# Generated by pormake.
# Topology gar, (4,6)-cn, num edge types: 1
# Building blocks:
#     Node 0, Type 0, BuildingBlock: QUQFOY_clean_sbu_1, # of connection points: 4
#     Node 1, Type 0, BuildingBlock: QUQFOY_clean_sbu_1, # of connection points: 4
#     Node 2, Type 0, BuildingBlock: QUQFOY_clean_sbu_1, # of connection points: 4
#     Node 3, Type 0, BuildingBlock: QUQFOY_clean_sbu_1, # of connection points: 4
#     Node 4, Type 0, BuildingBlock: QUQFOY_clean_sbu_1, # of connection points: 4
#     Node 5, Type 0, BuildingBlock: QUQFOY_clean_sbu_1, # of connection points: 4
#     Node 6, Type 0, BuildingBlock: QUQFOY_clean_sbu_1, # of connection points: 4
#     Node 7, Type 0, BuildingBlock: QUQFOY_clean_sbu_1, # of connection points: 4
#     Node 8, Type 0, BuildingBlock: QUQFOY_clean_sbu_1, # of connection points: 4
#     Node 9, Type 0, BuildingBlock: QUQFOY_clean_sbu_1, # of connection points: 4
#     Node 10, Type 0, BuildingBlock: QUQFOY_clean_sbu_1, # of connection points: 4
#     Node 11, Type 0, BuildingBlock: QUQFOY_clean_sbu_1, # of connection points: 4
#     Node 12, Type 0, BuildingBlock: QUQFOY_clean_sbu_1, # of connection points: 4
#     Node 13, Type 0, BuildingBlock: QUQFOY_clean_sbu_1, # of connection points: 4
#     Node 14, Type 0, BuildingBlock: QUQFOY_clean_sbu_1, # of connection points: 4
#     Node 15, Type 0, BuildingBlock: QUQFOY_clean_sbu_1, # of connection points: 4
#     Node 16, Type 0, BuildingBlock: QUQFOY_clean_sbu_1, # of connection points: 4
#     Node 17, Type 0, BuildingBlock: QUQFOY_clean_sbu_1, # of connection points: 4
#     Node 18, Type 0, BuildingBlock: QUQFOY_clean_sbu_1, # of connection points: 4
#     Node 19, Type 0, BuildingBlock: QUQFOY_clean_sbu_1, # of connection points: 4
#     Node 20, Type 0, BuildingBlock: QUQFOY_clean_sbu_1, # of connection points: 4
#     Node 21, Type 0, BuildingBlock: QUQFOY_clean_sbu_1, # of connection points: 4
#     Node 22, Type 0, BuildingBlock: QUQFOY_clean_sbu_1, # of connection points: 4
#     Node 23, Type 0, BuildingBlock: QUQFOY_clean_sbu_1, # of connection points: 4
#     Node 24, Type 1, BuildingBlock: PAMTUU_clean_sbu_0, # of connection points: 6
#     Node 25, Type 1, BuildingBlock: PAMTUU_clean_sbu_0, # of connection points: 6
#     Node 26, Type 1, BuildingBlock: PAMTUU_clean_sbu_0, # of connection points: 6
#     Node 27, Type 1, BuildingBlock: PAMTUU_clean_sbu_0, # of connection points: 6
#     Node 28, Type 1, BuildingBlock: PAMTUU_clean_sbu_0, # of connection points: 6
#     Node 29, Type 1, BuildingBlock: PAMTUU_clean_sbu_0, # of connection points: 6
#     Node 30, Type 1, BuildingBlock: PAMTUU_clean_sbu_0, # of connection points: 6
#     Node 31, Type 1, BuildingBlock: PAMTUU_clean_sbu_0, # of connection points: 6
#     Node 32, Type 1, BuildingBlock: PAMTUU_clean_sbu_0, # of connection points: 6
#     Node 33, Type 1, BuildingBlock: PAMTUU_clean_sbu_0, # of connection points: 6
#     Node 34, Type 1, BuildingBlock: PAMTUU_clean_sbu_0, # of connection points: 6
#     Node 35, Type 1, BuildingBlock: PAMTUU_clean_sbu_0, # of connection points: 6
#     Node 36, Type 1, BuildingBlock: PAMTUU_clean_sbu_0, # of connection points: 6
#     Node 37, Type 1, BuildingBlock: PAMTUU_clean_sbu_0, # of connection points: 6
#     Node 38, Type 1, BuildingBlock: PAMTUU_clean_sbu_0, # of connection points: 6
#     Node 39, Type 1, BuildingBlock: PAMTUU_clean_sbu_0, # of connection points: 6
#     Edge 40, Type (0, 1), BuildingBlock: CIFDUS_clean_linker_0, # of connection points: 2
#     Edge 41, Type (0, 1), BuildingBlock: CIFDUS_clean_linker_0, # of connection points: 2
#     Edge 42, Type (0, 1), BuildingBlock: CIFDUS_clean_linker_0, # of connection points: 2
#     Edge 43, Type (0, 1), BuildingBlock: CIFDUS_clean_linker_0, # of connection points: 2
#     Edge 44, Type (0, 1), BuildingBlock: CIFDUS_clean_linker_0, # of connection points: 2
#     Edge 45, Type (0, 1), BuildingBlock: CIFDUS_clean_linker_0, # of connection points: 2
#     Edge 46, Type (0, 1), BuildingBlock: CIFDUS_clean_linker_0, # of connection points: 2
#     Edge 47, Type (0, 1), BuildingBlock: CIFDUS_clean_linker_0, # of connection points: 2
#     Edge 48, Type (0, 1), BuildingBlock: CIFDUS_clean_linker_0, # of connection points: 2
#     Edge 49, Type (0, 1), BuildingBlock: CIFDUS_clean_linker_0, # of connection points: 2
#     Edge 50, Type (0, 1), BuildingBlock: CIFDUS_clean_linker_0, # of connection points: 2
#     Edge 51, Type (0, 1), BuildingBlock: CIFDUS_clean_linker_0, # of connection points: 2
#     Edge 52, Type (0, 1), BuildingBlock: CIFDUS_clean_linker_0, # of connection points: 2
#     Edge 53, Type (0, 1), BuildingBlock: CIFDUS_clean_linker_0, # of connection points: 2
#     Edge 54, Type (0, 1), BuildingBlock: CIFDUS_clean_linker_0, # of connection points: 2
#     Edge 55, Type (0, 1), BuildingBlock: CIFDUS_clean_linker_0, # of connection points: 2
#     Edge 56, Type (0, 1), BuildingBlock: CIFDUS_clean_linker_0, # of connection points: 2
#     Edge 57, Type (0, 1), BuildingBlock: CIFDUS_clean_linker_0, # of connection points: 2
#     Edge 58, Type (0, 1), BuildingBlock: CIFDUS_clean_linker_0, # of connection points: 2
#     Edge 59, Type (0, 1), BuildingBlock: CIFDUS_clean_linker_0, # of connection points: 2
#     Edge 60, Type (0, 1), BuildingBlock: CIFDUS_clean_linker_0, # of connection points: 2
#     Edge 61, Type (0, 1), BuildingBlock: CIFDUS_clean_linker_0, # of connection points: 2
#     Edge 62, Type (0, 1), BuildingBlock: CIFDUS_clean_linker_0, # of connection points: 2
#     Edge 63, Type (0, 1), BuildingBlock: CIFDUS_clean_linker_0, # of connection points: 2
#     Edge 64, Type (0, 1), BuildingBlock: CIFDUS_clean_linker_0, # of connection points: 2
#     Edge 65, Type (0, 1), BuildingBlock: CIFDUS_clean_linker_0, # of connection points: 2
#     Edge 66, Type (0, 1), BuildingBlock: CIFDUS_clean_linker_0, # of connection points: 2
#     Edge 67, Type (0, 1), BuildingBlock: CIFDUS_clean_linker_0, # of connection points: 2
#     Edge 68, Type (0, 1), BuildingBlock: CIFDUS_clean_linker_0, # of connection points: 2
#     Edge 69, Type (0, 1), BuildingBlock: CIFDUS_clean_linker_0, # of connection points: 2
#     Edge 70, Type (0, 1), BuildingBlock: CIFDUS_clean_linker_0, # of connection points: 2
#     Edge 71, Type (0, 1), BuildingBlock: CIFDUS_clean_linker_0, # of connection points: 2
#     Edge 72, Type (0, 1), BuildingBlock: CIFDUS_clean_linker_0, # of connection points: 2
#     Edge 73, Type (0, 1), BuildingBlock: CIFDUS_clean_linker_0, # of connection points: 2
#     Edge 74, Type (0, 1), BuildingBlock: CIFDUS_clean_linker_0, # of connection points: 2
#     Edge 75, Type (0, 1), BuildingBlock: CIFDUS_clean_linker_0, # of connection points: 2
#     Edge 76, Type (0, 1), BuildingBlock: CIFDUS_clean_linker_0, # of connection points: 2
#     Edge 77, Type (0, 1), BuildingBlock: CIFDUS_clean_linker_0, # of connection points: 2
#     Edge 78, Type (0, 1), BuildingBlock: CIFDUS_clean_linker_0, # of connection points: 2
#     Edge 79, Type (0, 1), BuildingBlock: CIFDUS_clean_linker_0, # of connection points: 2
#     Edge 80, Type (0, 1), BuildingBlock: CIFDUS_clean_linker_0, # of connection points: 2
#     Edge 81, Type (0, 1), BuildingBlock: CIFDUS_clean_linker_0, # of connection points: 2
#     Edge 82, Type (0, 1), BuildingBlock: CIFDUS_clean_linker_0, # of connection points: 2
#     Edge 83, Type (0, 1), BuildingBlock: CIFDUS_clean_linker_0, # of connection points: 2
#     Edge 84, Type (0, 1), BuildingBlock: CIFDUS_clean_linker_0, # of connection points: 2
#     Edge 85, Type (0, 1), BuildingBlock: CIFDUS_clean_linker_0, # of connection points: 2
#     Edge 86, Type (0, 1), BuildingBlock: CIFDUS_clean_linker_0, # of connection points: 2
#     Edge 87, Type (0, 1), BuildingBlock: CIFDUS_clean_linker_0, # of connection points: 2
#     Edge 88, Type (0, 1), BuildingBlock: CIFDUS_clean_linker_0, # of connection points: 2
#     Edge 89, Type (0, 1), BuildingBlock: CIFDUS_clean_linker_0, # of connection points: 2
#     Edge 90, Type (0, 1), BuildingBlock: CIFDUS_clean_linker_0, # of connection points: 2
#     Edge 91, Type (0, 1), BuildingBlock: CIFDUS_clean_linker_0, # of connection points: 2
#     Edge 92, Type (0, 1), BuildingBlock: CIFDUS_clean_linker_0, # of connection points: 2
#     Edge 93, Type (0, 1), BuildingBlock: CIFDUS_clean_linker_0, # of connection points: 2
#     Edge 94, Type (0, 1), BuildingBlock: CIFDUS_clean_linker_0, # of connection points: 2
#     Edge 95, Type (0, 1), BuildingBlock: CIFDUS_clean_linker_0, # of connection points: 2
#     Edge 96, Type (0, 1), BuildingBlock: CIFDUS_clean_linker_0, # of connection points: 2
#     Edge 97, Type (0, 1), BuildingBlock: CIFDUS_clean_linker_0, # of connection points: 2
#     Edge 98, Type (0, 1), BuildingBlock: CIFDUS_clean_linker_0, # of connection points: 2
#     Edge 99, Type (0, 1), BuildingBlock: CIFDUS_clean_linker_0, # of connection points: 2
#     Edge 100, Type (0, 1), BuildingBlock: CIFDUS_clean_linker_0, # of connection points: 2
#     Edge 101, Type (0, 1), BuildingBlock: CIFDUS_clean_linker_0, # of connection points: 2
#     Edge 102, Type (0, 1), BuildingBlock: CIFDUS_clean_linker_0, # of connection points: 2
#     Edge 103, Type (0, 1), BuildingBlock: CIFDUS_clean_linker_0, # of connection points: 2
#     Edge 104, Type (0, 1), BuildingBlock: CIFDUS_clean_linker_0, # of connection points: 2
#     Edge 105, Type (0, 1), BuildingBlock: CIFDUS_clean_linker_0, # of connection points: 2
#     Edge 106, Type (0, 1), BuildingBlock: CIFDUS_clean_linker_0, # of connection points: 2
#     Edge 107, Type (0, 1), BuildingBlock: CIFDUS_clean_linker_0, # of connection points: 2
#     Edge 108, Type (0, 1), BuildingBlock: CIFDUS_clean_linker_0, # of connection points: 2
#     Edge 109, Type (0, 1), BuildingBlock: CIFDUS_clean_linker_0, # of connection points: 2
#     Edge 110, Type (0, 1), BuildingBlock: CIFDUS_clean_linker_0, # of connection points: 2
#     Edge 111, Type (0, 1), BuildingBlock: CIFDUS_clean_linker_0, # of connection points: 2
#     Edge 112, Type (0, 1), BuildingBlock: CIFDUS_clean_linker_0, # of connection points: 2
#     Edge 113, Type (0, 1), BuildingBlock: CIFDUS_clean_linker_0, # of connection points: 2
#     Edge 114, Type (0, 1), BuildingBlock: CIFDUS_clean_linker_0, # of connection points: 2
#     Edge 115, Type (0, 1), BuildingBlock: CIFDUS_clean_linker_0, # of connection points: 2
#     Edge 116, Type (0, 1), BuildingBlock: CIFDUS_clean_linker_0, # of connection points: 2
#     Edge 117, Type (0, 1), BuildingBlock: CIFDUS_clean_linker_0, # of connection points: 2
#     Edge 118, Type (0, 1), BuildingBlock: CIFDUS_clean_linker_0, # of connection points: 2
#     Edge 119, Type (0, 1), BuildingBlock: CIFDUS_clean_linker_0, # of connection points: 2
#     Edge 120, Type (0, 1), BuildingBlock: CIFDUS_clean_linker_0, # of connection points: 2
#     Edge 121, Type (0, 1), BuildingBlock: CIFDUS_clean_linker_0, # of connection points: 2
#     Edge 122, Type (0, 1), BuildingBlock: CIFDUS_clean_linker_0, # of connection points: 2
#     Edge 123, Type (0, 1), BuildingBlock: CIFDUS_clean_linker_0, # of connection points: 2
#     Edge 124, Type (0, 1), BuildingBlock: CIFDUS_clean_linker_0, # of connection points: 2
#     Edge 125, Type (0, 1), BuildingBlock: CIFDUS_clean_linker_0, # of connection points: 2
#     Edge 126, Type (0, 1), BuildingBlock: CIFDUS_clean_linker_0, # of connection points: 2
#     Edge 127, Type (0, 1), BuildingBlock: CIFDUS_clean_linker_0, # of connection points: 2
#     Edge 128, Type (0, 1), BuildingBlock: CIFDUS_clean_linker_0, # of connection points: 2
#     Edge 129, Type (0, 1), BuildingBlock: CIFDUS_clean_linker_0, # of connection points: 2
#     Edge 130, Type (0, 1), BuildingBlock: CIFDUS_clean_linker_0, # of connection points: 2
#     Edge 131, Type (0, 1), BuildingBlock: CIFDUS_clean_linker_0, # of connection points: 2
#     Edge 132, Type (0, 1), BuildingBlock: CIFDUS_clean_linker_0, # of connection points: 2
#     Edge 133, Type (0, 1), BuildingBlock: CIFDUS_clean_linker_0, # of connection points: 2
#     Edge 134, Type (0, 1), BuildingBlock: CIFDUS_clean_linker_0, # of connection points: 2
#     Edge 135, Type (0, 1), BuildingBlock: CIFDUS_clean_linker_0, # of connection points: 2
# Relax obj value: 0.212
# Max RMSD: 0.359
# Mean RMSD: 0.186
data_MOF--net-gar--node1-QUQFOY_clean_sbu_1--node2-PAMTUU_clean_sbu_0--edge1-CIFDUS_clean_linker_0
_symmetry_space_group_name_H-M    P1
_symmetry_Int_Tables_number       1
_symmetry_cell_setting            triclinic
loop_
_symmetry_equiv_pos_as_xyz
'x, y, z'
_cell_length_a     54.544475
_cell_length_b     50.619652
_cell_length_c     54.052737
_cell_angle_alpha  94.231268
_cell_angle_beta   94.683914
_cell_angle_gamma 109.73576
loop_
_atom_site_label
_atom_site_type_symbol
_atom_site_fract_x
_atom_site_fract_y
_atom_site_fract_z
_atom_type_partial_charge
O0 O 0.07243 0.25604 0.41476 0.0
Cd1 Cd 0.07852 0.28114 0.38262 0.0
Cd2 Cd 0.04956 0.31292 0.43594 0.0
O3 O 0.05734 0.27334 0.44766 0.0
O4 O 0.10259 0.26568 0.35754 0.0
O5 O 0.11966 0.30605 0.37884 0.0
C6 C 0.12387 0.28735 0.36364 0.0
C7 C 0.052 0.35841 0.46279 0.0
C8 C 0.06499 0.25374 0.43699 0.0
C9 C 1.0201 0.29559 0.3781 0.0
O10 O 1.02311 0.30465 0.40154 0.0
O11 O 0.03854 0.28756 0.36865 0.0
O12 O 0.03424 0.33393 0.46341 0.0
O13 O 0.06955 0.35753 0.44834 0.0
O14 O 0.03676 0.76583 0.6728 0.0
Cd15 Cd 0.03946 0.79636 0.70583 0.0
Cd16 Cd 0.07757 0.83652 0.66212 0.0
O17 O 0.06032 0.79211 0.64526 0.0
O18 O 1.00859 0.77814 0.73029 0.0
O19 O 1.00912 0.81561 0.71439 0.0
C20 C 0.99701 0.79662 0.72828 0.0
C21 C 0.07816 0.87961 0.63768 0.0
C22 C 0.04708 0.76753 0.65181 0.0
C23 C 0.10658 0.82231 0.71265 0.0
O24 O 0.10753 0.83531 0.69258 0.0
O25 O 0.08356 0.80936 0.72027 0.0
O26 O 0.0928 0.86447 0.63411 0.0
O27 O 0.06326 0.87125 0.65508 0.0
O28 O 0.61492 0.79623 0.90278 0.0
Cd29 Cd 0.59077 0.78969 0.93517 0.0
Cd30 Cd 0.5563 0.81781 0.8828 0.0
O31 O 0.59529 0.81161 0.87108 0.0
O32 O 0.60359 0.76589 0.96269 0.0
O33 O 0.5675 0.74619 0.93868 0.0
C34 C 0.58372 0.74294 0.95609 0.0
C35 C 0.50901 0.81171 0.86101 0.0
C36 C 0.61515 0.80438 0.88042 0.0
C37 C 0.57334 0.84782 0.94167 0.0
O38 O 0.56434 0.84378 0.91831 0.0
O39 O 0.58281 0.82958 0.95108 0.0
O40 O 0.52999 0.83276 0.8586 0.0
O41 O 0.51454 0.79319 0.87362 0.0
O42 O 0.55304 0.24337 0.17438 0.0
Cd43 Cd 0.55379 0.27418 0.20686 0.0
Cd44 Cd 0.59249 0.31488 0.16536 0.0
O45 O 0.57724 0.27034 0.14771 0.0
O46 O 0.52155 0.25606 0.22994 0.0
O47 O 0.52299 0.29341 0.21336 0.0
C48 C 0.51013 0.27454 0.22699 0.0
C49 C 0.59218 0.3587 0.14228 0.0
C50 C 0.56428 0.24542 0.15387 0.0
C51 C 0.6206 0.30221 0.21699 0.0
O52 O 0.62197 0.31485 0.19671 0.0
O53 O 0.59731 0.28863 0.22372 0.0
O54 O 0.60759 0.3445 0.13848 0.0
O55 O 0.57685 0.34886 0.15904 0.0
O56 O 0.09905 0.76421 0.13678 0.0
Cd57 Cd 0.09887 0.7969 0.16184 0.0
Cd58 Cd 0.12692 0.82985 0.12859 0.0
O59 O 0.11593 0.7895 0.10666 0.0
O60 O 0.07108 0.77917 0.18338 0.0
O61 O 0.0701 0.81345 0.16071 0.0
C62 C 0.05954 0.79624 0.17647 0.0
C63 C 0.11388 0.8689 0.11625 0.0
C64 C 0.10626 0.76545 0.115 0.0
C65 C 0.15464 0.82943 0.18064 0.0
O66 O 0.15728 0.83682 0.15858 0.0
O67 O 0.1322 0.81508 0.18625 0.0
O68 O 0.13414 0.86451 0.10854 0.0
O69 O 0.10083 0.8511 0.1305 0.0
O70 O 0.57321 0.79621 0.45987 0.0
Cd71 Cd 0.55517 0.79521 0.49216 0.0
Cd72 Cd 0.51392 0.80521 0.4463 0.0
O73 O 0.54364 0.7966 0.42917 0.0
O74 O 0.57895 0.7835 0.51697 0.0
O75 O 0.53903 0.75534 0.50323 0.0
C76 C 0.56121 0.75881 0.51598 0.0
C77 C 0.47701 0.80215 0.41746 0.0
C78 C 0.56594 0.79538 0.43675 0.0
C79 C 0.53825 0.8484 0.49505 0.0
O80 O 0.52437 0.83913 0.47399 0.0
O81 O 0.55103 0.83425 0.50557 0.0
O82 O 0.4996 0.82137 0.41782 0.0
O83 O 0.47481 0.78427 0.43368 0.0
O84 O 0.61991 0.28842 0.64845 0.0
Cd85 Cd 0.63094 0.32407 0.67367 0.0
Cd86 Cd 0.65448 0.34953 0.63456 0.0
O87 O 0.63669 0.30763 0.61551 0.0
O88 O 0.60876 0.31083 0.7011 0.0
O89 O 0.60536 0.34446 0.67884 0.0
C90 C 0.59716 0.32845 0.6961 0.0
C91 C 0.64098 0.38975 0.6267 0.0
C92 C 0.62411 0.28576 0.62577 0.0
C93 C 0.6902 0.34776 0.6809 0.0
O94 O 0.68923 0.35425 0.65844 0.0
O95 O 0.66908 0.33741 0.69078 0.0
O96 O 0.65605 0.3821 0.61268 0.0
O97 O 0.63336 0.37461 0.64472 0.0
O98 O 0.03157 0.2255 0.95803 0.0
Cd99 Cd 0.03546 0.25808 0.93591 0.0
Cd100 Cd 1.01487 0.2794 0.97615 0.0
O101 O 1.02333 0.24498 0.99285 0.0
O102 O 0.05169 0.24629 0.90758 0.0
O103 O 0.0717 0.28548 0.93273 0.0
C104 C 0.07182 0.26885 0.91347 0.0
C105 C 0.03289 0.32835 0.99186 0.0
C106 C 0.02852 0.22483 0.98107 0.0
C107 C 0.98422 0.26891 0.92448 0.0
O108 O 0.98313 0.27272 0.94792 0.0
O109 O 1.00372 0.26388 0.91676 0.0
O110 O 1.0131 0.31112 1.00077 0.0
O111 O 0.04383 0.31744 0.97555 0.0
O112 O 0.44845 0.04372 0.29257 0.0
Cd113 Cd 0.42637 0.0586 0.31498 0.0
Cd114 Cd 0.46818 0.06627 0.34429 0.0
O115 O 0.48444 0.07498 0.31177 0.0
O116 O 0.42726 0.09805 0.31253 0.0
O117 O 0.39852 0.06009 0.2902 0.0
C118 C 0.40803 0.08716 0.29501 0.0
C119 C 0.49602 0.08734 0.3804 0.0
C120 C 0.47266 0.05753 0.29301 0.0
C121 C 0.41978 0.01704 0.347 0.0
O122 O 0.4444 0.02488 0.34637 0.0
O123 O 0.40762 0.03301 0.34011 0.0
O124 O 0.49976 0.06824 0.36575 0.0
O125 O 0.47624 0.09504 0.37443 0.0
O126 O 0.3274 0.22975 0.59448 0.0
Cd127 Cd 0.31955 0.20277 0.56217 0.0
Cd128 Cd 0.30808 0.2472 0.53924 0.0
O129 O 0.32134 0.26661 0.57883 0.0
O130 O 0.33447 0.17323 0.57164 0.0
O131 O 0.34886 0.20048 0.54215 0.0
C132 C 0.35072 0.1808 0.55532 0.0
C133 C 0.31914 0.26159 0.49739 0.0
C134 C 0.32667 0.25456 0.59791 0.0
C135 C 0.26326 0.19169 0.54209 0.0
O136 O 0.27042 0.21698 0.53634 0.0
O137 O 0.27996 0.18161 0.55142 0.0
O138 O 0.3077 0.27415 0.51182 0.0
O139 O 0.32658 0.24261 0.50725 0.0
O140 O 0.18602 0.08996 0.81127 0.0
Cd141 Cd 0.20497 0.08733 0.84518 0.0
Cd142 Cd 0.15793 0.07916 0.85465 0.0
O143 O 0.14882 0.05968 0.81931 0.0
O144 O 0.24062 0.08961 0.83848 0.0
O145 O 0.21055 0.05118 0.84899 0.0
C146 C 0.23356 0.06334 0.84221 0.0
C147 C 0.14185 0.05513 0.88694 0.0
C148 C 0.16311 0.07283 0.80373 0.0
C149 C 0.19775 0.13349 0.86876 0.0
O150 O 0.17447 0.12278 0.85807 0.0
O151 O 0.20921 0.11656 0.87473 0.0
O152 O 0.16563 0.05879 0.88231 0.0
O153 O 0.12752 0.06533 0.87308 0.0
O154 O 0.3045 0.93273 0.05945 0.0
Cd155 Cd 0.31847 0.95947 0.03293 0.0
Cd156 Cd 0.31569 0.91172 0.00915 0.0
O157 O 0.29444 0.89218 0.0363 0.0
O158 O 0.31837 0.99578 0.04939 0.0
O159 O 0.29558 0.97622 0.01303 0.0
C160 C 0.30236 0.99657 0.03088 0.0
C161 C 0.30215 0.90189 0.9669 0.0
C162 C 0.29516 0.90593 0.0571 0.0
C163 C 0.3688 0.95116 0.02544 0.0
O164 O 0.35544 0.92546 0.01851 0.0
O165 O 0.35743 0.96894 0.02938 0.0
O166 O 0.30788 0.88376 0.97961 0.0
O167 O 0.30279 0.92541 0.97852 0.0
O168 O 0.32625 0.36715 0.10443 0.0
Cd169 Cd 0.33018 0.39383 0.07604 0.0
Cd170 Cd 0.33994 0.34694 0.04818 0.0
O171 O 0.32881 0.32887 0.08366 0.0
O172 O 0.31437 0.42286 0.08703 0.0
O173 O 0.29853 0.39298 0.05302 0.0
C174 C 0.29712 0.41362 0.06773 0.0
C175 C 0.32687 0.33101 1.0034 0.0
C176 C 0.32575 0.34174 0.10423 0.0
C177 C 0.38376 0.40547 0.05851 0.0
O178 O 0.37643 0.37906 0.0517 0.0
O179 O 0.36791 0.41605 0.06768 0.0
O180 O 0.34216 0.32156 0.01682 0.0
O181 O 0.31661 0.34684 0.01566 0.0
O182 O 0.84108 0.16425 0.13612 0.0
Cd183 Cd 0.82942 0.1448 0.09991 0.0
Cd184 Cd 0.82809 0.19396 0.09195 0.0
O185 O 0.85265 0.20696 0.12442 0.0
O186 O 0.84059 0.11152 0.09614 0.0
O187 O 0.85529 0.14877 0.07516 0.0
C188 C 0.85508 0.12399 0.07976 0.0
C189 C 0.83578 0.2196 0.05797 0.0
C190 C 0.8517 0.19082 0.14145 0.0
C191 C 0.77721 0.14802 0.08933 0.0
O192 O 0.78884 0.17437 0.09472 0.0
O193 O 0.79026 0.13162 0.0873 0.0
O194 O 0.82974 0.22967 0.07823 0.0
O195 O 0.83879 0.19533 0.05736 0.0
O196 O 0.15607 0.50587 0.20862 0.0
Cd197 Cd 0.18953 0.52567 0.23241 0.0
Cd198 Cd 0.156 0.53925 0.26205 0.0
O199 O 0.13048 0.52141 0.23056 0.0
O200 O 0.21536 0.50896 0.22221 0.0
O201 O 0.20142 0.50705 0.25978 0.0
C202 C 0.21655 0.50158 0.24449 0.0
C203 C 0.13581 0.53601 0.29858 0.0
C204 C 0.13389 0.50803 0.21116 0.0
C205 C 0.20366 0.58587 0.24853 0.0
O206 O 0.1849 0.57776 0.26181 0.0
O207 O 0.20821 0.56829 0.23332 0.0
O208 O 0.13215 0.55143 0.28184 0.0
O209 O 0.15099 0.52173 0.29454 0.0
O210 O 0.82231 0.8807 0.60973 0.0
Cd211 Cd 0.82536 0.90525 0.58003 0.0
Cd212 Cd 0.83524 0.85669 0.55576 0.0
O213 O 0.82382 0.84044 0.59214 0.0
O214 O 0.81599 0.9377 0.59445 0.0
O215 O 0.79374 0.91008 0.56082 0.0
C216 C 0.79713 0.93168 0.57672 0.0
C217 C 0.82049 0.84066 0.51124 0.0
C218 C 0.8213 0.8554 0.61166 0.0
C219 C 0.87861 0.915 0.56185 0.0
O220 O 0.87234 0.88826 0.55774 0.0
O221 O 0.86217 0.92561 0.56949 0.0
O222 O 0.83496 0.82993 0.52436 0.0
O223 O 0.8118 0.85779 0.52379 0.0
O224 O 0.93275 0.0644 0.18992 0.0
Cd225 Cd 0.90734 0.05104 0.21555 0.0
Cd226 Cd 0.95072 0.05474 0.2488 0.0
O227 O 0.96642 0.06586 0.21614 0.0
O228 O 0.87806 0.06528 0.21147 0.0
O229 O 0.90785 0.07697 0.2449 0.0
C230 C 0.88659 0.07847 0.23357 0.0
C231 C 0.982 0.07041 0.28384 0.0
C232 C 0.95704 0.06899 0.19473 0.0
C233 C 0.90249 1.00005 0.23871 0.0
O234 O 0.92366 0.01538 0.25176 0.0
O235 O 0.89301 1.00941 0.22056 0.0
O236 O 0.98201 0.05089 0.26727 0.0
O237 O 0.96413 0.08164 0.28052 0.0
O238 O 0.32711 0.66284 0.63419 0.0
Cd239 Cd 0.31374 0.63119 0.60465 0.0
Cd240 Cd 0.30489 0.67467 0.58043 0.0
O241 O 0.32451 0.69777 0.61325 0.0
O242 O 0.32851 0.60138 0.61232 0.0
O243 O 0.33758 0.62572 0.5798 0.0
C244 C 0.3406 0.60629 0.5927 0.0
C245 C 0.30905 0.70011 0.54537 0.0
C246 C 0.33035 0.68886 0.63346 0.0
C247 C 0.25829 0.62338 0.58957 0.0
O248 O 0.26727 0.64785 0.58244 0.0
O249 O 0.27368 0.61129 0.59797 0.0
O250 O 0.29682 0.70492 0.56352 0.0
O251 O 0.31942 0.68077 0.54703 0.0
O252 O 0.44202 0.56794 0.71659 0.0
Cd253 Cd 0.42316 0.5615 0.7481 0.0
Cd254 Cd 0.47299 0.56686 0.77035 0.0
O255 O 0.48187 0.58094 0.73652 0.0
O256 O 0.3898 0.56798 0.73997 0.0
O257 O 0.42017 0.59306 0.77066 0.0
C258 C 0.39741 0.58776 0.7583 0.0
C259 C 0.50611 0.58421 0.80386 0.0
C260 C 0.46671 0.57737 0.7165 0.0
C261 C 0.42881 0.51077 0.76791 0.0
O262 O 0.45325 0.52442 0.77154 0.0
O263 O 0.4129 0.52234 0.75985 0.0
O264 O 0.50821 0.5687 0.78482 0.0
O265 O 0.48551 0.59137 0.80344 0.0
O266 O 0.68625 0.02625 0.72418 0.0
Cd267 Cd 0.70357 0.04519 0.75915 0.0
Cd268 Cd 0.66001 0.05303 0.76726 0.0
O269 O 0.65102 0.03641 0.7309 0.0
O270 O 0.73382 0.03391 0.76888 0.0
O271 O 0.69909 0.02515 0.78991 0.0
C272 C 0.72235 0.0245 0.78803 0.0
C273 C 0.6278 0.03543 0.79284 0.0
C274 C 0.66361 0.0262 0.71656 0.0
C275 C 0.70733 0.10458 0.77202 0.0
O276 O 0.68346 0.09473 0.77589 0.0
O277 O 0.71868 0.08818 0.76381 0.0
O278 O 0.62563 0.05225 0.77674 0.0
O279 O 0.64846 0.02833 0.79425 0.0
O280 O 0.82793 0.74444 0.10429 0.0
Cd281 Cd 0.82334 0.71594 0.07339 0.0
Cd282 Cd 0.80456 0.75529 0.04672 0.0
O283 O 0.81477 0.77605 0.08597 0.0
O284 O 0.84163 0.68959 0.08448 0.0
O285 O 0.85246 0.71447 0.05278 0.0
C286 C 0.85619 0.69619 0.0667 0.0
C287 C 0.81545 0.76859 1.00454 0.0
C288 C 0.82241 0.76694 0.106 0.0
C289 C 0.76629 0.6961 0.05201 0.0
O290 O 0.77017 0.72014 0.04405 0.0
O291 O 0.78496 0.69034 0.06326 0.0
O292 O 0.8002 0.7782 0.0167 0.0
O293 O 0.82647 0.75385 0.01697 0.0
O294 O 0.94024 0.57455 0.81061 0.0
Cd295 Cd 0.93442 0.57212 0.84817 0.0
Cd296 Cd 0.9843 0.58399 0.84676 0.0
O297 O 0.98102 0.60348 0.81584 0.0
O298 O 0.8956 0.55848 0.84473 0.0
O299 O 0.92016 0.5992 0.86579 0.0
C300 C 0.89713 0.58147 0.8576 0.0
C301 C 1.00994 0.60485 0.88333 0.0
C302 C 0.95992 0.59099 0.80168 0.0
C303 C 0.9542 0.52754 0.85602 0.0
O304 O 0.97118 0.54032 0.84226 0.0
O305 O 0.94107 0.54066 0.86637 0.0
O306 O 1.0201 0.59772 0.86426 0.0
O307 O 0.98535 0.60206 0.8807 0.0
O308 O 0.82016 0.43539 0.56987 0.0
Cd309 Cd 0.80869 0.46226 0.5491 0.0
Cd310 Cd 0.81546 0.42521 0.5121 0.0
O311 O 0.8127 0.39995 0.54079 0.0
O312 O 0.80363 0.48721 0.57656 0.0
O313 O 0.77168 0.4625 0.54743 0.0
C314 C 0.77957 0.48013 0.56737 0.0
C315 C 0.80295 0.40146 0.47195 0.0
C316 C 0.81867 0.41025 0.56348 0.0
C317 C 0.85398 0.48504 0.5219 0.0
O318 O 0.84952 0.45956 0.51355 0.0
O319 O 0.8376 0.49147 0.53412 0.0
O320 O 0.82239 0.40002 0.48617 0.0
O321 O 0.7897 0.41617 0.4806 0.0
O322 O 0.64775 0.53003 0.31262 0.0
Cd323 Cd 0.6858 0.54281 0.3289 0.0
Cd324 Cd 0.66664 0.56284 0.36587 0.0
O325 O 0.63521 0.55626 0.33952 0.0
O326 O 0.70302 0.52461 0.30589 0.0
O327 O 0.70144 0.51714 0.34566 0.0
C328 C 0.70963 0.51296 0.32446 0.0
C329 C 0.65723 0.54962 0.40484 0.0
C330 C 0.63075 0.54033 0.3192 0.0
C331 C 0.71224 0.60355 0.34702 0.0
O332 O 0.69866 0.59833 0.36516 0.0
O333 O 0.70872 0.58453 0.32914 0.0
O334 O 0.65427 0.57201 0.39739 0.0
O335 O 0.66546 0.53409 0.39001 0.0
Tb336 Tb 0.10997 0.07933 0.07466 0.0
Tb337 Tb 0.05325 0.03719 0.04707 0.0
C338 C 0.05925 0.06951 0.09994 0.0
C339 C 0.17969 0.1043 0.08565 0.0
C340 C 0.22372 0.09306 0.07071 0.0
C341 C 0.22692 0.11781 0.08636 0.0
C342 C 0.20493 0.12346 0.09374 0.0
C343 C 0.17662 0.07982 0.07002 0.0
C344 C 0.19828 0.0742 0.06271 0.0
C345 C 0.15597 0.10921 0.09235 0.0
O346 O 0.11167 0.03649 0.07399 0.0
O347 O 0.06791 1.01014 0.07012 0.0
O348 O 0.08115 0.02839 0.02482 0.0
O349 O 0.11461 0.07063 0.03587 0.0
O350 O 1.0166 1.00715 0.05066 0.0
O351 O 0.02615 0.02184 0.01493 0.0
O352 O 0.05959 0.07877 0.033 0.0
O353 O 0.08852 0.10766 0.06508 0.0
O354 O 0.08398 0.07194 0.10359 0.0
O355 O 0.04595 0.06208 0.0778 0.0
C356 C 0.09266 1.01246 0.07548 0.0
O357 O 0.14288 0.11581 0.07404 0.0
O358 O 0.14061 0.08943 0.10387 0.0
C359 C 0.10368 0.0469 0.02135 0.0
C360 C 0.98465 0.01785 0.02657 0.0
C361 C 0.94228 0.03651 0.03315 0.0
C362 C 0.93806 1.00749 0.02819 0.0
C363 C 0.95917 0.99822 0.025 0.0
C364 C 0.9887 0.04679 0.03042 0.0
C365 C 0.96779 0.05603 0.03366 0.0
C366 C 1.00746 1.0087 0.02796 0.0
C367 C 0.0713 0.1041 0.04537 0.0
H368 H 0.24632 0.13269 0.09288 0.0
H369 H 0.2076 0.14258 0.1057 0.0
H370 H 0.15733 0.06483 0.06348 0.0
H371 H 0.19498 0.05455 0.05128 0.0
H372 H 0.91859 0.99196 0.02752 0.0
H373 H 0.95576 0.97578 0.02234 0.0
H374 H 1.00827 0.06229 0.03219 0.0
H375 H 0.97192 0.07845 0.03797 0.0
Tb376 Tb 0.29339 0.80493 0.32189 0.0
Tb377 Tb 0.32679 0.79911 0.27519 0.0
C378 C 0.27481 0.8149 0.26747 0.0
C379 C 0.27648 0.80248 0.38594 0.0
C380 C 0.28773 0.78686 0.43333 0.0
C381 C 0.26268 0.78759 0.42572 0.0
C382 C 0.25709 0.79521 0.40215 0.0
C383 C 0.30184 0.80305 0.39387 0.0
C384 C 0.30741 0.79523 0.41735 0.0
C385 C 0.26933 0.80527 0.35975 0.0
O386 O 0.27204 0.76715 0.29734 0.0
O387 O 0.30713 0.75709 0.28533 0.0
O388 O 0.35328 0.80059 0.30795 0.0
O389 O 0.32306 0.78761 0.33616 0.0
O390 O 0.32827 0.77619 0.24168 0.0
O391 O 0.35959 0.81492 0.25564 0.0
O392 O 0.33349 0.84349 0.28479 0.0
O393 O 0.3282 0.84215 0.32622 0.0
O394 O 0.27553 0.82175 0.29167 0.0
O395 O 0.29006 0.80192 0.25875 0.0
C396 C 0.28247 0.74885 0.28938 0.0
O397 O 0.28329 0.82816 0.35082 0.0
O398 O 0.26593 0.78279 0.34462 0.0
C399 C 0.34696 0.79256 0.32986 0.0
C400 C 0.34337 0.80862 0.21332 0.0
C401 C 0.32558 0.82619 0.16909 0.0
C402 C 0.34078 0.80846 0.16829 0.0
C403 C 0.34931 0.79945 0.19025 0.0
C404 C 0.32928 0.82716 0.21428 0.0
C405 C 0.32014 0.83547 0.1925 0.0
C406 C 0.34847 0.7966 0.23623 0.0
C407 C 0.33829 0.85574 0.30775 0.0
H408 H 0.24704 0.78097 0.4375 0.0
H409 H 0.23733 0.79427 0.39618 0.0
H410 H 0.31706 0.80851 0.38155 0.0
H411 H 0.32695 0.79515 0.4228 0.0
H412 H 0.34598 0.80135 0.15075 0.0
H413 H 0.36007 0.78497 0.18916 0.0
H414 H 0.32435 0.83438 0.23192 0.0
H415 H 0.30805 0.84847 0.19419 0.0
Tb416 Tb 0.55843 0.06582 0.55509 0.0
Tb417 Tb 0.61993 0.07739 0.54331 0.0
C418 C 0.59942 0.05483 0.5933 0.0
C419 C 0.49172 0.07203 0.56091 0.0
C420 C 0.45345 0.09837 0.5613 0.0
C421 C 0.44671 0.06934 0.56364 0.0
C422 C 0.46562 0.05638 0.56347 0.0
C423 C 0.49863 0.1009 0.55795 0.0
C424 C 0.4796 0.11396 0.55808 0.0
C425 C 0.51115 0.05761 0.56186 0.0
O426 O 0.58126 0.10909 0.57204 0.0
O427 O 0.61747 0.11956 0.55026 0.0
O428 O 0.59607 0.07473 0.50848 0.0
O429 O 0.56508 0.09032 0.52374 0.0
O430 O 0.66077 0.09495 0.55313 0.0
O431 O 0.64454 0.07026 0.51764 0.0
O432 O 0.60297 0.03211 0.54442 0.0
O433 O 0.55916 0.02554 0.53633 0.0
O434 O 0.57478 0.04762 0.58419 0.0
O435 O 0.61884 0.07111 0.58247 0.0
C436 C 0.60233 0.12758 0.56476 0.0
O437 O 0.51863 0.0511 0.54063 0.0
O438 O 0.53075 0.06729 0.57951 0.0
C439 C 0.57795 0.08618 0.50539 0.0
C440 C 0.68181 0.06398 0.53748 0.0
C441 C 0.70945 0.02603 0.54291 0.0
C442 C 0.70929 0.03929 0.52094 0.0
C443 C 0.69564 0.05809 0.51828 0.0
C444 C 0.68211 0.05098 0.55953 0.0
C445 C 0.69588 0.03231 0.56227 0.0
C446 C 0.66555 0.08182 0.5334 0.0
C447 C 0.57862 0.01539 0.53796 0.0
H448 H 0.42673 0.05655 0.5657 0.0
H449 H 0.45987 0.03405 0.5656 0.0
H450 H 0.51871 0.11334 0.55588 0.0
H451 H 0.48549 0.13637 0.55635 0.0
H452 H 0.71977 0.03518 0.50578 0.0
H453 H 0.69552 0.0677 0.50103 0.0
H454 H 0.67135 0.05487 0.57447 0.0
H455 H 0.69534 0.02225 0.57933 0.0
Tb456 Tb 0.35666 0.29653 0.80158 0.0
Tb457 Tb 0.29966 0.30552 0.79732 0.0
C458 C 0.30488 0.24956 0.8084 0.0
C459 C 0.42341 0.29396 0.79038 0.0
C460 C 0.46987 0.30077 0.76791 0.0
C461 C 0.45317 0.27379 0.77194 0.0
C462 C 0.4303 0.27047 0.78315 0.0
C463 C 0.43957 0.32092 0.78565 0.0
C464 C 0.46257 0.32427 0.7745 0.0
C465 C 0.40058 0.28994 0.80452 0.0
O466 O 0.34154 0.28464 0.76134 0.0
O467 O 0.30983 0.30527 0.75845 0.0
O468 O 0.32961 0.34627 0.8081 0.0
O469 O 0.36254 0.33772 0.78934 0.0
O470 O 0.25892 0.28708 0.7957 0.0
O471 O 0.27681 0.33127 0.79154 0.0
O472 O 0.30796 0.30521 0.83815 0.0
O473 O 0.35179 0.31001 0.84046 0.0
O474 O 0.32947 0.26181 0.81718 0.0
O475 O 0.29417 0.26112 0.7919 0.0
C476 C 0.32498 0.29327 0.74764 0.0
O477 O 0.39681 0.31253 0.8141 0.0
O478 O 0.37864 0.27018 0.79512 0.0
C479 C 0.35149 0.35524 0.79797 0.0
C480 C 0.23783 0.31696 0.81098 0.0
C481 C 0.20026 0.31848 0.84317 0.0
C482 C 0.19472 0.31806 0.81724 0.0
C483 C 0.21336 0.31726 0.80128 0.0
C484 C 0.24409 0.31911 0.83694 0.0
C485 C 0.22543 0.31997 0.85298 0.0
C486 C 0.25511 0.31089 0.79376 0.0
C487 C 0.33067 0.30932 0.8515 0.0
H488 H 0.4579 0.25517 0.76665 0.0
H489 H 0.41822 0.24949 0.78664 0.0
H490 H 0.43483 0.33949 0.79108 0.0
H491 H 0.47506 0.34536 0.77182 0.0
H492 H 0.17557 0.31722 0.80924 0.0
H493 H 0.20824 0.31557 0.78129 0.0
H494 H 0.26291 0.31877 0.8447 0.0
H495 H 0.23014 0.32012 0.87286 0.0
Tb496 Tb 0.0608 0.08179 0.56593 0.0
Tb497 Tb 0.06487 0.04992 0.51499 0.0
C498 C 1.01191 0.03656 0.53814 0.0
C499 C 0.07137 0.10468 0.6321 0.0
C500 C 0.1002 0.10278 0.67678 0.0
C501 C 0.09152 0.07944 0.65853 0.0
C502 C 0.07724 0.0804 0.63641 0.0
C503 C 0.07974 0.128 0.65029 0.0
C504 C 0.0941 0.12706 0.67261 0.0
C505 C 0.05929 0.10656 0.60753 0.0
O506 O 0.06024 0.03981 0.57721 0.0
O507 O 0.07424 0.02215 0.54301 0.0
O508 O 0.10179 0.0846 0.52387 0.0
O509 O 0.10186 0.08541 0.56577 0.0
O510 O 0.04517 0.02793 0.48088 0.0
O511 O 0.08636 0.03474 0.49051 0.0
O512 O 0.05692 0.08865 0.50242 0.0
O513 O 0.06293 0.11475 0.5402 0.0
O514 O 1.0209 0.06301 0.54762 0.0
O515 O 0.02776 0.02578 0.52784 0.0
C516 C 0.06804 0.01997 0.56642 0.0
O517 O 0.07596 0.11772 0.59204 0.0
O518 O 0.04084 0.08357 0.59721 0.0
C519 C 0.11448 0.09193 0.54623 0.0
C520 C 0.07155 0.03708 0.44873 0.0
C521 C 0.06847 0.05598 0.40141 0.0
C522 C 0.06484 0.02742 0.4037 0.0
C523 C 0.06624 0.01803 0.42724 0.0
C524 C 0.07729 0.06596 0.44653 0.0
C525 C 0.07565 0.07535 0.423 0.0
C526 C 0.06663 0.02631 0.47291 0.0
C527 C 0.0597 0.11317 0.5155 0.0
H528 H 0.09631 0.06064 0.66109 0.0
H529 H 0.07137 0.06236 0.62243 0.0
H530 H 0.07564 0.14704 0.647 0.0
H531 H 0.10047 0.14524 0.68654 0.0
H532 H 0.05898 1.01196 0.38742 0.0
H533 H 0.06155 0.99566 0.42866 0.0
H534 H 0.08148 0.08096 0.463 0.0
H535 H 0.07871 0.09748 0.42175 0.0
Tb536 Tb 0.32256 0.84874 0.77826 0.0
Tb537 Tb 0.29492 0.78743 0.79401 0.0
C538 C 0.32157 0.79511 0.74374 0.0
C539 C 0.32691 0.91978 0.77809 0.0
C540 C 0.29928 0.95501 0.79244 0.0
C541 C 0.31952 0.9643 0.77708 0.0
C542 C 0.33328 0.94662 0.76983 0.0
C543 C 0.30709 0.91093 0.79375 0.0
C544 C 0.29357 0.92838 0.80099 0.0
C545 C 0.33924 0.89959 0.77 0.0
O546 O 0.27936 0.84113 0.7683 0.0
O547 O 0.25958 0.79453 0.77363 0.0
O548 O 0.28132 0.81496 0.81669 0.0
O549 O 0.31792 0.85308 0.81798 0.0
O550 O 0.27326 0.74405 0.78686 0.0
O551 O 0.2879 0.76383 0.82457 0.0
O552 O 0.33834 0.79954 0.80988 0.0
O553 O 0.35787 0.8371 0.78862 0.0
O554 O 0.32647 0.82246 0.74624 0.0
O555 O 0.3103 0.77863 0.76014 0.0
C556 C 0.2575 0.81851 0.76634 0.0
O557 O 0.34946 0.88982 0.78823 0.0
O558 O 0.32448 0.87927 0.75342 0.0
C559 C 0.29691 0.83905 0.82779 0.0
C560 C 0.29094 0.71925 0.81381 0.0
C561 C 0.31837 0.68117 0.81237 0.0
C562 C 0.29127 0.67178 0.80461 0.0
C563 C 0.27767 0.69073 0.80529 0.0
C564 C 0.31765 0.72826 0.82297 0.0
C565 C 0.33122 0.7094 0.82229 0.0
C566 C 0.27796 0.74004 0.81011 0.0
C567 C 0.3604 0.81817 0.8035 0.0
H568 H 0.3242 0.98482 0.77025 0.0
H569 H 0.34844 0.95363 0.7576 0.0
H570 H 0.3017 0.89022 0.80014 0.0
H571 H 0.27848 0.92089 0.81324 0.0
H572 H 0.28083 0.65003 0.79713 0.0
H573 H 0.2571 0.68341 0.79811 0.0
H574 H 0.32844 0.75019 0.82957 0.0
H575 H 0.35212 0.71737 0.82812 0.0
Tb576 Tb 0.57682 0.03087 0.08151 0.0
Tb577 Tb 0.56907 0.05596 0.03134 0.0
C578 C 0.62485 0.06612 0.05649 0.0
C579 C 0.56367 1.00314 0.14135 0.0
C580 C 0.53316 1.00161 0.18071 0.0
C581 C 0.55938 1.00326 0.1855 0.0
C582 C 0.57458 1.00402 0.16586 0.0
C583 C 0.5371 0.99994 0.13641 0.0
C584 C 0.52188 0.999 0.15598 0.0
C585 C 0.5806 1.00901 0.12143 0.0
O586 O 0.56614 0.06882 0.09398 0.0
O587 O 0.57514 0.09334 0.05989 0.0
O588 O 0.53363 0.0494 0.04854 0.0
O589 O 0.53553 1.01187 0.06764 0.0
O590 O 0.5807 0.08496 1.00504 0.0
O591 O 0.54293 0.05121 0.99943 0.0
O592 O 0.56442 1.0103 0.01951 0.0
O593 O 0.58789 1.0034 0.05348 0.0
O594 O 0.61485 0.06075 0.07745 0.0
O595 O 0.61012 0.06016 0.03511 0.0
C596 C 0.56998 0.09288 0.08361 0.0
O597 O 0.57053 0.99451 0.09992 0.0
O598 O 0.59196 0.03567 0.1192 0.0
C599 C 0.52202 0.02638 0.05829 0.0
C600 C 0.56577 0.06005 0.96486 0.0
C601 C 0.57353 0.03293 0.92047 0.0
C602 C 0.54904 0.03551 0.92345 0.0
C603 C 0.54525 0.04908 0.94545 0.0
C604 C 0.59018 0.05732 0.96201 0.0
C605 C 0.59407 0.04409 0.93996 0.0
C606 C 0.56039 0.07034 0.98912 0.0
C607 C 0.57674 0.99466 0.03022 0.0
H608 H 0.56838 1.00519 0.20448 0.0
H609 H 0.5951 1.00663 0.16989 0.0
H610 H 0.52844 0.99956 0.11756 0.0
H611 H 0.50182 0.9981 0.15187 0.0
H612 H 0.53281 0.02697 0.90882 0.0
H613 H 0.5261 0.0504 0.94758 0.0
H614 H 0.6062 0.06505 0.97692 0.0
H615 H 0.61336 0.0431 0.93806 0.0
Tb616 Tb 0.30679 0.2543 0.28695 0.0
Tb617 Tb 0.33095 0.31781 0.30637 0.0
C618 C 0.31381 0.30046 0.24883 0.0
C619 C 0.29104 0.18702 0.24838 0.0
C620 C 0.31703 0.15419 0.22629 0.0
C621 C 0.29322 0.14117 0.23598 0.0
C622 C 0.28039 0.15762 0.24723 0.0
C623 C 0.31216 0.19965 0.23497 0.0
C624 C 0.32502 0.18321 0.22375 0.0
C625 C 0.28448 0.20408 0.26792 0.0
O626 O 0.3492 0.26043 0.28143 0.0
O627 O 0.36583 0.30814 0.29206 0.0
O628 O 0.33686 0.29921 0.34095 0.0
O629 O 0.31158 0.25332 0.32823 0.0
O630 O 0.35442 0.35821 0.29902 0.0
O631 O 0.33838 0.35194 0.33393 0.0
O632 O 0.28886 0.30959 0.31505 0.0
O633 O 0.27105 0.26389 0.29779 0.0
O634 O 0.31599 0.27603 0.2528 0.0
O635 O 0.31218 0.3168 0.2683 0.0
C636 C 0.3695 0.28454 0.28286 0.0
O637 O 0.30134 0.21151 0.28798 0.0
O638 O 0.27794 0.22512 0.26085 0.0
C639 C 0.3246 0.27346 0.34636 0.0
C640 C 0.33662 0.39087 0.31472 0.0
C641 C 0.31048 0.42866 0.30515 0.0
C642 C 0.33404 0.43774 0.32119 0.0
C643 C 0.3472 0.41883 0.32587 0.0
C644 C 0.31274 0.38178 0.29935 0.0
C645 C 0.29984 0.40051 0.29453 0.0
C646 C 0.34951 0.37036 0.31913 0.0
C647 C 0.26779 0.28617 0.31 0.0
H648 H 0.28655 0.11883 0.23817 0.0
H649 H 0.26399 0.14764 0.25741 0.0
H650 H 0.32049 0.22242 0.23558 0.0
H651 H 0.34318 0.19365 0.21613 0.0
H652 H 0.34242 0.45942 0.32958 0.0
H653 H 0.36551 0.42598 0.33802 0.0
H654 H 0.30404 0.36014 0.29097 0.0
H655 H 0.28147 0.39297 0.28245 0.0
Tb656 Tb 0.57285 0.56348 0.07771 0.0
Tb657 Tb 0.5782 0.53381 0.02617 0.0
C658 C 0.52468 0.52134 0.04632 0.0
C659 C 0.56683 0.57169 0.144 0.0
C660 C 0.56705 0.54648 0.18863 0.0
C661 C 0.55024 0.56181 0.18387 0.0
C662 C 0.55012 0.5743 0.16165 0.0
C663 C 0.58342 0.55622 0.14857 0.0
C664 C 0.58365 0.5439 0.17071 0.0
C665 C 0.56484 0.58213 0.11966 0.0
O666 O 0.57227 0.52084 0.08739 0.0
O667 O 0.58742 0.505 0.05308 0.0
O668 O 0.61465 0.56874 0.03604 0.0
O669 O 0.61463 0.57055 0.07815 0.0
O670 O 0.55933 0.51402 0.99106 0.0
O671 O 0.60018 0.5199 1.00138 0.0
O672 O 0.57052 0.5735 0.01561 0.0
O673 O 0.57993 0.59916 0.054 0.0
O674 O 0.53456 0.54778 0.05567 0.0
O675 O 0.54042 0.50949 0.03745 0.0
C676 C 0.58071 0.5017 0.07621 0.0
O677 O 0.5867 0.59261 0.10988 0.0
O678 O 0.5465 0.56468 0.10354 0.0
C679 C 0.627 0.5773 0.05848 0.0
C680 C 0.58722 0.52698 0.96044 0.0
C681 C 0.58698 0.55281 0.91623 0.0
C682 C 0.58137 0.52347 0.91529 0.0
C683 C 0.58132 0.51062 0.93729 0.0
C684 C 0.59485 0.55649 0.9614 0.0
C685 C 0.59457 0.56932 0.93943 0.0
C686 C 0.58111 0.51326 0.98322 0.0
C687 C 0.57594 0.59834 0.02932 0.0
H688 H 0.53713 0.56404 0.19723 0.0
H689 H 0.53675 0.58564 0.15808 0.0
H690 H 0.59611 0.55349 0.13493 0.0
H691 H 0.59728 0.53282 0.17395 0.0
H692 H 0.57515 0.5102 0.89765 0.0
H693 H 0.57516 0.48781 0.93626 0.0
H694 H 0.59953 0.56946 0.97916 0.0
H695 H 0.59907 0.59196 0.94064 0.0
Tb696 Tb 0.83496 0.33332 0.29341 0.0
Tb697 Tb 0.8072 0.27165 0.30694 0.0
C698 C 0.83777 0.28084 0.25972 0.0
C699 C 0.84349 0.40668 0.28522 0.0
C700 C 0.8141 0.44271 0.28891 0.0
C701 C 0.81122 0.425 0.26682 0.0
C702 C 0.82579 0.40716 0.26497 0.0
C703 C 0.84777 0.42594 0.30658 0.0
C704 C 0.83308 0.4437 0.30847 0.0
C705 C 0.85491 0.38408 0.28545 0.0
O706 O 0.79429 0.32253 0.27325 0.0
O707 O 0.7725 0.28468 0.29299 0.0
O708 O 0.819 0.30006 0.34068 0.0
O709 O 0.81209 0.33648 0.324 0.0
O710 O 0.78331 0.22922 0.29775 0.0
O711 O 0.79548 0.24661 0.33611 0.0
O712 O 0.85035 0.27596 0.31464 0.0
O713 O 0.86768 0.32408 0.31574 0.0
O714 O 0.84732 0.30812 0.2663 0.0
O715 O 0.81987 0.26361 0.27131 0.0
C716 C 0.77148 0.3041 0.27782 0.0
O717 O 0.85771 0.37503 0.30714 0.0
O718 O 0.84524 0.36322 0.26771 0.0
C719 C 0.8131 0.32279 0.34332 0.0
C720 C 0.79439 0.20046 0.32493 0.0
C721 C 0.81662 0.15839 0.31884 0.0
C722 C 0.78955 0.15187 0.3127 0.0
C723 C 0.77848 0.17287 0.31572 0.0
C724 C 0.82085 0.20621 0.33359 0.0
C725 C 0.83187 0.18521 0.33068 0.0
C726 C 0.78478 0.22368 0.32084 0.0
C727 C 0.87125 0.29976 0.31961 0.0
H728 H 0.79667 0.42378 0.25147 0.0
H729 H 0.82218 0.39277 0.24813 0.0
H730 H 0.86153 0.4263 0.32235 0.0
H731 H 0.836 0.45758 0.32552 0.0
H732 H 0.77743 0.13122 0.30366 0.0
H733 H 0.75804 0.16813 0.30894 0.0
H734 H 0.83353 0.22742 0.3407 0.0
H735 H 0.85283 0.19079 0.33538 0.0
Tb736 Tb 0.04648 0.54854 0.57925 0.0
Tb737 Tb 0.06391 0.58291 0.5333 0.0
C738 C 0.104 0.58276 0.57605 0.0
C739 C 1.01252 0.52759 0.63354 0.0
C740 C 0.98166 0.5391 0.66899 0.0
C741 C 0.98896 0.51499 0.66942 0.0
C742 C 1.0044 0.50932 0.65181 0.0
C743 C 1.00431 0.55097 0.63239 0.0
C744 C 0.98912 0.5568 0.65009 0.0
C745 C 0.02983 0.52273 0.61585 0.0
O746 O 0.05064 0.59271 0.59394 0.0
O747 O 0.0525 0.61397 0.55774 0.0
O748 O 0.02463 0.55389 0.52227 0.0
O749 O 1.01294 0.55637 0.56122 0.0
O750 O 0.09411 0.60069 0.5116 0.0
O751 O 0.05586 0.60435 0.50364 0.0
O752 O 0.06997 0.54152 0.52336 0.0
O753 O 0.04536 0.51399 0.55038 0.0
O754 O 0.08854 0.55745 0.57928 0.0
O755 O 0.09462 0.59914 0.56388 0.0
C756 C 0.0505 0.61491 0.58218 0.0
O757 O 1.01886 0.51457 0.59294 0.0
O758 O 0.05262 0.54278 0.61698 0.0
C759 C 1.00656 0.55141 0.53709 0.0
C760 C 0.0782 0.59787 0.46979 0.0
C761 C 0.08124 0.57862 0.42055 0.0
C762 C 0.0872 0.60759 0.42769 0.0
C763 C 0.08577 0.61715 0.45222 0.0
C764 C 0.07132 0.56886 0.46255 0.0
C765 C 0.07297 0.55929 0.43811 0.0
C766 C 0.07871 0.60803 0.49589 0.0
C767 C 0.05831 0.51597 0.5305 0.0
H768 H 0.98371 0.50122 0.68402 0.0
H769 H 1.01048 0.49111 0.6528 0.0
H770 H 1.0101 0.56503 0.6181 0.0
H771 H 0.98365 0.57544 0.64933 0.0
H772 H 0.0939 0.62292 0.41454 0.0
H773 H 0.09115 0.6396 0.45761 0.0
H774 H 0.06525 0.55369 0.47594 0.0
H775 H 0.06809 0.53687 0.43299 0.0
Tb776 Tb 0.84594 0.80541 0.30862 0.0
Tb777 Tb 0.7874 0.80932 0.30538 0.0
C778 C 0.79726 0.75331 0.31151 0.0
C779 C 0.90962 0.79949 0.29239 0.0
C780 C 0.94386 0.78984 0.25926 0.0
C781 C 0.92114 0.76773 0.26329 0.0
C782 C 0.90407 0.77253 0.27965 0.0
C783 C 0.93234 0.82148 0.28839 0.0
C784 C 0.94921 0.81676 0.27193 0.0
C785 C 0.89238 0.8055 0.31001 0.0
O786 O 0.8361 0.80568 0.26809 0.0
O787 O 0.79133 0.79412 0.26658 0.0
O788 O 0.81314 0.84593 0.29094 0.0
O789 O 0.84796 0.84852 0.31771 0.0
O790 O 0.7468 0.79024 0.29546 0.0
O791 O 0.76375 0.83391 0.31129 0.0
O792 O 0.80271 0.8217 0.34565 0.0
O793 O 0.83677 0.80442 0.34774 0.0
O794 O 0.81825 0.76258 0.30001 0.0
O795 O 0.78572 0.77037 0.32004 0.0
C796 C 0.81272 0.79778 0.25505 0.0
O797 O 0.88568 0.8274 0.3064 0.0
O798 O 0.87279 0.78443 0.31565 0.0
C799 C 0.83639 0.86037 0.30224 0.0
C800 C 0.72196 0.80796 0.32163 0.0
C801 C 0.684 0.80147 0.35549 0.0
C802 C 0.6833 0.81626 0.33453 0.0
C803 C 0.70208 0.81943 0.31778 0.0
C804 C 0.72278 0.79307 0.3424 0.0
C805 C 0.70392 0.78977 0.35913 0.0
C806 C 0.74215 0.81258 0.30435 0.0
C807 C 0.82054 0.81448 0.359 0.0
H808 H 0.9165 0.74679 0.25369 0.0
H809 H 0.88666 0.75517 0.28232 0.0
H810 H 0.93713 0.8424 0.29811 0.0
H811 H 0.96678 0.83409 0.26955 0.0
H812 H 0.6686 0.82599 0.33133 0.0
H813 H 0.70129 0.83119 0.30196 0.0
H814 H 0.73808 0.78416 0.34574 0.0
H815 H 0.70493 0.77799 0.37487 0.0
Tb816 Tb 0.82205 0.31928 0.83045 0.0
Tb817 Tb 0.85338 0.3114 0.78319 0.0
C818 C 0.80372 0.33169 0.77777 0.0
C819 C 0.79707 0.30379 0.88904 0.0
C820 C 0.80286 0.2739 0.92969 0.0
C821 C 0.79642 0.29855 0.9332 0.0
C822 C 0.79373 0.3135 0.913 0.0
C823 C 0.80231 0.27857 0.88531 0.0
C824 C 0.80529 0.26384 0.90542 0.0
C825 C 0.79884 0.32146 0.86851 0.0
O826 O 0.80019 0.27872 0.80912 0.0
O827 O 0.83427 0.26963 0.79317 0.0
O828 O 0.87832 0.30881 0.81661 0.0
O829 O 0.84684 0.29624 0.84351 0.0
O830 O 0.8522 0.29096 0.74765 0.0
O831 O 0.88793 0.32254 0.76578 0.0
O832 O 0.86282 0.35613 0.79208 0.0
O833 O 0.85803 0.35564 0.83351 0.0
O834 O 0.80789 0.34022 0.80182 0.0
O835 O 0.81656 0.31644 0.76772 0.0
C836 C 0.81037 0.26095 0.79922 0.0
O837 O 0.82251 0.33814 0.86651 0.0
O838 O 0.78686 0.3083 0.84696 0.0
C839 C 0.87059 0.29947 0.8379 0.0
C840 C 0.87681 0.32373 0.72313 0.0
C841 C 0.8719 0.35187 0.68106 0.0
C842 C 0.87569 0.3257 0.67833 0.0
C843 C 0.87814 0.3117 0.6993 0.0
C844 C 0.87346 0.35003 0.72586 0.0
C845 C 0.87111 0.36398 0.70508 0.0
C846 C 0.87565 0.30777 0.74481 0.0
C847 C 0.86878 0.36854 0.8149 0.0
H848 H 0.79396 0.30658 0.9516 0.0
H849 H 0.78989 0.33305 0.9162 0.0
H850 H 0.80518 0.27084 0.86694 0.0
H851 H 0.81061 0.24523 0.90203 0.0
H852 H 0.87641 0.31594 0.66002 0.0
H853 H 0.88032 0.29121 0.69686 0.0
H854 H 0.87177 0.35941 0.744 0.0
H855 H 0.86764 0.38379 0.70777 0.0
Tb856 Tb 0.79771 0.77225 0.8005 0.0
Tb857 Tb 0.81839 0.83732 0.81089 0.0
C858 C 0.80134 0.80949 0.75413 0.0
C859 C 0.78927 0.70125 0.8125 0.0
C860 C 0.80715 0.66912 0.84507 0.0
C861 C 0.7814 0.65845 0.8328 0.0
C862 C 0.7725 0.6745 0.81662 0.0
C863 C 0.81456 0.71225 0.82536 0.0
C864 C 0.82343 0.69638 0.84137 0.0
C865 C 0.78031 0.71902 0.79645 0.0
O866 O 0.83926 0.78057 0.79061 0.0
O867 O 0.85445 0.82849 0.79893 0.0
O868 O 0.81254 0.82188 0.84789 0.0
O869 O 0.81653 0.77926 0.83976 0.0
O870 O 0.82078 0.87775 0.80316 0.0
O871 O 0.84528 0.87175 0.83437 0.0
O872 O 0.77509 0.82892 0.81561 0.0
O873 O 0.76324 0.78137 0.81588 0.0
O874 O 0.78933 0.78516 0.7629 0.0
O875 O 0.8144 0.83188 0.76985 0.0
C876 C 0.85869 0.80504 0.79035 0.0
O877 O 0.7691 0.73456 0.80774 0.0
O878 O 0.79747 0.73369 0.78288 0.0
C879 C 0.81537 0.79922 0.85622 0.0
C880 C 0.82936 0.90968 0.83887 0.0
C881 C 0.81174 0.95382 0.8537 0.0
C882 C 0.83883 0.95835 0.85516 0.0
C883 C 0.84755 0.93649 0.84721 0.0
C884 C 0.80286 0.90391 0.84185 0.0
C885 C 0.79405 0.92581 0.84901 0.0
C886 C 0.8371 0.8897 0.82313 0.0
C887 C 0.75714 0.80467 0.81997 0.0
H888 H 0.76835 0.63757 0.83536 0.0
H889 H 0.75269 0.66601 0.80725 0.0
H890 H 0.82772 0.73307 0.82274 0.0
H891 H 0.84354 0.70511 0.84993 0.0
H892 H 0.8532 0.9793 0.85998 0.0
H893 H 0.86823 0.9411 0.84566 0.0
H894 H 0.78856 0.88309 0.83607 0.0
H895 H 0.77307 0.9209 0.84789 0.0
Tb896 Tb 0.61188 0.58784 0.59183 0.0
Tb897 Tb 0.55767 0.54621 0.55902 0.0
C898 C 0.55841 0.57626 0.61148 0.0
C899 C 0.67345 0.60404 0.62976 0.0
C900 C 0.70987 0.5761 0.63232 0.0
C901 C 0.71758 0.60421 0.62669 0.0
C902 C 0.69939 0.61811 0.62536 0.0
C903 C 0.66668 0.57707 0.63809 0.0
C904 C 0.68477 0.56321 0.63933 0.0
C905 C 0.65269 0.61453 0.62065 0.0
O906 O 0.60581 0.54425 0.60133 0.0
O907 O 0.58034 0.51853 0.56602 0.0
O908 O 0.58655 0.55317 0.53275 0.0
O909 O 0.62533 0.57275 0.55898 0.0
O910 O 0.5238 0.51006 0.5565 0.0
O911 O 0.53005 0.53776 0.52737 0.0
O912 O 0.55704 0.58918 0.55733 0.0
O913 O 0.6002 0.6169 0.56894 0.0
O914 O 0.58015 0.59586 0.60809 0.0
O915 O 0.54975 0.55205 0.59745 0.0
C916 C 0.59664 0.52061 0.58603 0.0
O917 O 0.65063 0.61643 0.59666 0.0
O918 O 0.62986 0.60267 0.62837 0.0
C919 C 0.61224 0.56176 0.53706 0.0
C920 C 0.48765 0.52164 0.53956 0.0
C921 C 0.44498 0.54041 0.54559 0.0
C922 C 0.45248 0.53628 0.5217 0.0
C923 C 0.47365 0.52705 0.51874 0.0
C924 C 0.4792 0.52415 0.5632 0.0
C925 C 0.45823 0.53356 0.5662 0.0
C926 C 0.51299 0.51761 0.53708 0.0
C927 C 0.57629 0.61375 0.55895 0.0
H928 H 0.73686 0.6145 0.6211 0.0
H929 H 0.70496 0.63884 0.61884 0.0
H930 H 0.64683 0.56563 0.64169 0.0
H931 H 0.67852 0.54162 0.64391 0.0
H932 H 0.44243 0.54084 0.50534 0.0
H933 H 0.4798 0.52529 0.50031 0.0
H934 H 0.48951 0.52008 0.57963 0.0
H935 H 0.4533 0.53675 0.58492 0.0
Tb936 Tb 0.04054 0.54858 0.04402 0.0
Tb937 Tb 0.10288 0.55159 0.04601 0.0
C938 C 0.06872 0.53238 0.08897 0.0
C939 C 0.97991 0.56877 0.04682 0.0
C940 C 0.95017 0.60383 0.05763 0.0
C941 C 0.96686 0.59874 0.07657 0.0
C942 C 0.9816 0.58145 0.07124 0.0
C943 C 0.96366 0.57424 0.02785 0.0
C944 C 0.94903 0.59159 0.03314 0.0
C945 C 0.99402 0.54908 0.04065 0.0
O946 O 0.06376 0.59355 0.05123 0.0
O947 O 0.10328 0.59083 0.06725 0.0
O948 O 0.09587 0.57541 0.01625 0.0
O949 O 0.05309 0.54742 1.00723 0.0
O950 O 0.13906 0.55936 0.06729 0.0
O951 O 0.13408 0.54723 0.02748 0.0
O952 O 0.07943 0.50966 0.02677 0.0
O953 O 0.03803 0.50425 0.03788 0.0
O954 O 0.05503 0.5482 0.08258 0.0
O955 O 0.08421 0.52619 0.07407 0.0
C956 C 0.08727 0.60525 0.06362 0.0
O957 O 1.0094 0.5555 0.02317 0.0
O958 O 1.00443 0.53947 0.05894 0.0
C959 C 0.07397 0.56679 1.00137 0.0
C960 C 0.1644 0.53235 0.05218 0.0
C961 C 0.19734 0.49993 0.06054 0.0
C962 C 0.19511 0.51066 0.0375 0.0
C963 C 0.17895 0.52676 0.03344 0.0
C964 C 0.16592 0.52085 0.07495 0.0
C965 C 0.1822 0.5049 0.07907 0.0
C966 C 0.14954 0.55187 0.04831 0.0
C967 C 0.05509 0.4936 0.02907 0.0
H968 H 0.9685 0.60809 0.09558 0.0
H969 H 0.99406 0.57782 0.08627 0.0
H970 H 0.96193 0.56467 0.00889 0.0
H971 H 0.9362 0.59469 0.01814 0.0
H972 H 0.20664 0.50753 0.02289 0.0
H973 H 0.17836 0.5355 0.01579 0.0
H974 H 0.15497 0.52463 0.08983 0.0
H975 H 0.18313 0.49667 0.09692 0.0
H976 H 0.05784 0.22243 0.02521 0.0
H977 H 1.00567 0.1699 0.96277 0.0
H978 H 1.01336 0.12834 0.97687 0.0
H979 H 0.03677 0.10657 1.00561 0.0
H980 H 0.09053 0.15907 0.06725 0.0
H981 H 0.08056 0.20012 0.0549 0.0
C982 C 0.04772 0.2018 0.01502 0.0
C983 C 0.03076 0.19952 0.99304 0.0
C984 C 0.05291 0.17768 0.0229 0.0
C985 C 1.01854 0.1725 0.97983 0.0
C986 C 1.02309 0.14859 0.98782 0.0
C987 C 0.04634 0.12694 0.01643 0.0
C988 C 0.06462 0.12927 0.0374 0.0
C989 C 0.04059 0.15087 0.00909 0.0
C990 C 0.07653 0.15618 0.051 0.0
C991 C 0.07076 0.17989 0.04394 0.0
H992 H 0.20224 0.8254 0.17334 0.0
H993 H 0.15779 0.84254 0.23084 0.0
H994 H 0.19173 0.84183 0.26308 0.0
H995 H 0.23249 0.83202 0.27517 0.0
H996 H 0.27397 0.81005 0.21691 0.0
H997 H 0.24338 0.81718 0.18529 0.0
C998 C 0.20034 0.82972 0.19291 0.0
C999 C 0.17763 0.8344 0.19959 0.0
C1000 C 0.21945 0.82803 0.21145 0.0
C1001 C 0.17517 0.83913 0.22513 0.0
C1002 C 0.19453 0.83852 0.24363 0.0
C1003 C 0.23499 0.82907 0.25559 0.0
C1004 C 0.25595 0.82077 0.24873 0.0
C1005 C 0.2165 0.83227 0.23708 0.0
C1006 C 0.25845 0.81678 0.22307 0.0
C1007 C 0.24077 0.82072 0.20477 0.0
H1008 H 0.58078 0.88999 0.52198 0.0
H1009 H 0.5009 0.87292 0.49114 0.0
H1010 H 0.50544 0.92213 0.50219 0.0
H1011 H 0.53302 0.97142 0.51824 0.0
H1012 H 0.61355 0.98846 0.54747 0.0
H1013 H 0.60778 0.93876 0.53947 0.0
C1014 C 0.5642 0.89689 0.51817 0.0
C1015 C 0.54045 0.87744 0.50587 0.0
C1016 C 0.56715 0.92571 0.52397 0.0
C1017 C 0.51941 0.8872 0.50065 0.0
C1018 C 0.52202 0.91551 0.50687 0.0
C1019 C 0.54928 0.96428 0.52298 0.0
C1020 C 0.57375 0.98418 0.53333 0.0
C1021 C 0.54597 0.93521 0.5181 0.0
C1022 C 0.59448 0.9741 0.53929 0.0
C1023 C 0.59122 0.94542 0.53479 0.0
H1024 H 0.57664 0.29768 0.73317 0.0
H1025 H 0.5659 0.36001 0.68725 0.0
H1026 H 0.52586 0.35754 0.70582 0.0
H1027 H 0.49269 0.33578 0.73362 0.0
H1028 H 0.50426 0.27387 0.77967 0.0
H1029 H 0.54498 0.27785 0.76224 0.0
C1030 C 0.56568 0.31091 0.72732 0.0
C1031 C 0.57422 0.32892 0.70877 0.0
C1032 C 0.54262 0.30922 0.73789 0.0
C1033 C 0.55978 0.34595 0.70149 0.0
C1034 C 0.53682 0.34448 0.71204 0.0
C1035 C 0.50427 0.3234 0.74004 0.0
C1036 C 0.49518 0.30428 0.75772 0.0
C1037 C 0.52787 0.32592 0.73005 0.0
C1038 C 0.5104 0.28826 0.76568 0.0
C1039 C 0.53383 0.29067 0.75587 0.0
H1040 H 0.05554 0.92329 0.64409 0.0
H1041 H 0.10143 0.89457 0.59451 0.0
H1042 H 0.10241 0.93254 0.56858 0.0
H1043 H 0.0904 0.97548 0.55872 0.0
H1044 H 0.04628 1.00508 0.60985 0.0
H1045 H 0.04478 0.96673 0.63506 0.0
C1046 C 0.06584 0.92509 0.62765 0.0
C1047 C 0.07835 0.90481 0.62193 0.0
C1048 C 0.06675 0.94798 0.61243 0.0
C1049 C 0.0915 0.90891 0.60016 0.0
C1050 C 0.09208 0.93105 0.58499 0.0
C1051 C 0.08038 0.97378 0.57533 0.0
C1052 C 0.06838 0.99444 0.58157 0.0
C1053 C 0.0798 0.951 0.5907 0.0
C1054 C 0.05586 0.99059 0.60375 0.0
C1055 C 0.05492 0.96816 0.61853 0.0
H1056 H 0.48772 0.84762 0.83297 0.0
H1057 H 0.46167 0.76949 0.86611 0.0
H1058 H 0.416 0.76394 0.85287 0.0
H1059 H 0.38108 0.7809 0.83159 0.0
H1060 H 0.4079 0.85877 0.79792 0.0
H1061 H 0.4532 0.86402 0.81124 0.0
C1062 C 0.47228 0.82916 0.83737 0.0
C1063 C 0.47975 0.80901 0.85101 0.0
C1064 C 0.44493 0.82582 0.82939 0.0
C1065 C 0.45802 0.78565 0.85591 0.0
C1066 C 0.43125 0.7824 0.84821 0.0
C1067 C 0.39661 0.79918 0.82704 0.0
C1068 C 0.38934 0.81942 0.81324 0.0
C1069 C 0.42402 0.80229 0.83489 0.0
C1070 C 0.41126 0.84248 0.80815 0.0
C1071 C 0.43788 0.84563 0.81593 0.0
H1072 H 0.55258 0.18745 0.16385 0.0
H1073 H 0.57752 0.2409 0.10557 0.0
H1074 H 0.58132 0.20115 0.07956 0.0
H1075 H 0.57862 0.15008 0.07232 0.0
H1076 H 0.55488 0.09703 0.13112 0.0
H1077 H 0.54989 0.13642 0.15662 0.0
C1078 C 0.55859 0.19063 0.14537 0.0
C1079 C 0.56437 0.21839 0.13728 0.0
C1080 C 0.56127 0.16702 0.13002 0.0
C1081 C 0.57259 0.22071 0.11303 0.0
C1082 C 0.5749 0.19756 0.09786 0.0
C1083 C 0.57231 0.14683 0.09069 0.0
C1084 C 0.56725 0.1193 0.09908 0.0
C1085 C 0.56949 0.1704 0.10597 0.0
C1086 C 0.55914 0.11701 0.12337 0.0
C1087 C 0.55619 0.13997 0.13828 0.0
H1088 H 0.1434 0.25007 0.33296 0.0
H1089 H 0.1708 0.33314 0.37331 0.0
H1090 H 0.21486 0.34084 0.36141 0.0
H1091 H 0.24812 0.32466 0.33947 0.0
H1092 H 0.2205 0.24131 0.29951 0.0
H1093 H 0.17647 0.234 0.31097 0.0
C1094 C 0.15875 0.27007 0.33926 0.0
C1095 C 0.15206 0.29093 0.3545 0.0
C1096 C 0.18529 0.27465 0.33219 0.0
C1097 C 0.17376 0.31627 0.36183 0.0
C1098 C 0.19963 0.32081 0.35488 0.0
C1099 C 0.23268 0.30477 0.333 0.0
C1100 C 0.23937 0.2837 0.31799 0.0
C1101 C 0.2061 0.30028 0.34001 0.0
C1102 C 0.21759 0.25841 0.31072 0.0
C1103 C 0.19171 0.25405 0.31744 0.0
H1104 H 1.00918 0.07853 0.19893 0.0
H1105 H 0.94369 0.07347 0.14574 0.0
H1106 H 0.97097 0.07625 0.11176 0.0
H1107 H 1.0115 0.07467 0.09701 0.0
H1108 H 0.0764 0.07737 0.14985 0.0
H1109 H 0.0511 0.08126 0.18438 0.0
C1110 C 1.00091 0.07839 0.17995 0.0
C1111 C 0.97433 0.0753 0.1748 0.0
C1112 C 1.01647 0.07933 0.16052 0.0
C1113 C 0.96404 0.07556 0.15016 0.0
C1114 C 0.97958 0.07705 0.13073 0.0
C1115 C 1.02025 0.07629 0.11608 0.0
C1116 C 0.04558 0.07519 0.12092 0.0
C1117 C 1.00552 0.07802 0.13567 0.0
C1118 C 0.05682 0.0779 0.14569 0.0
C1119 C 0.04237 0.08007 0.1654 0.0
H1120 H 0.29051 0.7427 0.53904 0.0
H1121 H 0.32966 0.69266 0.50181 0.0
H1122 H 0.32809 0.71659 0.46426 0.0
H1123 H 0.31294 0.74957 0.44126 0.0
H1124 H 0.27325 0.79882 0.47876 0.0
H1125 H 0.27764 0.77722 0.51704 0.0
C1126 C 0.29887 0.73708 0.52278 0.0
C1127 C 0.31003 0.71577 0.52317 0.0
C1128 C 0.29766 0.75069 0.50129 0.0
C1129 C 0.32089 0.70893 0.50198 0.0
C1130 C 0.31995 0.72257 0.4805 0.0
C1131 C 0.30566 0.75592 0.45794 0.0
C1132 C 0.29268 0.77569 0.45715 0.0
C1133 C 0.30804 0.74321 0.47984 0.0
C1134 C 0.28303 0.78342 0.47882 0.0
C1135 C 0.28559 0.77113 0.50071 0.0
H1136 H 0.61338 1.01173 0.69706 0.0
H1137 H 0.69151 0.02773 0.67656 0.0
H1138 H 0.67721 0.03559 0.63455 0.0
H1139 H 0.64498 0.04715 0.60725 0.0
H1140 H 0.56763 0.0339 0.62885 0.0
H1141 H 0.57931 0.01624 0.66729 0.0
C1142 C 0.62709 0.01617 0.68316 0.0
C1143 C 0.65356 0.01993 0.68996 0.0
C1144 C 0.61912 0.02215 0.65968 0.0
C1145 C 0.67106 0.02496 0.67175 0.0
C1146 C 0.66299 0.02991 0.64789 0.0
C1147 C 0.63067 0.04031 0.62032 0.0
C1148 C 0.6058 0.04262 0.61569 0.0
C1149 C 0.63753 0.03025 0.64227 0.0
C1150 C 0.58709 0.03281 0.63232 0.0
C1151 C 0.5937 0.0226 0.65419 0.0
H1152 H 0.35798 0.31599 0.97065 0.0
H1153 H 0.28695 0.33539 0.97098 0.0
H1154 H 0.28121 0.32994 0.92519 0.0
H1155 H 0.29676 0.32054 0.88409 0.0
H1156 H 0.36947 0.30425 0.88442 0.0
H1157 H 0.37393 0.30766 0.92992 0.0
C1158 C 0.34105 0.31877 0.9608 0.0
C1159 C 0.32276 0.3258 0.97486 0.0
C1160 C 0.3382 0.31636 0.93407 0.0
C1161 C 0.30134 0.3298 0.96118 0.0
C1162 C 0.29807 0.32674 0.93475 0.0
C1163 C 0.31363 0.31772 0.89402 0.0
C1164 C 0.33276 0.31211 0.88011 0.0
C1165 C 0.31643 0.32019 0.92082 0.0
C1166 C 0.35439 0.30872 0.89398 0.0
C1167 C 0.35697 0.31059 0.9203 0.0
H1168 H 0.02571 0.05702 0.29101 0.0
H1169 H 0.98015 0.09967 0.32796 0.0
H1170 H 1.00651 0.10313 0.36775 0.0
H1171 H 0.03756 0.08716 0.39266 0.0
H1172 H 0.0815 0.04254 0.35564 0.0
H1173 H 0.06077 0.0469 0.31506 0.0
C1174 C 1.02178 0.06748 0.3077 0.0
C1175 C 1.00071 0.0776 0.30669 0.0
C1176 C 0.03656 0.06879 0.33047 0.0
C1177 C 0.99615 0.09153 0.32832 0.0
C1178 C 1.01113 0.09338 0.35108 0.0
C1179 C 0.04321 0.07918 0.37567 0.0
C1180 C 0.06082 0.06429 0.37708 0.0
C1181 C 0.03071 0.08111 0.3525 0.0
C1182 C 0.06774 0.05378 0.35496 0.0
C1183 C 0.05587 0.05621 0.33181 0.0
H1184 H 0.33627 0.74466 0.63858 0.0
H1185 H 0.33775 0.6762 0.68124 0.0
H1186 H 0.33757 0.70458 0.71966 0.0
H1187 H 0.3311 0.74604 0.74022 0.0
H1188 H 0.32848 0.81416 0.69775 0.0
H1189 H 0.33512 0.78862 0.66006 0.0
C1190 C 0.33706 0.73608 0.65631 0.0
C1191 C 0.33656 0.7081 0.65692 0.0
C1192 C 0.33631 0.75226 0.67828 0.0
C1193 C 0.33792 0.69754 0.68014 0.0
C1194 C 0.33763 0.71369 0.70213 0.0
C1195 C 0.33214 0.75542 0.72274 0.0
C1196 C 0.32873 0.78167 0.72161 0.0
C1197 C 0.3358 0.7406 0.70125 0.0
C1198 C 0.33082 0.79387 0.69903 0.0
C1199 C 0.33455 0.77925 0.67749 0.0
H1200 H 0.62929 1.00492 0.8318 0.0
H1201 H 0.58328 0.04809 0.79454 0.0
H1202 H 0.55827 0.04597 0.83006 0.0
H1203 H 0.55633 0.04121 0.87437 0.0
H1204 H 0.60266 0.99897 0.91241 0.0
H1205 H 0.62066 0.99125 0.87372 0.0
C1206 C 0.61336 1.01323 0.83122 0.0
C1207 C 0.60868 0.02744 0.81101 0.0
C1208 C 0.59947 1.01259 0.85196 0.0
C1209 C 0.58765 0.0376 0.8102 0.0
C1210 C 0.57336 0.03647 0.83051 0.0
C1211 C 0.5696 0.02938 0.87407 0.0
C1212 C 0.57876 0.02142 0.89633 0.0
C1213 C 0.58012 0.02542 0.85197 0.0
C1214 C 0.59598 1.00611 0.89559 0.0
C1215 C 0.60623 1.00164 0.8735 0.0
H1216 H 0.31713 0.36406 0.14968 0.0
H1217 H 0.32739 0.28923 0.1159 0.0
H1218 H 0.32428 0.26976 0.15639 0.0
H1219 H 0.31954 0.27428 0.20258 0.0
H1220 H 0.30937 0.34986 0.23506 0.0
H1221 H 0.31152 0.36816 0.19453 0.0
C1222 C 0.3186 0.34336 0.15088 0.0
C1223 C 0.32252 0.32838 0.12901 0.0
C1224 C 0.31684 0.33222 0.17448 0.0
C1225 C 0.32432 0.30155 0.13181 0.0
C1226 C 0.32258 0.29036 0.15523 0.0
C1227 C 0.31763 0.29471 0.20086 0.0
C1228 C 0.31419 0.31042 0.2226 0.0
C1229 C 0.31896 0.3055 0.1769 0.0
C1230 C 0.31195 0.33694 0.21929 0.0
C1231 C 0.31322 0.34758 0.19585 0.0
H1232 H 0.31003 0.03822 0.06817 0.0
H1233 H 0.26832 1.0051 0.99489 0.0
H1234 H 0.24375 0.0373 0.99904 0.0
H1235 H 0.22977 0.06941 0.0259 0.0
H1236 H 0.26821 0.09824 0.1009 0.0
H1237 H 0.29925 0.07416 0.09325 0.0
C1238 C 0.29586 0.03832 0.05291 0.0
C1239 C 0.29064 0.01894 0.03143 0.0
C1240 C 0.28128 0.0562 0.05575 0.0
C1241 C 0.27245 0.01957 0.01174 0.0
C1242 C 0.25839 0.03795 0.01412 0.0
C1243 C 0.24515 0.07068 0.04049 0.0
C1244 C 0.24632 0.08505 0.06412 0.0
C1245 C 0.26195 0.05552 0.03643 0.0
C1246 C 0.26683 0.08731 0.08256 0.0
C1247 C 0.28438 0.07323 0.0783 0.0
H1248 H 0.74569 0.65655 0.0831 0.0
H1249 H 0.72652 0.68857 0.01514 0.0
H1250 H 0.68205 0.6539 0.0109 0.0
H1251 H 0.64861 0.61494 0.02667 0.0
H1252 H 0.66627 0.58526 0.09637 0.0
H1253 H 0.71144 0.61867 0.09989 0.0
C1254 C 0.73181 0.65579 0.06728 0.0
C1255 C 0.73946 0.6749 0.04928 0.0
C1256 C 0.70606 0.63631 0.06535 0.0
C1257 C 0.72112 0.67407 0.02917 0.0
C1258 C 0.69572 0.65424 0.02674 0.0
C1259 C 0.66241 0.61563 0.04257 0.0
C1260 C 0.65428 0.59739 0.0611 0.0
C1261 C 0.68799 0.63531 0.04473 0.0
C1262 C 0.67214 0.59901 0.08186 0.0
C1263 C 0.69792 0.61807 0.08382 0.0
H1264 H 0.73512 0.50879 0.28449 0.0
H1265 H 0.72507 0.48224 0.35823 0.0
H1266 H 0.75727 0.45871 0.35389 0.0
H1267 H 0.78824 0.44597 0.32907 0.0
H1268 H 0.79868 0.47371 0.2558 0.0
H1269 H 0.76619 0.49671 0.26009 0.0
C1270 C 0.73979 0.4977 0.29959 0.0
C1271 C 0.72765 0.49712 0.32161 0.0
C1272 C 0.75848 0.48469 0.29711 0.0
C1273 C 0.7341 0.48288 0.34106 0.0
C1274 C 0.75255 0.46954 0.33863 0.0
C1275 C 0.78367 0.45742 0.31421 0.0
C1276 C 0.79588 0.45832 0.2922 0.0
C1277 C 0.76497 0.47049 0.31679 0.0
C1278 C 0.78941 0.47268 0.27286 0.0
C1279 C 0.77088 0.4858 0.2753 0.0
H1280 H 0.89141 0.48188 0.49287 0.0
H1281 H 0.87596 0.53506 0.55132 0.0
H1282 H 0.92254 0.56251 0.5597 0.0
H1283 H 0.96793 0.56622 0.55509 0.0
H1284 H 0.98365 0.51392 0.49627 0.0
H1285 H 0.93662 0.49128 0.48328 0.0
C1286 C 0.89819 0.4999 0.50702 0.0
C1287 C 0.88038 0.506 0.52184 0.0
C1288 C 0.92504 0.51539 0.51199 0.0
C1289 C 0.88931 0.52974 0.53979 0.0
C1290 C 0.91598 0.54533 0.54477 0.0
C1291 C 0.96097 0.55015 0.5392 0.0
C1292 C 0.97889 0.5412 0.52693 0.0
C1293 C 0.93406 0.53747 0.53178 0.0
C1294 C 0.96998 0.52089 0.50605 0.0
C1295 C 0.94317 0.50793 0.49868 0.0
H1296 H 0.37079 0.06967 0.2553 0.0
H1297 H 0.42163 0.14453 0.3015 0.0
H1298 H 0.40144 0.17334 0.27887 0.0
H1299 H 0.36532 0.17586 0.25084 0.0
H1300 H 0.31199 0.10066 0.20707 0.0
H1301 H 0.33797 0.07329 0.2233 0.0
C1302 C 0.3776 0.09232 0.26033 0.0
C1303 C 0.39724 0.10492 0.28041 0.0
C1304 C 0.36569 0.10862 0.24751 0.0
C1305 C 0.40622 0.13432 0.28639 0.0
C1306 C 0.39478 0.15079 0.27339 0.0
C1307 C 0.35996 0.15372 0.24398 0.0
C1308 C 0.33675 0.14019 0.22782 0.0
C1309 C 0.374 0.138 0.25447 0.0
C1310 C 0.32981 0.11143 0.21947 0.0
C1311 C 0.34444 0.09578 0.22902 0.0
H1312 H 0.36052 0.14193 0.58277 0.0
H1313 H 0.38744 0.19074 0.52195 0.0
H1314 H 0.42188 0.17012 0.51857 0.0
H1315 H 0.44437 0.13785 0.53297 0.0
H1316 H 0.41713 0.09 0.59433 0.0
H1317 H 0.38291 0.11055 0.59731 0.0
C1318 C 0.37383 0.14805 0.56868 0.0
C1319 C 0.37127 0.16784 0.55259 0.0
C1320 C 0.39364 0.13624 0.56694 0.0
C1321 C 0.38887 0.17553 0.53456 0.0
C1322 C 0.40862 0.16376 0.53264 0.0
C1323 C 0.43106 0.1321 0.5471 0.0
C1324 C 0.43327 0.11215 0.56325 0.0
C1325 C 0.41126 0.14411 0.54879 0.0
C1326 C 0.41568 0.10486 0.58134 0.0
C1327 C 0.39613 0.11671 0.58316 0.0
H1328 H 0.74582 0.62203 0.31219 0.0
H1329 H 0.71966 0.65009 0.37935 0.0
H1330 H 0.74541 0.69879 0.37495 0.0
H1331 H 0.77202 0.73357 0.35034 0.0
H1332 H 0.79894 0.70676 0.28337 0.0
H1333 H 0.77638 0.65717 0.28953 0.0
C1334 C 0.74598 0.63878 0.326 0.0
C1335 C 0.73052 0.63245 0.34586 0.0
C1336 C 0.76078 0.66687 0.32332 0.0
C1337 C 0.73119 0.65434 0.36377 0.0
C1338 C 0.74587 0.68224 0.36126 0.0
C1339 C 0.77305 0.71685 0.33714 0.0
C1340 C 0.78661 0.72359 0.31621 0.0
C1341 C 0.76015 0.68874 0.34081 0.0
C1342 C 0.78843 0.7019 0.29955 0.0
C1343 C 0.77548 0.67364 0.30304 0.0
H1344 H 0.95082 0.49085 0.81619 0.0
H1345 H 0.93406 0.49553 0.89263 0.0
H1346 H 0.90722 0.44537 0.88708 0.0
H1347 H 0.88418 0.40217 0.85898 0.0
H1348 H 0.89835 0.39896 0.78152 0.0
H1349 H 0.9303 0.44666 0.7889 0.0
C1350 C 0.94196 0.48062 0.83182 0.0
C1351 C 0.94443 0.49662 0.8548 0.0
C1352 C 0.92549 0.45229 0.8281 0.0
C1353 C 0.93245 0.48341 0.87481 0.0
C1354 C 0.91691 0.45488 0.87156 0.0
C1355 C 0.89435 0.41184 0.84374 0.0
C1356 C 0.88858 0.39717 0.81968 0.0
C1357 C 0.91249 0.43943 0.84801 0.0
C1358 C 0.9021 0.40992 0.80018 0.0
C1359 C 0.92052 0.43716 0.80438 0.0
H1360 H 0.14289 0.91771 0.09714 0.0
H1361 H 0.0665 0.87598 0.11971 0.0
H1362 H 0.05278 0.91534 0.10875 0.0
H1363 H 0.06235 0.96247 0.09284 0.0
H1364 H 0.1398 1.00513 0.0728 0.0
H1365 H 0.15286 0.96519 0.08256 0.0
C1366 C 0.12319 0.91712 0.0996 0.0
C1367 C 0.1058 0.89346 0.10919 0.0
C1368 C 0.11548 0.94034 0.09369 0.0
C1369 C 0.08045 0.89361 0.11241 0.0
C1370 C 0.07252 0.91626 0.1061 0.0
C1371 C 0.08208 0.96306 0.09056 0.0
C1372 C 0.09992 0.98719 0.08193 0.0
C1373 C 0.08983 0.93988 0.09673 0.0
C1374 C 0.12549 0.98724 0.07942 0.0
C1375 C 0.13306 0.9642 0.08498 0.0
H1376 H 0.93671 0.27586 0.93117 0.0
H1377 H 0.98669 0.27061 0.87444 0.0
H1378 H 0.95683 0.27966 0.84311 0.0
H1379 H 0.91681 0.29035 0.83128 0.0
H1380 H 0.86558 0.29357 0.88728 0.0
H1381 H 0.89525 0.28411 0.9188 0.0
C1382 C 0.941 0.2765 0.91195 0.0
C1383 C 0.96418 0.27254 0.90549 0.0
C1384 C 0.92342 0.28154 0.8936 0.0
C1385 C 0.96913 0.27345 0.88027 0.0
C1386 C 0.95203 0.27876 0.86217 0.0
C1387 C 0.9121 0.28896 0.85036 0.0
C1388 C 0.8889 0.29284 0.85669 0.0
C1389 C 0.92918 0.28306 0.86856 0.0
C1390 C 0.88318 0.29066 0.88161 0.0
C1391 C 0.90023 0.28528 0.89981 0.0
H1392 H 0.648 0.26182 0.59162 0.0
H1393 H 0.57968 0.24284 0.63124 0.0
H1394 H 0.56658 0.19299 0.61579 0.0
H1395 H 0.57553 0.15382 0.59303 0.0
H1396 H 0.6445 0.17197 0.55431 0.0
H1397 H 0.65613 0.22233 0.56733 0.0
C1398 C 0.62997 0.24686 0.59642 0.0
C1399 C 0.61478 0.25638 0.61248 0.0
C1400 C 0.62278 0.21768 0.58792 0.0
C1401 C 0.59176 0.23635 0.61887 0.0
C1402 C 0.58428 0.20768 0.61013 0.0
C1403 C 0.59311 0.16871 0.58736 0.0
C1404 C 0.60909 0.15864 0.57273 0.0
C1405 C 0.59985 0.19792 0.59502 0.0
C1406 C 0.63173 0.17869 0.56561 0.0
C1407 C 0.63844 0.2077 0.57304 0.0
H1408 H 0.617 0.79912 0.44609 0.0
H1409 H 0.55649 0.78879 0.38567 0.0
H1410 H 0.58728 0.78873 0.35536 0.0
H1411 H 0.63164 0.79269 0.34594 0.0
H1412 H 0.69249 0.805 0.40648 0.0
H1413 H 0.66116 0.80266 0.43667 0.0
C1414 C 0.61043 0.79669 0.4263 0.0
C1415 C 0.58437 0.79402 0.41827 0.0
C1416 C 0.62832 0.79695 0.40891 0.0
C1417 C 0.57638 0.79097 0.39248 0.0
C1418 C 0.594 0.79094 0.37509 0.0
C1419 C 0.63814 0.79506 0.36574 0.0
C1420 C 0.6645 0.79904 0.37382 0.0
C1421 C 0.62008 0.79418 0.38309 0.0
C1422 C 0.67232 0.80152 0.3996 0.0
C1423 C 0.65443 0.8004 0.41694 0.0
H1424 H 0.05617 0.23616 0.48681 0.0
H1425 H 0.07233 0.20623 0.41533 0.0
H1426 H 0.07138 0.16214 0.43108 0.0
H1427 H 0.06637 0.12988 0.46546 0.0
H1428 H 0.05198 0.16033 0.53745 0.0
H1429 H 0.05188 0.20413 0.52147 0.0
C1430 C 0.05955 0.22021 0.47446 0.0
C1431 C 0.06439 0.22605 0.44927 0.0
C1432 C 0.05927 0.19379 0.48395 0.0
C1433 C 0.06863 0.20382 0.43455 0.0
C1434 C 0.06805 0.17793 0.44367 0.0
C1435 C 0.06303 0.14585 0.47782 0.0
C1436 C 0.05898 0.14035 0.5032 0.0
C1437 C 0.0634 0.17229 0.4684 0.0
C1438 C 0.05512 0.16265 0.51809 0.0
C1439 C 0.05508 0.1883 0.50882 0.0
H1440 H 0.67569 0.3289 0.21102 0.0
H1441 H 0.62708 0.27203 0.25722 0.0
H1442 H 0.66619 0.26672 0.27885 0.0
H1443 H 0.71593 0.27731 0.28547 0.0
H1444 H 0.7641 0.33577 0.24 0.0
H1445 H 0.725 0.34077 0.21859 0.0
C1446 C 0.67326 0.31541 0.22595 0.0
C1447 C 0.64687 0.30111 0.23185 0.0
C1448 C 0.69671 0.31239 0.23897 0.0
C1449 C 0.64595 0.2838 0.25157 0.0
C1450 C 0.66886 0.28058 0.26419 0.0
C1451 C 0.71823 0.29122 0.27089 0.0
C1452 C 0.74459 0.30593 0.26498 0.0
C1453 C 0.69467 0.29459 0.2582 0.0
C1454 C 0.74532 0.3238 0.24573 0.0
C1455 C 0.72241 0.32679 0.23315 0.0
H1456 H 0.5945 0.87621 0.9923 0.0
H1457 H 0.54895 0.88401 0.92588 0.0
H1458 H 0.54602 0.92738 0.94526 0.0
H1459 H 0.55587 0.96535 0.98117 0.0
H1460 H 0.60114 0.95857 0.04795 0.0
H1461 H 0.60425 0.91466 0.02881 0.0
C1462 C 0.58376 0.88709 0.98189 0.0
C1463 C 0.572 0.87524 0.95686 0.0
C1464 C 0.58196 0.91335 0.99349 0.0
C1465 C 0.55848 0.8912 0.94473 0.0
C1466 C 0.55668 0.91665 0.95599 0.0
C1467 C 0.5665 0.9545 0.99177 0.0
C1468 C 0.57824 0.96662 0.01663 0.0
C1469 C 0.56832 0.92831 0.98039 0.0
C1470 C 0.59174 0.95095 0.02911 0.0
C1471 C 0.59357 0.92528 0.01798 0.0
H1472 H 0.97093 0.83793 0.73914 0.0
H1473 H 0.96085 0.75086 0.74646 0.0
H1474 H 0.91984 0.74491 0.76456 0.0
H1475 H 0.8845 0.76353 0.77908 0.0
H1476 H 0.89631 0.8515 0.77458 0.0
H1477 H 0.93679 0.85716 0.75567 0.0
C1478 C 0.96003 0.81746 0.74461 0.0
C1479 C 0.97056 0.79484 0.74056 0.0
C1480 C 0.93562 0.81406 0.75607 0.0
C1481 C 0.95472 0.76905 0.74865 0.0
C1482 C 0.93062 0.76552 0.75927 0.0
C1483 C 0.89573 0.78417 0.77418 0.0
C1484 C 0.88568 0.80705 0.77903 0.0
C1485 C 0.92045 0.78772 0.76324 0.0
C1486 C 0.9021 0.83313 0.77189 0.0
C1487 C 0.92586 0.83647 0.76071 0.0
H1488 H 0.16954 0.06051 0.93147 0.0
H1489 H 0.09199 0.02251 0.89194 0.0
H1490 H 0.07369 1.01109 0.93123 0.0
H1491 H 0.07889 0.02007 0.97674 0.0
H1492 H 0.15563 0.06464 0.01611 0.0
H1493 H 0.17535 0.06507 0.97712 0.0
C1494 C 0.14877 0.04897 0.9315 0.0
C1495 C 0.132 0.04244 0.90917 0.0
C1496 C 0.13829 0.04412 0.95417 0.0
C1497 C 0.1051 0.02783 0.90916 0.0
C1498 C 0.09467 0.02144 0.93155 0.0
C1499 C 0.09998 0.02922 0.97679 0.0
C1500 C 0.11585 0.04255 0.99901 0.0
C1501 C 0.11091 0.03074 0.95421 0.0
C1502 C 0.14311 0.05455 0.99903 0.0
C1503 C 0.15435 0.05483 0.97679 0.0
H1504 H 0.85319 0.43203 0.60425 0.0
H1505 H 0.8025 0.35282 0.56456 0.0
H1506 H 0.81592 0.32726 0.5969 0.0
H1507 H 0.84055 0.32806 0.6376 0.0
H1508 H 0.89259 0.40779 0.67557 0.0
H1509 H 0.88024 0.43263 0.64252 0.0
C1510 C 0.84497 0.40915 0.60271 0.0
C1511 C 0.82654 0.39428 0.58239 0.0
C1512 C 0.85311 0.39478 0.62096 0.0
C1513 C 0.81657 0.36466 0.58023 0.0
C1514 C 0.82426 0.3501 0.59866 0.0
C1515 C 0.84957 0.3508 0.63835 0.0
C1516 C 0.86722 0.36611 0.65913 0.0
C1517 C 0.84239 0.365 0.61921 0.0
C1518 C 0.87861 0.3956 0.65997 0.0
C1519 C 0.87158 0.40981 0.64109 0.0
H1520 H 0.54355 0.08377 0.39205 0.0
H1521 H 0.48558 0.11339 0.4224 0.0
H1522 H 0.50864 0.11953 0.46438 0.0
H1523 H 0.54092 0.10905 0.49254 0.0
H1524 H 0.59723 0.07674 0.46186 0.0
H1525 H 0.57917 0.07929 0.41972 0.0
C1526 C 0.5362 0.09204 0.40781 0.0
C1527 C 0.51266 0.09756 0.40434 0.0
C1528 C 0.54902 0.09463 0.43177 0.0
C1529 C 0.50361 0.10883 0.42472 0.0
C1530 C 0.51666 0.11211 0.4487 0.0
C1531 C 0.5495 0.10291 0.47666 0.0
C1532 C 0.56996 0.09205 0.48029 0.0
C1533 C 0.53869 0.10387 0.4525 0.0
C1534 C 0.58119 0.08473 0.45956 0.0
C1535 C 0.57088 0.08616 0.43546 0.0
H1536 H 0.78272 0.76369 0.13602 0.0
H1537 H 0.86654 0.79816 0.13699 0.0
H1538 H 0.87127 0.81073 0.18225 0.0
H1539 H 0.85191 0.8094 0.22276 0.0
H1540 H 0.76791 0.77444 0.22176 0.0
H1541 H 0.76316 0.76484 0.17628 0.0
C1542 C 0.802 0.77486 0.14596 0.0
C1543 C 0.82422 0.78089 0.1324 0.0
C1544 C 0.80464 0.78151 0.17253 0.0
C1545 C 0.84899 0.7941 0.14631 0.0
C1546 C 0.85172 0.80098 0.17247 0.0
C1547 C 0.83248 0.79977 0.21271 0.0
C1548 C 0.81031 0.79264 0.22644 0.0
C1549 C 0.82976 0.79437 0.18601 0.0
C1550 C 0.78547 0.78027 0.21237 0.0
C1551 C 0.78269 0.77473 0.18606 0.0
H1552 H 0.17733 0.11372 0.77304 0.0
H1553 H 0.12173 0.03068 0.77813 0.0
H1554 H 0.09738 0.03273 0.73878 0.0
H1555 H 0.09017 0.0595 0.70498 0.0
H1556 H 0.14491 0.143 0.70013 0.0
H1557 H 0.17111 0.13978 0.73801 0.0
C1558 C 0.16019 0.09587 0.76524 0.0
C1559 C 0.15127 0.07208 0.77828 0.0
C1560 C 0.14588 0.09757 0.74314 0.0
C1561 C 0.12886 0.04921 0.76829 0.0
C1562 C 0.11489 0.05043 0.74595 0.0
C1563 C 0.108 0.07686 0.71208 0.0
C1564 C 0.11568 0.10144 0.69994 0.0
C1565 C 0.12291 0.07476 0.73357 0.0
C1566 C 0.13851 0.12403 0.70947 0.0
C1567 C 0.15358 0.12208 0.73092 0.0
H1568 H 0.81027 0.35362 0.45717 0.0
H1569 H 0.7842 0.41843 0.42947 0.0
H1570 H 0.78407 0.39922 0.38628 0.0
H1571 H 0.79559 0.36621 0.35677 0.0
H1572 H 0.82165 0.30195 0.38647 0.0
H1573 H 0.81769 0.31886 0.42847 0.0
C1574 C 0.80418 0.3633 0.44166 0.0
C1575 C 0.79749 0.38742 0.4463 0.0
C1576 C 0.80454 0.35248 0.41725 0.0
C1577 C 0.78932 0.39967 0.42619 0.0
C1578 C 0.78952 0.38887 0.40157 0.0
C1579 C 0.80026 0.35592 0.37246 0.0
C1580 C 0.80924 0.3331 0.36845 0.0
C1581 C 0.79781 0.36569 0.3969 0.0
C1582 C 0.8149 0.31969 0.38893 0.0
C1583 C 0.81261 0.32928 0.41305 0.0
H1584 H 0.45517 0.01448 0.256 0.0
H1585 H 0.52328 0.08631 0.28591 0.0
H1586 H 0.54839 0.07415 0.25437 0.0
H1587 H 0.55078 0.04345 0.21829 0.0
H1588 H 0.48289 0.97167 0.1883 0.0
H1589 H 0.45774 0.9834 0.22022 0.0
C1590 C 0.47547 0.02758 0.25554 0.0
C1591 C 0.48737 0.05128 0.27317 0.0
C1592 C 0.48981 0.02032 0.2376 0.0
C1593 C 0.51371 0.06796 0.27249 0.0
C1594 C 0.52809 0.06098 0.25455 0.0
C1595 C 0.53063 0.03007 0.21908 0.0
C1596 C 0.51869 1.00658 0.20131 0.0
C1597 C 0.51635 0.03715 0.23714 0.0
C1598 C 0.49239 0.9898 0.20197 0.0
C1599 C 0.47806 0.99655 0.2201 0.0
H1600 H 0.80024 0.80381 0.97358 0.0
H1601 H 0.83745 0.74108 0.9718 0.0
H1602 H 0.84035 0.74368 0.92701 0.0
H1603 H 0.83183 0.76342 0.88691 0.0
H1604 H 0.79676 0.82811 0.89009 0.0
H1605 H 0.79369 0.82493 0.93447 0.0
C1606 C 0.80919 0.79078 0.96355 0.0
C1607 C 0.81863 0.77224 0.97682 0.0
C1608 C 0.81117 0.79264 0.93736 0.0
C1609 C 0.83008 0.75572 0.96277 0.0
C1610 C 0.83167 0.75712 0.93682 0.0
C1611 C 0.82357 0.77692 0.89724 0.0
C1612 C 0.81461 0.79613 0.88432 0.0
C1613 C 0.82221 0.77543 0.92366 0.0
C1614 C 0.80408 0.81324 0.8988 0.0
C1615 C 0.80221 0.81141 0.92454 0.0
H1616 H 0.85803 0.07242 0.08565 0.0
H1617 H 0.88773 0.14439 0.04449 0.0
H1618 H 0.91527 0.12203 0.02423 0.0
H1619 H 0.93262 0.08329 0.02003 0.0
H1620 H 0.90459 1.01271 0.06311 0.0
H1621 H 0.87397 0.03288 0.08011 0.0
C1622 C 0.87044 0.08321 0.07217 0.0
C1623 C 0.87102 0.11014 0.06676 0.0
C1624 C 0.88632 0.07035 0.06075 0.0
C1625 C 0.88707 0.12372 0.04912 0.0
C1626 C 0.90278 0.11094 0.03749 0.0
C1627 C 0.91975 0.07227 0.03308 0.0
C1628 C 0.92102 0.04659 0.04036 0.0
C1629 C 0.90282 0.08444 0.04344 0.0
C1630 C 0.90383 0.03231 0.05691 0.0
C1631 C 0.88653 0.044 0.0669 0.0
H1632 H 0.40664 0.46336 0.0681 0.0
H1633 H 0.42224 0.38905 0.04037 0.0
H1634 H 0.46621 0.41817 0.03327 0.0
H1635 H 0.50072 0.46449 0.03518 0.0
H1636 H 0.48613 0.53915 0.06332 0.0
H1637 H 0.4415 0.51024 0.06974 0.0
C1638 C 0.41965 0.4535 0.06055 0.0
C1639 C 0.41089 0.42387 0.05488 0.0
C1640 C 0.4452 0.47049 0.05641 0.0
C1641 C 0.4282 0.41167 0.04502 0.0
C1642 C 0.45347 0.42835 0.04087 0.0
C1643 C 0.48776 0.47456 0.04253 0.0
C1644 C 0.49689 0.50408 0.04862 0.0
C1645 C 0.4622 0.45776 0.04647 0.0
C1646 C 0.47972 0.51655 0.05834 0.0
C1647 C 0.45416 0.49998 0.06211 0.0
H1648 H 0.40062 0.6196 0.80196 0.0
H1649 H 0.35508 0.59041 0.72984 0.0
H1650 H 0.3257 0.61541 0.74091 0.0
H1651 H 0.31381 0.64666 0.77039 0.0
H1652 H 0.35837 0.67525 0.84296 0.0
H1653 H 0.3873 0.64926 0.83241 0.0
C1654 C 0.38431 0.61882 0.78868 0.0
C1655 C 0.38011 0.60338 0.76509 0.0
C1656 C 0.36727 0.63295 0.79527 0.0
C1657 C 0.35873 0.6022 0.74813 0.0
C1658 C 0.3419 0.61644 0.75444 0.0
C1659 C 0.32947 0.6467 0.78413 0.0
C1660 C 0.33389 0.66274 0.80744 0.0
C1661 C 0.34601 0.63188 0.77792 0.0
C1662 C 0.35468 0.66314 0.82482 0.0
C1663 C 0.37122 0.64833 0.8188 0.0
H1664 H 0.22407 0.6504 0.59412 0.0
H1665 H 0.22853 0.56686 0.58561 0.0
H1666 H 0.18054 0.54613 0.58343 0.0
H1667 H 0.13704 0.55242 0.58057 0.0
H1668 H 0.13442 0.63685 0.58945 0.0
H1669 H 0.18201 0.65657 0.59535 0.0
C1670 C 0.21457 0.62762 0.59178 0.0
C1671 C 0.22967 0.61016 0.58951 0.0
C1672 C 0.18731 0.61605 0.59079 0.0
C1673 C 0.2172 0.58071 0.58716 0.0
C1674 C 0.18981 0.56889 0.58593 0.0
C1675 C 0.14698 0.57505 0.58437 0.0
C1676 C 0.13232 0.5932 0.58437 0.0
C1677 C 0.1746 0.58641 0.58733 0.0
C1678 C 0.14534 0.6225 0.58913 0.0
C1679 C 0.17254 0.63382 0.59242 0.0
H1680 H 0.77434 0.03697 0.79701 0.0
H1681 H 0.70125 0.98946 0.82305 0.0
H1682 H 0.72454 0.96838 0.85186 0.0
H1683 H 0.76464 0.95845 0.86452 0.0
H1684 H 0.83628 1.00329 0.83405 0.0
H1685 H 0.81499 0.03195 0.81396 0.0
C1686 C 0.76349 0.02212 0.80911 0.0
C1687 C 0.7361 0.01401 0.80741 0.0
C1688 C 0.77687 1.00998 0.82526 0.0
C1689 C 0.72236 0.99555 0.82375 0.0
C1690 C 0.73566 0.98359 0.84023 0.0
C1691 C 0.77572 0.97459 0.85364 0.0
C1692 C 0.80184 0.97756 0.85014 0.0
C1693 C 0.76281 0.98984 0.8404 0.0
C1694 C 0.81617 0.99992 0.83718 0.0
C1695 C 0.80384 0.01617 0.82513 0.0
H1696 H 0.76337 0.93291 0.53679 0.0
H1697 H 0.79437 0.97157 0.61186 0.0
H1698 H 0.7697 1.00353 0.60827 0.0
H1699 H 0.74049 0.02179 0.58347 0.0
H1700 H 0.70994 0.9841 0.50812 0.0
H1701 H 0.73338 0.95083 0.51208 0.0
C1702 C 0.76454 0.94817 0.55242 0.0
C1703 C 0.78071 0.94977 0.57456 0.0
C1704 C 0.75055 0.96691 0.55012 0.0
C1705 C 0.78215 0.96986 0.59456 0.0
C1706 C 0.76805 0.98821 0.59254 0.0
C1707 C 0.73875 1.00612 0.56799 0.0
C1708 C 0.72351 1.00554 0.54552 0.0
C1709 C 0.75236 0.98711 0.57035 0.0
C1710 C 0.7218 0.98531 0.52553 0.0
C1711 C 0.73509 0.96614 0.52782 0.0
H1712 H 0.38049 0.48272 0.77978 0.0
H1713 H 0.45477 0.47324 0.76926 0.0
H1714 H 0.43749 0.42407 0.77823 0.0
H1715 H 0.4009 0.38368 0.78812 0.0
H1716 H 0.32728 0.39418 0.80025 0.0
H1717 H 0.34482 0.44329 0.79179 0.0
C1718 C 0.39285 0.46985 0.77937 0.0
C1719 C 0.4187 0.48135 0.77363 0.0
C1720 C 0.38298 0.44192 0.78493 0.0
C1721 C 0.43474 0.46471 0.77361 0.0
C1722 C 0.42489 0.43666 0.7787 0.0
C1723 C 0.38875 0.39677 0.78899 0.0
C1724 C 0.36283 0.38534 0.79465 0.0
C1725 C 0.39899 0.42503 0.78427 0.0
C1726 C 0.34735 0.40255 0.79599 0.0
C1727 C 0.3573 0.43058 0.79105 0.0
H1728 H 0.19635 0.62835 0.27643 0.0
H1729 H 0.24994 0.61037 0.22893 0.0
H1730 H 0.27969 0.65938 0.23779 0.0
H1731 H 0.29066 0.70719 0.25987 0.0
H1732 H 0.2361 0.72391 0.30693 0.0
H1733 H 0.20666 0.67531 0.29755 0.0
C1734 C 0.21449 0.63507 0.2679 0.0
C1735 C 0.22095 0.61573 0.25212 0.0
C1736 C 0.23143 0.66299 0.27317 0.0
C1737 C 0.24447 0.6249 0.24113 0.0
C1738 C 0.26154 0.65286 0.24628 0.0
C1739 C 0.2724 0.70007 0.26814 0.0
C1740 C 0.26558 0.71904 0.28409 0.0
C1741 C 0.2553 0.67204 0.26246 0.0
C1742 C 0.24175 0.70971 0.29452 0.0
C1743 C 0.22487 0.68194 0.28917 0.0
H1744 H 0.53002 0.70253 0.51332 0.0
H1745 H 0.60624 0.76078 0.54389 0.0
H1746 H 0.6179 0.72203 0.55959 0.0
H1747 H 0.60707 0.67083 0.56401 0.0
H1748 H 0.53056 0.61293 0.53344 0.0
H1749 H 0.5188 0.65179 0.51865 0.0
C1750 C 0.54911 0.70687 0.52362 0.0
C1751 C 0.56709 0.73491 0.52736 0.0
C1752 C 0.55587 0.68424 0.53258 0.0
C1753 C 0.59181 0.73968 0.54068 0.0
C1754 C 0.5986 0.71737 0.54965 0.0
C1755 C 0.58782 0.66664 0.5541 0.0
C1756 C 0.56989 0.63854 0.54994 0.0
C1757 C 0.58091 0.68943 0.54557 0.0
C1758 C 0.54498 0.63401 0.53709 0.0
C1759 C 0.53812 0.65638 0.52853 0.0
H1760 H 0.70146 0.35146 0.73133 0.0
H1761 H 0.73565 0.3461 0.66287 0.0
H1762 H 0.77387 0.34066 0.6863 0.0
H1763 H 0.79655 0.33443 0.72655 0.0
H1764 H 0.7621 0.34225 0.79461 0.0
H1765 H 0.72538 0.34955 0.77115 0.0
C1766 C 0.7174 0.34947 0.72148 0.0
C1767 C 0.71546 0.34914 0.69525 0.0
C1768 C 0.73935 0.34643 0.73509 0.0
C1769 C 0.73654 0.34667 0.683 0.0
C1770 C 0.75836 0.3433 0.69643 0.0
C1771 C 0.78105 0.33785 0.73623 0.0
C1772 C 0.78224 0.33756 0.76248 0.0
C1773 C 0.75982 0.34262 0.72251 0.0
C1774 C 0.76199 0.34238 0.77457 0.0
C1775 C 0.74081 0.34653 0.76112 0.0
H1776 H 1.00592 0.359 0.01398 0.0
H1777 H 0.07915 0.36883 0.98433 0.0
H1778 H 0.09242 0.42018 0.99292 0.0
H1779 H 0.08311 0.46278 0.00838 0.0
H1780 H 1.009 0.45273 0.03647 0.0
H1781 H 0.99635 0.40153 0.02882 0.0
C1782 C 0.02491 0.37232 0.00959 0.0
C1783 C 0.04157 0.35975 0.99868 0.0
C1784 C 0.03224 0.40208 0.0141 0.0
C1785 C 0.06591 0.37765 0.99282 0.0
C1786 C 0.07351 0.40715 0.99768 0.0
C1787 C 0.06412 0.44948 0.01276 0.0
C1788 C 0.04709 0.46207 0.023 0.0
C1789 C 0.05679 0.4197 0.00818 0.0
C1790 C 1.0226 0.44406 0.02849 0.0
C1791 C 1.01532 0.41458 0.02419 0.0
H1792 H 0.0304 0.75902 0.20552 0.0
H1793 H 0.03534 0.83523 0.17207 0.0
H1794 H 0.99874 0.83897 0.19358 0.0
H1795 H 0.9673 0.82228 0.22406 0.0
H1796 H 0.96271 0.7463 0.25766 0.0
H1797 H 0.99696 0.74053 0.23361 0.0
C1798 C 1.02335 0.77634 0.20277 0.0
C1799 C 0.03575 0.79696 0.18741 0.0
C1800 C 1.00239 0.77841 0.21525 0.0
C1801 C 0.0262 0.81911 0.18385 0.0
C1802 C 1.00532 0.82131 0.1962 0.0
C1803 C 0.97377 0.80442 0.22602 0.0
C1804 C 0.96266 0.78487 0.24275 0.0
C1805 C 0.9936 0.80137 0.2123 0.0
C1806 C 0.97085 0.76154 0.2448 0.0
C1807 C 0.99055 0.75834 0.23119 0.0
H1808 H 0.56916 0.40188 0.1506 0.0
H1809 H 0.61514 0.37567 0.09941 0.0
H1810 H 0.61571 0.41463 0.07489 0.0
H1811 H 0.60332 0.45775 0.06674 0.0
H1812 H 0.55939 0.48511 0.11958 0.0
H1813 H 0.55821 0.44572 0.14339 0.0
C1814 C 0.57939 0.40442 0.13409 0.0
C1815 C 0.59204 0.38451 0.12746 0.0
C1816 C 0.5801 0.42796 0.11974 0.0
C1817 C 0.60511 0.38965 0.10571 0.0
C1818 C 0.60544 0.41238 0.09136 0.0
C1819 C 0.5934 0.45534 0.08342 0.0
C1820 C 0.58129 0.47566 0.09055 0.0
C1821 C 0.59303 0.43196 0.09796 0.0
C1822 C 0.56896 0.47088 0.11278 0.0
C1823 C 0.56822 0.44785 0.12675 0.0
H1824 H 0.98473 0.32503 0.38699 0.0
H1825 H 0.99175 0.26102 0.33389 0.0
H1826 H 0.9482 0.25511 0.31265 0.0
H1827 H 0.90585 0.26752 0.30856 0.0
H1828 H 0.90207 0.33483 0.36005 0.0
H1829 H 0.9448 0.33943 0.38142 0.0
C1830 C 0.97716 0.30979 0.37061 0.0
C1831 C 0.99312 0.29364 0.36267 0.0
C1832 C 0.95154 0.30675 0.35779 0.0
C1833 C 0.9814 0.27426 0.34107 0.0
C1834 C 0.95585 0.2707 0.32876 0.0
C1835 C 0.91409 0.28321 0.32453 0.0
C1836 C 0.89901 0.30054 0.33235 0.0
C1837 C 0.94028 0.28665 0.33684 0.0
C1838 C 0.91179 0.32084 0.35304 0.0
C1839 C 0.9368 0.32358 0.36552 0.0
H1840 H 0.03693 0.7106 0.66292 0.0
H1841 H 0.05616 0.76189 0.60228 0.0
H1842 H 0.05849 0.72154 0.57601 0.0
H1843 H 0.05634 0.67072 0.56939 0.0
H1844 H 0.03869 0.62009 0.63069 0.0
H1845 H 0.03467 0.65988 0.65631 0.0
C1846 C 0.04131 0.71312 0.64387 0.0
C1847 C 0.04598 0.74034 0.63512 0.0
C1848 C 0.04319 0.68928 0.62844 0.0
C1849 C 0.05217 0.74202 0.61018 0.0
C1850 C 0.05362 0.71857 0.59488 0.0
C1851 C 0.05152 0.66812 0.58831 0.0
C1852 C 0.04788 0.64125 0.59745 0.0
C1853 C 0.04939 0.69191 0.60365 0.0
C1854 C 0.04178 0.63964 0.62243 0.0
C1855 C 0.03939 0.66279 0.63739 0.0
H1856 H 0.65417 0.77687 0.88454 0.0
H1857 H 0.63619 0.83819 0.8424 0.0
H1858 H 0.67612 0.84513 0.82177 0.0
H1859 H 0.71852 0.8346 0.81481 0.0
H1860 H 0.73319 0.76964 0.8544 0.0
H1861 H 0.69414 0.76405 0.87558 0.0
C1862 C 0.65852 0.79177 0.87074 0.0
C1863 C 0.64047 0.80685 0.86582 0.0
C1864 C 0.68211 0.79534 0.85792 0.0
C1865 C 0.6482 0.82575 0.84734 0.0
C1866 C 0.67172 0.82991 0.83529 0.0
C1867 C 0.71347 0.81907 0.82802 0.0
C1868 C 0.73064 0.80274 0.83235 0.0
C1869 C 0.68928 0.81499 0.84025 0.0
C1870 C 0.7218 0.78283 0.84982 0.0
C1871 C 0.69887 0.77953 0.86231 0.0
H1872 H 0.51648 0.60727 0.70993 0.0
H1873 H 0.44286 0.55279 0.66995 0.0
H1874 H 0.46482 0.54823 0.63303 0.0
H1875 H 0.50593 0.55558 0.61402 0.0
H1876 H 0.57917 0.61013 0.65451 0.0
H1877 H 0.55638 0.61862 0.68952 0.0
C1878 C 0.50515 0.59478 0.69299 0.0
C1879 C 0.47824 0.58006 0.69274 0.0
C1880 C 0.51792 0.59181 0.67216 0.0
C1881 C 0.46367 0.56433 0.67058 0.0
C1882 C 0.47625 0.56145 0.64957 0.0
C1883 C 0.51679 0.56924 0.63053 0.0
C1884 C 0.54413 0.58174 0.63197 0.0
C1885 C 0.50352 0.57429 0.65049 0.0
C1886 C 0.55807 0.60009 0.65312 0.0
C1887 C 0.54509 0.605 0.67311 0.0
H1888 H 0.81777 0.19544 0.01095 0.0
H1889 H 0.85277 0.27612 0.05513 0.0
H1890 H 0.84652 0.30026 0.01881 0.0
H1891 H 0.82879 0.29811 0.97531 0.0
H1892 H 0.78953 0.21702 0.93243 0.0
H1893 H 0.79988 0.19331 0.96737 0.0
C1894 C 0.82452 0.21832 0.01239 0.0
C1895 C 0.83598 0.2341 0.03542 0.0
C1896 C 0.81975 0.23191 0.9918 0.0
C1897 C 0.84407 0.26367 0.03741 0.0
C1898 C 0.84034 0.27741 0.01675 0.0
C1899 C 0.82217 0.27524 0.97368 0.0
C1900 C 0.80832 0.25942 0.95127 0.0
C1901 C 0.82765 0.2617 0.99402 0.0
C1902 C 0.80046 0.22979 0.94935 0.0
C1903 C 0.8063 0.21617 0.96935 0.0
H1904 H 0.09548 0.5296 0.20184 0.0
H1905 H 0.12775 0.46869 0.17176 0.0
H1906 H 0.10393 0.46614 0.13091 0.0
H1907 H 0.08289 0.48922 0.10259 0.0
H1908 H 0.05554 0.55474 0.13147 0.0
H1909 H 0.06786 0.54701 0.17419 0.0
C1910 C 0.09661 0.51507 0.18655 0.0
C1911 C 0.11375 0.49981 0.18953 0.0
C1912 C 0.08411 0.51498 0.16287 0.0
C1913 C 0.11497 0.48096 0.16969 0.0
C1914 C 0.10149 0.47962 0.14635 0.0
C1915 C 0.07917 0.50147 0.11826 0.0
C1916 C 0.06917 0.52314 0.11406 0.0
C1917 C 0.08743 0.49786 0.14247 0.0
C1918 C 0.06361 0.53823 0.13436 0.0
C1919 C 0.07081 0.53393 0.15873 0.0
H1920 H 0.84498 0.81583 0.47798 0.0
H1921 H 0.78609 0.85497 0.47919 0.0
H1922 H 0.78044 0.85041 0.43346 0.0
H1923 H 0.79287 0.83627 0.3921 0.0
H1924 H 0.85282 0.79837 0.39157 0.0
H1925 H 0.85717 0.80157 0.437 0.0
C1926 C 0.83067 0.82314 0.46835 0.0
C1927 C 0.81584 0.83557 0.48268 0.0
C1928 C 0.82776 0.82088 0.44161 0.0
C1929 C 0.79776 0.84516 0.46922 0.0
C1930 C 0.79456 0.84263 0.4428 0.0
C1931 C 0.80693 0.82868 0.40182 0.0
C1932 C 0.82252 0.81709 0.38763 0.0
C1933 C 0.80957 0.83071 0.42862 0.0
C1934 C 0.84049 0.80748 0.40127 0.0
C1935 C 0.84302 0.80926 0.42758 0.0
H1936 H 0.55038 0.5714 0.80871 0.0
H1937 H 0.50378 0.60893 0.85009 0.0
H1938 H 0.52878 0.60701 0.8892 0.0
H1939 H 0.55803 0.58664 0.91154 0.0
H1940 H 0.60181 0.54564 0.86992 0.0
H1941 H 0.58379 0.55702 0.83086 0.0
C1942 C 0.546 0.57972 0.82623 0.0
C1943 C 0.52492 0.58979 0.82655 0.0
C1944 C 0.5597 0.57751 0.84859 0.0
C1945 C 0.51977 0.60085 0.84936 0.0
C1946 C 0.53394 0.59957 0.87173 0.0
C1947 C 0.56424 0.58099 0.89397 0.0
C1948 C 0.58103 0.56513 0.89349 0.0
C1949 C 0.5531 0.58675 0.87159 0.0
C1950 C 0.5887 0.55761 0.87063 0.0
C1951 C 0.57837 0.56406 0.84834 0.0
H1952 H 0.87288 0.24636 0.1585 0.0
H1953 H 0.84143 0.16368 0.18351 0.0
H1954 H 0.83669 0.18504 0.224 0.0
H1955 H 0.83433 0.22638 0.24918 0.0
H1956 H 0.86389 0.30873 0.22315 0.0
H1957 H 0.87628 0.2882 0.186 0.0
C1958 C 0.86554 0.23299 0.17297 0.0
C1959 C 0.85689 0.20343 0.16774 0.0
C1960 C 0.86184 0.2453 0.19576 0.0
C1961 C 0.84797 0.18648 0.18691 0.0
C1962 C 0.84495 0.19867 0.20999 0.0
C1963 C 0.84361 0.23987 0.23543 0.0
C1964 C 0.84756 0.26891 0.23855 0.0
C1965 C 0.85054 0.22791 0.21407 0.0
C1966 C 0.8603 0.28624 0.22099 0.0
C1967 C 0.86742 0.27453 0.19977 0.0
H1968 H 0.10089 0.561 0.30901 0.0
H1969 H 0.14455 0.51236 0.34101 0.0
H1970 H 0.12911 0.51905 0.38151 0.0
H1971 H 0.10691 0.54294 0.40848 0.0
H1972 H 0.06502 0.59309 0.37628 0.0
H1973 H 0.07619 0.58163 0.33495 0.0
C1974 C 0.10687 0.55159 0.32476 0.0
C1975 C 0.12408 0.5365 0.32214 0.0
C1976 C 0.09842 0.55602 0.34791 0.0
C1977 C 0.13139 0.52418 0.34262 0.0
C1978 C 0.12266 0.5281 0.36577 0.0
C1979 C 0.09982 0.55086 0.3923 0.0
C1980 C 0.08532 0.56895 0.39531 0.0
C1981 C 0.1067 0.54458 0.36873 0.0
C1982 C 0.07646 0.5794 0.37434 0.0
C1983 C 0.0828 0.57282 0.35078 0.0
H1984 H 0.79074 0.8055 0.63272 0.0
H1985 H 0.85142 0.88688 0.65228 0.0
H1986 H 0.85035 0.88054 0.69629 0.0
H1987 H 0.83183 0.8535 0.7304 0.0
H1988 H 0.77173 0.77165 0.7132 0.0
H1989 H 0.77297 0.77664 0.66829 0.0
C1990 C 0.80408 0.82163 0.64653 0.0
C1991 C 0.82139 0.84681 0.63839 0.0
C1992 C 0.80325 0.81799 0.6728 0.0
C1993 C 0.83794 0.86733 0.65728 0.0
C1994 C 0.83729 0.86378 0.6828 0.0
C1995 C 0.81879 0.83661 0.717 0.0
C1996 C 0.80143 0.81226 0.72594 0.0
C1997 C 0.81986 0.83948 0.69095 0.0
C1998 C 0.78522 0.79078 0.70754 0.0
C1999 C 0.786 0.79364 0.68157 0.0
H2000 H 0.79391 0.52357 0.60376 0.0
H2001 H 0.72635 0.46514 0.55738 0.0
H2002 H 0.69828 0.48819 0.5759 0.0
H2003 H 0.69379 0.52703 0.6028 0.0
H2004 H 0.7618 0.58721 0.64704 0.0
H2005 H 0.78913 0.56113 0.63185 0.0
C2006 C 0.77301 0.51569 0.5978 0.0
C2007 C 0.76218 0.49279 0.57915 0.0
C2008 C 0.75722 0.52935 0.60812 0.0
C2009 C 0.73511 0.48287 0.57159 0.0
C2010 C 0.7191 0.496 0.58218 0.0
C2011 C 0.7145 0.53403 0.60953 0.0
C2012 C 0.72588 0.55875 0.62616 0.0
C2013 C 0.73005 0.5195 0.60015 0.0
C2014 C 0.75277 0.56813 0.63431 0.0
C2015 C 0.76831 0.55332 0.62558 0.0
H2016 H 0.23714 0.15349 0.57219 0.0
H2017 H 0.22588 0.19116 0.50516 0.0
H2018 H 0.1791 0.16287 0.5001 0.0
H2019 H 0.14129 0.12782 0.515 0.0
H2020 H 0.15157 0.09338 0.58412 0.0
H2021 H 0.19876 0.12003 0.58823 0.0
C2022 C 0.22443 0.15533 0.5564 0.0
C2023 C 0.235 0.17415 0.53889 0.0
C2024 C 0.19738 0.13967 0.55409 0.0
C2025 C 0.21823 0.17678 0.51882 0.0
C2026 C 0.1915 0.1606 0.51593 0.0
C2027 C 0.15389 0.12607 0.53092 0.0
C2028 C 0.14299 0.10842 0.54912 0.0
C2029 C 0.18084 0.14204 0.53348 0.0
C2030 C 0.15948 0.10679 0.56987 0.0
C2031 C 0.18647 0.12198 0.57218 0.0
H2032 H 0.21732 1.00808 0.82661 0.0
H2033 H 0.28675 0.08234 0.84267 0.0
H2034 H 0.31357 0.05549 0.82783 0.0
H2035 H 0.31686 1.01075 0.80975 0.0
H2036 H 0.24642 0.93785 0.79127 0.0
H2037 H 0.22027 0.96444 0.80734 0.0
C2038 C 0.23838 0.01825 0.82721 0.0
C2039 C 0.25019 0.04689 0.83599 0.0
C2040 C 0.25338 1.00305 0.81789 0.0
C2041 C 0.27736 0.06014 0.83613 0.0
C2042 C 0.29263 0.04488 0.82753 0.0
C2043 C 0.29576 1.00091 0.80897 0.0
C2044 C 0.28358 0.9724 0.79961 0.0
C2045 C 0.28078 0.01637 0.81812 0.0
C2046 C 0.25624 0.95971 0.79877 0.0
C2047 C 0.24128 0.97485 0.80795 0.0
H2048 H 0.40208 1.0043 0.03911 0.0
H2049 H 0.39984 0.91844 0.02435 0.0
H2050 H 0.44723 0.93386 0.03586 0.0
H2051 H 0.48943 0.97215 0.04918 0.0
H2052 H 0.49108 0.05789 0.06199 0.0
H2053 H 0.44348 0.04195 0.05277 0.0
C2054 C 0.4119 0.98889 0.03834 0.0
C2055 C 0.39751 0.96031 0.03081 0.0
C2056 C 0.43893 0.99784 0.04498 0.0
C2057 C 0.41055 0.94065 0.02993 0.0
C2058 C 0.43758 0.9494 0.03666 0.0
C2059 C 0.47919 0.98715 0.05038 0.0
C2060 C 0.49341 0.01601 0.05635 0.0
C2061 C 0.45195 0.97795 0.04423 0.0
C2062 C 0.48028 0.03551 0.05743 0.0
C2063 C 0.45318 0.02647 0.05205 0.0
H2064 H 0.89196 0.6243 0.88779 0.0
H2065 H 0.84876 0.55446 0.83252 0.0
H2066 H 0.81299 0.57281 0.82784 0.0
H2067 H 0.79924 0.61383 0.83236 0.0
H2068 H 0.84163 0.68363 0.8879 0.0
H2069 H 0.87219 0.65978 0.89993 0.0
C2070 C 0.87443 0.61277 0.8752 0.0
C2071 C 0.87336 0.58865 0.85993 0.0
C2072 C 0.85394 0.62356 0.87239 0.0
C2073 C 0.85029 0.57344 0.84415 0.0
C2074 C 0.8298 0.58393 0.84139 0.0
C2075 C 0.81443 0.62337 0.84783 0.0
C2076 C 0.8188 0.65094 0.85852 0.0
C2077 C 0.83211 0.60977 0.85438 0.0
C2078 C 0.83847 0.6628 0.87873 0.0
C2079 C 0.85599 0.64922 0.88559 0.0
H2080 H 0.87044 0.66034 0.09513 0.0
H2081 H 0.88637 0.70114 0.02795 0.0
H2082 H 0.91723 0.67688 0.01951 0.0
H2083 H 0.93895 0.64305 0.03068 0.0
H2084 H 0.92259 0.60228 0.09785 0.0
H2085 H 0.89303 0.6278 0.10691 0.0
C2086 C 0.88071 0.66404 0.07867 0.0
C2087 C 0.87594 0.68251 0.06216 0.0
C2088 C 0.89846 0.65003 0.07393 0.0
C2089 C 0.88959 0.68708 0.041 0.0
C2090 C 0.90724 0.67315 0.03613 0.0
C2091 C 0.92887 0.63968 0.04727 0.0
C2092 C 0.93309 0.62067 0.06353 0.0
C2093 C 0.91168 0.65438 0.05235 0.0
C2094 C 0.92008 0.61698 0.08514 0.0
C2095 C 0.90298 0.63144 0.09027 0.0
H2096 H 0.25069 0.15615 0.87604 0.0
H2097 H 0.18217 0.17314 0.84647 0.0
H2098 H 0.20967 0.21064 0.82445 0.0
H2099 H 0.25229 0.23446 0.80977 0.0
H2100 H 0.32021 0.21565 0.83811 0.0
H2101 H 0.29341 0.1819 0.86366 0.0
C2102 C 0.24172 0.16838 0.86521 0.0
C2103 C 0.21431 0.16146 0.86258 0.0
C2104 C 0.25737 0.18876 0.85159 0.0
C2105 C 0.20319 0.17788 0.84872 0.0
C2106 C 0.21885 0.19903 0.83581 0.0
C2107 C 0.26119 0.22279 0.82134 0.0
C2108 C 0.2881 0.22714 0.8217 0.0
C2109 C 0.24577 0.20376 0.83627 0.0
C2110 C 0.29945 0.21234 0.83724 0.0
C2111 C 0.28422 0.19327 0.85204 0.0
H2112 H 0.42502 0.97594 0.31691 0.0
H2113 H 0.38011 0.99176 0.37454 0.0
H2114 H 0.35136 0.94195 0.36838 0.0
H2115 H 0.3376 0.89488 0.34438 0.0
H2116 H 0.37973 0.88162 0.2832 0.0
H2117 H 0.41099 0.92971 0.29266 0.0
C2118 C 0.40926 0.96823 0.32847 0.0
C2119 C 0.40486 0.98695 0.34654 0.0
C2120 C 0.39214 0.94031 0.32378 0.0
C2121 C 0.38393 0.97732 0.36085 0.0
C2122 C 0.36747 0.94903 0.35717 0.0
C2123 C 0.35369 0.9026 0.33321 0.0
C2124 C 0.35645 0.88495 0.31313 0.0
C2125 C 0.37112 0.93049 0.33833 0.0
C2126 C 0.37715 0.89506 0.29858 0.0
C2127 C 0.39508 0.92241 0.30408 0.0
H2128 H 0.63491 0.41388 0.5831 0.0
H2129 H 0.62913 0.42367 0.66203 0.0
H2130 H 0.61674 0.46536 0.65726 0.0
H2131 H 0.60659 0.49937 0.63045 0.0
H2132 H 0.60772 0.48622 0.55095 0.0
H2133 H 0.62273 0.44636 0.55611 0.0
C2134 C 0.631 0.42514 0.59929 0.0
C2135 C 0.63321 0.41539 0.62299 0.0
C2136 C 0.6229 0.44884 0.59627 0.0
C2137 C 0.62764 0.43035 0.64356 0.0
C2138 C 0.62055 0.45439 0.64084 0.0
C2139 C 0.61014 0.4878 0.61426 0.0
C2140 C 0.60595 0.49612 0.59027 0.0
C2141 C 0.61797 0.4639 0.61727 0.0
C2142 C 0.61053 0.48045 0.56961 0.0
C2143 C 0.61922 0.45754 0.57256 0.0
H2144 H 0.42362 0.77725 0.41886 0.0
H2145 H 0.48097 0.82455 0.37339 0.0
H2146 H 0.44618 0.82454 0.34217 0.0
H2147 H 0.39968 0.81247 0.32795 0.0
H2148 H 0.34145 0.7677 0.37376 0.0
H2149 H 0.37613 0.76542 0.40445 0.0
C2150 C 0.42844 0.78739 0.40205 0.0
C2151 C 0.45499 0.80085 0.39855 0.0
C2152 C 0.40812 0.78785 0.38417 0.0
C2153 C 0.46081 0.81413 0.37672 0.0
C2154 C 0.44089 0.81412 0.35876 0.0
C2155 C 0.39445 0.80196 0.34452 0.0
C2156 C 0.36784 0.79006 0.3483 0.0
C2157 C 0.4145 0.80122 0.36232 0.0
C2158 C 0.36168 0.77697 0.37019 0.0
C2159 C 0.38156 0.77567 0.38782 0.0
H2160 H 0.12129 0.72304 0.13085 0.0
H2161 H 0.08501 0.74623 0.06622 0.0
H2162 H 0.07581 0.69885 0.04453 0.0
H2163 H 0.07605 0.64959 0.04492 0.0
H2164 H 0.11611 0.62851 0.10845 0.0
H2165 H 0.12594 0.67604 0.12944 0.0
C2166 C 0.11165 0.71784 0.11187 0.0
C2167 C 0.10377 0.73824 0.10023 0.0
C2168 C 0.10697 0.69074 0.09936 0.0
C2169 C 0.09146 0.73113 0.07558 0.0
C2170 C 0.08605 0.70391 0.06325 0.0
C2171 C 0.08711 0.65549 0.06329 0.0
C2172 C 0.09514 0.63524 0.07514 0.0
C2173 C 0.09337 0.68335 0.07507 0.0
C2174 C 0.10974 0.6435 0.09882 0.0
C2175 C 0.11528 0.67072 0.1109 0.0
H2176 H 0.12006 0.31062 0.9231 0.0
H2177 H 0.07282 0.24141 0.86884 0.0
H2178 H 0.10807 0.25131 0.84238 0.0
H2179 H 0.15222 0.2789 0.83458 0.0
H2180 H 0.20084 0.34743 0.88842 0.0
H2181 H 0.16524 0.33844 0.91521 0.0
C2182 C 0.11753 0.29777 0.90548 0.0
C2183 C 0.09381 0.27532 0.89799 0.0
C2184 C 0.13809 0.30343 0.89028 0.0
C2185 C 0.09086 0.25876 0.87515 0.0
C2186 C 0.111 0.26441 0.85992 0.0
C2187 C 0.15491 0.29213 0.85203 0.0
C2188 C 0.1789 0.31403 0.85938 0.0
C2189 C 0.13463 0.28664 0.86729 0.0
C2190 C 0.18244 0.33049 0.88237 0.0
C2191 C 0.16211 0.32537 0.89763 0.0
H2192 H 0.60575 0.729 1.00156 0.0
H2193 H 0.55272 0.68886 0.93545 0.0
H2194 H 0.54624 0.64251 0.94999 0.0
H2195 H 0.55501 0.61129 0.98209 0.0
H2196 H 0.60548 0.65234 0.04957 0.0
H2197 H 0.61302 0.69823 0.0342 0.0
C2198 C 0.59268 0.71027 0.99015 0.0
C2199 C 0.57993 0.71376 0.96684 0.0
C2200 C 0.58833 0.68274 0.99913 0.0
C2201 C 0.56302 0.68812 0.95323 0.0
C2202 C 0.55925 0.66106 0.96167 0.0
C2203 C 0.56771 0.63012 0.99362 0.0
C2204 C 0.57954 0.62697 0.01757 0.0
C2205 C 0.5717 0.65771 0.9847 0.0
C2206 C 0.5957 0.65278 0.03142 0.0
C2207 C 0.60018 0.67962 0.02248 0.0
H2208 H 0.16173 0.85117 0.70802 0.0
H2209 H 0.11303 0.78623 0.74771 0.0
H2210 H 0.15208 0.77807 0.76621 0.0
H2211 H 0.20182 0.78842 0.77179 0.0
H2212 H 0.25018 0.85589 0.73419 0.0
H2213 H 0.21109 0.86324 0.71533 0.0
C2214 C 0.15927 0.83529 0.72088 0.0
C2215 C 0.13288 0.81961 0.72594 0.0
C2216 C 0.18271 0.83072 0.73223 0.0
C2217 C 0.13192 0.79922 0.74294 0.0
C2218 C 0.15479 0.79432 0.75369 0.0
C2219 C 0.20415 0.80476 0.75941 0.0
C2220 C 0.23054 0.82122 0.75479 0.0
C2221 C 0.18061 0.80973 0.74857 0.0
C2222 C 0.23134 0.8424 0.73868 0.0
C2223 C 0.20845 0.84677 0.72762 0.0
H2224 H 0.07973 0.41718 0.45921 0.0
H2225 H 1.02257 0.36326 0.50094 0.0
H2226 H 1.01956 0.40475 0.52489 0.0
H2227 H 0.0325 0.45745 0.53482 0.0
H2228 H 0.08816 0.51169 0.49201 0.0
H2229 H 0.09203 0.47023 0.46862 0.0
C2230 C 0.06664 0.41426 0.4736 0.0
C2231 C 0.05153 0.38593 0.47784 0.0
C2232 C 0.06455 0.43897 0.48754 0.0
C2233 C 0.03465 0.38391 0.49673 0.0
C2234 C 0.03286 0.40803 0.51066 0.0
C2235 C 0.04559 0.46049 0.52043 0.0
C2236 C 0.06011 0.48885 0.51585 0.0
C2237 C 0.04761 0.43588 0.50638 0.0
C2238 C 0.07663 0.49101 0.49661 0.0
C2239 C 0.0789 0.46689 0.48299 0.0
H2240 H 0.48488 0.31657 0.23764 0.0
H2241 H 0.4716 0.22832 0.2421 0.0
H2242 H 0.42951 0.22266 0.25799 0.0
H2243 H 0.39415 0.24199 0.27135 0.0
H2244 H 0.40932 0.33107 0.27009 0.0
H2245 H 0.45075 0.33636 0.25315 0.0
C2246 C 0.47305 0.2959 0.24201 0.0
C2247 C 0.48302 0.27286 0.23787 0.0
C2248 C 0.44803 0.29267 0.25221 0.0
C2249 C 0.46595 0.24682 0.2445 0.0
C2250 C 0.44123 0.24347 0.25381 0.0
C2251 C 0.40632 0.26279 0.26759 0.0
C2252 C 0.39691 0.28612 0.27268 0.0
C2253 C 0.43163 0.26611 0.25791 0.0
C2254 C 0.41455 0.31236 0.26707 0.0
C2255 C 0.43887 0.3155 0.25706 0.0
H2256 H 0.67971 0.58114 0.44774 0.0
H2257 H 0.61956 0.50311 0.41683 0.0
H2258 H 0.60094 0.49849 0.4568 0.0
H2259 H 0.59841 0.52074 0.49826 0.0
H2260 H 0.65953 0.59834 0.52918 0.0
H2261 H 0.68152 0.59903 0.49151 0.0
C2262 C 0.66302 0.56272 0.45014 0.0
C2263 C 0.65084 0.54249 0.42974 0.0
C2264 C 0.65246 0.56046 0.47291 0.0
C2265 C 0.62924 0.5187 0.43261 0.0
C2266 C 0.61849 0.51627 0.45529 0.0
C2267 C 0.61672 0.53756 0.49678 0.0
C2268 C 0.62713 0.55978 0.51603 0.0
C2269 C 0.62934 0.53766 0.4752 0.0
C2270 C 0.65113 0.58116 0.51438 0.0
C2271 C 0.66365 0.5816 0.49288 0.0
H2272 H 0.28995 0.85109 0.06175 0.0
H2273 H 0.29374 0.92843 0.1041 0.0
H2274 H 0.30281 0.90993 0.14276 0.0
H2275 H 0.31682 0.87563 0.16341 0.0
H2276 H 0.31077 0.79678 0.12208 0.0
H2277 H 0.29663 0.81287 0.08386 0.0
C2278 C 0.29196 0.86359 0.07946 0.0
C2279 C 0.2917 0.89135 0.07995 0.0
C2280 C 0.29783 0.8531 0.10168 0.0
C2281 C 0.29416 0.90713 0.10313 0.0
C2282 C 0.29963 0.89669 0.12526 0.0
C2283 C 0.31169 0.86137 0.14635 0.0
C2284 C 0.31535 0.83508 0.14586 0.0
C2285 C 0.30269 0.87027 0.1246 0.0
C2286 C 0.30907 0.81751 0.12311 0.0
C2287 C 0.30057 0.82651 0.10122 0.0
H2288 H 0.05867 0.60339 0.89564 0.0
H2289 H 0.99376 0.61828 0.92744 0.0
H2290 H 1.01091 0.6116 0.96865 0.0
H2291 H 0.03894 0.59208 0.99339 0.0
H2292 H 0.10264 0.5749 0.96176 0.0
H2293 H 0.0915 0.59207 0.92252 0.0
C2294 C 0.04868 0.60601 0.91169 0.0
C2295 C 0.02459 0.61053 0.90841 0.0
C2296 C 0.05811 0.60107 0.93515 0.0
C2297 C 1.01212 0.61435 0.92942 0.0
C2298 C 1.02179 0.61031 0.95296 0.0
C2299 C 0.05055 0.59253 0.97795 0.0
C2300 C 0.07102 0.58168 0.97983 0.0
C2301 C 0.04383 0.60204 0.95567 0.0
C2302 C 0.08658 0.58295 0.9603 0.0
C2303 C 0.08016 0.59266 0.93797 0.0
H2304 H 0.29663 0.27705 0.62753 0.0
H2305 H 0.36849 0.25907 0.63075 0.0
H2306 H 0.37459 0.2689 0.67617 0.0
H2307 H 0.35841 0.27965 0.71617 0.0
H2308 H 0.28669 0.29803 0.71344 0.0
H2309 H 0.28188 0.29108 0.66782 0.0
C2310 C 0.31408 0.27619 0.63804 0.0
C2311 C 0.33243 0.26791 0.62502 0.0
C2312 C 0.31732 0.28141 0.66484 0.0
C2313 C 0.35427 0.26593 0.63968 0.0
C2314 C 0.35766 0.27128 0.66595 0.0
C2315 C 0.3417 0.28224 0.70572 0.0
C2316 C 0.32289 0.28928 0.71899 0.0
C2317 C 0.3391 0.27848 0.67895 0.0
C2318 C 0.30162 0.29263 0.70439 0.0
C2319 C 0.29881 0.28865 0.67799 0.0
H2320 H 0.60928 0.50059 0.27979 0.0
H2321 H 0.60275 0.57585 0.31715 0.0
H2322 H 0.57715 0.58153 0.28009 0.0
H2323 H 0.56618 0.57132 0.23473 0.0
H2324 H 0.57293 0.49621 0.19717 0.0
H2325 H 0.58886 0.48423 0.23676 0.0
C2326 C 0.60158 0.51775 0.28005 0.0
C2327 C 0.60852 0.53822 0.30082 0.0
C2328 C 0.58748 0.5213 0.25849 0.0
C2329 C 0.59794 0.55999 0.30123 0.0
C2330 C 0.58349 0.56341 0.27995 0.0
C2331 C 0.57019 0.55179 0.23527 0.0
C2332 C 0.56928 0.53522 0.21293 0.0
C2333 C 0.57955 0.54515 0.25805 0.0
C2334 C 0.57441 0.50987 0.21404 0.0
C2335 C 0.58343 0.50294 0.23666 0.0
H2336 H 0.27738 0.85188 0.93995 0.0
H2337 H 0.31766 0.93976 0.93288 0.0
H2338 H 0.31884 0.9285 0.88813 0.0
H2339 H 0.31259 0.89244 0.85215 0.0
H2340 H 0.27057 0.8049 0.86011 0.0
H2341 H 0.26584 0.81723 0.90328 0.0
C2342 C 0.28592 0.8686 0.92846 0.0
C2343 C 0.2976 0.89647 0.93952 0.0
C2344 C 0.28656 0.86197 0.90299 0.0
C2345 C 0.30843 0.91811 0.92458 0.0
C2346 C 0.30935 0.91164 0.89911 0.0
C2347 C 0.30224 0.8762 0.86336 0.0
C2348 C 0.29231 0.8478 0.85309 0.0
C2349 C 0.2992 0.88347 0.88828 0.0
C2350 C 0.27849 0.82694 0.86759 0.0
C2351 C 0.27579 0.83392 0.89233 0.0
H2352 H 0.9305 0.54871 0.76692 0.0
H2353 H 0.99162 0.63053 0.77572 0.0
H2354 H 1.00068 0.62311 0.73271 0.0
H2355 H 0.99662 0.59002 0.69592 0.0
H2356 H 0.93875 0.50632 0.68898 0.0
H2357 H 0.92291 0.51773 0.72804 0.0
C2358 C 0.94526 0.56528 0.75918 0.0
C2359 C 0.96055 0.59003 0.77446 0.0
C2360 C 0.95127 0.56022 0.73499 0.0
C2361 C 0.97974 0.61123 0.76429 0.0
C2362 C 0.98503 0.60691 0.73979 0.0
C2363 C 0.98005 0.57457 0.70263 0.0
C2364 C 0.96892 0.54734 0.68982 0.0
C2365 C 0.97176 0.58096 0.72544 0.0
C2366 C 0.94773 0.52732 0.69878 0.0
C2367 C 0.93871 0.53385 0.72105 0.0
H2368 H 0.31953 0.22642 0.45479 0.0
H2369 H 0.32548 0.31183 0.47803 0.0
H2370 H 0.32912 0.32338 0.43497 0.0
H2371 H 0.32957 0.30939 0.38971 0.0
H2372 H 0.31928 0.22291 0.3656 0.0
H2373 H 0.31843 0.21197 0.40905 0.0
C2374 C 0.32188 0.24768 0.45055 0.0
C2375 C 0.32258 0.26828 0.47036 0.0
C2376 C 0.3231 0.25409 0.42511 0.0
C2377 C 0.32503 0.29544 0.46376 0.0
C2378 C 0.32709 0.3021 0.43888 0.0
C2379 C 0.32735 0.28814 0.39386 0.0
C2380 C 0.32485 0.26717 0.37376 0.0
C2381 C 0.32603 0.28165 0.41923 0.0
C2382 C 0.32142 0.2397 0.38014 0.0
C2383 C 0.32091 0.23338 0.40524 0.0
H2384 H 0.37284 0.61489 0.55573 0.0
H2385 H 0.34621 0.56105 0.61358 0.0
H2386 H 0.37468 0.53478 0.60295 0.0
H2387 H 0.40801 0.52783 0.57818 0.0
H2388 H 0.43664 0.58318 0.52185 0.0
H2389 H 0.40601 0.60746 0.53045 0.0
C2390 C 0.37319 0.59734 0.56593 0.0
C2391 C 0.35747 0.59007 0.58549 0.0
C2392 C 0.38984 0.5824 0.55988 0.0
C2393 C 0.35819 0.56724 0.59852 0.0
C2394 C 0.37444 0.55214 0.59244 0.0
C2395 C 0.40768 0.54528 0.56782 0.0
C2396 C 0.42473 0.5536 0.54941 0.0
C2397 C 0.39053 0.55969 0.57332 0.0
C2398 C 0.42354 0.57594 0.53587 0.0
C2399 C 0.40618 0.59008 0.54095 0.0
H2400 H 0.89787 0.9729 0.56696 0.0
H2401 H 0.91857 0.90027 0.54437 0.0
H2402 H 0.96073 0.93127 0.53407 0.0
H2403 H 0.992 0.97895 0.53158 0.0
H2404 H 0.97183 0.05167 0.55485 0.0
H2405 H 0.92923 0.02069 0.56448 0.0
C2406 C 0.91159 0.96376 0.55986 0.0
C2407 C 0.90486 0.9341 0.55656 0.0
C2408 C 0.93592 0.98178 0.55388 0.0
C2409 C 0.92306 0.92289 0.54724 0.0
C2410 C 0.94723 0.94065 0.54124 0.0
C2411 C 0.97822 0.9881 0.53852 0.0
C2412 C 0.98518 0.01775 0.54228 0.0
C2413 C 0.95386 0.97012 0.54441 0.0
C2414 C 0.96707 0.02904 0.55164 0.0
C2415 C 0.94269 1.01128 0.55724 0.0
H2416 H 0.89176 0.09647 0.28285 0.0
H2417 H 0.84701 0.0934 0.2123 0.0
H2418 H 0.81994 0.1157 0.2332 0.0
H2419 H 0.80965 0.13679 0.27108 0.0
H2420 H 0.85436 0.14102 0.34175 0.0
H2421 H 0.88071 0.11696 0.32124 0.0
C2422 C 0.87618 0.10085 0.27206 0.0
C2423 C 0.87143 0.09346 0.24609 0.0
C2424 C 0.86051 0.11338 0.28422 0.0
C2425 C 0.85104 0.09895 0.23233 0.0
C2426 C 0.8355 0.11157 0.24425 0.0
C2427 C 0.82471 0.13178 0.2821 0.0
C2428 C 0.82985 0.1401 0.30789 0.0
C2429 C 0.84001 0.11873 0.27015 0.0
C2430 C 0.84998 0.13443 0.32188 0.0
C2431 C 0.8651 0.12092 0.31015 0.0
H2432 H 0.74689 0.10735 0.0537 0.0
H2433 H 0.74376 0.16334 0.11652 0.0
H2434 H 0.69586 0.14287 0.11158 0.0
H2435 H 0.65523 0.10812 0.0902 0.0
H2436 H 0.6576 0.05482 0.02514 0.0
H2437 H 0.70567 0.07537 0.02983 0.0
C2438 C 0.7356 0.11498 0.06623 0.0
C2439 C 0.74853 0.13644 0.08562 0.0
C2440 C 0.70815 0.10372 0.06279 0.0
C2441 C 0.73398 0.14673 0.10152 0.0
C2442 C 0.70671 0.13505 0.09872 0.0
C2443 C 0.66635 0.10116 0.07702 0.0
C2444 C 0.65326 0.07991 0.05756 0.0
C2445 C 0.69366 0.11342 0.07955 0.0
C2446 C 0.66754 0.07124 0.04024 0.0
C2447 C 0.6949 0.08285 0.043 0.0
H2448 H 0.23547 0.49835 0.2918 0.0
H2449 H 0.24042 0.47522 0.21433 0.0
H2450 H 0.27233 0.45325 0.22658 0.0
H2451 H 0.29707 0.43864 0.25908 0.0
H2452 H 0.29263 0.46104 0.33661 0.0
H2453 H 0.26276 0.48614 0.32464 0.0
C2454 C 0.24349 0.48839 0.27766 0.0
C2455 C 0.23542 0.48803 0.25224 0.0
C2456 C 0.2621 0.47608 0.28483 0.0
C2457 C 0.24626 0.47558 0.23403 0.0
C2458 C 0.26454 0.4631 0.24099 0.0
C2459 C 0.28976 0.44936 0.2733 0.0
C2460 C 0.29669 0.44802 0.29858 0.0
C2461 C 0.2724 0.46306 0.26628 0.0
C2462 C 0.28751 0.46207 0.317 0.0
C2463 C 0.27028 0.47609 0.31016 0.0
H2464 H 0.2855 0.4519 0.09843 0.0
H2465 H 0.26246 0.40443 0.0256 0.0
H2466 H 0.22957 0.42656 0.01693 0.0
H2467 H 0.20754 0.45997 0.02989 0.0
H2468 H 0.23056 0.50678 0.10304 0.0
H2469 H 0.26289 0.48417 0.11173 0.0
C2470 C 0.27329 0.44634 0.08064 0.0
C2471 C 0.27662 0.42655 0.06267 0.0
C2472 C 0.25425 0.45901 0.07584 0.0
C2473 C 0.26041 0.41955 0.0398 0.0
C2474 C 0.24158 0.43225 0.03481 0.0
C2475 C 0.21968 0.46528 0.04771 0.0
C2476 C 0.21646 0.48509 0.06578 0.0
C2477 C 0.23837 0.45211 0.05265 0.0
C2478 C 0.23224 0.49139 0.08888 0.0
C2479 C 0.25092 0.47858 0.09383 0.0
H2480 H 0.91491 0.97665 0.27921 0.0
H2481 H 0.85662 0.96122 0.21563 0.0
H2482 H 0.83047 0.91713 0.23047 0.0
H2483 H 0.82396 0.8835 0.26168 0.0
H2484 H 0.88242 0.89874 0.32501 0.0
H2485 H 0.90862 0.94285 0.31016 0.0
C2486 C 0.89658 0.96359 0.26845 0.0
C2487 C 0.88774 0.97222 0.24633 0.0
C2488 C 0.88154 0.9385 0.2772 0.0
C2489 C 0.8639 0.95504 0.2327 0.0
C2490 C 0.84887 0.92991 0.24123 0.0
C2491 C 0.8423 0.8966 0.27239 0.0
C2492 C 0.85118 0.88803 0.2945 0.0
C2493 C 0.85741 0.92161 0.26356 0.0
C2494 C 0.87515 0.905 0.30798 0.0
C2495 C 0.89017 0.93012 0.29946 0.0
H2496 H 0.75875 0.13054 0.76825 0.0
H2497 H 0.69003 0.14675 0.78929 0.0
H2498 H 0.71607 0.19676 0.80014 0.0
H2499 H 0.75846 0.2357 0.80361 0.0
H2500 H 0.82672 0.21844 0.78241 0.0
H2501 H 0.80059 0.16881 0.7718 0.0
C2502 C 0.74935 0.14495 0.77513 0.0
C2503 C 0.72249 0.13495 0.77791 0.0
C2504 C 0.76436 0.17344 0.78141 0.0
C2505 C 0.7107 0.15395 0.78693 0.0
C2506 C 0.72557 0.18251 0.79319 0.0
C2507 C 0.76762 0.22105 0.79676 0.0
C2508 C 0.79447 0.23078 0.79377 0.0
C2509 C 0.75245 0.19246 0.79055 0.0
C2510 C 0.80606 0.21156 0.78483 0.0
C2511 C 0.79115 0.18315 0.77873 0.0
loop_
_geom_bond_atom_site_label_1
_geom_bond_atom_site_label_2
_geom_bond_distance
_geom_bond_site_symmetry_2
_ccdc_geom_bond_type
O0 Cd1 2.223 . S
O0 C8 1.315 . S
Cd1 O0 2.223 . S
Cd1 O4 2.297 . S
Cd1 O5 2.439 . S
Cd1 O11 2.240 . S
Cd2 O3 2.240 . S
Cd2 O10 2.223 1_455 S
Cd2 O12 2.297 . S
Cd2 O13 2.439 . S
O3 Cd2 2.240 . S
O3 C8 1.279 . S
O4 Cd1 2.297 . S
O4 C6 1.247 . S
O5 Cd1 2.439 . S
O5 C6 1.208 . S
C6 O4 1.247 . S
C6 O5 1.208 . S
C7 O12 1.247 . S
C7 O13 1.208 . S
C8 O0 1.315 . S
C8 O3 1.279 . S
C9 O10 1.315 . S
C9 O11 1.279 1_655 S
O10 Cd2 2.223 1_655 S
O10 C9 1.315 . S
O11 Cd1 2.240 . S
O11 C9 1.279 1_455 S
O12 Cd2 2.297 . S
O12 C7 1.247 . S
O13 Cd2 2.439 . S
O13 C7 1.208 . S
O14 Cd15 2.223 . S
O14 C22 1.315 . S
Cd15 O14 2.223 . S
Cd15 O18 2.297 1_455 S
Cd15 O19 2.439 . S
Cd15 O25 2.240 . S
Cd16 O17 2.240 . S
Cd16 O24 2.223 . S
Cd16 O26 2.297 . S
Cd16 O27 2.439 . S
O17 Cd16 2.240 . S
O17 C22 1.279 . S
O18 Cd15 2.297 1_655 S
O18 C20 1.247 . S
O19 Cd15 2.439 . S
O19 C20 1.208 1_455 S
C20 O18 1.247 . S
C20 O19 1.208 1_655 S
C21 O26 1.247 . S
C21 O27 1.208 . S
C22 O14 1.315 . S
C22 O17 1.279 . S
C23 O24 1.315 . S
C23 O25 1.279 . S
O24 Cd16 2.223 . S
O24 C23 1.315 . S
O25 Cd15 2.240 . S
O25 C23 1.279 . S
O26 Cd16 2.297 . S
O26 C21 1.247 . S
O27 Cd16 2.439 . S
O27 C21 1.208 . S
O28 Cd29 2.223 . S
O28 C36 1.315 . S
Cd29 O28 2.223 . S
Cd29 O32 2.297 . S
Cd29 O33 2.439 . S
Cd29 O39 2.240 . S
Cd30 O31 2.240 . S
Cd30 O38 2.223 . S
Cd30 O40 2.297 . S
Cd30 O41 2.439 . S
O31 Cd30 2.240 . S
O31 C36 1.279 . S
O32 Cd29 2.297 . S
O32 C34 1.247 . S
O33 Cd29 2.439 . S
O33 C34 1.208 . S
C34 O32 1.247 . S
C34 O33 1.208 . S
C35 O40 1.247 . S
C35 O41 1.208 . S
C36 O28 1.315 . S
C36 O31 1.279 . S
C37 O38 1.315 . S
C37 O39 1.279 . S
O38 Cd30 2.223 . S
O38 C37 1.315 . S
O39 Cd29 2.240 . S
O39 C37 1.279 . S
O40 Cd30 2.297 . S
O40 C35 1.247 . S
O41 Cd30 2.439 . S
O41 C35 1.208 . S
O42 Cd43 2.223 . S
O42 C50 1.315 . S
Cd43 O42 2.223 . S
Cd43 O46 2.297 . S
Cd43 O47 2.439 . S
Cd43 O53 2.240 . S
Cd44 O45 2.240 . S
Cd44 O52 2.223 . S
Cd44 O54 2.297 . S
Cd44 O55 2.439 . S
O45 Cd44 2.240 . S
O45 C50 1.279 . S
O46 Cd43 2.297 . S
O46 C48 1.247 . S
O47 Cd43 2.439 . S
O47 C48 1.208 . S
C48 O46 1.247 . S
C48 O47 1.208 . S
C49 O54 1.247 . S
C49 O55 1.208 . S
C50 O42 1.315 . S
C50 O45 1.279 . S
C51 O52 1.315 . S
C51 O53 1.279 . S
O52 Cd44 2.223 . S
O52 C51 1.315 . S
O53 Cd43 2.240 . S
O53 C51 1.279 . S
O54 Cd44 2.297 . S
O54 C49 1.247 . S
O55 Cd44 2.439 . S
O55 C49 1.208 . S
O56 Cd57 2.223 . S
O56 C64 1.315 . S
Cd57 O56 2.223 . S
Cd57 O60 2.297 . S
Cd57 O61 2.439 . S
Cd57 O67 2.240 . S
Cd58 O59 2.240 . S
Cd58 O66 2.223 . S
Cd58 O68 2.297 . S
Cd58 O69 2.439 . S
O59 Cd58 2.240 . S
O59 C64 1.279 . S
O60 Cd57 2.297 . S
O60 C62 1.247 . S
O61 Cd57 2.439 . S
O61 C62 1.208 . S
C62 O60 1.247 . S
C62 O61 1.208 . S
C63 O68 1.247 . S
C63 O69 1.208 . S
C64 O56 1.315 . S
C64 O59 1.279 . S
C65 O66 1.315 . S
C65 O67 1.279 . S
O66 Cd58 2.223 . S
O66 C65 1.315 . S
O67 Cd57 2.240 . S
O67 C65 1.279 . S
O68 Cd58 2.297 . S
O68 C63 1.247 . S
O69 Cd58 2.439 . S
O69 C63 1.208 . S
O70 Cd71 2.223 . S
O70 C78 1.315 . S
Cd71 O70 2.223 . S
Cd71 O74 2.297 . S
Cd71 O75 2.439 . S
Cd71 O81 2.240 . S
Cd72 O73 2.240 . S
Cd72 O80 2.223 . S
Cd72 O82 2.297 . S
Cd72 O83 2.439 . S
O73 Cd72 2.240 . S
O73 C78 1.279 . S
O74 Cd71 2.297 . S
O74 C76 1.247 . S
O75 Cd71 2.439 . S
O75 C76 1.208 . S
C76 O74 1.247 . S
C76 O75 1.208 . S
C77 O82 1.247 . S
C77 O83 1.208 . S
C78 O70 1.315 . S
C78 O73 1.279 . S
C79 O80 1.315 . S
C79 O81 1.279 . S
O80 Cd72 2.223 . S
O80 C79 1.315 . S
O81 Cd71 2.240 . S
O81 C79 1.279 . S
O82 Cd72 2.297 . S
O82 C77 1.247 . S
O83 Cd72 2.439 . S
O83 C77 1.208 . S
O84 Cd85 2.223 . S
O84 C92 1.315 . S
Cd85 O84 2.223 . S
Cd85 O88 2.297 . S
Cd85 O89 2.439 . S
Cd85 O95 2.240 . S
Cd86 O87 2.240 . S
Cd86 O94 2.223 . S
Cd86 O96 2.297 . S
Cd86 O97 2.439 . S
O87 Cd86 2.240 . S
O87 C92 1.279 . S
O88 Cd85 2.297 . S
O88 C90 1.247 . S
O89 Cd85 2.439 . S
O89 C90 1.208 . S
C90 O88 1.247 . S
C90 O89 1.208 . S
C91 O96 1.247 . S
C91 O97 1.208 . S
C92 O84 1.315 . S
C92 O87 1.279 . S
C93 O94 1.315 . S
C93 O95 1.279 . S
O94 Cd86 2.223 . S
O94 C93 1.315 . S
O95 Cd85 2.240 . S
O95 C93 1.279 . S
O96 Cd86 2.297 . S
O96 C91 1.247 . S
O97 Cd86 2.439 . S
O97 C91 1.208 . S
O98 Cd99 2.223 1_655 S
O98 C106 1.315 . S
Cd99 O98 2.223 1_455 S
Cd99 O102 2.297 . S
Cd99 O103 2.439 . S
Cd99 O109 2.240 1_455 S
Cd100 O101 2.240 1_655 S
Cd100 O108 2.223 . S
Cd100 O110 2.297 . S
Cd100 O111 2.439 1_655 S
O101 Cd100 2.240 1_455 S
O101 C106 1.279 1_455 S
O102 Cd99 2.297 . S
O102 C104 1.247 . S
O103 Cd99 2.439 . S
O103 C104 1.208 . S
C104 O102 1.247 . S
C104 O103 1.208 . S
C105 O110 1.247 1_455 S
C105 O111 1.208 . S
C106 O98 1.315 . S
C106 O101 1.279 1_655 S
C107 O108 1.315 . S
C107 O109 1.279 . S
O108 Cd100 2.223 . S
O108 C107 1.315 . S
O109 Cd99 2.240 1_655 S
O109 C107 1.279 . S
O110 Cd100 2.297 . S
O110 C105 1.247 1_655 S
O111 Cd100 2.439 1_455 S
O111 C105 1.208 . S
O112 Cd113 2.223 . S
O112 C120 1.315 . S
Cd113 O112 2.223 . S
Cd113 O116 2.297 . S
Cd113 O117 2.439 . S
Cd113 O123 2.240 . S
Cd114 O115 2.240 . S
Cd114 O122 2.223 1_545 S
Cd114 O124 2.297 . S
Cd114 O125 2.439 . S
O115 Cd114 2.240 . S
O115 C120 1.279 . S
O116 Cd113 2.297 . S
O116 C118 1.247 . S
O117 Cd113 2.439 . S
O117 C118 1.208 . S
C118 O116 1.247 . S
C118 O117 1.208 . S
C119 O124 1.247 . S
C119 O125 1.208 . S
C120 O112 1.315 . S
C120 O115 1.279 . S
C121 O122 1.315 . S
C121 O123 1.279 1_565 S
O122 Cd114 2.223 1_565 S
O122 C121 1.315 . S
O123 Cd113 2.240 . S
O123 C121 1.279 1_545 S
O124 Cd114 2.297 . S
O124 C119 1.247 . S
O125 Cd114 2.439 . S
O125 C119 1.208 . S
O126 Cd127 2.223 . S
O126 C134 1.315 . S
Cd127 O126 2.223 . S
Cd127 O130 2.297 . S
Cd127 O131 2.439 . S
Cd127 O137 2.240 . S
Cd128 O129 2.240 . S
Cd128 O136 2.223 . S
Cd128 O138 2.297 . S
Cd128 O139 2.439 . S
O129 Cd128 2.240 . S
O129 C134 1.279 . S
O130 Cd127 2.297 . S
O130 C132 1.247 . S
O131 Cd127 2.439 . S
O131 C132 1.208 . S
C132 O130 1.247 . S
C132 O131 1.208 . S
C133 O138 1.247 . S
C133 O139 1.208 . S
C134 O126 1.315 . S
C134 O129 1.279 . S
C135 O136 1.315 . S
C135 O137 1.279 . S
O136 Cd128 2.223 . S
O136 C135 1.315 . S
O137 Cd127 2.240 . S
O137 C135 1.279 . S
O138 Cd128 2.297 . S
O138 C133 1.247 . S
O139 Cd128 2.439 . S
O139 C133 1.208 . S
O140 Cd141 2.223 . S
O140 C148 1.315 . S
Cd141 O140 2.223 . S
Cd141 O144 2.297 . S
Cd141 O145 2.439 . S
Cd141 O151 2.240 . S
Cd142 O143 2.240 . S
Cd142 O150 2.223 . S
Cd142 O152 2.297 . S
Cd142 O153 2.439 . S
O143 Cd142 2.240 . S
O143 C148 1.279 . S
O144 Cd141 2.297 . S
O144 C146 1.247 . S
O145 Cd141 2.439 . S
O145 C146 1.208 . S
C146 O144 1.247 . S
C146 O145 1.208 . S
C147 O152 1.247 . S
C147 O153 1.208 . S
C148 O140 1.315 . S
C148 O143 1.279 . S
C149 O150 1.315 . S
C149 O151 1.279 . S
O150 Cd142 2.223 . S
O150 C149 1.315 . S
O151 Cd141 2.240 . S
O151 C149 1.279 . S
O152 Cd142 2.297 . S
O152 C147 1.247 . S
O153 Cd142 2.439 . S
O153 C147 1.208 . S
O154 Cd155 2.223 . S
O154 C162 1.315 . S
Cd155 O154 2.223 . S
Cd155 O158 2.297 . S
Cd155 O159 2.439 1_554 S
Cd155 O165 2.240 1_554 S
Cd156 O157 2.240 1_556 S
Cd156 O164 2.223 1_556 S
Cd156 O166 2.297 . S
Cd156 O167 2.439 . S
O157 Cd156 2.240 1_554 S
O157 C162 1.279 . S
O158 Cd155 2.297 . S
O158 C160 1.247 . S
O159 Cd155 2.439 1_556 S
O159 C160 1.208 1_556 S
C160 O158 1.247 . S
C160 O159 1.208 1_554 S
C161 O166 1.247 . S
C161 O167 1.208 . S
C162 O154 1.315 . S
C162 O157 1.279 . S
C163 O164 1.315 . S
C163 O165 1.279 1_554 S
O164 Cd156 2.223 1_554 S
O164 C163 1.315 . S
O165 Cd155 2.240 1_556 S
O165 C163 1.279 1_556 S
O166 Cd156 2.297 . S
O166 C161 1.247 . S
O167 Cd156 2.439 . S
O167 C161 1.208 . S
O168 Cd169 2.223 . S
O168 C176 1.315 . S
Cd169 O168 2.223 . S
Cd169 O172 2.297 . S
Cd169 O173 2.439 . S
Cd169 O179 2.240 . S
Cd170 O171 2.240 . S
Cd170 O178 2.223 . S
Cd170 O180 2.297 1_554 S
Cd170 O181 2.439 1_554 S
O171 Cd170 2.240 . S
O171 C176 1.279 . S
O172 Cd169 2.297 . S
O172 C174 1.247 . S
O173 Cd169 2.439 . S
O173 C174 1.208 . S
C174 O172 1.247 . S
C174 O173 1.208 . S
C175 O180 1.247 . S
C175 O181 1.208 . S
C176 O168 1.315 . S
C176 O171 1.279 . S
C177 O178 1.315 . S
C177 O179 1.279 . S
O178 Cd170 2.223 . S
O178 C177 1.315 . S
O179 Cd169 2.240 . S
O179 C177 1.279 . S
O180 Cd170 2.297 1_556 S
O180 C175 1.247 . S
O181 Cd170 2.439 1_556 S
O181 C175 1.208 . S
O182 Cd183 2.223 . S
O182 C190 1.315 . S
Cd183 O182 2.223 . S
Cd183 O186 2.297 . S
Cd183 O187 2.439 . S
Cd183 O193 2.240 . S
Cd184 O185 2.240 . S
Cd184 O192 2.223 . S
Cd184 O194 2.297 . S
Cd184 O195 2.439 . S
O185 Cd184 2.240 . S
O185 C190 1.279 . S
O186 Cd183 2.297 . S
O186 C188 1.247 . S
O187 Cd183 2.439 . S
O187 C188 1.208 . S
C188 O186 1.247 . S
C188 O187 1.208 . S
C189 O194 1.247 . S
C189 O195 1.208 . S
C190 O182 1.315 . S
C190 O185 1.279 . S
C191 O192 1.315 . S
C191 O193 1.279 . S
O192 Cd184 2.223 . S
O192 C191 1.315 . S
O193 Cd183 2.240 . S
O193 C191 1.279 . S
O194 Cd184 2.297 . S
O194 C189 1.247 . S
O195 Cd184 2.439 . S
O195 C189 1.208 . S
O196 Cd197 2.223 . S
O196 C204 1.315 . S
Cd197 O196 2.223 . S
Cd197 O200 2.297 . S
Cd197 O201 2.439 . S
Cd197 O207 2.240 . S
Cd198 O199 2.240 . S
Cd198 O206 2.223 . S
Cd198 O208 2.297 . S
Cd198 O209 2.439 . S
O199 Cd198 2.240 . S
O199 C204 1.279 . S
O200 Cd197 2.297 . S
O200 C202 1.247 . S
O201 Cd197 2.439 . S
O201 C202 1.208 . S
C202 O200 1.247 . S
C202 O201 1.208 . S
C203 O208 1.247 . S
C203 O209 1.208 . S
C204 O196 1.315 . S
C204 O199 1.279 . S
C205 O206 1.315 . S
C205 O207 1.279 . S
O206 Cd198 2.223 . S
O206 C205 1.315 . S
O207 Cd197 2.240 . S
O207 C205 1.279 . S
O208 Cd198 2.297 . S
O208 C203 1.247 . S
O209 Cd198 2.439 . S
O209 C203 1.208 . S
O210 Cd211 2.223 . S
O210 C218 1.315 . S
Cd211 O210 2.223 . S
Cd211 O214 2.297 . S
Cd211 O215 2.439 . S
Cd211 O221 2.240 . S
Cd212 O213 2.240 . S
Cd212 O220 2.223 . S
Cd212 O222 2.297 . S
Cd212 O223 2.439 . S
O213 Cd212 2.240 . S
O213 C218 1.279 . S
O214 Cd211 2.297 . S
O214 C216 1.247 . S
O215 Cd211 2.439 . S
O215 C216 1.208 . S
C216 O214 1.247 . S
C216 O215 1.208 . S
C217 O222 1.247 . S
C217 O223 1.208 . S
C218 O210 1.315 . S
C218 O213 1.279 . S
C219 O220 1.315 . S
C219 O221 1.279 . S
O220 Cd212 2.223 . S
O220 C219 1.315 . S
O221 Cd211 2.240 . S
O221 C219 1.279 . S
O222 Cd212 2.297 . S
O222 C217 1.247 . S
O223 Cd212 2.439 . S
O223 C217 1.208 . S
O224 Cd225 2.223 . S
O224 C232 1.316 1_565 S
Cd225 O224 2.223 . S
Cd225 O228 2.297 1_565 S
Cd225 O229 2.438 1_565 S
Cd225 O235 2.240 . S
Cd226 O227 2.240 1_565 S
Cd226 O234 2.223 . S
Cd226 O236 2.297 . S
Cd226 O237 2.439 1_565 S
O227 Cd226 2.240 1_545 S
O227 C232 1.284 . S
O228 Cd225 2.297 1_545 S
O228 C230 1.247 . S
O229 Cd225 2.438 1_545 S
O229 C230 1.208 . S
C230 O228 1.247 . S
C230 O229 1.208 . S
C231 O236 1.247 1_545 S
C231 O237 1.208 . S
C232 O224 1.316 1_545 S
C232 O227 1.284 . S
C233 O234 1.315 . S
C233 O235 1.279 . S
O234 Cd226 2.223 . S
O234 C233 1.315 . S
O235 Cd225 2.240 . S
O235 C233 1.279 . S
O236 Cd226 2.297 . S
O236 C231 1.247 1_565 S
O237 Cd226 2.439 1_545 S
O237 C231 1.208 . S
O238 Cd239 2.223 . S
O238 C246 1.315 . S
Cd239 O238 2.223 . S
Cd239 O242 2.297 . S
Cd239 O243 2.439 . S
Cd239 O249 2.240 . S
Cd240 O241 2.240 . S
Cd240 O248 2.223 . S
Cd240 O250 2.297 . S
Cd240 O251 2.439 . S
O241 Cd240 2.240 . S
O241 C246 1.279 . S
O242 Cd239 2.297 . S
O242 C244 1.247 . S
O243 Cd239 2.439 . S
O243 C244 1.208 . S
C244 O242 1.247 . S
C244 O243 1.208 . S
C245 O250 1.247 . S
C245 O251 1.208 . S
C246 O238 1.315 . S
C246 O241 1.279 . S
C247 O248 1.315 . S
C247 O249 1.279 . S
O248 Cd240 2.223 . S
O248 C247 1.315 . S
O249 Cd239 2.240 . S
O249 C247 1.279 . S
O250 Cd240 2.297 . S
O250 C245 1.247 . S
O251 Cd240 2.439 . S
O251 C245 1.208 . S
O252 Cd253 2.223 . S
O252 C260 1.315 . S
Cd253 O252 2.223 . S
Cd253 O256 2.297 . S
Cd253 O257 2.439 . S
Cd253 O263 2.240 . S
Cd254 O255 2.240 . S
Cd254 O262 2.223 . S
Cd254 O264 2.297 . S
Cd254 O265 2.439 . S
O255 Cd254 2.240 . S
O255 C260 1.279 . S
O256 Cd253 2.297 . S
O256 C258 1.247 . S
O257 Cd253 2.439 . S
O257 C258 1.208 . S
C258 O256 1.247 . S
C258 O257 1.208 . S
C259 O264 1.247 . S
C259 O265 1.208 . S
C260 O252 1.315 . S
C260 O255 1.279 . S
C261 O262 1.315 . S
C261 O263 1.279 . S
O262 Cd254 2.223 . S
O262 C261 1.315 . S
O263 Cd253 2.240 . S
O263 C261 1.279 . S
O264 Cd254 2.297 . S
O264 C259 1.247 . S
O265 Cd254 2.439 . S
O265 C259 1.208 . S
O266 Cd267 2.223 . S
O266 C274 1.315 . S
Cd267 O266 2.223 . S
Cd267 O270 2.297 . S
Cd267 O271 2.439 . S
Cd267 O277 2.240 . S
Cd268 O269 2.240 . S
Cd268 O276 2.223 . S
Cd268 O278 2.297 . S
Cd268 O279 2.439 . S
O269 Cd268 2.240 . S
O269 C274 1.279 . S
O270 Cd267 2.297 . S
O270 C272 1.247 . S
O271 Cd267 2.439 . S
O271 C272 1.208 . S
C272 O270 1.247 . S
C272 O271 1.208 . S
C273 O278 1.247 . S
C273 O279 1.208 . S
C274 O266 1.315 . S
C274 O269 1.279 . S
C275 O276 1.315 . S
C275 O277 1.279 . S
O276 Cd268 2.223 . S
O276 C275 1.315 . S
O277 Cd267 2.240 . S
O277 C275 1.279 . S
O278 Cd268 2.297 . S
O278 C273 1.247 . S
O279 Cd268 2.439 . S
O279 C273 1.208 . S
O280 Cd281 2.223 . S
O280 C288 1.315 . S
Cd281 O280 2.223 . S
Cd281 O284 2.297 . S
Cd281 O285 2.439 . S
Cd281 O291 2.240 . S
Cd282 O283 2.240 . S
Cd282 O290 2.223 . S
Cd282 O292 2.273 1_554 S
Cd282 O293 2.439 . S
O283 Cd282 2.240 . S
O283 C288 1.279 . S
O284 Cd281 2.297 . S
O284 C286 1.247 . S
O285 Cd281 2.439 . S
O285 C286 1.208 . S
C286 O284 1.247 . S
C286 O285 1.208 . S
C287 O292 1.259 . S
C287 O293 1.208 1_556 S
C288 O280 1.315 . S
C288 O283 1.279 . S
C289 O290 1.315 . S
C289 O291 1.279 . S
O290 Cd282 2.223 . S
O290 C289 1.315 . S
O291 Cd281 2.240 . S
O291 C289 1.279 . S
O292 Cd282 2.273 1_556 S
O292 C287 1.259 . S
O293 Cd282 2.439 . S
O293 C287 1.208 1_554 S
O294 Cd295 2.223 . S
O294 C302 1.315 . S
Cd295 O294 2.223 . S
Cd295 O298 2.297 . S
Cd295 O299 2.439 . S
Cd295 O305 2.240 . S
Cd296 O297 2.240 . S
Cd296 O304 2.223 . S
Cd296 O306 2.297 . S
Cd296 O307 2.439 . S
O297 Cd296 2.240 . S
O297 C302 1.279 . S
O298 Cd295 2.297 . S
O298 C300 1.247 . S
O299 Cd295 2.439 . S
O299 C300 1.208 . S
C300 O298 1.247 . S
C300 O299 1.208 . S
C301 O306 1.247 . S
C301 O307 1.208 . S
C302 O294 1.315 . S
C302 O297 1.279 . S
C303 O304 1.315 . S
C303 O305 1.279 . S
O304 Cd296 2.223 . S
O304 C303 1.315 . S
O305 Cd295 2.240 . S
O305 C303 1.279 . S
O306 Cd296 2.297 . S
O306 C301 1.247 . S
O307 Cd296 2.439 . S
O307 C301 1.208 . S
O308 Cd309 2.223 . S
O308 C316 1.315 . S
Cd309 O308 2.223 . S
Cd309 O312 2.297 . S
Cd309 O313 2.439 . S
Cd309 O319 2.240 . S
Cd310 O311 2.240 . S
Cd310 O318 2.223 . S
Cd310 O320 2.297 . S
Cd310 O321 2.439 . S
O311 Cd310 2.240 . S
O311 C316 1.279 . S
O312 Cd309 2.297 . S
O312 C314 1.247 . S
O313 Cd309 2.439 . S
O313 C314 1.208 . S
C314 O312 1.247 . S
C314 O313 1.208 . S
C315 O320 1.247 . S
C315 O321 1.208 . S
C316 O308 1.315 . S
C316 O311 1.279 . S
C317 O318 1.315 . S
C317 O319 1.279 . S
O318 Cd310 2.223 . S
O318 C317 1.315 . S
O319 Cd309 2.240 . S
O319 C317 1.279 . S
O320 Cd310 2.297 . S
O320 C315 1.247 . S
O321 Cd310 2.439 . S
O321 C315 1.208 . S
O322 Cd323 2.223 . S
O322 C330 1.315 . S
Cd323 O322 2.223 . S
Cd323 O326 2.297 . S
Cd323 O327 2.439 . S
Cd323 O333 2.240 . S
Cd324 O325 2.240 . S
Cd324 O332 2.223 . S
Cd324 O334 2.297 . S
Cd324 O335 2.439 . S
O325 Cd324 2.240 . S
O325 C330 1.279 . S
O326 Cd323 2.297 . S
O326 C328 1.247 . S
O327 Cd323 2.439 . S
O327 C328 1.208 . S
C328 O326 1.247 . S
C328 O327 1.208 . S
C329 O334 1.247 . S
C329 O335 1.208 . S
C330 O322 1.315 . S
C330 O325 1.279 . S
C331 O332 1.315 . S
C331 O333 1.279 . S
O332 Cd324 2.223 . S
O332 C331 1.315 . S
O333 Cd323 2.240 . S
O333 C331 1.279 . S
O334 Cd324 2.297 . S
O334 C329 1.247 . S
O335 Cd324 2.439 . S
O335 C329 1.208 . S
Tb336 C345 2.764 . S
Tb336 O346 2.325 . S
Tb336 O349 2.303 . S
Tb336 O353 2.322 . S
Tb336 O354 2.349 . S
Tb336 O357 2.415 . S
Tb336 O358 2.399 . S
Tb337 O347 2.322 . S
Tb337 O348 2.349 . S
Tb337 O350 2.415 1_455 S
Tb337 O351 2.399 1_455 S
Tb337 O352 2.325 . S
Tb337 O355 2.303 . S
Tb337 C366 2.764 1_455 S
C338 O354 1.261 . S
C338 O355 1.257 . S
C339 C342 1.358 . S
C339 C343 1.332 . S
C339 C345 1.504 . S
C340 C341 1.373 . S
C340 C344 1.308 . S
C341 C340 1.373 . S
C341 C342 1.429 . S
C341 H368 0.932 . S
C342 C339 1.358 . S
C342 C341 1.429 . S
C342 H369 0.930 . S
C343 C339 1.332 . S
C343 C344 1.394 . S
C343 H370 0.932 . S
C344 C340 1.308 . S
C344 C343 1.394 . S
C344 H371 0.929 . S
C345 Tb336 2.764 . S
C345 C339 1.504 . S
C345 O357 1.239 . S
C345 O358 1.263 . S
O346 Tb336 2.325 . S
O346 C356 1.236 . S
O347 Tb337 2.322 . S
O347 C356 1.257 . S
O348 Tb337 2.349 . S
O348 C359 1.261 . S
O349 Tb336 2.303 . S
O349 C359 1.257 . S
O350 Tb337 2.415 1_655 S
O350 C366 1.239 . S
O351 Tb337 2.399 1_655 S
O351 C366 1.263 . S
O352 Tb337 2.325 . S
O352 C367 1.236 . S
O353 Tb336 2.322 . S
O353 C367 1.257 . S
O354 Tb336 2.349 . S
O354 C338 1.261 . S
O355 Tb337 2.303 . S
O355 C338 1.257 . S
C356 O346 1.236 . S
C356 O347 1.257 . S
O357 Tb336 2.415 . S
O357 C345 1.239 . S
O358 Tb336 2.399 . S
O358 C345 1.263 . S
C359 O348 1.261 . S
C359 O349 1.257 . S
C360 C363 1.358 . S
C360 C364 1.332 . S
C360 C366 1.504 . S
C361 C362 1.379 . S
C361 C365 1.308 . S
C362 C361 1.379 . S
C362 C363 1.430 . S
C362 H372 0.926 1_554 S
C363 C360 1.358 . S
C363 C362 1.430 . S
C363 H373 0.930 1_554 S
C364 C360 1.332 . S
C364 C365 1.394 . S
C364 H374 0.932 . S
C365 C361 1.308 . S
C365 C364 1.394 . S
C365 H375 0.929 . S
C366 Tb337 2.764 1_655 S
C366 O350 1.239 . S
C366 O351 1.263 . S
C366 C360 1.504 . S
C367 O352 1.236 . S
C367 O353 1.257 . S
H368 C341 0.932 . S
H369 C342 0.930 . S
H370 C343 0.932 . S
H371 C344 0.929 . S
H372 C362 0.926 1_556 S
H373 C363 0.930 1_556 S
H374 C364 0.932 . S
H375 C365 0.929 . S
Tb376 C385 2.764 . S
Tb376 O386 2.325 . S
Tb376 O389 2.303 . S
Tb376 O393 2.322 . S
Tb376 O394 2.349 . S
Tb376 O397 2.415 . S
Tb376 O398 2.399 . S
Tb377 O387 2.322 . S
Tb377 O388 2.349 . S
Tb377 O390 2.415 . S
Tb377 O391 2.399 . S
Tb377 O392 2.325 . S
Tb377 O395 2.303 . S
Tb377 C406 2.764 . S
C378 O394 1.261 . S
C378 O395 1.257 . S
C379 C382 1.358 . S
C379 C383 1.332 . S
C379 C385 1.504 . S
C380 C381 1.373 . S
C380 C384 1.308 . S
C381 C380 1.373 . S
C381 C382 1.429 . S
C381 H408 0.932 . S
C382 C379 1.358 . S
C382 C381 1.429 . S
C382 H409 0.930 . S
C383 C379 1.332 . S
C383 C384 1.394 . S
C383 H410 0.932 . S
C384 C380 1.308 . S
C384 C383 1.394 . S
C384 H411 0.929 . S
C385 Tb376 2.764 . S
C385 C379 1.504 . S
C385 O397 1.239 . S
C385 O398 1.263 . S
O386 Tb376 2.325 . S
O386 C396 1.236 . S
O387 Tb377 2.322 . S
O387 C396 1.257 . S
O388 Tb377 2.349 . S
O388 C399 1.261 . S
O389 Tb376 2.303 . S
O389 C399 1.257 . S
O390 Tb377 2.415 . S
O390 C406 1.239 . S
O391 Tb377 2.399 . S
O391 C406 1.263 . S
O392 Tb377 2.325 . S
O392 C407 1.236 . S
O393 Tb376 2.322 . S
O393 C407 1.257 . S
O394 Tb376 2.349 . S
O394 C378 1.261 . S
O395 Tb377 2.303 . S
O395 C378 1.257 . S
C396 O386 1.236 . S
C396 O387 1.257 . S
O397 Tb376 2.415 . S
O397 C385 1.239 . S
O398 Tb376 2.399 . S
O398 C385 1.263 . S
C399 O388 1.261 . S
C399 O389 1.257 . S
C400 C403 1.358 . S
C400 C404 1.332 . S
C400 C406 1.504 . S
C401 C402 1.373 . S
C401 C405 1.308 . S
C402 C401 1.373 . S
C402 C403 1.429 . S
C402 H412 0.932 . S
C403 C400 1.358 . S
C403 C402 1.429 . S
C403 H413 0.930 . S
C404 C400 1.332 . S
C404 C405 1.394 . S
C404 H414 0.932 . S
C405 C401 1.308 . S
C405 C404 1.394 . S
C405 H415 0.929 . S
C406 Tb377 2.764 . S
C406 O390 1.239 . S
C406 O391 1.263 . S
C406 C400 1.504 . S
C407 O392 1.236 . S
C407 O393 1.257 . S
H408 C381 0.932 . S
H409 C382 0.930 . S
H410 C383 0.932 . S
H411 C384 0.929 . S
H412 C402 0.932 . S
H413 C403 0.930 . S
H414 C404 0.932 . S
H415 C405 0.929 . S
Tb416 C425 2.764 . S
Tb416 O426 2.325 . S
Tb416 O429 2.303 . S
Tb416 O433 2.322 1_545 S
Tb416 O434 2.349 . S
Tb416 O437 2.415 . S
Tb416 O438 2.399 . S
Tb417 O427 2.322 . S
Tb417 O428 2.349 . S
Tb417 O430 2.415 . S
Tb417 O431 2.399 . S
Tb417 O432 2.325 . S
Tb417 O435 2.303 . S
Tb417 C446 2.764 . S
C418 O434 1.261 . S
C418 O435 1.257 . S
C419 C422 1.358 . S
C419 C423 1.332 . S
C419 C425 1.504 . S
C420 C421 1.373 . S
C420 C424 1.308 . S
C421 C420 1.373 . S
C421 C422 1.429 . S
C421 H448 0.932 . S
C422 C419 1.358 . S
C422 C421 1.429 . S
C422 H449 0.930 . S
C423 C419 1.332 . S
C423 C424 1.394 . S
C423 H450 0.932 . S
C424 C420 1.308 . S
C424 C423 1.394 . S
C424 H451 0.929 . S
C425 Tb416 2.764 . S
C425 C419 1.504 . S
C425 O437 1.239 . S
C425 O438 1.263 . S
O426 Tb416 2.325 . S
O426 C436 1.236 . S
O427 Tb417 2.322 . S
O427 C436 1.257 . S
O428 Tb417 2.349 . S
O428 C439 1.261 . S
O429 Tb416 2.303 . S
O429 C439 1.257 . S
O430 Tb417 2.415 . S
O430 C446 1.239 . S
O431 Tb417 2.399 . S
O431 C446 1.263 . S
O432 Tb417 2.325 . S
O432 C447 1.236 1_545 S
O433 Tb416 2.322 1_565 S
O433 C447 1.257 . S
O434 Tb416 2.349 . S
O434 C418 1.261 . S
O435 Tb417 2.303 . S
O435 C418 1.257 . S
C436 O426 1.236 . S
C436 O427 1.257 . S
O437 Tb416 2.415 . S
O437 C425 1.239 . S
O438 Tb416 2.399 . S
O438 C425 1.263 . S
C439 O428 1.261 . S
C439 O429 1.257 . S
C440 C443 1.358 . S
C440 C444 1.332 1_545 S
C440 C446 1.504 . S
C441 C442 1.373 1_565 S
C441 C445 1.308 . S
C442 C441 1.373 1_545 S
C442 C443 1.429 . S
C442 H452 0.932 . S
C443 C440 1.358 . S
C443 C442 1.429 . S
C443 H453 0.930 . S
C444 C440 1.332 1_565 S
C444 C445 1.394 . S
C444 H454 0.932 . S
C445 C441 1.308 . S
C445 C444 1.394 . S
C445 H455 0.929 . S
C446 Tb417 2.764 . S
C446 O430 1.239 . S
C446 O431 1.263 . S
C446 C440 1.504 . S
C447 O432 1.236 1_565 S
C447 O433 1.257 . S
H448 C421 0.932 . S
H449 C422 0.930 . S
H450 C423 0.932 . S
H451 C424 0.929 . S
H452 C442 0.932 . S
H453 C443 0.930 . S
H454 C444 0.932 . S
H455 C445 0.929 . S
Tb456 C465 2.764 . S
Tb456 O466 2.325 . S
Tb456 O469 2.303 . S
Tb456 O473 2.322 . S
Tb456 O474 2.349 . S
Tb456 O477 2.415 . S
Tb456 O478 2.399 . S
Tb457 O467 2.322 . S
Tb457 O468 2.349 . S
Tb457 O470 2.415 . S
Tb457 O471 2.399 . S
Tb457 O472 2.325 . S
Tb457 O475 2.303 . S
Tb457 C486 2.764 . S
C458 O474 1.261 . S
C458 O475 1.257 . S
C459 C462 1.358 . S
C459 C463 1.332 . S
C459 C465 1.504 . S
C460 C461 1.373 . S
C460 C464 1.308 . S
C461 C460 1.373 . S
C461 C462 1.429 . S
C461 H488 0.932 . S
C462 C459 1.358 . S
C462 C461 1.429 . S
C462 H489 0.930 . S
C463 C459 1.332 . S
C463 C464 1.394 . S
C463 H490 0.932 . S
C464 C460 1.308 . S
C464 C463 1.394 . S
C464 H491 0.929 . S
C465 Tb456 2.764 . S
C465 C459 1.504 . S
C465 O477 1.239 . S
C465 O478 1.263 . S
O466 Tb456 2.325 . S
O466 C476 1.236 . S
O467 Tb457 2.322 . S
O467 C476 1.257 . S
O468 Tb457 2.349 . S
O468 C479 1.261 . S
O469 Tb456 2.303 . S
O469 C479 1.257 . S
O470 Tb457 2.415 . S
O470 C486 1.239 . S
O471 Tb457 2.399 . S
O471 C486 1.263 . S
O472 Tb457 2.325 . S
O472 C487 1.236 . S
O473 Tb456 2.322 . S
O473 C487 1.257 . S
O474 Tb456 2.349 . S
O474 C458 1.261 . S
O475 Tb457 2.303 . S
O475 C458 1.257 . S
C476 O466 1.236 . S
C476 O467 1.257 . S
O477 Tb456 2.415 . S
O477 C465 1.239 . S
O478 Tb456 2.399 . S
O478 C465 1.263 . S
C479 O468 1.261 . S
C479 O469 1.257 . S
C480 C483 1.358 . S
C480 C484 1.332 . S
C480 C486 1.504 . S
C481 C482 1.373 . S
C481 C485 1.308 . S
C482 C481 1.373 . S
C482 C483 1.429 . S
C482 H492 0.932 . S
C483 C480 1.358 . S
C483 C482 1.429 . S
C483 H493 0.930 . S
C484 C480 1.332 . S
C484 C485 1.394 . S
C484 H494 0.932 . S
C485 C481 1.308 . S
C485 C484 1.394 . S
C485 H495 0.929 . S
C486 Tb457 2.764 . S
C486 O470 1.239 . S
C486 O471 1.263 . S
C486 C480 1.504 . S
C487 O472 1.236 . S
C487 O473 1.257 . S
H488 C461 0.932 . S
H489 C462 0.930 . S
H490 C463 0.932 . S
H491 C464 0.929 . S
H492 C482 0.932 . S
H493 C483 0.930 . S
H494 C484 0.932 . S
H495 C485 0.929 . S
Tb496 C505 2.764 . S
Tb496 O506 2.325 . S
Tb496 O509 2.303 . S
Tb496 O513 2.322 . S
Tb496 O514 2.349 . S
Tb496 O517 2.415 . S
Tb496 O518 2.399 . S
Tb497 O507 2.322 . S
Tb497 O508 2.349 . S
Tb497 O510 2.415 . S
Tb497 O511 2.399 . S
Tb497 O512 2.325 . S
Tb497 O515 2.303 . S
Tb497 C526 2.764 . S
C498 O514 1.261 . S
C498 O515 1.257 . S
C499 C502 1.358 . S
C499 C503 1.332 . S
C499 C505 1.504 . S
C500 C501 1.373 . S
C500 C504 1.308 . S
C501 C500 1.373 . S
C501 C502 1.429 . S
C501 H528 0.932 . S
C502 C499 1.358 . S
C502 C501 1.429 . S
C502 H529 0.930 . S
C503 C499 1.332 . S
C503 C504 1.394 . S
C503 H530 0.932 . S
C504 C500 1.308 . S
C504 C503 1.394 . S
C504 H531 0.929 . S
C505 Tb496 2.764 . S
C505 C499 1.504 . S
C505 O517 1.239 . S
C505 O518 1.263 . S
O506 Tb496 2.325 . S
O506 C516 1.236 . S
O507 Tb497 2.322 . S
O507 C516 1.257 . S
O508 Tb497 2.349 . S
O508 C519 1.261 . S
O509 Tb496 2.303 . S
O509 C519 1.257 . S
O510 Tb497 2.415 . S
O510 C526 1.239 . S
O511 Tb497 2.399 . S
O511 C526 1.263 . S
O512 Tb497 2.325 . S
O512 C527 1.236 . S
O513 Tb496 2.322 . S
O513 C527 1.257 . S
O514 Tb496 2.349 . S
O514 C498 1.261 . S
O515 Tb497 2.303 . S
O515 C498 1.257 . S
C516 O506 1.236 . S
C516 O507 1.257 . S
O517 Tb496 2.415 . S
O517 C505 1.239 . S
O518 Tb496 2.399 . S
O518 C505 1.263 . S
C519 O508 1.261 . S
C519 O509 1.257 . S
C520 C523 1.358 . S
C520 C524 1.332 1_455 S
C520 C526 1.504 . S
C521 C522 1.373 . S
C521 C525 1.308 1_455 S
C522 C521 1.373 . S
C522 C523 1.429 . S
C522 H532 0.932 . S
C523 C520 1.358 . S
C523 C522 1.429 . S
C523 H533 0.930 . S
C524 C520 1.332 1_655 S
C524 C525 1.394 . S
C524 H534 0.932 . S
C525 C521 1.308 1_655 S
C525 C524 1.394 . S
C525 H535 0.929 . S
C526 Tb497 2.764 . S
C526 O510 1.239 . S
C526 O511 1.263 . S
C526 C520 1.504 . S
C527 O512 1.236 . S
C527 O513 1.257 . S
H528 C501 0.932 . S
H529 C502 0.930 . S
H530 C503 0.932 . S
H531 C504 0.929 . S
H532 C522 0.932 . S
H533 C523 0.930 . S
H534 C524 0.932 . S
H535 C525 0.929 . S
Tb536 C545 2.764 . S
Tb536 O546 2.325 . S
Tb536 O549 2.303 . S
Tb536 O553 2.322 . S
Tb536 O554 2.349 . S
Tb536 O557 2.415 . S
Tb536 O558 2.399 . S
Tb537 O547 2.322 . S
Tb537 O548 2.349 . S
Tb537 O550 2.415 . S
Tb537 O551 2.399 . S
Tb537 O552 2.325 . S
Tb537 O555 2.303 . S
Tb537 C566 2.764 . S
C538 O554 1.261 . S
C538 O555 1.257 . S
C539 C542 1.358 . S
C539 C543 1.332 . S
C539 C545 1.504 . S
C540 C541 1.373 . S
C540 C544 1.308 . S
C541 C540 1.373 . S
C541 C542 1.429 . S
C541 H568 0.932 . S
C542 C539 1.358 . S
C542 C541 1.429 . S
C542 H569 0.930 . S
C543 C539 1.332 . S
C543 C544 1.394 . S
C543 H570 0.932 . S
C544 C540 1.308 . S
C544 C543 1.394 . S
C544 H571 0.929 . S
C545 Tb536 2.764 . S
C545 C539 1.504 . S
C545 O557 1.239 . S
C545 O558 1.263 . S
O546 Tb536 2.325 . S
O546 C556 1.236 . S
O547 Tb537 2.322 . S
O547 C556 1.257 . S
O548 Tb537 2.349 . S
O548 C559 1.261 . S
O549 Tb536 2.303 . S
O549 C559 1.257 . S
O550 Tb537 2.415 . S
O550 C566 1.239 . S
O551 Tb537 2.399 . S
O551 C566 1.263 . S
O552 Tb537 2.325 . S
O552 C567 1.236 . S
O553 Tb536 2.322 . S
O553 C567 1.257 . S
O554 Tb536 2.349 . S
O554 C538 1.261 . S
O555 Tb537 2.303 . S
O555 C538 1.257 . S
C556 O546 1.236 . S
C556 O547 1.257 . S
O557 Tb536 2.415 . S
O557 C545 1.239 . S
O558 Tb536 2.399 . S
O558 C545 1.263 . S
C559 O548 1.261 . S
C559 O549 1.257 . S
C560 C563 1.358 . S
C560 C564 1.332 . S
C560 C566 1.504 . S
C561 C562 1.373 . S
C561 C565 1.308 . S
C562 C561 1.373 . S
C562 C563 1.429 . S
C562 H572 0.932 . S
C563 C560 1.358 . S
C563 C562 1.429 . S
C563 H573 0.930 . S
C564 C560 1.332 . S
C564 C565 1.394 . S
C564 H574 0.932 . S
C565 C561 1.308 . S
C565 C564 1.394 . S
C565 H575 0.929 . S
C566 Tb537 2.764 . S
C566 O550 1.239 . S
C566 O551 1.263 . S
C566 C560 1.504 . S
C567 O552 1.236 . S
C567 O553 1.257 . S
H568 C541 0.932 . S
H569 C542 0.930 . S
H570 C543 0.932 . S
H571 C544 0.929 . S
H572 C562 0.932 . S
H573 C563 0.930 . S
H574 C564 0.932 . S
H575 C565 0.929 . S
Tb576 C585 2.764 . S
Tb576 O586 2.325 . S
Tb576 O589 2.303 . S
Tb576 O593 2.322 1_545 S
Tb576 O594 2.349 . S
Tb576 O597 2.415 . S
Tb576 O598 2.399 . S
Tb577 O587 2.322 . S
Tb577 O588 2.349 . S
Tb577 O590 2.415 1_554 S
Tb577 O591 2.399 1_554 S
Tb577 O592 2.325 . S
Tb577 O595 2.303 . S
Tb577 C606 2.764 1_554 S
C578 O594 1.261 . S
C578 O595 1.257 . S
C579 C582 1.358 . S
C579 C583 1.332 . S
C579 C585 1.504 . S
C580 C581 1.373 . S
C580 C584 1.308 . S
C581 C580 1.373 . S
C581 C582 1.429 . S
C581 H608 0.932 . S
C582 C579 1.358 . S
C582 C581 1.429 . S
C582 H609 0.930 . S
C583 C579 1.332 . S
C583 C584 1.394 . S
C583 H610 0.932 . S
C584 C580 1.308 . S
C584 C583 1.394 . S
C584 H611 0.929 . S
C585 Tb576 2.764 . S
C585 C579 1.504 . S
C585 O597 1.239 . S
C585 O598 1.263 . S
O586 Tb576 2.325 . S
O586 C596 1.236 . S
O587 Tb577 2.322 . S
O587 C596 1.257 . S
O588 Tb577 2.349 . S
O588 C599 1.261 . S
O589 Tb576 2.303 . S
O589 C599 1.257 . S
O590 Tb577 2.415 1_556 S
O590 C606 1.239 . S
O591 Tb577 2.399 1_556 S
O591 C606 1.263 . S
O592 Tb577 2.325 . S
O592 C607 1.236 1_545 S
O593 Tb576 2.322 1_565 S
O593 C607 1.257 . S
O594 Tb576 2.349 . S
O594 C578 1.261 . S
O595 Tb577 2.303 . S
O595 C578 1.257 . S
C596 O586 1.236 . S
C596 O587 1.257 . S
O597 Tb576 2.415 . S
O597 C585 1.239 . S
O598 Tb576 2.399 . S
O598 C585 1.263 . S
C599 O588 1.261 . S
C599 O589 1.257 . S
C600 C603 1.358 . S
C600 C604 1.332 . S
C600 C606 1.504 . S
C601 C602 1.373 . S
C601 C605 1.308 . S
C602 C601 1.373 . S
C602 C603 1.429 . S
C602 H612 0.932 . S
C603 C600 1.358 . S
C603 C602 1.429 . S
C603 H613 0.930 . S
C604 C600 1.332 . S
C604 C605 1.394 . S
C604 H614 0.932 . S
C605 C601 1.308 . S
C605 C604 1.394 . S
C605 H615 0.929 . S
C606 Tb577 2.764 1_556 S
C606 O590 1.239 . S
C606 O591 1.263 . S
C606 C600 1.504 . S
C607 O592 1.236 1_565 S
C607 O593 1.257 . S
H608 C581 0.932 . S
H609 C582 0.930 . S
H610 C583 0.932 . S
H611 C584 0.929 . S
H612 C602 0.932 . S
H613 C603 0.930 . S
H614 C604 0.932 . S
H615 C605 0.929 . S
Tb616 C625 2.764 . S
Tb616 O626 2.325 . S
Tb616 O629 2.303 . S
Tb616 O633 2.322 . S
Tb616 O634 2.349 . S
Tb616 O637 2.415 . S
Tb616 O638 2.399 . S
Tb617 O627 2.322 . S
Tb617 O628 2.349 . S
Tb617 O630 2.415 . S
Tb617 O631 2.399 . S
Tb617 O632 2.325 . S
Tb617 O635 2.303 . S
Tb617 C646 2.764 . S
C618 O634 1.261 . S
C618 O635 1.257 . S
C619 C622 1.358 . S
C619 C623 1.332 . S
C619 C625 1.504 . S
C620 C621 1.373 . S
C620 C624 1.308 . S
C621 C620 1.373 . S
C621 C622 1.429 . S
C621 H648 0.932 . S
C622 C619 1.358 . S
C622 C621 1.429 . S
C622 H649 0.930 . S
C623 C619 1.332 . S
C623 C624 1.394 . S
C623 H650 0.932 . S
C624 C620 1.308 . S
C624 C623 1.394 . S
C624 H651 0.929 . S
C625 Tb616 2.764 . S
C625 C619 1.504 . S
C625 O637 1.239 . S
C625 O638 1.263 . S
O626 Tb616 2.325 . S
O626 C636 1.236 . S
O627 Tb617 2.322 . S
O627 C636 1.257 . S
O628 Tb617 2.349 . S
O628 C639 1.261 . S
O629 Tb616 2.303 . S
O629 C639 1.257 . S
O630 Tb617 2.415 . S
O630 C646 1.239 . S
O631 Tb617 2.399 . S
O631 C646 1.263 . S
O632 Tb617 2.325 . S
O632 C647 1.236 . S
O633 Tb616 2.322 . S
O633 C647 1.257 . S
O634 Tb616 2.349 . S
O634 C618 1.261 . S
O635 Tb617 2.303 . S
O635 C618 1.257 . S
C636 O626 1.236 . S
C636 O627 1.257 . S
O637 Tb616 2.415 . S
O637 C625 1.239 . S
O638 Tb616 2.399 . S
O638 C625 1.263 . S
C639 O628 1.261 . S
C639 O629 1.257 . S
C640 C643 1.358 . S
C640 C644 1.332 . S
C640 C646 1.504 . S
C641 C642 1.373 . S
C641 C645 1.308 . S
C642 C641 1.373 . S
C642 C643 1.429 . S
C642 H652 0.932 . S
C643 C640 1.358 . S
C643 C642 1.429 . S
C643 H653 0.930 . S
C644 C640 1.332 . S
C644 C645 1.394 . S
C644 H654 0.932 . S
C645 C641 1.308 . S
C645 C644 1.394 . S
C645 H655 0.929 . S
C646 Tb617 2.764 . S
C646 O630 1.239 . S
C646 O631 1.263 . S
C646 C640 1.504 . S
C647 O632 1.236 . S
C647 O633 1.257 . S
H648 C621 0.932 . S
H649 C622 0.930 . S
H650 C623 0.932 . S
H651 C624 0.929 . S
H652 C642 0.932 . S
H653 C643 0.930 . S
H654 C644 0.932 . S
H655 C645 0.929 . S
Tb656 C665 2.764 . S
Tb656 O666 2.325 . S
Tb656 O669 2.303 . S
Tb656 O673 2.322 . S
Tb656 O674 2.349 . S
Tb656 O677 2.415 . S
Tb656 O678 2.399 . S
Tb657 O667 2.322 . S
Tb657 O668 2.349 . S
Tb657 O670 2.415 1_554 S
Tb657 O671 2.399 1_554 S
Tb657 O672 2.325 . S
Tb657 O675 2.303 . S
Tb657 C686 2.764 1_554 S
C658 O674 1.261 . S
C658 O675 1.257 . S
C659 C662 1.358 . S
C659 C663 1.332 . S
C659 C665 1.504 . S
C660 C661 1.373 . S
C660 C664 1.308 . S
C661 C660 1.373 . S
C661 C662 1.429 . S
C661 H688 0.932 . S
C662 C659 1.358 . S
C662 C661 1.429 . S
C662 H689 0.930 . S
C663 C659 1.332 . S
C663 C664 1.394 . S
C663 H690 0.932 . S
C664 C660 1.308 . S
C664 C663 1.394 . S
C664 H691 0.929 . S
C665 Tb656 2.764 . S
C665 C659 1.504 . S
C665 O677 1.239 . S
C665 O678 1.263 . S
O666 Tb656 2.325 . S
O666 C676 1.236 . S
O667 Tb657 2.322 . S
O667 C676 1.257 . S
O668 Tb657 2.349 . S
O668 C679 1.261 . S
O669 Tb656 2.303 . S
O669 C679 1.257 . S
O670 Tb657 2.415 1_556 S
O670 C686 1.239 . S
O671 Tb657 2.399 1_556 S
O671 C686 1.263 . S
O672 Tb657 2.325 . S
O672 C687 1.236 . S
O673 Tb656 2.322 . S
O673 C687 1.257 . S
O674 Tb656 2.349 . S
O674 C658 1.261 . S
O675 Tb657 2.303 . S
O675 C658 1.257 . S
C676 O666 1.236 . S
C676 O667 1.257 . S
O677 Tb656 2.415 . S
O677 C665 1.239 . S
O678 Tb656 2.399 . S
O678 C665 1.263 . S
C679 O668 1.261 . S
C679 O669 1.257 . S
C680 C683 1.358 . S
C680 C684 1.332 . S
C680 C686 1.504 . S
C681 C682 1.373 . S
C681 C685 1.308 . S
C682 C681 1.373 . S
C682 C683 1.429 . S
C682 H692 0.932 . S
C683 C680 1.358 . S
C683 C682 1.429 . S
C683 H693 0.930 . S
C684 C680 1.332 . S
C684 C685 1.394 . S
C684 H694 0.932 . S
C685 C681 1.308 . S
C685 C684 1.394 . S
C685 H695 0.929 . S
C686 Tb657 2.764 1_556 S
C686 O670 1.239 . S
C686 O671 1.263 . S
C686 C680 1.504 . S
C687 O672 1.236 . S
C687 O673 1.257 . S
H688 C661 0.932 . S
H689 C662 0.930 . S
H690 C663 0.932 . S
H691 C664 0.929 . S
H692 C682 0.932 . S
H693 C683 0.930 . S
H694 C684 0.932 . S
H695 C685 0.929 . S
Tb696 C705 2.764 . S
Tb696 O706 2.325 . S
Tb696 O709 2.303 . S
Tb696 O713 2.322 . S
Tb696 O714 2.349 . S
Tb696 O717 2.415 . S
Tb696 O718 2.399 . S
Tb697 O707 2.322 . S
Tb697 O708 2.349 . S
Tb697 O710 2.415 . S
Tb697 O711 2.399 . S
Tb697 O712 2.325 . S
Tb697 O715 2.303 . S
Tb697 C726 2.764 . S
C698 O714 1.261 . S
C698 O715 1.257 . S
C699 C702 1.358 . S
C699 C703 1.332 . S
C699 C705 1.504 . S
C700 C701 1.373 . S
C700 C704 1.308 . S
C701 C700 1.373 . S
C701 C702 1.429 . S
C701 H728 0.932 . S
C702 C699 1.358 . S
C702 C701 1.429 . S
C702 H729 0.930 . S
C703 C699 1.332 . S
C703 C704 1.394 . S
C703 H730 0.932 . S
C704 C700 1.308 . S
C704 C703 1.394 . S
C704 H731 0.929 . S
C705 Tb696 2.764 . S
C705 C699 1.504 . S
C705 O717 1.239 . S
C705 O718 1.263 . S
O706 Tb696 2.325 . S
O706 C716 1.236 . S
O707 Tb697 2.322 . S
O707 C716 1.257 . S
O708 Tb697 2.349 . S
O708 C719 1.261 . S
O709 Tb696 2.303 . S
O709 C719 1.257 . S
O710 Tb697 2.415 . S
O710 C726 1.239 . S
O711 Tb697 2.399 . S
O711 C726 1.263 . S
O712 Tb697 2.325 . S
O712 C727 1.236 . S
O713 Tb696 2.322 . S
O713 C727 1.257 . S
O714 Tb696 2.349 . S
O714 C698 1.261 . S
O715 Tb697 2.303 . S
O715 C698 1.257 . S
C716 O706 1.236 . S
C716 O707 1.257 . S
O717 Tb696 2.415 . S
O717 C705 1.239 . S
O718 Tb696 2.399 . S
O718 C705 1.263 . S
C719 O708 1.261 . S
C719 O709 1.257 . S
C720 C723 1.358 . S
C720 C724 1.332 . S
C720 C726 1.504 . S
C721 C722 1.373 . S
C721 C725 1.308 . S
C722 C721 1.373 . S
C722 C723 1.429 . S
C722 H732 0.932 . S
C723 C720 1.358 . S
C723 C722 1.429 . S
C723 H733 0.930 . S
C724 C720 1.332 . S
C724 C725 1.394 . S
C724 H734 0.932 . S
C725 C721 1.308 . S
C725 C724 1.394 . S
C725 H735 0.929 . S
C726 Tb697 2.764 . S
C726 O710 1.239 . S
C726 O711 1.263 . S
C726 C720 1.504 . S
C727 O712 1.236 . S
C727 O713 1.257 . S
H728 C701 0.932 . S
H729 C702 0.930 . S
H730 C703 0.932 . S
H731 C704 0.929 . S
H732 C722 0.932 . S
H733 C723 0.930 . S
H734 C724 0.932 . S
H735 C725 0.929 . S
Tb736 C745 2.764 . S
Tb736 O746 2.325 . S
Tb736 O749 2.303 . S
Tb736 O753 2.322 . S
Tb736 O754 2.349 . S
Tb736 O757 2.415 . S
Tb736 O758 2.399 . S
Tb737 O747 2.322 . S
Tb737 O748 2.349 1_455 S
Tb737 O750 2.415 . S
Tb737 O751 2.399 . S
Tb737 O752 2.325 . S
Tb737 O755 2.303 . S
Tb737 C766 2.764 . S
C738 O754 1.261 . S
C738 O755 1.257 . S
C739 C742 1.358 . S
C739 C743 1.332 1_455 S
C739 C745 1.504 . S
C740 C741 1.395 . S
C740 C744 1.295 1_455 S
C741 C740 1.395 . S
C741 C742 1.429 . S
C741 H768 0.932 . S
C742 C739 1.358 . S
C742 C741 1.429 . S
C742 H769 0.930 . S
C743 C739 1.332 1_655 S
C743 C744 1.394 . S
C743 H770 0.932 . S
C744 C740 1.295 1_655 S
C744 C743 1.394 . S
C744 H771 0.929 . S
C745 Tb736 2.764 . S
C745 C739 1.504 . S
C745 O757 1.239 . S
C745 O758 1.263 . S
O746 Tb736 2.325 . S
O746 C756 1.236 . S
O747 Tb737 2.322 . S
O747 C756 1.257 . S
O748 Tb737 2.349 1_655 S
O748 C759 1.261 . S
O749 Tb736 2.303 . S
O749 C759 1.257 1_455 S
O750 Tb737 2.415 . S
O750 C766 1.239 . S
O751 Tb737 2.399 . S
O751 C766 1.263 . S
O752 Tb737 2.325 . S
O752 C767 1.236 . S
O753 Tb736 2.322 . S
O753 C767 1.257 . S
O754 Tb736 2.349 . S
O754 C738 1.261 . S
O755 Tb737 2.303 . S
O755 C738 1.257 . S
C756 O746 1.236 . S
C756 O747 1.257 . S
O757 Tb736 2.415 . S
O757 C745 1.239 . S
O758 Tb736 2.399 . S
O758 C745 1.263 . S
C759 O748 1.261 . S
C759 O749 1.257 1_655 S
C760 C763 1.358 . S
C760 C764 1.332 . S
C760 C766 1.504 . S
C761 C762 1.373 . S
C761 C765 1.308 . S
C762 C761 1.373 . S
C762 C763 1.429 . S
C762 H772 0.932 . S
C763 C760 1.358 . S
C763 C762 1.429 . S
C763 H773 0.930 . S
C764 C760 1.332 . S
C764 C765 1.394 . S
C764 H774 0.932 . S
C765 C761 1.308 . S
C765 C764 1.394 . S
C765 H775 0.929 . S
C766 Tb737 2.764 . S
C766 O750 1.239 . S
C766 O751 1.263 . S
C766 C760 1.504 . S
C767 O752 1.236 . S
C767 O753 1.257 . S
H768 C741 0.932 . S
H769 C742 0.930 . S
H770 C743 0.932 . S
H771 C744 0.929 . S
H772 C762 0.932 . S
H773 C763 0.930 . S
H774 C764 0.932 . S
H775 C765 0.929 . S
Tb776 C785 2.764 . S
Tb776 O786 2.325 . S
Tb776 O789 2.303 . S
Tb776 O793 2.322 . S
Tb776 O794 2.349 . S
Tb776 O797 2.415 . S
Tb776 O798 2.399 . S
Tb777 O787 2.322 . S
Tb777 O788 2.349 . S
Tb777 O790 2.415 . S
Tb777 O791 2.399 . S
Tb777 O792 2.325 . S
Tb777 O795 2.303 . S
Tb777 C806 2.764 . S
C778 O794 1.261 . S
C778 O795 1.257 . S
C779 C782 1.358 . S
C779 C783 1.332 . S
C779 C785 1.504 . S
C780 C781 1.373 . S
C780 C784 1.308 . S
C781 C780 1.373 . S
C781 C782 1.429 . S
C781 H808 0.932 . S
C782 C779 1.358 . S
C782 C781 1.429 . S
C782 H809 0.930 . S
C783 C779 1.332 . S
C783 C784 1.394 . S
C783 H810 0.932 . S
C784 C780 1.308 . S
C784 C783 1.394 . S
C784 H811 0.929 . S
C785 Tb776 2.764 . S
C785 C779 1.504 . S
C785 O797 1.239 . S
C785 O798 1.263 . S
O786 Tb776 2.325 . S
O786 C796 1.236 . S
O787 Tb777 2.322 . S
O787 C796 1.257 . S
O788 Tb777 2.349 . S
O788 C799 1.261 . S
O789 Tb776 2.303 . S
O789 C799 1.257 . S
O790 Tb777 2.415 . S
O790 C806 1.239 . S
O791 Tb777 2.399 . S
O791 C806 1.263 . S
O792 Tb777 2.325 . S
O792 C807 1.236 . S
O793 Tb776 2.322 . S
O793 C807 1.257 . S
O794 Tb776 2.349 . S
O794 C778 1.261 . S
O795 Tb777 2.303 . S
O795 C778 1.257 . S
C796 O786 1.236 . S
C796 O787 1.257 . S
O797 Tb776 2.415 . S
O797 C785 1.239 . S
O798 Tb776 2.399 . S
O798 C785 1.263 . S
C799 O788 1.261 . S
C799 O789 1.257 . S
C800 C803 1.358 . S
C800 C804 1.332 . S
C800 C806 1.504 . S
C801 C802 1.373 . S
C801 C805 1.308 . S
C802 C801 1.373 . S
C802 C803 1.429 . S
C802 H812 0.932 . S
C803 C800 1.358 . S
C803 C802 1.429 . S
C803 H813 0.930 . S
C804 C800 1.332 . S
C804 C805 1.394 . S
C804 H814 0.932 . S
C805 C801 1.308 . S
C805 C804 1.394 . S
C805 H815 0.929 . S
C806 Tb777 2.764 . S
C806 O790 1.239 . S
C806 O791 1.263 . S
C806 C800 1.504 . S
C807 O792 1.236 . S
C807 O793 1.257 . S
H808 C781 0.932 . S
H809 C782 0.930 . S
H810 C783 0.932 . S
H811 C784 0.929 . S
H812 C802 0.932 . S
H813 C803 0.930 . S
H814 C804 0.932 . S
H815 C805 0.929 . S
Tb816 C825 2.764 . S
Tb816 O826 2.325 . S
Tb816 O829 2.303 . S
Tb816 O833 2.322 . S
Tb816 O834 2.349 . S
Tb816 O837 2.415 . S
Tb816 O838 2.399 . S
Tb817 O827 2.322 . S
Tb817 O828 2.349 . S
Tb817 O830 2.415 . S
Tb817 O831 2.399 . S
Tb817 O832 2.325 . S
Tb817 O835 2.303 . S
Tb817 C846 2.764 . S
C818 O834 1.261 . S
C818 O835 1.257 . S
C819 C822 1.358 . S
C819 C823 1.332 . S
C819 C825 1.504 . S
C820 C821 1.373 . S
C820 C824 1.308 . S
C821 C820 1.373 . S
C821 C822 1.429 . S
C821 H848 0.932 . S
C822 C819 1.358 . S
C822 C821 1.429 . S
C822 H849 0.930 . S
C823 C819 1.332 . S
C823 C824 1.394 . S
C823 H850 0.932 . S
C824 C820 1.308 . S
C824 C823 1.394 . S
C824 H851 0.929 . S
C825 Tb816 2.764 . S
C825 C819 1.504 . S
C825 O837 1.239 . S
C825 O838 1.263 . S
O826 Tb816 2.325 . S
O826 C836 1.236 . S
O827 Tb817 2.322 . S
O827 C836 1.257 . S
O828 Tb817 2.349 . S
O828 C839 1.261 . S
O829 Tb816 2.303 . S
O829 C839 1.257 . S
O830 Tb817 2.415 . S
O830 C846 1.239 . S
O831 Tb817 2.399 . S
O831 C846 1.263 . S
O832 Tb817 2.325 . S
O832 C847 1.236 . S
O833 Tb816 2.322 . S
O833 C847 1.257 . S
O834 Tb816 2.349 . S
O834 C818 1.261 . S
O835 Tb817 2.303 . S
O835 C818 1.257 . S
C836 O826 1.236 . S
C836 O827 1.257 . S
O837 Tb816 2.415 . S
O837 C825 1.239 . S
O838 Tb816 2.399 . S
O838 C825 1.263 . S
C839 O828 1.261 . S
C839 O829 1.257 . S
C840 C843 1.358 . S
C840 C844 1.332 . S
C840 C846 1.504 . S
C841 C842 1.373 . S
C841 C845 1.308 . S
C842 C841 1.373 . S
C842 C843 1.429 . S
C842 H852 0.932 . S
C843 C840 1.358 . S
C843 C842 1.429 . S
C843 H853 0.930 . S
C844 C840 1.332 . S
C844 C845 1.394 . S
C844 H854 0.932 . S
C845 C841 1.308 . S
C845 C844 1.394 . S
C845 H855 0.929 . S
C846 Tb817 2.764 . S
C846 O830 1.239 . S
C846 O831 1.263 . S
C846 C840 1.504 . S
C847 O832 1.236 . S
C847 O833 1.257 . S
H848 C821 0.932 . S
H849 C822 0.930 . S
H850 C823 0.932 . S
H851 C824 0.929 . S
H852 C842 0.932 . S
H853 C843 0.930 . S
H854 C844 0.932 . S
H855 C845 0.929 . S
Tb856 C865 2.764 . S
Tb856 O866 2.325 . S
Tb856 O869 2.303 . S
Tb856 O873 2.322 . S
Tb856 O874 2.349 . S
Tb856 O877 2.415 . S
Tb856 O878 2.399 . S
Tb857 O867 2.322 . S
Tb857 O868 2.349 . S
Tb857 O870 2.415 . S
Tb857 O871 2.399 . S
Tb857 O872 2.325 . S
Tb857 O875 2.303 . S
Tb857 C886 2.764 . S
C858 O874 1.261 . S
C858 O875 1.257 . S
C859 C862 1.358 . S
C859 C863 1.332 . S
C859 C865 1.504 . S
C860 C861 1.373 . S
C860 C864 1.308 . S
C861 C860 1.373 . S
C861 C862 1.429 . S
C861 H888 0.932 . S
C862 C859 1.358 . S
C862 C861 1.429 . S
C862 H889 0.930 . S
C863 C859 1.332 . S
C863 C864 1.394 . S
C863 H890 0.932 . S
C864 C860 1.308 . S
C864 C863 1.394 . S
C864 H891 0.929 . S
C865 Tb856 2.764 . S
C865 C859 1.504 . S
C865 O877 1.239 . S
C865 O878 1.263 . S
O866 Tb856 2.325 . S
O866 C876 1.236 . S
O867 Tb857 2.322 . S
O867 C876 1.257 . S
O868 Tb857 2.349 . S
O868 C879 1.261 . S
O869 Tb856 2.303 . S
O869 C879 1.257 . S
O870 Tb857 2.415 . S
O870 C886 1.239 . S
O871 Tb857 2.399 . S
O871 C886 1.263 . S
O872 Tb857 2.325 . S
O872 C887 1.236 . S
O873 Tb856 2.322 . S
O873 C887 1.257 . S
O874 Tb856 2.349 . S
O874 C858 1.261 . S
O875 Tb857 2.303 . S
O875 C858 1.257 . S
C876 O866 1.236 . S
C876 O867 1.257 . S
O877 Tb856 2.415 . S
O877 C865 1.239 . S
O878 Tb856 2.399 . S
O878 C865 1.263 . S
C879 O868 1.261 . S
C879 O869 1.257 . S
C880 C883 1.358 . S
C880 C884 1.332 . S
C880 C886 1.504 . S
C881 C882 1.373 . S
C881 C885 1.308 . S
C882 C881 1.373 . S
C882 C883 1.429 . S
C882 H892 0.932 . S
C883 C880 1.358 . S
C883 C882 1.429 . S
C883 H893 0.930 . S
C884 C880 1.332 . S
C884 C885 1.394 . S
C884 H894 0.932 . S
C885 C881 1.308 . S
C885 C884 1.394 . S
C885 H895 0.929 . S
C886 Tb857 2.764 . S
C886 O870 1.239 . S
C886 O871 1.263 . S
C886 C880 1.504 . S
C887 O872 1.236 . S
C887 O873 1.257 . S
H888 C861 0.932 . S
H889 C862 0.930 . S
H890 C863 0.932 . S
H891 C864 0.929 . S
H892 C882 0.932 . S
H893 C883 0.930 . S
H894 C884 0.932 . S
H895 C885 0.929 . S
Tb896 C905 2.764 . S
Tb896 O906 2.325 . S
Tb896 O909 2.303 . S
Tb896 O913 2.322 . S
Tb896 O914 2.349 . S
Tb896 O917 2.415 . S
Tb896 O918 2.399 . S
Tb897 O907 2.322 . S
Tb897 O908 2.349 . S
Tb897 O910 2.415 . S
Tb897 O911 2.399 . S
Tb897 O912 2.325 . S
Tb897 O915 2.303 . S
Tb897 C926 2.764 . S
C898 O914 1.261 . S
C898 O915 1.257 . S
C899 C902 1.358 . S
C899 C903 1.332 . S
C899 C905 1.504 . S
C900 C901 1.373 . S
C900 C904 1.308 . S
C901 C900 1.373 . S
C901 C902 1.429 . S
C901 H928 0.932 . S
C902 C899 1.358 . S
C902 C901 1.429 . S
C902 H929 0.930 . S
C903 C899 1.332 . S
C903 C904 1.394 . S
C903 H930 0.932 . S
C904 C900 1.308 . S
C904 C903 1.394 . S
C904 H931 0.929 . S
C905 Tb896 2.764 . S
C905 C899 1.504 . S
C905 O917 1.239 . S
C905 O918 1.263 . S
O906 Tb896 2.325 . S
O906 C916 1.236 . S
O907 Tb897 2.322 . S
O907 C916 1.257 . S
O908 Tb897 2.349 . S
O908 C919 1.261 . S
O909 Tb896 2.303 . S
O909 C919 1.257 . S
O910 Tb897 2.415 . S
O910 C926 1.239 . S
O911 Tb897 2.399 . S
O911 C926 1.263 . S
O912 Tb897 2.325 . S
O912 C927 1.236 . S
O913 Tb896 2.322 . S
O913 C927 1.257 . S
O914 Tb896 2.349 . S
O914 C898 1.261 . S
O915 Tb897 2.303 . S
O915 C898 1.257 . S
C916 O906 1.236 . S
C916 O907 1.257 . S
O917 Tb896 2.415 . S
O917 C905 1.239 . S
O918 Tb896 2.399 . S
O918 C905 1.263 . S
C919 O908 1.261 . S
C919 O909 1.257 . S
C920 C923 1.358 . S
C920 C924 1.332 . S
C920 C926 1.504 . S
C921 C922 1.373 . S
C921 C925 1.308 . S
C922 C921 1.373 . S
C922 C923 1.429 . S
C922 H932 0.932 . S
C923 C920 1.358 . S
C923 C922 1.429 . S
C923 H933 0.930 . S
C924 C920 1.332 . S
C924 C925 1.394 . S
C924 H934 0.932 . S
C925 C921 1.308 . S
C925 C924 1.394 . S
C925 H935 0.929 . S
C926 Tb897 2.764 . S
C926 O910 1.239 . S
C926 O911 1.263 . S
C926 C920 1.504 . S
C927 O912 1.236 . S
C927 O913 1.257 . S
H928 C901 0.932 . S
H929 C902 0.930 . S
H930 C903 0.932 . S
H931 C904 0.929 . S
H932 C922 0.932 . S
H933 C923 0.930 . S
H934 C924 0.932 . S
H935 C925 0.929 . S
Tb936 C945 2.764 1_455 S
Tb936 O946 2.325 . S
Tb936 O949 2.303 . S
Tb936 O953 2.322 . S
Tb936 O954 2.349 . S
Tb936 O957 2.415 1_455 S
Tb936 O958 2.399 1_455 S
Tb937 O947 2.322 . S
Tb937 O948 2.349 . S
Tb937 O950 2.415 . S
Tb937 O951 2.399 . S
Tb937 O952 2.325 . S
Tb937 O955 2.303 . S
Tb937 C966 2.764 . S
C938 O954 1.261 . S
C938 O955 1.257 . S
C939 C942 1.358 . S
C939 C943 1.332 . S
C939 C945 1.504 . S
C940 C941 1.373 . S
C940 C944 1.308 . S
C941 C940 1.373 . S
C941 C942 1.429 . S
C941 H968 0.932 . S
C942 C939 1.358 . S
C942 C941 1.429 . S
C942 H969 0.930 . S
C943 C939 1.332 . S
C943 C944 1.394 . S
C943 H970 0.932 . S
C944 C940 1.308 . S
C944 C943 1.394 . S
C944 H971 0.929 . S
C945 Tb936 2.764 1_655 S
C945 C939 1.504 . S
C945 O957 1.239 . S
C945 O958 1.263 . S
O946 Tb936 2.325 . S
O946 C956 1.236 . S
O947 Tb937 2.322 . S
O947 C956 1.257 . S
O948 Tb937 2.349 . S
O948 C959 1.261 . S
O949 Tb936 2.303 . S
O949 C959 1.257 . S
O950 Tb937 2.415 . S
O950 C966 1.239 . S
O951 Tb937 2.399 . S
O951 C966 1.263 . S
O952 Tb937 2.325 . S
O952 C967 1.236 . S
O953 Tb936 2.322 . S
O953 C967 1.257 . S
O954 Tb936 2.349 . S
O954 C938 1.261 . S
O955 Tb937 2.303 . S
O955 C938 1.257 . S
C956 O946 1.236 . S
C956 O947 1.257 . S
O957 Tb936 2.415 1_655 S
O957 C945 1.239 . S
O958 Tb936 2.399 1_655 S
O958 C945 1.263 . S
C959 O948 1.261 . S
C959 O949 1.257 . S
C960 C963 1.358 . S
C960 C964 1.332 . S
C960 C966 1.504 . S
C961 C962 1.373 . S
C961 C965 1.308 . S
C962 C961 1.373 . S
C962 C963 1.429 . S
C962 H972 0.932 . S
C963 C960 1.358 . S
C963 C962 1.429 . S
C963 H973 0.930 . S
C964 C960 1.332 . S
C964 C965 1.394 . S
C964 H974 0.932 . S
C965 C961 1.308 . S
C965 C964 1.394 . S
C965 H975 0.929 . S
C966 Tb937 2.764 . S
C966 O950 1.239 . S
C966 O951 1.263 . S
C966 C960 1.504 . S
C967 O952 1.236 . S
C967 O953 1.257 . S
H968 C941 0.932 . S
H969 C942 0.930 . S
H970 C943 0.932 . S
H971 C944 0.929 . S
H972 C962 0.932 . S
H973 C963 0.930 . S
H974 C964 0.932 . S
H975 C965 0.929 . S
H976 C982 0.930 . S
H977 C985 0.930 . S
H978 C986 0.930 . S
H979 C987 0.930 1_655 S
H980 C990 0.930 . S
H981 C991 0.930 . S
C982 H976 0.930 . S
C982 C983 1.355 1_455 S
C982 C984 1.415 1_556 S
C983 C982 1.355 1_655 S
C983 C985 1.419 . S
C984 C982 1.415 1_554 S
C984 C989 1.425 . S
C984 C991 1.409 . S
C985 H977 0.930 . S
C985 C983 1.419 . S
C985 C986 1.362 . S
C986 H978 0.930 . S
C986 C985 1.362 . S
C986 C989 1.409 1_656 S
C987 H979 0.930 1_455 S
C987 C988 1.355 . S
C987 C989 1.415 . S
C988 C987 1.355 . S
C988 C990 1.419 . S
C989 C984 1.425 . S
C989 C986 1.409 1_454 S
C989 C987 1.415 . S
C990 H980 0.930 . S
C990 C988 1.419 . S
C990 C991 1.362 . S
C991 H981 0.930 . S
C991 C984 1.409 . S
C991 C990 1.362 . S
H992 C998 0.930 . S
H993 C1001 0.930 . S
H994 C1002 0.930 . S
H995 C1003 0.930 . S
H996 C1006 0.930 . S
H997 C1007 0.930 . S
C998 H992 0.930 . S
C998 C999 1.355 . S
C998 C1000 1.415 . S
C999 C998 1.355 . S
C999 C1001 1.419 . S
C1000 C998 1.415 . S
C1000 C1005 1.425 . S
C1000 C1007 1.409 . S
C1001 H993 0.930 . S
C1001 C999 1.419 . S
C1001 C1002 1.362 . S
C1002 H994 0.930 . S
C1002 C1001 1.362 . S
C1002 C1005 1.409 . S
C1003 H995 0.930 . S
C1003 C1004 1.355 . S
C1003 C1005 1.415 . S
C1004 C1003 1.355 . S
C1004 C1006 1.419 . S
C1005 C1000 1.425 . S
C1005 C1002 1.409 . S
C1005 C1003 1.415 . S
C1006 H996 0.930 . S
C1006 C1004 1.419 . S
C1006 C1007 1.362 . S
C1007 H997 0.930 . S
C1007 C1000 1.409 . S
C1007 C1006 1.362 . S
H1008 C1014 0.930 . S
H1009 C1017 0.930 . S
H1010 C1018 0.930 . S
H1011 C1019 0.930 . S
H1012 C1022 0.930 . S
H1013 C1023 0.930 . S
C1014 H1008 0.930 . S
C1014 C1015 1.355 . S
C1014 C1016 1.415 . S
C1015 C1014 1.355 . S
C1015 C1017 1.419 . S
C1016 C1014 1.415 . S
C1016 C1021 1.425 . S
C1016 C1023 1.409 . S
C1017 H1009 0.930 . S
C1017 C1015 1.419 . S
C1017 C1018 1.362 . S
C1018 H1010 0.930 . S
C1018 C1017 1.362 . S
C1018 C1021 1.409 . S
C1019 H1011 0.930 . S
C1019 C1020 1.355 . S
C1019 C1021 1.415 . S
C1020 C1019 1.355 . S
C1020 C1022 1.419 . S
C1021 C1016 1.425 . S
C1021 C1018 1.409 . S
C1021 C1019 1.415 . S
C1022 H1012 0.930 . S
C1022 C1020 1.419 . S
C1022 C1023 1.362 . S
C1023 H1013 0.930 . S
C1023 C1016 1.409 . S
C1023 C1022 1.362 . S
H1024 C1030 0.930 . S
H1025 C1033 0.930 . S
H1026 C1034 0.930 . S
H1027 C1035 0.930 . S
H1028 C1038 0.930 . S
H1029 C1039 0.930 . S
C1030 H1024 0.930 . S
C1030 C1031 1.355 . S
C1030 C1032 1.415 . S
C1031 C1030 1.355 . S
C1031 C1033 1.419 . S
C1032 C1030 1.415 . S
C1032 C1037 1.425 . S
C1032 C1039 1.409 . S
C1033 H1025 0.930 . S
C1033 C1031 1.419 . S
C1033 C1034 1.362 . S
C1034 H1026 0.930 . S
C1034 C1033 1.362 . S
C1034 C1037 1.409 . S
C1035 H1027 0.930 . S
C1035 C1036 1.355 . S
C1035 C1037 1.415 . S
C1036 C1035 1.355 . S
C1036 C1038 1.419 . S
C1037 C1032 1.425 . S
C1037 C1034 1.409 . S
C1037 C1035 1.415 . S
C1038 H1028 0.930 . S
C1038 C1036 1.419 . S
C1038 C1039 1.362 . S
C1039 H1029 0.930 . S
C1039 C1032 1.409 . S
C1039 C1038 1.362 . S
H1040 C1046 0.930 . S
H1041 C1049 0.930 . S
H1042 C1050 0.930 . S
H1043 C1051 0.930 . S
H1044 C1054 0.930 . S
H1045 C1055 0.930 . S
C1046 H1040 0.930 . S
C1046 C1047 1.355 . S
C1046 C1048 1.415 . S
C1047 C1046 1.355 . S
C1047 C1049 1.419 . S
C1048 C1046 1.415 . S
C1048 C1053 1.425 . S
C1048 C1055 1.409 . S
C1049 H1041 0.930 . S
C1049 C1047 1.419 . S
C1049 C1050 1.362 . S
C1050 H1042 0.930 . S
C1050 C1049 1.362 . S
C1050 C1053 1.409 . S
C1051 H1043 0.930 . S
C1051 C1052 1.355 . S
C1051 C1053 1.415 . S
C1052 C1051 1.355 . S
C1052 C1054 1.419 . S
C1053 C1048 1.425 . S
C1053 C1050 1.409 . S
C1053 C1051 1.415 . S
C1054 H1044 0.930 . S
C1054 C1052 1.419 . S
C1054 C1055 1.362 . S
C1055 H1045 0.930 . S
C1055 C1048 1.409 . S
C1055 C1054 1.362 . S
H1056 C1062 0.930 . S
H1057 C1065 0.930 . S
H1058 C1066 0.930 . S
H1059 C1067 0.930 . S
H1060 C1070 0.930 . S
H1061 C1071 0.930 . S
C1062 H1056 0.930 . S
C1062 C1063 1.355 . S
C1062 C1064 1.415 . S
C1063 C1062 1.355 . S
C1063 C1065 1.419 . S
C1064 C1062 1.415 . S
C1064 C1069 1.425 . S
C1064 C1071 1.409 . S
C1065 H1057 0.930 . S
C1065 C1063 1.419 . S
C1065 C1066 1.362 . S
C1066 H1058 0.930 . S
C1066 C1065 1.362 . S
C1066 C1069 1.409 . S
C1067 H1059 0.930 . S
C1067 C1068 1.355 . S
C1067 C1069 1.415 . S
C1068 C1067 1.355 . S
C1068 C1070 1.419 . S
C1069 C1064 1.425 . S
C1069 C1066 1.409 . S
C1069 C1067 1.415 . S
C1070 H1060 0.930 . S
C1070 C1068 1.419 . S
C1070 C1071 1.362 . S
C1071 H1061 0.930 . S
C1071 C1064 1.409 . S
C1071 C1070 1.362 . S
H1072 C1078 0.930 . S
H1073 C1081 0.930 . S
H1074 C1082 0.930 . S
H1075 C1083 0.930 . S
H1076 C1086 0.930 . S
H1077 C1087 0.930 . S
C1078 H1072 0.930 . S
C1078 C1079 1.355 . S
C1078 C1080 1.415 . S
C1079 C1078 1.355 . S
C1079 C1081 1.419 . S
C1080 C1078 1.415 . S
C1080 C1085 1.425 . S
C1080 C1087 1.409 . S
C1081 H1073 0.930 . S
C1081 C1079 1.419 . S
C1081 C1082 1.362 . S
C1082 H1074 0.930 . S
C1082 C1081 1.362 . S
C1082 C1085 1.409 . S
C1083 H1075 0.930 . S
C1083 C1084 1.355 . S
C1083 C1085 1.415 . S
C1084 C1083 1.355 . S
C1084 C1086 1.419 . S
C1085 C1080 1.425 . S
C1085 C1082 1.409 . S
C1085 C1083 1.415 . S
C1086 H1076 0.930 . S
C1086 C1084 1.419 . S
C1086 C1087 1.362 . S
C1087 H1077 0.930 . S
C1087 C1080 1.409 . S
C1087 C1086 1.362 . S
H1088 C1094 0.930 . S
H1089 C1097 0.930 . S
H1090 C1098 0.930 . S
H1091 C1099 0.930 . S
H1092 C1102 0.930 . S
H1093 C1103 0.930 . S
C1094 H1088 0.930 . S
C1094 C1095 1.355 . S
C1094 C1096 1.415 . S
C1095 C1094 1.355 . S
C1095 C1097 1.419 . S
C1096 C1094 1.415 . S
C1096 C1101 1.425 . S
C1096 C1103 1.409 . S
C1097 H1089 0.930 . S
C1097 C1095 1.419 . S
C1097 C1098 1.362 . S
C1098 H1090 0.930 . S
C1098 C1097 1.362 . S
C1098 C1101 1.409 . S
C1099 H1091 0.930 . S
C1099 C1100 1.355 . S
C1099 C1101 1.415 . S
C1100 C1099 1.355 . S
C1100 C1102 1.419 . S
C1101 C1096 1.425 . S
C1101 C1098 1.409 . S
C1101 C1099 1.415 . S
C1102 H1092 0.930 . S
C1102 C1100 1.419 . S
C1102 C1103 1.362 . S
C1103 H1093 0.930 . S
C1103 C1096 1.409 . S
C1103 C1102 1.362 . S
H1104 C1110 0.930 . S
H1105 C1113 0.930 . S
H1106 C1114 0.930 . S
H1107 C1115 0.930 . S
H1108 C1118 0.930 . S
H1109 C1119 0.930 . S
C1110 H1104 0.930 . S
C1110 C1111 1.355 . S
C1110 C1112 1.415 . S
C1111 C1110 1.355 . S
C1111 C1113 1.419 . S
C1112 C1110 1.415 . S
C1112 C1117 1.425 . S
C1112 C1119 1.409 1_655 S
C1113 H1105 0.930 . S
C1113 C1111 1.419 . S
C1113 C1114 1.362 . S
C1114 H1106 0.930 . S
C1114 C1113 1.362 . S
C1114 C1117 1.409 . S
C1115 H1107 0.930 . S
C1115 C1116 1.355 1_655 S
C1115 C1117 1.415 . S
C1116 C1115 1.355 1_455 S
C1116 C1118 1.419 . S
C1117 C1112 1.425 . S
C1117 C1114 1.409 . S
C1117 C1115 1.415 . S
C1118 H1108 0.930 . S
C1118 C1116 1.419 . S
C1118 C1119 1.362 . S
C1119 H1109 0.930 . S
C1119 C1112 1.409 1_455 S
C1119 C1118 1.362 . S
H1120 C1126 0.930 . S
H1121 C1129 0.930 . S
H1122 C1130 0.930 . S
H1123 C1131 0.930 . S
H1124 C1134 0.930 . S
H1125 C1135 0.930 . S
C1126 H1120 0.930 . S
C1126 C1127 1.355 . S
C1126 C1128 1.415 . S
C1127 C1126 1.355 . S
C1127 C1129 1.419 . S
C1128 C1126 1.415 . S
C1128 C1133 1.425 . S
C1128 C1135 1.409 . S
C1129 H1121 0.930 . S
C1129 C1127 1.419 . S
C1129 C1130 1.362 . S
C1130 H1122 0.930 . S
C1130 C1129 1.362 . S
C1130 C1133 1.409 . S
C1131 H1123 0.930 . S
C1131 C1132 1.355 . S
C1131 C1133 1.415 . S
C1132 C1131 1.355 . S
C1132 C1134 1.419 . S
C1133 C1128 1.425 . S
C1133 C1130 1.409 . S
C1133 C1131 1.415 . S
C1134 H1124 0.930 . S
C1134 C1132 1.419 . S
C1134 C1135 1.362 . S
C1135 H1125 0.930 . S
C1135 C1128 1.409 . S
C1135 C1134 1.362 . S
H1136 C1142 0.930 . S
H1137 C1145 0.930 . S
H1138 C1146 0.930 . S
H1139 C1147 0.930 . S
H1140 C1150 0.930 . S
H1141 C1151 0.930 . S
C1142 H1136 0.930 . S
C1142 C1143 1.355 . S
C1142 C1144 1.415 . S
C1143 C1142 1.355 . S
C1143 C1145 1.419 . S
C1144 C1142 1.415 . S
C1144 C1149 1.425 . S
C1144 C1151 1.409 . S
C1145 H1137 0.930 . S
C1145 C1143 1.419 . S
C1145 C1146 1.362 . S
C1146 H1138 0.930 . S
C1146 C1145 1.362 . S
C1146 C1149 1.409 . S
C1147 H1139 0.930 . S
C1147 C1148 1.355 . S
C1147 C1149 1.415 . S
C1148 C1147 1.355 . S
C1148 C1150 1.419 . S
C1149 C1144 1.425 . S
C1149 C1146 1.409 . S
C1149 C1147 1.415 . S
C1150 H1140 0.930 . S
C1150 C1148 1.419 . S
C1150 C1151 1.362 . S
C1151 H1141 0.930 . S
C1151 C1144 1.409 . S
C1151 C1150 1.362 . S
H1152 C1158 0.930 . S
H1153 C1161 0.930 . S
H1154 C1162 0.930 . S
H1155 C1163 0.930 . S
H1156 C1166 0.930 . S
H1157 C1167 0.930 . S
C1158 H1152 0.930 . S
C1158 C1159 1.355 . S
C1158 C1160 1.415 . S
C1159 C1158 1.355 . S
C1159 C1161 1.419 . S
C1160 C1158 1.415 . S
C1160 C1165 1.425 . S
C1160 C1167 1.409 . S
C1161 H1153 0.930 . S
C1161 C1159 1.419 . S
C1161 C1162 1.362 . S
C1162 H1154 0.930 . S
C1162 C1161 1.362 . S
C1162 C1165 1.409 . S
C1163 H1155 0.930 . S
C1163 C1164 1.355 . S
C1163 C1165 1.415 . S
C1164 C1163 1.355 . S
C1164 C1166 1.419 . S
C1165 C1160 1.425 . S
C1165 C1162 1.409 . S
C1165 C1163 1.415 . S
C1166 H1156 0.930 . S
C1166 C1164 1.419 . S
C1166 C1167 1.362 . S
C1167 H1157 0.930 . S
C1167 C1160 1.409 . S
C1167 C1166 1.362 . S
H1168 C1174 0.930 . S
H1169 C1177 0.930 . S
H1170 C1178 0.930 . S
H1171 C1179 0.930 1_565 S
H1172 C1182 0.930 . S
H1173 C1183 0.930 . S
C1174 H1168 0.930 . S
C1174 C1175 1.355 . S
C1174 C1176 1.415 . S
C1175 C1174 1.355 . S
C1175 C1177 1.419 1_545 S
C1176 C1174 1.415 . S
C1176 C1181 1.425 . S
C1176 C1183 1.409 1_655 S
C1177 H1169 0.930 . S
C1177 C1175 1.419 1_565 S
C1177 C1178 1.362 . S
C1178 H1170 0.930 . S
C1178 C1177 1.362 . S
C1178 C1181 1.409 1_565 S
C1179 H1171 0.930 1_545 S
C1179 C1180 1.355 1_655 S
C1179 C1181 1.415 . S
C1180 C1179 1.355 1_455 S
C1180 C1182 1.419 . S
C1181 C1176 1.425 . S
C1181 C1178 1.409 1_545 S
C1181 C1179 1.415 . S
C1182 H1172 0.930 . S
C1182 C1180 1.419 . S
C1182 C1183 1.362 . S
C1183 H1173 0.930 . S
C1183 C1176 1.409 1_455 S
C1183 C1182 1.362 . S
H1184 C1190 0.930 . S
H1185 C1193 0.930 . S
H1186 C1194 0.930 . S
H1187 C1195 0.930 . S
H1188 C1198 0.930 . S
H1189 C1199 0.930 . S
C1190 H1184 0.930 . S
C1190 C1191 1.355 . S
C1190 C1192 1.415 . S
C1191 C1190 1.355 . S
C1191 C1193 1.419 . S
C1192 C1190 1.415 . S
C1192 C1197 1.425 . S
C1192 C1199 1.409 . S
C1193 H1185 0.930 . S
C1193 C1191 1.419 . S
C1193 C1194 1.362 . S
C1194 H1186 0.930 . S
C1194 C1193 1.362 . S
C1194 C1197 1.409 . S
C1195 H1187 0.930 . S
C1195 C1196 1.355 . S
C1195 C1197 1.415 . S
C1196 C1195 1.355 . S
C1196 C1198 1.419 . S
C1197 C1192 1.425 . S
C1197 C1194 1.409 . S
C1197 C1195 1.415 . S
C1198 H1188 0.930 . S
C1198 C1196 1.419 . S
C1198 C1199 1.362 . S
C1199 H1189 0.930 . S
C1199 C1192 1.409 . S
C1199 C1198 1.362 . S
H1200 C1206 0.930 . S
H1201 C1209 0.930 . S
H1202 C1210 0.930 . S
H1203 C1211 0.930 . S
H1204 C1214 0.948 . S
H1205 C1215 0.908 1_565 S
C1206 H1200 0.930 . S
C1206 C1207 1.355 . S
C1206 C1208 1.415 . S
C1207 C1206 1.355 . S
C1207 C1209 1.419 . S
C1208 C1206 1.415 . S
C1208 C1213 1.425 . S
C1208 C1215 1.409 . S
C1209 H1201 0.930 . S
C1209 C1207 1.419 . S
C1209 C1210 1.362 . S
C1210 H1202 0.930 . S
C1210 C1209 1.362 . S
C1210 C1213 1.409 . S
C1211 H1203 0.930 . S
C1211 C1212 1.355 . S
C1211 C1213 1.415 . S
C1212 C1211 1.355 . S
C1212 C1214 1.419 . S
C1213 C1208 1.425 . S
C1213 C1210 1.409 . S
C1213 C1211 1.415 . S
C1214 H1204 0.948 . S
C1214 C1212 1.419 . S
C1214 C1215 1.362 . S
C1215 H1205 0.908 1_545 S
C1215 C1208 1.409 . S
C1215 C1214 1.362 . S
H1216 C1222 0.930 . S
H1217 C1225 0.930 . S
H1218 C1226 0.930 . S
H1219 C1227 0.930 . S
H1220 C1230 0.930 . S
H1221 C1231 0.930 . S
C1222 H1216 0.930 . S
C1222 C1223 1.355 . S
C1222 C1224 1.415 . S
C1223 C1222 1.355 . S
C1223 C1225 1.419 . S
C1224 C1222 1.415 . S
C1224 C1229 1.425 . S
C1224 C1231 1.409 . S
C1225 H1217 0.930 . S
C1225 C1223 1.419 . S
C1225 C1226 1.362 . S
C1226 H1218 0.930 . S
C1226 C1225 1.362 . S
C1226 C1229 1.409 . S
C1227 H1219 0.930 . S
C1227 C1228 1.355 . S
C1227 C1229 1.415 . S
C1228 C1227 1.355 . S
C1228 C1230 1.419 . S
C1229 C1224 1.425 . S
C1229 C1226 1.409 . S
C1229 C1227 1.415 . S
C1230 H1220 0.930 . S
C1230 C1228 1.419 . S
C1230 C1231 1.362 . S
C1231 H1221 0.930 . S
C1231 C1224 1.409 . S
C1231 C1230 1.362 . S
H1232 C1238 0.930 . S
H1233 C1241 0.930 1_556 S
H1234 C1242 0.930 . S
H1235 C1243 0.930 . S
H1236 C1246 0.930 . S
H1237 C1247 0.930 . S
C1238 H1232 0.930 . S
C1238 C1239 1.355 . S
C1238 C1240 1.415 1_565 S
C1239 C1238 1.355 . S
C1239 C1241 1.419 . S
C1240 C1238 1.415 1_545 S
C1240 C1245 1.425 . S
C1240 C1247 1.409 . S
C1241 H1233 0.930 1_554 S
C1241 C1239 1.419 . S
C1241 C1242 1.362 1_565 S
C1242 H1234 0.930 . S
C1242 C1241 1.362 1_545 S
C1242 C1245 1.409 . S
C1243 H1235 0.930 . S
C1243 C1244 1.355 . S
C1243 C1245 1.415 . S
C1244 C1243 1.355 . S
C1244 C1246 1.419 . S
C1245 C1240 1.425 . S
C1245 C1242 1.409 . S
C1245 C1243 1.415 . S
C1246 H1236 0.930 . S
C1246 C1244 1.419 . S
C1246 C1247 1.362 . S
C1247 H1237 0.930 . S
C1247 C1240 1.409 . S
C1247 C1246 1.362 . S
H1248 C1254 0.930 . S
H1249 C1257 0.930 . S
H1250 C1258 0.930 . S
H1251 C1259 0.930 . S
H1252 C1262 0.930 . S
H1253 C1263 0.930 . S
C1254 H1248 0.930 . S
C1254 C1255 1.355 . S
C1254 C1256 1.415 . S
C1255 C1254 1.355 . S
C1255 C1257 1.419 . S
C1256 C1254 1.415 . S
C1256 C1261 1.425 . S
C1256 C1263 1.409 . S
C1257 H1249 0.930 . S
C1257 C1255 1.419 . S
C1257 C1258 1.362 . S
C1258 H1250 0.930 . S
C1258 C1257 1.362 . S
C1258 C1261 1.409 . S
C1259 H1251 0.930 . S
C1259 C1260 1.355 . S
C1259 C1261 1.415 . S
C1260 C1259 1.355 . S
C1260 C1262 1.419 . S
C1261 C1256 1.425 . S
C1261 C1258 1.409 . S
C1261 C1259 1.415 . S
C1262 H1252 0.930 . S
C1262 C1260 1.419 . S
C1262 C1263 1.362 . S
C1263 H1253 0.930 . S
C1263 C1256 1.409 . S
C1263 C1262 1.362 . S
H1264 C1270 0.930 . S
H1265 C1273 0.930 . S
H1266 C1274 0.930 . S
H1267 C1275 0.930 . S
H1268 C1278 0.930 . S
H1269 C1279 0.930 . S
C1270 H1264 0.930 . S
C1270 C1271 1.355 . S
C1270 C1272 1.415 . S
C1271 C1270 1.355 . S
C1271 C1273 1.419 . S
C1272 C1270 1.415 . S
C1272 C1277 1.425 . S
C1272 C1279 1.409 . S
C1273 H1265 0.930 . S
C1273 C1271 1.419 . S
C1273 C1274 1.362 . S
C1274 H1266 0.930 . S
C1274 C1273 1.362 . S
C1274 C1277 1.409 . S
C1275 H1267 0.930 . S
C1275 C1276 1.355 . S
C1275 C1277 1.415 . S
C1276 C1275 1.355 . S
C1276 C1278 1.419 . S
C1277 C1272 1.425 . S
C1277 C1274 1.409 . S
C1277 C1275 1.415 . S
C1278 H1268 0.930 . S
C1278 C1276 1.419 . S
C1278 C1279 1.362 . S
C1279 H1269 0.930 . S
C1279 C1272 1.409 . S
C1279 C1278 1.362 . S
H1280 C1286 0.930 . S
H1281 C1289 0.930 . S
H1282 C1290 0.930 . S
H1283 C1291 0.930 . S
H1284 C1294 0.930 . S
H1285 C1295 0.930 . S
C1286 H1280 0.930 . S
C1286 C1287 1.355 . S
C1286 C1288 1.415 . S
C1287 C1286 1.355 . S
C1287 C1289 1.419 . S
C1288 C1286 1.415 . S
C1288 C1293 1.425 . S
C1288 C1295 1.409 . S
C1289 H1281 0.930 . S
C1289 C1287 1.419 . S
C1289 C1290 1.362 . S
C1290 H1282 0.930 . S
C1290 C1289 1.362 . S
C1290 C1293 1.409 . S
C1291 H1283 0.930 . S
C1291 C1292 1.355 . S
C1291 C1293 1.415 . S
C1292 C1291 1.355 . S
C1292 C1294 1.419 . S
C1293 C1288 1.425 . S
C1293 C1290 1.409 . S
C1293 C1291 1.415 . S
C1294 H1284 0.930 . S
C1294 C1292 1.419 . S
C1294 C1295 1.362 . S
C1295 H1285 0.930 . S
C1295 C1288 1.409 . S
C1295 C1294 1.362 . S
H1296 C1302 0.930 . S
H1297 C1305 0.930 . S
H1298 C1306 0.930 . S
H1299 C1307 0.930 . S
H1300 C1310 0.930 . S
H1301 C1311 0.930 . S
C1302 H1296 0.930 . S
C1302 C1303 1.355 . S
C1302 C1304 1.415 . S
C1303 C1302 1.355 . S
C1303 C1305 1.419 . S
C1304 C1302 1.415 . S
C1304 C1309 1.425 . S
C1304 C1311 1.409 . S
C1305 H1297 0.930 . S
C1305 C1303 1.419 . S
C1305 C1306 1.362 . S
C1306 H1298 0.930 . S
C1306 C1305 1.362 . S
C1306 C1309 1.409 . S
C1307 H1299 0.930 . S
C1307 C1308 1.355 . S
C1307 C1309 1.415 . S
C1308 C1307 1.355 . S
C1308 C1310 1.419 . S
C1309 C1304 1.425 . S
C1309 C1306 1.409 . S
C1309 C1307 1.415 . S
C1310 H1300 0.930 . S
C1310 C1308 1.419 . S
C1310 C1311 1.362 . S
C1311 H1301 0.930 . S
C1311 C1304 1.409 . S
C1311 C1310 1.362 . S
H1312 C1318 0.930 . S
H1313 C1321 0.930 . S
H1314 C1322 0.930 . S
H1315 C1323 0.930 . S
H1316 C1326 0.930 . S
H1317 C1327 0.930 . S
C1318 H1312 0.930 . S
C1318 C1319 1.355 . S
C1318 C1320 1.415 . S
C1319 C1318 1.355 . S
C1319 C1321 1.419 . S
C1320 C1318 1.415 . S
C1320 C1325 1.425 . S
C1320 C1327 1.409 . S
C1321 H1313 0.930 . S
C1321 C1319 1.419 . S
C1321 C1322 1.362 . S
C1322 H1314 0.930 . S
C1322 C1321 1.362 . S
C1322 C1325 1.409 . S
C1323 H1315 0.930 . S
C1323 C1324 1.355 . S
C1323 C1325 1.415 . S
C1324 C1323 1.355 . S
C1324 C1326 1.419 . S
C1325 C1320 1.425 . S
C1325 C1322 1.409 . S
C1325 C1323 1.415 . S
C1326 H1316 0.930 . S
C1326 C1324 1.419 . S
C1326 C1327 1.362 . S
C1327 H1317 0.930 . S
C1327 C1320 1.409 . S
C1327 C1326 1.362 . S
H1328 C1334 0.930 . S
H1329 C1337 0.930 . S
H1330 C1338 0.930 . S
H1331 C1339 0.930 . S
H1332 C1342 0.930 . S
H1333 C1343 0.930 . S
C1334 H1328 0.930 . S
C1334 C1335 1.355 . S
C1334 C1336 1.415 . S
C1335 C1334 1.355 . S
C1335 C1337 1.419 . S
C1336 C1334 1.415 . S
C1336 C1341 1.425 . S
C1336 C1343 1.409 . S
C1337 H1329 0.930 . S
C1337 C1335 1.419 . S
C1337 C1338 1.362 . S
C1338 H1330 0.930 . S
C1338 C1337 1.362 . S
C1338 C1341 1.409 . S
C1339 H1331 0.930 . S
C1339 C1340 1.355 . S
C1339 C1341 1.415 . S
C1340 C1339 1.355 . S
C1340 C1342 1.419 . S
C1341 C1336 1.425 . S
C1341 C1338 1.409 . S
C1341 C1339 1.415 . S
C1342 H1332 0.930 . S
C1342 C1340 1.419 . S
C1342 C1343 1.362 . S
C1343 H1333 0.930 . S
C1343 C1336 1.409 . S
C1343 C1342 1.362 . S
H1344 C1350 0.930 . S
H1345 C1353 0.930 . S
H1346 C1354 0.930 . S
H1347 C1355 0.930 . S
H1348 C1358 0.930 . S
H1349 C1359 0.930 . S
C1350 H1344 0.930 . S
C1350 C1351 1.355 . S
C1350 C1352 1.415 . S
C1351 C1350 1.355 . S
C1351 C1353 1.419 . S
C1352 C1350 1.415 . S
C1352 C1357 1.425 . S
C1352 C1359 1.409 . S
C1353 H1345 0.930 . S
C1353 C1351 1.419 . S
C1353 C1354 1.362 . S
C1354 H1346 0.930 . S
C1354 C1353 1.362 . S
C1354 C1357 1.409 . S
C1355 H1347 0.930 . S
C1355 C1356 1.355 . S
C1355 C1357 1.415 . S
C1356 C1355 1.355 . S
C1356 C1358 1.419 . S
C1357 C1352 1.425 . S
C1357 C1354 1.409 . S
C1357 C1355 1.415 . S
C1358 H1348 0.930 . S
C1358 C1356 1.419 . S
C1358 C1359 1.362 . S
C1359 H1349 0.930 . S
C1359 C1352 1.409 . S
C1359 C1358 1.362 . S
H1360 C1366 0.930 . S
H1361 C1369 0.930 . S
H1362 C1370 0.930 . S
H1363 C1371 0.930 . S
H1364 C1374 0.958 . S
H1365 C1375 0.930 . S
C1366 H1360 0.930 . S
C1366 C1367 1.355 . S
C1366 C1368 1.415 . S
C1367 C1366 1.355 . S
C1367 C1369 1.419 . S
C1368 C1366 1.415 . S
C1368 C1373 1.425 . S
C1368 C1375 1.409 . S
C1369 H1361 0.930 . S
C1369 C1367 1.419 . S
C1369 C1370 1.362 . S
C1370 H1362 0.930 . S
C1370 C1369 1.362 . S
C1370 C1373 1.409 . S
C1371 H1363 0.930 . S
C1371 C1372 1.355 . S
C1371 C1373 1.415 . S
C1372 C1371 1.355 . S
C1372 C1374 1.419 . S
C1373 C1368 1.425 . S
C1373 C1370 1.409 . S
C1373 C1371 1.415 . S
C1374 H1364 0.958 . S
C1374 C1372 1.419 . S
C1374 C1375 1.362 . S
C1375 H1365 0.930 . S
C1375 C1368 1.409 . S
C1375 C1374 1.362 . S
H1376 C1382 0.930 . S
H1377 C1385 0.930 . S
H1378 C1386 0.930 . S
H1379 C1387 0.930 . S
H1380 C1390 0.930 . S
H1381 C1391 0.930 . S
C1382 H1376 0.930 . S
C1382 C1383 1.355 . S
C1382 C1384 1.415 . S
C1383 C1382 1.355 . S
C1383 C1385 1.419 . S
C1384 C1382 1.415 . S
C1384 C1389 1.425 . S
C1384 C1391 1.409 . S
C1385 H1377 0.930 . S
C1385 C1383 1.419 . S
C1385 C1386 1.362 . S
C1386 H1378 0.930 . S
C1386 C1385 1.362 . S
C1386 C1389 1.409 . S
C1387 H1379 0.930 . S
C1387 C1388 1.355 . S
C1387 C1389 1.415 . S
C1388 C1387 1.355 . S
C1388 C1390 1.419 . S
C1389 C1384 1.425 . S
C1389 C1386 1.409 . S
C1389 C1387 1.415 . S
C1390 H1380 0.930 . S
C1390 C1388 1.419 . S
C1390 C1391 1.362 . S
C1391 H1381 0.930 . S
C1391 C1384 1.409 . S
C1391 C1390 1.362 . S
H1392 C1398 0.930 . S
H1393 C1401 0.930 . S
H1394 C1402 0.930 . S
H1395 C1403 0.930 . S
H1396 C1406 0.930 . S
H1397 C1407 0.930 . S
C1398 H1392 0.930 . S
C1398 C1399 1.355 . S
C1398 C1400 1.415 . S
C1399 C1398 1.355 . S
C1399 C1401 1.419 . S
C1400 C1398 1.415 . S
C1400 C1405 1.425 . S
C1400 C1407 1.409 . S
C1401 H1393 0.930 . S
C1401 C1399 1.419 . S
C1401 C1402 1.362 . S
C1402 H1394 0.930 . S
C1402 C1401 1.362 . S
C1402 C1405 1.409 . S
C1403 H1395 0.930 . S
C1403 C1404 1.355 . S
C1403 C1405 1.415 . S
C1404 C1403 1.355 . S
C1404 C1406 1.419 . S
C1405 C1400 1.425 . S
C1405 C1402 1.409 . S
C1405 C1403 1.415 . S
C1406 H1396 0.930 . S
C1406 C1404 1.419 . S
C1406 C1407 1.362 . S
C1407 H1397 0.930 . S
C1407 C1400 1.409 . S
C1407 C1406 1.362 . S
H1408 C1414 0.930 . S
H1409 C1417 0.930 . S
H1410 C1418 0.930 . S
H1411 C1419 0.930 . S
H1412 C1422 0.930 . S
H1413 C1423 0.930 . S
C1414 H1408 0.930 . S
C1414 C1415 1.355 . S
C1414 C1416 1.415 . S
C1415 C1414 1.355 . S
C1415 C1417 1.419 . S
C1416 C1414 1.415 . S
C1416 C1421 1.425 . S
C1416 C1423 1.409 . S
C1417 H1409 0.930 . S
C1417 C1415 1.419 . S
C1417 C1418 1.362 . S
C1418 H1410 0.930 . S
C1418 C1417 1.362 . S
C1418 C1421 1.409 . S
C1419 H1411 0.930 . S
C1419 C1420 1.355 . S
C1419 C1421 1.415 . S
C1420 C1419 1.355 . S
C1420 C1422 1.419 . S
C1421 C1416 1.425 . S
C1421 C1418 1.409 . S
C1421 C1419 1.415 . S
C1422 H1412 0.930 . S
C1422 C1420 1.419 . S
C1422 C1423 1.362 . S
C1423 H1413 0.930 . S
C1423 C1416 1.409 . S
C1423 C1422 1.362 . S
H1424 C1430 0.930 . S
H1425 C1433 0.930 1_655 S
H1426 C1434 0.930 1_655 S
H1427 C1435 0.930 . S
H1428 C1438 0.930 . S
H1429 C1439 0.930 . S
C1430 H1424 0.930 . S
C1430 C1431 1.355 . S
C1430 C1432 1.415 . S
C1431 C1430 1.355 . S
C1431 C1433 1.419 . S
C1432 C1430 1.415 . S
C1432 C1437 1.425 . S
C1432 C1439 1.409 . S
C1433 H1425 0.930 1_455 S
C1433 C1431 1.419 . S
C1433 C1434 1.362 . S
C1434 H1426 0.930 1_455 S
C1434 C1433 1.362 . S
C1434 C1437 1.409 . S
C1435 H1427 0.930 . S
C1435 C1436 1.355 . S
C1435 C1437 1.415 . S
C1436 C1435 1.355 . S
C1436 C1438 1.419 . S
C1437 C1432 1.425 . S
C1437 C1434 1.409 . S
C1437 C1435 1.415 . S
C1438 H1428 0.930 . S
C1438 C1436 1.419 . S
C1438 C1439 1.362 . S
C1439 H1429 0.930 . S
C1439 C1432 1.409 . S
C1439 C1438 1.362 . S
H1440 C1446 0.930 . S
H1441 C1449 0.930 . S
H1442 C1450 0.930 . S
H1443 C1451 0.930 . S
H1444 C1454 0.930 . S
H1445 C1455 0.930 . S
C1446 H1440 0.930 . S
C1446 C1447 1.355 . S
C1446 C1448 1.415 . S
C1447 C1446 1.355 . S
C1447 C1449 1.419 . S
C1448 C1446 1.415 . S
C1448 C1453 1.425 . S
C1448 C1455 1.409 . S
C1449 H1441 0.930 . S
C1449 C1447 1.419 . S
C1449 C1450 1.362 . S
C1450 H1442 0.930 . S
C1450 C1449 1.362 . S
C1450 C1453 1.409 . S
C1451 H1443 0.930 . S
C1451 C1452 1.355 . S
C1451 C1453 1.415 . S
C1452 C1451 1.355 . S
C1452 C1454 1.419 . S
C1453 C1448 1.425 . S
C1453 C1450 1.409 . S
C1453 C1451 1.415 . S
C1454 H1444 0.930 . S
C1454 C1452 1.419 . S
C1454 C1455 1.362 . S
C1455 H1445 0.930 . S
C1455 C1448 1.409 . S
C1455 C1454 1.362 . S
H1456 C1462 0.930 . S
H1457 C1465 0.930 . S
H1458 C1466 0.930 . S
H1459 C1467 0.930 . S
H1460 C1470 0.930 1_554 S
H1461 C1471 0.930 . S
C1462 H1456 0.930 . S
C1462 C1463 1.355 . S
C1462 C1464 1.415 . S
C1463 C1462 1.355 . S
C1463 C1465 1.419 . S
C1464 C1462 1.415 . S
C1464 C1469 1.425 . S
C1464 C1471 1.409 . S
C1465 H1457 0.930 . S
C1465 C1463 1.419 . S
C1465 C1466 1.362 . S
C1466 H1458 0.930 . S
C1466 C1465 1.362 . S
C1466 C1469 1.409 . S
C1467 H1459 0.930 . S
C1467 C1468 1.355 . S
C1467 C1469 1.415 . S
C1468 C1467 1.355 . S
C1468 C1470 1.419 . S
C1469 C1464 1.425 . S
C1469 C1466 1.409 . S
C1469 C1467 1.415 . S
C1470 H1460 0.930 1_556 S
C1470 C1468 1.419 . S
C1470 C1471 1.362 . S
C1471 H1461 0.930 . S
C1471 C1464 1.409 . S
C1471 C1470 1.362 . S
H1472 C1478 0.930 . S
H1473 C1481 0.930 . S
H1474 C1482 0.930 . S
H1475 C1483 0.930 . S
H1476 C1486 0.930 . S
H1477 C1487 0.930 . S
C1478 H1472 0.930 . S
C1478 C1479 1.355 . S
C1478 C1480 1.415 . S
C1479 C1478 1.355 . S
C1479 C1481 1.419 . S
C1480 C1478 1.415 . S
C1480 C1485 1.425 . S
C1480 C1487 1.409 . S
C1481 H1473 0.930 . S
C1481 C1479 1.419 . S
C1481 C1482 1.362 . S
C1482 H1474 0.930 . S
C1482 C1481 1.362 . S
C1482 C1485 1.409 . S
C1483 H1475 0.930 . S
C1483 C1484 1.355 . S
C1483 C1485 1.415 . S
C1484 C1483 1.355 . S
C1484 C1486 1.419 . S
C1485 C1480 1.425 . S
C1485 C1482 1.409 . S
C1485 C1483 1.415 . S
C1486 H1476 0.930 . S
C1486 C1484 1.419 . S
C1486 C1487 1.362 . S
C1487 H1477 0.930 . S
C1487 C1480 1.409 . S
C1487 C1486 1.362 . S
H1488 C1494 0.930 . S
H1489 C1497 0.930 . S
H1490 C1498 0.930 . S
H1491 C1499 0.930 . S
H1492 C1502 0.930 . S
H1493 C1503 0.930 . S
C1494 H1488 0.930 . S
C1494 C1495 1.355 . S
C1494 C1496 1.415 . S
C1495 C1494 1.355 . S
C1495 C1497 1.419 . S
C1496 C1494 1.415 . S
C1496 C1501 1.425 . S
C1496 C1503 1.409 . S
C1497 H1489 0.930 . S
C1497 C1495 1.419 . S
C1497 C1498 1.362 . S
C1498 H1490 0.930 . S
C1498 C1497 1.362 . S
C1498 C1501 1.409 . S
C1499 H1491 0.930 . S
C1499 C1500 1.355 . S
C1499 C1501 1.415 . S
C1500 C1499 1.355 . S
C1500 C1502 1.419 1_556 S
C1501 C1496 1.425 . S
C1501 C1498 1.409 . S
C1501 C1499 1.415 . S
C1502 H1492 0.930 . S
C1502 C1500 1.419 1_554 S
C1502 C1503 1.362 1_554 S
C1503 H1493 0.930 . S
C1503 C1496 1.409 . S
C1503 C1502 1.362 1_556 S
H1504 C1510 0.930 . S
H1505 C1513 0.930 . S
H1506 C1514 0.930 . S
H1507 C1515 0.930 . S
H1508 C1518 0.930 . S
H1509 C1519 0.930 . S
C1510 H1504 0.930 . S
C1510 C1511 1.355 . S
C1510 C1512 1.415 . S
C1511 C1510 1.355 . S
C1511 C1513 1.419 . S
C1512 C1510 1.415 . S
C1512 C1517 1.425 . S
C1512 C1519 1.409 . S
C1513 H1505 0.930 . S
C1513 C1511 1.419 . S
C1513 C1514 1.362 . S
C1514 H1506 0.930 . S
C1514 C1513 1.362 . S
C1514 C1517 1.409 . S
C1515 H1507 0.930 . S
C1515 C1516 1.355 . S
C1515 C1517 1.415 . S
C1516 C1515 1.355 . S
C1516 C1518 1.419 . S
C1517 C1512 1.425 . S
C1517 C1514 1.409 . S
C1517 C1515 1.415 . S
C1518 H1508 0.930 . S
C1518 C1516 1.419 . S
C1518 C1519 1.362 . S
C1519 H1509 0.930 . S
C1519 C1512 1.409 . S
C1519 C1518 1.362 . S
H1520 C1526 0.930 . S
H1521 C1529 0.930 . S
H1522 C1530 0.930 . S
H1523 C1531 0.930 . S
H1524 C1534 0.930 . S
H1525 C1535 0.930 . S
C1526 H1520 0.930 . S
C1526 C1527 1.355 . S
C1526 C1528 1.415 . S
C1527 C1526 1.355 . S
C1527 C1529 1.419 . S
C1528 C1526 1.415 . S
C1528 C1533 1.425 . S
C1528 C1535 1.409 . S
C1529 H1521 0.930 . S
C1529 C1527 1.419 . S
C1529 C1530 1.362 . S
C1530 H1522 0.930 . S
C1530 C1529 1.362 . S
C1530 C1533 1.409 . S
C1531 H1523 0.930 . S
C1531 C1532 1.355 . S
C1531 C1533 1.415 . S
C1532 C1531 1.355 . S
C1532 C1534 1.419 . S
C1533 C1528 1.425 . S
C1533 C1530 1.409 . S
C1533 C1531 1.415 . S
C1534 H1524 0.930 . S
C1534 C1532 1.419 . S
C1534 C1535 1.362 . S
C1535 H1525 0.930 . S
C1535 C1528 1.409 . S
C1535 C1534 1.362 . S
H1536 C1542 0.930 . S
H1537 C1545 0.930 . S
H1538 C1546 0.930 . S
H1539 C1547 0.930 . S
H1540 C1550 0.930 . S
H1541 C1551 0.930 . S
C1542 H1536 0.930 . S
C1542 C1543 1.355 . S
C1542 C1544 1.415 . S
C1543 C1542 1.355 . S
C1543 C1545 1.419 . S
C1544 C1542 1.415 . S
C1544 C1549 1.425 . S
C1544 C1551 1.409 . S
C1545 H1537 0.930 . S
C1545 C1543 1.419 . S
C1545 C1546 1.362 . S
C1546 H1538 0.930 . S
C1546 C1545 1.362 . S
C1546 C1549 1.409 . S
C1547 H1539 0.930 . S
C1547 C1548 1.355 . S
C1547 C1549 1.415 . S
C1548 C1547 1.355 . S
C1548 C1550 1.419 . S
C1549 C1544 1.425 . S
C1549 C1546 1.409 . S
C1549 C1547 1.415 . S
C1550 H1540 0.930 . S
C1550 C1548 1.419 . S
C1550 C1551 1.362 . S
C1551 H1541 0.930 . S
C1551 C1544 1.409 . S
C1551 C1550 1.362 . S
H1552 C1558 0.930 . S
H1553 C1561 0.930 . S
H1554 C1562 0.930 . S
H1555 C1563 0.930 . S
H1556 C1566 0.930 . S
H1557 C1567 0.930 . S
C1558 H1552 0.930 . S
C1558 C1559 1.355 . S
C1558 C1560 1.415 . S
C1559 C1558 1.355 . S
C1559 C1561 1.419 . S
C1560 C1558 1.415 . S
C1560 C1565 1.425 . S
C1560 C1567 1.409 . S
C1561 H1553 0.930 . S
C1561 C1559 1.419 . S
C1561 C1562 1.362 . S
C1562 H1554 0.930 . S
C1562 C1561 1.362 . S
C1562 C1565 1.409 . S
C1563 H1555 0.930 . S
C1563 C1564 1.355 . S
C1563 C1565 1.415 . S
C1564 C1563 1.355 . S
C1564 C1566 1.419 . S
C1565 C1560 1.425 . S
C1565 C1562 1.409 . S
C1565 C1563 1.415 . S
C1566 H1556 0.930 . S
C1566 C1564 1.419 . S
C1566 C1567 1.362 . S
C1567 H1557 0.930 . S
C1567 C1560 1.409 . S
C1567 C1566 1.362 . S
H1568 C1574 0.930 . S
H1569 C1577 0.930 . S
H1570 C1578 0.930 . S
H1571 C1579 0.930 . S
H1572 C1582 0.930 . S
H1573 C1583 0.930 . S
C1574 H1568 0.930 . S
C1574 C1575 1.355 . S
C1574 C1576 1.415 . S
C1575 C1574 1.355 . S
C1575 C1577 1.419 . S
C1576 C1574 1.415 . S
C1576 C1581 1.425 . S
C1576 C1583 1.409 . S
C1577 H1569 0.930 . S
C1577 C1575 1.419 . S
C1577 C1578 1.362 . S
C1578 H1570 0.930 . S
C1578 C1577 1.362 . S
C1578 C1581 1.409 . S
C1579 H1571 0.930 . S
C1579 C1580 1.355 . S
C1579 C1581 1.415 . S
C1580 C1579 1.355 . S
C1580 C1582 1.419 . S
C1581 C1576 1.425 . S
C1581 C1578 1.409 . S
C1581 C1579 1.415 . S
C1582 H1572 0.930 . S
C1582 C1580 1.419 . S
C1582 C1583 1.362 . S
C1583 H1573 0.930 . S
C1583 C1576 1.409 . S
C1583 C1582 1.362 . S
H1584 C1590 0.930 . S
H1585 C1593 0.930 . S
H1586 C1594 0.930 . S
H1587 C1595 0.930 . S
H1588 C1598 0.930 . S
H1589 C1599 0.930 . S
C1590 H1584 0.930 . S
C1590 C1591 1.355 . S
C1590 C1592 1.415 . S
C1591 C1590 1.355 . S
C1591 C1593 1.419 . S
C1592 C1590 1.415 . S
C1592 C1597 1.425 . S
C1592 C1599 1.409 . S
C1593 H1585 0.930 . S
C1593 C1591 1.419 . S
C1593 C1594 1.362 . S
C1594 H1586 0.930 . S
C1594 C1593 1.362 . S
C1594 C1597 1.409 . S
C1595 H1587 0.930 . S
C1595 C1596 1.355 . S
C1595 C1597 1.415 . S
C1596 C1595 1.355 . S
C1596 C1598 1.419 . S
C1597 C1592 1.425 . S
C1597 C1594 1.409 . S
C1597 C1595 1.415 . S
C1598 H1588 0.930 . S
C1598 C1596 1.419 . S
C1598 C1599 1.362 . S
C1599 H1589 0.930 . S
C1599 C1592 1.409 . S
C1599 C1598 1.362 . S
H1600 C1606 0.930 . S
H1601 C1609 0.930 . S
H1602 C1610 0.930 . S
H1603 C1611 0.930 . S
H1604 C1614 0.930 . S
H1605 C1615 0.930 . S
C1606 H1600 0.930 . S
C1606 C1607 1.355 . S
C1606 C1608 1.415 . S
C1607 C1606 1.355 . S
C1607 C1609 1.419 . S
C1608 C1606 1.415 . S
C1608 C1613 1.425 . S
C1608 C1615 1.409 . S
C1609 H1601 0.930 . S
C1609 C1607 1.419 . S
C1609 C1610 1.362 . S
C1610 H1602 0.930 . S
C1610 C1609 1.362 . S
C1610 C1613 1.409 . S
C1611 H1603 0.930 . S
C1611 C1612 1.355 . S
C1611 C1613 1.415 . S
C1612 C1611 1.355 . S
C1612 C1614 1.419 . S
C1613 C1608 1.425 . S
C1613 C1610 1.409 . S
C1613 C1611 1.415 . S
C1614 H1604 0.930 . S
C1614 C1612 1.419 . S
C1614 C1615 1.362 . S
C1615 H1605 0.930 . S
C1615 C1608 1.409 . S
C1615 C1614 1.362 . S
H1616 C1622 0.930 . S
H1617 C1625 0.930 . S
H1618 C1626 0.930 . S
H1619 C1627 0.930 . S
H1620 C1630 0.930 . S
H1621 C1631 0.930 . S
C1622 H1616 0.930 . S
C1622 C1623 1.355 . S
C1622 C1624 1.415 . S
C1623 C1622 1.355 . S
C1623 C1625 1.419 . S
C1624 C1622 1.415 . S
C1624 C1629 1.425 . S
C1624 C1631 1.409 . S
C1625 H1617 0.930 . S
C1625 C1623 1.419 . S
C1625 C1626 1.362 . S
C1626 H1618 0.930 . S
C1626 C1625 1.362 . S
C1626 C1629 1.409 . S
C1627 H1619 0.930 . S
C1627 C1628 1.355 . S
C1627 C1629 1.415 . S
C1628 C1627 1.355 . S
C1628 C1630 1.419 . S
C1629 C1624 1.425 . S
C1629 C1626 1.409 . S
C1629 C1627 1.415 . S
C1630 H1620 0.930 . S
C1630 C1628 1.419 . S
C1630 C1631 1.362 . S
C1631 H1621 0.930 . S
C1631 C1624 1.409 . S
C1631 C1630 1.362 . S
H1632 C1638 0.930 . S
H1633 C1641 0.930 . S
H1634 C1642 0.930 . S
H1635 C1643 0.930 . S
H1636 C1646 0.930 . S
H1637 C1647 0.930 . S
C1638 H1632 0.930 . S
C1638 C1639 1.355 . S
C1638 C1640 1.415 . S
C1639 C1638 1.355 . S
C1639 C1641 1.419 . S
C1640 C1638 1.415 . S
C1640 C1645 1.425 . S
C1640 C1647 1.409 . S
C1641 H1633 0.930 . S
C1641 C1639 1.419 . S
C1641 C1642 1.362 . S
C1642 H1634 0.930 . S
C1642 C1641 1.362 . S
C1642 C1645 1.409 . S
C1643 H1635 0.930 . S
C1643 C1644 1.355 . S
C1643 C1645 1.415 . S
C1644 C1643 1.355 . S
C1644 C1646 1.419 . S
C1645 C1640 1.425 . S
C1645 C1642 1.409 . S
C1645 C1643 1.415 . S
C1646 H1636 0.930 . S
C1646 C1644 1.419 . S
C1646 C1647 1.362 . S
C1647 H1637 0.930 . S
C1647 C1640 1.409 . S
C1647 C1646 1.362 . S
H1648 C1654 0.930 . S
H1649 C1657 0.930 . S
H1650 C1658 0.930 . S
H1651 C1659 0.930 . S
H1652 C1662 0.930 . S
H1653 C1663 0.930 . S
C1654 H1648 0.930 . S
C1654 C1655 1.355 . S
C1654 C1656 1.415 . S
C1655 C1654 1.355 . S
C1655 C1657 1.419 . S
C1656 C1654 1.415 . S
C1656 C1661 1.425 . S
C1656 C1663 1.409 . S
C1657 H1649 0.930 . S
C1657 C1655 1.419 . S
C1657 C1658 1.362 . S
C1658 H1650 0.930 . S
C1658 C1657 1.362 . S
C1658 C1661 1.409 . S
C1659 H1651 0.930 . S
C1659 C1660 1.355 . S
C1659 C1661 1.415 . S
C1660 C1659 1.355 . S
C1660 C1662 1.419 . S
C1661 C1656 1.425 . S
C1661 C1658 1.409 . S
C1661 C1659 1.415 . S
C1662 H1652 0.930 . S
C1662 C1660 1.419 . S
C1662 C1663 1.362 . S
C1663 H1653 0.930 . S
C1663 C1656 1.409 . S
C1663 C1662 1.362 . S
H1664 C1670 0.930 . S
H1665 C1673 0.930 . S
H1666 C1674 0.930 . S
H1667 C1675 0.930 . S
H1668 C1678 0.930 . S
H1669 C1679 0.930 . S
C1670 H1664 0.930 . S
C1670 C1671 1.355 . S
C1670 C1672 1.415 . S
C1671 C1670 1.355 . S
C1671 C1673 1.419 . S
C1672 C1670 1.415 . S
C1672 C1677 1.425 . S
C1672 C1679 1.409 . S
C1673 H1665 0.930 . S
C1673 C1671 1.419 . S
C1673 C1674 1.362 . S
C1674 H1666 0.930 . S
C1674 C1673 1.362 . S
C1674 C1677 1.409 . S
C1675 H1667 0.930 . S
C1675 C1676 1.355 . S
C1675 C1677 1.415 . S
C1676 C1675 1.355 . S
C1676 C1678 1.419 . S
C1677 C1672 1.425 . S
C1677 C1674 1.409 . S
C1677 C1675 1.415 . S
C1678 H1668 0.930 . S
C1678 C1676 1.419 . S
C1678 C1679 1.362 . S
C1679 H1669 0.930 . S
C1679 C1672 1.409 . S
C1679 C1678 1.362 . S
H1680 C1686 0.930 1_545 S
H1681 C1689 0.930 . S
H1682 C1690 0.930 . S
H1683 C1691 0.930 . S
H1684 C1694 0.930 . S
H1685 C1695 0.930 1_545 S
C1686 H1680 0.930 1_565 S
C1686 C1687 1.355 . S
C1686 C1688 1.415 . S
C1687 C1686 1.355 . S
C1687 C1689 1.419 . S
C1688 C1686 1.415 . S
C1688 C1693 1.425 . S
C1688 C1695 1.409 . S
C1689 H1681 0.930 . S
C1689 C1687 1.419 . S
C1689 C1690 1.362 . S
C1690 H1682 0.930 . S
C1690 C1689 1.362 . S
C1690 C1693 1.409 . S
C1691 H1683 0.930 . S
C1691 C1692 1.355 . S
C1691 C1693 1.415 . S
C1692 C1691 1.355 . S
C1692 C1694 1.419 . S
C1693 C1688 1.425 . S
C1693 C1690 1.409 . S
C1693 C1691 1.415 . S
C1694 H1684 0.930 . S
C1694 C1692 1.419 . S
C1694 C1695 1.362 . S
C1695 H1685 0.930 1_565 S
C1695 C1688 1.409 . S
C1695 C1694 1.362 . S
H1696 C1702 0.930 . S
H1697 C1705 0.930 . S
H1698 C1706 0.930 . S
H1699 C1707 0.930 . S
H1700 C1710 0.930 . S
H1701 C1711 0.930 . S
C1702 H1696 0.930 . S
C1702 C1703 1.355 . S
C1702 C1704 1.415 . S
C1703 C1702 1.355 . S
C1703 C1705 1.419 . S
C1704 C1702 1.415 . S
C1704 C1709 1.425 . S
C1704 C1711 1.409 . S
C1705 H1697 0.930 . S
C1705 C1703 1.419 . S
C1705 C1706 1.362 . S
C1706 H1698 0.930 . S
C1706 C1705 1.362 . S
C1706 C1709 1.409 . S
C1707 H1699 0.930 . S
C1707 C1708 1.355 . S
C1707 C1709 1.415 . S
C1708 C1707 1.355 . S
C1708 C1710 1.419 . S
C1709 C1704 1.425 . S
C1709 C1706 1.409 . S
C1709 C1707 1.415 . S
C1710 H1700 0.930 . S
C1710 C1708 1.419 . S
C1710 C1711 1.362 . S
C1711 H1701 0.930 . S
C1711 C1704 1.409 . S
C1711 C1710 1.362 . S
H1712 C1718 0.930 . S
H1713 C1721 0.930 . S
H1714 C1722 0.930 . S
H1715 C1723 0.930 . S
H1716 C1726 0.930 . S
H1717 C1727 0.930 . S
C1718 H1712 0.930 . S
C1718 C1719 1.355 . S
C1718 C1720 1.415 . S
C1719 C1718 1.355 . S
C1719 C1721 1.419 . S
C1720 C1718 1.415 . S
C1720 C1725 1.425 . S
C1720 C1727 1.409 . S
C1721 H1713 0.930 . S
C1721 C1719 1.419 . S
C1721 C1722 1.362 . S
C1722 H1714 0.930 . S
C1722 C1721 1.362 . S
C1722 C1725 1.409 . S
C1723 H1715 0.930 . S
C1723 C1724 1.355 . S
C1723 C1725 1.415 . S
C1724 C1723 1.355 . S
C1724 C1726 1.419 . S
C1725 C1720 1.425 . S
C1725 C1722 1.409 . S
C1725 C1723 1.415 . S
C1726 H1716 0.930 . S
C1726 C1724 1.419 . S
C1726 C1727 1.362 . S
C1727 H1717 0.930 . S
C1727 C1720 1.409 . S
C1727 C1726 1.362 . S
H1728 C1734 0.930 . S
H1729 C1737 0.930 . S
H1730 C1738 0.930 . S
H1731 C1739 0.930 . S
H1732 C1742 0.930 . S
H1733 C1743 0.930 . S
C1734 H1728 0.930 . S
C1734 C1735 1.355 . S
C1734 C1736 1.415 . S
C1735 C1734 1.355 . S
C1735 C1737 1.419 . S
C1736 C1734 1.415 . S
C1736 C1741 1.425 . S
C1736 C1743 1.409 . S
C1737 H1729 0.930 . S
C1737 C1735 1.419 . S
C1737 C1738 1.362 . S
C1738 H1730 0.930 . S
C1738 C1737 1.362 . S
C1738 C1741 1.409 . S
C1739 H1731 0.930 . S
C1739 C1740 1.355 . S
C1739 C1741 1.415 . S
C1740 C1739 1.355 . S
C1740 C1742 1.419 . S
C1741 C1736 1.425 . S
C1741 C1738 1.409 . S
C1741 C1739 1.415 . S
C1742 H1732 0.930 . S
C1742 C1740 1.419 . S
C1742 C1743 1.362 . S
C1743 H1733 0.930 . S
C1743 C1736 1.409 . S
C1743 C1742 1.362 . S
H1744 C1750 0.930 . S
H1745 C1753 0.930 . S
H1746 C1754 0.930 . S
H1747 C1755 0.930 . S
H1748 C1758 0.930 . S
H1749 C1759 0.930 . S
C1750 H1744 0.930 . S
C1750 C1751 1.355 . S
C1750 C1752 1.415 . S
C1751 C1750 1.355 . S
C1751 C1753 1.419 . S
C1752 C1750 1.415 . S
C1752 C1757 1.425 . S
C1752 C1759 1.409 . S
C1753 H1745 0.930 . S
C1753 C1751 1.419 . S
C1753 C1754 1.362 . S
C1754 H1746 0.930 . S
C1754 C1753 1.362 . S
C1754 C1757 1.409 . S
C1755 H1747 0.930 . S
C1755 C1756 1.355 . S
C1755 C1757 1.415 . S
C1756 C1755 1.355 . S
C1756 C1758 1.419 . S
C1757 C1752 1.425 . S
C1757 C1754 1.409 . S
C1757 C1755 1.415 . S
C1758 H1748 0.930 . S
C1758 C1756 1.419 . S
C1758 C1759 1.362 . S
C1759 H1749 0.930 . S
C1759 C1752 1.409 . S
C1759 C1758 1.362 . S
H1760 C1766 0.930 . S
H1761 C1769 0.930 . S
H1762 C1770 0.930 . S
H1763 C1771 0.930 . S
H1764 C1774 0.930 . S
H1765 C1775 0.930 . S
C1766 H1760 0.930 . S
C1766 C1767 1.355 . S
C1766 C1768 1.415 . S
C1767 C1766 1.355 . S
C1767 C1769 1.419 . S
C1768 C1766 1.415 . S
C1768 C1773 1.425 . S
C1768 C1775 1.409 . S
C1769 H1761 0.930 . S
C1769 C1767 1.419 . S
C1769 C1770 1.362 . S
C1770 H1762 0.930 . S
C1770 C1769 1.362 . S
C1770 C1773 1.409 . S
C1771 H1763 0.930 . S
C1771 C1772 1.355 . S
C1771 C1773 1.415 . S
C1772 C1771 1.355 . S
C1772 C1774 1.419 . S
C1773 C1768 1.425 . S
C1773 C1770 1.409 . S
C1773 C1771 1.415 . S
C1774 H1764 0.930 . S
C1774 C1772 1.419 . S
C1774 C1775 1.362 . S
C1775 H1765 0.930 . S
C1775 C1768 1.409 . S
C1775 C1774 1.362 . S
H1776 C1782 0.930 1_655 S
H1777 C1785 0.930 . S
H1778 C1786 0.930 . S
H1779 C1787 0.930 . S
H1780 C1790 0.930 . S
H1781 C1791 0.920 1_655 S
C1782 H1776 0.930 1_455 S
C1782 C1783 1.355 1_554 S
C1782 C1784 1.415 . S
C1783 C1782 1.355 1_556 S
C1783 C1785 1.419 . S
C1784 C1782 1.415 . S
C1784 C1789 1.425 . S
C1784 C1791 1.422 . S
C1785 H1777 0.930 . S
C1785 C1783 1.419 . S
C1785 C1786 1.362 . S
C1786 H1778 0.930 . S
C1786 C1785 1.362 . S
C1786 C1789 1.409 1_556 S
C1787 H1779 0.930 . S
C1787 C1788 1.355 . S
C1787 C1789 1.415 . S
C1788 C1787 1.355 . S
C1788 C1790 1.419 . S
C1789 C1784 1.425 . S
C1789 C1786 1.409 1_554 S
C1789 C1787 1.415 . S
C1790 H1780 0.930 . S
C1790 C1788 1.419 . S
C1790 C1791 1.361 . S
C1791 H1781 0.920 1_455 S
C1791 C1784 1.422 . S
C1791 C1790 1.361 . S
H1792 C1798 0.930 . S
H1793 C1801 0.930 . S
H1794 C1802 0.930 . S
H1795 C1803 0.930 . S
H1796 C1806 0.930 . S
H1797 C1807 0.930 1_455 S
C1798 H1792 0.930 . S
C1798 C1799 1.355 . S
C1798 C1800 1.415 1_455 S
C1799 C1798 1.355 . S
C1799 C1801 1.419 1_455 S
C1800 C1798 1.415 1_655 S
C1800 C1805 1.425 . S
C1800 C1807 1.409 . S
C1801 H1793 0.930 . S
C1801 C1799 1.419 1_655 S
C1801 C1802 1.362 . S
C1802 H1794 0.930 . S
C1802 C1801 1.362 . S
C1802 C1805 1.409 . S
C1803 H1795 0.930 . S
C1803 C1804 1.355 . S
C1803 C1805 1.415 . S
C1804 C1803 1.355 . S
C1804 C1806 1.419 . S
C1805 C1800 1.425 . S
C1805 C1802 1.409 . S
C1805 C1803 1.415 . S
C1806 H1796 0.930 . S
C1806 C1804 1.419 . S
C1806 C1807 1.362 . S
C1807 H1797 0.930 1_655 S
C1807 C1800 1.409 . S
C1807 C1806 1.362 . S
H1808 C1814 0.930 . S
H1809 C1817 0.930 . S
H1810 C1818 0.930 . S
H1811 C1819 0.930 . S
H1812 C1822 0.930 . S
H1813 C1823 0.930 . S
C1814 H1808 0.930 . S
C1814 C1815 1.355 . S
C1814 C1816 1.415 . S
C1815 C1814 1.355 . S
C1815 C1817 1.419 . S
C1816 C1814 1.415 . S
C1816 C1821 1.425 . S
C1816 C1823 1.409 . S
C1817 H1809 0.930 . S
C1817 C1815 1.419 . S
C1817 C1818 1.362 . S
C1818 H1810 0.930 . S
C1818 C1817 1.362 . S
C1818 C1821 1.409 . S
C1819 H1811 0.930 . S
C1819 C1820 1.355 . S
C1819 C1821 1.415 . S
C1820 C1819 1.355 . S
C1820 C1822 1.419 . S
C1821 C1816 1.425 . S
C1821 C1818 1.409 . S
C1821 C1819 1.415 . S
C1822 H1812 0.930 . S
C1822 C1820 1.419 . S
C1822 C1823 1.362 . S
C1823 H1813 0.930 . S
C1823 C1816 1.409 . S
C1823 C1822 1.362 . S
H1824 C1830 0.930 . S
H1825 C1833 0.930 . S
H1826 C1834 0.930 . S
H1827 C1835 0.930 . S
H1828 C1838 0.930 . S
H1829 C1839 0.930 . S
C1830 H1824 0.930 . S
C1830 C1831 1.355 . S
C1830 C1832 1.415 . S
C1831 C1830 1.355 . S
C1831 C1833 1.419 . S
C1832 C1830 1.415 . S
C1832 C1837 1.425 . S
C1832 C1839 1.409 . S
C1833 H1825 0.930 . S
C1833 C1831 1.419 . S
C1833 C1834 1.362 . S
C1834 H1826 0.930 . S
C1834 C1833 1.362 . S
C1834 C1837 1.409 . S
C1835 H1827 0.930 . S
C1835 C1836 1.355 . S
C1835 C1837 1.415 . S
C1836 C1835 1.355 . S
C1836 C1838 1.419 . S
C1837 C1832 1.425 . S
C1837 C1834 1.409 . S
C1837 C1835 1.415 . S
C1838 H1828 0.930 . S
C1838 C1836 1.419 . S
C1838 C1839 1.362 . S
C1839 H1829 0.930 . S
C1839 C1832 1.409 . S
C1839 C1838 1.362 . S
H1840 C1846 0.930 . S
H1841 C1849 0.908 1_655 S
H1842 C1850 0.930 1_655 S
H1843 C1851 0.930 . S
H1844 C1854 0.930 . S
H1845 C1855 0.930 . S
C1846 H1840 0.930 . S
C1846 C1847 1.355 . S
C1846 C1848 1.415 . S
C1847 C1846 1.355 . S
C1847 C1849 1.419 . S
C1848 C1846 1.415 . S
C1848 C1853 1.425 . S
C1848 C1855 1.409 . S
C1849 H1841 0.908 1_455 S
C1849 C1847 1.419 . S
C1849 C1850 1.362 . S
C1850 H1842 0.930 1_455 S
C1850 C1849 1.362 . S
C1850 C1853 1.409 . S
C1851 H1843 0.930 . S
C1851 C1852 1.355 . S
C1851 C1853 1.415 . S
C1852 C1851 1.355 . S
C1852 C1854 1.419 . S
C1853 C1848 1.425 . S
C1853 C1850 1.409 . S
C1853 C1851 1.415 . S
C1854 H1844 0.930 . S
C1854 C1852 1.419 . S
C1854 C1855 1.362 . S
C1855 H1845 0.930 . S
C1855 C1848 1.409 . S
C1855 C1854 1.362 . S
H1856 C1862 0.930 . S
H1857 C1865 0.930 . S
H1858 C1866 0.930 . S
H1859 C1867 0.930 . S
H1860 C1870 0.930 . S
H1861 C1871 0.930 . S
C1862 H1856 0.930 . S
C1862 C1863 1.355 . S
C1862 C1864 1.415 . S
C1863 C1862 1.355 . S
C1863 C1865 1.419 . S
C1864 C1862 1.415 . S
C1864 C1869 1.425 . S
C1864 C1871 1.409 . S
C1865 H1857 0.930 . S
C1865 C1863 1.419 . S
C1865 C1866 1.362 . S
C1866 H1858 0.930 . S
C1866 C1865 1.362 . S
C1866 C1869 1.409 . S
C1867 H1859 0.930 . S
C1867 C1868 1.355 . S
C1867 C1869 1.415 . S
C1868 C1867 1.355 . S
C1868 C1870 1.419 . S
C1869 C1864 1.425 . S
C1869 C1866 1.409 . S
C1869 C1867 1.415 . S
C1870 H1860 0.930 . S
C1870 C1868 1.419 . S
C1870 C1871 1.362 . S
C1871 H1861 0.930 . S
C1871 C1864 1.409 . S
C1871 C1870 1.362 . S
H1872 C1878 0.930 . S
H1873 C1881 0.930 . S
H1874 C1882 0.930 . S
H1875 C1883 0.930 . S
H1876 C1886 0.930 . S
H1877 C1887 0.930 . S
C1878 H1872 0.930 . S
C1878 C1879 1.355 . S
C1878 C1880 1.415 . S
C1879 C1878 1.355 . S
C1879 C1881 1.419 . S
C1880 C1878 1.415 . S
C1880 C1885 1.425 . S
C1880 C1887 1.409 . S
C1881 H1873 0.930 . S
C1881 C1879 1.419 . S
C1881 C1882 1.362 . S
C1882 H1874 0.930 . S
C1882 C1881 1.362 . S
C1882 C1885 1.409 . S
C1883 H1875 0.930 . S
C1883 C1884 1.355 . S
C1883 C1885 1.415 . S
C1884 C1883 1.355 . S
C1884 C1886 1.419 . S
C1885 C1880 1.425 . S
C1885 C1882 1.409 . S
C1885 C1883 1.415 . S
C1886 H1876 0.930 . S
C1886 C1884 1.419 . S
C1886 C1887 1.362 . S
C1887 H1877 0.930 . S
C1887 C1880 1.409 . S
C1887 C1886 1.362 . S
H1888 C1894 0.930 . S
H1889 C1897 0.930 . S
H1890 C1898 0.930 1_554 S
H1891 C1899 0.930 . S
H1892 C1902 0.930 . S
H1893 C1903 0.930 . S
C1894 H1888 0.930 . S
C1894 C1895 1.355 1_556 S
C1894 C1896 1.415 . S
C1895 C1894 1.355 1_554 S
C1895 C1897 1.419 . S
C1896 C1894 1.415 . S
C1896 C1901 1.425 . S
C1896 C1903 1.409 . S
C1897 H1889 0.930 . S
C1897 C1895 1.419 . S
C1897 C1898 1.362 1_554 S
C1898 H1890 0.930 1_556 S
C1898 C1897 1.362 1_556 S
C1898 C1901 1.409 . S
C1899 H1891 0.930 . S
C1899 C1900 1.355 . S
C1899 C1901 1.415 . S
C1900 C1899 1.355 . S
C1900 C1902 1.419 . S
C1901 C1896 1.425 . S
C1901 C1898 1.409 . S
C1901 C1899 1.415 . S
C1902 H1892 0.930 . S
C1902 C1900 1.419 . S
C1902 C1903 1.362 . S
C1903 H1893 0.930 . S
C1903 C1896 1.409 . S
C1903 C1902 1.362 . S
H1904 C1910 0.930 . S
H1905 C1913 0.930 . S
H1906 C1914 0.930 . S
H1907 C1915 0.930 . S
H1908 C1918 0.930 . S
H1909 C1919 0.930 . S
C1910 H1904 0.930 . S
C1910 C1911 1.355 . S
C1910 C1912 1.415 . S
C1911 C1910 1.355 . S
C1911 C1913 1.419 . S
C1912 C1910 1.415 . S
C1912 C1917 1.425 . S
C1912 C1919 1.409 . S
C1913 H1905 0.930 . S
C1913 C1911 1.419 . S
C1913 C1914 1.362 . S
C1914 H1906 0.930 . S
C1914 C1913 1.362 . S
C1914 C1917 1.409 . S
C1915 H1907 0.930 . S
C1915 C1916 1.355 . S
C1915 C1917 1.415 . S
C1916 C1915 1.355 . S
C1916 C1918 1.419 . S
C1917 C1912 1.425 . S
C1917 C1914 1.409 . S
C1917 C1915 1.415 . S
C1918 H1908 0.930 . S
C1918 C1916 1.419 . S
C1918 C1919 1.362 . S
C1919 H1909 0.930 . S
C1919 C1912 1.409 . S
C1919 C1918 1.362 . S
H1920 C1926 0.930 . S
H1921 C1929 0.930 . S
H1922 C1930 0.930 . S
H1923 C1931 0.930 . S
H1924 C1934 0.930 . S
H1925 C1935 0.930 . S
C1926 H1920 0.930 . S
C1926 C1927 1.355 . S
C1926 C1928 1.415 . S
C1927 C1926 1.355 . S
C1927 C1929 1.419 . S
C1928 C1926 1.415 . S
C1928 C1933 1.425 . S
C1928 C1935 1.409 . S
C1929 H1921 0.930 . S
C1929 C1927 1.419 . S
C1929 C1930 1.362 . S
C1930 H1922 0.930 . S
C1930 C1929 1.362 . S
C1930 C1933 1.409 . S
C1931 H1923 0.930 . S
C1931 C1932 1.355 . S
C1931 C1933 1.415 . S
C1932 C1931 1.355 . S
C1932 C1934 1.419 . S
C1933 C1928 1.425 . S
C1933 C1930 1.409 . S
C1933 C1931 1.415 . S
C1934 H1924 0.930 . S
C1934 C1932 1.419 . S
C1934 C1935 1.362 . S
C1935 H1925 0.930 . S
C1935 C1928 1.409 . S
C1935 C1934 1.362 . S
H1936 C1942 0.930 . S
H1937 C1945 0.930 . S
H1938 C1946 0.930 . S
H1939 C1947 0.930 . S
H1940 C1950 0.930 . S
H1941 C1951 0.930 . S
C1942 H1936 0.930 . S
C1942 C1943 1.355 . S
C1942 C1944 1.415 . S
C1943 C1942 1.355 . S
C1943 C1945 1.419 . S
C1944 C1942 1.415 . S
C1944 C1949 1.425 . S
C1944 C1951 1.409 . S
C1945 H1937 0.930 . S
C1945 C1943 1.419 . S
C1945 C1946 1.362 . S
C1946 H1938 0.930 . S
C1946 C1945 1.362 . S
C1946 C1949 1.409 . S
C1947 H1939 0.930 . S
C1947 C1948 1.355 . S
C1947 C1949 1.415 . S
C1948 C1947 1.355 . S
C1948 C1950 1.419 . S
C1949 C1944 1.425 . S
C1949 C1946 1.409 . S
C1949 C1947 1.415 . S
C1950 H1940 0.930 . S
C1950 C1948 1.419 . S
C1950 C1951 1.362 . S
C1951 H1941 0.930 . S
C1951 C1944 1.409 . S
C1951 C1950 1.362 . S
H1952 C1958 0.930 . S
H1953 C1961 0.930 . S
H1954 C1962 0.930 . S
H1955 C1963 0.930 . S
H1956 C1966 0.930 . S
H1957 C1967 0.930 . S
C1958 H1952 0.930 . S
C1958 C1959 1.355 . S
C1958 C1960 1.415 . S
C1959 C1958 1.355 . S
C1959 C1961 1.419 . S
C1960 C1958 1.415 . S
C1960 C1965 1.425 . S
C1960 C1967 1.409 . S
C1961 H1953 0.930 . S
C1961 C1959 1.419 . S
C1961 C1962 1.362 . S
C1962 H1954 0.930 . S
C1962 C1961 1.362 . S
C1962 C1965 1.409 . S
C1963 H1955 0.930 . S
C1963 C1964 1.355 . S
C1963 C1965 1.415 . S
C1964 C1963 1.355 . S
C1964 C1966 1.419 . S
C1965 C1960 1.425 . S
C1965 C1962 1.409 . S
C1965 C1963 1.415 . S
C1966 H1956 0.930 . S
C1966 C1964 1.419 . S
C1966 C1967 1.362 . S
C1967 H1957 0.930 . S
C1967 C1960 1.409 . S
C1967 C1966 1.362 . S
H1968 C1974 0.930 . S
H1969 C1977 0.930 . S
H1970 C1978 0.930 . S
H1971 C1979 0.930 . S
H1972 C1982 0.930 . S
H1973 C1983 0.930 . S
C1974 H1968 0.930 . S
C1974 C1975 1.355 . S
C1974 C1976 1.415 . S
C1975 C1974 1.355 . S
C1975 C1977 1.419 . S
C1976 C1974 1.415 . S
C1976 C1981 1.425 . S
C1976 C1983 1.409 . S
C1977 H1969 0.930 . S
C1977 C1975 1.419 . S
C1977 C1978 1.362 . S
C1978 H1970 0.930 . S
C1978 C1977 1.362 . S
C1978 C1981 1.409 . S
C1979 H1971 0.930 . S
C1979 C1980 1.355 . S
C1979 C1981 1.415 . S
C1980 C1979 1.355 . S
C1980 C1982 1.419 . S
C1981 C1976 1.425 . S
C1981 C1978 1.409 . S
C1981 C1979 1.415 . S
C1982 H1972 0.930 . S
C1982 C1980 1.419 . S
C1982 C1983 1.362 . S
C1983 H1973 0.930 . S
C1983 C1976 1.409 . S
C1983 C1982 1.362 . S
H1984 C1990 0.930 . S
H1985 C1993 0.930 . S
H1986 C1994 0.930 . S
H1987 C1995 0.930 . S
H1988 C1998 0.930 . S
H1989 C1999 0.930 . S
C1990 H1984 0.930 . S
C1990 C1991 1.355 . S
C1990 C1992 1.415 . S
C1991 C1990 1.355 . S
C1991 C1993 1.419 . S
C1992 C1990 1.415 . S
C1992 C1997 1.425 . S
C1992 C1999 1.409 . S
C1993 H1985 0.930 . S
C1993 C1991 1.419 . S
C1993 C1994 1.362 . S
C1994 H1986 0.930 . S
C1994 C1993 1.362 . S
C1994 C1997 1.409 . S
C1995 H1987 0.930 . S
C1995 C1996 1.355 . S
C1995 C1997 1.415 . S
C1996 C1995 1.355 . S
C1996 C1998 1.419 . S
C1997 C1992 1.425 . S
C1997 C1994 1.409 . S
C1997 C1995 1.415 . S
C1998 H1988 0.930 . S
C1998 C1996 1.419 . S
C1998 C1999 1.362 . S
C1999 H1989 0.930 . S
C1999 C1992 1.409 . S
C1999 C1998 1.362 . S
H2000 C2006 0.930 . S
H2001 C2009 0.930 . S
H2002 C2010 0.930 . S
H2003 C2011 0.930 . S
H2004 C2014 0.930 . S
H2005 C2015 0.930 . S
C2006 H2000 0.930 . S
C2006 C2007 1.355 . S
C2006 C2008 1.415 . S
C2007 C2006 1.355 . S
C2007 C2009 1.419 . S
C2008 C2006 1.415 . S
C2008 C2013 1.425 . S
C2008 C2015 1.409 . S
C2009 H2001 0.930 . S
C2009 C2007 1.419 . S
C2009 C2010 1.362 . S
C2010 H2002 0.930 . S
C2010 C2009 1.362 . S
C2010 C2013 1.409 . S
C2011 H2003 0.930 . S
C2011 C2012 1.355 . S
C2011 C2013 1.415 . S
C2012 C2011 1.355 . S
C2012 C2014 1.419 . S
C2013 C2008 1.425 . S
C2013 C2010 1.409 . S
C2013 C2011 1.415 . S
C2014 H2004 0.930 . S
C2014 C2012 1.419 . S
C2014 C2015 1.362 . S
C2015 H2005 0.930 . S
C2015 C2008 1.409 . S
C2015 C2014 1.362 . S
H2016 C2022 0.930 . S
H2017 C2025 0.930 . S
H2018 C2026 0.930 . S
H2019 C2027 0.930 . S
H2020 C2030 0.930 . S
H2021 C2031 0.930 . S
C2022 H2016 0.930 . S
C2022 C2023 1.355 . S
C2022 C2024 1.415 . S
C2023 C2022 1.355 . S
C2023 C2025 1.419 . S
C2024 C2022 1.415 . S
C2024 C2029 1.425 . S
C2024 C2031 1.409 . S
C2025 H2017 0.930 . S
C2025 C2023 1.419 . S
C2025 C2026 1.362 . S
C2026 H2018 0.930 . S
C2026 C2025 1.362 . S
C2026 C2029 1.409 . S
C2027 H2019 0.930 . S
C2027 C2028 1.355 . S
C2027 C2029 1.415 . S
C2028 C2027 1.355 . S
C2028 C2030 1.419 . S
C2029 C2024 1.425 . S
C2029 C2026 1.409 . S
C2029 C2027 1.415 . S
C2030 H2020 0.930 . S
C2030 C2028 1.419 . S
C2030 C2031 1.362 . S
C2031 H2021 0.930 . S
C2031 C2024 1.409 . S
C2031 C2030 1.362 . S
H2032 C2038 0.930 . S
H2033 C2041 0.930 . S
H2034 C2042 0.930 . S
H2035 C2043 0.930 . S
H2036 C2046 0.930 . S
H2037 C2047 0.930 . S
C2038 H2032 0.930 . S
C2038 C2039 1.355 . S
C2038 C2040 1.415 . S
C2039 C2038 1.355 . S
C2039 C2041 1.419 1_565 S
C2040 C2038 1.415 . S
C2040 C2045 1.425 . S
C2040 C2047 1.409 . S
C2041 H2033 0.930 . S
C2041 C2039 1.419 1_545 S
C2041 C2042 1.362 . S
C2042 H2034 0.930 . S
C2042 C2041 1.362 . S
C2042 C2045 1.409 1_545 S
C2043 H2035 0.930 . S
C2043 C2044 1.355 . S
C2043 C2045 1.415 . S
C2044 C2043 1.355 . S
C2044 C2046 1.419 . S
C2045 C2040 1.425 . S
C2045 C2042 1.409 1_565 S
C2045 C2043 1.415 . S
C2046 H2036 0.930 . S
C2046 C2044 1.419 . S
C2046 C2047 1.362 . S
C2047 H2037 0.930 . S
C2047 C2040 1.409 . S
C2047 C2046 1.362 . S
H2048 C2054 0.930 1_556 S
H2049 C2057 0.930 . S
H2050 C2058 0.930 . S
H2051 C2059 0.930 . S
H2052 C2062 0.930 . S
H2053 C2063 0.930 1_556 S
C2054 H2048 0.930 1_554 S
C2054 C2055 1.355 . S
C2054 C2056 1.415 . S
C2055 C2054 1.355 . S
C2055 C2057 1.419 . S
C2056 C2054 1.415 . S
C2056 C2061 1.425 . S
C2056 C2063 1.409 1_565 S
C2057 H2049 0.930 . S
C2057 C2055 1.419 . S
C2057 C2058 1.362 . S
C2058 H2050 0.930 . S
C2058 C2057 1.362 . S
C2058 C2061 1.409 . S
C2059 H2051 0.930 . S
C2059 C2060 1.355 1_565 S
C2059 C2061 1.415 . S
C2060 C2059 1.355 1_545 S
C2060 C2062 1.419 . S
C2061 C2056 1.425 . S
C2061 C2058 1.409 . S
C2061 C2059 1.415 . S
C2062 H2052 0.930 . S
C2062 C2060 1.419 . S
C2062 C2063 1.362 . S
C2063 H2053 0.930 1_554 S
C2063 C2056 1.409 1_545 S
C2063 C2062 1.362 . S
H2064 C2070 0.930 . S
H2065 C2073 0.930 . S
H2066 C2074 0.930 . S
H2067 C2075 0.930 . S
H2068 C2078 0.930 . S
H2069 C2079 0.930 . S
C2070 H2064 0.930 . S
C2070 C2071 1.355 . S
C2070 C2072 1.415 . S
C2071 C2070 1.355 . S
C2071 C2073 1.419 . S
C2072 C2070 1.415 . S
C2072 C2077 1.425 . S
C2072 C2079 1.409 . S
C2073 H2065 0.930 . S
C2073 C2071 1.419 . S
C2073 C2074 1.362 . S
C2074 H2066 0.930 . S
C2074 C2073 1.362 . S
C2074 C2077 1.409 . S
C2075 H2067 0.930 . S
C2075 C2076 1.355 . S
C2075 C2077 1.415 . S
C2076 C2075 1.355 . S
C2076 C2078 1.419 . S
C2077 C2072 1.425 . S
C2077 C2074 1.409 . S
C2077 C2075 1.415 . S
C2078 H2068 0.930 . S
C2078 C2076 1.419 . S
C2078 C2079 1.362 . S
C2079 H2069 0.930 . S
C2079 C2072 1.409 . S
C2079 C2078 1.362 . S
H2080 C2086 0.930 . S
H2081 C2089 0.930 . S
H2082 C2090 0.930 . S
H2083 C2091 0.930 . S
H2084 C2094 0.930 . S
H2085 C2095 0.930 . S
C2086 H2080 0.930 . S
C2086 C2087 1.355 . S
C2086 C2088 1.415 . S
C2087 C2086 1.355 . S
C2087 C2089 1.419 . S
C2088 C2086 1.415 . S
C2088 C2093 1.425 . S
C2088 C2095 1.409 . S
C2089 H2081 0.930 . S
C2089 C2087 1.419 . S
C2089 C2090 1.362 . S
C2090 H2082 0.930 . S
C2090 C2089 1.362 . S
C2090 C2093 1.409 . S
C2091 H2083 0.930 . S
C2091 C2092 1.355 . S
C2091 C2093 1.415 . S
C2092 C2091 1.355 . S
C2092 C2094 1.419 . S
C2093 C2088 1.425 . S
C2093 C2090 1.409 . S
C2093 C2091 1.415 . S
C2094 H2084 0.930 . S
C2094 C2092 1.419 . S
C2094 C2095 1.362 . S
C2095 H2085 0.930 . S
C2095 C2088 1.409 . S
C2095 C2094 1.362 . S
H2096 C2102 0.930 . S
H2097 C2105 0.930 . S
H2098 C2106 0.930 . S
H2099 C2107 0.930 . S
H2100 C2110 0.930 . S
H2101 C2111 0.930 . S
C2102 H2096 0.930 . S
C2102 C2103 1.355 . S
C2102 C2104 1.415 . S
C2103 C2102 1.355 . S
C2103 C2105 1.419 . S
C2104 C2102 1.415 . S
C2104 C2109 1.425 . S
C2104 C2111 1.409 . S
C2105 H2097 0.930 . S
C2105 C2103 1.419 . S
C2105 C2106 1.362 . S
C2106 H2098 0.930 . S
C2106 C2105 1.362 . S
C2106 C2109 1.409 . S
C2107 H2099 0.930 . S
C2107 C2108 1.355 . S
C2107 C2109 1.415 . S
C2108 C2107 1.355 . S
C2108 C2110 1.419 . S
C2109 C2104 1.425 . S
C2109 C2106 1.409 . S
C2109 C2107 1.415 . S
C2110 H2100 0.930 . S
C2110 C2108 1.419 . S
C2110 C2111 1.362 . S
C2111 H2101 0.930 . S
C2111 C2104 1.409 . S
C2111 C2110 1.362 . S
H2112 C2118 0.930 . S
H2113 C2121 0.930 . S
H2114 C2122 0.930 . S
H2115 C2123 0.930 . S
H2116 C2126 0.930 . S
H2117 C2127 0.930 . S
C2118 H2112 0.930 . S
C2118 C2119 1.355 . S
C2118 C2120 1.415 . S
C2119 C2118 1.355 . S
C2119 C2121 1.419 . S
C2120 C2118 1.415 . S
C2120 C2125 1.425 . S
C2120 C2127 1.409 . S
C2121 H2113 0.930 . S
C2121 C2119 1.419 . S
C2121 C2122 1.362 . S
C2122 H2114 0.930 . S
C2122 C2121 1.362 . S
C2122 C2125 1.409 . S
C2123 H2115 0.930 . S
C2123 C2124 1.355 . S
C2123 C2125 1.415 . S
C2124 C2123 1.355 . S
C2124 C2126 1.419 . S
C2125 C2120 1.425 . S
C2125 C2122 1.409 . S
C2125 C2123 1.415 . S
C2126 H2116 0.930 . S
C2126 C2124 1.419 . S
C2126 C2127 1.362 . S
C2127 H2117 0.930 . S
C2127 C2120 1.409 . S
C2127 C2126 1.362 . S
H2128 C2134 0.930 . S
H2129 C2137 0.930 . S
H2130 C2138 0.930 . S
H2131 C2139 0.930 . S
H2132 C2142 0.930 . S
H2133 C2143 0.930 . S
C2134 H2128 0.930 . S
C2134 C2135 1.355 . S
C2134 C2136 1.415 . S
C2135 C2134 1.355 . S
C2135 C2137 1.419 . S
C2136 C2134 1.415 . S
C2136 C2141 1.425 . S
C2136 C2143 1.409 . S
C2137 H2129 0.930 . S
C2137 C2135 1.419 . S
C2137 C2138 1.362 . S
C2138 H2130 0.930 . S
C2138 C2137 1.362 . S
C2138 C2141 1.409 . S
C2139 H2131 0.930 . S
C2139 C2140 1.355 . S
C2139 C2141 1.415 . S
C2140 C2139 1.355 . S
C2140 C2142 1.419 . S
C2141 C2136 1.425 . S
C2141 C2138 1.409 . S
C2141 C2139 1.415 . S
C2142 H2132 0.930 . S
C2142 C2140 1.419 . S
C2142 C2143 1.362 . S
C2143 H2133 0.930 . S
C2143 C2136 1.409 . S
C2143 C2142 1.362 . S
H2144 C2150 0.930 . S
H2145 C2153 0.930 . S
H2146 C2154 0.930 . S
H2147 C2155 0.930 . S
H2148 C2158 0.930 . S
H2149 C2159 0.930 . S
C2150 H2144 0.930 . S
C2150 C2151 1.355 . S
C2150 C2152 1.415 . S
C2151 C2150 1.355 . S
C2151 C2153 1.419 . S
C2152 C2150 1.415 . S
C2152 C2157 1.425 . S
C2152 C2159 1.409 . S
C2153 H2145 0.930 . S
C2153 C2151 1.419 . S
C2153 C2154 1.362 . S
C2154 H2146 0.930 . S
C2154 C2153 1.362 . S
C2154 C2157 1.409 . S
C2155 H2147 0.930 . S
C2155 C2156 1.355 . S
C2155 C2157 1.415 . S
C2156 C2155 1.355 . S
C2156 C2158 1.419 . S
C2157 C2152 1.425 . S
C2157 C2154 1.409 . S
C2157 C2155 1.415 . S
C2158 H2148 0.930 . S
C2158 C2156 1.419 . S
C2158 C2159 1.362 . S
C2159 H2149 0.930 . S
C2159 C2152 1.409 . S
C2159 C2158 1.362 . S
H2160 C2166 0.930 . S
H2161 C2169 0.930 . S
H2162 C2170 0.930 . S
H2163 C2171 0.930 . S
H2164 C2174 0.930 . S
H2165 C2175 0.930 . S
C2166 H2160 0.930 . S
C2166 C2167 1.355 . S
C2166 C2168 1.415 . S
C2167 C2166 1.355 . S
C2167 C2169 1.419 . S
C2168 C2166 1.415 . S
C2168 C2173 1.425 . S
C2168 C2175 1.409 . S
C2169 H2161 0.930 . S
C2169 C2167 1.419 . S
C2169 C2170 1.362 . S
C2170 H2162 0.930 . S
C2170 C2169 1.362 . S
C2170 C2173 1.409 . S
C2171 H2163 0.930 . S
C2171 C2172 1.355 . S
C2171 C2173 1.415 . S
C2172 C2171 1.355 . S
C2172 C2174 1.419 . S
C2173 C2168 1.425 . S
C2173 C2170 1.409 . S
C2173 C2171 1.415 . S
C2174 H2164 0.930 . S
C2174 C2172 1.419 . S
C2174 C2175 1.362 . S
C2175 H2165 0.930 . S
C2175 C2168 1.409 . S
C2175 C2174 1.362 . S
H2176 C2182 0.930 . S
H2177 C2185 0.930 . S
H2178 C2186 0.930 . S
H2179 C2187 0.930 . S
H2180 C2190 0.930 . S
H2181 C2191 0.930 . S
C2182 H2176 0.930 . S
C2182 C2183 1.355 . S
C2182 C2184 1.415 . S
C2183 C2182 1.355 . S
C2183 C2185 1.419 . S
C2184 C2182 1.415 . S
C2184 C2189 1.425 . S
C2184 C2191 1.409 . S
C2185 H2177 0.930 . S
C2185 C2183 1.419 . S
C2185 C2186 1.362 . S
C2186 H2178 0.930 . S
C2186 C2185 1.362 . S
C2186 C2189 1.409 . S
C2187 H2179 0.930 . S
C2187 C2188 1.355 . S
C2187 C2189 1.415 . S
C2188 C2187 1.355 . S
C2188 C2190 1.419 . S
C2189 C2184 1.425 . S
C2189 C2186 1.409 . S
C2189 C2187 1.415 . S
C2190 H2180 0.930 . S
C2190 C2188 1.419 . S
C2190 C2191 1.362 . S
C2191 H2181 0.930 . S
C2191 C2184 1.409 . S
C2191 C2190 1.362 . S
H2192 C2198 0.930 . S
H2193 C2201 0.930 . S
H2194 C2202 0.930 . S
H2195 C2203 0.930 . S
H2196 C2206 0.930 . S
H2197 C2207 0.924 1_554 S
C2198 H2192 0.930 . S
C2198 C2199 1.355 . S
C2198 C2200 1.415 . S
C2199 C2198 1.355 . S
C2199 C2201 1.419 . S
C2200 C2198 1.415 . S
C2200 C2205 1.425 . S
C2200 C2207 1.431 . S
C2201 H2193 0.930 . S
C2201 C2199 1.419 . S
C2201 C2202 1.362 . S
C2202 H2194 0.930 . S
C2202 C2201 1.362 . S
C2202 C2205 1.409 . S
C2203 H2195 0.930 . S
C2203 C2204 1.355 1_556 S
C2203 C2205 1.415 . S
C2204 C2203 1.355 1_554 S
C2204 C2206 1.419 . S
C2205 C2200 1.425 . S
C2205 C2202 1.409 . S
C2205 C2203 1.415 . S
C2206 H2196 0.930 . S
C2206 C2204 1.419 . S
C2206 C2207 1.347 1_554 S
C2207 H2197 0.924 1_556 S
C2207 C2200 1.431 . S
C2207 C2206 1.347 1_556 S
H2208 C2214 0.930 . S
H2209 C2217 0.930 . S
H2210 C2218 0.930 . S
H2211 C2219 0.930 . S
H2212 C2222 0.930 . S
H2213 C2223 0.930 . S
C2214 H2208 0.930 . S
C2214 C2215 1.355 . S
C2214 C2216 1.415 . S
C2215 C2214 1.355 . S
C2215 C2217 1.419 . S
C2216 C2214 1.415 . S
C2216 C2221 1.425 . S
C2216 C2223 1.409 . S
C2217 H2209 0.930 . S
C2217 C2215 1.419 . S
C2217 C2218 1.362 . S
C2218 H2210 0.930 . S
C2218 C2217 1.362 . S
C2218 C2221 1.409 . S
C2219 H2211 0.930 . S
C2219 C2220 1.355 . S
C2219 C2221 1.415 . S
C2220 C2219 1.355 . S
C2220 C2222 1.419 . S
C2221 C2216 1.425 . S
C2221 C2218 1.409 . S
C2221 C2219 1.415 . S
C2222 H2212 0.930 . S
C2222 C2220 1.419 . S
C2222 C2223 1.362 . S
C2223 H2213 0.930 . S
C2223 C2216 1.409 . S
C2223 C2222 1.362 . S
H2224 C2230 0.930 . S
H2225 C2233 0.930 . S
H2226 C2234 0.930 1_655 S
H2227 C2235 0.930 . S
H2228 C2238 0.930 . S
H2229 C2239 0.930 . S
C2230 H2224 0.930 . S
C2230 C2231 1.355 . S
C2230 C2232 1.415 . S
C2231 C2230 1.355 . S
C2231 C2233 1.419 . S
C2232 C2230 1.415 . S
C2232 C2237 1.425 . S
C2232 C2239 1.409 . S
C2233 H2225 0.930 . S
C2233 C2231 1.419 . S
C2233 C2234 1.362 . S
C2234 H2226 0.930 1_455 S
C2234 C2233 1.362 . S
C2234 C2237 1.409 . S
C2235 H2227 0.930 . S
C2235 C2236 1.355 . S
C2235 C2237 1.415 . S
C2236 C2235 1.355 . S
C2236 C2238 1.419 . S
C2237 C2232 1.425 . S
C2237 C2234 1.409 . S
C2237 C2235 1.415 . S
C2238 H2228 0.930 . S
C2238 C2236 1.419 . S
C2238 C2239 1.362 . S
C2239 H2229 0.930 . S
C2239 C2232 1.409 . S
C2239 C2238 1.362 . S
H2240 C2246 0.930 . S
H2241 C2249 0.930 . S
H2242 C2250 0.930 . S
H2243 C2251 0.930 . S
H2244 C2254 0.930 . S
H2245 C2255 0.930 . S
C2246 H2240 0.930 . S
C2246 C2247 1.355 . S
C2246 C2248 1.415 . S
C2247 C2246 1.355 . S
C2247 C2249 1.419 . S
C2248 C2246 1.415 . S
C2248 C2253 1.425 . S
C2248 C2255 1.409 . S
C2249 H2241 0.930 . S
C2249 C2247 1.419 . S
C2249 C2250 1.362 . S
C2250 H2242 0.930 . S
C2250 C2249 1.362 . S
C2250 C2253 1.409 . S
C2251 H2243 0.930 . S
C2251 C2252 1.355 . S
C2251 C2253 1.415 . S
C2252 C2251 1.355 . S
C2252 C2254 1.419 . S
C2253 C2248 1.425 . S
C2253 C2250 1.409 . S
C2253 C2251 1.415 . S
C2254 H2244 0.930 . S
C2254 C2252 1.419 . S
C2254 C2255 1.362 . S
C2255 H2245 0.930 . S
C2255 C2248 1.409 . S
C2255 C2254 1.362 . S
H2256 C2262 0.930 . S
H2257 C2265 0.930 . S
H2258 C2266 0.930 . S
H2259 C2267 0.930 . S
H2260 C2270 0.930 . S
H2261 C2271 0.930 . S
C2262 H2256 0.930 . S
C2262 C2263 1.355 . S
C2262 C2264 1.415 . S
C2263 C2262 1.355 . S
C2263 C2265 1.419 . S
C2264 C2262 1.415 . S
C2264 C2269 1.425 . S
C2264 C2271 1.409 . S
C2265 H2257 0.930 . S
C2265 C2263 1.419 . S
C2265 C2266 1.362 . S
C2266 H2258 0.930 . S
C2266 C2265 1.362 . S
C2266 C2269 1.409 . S
C2267 H2259 0.930 . S
C2267 C2268 1.355 . S
C2267 C2269 1.415 . S
C2268 C2267 1.355 . S
C2268 C2270 1.419 . S
C2269 C2264 1.425 . S
C2269 C2266 1.409 . S
C2269 C2267 1.415 . S
C2270 H2260 0.930 . S
C2270 C2268 1.419 . S
C2270 C2271 1.362 . S
C2271 H2261 0.930 . S
C2271 C2264 1.409 . S
C2271 C2270 1.362 . S
H2272 C2278 0.930 . S
H2273 C2281 0.930 . S
H2274 C2282 0.930 . S
H2275 C2283 0.930 . S
H2276 C2286 0.930 . S
H2277 C2287 0.930 . S
C2278 H2272 0.930 . S
C2278 C2279 1.355 . S
C2278 C2280 1.415 . S
C2279 C2278 1.355 . S
C2279 C2281 1.419 . S
C2280 C2278 1.415 . S
C2280 C2285 1.425 . S
C2280 C2287 1.409 . S
C2281 H2273 0.930 . S
C2281 C2279 1.419 . S
C2281 C2282 1.362 . S
C2282 H2274 0.930 . S
C2282 C2281 1.362 . S
C2282 C2285 1.409 . S
C2283 H2275 0.930 . S
C2283 C2284 1.355 . S
C2283 C2285 1.415 . S
C2284 C2283 1.355 . S
C2284 C2286 1.419 . S
C2285 C2280 1.425 . S
C2285 C2282 1.409 . S
C2285 C2283 1.415 . S
C2286 H2276 0.930 . S
C2286 C2284 1.419 . S
C2286 C2287 1.362 . S
C2287 H2277 0.930 . S
C2287 C2280 1.409 . S
C2287 C2286 1.362 . S
H2288 C2294 0.930 1_455 S
H2289 C2297 0.930 . S
H2290 C2298 0.930 . S
H2291 C2299 0.930 1_654 S
H2292 C2302 0.930 . S
H2293 C2303 0.930 . S
C2294 H2288 0.930 1_655 S
C2294 C2295 1.355 . S
C2294 C2296 1.415 1_655 S
C2295 C2294 1.355 . S
C2295 C2297 1.419 . S
C2296 C2294 1.415 1_455 S
C2296 C2301 1.425 1_455 S
C2296 C2303 1.409 . S
C2297 H2289 0.930 . S
C2297 C2295 1.419 . S
C2297 C2298 1.362 . S
C2298 H2290 0.930 . S
C2298 C2297 1.362 . S
C2298 C2301 1.409 . S
C2299 H2291 0.930 1_456 S
C2299 C2300 1.355 1_556 S
C2299 C2301 1.415 1_455 S
C2300 C2299 1.355 1_554 S
C2300 C2302 1.419 1_554 S
C2301 C2296 1.425 1_655 S
C2301 C2298 1.409 . S
C2301 C2299 1.415 1_655 S
C2302 H2292 0.930 . S
C2302 C2300 1.419 1_556 S
C2302 C2303 1.362 . S
C2303 H2293 0.930 . S
C2303 C2296 1.409 . S
C2303 C2302 1.362 . S
H2304 C2310 0.930 . S
H2305 C2313 0.930 . S
H2306 C2314 0.930 . S
H2307 C2315 0.930 . S
H2308 C2318 0.930 . S
H2309 C2319 0.930 . S
C2310 H2304 0.930 . S
C2310 C2311 1.355 . S
C2310 C2312 1.415 . S
C2311 C2310 1.355 . S
C2311 C2313 1.419 . S
C2312 C2310 1.415 . S
C2312 C2317 1.425 . S
C2312 C2319 1.409 . S
C2313 H2305 0.930 . S
C2313 C2311 1.419 . S
C2313 C2314 1.362 . S
C2314 H2306 0.930 . S
C2314 C2313 1.362 . S
C2314 C2317 1.409 . S
C2315 H2307 0.930 . S
C2315 C2316 1.355 . S
C2315 C2317 1.415 . S
C2316 C2315 1.355 . S
C2316 C2318 1.419 . S
C2317 C2312 1.425 . S
C2317 C2314 1.409 . S
C2317 C2315 1.415 . S
C2318 H2308 0.930 . S
C2318 C2316 1.419 . S
C2318 C2319 1.362 . S
C2319 H2309 0.930 . S
C2319 C2312 1.409 . S
C2319 C2318 1.362 . S
H2320 C2326 0.930 . S
H2321 C2329 0.930 . S
H2322 C2330 0.930 . S
H2323 C2331 0.930 . S
H2324 C2334 0.930 . S
H2325 C2335 0.930 . S
C2326 H2320 0.930 . S
C2326 C2327 1.355 . S
C2326 C2328 1.415 . S
C2327 C2326 1.355 . S
C2327 C2329 1.419 . S
C2328 C2326 1.415 . S
C2328 C2333 1.425 . S
C2328 C2335 1.409 . S
C2329 H2321 0.930 . S
C2329 C2327 1.419 . S
C2329 C2330 1.362 . S
C2330 H2322 0.930 . S
C2330 C2329 1.362 . S
C2330 C2333 1.409 . S
C2331 H2323 0.930 . S
C2331 C2332 1.355 . S
C2331 C2333 1.415 . S
C2332 C2331 1.355 . S
C2332 C2334 1.419 . S
C2333 C2328 1.425 . S
C2333 C2330 1.409 . S
C2333 C2331 1.415 . S
C2334 H2324 0.930 . S
C2334 C2332 1.419 . S
C2334 C2335 1.362 . S
C2335 H2325 0.930 . S
C2335 C2328 1.409 . S
C2335 C2334 1.362 . S
H2336 C2342 0.930 . S
H2337 C2345 0.930 . S
H2338 C2346 0.930 . S
H2339 C2347 0.930 . S
H2340 C2350 0.930 . S
H2341 C2351 0.930 . S
C2342 H2336 0.930 . S
C2342 C2343 1.355 . S
C2342 C2344 1.415 . S
C2343 C2342 1.355 . S
C2343 C2345 1.419 . S
C2344 C2342 1.415 . S
C2344 C2349 1.425 . S
C2344 C2351 1.409 . S
C2345 H2337 0.930 . S
C2345 C2343 1.419 . S
C2345 C2346 1.362 . S
C2346 H2338 0.930 . S
C2346 C2345 1.362 . S
C2346 C2349 1.409 . S
C2347 H2339 0.930 . S
C2347 C2348 1.355 . S
C2347 C2349 1.415 . S
C2348 C2347 1.355 . S
C2348 C2350 1.419 . S
C2349 C2344 1.425 . S
C2349 C2346 1.409 . S
C2349 C2347 1.415 . S
C2350 H2340 0.930 . S
C2350 C2348 1.419 . S
C2350 C2351 1.362 . S
C2351 H2341 0.930 . S
C2351 C2344 1.409 . S
C2351 C2350 1.362 . S
H2352 C2358 0.930 . S
H2353 C2361 0.930 . S
H2354 C2362 0.930 . S
H2355 C2363 0.930 . S
H2356 C2366 0.930 1_455 S
H2357 C2367 0.930 . S
C2358 H2352 0.930 . S
C2358 C2359 1.355 . S
C2358 C2360 1.415 . S
C2359 C2358 1.355 . S
C2359 C2361 1.419 . S
C2360 C2358 1.415 . S
C2360 C2365 1.425 . S
C2360 C2367 1.409 . S
C2361 H2353 0.930 . S
C2361 C2359 1.419 . S
C2361 C2362 1.362 . S
C2362 H2354 0.930 . S
C2362 C2361 1.362 . S
C2362 C2365 1.409 . S
C2363 H2355 0.930 . S
C2363 C2364 1.355 . S
C2363 C2365 1.415 . S
C2364 C2363 1.355 . S
C2364 C2366 1.419 . S
C2365 C2360 1.425 . S
C2365 C2362 1.409 . S
C2365 C2363 1.415 . S
C2366 H2356 0.930 1_655 S
C2366 C2364 1.419 . S
C2366 C2367 1.362 . S
C2367 H2357 0.930 . S
C2367 C2360 1.409 . S
C2367 C2366 1.362 . S
H2368 C2374 0.930 . S
H2369 C2377 0.930 . S
H2370 C2378 0.930 . S
H2371 C2379 0.930 . S
H2372 C2382 0.930 . S
H2373 C2383 0.930 . S
C2374 H2368 0.930 . S
C2374 C2375 1.355 . S
C2374 C2376 1.415 . S
C2375 C2374 1.355 . S
C2375 C2377 1.419 . S
C2376 C2374 1.415 . S
C2376 C2381 1.425 . S
C2376 C2383 1.409 . S
C2377 H2369 0.930 . S
C2377 C2375 1.419 . S
C2377 C2378 1.362 . S
C2378 H2370 0.930 . S
C2378 C2377 1.362 . S
C2378 C2381 1.409 . S
C2379 H2371 0.930 . S
C2379 C2380 1.355 . S
C2379 C2381 1.415 . S
C2380 C2379 1.355 . S
C2380 C2382 1.419 . S
C2381 C2376 1.425 . S
C2381 C2378 1.409 . S
C2381 C2379 1.415 . S
C2382 H2372 0.930 . S
C2382 C2380 1.419 . S
C2382 C2383 1.362 . S
C2383 H2373 0.930 . S
C2383 C2376 1.409 . S
C2383 C2382 1.362 . S
H2384 C2390 0.930 . S
H2385 C2393 0.930 . S
H2386 C2394 0.930 . S
H2387 C2395 0.930 . S
H2388 C2398 0.930 . S
H2389 C2399 0.930 . S
C2390 H2384 0.930 . S
C2390 C2391 1.355 . S
C2390 C2392 1.415 . S
C2391 C2390 1.355 . S
C2391 C2393 1.419 . S
C2392 C2390 1.415 . S
C2392 C2397 1.425 . S
C2392 C2399 1.409 . S
C2393 H2385 0.930 . S
C2393 C2391 1.419 . S
C2393 C2394 1.362 . S
C2394 H2386 0.930 . S
C2394 C2393 1.362 . S
C2394 C2397 1.409 . S
C2395 H2387 0.930 . S
C2395 C2396 1.355 . S
C2395 C2397 1.415 . S
C2396 C2395 1.355 . S
C2396 C2398 1.419 . S
C2397 C2392 1.425 . S
C2397 C2394 1.409 . S
C2397 C2395 1.415 . S
C2398 H2388 0.930 . S
C2398 C2396 1.419 . S
C2398 C2399 1.362 . S
C2399 H2389 0.930 . S
C2399 C2392 1.409 . S
C2399 C2398 1.362 . S
H2400 C2406 0.930 . S
H2401 C2409 0.930 . S
H2402 C2410 0.930 . S
H2403 C2411 0.930 . S
H2404 C2414 0.930 . S
H2405 C2415 0.930 . S
C2406 H2400 0.930 . S
C2406 C2407 1.355 . S
C2406 C2408 1.415 . S
C2407 C2406 1.355 . S
C2407 C2409 1.419 . S
C2408 C2406 1.415 . S
C2408 C2413 1.425 . S
C2408 C2415 1.409 . S
C2409 H2401 0.930 . S
C2409 C2407 1.419 . S
C2409 C2410 1.362 . S
C2410 H2402 0.930 . S
C2410 C2409 1.362 . S
C2410 C2413 1.409 . S
C2411 H2403 0.930 . S
C2411 C2412 1.355 . S
C2411 C2413 1.415 . S
C2412 C2411 1.355 . S
C2412 C2414 1.419 1_565 S
C2413 C2408 1.425 . S
C2413 C2410 1.409 . S
C2413 C2411 1.415 . S
C2414 H2404 0.930 . S
C2414 C2412 1.419 1_545 S
C2414 C2415 1.362 1_545 S
C2415 H2405 0.930 . S
C2415 C2408 1.409 . S
C2415 C2414 1.362 1_565 S
H2416 C2422 0.930 . S
H2417 C2425 0.930 . S
H2418 C2426 0.930 . S
H2419 C2427 0.930 . S
H2420 C2430 0.930 . S
H2421 C2431 0.930 . S
C2422 H2416 0.930 . S
C2422 C2423 1.355 . S
C2422 C2424 1.415 . S
C2423 C2422 1.355 . S
C2423 C2425 1.419 . S
C2424 C2422 1.415 . S
C2424 C2429 1.425 . S
C2424 C2431 1.409 . S
C2425 H2417 0.930 . S
C2425 C2423 1.419 . S
C2425 C2426 1.362 . S
C2426 H2418 0.930 . S
C2426 C2425 1.362 . S
C2426 C2429 1.409 . S
C2427 H2419 0.930 . S
C2427 C2428 1.355 . S
C2427 C2429 1.415 . S
C2428 C2427 1.355 . S
C2428 C2430 1.419 . S
C2429 C2424 1.425 . S
C2429 C2426 1.409 . S
C2429 C2427 1.415 . S
C2430 H2420 0.930 . S
C2430 C2428 1.419 . S
C2430 C2431 1.362 . S
C2431 H2421 0.930 . S
C2431 C2424 1.409 . S
C2431 C2430 1.362 . S
H2432 C2438 0.930 . S
H2433 C2441 0.930 . S
H2434 C2442 0.930 . S
H2435 C2443 0.930 . S
H2436 C2446 0.930 . S
H2437 C2447 0.930 . S
C2438 H2432 0.930 . S
C2438 C2439 1.355 . S
C2438 C2440 1.415 . S
C2439 C2438 1.355 . S
C2439 C2441 1.419 . S
C2440 C2438 1.415 . S
C2440 C2445 1.425 . S
C2440 C2447 1.409 . S
C2441 H2433 0.930 . S
C2441 C2439 1.419 . S
C2441 C2442 1.362 . S
C2442 H2434 0.930 . S
C2442 C2441 1.362 . S
C2442 C2445 1.409 . S
C2443 H2435 0.930 . S
C2443 C2444 1.355 . S
C2443 C2445 1.415 . S
C2444 C2443 1.355 . S
C2444 C2446 1.419 . S
C2445 C2440 1.425 . S
C2445 C2442 1.409 . S
C2445 C2443 1.415 . S
C2446 H2436 0.930 . S
C2446 C2444 1.419 . S
C2446 C2447 1.362 . S
C2447 H2437 0.930 . S
C2447 C2440 1.409 . S
C2447 C2446 1.362 . S
H2448 C2454 0.930 . S
H2449 C2457 0.930 . S
H2450 C2458 0.930 . S
H2451 C2459 0.930 . S
H2452 C2462 0.930 . S
H2453 C2463 0.930 . S
C2454 H2448 0.930 . S
C2454 C2455 1.355 . S
C2454 C2456 1.415 . S
C2455 C2454 1.355 . S
C2455 C2457 1.419 . S
C2456 C2454 1.415 . S
C2456 C2461 1.425 . S
C2456 C2463 1.409 . S
C2457 H2449 0.930 . S
C2457 C2455 1.419 . S
C2457 C2458 1.362 . S
C2458 H2450 0.930 . S
C2458 C2457 1.362 . S
C2458 C2461 1.409 . S
C2459 H2451 0.930 . S
C2459 C2460 1.355 . S
C2459 C2461 1.415 . S
C2460 C2459 1.355 . S
C2460 C2462 1.419 . S
C2461 C2456 1.425 . S
C2461 C2458 1.409 . S
C2461 C2459 1.415 . S
C2462 H2452 0.930 . S
C2462 C2460 1.419 . S
C2462 C2463 1.362 . S
C2463 H2453 0.930 . S
C2463 C2456 1.409 . S
C2463 C2462 1.362 . S
H2464 C2470 0.930 . S
H2465 C2473 0.930 . S
H2466 C2474 0.958 . S
H2467 C2475 0.930 . S
H2468 C2478 0.930 . S
H2469 C2479 0.930 . S
C2470 H2464 0.930 . S
C2470 C2471 1.355 . S
C2470 C2472 1.415 . S
C2471 C2470 1.355 . S
C2471 C2473 1.419 . S
C2472 C2470 1.415 . S
C2472 C2477 1.425 . S
C2472 C2479 1.409 . S
C2473 H2465 0.930 . S
C2473 C2471 1.419 . S
C2473 C2474 1.362 . S
C2474 H2466 0.958 . S
C2474 C2473 1.362 . S
C2474 C2477 1.409 . S
C2475 H2467 0.930 . S
C2475 C2476 1.355 . S
C2475 C2477 1.415 . S
C2476 C2475 1.355 . S
C2476 C2478 1.419 . S
C2477 C2472 1.425 . S
C2477 C2474 1.409 . S
C2477 C2475 1.415 . S
C2478 H2468 0.930 . S
C2478 C2476 1.419 . S
C2478 C2479 1.362 . S
C2479 H2469 0.930 . S
C2479 C2472 1.409 . S
C2479 C2478 1.362 . S
H2480 C2486 0.930 . S
H2481 C2489 0.930 . S
H2482 C2490 0.930 . S
H2483 C2491 0.930 . S
H2484 C2494 0.930 . S
H2485 C2495 0.930 . S
C2486 H2480 0.930 . S
C2486 C2487 1.355 . S
C2486 C2488 1.415 . S
C2487 C2486 1.355 . S
C2487 C2489 1.419 . S
C2488 C2486 1.415 . S
C2488 C2493 1.425 . S
C2488 C2495 1.409 . S
C2489 H2481 0.930 . S
C2489 C2487 1.419 . S
C2489 C2490 1.362 . S
C2490 H2482 0.930 . S
C2490 C2489 1.362 . S
C2490 C2493 1.409 . S
C2491 H2483 0.930 . S
C2491 C2492 1.355 . S
C2491 C2493 1.415 . S
C2492 C2491 1.355 . S
C2492 C2494 1.419 . S
C2493 C2488 1.425 . S
C2493 C2490 1.409 . S
C2493 C2491 1.415 . S
C2494 H2484 0.930 . S
C2494 C2492 1.419 . S
C2494 C2495 1.362 . S
C2495 H2485 0.930 . S
C2495 C2488 1.409 . S
C2495 C2494 1.362 . S
H2496 C2502 0.930 . S
H2497 C2505 0.930 . S
H2498 C2506 0.930 . S
H2499 C2507 0.930 . S
H2500 C2510 0.930 . S
H2501 C2511 0.930 . S
C2502 H2496 0.930 . S
C2502 C2503 1.355 . S
C2502 C2504 1.415 . S
C2503 C2502 1.355 . S
C2503 C2505 1.419 . S
C2504 C2502 1.415 . S
C2504 C2509 1.425 . S
C2504 C2511 1.409 . S
C2505 H2497 0.930 . S
C2505 C2503 1.419 . S
C2505 C2506 1.362 . S
C2506 H2498 0.930 . S
C2506 C2505 1.362 . S
C2506 C2509 1.409 . S
C2507 H2499 0.930 . S
C2507 C2508 1.355 . S
C2507 C2509 1.415 . S
C2508 C2507 1.355 . S
C2508 C2510 1.419 . S
C2509 C2504 1.425 . S
C2509 C2506 1.409 . S
C2509 C2507 1.415 . S
C2510 H2500 0.930 . S
C2510 C2508 1.419 . S
C2510 C2511 1.362 . S
C2511 H2501 0.930 . S
C2511 C2504 1.409 . S
C2511 C2510 1.362 . S
C983 C106 2.668 . S
C988 C367 2.659 . S
C999 C65 1.856 . S
C1004 C378 1.873 . S
C1015 C79 2.088 . S
C1020 C447 2.056 . S
C1036 C460 1.036 . S
C1031 C90 1.060 . S
C1047 C21 2.268 . S
C1052 C516 2.307 1_565 S
C1068 C567 2.216 . S
C1063 C35 2.205 . S
C1084 C596 2.422 . S
C1079 C50 2.442 . S
C1095 C6 2.487 . S
C1100 C647 2.477 . S
C1116 C338 1.762 . S
C1111 C232 1.753 . S
C1127 C245 0.954 . S
C1132 C380 0.912 . S
C1148 C418 1.061 . S
C1143 C274 1.078 . S
C1164 C487 1.755 . S
C1159 C175 1.750 . S
C1175 C231 0.664 . S
C1180 C521 0.638 . S
C1196 C538 1.458 . S
C1191 C246 1.458 . S
C1212 C601 0.431 . S
C1207 C273 0.457 . S
C1228 C618 2.260 . S
C1223 C176 2.272 . S
C1244 C340 1.983 . S
C1239 C160 2.039 . S
C1255 C289 1.676 . S
C1260 C679 1.640 . S
C1276 C700 1.718 . S
C1271 C328 1.721 . S
C1292 C759 0.536 . S
C1287 C317 0.597 . S
C1303 C118 1.215 . S
C1308 C620 1.292 . S
C1319 C132 1.423 . S
C1324 C420 1.475 . S
C1335 C331 1.092 . S
C1340 C778 1.083 . S
C1356 C847 1.159 . S
C1351 C303 1.254 . S
C1372 C356 2.229 1_565 S
C1367 C63 2.206 . S
C1388 C839 2.355 . S
C1383 C107 2.251 . S
C1399 C92 1.876 . S
C1404 C436 1.895 . S
C1415 C78 1.428 . S
C1420 C801 1.399 . S
C1436 C527 2.931 . S
C1431 C8 2.939 . S
C1447 C51 2.324 . S
C1452 C716 2.311 . S
C1468 C607 2.760 1_556 S
C1463 C37 2.734 . S
C1484 C876 2.431 . S
C1479 C20 2.458 . S
C1500 C359 1.394 1_556 S
C1495 C147 1.280 . S
C1516 C841 1.192 . S
C1511 C316 1.226 . S
C1527 C119 1.110 . S
C1532 C439 1.094 . S
C1543 C288 1.848 . S
C1548 C796 1.898 . S
C1559 C148 0.827 . S
C1564 C500 0.779 . S
C1580 C719 1.491 . S
C1575 C315 1.425 . S
C1591 C120 0.628 . S
C1596 C580 0.553 . S
C1607 C287 2.200 . S
C1612 C879 2.146 . S
C1623 C188 1.779 . S
C1628 C361 1.689 . S
C1639 C177 1.862 . S
C1644 C658 1.834 . S
C1655 C258 1.602 . S
C1660 C561 1.567 . S
C1671 C247 0.667 . S
C1676 C738 0.643 . S
C1692 C881 1.153 . S
C1687 C272 1.166 1_565 S
C1703 C216 1.278 . S
C1708 C441 1.315 . S
C1724 C479 1.382 . S
C1719 C261 1.327 . S
C1740 C396 1.130 . S
C1735 C205 1.178 . S
C1751 C76 2.173 . S
C1756 C927 2.242 . S
C1772 C818 1.942 . S
C1767 C93 1.930 . S
C1783 C105 1.719 . S
C1788 C967 1.711 . S
C1799 C62 1.066 . S
C1804 C780 1.044 . S
C1815 C49 2.206 . S
C1820 C676 2.279 . S
C1836 C727 2.611 . S
C1831 C9 2.616 . S
C1852 C756 2.339 . S
C1847 C22 2.374 . S
C1868 C887 2.838 . S
C1863 C36 2.880 . S
C1884 C898 1.661 . S
C1879 C260 1.649 . S
C1895 C189 0.840 . S
C1900 C820 0.883 . S
C1916 C938 1.034 . S
C1911 C204 1.032 . S
C1932 C807 1.585 . S
C1927 C217 1.586 . S
C1948 C681 0.714 . S
C1943 C259 0.727 . S
C1959 C190 1.494 . S
C1964 C698 1.492 . S
C1980 C761 0.526 . S
C1975 C203 0.556 . S
C1991 C218 2.277 . S
C1996 C858 2.267 . S
C2012 C900 1.985 . S
C2007 C314 2.046 . S
C2023 C135 1.705 . S
C2028 C519 1.620 . S
C2044 C540 1.723 . S
C2039 C146 1.702 1_565 S
C2060 C599 0.681 . S
C2055 C163 0.664 . S
C2076 C860 1.233 . S
C2071 C300 1.168 . S
C2087 C286 1.473 . S
C2092 C940 1.484 . S
C2108 C458 0.988 . S
C2103 C149 0.973 . S
C2124 C407 1.125 . S
C2119 C121 1.233 . S
C2135 C91 2.223 . S
C2140 C916 2.246 . S
C2156 C399 1.946 . S
C2151 C77 1.741 . S
C2167 C64 1.880 . S
C2172 C956 1.848 . S
C2183 C104 1.105 . S
C2188 C481 1.110 . S
C2199 C34 2.502 . S
C2204 C687 2.543 . S
C2220 C556 2.278 . S
C2215 C23 2.291 . S
C2231 C7 2.279 . S
C2236 C767 2.382 . S
C2247 C48 2.423 . S
C2252 C636 2.399 . S
C2268 C919 1.331 . S
C2263 C329 1.239 . S
C2279 C162 1.174 . S
C2284 C401 1.187 . S
C2300 C959 1.086 . S
C2295 C301 1.100 . S
C2311 C134 1.855 . S
C2316 C476 1.893 . S
C2327 C330 0.841 . S
C2332 C660 0.790 . S
C2348 C559 1.438 . S
C2343 C161 1.400 . S
C2359 C302 0.600 . S
C2364 C740 0.633 1_655 S
C2380 C639 2.137 . S
C2375 C133 2.163 . S
C2396 C921 1.753 . S
C2391 C244 1.825 . S
C2412 C498 1.810 1_665 S
C2407 C219 1.853 . S
C2423 C230 1.522 . S
C2428 C721 1.466 . S
C2444 C578 0.720 . S
C2439 C191 0.703 . S
C2455 C202 1.156 . S
C2460 C641 1.193 . S
C2471 C174 1.451 . S
C2476 C961 1.448 . S
C2492 C799 1.368 . S
C2487 C233 1.305 . S
C2508 C836 1.183 . S
C2503 C275 1.221 . S
