# Generated by pormake.
# Topology ocu, (6,8)-cn, num edge types: 1
# Building blocks:
#     Node 0, Type 0, BuildingBlock: NUHQIS_clean_sbu_0, # of connection points: 6
#     Node 1, Type 0, BuildingBlock: NUHQIS_clean_sbu_0, # of connection points: 6
#     Node 2, Type 0, BuildingBlock: NUHQIS_clean_sbu_0, # of connection points: 6
#     Node 3, Type 0, BuildingBlock: NUHQIS_clean_sbu_0, # of connection points: 6
#     Node 4, Type 0, BuildingBlock: NUHQIS_clean_sbu_0, # of connection points: 6
#     Node 5, Type 0, BuildingBlock: NUHQIS_clean_sbu_0, # of connection points: 6
#     Node 6, Type 0, BuildingBlock: NUHQIS_clean_sbu_0, # of connection points: 6
#     Node 7, Type 0, BuildingBlock: NUHQIS_clean_sbu_0, # of connection points: 6
#     Node 8, Type 1, BuildingBlock: TAGTUT_clean_sbu_1, # of connection points: 8
#     Node 9, Type 1, BuildingBlock: TAGTUT_clean_sbu_1, # of connection points: 8
#     Node 10, Type 1, BuildingBlock: TAGTUT_clean_sbu_1, # of connection points: 8
#     Node 11, Type 1, BuildingBlock: TAGTUT_clean_sbu_1, # of connection points: 8
#     Node 12, Type 1, BuildingBlock: TAGTUT_clean_sbu_1, # of connection points: 8
#     Node 13, Type 1, BuildingBlock: TAGTUT_clean_sbu_1, # of connection points: 8
#     Edge 14, Type (0, 1), BuildingBlock: ZUJKAS_clean_linker_0, # of connection points: 2
#     Edge 15, Type (0, 1), BuildingBlock: ZUJKAS_clean_linker_0, # of connection points: 2
#     Edge 16, Type (0, 1), BuildingBlock: ZUJKAS_clean_linker_0, # of connection points: 2
#     Edge 17, Type (0, 1), BuildingBlock: ZUJKAS_clean_linker_0, # of connection points: 2
#     Edge 18, Type (0, 1), BuildingBlock: ZUJKAS_clean_linker_0, # of connection points: 2
#     Edge 19, Type (0, 1), BuildingBlock: ZUJKAS_clean_linker_0, # of connection points: 2
#     Edge 20, Type (0, 1), BuildingBlock: ZUJKAS_clean_linker_0, # of connection points: 2
#     Edge 21, Type (0, 1), BuildingBlock: ZUJKAS_clean_linker_0, # of connection points: 2
#     Edge 22, Type (0, 1), BuildingBlock: ZUJKAS_clean_linker_0, # of connection points: 2
#     Edge 23, Type (0, 1), BuildingBlock: ZUJKAS_clean_linker_0, # of connection points: 2
#     Edge 24, Type (0, 1), BuildingBlock: ZUJKAS_clean_linker_0, # of connection points: 2
#     Edge 25, Type (0, 1), BuildingBlock: ZUJKAS_clean_linker_0, # of connection points: 2
#     Edge 26, Type (0, 1), BuildingBlock: ZUJKAS_clean_linker_0, # of connection points: 2
#     Edge 27, Type (0, 1), BuildingBlock: ZUJKAS_clean_linker_0, # of connection points: 2
#     Edge 28, Type (0, 1), BuildingBlock: ZUJKAS_clean_linker_0, # of connection points: 2
#     Edge 29, Type (0, 1), BuildingBlock: ZUJKAS_clean_linker_0, # of connection points: 2
#     Edge 30, Type (0, 1), BuildingBlock: ZUJKAS_clean_linker_0, # of connection points: 2
#     Edge 31, Type (0, 1), BuildingBlock: ZUJKAS_clean_linker_0, # of connection points: 2
#     Edge 32, Type (0, 1), BuildingBlock: ZUJKAS_clean_linker_0, # of connection points: 2
#     Edge 33, Type (0, 1), BuildingBlock: ZUJKAS_clean_linker_0, # of connection points: 2
#     Edge 34, Type (0, 1), BuildingBlock: ZUJKAS_clean_linker_0, # of connection points: 2
#     Edge 35, Type (0, 1), BuildingBlock: ZUJKAS_clean_linker_0, # of connection points: 2
#     Edge 36, Type (0, 1), BuildingBlock: ZUJKAS_clean_linker_0, # of connection points: 2
#     Edge 37, Type (0, 1), BuildingBlock: ZUJKAS_clean_linker_0, # of connection points: 2
#     Edge 38, Type (0, 1), BuildingBlock: ZUJKAS_clean_linker_0, # of connection points: 2
#     Edge 39, Type (0, 1), BuildingBlock: ZUJKAS_clean_linker_0, # of connection points: 2
#     Edge 40, Type (0, 1), BuildingBlock: ZUJKAS_clean_linker_0, # of connection points: 2
#     Edge 41, Type (0, 1), BuildingBlock: ZUJKAS_clean_linker_0, # of connection points: 2
#     Edge 42, Type (0, 1), BuildingBlock: ZUJKAS_clean_linker_0, # of connection points: 2
#     Edge 43, Type (0, 1), BuildingBlock: ZUJKAS_clean_linker_0, # of connection points: 2
#     Edge 44, Type (0, 1), BuildingBlock: ZUJKAS_clean_linker_0, # of connection points: 2
#     Edge 45, Type (0, 1), BuildingBlock: ZUJKAS_clean_linker_0, # of connection points: 2
#     Edge 46, Type (0, 1), BuildingBlock: ZUJKAS_clean_linker_0, # of connection points: 2
#     Edge 47, Type (0, 1), BuildingBlock: ZUJKAS_clean_linker_0, # of connection points: 2
#     Edge 48, Type (0, 1), BuildingBlock: ZUJKAS_clean_linker_0, # of connection points: 2
#     Edge 49, Type (0, 1), BuildingBlock: ZUJKAS_clean_linker_0, # of connection points: 2
#     Edge 50, Type (0, 1), BuildingBlock: ZUJKAS_clean_linker_0, # of connection points: 2
#     Edge 51, Type (0, 1), BuildingBlock: ZUJKAS_clean_linker_0, # of connection points: 2
#     Edge 52, Type (0, 1), BuildingBlock: ZUJKAS_clean_linker_0, # of connection points: 2
#     Edge 53, Type (0, 1), BuildingBlock: ZUJKAS_clean_linker_0, # of connection points: 2
#     Edge 54, Type (0, 1), BuildingBlock: ZUJKAS_clean_linker_0, # of connection points: 2
#     Edge 55, Type (0, 1), BuildingBlock: ZUJKAS_clean_linker_0, # of connection points: 2
#     Edge 56, Type (0, 1), BuildingBlock: ZUJKAS_clean_linker_0, # of connection points: 2
#     Edge 57, Type (0, 1), BuildingBlock: ZUJKAS_clean_linker_0, # of connection points: 2
#     Edge 58, Type (0, 1), BuildingBlock: ZUJKAS_clean_linker_0, # of connection points: 2
#     Edge 59, Type (0, 1), BuildingBlock: ZUJKAS_clean_linker_0, # of connection points: 2
#     Edge 60, Type (0, 1), BuildingBlock: ZUJKAS_clean_linker_0, # of connection points: 2
#     Edge 61, Type (0, 1), BuildingBlock: ZUJKAS_clean_linker_0, # of connection points: 2
# Relax obj value: 0.110
# Max RMSD: 0.241
# Mean RMSD: 0.127
data_MOF--net-ocu--node1-NUHQIS_clean_sbu_0--node2-TAGTUT_clean_sbu_1--edge1-ZUJKAS_clean_linker_0
_symmetry_space_group_name_H-M    P1
_symmetry_Int_Tables_number       1
_symmetry_cell_setting            triclinic
loop_
_symmetry_equiv_pos_as_xyz
'x, y, z'
_cell_length_a     49.198722
_cell_length_b     49.260902
_cell_length_c     52.469306
_cell_angle_alpha  96.20738
_cell_angle_beta   88.557021
_cell_angle_gamma 110.03307
loop_
_atom_site_label
_atom_site_type_symbol
_atom_site_fract_x
_atom_site_fract_y
_atom_site_fract_z
_atom_type_partial_charge
Tb0 Tb 0.27536 0.26261 0.26513 0.0
Eu1 Eu 0.32506 0.28777 0.30832 0.0
C2 C 0.33134 0.2411 0.25943 0.0
C3 C 0.27026 0.23155 0.31392 0.0
C4 C 0.21218 0.25721 0.22695 0.0
C5 C 0.17036 0.2551 0.20232 0.0
C6 C 0.19096 0.24289 0.20815 0.0
C7 C 0.21244 0.28362 0.24015 0.0
C8 C 0.19181 0.29572 0.23449 0.0
C9 C 0.1707 0.28177 0.21532 0.0
C10 C 0.23377 0.24455 0.2333 0.0
O11 O 0.2566 0.28791 0.29439 0.0
O12 O 0.29681 0.31659 0.31778 0.0
O13 O 0.34365 0.30872 0.27299 0.0
O14 O 0.30096 0.30612 0.25544 0.0
C15 C 0.26902 0.31 0.31204 0.0
O16 O 0.34446 0.28124 0.34276 0.0
O17 O 0.36346 0.32176 0.32587 0.0
O18 O 0.33906 0.2532 0.28321 0.0
O19 O 0.30849 0.24398 0.24849 0.0
O20 O 0.27033 0.22756 0.28885 0.0
O21 O 0.28613 0.25649 0.32576 0.0
C22 C 0.32933 0.3171 0.25666 0.0
O23 O 0.26034 0.25876 0.22729 0.0
O24 O 0.23219 0.23709 0.25649 0.0
C25 C 0.39504 0.30161 0.34368 0.0
C26 C 0.44605 0.28985 0.35241 0.0
C27 C 0.44299 0.31627 0.36279 0.0
C28 C 0.41755 0.32196 0.35863 0.0
C29 C 0.39905 0.27654 0.3314 0.0
C30 C 0.42415 0.2706 0.33585 0.0
C31 C 0.36665 0.30518 0.34253 0.0
H32 H 0.15464 0.24402 0.1872 0.0
H33 H 0.19048 0.22244 0.19785 0.0
H34 H 0.22867 0.29495 0.25478 0.0
H35 H 0.19247 0.31608 0.24507 0.0
H36 H 0.45966 0.33199 0.37508 0.0
H37 H 0.41499 0.34165 0.36794 0.0
H38 H 0.38206 0.26065 0.31952 0.0
H39 H 0.42528 0.2499 0.32765 0.0
Tb40 Tb 0.82173 0.27739 0.29428 0.0
Eu41 Eu 0.76512 0.27332 0.25998 0.0
C42 C 0.79724 0.22644 0.25063 0.0
C43 C 0.82882 0.3084 0.24555 0.0
C44 C 0.88368 0.26394 0.32383 0.0
C45 C 0.88945 0.21674 0.32152 0.0
C46 C 0.87301 0.23388 0.31667 0.0
C47 C 0.91111 0.27679 0.3353 0.0
C48 C 0.92758 0.25974 0.3401 0.0
C49 C 0.91682 0.22948 0.33354 0.0
C50 C 0.86678 0.28233 0.31921 0.0
O51 O 0.80137 0.30502 0.31598 0.0
O52 O 0.7766 0.31618 0.28438 0.0
O53 O 0.74941 0.25804 0.29827 0.0
O54 O 0.78582 0.24094 0.30635 0.0
C55 C 0.78742 0.32088 0.30768 0.0
O56 O 0.71934 0.25307 0.24943 0.0
O57 O 0.74703 0.28804 0.22898 0.0
O58 O 0.77235 0.23081 0.25125 0.0
O59 O 0.82051 0.24495 0.26236 0.0
O60 O 0.83352 0.31301 0.27037 0.0
O61 O 0.8053 0.28796 0.23629 0.0
C62 C 0.75946 0.24143 0.31041 0.0
O63 O 0.86687 0.28875 0.29579 0.0
O64 O 0.84097 0.27531 0.32896 0.0
C65 C 0.69848 0.2846 0.23357 0.0
C66 C 0.65978 0.31532 0.23189 0.0
C67 C 0.68003 0.32207 0.25215 0.0
C68 C 0.69925 0.30682 0.25297 0.0
C69 C 0.67757 0.27693 0.21402 0.0
C70 C 0.65836 0.29212 0.21317 0.0
C71 C 0.72066 0.27083 0.23235 0.0
H72 H 0.88042 0.19347 0.31649 0.0
H73 H 0.85188 0.22368 0.30761 0.0
H74 H 0.91976 0.30004 0.34067 0.0
H75 H 0.94873 0.27027 0.34902 0.0
H76 H 0.68151 0.33964 0.26697 0.0
H77 H 0.71531 0.31295 0.26826 0.0
H78 H 0.6768 0.25989 0.19886 0.0
H79 H 0.64341 0.28663 0.19707 0.0
Tb80 Tb 0.77089 0.7578 0.29067 0.0
Eu81 Eu 0.83115 0.78703 0.2625 0.0
C82 C 0.78761 0.7247 0.24115 0.0
C83 C 0.82734 0.74256 0.3054 0.0
C84 C 0.6988 0.74415 0.31812 0.0
C85 C 0.66389 0.74985 0.34962 0.0
C86 C 0.68326 0.73615 0.34041 0.0
C87 C 0.69332 0.76443 0.30406 0.0
C88 C 0.67389 0.77804 0.31318 0.0
C89 C 0.65996 0.77178 0.33661 0.0
C90 C 0.72315 0.73426 0.31154 0.0
O91 O 0.78483 0.80299 0.30709 0.0
O92 O 0.83273 0.81091 0.30154 0.0
O93 O 0.80229 0.8106 0.24808 0.0
O94 O 0.75812 0.78192 0.26202 0.0
C95 C 0.81188 0.81811 0.31287 0.0
O96 O 0.87594 0.81619 0.26736 0.0
O97 O 0.85971 0.79601 0.22963 0.0
O98 O 0.80732 0.74853 0.23504 0.0
O99 O 0.77564 0.72303 0.26376 0.0
O100 O 0.80343 0.74745 0.31332 0.0
O101 O 0.83873 0.75139 0.28337 0.0
C102 C 0.77373 0.80317 0.24855 0.0
O103 O 0.72777 0.72989 0.28712 0.0
O104 O 0.747 0.74882 0.32432 0.0
C105 C 0.90575 0.79751 0.24145 0.0
C106 C 0.9492 0.7723 0.23756 0.0
C107 C 0.95638 0.8025 0.2372 0.0
C108 C 0.93471 0.81506 0.2392 0.0
C109 C 0.8987 0.76763 0.24266 0.0
C110 C 0.92012 0.75514 0.24067 0.0
C111 C 0.88261 0.80991 0.24386 0.0
H112 H 0.65372 0.74482 0.36789 0.0
H113 H 0.68739 0.7206 0.35149 0.0
H114 H 0.70516 0.77089 0.28678 0.0
H115 H 0.67102 0.79465 0.30267 0.0
H116 H 0.97859 0.81627 0.2349 0.0
H117 H 0.9405 0.83829 0.23872 0.0
H118 H 0.87644 0.75377 0.24463 0.0
H119 H 0.91358 0.73176 0.24038 0.0
Tb120 Tb 0.31075 0.76728 0.30362 0.0
Eu121 Eu 0.27716 0.7981 0.26939 0.0
C122 C 0.31178 0.82974 0.32045 0.0
C123 C 0.2461 0.76289 0.31646 0.0
C124 C 0.36544 0.73708 0.31772 0.0
C125 C 0.38496 0.69898 0.30374 0.0
C126 C 0.36533 0.70867 0.31843 0.0
C127 C 0.3871 0.75642 0.30401 0.0
C128 C 0.40666 0.74679 0.2894 0.0
C129 C 0.40487 0.71759 0.28811 0.0
C130 C 0.34022 0.74468 0.32692 0.0
O131 O 0.29949 0.74112 0.26648 0.0
O132 O 0.25766 0.7497 0.26081 0.0
O133 O 0.31621 0.79696 0.24695 0.0
O134 O 0.34384 0.79622 0.28119 0.0
C135 C 0.2737 0.73342 0.25585 0.0
O136 O 0.25304 0.79734 0.23474 0.0
O137 O 0.26332 0.83451 0.26341 0.0
O138 O 0.3087 0.83291 0.29629 0.0
O139 O 0.30566 0.80374 0.32783 0.0
O140 O 0.26642 0.75113 0.31672 0.0
O141 O 0.2477 0.78395 0.30248 0.0
C142 C 0.34133 0.80038 0.25721 0.0
O143 O 0.34387 0.77234 0.33006 0.0
O144 O 0.31602 0.72966 0.3148 0.0
C145 C 0.21683 0.8175 0.24607 0.0
C146 C 0.1648 0.81939 0.26819 0.0
C147 C 0.1817 0.84183 0.25396 0.0
C148 C 0.20776 0.84102 0.24322 0.0
C149 C 0.19821 0.79344 0.25725 0.0
C150 C 0.17239 0.79433 0.26816 0.0
C151 C 0.24748 0.82073 0.24335 0.0
H152 H 0.38336 0.67645 0.30335 0.0
H153 H 0.34878 0.69342 0.32886 0.0
H154 H 0.38766 0.77844 0.30294 0.0
H155 H 0.42147 0.76163 0.27741 0.0
H156 H 0.17605 0.86108 0.25293 0.0
H157 H 0.22187 0.85978 0.23462 0.0
H158 H 0.20487 0.77507 0.25977 0.0
H159 H 0.16009 0.77658 0.27883 0.0
Tb160 Tb 0.31913 0.76749 0.77622 0.0
Eu161 Eu 0.27093 0.79888 0.79089 0.0
C162 C 0.26308 0.75176 0.74142 0.0
C163 C 0.32081 0.82359 0.75188 0.0
C164 C 0.37458 0.73144 0.77719 0.0
C165 C 0.41278 0.71067 0.77582 0.0
C166 C 0.39532 0.72247 0.76343 0.0
C167 C 0.37132 0.7285 0.80346 0.0
C168 C 0.38876 0.71672 0.81588 0.0
C169 C 0.40977 0.70777 0.8022 0.0
C170 C 0.35713 0.74461 0.76407 0.0
O171 O 0.33051 0.78745 0.81569 0.0
O172 O 0.31079 0.82342 0.8155 0.0
O173 O 0.26726 0.76821 0.82046 0.0
O174 O 0.28593 0.73675 0.79714 0.0
C175 C 0.32867 0.81259 0.82542 0.0
O176 O 0.2596 0.83821 0.79787 0.0
O177 O 0.22749 0.79621 0.80293 0.0
O178 O 0.24992 0.76175 0.76039 0.0
O179 O 0.29126 0.75746 0.7421 0.0
O180 O 0.33539 0.81059 0.7635 0.0
O181 O 0.29304 0.81763 0.75559 0.0
C182 C 0.27052 0.74279 0.81631 0.0
O183 O 0.3294 0.73046 0.76275 0.0
O184 O 0.36278 0.77225 0.77048 0.0
C185 C 0.21095 0.83198 0.78914 0.0
C186 C 0.17027 0.84869 0.76392 0.0
C187 C 0.18385 0.86458 0.78677 0.0
C188 C 0.20397 0.85622 0.7993 0.0
C189 C 0.19745 0.816 0.76634 0.0
C190 C 0.17715 0.82421 0.75389 0.0
C191 C 0.23255 0.82395 0.80243 0.0
H192 H 0.42893 0.70424 0.76484 0.0
H193 H 0.39815 0.7248 0.74314 0.0
H194 H 0.35536 0.73539 0.81432 0.0
H195 H 0.3856 0.71433 0.83613 0.0
H196 H 0.17883 0.88342 0.79501 0.0
H197 H 0.2142 0.86879 0.81689 0.0
H198 H 0.20275 0.79733 0.75807 0.0
H199 H 0.16734 0.81182 0.73612 0.0
Tb200 Tb 0.27935 0.28105 0.75618 0.0
Eu201 Eu 0.30351 0.25026 0.80142 0.0
C202 C 0.32509 0.32067 0.79893 0.0
C203 C 0.33667 0.2637 0.74842 0.0
C204 C 0.23975 0.31621 0.71459 0.0
C205 C 0.2373 0.35861 0.69586 0.0
C206 C 0.25352 0.34362 0.70596 0.0
C207 C 0.20932 0.30458 0.71351 0.0
C208 C 0.19315 0.31947 0.70336 0.0
C209 C 0.20689 0.34644 0.69387 0.0
C210 C 0.25675 0.29781 0.72071 0.0
O211 O 0.25205 0.23599 0.75791 0.0
O212 O 0.28525 0.2164 0.76831 0.0
O213 O 0.26082 0.255 0.81424 0.0
O214 O 0.26037 0.29227 0.79144 0.0
C215 C 0.26185 0.21427 0.75585 0.0
O216 O 0.30716 0.21148 0.81563 0.0
O217 O 0.32196 0.2525 0.83949 0.0
O218 O 0.32814 0.29802 0.80807 0.0
O219 O 0.30703 0.31888 0.78015 0.0
O220 O 0.31406 0.26763 0.73856 0.0
O221 O 0.33908 0.26089 0.77282 0.0
C222 C 0.2519 0.27673 0.81082 0.0
O223 O 0.28375 0.31008 0.72813 0.0
O224 O 0.24352 0.2753 0.73285 0.0
C225 C 0.34488 0.21805 0.8464 0.0
C226 C 0.38719 0.2002 0.86884 0.0
C227 C 0.37245 0.18515 0.84608 0.0
C228 C 0.35155 0.19391 0.83503 0.0
C229 C 0.36011 0.23352 0.86875 0.0
C230 C 0.38103 0.22481 0.87977 0.0
C231 C 0.32016 0.22532 0.83698 0.0
H232 H 0.2487 0.37951 0.68914 0.0
H233 H 0.2769 0.35307 0.70616 0.0
H234 H 0.19791 0.28327 0.71947 0.0
H235 H 0.16989 0.30908 0.70185 0.0
H236 H 0.37684 0.16633 0.83691 0.0
H237 H 0.34013 0.1813 0.81792 0.0
H238 H 0.35519 0.25192 0.87825 0.0
H239 H 0.39157 0.23674 0.89745 0.0
Tb240 Tb 0.82713 0.27364 0.79106 0.0
Eu241 Eu 0.76928 0.28498 0.77478 0.0
C242 C 0.81013 0.32364 0.81954 0.0
C243 C 0.76797 0.2453 0.82104 0.0
C244 C 0.89903 0.27022 0.7843 0.0
C245 C 0.94643 0.26683 0.77559 0.0
C246 C 0.92389 0.2659 0.79268 0.0
C247 C 0.89722 0.2764 0.75909 0.0
C248 C 0.91963 0.2775 0.74214 0.0
C249 C 0.94429 0.27224 0.75003 0.0
C250 C 0.87441 0.26782 0.80119 0.0
O251 O 0.81212 0.24705 0.75491 0.0
O252 O 0.76469 0.23857 0.76307 0.0
O253 O 0.80079 0.30116 0.74287 0.0
O254 O 0.84247 0.30826 0.76517 0.0
C255 C 0.78494 0.23092 0.75107 0.0
O256 O 0.73091 0.27203 0.75 0.0
O257 O 0.7401 0.30977 0.77795 0.0
O258 O 0.79724 0.3253 0.79855 0.0
O259 O 0.8166 0.30051 0.82239 0.0
O260 O 0.79312 0.24355 0.81296 0.0
O261 O 0.75692 0.26314 0.81162 0.0
C262 C 0.82914 0.31246 0.74521 0.0
O263 O 0.8691 0.29195 0.80666 0.0
O264 O 0.85092 0.24602 0.79439 0.0
C265 C 0.69186 0.28071 0.77173 0.0
C266 C 0.64133 0.27317 0.80036 0.0
C267 C 0.64509 0.28643 0.7774 0.0
C268 C 0.67046 0.29055 0.76337 0.0
C269 C 0.68654 0.26419 0.79259 0.0
C270 C 0.66156 0.26054 0.80689 0.0
C271 C 0.72119 0.29149 0.76174 0.0
H272 H 0.96521 0.26271 0.78215 0.0
H273 H 0.92558 0.26122 0.81216 0.0
H274 H 0.87804 0.27953 0.75226 0.0
H275 H 0.91691 0.28102 0.72248 0.0
H276 H 0.62954 0.29564 0.77137 0.0
H277 H 0.67417 0.30308 0.74708 0.0
H278 H 0.70281 0.25618 0.79909 0.0
H279 H 0.6597 0.25028 0.82439 0.0
Tb280 Tb 0.7702 0.77014 0.76388 0.0
Eu281 Eu 0.82598 0.78009 0.80178 0.0
C282 C 0.81635 0.73786 0.74872 0.0
C283 C 0.76505 0.72833 0.80625 0.0
C284 C 0.7112 0.7829 0.72823 0.0
C285 C 0.68295 0.79488 0.6967 0.0
C286 C 0.69878 0.77801 0.70368 0.0
C287 C 0.70759 0.80501 0.74581 0.0
C288 C 0.69157 0.82183 0.73888 0.0
C289 C 0.67914 0.81702 0.71419 0.0
C290 C 0.72779 0.76471 0.73492 0.0
O291 O 0.76126 0.79293 0.79974 0.0
O292 O 0.80683 0.81453 0.81744 0.0
O293 O 0.84206 0.807 0.76911 0.0
O294 O 0.80014 0.8138 0.7591 0.0
C295 C 0.7792 0.81177 0.81682 0.0
O296 O 0.84375 0.77768 0.83882 0.0
O297 O 0.87276 0.79538 0.80855 0.0
O298 O 0.82547 0.74216 0.77274 0.0
O299 O 0.79786 0.7497 0.74132 0.0
O300 O 0.75902 0.72995 0.78228 0.0
O301 O 0.78735 0.74792 0.81839 0.0
C302 C 0.82838 0.82081 0.75747 0.0
O303 O 0.75455 0.77235 0.72746 0.0
O304 O 0.72525 0.75735 0.7582 0.0
C305 C 0.88899 0.77095 0.83784 0.0
C306 C 0.9238 0.73985 0.85235 0.0
C307 C 0.93197 0.77006 0.85896 0.0
C308 C 0.9147 0.78541 0.8518 0.0
C309 C 0.88099 0.74096 0.83059 0.0
C310 C 0.89825 0.72553 0.83779 0.0
C311 C 0.87055 0.78738 0.83156 0.0
H312 H 0.67339 0.79034 0.67766 0.0
H313 H 0.70128 0.76105 0.68986 0.0
H314 H 0.71718 0.80929 0.76484 0.0
H315 H 0.68929 0.83888 0.7527 0.0
H316 H 0.95171 0.78187 0.86977 0.0
H317 H 0.92128 0.80859 0.8574 0.0
H318 H 0.8612 0.72945 0.81973 0.0
H319 H 0.89114 0.70226 0.83259 0.0
C320 C 1.01824 0.11194 0.54876 0.0
C321 C 0.0332 0.07636 0.47377 0.0
C322 C 0.97792 0.97305 0.50206 0.0
Mg323 Mg 0.06337 0.08544 0.52544 0.0
O324 O 0.03519 0.05227 0.53671 0.0
Mg325 Mg 0.99483 0.04186 0.52274 0.0
Mg326 Mg 0.04161 0.01533 0.52501 0.0
O327 O 0.04841 0.97864 0.51301 0.0
Mg328 Mg 1.02108 0.94377 0.52193 0.0
Mg329 Mg 0.089 0.9891 0.52645 0.0
C330 C 0.10504 0.05702 0.54896 0.0
C331 C 0.09135 0.02968 0.48062 0.0
O332 O 0.99752 0.08769 0.54281 0.0
O333 O 0.04483 0.11541 0.54404 0.0
O334 O 1.01033 0.06209 0.48516 0.0
O335 O 0.05784 0.08625 0.48504 0.0
O336 O 0.1014 0.07967 0.54164 0.0
O337 O 0.08501 0.03196 0.54622 0.0
C338 C 0.99239 1.0027 0.56972 0.0
O339 O 1.01511 0.99801 0.56064 0.0
O340 O 0.9813 0.01902 0.55931 0.0
O341 O 0.08744 0.94495 0.50377 0.0
O342 O 0.04061 0.91615 0.50022 0.0
O343 O 0.0736 0.96644 0.56311 0.0
C344 C 0.06746 0.921 0.49551 0.0
O345 O 1.02639 0.94097 0.56196 0.0
O346 O 0.98254 0.95028 0.50791 0.0
C347 C 0.05073 0.95087 0.57374 0.0
O348 O 0.99786 0.99821 0.50444 0.0
O349 O 0.06796 0.0331 0.48935 0.0
O350 O 0.10296 0.01382 0.49099 0.0
C351 C 0.51131 0.08536 0.10995 0.0
C352 C 0.53945 0.08247 0.03043 0.0
C353 C 0.52711 0.96624 0.03288 0.0
Mg354 Mg 0.57152 0.0879 0.08283 0.0
O355 O 0.55833 0.04701 0.07896 0.0
Mg356 Mg 0.51735 0.02637 0.06672 0.0
Mg357 Mg 0.57967 0.02048 0.06119 0.0
O358 O 0.6008 0.9932 0.04531 0.0
Mg359 Mg 0.58751 0.95248 0.04557 0.0
Mg360 Mg 0.64206 0.01362 0.05671 0.0
C361 C 0.63239 0.07291 0.0902 0.0
C362 C 0.62581 0.05551 0.01766 0.0
O363 O 0.50017 0.06051 0.09607 0.0
O364 O 0.53895 0.09875 0.10965 0.0
O365 O 0.52257 0.05736 0.03543 0.0
O366 O 0.56087 0.09761 0.04524 0.0
O367 O 0.61724 0.0901 0.09162 0.0
O368 O 0.62163 0.04547 0.08271 0.0
C369 C 0.53535 0.98665 0.10447 0.0
O370 O 0.56002 0.99151 0.09357 0.0
O371 O 0.51665 0.99753 0.09785 0.0
O372 O 0.65603 0.98109 0.02575 0.0
O373 O 0.61548 0.94323 0.01523 0.0
O374 O 0.64241 0.98115 0.08863 0.0
C375 C 0.64255 0.9569 1.01203 0.0
O376 O 0.60495 0.94016 0.08023 0.0
O377 O 0.54229 0.94952 0.03495 0.0
C378 C 0.62821 0.95478 0.09321 0.0
O379 O 0.53724 0.99407 0.03979 0.0
O380 O 0.60037 0.05054 0.02747 0.0
O381 O 0.64318 0.04384 0.02571 0.0
C382 C 1.02857 0.58863 0.05958 0.0
C383 C 0.05079 0.57426 0.98085 0.0
C384 C 1.00689 0.46272 0.99081 0.0
Mg385 Mg 0.07952 0.57491 0.03171 0.0
O386 O 0.05422 0.53766 0.03763 0.0
Mg387 Mg 1.01442 0.52559 0.02201 0.0
Mg388 Mg 0.06582 0.5045 0.02285 0.0
O389 O 0.07741 0.47174 1.00699 0.0
Mg390 Mg 0.05143 0.43363 1.00774 0.0
Mg391 Mg 0.11598 0.483 0.02454 0.0
C392 C 0.12492 0.54805 0.05169 0.0
C393 C 0.11891 0.52925 0.98381 0.0
O394 O 1.0104 0.56462 0.04913 0.0
O395 O 0.05585 0.59671 0.05548 0.0
O396 O 1.02899 0.55496 0.98947 0.0
O397 O 0.07487 0.58425 0.99307 0.0
O398 O 0.11889 0.57019 0.04612 0.0
O399 O 0.10686 0.52188 0.04771 0.0
C400 C 1.01301 0.47966 0.06266 0.0
O401 O 0.03771 0.47905 0.05464 0.0
O402 O 1.00076 0.49563 0.05345 0.0
O403 O 0.12158 0.44342 0.99885 0.0
O404 O 0.07751 0.41187 0.98651 0.0
O405 O 0.09668 0.45318 0.05658 0.0
C406 C 0.10522 0.41966 0.98642 0.0
O407 O 0.05127 0.42445 0.04668 0.0
O408 O 1.01276 0.43942 0.99245 0.0
C409 C 0.07285 0.4339 0.06217 0.0
O410 O 1.02479 0.48797 0.99846 0.0
O411 O 0.09405 0.52951 0.99168 0.0
O412 O 0.1315 0.51344 0.99303 0.0
C413 C 0.50322 0.61147 0.05674 0.0
C414 C 0.52744 0.58652 0.97946 0.0
C415 C 0.48047 0.47855 1.00177 0.0
Mg416 Mg 0.55483 0.59579 0.0326 0.0
O417 O 0.53009 0.55896 0.03983 0.0
Mg418 Mg 0.48983 0.54478 0.02479 0.0
Mg419 Mg 0.54104 0.52438 0.02844 0.0
O420 O 0.55118 0.48938 0.01727 0.0
Mg421 Mg 0.52434 0.45476 0.02747 0.0
Mg422 Mg 0.59111 0.5028 0.03267 0.0
C423 C 0.60149 0.57125 0.05381 0.0
C424 C 0.59175 0.54091 0.98507 0.0
O425 O 0.48578 0.58664 0.04709 0.0
O426 O 0.53068 0.61934 0.05376 0.0
O427 O 0.50518 0.56852 0.98889 0.0
O428 O 0.55073 0.59912 0.99249 0.0
O429 O 0.59441 0.59269 0.04798 0.0
O430 O 0.58376 0.5449 0.05058 0.0
C431 C 0.48962 0.50563 0.07106 0.0
O432 O 0.51435 0.50471 0.06339 0.0
O433 O 0.47648 0.51952 0.05983 0.0
O434 O 0.59283 0.45822 1.01283 0.0
O435 O 0.54658 0.42743 1.01043 0.0
O436 O 0.57532 0.48125 0.06989 0.0
C437 C 0.57367 0.43297 1.00664 0.0
O438 O 0.52841 0.45425 0.06805 0.0
O439 O 0.48548 0.45663 1.00917 0.0
C440 C 0.55241 0.4654 0.08032 0.0
O441 O 0.49889 0.50439 1.00572 0.0
O442 O 0.56791 0.54363 0.99351 0.0
O443 O 0.6042 0.52615 0.99612 0.0
C444 C 0.95498 0.59629 0.55179 0.0
C445 C 0.97085 0.59859 0.47033 0.0
C446 C 0.9685 0.48336 0.4713 0.0
Mg447 Mg 1.01068 0.60153 0.51855 0.0
O448 O 0.99778 0.56087 0.51971 0.0
Mg449 Mg 0.95675 0.53983 0.50727 0.0
Mg450 Mg 1.01979 0.53427 0.50395 0.0
O451 O 0.04148 0.50832 0.48595 0.0
Mg452 Mg 1.02797 0.46735 0.48157 0.0
Mg453 Mg 0.08222 0.52919 0.49839 0.0
C454 C 0.07143 0.58877 0.5324 0.0
C455 C 0.06418 0.56966 0.46143 0.0
O456 O 0.94187 0.57168 0.53845 0.0
O457 O 0.98183 0.61055 0.54821 0.0
O458 O 0.95658 0.57255 0.47563 0.0
O459 O 0.99417 0.61344 0.48311 0.0
O460 O 0.05589 0.60503 0.52982 0.0
O461 O 0.06182 0.56086 0.52583 0.0
C462 C 0.97279 0.49771 0.54624 0.0
O463 O 0.99871 0.50359 0.53728 0.0
O464 O 0.9553 0.50896 0.53774 0.0
O465 O 0.09985 0.49535 0.46892 0.0
O466 O 0.06131 0.45661 0.45576 0.0
O467 O 0.07648 0.49752 0.52911 0.0
C468 C 0.08891 0.47021 0.45539 0.0
O469 O 0.03776 0.45754 0.51948 0.0
O470 O 0.98298 0.46554 0.46989 0.0
C471 C 0.05937 0.47253 0.53419 0.0
O472 O 0.97906 0.5098 0.48151 0.0
O473 O 0.03941 0.56365 0.47225 0.0
O474 O 0.08331 0.55909 0.46767 0.0
C475 C 0.49788 0.13669 0.57662 0.0
C476 C 0.532 0.12083 0.50178 0.0
C477 C 0.48126 1.00723 0.51594 0.0
Mg478 Mg 0.55257 0.12359 0.55713 0.0
O479 O 0.52741 0.08536 0.55861 0.0
Mg480 Mg 0.48911 0.07277 0.54027 0.0
Mg481 Mg 0.53969 0.05216 0.54507 0.0
O482 O 0.55158 0.01855 0.53233 0.0
Mg483 Mg 0.52596 0.98207 0.53963 0.0
Mg484 Mg 0.59112 0.03152 0.54845 0.0
C485 C 0.59819 0.0965 0.57607 0.0
C486 C 0.59262 0.07444 0.50494 0.0
O487 O 0.48231 0.11261 0.56415 0.0
O488 O 0.52562 0.14514 0.57729 0.0
O489 O 0.50845 0.10108 0.50723 0.0
O490 O 0.55303 0.13152 0.51779 0.0
O491 O 0.59132 0.119 0.57322 0.0
O492 O 0.58077 0.07057 0.56966 0.0
C493 C 0.48556 0.02931 0.58361 0.0
O494 O 0.51074 0.02879 0.57697 0.0
O495 O 0.47333 0.0443 0.57274 0.0
O496 O 0.59541 0.99064 0.52443 0.0
O497 O 0.54992 0.95865 0.51852 0.0
O498 O 0.5762 1.00429 0.58248 0.0
C499 C 0.57728 0.96597 0.51518 0.0
O500 O 0.53016 0.97539 0.57923 0.0
O501 O 0.48696 0.98545 0.52292 0.0
C502 C 0.5542 0.98559 0.59154 0.0
O503 O 0.49928 0.03339 0.51974 0.0
O504 O 0.56803 0.07559 0.51271 0.0
O505 O 0.60494 0.05913 0.51517 0.0
H506 H 0.26521 0.23282 0.36608 0.0
H507 H 0.23236 0.19604 0.39079 0.0
H508 H 0.19819 0.14171 0.32078 0.0
H509 H 0.23131 0.17828 0.29584 0.0
H510 H 0.17244 0.1739 0.38964 0.0
H511 H 0.21788 0.08601 0.36318 0.0
H512 H 0.23668 0.12318 0.35719 0.0
H513 H 0.20732 0.10034 0.33653 0.0
C514 C 0.2509 0.21296 0.35587 0.0
C515 C 0.25111 0.20849 0.32892 0.0
C516 C 0.23202 0.19197 0.37007 0.0
C517 C 0.21295 0.16592 0.35772 0.0
C518 C 0.21304 0.16136 0.33081 0.0
H519 H 0.06924 0.05076 0.44259 0.0
H520 H 0.09637 0.08264 0.41092 0.0
C521 C 0.23197 0.18237 0.31656 0.0
C522 C 0.1928 0.1439 0.37315 0.0
H523 H 0.176 0.07441 0.3886 0.0
C524 C 0.17312 0.1521 0.38936 0.0
C525 C 0.1938 0.11549 0.3729 0.0
C526 C 0.21519 0.10569 0.35671 0.0
C527 C 0.15473 0.13288 0.40553 0.0
C528 C 0.15567 0.1044 0.40524 0.0
C529 C 0.17509 0.09611 0.38875 0.0
C530 C 0.13844 0.08368 0.42328 0.0
C531 C 0.13524 0.14368 0.42343 0.0
C532 C 0.15274 0.07255 0.44008 0.0
C533 C 0.13725 0.05423 0.45801 0.0
C534 C 0.10703 0.04665 0.4597 0.0
C535 C 0.09255 0.05689 0.44225 0.0
C536 C 0.10808 0.07512 0.42414 0.0
H537 H 0.14225 0.16779 0.42583 0.0
H538 H 0.11289 0.13523 0.41541 0.0
H539 H 0.13475 0.13599 0.44262 0.0
H540 H 0.17609 0.07865 0.43979 0.0
H541 H 0.14915 0.04681 0.47116 0.0
H542 H 0.92451 0.18252 0.30495 0.0
H543 H 0.94882 0.15032 0.31849 0.0
H544 H 0.97096 0.20303 0.39109 0.0
H545 H 0.94638 0.23483 0.37811 0.0
H546 H 1.01248 0.16747 0.34375 0.0
H547 H 0.91642 0.1144 0.40163 0.0
H548 H 0.91434 0.13315 0.37439 0.0
H549 H 0.92883 0.15348 0.40444 0.0
C550 C 0.93467 0.18729 0.32375 0.0
C551 C 0.93343 0.21118 0.3405 0.0
C552 C 0.94876 0.16907 0.33131 0.0
C553 C 0.96165 0.17447 0.35571 0.0
C554 C 0.96124 0.19872 0.37211 0.0
H555 H 0.06516 0.12534 0.45245 0.0
H556 H 0.05016 0.14443 0.41634 0.0
C557 C 0.94725 0.2169 0.36461 0.0
C558 C 0.97323 0.15354 0.36537 0.0
H559 H 0.95965 0.10609 0.41047 0.0
C560 C 1.00085 0.15356 0.358 0.0
C561 C 0.95774 0.13522 0.38359 0.0
C562 C 0.92758 0.13375 0.39142 0.0
C563 C 1.01406 0.1367 0.36958 0.0
C564 C 0.99933 0.11993 0.38921 0.0
C565 C 0.97104 0.11884 0.39541 0.0
C566 C 1.0133 0.10563 0.40564 0.0
C567 C 0.0437 0.13735 0.3609 0.0
C568 C 0.99829 0.07709 0.41119 0.0
C569 C 1.00635 0.06651 0.4323 0.0
C570 C 0.02986 0.08413 0.44797 0.0
C571 C 0.04693 0.11134 0.44068 0.0
C572 C 0.03847 0.12219 0.41985 0.0
H573 H 0.04686 0.14116 0.34037 0.0
H574 H 0.06033 0.15556 0.3722 0.0
H575 H 0.0473 0.11679 0.36361 0.0
H576 H 0.97892 0.06383 0.40043 0.0
H577 H 0.99304 0.04528 0.43734 0.0
H578 H 0.86399 0.84381 0.33649 0.0
H579 H 0.87825 0.8839 0.37 0.0
H580 H 0.79277 0.88982 0.36894 0.0
H581 H 0.77781 0.84834 0.33539 0.0
H582 H 0.8801 0.93967 0.36974 0.0
H583 H 0.80435 0.88581 0.44457 0.0
H584 H 0.80943 0.86535 0.41532 0.0
H585 H 0.78979 0.88999 0.41472 0.0
C586 C 0.84807 0.8535 0.34325 0.0
C587 C 0.81971 0.8428 0.33326 0.0
C588 C 0.85633 0.87661 0.36242 0.0
C589 C 0.83664 0.88996 0.37207 0.0
C590 C 0.80826 0.87964 0.36204 0.0
H591 H 0.95924 0.01384 0.4827 0.0
H592 H 0.91676 1.00376 0.455 0.0
C593 C 0.79977 0.85602 0.34285 0.0
C594 C 0.84674 0.91394 0.39312 0.0
H595 H 0.84549 0.92492 0.45834 0.0
C596 C 0.87222 0.93704 0.38914 0.0
C597 C 0.83593 0.91078 0.41825 0.0
C598 C 0.80843 0.88667 0.4237 0.0
C599 C 0.8896 0.95413 0.40978 0.0
C600 C 0.88045 0.94872 0.43516 0.0
C601 C 0.85271 0.92869 0.43892 0.0
C602 C 0.9016 0.95722 0.45692 0.0
C603 C 0.91899 0.97531 0.404 0.0
C604 C 0.90575 0.93496 0.46917 0.0
C605 C 0.92932 0.94076 0.48553 0.0
C606 C 0.94975 0.96894 0.48978 0.0
C607 C 0.94422 0.99179 0.47947 0.0
C608 C 0.92007 0.986 0.46339 0.0
H609 H 0.92377 0.97431 0.38318 0.0
H610 H 0.91992 0.99778 0.41057 0.0
H611 H 0.93627 0.97081 0.41416 0.0
H612 H 0.89184 0.91256 0.46477 0.0
H613 H 0.93245 0.92262 0.49346 0.0
H614 H 0.11418 0.77971 0.28426 0.0
H615 H 0.08838 0.78595 0.32384 0.0
H616 H 0.1415 0.87638 0.33491 0.0
H617 H 0.16829 0.87035 0.29655 0.0
H618 H 0.13388 0.82113 0.37501 0.0
H619 H 0.04374 0.85672 0.34745 0.0
H620 H 0.05588 0.83148 0.32667 0.0
H621 H 0.0775 0.86928 0.33068 0.0
C622 C 0.1201 0.80105 0.29488 0.0
C623 C 0.14365 0.82441 0.28725 0.0
C624 C 0.10525 0.80453 0.3174 0.0
C625 C 0.11332 0.83154 0.33218 0.0
C626 C 0.13502 0.85539 0.32357 0.0
H627 H 0.12012 0.9262 0.47392 0.0
H628 H 0.12908 0.89654 0.43652 0.0
C629 C 0.1501 0.8519 0.30137 0.0
C630 C 0.10185 0.83468 0.35805 0.0
H631 H 0.057 0.86453 0.39149 0.0
C632 C 0.11661 0.82999 0.37874 0.0
C633 C 0.07937 0.84613 0.36261 0.0
C634 C 0.06297 0.85116 0.34076 0.0
C635 C 0.1105 0.83812 0.40408 0.0
C636 C 0.08934 0.85145 0.40861 0.0
C637 C 0.0733 0.85435 0.38793 0.0
C638 C 0.08549 0.86541 0.43415 0.0
C639 C 0.12736 0.83328 0.42571 0.0
C640 C 0.05823 0.85728 0.44555 0.0
C641 C 0.05302 0.87418 0.46692 0.0
C642 C 0.0749 0.89978 0.47703 0.0
C643 C 0.10278 0.90668 0.46664 0.0
C644 C 0.10798 0.88967 0.4453 0.0
H645 H 0.13592 0.81538 0.42 0.0
H646 H 0.14605 0.85339 0.43093 0.0
H647 H 0.11376 0.8281 0.44294 0.0
H648 H 0.04061 0.83865 0.43716 0.0
H649 H 0.03133 0.86804 0.47454 0.0
H650 H 0.17706 0.90367 0.75362 0.0
H651 H 0.14545 0.91908 0.72791 0.0
H652 H 0.08575 0.83093 0.71705 0.0
H653 H 0.11772 0.81527 0.74245 0.0
H654 H 0.0983 0.85286 0.67301 0.0
H655 H 0.07066 0.93329 0.74027 0.0
H656 H 0.10909 0.94181 0.73908 0.0
H657 H 0.08665 0.90843 0.75092 0.0
C658 C 0.1569 0.88767 0.7462 0.0
C659 C 0.14984 0.85827 0.75004 0.0
C660 C 0.13872 0.89654 0.73165 0.0
C661 C 0.11287 0.87629 0.72099 0.0
C662 C 0.10546 0.84698 0.72527 0.0
H663 H 1.01133 0.90827 0.59862 0.0
H664 H 1.01995 0.88913 0.63773 0.0
C665 C 0.12379 0.83804 0.73964 0.0
C666 C 0.0955 0.88525 0.70303 0.0
H667 H 0.06774 0.93858 0.69486 0.0
C668 C 0.09092 0.87111 0.67799 0.0
C669 C 0.08577 0.90903 0.70953 0.0
C670 C 0.08803 0.92377 0.73652 0.0
C671 C 0.07872 0.88131 0.65888 0.0
C672 C 0.07081 0.90622 0.66501 0.0
C673 C 0.07394 0.91951 0.69029 0.0
C674 C 0.06291 0.92065 0.64459 0.0
C675 C 0.07599 0.8665 0.63186 0.0
C676 C 0.08378 0.94534 0.63625 0.0
C677 C 0.0791 0.95614 0.61391 0.0
C678 C 0.05335 0.94248 0.59956 0.0
C679 C 0.03151 0.91909 0.60909 0.0
C680 C 0.03634 0.90814 0.63142 0.0
H681 H 0.08511 0.84864 0.62993 0.0
H682 H 0.05282 0.85729 0.62605 0.0
H683 H 0.08729 0.88253 0.61837 0.0
H684 H 0.1044 0.95527 0.64625 0.0
H685 H 0.0962 0.97445 0.60733 0.0
H686 H 0.21094 0.20134 0.72982 0.0
H687 H 0.18992 0.16147 0.69657 0.0
H688 H 0.25883 0.12825 0.70751 0.0
H689 H 0.28034 0.16848 0.74084 0.0
H690 H 0.25077 0.13361 0.65693 0.0
H691 H 0.14586 0.07546 0.69908 0.0
H692 H 0.15183 0.11363 0.70102 0.0
H693 H 0.17565 0.10093 0.71813 0.0
C694 C 0.22142 0.18532 0.72554 0.0
C695 C 0.2473 0.18808 0.73804 0.0
C696 C 0.20924 0.16238 0.7066 0.0
C697 C 0.22255 0.14161 0.69983 0.0
C698 C 0.24807 0.1439 0.71262 0.0
H699 H 0.11407 0.01943 0.58002 0.0
H700 H 0.14899 0.03243 0.61548 0.0
C701 C 0.26027 0.16686 0.7317 0.0
C702 C 0.21094 0.11932 0.6778 0.0
H703 H 0.14712 0.07189 0.65245 0.0
C704 C 0.22829 0.11952 0.65611 0.0
C705 C 0.18189 0.10034 0.6769 0.0
C706 C 0.16286 0.09732 0.70016 0.0
C707 C 0.21653 0.10333 0.63281 0.0
C708 C 0.18659 0.08705 0.63113 0.0
C709 C 0.17 0.08466 0.65351 0.0
C710 C 0.17102 0.07633 0.60615 0.0
C711 C 0.23612 0.10471 0.61006 0.0
C712 C 0.17261 0.09616 0.58838 0.0
C713 C 0.15283 0.08873 0.56803 0.0
C714 C 0.13071 0.06144 0.56522 0.0
C715 C 0.13078 0.04065 0.58161 0.0
C716 C 0.15069 0.0481 0.602 0.0
H717 H 0.25823 0.10682 0.61628 0.0
H718 H 0.22771 0.08515 0.59599 0.0
H719 H 0.23797 0.12423 0.60041 0.0
H720 H 0.18761 0.11826 0.59137 0.0
H721 H 0.15354 0.10523 0.55569 0.0
H722 H 0.9684 0.22984 0.74437 0.0
H723 H 0.99185 0.2161 0.70625 0.0
H724 H 0.98993 0.2915 0.67253 0.0
H725 H 0.96673 0.30575 0.71098 0.0
H726 H 0.95999 0.23962 0.64435 0.0
H727 H 0.06901 0.24135 0.66937 0.0
H728 H 0.04267 0.22419 0.69218 0.0
H729 H 0.05049 0.26208 0.6887 0.0
C730 C 0.97415 0.24426 0.7294 0.0
C731 C 0.96541 0.26868 0.73052 0.0
C732 C 0.98757 0.23636 0.70757 0.0
C733 C 0.99263 0.25282 0.68662 0.0
C734 C 0.9862 0.27856 0.68855 0.0
H735 H 0.05272 0.16879 0.55331 0.0
H736 H 0.04679 0.20832 0.58247 0.0
C737 C 0.97287 0.28657 0.71045 0.0
C738 C 0.99957 0.24021 0.66157 0.0
H739 H 0.04424 0.20613 0.63401 0.0
C740 C 0.9788 0.23292 0.64178 0.0
C741 C 1.0242 0.23177 0.65819 0.0
C742 C 0.048 0.24054 0.67817 0.0
C743 C 0.98094 0.21548 0.61943 0.0
C744 C 1.00423 0.20484 0.61711 0.0
C745 C 1.02614 0.21398 0.63602 0.0
C746 C 1.00528 0.18243 0.5964 0.0
C747 C 0.95786 0.20793 0.5989 0.0
C748 C 0.98347 0.15495 0.59413 0.0
C749 C 0.98672 0.13222 0.5774 0.0
C750 C 1.01204 0.13662 0.56302 0.0
C751 C 0.03308 0.16461 0.56437 0.0
C752 C 0.02975 0.18727 0.58096 0.0
H753 H 0.94748 0.22479 0.59947 0.0
H754 H 0.96687 0.20549 0.57951 0.0
H755 H 0.94079 0.18705 0.60216 0.0
H756 H 0.96465 0.15064 0.60627 0.0
H757 H 0.97023 0.11089 0.57684 0.0
H758 H 0.88705 0.84198 0.7522 0.0
H759 H 0.91512 0.87562 0.72265 0.0
H760 H 0.83693 0.88424 0.69522 0.0
H761 H 0.80844 0.85052 0.72502 0.0
H762 H 0.90959 0.86733 0.66946 0.0
H763 H 0.89141 0.96903 0.70836 0.0
H764 H 0.88394 0.93819 0.72651 0.0
H765 H 0.85907 0.93802 0.70195 0.0
C766 C 0.8757 0.85122 0.74015 0.0
C767 C 0.84537 0.84347 0.74107 0.0
C768 C 0.89188 0.87048 0.72319 0.0
C769 C 0.87824 0.88267 0.70682 0.0
C770 C 0.84802 0.8755 0.70797 0.0
H771 H 0.93639 0.9929 0.58415 0.0
H772 H 0.91003 0.9643 0.6178 0.0
C773 C 0.83173 0.85614 0.72499 0.0
C774 C 0.89564 0.90153 0.68765 0.0
H775 H 0.91571 0.96983 0.66872 0.0
C776 C 0.91104 0.88979 0.66935 0.0
C777 C 0.89751 0.93081 0.6875 0.0
C778 C 0.88233 0.94493 0.70724 0.0
C779 C 0.92772 0.90627 0.65057 0.0
C780 C 0.92965 0.93563 0.65041 0.0
C781 C 0.91433 0.94739 0.66882 0.0
C782 C 0.94651 0.95414 0.63073 0.0
C783 C 0.94235 0.89171 0.63065 0.0
C784 C 0.97611 0.95868 0.62707 0.0
C785 C 0.99125 0.97491 0.60761 0.0
C786 C 0.97723 0.98731 0.59165 0.0
C787 C 0.94793 0.98371 0.59607 0.0
C788 C 0.93276 0.96729 0.61533 0.0
H789 H 0.93224 0.86766 0.62905 0.0
H790 H 0.94153 0.89905 0.6115 0.0
H791 H 0.96539 0.89731 0.63624 0.0
H792 H 0.98752 0.94957 0.63918 0.0
H793 H 1.01392 0.97777 0.60508 0.0
H794 H 0.3184 0.20349 0.21357 0.0
H795 H 0.34712 0.17703 0.19011 0.0
H796 H 0.41587 0.21539 0.24599 0.0
H797 H 0.38656 0.24035 0.27008 0.0
H798 H 0.39106 0.18409 0.16367 0.0
H799 H 0.42297 0.14016 0.24552 0.0
H800 H 0.39704 0.15862 0.24893 0.0
H801 H 0.43539 0.17898 0.25054 0.0
C802 C 0.33949 0.20611 0.2212 0.0
C803 C 0.34937 0.22423 0.24442 0.0
C804 C 0.35631 0.19078 0.20748 0.0
C805 C 0.38421 0.19272 0.21596 0.0
C806 C 0.39433 0.21157 0.23883 0.0
H807 H 0.52673 0.13188 0.14876 0.0
H808 H 0.49668 0.15617 0.17317 0.0
C809 C 0.37734 0.22647 0.25277 0.0
C810 C 0.40257 0.17596 0.20071 0.0
H811 H 0.44904 0.1375 0.20701 0.0
C812 C 0.40337 0.17378 0.1735 0.0
C813 C 0.41929 0.16172 0.21241 0.0
C814 C 0.41842 0.15968 0.2409 0.0
C815 C 0.42007 0.15915 0.15844 0.0
C816 C 0.43721 0.1456 0.17022 0.0
C817 C 0.43649 0.1477 0.19733 0.0
C818 C 0.45595 0.12956 0.15494 0.0
C819 C 0.41975 0.159 0.12972 0.0
C820 C 0.44407 0.10547 0.13621 0.0
C821 C 0.46147 0.09093 0.12228 0.0
C822 C 0.49188 0.09983 0.12602 0.0
C823 C 0.50367 0.12385 0.14486 0.0
C824 C 0.48622 0.13802 0.15907 0.0
H825 H 0.41162 0.17583 0.12378 0.0
H826 H 0.44174 0.16269 0.12185 0.0
H827 H 0.40529 0.13747 0.12109 0.0
H828 H 0.42101 0.09753 0.13237 0.0
H829 H 0.45096 0.07281 0.10818 0.0
H830 H 0.87904 0.35356 0.25843 0.0
H831 H 0.91451 0.38227 0.2295 0.0
H832 H 0.86294 0.33183 0.16433 0.0
H833 H 0.82743 0.30283 0.19306 0.0
H834 H 0.92396 0.3414 0.16013 0.0
H835 H 0.90072 0.44338 0.18808 0.0
H836 H 0.90929 0.42645 0.21396 0.0
H837 H 0.87665 0.40831 0.1955 0.0
C838 C 0.87518 0.34857 0.23795 0.0
C839 C 0.85024 0.32602 0.22808 0.0
C840 C 0.89548 0.36505 0.22145 0.0
C841 C 0.89122 0.35935 0.19479 0.0
C842 C 0.86661 0.3366 0.18486 0.0
H843 H 0.95549 0.46288 0.07249 0.0
H844 H 0.92903 0.43348 0.10544 0.0
C845 C 0.84626 0.32014 0.20133 0.0
C846 C 0.91206 0.37742 0.17717 0.0
H847 H 0.93769 0.44571 0.15816 0.0
C848 C 0.92715 0.36426 0.15976 0.0
C849 C 0.91605 0.40719 0.1767 0.0
C850 C 0.89971 0.42224 0.19439 0.0
C851 C 0.94582 0.38001 0.14161 0.0
C852 C 0.94961 0.40973 0.14103 0.0
C853 C 0.9349 0.42296 0.15876 0.0
C854 C 0.96644 0.42688 0.12072 0.0
C855 C 0.96061 0.36456 0.12268 0.0
C856 C 0.99643 0.43301 0.1183 0.0
C857 C 1.01178 0.44999 0.09931 0.0
C858 C 0.99737 0.46111 0.08255 0.0
C859 C 0.96736 0.45482 0.08512 0.0
C860 C 0.95213 0.43794 0.10396 0.0
H861 H 0.95133 0.34057 0.12263 0.0
H862 H 0.95896 0.3702 0.10299 0.0
H863 H 0.98388 0.37161 0.1279 0.0
H864 H 1.00802 0.42511 0.13133 0.0
H865 H 0.03493 0.45499 0.09815 0.0
H866 H 0.79262 0.83305 0.20561 0.0
H867 H 0.7683 0.85726 0.18055 0.0
H868 H 0.69615 0.8359 0.23198 0.0
H869 H 0.71969 0.80976 0.25588 0.0
H870 H 0.67258 0.83395 0.19151 0.0
H871 H 0.76542 0.93421 0.1851 0.0
H872 H 0.77418 0.90387 0.17028 0.0
H873 H 0.76712 0.9067 0.20428 0.0
C874 C 0.7716 0.83351 0.21178 0.0
C875 C 0.7586 0.81918 0.23327 0.0
C876 C 0.75757 0.84799 0.1974 0.0
C877 C 0.73015 0.85001 0.2042 0.0
C878 C 0.71711 0.83543 0.22567 0.0
H879 H 0.67039 0.97866 0.1322 0.0
H880 H 0.69277 0.95402 0.15903 0.0
C881 C 0.73083 0.82029 0.23965 0.0
C882 C 0.71481 0.86623 0.18888 0.0
H883 H 0.72591 0.92684 0.15673 0.0
C884 C 0.68455 0.8544 0.1842 0.0
C885 C 0.72919 0.8936 0.17923 0.0
C886 C 0.76066 0.91049 0.18523 0.0
C887 C 0.66899 0.86819 0.17051 0.0
C888 C 0.6837 0.89454 0.15935 0.0
C889 C 0.71387 0.90663 0.16439 0.0
C890 C 0.66854 0.91005 0.14303 0.0
C891 C 0.63647 0.85458 0.16936 0.0
C892 C 0.64688 0.89468 0.1243 0.0
C893 C 0.63322 0.90896 0.10936 0.0
C894 C 0.64102 0.9396 0.11155 0.0
C895 C 0.66311 0.95515 0.12981 0.0
C896 C 0.67629 0.94079 0.14524 0.0
H897 H 0.62816 0.84216 0.18605 0.0
H898 H 0.62591 0.87117 0.1691 0.0
H899 H 0.62999 0.83901 0.15183 0.0
H900 H 0.64077 0.87135 0.12054 0.0
H901 H 0.61706 0.89578 0.09527 0.0
H902 H 0.30522 0.70296 0.22971 0.0
H903 H 0.28849 0.6651 0.19338 0.0
H904 H 0.2023 0.66854 0.20171 0.0
H905 H 0.21876 0.70641 0.23748 0.0
H906 H 0.24243 0.60884 0.18587 0.0
H907 H 0.22573 0.6899 0.12849 0.0
H908 H 0.24634 0.7001 0.15811 0.0
H909 H 0.20743 0.68813 0.15861 0.0
C910 C 0.28263 0.69534 0.22399 0.0
C911 C 0.2634 0.708 0.23622 0.0
C912 C 0.27312 0.67371 0.20326 0.0
C913 C 0.24428 0.66442 0.19457 0.0
C914 C 0.22477 0.67579 0.2078 0.0
H915 H 0.12831 0.52805 0.09725 0.0
H916 H 0.16426 0.55342 0.13081 0.0
C917 C 0.23423 0.69745 0.22827 0.0
C918 C 0.23463 0.64445 0.17071 0.0
H919 H 0.20277 0.64012 0.11282 0.0
C920 C 0.23413 0.61567 0.16967 0.0
C921 C 0.22447 0.65358 0.14935 0.0
C922 C 0.22627 0.68469 0.14851 0.0
C923 C 0.2222 0.59536 0.14833 0.0
C924 C 0.21 0.604 0.12779 0.0
C925 C 0.21196 0.63322 0.12845 0.0
C926 C 0.19298 0.58324 0.10632 0.0
C927 C 0.22273 0.56492 0.14812 0.0
C928 C 0.19745 0.5906 0.08101 0.0
C929 C 0.17646 0.57659 0.06199 0.0
C930 C 0.15095 0.55447 0.06777 0.0
C931 C 0.14805 0.5447 0.0922 0.0
C932 C 0.16871 0.55925 0.11145 0.0
H933 H 0.24174 0.56482 0.15905 0.0
H934 H 0.20301 0.55149 0.15755 0.0
H935 H 0.22337 0.55471 0.12829 0.0
H936 H 0.216 0.60889 0.07646 0.0
H937 H 0.17906 0.58462 0.04333 0.0
H938 H 0.36508 0.796 0.85448 0.0
H939 H 0.39481 0.82346 0.89172 0.0
H940 H 0.3645 0.89475 0.88481 0.0
H941 H 0.33425 0.86724 0.84807 0.0
H942 H 0.43893 0.87378 0.89655 0.0
H943 H 0.35142 0.88696 0.95973 0.0
H944 H 0.34417 0.86252 0.93056 0.0
H945 H 0.35178 0.90081 0.92944 0.0
C946 C 0.36454 0.81744 0.86096 0.0
C947 C 0.34697 0.82919 0.84822 0.0
C948 C 0.38163 0.8332 0.88233 0.0
C949 C 0.38163 0.86112 0.89162 0.0
C950 C 0.3644 0.87302 0.87869 0.0
H951 H 0.49893 0.99284 1.00429 0.0
H952 H 0.46173 0.96864 0.97084 0.0
C953 C 0.34719 0.85724 0.85743 0.0
C954 C 0.4004 0.87808 0.91415 0.0
H955 H 0.39968 0.9144 0.97371 0.0
C956 C 0.43022 0.88255 0.91338 0.0
C957 C 0.38929 0.88971 0.93634 0.0
C958 C 0.35738 0.88455 0.93925 0.0
C959 C 0.44902 0.89828 0.93385 0.0
C960 C 0.43794 0.90995 0.95588 0.0
C961 C 0.40824 0.90573 0.95672 0.0
C962 C 0.45692 0.92501 0.97864 0.0
C963 C 0.48078 0.90232 0.93189 0.0
C964 C 0.46566 0.90866 0.99489 0.0
C965 C 0.48665 0.92236 0.01407 0.0
C966 C 0.49961 0.95288 0.01755 0.0
C967 C 0.48932 0.96936 1.00241 0.0
C968 C 0.46819 0.95553 0.98311 0.0
H969 H 0.48673 0.89554 0.91227 0.0
H970 H 0.49406 0.92543 0.93731 0.0
H971 H 0.48627 0.88915 0.94548 0.0
H972 H 0.45717 0.88513 0.99197 0.0
H973 H 0.49386 0.90886 0.02533 0.0
H974 H 0.23147 0.32147 0.81003 0.0
H975 H 0.20382 0.33901 0.84257 0.0
H976 H 0.20092 0.26982 0.88757 0.0
H977 H 0.22954 0.25228 0.85507 0.0
H978 H 0.15035 0.31349 0.86103 0.0
H979 H 0.23334 0.34184 0.93875 0.0
H980 H 0.24102 0.3328 0.90575 0.0
H981 H 0.22111 0.3046 0.92497 0.0
C982 C 0.22496 0.30976 0.82674 0.0
C983 C 0.23292 0.28548 0.82995 0.0
C984 C 0.20906 0.31988 0.84537 0.0
C985 C 0.20063 0.30601 0.86767 0.0
C986 C 0.20771 0.28121 0.87072 0.0
H987 H 0.07975 0.36267 0.96754 0.0
H988 H 0.10164 0.33205 0.94089 0.0
C989 C 0.22386 0.27108 0.85204 0.0
C990 C 0.18474 0.31817 0.88753 0.0
H991 H 0.19074 0.35225 0.94844 0.0
C992 C 0.159 0.32171 0.88025 0.0
C993 C 0.19632 0.32922 0.91246 0.0
C994 C 0.22458 0.32721 0.921 0.0
C995 C 0.14497 0.33677 0.89687 0.0
C996 C 0.15653 0.34785 0.92181 0.0
C997 C 0.18185 0.3436 0.92937 0.0
C998 C 0.14372 0.3655 0.9397 0.0
C999 C 0.11875 0.3419 0.88702 0.0
C1000 C 0.16043 0.39411 0.94885 0.0
C1001 C 0.14812 0.41155 0.96445 0.0
C1002 C 0.11877 0.40076 0.97107 0.0
C1003 C 0.1023 0.37182 0.96247 0.0
C1004 C 0.11474 0.35429 0.94715 0.0
H1005 H 0.11727 0.33866 0.86574 0.0
H1006 H 0.09891 0.32628 0.89451 0.0
H1007 H 0.11915 0.36426 0.8935 0.0
H1008 H 0.18288 0.40319 0.94342 0.0
H1009 H 0.16143 0.43371 0.97078 0.0
H1010 H 0.71506 0.24176 0.84276 0.0
H1011 H 0.68892 0.21148 0.87581 0.0
H1012 H 0.7569 0.17522 0.87822 0.0
H1013 H 0.78327 0.20561 0.84551 0.0
H1014 H 0.6661 0.15263 0.8782 0.0
H1015 H 0.7509 0.19944 0.95337 0.0
H1016 H 0.75173 0.21593 0.92416 0.0
H1017 H 0.76423 0.18562 0.92453 0.0
C1018 C 0.72461 0.22745 0.85033 0.0
C1019 C 0.75163 0.22655 0.84132 0.0
C1020 C 0.70949 0.20998 0.86933 0.0
C1021 C 0.72093 0.19116 0.88018 0.0
C1022 C 0.74767 0.18991 0.87089 0.0
H1023 H 0.67626 0.06531 0.99112 0.0
H1024 H 0.6962 0.09804 0.95867 0.0
C1025 C 0.76277 0.20732 0.85191 0.0
C1026 C 0.705 0.17278 0.90094 0.0
H1027 H 0.7133 0.15566 0.9613 0.0
C1028 C 0.67639 0.15353 0.89645 0.0
C1029 C 0.71799 0.17376 0.92505 0.0
C1030 C 0.74777 0.195 0.93224 0.0
C1031 C 0.66116 0.13464 0.91466 0.0
C1032 C 0.67449 0.1351 0.93849 0.0
C1033 C 0.70282 0.15489 0.94317 0.0
C1034 C 0.66057 0.11419 0.95818 0.0
C1035 C 0.63128 0.11351 0.90771 0.0
C1036 C 0.63342 0.11175 0.96927 0.0
C1037 C 0.6216 0.09257 0.9882 0.0
C1038 C 0.63669 0.0754 0.99672 0.0
C1039 C 0.66372 0.07796 0.9854 0.0
C1040 C 0.67536 0.09691 0.96665 0.0
H1041 H 0.62691 0.11089 0.88675 0.0
H1042 H 0.62836 0.09185 0.91392 0.0
H1043 H 0.61498 0.12172 0.91759 0.0
H1044 H 0.62154 0.12509 0.96371 0.0
H1045 H 0.60091 0.09156 0.99643 0.0
H1046 H 0.94949 0.74725 0.89941 0.0
H1047 H 0.97663 0.71921 0.91527 0.0
H1048 H 0.96369 0.66591 0.84277 0.0
H1049 H 0.93721 0.69456 0.82636 0.0
H1050 H 0.95452 0.66059 0.92 0.0
H1051 H 0.05063 0.68591 0.85713 0.0
H1052 H 1.02734 0.70753 0.86036 0.0
H1053 H 1.01629 0.67337 0.84061 0.0
C1054 C 0.95291 0.72999 0.88659 0.0
C1055 C 0.94124 0.72327 0.86154 0.0
C1056 C 0.96832 0.71386 0.89576 0.0
C1057 C 0.97253 0.6907 0.88012 0.0
C1058 C 0.96118 0.68403 0.85502 0.0
H1059 H 1.0083 0.55176 0.94431 0.0
H1060 H 0.99177 0.57904 0.91575 0.0
C1061 C 0.94572 0.70019 0.84579 0.0
C1062 C 0.98686 0.67234 0.89093 0.0
H1063 H 0.04517 0.64938 0.88494 0.0
C1064 C 0.97433 0.65815 0.91231 0.0
C1065 C 1.01283 0.66936 0.88098 0.0
C1066 C 1.02778 0.68502 0.85864 0.0
C1067 C 0.98695 0.64102 0.92401 0.0
C1068 C 1.01258 0.6375 0.91378 0.0
C1069 C 1.02533 0.65184 0.89251 0.0
C1070 C 1.02655 0.61963 0.92578 0.0
C1071 C 0.973 0.62727 0.9476 0.0
C1072 C 0.05275 0.63292 0.93944 0.0
C1073 C 0.06249 0.61726 0.95566 0.0
C1074 C 0.04595 0.58818 0.95855 0.0
C1075 C 1.02131 0.57424 0.94281 0.0
C1076 C 1.01177 0.58981 0.9265 0.0
H1077 H 0.95734 0.63726 0.95622 0.0
H1078 H 0.9611 0.6038 0.94228 0.0
H1079 H 0.98959 0.62928 0.96233 0.0
H1080 H 0.06455 0.6559 0.939 0.0
H1081 H 0.08158 0.6286 0.96747 0.0
H1082 H 0.18261 0.3391 0.2101 0.0
H1083 H 0.15069 0.36191 0.19417 0.0
H1084 H 0.08089 0.27948 0.18694 0.0
H1085 H 0.11286 0.25632 0.20323 0.0
H1086 H 0.09114 0.30482 0.14294 0.0
H1087 H 0.08374 0.38604 0.22117 0.0
H1088 H 0.12069 0.38874 0.21607 0.0
H1089 H 0.09524 0.35598 0.22659 0.0
C1090 C 0.16024 0.32591 0.2059 0.0
C1091 C 0.15028 0.29588 0.20794 0.0
C1092 C 0.14194 0.33906 0.1969 0.0
C1093 C 0.11323 0.32253 0.18989 0.0
C1094 C 0.10289 0.29267 0.19256 0.0
H1095 H 1.02762 0.38937 0.07911 0.0
H1096 H 1.02879 0.36112 0.11437 0.0
C1097 C 0.12124 0.27945 0.20161 0.0
C1098 C 0.09592 0.33584 0.17619 0.0
H1099 H 0.07997 0.39813 0.17759 0.0
C1100 C 0.08778 0.32473 0.15071 0.0
C1101 C 0.0915 0.36173 0.18645 0.0
C1102 C 0.09799 0.3736 0.21418 0.0
C1103 C 0.07804 0.34031 0.13444 0.0
C1104 C 0.07594 0.36746 0.14416 0.0
C1105 C 0.08178 0.3774 0.17019 0.0
C1106 C 0.07229 0.38757 0.12668 0.0
C1107 C 0.07247 0.32877 0.10649 0.0
C1108 C 0.09579 0.41266 0.12292 0.0
C1109 C 0.09529 0.42885 0.10284 0.0
C1110 C 0.07123 0.42016 0.08615 0.0
C1111 C 0.04672 0.39638 0.09133 0.0
C1112 C 0.04727 0.38022 0.11149 0.0
H1113 H 0.079 0.30941 0.10145 0.0
H1114 H 0.04904 0.32245 0.10211 0.0
H1115 H 0.08441 0.34578 0.09407 0.0
H1116 H 0.11528 0.41872 0.13454 0.0
H1117 H 0.11436 0.44726 0.09963 0.0
H1118 H 0.27102 0.68706 0.81365 0.0
H1119 H 0.2454 0.64947 0.84115 0.0
H1120 H 0.21109 0.70948 0.88478 0.0
H1121 H 0.23676 0.74727 0.85765 0.0
H1122 H 0.23355 0.67838 0.91504 0.0
H1123 H 0.15739 0.60545 0.84008 0.0
H1124 H 0.195 0.61546 0.83194 0.0
H1125 H 0.17827 0.64281 0.83617 0.0
C1126 C 0.25804 0.6923 0.82909 0.0
C1127 C 0.25584 0.72017 0.83335 0.0
C1128 C 0.24328 0.67073 0.84469 0.0
C1129 C 0.226 0.6766 0.86472 0.0
C1130 C 0.22419 0.70449 0.86931 0.0
H1131 H 0.09643 0.55794 0.95294 0.0
H1132 H 0.12271 0.59352 0.92394 0.0
C1133 C 0.2389 0.72606 0.85376 0.0
C1134 C 0.21006 0.65384 0.88118 0.0
H1135 H 0.15658 0.5876 0.88039 0.0
C1136 C 0.21673 0.65852 0.90749 0.0
C1137 C 0.18789 0.62816 0.87128 0.0
C1138 C 0.17895 0.62266 0.84337 0.0
C1139 C 0.20201 0.63803 0.92417 0.0
C1140 C 0.18034 0.61201 0.91416 0.0
C1141 C 0.17342 0.60746 0.88791 0.0
C1142 C 0.1643 0.58953 0.93082 0.0
C1143 C 0.20936 0.64463 0.95243 0.0
C1144 C 0.17887 0.57506 0.94382 0.0
C1145 C 0.16396 0.55492 0.96056 0.0
C1146 C 0.13417 0.54883 0.96454 0.0
C1147 C 0.11945 0.56259 0.95073 0.0
C1148 C 0.13439 0.58276 0.934 0.0
H1149 H 0.22132 0.66812 0.95776 0.0
H1150 H 0.18948 0.63795 0.96411 0.0
H1151 H 0.22326 0.63231 0.95739 0.0
H1152 H 0.20186 0.5796 0.94123 0.0
H1153 H 0.17595 0.54462 0.97079 0.0
H1154 H 0.43893 0.23227 0.8933 0.0
H1155 H 0.47085 0.2146 0.91673 0.0
H1156 H 0.41383 0.12643 0.89779 0.0
H1157 H 0.38183 0.14385 0.87446 0.0
H1158 H 0.45824 0.18423 0.95856 0.0
H1159 H 0.49168 0.11914 0.87943 0.0
H1160 H 0.47444 0.14499 0.87382 0.0
H1161 H 0.45311 0.10924 0.88164 0.0
C1162 C 0.4332 0.2091 0.89403 0.0
C1163 C 0.40776 0.18952 0.88183 0.0
C1164 C 0.45158 0.19901 0.90736 0.0
C1165 C 0.44509 0.16912 0.90872 0.0
C1166 C 0.41982 0.14953 0.89646 0.0
H1167 H 0.49691 0.05605 0.99413 0.0
H1168 H 0.47781 0.07901 0.96348 0.0
C1169 C 0.40147 0.15957 0.8831 0.0
C1170 C 0.46364 0.15848 0.92427 0.0
H1171 H 0.50034 0.1105 0.92205 0.0
C1172 C 0.4678 0.16842 0.95049 0.0
C1173 C 0.47616 0.13782 0.91381 0.0
C1174 C 0.47389 0.12738 0.88558 0.0
C1175 C 0.48295 0.1574 0.96669 0.0
C1176 C 0.49482 0.13618 0.95636 0.0
C1177 C 0.4913 0.12676 0.93001 0.0
C1178 C 0.50904 0.12202 0.97294 0.0
C1179 C 0.48497 0.16765 0.99498 0.0
C1180 C 0.53381 0.13825 0.9878 0.0
C1181 C 0.54489 0.12513 1.00549 0.0
C1182 C 0.53143 0.09547 1.00864 0.0
C1183 C 0.50776 0.07897 0.99249 0.0
C1184 C 0.49676 0.09208 0.97487 0.0
H1185 H 0.46951 0.17914 1.00064 0.0
H1186 H 0.48064 0.14908 1.00658 0.0
H1187 H 0.50715 0.18295 0.99974 0.0
H1188 H 0.54411 0.16126 0.98624 0.0
H1189 H 0.56323 0.13852 0.01743 0.0
H1190 H 0.81414 0.3805 0.81737 0.0
H1191 H 0.83568 0.4215 0.85026 0.0
H1192 H 0.847 0.36222 0.90044 0.0
H1193 H 0.82524 0.32163 0.86834 0.0
H1194 H 0.83208 0.40783 0.92669 0.0
H1195 H 0.92356 0.44753 0.85938 0.0
H1196 H 0.88774 0.44466 0.84988 0.0
H1197 H 0.89605 0.41233 0.85261 0.0
C1198 C 0.82069 0.37627 0.83566 0.0
C1199 C 0.8186 0.34797 0.84011 0.0
C1200 C 0.83303 0.39968 0.85436 0.0
C1201 C 0.84335 0.39491 0.8776 0.0
C1202 C 0.83921 0.36642 0.88264 0.0
H1203 H 0.95792 0.41497 0.98557 0.0
H1204 H 0.914 0.40896 0.96177 0.0
C1205 C 0.82699 0.34321 0.86413 0.0
C1206 C 0.86195 0.41893 0.89558 0.0
H1207 H 0.93331 0.46014 0.90301 0.0
C1208 C 0.85397 0.42017 0.92146 0.0
C1209 C 0.89039 0.43532 0.88869 0.0
C1210 C 0.90017 0.43502 0.86119 0.0
C1211 C 0.87458 0.43446 0.94083 0.0
C1212 C 0.90376 0.4476 0.93405 0.0
C1213 C 0.91092 0.4497 0.90812 0.0
C1214 C 0.92772 0.4535 0.95264 0.0
C1215 C 0.86537 0.43355 0.96843 0.0
C1216 C 0.95006 0.48054 0.95544 0.0
C1217 C 0.97533 0.48396 0.96899 0.0
C1218 C 0.97883 0.46028 0.97955 0.0
C1219 C 0.95593 0.43359 0.97758 0.0
C1220 C 0.93063 0.43025 0.96426 0.0
H1221 H 0.84276 0.43333 0.9704 0.0
H1222 H 0.86616 0.41329 0.9753 0.0
H1223 H 0.87981 0.45241 0.98087 0.0
H1224 H 0.94843 0.4986 0.94626 0.0
H1225 H 0.9927 0.5047 0.96998 0.0
H1226 H 0.72236 0.80732 0.82466 0.0
H1227 H 0.70218 0.8336 0.85773 0.0
H1228 H 0.78789 0.88189 0.88758 0.0
H1229 H 0.80837 0.85552 0.85448 0.0
H1230 H 0.70652 0.8357 0.91176 0.0
H1231 H 0.75352 0.94655 0.88107 0.0
H1232 H 0.752 0.91436 0.86025 0.0
H1233 H 0.77883 0.92832 0.88538 0.0
C1234 C 0.73711 0.82366 0.83807 0.0
C1235 C 0.76719 0.82917 0.83659 0.0
C1236 C 0.72542 0.83872 0.85713 0.0
C1237 C 0.74334 0.86013 0.87522 0.0
C1238 C 0.77343 0.8659 0.87373 0.0
H1239 H 0.70158 0.97325 1.00254 0.0
H1240 H 0.72656 0.95021 0.9706 0.0
C1241 C 0.78517 0.85064 0.85475 0.0
C1242 C 0.7303 0.87546 0.89599 0.0
H1243 H 0.72687 0.94206 0.91941 0.0
C1244 C 0.71101 0.85897 0.91336 0.0
C1245 C 0.73617 0.90592 0.89852 0.0
C1246 C 0.75607 0.92492 0.88025 0.0
C1247 C 0.69772 0.87187 0.93301 0.0
C1248 C 0.7029 0.90226 0.93516 0.0
C1249 C 0.72257 0.91884 0.91799 0.0
C1250 C 0.68765 0.91696 0.95459 0.0
C1251 C 0.67878 0.85265 0.95171 0.0
C1252 C 0.65726 0.90673 0.95625 0.0
C1253 C 0.64295 0.91973 0.97467 0.0
C1254 C 0.65839 0.94386 0.99193 0.0
C1255 C 0.68879 0.95472 0.98978 0.0
C1256 C 0.70317 0.94149 0.9714 0.0
H1257 H 0.68481 0.83308 0.9531 0.0
H1258 H 0.68025 0.86446 0.97117 0.0
H1259 H 0.65596 0.8451 0.94494 0.0
H1260 H 0.64441 0.8886 0.94317 0.0
H1261 H 0.61956 0.91078 0.97527 0.0
H1262 H 0.95485 0.72556 0.2581 0.0
H1263 H 0.97599 0.6914 0.23599 0.0
H1264 H 1.01342 0.7517 0.18043 0.0
H1265 H 0.99128 0.78527 0.20144 0.0
H1266 H 0.95358 0.67912 0.17994 0.0
H1267 H 0.07209 0.70524 0.19204 0.0
H1268 H 0.04966 0.71378 0.21731 0.0
H1269 H 0.05941 0.73536 0.1909 0.0
C1270 C 0.96836 0.73195 0.24163 0.0
C1271 C 0.9706 0.75767 0.23099 0.0
C1272 C 0.98062 0.71252 0.22922 0.0
C1273 C 0.99601 0.71909 0.20659 0.0
C1274 C 1.00176 0.74648 0.19806 0.0
H1275 H 0.04877 0.64727 0.06926 0.0
H1276 H 0.03863 0.67618 0.1067 0.0
C1277 C 0.98909 0.76569 0.21016 0.0
C1278 C 0.99927 0.69556 0.18844 0.0
H1279 H 0.04948 0.67308 0.15549 0.0
C1280 C 0.97443 0.67726 0.17482 0.0
C1281 C 1.02653 0.69374 0.18186 0.0
C1282 C 0.05354 0.71292 0.19634 0.0
C1283 C 0.97633 0.65827 0.15356 0.0
C1284 C 1.00379 0.65698 0.14638 0.0
C1285 C 1.02847 0.67426 0.16095 0.0
C1286 C 1.00777 0.6394 0.12288 0.0
C1287 C 0.94919 0.64127 0.13812 0.0
C1288 C 0.99312 0.60927 0.11921 0.0
C1289 C 0.99823 0.59286 0.0974 0.0
C1290 C 1.01866 0.60631 0.07942 0.0
C1291 C 0.03281 0.6365 0.08285 0.0
C1292 C 1.02724 0.65293 0.1043 0.0
H1293 H 0.9317 0.65056 0.14218 0.0
H1294 H 0.95351 0.64073 0.11724 0.0
H1295 H 0.9411 0.61859 0.14318 0.0
H1296 H 0.9785 0.5983 0.13357 0.0
H1297 H 0.98755 0.5695 0.09541 0.0
H1298 H 0.34657 0.78917 0.20588 0.0
H1299 H 0.38814 0.81192 0.17953 0.0
H1300 H 0.43573 0.86037 0.24751 0.0
H1301 H 0.39483 0.8362 0.27396 0.0
H1302 H 0.40479 0.86517 0.17404 0.0
H1303 H 0.5003 0.84543 0.20919 0.0
H1304 H 0.46399 0.82483 0.21815 0.0
H1305 H 0.48334 0.85966 0.23536 0.0
C1306 C 0.36622 0.80414 0.21518 0.0
C1307 C 0.36751 0.81123 0.24185 0.0
C1308 C 0.38999 0.81705 0.20017 0.0
C1309 C 0.41525 0.8378 0.21147 0.0
C1310 C 0.41693 0.84389 0.2383 0.0
H1311 H 0.50615 0.99255 0.14774 0.0
H1312 H 0.48164 0.95457 0.17509 0.0
C1313 C 0.39339 0.83033 0.25341 0.0
C1314 C 0.43744 0.85638 0.19511 0.0
H1315 H 0.51024 0.88946 0.18776 0.0
C1316 C 0.4278 0.86987 0.17676 0.0
C1317 C 0.46755 0.86252 0.19835 0.0
C1318 C 0.47933 0.84704 0.21615 0.0
C1319 C 0.44726 0.89022 0.1625 0.0
C1320 C 0.47726 0.8982 0.16732 0.0
C1321 C 0.48716 0.88372 0.18459 0.0
C1322 C 0.49801 0.92262 0.15525 0.0
C1323 C 0.43541 0.90344 0.14267 0.0
C1324 C 0.51696 0.91776 0.13629 0.0
C1325 C 0.5315 0.93973 0.12091 0.0
C1326 C 0.5268 0.96646 0.12425 0.0
C1327 C 0.50983 0.97198 0.14468 0.0
C1328 C 0.49584 0.95034 0.16026 0.0
H1329 H 0.41331 0.88924 0.13613 0.0
H1330 H 0.43406 0.92455 0.15123 0.0
H1331 H 0.44964 0.90741 0.12571 0.0
H1332 H 0.51893 0.89648 0.13225 0.0
H1333 H 0.54446 0.93503 0.10519 0.0
H1334 H 0.84407 0.22126 0.22376 0.0
H1335 H 0.84208 0.18489 0.18722 0.0
H1336 H 0.75239 0.13952 0.20338 0.0
H1337 H 0.75449 0.17503 0.23969 0.0
H1338 H 0.78019 0.1024 0.18 0.0
H1339 H 0.80024 0.19979 0.12729 0.0
H1340 H 0.82744 0.19707 0.14817 0.0
H1341 H 0.79596 0.20365 0.16152 0.0
C1342 C 0.82433 0.20283 0.21999 0.0
C1343 C 0.79914 0.20125 0.23394 0.0
C1344 C 0.82321 0.18217 0.1991 0.0
C1345 C 0.7969 0.15996 0.19219 0.0
C1346 C 0.77294 0.15652 0.20824 0.0
H1347 H 0.65803 0.12021 0.12404 0.0
H1348 H 0.70805 0.13837 0.13953 0.0
C1349 C 0.77402 0.17702 0.22888 0.0
C1350 C 0.7912 0.14431 0.16614 0.0
H1351 H 0.76299 0.15727 0.11202 0.0
C1352 C 0.77759 0.11402 0.16434 0.0
C1353 C 0.78847 0.15948 0.14545 0.0
C1354 C 0.80383 0.19178 0.14547 0.0
C1355 C 0.75658 0.09966 0.14527 0.0
C1356 C 0.75002 0.11611 0.12742 0.0
C1357 C 0.76774 0.14504 0.12625 0.0
C1358 C 0.72107 0.10656 0.11534 0.0
C1359 C 0.73882 0.06808 0.14656 0.0
C1360 C 0.7121 0.08313 0.09626 0.0
C1361 C 0.68343 0.07265 0.08747 0.0
C1362 C 0.66333 0.0854 0.09765 0.0
C1363 C 0.67288 0.10981 0.11587 0.0
C1364 C 0.70146 0.12021 0.12469 0.0
H1365 H 0.7469 0.05843 0.16162 0.0
H1366 H 0.71593 0.06583 0.15065 0.0
H1367 H 0.73929 0.05547 0.12781 0.0
H1368 H 0.72707 0.07266 0.08851 0.0
H1369 H 0.67723 0.05465 0.07275 0.0
H1370 H 0.77289 0.71803 0.85514 0.0
H1371 H 0.73974 0.68309 0.88096 0.0
H1372 H 0.67959 0.65084 0.81729 0.0
H1373 H 0.71286 0.68604 0.791 0.0
H1374 H 0.68133 0.67997 0.89252 0.0
H1375 H 0.68764 0.57638 0.84333 0.0
H1376 H 0.71502 0.61116 0.83963 0.0
H1377 H 0.68063 0.60109 0.82367 0.0
C1378 C 0.75276 0.70341 0.84638 0.0
C1379 C 0.74563 0.70498 0.82087 0.0
C1380 C 0.73377 0.68342 0.86128 0.0
C1381 C 0.70721 0.66427 0.8511 0.0
C1382 C 0.70013 0.6652 0.82549 0.0
H1383 H 0.56991 0.56848 0.95226 0.0
H1384 H 0.59525 0.59739 0.9182 0.0
C1385 C 0.71917 0.68537 0.81048 0.0
C1386 C 0.68675 0.64435 0.86793 0.0
H1387 H 0.65732 0.57306 0.87923 0.0
C1388 C 0.67581 0.65656 0.88948 0.0
C1389 C 0.67977 0.61384 0.86405 0.0
C1390 C 0.69143 0.59966 0.84154 0.0
C1391 C 0.65851 0.6392 0.90744 0.0
C1392 C 0.65176 0.6087 0.90373 0.0
C1393 C 0.66236 0.59641 0.88198 0.0
C1394 C 0.63538 0.58955 0.92313 0.0
C1395 C 0.64846 0.65374 0.93077 0.0
C1396 C 0.64912 0.57481 0.93679 0.0
C1397 C 0.63473 0.55848 0.95643 0.0
C1398 C 0.60615 0.55639 0.96282 0.0
C1399 C 0.59206 0.57022 0.94836 0.0
C1400 C 0.60652 0.58668 0.92878 0.0
H1401 H 0.65998 0.67761 0.93323 0.0
H1402 H 0.62497 0.64977 0.92878 0.0
H1403 H 0.65181 0.64457 0.94838 0.0
H1404 H 0.67134 0.57661 0.93273 0.0
H1405 H 0.64632 0.54808 0.967 0.0
H1406 H 0.42539 0.66071 0.78505 0.0
H1407 H 0.45268 0.6379 0.80859 0.0
H1408 H 0.4626 0.70317 0.87275 0.0
H1409 H 0.43587 0.72646 0.84929 0.0
H1410 H 0.51281 0.66555 0.83839 0.0
H1411 H 0.41371 0.61798 0.89485 0.0
H1412 H 0.4125 0.63013 0.86377 0.0
H1413 H 0.42406 0.65616 0.89148 0.0
C1414 C 0.43391 0.67057 0.80396 0.0
C1415 C 0.4282 0.6952 0.81545 0.0
C1416 C 0.44947 0.65751 0.81732 0.0
C1417 C 0.45949 0.6689 0.84232 0.0
C1418 C 0.45492 0.69413 0.85344 0.0
H1419 H 0.55784 0.63707 0.95943 0.0
H1420 H 0.54488 0.65409 0.92098 0.0
C1421 C 0.43942 0.7072 0.84012 0.0
C1422 C 0.47207 0.65293 0.85792 0.0
H1423 H 0.45684 0.61331 0.90896 0.0
C1424 C 0.50063 0.65384 0.85369 0.0
C1425 C 0.45584 0.63743 0.87753 0.0
C1426 C 0.42474 0.63507 0.88218 0.0
C1427 C 0.51376 0.6403 0.86936 0.0
C1428 C 0.49788 0.62588 0.88974 0.0
C1429 C 0.46901 0.6243 0.89329 0.0
C1430 C 0.51072 0.6136 0.90881 0.0
C1431 C 0.54441 0.6416 0.864 0.0
C1432 C 0.49642 0.58495 0.91434 0.0
C1433 C 0.50334 0.57545 0.93656 0.0
C1434 C 0.52485 0.59436 0.95352 0.0
C1435 C 0.5411 0.62208 0.94671 0.0
C1436 C 0.53386 0.63175 0.92461 0.0
H1437 H 0.55003 0.64478 0.84363 0.0
H1438 H 0.55948 0.6603 0.87611 0.0
H1439 H 0.54784 0.62149 0.86853 0.0
H1440 H 0.47857 0.57056 0.90236 0.0
H1441 H 0.49079 0.55378 0.94111 0.0
H1442 H 0.30684 0.36728 0.80879 0.0
H1443 H 0.32841 0.40989 0.84009 0.0
H1444 H 0.39943 0.38009 0.85235 0.0
H1445 H 0.37808 0.33777 0.82143 0.0
H1446 H 0.33657 0.40312 0.89131 0.0
H1447 H 0.44022 0.46745 0.85077 0.0
H1448 H 0.41095 0.44205 0.83106 0.0
H1449 H 0.43567 0.42952 0.84711 0.0
C1450 C 0.32759 0.37046 0.81751 0.0
C1451 C 0.34086 0.34931 0.81272 0.0
C1452 C 0.33977 0.39468 0.83546 0.0
C1453 C 0.36566 0.3983 0.84833 0.0
C1454 C 0.37976 0.37808 0.84228 0.0
H1455 H 0.43565 0.42754 0.99067 0.0
H1456 H 0.4019 0.41539 0.95469 0.0
C1457 C 0.36746 0.3538 0.8247 0.0
C1458 C 0.37616 0.42039 0.87066 0.0
H1459 H 0.43908 0.46811 0.89742 0.0
C1460 C 0.35872 0.41804 0.89249 0.0
C1461 C 0.40481 0.44026 0.87212 0.0
C1462 C 0.42386 0.4452 0.84889 0.0
C1463 C 0.37019 0.43277 0.91635 0.0
C1464 C 0.39988 0.44987 0.91839 0.0
C1465 C 0.4164 0.45464 0.89602 0.0
C1466 C 0.41538 0.45906 0.94345 0.0
C1467 C 0.35075 0.42874 0.93934 0.0
C1468 C 0.43384 0.48781 0.94957 0.0
C1469 C 0.45339 0.49481 0.97017 0.0
C1470 C 0.45512 0.47308 0.98477 0.0
C1471 C 0.43502 0.44481 0.9798 0.0
C1472 C 0.41547 0.43786 0.95929 0.0
H1473 H 0.32815 0.4255 0.93367 0.0
H1474 H 0.3505 0.409 0.94788 0.0
H1475 H 0.35831 0.44767 0.95417 0.0
H1476 H 0.43426 0.5045 0.93755 0.0
H1477 H 0.46848 0.51678 0.97344 0.0
H1478 H 0.62577 0.32136 0.8103 0.0
H1479 H 0.60507 0.33583 0.84948 0.0
H1480 H 0.59145 0.25244 0.87603 0.0
H1481 H 0.61119 0.2369 0.83597 0.0
H1482 H 0.55218 0.31105 0.88001 0.0
H1483 H 0.65644 0.31643 0.92363 0.0
H1484 H 0.65161 0.31379 0.88936 0.0
H1485 H 0.63419 0.28283 0.90634 0.0
C1486 C 0.61717 0.30536 0.8237 0.0
C1487 C 0.62075 0.27806 0.82005 0.0
C1488 C 0.60552 0.31387 0.84631 0.0
C1489 C 0.59742 0.29541 0.86574 0.0
C1490 C 0.59806 0.26709 0.86128 0.0
H1491 H 0.54613 0.37501 1.00705 0.0
H1492 H 0.55219 0.33644 0.9766 0.0
C1493 C 0.60944 0.25835 0.83843 0.0
C1494 C 0.59247 0.3078 0.89152 0.0
H1495 H 0.6287 0.34017 0.94754 0.0
C1496 C 0.56843 0.31679 0.89512 0.0
C1497 C 0.61413 0.31557 0.91086 0.0
C1498 C 0.64068 0.30684 0.90752 0.0
C1499 C 0.56611 0.33459 0.91715 0.0
C1500 C 0.58836 0.34334 0.93603 0.0
C1501 C 0.61174 0.33327 0.93298 0.0
C1502 C 0.58874 0.36505 0.95779 0.0
C1503 C 0.54078 0.34537 0.91937 0.0
C1504 C 0.60851 0.39352 0.95819 0.0
C1505 C 0.60525 0.41567 0.97569 0.0
C1506 C 0.58205 0.40947 0.99279 0.0
C1507 C 0.56394 0.38045 0.99377 0.0
C1508 C 0.56732 0.35839 0.97643 0.0
H1509 H 0.52787 0.34013 0.90129 0.0
H1510 H 0.52634 0.33506 0.9348 0.0
H1511 H 0.54838 0.36926 0.92454 0.0
H1512 H 0.62526 0.39892 0.9439 0.0
H1513 H 0.61947 0.43783 0.97454 0.0
H1514 H 0.67764 0.37458 0.23929 0.0
H1515 H 0.65292 0.40581 0.22541 0.0
H1516 H 0.57893 0.33045 0.20131 0.0
H1517 H 0.60317 0.29898 0.2159 0.0
H1518 H 0.63954 0.39814 0.17335 0.0
H1519 H 0.54148 0.39023 0.23094 0.0
H1520 H 0.57136 0.38125 0.24246 0.0
H1521 H 0.54553 0.35598 0.22 0.0
C1522 C 0.65565 0.36464 0.23202 0.0
C1523 C 0.64248 0.33423 0.22847 0.0
C1524 C 0.64158 0.38256 0.22402 0.0
C1525 C 0.61404 0.37048 0.21246 0.0
C1526 C 0.59997 0.34028 0.21056 0.0
H1527 H 0.51883 0.41654 0.10121 0.0
H1528 H 0.53176 0.39689 0.13814 0.0
C1529 C 0.61403 0.3223 0.21859 0.0
C1530 C 0.60268 0.38867 0.19812 0.0
H1531 H 0.5445 0.41016 0.19083 0.0
C1532 C 0.61899 0.40121 0.17745 0.0
C1533 C 0.57563 0.3921 0.20325 0.0
C1534 C 0.55753 0.37939 0.2255 0.0
C1535 C 0.6087 0.41636 0.16122 0.0
C1536 C 0.58165 0.41995 0.1663 0.0
C1537 C 0.56537 0.40769 0.18719 0.0
C1538 C 0.56949 0.43469 0.14883 0.0
C1539 C 0.62637 0.42711 0.13804 0.0
C1540 C 0.58522 0.4632 0.14373 0.0
C1541 C 0.5783 0.4742 0.12233 0.0
C1542 C 0.55505 0.45711 0.10612 0.0
C1543 C 0.53709 0.43006 0.11318 0.0
C1544 C 0.5444 0.41882 0.13433 0.0
H1545 H 0.64265 0.41632 0.13355 0.0
H1546 H 0.61227 0.42327 0.12087 0.0
H1547 H 0.63817 0.4508 0.14186 0.0
H1548 H 0.60418 0.47611 0.15515 0.0
H1549 H 0.59215 0.49539 0.11764 0.0
H1550 H 0.73287 0.68698 0.23556 0.0
H1551 H 0.71272 0.6493 0.20065 0.0
H1552 H 0.79776 0.66653 0.16807 0.0
H1553 H 0.81762 0.70631 0.20224 0.0
H1554 H 0.76582 0.66172 0.1322 0.0
H1555 H 0.70493 0.56887 0.18246 0.0
H1556 H 0.69281 0.5976 0.19576 0.0
H1557 H 0.73034 0.60091 0.1995 0.0
C1558 C 0.74739 0.68238 0.22122 0.0
C1559 C 0.7768 0.69948 0.22161 0.0
C1560 C 0.73589 0.66044 0.20134 0.0
C1561 C 0.75371 0.65415 0.1819 0.0
C1562 C 0.78345 0.67066 0.18282 0.0
H1563 H 0.62564 0.53399 0.07244 0.0
H1564 H 0.66997 0.54781 0.09855 0.0
C1565 C 0.79483 0.69337 0.20234 0.0
C1566 C 0.74032 0.63325 0.15914 0.0
H1567 H 0.68055 0.57394 0.14262 0.0
C1568 C 0.74777 0.64202 0.13453 0.0
C1569 C 0.7176 0.60657 0.16142 0.0
C1570 C 0.71135 0.59288 0.18625 0.0
C1571 C 0.73092 0.62697 0.11291 0.0
C1572 C 0.70497 0.60362 0.11616 0.0
C1573 C 0.6997 0.59257 0.14007 0.0
C1574 C 0.68104 0.5941 0.09676 0.0
C1575 C 0.74068 0.63705 0.087 0.0
C1576 C 0.67258 0.61529 0.0867 0.0
C1577 C 0.64782 0.60747 0.07147 0.0
C1578 C 0.63009 0.5782 0.06643 0.0
C1579 C 0.63883 0.55673 0.07584 0.0
C1580 C 0.66414 0.56463 0.09085 0.0
H1581 H 0.76455 0.64313 0.08547 0.0
H1582 H 0.73037 0.62008 0.07109 0.0
H1583 H 0.73537 0.65684 0.08479 0.0
H1584 H 0.68425 0.6382 0.0917 0.0
H1585 H 0.64188 0.62473 0.06475 0.0
H1586 H 0.38256 0.66732 0.25673 0.0
H1587 H 0.40282 0.65325 0.21673 0.0
H1588 H 0.48015 0.72829 0.23073 0.0
H1589 H 0.46041 0.74213 0.2714 0.0
H1590 H 0.41714 0.69131 0.17736 0.0
H1591 H 0.51055 0.66142 0.20596 0.0
H1592 H 0.48167 0.66214 0.22768 0.0
H1593 H 0.50884 0.69549 0.22069 0.0
C1594 C 0.40436 0.68025 0.25189 0.0
C1595 C 0.4199 0.70587 0.26725 0.0
C1596 C 0.41573 0.67235 0.22885 0.0
C1597 C 0.44286 0.6898 0.22083 0.0
C1598 C 0.45924 0.71444 0.23675 0.0
H1599 H 0.53268 0.66569 0.08025 0.0
H1600 H 0.51754 0.69003 0.11807 0.0
C1601 C 0.44789 0.72236 0.25989 0.0
C1602 C 0.45264 0.68353 0.19478 0.0
H1603 H 0.50337 0.66176 0.16177 0.0
C1604 C 0.43605 0.68493 0.17389 0.0
C1605 C 0.47747 0.67561 0.19045 0.0
C1606 C 0.49563 0.67333 0.21233 0.0
C1607 C 0.4434 0.67806 0.14865 0.0
C1608 C 0.4677 0.66921 0.14434 0.0
C1609 C 0.48479 0.66868 0.1652 0.0
C1610 C 0.47458 0.65805 0.11866 0.0
C1611 C 0.42508 0.68025 0.12686 0.0
C1612 C 0.45498 0.63262 0.10595 0.0
C1613 C 0.46349 0.61865 0.08428 0.0
C1614 C 0.4919 0.62972 0.0752 0.0
C1615 C 0.51072 0.65642 0.08686 0.0
C1616 C 0.50215 0.67038 0.10849 0.0
H1617 H 0.41342 0.69566 0.13256 0.0
H1618 H 0.43843 0.6874 0.10984 0.0
H1619 H 0.40865 0.65858 0.12129 0.0
H1620 H 0.43373 0.62252 0.11373 0.0
H1621 H 0.44844 0.59816 0.07579 0.0
H1622 H 0.38792 0.34413 0.25503 0.0
H1623 H 0.41555 0.37785 0.22528 0.0
H1624 H 0.33638 0.37224 0.18809 0.0
H1625 H 0.30836 0.33857 0.21808 0.0
H1626 H 0.41787 0.36852 0.17254 0.0
H1627 H 0.37811 0.45994 0.20104 0.0
H1628 H 0.37261 0.4304 0.2204 0.0
H1629 H 0.34995 0.42569 0.19275 0.0
C1630 C 0.37624 0.35019 0.24069 0.0
C1631 C 0.3458 0.33865 0.23908 0.0
C1632 C 0.39216 0.36948 0.22362 0.0
C1633 C 0.37811 0.3779 0.20459 0.0
C1634 C 0.34772 0.36653 0.20292 0.0
H1635 H 0.43167 0.48459 0.07962 0.0
H1636 H 0.4063 0.45415 0.11251 0.0
C1637 C 0.33171 0.34716 0.22003 0.0
C1638 C 0.39544 0.39781 0.18607 0.0
H1639 H 0.40672 0.46336 0.16365 0.0
C1640 C 0.41554 0.38933 0.17067 0.0
C1641 C 0.39252 0.42502 0.18369 0.0
C1642 C 0.37234 0.43601 0.20049 0.0
C1643 C 0.43215 0.40687 0.15246 0.0
C1644 C 0.42902 0.434 0.14989 0.0
C1645 C 0.40915 0.4426 0.16554 0.0
C1646 C 0.4451 0.45321 0.13035 0.0
C1647 C 0.4522 0.39569 0.13562 0.0
C1648 C 0.47553 0.46346 0.1296 0.0
C1649 C 0.49016 0.48086 0.11063 0.0
C1650 C 0.47468 0.4886 0.09219 0.0
C1651 C 0.44431 0.47909 0.09353 0.0
C1652 C 0.42973 0.46159 0.11232 0.0
H1653 H 0.44634 0.37177 0.13516 0.0
H1654 H 0.45193 0.40117 0.11568 0.0
H1655 H 0.47463 0.40589 0.14332 0.0
H1656 H 0.48801 0.45809 0.14372 0.0
H1657 H 0.51356 0.4885 0.11054 0.0
H1658 H 0.80366 0.72496 0.69692 0.0
H1659 H 0.8248 0.69906 0.66431 0.0
H1660 H 0.87856 0.68622 0.72212 0.0
H1661 H 0.85717 0.71176 0.75496 0.0
H1662 H 0.87882 0.71122 0.64731 0.0
H1663 H 0.84785 0.605 0.68636 0.0
H1664 H 0.83285 0.63257 0.69819 0.0
H1665 H 0.86806 0.63472 0.7089 0.0
C1666 C 0.81974 0.71639 0.70289 0.0
C1667 C 0.82837 0.72048 0.72889 0.0
C1668 C 0.83197 0.70155 0.68405 0.0
C1669 C 0.85317 0.69004 0.69046 0.0
C1670 C 0.86182 0.69406 0.71643 0.0
H1671 H 0.97589 0.64806 0.58263 0.0
H1672 H 0.95094 0.66952 0.61522 0.0
C1673 C 0.84959 0.70893 0.73532 0.0
C1674 C 0.86686 0.67501 0.66986 0.0
H1675 H 0.88184 0.61237 0.65235 0.0
C1676 C 0.87933 0.68956 0.64849 0.0
C1677 C 0.8674 0.64646 0.67078 0.0
C1678 C 0.85308 0.62862 0.69214 0.0
C1679 C 0.89264 0.67689 0.62866 0.0
C1680 C 0.89418 0.64881 0.63008 0.0
C1681 C 0.88112 0.63394 0.65112 0.0
C1682 C 0.90957 0.63486 0.61016 0.0
C1683 C 0.90452 0.69368 0.60607 0.0
C1684 C 0.89525 0.60748 0.59654 0.0
C1685 C 0.90968 0.59487 0.57768 0.0
C1686 C 0.93901 0.60912 0.572 0.0
C1687 C 0.95333 0.63628 0.58605 0.0
C1688 C 0.93893 0.64882 0.60478 0.0
H1689 H 0.89416 0.71012 0.60392 0.0
H1690 H 0.92807 0.70534 0.60907 0.0
H1691 H 0.90128 0.67897 0.58796 0.0
H1692 H 0.8727 0.59596 0.60025 0.0
H1693 H 0.89779 0.57395 0.56752 0.0
H1694 H 0.29955 0.85732 0.72535 0.0
H1695 H 0.32669 0.89449 0.69785 0.0
H1696 H 0.40477 0.87745 0.71295 0.0
H1697 H 0.37816 0.84072 0.74051 0.0
H1698 H 0.41157 0.93687 0.71777 0.0
H1699 H 0.35739 0.87902 0.62589 0.0
H1700 H 0.33366 0.88395 0.65117 0.0
H1701 H 0.35468 0.86105 0.65455 0.0
C1702 C 0.32248 0.86145 0.72276 0.0
C1703 C 0.33665 0.84598 0.73508 0.0
C1704 C 0.33791 0.8826 0.70698 0.0
C1705 C 0.36765 0.88844 0.7032 0.0
C1706 C 0.38182 0.87321 0.71561 0.0
H1707 H 0.5053 0.99986 0.61617 0.0
H1708 H 0.47679 0.96649 0.64601 0.0
C1709 C 0.3665 0.85216 0.73133 0.0
C1710 C 0.38431 0.91053 0.68646 0.0
H1711 H 0.39168 0.926 0.62431 0.0
C1712 C 0.40724 0.93457 0.69733 0.0
C1713 C 0.37858 0.90734 0.65984 0.0
C1714 C 0.35491 0.88136 0.64703 0.0
C1715 C 0.42452 0.95569 0.68227 0.0
C1716 C 0.41896 0.95236 0.6556 0.0
C1717 C 0.39587 0.92845 0.64478 0.0
C1718 C 0.43672 0.97342 0.63847 0.0
C1719 C 0.44829 0.98158 0.69506 0.0
C1720 C 0.42359 0.98806 0.62415 0.0
C1721 C 0.43968 1.00673 0.60683 0.0
C1722 C 0.46927 1.01101 0.60335 0.0
C1723 C 0.48252 0.99672 0.6181 0.0
C1724 C 0.46632 0.97792 0.6354 0.0
H1725 H 0.44491 0.98477 0.71603 0.0
H1726 H 0.4693 0.97806 0.69215 0.0
H1727 H 0.44972 1.00175 0.68663 0.0
H1728 H 0.40075 0.98482 0.62621 0.0
H1729 H 0.42871 0.01732 0.59579 0.0
H1730 H 0.22156 0.37611 0.65127 0.0
H1731 H 0.19257 0.39722 0.6282 0.0
H1732 H 0.12329 0.36872 0.68177 0.0
H1733 H 0.15267 0.34871 0.70572 0.0
H1734 H 0.14124 0.37002 0.60375 0.0
H1735 H 0.1292 0.45237 0.67984 0.0
H1736 H 0.1549 0.43399 0.6824 0.0
H1737 H 0.11731 0.41607 0.68896 0.0
C1738 C 0.20045 0.37489 0.65859 0.0
C1739 C 0.18967 0.36077 0.68057 0.0
C1740 C 0.18373 0.38675 0.64516 0.0
C1741 C 0.15579 0.38491 0.65332 0.0
C1742 C 0.14495 0.37097 0.67529 0.0
H1743 H 0.03597 0.41632 0.54703 0.0
H1744 H 0.05571 0.39362 0.57782 0.0
C1745 C 0.16172 0.35919 0.68883 0.0
C1746 C 0.13779 0.39661 0.63817 0.0
H1747 H 0.1021 0.44553 0.64152 0.0
C1748 C 0.13262 0.38648 0.61205 0.0
C1749 C 0.12664 0.41824 0.6489 0.0
C1750 C 0.13247 0.43105 0.6765 0.0
C1751 C 0.11699 0.39751 0.59635 0.0
C1752 C 0.10554 0.4189 0.60712 0.0
C1753 C 0.11049 0.42887 0.6333 0.0
C1754 C 0.09071 0.43298 0.59103 0.0
C1755 C 0.11391 0.38695 0.56811 0.0
C1756 C 0.10262 0.46298 0.58929 0.0
C1757 C 0.09119 0.47607 0.57199 0.0
C1758 C 0.06749 0.45949 0.5559 0.0
C1759 C 0.05432 0.42977 0.55892 0.0
C1760 C 0.06579 0.41668 0.57636 0.0
H1761 H 0.12944 0.37571 0.56192 0.0
H1762 H 0.09172 0.37131 0.56407 0.0
H1763 H 0.11739 0.40529 0.55639 0.0
H1764 H 0.12166 0.47614 0.60053 0.0
H1765 H 0.10182 0.49905 0.57047 0.0
H1766 H 0.73115 0.19136 0.74284 0.0
H1767 H 0.7147 0.15329 0.70793 0.0
H1768 H 0.80231 0.17261 0.68106 0.0
H1769 H 0.81904 0.21209 0.71606 0.0
H1770 H 0.76969 0.17158 0.64345 0.0
H1771 H 0.71168 0.07309 0.6875 0.0
H1772 H 0.69965 0.10053 0.70397 0.0
H1773 H 0.73741 0.10404 0.70575 0.0
C1774 C 0.74714 0.18728 0.72987 0.0
C1775 C 0.77637 0.205 0.73205 0.0
C1776 C 0.73772 0.16501 0.71005 0.0
C1777 C 0.7573 0.15946 0.69208 0.0
C1778 C 0.78684 0.17622 0.69487 0.0
H1779 H 0.62221 0.05538 0.58538 0.0
H1780 H 0.66899 0.06376 0.60549 0.0
C1781 C 0.79635 0.19879 0.71482 0.0
C1782 C 0.74551 0.13987 0.66843 0.0
H1783 H 0.68448 0.08282 0.65087 0.0
C1784 C 0.75177 0.1515 0.64482 0.0
C1785 C 0.72307 0.11284 0.6695 0.0
C1786 C 0.71794 0.09685 0.69308 0.0
C1787 C 0.73309 0.13946 0.62365 0.0
C1788 C 0.70711 0.11611 0.62666 0.0
C1789 C 0.70368 0.10156 0.64875 0.0
C1790 C 0.68125 0.11064 0.61021 0.0
C1791 C 0.74048 0.15316 0.59889 0.0
C1792 C 0.67245 0.1341 0.60602 0.0
C1793 C 0.64601 0.12941 0.59416 0.0
C1794 C 0.62724 0.10105 0.5867 0.0
C1795 C 0.63616 0.07751 0.59055 0.0
C1796 C 0.66296 0.08227 0.60212 0.0
H1797 H 0.76402 0.15897 0.59518 0.0
H1798 H 0.72827 0.13847 0.58231 0.0
H1799 H 0.73554 0.17363 0.6005 0.0
H1800 H 0.68538 0.15615 0.61303 0.0
H1801 H 0.63989 0.14811 0.59172 0.0
H1802 H 0.78523 0.37324 0.29611 0.0
H1803 H 0.79835 0.4179 0.32596 0.0
H1804 H 0.80001 0.36804 0.38836 0.0
H1805 H 0.78582 0.32392 0.35921 0.0
H1806 H 0.79102 0.41743 0.40626 0.0
H1807 H 0.8837 0.44136 0.33827 0.0
H1808 H 0.84903 0.44011 0.32723 0.0
H1809 H 0.85439 0.40722 0.33396 0.0
C1810 C 0.78722 0.37183 0.3164 0.0
C1811 C 0.78579 0.34551 0.32533 0.0
C1812 C 0.79483 0.39732 0.3334 0.0
C1813 C 0.80144 0.39645 0.35915 0.0
C1814 C 0.79549 0.36942 0.36852 0.0
H1815 H 0.93531 0.42856 0.4511 0.0
H1816 H 0.89038 0.41512 0.42615 0.0
C1817 C 0.78773 0.34416 0.35174 0.0
C1818 C 0.82092 0.42217 0.37493 0.0
H1819 H 0.89375 0.45756 0.38113 0.0
C1820 C 0.81331 0.42726 0.40058 0.0
C1821 C 0.85007 0.43508 0.36746 0.0
C1822 C 0.85997 0.43075 0.3403 0.0
C1823 C 0.83463 0.44136 0.41947 0.0
C1824 C 0.86387 0.45094 0.41226 0.0
C1825 C 0.87112 0.44952 0.38635 0.0
C1826 C 0.88756 0.45825 0.4311 0.0
C1827 C 0.82622 0.44347 0.44723 0.0
C1828 C 0.90025 0.48674 0.44234 0.0
C1829 C 0.92585 0.49446 0.45653 0.0
C1830 C 0.93928 0.47386 0.45952 0.0
C1831 C 0.92564 0.44495 0.44915 0.0
C1832 C 0.89995 0.43724 0.43501 0.0
H1833 H 0.80247 0.43773 0.44951 0.0
H1834 H 0.83351 0.42849 0.4574 0.0
H1835 H 0.83719 0.46585 0.45651 0.0
H1836 H 0.89111 0.50324 0.43917 0.0
H1837 H 0.93579 0.51693 0.46401 0.0
H1838 H 0.67913 0.83069 0.34019 0.0
H1839 H 0.66183 0.86317 0.36904 0.0
H1840 H 0.59195 0.78975 0.39225 0.0
H1841 H 0.60923 0.75681 0.36326 0.0
H1842 H 0.60952 0.87366 0.37668 0.0
H1843 H 0.63969 0.82607 0.4584 0.0
H1844 H 0.65019 0.81887 0.42588 0.0
H1845 H 0.61396 0.80053 0.43603 0.0
C1846 C 0.65952 0.82144 0.35077 0.0
C1847 C 0.64562 0.79119 0.34966 0.0
C1848 C 0.64979 0.84005 0.36736 0.0
C1849 C 0.62608 0.8287 0.38309 0.0
C1850 C 0.6107 0.79873 0.38058 0.0
H1851 H 0.54994 0.90788 0.50461 0.0
H1852 H 0.56345 0.87494 0.47286 0.0
C1853 C 0.62051 0.78003 0.36402 0.0
C1854 C 0.61927 0.84813 0.40358 0.0
H1855 H 0.61901 0.8626 0.46863 0.0
C1856 C 0.61153 0.87128 0.39678 0.0
C1857 C 0.62242 0.84505 0.42974 0.0
C1858 C 0.63227 0.82147 0.43805 0.0
C1859 C 0.60635 0.89129 0.4156 0.0
C1860 C 0.60928 0.88803 0.44168 0.0
C1861 C 0.61697 0.86491 0.44851 0.0
C1862 C 0.60293 0.90761 0.46221 0.0
C1863 C 0.59735 0.91551 0.40757 0.0
C1864 C 0.62131 0.93654 0.46713 0.0
C1865 C 0.61378 0.95546 0.4854 0.0
C1866 C 0.58768 0.94556 0.49871 0.0
C1867 C 0.57005 0.91618 0.49444 0.0
C1868 C 0.5777 0.89733 0.47638 0.0
H1869 H 0.59203 0.91249 0.38677 0.0
H1870 H 0.57824 0.91694 0.41861 0.0
H1871 H 0.61528 0.9365 0.41178 0.0
H1872 H 0.64106 0.9446 0.45642 0.0
H1873 H 0.62772 0.978 0.4883 0.0
H1874 H 0.19192 0.76453 0.30871 0.0
H1875 H 0.14752 0.73942 0.33128 0.0
H1876 H 0.1972 0.70945 0.38104 0.0
H1877 H 0.24128 0.73386 0.35843 0.0
H1878 H 0.13038 0.67501 0.33497 0.0
H1879 H 0.14129 0.74098 0.42903 0.0
H1880 H 0.15775 0.75609 0.40015 0.0
H1881 H 0.17453 0.73661 0.4178 0.0
C1882 C 0.19336 0.75297 0.32473 0.0
C1883 C 0.21996 0.75091 0.3317 0.0
C1884 C 0.16805 0.73872 0.33757 0.0
C1885 C 0.16927 0.72291 0.35793 0.0
C1886 C 0.19597 0.72191 0.36558 0.0
H1887 H 0.10621 0.57674 0.42547 0.0
H1888 H 0.1224 0.61488 0.39685 0.0
C1889 C 0.22108 0.73567 0.35253 0.0
C1890 C 0.14274 0.7044 0.36955 0.0
H1891 H 0.11472 0.68942 0.4285 0.0
C1892 C 0.12617 0.67851 0.35524 0.0
C1893 C 0.13713 0.70924 0.39584 0.0
C1894 C 0.15343 0.73738 0.4116 0.0
C1895 C 0.10631 0.65595 0.36727 0.0
C1896 C 0.10324 0.65953 0.39413 0.0
C1897 C 0.11738 0.68663 0.40791 0.0
C1898 C 0.09017 0.63434 0.40876 0.0
C1899 C 0.09025 0.62777 0.35146 0.0
C1900 C 0.06661 0.63265 0.42488 0.0
C1901 C 0.05719 0.6107 0.44123 0.0
C1902 C 0.07164 0.5906 0.44206 0.0
C1903 C 0.09471 0.59196 0.42535 0.0
C1904 C 0.10382 0.61359 0.40882 0.0
H1905 H 0.08748 0.63133 0.33127 0.0
H1906 H 0.10285 0.61289 0.35135 0.0
H1907 H 0.06863 0.617 0.35958 0.0
H1908 H 0.05606 0.64872 0.42527 0.0
H1909 H 0.03945 0.61027 0.45398 0.0
H1910 H 0.47052 0.30151 0.40048 0.0
H1911 H 0.49788 0.27574 0.41893 0.0
H1912 H 0.49925 0.22782 0.3454 0.0
H1913 H 0.47371 0.25525 0.3261 0.0
H1914 H 0.46975 0.21888 0.41921 0.0
H1915 H 0.57731 0.23564 0.37535 0.0
H1916 H 0.55768 0.26032 0.37304 0.0
H1917 H 0.54811 0.22666 0.35256 0.0
C1918 C 0.47781 0.28666 0.38777 0.0
C1919 C 0.46919 0.28009 0.3618 0.0
C1920 C 0.49335 0.2717 0.39849 0.0
C1921 C 0.50034 0.24962 0.38364 0.0
C1922 C 0.49429 0.24489 0.35723 0.0
H1923 H 0.49533 0.1009 0.46019 0.0
H1924 H 0.49103 0.12907 0.42584 0.0
C1925 C 0.47919 0.2603 0.34632 0.0
C1926 C 0.50848 0.22827 0.39671 0.0
H1927 H 0.55929 0.19586 0.40076 0.0
C1928 C 0.48942 0.21398 0.41521 0.0
C1929 C 0.53402 0.22176 0.39134 0.0
C1930 C 0.55562 0.23707 0.37215 0.0
C1931 C 0.49531 0.19378 0.42886 0.0
C1932 C 0.52057 0.18678 0.42325 0.0
C1933 C 0.5397 0.20091 0.40465 0.0
C1934 C 0.52818 0.16669 0.43835 0.0
C1935 C 0.47483 0.18087 0.44983 0.0
C1936 C 0.5519 0.17762 0.45533 0.0
C1937 C 0.55463 0.16146 0.47479 0.0
C1938 C 0.53346 0.13428 0.47766 0.0
C1939 C 0.51159 0.12207 0.45885 0.0
C1940 C 0.50913 0.1381 0.43918 0.0
H1941 H 0.46033 0.19346 0.45549 0.0
H1942 H 0.46106 0.15837 0.44289 0.0
H1943 H 0.48694 0.18004 0.46714 0.0
H1944 H 0.56698 0.19956 0.45486 0.0
H1945 H 0.57205 0.17131 0.48871 0.0
H1946 H 0.63879 0.83447 0.74199 0.0
H1947 H 0.60997 0.86236 0.72817 0.0
H1948 H 0.6532 0.8684 0.6554 0.0
H1949 H 0.6818 0.84051 0.66895 0.0
H1950 H 0.62499 0.91698 0.71315 0.0
H1951 H 0.56901 0.83612 0.63317 0.0
H1952 H 0.58936 0.82781 0.6575 0.0
H1953 H 0.60754 0.8461 0.63071 0.0
C1954 C 0.64223 0.84187 0.72309 0.0
C1955 C 0.66237 0.83496 0.70646 0.0
C1956 C 0.62567 0.85771 0.71519 0.0
C1957 C 0.6289 0.86689 0.69051 0.0
C1958 C 0.64964 0.86079 0.67422 0.0
H1959 H 0.60236 1.00239 0.6222 0.0
H1960 H 0.61523 0.9735 0.65126 0.0
C1961 C 0.66604 0.84488 0.68203 0.0
C1962 C 0.61108 0.88323 0.68168 0.0
H1963 H 0.56914 0.88477 0.63141 0.0
C1964 C 0.6124 0.90974 0.69548 0.0
C1965 C 0.59394 0.87349 0.65903 0.0
C1966 C 0.58959 0.84416 0.64441 0.0
C1967 C 0.59862 0.9276 0.68632 0.0
C1968 C 0.58366 0.91902 0.66245 0.0
C1969 C 0.58081 0.89163 0.64957 0.0
C1970 C 0.57352 0.93904 0.64903 0.0
C1971 C 0.60055 0.95561 0.70223 0.0
C1972 C 0.54551 0.92973 0.63825 0.0
C1973 C 0.53811 0.94618 0.62116 0.0
C1974 C 0.55872 0.97213 0.61439 0.0
C1975 C 0.58593 0.98247 0.62683 0.0
C1976 C 0.59331 0.96601 0.64373 0.0
H1977 H 0.60193 0.95356 0.723 0.0
H1978 H 0.62052 0.97307 0.69721 0.0
H1979 H 0.58163 0.96222 0.69883 0.0
H1980 H 0.52983 0.909 0.64202 0.0
H1981 H 0.51694 0.93757 0.61202 0.0
H1982 H 0.77392 0.20861 0.34317 0.0
H1983 H 0.74318 0.18032 0.37526 0.0
H1984 H 0.67233 0.20562 0.35289 0.0
H1985 H 0.70271 0.23382 0.32074 0.0
H1986 H 0.71431 0.20276 0.41668 0.0
H1987 H 0.63709 0.11584 0.35108 0.0
H1988 H 0.67193 0.13862 0.34069 0.0
H1989 H 0.64265 0.15255 0.3449 0.0
C1990 C 0.75174 0.20799 0.34492 0.0
C1991 C 0.74079 0.22345 0.32932 0.0
C1992 C 0.73423 0.19185 0.3633 0.0
C1993 C 0.70541 0.19063 0.36623 0.0
C1994 C 0.69437 0.2059 0.35065 0.0
H1995 H 0.57073 0.10038 0.47072 0.0
H1996 H 0.59716 0.1305 0.43765 0.0
C1997 C 0.71186 0.22214 0.33236 0.0
C1998 C 0.68723 0.17427 0.38627 0.0
H1999 H 0.62721 0.11566 0.3954 0.0
C2000 C 0.69529 0.18369 0.41205 0.0
C2001 C 0.66223 0.14965 0.38015 0.0
C2002 C 0.65296 0.13833 0.35272 0.0
C2003 C 0.67904 0.16909 0.43192 0.0
C2004 C 0.65447 0.14398 0.42581 0.0
C2005 C 0.64606 0.13489 0.40003 0.0
C2006 C 0.63823 0.12602 0.44584 0.0
C2007 C 0.68819 0.18087 0.45931 0.0
C2008 C 0.65238 0.11315 0.46108 0.0
C2009 C 0.63746 0.09633 0.4801 0.0
C2010 C 0.60792 0.09179 0.48421 0.0
C2011 C 0.59358 0.10411 0.46849 0.0
C2012 C 0.6086 0.12108 0.44944 0.0
H2013 H 0.70145 0.20434 0.46089 0.0
H2014 H 0.66913 0.17788 0.47191 0.0
H2015 H 0.70155 0.16907 0.46645 0.0
H2016 H 0.67505 0.11607 0.45823 0.0
H2017 H 0.64922 0.08706 0.49171 0.0
H2018 H 0.87288 0.72179 0.29328 0.0
H2019 H 0.89619 0.69736 0.31939 0.0
H2020 H 0.84064 0.70559 0.38228 0.0
H2021 H 0.81645 0.72869 0.3558 0.0
H2022 H 0.92823 0.70761 0.35821 0.0
H2023 H 0.82969 0.62503 0.38957 0.0
H2024 H 0.82838 0.64833 0.36581 0.0
H2025 H 0.82919 0.66077 0.39954 0.0
C2026 C 0.86525 0.71817 0.31259 0.0
C2027 C 0.84211 0.72727 0.32188 0.0
C2028 C 0.87889 0.70407 0.32781 0.0
C2029 C 0.87027 0.69832 0.35325 0.0
C2030 C 0.84758 0.70812 0.3627 0.0
H2031 H 0.98765 0.65675 0.46086 0.0
H2032 H 0.96455 0.68026 0.43382 0.0
C2033 C 0.83369 0.72188 0.34738 0.0
C2034 C 0.88534 0.68297 0.36973 0.0
H2035 H 0.87309 0.63091 0.41204 0.0
C2036 C 0.91586 0.69076 0.36983 0.0
C2037 C 0.87017 0.6602 0.38498 0.0
C2038 C 0.83757 0.64785 0.38479 0.0
C2039 C 0.93109 0.67743 0.38442 0.0
C2040 C 0.916 0.65574 0.40073 0.0
C2041 C 0.88545 0.64759 0.40027 0.0
C2042 C 0.93105 0.64096 0.41782 0.0
C2043 C 0.9634 0.68624 0.38121 0.0
C2044 C 0.92025 0.61057 0.41956 0.0
C2045 C 0.93338 0.59693 0.43572 0.0
C2046 C 0.9582 0.61285 0.45104 0.0
C2047 C 0.96909 0.64319 0.44927 0.0
C2048 C 0.95575 0.65686 0.43335 0.0
H2049 H 0.97008 0.69442 0.36229 0.0
H2050 H 0.97428 0.70414 0.3962 0.0
H2051 H 0.97114 0.66782 0.38287 0.0
H2052 H 0.90138 0.59708 0.4083 0.0
H2053 H 0.92373 0.57369 0.43637 0.0
H2054 H 0.33111 0.88763 0.31264 0.0
H2055 H 0.35273 0.92944 0.3446 0.0
H2056 H 0.33984 0.87164 0.4034 0.0
H2057 H 0.318 0.83004 0.37195 0.0
H2058 H 0.32601 0.92238 0.41892 0.0
H2059 H 0.43461 0.94766 0.374 0.0
H2060 H 0.40495 0.94654 0.3541 0.0
H2061 H 0.40567 0.91376 0.36557 0.0
C2062 C 0.33267 0.88387 0.33242 0.0
C2063 C 0.32307 0.85544 0.33967 0.0
C2064 C 0.34511 0.90778 0.35063 0.0
C2065 C 0.34819 0.90361 0.37632 0.0
C2066 C 0.33768 0.87537 0.38369 0.0
H2067 H 0.43211 0.96008 0.51534 0.0
H2068 H 0.39553 0.94233 0.48142 0.0
C2069 C 0.3253 0.85156 0.36561 0.0
C2070 C 0.3638 0.92807 0.39556 0.0
H2071 H 0.43198 0.9724 0.41399 0.0
C2072 C 0.34909 0.93377 0.41765 0.0
C2073 C 0.39386 0.94309 0.39379 0.0
C2074 C 0.41088 0.93747 0.37071 0.0
C2075 C 0.36394 0.95288 0.4386 0.0
C2076 C 0.39432 0.96624 0.43757 0.0
C2077 C 0.40867 0.96217 0.41477 0.0
C2078 C 0.41224 0.98038 0.46087 0.0
C2079 C 0.34706 0.95783 0.46195 0.0
C2080 C 0.43352 1.00808 0.46107 0.0
C2081 C 0.45462 0.01835 0.4806 0.0
C2082 C 0.45503 1.00077 0.49991 0.0
C2083 C 0.43242 0.97408 0.50068 0.0
C2084 C 0.41131 0.96398 0.48135 0.0
H2085 H 0.3247 0.95582 0.45657 0.0
H2086 H 0.34541 0.94103 0.47498 0.0
H2087 H 0.35774 0.97958 0.47254 0.0
H2088 H 0.43476 0.02103 0.44537 0.0
H2089 H 0.47185 0.03894 0.4794 0.0
H2090 H 0.28617 0.35904 0.34869 0.0
H2091 H 0.25713 0.38559 0.37166 0.0
H2092 H 0.18082 0.32768 0.33119 0.0
H2093 H 0.2097 0.3011 0.30832 0.0
H2094 H 0.2251 0.41767 0.35986 0.0
H2095 H 0.14747 0.3236 0.40136 0.0
H2096 H 0.17989 0.32169 0.38566 0.0
H2097 H 0.14841 0.31824 0.36704 0.0
C2098 C 0.26318 0.35171 0.34456 0.0
C2099 C 0.25086 0.32725 0.32629 0.0
C2100 C 0.24629 0.3672 0.35792 0.0
C2101 C 0.21594 0.35896 0.35416 0.0
C2102 C 0.2037 0.33475 0.33562 0.0
H2103 H 0.07329 0.41933 0.42137 0.0
H2104 H 0.10337 0.3947 0.39781 0.0
C2105 C 0.2206 0.3194 0.32213 0.0
C2106 C 0.19753 0.37569 0.36913 0.0
H2107 H 0.13622 0.36692 0.40597 0.0
C2108 C 0.20577 0.40632 0.36999 0.0
C2109 C 0.17178 0.36191 0.38274 0.0
C2110 C 0.16143 0.32961 0.38444 0.0
C2111 C 0.18933 0.42278 0.38285 0.0
C2112 C 0.16361 0.40903 0.39663 0.0
C2113 C 0.15549 0.37837 0.39581 0.0
C2114 C 0.14478 0.4255 0.41147 0.0
C2115 C 0.19939 0.45492 0.3804 0.0
C2116 C 0.15669 0.45172 0.42798 0.0
C2117 C 0.13912 0.46635 0.44152 0.0
C2118 C 0.10845 0.45548 0.43976 0.0
C2119 C 0.09655 0.4291 0.42356 0.0
C2120 C 0.1141 0.41463 0.4099 0.0
H2121 H 0.21248 0.46033 0.3629 0.0
H2122 H 0.18086 0.4628 0.37962 0.0
H2123 H 0.21333 0.4668 0.39716 0.0
H2124 H 0.17985 0.46086 0.43101 0.0
H2125 H 0.14976 0.4861 0.45386 0.0
H2126 H 0.37308 0.23407 0.75569 0.0
H2127 H 0.40477 0.22054 0.72432 0.0
H2128 H 0.38244 0.2692 0.66966 0.0
H2129 H 0.34952 0.2817 0.70069 0.0
H2130 H 0.37797 0.21876 0.64776 0.0
H2131 H 0.48302 0.26076 0.69882 0.0
H2132 H 0.45644 0.23756 0.71816 0.0
H2133 H 0.45247 0.27074 0.71018 0.0
C2134 C 0.37534 0.2424 0.73718 0.0
C2135 C 0.35882 0.25899 0.73066 0.0
C2136 C 0.39367 0.2348 0.71927 0.0
C2137 C 0.3965 0.24428 0.69472 0.0
C2138 C 0.38074 0.2617 0.68849 0.0
H2139 H 0.52009 0.19476 0.59303 0.0
H2140 H 0.49599 0.22406 0.61884 0.0
C2141 C 0.36196 0.26887 0.70625 0.0
C2142 C 0.41358 0.23358 0.67488 0.0
H2143 H 0.47733 0.22109 0.66533 0.0
C2144 C 0.3999 0.21977 0.65146 0.0
C2145 C 0.44243 0.23534 0.67932 0.0
C2146 C 0.4595 0.25222 0.70288 0.0
C2147 C 0.41368 0.20642 0.63297 0.0
C2148 C 0.44148 0.20583 0.63846 0.0
C2149 C 0.45578 0.22098 0.66127 0.0
C2150 C 0.45555 0.18856 0.62146 0.0
C2151 C 0.39819 0.19314 0.60778 0.0
C2152 C 0.44094 0.15883 0.6144 0.0
C2153 C 0.45446 0.1422 0.59929 0.0
C2154 C 0.48319 0.15476 0.59149 0.0
C2155 C 0.49794 0.18446 0.59876 0.0
C2156 C 0.4842 0.20122 0.61351 0.0
H2157 H 0.38337 0.20454 0.60286 0.0
H2158 H 0.41364 0.19389 0.59185 0.0
H2159 H 0.38483 0.17013 0.60938 0.0
H2160 H 0.41923 0.14828 0.62102 0.0
H2161 H 0.44266 0.11929 0.59434 0.0
H2162 H 0.80913 0.33317 0.70541 0.0
H2163 H 0.83692 0.36361 0.67321 0.0
H2164 H 0.91629 0.36461 0.70675 0.0
H2165 H 0.88861 0.33418 0.73916 0.0
H2166 H 0.87889 0.41974 0.68032 0.0
H2167 H 0.92769 0.34272 0.63029 0.0
H2168 H 0.89729 0.33117 0.65144 0.0
H2169 H 0.93311 0.34945 0.66446 0.0
C2170 C 0.8325 0.33967 0.70598 0.0
C2171 C 0.8464 0.33093 0.72513 0.0
C2172 C 0.84847 0.35723 0.68743 0.0
C2173 C 0.87892 0.36637 0.68704 0.0
C2174 C 0.8929 0.35763 0.70609 0.0
H2175 H 1.00238 0.4746 0.57826 0.0
H2176 H 0.98201 0.44373 0.61305 0.0
C2177 C 0.87694 0.34027 0.72484 0.0
C2178 C 0.89572 0.3858 0.66732 0.0
H2179 H 0.94181 0.38959 0.61637 0.0
C2180 C 0.89263 0.41304 0.66639 0.0
C2181 C 0.91418 0.37762 0.64914 0.0
C2182 C 0.91822 0.34858 0.64861 0.0
C2183 C 0.9071 0.43199 0.64809 0.0
C2184 C 0.9247 0.42342 0.62922 0.0
C2185 C 0.92839 0.39644 0.63052 0.0
C2186 C 0.93777 0.4414 0.60734 0.0
C2187 C 0.90367 0.46142 0.6496 0.0
C2188 C 0.91999 0.44991 0.59171 0.0
C2189 C 0.93157 0.46764 0.57208 0.0
C2190 C 0.96148 0.47738 0.56681 0.0
C2191 C 0.97933 0.4679 0.5817 0.0
C2192 C 0.96762 0.45014 0.60168 0.0
H2193 H 0.89883 0.46868 0.66944 0.0
H2194 H 0.92347 0.47813 0.6432 0.0
H2195 H 0.88525 0.46002 0.63713 0.0
H2196 H 0.89686 0.44285 0.59468 0.0
H2197 H 0.91673 0.47375 0.56097 0.0
H2198 H 0.2811 0.72198 0.70095 0.0
H2199 H 0.25274 0.69213 0.664 0.0
H2200 H 0.17765 0.71126 0.69255 0.0
H2201 H 0.2057 0.74058 0.72991 0.0
H2202 H 0.16317 0.65479 0.67577 0.0
H2203 H 0.2289 0.71844 0.60115 0.0
H2204 H 0.2495 0.70535 0.62137 0.0
H2205 H 0.23342 0.73139 0.6348 0.0
C2206 C 0.25859 0.72002 0.69936 0.0
C2207 C 0.24585 0.73396 0.7185 0.0
C2208 C 0.24237 0.70299 0.67803 0.0
C2209 C 0.21303 0.6997 0.67502 0.0
C2210 C 0.20022 0.71342 0.69422 0.0
H2211 H 0.10321 0.64654 0.54045 0.0
H2212 H 0.13922 0.67096 0.57402 0.0
C2213 C 0.21637 0.7303 0.71564 0.0
C2214 C 0.19553 0.68167 0.6522 0.0
H2215 H 0.1923 0.67413 0.58653 0.0
C2216 C 0.16962 0.65901 0.65626 0.0
C2217 C 0.20363 0.68716 0.6266 0.0
C2218 C 0.23022 0.71207 0.62064 0.0
C2219 C 0.15163 0.642 0.6357 0.0
C2220 C 0.15996 0.64718 0.61008 0.0
C2221 C 0.18598 0.66972 0.60602 0.0
C2222 C 0.14068 0.63148 0.58746 0.0
C2223 C 0.12324 0.61943 0.64175 0.0
C2224 C 0.1303 0.60091 0.58264 0.0
C2225 C 0.10944 0.58669 0.56321 0.0
C2226 C 0.0986 0.60276 0.5481 0.0
C2227 C 0.11078 0.63333 0.55174 0.0
C2228 C 0.13147 0.64743 0.57107 0.0
H2229 H 0.11695 0.6229 0.662 0.0
H2230 H 0.1056 0.61964 0.62907 0.0
H2231 H 0.1253 0.59758 0.63864 0.0
H2232 H 0.1376 0.58797 0.59443 0.0
H2233 H 0.1006 0.56317 0.56109 0.0
loop_
_geom_bond_atom_site_label_1
_geom_bond_atom_site_label_2
_geom_bond_distance
_geom_bond_site_symmetry_2
_ccdc_geom_bond_type
Tb0 C10 2.825 . S
Tb0 O11 2.347 . S
Tb0 O14 2.366 . S
Tb0 O19 2.418 . S
Tb0 O20 2.384 . S
Tb0 O23 2.479 . S
Tb0 O24 2.471 . S
Eu1 O12 2.418 . S
Eu1 O13 2.384 . S
Eu1 O16 2.479 . S
Eu1 O17 2.471 . S
Eu1 O18 2.347 . S
Eu1 O21 2.366 . S
Eu1 C31 2.825 . S
C2 O18 1.259 . S
C2 O19 1.265 . S
C3 O20 1.255 . S
C3 O21 1.265 . S
C4 C6 1.380 . S
C4 C7 1.374 . S
C4 C10 1.507 . S
C5 C6 1.384 . S
C5 C9 1.387 . S
C5 H32 0.930 . S
C6 C4 1.380 . S
C6 C5 1.384 . S
C6 H33 0.931 . S
C7 C4 1.374 . S
C7 C8 1.390 . S
C7 H34 0.930 . S
C8 C7 1.390 . S
C8 C9 1.391 . S
C8 H35 0.930 . S
C9 C5 1.387 . S
C9 C8 1.391 . S
C10 Tb0 2.825 . S
C10 C4 1.507 . S
C10 O23 1.238 . S
C10 O24 1.247 . S
O11 Tb0 2.347 . S
O11 C15 1.259 . S
O12 Eu1 2.418 . S
O12 C15 1.265 . S
O13 Eu1 2.384 . S
O13 C22 1.255 . S
O14 Tb0 2.366 . S
O14 C22 1.265 . S
C15 O11 1.259 . S
C15 O12 1.265 . S
O16 Eu1 2.479 . S
O16 C31 1.238 . S
O17 Eu1 2.471 . S
O17 C31 1.247 . S
O18 Eu1 2.347 . S
O18 C2 1.259 . S
O19 Tb0 2.418 . S
O19 C2 1.265 . S
O20 Tb0 2.384 . S
O20 C3 1.255 . S
O21 Eu1 2.366 . S
O21 C3 1.265 . S
C22 O13 1.255 . S
C22 O14 1.265 . S
O23 Tb0 2.479 . S
O23 C10 1.238 . S
O24 Tb0 2.471 . S
O24 C10 1.247 . S
C25 C28 1.380 . S
C25 C29 1.374 . S
C25 C31 1.507 . S
C26 C27 1.387 . S
C26 C30 1.391 . S
C27 C26 1.387 . S
C27 C28 1.384 . S
C27 H36 0.930 . S
C28 C25 1.380 . S
C28 C27 1.384 . S
C28 H37 0.931 . S
C29 C25 1.374 . S
C29 C30 1.390 . S
C29 H38 0.930 . S
C30 C26 1.391 . S
C30 C29 1.390 . S
C30 H39 0.930 . S
C31 Eu1 2.825 . S
C31 O16 1.238 . S
C31 O17 1.247 . S
C31 C25 1.507 . S
H32 C5 0.930 . S
H33 C6 0.931 . S
H34 C7 0.930 . S
H35 C8 0.930 . S
H36 C27 0.930 . S
H37 C28 0.931 . S
H38 C29 0.930 . S
H39 C30 0.930 . S
Tb40 C50 2.825 . S
Tb40 O51 2.347 . S
Tb40 O54 2.366 . S
Tb40 O59 2.418 . S
Tb40 O60 2.384 . S
Tb40 O63 2.479 . S
Tb40 O64 2.471 . S
Eu41 O52 2.418 . S
Eu41 O53 2.384 . S
Eu41 O56 2.479 . S
Eu41 O57 2.471 . S
Eu41 O58 2.347 . S
Eu41 O61 2.366 . S
Eu41 C71 2.825 . S
C42 O58 1.259 . S
C42 O59 1.265 . S
C43 O60 1.255 . S
C43 O61 1.265 . S
C44 C46 1.380 . S
C44 C47 1.374 . S
C44 C50 1.507 . S
C45 C46 1.384 . S
C45 C49 1.387 . S
C45 H72 0.930 . S
C46 C44 1.380 . S
C46 C45 1.384 . S
C46 H73 0.931 . S
C47 C44 1.374 . S
C47 C48 1.390 . S
C47 H74 0.930 . S
C48 C47 1.390 . S
C48 C49 1.391 . S
C48 H75 0.930 . S
C49 C45 1.387 . S
C49 C48 1.391 . S
C50 Tb40 2.825 . S
C50 C44 1.507 . S
C50 O63 1.238 . S
C50 O64 1.247 . S
O51 Tb40 2.347 . S
O51 C55 1.259 . S
O52 Eu41 2.418 . S
O52 C55 1.265 . S
O53 Eu41 2.384 . S
O53 C62 1.255 . S
O54 Tb40 2.366 . S
O54 C62 1.265 . S
C55 O51 1.259 . S
C55 O52 1.265 . S
O56 Eu41 2.479 . S
O56 C71 1.238 . S
O57 Eu41 2.471 . S
O57 C71 1.247 . S
O58 Eu41 2.347 . S
O58 C42 1.259 . S
O59 Tb40 2.418 . S
O59 C42 1.265 . S
O60 Tb40 2.384 . S
O60 C43 1.255 . S
O61 Eu41 2.366 . S
O61 C43 1.265 . S
C62 O53 1.255 . S
C62 O54 1.265 . S
O63 Tb40 2.479 . S
O63 C50 1.238 . S
O64 Tb40 2.471 . S
O64 C50 1.247 . S
C65 C68 1.380 . S
C65 C69 1.374 . S
C65 C71 1.507 . S
C66 C67 1.387 . S
C66 C70 1.391 . S
C67 C66 1.387 . S
C67 C68 1.384 . S
C67 H76 0.930 . S
C68 C65 1.380 . S
C68 C67 1.384 . S
C68 H77 0.931 . S
C69 C65 1.374 . S
C69 C70 1.390 . S
C69 H78 0.930 . S
C70 C66 1.391 . S
C70 C69 1.390 . S
C70 H79 0.930 . S
C71 Eu41 2.825 . S
C71 O56 1.238 . S
C71 O57 1.247 . S
C71 C65 1.507 . S
H72 C45 0.930 . S
H73 C46 0.931 . S
H74 C47 0.930 . S
H75 C48 0.930 . S
H76 C67 0.930 . S
H77 C68 0.931 . S
H78 C69 0.930 . S
H79 C70 0.930 . S
Tb80 C90 2.825 . S
Tb80 O91 2.347 . S
Tb80 O94 2.366 . S
Tb80 O99 2.418 . S
Tb80 O100 2.384 . S
Tb80 O103 2.479 . S
Tb80 O104 2.471 . S
Eu81 O92 2.418 . S
Eu81 O93 2.384 . S
Eu81 O96 2.479 . S
Eu81 O97 2.471 . S
Eu81 O98 2.347 . S
Eu81 O101 2.366 . S
Eu81 C111 2.825 . S
C82 O98 1.259 . S
C82 O99 1.265 . S
C83 O100 1.255 . S
C83 O101 1.265 . S
C84 C86 1.380 . S
C84 C87 1.374 . S
C84 C90 1.507 . S
C85 C86 1.384 . S
C85 C89 1.387 . S
C85 H112 0.930 . S
C86 C84 1.380 . S
C86 C85 1.384 . S
C86 H113 0.931 . S
C87 C84 1.374 . S
C87 C88 1.390 . S
C87 H114 0.930 . S
C88 C87 1.390 . S
C88 C89 1.391 . S
C88 H115 0.930 . S
C89 C85 1.387 . S
C89 C88 1.391 . S
C90 Tb80 2.825 . S
C90 C84 1.507 . S
C90 O103 1.238 . S
C90 O104 1.247 . S
O91 Tb80 2.347 . S
O91 C95 1.259 . S
O92 Eu81 2.418 . S
O92 C95 1.265 . S
O93 Eu81 2.384 . S
O93 C102 1.255 . S
O94 Tb80 2.366 . S
O94 C102 1.265 . S
C95 O91 1.259 . S
C95 O92 1.265 . S
O96 Eu81 2.479 . S
O96 C111 1.238 . S
O97 Eu81 2.471 . S
O97 C111 1.247 . S
O98 Eu81 2.347 . S
O98 C82 1.259 . S
O99 Tb80 2.418 . S
O99 C82 1.265 . S
O100 Tb80 2.384 . S
O100 C83 1.255 . S
O101 Eu81 2.366 . S
O101 C83 1.265 . S
C102 O93 1.255 . S
C102 O94 1.265 . S
O103 Tb80 2.479 . S
O103 C90 1.238 . S
O104 Tb80 2.471 . S
O104 C90 1.247 . S
C105 C108 1.380 . S
C105 C109 1.374 . S
C105 C111 1.507 . S
C106 C107 1.387 . S
C106 C110 1.391 . S
C107 C106 1.387 . S
C107 C108 1.384 . S
C107 H116 0.930 . S
C108 C105 1.380 . S
C108 C107 1.384 . S
C108 H117 0.931 . S
C109 C105 1.374 . S
C109 C110 1.390 . S
C109 H118 0.930 . S
C110 C106 1.391 . S
C110 C109 1.390 . S
C110 H119 0.930 . S
C111 Eu81 2.825 . S
C111 O96 1.238 . S
C111 O97 1.247 . S
C111 C105 1.507 . S
H112 C85 0.930 . S
H113 C86 0.931 . S
H114 C87 0.930 . S
H115 C88 0.930 . S
H116 C107 0.930 . S
H117 C108 0.931 . S
H118 C109 0.930 . S
H119 C110 0.930 . S
Tb120 C130 2.825 . S
Tb120 O131 2.347 . S
Tb120 O134 2.366 . S
Tb120 O139 2.418 . S
Tb120 O140 2.384 . S
Tb120 O143 2.479 . S
Tb120 O144 2.471 . S
Eu121 O132 2.418 . S
Eu121 O133 2.384 . S
Eu121 O136 2.479 . S
Eu121 O137 2.471 . S
Eu121 O138 2.347 . S
Eu121 O141 2.366 . S
Eu121 C151 2.825 . S
C122 O138 1.259 . S
C122 O139 1.265 . S
C123 O140 1.255 . S
C123 O141 1.265 . S
C124 C126 1.380 . S
C124 C127 1.374 . S
C124 C130 1.507 . S
C125 C126 1.384 . S
C125 C129 1.387 . S
C125 H152 0.930 . S
C126 C124 1.380 . S
C126 C125 1.384 . S
C126 H153 0.931 . S
C127 C124 1.374 . S
C127 C128 1.390 . S
C127 H154 0.930 . S
C128 C127 1.390 . S
C128 C129 1.391 . S
C128 H155 0.930 . S
C129 C125 1.387 . S
C129 C128 1.391 . S
C130 Tb120 2.825 . S
C130 C124 1.507 . S
C130 O143 1.238 . S
C130 O144 1.247 . S
O131 Tb120 2.347 . S
O131 C135 1.259 . S
O132 Eu121 2.418 . S
O132 C135 1.265 . S
O133 Eu121 2.384 . S
O133 C142 1.255 . S
O134 Tb120 2.366 . S
O134 C142 1.265 . S
C135 O131 1.259 . S
C135 O132 1.265 . S
O136 Eu121 2.479 . S
O136 C151 1.238 . S
O137 Eu121 2.471 . S
O137 C151 1.247 . S
O138 Eu121 2.347 . S
O138 C122 1.259 . S
O139 Tb120 2.418 . S
O139 C122 1.265 . S
O140 Tb120 2.384 . S
O140 C123 1.255 . S
O141 Eu121 2.366 . S
O141 C123 1.265 . S
C142 O133 1.255 . S
C142 O134 1.265 . S
O143 Tb120 2.479 . S
O143 C130 1.238 . S
O144 Tb120 2.471 . S
O144 C130 1.247 . S
C145 C148 1.380 . S
C145 C149 1.374 . S
C145 C151 1.507 . S
C146 C147 1.387 . S
C146 C150 1.391 . S
C147 C146 1.387 . S
C147 C148 1.384 . S
C147 H156 0.930 . S
C148 C145 1.380 . S
C148 C147 1.384 . S
C148 H157 0.931 . S
C149 C145 1.374 . S
C149 C150 1.390 . S
C149 H158 0.930 . S
C150 C146 1.391 . S
C150 C149 1.390 . S
C150 H159 0.930 . S
C151 Eu121 2.825 . S
C151 O136 1.238 . S
C151 O137 1.247 . S
C151 C145 1.507 . S
H152 C125 0.930 . S
H153 C126 0.931 . S
H154 C127 0.930 . S
H155 C128 0.930 . S
H156 C147 0.930 . S
H157 C148 0.931 . S
H158 C149 0.930 . S
H159 C150 0.930 . S
Tb160 C170 2.825 . S
Tb160 O171 2.347 . S
Tb160 O174 2.366 . S
Tb160 O179 2.418 . S
Tb160 O180 2.384 . S
Tb160 O183 2.479 . S
Tb160 O184 2.471 . S
Eu161 O172 2.418 . S
Eu161 O173 2.384 . S
Eu161 O176 2.479 . S
Eu161 O177 2.471 . S
Eu161 O178 2.347 . S
Eu161 O181 2.366 . S
Eu161 C191 2.825 . S
C162 O178 1.259 . S
C162 O179 1.265 . S
C163 O180 1.255 . S
C163 O181 1.265 . S
C164 C166 1.380 . S
C164 C167 1.374 . S
C164 C170 1.507 . S
C165 C166 1.384 . S
C165 C169 1.387 . S
C165 H192 0.930 . S
C166 C164 1.380 . S
C166 C165 1.384 . S
C166 H193 0.931 . S
C167 C164 1.374 . S
C167 C168 1.390 . S
C167 H194 0.930 . S
C168 C167 1.390 . S
C168 C169 1.391 . S
C168 H195 0.930 . S
C169 C165 1.387 . S
C169 C168 1.391 . S
C170 Tb160 2.825 . S
C170 C164 1.507 . S
C170 O183 1.238 . S
C170 O184 1.247 . S
O171 Tb160 2.347 . S
O171 C175 1.259 . S
O172 Eu161 2.418 . S
O172 C175 1.265 . S
O173 Eu161 2.384 . S
O173 C182 1.255 . S
O174 Tb160 2.366 . S
O174 C182 1.265 . S
C175 O171 1.259 . S
C175 O172 1.265 . S
O176 Eu161 2.479 . S
O176 C191 1.238 . S
O177 Eu161 2.471 . S
O177 C191 1.247 . S
O178 Eu161 2.347 . S
O178 C162 1.259 . S
O179 Tb160 2.418 . S
O179 C162 1.265 . S
O180 Tb160 2.384 . S
O180 C163 1.255 . S
O181 Eu161 2.366 . S
O181 C163 1.265 . S
C182 O173 1.255 . S
C182 O174 1.265 . S
O183 Tb160 2.479 . S
O183 C170 1.238 . S
O184 Tb160 2.471 . S
O184 C170 1.247 . S
C185 C188 1.380 . S
C185 C189 1.374 . S
C185 C191 1.507 . S
C186 C187 1.387 . S
C186 C190 1.391 . S
C187 C186 1.387 . S
C187 C188 1.384 . S
C187 H196 0.930 . S
C188 C185 1.380 . S
C188 C187 1.384 . S
C188 H197 0.931 . S
C189 C185 1.374 . S
C189 C190 1.390 . S
C189 H198 0.930 . S
C190 C186 1.391 . S
C190 C189 1.390 . S
C190 H199 0.930 . S
C191 Eu161 2.825 . S
C191 O176 1.238 . S
C191 O177 1.247 . S
C191 C185 1.507 . S
H192 C165 0.930 . S
H193 C166 0.931 . S
H194 C167 0.930 . S
H195 C168 0.930 . S
H196 C187 0.930 . S
H197 C188 0.931 . S
H198 C189 0.930 . S
H199 C190 0.930 . S
Tb200 C210 2.825 . S
Tb200 O211 2.347 . S
Tb200 O214 2.366 . S
Tb200 O219 2.418 . S
Tb200 O220 2.384 . S
Tb200 O223 2.479 . S
Tb200 O224 2.471 . S
Eu201 O212 2.418 . S
Eu201 O213 2.384 . S
Eu201 O216 2.479 . S
Eu201 O217 2.471 . S
Eu201 O218 2.347 . S
Eu201 O221 2.366 . S
Eu201 C231 2.825 . S
C202 O218 1.259 . S
C202 O219 1.265 . S
C203 O220 1.255 . S
C203 O221 1.265 . S
C204 C206 1.380 . S
C204 C207 1.374 . S
C204 C210 1.507 . S
C205 C206 1.384 . S
C205 C209 1.387 . S
C205 H232 0.930 . S
C206 C204 1.380 . S
C206 C205 1.384 . S
C206 H233 0.931 . S
C207 C204 1.374 . S
C207 C208 1.390 . S
C207 H234 0.930 . S
C208 C207 1.390 . S
C208 C209 1.391 . S
C208 H235 0.930 . S
C209 C205 1.387 . S
C209 C208 1.391 . S
C210 Tb200 2.825 . S
C210 C204 1.507 . S
C210 O223 1.238 . S
C210 O224 1.247 . S
O211 Tb200 2.347 . S
O211 C215 1.259 . S
O212 Eu201 2.418 . S
O212 C215 1.265 . S
O213 Eu201 2.384 . S
O213 C222 1.255 . S
O214 Tb200 2.366 . S
O214 C222 1.265 . S
C215 O211 1.259 . S
C215 O212 1.265 . S
O216 Eu201 2.479 . S
O216 C231 1.238 . S
O217 Eu201 2.471 . S
O217 C231 1.247 . S
O218 Eu201 2.347 . S
O218 C202 1.259 . S
O219 Tb200 2.418 . S
O219 C202 1.265 . S
O220 Tb200 2.384 . S
O220 C203 1.255 . S
O221 Eu201 2.366 . S
O221 C203 1.265 . S
C222 O213 1.255 . S
C222 O214 1.265 . S
O223 Tb200 2.479 . S
O223 C210 1.238 . S
O224 Tb200 2.471 . S
O224 C210 1.247 . S
C225 C228 1.380 . S
C225 C229 1.374 . S
C225 C231 1.507 . S
C226 C227 1.387 . S
C226 C230 1.391 . S
C227 C226 1.387 . S
C227 C228 1.384 . S
C227 H236 0.930 . S
C228 C225 1.380 . S
C228 C227 1.384 . S
C228 H237 0.931 . S
C229 C225 1.374 . S
C229 C230 1.390 . S
C229 H238 0.930 . S
C230 C226 1.391 . S
C230 C229 1.390 . S
C230 H239 0.930 . S
C231 Eu201 2.825 . S
C231 O216 1.238 . S
C231 O217 1.247 . S
C231 C225 1.507 . S
H232 C205 0.930 . S
H233 C206 0.931 . S
H234 C207 0.930 . S
H235 C208 0.930 . S
H236 C227 0.930 . S
H237 C228 0.931 . S
H238 C229 0.930 . S
H239 C230 0.930 . S
Tb240 C250 2.825 . S
Tb240 O251 2.347 . S
Tb240 O254 2.366 . S
Tb240 O259 2.418 . S
Tb240 O260 2.384 . S
Tb240 O263 2.479 . S
Tb240 O264 2.471 . S
Eu241 O252 2.418 . S
Eu241 O253 2.384 . S
Eu241 O256 2.479 . S
Eu241 O257 2.471 . S
Eu241 O258 2.347 . S
Eu241 O261 2.366 . S
Eu241 C271 2.825 . S
C242 O258 1.259 . S
C242 O259 1.265 . S
C243 O260 1.255 . S
C243 O261 1.265 . S
C244 C246 1.380 . S
C244 C247 1.374 . S
C244 C250 1.507 . S
C245 C246 1.384 . S
C245 C249 1.387 . S
C245 H272 0.930 . S
C246 C244 1.380 . S
C246 C245 1.384 . S
C246 H273 0.931 . S
C247 C244 1.374 . S
C247 C248 1.390 . S
C247 H274 0.930 . S
C248 C247 1.390 . S
C248 C249 1.391 . S
C248 H275 0.930 . S
C249 C245 1.387 . S
C249 C248 1.391 . S
C250 Tb240 2.825 . S
C250 C244 1.507 . S
C250 O263 1.238 . S
C250 O264 1.247 . S
O251 Tb240 2.347 . S
O251 C255 1.259 . S
O252 Eu241 2.418 . S
O252 C255 1.265 . S
O253 Eu241 2.384 . S
O253 C262 1.255 . S
O254 Tb240 2.366 . S
O254 C262 1.265 . S
C255 O251 1.259 . S
C255 O252 1.265 . S
O256 Eu241 2.479 . S
O256 C271 1.238 . S
O257 Eu241 2.471 . S
O257 C271 1.247 . S
O258 Eu241 2.347 . S
O258 C242 1.259 . S
O259 Tb240 2.418 . S
O259 C242 1.265 . S
O260 Tb240 2.384 . S
O260 C243 1.255 . S
O261 Eu241 2.366 . S
O261 C243 1.265 . S
C262 O253 1.255 . S
C262 O254 1.265 . S
O263 Tb240 2.479 . S
O263 C250 1.238 . S
O264 Tb240 2.471 . S
O264 C250 1.247 . S
C265 C268 1.380 . S
C265 C269 1.374 . S
C265 C271 1.507 . S
C266 C267 1.387 . S
C266 C270 1.391 . S
C267 C266 1.387 . S
C267 C268 1.384 . S
C267 H276 0.930 . S
C268 C265 1.380 . S
C268 C267 1.384 . S
C268 H277 0.931 . S
C269 C265 1.374 . S
C269 C270 1.390 . S
C269 H278 0.930 . S
C270 C266 1.391 . S
C270 C269 1.390 . S
C270 H279 0.930 . S
C271 Eu241 2.825 . S
C271 O256 1.238 . S
C271 O257 1.247 . S
C271 C265 1.507 . S
H272 C245 0.930 . S
H273 C246 0.931 . S
H274 C247 0.930 . S
H275 C248 0.930 . S
H276 C267 0.930 . S
H277 C268 0.931 . S
H278 C269 0.930 . S
H279 C270 0.930 . S
Tb280 C290 2.825 . S
Tb280 O291 2.347 . S
Tb280 O294 2.366 . S
Tb280 O299 2.418 . S
Tb280 O300 2.384 . S
Tb280 O303 2.479 . S
Tb280 O304 2.471 . S
Eu281 O292 2.418 . S
Eu281 O293 2.384 . S
Eu281 O296 2.479 . S
Eu281 O297 2.471 . S
Eu281 O298 2.347 . S
Eu281 O301 2.366 . S
Eu281 C311 2.825 . S
C282 O298 1.259 . S
C282 O299 1.265 . S
C283 O300 1.255 . S
C283 O301 1.265 . S
C284 C286 1.380 . S
C284 C287 1.374 . S
C284 C290 1.507 . S
C285 C286 1.384 . S
C285 C289 1.387 . S
C285 H312 0.930 . S
C286 C284 1.380 . S
C286 C285 1.384 . S
C286 H313 0.931 . S
C287 C284 1.374 . S
C287 C288 1.390 . S
C287 H314 0.930 . S
C288 C287 1.390 . S
C288 C289 1.391 . S
C288 H315 0.930 . S
C289 C285 1.387 . S
C289 C288 1.391 . S
C290 Tb280 2.825 . S
C290 C284 1.507 . S
C290 O303 1.238 . S
C290 O304 1.247 . S
O291 Tb280 2.347 . S
O291 C295 1.259 . S
O292 Eu281 2.418 . S
O292 C295 1.265 . S
O293 Eu281 2.384 . S
O293 C302 1.255 . S
O294 Tb280 2.366 . S
O294 C302 1.265 . S
C295 O291 1.259 . S
C295 O292 1.265 . S
O296 Eu281 2.479 . S
O296 C311 1.238 . S
O297 Eu281 2.471 . S
O297 C311 1.247 . S
O298 Eu281 2.347 . S
O298 C282 1.259 . S
O299 Tb280 2.418 . S
O299 C282 1.265 . S
O300 Tb280 2.384 . S
O300 C283 1.255 . S
O301 Eu281 2.366 . S
O301 C283 1.265 . S
C302 O293 1.255 . S
C302 O294 1.265 . S
O303 Tb280 2.479 . S
O303 C290 1.238 . S
O304 Tb280 2.471 . S
O304 C290 1.247 . S
C305 C308 1.380 . S
C305 C309 1.374 . S
C305 C311 1.507 . S
C306 C307 1.387 . S
C306 C310 1.391 . S
C307 C306 1.387 . S
C307 C308 1.384 . S
C307 H316 0.930 . S
C308 C305 1.380 . S
C308 C307 1.384 . S
C308 H317 0.931 . S
C309 C305 1.374 . S
C309 C310 1.390 . S
C309 H318 0.930 . S
C310 C306 1.391 . S
C310 C309 1.390 . S
C310 H319 0.930 . S
C311 Eu281 2.825 . S
C311 O296 1.238 . S
C311 O297 1.247 . S
C311 C305 1.507 . S
H312 C285 0.930 . S
H313 C286 0.931 . S
H314 C287 0.930 . S
H315 C288 0.930 . S
H316 C307 0.930 . S
H317 C308 0.931 . S
H318 C309 0.930 . S
H319 C310 0.930 . S
C320 O332 1.241 . S
C320 O333 1.280 . S
C321 O334 1.277 . S
C321 O335 1.245 . S
C322 O346 1.247 . S
C322 O348 1.289 . S
Mg323 O324 1.926 1_455 S
Mg323 O333 1.984 1_455 S
Mg323 O335 1.988 1_455 S
Mg323 O336 2.061 . S
O324 Mg323 1.926 1_655 S
O324 Mg325 1.986 . S
O324 Mg326 1.917 1_655 S
Mg325 O324 1.986 . S
Mg325 O332 2.042 . S
Mg325 O334 2.041 . S
Mg325 O340 2.038 1_545 S
Mg325 O348 2.238 1_545 S
Mg326 O324 1.917 1_455 S
Mg326 O327 1.917 1_545 S
Mg326 O337 2.106 . S
Mg326 O339 2.077 1_445 S
Mg326 O348 2.106 1_445 S
Mg326 O349 2.079 . S
O327 Mg326 1.917 1_565 S
O327 Mg328 1.926 . S
O327 Mg329 1.986 1_565 S
Mg328 O327 1.926 . S
Mg328 O342 1.984 . S
Mg328 O345 1.988 . S
Mg328 O346 2.061 1_455 S
Mg329 O327 1.986 1_545 S
Mg329 O337 2.238 . S
Mg329 O341 2.042 1_545 S
Mg329 O343 2.041 1_545 S
Mg329 O350 2.038 . S
C330 O336 1.247 . S
C330 O337 1.289 . S
C331 O349 1.245 . S
C331 O350 1.274 . S
O332 C320 1.241 . S
O332 Mg325 2.042 . S
O333 C320 1.280 . S
O333 Mg323 1.984 1_655 S
O334 C321 1.277 . S
O334 Mg325 2.041 . S
O335 C321 1.245 . S
O335 Mg323 1.988 1_655 S
O336 Mg323 2.061 . S
O336 C330 1.247 . S
O337 Mg326 2.106 . S
O337 Mg329 2.238 . S
O337 C330 1.289 . S
C338 O339 1.252 . S
C338 O340 1.274 . S
O339 Mg326 2.077 1_665 S
O339 C338 1.252 . S
O340 Mg325 2.038 1_565 S
O340 C338 1.274 . S
O341 Mg329 2.042 1_565 S
O341 C344 1.241 . S
O342 Mg328 1.984 . S
O342 C344 1.280 . S
O343 Mg329 2.041 1_565 S
O343 C347 1.277 . S
C344 O341 1.241 . S
C344 O342 1.280 . S
O345 Mg328 1.988 . S
O345 C347 1.245 . S
O346 C322 1.247 . S
O346 Mg328 2.061 1_655 S
C347 O343 1.277 . S
C347 O345 1.245 . S
O348 C322 1.289 . S
O348 Mg325 2.238 1_565 S
O348 Mg326 2.106 1_665 S
O349 Mg326 2.079 . S
O349 C331 1.245 . S
O350 Mg329 2.038 . S
O350 C331 1.274 . S
C351 O363 1.241 . S
C351 O364 1.280 . S
C352 O365 1.277 . S
C352 O366 1.246 . S
C353 O377 1.247 . S
C353 O379 1.289 1_556 S
Mg354 O355 1.926 . S
Mg354 O364 1.984 . S
Mg354 O366 1.988 . S
Mg354 O367 2.061 . S
O355 Mg354 1.926 . S
O355 Mg356 1.986 . S
O355 Mg357 1.917 . S
Mg356 O355 1.986 . S
Mg356 O363 2.042 . S
Mg356 O365 2.041 . S
Mg356 O371 2.038 1_545 S
Mg356 O379 2.238 1_545 S
Mg357 O355 1.917 . S
Mg357 O358 1.917 1_545 S
Mg357 O368 2.106 . S
Mg357 O370 2.079 1_545 S
Mg357 O379 2.106 1_545 S
Mg357 O380 2.079 . S
O358 Mg357 1.917 1_565 S
O358 Mg359 1.926 . S
O358 Mg360 1.986 1_565 S
Mg359 O358 1.926 . S
Mg359 O373 1.984 1_554 S
Mg359 O376 1.988 . S
Mg359 O377 2.061 1_554 S
Mg360 O358 1.986 1_545 S
Mg360 O368 2.238 . S
Mg360 O372 2.042 1_545 S
Mg360 O374 2.041 1_545 S
Mg360 O381 2.038 . S
C361 O367 1.247 . S
C361 O368 1.289 . S
C362 O380 1.245 1_556 S
C362 O381 1.274 1_556 S
O363 C351 1.241 . S
O363 Mg356 2.042 . S
O364 C351 1.280 . S
O364 Mg354 1.984 . S
O365 C352 1.277 . S
O365 Mg356 2.041 . S
O366 C352 1.246 . S
O366 Mg354 1.988 . S
O367 Mg354 2.061 . S
O367 C361 1.247 . S
O368 Mg357 2.106 . S
O368 Mg360 2.238 . S
O368 C361 1.289 . S
C369 O370 1.245 . S
C369 O371 1.274 . S
O370 Mg357 2.079 1_565 S
O370 C369 1.245 . S
O371 Mg356 2.038 1_565 S
O371 C369 1.274 . S
O372 Mg360 2.042 1_565 S
O372 C375 1.241 1_554 S
O373 Mg359 1.984 1_556 S
O373 C375 1.280 . S
O374 Mg360 2.041 1_565 S
O374 C378 1.277 . S
C375 O372 1.241 1_556 S
C375 O373 1.280 . S
O376 Mg359 1.988 . S
O376 C378 1.245 . S
O377 C353 1.247 . S
O377 Mg359 2.061 1_556 S
C378 O374 1.277 . S
C378 O376 1.245 . S
O379 C353 1.289 1_554 S
O379 Mg356 2.238 1_565 S
O379 Mg357 2.106 1_565 S
O380 Mg357 2.079 . S
O380 C362 1.245 1_554 S
O381 Mg360 2.038 . S
O381 C362 1.274 1_554 S
C382 O394 1.241 . S
C382 O395 1.280 . S
C383 O396 1.277 . S
C383 O397 1.245 1_655 S
C384 O408 1.247 . S
C384 O410 1.289 . S
Mg385 O386 1.926 . S
Mg385 O395 1.984 1_455 S
Mg385 O397 1.988 1_554 S
Mg385 O398 2.061 . S
O386 Mg385 1.926 . S
O386 Mg387 1.986 1_455 S
O386 Mg388 1.917 . S
Mg387 O386 1.986 1_655 S
Mg387 O394 2.042 . S
Mg387 O396 2.041 1_554 S
Mg387 O402 2.038 . S
Mg387 O410 2.238 1_554 S
Mg388 O386 1.917 . S
Mg388 O389 1.917 1_554 S
Mg388 O399 2.106 . S
Mg388 O401 2.079 . S
Mg388 O410 2.106 1_454 S
Mg388 O411 2.079 1_554 S
O389 Mg388 1.917 1_556 S
O389 Mg390 1.926 . S
O389 Mg391 1.979 1_556 S
Mg390 O389 1.926 . S
Mg390 O404 1.984 . S
Mg390 O407 1.988 1_556 S
Mg390 O408 2.061 1_455 S
Mg391 O389 1.979 1_554 S
Mg391 O399 2.260 . S
Mg391 O403 2.016 1_554 S
Mg391 O405 2.075 . S
Mg391 O412 2.005 1_554 S
C392 O398 1.247 . S
C392 O399 1.289 . S
C393 O411 1.245 . S
C393 O412 1.274 . S
O394 C382 1.241 . S
O394 Mg387 2.042 . S
O395 C382 1.280 . S
O395 Mg385 1.984 1_655 S
O396 C383 1.277 . S
O396 Mg387 2.041 1_556 S
O397 C383 1.245 1_455 S
O397 Mg385 1.988 1_556 S
O398 Mg385 2.061 . S
O398 C392 1.247 . S
O399 Mg388 2.106 . S
O399 Mg391 2.260 . S
O399 C392 1.289 . S
C400 O401 1.245 1_655 S
C400 O402 1.274 . S
O401 Mg388 2.079 . S
O401 C400 1.245 1_455 S
O402 Mg387 2.038 . S
O402 C400 1.274 . S
O403 Mg391 2.016 1_556 S
O403 C406 1.241 . S
O404 Mg390 1.984 . S
O404 C406 1.280 . S
O405 Mg391 2.075 . S
O405 C409 1.277 . S
C406 O403 1.241 . S
C406 O404 1.280 . S
O407 Mg390 1.988 1_554 S
O407 C409 1.245 . S
O408 C384 1.247 . S
O408 Mg390 2.061 1_655 S
C409 O405 1.277 . S
C409 O407 1.245 . S
O410 C384 1.289 . S
O410 Mg387 2.238 1_556 S
O410 Mg388 2.106 1_656 S
O411 Mg388 2.079 1_556 S
O411 C393 1.245 . S
O412 Mg391 2.005 1_556 S
O412 C393 1.274 . S
C413 O425 1.241 . S
C413 O426 1.280 . S
C414 O427 1.277 . S
C414 O428 1.245 . S
C415 O439 1.247 . S
C415 O441 1.289 . S
Mg416 O417 1.926 . S
Mg416 O426 1.984 . S
Mg416 O428 1.988 1_554 S
Mg416 O429 2.061 . S
O417 Mg416 1.926 . S
O417 Mg418 1.986 . S
O417 Mg419 1.917 . S
Mg418 O417 1.986 . S
Mg418 O425 2.042 . S
Mg418 O427 2.041 1_554 S
Mg418 O433 2.038 . S
Mg418 O441 2.238 1_554 S
Mg419 O417 1.917 . S
Mg419 O420 1.917 . S
Mg419 O430 2.106 . S
Mg419 O432 2.079 . S
Mg419 O441 2.106 1_554 S
Mg419 O442 2.079 1_554 S
O420 Mg419 1.917 . S
O420 Mg421 1.926 . S
O420 Mg422 1.986 . S
Mg421 O420 1.926 . S
Mg421 O435 1.984 1_554 S
Mg421 O438 1.988 . S
Mg421 O439 2.061 1_554 S
Mg422 O420 1.986 . S
Mg422 O430 2.238 . S
Mg422 O434 2.042 1_554 S
Mg422 O436 2.041 . S
Mg422 O443 2.038 1_554 S
C423 O429 1.247 . S
C423 O430 1.289 . S
C424 O442 1.245 . S
C424 O443 1.274 . S
O425 C413 1.241 . S
O425 Mg418 2.042 . S
O426 C413 1.280 . S
O426 Mg416 1.984 . S
O427 C414 1.277 . S
O427 Mg418 2.041 1_556 S
O428 C414 1.245 . S
O428 Mg416 1.988 1_556 S
O429 Mg416 2.061 . S
O429 C423 1.247 . S
O430 Mg419 2.106 . S
O430 Mg422 2.238 . S
O430 C423 1.289 . S
C431 O432 1.245 . S
C431 O433 1.274 . S
O432 Mg419 2.079 . S
O432 C431 1.245 . S
O433 Mg418 2.038 . S
O433 C431 1.274 . S
O434 Mg422 2.042 1_556 S
O434 C437 1.241 . S
O435 Mg421 1.984 1_556 S
O435 C437 1.280 . S
O436 Mg422 2.041 . S
O436 C440 1.277 . S
C437 O434 1.241 . S
C437 O435 1.280 . S
O438 Mg421 1.988 . S
O438 C440 1.245 . S
O439 C415 1.247 . S
O439 Mg421 2.061 1_556 S
C440 O436 1.277 . S
C440 O438 1.245 . S
O441 C415 1.289 . S
O441 Mg418 2.238 1_556 S
O441 Mg419 2.106 1_556 S
O442 Mg419 2.079 1_556 S
O442 C424 1.245 . S
O443 Mg422 2.038 1_556 S
O443 C424 1.274 . S
C444 O456 1.241 . S
C444 O457 1.280 . S
C445 O458 1.277 . S
C445 O459 1.245 . S
C446 O470 1.247 . S
C446 O472 1.289 . S
Mg447 O448 1.926 . S
Mg447 O457 1.995 . S
Mg447 O459 1.993 . S
Mg447 O460 2.049 1_655 S
O448 Mg447 1.926 . S
O448 Mg449 1.986 . S
O448 Mg450 1.917 1_655 S
Mg449 O448 1.986 . S
Mg449 O456 2.042 . S
Mg449 O458 2.041 . S
Mg449 O464 2.038 . S
Mg449 O472 2.238 . S
Mg450 O448 1.917 1_455 S
Mg450 O451 1.917 . S
Mg450 O461 2.106 . S
Mg450 O463 2.079 1_455 S
Mg450 O472 2.106 1_455 S
Mg450 O473 2.079 . S
O451 Mg450 1.917 . S
O451 Mg452 1.926 . S
O451 Mg453 1.986 . S
Mg452 O451 1.926 . S
Mg452 O466 1.984 . S
Mg452 O469 1.988 . S
Mg452 O470 2.061 1_455 S
Mg453 O451 1.986 . S
Mg453 O461 2.238 . S
Mg453 O465 2.042 . S
Mg453 O467 2.041 . S
Mg453 O474 2.038 . S
C454 O460 1.247 . S
C454 O461 1.289 . S
C455 O473 1.245 . S
C455 O474 1.274 . S
O456 C444 1.241 . S
O456 Mg449 2.042 . S
O457 C444 1.280 . S
O457 Mg447 1.995 . S
O458 C445 1.277 . S
O458 Mg449 2.041 . S
O459 C445 1.245 . S
O459 Mg447 1.993 . S
O460 Mg447 2.049 1_455 S
O460 C454 1.247 . S
O461 Mg450 2.106 . S
O461 Mg453 2.238 . S
O461 C454 1.289 . S
C462 O463 1.245 . S
C462 O464 1.274 . S
O463 Mg450 2.079 1_655 S
O463 C462 1.245 . S
O464 Mg449 2.038 . S
O464 C462 1.274 . S
O465 Mg453 2.042 . S
O465 C468 1.241 . S
O466 Mg452 1.984 . S
O466 C468 1.280 . S
O467 Mg453 2.041 . S
O467 C471 1.277 . S
C468 O465 1.241 . S
C468 O466 1.280 . S
O469 Mg452 1.988 . S
O469 C471 1.245 . S
O470 C446 1.247 . S
O470 Mg452 2.061 1_655 S
C471 O467 1.277 . S
C471 O469 1.245 . S
O472 C446 1.289 . S
O472 Mg449 2.238 . S
O472 Mg450 2.106 1_655 S
O473 Mg450 2.079 . S
O473 C455 1.245 . S
O474 Mg453 2.038 . S
O474 C455 1.274 . S
C475 O487 1.241 . S
C475 O488 1.280 . S
C476 O489 1.277 . S
C476 O490 1.245 . S
C477 O501 1.247 . S
C477 O503 1.289 1_565 S
Mg478 O479 1.926 . S
Mg478 O488 1.984 . S
Mg478 O490 1.988 . S
Mg478 O491 2.061 . S
O479 Mg478 1.926 . S
O479 Mg480 1.986 . S
O479 Mg481 1.917 . S
Mg480 O479 1.986 . S
Mg480 O487 2.042 . S
Mg480 O489 2.041 . S
Mg480 O495 2.038 . S
Mg480 O503 2.238 . S
Mg481 O479 1.917 . S
Mg481 O482 1.917 . S
Mg481 O492 2.106 . S
Mg481 O494 2.079 . S
Mg481 O503 2.106 . S
Mg481 O504 2.079 . S
O482 Mg481 1.917 . S
O482 Mg483 1.926 1_545 S
O482 Mg484 1.986 . S
Mg483 O482 1.926 1_565 S
Mg483 O497 1.984 . S
Mg483 O500 1.988 . S
Mg483 O501 2.061 . S
Mg484 O482 1.986 . S
Mg484 O492 2.238 . S
Mg484 O496 2.042 . S
Mg484 O498 2.041 . S
Mg484 O505 2.038 . S
C485 O491 1.247 . S
C485 O492 1.289 . S
C486 O504 1.245 . S
C486 O505 1.274 . S
O487 C475 1.241 . S
O487 Mg480 2.042 . S
O488 C475 1.280 . S
O488 Mg478 1.984 . S
O489 C476 1.277 . S
O489 Mg480 2.041 . S
O490 C476 1.245 . S
O490 Mg478 1.988 . S
O491 Mg478 2.061 . S
O491 C485 1.247 . S
O492 Mg481 2.106 . S
O492 Mg484 2.238 . S
O492 C485 1.289 . S
C493 O494 1.245 1_565 S
C493 O495 1.274 1_565 S
O494 Mg481 2.079 . S
O494 C493 1.245 1_545 S
O495 Mg480 2.038 . S
O495 C493 1.274 1_545 S
O496 Mg484 2.042 . S
O496 C499 1.241 1_545 S
O497 Mg483 1.984 . S
O497 C499 1.280 . S
O498 Mg484 2.041 . S
O498 C502 1.277 1_545 S
C499 O496 1.241 1_565 S
C499 O497 1.280 . S
O500 Mg483 1.988 . S
O500 C502 1.245 . S
O501 C477 1.247 . S
O501 Mg483 2.061 . S
C502 O498 1.277 1_565 S
C502 O500 1.245 . S
O503 C477 1.289 1_545 S
O503 Mg480 2.238 . S
O503 Mg481 2.106 . S
O504 Mg481 2.079 . S
O504 C486 1.245 . S
O505 Mg484 2.038 . S
O505 C486 1.274 . S
H506 C514 0.929 . S
H507 C516 0.930 . S
H508 C518 0.930 . S
H509 C521 0.929 . S
H510 C524 0.930 . S
H511 C526 0.960 . S
H512 C526 0.960 . S
H513 C526 0.960 . S
C514 H506 0.929 . S
C514 C515 1.377 . S
C514 C516 1.384 . S
C515 C514 1.377 . S
C515 C521 1.390 . S
C516 H507 0.930 . S
C516 C514 1.384 . S
C516 C517 1.372 . S
C517 C516 1.372 . S
C517 C518 1.400 . S
C517 C522 1.490 . S
C518 H508 0.930 . S
C518 C517 1.400 . S
C518 C521 1.386 . S
H519 C535 0.930 . S
H520 C536 0.931 . S
C521 H509 0.929 . S
C521 C515 1.390 . S
C521 C518 1.386 . S
C522 C517 1.490 . S
C522 C524 1.395 . S
C522 C525 1.403 . S
H523 C529 0.930 . S
C524 H510 0.930 . S
C524 C522 1.395 . S
C524 C527 1.403 . S
C525 C522 1.403 . S
C525 C526 1.524 . S
C525 C529 1.400 . S
C526 H511 0.960 . S
C526 H512 0.960 . S
C526 H513 0.960 . S
C526 C525 1.524 . S
C527 C524 1.403 . S
C527 C528 1.392 . S
C527 C531 1.495 . S
C528 C527 1.392 . S
C528 C529 1.385 . S
C528 C530 1.478 . S
C529 H523 0.930 . S
C529 C525 1.400 . S
C529 C528 1.385 . S
C530 C528 1.478 . S
C530 C532 1.381 . S
C530 C536 1.383 . S
C531 C527 1.495 . S
C531 H537 0.959 . S
C531 H538 0.961 . S
C531 H539 0.960 . S
C532 C530 1.381 . S
C532 C533 1.394 . S
C532 H540 0.930 . S
C533 C532 1.394 . S
C533 C534 1.383 . S
C533 H541 0.929 . S
C534 C533 1.383 . S
C534 C535 1.377 . S
C535 H519 0.930 . S
C535 C534 1.377 . S
C535 C536 1.379 . S
C536 H520 0.931 . S
C536 C530 1.383 . S
C536 C535 1.379 . S
H537 C531 0.959 . S
H538 C531 0.961 . S
H539 C531 0.960 . S
H540 C532 0.930 . S
H541 C533 0.929 . S
H542 C550 0.929 . S
H543 C552 0.930 . S
H544 C554 0.930 . S
H545 C557 0.929 . S
H546 C560 0.930 . S
H547 C562 0.960 . S
H548 C562 0.960 . S
H549 C562 0.960 . S
C550 H542 0.929 . S
C550 C551 1.377 . S
C550 C552 1.384 . S
C551 C550 1.377 . S
C551 C557 1.390 . S
C552 H543 0.930 . S
C552 C550 1.384 . S
C552 C553 1.372 . S
C553 C552 1.372 . S
C553 C554 1.400 . S
C553 C558 1.490 . S
C554 H544 0.930 . S
C554 C553 1.400 . S
C554 C557 1.386 . S
H555 C571 0.930 . S
H556 C572 0.931 . S
C557 H545 0.929 . S
C557 C551 1.390 . S
C557 C554 1.386 . S
C558 C553 1.490 . S
C558 C560 1.395 . S
C558 C561 1.403 . S
H559 C565 0.930 . S
C560 H546 0.930 . S
C560 C558 1.395 . S
C560 C563 1.403 . S
C561 C558 1.403 . S
C561 C562 1.524 . S
C561 C565 1.400 . S
C562 H547 0.960 . S
C562 H548 0.960 . S
C562 H549 0.960 . S
C562 C561 1.524 . S
C563 C560 1.403 . S
C563 C564 1.392 . S
C563 C567 1.495 . S
C564 C563 1.392 . S
C564 C565 1.385 . S
C564 C566 1.478 . S
C565 H559 0.930 . S
C565 C561 1.400 . S
C565 C564 1.385 . S
C566 C564 1.478 . S
C566 C568 1.381 . S
C566 C572 1.383 . S
C567 C563 1.495 . S
C567 H573 0.959 . S
C567 H574 0.961 . S
C567 H575 0.960 . S
C568 C566 1.381 . S
C568 C569 1.394 . S
C568 H576 0.930 . S
C569 C568 1.394 . S
C569 C570 1.383 . S
C569 H577 0.929 . S
C570 C569 1.383 . S
C570 C571 1.377 . S
C571 H555 0.930 . S
C571 C570 1.377 . S
C571 C572 1.379 . S
C572 H556 0.931 . S
C572 C566 1.383 . S
C572 C571 1.379 . S
H573 C567 0.959 . S
H574 C567 0.961 . S
H575 C567 0.960 . S
H576 C568 0.930 . S
H577 C569 0.929 . S
H578 C586 0.929 . S
H579 C588 0.930 . S
H580 C590 0.930 . S
H581 C593 0.929 . S
H582 C596 0.930 . S
H583 C598 0.960 . S
H584 C598 0.960 . S
H585 C598 0.960 . S
C586 H578 0.929 . S
C586 C587 1.377 . S
C586 C588 1.384 . S
C587 C586 1.377 . S
C587 C593 1.390 . S
C588 H579 0.930 . S
C588 C586 1.384 . S
C588 C589 1.372 . S
C589 C588 1.372 . S
C589 C590 1.400 . S
C589 C594 1.490 . S
C590 H580 0.930 . S
C590 C589 1.400 . S
C590 C593 1.386 . S
H591 C607 0.930 . S
H592 C608 0.931 . S
C593 H581 0.929 . S
C593 C587 1.390 . S
C593 C590 1.386 . S
C594 C589 1.490 . S
C594 C596 1.395 . S
C594 C597 1.403 . S
H595 C601 0.930 . S
C596 H582 0.930 . S
C596 C594 1.395 . S
C596 C599 1.403 . S
C597 C594 1.403 . S
C597 C598 1.524 . S
C597 C601 1.400 . S
C598 H583 0.960 . S
C598 H584 0.960 . S
C598 H585 0.960 . S
C598 C597 1.524 . S
C599 C596 1.403 . S
C599 C600 1.392 . S
C599 C603 1.495 . S
C600 C599 1.392 . S
C600 C601 1.385 . S
C600 C602 1.478 . S
C601 H595 0.930 . S
C601 C597 1.400 . S
C601 C600 1.385 . S
C602 C600 1.478 . S
C602 C604 1.381 . S
C602 C608 1.383 . S
C603 C599 1.495 . S
C603 H609 0.959 . S
C603 H610 0.961 . S
C603 H611 0.960 . S
C604 C602 1.381 . S
C604 C605 1.394 . S
C604 H612 0.930 . S
C605 C604 1.394 . S
C605 C606 1.383 . S
C605 H613 0.929 . S
C606 C605 1.383 . S
C606 C607 1.377 . S
C607 H591 0.930 . S
C607 C606 1.377 . S
C607 C608 1.379 . S
C608 H592 0.931 . S
C608 C602 1.383 . S
C608 C607 1.379 . S
H609 C603 0.959 . S
H610 C603 0.961 . S
H611 C603 0.960 . S
H612 C604 0.930 . S
H613 C605 0.929 . S
H614 C622 0.929 . S
H615 C624 0.930 . S
H616 C626 0.930 . S
H617 C629 0.929 . S
H618 C632 0.930 . S
H619 C634 0.960 . S
H620 C634 0.960 . S
H621 C634 0.960 . S
C622 H614 0.929 . S
C622 C623 1.377 . S
C622 C624 1.384 . S
C623 C622 1.377 . S
C623 C629 1.390 . S
C624 H615 0.930 . S
C624 C622 1.384 . S
C624 C625 1.372 . S
C625 C624 1.372 . S
C625 C626 1.400 . S
C625 C630 1.490 . S
C626 H616 0.930 . S
C626 C625 1.400 . S
C626 C629 1.386 . S
H627 C643 0.930 . S
H628 C644 0.931 . S
C629 H617 0.929 . S
C629 C623 1.390 . S
C629 C626 1.386 . S
C630 C625 1.490 . S
C630 C632 1.395 . S
C630 C633 1.403 . S
H631 C637 0.930 . S
C632 H618 0.930 . S
C632 C630 1.395 . S
C632 C635 1.403 . S
C633 C630 1.403 . S
C633 C634 1.524 . S
C633 C637 1.400 . S
C634 H619 0.960 . S
C634 H620 0.960 . S
C634 H621 0.960 . S
C634 C633 1.524 . S
C635 C632 1.403 . S
C635 C636 1.392 . S
C635 C639 1.495 . S
C636 C635 1.392 . S
C636 C637 1.385 . S
C636 C638 1.478 . S
C637 H631 0.930 . S
C637 C633 1.400 . S
C637 C636 1.385 . S
C638 C636 1.478 . S
C638 C640 1.381 . S
C638 C644 1.383 . S
C639 C635 1.495 . S
C639 H645 0.959 . S
C639 H646 0.961 . S
C639 H647 0.960 . S
C640 C638 1.381 . S
C640 C641 1.394 . S
C640 H648 0.930 . S
C641 C640 1.394 . S
C641 C642 1.383 . S
C641 H649 0.929 . S
C642 C641 1.383 . S
C642 C643 1.377 . S
C643 H627 0.930 . S
C643 C642 1.377 . S
C643 C644 1.379 . S
C644 H628 0.931 . S
C644 C638 1.383 . S
C644 C643 1.379 . S
H645 C639 0.959 . S
H646 C639 0.961 . S
H647 C639 0.960 . S
H648 C640 0.930 . S
H649 C641 0.929 . S
H650 C658 0.929 . S
H651 C660 0.930 . S
H652 C662 0.930 . S
H653 C665 0.929 . S
H654 C668 0.930 . S
H655 C670 0.960 . S
H656 C670 0.960 . S
H657 C670 0.960 . S
C658 H650 0.929 . S
C658 C659 1.377 . S
C658 C660 1.384 . S
C659 C658 1.377 . S
C659 C665 1.390 . S
C660 H651 0.930 . S
C660 C658 1.384 . S
C660 C661 1.372 . S
C661 C660 1.372 . S
C661 C662 1.400 . S
C661 C666 1.490 . S
C662 H652 0.930 . S
C662 C661 1.400 . S
C662 C665 1.386 . S
H663 C679 0.930 . S
H664 C680 0.931 . S
C665 H653 0.929 . S
C665 C659 1.390 . S
C665 C662 1.386 . S
C666 C661 1.490 . S
C666 C668 1.395 . S
C666 C669 1.403 . S
H667 C673 0.930 . S
C668 H654 0.930 . S
C668 C666 1.395 . S
C668 C671 1.403 . S
C669 C666 1.403 . S
C669 C670 1.524 . S
C669 C673 1.400 . S
C670 H655 0.960 . S
C670 H656 0.960 . S
C670 H657 0.960 . S
C670 C669 1.524 . S
C671 C668 1.403 . S
C671 C672 1.392 . S
C671 C675 1.495 . S
C672 C671 1.392 . S
C672 C673 1.385 . S
C672 C674 1.478 . S
C673 H667 0.930 . S
C673 C669 1.400 . S
C673 C672 1.385 . S
C674 C672 1.478 . S
C674 C676 1.381 . S
C674 C680 1.383 . S
C675 C671 1.495 . S
C675 H681 0.959 . S
C675 H682 0.961 . S
C675 H683 0.960 . S
C676 C674 1.381 . S
C676 C677 1.394 . S
C676 H684 0.930 . S
C677 C676 1.394 . S
C677 C678 1.383 . S
C677 H685 0.929 . S
C678 C677 1.383 . S
C678 C679 1.377 . S
C679 H663 0.930 . S
C679 C678 1.377 . S
C679 C680 1.379 . S
C680 H664 0.931 . S
C680 C674 1.383 . S
C680 C679 1.379 . S
H681 C675 0.959 . S
H682 C675 0.961 . S
H683 C675 0.960 . S
H684 C676 0.930 . S
H685 C677 0.929 . S
H686 C694 0.929 . S
H687 C696 0.930 . S
H688 C698 0.930 . S
H689 C701 0.929 . S
H690 C704 0.930 . S
H691 C706 0.960 . S
H692 C706 0.960 . S
H693 C706 0.960 . S
C694 H686 0.929 . S
C694 C695 1.377 . S
C694 C696 1.384 . S
C695 C694 1.377 . S
C695 C701 1.390 . S
C696 H687 0.930 . S
C696 C694 1.384 . S
C696 C697 1.372 . S
C697 C696 1.372 . S
C697 C698 1.400 . S
C697 C702 1.490 . S
C698 H688 0.930 . S
C698 C697 1.400 . S
C698 C701 1.386 . S
H699 C715 0.930 . S
H700 C716 0.931 . S
C701 H689 0.929 . S
C701 C695 1.390 . S
C701 C698 1.386 . S
C702 C697 1.490 . S
C702 C704 1.395 . S
C702 C705 1.403 . S
H703 C709 0.930 . S
C704 H690 0.930 . S
C704 C702 1.395 . S
C704 C707 1.403 . S
C705 C702 1.403 . S
C705 C706 1.524 . S
C705 C709 1.400 . S
C706 H691 0.960 . S
C706 H692 0.960 . S
C706 H693 0.960 . S
C706 C705 1.524 . S
C707 C704 1.403 . S
C707 C708 1.392 . S
C707 C711 1.495 . S
C708 C707 1.392 . S
C708 C709 1.385 . S
C708 C710 1.478 . S
C709 H703 0.930 . S
C709 C705 1.400 . S
C709 C708 1.385 . S
C710 C708 1.478 . S
C710 C712 1.381 . S
C710 C716 1.383 . S
C711 C707 1.495 . S
C711 H717 0.959 . S
C711 H718 0.961 . S
C711 H719 0.960 . S
C712 C710 1.381 . S
C712 C713 1.394 . S
C712 H720 0.930 . S
C713 C712 1.394 . S
C713 C714 1.383 . S
C713 H721 0.929 . S
C714 C713 1.383 . S
C714 C715 1.377 . S
C715 H699 0.930 . S
C715 C714 1.377 . S
C715 C716 1.379 . S
C716 H700 0.931 . S
C716 C710 1.383 . S
C716 C715 1.379 . S
H717 C711 0.959 . S
H718 C711 0.961 . S
H719 C711 0.960 . S
H720 C712 0.930 . S
H721 C713 0.929 . S
H722 C730 0.929 . S
H723 C732 0.930 . S
H724 C734 0.930 . S
H725 C737 0.929 . S
H726 C740 0.930 . S
H727 C742 0.960 . S
H728 C742 0.960 . S
H729 C742 0.960 . S
C730 H722 0.929 . S
C730 C731 1.377 . S
C730 C732 1.384 . S
C731 C730 1.377 . S
C731 C737 1.390 . S
C732 H723 0.930 . S
C732 C730 1.384 . S
C732 C733 1.372 . S
C733 C732 1.372 . S
C733 C734 1.400 . S
C733 C738 1.490 . S
C734 H724 0.930 . S
C734 C733 1.400 . S
C734 C737 1.386 . S
H735 C751 0.930 . S
H736 C752 0.931 . S
C737 H725 0.929 . S
C737 C731 1.390 . S
C737 C734 1.386 . S
C738 C733 1.490 . S
C738 C740 1.395 . S
C738 C741 1.403 . S
H739 C745 0.930 . S
C740 H726 0.930 . S
C740 C738 1.395 . S
C740 C743 1.403 . S
C741 C738 1.403 . S
C741 C742 1.524 . S
C741 C745 1.400 . S
C742 H727 0.960 . S
C742 H728 0.960 . S
C742 H729 0.960 . S
C742 C741 1.524 . S
C743 C740 1.403 . S
C743 C744 1.392 . S
C743 C747 1.495 . S
C744 C743 1.392 . S
C744 C745 1.385 . S
C744 C746 1.478 . S
C745 H739 0.930 . S
C745 C741 1.400 . S
C745 C744 1.385 . S
C746 C744 1.478 . S
C746 C748 1.381 . S
C746 C752 1.383 . S
C747 C743 1.495 . S
C747 H753 0.959 . S
C747 H754 0.961 . S
C747 H755 0.960 . S
C748 C746 1.381 . S
C748 C749 1.394 . S
C748 H756 0.930 . S
C749 C748 1.394 . S
C749 C750 1.383 . S
C749 H757 0.929 . S
C750 C749 1.383 . S
C750 C751 1.377 . S
C751 H735 0.930 . S
C751 C750 1.377 . S
C751 C752 1.379 . S
C752 H736 0.931 . S
C752 C746 1.383 . S
C752 C751 1.379 . S
H753 C747 0.959 . S
H754 C747 0.961 . S
H755 C747 0.960 . S
H756 C748 0.930 . S
H757 C749 0.929 . S
H758 C766 0.929 . S
H759 C768 0.930 . S
H760 C770 0.930 . S
H761 C773 0.929 . S
H762 C776 0.930 . S
H763 C778 0.960 . S
H764 C778 0.960 . S
H765 C778 0.960 . S
C766 H758 0.929 . S
C766 C767 1.377 . S
C766 C768 1.384 . S
C767 C766 1.377 . S
C767 C773 1.390 . S
C768 H759 0.930 . S
C768 C766 1.384 . S
C768 C769 1.372 . S
C769 C768 1.372 . S
C769 C770 1.400 . S
C769 C774 1.490 . S
C770 H760 0.930 . S
C770 C769 1.400 . S
C770 C773 1.386 . S
H771 C787 0.930 . S
H772 C788 0.931 . S
C773 H761 0.929 . S
C773 C767 1.390 . S
C773 C770 1.386 . S
C774 C769 1.490 . S
C774 C776 1.395 . S
C774 C777 1.403 . S
H775 C781 0.930 . S
C776 H762 0.930 . S
C776 C774 1.395 . S
C776 C779 1.403 . S
C777 C774 1.403 . S
C777 C778 1.524 . S
C777 C781 1.400 . S
C778 H763 0.960 . S
C778 H764 0.960 . S
C778 H765 0.960 . S
C778 C777 1.524 . S
C779 C776 1.403 . S
C779 C780 1.392 . S
C779 C783 1.495 . S
C780 C779 1.392 . S
C780 C781 1.385 . S
C780 C782 1.478 . S
C781 H775 0.930 . S
C781 C777 1.400 . S
C781 C780 1.385 . S
C782 C780 1.478 . S
C782 C784 1.381 . S
C782 C788 1.383 . S
C783 C779 1.495 . S
C783 H789 0.959 . S
C783 H790 0.961 . S
C783 H791 0.960 . S
C784 C782 1.381 . S
C784 C785 1.394 . S
C784 H792 0.930 . S
C785 C784 1.394 . S
C785 C786 1.383 . S
C785 H793 0.929 . S
C786 C785 1.383 . S
C786 C787 1.377 . S
C787 H771 0.930 . S
C787 C786 1.377 . S
C787 C788 1.379 . S
C788 H772 0.931 . S
C788 C782 1.383 . S
C788 C787 1.379 . S
H789 C783 0.959 . S
H790 C783 0.961 . S
H791 C783 0.960 . S
H792 C784 0.930 . S
H793 C785 0.929 . S
H794 C802 0.929 . S
H795 C804 0.930 . S
H796 C806 0.930 . S
H797 C809 0.929 . S
H798 C812 0.930 . S
H799 C814 0.960 . S
H800 C814 0.960 . S
H801 C814 0.960 . S
C802 H794 0.929 . S
C802 C803 1.377 . S
C802 C804 1.384 . S
C803 C802 1.377 . S
C803 C809 1.390 . S
C804 H795 0.930 . S
C804 C802 1.384 . S
C804 C805 1.372 . S
C805 C804 1.372 . S
C805 C806 1.400 . S
C805 C810 1.490 . S
C806 H796 0.930 . S
C806 C805 1.400 . S
C806 C809 1.386 . S
H807 C823 0.930 . S
H808 C824 0.931 . S
C809 H797 0.929 . S
C809 C803 1.390 . S
C809 C806 1.386 . S
C810 C805 1.490 . S
C810 C812 1.395 . S
C810 C813 1.403 . S
H811 C817 0.930 . S
C812 H798 0.930 . S
C812 C810 1.395 . S
C812 C815 1.403 . S
C813 C810 1.403 . S
C813 C814 1.524 . S
C813 C817 1.400 . S
C814 H799 0.960 . S
C814 H800 0.960 . S
C814 H801 0.960 . S
C814 C813 1.524 . S
C815 C812 1.403 . S
C815 C816 1.392 . S
C815 C819 1.495 . S
C816 C815 1.392 . S
C816 C817 1.385 . S
C816 C818 1.478 . S
C817 H811 0.930 . S
C817 C813 1.400 . S
C817 C816 1.385 . S
C818 C816 1.478 . S
C818 C820 1.381 . S
C818 C824 1.383 . S
C819 C815 1.495 . S
C819 H825 0.959 . S
C819 H826 0.961 . S
C819 H827 0.960 . S
C820 C818 1.381 . S
C820 C821 1.394 . S
C820 H828 0.930 . S
C821 C820 1.394 . S
C821 C822 1.383 . S
C821 H829 0.929 . S
C822 C821 1.383 . S
C822 C823 1.377 . S
C823 H807 0.930 . S
C823 C822 1.377 . S
C823 C824 1.379 . S
C824 H808 0.931 . S
C824 C818 1.383 . S
C824 C823 1.379 . S
H825 C819 0.959 . S
H826 C819 0.961 . S
H827 C819 0.960 . S
H828 C820 0.930 . S
H829 C821 0.929 . S
H830 C838 0.929 . S
H831 C840 0.930 . S
H832 C842 0.930 . S
H833 C845 0.929 . S
H834 C848 0.930 . S
H835 C850 0.960 . S
H836 C850 0.960 . S
H837 C850 0.960 . S
C838 H830 0.929 . S
C838 C839 1.377 . S
C838 C840 1.384 . S
C839 C838 1.377 . S
C839 C845 1.390 . S
C840 H831 0.930 . S
C840 C838 1.384 . S
C840 C841 1.372 . S
C841 C840 1.372 . S
C841 C842 1.400 . S
C841 C846 1.490 . S
C842 H832 0.930 . S
C842 C841 1.400 . S
C842 C845 1.386 . S
H843 C859 0.930 . S
H844 C860 0.931 . S
C845 H833 0.929 . S
C845 C839 1.390 . S
C845 C842 1.386 . S
C846 C841 1.490 . S
C846 C848 1.395 . S
C846 C849 1.403 . S
H847 C853 0.930 . S
C848 H834 0.930 . S
C848 C846 1.395 . S
C848 C851 1.403 . S
C849 C846 1.403 . S
C849 C850 1.524 . S
C849 C853 1.400 . S
C850 H835 0.960 . S
C850 H836 0.960 . S
C850 H837 0.960 . S
C850 C849 1.524 . S
C851 C848 1.403 . S
C851 C852 1.392 . S
C851 C855 1.495 . S
C852 C851 1.392 . S
C852 C853 1.385 . S
C852 C854 1.478 . S
C853 H847 0.930 . S
C853 C849 1.400 . S
C853 C852 1.385 . S
C854 C852 1.478 . S
C854 C856 1.381 . S
C854 C860 1.383 . S
C855 C851 1.495 . S
C855 H861 0.959 . S
C855 H862 0.961 . S
C855 H863 0.960 . S
C856 C854 1.381 . S
C856 C857 1.394 . S
C856 H864 0.930 . S
C857 C856 1.394 . S
C857 C858 1.383 . S
C857 H865 0.958 . S
C858 C857 1.383 . S
C858 C859 1.377 . S
C859 H843 0.930 . S
C859 C858 1.377 . S
C859 C860 1.379 . S
C860 H844 0.931 . S
C860 C854 1.383 . S
C860 C859 1.379 . S
H861 C855 0.959 . S
H862 C855 0.961 . S
H863 C855 0.960 . S
H864 C856 0.930 . S
H865 C857 0.958 . S
H866 C874 0.929 . S
H867 C876 0.930 . S
H868 C878 0.930 . S
H869 C881 0.929 . S
H870 C884 0.930 . S
H871 C886 0.960 . S
H872 C886 0.960 . S
H873 C886 0.960 . S
C874 H866 0.929 . S
C874 C875 1.377 . S
C874 C876 1.384 . S
C875 C874 1.377 . S
C875 C881 1.390 . S
C876 H867 0.930 . S
C876 C874 1.384 . S
C876 C877 1.372 . S
C877 C876 1.372 . S
C877 C878 1.400 . S
C877 C882 1.490 . S
C878 H868 0.930 . S
C878 C877 1.400 . S
C878 C881 1.386 . S
H879 C895 0.930 . S
H880 C896 0.931 . S
C881 H869 0.929 . S
C881 C875 1.390 . S
C881 C878 1.386 . S
C882 C877 1.490 . S
C882 C884 1.395 . S
C882 C885 1.403 . S
H883 C889 0.930 . S
C884 H870 0.930 . S
C884 C882 1.395 . S
C884 C887 1.403 . S
C885 C882 1.403 . S
C885 C886 1.524 . S
C885 C889 1.400 . S
C886 H871 0.960 . S
C886 H872 0.960 . S
C886 H873 0.960 . S
C886 C885 1.524 . S
C887 C884 1.403 . S
C887 C888 1.392 . S
C887 C891 1.495 . S
C888 C887 1.392 . S
C888 C889 1.385 . S
C888 C890 1.478 . S
C889 H883 0.930 . S
C889 C885 1.400 . S
C889 C888 1.385 . S
C890 C888 1.478 . S
C890 C892 1.381 . S
C890 C896 1.383 . S
C891 C887 1.495 . S
C891 H897 0.959 . S
C891 H898 0.961 . S
C891 H899 0.960 . S
C892 C890 1.381 . S
C892 C893 1.394 . S
C892 H900 0.930 . S
C893 C892 1.394 . S
C893 C894 1.383 . S
C893 H901 0.929 . S
C894 C893 1.383 . S
C894 C895 1.377 . S
C895 H879 0.930 . S
C895 C894 1.377 . S
C895 C896 1.379 . S
C896 H880 0.931 . S
C896 C890 1.383 . S
C896 C895 1.379 . S
H897 C891 0.959 . S
H898 C891 0.961 . S
H899 C891 0.960 . S
H900 C892 0.930 . S
H901 C893 0.929 . S
H902 C910 0.929 . S
H903 C912 0.930 . S
H904 C914 0.930 . S
H905 C917 0.929 . S
H906 C920 0.930 . S
H907 C922 0.960 . S
H908 C922 0.960 . S
H909 C922 0.960 . S
C910 H902 0.929 . S
C910 C911 1.377 . S
C910 C912 1.384 . S
C911 C910 1.377 . S
C911 C917 1.390 . S
C912 H903 0.930 . S
C912 C910 1.384 . S
C912 C913 1.372 . S
C913 C912 1.372 . S
C913 C914 1.400 . S
C913 C918 1.490 . S
C914 H904 0.930 . S
C914 C913 1.400 . S
C914 C917 1.386 . S
H915 C931 0.930 . S
H916 C932 0.931 . S
C917 H905 0.929 . S
C917 C911 1.390 . S
C917 C914 1.386 . S
C918 C913 1.490 . S
C918 C920 1.395 . S
C918 C921 1.403 . S
H919 C925 0.930 . S
C920 H906 0.930 . S
C920 C918 1.395 . S
C920 C923 1.403 . S
C921 C918 1.403 . S
C921 C922 1.524 . S
C921 C925 1.400 . S
C922 H907 0.960 . S
C922 H908 0.960 . S
C922 H909 0.960 . S
C922 C921 1.524 . S
C923 C920 1.403 . S
C923 C924 1.392 . S
C923 C927 1.495 . S
C924 C923 1.392 . S
C924 C925 1.385 . S
C924 C926 1.478 . S
C925 H919 0.930 . S
C925 C921 1.400 . S
C925 C924 1.385 . S
C926 C924 1.478 . S
C926 C928 1.381 . S
C926 C932 1.383 . S
C927 C923 1.495 . S
C927 H933 0.959 . S
C927 H934 0.961 . S
C927 H935 0.960 . S
C928 C926 1.381 . S
C928 C929 1.394 . S
C928 H936 0.930 . S
C929 C928 1.394 . S
C929 C930 1.383 . S
C929 H937 0.929 . S
C930 C929 1.383 . S
C930 C931 1.377 . S
C931 H915 0.930 . S
C931 C930 1.377 . S
C931 C932 1.379 . S
C932 H916 0.931 . S
C932 C926 1.383 . S
C932 C931 1.379 . S
H933 C927 0.959 . S
H934 C927 0.961 . S
H935 C927 0.960 . S
H936 C928 0.930 . S
H937 C929 0.929 . S
H938 C946 0.929 . S
H939 C948 0.930 . S
H940 C950 0.930 . S
H941 C953 0.929 . S
H942 C956 0.930 . S
H943 C958 0.960 . S
H944 C958 0.960 . S
H945 C958 0.960 . S
C946 H938 0.929 . S
C946 C947 1.377 . S
C946 C948 1.384 . S
C947 C946 1.377 . S
C947 C953 1.390 . S
C948 H939 0.930 . S
C948 C946 1.384 . S
C948 C949 1.372 . S
C949 C948 1.372 . S
C949 C950 1.400 . S
C949 C954 1.490 . S
C950 H940 0.930 . S
C950 C949 1.400 . S
C950 C953 1.386 . S
H951 C967 0.930 . S
H952 C968 0.931 . S
C953 H941 0.929 . S
C953 C947 1.390 . S
C953 C950 1.386 . S
C954 C949 1.490 . S
C954 C956 1.395 . S
C954 C957 1.403 . S
H955 C961 0.930 . S
C956 H942 0.930 . S
C956 C954 1.395 . S
C956 C959 1.403 . S
C957 C954 1.403 . S
C957 C958 1.524 . S
C957 C961 1.400 . S
C958 H943 0.960 . S
C958 H944 0.960 . S
C958 H945 0.960 . S
C958 C957 1.524 . S
C959 C956 1.403 . S
C959 C960 1.392 . S
C959 C963 1.495 . S
C960 C959 1.392 . S
C960 C961 1.385 . S
C960 C962 1.478 . S
C961 H955 0.930 . S
C961 C957 1.400 . S
C961 C960 1.385 . S
C962 C960 1.478 . S
C962 C964 1.381 . S
C962 C968 1.383 . S
C963 C959 1.495 . S
C963 H969 0.959 . S
C963 H970 0.961 . S
C963 H971 0.960 . S
C964 C962 1.381 . S
C964 C965 1.394 . S
C964 H972 0.930 . S
C965 C964 1.394 . S
C965 C966 1.383 . S
C965 H973 0.929 . S
C966 C965 1.383 . S
C966 C967 1.377 . S
C967 H951 0.930 . S
C967 C966 1.377 . S
C967 C968 1.379 . S
C968 H952 0.931 . S
C968 C962 1.383 . S
C968 C967 1.379 . S
H969 C963 0.959 . S
H970 C963 0.961 . S
H971 C963 0.960 . S
H972 C964 0.930 . S
H973 C965 0.929 . S
H974 C982 0.929 . S
H975 C984 0.930 . S
H976 C986 0.930 . S
H977 C989 0.929 . S
H978 C992 0.930 . S
H979 C994 0.960 . S
H980 C994 0.960 . S
H981 C994 0.960 . S
C982 H974 0.929 . S
C982 C983 1.377 . S
C982 C984 1.384 . S
C983 C982 1.377 . S
C983 C989 1.390 . S
C984 H975 0.930 . S
C984 C982 1.384 . S
C984 C985 1.372 . S
C985 C984 1.372 . S
C985 C986 1.400 . S
C985 C990 1.490 . S
C986 H976 0.930 . S
C986 C985 1.400 . S
C986 C989 1.386 . S
H987 C1003 0.930 . S
H988 C1004 0.931 . S
C989 H977 0.929 . S
C989 C983 1.390 . S
C989 C986 1.386 . S
C990 C985 1.490 . S
C990 C992 1.395 . S
C990 C993 1.403 . S
H991 C997 0.930 . S
C992 H978 0.930 . S
C992 C990 1.395 . S
C992 C995 1.403 . S
C993 C990 1.403 . S
C993 C994 1.524 . S
C993 C997 1.400 . S
C994 H979 0.960 . S
C994 H980 0.960 . S
C994 H981 0.960 . S
C994 C993 1.524 . S
C995 C992 1.403 . S
C995 C996 1.392 . S
C995 C999 1.495 . S
C996 C995 1.392 . S
C996 C997 1.385 . S
C996 C998 1.478 . S
C997 H991 0.930 . S
C997 C993 1.400 . S
C997 C996 1.385 . S
C998 C996 1.478 . S
C998 C1000 1.381 . S
C998 C1004 1.383 . S
C999 C995 1.495 . S
C999 H1005 0.959 . S
C999 H1006 0.961 . S
C999 H1007 0.960 . S
C1000 C998 1.381 . S
C1000 C1001 1.394 . S
C1000 H1008 0.930 . S
C1001 C1000 1.394 . S
C1001 C1002 1.383 . S
C1001 H1009 0.929 . S
C1002 C1001 1.383 . S
C1002 C1003 1.377 . S
C1003 H987 0.930 . S
C1003 C1002 1.377 . S
C1003 C1004 1.379 . S
C1004 H988 0.931 . S
C1004 C998 1.383 . S
C1004 C1003 1.379 . S
H1005 C999 0.959 . S
H1006 C999 0.961 . S
H1007 C999 0.960 . S
H1008 C1000 0.930 . S
H1009 C1001 0.929 . S
H1010 C1018 0.929 . S
H1011 C1020 0.930 . S
H1012 C1022 0.930 . S
H1013 C1025 0.929 . S
H1014 C1028 0.930 . S
H1015 C1030 0.960 . S
H1016 C1030 0.960 . S
H1017 C1030 0.960 . S
C1018 H1010 0.929 . S
C1018 C1019 1.377 . S
C1018 C1020 1.384 . S
C1019 C1018 1.377 . S
C1019 C1025 1.390 . S
C1020 H1011 0.930 . S
C1020 C1018 1.384 . S
C1020 C1021 1.372 . S
C1021 C1020 1.372 . S
C1021 C1022 1.400 . S
C1021 C1026 1.490 . S
C1022 H1012 0.930 . S
C1022 C1021 1.400 . S
C1022 C1025 1.386 . S
H1023 C1039 0.930 . S
H1024 C1040 0.931 . S
C1025 H1013 0.929 . S
C1025 C1019 1.390 . S
C1025 C1022 1.386 . S
C1026 C1021 1.490 . S
C1026 C1028 1.395 . S
C1026 C1029 1.403 . S
H1027 C1033 0.930 . S
C1028 H1014 0.930 . S
C1028 C1026 1.395 . S
C1028 C1031 1.403 . S
C1029 C1026 1.403 . S
C1029 C1030 1.524 . S
C1029 C1033 1.400 . S
C1030 H1015 0.960 . S
C1030 H1016 0.960 . S
C1030 H1017 0.960 . S
C1030 C1029 1.524 . S
C1031 C1028 1.403 . S
C1031 C1032 1.392 . S
C1031 C1035 1.495 . S
C1032 C1031 1.392 . S
C1032 C1033 1.385 . S
C1032 C1034 1.478 . S
C1033 H1027 0.930 . S
C1033 C1029 1.400 . S
C1033 C1032 1.385 . S
C1034 C1032 1.478 . S
C1034 C1036 1.381 . S
C1034 C1040 1.383 . S
C1035 C1031 1.495 . S
C1035 H1041 0.959 . S
C1035 H1042 0.961 . S
C1035 H1043 0.960 . S
C1036 C1034 1.381 . S
C1036 C1037 1.394 . S
C1036 H1044 0.930 . S
C1037 C1036 1.394 . S
C1037 C1038 1.383 . S
C1037 H1045 0.929 . S
C1038 C1037 1.383 . S
C1038 C1039 1.377 . S
C1039 H1023 0.930 . S
C1039 C1038 1.377 . S
C1039 C1040 1.379 . S
C1040 H1024 0.931 . S
C1040 C1034 1.383 . S
C1040 C1039 1.379 . S
H1041 C1035 0.959 . S
H1042 C1035 0.961 . S
H1043 C1035 0.960 . S
H1044 C1036 0.930 . S
H1045 C1037 0.929 . S
H1046 C1054 0.929 . S
H1047 C1056 0.930 . S
H1048 C1058 0.930 . S
H1049 C1061 0.929 . S
H1050 C1064 0.930 . S
H1051 C1066 0.960 . S
H1052 C1066 0.960 . S
H1053 C1066 0.960 . S
C1054 H1046 0.929 . S
C1054 C1055 1.377 . S
C1054 C1056 1.384 . S
C1055 C1054 1.377 . S
C1055 C1061 1.390 . S
C1056 H1047 0.930 . S
C1056 C1054 1.384 . S
C1056 C1057 1.372 . S
C1057 C1056 1.372 . S
C1057 C1058 1.400 . S
C1057 C1062 1.490 . S
C1058 H1048 0.930 . S
C1058 C1057 1.400 . S
C1058 C1061 1.386 . S
H1059 C1075 0.930 . S
H1060 C1076 0.931 . S
C1061 H1049 0.929 . S
C1061 C1055 1.390 . S
C1061 C1058 1.386 . S
C1062 C1057 1.490 . S
C1062 C1064 1.395 . S
C1062 C1065 1.403 . S
H1063 C1069 0.930 . S
C1064 H1050 0.930 . S
C1064 C1062 1.395 . S
C1064 C1067 1.403 . S
C1065 C1062 1.403 . S
C1065 C1066 1.524 . S
C1065 C1069 1.400 . S
C1066 H1051 0.960 . S
C1066 H1052 0.960 . S
C1066 H1053 0.960 . S
C1066 C1065 1.524 . S
C1067 C1064 1.403 . S
C1067 C1068 1.392 . S
C1067 C1071 1.495 . S
C1068 C1067 1.392 . S
C1068 C1069 1.385 . S
C1068 C1070 1.478 . S
C1069 H1063 0.930 . S
C1069 C1065 1.400 . S
C1069 C1068 1.385 . S
C1070 C1068 1.478 . S
C1070 C1072 1.381 . S
C1070 C1076 1.383 . S
C1071 C1067 1.495 . S
C1071 H1077 0.959 . S
C1071 H1078 0.961 . S
C1071 H1079 0.960 . S
C1072 C1070 1.381 . S
C1072 C1073 1.394 . S
C1072 H1080 0.930 . S
C1073 C1072 1.394 . S
C1073 C1074 1.383 . S
C1073 H1081 0.929 . S
C1074 C1073 1.383 . S
C1074 C1075 1.377 . S
C1075 H1059 0.930 . S
C1075 C1074 1.377 . S
C1075 C1076 1.379 . S
C1076 H1060 0.931 . S
C1076 C1070 1.383 . S
C1076 C1075 1.379 . S
H1077 C1071 0.959 . S
H1078 C1071 0.961 . S
H1079 C1071 0.960 . S
H1080 C1072 0.930 . S
H1081 C1073 0.929 . S
H1082 C1090 0.929 . S
H1083 C1092 0.930 . S
H1084 C1094 0.930 . S
H1085 C1097 0.929 . S
H1086 C1100 0.930 . S
H1087 C1102 0.960 . S
H1088 C1102 0.960 . S
H1089 C1102 0.960 . S
C1090 H1082 0.929 . S
C1090 C1091 1.377 . S
C1090 C1092 1.384 . S
C1091 C1090 1.377 . S
C1091 C1097 1.390 . S
C1092 H1083 0.930 . S
C1092 C1090 1.384 . S
C1092 C1093 1.372 . S
C1093 C1092 1.372 . S
C1093 C1094 1.400 . S
C1093 C1098 1.490 . S
C1094 H1084 0.930 . S
C1094 C1093 1.400 . S
C1094 C1097 1.386 . S
H1095 C1111 0.930 . S
H1096 C1112 0.931 . S
C1097 H1085 0.929 . S
C1097 C1091 1.390 . S
C1097 C1094 1.386 . S
C1098 C1093 1.490 . S
C1098 C1100 1.395 . S
C1098 C1101 1.403 . S
H1099 C1105 0.930 . S
C1100 H1086 0.930 . S
C1100 C1098 1.395 . S
C1100 C1103 1.403 . S
C1101 C1098 1.403 . S
C1101 C1102 1.524 . S
C1101 C1105 1.400 . S
C1102 H1087 0.960 . S
C1102 H1088 0.960 . S
C1102 H1089 0.960 . S
C1102 C1101 1.524 . S
C1103 C1100 1.403 . S
C1103 C1104 1.392 . S
C1103 C1107 1.495 . S
C1104 C1103 1.392 . S
C1104 C1105 1.385 . S
C1104 C1106 1.478 . S
C1105 H1099 0.930 . S
C1105 C1101 1.400 . S
C1105 C1104 1.385 . S
C1106 C1104 1.478 . S
C1106 C1108 1.381 . S
C1106 C1112 1.383 . S
C1107 C1103 1.495 . S
C1107 H1113 0.959 . S
C1107 H1114 0.961 . S
C1107 H1115 0.960 . S
C1108 C1106 1.381 . S
C1108 C1109 1.394 . S
C1108 H1116 0.930 . S
C1109 C1108 1.394 . S
C1109 C1110 1.383 . S
C1109 H1117 0.929 . S
C1110 C1109 1.383 . S
C1110 C1111 1.377 . S
C1111 H1095 0.930 . S
C1111 C1110 1.377 . S
C1111 C1112 1.379 . S
C1112 H1096 0.931 . S
C1112 C1106 1.383 . S
C1112 C1111 1.379 . S
H1113 C1107 0.959 . S
H1114 C1107 0.961 . S
H1115 C1107 0.960 . S
H1116 C1108 0.930 . S
H1117 C1109 0.929 . S
H1118 C1126 0.929 . S
H1119 C1128 0.930 . S
H1120 C1130 0.930 . S
H1121 C1133 0.929 . S
H1122 C1136 0.930 . S
H1123 C1138 0.960 . S
H1124 C1138 0.960 . S
H1125 C1138 0.960 . S
C1126 H1118 0.929 . S
C1126 C1127 1.377 . S
C1126 C1128 1.384 . S
C1127 C1126 1.377 . S
C1127 C1133 1.390 . S
C1128 H1119 0.930 . S
C1128 C1126 1.384 . S
C1128 C1129 1.372 . S
C1129 C1128 1.372 . S
C1129 C1130 1.400 . S
C1129 C1134 1.490 . S
C1130 H1120 0.930 . S
C1130 C1129 1.400 . S
C1130 C1133 1.386 . S
H1131 C1147 0.930 . S
H1132 C1148 0.931 . S
C1133 H1121 0.929 . S
C1133 C1127 1.390 . S
C1133 C1130 1.386 . S
C1134 C1129 1.490 . S
C1134 C1136 1.395 . S
C1134 C1137 1.403 . S
H1135 C1141 0.930 . S
C1136 H1122 0.930 . S
C1136 C1134 1.395 . S
C1136 C1139 1.403 . S
C1137 C1134 1.403 . S
C1137 C1138 1.524 . S
C1137 C1141 1.400 . S
C1138 H1123 0.960 . S
C1138 H1124 0.960 . S
C1138 H1125 0.960 . S
C1138 C1137 1.524 . S
C1139 C1136 1.403 . S
C1139 C1140 1.392 . S
C1139 C1143 1.495 . S
C1140 C1139 1.392 . S
C1140 C1141 1.385 . S
C1140 C1142 1.478 . S
C1141 H1135 0.930 . S
C1141 C1137 1.400 . S
C1141 C1140 1.385 . S
C1142 C1140 1.478 . S
C1142 C1144 1.381 . S
C1142 C1148 1.383 . S
C1143 C1139 1.495 . S
C1143 H1149 0.959 . S
C1143 H1150 0.961 . S
C1143 H1151 0.960 . S
C1144 C1142 1.381 . S
C1144 C1145 1.394 . S
C1144 H1152 0.930 . S
C1145 C1144 1.394 . S
C1145 C1146 1.383 . S
C1145 H1153 0.929 . S
C1146 C1145 1.383 . S
C1146 C1147 1.377 . S
C1147 H1131 0.930 . S
C1147 C1146 1.377 . S
C1147 C1148 1.379 . S
C1148 H1132 0.931 . S
C1148 C1142 1.383 . S
C1148 C1147 1.379 . S
H1149 C1143 0.959 . S
H1150 C1143 0.961 . S
H1151 C1143 0.960 . S
H1152 C1144 0.930 . S
H1153 C1145 0.929 . S
H1154 C1162 0.929 . S
H1155 C1164 0.930 . S
H1156 C1166 0.930 . S
H1157 C1169 0.929 . S
H1158 C1172 0.930 . S
H1159 C1174 0.960 . S
H1160 C1174 0.960 . S
H1161 C1174 0.960 . S
C1162 H1154 0.929 . S
C1162 C1163 1.377 . S
C1162 C1164 1.384 . S
C1163 C1162 1.377 . S
C1163 C1169 1.390 . S
C1164 H1155 0.930 . S
C1164 C1162 1.384 . S
C1164 C1165 1.372 . S
C1165 C1164 1.372 . S
C1165 C1166 1.400 . S
C1165 C1170 1.490 . S
C1166 H1156 0.930 . S
C1166 C1165 1.400 . S
C1166 C1169 1.386 . S
H1167 C1183 0.900 1_554 S
H1168 C1184 0.931 . S
C1169 H1157 0.929 . S
C1169 C1163 1.390 . S
C1169 C1166 1.386 . S
C1170 C1165 1.490 . S
C1170 C1172 1.395 . S
C1170 C1173 1.403 . S
H1171 C1177 0.930 . S
C1172 H1158 0.930 . S
C1172 C1170 1.395 . S
C1172 C1175 1.403 . S
C1173 C1170 1.403 . S
C1173 C1174 1.524 . S
C1173 C1177 1.400 . S
C1174 H1159 0.960 . S
C1174 H1160 0.960 . S
C1174 H1161 0.960 . S
C1174 C1173 1.524 . S
C1175 C1172 1.403 . S
C1175 C1176 1.392 . S
C1175 C1179 1.495 . S
C1176 C1175 1.392 . S
C1176 C1177 1.385 . S
C1176 C1178 1.478 . S
C1177 H1171 0.930 . S
C1177 C1173 1.400 . S
C1177 C1176 1.385 . S
C1178 C1176 1.478 . S
C1178 C1180 1.381 . S
C1178 C1184 1.383 . S
C1179 C1175 1.495 . S
C1179 H1185 0.959 . S
C1179 H1186 0.961 . S
C1179 H1187 0.960 . S
C1180 C1178 1.381 . S
C1180 C1181 1.394 . S
C1180 H1188 0.930 . S
C1181 C1180 1.394 . S
C1181 C1182 1.383 . S
C1181 H1189 0.929 . S
C1182 C1181 1.383 . S
C1182 C1183 1.377 . S
C1183 H1167 0.900 1_556 S
C1183 C1182 1.377 . S
C1183 C1184 1.379 . S
C1184 H1168 0.931 . S
C1184 C1178 1.383 . S
C1184 C1183 1.379 . S
H1185 C1179 0.959 . S
H1186 C1179 0.961 . S
H1187 C1179 0.960 . S
H1188 C1180 0.930 . S
H1189 C1181 0.929 . S
H1190 C1198 0.929 . S
H1191 C1200 0.930 . S
H1192 C1202 0.930 . S
H1193 C1205 0.929 . S
H1194 C1208 0.930 . S
H1195 C1210 0.960 . S
H1196 C1210 0.960 . S
H1197 C1210 0.960 . S
C1198 H1190 0.929 . S
C1198 C1199 1.377 . S
C1198 C1200 1.384 . S
C1199 C1198 1.377 . S
C1199 C1205 1.390 . S
C1200 H1191 0.930 . S
C1200 C1198 1.384 . S
C1200 C1201 1.372 . S
C1201 C1200 1.372 . S
C1201 C1202 1.400 . S
C1201 C1206 1.490 . S
C1202 H1192 0.930 . S
C1202 C1201 1.400 . S
C1202 C1205 1.386 . S
H1203 C1219 0.930 . S
H1204 C1220 0.931 . S
C1205 H1193 0.929 . S
C1205 C1199 1.390 . S
C1205 C1202 1.386 . S
C1206 C1201 1.490 . S
C1206 C1208 1.395 . S
C1206 C1209 1.403 . S
H1207 C1213 0.930 . S
C1208 H1194 0.930 . S
C1208 C1206 1.395 . S
C1208 C1211 1.403 . S
C1209 C1206 1.403 . S
C1209 C1210 1.524 . S
C1209 C1213 1.400 . S
C1210 H1195 0.960 . S
C1210 H1196 0.960 . S
C1210 H1197 0.960 . S
C1210 C1209 1.524 . S
C1211 C1208 1.403 . S
C1211 C1212 1.392 . S
C1211 C1215 1.495 . S
C1212 C1211 1.392 . S
C1212 C1213 1.385 . S
C1212 C1214 1.478 . S
C1213 H1207 0.930 . S
C1213 C1209 1.400 . S
C1213 C1212 1.385 . S
C1214 C1212 1.478 . S
C1214 C1216 1.381 . S
C1214 C1220 1.383 . S
C1215 C1211 1.495 . S
C1215 H1221 0.959 . S
C1215 H1222 0.961 . S
C1215 H1223 0.960 . S
C1216 C1214 1.381 . S
C1216 C1217 1.394 . S
C1216 H1224 0.930 . S
C1217 C1216 1.394 . S
C1217 C1218 1.383 . S
C1217 H1225 0.929 . S
C1218 C1217 1.383 . S
C1218 C1219 1.377 . S
C1219 H1203 0.930 . S
C1219 C1218 1.377 . S
C1219 C1220 1.379 . S
C1220 H1204 0.931 . S
C1220 C1214 1.383 . S
C1220 C1219 1.379 . S
H1221 C1215 0.959 . S
H1222 C1215 0.961 . S
H1223 C1215 0.960 . S
H1224 C1216 0.930 . S
H1225 C1217 0.929 . S
H1226 C1234 0.929 . S
H1227 C1236 0.930 . S
H1228 C1238 0.930 . S
H1229 C1241 0.929 . S
H1230 C1244 0.930 . S
H1231 C1246 0.960 . S
H1232 C1246 0.960 . S
H1233 C1246 0.960 . S
C1234 H1226 0.929 . S
C1234 C1235 1.377 . S
C1234 C1236 1.384 . S
C1235 C1234 1.377 . S
C1235 C1241 1.390 . S
C1236 H1227 0.930 . S
C1236 C1234 1.384 . S
C1236 C1237 1.372 . S
C1237 C1236 1.372 . S
C1237 C1238 1.400 . S
C1237 C1242 1.490 . S
C1238 H1228 0.930 . S
C1238 C1237 1.400 . S
C1238 C1241 1.386 . S
H1239 C1255 0.930 . S
H1240 C1256 0.931 . S
C1241 H1229 0.929 . S
C1241 C1235 1.390 . S
C1241 C1238 1.386 . S
C1242 C1237 1.490 . S
C1242 C1244 1.395 . S
C1242 C1245 1.403 . S
H1243 C1249 0.930 . S
C1244 H1230 0.930 . S
C1244 C1242 1.395 . S
C1244 C1247 1.403 . S
C1245 C1242 1.403 . S
C1245 C1246 1.524 . S
C1245 C1249 1.400 . S
C1246 H1231 0.960 . S
C1246 H1232 0.960 . S
C1246 H1233 0.960 . S
C1246 C1245 1.524 . S
C1247 C1244 1.403 . S
C1247 C1248 1.392 . S
C1247 C1251 1.495 . S
C1248 C1247 1.392 . S
C1248 C1249 1.385 . S
C1248 C1250 1.478 . S
C1249 H1243 0.930 . S
C1249 C1245 1.400 . S
C1249 C1248 1.385 . S
C1250 C1248 1.478 . S
C1250 C1252 1.381 . S
C1250 C1256 1.383 . S
C1251 C1247 1.495 . S
C1251 H1257 0.959 . S
C1251 H1258 0.961 . S
C1251 H1259 0.960 . S
C1252 C1250 1.381 . S
C1252 C1253 1.394 . S
C1252 H1260 0.930 . S
C1253 C1252 1.394 . S
C1253 C1254 1.383 . S
C1253 H1261 0.929 . S
C1254 C1253 1.383 . S
C1254 C1255 1.377 . S
C1255 H1239 0.930 . S
C1255 C1254 1.377 . S
C1255 C1256 1.379 . S
C1256 H1240 0.931 . S
C1256 C1250 1.383 . S
C1256 C1255 1.379 . S
H1257 C1251 0.959 . S
H1258 C1251 0.961 . S
H1259 C1251 0.960 . S
H1260 C1252 0.930 . S
H1261 C1253 0.929 . S
H1262 C1270 0.929 . S
H1263 C1272 0.930 . S
H1264 C1274 0.930 . S
H1265 C1277 0.929 . S
H1266 C1280 0.930 . S
H1267 C1282 0.960 . S
H1268 C1282 0.960 . S
H1269 C1282 0.960 . S
C1270 H1262 0.929 . S
C1270 C1271 1.377 . S
C1270 C1272 1.384 . S
C1271 C1270 1.377 . S
C1271 C1277 1.390 . S
C1272 H1263 0.930 . S
C1272 C1270 1.384 . S
C1272 C1273 1.372 . S
C1273 C1272 1.372 . S
C1273 C1274 1.400 . S
C1273 C1278 1.490 . S
C1274 H1264 0.930 . S
C1274 C1273 1.400 . S
C1274 C1277 1.386 . S
H1275 C1291 0.930 . S
H1276 C1292 0.931 . S
C1277 H1265 0.929 . S
C1277 C1271 1.390 . S
C1277 C1274 1.386 . S
C1278 C1273 1.490 . S
C1278 C1280 1.395 . S
C1278 C1281 1.403 . S
H1279 C1285 0.930 . S
C1280 H1266 0.930 . S
C1280 C1278 1.395 . S
C1280 C1283 1.403 . S
C1281 C1278 1.403 . S
C1281 C1282 1.524 . S
C1281 C1285 1.400 . S
C1282 H1267 0.960 . S
C1282 H1268 0.960 . S
C1282 H1269 0.960 . S
C1282 C1281 1.524 . S
C1283 C1280 1.403 . S
C1283 C1284 1.392 . S
C1283 C1287 1.495 . S
C1284 C1283 1.392 . S
C1284 C1285 1.385 . S
C1284 C1286 1.478 . S
C1285 H1279 0.930 . S
C1285 C1281 1.400 . S
C1285 C1284 1.385 . S
C1286 C1284 1.478 . S
C1286 C1288 1.381 . S
C1286 C1292 1.383 . S
C1287 C1283 1.495 . S
C1287 H1293 0.959 . S
C1287 H1294 0.961 . S
C1287 H1295 0.960 . S
C1288 C1286 1.381 . S
C1288 C1289 1.394 . S
C1288 H1296 0.930 . S
C1289 C1288 1.394 . S
C1289 C1290 1.383 . S
C1289 H1297 0.929 . S
C1290 C1289 1.383 . S
C1290 C1291 1.377 . S
C1291 H1275 0.930 . S
C1291 C1290 1.377 . S
C1291 C1292 1.379 . S
C1292 H1276 0.931 . S
C1292 C1286 1.383 . S
C1292 C1291 1.379 . S
H1293 C1287 0.959 . S
H1294 C1287 0.961 . S
H1295 C1287 0.960 . S
H1296 C1288 0.930 . S
H1297 C1289 0.929 . S
H1298 C1306 0.929 . S
H1299 C1308 0.930 . S
H1300 C1310 0.930 . S
H1301 C1313 0.929 . S
H1302 C1316 0.930 . S
H1303 C1318 0.960 . S
H1304 C1318 0.960 . S
H1305 C1318 0.960 . S
C1306 H1298 0.929 . S
C1306 C1307 1.377 . S
C1306 C1308 1.384 . S
C1307 C1306 1.377 . S
C1307 C1313 1.390 . S
C1308 H1299 0.930 . S
C1308 C1306 1.384 . S
C1308 C1309 1.372 . S
C1309 C1308 1.372 . S
C1309 C1310 1.400 . S
C1309 C1314 1.490 . S
C1310 H1300 0.930 . S
C1310 C1309 1.400 . S
C1310 C1313 1.386 . S
H1311 C1327 0.930 . S
H1312 C1328 0.931 . S
C1313 H1301 0.929 . S
C1313 C1307 1.390 . S
C1313 C1310 1.386 . S
C1314 C1309 1.490 . S
C1314 C1316 1.395 . S
C1314 C1317 1.403 . S
H1315 C1321 0.930 . S
C1316 H1302 0.930 . S
C1316 C1314 1.395 . S
C1316 C1319 1.403 . S
C1317 C1314 1.403 . S
C1317 C1318 1.524 . S
C1317 C1321 1.400 . S
C1318 H1303 0.960 . S
C1318 H1304 0.960 . S
C1318 H1305 0.960 . S
C1318 C1317 1.524 . S
C1319 C1316 1.403 . S
C1319 C1320 1.392 . S
C1319 C1323 1.495 . S
C1320 C1319 1.392 . S
C1320 C1321 1.385 . S
C1320 C1322 1.478 . S
C1321 H1315 0.930 . S
C1321 C1317 1.400 . S
C1321 C1320 1.385 . S
C1322 C1320 1.478 . S
C1322 C1324 1.381 . S
C1322 C1328 1.383 . S
C1323 C1319 1.495 . S
C1323 H1329 0.959 . S
C1323 H1330 0.961 . S
C1323 H1331 0.960 . S
C1324 C1322 1.381 . S
C1324 C1325 1.394 . S
C1324 H1332 0.930 . S
C1325 C1324 1.394 . S
C1325 C1326 1.383 . S
C1325 H1333 0.929 . S
C1326 C1325 1.383 . S
C1326 C1327 1.377 . S
C1327 H1311 0.930 . S
C1327 C1326 1.377 . S
C1327 C1328 1.379 . S
C1328 H1312 0.931 . S
C1328 C1322 1.383 . S
C1328 C1327 1.379 . S
H1329 C1323 0.959 . S
H1330 C1323 0.961 . S
H1331 C1323 0.960 . S
H1332 C1324 0.930 . S
H1333 C1325 0.929 . S
H1334 C1342 0.929 . S
H1335 C1344 0.930 . S
H1336 C1346 0.930 . S
H1337 C1349 0.929 . S
H1338 C1352 0.930 . S
H1339 C1354 0.960 . S
H1340 C1354 0.960 . S
H1341 C1354 0.960 . S
C1342 H1334 0.929 . S
C1342 C1343 1.377 . S
C1342 C1344 1.384 . S
C1343 C1342 1.377 . S
C1343 C1349 1.390 . S
C1344 H1335 0.930 . S
C1344 C1342 1.384 . S
C1344 C1345 1.372 . S
C1345 C1344 1.372 . S
C1345 C1346 1.400 . S
C1345 C1350 1.490 . S
C1346 H1336 0.930 . S
C1346 C1345 1.400 . S
C1346 C1349 1.386 . S
H1347 C1363 0.930 . S
H1348 C1364 0.931 . S
C1349 H1337 0.929 . S
C1349 C1343 1.390 . S
C1349 C1346 1.386 . S
C1350 C1345 1.490 . S
C1350 C1352 1.395 . S
C1350 C1353 1.403 . S
H1351 C1357 0.930 . S
C1352 H1338 0.930 . S
C1352 C1350 1.395 . S
C1352 C1355 1.403 . S
C1353 C1350 1.403 . S
C1353 C1354 1.524 . S
C1353 C1357 1.400 . S
C1354 H1339 0.960 . S
C1354 H1340 0.960 . S
C1354 H1341 0.960 . S
C1354 C1353 1.524 . S
C1355 C1352 1.403 . S
C1355 C1356 1.392 . S
C1355 C1359 1.495 . S
C1356 C1355 1.392 . S
C1356 C1357 1.385 . S
C1356 C1358 1.478 . S
C1357 H1351 0.930 . S
C1357 C1353 1.400 . S
C1357 C1356 1.385 . S
C1358 C1356 1.478 . S
C1358 C1360 1.381 . S
C1358 C1364 1.383 . S
C1359 C1355 1.495 . S
C1359 H1365 0.959 . S
C1359 H1366 0.961 . S
C1359 H1367 0.960 . S
C1360 C1358 1.381 . S
C1360 C1361 1.394 . S
C1360 H1368 0.930 . S
C1361 C1360 1.394 . S
C1361 C1362 1.383 . S
C1361 H1369 0.929 . S
C1362 C1361 1.383 . S
C1362 C1363 1.377 . S
C1363 H1347 0.930 . S
C1363 C1362 1.377 . S
C1363 C1364 1.379 . S
C1364 H1348 0.931 . S
C1364 C1358 1.383 . S
C1364 C1363 1.379 . S
H1365 C1359 0.959 . S
H1366 C1359 0.961 . S
H1367 C1359 0.960 . S
H1368 C1360 0.930 . S
H1369 C1361 0.929 . S
H1370 C1378 0.929 . S
H1371 C1380 0.930 . S
H1372 C1382 0.930 . S
H1373 C1385 0.929 . S
H1374 C1388 0.930 . S
H1375 C1390 0.960 . S
H1376 C1390 0.960 . S
H1377 C1390 0.960 . S
C1378 H1370 0.929 . S
C1378 C1379 1.377 . S
C1378 C1380 1.384 . S
C1379 C1378 1.377 . S
C1379 C1385 1.390 . S
C1380 H1371 0.930 . S
C1380 C1378 1.384 . S
C1380 C1381 1.372 . S
C1381 C1380 1.372 . S
C1381 C1382 1.400 . S
C1381 C1386 1.490 . S
C1382 H1372 0.930 . S
C1382 C1381 1.400 . S
C1382 C1385 1.386 . S
H1383 C1399 0.930 . S
H1384 C1400 0.931 . S
C1385 H1373 0.929 . S
C1385 C1379 1.390 . S
C1385 C1382 1.386 . S
C1386 C1381 1.490 . S
C1386 C1388 1.395 . S
C1386 C1389 1.403 . S
H1387 C1393 0.930 . S
C1388 H1374 0.930 . S
C1388 C1386 1.395 . S
C1388 C1391 1.403 . S
C1389 C1386 1.403 . S
C1389 C1390 1.524 . S
C1389 C1393 1.400 . S
C1390 H1375 0.960 . S
C1390 H1376 0.960 . S
C1390 H1377 0.960 . S
C1390 C1389 1.524 . S
C1391 C1388 1.403 . S
C1391 C1392 1.392 . S
C1391 C1395 1.495 . S
C1392 C1391 1.392 . S
C1392 C1393 1.385 . S
C1392 C1394 1.478 . S
C1393 H1387 0.930 . S
C1393 C1389 1.400 . S
C1393 C1392 1.385 . S
C1394 C1392 1.478 . S
C1394 C1396 1.381 . S
C1394 C1400 1.383 . S
C1395 C1391 1.495 . S
C1395 H1401 0.959 . S
C1395 H1402 0.961 . S
C1395 H1403 0.960 . S
C1396 C1394 1.381 . S
C1396 C1397 1.394 . S
C1396 H1404 0.930 . S
C1397 C1396 1.394 . S
C1397 C1398 1.383 . S
C1397 H1405 0.929 . S
C1398 C1397 1.383 . S
C1398 C1399 1.377 . S
C1399 H1383 0.930 . S
C1399 C1398 1.377 . S
C1399 C1400 1.379 . S
C1400 H1384 0.931 . S
C1400 C1394 1.383 . S
C1400 C1399 1.379 . S
H1401 C1395 0.959 . S
H1402 C1395 0.961 . S
H1403 C1395 0.960 . S
H1404 C1396 0.930 . S
H1405 C1397 0.929 . S
H1406 C1414 0.929 . S
H1407 C1416 0.930 . S
H1408 C1418 0.930 . S
H1409 C1421 0.929 . S
H1410 C1424 0.930 . S
H1411 C1426 0.960 . S
H1412 C1426 0.960 . S
H1413 C1426 0.960 . S
C1414 H1406 0.929 . S
C1414 C1415 1.377 . S
C1414 C1416 1.384 . S
C1415 C1414 1.377 . S
C1415 C1421 1.390 . S
C1416 H1407 0.930 . S
C1416 C1414 1.384 . S
C1416 C1417 1.372 . S
C1417 C1416 1.372 . S
C1417 C1418 1.400 . S
C1417 C1422 1.490 . S
C1418 H1408 0.930 . S
C1418 C1417 1.400 . S
C1418 C1421 1.386 . S
H1419 C1435 0.930 . S
H1420 C1436 0.931 . S
C1421 H1409 0.929 . S
C1421 C1415 1.390 . S
C1421 C1418 1.386 . S
C1422 C1417 1.490 . S
C1422 C1424 1.395 . S
C1422 C1425 1.403 . S
H1423 C1429 0.930 . S
C1424 H1410 0.930 . S
C1424 C1422 1.395 . S
C1424 C1427 1.403 . S
C1425 C1422 1.403 . S
C1425 C1426 1.524 . S
C1425 C1429 1.400 . S
C1426 H1411 0.960 . S
C1426 H1412 0.960 . S
C1426 H1413 0.960 . S
C1426 C1425 1.524 . S
C1427 C1424 1.403 . S
C1427 C1428 1.392 . S
C1427 C1431 1.495 . S
C1428 C1427 1.392 . S
C1428 C1429 1.385 . S
C1428 C1430 1.478 . S
C1429 H1423 0.930 . S
C1429 C1425 1.400 . S
C1429 C1428 1.385 . S
C1430 C1428 1.478 . S
C1430 C1432 1.381 . S
C1430 C1436 1.383 . S
C1431 C1427 1.495 . S
C1431 H1437 0.959 . S
C1431 H1438 0.961 . S
C1431 H1439 0.960 . S
C1432 C1430 1.381 . S
C1432 C1433 1.394 . S
C1432 H1440 0.930 . S
C1433 C1432 1.394 . S
C1433 C1434 1.383 . S
C1433 H1441 0.929 . S
C1434 C1433 1.383 . S
C1434 C1435 1.377 . S
C1435 H1419 0.930 . S
C1435 C1434 1.377 . S
C1435 C1436 1.379 . S
C1436 H1420 0.931 . S
C1436 C1430 1.383 . S
C1436 C1435 1.379 . S
H1437 C1431 0.959 . S
H1438 C1431 0.961 . S
H1439 C1431 0.960 . S
H1440 C1432 0.930 . S
H1441 C1433 0.929 . S
H1442 C1450 0.929 . S
H1443 C1452 0.930 . S
H1444 C1454 0.930 . S
H1445 C1457 0.929 . S
H1446 C1460 0.930 . S
H1447 C1462 0.960 . S
H1448 C1462 0.960 . S
H1449 C1462 0.960 . S
C1450 H1442 0.929 . S
C1450 C1451 1.377 . S
C1450 C1452 1.384 . S
C1451 C1450 1.377 . S
C1451 C1457 1.390 . S
C1452 H1443 0.930 . S
C1452 C1450 1.384 . S
C1452 C1453 1.372 . S
C1453 C1452 1.372 . S
C1453 C1454 1.400 . S
C1453 C1458 1.490 . S
C1454 H1444 0.930 . S
C1454 C1453 1.400 . S
C1454 C1457 1.386 . S
H1455 C1471 0.930 . S
H1456 C1472 0.931 . S
C1457 H1445 0.929 . S
C1457 C1451 1.390 . S
C1457 C1454 1.386 . S
C1458 C1453 1.490 . S
C1458 C1460 1.395 . S
C1458 C1461 1.403 . S
H1459 C1465 0.930 . S
C1460 H1446 0.930 . S
C1460 C1458 1.395 . S
C1460 C1463 1.403 . S
C1461 C1458 1.403 . S
C1461 C1462 1.524 . S
C1461 C1465 1.400 . S
C1462 H1447 0.960 . S
C1462 H1448 0.960 . S
C1462 H1449 0.960 . S
C1462 C1461 1.524 . S
C1463 C1460 1.403 . S
C1463 C1464 1.392 . S
C1463 C1467 1.495 . S
C1464 C1463 1.392 . S
C1464 C1465 1.385 . S
C1464 C1466 1.478 . S
C1465 H1459 0.930 . S
C1465 C1461 1.400 . S
C1465 C1464 1.385 . S
C1466 C1464 1.478 . S
C1466 C1468 1.381 . S
C1466 C1472 1.383 . S
C1467 C1463 1.495 . S
C1467 H1473 0.959 . S
C1467 H1474 0.961 . S
C1467 H1475 0.960 . S
C1468 C1466 1.381 . S
C1468 C1469 1.394 . S
C1468 H1476 0.930 . S
C1469 C1468 1.394 . S
C1469 C1470 1.383 . S
C1469 H1477 0.929 . S
C1470 C1469 1.383 . S
C1470 C1471 1.377 . S
C1471 H1455 0.930 . S
C1471 C1470 1.377 . S
C1471 C1472 1.379 . S
C1472 H1456 0.931 . S
C1472 C1466 1.383 . S
C1472 C1471 1.379 . S
H1473 C1467 0.959 . S
H1474 C1467 0.961 . S
H1475 C1467 0.960 . S
H1476 C1468 0.930 . S
H1477 C1469 0.929 . S
H1478 C1486 0.929 . S
H1479 C1488 0.930 . S
H1480 C1490 0.930 . S
H1481 C1493 0.929 . S
H1482 C1496 0.930 . S
H1483 C1498 0.960 . S
H1484 C1498 0.960 . S
H1485 C1498 0.960 . S
C1486 H1478 0.929 . S
C1486 C1487 1.377 . S
C1486 C1488 1.384 . S
C1487 C1486 1.377 . S
C1487 C1493 1.390 . S
C1488 H1479 0.930 . S
C1488 C1486 1.384 . S
C1488 C1489 1.372 . S
C1489 C1488 1.372 . S
C1489 C1490 1.400 . S
C1489 C1494 1.490 . S
C1490 H1480 0.930 . S
C1490 C1489 1.400 . S
C1490 C1493 1.386 . S
H1491 C1507 0.930 . S
H1492 C1508 0.931 . S
C1493 H1481 0.929 . S
C1493 C1487 1.390 . S
C1493 C1490 1.386 . S
C1494 C1489 1.490 . S
C1494 C1496 1.395 . S
C1494 C1497 1.403 . S
H1495 C1501 0.930 . S
C1496 H1482 0.930 . S
C1496 C1494 1.395 . S
C1496 C1499 1.403 . S
C1497 C1494 1.403 . S
C1497 C1498 1.524 . S
C1497 C1501 1.400 . S
C1498 H1483 0.960 . S
C1498 H1484 0.960 . S
C1498 H1485 0.960 . S
C1498 C1497 1.524 . S
C1499 C1496 1.403 . S
C1499 C1500 1.392 . S
C1499 C1503 1.495 . S
C1500 C1499 1.392 . S
C1500 C1501 1.385 . S
C1500 C1502 1.478 . S
C1501 H1495 0.930 . S
C1501 C1497 1.400 . S
C1501 C1500 1.385 . S
C1502 C1500 1.478 . S
C1502 C1504 1.381 . S
C1502 C1508 1.383 . S
C1503 C1499 1.495 . S
C1503 H1509 0.959 . S
C1503 H1510 0.961 . S
C1503 H1511 0.960 . S
C1504 C1502 1.381 . S
C1504 C1505 1.394 . S
C1504 H1512 0.930 . S
C1505 C1504 1.394 . S
C1505 C1506 1.383 . S
C1505 H1513 0.929 . S
C1506 C1505 1.383 . S
C1506 C1507 1.377 . S
C1507 H1491 0.930 . S
C1507 C1506 1.377 . S
C1507 C1508 1.379 . S
C1508 H1492 0.931 . S
C1508 C1502 1.383 . S
C1508 C1507 1.379 . S
H1509 C1503 0.959 . S
H1510 C1503 0.961 . S
H1511 C1503 0.960 . S
H1512 C1504 0.930 . S
H1513 C1505 0.929 . S
H1514 C1522 0.929 . S
H1515 C1524 0.930 . S
H1516 C1526 0.930 . S
H1517 C1529 0.929 . S
H1518 C1532 0.930 . S
H1519 C1534 0.960 . S
H1520 C1534 0.960 . S
H1521 C1534 0.960 . S
C1522 H1514 0.929 . S
C1522 C1523 1.377 . S
C1522 C1524 1.384 . S
C1523 C1522 1.377 . S
C1523 C1529 1.390 . S
C1524 H1515 0.930 . S
C1524 C1522 1.384 . S
C1524 C1525 1.372 . S
C1525 C1524 1.372 . S
C1525 C1526 1.400 . S
C1525 C1530 1.490 . S
C1526 H1516 0.930 . S
C1526 C1525 1.400 . S
C1526 C1529 1.386 . S
H1527 C1543 0.930 . S
H1528 C1544 0.931 . S
C1529 H1517 0.929 . S
C1529 C1523 1.390 . S
C1529 C1526 1.386 . S
C1530 C1525 1.490 . S
C1530 C1532 1.395 . S
C1530 C1533 1.403 . S
H1531 C1537 0.930 . S
C1532 H1518 0.930 . S
C1532 C1530 1.395 . S
C1532 C1535 1.403 . S
C1533 C1530 1.403 . S
C1533 C1534 1.524 . S
C1533 C1537 1.400 . S
C1534 H1519 0.960 . S
C1534 H1520 0.960 . S
C1534 H1521 0.960 . S
C1534 C1533 1.524 . S
C1535 C1532 1.403 . S
C1535 C1536 1.392 . S
C1535 C1539 1.495 . S
C1536 C1535 1.392 . S
C1536 C1537 1.385 . S
C1536 C1538 1.478 . S
C1537 H1531 0.930 . S
C1537 C1533 1.400 . S
C1537 C1536 1.385 . S
C1538 C1536 1.478 . S
C1538 C1540 1.381 . S
C1538 C1544 1.383 . S
C1539 C1535 1.495 . S
C1539 H1545 0.959 . S
C1539 H1546 0.961 . S
C1539 H1547 0.960 . S
C1540 C1538 1.381 . S
C1540 C1541 1.394 . S
C1540 H1548 0.930 . S
C1541 C1540 1.394 . S
C1541 C1542 1.383 . S
C1541 H1549 0.929 . S
C1542 C1541 1.383 . S
C1542 C1543 1.377 . S
C1543 H1527 0.930 . S
C1543 C1542 1.377 . S
C1543 C1544 1.379 . S
C1544 H1528 0.931 . S
C1544 C1538 1.383 . S
C1544 C1543 1.379 . S
H1545 C1539 0.959 . S
H1546 C1539 0.961 . S
H1547 C1539 0.960 . S
H1548 C1540 0.930 . S
H1549 C1541 0.929 . S
H1550 C1558 0.929 . S
H1551 C1560 0.930 . S
H1552 C1562 0.930 . S
H1553 C1565 0.929 . S
H1554 C1568 0.930 . S
H1555 C1570 0.960 . S
H1556 C1570 0.960 . S
H1557 C1570 0.960 . S
C1558 H1550 0.929 . S
C1558 C1559 1.377 . S
C1558 C1560 1.384 . S
C1559 C1558 1.377 . S
C1559 C1565 1.390 . S
C1560 H1551 0.930 . S
C1560 C1558 1.384 . S
C1560 C1561 1.372 . S
C1561 C1560 1.372 . S
C1561 C1562 1.400 . S
C1561 C1566 1.490 . S
C1562 H1552 0.930 . S
C1562 C1561 1.400 . S
C1562 C1565 1.386 . S
H1563 C1579 0.930 . S
H1564 C1580 0.931 . S
C1565 H1553 0.929 . S
C1565 C1559 1.390 . S
C1565 C1562 1.386 . S
C1566 C1561 1.490 . S
C1566 C1568 1.395 . S
C1566 C1569 1.403 . S
H1567 C1573 0.930 . S
C1568 H1554 0.930 . S
C1568 C1566 1.395 . S
C1568 C1571 1.403 . S
C1569 C1566 1.403 . S
C1569 C1570 1.524 . S
C1569 C1573 1.400 . S
C1570 H1555 0.960 . S
C1570 H1556 0.960 . S
C1570 H1557 0.960 . S
C1570 C1569 1.524 . S
C1571 C1568 1.403 . S
C1571 C1572 1.392 . S
C1571 C1575 1.495 . S
C1572 C1571 1.392 . S
C1572 C1573 1.385 . S
C1572 C1574 1.478 . S
C1573 H1567 0.930 . S
C1573 C1569 1.400 . S
C1573 C1572 1.385 . S
C1574 C1572 1.478 . S
C1574 C1576 1.381 . S
C1574 C1580 1.383 . S
C1575 C1571 1.495 . S
C1575 H1581 0.959 . S
C1575 H1582 0.961 . S
C1575 H1583 0.960 . S
C1576 C1574 1.381 . S
C1576 C1577 1.394 . S
C1576 H1584 0.930 . S
C1577 C1576 1.394 . S
C1577 C1578 1.383 . S
C1577 H1585 0.929 . S
C1578 C1577 1.383 . S
C1578 C1579 1.377 . S
C1579 H1563 0.930 . S
C1579 C1578 1.377 . S
C1579 C1580 1.379 . S
C1580 H1564 0.931 . S
C1580 C1574 1.383 . S
C1580 C1579 1.379 . S
H1581 C1575 0.959 . S
H1582 C1575 0.961 . S
H1583 C1575 0.960 . S
H1584 C1576 0.930 . S
H1585 C1577 0.929 . S
H1586 C1594 0.929 . S
H1587 C1596 0.930 . S
H1588 C1598 0.930 . S
H1589 C1601 0.929 . S
H1590 C1604 0.930 . S
H1591 C1606 0.960 . S
H1592 C1606 0.960 . S
H1593 C1606 0.960 . S
C1594 H1586 0.929 . S
C1594 C1595 1.377 . S
C1594 C1596 1.384 . S
C1595 C1594 1.377 . S
C1595 C1601 1.390 . S
C1596 H1587 0.930 . S
C1596 C1594 1.384 . S
C1596 C1597 1.372 . S
C1597 C1596 1.372 . S
C1597 C1598 1.400 . S
C1597 C1602 1.490 . S
C1598 H1588 0.930 . S
C1598 C1597 1.400 . S
C1598 C1601 1.386 . S
H1599 C1615 0.930 . S
H1600 C1616 0.931 . S
C1601 H1589 0.929 . S
C1601 C1595 1.390 . S
C1601 C1598 1.386 . S
C1602 C1597 1.490 . S
C1602 C1604 1.395 . S
C1602 C1605 1.403 . S
H1603 C1609 0.930 . S
C1604 H1590 0.930 . S
C1604 C1602 1.395 . S
C1604 C1607 1.403 . S
C1605 C1602 1.403 . S
C1605 C1606 1.524 . S
C1605 C1609 1.400 . S
C1606 H1591 0.960 . S
C1606 H1592 0.960 . S
C1606 H1593 0.960 . S
C1606 C1605 1.524 . S
C1607 C1604 1.403 . S
C1607 C1608 1.392 . S
C1607 C1611 1.495 . S
C1608 C1607 1.392 . S
C1608 C1609 1.385 . S
C1608 C1610 1.478 . S
C1609 H1603 0.930 . S
C1609 C1605 1.400 . S
C1609 C1608 1.385 . S
C1610 C1608 1.478 . S
C1610 C1612 1.381 . S
C1610 C1616 1.383 . S
C1611 C1607 1.495 . S
C1611 H1617 0.959 . S
C1611 H1618 0.961 . S
C1611 H1619 0.960 . S
C1612 C1610 1.381 . S
C1612 C1613 1.394 . S
C1612 H1620 0.930 . S
C1613 C1612 1.394 . S
C1613 C1614 1.383 . S
C1613 H1621 0.929 . S
C1614 C1613 1.383 . S
C1614 C1615 1.377 . S
C1615 H1599 0.930 . S
C1615 C1614 1.377 . S
C1615 C1616 1.379 . S
C1616 H1600 0.931 . S
C1616 C1610 1.383 . S
C1616 C1615 1.379 . S
H1617 C1611 0.959 . S
H1618 C1611 0.961 . S
H1619 C1611 0.960 . S
H1620 C1612 0.930 . S
H1621 C1613 0.929 . S
H1622 C1630 0.929 . S
H1623 C1632 0.930 . S
H1624 C1634 0.930 . S
H1625 C1637 0.929 . S
H1626 C1640 0.930 . S
H1627 C1642 0.960 . S
H1628 C1642 0.960 . S
H1629 C1642 0.960 . S
C1630 H1622 0.929 . S
C1630 C1631 1.377 . S
C1630 C1632 1.384 . S
C1631 C1630 1.377 . S
C1631 C1637 1.390 . S
C1632 H1623 0.930 . S
C1632 C1630 1.384 . S
C1632 C1633 1.372 . S
C1633 C1632 1.372 . S
C1633 C1634 1.400 . S
C1633 C1638 1.490 . S
C1634 H1624 0.930 . S
C1634 C1633 1.400 . S
C1634 C1637 1.386 . S
H1635 C1651 0.930 . S
H1636 C1652 0.931 . S
C1637 H1625 0.929 . S
C1637 C1631 1.390 . S
C1637 C1634 1.386 . S
C1638 C1633 1.490 . S
C1638 C1640 1.395 . S
C1638 C1641 1.403 . S
H1639 C1645 0.930 . S
C1640 H1626 0.930 . S
C1640 C1638 1.395 . S
C1640 C1643 1.403 . S
C1641 C1638 1.403 . S
C1641 C1642 1.524 . S
C1641 C1645 1.400 . S
C1642 H1627 0.960 . S
C1642 H1628 0.960 . S
C1642 H1629 0.960 . S
C1642 C1641 1.524 . S
C1643 C1640 1.403 . S
C1643 C1644 1.392 . S
C1643 C1647 1.495 . S
C1644 C1643 1.392 . S
C1644 C1645 1.385 . S
C1644 C1646 1.478 . S
C1645 H1639 0.930 . S
C1645 C1641 1.400 . S
C1645 C1644 1.385 . S
C1646 C1644 1.478 . S
C1646 C1648 1.381 . S
C1646 C1652 1.383 . S
C1647 C1643 1.495 . S
C1647 H1653 0.959 . S
C1647 H1654 0.961 . S
C1647 H1655 0.960 . S
C1648 C1646 1.381 . S
C1648 C1649 1.394 . S
C1648 H1656 0.930 . S
C1649 C1648 1.394 . S
C1649 C1650 1.383 . S
C1649 H1657 0.929 . S
C1650 C1649 1.383 . S
C1650 C1651 1.377 . S
C1651 H1635 0.930 . S
C1651 C1650 1.377 . S
C1651 C1652 1.379 . S
C1652 H1636 0.931 . S
C1652 C1646 1.383 . S
C1652 C1651 1.379 . S
H1653 C1647 0.959 . S
H1654 C1647 0.961 . S
H1655 C1647 0.960 . S
H1656 C1648 0.930 . S
H1657 C1649 0.929 . S
H1658 C1666 0.929 . S
H1659 C1668 0.930 . S
H1660 C1670 0.930 . S
H1661 C1673 0.929 . S
H1662 C1676 0.930 . S
H1663 C1678 0.960 . S
H1664 C1678 0.960 . S
H1665 C1678 0.960 . S
C1666 H1658 0.929 . S
C1666 C1667 1.377 . S
C1666 C1668 1.384 . S
C1667 C1666 1.377 . S
C1667 C1673 1.390 . S
C1668 H1659 0.930 . S
C1668 C1666 1.384 . S
C1668 C1669 1.372 . S
C1669 C1668 1.372 . S
C1669 C1670 1.400 . S
C1669 C1674 1.490 . S
C1670 H1660 0.930 . S
C1670 C1669 1.400 . S
C1670 C1673 1.386 . S
H1671 C1687 0.930 . S
H1672 C1688 0.931 . S
C1673 H1661 0.929 . S
C1673 C1667 1.390 . S
C1673 C1670 1.386 . S
C1674 C1669 1.490 . S
C1674 C1676 1.395 . S
C1674 C1677 1.403 . S
H1675 C1681 0.930 . S
C1676 H1662 0.930 . S
C1676 C1674 1.395 . S
C1676 C1679 1.403 . S
C1677 C1674 1.403 . S
C1677 C1678 1.524 . S
C1677 C1681 1.400 . S
C1678 H1663 0.960 . S
C1678 H1664 0.960 . S
C1678 H1665 0.960 . S
C1678 C1677 1.524 . S
C1679 C1676 1.403 . S
C1679 C1680 1.392 . S
C1679 C1683 1.495 . S
C1680 C1679 1.392 . S
C1680 C1681 1.385 . S
C1680 C1682 1.478 . S
C1681 H1675 0.930 . S
C1681 C1677 1.400 . S
C1681 C1680 1.385 . S
C1682 C1680 1.478 . S
C1682 C1684 1.381 . S
C1682 C1688 1.383 . S
C1683 C1679 1.495 . S
C1683 H1689 0.959 . S
C1683 H1690 0.961 . S
C1683 H1691 0.960 . S
C1684 C1682 1.381 . S
C1684 C1685 1.394 . S
C1684 H1692 0.930 . S
C1685 C1684 1.394 . S
C1685 C1686 1.383 . S
C1685 H1693 0.929 . S
C1686 C1685 1.383 . S
C1686 C1687 1.377 . S
C1687 H1671 0.930 . S
C1687 C1686 1.377 . S
C1687 C1688 1.379 . S
C1688 H1672 0.931 . S
C1688 C1682 1.383 . S
C1688 C1687 1.379 . S
H1689 C1683 0.959 . S
H1690 C1683 0.961 . S
H1691 C1683 0.960 . S
H1692 C1684 0.930 . S
H1693 C1685 0.929 . S
H1694 C1702 0.929 . S
H1695 C1704 0.930 . S
H1696 C1706 0.930 . S
H1697 C1709 0.929 . S
H1698 C1712 0.930 . S
H1699 C1714 0.960 . S
H1700 C1714 0.960 . S
H1701 C1714 0.960 . S
C1702 H1694 0.929 . S
C1702 C1703 1.377 . S
C1702 C1704 1.384 . S
C1703 C1702 1.377 . S
C1703 C1709 1.390 . S
C1704 H1695 0.930 . S
C1704 C1702 1.384 . S
C1704 C1705 1.372 . S
C1705 C1704 1.372 . S
C1705 C1706 1.400 . S
C1705 C1710 1.490 . S
C1706 H1696 0.930 . S
C1706 C1705 1.400 . S
C1706 C1709 1.386 . S
H1707 C1723 0.930 . S
H1708 C1724 0.931 . S
C1709 H1697 0.929 . S
C1709 C1703 1.390 . S
C1709 C1706 1.386 . S
C1710 C1705 1.490 . S
C1710 C1712 1.395 . S
C1710 C1713 1.403 . S
H1711 C1717 0.930 . S
C1712 H1698 0.930 . S
C1712 C1710 1.395 . S
C1712 C1715 1.403 . S
C1713 C1710 1.403 . S
C1713 C1714 1.524 . S
C1713 C1717 1.400 . S
C1714 H1699 0.960 . S
C1714 H1700 0.960 . S
C1714 H1701 0.960 . S
C1714 C1713 1.524 . S
C1715 C1712 1.403 . S
C1715 C1716 1.392 . S
C1715 C1719 1.495 . S
C1716 C1715 1.392 . S
C1716 C1717 1.385 . S
C1716 C1718 1.478 . S
C1717 H1711 0.930 . S
C1717 C1713 1.400 . S
C1717 C1716 1.385 . S
C1718 C1716 1.478 . S
C1718 C1720 1.381 . S
C1718 C1724 1.383 . S
C1719 C1715 1.495 . S
C1719 H1725 0.959 . S
C1719 H1726 0.961 . S
C1719 H1727 0.960 . S
C1720 C1718 1.381 . S
C1720 C1721 1.394 . S
C1720 H1728 0.930 . S
C1721 C1720 1.394 . S
C1721 C1722 1.383 . S
C1721 H1729 0.929 1_565 S
C1722 C1721 1.383 . S
C1722 C1723 1.377 . S
C1723 H1707 0.930 . S
C1723 C1722 1.377 . S
C1723 C1724 1.379 . S
C1724 H1708 0.931 . S
C1724 C1718 1.383 . S
C1724 C1723 1.379 . S
H1725 C1719 0.959 . S
H1726 C1719 0.961 . S
H1727 C1719 0.960 . S
H1728 C1720 0.930 . S
H1729 C1721 0.929 1_545 S
H1730 C1738 0.929 . S
H1731 C1740 0.930 . S
H1732 C1742 0.930 . S
H1733 C1745 0.929 . S
H1734 C1748 0.930 . S
H1735 C1750 0.960 . S
H1736 C1750 0.960 . S
H1737 C1750 0.960 . S
C1738 H1730 0.929 . S
C1738 C1739 1.377 . S
C1738 C1740 1.384 . S
C1739 C1738 1.377 . S
C1739 C1745 1.390 . S
C1740 H1731 0.930 . S
C1740 C1738 1.384 . S
C1740 C1741 1.372 . S
C1741 C1740 1.372 . S
C1741 C1742 1.400 . S
C1741 C1746 1.490 . S
C1742 H1732 0.930 . S
C1742 C1741 1.400 . S
C1742 C1745 1.386 . S
H1743 C1759 0.930 . S
H1744 C1760 0.931 . S
C1745 H1733 0.929 . S
C1745 C1739 1.390 . S
C1745 C1742 1.386 . S
C1746 C1741 1.490 . S
C1746 C1748 1.395 . S
C1746 C1749 1.403 . S
H1747 C1753 0.930 . S
C1748 H1734 0.930 . S
C1748 C1746 1.395 . S
C1748 C1751 1.403 . S
C1749 C1746 1.403 . S
C1749 C1750 1.524 . S
C1749 C1753 1.400 . S
C1750 H1735 0.960 . S
C1750 H1736 0.960 . S
C1750 H1737 0.960 . S
C1750 C1749 1.524 . S
C1751 C1748 1.403 . S
C1751 C1752 1.392 . S
C1751 C1755 1.495 . S
C1752 C1751 1.392 . S
C1752 C1753 1.385 . S
C1752 C1754 1.478 . S
C1753 H1747 0.930 . S
C1753 C1749 1.400 . S
C1753 C1752 1.385 . S
C1754 C1752 1.478 . S
C1754 C1756 1.381 . S
C1754 C1760 1.383 . S
C1755 C1751 1.495 . S
C1755 H1761 0.959 . S
C1755 H1762 0.961 . S
C1755 H1763 0.960 . S
C1756 C1754 1.381 . S
C1756 C1757 1.394 . S
C1756 H1764 0.930 . S
C1757 C1756 1.394 . S
C1757 C1758 1.383 . S
C1757 H1765 0.929 . S
C1758 C1757 1.383 . S
C1758 C1759 1.377 . S
C1759 H1743 0.930 . S
C1759 C1758 1.377 . S
C1759 C1760 1.379 . S
C1760 H1744 0.931 . S
C1760 C1754 1.383 . S
C1760 C1759 1.379 . S
H1761 C1755 0.959 . S
H1762 C1755 0.961 . S
H1763 C1755 0.960 . S
H1764 C1756 0.930 . S
H1765 C1757 0.929 . S
H1766 C1774 0.929 . S
H1767 C1776 0.930 . S
H1768 C1778 0.930 . S
H1769 C1781 0.929 . S
H1770 C1784 0.930 . S
H1771 C1786 0.960 . S
H1772 C1786 0.960 . S
H1773 C1786 0.960 . S
C1774 H1766 0.929 . S
C1774 C1775 1.377 . S
C1774 C1776 1.384 . S
C1775 C1774 1.377 . S
C1775 C1781 1.390 . S
C1776 H1767 0.930 . S
C1776 C1774 1.384 . S
C1776 C1777 1.372 . S
C1777 C1776 1.372 . S
C1777 C1778 1.400 . S
C1777 C1782 1.490 . S
C1778 H1768 0.930 . S
C1778 C1777 1.400 . S
C1778 C1781 1.386 . S
H1779 C1795 0.930 . S
H1780 C1796 0.931 . S
C1781 H1769 0.929 . S
C1781 C1775 1.390 . S
C1781 C1778 1.386 . S
C1782 C1777 1.490 . S
C1782 C1784 1.395 . S
C1782 C1785 1.403 . S
H1783 C1789 0.930 . S
C1784 H1770 0.930 . S
C1784 C1782 1.395 . S
C1784 C1787 1.403 . S
C1785 C1782 1.403 . S
C1785 C1786 1.524 . S
C1785 C1789 1.400 . S
C1786 H1771 0.960 . S
C1786 H1772 0.960 . S
C1786 H1773 0.960 . S
C1786 C1785 1.524 . S
C1787 C1784 1.403 . S
C1787 C1788 1.392 . S
C1787 C1791 1.495 . S
C1788 C1787 1.392 . S
C1788 C1789 1.385 . S
C1788 C1790 1.478 . S
C1789 H1783 0.930 . S
C1789 C1785 1.400 . S
C1789 C1788 1.385 . S
C1790 C1788 1.478 . S
C1790 C1792 1.381 . S
C1790 C1796 1.383 . S
C1791 C1787 1.495 . S
C1791 H1797 0.959 . S
C1791 H1798 0.961 . S
C1791 H1799 0.960 . S
C1792 C1790 1.381 . S
C1792 C1793 1.394 . S
C1792 H1800 0.930 . S
C1793 C1792 1.394 . S
C1793 C1794 1.383 . S
C1793 H1801 0.929 . S
C1794 C1793 1.383 . S
C1794 C1795 1.377 . S
C1795 H1779 0.930 . S
C1795 C1794 1.377 . S
C1795 C1796 1.379 . S
C1796 H1780 0.931 . S
C1796 C1790 1.383 . S
C1796 C1795 1.379 . S
H1797 C1791 0.959 . S
H1798 C1791 0.961 . S
H1799 C1791 0.960 . S
H1800 C1792 0.930 . S
H1801 C1793 0.929 . S
H1802 C1810 0.929 . S
H1803 C1812 0.930 . S
H1804 C1814 0.930 . S
H1805 C1817 0.929 . S
H1806 C1820 0.930 . S
H1807 C1822 0.960 . S
H1808 C1822 0.960 . S
H1809 C1822 0.960 . S
C1810 H1802 0.929 . S
C1810 C1811 1.377 . S
C1810 C1812 1.384 . S
C1811 C1810 1.377 . S
C1811 C1817 1.390 . S
C1812 H1803 0.930 . S
C1812 C1810 1.384 . S
C1812 C1813 1.372 . S
C1813 C1812 1.372 . S
C1813 C1814 1.400 . S
C1813 C1818 1.490 . S
C1814 H1804 0.930 . S
C1814 C1813 1.400 . S
C1814 C1817 1.386 . S
H1815 C1831 0.930 . S
H1816 C1832 0.931 . S
C1817 H1805 0.929 . S
C1817 C1811 1.390 . S
C1817 C1814 1.386 . S
C1818 C1813 1.490 . S
C1818 C1820 1.395 . S
C1818 C1821 1.403 . S
H1819 C1825 0.930 . S
C1820 H1806 0.930 . S
C1820 C1818 1.395 . S
C1820 C1823 1.403 . S
C1821 C1818 1.403 . S
C1821 C1822 1.524 . S
C1821 C1825 1.400 . S
C1822 H1807 0.960 . S
C1822 H1808 0.960 . S
C1822 H1809 0.960 . S
C1822 C1821 1.524 . S
C1823 C1820 1.403 . S
C1823 C1824 1.392 . S
C1823 C1827 1.495 . S
C1824 C1823 1.392 . S
C1824 C1825 1.385 . S
C1824 C1826 1.478 . S
C1825 H1819 0.930 . S
C1825 C1821 1.400 . S
C1825 C1824 1.385 . S
C1826 C1824 1.478 . S
C1826 C1828 1.381 . S
C1826 C1832 1.383 . S
C1827 C1823 1.495 . S
C1827 H1833 0.959 . S
C1827 H1834 0.961 . S
C1827 H1835 0.960 . S
C1828 C1826 1.381 . S
C1828 C1829 1.394 . S
C1828 H1836 0.930 . S
C1829 C1828 1.394 . S
C1829 C1830 1.383 . S
C1829 H1837 0.929 . S
C1830 C1829 1.383 . S
C1830 C1831 1.377 . S
C1831 H1815 0.930 . S
C1831 C1830 1.377 . S
C1831 C1832 1.379 . S
C1832 H1816 0.931 . S
C1832 C1826 1.383 . S
C1832 C1831 1.379 . S
H1833 C1827 0.959 . S
H1834 C1827 0.961 . S
H1835 C1827 0.960 . S
H1836 C1828 0.930 . S
H1837 C1829 0.929 . S
H1838 C1846 0.929 . S
H1839 C1848 0.930 . S
H1840 C1850 0.930 . S
H1841 C1853 0.929 . S
H1842 C1856 0.930 . S
H1843 C1858 0.960 . S
H1844 C1858 0.960 . S
H1845 C1858 0.960 . S
C1846 H1838 0.929 . S
C1846 C1847 1.377 . S
C1846 C1848 1.384 . S
C1847 C1846 1.377 . S
C1847 C1853 1.390 . S
C1848 H1839 0.930 . S
C1848 C1846 1.384 . S
C1848 C1849 1.372 . S
C1849 C1848 1.372 . S
C1849 C1850 1.400 . S
C1849 C1854 1.490 . S
C1850 H1840 0.930 . S
C1850 C1849 1.400 . S
C1850 C1853 1.386 . S
H1851 C1867 0.930 . S
H1852 C1868 0.931 . S
C1853 H1841 0.929 . S
C1853 C1847 1.390 . S
C1853 C1850 1.386 . S
C1854 C1849 1.490 . S
C1854 C1856 1.395 . S
C1854 C1857 1.403 . S
H1855 C1861 0.930 . S
C1856 H1842 0.930 . S
C1856 C1854 1.395 . S
C1856 C1859 1.403 . S
C1857 C1854 1.403 . S
C1857 C1858 1.524 . S
C1857 C1861 1.400 . S
C1858 H1843 0.960 . S
C1858 H1844 0.960 . S
C1858 H1845 0.960 . S
C1858 C1857 1.524 . S
C1859 C1856 1.403 . S
C1859 C1860 1.392 . S
C1859 C1863 1.495 . S
C1860 C1859 1.392 . S
C1860 C1861 1.385 . S
C1860 C1862 1.478 . S
C1861 H1855 0.930 . S
C1861 C1857 1.400 . S
C1861 C1860 1.385 . S
C1862 C1860 1.478 . S
C1862 C1864 1.381 . S
C1862 C1868 1.383 . S
C1863 C1859 1.495 . S
C1863 H1869 0.959 . S
C1863 H1870 0.961 . S
C1863 H1871 0.960 . S
C1864 C1862 1.381 . S
C1864 C1865 1.394 . S
C1864 H1872 0.930 . S
C1865 C1864 1.394 . S
C1865 C1866 1.383 . S
C1865 H1873 0.929 1_565 S
C1866 C1865 1.383 . S
C1866 C1867 1.377 . S
C1867 H1851 0.930 . S
C1867 C1866 1.377 . S
C1867 C1868 1.379 . S
C1868 H1852 0.931 . S
C1868 C1862 1.383 . S
C1868 C1867 1.379 . S
H1869 C1863 0.959 . S
H1870 C1863 0.961 . S
H1871 C1863 0.960 . S
H1872 C1864 0.930 . S
H1873 C1865 0.929 1_545 S
H1874 C1882 0.929 . S
H1875 C1884 0.930 . S
H1876 C1886 0.930 . S
H1877 C1889 0.929 . S
H1878 C1892 0.930 . S
H1879 C1894 0.960 . S
H1880 C1894 0.960 . S
H1881 C1894 0.960 . S
C1882 H1874 0.929 . S
C1882 C1883 1.377 . S
C1882 C1884 1.384 . S
C1883 C1882 1.377 . S
C1883 C1889 1.390 . S
C1884 H1875 0.930 . S
C1884 C1882 1.384 . S
C1884 C1885 1.372 . S
C1885 C1884 1.372 . S
C1885 C1886 1.400 . S
C1885 C1890 1.490 . S
C1886 H1876 0.930 . S
C1886 C1885 1.400 . S
C1886 C1889 1.386 . S
H1887 C1903 0.930 . S
H1888 C1904 0.931 . S
C1889 H1877 0.929 . S
C1889 C1883 1.390 . S
C1889 C1886 1.386 . S
C1890 C1885 1.490 . S
C1890 C1892 1.395 . S
C1890 C1893 1.403 . S
H1891 C1897 0.930 . S
C1892 H1878 0.930 . S
C1892 C1890 1.395 . S
C1892 C1895 1.403 . S
C1893 C1890 1.403 . S
C1893 C1894 1.524 . S
C1893 C1897 1.400 . S
C1894 H1879 0.960 . S
C1894 H1880 0.960 . S
C1894 H1881 0.960 . S
C1894 C1893 1.524 . S
C1895 C1892 1.403 . S
C1895 C1896 1.392 . S
C1895 C1899 1.495 . S
C1896 C1895 1.392 . S
C1896 C1897 1.385 . S
C1896 C1898 1.478 . S
C1897 H1891 0.930 . S
C1897 C1893 1.400 . S
C1897 C1896 1.385 . S
C1898 C1896 1.478 . S
C1898 C1900 1.381 . S
C1898 C1904 1.383 . S
C1899 C1895 1.495 . S
C1899 H1905 0.959 . S
C1899 H1906 0.961 . S
C1899 H1907 0.960 . S
C1900 C1898 1.381 . S
C1900 C1901 1.394 . S
C1900 H1908 0.930 . S
C1901 C1900 1.394 . S
C1901 C1902 1.383 . S
C1901 H1909 0.929 . S
C1902 C1901 1.383 . S
C1902 C1903 1.377 . S
C1903 H1887 0.930 . S
C1903 C1902 1.377 . S
C1903 C1904 1.379 . S
C1904 H1888 0.931 . S
C1904 C1898 1.383 . S
C1904 C1903 1.379 . S
H1905 C1899 0.959 . S
H1906 C1899 0.961 . S
H1907 C1899 0.960 . S
H1908 C1900 0.930 . S
H1909 C1901 0.929 . S
H1910 C1918 0.929 . S
H1911 C1920 0.930 . S
H1912 C1922 0.930 . S
H1913 C1925 0.929 . S
H1914 C1928 0.930 . S
H1915 C1930 0.960 . S
H1916 C1930 0.960 . S
H1917 C1930 0.960 . S
C1918 H1910 0.929 . S
C1918 C1919 1.377 . S
C1918 C1920 1.384 . S
C1919 C1918 1.377 . S
C1919 C1925 1.390 . S
C1920 H1911 0.930 . S
C1920 C1918 1.384 . S
C1920 C1921 1.372 . S
C1921 C1920 1.372 . S
C1921 C1922 1.400 . S
C1921 C1926 1.490 . S
C1922 H1912 0.930 . S
C1922 C1921 1.400 . S
C1922 C1925 1.386 . S
H1923 C1939 0.930 . S
H1924 C1940 0.931 . S
C1925 H1913 0.929 . S
C1925 C1919 1.390 . S
C1925 C1922 1.386 . S
C1926 C1921 1.490 . S
C1926 C1928 1.395 . S
C1926 C1929 1.403 . S
H1927 C1933 0.930 . S
C1928 H1914 0.930 . S
C1928 C1926 1.395 . S
C1928 C1931 1.403 . S
C1929 C1926 1.403 . S
C1929 C1930 1.524 . S
C1929 C1933 1.400 . S
C1930 H1915 0.960 . S
C1930 H1916 0.960 . S
C1930 H1917 0.960 . S
C1930 C1929 1.524 . S
C1931 C1928 1.403 . S
C1931 C1932 1.392 . S
C1931 C1935 1.495 . S
C1932 C1931 1.392 . S
C1932 C1933 1.385 . S
C1932 C1934 1.478 . S
C1933 H1927 0.930 . S
C1933 C1929 1.400 . S
C1933 C1932 1.385 . S
C1934 C1932 1.478 . S
C1934 C1936 1.381 . S
C1934 C1940 1.383 . S
C1935 C1931 1.495 . S
C1935 H1941 0.959 . S
C1935 H1942 0.961 . S
C1935 H1943 0.960 . S
C1936 C1934 1.381 . S
C1936 C1937 1.394 . S
C1936 H1944 0.930 . S
C1937 C1936 1.394 . S
C1937 C1938 1.383 . S
C1937 H1945 0.929 . S
C1938 C1937 1.383 . S
C1938 C1939 1.377 . S
C1939 H1923 0.930 . S
C1939 C1938 1.377 . S
C1939 C1940 1.379 . S
C1940 H1924 0.931 . S
C1940 C1934 1.383 . S
C1940 C1939 1.379 . S
H1941 C1935 0.959 . S
H1942 C1935 0.961 . S
H1943 C1935 0.960 . S
H1944 C1936 0.930 . S
H1945 C1937 0.929 . S
H1946 C1954 0.929 . S
H1947 C1956 0.930 . S
H1948 C1958 0.930 . S
H1949 C1961 0.929 . S
H1950 C1964 0.930 . S
H1951 C1966 0.960 . S
H1952 C1966 0.960 . S
H1953 C1966 0.960 . S
C1954 H1946 0.929 . S
C1954 C1955 1.377 . S
C1954 C1956 1.384 . S
C1955 C1954 1.377 . S
C1955 C1961 1.390 . S
C1956 H1947 0.930 . S
C1956 C1954 1.384 . S
C1956 C1957 1.372 . S
C1957 C1956 1.372 . S
C1957 C1958 1.400 . S
C1957 C1962 1.490 . S
C1958 H1948 0.930 . S
C1958 C1957 1.400 . S
C1958 C1961 1.386 . S
H1959 C1975 0.930 . S
H1960 C1976 0.931 . S
C1961 H1949 0.929 . S
C1961 C1955 1.390 . S
C1961 C1958 1.386 . S
C1962 C1957 1.490 . S
C1962 C1964 1.395 . S
C1962 C1965 1.403 . S
H1963 C1969 0.930 . S
C1964 H1950 0.930 . S
C1964 C1962 1.395 . S
C1964 C1967 1.403 . S
C1965 C1962 1.403 . S
C1965 C1966 1.524 . S
C1965 C1969 1.400 . S
C1966 H1951 0.960 . S
C1966 H1952 0.960 . S
C1966 H1953 0.960 . S
C1966 C1965 1.524 . S
C1967 C1964 1.403 . S
C1967 C1968 1.392 . S
C1967 C1971 1.495 . S
C1968 C1967 1.392 . S
C1968 C1969 1.385 . S
C1968 C1970 1.478 . S
C1969 H1963 0.930 . S
C1969 C1965 1.400 . S
C1969 C1968 1.385 . S
C1970 C1968 1.478 . S
C1970 C1972 1.381 . S
C1970 C1976 1.383 . S
C1971 C1967 1.495 . S
C1971 H1977 0.959 . S
C1971 H1978 0.961 . S
C1971 H1979 0.960 . S
C1972 C1970 1.381 . S
C1972 C1973 1.394 . S
C1972 H1980 0.930 . S
C1973 C1972 1.394 . S
C1973 C1974 1.383 . S
C1973 H1981 0.929 . S
C1974 C1973 1.383 . S
C1974 C1975 1.377 . S
C1975 H1959 0.930 . S
C1975 C1974 1.377 . S
C1975 C1976 1.379 . S
C1976 H1960 0.931 . S
C1976 C1970 1.383 . S
C1976 C1975 1.379 . S
H1977 C1971 0.959 . S
H1978 C1971 0.961 . S
H1979 C1971 0.960 . S
H1980 C1972 0.930 . S
H1981 C1973 0.929 . S
H1982 C1990 0.929 . S
H1983 C1992 0.930 . S
H1984 C1994 0.930 . S
H1985 C1997 0.929 . S
H1986 C2000 0.930 . S
H1987 C2002 0.960 . S
H1988 C2002 0.960 . S
H1989 C2002 0.960 . S
C1990 H1982 0.929 . S
C1990 C1991 1.377 . S
C1990 C1992 1.384 . S
C1991 C1990 1.377 . S
C1991 C1997 1.390 . S
C1992 H1983 0.930 . S
C1992 C1990 1.384 . S
C1992 C1993 1.372 . S
C1993 C1992 1.372 . S
C1993 C1994 1.400 . S
C1993 C1998 1.490 . S
C1994 H1984 0.930 . S
C1994 C1993 1.400 . S
C1994 C1997 1.386 . S
H1995 C2011 0.930 . S
H1996 C2012 0.931 . S
C1997 H1985 0.929 . S
C1997 C1991 1.390 . S
C1997 C1994 1.386 . S
C1998 C1993 1.490 . S
C1998 C2000 1.395 . S
C1998 C2001 1.403 . S
H1999 C2005 0.930 . S
C2000 H1986 0.930 . S
C2000 C1998 1.395 . S
C2000 C2003 1.403 . S
C2001 C1998 1.403 . S
C2001 C2002 1.524 . S
C2001 C2005 1.400 . S
C2002 H1987 0.960 . S
C2002 H1988 0.960 . S
C2002 H1989 0.960 . S
C2002 C2001 1.524 . S
C2003 C2000 1.403 . S
C2003 C2004 1.392 . S
C2003 C2007 1.495 . S
C2004 C2003 1.392 . S
C2004 C2005 1.385 . S
C2004 C2006 1.478 . S
C2005 H1999 0.930 . S
C2005 C2001 1.400 . S
C2005 C2004 1.385 . S
C2006 C2004 1.478 . S
C2006 C2008 1.381 . S
C2006 C2012 1.383 . S
C2007 C2003 1.495 . S
C2007 H2013 0.959 . S
C2007 H2014 0.961 . S
C2007 H2015 0.960 . S
C2008 C2006 1.381 . S
C2008 C2009 1.394 . S
C2008 H2016 0.930 . S
C2009 C2008 1.394 . S
C2009 C2010 1.383 . S
C2009 H2017 0.929 . S
C2010 C2009 1.383 . S
C2010 C2011 1.377 . S
C2011 H1995 0.930 . S
C2011 C2010 1.377 . S
C2011 C2012 1.379 . S
C2012 H1996 0.931 . S
C2012 C2006 1.383 . S
C2012 C2011 1.379 . S
H2013 C2007 0.959 . S
H2014 C2007 0.961 . S
H2015 C2007 0.960 . S
H2016 C2008 0.930 . S
H2017 C2009 0.929 . S
H2018 C2026 0.929 . S
H2019 C2028 0.930 . S
H2020 C2030 0.930 . S
H2021 C2033 0.929 . S
H2022 C2036 0.930 . S
H2023 C2038 0.960 . S
H2024 C2038 0.960 . S
H2025 C2038 0.960 . S
C2026 H2018 0.929 . S
C2026 C2027 1.377 . S
C2026 C2028 1.384 . S
C2027 C2026 1.377 . S
C2027 C2033 1.390 . S
C2028 H2019 0.930 . S
C2028 C2026 1.384 . S
C2028 C2029 1.372 . S
C2029 C2028 1.372 . S
C2029 C2030 1.400 . S
C2029 C2034 1.490 . S
C2030 H2020 0.930 . S
C2030 C2029 1.400 . S
C2030 C2033 1.386 . S
H2031 C2047 0.930 . S
H2032 C2048 0.931 . S
C2033 H2021 0.929 . S
C2033 C2027 1.390 . S
C2033 C2030 1.386 . S
C2034 C2029 1.490 . S
C2034 C2036 1.395 . S
C2034 C2037 1.403 . S
H2035 C2041 0.930 . S
C2036 H2022 0.930 . S
C2036 C2034 1.395 . S
C2036 C2039 1.403 . S
C2037 C2034 1.403 . S
C2037 C2038 1.524 . S
C2037 C2041 1.400 . S
C2038 H2023 0.960 . S
C2038 H2024 0.960 . S
C2038 H2025 0.960 . S
C2038 C2037 1.524 . S
C2039 C2036 1.403 . S
C2039 C2040 1.392 . S
C2039 C2043 1.495 . S
C2040 C2039 1.392 . S
C2040 C2041 1.385 . S
C2040 C2042 1.478 . S
C2041 H2035 0.930 . S
C2041 C2037 1.400 . S
C2041 C2040 1.385 . S
C2042 C2040 1.478 . S
C2042 C2044 1.381 . S
C2042 C2048 1.383 . S
C2043 C2039 1.495 . S
C2043 H2049 0.959 . S
C2043 H2050 0.961 . S
C2043 H2051 0.960 . S
C2044 C2042 1.381 . S
C2044 C2045 1.394 . S
C2044 H2052 0.930 . S
C2045 C2044 1.394 . S
C2045 C2046 1.383 . S
C2045 H2053 0.929 . S
C2046 C2045 1.383 . S
C2046 C2047 1.377 . S
C2047 H2031 0.930 . S
C2047 C2046 1.377 . S
C2047 C2048 1.379 . S
C2048 H2032 0.931 . S
C2048 C2042 1.383 . S
C2048 C2047 1.379 . S
H2049 C2043 0.959 . S
H2050 C2043 0.961 . S
H2051 C2043 0.960 . S
H2052 C2044 0.930 . S
H2053 C2045 0.929 . S
H2054 C2062 0.929 . S
H2055 C2064 0.930 . S
H2056 C2066 0.930 . S
H2057 C2069 0.929 . S
H2058 C2072 0.930 . S
H2059 C2074 0.960 . S
H2060 C2074 0.960 . S
H2061 C2074 0.960 . S
C2062 H2054 0.929 . S
C2062 C2063 1.377 . S
C2062 C2064 1.384 . S
C2063 C2062 1.377 . S
C2063 C2069 1.390 . S
C2064 H2055 0.930 . S
C2064 C2062 1.384 . S
C2064 C2065 1.372 . S
C2065 C2064 1.372 . S
C2065 C2066 1.400 . S
C2065 C2070 1.490 . S
C2066 H2056 0.930 . S
C2066 C2065 1.400 . S
C2066 C2069 1.386 . S
H2067 C2083 0.930 . S
H2068 C2084 0.931 . S
C2069 H2057 0.929 . S
C2069 C2063 1.390 . S
C2069 C2066 1.386 . S
C2070 C2065 1.490 . S
C2070 C2072 1.395 . S
C2070 C2073 1.403 . S
H2071 C2077 0.930 . S
C2072 H2058 0.930 . S
C2072 C2070 1.395 . S
C2072 C2075 1.403 . S
C2073 C2070 1.403 . S
C2073 C2074 1.524 . S
C2073 C2077 1.400 . S
C2074 H2059 0.960 . S
C2074 H2060 0.960 . S
C2074 H2061 0.960 . S
C2074 C2073 1.524 . S
C2075 C2072 1.403 . S
C2075 C2076 1.392 . S
C2075 C2079 1.495 . S
C2076 C2075 1.392 . S
C2076 C2077 1.385 . S
C2076 C2078 1.478 . S
C2077 H2071 0.930 . S
C2077 C2073 1.400 . S
C2077 C2076 1.385 . S
C2078 C2076 1.478 . S
C2078 C2080 1.381 . S
C2078 C2084 1.383 . S
C2079 C2075 1.495 . S
C2079 H2085 0.959 . S
C2079 H2086 0.961 . S
C2079 H2087 0.960 . S
C2080 C2078 1.381 . S
C2080 C2081 1.394 . S
C2080 H2088 0.930 . S
C2081 C2080 1.394 . S
C2081 C2082 1.383 . S
C2081 H2089 0.929 . S
C2082 C2081 1.383 . S
C2082 C2083 1.377 . S
C2083 H2067 0.930 . S
C2083 C2082 1.377 . S
C2083 C2084 1.379 . S
C2084 H2068 0.931 . S
C2084 C2078 1.383 . S
C2084 C2083 1.379 . S
H2085 C2079 0.959 . S
H2086 C2079 0.961 . S
H2087 C2079 0.960 . S
H2088 C2080 0.930 . S
H2089 C2081 0.929 . S
H2090 C2098 0.929 . S
H2091 C2100 0.930 . S
H2092 C2102 0.930 . S
H2093 C2105 0.929 . S
H2094 C2108 0.930 . S
H2095 C2110 0.960 . S
H2096 C2110 0.960 . S
H2097 C2110 0.960 . S
C2098 H2090 0.929 . S
C2098 C2099 1.377 . S
C2098 C2100 1.384 . S
C2099 C2098 1.377 . S
C2099 C2105 1.390 . S
C2100 H2091 0.930 . S
C2100 C2098 1.384 . S
C2100 C2101 1.372 . S
C2101 C2100 1.372 . S
C2101 C2102 1.400 . S
C2101 C2106 1.490 . S
C2102 H2092 0.930 . S
C2102 C2101 1.400 . S
C2102 C2105 1.386 . S
H2103 C2119 0.930 . S
H2104 C2120 0.931 . S
C2105 H2093 0.929 . S
C2105 C2099 1.390 . S
C2105 C2102 1.386 . S
C2106 C2101 1.490 . S
C2106 C2108 1.395 . S
C2106 C2109 1.403 . S
H2107 C2113 0.930 . S
C2108 H2094 0.930 . S
C2108 C2106 1.395 . S
C2108 C2111 1.403 . S
C2109 C2106 1.403 . S
C2109 C2110 1.524 . S
C2109 C2113 1.400 . S
C2110 H2095 0.960 . S
C2110 H2096 0.960 . S
C2110 H2097 0.960 . S
C2110 C2109 1.524 . S
C2111 C2108 1.403 . S
C2111 C2112 1.392 . S
C2111 C2115 1.495 . S
C2112 C2111 1.392 . S
C2112 C2113 1.385 . S
C2112 C2114 1.478 . S
C2113 H2107 0.930 . S
C2113 C2109 1.400 . S
C2113 C2112 1.385 . S
C2114 C2112 1.478 . S
C2114 C2116 1.381 . S
C2114 C2120 1.383 . S
C2115 C2111 1.495 . S
C2115 H2121 0.959 . S
C2115 H2122 0.961 . S
C2115 H2123 0.960 . S
C2116 C2114 1.381 . S
C2116 C2117 1.394 . S
C2116 H2124 0.930 . S
C2117 C2116 1.394 . S
C2117 C2118 1.383 . S
C2117 H2125 0.929 . S
C2118 C2117 1.383 . S
C2118 C2119 1.377 . S
C2119 H2103 0.930 . S
C2119 C2118 1.377 . S
C2119 C2120 1.379 . S
C2120 H2104 0.931 . S
C2120 C2114 1.383 . S
C2120 C2119 1.379 . S
H2121 C2115 0.959 . S
H2122 C2115 0.961 . S
H2123 C2115 0.960 . S
H2124 C2116 0.930 . S
H2125 C2117 0.929 . S
H2126 C2134 0.929 . S
H2127 C2136 0.930 . S
H2128 C2138 0.930 . S
H2129 C2141 0.929 . S
H2130 C2144 0.930 . S
H2131 C2146 0.960 . S
H2132 C2146 0.960 . S
H2133 C2146 0.960 . S
C2134 H2126 0.929 . S
C2134 C2135 1.377 . S
C2134 C2136 1.384 . S
C2135 C2134 1.377 . S
C2135 C2141 1.390 . S
C2136 H2127 0.930 . S
C2136 C2134 1.384 . S
C2136 C2137 1.372 . S
C2137 C2136 1.372 . S
C2137 C2138 1.400 . S
C2137 C2142 1.490 . S
C2138 H2128 0.930 . S
C2138 C2137 1.400 . S
C2138 C2141 1.386 . S
H2139 C2155 0.930 . S
H2140 C2156 0.931 . S
C2141 H2129 0.929 . S
C2141 C2135 1.390 . S
C2141 C2138 1.386 . S
C2142 C2137 1.490 . S
C2142 C2144 1.395 . S
C2142 C2145 1.403 . S
H2143 C2149 0.930 . S
C2144 H2130 0.930 . S
C2144 C2142 1.395 . S
C2144 C2147 1.403 . S
C2145 C2142 1.403 . S
C2145 C2146 1.524 . S
C2145 C2149 1.400 . S
C2146 H2131 0.960 . S
C2146 H2132 0.960 . S
C2146 H2133 0.960 . S
C2146 C2145 1.524 . S
C2147 C2144 1.403 . S
C2147 C2148 1.392 . S
C2147 C2151 1.495 . S
C2148 C2147 1.392 . S
C2148 C2149 1.385 . S
C2148 C2150 1.478 . S
C2149 H2143 0.930 . S
C2149 C2145 1.400 . S
C2149 C2148 1.385 . S
C2150 C2148 1.478 . S
C2150 C2152 1.381 . S
C2150 C2156 1.383 . S
C2151 C2147 1.495 . S
C2151 H2157 0.959 . S
C2151 H2158 0.961 . S
C2151 H2159 0.960 . S
C2152 C2150 1.381 . S
C2152 C2153 1.394 . S
C2152 H2160 0.930 . S
C2153 C2152 1.394 . S
C2153 C2154 1.383 . S
C2153 H2161 0.929 . S
C2154 C2153 1.383 . S
C2154 C2155 1.377 . S
C2155 H2139 0.930 . S
C2155 C2154 1.377 . S
C2155 C2156 1.379 . S
C2156 H2140 0.931 . S
C2156 C2150 1.383 . S
C2156 C2155 1.379 . S
H2157 C2151 0.959 . S
H2158 C2151 0.961 . S
H2159 C2151 0.960 . S
H2160 C2152 0.930 . S
H2161 C2153 0.929 . S
H2162 C2170 0.929 . S
H2163 C2172 0.930 . S
H2164 C2174 0.930 . S
H2165 C2177 0.929 . S
H2166 C2180 0.930 . S
H2167 C2182 0.960 . S
H2168 C2182 0.960 . S
H2169 C2182 0.960 . S
C2170 H2162 0.929 . S
C2170 C2171 1.377 . S
C2170 C2172 1.384 . S
C2171 C2170 1.377 . S
C2171 C2177 1.390 . S
C2172 H2163 0.930 . S
C2172 C2170 1.384 . S
C2172 C2173 1.372 . S
C2173 C2172 1.372 . S
C2173 C2174 1.400 . S
C2173 C2178 1.490 . S
C2174 H2164 0.930 . S
C2174 C2173 1.400 . S
C2174 C2177 1.386 . S
H2175 C2191 0.930 . S
H2176 C2192 0.931 . S
C2177 H2165 0.929 . S
C2177 C2171 1.390 . S
C2177 C2174 1.386 . S
C2178 C2173 1.490 . S
C2178 C2180 1.395 . S
C2178 C2181 1.403 . S
H2179 C2185 0.930 . S
C2180 H2166 0.930 . S
C2180 C2178 1.395 . S
C2180 C2183 1.403 . S
C2181 C2178 1.403 . S
C2181 C2182 1.524 . S
C2181 C2185 1.400 . S
C2182 H2167 0.960 . S
C2182 H2168 0.960 . S
C2182 H2169 0.960 . S
C2182 C2181 1.524 . S
C2183 C2180 1.403 . S
C2183 C2184 1.392 . S
C2183 C2187 1.495 . S
C2184 C2183 1.392 . S
C2184 C2185 1.385 . S
C2184 C2186 1.478 . S
C2185 H2179 0.930 . S
C2185 C2181 1.400 . S
C2185 C2184 1.385 . S
C2186 C2184 1.478 . S
C2186 C2188 1.381 . S
C2186 C2192 1.383 . S
C2187 C2183 1.495 . S
C2187 H2193 0.959 . S
C2187 H2194 0.961 . S
C2187 H2195 0.960 . S
C2188 C2186 1.381 . S
C2188 C2189 1.394 . S
C2188 H2196 0.930 . S
C2189 C2188 1.394 . S
C2189 C2190 1.383 . S
C2189 H2197 0.929 . S
C2190 C2189 1.383 . S
C2190 C2191 1.377 . S
C2191 H2175 0.930 . S
C2191 C2190 1.377 . S
C2191 C2192 1.379 . S
C2192 H2176 0.931 . S
C2192 C2186 1.383 . S
C2192 C2191 1.379 . S
H2193 C2187 0.959 . S
H2194 C2187 0.961 . S
H2195 C2187 0.960 . S
H2196 C2188 0.930 . S
H2197 C2189 0.929 . S
H2198 C2206 0.929 . S
H2199 C2208 0.930 . S
H2200 C2210 0.930 . S
H2201 C2213 0.929 . S
H2202 C2216 0.930 . S
H2203 C2218 0.960 . S
H2204 C2218 0.960 . S
H2205 C2218 0.960 . S
C2206 H2198 0.929 . S
C2206 C2207 1.377 . S
C2206 C2208 1.384 . S
C2207 C2206 1.377 . S
C2207 C2213 1.390 . S
C2208 H2199 0.930 . S
C2208 C2206 1.384 . S
C2208 C2209 1.372 . S
C2209 C2208 1.372 . S
C2209 C2210 1.400 . S
C2209 C2214 1.490 . S
C2210 H2200 0.930 . S
C2210 C2209 1.400 . S
C2210 C2213 1.386 . S
H2211 C2227 0.930 . S
H2212 C2228 0.931 . S
C2213 H2201 0.929 . S
C2213 C2207 1.390 . S
C2213 C2210 1.386 . S
C2214 C2209 1.490 . S
C2214 C2216 1.395 . S
C2214 C2217 1.403 . S
H2215 C2221 0.930 . S
C2216 H2202 0.930 . S
C2216 C2214 1.395 . S
C2216 C2219 1.403 . S
C2217 C2214 1.403 . S
C2217 C2218 1.524 . S
C2217 C2221 1.400 . S
C2218 H2203 0.960 . S
C2218 H2204 0.960 . S
C2218 H2205 0.960 . S
C2218 C2217 1.524 . S
C2219 C2216 1.403 . S
C2219 C2220 1.392 . S
C2219 C2223 1.495 . S
C2220 C2219 1.392 . S
C2220 C2221 1.385 . S
C2220 C2222 1.478 . S
C2221 H2215 0.930 . S
C2221 C2217 1.400 . S
C2221 C2220 1.385 . S
C2222 C2220 1.478 . S
C2222 C2224 1.381 . S
C2222 C2228 1.383 . S
C2223 C2219 1.495 . S
C2223 H2229 0.959 . S
C2223 H2230 0.961 . S
C2223 H2231 0.960 . S
C2224 C2222 1.381 . S
C2224 C2225 1.394 . S
C2224 H2232 0.930 . S
C2225 C2224 1.394 . S
C2225 C2226 1.383 . S
C2225 H2233 0.929 . S
C2226 C2225 1.383 . S
C2226 C2227 1.377 . S
C2227 H2211 0.930 . S
C2227 C2226 1.377 . S
C2227 C2228 1.379 . S
C2228 H2212 0.931 . S
C2228 C2222 1.383 . S
C2228 C2227 1.379 . S
H2229 C2223 0.959 . S
H2230 C2223 0.961 . S
H2231 C2223 0.960 . S
H2232 C2224 0.930 . S
H2233 C2225 0.929 . S
C534 C331 1.901 . S
C515 C3 1.930 . S
C570 C321 1.045 . S
C551 C49 1.034 . S
C606 C322 0.799 . S
C587 C95 0.827 . S
C623 C146 0.383 . S
C642 C344 0.492 . S
C659 C186 1.165 . S
C678 C347 1.129 . S
C714 C330 0.776 . S
C695 C215 0.805 . S
C731 C249 0.324 . S
C750 C320 0.500 . S
C767 C302 1.921 . S
C786 C338 1.904 . S
C822 C351 3.200 . S
C803 C2 3.317 . S
C839 C43 2.159 . S
C858 C400 2.109 . S
C894 C378 3.336 . S
C875 C102 3.371 . S
C930 C392 1.131 . S
C911 C135 1.133 . S
C947 C175 1.118 . S
C966 C353 1.102 . S
C1002 C406 2.257 . S
C983 C222 2.304 . S
C1019 C243 2.146 . S
C1038 C362 2.121 . S
C1055 C306 1.431 . S
C1074 C383 1.344 . S
C1091 C9 0.953 . S
C1110 C409 0.901 . S
C1127 C182 1.674 . S
C1146 C393 1.603 . S
C1182 C352 1.715 1_556 S
C1163 C226 1.731 . S
C1218 C384 0.567 . S
C1199 C242 0.515 . S
C1235 C295 2.888 . S
C1254 C375 2.819 . S
C1271 C106 0.860 . S
C1290 C382 0.873 . S
C1326 C369 1.607 . S
C1307 C142 1.686 . S
C1343 C42 0.514 . S
C1362 C361 0.574 . S
C1379 C283 1.921 . S
C1398 C424 1.870 . S
C1415 C169 1.170 . S
C1434 C414 1.180 . S
C1470 C415 0.766 . S
C1451 C202 0.797 . S
C1506 C437 0.543 . S
C1487 C266 0.320 . S
C1523 C66 1.027 . S
C1542 C440 0.999 . S
C1578 C423 0.785 . S
C1559 C82 0.818 . S
C1595 C129 0.363 . S
C1614 C413 0.492 . S
C1631 C22 1.931 . S
C1650 C431 1.898 . S
C1667 C282 2.888 . S
C1686 C444 2.818 . S
C1722 C493 1.644 . S
C1703 C163 1.676 . S
C1739 C209 1.730 . S
C1758 C471 1.693 . S
C1775 C255 0.510 . S
C1794 C485 0.558 . S
C1830 C446 0.622 . S
C1811 C55 0.533 . S
C1847 C89 0.847 . S
C1866 C499 0.890 . S
C1902 C455 1.647 . S
C1883 C123 1.686 . S
C1938 C476 0.924 . S
C1919 C26 0.959 . S
C1974 C502 1.384 . S
C1955 C289 1.427 . S
C1991 C62 2.160 . S
C2010 C486 2.084 . S
C2027 C83 3.373 . S
C2046 C445 3.340 . S
C2082 C477 1.096 . S
C2063 C122 1.138 . S
C2099 C15 3.316 . S
C2118 C468 3.217 . S
C2135 C203 2.306 . S
C2154 C475 2.235 . S
C2190 C462 2.110 . S
C2171 C262 2.148 . S
C2226 C454 1.129 . S
C2207 C162 1.117 . S
