# Generated by pormake.
# Topology zzz, (3,6)-cn, num edge types: 1
# Building blocks:
#     Node 0, Type 0, BuildingBlock: OLANEW_clean_sbu_2, # of connection points: 3
#     Node 1, Type 0, BuildingBlock: OLANEW_clean_sbu_2, # of connection points: 3
#     Node 2, Type 0, BuildingBlock: OLANEW_clean_sbu_2, # of connection points: 3
#     Node 3, Type 0, BuildingBlock: OLANEW_clean_sbu_2, # of connection points: 3
#     Node 4, Type 0, BuildingBlock: OLANEW_clean_sbu_2, # of connection points: 3
#     Node 5, Type 0, BuildingBlock: OLANEW_clean_sbu_2, # of connection points: 3
#     Node 6, Type 0, BuildingBlock: OLANEW_clean_sbu_2, # of connection points: 3
#     Node 7, Type 0, BuildingBlock: OLANEW_clean_sbu_2, # of connection points: 3
#     Node 8, Type 1, BuildingBlock: BETFEN_clean_sbu_0, # of connection points: 6
#     Node 9, Type 1, BuildingBlock: BETFEN_clean_sbu_0, # of connection points: 6
#     Node 10, Type 1, BuildingBlock: BETFEN_clean_sbu_0, # of connection points: 6
#     Node 11, Type 1, BuildingBlock: BETFEN_clean_sbu_0, # of connection points: 6
#     Edge 12, Type (0, 1), BuildingBlock: OJICUG_clean_linker_0, # of connection points: 2
#     Edge 13, Type (0, 1), BuildingBlock: OJICUG_clean_linker_0, # of connection points: 2
#     Edge 14, Type (0, 1), BuildingBlock: OJICUG_clean_linker_0, # of connection points: 2
#     Edge 15, Type (0, 1), BuildingBlock: OJICUG_clean_linker_0, # of connection points: 2
#     Edge 16, Type (0, 1), BuildingBlock: OJICUG_clean_linker_0, # of connection points: 2
#     Edge 17, Type (0, 1), BuildingBlock: OJICUG_clean_linker_0, # of connection points: 2
#     Edge 18, Type (0, 1), BuildingBlock: OJICUG_clean_linker_0, # of connection points: 2
#     Edge 19, Type (0, 1), BuildingBlock: OJICUG_clean_linker_0, # of connection points: 2
#     Edge 20, Type (0, 1), BuildingBlock: OJICUG_clean_linker_0, # of connection points: 2
#     Edge 21, Type (0, 1), BuildingBlock: OJICUG_clean_linker_0, # of connection points: 2
#     Edge 22, Type (0, 1), BuildingBlock: OJICUG_clean_linker_0, # of connection points: 2
#     Edge 23, Type (0, 1), BuildingBlock: OJICUG_clean_linker_0, # of connection points: 2
#     Edge 24, Type (0, 1), BuildingBlock: OJICUG_clean_linker_0, # of connection points: 2
#     Edge 25, Type (0, 1), BuildingBlock: OJICUG_clean_linker_0, # of connection points: 2
#     Edge 26, Type (0, 1), BuildingBlock: OJICUG_clean_linker_0, # of connection points: 2
#     Edge 27, Type (0, 1), BuildingBlock: OJICUG_clean_linker_0, # of connection points: 2
#     Edge 28, Type (0, 1), BuildingBlock: OJICUG_clean_linker_0, # of connection points: 2
#     Edge 29, Type (0, 1), BuildingBlock: OJICUG_clean_linker_0, # of connection points: 2
#     Edge 30, Type (0, 1), BuildingBlock: OJICUG_clean_linker_0, # of connection points: 2
#     Edge 31, Type (0, 1), BuildingBlock: OJICUG_clean_linker_0, # of connection points: 2
#     Edge 32, Type (0, 1), BuildingBlock: OJICUG_clean_linker_0, # of connection points: 2
#     Edge 33, Type (0, 1), BuildingBlock: OJICUG_clean_linker_0, # of connection points: 2
#     Edge 34, Type (0, 1), BuildingBlock: OJICUG_clean_linker_0, # of connection points: 2
#     Edge 35, Type (0, 1), BuildingBlock: OJICUG_clean_linker_0, # of connection points: 2
# Relax obj value: 0.312
# Max RMSD: 0.211
# Mean RMSD: 0.173
data_MOF--net-zzz--node1-OLANEW_clean_sbu_2--node2-BETFEN_clean_sbu_0--edge1-OJICUG_clean_linker_0
_symmetry_space_group_name_H-M    P1
_symmetry_Int_Tables_number       1
_symmetry_cell_setting            triclinic
loop_
_symmetry_equiv_pos_as_xyz
'x, y, z'
_cell_length_a     42.611463
_cell_length_b     42.631759
_cell_length_c     11.617522
_cell_angle_alpha  89.701901
_cell_angle_beta   89.830829
_cell_angle_gamma 90.01102
loop_
_atom_site_label
_atom_site_type_symbol
_atom_site_fract_x
_atom_site_fract_y
_atom_site_fract_z
_atom_type_partial_charge
O0 O 0.72685 0.43954 0.39939 0.0
Cd1 Cd 0.67466 0.44785 0.48138 0.0
O2 O 0.73964 0.48393 0.48053 0.0
Cd3 Cd 0.768 0.52641 0.49745 0.0
O4 O 0.7848 0.57605 0.4583 0.0
C5 C 0.81312 0.58338 0.43303 0.0
O6 O 0.78395 0.57713 0.45831 0.0
C7 C 0.74699 0.461 0.41623 0.0
C8 C 0.63227 0.46063 0.30459 0.0
O9 O 0.64999 0.4822 0.34491 0.0
O10 O 0.63419 0.43311 0.34894 0.0
O11 O 0.98101 0.73088 0.22523 0.0
Cd12 Cd 0.96036 0.67784 0.24779 0.0
O13 O 0.97667 0.73368 0.41242 0.0
Cd14 Cd 0.97273 0.76054 0.56982 0.0
O15 O 0.96511 0.8053 0.65174 0.0
C16 C 0.97681 0.8133 0.74749 0.0
O17 O 0.99388 0.79309 0.80573 0.0
C18 C 0.98343 0.74677 0.31687 0.0
C19 C 0.97262 0.63962 0.05993 0.0
O20 O 0.94895 0.65817 0.06012 0.0
O21 O 0.99062 0.63942 0.14818 0.0
O22 O 0.7529 0.04726 0.46746 0.0
Cd23 Cd 0.80503 0.03946 0.55066 0.0
O24 O 0.74238 -0.00025 0.52827 0.0
Cd25 Cd 0.71681 0.95515 0.53072 0.0
O26 O 0.70247 0.90484 0.49096 0.0
C27 C 0.67425 0.89627 0.47062 0.0
O28 O 0.70339 0.90379 0.4907 0.0
C29 C 0.73383 0.02441 0.47469 0.0
C30 C 0.84987 0.02908 0.37894 0.0
O31 O 0.83316 0.00648 0.41878 0.0
O32 O 0.84552 0.05651 0.4207 0.0
O33 O 0.53067 0.77116 0.23573 0.0
Cd34 Cd 0.54758 0.82512 0.2652 0.0
O35 O 0.5066 0.77208 0.40264 0.0
Cd36 Cd 0.48608 0.74584 0.54443 0.0
O37 O 0.48878 0.69761 0.60215 0.0
C38 C 0.50483 0.68925 0.68886 0.0
O39 O 0.51816 0.71064 0.75341 0.0
C40 C 0.51437 0.7573 0.31211 0.0
C41 C 0.52803 0.86268 0.08312 0.0
O42 O 0.55333 0.84653 0.07663 0.0
O43 O 0.51205 0.86139 0.17667 0.0
O44 O 0.28162 0.51512 0.17424 0.0
Cd45 Cd 0.33663 0.50678 0.12596 0.0
O46 O 0.27187 0.47986 0.0428 0.0
Cd47 Cd 0.23955 0.45477 0.93111 0.0
O48 O 0.19408 0.45063 0.84846 0.0
C49 C 0.17728 0.47496 0.86116 0.0
O50 O 0.18915 0.49933 0.91429 0.0
C51 C 0.26196 0.49838 0.12044 0.0
C52 C 0.372 0.50525 0.32617 0.0
O53 O 0.37078 0.53017 0.26411 0.0
O54 O 0.3569 0.48099 0.29259 0.0
O55 O 0.02124 0.25496 0.20786 0.0
Cd56 Cd 0.04087 0.30125 0.10713 0.0
O57 O 0.98225 0.24784 0.08792 0.0
Cd58 Cd 0.00847 0.27196 0.95243 0.0
O59 O 0.01942 0.22532 0.88658 0.0
C60 C 0.03695 0.20764 0.94715 0.0
O61 O 0.05232 0.2198 0.03396 0.0
C62 C 0.99594 0.24097 0.18169 0.0
C63 C 0.02543 0.35128 0.2486 0.0
O64 O 0.00774 0.34397 0.16383 0.0
O65 O 0.05098 0.3359 0.26258 0.0
O66 O 0.21177 0.00837 0.23038 0.0
Cd67 Cd 0.15762 0.02576 0.19896 0.0
O68 O 0.22647 0.04286 0.09989 0.0
Cd69 Cd 0.26485 0.06699 0.01133 0.0
O70 O 0.31339 0.06836 0.95226 0.0
C71 C 0.31941 0.05719 0.85357 0.0
O72 O 0.29603 0.04775 0.78887 0.0
C73 C 0.23342 0.02131 0.17154 0.0
C74 C 0.12025 0.02039 0.39581 0.0
O75 O 0.12005 0.99891 0.319 0.0
O76 O 0.13808 0.04423 0.37948 0.0
O77 O 0.59725 0.22979 0.19336 0.0
Cd78 Cd 0.6061 0.1777 0.11165 0.0
O79 O 0.548 0.22705 0.13991 0.0
Cd80 Cd 0.50116 0.2473 0.12795 0.0
O81 O 0.47493 0.28973 0.09104 0.0
C82 C 0.47368 0.2982 0.98626 0.0
O83 O 0.48446 0.27905 0.90718 0.0
C84 C 0.57027 0.24228 0.18638 0.0
C85 C 0.5855 0.1313 0.26334 0.0
O86 O 0.6132 0.14284 0.27038 0.0
O87 O 0.56753 0.14136 0.18293 0.0
Pr88 Pr 0.01074 0.00282 0.01042 0.0
Pr89 Pr 0.97151 0.01729 0.801 0.0
C90 C 0.0293 0.97619 0.20862 0.0
C91 C 0.02174 0.94439 0.25195 0.0
C92 C 0.04566 0.92435 0.29073 0.0
C93 C 0.03947 0.89249 0.31141 0.0
C94 C 0.00929 0.88013 0.29248 0.0
C95 C 0.98511 0.90062 0.25909 0.0
C96 C 0.99125 0.93232 0.23888 0.0
C97 C 0.04601 0.00906 0.81057 0.0
C98 C 0.97712 0.94432 0.86152 0.0
C99 C 0.94642 0.04131 0.6078 0.0
C100 C 0.95254 0.07002 0.54077 0.0
C101 C 0.92739 0.08899 0.50602 0.0
C102 C 0.93295 0.11743 0.44912 0.0
C103 C 0.96383 0.12755 0.42776 0.0
C104 C 0.98898 0.10842 0.46249 0.0
C105 C 0.98341 0.07996 0.51867 0.0
C106 C 0.9374 0.01128 0.00505 0.0
C107 C 0.01158 0.07489 0.92836 0.0
O108 O 0.0059 0.99608 0.20315 0.0
O109 O 0.04717 0.97703 0.11694 0.0
O110 O 0.02008 0.99477 0.81765 0.0
O111 O 0.05542 0.01937 0.90998 0.0
O112 O 0.97148 0.96384 0.77628 0.0
O113 O 0.98787 0.95424 0.96137 0.0
O114 O 0.96841 0.01988 0.60701 0.0
O115 O 0.93414 0.04564 0.70964 0.0
O116 O 0.96267 0.02632 0.99343 0.0
O117 O 0.92878 0.99845 0.90907 0.0
O118 O 0.01487 0.05714 0.02099 0.0
O119 O 9e-05 0.06351 0.8318 0.0
H120 H 0.06943 0.933 0.29993 0.0
H121 H 0.05863 0.87726 0.33655 0.0
H122 H 0.96153 0.89194 0.2454 0.0
H123 H 0.97232 0.94706 0.20798 0.0
H124 H 0.90344 0.08194 0.52414 0.0
H125 H 0.91313 0.13182 0.4242 0.0
H126 H 0.01302 0.11544 0.44606 0.0
H127 H 0.00328 0.066 0.54631 0.0
Pr128 Pr 0.51962 0.00484 0.78502 0.0
Pr129 Pr 0.49168 0.98616 0.52895 0.0
C130 C 0.53737 0.00277 0.00678 0.0
C131 C 0.56518 0.0095 0.07677 0.0
C132 C 0.56211 0.01299 0.19613 0.0
C133 C 0.58858 0.01845 0.26405 0.0
C134 C 0.61859 0.02049 0.21354 0.0
C135 C 0.62136 0.01752 0.09325 0.0
C136 C 0.59488 0.01215 0.02549 0.0
C137 C 0.53805 0.04859 0.61674 0.0
C138 C 0.56449 0.96829 0.58766 0.0
C139 C 0.46255 0.98428 0.32406 0.0
C140 C 0.43022 0.99145 0.28795 0.0
C141 C 0.41531 0.97277 0.20546 0.0
C142 C 0.38331 0.97683 0.18225 0.0
C143 C 0.36569 0.99939 0.24237 0.0
C144 C 0.38102 0.01874 0.32204 0.0
C145 C 0.41297 0.01488 0.34427 0.0
C146 C 0.49086 0.94063 0.70113 0.0
C147 C 0.44559 0.02315 0.7213 0.0
O148 O 0.53946 0.97862 0.93743 0.0
O149 O 0.52324 0.0271 0.96075 0.0
O150 O 0.52063 0.02515 0.6053 0.0
O151 O 0.54675 0.05065 0.72365 0.0
O152 O 0.54479 0.97605 0.50414 0.0
O153 O 0.55845 0.97308 0.69861 0.0
O154 O 0.47985 0.00807 0.35663 0.0
O155 O 0.4654 0.95969 0.39119 0.0
O156 O 0.48467 0.96927 0.71392 0.0
O157 O 0.49634 0.93406 0.59354 0.0
O158 O 0.46736 0.02108 0.80203 0.0
O159 O 0.45006 0.01337 0.6146 0.0
H160 H 0.53928 0.01122 0.23694 0.0
H161 H 0.58551 0.02101 0.3561 0.0
H162 H 0.6441 0.01845 0.05156 0.0
H163 H 0.59763 0.00958 0.93325 0.0
H164 H 0.42819 0.95445 0.16153 0.0
H165 H 0.37213 0.96158 0.12038 0.0
H166 H 0.36823 0.03674 0.36801 0.0
H167 H 0.42401 0.02972 0.40773 0.0
Pr168 Pr 0.48007 0.50313 0.94341 0.0
Pr169 Pr 0.51349 0.48312 0.72048 0.0
C170 C 0.46618 0.53101 0.14469 0.0
C171 C 0.47057 0.56334 0.18898 0.0
C172 C 0.44847 0.58703 0.16536 0.0
C173 C 0.45459 0.61822 0.19497 0.0
C174 C 0.48292 0.62639 0.24872 0.0
C175 C 0.50424 0.60252 0.27781 0.0
C176 C 0.49806 0.57133 0.24891 0.0
C177 C 0.44262 0.50283 0.74784 0.0
C178 C 0.51481 0.55699 0.77904 0.0
C179 C 0.52935 0.45785 0.51588 0.0
C180 C 0.53639 0.42673 0.46538 0.0
C181 C 0.56477 0.41112 0.4882 0.0
C182 C 0.57088 0.38169 0.44012 0.0
C183 C 0.54869 0.36701 0.36857 0.0
C184 C 0.52047 0.38293 0.34482 0.0
C185 C 0.51452 0.41247 0.39204 0.0
C186 C 0.55104 0.48273 0.91649 0.0
C187 C 0.47527 0.42949 0.88315 0.0
O188 O 0.49176 0.51458 0.1282 0.0
O189 O 0.44553 0.52719 0.06265 0.0
O190 O 0.4702 0.51312 0.75323 0.0
O191 O 0.43261 0.49271 0.84729 0.0
O192 O 0.51364 0.53706 0.69279 0.0
O193 O 0.50901 0.54771 0.88561 0.0
O194 O 0.50028 0.46281 0.54773 0.0
O195 O 0.54989 0.47003 0.58648 0.0
O196 O 0.52338 0.4726 0.91082 0.0
O197 O 0.56095 0.4929 0.81712 0.0
O198 O 0.47349 0.44969 0.96843 0.0
O199 O 0.48623 0.43762 0.78043 0.0
H200 H 0.42687 0.58168 0.12062 0.0
H201 H 0.43771 0.63612 0.17148 0.0
H202 H 0.52598 0.60806 0.32136 0.0
H203 H 0.51533 0.55362 0.27038 0.0
H204 H 0.58238 0.42161 0.54291 0.0
H205 H 0.5932 0.37064 0.45831 0.0
H206 H 0.50261 0.3724 0.29139 0.0
H207 H 0.49257 0.42406 0.37191 0.0
Pr208 Pr 0.97333 0.48563 0.75299 0.0
Pr209 Pr 0.99979 0.50791 0.51742 0.0
C210 C 0.94813 0.47823 0.96458 0.0
C211 C 0.91872 0.4738 0.02833 0.0
C212 C 0.92001 0.46584 0.14531 0.0
C213 C 0.89241 0.46228 0.20916 0.0
C214 C 0.86298 0.46667 0.1569 0.0
C215 C 0.86186 0.47445 0.03893 0.0
C216 C 0.88954 0.47798 0.9751 0.0
C217 C 0.98271 0.43863 0.59154 0.0
C218 C 0.92445 0.51457 0.55078 0.0
C219 C 0.03203 0.51517 0.31941 0.0
C220 C 0.06514 0.51136 0.28513 0.0
C221 C 0.07902 0.53322 0.21017 0.0
C222 C 0.11096 0.53116 0.18317 0.0
C223 C 0.12956 0.50699 0.22984 0.0
C224 C 0.11545 0.48493 0.30415 0.0
C225 C 0.08359 0.48718 0.332 0.0
C226 C 0.99292 0.55412 0.68445 0.0
C227 C 0.04857 0.48221 0.71812 0.0
O228 O 0.95252 0.50564 0.91583 0.0
O229 O 0.95795 0.45476 0.90204 0.0
O230 O 0.97086 0.46511 0.57049 0.0
O231 O 0.98876 0.43505 0.70033 0.0
O232 O 0.94703 0.51222 0.47331 0.0
O233 O 0.92909 0.50805 0.66124 0.0
O234 O 0.01651 0.48957 0.34548 0.0
O235 O 0.02622 0.53835 0.38953 0.0
O236 O 0.00386 0.52711 0.70033 0.0
O237 O 0.9855 0.55879 0.57723 0.0
O238 O 0.02656 0.48846 0.79451 0.0
O239 O 0.04259 0.48276 0.60676 0.0
H240 H 0.94243 0.46253 0.18747 0.0
H241 H 0.89416 0.45592 0.2993 0.0
H242 H 0.83963 0.47844 0.99641 0.0
H243 H 0.88821 0.48425 0.88474 0.0
H244 H 0.06521 0.55212 0.17358 0.0
H245 H 0.12106 0.54833 0.12484 0.0
H246 H 0.1292 0.46631 0.34284 0.0
H247 H 0.07352 0.47025 0.39136 0.0
C248 C 0.07536 0.99669 0.50617 0.0
C249 C 0.10078 0.01769 0.50099 0.0
H250 H 0.03767 0.97783 0.60804 0.0
C251 C 0.10763 0.03608 0.59775 0.0
H252 H 0.06941 0.98239 0.43268 0.0
C253 C 0.08982 0.03313 0.69835 0.0
C254 C 0.06449 0.01212 0.70361 0.0
H255 H 0.12706 0.05246 0.59641 0.0
H256 H 0.0958 0.04742 0.77194 0.0
C257 C 0.05717 0.99414 0.60631 0.0
C258 C 0.59063 0.10414 0.45296 0.0
C259 C 0.57415 0.10833 0.34953 0.0
H260 H 0.59172 0.08224 0.61893 0.0
C261 C 0.54611 0.09157 0.33238 0.0
H262 H 0.6123 0.11667 0.46879 0.0
C263 C 0.53452 0.07149 0.41829 0.0
C264 C 0.55054 0.06831 0.523 0.0
H265 H 0.533 0.09419 0.25319 0.0
H266 H 0.51269 0.05917 0.40412 0.0
C267 C 0.57878 0.08457 0.53921 0.0
C268 C 0.41551 0.52495 0.44951 0.0
C269 C 0.38999 0.5046 0.43426 0.0
H270 H 0.45249 0.53988 0.56075 0.0
C271 C 0.38161 0.48381 0.52355 0.0
H272 H 0.42249 0.54113 0.38193 0.0
C273 C 0.3983 0.48362 0.627 0.0
C274 C 0.42407 0.50365 0.64137 0.0
H275 H 0.3619 0.46799 0.514 0.0
H276 H 0.39141 0.46748 0.69483 0.0
C277 C 0.43266 0.52419 0.55165 0.0
C278 C 0.99175 0.39679 0.30714 0.0
C279 C 0.01559 0.3751 0.33311 0.0
H280 H 0.96278 0.43433 0.36927 0.0
C281 C 0.0288 0.37498 0.44377 0.0
H282 H 0.98117 0.39741 0.22248 0.0
C283 C 0.01781 0.3955 0.52782 0.0
C284 C 0.99385 0.41696 0.50225 0.0
H285 H 0.04708 0.35845 0.46654 0.0
H286 H 0.02821 0.39466 0.61278 0.0
C287 C 0.98119 0.41782 0.39086 0.0
C288 C 0.87236 0.99621 0.22034 0.0
C289 C 0.87316 0.02377 0.2863 0.0
H290 H 0.89196 0.9709 0.07784 0.0
C291 C 0.89602 0.04658 0.26115 0.0
H292 H 0.85494 0.97825 0.23727 0.0
C293 C 0.91775 0.04189 0.17265 0.0
C294 C 0.91629 0.0148 0.10472 0.0
H295 H 0.89693 0.06823 0.30902 0.0
H296 H 0.93498 0.05999 0.15481 0.0
C297 C 0.89348 0.99198 0.12922 0.0
C298 C 0.52909 0.87608 0.87375 0.0
C299 C 0.51759 0.88208 0.98496 0.0
H300 H 0.52905 0.88964 0.69596 0.0
C301 C 0.49625 0.90679 0.00131 0.0
H302 H 0.54544 0.85709 0.85858 0.0
C303 C 0.48717 0.92562 0.90838 0.0
C304 C 0.49883 0.91965 0.79749 0.0
H305 H 0.48708 0.91199 0.08618 0.0
H306 H 0.47123 0.94499 0.92334 0.0
C307 C 0.51955 0.89453 0.7806 0.0
C308 C 0.58419 0.44835 0.19048 0.0
C309 C 0.61085 0.4671 0.20763 0.0
H310 H 0.54386 0.43923 0.0863 0.0
C311 C 0.61734 0.49156 0.12943 0.0
H312 H 0.5787 0.4293 0.24899 0.0
C313 C 0.59794 0.49663 0.03415 0.0
C314 C 0.57128 0.47792 0.01755 0.0
H315 H 0.63783 0.50627 0.14031 0.0
H316 H 0.6037 0.51524 0.97383 0.0
C317 C 0.56429 0.45405 0.09739 0.0
C318 C 0.99865 0.59262 0.97512 0.0
C319 C 0.97859 0.6185 0.96195 0.0
H320 H 0.01862 0.55182 0.89747 0.0
C321 C 0.9638 0.62355 0.85536 0.0
H322 H 0.01028 0.58803 0.0563 0.0
C323 C 0.96894 0.603 0.76372 0.0
C324 C 0.98852 0.57684 0.778 0.0
H325 H 0.94825 0.64336 0.84275 0.0
H326 H 0.95715 0.60723 0.68263 0.0
C327 C 0.00337 0.57185 0.88431 0.0
C328 C 0.96053 0.19471 0.2131 0.0
C329 C 0.98504 0.21402 0.25186 0.0
H330 H 0.93479 0.15201 0.23784 0.0
C331 C 0.00112 0.20561 0.35285 0.0
H332 H 0.9478 0.20042 0.1352 0.0
C333 C 0.99369 0.17791 0.4113 0.0
C334 C 0.97 0.15802 0.37017 0.0
H335 H 0.02007 0.21998 0.38527 0.0
H336 H 0.00676 0.17186 0.48814 0.0
C337 C 0.95306 0.16699 0.27181 0.0
C338 C 0.2867 0.00805 0.09557 0.0
C339 C 0.26658 0.01271 0.18991 0.0
H340 H 0.33391 0.00034 0.03794 0.0
C341 C 0.27877 0.01079 0.30168 0.0
H342 H 0.27765 0.00882 0.00856 0.0
C343 C 0.31091 0.00601 0.31864 0.0
C344 C 0.33135 0.00259 0.22408 0.0
H345 H 0.26366 0.01411 0.37576 0.0
H346 H 0.31983 0.00524 0.40584 0.0
C347 C 0.31879 0.00296 0.1124 0.0
C348 C 0.54874 0.29665 0.16697 0.0
C349 C 0.56499 0.27414 0.232 0.0
H350 H 0.53155 0.34372 0.15686 0.0
C351 C 0.57666 0.28242 0.34039 0.0
H352 H 0.54044 0.2911 0.08147 0.0
C353 C 0.57133 0.31242 0.38467 0.0
C354 C 0.55473 0.33509 0.32043 0.0
H355 H 0.58936 0.26544 0.39203 0.0
H356 H 0.57977 0.31759 0.47029 0.0
C357 C 0.54372 0.32682 0.21039 0.0
C358 C 0.21453 0.52977 0.17375 0.0
C359 C 0.22814 0.50067 0.14749 0.0
H360 H 0.17264 0.55463 0.21951 0.0
C361 C 0.20937 0.47361 0.15068 0.0
H362 H 0.2286 0.55094 0.17306 0.0
C363 C 0.17742 0.47565 0.17747 0.0
C364 C 0.16357 0.50483 0.20168 0.0
H365 H 0.21944 0.45079 0.13342 0.0
H366 H 0.16346 0.45442 0.17769 0.0
C367 C 0.1825 0.53187 0.19958 0.0
C368 C 0.97994 0.79872 0.21799 0.0
C369 C 0.99102 0.78063 0.31055 0.0
H370 H 0.97663 0.84425 0.141 0.0
C371 C 0.00891 0.79527 0.39647 0.0
H372 H 0.9662 0.78807 0.15029 0.0
C373 C 0.01509 0.82754 0.39085 0.0
C374 C 0.00328 0.84579 0.29958 0.0
H375 H 0.01842 0.78173 0.46733 0.0
H376 H 0.0287 0.83828 0.45866 0.0
C377 C 0.98575 0.83094 0.21312 0.0
C378 C 0.67747 0.00873 0.4545 0.0
C379 C 0.70348 0.02563 0.41346 0.0
H380 H 0.63048 0.99369 0.42316 0.0
C381 C 0.70054 0.04314 0.3113 0.0
H382 H 0.6786 0.99614 0.53544 0.0
C383 C 0.67268 0.04229 0.24804 0.0
C384 C 0.64713 0.02403 0.28596 0.0
H385 H 0.7201 0.05675 0.27835 0.0
H386 H 0.67131 0.05566 0.16869 0.0
C387 C 0.64966 0.00784 0.39124 0.0
C388 C 0.47658 0.71241 0.33032 0.0
C389 C 0.50632 0.72379 0.29833 0.0
H390 H 0.44586 0.67258 0.34046 0.0
C391 C 0.52822 0.703 0.25033 0.0
H392 H 0.45903 0.7281 0.3652 0.0
C393 C 0.52076 0.67131 0.23643 0.0
C394 C 0.49103 0.65984 0.26841 0.0
H395 H 0.55124 0.71121 0.22425 0.0
H396 H 0.53807 0.65587 0.19838 0.0
C397 C 0.46896 0.68074 0.31519 0.0
C398 C 0.77885 0.44796 0.24214 0.0
C399 C 0.77714 0.46074 0.35318 0.0
H400 H 0.80729 0.4397 0.09314 0.0
C401 C 0.80417 0.474 0.40151 0.0
H402 H 0.75839 0.43739 0.20307 0.0
C403 C 0.83207 0.47559 0.33833 0.0
C404 C 0.83361 0.46378 0.22563 0.0
H405 H 0.80384 0.48302 0.48839 0.0
H406 H 0.85229 0.48659 0.37708 0.0
C407 C 0.80676 0.44958 0.17881 0.0
C408 C 0.02081 0.15988 0.83831 0.0
C409 C 0.03427 0.1732 0.93668 0.0
H410 H 0.00334 0.11849 0.75825 0.0
C411 C 0.04195 0.15361 0.03033 0.0
H412 H 0.01461 0.17436 0.76491 0.0
C413 C 0.03511 0.12153 0.0274 0.0
C414 C 0.02074 0.10838 0.93031 0.0
H415 H 0.05205 0.16323 0.10797 0.0
H416 H 0.04051 0.10721 0.10205 0.0
C417 C 0.01428 0.12782 0.83488 0.0
C418 C 0.35872 0.04134 0.70511 0.0
C419 C 0.3522 0.0515 0.81736 0.0
H420 H 0.39308 0.02453 0.58702 0.0
C421 C 0.377 0.05409 0.89637 0.0
H422 H 0.34015 0.03909 0.64216 0.0
C423 C 0.40756 0.04571 0.8646 0.0
C424 C 0.41392 0.03469 0.75305 0.0
H425 H 0.37269 0.06166 0.98387 0.0
H426 H 0.426 0.04722 0.9283 0.0
C427 C 0.3892 0.03308 0.67334 0.0
C428 C 0.46251 0.35347 0.04456 0.0
C429 C 0.46735 0.33135 0.95697 0.0
H430 H 0.46103 0.40195 0.0899 0.0
C431 C 0.47028 0.34185 0.84262 0.0
H432 H 0.46004 0.34614 0.13355 0.0
C433 C 0.47091 0.3739 0.81752 0.0
C434 C 0.46858 0.39605 0.90633 0.0
H435 H 0.47378 0.3254 0.77303 0.0
H436 H 0.47478 0.38123 0.72919 0.0
C437 C 0.46312 0.38552 0.01948 0.0
C438 C 0.13422 0.45913 0.72736 0.0
C439 C 0.14426 0.47538 0.82538 0.0
H440 H 0.09568 0.44908 0.61467 0.0
C441 C 0.12248 0.49265 0.88976 0.0
H442 H 0.15071 0.4457 0.67638 0.0
C443 C 0.0911 0.4938 0.85697 0.0
C444 C 0.08114 0.47844 0.75699 0.0
H445 H 0.12973 0.50525 0.96574 0.0
H446 H 0.07488 0.50757 0.90794 0.0
C447 C 0.10289 0.46109 0.69222 0.0
C448 C 0.9882 0.85654 0.88693 0.0
C449 C 0.97382 0.84617 0.78534 0.0
H450 H 0.00013 0.89587 0.99208 0.0
C451 C 0.9581 0.86803 0.7152 0.0
H452 H 0.0005 0.84024 0.94257 0.0
C453 C 0.9581 0.89977 0.74282 0.0
C454 C 0.9736 0.91037 0.84166 0.0
H455 H 0.94664 0.86084 0.63651 0.0
H456 H 0.94665 0.91609 0.68481 0.0
C457 C 0.98794 0.88838 0.91528 0.0
C458 C 0.6473 0.93583 0.59688 0.0
C459 C 0.64773 0.91711 0.4976 0.0
H460 H 0.62024 0.96652 0.70433 0.0
C461 C 0.62111 0.91599 0.42743 0.0
H462 H 0.66741 0.93658 0.65359 0.0
C463 C 0.59446 0.93347 0.455 0.0
C464 C 0.59358 0.95161 0.55564 0.0
H465 H 0.62086 0.90142 0.35129 0.0
H466 H 0.57419 0.93199 0.39923 0.0
C467 C 0.62027 0.95269 0.62637 0.0
C468 C 0.51758 0.64479 0.82231 0.0
C469 C 0.50984 0.65562 0.71167 0.0
H470 H 0.52531 0.60476 0.93083 0.0
C471 C 0.50669 0.63397 0.62173 0.0
H472 H 0.52026 0.66106 0.89296 0.0
C473 C 0.51028 0.60197 0.64257 0.0
C474 C 0.51653 0.59091 0.75429 0.0
H475 H 0.50117 0.64172 0.53514 0.0
H476 H 0.5068 0.58587 0.57186 0.0
C477 C 0.52059 0.61263 0.84375 0.0
C478 C 0.86548 0.56275 0.38448 0.0
C479 C 0.83911 0.56152 0.45641 0.0
H480 H 0.91271 0.54805 0.35567 0.0
C481 C 0.83983 0.54246 0.55554 0.0
H482 H 0.86547 0.57748 0.30814 0.0
C483 C 0.86724 0.52611 0.58479 0.0
C484 C 0.89406 0.52813 0.51418 0.0
H485 H 0.81987 0.5415 0.61339 0.0
H486 H 0.8677 0.51261 0.66402 0.0
C487 C 0.8925 0.54586 0.41192 0.0
loop_
_geom_bond_atom_site_label_1
_geom_bond_atom_site_label_2
_geom_bond_distance
_geom_bond_site_symmetry_2
_ccdc_geom_bond_type
O0 Cd1 2.300 . S
O0 C7 1.275 . S
Cd1 O0 2.300 . S
Cd1 O9 2.381 . S
Cd1 O10 2.378 . S
O2 Cd3 2.385 . S
O2 C7 1.255 . S
Cd3 O2 2.385 . S
Cd3 O4 2.317 . S
O4 Cd3 2.317 . S
O4 C5 1.232 . S
C5 O4 1.232 . S
C5 O6 1.218 . S
O6 C5 1.218 . S
C7 O0 1.275 . S
C7 O2 1.255 . S
C8 O9 1.258 . S
C8 O10 1.256 . S
O9 Cd1 2.381 . S
O9 C8 1.258 . S
O10 Cd1 2.378 . S
O10 C8 1.256 . S
O11 Cd12 2.300 1_655 S
O11 C18 1.275 1_655 S
Cd12 O11 2.300 1_455 S
Cd12 O20 2.381 1_455 S
Cd12 O21 2.378 . S
O13 Cd14 2.385 . S
O13 C18 1.255 . S
Cd14 O13 2.385 . S
Cd14 O15 2.317 . S
O15 Cd14 2.317 . S
O15 C16 1.232 . S
C16 O15 1.232 . S
C16 O17 1.218 . S
O17 C16 1.218 . S
C18 O11 1.275 1_455 S
C18 O13 1.255 . S
C19 O20 1.258 1_455 S
C19 O21 1.256 . S
O20 Cd12 2.381 1_655 S
O20 C19 1.258 1_655 S
O21 Cd12 2.378 . S
O21 C19 1.256 . S
O22 Cd23 2.300 1_565 S
O22 C29 1.275 1_565 S
Cd23 O22 2.300 1_545 S
Cd23 O31 2.381 1_545 S
Cd23 O32 2.378 . S
O24 Cd25 2.385 . S
O24 C29 1.255 . S
Cd25 O24 2.385 . S
Cd25 O26 2.317 . S
O26 Cd25 2.317 . S
O26 C27 1.232 . S
C27 O26 1.232 . S
C27 O28 1.218 . S
O28 C27 1.218 . S
C29 O22 1.275 1_545 S
C29 O24 1.255 . S
C30 O31 1.258 1_545 S
C30 O32 1.256 . S
O31 Cd23 2.381 1_565 S
O31 C30 1.258 1_565 S
O32 Cd23 2.378 . S
O32 C30 1.256 . S
O33 Cd34 2.300 . S
O33 C40 1.275 . S
Cd34 O33 2.300 . S
Cd34 O42 2.381 . S
Cd34 O43 2.378 . S
O35 Cd36 2.385 . S
O35 C40 1.255 . S
Cd36 O35 2.385 . S
Cd36 O37 2.317 . S
O37 Cd36 2.317 . S
O37 C38 1.232 . S
C38 O37 1.232 . S
C38 O39 1.218 . S
O39 C38 1.218 . S
C40 O33 1.275 . S
C40 O35 1.255 . S
C41 O42 1.258 . S
C41 O43 1.256 . S
O42 Cd34 2.381 . S
O42 C41 1.258 . S
O43 Cd34 2.378 . S
O43 C41 1.256 . S
O44 Cd45 2.300 . S
O44 C51 1.275 . S
Cd45 O44 2.300 . S
Cd45 O53 2.381 . S
Cd45 O54 2.378 . S
O46 Cd47 2.385 1_554 S
O46 C51 1.255 . S
Cd47 O46 2.385 1_556 S
Cd47 O48 2.317 . S
O48 Cd47 2.317 . S
O48 C49 1.232 . S
C49 O48 1.232 . S
C49 O50 1.218 . S
O50 C49 1.218 . S
C51 O44 1.275 . S
C51 O46 1.255 . S
C52 O53 1.258 . S
C52 O54 1.256 . S
O53 Cd45 2.381 . S
O53 C52 1.258 . S
O54 Cd45 2.378 . S
O54 C52 1.256 . S
O55 Cd56 2.300 1_655 S
O55 C62 1.275 1_655 S
Cd56 O55 2.300 1_455 S
Cd56 O64 2.381 1_455 S
Cd56 O65 2.378 . S
O57 Cd58 2.385 1_554 S
O57 C62 1.255 . S
Cd58 O57 2.385 1_556 S
Cd58 O59 2.317 . S
O59 Cd58 2.317 . S
O59 C60 1.232 . S
C60 O59 1.232 . S
C60 O61 1.218 . S
O61 C60 1.218 . S
C62 O55 1.275 1_455 S
C62 O57 1.255 . S
C63 O64 1.258 1_455 S
C63 O65 1.256 . S
O64 Cd56 2.381 1_655 S
O64 C63 1.258 1_655 S
O65 Cd56 2.378 . S
O65 C63 1.256 . S
O66 Cd67 2.300 1_565 S
O66 C73 1.275 1_565 S
Cd67 O66 2.300 1_545 S
Cd67 O75 2.381 1_545 S
Cd67 O76 2.378 . S
O68 Cd69 2.385 1_554 S
O68 C73 1.255 . S
Cd69 O68 2.385 1_556 S
Cd69 O70 2.317 . S
O70 Cd69 2.317 . S
O70 C71 1.232 . S
C71 O70 1.232 . S
C71 O72 1.218 . S
O72 C71 1.218 . S
C73 O66 1.275 1_545 S
C73 O68 1.255 . S
C74 O75 1.258 1_545 S
C74 O76 1.256 . S
O75 Cd67 2.381 1_565 S
O75 C74 1.258 1_565 S
O76 Cd67 2.378 . S
O76 C74 1.256 . S
O77 Cd78 2.300 . S
O77 C84 1.275 . S
Cd78 O77 2.300 . S
Cd78 O86 2.381 . S
Cd78 O87 2.378 . S
O79 Cd80 2.385 1_554 S
O79 C84 1.255 . S
Cd80 O79 2.385 1_556 S
Cd80 O81 2.317 . S
O81 Cd80 2.317 . S
O81 C82 1.232 . S
C82 O81 1.232 . S
C82 O83 1.218 . S
O83 C82 1.218 . S
C84 O77 1.275 . S
C84 O79 1.255 . S
C85 O86 1.258 . S
C85 O87 1.256 . S
O86 Cd78 2.381 . S
O86 C85 1.258 . S
O87 Cd78 2.378 . S
O87 C85 1.256 . S
Pr88 C90 2.880 1_556 S
Pr88 O108 2.562 1_556 S
Pr88 O109 2.490 . S
Pr88 O110 2.695 1_565 S
Pr88 O111 2.512 . S
Pr88 O113 2.437 . S
Pr88 O116 2.436 1_455 S
Pr88 O118 2.438 1_565 S
Pr89 C99 2.880 . S
Pr89 O110 2.436 1_655 S
Pr89 O112 2.438 1_545 S
Pr89 O114 2.562 . S
Pr89 O115 2.490 . S
Pr89 O116 2.695 1_545 S
Pr89 O117 2.512 . S
Pr89 O119 2.437 . S
C90 Pr88 2.880 1_554 S
C90 C91 1.491 . S
C90 O108 1.254 . S
C90 O109 1.225 1_554 S
C91 C90 1.491 . S
C91 C92 1.392 . S
C91 C96 1.356 . S
C92 C91 1.392 . S
C92 C93 1.368 . S
C92 H120 0.929 . S
C93 C92 1.368 . S
C93 C94 1.386 . S
C93 H121 0.929 . S
C94 C93 1.386 . S
C94 C95 1.373 . S
C95 C94 1.373 . S
C95 C96 1.409 . S
C95 H122 0.931 1_455 S
C96 C91 1.356 . S
C96 C95 1.409 . S
C96 H123 0.930 1_455 S
C97 O110 1.270 1_565 S
C97 O111 1.248 . S
C98 O112 1.267 . S
C98 O113 1.278 1_655 S
C99 Pr89 2.880 . S
C99 C100 1.491 . S
C99 O114 1.254 . S
C99 O115 1.225 . S
C100 C99 1.491 . S
C100 C101 1.392 . S
C100 C105 1.356 . S
C101 C100 1.392 . S
C101 C102 1.368 . S
C101 H124 0.929 . S
C102 C101 1.368 . S
C102 C103 1.386 . S
C102 H125 0.929 . S
C103 C102 1.386 . S
C103 C104 1.373 . S
C104 C103 1.373 . S
C104 C105 1.409 . S
C104 H126 0.925 1_655 S
C105 C100 1.356 . S
C105 C104 1.409 . S
C105 H127 0.930 1_655 S
C106 O116 1.270 1_545 S
C106 O117 1.248 . S
C107 O118 1.267 . S
C107 O119 1.278 1_455 S
O108 Pr88 2.562 1_554 S
O108 C90 1.254 . S
O109 Pr88 2.490 . S
O109 C90 1.225 1_556 S
O110 Pr88 2.695 1_545 S
O110 Pr89 2.436 1_455 S
O110 C97 1.270 1_545 S
O111 Pr88 2.512 . S
O111 C97 1.248 . S
O112 Pr89 2.438 1_565 S
O112 C98 1.267 . S
O113 Pr88 2.437 . S
O113 C98 1.278 1_455 S
O114 Pr89 2.562 . S
O114 C99 1.254 . S
O115 Pr89 2.490 . S
O115 C99 1.225 . S
O116 Pr88 2.436 1_655 S
O116 Pr89 2.695 1_565 S
O116 C106 1.270 1_565 S
O117 Pr89 2.512 . S
O117 C106 1.248 . S
O118 Pr88 2.438 1_545 S
O118 C107 1.267 . S
O119 Pr89 2.437 . S
O119 C107 1.278 1_655 S
H120 C92 0.929 . S
H121 C93 0.929 . S
H122 C95 0.931 1_655 S
H123 C96 0.930 1_655 S
H124 C101 0.929 . S
H125 C102 0.929 . S
H126 C104 0.925 1_455 S
H127 C105 0.930 1_455 S
Pr128 C130 2.880 1_556 S
Pr128 O148 2.562 1_556 S
Pr128 O149 2.490 . S
Pr128 O150 2.695 . S
Pr128 O151 2.512 . S
Pr128 O153 2.437 . S
Pr128 O156 2.436 1_545 S
Pr128 O158 2.438 . S
Pr129 C139 2.880 . S
Pr129 O150 2.436 1_565 S
Pr129 O152 2.438 . S
Pr129 O154 2.562 . S
Pr129 O155 2.490 . S
Pr129 O156 2.695 . S
Pr129 O157 2.512 . S
Pr129 O159 2.437 . S
C130 Pr128 2.880 1_554 S
C130 C131 1.491 . S
C130 O148 1.254 . S
C130 O149 1.225 1_554 S
C131 C130 1.491 . S
C131 C132 1.392 . S
C131 C136 1.356 . S
C132 C131 1.392 . S
C132 C133 1.368 . S
C132 H160 0.929 . S
C133 C132 1.368 . S
C133 C134 1.386 . S
C133 H161 0.929 . S
C134 C133 1.386 . S
C134 C135 1.373 . S
C135 C134 1.373 . S
C135 C136 1.409 . S
C135 H162 0.931 1_545 S
C136 C131 1.356 . S
C136 C135 1.409 . S
C136 H163 0.930 1_545 S
C137 O150 1.270 . S
C137 O151 1.248 . S
C138 O152 1.267 . S
C138 O153 1.278 1_565 S
C139 Pr129 2.880 . S
C139 C140 1.491 . S
C139 O154 1.254 . S
C139 O155 1.225 . S
C140 C139 1.491 . S
C140 C141 1.392 . S
C140 C145 1.356 . S
C141 C140 1.392 . S
C141 C142 1.368 . S
C141 H164 0.929 . S
C142 C141 1.368 . S
C142 C143 1.386 . S
C142 H165 0.929 . S
C143 C142 1.386 . S
C143 C144 1.373 . S
C144 C143 1.373 . S
C144 C145 1.409 . S
C144 H166 0.931 1_565 S
C145 C140 1.356 . S
C145 C144 1.409 . S
C145 H167 0.930 1_565 S
C146 O156 1.270 . S
C146 O157 1.248 . S
C147 O158 1.267 . S
C147 O159 1.278 1_545 S
O148 Pr128 2.562 1_554 S
O148 C130 1.254 . S
O149 Pr128 2.490 . S
O149 C130 1.225 1_556 S
O150 Pr128 2.695 . S
O150 Pr129 2.436 1_545 S
O150 C137 1.270 . S
O151 Pr128 2.512 . S
O151 C137 1.248 . S
O152 Pr129 2.438 . S
O152 C138 1.267 . S
O153 Pr128 2.437 . S
O153 C138 1.278 1_545 S
O154 Pr129 2.562 . S
O154 C139 1.254 . S
O155 Pr129 2.490 . S
O155 C139 1.225 . S
O156 Pr128 2.436 1_565 S
O156 Pr129 2.695 . S
O156 C146 1.270 . S
O157 Pr129 2.512 . S
O157 C146 1.248 . S
O158 Pr128 2.438 . S
O158 C147 1.267 . S
O159 Pr129 2.437 . S
O159 C147 1.278 1_565 S
H160 C132 0.929 . S
H161 C133 0.929 . S
H162 C135 0.931 1_565 S
H163 C136 0.930 1_565 S
H164 C141 0.929 . S
H165 C142 0.929 . S
H166 C144 0.931 1_545 S
H167 C145 0.930 1_545 S
Pr168 C170 2.880 1_556 S
Pr168 O188 2.562 1_556 S
Pr168 O189 2.490 . S
Pr168 O190 2.695 . S
Pr168 O191 2.512 . S
Pr168 O193 2.437 . S
Pr168 O196 2.436 . S
Pr168 O198 2.438 . S
Pr169 C179 2.880 . S
Pr169 O190 2.436 . S
Pr169 O192 2.438 . S
Pr169 O194 2.562 . S
Pr169 O195 2.490 . S
Pr169 O196 2.695 . S
Pr169 O197 2.512 . S
Pr169 O199 2.437 . S
C170 Pr168 2.880 1_554 S
C170 C171 1.491 . S
C170 O188 1.254 . S
C170 O189 1.225 1_554 S
C171 C170 1.491 . S
C171 C172 1.392 . S
C171 C176 1.356 . S
C172 C171 1.392 . S
C172 C173 1.368 . S
C172 H200 0.929 . S
C173 C172 1.368 . S
C173 C174 1.386 . S
C173 H201 0.929 . S
C174 C173 1.386 . S
C174 C175 1.373 . S
C175 C174 1.373 . S
C175 C176 1.409 . S
C175 H202 0.931 . S
C176 C171 1.356 . S
C176 C175 1.409 . S
C176 H203 0.930 . S
C177 O190 1.270 . S
C177 O191 1.248 . S
C178 O192 1.267 . S
C178 O193 1.278 . S
C179 Pr169 2.880 . S
C179 C180 1.491 . S
C179 O194 1.254 . S
C179 O195 1.225 . S
C180 C179 1.491 . S
C180 C181 1.392 . S
C180 C185 1.356 . S
C181 C180 1.392 . S
C181 C182 1.368 . S
C181 H204 0.929 . S
C182 C181 1.368 . S
C182 C183 1.386 . S
C182 H205 0.929 . S
C183 C182 1.386 . S
C183 C184 1.373 . S
C184 C183 1.373 . S
C184 C185 1.409 . S
C184 H206 0.931 . S
C185 C180 1.356 . S
C185 C184 1.409 . S
C185 H207 0.930 . S
C186 O196 1.270 . S
C186 O197 1.248 . S
C187 O198 1.267 . S
C187 O199 1.278 . S
O188 Pr168 2.562 1_554 S
O188 C170 1.254 . S
O189 Pr168 2.490 . S
O189 C170 1.225 1_556 S
O190 Pr168 2.695 . S
O190 Pr169 2.436 . S
O190 C177 1.270 . S
O191 Pr168 2.512 . S
O191 C177 1.248 . S
O192 Pr169 2.438 . S
O192 C178 1.267 . S
O193 Pr168 2.437 . S
O193 C178 1.278 . S
O194 Pr169 2.562 . S
O194 C179 1.254 . S
O195 Pr169 2.490 . S
O195 C179 1.225 . S
O196 Pr168 2.436 . S
O196 Pr169 2.695 . S
O196 C186 1.270 . S
O197 Pr169 2.512 . S
O197 C186 1.248 . S
O198 Pr168 2.438 . S
O198 C187 1.267 . S
O199 Pr169 2.437 . S
O199 C187 1.278 . S
H200 C172 0.929 . S
H201 C173 0.929 . S
H202 C175 0.931 . S
H203 C176 0.930 . S
H204 C181 0.929 . S
H205 C182 0.929 . S
H206 C184 0.931 . S
H207 C185 0.930 . S
Pr208 C210 2.880 1_556 S
Pr208 O228 2.562 1_556 S
Pr208 O229 2.490 . S
Pr208 O230 2.695 1_655 S
Pr208 O231 2.512 . S
Pr208 O233 2.437 . S
Pr208 O236 2.436 . S
Pr208 O238 2.438 1_655 S
Pr209 C219 2.880 . S
Pr209 O230 2.436 . S
Pr209 O232 2.438 1_455 S
Pr209 O234 2.562 . S
Pr209 O235 2.490 . S
Pr209 O236 2.695 1_455 S
Pr209 O237 2.512 . S
Pr209 O239 2.437 . S
C210 Pr208 2.880 1_554 S
C210 C211 1.491 . S
C210 O228 1.254 . S
C210 O229 1.225 1_554 S
C211 C210 1.491 . S
C211 C212 1.392 . S
C211 C216 1.356 . S
C212 C211 1.392 . S
C212 C213 1.368 . S
C212 H240 0.929 . S
C213 C212 1.368 . S
C213 C214 1.386 . S
C213 H241 0.929 . S
C214 C213 1.386 . S
C214 C215 1.373 . S
C215 C214 1.373 . S
C215 C216 1.409 . S
C215 H242 0.931 . S
C216 C211 1.356 . S
C216 C215 1.409 . S
C216 H243 0.930 . S
C217 O230 1.263 1_655 S
C217 O231 1.261 . S
C218 O232 1.267 . S
C218 O233 1.278 . S
C219 Pr209 2.880 . S
C219 C220 1.491 . S
C219 O234 1.254 . S
C219 O235 1.225 . S
C220 C219 1.491 . S
C220 C221 1.392 . S
C220 C225 1.356 . S
C221 C220 1.392 . S
C221 C222 1.368 . S
C221 H244 0.929 . S
C222 C221 1.368 . S
C222 C223 1.386 . S
C222 H245 0.929 . S
C223 C222 1.386 . S
C223 C224 1.373 . S
C224 C223 1.373 . S
C224 C225 1.409 . S
C224 H246 0.931 . S
C225 C220 1.356 . S
C225 C224 1.409 . S
C225 H247 0.930 . S
C226 O236 1.261 1_455 S
C226 O237 1.265 . S
C227 O238 1.267 . S
C227 O239 1.278 . S
O228 Pr208 2.562 1_554 S
O228 C210 1.254 . S
O229 Pr208 2.490 . S
O229 C210 1.225 1_556 S
O230 Pr208 2.695 1_455 S
O230 Pr209 2.436 . S
O230 C217 1.263 1_455 S
O231 Pr208 2.512 . S
O231 C217 1.261 . S
O232 Pr209 2.438 1_655 S
O232 C218 1.267 . S
O233 Pr208 2.437 . S
O233 C218 1.278 . S
O234 Pr209 2.562 . S
O234 C219 1.254 . S
O235 Pr209 2.490 . S
O235 C219 1.225 . S
O236 Pr208 2.436 . S
O236 Pr209 2.695 1_655 S
O236 C226 1.261 1_655 S
O237 Pr209 2.512 . S
O237 C226 1.265 . S
O238 Pr208 2.438 1_455 S
O238 C227 1.267 . S
O239 Pr209 2.437 . S
O239 C227 1.278 . S
H240 C212 0.929 . S
H241 C213 0.929 . S
H242 C215 0.931 . S
H243 C216 0.930 . S
H244 C221 0.929 . S
H245 C222 0.929 . S
H246 C224 0.931 . S
H247 C225 0.930 . S
C248 C249 1.378 1_565 S
C248 H252 0.950 . S
C248 C257 1.390 . S
C249 C248 1.378 1_545 S
C249 C251 1.397 . S
H250 C257 0.950 . S
C251 C249 1.397 . S
C251 C253 1.390 . S
C251 H255 0.950 . S
H252 C248 0.950 . S
C253 C251 1.390 . S
C253 C254 1.416 . S
C253 H256 0.950 . S
C254 C253 1.416 . S
C254 C257 1.358 1_545 S
H255 C251 0.950 . S
H256 C253 0.950 . S
C257 C248 1.390 . S
C257 H250 0.950 . S
C257 C254 1.358 1_565 S
C258 C259 1.387 . S
C258 H262 0.950 . S
C258 C267 1.390 . S
C259 C258 1.387 . S
C259 C261 1.387 . S
H260 C267 0.950 . S
C261 C259 1.387 . S
C261 C263 1.390 . S
C261 H265 0.950 . S
H262 C258 0.950 . S
C263 C261 1.390 . S
C263 C264 1.387 . S
C263 H266 0.950 . S
C264 C263 1.387 . S
C264 C267 1.387 . S
H265 C261 0.950 . S
H266 C263 0.950 . S
C267 C258 1.390 . S
C267 H260 0.950 . S
C267 C264 1.387 . S
C268 C269 1.387 . S
C268 H272 0.950 . S
C268 C277 1.390 . S
C269 C268 1.387 . S
C269 C271 1.387 . S
H270 C277 0.950 . S
C271 C269 1.387 . S
C271 C273 1.390 . S
C271 H275 0.950 . S
H272 C268 0.950 . S
C273 C271 1.390 . S
C273 C274 1.387 . S
C273 H276 0.950 . S
C274 C273 1.387 . S
C274 C277 1.387 . S
H275 C271 0.950 . S
H276 C273 0.950 . S
C277 C268 1.390 . S
C277 H270 0.950 . S
C277 C274 1.387 . S
C278 C279 1.366 1_655 S
C278 H282 0.950 . S
C278 C287 1.390 . S
C279 C278 1.366 1_455 S
C279 C281 1.410 . S
H280 C287 0.950 . S
C281 C279 1.410 . S
C281 C283 1.390 . S
C281 H285 0.950 . S
H282 C278 0.950 . S
C283 C281 1.390 . S
C283 C284 1.387 . S
C283 H286 0.950 . S
C284 C283 1.387 . S
C284 C287 1.387 1_455 S
H285 C281 0.950 . S
H286 C283 0.950 . S
C287 C278 1.390 . S
C287 H280 0.950 . S
C287 C284 1.387 1_655 S
C288 C289 1.390 . S
C288 H292 0.950 . S
C288 C297 1.390 . S
C289 C288 1.390 . S
C289 C291 1.385 1_565 S
H290 C297 0.950 . S
C291 C289 1.385 1_545 S
C291 C293 1.390 . S
C291 H295 0.950 . S
H292 C288 0.950 . S
C293 C291 1.390 . S
C293 C294 1.366 1_545 S
C293 H296 0.950 . S
C294 C293 1.366 1_565 S
C294 C297 1.409 . S
H295 C291 0.950 . S
H296 C293 0.950 . S
C297 C288 1.390 . S
C297 H290 0.950 . S
C297 C294 1.409 . S
C298 C299 1.387 . S
C298 H302 0.950 . S
C298 C307 1.390 . S
C299 C298 1.387 . S
C299 C301 1.387 . S
H300 C307 0.950 1_556 S
C301 C299 1.387 . S
C301 C303 1.390 . S
C301 H305 0.950 . S
H302 C298 0.950 . S
C303 C301 1.390 . S
C303 C304 1.387 . S
C303 H306 0.950 . S
C304 C303 1.387 . S
C304 C307 1.387 . S
H305 C301 0.950 . S
H306 C303 0.950 . S
C307 C298 1.390 . S
C307 H300 0.950 1_554 S
C307 C304 1.387 . S
C308 C309 1.387 . S
C308 H312 0.950 . S
C308 C317 1.390 . S
C309 C308 1.387 . S
C309 C311 1.387 . S
H310 C317 0.950 . S
C311 C309 1.387 . S
C311 C313 1.390 . S
C311 H315 0.950 . S
H312 C308 0.950 . S
C313 C311 1.390 . S
C313 C314 1.387 . S
C313 H316 0.950 . S
C314 C313 1.387 . S
C314 C317 1.387 . S
H315 C311 0.950 . S
H316 C313 0.950 . S
C317 C308 1.390 . S
C317 H310 0.950 . S
C317 C314 1.387 . S
C318 C319 1.371 1_455 S
C318 H322 0.950 . S
C318 C327 1.390 . S
C319 C318 1.371 1_655 S
C319 C321 1.405 . S
H320 C327 0.950 . S
C321 C319 1.405 . S
C321 C323 1.390 . S
C321 H325 0.950 . S
H322 C318 0.950 . S
C323 C321 1.390 . S
C323 C324 1.387 . S
C323 H326 0.950 . S
C324 C323 1.387 . S
C324 C327 1.387 1_655 S
H325 C321 0.950 . S
H326 C323 0.950 . S
C327 C318 1.390 . S
C327 H320 0.950 . S
C327 C324 1.387 1_455 S
C328 C329 1.387 . S
C328 H332 0.950 . S
C328 C337 1.390 . S
C329 C328 1.387 . S
C329 C331 1.387 . S
H330 C337 0.950 . S
C331 C329 1.387 . S
C331 C333 1.390 . S
C331 H335 0.950 . S
H332 C328 0.950 . S
C333 C331 1.390 . S
C333 C334 1.387 . S
C333 H336 0.950 . S
C334 C333 1.387 . S
C334 C337 1.387 . S
H335 C331 0.950 . S
H336 C333 0.950 . S
C337 C328 1.390 . S
C337 H330 0.950 . S
C337 C334 1.387 . S
C338 C339 1.387 . S
C338 H342 0.950 . S
C338 C347 1.390 . S
C339 C338 1.387 . S
C339 C341 1.387 1_565 S
H340 C347 0.950 . S
C341 C339 1.387 1_545 S
C341 C343 1.390 1_545 S
C341 H345 0.950 . S
H342 C338 0.950 . S
C343 C341 1.390 1_565 S
C343 C344 1.387 . S
C343 H346 0.950 . S
C344 C343 1.387 . S
C344 C347 1.387 . S
H345 C341 0.950 . S
H346 C343 0.950 . S
C347 C338 1.390 . S
C347 H340 0.950 . S
C347 C344 1.387 . S
C348 C349 1.387 . S
C348 H352 0.950 . S
C348 C357 1.390 . S
C349 C348 1.387 . S
C349 C351 1.387 . S
H350 C357 0.950 . S
C351 C349 1.387 . S
C351 C353 1.390 . S
C351 H355 0.950 . S
H352 C348 0.950 . S
C353 C351 1.390 . S
C353 C354 1.387 . S
C353 H356 0.950 . S
C354 C353 1.387 . S
C354 C357 1.387 . S
H355 C351 0.950 . S
H356 C353 0.950 . S
C357 C348 1.390 . S
C357 H350 0.950 . S
C357 C354 1.387 . S
C358 C359 1.387 . S
C358 H362 0.950 . S
C358 C367 1.390 . S
C359 C358 1.387 . S
C359 C361 1.387 . S
H360 C367 0.950 . S
C361 C359 1.387 . S
C361 C363 1.390 . S
C361 H365 0.950 . S
H362 C358 0.950 . S
C363 C361 1.390 . S
C363 C364 1.387 . S
C363 H366 0.950 . S
C364 C363 1.387 . S
C364 C367 1.387 . S
H365 C361 0.950 . S
H366 C363 0.950 . S
C367 C358 1.390 . S
C367 H360 0.950 . S
C367 C364 1.387 . S
C368 C369 1.387 . S
C368 H372 0.950 . S
C368 C377 1.390 . S
C369 C368 1.387 . S
C369 C371 1.387 . S
H370 C377 0.950 . S
C371 C369 1.387 . S
C371 C373 1.390 . S
C371 H375 0.950 . S
H372 C368 0.950 . S
C373 C371 1.390 . S
C373 C374 1.387 . S
C373 H376 0.950 . S
C374 C373 1.387 . S
C374 C377 1.387 . S
H375 C371 0.950 . S
H376 C373 0.950 . S
C377 C368 1.390 . S
C377 H370 0.950 . S
C377 C374 1.387 . S
C378 C379 1.387 1_565 S
C378 H382 0.950 . S
C378 C387 1.390 1_565 S
C379 C378 1.387 1_545 S
C379 C381 1.387 . S
H380 C387 0.950 . S
C381 C379 1.387 . S
C381 C383 1.390 . S
C381 H385 0.950 . S
H382 C378 0.950 . S
C383 C381 1.390 . S
C383 C384 1.387 . S
C383 H386 0.950 . S
C384 C383 1.387 . S
C384 C387 1.387 . S
H385 C381 0.950 . S
H386 C383 0.950 . S
C387 C378 1.390 1_545 S
C387 H380 0.950 . S
C387 C384 1.387 . S
C388 C389 1.387 . S
C388 H392 0.950 . S
C388 C397 1.390 . S
C389 C388 1.387 . S
C389 C391 1.387 . S
H390 C397 0.950 . S
C391 C389 1.387 . S
C391 C393 1.390 . S
C391 H395 0.950 . S
H392 C388 0.950 . S
C393 C391 1.390 . S
C393 C394 1.387 . S
C393 H396 0.950 . S
C394 C393 1.387 . S
C394 C397 1.387 . S
H395 C391 0.950 . S
H396 C393 0.950 . S
C397 C388 1.390 . S
C397 H390 0.950 . S
C397 C394 1.387 . S
C398 C399 1.387 . S
C398 H402 0.950 . S
C398 C407 1.390 . S
C399 C398 1.387 . S
C399 C401 1.387 . S
H400 C407 0.950 . S
C401 C399 1.387 . S
C401 C403 1.390 . S
C401 H405 0.950 . S
H402 C398 0.950 . S
C403 C401 1.390 . S
C403 C404 1.387 . S
C403 H406 0.950 . S
C404 C403 1.387 . S
C404 C407 1.387 . S
H405 C401 0.950 . S
H406 C403 0.950 . S
C407 C398 1.390 . S
C407 H400 0.950 . S
C407 C404 1.387 . S
C408 C409 1.387 . S
C408 H412 0.950 . S
C408 C417 1.390 . S
C409 C408 1.387 . S
C409 C411 1.387 1_455 S
H410 C417 0.950 . S
C411 C409 1.387 1_655 S
C411 C413 1.390 . S
C411 H415 0.950 . S
H412 C408 0.950 . S
C413 C411 1.390 . S
C413 C414 1.387 1_655 S
C413 H416 0.950 . S
C414 C413 1.387 1_455 S
C414 C417 1.387 . S
H415 C411 0.950 . S
H416 C413 0.950 . S
C417 C408 1.390 . S
C417 H410 0.950 . S
C417 C414 1.387 . S
C418 C419 1.387 . S
C418 H422 0.950 . S
C418 C427 1.390 . S
C419 C418 1.387 . S
C419 C421 1.387 1_545 S
H420 C427 0.950 . S
C421 C419 1.387 1_565 S
C421 C423 1.390 . S
C421 H425 0.950 . S
H422 C418 0.950 . S
C423 C421 1.390 . S
C423 C424 1.387 1_565 S
C423 H426 0.950 . S
C424 C423 1.387 1_545 S
C424 C427 1.387 . S
H425 C421 0.950 . S
H426 C423 0.950 . S
C427 C418 1.390 . S
C427 H420 0.950 . S
C427 C424 1.387 . S
C428 C429 1.387 . S
C428 H432 0.950 . S
C428 C437 1.390 . S
C429 C428 1.387 . S
C429 C431 1.387 . S
H430 C437 0.950 . S
C431 C429 1.387 . S
C431 C433 1.390 . S
C431 H435 0.950 . S
H432 C428 0.950 . S
C433 C431 1.390 . S
C433 C434 1.387 . S
C433 H436 0.950 . S
C434 C433 1.387 . S
C434 C437 1.387 . S
H435 C431 0.950 . S
H436 C433 0.950 . S
C437 C428 1.390 . S
C437 H430 0.950 . S
C437 C434 1.387 . S
C438 C439 1.387 . S
C438 H442 0.950 . S
C438 C447 1.390 . S
C439 C438 1.387 . S
C439 C441 1.387 . S
H440 C447 0.950 . S
C441 C439 1.387 . S
C441 C443 1.390 . S
C441 H445 0.950 . S
H442 C438 0.950 . S
C443 C441 1.390 . S
C443 C444 1.387 . S
C443 H446 0.950 . S
C444 C443 1.387 . S
C444 C447 1.387 . S
H445 C441 0.950 . S
H446 C443 0.950 . S
C447 C438 1.390 . S
C447 H440 0.950 . S
C447 C444 1.387 . S
C448 C449 1.387 . S
C448 H452 0.950 . S
C448 C457 1.390 . S
C449 C448 1.387 . S
C449 C451 1.387 . S
H450 C457 0.950 . S
C451 C449 1.387 . S
C451 C453 1.390 . S
C451 H455 0.950 1_655 S
H452 C448 0.950 . S
C453 C451 1.390 . S
C453 C454 1.387 . S
C453 H456 0.950 . S
C454 C453 1.387 . S
C454 C457 1.387 . S
H455 C451 0.950 1_455 S
H456 C453 0.950 . S
C457 C448 1.390 . S
C457 H450 0.950 . S
C457 C454 1.387 . S
C458 C459 1.387 1_545 S
C458 H462 0.950 . S
C458 C467 1.390 . S
C459 C458 1.387 1_565 S
C459 C461 1.387 . S
H460 C467 0.950 . S
C461 C459 1.387 . S
C461 C463 1.390 . S
C461 H465 0.950 . S
H462 C458 0.950 . S
C463 C461 1.390 . S
C463 C464 1.387 . S
C463 H466 0.950 . S
C464 C463 1.387 . S
C464 C467 1.387 1_565 S
H465 C461 0.950 . S
H466 C463 0.950 . S
C467 C458 1.390 . S
C467 H460 0.950 . S
C467 C464 1.387 1_545 S
C468 C469 1.387 . S
C468 H472 0.950 . S
C468 C477 1.390 . S
C469 C468 1.387 . S
C469 C471 1.387 . S
H470 C477 0.950 . S
C471 C469 1.387 . S
C471 C473 1.390 . S
C471 H475 0.950 . S
H472 C468 0.950 . S
C473 C471 1.390 . S
C473 C474 1.387 . S
C473 H476 0.950 . S
C474 C473 1.387 . S
C474 C477 1.387 . S
H475 C471 0.950 . S
H476 C473 0.950 . S
C477 C468 1.390 . S
C477 H470 0.950 . S
C477 C474 1.387 . S
C478 C479 1.387 . S
C478 H482 0.950 . S
C478 C487 1.390 . S
C479 C478 1.387 . S
C479 C481 1.387 . S
H480 C487 0.950 . S
C481 C479 1.387 . S
C481 C483 1.390 . S
C481 H485 0.950 . S
H482 C478 0.950 . S
C483 C481 1.390 . S
C483 C484 1.387 . S
C483 H486 0.950 . S
C484 C483 1.387 . S
C484 C487 1.387 . S
H485 C481 0.950 . S
H486 C483 0.950 . S
C487 C478 1.390 . S
C487 H480 0.950 . S
C487 C484 1.387 . S
C249 C74 1.933 . S
C254 C97 2.132 1_545 S
C264 C137 2.149 . S
C259 C85 1.937 . S
C274 C177 2.156 . S
C269 C52 1.948 . S
C284 C217 2.141 1_455 S
C279 C63 1.942 . S
C294 C106 2.136 1_564 S
C289 C30 1.936 1_565 S
C299 C41 1.957 . S
C304 C146 2.151 1_554 S
C309 C8 1.962 . S
C314 C186 2.154 1_554 S
C319 C19 1.938 1_655 S
C324 C226 2.140 1_654 S
C334 C103 0.884 . S
C329 C62 0.933 1_655 S
C344 C143 0.886 . S
C339 C73 0.933 1_565 S
C354 C183 0.875 . S
C349 C84 0.920 . S
C359 C51 0.923 . S
C364 C223 0.876 . S
C369 C18 0.861 . S
C374 C94 0.888 . S
C384 C134 0.891 . S
C379 C29 0.866 . S
C394 C174 0.883 . S
C389 C40 0.867 . S
C399 C7 0.858 . S
C404 C214 0.878 . S
C409 C60 1.932 . S
C414 C107 2.574 . S
C419 C71 1.901 . S
C424 C147 2.549 . S
C434 C187 2.538 . S
C429 C82 1.861 . S
C444 C227 2.569 . S
C439 C49 1.893 . S
C449 C16 2.058 1_655 S
C454 C98 2.581 . S
C464 C138 2.549 . S
C459 C27 2.030 1_565 S
C474 C178 2.538 . S
C469 C38 2.058 . S
C479 C5 2.078 . S
C484 C218 2.570 . S
