# Generated by pormake.
# Topology iac, (4,6)-cn, num edge types: 1
# Building blocks:
#     Node 0, Type 0, BuildingBlock: AZAVOO_clean_sbu_0, # of connection points: 4
#     Node 1, Type 0, BuildingBlock: AZAVOO_clean_sbu_0, # of connection points: 4
#     Node 2, Type 0, BuildingBlock: AZAVOO_clean_sbu_0, # of connection points: 4
#     Node 3, Type 0, BuildingBlock: AZAVOO_clean_sbu_0, # of connection points: 4
#     Node 4, Type 0, BuildingBlock: AZAVOO_clean_sbu_0, # of connection points: 4
#     Node 5, Type 0, BuildingBlock: AZAVOO_clean_sbu_0, # of connection points: 4
#     Node 6, Type 0, BuildingBlock: AZAVOO_clean_sbu_0, # of connection points: 4
#     Node 7, Type 0, BuildingBlock: AZAVOO_clean_sbu_0, # of connection points: 4
#     Node 8, Type 0, BuildingBlock: AZAVOO_clean_sbu_0, # of connection points: 4
#     Node 9, Type 0, BuildingBlock: AZAVOO_clean_sbu_0, # of connection points: 4
#     Node 10, Type 0, BuildingBlock: AZAVOO_clean_sbu_0, # of connection points: 4
#     Node 11, Type 0, BuildingBlock: AZAVOO_clean_sbu_0, # of connection points: 4
#     Node 12, Type 0, BuildingBlock: AZAVOO_clean_sbu_0, # of connection points: 4
#     Node 13, Type 0, BuildingBlock: AZAVOO_clean_sbu_0, # of connection points: 4
#     Node 14, Type 0, BuildingBlock: AZAVOO_clean_sbu_0, # of connection points: 4
#     Node 15, Type 0, BuildingBlock: AZAVOO_clean_sbu_0, # of connection points: 4
#     Node 16, Type 0, BuildingBlock: AZAVOO_clean_sbu_0, # of connection points: 4
#     Node 17, Type 0, BuildingBlock: AZAVOO_clean_sbu_0, # of connection points: 4
#     Node 18, Type 0, BuildingBlock: AZAVOO_clean_sbu_0, # of connection points: 4
#     Node 19, Type 0, BuildingBlock: AZAVOO_clean_sbu_0, # of connection points: 4
#     Node 20, Type 0, BuildingBlock: AZAVOO_clean_sbu_0, # of connection points: 4
#     Node 21, Type 0, BuildingBlock: AZAVOO_clean_sbu_0, # of connection points: 4
#     Node 22, Type 0, BuildingBlock: AZAVOO_clean_sbu_0, # of connection points: 4
#     Node 23, Type 0, BuildingBlock: AZAVOO_clean_sbu_0, # of connection points: 4
#     Node 24, Type 1, BuildingBlock: CIFDUS_clean_sbu_1, # of connection points: 6
#     Node 25, Type 1, BuildingBlock: CIFDUS_clean_sbu_1, # of connection points: 6
#     Node 26, Type 1, BuildingBlock: CIFDUS_clean_sbu_1, # of connection points: 6
#     Node 27, Type 1, BuildingBlock: CIFDUS_clean_sbu_1, # of connection points: 6
#     Node 28, Type 1, BuildingBlock: CIFDUS_clean_sbu_1, # of connection points: 6
#     Node 29, Type 1, BuildingBlock: CIFDUS_clean_sbu_1, # of connection points: 6
#     Node 30, Type 1, BuildingBlock: CIFDUS_clean_sbu_1, # of connection points: 6
#     Node 31, Type 1, BuildingBlock: CIFDUS_clean_sbu_1, # of connection points: 6
#     Node 32, Type 1, BuildingBlock: CIFDUS_clean_sbu_1, # of connection points: 6
#     Node 33, Type 1, BuildingBlock: CIFDUS_clean_sbu_1, # of connection points: 6
#     Node 34, Type 1, BuildingBlock: CIFDUS_clean_sbu_1, # of connection points: 6
#     Node 35, Type 1, BuildingBlock: CIFDUS_clean_sbu_1, # of connection points: 6
#     Node 36, Type 1, BuildingBlock: CIFDUS_clean_sbu_1, # of connection points: 6
#     Node 37, Type 1, BuildingBlock: CIFDUS_clean_sbu_1, # of connection points: 6
#     Node 38, Type 1, BuildingBlock: CIFDUS_clean_sbu_1, # of connection points: 6
#     Node 39, Type 1, BuildingBlock: CIFDUS_clean_sbu_1, # of connection points: 6
#     Edge 40, Type (0, 1), BuildingBlock: UVAHIK_clean_linker_0, # of connection points: 2
#     Edge 41, Type (0, 1), BuildingBlock: UVAHIK_clean_linker_0, # of connection points: 2
#     Edge 42, Type (0, 1), BuildingBlock: UVAHIK_clean_linker_0, # of connection points: 2
#     Edge 43, Type (0, 1), BuildingBlock: UVAHIK_clean_linker_0, # of connection points: 2
#     Edge 44, Type (0, 1), BuildingBlock: UVAHIK_clean_linker_0, # of connection points: 2
#     Edge 45, Type (0, 1), BuildingBlock: UVAHIK_clean_linker_0, # of connection points: 2
#     Edge 46, Type (0, 1), BuildingBlock: UVAHIK_clean_linker_0, # of connection points: 2
#     Edge 47, Type (0, 1), BuildingBlock: UVAHIK_clean_linker_0, # of connection points: 2
#     Edge 48, Type (0, 1), BuildingBlock: UVAHIK_clean_linker_0, # of connection points: 2
#     Edge 49, Type (0, 1), BuildingBlock: UVAHIK_clean_linker_0, # of connection points: 2
#     Edge 50, Type (0, 1), BuildingBlock: UVAHIK_clean_linker_0, # of connection points: 2
#     Edge 51, Type (0, 1), BuildingBlock: UVAHIK_clean_linker_0, # of connection points: 2
#     Edge 52, Type (0, 1), BuildingBlock: UVAHIK_clean_linker_0, # of connection points: 2
#     Edge 53, Type (0, 1), BuildingBlock: UVAHIK_clean_linker_0, # of connection points: 2
#     Edge 54, Type (0, 1), BuildingBlock: UVAHIK_clean_linker_0, # of connection points: 2
#     Edge 55, Type (0, 1), BuildingBlock: UVAHIK_clean_linker_0, # of connection points: 2
#     Edge 56, Type (0, 1), BuildingBlock: UVAHIK_clean_linker_0, # of connection points: 2
#     Edge 57, Type (0, 1), BuildingBlock: UVAHIK_clean_linker_0, # of connection points: 2
#     Edge 58, Type (0, 1), BuildingBlock: UVAHIK_clean_linker_0, # of connection points: 2
#     Edge 59, Type (0, 1), BuildingBlock: UVAHIK_clean_linker_0, # of connection points: 2
#     Edge 60, Type (0, 1), BuildingBlock: UVAHIK_clean_linker_0, # of connection points: 2
#     Edge 61, Type (0, 1), BuildingBlock: UVAHIK_clean_linker_0, # of connection points: 2
#     Edge 62, Type (0, 1), BuildingBlock: UVAHIK_clean_linker_0, # of connection points: 2
#     Edge 63, Type (0, 1), BuildingBlock: UVAHIK_clean_linker_0, # of connection points: 2
#     Edge 64, Type (0, 1), BuildingBlock: UVAHIK_clean_linker_0, # of connection points: 2
#     Edge 65, Type (0, 1), BuildingBlock: UVAHIK_clean_linker_0, # of connection points: 2
#     Edge 66, Type (0, 1), BuildingBlock: UVAHIK_clean_linker_0, # of connection points: 2
#     Edge 67, Type (0, 1), BuildingBlock: UVAHIK_clean_linker_0, # of connection points: 2
#     Edge 68, Type (0, 1), BuildingBlock: UVAHIK_clean_linker_0, # of connection points: 2
#     Edge 69, Type (0, 1), BuildingBlock: UVAHIK_clean_linker_0, # of connection points: 2
#     Edge 70, Type (0, 1), BuildingBlock: UVAHIK_clean_linker_0, # of connection points: 2
#     Edge 71, Type (0, 1), BuildingBlock: UVAHIK_clean_linker_0, # of connection points: 2
#     Edge 72, Type (0, 1), BuildingBlock: UVAHIK_clean_linker_0, # of connection points: 2
#     Edge 73, Type (0, 1), BuildingBlock: UVAHIK_clean_linker_0, # of connection points: 2
#     Edge 74, Type (0, 1), BuildingBlock: UVAHIK_clean_linker_0, # of connection points: 2
#     Edge 75, Type (0, 1), BuildingBlock: UVAHIK_clean_linker_0, # of connection points: 2
#     Edge 76, Type (0, 1), BuildingBlock: UVAHIK_clean_linker_0, # of connection points: 2
#     Edge 77, Type (0, 1), BuildingBlock: UVAHIK_clean_linker_0, # of connection points: 2
#     Edge 78, Type (0, 1), BuildingBlock: UVAHIK_clean_linker_0, # of connection points: 2
#     Edge 79, Type (0, 1), BuildingBlock: UVAHIK_clean_linker_0, # of connection points: 2
#     Edge 80, Type (0, 1), BuildingBlock: UVAHIK_clean_linker_0, # of connection points: 2
#     Edge 81, Type (0, 1), BuildingBlock: UVAHIK_clean_linker_0, # of connection points: 2
#     Edge 82, Type (0, 1), BuildingBlock: UVAHIK_clean_linker_0, # of connection points: 2
#     Edge 83, Type (0, 1), BuildingBlock: UVAHIK_clean_linker_0, # of connection points: 2
#     Edge 84, Type (0, 1), BuildingBlock: UVAHIK_clean_linker_0, # of connection points: 2
#     Edge 85, Type (0, 1), BuildingBlock: UVAHIK_clean_linker_0, # of connection points: 2
#     Edge 86, Type (0, 1), BuildingBlock: UVAHIK_clean_linker_0, # of connection points: 2
#     Edge 87, Type (0, 1), BuildingBlock: UVAHIK_clean_linker_0, # of connection points: 2
#     Edge 88, Type (0, 1), BuildingBlock: UVAHIK_clean_linker_0, # of connection points: 2
#     Edge 89, Type (0, 1), BuildingBlock: UVAHIK_clean_linker_0, # of connection points: 2
#     Edge 90, Type (0, 1), BuildingBlock: UVAHIK_clean_linker_0, # of connection points: 2
#     Edge 91, Type (0, 1), BuildingBlock: UVAHIK_clean_linker_0, # of connection points: 2
#     Edge 92, Type (0, 1), BuildingBlock: UVAHIK_clean_linker_0, # of connection points: 2
#     Edge 93, Type (0, 1), BuildingBlock: UVAHIK_clean_linker_0, # of connection points: 2
#     Edge 94, Type (0, 1), BuildingBlock: UVAHIK_clean_linker_0, # of connection points: 2
#     Edge 95, Type (0, 1), BuildingBlock: UVAHIK_clean_linker_0, # of connection points: 2
#     Edge 96, Type (0, 1), BuildingBlock: UVAHIK_clean_linker_0, # of connection points: 2
#     Edge 97, Type (0, 1), BuildingBlock: UVAHIK_clean_linker_0, # of connection points: 2
#     Edge 98, Type (0, 1), BuildingBlock: UVAHIK_clean_linker_0, # of connection points: 2
#     Edge 99, Type (0, 1), BuildingBlock: UVAHIK_clean_linker_0, # of connection points: 2
#     Edge 100, Type (0, 1), BuildingBlock: UVAHIK_clean_linker_0, # of connection points: 2
#     Edge 101, Type (0, 1), BuildingBlock: UVAHIK_clean_linker_0, # of connection points: 2
#     Edge 102, Type (0, 1), BuildingBlock: UVAHIK_clean_linker_0, # of connection points: 2
#     Edge 103, Type (0, 1), BuildingBlock: UVAHIK_clean_linker_0, # of connection points: 2
#     Edge 104, Type (0, 1), BuildingBlock: UVAHIK_clean_linker_0, # of connection points: 2
#     Edge 105, Type (0, 1), BuildingBlock: UVAHIK_clean_linker_0, # of connection points: 2
#     Edge 106, Type (0, 1), BuildingBlock: UVAHIK_clean_linker_0, # of connection points: 2
#     Edge 107, Type (0, 1), BuildingBlock: UVAHIK_clean_linker_0, # of connection points: 2
#     Edge 108, Type (0, 1), BuildingBlock: UVAHIK_clean_linker_0, # of connection points: 2
#     Edge 109, Type (0, 1), BuildingBlock: UVAHIK_clean_linker_0, # of connection points: 2
#     Edge 110, Type (0, 1), BuildingBlock: UVAHIK_clean_linker_0, # of connection points: 2
#     Edge 111, Type (0, 1), BuildingBlock: UVAHIK_clean_linker_0, # of connection points: 2
#     Edge 112, Type (0, 1), BuildingBlock: UVAHIK_clean_linker_0, # of connection points: 2
#     Edge 113, Type (0, 1), BuildingBlock: UVAHIK_clean_linker_0, # of connection points: 2
#     Edge 114, Type (0, 1), BuildingBlock: UVAHIK_clean_linker_0, # of connection points: 2
#     Edge 115, Type (0, 1), BuildingBlock: UVAHIK_clean_linker_0, # of connection points: 2
#     Edge 116, Type (0, 1), BuildingBlock: UVAHIK_clean_linker_0, # of connection points: 2
#     Edge 117, Type (0, 1), BuildingBlock: UVAHIK_clean_linker_0, # of connection points: 2
#     Edge 118, Type (0, 1), BuildingBlock: UVAHIK_clean_linker_0, # of connection points: 2
#     Edge 119, Type (0, 1), BuildingBlock: UVAHIK_clean_linker_0, # of connection points: 2
#     Edge 120, Type (0, 1), BuildingBlock: UVAHIK_clean_linker_0, # of connection points: 2
#     Edge 121, Type (0, 1), BuildingBlock: UVAHIK_clean_linker_0, # of connection points: 2
#     Edge 122, Type (0, 1), BuildingBlock: UVAHIK_clean_linker_0, # of connection points: 2
#     Edge 123, Type (0, 1), BuildingBlock: UVAHIK_clean_linker_0, # of connection points: 2
#     Edge 124, Type (0, 1), BuildingBlock: UVAHIK_clean_linker_0, # of connection points: 2
#     Edge 125, Type (0, 1), BuildingBlock: UVAHIK_clean_linker_0, # of connection points: 2
#     Edge 126, Type (0, 1), BuildingBlock: UVAHIK_clean_linker_0, # of connection points: 2
#     Edge 127, Type (0, 1), BuildingBlock: UVAHIK_clean_linker_0, # of connection points: 2
#     Edge 128, Type (0, 1), BuildingBlock: UVAHIK_clean_linker_0, # of connection points: 2
#     Edge 129, Type (0, 1), BuildingBlock: UVAHIK_clean_linker_0, # of connection points: 2
#     Edge 130, Type (0, 1), BuildingBlock: UVAHIK_clean_linker_0, # of connection points: 2
#     Edge 131, Type (0, 1), BuildingBlock: UVAHIK_clean_linker_0, # of connection points: 2
#     Edge 132, Type (0, 1), BuildingBlock: UVAHIK_clean_linker_0, # of connection points: 2
#     Edge 133, Type (0, 1), BuildingBlock: UVAHIK_clean_linker_0, # of connection points: 2
#     Edge 134, Type (0, 1), BuildingBlock: UVAHIK_clean_linker_0, # of connection points: 2
#     Edge 135, Type (0, 1), BuildingBlock: UVAHIK_clean_linker_0, # of connection points: 2
# Relax obj value: 0.127
# Max RMSD: 0.178
# Mean RMSD: 0.151
data_MOF--net-iac--node1-AZAVOO_clean_sbu_0--node2-CIFDUS_clean_sbu_1--edge1-UVAHIK_clean_linker_0
_symmetry_space_group_name_H-M    P1
_symmetry_Int_Tables_number       1
_symmetry_cell_setting            triclinic
loop_
_symmetry_equiv_pos_as_xyz
'x, y, z'
_cell_length_a     69.911901
_cell_length_b     67.166252
_cell_length_c     68.659012
_cell_angle_alpha  92.019831
_cell_angle_beta   89.904977
_cell_angle_gamma 90.946441
loop_
_atom_site_label
_atom_site_type_symbol
_atom_site_fract_x
_atom_site_fract_y
_atom_site_fract_z
_atom_type_partial_charge
Mg0 Mg 0.98772 0.26707 0.13622 0.0
O1 O 0.9941 0.23933 0.1171 0.0
O2 O 0.97368 0.23811 0.09217 0.0
Mg3 Mg 0.95234 0.26346 0.09698 0.0
C4 C 0.98787 0.23116 0.10126 0.0
C5 C 0.01869 0.26909 0.16861 0.0
O6 O 0.00422 0.27729 0.17791 0.0
O7 O -0.00056 0.28824 0.11344 0.0
O8 O 0.97563 0.28709 0.09164 0.0
O9 O 0.96701 0.25008 0.15447 0.0
O10 O 0.959 0.26617 0.12834 0.0
C11 C 0.99152 0.29439 0.09802 0.0
C12 C 0.9538 0.25553 0.14267 0.0
O13 O 0.01669 0.2637 0.15079 0.0
Mg14 Mg 0.98963 0.73368 0.35866 0.0
O15 O 0.98997 0.7636 0.37632 0.0
O16 O 0.96443 0.76264 0.39595 0.0
Mg17 Mg 0.94878 0.73285 0.39228 0.0
C18 C 0.97909 0.77169 0.38923 0.0
C19 C 0.02392 0.75541 0.33791 0.0
O20 O 0.01154 0.76992 0.33783 0.0
O21 O 0.00094 0.71721 0.38489 0.0
O22 O 0.97494 0.71691 0.40391 0.0
O23 O 0.97032 0.74709 0.33705 0.0
O24 O 0.96027 0.73092 0.36271 0.0
C25 C 0.99232 0.71233 0.40051 0.0
C26 C 0.9563 0.74146 0.34802 0.0
O27 O 0.01954 0.73943 0.34641 0.0
Mg28 Mg 0.49075 0.76811 0.63245 0.0
O29 O 0.49439 0.73947 0.614 0.0
O30 O 0.47131 0.73766 0.59166 0.0
Mg31 Mg 0.45155 0.76431 0.59744 0.0
C32 C 0.48622 0.73065 0.59945 0.0
C33 C 0.52447 0.77216 0.66098 0.0
O34 O 0.51167 0.78363 0.66953 0.0
O35 O 0.50078 0.78755 0.60773 0.0
O36 O 0.47486 0.78691 0.58862 0.0
O37 O 0.47215 0.75249 0.6534 0.0
O38 O 0.4613 0.76801 0.62793 0.0
C39 C 0.49158 0.79363 0.59305 0.0
C40 C 0.45773 0.75788 0.64312 0.0
O41 O 0.52064 0.76405 0.64442 0.0
Mg42 Mg 0.48744 0.238 0.85856 0.0
O43 O 0.48878 0.2657 0.87931 0.0
O44 O 0.4642 0.26262 0.89996 0.0
Mg45 Mg 0.44805 0.2335 0.89357 0.0
C46 C 0.4787 0.27225 0.89364 0.0
C47 C 0.52189 0.26175 0.83969 0.0
O48 O 0.51055 0.27696 0.84268 0.0
O49 O 0.49986 0.2192 0.88245 0.0
O50 O 0.47474 0.2166 0.90245 0.0
O51 O 0.46742 0.25369 0.83933 0.0
O52 O 0.45828 0.235 0.8636 0.0
C53 C 0.49203 0.21269 0.89787 0.0
C54 C 0.45379 0.247 0.85022 0.0
O55 O 0.51685 0.24473 0.84567 0.0
Mg56 Mg 0.13128 0.99629 0.27302 0.0
O57 O 0.1467 0.02592 0.26719 0.0
O58 O 0.17046 0.02934 0.28875 0.0
Mg59 Mg 0.1695 0.00298 0.30912 0.0
C60 C 0.16096 0.03568 0.27442 0.0
C61 C 0.10527 0.0118 0.24014 0.0
O62 O 0.10366 0.02667 0.25295 0.0
O63 O 0.15568 0.97796 0.26019 0.0
O64 O 0.17664 0.97994 0.28477 0.0
O65 O 0.11158 0.01085 0.29468 0.0
O66 O 0.13919 0.99772 0.30214 0.0
C67 C 0.1711 0.97251 0.26829 0.0
C68 C 0.12396 0.00658 0.30786 0.0
O69 O 0.11604 0.99738 0.24393 0.0
Mg70 Mg 0.27682 0.88771 0.51409 0.0
O71 O 0.27274 0.87175 0.4841 0.0
O72 O 0.29635 0.84972 0.4811 0.0
Mg73 Mg 0.31458 0.85071 0.50863 0.0
C74 C 0.28172 0.85828 0.47435 0.0
C75 C 0.24181 0.91262 0.49946 0.0
O76 O 0.25334 0.91571 0.48471 0.0
O77 O 0.26507 0.86065 0.52946 0.0
O78 O 0.28941 0.83955 0.52732 0.0
O79 O 0.29642 0.91002 0.50096 0.0
O80 O 0.30606 0.88187 0.51307 0.0
C81 C 0.2727 0.84413 0.53341 0.0
C82 C 0.3102 0.89786 0.50402 0.0
O83 O 0.24714 0.90143 0.51293 0.0
Mg84 Mg 0.38113 0.01632 0.78293 0.0
O85 O 0.36987 0.98493 0.77492 0.0
O86 O 0.34491 0.97904 0.79444 0.0
Mg87 Mg 0.3417 0.0054 0.81618 0.0
C88 C 0.35621 0.97375 0.78064 0.0
C89 C 0.41095 0.00588 0.74962 0.0
O90 O 0.41626 0.99258 0.76201 0.0
O91 O 0.35517 0.03052 0.76958 0.0
O92 O 0.33231 0.02582 0.79181 0.0
O93 O 0.4012 0.0033 0.80381 0.0
O94 O 0.37207 0.01319 0.81157 0.0
C95 C 0.3382 0.03322 0.77594 0.0
C96 C 0.38759 0.0047 0.8166 0.0
O97 O 0.39715 0.01729 0.75405 0.0
Mg98 Mg 0.2825 0.1208 0.97612 0.0
O99 O 0.28576 0.13958 0.00452 0.0
O100 O 0.31351 0.15639 0.00322 0.0
Mg101 Mg 0.32864 0.14732 0.97465 0.0
C102 C 0.29797 0.15195 0.01199 0.0
C103 C 0.23848 0.11747 0.96876 0.0
O104 O 0.2445 0.1215 0.95117 0.0
O105 O 0.27685 0.14846 0.95926 0.0
O106 O 0.30578 0.16282 0.95664 0.0
O107 O 0.29757 0.09532 0.98912 0.0
O108 O 0.31194 0.11919 0.97298 0.0
C109 C 0.28791 0.16197 0.95268 0.0
C110 C 0.31326 0.1032 0.9826 0.0
O111 O 0.25066 0.11617 0.98239 0.0
Mg112 Mg 0.76836 0.3811 0.00665 0.0
O113 O 0.76804 0.36274 0.9776 0.0
O114 O 0.79314 0.34255 0.97845 0.0
Mg115 Mg 0.80878 0.34686 0.0073 0.0
C116 C 0.77858 0.34926 0.96978 0.0
C117 C 0.73398 0.40711 0.01358 0.0
O118 O 0.74551 0.41108 0.02836 0.0
O119 O 0.75632 0.35419 0.02257 0.0
O120 O 0.78216 0.33498 0.02282 0.0
O121 O 0.78836 0.40333 0.99372 0.0
O122 O 0.79764 0.37699 0.00931 0.0
C123 C 0.7647 0.33826 0.02724 0.0
C124 C 0.80212 0.39223 -0.00065 0.0
O125 O 0.73878 0.39377 0.00098 0.0
Mg126 Mg 0.88783 0.51063 0.27957 0.0
O127 O 0.87174 0.48066 0.27728 0.0
O128 O 0.85188 0.4794 0.30278 0.0
Mg129 Mg 0.85433 0.50871 0.32055 0.0
C130 C 0.85926 0.4715 0.28739 0.0
C131 C 0.91636 0.5116 0.24571 0.0
O132 O 0.92639 0.51925 0.2604 0.0
O133 O 0.86169 0.52677 0.26906 0.0
O134 O 0.84243 0.5261 0.29506 0.0
O135 O 0.90912 0.49619 0.29797 0.0
O136 O 0.88363 0.5119 0.30952 0.0
C137 C 0.84608 0.5313 0.27769 0.0
C138 C 0.89809 0.50083 0.31256 0.0
O139 O 0.89915 0.50609 0.24869 0.0
Mg140 Mg 0.78724 0.6258 0.47787 0.0
O141 O 0.788 0.64513 0.50607 0.0
O142 O 0.81487 0.66363 0.50621 0.0
Mg143 Mg 0.83124 0.65626 0.47799 0.0
C144 C 0.79923 0.65812 0.51415 0.0
C145 C 0.7431 0.61954 0.47006 0.0
O146 O 0.74835 0.62505 0.45266 0.0
O147 O 0.77995 0.65262 0.46043 0.0
O148 O 0.80772 0.6695 0.459 0.0
O149 O 0.80373 0.60188 0.49178 0.0
O150 O 0.81697 0.62671 0.47606 0.0
C151 C 0.79014 0.66702 0.45422 0.0
C152 C 0.81908 0.61103 0.48603 0.0
O153 O 0.75568 0.61843 0.48334 0.0
Mg154 Mg 0.62416 0.50263 0.77263 0.0
O155 O 0.64302 0.52913 0.76375 0.0
O156 O 0.6688 0.52953 0.78298 0.0
Mg157 Mg 0.66453 0.5064 0.80647 0.0
C158 C 0.65929 0.53637 0.76891 0.0
C159 C 0.59949 0.51889 0.7388 0.0
O160 O 0.60058 0.53511 0.75004 0.0
O161 O 0.64521 0.47945 0.76061 0.0
O162 O 0.66734 0.48052 0.78411 0.0
O163 O 0.60769 0.52196 0.7936 0.0
O164 O 0.6335 0.50558 0.80128 0.0
C165 C 0.66015 0.47258 0.76854 0.0
C166 C 0.61992 0.51715 0.80673 0.0
O167 O 0.60802 0.50334 0.74391 0.0
Mg168 Mg 0.99808 0.75623 0.85623 0.0
O169 O 0.99574 0.78483 0.87555 0.0
O170 O 0.96633 0.78501 0.88837 0.0
Mg171 Mg 0.9503 0.75681 0.87741 0.0
C172 C 0.98284 0.79307 0.88615 0.0
C173 C 0.03986 0.7742 0.85087 0.0
O174 O 0.03067 0.79033 0.84644 0.0
O175 O 0.00018 0.73733 0.88259 0.0
O176 O 0.97048 0.73643 0.89445 0.0
O177 O 0.98766 0.77244 0.8308 0.0
O178 O 0.9688 0.75654 0.8512 0.0
C179 C 0.98796 0.73111 0.89482 0.0
C180 C 0.9705 0.76775 0.83639 0.0
O181 O 0.03043 0.75877 0.8555 0.0
Mg182 Mg 0.98827 0.25862 0.65244 0.0
O183 O 0.98484 0.22747 0.6388 0.0
O184 O 0.95456 0.22227 0.62932 0.0
Mg185 Mg 0.93888 0.25145 0.6361 0.0
C186 C 0.97168 0.21634 0.6313 0.0
C187 C 0.03164 0.27009 0.65202 0.0
O188 O 0.02468 0.28762 0.65693 0.0
O189 O 0.98776 0.27166 0.62257 0.0
O190 O 0.95707 0.26861 0.61378 0.0
O191 O 0.97959 0.24696 0.68133 0.0
O192 O 0.95946 0.25867 0.65991 0.0
C193 C 0.97426 0.27445 0.61058 0.0
C194 C 0.96211 0.25013 0.67618 0.0
O195 O 0.02034 0.25521 0.64983 0.0
Mg196 Mg 0.49691 0.25177 0.35715 0.0
O197 O 0.49537 0.28102 0.37561 0.0
O198 O 0.46596 0.28269 0.3883 0.0
Mg199 Mg 0.44904 0.25484 0.3781 0.0
C200 C 0.48275 0.29002 0.38597 0.0
C201 C 0.53884 0.23811 0.35763 0.0
O202 O 0.52958 0.22112 0.35967 0.0
O203 O 0.49829 0.2337 0.38427 0.0
O204 O 0.46859 0.23491 0.3962 0.0
O205 O 0.48687 0.26735 0.33116 0.0
O206 O 0.46763 0.25263 0.35202 0.0
C207 C 0.48581 0.22881 0.39682 0.0
C208 C 0.46961 0.26322 0.3368 0.0
O209 O 0.52935 0.25399 0.35626 0.0
Mg210 Mg 0.49232 0.7601 0.15735 0.0
O211 O 0.4863 0.7302 0.14188 0.0
O212 O 0.45563 0.72865 0.13283 0.0
Mg213 Mg 0.4417 0.75741 0.14449 0.0
C214 C 0.47223 0.72105 0.13362 0.0
C215 C 0.53573 0.76985 0.15194 0.0
O216 O 0.52975 0.78793 0.15619 0.0
O217 O 0.49034 0.77571 0.12871 0.0
O218 O 0.45896 0.77606 0.12279 0.0
O219 O 0.48561 0.74685 0.18599 0.0
O220 O 0.4642 0.76058 0.16717 0.0
C221 C 0.47617 0.78088 0.11851 0.0
C222 C 0.4679 0.75084 0.18255 0.0
O223 O 0.52388 0.75533 0.1519 0.0
Mg224 Mg 0.90197 0.01101 0.75673 0.0
O225 O 0.88293 0.98301 0.76015 0.0
O226 O 0.87036 0.98478 0.79011 0.0
Mg227 Mg 0.8819 0.01311 0.8058 0.0
C228 C 0.87237 0.97585 0.77352 0.0
C229 C 0.90207 0.02161 0.71342 0.0
O230 O 0.90162 0.03937 0.72204 0.0
O231 O 0.87604 0.03056 0.75461 0.0
O232 O 0.8651 0.03296 0.78513 0.0
O233 O 0.9271 0.9948 0.76758 0.0
O234 O 0.90726 0.01205 0.78648 0.0
C235 C 0.86438 0.0376 0.76724 0.0
C236 C 0.92179 0.00049 0.78496 0.0
O237 O 0.90227 0.00632 0.72383 0.0
Mg238 Mg 0.76488 0.10547 0.47987 0.0
O239 O 0.76938 0.12112 0.50947 0.0
O240 O 0.79947 0.13252 0.51183 0.0
Mg241 Mg 0.81463 0.12301 0.48337 0.0
C242 C 0.7827 0.1303 0.51893 0.0
C243 C 0.72332 0.0933 0.49193 0.0
O244 O 0.73208 0.07647 0.49465 0.0
O245 O 0.7652 0.13532 0.46519 0.0
O246 O 0.79613 0.14419 0.46581 0.0
O247 O 0.77377 0.07643 0.49191 0.0
O248 O 0.79385 0.09803 0.47902 0.0
C249 C 0.77884 0.14719 0.46076 0.0
C250 C 0.79121 0.08161 0.48789 0.0
O251 O 0.73275 0.10782 0.48517 0.0
Mg252 Mg 0.6165 0.98728 0.26083 0.0
O253 O 0.62562 0.01991 0.26429 0.0
O254 O 0.63904 0.02536 0.29349 0.0
Mg255 Mg 0.63823 0.99571 0.30882 0.0
C256 C 0.63352 0.03152 0.27708 0.0
C257 C 0.60483 0.0046 0.22069 0.0
O258 O 0.59386 0.01579 0.23194 0.0
O259 O 0.64723 0.97787 0.25702 0.0
O260 O 0.6597 0.98201 0.28682 0.0
O261 O 0.58817 0.99511 0.27403 0.0
O262 O 0.61331 0.98585 0.29077 0.0
C263 C 0.66117 0.97664 0.26884 0.0
C264 C 0.5961 0.9924 0.29077 0.0
O265 O 0.61478 0.99123 0.2282 0.0
Mg266 Mg 0.76564 0.88627 0.01391 0.0
O267 O 0.76551 0.87018 0.98369 0.0
O268 O 0.78904 0.84808 0.9838 0.0
Mg269 Mg 0.80373 0.84965 0.01343 0.0
C270 C 0.77531 0.8565 0.97523 0.0
C271 C 0.72613 0.90214 0.02378 0.0
O272 O 0.73399 0.90028 0.04099 0.0
O273 O 0.75221 0.85933 0.02748 0.0
O274 O 0.77607 0.83757 0.0276 0.0
O275 O 0.78693 0.9088 0.00378 0.0
O276 O 0.79451 0.88072 0.01743 0.0
C277 C 0.75883 0.84241 0.03148 0.0
C278 C 0.80004 0.89688 0.00945 0.0
O279 O 0.73601 0.89815 0.00861 0.0
Mg280 Mg 0.26737 0.60435 0.9893 0.0
O281 O 0.2703 0.61848 0.01977 0.0
O282 O 0.30036 0.62925 0.02425 0.0
Mg283 Mg 0.31686 0.62131 0.99616 0.0
C284 C 0.28325 0.62685 0.03038 0.0
C285 C 0.22524 0.59129 0.99705 0.0
O286 O 0.23373 0.57405 0.99801 0.0
O287 O 0.26855 0.63477 0.97577 0.0
O288 O 0.2995 0.64326 0.97825 0.0
O289 O 0.27537 0.57495 0.00093 0.0
O290 O 0.29627 0.59659 0.98948 0.0
C291 C 0.28254 0.6466 0.9724 0.0
C292 C 0.29304 0.57998 0.99786 0.0
O293 O 0.23513 0.60659 0.99295 0.0
Mg294 Mg 0.1183 0.50111 0.75698 0.0
O295 O 0.1275 0.53345 0.76272 0.0
O296 O 0.13757 0.53739 0.79351 0.0
Mg297 Mg 0.13317 0.50738 0.80787 0.0
C298 C 0.13418 0.54431 0.7768 0.0
C299 C 0.11326 0.52029 0.71652 0.0
O300 O 0.10226 0.53221 0.72698 0.0
O301 O 0.14892 0.49072 0.75749 0.0
O302 O 0.15672 0.49262 0.789 0.0
O303 O 0.08847 0.50898 0.76546 0.0
O304 O 0.11068 0.49958 0.78605 0.0
C305 C 0.16066 0.48789 0.77127 0.0
C306 C 0.0938 0.50633 0.78323 0.0
O307 O 0.12111 0.50576 0.72453 0.0
Mg308 Mg 0.26962 0.38209 0.51125 0.0
O309 O 0.26841 0.36489 0.48155 0.0
O310 O 0.29178 0.34261 0.48197 0.0
Mg311 Mg 0.30735 0.34514 0.51113 0.0
C312 C 0.27793 0.3508 0.47339 0.0
C313 C 0.23033 0.39736 0.52217 0.0
O314 O 0.23806 0.39347 0.53901 0.0
O315 O 0.25639 0.3558 0.52611 0.0
O316 O 0.28005 0.33384 0.52669 0.0
O317 O 0.29052 0.40398 0.49954 0.0
O318 O 0.29852 0.37643 0.514 0.0
C319 C 0.26295 0.33905 0.53076 0.0
C320 C 0.30378 0.39219 0.50513 0.0
O321 O 0.24009 0.39454 0.50669 0.0
Mg322 Mg 0.40418 0.50621 0.25984 0.0
O323 O 0.38523 0.4781 0.26295 0.0
O324 O 0.37489 0.47825 0.29379 0.0
Mg325 Mg 0.38834 0.50508 0.31049 0.0
C326 C 0.3755 0.47032 0.27661 0.0
C327 C 0.40197 0.52018 0.21768 0.0
O328 O 0.40222 0.53717 0.22777 0.0
O329 O 0.37833 0.52618 0.26132 0.0
O330 O 0.37071 0.52707 0.29291 0.0
O331 O 0.43022 0.48939 0.26744 0.0
O332 O 0.41187 0.50512 0.289 0.0
C333 C 0.36832 0.53287 0.27556 0.0
C334 C 0.42641 0.49398 0.2855 0.0
O335 O 0.40223 0.50399 0.22674 0.0
O336 O 0.04629 0.02315 0.00274 0.0
Mn337 Mn 0.02241 0.00488 0.00771 0.0
O338 O 0.07189 0.00487 0.01029 0.0
Mn339 Mn 0.05904 0.98146 0.0163 0.0
O340 O 0.99863 0.98616 0.01307 0.0
O341 O 0.00723 0.02974 0.0126 0.0
Mn342 Mn 0.98398 0.02626 0.00335 0.0
O343 O 0.01533 0.00477 0.9782 0.0
O344 O 0.97342 0.00609 0.0176 0.0
O345 O 0.02867 0.00467 0.03768 0.0
O346 O 0.05013 0.98061 0.04154 0.0
O347 O 0.98535 0.05228 0.01276 0.0
O348 O 0.98709 0.02043 0.9769 0.0
C349 C 0.04426 0.96448 0.9936 0.0
C350 C 0.0644 0.02102 0.00495 0.0
C351 C 0.98122 0.98917 0.01838 0.0
C352 C 0.00281 0.04796 0.01693 0.0
C353 C 0.00095 0.01117 0.96872 0.0
C354 C 0.03818 0.99308 0.04851 0.0
O355 O 0.03819 0.98068 0.00197 0.0
O356 O 0.06052 0.95882 0.00026 0.0
O357 O 0.27622 0.73951 0.2567 0.0
Mn358 Mn 0.24637 0.74115 0.25351 0.0
O359 O 0.28931 0.76265 0.23758 0.0
Mn360 Mn 0.26838 0.76361 0.22126 0.0
O361 O 0.21648 0.74302 0.25058 0.0
O362 O 0.24368 0.71709 0.26951 0.0
Mn363 Mn 0.2249 0.71883 0.2864 0.0
O364 O 0.24535 0.75944 0.27866 0.0
O365 O 0.2034 0.72119 0.27115 0.0
O366 O 0.24773 0.72271 0.22837 0.0
O367 O 0.26397 0.74053 0.20619 0.0
O368 O 0.23612 0.69421 0.28952 0.0
O369 O 0.23087 0.74139 0.30184 0.0
C370 C 0.24487 0.78199 0.23029 0.0
C371 C 0.29062 0.74992 0.25083 0.0
C372 C 0.20199 0.73357 0.2576 0.0
C373 C 0.24728 0.69971 0.27562 0.0
C374 C 0.23902 0.75733 0.29607 0.0
C375 C 0.2554 0.72466 0.21147 0.0
O376 O 0.24895 0.76514 0.23738 0.0
O377 O 0.25625 0.78731 0.21649 0.0
O378 O 0.49353 0.00063 0.51287 0.0
Mn379 Mn 0.51091 0.02496 0.52165 0.0
O380 O 0.46466 0.01264 0.50539 0.0
Mn381 Mn 0.46795 0.03629 0.51971 0.0
O382 O 0.52823 0.04968 0.52981 0.0
O383 O 0.53062 0.00556 0.52984 0.0
Mn384 Mn 0.55367 0.01408 0.52375 0.0
O385 O 0.52258 0.02513 0.49379 0.0
O386 O 0.55701 0.03794 0.53756 0.0
O387 O 0.49914 0.02466 0.54959 0.0
O388 O 0.46849 0.03413 0.54664 0.0
O389 O 0.55683 0.99005 0.53557 0.0
O390 O 0.55325 0.01581 0.49674 0.0
C391 C 0.48432 0.06049 0.5078 0.0
C392 C 0.4767 0.9986 0.50552 0.0
C393 C 0.54519 0.05209 0.53674 0.0
C394 C 0.53836 0.98999 0.53669 0.0
C395 C 0.53905 0.02107 0.48647 0.0
C396 C 0.48266 0.02881 0.55688 0.0
O397 O 0.49121 0.04412 0.5136 0.0
O398 O 0.46589 0.0612 0.5091 0.0
O399 O 0.26514 0.26466 0.76248 0.0
Mn400 Mn 0.24362 0.25831 0.74173 0.0
O401 O 0.29188 0.27261 0.74577 0.0
Mn402 Mn 0.28465 0.25879 0.72315 0.0
O403 O 0.22259 0.25211 0.72053 0.0
O404 O 0.22573 0.25051 0.76322 0.0
Mn405 Mn 0.20273 0.25985 0.75928 0.0
O406 O 0.23488 0.28773 0.74474 0.0
O407 O 0.19452 0.24807 0.73604 0.0
O408 O 0.25301 0.22909 0.73877 0.0
O409 O 0.28239 0.2312 0.72501 0.0
O410 O 0.20121 0.24633 0.78219 0.0
O411 O 0.20617 0.28739 0.75964 0.0
C412 C 0.26465 0.27114 0.70305 0.0
C413 C 0.28245 0.27155 0.76164 0.0
C414 C 0.20471 0.24738 0.72066 0.0
C415 C 0.21921 0.24334 0.77913 0.0
C416 C 0.22049 0.29669 0.75247 0.0
C417 C 0.26832 0.22114 0.73184 0.0
O418 O 0.26102 0.26614 0.72047 0.0
O419 O 0.28253 0.26959 0.69857 0.0
O420 O 0.01396 0.969 0.49565 0.0
Mn421 Mn 0.01391 0.99437 0.51421 0.0
O422 O 0.02249 0.94378 0.51459 0.0
Mn423 Mn 0.02538 0.95802 0.53806 0.0
O424 O 0.01408 0.0196 0.53297 0.0
O425 O 0.01899 0.01142 0.49169 0.0
Mn426 Mn 0.00422 0.03217 0.49103 0.0
O427 O 0.98417 0.99672 0.51007 0.0
O428 O 0.00911 0.04608 0.51437 0.0
O429 O 0.04368 0.99224 0.51767 0.0
O430 O 0.04897 0.97057 0.54112 0.0
O431 O 0.0216 0.0343 0.47066 0.0
O432 O 0.97999 0.02082 0.48844 0.0
C433 C 0.00016 0.97013 0.5518 0.0
C434 C 0.01795 0.95061 0.49811 0.0
C435 C 0.01256 0.03844 0.53074 0.0
C436 C 0.02844 0.0181 0.47726 0.0
C437 C 0.97352 0.00676 0.49878 0.0
C438 C 0.05497 0.98347 0.52928 0.0
O439 O 0.00878 0.97727 0.53694 0.0
O440 O 0.00833 0.95461 0.55843 0.0
O441 O 0.27646 0.77495 0.75847 0.0
Mn442 Mn 0.25252 0.75587 0.75696 0.0
O443 O 0.26549 0.80635 0.76143 0.0
Mn444 Mn 0.24011 0.80035 0.75577 0.0
O445 O 0.22857 0.73656 0.75511 0.0
O446 O 0.26973 0.73419 0.74759 0.0
Mn447 Mn 0.26434 0.71129 0.75794 0.0
O448 O 0.25699 0.74813 0.78575 0.0
O449 O 0.23995 0.70572 0.74882 0.0
O450 O 0.24757 0.76373 0.72811 0.0
O451 O 0.2347 0.79438 0.72972 0.0
O452 O 0.28641 0.70775 0.74326 0.0
O453 O 0.26669 0.71622 0.78469 0.0
C454 C 0.22278 0.78601 0.77731 0.0
C455 C 0.27904 0.79386 0.76093 0.0
C456 C 0.22622 0.71796 0.75028 0.0
C457 C 0.2849 0.72654 0.74016 0.0
C458 C 0.26271 0.73243 0.79401 0.0
C459 C 0.23966 0.77862 0.72015 0.0
O460 O 0.23574 0.77763 0.76682 0.0
O461 O 0.22081 0.80469 0.77408 0.0
O462 O 0.49327 0.99407 0.99197 0.0
Mn463 Mn 0.51871 0.99806 0.00745 0.0
O464 O 0.50096 0.98834 0.96041 0.0
Mn465 Mn 0.52688 0.99405 0.96308 0.0
O466 O 0.54403 0.00244 0.02349 0.0
O467 O 0.5036 0.01063 0.02901 0.0
Mn468 Mn 0.51024 0.00302 0.05215 0.0
O469 O 0.51438 0.97024 0.01914 0.0
O470 O 0.53525 0.01228 0.05399 0.0
O471 O 0.52327 0.02615 0.99575 0.0
O472 O 0.53355 0.02084 0.96491 0.0
O473 O 0.48849 0.01845 0.05532 0.0
O474 O 0.50699 0.97539 0.0509 0.0
C475 C 0.54555 0.97341 0.97663 0.0
C476 C 0.48878 0.98987 0.97419 0.0
C477 C 0.54788 0.00929 0.0408 0.0
C478 C 0.4888 0.01893 0.03651 0.0
C479 C 0.50957 0.96391 0.03591 0.0
C480 C 0.5301 0.03239 0.97961 0.0
O481 O 0.53357 0.98481 0.98573 0.0
O482 O 0.54523 0.97508 0.95792 0.0
O483 O 0.28156 0.26244 0.24078 0.0
Mn484 Mn 0.25187 0.2582 0.23872 0.0
O485 O 0.29333 0.23629 0.25617 0.0
Mn486 Mn 0.26999 0.22756 0.26569 0.0
O487 O 0.22205 0.25444 0.23692 0.0
O488 O 0.25023 0.28624 0.23048 0.0
Mn489 Mn 0.23385 0.28906 0.21146 0.0
O490 O 0.2548 0.24849 0.20971 0.0
O491 O 0.21076 0.28151 0.22242 0.0
O492 O 0.24911 0.26796 0.26785 0.0
O493 O 0.2598 0.24306 0.28601 0.0
O494 O 0.24555 0.31385 0.21643 0.0
O495 O 0.24267 0.27232 0.19124 0.0
C496 C 0.25031 0.21094 0.24718 0.0
C497 C 0.2956 0.25238 0.24709 0.0
C498 C 0.20826 0.26546 0.23156 0.0
C499 C 0.25519 0.30463 0.22927 0.0
C500 C 0.25088 0.2556 0.19306 0.0
C501 C 0.2522 0.2601 0.28437 0.0
O502 O 0.25359 0.22983 0.24656 0.0
O503 O 0.26054 0.20215 0.25989 0.0
O504 O 0.513 0.46791 0.0022 0.0
Mn505 Mn 0.51152 0.49649 0.01463 0.0
O506 O 0.52509 0.44833 0.02503 0.0
Mn507 Mn 0.52982 0.46803 0.04429 0.0
O508 O 0.50969 0.52519 0.02675 0.0
O509 O 0.51111 0.50755 0.98834 0.0
Mn510 Mn 0.49179 0.52314 0.98449 0.0
O511 O 0.48148 0.494 0.01505 0.0
O512 O 0.49389 0.54262 0.00442 0.0
O513 O 0.54157 0.49848 0.01423 0.0
O514 O 0.5521 0.48275 0.04058 0.0
O515 O 0.5076 0.52434 0.96263 0.0
O516 O 0.47095 0.50611 0.98698 0.0
C517 C 0.50505 0.48181 0.05783 0.0
C518 C 0.51841 0.45091 0.00798 0.0
C519 C 0.50169 0.54114 0.02115 0.0
C520 C 0.51832 0.51253 0.97209 0.0
C521 C 0.46808 0.49679 0.00262 0.0
C522 C 0.55507 0.49325 0.02567 0.0
O523 O 0.51192 0.48554 0.04104 0.0
O524 O 0.51493 0.46898 0.06694 0.0
O525 O 0.75976 0.27716 0.24696 0.0
Mn526 Mn 0.7412 0.25243 0.24599 0.0
O527 O 0.74132 0.30437 0.24516 0.0
Mn528 Mn 0.71805 0.29136 0.24077 0.0
O529 O 0.7224 0.22789 0.24498 0.0
O530 O 0.76297 0.23525 0.2376 0.0
Mn531 Mn 0.76358 0.21316 0.25047 0.0
O532 O 0.74693 0.24767 0.27542 0.0
O533 O 0.74052 0.20041 0.24461 0.0
O534 O 0.73537 0.25693 0.21658 0.0
O535 O 0.71444 0.28198 0.21534 0.0
O536 O 0.78361 0.21199 0.2328 0.0
O537 O 0.76697 0.2217 0.27624 0.0
C538 C 0.70474 0.27501 0.26376 0.0
C539 C 0.75759 0.29614 0.2466 0.0
C540 C 0.72438 0.20889 0.2436 0.0
C541 C 0.77756 0.22917 0.2278 0.0
C542 C 0.75782 0.2359 0.28462 0.0
C543 C 0.72406 0.26804 0.20713 0.0
O544 O 0.71964 0.26973 0.25417 0.0
O545 O 0.69797 0.29183 0.25866 0.0
O546 O 0.99424 0.48751 0.49223 0.0
Mn547 Mn 0.01804 0.49405 0.50972 0.0
O548 O 0.00548 0.47931 0.4622 0.0
Mn549 Mn 0.02985 0.49014 0.4656 0.0
O550 O 0.0417 0.4999 0.5274 0.0
O551 O 0.00092 0.50508 0.53072 0.0
Mn552 Mn 0.00498 0.49327 0.55282 0.0
O553 O 0.01544 0.46514 0.5199 0.0
O554 O 0.03075 0.49783 0.55826 0.0
O555 O 0.02077 0.52242 0.49841 0.0
O556 O 0.03155 0.51788 0.4675 0.0
O557 O 0.98664 0.51242 0.55784 0.0
O558 O 0.99823 0.46689 0.5475 0.0
C559 C 0.0495 0.47349 0.48291 0.0
C560 C 0.99201 0.4805 0.47474 0.0
C561 C 0.04422 0.50022 0.54591 0.0
C562 C 0.98845 0.51605 0.53954 0.0
C563 C 0.00566 0.45694 0.53337 0.0
C564 C 0.02665 0.52914 0.48206 0.0
O565 O 0.03532 0.48349 0.48926 0.0
O566 O 0.05145 0.47396 0.46423 0.0
O567 O 0.76791 0.75818 0.25791 0.0
Mn568 Mn 0.74604 0.75152 0.23766 0.0
O569 O 0.79473 0.76431 0.24057 0.0
Mn570 Mn 0.78676 0.75006 0.21844 0.0
O571 O 0.72462 0.74498 0.21695 0.0
O572 O 0.72829 0.74498 0.2597 0.0
Mn573 Mn 0.70544 0.75467 0.25567 0.0
O574 O 0.73797 0.78117 0.23965 0.0
O575 O 0.69669 0.74217 0.23297 0.0
O576 O 0.75469 0.72201 0.23568 0.0
O577 O 0.78371 0.72267 0.22101 0.0
O578 O 0.70392 0.74215 0.27914 0.0
O579 O 0.70948 0.78208 0.25498 0.0
C580 C 0.767 0.76262 0.1983 0.0
C581 C 0.78542 0.76438 0.25658 0.0
C582 C 0.70666 0.74064 0.21748 0.0
C583 C 0.72182 0.73866 0.276 0.0
C584 C 0.7239 0.79073 0.24727 0.0
C585 C 0.76955 0.71335 0.22853 0.0
O586 O 0.76334 0.75813 0.21586 0.0
O587 O 0.78474 0.76026 0.19362 0.0
O588 O 0.76775 0.23468 0.74655 0.0
Mn589 Mn 0.73827 0.23979 0.74443 0.0
O590 O 0.78298 0.26065 0.73309 0.0
Mn591 Mn 0.76209 0.26884 0.71915 0.0
O592 O 0.70879 0.2452 0.74261 0.0
O593 O 0.7333 0.21209 0.75321 0.0
Mn594 Mn 0.71465 0.21127 0.77035 0.0
O595 O 0.73823 0.25065 0.77317 0.0
O596 O 0.69346 0.22014 0.75742 0.0
O597 O 0.73869 0.22889 0.71557 0.0
O598 O 0.75457 0.25204 0.69838 0.0
O599 O 0.72304 0.18536 0.76677 0.0
O600 O 0.72306 0.22774 0.79109 0.0
C601 C 0.74056 0.28619 0.7338 0.0
C602 C 0.78303 0.24479 0.74275 0.0
C603 C 0.69339 0.23586 0.74756 0.0
C604 C 0.73513 0.1932 0.75488 0.0
C605 C 0.73226 0.24423 0.78956 0.0
C606 C 0.74534 0.23551 0.6995 0.0
O607 O 0.74305 0.26745 0.73568 0.0
O608 O 0.75263 0.29441 0.72216 0.0
O609 O 0.78102 0.76656 0.74369 0.0
Mn610 Mn 0.75145 0.7619 0.74133 0.0
O611 O 0.79246 0.74196 0.7616 0.0
Mn612 Mn 0.76891 0.73286 0.77031 0.0
O613 O 0.7217 0.75752 0.73921 0.0
O614 O 0.74961 0.78947 0.73201 0.0
Mn615 Mn 0.73265 0.79164 0.71344 0.0
O616 O 0.75482 0.75135 0.71268 0.0
O617 O 0.71002 0.78489 0.72569 0.0
O618 O 0.74804 0.77285 0.77006 0.0
O619 O 0.75743 0.74858 0.78962 0.0
O620 O 0.74489 0.81642 0.7169 0.0
O621 O 0.74042 0.77356 0.6938 0.0
C622 C 0.75099 0.7149 0.75119 0.0
C623 C 0.79488 0.75724 0.75131 0.0
C624 C 0.70771 0.76861 0.73448 0.0
C625 C 0.75476 0.80766 0.72988 0.0
C626 C 0.74955 0.75743 0.69599 0.0
C627 C 0.75017 0.76559 0.787 0.0
O628 O 0.75346 0.7339 0.75022 0.0
O629 O 0.76062 0.707 0.76492 0.0
O630 O 0.5516 0.52031 0.50211 0.0
Mn631 Mn 0.52632 0.50349 0.50431 0.0
O632 O 0.57546 0.5008 0.51198 0.0
Mn633 Mn 0.56067 0.47878 0.51852 0.0
O634 O 0.50099 0.48671 0.50635 0.0
O635 O 0.5117 0.52883 0.50608 0.0
Mn636 Mn 0.49161 0.52788 0.4907 0.0
O637 O 0.52391 0.50203 0.47397 0.0
O638 O 0.47663 0.50701 0.49956 0.0
O639 O 0.52849 0.50459 0.5348 0.0
O640 O 0.54922 0.48088 0.54281 0.0
O641 O 0.49159 0.55268 0.50341 0.0
O642 O 0.50149 0.52395 0.46579 0.0
C643 C 0.54656 0.46123 0.49565 0.0
C644 C 0.56934 0.51721 0.50568 0.0
C645 C 0.48307 0.49034 0.50473 0.0
C646 C 0.50687 0.54651 0.51171 0.0
C647 C 0.5143 0.51126 0.46126 0.0
C648 C 0.53682 0.49398 0.54743 0.0
O649 O 0.5412 0.47835 0.50239 0.0
O650 O 0.56175 0.4549 0.50399 0.0
O651 O 0.98381 0.50083 0.00411 0.0
Mn652 Mn 0.00415 0.52299 0.01163 0.0
O653 O 0.95581 0.51648 0.00013 0.0
Mn654 Mn 0.96291 0.54036 0.01257 0.0
O655 O 0.02431 0.5454 0.01878 0.0
O656 O 0.02243 0.50168 0.01883 0.0
Mn657 Mn 0.04521 0.50632 0.00884 0.0
O658 O 0.01373 0.5219 0.98289 0.0
O659 O 0.05305 0.53071 0.01963 0.0
O660 O 0.99392 0.52411 0.04025 0.0
O661 O 0.96553 0.53969 0.03948 0.0
O662 O 0.04727 0.48323 0.02246 0.0
O663 O 0.04149 0.50541 0.98205 0.0
C664 C 0.98121 0.56035 0.99675 0.0
C665 C 0.96614 0.50099 0.99886 0.0
C666 C 0.04241 0.54583 0.02196 0.0
C667 C 0.02932 0.48589 0.02609 0.0
C668 C 0.02767 0.51377 0.97358 0.0
C669 C 0.97905 0.53152 0.04869 0.0
O670 O 0.98636 0.54425 0.00452 0.0
O671 O 0.96327 0.56406 -0.00081 0.0
C672 C 0.99479 0.20675 0.07375 0.0
C673 C 0.99714 0.21284 0.09341 0.0
C674 C 0.003 0.18915 0.06647 0.0
C675 C 0.01614 0.14008 0.08117 0.0
H676 H 0.04092 0.13649 0.03064 0.0
C677 C 0.02351 0.06387 0.04282 0.0
C678 C 0.01605 0.06386 0.02391 0.0
C679 C 0.02928 0.08188 0.05222 0.0
C680 C 0.03405 0.13718 0.04479 0.0
H681 H 0.01015 0.20527 0.12079 0.0
H682 H 0.02402 0.17418 0.10813 0.0
H683 H 0.03397 0.16913 0.0455 0.0
H684 H 0.01052 0.08195 -0.00082 0.0
H685 H 0.0205 0.11305 0.01517 0.0
H686 H 0.0148 0.10827 0.07994 0.0
C687 C 0.01601 0.18321 0.09836 0.0
C688 C 0.03011 0.1559 0.05329 0.0
C689 C 0.00809 0.20102 0.10557 0.0
C690 C 0.01641 0.0816 0.01376 0.0
C691 C 0.02217 0.0995 0.02302 0.0
C692 C 0.01979 0.12134 0.07253 0.0
C693 C 0.01348 0.17707 0.07875 0.0
C694 C 0.02054 0.15751 0.07126 0.0
C695 C 0.0276 0.10008 0.04276 0.0
C696 C 0.02814 0.11962 0.05387 0.0
H697 H 0.98653 0.21554 0.06397 0.0
H698 H 0.00062 0.18466 0.05135 0.0
H699 H 0.00869 0.14088 0.09501 0.0
H700 H 0.02314 0.05039 0.05094 0.0
H701 H 0.03376 0.08169 0.0673 0.0
C702 C 0.05154 0.73915 0.32088 0.0
C703 C 0.04161 0.75658 0.32607 0.0
C704 C 0.06724 0.73985 0.30831 0.0
C705 C 0.1059 0.7714 0.29158 0.0
H706 H 0.10899 0.73188 0.24917 0.0
C707 C 0.17721 0.7592 0.25252 0.0
C708 C 0.18234 0.73907 0.25252 0.0
C709 C 0.15804 0.76453 0.2552 0.0
C710 C 0.10838 0.74305 0.26091 0.0
H711 H 0.04074 0.78852 0.32251 0.0
H712 H 0.0687 0.78977 0.30094 0.0
H713 H 0.07957 0.73477 0.26816 0.0
H714 H 0.17147 0.70874 0.25292 0.0
H715 H 0.13836 0.7178 0.25743 0.0
H716 H 0.13507 0.7788 0.28534 0.0
C717 C 0.06404 0.77556 0.30644 0.0
C718 C 0.09152 0.7447 0.27176 0.0
C719 C 0.04808 0.77483 0.31879 0.0
C720 C 0.16786 0.72437 0.25288 0.0
C721 C 0.14881 0.72964 0.25545 0.0
C722 C 0.12289 0.76958 0.2809 0.0
C723 C 0.07357 0.75801 0.30085 0.0
C724 C 0.09033 0.75843 0.2876 0.0
C725 C 0.14377 0.74978 0.25778 0.0
C726 C 0.12457 0.75487 0.26587 0.0
H727 H 0.04692 0.72484 0.32616 0.0
H728 H 0.07452 0.72614 0.30449 0.0
H729 H 0.10535 0.78211 0.30374 0.0
H730 H 0.18813 0.77084 0.25239 0.0
H731 H 0.1546 0.78018 0.25653 0.0
C732 C 0.51381 0.82315 0.59108 0.0
C733 C 0.49884 0.81139 0.58292 0.0
C734 C 0.51781 0.84212 0.58423 0.0
C735 C 0.49381 0.88257 0.55908 0.0
H736 H 0.54462 0.90649 0.56039 0.0
C737 C 0.51459 0.96198 0.53253 0.0
C738 C 0.52803 0.97262 0.54415 0.0
C739 C 0.50908 0.94254 0.53714 0.0
C740 C 0.53031 0.90005 0.56012 0.0
H741 H 0.47745 0.80973 0.56001 0.0
H742 H 0.48482 0.84257 0.54773 0.0
H743 H 0.54058 0.87119 0.56643 0.0
H744 H 0.54551 0.97197 0.57008 0.0
H745 H 0.53575 0.93826 0.57831 0.0
H746 H 0.48368 0.9116 0.55253 0.0
C747 C 0.49304 0.83738 0.55985 0.0
C748 C 0.52799 0.87981 0.56357 0.0
C749 C 0.48896 0.81845 0.56678 0.0
C750 C 0.53497 0.96409 0.56103 0.0
C751 C 0.52955 0.94475 0.5656 0.0
C752 C 0.49617 0.90285 0.55545 0.0
C753 C 0.50707 0.84973 0.56893 0.0
C754 C 0.50969 0.87085 0.56342 0.0
C755 C 0.51719 0.93347 0.55327 0.0
C756 C 0.51442 0.91185 0.55632 0.0
H757 H 0.52168 0.81826 0.60357 0.0
H758 H 0.52864 0.85121 0.59169 0.0
H759 H 0.47946 0.87625 0.55909 0.0
H760 H 0.50968 0.96789 0.51901 0.0
H761 H 0.4996 0.93414 0.52733 0.0
C762 C 0.42946 0.26907 0.83578 0.0
C763 C 0.43388 0.2535 0.84805 0.0
C764 C 0.41044 0.27437 0.83295 0.0
C765 C 0.36333 0.25133 0.83195 0.0
H766 H 0.3457 0.30515 0.82569 0.0
C767 C 0.29246 0.26191 0.79465 0.0
C768 C 0.29332 0.27557 0.77971 0.0
C769 C 0.30611 0.26261 0.80948 0.0
C770 C 0.35038 0.29003 0.8274 0.0
H771 H 0.42191 0.23167 0.86742 0.0
H772 H 0.38879 0.24089 0.86241 0.0
H773 H 0.37752 0.29982 0.83908 0.0
H774 H 0.30853 0.30123 0.76888 0.0
H775 H 0.33295 0.30195 0.79404 0.0
H776 H 0.33709 0.24132 0.8191 0.0
C777 C 0.40001 0.24899 0.85501 0.0
C778 C 0.36857 0.287 0.83509 0.0
C779 C 0.419 0.24376 0.8579 0.0
C780 C 0.30744 0.29066 0.7804 0.0
C781 C 0.32137 0.29113 0.79496 0.0
C782 C 0.34531 0.25431 0.82407 0.0
C783 C 0.39553 0.26409 0.84224 0.0
C784 C 0.37538 0.26761 0.83694 0.0
C785 C 0.32138 0.27652 0.80917 0.0
C786 C 0.33879 0.2737 0.82114 0.0
H787 H 0.44064 0.27691 0.82807 0.0
H788 H 0.40737 0.28591 0.82284 0.0
H789 H 0.36828 0.2362 0.83297 0.0
H790 H 0.28243 0.24952 0.79386 0.0
H791 H 0.30546 0.25131 0.82034 0.0
C792 C -0.00078 0.80324 0.39022 0.0
C793 C 0.98322 0.79229 0.39668 0.0
C794 C 0.00313 0.82247 0.39798 0.0
C795 C 0.9958 0.85138 0.44293 0.0
H796 H 0.01018 0.89808 0.41418 0.0
C797 C 0.02799 0.91867 0.48234 0.0
C798 C 0.01717 0.93606 0.48146 0.0
C799 C 0.0252 0.90304 0.46879 0.0
C800 C 0.00611 0.88512 0.42228 0.0
H801 H 0.95834 0.79344 0.41571 0.0
H802 H 0.96526 0.82662 0.42915 0.0
H803 H 0.00187 0.86655 0.39641 0.0
H804 H 0.99622 0.9515 0.46461 0.0
H805 H 0.99117 0.9237 0.4407 0.0
H806 H 0.00017 0.86956 0.46871 0.0
C807 C 0.97486 0.8203 0.41826 0.0
C808 C 0.00151 0.86714 0.41219 0.0
C809 C 0.97094 0.80124 0.41054 0.0
C810 C 0.00464 0.93819 0.46569 0.0
C811 C 0.00179 0.92237 0.45203 0.0
C812 C 0.00058 0.86912 0.45292 0.0
C813 C 0.99116 0.83097 0.41236 0.0
C814 C 0.99625 0.85015 0.42249 0.0
C815 C 0.01153 0.9044 0.45402 0.0
C816 C 0.00587 0.88611 0.44275 0.0
H817 H 0.00889 0.79686 0.37945 0.0
H818 H 0.01585 0.83037 0.39326 0.0
H819 H 0.99199 0.83849 0.45125 0.0
H820 H 0.03811 0.91675 0.49404 0.0
H821 H 0.03308 0.88944 0.47042 0.0
C822 C 0.42263 0.76422 0.64073 0.0
C823 C 0.43794 0.75534 0.65027 0.0
C824 C 0.40459 0.76522 0.64952 0.0
C825 C 0.38322 0.76553 0.69837 0.0
H826 H 0.33545 0.75133 0.67239 0.0
C827 C 0.3195 0.73211 0.73619 0.0
C828 C 0.30087 0.73782 0.73177 0.0
C829 C 0.33507 0.74027 0.72656 0.0
C830 C 0.34862 0.75589 0.67968 0.0
H831 H 0.44601 0.73935 0.67582 0.0
H832 H 0.41455 0.74085 0.69096 0.0
H833 H 0.36527 0.75192 0.6536 0.0
H834 H 0.28378 0.75723 0.7147 0.0
H835 H 0.31131 0.77102 0.69677 0.0
H836 H 0.36679 0.7685 0.72459 0.0
C837 C 0.4166 0.74747 0.67693 0.0
C838 C 0.36567 0.75608 0.66898 0.0
C839 C 0.43457 0.74641 0.66815 0.0
C840 C 0.29804 0.75255 0.71814 0.0
C841 C 0.31372 0.76037 0.70797 0.0
C842 C 0.36624 0.76534 0.70901 0.0
C843 C 0.40161 0.75743 0.66801 0.0
C844 C 0.38321 0.76007 0.67842 0.0
C845 C 0.33233 0.75403 0.71197 0.0
C846 C 0.34893 0.75971 0.69993 0.0
H847 H 0.42478 0.77125 0.62693 0.0
H848 H 0.39325 0.77288 0.64228 0.0
H849 H 0.39648 0.76921 0.70591 0.0
H850 H 0.32202 0.72084 0.74677 0.0
H851 H 0.34923 0.73494 0.72978 0.0
C852 C 0.4946 0.19312 0.92806 0.0
C853 C 0.50266 0.19913 0.91037 0.0
C854 C 0.50309 0.17833 0.93869 0.0
C855 C 0.52621 0.14938 0.96167 0.0
H856 H 0.5382 0.10341 0.92848 0.0
C857 C 0.54708 0.06031 0.96368 0.0
C858 C 0.53337 0.05394 0.97717 0.0
C859 C 0.54825 0.08022 0.95866 0.0
C860 C 0.53539 0.11618 0.93807 0.0
H861 H 0.52679 0.19532 0.89077 0.0
H862 H 0.54169 0.16945 0.90943 0.0
H863 H 0.53198 0.13493 0.91392 0.0
H864 H 0.51112 0.06367 0.99716 0.0
H865 H 0.51257 0.09841 0.98783 0.0
H866 H 0.52897 0.13024 0.98581 0.0
C867 C 0.5286 0.17604 0.91488 0.0
C868 C 0.53182 0.13433 0.92966 0.0
C869 C 0.5201 0.19091 0.90422 0.0
C870 C 0.52174 0.06814 0.98661 0.0
C871 C 0.52267 0.08808 0.98133 0.0
C872 C 0.52984 0.13116 0.97012 0.0
C873 C 0.51986 0.16917 0.93192 0.0
C874 C 0.52672 0.15102 0.94129 0.0
C875 C 0.53548 0.09418 0.96675 0.0
C876 C 0.53405 0.11423 0.95837 0.0
H877 H 0.48127 0.19928 0.93337 0.0
H878 H 0.49588 0.1733 0.95164 0.0
H879 H 0.52253 0.16205 0.97104 0.0
H880 H 0.55653 0.04975 0.95647 0.0
H881 H 0.55866 0.0845 0.94782 0.0
C882 C 0.05097 0.2535 0.17043 0.0
C883 C 0.03692 0.26582 0.17888 0.0
C884 C 0.06819 0.25048 0.18015 0.0
C885 C 0.10056 0.27516 0.21489 0.0
H886 H 0.12401 0.22344 0.21794 0.0
C887 C 0.17591 0.27104 0.24508 0.0
C888 C 0.18837 0.25887 0.23423 0.0
C889 C 0.15614 0.26862 0.24299 0.0
C890 C 0.11773 0.23801 0.21714 0.0
H891 H 0.02983 0.28444 0.20425 0.0
H892 H 0.06008 0.27946 0.22101 0.0
H893 H 0.09191 0.22593 0.20423 0.0
H894 H 0.1903 0.23391 0.21361 0.0
H895 H 0.15581 0.23006 0.20923 0.0
H896 H 0.12647 0.28756 0.2266 0.0
C897 C 0.05769 0.27208 0.20692 0.0
C898 C 0.09933 0.2394 0.20932 0.0
C899 C 0.04038 0.27491 0.19732 0.0
C900 C 0.18086 0.24327 0.22233 0.0
C901 C 0.16105 0.24112 0.21985 0.0
C902 C 0.119 0.27383 0.22242 0.0
C903 C 0.0718 0.25991 0.19839 0.0
C904 C 0.09067 0.25803 0.20794 0.0
C905 C 0.14847 0.25442 0.22944 0.0
C906 C 0.12798 0.25527 0.22347 0.0
H907 H 0.04869 0.24619 0.15629 0.0
H908 H 0.0789 0.24119 0.17315 0.0
H909 H 0.09436 0.28975 0.21375 0.0
H910 H 0.18149 0.28322 0.25428 0.0
H911 H 0.14694 0.27869 0.25115 0.0
C912 C 0.08276 0.02756 0.217 0.0
C913 C 0.09393 0.01127 0.22195 0.0
C914 C 0.07177 0.02675 0.19996 0.0
C915 C 0.0504 0.99115 0.1636 0.0
H916 H 0.05519 0.03442 0.12789 0.0
C917 C 0.04418 0.98 0.08142 0.0
C918 C 0.03669 0.99499 0.07001 0.0
C919 C 0.04565 0.98271 0.10155 0.0
C920 C 0.05328 0.02242 0.13788 0.0
H921 H 0.10232 0.98137 0.21291 0.0
H922 H 0.0833 0.98003 0.18327 0.0
H923 H 0.06903 0.03818 0.16046 0.0
H924 H 0.0234 0.0239 0.07107 0.0
H925 H 0.02634 0.02889 0.10646 0.0
H926 H 0.03533 0.97508 0.14079 0.0
C927 C 0.08282 0.99333 0.19264 0.0
C928 C 0.06127 0.02455 0.15651 0.0
C929 C 0.09387 0.99418 0.20955 0.0
C930 C 0.02953 0.01225 0.07939 0.0
C931 C 0.03122 0.0151 0.09964 0.0
C932 C 0.0424 0.98904 0.14502 0.0
C933 C 0.07163 0.00958 0.18767 0.0
C934 C 0.06052 0.00865 0.16927 0.0
C935 C 0.03973 0.00052 0.11084 0.0
C936 C 0.04438 0.00436 0.13171 0.0
H937 H 0.08248 0.04094 0.22627 0.0
H938 H 0.06326 0.03948 0.19649 0.0
H939 H 0.04924 0.97882 0.1733 0.0
H940 H 0.04961 0.96637 0.07473 0.0
H941 H 0.05243 0.97125 0.1097 0.0
C942 C 0.25652 0.85512 0.44833 0.0
C943 C 0.27555 0.85277 0.45427 0.0
C944 C 0.2508 0.84902 0.42948 0.0
C945 C 0.24325 0.81855 0.39542 0.0
H946 H 0.27154 0.83285 0.34919 0.0
C947 C 0.22562 0.77922 0.32237 0.0
C948 C 0.24115 0.77395 0.31045 0.0
C949 C 0.22801 0.79306 0.33783 0.0
C950 C 0.26357 0.82854 0.36194 0.0
H951 H 0.30368 0.84309 0.44491 0.0
H952 H 0.29373 0.83285 0.41199 0.0
H953 H 0.27937 0.84914 0.38061 0.0
H954 H 0.27114 0.77945 0.30459 0.0
H955 H 0.27577 0.80277 0.33232 0.0
H956 H 0.22839 0.79698 0.37746 0.0
C957 C 0.28324 0.83922 0.42193 0.0
C958 C 0.26797 0.83801 0.37988 0.0
C959 C 0.28886 0.8449 0.44082 0.0
C960 C 0.25895 0.78338 0.31362 0.0
C961 C 0.26152 0.79684 0.32948 0.0
C962 C 0.2391 0.80879 0.37761 0.0
C963 C 0.26412 0.84096 0.41617 0.0
C964 C 0.25801 0.83288 0.39681 0.0
C965 C 0.24617 0.80145 0.34214 0.0
C966 C 0.24939 0.81341 0.36063 0.0
H967 H 0.24598 0.86118 0.45837 0.0
H968 H 0.23595 0.85046 0.42533 0.0
H969 H 0.23555 0.81414 0.40833 0.0
H970 H 0.21167 0.7723 0.31995 0.0
H971 H 0.21568 0.79671 0.34674 0.0
C972 C 0.43684 0.99599 0.72592 0.0
C973 C 0.42114 0.00799 0.73085 0.0
C974 C 0.44656 0.99833 0.70827 0.0
C975 C 0.45405 0.03458 0.6694 0.0
H976 H 0.46743 0.98832 0.63712 0.0
C977 C 0.46454 0.0379 0.5871 0.0
C978 C 0.47955 0.02737 0.57811 0.0
C979 C 0.46063 0.03595 0.60684 0.0
C980 C 0.4641 0.00137 0.64613 0.0
H981 H 0.40322 0.03171 0.72099 0.0
H982 H 0.41993 0.03559 0.69028 0.0
H983 H 0.45413 0.98381 0.66967 0.0
H984 H 0.5024 0.00664 0.58287 0.0
H985 H 0.49531 0.00301 0.61763 0.0
H986 H 0.46339 0.0521 0.64565 0.0
C987 C 0.425 0.02461 0.70015 0.0
C988 C 0.45647 0.9988 0.66476 0.0
C989 C 0.41531 0.02228 0.71772 0.0
C990 C 0.49079 0.01501 0.58943 0.0
C991 C 0.48668 0.01284 0.60925 0.0
C992 C 0.46159 0.03713 0.65082 0.0
C993 C 0.4408 0.01276 0.69524 0.0
C994 C 0.45089 0.01538 0.67639 0.0
C995 C 0.4715 0.02328 0.61811 0.0
C996 C 0.46624 0.02055 0.63879 0.0
H997 H 0.44171 0.98485 0.73572 0.0
H998 H 0.45874 0.98903 0.70496 0.0
H999 H 0.45035 0.04768 0.67818 0.0
H1000 H 0.45566 0.04761 0.57884 0.0
H1001 H 0.44869 0.04398 0.61318 0.0
C1002 C 0.26229 0.17135 0.92958 0.0
C1003 C 0.28034 0.17532 0.93794 0.0
C1004 C 0.25645 0.18145 0.91329 0.0
C1005 C 0.27698 0.20849 0.87198 0.0
H1006 H 0.2234 0.21635 0.86053 0.0
C1007 C 0.24517 0.24601 0.80359 0.0
C1008 C 0.23086 0.23452 0.79412 0.0
C1009 C 0.25301 0.23981 0.82106 0.0
C1010 C 0.23841 0.21418 0.86358 0.0
H1011 H 0.30577 0.1942 0.93667 0.0
H1012 H 0.29525 0.21238 0.90861 0.0
H1013 H 0.23266 0.20623 0.89285 0.0
H1014 H 0.21327 0.20779 0.79516 0.0
H1015 H 0.22697 0.19683 0.82571 0.0
H1016 H 0.28255 0.21697 0.8426 0.0
C1017 C 0.2859 0.20093 0.91425 0.0
C1018 C 0.24374 0.20833 0.88204 0.0
C1019 C 0.29185 0.19063 0.93045 0.0
C1020 C 0.2247 0.21656 0.80202 0.0
C1021 C 0.23238 0.21043 0.81951 0.0
C1022 C 0.27164 0.21472 0.85357 0.0
C1023 C 0.26837 0.19602 0.9051 0.0
C1024 C 0.26303 0.20488 0.88635 0.0
C1025 C 0.24625 0.22226 0.82939 0.0
C1026 C 0.25227 0.21709 0.84912 0.0
H1027 H 0.25303 0.15966 0.93492 0.0
H1028 H 0.24297 0.17704 0.90656 0.0
H1029 H 0.29195 0.20576 0.87465 0.0
H1030 H 0.24932 0.26043 0.79823 0.0
H1031 H 0.26348 0.24928 0.82863 0.0
C1032 C 0.10107 0.01392 0.33498 0.0
C1033 C 0.11949 0.00858 0.32884 0.0
C1034 C 0.09546 0.01147 0.35427 0.0
C1035 C 0.11217 0.00486 0.40416 0.0
H1036 H 0.06157 0.98117 0.40964 0.0
C1037 C 0.04675 0.98987 0.46243 0.0
C1038 C 0.04613 0.0097 0.4694 0.0
C1039 C 0.06125 0.98396 0.4495 0.0
C1040 C 0.07596 0.98726 0.40848 0.0
H1041 H 0.14695 0.99788 0.33844 0.0
H1042 H 0.13717 0.99389 0.37218 0.0
H1043 H 0.0753 0.98439 0.3774 0.0
H1044 H 0.06101 0.0382 0.47068 0.0
H1045 H 0.08621 0.02807 0.44836 0.0
H1046 H 0.11248 0.00836 0.43531 0.0
C1047 C 0.12705 -0.00023 0.36203 0.0
C1048 C 0.08365 0.98947 0.38995 0.0
C1049 C 0.13263 0.00213 0.3427 0.0
C1050 C 0.06124 0.02284 0.46529 0.0
C1051 C 0.07578 0.01694 0.45262 0.0
C1052 C 0.10444 0.00268 0.42278 0.0
C1053 C 0.1082 0.00372 0.3678 0.0
C1054 C 0.10144 0.99907 0.38758 0.0
C1055 C 0.0752 0.99787 0.44354 0.0
C1056 C 0.08588 0.99464 0.42506 0.0
H1057 H 0.09064 0.01898 0.32469 0.0
H1058 H 0.08097 0.01512 0.35849 0.0
H1059 H 0.12603 0.01211 0.40273 0.0
H1060 H 0.03512 0.97957 0.46535 0.0
H1061 H 0.06061 0.96908 0.44289 0.0
C1062 C 0.27247 0.81444 0.55461 0.0
C1063 C 0.26304 0.83107 0.54753 0.0
C1064 C 0.26525 0.8045 0.57066 0.0
C1065 C 0.23761 0.81677 0.61433 0.0
H1066 H 0.24333 0.76093 0.62527 0.0
C1067 C 0.22297 0.7907 0.69089 0.0
C1068 C 0.23682 0.77839 0.69877 0.0
C1069 C 0.22212 0.79338 0.67087 0.0
C1070 C 0.2417 0.77657 0.62245 0.0
H1071 H 0.23758 0.84897 0.55061 0.0
H1072 H 0.2249 0.83147 0.57843 0.0
H1073 H 0.24878 0.77226 0.59217 0.0
H1074 H 0.25951 0.75781 0.69158 0.0
H1075 H 0.25871 0.76322 0.65663 0.0
H1076 H 0.23145 0.82145 0.64451 0.0
C1077 C 0.23814 0.82645 0.57185 0.0
C1078 C 0.24476 0.78304 0.60348 0.0
C1079 C 0.24538 0.83642 0.55583 0.0
C1080 C 0.24889 0.76764 0.68601 0.0
C1081 C 0.2483 0.77063 0.66592 0.0
C1082 C 0.23466 0.81036 0.6332 0.0
C1083 C 0.2484 0.81092 0.57995 0.0
C1084 C 0.24298 0.80328 0.59929 0.0
C1085 C 0.23536 0.78414 0.65821 0.0
C1086 C 0.23687 0.79023 0.6376 0.0
H1087 H 0.28605 0.80978 0.54851 0.0
H1088 H 0.27355 0.79265 0.57655 0.0
H1089 H 0.23656 0.83253 0.61178 0.0
H1090 H 0.21311 0.79882 0.70028 0.0
H1091 H 0.21152 0.80335 0.66541 0.0
C1092 C 0.40653 0.98684 0.8411 0.0
C1093 C 0.38983 0.99685 0.83628 0.0
C1094 C 0.40968 0.98124 0.86018 0.0
C1095 C 0.3978 0.99751 0.90987 0.0
H1096 H 0.43097 0.95375 0.92117 0.0
C1097 C 0.46026 0.00547 0.96098 0.0
C1098 C 0.4686 0.98871 0.9687 0.0
C1099 C 0.4431 0.00361 0.95074 0.0
C1100 C 0.42126 0.96578 0.91862 0.0
H1101 H 0.36285 0.00797 0.84749 0.0
H1102 H 0.36831 0.99804 0.88086 0.0
H1103 H 0.41454 0.95388 0.89012 0.0
H1104 H 0.46529 0.95718 0.97333 0.0
H1105 H 0.43495 0.95378 0.95555 0.0
H1106 H 0.40496 0.00967 0.9382 0.0
C1107 C 0.37905 0.99469 0.86989 0.0
C1108 C 0.41205 0.96598 0.90062 0.0
C1109 C 0.3759 0.00031 0.85075 0.0
C1110 C 0.4589 0.9703 0.96752 0.0
C1111 C 0.44166 0.96838 0.95725 0.0
C1112 C 0.40686 0.9972 0.92798 0.0
C1113 C 0.39618 0.98549 0.87491 0.0
C1114 C 0.40121 0.98245 0.89559 0.0
C1115 C 0.43412 0.98482 0.94784 0.0
C1116 C 0.41968 0.98198 0.93206 0.0
H1117 H 0.41752 0.9839 0.83028 0.0
H1118 H 0.42319 0.97451 0.86354 0.0
H1119 H 0.38945 0.01039 0.90655 0.0
H1120 H 0.46778 0.01972 0.96152 0.0
H1121 H 0.43795 0.01659 0.94358 0.0
C1122 C 0.30702 0.17534 0.03997 0.0
C1123 C 0.29392 0.16157 0.03135 0.0
C1124 C 0.30306 0.18469 0.05801 0.0
C1125 C 0.27275 0.18089 0.10212 0.0
H1126 H 0.28419 0.23743 0.10842 0.0
C1127 C 0.2642 0.22505 0.17589 0.0
C1128 C 0.25616 0.24407 0.17503 0.0
C1129 C 0.26924 0.2144 0.15878 0.0
C1130 C 0.28082 0.22165 0.10688 0.0
H1131 H 0.26642 0.14673 0.0352 0.0
H1132 H 0.25947 0.1632 0.06655 0.0
H1133 H 0.29195 0.21991 0.07785 0.0
H1134 H 0.24697 0.26664 0.15533 0.0
H1135 H 0.25561 0.2481 0.12571 0.0
H1136 H 0.26121 0.1828 0.13106 0.0
C1137 C 0.27292 0.16658 0.05943 0.0
C1138 C 0.28547 0.21155 0.08942 0.0
C1139 C 0.27686 0.15723 0.04137 0.0
C1140 C 0.25319 0.2521 0.15664 0.0
C1141 C 0.25827 0.2415 0.1396 0.0
C1142 C 0.26813 0.191 0.11964 0.0
C1143 C 0.28592 0.18053 0.06791 0.0
C1144 C 0.28141 0.19107 0.08677 0.0
C1145 C 0.26643 0.22258 0.14043 0.0
C1146 C 0.27197 0.21155 0.12216 0.0
H1147 H 0.32035 0.17899 0.03277 0.0
H1148 H 0.31351 0.19514 0.06425 0.0
H1149 H 0.2696 0.16507 0.10063 0.0
H1150 H 0.26666 0.21836 0.18978 0.0
H1151 H 0.27563 0.19991 0.15993 0.0
C1152 C 0.2116 0.10716 0.9906 0.0
C1153 C 0.21788 0.11367 0.97241 0.0
C1154 C 0.19231 0.10249 0.99369 0.0
C1155 C 0.14874 0.08673 0.96681 0.0
H1156 H 0.1256 0.09358 0.01792 0.0
C1157 C 0.07558 0.05047 0.9861 0.0
C1158 C 0.0776 0.03797 0.00191 0.0
C1159 C 0.08989 0.06467 0.98212 0.0
C1160 C 0.1318 0.09176 0.00351 0.0
H1161 H 0.20867 0.1211 0.94343 0.0
H1162 H 0.17496 0.11319 0.94893 0.0
H1163 H 0.15651 0.10941 0.0114 0.0
H1164 H 0.09523 0.03133 0.02671 0.0
H1165 H 0.11978 0.05623 0.0201 0.0
H1166 H 0.1242 0.06858 0.95917 0.0
C1167 C 0.185 0.11136 0.9607 0.0
C1168 C 0.14956 0.10068 -0.0002 0.0
C1169 C 0.20433 0.11596 0.95757 0.0
C1170 C 0.09342 0.04069 0.01433 0.0
C1171 C 0.1074 0.05506 0.01064 0.0
C1172 C 0.13088 0.07793 0.97049 0.0
C1173 C 0.17878 0.10432 0.97872 0.0
C1174 C 0.15859 0.09766 0.98164 0.0
C1175 C 0.10607 0.06686 0.99424 0.0
C1176 C 0.12259 0.07976 0.98909 0.0
H1177 H 0.22164 0.10521 0.00234 0.0
H1178 H 0.18813 0.09679 0.00766 0.0
H1179 H 0.15529 0.08394 0.9527 0.0
H1180 H 0.06349 0.04861 0.97632 0.0
H1181 H 0.08855 0.07362 0.96939 0.0
C1182 C 0.71056 0.43196 0.02658 0.0
C1183 C 0.71642 0.41892 0.01135 0.0
C1184 C 0.69454 0.44382 0.02451 0.0
C1185 C 0.65006 0.44793 0.99597 0.0
H1186 H 0.64896 0.50004 0.02215 0.0
C1187 C 0.58051 0.49184 0.00018 0.0
C1188 C 0.57525 0.49574 0.01969 0.0
C1189 C 0.59946 0.48725 0.99541 0.0
C1190 C 0.6491 0.4856 0.01462 0.0
H1191 H 0.70999 0.40815 0.98192 0.0
H1192 H 0.68204 0.4291 0.97817 0.0
H1193 H 0.6787 0.48154 0.02091 0.0
H1194 H 0.58592 0.50001 0.04915 0.0
H1195 H 0.61897 0.49258 0.04084 0.0
H1196 H 0.62033 0.45187 0.99005 0.0
C1197 C 0.68975 0.42996 0.99184 0.0
C1198 C 0.66609 0.47489 0.01404 0.0
C1199 C 0.70578 0.41795 0.99397 0.0
C1200 C 0.5896 0.49711 0.03399 0.0
C1201 C 0.60855 0.49283 0.0292 0.0
C1202 C 0.6331 0.45872 0.99641 0.0
C1203 C 0.68396 0.44312 0.00708 0.0
C1204 C 0.66664 0.45562 0.00529 0.0
C1205 C 0.61349 0.48683 0.01006 0.0
C1206 C 0.63229 0.47741 0.00626 0.0
H1207 H 0.71835 0.43302 0.04021 0.0
H1208 H 0.69029 0.45335 0.03676 0.0
H1209 H 0.64984 0.43311 0.98923 0.0
H1210 H 0.56973 0.49043 0.98891 0.0
H1211 H 0.60291 0.48288 0.98049 0.0
C1212 C 0.86238 0.44089 0.26556 0.0
C1213 C 0.85384 0.45069 0.28172 0.0
C1214 C 0.85756 0.42105 0.26064 0.0
C1215 C 0.83394 0.37592 0.28022 0.0
H1216 H 0.82055 0.364 0.22627 0.0
C1217 C 0.79122 0.30467 0.2574 0.0
C1218 C 0.77455 0.30951 0.24733 0.0
C1219 C 0.80624 0.31868 0.25956 0.0
C1220 C 0.82447 0.367 0.24135 0.0
H1221 H 0.83361 0.44718 0.30544 0.0
H1222 H 0.82498 0.41291 0.29666 0.0
H1223 H 0.83659 0.3955 0.23509 0.0
H1224 H 0.76106 0.33206 0.2304 0.0
H1225 H 0.78697 0.35623 0.23412 0.0
H1226 H 0.82057 0.34802 0.28664 0.0
C1227 C 0.83569 0.42038 0.28799 0.0
C1228 C 0.83377 0.38499 0.2464 0.0
C1229 C 0.84048 0.44016 0.29289 0.0
C1230 C 0.77363 0.328 0.23849 0.0
C1231 C 0.78861 0.34178 0.2404 0.0
C1232 C 0.82462 0.35793 0.27517 0.0
C1233 C 0.84414 0.41059 0.27181 0.0
C1234 C 0.83785 0.39002 0.26601 0.0
C1235 C 0.80489 0.33751 0.25134 0.0
C1236 C 0.81902 0.35371 0.25581 0.0
H1237 H 0.87284 0.4485 0.2567 0.0
H1238 H 0.86436 0.41389 0.24813 0.0
H1239 H 0.83728 0.37921 0.29541 0.0
H1240 H 0.79231 0.29047 0.26428 0.0
H1241 H 0.81867 0.315 0.26803 0.0
C1242 C 0.85478 0.61453 0.48501 0.0
C1243 C 0.83837 0.60362 0.49036 0.0
C1244 C 0.87301 0.60707 0.48805 0.0
C1245 C 0.89858 0.56061 0.49334 0.0
H1246 H 0.93717 0.59326 0.52033 0.0
C1247 C 0.96627 0.54444 0.54226 0.0
C1248 C 0.97643 0.5309 0.53029 0.0
C1249 C 0.9522 0.55623 0.53446 0.0
C1250 C 0.9266 0.58409 0.51254 0.0
H1251 H 0.82824 0.57626 0.50304 0.0
H1252 H 0.86018 0.56312 0.50817 0.0
H1253 H 0.90606 0.60743 0.51302 0.0
H1254 H 0.98098 0.52047 0.5005 0.0
H1255 H 0.95575 0.54062 0.48684 0.0
H1256 H 0.91894 0.53712 0.49329 0.0
C1257 C 0.85884 0.57748 0.50164 0.0
C1258 C 0.90885 0.59217 0.50837 0.0
C1259 C 0.84059 0.58508 0.49885 0.0
C1260 C 0.97317 0.53042 0.51011 0.0
C1261 C 0.95876 0.54198 0.50231 0.0
C1262 C 0.91643 0.55261 0.49727 0.0
C1263 C 0.87521 0.58839 0.49621 0.0
C1264 C 0.89452 0.58035 0.49917 0.0
C1265 C 0.9478 0.55455 0.51455 0.0
C1266 C 0.93042 0.56414 0.50733 0.0
H1267 H 0.85363 0.62873 0.47822 0.0
H1268 H 0.8854 0.61571 0.48364 0.0
H1269 H 0.88784 0.55127 0.48602 0.0
H1270 H 0.96861 0.54532 0.55787 0.0
H1271 H 0.94392 0.56573 0.54425 0.0
C1272 C 0.1586 0.06156 0.24883 0.0
C1273 C 0.16611 0.05542 0.26664 0.0
C1274 C 0.16314 0.08047 0.24194 0.0
C1275 C 0.17936 0.13051 0.25887 0.0
H1276 H 0.20104 0.13601 0.20729 0.0
C1277 C 0.21595 0.20334 0.2412 0.0
C1278 C 0.23516 0.19974 0.23657 0.0
C1279 C 0.20219 0.18804 0.23872 0.0
C1280 C 0.19473 0.13479 0.22162 0.0
H1281 H 0.18423 0.06447 0.29113 0.0
H1282 H 0.19193 0.09734 0.27922 0.0
H1283 H 0.18768 0.10378 0.21668 0.0
H1284 H 0.25479 0.17846 0.22377 0.0
H1285 H 0.23094 0.152 0.21905 0.0
H1286 H 0.18724 0.16103 0.26432 0.0
C1287 C 0.18251 0.08756 0.27062 0.0
C1288 C 0.18704 0.11636 0.22697 0.0
C1289 C 0.17822 0.06863 0.27735 0.0
C1290 C 0.23998 0.18162 0.22721 0.0
C1291 C 0.22627 0.16643 0.22457 0.0
C1292 C 0.18686 0.14891 0.25349 0.0
C1293 C 0.17499 0.09373 0.25289 0.0
C1294 C 0.17999 0.11386 0.24593 0.0
C1295 C 0.20752 0.16901 0.23154 0.0
C1296 C 0.19531 0.15111 0.23506 0.0
H1297 H 0.14923 0.05175 0.24021 0.0
H1298 H 0.15717 0.08485 0.22822 0.0
H1299 H 0.17377 0.12907 0.27349 0.0
H1300 H 0.21197 0.21706 0.24881 0.0
H1301 H 0.18779 0.19058 0.24399 0.0
C1302 C 0.33488 0.92144 0.49148 0.0
C1303 C 0.32994 0.90228 0.4975 0.0
C1304 C 0.35384 0.92632 0.48706 0.0
C1305 C 0.40314 0.91036 0.49736 0.0
H1306 H 0.41475 0.95421 0.46398 0.0
C1307 C 0.46395 0.96545 0.51348 0.0
C1308 C 0.46957 0.9788 0.49928 0.0
C1309 C 0.45108 0.94991 0.50877 0.0
C1310 C 0.41213 0.94157 0.473 0.0
H1311 H 0.34095 0.87293 0.50266 0.0
H1312 H 0.37381 0.88116 0.49415 0.0
H1313 H 0.38333 0.93891 0.46288 0.0
H1314 H 0.46826 0.98538 0.46875 0.0
H1315 H 0.44697 0.95732 0.46003 0.0
H1316 H 0.43211 0.91271 0.50714 0.0
C1317 C 0.36317 0.89264 0.49342 0.0
C1318 C 0.39381 0.93303 0.47265 0.0
C1319 C 0.34423 0.88786 0.49817 0.0
C1320 C 0.46402 0.97515 0.47989 0.0
C1321 C 0.45158 0.95927 0.47503 0.0
C1322 C 0.42164 0.9186 0.49738 0.0
C1323 C 0.36832 0.91207 0.48821 0.0
C1324 C 0.38876 0.91806 0.48557 0.0
C1325 C 0.44383 0.94733 0.48966 0.0
C1326 C 0.42611 0.93505 0.48597 0.0
H1327 H 0.32424 0.93294 0.49091 0.0
H1328 H 0.35718 0.94157 0.48354 0.0
H1329 H 0.39991 0.89878 0.50749 0.0
H1330 H 0.46795 0.96821 0.52859 0.0
H1331 H 0.44554 0.94124 0.52057 0.0
C1332 C 0.81722 0.55295 0.27863 0.0
C1333 C 0.83262 0.54466 0.26811 0.0
C1334 C 0.80641 0.56802 0.27081 0.0
C1335 C 0.78233 0.59748 0.24916 0.0
H1336 H 0.81511 0.6376 0.22648 0.0
C1337 C 0.78134 0.68117 0.2147 0.0
C1338 C 0.77092 0.69152 0.2292 0.0
C1339 C 0.78522 0.66105 0.21644 0.0
C1340 C 0.8056 0.62644 0.23239 0.0
H1341 H 0.84759 0.54447 0.24038 0.0
H1342 H 0.82851 0.57054 0.22664 0.0
H1343 H 0.82829 0.60581 0.23433 0.0
H1344 H 0.75531 0.68873 0.25627 0.0
H1345 H 0.76262 0.65348 0.25969 0.0
H1346 H 0.75976 0.61865 0.24773 0.0
C1347 C 0.82513 0.56573 0.24116 0.0
C1348 C 0.81318 0.60813 0.23687 0.0
C1349 C 0.83603 0.55073 0.24901 0.0
C1350 C 0.7634 0.68106 0.24491 0.0
C1351 C 0.76753 0.66089 0.2468 0.0
C1352 C 0.77469 0.6159 0.24463 0.0
C1353 C 0.81069 0.57507 0.25226 0.0
C1354 C 0.80174 0.59351 0.24554 0.0
C1355 C 0.77904 0.65086 0.23288 0.0
C1356 C 0.78633 0.63066 0.23638 0.0
H1357 H 0.8141 0.54856 0.29335 0.0
H1358 H 0.79547 0.57495 0.27981 0.0
H1359 H 0.77311 0.58645 0.2557 0.0
H1360 H 0.78699 0.6888 0.20223 0.0
H1361 H 0.79367 0.65364 0.2052 0.0
C1362 C 0.65713 0.44055 0.7485 0.0
C1363 C 0.66758 0.45296 0.76173 0.0
C1364 C 0.66199 0.42051 0.74551 0.0
C1365 C 0.68478 0.38056 0.77154 0.0
H1366 H 0.69036 0.35389 0.72096 0.0
C1367 C 0.72917 0.31052 0.75864 0.0
C1368 C 0.72506 0.29774 0.7426 0.0
C1369 C 0.71766 0.32693 0.7628 0.0
C1370 C 0.68838 0.3609 0.73525 0.0
H1371 H 0.69226 0.45435 0.78096 0.0
H1372 H 0.70063 0.41963 0.77568 0.0
H1373 H 0.68013 0.38843 0.72302 0.0
H1374 H 0.70532 0.29107 0.71898 0.0
H1375 H 0.68465 0.31933 0.72663 0.0
H1376 H 0.69322 0.35323 0.78384 0.0
C1377 C 0.68845 0.42526 0.76797 0.0
C1378 C 0.68266 0.38077 0.73637 0.0
C1379 C 0.68373 0.44523 0.77083 0.0
C1380 C 0.70849 0.30061 0.73167 0.0
C1381 C 0.69688 0.31695 0.73587 0.0
C1382 C 0.69033 0.36067 0.77045 0.0
C1383 C 0.67728 0.41254 0.75579 0.0
C1384 C 0.68136 0.39094 0.7545 0.0
C1385 C 0.70192 0.3309 0.75084 0.0
C1386 C 0.69274 0.35075 0.75227 0.0
H1387 H 0.6446 0.44599 0.74126 0.0
H1388 H 0.65322 0.41103 0.73593 0.0
H1389 H 0.68348 0.38795 0.78575 0.0
H1390 H 0.74221 0.30883 0.7669 0.0
H1391 H 0.72214 0.3374 0.77432 0.0
C1392 C 0.97206 0.82363 0.90501 0.0
C1393 C 0.98674 0.81305 0.89539 0.0
C1394 C 0.97548 0.84279 0.91302 0.0
C1395 C 0.00992 0.88557 0.91135 0.0
H1396 H 0.98953 0.89934 0.96254 0.0
C1397 C 0.04572 0.94062 0.96535 0.0
C1398 C 0.03465 0.95311 0.97751 0.0
C1399 C 0.03705 0.92715 0.95211 0.0
C1400 C 0.99497 0.89592 0.94805 0.0
H1401 H 0.01662 0.81439 0.88687 0.0
H1402 H 0.0227 0.84753 0.90124 0.0
H1403 H 0.98021 0.86775 0.94637 0.0
H1404 H 0.00593 0.96239 0.98433 0.0
H1405 H 0.99043 0.93807 0.96153 0.0
H1406 H 0.02545 0.91332 0.91355 0.0
C1407 C 0.00839 0.84121 0.9022 0.0
C1408 C 0.98968 0.87777 0.93878 0.0
C1409 C 0.00496 0.82208 0.89411 0.0
C1410 C 0.0147 0.95271 0.97535 0.0
C1411 C 0.0059 0.93884 0.96231 0.0
C1412 C 0.01529 0.90363 0.92067 0.0
C1413 C 0.99368 0.85186 0.91168 0.0
C1414 C 0.99754 0.8721 0.92056 0.0
C1415 C 0.01704 0.9256 0.9509 0.0
C1416 C 0.0083 0.90873 0.93935 0.0
H1417 H 0.9578 0.81722 0.90616 0.0
H1418 H 0.96377 0.85059 0.92004 0.0
H1419 H 0.01586 0.88195 0.89711 0.0
H1420 H 0.06117 0.94072 0.96655 0.0
H1421 H 0.04604 0.91709 0.94365 0.0
C1422 C 0.94821 0.2335 0.70546 0.0
C1423 C 0.94562 0.24315 0.68781 0.0
C1424 C 0.93236 0.22715 0.7163 0.0
C1425 C 0.88133 0.21423 0.71106 0.0
H1426 H 0.87439 0.23624 0.7635 0.0
C1427 C 0.81657 0.25004 0.75382 0.0
C1428 C 0.80193 0.23688 0.74739 0.0
C1429 C 0.83565 0.24428 0.75288 0.0
C1430 C 0.87619 0.22972 0.74897 0.0
H1431 H 0.92432 0.25409 0.66805 0.0
H1432 H 0.89701 0.24262 0.68648 0.0
H1433 H 0.90579 0.23865 0.74782 0.0
H1434 H 0.7956 0.20722 0.73575 0.0
H1435 H 0.8288 0.19666 0.73501 0.0
H1436 H 0.85164 0.20668 0.71135 0.0
C1437 C 0.91122 0.23973 0.69186 0.0
C1438 C 0.89419 0.23098 0.74008 0.0
C1439 C 0.92694 0.24632 0.68128 0.0
C1440 C 0.80652 0.21733 0.74154 0.0
C1441 C 0.82561 0.21148 0.74072 0.0
C1442 C 0.86342 0.21294 0.71991 0.0
C1443 C 0.91373 0.23006 0.70944 0.0
C1444 C 0.89661 0.22414 0.72068 0.0
C1445 C 0.84046 0.22526 0.74532 0.0
C1446 C 0.86038 0.22157 0.7386 0.0
H1447 H 0.96245 0.23095 0.71095 0.0
H1448 H 0.93462 0.21987 0.72991 0.0
H1449 H 0.88292 0.20864 0.69616 0.0
H1450 H 0.81335 0.26527 0.75822 0.0
H1451 H 0.84662 0.25539 0.75637 0.0
C1452 C 0.50568 0.20062 0.40771 0.0
C1453 C 0.49108 0.21436 0.4116 0.0
C1454 C 0.50929 0.18547 0.42061 0.0
C1455 C 0.48477 0.15844 0.45999 0.0
H1456 H 0.53393 0.13314 0.46527 0.0
C1457 C 0.49139 0.09628 0.51184 0.0
C1458 C 0.49551 0.07807 0.50229 0.0
C1459 C 0.49609 0.11418 0.50326 0.0
C1460 C 0.52017 0.14015 0.46392 0.0
H1461 H 0.46976 0.2239 0.43268 0.0
H1462 H 0.47668 0.19823 0.4557 0.0
H1463 H 0.53142 0.16303 0.44595 0.0
H1464 H 0.50934 0.06401 0.47731 0.0
H1465 H 0.51759 0.09564 0.46203 0.0
H1466 H 0.47359 0.1358 0.47807 0.0
C1467 C 0.4848 0.19848 0.44227 0.0
C1468 C 0.51865 0.15719 0.45279 0.0
C1469 C 0.4809 0.21333 0.42916 0.0
C1470 C 0.50623 0.07795 0.48499 0.0
C1471 C 0.51088 0.096 0.47626 0.0
C1472 C 0.48637 0.14175 0.47131 0.0
C1473 C 0.49863 0.18393 0.43791 0.0
C1474 C 0.50086 0.16651 0.4506 0.0
C1475 C 0.50481 0.11417 0.48484 0.0
C1476 C 0.50402 0.1324 0.47336 0.0
H1477 H 0.51375 0.20098 0.39424 0.0
H1478 H 0.51989 0.17451 0.41655 0.0
H1479 H 0.47071 0.16464 0.45824 0.0
H1480 H 0.48309 0.09665 0.52519 0.0
H1481 H 0.49148 0.12799 0.51027 0.0
C1482 C 0.56168 0.74889 0.13746 0.0
C1483 C 0.55612 0.76618 0.14795 0.0
C1484 C 0.58103 0.74456 0.13505 0.0
C1485 C 0.63051 0.76518 0.14534 0.0
H1486 H 0.64089 0.70999 0.15536 0.0
C1487 C 0.6996 0.74735 0.1828 0.0
C1488 C 0.69616 0.73608 0.19927 0.0
C1489 C 0.68639 0.74709 0.16752 0.0
C1490 C 0.63831 0.72547 0.15248 0.0
H1491 H 0.56631 0.79292 0.16341 0.0
H1492 H 0.59991 0.78495 0.16028 0.0
H1493 H 0.609 0.71925 0.14601 0.0
H1494 H 0.67716 0.71446 0.21217 0.0
H1495 H 0.65383 0.71444 0.18623 0.0
H1496 H 0.65921 0.77174 0.15404 0.0
C1497 C 0.58954 0.77496 0.15324 0.0
C1498 C 0.61998 0.7308 0.14681 0.0
C1499 C 0.57021 0.77948 0.15527 0.0
C1500 C 0.68015 0.72328 0.19956 0.0
C1501 C 0.66683 0.72316 0.18449 0.0
C1502 C 0.64871 0.75992 0.15148 0.0
C1503 C 0.59524 0.7572 0.14347 0.0
C1504 C 0.61556 0.75091 0.14429 0.0
C1505 C 0.66925 0.73588 0.16875 0.0
C1506 C 0.65249 0.74017 0.15629 0.0
H1507 H 0.55106 0.73855 0.13135 0.0
H1508 H 0.5848 0.73102 0.12704 0.0
H1509 H 0.62787 0.7807 0.14274 0.0
H1510 H 0.71148 0.75778 0.18259 0.0
H1511 H 0.68893 0.75682 0.15551 0.0
C1512 C 0.99514 0.19161 0.61854 0.0
C1513 C 0.97657 0.19583 0.62504 0.0
C1514 C 3e-05 0.17222 0.61281 0.0
C1515 C 0.97804 0.12333 0.5976 0.0
H1516 H 0.0309 0.10685 0.5999 0.0
C1517 C 0.004 0.04797 0.56519 0.0
C1518 C 0.01365 0.05228 0.54784 0.0
C1519 C 0.00112 0.06301 0.57946 0.0
C1520 C 0.01605 0.11117 0.59951 0.0
H1521 H 0.94866 0.1831 0.63128 0.0
H1522 H 0.95736 0.14902 0.62217 0.0
H1523 H 0.02151 0.13816 0.61607 0.0
H1524 H 0.02957 0.07492 0.53261 0.0
H1525 H 0.02535 0.1009 0.55799 0.0
H1526 H 0.97275 0.09612 0.58111 0.0
C1527 C 0.96803 0.16073 0.62076 0.0
C1528 C 0.01066 0.12922 0.60848 0.0
C1529 C 0.96302 0.18026 0.62603 0.0
C1530 C 0.02199 0.07126 0.54583 0.0
C1531 C 0.01964 0.08608 0.56032 0.0
C1532 C 0.98336 0.10507 0.58909 0.0
C1533 C 0.98659 0.15645 0.61391 0.0
C1534 C 0.99172 0.13592 0.607 0.0
C1535 C 0.00854 0.08228 0.57684 0.0
C1536 C 0.00249 0.09918 0.58947 0.0
H1537 H 0.00584 0.20339 0.61752 0.0
H1538 H 0.01427 0.16977 0.60713 0.0
H1539 H 0.96341 0.12795 0.59585 0.0
H1540 H 0.99753 0.03347 0.56716 0.0
H1541 H 0.99246 0.05986 0.59212 0.0
C1542 C 0.5703 0.22078 0.35622 0.0
C1543 C 0.55987 0.23846 0.3554 0.0
C1544 C 0.5899 0.22079 0.35217 0.0
C1545 C 0.63208 0.25426 0.34425 0.0
H1546 H 0.64624 0.21356 0.30569 0.0
C1547 C 0.69893 0.26499 0.2977 0.0
C1548 C 0.69479 0.26274 0.2778 0.0
C1549 C 0.68654 0.25686 0.31145 0.0
C1550 C 0.6426 0.22492 0.3166 0.0
H1551 H 0.56202 0.27019 0.35069 0.0
H1552 H 0.59598 0.27015 0.34326 0.0
H1553 H 0.61599 0.21048 0.32299 0.0
H1554 H 0.67499 0.25036 0.25634 0.0
H1555 H 0.65326 0.23623 0.28009 0.0
H1556 H 0.65792 0.26954 0.3367 0.0
C1557 C 0.58916 0.2563 0.3473 0.0
C1558 C 0.62533 0.22307 0.32668 0.0
C1559 C 0.56961 0.2563 0.35138 0.0
C1560 C 0.6786 0.25177 0.27167 0.0
C1561 C 0.66624 0.24363 0.28532 0.0
C1562 C 0.64929 0.25617 0.33411 0.0
C1563 C 0.59946 0.23848 0.34722 0.0
C1564 C 0.61948 0.23819 0.33996 0.0
C1565 C 0.6697 0.24667 0.3054 0.0
C1566 C 0.65431 0.24198 0.31952 0.0
H1567 H 0.56324 0.20681 0.35947 0.0
H1568 H 0.59747 0.20687 0.35246 0.0
H1569 H 0.62816 0.26595 0.35471 0.0
H1570 H 0.71119 0.27387 0.30263 0.0
H1571 H 0.68966 0.25937 0.3268 0.0
C1572 C 0.49804 0.79646 0.09417 0.0
C1573 C 0.4797 0.79447 0.10235 0.0
C1574 C 0.50193 0.81125 0.08082 0.0
C1575 C 0.47863 0.85109 0.05231 0.0
H1576 H 0.52687 0.87903 0.06201 0.0
C1577 C 0.49227 0.93562 0.05086 0.0
C1578 C 0.50645 0.94235 0.03805 0.0
C1579 C 0.48947 0.9153 0.05349 0.0
C1580 C 0.51351 0.87115 0.05887 0.0
H1581 H 0.45084 0.80581 0.10228 0.0
H1582 H 0.45773 0.83203 0.07988 0.0
H1583 H 0.52111 0.84676 0.07617 0.0
H1584 H 0.52874 0.93321 0.01781 0.0
H1585 H 0.52439 0.89739 0.02324 0.0
H1586 H 0.47057 0.87664 0.0365 0.0
C1587 C 0.46908 0.82191 0.08316 0.0
C1588 C 0.51018 0.85258 0.06689 0.0
C1589 C 0.46511 0.8069 0.09619 0.0
C1590 C 0.51769 0.92836 0.02775 0.0
C1591 C 0.51523 0.90797 0.03081 0.0
C1592 C 0.48184 0.86986 0.04467 0.0
C1593 C 0.48767 0.82465 0.07565 0.0
C1594 C 0.49244 0.84256 0.06425 0.0
C1595 C 0.50108 0.90137 0.0437 0.0
C1596 C 0.49911 0.88019 0.04833 0.0
H1597 H 0.50952 0.78691 0.09846 0.0
H1598 H 0.51628 0.81252 0.07501 0.0
H1599 H 0.46502 0.84365 0.04948 0.0
H1600 H 0.48332 0.94609 0.05886 0.0
H1601 H 0.47861 0.91046 0.06364 0.0
C1602 C 0.95579 0.78399 0.80789 0.0
C1603 C 0.95357 0.77462 0.82578 0.0
C1604 C 0.93979 0.78861 0.79681 0.0
C1605 C 0.88731 0.79441 0.79884 0.0
H1606 H 0.88779 0.7717 0.74611 0.0
C1607 C 0.82993 0.75276 0.74851 0.0
C1608 C 0.81441 0.76563 0.75048 0.0
C1609 C 0.84843 0.75958 0.75289 0.0
C1610 C 0.88754 0.77842 0.76068 0.0
H1611 H 0.9328 0.76356 0.84642 0.0
H1612 H 0.90497 0.77179 0.82725 0.0
H1613 H 0.91736 0.77341 0.76506 0.0
H1614 H 0.80599 0.79589 0.75757 0.0
H1615 H 0.83846 0.80793 0.76532 0.0
H1616 H 0.8573 0.79837 0.79488 0.0
C1617 C 0.91906 0.77562 0.8218 0.0
C1618 C 0.90446 0.77949 0.7715 0.0
C1619 C 0.93503 0.77079 0.83276 0.0
C1620 C 0.81781 0.78581 0.75553 0.0
C1621 C 0.83633 0.79261 0.7602 0.0
C1622 C 0.87043 0.79351 0.78796 0.0
C1623 C 0.92128 0.7842 0.80354 0.0
C1624 C 0.90434 0.78676 0.79095 0.0
C1625 C 0.85169 0.77934 0.75966 0.0
C1626 C 0.87023 0.78478 0.76905 0.0
H1627 H 0.96989 0.78716 0.80211 0.0
H1628 H 0.94191 0.7953 0.78283 0.0
H1629 H 0.88687 0.80029 0.81372 0.0
H1630 H 0.8276 0.7371 0.74476 0.0
H1631 H 0.8599 0.74893 0.75251 0.0
C1632 C 0.92472 0.99809 0.82108 0.0
C1633 C 0.93218 0.99417 0.80238 0.0
C1634 C 0.93516 0.99361 0.83759 0.0
C1635 C 0.98382 0.99098 0.85467 0.0
H1636 H 0.95866 0.97263 0.90128 0.0
C1637 C 0.00949 0.99104 0.9383 0.0
C1638 C -0.00078 0.0066 0.94754 0.0
C1639 C 0.00517 0.98484 0.91905 0.0
C1640 C 0.96603 0.9773 0.88827 0.0
H1641 H 0.95636 0.98206 0.78632 0.0
H1642 H 0.97485 0.9746 0.81538 0.0
H1643 H 0.94239 0.96884 0.86985 0.0
H1644 H 0.97746 0.02877 0.9433 0.0
H1645 H 0.97011 0.01797 0.90999 0.0
H1646 H 0.00689 0.00072 0.87355 0.0
C1647 C 0.9608 0.98098 0.81714 0.0
C1648 C 0.95669 0.97529 0.87036 0.0
C1649 C 0.95019 0.98522 0.80055 0.0
C1650 C 0.98549 0.01659 0.93678 0.0
C1651 C 0.98125 0.01045 0.91771 0.0
C1652 C 0.99317 0.99302 0.87267 0.0
C1653 C 0.95343 0.98532 0.83582 0.0
C1654 C 0.96512 0.98295 0.85355 0.0
C1655 C 0.99067 0.99427 0.90889 0.0
C1656 C 0.98397 0.98688 0.88964 0.0
H1657 H 0.91098 0.00503 0.82306 0.0
H1658 H 0.92923 0.99744 0.8518 0.0
H1659 H 0.9906 0.99713 0.84197 0.0
H1660 H 0.02021 0.98312 0.94617 0.0
H1661 H 0.01258 0.97231 0.91238 0.0
C1662 C 0.79272 0.14819 0.5501 0.0
C1663 C 0.77832 0.1389 0.53859 0.0
C1664 C 0.78834 0.15691 0.56831 0.0
C1665 C 0.75111 0.15905 0.60704 0.0
H1666 H 0.77463 0.21065 0.61911 0.0
C1667 C 0.74438 0.20212 0.68196 0.0
C1668 C 0.74385 0.223 0.68143 0.0
C1669 C 0.7469 0.19065 0.66472 0.0
C1670 C 0.76778 0.19633 0.6159 0.0
H1671 H 0.74803 0.13115 0.53745 0.0
H1672 H 0.7404 0.14667 0.56898 0.0
H1673 H 0.78303 0.19274 0.58908 0.0
H1674 H 0.74383 0.24813 0.66246 0.0
H1675 H 0.7476 0.2282 0.6325 0.0
H1676 H 0.73548 0.16301 0.63378 0.0
C1677 C 0.75513 0.14696 0.56408 0.0
C1678 C 0.77284 0.18591 0.5988 0.0
C1679 C 0.75951 0.13818 0.54591 0.0
C1680 C 0.74446 0.23207 0.66333 0.0
C1681 C 0.74677 0.22067 0.64618 0.0
C1682 C 0.74601 0.16953 0.62421 0.0
C1683 C 0.76944 0.15662 0.57541 0.0
C1684 C 0.76452 0.16718 0.59409 0.0
C1685 C 0.74879 0.19992 0.64672 0.0
C1686 C 0.75417 0.18839 0.62872 0.0
H1687 H 0.80738 0.14887 0.54501 0.0
H1688 H 0.79977 0.16396 0.57681 0.0
H1689 H 0.74458 0.14455 0.60392 0.0
H1690 H 0.74406 0.19475 0.69574 0.0
H1691 H 0.7484 0.17469 0.66562 0.0
C1692 C 0.59594 0.99507 0.32704 0.0
C1693 C 0.58663 0.99825 0.30933 0.0
C1694 C 0.58787 0.00146 0.34465 0.0
C1695 C 0.54474 0.00988 0.37078 0.0
H1696 H 0.57736 0.04218 0.40542 0.0
C1697 C 0.52655 0.0259 0.45258 0.0
C1698 C 0.54193 0.02248 0.46517 0.0
C1699 C 0.52951 0.0267 0.43243 0.0
C1700 C 0.56804 0.03321 0.39592 0.0
H1701 H 0.56103 0.00983 0.2963 0.0
H1702 H 0.54652 0.02052 0.32756 0.0
H1703 H 0.58688 0.03618 0.37156 0.0
H1704 H 0.57253 0.01753 0.46639 0.0
H1705 H 0.57758 0.01871 0.43159 0.0
H1706 H 0.5265 0.00582 0.39551 0.0
C1707 C 0.56032 0.01343 0.32751 0.0
C1708 C 0.57344 0.0299 0.37656 0.0
C1709 C 0.56861 0.00731 0.30971 0.0
C1710 C 0.56032 0.02017 0.4572 0.0
C1711 C 0.56327 0.02105 0.4372 0.0
C1712 C 0.53938 0.01306 0.39029 0.0
C1713 C 0.57011 0.01084 0.34505 0.0
C1714 C 0.5622 0.01763 0.36403 0.0
C1715 C 0.54794 0.02428 0.42456 0.0
C1716 C 0.5514 0.02411 0.40323 0.0
H1717 H 0.60955 0.98767 0.3274 0.0
H1718 H 0.59549 0.99894 0.35805 0.0
H1719 H 0.53591 0.0003 0.36134 0.0
H1720 H 0.51219 0.02775 0.45823 0.0
H1721 H 0.51744 0.02924 0.42303 0.0
C1722 C 0.73589 0.83725 0.05857 0.0
C1723 C 0.74715 0.82911 0.04345 0.0
C1724 C 0.72853 0.82509 0.07295 0.0
C1725 C 0.74251 0.77811 0.09453 0.0
H1726 H 0.70554 0.79501 0.13365 0.0
C1727 C 0.74927 0.7493 0.16979 0.0
C1728 C 0.75253 0.76508 0.18333 0.0
C1729 C 0.73997 0.75261 0.1523 0.0
C1730 C 0.71573 0.78996 0.12272 0.0
H1731 H 0.7574 0.80177 0.02984 0.0
H1732 H 0.74335 0.78025 0.05408 0.0
H1733 H 0.70411 0.80835 0.10099 0.0
H1734 H 0.7478 0.79626 0.19019 0.0
H1735 H 0.73166 0.80228 0.1593 0.0
H1736 H 0.75444 0.76021 0.11624 0.0
C1737 C 0.74114 0.79614 0.05565 0.0
C1738 C 0.71504 0.79767 0.10405 0.0
C1739 C 0.74907 0.8084 0.04163 0.0
C1740 C 0.74513 0.78389 0.17995 0.0
C1741 C 0.73586 0.78726 0.16234 0.0
C1742 C 0.74296 0.7702 0.11295 0.0
C1743 C 0.7319 0.80446 0.07222 0.0
C1744 C 0.72906 0.7926 0.09 0.0
C1745 C 0.7341 0.77185 0.14796 0.0
C1746 C 0.73016 0.7767 0.12751 0.0
H1747 H 0.73416 0.85322 0.06026 0.0
H1748 H 0.72162 0.83223 0.08539 0.0
H1749 H 0.7538 0.77395 0.08447 0.0
H1750 H 0.75502 0.73471 0.1722 0.0
H1751 H 0.73862 0.74044 0.14157 0.0
C1752 C 0.90488 0.00055 0.68282 0.0
C1753 C 0.90385 0.01952 0.69199 0.0
C1754 C 0.90855 0.99856 0.66288 0.0
C1755 C 0.93383 0.02495 0.62504 0.0
H1756 H 0.9169 0.97897 0.59354 0.0
C1757 C 0.97669 0.99762 0.55811 0.0
C1758 C 0.98254 0.97803 0.56077 0.0
C1759 C 0.96156 0.00557 0.5691 0.0
C1760 C 0.92156 0.99206 0.60202 0.0
H1761 H 0.90465 0.0513 0.6872 0.0
H1762 H 0.9111 0.04777 0.6523 0.0
H1763 H 0.89955 0.9882 0.62331 0.0
H1764 H 0.97614 0.95079 0.57572 0.0
H1765 H 0.94974 0.9644 0.59454 0.0
H1766 H 0.95649 0.02811 0.60434 0.0
C1767 C 0.90927 0.03446 0.66062 0.0
C1768 C 0.9117 0.99729 0.61909 0.0
C1769 C 0.90556 0.03646 0.6806 0.0
C1770 C 0.97211 0.96605 0.57349 0.0
C1771 C 0.95683 0.97379 0.58414 0.0
C1772 C 0.94365 0.01975 0.60792 0.0
C1773 C 0.91125 0.01548 0.65163 0.0
C1774 C 0.91836 0.01314 0.63131 0.0
C1775 C 0.95176 0.9938 0.58253 0.0
C1776 C 0.9382 0.00263 0.59684 0.0
H1777 H 0.90353 0.9872 0.69115 0.0
H1778 H 0.91027 0.98371 0.65651 0.0
H1779 H 0.9394 0.0372 0.63414 0.0
H1780 H 0.98412 0.00698 0.54806 0.0
H1781 H 0.95785 0.02102 0.56749 0.0
C1782 C 0.78987 0.17383 0.43848 0.0
C1783 C 0.77481 0.16394 0.44793 0.0
C1784 C 0.7861 0.18769 0.42433 0.0
C1785 C 0.74814 0.19951 0.38953 0.0
H1786 H 0.78395 0.24164 0.37632 0.0
C1787 C 0.74186 0.23897 0.31711 0.0
C1788 C 0.75871 0.23733 0.30607 0.0
C1789 C 0.74213 0.23585 0.33716 0.0
C1790 C 0.77373 0.23004 0.37993 0.0
H1791 H 0.74395 0.162 0.45094 0.0
H1792 H 0.73737 0.18661 0.42667 0.0
H1793 H 0.78715 0.22528 0.40733 0.0
H1794 H 0.78919 0.23238 0.30732 0.0
H1795 H 0.78979 0.22727 0.34232 0.0
H1796 H 0.73501 0.20399 0.36194 0.0
C1797 C 0.75212 0.1832 0.42975 0.0
C1798 C 0.77562 0.22056 0.39763 0.0
C1799 C 0.7559 0.16915 0.44376 0.0
C1800 C 0.77603 0.23384 0.31557 0.0
C1801 C 0.77637 0.23101 0.33561 0.0
C1802 C 0.74614 0.20914 0.37196 0.0
C1803 C 0.76716 0.19221 0.41941 0.0
C1804 C 0.76325 0.20468 0.40236 0.0
C1805 C 0.75932 0.23125 0.34649 0.0
C1806 C 0.75929 0.22404 0.36668 0.0
H1807 H 0.80462 0.17019 0.4413 0.0
H1808 H 0.79809 0.19405 0.41657 0.0
H1809 H 0.73848 0.1872 0.39244 0.0
H1810 H 0.7283 0.24112 0.31002 0.0
H1811 H 0.72878 0.23614 0.34519 0.0
C1812 C 0.59213 0.01848 0.19009 0.0
C1813 C 0.60635 0.00805 0.19962 0.0
C1814 C 0.59344 0.02147 0.17011 0.0
C1815 C 0.61697 0.0013 0.1253 0.0
H1816 H 0.59044 0.04554 0.10367 0.0
C1817 C 0.57576 0.02945 0.0523 0.0
C1818 C 0.56771 0.0107 0.04748 0.0
C1819 C 0.58993 0.03138 0.06662 0.0
C1820 C 0.59847 0.0333 0.10916 0.0
H1821 H 0.63351 0.99324 0.1959 0.0
H1822 H 0.63617 0.99904 0.16117 0.0
H1823 H 0.59656 0.04558 0.13816 0.0
H1824 H 0.56928 0.97913 0.05198 0.0
H1825 H 0.59318 0.98226 0.07728 0.0
H1826 H 0.61929 0.98924 0.09619 0.0
C1827 C 0.62368 0.0044 0.16894 0.0
C1828 C 0.60158 0.03314 0.12921 0.0
C1829 C 0.62218 0.0011 0.18887 0.0
C1830 C 0.57557 0.99371 0.0553 0.0
C1831 C 0.58933 0.99562 0.06997 0.0
C1832 C 0.61428 0.00169 0.10514 0.0
C1833 C 0.60922 0.01446 0.15922 0.0
C1834 C 0.60982 0.01659 0.13768 0.0
C1835 C 0.59557 0.01464 0.07691 0.0
C1836 C 0.60392 0.0171 0.0969 0.0
H1837 H 0.57974 0.02395 0.19799 0.0
H1838 H 0.58175 0.02882 0.16316 0.0
H1839 H 0.62356 0.98834 0.13118 0.0
H1840 H 0.56978 0.04277 0.04645 0.0
H1841 H 0.59501 0.0462 0.0709 0.0
C1842 C 0.78241 0.83617 0.94494 0.0
C1843 C 0.77051 0.84972 0.95499 0.0
C1844 C 0.77761 0.82881 0.92632 0.0
C1845 C 0.75779 0.80506 0.89428 0.0
H1846 H 0.73838 0.83753 0.85335 0.0
C1847 C 0.73823 0.76832 0.82108 0.0
C1848 C 0.74543 0.77772 0.80462 0.0
C1849 C 0.73733 0.77862 0.83904 0.0
C1850 C 0.7438 0.82828 0.86464 0.0
H1851 H 0.74441 0.86659 0.953 0.0
H1852 H 0.73589 0.85345 0.92039 0.0
H1853 H 0.74575 0.85287 0.88544 0.0
H1854 H 0.75632 0.80552 0.79367 0.0
H1855 H 0.75533 0.8235 0.82527 0.0
H1856 H 0.75668 0.78069 0.87361 0.0
C1857 C 0.74904 0.84869 0.92698 0.0
C1858 C 0.74786 0.83703 0.88305 0.0
C1859 C 0.75389 0.85614 0.94569 0.0
C1860 C 0.75055 0.79802 0.80614 0.0
C1861 C 0.74997 0.80829 0.82425 0.0
C1862 C 0.75379 0.79637 0.87599 0.0
C1863 C 0.76071 0.83467 0.91724 0.0
C1864 C 0.75519 0.82553 0.89798 0.0
C1865 C 0.74405 0.79844 0.84107 0.0
C1866 C 0.74687 0.80785 0.86085 0.0
H1867 H 0.79544 0.83106 0.95149 0.0
H1868 H 0.78715 0.81839 0.91905 0.0
H1869 H 0.76311 0.79569 0.90553 0.0
H1870 H 0.73399 0.75273 0.82023 0.0
H1871 H 0.73214 0.77075 0.85154 0.0
C1872 C 0.83442 0.89007 0.01641 0.0
C1873 C 0.82061 0.90212 0.00801 0.0
C1874 C 0.85355 0.89636 0.01755 0.0
C1875 C 0.88161 0.94284 0.02007 0.0
H1876 H 0.92563 0.90885 0.01325 0.0
C1877 C 0.9663 0.95618 0.00945 0.0
C1878 C 0.96841 0.97234 0.02284 0.0
C1879 C 0.9499 0.94395 0.00986 0.0
C1880 C 0.91346 0.91849 0.01524 0.0
H1881 H 0.81626 0.92966 0.9932 0.0
H1882 H 0.84967 0.94054 0.995 0.0
H1883 H 0.89341 0.89518 0.00692 0.0
H1884 H 0.95637 0.98711 0.04844 0.0
H1885 H 0.9282 0.96531 0.04974 0.0
H1886 H 0.90137 0.96624 0.02787 0.0
C1887 C 0.84563 0.92639 0.00102 0.0
C1888 C 0.89503 0.91066 0.01169 0.0
C1889 C 0.82651 0.9201 -0.00013 0.0
C1890 C 0.955 0.97475 0.03792 0.0
C1891 C 0.93879 0.96241 0.03851 0.0
C1892 C 0.89991 0.9506 0.02365 0.0
C1893 C 0.85926 0.91486 0.01036 0.0
C1894 C 0.87893 0.92284 0.0139 0.0
C1895 C 0.93547 0.94769 0.02377 0.0
C1896 C 0.91608 0.93858 0.02126 0.0
H1897 H 0.83035 0.87615 0.02286 0.0
H1898 H 0.86367 0.8872 0.02492 0.0
H1899 H 0.86951 0.95254 0.02225 0.0
H1900 H 0.97625 0.95418 0.99751 0.0
H1901 H 0.94779 0.93276 0.99829 0.0
C1902 C 0.3053 0.54813 0.01093 0.0
C1903 C 0.30893 0.56737 0.00415 0.0
C1904 C 0.32043 0.53587 0.01589 0.0
C1905 C 0.3715 0.53697 0.02927 0.0
H1906 H 0.37419 0.4854 0.00226 0.0
C1907 C 0.43403 0.49078 0.99326 0.0
C1908 C 0.44791 0.49294 0.00799 0.0
C1909 C 0.41473 0.49359 0.99754 0.0
C1910 C 0.37351 0.49961 0.01017 0.0
H1911 H 0.33136 0.58877 0.99748 0.0
H1912 H 0.35756 0.56767 0.00649 0.0
H1913 H 0.34469 0.50444 0.00104 0.0
H1914 H 0.45224 0.49747 0.03906 0.0
H1915 H 0.41845 0.50258 0.04659 0.0
H1916 H 0.40058 0.53277 0.0375 0.0
C1917 C 0.34303 0.56209 0.00807 0.0
C1918 C 0.35662 0.51047 0.00954 0.0
C1919 C 0.32797 0.57419 0.00283 0.0
C1920 C 0.44189 0.49577 0.02742 0.0
C1921 C 0.42255 0.49885 0.0317 0.0
C1922 C 0.3883 0.52606 0.03006 0.0
C1923 C 0.33945 0.54275 0.01448 0.0
C1924 C 0.35574 0.52961 0.01841 0.0
C1925 C 0.40892 0.49881 0.01663 0.0
C1926 C 0.38976 0.50762 0.01986 0.0
H1927 H 0.29078 0.54239 0.01205 0.0
H1928 H 0.31729 0.521 0.02076 0.0
H1929 H 0.37113 0.5516 0.03642 0.0
H1930 H 0.43825 0.48848 0.97817 0.0
H1931 H 0.40464 0.4935 0.98558 0.0
C1932 C 0.12692 0.57532 0.75936 0.0
C1933 C 0.1372 0.56579 0.77383 0.0
C1934 C 0.12954 0.59569 0.75662 0.0
C1935 C 0.15252 0.64169 0.77918 0.0
H1936 H 0.15534 0.65784 0.72561 0.0
C1937 C 0.19312 0.71262 0.76278 0.0
C1938 C 0.20687 0.70928 0.7482 0.0
C1939 C 0.17718 0.69986 0.76408 0.0
C1940 C 0.15456 0.65364 0.74068 0.0
H1941 H 0.15819 0.57006 0.79682 0.0
H1942 H 0.1636 0.60527 0.79142 0.0
H1943 H 0.14311 0.62489 0.73267 0.0
H1944 H 0.21409 0.69131 0.72256 0.0
H1945 H 0.18694 0.66878 0.72501 0.0
H1946 H 0.16579 0.66958 0.78705 0.0
C1947 C 0.15294 0.59731 0.78261 0.0
C1948 C 0.14729 0.63475 0.74478 0.0
C1949 C 0.15004 0.57703 0.78559 0.0
C1950 C 0.2036 0.6942 0.73392 0.0
C1951 C 0.18787 0.68134 0.73529 0.0
C1952 C 0.16015 0.6604 0.77505 0.0
C1953 C 0.14276 0.60693 0.76805 0.0
C1954 C 0.147 0.6282 0.76403 0.0
C1955 C 0.17502 0.68331 0.75103 0.0
C1956 C 0.16212 0.66624 0.75565 0.0
H1957 H 0.11667 0.56709 0.75027 0.0
H1958 H 0.1212 0.60258 0.7455 0.0
H1959 H 0.15187 0.63746 0.79424 0.0
H1960 H 0.19562 0.72375 0.77427 0.0
H1961 H 0.16739 0.70208 0.77617 0.0
C1962 C 0.19899 0.40499 0.53819 0.0
C1963 C 0.21039 0.40421 0.52129 0.0
C1964 C 0.17994 0.41087 0.5373 0.0
C1965 C 0.14045 0.41561 0.50221 0.0
H1966 H 0.1187 0.45091 0.54199 0.0
C1967 C 0.06487 0.44251 0.49244 0.0
C1968 C 0.06288 0.46311 0.49515 0.0
C1969 C 0.08054 0.43305 0.5003 0.0
C1970 C 0.12456 0.44102 0.53079 0.0
H1971 H 0.21088 0.40937 0.49029 0.0
H1972 H 0.17782 0.41999 0.48878 0.0
H1973 H 0.15155 0.43969 0.54536 0.0
H1974 H 0.07484 0.49003 0.50874 0.0
H1975 H 0.1026 0.47374 0.52208 0.0
H1976 H 0.11409 0.41772 0.48702 0.0
C1977 C 0.18345 0.41564 0.50267 0.0
C1978 C 0.14332 0.43446 0.53279 0.0
C1979 C 0.20244 0.40968 0.50354 0.0
C1980 C 0.076 0.47402 0.50683 0.0
C1981 C 0.0919 0.46464 0.51444 0.0
C1982 C 0.12182 0.42223 0.50015 0.0
C1983 C 0.17192 0.41613 0.51949 0.0
C1984 C 0.15159 0.422 0.5183 0.0
C1985 C 0.09481 0.44419 0.51045 0.0
C1986 C 0.1137 0.43527 0.51424 0.0
H1987 H 0.20468 0.4008 0.5521 0.0
H1988 H 0.1714 0.41093 0.55048 0.0
H1989 H 0.14624 0.40571 0.49097 0.0
H1990 H 0.0548 0.43389 0.48344 0.0
H1991 H 0.08205 0.41719 0.49744 0.0
C1992 C 0.84913 0.94914 0.78344 0.0
C1993 C 0.86259 0.95625 0.76999 0.0
C1994 C 0.84016 0.93054 0.78038 0.0
C1995 C 0.82871 0.8929 0.74132 0.0
H1996 H 0.81555 0.85977 0.78469 0.0
C1997 C 0.78827 0.81937 0.72751 0.0
C1998 C 0.77168 0.81735 0.73878 0.0
C1999 C 0.80252 0.83322 0.7331 0.0
C2000 C 0.81916 0.86886 0.77244 0.0
H2001 H 0.87735 0.94912 0.74287 0.0
H2002 H 0.86193 0.91658 0.73769 0.0
H2003 H 0.83416 0.89055 0.79052 0.0
H2004 H 0.75701 0.82746 0.76492 0.0
H2005 H 0.78199 0.85168 0.77493 0.0
H2006 H 0.81352 0.87146 0.72329 0.0
C2007 C 0.85804 0.92555 0.75045 0.0
C2008 C 0.82973 0.88655 0.77577 0.0
C2009 C 0.86693 0.94422 0.75345 0.0
C2010 C 0.76998 0.82846 0.75633 0.0
C2011 C 0.78425 0.84235 0.76197 0.0
C2012 C 0.81826 0.87522 0.73799 0.0
C2013 C 0.84448 0.91848 0.76384 0.0
C2014 C 0.8344 0.89895 0.76027 0.0
C2015 C 0.80028 0.8455 0.74994 0.0
C2016 C 0.81314 0.8631 0.75353 0.0
H2017 H 0.84538 0.958 0.79632 0.0
H2018 H 0.82955 0.92579 0.79083 0.0
H2019 H 0.83171 0.90219 0.72906 0.0
H2020 H 0.78969 0.81108 0.71376 0.0
H2021 H 0.81484 0.83505 0.7237 0.0
C2022 C 0.69455 0.11455 0.4985 0.0
C2023 C 0.70317 0.09574 0.49814 0.0
C2024 C 0.67591 0.1169 0.50565 0.0
C2025 C 0.64041 0.0918 0.53694 0.0
H2026 H 0.60276 0.12242 0.5101 0.0
C2027 C 0.55747 0.08233 0.52184 0.0
C2028 C 0.5537 0.07214 0.53894 0.0
C2029 C 0.57397 0.09426 0.52047 0.0
C2030 C 0.61309 0.11387 0.51786 0.0
H2031 H 0.69873 0.06458 0.5044 0.0
H2032 H 0.66629 0.06856 0.5164 0.0
H2033 H 0.63605 0.12308 0.49927 0.0
H2034 H 0.56168 0.0694 0.5691 0.0
H2035 H 0.58931 0.09185 0.56743 0.0
H2036 H 0.6177 0.08121 0.55449 0.0
C2037 C 0.67404 0.08163 0.51168 0.0
C2038 C 0.63223 0.11438 0.51173 0.0
C2039 C 0.69261 0.0793 0.50462 0.0
C2040 C 0.5644 0.07705 0.55572 0.0
C2041 C 0.5805 0.08957 0.55457 0.0
C2042 C 0.62137 0.09111 0.54292 0.0
C2043 C 0.66555 0.10049 0.51258 0.0
C2044 C 0.64593 0.10268 0.52073 0.0
C2045 C 0.58659 0.09655 0.53642 0.0
C2046 C 0.60723 0.10153 0.53303 0.0
H2047 H 0.70234 0.12754 0.49364 0.0
H2048 H 0.6698 0.13162 0.50616 0.0
H2049 H 0.6507 0.08305 0.54457 0.0
H2050 H 0.54942 0.07868 0.50867 0.0
H2051 H 0.57786 0.0995 0.50626 0.0
C2052 C 0.19083 0.47171 0.78184 0.0
C2053 C 0.17769 0.47559 0.76703 0.0
C2054 C 0.20371 0.45609 0.77949 0.0
C2055 C 0.21141 0.4123 0.77866 0.0
H2056 H 0.22749 0.38804 0.72936 0.0
C2057 C 0.20614 0.32878 0.76413 0.0
C2058 C 0.22065 0.31877 0.75376 0.0
C2059 C 0.20637 0.34949 0.76603 0.0
C2060 C 0.22342 0.39471 0.74332 0.0
H2061 H 0.16943 0.46772 0.73724 0.0
H2062 H 0.19121 0.44026 0.73343 0.0
H2063 H 0.22072 0.42364 0.73152 0.0
H2064 H 0.24673 0.32282 0.73703 0.0
H2065 H 0.24699 0.35927 0.7403 0.0
H2066 H 0.21371 0.38338 0.79036 0.0
C2067 C 0.19185 0.44925 0.74682 0.0
C2068 C 0.21938 0.41507 0.74453 0.0
C2069 C 0.17917 0.46501 0.74907 0.0
C2070 C 0.23534 0.33006 0.74514 0.0
C2071 C 0.2355 0.35091 0.74698 0.0
C2072 C 0.21553 0.39207 0.77746 0.0
C2073 C 0.20351 0.44388 0.7624 0.0
C2074 C 0.21249 0.42391 0.76202 0.0
C2075 C 0.22108 0.36081 0.75761 0.0
C2076 C 0.2207 0.38286 0.75959 0.0
H2077 H 0.19036 0.47986 0.79573 0.0
H2078 H 0.21292 0.45277 0.79157 0.0
H2079 H 0.20604 0.4184 0.79237 0.0
H2080 H 0.19457 0.32065 0.77093 0.0
H2081 H 0.19481 0.35668 0.77393 0.0
C2082 C 0.35495 0.55902 0.25439 0.0
C2083 C 0.35489 0.54928 0.27221 0.0
C2084 C 0.34409 0.57608 0.25207 0.0
C2085 C 0.31306 0.60725 0.24832 0.0
H2086 H 0.31081 0.644 0.29305 0.0
C2087 C 0.25758 0.66958 0.25707 0.0
C2088 C 0.26247 0.68681 0.26816 0.0
C2089 C 0.27079 0.65436 0.25429 0.0
C2090 C 0.31154 0.63413 0.28027 0.0
H2091 H 0.34249 0.54928 0.3012 0.0
H2092 H 0.32326 0.57868 0.29701 0.0
H2093 H 0.3292 0.61383 0.29499 0.0
H2094 H 0.28484 0.70216 0.28466 0.0
H2095 H 0.30836 0.67593 0.27925 0.0
H2096 H 0.2955 0.62777 0.23356 0.0
C2097 C 0.33212 0.57347 0.28499 0.0
C2098 C 0.32182 0.61659 0.28152 0.0
C2099 C 0.34304 0.55649 0.28734 0.0
C2100 C 0.28099 0.68912 0.27567 0.0
C2101 C 0.29429 0.67397 0.27281 0.0
C2102 C 0.30279 0.62487 0.24705 0.0
C2103 C 0.33286 0.58376 0.2675 0.0
C2104 C 0.32246 0.60276 0.26569 0.0
C2105 C 0.2891 0.65606 0.26276 0.0
C2106 C 0.30169 0.63841 0.26311 0.0
H2107 H 0.36393 0.55392 0.24241 0.0
H2108 H 0.34507 0.58367 0.23844 0.0
H2109 H 0.31322 0.59691 0.23586 0.0
H2110 H 0.24314 0.66737 0.25158 0.0
H2111 H 0.26618 0.64073 0.24668 0.0
C2112 C 0.50869 0.70195 0.60171 0.0
C2113 C 0.49407 0.71152 0.5917 0.0
C2114 C 0.51566 0.68361 0.59477 0.0
C2115 C 0.51829 0.65081 0.55046 0.0
H2116 H 0.52232 0.6079 0.58651 0.0
C2117 C 0.50754 0.56286 0.54428 0.0
C2118 C 0.51678 0.55917 0.52642 0.0
C2119 C 0.5113 0.58048 0.55512 0.0
C2120 C 0.52147 0.61978 0.57629 0.0
H2121 H 0.47559 0.70933 0.56634 0.0
H2122 H 0.48776 0.67743 0.55427 0.0
H2123 H 0.51495 0.64151 0.59884 0.0
H2124 H 0.53831 0.56988 0.50656 0.0
H2125 H 0.54522 0.60066 0.52564 0.0
H2126 H 0.52382 0.62905 0.52781 0.0
C2127 C 0.49391 0.68418 0.56743 0.0
C2128 C 0.51734 0.63905 0.58336 0.0
C2129 C 0.48683 0.70243 0.57443 0.0
C2130 C 0.53125 0.57231 0.52049 0.0
C2131 C 0.53497 0.59005 0.53127 0.0
C2132 C 0.52251 0.63161 0.54341 0.0
C2133 C 0.50833 0.6745 0.57756 0.0
C2134 C 0.51513 0.65465 0.57044 0.0
C2135 C 0.52418 0.59486 0.54808 0.0
C2136 C 0.52362 0.61572 0.55616 0.0
H2137 H 0.51462 0.7085 0.61506 0.0
H2138 H 0.52685 0.67659 0.60284 0.0
H2139 H 0.51697 0.66257 0.54017 0.0
H2140 H 0.49605 0.55307 0.5489 0.0
H2141 H 0.50265 0.58368 0.56792 0.0
C2142 C 0.54691 0.28252 0.82312 0.0
C2143 C 0.53907 0.26369 0.82721 0.0
C2144 C 0.56243 0.2842 0.81029 0.0
C2145 C 0.58564 0.25841 0.76911 0.0
H2146 H 0.63317 0.28292 0.78737 0.0
C2147 C 0.65834 0.23256 0.74273 0.0
C2148 C 0.67456 0.24499 0.74505 0.0
C2149 C 0.64019 0.2397 0.74725 0.0
C2150 C 0.61992 0.27653 0.78168 0.0
H2151 H 0.54137 0.2319 0.82105 0.0
H2152 H 0.56814 0.23491 0.79852 0.0
H2153 H 0.60439 0.28607 0.80723 0.0
H2154 H 0.68439 0.27505 0.75224 0.0
H2155 H 0.65255 0.28788 0.75938 0.0
H2156 H 0.60105 0.24855 0.74374 0.0
C2157 C 0.56231 0.24833 0.80525 0.0
C2158 C 0.60345 0.27824 0.79319 0.0
C2159 C 0.54711 0.24662 0.8183 0.0
C2160 C 0.6721 0.26526 0.74994 0.0
C2161 C 0.65387 0.27247 0.75444 0.0
C2162 C 0.602 0.25696 0.75746 0.0
C2163 C 0.57005 0.26711 0.80103 0.0
C2164 C 0.5864 0.2685 0.78737 0.0
C2165 C 0.63784 0.25947 0.7542 0.0
C2166 C 0.61957 0.26522 0.76399 0.0
H2167 H 0.54101 0.29594 0.82976 0.0
H2168 H 0.56824 0.29883 0.80733 0.0
H2169 H 0.57253 0.25105 0.76417 0.0
H2170 H 0.65987 0.21684 0.73906 0.0
H2171 H 0.62833 0.22913 0.74696 0.0
C2172 C 0.99204 0.31804 0.07072 0.0
C2173 C -0.00114 0.31275 0.08907 0.0
C2174 C 0.99507 0.33726 0.06412 0.0
C2175 C 0.02242 0.38456 0.07325 0.0
H2176 H 0.97827 0.40779 0.04911 0.0
C2177 C 0.02311 0.46704 0.05566 0.0
C2178 C 0.0183 0.47081 0.03635 0.0
C2179 C 0.0183 0.44876 0.0636 0.0
C2180 C 0.99071 0.4015 0.05579 0.0
H2181 H 0.01532 0.32318 0.11426 0.0
H2182 H 0.02051 0.35676 0.10281 0.0
H2183 H 0.97678 0.37319 0.05877 0.0
H2184 H 0.00449 0.45892 0.01025 0.0
H2185 H 0.99553 0.42707 0.02418 0.0
H2186 H 0.03634 0.41288 0.07028 0.0
C2187 C 0.01289 0.34602 0.09346 0.0
C2188 C 0.98994 0.38162 0.0612 0.0
C2189 C 0.00997 0.32671 0.10002 0.0
C2190 C 0.00758 0.4566 0.02545 0.0
C2191 C 0.0027 0.43829 0.03338 0.0
C2192 C 0.02315 0.40445 0.06794 0.0
C2193 C 0.00489 0.35172 0.07573 0.0
C2194 C 0.00584 0.37285 0.06988 0.0
C2195 C 0.00881 0.43385 0.05224 0.0
C2196 C 0.00734 0.41313 0.05908 0.0
H2197 H 0.98358 0.30758 0.06183 0.0
H2198 H 0.98921 0.34096 0.05014 0.0
H2199 H 0.035 0.37827 0.07967 0.0
H2200 H 0.03181 0.47767 0.06413 0.0
H2201 H 0.02295 0.44589 0.07827 0.0
C2202 C 0.9213 0.73908 0.35486 0.0
C2203 C 0.93653 0.74787 0.34469 0.0
C2204 C 0.90249 0.74445 0.35128 0.0
C2205 C 0.87221 0.78186 0.32884 0.0
H2206 H 0.83948 0.73627 0.31563 0.0
C2207 C 0.81104 0.78379 0.27408 0.0
C2208 C 0.79651 0.76914 0.27436 0.0
C2209 C 0.82502 0.78479 0.28858 0.0
C2210 C 0.84807 0.74928 0.3198 0.0
H2211 H 0.94407 0.76965 0.32329 0.0
H2212 H 0.91106 0.77888 0.31684 0.0
H2213 H 0.87058 0.73113 0.32974 0.0
H2214 H 0.7849 0.74451 0.29019 0.0
H2215 H 0.80811 0.74729 0.31649 0.0
H2216 H 0.84978 0.80001 0.31843 0.0
C2217 C 0.91375 0.768 0.32774 0.0
C2218 C 0.86603 0.74628 0.32781 0.0
C2219 C 0.93261 0.76255 0.33127 0.0
C2220 C 0.7953 0.75657 0.29017 0.0
C2221 C 0.80902 0.75781 0.30492 0.0
C2222 C 0.85408 0.78492 0.32102 0.0
C2223 C 0.8985 0.75873 0.33749 0.0
C2224 C 0.87851 0.76246 0.33183 0.0
C2225 C 0.82468 0.77116 0.30369 0.0
C2226 C 0.84204 0.7686 0.31578 0.0
H2227 H 0.92383 0.72767 0.36525 0.0
H2228 H 0.891 0.73714 0.35904 0.0
H2229 H 0.88149 0.79462 0.33209 0.0
H2230 H 0.81237 0.79354 0.26189 0.0
H2231 H 0.83689 0.79515 0.28695 0.0
C2232 C 0.5003 0.30244 0.89819 0.0
C2233 C 0.48387 0.29152 0.90354 0.0
C2234 C 0.50526 0.3203 0.90822 0.0
C2235 C 0.49798 0.34598 0.9557 0.0
H2236 H 0.51478 0.39365 0.92988 0.0
C2237 C 0.52404 0.41492 -0.00025 0.0
C2238 C 0.51676 0.43333 0.99442 0.0
C2239 C 0.52182 0.39805 0.98751 0.0
C2240 C 0.51005 0.38045 0.93726 0.0
H2241 H 0.45948 0.29124 0.9232 0.0
H2242 H 0.46806 0.3222 0.94041 0.0
H2243 H 0.50697 0.36331 0.91044 0.0
H2244 H 0.50203 0.44855 0.97161 0.0
H2245 H 0.49784 0.41891 0.95034 0.0
H2246 H 0.50052 0.36302 0.98241 0.0
C2247 C 0.47729 0.31682 0.92874 0.0
C2248 C 0.50577 0.36306 0.92616 0.0
C2249 C 0.47234 0.29908 0.91879 0.0
C2250 C 0.50772 0.4346 0.97622 0.0
C2251 C 0.50544 0.41764 0.96397 0.0
C2252 C 0.50227 0.36326 0.96674 0.0
C2253 C 0.49392 0.32749 0.92377 0.0
C2254 C 0.49948 0.34573 0.9353 0.0
C2255 C 0.51219 0.39913 0.96966 0.0
C2256 C 0.50827 0.38072 0.95767 0.0
H2257 H 0.50946 0.29707 0.88647 0.0
H2258 H 0.5182 0.3282 0.90412 0.0
H2259 H 0.4934 0.33279 0.96318 0.0
H2260 H 0.53135 0.4134 0.01353 0.0
H2261 H 0.52751 0.38409 0.99213 0.0
C2262 C 0.92749 0.24353 0.16428 0.0
C2263 C 0.93326 0.25229 0.14692 0.0
C2264 C 0.90833 0.24392 0.17008 0.0
C2265 C 0.85893 0.25187 0.15324 0.0
H2266 H 0.85045 0.26428 0.20812 0.0
C2267 C 0.79614 0.25856 0.21674 0.0
C2268 C 0.78732 0.24004 0.21245 0.0
C2269 C 0.81121 0.26527 0.20507 0.0
C2270 C 0.85248 0.26127 0.19266 0.0
H2271 H 0.92325 0.26734 0.12147 0.0
H2272 H 0.88987 0.26793 0.13159 0.0
H2273 H 0.88288 0.26362 0.19542 0.0
H2274 H 0.78561 0.21503 0.1918 0.0
H2275 H 0.81159 0.22663 0.1714 0.0
H2276 H 0.82844 0.24927 0.15058 0.0
C2277 C 0.90013 0.26078 0.14072 0.0
C2278 C 0.87113 0.26048 0.18546 0.0
C2279 C 0.91929 0.2604 0.13493 0.0
C2280 C 0.79219 0.22944 0.19526 0.0
C2281 C 0.80709 0.23615 0.18356 0.0
C2282 C 0.84021 0.25265 0.16045 0.0
C2283 C 0.89454 0.25307 0.15864 0.0
C2284 C 0.8746 0.25523 0.1658 0.0
C2285 C 0.81756 0.25348 0.18902 0.0
C2286 C 0.8368 0.25684 0.18037 0.0
H2287 H 0.93788 0.23712 0.17382 0.0
H2288 H 0.90438 0.23742 0.18376 0.0
H2289 H 0.86112 0.24787 0.13799 0.0
H2290 H 0.79283 0.26678 0.23013 0.0
H2291 H 0.81882 0.27886 0.20948 0.0
C2292 C 0.99413 0.69723 0.43318 0.0
C2293 C 0.00171 0.69917 0.41434 0.0
C2294 C 0.00027 0.68216 0.44506 0.0
C2295 C 0.03629 0.64234 0.44999 0.0
H2296 H 0.99327 0.61324 0.47155 0.0
C2297 C 0.03765 0.55869 0.46369 0.0
C2298 C 0.02737 0.55095 0.47942 0.0
C2299 C 0.03709 0.57892 0.45986 0.0
C2300 C 0.00553 0.62137 0.46604 0.0
H2301 H 0.02271 0.68771 0.39377 0.0
H2302 H 0.03324 0.66114 0.41437 0.0
H2303 H 0.98815 0.64532 0.45736 0.0
H2304 H 0.00903 0.55863 0.50398 0.0
H2305 H 0.008 0.59414 0.49721 0.0
H2306 H 0.05351 0.61786 0.45805 0.0
C2307 C 0.02266 0.6714 0.42006 0.0
C2308 C 0.0026 0.63982 0.45787 0.0
C2309 C 0.0166 0.68662 0.40821 0.0
C2310 C 0.01708 0.5641 0.49172 0.0
C2311 C 0.01642 0.58441 0.48779 0.0
C2312 C 0.03922 0.62384 0.45817 0.0
C2313 C 0.01405 0.66855 0.43834 0.0
C2314 C 0.01785 0.65032 0.44932 0.0
C2315 C 0.02618 0.59197 0.47162 0.0
C2316 C 0.02377 0.61291 0.46582 0.0
H2317 H 0.98283 0.70687 0.43847 0.0
H2318 H 0.99368 0.6807 0.45924 0.0
H2319 H 0.04839 0.65018 0.44382 0.0
H2320 H 0.04584 0.54903 0.45398 0.0
H2321 H 0.04456 0.58414 0.44714 0.0
C2322 C 0.55335 0.75115 0.66514 0.0
C2323 C 0.54238 0.76758 0.67119 0.0
C2324 C 0.56983 0.74634 0.67535 0.0
C2325 C 0.59577 0.75726 0.72223 0.0
H2326 H 0.64004 0.74116 0.69187 0.0
C2327 C 0.67368 0.77498 0.74211 0.0
C2328 C 0.68788 0.76139 0.73655 0.0
C2329 C 0.65444 0.77038 0.73861 0.0
C2330 C 0.62771 0.74516 0.70065 0.0
H2331 H 0.54015 0.79197 0.69256 0.0
H2332 H 0.56928 0.78418 0.70983 0.0
H2333 H 0.60939 0.74436 0.67579 0.0
H2334 H 0.69323 0.73188 0.72427 0.0
H2335 H 0.65944 0.72387 0.71786 0.0
H2336 H 0.61464 0.75936 0.74685 0.0
C2337 C 0.56489 0.77454 0.69762 0.0
C2338 C 0.61008 0.74705 0.69141 0.0
C2339 C 0.54827 0.77917 0.68757 0.0
C2340 C 0.68249 0.74247 0.72895 0.0
C2341 C 0.66321 0.73798 0.72511 0.0
C2342 C 0.61348 0.75562 0.73141 0.0
C2343 C 0.57587 0.75802 0.69168 0.0
C2344 C 0.59399 0.75365 0.70198 0.0
C2345 C 0.64912 0.75227 0.72914 0.0
C2346 C 0.62972 0.75003 0.72061 0.0
H2347 H 0.54903 0.74178 0.6527 0.0
H2348 H 0.57775 0.73336 0.67049 0.0
H2349 H 0.5836 0.76188 0.73094 0.0
H2350 H 0.67757 0.78971 0.7479 0.0
H2351 H 0.64394 0.78174 0.74175 0.0
C2352 C 0.58482 0.50045 0.71012 0.0
C2353 C 0.58801 0.51848 0.72069 0.0
C2354 C 0.57392 0.49993 0.69309 0.0
C2355 C 0.55944 0.53085 0.65323 0.0
H2356 H 0.52531 0.48605 0.64104 0.0
C2357 C 0.52965 0.51735 0.57573 0.0
C2358 C 0.53355 0.49802 0.56844 0.0
C2359 C 0.53061 0.5218 0.59581 0.0
C2360 C 0.53471 0.49872 0.64426 0.0
H2361 H 0.58216 0.55013 0.72171 0.0
H2362 H 0.56324 0.54921 0.69174 0.0
H2363 H 0.53878 0.49028 0.67372 0.0
H2364 H 0.53984 0.46789 0.57643 0.0
H2365 H 0.54143 0.47554 0.61116 0.0
H2366 H 0.55615 0.53875 0.62352 0.0
C2367 C 0.56919 0.5355 0.69672 0.0
C2368 C 0.54245 0.50111 0.66295 0.0
C2369 C 0.57999 0.536 0.71388 0.0
C2370 C 0.5369 0.48295 0.58162 0.0
C2371 C 0.53767 0.48733 0.60158 0.0
C2372 C 0.55174 0.52843 0.6345 0.0
C2373 C 0.56603 0.51744 0.68615 0.0
C2374 C 0.55543 0.5168 0.66743 0.0
C2375 C 0.53522 0.50693 0.60888 0.0
C2376 C 0.53984 0.51192 0.62961 0.0
H2377 H 0.59076 0.48668 0.71496 0.0
H2378 H 0.57204 0.48584 0.6851 0.0
H2379 H 0.56946 0.54305 0.65622 0.0
H2380 H 0.52708 0.52927 0.56588 0.0
H2381 H 0.52848 0.53701 0.60103 0.0
C2382 C 0.75697 0.34591 0.94048 0.0
C2383 C 0.77376 0.34067 0.9502 0.0
C2384 C 0.7522 0.33681 0.92243 0.0
C2385 C 0.76087 0.29074 0.89363 0.0
H2386 H 0.7409 0.31933 0.85018 0.0
C2387 C 0.73044 0.24949 0.82579 0.0
C2388 C 0.73614 0.25645 0.80756 0.0
C2389 C 0.73431 0.26071 0.84284 0.0
C2390 C 0.74656 0.31119 0.86218 0.0
H2391 H 0.79905 0.3223 0.94812 0.0
H2392 H 0.79076 0.30668 0.91683 0.0
H2393 H 0.74947 0.33759 0.88053 0.0
H2394 H 0.75003 0.28098 0.79298 0.0
H2395 H 0.75691 0.3005 0.8229 0.0
H2396 H 0.75828 0.26443 0.87538 0.0
C2397 C 0.78112 0.31753 0.92328 0.0
C2398 C 0.75128 0.3216 0.87958 0.0
C2399 C 0.78589 0.32658 0.94121 0.0
C2400 C 0.7455 0.27511 0.80679 0.0
C2401 C 0.74934 0.28638 0.8239 0.0
C2402 C 0.7561 0.28037 0.87634 0.0
C2403 C 0.7641 0.32229 0.91382 0.0
C2404 C 0.7586 0.31147 0.89543 0.0
C2405 C 0.74395 0.27918 0.84211 0.0
C2406 C 0.74891 0.29045 0.86042 0.0
H2407 H 0.74734 0.35674 0.94696 0.0
H2408 H 0.73893 0.34071 0.9155 0.0
H2409 H 0.76626 0.28248 0.90567 0.0
H2410 H 0.72308 0.23528 0.82698 0.0
H2411 H 0.72971 0.25491 0.85664 0.0
C2412 C 0.91443 0.50149 0.21026 0.0
C2413 C 0.92471 0.51043 0.22589 0.0
C2414 C 0.92189 0.5015 0.19137 0.0
C2415 C 0.96634 0.51046 0.16274 0.0
H2416 H 0.9303 0.5238 0.12259 0.0
C2417 C 0.98533 0.51443 0.08002 0.0
C2418 C 0.97656 0.5297 0.06995 0.0
C2419 C 0.98053 0.51117 0.0995 0.0
C2420 C 0.94059 0.52018 0.13364 0.0
H2421 H 0.95119 0.52585 0.23404 0.0
H2422 H 0.96399 0.52625 0.20107 0.0
H2423 H 0.91893 0.51896 0.15551 0.0
H2424 H 0.95705 0.55443 0.07281 0.0
H2425 H 0.94908 0.54905 0.10665 0.0
H2426 H 0.9881 0.51239 0.14077 0.0
C2427 C 0.9503 0.51895 0.20341 0.0
C2428 C 0.93402 0.5171 0.15249 0.0
C2429 C 0.94287 0.51885 0.22231 0.0
C2430 C 0.96382 0.54233 0.08004 0.0
C2431 C 0.95915 0.53917 0.09942 0.0
C2432 C 0.97294 0.51357 0.1438 0.0
C2433 C 0.93976 0.51055 0.18766 0.0
C2434 C 0.94681 0.51241 0.16734 0.0
C2435 C 0.96697 0.5232 0.10921 0.0
C2436 C 0.96016 0.51878 0.12913 0.0
H2437 H 0.90048 0.4947 0.21256 0.0
H2438 H 0.91355 0.49459 0.17961 0.0
H2439 H 0.97654 0.50664 0.1738 0.0
H2440 H 0.99517 0.50442 0.0726 0.0
H2441 H 0.9868 0.49874 0.10667 0.0
C2442 C 0.7645 0.67412 0.43023 0.0
C2443 C 0.78217 0.67939 0.43886 0.0
C2444 C 0.75856 0.68313 0.41334 0.0
C2445 C 0.77883 0.70908 0.37125 0.0
H2446 H 0.72522 0.71398 0.35817 0.0
C2447 C 0.74775 0.74225 0.30041 0.0
C2448 C 0.73348 0.73039 0.29129 0.0
C2449 C 0.75542 0.73684 0.31824 0.0
C2450 C 0.74025 0.7126 0.36165 0.0
H2451 H 0.8067 0.69952 0.43736 0.0
H2452 H 0.79597 0.71576 0.40821 0.0
H2453 H 0.73415 0.70569 0.39114 0.0
H2454 H 0.71586 0.70378 0.29331 0.0
H2455 H 0.7293 0.69418 0.32445 0.0
H2456 H 0.78474 0.71648 0.34163 0.0
C2457 C 0.78703 0.70413 0.41415 0.0
C2458 C 0.74538 0.70782 0.38051 0.0
C2459 C 0.79309 0.69494 0.43098 0.0
C2460 C 0.72726 0.71282 0.2999 0.0
C2461 C 0.73478 0.70748 0.31774 0.0
C2462 C 0.77367 0.71421 0.35243 0.0
C2463 C 0.76999 0.69788 0.40477 0.0
C2464 C 0.76471 0.7055 0.38545 0.0
C2465 C 0.74854 0.71973 0.3273 0.0
C2466 C 0.75431 0.71552 0.34739 0.0
H2467 H 0.75567 0.66224 0.43587 0.0
H2468 H 0.74545 0.67772 0.40649 0.0
H2469 H 0.79384 0.70719 0.37442 0.0
H2470 H 0.75198 0.75638 0.29445 0.0
H2471 H 0.76583 0.74664 0.32549 0.0
C2472 C 0.59843 0.52825 0.83384 0.0
C2473 C 0.61632 0.52121 0.82769 0.0
C2474 C 0.59277 0.52667 0.85323 0.0
C2475 C 0.60663 0.51876 0.90342 0.0
H2476 H 0.55842 0.48936 0.90462 0.0
C2477 C 0.54168 0.48938 0.9569 0.0
C2478 C 0.5377 0.50805 0.96551 0.0
C2479 C 0.55736 0.48731 0.94435 0.0
C2480 C 0.57212 0.49714 0.90464 0.0
H2481 H 0.64315 0.50914 0.83744 0.0
H2482 H 0.63328 0.50677 0.87144 0.0
H2483 H 0.57325 0.49622 0.87353 0.0
H2484 H 0.54766 0.53852 0.96989 0.0
H2485 H 0.57501 0.53499 0.94818 0.0
H2486 H 0.60496 0.5204 0.93468 0.0
C2487 C 0.6236 0.51318 0.86117 0.0
C2488 C 0.58041 0.50138 0.88679 0.0
C2489 C 0.62921 0.51457 0.8417 0.0
C2490 C 0.55064 0.52396 0.96338 0.0
C2491 C 0.56635 0.52188 0.951 0.0
C2492 C 0.59816 0.51471 0.92141 0.0
C2493 C 0.60499 0.51828 0.86682 0.0
C2494 C 0.5974 0.51272 0.886 0.0
C2495 C 0.56906 0.50394 0.9403 0.0
C2496 C 0.58055 0.50428 0.92214 0.0
H2497 H 0.58821 0.53354 0.82345 0.0
H2498 H 0.57843 0.531 0.85739 0.0
H2499 H 0.61987 0.52734 0.90311 0.0
H2500 H 0.53172 0.47698 0.95836 0.0
H2501 H 0.55929 0.47323 0.93647 0.0
C2502 C 0.73875 0.32917 0.05086 0.0
C2503 C 0.75482 0.32374 0.03967 0.0
C2504 C 0.73192 0.31673 0.06535 0.0
C2505 C 0.7517 0.2817 0.0986 0.0
H2506 H 0.69926 0.2753 0.11593 0.0
C2507 C 0.73635 0.25421 0.17503 0.0
C2508 C 0.72325 0.26604 0.18558 0.0
C2509 C 0.73745 0.25512 0.15472 0.0
C2510 C 0.71399 0.27695 0.11129 0.0
H2511 H 0.77501 0.30009 0.03352 0.0
H2512 H 0.76304 0.27852 0.05866 0.0
H2513 H 0.70583 0.28898 0.08403 0.0
H2514 H 0.69997 0.28681 0.18287 0.0
H2515 H 0.7023 0.28883 0.14791 0.0
H2516 H 0.76005 0.271 0.12613 0.0
C2517 C 0.756 0.29253 0.05655 0.0
C2518 C 0.71772 0.28474 0.09301 0.0
C2519 C 0.76283 0.30492 0.04213 0.0
C2520 C 0.71041 0.27765 0.17527 0.0
C2521 C 0.71159 0.27864 0.15508 0.0
C2522 C 0.748 0.27413 0.1169 0.0
C2523 C 0.741 0.29866 0.06884 0.0
C2524 C 0.73664 0.28766 0.08671 0.0
C2525 C 0.72555 0.26793 0.14458 0.0
C2526 C 0.72912 0.27221 0.12375 0.0
H2527 H 0.73223 0.34354 0.04928 0.0
H2528 H 0.72037 0.3219 0.07466 0.0
H2529 H 0.76646 0.28401 0.09428 0.0
H2530 H 0.74634 0.24497 0.18249 0.0
H2531 H 0.74813 0.24636 0.14704 0.0
C2532 C 0.90924 0.47352 0.33313 0.0
C2533 C 0.90083 0.4922 0.33169 0.0
C2534 C 0.91233 0.46564 0.35136 0.0
C2535 C 0.90422 0.47501 0.40511 0.0
H2536 H 0.95467 0.45232 0.4078 0.0
C2537 C 0.95856 0.48823 0.46621 0.0
C2538 C 0.97296 0.47415 0.46802 0.0
C2539 C 0.94316 0.48412 0.45366 0.0
C2540 C 0.9403 0.45809 0.40742 0.0
H2541 H 0.88832 0.51701 0.34785 0.0
H2542 H 0.89495 0.50404 0.37973 0.0
H2543 H 0.94061 0.45731 0.3765 0.0
H2544 H 0.98155 0.44401 0.46073 0.0
H2545 H 0.95433 0.43653 0.43937 0.0
H2546 H 0.90501 0.4773 0.43638 0.0
C2547 C 0.89853 0.49499 0.36693 0.0
C2548 C 0.93216 0.46097 0.38931 0.0
C2549 C 0.89496 0.5026 0.34866 0.0
C2550 C 0.97058 0.45509 0.45935 0.0
C2551 C 0.95506 0.45086 0.44712 0.0
C2552 C 0.91257 0.47238 0.42334 0.0
C2553 C 0.90764 0.47658 0.36854 0.0
C2554 C 0.9143 0.4701 0.38785 0.0
C2555 C 0.94206 0.46586 0.44297 0.0
C2556 C 0.93096 0.46446 0.42461 0.0
H2557 H 0.91344 0.46501 0.32017 0.0
H2558 H 0.91885 0.45117 0.35197 0.0
H2559 H 0.89024 0.48165 0.40456 0.0
H2560 H 0.96027 0.50306 0.47275 0.0
H2561 H 0.93339 0.496 0.45075 0.0
C2562 C 0.77465 0.66862 0.53887 0.0
C2563 C 0.79397 0.66704 0.53339 0.0
C2564 C 0.76968 0.6775 0.55686 0.0
C2565 C 0.78486 0.68681 0.60635 0.0
H2566 H 0.75475 0.73473 0.60613 0.0
C2567 C 0.77105 0.73439 0.67694 0.0
C2568 C 0.75412 0.74529 0.67828 0.0
C2569 C 0.77579 0.72401 0.65958 0.0
C2570 C 0.7628 0.72113 0.60661 0.0
H2571 H 0.82321 0.673 0.54265 0.0
H2572 H 0.81444 0.68795 0.57443 0.0
H2573 H 0.76278 0.71765 0.57544 0.0
H2574 H 0.72834 0.753 0.66302 0.0
H2575 H 0.7359 0.73408 0.63331 0.0
H2576 H 0.78434 0.68965 0.63745 0.0
C2577 C 0.80324 0.68256 0.56462 0.0
C2578 C 0.76752 0.71148 0.58895 0.0
C2579 C 0.80821 0.67413 0.54643 0.0
C2580 C 0.74166 0.74499 0.66227 0.0
C2581 C 0.74613 0.73424 0.64514 0.0
C2582 C 0.77976 0.6962 0.62409 0.0
C2583 C 0.78394 0.68449 0.56988 0.0
C2584 C 0.77866 0.69432 0.58867 0.0
C2585 C 0.76345 0.72392 0.64335 0.0
C2586 C 0.76871 0.71358 0.62449 0.0
H2587 H 0.76337 0.66334 0.52909 0.0
H2588 H 0.7547 0.67885 0.56066 0.0
H2589 H 0.7934 0.67351 0.60642 0.0
H2590 H 0.78095 0.73444 0.68907 0.0
H2591 H 0.78937 0.71653 0.65881 0.0
C2592 C 0.71769 0.60554 0.49168 0.0
C2593 C 0.72288 0.61404 0.47399 0.0
C2594 C 0.6988 0.59949 0.49506 0.0
C2595 C 0.65447 0.58446 0.46884 0.0
H2596 H 0.63349 0.58575 0.52118 0.0
C2597 C 0.58147 0.54728 0.48825 0.0
C2598 C 0.58366 0.53326 0.50278 0.0
C2599 C 0.59614 0.56119 0.48469 0.0
C2600 C 0.6391 0.58545 0.50645 0.0
H2601 H 0.71214 0.62345 0.44621 0.0
H2602 H 0.67908 0.61321 0.45225 0.0
H2603 H 0.66378 0.6029 0.51485 0.0
H2604 H 0.60231 0.52355 0.52569 0.0
H2605 H 0.62755 0.54792 0.51974 0.0
H2606 H 0.62983 0.56667 0.46062 0.0
C2607 C 0.6897 0.61086 0.46337 0.0
C2608 C 0.65652 0.59513 0.50284 0.0
C2609 C 0.70865 0.6168 0.45994 0.0
C2610 C 0.60029 0.53403 0.51425 0.0
C2611 C 0.61469 0.5481 0.51097 0.0
C2612 C 0.63693 0.57494 0.47244 0.0
C2613 C 0.68456 0.60193 0.4809 0.0
C2614 C 0.66476 0.59418 0.48412 0.0
C2615 C 0.61295 0.56158 0.49595 0.0
C2616 C 0.62941 0.57481 0.49141 0.0
H2617 H 0.7283 0.60315 0.5028 0.0
H2618 H 0.69551 0.59234 0.50858 0.0
H2619 H 0.66041 0.58325 0.45428 0.0
H2620 H 0.56877 0.54702 0.47922 0.0
H2621 H 0.59448 0.57147 0.47303 0.0
C2622 C 0.21278 0.92269 0.51861 0.0
C2623 C 0.22341 0.92324 0.50123 0.0
C2624 C 0.19595 0.93348 0.52077 0.0
C2625 C 0.15713 0.95541 0.49345 0.0
H2626 H 0.14733 0.98366 0.54261 0.0
C2627 C 0.08396 0.99097 0.50898 0.0
C2628 C 0.07597 0.98562 0.52691 0.0
C2629 C 0.10348 0.98827 0.50525 0.0
C2630 C 0.14981 0.97584 0.52879 0.0
H2631 H 0.22448 0.93535 0.47236 0.0
H2632 H 0.19484 0.954 0.47609 0.0
H2633 H 0.17826 0.96823 0.53691 0.0
H2634 H 0.08251 0.97491 0.55553 0.0
H2635 H 0.11626 0.9702 0.5491 0.0
H2636 H 0.12842 0.96226 0.48563 0.0
C2637 C 0.19965 0.94526 0.48804 0.0
C2638 C 0.16753 0.96698 0.52555 0.0
C2639 C 0.21663 0.9346 0.48594 0.0
C2640 C 0.08817 0.97909 0.54153 0.0
C2641 C 0.10762 0.97648 0.53785 0.0
C2642 C 0.13932 0.96417 0.49675 0.0
C2643 C 0.18923 0.94496 0.50557 0.0
C2644 C 0.17122 0.95623 0.50805 0.0
C2645 C 0.1154 0.98032 0.51944 0.0
C2646 C 0.13527 0.97404 0.51468 0.0
H2647 H 0.21756 0.91411 0.53069 0.0
H2648 H 0.18808 0.93267 0.53433 0.0
H2649 H 0.15951 0.94716 0.47985 0.0
H2650 H 0.07496 0.99599 0.4974 0.0
H2651 H 0.10906 0.99168 0.491 0.0
C2652 C 0.37053 0.94245 0.76672 0.0
C2653 C 0.35423 0.95334 0.77216 0.0
C2654 C 0.36882 0.92224 0.7612 0.0
C2655 C 0.33609 0.88367 0.74236 0.0
H2656 H 0.35691 0.84818 0.78005 0.0
C2657 C 0.30821 0.80446 0.74356 0.0
C2658 C 0.29846 0.80236 0.76125 0.0
C2659 C 0.32271 0.81892 0.74202 0.0
C2660 C 0.35141 0.85782 0.76912 0.0
H2661 H 0.32339 0.95206 0.77512 0.0
H2662 H 0.32034 0.91697 0.76476 0.0
H2663 H 0.36669 0.88344 0.78095 0.0
H2664 H 0.29708 0.81208 0.79155 0.0
H2665 H 0.3227 0.83696 0.78911 0.0
H2666 H 0.31996 0.85851 0.73121 0.0
C2667 C 0.33441 0.92399 0.76502 0.0
C2668 C 0.35701 0.87793 0.76961 0.0
C2669 C 0.33615 0.944 0.77102 0.0
C2670 C 0.30469 0.81328 0.77786 0.0
C2671 C 0.31935 0.82751 0.77642 0.0
C2672 C 0.33076 0.86355 0.74164 0.0
C2673 C 0.35075 0.91285 0.7605 0.0
C2674 C 0.34871 0.89114 0.75679 0.0
C2675 C 0.32764 0.83132 0.75823 0.0
C2676 C 0.33768 0.85063 0.75559 0.0
H2677 H 0.38465 0.9493 0.76763 0.0
H2678 H 0.38158 0.91385 0.75784 0.0
H2679 H 0.32951 0.89364 0.73237 0.0
H2680 H 0.30326 0.7965 0.73048 0.0
H2681 H 0.32889 0.82156 0.72785 0.0
C2682 C 0.34821 0.10095 0.97542 0.0
C2683 C 0.33205 0.09402 0.98553 0.0
C2684 C 0.3658 0.09163 0.97712 0.0
C2685 C 0.38741 0.04465 0.99272 0.0
H2686 H 0.43364 0.07711 0.99806 0.0
C2687 C 0.45378 0.02161 0.03359 0.0
C2688 C 0.47194 0.02496 0.02553 0.0
C2689 C 0.43745 0.0281 0.02436 0.0
C2690 C 0.42091 0.06783 0.99614 0.0
H2691 H 0.32171 0.07203 0.00553 0.0
H2692 H 0.35255 0.05609 0.009 0.0
H2693 H 0.4033 0.09289 0.9913 0.0
H2694 H 0.48737 0.03729 0.00131 0.0
H2695 H 0.45857 0.04974 0.98543 0.0
H2696 H 0.40499 0.01975 0.99866 0.0
C2697 C 0.35154 0.06844 -0.00064 0.0
C2698 C 0.4035 0.07685 0.99233 0.0
C2699 C 0.33389 0.0777 0.99755 0.0
C2700 C 0.47352 0.03462 0.00779 0.0
C2701 C 0.45711 0.04168 0.99876 0.0
C2702 C 0.40477 0.03568 0.9967 0.0
C2703 C 0.36768 0.07521 0.98906 0.0
C2704 C 0.38645 0.06542 0.99111 0.0
C2705 C 0.43895 0.0385 0.00706 0.0
C2706 C 0.42157 0.04728 -0.00103 0.0
H2707 H 0.34722 0.11336 0.96584 0.0
H2708 H 0.37784 0.0971 0.96881 0.0
H2709 H 0.37465 0.03534 0.99135 0.0
H2710 H 0.45217 0.01407 0.04721 0.0
H2711 H 0.42367 0.02569 0.0312 0.0
C2712 C 0.68665 0.55566 0.75522 0.0
C2713 C 0.66702 0.55399 0.75911 0.0
C2714 C 0.69437 0.57313 0.74777 0.0
C2715 C 0.6816 0.62345 0.72897 0.0
H2716 H 0.73233 0.63675 0.74858 0.0
C2717 C 0.74647 0.68651 0.72815 0.0
C2718 C 0.73826 0.70238 0.7388 0.0
C2719 C 0.73583 0.66914 0.72389 0.0
C2720 C 0.71826 0.63315 0.74271 0.0
H2721 H 0.63991 0.56898 0.75783 0.0
H2722 H 0.65346 0.60004 0.7461 0.0
H2723 H 0.71811 0.60476 0.75538 0.0
H2724 H 0.71214 0.71352 0.7517 0.0
H2725 H 0.69329 0.68315 0.74396 0.0
H2726 H 0.68161 0.65297 0.71765 0.0
C2727 C 0.66293 0.58769 0.748 0.0
C2728 C 0.71006 0.61464 0.7465 0.0
C2729 C 0.65512 0.5699 0.75486 0.0
C2730 C 0.71862 0.70163 0.74306 0.0
C2731 C 0.7079 0.68419 0.73876 0.0
C2732 C 0.68971 0.64229 0.72557 0.0
C2733 C 0.68278 0.58974 0.74475 0.0
C2734 C 0.69161 0.60939 0.7397 0.0
C2735 C 0.71682 0.66736 0.73033 0.0
C2736 C 0.70817 0.64723 0.73237 0.0
H2737 H 0.69608 0.54346 0.75811 0.0
H2738 H 0.70957 0.57368 0.74478 0.0
H2739 H 0.66747 0.62 0.72325 0.0
H2740 H 0.76167 0.68666 0.72501 0.0
H2741 H 0.74299 0.65641 0.71727 0.0
C2742 C 0.82699 0.41156 0.98133 0.0
C2743 C 0.82225 0.39643 0.99418 0.0
C2744 C 0.84613 0.41641 0.97764 0.0
C2745 C 0.89205 0.41637 0.00221 0.0
H2746 H 0.91107 0.43511 0.95294 0.0
C2747 C 0.95967 0.46444 0.00122 0.0
C2748 C 0.95657 0.48238 0.99197 0.0
C2749 C 0.94757 0.44796 0.99744 0.0
C2750 C 0.90603 0.4298 0.96678 0.0
H2751 H 0.83388 0.37409 0.01274 0.0
H2752 H 0.86721 0.38253 0.00622 0.0
H2753 H 0.88033 0.41733 0.95408 0.0
H2754 H 0.93955 0.49686 0.97045 0.0
H2755 H 0.91828 0.4685 0.96412 0.0
H2756 H 0.91692 0.4299 0.01522 0.0
C2757 C 0.85614 0.39066 -0.00094 0.0
C2758 C 0.88844 0.41966 0.96742 0.0
C2759 C 0.83703 0.38579 0.00271 0.0
C2760 C 0.94217 0.48317 0.97783 0.0
C2761 C 0.9301 0.46679 0.97406 0.0
C2762 C 0.90954 0.42661 0.00161 0.0
C2763 C 0.8609 0.40628 0.9868 0.0
C2764 C 0.88096 0.41352 0.98527 0.0
C2765 C 0.93212 0.44927 0.98443 0.0
C2766 C 0.91635 0.43418 0.98402 0.0
H2767 H 0.81592 0.41998 0.9745 0.0
H2768 H 0.84935 0.42871 0.96833 0.0
H2769 H 0.88661 0.41197 0.01623 0.0
H2770 H 0.9704 0.46362 0.01245 0.0
H2771 H 0.94962 0.43461 0.00553 0.0
C2772 C 0.33164 0.05554 0.7483 0.0
C2773 C 0.32584 0.04742 0.76599 0.0
C2774 C 0.32197 0.07161 0.74082 0.0
C2775 C 0.31128 0.11469 0.7396 0.0
H2776 H 0.25709 0.12535 0.74431 0.0
C2777 C 0.2611 0.18784 0.74602 0.0
C2778 C 0.27033 0.19928 0.73194 0.0
C2779 C 0.26518 0.16758 0.7474 0.0
C2780 C 0.27226 0.12258 0.74298 0.0
H2781 H 0.30433 0.04881 0.78884 0.0
H2782 H 0.28778 0.07706 0.776 0.0
H2783 H 0.26887 0.09211 0.75091 0.0
H2784 H 0.28979 0.19818 0.7073 0.0
H2785 H 0.2965 0.16296 0.70941 0.0
H2786 H 0.3149 0.14509 0.73227 0.0
C2787 C 0.29968 0.07093 0.7678 0.0
C2788 C 0.279 0.10356 0.74672 0.0
C2789 C 0.30927 0.05475 0.77523 0.0
C2790 C 0.28273 0.18985 0.71855 0.0
C2791 C 0.28663 0.16966 0.71979 0.0
C2792 C 0.30459 0.13359 0.73589 0.0
C2793 C 0.30638 0.08003 0.75092 0.0
C2794 C 0.29864 0.09946 0.74521 0.0
C2795 C 0.27842 0.15843 0.73463 0.0
C2796 C 0.28503 0.13784 0.73765 0.0
H2797 H 0.34416 0.05007 0.74064 0.0
H2798 H 0.3272 0.07798 0.72751 0.0
H2799 H 0.32655 0.11227 0.73879 0.0
H2800 H 0.25147 0.19474 0.75653 0.0
H2801 H 0.25868 0.15935 0.75905 0.0
C2802 C 0.19511 0.94569 0.27167 0.0
C2803 C 0.18055 0.9542 0.2607 0.0
C2804 C 0.20054 0.92604 0.26787 0.0
C2805 C 0.19994 0.88433 0.23228 0.0
H2806 H 0.19845 0.85176 0.27787 0.0
C2807 C 0.21664 0.80205 0.22366 0.0
C2808 C 0.22964 0.79511 0.23725 0.0
C2809 C 0.20678 0.81963 0.22755 0.0
C2810 C 0.19906 0.86063 0.26501 0.0
H2811 H 0.16169 0.94925 0.23584 0.0
H2812 H 0.17163 0.91502 0.22892 0.0
H2813 H 0.19148 0.8872 0.28118 0.0
H2814 H 0.24169 0.8 0.26602 0.0
H2815 H 0.22495 0.83105 0.27276 0.0
H2816 H 0.20828 0.85818 0.21616 0.0
C2817 C 0.1785 0.92354 0.24071 0.0
C2818 C 0.19509 0.88093 0.26692 0.0
C2819 C 0.17288 0.94318 0.24464 0.0
C2820 C 0.23143 0.80495 0.2555 0.0
C2821 C 0.22187 0.82282 0.25926 0.0
C2822 C 0.20416 0.8641 0.23039 0.0
C2823 C 0.19177 0.91456 0.25283 0.0
C2824 C 0.19567 0.893 0.2506 0.0
C2825 C 0.21024 0.83092 0.24487 0.0
C2826 C 0.2039 0.85198 0.24676 0.0
H2827 H 0.2015 0.95373 0.28404 0.0
H2828 H 0.21115 0.91959 0.27713 0.0
H2829 H 0.20057 0.89333 0.2195 0.0
H2830 H 0.21518 0.79466 0.20944 0.0
H2831 H 0.19743 0.82503 0.21641 0.0
C2832 C 0.50577 0.31852 0.39311 0.0
C2833 C 0.48751 0.30976 0.3953 0.0
C2834 C 0.51012 0.33718 0.40184 0.0
C2835 C 0.49501 0.37123 0.44206 0.0
H2836 H 0.52713 0.40961 0.41589 0.0
C2837 C 0.51735 0.44526 0.48075 0.0
C2838 C 0.537 0.44946 0.47992 0.0
C2839 C 0.50908 0.43086 0.46799 0.0
C2840 C 0.51816 0.39904 0.4234 0.0
H2841 H 0.45945 0.31401 0.40827 0.0
H2842 H 0.46704 0.3465 0.42334 0.0
H2843 H 0.51729 0.3787 0.39865 0.0
H2844 H 0.56344 0.44257 0.46493 0.0
H2845 H 0.54914 0.41757 0.44258 0.0
H2846 H 0.49625 0.39124 0.46695 0.0
C2847 C 0.47806 0.33884 0.41506 0.0
C2848 C 0.51257 0.3813 0.41354 0.0
C2849 C 0.4737 0.3202 0.40634 0.0
C2850 C 0.54816 0.43973 0.46564 0.0
C2851 C 0.53993 0.42548 0.4528 0.0
C2852 C 0.50059 0.38894 0.4519 0.0
C2853 C 0.49634 0.34754 0.41297 0.0
C2854 C 0.5012 0.36703 0.42288 0.0
C2855 C 0.52039 0.42042 0.4542 0.0
C2856 C 0.51251 0.4029 0.44281 0.0
H2857 H 0.51677 0.31094 0.38473 0.0
H2858 H 0.52443 0.34332 0.40017 0.0
H2859 H 0.48644 0.36048 0.44978 0.0
H2860 H 0.5087 0.45202 0.49213 0.0
H2861 H 0.49398 0.42731 0.46941 0.0
C2862 C 0.43393 0.74056 0.18807 0.0
C2863 C 0.45241 0.744 0.19548 0.0
C2864 C 0.41893 0.73544 0.20039 0.0
C2865 C 0.40251 0.74353 0.24985 0.0
H2866 H 0.36159 0.70812 0.23137 0.0
C2867 C 0.31591 0.72552 0.25803 0.0
C2868 C 0.31011 0.74536 0.25726 0.0
C2869 C 0.33536 0.72101 0.25847 0.0
C2870 C 0.37296 0.7177 0.2372 0.0
H2871 H 0.46989 0.74414 0.22153 0.0
H2872 H 0.44335 0.73555 0.24334 0.0
H2873 H 0.39263 0.7069 0.21556 0.0
H2874 H 0.31983 0.77613 0.25803 0.0
H2875 H 0.35363 0.76845 0.25845 0.0
H2876 H 0.38254 0.75497 0.27096 0.0
C2877 C 0.44059 0.73674 0.22791 0.0
C2878 C 0.39073 0.71713 0.22794 0.0
C2879 C 0.45574 0.74159 0.21544 0.0
C2880 C 0.32396 0.76069 0.25868 0.0
C2881 C 0.34337 0.75624 0.25906 0.0
C2882 C 0.3847 0.74409 0.25917 0.0
C2883 C 0.422 0.73379 0.22049 0.0
C2884 C 0.40533 0.73075 0.23349 0.0
C2885 C 0.34933 0.73632 0.25791 0.0
C2886 C 0.36942 0.7319 0.25227 0.0
H2887 H 0.43093 0.74193 0.17277 0.0
H2888 H 0.40473 0.73353 0.19425 0.0
H2889 H 0.41353 0.75418 0.25449 0.0
H2890 H 0.30557 0.71346 0.25634 0.0
H2891 H 0.33945 0.70552 0.25779 0.0
C2892 C 0.01212 0.70719 0.90679 0.0
C2893 C 0.99397 0.71589 0.90864 0.0
C2894 C 0.01702 0.69113 0.91806 0.0
C2895 C 0.00372 0.66326 0.96166 0.0
H2896 H 0.0207 0.61693 0.93144 0.0
C2897 C 0.98986 0.57661 0.96633 0.0
C2898 C 0.99376 0.57376 0.98602 0.0
C2899 C 0.99705 0.5934 0.95721 0.0
C2900 C 0.01628 0.62982 0.94014 0.0
H2901 H 0.9672 0.71514 0.92464 0.0
H2902 H 0.97585 0.68717 0.9444 0.0
H2903 H 0.01854 0.64904 0.91599 0.0
H2904 H 0.00895 0.58532 0.01151 0.0
H2905 H 0.02143 0.61505 0.99562 0.0
H2906 H 0.00055 0.64384 0.98554 0.0
C2907 C 0.98625 0.69282 0.93419 0.0
C2908 C 0.01509 0.64822 0.93133 0.0
C2909 C 0.98126 0.70878 0.92278 0.0
C2910 C 0.00607 0.58713 0.99618 0.0
C2911 C 0.01303 0.60418 0.98716 0.0
C2912 C 0.00511 0.64492 0.97053 0.0
C2913 C 0.00401 0.68352 0.93161 0.0
C2914 C 0.00818 0.66497 0.94183 0.0
C2915 C 0.00788 0.60787 0.96782 0.0
C2916 C 0.01077 0.62787 0.95967 0.0
H2917 H 0.02234 0.7123 0.89612 0.0
H2918 H 0.03087 0.68438 0.9159 0.0
H2919 H 0.99854 0.67597 0.97015 0.0
H2920 H 0.98014 0.56659 0.95838 0.0
H2921 H 0.99269 0.59588 0.94238 0.0
C2922 C 0.05941 0.25117 0.63843 0.0
C2923 C 0.05241 0.26753 0.64942 0.0
C2924 C 0.07907 0.24805 0.63691 0.0
C2925 C 0.12682 0.27128 0.6501 0.0
H2926 H 0.14066 0.21635 0.65692 0.0
C2927 C 0.19712 0.25584 0.68655 0.0
C2928 C 0.1945 0.24326 0.70222 0.0
C2929 C 0.18382 0.25568 0.67134 0.0
C2930 C 0.1371 0.23178 0.65495 0.0
H2931 H 0.06042 0.2938 0.66689 0.0
H2932 H 0.09453 0.28788 0.66525 0.0
H2933 H 0.10828 0.22397 0.64766 0.0
H2934 H 0.17696 0.21959 0.71374 0.0
H2935 H 0.15347 0.21967 0.68793 0.0
H2936 H 0.155 0.27926 0.65953 0.0
C2937 C 0.08505 0.27775 0.65715 0.0
C2938 C 0.1185 0.23618 0.64935 0.0
C2939 C 0.06542 0.28107 0.65832 0.0
C2940 C 0.17931 0.22939 0.70172 0.0
C2941 C 0.16591 0.22937 0.68674 0.0
C2942 C 0.14529 0.26691 0.65614 0.0
C2943 C 0.09216 0.261 0.6467 0.0
C2944 C 0.11283 0.25608 0.64789 0.0
C2945 C 0.16742 0.24325 0.67188 0.0
C2946 C 0.15033 0.24717 0.65974 0.0
H2947 H 0.04967 0.24066 0.63112 0.0
H2948 H 0.08396 0.23525 0.62839 0.0
H2949 H 0.12321 0.28673 0.64836 0.0
H2950 H 0.20834 0.26709 0.68698 0.0
H2951 H 0.18568 0.26633 0.65998 0.0
C2952 C 0.49217 0.69063 0.12886 0.0
C2953 C 0.47541 0.70098 0.12473 0.0
C2954 C 0.49541 0.67183 0.12028 0.0
C2955 C 0.4708 0.62968 0.09354 0.0
H2956 H 0.52188 0.61792 0.07468 0.0
C2957 C 0.48574 0.57241 0.03221 0.0
C2958 C 0.50005 0.55834 0.03505 0.0
C2959 C 0.48324 0.58825 0.04554 0.0
C2960 C 0.50763 0.62089 0.08016 0.0
H2961 H 0.4489 0.69966 0.10835 0.0
H2962 H 0.45478 0.66717 0.09293 0.0
H2963 H 0.5163 0.6489 0.09334 0.0
H2964 H 0.52306 0.54994 0.05411 0.0
H2965 H 0.51896 0.57828 0.0773 0.0
H2966 H 0.46204 0.60207 0.07946 0.0
C2967 C 0.46523 0.67333 0.10319 0.0
C2968 C 0.5044 0.63861 0.09086 0.0
C2969 C 0.4619 0.69205 0.11193 0.0
C2970 C 0.51195 0.56059 0.05151 0.0
C2971 C 0.50963 0.57674 0.06474 0.0
C2972 C 0.47401 0.61212 0.08266 0.0
C2973 C 0.48205 0.663 0.10722 0.0
C2974 C 0.48585 0.6434 0.09735 0.0
C2975 C 0.49512 0.59057 0.0619 0.0
C2976 C 0.49236 0.60777 0.07556 0.0
H2977 H 0.50281 0.697 0.13881 0.0
H2978 H 0.50836 0.66419 0.12396 0.0
H2979 H 0.45645 0.63263 0.09871 0.0
H2980 H 0.47618 0.57106 0.01982 0.0
H2981 H 0.47209 0.59885 0.04292 0.0
C2982 C 0.07152 0.78945 0.84204 0.0
C2983 C 0.06092 0.77329 0.8491 0.0
C2984 C 0.0912 0.78791 0.83895 0.0
C2985 C 0.12782 0.7505 0.82846 0.0
H2986 H 0.16212 0.79599 0.83617 0.0
C2987 C 0.20953 0.78137 0.81023 0.0
C2988 C 0.20983 0.77568 0.79042 0.0
C2989 C 0.19373 0.77655 0.82173 0.0
C2990 C 0.15292 0.78294 0.83429 0.0
H2991 H 0.06282 0.7431 0.8592 0.0
H2992 H 0.09717 0.74052 0.85392 0.0
H2993 H 0.12966 0.79758 0.84874 0.0
H2994 H 0.19456 0.76016 0.76701 0.0
H2995 H 0.16684 0.75178 0.78688 0.0
H2996 H 0.15104 0.73599 0.81369 0.0
C2997 C 0.09021 0.75426 0.85051 0.0
C2998 C 0.13419 0.784 0.84125 0.0
C2999 C 0.07054 0.7558 0.85361 0.0
C3000 C 0.19479 0.76411 0.78245 0.0
C3001 C 0.1789 0.75942 0.79386 0.0
C3002 C 0.1466 0.74942 0.82151 0.0
C3003 C 0.10072 0.77019 0.84288 0.0
C3004 C 0.12127 0.76803 0.8379 0.0
C3005 C 0.17781 0.76639 0.8134 0.0
C3006 C 0.15919 0.76586 0.82385 0.0
H3007 H 0.06455 0.80312 0.83842 0.0
H3008 H 0.09884 0.80037 0.83281 0.0
H3009 H 0.1182 0.73795 0.82557 0.0
H3010 H 0.22094 0.79061 0.81651 0.0
H3011 H 0.19346 0.78187 0.8368 0.0
C3012 C 0.96374 0.29796 0.58547 0.0
C3013 C 0.97833 0.28681 0.59362 0.0
C3014 C 0.96813 0.31253 0.57208 0.0
C3015 C 0.00905 0.3451 0.5594 0.0
H3016 H 0.97142 0.36662 0.52483 0.0
C3017 C 0.01793 0.42264 0.52602 0.0
C3018 C 0.00327 0.43509 0.53294 0.0
C3019 C 0.01619 0.40195 0.52755 0.0
C3020 C 0.98218 0.36059 0.53421 0.0
H3021 H 0.00869 0.28078 0.59272 0.0
H3022 H 0.01626 0.30554 0.56867 0.0
H3023 H 0.96637 0.33339 0.53743 0.0
H3024 H 0.9749 0.4358 0.54571 0.0
H3025 H 0.97167 0.39973 0.54788 0.0
H3026 H 0.02465 0.37251 0.5563 0.0
C3027 C 0.00152 0.30368 0.5732 0.0
C3028 C 0.97924 0.34166 0.5416 0.0
C3029 C 0.99717 0.28937 0.5869 0.0
C3030 C 0.98647 0.42652 0.54041 0.0
C3031 C 0.98455 0.4059 0.54149 0.0
C3032 C 0.01215 0.36384 0.5517 0.0
C3033 C 0.98718 0.31606 0.56624 0.0
C3034 C 0.9922 0.33403 0.55501 0.0
C3035 C -0.00046 0.39347 0.53549 0.0
C3036 C 0.99837 0.37206 0.5397 0.0
H3037 H 0.94908 0.29638 0.59039 0.0
H3038 H 0.95666 0.32183 0.56733 0.0
H3039 H 0.01929 0.33999 0.56984 0.0
H3040 H 0.03104 0.42892 0.52022 0.0
H3041 H 0.02796 0.39261 0.52293 0.0
C3042 C 0.4342 0.2661 0.33247 0.0
C3043 C 0.45285 0.26994 0.3258 0.0
C3044 C 0.4184 0.2707 0.32115 0.0
C3045 C 0.4047 0.27448 0.27041 0.0
H3046 H 0.35696 0.29279 0.29295 0.0
C3047 C 0.31833 0.28092 0.25273 0.0
C3048 C 0.31511 0.26094 0.24674 0.0
C3049 C 0.33672 0.28763 0.258 0.0
C3050 C 0.37026 0.28808 0.28626 0.0
H3051 H 0.46953 0.28228 0.30228 0.0
H3052 H 0.44186 0.2901 0.28241 0.0
H3053 H 0.38611 0.29468 0.31243 0.0
H3054 H 0.3286 0.23275 0.24001 0.0
H3055 H 0.36067 0.24442 0.24891 0.0
H3056 H 0.38865 0.26701 0.24453 0.0
C3057 C 0.43952 0.28353 0.29641 0.0
C3058 C 0.3869 0.28896 0.29751 0.0
C3059 C 0.45534 0.2791 0.30784 0.0
C3060 C 0.33076 0.24826 0.24447 0.0
C3061 C 0.34914 0.25499 0.24952 0.0
C3062 C 0.38802 0.27348 0.25919 0.0
C3063 C 0.4209 0.2791 0.30283 0.0
C3064 C 0.40415 0.28154 0.28992 0.0
C3065 C 0.35217 0.27446 0.25722 0.0
C3066 C 0.37049 0.27964 0.26722 0.0
H3067 H 0.43175 0.25899 0.34618 0.0
H3068 H 0.40424 0.26685 0.32639 0.0
H3069 H 0.41777 0.26858 0.26417 0.0
H3070 H 0.30642 0.29082 0.25507 0.0
H3071 H 0.33865 0.30274 0.26378 0.0
C3072 C 0.43251 0.48851 0.32079 0.0
C3073 C 0.43891 0.48765 0.3014 0.0
C3074 C 0.44507 0.48497 0.33603 0.0
C3075 C 0.49459 0.49255 0.34859 0.0
H3076 H 0.48019 0.46491 0.39519 0.0
C3077 C 0.51718 0.48489 0.43495 0.0
C3078 C 0.51592 0.50517 0.4405 0.0
C3079 C 0.51336 0.47852 0.41569 0.0
C3080 C 0.48468 0.47233 0.38215 0.0
H3081 H 0.46332 0.48162 0.28268 0.0
H3082 H 0.48543 0.47591 0.30946 0.0
H3083 H 0.46105 0.46006 0.3656 0.0
H3084 H 0.51155 0.53483 0.43014 0.0
H3085 H 0.50545 0.52383 0.3965 0.0
H3086 H 0.51745 0.50589 0.36555 0.0
C3087 C 0.47063 0.47916 0.31278 0.0
C3088 C 0.47363 0.46968 0.36529 0.0
C3089 C 0.45795 0.48236 0.29749 0.0
C3090 C 0.51261 0.51912 0.42619 0.0
C3091 C 0.50919 0.51281 0.40693 0.0
C3092 C 0.5055 0.49541 0.36554 0.0
C3093 C 0.46436 0.48078 0.3322 0.0
C3094 C 0.4781 0.4803 0.34858 0.0
C3095 C 0.50865 0.4924 0.40168 0.0
C3096 C 0.50025 0.48586 0.38267 0.0
H3097 H 0.41794 0.49245 0.32429 0.0
H3098 H 0.43989 0.48652 0.35088 0.0
H3099 H 0.4983 0.50101 0.33594 0.0
H3100 H 0.51955 0.47382 0.44575 0.0
H3101 H 0.51308 0.4627 0.41199 0.0
C3102 C 0.25933 0.63179 0.05737 0.0
C3103 C 0.27831 0.6333 0.05062 0.0
C3104 C 0.25472 0.63735 0.0766 0.0
C3105 C 0.27633 0.64626 0.12532 0.0
H3106 H 0.23324 0.68091 0.1349 0.0
C3107 C 0.27331 0.70302 0.18844 0.0
C3108 C 0.25588 0.70755 0.19755 0.0
C3109 C 0.27401 0.68905 0.17302 0.0
C3110 C 0.24503 0.67083 0.13257 0.0
H3111 H 0.30732 0.64187 0.05891 0.0
H3112 H 0.29924 0.65173 0.09235 0.0
H3113 H 0.23853 0.66652 0.10223 0.0
H3114 H 0.22559 0.70054 0.19847 0.0
H3115 H 0.22666 0.67608 0.17087 0.0
H3116 H 0.28327 0.65124 0.15546 0.0
C3117 C 0.28796 0.64598 0.08282 0.0
C3118 C 0.24812 0.66266 0.11383 0.0
C3119 C 0.29256 0.64051 0.06358 0.0
C3120 C 0.23919 0.69716 0.19164 0.0
C3121 C 0.23981 0.68332 0.17585 0.0
C3122 C 0.27324 0.65441 0.14402 0.0
C3123 C 0.269 0.64444 0.08956 0.0
C3124 C 0.26418 0.65084 0.10988 0.0
C3125 C 0.25721 0.67946 0.16616 0.0
C3126 C 0.25795 0.66735 0.14769 0.0
H3127 H 0.24797 0.62626 0.04781 0.0
H3128 H 0.24 0.63591 0.08138 0.0
H3129 H 0.28857 0.63681 0.12282 0.0
H3130 H 0.28638 0.71084 0.19283 0.0
H3131 H 0.28758 0.68664 0.16576 0.0
C3132 C 0.08934 0.52071 0.81675 0.0
C3133 C 0.08139 0.51174 0.79982 0.0
C3134 C 0.07805 0.52416 0.83323 0.0
C3135 C 0.03861 0.502 0.85824 0.0
H3136 H 0.04375 0.54879 0.89274 0.0
C3137 C 0.01886 0.52948 0.94232 0.0
C3138 C 0.02797 0.51424 0.95211 0.0
C3139 C 0.02038 0.53055 0.92205 0.0
C3140 C 0.04184 0.53577 0.88313 0.0
H3141 H 0.05534 0.50013 0.78635 0.0
H3142 H 0.03554 0.50562 0.8156 0.0
H3143 H 0.05572 0.54988 0.85928 0.0
H3144 H 0.04501 0.48769 0.94838 0.0
H3145 H 0.04739 0.48937 0.91308 0.0
H3146 H 0.02586 0.4875 0.88247 0.0
C3147 C 0.05048 0.51012 0.81598 0.0
C3148 C 0.04877 0.53636 0.86406 0.0
C3149 C 0.06175 0.50703 0.79931 0.0
C3150 C 0.03796 0.49968 0.94124 0.0
C3151 C 0.03916 0.50053 0.92103 0.0
C3152 C 0.03192 0.50133 0.87738 0.0
C3153 C 0.05864 0.51845 0.83317 0.0
C3154 C 0.04778 0.51928 0.85167 0.0
C3155 C 0.03065 0.51612 0.91127 0.0
C3156 C 0.03406 0.51801 0.89016 0.0
H3157 H 0.10433 0.52489 0.81736 0.0
H3158 H 0.08474 0.53045 0.84633 0.0
H3159 H 0.03779 0.48859 0.84902 0.0
H3160 H 0.0111 0.54092 0.95036 0.0
H3161 H 0.01374 0.54274 0.91483 0.0
C3162 C 0.23941 0.33551 0.55766 0.0
C3163 C 0.25131 0.32649 0.54356 0.0
C3164 C 0.23159 0.32437 0.57258 0.0
C3165 C 0.24413 0.27893 0.59806 0.0
H3166 H 0.20544 0.29887 0.63393 0.0
C3167 C 0.2464 0.25585 0.67578 0.0
C3168 C 0.25025 0.2727 0.68785 0.0
C3169 C 0.23777 0.25789 0.65768 0.0
C3170 C 0.21607 0.29294 0.62391 0.0
H3171 H 0.26241 0.29844 0.53241 0.0
H3172 H 0.24765 0.27862 0.55761 0.0
H3173 H 0.20584 0.30976 0.60031 0.0
H3174 H 0.24716 0.30456 0.6915 0.0
H3175 H 0.23189 0.30826 0.65974 0.0
H3176 H 0.25457 0.26245 0.62166 0.0
C3177 C 0.24524 0.29451 0.55796 0.0
C3178 C 0.21646 0.29928 0.6047 0.0
C3179 C 0.25359 0.30579 0.54339 0.0
C3180 C 0.24396 0.29139 0.68245 0.0
C3181 C 0.23521 0.29344 0.66433 0.0
C3182 C 0.24346 0.2723 0.61702 0.0
C3183 C 0.23512 0.30383 0.57346 0.0
C3184 C 0.23118 0.2932 0.59182 0.0
C3185 C 0.233 0.27684 0.65138 0.0
C3186 C 0.23003 0.27995 0.63039 0.0
H3187 H 0.23737 0.35148 0.5581 0.0
H3188 H 0.22407 0.33231 0.58416 0.0
H3189 H 0.25588 0.27398 0.58894 0.0
H3190 H 0.25137 0.24133 0.67971 0.0
H3191 H 0.23614 0.24487 0.64801 0.0
C3192 C 0.40594 0.53796 0.18642 0.0
C3193 C 0.40365 0.52001 0.19618 0.0
C3194 C 0.41018 0.53776 0.16652 0.0
C3195 C 0.41364 0.50489 0.12183 0.0
H3196 H 0.46011 0.53547 0.11269 0.0
C3197 C 0.47451 0.47636 0.07505 0.0
C3198 C 0.48696 0.48948 0.06567 0.0
C3199 C 0.45876 0.48356 0.08536 0.0
C3200 C 0.44683 0.52725 0.11465 0.0
H3201 H 0.40262 0.48781 0.19241 0.0
H3202 H 0.4102 0.48745 0.15781 0.0
H3203 H 0.44186 0.54187 0.14227 0.0
H3204 H 0.49255 0.52027 0.05912 0.0
H3205 H 0.46489 0.53309 0.07726 0.0
H3206 H 0.41931 0.48948 0.09464 0.0
C3207 C 0.4086 0.50171 0.16546 0.0
C3208 C 0.43635 0.53089 0.13169 0.0
C3209 C 0.40443 0.5019 0.18537 0.0
C3210 C 0.48293 0.50987 0.06592 0.0
C3211 C 0.46721 0.51717 0.07646 0.0
C3212 C 0.42409 0.50128 0.10474 0.0
C3213 C 0.41211 0.51961 0.15594 0.0
C3214 C 0.42019 0.51907 0.13592 0.0
C3215 C 0.45528 0.50412 0.08678 0.0
C3216 C 0.44135 0.51171 0.10148 0.0
H3217 H 0.40523 0.55219 0.1943 0.0
H3218 H 0.4126 0.5518 0.15954 0.0
H3219 H 0.40101 0.49583 0.12451 0.0
H3220 H 0.4774 0.46056 0.07505 0.0
H3221 H 0.45011 0.47309 0.09336 0.0
C3222 C 0.29486 0.6718 0.9493 0.0
C3223 C 0.27941 0.66348 0.95948 0.0
C3224 C 0.29174 0.68543 0.93478 0.0
C3225 C 0.25338 0.69994 0.90109 0.0
H3226 H 0.29325 0.736 0.88367 0.0
C3227 C 0.24988 0.7397 0.82753 0.0
C3228 C 0.26464 0.73262 0.81537 0.0
C3229 C 0.25056 0.7368 0.84764 0.0
C3230 C 0.28188 0.72621 0.88855 0.0
H3231 H 0.24867 0.66418 0.96349 0.0
H3232 H 0.24325 0.68866 0.93879 0.0
H3233 H 0.29594 0.72123 0.91551 0.0
H3234 H 0.2921 0.71819 0.81455 0.0
H3235 H 0.29367 0.71387 0.84968 0.0
H3236 H 0.23948 0.70496 0.87394 0.0
C3237 C 0.25776 0.68407 0.94143 0.0
C3238 C 0.28348 0.71754 0.90668 0.0
C3239 C 0.26087 0.67013 0.95573 0.0
C3240 C 0.28057 0.72376 0.82367 0.0
C3241 C 0.2815 0.72138 0.84374 0.0
C3242 C 0.25161 0.70895 0.88315 0.0
C3243 C 0.27309 0.69142 0.93028 0.0
C3244 C 0.26965 0.70362 0.91287 0.0
C3245 C 0.26629 0.72736 0.85583 0.0
C3246 C 0.26618 0.72157 0.87642 0.0
H3247 H 0.30934 0.66695 0.95174 0.0
H3248 H 0.30395 0.69038 0.92642 0.0
H3249 H 0.24252 0.68916 0.90508 0.0
H3250 H 0.23738 0.74643 0.82138 0.0
H3251 H 0.23864 0.74143 0.85672 0.0
C3252 C 0.10319 0.5346 0.68516 0.0
C3253 C 0.11618 0.52338 0.69555 0.0
C3254 C 0.10493 0.536 0.665 0.0
C3255 C 0.12441 0.50702 0.62325 0.0
H3256 H 0.09769 0.54765 0.59591 0.0
C3257 C 0.07456 0.51984 0.55111 0.0
C3258 C 0.06361 0.50249 0.55382 0.0
C3259 C 0.09052 0.52405 0.56299 0.0
C3260 C 0.10577 0.53636 0.60301 0.0
H3261 H 0.14212 0.5062 0.69333 0.0
H3262 H 0.14559 0.50919 0.65823 0.0
H3263 H 0.10838 0.55452 0.62909 0.0
H3264 H 0.06158 0.4749 0.56902 0.0
H3265 H 0.08907 0.48198 0.58957 0.0
H3266 H 0.12157 0.4888 0.59724 0.0
C3267 C 0.13363 0.51634 0.66547 0.0
C3268 C 0.11159 0.54018 0.62225 0.0
C3269 C 0.13166 0.51463 0.6856 0.0
C3270 C 0.06984 0.48845 0.56687 0.0
C3271 C 0.08576 0.49249 0.57851 0.0
C3272 C 0.11897 0.50337 0.60389 0.0
C3273 C 0.11994 0.5265 0.65478 0.0
C3274 C 0.1196 0.525 0.63307 0.0
C3275 C 0.09567 0.51084 0.57753 0.0
C3276 C 0.10817 0.51738 0.59412 0.0
H3277 H 0.09114 0.54155 0.69245 0.0
H3278 H 0.09385 0.54365 0.65738 0.0
H3279 H 0.13075 0.49496 0.6309 0.0
H3280 H 0.06993 0.53082 0.54102 0.0
H3281 H 0.098 0.53819 0.5617 0.0
C3282 C 0.2849 0.33004 0.44335 0.0
C3283 C 0.27283 0.34343 0.4534 0.0
C3284 C 0.28005 0.32236 0.42486 0.0
C3285 C 0.26101 0.29816 0.39268 0.0
H3286 H 0.23959 0.33001 0.35233 0.0
C3287 C 0.24206 0.26137 0.31913 0.0
C3288 C 0.24801 0.27151 0.3026 0.0
C3289 C 0.2413 0.27124 0.33732 0.0
C3290 C 0.2456 0.32093 0.36343 0.0
H3291 H 0.24631 0.35958 0.45157 0.0
H3292 H 0.23766 0.34583 0.41921 0.0
H3293 H 0.24668 0.34537 0.38443 0.0
H3294 H 0.2569 0.30012 0.29187 0.0
H3295 H 0.25622 0.31737 0.32383 0.0
H3296 H 0.26084 0.27399 0.37176 0.0
C3297 C 0.251 0.34147 0.42568 0.0
C3298 C 0.24949 0.32969 0.38188 0.0
C3299 C 0.25592 0.34928 0.44425 0.0
C3300 C 0.25212 0.29202 0.30439 0.0
C3301 C 0.2517 0.30188 0.32272 0.0
C3302 C 0.25723 0.28947 0.37433 0.0
C3303 C 0.26291 0.3277 0.4159 0.0
C3304 C 0.25752 0.31844 0.39662 0.0
C3305 C 0.24692 0.29141 0.33952 0.0
C3306 C 0.2496 0.30073 0.35938 0.0
H3307 H 0.29817 0.32538 0.44978 0.0
H3308 H 0.2898 0.31217 0.41757 0.0
H3309 H 0.26687 0.28894 0.40377 0.0
H3310 H 0.23858 0.24558 0.31809 0.0
H3311 H 0.23697 0.26283 0.3498 0.0
C3312 C 0.33838 0.38606 0.51147 0.0
C3313 C 0.32426 0.3971 0.50234 0.0
C3314 C 0.35758 0.39213 0.51086 0.0
C3315 C 0.39197 0.42449 0.48533 0.0
H3316 H 0.41792 0.42854 0.53527 0.0
C3317 C 0.4554 0.47521 0.52185 0.0
C3318 C 0.46903 0.47414 0.5069 0.0
C3319 C 0.43983 0.46188 0.52176 0.0
C3320 C 0.41089 0.4274 0.52121 0.0
H3321 H 0.31928 0.42264 0.48468 0.0
H3322 H 0.35278 0.4332 0.48356 0.0
H3323 H 0.3863 0.41262 0.53291 0.0
H3324 H 0.47713 0.45885 0.48 0.0
H3325 H 0.45029 0.43507 0.48004 0.0
H3326 H 0.41617 0.43997 0.47377 0.0
C3327 C 0.34903 0.41982 0.49114 0.0
C3328 C 0.39287 0.41814 0.51982 0.0
C3329 C 0.32983 0.41382 0.49186 0.0
C3330 C 0.4672 0.45933 0.4921 0.0
C3331 C 0.45165 0.44601 0.49195 0.0
C3332 C 0.41002 0.43364 0.4867 0.0
C3333 C 0.36306 0.40927 0.50097 0.0
C3334 C 0.38305 0.41697 0.50194 0.0
C3335 C 0.43752 0.44748 0.50651 0.0
C3336 C 0.4195 0.43556 0.50474 0.0
H3337 H 0.33456 0.37311 0.51969 0.0
H3338 H 0.36811 0.3836 0.51839 0.0
H3339 H 0.38482 0.42365 0.47134 0.0
H3340 H 0.45637 0.48687 0.53314 0.0
H3341 H 0.42904 0.4636 0.533 0.0
C3342 C 0.82554 0.07794 0.4972 0.0
C3343 C 0.8075 0.0692 0.49337 0.0
C3344 C 0.84123 0.06612 0.5011 0.0
C3345 C 0.86087 0.0181 0.48882 0.0
H3346 H 0.89766 0.03228 0.52942 0.0
C3347 C 0.94268 0.9989 0.51593 0.0
C3348 C 0.9525 0.00368 0.49881 0.0
C3349 C 0.92281 0.00116 0.51721 0.0
C3350 C 0.88738 0.02783 0.51824 0.0
H3351 H 0.79161 0.04124 0.491 0.0
H3352 H 0.81934 0.02043 0.49723 0.0
H3353 H 0.86666 0.04859 0.52921 0.0
H3354 H 0.94902 0.01233 0.46891 0.0
H3355 H 0.91445 0.0156 0.47091 0.0
H3356 H 0.8821 0.99829 0.47713 0.0
C3357 C 0.82119 0.03648 0.49743 0.0
C3358 C 0.86972 0.03729 0.51804 0.0
C3359 C 0.80537 0.04838 0.49394 0.0
C3360 C 0.94187 0.00872 0.48238 0.0
C3361 C 0.92205 0.01051 0.4835 0.0
C3362 C 0.87867 0.00887 0.48884 0.0
C3363 C 0.8393 0.04526 0.50092 0.0
C3364 C 0.85652 0.03292 0.50302 0.0
C3365 C 0.91241 0.00762 0.50116 0.0
C3366 C 0.89229 0.01405 0.50326 0.0
H3367 H 0.82761 0.09391 0.49715 0.0
H3368 H 0.85505 0.07328 0.50358 0.0
H3369 H 0.85098 0.01453 0.47702 0.0
H3370 H 0.95042 0.99478 0.52872 0.0
H3371 H 0.91569 0.99868 0.53096 0.0
C3372 C 0.6277 0.06067 0.25619 0.0
C3373 C 0.63619 0.05281 0.27275 0.0
C3374 C 0.63067 0.08062 0.25177 0.0
C3375 C 0.65006 0.12908 0.27214 0.0
H3376 H 0.66414 0.13767 0.21842 0.0
C3377 C 0.6904 0.20025 0.25173 0.0
C3378 C 0.70736 0.19577 0.24168 0.0
C3379 C 0.67569 0.18593 0.25281 0.0
C3380 C 0.66006 0.13559 0.23344 0.0
H3381 H 0.65409 0.05991 0.29791 0.0
H3382 H 0.65977 0.09444 0.28991 0.0
H3383 H 0.64995 0.10592 0.2271 0.0
H3384 H 0.72178 0.17356 0.22362 0.0
H3385 H 0.69642 0.14866 0.22552 0.0
H3386 H 0.66166 0.15816 0.27871 0.0
C3387 C 0.65043 0.08537 0.28055 0.0
C3388 C 0.65175 0.11743 0.23842 0.0
C3389 C 0.64734 0.06547 0.28504 0.0
C3390 C 0.70886 0.17735 0.23157 0.0
C3391 C 0.6942 0.16315 0.23251 0.0
C3392 C 0.6585 0.14719 0.26718 0.0
C3393 C 0.64231 0.09314 0.26374 0.0
C3394 C 0.64743 0.11365 0.25796 0.0
C3395 C 0.67773 0.16699 0.2437 0.0
C3396 C 0.66439 0.15028 0.24792 0.0
H3397 H 0.61883 0.05138 0.24652 0.0
H3398 H 0.62402 0.08618 0.23885 0.0
H3399 H 0.64645 0.12681 0.28725 0.0
H3400 H 0.68905 0.21423 0.25982 0.0
H3401 H 0.66312 0.18937 0.26147 0.0
C3402 C 0.69517 0.91281 0.03895 0.0
C3403 C 0.70575 0.90735 0.02222 0.0
C3404 C 0.67569 0.91696 0.03757 0.0
C3405 C 0.63389 0.90789 0.0057 0.0
H3406 H 0.61454 0.95699 0.02906 0.0
C3407 C 0.57217 0.94959 0.97383 0.0
C3408 C 0.55959 0.96051 0.98589 0.0
C3409 C 0.58729 0.9394 0.98174 0.0
C3410 C 0.61956 0.94297 0.02285 0.0
H3411 H 0.70422 0.90204 0.9909 0.0
H3412 H 0.67031 0.90932 0.98849 0.0
H3413 H 0.64713 0.94688 0.03617 0.0
H3414 H 0.55198 0.96757 0.01588 0.0
H3415 H 0.57891 0.95009 0.02985 0.0
H3416 H 0.60662 0.90432 0.99182 0.0
C3417 C 0.67702 0.91019 0.00272 0.0
C3418 C 0.63825 0.93723 0.02685 0.0
C3419 C 0.69649 0.90621 0.00407 0.0
C3420 C 0.56176 0.95992 0.00619 0.0
C3421 C 0.5771 0.94981 0.01418 0.0
C3422 C 0.61523 0.91358 0.00176 0.0
C3423 C 0.6664 0.91552 0.01945 0.0
C3424 C 0.64581 0.92003 0.01772 0.0
C3425 C 0.59027 0.93984 0.00196 0.0
C3426 C 0.60814 0.93157 0.00967 0.0
H3427 H 0.70189 0.91381 0.05316 0.0
H3428 H 0.66784 0.921 0.0507 0.0
H3429 H 0.6392 0.89431 0.99883 0.0
H3430 H 0.57084 0.94951 0.95811 0.0
H3431 H 0.59726 0.93205 0.97188 0.0
C3432 C 0.36866 0.43959 0.25567 0.0
C3433 C 0.36506 0.45117 0.27269 0.0
C3434 C 0.35921 0.42126 0.25231 0.0
C3435 C 0.33036 0.38224 0.27714 0.0
H3436 H 0.31377 0.36853 0.22447 0.0
C3437 C 0.27 0.32507 0.25623 0.0
C3438 C 0.272 0.31406 0.23866 0.0
C3439 C 0.28424 0.33886 0.26224 0.0
C3440 C 0.31859 0.37193 0.23922 0.0
H3441 H 0.34853 0.45255 0.29948 0.0
H3442 H 0.33167 0.42099 0.29335 0.0
H3443 H 0.33234 0.39891 0.23081 0.0
H3444 H 0.29042 0.30795 0.21392 0.0
H3445 H 0.31547 0.33178 0.22448 0.0
H3446 H 0.31581 0.35546 0.28554 0.0
C3447 C 0.34216 0.42576 0.2828 0.0
C3448 C 0.32927 0.38941 0.24287 0.0
C3449 C 0.35173 0.444 0.28623 0.0
C3450 C 0.2888 0.31612 0.22771 0.0
C3451 C 0.30299 0.32989 0.23365 0.0
C3452 C 0.3195 0.36479 0.27349 0.0
C3453 C 0.34578 0.41412 0.2658 0.0
C3454 C 0.33518 0.39492 0.2619 0.0
C3455 C 0.30049 0.34202 0.25054 0.0
C3456 C 0.3134 0.35951 0.2545 0.0
H3457 H 0.37897 0.44454 0.24501 0.0
H3458 H 0.36262 0.4126 0.2392 0.0
H3459 H 0.33493 0.3858 0.29194 0.0
H3460 H 0.25687 0.32408 0.26456 0.0
H3461 H 0.28181 0.34809 0.27524 0.0
C3462 C 0.19604 0.61182 0.00356 0.0
C3463 C 0.20474 0.59308 0.00206 0.0
C3464 C 0.1769 0.61344 0.00935 0.0
C3465 C 0.13896 0.58526 0.03471 0.0
H3466 H 0.10366 0.61766 0.00667 0.0
C3467 C 0.05841 0.57569 0.0098 0.0
C3468 C 0.05239 0.56486 0.02583 0.0
C3469 C 0.07493 0.58764 0.0111 0.0
C3470 C 0.11332 0.60862 0.01475 0.0
H3471 H 0.20003 0.56133 0.005 0.0
H3472 H 0.16675 0.56407 0.01469 0.0
H3473 H 0.13785 0.61984 -0.0004 0.0
H3474 H 0.05683 0.5601 0.05643 0.0
H3475 H 0.08479 0.58222 0.05926 0.0
H3476 H 0.11474 0.57275 0.04872 0.0
C3477 C 0.17477 0.5776 0.01187 0.0
C3478 C 0.13296 0.60999 0.0108 0.0
C3479 C 0.19384 0.576 0.00613 0.0
C3480 C 0.06126 0.56842 0.04391 0.0
C3481 C 0.07748 0.58081 0.04538 0.0
C3482 C 0.11943 0.58374 0.03852 0.0
C3483 C 0.16613 0.59634 0.0138 0.0
C3484 C 0.14586 0.59767 0.02016 0.0
C3485 C 0.0855 0.58907 0.02857 0.0
C3486 C 0.10621 0.59478 0.02804 0.0
H3487 H 0.20409 0.62529 0.00055 0.0
H3488 H 0.17066 0.62807 0.01071 0.0
H3489 H 0.1486 0.57597 0.04256 0.0
H3490 H 0.05183 0.57293 0.99566 0.0
H3491 H 0.08047 0.59374 0.99781 0.0
C3492 C 0.69417 0.96411 0.27477 0.0
C3493 C 0.67842 0.96577 0.26227 0.0
C3494 C 0.70806 0.94979 0.27082 0.0
C3495 C 0.71906 0.9069 0.27063 0.0
H3496 H 0.7279 0.88056 0.22033 0.0
C3497 C 0.71173 0.82346 0.25977 0.0
C3498 C 0.72465 0.81277 0.2479 0.0
C3499 C 0.71256 0.84418 0.26102 0.0
C3500 C 0.72594 0.88787 0.23449 0.0
H3501 H 0.66627 0.95552 0.23455 0.0
H3502 H 0.68986 0.93023 0.22808 0.0
H3503 H 0.72004 0.91591 0.22205 0.0
H3504 H 0.7485 0.81557 0.22783 0.0
H3505 H 0.7497 0.85211 0.22983 0.0
H3506 H 0.72431 0.87877 0.283 0.0
C3507 C 0.69178 0.93998 0.24085 0.0
C3508 C 0.72128 0.90807 0.23549 0.0
C3509 C 0.67805 0.95445 0.24466 0.0
C3510 C 0.73837 0.82337 0.23715 0.0
C3511 C 0.73907 0.84424 0.23826 0.0
C3512 C 0.72379 0.88683 0.26962 0.0
C3513 C 0.7063 0.93667 0.25446 0.0
C3514 C 0.71675 0.91753 0.25351 0.0
C3515 C 0.72626 0.8548 0.25037 0.0
C3516 C 0.72622 0.87686 0.2515 0.0
H3517 H 0.69513 0.97294 0.28826 0.0
H3518 H 0.71941 0.94806 0.28131 0.0
H3519 H 0.71563 0.91351 0.28479 0.0
H3520 H 0.701 0.81585 0.26828 0.0
H3521 H 0.70222 0.85192 0.27014 0.0
C3522 C 0.8353 0.05825 0.77355 0.0
C3523 C 0.8505 0.05264 0.76123 0.0
C3524 C 0.82301 0.0734 0.76843 0.0
C3525 C 0.82123 0.11849 0.74049 0.0
H3526 H 0.76643 0.11285 0.74777 0.0
C3527 C 0.74556 0.16423 0.73471 0.0
C3528 C 0.75043 0.18123 0.74615 0.0
C3529 C 0.75887 0.14919 0.73142 0.0
C3530 C 0.78167 0.1146 0.74534 0.0
H3531 H 0.86455 0.05846 0.73372 0.0
H3532 H 0.84317 0.0851 0.72497 0.0
H3533 H 0.78689 0.08442 0.75255 0.0
H3534 H 0.77288 0.19629 0.76281 0.0
H3535 H 0.79636 0.17015 0.75693 0.0
H3536 H 0.816 0.14893 0.73388 0.0
C3537 C 0.8408 0.0777 0.73855 0.0
C3538 C 0.79339 0.09837 0.7483 0.0
C3539 C 0.85295 0.06235 0.74353 0.0
C3540 C 0.76909 0.18359 0.75335 0.0
C3541 C 0.78245 0.16854 0.75009 0.0
C3542 C 0.8095 0.13485 0.73773 0.0
C3543 C 0.82578 0.08344 0.751 0.0
C3544 C 0.8133 0.10022 0.7462 0.0
C3545 C 0.77718 0.15081 0.73982 0.0
C3546 C 0.78961 0.13312 0.74036 0.0
H3547 H 0.833 0.05108 0.78727 0.0
H3548 H 0.81162 0.07764 0.77838 0.0
H3549 H 0.83657 0.12034 0.73887 0.0
H3550 H 0.73107 0.16198 0.72938 0.0
H3551 H 0.75447 0.13578 0.72329 0.0
loop_
_geom_bond_atom_site_label_1
_geom_bond_atom_site_label_2
_geom_bond_distance
_geom_bond_site_symmetry_2
_ccdc_geom_bond_type
Mg0 O1 2.028 . S
Mg0 O7 1.986 . S
Mg0 O9 2.114 1_455 S
Mg0 O10 2.251 1_455 S
Mg0 O13 2.010 . S
O1 Mg0 2.028 . S
O1 C4 1.250 . S
O2 Mg3 2.028 . S
O2 C4 1.248 1_655 S
Mg3 O2 2.028 . S
Mg3 O8 2.032 . S
Mg3 O10 2.079 . S
C4 O1 1.250 . S
C4 O2 1.248 1_455 S
C5 O6 1.264 . S
C5 O13 1.249 . S
O6 C5 1.264 . S
O7 Mg0 1.986 . S
O7 C11 1.246 . S
O8 Mg3 2.032 . S
O8 C11 1.259 1_655 S
O9 Mg0 2.114 1_655 S
O9 C12 1.252 . S
O10 Mg0 2.251 1_655 S
O10 Mg3 2.079 . S
O10 C12 1.273 . S
C11 O7 1.246 . S
C11 O8 1.259 1_455 S
C12 O9 1.252 . S
C12 O10 1.273 . S
O13 Mg0 2.010 . S
O13 C5 1.249 . S
Mg14 O15 2.028 . S
Mg14 O21 1.986 . S
Mg14 O23 2.114 1_455 S
Mg14 O24 2.251 1_455 S
Mg14 O27 2.010 . S
O15 Mg14 2.028 . S
O15 C18 1.250 . S
O16 Mg17 2.028 . S
O16 C18 1.248 1_655 S
Mg17 O16 2.028 . S
Mg17 O22 2.032 . S
Mg17 O24 2.079 . S
C18 O15 1.250 . S
C18 O16 1.248 1_455 S
C19 O20 1.264 . S
C19 O27 1.249 . S
O20 C19 1.264 . S
O21 Mg14 1.986 . S
O21 C25 1.246 . S
O22 Mg17 2.032 . S
O22 C25 1.259 1_655 S
O23 Mg14 2.114 1_655 S
O23 C26 1.252 . S
O24 Mg14 2.251 1_655 S
O24 Mg17 2.079 . S
O24 C26 1.273 . S
C25 O21 1.246 . S
C25 O22 1.259 1_455 S
C26 O23 1.252 . S
C26 O24 1.273 . S
O27 Mg14 2.010 . S
O27 C19 1.249 . S
Mg28 O29 2.028 . S
Mg28 O35 1.986 . S
Mg28 O37 2.114 . S
Mg28 O38 2.251 . S
Mg28 O41 2.010 . S
O29 Mg28 2.028 . S
O29 C32 1.250 . S
O30 Mg31 2.028 . S
O30 C32 1.248 . S
Mg31 O30 2.028 . S
Mg31 O36 2.032 . S
Mg31 O38 2.079 . S
C32 O29 1.250 . S
C32 O30 1.248 . S
C33 O34 1.264 . S
C33 O41 1.249 . S
O34 C33 1.264 . S
O35 Mg28 1.986 . S
O35 C39 1.246 . S
O36 Mg31 2.032 . S
O36 C39 1.259 . S
O37 Mg28 2.114 . S
O37 C40 1.252 . S
O38 Mg28 2.251 . S
O38 Mg31 2.079 . S
O38 C40 1.273 . S
C39 O35 1.246 . S
C39 O36 1.259 . S
C40 O37 1.252 . S
C40 O38 1.273 . S
O41 Mg28 2.010 . S
O41 C33 1.249 . S
Mg42 O43 2.028 . S
Mg42 O49 1.986 . S
Mg42 O51 2.114 . S
Mg42 O52 2.251 . S
Mg42 O55 2.010 . S
O43 Mg42 2.028 . S
O43 C46 1.250 . S
O44 Mg45 2.028 . S
O44 C46 1.248 . S
Mg45 O44 2.028 . S
Mg45 O50 2.032 . S
Mg45 O52 2.079 . S
C46 O43 1.250 . S
C46 O44 1.248 . S
C47 O48 1.264 . S
C47 O55 1.249 . S
O48 C47 1.264 . S
O49 Mg42 1.986 . S
O49 C53 1.246 . S
O50 Mg45 2.032 . S
O50 C53 1.259 . S
O51 Mg42 2.114 . S
O51 C54 1.252 . S
O52 Mg42 2.251 . S
O52 Mg45 2.079 . S
O52 C54 1.273 . S
C53 O49 1.246 . S
C53 O50 1.259 . S
C54 O51 1.252 . S
C54 O52 1.273 . S
O55 Mg42 2.010 . S
O55 C47 1.249 . S
Mg56 O57 2.028 1_565 S
Mg56 O63 1.986 . S
Mg56 O65 2.114 1_565 S
Mg56 O66 2.251 . S
Mg56 O69 2.010 . S
O57 Mg56 2.028 1_545 S
O57 C60 1.250 . S
O58 Mg59 2.023 1_545 S
O58 C60 1.248 . S
Mg59 O58 2.023 1_565 S
Mg59 O64 2.037 . S
Mg59 O66 2.079 . S
C60 O57 1.250 . S
C60 O58 1.248 . S
C61 O62 1.264 . S
C61 O69 1.249 . S
O62 C61 1.264 . S
O63 Mg56 1.986 . S
O63 C67 1.246 . S
O64 Mg59 2.037 . S
O64 C67 1.259 . S
O65 Mg56 2.114 1_545 S
O65 C68 1.252 . S
O66 Mg56 2.251 . S
O66 Mg59 2.079 . S
O66 C68 1.273 1_565 S
C67 O63 1.246 . S
C67 O64 1.259 . S
C68 O65 1.252 . S
C68 O66 1.273 1_545 S
O69 Mg56 2.010 . S
O69 C61 1.249 . S
Mg70 O71 2.028 . S
Mg70 O77 1.986 . S
Mg70 O79 2.114 . S
Mg70 O80 2.251 . S
Mg70 O83 2.010 . S
O71 Mg70 2.028 . S
O71 C74 1.250 . S
O72 Mg73 2.028 . S
O72 C74 1.248 . S
Mg73 O72 2.028 . S
Mg73 O78 2.032 . S
Mg73 O80 2.079 . S
C74 O71 1.250 . S
C74 O72 1.248 . S
C75 O76 1.264 . S
C75 O83 1.249 . S
O76 C75 1.264 . S
O77 Mg70 1.986 . S
O77 C81 1.246 . S
O78 Mg73 2.032 . S
O78 C81 1.259 . S
O79 Mg70 2.114 . S
O79 C82 1.252 . S
O80 Mg70 2.251 . S
O80 Mg73 2.079 . S
O80 C82 1.273 . S
C81 O77 1.246 . S
C81 O78 1.259 . S
C82 O79 1.252 . S
C82 O80 1.273 . S
O83 Mg70 2.010 . S
O83 C75 1.249 . S
Mg84 O85 2.028 1_545 S
Mg84 O91 1.986 . S
Mg84 O93 2.135 . S
Mg84 O94 2.251 . S
Mg84 O97 2.010 . S
O85 Mg84 2.028 1_565 S
O85 C88 1.250 . S
O86 Mg87 2.028 1_565 S
O86 C88 1.248 . S
Mg87 O86 2.028 1_545 S
Mg87 O92 2.032 . S
Mg87 O94 2.079 . S
C88 O85 1.250 . S
C88 O86 1.248 . S
C89 O90 1.264 . S
C89 O97 1.249 . S
O90 C89 1.264 . S
O91 Mg84 1.986 . S
O91 C95 1.246 . S
O92 Mg87 2.032 . S
O92 C95 1.259 . S
O93 Mg84 2.135 . S
O93 C96 1.264 . S
O94 Mg84 2.251 . S
O94 Mg87 2.079 . S
O94 C96 1.273 . S
C95 O91 1.246 . S
C95 O92 1.259 . S
C96 O93 1.264 . S
C96 O94 1.273 . S
O97 Mg84 2.010 . S
O97 C89 1.249 . S
Mg98 O99 1.995 1_556 S
Mg98 O105 2.012 . S
Mg98 O107 2.096 1_556 S
Mg98 O108 2.250 1_556 S
Mg98 O111 2.012 . S
O99 Mg98 1.995 1_554 S
O99 C102 1.250 . S
O100 Mg101 2.028 . S
O100 C102 1.248 . S
Mg101 O100 2.028 . S
Mg101 O106 2.032 1_554 S
Mg101 O108 2.079 . S
C102 O99 1.250 . S
C102 O100 1.248 . S
C103 O104 1.264 1_554 S
C103 O111 1.249 1_554 S
O104 C103 1.264 1_556 S
O105 Mg98 2.012 . S
O105 C109 1.246 . S
O106 Mg101 2.032 1_556 S
O106 C109 1.259 . S
O107 Mg98 2.096 1_554 S
O107 C110 1.252 . S
O108 Mg98 2.250 1_554 S
O108 Mg101 2.079 . S
O108 C110 1.273 . S
C109 O105 1.246 . S
C109 O106 1.259 . S
C110 O107 1.252 . S
C110 O108 1.273 . S
O111 Mg98 2.012 . S
O111 C103 1.249 1_556 S
Mg112 O113 2.028 1_554 S
Mg112 O119 1.986 . S
Mg112 O121 2.111 . S
Mg112 O122 2.251 . S
Mg112 O125 2.010 . S
O113 Mg112 2.028 1_556 S
O113 C116 1.250 . S
O114 Mg115 2.028 1_556 S
O114 C116 1.248 . S
Mg115 O114 2.028 1_554 S
Mg115 O120 2.032 . S
Mg115 O122 2.079 . S
C116 O113 1.250 . S
C116 O114 1.248 . S
C117 O118 1.264 . S
C117 O125 1.249 . S
O118 C117 1.264 . S
O119 Mg112 1.986 . S
O119 C123 1.246 . S
O120 Mg115 2.032 . S
O120 C123 1.259 . S
O121 Mg112 2.111 . S
O121 C124 1.250 . S
O122 Mg112 2.251 . S
O122 Mg115 2.079 . S
O122 C124 1.273 . S
C123 O119 1.246 . S
C123 O120 1.259 . S
C124 O121 1.250 . S
C124 O122 1.273 . S
O125 Mg112 2.010 . S
O125 C117 1.249 . S
Mg126 O127 2.028 . S
Mg126 O133 1.986 . S
Mg126 O135 2.114 . S
Mg126 O136 2.251 . S
Mg126 O139 2.010 . S
O127 Mg126 2.028 . S
O127 C130 1.250 . S
O128 Mg129 2.028 . S
O128 C130 1.248 . S
Mg129 O128 2.028 . S
Mg129 O134 2.032 . S
Mg129 O136 2.079 . S
C130 O127 1.250 . S
C130 O128 1.248 . S
C131 O132 1.264 . S
C131 O139 1.249 . S
O132 C131 1.264 . S
O133 Mg126 1.986 . S
O133 C137 1.246 . S
O134 Mg129 2.032 . S
O134 C137 1.259 . S
O135 Mg126 2.114 . S
O135 C138 1.252 . S
O136 Mg126 2.251 . S
O136 Mg129 2.079 . S
O136 C138 1.273 . S
C137 O133 1.246 . S
C137 O134 1.259 . S
C138 O135 1.252 . S
C138 O136 1.273 . S
O139 Mg126 2.010 . S
O139 C131 1.249 . S
Mg140 O141 2.028 . S
Mg140 O147 1.986 . S
Mg140 O149 2.114 . S
Mg140 O150 2.251 . S
Mg140 O153 2.010 . S
O141 Mg140 2.028 . S
O141 C144 1.250 . S
O142 Mg143 2.028 . S
O142 C144 1.248 . S
Mg143 O142 2.028 . S
Mg143 O148 2.032 . S
Mg143 O150 2.079 . S
C144 O141 1.250 . S
C144 O142 1.248 . S
C145 O146 1.264 . S
C145 O153 1.249 . S
O146 C145 1.264 . S
O147 Mg140 1.986 . S
O147 C151 1.246 . S
O148 Mg143 2.032 . S
O148 C151 1.259 . S
O149 Mg140 2.114 . S
O149 C152 1.252 . S
O150 Mg140 2.251 . S
O150 Mg143 2.079 . S
O150 C152 1.273 . S
C151 O147 1.246 . S
C151 O148 1.259 . S
C152 O149 1.252 . S
C152 O150 1.273 . S
O153 Mg140 2.010 . S
O153 C145 1.249 . S
Mg154 O155 2.028 . S
Mg154 O161 1.986 . S
Mg154 O163 2.114 . S
Mg154 O164 2.251 . S
Mg154 O167 2.010 . S
O155 Mg154 2.028 . S
O155 C158 1.250 . S
O156 Mg157 2.028 . S
O156 C158 1.248 . S
Mg157 O156 2.028 . S
Mg157 O162 2.032 . S
Mg157 O164 2.079 . S
C158 O155 1.250 . S
C158 O156 1.248 . S
C159 O160 1.264 . S
C159 O167 1.249 . S
O160 C159 1.264 . S
O161 Mg154 1.986 . S
O161 C165 1.246 . S
O162 Mg157 2.032 . S
O162 C165 1.259 . S
O163 Mg154 2.114 . S
O163 C166 1.252 . S
O164 Mg154 2.251 . S
O164 Mg157 2.079 . S
O164 C166 1.273 . S
C165 O161 1.246 . S
C165 O162 1.259 . S
C166 O163 1.252 . S
C166 O164 1.273 . S
O167 Mg154 2.010 . S
O167 C159 1.249 . S
Mg168 O169 2.028 . S
Mg168 O175 1.986 . S
Mg168 O177 2.114 1_455 S
Mg168 O178 2.251 1_455 S
Mg168 O181 2.010 . S
O169 Mg168 2.028 . S
O169 C172 1.250 . S
O170 Mg171 2.028 . S
O170 C172 1.248 1_655 S
Mg171 O170 2.028 . S
Mg171 O176 2.032 . S
Mg171 O178 2.079 . S
C172 O169 1.250 . S
C172 O170 1.248 1_455 S
C173 O174 1.264 . S
C173 O181 1.249 . S
O174 C173 1.264 . S
O175 Mg168 1.986 . S
O175 C179 1.246 . S
O176 Mg171 2.032 . S
O176 C179 1.259 1_655 S
O177 Mg168 2.114 1_655 S
O177 C180 1.252 . S
O178 Mg168 2.251 1_655 S
O178 Mg171 2.079 . S
O178 C180 1.273 . S
C179 O175 1.246 . S
C179 O176 1.259 1_455 S
C180 O177 1.252 . S
C180 O178 1.273 . S
O181 Mg168 2.010 . S
O181 C173 1.249 . S
Mg182 O183 2.028 . S
Mg182 O189 1.986 . S
Mg182 O191 2.114 1_455 S
Mg182 O192 2.251 1_455 S
Mg182 O195 2.010 . S
O183 Mg182 2.028 . S
O183 C186 1.250 . S
O184 Mg185 2.028 . S
O184 C186 1.248 1_655 S
Mg185 O184 2.028 . S
Mg185 O190 2.032 . S
Mg185 O192 2.079 . S
C186 O183 1.250 . S
C186 O184 1.248 1_455 S
C187 O188 1.264 . S
C187 O195 1.249 . S
O188 C187 1.264 . S
O189 Mg182 1.986 . S
O189 C193 1.246 . S
O190 Mg185 2.032 . S
O190 C193 1.259 1_655 S
O191 Mg182 2.114 1_655 S
O191 C194 1.252 . S
O192 Mg182 2.251 1_655 S
O192 Mg185 2.079 . S
O192 C194 1.273 . S
C193 O189 1.246 . S
C193 O190 1.259 1_455 S
C194 O191 1.252 . S
C194 O192 1.273 . S
O195 Mg182 2.010 . S
O195 C187 1.249 . S
Mg196 O197 2.028 . S
Mg196 O203 1.986 . S
Mg196 O205 2.114 . S
Mg196 O206 2.251 . S
Mg196 O209 2.010 . S
O197 Mg196 2.028 . S
O197 C200 1.250 . S
O198 Mg199 2.028 . S
O198 C200 1.248 . S
Mg199 O198 2.028 . S
Mg199 O204 2.032 . S
Mg199 O206 2.079 . S
C200 O197 1.250 . S
C200 O198 1.248 . S
C201 O202 1.264 . S
C201 O209 1.249 . S
O202 C201 1.264 . S
O203 Mg196 1.986 . S
O203 C207 1.246 . S
O204 Mg199 2.032 . S
O204 C207 1.259 . S
O205 Mg196 2.114 . S
O205 C208 1.252 . S
O206 Mg196 2.251 . S
O206 Mg199 2.079 . S
O206 C208 1.273 . S
C207 O203 1.246 . S
C207 O204 1.259 . S
C208 O205 1.252 . S
C208 O206 1.273 . S
O209 Mg196 2.010 . S
O209 C201 1.249 . S
Mg210 O211 2.028 . S
Mg210 O217 1.986 . S
Mg210 O219 2.114 . S
Mg210 O220 2.251 . S
Mg210 O223 2.010 . S
O211 Mg210 2.028 . S
O211 C214 1.250 . S
O212 Mg213 2.028 . S
O212 C214 1.248 . S
Mg213 O212 2.028 . S
Mg213 O218 2.032 . S
Mg213 O220 2.079 . S
C214 O211 1.250 . S
C214 O212 1.248 . S
C215 O216 1.264 . S
C215 O223 1.249 . S
O216 C215 1.264 . S
O217 Mg210 1.986 . S
O217 C221 1.246 . S
O218 Mg213 2.032 . S
O218 C221 1.259 . S
O219 Mg210 2.114 . S
O219 C222 1.252 . S
O220 Mg210 2.251 . S
O220 Mg213 2.079 . S
O220 C222 1.273 . S
C221 O217 1.246 . S
C221 O218 1.259 . S
C222 O219 1.252 . S
C222 O220 1.273 . S
O223 Mg210 2.010 . S
O223 C215 1.249 . S
Mg224 O225 2.028 1_545 S
Mg224 O231 1.986 . S
Mg224 O233 2.114 1_545 S
Mg224 O234 2.251 . S
Mg224 O237 2.010 . S
O225 Mg224 2.028 1_565 S
O225 C228 1.250 . S
O226 Mg227 2.028 1_565 S
O226 C228 1.248 . S
Mg227 O226 2.028 1_545 S
Mg227 O232 2.032 . S
Mg227 O234 2.079 . S
C228 O225 1.250 . S
C228 O226 1.248 . S
C229 O230 1.264 . S
C229 O237 1.249 . S
O230 C229 1.264 . S
O231 Mg224 1.986 . S
O231 C235 1.246 . S
O232 Mg227 2.032 . S
O232 C235 1.259 . S
O233 Mg224 2.114 1_565 S
O233 C236 1.254 . S
O234 Mg224 2.251 . S
O234 Mg227 2.079 . S
O234 C236 1.270 1_545 S
C235 O231 1.246 . S
C235 O232 1.259 . S
C236 O233 1.254 . S
C236 O234 1.270 1_565 S
O237 Mg224 2.010 . S
O237 C229 1.249 . S
Mg238 O239 2.028 . S
Mg238 O245 1.986 . S
Mg238 O247 2.114 . S
Mg238 O248 2.251 . S
Mg238 O251 2.010 . S
O239 Mg238 2.028 . S
O239 C242 1.250 . S
O240 Mg241 2.028 . S
O240 C242 1.248 . S
Mg241 O240 2.028 . S
Mg241 O246 2.032 . S
Mg241 O248 2.079 . S
C242 O239 1.250 . S
C242 O240 1.248 . S
C243 O244 1.264 . S
C243 O251 1.249 . S
O244 C243 1.264 . S
O245 Mg238 1.986 . S
O245 C249 1.246 . S
O246 Mg241 2.032 . S
O246 C249 1.259 . S
O247 Mg238 2.114 . S
O247 C250 1.252 . S
O248 Mg238 2.251 . S
O248 Mg241 2.079 . S
O248 C250 1.273 . S
C249 O245 1.246 . S
C249 O246 1.259 . S
C250 O247 1.252 . S
C250 O248 1.273 . S
O251 Mg238 2.010 . S
O251 C243 1.249 . S
Mg252 O253 2.028 1_565 S
Mg252 O259 1.986 . S
Mg252 O261 2.114 1_565 S
Mg252 O262 2.251 1_565 S
Mg252 O265 2.010 . S
O253 Mg252 2.028 1_545 S
O253 C256 1.250 . S
O254 Mg255 2.028 . S
O254 C256 1.248 . S
Mg255 O254 2.028 . S
Mg255 O260 2.032 1_545 S
Mg255 O262 2.080 . S
C256 O253 1.250 . S
C256 O254 1.248 . S
C257 O258 1.264 . S
C257 O265 1.249 . S
O258 C257 1.264 . S
O259 Mg252 1.986 . S
O259 C263 1.246 . S
O260 Mg255 2.032 1_565 S
O260 C263 1.259 . S
O261 Mg252 2.114 1_545 S
O261 C264 1.252 . S
O262 Mg252 2.251 1_545 S
O262 Mg255 2.080 . S
O262 C264 1.276 . S
C263 O259 1.246 . S
C263 O260 1.259 . S
C264 O261 1.252 . S
C264 O262 1.276 . S
O265 Mg252 2.010 . S
O265 C257 1.249 . S
Mg266 O267 2.028 1_554 S
Mg266 O273 1.986 . S
Mg266 O275 2.114 . S
Mg266 O276 2.251 . S
Mg266 O279 2.010 . S
O267 Mg266 2.028 1_556 S
O267 C270 1.250 . S
O268 Mg269 2.028 1_556 S
O268 C270 1.248 . S
Mg269 O268 2.028 1_554 S
Mg269 O274 2.032 . S
Mg269 O276 2.079 . S
C270 O267 1.250 . S
C270 O268 1.248 . S
C271 O272 1.264 . S
C271 O279 1.249 . S
O272 C271 1.264 . S
O273 Mg266 1.986 . S
O273 C277 1.246 . S
O274 Mg269 2.032 . S
O274 C277 1.259 . S
O275 Mg266 2.114 . S
O275 C278 1.252 . S
O276 Mg266 2.251 . S
O276 Mg269 2.079 . S
O276 C278 1.273 . S
C277 O273 1.246 . S
C277 O274 1.259 . S
C278 O275 1.252 . S
C278 O276 1.273 . S
O279 Mg266 2.010 . S
O279 C271 1.249 . S
Mg280 O281 2.028 1_556 S
Mg280 O287 1.986 . S
Mg280 O289 2.114 1_556 S
Mg280 O290 2.251 . S
Mg280 O293 2.010 . S
O281 Mg280 2.028 1_554 S
O281 C284 1.250 . S
O282 Mg283 2.033 1_554 S
O282 C284 1.248 . S
Mg283 O282 2.033 1_556 S
Mg283 O288 2.028 . S
Mg283 O290 2.078 . S
C284 O281 1.250 . S
C284 O282 1.248 . S
C285 O286 1.264 . S
C285 O293 1.249 . S
O286 C285 1.264 . S
O287 Mg280 1.986 . S
O287 C291 1.246 . S
O288 Mg283 2.028 . S
O288 C291 1.259 . S
O289 Mg280 2.114 1_554 S
O289 C292 1.252 . S
O290 Mg280 2.251 . S
O290 Mg283 2.078 . S
O290 C292 1.273 1_556 S
C291 O287 1.246 . S
C291 O288 1.259 . S
C292 O289 1.252 . S
C292 O290 1.273 1_554 S
O293 Mg280 2.010 . S
O293 C285 1.249 . S
Mg294 O295 2.028 . S
Mg294 O301 1.986 . S
Mg294 O303 2.114 . S
Mg294 O304 2.251 . S
Mg294 O307 2.010 . S
O295 Mg294 2.028 . S
O295 C298 1.250 . S
O296 Mg297 2.028 . S
O296 C298 1.248 . S
Mg297 O296 2.028 . S
Mg297 O302 2.032 . S
Mg297 O304 2.079 . S
C298 O295 1.250 . S
C298 O296 1.248 . S
C299 O300 1.264 . S
C299 O307 1.249 . S
O300 C299 1.264 . S
O301 Mg294 1.986 . S
O301 C305 1.246 . S
O302 Mg297 2.032 . S
O302 C305 1.259 . S
O303 Mg294 2.114 . S
O303 C306 1.252 . S
O304 Mg294 2.251 . S
O304 Mg297 2.079 . S
O304 C306 1.273 . S
C305 O301 1.246 . S
C305 O302 1.259 . S
C306 O303 1.252 . S
C306 O304 1.273 . S
O307 Mg294 2.010 . S
O307 C299 1.249 . S
Mg308 O309 2.028 . S
Mg308 O315 1.986 . S
Mg308 O317 2.114 . S
Mg308 O318 2.251 . S
Mg308 O321 2.010 . S
O309 Mg308 2.028 . S
O309 C312 1.250 . S
O310 Mg311 2.028 . S
O310 C312 1.248 . S
Mg311 O310 2.028 . S
Mg311 O316 2.032 . S
Mg311 O318 2.079 . S
C312 O309 1.250 . S
C312 O310 1.248 . S
C313 O314 1.264 . S
C313 O321 1.249 . S
O314 C313 1.264 . S
O315 Mg308 1.986 . S
O315 C319 1.246 . S
O316 Mg311 2.032 . S
O316 C319 1.259 . S
O317 Mg308 2.114 . S
O317 C320 1.252 . S
O318 Mg308 2.251 . S
O318 Mg311 2.079 . S
O318 C320 1.273 . S
C319 O315 1.246 . S
C319 O316 1.259 . S
C320 O317 1.252 . S
C320 O318 1.273 . S
O321 Mg308 2.010 . S
O321 C313 1.249 . S
Mg322 O323 2.028 . S
Mg322 O329 1.986 . S
Mg322 O331 2.114 . S
Mg322 O332 2.251 . S
Mg322 O335 2.010 . S
O323 Mg322 2.028 . S
O323 C326 1.250 . S
O324 Mg325 2.028 . S
O324 C326 1.248 . S
Mg325 O324 2.028 . S
Mg325 O330 2.032 . S
Mg325 O332 2.079 . S
C326 O323 1.250 . S
C326 O324 1.248 . S
C327 O328 1.264 . S
C327 O335 1.249 . S
O328 C327 1.264 . S
O329 Mg322 1.986 . S
O329 C333 1.246 . S
O330 Mg325 2.032 . S
O330 C333 1.259 . S
O331 Mg322 2.114 . S
O331 C334 1.252 . S
O332 Mg322 2.251 . S
O332 Mg325 2.079 . S
O332 C334 1.273 . S
C333 O329 1.246 . S
C333 O330 1.259 . S
C334 O331 1.252 . S
C334 O332 1.273 . S
O335 Mg322 2.010 . S
O335 C327 1.249 . S
O336 Mn337 2.212 . S
O336 C350 1.244 . S
Mn337 O336 2.212 . S
Mn337 O340 2.109 1_445 S
Mn337 O341 2.196 1_455 S
Mn337 O343 2.148 1_454 S
Mn337 O345 2.177 1_545 S
Mn337 O355 2.246 1_545 S
O338 Mn339 2.108 1_556 S
O338 C350 1.225 1_566 S
Mn339 O338 2.108 1_554 S
Mn339 O346 2.089 . S
Mn339 O355 2.290 . S
Mn339 O356 2.251 1_554 S
O340 Mn337 2.109 1_665 S
O340 C351 1.239 . S
O341 Mn337 2.196 1_655 S
O341 Mn342 2.290 . S
O341 C352 1.278 . S
Mn342 O341 2.290 . S
Mn342 O344 2.089 . S
Mn342 O347 2.251 . S
Mn342 O348 2.087 1_554 S
O343 Mn337 2.148 1_656 S
O343 C353 1.244 . S
O344 Mn342 2.089 . S
O344 C351 1.256 1_545 S
O345 Mn337 2.177 1_565 S
O345 C354 1.239 . S
O346 Mn339 2.089 . S
O346 C354 1.256 . S
O347 Mn342 2.251 . S
O347 C352 1.241 . S
O348 Mn342 2.087 1_556 S
O348 C353 1.256 . S
C349 O355 1.278 1_556 S
C349 O356 1.241 . S
C350 O336 1.244 . S
C350 O338 1.225 1_544 S
C351 O340 1.239 . S
C351 O344 1.256 1_565 S
C352 O341 1.278 . S
C352 O347 1.241 . S
C353 O343 1.244 . S
C353 O348 1.256 . S
C354 O345 1.239 . S
C354 O346 1.256 . S
O355 Mn337 2.246 1_565 S
O355 Mn339 2.290 . S
O355 C349 1.278 1_554 S
O356 Mn339 2.251 1_556 S
O356 C349 1.241 . S
O357 Mn358 2.163 . S
O357 C371 1.244 . S
Mn358 O357 2.163 . S
Mn358 O361 2.160 . S
Mn358 O362 2.221 . S
Mn358 O364 2.163 . S
Mn358 O366 2.160 . S
Mn358 O376 2.221 . S
O359 Mn360 2.087 . S
O359 C371 1.256 . S
Mn360 O359 2.087 . S
Mn360 O367 2.089 . S
Mn360 O376 2.290 . S
Mn360 O377 2.251 . S
O361 Mn358 2.160 . S
O361 C372 1.239 . S
O362 Mn358 2.221 . S
O362 Mn363 2.290 . S
O362 C373 1.278 . S
Mn363 O362 2.290 . S
Mn363 O365 2.089 . S
Mn363 O368 2.251 . S
Mn363 O369 2.087 . S
O364 Mn358 2.163 . S
O364 C374 1.244 . S
O365 Mn363 2.089 . S
O365 C372 1.256 . S
O366 Mn358 2.160 . S
O366 C375 1.239 . S
O367 Mn360 2.089 . S
O367 C375 1.256 . S
O368 Mn363 2.251 . S
O368 C373 1.241 . S
O369 Mn363 2.087 . S
O369 C374 1.256 . S
C370 O376 1.278 . S
C370 O377 1.241 . S
C371 O357 1.244 . S
C371 O359 1.256 . S
C372 O361 1.239 . S
C372 O365 1.256 . S
C373 O362 1.278 . S
C373 O368 1.241 . S
C374 O364 1.244 . S
C374 O369 1.256 . S
C375 O366 1.239 . S
C375 O367 1.256 . S
O376 Mn358 2.221 . S
O376 Mn360 2.290 . S
O376 C370 1.278 . S
O377 Mn360 2.251 . S
O377 C370 1.241 . S
O378 Mn379 2.163 1_565 S
O378 C392 1.244 . S
Mn379 O378 2.163 1_545 S
Mn379 O382 2.160 . S
Mn379 O383 2.221 1_545 S
Mn379 O385 2.163 . S
Mn379 O387 2.160 . S
Mn379 O397 2.221 . S
O380 Mn381 2.087 . S
O380 C392 1.256 1_545 S
Mn381 O380 2.087 . S
Mn381 O388 2.089 . S
Mn381 O397 2.290 . S
Mn381 O398 2.251 . S
O382 Mn379 2.160 . S
O382 C393 1.239 . S
O383 Mn379 2.221 1_565 S
O383 Mn384 2.290 . S
O383 C394 1.278 . S
Mn384 O383 2.290 . S
Mn384 O386 2.089 1_565 S
Mn384 O389 2.251 . S
Mn384 O390 2.087 . S
O385 Mn379 2.163 . S
O385 C395 1.244 1_545 S
O386 Mn384 2.089 1_545 S
O386 C393 1.256 . S
O387 Mn379 2.160 . S
O387 C396 1.239 . S
O388 Mn381 2.089 . S
O388 C396 1.256 . S
O389 Mn384 2.251 . S
O389 C394 1.241 . S
O390 Mn384 2.087 . S
O390 C395 1.256 . S
C391 O397 1.278 . S
C391 O398 1.241 . S
C392 O378 1.244 . S
C392 O380 1.256 1_565 S
C393 O382 1.239 . S
C393 O386 1.256 . S
C394 O383 1.278 . S
C394 O389 1.241 . S
C395 O385 1.244 1_565 S
C395 O390 1.256 . S
C396 O387 1.239 . S
C396 O388 1.256 . S
O397 Mn379 2.221 . S
O397 Mn381 2.290 . S
O397 C391 1.278 . S
O398 Mn381 2.251 . S
O398 C391 1.241 . S
O399 Mn400 2.163 . S
O399 C413 1.244 . S
Mn400 O399 2.163 . S
Mn400 O403 2.160 . S
Mn400 O404 2.221 . S
Mn400 O406 2.163 . S
Mn400 O408 2.160 . S
Mn400 O418 2.221 . S
O401 Mn402 2.087 . S
O401 C413 1.256 . S
Mn402 O401 2.087 . S
Mn402 O409 2.089 . S
Mn402 O418 2.290 . S
Mn402 O419 2.251 . S
O403 Mn400 2.160 . S
O403 C414 1.239 . S
O404 Mn400 2.221 . S
O404 Mn405 2.290 . S
O404 C415 1.278 . S
Mn405 O404 2.290 . S
Mn405 O407 2.089 . S
Mn405 O410 2.251 . S
Mn405 O411 2.087 . S
O406 Mn400 2.163 . S
O406 C416 1.244 . S
O407 Mn405 2.089 . S
O407 C414 1.256 . S
O408 Mn400 2.160 . S
O408 C417 1.239 . S
O409 Mn402 2.089 . S
O409 C417 1.256 . S
O410 Mn405 2.251 . S
O410 C415 1.241 . S
O411 Mn405 2.087 . S
O411 C416 1.256 . S
C412 O418 1.278 . S
C412 O419 1.241 . S
C413 O399 1.244 . S
C413 O401 1.256 . S
C414 O403 1.239 . S
C414 O407 1.256 . S
C415 O404 1.278 . S
C415 O410 1.241 . S
C416 O406 1.244 . S
C416 O411 1.256 . S
C417 O408 1.239 . S
C417 O409 1.256 . S
O418 Mn400 2.221 . S
O418 Mn402 2.290 . S
O418 C412 1.278 . S
O419 Mn402 2.251 . S
O419 C412 1.241 . S
O420 Mn421 2.163 1_565 S
O420 C434 1.244 . S
Mn421 O420 2.163 1_545 S
Mn421 O424 2.160 . S
Mn421 O425 2.221 . S
Mn421 O427 2.163 1_455 S
Mn421 O429 2.160 1_545 S
Mn421 O439 2.221 1_545 S
O422 Mn423 2.087 . S
O422 C434 1.256 . S
Mn423 O422 2.087 . S
Mn423 O430 2.089 . S
Mn423 O439 2.290 . S
Mn423 O440 2.251 1_455 S
O424 Mn421 2.160 . S
O424 C435 1.239 . S
O425 Mn421 2.221 . S
O425 Mn426 2.290 . S
O425 C436 1.278 . S
Mn426 O425 2.290 . S
Mn426 O428 2.089 . S
Mn426 O431 2.251 . S
Mn426 O432 2.087 1_455 S
O427 Mn421 2.163 1_655 S
O427 C437 1.244 . S
O428 Mn426 2.089 . S
O428 C435 1.256 . S
O429 Mn421 2.160 1_565 S
O429 C438 1.239 . S
O430 Mn423 2.089 . S
O430 C438 1.256 . S
O431 Mn426 2.251 . S
O431 C436 1.241 . S
O432 Mn426 2.087 1_655 S
O432 C437 1.256 . S
C433 O439 1.278 1_655 S
C433 O440 1.241 . S
C434 O420 1.244 . S
C434 O422 1.256 . S
C435 O424 1.239 . S
C435 O428 1.256 . S
C436 O425 1.278 . S
C436 O431 1.241 . S
C437 O427 1.244 . S
C437 O432 1.256 . S
C438 O429 1.239 . S
C438 O430 1.256 . S
O439 Mn421 2.221 1_565 S
O439 Mn423 2.290 . S
O439 C433 1.278 1_455 S
O440 Mn423 2.251 1_655 S
O440 C433 1.241 . S
O441 Mn442 2.163 . S
O441 C455 1.244 . S
Mn442 O441 2.163 . S
Mn442 O445 2.160 . S
Mn442 O446 2.221 . S
Mn442 O448 2.163 . S
Mn442 O450 2.160 . S
Mn442 O460 2.221 . S
O443 Mn444 2.087 . S
O443 C455 1.256 . S
Mn444 O443 2.087 . S
Mn444 O451 2.089 . S
Mn444 O460 2.290 . S
Mn444 O461 2.251 . S
O445 Mn442 2.160 . S
O445 C456 1.239 . S
O446 Mn442 2.221 . S
O446 Mn447 2.290 . S
O446 C457 1.278 . S
Mn447 O446 2.290 . S
Mn447 O449 2.089 . S
Mn447 O452 2.251 . S
Mn447 O453 2.087 . S
O448 Mn442 2.163 . S
O448 C458 1.244 . S
O449 Mn447 2.089 . S
O449 C456 1.256 . S
O450 Mn442 2.160 . S
O450 C459 1.239 . S
O451 Mn444 2.089 . S
O451 C459 1.256 . S
O452 Mn447 2.251 . S
O452 C457 1.241 . S
O453 Mn447 2.087 . S
O453 C458 1.256 . S
C454 O460 1.278 . S
C454 O461 1.241 . S
C455 O441 1.244 . S
C455 O443 1.256 . S
C456 O445 1.239 . S
C456 O449 1.256 . S
C457 O446 1.278 . S
C457 O452 1.241 . S
C458 O448 1.244 . S
C458 O453 1.256 . S
C459 O450 1.239 . S
C459 O451 1.256 . S
O460 Mn442 2.221 . S
O460 Mn444 2.290 . S
O460 C454 1.278 . S
O461 Mn444 2.251 . S
O461 C454 1.241 . S
O462 Mn463 2.163 1_556 S
O462 C476 1.244 1_545 S
Mn463 O462 2.163 1_554 S
Mn463 O466 2.160 . S
Mn463 O467 2.221 . S
Mn463 O469 2.163 1_545 S
Mn463 O471 2.160 1_554 S
Mn463 O481 2.233 1_554 S
O464 Mn465 2.087 1_565 S
O464 C476 1.256 . S
Mn465 O464 2.087 1_545 S
Mn465 O472 2.089 . S
Mn465 O481 2.310 . S
Mn465 O482 2.251 1_545 S
O466 Mn463 2.160 . S
O466 C477 1.239 . S
O467 Mn463 2.221 . S
O467 Mn468 2.287 1_545 S
O467 C478 1.278 . S
Mn468 O467 2.287 1_565 S
Mn468 O470 2.088 1_565 S
Mn468 O473 2.250 1_565 S
Mn468 O474 2.093 . S
O469 Mn463 2.163 1_565 S
O469 C479 1.244 . S
O470 Mn468 2.088 1_545 S
O470 C477 1.256 . S
O471 Mn463 2.160 1_556 S
O471 C480 1.239 . S
O472 Mn465 2.089 . S
O472 C480 1.256 . S
O473 Mn468 2.250 1_545 S
O473 C478 1.241 . S
O474 Mn468 2.093 . S
O474 C479 1.256 . S
C475 O481 1.237 1_565 S
C475 O482 1.241 . S
C476 O462 1.244 1_565 S
C476 O464 1.256 . S
C477 O466 1.239 . S
C477 O470 1.256 . S
C478 O467 1.278 . S
C478 O473 1.241 . S
C479 O469 1.244 . S
C479 O474 1.256 . S
C480 O471 1.239 . S
C480 O472 1.256 . S
O481 Mn463 2.233 1_556 S
O481 Mn465 2.310 . S
O481 C475 1.237 1_545 S
O482 Mn465 2.251 1_565 S
O482 C475 1.241 . S
O483 Mn484 2.163 . S
O483 C497 1.244 . S
Mn484 O483 2.163 . S
Mn484 O487 2.160 . S
Mn484 O488 2.221 . S
Mn484 O490 2.163 . S
Mn484 O492 2.160 . S
Mn484 O502 2.221 . S
O485 Mn486 2.087 . S
O485 C497 1.256 . S
Mn486 O485 2.087 . S
Mn486 O493 2.089 . S
Mn486 O502 2.290 . S
Mn486 O503 2.251 . S
O487 Mn484 2.160 . S
O487 C498 1.239 . S
O488 Mn484 2.221 . S
O488 Mn489 2.290 . S
O488 C499 1.278 . S
Mn489 O488 2.290 . S
Mn489 O491 2.089 . S
Mn489 O494 2.251 . S
Mn489 O495 2.087 . S
O490 Mn484 2.163 . S
O490 C500 1.244 . S
O491 Mn489 2.089 . S
O491 C498 1.256 . S
O492 Mn484 2.160 . S
O492 C501 1.239 . S
O493 Mn486 2.089 . S
O493 C501 1.256 . S
O494 Mn489 2.251 . S
O494 C499 1.241 . S
O495 Mn489 2.087 . S
O495 C500 1.256 . S
C496 O502 1.278 . S
C496 O503 1.241 . S
C497 O483 1.244 . S
C497 O485 1.256 . S
C498 O487 1.239 . S
C498 O491 1.256 . S
C499 O488 1.278 . S
C499 O494 1.241 . S
C500 O490 1.244 . S
C500 O495 1.256 . S
C501 O492 1.239 . S
C501 O493 1.256 . S
O502 Mn484 2.221 . S
O502 Mn486 2.290 . S
O502 C496 1.278 . S
O503 Mn486 2.251 . S
O503 C496 1.241 . S
O504 Mn505 2.163 1_556 S
O504 C518 1.244 . S
Mn505 O504 2.163 1_554 S
Mn505 O508 2.160 . S
Mn505 O509 2.221 1_554 S
Mn505 O511 2.163 . S
Mn505 O513 2.160 . S
Mn505 O523 2.221 . S
O506 Mn507 2.087 . S
O506 C518 1.256 1_554 S
Mn507 O506 2.087 . S
Mn507 O514 2.089 . S
Mn507 O523 2.290 . S
Mn507 O524 2.251 . S
O508 Mn505 2.160 . S
O508 C519 1.239 . S
O509 Mn505 2.221 1_556 S
O509 Mn510 2.290 . S
O509 C520 1.278 . S
Mn510 O509 2.290 . S
Mn510 O512 2.089 1_556 S
Mn510 O515 2.251 . S
Mn510 O516 2.087 . S
O511 Mn505 2.163 . S
O511 C521 1.244 1_554 S
O512 Mn510 2.089 1_554 S
O512 C519 1.256 . S
O513 Mn505 2.160 . S
O513 C522 1.239 . S
O514 Mn507 2.089 . S
O514 C522 1.256 . S
O515 Mn510 2.251 . S
O515 C520 1.241 . S
O516 Mn510 2.087 . S
O516 C521 1.256 . S
C517 O523 1.278 . S
C517 O524 1.241 . S
C518 O504 1.244 . S
C518 O506 1.256 1_556 S
C519 O508 1.239 . S
C519 O512 1.256 . S
C520 O509 1.278 . S
C520 O515 1.241 . S
C521 O511 1.244 1_556 S
C521 O516 1.256 . S
C522 O513 1.239 . S
C522 O514 1.256 . S
O523 Mn505 2.221 . S
O523 Mn507 2.290 . S
O523 C517 1.278 . S
O524 Mn507 2.251 . S
O524 C517 1.241 . S
O525 Mn526 2.163 . S
O525 C539 1.244 . S
Mn526 O525 2.163 . S
Mn526 O529 2.160 . S
Mn526 O530 2.221 . S
Mn526 O532 2.163 . S
Mn526 O534 2.160 . S
Mn526 O544 2.221 . S
O527 Mn528 2.087 . S
O527 C539 1.256 . S
Mn528 O527 2.087 . S
Mn528 O535 2.089 . S
Mn528 O544 2.290 . S
Mn528 O545 2.251 . S
O529 Mn526 2.160 . S
O529 C540 1.239 . S
O530 Mn526 2.221 . S
O530 Mn531 2.290 . S
O530 C541 1.278 . S
Mn531 O530 2.290 . S
Mn531 O533 2.089 . S
Mn531 O536 2.251 . S
Mn531 O537 2.087 . S
O532 Mn526 2.163 . S
O532 C542 1.244 . S
O533 Mn531 2.089 . S
O533 C540 1.256 . S
O534 Mn526 2.160 . S
O534 C543 1.239 . S
O535 Mn528 2.089 . S
O535 C543 1.256 . S
O536 Mn531 2.251 . S
O536 C541 1.241 . S
O537 Mn531 2.087 . S
O537 C542 1.256 . S
C538 O544 1.278 . S
C538 O545 1.241 . S
C539 O525 1.244 . S
C539 O527 1.256 . S
C540 O529 1.239 . S
C540 O533 1.256 . S
C541 O530 1.278 . S
C541 O536 1.241 . S
C542 O532 1.244 . S
C542 O537 1.256 . S
C543 O534 1.239 . S
C543 O535 1.256 . S
O544 Mn526 2.221 . S
O544 Mn528 2.290 . S
O544 C538 1.278 . S
O545 Mn528 2.251 . S
O545 C538 1.241 . S
O546 Mn547 2.163 1_655 S
O546 C560 1.244 . S
Mn547 O546 2.163 1_455 S
Mn547 O550 2.160 . S
Mn547 O551 2.221 1_455 S
Mn547 O553 2.163 . S
Mn547 O555 2.160 . S
Mn547 O565 2.221 . S
O548 Mn549 2.087 . S
O548 C560 1.256 1_455 S
Mn549 O548 2.087 . S
Mn549 O556 2.089 . S
Mn549 O565 2.290 . S
Mn549 O566 2.251 . S
O550 Mn547 2.160 . S
O550 C561 1.239 . S
O551 Mn547 2.221 1_655 S
O551 Mn552 2.290 . S
O551 C562 1.278 . S
Mn552 O551 2.290 . S
Mn552 O554 2.089 . S
Mn552 O557 2.251 . S
Mn552 O558 2.087 . S
O553 Mn547 2.163 . S
O553 C563 1.244 1_455 S
O554 Mn552 2.089 . S
O554 C561 1.255 1_655 S
O555 Mn547 2.160 . S
O555 C564 1.239 . S
O556 Mn549 2.089 . S
O556 C564 1.256 . S
O557 Mn552 2.251 . S
O557 C562 1.241 . S
O558 Mn552 2.087 . S
O558 C563 1.256 . S
C559 O565 1.278 . S
C559 O566 1.241 . S
C560 O546 1.244 . S
C560 O548 1.256 1_655 S
C561 O550 1.239 . S
C561 O554 1.255 1_455 S
C562 O551 1.278 . S
C562 O557 1.241 . S
C563 O553 1.244 1_655 S
C563 O558 1.256 . S
C564 O555 1.239 . S
C564 O556 1.256 . S
O565 Mn547 2.221 . S
O565 Mn549 2.290 . S
O565 C559 1.278 . S
O566 Mn549 2.251 . S
O566 C559 1.241 . S
O567 Mn568 2.163 . S
O567 C581 1.244 . S
Mn568 O567 2.163 . S
Mn568 O571 2.160 . S
Mn568 O572 2.221 . S
Mn568 O574 2.163 . S
Mn568 O576 2.160 . S
Mn568 O586 2.221 . S
O569 Mn570 2.087 . S
O569 C581 1.256 . S
Mn570 O569 2.087 . S
Mn570 O577 2.089 . S
Mn570 O586 2.290 . S
Mn570 O587 2.251 . S
O571 Mn568 2.160 . S
O571 C582 1.239 . S
O572 Mn568 2.221 . S
O572 Mn573 2.290 . S
O572 C583 1.278 . S
Mn573 O572 2.290 . S
Mn573 O575 2.089 . S
Mn573 O578 2.251 . S
Mn573 O579 2.087 . S
O574 Mn568 2.163 . S
O574 C584 1.244 . S
O575 Mn573 2.089 . S
O575 C582 1.256 . S
O576 Mn568 2.160 . S
O576 C585 1.239 . S
O577 Mn570 2.089 . S
O577 C585 1.256 . S
O578 Mn573 2.251 . S
O578 C583 1.241 . S
O579 Mn573 2.087 . S
O579 C584 1.256 . S
C580 O586 1.278 . S
C580 O587 1.241 . S
C581 O567 1.244 . S
C581 O569 1.256 . S
C582 O571 1.239 . S
C582 O575 1.256 . S
C583 O572 1.278 . S
C583 O578 1.241 . S
C584 O574 1.244 . S
C584 O579 1.256 . S
C585 O576 1.239 . S
C585 O577 1.256 . S
O586 Mn568 2.221 . S
O586 Mn570 2.290 . S
O586 C580 1.278 . S
O587 Mn570 2.251 . S
O587 C580 1.241 . S
O588 Mn589 2.163 . S
O588 C602 1.244 . S
Mn589 O588 2.163 . S
Mn589 O592 2.160 . S
Mn589 O593 2.221 . S
Mn589 O595 2.163 . S
Mn589 O597 2.160 . S
Mn589 O607 2.221 . S
O590 Mn591 2.087 . S
O590 C602 1.256 . S
Mn591 O590 2.087 . S
Mn591 O598 2.089 . S
Mn591 O607 2.290 . S
Mn591 O608 2.251 . S
O592 Mn589 2.160 . S
O592 C603 1.239 . S
O593 Mn589 2.221 . S
O593 Mn594 2.290 . S
O593 C604 1.278 . S
Mn594 O593 2.290 . S
Mn594 O596 2.089 . S
Mn594 O599 2.251 . S
Mn594 O600 2.087 . S
O595 Mn589 2.163 . S
O595 C605 1.244 . S
O596 Mn594 2.089 . S
O596 C603 1.256 . S
O597 Mn589 2.160 . S
O597 C606 1.239 . S
O598 Mn591 2.089 . S
O598 C606 1.256 . S
O599 Mn594 2.251 . S
O599 C604 1.241 . S
O600 Mn594 2.087 . S
O600 C605 1.256 . S
C601 O607 1.278 . S
C601 O608 1.241 . S
C602 O588 1.244 . S
C602 O590 1.256 . S
C603 O592 1.239 . S
C603 O596 1.256 . S
C604 O593 1.278 . S
C604 O599 1.241 . S
C605 O595 1.244 . S
C605 O600 1.256 . S
C606 O597 1.239 . S
C606 O598 1.256 . S
O607 Mn589 2.221 . S
O607 Mn591 2.290 . S
O607 C601 1.278 . S
O608 Mn591 2.251 . S
O608 C601 1.241 . S
O609 Mn610 2.163 . S
O609 C623 1.244 . S
Mn610 O609 2.163 . S
Mn610 O613 2.160 . S
Mn610 O614 2.221 . S
Mn610 O616 2.163 . S
Mn610 O618 2.160 . S
Mn610 O628 2.221 . S
O611 Mn612 2.087 . S
O611 C623 1.256 . S
Mn612 O611 2.087 . S
Mn612 O619 2.089 . S
Mn612 O628 2.290 . S
Mn612 O629 2.251 . S
O613 Mn610 2.160 . S
O613 C624 1.239 . S
O614 Mn610 2.221 . S
O614 Mn615 2.290 . S
O614 C625 1.278 . S
Mn615 O614 2.290 . S
Mn615 O617 2.089 . S
Mn615 O620 2.251 . S
Mn615 O621 2.087 . S
O616 Mn610 2.163 . S
O616 C626 1.244 . S
O617 Mn615 2.089 . S
O617 C624 1.256 . S
O618 Mn610 2.160 . S
O618 C627 1.239 . S
O619 Mn612 2.089 . S
O619 C627 1.256 . S
O620 Mn615 2.251 . S
O620 C625 1.241 . S
O621 Mn615 2.087 . S
O621 C626 1.256 . S
C622 O628 1.278 . S
C622 O629 1.241 . S
C623 O609 1.244 . S
C623 O611 1.256 . S
C624 O613 1.239 . S
C624 O617 1.256 . S
C625 O614 1.278 . S
C625 O620 1.241 . S
C626 O616 1.244 . S
C626 O621 1.256 . S
C627 O618 1.239 . S
C627 O619 1.256 . S
O628 Mn610 2.221 . S
O628 Mn612 2.290 . S
O628 C622 1.278 . S
O629 Mn612 2.251 . S
O629 C622 1.241 . S
O630 Mn631 2.163 . S
O630 C644 1.244 . S
Mn631 O630 2.163 . S
Mn631 O634 2.160 . S
Mn631 O635 2.221 . S
Mn631 O637 2.163 . S
Mn631 O639 2.160 . S
Mn631 O649 2.221 . S
O632 Mn633 2.087 . S
O632 C644 1.256 . S
Mn633 O632 2.087 . S
Mn633 O640 2.089 . S
Mn633 O649 2.290 . S
Mn633 O650 2.251 . S
O634 Mn631 2.160 . S
O634 C645 1.239 . S
O635 Mn631 2.221 . S
O635 Mn636 2.290 . S
O635 C646 1.278 . S
Mn636 O635 2.290 . S
Mn636 O638 2.089 . S
Mn636 O641 2.251 . S
Mn636 O642 2.087 . S
O637 Mn631 2.163 . S
O637 C647 1.244 . S
O638 Mn636 2.089 . S
O638 C645 1.256 . S
O639 Mn631 2.160 . S
O639 C648 1.239 . S
O640 Mn633 2.089 . S
O640 C648 1.256 . S
O641 Mn636 2.251 . S
O641 C646 1.241 . S
O642 Mn636 2.087 . S
O642 C647 1.256 . S
C643 O649 1.278 . S
C643 O650 1.241 . S
C644 O630 1.244 . S
C644 O632 1.256 . S
C645 O634 1.239 . S
C645 O638 1.256 . S
C646 O635 1.278 . S
C646 O641 1.241 . S
C647 O637 1.244 . S
C647 O642 1.256 . S
C648 O639 1.239 . S
C648 O640 1.256 . S
O649 Mn631 2.221 . S
O649 Mn633 2.290 . S
O649 C643 1.278 . S
O650 Mn633 2.251 . S
O650 C643 1.241 . S
O651 Mn652 2.160 1_656 S
O651 C665 1.247 . S
Mn652 O651 2.160 1_454 S
Mn652 O655 2.160 . S
Mn652 O656 2.221 . S
Mn652 O658 2.163 1_554 S
Mn652 O660 2.159 1_455 S
Mn652 O670 2.221 1_454 S
O653 Mn654 2.087 1_556 S
O653 C665 1.256 . S
Mn654 O653 2.087 1_554 S
Mn654 O661 2.089 . S
Mn654 O670 2.290 1_554 S
Mn654 O671 2.251 1_554 S
O655 Mn652 2.160 . S
O655 C666 1.239 . S
O656 Mn652 2.221 . S
O656 Mn657 2.290 1_554 S
O656 C667 1.278 . S
Mn657 O656 2.290 1_556 S
Mn657 O659 2.088 1_556 S
Mn657 O662 2.251 1_556 S
Mn657 O663 2.087 . S
O658 Mn652 2.163 1_556 S
O658 C668 1.244 . S
O659 Mn657 2.088 1_554 S
O659 C666 1.258 . S
O660 Mn652 2.159 1_655 S
O660 C669 1.241 . S
O661 Mn654 2.089 . S
O661 C669 1.256 . S
O662 Mn657 2.251 1_554 S
O662 C667 1.241 . S
O663 Mn657 2.087 . S
O663 C668 1.256 . S
C664 O670 1.278 . S
C664 O671 1.241 . S
C665 O651 1.247 . S
C665 O653 1.256 . S
C666 O655 1.239 . S
C666 O659 1.258 . S
C667 O656 1.278 . S
C667 O662 1.241 . S
C668 O658 1.244 . S
C668 O663 1.256 . S
C669 O660 1.241 . S
C669 O661 1.256 . S
O670 Mn652 2.221 1_656 S
O670 Mn654 2.290 1_556 S
O670 C664 1.278 . S
O671 Mn654 2.251 1_556 S
O671 C664 1.241 . S
C672 C673 1.349 . S
C672 C674 1.327 . S
C672 H697 0.950 . S
C673 C672 1.349 . S
C673 C689 1.349 . S
C674 C672 1.327 . S
C674 C693 1.429 . S
C674 H698 0.950 . S
C675 C692 1.573 1_455 S
C675 C694 1.373 . S
C675 H699 0.947 1_455 S
H676 C680 0.949 . S
C677 C678 1.349 . S
C677 C679 1.327 . S
C677 H700 0.950 . S
C678 C677 1.349 . S
C678 C690 1.347 1_655 S
C679 C677 1.327 . S
C679 C695 1.429 1_655 S
C679 H701 0.950 . S
C680 H676 0.949 . S
C680 C688 1.574 . S
C680 C696 1.368 . S
H681 C689 0.950 . S
H682 C687 0.950 . S
H683 C688 0.949 . S
H684 C690 0.952 . S
H685 C691 0.950 . S
H686 C692 0.953 . S
C687 H682 0.950 . S
C687 C689 1.327 . S
C687 C693 1.429 . S
C688 C680 1.574 . S
C688 H683 0.949 . S
C688 C694 1.368 . S
C689 C673 1.349 . S
C689 H681 0.950 . S
C689 C687 1.327 . S
C690 C678 1.347 1_455 S
C690 H684 0.952 . S
C690 C691 1.328 . S
C691 H685 0.950 . S
C691 C690 1.328 . S
C691 C695 1.428 . S
C692 C675 1.573 1_655 S
C692 H686 0.953 . S
C692 C696 1.366 1_655 S
C693 C674 1.429 . S
C693 C687 1.429 . S
C693 C694 1.523 . S
C694 C675 1.373 . S
C694 C688 1.368 . S
C694 C693 1.523 . S
C695 C679 1.429 1_455 S
C695 C691 1.428 . S
C695 C696 1.523 . S
C696 C680 1.368 . S
C696 C692 1.366 1_455 S
C696 C695 1.523 . S
H697 C672 0.950 . S
H698 C674 0.950 . S
H699 C675 0.947 1_655 S
H700 C677 0.950 . S
H701 C679 0.950 . S
C702 C703 1.349 . S
C702 C704 1.327 . S
C702 H727 0.950 . S
C703 C702 1.349 . S
C703 C719 1.349 . S
C704 C702 1.327 . S
C704 C723 1.429 . S
C704 H728 0.950 . S
C705 C722 1.574 . S
C705 C724 1.368 . S
C705 H729 0.949 . S
H706 C710 0.949 . S
C707 C708 1.349 . S
C707 C709 1.327 . S
C707 H730 0.950 . S
C708 C707 1.349 . S
C708 C720 1.349 . S
C709 C707 1.327 . S
C709 C725 1.429 . S
C709 H731 0.950 . S
C710 H706 0.949 . S
C710 C718 1.574 . S
C710 C726 1.368 . S
H711 C719 0.950 . S
H712 C717 0.950 . S
H713 C718 0.949 . S
H714 C720 0.950 . S
H715 C721 0.950 . S
H716 C722 0.949 . S
C717 H712 0.950 . S
C717 C719 1.327 . S
C717 C723 1.429 . S
C718 C710 1.574 . S
C718 H713 0.949 . S
C718 C724 1.368 . S
C719 C703 1.349 . S
C719 H711 0.950 . S
C719 C717 1.327 . S
C720 C708 1.349 . S
C720 H714 0.950 . S
C720 C721 1.327 . S
C721 H715 0.950 . S
C721 C720 1.327 . S
C721 C725 1.429 . S
C722 C705 1.574 . S
C722 H716 0.949 . S
C722 C726 1.368 . S
C723 C704 1.429 . S
C723 C717 1.429 . S
C723 C724 1.523 . S
C724 C705 1.368 . S
C724 C718 1.368 . S
C724 C723 1.523 . S
C725 C709 1.429 . S
C725 C721 1.429 . S
C725 C726 1.523 . S
C726 C710 1.368 . S
C726 C722 1.368 . S
C726 C725 1.523 . S
H727 C702 0.950 . S
H728 C704 0.950 . S
H729 C705 0.949 . S
H730 C707 0.950 . S
H731 C709 0.950 . S
C732 C733 1.349 . S
C732 C734 1.327 . S
C732 H757 0.950 . S
C733 C732 1.349 . S
C733 C749 1.349 . S
C734 C732 1.327 . S
C734 C753 1.429 . S
C734 H758 0.950 . S
C735 C752 1.574 . S
C735 C754 1.368 . S
C735 H759 0.949 . S
H736 C740 0.949 . S
C737 C738 1.349 . S
C737 C739 1.327 . S
C737 H760 0.950 . S
C738 C737 1.349 . S
C738 C750 1.349 . S
C739 C737 1.327 . S
C739 C755 1.429 . S
C739 H761 0.950 . S
C740 H736 0.949 . S
C740 C748 1.574 . S
C740 C756 1.368 . S
H741 C749 0.950 . S
H742 C747 0.950 . S
H743 C748 0.949 . S
H744 C750 0.950 . S
H745 C751 0.950 . S
H746 C752 0.949 . S
C747 H742 0.950 . S
C747 C749 1.327 . S
C747 C753 1.429 . S
C748 C740 1.574 . S
C748 H743 0.949 . S
C748 C754 1.368 . S
C749 C733 1.349 . S
C749 H741 0.950 . S
C749 C747 1.327 . S
C750 C738 1.349 . S
C750 H744 0.950 . S
C750 C751 1.327 . S
C751 H745 0.950 . S
C751 C750 1.327 . S
C751 C755 1.429 . S
C752 C735 1.574 . S
C752 H746 0.949 . S
C752 C756 1.368 . S
C753 C734 1.429 . S
C753 C747 1.429 . S
C753 C754 1.523 . S
C754 C735 1.368 . S
C754 C748 1.368 . S
C754 C753 1.523 . S
C755 C739 1.429 . S
C755 C751 1.429 . S
C755 C756 1.523 . S
C756 C740 1.368 . S
C756 C752 1.368 . S
C756 C755 1.523 . S
H757 C732 0.950 . S
H758 C734 0.950 . S
H759 C735 0.949 . S
H760 C737 0.950 . S
H761 C739 0.950 . S
C762 C763 1.349 . S
C762 C764 1.327 . S
C762 H787 0.950 . S
C763 C762 1.349 . S
C763 C779 1.349 . S
C764 C762 1.327 . S
C764 C783 1.429 . S
C764 H788 0.950 . S
C765 C782 1.574 . S
C765 C784 1.368 . S
C765 H789 0.949 . S
H766 C770 0.949 . S
C767 C768 1.349 . S
C767 C769 1.327 . S
C767 H790 0.950 . S
C768 C767 1.349 . S
C768 C780 1.349 . S
C769 C767 1.327 . S
C769 C785 1.429 . S
C769 H791 0.950 . S
C770 H766 0.949 . S
C770 C778 1.574 . S
C770 C786 1.368 . S
H771 C779 0.950 . S
H772 C777 0.950 . S
H773 C778 0.949 . S
H774 C780 0.950 . S
H775 C781 0.950 . S
H776 C782 0.949 . S
C777 H772 0.950 . S
C777 C779 1.327 . S
C777 C783 1.429 . S
C778 C770 1.574 . S
C778 H773 0.949 . S
C778 C784 1.368 . S
C779 C763 1.349 . S
C779 H771 0.950 . S
C779 C777 1.327 . S
C780 C768 1.349 . S
C780 H774 0.950 . S
C780 C781 1.327 . S
C781 H775 0.950 . S
C781 C780 1.327 . S
C781 C785 1.429 . S
C782 C765 1.574 . S
C782 H776 0.949 . S
C782 C786 1.368 . S
C783 C764 1.429 . S
C783 C777 1.429 . S
C783 C784 1.523 . S
C784 C765 1.368 . S
C784 C778 1.368 . S
C784 C783 1.523 . S
C785 C769 1.429 . S
C785 C781 1.429 . S
C785 C786 1.523 . S
C786 C770 1.368 . S
C786 C782 1.368 . S
C786 C785 1.523 . S
H787 C762 0.950 . S
H788 C764 0.950 . S
H789 C765 0.949 . S
H790 C767 0.950 . S
H791 C769 0.950 . S
C792 C793 1.349 . S
C792 C794 1.328 . S
C792 H817 0.950 1_455 S
C793 C792 1.349 . S
C793 C809 1.349 . S
C794 C792 1.328 . S
C794 C813 1.436 . S
C794 H818 0.941 1_455 S
C795 C812 1.574 . S
C795 C814 1.368 . S
C795 H819 0.949 . S
H796 C800 0.949 . S
C797 C798 1.349 . S
C797 C799 1.327 . S
C797 H820 0.950 . S
C798 C797 1.349 . S
C798 C810 1.349 1_455 S
C799 C797 1.327 . S
C799 C815 1.429 . S
C799 H821 0.950 . S
C800 H796 0.949 . S
C800 C808 1.574 . S
C800 C816 1.368 1_655 S
H801 C809 0.950 . S
H802 C807 0.950 . S
H803 C808 0.949 . S
H804 C810 0.950 . S
H805 C811 0.950 . S
H806 C812 0.949 . S
C807 H802 0.950 . S
C807 C809 1.327 . S
C807 C813 1.429 . S
C808 C800 1.574 . S
C808 H803 0.949 . S
C808 C814 1.368 1_655 S
C809 C793 1.349 . S
C809 H801 0.950 . S
C809 C807 1.327 . S
C810 C798 1.349 1_655 S
C810 H804 0.950 . S
C810 C811 1.327 . S
C811 H805 0.950 . S
C811 C810 1.327 . S
C811 C815 1.429 1_655 S
C812 C795 1.574 . S
C812 H806 0.949 . S
C812 C816 1.368 . S
C813 C794 1.436 . S
C813 C807 1.429 . S
C813 C814 1.523 . S
C814 C795 1.368 . S
C814 C808 1.368 1_455 S
C814 C813 1.523 . S
C815 C799 1.429 . S
C815 C811 1.429 1_455 S
C815 C816 1.523 . S
C816 C800 1.368 1_455 S
C816 C812 1.368 . S
C816 C815 1.523 . S
H817 C792 0.950 1_655 S
H818 C794 0.941 1_655 S
H819 C795 0.949 . S
H820 C797 0.950 . S
H821 C799 0.950 . S
C822 C823 1.349 . S
C822 C824 1.327 . S
C822 H847 0.950 . S
C823 C822 1.349 . S
C823 C839 1.349 . S
C824 C822 1.327 . S
C824 C843 1.429 . S
C824 H848 0.950 . S
C825 C842 1.574 . S
C825 C844 1.368 . S
C825 H849 0.949 . S
H826 C830 0.949 . S
C827 C828 1.349 . S
C827 C829 1.327 . S
C827 H850 0.950 . S
C828 C827 1.349 . S
C828 C840 1.349 . S
C829 C827 1.327 . S
C829 C845 1.429 . S
C829 H851 0.950 . S
C830 H826 0.949 . S
C830 C838 1.574 . S
C830 C846 1.368 . S
H831 C839 0.950 . S
H832 C837 0.950 . S
H833 C838 0.949 . S
H834 C840 0.950 . S
H835 C841 0.950 . S
H836 C842 0.949 . S
C837 H832 0.950 . S
C837 C839 1.327 . S
C837 C843 1.429 . S
C838 C830 1.574 . S
C838 H833 0.949 . S
C838 C844 1.368 . S
C839 C823 1.349 . S
C839 H831 0.950 . S
C839 C837 1.327 . S
C840 C828 1.349 . S
C840 H834 0.950 . S
C840 C841 1.327 . S
C841 H835 0.950 . S
C841 C840 1.327 . S
C841 C845 1.429 . S
C842 C825 1.574 . S
C842 H836 0.949 . S
C842 C846 1.368 . S
C843 C824 1.429 . S
C843 C837 1.429 . S
C843 C844 1.523 . S
C844 C825 1.368 . S
C844 C838 1.368 . S
C844 C843 1.523 . S
C845 C829 1.429 . S
C845 C841 1.429 . S
C845 C846 1.523 . S
C846 C830 1.368 . S
C846 C842 1.368 . S
C846 C845 1.523 . S
H847 C822 0.950 . S
H848 C824 0.950 . S
H849 C825 0.949 . S
H850 C827 0.950 . S
H851 C829 0.950 . S
C852 C853 1.349 . S
C852 C854 1.327 . S
C852 H877 0.950 . S
C853 C852 1.349 . S
C853 C869 1.349 . S
C854 C852 1.327 . S
C854 C873 1.429 . S
C854 H878 0.950 . S
C855 C872 1.574 . S
C855 C874 1.368 . S
C855 H879 0.949 . S
H856 C860 0.949 . S
C857 C858 1.349 . S
C857 C859 1.327 . S
C857 H880 0.997 . S
C858 C857 1.349 . S
C858 C870 1.349 . S
C859 C857 1.327 . S
C859 C875 1.429 . S
C859 H881 0.950 . S
C860 H856 0.949 . S
C860 C868 1.574 . S
C860 C876 1.368 . S
H861 C869 0.950 . S
H862 C867 0.950 . S
H863 C868 0.949 . S
H864 C870 0.950 . S
H865 C871 0.950 . S
H866 C872 0.949 . S
C867 H862 0.950 . S
C867 C869 1.327 . S
C867 C873 1.429 . S
C868 C860 1.574 . S
C868 H863 0.949 . S
C868 C874 1.368 . S
C869 C853 1.349 . S
C869 H861 0.950 . S
C869 C867 1.327 . S
C870 C858 1.349 . S
C870 H864 0.950 . S
C870 C871 1.327 . S
C871 H865 0.950 . S
C871 C870 1.327 . S
C871 C875 1.429 . S
C872 C855 1.574 . S
C872 H866 0.949 . S
C872 C876 1.368 . S
C873 C854 1.429 . S
C873 C867 1.429 . S
C873 C874 1.523 . S
C874 C855 1.368 . S
C874 C868 1.368 . S
C874 C873 1.523 . S
C875 C859 1.429 . S
C875 C871 1.429 . S
C875 C876 1.523 . S
C876 C860 1.368 . S
C876 C872 1.368 . S
C876 C875 1.523 . S
H877 C852 0.950 . S
H878 C854 0.950 . S
H879 C855 0.949 . S
H880 C857 0.997 . S
H881 C859 0.950 . S
C882 C883 1.349 . S
C882 C884 1.327 . S
C882 H907 0.950 . S
C883 C882 1.349 . S
C883 C899 1.349 . S
C884 C882 1.327 . S
C884 C903 1.429 . S
C884 H908 0.950 . S
C885 C902 1.574 . S
C885 C904 1.368 . S
C885 H909 0.949 . S
H886 C890 0.949 . S
C887 C888 1.349 . S
C887 C889 1.327 . S
C887 H910 0.950 . S
C888 C887 1.349 . S
C888 C900 1.349 . S
C889 C887 1.327 . S
C889 C905 1.429 . S
C889 H911 0.950 . S
C890 H886 0.949 . S
C890 C898 1.574 . S
C890 C906 1.368 . S
H891 C899 0.950 . S
H892 C897 0.950 . S
H893 C898 0.949 . S
H894 C900 0.950 . S
H895 C901 0.950 . S
H896 C902 0.949 . S
C897 H892 0.950 . S
C897 C899 1.327 . S
C897 C903 1.429 . S
C898 C890 1.574 . S
C898 H893 0.949 . S
C898 C904 1.368 . S
C899 C883 1.349 . S
C899 H891 0.950 . S
C899 C897 1.327 . S
C900 C888 1.349 . S
C900 H894 0.950 . S
C900 C901 1.327 . S
C901 H895 0.950 . S
C901 C900 1.327 . S
C901 C905 1.429 . S
C902 C885 1.574 . S
C902 H896 0.949 . S
C902 C906 1.368 . S
C903 C884 1.429 . S
C903 C897 1.429 . S
C903 C904 1.523 . S
C904 C885 1.368 . S
C904 C898 1.368 . S
C904 C903 1.523 . S
C905 C889 1.429 . S
C905 C901 1.429 . S
C905 C906 1.523 . S
C906 C890 1.368 . S
C906 C902 1.368 . S
C906 C905 1.523 . S
H907 C882 0.950 . S
H908 C884 0.950 . S
H909 C885 0.949 . S
H910 C887 0.950 . S
H911 C889 0.950 . S
C912 C913 1.349 . S
C912 C914 1.327 . S
C912 H937 0.950 . S
C913 C912 1.349 . S
C913 C929 1.349 1_545 S
C914 C912 1.327 . S
C914 C933 1.429 . S
C914 H938 0.950 . S
C915 C932 1.574 . S
C915 C934 1.336 1_565 S
C915 H939 0.949 . S
H916 C920 0.949 . S
C917 C918 1.349 . S
C917 C919 1.327 . S
C917 H940 0.950 . S
C918 C917 1.349 . S
C918 C930 1.349 1_565 S
C919 C917 1.327 . S
C919 C935 1.429 . S
C919 H941 0.950 . S
C920 H916 0.949 . S
C920 C928 1.574 . S
C920 C936 1.368 1_545 S
H921 C929 0.950 . S
H922 C927 0.950 . S
H923 C928 0.949 . S
H924 C930 0.950 . S
H925 C931 0.950 . S
H926 C932 0.949 . S
C927 H922 0.950 . S
C927 C929 1.327 . S
C927 C933 1.429 1_565 S
C928 C920 1.574 . S
C928 H923 0.949 . S
C928 C934 1.401 . S
C929 C913 1.349 1_565 S
C929 H921 0.950 . S
C929 C927 1.327 . S
C930 C918 1.349 1_545 S
C930 H924 0.950 . S
C930 C931 1.327 . S
C931 H925 0.950 . S
C931 C930 1.327 . S
C931 C935 1.429 1_545 S
C932 C915 1.574 . S
C932 H926 0.949 . S
C932 C936 1.368 . S
C933 C914 1.429 . S
C933 C927 1.429 1_545 S
C933 C934 1.524 . S
C934 C915 1.336 1_545 S
C934 C928 1.401 . S
C934 C933 1.524 . S
C935 C919 1.429 . S
C935 C931 1.429 1_565 S
C935 C936 1.523 . S
C936 C920 1.368 1_565 S
C936 C932 1.368 . S
C936 C935 1.523 . S
H937 C912 0.950 . S
H938 C914 0.950 . S
H939 C915 0.949 . S
H940 C917 0.950 . S
H941 C919 0.950 . S
C942 C943 1.349 . S
C942 C944 1.327 . S
C942 H967 0.950 . S
C943 C942 1.349 . S
C943 C959 1.349 . S
C944 C942 1.327 . S
C944 C963 1.429 . S
C944 H968 0.950 . S
C945 C962 1.574 . S
C945 C964 1.368 . S
C945 H969 0.949 . S
H946 C950 0.949 . S
C947 C948 1.349 . S
C947 C949 1.327 . S
C947 H970 0.950 . S
C948 C947 1.349 . S
C948 C960 1.349 . S
C949 C947 1.327 . S
C949 C965 1.429 . S
C949 H971 0.950 . S
C950 H946 0.949 . S
C950 C958 1.574 . S
C950 C966 1.368 . S
H951 C959 0.950 . S
H952 C957 0.950 . S
H953 C958 0.949 . S
H954 C960 0.950 . S
H955 C961 0.950 . S
H956 C962 0.949 . S
C957 H952 0.950 . S
C957 C959 1.327 . S
C957 C963 1.429 . S
C958 C950 1.574 . S
C958 H953 0.949 . S
C958 C964 1.368 . S
C959 C943 1.349 . S
C959 H951 0.950 . S
C959 C957 1.327 . S
C960 C948 1.349 . S
C960 H954 0.950 . S
C960 C961 1.327 . S
C961 H955 0.950 . S
C961 C960 1.327 . S
C961 C965 1.429 . S
C962 C945 1.574 . S
C962 H956 0.949 . S
C962 C966 1.368 . S
C963 C944 1.429 . S
C963 C957 1.429 . S
C963 C964 1.523 . S
C964 C945 1.368 . S
C964 C958 1.368 . S
C964 C963 1.523 . S
C965 C949 1.429 . S
C965 C961 1.429 . S
C965 C966 1.523 . S
C966 C950 1.368 . S
C966 C962 1.368 . S
C966 C965 1.523 . S
H967 C942 0.950 . S
H968 C944 0.950 . S
H969 C945 0.949 . S
H970 C947 0.950 . S
H971 C949 0.950 . S
C972 C973 1.349 1_565 S
C972 C974 1.327 . S
C972 H997 0.950 . S
C973 C972 1.349 1_545 S
C973 C989 1.349 . S
C974 C972 1.327 . S
C974 C993 1.429 1_565 S
C974 H998 0.950 . S
C975 C992 1.574 . S
C975 C994 1.368 . S
C975 H999 0.949 . S
H976 C980 0.949 . S
C977 C978 1.349 . S
C977 C979 1.327 . S
C977 H1000 0.950 . S
C978 C977 1.349 . S
C978 C990 1.344 1_545 S
C979 C977 1.327 . S
C979 C995 1.429 . S
C979 H1001 0.950 . S
C980 H976 0.949 . S
C980 C988 1.574 . S
C980 C996 1.368 1_565 S
H981 C989 0.950 . S
H982 C987 0.950 . S
H983 C988 0.949 . S
H984 C990 0.954 . S
H985 C991 0.950 . S
H986 C992 0.949 . S
C987 H982 0.950 . S
C987 C989 1.327 . S
C987 C993 1.429 . S
C988 C980 1.574 . S
C988 H983 0.949 . S
C988 C994 1.368 1_565 S
C989 C973 1.349 . S
C989 H981 0.950 . S
C989 C987 1.327 . S
C990 C978 1.344 1_565 S
C990 H984 0.954 . S
C990 C991 1.328 . S
C991 H985 0.950 . S
C991 C990 1.328 . S
C991 C995 1.429 1_565 S
C992 C975 1.574 . S
C992 H986 0.949 . S
C992 C996 1.368 . S
C993 C974 1.429 1_545 S
C993 C987 1.429 . S
C993 C994 1.523 . S
C994 C975 1.368 . S
C994 C988 1.368 1_545 S
C994 C993 1.523 . S
C995 C979 1.429 . S
C995 C991 1.429 1_545 S
C995 C996 1.523 . S
C996 C980 1.368 1_545 S
C996 C992 1.368 . S
C996 C995 1.523 . S
H997 C972 0.950 . S
H998 C974 0.950 . S
H999 C975 0.949 . S
H1000 C977 0.950 . S
H1001 C979 0.950 . S
C1002 C1003 1.349 . S
C1002 C1004 1.327 . S
C1002 H1027 0.950 . S
C1003 C1002 1.349 . S
C1003 C1019 1.349 . S
C1004 C1002 1.327 . S
C1004 C1023 1.429 . S
C1004 H1028 0.950 . S
C1005 C1022 1.574 . S
C1005 C1024 1.368 . S
C1005 H1029 0.949 . S
H1006 C1010 0.949 . S
C1007 C1008 1.349 . S
C1007 C1009 1.327 . S
C1007 H1030 0.950 . S
C1008 C1007 1.349 . S
C1008 C1020 1.349 . S
C1009 C1007 1.327 . S
C1009 C1025 1.429 . S
C1009 H1031 0.950 . S
C1010 H1006 0.949 . S
C1010 C1018 1.574 . S
C1010 C1026 1.368 . S
H1011 C1019 0.950 . S
H1012 C1017 0.950 . S
H1013 C1018 0.949 . S
H1014 C1020 0.950 . S
H1015 C1021 0.950 . S
H1016 C1022 0.949 . S
C1017 H1012 0.950 . S
C1017 C1019 1.327 . S
C1017 C1023 1.429 . S
C1018 C1010 1.574 . S
C1018 H1013 0.949 . S
C1018 C1024 1.368 . S
C1019 C1003 1.349 . S
C1019 H1011 0.950 . S
C1019 C1017 1.327 . S
C1020 C1008 1.349 . S
C1020 H1014 0.950 . S
C1020 C1021 1.327 . S
C1021 H1015 0.950 . S
C1021 C1020 1.327 . S
C1021 C1025 1.429 . S
C1022 C1005 1.574 . S
C1022 H1016 0.949 . S
C1022 C1026 1.368 . S
C1023 C1004 1.429 . S
C1023 C1017 1.429 . S
C1023 C1024 1.523 . S
C1024 C1005 1.368 . S
C1024 C1018 1.368 . S
C1024 C1023 1.523 . S
C1025 C1009 1.429 . S
C1025 C1021 1.429 . S
C1025 C1026 1.523 . S
C1026 C1010 1.368 . S
C1026 C1022 1.368 . S
C1026 C1025 1.523 . S
H1027 C1002 0.950 . S
H1028 C1004 0.950 . S
H1029 C1005 0.949 . S
H1030 C1007 0.950 . S
H1031 C1009 0.950 . S
C1032 C1033 1.349 . S
C1032 C1034 1.327 . S
C1032 H1057 0.950 . S
C1033 C1032 1.349 . S
C1033 C1049 1.349 1_545 S
C1034 C1032 1.327 . S
C1034 C1053 1.429 . S
C1034 H1058 0.950 . S
C1035 C1052 1.574 . S
C1035 C1054 1.368 1_565 S
C1035 H1059 0.949 . S
H1036 C1040 0.949 . S
C1037 C1038 1.349 1_565 S
C1037 C1039 1.327 . S
C1037 H1060 0.950 . S
C1038 C1037 1.349 1_545 S
C1038 C1050 1.349 . S
C1039 C1037 1.327 . S
C1039 C1055 1.429 1_565 S
C1039 H1061 0.950 . S
C1040 H1036 0.949 . S
C1040 C1048 1.574 . S
C1040 C1056 1.368 . S
H1041 C1049 0.950 . S
H1042 C1047 0.950 . S
H1043 C1048 0.949 . S
H1044 C1050 0.950 . S
H1045 C1051 0.950 . S
H1046 C1052 0.949 . S
C1047 H1042 0.950 . S
C1047 C1049 1.327 . S
C1047 C1053 1.429 1_565 S
C1048 C1040 1.574 . S
C1048 H1043 0.949 . S
C1048 C1054 1.368 . S
C1049 C1033 1.349 1_565 S
C1049 H1041 0.950 . S
C1049 C1047 1.327 . S
C1050 C1038 1.349 . S
C1050 H1044 0.950 . S
C1050 C1051 1.327 . S
C1051 H1045 0.950 . S
C1051 C1050 1.327 . S
C1051 C1055 1.429 . S
C1052 C1035 1.574 . S
C1052 H1046 0.949 . S
C1052 C1056 1.368 1_565 S
C1053 C1034 1.429 . S
C1053 C1047 1.429 1_545 S
C1053 C1054 1.523 . S
C1054 C1035 1.368 1_545 S
C1054 C1048 1.368 . S
C1054 C1053 1.523 . S
C1055 C1039 1.429 1_545 S
C1055 C1051 1.429 . S
C1055 C1056 1.523 . S
C1056 C1040 1.368 . S
C1056 C1052 1.368 1_545 S
C1056 C1055 1.523 . S
H1057 C1032 0.950 . S
H1058 C1034 0.950 . S
H1059 C1035 0.949 . S
H1060 C1037 0.950 . S
H1061 C1039 0.950 . S
C1062 C1063 1.349 . S
C1062 C1064 1.327 . S
C1062 H1087 0.950 . S
C1063 C1062 1.349 . S
C1063 C1079 1.349 . S
C1064 C1062 1.327 . S
C1064 C1083 1.429 . S
C1064 H1088 0.950 . S
C1065 C1082 1.574 . S
C1065 C1084 1.368 . S
C1065 H1089 0.949 . S
H1066 C1070 0.949 . S
C1067 C1068 1.349 . S
C1067 C1069 1.327 . S
C1067 H1090 0.950 . S
C1068 C1067 1.349 . S
C1068 C1080 1.349 . S
C1069 C1067 1.327 . S
C1069 C1085 1.429 . S
C1069 H1091 0.950 . S
C1070 H1066 0.949 . S
C1070 C1078 1.574 . S
C1070 C1086 1.368 . S
H1071 C1079 0.950 . S
H1072 C1077 0.950 . S
H1073 C1078 0.949 . S
H1074 C1080 0.950 . S
H1075 C1081 0.950 . S
H1076 C1082 0.949 . S
C1077 H1072 0.950 . S
C1077 C1079 1.327 . S
C1077 C1083 1.429 . S
C1078 C1070 1.574 . S
C1078 H1073 0.949 . S
C1078 C1084 1.368 . S
C1079 C1063 1.349 . S
C1079 H1071 0.950 . S
C1079 C1077 1.327 . S
C1080 C1068 1.349 . S
C1080 H1074 0.950 . S
C1080 C1081 1.327 . S
C1081 H1075 0.950 . S
C1081 C1080 1.327 . S
C1081 C1085 1.429 . S
C1082 C1065 1.574 . S
C1082 H1076 0.949 . S
C1082 C1086 1.368 . S
C1083 C1064 1.429 . S
C1083 C1077 1.429 . S
C1083 C1084 1.523 . S
C1084 C1065 1.368 . S
C1084 C1078 1.368 . S
C1084 C1083 1.523 . S
C1085 C1069 1.429 . S
C1085 C1081 1.429 . S
C1085 C1086 1.523 . S
C1086 C1070 1.368 . S
C1086 C1082 1.368 . S
C1086 C1085 1.523 . S
H1087 C1062 0.950 . S
H1088 C1064 0.950 . S
H1089 C1065 0.949 . S
H1090 C1067 0.950 . S
H1091 C1069 0.950 . S
C1092 C1093 1.349 1_565 S
C1092 C1094 1.327 . S
C1092 H1117 0.950 . S
C1093 C1092 1.349 1_545 S
C1093 C1109 1.349 . S
C1094 C1092 1.327 . S
C1094 C1113 1.429 1_565 S
C1094 H1118 0.950 . S
C1095 C1112 1.574 . S
C1095 C1114 1.368 . S
C1095 H1119 0.949 . S
H1096 C1100 0.949 . S
C1097 C1098 1.349 1_545 S
C1097 C1099 1.327 . S
C1097 H1120 0.950 . S
C1098 C1097 1.349 1_565 S
C1098 C1110 1.349 . S
C1099 C1097 1.327 . S
C1099 C1115 1.414 1_545 S
C1099 H1121 0.950 . S
C1100 H1096 0.949 . S
C1100 C1108 1.574 . S
C1100 C1116 1.348 1_565 S
H1101 C1109 0.950 . S
H1102 C1107 0.950 . S
H1103 C1108 0.949 . S
H1104 C1110 0.950 . S
H1105 C1111 0.950 . S
H1106 C1112 0.949 . S
C1107 H1102 0.950 . S
C1107 C1109 1.327 . S
C1107 C1113 1.429 . S
C1108 C1100 1.574 . S
C1108 H1103 0.949 . S
C1108 C1114 1.368 1_565 S
C1109 C1093 1.349 . S
C1109 H1101 0.950 . S
C1109 C1107 1.327 . S
C1110 C1098 1.349 . S
C1110 H1104 0.950 . S
C1110 C1111 1.327 . S
C1111 H1105 0.950 . S
C1111 C1110 1.327 . S
C1111 C1115 1.446 . S
C1112 C1095 1.574 . S
C1112 H1106 0.949 . S
C1112 C1116 1.391 . S
C1113 C1094 1.429 1_545 S
C1113 C1107 1.429 . S
C1113 C1114 1.523 . S
C1114 C1095 1.368 . S
C1114 C1108 1.368 1_545 S
C1114 C1113 1.523 . S
C1115 C1099 1.414 1_565 S
C1115 C1111 1.446 . S
C1115 C1116 1.519 1_565 S
C1116 C1100 1.348 1_545 S
C1116 C1112 1.391 . S
C1116 C1115 1.519 1_545 S
H1117 C1092 0.950 . S
H1118 C1094 0.950 . S
H1119 C1095 0.949 . S
H1120 C1097 0.950 . S
H1121 C1099 0.950 . S
C1122 C1123 1.349 . S
C1122 C1124 1.327 . S
C1122 H1147 0.950 . S
C1123 C1122 1.349 . S
C1123 C1139 1.349 . S
C1124 C1122 1.327 . S
C1124 C1143 1.429 . S
C1124 H1148 0.950 . S
C1125 C1142 1.574 . S
C1125 C1144 1.368 . S
C1125 H1149 0.949 . S
H1126 C1130 0.949 . S
C1127 C1128 1.349 . S
C1127 C1129 1.327 . S
C1127 H1150 0.950 . S
C1128 C1127 1.349 . S
C1128 C1140 1.349 . S
C1129 C1127 1.327 . S
C1129 C1145 1.429 . S
C1129 H1151 0.950 . S
C1130 H1126 0.949 . S
C1130 C1138 1.574 . S
C1130 C1146 1.368 . S
H1131 C1139 0.950 . S
H1132 C1137 0.950 . S
H1133 C1138 0.949 . S
H1134 C1140 0.950 . S
H1135 C1141 0.950 . S
H1136 C1142 0.949 . S
C1137 H1132 0.950 . S
C1137 C1139 1.327 . S
C1137 C1143 1.429 . S
C1138 C1130 1.574 . S
C1138 H1133 0.949 . S
C1138 C1144 1.368 . S
C1139 C1123 1.349 . S
C1139 H1131 0.950 . S
C1139 C1137 1.327 . S
C1140 C1128 1.349 . S
C1140 H1134 0.950 . S
C1140 C1141 1.327 . S
C1141 H1135 0.950 . S
C1141 C1140 1.327 . S
C1141 C1145 1.429 . S
C1142 C1125 1.574 . S
C1142 H1136 0.949 . S
C1142 C1146 1.368 . S
C1143 C1124 1.429 . S
C1143 C1137 1.429 . S
C1143 C1144 1.523 . S
C1144 C1125 1.368 . S
C1144 C1138 1.368 . S
C1144 C1143 1.523 . S
C1145 C1129 1.429 . S
C1145 C1141 1.429 . S
C1145 C1146 1.523 . S
C1146 C1130 1.368 . S
C1146 C1142 1.368 . S
C1146 C1145 1.523 . S
H1147 C1122 0.950 . S
H1148 C1124 0.950 . S
H1149 C1125 0.949 . S
H1150 C1127 0.950 . S
H1151 C1129 0.950 . S
C1152 C1153 1.349 . S
C1152 C1154 1.327 . S
C1152 H1177 0.950 . S
C1153 C1152 1.349 . S
C1153 C1169 1.349 1_554 S
C1154 C1152 1.327 . S
C1154 C1173 1.429 . S
C1154 H1178 0.950 . S
C1155 C1172 1.574 . S
C1155 C1174 1.368 1_556 S
C1155 H1179 0.949 . S
H1156 C1160 0.949 . S
C1157 C1158 1.316 1_556 S
C1157 C1159 1.327 . S
C1157 H1180 0.950 . S
C1158 C1157 1.316 1_554 S
C1158 C1170 1.384 . S
C1159 C1157 1.327 . S
C1159 C1175 1.429 1_556 S
C1159 H1181 0.950 . S
C1160 H1156 0.949 . S
C1160 C1168 1.574 . S
C1160 C1176 1.368 . S
H1161 C1169 0.950 . S
H1162 C1167 0.950 . S
H1163 C1168 0.949 . S
H1164 C1170 0.950 . S
H1165 C1171 0.950 . S
H1166 C1172 0.949 . S
C1167 H1162 0.950 . S
C1167 C1169 1.327 . S
C1167 C1173 1.429 1_556 S
C1168 C1160 1.574 . S
C1168 H1163 0.949 . S
C1168 C1174 1.368 . S
C1169 C1153 1.349 1_556 S
C1169 H1161 0.950 . S
C1169 C1167 1.327 . S
C1170 C1158 1.384 . S
C1170 H1164 0.950 . S
C1170 C1171 1.327 . S
C1171 H1165 0.950 . S
C1171 C1170 1.327 . S
C1171 C1175 1.429 . S
C1172 C1155 1.574 . S
C1172 H1166 0.949 . S
C1172 C1176 1.368 1_556 S
C1173 C1154 1.429 . S
C1173 C1167 1.429 1_554 S
C1173 C1174 1.523 . S
C1174 C1155 1.368 1_554 S
C1174 C1168 1.368 . S
C1174 C1173 1.523 . S
C1175 C1159 1.429 1_554 S
C1175 C1171 1.429 . S
C1175 C1176 1.523 . S
C1176 C1160 1.368 . S
C1176 C1172 1.368 1_554 S
C1176 C1175 1.523 . S
H1177 C1152 0.950 . S
H1178 C1154 0.950 . S
H1179 C1155 0.949 . S
H1180 C1157 0.950 . S
H1181 C1159 0.950 . S
C1182 C1183 1.349 . S
C1182 C1184 1.327 . S
C1182 H1207 0.950 . S
C1183 C1182 1.349 . S
C1183 C1199 1.349 1_554 S
C1184 C1182 1.327 . S
C1184 C1203 1.429 . S
C1184 H1208 0.950 . S
C1185 C1202 1.574 . S
C1185 C1204 1.368 1_556 S
C1185 H1209 0.949 . S
H1186 C1190 0.949 . S
C1187 C1188 1.349 1_556 S
C1187 C1189 1.327 . S
C1187 H1210 0.950 . S
C1188 C1187 1.349 1_554 S
C1188 C1200 1.349 . S
C1189 C1187 1.327 . S
C1189 C1205 1.429 1_556 S
C1189 H1211 0.950 . S
C1190 H1186 0.949 . S
C1190 C1198 1.574 . S
C1190 C1206 1.368 . S
H1191 C1199 0.950 . S
H1192 C1197 0.950 . S
H1193 C1198 0.949 . S
H1194 C1200 0.950 . S
H1195 C1201 0.950 . S
H1196 C1202 0.949 . S
C1197 H1192 0.950 . S
C1197 C1199 1.327 . S
C1197 C1203 1.429 1_556 S
C1198 C1190 1.574 . S
C1198 H1193 0.949 . S
C1198 C1204 1.368 . S
C1199 C1183 1.349 1_556 S
C1199 H1191 0.950 . S
C1199 C1197 1.327 . S
C1200 C1188 1.349 . S
C1200 H1194 0.950 . S
C1200 C1201 1.327 . S
C1201 H1195 0.950 . S
C1201 C1200 1.327 . S
C1201 C1205 1.429 . S
C1202 C1185 1.574 . S
C1202 H1196 0.949 . S
C1202 C1206 1.368 1_556 S
C1203 C1184 1.429 . S
C1203 C1197 1.429 1_554 S
C1203 C1204 1.523 . S
C1204 C1185 1.368 1_554 S
C1204 C1198 1.368 . S
C1204 C1203 1.523 . S
C1205 C1189 1.429 1_554 S
C1205 C1201 1.429 . S
C1205 C1206 1.523 . S
C1206 C1190 1.368 . S
C1206 C1202 1.368 1_554 S
C1206 C1205 1.523 . S
H1207 C1182 0.950 . S
H1208 C1184 0.950 . S
H1209 C1185 0.949 . S
H1210 C1187 0.950 . S
H1211 C1189 0.950 . S
C1212 C1213 1.349 . S
C1212 C1214 1.327 . S
C1212 H1237 0.950 . S
C1213 C1212 1.349 . S
C1213 C1229 1.349 . S
C1214 C1212 1.327 . S
C1214 C1233 1.429 . S
C1214 H1238 0.950 . S
C1215 C1232 1.574 . S
C1215 C1234 1.368 . S
C1215 H1239 0.949 . S
H1216 C1220 0.949 . S
C1217 C1218 1.349 . S
C1217 C1219 1.327 . S
C1217 H1240 0.950 . S
C1218 C1217 1.349 . S
C1218 C1230 1.349 . S
C1219 C1217 1.327 . S
C1219 C1235 1.429 . S
C1219 H1241 0.950 . S
C1220 H1216 0.949 . S
C1220 C1228 1.574 . S
C1220 C1236 1.368 . S
H1221 C1229 0.950 . S
H1222 C1227 0.950 . S
H1223 C1228 0.949 . S
H1224 C1230 0.950 . S
H1225 C1231 0.950 . S
H1226 C1232 0.949 . S
C1227 H1222 0.950 . S
C1227 C1229 1.327 . S
C1227 C1233 1.429 . S
C1228 C1220 1.574 . S
C1228 H1223 0.949 . S
C1228 C1234 1.368 . S
C1229 C1213 1.349 . S
C1229 H1221 0.950 . S
C1229 C1227 1.327 . S
C1230 C1218 1.349 . S
C1230 H1224 0.950 . S
C1230 C1231 1.327 . S
C1231 H1225 0.950 . S
C1231 C1230 1.327 . S
C1231 C1235 1.429 . S
C1232 C1215 1.574 . S
C1232 H1226 0.949 . S
C1232 C1236 1.368 . S
C1233 C1214 1.429 . S
C1233 C1227 1.429 . S
C1233 C1234 1.523 . S
C1234 C1215 1.368 . S
C1234 C1228 1.368 . S
C1234 C1233 1.523 . S
C1235 C1219 1.429 . S
C1235 C1231 1.429 . S
C1235 C1236 1.523 . S
C1236 C1220 1.368 . S
C1236 C1232 1.368 . S
C1236 C1235 1.523 . S
H1237 C1212 0.950 . S
H1238 C1214 0.950 . S
H1239 C1215 0.949 . S
H1240 C1217 0.950 . S
H1241 C1219 0.950 . S
C1242 C1243 1.349 . S
C1242 C1244 1.327 . S
C1242 H1267 0.950 . S
C1243 C1242 1.349 . S
C1243 C1259 1.349 . S
C1244 C1242 1.327 . S
C1244 C1263 1.429 . S
C1244 H1268 0.950 . S
C1245 C1262 1.574 . S
C1245 C1264 1.368 . S
C1245 H1269 0.949 . S
H1246 C1250 0.949 . S
C1247 C1248 1.349 . S
C1247 C1249 1.327 . S
C1247 H1270 0.950 . S
C1248 C1247 1.349 . S
C1248 C1260 1.349 . S
C1249 C1247 1.327 . S
C1249 C1265 1.429 . S
C1249 H1271 0.950 . S
C1250 H1246 0.949 . S
C1250 C1258 1.574 . S
C1250 C1266 1.368 . S
H1251 C1259 0.950 . S
H1252 C1257 0.950 . S
H1253 C1258 0.949 . S
H1254 C1260 0.950 . S
H1255 C1261 0.950 . S
H1256 C1262 0.949 . S
C1257 H1252 0.950 . S
C1257 C1259 1.327 . S
C1257 C1263 1.429 . S
C1258 C1250 1.574 . S
C1258 H1253 0.949 . S
C1258 C1264 1.368 . S
C1259 C1243 1.349 . S
C1259 H1251 0.950 . S
C1259 C1257 1.327 . S
C1260 C1248 1.349 . S
C1260 H1254 0.950 . S
C1260 C1261 1.327 . S
C1261 H1255 0.950 . S
C1261 C1260 1.327 . S
C1261 C1265 1.429 . S
C1262 C1245 1.574 . S
C1262 H1256 0.949 . S
C1262 C1266 1.368 . S
C1263 C1244 1.429 . S
C1263 C1257 1.429 . S
C1263 C1264 1.523 . S
C1264 C1245 1.368 . S
C1264 C1258 1.368 . S
C1264 C1263 1.523 . S
C1265 C1249 1.429 . S
C1265 C1261 1.429 . S
C1265 C1266 1.523 . S
C1266 C1250 1.368 . S
C1266 C1262 1.368 . S
C1266 C1265 1.523 . S
H1267 C1242 0.950 . S
H1268 C1244 0.950 . S
H1269 C1245 0.949 . S
H1270 C1247 0.950 . S
H1271 C1249 0.950 . S
C1272 C1273 1.349 . S
C1272 C1274 1.327 . S
C1272 H1297 0.950 . S
C1273 C1272 1.349 . S
C1273 C1289 1.349 . S
C1274 C1272 1.327 . S
C1274 C1293 1.429 . S
C1274 H1298 0.950 . S
C1275 C1292 1.574 . S
C1275 C1294 1.368 . S
C1275 H1299 0.949 . S
H1276 C1280 0.949 . S
C1277 C1278 1.349 . S
C1277 C1279 1.327 . S
C1277 H1300 0.950 . S
C1278 C1277 1.349 . S
C1278 C1290 1.349 . S
C1279 C1277 1.327 . S
C1279 C1295 1.429 . S
C1279 H1301 0.950 . S
C1280 H1276 0.949 . S
C1280 C1288 1.574 . S
C1280 C1296 1.368 . S
H1281 C1289 0.950 . S
H1282 C1287 0.950 . S
H1283 C1288 0.949 . S
H1284 C1290 0.950 . S
H1285 C1291 0.950 . S
H1286 C1292 0.949 . S
C1287 H1282 0.950 . S
C1287 C1289 1.327 . S
C1287 C1293 1.429 . S
C1288 C1280 1.574 . S
C1288 H1283 0.949 . S
C1288 C1294 1.368 . S
C1289 C1273 1.349 . S
C1289 H1281 0.950 . S
C1289 C1287 1.327 . S
C1290 C1278 1.349 . S
C1290 H1284 0.950 . S
C1290 C1291 1.327 . S
C1291 H1285 0.950 . S
C1291 C1290 1.327 . S
C1291 C1295 1.429 . S
C1292 C1275 1.574 . S
C1292 H1286 0.949 . S
C1292 C1296 1.368 . S
C1293 C1274 1.429 . S
C1293 C1287 1.429 . S
C1293 C1294 1.523 . S
C1294 C1275 1.368 . S
C1294 C1288 1.368 . S
C1294 C1293 1.523 . S
C1295 C1279 1.429 . S
C1295 C1291 1.429 . S
C1295 C1296 1.523 . S
C1296 C1280 1.368 . S
C1296 C1292 1.368 . S
C1296 C1295 1.523 . S
H1297 C1272 0.950 . S
H1298 C1274 0.950 . S
H1299 C1275 0.949 . S
H1300 C1277 0.950 . S
H1301 C1279 0.950 . S
C1302 C1303 1.349 . S
C1302 C1304 1.327 . S
C1302 H1327 0.950 . S
C1303 C1302 1.349 . S
C1303 C1319 1.349 . S
C1304 C1302 1.327 . S
C1304 C1323 1.429 . S
C1304 H1328 0.950 . S
C1305 C1322 1.574 . S
C1305 C1324 1.368 . S
C1305 H1329 0.949 . S
H1306 C1310 0.949 . S
C1307 C1308 1.349 . S
C1307 C1309 1.327 . S
C1307 H1330 0.950 . S
C1308 C1307 1.349 . S
C1308 C1320 1.349 . S
C1309 C1307 1.327 . S
C1309 C1325 1.429 . S
C1309 H1331 0.950 . S
C1310 H1306 0.949 . S
C1310 C1318 1.574 . S
C1310 C1326 1.368 . S
H1311 C1319 0.950 . S
H1312 C1317 0.950 . S
H1313 C1318 0.949 . S
H1314 C1320 0.950 . S
H1315 C1321 0.950 . S
H1316 C1322 0.949 . S
C1317 H1312 0.950 . S
C1317 C1319 1.327 . S
C1317 C1323 1.429 . S
C1318 C1310 1.574 . S
C1318 H1313 0.949 . S
C1318 C1324 1.368 . S
C1319 C1303 1.349 . S
C1319 H1311 0.950 . S
C1319 C1317 1.327 . S
C1320 C1308 1.349 . S
C1320 H1314 0.950 . S
C1320 C1321 1.327 . S
C1321 H1315 0.950 . S
C1321 C1320 1.327 . S
C1321 C1325 1.429 . S
C1322 C1305 1.574 . S
C1322 H1316 0.949 . S
C1322 C1326 1.368 . S
C1323 C1304 1.429 . S
C1323 C1317 1.429 . S
C1323 C1324 1.523 . S
C1324 C1305 1.368 . S
C1324 C1318 1.368 . S
C1324 C1323 1.523 . S
C1325 C1309 1.429 . S
C1325 C1321 1.429 . S
C1325 C1326 1.523 . S
C1326 C1310 1.368 . S
C1326 C1322 1.368 . S
C1326 C1325 1.523 . S
H1327 C1302 0.950 . S
H1328 C1304 0.950 . S
H1329 C1305 0.949 . S
H1330 C1307 0.950 . S
H1331 C1309 0.950 . S
C1332 C1333 1.349 . S
C1332 C1334 1.327 . S
C1332 H1357 0.950 . S
C1333 C1332 1.349 . S
C1333 C1349 1.349 . S
C1334 C1332 1.327 . S
C1334 C1353 1.429 . S
C1334 H1358 0.950 . S
C1335 C1352 1.574 . S
C1335 C1354 1.368 . S
C1335 H1359 0.949 . S
H1336 C1340 0.949 . S
C1337 C1338 1.349 . S
C1337 C1339 1.327 . S
C1337 H1360 0.950 . S
C1338 C1337 1.349 . S
C1338 C1350 1.349 . S
C1339 C1337 1.327 . S
C1339 C1355 1.429 . S
C1339 H1361 0.950 . S
C1340 H1336 0.949 . S
C1340 C1348 1.574 . S
C1340 C1356 1.368 . S
H1341 C1349 0.950 . S
H1342 C1347 0.950 . S
H1343 C1348 0.949 . S
H1344 C1350 0.950 . S
H1345 C1351 0.950 . S
H1346 C1352 0.949 . S
C1347 H1342 0.950 . S
C1347 C1349 1.327 . S
C1347 C1353 1.429 . S
C1348 C1340 1.574 . S
C1348 H1343 0.949 . S
C1348 C1354 1.368 . S
C1349 C1333 1.349 . S
C1349 H1341 0.950 . S
C1349 C1347 1.327 . S
C1350 C1338 1.349 . S
C1350 H1344 0.950 . S
C1350 C1351 1.327 . S
C1351 H1345 0.950 . S
C1351 C1350 1.327 . S
C1351 C1355 1.429 . S
C1352 C1335 1.574 . S
C1352 H1346 0.949 . S
C1352 C1356 1.368 . S
C1353 C1334 1.429 . S
C1353 C1347 1.429 . S
C1353 C1354 1.523 . S
C1354 C1335 1.368 . S
C1354 C1348 1.368 . S
C1354 C1353 1.523 . S
C1355 C1339 1.429 . S
C1355 C1351 1.429 . S
C1355 C1356 1.523 . S
C1356 C1340 1.368 . S
C1356 C1352 1.368 . S
C1356 C1355 1.523 . S
H1357 C1332 0.950 . S
H1358 C1334 0.950 . S
H1359 C1335 0.949 . S
H1360 C1337 0.950 . S
H1361 C1339 0.950 . S
C1362 C1363 1.349 . S
C1362 C1364 1.327 . S
C1362 H1387 0.950 . S
C1363 C1362 1.349 . S
C1363 C1379 1.349 . S
C1364 C1362 1.327 . S
C1364 C1383 1.429 . S
C1364 H1388 0.950 . S
C1365 C1382 1.574 . S
C1365 C1384 1.368 . S
C1365 H1389 0.949 . S
H1366 C1370 0.949 . S
C1367 C1368 1.349 . S
C1367 C1369 1.327 . S
C1367 H1390 0.950 . S
C1368 C1367 1.349 . S
C1368 C1380 1.349 . S
C1369 C1367 1.327 . S
C1369 C1385 1.429 . S
C1369 H1391 0.950 . S
C1370 H1366 0.949 . S
C1370 C1378 1.574 . S
C1370 C1386 1.368 . S
H1371 C1379 0.950 . S
H1372 C1377 0.950 . S
H1373 C1378 0.949 . S
H1374 C1380 0.950 . S
H1375 C1381 0.950 . S
H1376 C1382 0.949 . S
C1377 H1372 0.950 . S
C1377 C1379 1.327 . S
C1377 C1383 1.429 . S
C1378 C1370 1.574 . S
C1378 H1373 0.949 . S
C1378 C1384 1.368 . S
C1379 C1363 1.349 . S
C1379 H1371 0.950 . S
C1379 C1377 1.327 . S
C1380 C1368 1.349 . S
C1380 H1374 0.950 . S
C1380 C1381 1.327 . S
C1381 H1375 0.950 . S
C1381 C1380 1.327 . S
C1381 C1385 1.429 . S
C1382 C1365 1.574 . S
C1382 H1376 0.949 . S
C1382 C1386 1.368 . S
C1383 C1364 1.429 . S
C1383 C1377 1.429 . S
C1383 C1384 1.523 . S
C1384 C1365 1.368 . S
C1384 C1378 1.368 . S
C1384 C1383 1.523 . S
C1385 C1369 1.429 . S
C1385 C1381 1.429 . S
C1385 C1386 1.523 . S
C1386 C1370 1.368 . S
C1386 C1382 1.368 . S
C1386 C1385 1.523 . S
H1387 C1362 0.950 . S
H1388 C1364 0.950 . S
H1389 C1365 0.949 . S
H1390 C1367 0.950 . S
H1391 C1369 0.950 . S
C1392 C1393 1.349 . S
C1392 C1394 1.327 . S
C1392 H1417 0.950 . S
C1393 C1392 1.349 . S
C1393 C1409 1.351 1_455 S
C1394 C1392 1.327 . S
C1394 C1413 1.429 . S
C1394 H1418 0.950 . S
C1395 C1412 1.574 . S
C1395 C1414 1.363 1_655 S
C1395 H1419 0.954 . S
H1396 C1400 0.949 . S
C1397 C1398 1.349 . S
C1397 C1399 1.328 . S
C1397 H1420 0.950 1_455 S
C1398 C1397 1.349 . S
C1398 C1410 1.349 . S
C1399 C1397 1.328 . S
C1399 C1415 1.454 . S
C1399 H1421 0.925 1_455 S
C1400 H1396 0.949 . S
C1400 C1408 1.574 . S
C1400 C1416 1.368 . S
H1401 C1409 0.948 . S
H1402 C1407 0.950 . S
H1403 C1408 0.949 . S
H1404 C1410 0.950 . S
H1405 C1411 0.950 . S
H1406 C1412 0.947 . S
C1407 H1402 0.950 . S
C1407 C1409 1.327 . S
C1407 C1413 1.428 1_655 S
C1408 C1400 1.574 . S
C1408 H1403 0.949 . S
C1408 C1414 1.368 . S
C1409 C1393 1.351 1_655 S
C1409 H1401 0.948 . S
C1409 C1407 1.327 . S
C1410 C1398 1.349 . S
C1410 H1404 0.950 . S
C1410 C1411 1.327 . S
C1411 H1405 0.950 . S
C1411 C1410 1.327 . S
C1411 C1415 1.429 . S
C1412 C1395 1.574 . S
C1412 H1406 0.947 . S
C1412 C1416 1.371 1_655 S
C1413 C1394 1.429 . S
C1413 C1407 1.428 1_455 S
C1413 C1414 1.523 . S
C1414 C1395 1.363 1_455 S
C1414 C1408 1.368 . S
C1414 C1413 1.523 . S
C1415 C1399 1.454 . S
C1415 C1411 1.429 . S
C1415 C1416 1.523 . S
C1416 C1400 1.368 . S
C1416 C1412 1.371 1_455 S
C1416 C1415 1.523 . S
H1417 C1392 0.950 . S
H1418 C1394 0.950 . S
H1419 C1395 0.954 . S
H1420 C1397 0.950 1_655 S
H1421 C1399 0.925 1_655 S
C1422 C1423 1.349 . S
C1422 C1424 1.327 . S
C1422 H1447 0.950 . S
C1423 C1422 1.349 . S
C1423 C1439 1.349 . S
C1424 C1422 1.327 . S
C1424 C1443 1.429 . S
C1424 H1448 0.950 . S
C1425 C1442 1.574 . S
C1425 C1444 1.368 . S
C1425 H1449 0.949 . S
H1426 C1430 0.949 . S
C1427 C1428 1.349 . S
C1427 C1429 1.327 . S
C1427 H1450 0.950 . S
C1428 C1427 1.349 . S
C1428 C1440 1.349 . S
C1429 C1427 1.327 . S
C1429 C1445 1.429 . S
C1429 H1451 0.950 . S
C1430 H1426 0.949 . S
C1430 C1438 1.574 . S
C1430 C1446 1.368 . S
H1431 C1439 0.950 . S
H1432 C1437 0.950 . S
H1433 C1438 0.949 . S
H1434 C1440 0.950 . S
H1435 C1441 0.950 . S
H1436 C1442 0.949 . S
C1437 H1432 0.950 . S
C1437 C1439 1.327 . S
C1437 C1443 1.429 . S
C1438 C1430 1.574 . S
C1438 H1433 0.949 . S
C1438 C1444 1.368 . S
C1439 C1423 1.349 . S
C1439 H1431 0.950 . S
C1439 C1437 1.327 . S
C1440 C1428 1.349 . S
C1440 H1434 0.950 . S
C1440 C1441 1.327 . S
C1441 H1435 0.950 . S
C1441 C1440 1.327 . S
C1441 C1445 1.429 . S
C1442 C1425 1.574 . S
C1442 H1436 0.949 . S
C1442 C1446 1.368 . S
C1443 C1424 1.429 . S
C1443 C1437 1.429 . S
C1443 C1444 1.523 . S
C1444 C1425 1.368 . S
C1444 C1438 1.368 . S
C1444 C1443 1.523 . S
C1445 C1429 1.429 . S
C1445 C1441 1.429 . S
C1445 C1446 1.523 . S
C1446 C1430 1.368 . S
C1446 C1442 1.368 . S
C1446 C1445 1.523 . S
H1447 C1422 0.950 . S
H1448 C1424 0.950 . S
H1449 C1425 0.949 . S
H1450 C1427 0.950 . S
H1451 C1429 0.950 . S
C1452 C1453 1.349 . S
C1452 C1454 1.327 . S
C1452 H1477 0.950 . S
C1453 C1452 1.349 . S
C1453 C1469 1.349 . S
C1454 C1452 1.327 . S
C1454 C1473 1.429 . S
C1454 H1478 0.950 . S
C1455 C1472 1.574 . S
C1455 C1474 1.368 . S
C1455 H1479 0.949 . S
H1456 C1460 0.949 . S
C1457 C1458 1.349 . S
C1457 C1459 1.327 . S
C1457 H1480 0.950 . S
C1458 C1457 1.349 . S
C1458 C1470 1.349 . S
C1459 C1457 1.327 . S
C1459 C1475 1.429 . S
C1459 H1481 0.950 . S
C1460 H1456 0.949 . S
C1460 C1468 1.574 . S
C1460 C1476 1.368 . S
H1461 C1469 0.950 . S
H1462 C1467 0.950 . S
H1463 C1468 0.949 . S
H1464 C1470 0.950 . S
H1465 C1471 0.950 . S
H1466 C1472 0.949 . S
C1467 H1462 0.950 . S
C1467 C1469 1.327 . S
C1467 C1473 1.429 . S
C1468 C1460 1.574 . S
C1468 H1463 0.949 . S
C1468 C1474 1.368 . S
C1469 C1453 1.349 . S
C1469 H1461 0.950 . S
C1469 C1467 1.327 . S
C1470 C1458 1.349 . S
C1470 H1464 0.950 . S
C1470 C1471 1.327 . S
C1471 H1465 0.950 . S
C1471 C1470 1.327 . S
C1471 C1475 1.429 . S
C1472 C1455 1.574 . S
C1472 H1466 0.949 . S
C1472 C1476 1.368 . S
C1473 C1454 1.429 . S
C1473 C1467 1.429 . S
C1473 C1474 1.523 . S
C1474 C1455 1.368 . S
C1474 C1468 1.368 . S
C1474 C1473 1.523 . S
C1475 C1459 1.429 . S
C1475 C1471 1.429 . S
C1475 C1476 1.523 . S
C1476 C1460 1.368 . S
C1476 C1472 1.368 . S
C1476 C1475 1.523 . S
H1477 C1452 0.950 . S
H1478 C1454 0.950 . S
H1479 C1455 0.949 . S
H1480 C1457 0.950 . S
H1481 C1459 0.950 . S
C1482 C1483 1.349 . S
C1482 C1484 1.327 . S
C1482 H1507 0.950 . S
C1483 C1482 1.349 . S
C1483 C1499 1.349 . S
C1484 C1482 1.327 . S
C1484 C1503 1.429 . S
C1484 H1508 0.950 . S
C1485 C1502 1.574 . S
C1485 C1504 1.368 . S
C1485 H1509 0.949 . S
H1486 C1490 0.949 . S
C1487 C1488 1.349 . S
C1487 C1489 1.327 . S
C1487 H1510 0.950 . S
C1488 C1487 1.349 . S
C1488 C1500 1.349 . S
C1489 C1487 1.327 . S
C1489 C1505 1.429 . S
C1489 H1511 0.950 . S
C1490 H1486 0.949 . S
C1490 C1498 1.574 . S
C1490 C1506 1.368 . S
H1491 C1499 0.950 . S
H1492 C1497 0.950 . S
H1493 C1498 0.949 . S
H1494 C1500 0.950 . S
H1495 C1501 0.950 . S
H1496 C1502 0.949 . S
C1497 H1492 0.950 . S
C1497 C1499 1.327 . S
C1497 C1503 1.429 . S
C1498 C1490 1.574 . S
C1498 H1493 0.949 . S
C1498 C1504 1.368 . S
C1499 C1483 1.349 . S
C1499 H1491 0.950 . S
C1499 C1497 1.327 . S
C1500 C1488 1.349 . S
C1500 H1494 0.950 . S
C1500 C1501 1.327 . S
C1501 H1495 0.950 . S
C1501 C1500 1.327 . S
C1501 C1505 1.429 . S
C1502 C1485 1.574 . S
C1502 H1496 0.949 . S
C1502 C1506 1.368 . S
C1503 C1484 1.429 . S
C1503 C1497 1.429 . S
C1503 C1504 1.523 . S
C1504 C1485 1.368 . S
C1504 C1498 1.368 . S
C1504 C1503 1.523 . S
C1505 C1489 1.429 . S
C1505 C1501 1.429 . S
C1505 C1506 1.523 . S
C1506 C1490 1.368 . S
C1506 C1502 1.368 . S
C1506 C1505 1.523 . S
H1507 C1482 0.950 . S
H1508 C1484 0.950 . S
H1509 C1485 0.949 . S
H1510 C1487 0.950 . S
H1511 C1489 0.950 . S
C1512 C1513 1.349 . S
C1512 C1514 1.327 . S
C1512 H1537 0.950 . S
C1513 C1512 1.349 . S
C1513 C1529 1.349 1_455 S
C1514 C1512 1.327 . S
C1514 C1533 1.429 . S
C1514 H1538 0.950 . S
C1515 C1532 1.574 . S
C1515 C1534 1.368 1_655 S
C1515 H1539 0.949 . S
H1516 C1520 0.949 . S
C1517 C1518 1.327 1_655 S
C1517 C1519 1.330 . S
C1517 H1540 0.970 . S
C1518 C1517 1.327 1_455 S
C1518 C1530 1.349 . S
C1519 C1517 1.330 . S
C1519 C1535 1.429 1_655 S
C1519 H1541 0.950 . S
C1520 H1516 0.949 . S
C1520 C1528 1.574 . S
C1520 C1536 1.368 . S
H1521 C1529 0.950 . S
H1522 C1527 0.950 . S
H1523 C1528 0.949 . S
H1524 C1530 0.950 . S
H1525 C1531 0.950 . S
H1526 C1532 0.949 . S
C1527 H1522 0.950 . S
C1527 C1529 1.327 . S
C1527 C1533 1.429 1_655 S
C1528 C1520 1.574 . S
C1528 H1523 0.949 . S
C1528 C1534 1.368 . S
C1529 C1513 1.349 1_655 S
C1529 H1521 0.950 . S
C1529 C1527 1.327 . S
C1530 C1518 1.349 . S
C1530 H1524 0.950 . S
C1530 C1531 1.327 . S
C1531 H1525 0.950 . S
C1531 C1530 1.327 . S
C1531 C1535 1.429 . S
C1532 C1515 1.574 . S
C1532 H1526 0.949 . S
C1532 C1536 1.368 1_655 S
C1533 C1514 1.429 . S
C1533 C1527 1.429 1_455 S
C1533 C1534 1.523 . S
C1534 C1515 1.368 1_455 S
C1534 C1528 1.368 . S
C1534 C1533 1.523 . S
C1535 C1519 1.429 1_455 S
C1535 C1531 1.429 . S
C1535 C1536 1.523 . S
C1536 C1520 1.368 . S
C1536 C1532 1.368 1_455 S
C1536 C1535 1.523 . S
H1537 C1512 0.950 . S
H1538 C1514 0.950 . S
H1539 C1515 0.949 . S
H1540 C1517 0.970 . S
H1541 C1519 0.950 . S
C1542 C1543 1.349 . S
C1542 C1544 1.327 . S
C1542 H1567 0.950 . S
C1543 C1542 1.349 . S
C1543 C1559 1.349 . S
C1544 C1542 1.327 . S
C1544 C1563 1.429 . S
C1544 H1568 0.950 . S
C1545 C1562 1.574 . S
C1545 C1564 1.368 . S
C1545 H1569 0.949 . S
H1546 C1550 0.949 . S
C1547 C1548 1.349 . S
C1547 C1549 1.327 . S
C1547 H1570 0.950 . S
C1548 C1547 1.349 . S
C1548 C1560 1.349 . S
C1549 C1547 1.327 . S
C1549 C1565 1.429 . S
C1549 H1571 0.950 . S
C1550 H1546 0.949 . S
C1550 C1558 1.574 . S
C1550 C1566 1.368 . S
H1551 C1559 0.950 . S
H1552 C1557 0.950 . S
H1553 C1558 0.949 . S
H1554 C1560 0.950 . S
H1555 C1561 0.950 . S
H1556 C1562 0.949 . S
C1557 H1552 0.950 . S
C1557 C1559 1.327 . S
C1557 C1563 1.429 . S
C1558 C1550 1.574 . S
C1558 H1553 0.949 . S
C1558 C1564 1.368 . S
C1559 C1543 1.349 . S
C1559 H1551 0.950 . S
C1559 C1557 1.327 . S
C1560 C1548 1.349 . S
C1560 H1554 0.950 . S
C1560 C1561 1.327 . S
C1561 H1555 0.950 . S
C1561 C1560 1.327 . S
C1561 C1565 1.429 . S
C1562 C1545 1.574 . S
C1562 H1556 0.949 . S
C1562 C1566 1.368 . S
C1563 C1544 1.429 . S
C1563 C1557 1.429 . S
C1563 C1564 1.523 . S
C1564 C1545 1.368 . S
C1564 C1558 1.368 . S
C1564 C1563 1.523 . S
C1565 C1549 1.429 . S
C1565 C1561 1.429 . S
C1565 C1566 1.523 . S
C1566 C1550 1.368 . S
C1566 C1562 1.368 . S
C1566 C1565 1.523 . S
H1567 C1542 0.950 . S
H1568 C1544 0.950 . S
H1569 C1545 0.949 . S
H1570 C1547 0.950 . S
H1571 C1549 0.950 . S
C1572 C1573 1.349 . S
C1572 C1574 1.327 . S
C1572 H1597 0.950 . S
C1573 C1572 1.349 . S
C1573 C1589 1.349 . S
C1574 C1572 1.327 . S
C1574 C1593 1.429 . S
C1574 H1598 0.950 . S
C1575 C1592 1.574 . S
C1575 C1594 1.368 . S
C1575 H1599 0.949 . S
H1576 C1580 0.949 . S
C1577 C1578 1.349 . S
C1577 C1579 1.327 . S
C1577 H1600 0.950 . S
C1578 C1577 1.349 . S
C1578 C1590 1.349 . S
C1579 C1577 1.327 . S
C1579 C1595 1.429 . S
C1579 H1601 0.950 . S
C1580 H1576 0.949 . S
C1580 C1588 1.574 . S
C1580 C1596 1.368 . S
H1581 C1589 0.950 . S
H1582 C1587 0.950 . S
H1583 C1588 0.949 . S
H1584 C1590 0.950 . S
H1585 C1591 0.950 . S
H1586 C1592 0.949 . S
C1587 H1582 0.950 . S
C1587 C1589 1.327 . S
C1587 C1593 1.429 . S
C1588 C1580 1.574 . S
C1588 H1583 0.949 . S
C1588 C1594 1.368 . S
C1589 C1573 1.349 . S
C1589 H1581 0.950 . S
C1589 C1587 1.327 . S
C1590 C1578 1.349 . S
C1590 H1584 0.950 . S
C1590 C1591 1.327 . S
C1591 H1585 0.950 . S
C1591 C1590 1.327 . S
C1591 C1595 1.429 . S
C1592 C1575 1.574 . S
C1592 H1586 0.949 . S
C1592 C1596 1.368 . S
C1593 C1574 1.429 . S
C1593 C1587 1.429 . S
C1593 C1594 1.523 . S
C1594 C1575 1.368 . S
C1594 C1588 1.368 . S
C1594 C1593 1.523 . S
C1595 C1579 1.429 . S
C1595 C1591 1.429 . S
C1595 C1596 1.523 . S
C1596 C1580 1.368 . S
C1596 C1592 1.368 . S
C1596 C1595 1.523 . S
H1597 C1572 0.950 . S
H1598 C1574 0.950 . S
H1599 C1575 0.949 . S
H1600 C1577 0.950 . S
H1601 C1579 0.950 . S
C1602 C1603 1.349 . S
C1602 C1604 1.327 . S
C1602 H1627 0.950 . S
C1603 C1602 1.349 . S
C1603 C1619 1.349 . S
C1604 C1602 1.327 . S
C1604 C1623 1.429 . S
C1604 H1628 0.950 . S
C1605 C1622 1.574 . S
C1605 C1624 1.368 . S
C1605 H1629 0.949 . S
H1606 C1610 0.949 . S
C1607 C1608 1.349 . S
C1607 C1609 1.327 . S
C1607 H1630 0.950 . S
C1608 C1607 1.349 . S
C1608 C1620 1.349 . S
C1609 C1607 1.327 . S
C1609 C1625 1.429 . S
C1609 H1631 0.950 . S
C1610 H1606 0.949 . S
C1610 C1618 1.574 . S
C1610 C1626 1.368 . S
H1611 C1619 0.950 . S
H1612 C1617 0.950 . S
H1613 C1618 0.949 . S
H1614 C1620 0.950 . S
H1615 C1621 0.950 . S
H1616 C1622 0.949 . S
C1617 H1612 0.950 . S
C1617 C1619 1.327 . S
C1617 C1623 1.429 . S
C1618 C1610 1.574 . S
C1618 H1613 0.949 . S
C1618 C1624 1.368 . S
C1619 C1603 1.349 . S
C1619 H1611 0.950 . S
C1619 C1617 1.327 . S
C1620 C1608 1.349 . S
C1620 H1614 0.950 . S
C1620 C1621 1.327 . S
C1621 H1615 0.950 . S
C1621 C1620 1.327 . S
C1621 C1625 1.429 . S
C1622 C1605 1.574 . S
C1622 H1616 0.949 . S
C1622 C1626 1.368 . S
C1623 C1604 1.429 . S
C1623 C1617 1.429 . S
C1623 C1624 1.523 . S
C1624 C1605 1.368 . S
C1624 C1618 1.368 . S
C1624 C1623 1.523 . S
C1625 C1609 1.429 . S
C1625 C1621 1.429 . S
C1625 C1626 1.523 . S
C1626 C1610 1.368 . S
C1626 C1622 1.368 . S
C1626 C1625 1.523 . S
H1627 C1602 0.950 . S
H1628 C1604 0.950 . S
H1629 C1605 0.949 . S
H1630 C1607 0.950 . S
H1631 C1609 0.950 . S
C1632 C1633 1.346 1_545 S
C1632 C1634 1.327 . S
C1632 H1657 0.950 . S
C1633 C1632 1.346 1_565 S
C1633 C1649 1.352 . S
C1634 C1632 1.327 . S
C1634 C1653 1.429 . S
C1634 H1658 0.950 . S
C1635 C1652 1.574 . S
C1635 C1654 1.368 1_565 S
C1635 H1659 0.949 . S
H1636 C1640 0.949 . S
C1637 C1638 1.349 1_565 S
C1637 C1639 1.327 . S
C1637 H1660 0.950 . S
C1638 C1637 1.349 1_545 S
C1638 C1650 1.349 . S
C1639 C1637 1.327 . S
C1639 C1655 1.429 1_565 S
C1639 H1661 0.950 . S
C1640 H1636 0.949 . S
C1640 C1648 1.574 . S
C1640 C1656 1.368 . S
H1641 C1649 0.950 . S
H1642 C1647 0.950 . S
H1643 C1648 0.949 . S
H1644 C1650 0.950 . S
H1645 C1651 0.950 . S
H1646 C1652 0.949 . S
C1647 H1642 0.950 . S
C1647 C1649 1.327 . S
C1647 C1653 1.429 1_565 S
C1648 C1640 1.574 . S
C1648 H1643 0.949 . S
C1648 C1654 1.368 . S
C1649 C1633 1.352 . S
C1649 H1641 0.950 . S
C1649 C1647 1.327 . S
C1650 C1638 1.349 . S
C1650 H1644 0.950 . S
C1650 C1651 1.327 . S
C1651 H1645 0.950 . S
C1651 C1650 1.327 . S
C1651 C1655 1.429 . S
C1652 C1635 1.574 . S
C1652 H1646 0.949 . S
C1652 C1656 1.368 1_565 S
C1653 C1634 1.429 . S
C1653 C1647 1.429 1_545 S
C1653 C1654 1.523 . S
C1654 C1635 1.368 1_545 S
C1654 C1648 1.368 . S
C1654 C1653 1.523 . S
C1655 C1639 1.429 1_545 S
C1655 C1651 1.429 . S
C1655 C1656 1.523 . S
C1656 C1640 1.368 . S
C1656 C1652 1.368 1_545 S
C1656 C1655 1.523 . S
H1657 C1632 0.950 . S
H1658 C1634 0.950 . S
H1659 C1635 0.949 . S
H1660 C1637 0.950 . S
H1661 C1639 0.950 . S
C1662 C1663 1.349 . S
C1662 C1664 1.327 . S
C1662 H1687 0.950 . S
C1663 C1662 1.349 . S
C1663 C1679 1.349 . S
C1664 C1662 1.327 . S
C1664 C1683 1.429 . S
C1664 H1688 0.950 . S
C1665 C1682 1.574 . S
C1665 C1684 1.368 . S
C1665 H1689 0.949 . S
H1666 C1670 0.949 . S
C1667 C1668 1.349 . S
C1667 C1669 1.327 . S
C1667 H1690 0.950 . S
C1668 C1667 1.349 . S
C1668 C1680 1.349 . S
C1669 C1667 1.327 . S
C1669 C1685 1.429 . S
C1669 H1691 0.950 . S
C1670 H1666 0.949 . S
C1670 C1678 1.574 . S
C1670 C1686 1.368 . S
H1671 C1679 0.950 . S
H1672 C1677 0.950 . S
H1673 C1678 0.949 . S
H1674 C1680 0.950 . S
H1675 C1681 0.950 . S
H1676 C1682 0.949 . S
C1677 H1672 0.950 . S
C1677 C1679 1.327 . S
C1677 C1683 1.429 . S
C1678 C1670 1.574 . S
C1678 H1673 0.949 . S
C1678 C1684 1.368 . S
C1679 C1663 1.349 . S
C1679 H1671 0.950 . S
C1679 C1677 1.327 . S
C1680 C1668 1.349 . S
C1680 H1674 0.950 . S
C1680 C1681 1.327 . S
C1681 H1675 0.950 . S
C1681 C1680 1.327 . S
C1681 C1685 1.429 . S
C1682 C1665 1.574 . S
C1682 H1676 0.949 . S
C1682 C1686 1.368 . S
C1683 C1664 1.429 . S
C1683 C1677 1.429 . S
C1683 C1684 1.523 . S
C1684 C1665 1.368 . S
C1684 C1678 1.368 . S
C1684 C1683 1.523 . S
C1685 C1669 1.429 . S
C1685 C1681 1.429 . S
C1685 C1686 1.523 . S
C1686 C1670 1.368 . S
C1686 C1682 1.368 . S
C1686 C1685 1.523 . S
H1687 C1662 0.950 . S
H1688 C1664 0.950 . S
H1689 C1665 0.949 . S
H1690 C1667 0.950 . S
H1691 C1669 0.950 . S
C1692 C1693 1.349 1_565 S
C1692 C1694 1.327 . S
C1692 H1717 0.950 . S
C1693 C1692 1.349 1_545 S
C1693 C1709 1.349 . S
C1694 C1692 1.327 . S
C1694 C1713 1.429 1_565 S
C1694 H1718 0.950 . S
C1695 C1712 1.574 . S
C1695 C1714 1.368 . S
C1695 H1719 0.949 . S
H1696 C1700 0.949 . S
C1697 C1698 1.349 1_545 S
C1697 C1699 1.327 . S
C1697 H1720 0.950 . S
C1698 C1697 1.349 1_565 S
C1698 C1710 1.349 . S
C1699 C1697 1.327 . S
C1699 C1715 1.402 1_545 S
C1699 H1721 0.950 . S
C1700 H1696 0.949 . S
C1700 C1708 1.574 . S
C1700 C1716 1.333 1_565 S
H1701 C1709 0.950 . S
H1702 C1707 0.950 . S
H1703 C1708 0.949 . S
H1704 C1710 0.950 . S
H1705 C1711 0.950 . S
H1706 C1712 0.949 . S
C1707 H1702 0.950 . S
C1707 C1709 1.327 . S
C1707 C1713 1.429 . S
C1708 C1700 1.574 . S
C1708 H1703 0.949 . S
C1708 C1714 1.368 1_565 S
C1709 C1693 1.349 . S
C1709 H1701 0.950 . S
C1709 C1707 1.327 . S
C1710 C1698 1.349 . S
C1710 H1704 0.950 . S
C1710 C1711 1.327 . S
C1711 H1705 0.950 . S
C1711 C1710 1.327 . S
C1711 C1715 1.460 . S
C1712 C1695 1.574 . S
C1712 H1706 0.949 . S
C1712 C1716 1.407 . S
C1713 C1694 1.429 1_545 S
C1713 C1707 1.429 . S
C1713 C1714 1.523 . S
C1714 C1695 1.368 . S
C1714 C1708 1.368 1_545 S
C1714 C1713 1.523 . S
C1715 C1699 1.402 1_565 S
C1715 C1711 1.460 . S
C1715 C1716 1.518 1_565 S
C1716 C1700 1.333 1_545 S
C1716 C1712 1.407 . S
C1716 C1715 1.518 1_545 S
H1717 C1692 0.950 . S
H1718 C1694 0.950 . S
H1719 C1695 0.949 . S
H1720 C1697 0.950 . S
H1721 C1699 0.950 . S
C1722 C1723 1.349 . S
C1722 C1724 1.327 . S
C1722 H1747 0.950 . S
C1723 C1722 1.349 . S
C1723 C1739 1.349 . S
C1724 C1722 1.327 . S
C1724 C1743 1.429 . S
C1724 H1748 0.950 . S
C1725 C1742 1.574 . S
C1725 C1744 1.368 . S
C1725 H1749 0.949 . S
H1726 C1730 0.949 . S
C1727 C1728 1.349 . S
C1727 C1729 1.327 . S
C1727 H1750 0.950 . S
C1728 C1727 1.349 . S
C1728 C1740 1.349 . S
C1729 C1727 1.327 . S
C1729 C1745 1.429 . S
C1729 H1751 0.950 . S
C1730 H1726 0.949 . S
C1730 C1738 1.574 . S
C1730 C1746 1.368 . S
H1731 C1739 0.950 . S
H1732 C1737 0.950 . S
H1733 C1738 0.949 . S
H1734 C1740 0.950 . S
H1735 C1741 0.950 . S
H1736 C1742 0.949 . S
C1737 H1732 0.950 . S
C1737 C1739 1.327 . S
C1737 C1743 1.429 . S
C1738 C1730 1.574 . S
C1738 H1733 0.949 . S
C1738 C1744 1.368 . S
C1739 C1723 1.349 . S
C1739 H1731 0.950 . S
C1739 C1737 1.327 . S
C1740 C1728 1.349 . S
C1740 H1734 0.950 . S
C1740 C1741 1.327 . S
C1741 H1735 0.950 . S
C1741 C1740 1.327 . S
C1741 C1745 1.429 . S
C1742 C1725 1.574 . S
C1742 H1736 0.949 . S
C1742 C1746 1.368 . S
C1743 C1724 1.429 . S
C1743 C1737 1.429 . S
C1743 C1744 1.523 . S
C1744 C1725 1.368 . S
C1744 C1738 1.368 . S
C1744 C1743 1.523 . S
C1745 C1729 1.429 . S
C1745 C1741 1.429 . S
C1745 C1746 1.523 . S
C1746 C1730 1.368 . S
C1746 C1742 1.368 . S
C1746 C1745 1.523 . S
H1747 C1722 0.950 . S
H1748 C1724 0.950 . S
H1749 C1725 0.949 . S
H1750 C1727 0.950 . S
H1751 C1729 0.950 . S
C1752 C1753 1.349 . S
C1752 C1754 1.327 . S
C1752 H1777 0.950 . S
C1753 C1752 1.349 . S
C1753 C1769 1.349 1_565 S
C1754 C1752 1.327 . S
C1754 C1773 1.429 . S
C1754 H1778 0.950 . S
C1755 C1772 1.574 . S
C1755 C1774 1.368 1_545 S
C1755 H1779 0.949 . S
H1756 C1760 0.949 . S
C1757 C1758 1.349 1_545 S
C1757 C1759 1.327 . S
C1757 H1780 0.950 . S
C1758 C1757 1.349 1_565 S
C1758 C1770 1.349 . S
C1759 C1757 1.327 . S
C1759 C1775 1.429 1_545 S
C1759 H1781 0.950 . S
C1760 H1756 0.949 . S
C1760 C1768 1.574 . S
C1760 C1776 1.368 . S
H1761 C1769 0.950 . S
H1762 C1767 0.950 . S
H1763 C1768 0.949 . S
H1764 C1770 0.950 . S
H1765 C1771 0.950 . S
H1766 C1772 0.949 . S
C1767 H1762 0.950 . S
C1767 C1769 1.327 . S
C1767 C1773 1.429 1_545 S
C1768 C1760 1.574 . S
C1768 H1763 0.949 . S
C1768 C1774 1.368 . S
C1769 C1753 1.349 1_545 S
C1769 H1761 0.950 . S
C1769 C1767 1.327 . S
C1770 C1758 1.349 . S
C1770 H1764 0.950 . S
C1770 C1771 1.327 . S
C1771 H1765 0.950 . S
C1771 C1770 1.327 . S
C1771 C1775 1.429 . S
C1772 C1755 1.574 . S
C1772 H1766 0.949 . S
C1772 C1776 1.368 1_545 S
C1773 C1754 1.429 . S
C1773 C1767 1.429 1_565 S
C1773 C1774 1.523 . S
C1774 C1755 1.368 1_565 S
C1774 C1768 1.368 . S
C1774 C1773 1.523 . S
C1775 C1759 1.429 1_565 S
C1775 C1771 1.429 . S
C1775 C1776 1.523 . S
C1776 C1760 1.368 . S
C1776 C1772 1.368 1_565 S
C1776 C1775 1.523 . S
H1777 C1752 0.950 . S
H1778 C1754 0.950 . S
H1779 C1755 0.949 . S
H1780 C1757 0.950 . S
H1781 C1759 0.950 . S
C1782 C1783 1.349 . S
C1782 C1784 1.327 . S
C1782 H1807 0.950 . S
C1783 C1782 1.349 . S
C1783 C1799 1.349 . S
C1784 C1782 1.327 . S
C1784 C1803 1.429 . S
C1784 H1808 0.950 . S
C1785 C1802 1.574 . S
C1785 C1804 1.368 . S
C1785 H1809 0.949 . S
H1786 C1790 0.949 . S
C1787 C1788 1.349 . S
C1787 C1789 1.327 . S
C1787 H1810 0.950 . S
C1788 C1787 1.349 . S
C1788 C1800 1.349 . S
C1789 C1787 1.327 . S
C1789 C1805 1.429 . S
C1789 H1811 0.950 . S
C1790 H1786 0.949 . S
C1790 C1798 1.574 . S
C1790 C1806 1.368 . S
H1791 C1799 0.950 . S
H1792 C1797 0.950 . S
H1793 C1798 0.949 . S
H1794 C1800 0.950 . S
H1795 C1801 0.950 . S
H1796 C1802 0.949 . S
C1797 H1792 0.950 . S
C1797 C1799 1.327 . S
C1797 C1803 1.429 . S
C1798 C1790 1.574 . S
C1798 H1793 0.949 . S
C1798 C1804 1.368 . S
C1799 C1783 1.349 . S
C1799 H1791 0.950 . S
C1799 C1797 1.327 . S
C1800 C1788 1.349 . S
C1800 H1794 0.950 . S
C1800 C1801 1.327 . S
C1801 H1795 0.950 . S
C1801 C1800 1.327 . S
C1801 C1805 1.429 . S
C1802 C1785 1.574 . S
C1802 H1796 0.949 . S
C1802 C1806 1.368 . S
C1803 C1784 1.429 . S
C1803 C1797 1.429 . S
C1803 C1804 1.523 . S
C1804 C1785 1.368 . S
C1804 C1798 1.368 . S
C1804 C1803 1.523 . S
C1805 C1789 1.429 . S
C1805 C1801 1.429 . S
C1805 C1806 1.523 . S
C1806 C1790 1.368 . S
C1806 C1802 1.368 . S
C1806 C1805 1.523 . S
H1807 C1782 0.950 . S
H1808 C1784 0.950 . S
H1809 C1785 0.949 . S
H1810 C1787 0.950 . S
H1811 C1789 0.950 . S
C1812 C1813 1.349 1_565 S
C1812 C1814 1.327 . S
C1812 H1837 0.950 . S
C1813 C1812 1.349 1_545 S
C1813 C1829 1.349 . S
C1814 C1812 1.327 . S
C1814 C1833 1.429 1_565 S
C1814 H1838 0.950 . S
C1815 C1832 1.574 . S
C1815 C1834 1.368 . S
C1815 H1839 0.949 . S
H1816 C1820 0.949 . S
C1817 C1818 1.349 . S
C1817 C1819 1.327 . S
C1817 H1840 0.950 . S
C1818 C1817 1.349 . S
C1818 C1830 1.349 . S
C1819 C1817 1.327 . S
C1819 C1835 1.429 . S
C1819 H1841 0.950 . S
C1820 H1816 0.949 . S
C1820 C1828 1.574 . S
C1820 C1836 1.368 1_565 S
H1821 C1829 0.950 . S
H1822 C1827 0.950 . S
H1823 C1828 0.949 . S
H1824 C1830 0.950 1_565 S
H1825 C1831 0.949 1_565 S
H1826 C1832 0.949 . S
C1827 H1822 0.950 . S
C1827 C1829 1.327 . S
C1827 C1833 1.429 . S
C1828 C1820 1.574 . S
C1828 H1823 0.949 . S
C1828 C1834 1.368 1_565 S
C1829 C1813 1.349 . S
C1829 H1821 0.950 . S
C1829 C1827 1.327 . S
C1830 C1818 1.349 . S
C1830 H1824 0.950 1_545 S
C1830 C1831 1.327 . S
C1831 H1825 0.949 1_545 S
C1831 C1830 1.327 . S
C1831 C1835 1.429 . S
C1832 C1815 1.574 . S
C1832 H1826 0.949 . S
C1832 C1836 1.368 . S
C1833 C1814 1.429 1_545 S
C1833 C1827 1.429 . S
C1833 C1834 1.523 . S
C1834 C1815 1.368 . S
C1834 C1828 1.368 1_545 S
C1834 C1833 1.523 . S
C1835 C1819 1.429 . S
C1835 C1831 1.429 . S
C1835 C1836 1.523 . S
C1836 C1820 1.368 1_545 S
C1836 C1832 1.368 . S
C1836 C1835 1.523 . S
H1837 C1812 0.950 . S
H1838 C1814 0.950 . S
H1839 C1815 0.949 . S
H1840 C1817 0.950 . S
H1841 C1819 0.950 . S
C1842 C1843 1.349 . S
C1842 C1844 1.327 . S
C1842 H1867 0.950 . S
C1843 C1842 1.349 . S
C1843 C1859 1.349 . S
C1844 C1842 1.327 . S
C1844 C1863 1.429 . S
C1844 H1868 0.950 . S
C1845 C1862 1.574 . S
C1845 C1864 1.368 . S
C1845 H1869 0.949 . S
H1846 C1850 0.949 . S
C1847 C1848 1.349 . S
C1847 C1849 1.327 . S
C1847 H1870 0.950 . S
C1848 C1847 1.349 . S
C1848 C1860 1.349 . S
C1849 C1847 1.327 . S
C1849 C1865 1.429 . S
C1849 H1871 0.950 . S
C1850 H1846 0.949 . S
C1850 C1858 1.574 . S
C1850 C1866 1.368 . S
H1851 C1859 0.950 . S
H1852 C1857 0.950 . S
H1853 C1858 0.949 . S
H1854 C1860 0.950 . S
H1855 C1861 0.950 . S
H1856 C1862 0.949 . S
C1857 H1852 0.950 . S
C1857 C1859 1.327 . S
C1857 C1863 1.429 . S
C1858 C1850 1.574 . S
C1858 H1853 0.949 . S
C1858 C1864 1.368 . S
C1859 C1843 1.349 . S
C1859 H1851 0.950 . S
C1859 C1857 1.327 . S
C1860 C1848 1.349 . S
C1860 H1854 0.950 . S
C1860 C1861 1.327 . S
C1861 H1855 0.950 . S
C1861 C1860 1.327 . S
C1861 C1865 1.429 . S
C1862 C1845 1.574 . S
C1862 H1856 0.949 . S
C1862 C1866 1.368 . S
C1863 C1844 1.429 . S
C1863 C1857 1.429 . S
C1863 C1864 1.523 . S
C1864 C1845 1.368 . S
C1864 C1858 1.368 . S
C1864 C1863 1.523 . S
C1865 C1849 1.429 . S
C1865 C1861 1.429 . S
C1865 C1866 1.523 . S
C1866 C1850 1.368 . S
C1866 C1862 1.368 . S
C1866 C1865 1.523 . S
H1867 C1842 0.950 . S
H1868 C1844 0.950 . S
H1869 C1845 0.949 . S
H1870 C1847 0.950 . S
H1871 C1849 0.950 . S
C1872 C1873 1.349 . S
C1872 C1874 1.327 . S
C1872 H1897 0.950 . S
C1873 C1872 1.349 . S
C1873 C1889 1.349 1_554 S
C1874 C1872 1.327 . S
C1874 C1893 1.429 . S
C1874 H1898 0.950 . S
C1875 C1892 1.574 . S
C1875 C1894 1.368 1_556 S
C1875 H1899 0.949 . S
H1876 C1880 0.949 . S
C1877 C1878 1.349 . S
C1877 C1879 1.329 . S
C1877 H1900 0.950 1_554 S
C1878 C1877 1.349 . S
C1878 C1890 1.349 . S
C1879 C1877 1.329 . S
C1879 C1895 1.451 . S
C1879 H1901 0.926 1_554 S
C1880 H1876 0.949 . S
C1880 C1888 1.574 . S
C1880 C1896 1.368 . S
H1881 C1889 0.950 . S
H1882 C1887 0.950 . S
H1883 C1888 0.949 . S
H1884 C1890 0.950 . S
H1885 C1891 0.950 . S
H1886 C1892 0.949 . S
C1887 H1882 0.950 . S
C1887 C1889 1.327 . S
C1887 C1893 1.429 1_556 S
C1888 C1880 1.574 . S
C1888 H1883 0.949 . S
C1888 C1894 1.368 . S
C1889 C1873 1.349 1_556 S
C1889 H1881 0.950 . S
C1889 C1887 1.327 . S
C1890 C1878 1.349 . S
C1890 H1884 0.950 . S
C1890 C1891 1.327 . S
C1891 H1885 0.950 . S
C1891 C1890 1.327 . S
C1891 C1895 1.429 . S
C1892 C1875 1.574 . S
C1892 H1886 0.949 . S
C1892 C1896 1.368 1_556 S
C1893 C1874 1.429 . S
C1893 C1887 1.429 1_554 S
C1893 C1894 1.523 . S
C1894 C1875 1.368 1_554 S
C1894 C1888 1.368 . S
C1894 C1893 1.523 . S
C1895 C1879 1.451 . S
C1895 C1891 1.429 . S
C1895 C1896 1.523 . S
C1896 C1880 1.368 . S
C1896 C1892 1.368 1_554 S
C1896 C1895 1.523 . S
H1897 C1872 0.950 . S
H1898 C1874 0.950 . S
H1899 C1875 0.949 . S
H1900 C1877 0.950 1_556 S
H1901 C1879 0.926 1_556 S
C1902 C1903 1.349 . S
C1902 C1904 1.327 . S
C1902 H1927 0.950 . S
C1903 C1902 1.349 . S
C1903 C1919 1.349 1_554 S
C1904 C1902 1.327 . S
C1904 C1923 1.467 . S
C1904 H1928 0.950 . S
C1905 C1922 1.574 . S
C1905 C1924 1.366 . S
C1905 H1929 0.949 . S
H1906 C1910 0.949 . S
C1907 C1908 1.349 . S
C1907 C1909 1.327 . S
C1907 H1930 0.950 . S
C1908 C1907 1.349 . S
C1908 C1920 1.349 1_556 S
C1909 C1907 1.327 . S
C1909 C1925 1.429 . S
C1909 H1931 0.950 . S
C1910 H1906 0.949 . S
C1910 C1918 1.574 . S
C1910 C1926 1.368 1_554 S
H1911 C1919 0.950 . S
H1912 C1917 0.950 . S
H1913 C1918 0.949 . S
H1914 C1920 0.950 . S
H1915 C1921 0.950 . S
H1916 C1922 0.949 . S
C1917 H1912 0.950 . S
C1917 C1919 1.327 . S
C1917 C1923 1.393 1_556 S
C1918 C1910 1.574 . S
C1918 H1913 0.949 . S
C1918 C1924 1.370 1_554 S
C1919 C1903 1.349 1_556 S
C1919 H1911 0.950 . S
C1919 C1917 1.327 . S
C1920 C1908 1.349 1_554 S
C1920 H1914 0.950 . S
C1920 C1921 1.327 . S
C1921 H1915 0.950 . S
C1921 C1920 1.327 . S
C1921 C1925 1.429 1_554 S
C1922 C1905 1.574 . S
C1922 H1916 0.949 . S
C1922 C1926 1.368 . S
C1923 C1904 1.467 . S
C1923 C1917 1.393 1_554 S
C1923 C1924 1.522 1_554 S
C1924 C1905 1.366 . S
C1924 C1918 1.370 1_556 S
C1924 C1923 1.522 1_556 S
C1925 C1909 1.429 . S
C1925 C1921 1.429 1_556 S
C1925 C1926 1.523 . S
C1926 C1910 1.368 1_556 S
C1926 C1922 1.368 . S
C1926 C1925 1.523 . S
H1927 C1902 0.950 . S
H1928 C1904 0.950 . S
H1929 C1905 0.949 . S
H1930 C1907 0.950 . S
H1931 C1909 0.950 . S
C1932 C1933 1.349 . S
C1932 C1934 1.327 . S
C1932 H1957 0.950 . S
C1933 C1932 1.349 . S
C1933 C1949 1.349 . S
C1934 C1932 1.327 . S
C1934 C1953 1.429 . S
C1934 H1958 0.950 . S
C1935 C1952 1.574 . S
C1935 C1954 1.368 . S
C1935 H1959 0.949 . S
H1936 C1940 0.949 . S
C1937 C1938 1.349 . S
C1937 C1939 1.327 . S
C1937 H1960 0.950 . S
C1938 C1937 1.349 . S
C1938 C1950 1.349 . S
C1939 C1937 1.327 . S
C1939 C1955 1.429 . S
C1939 H1961 0.950 . S
C1940 H1936 0.949 . S
C1940 C1948 1.574 . S
C1940 C1956 1.368 . S
H1941 C1949 0.950 . S
H1942 C1947 0.950 . S
H1943 C1948 0.949 . S
H1944 C1950 0.950 . S
H1945 C1951 0.950 . S
H1946 C1952 0.949 . S
C1947 H1942 0.950 . S
C1947 C1949 1.327 . S
C1947 C1953 1.429 . S
C1948 C1940 1.574 . S
C1948 H1943 0.949 . S
C1948 C1954 1.368 . S
C1949 C1933 1.349 . S
C1949 H1941 0.950 . S
C1949 C1947 1.327 . S
C1950 C1938 1.349 . S
C1950 H1944 0.950 . S
C1950 C1951 1.327 . S
C1951 H1945 0.950 . S
C1951 C1950 1.327 . S
C1951 C1955 1.429 . S
C1952 C1935 1.574 . S
C1952 H1946 0.949 . S
C1952 C1956 1.368 . S
C1953 C1934 1.429 . S
C1953 C1947 1.429 . S
C1953 C1954 1.523 . S
C1954 C1935 1.368 . S
C1954 C1948 1.368 . S
C1954 C1953 1.523 . S
C1955 C1939 1.429 . S
C1955 C1951 1.429 . S
C1955 C1956 1.523 . S
C1956 C1940 1.368 . S
C1956 C1952 1.368 . S
C1956 C1955 1.523 . S
H1957 C1932 0.950 . S
H1958 C1934 0.950 . S
H1959 C1935 0.949 . S
H1960 C1937 0.950 . S
H1961 C1939 0.950 . S
C1962 C1963 1.349 . S
C1962 C1964 1.327 . S
C1962 H1987 0.950 . S
C1963 C1962 1.349 . S
C1963 C1979 1.349 . S
C1964 C1962 1.327 . S
C1964 C1983 1.429 . S
C1964 H1988 0.950 . S
C1965 C1982 1.574 . S
C1965 C1984 1.368 . S
C1965 H1989 0.949 . S
H1966 C1970 0.949 . S
C1967 C1968 1.349 . S
C1967 C1969 1.327 . S
C1967 H1990 0.950 . S
C1968 C1967 1.349 . S
C1968 C1980 1.349 . S
C1969 C1967 1.327 . S
C1969 C1985 1.429 . S
C1969 H1991 0.950 . S
C1970 H1966 0.949 . S
C1970 C1978 1.574 . S
C1970 C1986 1.368 . S
H1971 C1979 0.950 . S
H1972 C1977 0.950 . S
H1973 C1978 0.949 . S
H1974 C1980 0.950 . S
H1975 C1981 0.950 . S
H1976 C1982 0.949 . S
C1977 H1972 0.950 . S
C1977 C1979 1.327 . S
C1977 C1983 1.429 . S
C1978 C1970 1.574 . S
C1978 H1973 0.949 . S
C1978 C1984 1.368 . S
C1979 C1963 1.349 . S
C1979 H1971 0.950 . S
C1979 C1977 1.327 . S
C1980 C1968 1.349 . S
C1980 H1974 0.950 . S
C1980 C1981 1.327 . S
C1981 H1975 0.950 . S
C1981 C1980 1.327 . S
C1981 C1985 1.429 . S
C1982 C1965 1.574 . S
C1982 H1976 0.949 . S
C1982 C1986 1.368 . S
C1983 C1964 1.429 . S
C1983 C1977 1.429 . S
C1983 C1984 1.523 . S
C1984 C1965 1.368 . S
C1984 C1978 1.368 . S
C1984 C1983 1.523 . S
C1985 C1969 1.429 . S
C1985 C1981 1.429 . S
C1985 C1986 1.523 . S
C1986 C1970 1.368 . S
C1986 C1982 1.368 . S
C1986 C1985 1.523 . S
H1987 C1962 0.950 . S
H1988 C1964 0.950 . S
H1989 C1965 0.949 . S
H1990 C1967 0.950 . S
H1991 C1969 0.950 . S
C1992 C1993 1.349 . S
C1992 C1994 1.327 . S
C1992 H2017 0.950 . S
C1993 C1992 1.349 . S
C1993 C2009 1.349 . S
C1994 C1992 1.327 . S
C1994 C2013 1.429 . S
C1994 H2018 0.950 . S
C1995 C2012 1.574 . S
C1995 C2014 1.368 . S
C1995 H2019 0.949 . S
H1996 C2000 0.949 . S
C1997 C1998 1.349 . S
C1997 C1999 1.327 . S
C1997 H2020 0.950 . S
C1998 C1997 1.349 . S
C1998 C2010 1.349 . S
C1999 C1997 1.327 . S
C1999 C2015 1.429 . S
C1999 H2021 0.950 . S
C2000 H1996 0.949 . S
C2000 C2008 1.574 . S
C2000 C2016 1.368 . S
H2001 C2009 0.950 . S
H2002 C2007 0.950 . S
H2003 C2008 0.949 . S
H2004 C2010 0.950 . S
H2005 C2011 0.950 . S
H2006 C2012 0.949 . S
C2007 H2002 0.950 . S
C2007 C2009 1.327 . S
C2007 C2013 1.429 . S
C2008 C2000 1.574 . S
C2008 H2003 0.949 . S
C2008 C2014 1.368 . S
C2009 C1993 1.349 . S
C2009 H2001 0.950 . S
C2009 C2007 1.327 . S
C2010 C1998 1.349 . S
C2010 H2004 0.950 . S
C2010 C2011 1.327 . S
C2011 H2005 0.950 . S
C2011 C2010 1.327 . S
C2011 C2015 1.429 . S
C2012 C1995 1.574 . S
C2012 H2006 0.949 . S
C2012 C2016 1.368 . S
C2013 C1994 1.429 . S
C2013 C2007 1.429 . S
C2013 C2014 1.523 . S
C2014 C1995 1.368 . S
C2014 C2008 1.368 . S
C2014 C2013 1.523 . S
C2015 C1999 1.429 . S
C2015 C2011 1.429 . S
C2015 C2016 1.523 . S
C2016 C2000 1.368 . S
C2016 C2012 1.368 . S
C2016 C2015 1.523 . S
H2017 C1992 0.950 . S
H2018 C1994 0.950 . S
H2019 C1995 0.949 . S
H2020 C1997 0.950 . S
H2021 C1999 0.950 . S
C2022 C2023 1.349 . S
C2022 C2024 1.327 . S
C2022 H2047 0.950 . S
C2023 C2022 1.349 . S
C2023 C2039 1.349 . S
C2024 C2022 1.327 . S
C2024 C2043 1.429 . S
C2024 H2048 0.950 . S
C2025 C2042 1.574 . S
C2025 C2044 1.368 . S
C2025 H2049 0.949 . S
H2026 C2030 0.949 . S
C2027 C2028 1.349 . S
C2027 C2029 1.327 . S
C2027 H2050 0.950 . S
C2028 C2027 1.349 . S
C2028 C2040 1.349 . S
C2029 C2027 1.327 . S
C2029 C2045 1.429 . S
C2029 H2051 0.950 . S
C2030 H2026 0.949 . S
C2030 C2038 1.574 . S
C2030 C2046 1.368 . S
H2031 C2039 0.950 . S
H2032 C2037 0.950 . S
H2033 C2038 0.949 . S
H2034 C2040 0.950 . S
H2035 C2041 0.950 . S
H2036 C2042 0.949 . S
C2037 H2032 0.950 . S
C2037 C2039 1.327 . S
C2037 C2043 1.429 . S
C2038 C2030 1.574 . S
C2038 H2033 0.949 . S
C2038 C2044 1.368 . S
C2039 C2023 1.349 . S
C2039 H2031 0.950 . S
C2039 C2037 1.327 . S
C2040 C2028 1.349 . S
C2040 H2034 0.950 . S
C2040 C2041 1.327 . S
C2041 H2035 0.950 . S
C2041 C2040 1.327 . S
C2041 C2045 1.429 . S
C2042 C2025 1.574 . S
C2042 H2036 0.949 . S
C2042 C2046 1.368 . S
C2043 C2024 1.429 . S
C2043 C2037 1.429 . S
C2043 C2044 1.523 . S
C2044 C2025 1.368 . S
C2044 C2038 1.368 . S
C2044 C2043 1.523 . S
C2045 C2029 1.429 . S
C2045 C2041 1.429 . S
C2045 C2046 1.523 . S
C2046 C2030 1.368 . S
C2046 C2042 1.368 . S
C2046 C2045 1.523 . S
H2047 C2022 0.950 . S
H2048 C2024 0.950 . S
H2049 C2025 0.949 . S
H2050 C2027 0.950 . S
H2051 C2029 0.950 . S
C2052 C2053 1.349 . S
C2052 C2054 1.327 . S
C2052 H2077 0.950 . S
C2053 C2052 1.349 . S
C2053 C2069 1.349 . S
C2054 C2052 1.327 . S
C2054 C2073 1.429 . S
C2054 H2078 0.950 . S
C2055 C2072 1.574 . S
C2055 C2074 1.368 . S
C2055 H2079 0.949 . S
H2056 C2060 0.949 . S
C2057 C2058 1.349 . S
C2057 C2059 1.327 . S
C2057 H2080 0.950 . S
C2058 C2057 1.349 . S
C2058 C2070 1.349 . S
C2059 C2057 1.327 . S
C2059 C2075 1.429 . S
C2059 H2081 0.950 . S
C2060 H2056 0.949 . S
C2060 C2068 1.574 . S
C2060 C2076 1.368 . S
H2061 C2069 0.950 . S
H2062 C2067 0.950 . S
H2063 C2068 0.949 . S
H2064 C2070 0.950 . S
H2065 C2071 0.950 . S
H2066 C2072 0.949 . S
C2067 H2062 0.950 . S
C2067 C2069 1.327 . S
C2067 C2073 1.429 . S
C2068 C2060 1.574 . S
C2068 H2063 0.949 . S
C2068 C2074 1.368 . S
C2069 C2053 1.349 . S
C2069 H2061 0.950 . S
C2069 C2067 1.327 . S
C2070 C2058 1.349 . S
C2070 H2064 0.950 . S
C2070 C2071 1.327 . S
C2071 H2065 0.950 . S
C2071 C2070 1.327 . S
C2071 C2075 1.429 . S
C2072 C2055 1.574 . S
C2072 H2066 0.949 . S
C2072 C2076 1.368 . S
C2073 C2054 1.429 . S
C2073 C2067 1.429 . S
C2073 C2074 1.523 . S
C2074 C2055 1.368 . S
C2074 C2068 1.368 . S
C2074 C2073 1.523 . S
C2075 C2059 1.429 . S
C2075 C2071 1.429 . S
C2075 C2076 1.523 . S
C2076 C2060 1.368 . S
C2076 C2072 1.368 . S
C2076 C2075 1.523 . S
H2077 C2052 0.950 . S
H2078 C2054 0.950 . S
H2079 C2055 0.949 . S
H2080 C2057 0.950 . S
H2081 C2059 0.950 . S
C2082 C2083 1.349 . S
C2082 C2084 1.327 . S
C2082 H2107 0.950 . S
C2083 C2082 1.349 . S
C2083 C2099 1.349 . S
C2084 C2082 1.327 . S
C2084 C2103 1.429 . S
C2084 H2108 0.950 . S
C2085 C2102 1.574 . S
C2085 C2104 1.368 . S
C2085 H2109 0.949 . S
H2086 C2090 0.949 . S
C2087 C2088 1.349 . S
C2087 C2089 1.327 . S
C2087 H2110 0.950 . S
C2088 C2087 1.349 . S
C2088 C2100 1.349 . S
C2089 C2087 1.327 . S
C2089 C2105 1.429 . S
C2089 H2111 0.950 . S
C2090 H2086 0.949 . S
C2090 C2098 1.574 . S
C2090 C2106 1.368 . S
H2091 C2099 0.950 . S
H2092 C2097 0.950 . S
H2093 C2098 0.949 . S
H2094 C2100 0.950 . S
H2095 C2101 0.950 . S
H2096 C2102 0.949 . S
C2097 H2092 0.950 . S
C2097 C2099 1.327 . S
C2097 C2103 1.429 . S
C2098 C2090 1.574 . S
C2098 H2093 0.949 . S
C2098 C2104 1.368 . S
C2099 C2083 1.349 . S
C2099 H2091 0.950 . S
C2099 C2097 1.327 . S
C2100 C2088 1.349 . S
C2100 H2094 0.950 . S
C2100 C2101 1.327 . S
C2101 H2095 0.950 . S
C2101 C2100 1.327 . S
C2101 C2105 1.429 . S
C2102 C2085 1.574 . S
C2102 H2096 0.949 . S
C2102 C2106 1.368 . S
C2103 C2084 1.429 . S
C2103 C2097 1.429 . S
C2103 C2104 1.523 . S
C2104 C2085 1.368 . S
C2104 C2098 1.368 . S
C2104 C2103 1.523 . S
C2105 C2089 1.429 . S
C2105 C2101 1.429 . S
C2105 C2106 1.523 . S
C2106 C2090 1.368 . S
C2106 C2102 1.368 . S
C2106 C2105 1.523 . S
H2107 C2082 0.950 . S
H2108 C2084 0.950 . S
H2109 C2085 0.949 . S
H2110 C2087 0.950 . S
H2111 C2089 0.950 . S
C2112 C2113 1.349 . S
C2112 C2114 1.327 . S
C2112 H2137 0.950 . S
C2113 C2112 1.349 . S
C2113 C2129 1.349 . S
C2114 C2112 1.327 . S
C2114 C2133 1.429 . S
C2114 H2138 0.950 . S
C2115 C2132 1.574 . S
C2115 C2134 1.368 . S
C2115 H2139 0.949 . S
H2116 C2120 0.949 . S
C2117 C2118 1.349 . S
C2117 C2119 1.327 . S
C2117 H2140 0.950 . S
C2118 C2117 1.349 . S
C2118 C2130 1.349 . S
C2119 C2117 1.327 . S
C2119 C2135 1.429 . S
C2119 H2141 0.950 . S
C2120 H2116 0.949 . S
C2120 C2128 1.574 . S
C2120 C2136 1.368 . S
H2121 C2129 0.950 . S
H2122 C2127 0.950 . S
H2123 C2128 0.949 . S
H2124 C2130 0.950 . S
H2125 C2131 0.950 . S
H2126 C2132 0.949 . S
C2127 H2122 0.950 . S
C2127 C2129 1.327 . S
C2127 C2133 1.429 . S
C2128 C2120 1.574 . S
C2128 H2123 0.949 . S
C2128 C2134 1.368 . S
C2129 C2113 1.349 . S
C2129 H2121 0.950 . S
C2129 C2127 1.327 . S
C2130 C2118 1.349 . S
C2130 H2124 0.950 . S
C2130 C2131 1.327 . S
C2131 H2125 0.950 . S
C2131 C2130 1.327 . S
C2131 C2135 1.429 . S
C2132 C2115 1.574 . S
C2132 H2126 0.949 . S
C2132 C2136 1.368 . S
C2133 C2114 1.429 . S
C2133 C2127 1.429 . S
C2133 C2134 1.523 . S
C2134 C2115 1.368 . S
C2134 C2128 1.368 . S
C2134 C2133 1.523 . S
C2135 C2119 1.429 . S
C2135 C2131 1.429 . S
C2135 C2136 1.523 . S
C2136 C2120 1.368 . S
C2136 C2132 1.368 . S
C2136 C2135 1.523 . S
H2137 C2112 0.950 . S
H2138 C2114 0.950 . S
H2139 C2115 0.949 . S
H2140 C2117 0.950 . S
H2141 C2119 0.950 . S
C2142 C2143 1.349 . S
C2142 C2144 1.327 . S
C2142 H2167 0.950 . S
C2143 C2142 1.349 . S
C2143 C2159 1.349 . S
C2144 C2142 1.327 . S
C2144 C2163 1.429 . S
C2144 H2168 0.950 . S
C2145 C2162 1.574 . S
C2145 C2164 1.368 . S
C2145 H2169 0.949 . S
H2146 C2150 0.949 . S
C2147 C2148 1.349 . S
C2147 C2149 1.327 . S
C2147 H2170 0.950 . S
C2148 C2147 1.349 . S
C2148 C2160 1.349 . S
C2149 C2147 1.327 . S
C2149 C2165 1.429 . S
C2149 H2171 0.950 . S
C2150 H2146 0.949 . S
C2150 C2158 1.574 . S
C2150 C2166 1.368 . S
H2151 C2159 0.950 . S
H2152 C2157 0.950 . S
H2153 C2158 0.949 . S
H2154 C2160 0.950 . S
H2155 C2161 0.950 . S
H2156 C2162 0.949 . S
C2157 H2152 0.950 . S
C2157 C2159 1.327 . S
C2157 C2163 1.429 . S
C2158 C2150 1.574 . S
C2158 H2153 0.949 . S
C2158 C2164 1.368 . S
C2159 C2143 1.349 . S
C2159 H2151 0.950 . S
C2159 C2157 1.327 . S
C2160 C2148 1.349 . S
C2160 H2154 0.950 . S
C2160 C2161 1.327 . S
C2161 H2155 0.950 . S
C2161 C2160 1.327 . S
C2161 C2165 1.429 . S
C2162 C2145 1.574 . S
C2162 H2156 0.949 . S
C2162 C2166 1.368 . S
C2163 C2144 1.429 . S
C2163 C2157 1.429 . S
C2163 C2164 1.523 . S
C2164 C2145 1.368 . S
C2164 C2158 1.368 . S
C2164 C2163 1.523 . S
C2165 C2149 1.429 . S
C2165 C2161 1.429 . S
C2165 C2166 1.523 . S
C2166 C2150 1.368 . S
C2166 C2162 1.368 . S
C2166 C2165 1.523 . S
H2167 C2142 0.950 . S
H2168 C2144 0.950 . S
H2169 C2145 0.949 . S
H2170 C2147 0.950 . S
H2171 C2149 0.950 . S
C2172 C2173 1.349 1_655 S
C2172 C2174 1.327 . S
C2172 H2197 0.950 . S
C2173 C2172 1.349 1_455 S
C2173 C2189 1.349 . S
C2174 C2172 1.327 . S
C2174 C2193 1.429 1_655 S
C2174 H2198 0.950 . S
C2175 C2192 1.574 . S
C2175 C2194 1.368 . S
C2175 H2199 0.949 . S
H2176 C2180 0.949 . S
C2177 C2178 1.349 . S
C2177 C2179 1.327 . S
C2177 H2200 0.950 . S
C2178 C2177 1.349 . S
C2178 C2190 1.349 1_455 S
C2179 C2177 1.327 . S
C2179 C2195 1.429 . S
C2179 H2201 0.950 . S
C2180 H2176 0.949 . S
C2180 C2188 1.574 . S
C2180 C2196 1.368 1_655 S
H2181 C2189 0.950 . S
H2182 C2187 0.950 . S
H2183 C2188 0.949 . S
H2184 C2190 0.950 . S
H2185 C2191 0.950 . S
H2186 C2192 0.949 . S
C2187 H2182 0.950 . S
C2187 C2189 1.327 . S
C2187 C2193 1.429 . S
C2188 C2180 1.574 . S
C2188 H2183 0.949 . S
C2188 C2194 1.368 1_655 S
C2189 C2173 1.349 . S
C2189 H2181 0.950 . S
C2189 C2187 1.327 . S
C2190 C2178 1.349 1_655 S
C2190 H2184 0.950 . S
C2190 C2191 1.327 . S
C2191 H2185 0.950 . S
C2191 C2190 1.327 . S
C2191 C2195 1.429 1_655 S
C2192 C2175 1.574 . S
C2192 H2186 0.949 . S
C2192 C2196 1.368 . S
C2193 C2174 1.429 1_455 S
C2193 C2187 1.429 . S
C2193 C2194 1.523 . S
C2194 C2175 1.368 . S
C2194 C2188 1.368 1_455 S
C2194 C2193 1.523 . S
C2195 C2179 1.429 . S
C2195 C2191 1.429 1_455 S
C2195 C2196 1.523 . S
C2196 C2180 1.368 1_455 S
C2196 C2192 1.368 . S
C2196 C2195 1.523 . S
H2197 C2172 0.950 . S
H2198 C2174 0.950 . S
H2199 C2175 0.949 . S
H2200 C2177 0.950 . S
H2201 C2179 0.950 . S
C2202 C2203 1.349 . S
C2202 C2204 1.327 . S
C2202 H2227 0.950 . S
C2203 C2202 1.349 . S
C2203 C2219 1.349 . S
C2204 C2202 1.327 . S
C2204 C2223 1.429 . S
C2204 H2228 0.950 . S
C2205 C2222 1.574 . S
C2205 C2224 1.368 . S
C2205 H2229 0.949 . S
H2206 C2210 0.949 . S
C2207 C2208 1.349 . S
C2207 C2209 1.327 . S
C2207 H2230 0.950 . S
C2208 C2207 1.349 . S
C2208 C2220 1.349 . S
C2209 C2207 1.327 . S
C2209 C2225 1.429 . S
C2209 H2231 0.950 . S
C2210 H2206 0.949 . S
C2210 C2218 1.574 . S
C2210 C2226 1.368 . S
H2211 C2219 0.950 . S
H2212 C2217 0.950 . S
H2213 C2218 0.949 . S
H2214 C2220 0.950 . S
H2215 C2221 0.950 . S
H2216 C2222 0.949 . S
C2217 H2212 0.950 . S
C2217 C2219 1.327 . S
C2217 C2223 1.429 . S
C2218 C2210 1.574 . S
C2218 H2213 0.949 . S
C2218 C2224 1.368 . S
C2219 C2203 1.349 . S
C2219 H2211 0.950 . S
C2219 C2217 1.327 . S
C2220 C2208 1.349 . S
C2220 H2214 0.950 . S
C2220 C2221 1.327 . S
C2221 H2215 0.950 . S
C2221 C2220 1.327 . S
C2221 C2225 1.429 . S
C2222 C2205 1.574 . S
C2222 H2216 0.949 . S
C2222 C2226 1.368 . S
C2223 C2204 1.429 . S
C2223 C2217 1.429 . S
C2223 C2224 1.523 . S
C2224 C2205 1.368 . S
C2224 C2218 1.368 . S
C2224 C2223 1.523 . S
C2225 C2209 1.429 . S
C2225 C2221 1.429 . S
C2225 C2226 1.523 . S
C2226 C2210 1.368 . S
C2226 C2222 1.368 . S
C2226 C2225 1.523 . S
H2227 C2202 0.950 . S
H2228 C2204 0.950 . S
H2229 C2205 0.949 . S
H2230 C2207 0.950 . S
H2231 C2209 0.950 . S
C2232 C2233 1.349 . S
C2232 C2234 1.327 . S
C2232 H2257 0.950 . S
C2233 C2232 1.349 . S
C2233 C2249 1.349 . S
C2234 C2232 1.327 . S
C2234 C2253 1.429 . S
C2234 H2258 0.950 . S
C2235 C2252 1.574 . S
C2235 C2254 1.368 . S
C2235 H2259 0.949 . S
H2236 C2240 0.949 . S
C2237 C2238 1.349 . S
C2237 C2239 1.327 . S
C2237 H2260 0.922 1_556 S
C2238 C2237 1.349 . S
C2238 C2250 1.349 . S
C2239 C2237 1.327 . S
C2239 C2255 1.429 . S
C2239 H2261 0.950 . S
C2240 H2236 0.949 . S
C2240 C2248 1.574 . S
C2240 C2256 1.368 . S
H2241 C2249 0.950 . S
H2242 C2247 0.950 . S
H2243 C2248 0.949 . S
H2244 C2250 0.950 . S
H2245 C2251 0.950 . S
H2246 C2252 0.949 . S
C2247 H2242 0.950 . S
C2247 C2249 1.327 . S
C2247 C2253 1.429 . S
C2248 C2240 1.574 . S
C2248 H2243 0.949 . S
C2248 C2254 1.368 . S
C2249 C2233 1.349 . S
C2249 H2241 0.950 . S
C2249 C2247 1.327 . S
C2250 C2238 1.349 . S
C2250 H2244 0.950 . S
C2250 C2251 1.327 . S
C2251 H2245 0.950 . S
C2251 C2250 1.327 . S
C2251 C2255 1.429 . S
C2252 C2235 1.574 . S
C2252 H2246 0.949 . S
C2252 C2256 1.368 . S
C2253 C2234 1.429 . S
C2253 C2247 1.429 . S
C2253 C2254 1.523 . S
C2254 C2235 1.368 . S
C2254 C2248 1.368 . S
C2254 C2253 1.523 . S
C2255 C2239 1.429 . S
C2255 C2251 1.429 . S
C2255 C2256 1.523 . S
C2256 C2240 1.368 . S
C2256 C2252 1.368 . S
C2256 C2255 1.523 . S
H2257 C2232 0.950 . S
H2258 C2234 0.950 . S
H2259 C2235 0.949 . S
H2260 C2237 0.922 1_554 S
H2261 C2239 0.950 . S
C2262 C2263 1.349 . S
C2262 C2264 1.327 . S
C2262 H2287 0.950 . S
C2263 C2262 1.349 . S
C2263 C2279 1.349 . S
C2264 C2262 1.327 . S
C2264 C2283 1.429 . S
C2264 H2288 0.950 . S
C2265 C2282 1.574 . S
C2265 C2284 1.368 . S
C2265 H2289 0.949 . S
H2266 C2270 0.949 . S
C2267 C2268 1.349 . S
C2267 C2269 1.327 . S
C2267 H2290 0.950 . S
C2268 C2267 1.349 . S
C2268 C2280 1.349 . S
C2269 C2267 1.327 . S
C2269 C2285 1.429 . S
C2269 H2291 0.950 . S
C2270 H2266 0.949 . S
C2270 C2278 1.574 . S
C2270 C2286 1.368 . S
H2271 C2279 0.950 . S
H2272 C2277 0.950 . S
H2273 C2278 0.949 . S
H2274 C2280 0.950 . S
H2275 C2281 0.950 . S
H2276 C2282 0.949 . S
C2277 H2272 0.950 . S
C2277 C2279 1.327 . S
C2277 C2283 1.429 . S
C2278 C2270 1.574 . S
C2278 H2273 0.949 . S
C2278 C2284 1.368 . S
C2279 C2263 1.349 . S
C2279 H2271 0.950 . S
C2279 C2277 1.327 . S
C2280 C2268 1.349 . S
C2280 H2274 0.950 . S
C2280 C2281 1.327 . S
C2281 H2275 0.950 . S
C2281 C2280 1.327 . S
C2281 C2285 1.429 . S
C2282 C2265 1.574 . S
C2282 H2276 0.949 . S
C2282 C2286 1.368 . S
C2283 C2264 1.429 . S
C2283 C2277 1.429 . S
C2283 C2284 1.523 . S
C2284 C2265 1.368 . S
C2284 C2278 1.368 . S
C2284 C2283 1.523 . S
C2285 C2269 1.429 . S
C2285 C2281 1.429 . S
C2285 C2286 1.523 . S
C2286 C2270 1.368 . S
C2286 C2282 1.368 . S
C2286 C2285 1.523 . S
H2287 C2262 0.950 . S
H2288 C2264 0.950 . S
H2289 C2265 0.949 . S
H2290 C2267 0.950 . S
H2291 C2269 0.950 . S
C2292 C2293 1.349 1_655 S
C2292 C2294 1.327 . S
C2292 H2317 0.950 . S
C2293 C2292 1.349 1_455 S
C2293 C2309 1.349 . S
C2294 C2292 1.327 . S
C2294 C2313 1.429 1_655 S
C2294 H2318 0.950 . S
C2295 C2312 1.574 . S
C2295 C2314 1.368 . S
C2295 H2319 0.949 . S
H2296 C2300 0.949 . S
C2297 C2298 1.349 . S
C2297 C2299 1.327 . S
C2297 H2320 0.950 . S
C2298 C2297 1.349 . S
C2298 C2310 1.349 1_455 S
C2299 C2297 1.327 . S
C2299 C2315 1.429 . S
C2299 H2321 0.950 . S
C2300 H2296 0.949 . S
C2300 C2308 1.574 . S
C2300 C2316 1.368 1_655 S
H2301 C2309 0.950 . S
H2302 C2307 0.950 . S
H2303 C2308 0.949 . S
H2304 C2310 0.950 . S
H2305 C2311 0.950 . S
H2306 C2312 0.949 . S
C2307 H2302 0.950 . S
C2307 C2309 1.327 . S
C2307 C2313 1.429 . S
C2308 C2300 1.574 . S
C2308 H2303 0.949 . S
C2308 C2314 1.368 1_655 S
C2309 C2293 1.349 . S
C2309 H2301 0.950 . S
C2309 C2307 1.327 . S
C2310 C2298 1.349 1_655 S
C2310 H2304 0.950 . S
C2310 C2311 1.327 . S
C2311 H2305 0.950 . S
C2311 C2310 1.327 . S
C2311 C2315 1.429 1_655 S
C2312 C2295 1.574 . S
C2312 H2306 0.949 . S
C2312 C2316 1.368 . S
C2313 C2294 1.429 1_455 S
C2313 C2307 1.429 . S
C2313 C2314 1.523 . S
C2314 C2295 1.368 . S
C2314 C2308 1.368 1_455 S
C2314 C2313 1.523 . S
C2315 C2299 1.429 . S
C2315 C2311 1.429 1_455 S
C2315 C2316 1.523 . S
C2316 C2300 1.368 1_455 S
C2316 C2312 1.368 . S
C2316 C2315 1.523 . S
H2317 C2292 0.950 . S
H2318 C2294 0.950 . S
H2319 C2295 0.949 . S
H2320 C2297 0.950 . S
H2321 C2299 0.950 . S
C2322 C2323 1.349 . S
C2322 C2324 1.327 . S
C2322 H2347 0.950 . S
C2323 C2322 1.349 . S
C2323 C2339 1.349 . S
C2324 C2322 1.327 . S
C2324 C2343 1.429 . S
C2324 H2348 0.950 . S
C2325 C2342 1.574 . S
C2325 C2344 1.368 . S
C2325 H2349 0.949 . S
H2326 C2330 0.949 . S
C2327 C2328 1.349 . S
C2327 C2329 1.327 . S
C2327 H2350 0.950 . S
C2328 C2327 1.349 . S
C2328 C2340 1.349 . S
C2329 C2327 1.327 . S
C2329 C2345 1.429 . S
C2329 H2351 0.950 . S
C2330 H2326 0.949 . S
C2330 C2338 1.574 . S
C2330 C2346 1.368 . S
H2331 C2339 0.950 . S
H2332 C2337 0.950 . S
H2333 C2338 0.949 . S
H2334 C2340 0.950 . S
H2335 C2341 0.950 . S
H2336 C2342 0.949 . S
C2337 H2332 0.950 . S
C2337 C2339 1.327 . S
C2337 C2343 1.429 . S
C2338 C2330 1.574 . S
C2338 H2333 0.949 . S
C2338 C2344 1.368 . S
C2339 C2323 1.349 . S
C2339 H2331 0.950 . S
C2339 C2337 1.327 . S
C2340 C2328 1.349 . S
C2340 H2334 0.950 . S
C2340 C2341 1.327 . S
C2341 H2335 0.950 . S
C2341 C2340 1.327 . S
C2341 C2345 1.429 . S
C2342 C2325 1.574 . S
C2342 H2336 0.949 . S
C2342 C2346 1.368 . S
C2343 C2324 1.429 . S
C2343 C2337 1.429 . S
C2343 C2344 1.523 . S
C2344 C2325 1.368 . S
C2344 C2338 1.368 . S
C2344 C2343 1.523 . S
C2345 C2329 1.429 . S
C2345 C2341 1.429 . S
C2345 C2346 1.523 . S
C2346 C2330 1.368 . S
C2346 C2342 1.368 . S
C2346 C2345 1.523 . S
H2347 C2322 0.950 . S
H2348 C2324 0.950 . S
H2349 C2325 0.949 . S
H2350 C2327 0.950 . S
H2351 C2329 0.950 . S
C2352 C2353 1.349 . S
C2352 C2354 1.327 . S
C2352 H2377 0.950 . S
C2353 C2352 1.349 . S
C2353 C2369 1.349 . S
C2354 C2352 1.327 . S
C2354 C2373 1.429 . S
C2354 H2378 0.950 . S
C2355 C2372 1.574 . S
C2355 C2374 1.368 . S
C2355 H2379 0.949 . S
H2356 C2360 0.949 . S
C2357 C2358 1.349 . S
C2357 C2359 1.327 . S
C2357 H2380 0.950 . S
C2358 C2357 1.349 . S
C2358 C2370 1.349 . S
C2359 C2357 1.327 . S
C2359 C2375 1.429 . S
C2359 H2381 0.950 . S
C2360 H2356 0.949 . S
C2360 C2368 1.574 . S
C2360 C2376 1.368 . S
H2361 C2369 0.950 . S
H2362 C2367 0.950 . S
H2363 C2368 0.949 . S
H2364 C2370 0.950 . S
H2365 C2371 0.950 . S
H2366 C2372 0.949 . S
C2367 H2362 0.950 . S
C2367 C2369 1.327 . S
C2367 C2373 1.429 . S
C2368 C2360 1.574 . S
C2368 H2363 0.949 . S
C2368 C2374 1.368 . S
C2369 C2353 1.349 . S
C2369 H2361 0.950 . S
C2369 C2367 1.327 . S
C2370 C2358 1.349 . S
C2370 H2364 0.950 . S
C2370 C2371 1.327 . S
C2371 H2365 0.950 . S
C2371 C2370 1.327 . S
C2371 C2375 1.429 . S
C2372 C2355 1.574 . S
C2372 H2366 0.949 . S
C2372 C2376 1.368 . S
C2373 C2354 1.429 . S
C2373 C2367 1.429 . S
C2373 C2374 1.523 . S
C2374 C2355 1.368 . S
C2374 C2368 1.368 . S
C2374 C2373 1.523 . S
C2375 C2359 1.429 . S
C2375 C2371 1.429 . S
C2375 C2376 1.523 . S
C2376 C2360 1.368 . S
C2376 C2372 1.368 . S
C2376 C2375 1.523 . S
H2377 C2352 0.950 . S
H2378 C2354 0.950 . S
H2379 C2355 0.949 . S
H2380 C2357 0.950 . S
H2381 C2359 0.950 . S
C2382 C2383 1.349 . S
C2382 C2384 1.327 . S
C2382 H2407 0.950 . S
C2383 C2382 1.349 . S
C2383 C2399 1.349 . S
C2384 C2382 1.327 . S
C2384 C2403 1.429 . S
C2384 H2408 0.950 . S
C2385 C2402 1.574 . S
C2385 C2404 1.368 . S
C2385 H2409 0.949 . S
H2386 C2390 0.949 . S
C2387 C2388 1.349 . S
C2387 C2389 1.327 . S
C2387 H2410 0.950 . S
C2388 C2387 1.349 . S
C2388 C2400 1.349 . S
C2389 C2387 1.327 . S
C2389 C2405 1.429 . S
C2389 H2411 0.950 . S
C2390 H2386 0.949 . S
C2390 C2398 1.574 . S
C2390 C2406 1.368 . S
H2391 C2399 0.950 . S
H2392 C2397 0.950 . S
H2393 C2398 0.949 . S
H2394 C2400 0.950 . S
H2395 C2401 0.950 . S
H2396 C2402 0.949 . S
C2397 H2392 0.950 . S
C2397 C2399 1.327 . S
C2397 C2403 1.429 . S
C2398 C2390 1.574 . S
C2398 H2393 0.949 . S
C2398 C2404 1.368 . S
C2399 C2383 1.349 . S
C2399 H2391 0.950 . S
C2399 C2397 1.327 . S
C2400 C2388 1.349 . S
C2400 H2394 0.950 . S
C2400 C2401 1.327 . S
C2401 H2395 0.950 . S
C2401 C2400 1.327 . S
C2401 C2405 1.429 . S
C2402 C2385 1.574 . S
C2402 H2396 0.949 . S
C2402 C2406 1.368 . S
C2403 C2384 1.429 . S
C2403 C2397 1.429 . S
C2403 C2404 1.523 . S
C2404 C2385 1.368 . S
C2404 C2398 1.368 . S
C2404 C2403 1.523 . S
C2405 C2389 1.429 . S
C2405 C2401 1.429 . S
C2405 C2406 1.523 . S
C2406 C2390 1.368 . S
C2406 C2402 1.368 . S
C2406 C2405 1.523 . S
H2407 C2382 0.950 . S
H2408 C2384 0.950 . S
H2409 C2385 0.949 . S
H2410 C2387 0.950 . S
H2411 C2389 0.950 . S
C2412 C2413 1.349 . S
C2412 C2414 1.327 . S
C2412 H2437 0.950 . S
C2413 C2412 1.349 . S
C2413 C2429 1.349 . S
C2414 C2412 1.327 . S
C2414 C2433 1.429 . S
C2414 H2438 0.950 . S
C2415 C2432 1.574 . S
C2415 C2434 1.368 . S
C2415 H2439 0.949 . S
H2416 C2420 0.949 . S
C2417 C2418 1.349 . S
C2417 C2419 1.327 . S
C2417 H2440 0.950 1_655 S
C2418 C2417 1.349 . S
C2418 C2430 1.349 . S
C2419 C2417 1.327 . S
C2419 C2435 1.429 . S
C2419 H2441 0.950 . S
C2420 H2416 0.949 . S
C2420 C2428 1.574 . S
C2420 C2436 1.368 . S
H2421 C2429 0.950 . S
H2422 C2427 0.950 . S
H2423 C2428 0.949 . S
H2424 C2430 0.950 . S
H2425 C2431 0.950 . S
H2426 C2432 0.949 . S
C2427 H2422 0.950 . S
C2427 C2429 1.327 . S
C2427 C2433 1.429 . S
C2428 C2420 1.574 . S
C2428 H2423 0.949 . S
C2428 C2434 1.368 . S
C2429 C2413 1.349 . S
C2429 H2421 0.950 . S
C2429 C2427 1.327 . S
C2430 C2418 1.349 . S
C2430 H2424 0.950 . S
C2430 C2431 1.327 . S
C2431 H2425 0.950 . S
C2431 C2430 1.327 . S
C2431 C2435 1.429 . S
C2432 C2415 1.574 . S
C2432 H2426 0.949 . S
C2432 C2436 1.368 . S
C2433 C2414 1.429 . S
C2433 C2427 1.429 . S
C2433 C2434 1.523 . S
C2434 C2415 1.368 . S
C2434 C2428 1.368 . S
C2434 C2433 1.523 . S
C2435 C2419 1.429 . S
C2435 C2431 1.429 . S
C2435 C2436 1.523 . S
C2436 C2420 1.368 . S
C2436 C2432 1.368 . S
C2436 C2435 1.523 . S
H2437 C2412 0.950 . S
H2438 C2414 0.950 . S
H2439 C2415 0.949 . S
H2440 C2417 0.950 1_455 S
H2441 C2419 0.950 . S
C2442 C2443 1.349 . S
C2442 C2444 1.327 . S
C2442 H2467 0.950 . S
C2443 C2442 1.349 . S
C2443 C2459 1.349 . S
C2444 C2442 1.327 . S
C2444 C2463 1.429 . S
C2444 H2468 0.950 . S
C2445 C2462 1.574 . S
C2445 C2464 1.368 . S
C2445 H2469 0.949 . S
H2446 C2450 0.949 . S
C2447 C2448 1.349 . S
C2447 C2449 1.327 . S
C2447 H2470 0.950 . S
C2448 C2447 1.349 . S
C2448 C2460 1.349 . S
C2449 C2447 1.327 . S
C2449 C2465 1.429 . S
C2449 H2471 0.950 . S
C2450 H2446 0.949 . S
C2450 C2458 1.574 . S
C2450 C2466 1.368 . S
H2451 C2459 0.950 . S
H2452 C2457 0.950 . S
H2453 C2458 0.949 . S
H2454 C2460 0.950 . S
H2455 C2461 0.950 . S
H2456 C2462 0.949 . S
C2457 H2452 0.950 . S
C2457 C2459 1.327 . S
C2457 C2463 1.429 . S
C2458 C2450 1.574 . S
C2458 H2453 0.949 . S
C2458 C2464 1.368 . S
C2459 C2443 1.349 . S
C2459 H2451 0.950 . S
C2459 C2457 1.327 . S
C2460 C2448 1.349 . S
C2460 H2454 0.950 . S
C2460 C2461 1.327 . S
C2461 H2455 0.950 . S
C2461 C2460 1.327 . S
C2461 C2465 1.429 . S
C2462 C2445 1.574 . S
C2462 H2456 0.949 . S
C2462 C2466 1.368 . S
C2463 C2444 1.429 . S
C2463 C2457 1.429 . S
C2463 C2464 1.523 . S
C2464 C2445 1.368 . S
C2464 C2458 1.368 . S
C2464 C2463 1.523 . S
C2465 C2449 1.429 . S
C2465 C2461 1.429 . S
C2465 C2466 1.523 . S
C2466 C2450 1.368 . S
C2466 C2462 1.368 . S
C2466 C2465 1.523 . S
H2467 C2442 0.950 . S
H2468 C2444 0.950 . S
H2469 C2445 0.949 . S
H2470 C2447 0.950 . S
H2471 C2449 0.950 . S
C2472 C2473 1.349 . S
C2472 C2474 1.327 . S
C2472 H2497 0.950 . S
C2473 C2472 1.349 . S
C2473 C2489 1.349 . S
C2474 C2472 1.327 . S
C2474 C2493 1.429 . S
C2474 H2498 0.950 . S
C2475 C2492 1.574 . S
C2475 C2494 1.368 . S
C2475 H2499 0.949 . S
H2476 C2480 0.949 . S
C2477 C2478 1.349 . S
C2477 C2479 1.327 . S
C2477 H2500 0.950 . S
C2478 C2477 1.349 . S
C2478 C2490 1.349 . S
C2479 C2477 1.327 . S
C2479 C2495 1.429 . S
C2479 H2501 0.950 . S
C2480 H2476 0.949 . S
C2480 C2488 1.574 . S
C2480 C2496 1.368 . S
H2481 C2489 0.950 . S
H2482 C2487 0.950 . S
H2483 C2488 0.949 . S
H2484 C2490 0.950 . S
H2485 C2491 0.950 . S
H2486 C2492 0.949 . S
C2487 H2482 0.950 . S
C2487 C2489 1.327 . S
C2487 C2493 1.429 . S
C2488 C2480 1.574 . S
C2488 H2483 0.949 . S
C2488 C2494 1.368 . S
C2489 C2473 1.349 . S
C2489 H2481 0.950 . S
C2489 C2487 1.327 . S
C2490 C2478 1.349 . S
C2490 H2484 0.950 . S
C2490 C2491 1.327 . S
C2491 H2485 0.950 . S
C2491 C2490 1.327 . S
C2491 C2495 1.429 . S
C2492 C2475 1.574 . S
C2492 H2486 0.949 . S
C2492 C2496 1.368 . S
C2493 C2474 1.429 . S
C2493 C2487 1.429 . S
C2493 C2494 1.523 . S
C2494 C2475 1.368 . S
C2494 C2488 1.368 . S
C2494 C2493 1.523 . S
C2495 C2479 1.429 . S
C2495 C2491 1.429 . S
C2495 C2496 1.523 . S
C2496 C2480 1.368 . S
C2496 C2492 1.368 . S
C2496 C2495 1.523 . S
H2497 C2472 0.950 . S
H2498 C2474 0.950 . S
H2499 C2475 0.949 . S
H2500 C2477 0.950 . S
H2501 C2479 0.950 . S
C2502 C2503 1.349 . S
C2502 C2504 1.327 . S
C2502 H2527 0.950 . S
C2503 C2502 1.349 . S
C2503 C2519 1.349 . S
C2504 C2502 1.327 . S
C2504 C2523 1.429 . S
C2504 H2528 0.950 . S
C2505 C2522 1.574 . S
C2505 C2524 1.368 . S
C2505 H2529 0.949 . S
H2506 C2510 0.949 . S
C2507 C2508 1.349 . S
C2507 C2509 1.327 . S
C2507 H2530 0.950 . S
C2508 C2507 1.349 . S
C2508 C2520 1.349 . S
C2509 C2507 1.327 . S
C2509 C2525 1.429 . S
C2509 H2531 0.950 . S
C2510 H2506 0.949 . S
C2510 C2518 1.574 . S
C2510 C2526 1.368 . S
H2511 C2519 0.950 . S
H2512 C2517 0.950 . S
H2513 C2518 0.949 . S
H2514 C2520 0.950 . S
H2515 C2521 0.950 . S
H2516 C2522 0.949 . S
C2517 H2512 0.950 . S
C2517 C2519 1.327 . S
C2517 C2523 1.429 . S
C2518 C2510 1.574 . S
C2518 H2513 0.949 . S
C2518 C2524 1.368 . S
C2519 C2503 1.349 . S
C2519 H2511 0.950 . S
C2519 C2517 1.327 . S
C2520 C2508 1.349 . S
C2520 H2514 0.950 . S
C2520 C2521 1.327 . S
C2521 H2515 0.950 . S
C2521 C2520 1.327 . S
C2521 C2525 1.429 . S
C2522 C2505 1.574 . S
C2522 H2516 0.949 . S
C2522 C2526 1.368 . S
C2523 C2504 1.429 . S
C2523 C2517 1.429 . S
C2523 C2524 1.523 . S
C2524 C2505 1.368 . S
C2524 C2518 1.368 . S
C2524 C2523 1.523 . S
C2525 C2509 1.429 . S
C2525 C2521 1.429 . S
C2525 C2526 1.523 . S
C2526 C2510 1.368 . S
C2526 C2522 1.368 . S
C2526 C2525 1.523 . S
H2527 C2502 0.950 . S
H2528 C2504 0.950 . S
H2529 C2505 0.949 . S
H2530 C2507 0.950 . S
H2531 C2509 0.950 . S
C2532 C2533 1.349 . S
C2532 C2534 1.327 . S
C2532 H2557 0.950 . S
C2533 C2532 1.349 . S
C2533 C2549 1.349 . S
C2534 C2532 1.327 . S
C2534 C2553 1.429 . S
C2534 H2558 0.950 . S
C2535 C2552 1.574 . S
C2535 C2554 1.368 . S
C2535 H2559 0.949 . S
H2536 C2540 0.949 . S
C2537 C2538 1.349 . S
C2537 C2539 1.327 . S
C2537 H2560 0.950 . S
C2538 C2537 1.349 . S
C2538 C2550 1.349 . S
C2539 C2537 1.327 . S
C2539 C2555 1.429 . S
C2539 H2561 0.950 . S
C2540 H2536 0.949 . S
C2540 C2548 1.574 . S
C2540 C2556 1.368 . S
H2541 C2549 0.950 . S
H2542 C2547 0.950 . S
H2543 C2548 0.949 . S
H2544 C2550 0.950 . S
H2545 C2551 0.950 . S
H2546 C2552 0.949 . S
C2547 H2542 0.950 . S
C2547 C2549 1.327 . S
C2547 C2553 1.429 . S
C2548 C2540 1.574 . S
C2548 H2543 0.949 . S
C2548 C2554 1.368 . S
C2549 C2533 1.349 . S
C2549 H2541 0.950 . S
C2549 C2547 1.327 . S
C2550 C2538 1.349 . S
C2550 H2544 0.950 . S
C2550 C2551 1.327 . S
C2551 H2545 0.950 . S
C2551 C2550 1.327 . S
C2551 C2555 1.429 . S
C2552 C2535 1.574 . S
C2552 H2546 0.949 . S
C2552 C2556 1.368 . S
C2553 C2534 1.429 . S
C2553 C2547 1.429 . S
C2553 C2554 1.523 . S
C2554 C2535 1.368 . S
C2554 C2548 1.368 . S
C2554 C2553 1.523 . S
C2555 C2539 1.429 . S
C2555 C2551 1.429 . S
C2555 C2556 1.523 . S
C2556 C2540 1.368 . S
C2556 C2552 1.368 . S
C2556 C2555 1.523 . S
H2557 C2532 0.950 . S
H2558 C2534 0.950 . S
H2559 C2535 0.949 . S
H2560 C2537 0.950 . S
H2561 C2539 0.950 . S
C2562 C2563 1.349 . S
C2562 C2564 1.327 . S
C2562 H2587 0.950 . S
C2563 C2562 1.349 . S
C2563 C2579 1.349 . S
C2564 C2562 1.327 . S
C2564 C2583 1.429 . S
C2564 H2588 0.950 . S
C2565 C2582 1.574 . S
C2565 C2584 1.368 . S
C2565 H2589 0.949 . S
H2566 C2570 0.949 . S
C2567 C2568 1.349 . S
C2567 C2569 1.327 . S
C2567 H2590 0.950 . S
C2568 C2567 1.349 . S
C2568 C2580 1.349 . S
C2569 C2567 1.327 . S
C2569 C2585 1.429 . S
C2569 H2591 0.950 . S
C2570 H2566 0.949 . S
C2570 C2578 1.574 . S
C2570 C2586 1.368 . S
H2571 C2579 0.950 . S
H2572 C2577 0.950 . S
H2573 C2578 0.949 . S
H2574 C2580 0.950 . S
H2575 C2581 0.950 . S
H2576 C2582 0.949 . S
C2577 H2572 0.950 . S
C2577 C2579 1.327 . S
C2577 C2583 1.429 . S
C2578 C2570 1.574 . S
C2578 H2573 0.949 . S
C2578 C2584 1.368 . S
C2579 C2563 1.349 . S
C2579 H2571 0.950 . S
C2579 C2577 1.327 . S
C2580 C2568 1.349 . S
C2580 H2574 0.950 . S
C2580 C2581 1.327 . S
C2581 H2575 0.950 . S
C2581 C2580 1.327 . S
C2581 C2585 1.429 . S
C2582 C2565 1.574 . S
C2582 H2576 0.949 . S
C2582 C2586 1.368 . S
C2583 C2564 1.429 . S
C2583 C2577 1.429 . S
C2583 C2584 1.523 . S
C2584 C2565 1.368 . S
C2584 C2578 1.368 . S
C2584 C2583 1.523 . S
C2585 C2569 1.429 . S
C2585 C2581 1.429 . S
C2585 C2586 1.523 . S
C2586 C2570 1.368 . S
C2586 C2582 1.368 . S
C2586 C2585 1.523 . S
H2587 C2562 0.950 . S
H2588 C2564 0.950 . S
H2589 C2565 0.949 . S
H2590 C2567 0.950 . S
H2591 C2569 0.950 . S
C2592 C2593 1.349 . S
C2592 C2594 1.327 . S
C2592 H2617 0.950 . S
C2593 C2592 1.349 . S
C2593 C2609 1.349 . S
C2594 C2592 1.327 . S
C2594 C2613 1.429 . S
C2594 H2618 0.950 . S
C2595 C2612 1.574 . S
C2595 C2614 1.368 . S
C2595 H2619 0.949 . S
H2596 C2600 0.949 . S
C2597 C2598 1.349 . S
C2597 C2599 1.327 . S
C2597 H2620 0.950 . S
C2598 C2597 1.349 . S
C2598 C2610 1.349 . S
C2599 C2597 1.327 . S
C2599 C2615 1.429 . S
C2599 H2621 0.950 . S
C2600 H2596 0.949 . S
C2600 C2608 1.574 . S
C2600 C2616 1.368 . S
H2601 C2609 0.950 . S
H2602 C2607 0.950 . S
H2603 C2608 0.949 . S
H2604 C2610 0.950 . S
H2605 C2611 0.950 . S
H2606 C2612 0.949 . S
C2607 H2602 0.950 . S
C2607 C2609 1.327 . S
C2607 C2613 1.429 . S
C2608 C2600 1.574 . S
C2608 H2603 0.949 . S
C2608 C2614 1.368 . S
C2609 C2593 1.349 . S
C2609 H2601 0.950 . S
C2609 C2607 1.327 . S
C2610 C2598 1.349 . S
C2610 H2604 0.950 . S
C2610 C2611 1.327 . S
C2611 H2605 0.950 . S
C2611 C2610 1.327 . S
C2611 C2615 1.429 . S
C2612 C2595 1.574 . S
C2612 H2606 0.949 . S
C2612 C2616 1.368 . S
C2613 C2594 1.429 . S
C2613 C2607 1.429 . S
C2613 C2614 1.523 . S
C2614 C2595 1.368 . S
C2614 C2608 1.368 . S
C2614 C2613 1.523 . S
C2615 C2599 1.429 . S
C2615 C2611 1.429 . S
C2615 C2616 1.523 . S
C2616 C2600 1.368 . S
C2616 C2612 1.368 . S
C2616 C2615 1.523 . S
H2617 C2592 0.950 . S
H2618 C2594 0.950 . S
H2619 C2595 0.949 . S
H2620 C2597 0.950 . S
H2621 C2599 0.950 . S
C2622 C2623 1.349 . S
C2622 C2624 1.327 . S
C2622 H2647 0.950 . S
C2623 C2622 1.349 . S
C2623 C2639 1.349 . S
C2624 C2622 1.327 . S
C2624 C2643 1.429 . S
C2624 H2648 0.950 . S
C2625 C2642 1.574 . S
C2625 C2644 1.368 . S
C2625 H2649 0.949 . S
H2626 C2630 0.949 . S
C2627 C2628 1.349 . S
C2627 C2629 1.327 . S
C2627 H2650 0.950 . S
C2628 C2627 1.349 . S
C2628 C2640 1.349 . S
C2629 C2627 1.327 . S
C2629 C2645 1.429 . S
C2629 H2651 0.950 . S
C2630 H2626 0.949 . S
C2630 C2638 1.574 . S
C2630 C2646 1.368 . S
H2631 C2639 0.950 . S
H2632 C2637 0.950 . S
H2633 C2638 0.949 . S
H2634 C2640 0.950 . S
H2635 C2641 0.950 . S
H2636 C2642 0.949 . S
C2637 H2632 0.950 . S
C2637 C2639 1.327 . S
C2637 C2643 1.429 . S
C2638 C2630 1.574 . S
C2638 H2633 0.949 . S
C2638 C2644 1.368 . S
C2639 C2623 1.349 . S
C2639 H2631 0.950 . S
C2639 C2637 1.327 . S
C2640 C2628 1.349 . S
C2640 H2634 0.950 . S
C2640 C2641 1.327 . S
C2641 H2635 0.950 . S
C2641 C2640 1.327 . S
C2641 C2645 1.429 . S
C2642 C2625 1.574 . S
C2642 H2636 0.949 . S
C2642 C2646 1.368 . S
C2643 C2624 1.429 . S
C2643 C2637 1.429 . S
C2643 C2644 1.523 . S
C2644 C2625 1.368 . S
C2644 C2638 1.368 . S
C2644 C2643 1.523 . S
C2645 C2629 1.429 . S
C2645 C2641 1.429 . S
C2645 C2646 1.523 . S
C2646 C2630 1.368 . S
C2646 C2642 1.368 . S
C2646 C2645 1.523 . S
H2647 C2622 0.950 . S
H2648 C2624 0.950 . S
H2649 C2625 0.949 . S
H2650 C2627 0.950 . S
H2651 C2629 0.950 . S
C2652 C2653 1.349 . S
C2652 C2654 1.327 . S
C2652 H2677 0.950 . S
C2653 C2652 1.349 . S
C2653 C2669 1.349 . S
C2654 C2652 1.327 . S
C2654 C2673 1.429 . S
C2654 H2678 0.950 . S
C2655 C2672 1.574 . S
C2655 C2674 1.368 . S
C2655 H2679 0.949 . S
H2656 C2660 0.949 . S
C2657 C2658 1.349 . S
C2657 C2659 1.327 . S
C2657 H2680 0.950 . S
C2658 C2657 1.349 . S
C2658 C2670 1.349 . S
C2659 C2657 1.327 . S
C2659 C2675 1.429 . S
C2659 H2681 0.950 . S
C2660 H2656 0.949 . S
C2660 C2668 1.574 . S
C2660 C2676 1.368 . S
H2661 C2669 0.950 . S
H2662 C2667 0.950 . S
H2663 C2668 0.949 . S
H2664 C2670 0.950 . S
H2665 C2671 0.950 . S
H2666 C2672 0.949 . S
C2667 H2662 0.950 . S
C2667 C2669 1.327 . S
C2667 C2673 1.429 . S
C2668 C2660 1.574 . S
C2668 H2663 0.949 . S
C2668 C2674 1.368 . S
C2669 C2653 1.349 . S
C2669 H2661 0.950 . S
C2669 C2667 1.327 . S
C2670 C2658 1.349 . S
C2670 H2664 0.950 . S
C2670 C2671 1.327 . S
C2671 H2665 0.950 . S
C2671 C2670 1.327 . S
C2671 C2675 1.429 . S
C2672 C2655 1.574 . S
C2672 H2666 0.949 . S
C2672 C2676 1.368 . S
C2673 C2654 1.429 . S
C2673 C2667 1.429 . S
C2673 C2674 1.523 . S
C2674 C2655 1.368 . S
C2674 C2668 1.368 . S
C2674 C2673 1.523 . S
C2675 C2659 1.429 . S
C2675 C2671 1.429 . S
C2675 C2676 1.523 . S
C2676 C2660 1.368 . S
C2676 C2672 1.368 . S
C2676 C2675 1.523 . S
H2677 C2652 0.950 . S
H2678 C2654 0.950 . S
H2679 C2655 0.949 . S
H2680 C2657 0.950 . S
H2681 C2659 0.950 . S
C2682 C2683 1.349 1_556 S
C2682 C2684 1.327 . S
C2682 H2707 0.950 . S
C2683 C2682 1.349 1_554 S
C2683 C2699 1.349 . S
C2684 C2682 1.327 . S
C2684 C2703 1.429 1_556 S
C2684 H2708 0.950 . S
C2685 C2702 1.574 . S
C2685 C2704 1.368 . S
C2685 H2709 0.949 . S
H2686 C2690 0.949 . S
C2687 C2688 1.349 . S
C2687 C2689 1.327 . S
C2687 H2710 0.950 . S
C2688 C2687 1.349 . S
C2688 C2700 1.349 1_554 S
C2689 C2687 1.327 . S
C2689 C2705 1.429 . S
C2689 H2711 0.950 . S
C2690 H2686 0.949 . S
C2690 C2698 1.574 . S
C2690 C2706 1.368 1_556 S
H2691 C2699 0.950 . S
H2692 C2697 0.950 . S
H2693 C2698 0.949 . S
H2694 C2700 0.950 . S
H2695 C2701 0.950 . S
H2696 C2702 0.949 . S
C2697 H2692 0.950 . S
C2697 C2699 1.327 . S
C2697 C2703 1.429 . S
C2698 C2690 1.574 . S
C2698 H2693 0.949 . S
C2698 C2704 1.368 1_556 S
C2699 C2683 1.349 . S
C2699 H2691 0.950 . S
C2699 C2697 1.327 . S
C2700 C2688 1.349 1_556 S
C2700 H2694 0.950 . S
C2700 C2701 1.327 . S
C2701 H2695 0.950 . S
C2701 C2700 1.327 . S
C2701 C2705 1.429 1_556 S
C2702 C2685 1.574 . S
C2702 H2696 0.949 . S
C2702 C2706 1.368 . S
C2703 C2684 1.429 1_554 S
C2703 C2697 1.429 . S
C2703 C2704 1.523 . S
C2704 C2685 1.368 . S
C2704 C2698 1.368 1_554 S
C2704 C2703 1.523 . S
C2705 C2689 1.429 . S
C2705 C2701 1.429 1_554 S
C2705 C2706 1.523 . S
C2706 C2690 1.368 1_554 S
C2706 C2702 1.368 . S
C2706 C2705 1.523 . S
H2707 C2682 0.950 . S
H2708 C2684 0.950 . S
H2709 C2685 0.949 . S
H2710 C2687 0.950 . S
H2711 C2689 0.950 . S
C2712 C2713 1.349 . S
C2712 C2714 1.327 . S
C2712 H2737 0.950 . S
C2713 C2712 1.349 . S
C2713 C2729 1.349 . S
C2714 C2712 1.327 . S
C2714 C2733 1.429 . S
C2714 H2738 0.950 . S
C2715 C2732 1.574 . S
C2715 C2734 1.368 . S
C2715 H2739 0.949 . S
H2716 C2720 0.949 . S
C2717 C2718 1.349 . S
C2717 C2719 1.327 . S
C2717 H2740 0.950 . S
C2718 C2717 1.349 . S
C2718 C2730 1.349 . S
C2719 C2717 1.327 . S
C2719 C2735 1.429 . S
C2719 H2741 0.950 . S
C2720 H2716 0.949 . S
C2720 C2728 1.574 . S
C2720 C2736 1.368 . S
H2721 C2729 0.950 . S
H2722 C2727 0.950 . S
H2723 C2728 0.949 . S
H2724 C2730 0.950 . S
H2725 C2731 0.950 . S
H2726 C2732 0.949 . S
C2727 H2722 0.950 . S
C2727 C2729 1.327 . S
C2727 C2733 1.429 . S
C2728 C2720 1.574 . S
C2728 H2723 0.949 . S
C2728 C2734 1.368 . S
C2729 C2713 1.349 . S
C2729 H2721 0.950 . S
C2729 C2727 1.327 . S
C2730 C2718 1.349 . S
C2730 H2724 0.950 . S
C2730 C2731 1.327 . S
C2731 H2725 0.950 . S
C2731 C2730 1.327 . S
C2731 C2735 1.429 . S
C2732 C2715 1.574 . S
C2732 H2726 0.949 . S
C2732 C2736 1.368 . S
C2733 C2714 1.429 . S
C2733 C2727 1.429 . S
C2733 C2734 1.523 . S
C2734 C2715 1.368 . S
C2734 C2728 1.368 . S
C2734 C2733 1.523 . S
C2735 C2719 1.429 . S
C2735 C2731 1.429 . S
C2735 C2736 1.523 . S
C2736 C2720 1.368 . S
C2736 C2732 1.368 . S
C2736 C2735 1.523 . S
H2737 C2712 0.950 . S
H2738 C2714 0.950 . S
H2739 C2715 0.949 . S
H2740 C2717 0.950 . S
H2741 C2719 0.950 . S
C2742 C2743 1.349 1_556 S
C2742 C2744 1.327 . S
C2742 H2767 0.950 . S
C2743 C2742 1.349 1_554 S
C2743 C2759 1.349 . S
C2744 C2742 1.327 . S
C2744 C2763 1.429 1_556 S
C2744 H2768 0.950 . S
C2745 C2762 1.574 . S
C2745 C2764 1.368 . S
C2745 H2769 0.949 . S
H2746 C2750 0.949 . S
C2747 C2748 1.349 1_554 S
C2747 C2749 1.327 . S
C2747 H2770 0.950 . S
C2748 C2747 1.349 1_556 S
C2748 C2760 1.349 . S
C2749 C2747 1.327 . S
C2749 C2765 1.429 1_554 S
C2749 H2771 0.950 . S
C2750 H2746 0.949 . S
C2750 C2758 1.574 . S
C2750 C2766 1.385 . S
H2751 C2759 0.950 . S
H2752 C2757 0.950 . S
H2753 C2758 0.949 . S
H2754 C2760 0.950 . S
H2755 C2761 0.950 . S
H2756 C2762 0.949 . S
C2757 H2752 0.950 . S
C2757 C2759 1.327 . S
C2757 C2763 1.429 . S
C2758 C2750 1.574 . S
C2758 H2753 0.949 . S
C2758 C2764 1.368 1_556 S
C2759 C2743 1.349 . S
C2759 H2751 0.950 . S
C2759 C2757 1.327 . S
C2760 C2748 1.349 . S
C2760 H2754 0.950 . S
C2760 C2761 1.327 . S
C2761 H2755 0.950 . S
C2761 C2760 1.327 . S
C2761 C2765 1.429 . S
C2762 C2745 1.574 . S
C2762 H2756 0.949 . S
C2762 C2766 1.351 1_554 S
C2763 C2744 1.429 1_554 S
C2763 C2757 1.429 . S
C2763 C2764 1.523 . S
C2764 C2745 1.368 . S
C2764 C2758 1.368 1_554 S
C2764 C2763 1.523 . S
C2765 C2749 1.429 1_556 S
C2765 C2761 1.429 . S
C2765 C2766 1.524 . S
C2766 C2750 1.385 . S
C2766 C2762 1.351 1_556 S
C2766 C2765 1.524 . S
H2767 C2742 0.950 . S
H2768 C2744 0.950 . S
H2769 C2745 0.949 . S
H2770 C2747 0.950 . S
H2771 C2749 0.950 . S
C2772 C2773 1.349 . S
C2772 C2774 1.327 . S
C2772 H2797 0.950 . S
C2773 C2772 1.349 . S
C2773 C2789 1.349 . S
C2774 C2772 1.327 . S
C2774 C2793 1.429 . S
C2774 H2798 0.950 . S
C2775 C2792 1.574 . S
C2775 C2794 1.368 . S
C2775 H2799 0.949 . S
H2776 C2780 0.949 . S
C2777 C2778 1.349 . S
C2777 C2779 1.327 . S
C2777 H2800 0.950 . S
C2778 C2777 1.349 . S
C2778 C2790 1.349 . S
C2779 C2777 1.327 . S
C2779 C2795 1.429 . S
C2779 H2801 0.950 . S
C2780 H2776 0.949 . S
C2780 C2788 1.574 . S
C2780 C2796 1.368 . S
H2781 C2789 0.950 . S
H2782 C2787 0.950 . S
H2783 C2788 0.949 . S
H2784 C2790 0.950 . S
H2785 C2791 0.950 . S
H2786 C2792 0.949 . S
C2787 H2782 0.950 . S
C2787 C2789 1.327 . S
C2787 C2793 1.429 . S
C2788 C2780 1.574 . S
C2788 H2783 0.949 . S
C2788 C2794 1.368 . S
C2789 C2773 1.349 . S
C2789 H2781 0.950 . S
C2789 C2787 1.327 . S
C2790 C2778 1.349 . S
C2790 H2784 0.950 . S
C2790 C2791 1.327 . S
C2791 H2785 0.950 . S
C2791 C2790 1.327 . S
C2791 C2795 1.429 . S
C2792 C2775 1.574 . S
C2792 H2786 0.949 . S
C2792 C2796 1.368 . S
C2793 C2774 1.429 . S
C2793 C2787 1.429 . S
C2793 C2794 1.523 . S
C2794 C2775 1.368 . S
C2794 C2788 1.368 . S
C2794 C2793 1.523 . S
C2795 C2779 1.429 . S
C2795 C2791 1.429 . S
C2795 C2796 1.523 . S
C2796 C2780 1.368 . S
C2796 C2792 1.368 . S
C2796 C2795 1.523 . S
H2797 C2772 0.950 . S
H2798 C2774 0.950 . S
H2799 C2775 0.949 . S
H2800 C2777 0.950 . S
H2801 C2779 0.950 . S
C2802 C2803 1.349 . S
C2802 C2804 1.327 . S
C2802 H2827 0.950 . S
C2803 C2802 1.349 . S
C2803 C2819 1.349 . S
C2804 C2802 1.327 . S
C2804 C2823 1.429 . S
C2804 H2828 0.950 . S
C2805 C2822 1.574 . S
C2805 C2824 1.368 . S
C2805 H2829 0.949 . S
H2806 C2810 0.949 . S
C2807 C2808 1.349 . S
C2807 C2809 1.327 . S
C2807 H2830 0.950 . S
C2808 C2807 1.349 . S
C2808 C2820 1.349 . S
C2809 C2807 1.327 . S
C2809 C2825 1.429 . S
C2809 H2831 0.950 . S
C2810 H2806 0.949 . S
C2810 C2818 1.574 . S
C2810 C2826 1.368 . S
H2811 C2819 0.950 . S
H2812 C2817 0.950 . S
H2813 C2818 0.949 . S
H2814 C2820 0.950 . S
H2815 C2821 0.950 . S
H2816 C2822 0.949 . S
C2817 H2812 0.950 . S
C2817 C2819 1.327 . S
C2817 C2823 1.429 . S
C2818 C2810 1.574 . S
C2818 H2813 0.949 . S
C2818 C2824 1.368 . S
C2819 C2803 1.349 . S
C2819 H2811 0.950 . S
C2819 C2817 1.327 . S
C2820 C2808 1.349 . S
C2820 H2814 0.950 . S
C2820 C2821 1.327 . S
C2821 H2815 0.950 . S
C2821 C2820 1.327 . S
C2821 C2825 1.429 . S
C2822 C2805 1.574 . S
C2822 H2816 0.949 . S
C2822 C2826 1.368 . S
C2823 C2804 1.429 . S
C2823 C2817 1.429 . S
C2823 C2824 1.523 . S
C2824 C2805 1.368 . S
C2824 C2818 1.368 . S
C2824 C2823 1.523 . S
C2825 C2809 1.429 . S
C2825 C2821 1.429 . S
C2825 C2826 1.523 . S
C2826 C2810 1.368 . S
C2826 C2822 1.368 . S
C2826 C2825 1.523 . S
H2827 C2802 0.950 . S
H2828 C2804 0.950 . S
H2829 C2805 0.949 . S
H2830 C2807 0.950 . S
H2831 C2809 0.950 . S
C2832 C2833 1.349 . S
C2832 C2834 1.327 . S
C2832 H2857 0.950 . S
C2833 C2832 1.349 . S
C2833 C2849 1.349 . S
C2834 C2832 1.327 . S
C2834 C2853 1.429 . S
C2834 H2858 0.950 . S
C2835 C2852 1.574 . S
C2835 C2854 1.368 . S
C2835 H2859 0.949 . S
H2836 C2840 0.949 . S
C2837 C2838 1.349 . S
C2837 C2839 1.327 . S
C2837 H2860 0.950 . S
C2838 C2837 1.349 . S
C2838 C2850 1.349 . S
C2839 C2837 1.327 . S
C2839 C2855 1.429 . S
C2839 H2861 0.950 . S
C2840 H2836 0.949 . S
C2840 C2848 1.574 . S
C2840 C2856 1.368 . S
H2841 C2849 0.950 . S
H2842 C2847 0.950 . S
H2843 C2848 0.949 . S
H2844 C2850 0.950 . S
H2845 C2851 0.950 . S
H2846 C2852 0.949 . S
C2847 H2842 0.950 . S
C2847 C2849 1.327 . S
C2847 C2853 1.429 . S
C2848 C2840 1.574 . S
C2848 H2843 0.949 . S
C2848 C2854 1.368 . S
C2849 C2833 1.349 . S
C2849 H2841 0.950 . S
C2849 C2847 1.327 . S
C2850 C2838 1.349 . S
C2850 H2844 0.950 . S
C2850 C2851 1.327 . S
C2851 H2845 0.950 . S
C2851 C2850 1.327 . S
C2851 C2855 1.429 . S
C2852 C2835 1.574 . S
C2852 H2846 0.949 . S
C2852 C2856 1.368 . S
C2853 C2834 1.429 . S
C2853 C2847 1.429 . S
C2853 C2854 1.523 . S
C2854 C2835 1.368 . S
C2854 C2848 1.368 . S
C2854 C2853 1.523 . S
C2855 C2839 1.429 . S
C2855 C2851 1.429 . S
C2855 C2856 1.523 . S
C2856 C2840 1.368 . S
C2856 C2852 1.368 . S
C2856 C2855 1.523 . S
H2857 C2832 0.950 . S
H2858 C2834 0.950 . S
H2859 C2835 0.949 . S
H2860 C2837 0.950 . S
H2861 C2839 0.950 . S
C2862 C2863 1.349 . S
C2862 C2864 1.327 . S
C2862 H2887 0.950 . S
C2863 C2862 1.349 . S
C2863 C2879 1.349 . S
C2864 C2862 1.327 . S
C2864 C2883 1.429 . S
C2864 H2888 0.950 . S
C2865 C2882 1.574 . S
C2865 C2884 1.368 . S
C2865 H2889 0.949 . S
H2866 C2870 0.949 . S
C2867 C2868 1.349 . S
C2867 C2869 1.327 . S
C2867 H2890 0.950 . S
C2868 C2867 1.349 . S
C2868 C2880 1.349 . S
C2869 C2867 1.327 . S
C2869 C2885 1.429 . S
C2869 H2891 0.950 . S
C2870 H2866 0.949 . S
C2870 C2878 1.574 . S
C2870 C2886 1.368 . S
H2871 C2879 0.950 . S
H2872 C2877 0.950 . S
H2873 C2878 0.949 . S
H2874 C2880 0.950 . S
H2875 C2881 0.950 . S
H2876 C2882 0.949 . S
C2877 H2872 0.950 . S
C2877 C2879 1.327 . S
C2877 C2883 1.429 . S
C2878 C2870 1.574 . S
C2878 H2873 0.949 . S
C2878 C2884 1.368 . S
C2879 C2863 1.349 . S
C2879 H2871 0.950 . S
C2879 C2877 1.327 . S
C2880 C2868 1.349 . S
C2880 H2874 0.950 . S
C2880 C2881 1.327 . S
C2881 H2875 0.950 . S
C2881 C2880 1.327 . S
C2881 C2885 1.429 . S
C2882 C2865 1.574 . S
C2882 H2876 0.949 . S
C2882 C2886 1.368 . S
C2883 C2864 1.429 . S
C2883 C2877 1.429 . S
C2883 C2884 1.523 . S
C2884 C2865 1.368 . S
C2884 C2878 1.368 . S
C2884 C2883 1.523 . S
C2885 C2869 1.429 . S
C2885 C2881 1.429 . S
C2885 C2886 1.523 . S
C2886 C2870 1.368 . S
C2886 C2882 1.368 . S
C2886 C2885 1.523 . S
H2887 C2862 0.950 . S
H2888 C2864 0.950 . S
H2889 C2865 0.949 . S
H2890 C2867 0.950 . S
H2891 C2869 0.950 . S
C2892 C2893 1.349 . S
C2892 C2894 1.327 . S
C2892 H2917 0.950 . S
C2893 C2892 1.349 . S
C2893 C2909 1.349 1_455 S
C2894 C2892 1.327 . S
C2894 C2913 1.429 . S
C2894 H2918 0.950 . S
C2895 C2912 1.574 . S
C2895 C2914 1.368 1_655 S
C2895 H2919 0.949 . S
H2896 C2900 0.949 . S
C2897 C2898 1.349 . S
C2897 C2899 1.327 . S
C2897 H2920 0.950 . S
C2898 C2897 1.349 . S
C2898 C2910 1.349 1_655 S
C2899 C2897 1.327 . S
C2899 C2915 1.416 1_655 S
C2899 H2921 0.950 . S
C2900 H2896 0.949 . S
C2900 C2908 1.574 . S
C2900 C2916 1.368 . S
H2901 C2909 0.950 . S
H2902 C2907 0.950 . S
H2903 C2908 0.949 . S
H2904 C2910 0.950 . S
H2905 C2911 0.950 . S
H2906 C2912 0.949 . S
C2907 H2902 0.950 . S
C2907 C2909 1.327 . S
C2907 C2913 1.429 1_655 S
C2908 C2900 1.574 . S
C2908 H2903 0.949 . S
C2908 C2914 1.368 . S
C2909 C2893 1.349 1_655 S
C2909 H2901 0.950 . S
C2909 C2907 1.327 . S
C2910 C2898 1.349 1_455 S
C2910 H2904 0.950 . S
C2910 C2911 1.327 . S
C2911 H2905 0.950 . S
C2911 C2910 1.327 . S
C2911 C2915 1.440 . S
C2912 C2895 1.574 . S
C2912 H2906 0.949 . S
C2912 C2916 1.368 1_655 S
C2913 C2894 1.429 . S
C2913 C2907 1.429 1_455 S
C2913 C2914 1.523 . S
C2914 C2895 1.368 1_455 S
C2914 C2908 1.368 . S
C2914 C2913 1.523 . S
C2915 C2899 1.416 1_455 S
C2915 C2911 1.440 . S
C2915 C2916 1.524 . S
C2916 C2900 1.368 . S
C2916 C2912 1.368 1_455 S
C2916 C2915 1.524 . S
H2917 C2892 0.950 . S
H2918 C2894 0.950 . S
H2919 C2895 0.949 . S
H2920 C2897 0.950 . S
H2921 C2899 0.950 . S
C2922 C2923 1.349 . S
C2922 C2924 1.327 . S
C2922 H2947 0.950 . S
C2923 C2922 1.349 . S
C2923 C2939 1.349 . S
C2924 C2922 1.327 . S
C2924 C2943 1.429 . S
C2924 H2948 0.950 . S
C2925 C2942 1.574 . S
C2925 C2944 1.368 . S
C2925 H2949 0.949 . S
H2926 C2930 0.949 . S
C2927 C2928 1.349 . S
C2927 C2929 1.327 . S
C2927 H2950 0.950 . S
C2928 C2927 1.349 . S
C2928 C2940 1.349 . S
C2929 C2927 1.327 . S
C2929 C2945 1.429 . S
C2929 H2951 0.950 . S
C2930 H2926 0.949 . S
C2930 C2938 1.574 . S
C2930 C2946 1.368 . S
H2931 C2939 0.950 . S
H2932 C2937 0.950 . S
H2933 C2938 0.949 . S
H2934 C2940 0.950 . S
H2935 C2941 0.950 . S
H2936 C2942 0.949 . S
C2937 H2932 0.950 . S
C2937 C2939 1.327 . S
C2937 C2943 1.429 . S
C2938 C2930 1.574 . S
C2938 H2933 0.949 . S
C2938 C2944 1.368 . S
C2939 C2923 1.349 . S
C2939 H2931 0.950 . S
C2939 C2937 1.327 . S
C2940 C2928 1.349 . S
C2940 H2934 0.950 . S
C2940 C2941 1.327 . S
C2941 H2935 0.950 . S
C2941 C2940 1.327 . S
C2941 C2945 1.429 . S
C2942 C2925 1.574 . S
C2942 H2936 0.949 . S
C2942 C2946 1.368 . S
C2943 C2924 1.429 . S
C2943 C2937 1.429 . S
C2943 C2944 1.523 . S
C2944 C2925 1.368 . S
C2944 C2938 1.368 . S
C2944 C2943 1.523 . S
C2945 C2929 1.429 . S
C2945 C2941 1.429 . S
C2945 C2946 1.523 . S
C2946 C2930 1.368 . S
C2946 C2942 1.368 . S
C2946 C2945 1.523 . S
H2947 C2922 0.950 . S
H2948 C2924 0.950 . S
H2949 C2925 0.949 . S
H2950 C2927 0.950 . S
H2951 C2929 0.950 . S
C2952 C2953 1.349 . S
C2952 C2954 1.327 . S
C2952 H2977 0.950 . S
C2953 C2952 1.349 . S
C2953 C2969 1.349 . S
C2954 C2952 1.327 . S
C2954 C2973 1.429 . S
C2954 H2978 0.950 . S
C2955 C2972 1.574 . S
C2955 C2974 1.368 . S
C2955 H2979 0.949 . S
H2956 C2960 0.949 . S
C2957 C2958 1.349 . S
C2957 C2959 1.327 . S
C2957 H2980 0.950 . S
C2958 C2957 1.349 . S
C2958 C2970 1.349 . S
C2959 C2957 1.327 . S
C2959 C2975 1.429 . S
C2959 H2981 0.950 . S
C2960 H2956 0.949 . S
C2960 C2968 1.574 . S
C2960 C2976 1.368 . S
H2961 C2969 0.950 . S
H2962 C2967 0.950 . S
H2963 C2968 0.949 . S
H2964 C2970 0.950 . S
H2965 C2971 0.950 . S
H2966 C2972 0.949 . S
C2967 H2962 0.950 . S
C2967 C2969 1.327 . S
C2967 C2973 1.429 . S
C2968 C2960 1.574 . S
C2968 H2963 0.949 . S
C2968 C2974 1.368 . S
C2969 C2953 1.349 . S
C2969 H2961 0.950 . S
C2969 C2967 1.327 . S
C2970 C2958 1.349 . S
C2970 H2964 0.950 . S
C2970 C2971 1.327 . S
C2971 H2965 0.950 . S
C2971 C2970 1.327 . S
C2971 C2975 1.429 . S
C2972 C2955 1.574 . S
C2972 H2966 0.949 . S
C2972 C2976 1.368 . S
C2973 C2954 1.429 . S
C2973 C2967 1.429 . S
C2973 C2974 1.523 . S
C2974 C2955 1.368 . S
C2974 C2968 1.368 . S
C2974 C2973 1.523 . S
C2975 C2959 1.429 . S
C2975 C2971 1.429 . S
C2975 C2976 1.523 . S
C2976 C2960 1.368 . S
C2976 C2972 1.368 . S
C2976 C2975 1.523 . S
H2977 C2952 0.950 . S
H2978 C2954 0.950 . S
H2979 C2955 0.949 . S
H2980 C2957 0.950 . S
H2981 C2959 0.950 . S
C2982 C2983 1.349 . S
C2982 C2984 1.327 . S
C2982 H3007 0.950 . S
C2983 C2982 1.349 . S
C2983 C2999 1.349 . S
C2984 C2982 1.327 . S
C2984 C3003 1.429 . S
C2984 H3008 0.950 . S
C2985 C3002 1.574 . S
C2985 C3004 1.368 . S
C2985 H3009 0.949 . S
H2986 C2990 0.949 . S
C2987 C2988 1.349 . S
C2987 C2989 1.327 . S
C2987 H3010 0.950 . S
C2988 C2987 1.349 . S
C2988 C3000 1.349 . S
C2989 C2987 1.327 . S
C2989 C3005 1.429 . S
C2989 H3011 0.950 . S
C2990 H2986 0.949 . S
C2990 C2998 1.574 . S
C2990 C3006 1.368 . S
H2991 C2999 0.950 . S
H2992 C2997 0.950 . S
H2993 C2998 0.949 . S
H2994 C3000 0.950 . S
H2995 C3001 0.950 . S
H2996 C3002 0.949 . S
C2997 H2992 0.950 . S
C2997 C2999 1.327 . S
C2997 C3003 1.429 . S
C2998 C2990 1.574 . S
C2998 H2993 0.949 . S
C2998 C3004 1.368 . S
C2999 C2983 1.349 . S
C2999 H2991 0.950 . S
C2999 C2997 1.327 . S
C3000 C2988 1.349 . S
C3000 H2994 0.950 . S
C3000 C3001 1.327 . S
C3001 H2995 0.950 . S
C3001 C3000 1.327 . S
C3001 C3005 1.429 . S
C3002 C2985 1.574 . S
C3002 H2996 0.949 . S
C3002 C3006 1.368 . S
C3003 C2984 1.429 . S
C3003 C2997 1.429 . S
C3003 C3004 1.523 . S
C3004 C2985 1.368 . S
C3004 C2998 1.368 . S
C3004 C3003 1.523 . S
C3005 C2989 1.429 . S
C3005 C3001 1.429 . S
C3005 C3006 1.523 . S
C3006 C2990 1.368 . S
C3006 C3002 1.368 . S
C3006 C3005 1.523 . S
H3007 C2982 0.950 . S
H3008 C2984 0.950 . S
H3009 C2985 0.949 . S
H3010 C2987 0.950 . S
H3011 C2989 0.950 . S
C3012 C3013 1.349 1_655 S
C3012 C3014 1.327 . S
C3012 H3037 0.950 . S
C3013 C3012 1.349 1_455 S
C3013 C3029 1.349 . S
C3014 C3012 1.327 . S
C3014 C3033 1.429 1_655 S
C3014 H3038 0.950 . S
C3015 C3032 1.574 . S
C3015 C3034 1.368 . S
C3015 H3039 0.949 . S
H3016 C3020 0.949 . S
C3017 C3018 1.349 1_455 S
C3017 C3019 1.327 . S
C3017 H3040 0.950 . S
C3018 C3017 1.349 1_655 S
C3018 C3030 1.349 . S
C3019 C3017 1.327 . S
C3019 C3035 1.429 1_455 S
C3019 H3041 0.950 . S
C3020 H3016 0.949 . S
C3020 C3028 1.574 . S
C3020 C3036 1.368 . S
H3021 C3029 0.950 . S
H3022 C3027 0.950 . S
H3023 C3028 0.949 . S
H3024 C3030 0.950 . S
H3025 C3031 0.950 . S
H3026 C3032 0.949 . S
C3027 H3022 0.950 . S
C3027 C3029 1.327 . S
C3027 C3033 1.429 . S
C3028 C3020 1.574 . S
C3028 H3023 0.949 . S
C3028 C3034 1.368 1_655 S
C3029 C3013 1.349 . S
C3029 H3021 0.950 . S
C3029 C3027 1.327 . S
C3030 C3018 1.349 . S
C3030 H3024 0.950 . S
C3030 C3031 1.327 . S
C3031 H3025 0.950 . S
C3031 C3030 1.327 . S
C3031 C3035 1.429 . S
C3032 C3015 1.574 . S
C3032 H3026 0.949 . S
C3032 C3036 1.368 1_455 S
C3033 C3014 1.429 1_455 S
C3033 C3027 1.429 . S
C3033 C3034 1.523 . S
C3034 C3015 1.368 . S
C3034 C3028 1.368 1_455 S
C3034 C3033 1.523 . S
C3035 C3019 1.429 1_655 S
C3035 C3031 1.429 . S
C3035 C3036 1.523 . S
C3036 C3020 1.368 . S
C3036 C3032 1.368 1_655 S
C3036 C3035 1.523 . S
H3037 C3012 0.950 . S
H3038 C3014 0.950 . S
H3039 C3015 0.949 . S
H3040 C3017 0.950 . S
H3041 C3019 0.950 . S
C3042 C3043 1.349 . S
C3042 C3044 1.327 . S
C3042 H3067 0.950 . S
C3043 C3042 1.349 . S
C3043 C3059 1.349 . S
C3044 C3042 1.327 . S
C3044 C3063 1.429 . S
C3044 H3068 0.950 . S
C3045 C3062 1.574 . S
C3045 C3064 1.368 . S
C3045 H3069 0.949 . S
H3046 C3050 0.949 . S
C3047 C3048 1.349 . S
C3047 C3049 1.327 . S
C3047 H3070 0.950 . S
C3048 C3047 1.349 . S
C3048 C3060 1.349 . S
C3049 C3047 1.327 . S
C3049 C3065 1.429 . S
C3049 H3071 0.950 . S
C3050 H3046 0.949 . S
C3050 C3058 1.574 . S
C3050 C3066 1.368 . S
H3051 C3059 0.950 . S
H3052 C3057 0.950 . S
H3053 C3058 0.949 . S
H3054 C3060 0.950 . S
H3055 C3061 0.950 . S
H3056 C3062 0.949 . S
C3057 H3052 0.950 . S
C3057 C3059 1.327 . S
C3057 C3063 1.429 . S
C3058 C3050 1.574 . S
C3058 H3053 0.949 . S
C3058 C3064 1.368 . S
C3059 C3043 1.349 . S
C3059 H3051 0.950 . S
C3059 C3057 1.327 . S
C3060 C3048 1.349 . S
C3060 H3054 0.950 . S
C3060 C3061 1.327 . S
C3061 H3055 0.950 . S
C3061 C3060 1.327 . S
C3061 C3065 1.429 . S
C3062 C3045 1.574 . S
C3062 H3056 0.949 . S
C3062 C3066 1.368 . S
C3063 C3044 1.429 . S
C3063 C3057 1.429 . S
C3063 C3064 1.523 . S
C3064 C3045 1.368 . S
C3064 C3058 1.368 . S
C3064 C3063 1.523 . S
C3065 C3049 1.429 . S
C3065 C3061 1.429 . S
C3065 C3066 1.523 . S
C3066 C3050 1.368 . S
C3066 C3062 1.368 . S
C3066 C3065 1.523 . S
H3067 C3042 0.950 . S
H3068 C3044 0.950 . S
H3069 C3045 0.949 . S
H3070 C3047 0.950 . S
H3071 C3049 0.950 . S
C3072 C3073 1.349 . S
C3072 C3074 1.327 . S
C3072 H3097 0.950 . S
C3073 C3072 1.349 . S
C3073 C3089 1.349 . S
C3074 C3072 1.327 . S
C3074 C3093 1.429 . S
C3074 H3098 0.950 . S
C3075 C3092 1.574 . S
C3075 C3094 1.368 . S
C3075 H3099 0.949 . S
H3076 C3080 0.949 . S
C3077 C3078 1.349 . S
C3077 C3079 1.327 . S
C3077 H3100 0.950 . S
C3078 C3077 1.349 . S
C3078 C3090 1.349 . S
C3079 C3077 1.327 . S
C3079 C3095 1.429 . S
C3079 H3101 0.950 . S
C3080 H3076 0.949 . S
C3080 C3088 1.574 . S
C3080 C3096 1.368 . S
H3081 C3089 0.950 . S
H3082 C3087 0.950 . S
H3083 C3088 0.949 . S
H3084 C3090 0.950 . S
H3085 C3091 0.950 . S
H3086 C3092 0.949 . S
C3087 H3082 0.950 . S
C3087 C3089 1.327 . S
C3087 C3093 1.429 . S
C3088 C3080 1.574 . S
C3088 H3083 0.949 . S
C3088 C3094 1.368 . S
C3089 C3073 1.349 . S
C3089 H3081 0.950 . S
C3089 C3087 1.327 . S
C3090 C3078 1.349 . S
C3090 H3084 0.950 . S
C3090 C3091 1.327 . S
C3091 H3085 0.950 . S
C3091 C3090 1.327 . S
C3091 C3095 1.429 . S
C3092 C3075 1.574 . S
C3092 H3086 0.949 . S
C3092 C3096 1.368 . S
C3093 C3074 1.429 . S
C3093 C3087 1.429 . S
C3093 C3094 1.523 . S
C3094 C3075 1.368 . S
C3094 C3088 1.368 . S
C3094 C3093 1.523 . S
C3095 C3079 1.429 . S
C3095 C3091 1.429 . S
C3095 C3096 1.523 . S
C3096 C3080 1.368 . S
C3096 C3092 1.368 . S
C3096 C3095 1.523 . S
H3097 C3072 0.950 . S
H3098 C3074 0.950 . S
H3099 C3075 0.949 . S
H3100 C3077 0.950 . S
H3101 C3079 0.950 . S
C3102 C3103 1.349 . S
C3102 C3104 1.327 . S
C3102 H3127 0.950 . S
C3103 C3102 1.349 . S
C3103 C3119 1.349 . S
C3104 C3102 1.327 . S
C3104 C3123 1.429 . S
C3104 H3128 0.950 . S
C3105 C3122 1.574 . S
C3105 C3124 1.368 . S
C3105 H3129 0.949 . S
H3106 C3110 0.949 . S
C3107 C3108 1.349 . S
C3107 C3109 1.327 . S
C3107 H3130 0.950 . S
C3108 C3107 1.349 . S
C3108 C3120 1.349 . S
C3109 C3107 1.327 . S
C3109 C3125 1.429 . S
C3109 H3131 0.950 . S
C3110 H3106 0.949 . S
C3110 C3118 1.574 . S
C3110 C3126 1.368 . S
H3111 C3119 0.950 . S
H3112 C3117 0.950 . S
H3113 C3118 0.949 . S
H3114 C3120 0.950 . S
H3115 C3121 0.950 . S
H3116 C3122 0.949 . S
C3117 H3112 0.950 . S
C3117 C3119 1.327 . S
C3117 C3123 1.429 . S
C3118 C3110 1.574 . S
C3118 H3113 0.949 . S
C3118 C3124 1.368 . S
C3119 C3103 1.349 . S
C3119 H3111 0.950 . S
C3119 C3117 1.327 . S
C3120 C3108 1.349 . S
C3120 H3114 0.950 . S
C3120 C3121 1.327 . S
C3121 H3115 0.950 . S
C3121 C3120 1.327 . S
C3121 C3125 1.429 . S
C3122 C3105 1.574 . S
C3122 H3116 0.949 . S
C3122 C3126 1.368 . S
C3123 C3104 1.429 . S
C3123 C3117 1.429 . S
C3123 C3124 1.523 . S
C3124 C3105 1.368 . S
C3124 C3118 1.368 . S
C3124 C3123 1.523 . S
C3125 C3109 1.429 . S
C3125 C3121 1.429 . S
C3125 C3126 1.523 . S
C3126 C3110 1.368 . S
C3126 C3122 1.368 . S
C3126 C3125 1.523 . S
H3127 C3102 0.950 . S
H3128 C3104 0.950 . S
H3129 C3105 0.949 . S
H3130 C3107 0.950 . S
H3131 C3109 0.950 . S
C3132 C3133 1.349 . S
C3132 C3134 1.327 . S
C3132 H3157 0.950 . S
C3133 C3132 1.349 . S
C3133 C3149 1.349 . S
C3134 C3132 1.327 . S
C3134 C3153 1.429 . S
C3134 H3158 0.950 . S
C3135 C3152 1.574 . S
C3135 C3154 1.368 . S
C3135 H3159 0.949 . S
H3136 C3140 0.949 . S
C3137 C3138 1.349 . S
C3137 C3139 1.327 . S
C3137 H3160 0.950 . S
C3138 C3137 1.349 . S
C3138 C3150 1.349 . S
C3139 C3137 1.327 . S
C3139 C3155 1.429 . S
C3139 H3161 0.950 . S
C3140 H3136 0.949 . S
C3140 C3148 1.574 . S
C3140 C3156 1.368 . S
H3141 C3149 0.950 . S
H3142 C3147 0.950 . S
H3143 C3148 0.949 . S
H3144 C3150 0.950 . S
H3145 C3151 0.950 . S
H3146 C3152 0.949 . S
C3147 H3142 0.950 . S
C3147 C3149 1.327 . S
C3147 C3153 1.429 . S
C3148 C3140 1.574 . S
C3148 H3143 0.949 . S
C3148 C3154 1.368 . S
C3149 C3133 1.349 . S
C3149 H3141 0.950 . S
C3149 C3147 1.327 . S
C3150 C3138 1.349 . S
C3150 H3144 0.950 . S
C3150 C3151 1.327 . S
C3151 H3145 0.950 . S
C3151 C3150 1.327 . S
C3151 C3155 1.429 . S
C3152 C3135 1.574 . S
C3152 H3146 0.949 . S
C3152 C3156 1.368 . S
C3153 C3134 1.429 . S
C3153 C3147 1.429 . S
C3153 C3154 1.523 . S
C3154 C3135 1.368 . S
C3154 C3148 1.368 . S
C3154 C3153 1.523 . S
C3155 C3139 1.429 . S
C3155 C3151 1.429 . S
C3155 C3156 1.523 . S
C3156 C3140 1.368 . S
C3156 C3152 1.368 . S
C3156 C3155 1.523 . S
H3157 C3132 0.950 . S
H3158 C3134 0.950 . S
H3159 C3135 0.949 . S
H3160 C3137 0.950 . S
H3161 C3139 0.950 . S
C3162 C3163 1.349 . S
C3162 C3164 1.327 . S
C3162 H3187 0.950 . S
C3163 C3162 1.349 . S
C3163 C3179 1.349 . S
C3164 C3162 1.327 . S
C3164 C3183 1.429 . S
C3164 H3188 0.950 . S
C3165 C3182 1.574 . S
C3165 C3184 1.368 . S
C3165 H3189 0.949 . S
H3166 C3170 0.949 . S
C3167 C3168 1.349 . S
C3167 C3169 1.327 . S
C3167 H3190 0.950 . S
C3168 C3167 1.349 . S
C3168 C3180 1.349 . S
C3169 C3167 1.327 . S
C3169 C3185 1.429 . S
C3169 H3191 0.950 . S
C3170 H3166 0.949 . S
C3170 C3178 1.574 . S
C3170 C3186 1.368 . S
H3171 C3179 0.950 . S
H3172 C3177 0.950 . S
H3173 C3178 0.949 . S
H3174 C3180 0.950 . S
H3175 C3181 0.950 . S
H3176 C3182 0.949 . S
C3177 H3172 0.950 . S
C3177 C3179 1.327 . S
C3177 C3183 1.429 . S
C3178 C3170 1.574 . S
C3178 H3173 0.949 . S
C3178 C3184 1.368 . S
C3179 C3163 1.349 . S
C3179 H3171 0.950 . S
C3179 C3177 1.327 . S
C3180 C3168 1.349 . S
C3180 H3174 0.950 . S
C3180 C3181 1.327 . S
C3181 H3175 0.950 . S
C3181 C3180 1.327 . S
C3181 C3185 1.429 . S
C3182 C3165 1.574 . S
C3182 H3176 0.949 . S
C3182 C3186 1.368 . S
C3183 C3164 1.429 . S
C3183 C3177 1.429 . S
C3183 C3184 1.523 . S
C3184 C3165 1.368 . S
C3184 C3178 1.368 . S
C3184 C3183 1.523 . S
C3185 C3169 1.429 . S
C3185 C3181 1.429 . S
C3185 C3186 1.523 . S
C3186 C3170 1.368 . S
C3186 C3182 1.368 . S
C3186 C3185 1.523 . S
H3187 C3162 0.950 . S
H3188 C3164 0.950 . S
H3189 C3165 0.949 . S
H3190 C3167 0.950 . S
H3191 C3169 0.950 . S
C3192 C3193 1.349 . S
C3192 C3194 1.327 . S
C3192 H3217 0.950 . S
C3193 C3192 1.349 . S
C3193 C3209 1.349 . S
C3194 C3192 1.327 . S
C3194 C3213 1.429 . S
C3194 H3218 0.950 . S
C3195 C3212 1.574 . S
C3195 C3214 1.368 . S
C3195 H3219 0.949 . S
H3196 C3200 0.949 . S
C3197 C3198 1.349 . S
C3197 C3199 1.327 . S
C3197 H3220 0.950 . S
C3198 C3197 1.349 . S
C3198 C3210 1.349 . S
C3199 C3197 1.327 . S
C3199 C3215 1.429 . S
C3199 H3221 0.950 . S
C3200 H3196 0.949 . S
C3200 C3208 1.574 . S
C3200 C3216 1.368 . S
H3201 C3209 0.950 . S
H3202 C3207 0.950 . S
H3203 C3208 0.949 . S
H3204 C3210 0.950 . S
H3205 C3211 0.950 . S
H3206 C3212 0.949 . S
C3207 H3202 0.950 . S
C3207 C3209 1.327 . S
C3207 C3213 1.429 . S
C3208 C3200 1.574 . S
C3208 H3203 0.949 . S
C3208 C3214 1.368 . S
C3209 C3193 1.349 . S
C3209 H3201 0.950 . S
C3209 C3207 1.327 . S
C3210 C3198 1.349 . S
C3210 H3204 0.950 . S
C3210 C3211 1.327 . S
C3211 H3205 0.950 . S
C3211 C3210 1.327 . S
C3211 C3215 1.429 . S
C3212 C3195 1.574 . S
C3212 H3206 0.949 . S
C3212 C3216 1.368 . S
C3213 C3194 1.429 . S
C3213 C3207 1.429 . S
C3213 C3214 1.523 . S
C3214 C3195 1.368 . S
C3214 C3208 1.368 . S
C3214 C3213 1.523 . S
C3215 C3199 1.429 . S
C3215 C3211 1.429 . S
C3215 C3216 1.523 . S
C3216 C3200 1.368 . S
C3216 C3212 1.368 . S
C3216 C3215 1.523 . S
H3217 C3192 0.950 . S
H3218 C3194 0.950 . S
H3219 C3195 0.949 . S
H3220 C3197 0.950 . S
H3221 C3199 0.950 . S
C3222 C3223 1.349 . S
C3222 C3224 1.327 . S
C3222 H3247 0.950 . S
C3223 C3222 1.349 . S
C3223 C3239 1.349 . S
C3224 C3222 1.327 . S
C3224 C3243 1.429 . S
C3224 H3248 0.950 . S
C3225 C3242 1.574 . S
C3225 C3244 1.368 . S
C3225 H3249 0.949 . S
H3226 C3230 0.949 . S
C3227 C3228 1.349 . S
C3227 C3229 1.327 . S
C3227 H3250 0.950 . S
C3228 C3227 1.349 . S
C3228 C3240 1.349 . S
C3229 C3227 1.327 . S
C3229 C3245 1.429 . S
C3229 H3251 0.950 . S
C3230 H3226 0.949 . S
C3230 C3238 1.574 . S
C3230 C3246 1.368 . S
H3231 C3239 0.950 . S
H3232 C3237 0.950 . S
H3233 C3238 0.949 . S
H3234 C3240 0.950 . S
H3235 C3241 0.950 . S
H3236 C3242 0.949 . S
C3237 H3232 0.950 . S
C3237 C3239 1.327 . S
C3237 C3243 1.429 . S
C3238 C3230 1.574 . S
C3238 H3233 0.949 . S
C3238 C3244 1.368 . S
C3239 C3223 1.349 . S
C3239 H3231 0.950 . S
C3239 C3237 1.327 . S
C3240 C3228 1.349 . S
C3240 H3234 0.950 . S
C3240 C3241 1.327 . S
C3241 H3235 0.950 . S
C3241 C3240 1.327 . S
C3241 C3245 1.429 . S
C3242 C3225 1.574 . S
C3242 H3236 0.949 . S
C3242 C3246 1.368 . S
C3243 C3224 1.429 . S
C3243 C3237 1.429 . S
C3243 C3244 1.523 . S
C3244 C3225 1.368 . S
C3244 C3238 1.368 . S
C3244 C3243 1.523 . S
C3245 C3229 1.429 . S
C3245 C3241 1.429 . S
C3245 C3246 1.523 . S
C3246 C3230 1.368 . S
C3246 C3242 1.368 . S
C3246 C3245 1.523 . S
H3247 C3222 0.950 . S
H3248 C3224 0.950 . S
H3249 C3225 0.949 . S
H3250 C3227 0.950 . S
H3251 C3229 0.950 . S
C3252 C3253 1.349 . S
C3252 C3254 1.327 . S
C3252 H3277 0.950 . S
C3253 C3252 1.349 . S
C3253 C3269 1.349 . S
C3254 C3252 1.327 . S
C3254 C3273 1.429 . S
C3254 H3278 0.950 . S
C3255 C3272 1.574 . S
C3255 C3274 1.368 . S
C3255 H3279 0.949 . S
H3256 C3260 0.949 . S
C3257 C3258 1.349 . S
C3257 C3259 1.327 . S
C3257 H3280 0.950 . S
C3258 C3257 1.349 . S
C3258 C3270 1.349 . S
C3259 C3257 1.327 . S
C3259 C3275 1.429 . S
C3259 H3281 0.950 . S
C3260 H3256 0.949 . S
C3260 C3268 1.574 . S
C3260 C3276 1.368 . S
H3261 C3269 0.950 . S
H3262 C3267 0.950 . S
H3263 C3268 0.949 . S
H3264 C3270 0.950 . S
H3265 C3271 0.950 . S
H3266 C3272 0.949 . S
C3267 H3262 0.950 . S
C3267 C3269 1.327 . S
C3267 C3273 1.429 . S
C3268 C3260 1.574 . S
C3268 H3263 0.949 . S
C3268 C3274 1.368 . S
C3269 C3253 1.349 . S
C3269 H3261 0.950 . S
C3269 C3267 1.327 . S
C3270 C3258 1.349 . S
C3270 H3264 0.950 . S
C3270 C3271 1.327 . S
C3271 H3265 0.950 . S
C3271 C3270 1.327 . S
C3271 C3275 1.429 . S
C3272 C3255 1.574 . S
C3272 H3266 0.949 . S
C3272 C3276 1.368 . S
C3273 C3254 1.429 . S
C3273 C3267 1.429 . S
C3273 C3274 1.523 . S
C3274 C3255 1.368 . S
C3274 C3268 1.368 . S
C3274 C3273 1.523 . S
C3275 C3259 1.429 . S
C3275 C3271 1.429 . S
C3275 C3276 1.523 . S
C3276 C3260 1.368 . S
C3276 C3272 1.368 . S
C3276 C3275 1.523 . S
H3277 C3252 0.950 . S
H3278 C3254 0.950 . S
H3279 C3255 0.949 . S
H3280 C3257 0.950 . S
H3281 C3259 0.950 . S
C3282 C3283 1.349 . S
C3282 C3284 1.327 . S
C3282 H3307 0.950 . S
C3283 C3282 1.349 . S
C3283 C3299 1.349 . S
C3284 C3282 1.327 . S
C3284 C3303 1.429 . S
C3284 H3308 0.950 . S
C3285 C3302 1.574 . S
C3285 C3304 1.368 . S
C3285 H3309 0.949 . S
H3286 C3290 0.949 . S
C3287 C3288 1.349 . S
C3287 C3289 1.327 . S
C3287 H3310 0.950 . S
C3288 C3287 1.349 . S
C3288 C3300 1.349 . S
C3289 C3287 1.327 . S
C3289 C3305 1.429 . S
C3289 H3311 0.950 . S
C3290 H3286 0.949 . S
C3290 C3298 1.574 . S
C3290 C3306 1.368 . S
H3291 C3299 0.950 . S
H3292 C3297 0.950 . S
H3293 C3298 0.949 . S
H3294 C3300 0.950 . S
H3295 C3301 0.950 . S
H3296 C3302 0.949 . S
C3297 H3292 0.950 . S
C3297 C3299 1.327 . S
C3297 C3303 1.429 . S
C3298 C3290 1.574 . S
C3298 H3293 0.949 . S
C3298 C3304 1.368 . S
C3299 C3283 1.349 . S
C3299 H3291 0.950 . S
C3299 C3297 1.327 . S
C3300 C3288 1.349 . S
C3300 H3294 0.950 . S
C3300 C3301 1.327 . S
C3301 H3295 0.950 . S
C3301 C3300 1.327 . S
C3301 C3305 1.429 . S
C3302 C3285 1.574 . S
C3302 H3296 0.949 . S
C3302 C3306 1.368 . S
C3303 C3284 1.429 . S
C3303 C3297 1.429 . S
C3303 C3304 1.523 . S
C3304 C3285 1.368 . S
C3304 C3298 1.368 . S
C3304 C3303 1.523 . S
C3305 C3289 1.429 . S
C3305 C3301 1.429 . S
C3305 C3306 1.523 . S
C3306 C3290 1.368 . S
C3306 C3302 1.368 . S
C3306 C3305 1.523 . S
H3307 C3282 0.950 . S
H3308 C3284 0.950 . S
H3309 C3285 0.949 . S
H3310 C3287 0.950 . S
H3311 C3289 0.950 . S
C3312 C3313 1.349 . S
C3312 C3314 1.327 . S
C3312 H3337 0.950 . S
C3313 C3312 1.349 . S
C3313 C3329 1.349 . S
C3314 C3312 1.327 . S
C3314 C3333 1.429 . S
C3314 H3338 0.950 . S
C3315 C3332 1.574 . S
C3315 C3334 1.368 . S
C3315 H3339 0.949 . S
H3316 C3320 0.949 . S
C3317 C3318 1.349 . S
C3317 C3319 1.327 . S
C3317 H3340 0.950 . S
C3318 C3317 1.349 . S
C3318 C3330 1.349 . S
C3319 C3317 1.327 . S
C3319 C3335 1.429 . S
C3319 H3341 0.950 . S
C3320 H3316 0.949 . S
C3320 C3328 1.574 . S
C3320 C3336 1.368 . S
H3321 C3329 0.950 . S
H3322 C3327 0.950 . S
H3323 C3328 0.949 . S
H3324 C3330 0.950 . S
H3325 C3331 0.950 . S
H3326 C3332 0.949 . S
C3327 H3322 0.950 . S
C3327 C3329 1.327 . S
C3327 C3333 1.429 . S
C3328 C3320 1.574 . S
C3328 H3323 0.949 . S
C3328 C3334 1.368 . S
C3329 C3313 1.349 . S
C3329 H3321 0.950 . S
C3329 C3327 1.327 . S
C3330 C3318 1.349 . S
C3330 H3324 0.950 . S
C3330 C3331 1.327 . S
C3331 H3325 0.950 . S
C3331 C3330 1.327 . S
C3331 C3335 1.429 . S
C3332 C3315 1.574 . S
C3332 H3326 0.949 . S
C3332 C3336 1.368 . S
C3333 C3314 1.429 . S
C3333 C3327 1.429 . S
C3333 C3334 1.523 . S
C3334 C3315 1.368 . S
C3334 C3328 1.368 . S
C3334 C3333 1.523 . S
C3335 C3319 1.429 . S
C3335 C3331 1.429 . S
C3335 C3336 1.523 . S
C3336 C3320 1.368 . S
C3336 C3332 1.368 . S
C3336 C3335 1.523 . S
H3337 C3312 0.950 . S
H3338 C3314 0.950 . S
H3339 C3315 0.949 . S
H3340 C3317 0.950 . S
H3341 C3319 0.950 . S
C3342 C3343 1.349 . S
C3342 C3344 1.327 . S
C3342 H3367 0.950 . S
C3343 C3342 1.349 . S
C3343 C3359 1.349 . S
C3344 C3342 1.327 . S
C3344 C3363 1.429 . S
C3344 H3368 0.950 . S
C3345 C3362 1.574 . S
C3345 C3364 1.368 . S
C3345 H3369 0.949 . S
H3346 C3350 0.949 . S
C3347 C3348 1.349 . S
C3347 C3349 1.327 . S
C3347 H3370 0.950 . S
C3348 C3347 1.349 . S
C3348 C3360 1.349 . S
C3349 C3347 1.327 . S
C3349 C3365 1.429 . S
C3349 H3371 0.950 . S
C3350 H3346 0.949 . S
C3350 C3358 1.574 . S
C3350 C3366 1.368 . S
H3351 C3359 0.950 . S
H3352 C3357 0.950 . S
H3353 C3358 0.949 . S
H3354 C3360 0.950 . S
H3355 C3361 0.950 . S
H3356 C3362 0.949 . S
C3357 H3352 0.950 . S
C3357 C3359 1.327 . S
C3357 C3363 1.429 . S
C3358 C3350 1.574 . S
C3358 H3353 0.949 . S
C3358 C3364 1.368 . S
C3359 C3343 1.349 . S
C3359 H3351 0.950 . S
C3359 C3357 1.327 . S
C3360 C3348 1.349 . S
C3360 H3354 0.950 . S
C3360 C3361 1.327 . S
C3361 H3355 0.950 . S
C3361 C3360 1.327 . S
C3361 C3365 1.429 . S
C3362 C3345 1.574 . S
C3362 H3356 0.949 . S
C3362 C3366 1.368 . S
C3363 C3344 1.429 . S
C3363 C3357 1.429 . S
C3363 C3364 1.523 . S
C3364 C3345 1.368 . S
C3364 C3358 1.368 . S
C3364 C3363 1.523 . S
C3365 C3349 1.429 . S
C3365 C3361 1.429 . S
C3365 C3366 1.523 . S
C3366 C3350 1.368 . S
C3366 C3362 1.368 . S
C3366 C3365 1.523 . S
H3367 C3342 0.950 . S
H3368 C3344 0.950 . S
H3369 C3345 0.949 . S
H3370 C3347 0.950 . S
H3371 C3349 0.950 . S
C3372 C3373 1.349 . S
C3372 C3374 1.327 . S
C3372 H3397 0.950 . S
C3373 C3372 1.349 . S
C3373 C3389 1.349 . S
C3374 C3372 1.327 . S
C3374 C3393 1.429 . S
C3374 H3398 0.950 . S
C3375 C3392 1.574 . S
C3375 C3394 1.368 . S
C3375 H3399 0.949 . S
H3376 C3380 0.949 . S
C3377 C3378 1.349 . S
C3377 C3379 1.327 . S
C3377 H3400 0.950 . S
C3378 C3377 1.349 . S
C3378 C3390 1.349 . S
C3379 C3377 1.327 . S
C3379 C3395 1.429 . S
C3379 H3401 0.950 . S
C3380 H3376 0.949 . S
C3380 C3388 1.574 . S
C3380 C3396 1.368 . S
H3381 C3389 0.950 . S
H3382 C3387 0.950 . S
H3383 C3388 0.949 . S
H3384 C3390 0.950 . S
H3385 C3391 0.950 . S
H3386 C3392 0.949 . S
C3387 H3382 0.950 . S
C3387 C3389 1.327 . S
C3387 C3393 1.429 . S
C3388 C3380 1.574 . S
C3388 H3383 0.949 . S
C3388 C3394 1.368 . S
C3389 C3373 1.349 . S
C3389 H3381 0.950 . S
C3389 C3387 1.327 . S
C3390 C3378 1.349 . S
C3390 H3384 0.950 . S
C3390 C3391 1.327 . S
C3391 H3385 0.950 . S
C3391 C3390 1.327 . S
C3391 C3395 1.429 . S
C3392 C3375 1.574 . S
C3392 H3386 0.949 . S
C3392 C3396 1.368 . S
C3393 C3374 1.429 . S
C3393 C3387 1.429 . S
C3393 C3394 1.523 . S
C3394 C3375 1.368 . S
C3394 C3388 1.368 . S
C3394 C3393 1.523 . S
C3395 C3379 1.429 . S
C3395 C3391 1.429 . S
C3395 C3396 1.523 . S
C3396 C3380 1.368 . S
C3396 C3392 1.368 . S
C3396 C3395 1.523 . S
H3397 C3372 0.950 . S
H3398 C3374 0.950 . S
H3399 C3375 0.949 . S
H3400 C3377 0.950 . S
H3401 C3379 0.950 . S
C3402 C3403 1.349 . S
C3402 C3404 1.327 . S
C3402 H3427 0.950 . S
C3403 C3402 1.349 . S
C3403 C3419 1.349 1_554 S
C3404 C3402 1.327 . S
C3404 C3423 1.429 . S
C3404 H3428 0.950 . S
C3405 C3422 1.574 . S
C3405 C3424 1.368 1_556 S
C3405 H3429 0.949 . S
H3406 C3410 0.949 . S
C3407 C3408 1.349 . S
C3407 C3409 1.327 . S
C3407 H3430 0.950 . S
C3408 C3407 1.349 . S
C3408 C3420 1.349 1_556 S
C3409 C3407 1.327 . S
C3409 C3425 1.429 . S
C3409 H3431 0.950 . S
C3410 H3406 0.949 . S
C3410 C3418 1.574 . S
C3410 C3426 1.367 1_554 S
H3411 C3419 0.950 . S
H3412 C3417 0.950 . S
H3413 C3418 0.949 . S
H3414 C3420 0.950 . S
H3415 C3421 0.950 . S
H3416 C3422 0.949 . S
C3417 H3412 0.950 . S
C3417 C3419 1.327 . S
C3417 C3423 1.429 1_556 S
C3418 C3410 1.574 . S
C3418 H3413 0.949 . S
C3418 C3424 1.368 . S
C3419 C3403 1.349 1_556 S
C3419 H3411 0.950 . S
C3419 C3417 1.327 . S
C3420 C3408 1.349 1_554 S
C3420 H3414 0.950 . S
C3420 C3421 1.327 . S
C3421 H3415 0.950 . S
C3421 C3420 1.327 . S
C3421 C3425 1.429 1_554 S
C3422 C3405 1.574 . S
C3422 H3416 0.949 . S
C3422 C3426 1.370 . S
C3423 C3404 1.429 . S
C3423 C3417 1.429 1_554 S
C3423 C3424 1.523 . S
C3424 C3405 1.368 1_554 S
C3424 C3418 1.368 . S
C3424 C3423 1.523 . S
C3425 C3409 1.429 . S
C3425 C3421 1.429 1_556 S
C3425 C3426 1.523 . S
C3426 C3410 1.367 1_556 S
C3426 C3422 1.370 . S
C3426 C3425 1.523 . S
H3427 C3402 0.950 . S
H3428 C3404 0.950 . S
H3429 C3405 0.949 . S
H3430 C3407 0.950 . S
H3431 C3409 0.950 . S
C3432 C3433 1.349 . S
C3432 C3434 1.327 . S
C3432 H3457 0.950 . S
C3433 C3432 1.349 . S
C3433 C3449 1.349 . S
C3434 C3432 1.327 . S
C3434 C3453 1.429 . S
C3434 H3458 0.950 . S
C3435 C3452 1.574 . S
C3435 C3454 1.368 . S
C3435 H3459 0.949 . S
H3436 C3440 0.949 . S
C3437 C3438 1.349 . S
C3437 C3439 1.327 . S
C3437 H3460 0.950 . S
C3438 C3437 1.349 . S
C3438 C3450 1.349 . S
C3439 C3437 1.327 . S
C3439 C3455 1.429 . S
C3439 H3461 0.950 . S
C3440 H3436 0.949 . S
C3440 C3448 1.574 . S
C3440 C3456 1.368 . S
H3441 C3449 0.950 . S
H3442 C3447 0.950 . S
H3443 C3448 0.949 . S
H3444 C3450 0.950 . S
H3445 C3451 0.950 . S
H3446 C3452 0.949 . S
C3447 H3442 0.950 . S
C3447 C3449 1.327 . S
C3447 C3453 1.429 . S
C3448 C3440 1.574 . S
C3448 H3443 0.949 . S
C3448 C3454 1.368 . S
C3449 C3433 1.349 . S
C3449 H3441 0.950 . S
C3449 C3447 1.327 . S
C3450 C3438 1.349 . S
C3450 H3444 0.950 . S
C3450 C3451 1.327 . S
C3451 H3445 0.950 . S
C3451 C3450 1.327 . S
C3451 C3455 1.429 . S
C3452 C3435 1.574 . S
C3452 H3446 0.949 . S
C3452 C3456 1.368 . S
C3453 C3434 1.429 . S
C3453 C3447 1.429 . S
C3453 C3454 1.523 . S
C3454 C3435 1.368 . S
C3454 C3448 1.368 . S
C3454 C3453 1.523 . S
C3455 C3439 1.429 . S
C3455 C3451 1.429 . S
C3455 C3456 1.523 . S
C3456 C3440 1.368 . S
C3456 C3452 1.368 . S
C3456 C3455 1.523 . S
H3457 C3432 0.950 . S
H3458 C3434 0.950 . S
H3459 C3435 0.949 . S
H3460 C3437 0.950 . S
H3461 C3439 0.950 . S
C3462 C3463 1.349 . S
C3462 C3464 1.327 . S
C3462 H3487 0.950 . S
C3463 C3462 1.349 . S
C3463 C3479 1.349 1_554 S
C3464 C3462 1.327 . S
C3464 C3483 1.429 . S
C3464 H3488 0.950 . S
C3465 C3482 1.574 . S
C3465 C3484 1.368 1_556 S
C3465 H3489 0.949 . S
H3466 C3470 0.949 . S
C3467 C3468 1.349 1_556 S
C3467 C3469 1.327 . S
C3467 H3490 0.950 . S
C3468 C3467 1.349 1_554 S
C3468 C3480 1.349 . S
C3469 C3467 1.327 . S
C3469 C3485 1.429 1_556 S
C3469 H3491 0.950 . S
C3470 H3466 0.949 . S
C3470 C3478 1.574 . S
C3470 C3486 1.368 . S
H3471 C3479 0.950 . S
H3472 C3477 0.950 . S
H3473 C3478 0.949 . S
H3474 C3480 0.950 . S
H3475 C3481 0.950 . S
H3476 C3482 0.949 . S
C3477 H3472 0.950 . S
C3477 C3479 1.327 . S
C3477 C3483 1.429 1_556 S
C3478 C3470 1.574 . S
C3478 H3473 0.949 . S
C3478 C3484 1.368 . S
C3479 C3463 1.349 1_556 S
C3479 H3471 0.950 . S
C3479 C3477 1.327 . S
C3480 C3468 1.349 . S
C3480 H3474 0.950 . S
C3480 C3481 1.327 . S
C3481 H3475 0.950 . S
C3481 C3480 1.327 . S
C3481 C3485 1.429 . S
C3482 C3465 1.574 . S
C3482 H3476 0.949 . S
C3482 C3486 1.368 1_556 S
C3483 C3464 1.429 . S
C3483 C3477 1.429 1_554 S
C3483 C3484 1.523 . S
C3484 C3465 1.368 1_554 S
C3484 C3478 1.368 . S
C3484 C3483 1.523 . S
C3485 C3469 1.429 1_554 S
C3485 C3481 1.429 . S
C3485 C3486 1.523 . S
C3486 C3470 1.368 . S
C3486 C3482 1.368 1_554 S
C3486 C3485 1.523 . S
H3487 C3462 0.950 . S
H3488 C3464 0.950 . S
H3489 C3465 0.949 . S
H3490 C3467 0.950 . S
H3491 C3469 0.950 . S
C3492 C3493 1.349 . S
C3492 C3494 1.327 . S
C3492 H3517 0.950 . S
C3493 C3492 1.349 . S
C3493 C3509 1.349 . S
C3494 C3492 1.327 . S
C3494 C3513 1.429 . S
C3494 H3518 0.950 . S
C3495 C3512 1.574 . S
C3495 C3514 1.368 . S
C3495 H3519 0.949 . S
H3496 C3500 0.949 . S
C3497 C3498 1.349 . S
C3497 C3499 1.327 . S
C3497 H3520 0.950 . S
C3498 C3497 1.349 . S
C3498 C3510 1.349 . S
C3499 C3497 1.327 . S
C3499 C3515 1.429 . S
C3499 H3521 0.950 . S
C3500 H3496 0.949 . S
C3500 C3508 1.574 . S
C3500 C3516 1.368 . S
H3501 C3509 0.950 . S
H3502 C3507 0.950 . S
H3503 C3508 0.949 . S
H3504 C3510 0.950 . S
H3505 C3511 0.950 . S
H3506 C3512 0.949 . S
C3507 H3502 0.950 . S
C3507 C3509 1.327 . S
C3507 C3513 1.429 . S
C3508 C3500 1.574 . S
C3508 H3503 0.949 . S
C3508 C3514 1.368 . S
C3509 C3493 1.349 . S
C3509 H3501 0.950 . S
C3509 C3507 1.327 . S
C3510 C3498 1.349 . S
C3510 H3504 0.950 . S
C3510 C3511 1.327 . S
C3511 H3505 0.950 . S
C3511 C3510 1.327 . S
C3511 C3515 1.429 . S
C3512 C3495 1.574 . S
C3512 H3506 0.949 . S
C3512 C3516 1.368 . S
C3513 C3494 1.429 . S
C3513 C3507 1.429 . S
C3513 C3514 1.523 . S
C3514 C3495 1.368 . S
C3514 C3508 1.368 . S
C3514 C3513 1.523 . S
C3515 C3499 1.429 . S
C3515 C3511 1.429 . S
C3515 C3516 1.523 . S
C3516 C3500 1.368 . S
C3516 C3512 1.368 . S
C3516 C3515 1.523 . S
H3517 C3492 0.950 . S
H3518 C3494 0.950 . S
H3519 C3495 0.949 . S
H3520 C3497 0.950 . S
H3521 C3499 0.950 . S
C3522 C3523 1.349 . S
C3522 C3524 1.327 . S
C3522 H3547 0.950 . S
C3523 C3522 1.349 . S
C3523 C3539 1.349 . S
C3524 C3522 1.327 . S
C3524 C3543 1.429 . S
C3524 H3548 0.950 . S
C3525 C3542 1.574 . S
C3525 C3544 1.368 . S
C3525 H3549 0.949 . S
H3526 C3530 0.949 . S
C3527 C3528 1.349 . S
C3527 C3529 1.327 . S
C3527 H3550 0.950 . S
C3528 C3527 1.349 . S
C3528 C3540 1.349 . S
C3529 C3527 1.327 . S
C3529 C3545 1.429 . S
C3529 H3551 0.950 . S
C3530 H3526 0.949 . S
C3530 C3538 1.574 . S
C3530 C3546 1.368 . S
H3531 C3539 0.950 . S
H3532 C3537 0.950 . S
H3533 C3538 0.949 . S
H3534 C3540 0.950 . S
H3535 C3541 0.950 . S
H3536 C3542 0.949 . S
C3537 H3532 0.950 . S
C3537 C3539 1.327 . S
C3537 C3543 1.429 . S
C3538 C3530 1.574 . S
C3538 H3533 0.949 . S
C3538 C3544 1.368 . S
C3539 C3523 1.349 . S
C3539 H3531 0.950 . S
C3539 C3537 1.327 . S
C3540 C3528 1.349 . S
C3540 H3534 0.950 . S
C3540 C3541 1.327 . S
C3541 H3535 0.950 . S
C3541 C3540 1.327 . S
C3541 C3545 1.429 . S
C3542 C3525 1.574 . S
C3542 H3536 0.949 . S
C3542 C3546 1.368 . S
C3543 C3524 1.429 . S
C3543 C3537 1.429 . S
C3543 C3544 1.523 . S
C3544 C3525 1.368 . S
C3544 C3538 1.368 . S
C3544 C3543 1.523 . S
C3545 C3529 1.429 . S
C3545 C3541 1.429 . S
C3545 C3546 1.523 . S
C3546 C3530 1.368 . S
C3546 C3542 1.368 . S
C3546 C3545 1.523 . S
H3547 C3522 0.950 . S
H3548 C3524 0.950 . S
H3549 C3525 0.949 . S
H3550 C3527 0.950 . S
H3551 C3529 0.950 . S
C678 C352 1.105 . S
C673 C4 1.178 . S
C703 C19 0.884 . S
C708 C372 0.990 . S
C733 C39 1.087 . S
C738 C394 1.013 . S
C768 C413 1.179 . S
C763 C54 1.213 . S
C793 C18 1.193 . S
C798 C434 1.190 . S
C828 C457 1.147 . S
C823 C40 1.248 . S
C858 C480 0.940 . S
C853 C53 0.955 . S
C883 C5 0.973 . S
C888 C498 1.111 . S
C913 C61 0.914 1_545 S
C918 C354 1.033 . S
C943 C74 1.276 . S
C948 C374 1.273 . S
C978 C396 0.911 . S
C973 C89 0.831 . S
C1008 C415 1.131 . S
C1003 C109 1.227 . S
C1033 C68 1.193 . S
C1038 C436 1.101 . S
C1068 C459 1.007 . S
C1063 C81 1.022 . S
C1098 C476 1.126 . S
C1093 C96 1.156 . S
C1128 C500 1.230 . S
C1123 C102 1.239 . S
C1158 C350 1.082 . S
C1153 C103 0.953 . S
C1188 C522 0.975 . S
C1183 C117 0.875 . S
C1213 C130 1.205 . S
C1218 C539 1.204 . S
C1248 C562 1.154 . S
C1243 C152 1.260 . S
C1273 C60 1.223 . S
C1278 C496 1.143 . S
C1308 C392 1.170 . S
C1303 C82 1.201 . S
C1333 C137 0.924 . S
C1338 C585 0.912 . S
C1368 C601 1.006 . S
C1363 C165 1.079 . S
C1393 C172 1.205 . S
C1398 C349 1.115 . S
C1428 C602 1.174 . S
C1423 C194 1.193 . S
C1453 C207 1.183 . S
C1458 C391 1.101 . S
C1483 C215 0.967 . S
C1488 C582 1.067 . S
C1518 C435 1.136 . S
C1513 C186 1.154 . S
C1548 C538 1.141 . S
C1543 C201 1.080 . S
C1578 C479 1.131 . S
C1573 C221 1.135 . S
C1608 C623 1.248 . S
C1603 C180 1.264 . S
C1638 C353 1.191 . S
C1633 C236 1.208 . S
C1663 C242 1.244 . S
C1668 C606 1.217 . S
C1698 C395 1.143 . S
C1693 C264 1.161 . S
C1723 C277 1.228 . S
C1728 C580 1.151 . S
C1753 C229 0.980 1_565 S
C1758 C433 1.038 . S
C1783 C249 1.181 . S
C1788 C542 1.171 . S
C1818 C477 0.989 . S
C1813 C257 0.902 1_545 S
C1843 C270 1.245 . S
C1848 C627 1.228 . S
C1873 C278 1.116 . S
C1878 C351 1.083 . S
C1903 C292 1.259 . S
C1908 C521 1.238 . S
C1933 C298 1.214 . S
C1938 C456 1.193 . S
C1963 C313 1.091 . S
C1968 C559 1.153 . S
C1998 C625 1.147 . S
C1993 C228 1.238 . S
C2028 C393 1.022 . S
C2023 C243 0.935 . S
C2058 C416 1.102 . S
C2053 C305 1.105 . S
C2088 C373 1.058 . S
C2083 C333 1.139 . S
C2113 C32 1.178 . S
C2118 C646 1.105 . S
C2148 C603 0.991 . S
C2143 C47 0.884 . S
C2178 C667 1.013 . S
C2173 C11 1.087 . S
C2203 C26 1.213 . S
C2208 C581 1.179 . S
C2233 C46 1.193 . S
C2238 C518 1.190 . S
C2268 C541 1.147 . S
C2263 C12 1.248 . S
C2298 C564 0.940 . S
C2293 C25 0.955 . S
C2328 C624 1.111 . S
C2323 C33 0.973 . S
C2358 C648 1.033 . S
C2353 C159 0.914 . S
C2383 C116 1.276 . S
C2388 C605 1.273 . S
C2413 C131 0.831 . S
C2418 C669 0.911 . S
C2448 C583 1.131 . S
C2443 C151 1.227 . S
C2478 C520 1.100 . S
C2473 C166 1.193 . S
C2503 C123 1.022 . S
C2508 C543 1.007 . S
C2538 C560 1.126 . S
C2533 C138 1.157 . S
C2563 C144 1.239 . S
C2568 C626 1.230 . S
C2598 C644 1.080 . S
C2593 C145 0.953 . S
C2628 C438 0.975 . S
C2623 C75 0.875 . S
C2658 C455 1.204 . S
C2653 C88 1.205 . S
C2683 C110 1.260 . S
C2688 C478 1.154 . S
C2718 C622 1.143 . S
C2713 C158 1.223 . S
C2743 C124 1.201 . S
C2748 C665 1.170 . S
C2778 C417 0.912 . S
C2773 C95 0.924 . S
C2808 C370 1.006 . S
C2803 C67 1.079 . S
C2833 C200 1.205 . S
C2838 C643 1.115 . S
C2868 C371 1.173 . S
C2863 C222 1.193 . S
C2898 C664 1.101 . S
C2893 C179 1.183 . S
C2923 C187 0.967 . S
C2928 C414 1.067 . S
C2953 C214 1.154 . S
C2958 C519 1.136 . S
C2983 C173 1.080 . S
C2988 C454 1.141 . S
C3013 C193 1.135 . S
C3018 C563 1.131 . S
C3043 C208 1.264 . S
C3048 C497 1.248 . S
C3078 C647 1.191 . S
C3073 C334 1.208 . S
C3103 C284 1.244 . S
C3108 C375 1.218 . S
C3138 C668 1.143 . S
C3133 C306 1.161 . S
C3163 C319 1.228 . S
C3168 C412 1.151 . S
C3193 C327 0.980 . S
C3198 C517 1.038 . S
C3228 C458 1.171 . S
C3223 C291 1.181 . S
C3253 C299 0.902 . S
C3258 C561 0.989 . S
C3288 C501 1.228 . S
C3283 C312 1.245 . S
C3318 C645 1.083 . S
C3313 C320 1.116 . S
C3348 C437 1.238 . S
C3343 C250 1.259 . S
C3373 C256 1.214 . S
C3378 C540 1.193 . S
C3408 C475 1.153 . S
C3403 C271 1.092 . S
C3438 C499 1.147 . S
C3433 C326 1.238 . S
C3463 C285 0.935 1_554 S
C3468 C666 1.022 . S
C3498 C584 1.102 . S
C3493 C263 1.105 . S
C3528 C604 1.058 . S
C3523 C235 1.139 . S
