# Generated by pormake.
# Topology pth, (4,4)-cn, num edge types: 1
# Building blocks:
#     Node 0, Type 0, BuildingBlock: GALJAG_clean_sbu_0, # of connection points: 4
#     Node 1, Type 0, BuildingBlock: GALJAG_clean_sbu_0, # of connection points: 4
#     Node 2, Type 0, BuildingBlock: GALJAG_clean_sbu_0, # of connection points: 4
#     Node 3, Type 1, BuildingBlock: NAWXER_clean_sbu_0, # of connection points: 4
#     Node 4, Type 1, BuildingBlock: NAWXER_clean_sbu_0, # of connection points: 4
#     Node 5, Type 1, BuildingBlock: NAWXER_clean_sbu_0, # of connection points: 4
#     Edge 6, Type (0, 1), BuildingBlock: ZUJKAS_clean_linker_0, # of connection points: 2
#     Edge 7, Type (0, 1), BuildingBlock: ZUJKAS_clean_linker_0, # of connection points: 2
#     Edge 8, Type (0, 1), BuildingBlock: ZUJKAS_clean_linker_0, # of connection points: 2
#     Edge 9, Type (0, 1), BuildingBlock: ZUJKAS_clean_linker_0, # of connection points: 2
#     Edge 10, Type (0, 1), BuildingBlock: ZUJKAS_clean_linker_0, # of connection points: 2
#     Edge 11, Type (0, 1), BuildingBlock: ZUJKAS_clean_linker_0, # of connection points: 2
#     Edge 12, Type (0, 1), BuildingBlock: ZUJKAS_clean_linker_0, # of connection points: 2
#     Edge 13, Type (0, 1), BuildingBlock: ZUJKAS_clean_linker_0, # of connection points: 2
#     Edge 14, Type (0, 1), BuildingBlock: ZUJKAS_clean_linker_0, # of connection points: 2
#     Edge 15, Type (0, 1), BuildingBlock: ZUJKAS_clean_linker_0, # of connection points: 2
#     Edge 16, Type (0, 1), BuildingBlock: ZUJKAS_clean_linker_0, # of connection points: 2
#     Edge 17, Type (0, 1), BuildingBlock: ZUJKAS_clean_linker_0, # of connection points: 2
# Relax obj value: 0.017
# Max RMSD: 0.060
# Mean RMSD: 0.053
data_MOF--net-pth--node1-GALJAG_clean_sbu_0--node2-NAWXER_clean_sbu_0--edge1-ZUJKAS_clean_linker_0
_symmetry_space_group_name_H-M    P1
_symmetry_Int_Tables_number       1
_symmetry_cell_setting            triclinic
loop_
_symmetry_equiv_pos_as_xyz
'x, y, z'
_cell_length_a     30.317766
_cell_length_b     30.299499
_cell_length_c     72.584852
_cell_angle_alpha  90.167998
_cell_angle_beta   90.111067
_cell_angle_gamma 120.02878
loop_
_atom_site_label
_atom_site_type_symbol
_atom_site_fract_x
_atom_site_fract_y
_atom_site_fract_z
_atom_type_partial_charge
In0 In 0.0138 0.00922 0.07109 0.0
O1 O 0.98407 0.06052 0.08215 0.0
O2 O 0.05588 0.07384 0.09174 0.0
C3 C 0.93428 0.94999 0.0489 0.0
C4 C 0.09218 0.0604 0.0475 0.0
C5 C 1.00299 0.9363 0.09504 0.0
O6 O 0.93803 0.98855 0.05716 0.0
O7 O 0.97085 0.94203 0.05168 0.0
O8 O 0.03742 0.9542 0.08295 0.0
O9 O 0.97469 0.95574 0.09523 0.0
C10 C 0.02241 0.08683 0.09229 0.0
O11 O 0.09774 0.04484 0.06295 0.0
O12 O 0.04721 0.04964 0.04386 0.0
In13 In 0.00703 0.00849 0.40661 0.0
O14 O 0.03264 0.08816 0.39531 0.0
O15 O 0.96529 0.02601 0.38417 0.0
C16 C 0.0855 0.03139 0.42979 0.0
C17 C 0.92827 0.98482 0.42957 0.0
C18 C 0.01858 0.94442 0.38369 0.0
O19 O 0.08721 0.06217 0.41774 0.0
O20 O 0.04412 0.9895 0.43026 0.0
O21 O 0.9822 0.92911 0.39495 0.0
O22 O 0.04865 0.9919 0.38388 0.0
C23 C 0.99598 0.07337 0.38411 0.0
O24 O 0.92651 0.95468 0.41716 0.0
O25 O 0.96982 0.02649 0.43049 0.0
In26 In 0.00742 0.00697 0.73795 0.0
O27 O 0.98519 0.93421 0.75427 0.0
O28 O 0.93573 0.96458 0.75556 0.0
C29 C 0.07015 0.99358 0.71503 0.0
C30 C 0.94536 0.02227 0.71526 0.0
C31 C 0.07071 0.084 0.76068 0.0
O32 O 0.02881 0.95702 0.72083 0.0
O33 O 0.07961 0.03692 0.72062 0.0
O34 O 0.04942 0.09063 0.74688 0.0
O35 O 0.06022 0.03854 0.76303 0.0
C36 C 0.9446 0.93 0.76059 0.0
O37 O 0.96228 0.04606 0.73024 0.0
O38 O 0.95959 0.99054 0.71169 0.0
C39 C 0.04835 0.58545 0.26294 0.0
C40 C 0.04546 0.47035 0.21482 0.0
O41 O 0.08691 0.58755 0.25515 0.0
Zn42 Zn 0.04934 0.52901 0.23892 0.0
O43 O 1.00344 0.55074 0.25818 0.0
Zn44 Zn 0.96742 0.48863 0.23918 0.0
O45 O 0.93103 0.4303 0.25536 0.0
O46 O 0.01467 0.4669 0.25778 0.0
O47 O 1.00114 0.46092 0.21992 0.0
O48 O 0.08487 0.50678 0.22236 0.0
O49 O 0.01427 0.55675 0.22033 0.0
O50 O 0.9307 0.51113 0.22331 0.0
C51 C 0.97007 0.43229 0.26276 0.0
C52 C 0.96964 0.5475 0.21566 0.0
C53 C 0.58406 0.04372 0.5938 0.0
C54 C 0.47232 0.04873 0.54629 0.0
O55 O 0.54838 0.99925 0.58898 0.0
Zn56 Zn 0.48552 0.96623 0.56999 0.0
O57 O 0.58693 0.08286 0.58624 0.0
Zn58 Zn 0.52873 0.04723 0.57 0.0
O59 O 0.46563 0.01458 0.58871 0.0
O60 O 0.42725 0.93088 0.58608 0.0
O61 O 0.51036 0.08633 0.55396 0.0
O62 O 0.45998 1.00316 0.55096 0.0
O63 O 0.50408 0.92695 0.55399 0.0
O64 O 0.5542 0.01007 0.55107 0.0
C65 C 0.42995 0.97024 0.59349 0.0
C66 C 0.54198 0.96447 0.54638 0.0
C67 C 0.47831 0.42997 0.93019 0.0
C68 C 0.58724 0.54615 0.88229 0.0
O69 O 0.4661 0.46345 0.92579 0.0
Zn70 Zn 0.49022 0.52537 0.90669 0.0
O71 O 0.51524 0.42948 0.92212 0.0
Zn72 Zn 0.53306 0.48701 0.90615 0.0
O73 O 0.56022 0.55023 0.92501 0.0
O74 O 0.50992 0.58321 0.92289 0.0
O75 O 0.58995 0.50925 0.88937 0.0
O76 O 0.55218 0.5552 0.88756 0.0
O77 O 0.43103 0.50224 0.89076 0.0
O78 O 0.46853 0.4562 0.8881 0.0
C79 C 0.54853 0.58373 0.93003 0.0
C80 C 0.43273 0.46487 0.88351 0.0
H81 H 0.10474 0.1521 0.11301 0.0
H82 H 0.11324 0.22088 0.13317 0.0
H83 H 0.96147 0.18638 0.11832 0.0
H84 H 0.95258 0.11739 0.0981 0.0
H85 H 0.10168 0.30852 0.12404 0.0
H86 H 0.96231 0.17929 0.1758 0.0
H87 H 0.99131 0.15763 0.15903 0.0
H88 H 0.9401 0.16792 0.15234 0.0
C89 C 0.07317 0.15918 0.11401 0.0
C90 C 0.02784 0.12917 0.10406 0.0
C91 C 0.07818 0.19855 0.1255 0.0
C92 C 0.03782 0.20829 0.12735 0.0
C93 C 0.99282 0.17898 0.11722 0.0
H94 H 0.97017 0.4034 0.1921 0.0
H95 H 0.97291 0.34343 0.17042 0.0
C96 C 0.98785 0.13973 0.10565 0.0
C97 C 0.0425 0.24866 0.1401 0.0
H98 H 0.9927 0.26751 0.17944 0.0
C99 C 0.0781 0.29972 0.13622 0.0
C100 C 0.01186 0.23682 0.156 0.0
C101 C 0.9745 0.18245 0.16121 0.0
C102 C 0.08262 0.33956 0.14752 0.0
C103 C 0.05137 0.32773 0.16328 0.0
C104 C 0.01652 0.27652 0.16732 0.0
C105 C 0.05219 0.36761 0.17542 0.0
C106 C 0.11951 0.39391 0.14218 0.0
C107 C 0.09617 0.40175 0.18533 0.0
C108 C 0.09486 0.43661 0.19776 0.0
C109 C 0.04934 0.43731 0.2006 0.0
C110 C 1.00581 0.40372 0.19035 0.0
C111 C 0.00726 0.36934 0.17792 0.0
H112 H 0.13171 0.39686 0.1276 0.0
H113 H 0.10233 0.41845 0.14422 0.0
H114 H 0.15397 0.40893 0.15103 0.0
H115 H 0.13104 0.40046 0.18386 0.0
H116 H 0.12891 0.46177 0.20553 0.0
H117 H 0.9268 0.04018 0.45897 0.0
H118 H 0.85403 0.02306 0.47833 0.0
H119 H 0.75848 0.88663 0.44699 0.0
H120 H 0.83131 0.90343 0.42752 0.0
H121 H 0.71876 0.95488 0.45211 0.0
H122 H 0.78137 0.91002 0.51783 0.0
H123 H 0.8288 0.96756 0.50699 0.0
H124 H 0.80741 0.90722 0.49576 0.0
C125 C 0.89042 0.00628 0.45629 0.0
C126 C 0.88475 0.97308 0.44175 0.0
C127 C 0.84897 0.99643 0.46742 0.0
C128 C 0.80109 0.95326 0.46422 0.0
C129 C 0.79525 0.91994 0.44975 0.0
H130 H 0.54436 0.87671 0.539 0.0
H131 H 0.60205 0.86674 0.51788 0.0
C132 C 0.83685 0.92957 0.43867 0.0
C133 C 0.75676 0.94474 0.47543 0.0
H134 H 0.71385 0.92902 0.51972 0.0
C135 C 0.71726 0.94849 0.46685 0.0
C136 C 0.7547 0.9359 0.49461 0.0
C137 C 0.79508 0.92945 0.50436 0.0
C138 C 0.67698 0.94619 0.47713 0.0
C139 C 0.67644 0.94018 0.49644 0.0
C140 C 0.71455 0.93386 0.5049 0.0
C141 C 0.63912 0.94464 0.50827 0.0
C142 C 0.63582 0.95123 0.46733 0.0
C143 C 0.64105 0.99169 0.50983 0.0
C144 C 0.60864 0.99761 0.52192 0.0
C145 C 0.57347 0.9565 0.53268 0.0
C146 C 0.57084 0.909 0.53083 0.0
C147 C 0.60378 0.90326 0.51882 0.0
H148 H 0.63445 0.94252 0.45238 0.0
H149 H 0.59791 0.92544 0.47344 0.0
H150 H 0.64363 0.99097 0.4688 0.0
H151 H 0.66855 0.02425 0.50199 0.0
H152 H 0.61166 0.03469 0.523 0.0
H153 H 0.85614 0.91458 0.77606 0.0
H154 H 0.79968 0.84586 0.79674 0.0
H155 H 0.89878 0.78218 0.79385 0.0
H156 H 0.95539 0.85072 0.77297 0.0
H157 H 0.7937 0.7094 0.78976 0.0
H158 H 0.82989 0.83273 0.85105 0.0
H159 H 0.81141 0.8541 0.83097 0.0
H160 H 0.87053 0.85369 0.83104 0.0
C161 C 0.86599 0.88602 0.77985 0.0
C162 C 0.91033 0.88819 0.77298 0.0
C163 C 0.83382 0.84692 0.79173 0.0
C164 C 0.84551 0.80942 0.79705 0.0
C165 C 0.88929 0.81096 0.78999 0.0
H166 H 0.67182 0.54461 0.86939 0.0
H167 H 0.73695 0.60584 0.84837 0.0
C168 C 0.92158 0.85014 0.7781 0.0
C169 C 0.81153 0.76846 0.80986 0.0
H170 H 0.75855 0.74845 0.85263 0.0
C171 C 0.78638 0.71773 0.80359 0.0
C172 C 0.8024 0.77951 0.82792 0.0
C173 C 0.83033 0.8329 0.83574 0.0
C174 C 0.75046 0.67799 0.81465 0.0
C175 C 0.74007 0.6894 0.83247 0.0
C176 C 0.76644 0.7399 0.83892 0.0
C177 C 0.69984 0.65028 0.84431 0.0
C178 C 0.7224 0.62449 0.80697 0.0
C179 C 0.65765 0.65513 0.849 0.0
C180 C 0.62067 0.62052 0.86097 0.0
C181 C 0.62517 0.58034 0.86862 0.0
C182 C 0.66712 0.57499 0.86368 0.0
C183 C 0.70426 0.60981 0.85163 0.0
H184 H 0.72833 0.62354 0.79191 0.0
H185 H 0.73627 0.60111 0.81391 0.0
H186 H 0.6809 0.60662 0.80966 0.0
H187 H 0.65358 0.68613 0.8435 0.0
H188 H 0.58889 0.62585 0.86442 0.0
H189 H 0.06351 0.89399 0.09921 0.0
H190 H 0.05001 0.82451 0.11987 0.0
H191 H 0.91177 0.8152 0.13982 0.0
H192 H 0.92506 0.88484 0.11927 0.0
H193 H 0.03571 0.82502 0.16082 0.0
H194 H 0.87333 0.66521 0.12347 0.0
H195 H 0.91743 0.72411 0.1122 0.0
H196 H 0.8705 0.72238 0.12763 0.0
C197 C 0.03023 0.87713 0.10798 0.0
C198 C 0.99535 0.89484 0.10764 0.0
C199 C 0.02256 0.83747 0.11974 0.0
C200 C 0.97963 0.8145 0.13118 0.0
C201 C 0.94478 0.83209 0.13091 0.0
H202 H 0.88837 0.56233 0.20937 0.0
H203 H 0.88699 0.62657 0.18909 0.0
C204 C 0.9526 0.87201 0.11925 0.0
C205 C 0.97244 0.77327 0.14384 0.0
H206 H 0.90127 0.64482 0.15081 0.0
C207 C 0.00625 0.78564 0.15869 0.0
C208 C 0.93352 0.72216 0.1411 0.0
C209 C 0.89661 0.70723 0.1252 0.0
C210 C 1.0026 0.74804 0.17082 0.0
C211 C 0.96498 0.69649 0.16769 0.0
C212 C 0.93018 0.6843 0.15312 0.0
C213 C 0.96342 0.65478 0.1788 0.0
C214 C 0.03904 0.76397 0.18693 0.0
C215 C 1.00596 0.64815 0.17916 0.0
C216 C 0.00696 0.61203 0.19071 0.0
C217 C 0.96508 0.58113 0.20199 0.0
C218 C 0.92121 0.58567 0.20086 0.0
C219 C 0.92043 0.62237 0.18934 0.0
H220 H 0.05403 0.80465 0.19064 0.0
H221 H 0.02042 0.7402 0.19923 0.0
H222 H 0.07196 0.75934 0.18317 0.0
H223 H 0.03896 0.67174 0.17075 0.0
H224 H 0.04105 0.60896 0.19103 0.0
H225 H 0.08691 0.97457 0.45857 0.0
H226 H 0.15964 0.99074 0.47795 0.0
H227 H 0.25517 0.12886 0.44795 0.0
H228 H 0.18237 0.11303 0.42847 0.0
H229 H 0.29461 0.0596 0.45223 0.0
H230 H 0.23231 0.10245 0.51846 0.0
H231 H 0.18479 0.04559 0.50706 0.0
H232 H 0.2066 0.10653 0.49645 0.0
C233 C 0.12327 0.00864 0.45619 0.0
C234 C 0.12895 0.0426 0.44203 0.0
C235 C 0.1647 0.01793 0.46733 0.0
C236 C 0.21256 0.06128 0.4645 0.0
C237 C 0.2184 0.09538 0.45041 0.0
H238 H 0.47016 0.13654 0.53911 0.0
H239 H 0.41219 0.14655 0.5181 0.0
C240 C 0.17682 0.08631 0.43933 0.0
C241 C 0.25685 0.06926 0.4757 0.0
H242 H 0.29998 0.08371 0.52002 0.0
C243 C 0.29621 0.0656 0.46702 0.0
C244 C 0.25899 0.07753 0.49494 0.0
C245 C 0.21868 0.08374 0.50481 0.0
C246 C 0.3365 0.06751 0.47724 0.0
C247 C 0.3372 0.07309 0.4966 0.0
C248 C 0.29917 0.07923 0.50517 0.0
C249 C 0.37471 0.06856 0.50832 0.0
C250 C 0.37753 0.06258 0.46735 0.0
C251 C 0.37268 0.02146 0.50973 0.0
C252 C 0.40526 0.01551 0.52177 0.0
C253 C 0.44071 0.05666 0.53261 0.0
C254 C 0.44348 0.10422 0.53087 0.0
C255 C 0.41037 0.10998 0.51893 0.0
H256 H 0.37854 0.07117 0.45243 0.0
H257 H 0.41554 0.08852 0.47349 0.0
H258 H 0.36993 0.02291 0.46872 0.0
H259 H 0.34495 0.98888 0.50184 0.0
H260 H 0.40215 0.97839 0.52276 0.0
H261 H 0.09113 0.18266 0.76039 0.0
H262 H 0.15051 0.25295 0.78042 0.0
H263 H 0.18877 0.1513 0.80846 0.0
H264 H 0.12923 0.08072 0.78866 0.0
H265 H 0.15251 0.24763 0.82477 0.0
H266 H 0.32584 0.28363 0.78613 0.0
H267 H 0.26376 0.25583 0.77535 0.0
H268 H 0.27826 0.21836 0.79061 0.0
C269 C 0.11209 0.17526 0.77086 0.0
C270 C 0.10567 0.12623 0.77294 0.0
C271 C 0.14582 0.21538 0.78229 0.0
C272 C 0.17394 0.20714 0.79581 0.0
C273 C 0.16736 0.15824 0.79803 0.0
H274 H 0.41662 0.37299 0.87143 0.0
H275 H 0.35215 0.31441 0.8499 0.0
C276 C 0.13338 0.11804 0.78673 0.0
C277 C 0.21101 0.24971 0.80748 0.0
H278 H 0.33855 0.32776 0.81424 0.0
C279 C 0.19322 0.26565 0.82245 0.0
C280 C 0.26385 0.27281 0.8043 0.0
C281 C 0.28444 0.25721 0.78818 0.0
C282 C 0.22727 0.30297 0.83485 0.0
C283 C 0.28038 0.32557 0.83187 0.0
C284 C 0.29789 0.31049 0.81652 0.0
C285 C 0.3187 0.36194 0.84518 0.0
C286 C 0.20613 0.3161 0.85146 0.0
C287 C 0.32158 0.40847 0.84971 0.0
C288 C 0.35837 0.44212 0.86227 0.0
C289 C 0.39334 0.43007 0.87024 0.0
C290 C 0.39051 0.38369 0.8655 0.0
C291 C 0.3536 0.35005 0.85316 0.0
H292 H 0.16567 0.28705 0.85399 0.0
H293 H 0.22867 0.31962 0.86401 0.0
H294 H 0.20811 0.35323 0.84913 0.0
H295 H 0.29575 0.41898 0.84342 0.0
H296 H 0.35979 0.4777 0.86556 0.0
H297 H 0.90405 0.97537 0.6824 0.0
H298 H 0.84635 0.98832 0.66245 0.0
H299 H 0.85214 0.10103 0.70034 0.0
H300 H 0.90943 0.0879 0.72048 0.0
H301 H 0.75386 0.02972 0.68959 0.0
H302 H 0.87959 0.1093 0.62881 0.0
H303 H 0.87256 0.04986 0.63652 0.0
H304 H 0.9032 0.10512 0.65122 0.0
C305 C 0.89326 1.00312 0.68643 0.0
C306 C 0.91133 0.0307 0.70298 0.0
C307 C 0.86057 0.01073 0.67496 0.0
C308 C 0.84563 0.04624 0.67977 0.0
C309 C 0.8635 0.0737 0.69631 0.0
H310 H 0.67246 0.12987 0.60434 0.0
H311 H 0.73673 0.13546 0.62632 0.0
C312 C 0.89621 0.06615 0.70779 0.0
C313 C 0.80951 0.05296 0.66794 0.0
H314 H 0.79142 0.08186 0.62415 0.0
C315 C 0.76225 0.04162 0.67533 0.0
C316 C 0.82083 0.06923 0.64943 0.0
C317 C 0.87199 0.08459 0.64105 0.0
C318 C 0.72519 0.0441 0.66448 0.0
C319 C 0.73549 0.05769 0.64571 0.0
C320 C 0.7835 0.07107 0.63851 0.0
C321 C 0.6959 0.05522 0.63307 0.0
C322 C 0.67517 0.03181 0.67317 0.0
C323 C 0.65193 0.00827 0.62954 0.0
C324 C 0.61539 0.00492 0.61702 0.0
C325 C 0.62209 0.04849 0.6077 0.0
C326 C 0.66604 0.09567 0.61135 0.0
C327 C 0.70282 0.09892 0.62386 0.0
H328 H 0.67861 0.0365 0.68839 0.0
H329 H 0.66097 0.05649 0.66757 0.0
H330 H 0.64641 0.99155 0.6701 0.0
H331 H 0.6463 0.97393 0.63624 0.0
H332 H 0.5821 0.96794 0.61453 0.0
H333 H 0.85239 0.96041 0.03937 0.0
H334 H 0.77819 0.90147 0.02069 0.0
H335 H 0.84246 0.8038 0.01357 0.0
H336 H 0.91634 0.86213 0.03211 0.0
H337 H 0.77717 0.8656 0.98306 0.0
H338 H 0.69667 0.70916 0.03418 0.0
H339 H 0.74241 0.77426 0.0403 0.0
H340 H 0.76323 0.73421 0.02965 0.0
C341 C 0.85063 0.92637 0.0338 0.0
C342 C 0.89005 0.91575 0.03726 0.0
C343 C 0.80831 0.89282 0.02315 0.0
C344 C 0.80459 0.84799 0.01601 0.0
C345 C 0.84425 0.83779 0.01923 0.0
H346 H 0.63147 0.59238 0.94796 0.0
H347 H 0.68813 0.65883 0.96935 0.0
C348 C 0.88655 0.8713 0.02975 0.0
C349 C 0.75979 0.81172 0.00497 0.0
H350 H 0.66538 0.68711 1.00333 0.0
C351 C 0.75207 0.82679 0.98756 0.0
C352 C 0.72714 0.76126 0.01096 0.0
C353 C 0.73235 0.74375 0.02987 0.0
C354 C 0.71433 0.7917 0.97551 0.0
C355 C 0.68313 0.7406 0.98122 0.0
C356 C 0.68944 0.72627 0.99897 0.0
C357 C 0.64719 0.70025 0.96845 0.0
C358 C 0.70996 0.80883 0.95643 0.0
C359 C 0.60483 0.70109 0.96099 0.0
C360 C 0.57213 0.66294 0.94865 0.0
C361 C 0.58126 0.62331 0.94364 0.0
C362 C 0.62326 0.62231 0.95144 0.0
C363 C 0.65574 0.66028 0.96371 0.0
H364 H 0.74264 0.84703 0.9531 0.0
H365 H 0.70775 0.78109 0.94592 0.0
H366 H 0.6745 0.81088 0.95547 0.0
H367 H 0.59709 0.73119 0.96471 0.0
H368 H 0.54004 0.66473 0.94294 0.0
H369 H 0.09842 0.96822 0.36064 0.0
H370 H 0.1102 0.9105 0.34015 0.0
H371 H 0.96742 0.78463 0.35851 0.0
H372 H 0.95535 0.84199 0.37905 0.0
H373 H 0.11051 0.81601 0.35003 0.0
H374 H 0.95706 0.78607 0.30091 0.0
H375 H 0.98554 0.83924 0.31679 0.0
H376 H 0.93904 0.77704 0.32478 0.0
C377 C 0.06951 0.92825 0.3603 0.0
C378 C 0.0258 0.90963 0.37137 0.0
C379 C 0.0764 0.89537 0.34863 0.0
C380 C 0.03948 0.84351 0.34773 0.0
C381 C 0.99607 0.82471 0.35889 0.0
H382 H 0.97721 0.57636 0.28759 0.0
H383 H 0.98084 0.64111 0.30847 0.0
C384 C 0.98928 0.85747 0.37063 0.0
C385 C 0.04596 0.8089 0.33502 0.0
H386 H 0.99254 0.73244 0.29744 0.0
C387 C 0.08506 0.79793 0.33843 0.0
C388 C 0.01282 0.78577 0.31988 0.0
C389 C 0.97147 0.79782 0.3152 0.0
C390 C 0.09052 0.76258 0.32749 0.0
C391 C 0.05655 0.7385 0.31259 0.0
C392 C 0.01841 0.75074 0.30892 0.0
C393 C 0.05761 0.6984 0.30114 0.0
C394 C 0.13127 0.74987 0.33238 0.0
C395 C 0.10005 0.70874 0.29028 0.0
C396 C 0.09826 0.67136 0.27835 0.0
C397 C 0.05372 0.62345 0.27694 0.0
C398 C 0.01198 0.61298 0.28823 0.0
C399 C 0.01396 0.64998 0.30019 0.0
H400 H 0.14645 0.76284 0.34652 0.0
H401 H 0.11632 0.70817 0.33135 0.0
H402 H 0.16335 0.76914 0.32256 0.0
H403 H 0.13384 0.74615 0.29056 0.0
H404 H 0.13086 0.68062 0.26973 0.0
H405 H 0.05788 0.90389 0.70137 0.0
H406 H 0.1172 0.8919 0.68196 0.0
H407 H 0.22019 0.05436 0.68184 0.0
H408 H 0.16147 0.06662 0.70135 0.0
H409 H 0.15522 0.93217 0.64684 0.0
H410 H 0.31113 0.99701 0.69826 0.0
H411 H 0.24696 0.98028 0.70445 0.0
H412 H 0.28949 0.04172 0.69472 0.0
C413 C 0.09323 0.93703 0.69723 0.0
C414 C 0.10518 0.98619 0.70296 0.0
C415 C 0.12702 0.93011 0.68615 0.0
C416 C 0.17345 0.97215 0.68073 0.0
C417 C 0.18505 0.0213 0.68619 0.0
H418 H 0.42785 0.04757 0.61194 0.0
H419 H 0.36364 0.04201 0.63342 0.0
C420 C 0.15132 0.02827 0.69725 0.0
C421 C 0.20945 0.96501 0.66904 0.0
H422 H 0.33238 0.99014 0.66713 0.0
C423 C 0.19377 0.9442 0.65132 0.0
C424 C 0.25959 0.98051 0.67499 0.0
C425 C 0.27775 1.00067 0.69421 0.0
C426 C 0.22776 0.94079 0.63905 0.0
C427 C 0.27842 0.9579 0.64481 0.0
C428 C 0.29354 0.97716 0.66274 0.0
C429 C 0.31745 0.95985 0.63204 0.0
C430 C 0.20988 0.92105 0.61977 0.0
C431 C 0.31316 0.91531 0.62431 0.0
C432 C 0.34998 0.91831 0.61193 0.0
C433 C 0.39171 0.96592 0.60715 0.0
C434 C 0.39619 0.01025 0.61524 0.0
C435 C 0.35953 0.0072 0.62756 0.0
H436 H 0.17296 0.91867 0.61644 0.0
H437 H 0.2386 0.9459 0.60948 0.0
H438 H 0.20477 0.88227 0.61844 0.0
H439 H 0.28138 0.8783 0.62783 0.0
H440 H 0.34551 0.88345 0.606 0.0
H441 H 0.08819 0.07212 0.01051 0.0
H442 H 0.15828 0.12773 0.99016 0.0
H443 H 0.26215 0.17704 0.03642 0.0
H444 H 0.19262 0.11906 0.05653 0.0
H445 H 0.20957 0.22401 0.99013 0.0
H446 H 0.34831 0.15859 1.00009 0.0
H447 H 0.28392 0.12297 0.00854 0.0
H448 H 0.33232 0.17565 0.02168 0.0
C449 C 0.12623 0.09414 0.01623 0.0
C450 C 0.13512 0.09119 0.03504 0.0
C451 C 0.16627 0.12598 0.00461 0.0
C452 C 0.2159 0.15625 0.01163 0.0
C453 C 0.22477 0.153 0.03047 0.0
H454 H 0.42903 0.44056 0.95953 0.0
H455 H 0.36861 0.37367 0.97992 0.0
C456 C 0.1849 0.12016 0.04201 0.0
C457 C 0.25699 0.19425 0.99958 0.0
H458 H 0.38112 0.24189 0.98682 0.0
C459 C 0.24685 0.22739 0.98929 0.0
C460 C 0.30559 0.19849 0.99818 0.0
C461 C 0.31797 0.16161 0.00756 0.0
C462 C 0.28388 0.26499 0.97796 0.0
C463 C 0.33351 0.27149 0.97752 0.0
C464 C 0.34344 0.23764 0.98743 0.0
C465 C 0.37519 0.313 0.96674 0.0
C466 C 0.26882 0.29654 0.96628 0.0
C467 C 0.40196 0.30195 0.95343 0.0
C468 C 0.43787 0.34059 0.94213 0.0
C469 C 0.44698 0.39068 0.94383 0.0
C470 C 0.42212 0.40209 0.95775 0.0
C471 C 0.38725 0.3638 0.9693 0.0
H472 H 0.22714 0.27606 0.96352 0.0
H473 H 0.27845 0.3323 0.97373 0.0
H474 H 0.28902 0.30652 0.95286 0.0
H475 H 0.39371 0.26313 0.95132 0.0
H476 H 0.4565 0.33081 0.93147 0.0
H477 H 0.91512 0.05118 0.36162 0.0
H478 H 0.90446 0.10946 0.34117 0.0
H479 H 0.05057 0.23297 0.35858 0.0
H480 H 0.0615 0.17509 0.37913 0.0
H481 H 0.91037 0.20842 0.35133 0.0
H482 H 0.05492 0.22532 0.30049 0.0
H483 H 0.02511 0.17312 0.31657 0.0
H484 H 0.07473 0.2345 0.32424 0.0
C485 C 0.94498 0.09077 0.3611 0.0
C486 C 0.98929 0.10858 0.3719 0.0
C487 C 0.93873 0.12396 0.34946 0.0
C488 C 0.97689 0.17529 0.3483 0.0
C489 C 0.02091 0.19331 0.35919 0.0
H490 H 0.04404 0.43966 0.28584 0.0
H491 H 0.04039 0.37556 0.30689 0.0
C492 C 0.02705 0.16026 0.37093 0.0
C493 C 0.97114 0.21007 0.33553 0.0
H494 H 0.02227 0.28119 0.29689 0.0
C495 C 0.93449 0.22417 0.33934 0.0
C496 C 1.00259 0.23019 0.3199 0.0
C497 C 0.04135 0.21484 0.31489 0.0
C498 C 0.92982 0.25963 0.32825 0.0
C499 C 0.96201 0.28053 0.31279 0.0
C500 C 0.99773 0.26527 0.30878 0.0
C501 C 0.96157 0.32033 0.30106 0.0
C502 C 0.89192 0.27583 0.33357 0.0
C503 C 0.91811 0.31091 0.29093 0.0
C504 C 0.91993 0.34792 0.27889 0.0
C505 C 0.96547 0.39453 0.27664 0.0
C506 C 0.00843 0.40404 0.28713 0.0
C507 C 0.00646 0.36742 0.29919 0.0
H508 H 0.87874 0.26535 0.348 0.0
H509 H 0.90866 0.31764 0.332 0.0
H510 H 0.85815 0.25659 0.32438 0.0
H511 H 0.8833 0.27448 0.29191 0.0
H512 H 0.88633 0.33937 0.27091 0.0
loop_
_geom_bond_atom_site_label_1
_geom_bond_atom_site_label_2
_geom_bond_distance
_geom_bond_site_symmetry_2
_ccdc_geom_bond_type
In0 O1 2.294 1_455 S
In0 O2 2.326 . S
In0 O6 2.266 1_445 S
In0 O7 2.326 1_445 S
In0 O8 2.266 1_545 S
In0 O9 2.326 1_445 S
In0 O11 2.294 . S
In0 O12 2.326 . S
O1 In0 2.294 1_655 S
O1 C10 1.240 1_655 S
O2 In0 2.326 . S
O2 C10 1.252 . S
C3 O6 1.252 . S
C3 O7 1.260 . S
C4 O11 1.240 . S
C4 O12 1.252 . S
C5 O8 1.250 1_655 S
C5 O9 1.263 . S
O6 In0 2.266 1_665 S
O6 C3 1.252 . S
O7 In0 2.326 1_665 S
O7 C3 1.260 . S
O8 In0 2.266 1_565 S
O8 C5 1.250 1_455 S
O9 In0 2.326 1_665 S
O9 C5 1.263 . S
C10 O1 1.240 1_455 S
C10 O2 1.252 . S
O11 In0 2.294 . S
O11 C4 1.240 . S
O12 In0 2.326 . S
O12 C4 1.252 . S
In13 O14 2.294 . S
In13 O15 2.326 1_455 S
In13 O19 2.266 . S
In13 O20 2.326 1_545 S
In13 O21 2.266 1_445 S
In13 O22 2.326 1_545 S
In13 O24 2.294 1_445 S
In13 O25 2.326 1_455 S
O14 In13 2.294 . S
O14 C23 1.240 1_455 S
O15 In13 2.326 1_655 S
O15 C23 1.252 . S
C16 O19 1.244 1_565 S
C16 O20 1.264 . S
C17 O24 1.240 1_545 S
C17 O25 1.252 . S
C18 O21 1.252 1_455 S
C18 O22 1.260 . S
O19 In13 2.266 . S
O19 C16 1.244 1_545 S
O20 In13 2.326 1_565 S
O20 C16 1.264 . S
O21 In13 2.266 1_665 S
O21 C18 1.252 1_655 S
O22 In13 2.326 1_565 S
O22 C18 1.260 . S
C23 O14 1.240 1_655 S
C23 O15 1.252 . S
O24 In13 2.294 1_665 S
O24 C17 1.240 1_565 S
O25 In13 2.326 1_655 S
O25 C17 1.252 . S
In26 O27 2.294 1_445 S
In26 O28 2.326 1_445 S
In26 O32 2.266 1_545 S
In26 O33 2.326 . S
In26 O34 2.266 . S
In26 O35 2.326 . S
In26 O37 2.294 1_455 S
In26 O38 2.326 1_445 S
O27 In26 2.294 1_665 S
O27 C36 1.240 . S
O28 In26 2.326 1_665 S
O28 C36 1.252 . S
C29 O32 1.252 1_545 S
C29 O33 1.260 . S
C30 O37 1.240 1_565 S
C30 O38 1.252 . S
C31 O34 1.252 . S
C31 O35 1.260 . S
O32 In26 2.266 1_565 S
O32 C29 1.252 1_565 S
O33 In26 2.326 . S
O33 C29 1.260 . S
O34 In26 2.266 . S
O34 C31 1.252 . S
O35 In26 2.326 . S
O35 C31 1.260 . S
C36 O27 1.240 . S
C36 O28 1.252 . S
O37 In26 2.294 1_655 S
O37 C30 1.240 1_545 S
O38 In26 2.326 1_665 S
O38 C30 1.252 . S
C39 O41 1.247 . S
C39 O43 1.258 1_455 S
C40 O47 1.247 1_455 S
C40 O48 1.258 . S
O41 C39 1.247 . S
O41 Zn42 2.028 . S
Zn42 O41 2.028 . S
Zn42 O46 2.035 . S
Zn42 O48 2.035 . S
Zn42 O49 2.028 . S
O43 C39 1.258 1_655 S
O43 Zn44 2.035 . S
Zn44 O43 2.035 . S
Zn44 O45 2.028 . S
Zn44 O47 2.028 . S
Zn44 O50 2.035 . S
O45 Zn44 2.028 . S
O45 C51 1.247 1_655 S
O46 Zn42 2.035 . S
O46 C51 1.258 . S
O47 C40 1.247 1_655 S
O47 Zn44 2.028 . S
O48 C40 1.258 . S
O48 Zn42 2.035 . S
O49 Zn42 2.028 . S
O49 C52 1.247 . S
O50 Zn44 2.035 . S
O50 C52 1.258 1_655 S
C51 O45 1.247 1_455 S
C51 O46 1.258 . S
C52 O49 1.247 . S
C52 O50 1.258 1_455 S
C53 O55 1.247 1_545 S
C53 O57 1.258 . S
C54 O61 1.247 . S
C54 O62 1.258 1_545 S
O55 C53 1.247 1_565 S
O55 Zn56 2.028 . S
Zn56 O55 2.028 . S
Zn56 O60 2.035 . S
Zn56 O62 2.035 . S
Zn56 O63 2.028 . S
O57 C53 1.258 . S
O57 Zn58 2.035 . S
Zn58 O57 2.035 . S
Zn58 O59 2.028 . S
Zn58 O61 2.028 . S
Zn58 O64 2.035 . S
O59 Zn58 2.028 . S
O59 C65 1.247 . S
O60 Zn56 2.035 . S
O60 C65 1.258 1_565 S
O61 C54 1.247 . S
O61 Zn58 2.028 . S
O62 C54 1.258 1_565 S
O62 Zn56 2.035 . S
O63 Zn56 2.028 . S
O63 C66 1.247 1_565 S
O64 Zn58 2.035 . S
O64 C66 1.258 . S
C65 O59 1.247 . S
C65 O60 1.258 1_545 S
C66 O63 1.247 1_545 S
C66 O64 1.258 . S
C67 O69 1.247 . S
C67 O71 1.258 . S
C68 O75 1.247 . S
C68 O76 1.258 . S
O69 C67 1.247 . S
O69 Zn70 2.028 . S
Zn70 O69 2.028 . S
Zn70 O74 2.035 . S
Zn70 O76 2.035 . S
Zn70 O77 2.028 . S
O71 C67 1.258 . S
O71 Zn72 2.035 . S
Zn72 O71 2.035 . S
Zn72 O73 2.028 . S
Zn72 O75 2.028 . S
Zn72 O78 2.035 . S
O73 Zn72 2.028 . S
O73 C79 1.247 . S
O74 Zn70 2.035 . S
O74 C79 1.258 . S
O75 C68 1.247 . S
O75 Zn72 2.028 . S
O76 C68 1.258 . S
O76 Zn70 2.035 . S
O77 Zn70 2.028 . S
O77 C80 1.247 . S
O78 Zn72 2.035 . S
O78 C80 1.258 . S
C79 O73 1.247 . S
C79 O74 1.258 . S
C80 O77 1.247 . S
C80 O78 1.258 . S
H81 C89 0.929 . S
H82 C91 0.930 . S
H83 C93 0.930 . S
H84 C96 0.929 . S
H85 C99 0.930 . S
H86 C101 0.960 . S
H87 C101 0.960 . S
H88 C101 0.960 . S
C89 H81 0.929 . S
C89 C90 1.377 . S
C89 C91 1.384 . S
C90 C89 1.377 . S
C90 C96 1.390 1_455 S
C91 H82 0.930 . S
C91 C89 1.384 . S
C91 C92 1.372 . S
C92 C91 1.372 . S
C92 C93 1.400 1_455 S
C92 C97 1.490 . S
C93 H83 0.930 . S
C93 C92 1.400 1_655 S
C93 C96 1.386 . S
H94 C110 0.930 . S
H95 C111 0.931 . S
C96 H84 0.929 . S
C96 C90 1.390 1_655 S
C96 C93 1.386 . S
C97 C92 1.490 . S
C97 C99 1.395 . S
C97 C100 1.403 1_455 S
H98 C104 0.930 . S
C99 H85 0.930 . S
C99 C97 1.395 . S
C99 C102 1.403 . S
C100 C97 1.403 1_655 S
C100 C101 1.524 . S
C100 C104 1.400 . S
C101 H86 0.960 . S
C101 H87 0.960 . S
C101 H88 0.960 . S
C101 C100 1.524 . S
C102 C99 1.403 . S
C102 C103 1.392 . S
C102 C106 1.495 . S
C103 C102 1.392 . S
C103 C104 1.385 1_455 S
C103 C105 1.478 . S
C104 H98 0.930 . S
C104 C100 1.400 . S
C104 C103 1.385 1_655 S
C105 C103 1.478 . S
C105 C107 1.381 . S
C105 C111 1.383 1_455 S
C106 C102 1.495 . S
C106 H112 0.959 . S
C106 H113 0.961 . S
C106 H114 0.960 . S
C107 C105 1.381 . S
C107 C108 1.394 . S
C107 H115 0.930 . S
C108 C107 1.394 . S
C108 C109 1.383 . S
C108 H116 0.929 . S
C109 C108 1.383 . S
C109 C110 1.377 1_455 S
C110 H94 0.930 . S
C110 C109 1.377 1_655 S
C110 C111 1.379 . S
C111 H95 0.931 . S
C111 C105 1.383 1_655 S
C111 C110 1.379 . S
H112 C106 0.959 . S
H113 C106 0.961 . S
H114 C106 0.960 . S
H115 C107 0.930 . S
H116 C108 0.929 . S
H117 C125 0.929 . S
H118 C127 0.930 . S
H119 C129 0.930 . S
H120 C132 0.929 . S
H121 C135 0.930 . S
H122 C137 0.960 . S
H123 C137 0.960 . S
H124 C137 0.960 . S
C125 H117 0.929 . S
C125 C126 1.377 . S
C125 C127 1.384 . S
C126 C125 1.377 . S
C126 C132 1.390 1_545 S
C127 H118 0.930 . S
C127 C125 1.384 . S
C127 C128 1.372 . S
C128 C127 1.372 . S
C128 C129 1.400 1_545 S
C128 C133 1.490 . S
C129 H119 0.930 . S
C129 C128 1.400 1_565 S
C129 C132 1.386 . S
H130 C146 0.930 . S
H131 C147 0.931 . S
C132 H120 0.929 . S
C132 C126 1.390 1_565 S
C132 C129 1.386 . S
C133 C128 1.490 . S
C133 C135 1.395 1_545 S
C133 C136 1.403 . S
H134 C140 0.930 . S
C135 H121 0.930 . S
C135 C133 1.395 1_565 S
C135 C138 1.403 . S
C136 C133 1.403 . S
C136 C137 1.524 . S
C136 C140 1.400 . S
C137 H122 0.960 . S
C137 H123 0.960 . S
C137 H124 0.960 . S
C137 C136 1.524 . S
C138 C135 1.403 . S
C138 C139 1.392 1_565 S
C138 C142 1.495 . S
C139 C138 1.392 1_545 S
C139 C140 1.385 . S
C139 C141 1.478 . S
C140 H134 0.930 . S
C140 C136 1.400 . S
C140 C139 1.385 . S
C141 C139 1.478 . S
C141 C143 1.381 . S
C141 C147 1.383 1_545 S
C142 C138 1.495 . S
C142 H148 0.959 . S
C142 H149 0.961 . S
C142 H150 0.960 1_565 S
C143 C141 1.381 . S
C143 C144 1.394 . S
C143 H151 0.930 . S
C144 C143 1.394 . S
C144 C145 1.383 . S
C144 H152 0.929 . S
C145 C144 1.383 . S
C145 C146 1.377 1_545 S
C146 H130 0.930 . S
C146 C145 1.377 1_565 S
C146 C147 1.379 . S
C147 H131 0.931 . S
C147 C141 1.383 1_565 S
C147 C146 1.379 . S
H148 C142 0.959 . S
H149 C142 0.961 . S
H150 C142 0.960 1_545 S
H151 C143 0.930 . S
H152 C144 0.929 . S
H153 C161 0.929 . S
H154 C163 0.930 . S
H155 C165 0.930 . S
H156 C168 0.929 . S
H157 C171 0.930 . S
H158 C173 0.960 . S
H159 C173 0.960 . S
H160 C173 0.960 . S
C161 H153 0.929 . S
C161 C162 1.377 . S
C161 C163 1.384 . S
C162 C161 1.377 . S
C162 C168 1.390 . S
C163 H154 0.930 . S
C163 C161 1.384 . S
C163 C164 1.372 . S
C164 C163 1.372 . S
C164 C165 1.400 . S
C164 C169 1.490 . S
C165 H155 0.930 . S
C165 C164 1.400 . S
C165 C168 1.386 . S
H166 C182 0.930 . S
H167 C183 0.931 . S
C168 H156 0.929 . S
C168 C162 1.390 . S
C168 C165 1.386 . S
C169 C164 1.490 . S
C169 C171 1.395 . S
C169 C172 1.403 . S
H170 C176 0.930 . S
C171 H157 0.930 . S
C171 C169 1.395 . S
C171 C174 1.403 . S
C172 C169 1.403 . S
C172 C173 1.524 . S
C172 C176 1.400 . S
C173 H158 0.960 . S
C173 H159 0.960 . S
C173 H160 0.960 . S
C173 C172 1.524 . S
C174 C171 1.403 . S
C174 C175 1.392 . S
C174 C178 1.495 . S
C175 C174 1.392 . S
C175 C176 1.385 . S
C175 C177 1.478 . S
C176 H170 0.930 . S
C176 C172 1.400 . S
C176 C175 1.385 . S
C177 C175 1.478 . S
C177 C179 1.381 . S
C177 C183 1.383 . S
C178 C174 1.495 . S
C178 H184 0.959 . S
C178 H185 0.961 . S
C178 H186 0.960 . S
C179 C177 1.381 . S
C179 C180 1.394 . S
C179 H187 0.930 . S
C180 C179 1.394 . S
C180 C181 1.383 . S
C180 H188 0.929 . S
C181 C180 1.383 . S
C181 C182 1.377 . S
C182 H166 0.930 . S
C182 C181 1.377 . S
C182 C183 1.379 . S
C183 H167 0.931 . S
C183 C177 1.383 . S
C183 C182 1.379 . S
H184 C178 0.959 . S
H185 C178 0.961 . S
H186 C178 0.960 . S
H187 C179 0.930 . S
H188 C180 0.929 . S
H189 C197 0.929 . S
H190 C199 0.930 . S
H191 C201 0.930 . S
H192 C204 0.929 . S
H193 C207 0.930 . S
H194 C209 0.960 . S
H195 C209 0.960 . S
H196 C209 0.960 . S
C197 H189 0.929 . S
C197 C198 1.378 . S
C197 C199 1.384 . S
C198 C197 1.378 . S
C198 C204 1.389 1_455 S
C199 H190 0.930 . S
C199 C197 1.384 . S
C199 C200 1.372 . S
C200 C199 1.372 . S
C200 C201 1.400 1_455 S
C200 C205 1.490 . S
C201 H191 0.930 . S
C201 C200 1.400 1_655 S
C201 C204 1.386 . S
H202 C218 0.930 . S
H203 C219 0.931 . S
C204 H192 0.929 . S
C204 C198 1.389 1_655 S
C204 C201 1.386 . S
C205 C200 1.490 . S
C205 C207 1.395 . S
C205 C208 1.403 1_455 S
H206 C212 0.930 . S
C207 H193 0.930 . S
C207 C205 1.395 . S
C207 C210 1.403 . S
C208 C205 1.403 1_655 S
C208 C209 1.524 . S
C208 C212 1.400 . S
C209 H194 0.960 . S
C209 H195 0.960 . S
C209 H196 0.960 . S
C209 C208 1.524 . S
C210 C207 1.403 . S
C210 C211 1.392 . S
C210 C214 1.495 . S
C211 C210 1.392 . S
C211 C212 1.385 1_455 S
C211 C213 1.478 . S
C212 H206 0.930 . S
C212 C208 1.400 . S
C212 C211 1.385 1_655 S
C213 C211 1.478 . S
C213 C215 1.381 . S
C213 C219 1.383 1_455 S
C214 C210 1.495 . S
C214 H220 0.959 . S
C214 H221 0.961 . S
C214 H222 0.960 . S
C215 C213 1.381 . S
C215 C216 1.394 . S
C215 H223 0.930 . S
C216 C215 1.394 . S
C216 C217 1.383 . S
C216 H224 0.929 . S
C217 C216 1.383 . S
C217 C218 1.377 1_455 S
C218 H202 0.930 . S
C218 C217 1.377 1_655 S
C218 C219 1.379 . S
C219 H203 0.931 . S
C219 C213 1.383 1_655 S
C219 C218 1.379 . S
H220 C214 0.959 . S
H221 C214 0.961 . S
H222 C214 0.960 . S
H223 C215 0.930 . S
H224 C216 0.929 . S
H225 C233 0.929 . S
H226 C235 0.930 . S
H227 C237 0.930 . S
H228 C240 0.929 . S
H229 C243 0.930 . S
H230 C245 0.960 . S
H231 C245 0.960 . S
H232 C245 0.960 . S
C233 H225 0.929 . S
C233 C234 1.399 . S
C233 C235 1.384 . S
C234 C233 1.399 . S
C234 C240 1.378 1_565 S
C235 H226 0.930 . S
C235 C233 1.384 . S
C235 C236 1.372 . S
C236 C235 1.372 . S
C236 C237 1.400 1_565 S
C236 C241 1.482 . S
C237 H227 0.930 . S
C237 C236 1.400 1_545 S
C237 C240 1.386 . S
H238 C254 0.930 . S
H239 C255 0.931 . S
C240 H228 0.929 . S
C240 C234 1.378 1_545 S
C240 C237 1.386 . S
C241 C236 1.482 . S
C241 C243 1.399 1_565 S
C241 C244 1.406 . S
H242 C248 0.930 . S
C243 H229 0.930 . S
C243 C241 1.399 1_545 S
C243 C246 1.403 . S
C244 C241 1.406 . S
C244 C245 1.524 . S
C244 C248 1.400 . S
C245 H230 0.960 . S
C245 H231 0.960 . S
C245 H232 0.960 . S
C245 C244 1.524 . S
C246 C243 1.403 . S
C246 C247 1.392 . S
C246 C250 1.495 . S
C247 C246 1.392 . S
C247 C248 1.385 1_545 S
C247 C249 1.478 . S
C248 H242 0.930 . S
C248 C244 1.400 . S
C248 C247 1.385 1_565 S
C249 C247 1.478 . S
C249 C251 1.381 1_545 S
C249 C255 1.383 . S
C250 C246 1.495 . S
C250 H256 0.959 . S
C250 H257 0.961 . S
C250 H258 0.960 . S
C251 C249 1.381 1_565 S
C251 C252 1.394 . S
C251 H259 0.930 . S
C252 C251 1.394 . S
C252 C253 1.383 1_565 S
C252 H260 0.929 . S
C253 C252 1.383 1_545 S
C253 C254 1.377 . S
C254 H238 0.930 . S
C254 C253 1.377 . S
C254 C255 1.379 . S
C255 H239 0.931 . S
C255 C249 1.383 . S
C255 C254 1.379 . S
H256 C250 0.959 . S
H257 C250 0.961 . S
H258 C250 0.960 . S
H259 C251 0.930 . S
H260 C252 0.929 . S
H261 C269 0.929 . S
H262 C271 0.930 . S
H263 C273 0.930 . S
H264 C276 0.929 . S
H265 C279 0.930 . S
H266 C281 0.960 . S
H267 C281 0.960 . S
H268 C281 0.960 . S
C269 H261 0.929 . S
C269 C270 1.377 . S
C269 C271 1.384 . S
C270 C269 1.377 . S
C270 C276 1.390 . S
C271 H262 0.930 . S
C271 C269 1.384 . S
C271 C272 1.372 . S
C272 C271 1.372 . S
C272 C273 1.400 . S
C272 C277 1.490 . S
C273 H263 0.930 . S
C273 C272 1.400 . S
C273 C276 1.386 . S
H274 C290 0.930 . S
H275 C291 0.931 . S
C276 H264 0.929 . S
C276 C270 1.390 . S
C276 C273 1.386 . S
C277 C272 1.490 . S
C277 C279 1.395 . S
C277 C280 1.403 . S
H278 C284 0.930 . S
C279 H265 0.930 . S
C279 C277 1.395 . S
C279 C282 1.403 . S
C280 C277 1.403 . S
C280 C281 1.524 . S
C280 C284 1.400 . S
C281 H266 0.960 . S
C281 H267 0.960 . S
C281 H268 0.960 . S
C281 C280 1.524 . S
C282 C279 1.403 . S
C282 C283 1.392 . S
C282 C286 1.495 . S
C283 C282 1.392 . S
C283 C284 1.385 . S
C283 C285 1.478 . S
C284 H278 0.930 . S
C284 C280 1.400 . S
C284 C283 1.385 . S
C285 C283 1.478 . S
C285 C287 1.381 . S
C285 C291 1.383 . S
C286 C282 1.495 . S
C286 H292 0.959 . S
C286 H293 0.961 . S
C286 H294 0.960 . S
C287 C285 1.381 . S
C287 C288 1.394 . S
C287 H295 0.930 . S
C288 C287 1.394 . S
C288 C289 1.383 . S
C288 H296 0.929 . S
C289 C288 1.383 . S
C289 C290 1.377 . S
C290 H274 0.930 . S
C290 C289 1.377 . S
C290 C291 1.379 . S
C291 H275 0.931 . S
C291 C285 1.383 . S
C291 C290 1.379 . S
H292 C286 0.959 . S
H293 C286 0.961 . S
H294 C286 0.960 . S
H295 C287 0.930 . S
H296 C288 0.929 . S
H297 C305 0.929 . S
H298 C307 0.930 . S
H299 C309 0.930 . S
H300 C312 0.929 . S
H301 C315 0.930 . S
H302 C317 0.962 . S
H303 C317 0.946 1_565 S
H304 C317 0.966 . S
C305 H297 0.929 . S
C305 C306 1.377 . S
C305 C307 1.384 . S
C306 C305 1.377 . S
C306 C312 1.390 1_565 S
C307 H298 0.930 . S
C307 C305 1.384 . S
C307 C308 1.372 . S
C308 C307 1.372 . S
C308 C309 1.400 1_565 S
C308 C313 1.490 . S
C309 H299 0.930 . S
C309 C308 1.400 1_545 S
C309 C312 1.386 . S
H310 C326 0.930 . S
H311 C327 0.931 . S
C312 H300 0.929 . S
C312 C306 1.390 1_545 S
C312 C309 1.386 . S
C313 C308 1.490 . S
C313 C315 1.395 . S
C313 C316 1.403 . S
H314 C320 0.932 . S
C315 H301 0.930 . S
C315 C313 1.395 . S
C315 C318 1.403 . S
C316 C313 1.403 . S
C316 C317 1.534 1_565 S
C316 C320 1.384 1_565 S
C317 H302 0.962 . S
C317 H303 0.946 1_545 S
C317 H304 0.966 . S
C317 C316 1.534 1_545 S
C318 C315 1.403 . S
C318 C319 1.392 . S
C318 C322 1.495 . S
C319 C318 1.392 . S
C319 C320 1.396 1_565 S
C319 C321 1.479 1_565 S
C320 H314 0.932 . S
C320 C316 1.384 1_545 S
C320 C319 1.396 1_545 S
C321 C319 1.479 1_545 S
C321 C323 1.382 1_545 S
C321 C327 1.381 . S
C322 C318 1.495 . S
C322 H328 0.959 . S
C322 H329 0.961 1_565 S
C322 H330 0.960 . S
C323 C321 1.382 1_565 S
C323 C324 1.394 . S
C323 H331 0.930 . S
C324 C323 1.394 . S
C324 C325 1.383 1_565 S
C324 H332 0.929 . S
C325 C324 1.383 1_545 S
C325 C326 1.377 . S
C326 H310 0.930 . S
C326 C325 1.377 . S
C326 C327 1.379 . S
C327 H311 0.931 . S
C327 C321 1.381 . S
C327 C326 1.379 . S
H328 C322 0.959 . S
H329 C322 0.961 1_545 S
H330 C322 0.960 . S
H331 C323 0.930 . S
H332 C324 0.929 . S
H333 C341 0.929 . S
H334 C343 0.930 . S
H335 C345 0.930 . S
H336 C348 0.929 . S
H337 C351 0.930 . S
H338 C353 0.960 . S
H339 C353 0.960 . S
H340 C353 0.960 . S
C341 H333 0.929 . S
C341 C342 1.377 . S
C341 C343 1.384 . S
C342 C341 1.377 . S
C342 C348 1.390 . S
C343 H334 0.930 . S
C343 C341 1.384 . S
C343 C344 1.372 . S
C344 C343 1.372 . S
C344 C345 1.400 . S
C344 C349 1.490 1_554 S
C345 H335 0.930 . S
C345 C344 1.400 . S
C345 C348 1.386 . S
H346 C362 0.930 . S
H347 C363 0.931 . S
C348 H336 0.929 . S
C348 C342 1.390 . S
C348 C345 1.386 . S
C349 C344 1.490 1_556 S
C349 C351 1.395 . S
C349 C352 1.403 1_556 S
H350 C356 0.930 . S
C351 H337 0.930 . S
C351 C349 1.395 . S
C351 C354 1.403 . S
C352 C349 1.403 1_554 S
C352 C353 1.524 . S
C352 C356 1.400 1_554 S
C353 H338 0.960 . S
C353 H339 0.960 . S
C353 H340 0.960 . S
C353 C352 1.524 . S
C354 C351 1.403 . S
C354 C355 1.392 . S
C354 C358 1.495 . S
C355 C354 1.392 . S
C355 C356 1.385 . S
C355 C357 1.478 . S
C356 H350 0.930 . S
C356 C352 1.400 1_556 S
C356 C355 1.385 . S
C357 C355 1.478 . S
C357 C359 1.381 . S
C357 C363 1.383 . S
C358 C354 1.495 . S
C358 H364 0.959 . S
C358 H365 0.961 . S
C358 H366 0.960 . S
C359 C357 1.381 . S
C359 C360 1.394 . S
C359 H367 0.930 . S
C360 C359 1.394 . S
C360 C361 1.383 . S
C360 H368 0.929 . S
C361 C360 1.383 . S
C361 C362 1.377 . S
C362 H346 0.930 . S
C362 C361 1.377 . S
C362 C363 1.379 . S
C363 H347 0.931 . S
C363 C357 1.383 . S
C363 C362 1.379 . S
H364 C358 0.959 . S
H365 C358 0.961 . S
H366 C358 0.960 . S
H367 C359 0.930 . S
H368 C360 0.929 . S
H369 C377 0.929 . S
H370 C379 0.930 . S
H371 C381 0.930 . S
H372 C384 0.929 . S
H373 C387 0.930 . S
H374 C389 0.960 . S
H375 C389 0.960 . S
H376 C389 0.960 . S
C377 H369 0.929 . S
C377 C378 1.377 . S
C377 C379 1.384 . S
C378 C377 1.377 . S
C378 C384 1.390 1_455 S
C379 H370 0.930 . S
C379 C377 1.384 . S
C379 C380 1.372 . S
C380 C379 1.372 . S
C380 C381 1.400 1_455 S
C380 C385 1.490 . S
C381 H371 0.930 . S
C381 C380 1.400 1_655 S
C381 C384 1.386 . S
H382 C398 0.930 . S
H383 C399 0.931 . S
C384 H372 0.929 . S
C384 C378 1.390 1_655 S
C384 C381 1.386 . S
C385 C380 1.490 . S
C385 C387 1.395 . S
C385 C388 1.403 1_455 S
H386 C392 0.930 . S
C387 H373 0.930 . S
C387 C385 1.395 . S
C387 C390 1.403 . S
C388 C385 1.403 1_655 S
C388 C389 1.524 . S
C388 C392 1.400 . S
C389 H374 0.960 . S
C389 H375 0.960 . S
C389 H376 0.960 . S
C389 C388 1.524 . S
C390 C387 1.403 . S
C390 C391 1.392 . S
C390 C394 1.495 . S
C391 C390 1.392 . S
C391 C392 1.385 1_455 S
C391 C393 1.478 . S
C392 H386 0.930 . S
C392 C388 1.400 . S
C392 C391 1.385 1_655 S
C393 C391 1.478 . S
C393 C395 1.381 . S
C393 C399 1.383 1_455 S
C394 C390 1.495 . S
C394 H400 0.959 . S
C394 H401 0.961 . S
C394 H402 0.960 . S
C395 C393 1.381 . S
C395 C396 1.394 . S
C395 H403 0.930 . S
C396 C395 1.394 . S
C396 C397 1.383 . S
C396 H404 0.929 . S
C397 C396 1.383 . S
C397 C398 1.377 1_455 S
C398 H382 0.930 . S
C398 C397 1.377 1_655 S
C398 C399 1.379 . S
C399 H383 0.931 . S
C399 C393 1.383 1_655 S
C399 C398 1.379 . S
H400 C394 0.959 . S
H401 C394 0.961 . S
H402 C394 0.960 . S
H403 C395 0.930 . S
H404 C396 0.929 . S
H405 C413 0.929 . S
H406 C415 0.930 . S
H407 C417 0.930 . S
H408 C420 0.929 . S
H409 C423 0.930 . S
H410 C425 0.960 . S
H411 C425 0.960 . S
H412 C425 0.960 . S
C413 H405 0.929 . S
C413 C414 1.377 1_565 S
C413 C415 1.384 . S
C414 C413 1.377 1_545 S
C414 C420 1.390 . S
C415 H406 0.930 . S
C415 C413 1.384 . S
C415 C416 1.372 1_565 S
C416 C415 1.372 1_545 S
C416 C417 1.400 . S
C416 C421 1.499 . S
C417 H407 0.930 . S
C417 C416 1.400 . S
C417 C420 1.386 . S
H418 C434 0.930 . S
H419 C435 0.931 . S
C420 H408 0.929 . S
C420 C414 1.390 . S
C420 C417 1.386 . S
C421 C416 1.499 . S
C421 C423 1.385 1_545 S
C421 C424 1.403 . S
H422 C428 0.930 . S
C423 H409 0.930 . S
C423 C421 1.385 1_565 S
C423 C426 1.403 . S
C424 C421 1.403 . S
C424 C425 1.524 . S
C424 C428 1.400 . S
C425 H410 0.960 . S
C425 H411 0.960 . S
C425 H412 0.960 . S
C425 C424 1.524 . S
C426 C423 1.403 . S
C426 C427 1.392 . S
C426 C430 1.495 . S
C427 C426 1.392 . S
C427 C428 1.385 1_565 S
C427 C429 1.478 . S
C428 H422 0.930 . S
C428 C424 1.400 . S
C428 C427 1.385 1_545 S
C429 C427 1.478 . S
C429 C431 1.381 . S
C429 C435 1.383 1_565 S
C430 C426 1.495 . S
C430 H436 0.959 . S
C430 H437 0.961 . S
C430 H438 0.960 . S
C431 C429 1.381 . S
C431 C432 1.394 . S
C431 H439 0.930 . S
C432 C431 1.394 . S
C432 C433 1.372 1_565 S
C432 H440 0.929 . S
C433 C432 1.372 1_545 S
C433 C434 1.395 . S
C434 H418 0.930 . S
C434 C433 1.395 . S
C434 C435 1.379 . S
C435 H419 0.931 . S
C435 C429 1.383 1_545 S
C435 C434 1.379 . S
H436 C430 0.959 . S
H437 C430 0.961 . S
H438 C430 0.960 . S
H439 C431 0.930 . S
H440 C432 0.929 . S
H441 C449 0.929 . S
H442 C451 0.930 1_556 S
H443 C453 0.930 . S
H444 C456 0.929 . S
H445 C459 0.930 . S
H446 C461 0.960 . S
H447 C461 0.960 . S
H448 C461 0.960 . S
C449 H441 0.929 . S
C449 C450 1.377 . S
C449 C451 1.384 . S
C450 C449 1.377 . S
C450 C456 1.390 . S
C451 H442 0.930 1_554 S
C451 C449 1.384 . S
C451 C452 1.372 . S
C452 C451 1.372 . S
C452 C453 1.400 . S
C452 C457 1.490 1_554 S
C453 H443 0.930 . S
C453 C452 1.400 . S
C453 C456 1.386 . S
H454 C470 0.930 . S
H455 C471 0.931 . S
C456 H444 0.929 . S
C456 C450 1.390 . S
C456 C453 1.386 . S
C457 C452 1.490 1_556 S
C457 C459 1.395 . S
C457 C460 1.403 . S
H458 C464 0.930 . S
C459 H445 0.930 . S
C459 C457 1.395 . S
C459 C462 1.403 . S
C460 C457 1.403 . S
C460 C461 1.524 1_556 S
C460 C464 1.400 . S
C461 H446 0.960 . S
C461 H447 0.960 . S
C461 H448 0.960 . S
C461 C460 1.524 1_554 S
C462 C459 1.403 . S
C462 C463 1.392 . S
C462 C466 1.495 . S
C463 C462 1.392 . S
C463 C464 1.385 . S
C463 C465 1.478 . S
C464 H458 0.930 . S
C464 C460 1.400 . S
C464 C463 1.385 . S
C465 C463 1.478 . S
C465 C467 1.381 . S
C465 C471 1.383 . S
C466 C462 1.495 . S
C466 H472 0.959 . S
C466 H473 0.961 . S
C466 H474 0.960 . S
C467 C465 1.381 . S
C467 C468 1.394 . S
C467 H475 0.930 . S
C468 C467 1.394 . S
C468 C469 1.383 . S
C468 H476 0.929 . S
C469 C468 1.383 . S
C469 C470 1.377 . S
C470 H454 0.930 . S
C470 C469 1.377 . S
C470 C471 1.379 . S
C471 H455 0.931 . S
C471 C465 1.383 . S
C471 C470 1.379 . S
H472 C466 0.959 . S
H473 C466 0.961 . S
H474 C466 0.960 . S
H475 C467 0.930 . S
H476 C468 0.929 . S
H477 C485 0.929 . S
H478 C487 0.930 . S
H479 C489 0.930 . S
H480 C492 0.929 . S
H481 C495 0.930 . S
H482 C497 0.960 . S
H483 C497 0.960 . S
H484 C497 0.960 . S
C485 H477 0.929 . S
C485 C486 1.377 . S
C485 C487 1.384 . S
C486 C485 1.377 . S
C486 C492 1.390 1_655 S
C487 H478 0.930 . S
C487 C485 1.384 . S
C487 C488 1.372 . S
C488 C487 1.372 . S
C488 C489 1.400 1_655 S
C488 C493 1.490 . S
C489 H479 0.930 . S
C489 C488 1.400 1_455 S
C489 C492 1.386 . S
H490 C506 0.930 . S
H491 C507 0.931 . S
C492 H480 0.929 . S
C492 C486 1.390 1_455 S
C492 C489 1.386 . S
C493 C488 1.490 . S
C493 C495 1.395 . S
C493 C496 1.403 1_655 S
H494 C500 0.930 . S
C495 H481 0.930 . S
C495 C493 1.395 . S
C495 C498 1.403 . S
C496 C493 1.403 1_455 S
C496 C497 1.524 . S
C496 C500 1.400 . S
C497 H482 0.960 . S
C497 H483 0.960 . S
C497 H484 0.960 . S
C497 C496 1.524 . S
C498 C495 1.403 . S
C498 C499 1.392 . S
C498 C502 1.495 . S
C499 C498 1.392 . S
C499 C500 1.385 1_655 S
C499 C501 1.478 . S
C500 H494 0.930 . S
C500 C496 1.400 . S
C500 C499 1.385 1_455 S
C501 C499 1.478 . S
C501 C503 1.381 . S
C501 C507 1.383 1_655 S
C502 C498 1.495 . S
C502 H508 0.959 . S
C502 H509 0.961 . S
C502 H510 0.960 . S
C503 C501 1.381 . S
C503 C504 1.394 . S
C503 H511 0.930 . S
C504 C503 1.394 . S
C504 C505 1.381 1_655 S
C504 H512 0.929 . S
C505 C504 1.381 1_455 S
C505 C506 1.380 . S
C506 H490 0.930 . S
C506 C505 1.380 . S
C506 C507 1.379 . S
C507 H491 0.931 . S
C507 C501 1.383 1_455 S
C507 C506 1.379 . S
H508 C502 0.959 . S
H509 C502 0.961 . S
H510 C502 0.960 . S
H511 C503 0.930 . S
H512 C504 0.929 . S
C109 C40 1.489 . S
C90 C10 1.495 . S
C126 C17 1.495 . S
C145 C66 1.489 . S
C162 C36 1.495 . S
C181 C68 1.490 . S
C198 C5 1.496 1_455 S
C217 C52 1.495 . S
C253 C54 1.491 . S
C234 C16 1.491 . S
C270 C31 1.497 . S
C289 C80 1.493 . S
C325 C53 1.489 . S
C306 C30 1.495 . S
C342 C3 1.497 . S
C361 C79 1.495 . S
C397 C39 1.492 . S
C378 C18 1.496 . S
C433 C65 1.489 . S
C414 C29 1.497 . S
C469 C67 1.492 . S
C450 C4 1.495 . S
C486 C23 1.495 . S
C505 C51 1.487 . S
