# Generated by pormake.
# Topology myd, (4,6)-cn, num edge types: 1
# Building blocks:
#     Node 0, Type 0, BuildingBlock: NAWXER_clean_sbu_0, # of connection points: 4
#     Node 1, Type 0, BuildingBlock: NAWXER_clean_sbu_0, # of connection points: 4
#     Node 2, Type 0, BuildingBlock: NAWXER_clean_sbu_0, # of connection points: 4
#     Node 3, Type 0, BuildingBlock: NAWXER_clean_sbu_0, # of connection points: 4
#     Node 4, Type 0, BuildingBlock: NAWXER_clean_sbu_0, # of connection points: 4
#     Node 5, Type 0, BuildingBlock: NAWXER_clean_sbu_0, # of connection points: 4
#     Node 6, Type 0, BuildingBlock: NAWXER_clean_sbu_0, # of connection points: 4
#     Node 7, Type 0, BuildingBlock: NAWXER_clean_sbu_0, # of connection points: 4
#     Node 8, Type 0, BuildingBlock: NAWXER_clean_sbu_0, # of connection points: 4
#     Node 9, Type 0, BuildingBlock: NAWXER_clean_sbu_0, # of connection points: 4
#     Node 10, Type 0, BuildingBlock: NAWXER_clean_sbu_0, # of connection points: 4
#     Node 11, Type 0, BuildingBlock: NAWXER_clean_sbu_0, # of connection points: 4
#     Node 12, Type 1, BuildingBlock: JUFBIX_clean_sbu_0, # of connection points: 6
#     Node 13, Type 1, BuildingBlock: JUFBIX_clean_sbu_0, # of connection points: 6
#     Node 14, Type 1, BuildingBlock: JUFBIX_clean_sbu_0, # of connection points: 6
#     Node 15, Type 1, BuildingBlock: JUFBIX_clean_sbu_0, # of connection points: 6
#     Node 16, Type 1, BuildingBlock: JUFBIX_clean_sbu_0, # of connection points: 6
#     Node 17, Type 1, BuildingBlock: JUFBIX_clean_sbu_0, # of connection points: 6
#     Node 18, Type 1, BuildingBlock: JUFBIX_clean_sbu_0, # of connection points: 6
#     Node 19, Type 1, BuildingBlock: JUFBIX_clean_sbu_0, # of connection points: 6
#     Edge 20, Type (0, 1), BuildingBlock: UVAHIK_clean_linker_0, # of connection points: 2
#     Edge 21, Type (0, 1), BuildingBlock: UVAHIK_clean_linker_0, # of connection points: 2
#     Edge 22, Type (0, 1), BuildingBlock: UVAHIK_clean_linker_0, # of connection points: 2
#     Edge 23, Type (0, 1), BuildingBlock: UVAHIK_clean_linker_0, # of connection points: 2
#     Edge 24, Type (0, 1), BuildingBlock: UVAHIK_clean_linker_0, # of connection points: 2
#     Edge 25, Type (0, 1), BuildingBlock: UVAHIK_clean_linker_0, # of connection points: 2
#     Edge 26, Type (0, 1), BuildingBlock: UVAHIK_clean_linker_0, # of connection points: 2
#     Edge 27, Type (0, 1), BuildingBlock: UVAHIK_clean_linker_0, # of connection points: 2
#     Edge 28, Type (0, 1), BuildingBlock: UVAHIK_clean_linker_0, # of connection points: 2
#     Edge 29, Type (0, 1), BuildingBlock: UVAHIK_clean_linker_0, # of connection points: 2
#     Edge 30, Type (0, 1), BuildingBlock: UVAHIK_clean_linker_0, # of connection points: 2
#     Edge 31, Type (0, 1), BuildingBlock: UVAHIK_clean_linker_0, # of connection points: 2
#     Edge 32, Type (0, 1), BuildingBlock: UVAHIK_clean_linker_0, # of connection points: 2
#     Edge 33, Type (0, 1), BuildingBlock: UVAHIK_clean_linker_0, # of connection points: 2
#     Edge 34, Type (0, 1), BuildingBlock: UVAHIK_clean_linker_0, # of connection points: 2
#     Edge 35, Type (0, 1), BuildingBlock: UVAHIK_clean_linker_0, # of connection points: 2
#     Edge 36, Type (0, 1), BuildingBlock: UVAHIK_clean_linker_0, # of connection points: 2
#     Edge 37, Type (0, 1), BuildingBlock: UVAHIK_clean_linker_0, # of connection points: 2
#     Edge 38, Type (0, 1), BuildingBlock: UVAHIK_clean_linker_0, # of connection points: 2
#     Edge 39, Type (0, 1), BuildingBlock: UVAHIK_clean_linker_0, # of connection points: 2
#     Edge 40, Type (0, 1), BuildingBlock: UVAHIK_clean_linker_0, # of connection points: 2
#     Edge 41, Type (0, 1), BuildingBlock: UVAHIK_clean_linker_0, # of connection points: 2
#     Edge 42, Type (0, 1), BuildingBlock: UVAHIK_clean_linker_0, # of connection points: 2
#     Edge 43, Type (0, 1), BuildingBlock: UVAHIK_clean_linker_0, # of connection points: 2
#     Edge 44, Type (0, 1), BuildingBlock: UVAHIK_clean_linker_0, # of connection points: 2
#     Edge 45, Type (0, 1), BuildingBlock: UVAHIK_clean_linker_0, # of connection points: 2
#     Edge 46, Type (0, 1), BuildingBlock: UVAHIK_clean_linker_0, # of connection points: 2
#     Edge 47, Type (0, 1), BuildingBlock: UVAHIK_clean_linker_0, # of connection points: 2
#     Edge 48, Type (0, 1), BuildingBlock: UVAHIK_clean_linker_0, # of connection points: 2
#     Edge 49, Type (0, 1), BuildingBlock: UVAHIK_clean_linker_0, # of connection points: 2
#     Edge 50, Type (0, 1), BuildingBlock: UVAHIK_clean_linker_0, # of connection points: 2
#     Edge 51, Type (0, 1), BuildingBlock: UVAHIK_clean_linker_0, # of connection points: 2
#     Edge 52, Type (0, 1), BuildingBlock: UVAHIK_clean_linker_0, # of connection points: 2
#     Edge 53, Type (0, 1), BuildingBlock: UVAHIK_clean_linker_0, # of connection points: 2
#     Edge 54, Type (0, 1), BuildingBlock: UVAHIK_clean_linker_0, # of connection points: 2
#     Edge 55, Type (0, 1), BuildingBlock: UVAHIK_clean_linker_0, # of connection points: 2
#     Edge 56, Type (0, 1), BuildingBlock: UVAHIK_clean_linker_0, # of connection points: 2
#     Edge 57, Type (0, 1), BuildingBlock: UVAHIK_clean_linker_0, # of connection points: 2
#     Edge 58, Type (0, 1), BuildingBlock: UVAHIK_clean_linker_0, # of connection points: 2
#     Edge 59, Type (0, 1), BuildingBlock: UVAHIK_clean_linker_0, # of connection points: 2
#     Edge 60, Type (0, 1), BuildingBlock: UVAHIK_clean_linker_0, # of connection points: 2
#     Edge 61, Type (0, 1), BuildingBlock: UVAHIK_clean_linker_0, # of connection points: 2
#     Edge 62, Type (0, 1), BuildingBlock: UVAHIK_clean_linker_0, # of connection points: 2
#     Edge 63, Type (0, 1), BuildingBlock: UVAHIK_clean_linker_0, # of connection points: 2
#     Edge 64, Type (0, 1), BuildingBlock: UVAHIK_clean_linker_0, # of connection points: 2
#     Edge 65, Type (0, 1), BuildingBlock: UVAHIK_clean_linker_0, # of connection points: 2
#     Edge 66, Type (0, 1), BuildingBlock: UVAHIK_clean_linker_0, # of connection points: 2
#     Edge 67, Type (0, 1), BuildingBlock: UVAHIK_clean_linker_0, # of connection points: 2
# Relax obj value: 0.257
# Max RMSD: 0.223
# Mean RMSD: 0.143
data_MOF--net-myd--node1-NAWXER_clean_sbu_0--node2-JUFBIX_clean_sbu_0--edge1-UVAHIK_clean_linker_0
_symmetry_space_group_name_H-M    P1
_symmetry_Int_Tables_number       1
_symmetry_cell_setting            triclinic
loop_
_symmetry_equiv_pos_as_xyz
'x, y, z'
_cell_length_a     57.567958
_cell_length_b     60.490307
_cell_length_c     59.608869
_cell_angle_alpha  90.37085
_cell_angle_beta   87.866113
_cell_angle_gamma 91.33626
loop_
_atom_site_label
_atom_site_type_symbol
_atom_site_fract_x
_atom_site_fract_y
_atom_site_fract_z
_atom_type_partial_charge
C0 C 0.02655 0.19811 0.28698 0.0
C1 C 0.02116 0.25766 0.34283 0.0
O2 O 0.04312 0.21049 0.29366 0.0
Zn3 Zn 0.02492 0.22704 0.31575 0.0
O4 O 0.00596 0.20043 0.29552 0.0
Zn5 Zn 0.98823 0.22084 0.31998 0.0
O6 O 0.96669 0.23627 0.30122 0.0
O7 O 1.00362 0.24536 0.29452 0.0
O8 O 1.00161 0.24771 0.33971 0.0
O9 O 0.03945 0.25072 0.33274 0.0
O10 O 0.01515 0.20222 0.33989 0.0
O11 O 0.97688 0.19919 0.34199 0.0
C12 C 0.98216 0.2477 0.29037 0.0
C13 C 0.99656 0.19295 0.34826 0.0
C14 C 0.06081 0.7436 0.21933 0.0
C15 C 0.04237 0.69591 0.15618 0.0
O16 O 0.0752 0.73469 0.20554 0.0
Zn17 Zn 0.05209 0.72023 0.18752 0.0
O18 O 0.03888 0.74089 0.21689 0.0
Zn19 Zn 0.01595 0.72438 0.19431 0.0
O20 O 0.99863 0.70456 0.21431 0.0
O21 O 0.03589 0.69687 0.21102 0.0
O22 O 0.02421 0.7033 0.1665 0.0
O23 O 0.06237 0.7017 0.16272 0.0
O24 O 0.03754 0.74824 0.17158 0.0
O25 O 1.00018 0.74877 0.18096 0.0
C26 C 0.01551 0.69274 0.21971 0.0
C27 C 0.01774 0.75739 0.17051 0.0
C28 C 0.3313 0.02813 0.21038 0.0
C29 C 0.26726 0.0264 0.2669 0.0
O30 O 0.32404 0.0085 0.21534 0.0
Zn31 Zn 0.29856 0.99282 0.23737 0.0
O32 O 0.32247 0.04455 0.22075 0.0
Zn33 Zn 0.29982 0.0283 0.23951 0.0
O34 O 0.32017 0.01202 0.26334 0.0
O35 O 0.31644 0.97601 0.25837 0.0
O36 O 0.27806 0.04375 0.25983 0.0
O37 O 0.27341 0.00738 0.25961 0.0
O38 O 0.27824 0.97801 0.21624 0.0
O39 O 0.27724 0.01447 0.21487 0.0
C40 C 0.32483 0.99233 0.26923 0.0
C41 C 0.27047 0.99545 0.20763 0.0
C42 C 0.72947 0.50138 0.24068 0.0
C43 C 0.67056 0.50012 0.30281 0.0
O44 O 0.72536 0.48232 0.24939 0.0
Zn45 Zn 0.704 0.46685 0.27503 0.0
O46 O 0.7186 0.51801 0.24849 0.0
Zn47 Zn 0.69985 0.50198 0.27164 0.0
O48 O 0.72523 0.49248 0.29456 0.0
O49 O 0.72709 0.4561 0.29526 0.0
O50 O 0.67785 0.517 0.29174 0.0
O51 O 0.67876 0.48108 0.29791 0.0
O52 O 0.68554 0.44649 0.25703 0.0
O53 O 0.67791 0.48164 0.25163 0.0
C54 C 0.73405 0.47495 0.30225 0.0
C55 C 0.67414 0.46113 0.24721 0.0
C56 C 0.21616 0.36895 0.99865 0.0
C57 C 0.26897 0.30743 0.98889 0.0
O58 O 0.22312 0.35987 0.98042 0.0
Zn59 Zn 0.24503 0.33997 0.99297 0.0
O60 O 0.22598 0.36417 0.01693 0.0
Zn61 Zn 0.25258 0.34228 0.02731 0.0
O62 O 0.27884 0.36059 0.03616 0.0
O63 O 0.27575 0.35929 0.99951 0.0
O64 O 0.26852 0.31524 0.00897 0.0
O65 O 0.25777 0.31695 0.97386 0.0
O66 O 0.22291 0.32051 0.01593 0.0
O67 O 0.23553 0.32558 0.05026 0.0
C68 C 0.28688 0.36569 0.01672 0.0
C69 C 0.22122 0.31651 0.03707 0.0
C70 C 0.23131 0.72616 0.49286 0.0
C71 C 0.28881 0.66799 0.50051 0.0
O72 O 0.24316 0.71721 0.47693 0.0
Zn73 Zn 0.25881 0.69584 0.49528 0.0
O74 O 0.23281 0.71893 0.51291 0.0
Zn75 Zn 0.25085 0.69427 0.5307 0.0
O76 O 0.2676 0.71293 0.55164 0.0
O77 O 0.27862 0.71756 0.51604 0.0
O78 O 0.27793 0.67293 0.51897 0.0
O79 O 0.28294 0.67695 0.48237 0.0
O80 O 0.23092 0.67365 0.5046 0.0
O81 O 0.22574 0.6746 0.54141 0.0
C82 C 0.28053 0.72268 0.5368 0.0
C83 C 0.21977 0.66714 0.52244 0.0
C84 C 0.72756 0.8682 0.52558 0.0
C85 C 0.78201 0.81072 0.50341 0.0
O86 O 0.73487 0.86349 0.50579 0.0
Zn87 Zn 0.75751 0.8419 0.51371 0.0
O88 O 0.73748 0.85987 0.54239 0.0
Zn89 Zn 0.76473 0.83697 0.54799 0.0
O90 O 0.79058 0.8533 0.56041 0.0
O91 O 0.78711 0.86044 0.52454 0.0
O92 O 0.78109 0.81453 0.5246 0.0
O93 O 0.77117 0.82311 0.49037 0.0
O94 O 0.73591 0.81774 0.53188 0.0
O95 O 0.74795 0.81549 0.56665 0.0
C96 C 0.79805 0.8631 0.54272 0.0
C97 C 0.7341 0.80923 0.55156 0.0
C98 C 0.47064 0.74618 0.79358 0.0
C99 C 0.48864 0.69307 0.85155 0.0
O100 O 0.45597 0.73493 0.80555 0.0
Zn101 Zn 0.47877 0.72062 0.82344 0.0
O102 O 0.49243 0.74475 0.79685 0.0
Zn103 Zn 0.51505 0.72785 0.81843 0.0
O104 O 0.53354 0.71176 0.79618 0.0
O105 O 0.49669 0.70065 0.79854 0.0
O106 O 0.50683 0.70273 0.84279 0.0
O107 O 0.46867 0.69893 0.84577 0.0
O108 O 0.49126 0.74851 0.84204 0.0
O109 O 0.52899 0.75227 0.83516 0.0
C110 C 0.51724 0.69894 0.78969 0.0
C111 C 0.51047 0.75912 0.84488 0.0
C112 C 0.50882 0.18725 0.71615 0.0
C113 C 0.51234 0.25247 0.66778 0.0
O114 O 0.49228 0.19971 0.71123 0.0
Zn115 Zn 0.50989 0.21928 0.69121 0.0
O116 O 0.5292 0.19096 0.70728 0.0
Zn117 Zn 0.54587 0.2144 0.68422 0.0
O118 O 0.56932 0.22823 0.70243 0.0
O119 O 0.53323 0.2353 0.71374 0.0
O120 O 0.53191 0.24288 0.66869 0.0
O121 O 0.4946 0.24411 0.67819 0.0
O122 O 0.51756 0.1984 0.66299 0.0
O123 O 0.55567 0.19619 0.65903 0.0
C124 C 0.5552 0.23754 0.71619 0.0
C125 C 0.53555 0.1909 0.65244 0.0
C126 C 0.77121 0.4883 0.70687 0.0
C127 C 0.83094 0.47664 0.76231 0.0
O128 O 0.77947 0.50624 0.71535 0.0
Zn129 Zn 0.8047 0.51659 0.73909 0.0
O130 O 0.77884 0.46981 0.71306 0.0
Zn131 Zn 0.80166 0.48154 0.73373 0.0
O132 O 0.77973 0.49463 0.75988 0.0
O133 O 0.78547 0.53071 0.76265 0.0
O134 O 0.8205 0.46183 0.75095 0.0
O135 O 0.82677 0.49707 0.75894 0.0
O136 O 0.82633 0.53395 0.72019 0.0
O137 O 0.82622 0.49841 0.71157 0.0
C138 C 0.77506 0.51308 0.76951 0.0
C139 C 0.83385 0.51821 0.70789 0.0
C140 C 0.2349 0.99817 0.73681 0.0
C141 C 0.17831 1.0002 0.80086 0.0
O142 O 0.23103 0.97954 0.74651 0.0
Zn143 Zn 0.2111 0.96561 0.77402 0.0
O144 O 0.22503 0.01532 0.74471 0.0
Zn145 Zn 0.20705 1.00066 0.76928 0.0
O146 O 0.23289 0.99223 0.79187 0.0
O147 O 0.23487 0.95597 0.79421 0.0
O148 O 0.18566 0.01667 0.78919 0.0
O149 O 0.18632 0.98095 0.7966 0.0
O150 O 0.19175 0.94445 0.75789 0.0
O151 O 0.18407 0.97944 0.75134 0.0
C152 C 0.24192 0.97513 0.8002 0.0
C153 C 0.17991 0.95879 0.74809 0.0
C154 C 0.7236 0.16766 0.02492 0.0
C155 C 0.78154 0.22704 0.03232 0.0
O156 O 0.72981 0.17716 0.04287 0.0
Zn157 Zn 0.75367 0.19653 0.02957 0.0
O158 O 0.73379 0.17282 0.00613 0.0
Zn159 Zn 0.76018 0.19559 0.99397 0.0
O160 O 0.78506 0.17711 0.98181 0.0
O161 O 0.7815 0.17563 0.01871 0.0
O162 O 0.77931 0.22019 0.0121 0.0
O163 O 0.76996 0.21758 0.04831 0.0
O164 O 0.73361 0.21866 0.0106 0.0
O165 O 0.7426 0.2146 0.97454 0.0
C166 C 0.79204 0.16987 1.00033 0.0
C167 C 0.7309 0.2242 0.99016 0.0
Co168 Co 0.03786 0.03313 0.05388 0.0
C169 C 0.0425 0.06707 0.08579 0.0
Co170 Co 0.05761 0.06274 0.0418 0.0
C171 C 0.02582 0.9878 0.06622 0.0
C172 C 0.99854 0.01021 0.0744 0.0
N173 N 0.01998 0.00923 0.06463 0.0
N174 N 0.00891 0.97535 0.07674 0.0
C175 C 0.9917 0.98951 0.08181 0.0
H176 H 0.04236 0.98159 0.06009 0.0
H177 H 0.98879 0.02518 0.07668 0.0
C178 C 0.05372 0.02932 0.00976 0.0
N179 N 0.07598 0.08637 0.03134 0.0
C180 C 0.07667 0.10762 0.03846 0.0
C181 C 0.09423 0.08471 0.01665 0.0
N182 N 0.09482 0.11923 0.02895 0.0
C183 C 0.10576 0.10475 0.01513 0.0
C184 C 0.0844 0.03063 0.06201 0.0
O185 O 0.04327 0.01832 0.0254 0.0
O186 O 0.06078 0.04892 0.01354 0.0
O187 O 0.08509 0.04891 0.05156 0.0
O188 O 0.06498 0.0205 0.06499 0.0
O189 O 0.0543 0.07634 0.06998 0.0
H190 H 0.09967 0.06957 0.0085 0.0
H191 H 0.06458 0.11417 0.05099 0.0
O192 O 0.03295 0.04821 0.08231 0.0
O193 O 0.01075 0.04623 0.0427 0.0
O194 O 0.03 0.07648 0.03244 0.0
C195 C 0.01085 0.06553 0.03431 0.0
H196 H 0.97566 0.98549 0.09108 0.0
H197 H 0.12182 0.1079 0.00557 0.0
Co198 Co 0.95214 0.45372 0.07569 0.0
C199 C 0.96831 0.4958 0.06457 0.0
Co200 Co 0.94188 0.4644 0.04197 0.0
C201 C 0.95874 0.42417 0.11322 0.0
C202 C 0.96555 0.45805 0.12163 0.0
N203 N 0.96015 0.44469 0.10427 0.0
N204 N 0.96267 0.42431 0.13543 0.0
C205 C 0.9672 0.44563 0.14067 0.0
H206 H 0.95375 0.40951 0.10393 0.0
H207 H 0.96718 0.47587 0.12089 0.0
C208 C 0.9257 0.42241 0.05317 0.0
N209 N 0.93313 0.47401 0.01388 0.0
C210 C 0.93127 0.46311 0.99406 0.0
C211 C 0.92674 0.49482 0.00958 0.0
N212 N 0.92424 0.47648 0.9776 0.0
C213 C 0.9214 0.4964 0.98742 0.0
C214 C 0.98463 0.44344 0.04209 0.0
O215 O 0.93631 0.42661 0.07103 0.0
O216 O 0.92603 0.43677 0.03765 0.0
O217 O 0.97039 0.4524 0.02913 0.0
O218 O 0.9795 0.44215 0.06298 0.0
O219 O 0.95785 0.4919 0.04655 0.0
H220 H 0.92583 0.50803 0.02187 0.0
H221 H 0.93518 0.44581 0.99171 0.0
O222 O 0.96785 0.48118 0.07975 0.0
O223 O 0.9248 0.46516 0.08838 0.0
O224 O 0.91355 0.47629 0.05565 0.0
C225 C 0.90977 0.47428 0.07676 0.0
H226 H 0.97093 0.45196 0.1572 0.0
H227 H 0.91539 0.51104 0.97925 0.0
Co228 Co 0.06947 0.9573 0.47149 0.0
C229 C 0.09953 0.96479 0.4351 0.0
Co230 Co 0.05734 0.94166 0.44044 0.0
C231 C 0.08148 0.95993 0.51781 0.0
C232 C 0.08457 0.9915 0.50178 0.0
N233 N 0.07896 0.97007 0.49797 0.0
N234 N 0.08833 0.97418 0.53387 0.0
C235 C 0.09024 0.99409 0.52389 0.0
H236 H 0.07803 0.94246 0.52051 0.0
H237 H 0.08458 0.00439 0.48929 0.0
C238 C 0.02682 0.93449 0.47642 0.0
N239 N 0.04823 0.92872 0.41402 0.0
C240 C 0.06158 0.91594 0.40046 0.0
C241 C 0.02752 0.9292 0.40424 0.0
N242 N 0.05007 0.90819 0.38268 0.0
C243 C 0.0286 0.91658 0.3849 0.0
C244 C 0.08527 0.91445 0.46465 0.0
O245 O 0.04198 0.94583 0.48677 0.0
O246 O 0.03022 0.93039 0.45564 0.0
O247 O 0.07322 0.91571 0.44736 0.0
O248 O 0.08594 0.93086 0.47809 0.0
O249 O 0.08438 0.95297 0.42539 0.0
H250 H 0.01252 0.93784 0.41094 0.0
H251 H 0.07949 0.91235 0.40367 0.0
O252 O 0.09671 0.96904 0.45593 0.0
O253 O 0.05323 0.98347 0.46443 0.0
O254 O 0.04167 0.96779 0.43341 0.0
C255 C 0.04226 0.98455 0.44635 0.0
H256 H 0.09573 0.00935 0.53191 0.0
H257 H 0.01448 0.91326 0.37378 0.0
Co258 Co 0.95665 0.56873 0.45057 0.0
C259 C 1.00206 0.56725 0.46502 0.0
Co260 Co 0.97104 0.53509 0.45044 0.0
C261 C 0.92537 0.60636 0.45373 0.0
C262 C 0.95885 0.61398 0.43847 0.0
N263 N 0.94615 0.5974 0.44825 0.0
N264 N 0.92467 0.62775 0.44736 0.0
C265 C 0.94571 0.63255 0.43782 0.0
H266 H 0.91089 0.59726 0.46162 0.0
H267 H 0.9765 0.61255 0.43184 0.0
C268 C 0.92587 0.53621 0.43591 0.0
N269 N 0.98248 0.50669 0.45252 0.0
C270 C 0.9838 0.49026 0.43706 0.0
C271 C 0.99201 0.49841 0.47088 0.0
N272 N 0.99388 0.47203 0.44509 0.0
C273 C 0.99893 0.47722 0.46643 0.0
C274 C 0.94763 0.54866 0.49079 0.0
O275 O 0.928 0.55684 0.44008 0.0
O276 O 0.94278 0.52364 0.43937 0.0
O277 O 0.95816 0.53293 0.48072 0.0
O278 O 0.94501 0.56669 0.48047 0.0
O279 O 0.99924 0.54668 0.46146 0.0
H280 H 0.99389 0.50726 0.48656 0.0
H281 H 0.9778 0.49182 0.42017 0.0
O282 O 0.98559 0.58015 0.46108 0.0
O283 O 0.96803 0.5706 0.42065 0.0
O284 O 0.98355 0.53782 0.42005 0.0
C285 C 0.97922 0.55575 0.41017 0.0
H286 H 0.95121 0.64843 0.43094 0.0
H287 H 0.00682 0.46643 0.47823 0.0
Co288 Co 0.45103 0.9479 0.58181 0.0
C289 C 0.46512 0.98925 0.56559 0.0
Co290 Co 0.44659 0.95214 0.54525 0.0
C291 C 0.45806 0.92645 0.62352 0.0
C292 C 0.4463 0.95942 0.62886 0.0
N293 N 0.45304 0.9451 0.61259 0.0
N294 N 0.45422 0.9283 0.6459 0.0
C295 C 0.44688 0.94908 0.64939 0.0
H296 H 0.46285 0.91125 0.61505 0.0
H297 H 0.44011 0.97586 0.62589 0.0
C298 C 0.43231 0.9108 0.56169 0.0
N299 N 0.44449 0.95353 0.51394 0.0
C300 C 0.4314 0.96566 0.50035 0.0
C301 C 0.45624 0.93988 0.49978 0.0
N302 N 0.43506 0.96027 0.47841 0.0
C303 C 0.45069 0.94409 0.47814 0.0
C304 C 0.49031 0.93665 0.55784 0.0
O305 O 0.43907 0.9186 0.58018 0.0
O306 O 0.43434 0.92269 0.54421 0.0
O307 O 0.47791 0.94153 0.54146 0.0
O308 O 0.4817 0.93799 0.57767 0.0
O309 O 0.45885 0.98168 0.54668 0.0
H310 H 0.46767 0.92704 0.5048 0.0
H311 H 0.41934 0.97802 0.50638 0.0
O312 O 0.46277 0.97716 0.58297 0.0
O313 O 0.42052 0.95802 0.58609 0.0
O314 O 0.41547 0.96294 0.55006 0.0
C315 C 0.4078 0.96391 0.57039 0.0
H316 H 0.4415 0.95603 0.66548 0.0
H317 H 0.457 0.93531 0.46333 0.0
Co318 Co 0.53332 0.53166 0.55796 0.0
C319 C 0.5359 0.56686 0.58886 0.0
Co320 Co 0.55204 0.56158 0.54532 0.0
C321 C 0.52309 0.48585 0.57038 0.0
C322 C 0.49596 0.50787 0.58026 0.0
N323 N 0.51698 0.50726 0.56958 0.0
N324 N 0.50665 0.47306 0.58116 0.0
C325 C 0.48958 0.48698 0.58736 0.0
H326 H 0.53934 0.47986 0.56327 0.0
H327 H 0.48608 0.52269 0.58312 0.0
C328 C 0.55036 0.52701 0.51432 0.0
N329 N 0.56767 0.58619 0.53376 0.0
C330 C 0.58164 0.60088 0.54423 0.0
C331 C 0.56606 0.59406 0.51278 0.0
N332 N 0.58861 0.61773 0.53064 0.0
C333 C 0.57892 0.61338 0.5108 0.0
C334 C 0.58039 0.53214 0.5666 0.0
O335 O 0.53935 0.51634 0.52987 0.0
O336 O 0.55717 0.54674 0.51782 0.0
O337 O 0.58037 0.55042 0.5561 0.0
O338 O 0.56146 0.521 0.56914 0.0
O339 O 0.54701 0.57632 0.57273 0.0
H340 H 0.55579 0.58646 0.49987 0.0
H341 H 0.58593 0.5996 0.56169 0.0
O342 O 0.52776 0.54732 0.58602 0.0
O343 O 0.50519 0.54264 0.54669 0.0
O344 O 0.52357 0.57269 0.53494 0.0
C345 C 0.50476 0.56139 0.53725 0.0
H346 H 0.47387 0.48261 0.59701 0.0
H347 H 0.58087 0.62348 0.4959 0.0
Co348 Co 0.56772 0.45317 0.96658 0.0
C349 C 0.60187 0.46148 0.93325 0.0
Co350 Co 0.55904 0.44008 0.93323 0.0
C351 C 0.57672 0.45429 0.01425 0.0
C352 C 0.58014 0.48617 0.99888 0.0
N353 N 0.57503 0.46475 0.99441 0.0
N354 N 0.58247 0.46843 0.03089 0.0
C355 C 0.58459 0.48849 0.02126 0.0
H356 H 0.57367 0.4367 0.01648 0.0
H357 H 0.58084 0.49927 0.9866 0.0
C358 C 0.52435 0.43195 0.96586 0.0
N359 N 0.55206 0.42857 0.90546 0.0
C360 C 0.56526 0.41476 0.89287 0.0
C361 C 0.53262 0.43103 0.89389 0.0
N362 N 0.5548 0.40824 0.874 0.0
C363 C 0.53426 0.41855 0.8745 0.0
C364 C 0.58304 0.41049 0.95896 0.0
O365 O 0.53862 0.44139 0.9789 0.0
O366 O 0.53013 0.42968 0.94522 0.0
O367 O 0.57283 0.41303 0.94068 0.0
O368 O 0.58291 0.42618 0.97328 0.0
O369 O 0.58784 0.45051 0.92135 0.0
H370 H 0.51796 0.44077 0.89948 0.0
H371 H 0.58217 0.40938 0.89765 0.0
O372 O 0.59658 0.46509 0.95385 0.0
O373 O 0.55268 0.47992 0.95943 0.0
O374 O 0.54548 0.46734 0.92582 0.0
C375 C 0.54441 0.48288 0.94023 0.0
H376 H 0.58958 0.50368 0.0297 0.0
H377 H 0.52096 0.41652 0.86224 0.0
Co378 Co 0.45969 0.07199 0.95571 0.0
C379 C 0.50448 0.07005 0.97078 0.0
Co380 Co 0.47373 0.03824 0.95422 0.0
C381 C 0.42725 0.10858 0.95924 0.0
C382 C 0.46144 0.11812 0.94695 0.0
N383 N 0.4487 0.1006 0.95475 0.0
N384 N 0.4262 0.13027 0.95413 0.0
C385 C 0.44766 0.13628 0.94643 0.0
H386 H 0.41253 0.09855 0.96529 0.0
H387 H 0.47953 0.11758 0.94139 0.0
C388 C 0.4293 0.03982 0.93885 0.0
N389 N 0.48567 0.00991 0.95488 0.0
C390 C 0.48388 0.99308 0.93994 0.0
C391 C 0.49919 0.00218 0.97095 0.0
N392 N 0.49601 0.97532 0.94599 0.0
C393 C 0.50565 0.98104 0.96548 0.0
C394 C 0.44972 0.05002 0.99474 0.0
O395 O 0.43181 0.06046 0.94285 0.0
O396 O 0.44563 0.02692 0.9432 0.0
O397 O 0.46125 0.03479 0.9848 0.0
O398 O 0.44652 0.06796 0.98449 0.0
O399 O 0.50205 0.0499 0.96513 0.0
H400 H 0.50416 0.01141 0.98569 0.0
H401 H 0.47426 0.99398 0.92471 0.0
O402 O 0.48765 0.08299 0.96854 0.0
O403 O 0.47306 0.07605 0.92692 0.0
O404 O 0.4858 0.04227 0.92368 0.0
C405 C 0.48354 0.06143 0.91543 0.0
H406 H 0.45292 0.15266 0.94069 0.0
H407 H 0.5164 0.97057 0.97523 0.0
C408 C 0.97877 0.16191 0.37175 0.0
C409 C 0.99855 0.17364 0.36324 0.0
C410 C 0.98114 0.14205 0.38341 0.0
C411 C 0.02015 0.09592 0.38445 0.0
H412 H 0.99072 0.07984 0.44182 0.0
C413 C 0.02334 0.00749 0.41774 0.0
C414 C 0.03204 0.00558 0.43936 0.0
C415 C 0.01637 0.02791 0.40991 0.0
C416 C 0.99898 0.08415 0.42577 0.0
H417 H 0.03633 0.1742 0.36138 0.0
H418 H 0.04028 0.13967 0.38132 0.0
H419 H 0.98442 0.11659 0.42597 0.0
H420 H 0.03902 0.02346 0.47015 0.0
H421 H 0.02653 0.0592 0.45643 0.0
H422 H 0.03468 0.06371 0.38404 0.0
C423 C 0.023 0.14575 0.3789 0.0
C424 C 0.99529 0.10507 0.41669 0.0
C425 C 0.02068 0.1656 0.36753 0.0
C426 C 0.03245 0.02438 0.45339 0.0
C427 C 0.02523 0.04482 0.44559 0.0
C428 C 0.02351 0.075 0.3933 0.0
C429 C 1.00329 0.13351 0.3865 0.0
C430 C 0.0061 0.1112 0.39605 0.0
C431 C 0.0177 0.04687 0.42356 0.0
C432 C 0.01311 0.06892 0.4141 0.0
H433 H 0.96148 0.16766 0.36878 0.0
H434 H 0.96566 0.13288 0.38911 0.0
H435 H 0.02853 0.10016 0.36842 0.0
H436 H 0.02268 0.99336 0.4065 0.0
H437 H 0.0104 0.02898 0.39293 0.0
C438 C 0.03956 0.29433 0.35282 0.0
C439 C 0.02149 0.27852 0.35603 0.0
C440 C 0.03789 0.31539 0.36261 0.0
C441 C 0.99331 0.35362 0.38599 0.0
H442 H 0.04679 0.38695 0.40659 0.0
C443 C 0.98603 0.44482 0.4147 0.0
C444 C 0.99842 0.45131 0.43364 0.0
C445 C 0.98988 0.4243 0.40433 0.0
C446 C 0.03161 0.37783 0.40108 0.0
H447 H 0.98816 0.27195 0.37312 0.0
H448 H 0.98564 0.3082 0.39079 0.0
H449 H 0.05169 0.34954 0.39214 0.0
H450 H 0.0253 0.44134 0.45586 0.0
H451 H 0.03127 0.40557 0.43847 0.0
H452 H 0.97307 0.38152 0.39569 0.0
C453 C 1.00075 0.30473 0.3801 0.0
C454 C 0.03449 0.35642 0.39252 0.0
C455 C 1.00231 0.28382 0.37015 0.0
C456 C 0.01507 0.43689 0.44161 0.0
C457 C 0.01879 0.41638 0.43136 0.0
C458 C 0.99041 0.37494 0.39468 0.0
C459 C 0.01819 0.32103 0.37599 0.0
C460 C 0.01535 0.34395 0.38499 0.0
C461 C 0.00615 0.4097 0.41267 0.0
C462 C 0.00948 0.38732 0.40247 0.0
H463 H 0.05449 0.29082 0.34189 0.0
H464 H 0.05161 0.32751 0.35892 0.0
H465 H 0.97821 0.34476 0.37994 0.0
H466 H 0.97302 0.45536 0.40809 0.0
H467 H 0.98004 0.4199 0.38976 0.0
C468 C 0.03612 0.7888 0.14862 0.0
C469 C 0.01598 0.77847 0.15814 0.0
C470 C 0.03503 0.80937 0.13825 0.0
C471 C 0.99547 0.848 0.11231 0.0
H472 H 0.04237 0.89205 0.12762 0.0
C473 C 0.98904 0.94028 0.08855 0.0
C474 C 0.00967 0.95234 0.08312 0.0
C475 C 0.98974 0.91853 0.09626 0.0
C476 C 0.02935 0.87988 0.12283 0.0
H477 H 0.97873 0.7815 0.16363 0.0
H478 H 0.97683 0.8175 0.14535 0.0
H479 H 0.04346 0.8552 0.1436 0.0
H480 H 0.0473 0.95044 0.08113 0.0
H481 H 0.04848 0.9124 0.09383 0.0
H482 H 0.98143 0.87266 0.09141 0.0
C483 C 0.99347 0.80957 0.14594 0.0
C484 C 0.02994 0.85874 0.13208 0.0
C485 C 0.99457 0.78899 0.15648 0.0
C486 C 0.03102 0.94177 0.08498 0.0
C487 C 0.03171 0.91996 0.09259 0.0
C488 C 0.99496 0.86914 0.10292 0.0
C489 C 0.01376 0.82012 0.13699 0.0
C490 C 0.013 0.84255 0.12696 0.0
C491 C 0.01109 0.90815 0.09865 0.0
C492 C 0.01188 0.88539 0.10809 0.0
H493 H 0.05291 0.7812 0.1495 0.0
H494 H 0.05092 0.8169 0.13123 0.0
H495 H 0.98232 0.83582 0.10786 0.0
H496 H 0.97224 0.94767 0.08702 0.0
H497 H 0.9735 0.91009 0.10092 0.0
C498 C 0.01721 0.67358 0.13106 0.0
C499 C 0.03959 0.67938 0.13804 0.0
C500 C 0.01382 0.65584 0.11644 0.0
C501 C 0.04052 0.60335 0.10155 0.0
H502 H 0.98776 0.59853 0.06309 0.0
C503 C 0.98233 0.53312 0.05099 0.0
C504 C 0.98082 0.51709 0.06798 0.0
C505 C 0.99365 0.55347 0.05463 0.0
C506 C 1.00286 0.59959 0.07338 0.0
H507 H 0.07621 0.67209 0.13386 0.0
H508 H 0.07031 0.64111 0.10799 0.0
H509 H 1.00068 0.63475 0.0763 0.0
H510 H 0.99037 0.50967 0.10195 0.0
H511 H 0.00947 0.54516 0.10847 0.0
H512 H 0.04259 0.56819 0.09878 0.0
C513 C 0.05533 0.65011 0.1142 0.0
C514 C 0.01011 0.62036 0.08117 0.0
C515 C 0.05873 0.66792 0.12893 0.0
C516 C 0.99121 0.52165 0.08849 0.0
C517 C 1.00241 0.54196 0.09215 0.0
C518 C 0.03339 0.58261 0.09362 0.0
C519 C 0.03275 0.64347 0.10833 0.0
C520 C 0.0284 0.62238 0.09611 0.0
C521 C 1.00364 0.55819 0.07534 0.0
C522 C 0.01387 0.5804 0.08022 0.0
H523 H 1.00207 0.68214 0.13763 0.0
H524 H 0.99616 0.65108 0.11258 0.0
H525 H 0.05461 0.60422 0.11308 0.0
H526 H 0.97461 0.53004 0.03493 0.0
H527 H 0.99446 0.56554 0.04126 0.0
C528 C 0.35875 0.01299 0.18084 0.0
C529 C 0.34814 0.03136 0.19116 0.0
C530 C 0.37218 0.01538 0.16095 0.0
C531 C 0.37784 0.05135 0.11172 0.0
H532 H 0.43422 0.01924 0.09808 0.0
C533 C 0.43049 0.06574 0.02931 0.0
C534 C 0.4401 0.04742 0.01804 0.0
C535 C 0.42082 0.06373 0.05102 0.0
C536 C 0.41835 0.02812 0.10153 0.0
H537 H 0.34428 0.06686 0.18914 0.0
H538 H 0.36785 0.07105 0.15441 0.0
H539 H 0.41545 0.0165 0.13548 0.0
H540 H 0.44737 0.01259 0.02098 0.0
H541 H 0.42995 0.0089 0.05895 0.0
H542 H 0.38032 0.06263 0.07783 0.0
C543 C 0.36551 0.05473 0.16163 0.0
C544 C 0.40765 0.02662 0.12299 0.0
C545 C 0.35216 0.05236 0.18163 0.0
C546 C 0.44009 0.02701 0.0292 0.0
C547 C 0.43022 0.02495 0.051 0.0
C548 C 0.38843 0.05275 0.0903 0.0
C549 C 0.37526 0.03619 0.15081 0.0
C550 C 0.3873 0.03828 0.12835 0.0
C551 C 0.42026 0.04328 0.06209 0.0
C552 C 0.40889 0.04124 0.08491 0.0
H553 H 0.35607 0.99656 0.18774 0.0
H554 H 0.37931 1.00075 0.15301 0.0
H555 H 0.36189 0.06013 0.1151 0.0
H556 H 0.43041 0.0818 0.02138 0.0
H557 H 0.41383 0.07832 0.05916 0.0
C558 C 0.64102 0.4704 0.22375 0.0
C559 C 0.65826 0.45544 0.22901 0.0
C560 C 0.6293 0.46827 0.20379 0.0
C561 C 0.6171 0.43287 0.15462 0.0
H562 H 0.61855 0.48933 0.12406 0.0
C563 C 0.59761 0.44393 0.05984 0.0
C564 C 0.58661 0.46347 0.05398 0.0
C565 C 0.60405 0.44055 0.082 0.0
C566 C 0.61758 0.47347 0.13242 0.0
H567 H 0.67552 0.42551 0.21834 0.0
H568 H 0.65504 0.42185 0.18305 0.0
H569 H 0.63303 0.48707 0.16157 0.0
H570 H 0.57211 0.49389 0.06688 0.0
H571 H 0.5827 0.48786 0.10546 0.0
H572 H 0.60164 0.41935 0.12513 0.0
C573 C 0.65055 0.43517 0.19453 0.0
C574 C 0.62595 0.47217 0.15398 0.0
C575 C 0.66225 0.43723 0.21472 0.0
C576 C 0.58101 0.47892 0.07086 0.0
C577 C 0.58717 0.47547 0.09294 0.0
C578 C 0.60854 0.4342 0.13292 0.0
C579 C 0.63469 0.45124 0.18846 0.0
C580 C 0.62563 0.45195 0.16545 0.0
C581 C 0.59941 0.45659 0.0987 0.0
C582 C 0.60851 0.4546 0.12166 0.0
H583 H 0.63735 0.48445 0.23458 0.0
H584 H 0.61674 0.4806 0.19986 0.0
H585 H 0.61669 0.41705 0.16304 0.0
H586 H 0.6022 0.4318 0.04711 0.0
H587 H 0.61353 0.42587 0.08581 0.0
C588 C 0.34841 0.0076 0.30042 0.0
C589 C 0.33814 0.98916 0.28982 0.0
C590 C 0.35892 0.00548 0.32101 0.0
C591 C 0.35954 0.96973 0.37105 0.0
H592 H 0.4164 0.00278 0.38264 0.0
C593 C 0.43686 0.97014 0.43842 0.0
C594 C 0.424 0.96829 0.45884 0.0
C595 C 0.42593 0.97457 0.4185 0.0
C596 C 0.40053 0.99341 0.3797 0.0
H597 H 0.33134 0.95387 0.29251 0.0
H598 H 0.35004 0.95008 0.32849 0.0
H599 H 0.39935 0.00512 0.34599 0.0
H600 H 0.38964 0.97038 0.47455 0.0
H601 H 0.37028 0.97835 0.43951 0.0
H602 H 0.36111 0.95762 0.40469 0.0
C603 C 0.34965 0.96627 0.32089 0.0
C604 C 0.39064 0.99488 0.35871 0.0
C605 C 0.33915 0.96839 0.30015 0.0
C606 C 0.39997 0.9719 0.45907 0.0
C607 C 0.38891 0.97617 0.43898 0.0
C608 C 0.36943 0.9683 0.39212 0.0
C609 C 0.35948 0.98485 0.33167 0.0
C610 C 0.37008 0.98298 0.35404 0.0
C611 C 0.40175 0.97719 0.41839 0.0
C612 C 0.39016 0.98 0.39665 0.0
H613 H 0.34792 0.02389 0.29304 0.0
H614 H 0.36605 0.02019 0.32889 0.0
H615 H 0.34353 0.96057 0.36815 0.0
H616 H 0.45542 0.96753 0.4378 0.0
H617 H 0.43638 0.97503 0.40301 0.0
C618 C 0.64158 0.48329 0.33039 0.0
C619 C 0.65375 0.50215 0.32216 0.0
C620 C 0.62736 0.48444 0.34987 0.0
C621 C 0.59886 0.52408 0.39003 0.0
H622 H 0.59862 0.47382 0.43009 0.0
C623 C 0.54528 0.5257 0.47328 0.0
C624 C 0.5558 0.51726 0.49215 0.0
C625 C 0.55439 0.52132 0.45167 0.0
C626 C 0.59856 0.48808 0.41921 0.0
H627 H 0.66017 0.53713 0.32776 0.0
H628 H 0.63593 0.53909 0.36215 0.0
H629 H 0.6205 0.47239 0.39449 0.0
H630 H 0.5838 0.49751 0.50351 0.0
H631 H 0.60015 0.49009 0.46586 0.0
H632 H 0.57806 0.54027 0.41528 0.0
C633 C 0.63689 0.52344 0.35329 0.0
C634 C 0.61088 0.48715 0.39854 0.0
C635 C 0.65089 0.52234 0.33357 0.0
C636 C 0.57504 0.50365 0.48911 0.0
C637 C 0.58441 0.49951 0.46749 0.0
C638 C 0.58674 0.5251 0.41079 0.0
C639 C 0.62516 0.50441 0.36191 0.0
C640 C 0.61132 0.50518 0.38366 0.0
C641 C 0.57464 0.50888 0.44848 0.0
C642 C 0.58648 0.50715 0.42577 0.0
H643 H 0.64322 0.4675 0.32187 0.0
H644 H 0.6182 0.46955 0.35554 0.0
H645 H 0.59845 0.5382 0.37899 0.0
H646 H 0.53065 0.53658 0.47533 0.0
H647 H 0.546 0.5284 0.43753 0.0
C648 C 0.1843 0.38765 0.0206 0.0
C649 C 0.19448 0.38186 0.99963 0.0
C650 C 0.16173 0.39561 0.0222 0.0
C651 C 0.11443 0.42136 0.994 0.0
H652 H 0.07527 0.38557 0.03453 0.0
C653 C 0.01529 0.43737 0.01115 0.0
C654 C 0.00761 0.43542 0.03375 0.0
C655 C 0.03766 0.43056 1.00423 0.0
C656 C 0.08593 0.39592 0.02331 0.0
H657 H 0.18943 0.38155 0.96372 0.0
H658 H 0.14996 0.39604 0.96662 0.0
H659 H 0.11586 0.37642 0.02807 0.0
H660 H 0.01756 0.42481 0.06674 0.0
H661 H 0.05601 0.41357 0.05494 0.0
H662 H 0.08458 0.44141 0.98995 0.0
C663 C 0.15953 0.39409 0.98177 0.0
C664 C 0.1092 0.3906 0.01957 0.0
C665 C 0.18212 0.38581 0.98014 0.0
C666 C 0.02268 0.42645 0.04914 0.0
C667 C 0.04484 0.4198 0.04231 0.0
C668 C 0.09107 0.42693 0.99801 0.0
C669 C 0.14886 0.39828 1.00289 0.0
C670 C 0.12381 0.40348 0.00526 0.0
C671 C 0.0527 0.42166 0.01979 0.0
C672 C 0.07668 0.41454 0.01315 0.0
H673 H 0.19325 0.38492 0.03597 0.0
H674 H 0.15399 0.39899 0.03868 0.0
H675 H 0.12535 0.43149 0.9828 0.0
H676 H 1.00415 0.44429 0.99888 0.0
H677 H 0.0431 0.43214 0.98672 0.0
C678 C 0.19435 0.64274 0.49941 0.0
C679 C 0.19899 0.65247 0.52029 0.0
C680 C 0.17353 0.63112 0.49622 0.0
C681 C 0.11309 0.62783 0.51784 0.0
H682 H 0.11014 0.57665 0.47846 0.0
C683 C 0.02842 0.59877 0.47624 0.0
C684 C 0.02425 0.57592 0.47377 0.0
C685 C 0.04957 0.6068 0.48422 0.0
C686 C 0.1106 0.59076 0.48972 0.0
H687 H 0.1857 0.65687 0.55451 0.0
H688 H 0.14919 0.63632 0.54895 0.0
H689 H 0.14778 0.59154 0.48918 0.0
H690 H 0.03888 0.54355 0.47824 0.0
H691 H 0.07555 0.55754 0.49235 0.0
H692 H 0.07585 0.627 0.51839 0.0
C693 C 0.16168 0.63795 0.53498 0.0
C694 C 0.13221 0.59944 0.49569 0.0
C695 C 0.18266 0.64956 0.53822 0.0
C696 C 0.04157 0.56128 0.47975 0.0
C697 C 0.06267 0.56929 0.48777 0.0
C698 C 0.09143 0.61914 0.51187 0.0
C699 C 0.15673 0.62891 0.51382 0.0
C700 C 0.13374 0.61829 0.50952 0.0
C701 C 0.06701 0.59216 0.48996 0.0
C702 C 0.08993 0.60069 0.49747 0.0
H703 H 0.20655 0.64462 0.48523 0.0
H704 H 0.17022 0.62461 0.47964 0.0
H705 H 0.11364 0.64249 0.52836 0.0
H706 H 0.01544 0.61049 0.47176 0.0
H707 H 0.05245 0.62452 0.4854 0.0
C708 C 0.82665 0.88975 0.52442 0.0
C709 C 0.82074 0.87516 0.5421 0.0
C710 C 0.84931 0.89838 0.52164 0.0
C711 C 0.90828 0.88243 0.52974 0.0
H712 H 0.92505 0.9433 0.51521 0.0
C713 C 0.99153 0.90962 0.47915 0.0
C714 C 1.00483 0.92717 0.48798 0.0
C715 C 0.96996 0.90361 0.4891 0.0
C716 C 0.92062 0.92629 0.51945 0.0
H717 H 0.83375 0.85889 0.57126 0.0
H718 H 0.87352 0.87364 0.56606 0.0
H719 H 0.88487 0.93358 0.52718 0.0
H720 H 0.00603 0.9521 0.51424 0.0
H721 H 0.96786 0.94194 0.53127 0.0
H722 H 0.94373 0.87495 0.521 0.0
C723 C 0.86051 0.87848 0.5545 0.0
C724 C 0.89768 0.92073 0.52618 0.0
C725 C 0.83772 0.87018 0.55754 0.0
C726 C 0.99622 0.93843 0.50715 0.0
C727 C 0.97438 0.93271 0.51681 0.0
C728 C 0.93108 0.88791 0.52259 0.0
C729 C 0.86661 0.89229 0.53625 0.0
C730 C 0.89126 0.89871 0.5312 0.0
C731 C 0.96103 0.91532 0.5078 0.0
C732 C 0.9374 0.90984 0.51717 0.0
H733 H 0.81395 0.89391 0.51226 0.0
H734 H 0.85359 0.90889 0.50736 0.0
H735 H 0.90374 0.86529 0.53328 0.0
H736 H 0.99772 0.90064 0.46441 0.0
H737 H 0.95992 0.89023 0.48174 0.0
C738 C 0.32313 0.64906 0.48175 0.0
C739 C 0.30922 0.6534 0.50111 0.0
C740 C 0.34354 0.63694 0.48315 0.0
C741 C 0.37461 0.5998 0.52144 0.0
H742 H 0.42955 0.61985 0.48718 0.0
C743 C 0.46231 0.55669 0.52961 0.0
C744 C 0.48249 0.57023 0.52978 0.0
C745 C 0.44106 0.56527 0.5236 0.0
C746 C 0.41443 0.6141 0.49701 0.0
H747 H 0.30574 0.64792 0.53705 0.0
H748 H 0.34112 0.62738 0.53952 0.0
H749 H 0.39251 0.63737 0.48171 0.0
H750 H 0.49614 0.6034 0.52344 0.0
H751 H 0.45904 0.61853 0.51363 0.0
H752 H 0.39661 0.57735 0.53759 0.0
C753 C 0.33623 0.63289 0.52314 0.0
C754 C 0.39305 0.62395 0.49361 0.0
C755 C 0.3159 0.64487 0.52173 0.0
C756 C 0.48096 0.59248 0.52342 0.0
C757 C 0.45964 0.60112 0.51763 0.0
C758 C 0.39598 0.59009 0.52496 0.0
C759 C 0.3505 0.6289 0.50395 0.0
C760 C 0.37289 0.61716 0.50603 0.0
C761 C 0.43931 0.5877 0.51783 0.0
C762 C 0.41628 0.59725 0.513 0.0
H763 H 0.31852 0.65537 0.46559 0.0
H764 H 0.35391 0.63397 0.46795 0.0
H765 H 0.35945 0.59382 0.53107 0.0
H766 H 0.4629 0.53943 0.53424 0.0
H767 H 0.42596 0.55426 0.52354 0.0
C768 C 0.47204 0.6604 0.87323 0.0
C769 C 0.4913 0.67378 0.86642 0.0
C770 C 0.47516 0.64063 0.88475 0.0
C771 C 0.51875 0.60906 0.91555 0.0
H772 H 0.48397 0.55783 0.89454 0.0
C773 C 0.52722 0.50837 0.91261 0.0
C774 C 0.53463 0.50448 0.93441 0.0
C775 C 0.5194 0.52917 0.90669 0.0
C776 C 0.49389 0.57195 0.90056 0.0
H777 H 0.52887 0.67728 0.8673 0.0
H778 H 0.53428 0.64293 0.88704 0.0
H779 H 0.47539 0.59439 0.88057 0.0
H780 H 0.53894 0.51928 0.96729 0.0
H781 H 0.52495 0.55546 0.95705 0.0
H782 H 0.53799 0.58654 0.93472 0.0
C783 C 0.51673 0.64771 0.88374 0.0
C784 C 0.48874 0.59299 0.89278 0.0
C785 C 0.51362 0.66741 0.87226 0.0
C786 C 0.53346 0.52173 0.95031 0.0
C787 C 0.52557 0.54253 0.9444 0.0
C788 C 0.52393 0.58803 0.92329 0.0
C789 C 0.49761 0.63382 0.88975 0.0
C790 C 0.50139 0.61178 0.89987 0.0
C791 C 0.5187 0.54661 0.92243 0.0
C792 C 0.51183 0.56915 0.91561 0.0
H793 H 0.45461 0.66482 0.86904 0.0
H794 H 0.46002 0.63049 0.88941 0.0
H795 H 0.52864 0.62319 0.9216 0.0
H796 H 0.52794 0.49547 0.89993 0.0
H797 H 0.51457 0.53175 0.88953 0.0
C798 C 0.4888 0.79025 0.86294 0.0
C799 C 0.51017 0.7804 0.85746 0.0
C800 C 0.48802 0.81119 0.87287 0.0
C801 C 0.52443 0.86199 0.88211 0.0
H802 H 0.47271 0.87691 0.92253 0.0
C803 C 0.51938 0.94313 0.93468 0.0
C804 C 0.49833 0.95444 0.93443 0.0
C805 C 0.52139 0.92225 0.92468 0.0
C806 C 0.48715 0.87303 0.91112 0.0
H807 H 0.54756 0.78472 0.85875 0.0
H808 H 0.54626 0.821 0.87701 0.0
H809 H 0.47582 0.83931 0.9081 0.0
H810 H 0.46296 0.95288 0.92336 0.0
H811 H 0.46629 0.91603 0.90618 0.0
H812 H 0.53604 0.89575 0.88591 0.0
C813 C 0.53003 0.81276 0.87301 0.0
C814 C 0.48895 0.85145 0.90275 0.0
C815 C 0.53081 0.79184 0.86273 0.0
C816 C 0.4794 0.94457 0.92367 0.0
C817 C 0.48127 0.92347 0.91402 0.0
C818 C 0.52282 0.8835 0.89081 0.0
C819 C 0.50859 0.82287 0.87799 0.0
C820 C 0.50748 0.84564 0.88791 0.0
C821 C 0.50226 0.91205 0.91455 0.0
C822 C 0.50404 0.88928 0.90523 0.0
H823 H 0.47252 0.78209 0.8589 0.0
H824 H 0.47117 0.81845 0.87591 0.0
H825 H 0.53874 0.85837 0.87047 0.0
H826 H 0.5343 0.95045 0.94269 0.0
H827 H 0.53774 0.91382 0.92542 0.0
C828 C 0.53148 0.28369 0.64623 0.0
C829 C 0.51109 0.27375 0.65569 0.0
C830 C 0.53093 0.30445 0.63619 0.0
C831 C 0.49239 0.34455 0.61117 0.0
H832 H 0.54015 0.38732 0.62756 0.0
C833 C 0.48678 0.43761 0.59142 0.0
C834 C 0.50742 0.44978 0.58634 0.0
C835 C 0.48745 0.41553 0.59803 0.0
C836 C 0.52691 0.37552 0.62246 0.0
H837 H 0.47399 0.27765 0.66142 0.0
H838 H 0.47304 0.31399 0.64372 0.0
H839 H 0.54058 0.34998 0.64247 0.0
H840 H 0.545 0.44781 0.58368 0.0
H841 H 0.54614 0.40912 0.59455 0.0
H842 H 0.47875 0.37006 0.59108 0.0
C843 C 0.48943 0.30561 0.64409 0.0
C844 C 0.52712 0.3541 0.63109 0.0
C845 C 0.49 0.28483 0.6543 0.0
C846 C 0.52874 0.43901 0.58735 0.0
C847 C 0.52941 0.41685 0.59387 0.0
C848 C 0.49227 0.36596 0.6024 0.0
C849 C 0.50998 0.31577 0.63522 0.0
C850 C 0.50981 0.3384 0.62564 0.0
C851 C 0.50877 0.40491 0.59962 0.0
C852 C 0.50946 0.38177 0.60804 0.0
H853 H 0.54804 0.27563 0.64691 0.0
H854 H 0.54699 0.31169 0.62922 0.0
H855 H 0.47899 0.33274 0.60645 0.0
H856 H 0.47 0.44516 0.59047 0.0
H857 H 0.4712 0.40699 0.6025 0.0
C858 C 0.55158 0.16421 0.62367 0.0
C859 C 0.53247 0.17486 0.63388 0.0
C860 C 0.54812 0.14682 0.60846 0.0
C861 C 0.53425 0.1 0.59585 0.0
H862 H 0.47982 0.09346 0.5597 0.0
C863 C 0.48524 0.01815 0.58812 0.0
C864 C 0.47584 0.01158 0.56764 0.0
C865 C 0.49569 0.03895 0.59048 0.0
C866 C 0.49537 0.09508 0.56933 0.0
H867 H 0.49483 0.17675 0.63484 0.0
H868 H 0.48881 0.14633 0.60896 0.0
H869 H 0.49231 0.1302 0.57229 0.0
H870 H 0.47006 0.02176 0.53351 0.0
H871 H 0.48825 0.05858 0.5378 0.0
H872 H 0.53697 0.06488 0.59337 0.0
C873 C 0.5065 0.15143 0.61234 0.0
C874 C 0.50239 0.1161 0.57674 0.0
C875 C 0.50996 0.16878 0.62744 0.0
C876 C 0.47714 0.02637 0.54951 0.0
C877 C 0.48752 0.0474 0.55195 0.0
C878 C 0.52728 0.07906 0.58838 0.0
C879 C 0.52548 0.13976 0.60321 0.0
C880 C 0.5213 0.11866 0.59092 0.0
C881 C 0.49699 0.05383 0.57247 0.0
C882 C 0.50716 0.07628 0.57594 0.0
H883 H 0.56917 0.16866 0.62811 0.0
H884 H 0.56314 0.13839 0.60145 0.0
H885 H 0.54882 0.10125 0.6068 0.0
H886 H 0.48456 0.00721 0.60246 0.0
H887 H 0.50234 0.04357 0.60666 0.0
C888 C 0.8608 0.50474 0.67716 0.0
C889 C 0.84983 0.52248 0.68821 0.0
C890 C 0.87362 0.50803 0.65705 0.0
C891 C 0.90103 0.55111 0.61958 0.0
H892 H 0.89238 0.50597 0.57395 0.0
C893 C 0.92795 0.56379 0.52572 0.0
C894 C 0.9383 0.54597 0.51419 0.0
C895 C 0.91872 0.56119 0.54762 0.0
C896 C 0.89524 0.5186 0.58657 0.0
H897 H 0.84445 0.5578 0.68716 0.0
H898 H 0.86652 0.56353 0.65178 0.0
H899 H 0.87386 0.50123 0.61098 0.0
H900 H 0.94731 0.51149 0.51682 0.0
H901 H 0.93115 0.50695 0.55501 0.0
H902 H 0.92206 0.56866 0.59481 0.0
C903 C 0.86547 0.54707 0.65884 0.0
C904 C 0.88464 0.51588 0.60788 0.0
C905 C 0.85277 0.54379 0.67912 0.0
C906 C 0.93939 0.52554 0.52517 0.0
C907 C 0.93004 0.52291 0.54703 0.0
C908 C 0.91154 0.55389 0.59817 0.0
C909 C 0.87565 0.52912 0.64729 0.0
C910 C 0.88739 0.53207 0.62471 0.0
C911 C 0.91949 0.54067 0.55848 0.0
C912 C 0.90876 0.53765 0.58141 0.0
H913 H 0.8591 0.48813 0.68381 0.0
H914 H 0.88169 0.49391 0.64899 0.0
H915 H 0.90378 0.5638 0.63217 0.0
H916 H 0.92681 0.57977 0.51779 0.0
H917 H 0.91051 0.57514 0.55586 0.0
C918 C 0.14459 0.96685 0.72747 0.0
C919 C 0.16297 0.95261 0.73106 0.0
C920 C 0.13227 0.96534 0.70784 0.0
C921 C 0.12064 0.93365 0.65637 0.0
H922 H 0.12361 0.99184 0.62931 0.0
C923 C 0.10327 0.94915 0.56231 0.0
C924 C 0.0931 0.9692 0.55679 0.0
C925 C 0.10931 0.94502 0.5844 0.0
C926 C 0.12215 0.97554 0.63669 0.0
H927 H 0.18156 0.9243 0.71798 0.0
H928 H 0.15992 0.92168 0.68328 0.0
H929 H 0.13702 0.98712 0.66696 0.0
H930 H 0.07998 1.00001 0.57011 0.0
H931 H 0.08975 0.99265 0.6087 0.0
H932 H 0.10562 0.92212 0.62592 0.0
C933 C 0.15503 0.93394 0.6958 0.0
C934 C 0.12993 0.97283 0.6583 0.0
C935 C 0.16736 0.93539 0.71565 0.0
C936 C 0.08823 0.98463 0.57387 0.0
C937 C 0.09392 0.98039 0.59595 0.0
C938 C 0.11255 0.93641 0.63468 0.0
C939 C 0.1382 0.94965 0.69127 0.0
C940 C 0.1292 0.95192 0.66844 0.0
C941 C 0.10503 0.96076 0.60145 0.0
C942 C 0.11317 0.95744 0.6246 0.0
H943 H 0.14071 0.98013 0.73922 0.0
H944 H 0.11905 0.97735 0.70498 0.0
H945 H 0.11996 0.91734 0.6638 0.0
H946 H 0.10734 0.93703 0.5494 0.0
H947 H 0.11804 0.92983 0.58793 0.0
C948 C 0.86086 0.48716 0.79002 0.0
C949 C 0.84613 0.47085 0.78091 0.0
C950 C 0.87284 0.48311 0.80947 0.0
C951 C 0.86854 0.44988 0.86074 0.0
H952 H 0.92987 0.47542 0.86994 0.0
C953 C 0.91061 0.45047 0.94817 0.0
C954 C 0.92 0.47118 0.95443 0.0
C955 C 0.90433 0.44644 0.92593 0.0
C956 C 0.91272 0.4682 0.86769 0.0
H957 H 0.83304 0.43715 0.78478 0.0
H958 H 0.85403 0.43005 0.81898 0.0
H959 H 0.91416 0.47535 0.83252 0.0
H960 H 0.93128 0.5034 0.94204 0.0
H961 H 0.92038 0.49652 0.9036 0.0
H962 H 0.86682 0.44342 0.89611 0.0
C963 C 0.85621 0.44603 0.81099 0.0
C964 C 0.90371 0.46815 0.84621 0.0
C965 C 0.84435 0.45003 0.7913 0.0
C966 C 0.92385 0.48738 0.93783 0.0
C967 C 0.91781 0.48332 0.91569 0.0
C968 C 0.87756 0.44995 0.88228 0.0
C969 C 0.87032 0.46267 0.82051 0.0
C970 C 0.88124 0.45958 0.84257 0.0
C971 C 0.90765 0.46294 0.90946 0.0
C972 C 0.8995 0.45971 0.88614 0.0
H973 H 0.86264 0.50339 0.78248 0.0
H974 H 0.88331 0.49641 0.81641 0.0
H975 H 0.8511 0.44329 0.8586 0.0
H976 H 0.90735 0.43771 0.96062 0.0
H977 H 0.89669 0.4305 0.92167 0.0
C978 C 0.15939 0.02294 0.83163 0.0
C979 C 0.16126 0.00283 0.8199 0.0
C980 C 0.14495 0.02445 0.85103 0.0
C981 C 0.1147 0.98863 0.89456 0.0
H982 H 0.08602 0.04368 0.91202 0.0
C983 C 0.07649 0.00442 0.98442 0.0
C984 C 0.0589 0.01991 0.98739 0.0
C985 C 0.08628 1.00029 0.96296 0.0
C986 C 0.09348 0.02799 0.90731 0.0
H987 H 0.14857 0.96885 0.81859 0.0
H988 H 0.12269 0.97168 0.85156 0.0
H989 H 0.1074 0.04122 0.87634 0.0
H990 H 0.03685 0.04241 0.97051 0.0
H991 H 0.05265 0.03419 0.93293 0.0
H992 H 0.10006 0.97517 0.92517 0.0
C993 C 0.13299 0.98612 0.84651 0.0
C994 C 0.10622 0.02672 0.8869 0.0
C995 C 0.14771 0.98454 0.82742 0.0
C996 C 0.05022 0.03016 0.96852 0.0
C997 C 0.05963 0.02573 0.94705 0.0
C998 C 0.10167 0.9898 0.91482 0.0
C999 C 0.13173 0.00596 0.85893 0.0
C1000 C 0.11725 0.00709 0.88029 0.0
C1001 C 0.07849 0.01145 0.94402 0.0
C1002 C 0.09105 0.00957 0.92165 0.0
H1003 H 0.16976 0.03728 0.82634 0.0
H1004 H 0.14478 0.03995 0.86019 0.0
H1005 H 0.12317 0.97327 0.89036 0.0
H1006 H 0.08386 0.99679 0.99885 0.0
H1007 H 0.10091 0.98938 0.9615 0.0
C1008 C 0.69222 0.87635 0.54931 0.0
C1009 C 0.70549 0.88004 0.52938 0.0
C1010 C 0.66986 0.8846 0.55205 0.0
C1011 C 0.62157 0.90723 0.51927 0.0
H1012 H 0.59536 0.91655 0.57924 0.0
C1013 C 0.52264 0.91934 0.535 0.0
C1014 C 0.51503 0.93121 0.55408 0.0
C1015 C 0.5462 0.91443 0.53165 0.0
C1016 C 0.60229 0.91453 0.56226 0.0
H1017 H 0.70603 0.89615 0.49703 0.0
H1018 H 0.6675 0.91191 0.50234 0.0
H1019 H 0.63591 0.9084 0.57424 0.0
H1020 H 0.52606 0.94816 0.58407 0.0
H1021 H 0.56705 0.94112 0.57763 0.0
H1022 H 0.58825 0.91497 0.50723 0.0
C1023 C 0.67395 0.90181 0.51557 0.0
C1024 C 0.62571 0.90928 0.5594 0.0
C1025 C 0.69621 0.89303 0.51259 0.0
C1026 C 0.53142 0.93857 0.56943 0.0
C1027 C 0.55501 0.93434 0.56575 0.0
C1028 C 0.59824 0.91314 0.5221 0.0
C1029 C 0.66021 0.89735 0.5352 0.0
C1030 C 0.63568 0.90505 0.53791 0.0
C1031 C 0.56284 0.92191 0.54696 0.0
C1032 C 0.58807 0.91654 0.54368 0.0
H1033 H 0.69863 0.86608 0.56245 0.0
H1034 H 0.6599 0.88015 0.56717 0.0
H1035 H 0.6283 0.90392 0.50243 0.0
H1036 H 0.51029 0.91347 0.5229 0.0
H1037 H 0.55119 0.90447 0.51721 0.0
C1038 C 0.6833 0.15727 0.03857 0.0
C1039 C 0.70297 0.15275 0.02483 0.0
C1040 C 0.66215 0.14609 0.03514 0.0
C1041 C 0.63272 0.11452 0.98994 0.0
H1042 H 0.58393 0.1062 0.03592 0.0
C1043 C 0.54718 0.06618 0.97495 0.0
C1044 C 0.52692 0.07828 0.97923 0.0
C1045 C 0.56864 0.07415 0.9821 0.0
C1046 C 0.59745 0.1085 0.02296 0.0
H1047 H 0.71661 0.1319 0.99805 0.0
H1048 H 0.68033 0.11133 0.99306 0.0
H1049 H 0.6222 0.12038 0.04636 0.0
H1050 H 0.51313 0.10788 0.99492 0.0
H1051 H 0.5508 0.12155 0.00799 0.0
H1052 H 0.60805 0.10199 0.96673 0.0
C1053 C 0.68068 0.12424 0.00571 0.0
C1054 C 0.61936 0.11671 0.02887 0.0
C1055 C 0.70161 0.1358 0.00875 0.0
C1056 C 0.52847 0.09827 0.99131 0.0
C1057 C 0.54993 0.10601 0.99889 0.0
C1058 C 0.61105 0.10591 0.98417 0.0
C1059 C 0.66037 0.12985 0.01819 0.0
C1060 C 0.6373 0.11997 0.01239 0.0
C1061 C 0.57021 0.09413 0.99408 0.0
C1062 C 0.59319 0.10296 1.00057 0.0
H1063 H 0.68385 0.17045 0.05093 0.0
H1064 H 0.64698 0.1511 0.045 0.0
H1065 H 0.64569 0.11735 0.97658 0.0
H1066 H 0.54656 0.05074 0.96565 0.0
H1067 H 0.58405 0.06469 0.97825 0.0
C1068 C 0.32357 0.3824 0.03213 0.0
C1069 C 0.31024 0.37641 0.01361 0.0
C1070 C 0.34683 0.38949 0.02899 0.0
C1071 C 0.39599 0.38205 0.98934 0.0
H1072 H 0.42452 0.4334 0.01734 0.0
C1073 C 0.48513 0.41561 0.95853 0.0
C1074 C 0.50073 0.42459 0.97393 0.0
C1075 C 0.46245 0.40956 0.96533 0.0
C1076 C 0.41692 0.41879 0.00968 0.0
H1077 H 0.3107 0.37428 0.97722 0.0
H1078 H 0.35107 0.38649 0.97187 0.0
H1079 H 0.38338 0.42426 0.02556 0.0
H1080 H 0.50465 0.43408 0.00874 0.0
H1081 H 0.46489 0.42304 0.02082 0.0
H1082 H 0.42924 0.37625 0.97366 0.0
C1083 C 0.34362 0.38551 0.98881 0.0
C1084 C 0.39334 0.41364 0.01433 0.0
C1085 C 0.3204 0.37865 0.9919 0.0
C1086 C 0.49308 0.42717 0.99646 0.0
C1087 C 0.47025 0.42099 1.00334 0.0
C1088 C 0.41949 0.38703 0.98489 0.0
C1089 C 0.35726 0.39049 0.00731 0.0
C1090 C 0.38254 0.39547 1.00379 0.0
C1091 C 0.45465 0.41212 0.98781 0.0
C1092 C 0.43018 0.40575 0.99457 0.0
H1093 H 0.31629 0.38088 0.04908 0.0
H1094 H 0.35694 0.39325 0.04356 0.0
H1095 H 0.38828 0.36763 0.98139 0.0
H1096 H 0.49027 0.41353 0.94099 0.0
H1097 H 0.45087 0.40327 0.95276 0.0
C1098 C 0.8272 0.15196 0.98194 0.0
C1099 C 0.81325 0.15634 1.00127 0.0
C1100 C 0.84822 0.14083 0.98354 0.0
C1101 C 0.88074 0.10553 0.02215 0.0
H1102 H 0.93498 0.12616 0.98717 0.0
C1103 C 0.96828 0.06185 0.02714 0.0
C1104 C 0.98865 0.07513 0.02748 0.0
C1105 C 0.94702 0.07088 0.02191 0.0
C1106 C 0.92005 0.12027 0.99718 0.0
H1107 H 0.81043 0.15203 0.03741 0.0
H1108 H 0.84681 0.13304 0.04018 0.0
H1109 H 0.89749 0.14315 0.98209 0.0
H1110 H 1.00261 0.10835 0.02216 0.0
H1111 H 0.96538 0.12427 0.01351 0.0
H1112 H 0.90329 0.08328 0.03789 0.0
C1113 C 0.84151 0.13785 0.0237 0.0
C1114 C 0.89844 0.12982 0.99404 0.0
C1115 C 0.8206 0.1489 0.02211 0.0
C1116 C 0.98728 0.09763 0.022 0.0
C1117 C 0.96591 0.10673 0.01692 0.0
C1118 C 0.90229 0.09605 0.02534 0.0
C1119 C 0.85575 0.13379 1.0045 0.0
C1120 C 0.87852 0.12272 0.00666 0.0
C1121 C 0.94541 0.09352 0.01706 0.0
C1122 C 0.92232 0.10335 0.01301 0.0
H1123 H 0.82212 0.15747 0.96563 0.0
H1124 H 0.85858 0.13777 0.96835 0.0
H1125 H 0.86579 0.09938 0.03198 0.0
H1126 H 0.96869 0.04441 0.03107 0.0
H1127 H 0.93179 0.06005 0.02174 0.0
C1128 C 0.04944 0.18329 0.25369 0.0
C1129 C 0.03032 0.18151 0.26895 0.0
C1130 C 0.05147 0.16868 0.23543 0.0
C1131 C 0.01523 0.13064 0.20124 0.0
H1132 H 0.07502 0.11282 0.1761 0.0
C1133 C 0.02526 0.07052 0.12511 0.0
C1134 C 0.04092 0.07808 0.10804 0.0
C1135 C 0.02416 0.0813 0.14601 0.0
C1136 C 0.0582 0.11769 0.18296 0.0
H1137 H 0.99907 0.1623 0.2778 0.0
H1138 H 1.00303 0.13647 0.24658 0.0
H1139 H 0.07328 0.1347 0.21063 0.0
H1140 H 0.06789 0.1027 0.09963 0.0
H1141 H 0.06605 0.12118 0.13593 0.0
H1142 H 1.00023 0.1135 0.17352 0.0
C1143 C 0.01604 0.14955 0.24812 0.0
C1144 C 0.05719 0.13033 0.20268 0.0
C1145 C 0.01386 0.16429 0.26614 0.0
C1146 C 0.05556 0.09644 0.11237 0.0
C1147 C 0.05468 0.10697 0.13324 0.0
C1148 C 0.01624 0.1178 0.18166 0.0
C1149 C 0.03459 0.15181 0.23222 0.0
C1150 C 0.03571 0.13724 0.21193 0.0
C1151 C 0.03896 0.09958 0.15028 0.0
C1152 C 0.03775 0.11147 0.17213 0.0
H1153 H 0.06235 0.19645 0.25537 0.0
H1154 H 0.06587 0.17112 0.22343 0.0
H1155 H 0.99839 0.13594 0.20758 0.0
H1156 H 0.01378 0.05642 0.12228 0.0
H1157 H 0.01191 0.07524 0.1589 0.0
C1158 C 0.95317 0.26761 0.26734 0.0
C1159 C 0.97617 0.26446 0.27364 0.0
C1160 C 0.94821 0.28437 0.25214 0.0
C1161 C 0.97119 0.33803 0.23299 0.0
H1162 H 0.93786 0.32839 0.1783 0.0
C1163 C 0.95479 0.40968 0.17366 0.0
C1164 C 0.96036 0.40597 0.1508 0.0
C1165 C 0.95315 0.39213 0.18874 0.0
C1166 C 0.94717 0.33129 0.19354 0.0
H1167 H 0.01198 0.27616 0.26848 0.0
H1168 H 1.00326 0.3051 0.24252 0.0
H1169 H 0.94144 0.29785 0.20485 0.0
H1170 H 0.96797 0.38067 0.12583 0.0
H1171 H 0.96519 0.34993 0.15227 0.0
H1172 H 0.97756 0.37111 0.22169 0.0
C1173 C 0.98907 0.29481 0.24932 0.0
C1174 C 0.949 0.31391 0.20879 0.0
C1175 C 0.99403 0.27809 0.26417 0.0
C1176 C 0.96356 0.38412 0.14328 0.0
C1177 C 0.96188 0.3665 0.15842 0.0
C1178 C 0.96921 0.35535 0.21794 0.0
C1179 C 0.96615 0.29834 0.24334 0.0
C1180 C 0.96146 0.31706 0.22841 0.0
C1181 C 0.957 0.37038 0.18137 0.0
C1182 C 0.9575 0.35212 0.19788 0.0
H1183 H 0.93906 0.25733 0.27428 0.0
H1184 H 0.93037 0.2868 0.24772 0.0
H1185 H 0.98079 0.34091 0.24807 0.0
H1186 H 0.95158 0.42617 0.17999 0.0
H1187 H 0.94897 0.39561 0.20626 0.0
C1188 C 0.08878 0.77121 0.23546 0.0
C1189 C 0.06872 0.75765 0.2379 0.0
C1190 C 0.09395 0.78694 0.252 0.0
C1191 C 0.08038 0.80318 0.31072 0.0
H1192 H 0.08297 0.86347 0.28882 0.0
C1193 C 0.04947 0.8924 0.34438 0.0
C1194 C 0.05851 0.8928 0.36594 0.0
C1195 C 0.05682 0.87666 0.32857 0.0
C1196 C 0.08246 0.84672 0.29516 0.0
H1197 H 0.03924 0.74871 0.25993 0.0
H1198 H 0.04849 0.77568 0.28889 0.0
H1199 H 0.08589 0.83266 0.26216 0.0
H1200 H 0.08265 0.87718 0.38768 0.0
H1201 H 0.09548 0.84981 0.36006 0.0
H1202 H 0.07574 0.81709 0.34359 0.0
C1203 C 0.06015 0.77439 0.27426 0.0
C1204 C 0.0844 0.82912 0.27995 0.0
C1205 C 0.05476 0.75907 0.25763 0.0
C1206 C 0.07549 0.87748 0.37116 0.0
C1207 C 0.08273 0.86168 0.35541 0.0
C1208 C 0.07863 0.82074 0.32593 0.0
C1209 C 0.07942 0.78887 0.27137 0.0
C1210 C 0.08255 0.8072 0.28756 0.0
C1211 C 0.07324 0.86091 0.33406 0.0
C1212 C 0.07887 0.84266 0.31823 0.0
H1213 H 0.09973 0.77046 0.22031 0.0
H1214 H 0.10892 0.79794 0.24944 0.0
H1215 H 0.07899 0.78641 0.31699 0.0
H1216 H 0.03658 0.90413 0.33981 0.0
H1217 H 0.049 0.87631 0.31232 0.0
C1218 C 0.98956 0.66768 0.24357 0.0
C1219 C 0.01202 0.67478 0.23644 0.0
C1220 C 0.98639 0.65134 0.25999 0.0
C1221 C 0.01742 0.60786 0.29095 0.0
H1222 H 0.96674 0.61591 0.33464 0.0
C1223 C 0.00762 0.56513 0.37875 0.0
C1224 C 0.98487 0.55951 0.38623 0.0
C1225 C 0.0116 0.57557 0.35793 0.0
C1226 C 0.98079 0.6132 0.32241 0.0
H1227 H 0.04881 0.67002 0.24083 0.0
H1228 H 0.04331 0.64209 0.26985 0.0
H1229 H 0.97212 0.64165 0.30376 0.0
H1230 H 0.94868 0.55903 0.37766 0.0
H1231 H 0.95559 0.57661 0.34124 0.0
H1232 H 0.02643 0.57972 0.3104 0.0
C1233 C 0.02808 0.64872 0.26245 0.0
C1234 C 0.98386 0.62798 0.3046 0.0
C1235 C 0.03124 0.6649 0.24587 0.0
C1236 C 0.96642 0.56298 0.37205 0.0
C1237 C 0.97035 0.5733 0.35136 0.0
C1238 C 0.01445 0.59314 0.30899 0.0
C1239 C 0.00561 0.64184 0.26991 0.0
C1240 C 1.00218 0.62555 0.28856 0.0
C1241 C 0.99283 0.58063 0.3445 0.0
C1242 C 0.99603 0.59562 0.32487 0.0
H1243 H 0.97438 0.67479 0.23651 0.0
H1244 H 0.96881 0.64618 0.26491 0.0
H1245 H 0.03157 0.60527 0.27882 0.0
H1246 H 0.02202 0.56307 0.38969 0.0
H1247 H 0.0291 0.5811 0.35314 0.0
C1248 C 0.23934 0.97559 0.186 0.0
C1249 C 0.25359 0.99441 0.18944 0.0
C1250 C 0.22229 0.97572 0.16976 0.0
C1251 C 0.20516 0.00467 0.11863 0.0
H1252 H 0.14197 0.98863 0.13778 0.0
C1253 C 0.12594 0.03547 0.07268 0.0
C1254 C 0.10552 0.0223 0.07238 0.0
C1255 C 0.145 0.02884 0.08464 0.0
C1256 C 0.15955 0.99277 0.13191 0.0
H1257 H 0.26169 0.02778 0.17798 0.0
H1258 H 0.23238 0.02786 0.14966 0.0
H1259 H 0.17371 0.98228 0.16276 0.0
H1260 H 0.08955 0.99127 0.08362 0.0
H1261 H 0.12301 0.97944 0.10403 0.0
H1262 H 0.19114 0.01534 0.08789 0.0
C1263 C 0.23424 0.01303 0.15948 0.0
C1264 C 0.17775 0.98913 0.1463 0.0
C1265 C 0.25095 0.01303 0.17585 0.0
C1266 C 0.10497 1.00189 0.08359 0.0
C1267 C 0.12411 0.99518 0.09545 0.0
C1268 C 0.18702 0.00812 0.10417 0.0
C1269 C 0.21951 0.99452 0.1564 0.0
C1270 C 0.20068 0.99555 0.14003 0.0
C1271 C 0.14425 0.00876 0.0965 0.0
C1272 C 0.16387 0.00273 0.11082 0.0
H1273 H 0.24093 0.96102 0.19625 0.0
H1274 H 0.21122 0.96118 0.16771 0.0
H1275 H 0.22271 0.00948 0.1132 0.0
H1276 H 0.12694 0.05134 0.06433 0.0
H1277 H 0.16 0.03993 0.08527 0.0
C1278 C 0.74992 0.52279 0.20889 0.0
C1279 C 0.74622 0.5031 0.22112 0.0
C1280 C 0.76492 0.52326 0.18968 0.0
C1281 C 0.79099 0.48517 0.14724 0.0
H1282 H 0.84012 0.52957 0.13855 0.0
C1283 C 0.87868 0.46705 0.10573 0.0
C1284 C 0.88756 0.48043 0.0881 0.0
C1285 C 0.85859 0.47273 0.11792 0.0
C1286 C 0.82614 0.51735 0.14047 0.0
H1287 H 0.75609 0.46872 0.22304 0.0
H1288 H 0.78192 0.46965 0.19019 0.0
H1289 H 0.81012 0.53449 0.16849 0.0
H1290 H 0.88235 0.51033 0.06933 0.0
H1291 H 0.84706 0.52082 0.09149 0.0
H1292 H 0.80774 0.46735 0.12029 0.0
C1293 C 0.77298 0.48462 0.19497 0.0
C1294 C 0.80901 0.52013 0.15761 0.0
C1295 C 0.75821 0.48416 0.214 0.0
C1296 C 0.87574 0.49968 0.08276 0.0
C1297 C 0.85573 0.50571 0.09546 0.0
C1298 C 0.80809 0.48235 0.13033 0.0
C1299 C 0.77629 0.50401 0.18233 0.0
C1300 C 0.7918 0.50359 0.16174 0.0
C1301 C 0.84702 0.49219 0.11312 0.0
C1302 C 0.82629 0.49799 0.12729 0.0
H1303 H 0.74098 0.53768 0.21392 0.0
H1304 H 0.76721 0.5385 0.18034 0.0
H1305 H 0.77766 0.47237 0.14961 0.0
H1306 H 0.88736 0.45207 0.11018 0.0
H1307 H 0.85237 0.46211 0.13154 0.0
C1308 C 0.24893 0.04239 0.30228 0.0
C1309 C 0.24849 0.02709 0.28442 0.0
C1310 C 0.23397 0.03934 0.32125 0.0
C1311 C 0.20618 0.99325 0.35132 0.0
H1312 H 0.16291 0.03404 0.37948 0.0
C1313 C 0.12594 0.96346 0.40122 0.0
C1314 C 0.11978 0.9736 0.42178 0.0
C1315 C 0.14406 0.97212 0.38763 0.0
C1316 C 0.17528 0.02265 0.37205 0.0
H1317 H 0.23077 0.99799 0.27137 0.0
H1318 H 0.20477 0.99291 0.30403 0.0
H1319 H 0.18943 0.04683 0.34863 0.0
H1320 H 0.12783 1.00079 0.44428 0.0
H1321 H 0.15967 0.01626 0.42004 0.0
H1322 H 0.19174 0.9689 0.37393 0.0
C1323 C 0.21691 0.00688 0.30376 0.0
C1324 C 0.19036 0.02995 0.35443 0.0
C1325 C 0.23172 0.00987 0.28502 0.0
C1326 C 0.13233 0.99257 0.42857 0.0
C1327 C 0.15038 1.00149 0.41469 0.0
C1328 C 0.19125 0.98603 0.3688 0.0
C1329 C 0.21852 0.02099 0.32243 0.0
C1330 C 0.20528 0.01502 0.34338 0.0
C1331 C 0.1564 0.99127 0.3941 0.0
C1332 C 0.17506 1.00039 0.37879 0.0
H1333 H 0.26179 0.05575 0.30224 0.0
H1334 H 0.2354 0.05051 0.33543 0.0
H1335 H 0.21789 0.98153 0.34339 0.0
H1336 H 0.11662 0.94883 0.39551 0.0
H1337 H 0.14809 0.96405 0.37172 0.0
C1338 C 0.766 0.45965 0.32514 0.0
C1339 C 0.75205 0.47734 0.3193 0.0
C1340 C 0.78361 0.46285 0.34059 0.0
C1341 C 0.80319 0.50128 0.3853 0.0
H1342 H 0.86501 0.48128 0.3688 0.0
C1343 C 0.8858 0.54065 0.42162 0.0
C1344 C 0.90443 0.52695 0.42612 0.0
C1345 C 0.8662 0.53209 0.41112 0.0
C1346 C 0.84779 0.48668 0.37388 0.0
H1347 H 0.74524 0.51205 0.32561 0.0
H1348 H 0.77564 0.51751 0.3522 0.0
H1349 H 0.83227 0.47004 0.34613 0.0
H1350 H 0.91679 0.49335 0.42357 0.0
H1351 H 0.88252 0.47846 0.40539 0.0
H1352 H 0.81873 0.51837 0.41271 0.0
C1353 C 0.77303 0.50116 0.34507 0.0
C1354 C 0.82902 0.4802 0.36089 0.0
C1355 C 0.7557 0.49805 0.32961 0.0
C1356 C 0.90278 0.5044 0.4203 0.0
C1357 C 0.88319 0.49586 0.40976 0.0
C1358 C 0.82192 0.50776 0.39826 0.0
C1359 C 0.78732 0.48369 0.35066 0.0
C1360 C 0.80661 0.48788 0.36615 0.0
C1361 C 0.86476 0.50964 0.40485 0.0
C1362 C 0.84453 0.50095 0.39242 0.0
H1363 H 0.7636 0.44351 0.31749 0.0
H1364 H 0.79431 0.44904 0.34465 0.0
H1365 H 0.78605 0.50715 0.39003 0.0
H1366 H 0.88653 0.55809 0.42584 0.0
H1367 H 0.85244 0.54324 0.40733 0.0
C1368 C 0.18319 0.29675 0.03322 0.0
C1369 C 0.20337 0.30039 0.04538 0.0
C1370 C 0.16789 0.27923 0.03865 0.0
C1371 C 0.13484 0.24314 0.05757 0.0
H1372 H 0.16871 0.18846 0.05398 0.0
C1373 C 0.09599 0.15178 0.05468 0.0
C1374 C 0.10298 0.14132 0.03439 0.0
C1375 C 0.10579 0.17229 0.06071 0.0
C1376 C 0.15905 0.20361 0.05541 0.0
H1377 H 0.22274 0.28942 0.07356 0.0
H1378 H 0.19616 0.25823 0.08274 0.0
H1379 H 0.18994 0.22356 0.05836 0.0
H1380 H 0.12473 0.14521 1.00402 0.0
H1381 H 0.14231 0.18032 0.01504 0.0
H1382 H 0.10401 0.22296 0.05366 0.0
C1383 C 0.19215 0.26913 0.06914 0.0
C1384 C 0.17114 0.22365 0.05806 0.0
C1385 C 0.20729 0.28697 0.06394 0.0
C1386 C 0.11934 0.15231 0.02002 0.0
C1387 C 0.12936 0.1725 0.02624 0.0
C1388 C 0.12269 0.22298 0.05527 0.0
C1389 C 0.17266 0.26477 0.05613 0.0
C1390 C 0.15925 0.24366 0.05838 0.0
C1391 C 0.12295 0.18247 0.04674 0.0
C1392 C 0.13485 0.20319 0.05339 0.0
H1393 H 0.17967 0.30697 0.01893 0.0
H1394 H 0.15315 0.27614 0.0282 0.0
H1395 H 0.1253 0.25836 0.05778 0.0
H1396 H 0.08356 0.1439 0.06628 0.0
H1397 H 0.10059 0.17983 0.0766 0.0
C1398 C 0.20931 0.75084 0.46745 0.0
C1399 C 0.21631 0.74531 0.489 0.0
C1400 C 0.19474 0.7688 0.46446 0.0
C1401 C 0.15446 0.80615 0.49678 0.0
H1402 H 0.16175 0.84287 0.44383 0.0
C1403 C 0.11024 0.89099 0.48838 0.0
C1404 C 0.09933 0.89458 0.46805 0.0
C1405 C 0.12411 0.87249 0.49095 0.0
C1406 C 0.15943 0.83267 0.45866 0.0
H1407 H 0.21403 0.75475 0.52419 0.0
H1408 H 0.18958 0.78618 0.51894 0.0
H1409 H 0.18679 0.81124 0.44788 0.0
H1410 H 0.09452 0.88151 0.43447 0.0
H1411 H 0.11886 0.84955 0.43893 0.0
H1412 H 0.12747 0.82802 0.50774 0.0
C1413 C 0.19451 0.77634 0.50437 0.0
C1414 C 0.1737 0.81444 0.46094 0.0
C1415 C 0.20874 0.75832 0.50737 0.0
C1416 C 0.10258 0.87925 0.45041 0.0
C1417 C 0.11667 0.86099 0.45287 0.0
C1418 C 0.14043 0.82454 0.49462 0.0
C1419 C 0.18707 0.78178 0.48293 0.0
C1420 C 0.17147 0.80093 0.48008 0.0
C1421 C 0.12764 0.8574 0.47313 0.0
C1422 C 0.14274 0.838 0.47554 0.0
H1423 H 0.2148 0.74111 0.45297 0.0
H1424 H 0.18921 0.77227 0.44771 0.0
H1425 H 0.15176 0.79592 0.51152 0.0
H1426 H 0.10811 0.9025 0.50227 0.0
H1427 H 0.13245 0.8702 0.50673 0.0
C1428 C 0.80067 0.77468 0.51002 0.0
C1429 C 0.79453 0.79109 0.49486 0.0
C1430 C 0.81201 0.75578 0.50245 0.0
C1431 C 0.85065 0.73523 0.45802 0.0
H1432 H 0.83139 0.67751 0.48095 0.0
C1433 C 0.90189 0.65807 0.43288 0.0
C1434 C 0.90581 0.64283 0.44992 0.0
C1435 C 0.88557 0.67459 0.43617 0.0
C1436 C 0.83715 0.6935 0.47454 0.0
H1437 H 0.79553 0.8005 0.45981 0.0
H1438 H 0.816 0.76743 0.44656 0.0
H1439 H 0.80827 0.70976 0.49061 0.0
H1440 H 0.89527 0.63234 0.48343 0.0
H1441 H 0.86712 0.66165 0.48963 0.0
H1442 H 0.88004 0.71939 0.44278 0.0
C1443 C 0.81179 0.7693 0.46432 0.0
C1444 C 0.82382 0.71195 0.47998 0.0
C1445 C 0.80007 0.78817 0.47188 0.0
C1446 C 0.8924 0.64383 0.47001 0.0
C1447 C 0.87627 0.66061 0.47348 0.0
C1448 C 0.86413 0.71685 0.45278 0.0
C1449 C 0.81774 0.75288 0.47957 0.0
C1450 C 0.8306 0.73304 0.47201 0.0
C1451 C 0.87301 0.67652 0.45675 0.0
C1452 C 0.85771 0.69575 0.46117 0.0
H1453 H 0.79656 0.7763 0.52783 0.0
H1454 H 0.81666 0.74357 0.51462 0.0
H1455 H 0.85645 0.75132 0.45188 0.0
H1456 H 0.91177 0.65738 0.41709 0.0
H1457 H 0.88311 0.68609 0.42266 0.0
C1458 C 0.3092 0.75216 0.52526 0.0
C1459 C 0.29722 0.74057 0.54266 0.0
C1460 C 0.3241 0.76983 0.52998 0.0
C1461 C 0.36097 0.79513 0.57121 0.0
H1462 H 0.35217 0.84789 0.53612 0.0
C1463 C 0.41419 0.87763 0.58094 0.0
C1464 C 0.4201 0.88908 0.56098 0.0
C1465 C 0.39991 0.85863 0.58054 0.0
C1466 C 0.35503 0.83323 0.54588 0.0
H1467 H 0.29212 0.73807 0.5788 0.0
H1468 H 0.31872 0.76926 0.5871 0.0
H1469 H 0.32514 0.81662 0.53303 0.0
H1470 H 0.41688 0.88882 0.52484 0.0
H1471 H 0.39237 0.85553 0.52411 0.0
H1472 H 0.39126 0.81171 0.58369 0.0
C1473 C 0.31626 0.76448 0.5698 0.0
C1474 C 0.33946 0.8154 0.54423 0.0
C1475 C 0.30104 0.74674 0.56504 0.0
C1476 C 0.41246 0.88051 0.54052 0.0
C1477 C 0.39827 0.86153 0.54013 0.0
C1478 C 0.3767 0.81305 0.57282 0.0
C1479 C 0.32756 0.77638 0.55222 0.0
C1480 C 0.34255 0.79602 0.55647 0.0
C1481 C 0.3913 0.85074 0.56018 0.0
C1482 C 0.37415 0.83208 0.55976 0.0
H1483 H 0.30685 0.74786 0.50781 0.0
H1484 H 0.33289 0.7785 0.51613 0.0
H1485 H 0.36373 0.7803 0.58074 0.0
H1486 H 0.41984 0.88381 0.59699 0.0
H1487 H 0.39481 0.85069 0.59626 0.0
C1488 C 0.5053 0.66486 0.7688 0.0
C1489 C 0.52127 0.68253 0.7715 0.0
C1490 C 0.50773 0.65025 0.75068 0.0
C1491 C 0.54903 0.63239 0.70467 0.0
H1492 H 0.49228 0.61318 0.67647 0.0
C1493 C 0.54757 0.59743 0.61471 0.0
C1494 C 0.5338 0.57836 0.61084 0.0
C1495 C 0.54641 0.60828 0.63543 0.0
C1496 C 0.50826 0.61816 0.68433 0.0
H1497 H 0.55261 0.69844 0.75756 0.0
H1498 H 0.55652 0.67335 0.72546 0.0
H1499 H 0.49004 0.63575 0.71043 0.0
H1500 H 0.50789 0.55579 0.62574 0.0
H1501 H 0.50549 0.57518 0.66205 0.0
H1502 H 0.56718 0.61542 0.67792 0.0
C1503 C 0.54236 0.67044 0.73763 0.0
C1504 C 0.50702 0.63108 0.70387 0.0
C1505 C 0.5401 0.68492 0.75599 0.0
C1506 C 0.51868 0.57045 0.6282 0.0
C1507 C 0.51728 0.58156 0.64893 0.0
C1508 C 0.55025 0.61969 0.68499 0.0
C1509 C 0.52599 0.65308 0.73455 0.0
C1510 C 0.5274 0.63852 0.71424 0.0
C1511 C 0.53126 0.60051 0.65276 0.0
C1512 C 0.52989 0.6126 0.67451 0.0
H1513 H 0.49075 0.6624 0.78063 0.0
H1514 H 0.49512 0.63679 0.74927 0.0
H1515 H 0.56508 0.6374 0.71236 0.0
H1516 H 0.55948 0.60395 0.60177 0.0
H1517 H 0.55716 0.62299 0.63777 0.0
C1518 C 0.47838 0.76645 0.75792 0.0
C1519 C 0.46326 0.76168 0.77637 0.0
C1520 C 0.47341 0.78315 0.74297 0.0
C1521 C 0.44523 0.83586 0.74127 0.0
H1522 H 0.45641 0.83006 0.67697 0.0
C1523 C 0.43787 0.90934 0.6798 0.0
C1524 C 0.45433 0.91048 0.6618 0.0
C1525 C 0.43652 0.89085 0.69382 0.0
C1526 C 0.45343 0.83203 0.69491 0.0
H1527 H 0.43074 0.77014 0.79337 0.0
H1528 H 0.42215 0.7999 0.76723 0.0
H1529 H 0.45693 0.79738 0.70062 0.0
H1530 H 0.48296 0.89372 0.64504 0.0
H1531 H 0.48104 0.86174 0.66971 0.0
H1532 H 0.44264 0.87064 0.73572 0.0
C1533 C 0.43778 0.79051 0.76436 0.0
C1534 C 0.45355 0.81327 0.70841 0.0
C1535 C 0.44258 0.77343 0.77917 0.0
C1536 C 0.46989 0.89312 0.65857 0.0
C1537 C 0.46866 0.87475 0.67264 0.0
C1538 C 0.44529 0.8547 0.72777 0.0
C1539 C 0.45336 0.7957 0.74631 0.0
C1540 C 0.4499 0.81504 0.73176 0.0
C1541 C 0.4517 0.87318 0.6902 0.0
C1542 C 0.44988 0.85306 0.70447 0.0
H1543 H 0.49443 0.75761 0.75534 0.0
H1544 H 0.48583 0.7869 0.72936 0.0
H1545 H 0.44263 0.83773 0.75927 0.0
H1546 H 0.42545 0.92233 0.68253 0.0
H1547 H 0.42314 0.89013 0.70707 0.0
C1548 C 0.54903 0.25494 0.75371 0.0
C1549 C 0.5635 0.25175 0.73455 0.0
C1550 C 0.55506 0.27043 0.76998 0.0
C1551 C 0.58475 0.32321 0.77498 0.0
H1552 H 0.57173 0.31407 0.83859 0.0
C1553 C 0.57725 0.37486 0.86458 0.0
C1554 C 0.56276 0.39188 0.85799 0.0
C1555 C 0.58338 0.35795 0.84959 0.0
C1556 C 0.57586 0.31688 0.82095 0.0
H1557 H 0.59607 0.26162 0.7177 0.0
H1558 H 0.6065 0.28927 0.7462 0.0
H1559 H 0.57243 0.2824 0.81309 0.0
H1560 H 0.54437 0.40507 0.83018 0.0
H1561 H 0.55478 0.37538 0.80408 0.0
H1562 H 0.58729 0.3578 0.78274 0.0
C1563 C 0.59055 0.27958 0.74858 0.0
C1564 C 0.57611 0.29875 0.80635 0.0
C1565 C 0.58466 0.26373 0.73239 0.0
C1566 C 0.5553 0.39206 0.83582 0.0
C1567 C 0.56152 0.3752 0.8208 0.0
C1568 C 0.58435 0.34139 0.78958 0.0
C1569 C 0.57558 0.2833 0.76734 0.0
C1570 C 0.57986 0.3018 0.78315 0.0
C1571 C 0.57525 0.35773 0.82767 0.0
C1572 C 0.57924 0.33845 0.81263 0.0
H1573 H 0.53265 0.24585 0.75584 0.0
H1574 H 0.54305 0.27309 0.78412 0.0
H1575 H 0.58754 0.32605 0.75714 0.0
H1576 H 0.58315 0.3741 0.88157 0.0
H1577 H 0.5941 0.34479 0.85531 0.0
C1578 C 0.52342 0.15545 0.73808 0.0
C1579 C 0.50511 0.16935 0.73292 0.0
C1580 C 0.52069 0.13993 0.75535 0.0
C1581 C 0.48738 0.13195 0.80818 0.0
H1582 H 0.51483 0.07393 0.80792 0.0
C1583 C 0.50239 0.08908 0.89018 0.0
C1584 C 0.49253 0.06778 0.89285 0.0
C1585 C 0.5053 0.09844 0.86897 0.0
C1586 C 0.50697 0.09003 0.80814 0.0
H1587 H 0.46917 0.17701 0.74121 0.0
H1588 H 0.46443 0.14995 0.77131 0.0
H1589 H 0.51532 0.09564 0.77317 0.0
H1590 H 0.47942 0.03888 0.87538 0.0
H1591 H 0.48471 0.05537 0.83773 0.0
H1592 H 0.47933 0.12665 0.84303 0.0
C1593 C 0.481 0.15124 0.76214 0.0
C1594 C 0.50735 0.1025 0.78834 0.0
C1595 C 0.48369 0.1667 0.74482 0.0
C1596 C 0.48733 0.05524 0.87368 0.0
C1597 C 0.49021 0.06472 0.85223 0.0
C1598 C 0.4872 0.11964 0.82788 0.0
C1599 C 0.49962 0.13799 0.76793 0.0
C1600 C 0.49774 0.12372 0.78822 0.0
C1601 C 0.49826 0.08679 0.84986 0.0
C1602 C 0.49732 0.09872 0.82821 0.0
H1603 H 0.54014 0.15696 0.7292 0.0
H1604 H 0.53544 0.13014 0.75948 0.0
H1605 H 0.48006 0.14829 0.8088 0.0
H1606 H 0.5066 0.09906 0.90471 0.0
H1607 H 0.51202 0.11528 0.86762 0.0
C1608 C 0.74944 0.50995 0.67929 0.0
C1609 C 0.75304 0.48968 0.68992 0.0
C1610 C 0.73202 0.51191 0.66379 0.0
C1611 C 0.67572 0.48853 0.64845 0.0
H1612 H 0.6874 0.5218 0.59362 0.0
C1613 C 0.60241 0.50348 0.58683 0.0
C1614 C 0.60175 0.52461 0.57719 0.0
C1615 C 0.62178 0.49704 0.59851 0.0
C1616 C 0.68373 0.51265 0.60895 0.0
H1617 H 0.74117 0.45549 0.69241 0.0
H1618 H 0.71027 0.45905 0.66542 0.0
H1619 H 0.71943 0.5144 0.61791 0.0
H1620 H 0.62116 0.5554 0.57199 0.0
H1621 H 0.65462 0.54445 0.59272 0.0
H1622 H 0.63991 0.48745 0.64003 0.0
C1623 C 0.72112 0.47338 0.66914 0.0
C1624 C 0.70215 0.50832 0.62282 0.0
C1625 C 0.73886 0.47132 0.6845 0.0
C1626 C 0.62115 0.53895 0.57906 0.0
C1627 C 0.64043 0.53259 0.5909 0.0
C1628 C 0.65723 0.49304 0.63468 0.0
C1629 C 0.71752 0.49374 0.65863 0.0
C1630 C 0.69832 0.49648 0.64289 0.0
C1631 C 0.64093 0.51163 0.60103 0.0
C1632 C 0.66091 0.50544 0.61487 0.0
H1633 H 0.76007 0.52443 0.68299 0.0
H1634 H 0.72954 0.52788 0.65622 0.0
H1635 H 0.67216 0.47957 0.66392 0.0
H1636 H 0.58782 0.49195 0.5856 0.0
H1637 H 0.62165 0.48063 0.60567 0.0
C1638 C 0.25798 0.0188 0.70616 0.0
C1639 C 0.24991 0.99881 0.71596 0.0
C1640 C 0.27213 0.01864 0.6864 0.0
C1641 C 0.28837 0.9828 0.63779 0.0
H1642 H 0.3469 0.0158 0.63576 0.0
C1643 C 0.36796 0.95537 0.58504 0.0
C1644 C 0.38423 0.97113 0.57667 0.0
C1645 C 0.34828 0.96193 0.59757 0.0
C1646 C 0.3304 0.00683 0.63574 0.0
H1647 H 0.25022 0.96305 0.71239 0.0
H1648 H 0.2745 0.96287 0.67834 0.0
H1649 H 0.31881 0.0218 0.66681 0.0
H1650 H 0.39265 0.00607 0.5743 0.0
H1651 H 0.35788 0.01775 0.59592 0.0
H1652 H 0.30011 0.96736 0.60714 0.0
C1653 C 0.26991 0.97866 0.68572 0.0
C1654 C 0.31431 0.01026 0.65361 0.0
C1655 C 0.25612 0.9788 0.70544 0.0
C1656 C 0.37996 0.99367 0.58009 0.0
C1657 C 0.36028 1.00029 0.59277 0.0
C1658 C 0.30436 0.97944 0.61992 0.0
C1659 C 0.27811 0.99852 0.6759 0.0
C1660 C 0.29345 0.99774 0.65521 0.0
C1661 C 0.34458 0.98445 0.6023 0.0
C1662 C 0.32592 0.99088 0.61902 0.0
H1663 H 0.25351 0.03449 0.71382 0.0
H1664 H 0.2782 0.03423 0.67923 0.0
H1665 H 0.27224 0.9732 0.63831 0.0
H1666 H 0.3713 0.93788 0.58317 0.0
H1667 H 0.33687 0.94921 0.60488 0.0
C1668 C 0.75549 0.53137 0.80334 0.0
C1669 C 0.75855 0.51284 0.78921 0.0
C1670 C 0.74134 0.52971 0.82304 0.0
C1671 C 0.71886 0.48755 0.86302 0.0
H1672 H 0.66703 0.52586 0.87637 0.0
C1673 C 0.63431 0.45744 0.90514 0.0
C1674 C 0.62395 0.46971 0.92271 0.0
C1675 C 0.65402 0.46561 0.89344 0.0
C1676 C 0.68178 0.51535 0.87317 0.0
H1677 H 0.74822 0.47842 0.78422 0.0
H1678 H 0.72393 0.47568 0.81805 0.0
H1679 H 0.69555 0.53572 0.84616 0.0
H1680 H 0.62609 0.5001 0.94203 0.0
H1681 H 0.6606 0.51488 0.92084 0.0
H1682 H 0.70445 0.46649 0.88893 0.0
C1683 C 0.73273 0.49133 0.8143 0.0
C1684 C 0.69805 0.52097 0.8559 0.0
C1685 C 0.74659 0.49298 0.79477 0.0
C1686 C 0.63392 0.49027 0.92864 0.0
C1687 C 0.65349 0.49875 0.9165 0.0
C1688 C 0.70265 0.48192 0.8801 0.0
C1689 C 0.73029 0.50946 0.82891 0.0
C1690 C 0.71613 0.50657 0.85005 0.0
C1691 C 0.66362 0.48646 0.89875 0.0
C1692 C 0.68344 0.49528 0.88471 0.0
H1693 H 0.76445 0.54691 0.7995 0.0
H1694 H 0.73957 0.544 0.83396 0.0
H1695 H 0.73291 0.47637 0.85916 0.0
H1696 H 0.62698 0.44154 0.90022 0.0
H1697 H 0.66133 0.45591 0.87968 0.0
C1698 C 0.27315 0.96087 0.82469 0.0
C1699 C 0.25993 0.9784 0.81712 0.0
C1700 C 0.29032 0.96477 0.84046 0.0
C1701 C 0.30886 0.00561 0.8833 0.0
H1702 H 0.37069 0.98337 0.87122 0.0
C1703 C 0.39037 0.0448 0.92215 0.0
C1704 C 0.40817 0.03081 0.92831 0.0
C1705 C 0.37117 0.03628 0.91095 0.0
C1706 C 0.35343 0.98943 0.87507 0.0
H1707 H 0.25415 0.01367 0.82051 0.0
H1708 H 0.28378 0.02031 0.84761 0.0
H1709 H 0.33893 0.97147 0.84761 0.0
H1710 H 0.41943 0.99678 0.92805 0.0
H1711 H 0.38589 0.982 0.90874 0.0
H1712 H 0.32339 0.02394 0.91044 0.0
C1713 C 0.28089 0.00356 0.84162 0.0
C1714 C 0.33524 0.98257 0.86155 0.0
C1715 C 0.264 0.99974 0.82586 0.0
C1716 C 0.40608 0.00806 0.92347 0.0
C1717 C 0.38691 0.99957 0.91227 0.0
C1718 C 0.32702 0.01245 0.89682 0.0
C1719 C 0.2943 0.98619 0.8491 0.0
C1720 C 0.31288 0.99099 0.8652 0.0
C1721 C 0.36934 0.0136 0.90567 0.0
C1722 C 0.34962 0.00482 0.89257 0.0
H1723 H 0.2704 0.94425 0.81829 0.0
H1724 H 0.30038 0.95105 0.84598 0.0
H1725 H 0.29171 0.0121 0.88678 0.0
H1726 H 0.39147 0.06239 0.92558 0.0
H1727 H 0.35807 0.0476 0.90586 0.0
C1728 C 0.72019 0.7745 0.57119 0.0
C1729 C 0.71666 0.79136 0.55565 0.0
C1730 C 0.70555 0.75565 0.57179 0.0
C1731 C 0.66949 0.72421 0.5331 0.0
H1732 H 0.64416 0.69305 0.58547 0.0
C1733 C 0.59976 0.65688 0.52473 0.0
C1734 C 0.60242 0.63699 0.53627 0.0
C1735 C 0.61366 0.67536 0.52937 0.0
C1736 C 0.65136 0.7015 0.57074 0.0
H1737 H 0.69399 0.80279 0.53012 0.0
H1738 H 0.66836 0.77033 0.53148 0.0
H1739 H 0.66816 0.72674 0.5903 0.0
H1740 H 0.62137 0.62111 0.56224 0.0
H1741 H 0.64585 0.65365 0.57037 0.0
H1742 H 0.65287 0.69928 0.51348 0.0
C1743 C 0.68274 0.77123 0.54269 0.0
C1744 C 0.66503 0.72074 0.5735 0.0
C1745 C 0.69736 0.78986 0.54198 0.0
C1746 C 0.61886 0.63622 0.55312 0.0
C1747 C 0.63284 0.65482 0.55779 0.0
C1748 C 0.65593 0.70514 0.53036 0.0
C1749 C 0.68721 0.75355 0.55692 0.0
C1750 C 0.67381 0.7325 0.55465 0.0
C1751 C 0.63061 0.67444 0.54565 0.0
C1752 C 0.64634 0.6938 0.54909 0.0
H1753 H 0.73498 0.77528 0.58191 0.0
H1754 H 0.70933 0.74226 0.58296 0.0
H1755 H 0.67659 0.73256 0.51825 0.0
H1756 H 0.58684 0.65824 0.51211 0.0
H1757 H 0.61117 0.69042 0.5201 0.0
C1758 C 0.7085 0.24755 0.96371 0.0
C1759 C 0.71499 0.24251 0.98557 0.0
C1760 C 0.69373 0.26525 0.96001 0.0
C1761 C 0.67487 0.31785 0.98539 0.0
H1762 H 0.62076 0.31106 0.949 0.0
C1763 C 0.60644 0.38603 0.9831 0.0
C1764 C 0.59634 0.39014 0.96249 0.0
C1765 C 0.62029 0.36753 0.98569 0.0
C1766 C 0.63596 0.31339 0.95898 0.0
H1767 H 0.71101 0.2522 0.02065 0.0
H1768 H 0.68572 0.28285 0.01415 0.0
H1769 H 0.64683 0.28011 0.95276 0.0
H1770 H 0.59272 0.37783 0.92847 0.0
H1771 H 0.61719 0.3461 0.93278 0.0
H1772 H 0.66447 0.35112 0.99137 0.0
C1773 C 0.69198 0.27323 0.99986 0.0
C1774 C 0.65088 0.29561 0.96112 0.0
C1775 C 0.7064 0.25551 1.00357 0.0
C1776 C 0.6001 0.37513 0.94466 0.0
C1777 C 0.61409 0.35679 0.94717 0.0
C1778 C 0.66014 0.33568 0.98307 0.0
C1779 C 0.68553 0.2784 0.97808 0.0
C1780 C 0.67038 0.29758 0.97454 0.0
C1781 C 0.62457 0.35279 0.96765 0.0
C1782 C 0.64033 0.33368 0.97 0.0
H1783 H 0.71479 0.23787 0.9495 0.0
H1784 H 0.68908 0.2689 0.94302 0.0
H1785 H 0.68994 0.31998 0.99561 0.0
H1786 H 0.60383 0.39721 0.99719 0.0
H1787 H 0.62764 0.36482 1.00187 0.0
C1788 C 0.28902 0.28184 0.96143 0.0
C1789 C 0.28232 0.28729 0.98366 0.0
C1790 C 0.30241 0.2632 0.95685 0.0
C1791 C 0.31886 0.20958 0.97935 0.0
H1792 H 0.37586 0.21858 0.94363 0.0
C1793 C 0.39214 0.14521 0.97501 0.0
C1794 C 0.40643 0.14434 0.95548 0.0
C1795 C 0.37491 0.16115 0.97728 0.0
C1796 C 0.3598 0.21551 0.95324 0.0
H1797 H 0.28377 0.27709 0.01841 0.0
H1798 H 0.30679 0.24444 0.01032 0.0
H1799 H 0.34934 0.24896 0.94919 0.0
H1800 H 0.41303 0.15811 0.92243 0.0
H1801 H 0.38234 0.18509 0.92573 0.0
H1802 H 0.32908 0.17606 0.98322 0.0
C1803 C 0.3018 0.25463 0.99649 0.0
C1804 C 0.34464 0.23304 0.95649 0.0
C1805 C 0.28877 0.27342 1.00111 0.0
C1806 C 0.40239 0.15875 0.93778 0.0
C1807 C 0.38493 0.17432 0.93981 0.0
C1808 C 0.33386 0.19189 0.97582 0.0
C1809 C 0.30898 0.24945 0.97435 0.0
C1810 C 0.32415 0.23033 0.96975 0.0
C1811 C 0.37139 0.17625 0.95985 0.0
C1812 C 0.35467 0.19466 0.96286 0.0
H1813 H 0.28431 0.2922 0.94764 0.0
H1814 H 0.30765 0.25951 0.93961 0.0
H1815 H 0.30307 0.20702 0.98954 0.0
H1816 H 0.39511 0.13432 0.98891 0.0
H1817 H 0.36504 0.16218 0.99306 0.0
C1818 C 0.80299 0.25294 0.058 0.0
C1819 C 0.79672 0.24658 0.03629 0.0
C1820 C 0.81711 0.27181 0.06115 0.0
C1821 C 0.83367 0.32449 0.0346 0.0
H1822 H 0.88968 0.32238 0.06858 0.0
C1823 C 0.90177 0.3955 0.03111 0.0
C1824 C 0.91214 0.40152 0.05126 0.0
C1825 C 0.88796 0.37625 0.02992 0.0
C1826 C 0.87393 0.32334 0.05928 0.0
H1827 H 0.80029 0.25501 1.00091 0.0
H1828 H 0.82452 0.28775 0.0065 0.0
H1829 H 0.86412 0.28964 0.06658 0.0
H1830 H 0.91633 0.392 0.08593 0.0
H1831 H 0.89193 0.35883 0.08396 0.0
H1832 H 0.84314 0.35812 0.02741 0.0
C1833 C 0.81857 0.27825 0.02104 0.0
C1834 C 0.85934 0.3046 0.05817 0.0
C1835 C 0.80481 0.25938 0.01788 0.0
C1836 C 0.9087 0.38777 0.07008 0.0
C1837 C 0.89478 0.36866 0.06894 0.0
C1838 C 0.8481 0.34325 0.03586 0.0
C1839 C 0.82479 0.28471 0.04267 0.0
C1840 C 0.83926 0.30495 0.04556 0.0
C1841 C 0.88409 0.36274 0.04891 0.0
C1842 C 0.86857 0.34283 0.04798 0.0
H1843 H 0.79704 0.24337 0.07248 0.0
H1844 H 0.82168 0.27653 0.07801 0.0
H1845 H 0.8181 0.32524 0.02498 0.0
H1846 H 0.9042 0.4057 0.0163 0.0
H1847 H 0.88033 0.37195 0.01409 0.0
loop_
_geom_bond_atom_site_label_1
_geom_bond_atom_site_label_2
_geom_bond_distance
_geom_bond_site_symmetry_2
_ccdc_geom_bond_type
C0 O2 1.247 . S
C0 O4 1.258 . S
C1 O8 1.247 . S
C1 O9 1.258 . S
O2 C0 1.247 . S
O2 Zn3 2.028 . S
Zn3 O2 2.028 . S
Zn3 O7 2.035 . S
Zn3 O9 2.035 . S
Zn3 O10 2.028 . S
O4 C0 1.258 . S
O4 Zn5 2.035 1_455 S
Zn5 O4 2.035 1_655 S
Zn5 O6 2.028 1_655 S
Zn5 O8 2.028 1_655 S
Zn5 O11 2.035 1_655 S
O6 Zn5 2.028 1_455 S
O6 C12 1.253 . S
O7 Zn3 2.035 . S
O7 C12 1.258 . S
O8 C1 1.247 . S
O8 Zn5 2.028 1_455 S
O9 C1 1.258 . S
O9 Zn3 2.035 . S
O10 Zn3 2.028 . S
O10 C13 1.247 . S
O11 Zn5 2.035 1_455 S
O11 C13 1.258 . S
C12 O6 1.253 . S
C12 O7 1.258 . S
C13 O10 1.247 . S
C13 O11 1.258 . S
C14 O16 1.247 . S
C14 O18 1.258 1_455 S
C15 O22 1.247 1_455 S
C15 O23 1.258 . S
O16 C14 1.247 . S
O16 Zn17 2.028 . S
Zn17 O16 2.028 . S
Zn17 O21 2.035 . S
Zn17 O23 2.035 . S
Zn17 O24 2.028 . S
O18 C14 1.258 1_655 S
O18 Zn19 2.035 . S
Zn19 O18 2.035 . S
Zn19 O20 2.028 . S
Zn19 O22 2.028 . S
Zn19 O25 2.035 . S
O20 Zn19 2.028 . S
O20 C26 1.247 1_655 S
O21 Zn17 2.035 . S
O21 C26 1.258 . S
O22 C15 1.247 1_655 S
O22 Zn19 2.028 . S
O23 C15 1.258 . S
O23 Zn17 2.035 . S
O24 Zn17 2.028 . S
O24 C27 1.247 . S
O25 Zn19 2.035 . S
O25 C27 1.258 1_655 S
C26 O20 1.247 1_455 S
C26 O21 1.258 . S
C27 O24 1.247 . S
C27 O25 1.258 1_455 S
C28 O30 1.247 1_545 S
C28 O32 1.258 . S
C29 O36 1.247 1_565 S
C29 O37 1.258 . S
O30 C28 1.247 1_565 S
O30 Zn31 2.028 . S
Zn31 O30 2.028 . S
Zn31 O35 2.035 . S
Zn31 O37 2.035 . S
Zn31 O38 2.028 . S
O32 C28 1.258 . S
O32 Zn33 2.035 . S
Zn33 O32 2.035 . S
Zn33 O34 2.028 . S
Zn33 O36 2.028 . S
Zn33 O39 2.035 . S
O34 Zn33 2.028 . S
O34 C40 1.247 1_545 S
O35 Zn31 2.035 . S
O35 C40 1.258 . S
O36 C29 1.247 1_545 S
O36 Zn33 2.028 . S
O37 C29 1.258 . S
O37 Zn31 2.035 . S
O38 Zn31 2.028 . S
O38 C41 1.247 1_565 S
O39 Zn33 2.035 . S
O39 C41 1.258 . S
C40 O34 1.247 1_565 S
C40 O35 1.258 . S
C41 O38 1.247 1_545 S
C41 O39 1.258 . S
C42 O44 1.247 . S
C42 O46 1.258 . S
C43 O50 1.247 . S
C43 O51 1.258 . S
O44 C42 1.247 . S
O44 Zn45 2.028 . S
Zn45 O44 2.028 . S
Zn45 O49 2.035 . S
Zn45 O51 2.035 . S
Zn45 O52 2.028 . S
O46 C42 1.258 . S
O46 Zn47 2.035 . S
Zn47 O46 2.035 . S
Zn47 O48 2.028 . S
Zn47 O50 2.028 . S
Zn47 O53 2.035 . S
O48 Zn47 2.028 . S
O48 C54 1.247 . S
O49 Zn45 2.035 . S
O49 C54 1.258 . S
O50 C43 1.247 . S
O50 Zn47 2.028 . S
O51 C43 1.258 . S
O51 Zn45 2.035 . S
O52 Zn45 2.028 . S
O52 C55 1.247 . S
O53 Zn47 2.035 . S
O53 C55 1.258 . S
C54 O48 1.247 . S
C54 O49 1.258 . S
C55 O52 1.247 . S
C55 O53 1.258 . S
C56 O58 1.247 . S
C56 O60 1.258 . S
C57 O64 1.247 . S
C57 O65 1.258 1_554 S
O58 C56 1.247 . S
O58 Zn59 2.028 1_554 S
Zn59 O58 2.028 1_556 S
Zn59 O63 2.035 . S
Zn59 O65 2.035 . S
Zn59 O66 2.028 1_556 S
O60 C56 1.258 . S
O60 Zn61 2.035 . S
Zn61 O60 2.035 . S
Zn61 O62 2.028 . S
Zn61 O64 2.028 . S
Zn61 O67 2.035 . S
O62 Zn61 2.028 . S
O62 C68 1.247 . S
O63 Zn59 2.035 . S
O63 C68 1.258 1_556 S
O64 C57 1.247 . S
O64 Zn61 2.028 . S
O65 C57 1.258 1_556 S
O65 Zn59 2.035 . S
O66 Zn59 2.028 1_554 S
O66 C69 1.247 . S
O67 Zn61 2.035 . S
O67 C69 1.258 . S
C68 O62 1.247 . S
C68 O63 1.258 1_554 S
C69 O66 1.247 . S
C69 O67 1.258 . S
C70 O72 1.247 . S
C70 O74 1.258 . S
C71 O78 1.247 . S
C71 O79 1.258 . S
O72 C70 1.247 . S
O72 Zn73 2.028 . S
Zn73 O72 2.028 . S
Zn73 O77 2.035 . S
Zn73 O79 2.035 . S
Zn73 O80 2.028 . S
O74 C70 1.258 . S
O74 Zn75 2.035 . S
Zn75 O74 2.035 . S
Zn75 O76 2.028 . S
Zn75 O78 2.028 . S
Zn75 O81 2.035 . S
O76 Zn75 2.028 . S
O76 C82 1.247 . S
O77 Zn73 2.035 . S
O77 C82 1.258 . S
O78 C71 1.247 . S
O78 Zn75 2.028 . S
O79 C71 1.258 . S
O79 Zn73 2.035 . S
O80 Zn73 2.028 . S
O80 C83 1.247 . S
O81 Zn75 2.035 . S
O81 C83 1.258 . S
C82 O76 1.247 . S
C82 O77 1.258 . S
C83 O80 1.247 . S
C83 O81 1.258 . S
C84 O86 1.247 . S
C84 O88 1.258 . S
C85 O92 1.247 . S
C85 O93 1.258 . S
O86 C84 1.247 . S
O86 Zn87 2.028 . S
Zn87 O86 2.028 . S
Zn87 O91 2.035 . S
Zn87 O93 2.035 . S
Zn87 O94 2.028 . S
O88 C84 1.258 . S
O88 Zn89 2.035 . S
Zn89 O88 2.035 . S
Zn89 O90 2.028 . S
Zn89 O92 2.028 . S
Zn89 O95 2.035 . S
O90 Zn89 2.028 . S
O90 C96 1.247 . S
O91 Zn87 2.035 . S
O91 C96 1.258 . S
O92 C85 1.247 . S
O92 Zn89 2.028 . S
O93 C85 1.258 . S
O93 Zn87 2.035 . S
O94 Zn87 2.028 . S
O94 C97 1.247 . S
O95 Zn89 2.035 . S
O95 C97 1.258 . S
C96 O90 1.247 . S
C96 O91 1.258 . S
C97 O94 1.247 . S
C97 O95 1.258 . S
C98 O100 1.247 . S
C98 O102 1.258 . S
C99 O106 1.247 . S
C99 O107 1.258 . S
O100 C98 1.247 . S
O100 Zn101 2.028 . S
Zn101 O100 2.028 . S
Zn101 O105 2.035 . S
Zn101 O107 2.035 . S
Zn101 O108 2.028 . S
O102 C98 1.258 . S
O102 Zn103 2.035 . S
Zn103 O102 2.035 . S
Zn103 O104 2.028 . S
Zn103 O106 2.028 . S
Zn103 O109 2.035 . S
O104 Zn103 2.028 . S
O104 C110 1.247 . S
O105 Zn101 2.035 . S
O105 C110 1.258 . S
O106 C99 1.247 . S
O106 Zn103 2.028 . S
O107 C99 1.258 . S
O107 Zn101 2.035 . S
O108 Zn101 2.028 . S
O108 C111 1.247 . S
O109 Zn103 2.035 . S
O109 C111 1.258 . S
C110 O104 1.247 . S
C110 O105 1.258 . S
C111 O108 1.247 . S
C111 O109 1.258 . S
C112 O114 1.247 . S
C112 O116 1.258 . S
C113 O120 1.247 . S
C113 O121 1.258 . S
O114 C112 1.247 . S
O114 Zn115 2.028 . S
Zn115 O114 2.028 . S
Zn115 O119 2.035 . S
Zn115 O121 2.035 . S
Zn115 O122 2.028 . S
O116 C112 1.258 . S
O116 Zn117 2.035 . S
Zn117 O116 2.035 . S
Zn117 O118 2.028 . S
Zn117 O120 2.028 . S
Zn117 O123 2.035 . S
O118 Zn117 2.028 . S
O118 C124 1.247 . S
O119 Zn115 2.035 . S
O119 C124 1.258 . S
O120 C113 1.247 . S
O120 Zn117 2.028 . S
O121 C113 1.258 . S
O121 Zn115 2.035 . S
O122 Zn115 2.028 . S
O122 C125 1.247 . S
O123 Zn117 2.035 . S
O123 C125 1.258 . S
C124 O118 1.247 . S
C124 O119 1.258 . S
C125 O122 1.247 . S
C125 O123 1.258 . S
C126 O128 1.247 . S
C126 O130 1.258 . S
C127 O134 1.247 . S
C127 O135 1.258 . S
O128 C126 1.247 . S
O128 Zn129 2.028 . S
Zn129 O128 2.028 . S
Zn129 O133 2.035 . S
Zn129 O135 2.035 . S
Zn129 O136 2.028 . S
O130 C126 1.258 . S
O130 Zn131 2.035 . S
Zn131 O130 2.035 . S
Zn131 O132 2.028 . S
Zn131 O134 2.028 . S
Zn131 O137 2.035 . S
O132 Zn131 2.028 . S
O132 C138 1.247 . S
O133 Zn129 2.035 . S
O133 C138 1.258 . S
O134 C127 1.247 . S
O134 Zn131 2.028 . S
O135 C127 1.258 . S
O135 Zn129 2.035 . S
O136 Zn129 2.028 . S
O136 C139 1.247 . S
O137 Zn131 2.035 . S
O137 C139 1.258 . S
C138 O132 1.247 . S
C138 O133 1.258 . S
C139 O136 1.247 . S
C139 O137 1.258 . S
C140 O142 1.247 . S
C140 O144 1.258 1_565 S
C141 O148 1.247 . S
C141 O149 1.258 1_545 S
O142 C140 1.247 . S
O142 Zn143 2.028 . S
Zn143 O142 2.028 . S
Zn143 O147 2.035 . S
Zn143 O149 2.035 . S
Zn143 O150 2.028 . S
O144 C140 1.258 1_545 S
O144 Zn145 2.035 . S
Zn145 O144 2.035 . S
Zn145 O146 2.028 . S
Zn145 O148 2.028 . S
Zn145 O151 2.035 . S
O146 Zn145 2.028 . S
O146 C152 1.247 . S
O147 Zn143 2.035 . S
O147 C152 1.258 1_565 S
O148 C141 1.247 . S
O148 Zn145 2.028 . S
O149 C141 1.258 1_565 S
O149 Zn143 2.035 . S
O150 Zn143 2.028 . S
O150 C153 1.247 . S
O151 Zn145 2.035 . S
O151 C153 1.258 1_545 S
C152 O146 1.247 . S
C152 O147 1.258 1_545 S
C153 O150 1.247 . S
C153 O151 1.258 1_565 S
C154 O156 1.247 . S
C154 O158 1.258 1_554 S
C155 O162 1.247 . S
C155 O163 1.258 . S
O156 C154 1.247 . S
O156 Zn157 2.028 . S
Zn157 O156 2.028 . S
Zn157 O161 2.035 . S
Zn157 O163 2.035 . S
Zn157 O164 2.028 . S
O158 C154 1.258 1_556 S
O158 Zn159 2.035 . S
Zn159 O158 2.035 . S
Zn159 O160 2.028 1_556 S
Zn159 O162 2.028 1_556 S
Zn159 O165 2.035 . S
O160 Zn159 2.028 1_554 S
O160 C166 1.247 . S
O161 Zn157 2.035 . S
O161 C166 1.258 . S
O162 C155 1.247 . S
O162 Zn159 2.028 1_554 S
O163 C155 1.258 . S
O163 Zn157 2.035 . S
O164 Zn157 2.028 . S
O164 C167 1.247 . S
O165 Zn159 2.035 . S
O165 C167 1.258 1_556 S
C166 O160 1.247 . S
C166 O161 1.258 . S
C167 O164 1.247 . S
C167 O165 1.258 1_554 S
Co168 N173 2.057 1_545 S
Co168 O185 2.021 . S
Co168 O188 2.062 . S
Co168 O192 2.117 . S
Co168 O193 2.020 . S
C169 O189 1.259 . S
C169 O192 1.258 . S
Co170 N179 2.057 . S
Co170 O186 2.117 . S
Co170 O187 2.020 . S
Co170 O189 2.021 . S
Co170 O194 2.062 . S
C171 N173 1.316 . S
C171 N174 1.347 . S
C171 H176 0.931 . S
C172 N173 1.399 . S
C172 C175 1.341 1_455 S
C172 H177 0.920 1_465 S
N173 Co168 2.057 1_565 S
N173 C171 1.316 . S
N173 C172 1.399 . S
N174 C171 1.347 . S
N174 C175 1.373 1_455 S
C175 C172 1.341 1_655 S
C175 N174 1.373 1_655 S
C175 H196 0.931 . S
H176 C171 0.931 . S
H177 C172 0.920 1_645 S
C178 O185 1.259 . S
C178 O186 1.258 . S
N179 Co170 2.057 . S
N179 C180 1.316 . S
N179 C181 1.375 . S
C180 N179 1.316 . S
C180 N182 1.347 . S
C180 H191 0.931 . S
C181 N179 1.375 . S
C181 C183 1.350 . S
C181 H190 0.901 1_554 S
N182 C180 1.347 . S
N182 C183 1.373 . S
C183 C181 1.350 . S
C183 N182 1.373 . S
C183 H197 0.931 1_554 S
C184 O187 1.256 . S
C184 O188 1.255 . S
O185 Co168 2.021 . S
O185 C178 1.259 . S
O186 Co170 2.117 . S
O186 C178 1.258 . S
O187 Co170 2.020 . S
O187 C184 1.256 . S
O188 Co168 2.062 . S
O188 C184 1.255 . S
O189 C169 1.259 . S
O189 Co170 2.021 . S
H190 C181 0.901 1_556 S
H191 C180 0.931 . S
O192 Co168 2.117 . S
O192 C169 1.258 . S
O193 Co168 2.020 . S
O193 C195 1.256 . S
O194 Co170 2.062 . S
O194 C195 1.255 . S
C195 O193 1.256 . S
C195 O194 1.255 . S
H196 C175 0.931 . S
H197 C183 0.931 1_556 S
Co198 N203 2.057 . S
Co198 O215 2.021 . S
Co198 O218 2.062 . S
Co198 O222 2.117 . S
Co198 O223 2.020 . S
C199 O219 1.259 . S
C199 O222 1.258 . S
Co200 N209 2.057 . S
Co200 O216 2.117 . S
Co200 O217 2.020 . S
Co200 O219 2.021 . S
Co200 O224 2.062 . S
C201 N203 1.316 . S
C201 N204 1.347 . S
C201 H206 0.931 . S
C202 N203 1.375 . S
C202 C205 1.350 . S
C202 H207 0.930 . S
N203 Co198 2.057 . S
N203 C201 1.316 . S
N203 C202 1.375 . S
N204 C201 1.347 . S
N204 C205 1.373 . S
C205 C202 1.350 . S
C205 N204 1.373 . S
C205 H226 0.931 . S
H206 C201 0.931 . S
H207 C202 0.930 . S
C208 O215 1.259 . S
C208 O216 1.258 . S
N209 Co200 2.057 . S
N209 C210 1.316 1_554 S
N209 C211 1.375 1_554 S
C210 N209 1.316 1_556 S
C210 N212 1.347 . S
C210 H221 0.931 1_556 S
C211 N209 1.375 1_556 S
C211 C213 1.350 . S
C211 H220 0.930 . S
N212 C210 1.347 . S
N212 C213 1.373 . S
C213 C211 1.350 . S
C213 N212 1.373 . S
C213 H227 0.931 . S
C214 O217 1.256 . S
C214 O218 1.255 . S
O215 Co198 2.021 . S
O215 C208 1.259 . S
O216 Co200 2.117 . S
O216 C208 1.258 . S
O217 Co200 2.020 . S
O217 C214 1.256 . S
O218 Co198 2.062 . S
O218 C214 1.255 . S
O219 C199 1.259 . S
O219 Co200 2.021 . S
H220 C211 0.930 . S
H221 C210 0.931 1_554 S
O222 Co198 2.117 . S
O222 C199 1.258 . S
O223 Co198 2.020 . S
O223 C225 1.256 . S
O224 Co200 2.062 . S
O224 C225 1.255 . S
C225 O223 1.256 . S
C225 O224 1.255 . S
H226 C205 0.931 . S
H227 C213 0.931 . S
Co228 N233 2.057 . S
Co228 O245 2.021 . S
Co228 O248 2.062 . S
Co228 O252 2.117 . S
Co228 O253 2.020 . S
C229 O249 1.259 . S
C229 O252 1.258 . S
Co230 N239 2.057 . S
Co230 O246 2.117 . S
Co230 O247 2.020 . S
Co230 O249 2.021 . S
Co230 O254 2.062 . S
C231 N233 1.316 . S
C231 N234 1.347 . S
C231 H236 0.931 . S
C232 N233 1.375 . S
C232 C235 1.350 . S
C232 H237 0.930 . S
N233 Co228 2.057 . S
N233 C231 1.316 . S
N233 C232 1.375 . S
N234 C231 1.347 . S
N234 C235 1.373 . S
C235 C232 1.350 . S
C235 N234 1.373 . S
C235 H256 0.931 . S
H236 C231 0.931 . S
H237 C232 0.930 . S
C238 O245 1.259 . S
C238 O246 1.258 . S
N239 Co230 2.057 . S
N239 C240 1.316 . S
N239 C241 1.375 . S
C240 N239 1.316 . S
C240 N242 1.347 . S
C240 H251 0.931 . S
C241 N239 1.375 . S
C241 C243 1.350 . S
C241 H250 0.930 . S
N242 C240 1.347 . S
N242 C243 1.373 . S
C243 C241 1.350 . S
C243 N242 1.373 . S
C243 H257 0.931 1_455 S
C244 O247 1.256 . S
C244 O248 1.255 . S
O245 Co228 2.021 . S
O245 C238 1.259 . S
O246 Co230 2.117 . S
O246 C238 1.258 . S
O247 Co230 2.020 . S
O247 C244 1.256 . S
O248 Co228 2.062 . S
O248 C244 1.255 . S
O249 C229 1.259 . S
O249 Co230 2.021 . S
H250 C241 0.930 . S
H251 C240 0.931 . S
O252 Co228 2.117 . S
O252 C229 1.258 . S
O253 Co228 2.020 . S
O253 C255 1.256 . S
O254 Co230 2.062 . S
O254 C255 1.255 . S
C255 O253 1.256 . S
C255 O254 1.255 . S
H256 C235 0.931 . S
H257 C243 0.931 1_655 S
Co258 N263 2.057 . S
Co258 O275 2.021 . S
Co258 O278 2.062 . S
Co258 O282 2.117 . S
Co258 O283 2.020 . S
C259 O279 1.259 . S
C259 O282 1.258 . S
Co260 N269 2.057 . S
Co260 O276 2.117 . S
Co260 O277 2.020 . S
Co260 O279 2.021 . S
Co260 O284 2.062 . S
C261 N263 1.316 . S
C261 N264 1.347 . S
C261 H266 0.931 . S
C262 N263 1.375 . S
C262 C265 1.350 . S
C262 H267 0.930 . S
N263 Co258 2.057 . S
N263 C261 1.316 . S
N263 C262 1.375 . S
N264 C261 1.347 . S
N264 C265 1.373 . S
C265 C262 1.350 . S
C265 N264 1.373 . S
C265 H286 0.931 . S
H266 C261 0.931 . S
H267 C262 0.930 . S
C268 O275 1.259 . S
C268 O276 1.258 . S
N269 Co260 2.057 . S
N269 C270 1.316 . S
N269 C271 1.375 . S
C270 N269 1.316 . S
C270 N272 1.347 . S
C270 H281 0.931 1_655 S
C271 N269 1.375 . S
C271 C273 1.350 . S
C271 H280 0.930 . S
N272 C270 1.347 . S
N272 C273 1.373 . S
C273 C271 1.350 . S
C273 N272 1.373 . S
C273 H287 0.931 . S
C274 O277 1.256 . S
C274 O278 1.255 . S
O275 Co258 2.021 . S
O275 C268 1.259 . S
O276 Co260 2.117 . S
O276 C268 1.258 . S
O277 Co260 2.020 . S
O277 C274 1.256 . S
O278 Co258 2.062 . S
O278 C274 1.255 . S
O279 C259 1.259 . S
O279 Co260 2.021 . S
H280 C271 0.930 . S
H281 C270 0.931 1_455 S
O282 Co258 2.117 . S
O282 C259 1.258 . S
O283 Co258 2.020 . S
O283 C285 1.256 . S
O284 Co260 2.062 . S
O284 C285 1.255 . S
C285 O283 1.256 . S
C285 O284 1.255 . S
H286 C265 0.931 . S
H287 C273 0.931 . S
Co288 N293 2.057 . S
Co288 O305 2.021 . S
Co288 O308 2.062 . S
Co288 O312 2.117 . S
Co288 O313 2.020 . S
C289 O309 1.259 . S
C289 O312 1.258 . S
Co290 N299 2.057 . S
Co290 O306 2.117 . S
Co290 O307 2.020 . S
Co290 O309 2.021 . S
Co290 O314 2.062 . S
C291 N293 1.316 . S
C291 N294 1.347 . S
C291 H296 0.931 . S
C292 N293 1.375 . S
C292 C295 1.350 . S
C292 H297 0.930 . S
N293 Co288 2.057 . S
N293 C291 1.316 . S
N293 C292 1.375 . S
N294 C291 1.347 . S
N294 C295 1.373 . S
C295 C292 1.350 . S
C295 N294 1.373 . S
C295 H316 0.931 . S
H296 C291 0.931 . S
H297 C292 0.930 . S
C298 O305 1.259 . S
C298 O306 1.258 . S
N299 Co290 2.057 . S
N299 C300 1.316 . S
N299 C301 1.375 . S
C300 N299 1.316 . S
C300 N302 1.347 . S
C300 H311 0.931 . S
C301 N299 1.375 . S
C301 C303 1.350 . S
C301 H310 0.930 . S
N302 C300 1.347 . S
N302 C303 1.373 . S
C303 C301 1.350 . S
C303 N302 1.373 . S
C303 H317 0.931 . S
C304 O307 1.256 . S
C304 O308 1.255 . S
O305 Co288 2.021 . S
O305 C298 1.259 . S
O306 Co290 2.117 . S
O306 C298 1.258 . S
O307 Co290 2.020 . S
O307 C304 1.256 . S
O308 Co288 2.062 . S
O308 C304 1.255 . S
O309 C289 1.259 . S
O309 Co290 2.021 . S
H310 C301 0.930 . S
H311 C300 0.931 . S
O312 Co288 2.117 . S
O312 C289 1.258 . S
O313 Co288 2.020 . S
O313 C315 1.256 . S
O314 Co290 2.062 . S
O314 C315 1.255 . S
C315 O313 1.256 . S
C315 O314 1.255 . S
H316 C295 0.931 . S
H317 C303 0.931 . S
Co318 N323 2.057 . S
Co318 O335 2.021 . S
Co318 O338 2.062 . S
Co318 O342 2.117 . S
Co318 O343 2.020 . S
C319 O339 1.259 . S
C319 O342 1.258 . S
Co320 N329 2.057 . S
Co320 O336 2.117 . S
Co320 O337 2.020 . S
Co320 O339 2.021 . S
Co320 O344 2.062 . S
C321 N323 1.316 . S
C321 N324 1.347 . S
C321 H326 0.931 . S
C322 N323 1.375 . S
C322 C325 1.350 . S
C322 H327 0.930 . S
N323 Co318 2.057 . S
N323 C321 1.316 . S
N323 C322 1.375 . S
N324 C321 1.347 . S
N324 C325 1.373 . S
C325 C322 1.350 . S
C325 N324 1.373 . S
C325 H346 0.931 . S
H326 C321 0.931 . S
H327 C322 0.930 . S
C328 O335 1.259 . S
C328 O336 1.258 . S
N329 Co320 2.057 . S
N329 C330 1.316 . S
N329 C331 1.375 . S
C330 N329 1.316 . S
C330 N332 1.347 . S
C330 H341 0.931 . S
C331 N329 1.375 . S
C331 C333 1.350 . S
C331 H340 0.930 . S
N332 C330 1.347 . S
N332 C333 1.373 . S
C333 C331 1.350 . S
C333 N332 1.373 . S
C333 H347 0.931 . S
C334 O337 1.256 . S
C334 O338 1.255 . S
O335 Co318 2.021 . S
O335 C328 1.259 . S
O336 Co320 2.117 . S
O336 C328 1.258 . S
O337 Co320 2.020 . S
O337 C334 1.256 . S
O338 Co318 2.062 . S
O338 C334 1.255 . S
O339 C319 1.259 . S
O339 Co320 2.021 . S
H340 C331 0.930 . S
H341 C330 0.931 . S
O342 Co318 2.117 . S
O342 C319 1.258 . S
O343 Co318 2.020 . S
O343 C345 1.256 . S
O344 Co320 2.062 . S
O344 C345 1.255 . S
C345 O343 1.256 . S
C345 O344 1.255 . S
H346 C325 0.931 . S
H347 C333 0.931 . S
Co348 N353 2.057 . S
Co348 O365 2.021 . S
Co348 O368 2.062 . S
Co348 O372 2.117 . S
Co348 O373 2.020 . S
C349 O369 1.259 . S
C349 O372 1.258 . S
Co350 N359 2.057 . S
Co350 O366 2.117 . S
Co350 O367 2.020 . S
Co350 O369 2.021 . S
Co350 O374 2.062 . S
C351 N353 1.316 1_554 S
C351 N354 1.347 . S
C351 H356 0.931 . S
C352 N353 1.375 . S
C352 C355 1.350 1_556 S
C352 H357 0.930 . S
N353 Co348 2.057 . S
N353 C351 1.316 1_556 S
N353 C352 1.375 . S
N354 C351 1.347 . S
N354 C355 1.373 . S
C355 C352 1.350 1_554 S
C355 N354 1.373 . S
C355 H376 0.931 . S
H356 C351 0.931 . S
H357 C352 0.930 . S
C358 O365 1.259 . S
C358 O366 1.258 . S
N359 Co350 2.057 . S
N359 C360 1.316 . S
N359 C361 1.375 . S
C360 N359 1.316 . S
C360 N362 1.347 . S
C360 H371 0.931 . S
C361 N359 1.375 . S
C361 C363 1.350 . S
C361 H370 0.930 . S
N362 C360 1.347 . S
N362 C363 1.373 . S
C363 C361 1.350 . S
C363 N362 1.373 . S
C363 H377 0.931 . S
C364 O367 1.256 . S
C364 O368 1.255 . S
O365 Co348 2.021 . S
O365 C358 1.259 . S
O366 Co350 2.117 . S
O366 C358 1.258 . S
O367 Co350 2.020 . S
O367 C364 1.256 . S
O368 Co348 2.062 . S
O368 C364 1.255 . S
O369 C349 1.259 . S
O369 Co350 2.021 . S
H370 C361 0.930 . S
H371 C360 0.931 . S
O372 Co348 2.117 . S
O372 C349 1.258 . S
O373 Co348 2.020 . S
O373 C375 1.256 . S
O374 Co350 2.062 . S
O374 C375 1.255 . S
C375 O373 1.256 . S
C375 O374 1.255 . S
H376 C355 0.931 . S
H377 C363 0.931 . S
Co378 N383 2.057 . S
Co378 O395 2.021 . S
Co378 O398 2.062 . S
Co378 O402 2.117 . S
Co378 O403 2.020 . S
C379 O399 1.259 . S
C379 O402 1.258 . S
Co380 N389 2.057 1_545 S
Co380 O396 2.117 . S
Co380 O397 2.020 . S
Co380 O399 2.021 . S
Co380 O404 2.062 . S
C381 N383 1.316 . S
C381 N384 1.347 . S
C381 H386 0.931 . S
C382 N383 1.375 . S
C382 C385 1.350 . S
C382 H387 0.930 . S
N383 Co378 2.057 . S
N383 C381 1.316 . S
N383 C382 1.375 . S
N384 C381 1.347 . S
N384 C385 1.373 . S
C385 C382 1.350 . S
C385 N384 1.373 . S
C385 H406 0.931 . S
H386 C381 0.931 . S
H387 C382 0.930 . S
C388 O395 1.259 . S
C388 O396 1.258 . S
N389 Co380 2.057 1_565 S
N389 C390 1.316 . S
N389 C391 1.375 . S
C390 N389 1.316 . S
C390 N392 1.347 . S
C390 H401 0.931 . S
C391 N389 1.375 . S
C391 C393 1.350 . S
C391 H400 0.930 . S
N392 C390 1.347 . S
N392 C393 1.373 . S
C393 C391 1.350 . S
C393 N392 1.373 . S
C393 H407 0.931 . S
C394 O397 1.256 . S
C394 O398 1.255 . S
O395 Co378 2.021 . S
O395 C388 1.259 . S
O396 Co380 2.117 . S
O396 C388 1.258 . S
O397 Co380 2.020 . S
O397 C394 1.256 . S
O398 Co378 2.062 . S
O398 C394 1.255 . S
O399 C379 1.259 . S
O399 Co380 2.021 . S
H400 C391 0.930 . S
H401 C390 0.931 . S
O402 Co378 2.117 . S
O402 C379 1.258 . S
O403 Co378 2.020 . S
O403 C405 1.256 . S
O404 Co380 2.062 . S
O404 C405 1.255 . S
C405 O403 1.256 . S
C405 O404 1.255 . S
H406 C385 0.931 . S
H407 C393 0.931 . S
C408 C409 1.349 . S
C408 C410 1.327 . S
C408 H433 0.950 . S
C409 C408 1.349 . S
C409 C425 1.349 . S
C410 C408 1.327 . S
C410 C429 1.429 . S
C410 H434 0.950 . S
C411 C428 1.574 . S
C411 C430 1.368 . S
C411 H435 0.949 . S
H412 C416 0.949 . S
C413 C414 1.345 1_545 S
C413 C415 1.327 . S
C413 H436 0.950 1_545 S
C414 C413 1.345 1_565 S
C414 C426 1.323 1_565 S
C415 C413 1.327 . S
C415 C431 1.429 . S
C415 H437 0.950 . S
C416 H412 0.949 . S
C416 C424 1.574 . S
C416 C432 1.368 . S
H417 C425 0.950 . S
H418 C423 0.950 . S
H419 C424 0.949 . S
H420 C426 0.950 . S
H421 C427 0.950 . S
H422 C428 0.949 . S
C423 H418 0.950 . S
C423 C425 1.327 . S
C423 C429 1.429 . S
C424 C416 1.574 . S
C424 H419 0.949 . S
C424 C430 1.368 . S
C425 C409 1.349 . S
C425 H417 0.950 . S
C425 C423 1.327 . S
C426 C414 1.323 1_545 S
C426 H420 0.950 . S
C426 C427 1.327 . S
C427 H421 0.950 . S
C427 C426 1.327 . S
C427 C431 1.429 . S
C428 C411 1.574 . S
C428 H422 0.949 . S
C428 C432 1.368 . S
C429 C410 1.429 . S
C429 C423 1.429 . S
C429 C430 1.523 . S
C430 C411 1.368 . S
C430 C424 1.368 . S
C430 C429 1.523 . S
C431 C415 1.429 . S
C431 C427 1.429 . S
C431 C432 1.523 . S
C432 C416 1.368 . S
C432 C428 1.368 . S
C432 C431 1.523 . S
H433 C408 0.950 . S
H434 C410 0.950 . S
H435 C411 0.949 . S
H436 C413 0.950 1_565 S
H437 C415 0.950 . S
C438 C439 1.349 . S
C438 C440 1.327 . S
C438 H463 0.950 . S
C439 C438 1.349 . S
C439 C455 1.349 . S
C440 C438 1.327 . S
C440 C459 1.429 . S
C440 H464 0.950 . S
C441 C458 1.574 . S
C441 C460 1.368 1_655 S
C441 H465 0.949 . S
H442 C446 0.949 . S
C443 C444 1.349 1_655 S
C443 C445 1.327 . S
C443 H466 0.950 . S
C444 C443 1.349 1_455 S
C444 C456 1.349 . S
C445 C443 1.327 . S
C445 C461 1.429 1_655 S
C445 H467 0.950 . S
C446 H442 0.949 . S
C446 C454 1.574 . S
C446 C462 1.368 . S
H447 C455 0.950 1_655 S
H448 C453 0.928 1_655 S
H449 C454 0.949 . S
H450 C456 0.950 . S
H451 C457 0.950 . S
H452 C458 0.949 . S
C453 H448 0.928 1_455 S
C453 C455 1.331 . S
C453 C459 1.447 . S
C454 C446 1.574 . S
C454 H449 0.949 . S
C454 C460 1.368 . S
C455 C439 1.349 . S
C455 H447 0.950 1_455 S
C455 C453 1.331 . S
C456 C444 1.349 . S
C456 H450 0.950 . S
C456 C457 1.327 . S
C457 H451 0.950 . S
C457 C456 1.327 . S
C457 C461 1.429 . S
C458 C441 1.574 . S
C458 H452 0.949 . S
C458 C462 1.368 1_655 S
C459 C440 1.429 . S
C459 C453 1.447 . S
C459 C460 1.523 . S
C460 C441 1.368 1_455 S
C460 C454 1.368 . S
C460 C459 1.523 . S
C461 C445 1.429 1_455 S
C461 C457 1.429 . S
C461 C462 1.523 . S
C462 C446 1.368 . S
C462 C458 1.368 1_455 S
C462 C461 1.523 . S
H463 C438 0.950 . S
H464 C440 0.950 . S
H465 C441 0.949 . S
H466 C443 0.950 . S
H467 C445 0.950 . S
C468 C469 1.349 . S
C468 C470 1.327 . S
C468 H493 0.950 . S
C469 C468 1.349 . S
C469 C485 1.349 . S
C470 C468 1.327 . S
C470 C489 1.429 . S
C470 H494 0.950 . S
C471 C488 1.574 . S
C471 C490 1.368 1_655 S
C471 H495 0.949 . S
H472 C476 0.949 . S
C473 C474 1.349 1_655 S
C473 C475 1.327 . S
C473 H496 0.950 . S
C474 C473 1.349 1_455 S
C474 C486 1.349 . S
C475 C473 1.327 . S
C475 C491 1.429 1_655 S
C475 H497 0.950 . S
C476 H472 0.949 . S
C476 C484 1.574 . S
C476 C492 1.368 . S
H477 C485 0.950 1_655 S
H478 C483 0.950 1_655 S
H479 C484 0.949 . S
H480 C486 0.950 . S
H481 C487 0.950 . S
H482 C488 0.949 . S
C483 H478 0.950 1_455 S
C483 C485 1.327 . S
C483 C489 1.429 . S
C484 C476 1.574 . S
C484 H479 0.949 . S
C484 C490 1.368 . S
C485 C469 1.349 . S
C485 H477 0.950 1_455 S
C485 C483 1.327 . S
C486 C474 1.349 . S
C486 H480 0.950 . S
C486 C487 1.327 . S
C487 H481 0.950 . S
C487 C486 1.327 . S
C487 C491 1.429 . S
C488 C471 1.574 . S
C488 H482 0.949 . S
C488 C492 1.368 1_655 S
C489 C470 1.429 . S
C489 C483 1.429 . S
C489 C490 1.523 . S
C490 C471 1.368 1_455 S
C490 C484 1.368 . S
C490 C489 1.523 . S
C491 C475 1.429 1_455 S
C491 C487 1.429 . S
C491 C492 1.523 . S
C492 C476 1.368 . S
C492 C488 1.368 1_455 S
C492 C491 1.523 . S
H493 C468 0.950 . S
H494 C470 0.950 . S
H495 C471 0.949 . S
H496 C473 0.950 . S
H497 C475 0.950 . S
C498 C499 1.319 1_655 S
C498 C500 1.327 . S
C498 H523 0.950 . S
C499 C498 1.319 1_455 S
C499 C515 1.375 . S
C500 C498 1.327 . S
C500 C519 1.429 . S
C500 H524 0.950 . S
C501 C518 1.574 . S
C501 C520 1.368 1_455 S
C501 H525 0.949 . S
H502 C506 0.949 . S
C503 C504 1.349 . S
C503 C505 1.334 . S
C503 H526 0.950 1_655 S
C504 C503 1.349 . S
C504 C516 1.349 . S
C505 C503 1.334 . S
C505 C521 1.459 . S
C505 H527 0.913 1_655 S
C506 H502 0.949 . S
C506 C514 1.574 . S
C506 C522 1.368 . S
H507 C515 0.950 . S
H508 C513 0.950 . S
H509 C514 0.949 . S
H510 C516 0.950 . S
H511 C517 0.950 . S
H512 C518 0.949 . S
C513 H508 0.950 . S
C513 C515 1.327 . S
C513 C519 1.429 1_455 S
C514 C506 1.574 . S
C514 H509 0.949 . S
C514 C520 1.368 . S
C515 C499 1.375 . S
C515 H507 0.950 . S
C515 C513 1.327 . S
C516 C504 1.349 . S
C516 H510 0.950 . S
C516 C517 1.327 . S
C517 H511 0.950 . S
C517 C516 1.327 . S
C517 C521 1.429 . S
C518 C501 1.574 . S
C518 H512 0.949 . S
C518 C522 1.368 1_455 S
C519 C500 1.429 . S
C519 C513 1.429 1_655 S
C519 C520 1.523 . S
C520 C501 1.368 1_655 S
C520 C514 1.368 . S
C520 C519 1.523 . S
C521 C505 1.459 . S
C521 C517 1.429 . S
C521 C522 1.523 . S
C522 C506 1.368 . S
C522 C518 1.368 1_655 S
C522 C521 1.523 . S
H523 C498 0.950 . S
H524 C500 0.950 . S
H525 C501 0.949 . S
H526 C503 0.950 1_455 S
H527 C505 0.913 1_455 S
C528 C529 1.349 1_565 S
C528 C530 1.330 . S
C528 H553 0.950 . S
C529 C528 1.349 1_545 S
C529 C545 1.349 . S
C530 C528 1.330 . S
C530 C549 1.395 1_565 S
C530 H554 0.982 . S
C531 C548 1.574 . S
C531 C550 1.368 . S
C531 H555 0.949 . S
H532 C536 0.949 1_565 S
C533 C534 1.349 . S
C533 C535 1.327 . S
C533 H556 0.950 . S
C534 C533 1.349 . S
C534 C546 1.349 . S
C535 C533 1.327 . S
C535 C551 1.429 . S
C535 H557 0.950 . S
C536 H532 0.949 1_545 S
C536 C544 1.574 . S
C536 C552 1.368 . S
H537 C545 0.950 . S
H538 C543 0.950 . S
H539 C544 0.949 1_565 S
H540 C546 0.950 1_565 S
H541 C547 0.950 1_565 S
H542 C548 0.949 . S
C543 H538 0.950 . S
C543 C545 1.327 . S
C543 C549 1.429 . S
C544 C536 1.574 . S
C544 H539 0.949 1_545 S
C544 C550 1.368 . S
C545 C529 1.349 . S
C545 H537 0.950 . S
C545 C543 1.327 . S
C546 C534 1.349 . S
C546 H540 0.950 1_545 S
C546 C547 1.327 . S
C547 H541 0.950 1_545 S
C547 C546 1.327 . S
C547 C551 1.429 . S
C548 C531 1.574 . S
C548 H542 0.949 . S
C548 C552 1.368 . S
C549 C530 1.395 1_545 S
C549 C543 1.429 . S
C549 C550 1.523 . S
C550 C531 1.368 . S
C550 C544 1.368 . S
C550 C549 1.523 . S
C551 C535 1.429 . S
C551 C547 1.429 . S
C551 C552 1.523 . S
C552 C536 1.368 . S
C552 C548 1.368 . S
C552 C551 1.523 . S
H553 C528 0.950 . S
H554 C530 0.982 . S
H555 C531 0.949 . S
H556 C533 0.950 . S
H557 C535 0.950 . S
C558 C559 1.349 . S
C558 C560 1.327 . S
C558 H583 0.950 . S
C559 C558 1.349 . S
C559 C575 1.349 . S
C560 C558 1.327 . S
C560 C579 1.429 . S
C560 H584 0.950 . S
C561 C578 1.574 . S
C561 C580 1.368 . S
C561 H585 0.949 . S
H562 C566 0.949 . S
C563 C564 1.349 . S
C563 C565 1.327 . S
C563 H586 0.950 . S
C564 C563 1.349 . S
C564 C576 1.349 . S
C565 C563 1.327 . S
C565 C581 1.429 . S
C565 H587 0.950 . S
C566 H562 0.949 . S
C566 C574 1.574 . S
C566 C582 1.368 . S
H567 C575 0.950 . S
H568 C573 0.950 . S
H569 C574 0.949 . S
H570 C576 0.950 . S
H571 C577 0.950 . S
H572 C578 0.949 . S
C573 H568 0.950 . S
C573 C575 1.327 . S
C573 C579 1.429 . S
C574 C566 1.574 . S
C574 H569 0.949 . S
C574 C580 1.368 . S
C575 C559 1.349 . S
C575 H567 0.950 . S
C575 C573 1.327 . S
C576 C564 1.349 . S
C576 H570 0.950 . S
C576 C577 1.327 . S
C577 H571 0.950 . S
C577 C576 1.327 . S
C577 C581 1.429 . S
C578 C561 1.574 . S
C578 H572 0.949 . S
C578 C582 1.368 . S
C579 C560 1.429 . S
C579 C573 1.429 . S
C579 C580 1.523 . S
C580 C561 1.368 . S
C580 C574 1.368 . S
C580 C579 1.523 . S
C581 C565 1.429 . S
C581 C577 1.429 . S
C581 C582 1.523 . S
C582 C566 1.368 . S
C582 C578 1.368 . S
C582 C581 1.523 . S
H583 C558 0.950 . S
H584 C560 0.950 . S
H585 C561 0.949 . S
H586 C563 0.950 . S
H587 C565 0.950 . S
C588 C589 1.349 1_545 S
C588 C590 1.327 . S
C588 H613 0.950 . S
C589 C588 1.349 1_565 S
C589 C605 1.349 . S
C590 C588 1.327 . S
C590 C609 1.429 1_545 S
C590 H614 0.950 . S
C591 C608 1.574 . S
C591 C610 1.368 . S
C591 H615 0.949 . S
H592 C596 0.949 . S
C593 C594 1.349 . S
C593 C595 1.327 . S
C593 H616 0.950 . S
C594 C593 1.349 . S
C594 C606 1.349 1_565 S
C595 C593 1.327 . S
C595 C611 1.429 . S
C595 H617 0.950 . S
C596 H592 0.949 . S
C596 C604 1.574 . S
C596 C612 1.368 1_545 S
H597 C605 0.950 . S
H598 C603 0.950 . S
H599 C604 0.949 . S
H600 C606 0.950 . S
H601 C607 0.950 . S
H602 C608 0.949 . S
C603 H598 0.950 . S
C603 C605 1.327 . S
C603 C609 1.429 . S
C604 C596 1.574 . S
C604 H599 0.949 . S
C604 C610 1.368 1_545 S
C605 C589 1.349 . S
C605 H597 0.950 . S
C605 C603 1.327 . S
C606 C594 1.349 1_545 S
C606 H600 0.950 . S
C606 C607 1.327 . S
C607 H601 0.950 . S
C607 C606 1.327 . S
C607 C611 1.429 1_545 S
C608 C591 1.574 . S
C608 H602 0.949 . S
C608 C612 1.368 . S
C609 C590 1.429 1_565 S
C609 C603 1.429 . S
C609 C610 1.523 . S
C610 C591 1.368 . S
C610 C604 1.368 1_565 S
C610 C609 1.523 . S
C611 C595 1.429 . S
C611 C607 1.429 1_565 S
C611 C612 1.523 . S
C612 C596 1.368 1_565 S
C612 C608 1.368 . S
C612 C611 1.523 . S
H613 C588 0.950 . S
H614 C590 0.950 . S
H615 C591 0.949 . S
H616 C593 0.950 . S
H617 C595 0.950 . S
C618 C619 1.349 . S
C618 C620 1.327 . S
C618 H643 0.950 . S
C619 C618 1.349 . S
C619 C635 1.349 . S
C620 C618 1.327 . S
C620 C639 1.429 . S
C620 H644 0.950 . S
C621 C638 1.574 . S
C621 C640 1.368 . S
C621 H645 0.949 . S
H622 C626 0.949 . S
C623 C624 1.349 . S
C623 C625 1.327 . S
C623 H646 0.950 . S
C624 C623 1.349 . S
C624 C636 1.349 . S
C625 C623 1.327 . S
C625 C641 1.429 . S
C625 H647 0.950 . S
C626 H622 0.949 . S
C626 C634 1.574 . S
C626 C642 1.368 . S
H627 C635 0.950 . S
H628 C633 0.950 . S
H629 C634 0.949 . S
H630 C636 0.950 . S
H631 C637 0.950 . S
H632 C638 0.949 . S
C633 H628 0.950 . S
C633 C635 1.327 . S
C633 C639 1.429 . S
C634 C626 1.574 . S
C634 H629 0.949 . S
C634 C640 1.368 . S
C635 C619 1.349 . S
C635 H627 0.950 . S
C635 C633 1.327 . S
C636 C624 1.349 . S
C636 H630 0.950 . S
C636 C637 1.327 . S
C637 H631 0.950 . S
C637 C636 1.327 . S
C637 C641 1.429 . S
C638 C621 1.574 . S
C638 H632 0.949 . S
C638 C642 1.368 . S
C639 C620 1.429 . S
C639 C633 1.429 . S
C639 C640 1.523 . S
C640 C621 1.368 . S
C640 C634 1.368 . S
C640 C639 1.523 . S
C641 C625 1.429 . S
C641 C637 1.429 . S
C641 C642 1.523 . S
C642 C626 1.368 . S
C642 C638 1.368 . S
C642 C641 1.523 . S
H643 C618 0.950 . S
H644 C620 0.950 . S
H645 C621 0.949 . S
H646 C623 0.950 . S
H647 C625 0.950 . S
C648 C649 1.349 . S
C648 C650 1.327 . S
C648 H673 0.950 . S
C649 C648 1.349 . S
C649 C665 1.349 . S
C650 C648 1.327 . S
C650 C669 1.429 . S
C650 H674 0.950 . S
C651 C668 1.574 . S
C651 C670 1.368 . S
C651 H675 0.919 1_554 S
H652 C656 0.949 . S
C653 C654 1.349 . S
C653 C655 1.327 . S
C653 H676 0.950 . S
C654 C653 1.349 . S
C654 C666 1.349 . S
C655 C653 1.327 . S
C655 C671 1.429 . S
C655 H677 0.950 . S
C656 H652 0.949 . S
C656 C664 1.574 . S
C656 C672 1.368 . S
H657 C665 0.950 1_556 S
H658 C663 0.950 1_556 S
H659 C664 0.949 . S
H660 C666 0.950 . S
H661 C667 0.950 . S
H662 C668 0.976 . S
C663 H658 0.950 1_554 S
C663 C665 1.327 . S
C663 C669 1.429 . S
C664 C656 1.574 . S
C664 H659 0.949 . S
C664 C670 1.368 . S
C665 C649 1.349 . S
C665 H657 0.950 1_554 S
C665 C663 1.327 . S
C666 C654 1.349 . S
C666 H660 0.950 . S
C666 C667 1.327 . S
C667 H661 0.950 . S
C667 C666 1.327 . S
C667 C671 1.429 . S
C668 C651 1.574 . S
C668 H662 0.976 . S
C668 C672 1.368 . S
C669 C650 1.429 . S
C669 C663 1.429 . S
C669 C670 1.523 . S
C670 C651 1.368 . S
C670 C664 1.368 . S
C670 C669 1.523 . S
C671 C655 1.429 . S
C671 C667 1.429 . S
C671 C672 1.523 . S
C672 C656 1.368 . S
C672 C668 1.368 . S
C672 C671 1.523 . S
H673 C648 0.950 . S
H674 C650 0.950 . S
H675 C651 0.919 1_556 S
H676 C653 0.950 . S
H677 C655 0.950 . S
C678 C679 1.349 . S
C678 C680 1.327 . S
C678 H703 0.950 . S
C679 C678 1.349 . S
C679 C695 1.349 . S
C680 C678 1.327 . S
C680 C699 1.429 . S
C680 H704 0.950 . S
C681 C698 1.574 . S
C681 C700 1.368 . S
C681 H705 0.949 . S
H682 C686 0.949 . S
C683 C684 1.349 . S
C683 C685 1.327 . S
C683 H706 0.950 . S
C684 C683 1.349 . S
C684 C696 1.349 . S
C685 C683 1.327 . S
C685 C701 1.429 . S
C685 H707 0.950 . S
C686 H682 0.949 . S
C686 C694 1.574 . S
C686 C702 1.368 . S
H687 C695 0.950 . S
H688 C693 0.950 . S
H689 C694 0.949 . S
H690 C696 0.950 . S
H691 C697 0.950 . S
H692 C698 0.949 . S
C693 H688 0.950 . S
C693 C695 1.327 . S
C693 C699 1.429 . S
C694 C686 1.574 . S
C694 H689 0.949 . S
C694 C700 1.368 . S
C695 C679 1.349 . S
C695 H687 0.950 . S
C695 C693 1.327 . S
C696 C684 1.349 . S
C696 H690 0.950 . S
C696 C697 1.327 . S
C697 H691 0.950 . S
C697 C696 1.327 . S
C697 C701 1.429 . S
C698 C681 1.574 . S
C698 H692 0.949 . S
C698 C702 1.368 . S
C699 C680 1.429 . S
C699 C693 1.429 . S
C699 C700 1.523 . S
C700 C681 1.368 . S
C700 C694 1.368 . S
C700 C699 1.523 . S
C701 C685 1.429 . S
C701 C697 1.429 . S
C701 C702 1.523 . S
C702 C686 1.368 . S
C702 C698 1.368 . S
C702 C701 1.523 . S
H703 C678 0.950 . S
H704 C680 0.950 . S
H705 C681 0.949 . S
H706 C683 0.950 . S
H707 C685 0.950 . S
C708 C709 1.349 . S
C708 C710 1.327 . S
C708 H733 0.950 . S
C709 C708 1.349 . S
C709 C725 1.349 . S
C710 C708 1.327 . S
C710 C729 1.429 . S
C710 H734 0.950 . S
C711 C728 1.574 . S
C711 C730 1.368 . S
C711 H735 0.949 . S
H712 C716 0.949 . S
C713 C714 1.349 . S
C713 C715 1.327 . S
C713 H736 0.950 . S
C714 C713 1.349 . S
C714 C726 1.349 . S
C715 C713 1.327 . S
C715 C731 1.429 . S
C715 H737 0.950 . S
C716 H712 0.949 . S
C716 C724 1.574 . S
C716 C732 1.368 . S
H717 C725 0.950 . S
H718 C723 0.950 . S
H719 C724 0.949 . S
H720 C726 0.950 . S
H721 C727 0.950 . S
H722 C728 0.949 . S
C723 H718 0.950 . S
C723 C725 1.327 . S
C723 C729 1.429 . S
C724 C716 1.574 . S
C724 H719 0.949 . S
C724 C730 1.368 . S
C725 C709 1.349 . S
C725 H717 0.950 . S
C725 C723 1.327 . S
C726 C714 1.349 . S
C726 H720 0.950 . S
C726 C727 1.327 . S
C727 H721 0.950 . S
C727 C726 1.327 . S
C727 C731 1.429 . S
C728 C711 1.574 . S
C728 H722 0.949 . S
C728 C732 1.368 . S
C729 C710 1.429 . S
C729 C723 1.429 . S
C729 C730 1.523 . S
C730 C711 1.368 . S
C730 C724 1.368 . S
C730 C729 1.523 . S
C731 C715 1.429 . S
C731 C727 1.429 . S
C731 C732 1.523 . S
C732 C716 1.368 . S
C732 C728 1.368 . S
C732 C731 1.523 . S
H733 C708 0.950 . S
H734 C710 0.950 . S
H735 C711 0.949 . S
H736 C713 0.950 . S
H737 C715 0.950 . S
C738 C739 1.349 . S
C738 C740 1.327 . S
C738 H763 0.950 . S
C739 C738 1.349 . S
C739 C755 1.349 . S
C740 C738 1.327 . S
C740 C759 1.429 . S
C740 H764 0.950 . S
C741 C758 1.574 . S
C741 C760 1.368 . S
C741 H765 0.949 . S
H742 C746 0.949 . S
C743 C744 1.349 . S
C743 C745 1.327 . S
C743 H766 0.950 . S
C744 C743 1.349 . S
C744 C756 1.349 . S
C745 C743 1.327 . S
C745 C761 1.429 . S
C745 H767 0.950 . S
C746 H742 0.949 . S
C746 C754 1.574 . S
C746 C762 1.368 . S
H747 C755 0.950 . S
H748 C753 0.950 . S
H749 C754 0.949 . S
H750 C756 0.950 . S
H751 C757 0.950 . S
H752 C758 0.949 . S
C753 H748 0.950 . S
C753 C755 1.327 . S
C753 C759 1.429 . S
C754 C746 1.574 . S
C754 H749 0.949 . S
C754 C760 1.368 . S
C755 C739 1.349 . S
C755 H747 0.950 . S
C755 C753 1.327 . S
C756 C744 1.349 . S
C756 H750 0.950 . S
C756 C757 1.327 . S
C757 H751 0.950 . S
C757 C756 1.327 . S
C757 C761 1.429 . S
C758 C741 1.574 . S
C758 H752 0.949 . S
C758 C762 1.368 . S
C759 C740 1.429 . S
C759 C753 1.429 . S
C759 C760 1.523 . S
C760 C741 1.368 . S
C760 C754 1.368 . S
C760 C759 1.523 . S
C761 C745 1.429 . S
C761 C757 1.429 . S
C761 C762 1.523 . S
C762 C746 1.368 . S
C762 C758 1.368 . S
C762 C761 1.523 . S
H763 C738 0.950 . S
H764 C740 0.950 . S
H765 C741 0.949 . S
H766 C743 0.950 . S
H767 C745 0.950 . S
C768 C769 1.349 . S
C768 C770 1.327 . S
C768 H793 0.950 . S
C769 C768 1.349 . S
C769 C785 1.349 . S
C770 C768 1.327 . S
C770 C789 1.429 . S
C770 H794 0.950 . S
C771 C788 1.574 . S
C771 C790 1.368 . S
C771 H795 0.949 . S
H772 C776 0.949 . S
C773 C774 1.349 . S
C773 C775 1.327 . S
C773 H796 0.950 . S
C774 C773 1.349 . S
C774 C786 1.349 . S
C775 C773 1.327 . S
C775 C791 1.429 . S
C775 H797 0.950 . S
C776 H772 0.949 . S
C776 C784 1.574 . S
C776 C792 1.368 . S
H777 C785 0.950 . S
H778 C783 0.950 . S
H779 C784 0.949 . S
H780 C786 0.950 . S
H781 C787 0.950 . S
H782 C788 0.949 . S
C783 H778 0.950 . S
C783 C785 1.327 . S
C783 C789 1.429 . S
C784 C776 1.574 . S
C784 H779 0.949 . S
C784 C790 1.368 . S
C785 C769 1.349 . S
C785 H777 0.950 . S
C785 C783 1.327 . S
C786 C774 1.349 . S
C786 H780 0.950 . S
C786 C787 1.327 . S
C787 H781 0.950 . S
C787 C786 1.327 . S
C787 C791 1.429 . S
C788 C771 1.574 . S
C788 H782 0.949 . S
C788 C792 1.368 . S
C789 C770 1.429 . S
C789 C783 1.429 . S
C789 C790 1.523 . S
C790 C771 1.368 . S
C790 C784 1.368 . S
C790 C789 1.523 . S
C791 C775 1.429 . S
C791 C787 1.429 . S
C791 C792 1.523 . S
C792 C776 1.368 . S
C792 C788 1.368 . S
C792 C791 1.523 . S
H793 C768 0.950 . S
H794 C770 0.950 . S
H795 C771 0.949 . S
H796 C773 0.950 . S
H797 C775 0.950 . S
C798 C799 1.349 . S
C798 C800 1.327 . S
C798 H823 0.950 . S
C799 C798 1.349 . S
C799 C815 1.349 . S
C800 C798 1.327 . S
C800 C819 1.429 . S
C800 H824 0.950 . S
C801 C818 1.574 . S
C801 C820 1.368 . S
C801 H825 0.949 . S
H802 C806 0.949 . S
C803 C804 1.349 . S
C803 C805 1.327 . S
C803 H826 0.950 . S
C804 C803 1.349 . S
C804 C816 1.349 . S
C805 C803 1.327 . S
C805 C821 1.429 . S
C805 H827 0.950 . S
C806 H802 0.949 . S
C806 C814 1.574 . S
C806 C822 1.368 . S
H807 C815 0.950 . S
H808 C813 0.950 . S
H809 C814 0.949 . S
H810 C816 0.950 . S
H811 C817 0.950 . S
H812 C818 0.949 . S
C813 H808 0.950 . S
C813 C815 1.327 . S
C813 C819 1.429 . S
C814 C806 1.574 . S
C814 H809 0.949 . S
C814 C820 1.368 . S
C815 C799 1.349 . S
C815 H807 0.950 . S
C815 C813 1.327 . S
C816 C804 1.349 . S
C816 H810 0.950 . S
C816 C817 1.327 . S
C817 H811 0.950 . S
C817 C816 1.327 . S
C817 C821 1.429 . S
C818 C801 1.574 . S
C818 H812 0.949 . S
C818 C822 1.368 . S
C819 C800 1.429 . S
C819 C813 1.429 . S
C819 C820 1.523 . S
C820 C801 1.368 . S
C820 C814 1.368 . S
C820 C819 1.523 . S
C821 C805 1.429 . S
C821 C817 1.429 . S
C821 C822 1.523 . S
C822 C806 1.368 . S
C822 C818 1.368 . S
C822 C821 1.523 . S
H823 C798 0.950 . S
H824 C800 0.950 . S
H825 C801 0.949 . S
H826 C803 0.950 . S
H827 C805 0.950 . S
C828 C829 1.349 . S
C828 C830 1.327 . S
C828 H853 0.950 . S
C829 C828 1.349 . S
C829 C845 1.349 . S
C830 C828 1.327 . S
C830 C849 1.429 . S
C830 H854 0.950 . S
C831 C848 1.574 . S
C831 C850 1.368 . S
C831 H855 0.949 . S
H832 C836 0.949 . S
C833 C834 1.349 . S
C833 C835 1.327 . S
C833 H856 0.950 . S
C834 C833 1.349 . S
C834 C846 1.349 . S
C835 C833 1.327 . S
C835 C851 1.429 . S
C835 H857 0.950 . S
C836 H832 0.949 . S
C836 C844 1.574 . S
C836 C852 1.368 . S
H837 C845 0.950 . S
H838 C843 0.950 . S
H839 C844 0.949 . S
H840 C846 0.950 . S
H841 C847 0.950 . S
H842 C848 0.949 . S
C843 H838 0.950 . S
C843 C845 1.327 . S
C843 C849 1.429 . S
C844 C836 1.574 . S
C844 H839 0.949 . S
C844 C850 1.368 . S
C845 C829 1.349 . S
C845 H837 0.950 . S
C845 C843 1.327 . S
C846 C834 1.349 . S
C846 H840 0.950 . S
C846 C847 1.327 . S
C847 H841 0.950 . S
C847 C846 1.327 . S
C847 C851 1.429 . S
C848 C831 1.574 . S
C848 H842 0.949 . S
C848 C852 1.368 . S
C849 C830 1.429 . S
C849 C843 1.429 . S
C849 C850 1.523 . S
C850 C831 1.368 . S
C850 C844 1.368 . S
C850 C849 1.523 . S
C851 C835 1.429 . S
C851 C847 1.429 . S
C851 C852 1.523 . S
C852 C836 1.368 . S
C852 C848 1.368 . S
C852 C851 1.523 . S
H853 C828 0.950 . S
H854 C830 0.950 . S
H855 C831 0.949 . S
H856 C833 0.950 . S
H857 C835 0.950 . S
C858 C859 1.349 . S
C858 C860 1.327 . S
C858 H883 0.950 . S
C859 C858 1.349 . S
C859 C875 1.349 . S
C860 C858 1.327 . S
C860 C879 1.429 . S
C860 H884 0.950 . S
C861 C878 1.574 . S
C861 C880 1.368 . S
C861 H885 0.949 . S
H862 C866 0.949 . S
C863 C864 1.349 1_545 S
C863 C865 1.327 . S
C863 H886 0.950 1_545 S
C864 C863 1.349 1_565 S
C864 C876 1.349 1_565 S
C865 C863 1.327 . S
C865 C881 1.429 . S
C865 H887 0.950 . S
C866 H862 0.949 . S
C866 C874 1.574 . S
C866 C882 1.368 . S
H867 C875 0.950 . S
H868 C873 0.950 . S
H869 C874 0.949 . S
H870 C876 0.950 . S
H871 C877 0.950 . S
H872 C878 0.949 . S
C873 H868 0.950 . S
C873 C875 1.327 . S
C873 C879 1.429 . S
C874 C866 1.574 . S
C874 H869 0.949 . S
C874 C880 1.368 . S
C875 C859 1.349 . S
C875 H867 0.950 . S
C875 C873 1.327 . S
C876 C864 1.349 1_545 S
C876 H870 0.950 . S
C876 C877 1.327 . S
C877 H871 0.950 . S
C877 C876 1.327 . S
C877 C881 1.429 . S
C878 C861 1.574 . S
C878 H872 0.949 . S
C878 C882 1.368 . S
C879 C860 1.429 . S
C879 C873 1.429 . S
C879 C880 1.523 . S
C880 C861 1.368 . S
C880 C874 1.368 . S
C880 C879 1.523 . S
C881 C865 1.429 . S
C881 C877 1.429 . S
C881 C882 1.523 . S
C882 C866 1.368 . S
C882 C878 1.368 . S
C882 C881 1.523 . S
H883 C858 0.950 . S
H884 C860 0.950 . S
H885 C861 0.949 . S
H886 C863 0.950 1_565 S
H887 C865 0.950 . S
C888 C889 1.349 . S
C888 C890 1.327 . S
C888 H913 0.950 . S
C889 C888 1.349 . S
C889 C905 1.349 . S
C890 C888 1.327 . S
C890 C909 1.429 . S
C890 H914 0.950 . S
C891 C908 1.574 . S
C891 C910 1.368 . S
C891 H915 0.949 . S
H892 C896 0.949 . S
C893 C894 1.349 . S
C893 C895 1.327 . S
C893 H916 0.950 . S
C894 C893 1.349 . S
C894 C906 1.349 . S
C895 C893 1.327 . S
C895 C911 1.429 . S
C895 H917 0.950 . S
C896 H892 0.949 . S
C896 C904 1.574 . S
C896 C912 1.368 . S
H897 C905 0.950 . S
H898 C903 0.950 . S
H899 C904 0.949 . S
H900 C906 0.950 . S
H901 C907 0.950 . S
H902 C908 0.949 . S
C903 H898 0.950 . S
C903 C905 1.327 . S
C903 C909 1.429 . S
C904 C896 1.574 . S
C904 H899 0.949 . S
C904 C910 1.368 . S
C905 C889 1.349 . S
C905 H897 0.950 . S
C905 C903 1.327 . S
C906 C894 1.349 . S
C906 H900 0.950 . S
C906 C907 1.327 . S
C907 H901 0.950 . S
C907 C906 1.327 . S
C907 C911 1.429 . S
C908 C891 1.574 . S
C908 H902 0.949 . S
C908 C912 1.368 . S
C909 C890 1.429 . S
C909 C903 1.429 . S
C909 C910 1.523 . S
C910 C891 1.368 . S
C910 C904 1.368 . S
C910 C909 1.523 . S
C911 C895 1.429 . S
C911 C907 1.429 . S
C911 C912 1.523 . S
C912 C896 1.368 . S
C912 C908 1.368 . S
C912 C911 1.523 . S
H913 C888 0.950 . S
H914 C890 0.950 . S
H915 C891 0.949 . S
H916 C893 0.950 . S
H917 C895 0.950 . S
C918 C919 1.349 1_545 S
C918 C920 1.327 . S
C918 H943 0.950 . S
C919 C918 1.349 1_565 S
C919 C935 1.349 . S
C920 C918 1.327 . S
C920 C939 1.429 1_545 S
C920 H944 0.950 . S
C921 C938 1.574 . S
C921 C940 1.368 . S
C921 H945 0.949 . S
H922 C926 0.949 . S
C923 C924 1.349 . S
C923 C925 1.327 . S
C923 H946 0.950 . S
C924 C923 1.349 . S
C924 C936 1.371 . S
C925 C923 1.327 . S
C925 C941 1.429 . S
C925 H947 0.950 . S
C926 H922 0.949 . S
C926 C934 1.574 . S
C926 C942 1.368 1_545 S
H927 C935 0.950 . S
H928 C933 0.950 . S
H929 C934 0.949 . S
H930 C936 0.930 1_545 S
H931 C937 0.950 . S
H932 C938 0.949 . S
C933 H928 0.950 . S
C933 C935 1.327 . S
C933 C939 1.429 . S
C934 C926 1.574 . S
C934 H929 0.949 . S
C934 C940 1.368 1_545 S
C935 C919 1.349 . S
C935 H927 0.950 . S
C935 C933 1.327 . S
C936 C924 1.371 . S
C936 H930 0.930 1_565 S
C936 C937 1.326 1_565 S
C937 H931 0.950 . S
C937 C936 1.326 1_545 S
C937 C941 1.429 1_545 S
C938 C921 1.574 . S
C938 H932 0.949 . S
C938 C942 1.368 . S
C939 C920 1.429 1_565 S
C939 C933 1.429 . S
C939 C940 1.523 . S
C940 C921 1.368 . S
C940 C934 1.368 1_565 S
C940 C939 1.523 . S
C941 C925 1.429 . S
C941 C937 1.429 1_565 S
C941 C942 1.523 . S
C942 C926 1.368 1_565 S
C942 C938 1.368 . S
C942 C941 1.523 . S
H943 C918 0.950 . S
H944 C920 0.950 . S
H945 C921 0.949 . S
H946 C923 0.950 . S
H947 C925 0.950 . S
C948 C949 1.349 . S
C948 C950 1.327 . S
C948 H973 0.950 . S
C949 C948 1.349 . S
C949 C965 1.349 . S
C950 C948 1.327 . S
C950 C969 1.429 . S
C950 H974 0.950 . S
C951 C968 1.574 . S
C951 C970 1.368 . S
C951 H975 0.949 . S
H952 C956 0.949 . S
C953 C954 1.349 . S
C953 C955 1.327 . S
C953 H976 0.950 . S
C954 C953 1.349 . S
C954 C966 1.349 . S
C955 C953 1.327 . S
C955 C971 1.429 . S
C955 H977 0.950 . S
C956 H952 0.949 . S
C956 C964 1.574 . S
C956 C972 1.368 . S
H957 C965 0.950 . S
H958 C963 0.950 . S
H959 C964 0.949 . S
H960 C966 0.950 . S
H961 C967 0.950 . S
H962 C968 0.949 . S
C963 H958 0.950 . S
C963 C965 1.327 . S
C963 C969 1.429 . S
C964 C956 1.574 . S
C964 H959 0.949 . S
C964 C970 1.368 . S
C965 C949 1.349 . S
C965 H957 0.950 . S
C965 C963 1.327 . S
C966 C954 1.349 . S
C966 H960 0.950 . S
C966 C967 1.327 . S
C967 H961 0.950 . S
C967 C966 1.327 . S
C967 C971 1.429 . S
C968 C951 1.574 . S
C968 H962 0.949 . S
C968 C972 1.368 . S
C969 C950 1.429 . S
C969 C963 1.429 . S
C969 C970 1.523 . S
C970 C951 1.368 . S
C970 C964 1.368 . S
C970 C969 1.523 . S
C971 C955 1.429 . S
C971 C967 1.429 . S
C971 C972 1.523 . S
C972 C956 1.368 . S
C972 C968 1.368 . S
C972 C971 1.523 . S
H973 C948 0.950 . S
H974 C950 0.950 . S
H975 C951 0.949 . S
H976 C953 0.950 . S
H977 C955 0.950 . S
C978 C979 1.349 . S
C978 C980 1.327 . S
C978 H1003 0.950 . S
C979 C978 1.349 . S
C979 C995 1.349 1_545 S
C980 C978 1.327 . S
C980 C999 1.429 . S
C980 H1004 0.950 . S
C981 C998 1.574 1_565 S
C981 C1000 1.370 1_565 S
C981 H1005 0.947 . S
H982 C986 0.949 . S
C983 C984 1.349 . S
C983 C985 1.327 . S
C983 H1006 0.950 1_545 S
C984 C983 1.349 . S
C984 C996 1.349 . S
C985 C983 1.327 . S
C985 C1001 1.429 . S
C985 H1007 0.950 1_545 S
C986 H982 0.949 . S
C986 C994 1.574 . S
C986 C1002 1.368 . S
H987 C995 0.950 . S
H988 C993 0.950 . S
H989 C994 0.949 . S
H990 C996 0.950 . S
H991 C997 0.950 . S
H992 C998 0.949 1_565 S
C993 H988 0.950 . S
C993 C995 1.327 . S
C993 C999 1.429 1_565 S
C994 C986 1.574 . S
C994 H989 0.949 . S
C994 C1000 1.368 . S
C995 C979 1.349 1_565 S
C995 H987 0.950 . S
C995 C993 1.327 . S
C996 C984 1.349 . S
C996 H990 0.950 . S
C996 C997 1.327 . S
C997 H991 0.950 . S
C997 C996 1.327 . S
C997 C1001 1.429 . S
C998 C981 1.574 1_545 S
C998 H992 0.949 1_545 S
C998 C1002 1.368 . S
C999 C980 1.429 . S
C999 C993 1.429 1_545 S
C999 C1000 1.523 . S
C1000 C981 1.370 1_545 S
C1000 C994 1.368 . S
C1000 C999 1.523 . S
C1001 C985 1.429 . S
C1001 C997 1.429 . S
C1001 C1002 1.523 . S
C1002 C986 1.368 . S
C1002 C998 1.368 . S
C1002 C1001 1.523 . S
H1003 C978 0.950 . S
H1004 C980 0.950 . S
H1005 C981 0.947 . S
H1006 C983 0.950 1_565 S
H1007 C985 0.950 1_565 S
C1008 C1009 1.349 . S
C1008 C1010 1.327 . S
C1008 H1033 0.950 . S
C1009 C1008 1.349 . S
C1009 C1025 1.349 . S
C1010 C1008 1.327 . S
C1010 C1029 1.429 . S
C1010 H1034 0.950 . S
C1011 C1028 1.574 . S
C1011 C1030 1.368 . S
C1011 H1035 0.949 . S
H1012 C1016 0.949 . S
C1013 C1014 1.349 . S
C1013 C1015 1.327 . S
C1013 H1036 0.950 . S
C1014 C1013 1.349 . S
C1014 C1026 1.349 . S
C1015 C1013 1.327 . S
C1015 C1031 1.429 . S
C1015 H1037 0.950 . S
C1016 H1012 0.949 . S
C1016 C1024 1.574 . S
C1016 C1032 1.368 . S
H1017 C1025 0.950 . S
H1018 C1023 0.950 . S
H1019 C1024 0.949 . S
H1020 C1026 0.950 . S
H1021 C1027 0.950 . S
H1022 C1028 0.949 . S
C1023 H1018 0.950 . S
C1023 C1025 1.327 . S
C1023 C1029 1.429 . S
C1024 C1016 1.574 . S
C1024 H1019 0.949 . S
C1024 C1030 1.368 . S
C1025 C1009 1.349 . S
C1025 H1017 0.950 . S
C1025 C1023 1.327 . S
C1026 C1014 1.349 . S
C1026 H1020 0.950 . S
C1026 C1027 1.327 . S
C1027 H1021 0.950 . S
C1027 C1026 1.327 . S
C1027 C1031 1.429 . S
C1028 C1011 1.574 . S
C1028 H1022 0.949 . S
C1028 C1032 1.368 . S
C1029 C1010 1.429 . S
C1029 C1023 1.429 . S
C1029 C1030 1.523 . S
C1030 C1011 1.368 . S
C1030 C1024 1.368 . S
C1030 C1029 1.523 . S
C1031 C1015 1.429 . S
C1031 C1027 1.429 . S
C1031 C1032 1.523 . S
C1032 C1016 1.368 . S
C1032 C1028 1.368 . S
C1032 C1031 1.523 . S
H1033 C1008 0.950 . S
H1034 C1010 0.950 . S
H1035 C1011 0.949 . S
H1036 C1013 0.950 . S
H1037 C1015 0.950 . S
C1038 C1039 1.349 . S
C1038 C1040 1.327 . S
C1038 H1063 0.950 . S
C1039 C1038 1.349 . S
C1039 C1055 1.349 1_554 S
C1040 C1038 1.327 . S
C1040 C1059 1.429 1_554 S
C1040 H1064 0.950 . S
C1041 C1058 1.574 . S
C1041 C1060 1.368 . S
C1041 H1065 0.949 . S
H1042 C1046 0.949 . S
C1043 C1044 1.349 . S
C1043 C1045 1.327 . S
C1043 H1066 0.950 . S
C1044 C1043 1.349 . S
C1044 C1056 1.349 . S
C1045 C1043 1.327 . S
C1045 C1061 1.429 . S
C1045 H1067 0.950 . S
C1046 H1042 0.949 . S
C1046 C1054 1.574 . S
C1046 C1062 1.368 1_554 S
H1047 C1055 0.950 . S
H1048 C1053 0.950 . S
H1049 C1054 0.949 . S
H1050 C1056 0.950 1_554 S
H1051 C1057 0.994 . S
H1052 C1058 0.949 . S
C1053 H1048 0.950 . S
C1053 C1055 1.327 . S
C1053 C1059 1.429 . S
C1054 C1046 1.574 . S
C1054 H1049 0.949 . S
C1054 C1060 1.368 1_554 S
C1055 C1039 1.349 1_556 S
C1055 H1047 0.950 . S
C1055 C1053 1.327 . S
C1056 C1044 1.349 . S
C1056 H1050 0.950 1_556 S
C1056 C1057 1.319 1_556 S
C1057 H1051 0.994 . S
C1057 C1056 1.319 1_554 S
C1057 C1061 1.396 1_554 S
C1058 C1041 1.574 . S
C1058 H1052 0.949 . S
C1058 C1062 1.368 . S
C1059 C1040 1.429 1_556 S
C1059 C1053 1.429 . S
C1059 C1060 1.523 . S
C1060 C1041 1.368 . S
C1060 C1054 1.368 1_556 S
C1060 C1059 1.523 . S
C1061 C1045 1.429 . S
C1061 C1057 1.396 1_556 S
C1061 C1062 1.523 . S
C1062 C1046 1.368 1_556 S
C1062 C1058 1.368 . S
C1062 C1061 1.523 . S
H1063 C1038 0.950 . S
H1064 C1040 0.950 . S
H1065 C1041 0.949 . S
H1066 C1043 0.950 . S
H1067 C1045 0.950 . S
C1068 C1069 1.349 . S
C1068 C1070 1.327 . S
C1068 H1093 0.950 . S
C1069 C1068 1.349 . S
C1069 C1085 1.349 1_554 S
C1070 C1068 1.327 . S
C1070 C1089 1.429 1_554 S
C1070 H1094 0.950 . S
C1071 C1088 1.574 . S
C1071 C1090 1.368 . S
C1071 H1095 0.949 . S
H1072 C1076 0.949 . S
C1073 C1074 1.349 . S
C1073 C1075 1.327 . S
C1073 H1096 0.950 . S
C1074 C1073 1.349 . S
C1074 C1086 1.349 . S
C1075 C1073 1.327 . S
C1075 C1091 1.429 . S
C1075 H1097 0.950 . S
C1076 H1072 0.949 . S
C1076 C1084 1.574 . S
C1076 C1092 1.368 . S
H1077 C1085 0.950 . S
H1078 C1083 0.950 . S
H1079 C1084 0.949 1_554 S
H1080 C1086 0.950 . S
H1081 C1087 0.950 . S
H1082 C1088 0.949 . S
C1083 H1078 0.950 . S
C1083 C1085 1.327 . S
C1083 C1089 1.429 . S
C1084 C1076 1.574 . S
C1084 H1079 0.949 1_556 S
C1084 C1090 1.368 . S
C1085 C1069 1.349 1_556 S
C1085 H1077 0.950 . S
C1085 C1083 1.327 . S
C1086 C1074 1.349 . S
C1086 H1080 0.950 . S
C1086 C1087 1.327 . S
C1087 H1081 0.950 . S
C1087 C1086 1.327 . S
C1087 C1091 1.429 . S
C1088 C1071 1.574 . S
C1088 H1082 0.949 . S
C1088 C1092 1.368 . S
C1089 C1070 1.429 1_556 S
C1089 C1083 1.429 . S
C1089 C1090 1.523 . S
C1090 C1071 1.368 . S
C1090 C1084 1.368 . S
C1090 C1089 1.523 . S
C1091 C1075 1.429 . S
C1091 C1087 1.429 . S
C1091 C1092 1.523 . S
C1092 C1076 1.368 . S
C1092 C1088 1.368 . S
C1092 C1091 1.523 . S
H1093 C1068 0.950 . S
H1094 C1070 0.950 . S
H1095 C1071 0.949 . S
H1096 C1073 0.950 . S
H1097 C1075 0.950 . S
C1098 C1099 1.349 . S
C1098 C1100 1.327 . S
C1098 H1123 0.950 1_554 S
C1099 C1098 1.349 . S
C1099 C1115 1.349 . S
C1100 C1098 1.327 . S
C1100 C1119 1.429 . S
C1100 H1124 0.950 1_554 S
C1101 C1118 1.574 . S
C1101 C1120 1.368 . S
C1101 H1125 0.949 . S
H1102 C1106 0.949 1_556 S
C1103 C1104 1.349 . S
C1103 C1105 1.327 . S
C1103 H1126 0.950 . S
C1104 C1103 1.349 . S
C1104 C1116 1.349 . S
C1105 C1103 1.327 . S
C1105 C1121 1.429 . S
C1105 H1127 0.950 . S
C1106 H1102 0.949 1_554 S
C1106 C1114 1.574 . S
C1106 C1122 1.368 . S
H1107 C1115 0.950 . S
H1108 C1113 0.950 . S
H1109 C1114 0.949 1_556 S
H1110 C1116 0.950 1_556 S
H1111 C1117 0.950 1_556 S
H1112 C1118 0.949 . S
C1113 H1108 0.950 . S
C1113 C1115 1.327 . S
C1113 C1119 1.429 . S
C1114 C1106 1.574 . S
C1114 H1109 0.949 1_554 S
C1114 C1120 1.368 . S
C1115 C1099 1.349 . S
C1115 H1107 0.950 . S
C1115 C1113 1.327 . S
C1116 C1104 1.349 . S
C1116 H1110 0.950 1_554 S
C1116 C1117 1.327 . S
C1117 H1111 0.950 1_554 S
C1117 C1116 1.327 . S
C1117 C1121 1.429 . S
C1118 C1101 1.574 . S
C1118 H1112 0.949 . S
C1118 C1122 1.368 . S
C1119 C1100 1.429 . S
C1119 C1113 1.429 . S
C1119 C1120 1.523 . S
C1120 C1101 1.368 . S
C1120 C1114 1.368 . S
C1120 C1119 1.523 . S
C1121 C1105 1.429 . S
C1121 C1117 1.429 . S
C1121 C1122 1.523 . S
C1122 C1106 1.368 . S
C1122 C1118 1.368 . S
C1122 C1121 1.523 . S
H1123 C1098 0.950 1_556 S
H1124 C1100 0.950 1_556 S
H1125 C1101 0.949 . S
H1126 C1103 0.950 . S
H1127 C1105 0.950 . S
C1128 C1129 1.349 . S
C1128 C1130 1.327 . S
C1128 H1153 0.950 . S
C1129 C1128 1.349 . S
C1129 C1145 1.349 . S
C1130 C1128 1.327 . S
C1130 C1149 1.429 . S
C1130 H1154 0.950 . S
C1131 C1148 1.574 . S
C1131 C1150 1.368 . S
C1131 H1155 0.949 . S
H1132 C1136 0.949 . S
C1133 C1134 1.349 . S
C1133 C1135 1.327 . S
C1133 H1156 0.950 . S
C1134 C1133 1.349 . S
C1134 C1146 1.349 . S
C1135 C1133 1.327 . S
C1135 C1151 1.429 . S
C1135 H1157 0.950 . S
C1136 H1132 0.949 . S
C1136 C1144 1.574 . S
C1136 C1152 1.368 . S
H1137 C1145 0.950 . S
H1138 C1143 0.950 . S
H1139 C1144 0.949 . S
H1140 C1146 0.950 . S
H1141 C1147 0.950 . S
H1142 C1148 0.949 . S
C1143 H1138 0.950 . S
C1143 C1145 1.327 . S
C1143 C1149 1.429 . S
C1144 C1136 1.574 . S
C1144 H1139 0.949 . S
C1144 C1150 1.368 . S
C1145 C1129 1.349 . S
C1145 H1137 0.950 . S
C1145 C1143 1.327 . S
C1146 C1134 1.349 . S
C1146 H1140 0.950 . S
C1146 C1147 1.327 . S
C1147 H1141 0.950 . S
C1147 C1146 1.327 . S
C1147 C1151 1.429 . S
C1148 C1131 1.574 . S
C1148 H1142 0.949 . S
C1148 C1152 1.368 . S
C1149 C1130 1.429 . S
C1149 C1143 1.429 . S
C1149 C1150 1.523 . S
C1150 C1131 1.368 . S
C1150 C1144 1.368 . S
C1150 C1149 1.523 . S
C1151 C1135 1.429 . S
C1151 C1147 1.429 . S
C1151 C1152 1.523 . S
C1152 C1136 1.368 . S
C1152 C1148 1.368 . S
C1152 C1151 1.523 . S
H1153 C1128 0.950 . S
H1154 C1130 0.950 . S
H1155 C1131 0.949 . S
H1156 C1133 0.950 . S
H1157 C1135 0.950 . S
C1158 C1159 1.349 . S
C1158 C1160 1.327 . S
C1158 H1183 0.950 . S
C1159 C1158 1.349 . S
C1159 C1175 1.349 . S
C1160 C1158 1.327 . S
C1160 C1179 1.429 . S
C1160 H1184 0.950 . S
C1161 C1178 1.580 . S
C1161 C1180 1.368 . S
C1161 H1185 0.949 . S
H1162 C1166 0.950 . S
C1163 C1164 1.349 . S
C1163 C1165 1.327 . S
C1163 H1186 0.950 . S
C1164 C1163 1.349 . S
C1164 C1176 1.349 . S
C1165 C1163 1.327 . S
C1165 C1181 1.429 . S
C1165 H1187 0.950 . S
C1166 H1162 0.950 . S
C1166 C1174 1.572 1_655 S
C1166 C1182 1.369 . S
H1167 C1175 0.950 . S
H1168 C1173 0.950 . S
H1169 C1174 0.949 . S
H1170 C1176 0.950 . S
H1171 C1177 0.950 . S
H1172 C1178 0.946 1_655 S
C1173 H1168 0.950 . S
C1173 C1175 1.327 . S
C1173 C1179 1.429 . S
C1174 C1166 1.572 1_455 S
C1174 H1169 0.949 . S
C1174 C1180 1.368 . S
C1175 C1159 1.349 . S
C1175 H1167 0.950 . S
C1175 C1173 1.327 . S
C1176 C1164 1.349 . S
C1176 H1170 0.950 . S
C1176 C1177 1.327 . S
C1177 H1171 0.950 . S
C1177 C1176 1.327 . S
C1177 C1181 1.429 . S
C1178 C1161 1.580 . S
C1178 H1172 0.946 1_455 S
C1178 C1182 1.366 1_455 S
C1179 C1160 1.429 . S
C1179 C1173 1.429 . S
C1179 C1180 1.523 . S
C1180 C1161 1.368 . S
C1180 C1174 1.368 . S
C1180 C1179 1.523 . S
C1181 C1165 1.429 . S
C1181 C1177 1.429 . S
C1181 C1182 1.523 . S
C1182 C1166 1.369 . S
C1182 C1178 1.366 1_655 S
C1182 C1181 1.523 . S
H1183 C1158 0.950 . S
H1184 C1160 0.950 . S
H1185 C1161 0.949 . S
H1186 C1163 0.950 . S
H1187 C1165 0.950 . S
C1188 C1189 1.349 . S
C1188 C1190 1.327 . S
C1188 H1213 0.950 . S
C1189 C1188 1.349 . S
C1189 C1205 1.349 . S
C1190 C1188 1.327 . S
C1190 C1209 1.429 . S
C1190 H1214 0.950 . S
C1191 C1208 1.574 . S
C1191 C1210 1.397 . S
C1191 H1215 0.924 1_455 S
H1192 C1196 0.949 . S
C1193 C1194 1.349 . S
C1193 C1195 1.327 . S
C1193 H1216 0.950 1_455 S
C1194 C1193 1.349 . S
C1194 C1206 1.349 . S
C1195 C1193 1.327 . S
C1195 C1211 1.429 . S
C1195 H1217 0.950 1_455 S
C1196 H1192 0.949 . S
C1196 C1204 1.574 . S
C1196 C1212 1.368 . S
H1197 C1205 0.950 1_655 S
H1198 C1203 0.950 1_655 S
H1199 C1204 0.949 . S
H1200 C1206 0.950 . S
H1201 C1207 0.950 . S
H1202 C1208 0.915 1_655 S
C1203 H1198 0.950 1_455 S
C1203 C1205 1.327 . S
C1203 C1209 1.429 . S
C1204 C1196 1.574 . S
C1204 H1199 0.949 . S
C1204 C1210 1.368 . S
C1205 C1189 1.349 . S
C1205 H1197 0.950 1_455 S
C1205 C1203 1.327 . S
C1206 C1194 1.349 . S
C1206 H1200 0.950 . S
C1206 C1207 1.327 . S
C1207 H1201 0.950 . S
C1207 C1206 1.327 . S
C1207 C1211 1.429 . S
C1208 C1191 1.574 . S
C1208 H1202 0.915 1_455 S
C1208 C1212 1.408 . S
C1209 C1190 1.429 . S
C1209 C1203 1.429 . S
C1209 C1210 1.523 . S
C1210 C1191 1.397 . S
C1210 C1204 1.368 . S
C1210 C1209 1.523 . S
C1211 C1195 1.429 . S
C1211 C1207 1.429 . S
C1211 C1212 1.523 . S
C1212 C1196 1.368 . S
C1212 C1208 1.408 . S
C1212 C1211 1.523 . S
H1213 C1188 0.950 . S
H1214 C1190 0.950 . S
H1215 C1191 0.924 1_655 S
H1216 C1193 0.950 1_655 S
H1217 C1195 0.950 1_655 S
C1218 C1219 1.349 1_655 S
C1218 C1220 1.327 . S
C1218 H1243 0.950 . S
C1219 C1218 1.349 1_455 S
C1219 C1235 1.349 . S
C1220 C1218 1.327 . S
C1220 C1239 1.429 . S
C1220 H1244 0.950 . S
C1221 C1238 1.574 . S
C1221 C1240 1.368 1_455 S
C1221 H1245 0.949 . S
H1222 C1226 0.949 . S
C1223 C1224 1.349 . S
C1223 C1225 1.327 . S
C1223 H1246 0.950 . S
C1224 C1223 1.349 . S
C1224 C1236 1.349 . S
C1225 C1223 1.327 . S
C1225 C1241 1.429 . S
C1225 H1247 0.950 1_655 S
C1226 H1222 0.949 . S
C1226 C1234 1.574 . S
C1226 C1242 1.368 . S
H1227 C1235 0.950 . S
H1228 C1233 0.950 . S
H1229 C1234 0.949 . S
H1230 C1236 0.950 . S
H1231 C1237 0.950 . S
H1232 C1238 0.948 . S
C1233 H1228 0.950 . S
C1233 C1235 1.327 . S
C1233 C1239 1.429 1_455 S
C1234 C1226 1.574 . S
C1234 H1229 0.949 . S
C1234 C1240 1.368 . S
C1235 C1219 1.349 . S
C1235 H1227 0.950 . S
C1235 C1233 1.327 . S
C1236 C1224 1.349 . S
C1236 H1230 0.950 . S
C1236 C1237 1.327 . S
C1237 H1231 0.950 . S
C1237 C1236 1.327 . S
C1237 C1241 1.429 . S
C1238 C1221 1.574 . S
C1238 H1232 0.948 . S
C1238 C1242 1.369 1_455 S
C1239 C1220 1.429 . S
C1239 C1233 1.429 1_655 S
C1239 C1240 1.523 . S
C1240 C1221 1.368 1_655 S
C1240 C1234 1.368 . S
C1240 C1239 1.523 . S
C1241 C1225 1.429 . S
C1241 C1237 1.429 . S
C1241 C1242 1.523 . S
C1242 C1226 1.368 . S
C1242 C1238 1.369 1_655 S
C1242 C1241 1.523 . S
H1243 C1218 0.950 . S
H1244 C1220 0.950 . S
H1245 C1221 0.949 . S
H1246 C1223 0.950 . S
H1247 C1225 0.950 1_455 S
C1248 C1249 1.329 1_565 S
C1248 C1250 1.324 1_565 S
C1248 H1273 0.973 . S
C1249 C1248 1.329 1_545 S
C1249 C1265 1.349 . S
C1250 C1248 1.324 1_545 S
C1250 C1269 1.439 . S
C1250 H1274 0.940 1_545 S
C1251 C1268 1.574 . S
C1251 C1270 1.368 . S
C1251 H1275 0.949 . S
H1252 C1256 0.949 1_565 S
C1253 C1254 1.349 . S
C1253 C1255 1.327 . S
C1253 H1276 0.950 . S
C1254 C1253 1.349 . S
C1254 C1266 1.349 . S
C1255 C1253 1.327 . S
C1255 C1271 1.429 . S
C1255 H1277 0.950 . S
C1256 H1252 0.949 1_545 S
C1256 C1264 1.574 . S
C1256 C1272 1.368 . S
H1257 C1265 0.950 . S
H1258 C1263 0.950 . S
H1259 C1264 0.949 1_565 S
H1260 C1266 0.937 1_565 S
H1261 C1267 0.950 1_565 S
H1262 C1268 0.949 . S
C1263 H1258 0.950 . S
C1263 C1265 1.327 . S
C1263 C1269 1.429 . S
C1264 C1256 1.574 . S
C1264 H1259 0.949 1_545 S
C1264 C1270 1.368 . S
C1265 C1249 1.349 . S
C1265 H1257 0.950 . S
C1265 C1263 1.327 . S
C1266 C1254 1.349 . S
C1266 H1260 0.937 1_545 S
C1266 C1267 1.327 . S
C1267 H1261 0.950 1_545 S
C1267 C1266 1.327 . S
C1267 C1271 1.429 . S
C1268 C1251 1.574 . S
C1268 H1262 0.949 . S
C1268 C1272 1.368 . S
C1269 C1250 1.439 . S
C1269 C1263 1.429 . S
C1269 C1270 1.523 . S
C1270 C1251 1.368 . S
C1270 C1264 1.368 . S
C1270 C1269 1.523 . S
C1271 C1255 1.429 . S
C1271 C1267 1.429 . S
C1271 C1272 1.523 . S
C1272 C1256 1.368 . S
C1272 C1268 1.368 . S
C1272 C1271 1.523 . S
H1273 C1248 0.973 . S
H1274 C1250 0.940 1_565 S
H1275 C1251 0.949 . S
H1276 C1253 0.950 . S
H1277 C1255 0.950 . S
C1278 C1279 1.349 . S
C1278 C1280 1.327 . S
C1278 H1303 0.950 . S
C1279 C1278 1.349 . S
C1279 C1295 1.349 . S
C1280 C1278 1.327 . S
C1280 C1299 1.429 . S
C1280 H1304 0.950 . S
C1281 C1298 1.574 . S
C1281 C1300 1.368 . S
C1281 H1305 0.949 . S
H1282 C1286 0.949 . S
C1283 C1284 1.349 . S
C1283 C1285 1.327 . S
C1283 H1306 0.950 . S
C1284 C1283 1.349 . S
C1284 C1296 1.349 . S
C1285 C1283 1.327 . S
C1285 C1301 1.429 . S
C1285 H1307 0.950 . S
C1286 H1282 0.949 . S
C1286 C1294 1.574 . S
C1286 C1302 1.368 . S
H1287 C1295 0.950 . S
H1288 C1293 0.950 . S
H1289 C1294 0.949 . S
H1290 C1296 0.950 . S
H1291 C1297 0.950 . S
H1292 C1298 0.949 . S
C1293 H1288 0.950 . S
C1293 C1295 1.327 . S
C1293 C1299 1.429 . S
C1294 C1286 1.574 . S
C1294 H1289 0.949 . S
C1294 C1300 1.368 . S
C1295 C1279 1.349 . S
C1295 H1287 0.950 . S
C1295 C1293 1.327 . S
C1296 C1284 1.349 . S
C1296 H1290 0.950 . S
C1296 C1297 1.327 . S
C1297 H1291 0.950 . S
C1297 C1296 1.327 . S
C1297 C1301 1.429 . S
C1298 C1281 1.574 . S
C1298 H1292 0.949 . S
C1298 C1302 1.368 . S
C1299 C1280 1.429 . S
C1299 C1293 1.429 . S
C1299 C1300 1.523 . S
C1300 C1281 1.368 . S
C1300 C1294 1.368 . S
C1300 C1299 1.523 . S
C1301 C1285 1.429 . S
C1301 C1297 1.429 . S
C1301 C1302 1.523 . S
C1302 C1286 1.368 . S
C1302 C1298 1.368 . S
C1302 C1301 1.523 . S
H1303 C1278 0.950 . S
H1304 C1280 0.950 . S
H1305 C1281 0.949 . S
H1306 C1283 0.950 . S
H1307 C1285 0.950 . S
C1308 C1309 1.349 . S
C1308 C1310 1.327 . S
C1308 H1333 0.950 . S
C1309 C1308 1.349 . S
C1309 C1325 1.349 . S
C1310 C1308 1.327 . S
C1310 C1329 1.429 . S
C1310 H1334 0.950 . S
C1311 C1328 1.574 . S
C1311 C1330 1.368 . S
C1311 H1335 0.949 . S
H1312 C1316 0.949 . S
C1313 C1314 1.349 . S
C1313 C1315 1.327 . S
C1313 H1336 0.950 . S
C1314 C1313 1.349 . S
C1314 C1326 1.349 . S
C1315 C1313 1.327 . S
C1315 C1331 1.429 . S
C1315 H1337 0.950 . S
C1316 H1312 0.949 . S
C1316 C1324 1.574 . S
C1316 C1332 1.368 . S
H1317 C1325 0.943 1_545 S
H1318 C1323 0.950 . S
H1319 C1324 0.949 . S
H1320 C1326 0.950 . S
H1321 C1327 0.950 . S
H1322 C1328 0.949 . S
C1323 H1318 0.950 . S
C1323 C1325 1.327 . S
C1323 C1329 1.429 . S
C1324 C1316 1.574 . S
C1324 H1319 0.949 . S
C1324 C1330 1.368 . S
C1325 C1309 1.349 . S
C1325 H1317 0.943 1_565 S
C1325 C1323 1.327 . S
C1326 C1314 1.349 . S
C1326 H1320 0.950 . S
C1326 C1327 1.327 . S
C1327 H1321 0.950 . S
C1327 C1326 1.327 . S
C1327 C1331 1.429 . S
C1328 C1311 1.574 . S
C1328 H1322 0.949 . S
C1328 C1332 1.368 . S
C1329 C1310 1.429 . S
C1329 C1323 1.429 . S
C1329 C1330 1.523 . S
C1330 C1311 1.368 . S
C1330 C1324 1.368 . S
C1330 C1329 1.523 . S
C1331 C1315 1.429 . S
C1331 C1327 1.429 . S
C1331 C1332 1.523 . S
C1332 C1316 1.368 . S
C1332 C1328 1.368 . S
C1332 C1331 1.523 . S
H1333 C1308 0.950 . S
H1334 C1310 0.950 . S
H1335 C1311 0.949 . S
H1336 C1313 0.950 . S
H1337 C1315 0.950 . S
C1338 C1339 1.349 . S
C1338 C1340 1.327 . S
C1338 H1363 0.950 . S
C1339 C1338 1.349 . S
C1339 C1355 1.349 . S
C1340 C1338 1.327 . S
C1340 C1359 1.429 . S
C1340 H1364 0.950 . S
C1341 C1358 1.574 . S
C1341 C1360 1.368 . S
C1341 H1365 0.949 . S
H1342 C1346 0.949 . S
C1343 C1344 1.349 . S
C1343 C1345 1.327 . S
C1343 H1366 0.950 . S
C1344 C1343 1.349 . S
C1344 C1356 1.349 . S
C1345 C1343 1.327 . S
C1345 C1361 1.429 . S
C1345 H1367 0.950 . S
C1346 H1342 0.949 . S
C1346 C1354 1.574 . S
C1346 C1362 1.368 . S
H1347 C1355 0.950 . S
H1348 C1353 0.950 . S
H1349 C1354 0.949 . S
H1350 C1356 0.950 . S
H1351 C1357 0.950 . S
H1352 C1358 0.949 . S
C1353 H1348 0.950 . S
C1353 C1355 1.327 . S
C1353 C1359 1.429 . S
C1354 C1346 1.574 . S
C1354 H1349 0.949 . S
C1354 C1360 1.368 . S
C1355 C1339 1.349 . S
C1355 H1347 0.950 . S
C1355 C1353 1.327 . S
C1356 C1344 1.349 . S
C1356 H1350 0.950 . S
C1356 C1357 1.327 . S
C1357 H1351 0.950 . S
C1357 C1356 1.327 . S
C1357 C1361 1.429 . S
C1358 C1341 1.574 . S
C1358 H1352 0.949 . S
C1358 C1362 1.368 . S
C1359 C1340 1.429 . S
C1359 C1353 1.429 . S
C1359 C1360 1.523 . S
C1360 C1341 1.368 . S
C1360 C1354 1.368 . S
C1360 C1359 1.523 . S
C1361 C1345 1.429 . S
C1361 C1357 1.429 . S
C1361 C1362 1.523 . S
C1362 C1346 1.368 . S
C1362 C1358 1.368 . S
C1362 C1361 1.523 . S
H1363 C1338 0.950 . S
H1364 C1340 0.950 . S
H1365 C1341 0.949 . S
H1366 C1343 0.950 . S
H1367 C1345 0.950 . S
C1368 C1369 1.349 . S
C1368 C1370 1.327 . S
C1368 H1393 0.950 1_554 S
C1369 C1368 1.349 . S
C1369 C1385 1.349 . S
C1370 C1368 1.327 . S
C1370 C1389 1.429 . S
C1370 H1394 0.950 1_554 S
C1371 C1388 1.574 . S
C1371 C1390 1.368 . S
C1371 H1395 0.949 . S
H1372 C1376 0.949 1_556 S
C1373 C1374 1.349 . S
C1373 C1375 1.327 . S
C1373 H1396 0.950 . S
C1374 C1373 1.349 . S
C1374 C1386 1.349 . S
C1375 C1373 1.327 . S
C1375 C1391 1.429 . S
C1375 H1397 0.950 . S
C1376 H1372 0.949 1_554 S
C1376 C1384 1.574 . S
C1376 C1392 1.368 . S
H1377 C1385 0.950 . S
H1378 C1383 0.950 . S
H1379 C1384 0.949 1_556 S
H1380 C1386 0.950 1_556 S
H1381 C1387 0.950 1_556 S
H1382 C1388 0.949 . S
C1383 H1378 0.950 . S
C1383 C1385 1.327 . S
C1383 C1389 1.429 . S
C1384 C1376 1.574 . S
C1384 H1379 0.949 1_554 S
C1384 C1390 1.368 . S
C1385 C1369 1.349 . S
C1385 H1377 0.950 . S
C1385 C1383 1.327 . S
C1386 C1374 1.349 . S
C1386 H1380 0.950 1_554 S
C1386 C1387 1.327 . S
C1387 H1381 0.950 1_554 S
C1387 C1386 1.327 . S
C1387 C1391 1.429 . S
C1388 C1371 1.574 . S
C1388 H1382 0.949 . S
C1388 C1392 1.368 . S
C1389 C1370 1.429 . S
C1389 C1383 1.429 . S
C1389 C1390 1.523 . S
C1390 C1371 1.368 . S
C1390 C1384 1.368 . S
C1390 C1389 1.523 . S
C1391 C1375 1.429 . S
C1391 C1387 1.429 . S
C1391 C1392 1.523 . S
C1392 C1376 1.368 . S
C1392 C1388 1.368 . S
C1392 C1391 1.523 . S
H1393 C1368 0.950 1_556 S
H1394 C1370 0.950 1_556 S
H1395 C1371 0.949 . S
H1396 C1373 0.950 . S
H1397 C1375 0.950 . S
C1398 C1399 1.349 . S
C1398 C1400 1.327 . S
C1398 H1423 0.950 . S
C1399 C1398 1.349 . S
C1399 C1415 1.349 . S
C1400 C1398 1.327 . S
C1400 C1419 1.429 . S
C1400 H1424 0.950 . S
C1401 C1418 1.574 . S
C1401 C1420 1.368 . S
C1401 H1425 0.949 . S
H1402 C1406 0.949 . S
C1403 C1404 1.349 . S
C1403 C1405 1.327 . S
C1403 H1426 0.950 . S
C1404 C1403 1.349 . S
C1404 C1416 1.349 . S
C1405 C1403 1.327 . S
C1405 C1421 1.429 . S
C1405 H1427 0.950 . S
C1406 H1402 0.949 . S
C1406 C1414 1.574 . S
C1406 C1422 1.368 . S
H1407 C1415 0.950 . S
H1408 C1413 0.950 . S
H1409 C1414 0.949 . S
H1410 C1416 0.950 . S
H1411 C1417 0.950 . S
H1412 C1418 0.949 . S
C1413 H1408 0.950 . S
C1413 C1415 1.327 . S
C1413 C1419 1.429 . S
C1414 C1406 1.574 . S
C1414 H1409 0.949 . S
C1414 C1420 1.368 . S
C1415 C1399 1.349 . S
C1415 H1407 0.950 . S
C1415 C1413 1.327 . S
C1416 C1404 1.349 . S
C1416 H1410 0.950 . S
C1416 C1417 1.327 . S
C1417 H1411 0.950 . S
C1417 C1416 1.327 . S
C1417 C1421 1.429 . S
C1418 C1401 1.574 . S
C1418 H1412 0.949 . S
C1418 C1422 1.368 . S
C1419 C1400 1.429 . S
C1419 C1413 1.429 . S
C1419 C1420 1.523 . S
C1420 C1401 1.368 . S
C1420 C1414 1.368 . S
C1420 C1419 1.523 . S
C1421 C1405 1.429 . S
C1421 C1417 1.429 . S
C1421 C1422 1.523 . S
C1422 C1406 1.368 . S
C1422 C1418 1.368 . S
C1422 C1421 1.523 . S
H1423 C1398 0.950 . S
H1424 C1400 0.950 . S
H1425 C1401 0.949 . S
H1426 C1403 0.950 . S
H1427 C1405 0.950 . S
C1428 C1429 1.349 . S
C1428 C1430 1.327 . S
C1428 H1453 0.950 . S
C1429 C1428 1.349 . S
C1429 C1445 1.349 . S
C1430 C1428 1.327 . S
C1430 C1449 1.429 . S
C1430 H1454 0.950 . S
C1431 C1448 1.574 . S
C1431 C1450 1.368 . S
C1431 H1455 0.949 . S
H1432 C1436 0.949 . S
C1433 C1434 1.349 . S
C1433 C1435 1.327 . S
C1433 H1456 0.950 . S
C1434 C1433 1.349 . S
C1434 C1446 1.349 . S
C1435 C1433 1.327 . S
C1435 C1451 1.429 . S
C1435 H1457 0.950 . S
C1436 H1432 0.949 . S
C1436 C1444 1.574 . S
C1436 C1452 1.368 . S
H1437 C1445 0.950 . S
H1438 C1443 0.950 . S
H1439 C1444 0.949 . S
H1440 C1446 0.950 . S
H1441 C1447 0.950 . S
H1442 C1448 0.949 . S
C1443 H1438 0.950 . S
C1443 C1445 1.327 . S
C1443 C1449 1.429 . S
C1444 C1436 1.574 . S
C1444 H1439 0.949 . S
C1444 C1450 1.368 . S
C1445 C1429 1.349 . S
C1445 H1437 0.950 . S
C1445 C1443 1.327 . S
C1446 C1434 1.349 . S
C1446 H1440 0.950 . S
C1446 C1447 1.327 . S
C1447 H1441 0.950 . S
C1447 C1446 1.327 . S
C1447 C1451 1.429 . S
C1448 C1431 1.574 . S
C1448 H1442 0.949 . S
C1448 C1452 1.368 . S
C1449 C1430 1.429 . S
C1449 C1443 1.429 . S
C1449 C1450 1.523 . S
C1450 C1431 1.368 . S
C1450 C1444 1.368 . S
C1450 C1449 1.523 . S
C1451 C1435 1.429 . S
C1451 C1447 1.429 . S
C1451 C1452 1.523 . S
C1452 C1436 1.368 . S
C1452 C1448 1.368 . S
C1452 C1451 1.523 . S
H1453 C1428 0.950 . S
H1454 C1430 0.950 . S
H1455 C1431 0.949 . S
H1456 C1433 0.950 . S
H1457 C1435 0.950 . S
C1458 C1459 1.349 . S
C1458 C1460 1.327 . S
C1458 H1483 0.950 . S
C1459 C1458 1.349 . S
C1459 C1475 1.349 . S
C1460 C1458 1.327 . S
C1460 C1479 1.429 . S
C1460 H1484 0.950 . S
C1461 C1478 1.574 . S
C1461 C1480 1.368 . S
C1461 H1485 0.949 . S
H1462 C1466 0.949 . S
C1463 C1464 1.349 . S
C1463 C1465 1.327 . S
C1463 H1486 0.950 . S
C1464 C1463 1.349 . S
C1464 C1476 1.349 . S
C1465 C1463 1.327 . S
C1465 C1481 1.429 . S
C1465 H1487 0.950 . S
C1466 H1462 0.949 . S
C1466 C1474 1.574 . S
C1466 C1482 1.368 . S
H1467 C1475 0.950 . S
H1468 C1473 0.950 . S
H1469 C1474 0.949 . S
H1470 C1476 0.950 . S
H1471 C1477 0.950 . S
H1472 C1478 0.949 . S
C1473 H1468 0.950 . S
C1473 C1475 1.327 . S
C1473 C1479 1.429 . S
C1474 C1466 1.574 . S
C1474 H1469 0.949 . S
C1474 C1480 1.368 . S
C1475 C1459 1.349 . S
C1475 H1467 0.950 . S
C1475 C1473 1.327 . S
C1476 C1464 1.349 . S
C1476 H1470 0.950 . S
C1476 C1477 1.327 . S
C1477 H1471 0.950 . S
C1477 C1476 1.327 . S
C1477 C1481 1.429 . S
C1478 C1461 1.574 . S
C1478 H1472 0.949 . S
C1478 C1482 1.368 . S
C1479 C1460 1.429 . S
C1479 C1473 1.429 . S
C1479 C1480 1.523 . S
C1480 C1461 1.368 . S
C1480 C1474 1.368 . S
C1480 C1479 1.523 . S
C1481 C1465 1.429 . S
C1481 C1477 1.429 . S
C1481 C1482 1.523 . S
C1482 C1466 1.368 . S
C1482 C1478 1.368 . S
C1482 C1481 1.523 . S
H1483 C1458 0.950 . S
H1484 C1460 0.950 . S
H1485 C1461 0.949 . S
H1486 C1463 0.950 . S
H1487 C1465 0.950 . S
C1488 C1489 1.349 . S
C1488 C1490 1.327 . S
C1488 H1513 0.950 . S
C1489 C1488 1.349 . S
C1489 C1505 1.349 . S
C1490 C1488 1.327 . S
C1490 C1509 1.429 . S
C1490 H1514 0.950 . S
C1491 C1508 1.574 . S
C1491 C1510 1.368 . S
C1491 H1515 0.949 . S
H1492 C1496 0.949 . S
C1493 C1494 1.349 . S
C1493 C1495 1.327 . S
C1493 H1516 0.950 . S
C1494 C1493 1.349 . S
C1494 C1506 1.349 . S
C1495 C1493 1.327 . S
C1495 C1511 1.429 . S
C1495 H1517 0.950 . S
C1496 H1492 0.949 . S
C1496 C1504 1.574 . S
C1496 C1512 1.368 . S
H1497 C1505 0.950 . S
H1498 C1503 0.950 . S
H1499 C1504 0.949 . S
H1500 C1506 0.950 . S
H1501 C1507 0.950 . S
H1502 C1508 0.949 . S
C1503 H1498 0.950 . S
C1503 C1505 1.327 . S
C1503 C1509 1.429 . S
C1504 C1496 1.574 . S
C1504 H1499 0.949 . S
C1504 C1510 1.368 . S
C1505 C1489 1.349 . S
C1505 H1497 0.950 . S
C1505 C1503 1.327 . S
C1506 C1494 1.349 . S
C1506 H1500 0.950 . S
C1506 C1507 1.327 . S
C1507 H1501 0.950 . S
C1507 C1506 1.327 . S
C1507 C1511 1.429 . S
C1508 C1491 1.574 . S
C1508 H1502 0.949 . S
C1508 C1512 1.368 . S
C1509 C1490 1.429 . S
C1509 C1503 1.429 . S
C1509 C1510 1.523 . S
C1510 C1491 1.368 . S
C1510 C1504 1.368 . S
C1510 C1509 1.523 . S
C1511 C1495 1.429 . S
C1511 C1507 1.429 . S
C1511 C1512 1.523 . S
C1512 C1496 1.368 . S
C1512 C1508 1.368 . S
C1512 C1511 1.523 . S
H1513 C1488 0.950 . S
H1514 C1490 0.950 . S
H1515 C1491 0.949 . S
H1516 C1493 0.950 . S
H1517 C1495 0.950 . S
C1518 C1519 1.349 . S
C1518 C1520 1.327 . S
C1518 H1543 0.950 . S
C1519 C1518 1.349 . S
C1519 C1535 1.349 . S
C1520 C1518 1.327 . S
C1520 C1539 1.429 . S
C1520 H1544 0.950 . S
C1521 C1538 1.574 . S
C1521 C1540 1.368 . S
C1521 H1545 0.949 . S
H1522 C1526 0.949 . S
C1523 C1524 1.349 . S
C1523 C1525 1.327 . S
C1523 H1546 0.950 . S
C1524 C1523 1.349 . S
C1524 C1536 1.349 . S
C1525 C1523 1.327 . S
C1525 C1541 1.429 . S
C1525 H1547 0.950 . S
C1526 H1522 0.949 . S
C1526 C1534 1.574 . S
C1526 C1542 1.368 . S
H1527 C1535 0.950 . S
H1528 C1533 0.950 . S
H1529 C1534 0.949 . S
H1530 C1536 0.950 . S
H1531 C1537 0.950 . S
H1532 C1538 0.949 . S
C1533 H1528 0.950 . S
C1533 C1535 1.327 . S
C1533 C1539 1.429 . S
C1534 C1526 1.574 . S
C1534 H1529 0.949 . S
C1534 C1540 1.368 . S
C1535 C1519 1.349 . S
C1535 H1527 0.950 . S
C1535 C1533 1.327 . S
C1536 C1524 1.349 . S
C1536 H1530 0.950 . S
C1536 C1537 1.327 . S
C1537 H1531 0.950 . S
C1537 C1536 1.327 . S
C1537 C1541 1.429 . S
C1538 C1521 1.574 . S
C1538 H1532 0.949 . S
C1538 C1542 1.368 . S
C1539 C1520 1.429 . S
C1539 C1533 1.429 . S
C1539 C1540 1.523 . S
C1540 C1521 1.368 . S
C1540 C1534 1.368 . S
C1540 C1539 1.523 . S
C1541 C1525 1.429 . S
C1541 C1537 1.429 . S
C1541 C1542 1.523 . S
C1542 C1526 1.368 . S
C1542 C1538 1.368 . S
C1542 C1541 1.523 . S
H1543 C1518 0.950 . S
H1544 C1520 0.950 . S
H1545 C1521 0.949 . S
H1546 C1523 0.950 . S
H1547 C1525 0.950 . S
C1548 C1549 1.349 . S
C1548 C1550 1.327 . S
C1548 H1573 0.950 . S
C1549 C1548 1.349 . S
C1549 C1565 1.349 . S
C1550 C1548 1.327 . S
C1550 C1569 1.429 . S
C1550 H1574 0.950 . S
C1551 C1568 1.574 . S
C1551 C1570 1.368 . S
C1551 H1575 0.949 . S
H1552 C1556 0.949 . S
C1553 C1554 1.349 . S
C1553 C1555 1.327 . S
C1553 H1576 0.950 . S
C1554 C1553 1.349 . S
C1554 C1566 1.349 . S
C1555 C1553 1.327 . S
C1555 C1571 1.429 . S
C1555 H1577 0.950 . S
C1556 H1552 0.949 . S
C1556 C1564 1.574 . S
C1556 C1572 1.368 . S
H1557 C1565 0.950 . S
H1558 C1563 0.950 . S
H1559 C1564 0.949 . S
H1560 C1566 0.950 . S
H1561 C1567 0.950 . S
H1562 C1568 0.949 . S
C1563 H1558 0.950 . S
C1563 C1565 1.327 . S
C1563 C1569 1.429 . S
C1564 C1556 1.574 . S
C1564 H1559 0.949 . S
C1564 C1570 1.368 . S
C1565 C1549 1.349 . S
C1565 H1557 0.950 . S
C1565 C1563 1.327 . S
C1566 C1554 1.349 . S
C1566 H1560 0.950 . S
C1566 C1567 1.327 . S
C1567 H1561 0.950 . S
C1567 C1566 1.327 . S
C1567 C1571 1.429 . S
C1568 C1551 1.574 . S
C1568 H1562 0.949 . S
C1568 C1572 1.368 . S
C1569 C1550 1.429 . S
C1569 C1563 1.429 . S
C1569 C1570 1.523 . S
C1570 C1551 1.368 . S
C1570 C1564 1.368 . S
C1570 C1569 1.523 . S
C1571 C1555 1.429 . S
C1571 C1567 1.429 . S
C1571 C1572 1.523 . S
C1572 C1556 1.368 . S
C1572 C1568 1.368 . S
C1572 C1571 1.523 . S
H1573 C1548 0.950 . S
H1574 C1550 0.950 . S
H1575 C1551 0.949 . S
H1576 C1553 0.950 . S
H1577 C1555 0.950 . S
C1578 C1579 1.349 . S
C1578 C1580 1.327 . S
C1578 H1603 0.950 . S
C1579 C1578 1.349 . S
C1579 C1595 1.349 . S
C1580 C1578 1.327 . S
C1580 C1599 1.429 . S
C1580 H1604 0.950 . S
C1581 C1598 1.574 . S
C1581 C1600 1.368 . S
C1581 H1605 0.949 . S
H1582 C1586 0.949 . S
C1583 C1584 1.349 . S
C1583 C1585 1.327 . S
C1583 H1606 0.950 . S
C1584 C1583 1.349 . S
C1584 C1596 1.349 . S
C1585 C1583 1.327 . S
C1585 C1601 1.429 . S
C1585 H1607 0.950 . S
C1586 H1582 0.949 . S
C1586 C1594 1.574 . S
C1586 C1602 1.368 . S
H1587 C1595 0.950 . S
H1588 C1593 0.950 . S
H1589 C1594 0.949 . S
H1590 C1596 0.950 . S
H1591 C1597 0.950 . S
H1592 C1598 0.949 . S
C1593 H1588 0.950 . S
C1593 C1595 1.327 . S
C1593 C1599 1.429 . S
C1594 C1586 1.574 . S
C1594 H1589 0.949 . S
C1594 C1600 1.368 . S
C1595 C1579 1.349 . S
C1595 H1587 0.950 . S
C1595 C1593 1.327 . S
C1596 C1584 1.349 . S
C1596 H1590 0.950 . S
C1596 C1597 1.327 . S
C1597 H1591 0.950 . S
C1597 C1596 1.327 . S
C1597 C1601 1.429 . S
C1598 C1581 1.574 . S
C1598 H1592 0.949 . S
C1598 C1602 1.368 . S
C1599 C1580 1.429 . S
C1599 C1593 1.429 . S
C1599 C1600 1.523 . S
C1600 C1581 1.368 . S
C1600 C1594 1.368 . S
C1600 C1599 1.523 . S
C1601 C1585 1.429 . S
C1601 C1597 1.429 . S
C1601 C1602 1.523 . S
C1602 C1586 1.368 . S
C1602 C1598 1.368 . S
C1602 C1601 1.523 . S
H1603 C1578 0.950 . S
H1604 C1580 0.950 . S
H1605 C1581 0.949 . S
H1606 C1583 0.950 . S
H1607 C1585 0.950 . S
C1608 C1609 1.349 . S
C1608 C1610 1.327 . S
C1608 H1633 0.950 . S
C1609 C1608 1.349 . S
C1609 C1625 1.349 . S
C1610 C1608 1.327 . S
C1610 C1629 1.429 . S
C1610 H1634 0.950 . S
C1611 C1628 1.574 . S
C1611 C1630 1.368 . S
C1611 H1635 0.949 . S
H1612 C1616 0.949 . S
C1613 C1614 1.349 . S
C1613 C1615 1.327 . S
C1613 H1636 0.950 . S
C1614 C1613 1.349 . S
C1614 C1626 1.349 . S
C1615 C1613 1.327 . S
C1615 C1631 1.429 . S
C1615 H1637 0.950 . S
C1616 H1612 0.949 . S
C1616 C1624 1.574 . S
C1616 C1632 1.368 . S
H1617 C1625 0.950 . S
H1618 C1623 0.950 . S
H1619 C1624 0.949 . S
H1620 C1626 0.950 . S
H1621 C1627 0.950 . S
H1622 C1628 0.949 . S
C1623 H1618 0.950 . S
C1623 C1625 1.327 . S
C1623 C1629 1.429 . S
C1624 C1616 1.574 . S
C1624 H1619 0.949 . S
C1624 C1630 1.368 . S
C1625 C1609 1.349 . S
C1625 H1617 0.950 . S
C1625 C1623 1.327 . S
C1626 C1614 1.349 . S
C1626 H1620 0.950 . S
C1626 C1627 1.327 . S
C1627 H1621 0.950 . S
C1627 C1626 1.327 . S
C1627 C1631 1.429 . S
C1628 C1611 1.574 . S
C1628 H1622 0.949 . S
C1628 C1632 1.368 . S
C1629 C1610 1.429 . S
C1629 C1623 1.429 . S
C1629 C1630 1.523 . S
C1630 C1611 1.368 . S
C1630 C1624 1.368 . S
C1630 C1629 1.523 . S
C1631 C1615 1.429 . S
C1631 C1627 1.429 . S
C1631 C1632 1.523 . S
C1632 C1616 1.368 . S
C1632 C1628 1.368 . S
C1632 C1631 1.523 . S
H1633 C1608 0.950 . S
H1634 C1610 0.950 . S
H1635 C1611 0.949 . S
H1636 C1613 0.950 . S
H1637 C1615 0.950 . S
C1638 C1639 1.349 1_545 S
C1638 C1640 1.327 . S
C1638 H1663 0.950 . S
C1639 C1638 1.349 1_565 S
C1639 C1655 1.349 . S
C1640 C1638 1.327 . S
C1640 C1659 1.429 1_545 S
C1640 H1664 0.950 . S
C1641 C1658 1.574 . S
C1641 C1660 1.368 . S
C1641 H1665 0.949 . S
H1642 C1646 0.949 1_545 S
C1643 C1644 1.349 . S
C1643 C1645 1.327 . S
C1643 H1666 0.950 . S
C1644 C1643 1.349 . S
C1644 C1656 1.349 . S
C1645 C1643 1.327 . S
C1645 C1661 1.429 . S
C1645 H1667 0.950 . S
C1646 H1642 0.949 1_565 S
C1646 C1654 1.574 . S
C1646 C1662 1.368 . S
H1647 C1655 0.950 . S
H1648 C1653 0.950 . S
H1649 C1654 0.949 1_545 S
H1650 C1656 0.950 . S
H1651 C1657 0.950 . S
H1652 C1658 0.949 . S
C1653 H1648 0.950 . S
C1653 C1655 1.327 . S
C1653 C1659 1.429 . S
C1654 C1646 1.574 . S
C1654 H1649 0.949 1_565 S
C1654 C1660 1.368 . S
C1655 C1639 1.349 . S
C1655 H1647 0.950 . S
C1655 C1653 1.327 . S
C1656 C1644 1.349 . S
C1656 H1650 0.950 . S
C1656 C1657 1.327 . S
C1657 H1651 0.950 . S
C1657 C1656 1.327 . S
C1657 C1661 1.429 . S
C1658 C1641 1.574 . S
C1658 H1652 0.949 . S
C1658 C1662 1.368 . S
C1659 C1640 1.429 1_565 S
C1659 C1653 1.429 . S
C1659 C1660 1.523 . S
C1660 C1641 1.368 . S
C1660 C1654 1.368 . S
C1660 C1659 1.523 . S
C1661 C1645 1.429 . S
C1661 C1657 1.429 . S
C1661 C1662 1.523 . S
C1662 C1646 1.368 . S
C1662 C1658 1.368 . S
C1662 C1661 1.523 . S
H1663 C1638 0.950 . S
H1664 C1640 0.950 . S
H1665 C1641 0.949 . S
H1666 C1643 0.950 . S
H1667 C1645 0.950 . S
C1668 C1669 1.349 . S
C1668 C1670 1.327 . S
C1668 H1693 0.950 . S
C1669 C1668 1.349 . S
C1669 C1685 1.349 . S
C1670 C1668 1.327 . S
C1670 C1689 1.429 . S
C1670 H1694 0.950 . S
C1671 C1688 1.574 . S
C1671 C1690 1.368 . S
C1671 H1695 0.949 . S
H1672 C1676 0.949 . S
C1673 C1674 1.349 . S
C1673 C1675 1.327 . S
C1673 H1696 0.950 . S
C1674 C1673 1.349 . S
C1674 C1686 1.349 . S
C1675 C1673 1.327 . S
C1675 C1691 1.429 . S
C1675 H1697 0.950 . S
C1676 H1672 0.949 . S
C1676 C1684 1.574 . S
C1676 C1692 1.368 . S
H1677 C1685 0.950 . S
H1678 C1683 0.950 . S
H1679 C1684 0.949 . S
H1680 C1686 0.950 . S
H1681 C1687 0.950 . S
H1682 C1688 0.949 . S
C1683 H1678 0.950 . S
C1683 C1685 1.327 . S
C1683 C1689 1.429 . S
C1684 C1676 1.574 . S
C1684 H1679 0.949 . S
C1684 C1690 1.368 . S
C1685 C1669 1.349 . S
C1685 H1677 0.950 . S
C1685 C1683 1.327 . S
C1686 C1674 1.349 . S
C1686 H1680 0.950 . S
C1686 C1687 1.327 . S
C1687 H1681 0.950 . S
C1687 C1686 1.327 . S
C1687 C1691 1.429 . S
C1688 C1671 1.574 . S
C1688 H1682 0.949 . S
C1688 C1692 1.368 . S
C1689 C1670 1.429 . S
C1689 C1683 1.429 . S
C1689 C1690 1.523 . S
C1690 C1671 1.368 . S
C1690 C1684 1.368 . S
C1690 C1689 1.523 . S
C1691 C1675 1.429 . S
C1691 C1687 1.429 . S
C1691 C1692 1.523 . S
C1692 C1676 1.368 . S
C1692 C1688 1.368 . S
C1692 C1691 1.523 . S
H1693 C1668 0.950 . S
H1694 C1670 0.950 . S
H1695 C1671 0.949 . S
H1696 C1673 0.950 . S
H1697 C1675 0.950 . S
C1698 C1699 1.364 . S
C1698 C1700 1.328 . S
C1698 H1723 0.934 1_545 S
C1699 C1698 1.364 . S
C1699 C1715 1.349 . S
C1700 C1698 1.328 . S
C1700 C1719 1.429 . S
C1700 H1724 0.950 1_545 S
C1701 C1718 1.574 . S
C1701 C1720 1.368 . S
C1701 H1725 0.949 . S
H1702 C1706 0.949 1_565 S
C1703 C1704 1.349 . S
C1703 C1705 1.327 . S
C1703 H1726 0.950 . S
C1704 C1703 1.349 . S
C1704 C1716 1.349 . S
C1705 C1703 1.327 . S
C1705 C1721 1.429 . S
C1705 H1727 0.950 . S
C1706 H1702 0.949 1_545 S
C1706 C1714 1.574 . S
C1706 C1722 1.368 . S
H1707 C1715 0.950 . S
H1708 C1713 0.950 . S
H1709 C1714 0.949 1_565 S
H1710 C1716 0.950 . S
H1711 C1717 0.950 . S
H1712 C1718 0.949 . S
C1713 H1708 0.950 . S
C1713 C1715 1.327 . S
C1713 C1719 1.429 . S
C1714 C1706 1.574 . S
C1714 H1709 0.949 1_545 S
C1714 C1720 1.368 . S
C1715 C1699 1.349 . S
C1715 H1707 0.950 . S
C1715 C1713 1.327 . S
C1716 C1704 1.349 . S
C1716 H1710 0.950 . S
C1716 C1717 1.327 . S
C1717 H1711 0.950 . S
C1717 C1716 1.327 . S
C1717 C1721 1.429 . S
C1718 C1701 1.574 . S
C1718 H1712 0.949 . S
C1718 C1722 1.368 . S
C1719 C1700 1.429 . S
C1719 C1713 1.429 . S
C1719 C1720 1.523 . S
C1720 C1701 1.368 . S
C1720 C1714 1.368 . S
C1720 C1719 1.523 . S
C1721 C1705 1.429 . S
C1721 C1717 1.429 . S
C1721 C1722 1.523 . S
C1722 C1706 1.368 . S
C1722 C1718 1.368 . S
C1722 C1721 1.523 . S
H1723 C1698 0.934 1_565 S
H1724 C1700 0.950 1_565 S
H1725 C1701 0.949 . S
H1726 C1703 0.950 . S
H1727 C1705 0.950 . S
C1728 C1729 1.349 . S
C1728 C1730 1.327 . S
C1728 H1753 0.950 . S
C1729 C1728 1.349 . S
C1729 C1745 1.349 . S
C1730 C1728 1.327 . S
C1730 C1749 1.429 . S
C1730 H1754 0.950 . S
C1731 C1748 1.574 . S
C1731 C1750 1.368 . S
C1731 H1755 0.949 . S
H1732 C1736 0.949 . S
C1733 C1734 1.349 . S
C1733 C1735 1.327 . S
C1733 H1756 0.950 . S
C1734 C1733 1.349 . S
C1734 C1746 1.349 . S
C1735 C1733 1.327 . S
C1735 C1751 1.429 . S
C1735 H1757 0.950 . S
C1736 H1732 0.949 . S
C1736 C1744 1.574 . S
C1736 C1752 1.368 . S
H1737 C1745 0.950 . S
H1738 C1743 0.950 . S
H1739 C1744 0.949 . S
H1740 C1746 0.950 . S
H1741 C1747 0.950 . S
H1742 C1748 0.949 . S
C1743 H1738 0.950 . S
C1743 C1745 1.327 . S
C1743 C1749 1.429 . S
C1744 C1736 1.574 . S
C1744 H1739 0.949 . S
C1744 C1750 1.368 . S
C1745 C1729 1.349 . S
C1745 H1737 0.950 . S
C1745 C1743 1.327 . S
C1746 C1734 1.349 . S
C1746 H1740 0.950 . S
C1746 C1747 1.327 . S
C1747 H1741 0.950 . S
C1747 C1746 1.327 . S
C1747 C1751 1.429 . S
C1748 C1731 1.574 . S
C1748 H1742 0.949 . S
C1748 C1752 1.368 . S
C1749 C1730 1.429 . S
C1749 C1743 1.429 . S
C1749 C1750 1.523 . S
C1750 C1731 1.368 . S
C1750 C1744 1.368 . S
C1750 C1749 1.523 . S
C1751 C1735 1.429 . S
C1751 C1747 1.429 . S
C1751 C1752 1.523 . S
C1752 C1736 1.368 . S
C1752 C1748 1.368 . S
C1752 C1751 1.523 . S
H1753 C1728 0.950 . S
H1754 C1730 0.950 . S
H1755 C1731 0.949 . S
H1756 C1733 0.950 . S
H1757 C1735 0.950 . S
C1758 C1759 1.349 1_556 S
C1758 C1760 1.327 . S
C1758 H1783 0.950 . S
C1759 C1758 1.349 1_554 S
C1759 C1775 1.349 . S
C1760 C1758 1.327 . S
C1760 C1779 1.429 . S
C1760 H1784 0.950 . S
C1761 C1778 1.574 1_554 S
C1761 C1780 1.368 1_554 S
C1761 H1785 0.949 . S
H1762 C1766 0.949 . S
C1763 C1764 1.349 . S
C1763 C1765 1.327 . S
C1763 H1786 0.950 . S
C1764 C1763 1.349 . S
C1764 C1776 1.349 . S
C1765 C1763 1.327 . S
C1765 C1781 1.429 . S
C1765 H1787 0.950 . S
C1766 H1762 0.949 . S
C1766 C1774 1.574 . S
C1766 C1782 1.368 . S
H1767 C1775 0.950 . S
H1768 C1773 0.950 . S
H1769 C1774 0.949 . S
H1770 C1776 0.950 . S
H1771 C1777 0.950 . S
H1772 C1778 0.949 1_554 S
C1773 H1768 0.950 . S
C1773 C1775 1.327 . S
C1773 C1779 1.429 1_554 S
C1774 C1766 1.574 . S
C1774 H1769 0.949 . S
C1774 C1780 1.368 . S
C1775 C1759 1.349 . S
C1775 H1767 0.950 . S
C1775 C1773 1.327 . S
C1776 C1764 1.349 . S
C1776 H1770 0.950 . S
C1776 C1777 1.327 . S
C1777 H1771 0.950 . S
C1777 C1776 1.327 . S
C1777 C1781 1.429 . S
C1778 C1761 1.574 1_556 S
C1778 H1772 0.949 1_556 S
C1778 C1782 1.368 . S
C1779 C1760 1.429 . S
C1779 C1773 1.429 1_556 S
C1779 C1780 1.523 . S
C1780 C1761 1.368 1_556 S
C1780 C1774 1.368 . S
C1780 C1779 1.523 . S
C1781 C1765 1.429 . S
C1781 C1777 1.429 . S
C1781 C1782 1.523 . S
C1782 C1766 1.368 . S
C1782 C1778 1.368 . S
C1782 C1781 1.523 . S
H1783 C1758 0.950 . S
H1784 C1760 0.950 . S
H1785 C1761 0.949 . S
H1786 C1763 0.950 . S
H1787 C1765 0.950 . S
C1788 C1789 1.349 1_556 S
C1788 C1790 1.327 . S
C1788 H1813 0.950 . S
C1789 C1788 1.349 1_554 S
C1789 C1805 1.349 . S
C1790 C1788 1.327 . S
C1790 C1809 1.429 1_556 S
C1790 H1814 0.950 . S
C1791 C1808 1.574 . S
C1791 C1810 1.350 1_554 S
C1791 H1815 0.949 . S
H1792 C1796 0.949 . S
C1793 C1794 1.349 1_554 S
C1793 C1795 1.327 . S
C1793 H1816 0.950 . S
C1794 C1793 1.349 1_556 S
C1794 C1806 1.349 . S
C1795 C1793 1.327 . S
C1795 C1811 1.429 1_554 S
C1795 H1817 0.950 . S
C1796 H1792 0.949 . S
C1796 C1804 1.574 . S
C1796 C1812 1.368 . S
H1797 C1805 0.950 . S
H1798 C1803 0.950 . S
H1799 C1804 0.949 . S
H1800 C1806 0.950 . S
H1801 C1807 0.950 . S
H1802 C1808 0.949 . S
C1803 H1798 0.950 . S
C1803 C1805 1.327 . S
C1803 C1809 1.429 . S
C1804 C1796 1.574 . S
C1804 H1799 0.949 . S
C1804 C1810 1.388 . S
C1805 C1789 1.349 . S
C1805 H1797 0.950 . S
C1805 C1803 1.327 . S
C1806 C1794 1.349 . S
C1806 H1800 0.950 . S
C1806 C1807 1.327 . S
C1807 H1801 0.950 . S
C1807 C1806 1.327 . S
C1807 C1811 1.429 . S
C1808 C1791 1.574 . S
C1808 H1802 0.949 . S
C1808 C1812 1.368 1_554 S
C1809 C1790 1.429 1_554 S
C1809 C1803 1.429 . S
C1809 C1810 1.521 1_554 S
C1810 C1791 1.350 1_556 S
C1810 C1804 1.388 . S
C1810 C1809 1.521 1_556 S
C1811 C1795 1.429 1_556 S
C1811 C1807 1.429 . S
C1811 C1812 1.523 . S
C1812 C1796 1.368 . S
C1812 C1808 1.368 1_556 S
C1812 C1811 1.523 . S
H1813 C1788 0.950 . S
H1814 C1790 0.950 . S
H1815 C1791 0.949 . S
H1816 C1793 0.950 . S
H1817 C1795 0.950 . S
C1818 C1819 1.349 . S
C1818 C1820 1.327 . S
C1818 H1843 0.950 . S
C1819 C1818 1.349 . S
C1819 C1835 1.349 . S
C1820 C1818 1.327 . S
C1820 C1839 1.429 . S
C1820 H1844 0.950 . S
C1821 C1838 1.574 . S
C1821 C1840 1.368 . S
C1821 H1845 0.943 1_554 S
H1822 C1826 0.949 . S
C1823 C1824 1.349 . S
C1823 C1825 1.327 . S
C1823 H1846 0.950 . S
C1824 C1823 1.349 . S
C1824 C1836 1.349 . S
C1825 C1823 1.327 . S
C1825 C1841 1.429 . S
C1825 H1847 0.950 . S
C1826 H1822 0.949 . S
C1826 C1834 1.574 . S
C1826 C1842 1.368 . S
H1827 C1835 0.950 1_556 S
H1828 C1833 0.950 1_556 S
H1829 C1834 0.949 . S
H1830 C1836 0.950 . S
H1831 C1837 0.950 . S
H1832 C1838 0.949 . S
C1833 H1828 0.950 1_554 S
C1833 C1835 1.327 . S
C1833 C1839 1.429 . S
C1834 C1826 1.574 . S
C1834 H1829 0.949 . S
C1834 C1840 1.368 . S
C1835 C1819 1.349 . S
C1835 H1827 0.950 1_554 S
C1835 C1833 1.327 . S
C1836 C1824 1.349 . S
C1836 H1830 0.950 . S
C1836 C1837 1.327 . S
C1837 H1831 0.950 . S
C1837 C1836 1.327 . S
C1837 C1841 1.429 . S
C1838 C1821 1.574 . S
C1838 H1832 0.949 . S
C1838 C1842 1.368 . S
C1839 C1820 1.429 . S
C1839 C1833 1.429 . S
C1839 C1840 1.523 . S
C1840 C1821 1.368 . S
C1840 C1834 1.368 . S
C1840 C1839 1.523 . S
C1841 C1825 1.429 . S
C1841 C1837 1.429 . S
C1841 C1842 1.523 . S
C1842 C1826 1.368 . S
C1842 C1838 1.368 . S
C1842 C1841 1.523 . S
H1843 C1818 0.950 . S
H1844 C1820 0.950 . S
H1845 C1821 0.943 1_556 S
H1846 C1823 0.950 . S
H1847 C1825 0.950 . S
C409 C13 1.577 . S
C414 C255 1.579 . S
C444 N272 1.594 1_455 S
C439 C1 1.719 . S
C474 N174 1.515 . S
C469 C27 1.521 . S
C499 C15 1.174 . S
C504 C199 1.164 . S
C529 C28 1.658 . S
C534 C394 1.649 1_554 S
C559 C55 1.340 . S
C564 N354 1.326 . S
C594 N302 1.510 . S
C589 C40 1.651 . S
C619 C43 1.610 . S
C624 C328 1.605 . S
C654 C214 1.437 1_455 S
C649 C56 1.441 . S
C684 C259 1.697 1_455 S
C679 C83 1.702 . S
C709 C96 1.580 . S
C714 C238 1.589 1_655 S
C739 C71 1.808 . S
C744 C345 1.783 . S
C774 C375 1.549 . S
C769 C99 1.577 . S
C804 N392 1.594 . S
C799 C111 1.719 . S
C829 C113 1.521 . S
C834 N324 1.515 . S
C864 C289 1.164 . S
C859 C125 1.168 . S
C889 C139 1.658 . S
C894 C274 1.649 . S
C919 C153 1.340 . S
C924 N234 1.327 . S
C954 N212 1.510 . S
C949 C127 1.652 . S
C979 C141 1.609 . S
C984 C178 1.605 1_556 S
C1014 C304 1.437 . S
C1009 C84 1.440 . S
C1044 C379 1.697 . S
C1039 C154 1.702 . S
C1069 C68 1.580 . S
C1074 C358 1.589 . S
C1099 C166 1.807 . S
C1104 C195 1.783 1_655 S
C1134 C169 1.161 . S
C1129 C0 1.179 . S
C1159 C12 0.889 . S
C1164 N204 0.885 . S
C1194 N242 1.046 . S
C1189 C14 1.112 . S
C1224 C285 1.669 . S
C1219 C26 1.660 . S
C1249 C41 1.399 . S
C1254 C184 1.387 . S
C1279 C42 1.591 . S
C1284 C225 1.572 . S
C1314 C229 1.137 . S
C1309 C29 1.156 . S
C1339 C54 1.414 . S
C1344 C268 1.396 . S
C1369 C69 0.908 . S
C1374 N182 0.884 . S
C1404 C244 1.772 . S
C1399 C70 1.773 . S
C1429 C85 1.138 . S
C1434 N264 1.131 . S
C1459 C82 1.307 . S
C1464 C298 1.292 . S
C1494 C319 1.161 . S
C1489 C110 1.179 . S
C1519 C98 0.888 . S
C1524 N294 0.885 . S
C1549 C124 1.112 . S
C1554 N362 1.046 . S
C1579 C112 1.660 . S
C1584 C405 1.670 . S
C1609 C126 1.400 . S
C1614 C334 1.388 . S
C1644 C315 1.572 . S
C1639 C140 1.591 . S
C1669 C138 1.156 . S
C1674 C349 1.137 . S
C1704 C388 1.396 . S
C1699 C152 1.414 . S
C1734 N332 0.884 . S
C1729 C97 0.908 . S
C1764 C364 1.772 . S
C1759 C167 1.773 . S
C1794 N384 1.131 . S
C1789 C57 1.138 . S
C1819 C155 1.307 . S
C1824 C208 1.292 . S
