# Generated by pormake.
# Topology ocu, (6,8)-cn, num edge types: 1
# Building blocks:
#     Node 0, Type 0, BuildingBlock: KUMBOL_clean_sbu_1, # of connection points: 6
#     Node 1, Type 0, BuildingBlock: KUMBOL_clean_sbu_1, # of connection points: 6
#     Node 2, Type 0, BuildingBlock: KUMBOL_clean_sbu_1, # of connection points: 6
#     Node 3, Type 0, BuildingBlock: KUMBOL_clean_sbu_1, # of connection points: 6
#     Node 4, Type 0, BuildingBlock: KUMBOL_clean_sbu_1, # of connection points: 6
#     Node 5, Type 0, BuildingBlock: KUMBOL_clean_sbu_1, # of connection points: 6
#     Node 6, Type 0, BuildingBlock: KUMBOL_clean_sbu_1, # of connection points: 6
#     Node 7, Type 0, BuildingBlock: KUMBOL_clean_sbu_1, # of connection points: 6
#     Node 8, Type 1, BuildingBlock: GIZVER_clean_sbu_0, # of connection points: 8
#     Node 9, Type 1, BuildingBlock: GIZVER_clean_sbu_0, # of connection points: 8
#     Node 10, Type 1, BuildingBlock: GIZVER_clean_sbu_0, # of connection points: 8
#     Node 11, Type 1, BuildingBlock: GIZVER_clean_sbu_0, # of connection points: 8
#     Node 12, Type 1, BuildingBlock: GIZVER_clean_sbu_0, # of connection points: 8
#     Node 13, Type 1, BuildingBlock: GIZVER_clean_sbu_0, # of connection points: 8
#     Edge 14, Type (0, 1), BuildingBlock: OJICUG_clean_linker_0, # of connection points: 2
#     Edge 15, Type (0, 1), BuildingBlock: OJICUG_clean_linker_0, # of connection points: 2
#     Edge 16, Type (0, 1), BuildingBlock: OJICUG_clean_linker_0, # of connection points: 2
#     Edge 17, Type (0, 1), BuildingBlock: OJICUG_clean_linker_0, # of connection points: 2
#     Edge 18, Type (0, 1), BuildingBlock: OJICUG_clean_linker_0, # of connection points: 2
#     Edge 19, Type (0, 1), BuildingBlock: OJICUG_clean_linker_0, # of connection points: 2
#     Edge 20, Type (0, 1), BuildingBlock: OJICUG_clean_linker_0, # of connection points: 2
#     Edge 21, Type (0, 1), BuildingBlock: OJICUG_clean_linker_0, # of connection points: 2
#     Edge 22, Type (0, 1), BuildingBlock: OJICUG_clean_linker_0, # of connection points: 2
#     Edge 23, Type (0, 1), BuildingBlock: OJICUG_clean_linker_0, # of connection points: 2
#     Edge 24, Type (0, 1), BuildingBlock: OJICUG_clean_linker_0, # of connection points: 2
#     Edge 25, Type (0, 1), BuildingBlock: OJICUG_clean_linker_0, # of connection points: 2
#     Edge 26, Type (0, 1), BuildingBlock: OJICUG_clean_linker_0, # of connection points: 2
#     Edge 27, Type (0, 1), BuildingBlock: OJICUG_clean_linker_0, # of connection points: 2
#     Edge 28, Type (0, 1), BuildingBlock: OJICUG_clean_linker_0, # of connection points: 2
#     Edge 29, Type (0, 1), BuildingBlock: OJICUG_clean_linker_0, # of connection points: 2
#     Edge 30, Type (0, 1), BuildingBlock: OJICUG_clean_linker_0, # of connection points: 2
#     Edge 31, Type (0, 1), BuildingBlock: OJICUG_clean_linker_0, # of connection points: 2
#     Edge 32, Type (0, 1), BuildingBlock: OJICUG_clean_linker_0, # of connection points: 2
#     Edge 33, Type (0, 1), BuildingBlock: OJICUG_clean_linker_0, # of connection points: 2
#     Edge 34, Type (0, 1), BuildingBlock: OJICUG_clean_linker_0, # of connection points: 2
#     Edge 35, Type (0, 1), BuildingBlock: OJICUG_clean_linker_0, # of connection points: 2
#     Edge 36, Type (0, 1), BuildingBlock: OJICUG_clean_linker_0, # of connection points: 2
#     Edge 37, Type (0, 1), BuildingBlock: OJICUG_clean_linker_0, # of connection points: 2
#     Edge 38, Type (0, 1), BuildingBlock: OJICUG_clean_linker_0, # of connection points: 2
#     Edge 39, Type (0, 1), BuildingBlock: OJICUG_clean_linker_0, # of connection points: 2
#     Edge 40, Type (0, 1), BuildingBlock: OJICUG_clean_linker_0, # of connection points: 2
#     Edge 41, Type (0, 1), BuildingBlock: OJICUG_clean_linker_0, # of connection points: 2
#     Edge 42, Type (0, 1), BuildingBlock: OJICUG_clean_linker_0, # of connection points: 2
#     Edge 43, Type (0, 1), BuildingBlock: OJICUG_clean_linker_0, # of connection points: 2
#     Edge 44, Type (0, 1), BuildingBlock: OJICUG_clean_linker_0, # of connection points: 2
#     Edge 45, Type (0, 1), BuildingBlock: OJICUG_clean_linker_0, # of connection points: 2
#     Edge 46, Type (0, 1), BuildingBlock: OJICUG_clean_linker_0, # of connection points: 2
#     Edge 47, Type (0, 1), BuildingBlock: OJICUG_clean_linker_0, # of connection points: 2
#     Edge 48, Type (0, 1), BuildingBlock: OJICUG_clean_linker_0, # of connection points: 2
#     Edge 49, Type (0, 1), BuildingBlock: OJICUG_clean_linker_0, # of connection points: 2
#     Edge 50, Type (0, 1), BuildingBlock: OJICUG_clean_linker_0, # of connection points: 2
#     Edge 51, Type (0, 1), BuildingBlock: OJICUG_clean_linker_0, # of connection points: 2
#     Edge 52, Type (0, 1), BuildingBlock: OJICUG_clean_linker_0, # of connection points: 2
#     Edge 53, Type (0, 1), BuildingBlock: OJICUG_clean_linker_0, # of connection points: 2
#     Edge 54, Type (0, 1), BuildingBlock: OJICUG_clean_linker_0, # of connection points: 2
#     Edge 55, Type (0, 1), BuildingBlock: OJICUG_clean_linker_0, # of connection points: 2
#     Edge 56, Type (0, 1), BuildingBlock: OJICUG_clean_linker_0, # of connection points: 2
#     Edge 57, Type (0, 1), BuildingBlock: OJICUG_clean_linker_0, # of connection points: 2
#     Edge 58, Type (0, 1), BuildingBlock: OJICUG_clean_linker_0, # of connection points: 2
#     Edge 59, Type (0, 1), BuildingBlock: OJICUG_clean_linker_0, # of connection points: 2
#     Edge 60, Type (0, 1), BuildingBlock: OJICUG_clean_linker_0, # of connection points: 2
#     Edge 61, Type (0, 1), BuildingBlock: OJICUG_clean_linker_0, # of connection points: 2
# Relax obj value: 0.199
# Max RMSD: 0.207
# Mean RMSD: 0.175
data_MOF--net-ocu--node1-KUMBOL_clean_sbu_1--node2-GIZVER_clean_sbu_0--edge1-OJICUG_clean_linker_0
_symmetry_space_group_name_H-M    P1
_symmetry_Int_Tables_number       1
_symmetry_cell_setting            triclinic
loop_
_symmetry_equiv_pos_as_xyz
'x, y, z'
_cell_length_a     33.144082
_cell_length_b     34.629613
_cell_length_c     27.289297
_cell_angle_alpha  102.32596
_cell_angle_beta   77.46251
_cell_angle_gamma 116.97938
loop_
_atom_site_label
_atom_site_type_symbol
_atom_site_fract_x
_atom_site_fract_y
_atom_site_fract_z
_atom_type_partial_charge
C0 C 0.34446 0.3752 0.40879 0.0
C1 C 0.30373 0.33964 0.48372 0.0
C2 C 0.31779 0.337 0.43083 0.0
C3 C 0.31566 0.38071 0.51338 0.0
C4 C 0.35608 0.41648 0.43862 0.0
C5 C 0.34125 0.41896 0.49088 0.0
N6 N 0.35929 0.37207 0.3582 0.0
C7 C 0.38636 0.4087 0.33534 0.0
C8 C 0.38284 0.45414 0.41512 0.0
C9 C 0.39804 0.45021 0.36324 0.0
Gd10 Gd 0.25221 0.25583 0.22051 0.0
Gd11 Gd 0.34196 0.30116 0.31583 0.0
N12 N 0.30789 0.29752 0.40135 0.0
C13 C 0.27971 0.30097 0.50569 0.0
C14 C 0.28753 0.26003 0.42359 0.0
C15 C 0.272 0.26104 0.47554 0.0
H16 H 0.28509 0.22927 0.40241 0.0
H17 H 0.25548 0.23109 0.49259 0.0
H18 H 0.33821 0.29067 0.1263 0.0
H19 H 0.39904 0.40589 0.29564 0.0
H20 H 0.36276 0.26157 0.04028 0.0
H21 H 0.26858 0.30165 0.54612 0.0
H22 H 0.30603 0.38332 0.55399 0.0
H23 H 0.15554 0.17429 0.26428 0.0
H24 H 0.39231 0.48638 0.43676 0.0
H25 H 0.41919 0.47913 0.34483 0.0
H26 H 0.25244 0.11165 0.01957 0.0
H27 H 0.35012 0.45035 0.51442 0.0
H28 H 0.1314 0.06009 0.15532 0.0
H29 H 0.10918 0.09599 0.23832 0.0
N30 N 0.20601 0.18134 0.19985 0.0
C31 C 0.218 0.16275 0.15341 0.0
C32 C 0.16696 0.15824 0.22968 0.0
C33 C 0.15257 0.09413 0.16739 0.0
C34 C 0.14003 0.11419 0.21435 0.0
C35 C 0.1916 0.11855 0.13596 0.0
H36 H 0.18474 0.06648 0.07348 0.0
N37 N 0.28166 0.23055 0.14106 0.0
C38 C 0.25639 0.18826 0.12276 0.0
C39 C 0.3078 0.19711 0.04417 0.0
C40 C 0.26919 0.17024 0.07401 0.0
C41 C 0.31914 0.25697 0.11207 0.0
C42 C 0.33297 0.24059 0.06328 0.0
O43 O 0.2992 0.34069 0.32402 0.0
O44 O 0.23191 0.28957 0.29688 0.0
O45 O 0.24092 0.29103 0.17072 0.0
O46 O 0.18374 0.24304 0.21283 0.0
O47 O 0.2869 0.22986 0.31589 0.0
O48 O 0.22611 0.23593 0.29854 0.0
O49 O 0.29874 0.21869 0.2085 0.0
O50 O 0.36467 0.27019 0.23894 0.0
O51 O 0.37391 0.27155 0.34874 0.0
O52 O 0.41393 0.33657 0.32521 0.0
O53 O 0.30752 0.32464 0.21373 0.0
O54 O 0.37115 0.33111 0.24246 0.0
C55 C 0.25571 0.32846 0.32061 0.0
C56 C 0.24228 0.21612 0.31935 0.0
C57 C 0.16863 0.25676 0.13916 0.0
C58 C 0.12791 0.27632 0.09076 0.0
C59 C 0.11 0.19997 0.09135 0.0
C60 C 0.14334 0.21237 0.12245 0.0
C61 C 0.10144 0.23155 0.07679 0.0
C62 C 0.16171 0.28854 0.12206 0.0
C63 C 0.19658 0.27029 0.18036 0.0
C64 C 0.24312 0.12618 0.0567 0.0
C65 C 0.20454 0.10037 0.08757 0.0
H66 H 0.31822 0.18476 0.00628 0.0
C67 C 0.34266 0.23224 0.21233 0.0
C68 C 0.35186 0.34352 0.21522 0.0
C69 C 0.45428 0.30814 0.36147 0.0
C70 C 0.49211 0.27454 0.39432 0.0
C71 C 0.53407 0.349 0.37391 0.0
C72 C 0.49515 0.34655 0.35906 0.0
C73 C 0.53271 0.31329 0.39131 0.0
C74 C 0.45299 0.27229 0.37919 0.0
C75 C 0.41335 0.30535 0.34496 0.0
H76 H 0.08969 0.16564 0.07979 0.0
H77 H 0.14791 0.18724 0.13514 0.0
H78 H 0.07359 0.22082 0.05513 0.0
H79 H 0.18194 0.32276 0.13441 0.0
H80 H 0.56548 0.37867 0.37176 0.0
H81 H 0.49712 0.37468 0.3456 0.0
H82 H 0.56357 0.31592 0.40198 0.0
H83 H 0.42131 0.24286 0.38191 0.0
C84 C 0.89902 0.24874 0.13028 0.0
C85 C 0.96448 0.31834 0.11973 0.0
C86 C 0.92549 0.29131 0.14961 0.0
C87 C 0.97566 0.30221 0.06942 0.0
C88 C 0.91082 0.23193 0.08031 0.0
C89 C 0.94902 0.25906 0.0498 0.0
N90 N 0.86216 0.22357 0.16068 0.0
C91 C 0.83639 0.18078 0.1441 0.0
C92 C 0.88393 0.18835 0.06263 0.0
C93 C 0.84675 0.16258 0.09482 0.0
Gd94 Gd 0.75362 0.30694 0.28672 0.0
Gd95 Gd 0.84544 0.25797 0.24122 0.0
N96 N 0.91286 0.30634 0.19784 0.0
C97 C 0.99112 0.36061 0.14154 0.0
C98 C 0.9401 0.3465 0.2203 0.0
C99 C 0.97931 0.3745 0.19227 0.0
H100 H 0.93095 0.35724 0.25942 0.0
H101 H 1.00022 0.40683 0.20968 0.0
H102 H 0.66639 0.20789 0.2745 0.0
H103 H 0.80794 0.16055 0.16904 0.0
H104 H 0.59909 0.16034 0.32873 0.0
H105 H 1.02117 0.38249 0.1199 0.0
H106 H 1.00489 0.32271 0.04546 0.0
H107 H 0.79 0.40724 0.35336 0.0
H108 H 0.89184 0.17418 0.02446 0.0
H109 H 0.82608 0.1287 0.08171 0.0
H110 H 0.6078 0.24641 0.49304 0.0
H111 H 0.9584 0.24691 0.01112 0.0
H112 H 0.71972 0.39553 0.50472 0.0
H113 H 0.7783 0.4408 0.44166 0.0
N114 N 0.74202 0.34323 0.36774 0.0
C115 C 0.7078 0.31836 0.40086 0.0
C116 C 0.76591 0.387 0.38122 0.0
C117 C 0.72548 0.38055 0.46633 0.0
C118 C 0.75867 0.40619 0.4309 0.0
C119 C 0.69885 0.33626 0.45124 0.0
H120 H 0.6562 0.32266 0.52359 0.0
N121 N 0.68932 0.25933 0.33471 0.0
C122 C 0.68008 0.27542 0.38361 0.0
C123 C 0.61378 0.20723 0.39608 0.0
C124 C 0.64269 0.24937 0.41605 0.0
C125 C 0.6597 0.21942 0.31412 0.0
C126 C 0.62173 0.19255 0.34465 0.0
O127 O 0.84979 0.30654 0.19371 0.0
O128 O 0.81966 0.35328 0.2432 0.0
O129 O 0.69587 0.28838 0.24853 0.0
O130 O 0.73087 0.35565 0.28127 0.0
O131 O 0.84946 0.30562 0.3153 0.0
O132 O 0.82267 0.35438 0.30778 0.0
O133 O 0.75253 0.25699 0.33201 0.0
O134 O 0.77676 0.21102 0.27352 0.0
O135 O 0.88771 0.26791 0.29719 0.0
O136 O 0.87021 0.20967 0.24232 0.0
O137 O 0.75844 0.26924 0.20866 0.0
O138 O 0.77602 0.214 0.21297 0.0
C139 C 0.84659 0.34406 0.20375 0.0
C140 C 0.85143 0.34546 0.32437 0.0
C141 C 0.70476 0.34075 0.20273 0.0
C142 C 0.66846 0.34729 0.1388 0.0
C143 C 0.74417 0.34871 0.11711 0.0
C144 C 0.74325 0.3444 0.16679 0.0
C145 C 0.70684 0.34988 0.10328 0.0
C146 C 0.66747 0.34246 0.18885 0.0
C147 C 0.70092 0.32824 0.25178 0.0
C148 C 0.63526 0.26633 0.46699 0.0
C149 C 0.66312 0.30971 0.4845 0.0
H150 H 0.58509 0.18593 0.41983 0.0
C151 C 0.75205 0.21802 0.31577 0.0
C152 C 0.75066 0.22805 0.19716 0.0
C153 C 0.87865 0.20463 0.32442 0.0
C154 C 0.90415 0.18319 0.38736 0.0
C155 C 0.82306 0.16071 0.38767 0.0
C156 C 0.83321 0.1819 0.34556 0.0
C157 C 0.85822 0.16135 0.40858 0.0
C158 C 0.9141 0.20516 0.3453 0.0
C159 C 0.88936 0.23024 0.28298 0.0
H160 H 0.77368 0.35097 0.0893 0.0
H161 H 0.77179 0.34218 0.17653 0.0
H162 H 0.70853 0.35419 0.06526 0.0
H163 H 0.63757 0.33926 0.21654 0.0
H164 H 0.78781 0.14332 0.40378 0.0
H165 H 0.80566 0.18065 0.32957 0.0
H166 H 0.84927 0.14338 0.44025 0.0
H167 H 0.94928 0.22268 0.3289 0.0
C168 C 0.93335 0.86321 0.15995 0.0
C169 C 0.93692 0.81797 0.07936 0.0
C170 C 0.91203 0.82705 0.12556 0.0
C171 C 0.9837 0.84525 0.06878 0.0
C172 C 0.98026 0.8908 0.14917 0.0
C173 C 1.0054 0.88127 0.10373 0.0
N174 N 0.90773 0.87269 0.20261 0.0
C175 C 0.92647 0.91021 0.23488 0.0
C176 C 1.00018 0.92802 0.18358 0.0
C177 C 0.97304 0.93796 0.22642 0.0
Gd178 Gd 0.77224 0.73712 0.30405 0.0
Gd179 Gd 0.82989 0.82399 0.21282 0.0
N180 N 0.86661 0.80144 0.13672 0.0
C181 C 0.91371 0.78245 0.04468 0.0
C182 C 0.84345 0.76789 0.10226 0.0
C183 C 0.86676 0.75744 0.05607 0.0
H184 H 0.80705 0.74918 0.11037 0.0
H185 H 0.84844 0.73048 0.02902 0.0
H186 H 0.80224 0.81799 0.40113 0.0
H187 H 0.90521 0.91968 0.26613 0.0
H188 H 0.76528 0.84449 0.48066 0.0
H189 H 0.93138 0.77455 0.00863 0.0
H190 H 1.00337 0.83948 0.03334 0.0
H191 H 0.69114 0.6417 0.25915 0.0
H192 H 1.03612 0.94998 0.17663 0.0
H193 H 0.98774 0.96747 0.25235 0.0
H194 H 0.60745 0.74173 0.48782 0.0
H195 H 1.04141 0.9022 0.09465 0.0
H196 H 0.56456 0.62171 0.35489 0.0
H197 H 0.60811 0.5978 0.27891 0.0
N198 N 0.69393 0.69175 0.3206 0.0
C199 C 0.67092 0.70491 0.36327 0.0
C200 C 0.67213 0.65343 0.29096 0.0
C201 C 0.60083 0.64163 0.34566 0.0
C202 C 0.62525 0.62808 0.30267 0.0
C203 C 0.62369 0.68014 0.37695 0.0
H204 H 0.56473 0.67546 0.43287 0.0
N205 N 0.74042 0.76594 0.3799 0.0
C206 C 0.69492 0.7427 0.39417 0.0
C207 C 0.69798 0.7938 0.47059 0.0
C208 C 0.67237 0.75638 0.43961 0.0
C209 C 0.76589 0.80124 0.41105 0.0
C210 C 0.74501 0.81609 0.45643 0.0
O211 O 0.8623 0.7745 0.20214 0.0
O212 O 0.80549 0.71101 0.23031 0.0
O213 O 0.81483 0.73408 0.35194 0.0
O214 O 0.75389 0.67649 0.33241 0.0
O215 O 0.76072 0.76849 0.19526 0.0
O216 O 0.75243 0.70789 0.22554 0.0
O217 O 0.73799 0.78399 0.30845 0.0
O218 O 0.79739 0.84826 0.28794 0.0
O219 O 0.78225 0.83152 0.17483 0.0
O220 O 0.85064 0.88408 0.18249 0.0
O221 O 0.84541 0.78783 0.31128 0.0
O222 O 0.84854 0.84989 0.2926 0.0
C223 C 0.84566 0.73175 0.20384 0.0
C224 C 0.74324 0.72567 0.19385 0.0
C225 C 0.82028 0.66705 0.33297 0.0
C226 C 0.8844 0.65326 0.34199 0.0
C227 C 0.83846 0.61236 0.27356 0.0
C228 C 0.81141 0.63503 0.29032 0.0
C229 C 0.87419 0.62085 0.29939 0.0
C230 C 0.85749 0.67681 0.35769 0.0
C231 C 0.79232 0.69181 0.35061 0.0
C232 C 0.6253 0.73196 0.45302 0.0
C233 C 0.60098 0.69409 0.42172 0.0
H234 H 0.68198 0.80529 0.50588 0.0
C235 C 0.75542 0.82705 0.30988 0.0
C236 C 0.86115 0.83051 0.31877 0.0
C237 C 0.8036 0.89891 0.13925 0.0
C238 C 0.75358 0.9144 0.10049 0.0
C239 C 0.83321 0.96593 0.10158 0.0
C240 C 0.83993 0.93861 0.12657 0.0
C241 C 0.79032 0.95399 0.08861 0.0
C242 C 0.76006 0.88696 0.12635 0.0
C243 C 0.81194 0.87086 0.16602 0.0
H244 H 0.83119 0.58747 0.2409 0.0
H245 H 0.78366 0.62751 0.26974 0.0
H246 H 0.89266 0.60078 0.2866 0.0
H247 H 0.86518 0.70272 0.38922 0.0
H248 H 0.86142 0.99639 0.09201 0.0
H249 H 0.87373 0.94865 0.13589 0.0
H250 H 0.78575 0.97561 0.06912 0.0
H251 H 0.7316 0.8566 0.13595 0.0
C252 C 0.39985 0.73039 0.26507 0.0
C253 C 0.35864 0.65162 0.256 0.0
C254 C 0.36292 0.69289 0.25037 0.0
C255 C 0.39051 0.64917 0.28037 0.0
C256 C 0.43355 0.72817 0.28671 0.0
C257 C 0.42791 0.68745 0.29584 0.0
N258 N 0.4048 0.7687 0.25393 0.0
C259 C 0.44414 0.80566 0.26004 0.0
C260 C 0.47273 0.76666 0.2964 0.0
C261 C 0.47838 0.80548 0.2822 0.0
Gd262 Gd 0.25417 0.81571 0.27355 0.0
Gd263 Gd 0.34392 0.76796 0.22248 0.0
N264 N 0.33346 0.6967 0.22632 0.0
C265 C 0.32383 0.61418 0.23476 0.0
C266 C 0.30149 0.66044 0.20252 0.0
C267 C 0.29577 0.61864 0.20691 0.0
H268 H 0.27942 0.66368 0.18152 0.0
H269 H 0.26954 0.58994 0.18915 0.0
H270 H 0.27518 0.89214 0.37632 0.0
H271 H 0.44884 0.83538 0.24815 0.0
H272 H 0.30792 0.9726 0.39537 0.0
H273 H 0.31941 0.58182 0.2381 0.0
H274 H 0.38749 0.61781 0.28575 0.0
H275 H 0.22604 0.79081 0.15605 0.0
H276 H 0.49946 0.76644 0.31306 0.0
H277 H 0.50916 0.83516 0.28801 0.0
H278 H 0.3248 1.02029 0.23638 0.0
H279 H 0.45312 0.68505 0.313 0.0
H280 H 0.26909 0.91028 0.09628 0.0
H281 H 0.23341 0.82935 0.08591 0.0
N282 N 0.25831 0.84918 0.2049 0.0
C283 C 0.27514 0.89353 0.21265 0.0
C284 C 0.24144 0.82603 0.16091 0.0
C285 C 0.26574 0.89349 0.12724 0.0
C286 C 0.2456 0.84782 0.12118 0.0
C287 C 0.28026 0.91695 0.1736 0.0
H288 H 0.30374 0.98142 0.15258 0.0
N289 N 0.27978 0.89158 0.29739 0.0
C290 C 0.28701 0.91535 0.25997 0.0
C291 C 0.31316 0.9821 0.31834 0.0
C292 C 0.30431 0.96132 0.26934 0.0
C293 C 0.28525 0.91145 0.3459 0.0
C294 C 0.30286 0.95698 0.35696 0.0
O295 O 0.28079 0.72447 0.27012 0.0
O296 O 0.25265 0.77016 0.32501 0.0
O297 O 0.20176 0.82997 0.3261 0.0
O298 O 0.18402 0.78335 0.25907 0.0
O299 O 0.28323 0.73806 0.17837 0.0
O300 O 0.2251 0.74724 0.23463 0.0
O301 O 0.31005 0.83438 0.20614 0.0
O302 O 0.37166 0.84128 0.23319 0.0
O303 O 0.34785 0.78255 0.14743 0.0
O304 O 0.39403 0.75862 0.16248 0.0
O305 O 0.30074 0.83543 0.33363 0.0
O306 O 0.36272 0.82108 0.29137 0.0
C307 C 0.25583 0.73239 0.31226 0.0
C308 C 0.23986 0.72961 0.19172 0.0
C309 C 0.13751 0.76255 0.33559 0.0
C310 C 0.10973 0.7453 0.42184 0.0
C311 C 0.10034 0.68683 0.35213 0.0
C312 C 0.12266 0.71759 0.31794 0.0
C313 C 0.09419 0.70063 0.40417 0.0
C314 C 0.12856 0.77541 0.3868 0.0
C315 C 0.16908 0.79699 0.30403 0.0
C316 C 0.31114 0.98494 0.22999 0.0
C317 C 0.29908 0.96281 0.18227 0.0
H318 H 0.32649 1.01735 0.32707 0.0
C319 C 0.35298 0.85853 0.21244 0.0
C320 C 0.34309 0.84004 0.33036 0.0
C321 C 0.42299 0.80835 0.104 0.0
C322 C 0.48134 0.80467 0.03622 0.0
C323 C 0.50104 0.86117 0.10919 0.0
C324 C 0.45558 0.84334 0.13116 0.0
C325 C 0.51426 0.84012 0.06343 0.0
C326 C 0.43524 0.79561 0.05328 0.0
C327 C 0.38392 0.77517 0.13064 0.0
H328 H 0.08927 0.65235 0.33843 0.0
H329 H 0.12929 0.70618 0.27831 0.0
H330 H 0.07831 0.6768 0.43037 0.0
H331 H 0.13833 0.80992 0.39944 0.0
H332 H 0.52665 0.88705 0.13077 0.0
H333 H 0.44696 0.85384 0.17054 0.0
H334 H 0.55 0.84793 0.05365 0.0
H335 H 0.40864 0.77057 0.03231 0.0
C336 C 0.41536 0.74478 0.6184 0.0
C337 C 0.47523 0.81804 0.61078 0.0
C338 C 0.43877 0.78772 0.63991 0.0
C339 C 0.48561 0.80542 0.55899 0.0
C340 C 0.42801 0.73126 0.56727 0.0
C341 C 0.46265 0.76203 0.53742 0.0
N342 N 0.38088 0.71604 0.64766 0.0
C343 C 0.35987 0.67283 0.62951 0.0
C344 C 0.40525 0.68725 0.54763 0.0
C345 C 0.37148 0.65778 0.57913 0.0
Gd346 Gd 0.267 0.79065 0.77974 0.0
Gd347 Gd 0.3608 0.74573 0.72927 0.0
N348 N 0.42511 0.80009 0.68904 0.0
C349 C 0.49953 0.86035 0.63437 0.0
C350 C 0.44958 0.84078 0.71282 0.0
C351 C 0.48711 0.87152 0.68584 0.0
H352 H 0.44004 0.84959 0.75237 0.0
H353 H 0.50601 0.90396 0.70457 0.0
H354 H 0.18261 0.69307 0.74807 0.0
H355 H 0.33491 0.64997 0.65441 0.0
H356 H 0.11234 0.63852 0.7901 0.0
H357 H 0.52796 0.88452 0.61329 0.0
H358 H 0.51102 0.82913 0.53523 0.0
H359 H 0.30526 0.87876 0.8682 0.0
H360 H 0.41402 0.67558 0.50854 0.0
H361 H 0.35447 0.62351 0.56468 0.0
H362 H 0.10534 0.70239 0.96447 0.0
H363 H 0.47193 0.75263 0.49764 0.0
H364 H 0.21953 0.84606 0.00872 0.0
H365 H 0.2864 0.89856 0.9596 0.0
N366 N 0.25155 0.8143 0.86604 0.0
C367 C 0.21396 0.78536 0.89209 0.0
C368 C 0.27702 0.85484 0.88945 0.0
C369 C 0.22823 0.83674 0.96878 0.0
C370 C 0.26602 0.86647 0.94118 0.0
C371 C 0.20142 0.79577 0.94426 0.0
H372 H 0.15232 0.7726 0.01028 0.0
N373 N 0.20031 0.73627 0.81595 0.0
C374 C 0.18724 0.74551 0.8662 0.0
C375 C 0.1205 0.67627 0.86401 0.0
C376 C 0.14733 0.71536 0.89178 0.0
C377 C 0.17337 0.69911 0.7883 0.0
C378 C 0.1333 0.66834 0.81198 0.0
O379 O 0.35888 0.79397 0.68406 0.0
O380 O 0.33234 0.83883 0.74186 0.0
O381 O 0.22774 0.79296 0.72708 0.0
O382 O 0.23389 0.83439 0.79922 0.0
O383 O 0.35926 0.78557 0.80653 0.0
O384 O 0.33725 0.83797 0.80213 0.0
O385 O 0.27076 0.74295 0.82247 0.0
O386 O 0.29383 0.6952 0.76507 0.0
O387 O 0.39629 0.75089 0.78957 0.0
O388 O 0.39803 0.70591 0.72138 0.0
O389 O 0.25916 0.74432 0.70452 0.0
O390 O 0.29315 0.6984 0.703 0.0
C391 C 0.35553 0.83143 0.69837 0.0
C392 C 0.36377 0.82583 0.81851 0.0
C393 C 0.23011 0.86211 0.72994 0.0
C394 C 0.20746 0.89677 0.6789 0.0
C395 C 0.28326 0.93317 0.70532 0.0
C396 C 0.27309 0.89802 0.73019 0.0
C397 C 0.25074 0.93272 0.68 0.0
C398 C 0.19727 0.86154 0.70443 0.0
C399 C 0.21978 0.82485 0.75541 0.0
C400 C 0.1354 0.72528 0.94396 0.0
C401 C 0.16232 0.76532 0.97013 0.0
H402 H 0.08966 0.65223 0.88217 0.0
C403 C 0.26948 0.70376 0.80741 0.0
C404 C 0.26378 0.70753 0.68746 0.0
C405 C 0.46152 0.73708 0.7671 0.0
C406 C 0.5186 0.72268 0.79348 0.0
C407 C 0.54105 0.79016 0.75993 0.0
C408 C 0.49584 0.77712 0.75319 0.0
C409 C 0.55249 0.76309 0.77995 0.0
C410 C 0.47304 0.71035 0.78748 0.0
C411 C 0.41298 0.72365 0.7648 0.0
H412 H 0.31639 0.9609 0.70579 0.0
H413 H 0.29864 0.89895 0.74982 0.0
H414 H 0.25939 0.96084 0.66167 0.0
H415 H 0.16428 0.83353 0.70382 0.0
H416 H 0.56738 0.82109 0.74907 0.0
H417 H 0.48783 0.79845 0.73777 0.0
H418 H 0.58784 0.77312 0.7835 0.0
H419 H 0.44601 0.6802 0.79981 0.0
C420 C 0.43509 0.34723 0.63587 0.0
C421 C 0.43034 0.30193 0.55408 0.0
C422 C 0.41 0.31153 0.60327 0.0
C423 C 0.4767 0.32777 0.53878 0.0
C424 C 0.48165 0.37338 0.62043 0.0
C425 C 0.50244 0.36305 0.57205 0.0
N426 N 0.41349 0.35762 0.68155 0.0
C427 C 0.43609 0.39472 0.71259 0.0
C428 C 0.50556 0.41003 0.65341 0.0
C429 C 0.48257 0.42091 0.69951 0.0
Gd430 Gd 0.2848 0.22777 0.79658 0.0
Gd431 Gd 0.33534 0.31119 0.69895 0.0
N432 N 0.36519 0.28706 0.61911 0.0
C433 C 0.40306 0.26748 0.52122 0.0
C434 C 0.33804 0.25462 0.58668 0.0
C435 C 0.35656 0.24409 0.53739 0.0
H436 H 0.30204 0.23732 0.59856 0.0
H437 H 0.33497 0.21811 0.51186 0.0
H438 H 0.30676 0.30744 0.89351 0.0
H439 H 0.41832 0.4051 0.74689 0.0
H440 H 0.26497 0.32774 0.97411 0.0
H441 H 0.4173 0.25913 0.48315 0.0
H442 H 0.49274 0.32139 0.50095 0.0
H443 H 0.21275 0.12694 0.75035 0.0
H444 H 0.54139 0.43083 0.64301 0.0
H445 H 0.50039 0.44999 0.72455 0.0
H446 H 0.11181 0.21344 0.97469 0.0
H447 H 0.53809 0.38291 0.55945 0.0
H448 H 0.08135 0.09675 0.83857 0.0
H449 H 0.13078 0.07727 0.7656 0.0
N450 N 0.2082 0.1768 0.80879 0.0
C451 C 0.18228 0.18732 0.85037 0.0
C452 C 0.19068 0.13717 0.77964 0.0
C453 C 0.11688 0.11947 0.83054 0.0
C454 C 0.14459 0.10841 0.78924 0.0
C455 C 0.13591 0.15872 0.86246 0.0
H456 H 0.07495 0.14762 0.91712 0.0
N457 N 0.24778 0.25231 0.87032 0.0
C458 C 0.20287 0.22557 0.88266 0.0
C459 C 0.20056 0.27303 0.961 0.0
C460 C 0.17787 0.23555 0.92814 0.0
C461 C 0.27058 0.28787 0.90293 0.0
C462 C 0.2471 0.2992 0.94845 0.0
O463 O 0.36801 0.26168 0.68382 0.0
O464 O 0.31991 0.20177 0.72597 0.0
O465 O 0.3295 0.22955 0.84654 0.0
O466 O 0.26986 0.16908 0.82674 0.0
O467 O 0.2639 0.25628 0.69705 0.0
O468 O 0.26418 0.1967 0.71868 0.0
O469 O 0.24971 0.27457 0.80346 0.0
O470 O 0.30546 0.33795 0.7746 0.0
O471 O 0.28657 0.31234 0.65848 0.0
O472 O 0.34963 0.37035 0.66984 0.0
O473 O 0.3573 0.28118 0.79836 0.0
O474 O 0.35718 0.34081 0.77639 0.0
C475 C 0.35606 0.22151 0.69358 0.0
C476 C 0.25198 0.21408 0.68961 0.0
C477 C 0.3148 0.16444 0.88238 0.0
C478 C 0.3673 0.15614 0.92509 0.0
C479 C 0.28969 0.09979 0.92298 0.0
C480 C 0.28061 0.12402 0.89574 0.0
C481 C 0.33263 0.11585 0.93799 0.0
C482 C 0.35845 0.18039 0.89694 0.0
C483 C 0.30495 0.18823 0.85122 0.0
C484 C 0.13161 0.20718 0.93987 0.0
C485 C 0.11054 0.16926 0.90697 0.0
H486 H 0.18289 0.28159 0.99663 0.0
C487 C 0.26556 0.31711 0.80131 0.0
C488 C 0.37088 0.3236 0.80398 0.0
C489 C 0.28229 0.37957 0.67507 0.0
C490 C 0.22231 0.39826 0.66448 0.0
C491 C 0.26422 0.4331 0.73689 0.0
C492 C 0.29024 0.40937 0.71964 0.0
C493 C 0.2309 0.42809 0.70932 0.0
C494 C 0.24738 0.37309 0.64875 0.0
C495 C 0.30918 0.35413 0.65608 0.0
H496 H 0.26328 0.06848 0.93264 0.0
H497 H 0.24685 0.11088 0.88475 0.0
H498 H 0.33914 0.09638 0.95885 0.0
H499 H 0.38551 0.21097 0.88582 0.0
H500 H 0.27067 0.45627 0.77109 0.0
H501 H 0.31654 0.41439 0.74108 0.0
H502 H 0.21323 0.44888 0.72234 0.0
H503 H 0.24035 0.34886 0.61545 0.0
C504 C 0.8734 0.18144 0.79163 0.0
C505 C 0.82065 0.1047 0.7753 0.0
C506 C 0.8402 0.14798 0.76394 0.0
C507 C 0.83371 0.09557 0.81551 0.0
C508 C 0.88866 0.17148 0.82975 0.0
C509 C 0.86768 0.12881 0.84254 0.0
N510 N 0.89362 0.22261 0.77829 0.0
C511 C 0.9333 0.25276 0.79608 0.0
C512 C 0.92617 0.20413 0.85216 0.0
C513 C 0.94936 0.24455 0.83421 0.0
Gd514 Gd 0.78567 0.29251 0.75892 0.0
Gd515 Gd 0.86129 0.2319 0.71506 0.0
N516 N 0.82789 0.15752 0.72502 0.0
C517 C 0.78894 0.07168 0.74544 0.0
C518 C 0.79885 0.12504 0.69415 0.0
C519 C 0.77847 0.08181 0.70435 0.0
H520 H 0.79074 0.13232 0.66212 0.0
H521 H 0.75472 0.0563 0.68045 0.0
H522 H 0.85076 0.38998 0.71827 0.0
H523 H 0.95328 0.28289 0.78026 0.0
H524 H 0.84123 0.44799 0.69016 0.0
H525 H 0.77309 0.0381 0.75314 0.0
H526 H 0.81864 0.06262 0.82511 0.0
H527 H 0.68929 0.24096 0.83335 0.0
H528 H 0.93901 0.19768 0.88135 0.0
H529 H 0.98015 0.2691 0.84897 0.0
H530 H 0.67945 0.40681 0.72836 0.0
H531 H 0.87856 0.12085 0.87222 0.0
H532 H 0.58986 0.28355 0.81988 0.0
H533 H 0.61013 0.23413 0.85262 0.0
N534 N 0.71222 0.29034 0.78603 0.0
C535 C 0.70226 0.31887 0.76989 0.0
C536 C 0.68028 0.26131 0.81714 0.0
C537 C 0.62426 0.28578 0.81022 0.0
C538 C 0.63559 0.25785 0.82876 0.0
C539 C 0.65812 0.31755 0.78131 0.0
H540 H 0.61607 0.34817 0.77285 0.0
N541 N 0.77959 0.35265 0.73892 0.0
C542 C 0.73745 0.35144 0.74531 0.0
C543 C 0.76794 0.41886 0.70958 0.0
C544 C 0.7302 0.38427 0.73083 0.0
C545 C 0.81682 0.38761 0.72095 0.0
C546 C 0.81158 0.42083 0.7053 0.0
O547 O 0.79315 0.19567 0.76475 0.0
O548 O 0.73991 0.22086 0.76284 0.0
O549 O 0.80505 0.27011 0.81561 0.0
O550 O 0.79386 0.32879 0.83267 0.0
O551 O 0.80888 0.2085 0.66169 0.0
O552 O 0.75532 0.23664 0.69649 0.0
O553 O 0.82627 0.30644 0.68105 0.0
O554 O 0.8896 0.29695 0.68427 0.0
O555 O 0.90533 0.24394 0.6424 0.0
O556 O 0.90793 0.20142 0.68702 0.0
O557 O 0.85946 0.34018 0.7647 0.0
O558 O 0.88766 0.29238 0.77363 0.0
C559 C 0.75064 0.19171 0.77384 0.0
C560 C 0.76995 0.2105 0.66232 0.0
C561 C 0.77618 0.28981 0.9003 0.0
C562 C 0.72403 0.3093 0.96442 0.0
C563 C 0.71894 0.23582 0.9525 0.0
C564 C 0.75517 0.24703 0.91269 0.0
C565 C 0.70168 0.26633 0.97664 0.0
C566 C 0.7649 0.32176 0.93177 0.0
C567 C 0.80195 0.30112 0.8505 0.0
C568 C 0.68589 0.38216 0.73963 0.0
C569 C 0.64983 0.3488 0.76492 0.0
H570 H 0.76394 0.44476 0.69783 0.0
C571 C 0.86962 0.31516 0.6661 0.0
C572 C 0.88938 0.33207 0.78047 0.0
C573 C 0.97745 0.25855 0.66282 0.0
C574 C 1.04085 0.27432 0.70765 0.0
C575 C 1.03363 0.33334 0.68146 0.0
C576 C 0.99499 0.30322 0.65909 0.0
C577 C 1.05633 0.31909 0.70605 0.0
C578 C 1.00114 0.24454 0.68606 0.0
C579 C 0.93034 0.22781 0.65343 0.0
H580 H 0.70177 0.20262 0.96143 0.0
H581 H 0.76521 0.22225 0.89038 0.0
H582 H 0.66978 0.25592 1.00213 0.0
H583 H 0.78216 0.35501 0.92255 0.0
H584 H 1.04581 0.36783 0.67991 0.0
H585 H 0.97801 0.31484 0.64024 0.0
H586 H 0.08704 0.34259 0.72176 0.0
H587 H 0.98814 0.20978 0.68685 0.0
C588 C 0.85438 0.86299 0.88701 0.0
C589 C 0.79919 0.83873 0.96121 0.0
C590 C 0.8173 0.8298 0.91061 0.0
C591 C 0.81889 0.88085 0.9874 0.0
C592 C 0.87361 0.90567 0.9132 0.0
C593 C 0.85559 0.91439 0.9635 0.0
N594 N 0.8719 0.85354 0.83862 0.0
C595 C 0.90963 0.88457 0.81519 0.0
C596 C 0.91106 0.93814 0.88842 0.0
C597 C 0.92931 0.92745 0.83921 0.0
Gd598 Gd 0.76419 0.74478 0.6937 0.0
Gd599 Gd 0.83916 0.7803 0.80276 0.0
N600 N 0.79955 0.78883 0.88458 0.0
C601 C 0.76231 0.80492 0.98455 0.0
C602 C 0.76431 0.75558 0.90796 0.0
C603 C 0.74484 0.76314 0.95775 0.0
H604 H 0.75156 0.7228 0.88962 0.0
H605 H 0.71687 0.73646 0.97573 0.0
H606 H 0.83077 0.81522 0.61042 0.0
H607 H 0.92574 0.87595 0.77889 0.0
H608 H 0.86299 0.81271 0.52043 0.0
H609 H 0.74753 0.8106 0.0234 0.0
H610 H 0.80631 0.88747 0.02645 0.0
H611 H 0.70679 0.63754 0.71597 0.0
H612 H 0.92673 0.97127 0.9073 0.0
H613 H 0.95916 0.95195 0.8202 0.0
H614 H 0.80803 0.65965 0.45977 0.0
H615 H 0.87023 0.94678 0.98451 0.0
H616 H 0.72014 0.55774 0.57766 0.0
H617 H 0.69077 0.56537 0.66868 0.0
N618 N 0.74907 0.67256 0.6549 0.0
C619 C 0.76494 0.66898 0.60436 0.0
C620 C 0.72213 0.63577 0.67751 0.0
C621 C 0.72851 0.59006 0.59882 0.0
C622 C 0.71208 0.59423 0.65021 0.0
C623 C 0.75484 0.62755 0.57511 0.0
H624 H 0.76293 0.59312 0.50008 0.0
N625 N 0.80182 0.74654 0.61035 0.0
C626 C 0.79173 0.70686 0.58153 0.0
C627 C 0.83448 0.74243 0.50735 0.0
C628 C 0.80802 0.70386 0.52919 0.0
C629 C 0.8262 0.78413 0.58875 0.0
C630 C 0.84356 0.78272 0.53727 0.0
O631 O 0.79883 0.82154 0.80815 0.0
O632 O 0.73582 0.77474 0.76896 0.0
O633 O 0.73994 0.78009 0.6591 0.0
O634 O 0.70003 0.71076 0.66338 0.0
O635 O 0.78183 0.71181 0.80372 0.0
O636 O 0.72609 0.70848 0.76235 0.0
O637 O 0.8279 0.73007 0.67327 0.0
O638 O 0.83395 0.71781 0.74953 0.0
O639 O 0.86222 0.76028 0.85736 0.0
O640 O 0.9111 0.79495 0.79659 0.0
O641 O 0.81667 0.81596 0.70236 0.0
O642 O 0.87374 0.80909 0.72888 0.0
C643 C 0.7567 0.81051 0.8 0.0
C644 C 0.73936 0.69383 0.79399 0.0
C645 C 0.66005 0.75058 0.65445 0.0
C646 C 0.62079 0.78698 0.63011 0.0
C647 C 0.57704 0.71961 0.66755 0.0
C648 C 0.61749 0.71802 0.67177 0.0
C649 C 0.57856 0.75368 0.64645 0.0
C650 C 0.66135 0.78524 0.63433 0.0
C651 C 0.70263 0.74549 0.6493 0.0
C652 C 0.7969 0.66263 0.50014 0.0
C653 C 0.77085 0.62466 0.52308 0.0
H654 H 0.84743 0.74155 0.46735 0.0
C655 C 0.84292 0.71265 0.69971 0.0
C656 C 0.86029 0.8301 0.70575 0.0
C657 C 0.9404 0.79309 0.8685 0.0
C658 C 0.98547 0.77602 0.91322 0.0
C659 C 1.00204 0.85168 0.91052 0.0
C660 C 0.96658 0.83785 0.88167 0.0
C661 C 1.01181 0.82103 0.92581 0.0
C662 C 0.94945 0.7626 0.88505 0.0
C663 C 0.90451 0.77595 0.83591 0.0
H664 H 0.54437 0.69411 0.68023 0.0
H665 H 0.61532 0.69062 0.68704 0.0
H666 H 0.54681 0.7542 0.64319 0.0
H667 H 0.69395 0.80971 0.61939 0.0
H668 H 1.02247 0.88626 0.92044 0.0
H669 H 0.95997 0.86191 0.8694 0.0
H670 H 1.04029 0.83251 0.94674 0.0
H671 H 0.92826 0.72804 0.87553 0.0
Co672 Co 0.05899 0.92187 0.49887 0.0
Co673 Co 0.08053 0.98606 0.57612 0.0
Co674 Co 1.0519 1.0195 0.51137 0.0
O675 O 0.08734 0.98547 0.50499 0.0
H676 H 0.11894 0.99954 0.49026 0.0
O677 O 1.01528 0.05264 0.5202 0.0
Co678 Co 1.03861 0.11436 0.54097 0.0
Co679 Co 1.019 0.06401 0.4562 0.0
H680 H 0.98378 0.03693 0.53429 0.0
O681 O 0.12484 0.98555 0.59943 0.0
O682 O 0.05942 0.92758 0.57515 0.0
O683 O 1.03862 1.00247 0.6277 0.0
O684 O 1.00146 0.98276 0.56379 0.0
O685 O 0.08991 0.06282 0.56351 0.0
O686 O 0.05985 0.17021 0.56523 0.0
O687 O 1.03672 0.11292 0.60778 0.0
O688 O 0.10168 0.12047 0.52969 0.0
O689 O 0.10188 0.05662 0.45835 0.0
O690 O 0.06143 0.05217 0.40176 0.0
O691 O 1.04007 0.12379 0.47125 0.0
O692 O 0.9744 0.07336 0.44105 0.0
C693 C 0.07796 0.87309 0.49507 0.0
C694 C 0.99216 0.93574 0.46318 0.0
C695 C 1.00105 0.9824 0.61056 0.0
C696 C 0.09772 0.94402 0.59552 0.0
C697 C 1.05517 0.15506 0.60685 0.0
C698 C 0.1143 0.10287 0.55671 0.0
C699 C 0.10007 0.06506 0.41549 0.0
C700 C 1.00283 0.11377 0.45252 0.0
O701 O 1.03598 0.86533 0.49506 0.0
O702 O 0.11011 0.91299 0.49282 0.0
O703 O 1.01544 0.97634 0.45846 0.0
O704 O 0.99911 0.91962 0.49729 0.0
Co705 Co 0.60503 0.94733 0.9386 0.0
Co706 Co 0.57001 0.95324 0.02309 0.0
Co707 Co 0.55843 0.03057 1.00261 0.0
O708 O 0.60207 1.00004 0.98779 0.0
H709 H 0.63094 1.01884 1.00011 0.0
O710 O 0.51541 0.06161 0.01659 0.0
Co711 Co 0.50876 0.11032 0.07089 0.0
Co712 Co 0.55004 0.11198 0.98731 0.0
H713 H 0.48785 0.04408 1.00121 0.0
O714 O 0.59917 0.95788 0.07247 0.0
O715 O 0.59268 0.91378 0.99643 0.0
O716 O 0.50504 0.93141 0.04062 0.0
O717 O 0.51903 1.00073 0.06547 0.0
O718 O 0.60201 0.07937 0.04802 0.0
O719 O 0.4986 0.15209 0.11996 0.0
O720 O 0.44677 0.1015 0.07286 0.0
O721 O 0.57132 0.12759 0.08075 0.0
O722 O 0.59638 0.0598 0.9394 0.0
O723 O 0.61421 0.12985 0.96521 0.0
O724 O 0.52841 0.15189 0.01923 0.0
O725 O 0.52288 0.11439 0.9396 0.0
C726 C 0.65311 0.91833 0.9005 0.0
C727 C 0.51069 0.94308 0.93696 0.0
C728 C 0.49283 0.95985 0.06729 0.0
C729 C 0.60845 0.92833 0.04046 0.0
C730 C 0.45731 0.13546 0.10858 0.0
C731 C 0.60373 0.11556 0.07451 0.0
C732 C 0.62208 0.10024 0.93468 0.0
C733 C 0.51539 0.14346 0.97429 0.0
O734 O 0.61045 0.90125 0.894 0.0
O735 O 0.66754 0.95564 0.93105 0.0
O736 O 0.51514 0.98168 0.95752 0.0
O737 O 0.54113 0.92909 0.93431 0.0
Co738 Co 0.10756 0.44539 0.93418 0.0
Co739 Co 0.06284 0.44285 0.016 0.0
Co740 Co 1.05422 0.52293 1.00015 0.0
O741 O 0.09836 0.49289 0.98829 0.0
H742 H 0.12494 0.51037 1.00538 0.0
O743 O 1.00988 0.55317 0.01245 0.0
Co744 Co 1.00291 0.60221 0.06611 0.0
Co745 Co 1.04215 0.60191 0.9813 0.0
H746 H 0.98196 0.53454 0.99811 0.0
O747 O 0.08804 0.43683 0.06345 0.0
O748 O 0.08004 0.40124 0.98304 0.0
O749 O 0.99819 0.42234 0.0277 0.0
O750 O 1.01049 0.48996 0.05984 0.0
O751 O 0.09496 0.56997 0.04896 0.0
O752 O 0.99412 0.6452 0.1138 0.0
O753 O 0.94274 0.59619 0.06491 0.0
O754 O 0.06231 0.61655 0.078 0.0
O755 O 0.09799 0.55519 0.94066 0.0
O756 O 0.10666 0.62296 0.96598 0.0
O757 O 1.02697 0.64461 0.01601 0.0
O758 O 1.01324 0.60764 0.93715 0.0
C759 C 0.15642 0.41706 0.90333 0.0
C760 C 1.01772 0.44378 0.91964 0.0
C761 C 0.98488 0.44858 0.05791 0.0
C762 C 0.09087 0.40586 0.02827 0.0
C763 C 0.95411 0.63067 0.09992 0.0
C764 C 0.09516 0.60591 0.07407 0.0
C765 C 0.1222 0.5965 0.9407 0.0
C766 C 1.01444 0.64024 0.97192 0.0
O767 O 0.11796 0.4037 0.88635 0.0
O768 O 0.16615 0.45028 0.94003 0.0
O769 O 1.01457 0.47662 0.94985 0.0
O770 O 1.05049 0.43316 0.9164 0.0
Co771 Co 0.59255 0.44119 0.96508 0.0
Co772 Co 0.53825 0.43939 0.03577 0.0
Co773 Co 0.5525 0.52257 0.00701 0.0
O774 O 0.58406 0.4875 0.01088 0.0
H775 H 0.60695 0.50237 0.03346 0.0
O776 O 0.52148 0.55839 1.00414 0.0
Co777 Co 0.55196 0.62087 0.00675 0.0
Co778 Co 0.52779 0.55625 0.93385 0.0
H779 H 0.48981 0.54673 0.01929 0.0
O780 O 0.54881 0.43439 0.09439 0.0
O781 O 0.55754 0.39758 0.01594 0.0
O782 O 0.47579 0.4261 0.03453 0.0
O783 O 0.50265 0.49537 0.06677 0.0
O784 O 0.59103 0.56947 0.05699 0.0
O785 O 0.57435 0.67806 0.00867 0.0
O786 O 0.50178 0.62679 1.00546 0.0
O787 O 0.61031 0.62361 0.01298 0.0
O788 O 0.60361 0.55144 0.94991 0.0
O789 O 0.56305 0.52847 0.88798 0.0
O790 O 0.56235 0.61499 0.93036 0.0
O791 O 0.49313 0.56933 0.90465 0.0
C792 C 0.63837 0.41637 0.95201 0.0
C793 C 0.51037 0.43906 0.93361 0.0
C794 C 0.47063 0.45603 0.06681 0.0
C795 C 0.55974 0.40484 0.06482 0.0
C796 C 0.53196 0.66739 1.00545 0.0
C797 C 0.61592 0.60923 0.04928 0.0
C798 C 0.60183 0.5484 0.90266 0.0
C799 C 0.53049 0.60542 0.90255 0.0
O800 O 0.60539 0.40042 0.92464 0.0
O801 O 0.64432 0.45108 0.98513 0.0
O802 O 0.5124 0.4762 0.95653 0.0
O803 O 0.53869 0.42508 0.93789 0.0
Co804 Co 0.13028 0.48692 0.51209 0.0
Co805 Co 0.12803 0.48946 0.42406 0.0
Co806 Co 0.05894 0.53099 0.50189 0.0
O807 O 0.08398 0.48509 0.47892 0.0
H808 H 0.05927 0.45609 0.47579 0.0
O809 O 1.03207 0.57588 0.52614 0.0
Co810 Co 0.98551 0.57361 0.49191 0.0
Co811 Co 0.98278 0.5648 0.57751 0.0
H812 H 1.05566 0.60521 0.53223 0.0
O813 O 0.12808 0.43905 0.38181 0.0
O814 O 0.17004 0.47559 0.44543 0.0
O815 O 0.15292 0.54618 0.40235 0.0
O816 O 0.10513 0.57363 0.4509 0.0
O817 O 1.01484 0.49732 0.45087 0.0
O818 O 0.94792 0.57529 0.45708 0.0
O819 O 1.00966 0.63156 0.48744 0.0
O820 O 0.95541 0.51143 0.48848 0.0
O821 O 1.01422 0.4884 0.55227 0.0
O822 O 0.95592 0.50504 0.59201 0.0
O823 O 0.94304 0.58241 0.55774 0.0
O824 O 0.97889 0.60969 0.62719 0.0
C825 C 0.13929 0.44411 0.54303 0.0
C826 C 0.14593 0.57322 0.54572 0.0
C827 C 0.14013 0.577 0.4166 0.0
C828 C 0.15958 0.44388 0.40695 0.0
C829 C 0.97612 0.61635 0.46064 0.0
C830 C 0.97192 0.48701 0.45787 0.0
C831 C 0.97511 0.47906 0.5804 0.0
C832 C 0.9494 0.60832 0.60146 0.0
O833 O 0.16843 0.48488 0.5455 0.0
O834 O 0.10451 0.42933 0.51831 0.0
O835 O 0.10329 0.56431 0.55268 0.0
O836 O 0.16154 0.54882 0.51357 0.0
Co837 Co 0.62025 0.97156 0.51065 0.0
Co838 Co 0.61509 0.97426 0.42178 0.0
Co839 Co 0.55314 1.0226 0.50309 0.0
O840 O 0.57439 0.97408 0.48018 0.0
H841 H 0.54804 0.94611 0.47849 0.0
O842 O 0.53234 0.07133 0.52581 0.0
Co843 Co 0.49023 0.0772 0.49228 0.0
Co844 Co 0.48804 0.0689 0.58026 0.0
H845 H 0.55866 0.09901 0.53063 0.0
O846 O 0.61453 0.92178 0.38244 0.0
O847 O 0.65908 0.96282 0.44255 0.0
O848 O 0.6405 0.02947 0.39585 0.0
O849 O 0.60059 0.06215 0.45147 0.0
O850 O 0.50822 0.99197 0.4528 0.0
O851 O 0.45717 0.08874 0.45862 0.0
O852 O 0.52045 0.13513 0.49418 0.0
O853 O 0.45331 1.01456 0.48416 0.0
O854 O 0.50543 0.98288 0.55509 0.0
O855 O 0.46046 1.01339 0.60401 0.0
O856 O 0.44916 0.08585 0.5582 0.0
O857 O 0.48899 0.11839 0.62442 0.0
C858 C 0.6259 0.92318 0.53568 0.0
C859 C 0.64087 0.06169 0.5445 0.0
C860 C 0.63154 0.06241 0.41333 0.0
C861 C 0.64826 0.92971 0.40583 0.0
C862 C 0.48857 0.12824 0.46824 0.0
C863 C 0.46645 0.98588 0.45812 0.0
C864 C 0.47179 0.98173 0.59023 0.0
C865 C 0.45859 0.11528 0.59878 0.0
O866 O 0.65704 0.96325 0.54216 0.0
O867 O 0.59227 0.9139 0.51122 0.0
O868 O 0.59836 0.05346 0.55315 0.0
O869 O 0.65464 0.03418 0.51628 0.0
C870 C 0.16254 0.17191 0.35905 0.0
C871 C 0.20833 0.17807 0.34703 0.0
H872 H 0.0937 0.13134 0.38591 0.0
C873 C 0.21936 0.14695 0.36017 0.0
H874 H 0.15239 0.19555 0.35167 0.0
C875 C 0.18503 0.11033 0.38334 0.0
C876 C 0.13877 0.10326 0.39205 0.0
H877 H 0.25428 0.15062 0.3521 0.0
H878 H 0.19445 0.08708 0.39311 0.0
C879 C 0.1285 0.13485 0.37946 0.0
C880 C 0.93892 0.17932 0.45834 0.0
C881 C 0.94053 0.17889 0.40624 0.0
H882 H 0.95958 0.15974 0.51458 0.0
C883 C 0.97264 0.16723 0.37168 0.0
H884 H 0.91506 0.18885 0.48593 0.0
C885 C 0.9985 0.15129 0.3883 0.0
C886 C 0.99298 0.1472 0.43962 0.0
H887 H 0.9746 0.16629 0.33134 0.0
H888 H 1.01935 0.13807 0.36043 0.0
C889 C 0.96487 0.16337 0.4749 0.0
C890 C 0.90787 0.90255 0.36901 0.0
C891 C 0.8934 0.85701 0.35737 0.0
H892 H 0.94998 0.96266 0.41044 0.0
C893 C 0.90961 0.83713 0.38378 0.0
H894 H 0.89502 0.91914 0.35148 0.0
C895 C 0.94023 0.86217 0.41937 0.0
C896 C 0.95615 0.90797 0.42918 0.0
H897 H 0.89898 0.80214 0.37668 0.0
H898 H 0.95242 0.84573 0.43815 0.0
C899 C 0.93914 0.92761 0.40364 0.0
C900 C 0.13836 0.80257 0.49128 0.0
C901 C 0.10266 0.76245 0.47567 0.0
H902 H 0.16049 0.87162 0.49708 0.0
C903 C 1.05792 0.75744 0.49281 0.0
H904 H 0.17333 0.80629 0.48226 0.0
C905 C 1.04981 0.79466 0.50378 0.0
C906 C 0.08684 0.83627 0.50041 0.0
H907 H 1.02938 0.72595 0.48616 0.0
H908 H 1.01472 0.79028 0.50892 0.0
C909 C 0.13116 0.84034 0.49883 0.0
C910 C 0.18915 0.91387 0.60484 0.0
C911 C 0.17371 0.89707 0.65116 0.0
H912 H 0.17642 0.94205 0.55128 0.0
C913 C 0.12776 0.88597 0.67284 0.0
H914 H 0.22389 0.92176 0.58646 0.0
C915 C 0.09941 0.89585 0.65093 0.0
C916 C 0.11694 0.91687 0.60734 0.0
H917 H 0.11494 0.87301 0.70869 0.0
H918 H 0.06569 0.891 0.6706 0.0
C919 C 0.16154 0.9246 0.58401 0.0
C920 C 0.2054 0.20343 0.62161 0.0
C921 C 0.21915 0.18524 0.65279 0.0
H922 H 0.1645 0.19183 0.56435 0.0
C923 C 0.20129 0.13935 0.64789 0.0
H924 H 0.2191 0.2385 0.62286 0.0
C925 C 0.16784 0.11258 0.61631 0.0
C926 C 0.15285 0.1309 0.58675 0.0
H927 H 0.21275 0.12379 0.66859 0.0
H928 H 0.1536 0.07747 0.61526 0.0
C929 C 0.17367 0.17661 0.58817 0.0
C930 C 1.04906 0.21567 0.73561 0.0
C931 C 0.0711 0.25711 0.71868 0.0
H932 H 1.02217 0.14696 0.70785 0.0
C933 C 0.10888 0.26378 0.68097 0.0
H934 H 1.02319 0.2103 0.76864 0.0
C935 C 0.10682 0.22838 0.64433 0.0
C936 C 0.07205 0.18642 0.65154 0.0
H937 H 0.1309 0.29629 0.67087 0.0
H938 H 0.128 0.23491 0.60813 0.0
C939 C 1.04757 0.17926 0.70017 0.0
C940 C 0.88332 0.89553 0.65905 0.0
C941 C 0.89553 0.86985 0.68164 0.0
H942 H 0.90655 0.95015 0.6174 0.0
C943 C 0.94244 0.88267 0.68102 0.0
H944 H 0.84768 0.88708 0.65865 0.0
C945 C 0.97567 0.92055 0.66105 0.0
C946 C 0.96379 0.94545 0.6371 0.0
H947 H 0.95388 0.8635 0.69625 0.0
H948 H 1.01111 0.92947 0.66301 0.0
C949 C 0.91704 0.93207 0.63581 0.0
C950 C 0.41534 0.21939 0.1938 0.0
C951 C 0.37004 0.20562 0.18476 0.0
H952 H 0.47641 0.20926 0.17882 0.0
C953 C 0.35291 0.16689 0.14994 0.0
H954 H 0.43072 0.24849 0.22005 0.0
C955 C 0.38007 0.14376 0.12528 0.0
C956 C 0.42549 0.15793 0.13476 0.0
H957 H 0.31843 0.15435 0.14146 0.0
H958 H 0.36541 0.11479 0.09862 0.0
C959 C 0.44202 0.19634 0.1698 0.0
C960 C 0.90475 0.41963 0.18235 0.0
C961 C 0.8748 0.37601 0.16704 0.0
H962 H 0.96367 0.4777 0.1598 0.0
C963 C 0.87729 0.36022 0.11521 0.0
H964 H 0.9041 0.43248 0.2222 0.0
C965 C 0.91055 0.38591 0.07989 0.0
C966 C 0.94317 0.42823 0.09505 0.0
H967 H 0.8548 0.32688 0.10211 0.0
H968 H 0.91248 0.3714 0.04062 0.0
C969 C 0.93886 0.44554 0.14661 0.0
C970 C 0.70162 0.89265 0.03564 0.0
C971 C 0.70874 0.9038 0.08671 0.0
H972 H 0.66191 0.88898 0.981 0.0
C973 C 0.67714 0.91439 0.123 0.0
H974 H 0.72576 0.8844 0.00699 0.0
C975 C 0.64175 0.91841 0.10792 0.0
C976 C 0.63721 0.91173 0.05623 0.0
H977 H 0.68214 0.92325 0.16252 0.0
H978 H 0.61983 0.9297 0.13661 0.0
C979 C 0.66544 0.89577 0.02065 0.0
C980 C 0.21206 0.66576 0.1214 0.0
C981 C 0.20482 0.69768 0.15915 0.0
H982 H 0.18281 0.61076 0.06493 0.0
C983 C 0.1622 0.69906 0.16681 0.0
H984 H 0.2447 0.66409 0.1137 0.0
C985 C 0.12749 0.66931 0.13927 0.0
C986 C 0.13376 0.63667 0.10248 0.0
H987 H 0.15516 0.72354 0.19389 0.0
H988 H 0.09533 0.67205 0.14737 0.0
C989 C 0.17661 0.63517 0.09355 0.0
C990 C 0.41036 0.90164 0.86209 0.0
C991 C 0.39781 0.85634 0.85324 0.0
H992 H 0.45542 0.96468 0.89606 0.0
C993 C 0.42025 0.84002 0.87598 0.0
H994 H 0.39398 0.91545 0.84524 0.0
C995 C 0.45562 0.86806 0.90429 0.0
C996 C 0.46943 0.91343 0.91168 0.0
H997 H 0.41115 0.80539 0.87132 0.0
H998 H 0.47267 0.85408 0.91989 0.0
C999 C 0.44559 0.92985 0.89128 0.0
C1000 C 0.25972 0.38831 0.847 0.0
C1001 C 0.23832 0.34271 0.83071 0.0
H1002 H 0.25211 0.44723 0.88338 0.0
C1003 C 0.19025 0.32225 0.84173 0.0
H1004 H 0.29658 0.40566 0.83982 0.0
C1005 C 0.1647 0.34641 0.86576 0.0
C1006 C 0.18586 0.39203 0.88161 0.0
H1007 H 0.17202 0.28748 0.83033 0.0
H1008 H 0.12778 0.32906 0.8718 0.0
C1009 C 0.23411 0.41236 0.8725 0.0
C1010 C 0.66938 0.15133 0.81357 0.0
C1011 C 0.71556 0.15893 0.80702 0.0
H1012 H 0.60379 0.12679 0.85933 0.0
C1013 C 0.72857 0.14006 0.83828 0.0
H1014 H 0.65773 0.16456 0.78986 0.0
C1015 C 0.69725 0.1177 0.8778 0.0
C1016 C 0.65221 0.11346 0.88659 0.0
H1017 H 0.76381 0.14568 0.83517 0.0
H1018 H 0.70906 0.1064 0.90349 0.0
C1019 C 0.6383 0.12938 0.85319 0.0
C1020 C 1.00614 0.74689 0.97693 0.0
C1021 C 0.99507 0.74253 0.92845 0.0
H1022 H 1.02003 0.71773 0.02935 0.0
C1023 C 0.99126 0.70463 0.89465 0.0
H1024 H 1.0096 0.77559 1.00388 0.0
C1025 C 0.9969 0.67145 0.90928 0.0
C1026 C 1.00686 0.67527 0.95808 0.0
H1027 H 0.98399 0.70053 0.85657 0.0
H1028 H 0.99364 0.64283 0.88193 0.0
C1029 C 1.01175 0.7135 0.99172 0.0
C1030 C 0.10721 0.30392 0.02542 0.0
C1031 C 0.11945 0.31 0.07384 0.0
H1032 H 0.08971 0.3295 0.97238 0.0
C1033 C 0.12322 0.34855 0.10621 0.0
H1034 H 0.10378 0.27491 0.99925 0.0
C1035 C 0.11501 0.37991 0.09071 0.0
C1036 C 0.10268 0.37364 0.0424 0.0
H1037 H 0.13146 0.35422 0.14414 0.0
H1038 H 0.11767 0.40885 0.1172 0.0
C1039 C 0.09936 0.33548 0.00969 0.0
C1040 C 0.23569 0.68268 0.89357 0.0
C1041 C 0.23953 0.66976 0.84103 0.0
H1042 H 0.19631 0.66875 0.96601 0.0
C1043 C 0.20879 0.62765 0.82223 0.0
H1044 H 0.25876 0.71484 0.90931 0.0
C1045 C 0.17228 0.60086 0.85522 0.0
C1046 C 0.1664 0.6159 0.9073 0.0
H1047 H 0.21054 0.61708 0.78181 0.0
H1048 H 0.14669 0.57033 0.83945 0.0
C1049 C 0.19983 0.65617 0.92614 0.0
C1050 C 0.42139 0.17877 0.98781 0.0
C1051 C 0.41342 0.16948 0.93716 0.0
H1052 H 0.46368 0.18221 0.03926 0.0
C1053 C 0.44621 0.16299 0.89874 0.0
H1054 H 0.39659 0.18428 0.01805 0.0
C1055 C 0.48318 0.15979 0.9111 0.0
C1056 C 0.48806 0.16335 0.96212 0.0
H1057 H 0.44075 0.15587 0.85944 0.0
H1058 H 0.50559 0.15064 0.8807 0.0
C1059 C 0.45933 0.17689 1.00005 0.0
C1060 C 0.96801 0.37062 0.8029 0.0
C1061 C 0.92321 0.36664 0.81192 0.0
H1062 H 1.03234 0.39725 0.82963 0.0
C1063 C 0.9102 0.39142 0.85488 0.0
H1064 H 0.97942 0.35336 0.76916 0.0
C1065 C 0.94087 0.41741 0.88992 0.0
C1066 C 0.98484 0.41875 0.88248 0.0
H1067 H 0.87583 0.3892 0.86264 0.0
H1068 H 0.92969 0.43513 0.92352 0.0
C1069 C 0.99828 0.39592 0.83776 0.0
C1070 C 0.68691 0.82826 0.81726 0.0
C1071 C 0.73146 0.83924 0.82642 0.0
H1072 H 0.62898 0.8435 0.83183 0.0
C1073 C 0.75088 0.87809 0.86042 0.0
H1074 H 0.67006 0.79921 0.79164 0.0
C1075 C 0.72679 0.90426 0.88397 0.0
C1076 C 0.68205 0.8929 0.87464 0.0
H1077 H 0.78495 0.88846 0.86904 0.0
H1078 H 0.74316 0.9332 0.90995 0.0
C1079 C 0.66305 0.85418 0.84061 0.0
C1080 C 0.92044 0.72613 0.16043 0.0
C1081 C 0.87262 0.70566 0.17439 0.0
H1082 H 0.98256 0.7193 0.12764 0.0
C1083 C 0.85127 0.6596 0.1609 0.0
H1084 H 0.93874 0.7612 0.16957 0.0
C1085 C 0.8766 0.63527 0.13513 0.0
C1086 C 0.92468 0.65574 0.12286 0.0
H1087 H 0.81463 0.64208 0.17041 0.0
H1088 H 0.85858 0.60015 0.12636 0.0
C1089 C 0.9458 0.70176 0.13611 0.0
C1090 C 0.37657 0.88608 0.12788 0.0
C1091 C 0.38398 0.89181 0.17825 0.0
H1092 H 0.4058 0.90353 0.05305 0.0
C1093 C 0.42471 0.92613 0.19348 0.0
H1094 H 0.34586 0.85974 0.11477 0.0
C1095 C 0.4587 0.95207 0.15823 0.0
C1096 C 0.4528 0.94375 0.10696 0.0
H1097 H 0.43141 0.93118 0.23203 0.0
H1098 H 0.49102 0.97605 0.17022 0.0
C1099 C 0.41089 0.91129 0.09251 0.0
C1100 C 0.70484 0.15411 0.14829 0.0
C1101 C 0.71541 0.19887 0.16278 0.0
H1102 H 0.66206 0.09282 0.10849 0.0
C1103 C 0.69068 0.21593 0.145 0.0
H1104 H 0.72299 0.13963 0.16099 0.0
C1105 C 0.65551 0.18916 0.1157 0.0
C1106 C 0.64412 0.1443 0.10209 0.0
H1107 H 0.69795 0.25016 0.1542 0.0
H1108 H 0.63695 0.20373 0.10389 0.0
C1109 C 0.66991 0.12726 0.118 0.0
C1110 C 0.65931 0.63338 0.81038 0.0
C1111 C 0.70503 0.65457 0.81973 0.0
H1112 H 0.59268 0.58211 0.82563 0.0
C1113 C 0.71738 0.63779 0.85422 0.0
H1114 H 0.64796 0.64476 0.78432 0.0
C1115 C 0.6846 0.60296 0.8806 0.0
C1116 C 0.63888 0.58212 0.87129 0.0
H1117 H 0.75231 0.65241 0.86209 0.0
H1118 H 0.69499 0.59251 0.90848 0.0
C1119 C 0.62732 0.59714 0.83446 0.0
C1120 C 0.50564 0.6478 0.80269 0.0
C1121 C 0.52952 0.69318 0.81484 0.0
H1122 H 0.48702 0.58474 0.82136 0.0
C1123 C 0.56031 0.70939 0.85053 0.0
H1124 H 0.48339 0.63413 0.77363 0.0
C1125 C 0.56373 0.68059 0.87677 0.0
C1126 C 0.53517 0.63569 0.86892 0.0
H1127 H 0.5798 0.74422 0.8602 0.0
H1128 H 0.58656 0.69364 0.90512 0.0
C1129 C 0.50792 0.61945 0.82989 0.0
C1130 C 0.43104 0.33745 0.85655 0.0
C1131 C 0.40533 0.35307 0.83859 0.0
H1132 H 0.48389 0.35193 0.89991 0.0
C1133 C 0.41325 0.39724 0.85373 0.0
H1134 H 0.42586 0.3037 0.84604 0.0
C1135 C 0.44662 0.42518 0.88519 0.0
C1136 C 0.47318 0.40974 0.90202 0.0
H1137 H 0.3936 0.4103 0.84126 0.0
H1138 H 0.45209 0.45901 0.89562 0.0
C1139 C 0.46457 0.36535 0.88747 0.0
C1140 C 0.65895 0.31802 0.94731 0.0
C1141 C 0.69954 0.33635 0.9686 0.0
H1142 H 0.60942 0.32955 0.92215 0.0
C1143 C 0.72177 0.382 0.98126 0.0
H1144 H 0.64207 0.28315 0.93561 0.0
C1145 C 0.70261 0.40859 0.97474 0.0
C1146 C 0.66228 0.39011 0.95294 0.0
H1147 H 0.75416 0.39698 0.99593 0.0
H1148 H 0.71942 0.44348 0.98642 0.0
C1149 C 0.64103 0.34475 0.93842 0.0
C1150 C 0.61863 0.38577 0.1541 0.0
C1151 C 0.6321 0.35422 0.12435 0.0
H1152 H 0.58496 0.42625 0.15864 0.0
C1153 C 0.61517 0.33403 0.078 0.0
H1154 H 0.63117 0.40186 0.18996 0.0
C1155 C 0.58845 0.34808 0.05972 0.0
C1156 C 0.57893 0.38278 0.08731 0.0
H1157 H 0.62414 0.30864 0.05516 0.0
H1158 H 0.57678 0.33309 0.02333 0.0
C1159 C 0.59228 0.39987 0.13583 0.0
C1160 C 0.69835 0.71312 0.12246 0.0
C1161 C 0.7121 0.69616 0.15515 0.0
H1162 H 0.6582 0.69956 0.06337 0.0
C1163 C 0.69587 0.65034 0.15015 0.0
H1164 H 0.71039 0.7481 0.12433 0.0
C1165 C 0.66532 0.62243 0.11569 0.0
C1166 C 0.65078 0.63928 0.08383 0.0
H1167 H 0.70678 0.6357 0.17282 0.0
H1168 H 0.65312 0.58744 0.11399 0.0
C1169 C 0.66842 0.68516 0.08718 0.0
C1170 C 0.53902 0.77602 0.991 0.0
C1171 C 0.49296 0.76865 0.00615 0.0
H1172 H 0.58807 0.75021 0.98276 0.0
C1173 C 0.45972 0.72477 0.00661 0.0
H1174 H 0.56565 0.80832 0.98551 0.0
C1175 C 0.47263 0.69134 1.00331 0.0
C1176 C 0.51877 0.70082 0.99904 0.0
H1177 H 0.42351 0.71574 0.01536 0.0
H1178 H 0.44624 0.65876 0.00824 0.0
C1179 C 0.552 0.74267 0.98937 0.0
C1180 C 0.36337 0.38492 0.14353 0.0
C1181 C 0.38112 0.3791 0.18254 0.0
H1182 H 0.37794 0.41458 0.07635 0.0
C1183 C 0.42735 0.40631 0.18801 0.0
H1184 H 0.32808 0.36479 0.13774 0.0
C1185 C 0.45521 0.43703 0.1544 0.0
C1186 C 0.4383 0.44001 0.11295 0.0
H1187 H 0.44267 0.40286 0.21705 0.0
H1188 H 0.49103 0.45583 0.15844 0.0
C1189 C 0.39176 0.4142 0.10868 0.0
C1190 C 0.8686 0.66653 0.62191 0.0
C1191 C 0.86967 0.68561 0.67337 0.0
H1192 H 0.8893 0.62548 0.5601 0.0
C1193 C 0.897 0.67822 0.70011 0.0
H1194 H 0.84888 0.6713 0.59912 0.0
C1195 C 0.92234 0.65374 0.67668 0.0
C1196 C 0.92084 0.63409 0.6255 0.0
H1197 H 0.89952 0.69206 0.73947 0.0
H1198 H 0.94312 0.65002 0.69932 0.0
C1199 C 0.89264 0.64046 0.59893 0.0
C1200 C 0.40421 0.86331 0.61822 0.0
C1201 C 0.38492 0.86909 0.66912 0.0
H1202 H 0.44814 0.89418 0.55352 0.0
C1203 C 0.39554 0.91202 0.69331 0.0
H1204 H 0.39636 0.83073 0.59817 0.0
C1205 C 0.42429 0.94798 0.66769 0.0
C1206 C 0.44412 0.94247 0.61713 0.0
H1207 H 0.38207 0.9181 0.73256 0.0
H1208 H 0.43121 0.98042 0.68782 0.0
C1209 C 0.43402 0.89963 0.59267 0.0
C1210 C 0.20268 0.39222 0.57837 0.0
C1211 C 0.19134 0.39721 0.6315 0.0
H1212 H 0.19323 0.40217 0.50762 0.0
C1213 C 0.15404 0.40733 0.6525 0.0
H1214 H 0.23129 0.38491 0.56046 0.0
C1215 C 0.13226 0.41715 0.62178 0.0
C1216 C 0.14685 0.41624 0.56962 0.0
H1217 H 0.1437 0.41078 0.69302 0.0
H1218 H 0.10704 0.42949 0.63936 0.0
C1219 C 0.18069 0.40183 0.54773 0.0
C1220 C 0.69094 0.16667 0.63606 0.0
C1221 C 0.73783 0.17636 0.62751 0.0
H1222 H 0.62386 0.1234 0.61697 0.0
C1223 C 0.75277 0.14975 0.58864 0.0
H1224 H 0.6779 0.18613 0.66564 0.0
C1225 C 0.72162 0.11335 0.56106 0.0
C1226 C 0.67448 0.10248 0.57116 0.0
H1227 H 0.78856 0.1562 0.5804 0.0
H1228 H 0.73452 0.0932 0.53244 0.0
C1229 C 0.65977 0.13035 0.60825 0.0
C1230 C 0.88576 0.42357 0.3657 0.0
C1231 C 0.88358 0.38113 0.35819 0.0
H1232 H 0.91362 0.48907 0.40384 0.0
C1233 C 0.91232 0.37411 0.38309 0.0
H1234 H 0.86632 0.43136 0.34554 0.0
C1235 C 0.94158 0.40845 0.41513 0.0
C1236 C 0.94177 0.45015 0.424 0.0
H1237 H 0.91225 0.34219 0.37789 0.0
H1238 H 0.9634 0.40223 0.4337 0.0
C1239 C 0.91347 0.45712 0.39887 0.0
C1240 C 0.74968 0.89775 0.35659 0.0
C1241 C 0.72796 0.85268 0.33816 0.0
H1242 H 0.74264 0.95671 0.39345 0.0
C1243 C 0.67968 0.83308 0.34582 0.0
H1244 H 0.78664 0.91441 0.35203 0.0
C1245 C 0.6544 0.85781 0.36854 0.0
C1246 C 0.67607 0.90296 0.3864 0.0
H1247 H 0.66124 0.79868 0.3327 0.0
H1248 H 0.61746 0.84143 0.37183 0.0
C1249 C 0.7243 0.92219 0.38086 0.0
C1250 C 0.22974 0.65452 0.32603 0.0
C1251 C 0.2268 0.69462 0.34258 0.0
H1252 H 0.20547 0.5876 0.33425 0.0
C1253 C 0.19506 0.69637 0.38593 0.0
H1254 H 0.25407 0.65133 0.29419 0.0
C1255 C 0.16626 0.6586 0.4103 0.0
C1256 C 0.1686 0.61817 0.39192 0.0
H1257 H 0.19221 0.72675 0.40076 0.0
H1258 H 0.1425 0.66113 0.44359 0.0
C1259 C 0.20138 0.61735 0.34966 0.0
C1260 C 0.46598 0.1937 0.39151 0.0
C1261 C 0.49041 0.23677 0.41377 0.0
H1262 H 0.44635 0.12555 0.39118 0.0
C1263 C 0.51299 0.24347 0.45503 0.0
H1264 H 0.44863 0.18735 0.35933 0.0
C1265 C 0.51123 0.20808 0.47347 0.0
C1266 C 0.48783 0.16524 0.45043 0.0
H1267 H 0.53176 0.27604 0.47352 0.0
H1268 H 0.5281 0.2142 0.50595 0.0
C1269 C 0.4647 0.15829 0.40968 0.0
C1270 C 0.59739 0.81164 0.566 0.0
C1271 C 0.62282 0.82211 0.60567 0.0
H1272 H 0.58263 0.83528 0.50902 0.0
C1273 C 0.65157 0.86605 0.62031 0.0
H1274 H 0.57524 0.77801 0.55381 0.0
C1275 C 0.65362 0.89907 0.59667 0.0
C1276 C 0.62768 0.88852 0.55732 0.0
H1277 H 0.67163 0.87488 0.65077 0.0
H1278 H 0.67473 0.93281 0.60991 0.0
C1279 C 0.60099 0.84444 0.54099 0.0
C1280 C 0.70806 0.13698 0.31472 0.0
C1281 C 0.71978 0.17913 0.34202 0.0
H1282 H 0.6713 0.06792 0.31541 0.0
C1283 C 0.70076 0.18276 0.39327 0.0
H1284 H 0.72165 0.1326 0.27514 0.0
C1285 C 0.67055 0.14508 0.41631 0.0
C1286 C 0.65969 0.10299 0.38887 0.0
H1287 H 0.70953 0.21461 0.41562 0.0
H1288 H 0.65685 0.14884 0.45595 0.0
C1289 C 0.67885 0.09965 0.3378 0.0
C1290 C 0.91393 0.66966 0.42562 0.0
C1291 C 0.91962 0.65878 0.3725 0.0
H1292 H 0.93062 0.66727 0.4961 0.0
C1293 C 0.95555 0.64687 0.34995 0.0
H1294 H 0.88775 0.68001 0.44498 0.0
C1295 C 0.97918 0.63847 0.37982 0.0
C1296 C 0.96893 0.64383 0.43266 0.0
H1297 H 0.96302 0.64048 0.30922 0.0
H1298 H 1.00221 0.6237 0.36149 0.0
C1299 C 0.93861 0.66242 0.45536 0.0
C1300 C 0.4212 0.88885 0.35636 0.0
C1301 C 0.37341 0.87406 0.36733 0.0
H1302 H 0.48725 0.93445 0.37567 0.0
C1303 C 0.35623 0.89512 0.41108 0.0
H1304 H 0.43637 0.87446 0.32325 0.0
C1305 C 0.38602 0.93122 0.4409 0.0
C1306 C 0.43384 0.94646 0.42863 0.0
H1307 H 0.31981 0.88415 0.42211 0.0
H1308 H 0.37159 0.9472 0.47353 0.0
C1309 C 0.45077 0.92397 0.38657 0.0
C1310 C 0.18766 0.34779 0.33468 0.0
C1311 C 0.23168 0.35829 0.34509 0.0
H1312 H 0.13164 0.3653 0.34497 0.0
C1313 C 0.25163 0.39759 0.378 0.0
H1314 H 0.1705 0.31836 0.3097 0.0
C1315 C 0.22852 0.42482 0.39941 0.0
C1316 C 0.18477 0.41443 0.38798 0.0
H1317 H 0.28537 0.40761 0.38712 0.0
H1318 H 0.24546 0.45455 0.42409 0.0
C1319 C 0.16508 0.37517 0.35518 0.0
C1320 C 0.39941 0.19268 0.61515 0.0
C1321 C 0.38364 0.19581 0.66766 0.0
H1322 H 0.4331 0.16376 0.55165 0.0
C1323 C 0.39208 0.17131 0.6961 0.0
H1324 H 0.39346 0.21045 0.59166 0.0
C1325 C 0.416 0.14561 0.67349 0.0
C1326 C 0.43106 0.14167 0.62095 0.0
H1327 H 0.38056 0.17242 0.73649 0.0
H1328 H 0.42231 0.12821 0.6974 0.0
C1329 C 0.42196 0.16544 0.59202 0.0
C1330 C 0.94467 0.38048 0.64593 0.0
C1331 C 0.89843 0.35455 0.63918 0.0
H1332 H 1.00556 0.43931 0.63156 0.0
C1333 C 0.8786 0.36959 0.61123 0.0
H1334 H 0.9605 0.37163 0.66967 0.0
C1335 C 0.90375 0.40972 0.59193 0.0
C1336 C 0.94985 0.43545 0.59872 0.0
H1337 H 0.84303 0.351 0.60574 0.0
H1338 H 0.887 0.42082 0.57179 0.0
C1339 C 0.97034 0.41991 0.62501 0.0
C1340 C 0.23828 0.63475 0.63144 0.0
C1341 C 0.23369 0.67395 0.65025 0.0
H1342 H 0.21579 0.57355 0.58312 0.0
C1343 C 0.19953 0.67979 0.63381 0.0
H1344 H 0.26252 0.62778 0.64424 0.0
C1345 C 0.17093 0.64728 0.5999 0.0
C1346 C 0.17663 0.6087 0.58045 0.0
H1347 H 0.19441 0.70919 0.64763 0.0
H1348 H 0.14459 0.65246 0.58856 0.0
C1349 C 0.21095 0.60315 0.59642 0.0
loop_
_geom_bond_atom_site_label_1
_geom_bond_atom_site_label_2
_geom_bond_distance
_geom_bond_site_symmetry_2
_ccdc_geom_bond_type
C0 C2 1.422 . S
C0 C4 1.415 . S
C0 N6 1.369 . S
C1 C2 1.421 . S
C1 C3 1.417 . S
C1 C13 1.422 . S
C2 C0 1.422 . S
C2 C1 1.421 . S
C2 N12 1.359 . S
C3 C1 1.417 . S
C3 C5 1.329 . S
C3 H22 0.930 . S
C4 C0 1.415 . S
C4 C5 1.437 . S
C4 C8 1.413 . S
C5 C3 1.329 . S
C5 C4 1.437 . S
C5 H27 0.929 . S
N6 C0 1.369 . S
N6 C7 1.338 . S
N6 Gd11 2.622 . S
C7 N6 1.338 . S
C7 C9 1.378 . S
C7 H19 0.929 . S
C8 C4 1.413 . S
C8 C9 1.348 . S
C8 H24 0.931 . S
C9 C7 1.378 . S
C9 C8 1.348 . S
C9 H25 0.930 . S
Gd10 N30 2.622 . S
Gd10 N37 2.570 . S
Gd10 O44 2.353 . S
Gd10 O45 2.468 . S
Gd10 O46 2.427 . S
Gd10 O48 2.388 . S
Gd10 O49 2.386 . S
Gd10 O53 2.307 . S
Gd10 C63 2.805 . S
Gd11 N6 2.622 . S
Gd11 N12 2.570 . S
Gd11 O43 2.386 . S
Gd11 O47 2.307 . S
Gd11 O50 2.353 . S
Gd11 O51 2.468 . S
Gd11 O52 2.427 . S
Gd11 O54 2.388 . S
Gd11 C75 2.805 . S
N12 C2 1.359 . S
N12 Gd11 2.570 . S
N12 C14 1.343 . S
C13 C1 1.422 . S
C13 C15 1.321 . S
C13 H21 0.931 . S
C14 N12 1.343 . S
C14 C15 1.390 . S
C14 H16 0.931 . S
C15 C13 1.321 . S
C15 C14 1.390 . S
C15 H17 0.930 . S
H16 C14 0.931 . S
H17 C15 0.930 . S
H18 C41 0.931 . S
H19 C7 0.929 . S
H20 C42 0.930 . S
H21 C13 0.931 . S
H22 C3 0.930 . S
H23 C32 0.929 . S
H24 C8 0.931 . S
H25 C9 0.930 . S
H26 C64 0.930 1_556 S
H27 C5 0.929 . S
H28 C33 0.931 . S
H29 C34 0.930 . S
N30 Gd10 2.622 . S
N30 C31 1.369 . S
N30 C32 1.338 . S
C31 N30 1.369 . S
C31 C35 1.415 . S
C31 C38 1.422 . S
C32 H23 0.929 . S
C32 N30 1.338 . S
C32 C34 1.378 . S
C33 H28 0.931 . S
C33 C34 1.348 . S
C33 C35 1.413 . S
C34 H29 0.930 . S
C34 C32 1.378 . S
C34 C33 1.348 . S
C35 C31 1.415 . S
C35 C33 1.413 . S
C35 C65 1.437 . S
H36 C65 0.929 . S
N37 Gd10 2.570 . S
N37 C38 1.359 . S
N37 C41 1.343 . S
C38 C31 1.422 . S
C38 N37 1.359 . S
C38 C40 1.421 . S
C39 C40 1.422 . S
C39 C42 1.321 . S
C39 H66 0.931 1_554 S
C40 C38 1.421 . S
C40 C39 1.422 . S
C40 C64 1.417 . S
C41 H18 0.931 . S
C41 N37 1.343 . S
C41 C42 1.390 . S
C42 H20 0.930 . S
C42 C39 1.321 . S
C42 C41 1.390 . S
O43 Gd11 2.386 . S
O43 C55 1.265 . S
O44 Gd10 2.353 . S
O44 C55 1.242 . S
O45 Gd10 2.468 . S
O45 C63 1.263 . S
O46 Gd10 2.427 . S
O46 C63 1.252 . S
O47 Gd11 2.307 . S
O47 C56 1.261 . S
O48 Gd10 2.388 . S
O48 C56 1.252 . S
O49 Gd10 2.386 . S
O49 C67 1.265 . S
O50 Gd11 2.353 . S
O50 C67 1.242 . S
O51 Gd11 2.468 . S
O51 C75 1.263 . S
O52 Gd11 2.427 . S
O52 C75 1.252 . S
O53 Gd10 2.307 . S
O53 C68 1.261 . S
O54 Gd11 2.388 . S
O54 C68 1.252 . S
C55 O43 1.265 . S
C55 O44 1.242 . S
C56 O47 1.261 . S
C56 O48 1.252 . S
C57 C60 1.394 . S
C57 C62 1.370 . S
C57 C63 1.500 . S
C58 C61 1.383 . S
C58 C62 1.395 . S
C59 C60 1.396 . S
C59 C61 1.365 . S
C59 H76 0.929 . S
C60 C57 1.394 . S
C60 C59 1.396 . S
C60 H77 0.930 . S
C61 C58 1.383 . S
C61 C59 1.365 . S
C61 H78 0.931 . S
C62 C57 1.370 . S
C62 C58 1.395 . S
C62 H79 0.930 . S
C63 Gd10 2.805 . S
C63 O45 1.263 . S
C63 O46 1.252 . S
C63 C57 1.500 . S
C64 H26 0.930 1_554 S
C64 C40 1.417 . S
C64 C65 1.329 . S
C65 C35 1.437 . S
C65 H36 0.929 . S
C65 C64 1.329 . S
H66 C39 0.931 1_556 S
C67 O49 1.265 . S
C67 O50 1.242 . S
C68 O53 1.261 . S
C68 O54 1.252 . S
C69 C72 1.394 . S
C69 C74 1.370 . S
C69 C75 1.500 . S
C70 C73 1.383 . S
C70 C74 1.395 . S
C71 C72 1.396 . S
C71 C73 1.365 . S
C71 H80 0.929 . S
C72 C69 1.394 . S
C72 C71 1.396 . S
C72 H81 0.930 . S
C73 C70 1.383 . S
C73 C71 1.365 . S
C73 H82 0.931 . S
C74 C69 1.370 . S
C74 C70 1.395 . S
C74 H83 0.930 . S
C75 Gd11 2.805 . S
C75 O51 1.263 . S
C75 O52 1.252 . S
C75 C69 1.500 . S
H76 C59 0.929 . S
H77 C60 0.930 . S
H78 C61 0.931 . S
H79 C62 0.930 . S
H80 C71 0.929 . S
H81 C72 0.930 . S
H82 C73 0.931 . S
H83 C74 0.930 . S
C84 C86 1.422 . S
C84 C88 1.415 . S
C84 N90 1.369 . S
C85 C86 1.421 . S
C85 C87 1.417 . S
C85 C97 1.422 . S
C86 C84 1.422 . S
C86 C85 1.421 . S
C86 N96 1.359 . S
C87 C85 1.417 . S
C87 C89 1.329 . S
C87 H106 0.930 . S
C88 C84 1.415 . S
C88 C89 1.437 . S
C88 C92 1.413 . S
C89 C87 1.329 . S
C89 C88 1.437 . S
C89 H111 0.929 . S
N90 C84 1.369 . S
N90 C91 1.338 . S
N90 Gd95 2.622 . S
C91 N90 1.338 . S
C91 C93 1.378 . S
C91 H103 0.929 . S
C92 C88 1.413 . S
C92 C93 1.348 . S
C92 H108 0.931 . S
C93 C91 1.378 . S
C93 C92 1.348 . S
C93 H109 0.930 . S
Gd94 N114 2.622 . S
Gd94 N121 2.570 . S
Gd94 O128 2.353 . S
Gd94 O129 2.468 . S
Gd94 O130 2.427 . S
Gd94 O132 2.388 . S
Gd94 O133 2.386 . S
Gd94 O137 2.307 . S
Gd94 C147 2.805 . S
Gd95 N90 2.622 . S
Gd95 N96 2.570 . S
Gd95 O127 2.386 . S
Gd95 O131 2.307 . S
Gd95 O134 2.353 . S
Gd95 O135 2.468 . S
Gd95 O136 2.427 . S
Gd95 O138 2.388 . S
Gd95 C159 2.805 . S
N96 C86 1.359 . S
N96 Gd95 2.570 . S
N96 C98 1.343 . S
C97 C85 1.422 . S
C97 C99 1.321 . S
C97 H105 0.931 . S
C98 N96 1.343 . S
C98 C99 1.390 . S
C98 H100 0.931 . S
C99 C97 1.321 . S
C99 C98 1.390 . S
C99 H101 0.930 . S
H100 C98 0.931 . S
H101 C99 0.930 . S
H102 C125 0.931 . S
H103 C91 0.929 . S
H104 C126 0.930 . S
H105 C97 0.931 . S
H106 C87 0.930 . S
H107 C116 0.929 . S
H108 C92 0.931 . S
H109 C93 0.930 . S
H110 C148 0.930 . S
H111 C89 0.929 . S
H112 C117 0.931 . S
H113 C118 0.930 . S
N114 Gd94 2.622 . S
N114 C115 1.369 . S
N114 C116 1.338 . S
C115 N114 1.369 . S
C115 C119 1.415 . S
C115 C122 1.422 . S
C116 H107 0.929 . S
C116 N114 1.338 . S
C116 C118 1.378 . S
C117 H112 0.931 . S
C117 C118 1.348 . S
C117 C119 1.413 . S
C118 H113 0.930 . S
C118 C116 1.378 . S
C118 C117 1.348 . S
C119 C115 1.415 . S
C119 C117 1.413 . S
C119 C149 1.437 . S
H120 C149 0.929 . S
N121 Gd94 2.570 . S
N121 C122 1.359 . S
N121 C125 1.343 . S
C122 C115 1.422 . S
C122 N121 1.359 . S
C122 C124 1.421 . S
C123 C124 1.422 . S
C123 C126 1.321 . S
C123 H150 0.931 . S
C124 C122 1.421 . S
C124 C123 1.422 . S
C124 C148 1.417 . S
C125 H102 0.931 . S
C125 N121 1.343 . S
C125 C126 1.390 . S
C126 H104 0.930 . S
C126 C123 1.321 . S
C126 C125 1.390 . S
O127 Gd95 2.386 . S
O127 C139 1.265 . S
O128 Gd94 2.353 . S
O128 C139 1.242 . S
O129 Gd94 2.468 . S
O129 C147 1.263 . S
O130 Gd94 2.427 . S
O130 C147 1.252 . S
O131 Gd95 2.307 . S
O131 C140 1.261 . S
O132 Gd94 2.388 . S
O132 C140 1.252 . S
O133 Gd94 2.386 . S
O133 C151 1.265 . S
O134 Gd95 2.353 . S
O134 C151 1.242 . S
O135 Gd95 2.468 . S
O135 C159 1.263 . S
O136 Gd95 2.427 . S
O136 C159 1.252 . S
O137 Gd94 2.307 . S
O137 C152 1.261 . S
O138 Gd95 2.388 . S
O138 C152 1.252 . S
C139 O127 1.265 . S
C139 O128 1.242 . S
C140 O131 1.261 . S
C140 O132 1.252 . S
C141 C144 1.394 . S
C141 C146 1.370 . S
C141 C147 1.500 . S
C142 C145 1.383 . S
C142 C146 1.395 . S
C143 C144 1.396 . S
C143 C145 1.365 . S
C143 H160 0.929 . S
C144 C141 1.394 . S
C144 C143 1.396 . S
C144 H161 0.930 . S
C145 C142 1.383 . S
C145 C143 1.365 . S
C145 H162 0.931 . S
C146 C141 1.370 . S
C146 C142 1.395 . S
C146 H163 0.930 . S
C147 Gd94 2.805 . S
C147 O129 1.263 . S
C147 O130 1.252 . S
C147 C141 1.500 . S
C148 H110 0.930 . S
C148 C124 1.417 . S
C148 C149 1.329 . S
C149 C119 1.437 . S
C149 H120 0.929 . S
C149 C148 1.329 . S
H150 C123 0.931 . S
C151 O133 1.265 . S
C151 O134 1.242 . S
C152 O137 1.261 . S
C152 O138 1.252 . S
C153 C156 1.394 . S
C153 C158 1.370 . S
C153 C159 1.500 . S
C154 C157 1.383 . S
C154 C158 1.395 . S
C155 C156 1.396 . S
C155 C157 1.365 . S
C155 H164 0.929 . S
C156 C153 1.394 . S
C156 C155 1.396 . S
C156 H165 0.930 . S
C157 C154 1.383 . S
C157 C155 1.365 . S
C157 H166 0.931 . S
C158 C153 1.370 . S
C158 C154 1.395 . S
C158 H167 0.930 . S
C159 Gd95 2.805 . S
C159 O135 1.263 . S
C159 O136 1.252 . S
C159 C153 1.500 . S
H160 C143 0.929 . S
H161 C144 0.930 . S
H162 C145 0.931 . S
H163 C146 0.930 . S
H164 C155 0.929 . S
H165 C156 0.930 . S
H166 C157 0.931 . S
H167 C158 0.930 . S
C168 C170 1.422 . S
C168 C172 1.415 . S
C168 N174 1.369 . S
C169 C170 1.421 . S
C169 C171 1.417 . S
C169 C181 1.422 . S
C170 C168 1.422 . S
C170 C169 1.421 . S
C170 N180 1.359 . S
C171 C169 1.417 . S
C171 C173 1.329 . S
C171 H190 0.930 1_554 S
C172 C168 1.415 . S
C172 C173 1.437 . S
C172 C176 1.413 . S
C173 C171 1.329 . S
C173 C172 1.437 . S
C173 H195 0.929 . S
N174 C168 1.369 . S
N174 C175 1.338 . S
N174 Gd179 2.622 . S
C175 N174 1.338 . S
C175 C177 1.378 . S
C175 H187 0.929 . S
C176 C172 1.413 . S
C176 C177 1.348 . S
C176 H192 0.931 . S
C177 C175 1.378 . S
C177 C176 1.348 . S
C177 H193 0.930 . S
Gd178 N198 2.622 . S
Gd178 N205 2.570 . S
Gd178 O212 2.353 . S
Gd178 O213 2.468 . S
Gd178 O214 2.427 . S
Gd178 O216 2.388 . S
Gd178 O217 2.386 . S
Gd178 O221 2.307 . S
Gd178 C231 2.805 . S
Gd179 N174 2.622 . S
Gd179 N180 2.570 . S
Gd179 O211 2.386 . S
Gd179 O215 2.307 . S
Gd179 O218 2.353 . S
Gd179 O219 2.468 . S
Gd179 O220 2.427 . S
Gd179 O222 2.388 . S
Gd179 C243 2.805 . S
N180 C170 1.359 . S
N180 Gd179 2.570 . S
N180 C182 1.343 . S
C181 C169 1.422 . S
C181 C183 1.321 . S
C181 H189 0.931 1_554 S
C182 N180 1.343 . S
C182 C183 1.390 . S
C182 H184 0.931 . S
C183 C181 1.321 . S
C183 C182 1.390 . S
C183 H185 0.930 . S
H184 C182 0.931 . S
H185 C183 0.930 . S
H186 C209 0.931 . S
H187 C175 0.929 . S
H188 C210 0.930 . S
H189 C181 0.931 1_556 S
H190 C171 0.930 1_556 S
H191 C200 0.929 . S
H192 C176 0.931 . S
H193 C177 0.930 . S
H194 C232 0.930 . S
H195 C173 0.929 . S
H196 C201 0.931 . S
H197 C202 0.930 . S
N198 Gd178 2.622 . S
N198 C199 1.369 . S
N198 C200 1.338 . S
C199 N198 1.369 . S
C199 C203 1.415 . S
C199 C206 1.422 . S
C200 H191 0.929 . S
C200 N198 1.338 . S
C200 C202 1.378 . S
C201 H196 0.931 . S
C201 C202 1.348 . S
C201 C203 1.413 . S
C202 H197 0.930 . S
C202 C200 1.378 . S
C202 C201 1.348 . S
C203 C199 1.415 . S
C203 C201 1.413 . S
C203 C233 1.437 . S
H204 C233 0.929 . S
N205 Gd178 2.570 . S
N205 C206 1.359 . S
N205 C209 1.343 . S
C206 C199 1.422 . S
C206 N205 1.359 . S
C206 C208 1.421 . S
C207 C208 1.422 . S
C207 C210 1.321 . S
C207 H234 0.931 . S
C208 C206 1.421 . S
C208 C207 1.422 . S
C208 C232 1.417 . S
C209 H186 0.931 . S
C209 N205 1.343 . S
C209 C210 1.390 . S
C210 H188 0.930 . S
C210 C207 1.321 . S
C210 C209 1.390 . S
O211 Gd179 2.386 . S
O211 C223 1.265 . S
O212 Gd178 2.353 . S
O212 C223 1.242 . S
O213 Gd178 2.468 . S
O213 C231 1.263 . S
O214 Gd178 2.427 . S
O214 C231 1.252 . S
O215 Gd179 2.307 . S
O215 C224 1.261 . S
O216 Gd178 2.388 . S
O216 C224 1.252 . S
O217 Gd178 2.386 . S
O217 C235 1.265 . S
O218 Gd179 2.353 . S
O218 C235 1.242 . S
O219 Gd179 2.468 . S
O219 C243 1.263 . S
O220 Gd179 2.427 . S
O220 C243 1.252 . S
O221 Gd178 2.307 . S
O221 C236 1.261 . S
O222 Gd179 2.388 . S
O222 C236 1.252 . S
C223 O211 1.265 . S
C223 O212 1.242 . S
C224 O215 1.261 . S
C224 O216 1.252 . S
C225 C228 1.394 . S
C225 C230 1.370 . S
C225 C231 1.500 . S
C226 C229 1.383 . S
C226 C230 1.395 . S
C227 C228 1.396 . S
C227 C229 1.365 . S
C227 H244 0.929 . S
C228 C225 1.394 . S
C228 C227 1.396 . S
C228 H245 0.930 . S
C229 C226 1.383 . S
C229 C227 1.365 . S
C229 H246 0.931 . S
C230 C225 1.370 . S
C230 C226 1.395 . S
C230 H247 0.930 . S
C231 Gd178 2.805 . S
C231 O213 1.263 . S
C231 O214 1.252 . S
C231 C225 1.500 . S
C232 H194 0.930 . S
C232 C208 1.417 . S
C232 C233 1.329 . S
C233 C203 1.437 . S
C233 H204 0.929 . S
C233 C232 1.329 . S
H234 C207 0.931 . S
C235 O217 1.265 . S
C235 O218 1.242 . S
C236 O221 1.261 . S
C236 O222 1.252 . S
C237 C240 1.394 . S
C237 C242 1.370 . S
C237 C243 1.500 . S
C238 C241 1.383 . S
C238 C242 1.395 . S
C239 C240 1.396 . S
C239 C241 1.365 . S
C239 H248 0.929 . S
C240 C237 1.394 . S
C240 C239 1.396 . S
C240 H249 0.930 . S
C241 C238 1.383 . S
C241 C239 1.365 . S
C241 H250 0.931 . S
C242 C237 1.370 . S
C242 C238 1.395 . S
C242 H251 0.930 . S
C243 Gd179 2.805 . S
C243 O219 1.263 . S
C243 O220 1.252 . S
C243 C237 1.500 . S
H244 C227 0.929 . S
H245 C228 0.930 . S
H246 C229 0.931 . S
H247 C230 0.930 . S
H248 C239 0.929 . S
H249 C240 0.930 . S
H250 C241 0.931 . S
H251 C242 0.930 . S
C252 C254 1.422 . S
C252 C256 1.415 . S
C252 N258 1.369 . S
C253 C254 1.421 . S
C253 C255 1.417 . S
C253 C265 1.422 . S
C254 C252 1.422 . S
C254 C253 1.421 . S
C254 N264 1.359 . S
C255 C253 1.417 . S
C255 C257 1.329 . S
C255 H274 0.930 . S
C256 C252 1.415 . S
C256 C257 1.437 . S
C256 C260 1.413 . S
C257 C255 1.329 . S
C257 C256 1.437 . S
C257 H279 0.929 . S
N258 C252 1.369 . S
N258 C259 1.338 . S
N258 Gd263 2.622 . S
C259 N258 1.338 . S
C259 C261 1.378 . S
C259 H271 0.929 . S
C260 C256 1.413 . S
C260 C261 1.348 . S
C260 H276 0.931 . S
C261 C259 1.378 . S
C261 C260 1.348 . S
C261 H277 0.930 . S
Gd262 N282 2.622 . S
Gd262 N289 2.570 . S
Gd262 O296 2.353 . S
Gd262 O297 2.468 . S
Gd262 O298 2.427 . S
Gd262 O300 2.388 . S
Gd262 O301 2.386 . S
Gd262 O305 2.307 . S
Gd262 C315 2.805 . S
Gd263 N258 2.622 . S
Gd263 N264 2.570 . S
Gd263 O295 2.386 . S
Gd263 O299 2.307 . S
Gd263 O302 2.353 . S
Gd263 O303 2.468 . S
Gd263 O304 2.427 . S
Gd263 O306 2.388 . S
Gd263 C327 2.805 . S
N264 C254 1.359 . S
N264 Gd263 2.570 . S
N264 C266 1.343 . S
C265 C253 1.422 . S
C265 C267 1.321 . S
C265 H273 0.931 . S
C266 N264 1.343 . S
C266 C267 1.390 . S
C266 H268 0.931 . S
C267 C265 1.321 . S
C267 C266 1.390 . S
C267 H269 0.930 . S
H268 C266 0.931 . S
H269 C267 0.930 . S
H270 C293 0.931 . S
H271 C259 0.929 . S
H272 C294 0.930 . S
H273 C265 0.931 . S
H274 C255 0.930 . S
H275 C284 0.929 . S
H276 C260 0.931 . S
H277 C261 0.930 . S
H278 C316 0.930 . S
H279 C257 0.929 . S
H280 C285 0.931 . S
H281 C286 0.930 . S
N282 Gd262 2.622 . S
N282 C283 1.369 . S
N282 C284 1.338 . S
C283 N282 1.369 . S
C283 C287 1.415 . S
C283 C290 1.422 . S
C284 H275 0.929 . S
C284 N282 1.338 . S
C284 C286 1.378 . S
C285 H280 0.931 . S
C285 C286 1.348 . S
C285 C287 1.413 . S
C286 H281 0.930 . S
C286 C284 1.378 . S
C286 C285 1.348 . S
C287 C283 1.415 . S
C287 C285 1.413 . S
C287 C317 1.437 . S
H288 C317 0.929 . S
N289 Gd262 2.570 . S
N289 C290 1.359 . S
N289 C293 1.343 . S
C290 C283 1.422 . S
C290 N289 1.359 . S
C290 C292 1.421 . S
C291 C292 1.422 . S
C291 C294 1.321 . S
C291 H318 0.931 . S
C292 C290 1.421 . S
C292 C291 1.422 . S
C292 C316 1.417 . S
C293 H270 0.931 . S
C293 N289 1.343 . S
C293 C294 1.390 . S
C294 H272 0.930 . S
C294 C291 1.321 . S
C294 C293 1.390 . S
O295 Gd263 2.386 . S
O295 C307 1.265 . S
O296 Gd262 2.353 . S
O296 C307 1.242 . S
O297 Gd262 2.468 . S
O297 C315 1.263 . S
O298 Gd262 2.427 . S
O298 C315 1.252 . S
O299 Gd263 2.307 . S
O299 C308 1.261 . S
O300 Gd262 2.388 . S
O300 C308 1.252 . S
O301 Gd262 2.386 . S
O301 C319 1.265 . S
O302 Gd263 2.353 . S
O302 C319 1.242 . S
O303 Gd263 2.468 . S
O303 C327 1.263 . S
O304 Gd263 2.427 . S
O304 C327 1.252 . S
O305 Gd262 2.307 . S
O305 C320 1.261 . S
O306 Gd263 2.388 . S
O306 C320 1.252 . S
C307 O295 1.265 . S
C307 O296 1.242 . S
C308 O299 1.261 . S
C308 O300 1.252 . S
C309 C312 1.394 . S
C309 C314 1.370 . S
C309 C315 1.500 . S
C310 C313 1.383 . S
C310 C314 1.395 . S
C311 C312 1.396 . S
C311 C313 1.365 . S
C311 H328 0.929 . S
C312 C309 1.394 . S
C312 C311 1.396 . S
C312 H329 0.930 . S
C313 C310 1.383 . S
C313 C311 1.365 . S
C313 H330 0.931 . S
C314 C309 1.370 . S
C314 C310 1.395 . S
C314 H331 0.930 . S
C315 Gd262 2.805 . S
C315 O297 1.263 . S
C315 O298 1.252 . S
C315 C309 1.500 . S
C316 H278 0.930 . S
C316 C292 1.417 . S
C316 C317 1.329 . S
C317 C287 1.437 . S
C317 H288 0.929 . S
C317 C316 1.329 . S
H318 C291 0.931 . S
C319 O301 1.265 . S
C319 O302 1.242 . S
C320 O305 1.261 . S
C320 O306 1.252 . S
C321 C324 1.394 . S
C321 C326 1.370 . S
C321 C327 1.500 . S
C322 C325 1.383 . S
C322 C326 1.395 . S
C323 C324 1.396 . S
C323 C325 1.365 . S
C323 H332 0.929 . S
C324 C321 1.394 . S
C324 C323 1.396 . S
C324 H333 0.930 . S
C325 C322 1.383 . S
C325 C323 1.365 . S
C325 H334 0.931 . S
C326 C321 1.370 . S
C326 C322 1.395 . S
C326 H335 0.930 . S
C327 Gd263 2.805 . S
C327 O303 1.263 . S
C327 O304 1.252 . S
C327 C321 1.500 . S
H328 C311 0.929 . S
H329 C312 0.930 . S
H330 C313 0.931 . S
H331 C314 0.930 . S
H332 C323 0.929 . S
H333 C324 0.930 . S
H334 C325 0.931 . S
H335 C326 0.930 . S
C336 C338 1.422 . S
C336 C340 1.415 . S
C336 N342 1.369 . S
C337 C338 1.421 . S
C337 C339 1.417 . S
C337 C349 1.422 . S
C338 C336 1.422 . S
C338 C337 1.421 . S
C338 N348 1.359 . S
C339 C337 1.417 . S
C339 C341 1.329 . S
C339 H358 0.930 . S
C340 C336 1.415 . S
C340 C341 1.437 . S
C340 C344 1.413 . S
C341 C339 1.329 . S
C341 C340 1.437 . S
C341 H363 0.929 . S
N342 C336 1.369 . S
N342 C343 1.338 . S
N342 Gd347 2.622 . S
C343 N342 1.338 . S
C343 C345 1.378 . S
C343 H355 0.929 . S
C344 C340 1.413 . S
C344 C345 1.348 . S
C344 H360 0.931 . S
C345 C343 1.378 . S
C345 C344 1.348 . S
C345 H361 0.930 . S
Gd346 N366 2.622 . S
Gd346 N373 2.570 . S
Gd346 O380 2.353 . S
Gd346 O381 2.468 . S
Gd346 O382 2.427 . S
Gd346 O384 2.388 . S
Gd346 O385 2.386 . S
Gd346 O389 2.307 . S
Gd346 C399 2.805 . S
Gd347 N342 2.622 . S
Gd347 N348 2.570 . S
Gd347 O379 2.386 . S
Gd347 O383 2.307 . S
Gd347 O386 2.353 . S
Gd347 O387 2.468 . S
Gd347 O388 2.427 . S
Gd347 O390 2.388 . S
Gd347 C411 2.805 . S
N348 C338 1.359 . S
N348 Gd347 2.570 . S
N348 C350 1.343 . S
C349 C337 1.422 . S
C349 C351 1.321 . S
C349 H357 0.931 . S
C350 N348 1.343 . S
C350 C351 1.390 . S
C350 H352 0.931 . S
C351 C349 1.321 . S
C351 C350 1.390 . S
C351 H353 0.930 . S
H352 C350 0.931 . S
H353 C351 0.930 . S
H354 C377 0.931 . S
H355 C343 0.929 . S
H356 C378 0.930 . S
H357 C349 0.931 . S
H358 C339 0.930 . S
H359 C368 0.929 . S
H360 C344 0.931 . S
H361 C345 0.930 . S
H362 C400 0.930 . S
H363 C341 0.929 . S
H364 C369 0.931 . S
H365 C370 0.930 . S
N366 Gd346 2.622 . S
N366 C367 1.369 . S
N366 C368 1.338 . S
C367 N366 1.369 . S
C367 C371 1.415 . S
C367 C374 1.422 . S
C368 H359 0.929 . S
C368 N366 1.338 . S
C368 C370 1.378 . S
C369 H364 0.931 . S
C369 C370 1.348 . S
C369 C371 1.413 . S
C370 H365 0.930 . S
C370 C368 1.378 . S
C370 C369 1.348 . S
C371 C367 1.415 . S
C371 C369 1.413 . S
C371 C401 1.437 . S
H372 C401 0.929 . S
N373 Gd346 2.570 . S
N373 C374 1.359 . S
N373 C377 1.343 . S
C374 C367 1.422 . S
C374 N373 1.359 . S
C374 C376 1.421 . S
C375 C376 1.422 . S
C375 C378 1.321 . S
C375 H402 0.931 . S
C376 C374 1.421 . S
C376 C375 1.422 . S
C376 C400 1.417 . S
C377 H354 0.931 . S
C377 N373 1.343 . S
C377 C378 1.390 . S
C378 H356 0.930 . S
C378 C375 1.321 . S
C378 C377 1.390 . S
O379 Gd347 2.386 . S
O379 C391 1.265 . S
O380 Gd346 2.353 . S
O380 C391 1.242 . S
O381 Gd346 2.468 . S
O381 C399 1.263 . S
O382 Gd346 2.427 . S
O382 C399 1.252 . S
O383 Gd347 2.307 . S
O383 C392 1.261 . S
O384 Gd346 2.388 . S
O384 C392 1.252 . S
O385 Gd346 2.386 . S
O385 C403 1.265 . S
O386 Gd347 2.353 . S
O386 C403 1.242 . S
O387 Gd347 2.468 . S
O387 C411 1.263 . S
O388 Gd347 2.427 . S
O388 C411 1.252 . S
O389 Gd346 2.307 . S
O389 C404 1.261 . S
O390 Gd347 2.388 . S
O390 C404 1.252 . S
C391 O379 1.265 . S
C391 O380 1.242 . S
C392 O383 1.261 . S
C392 O384 1.252 . S
C393 C396 1.394 . S
C393 C398 1.370 . S
C393 C399 1.500 . S
C394 C397 1.383 . S
C394 C398 1.395 . S
C395 C396 1.396 . S
C395 C397 1.365 . S
C395 H412 0.929 . S
C396 C393 1.394 . S
C396 C395 1.396 . S
C396 H413 0.930 . S
C397 C394 1.383 . S
C397 C395 1.365 . S
C397 H414 0.931 . S
C398 C393 1.370 . S
C398 C394 1.395 . S
C398 H415 0.930 . S
C399 Gd346 2.805 . S
C399 O381 1.263 . S
C399 O382 1.252 . S
C399 C393 1.500 . S
C400 H362 0.930 . S
C400 C376 1.417 . S
C400 C401 1.329 . S
C401 C371 1.437 . S
C401 H372 0.929 . S
C401 C400 1.329 . S
H402 C375 0.931 . S
C403 O385 1.265 . S
C403 O386 1.242 . S
C404 O389 1.261 . S
C404 O390 1.252 . S
C405 C408 1.394 . S
C405 C410 1.370 . S
C405 C411 1.500 . S
C406 C409 1.383 . S
C406 C410 1.395 . S
C407 C408 1.396 . S
C407 C409 1.365 . S
C407 H416 0.929 . S
C408 C405 1.394 . S
C408 C407 1.396 . S
C408 H417 0.930 . S
C409 C406 1.383 . S
C409 C407 1.365 . S
C409 H418 0.931 . S
C410 C405 1.370 . S
C410 C406 1.395 . S
C410 H419 0.930 . S
C411 Gd347 2.805 . S
C411 O387 1.263 . S
C411 O388 1.252 . S
C411 C405 1.500 . S
H412 C395 0.929 . S
H413 C396 0.930 . S
H414 C397 0.931 . S
H415 C398 0.930 . S
H416 C407 0.929 . S
H417 C408 0.930 . S
H418 C409 0.931 . S
H419 C410 0.930 . S
C420 C422 1.422 . S
C420 C424 1.415 . S
C420 N426 1.369 . S
C421 C422 1.421 . S
C421 C423 1.417 . S
C421 C433 1.422 . S
C422 C420 1.422 . S
C422 C421 1.421 . S
C422 N432 1.359 . S
C423 C421 1.417 . S
C423 C425 1.329 . S
C423 H442 0.930 . S
C424 C420 1.415 . S
C424 C425 1.437 . S
C424 C428 1.413 . S
C425 C423 1.329 . S
C425 C424 1.437 . S
C425 H447 0.929 . S
N426 C420 1.369 . S
N426 C427 1.338 . S
N426 Gd431 2.622 . S
C427 N426 1.338 . S
C427 C429 1.378 . S
C427 H439 0.929 . S
C428 C424 1.413 . S
C428 C429 1.348 . S
C428 H444 0.931 . S
C429 C427 1.378 . S
C429 C428 1.348 . S
C429 H445 0.930 . S
Gd430 N450 2.622 . S
Gd430 N457 2.570 . S
Gd430 O464 2.353 . S
Gd430 O465 2.468 . S
Gd430 O466 2.427 . S
Gd430 O468 2.388 . S
Gd430 O469 2.386 . S
Gd430 O473 2.307 . S
Gd430 C483 2.805 . S
Gd431 N426 2.622 . S
Gd431 N432 2.570 . S
Gd431 O463 2.386 . S
Gd431 O467 2.307 . S
Gd431 O470 2.353 . S
Gd431 O471 2.468 . S
Gd431 O472 2.427 . S
Gd431 O474 2.388 . S
Gd431 C495 2.805 . S
N432 C422 1.359 . S
N432 Gd431 2.570 . S
N432 C434 1.343 . S
C433 C421 1.422 . S
C433 C435 1.321 . S
C433 H441 0.931 . S
C434 N432 1.343 . S
C434 C435 1.390 . S
C434 H436 0.931 . S
C435 C433 1.321 . S
C435 C434 1.390 . S
C435 H437 0.930 . S
H436 C434 0.931 . S
H437 C435 0.930 . S
H438 C461 0.931 . S
H439 C427 0.929 . S
H440 C462 0.930 . S
H441 C433 0.931 . S
H442 C423 0.930 . S
H443 C452 0.929 . S
H444 C428 0.931 . S
H445 C429 0.930 . S
H446 C484 0.930 1_554 S
H447 C425 0.929 . S
H448 C453 0.931 . S
H449 C454 0.930 . S
N450 Gd430 2.622 . S
N450 C451 1.369 . S
N450 C452 1.338 . S
C451 N450 1.369 . S
C451 C455 1.415 . S
C451 C458 1.422 . S
C452 H443 0.929 . S
C452 N450 1.338 . S
C452 C454 1.378 . S
C453 H448 0.931 . S
C453 C454 1.348 . S
C453 C455 1.413 . S
C454 H449 0.930 . S
C454 C452 1.378 . S
C454 C453 1.348 . S
C455 C451 1.415 . S
C455 C453 1.413 . S
C455 C485 1.437 . S
H456 C485 0.929 . S
N457 Gd430 2.570 . S
N457 C458 1.359 . S
N457 C461 1.343 . S
C458 C451 1.422 . S
C458 N457 1.359 . S
C458 C460 1.421 . S
C459 C460 1.422 . S
C459 C462 1.321 . S
C459 H486 0.931 1_556 S
C460 C458 1.421 . S
C460 C459 1.422 . S
C460 C484 1.417 . S
C461 H438 0.931 . S
C461 N457 1.343 . S
C461 C462 1.390 . S
C462 H440 0.930 . S
C462 C459 1.321 . S
C462 C461 1.390 . S
O463 Gd431 2.386 . S
O463 C475 1.265 . S
O464 Gd430 2.353 . S
O464 C475 1.242 . S
O465 Gd430 2.468 . S
O465 C483 1.263 . S
O466 Gd430 2.427 . S
O466 C483 1.252 . S
O467 Gd431 2.307 . S
O467 C476 1.261 . S
O468 Gd430 2.388 . S
O468 C476 1.252 . S
O469 Gd430 2.386 . S
O469 C487 1.265 . S
O470 Gd431 2.353 . S
O470 C487 1.242 . S
O471 Gd431 2.468 . S
O471 C495 1.263 . S
O472 Gd431 2.427 . S
O472 C495 1.252 . S
O473 Gd430 2.307 . S
O473 C488 1.261 . S
O474 Gd431 2.388 . S
O474 C488 1.252 . S
C475 O463 1.265 . S
C475 O464 1.242 . S
C476 O467 1.261 . S
C476 O468 1.252 . S
C477 C480 1.394 . S
C477 C482 1.370 . S
C477 C483 1.500 . S
C478 C481 1.383 . S
C478 C482 1.395 . S
C479 C480 1.396 . S
C479 C481 1.365 . S
C479 H496 0.929 . S
C480 C477 1.394 . S
C480 C479 1.396 . S
C480 H497 0.930 . S
C481 C478 1.383 . S
C481 C479 1.365 . S
C481 H498 0.931 . S
C482 C477 1.370 . S
C482 C478 1.395 . S
C482 H499 0.930 . S
C483 Gd430 2.805 . S
C483 O465 1.263 . S
C483 O466 1.252 . S
C483 C477 1.500 . S
C484 H446 0.930 1_556 S
C484 C460 1.417 . S
C484 C485 1.329 . S
C485 C455 1.437 . S
C485 H456 0.929 . S
C485 C484 1.329 . S
H486 C459 0.931 1_554 S
C487 O469 1.265 . S
C487 O470 1.242 . S
C488 O473 1.261 . S
C488 O474 1.252 . S
C489 C492 1.394 . S
C489 C494 1.370 . S
C489 C495 1.500 . S
C490 C493 1.383 . S
C490 C494 1.395 . S
C491 C492 1.396 . S
C491 C493 1.365 . S
C491 H500 0.929 . S
C492 C489 1.394 . S
C492 C491 1.396 . S
C492 H501 0.930 . S
C493 C490 1.383 . S
C493 C491 1.365 . S
C493 H502 0.931 . S
C494 C489 1.370 . S
C494 C490 1.395 . S
C494 H503 0.930 . S
C495 Gd431 2.805 . S
C495 O471 1.263 . S
C495 O472 1.252 . S
C495 C489 1.500 . S
H496 C479 0.929 . S
H497 C480 0.930 . S
H498 C481 0.931 . S
H499 C482 0.930 . S
H500 C491 0.929 . S
H501 C492 0.930 . S
H502 C493 0.931 . S
H503 C494 0.930 . S
C504 C506 1.422 . S
C504 C508 1.415 . S
C504 N510 1.369 . S
C505 C506 1.421 . S
C505 C507 1.417 . S
C505 C517 1.422 . S
C506 C504 1.422 . S
C506 C505 1.421 . S
C506 N516 1.359 . S
C507 C505 1.417 . S
C507 C509 1.329 . S
C507 H526 0.930 . S
C508 C504 1.415 . S
C508 C509 1.437 . S
C508 C512 1.413 . S
C509 C507 1.329 . S
C509 C508 1.437 . S
C509 H531 0.929 . S
N510 C504 1.369 . S
N510 C511 1.338 . S
N510 Gd515 2.622 . S
C511 N510 1.338 . S
C511 C513 1.378 . S
C511 H523 0.929 . S
C512 C508 1.413 . S
C512 C513 1.348 . S
C512 H528 0.931 . S
C513 C511 1.378 . S
C513 C512 1.348 . S
C513 H529 0.930 . S
Gd514 N534 2.622 . S
Gd514 N541 2.570 . S
Gd514 O548 2.353 . S
Gd514 O549 2.468 . S
Gd514 O550 2.427 . S
Gd514 O552 2.388 . S
Gd514 O553 2.386 . S
Gd514 O557 2.307 . S
Gd514 C567 2.805 . S
Gd515 N510 2.622 . S
Gd515 N516 2.570 . S
Gd515 O547 2.386 . S
Gd515 O551 2.307 . S
Gd515 O554 2.353 . S
Gd515 O555 2.468 . S
Gd515 O556 2.427 . S
Gd515 O558 2.388 . S
Gd515 C579 2.805 . S
N516 C506 1.359 . S
N516 Gd515 2.570 . S
N516 C518 1.343 . S
C517 C505 1.422 . S
C517 C519 1.321 . S
C517 H525 0.931 . S
C518 N516 1.343 . S
C518 C519 1.390 . S
C518 H520 0.931 . S
C519 C517 1.321 . S
C519 C518 1.390 . S
C519 H521 0.930 . S
H520 C518 0.931 . S
H521 C519 0.930 . S
H522 C545 0.931 . S
H523 C511 0.929 . S
H524 C546 0.930 . S
H525 C517 0.931 . S
H526 C507 0.930 . S
H527 C536 0.929 . S
H528 C512 0.931 . S
H529 C513 0.930 . S
H530 C568 0.930 . S
H531 C509 0.929 . S
H532 C537 0.931 . S
H533 C538 0.930 . S
N534 Gd514 2.622 . S
N534 C535 1.369 . S
N534 C536 1.338 . S
C535 N534 1.369 . S
C535 C539 1.415 . S
C535 C542 1.422 . S
C536 H527 0.929 . S
C536 N534 1.338 . S
C536 C538 1.378 . S
C537 H532 0.931 . S
C537 C538 1.348 . S
C537 C539 1.413 . S
C538 H533 0.930 . S
C538 C536 1.378 . S
C538 C537 1.348 . S
C539 C535 1.415 . S
C539 C537 1.413 . S
C539 C569 1.437 . S
H540 C569 0.929 . S
N541 Gd514 2.570 . S
N541 C542 1.359 . S
N541 C545 1.343 . S
C542 C535 1.422 . S
C542 N541 1.359 . S
C542 C544 1.421 . S
C543 C544 1.422 . S
C543 C546 1.321 . S
C543 H570 0.931 . S
C544 C542 1.421 . S
C544 C543 1.422 . S
C544 C568 1.417 . S
C545 H522 0.931 . S
C545 N541 1.343 . S
C545 C546 1.390 . S
C546 H524 0.930 . S
C546 C543 1.321 . S
C546 C545 1.390 . S
O547 Gd515 2.386 . S
O547 C559 1.265 . S
O548 Gd514 2.353 . S
O548 C559 1.242 . S
O549 Gd514 2.468 . S
O549 C567 1.263 . S
O550 Gd514 2.427 . S
O550 C567 1.252 . S
O551 Gd515 2.307 . S
O551 C560 1.261 . S
O552 Gd514 2.388 . S
O552 C560 1.252 . S
O553 Gd514 2.386 . S
O553 C571 1.265 . S
O554 Gd515 2.353 . S
O554 C571 1.242 . S
O555 Gd515 2.468 . S
O555 C579 1.263 . S
O556 Gd515 2.427 . S
O556 C579 1.252 . S
O557 Gd514 2.307 . S
O557 C572 1.261 . S
O558 Gd515 2.388 . S
O558 C572 1.252 . S
C559 O547 1.265 . S
C559 O548 1.242 . S
C560 O551 1.261 . S
C560 O552 1.252 . S
C561 C564 1.394 . S
C561 C566 1.370 . S
C561 C567 1.500 . S
C562 C565 1.383 . S
C562 C566 1.395 . S
C563 C564 1.396 . S
C563 C565 1.365 . S
C563 H580 0.929 . S
C564 C561 1.394 . S
C564 C563 1.396 . S
C564 H581 0.930 . S
C565 C562 1.383 . S
C565 C563 1.365 . S
C565 H582 0.931 . S
C566 C561 1.370 . S
C566 C562 1.395 . S
C566 H583 0.930 . S
C567 Gd514 2.805 . S
C567 O549 1.263 . S
C567 O550 1.252 . S
C567 C561 1.500 . S
C568 H530 0.930 . S
C568 C544 1.417 . S
C568 C569 1.329 . S
C569 C539 1.437 . S
C569 H540 0.929 . S
C569 C568 1.329 . S
H570 C543 0.931 . S
C571 O553 1.265 . S
C571 O554 1.242 . S
C572 O557 1.261 . S
C572 O558 1.252 . S
C573 C576 1.394 . S
C573 C578 1.370 . S
C573 C579 1.500 . S
C574 C577 1.383 . S
C574 C578 1.395 . S
C575 C576 1.396 . S
C575 C577 1.365 . S
C575 H584 0.929 . S
C576 C573 1.394 . S
C576 C575 1.396 . S
C576 H585 0.930 . S
C577 C574 1.383 . S
C577 C575 1.365 . S
C577 H586 0.931 . S
C578 C573 1.370 . S
C578 C574 1.395 . S
C578 H587 0.930 . S
C579 Gd515 2.805 . S
C579 O555 1.263 . S
C579 O556 1.252 . S
C579 C573 1.500 . S
H580 C563 0.929 . S
H581 C564 0.930 . S
H582 C565 0.931 . S
H583 C566 0.930 . S
H584 C575 0.929 . S
H585 C576 0.930 . S
H586 C577 0.931 . S
H587 C578 0.930 . S
C588 C590 1.422 . S
C588 C592 1.415 . S
C588 N594 1.369 . S
C589 C590 1.421 . S
C589 C591 1.417 . S
C589 C601 1.422 . S
C590 C588 1.422 . S
C590 C589 1.421 . S
C590 N600 1.359 . S
C591 C589 1.417 . S
C591 C593 1.329 . S
C591 H610 0.930 1_556 S
C592 C588 1.415 . S
C592 C593 1.437 . S
C592 C596 1.413 . S
C593 C591 1.329 . S
C593 C592 1.437 . S
C593 H615 0.929 . S
N594 C588 1.369 . S
N594 C595 1.338 . S
N594 Gd599 2.622 . S
C595 N594 1.338 . S
C595 C597 1.378 . S
C595 H607 0.929 . S
C596 C592 1.413 . S
C596 C597 1.348 . S
C596 H612 0.931 . S
C597 C595 1.378 . S
C597 C596 1.348 . S
C597 H613 0.930 . S
Gd598 N618 2.622 . S
Gd598 N625 2.570 . S
Gd598 O632 2.353 . S
Gd598 O633 2.468 . S
Gd598 O634 2.427 . S
Gd598 O636 2.388 . S
Gd598 O637 2.386 . S
Gd598 O641 2.307 . S
Gd598 C651 2.805 . S
Gd599 N594 2.622 . S
Gd599 N600 2.570 . S
Gd599 O631 2.386 . S
Gd599 O635 2.307 . S
Gd599 O638 2.353 . S
Gd599 O639 2.468 . S
Gd599 O640 2.427 . S
Gd599 O642 2.388 . S
Gd599 C663 2.805 . S
N600 C590 1.359 . S
N600 Gd599 2.570 . S
N600 C602 1.343 . S
C601 C589 1.422 . S
C601 C603 1.321 . S
C601 H609 0.931 1_556 S
C602 N600 1.343 . S
C602 C603 1.390 . S
C602 H604 0.931 . S
C603 C601 1.321 . S
C603 C602 1.390 . S
C603 H605 0.930 . S
H604 C602 0.931 . S
H605 C603 0.930 . S
H606 C629 0.931 . S
H607 C595 0.929 . S
H608 C630 0.930 . S
H609 C601 0.931 1_554 S
H610 C591 0.930 1_554 S
H611 C620 0.929 . S
H612 C596 0.931 . S
H613 C597 0.930 . S
H614 C652 0.930 . S
H615 C593 0.929 . S
H616 C621 0.931 . S
H617 C622 0.930 . S
N618 Gd598 2.622 . S
N618 C619 1.369 . S
N618 C620 1.338 . S
C619 N618 1.369 . S
C619 C623 1.415 . S
C619 C626 1.422 . S
C620 H611 0.929 . S
C620 N618 1.338 . S
C620 C622 1.378 . S
C621 H616 0.931 . S
C621 C622 1.348 . S
C621 C623 1.413 . S
C622 H617 0.930 . S
C622 C620 1.378 . S
C622 C621 1.348 . S
C623 C619 1.415 . S
C623 C621 1.413 . S
C623 C653 1.437 . S
H624 C653 0.929 . S
N625 Gd598 2.570 . S
N625 C626 1.359 . S
N625 C629 1.343 . S
C626 C619 1.422 . S
C626 N625 1.359 . S
C626 C628 1.421 . S
C627 C628 1.422 . S
C627 C630 1.321 . S
C627 H654 0.931 . S
C628 C626 1.421 . S
C628 C627 1.422 . S
C628 C652 1.417 . S
C629 H606 0.931 . S
C629 N625 1.343 . S
C629 C630 1.390 . S
C630 H608 0.930 . S
C630 C627 1.321 . S
C630 C629 1.390 . S
O631 Gd599 2.386 . S
O631 C643 1.265 . S
O632 Gd598 2.353 . S
O632 C643 1.242 . S
O633 Gd598 2.468 . S
O633 C651 1.263 . S
O634 Gd598 2.427 . S
O634 C651 1.252 . S
O635 Gd599 2.307 . S
O635 C644 1.261 . S
O636 Gd598 2.388 . S
O636 C644 1.252 . S
O637 Gd598 2.386 . S
O637 C655 1.265 . S
O638 Gd599 2.353 . S
O638 C655 1.242 . S
O639 Gd599 2.468 . S
O639 C663 1.263 . S
O640 Gd599 2.427 . S
O640 C663 1.252 . S
O641 Gd598 2.307 . S
O641 C656 1.261 . S
O642 Gd599 2.388 . S
O642 C656 1.252 . S
C643 O631 1.265 . S
C643 O632 1.242 . S
C644 O635 1.261 . S
C644 O636 1.252 . S
C645 C648 1.394 . S
C645 C650 1.370 . S
C645 C651 1.500 . S
C646 C649 1.383 . S
C646 C650 1.395 . S
C647 C648 1.396 . S
C647 C649 1.365 . S
C647 H664 0.929 . S
C648 C645 1.394 . S
C648 C647 1.396 . S
C648 H665 0.930 . S
C649 C646 1.383 . S
C649 C647 1.365 . S
C649 H666 0.931 . S
C650 C645 1.370 . S
C650 C646 1.395 . S
C650 H667 0.930 . S
C651 Gd598 2.805 . S
C651 O633 1.263 . S
C651 O634 1.252 . S
C651 C645 1.500 . S
C652 H614 0.930 . S
C652 C628 1.417 . S
C652 C653 1.329 . S
C653 C623 1.437 . S
C653 H624 0.929 . S
C653 C652 1.329 . S
H654 C627 0.931 . S
C655 O637 1.265 . S
C655 O638 1.242 . S
C656 O641 1.261 . S
C656 O642 1.252 . S
C657 C660 1.394 . S
C657 C662 1.370 . S
C657 C663 1.500 . S
C658 C661 1.383 . S
C658 C662 1.395 . S
C659 C660 1.396 . S
C659 C661 1.365 . S
C659 H668 0.929 . S
C660 C657 1.394 . S
C660 C659 1.396 . S
C660 H669 0.930 . S
C661 C658 1.383 . S
C661 C659 1.365 . S
C661 H670 0.931 . S
C662 C657 1.370 . S
C662 C658 1.395 . S
C662 H671 0.930 . S
C663 Gd599 2.805 . S
C663 O639 1.263 . S
C663 O640 1.252 . S
C663 C657 1.500 . S
H664 C647 0.929 . S
H665 C648 0.930 . S
H666 C649 0.931 . S
H667 C650 0.930 . S
H668 C659 0.929 . S
H669 C660 0.930 . S
H670 C661 0.931 . S
H671 C662 0.930 . S
Co672 O675 2.042 . S
Co672 O682 2.264 . S
Co672 O701 2.286 . S
Co672 O702 2.069 . S
Co672 O704 2.015 1_455 S
Co673 O675 2.122 . S
Co673 O681 2.073 . S
Co673 O682 2.327 . S
Co673 O683 1.976 1_455 S
Co674 O675 2.087 1_545 S
Co674 O677 2.087 1_455 S
Co674 O684 2.111 1_445 S
Co674 O685 2.143 . S
Co674 O689 2.111 . S
Co674 O703 2.143 1_445 S
O675 Co672 2.042 . S
O675 Co673 2.122 . S
O675 Co674 2.087 1_565 S
O675 H676 0.980 . S
H676 O675 0.980 . S
O677 Co674 2.087 1_655 S
O677 Co678 2.042 . S
O677 Co679 2.122 . S
O677 H680 0.980 . S
Co678 O677 2.042 . S
Co678 O686 2.286 . S
Co678 O687 2.069 . S
Co678 O688 2.015 1_655 S
Co678 O691 2.264 . S
Co679 O677 2.122 . S
Co679 O690 1.976 1_655 S
Co679 O691 2.327 . S
Co679 O692 2.073 . S
H680 O677 0.980 . S
O681 Co673 2.073 . S
O681 C696 1.245 . S
O682 Co672 2.264 . S
O682 Co673 2.327 . S
O682 C696 1.257 . S
O683 Co673 1.976 1_655 S
O683 C695 1.251 . S
O684 Co674 2.111 1_665 S
O684 C695 1.274 . S
O685 Co674 2.143 . S
O685 C698 1.246 . S
O686 Co678 2.286 . S
O686 C697 1.259 . S
O687 Co678 2.069 . S
O687 C697 1.289 . S
O688 Co678 2.015 1_455 S
O688 C698 1.257 . S
O689 Co674 2.111 . S
O689 C699 1.274 . S
O690 Co679 1.976 1_455 S
O690 C699 1.251 . S
O691 Co678 2.264 . S
O691 Co679 2.327 . S
O691 C700 1.257 . S
O692 Co679 2.073 . S
O692 C700 1.245 . S
C693 O701 1.259 . S
C693 O702 1.289 . S
C694 O703 1.246 . S
C694 O704 1.257 . S
C695 O683 1.251 . S
C695 O684 1.274 . S
C696 O681 1.245 . S
C696 O682 1.257 . S
C697 O686 1.259 . S
C697 O687 1.289 . S
C698 O685 1.246 . S
C698 O688 1.257 . S
C699 O689 1.274 . S
C699 O690 1.251 . S
C700 O691 1.257 . S
C700 O692 1.245 . S
O701 Co672 2.286 . S
O701 C693 1.259 . S
O702 Co672 2.069 . S
O702 C693 1.289 . S
O703 Co674 2.143 1_665 S
O703 C694 1.246 . S
O704 Co672 2.015 1_655 S
O704 C694 1.257 . S
Co705 O708 2.042 1_556 S
Co705 O715 2.264 1_556 S
Co705 O734 2.286 . S
Co705 O735 2.069 . S
Co705 O737 2.015 . S
Co706 O708 2.122 . S
Co706 O714 2.073 . S
Co706 O715 2.327 . S
Co706 O716 1.976 . S
Co707 O708 2.087 1_545 S
Co707 O710 2.087 1_554 S
Co707 O717 2.111 1_545 S
Co707 O718 2.143 . S
Co707 O722 2.111 1_554 S
Co707 O736 2.143 1_544 S
O708 Co705 2.042 1_554 S
O708 Co706 2.122 . S
O708 Co707 2.087 1_565 S
O708 H709 0.980 . S
H709 O708 0.980 . S
O710 Co707 2.087 1_556 S
O710 Co711 2.042 1_556 S
O710 Co712 2.122 . S
O710 H713 0.980 . S
Co711 O710 2.042 1_554 S
Co711 O719 2.286 . S
Co711 O720 2.069 . S
Co711 O721 2.015 . S
Co711 O724 2.264 1_554 S
Co712 O710 2.122 . S
Co712 O723 1.976 . S
Co712 O724 2.327 . S
Co712 O725 2.073 . S
H713 O710 0.980 . S
O714 Co706 2.073 . S
O714 C729 1.245 . S
O715 Co705 2.264 1_554 S
O715 Co706 2.327 . S
O715 C729 1.257 . S
O716 Co706 1.976 . S
O716 C728 1.251 . S
O717 Co707 2.111 1_565 S
O717 C728 1.274 . S
O718 Co707 2.143 . S
O718 C731 1.246 . S
O719 Co711 2.286 . S
O719 C730 1.259 . S
O720 Co711 2.069 . S
O720 C730 1.289 . S
O721 Co711 2.015 . S
O721 C731 1.257 . S
O722 Co707 2.111 1_556 S
O722 C732 1.274 . S
O723 Co712 1.976 . S
O723 C732 1.251 . S
O724 Co711 2.264 1_556 S
O724 Co712 2.327 . S
O724 C733 1.257 . S
O725 Co712 2.073 . S
O725 C733 1.245 . S
C726 O734 1.259 . S
C726 O735 1.289 . S
C727 O736 1.246 . S
C727 O737 1.257 . S
C728 O716 1.251 . S
C728 O717 1.274 . S
C729 O714 1.245 . S
C729 O715 1.257 . S
C730 O719 1.259 . S
C730 O720 1.289 . S
C731 O718 1.246 . S
C731 O721 1.257 . S
C732 O722 1.274 . S
C732 O723 1.251 . S
C733 O724 1.257 . S
C733 O725 1.245 . S
O734 Co705 2.286 . S
O734 C726 1.259 . S
O735 Co705 2.069 . S
O735 C726 1.289 . S
O736 Co707 2.143 1_566 S
O736 C727 1.246 . S
O737 Co705 2.015 . S
O737 C727 1.257 . S
Co738 O741 2.042 1_556 S
Co738 O748 2.264 1_556 S
Co738 O767 2.286 . S
Co738 O768 2.069 . S
Co738 O770 2.015 1_455 S
Co739 O741 2.122 . S
Co739 O747 2.073 . S
Co739 O748 2.327 . S
Co739 O749 1.976 1_455 S
Co740 O741 2.087 . S
Co740 O743 2.087 1_454 S
Co740 O750 2.111 1_455 S
Co740 O751 2.143 . S
Co740 O755 2.111 1_554 S
Co740 O769 2.143 1_454 S
O741 Co738 2.042 1_554 S
O741 Co739 2.122 . S
O741 Co740 2.087 . S
O741 H742 0.980 . S
H742 O741 0.980 . S
O743 Co740 2.087 1_656 S
O743 Co744 2.042 1_556 S
O743 Co745 2.122 . S
O743 H746 0.980 . S
Co744 O743 2.042 1_554 S
Co744 O752 2.286 . S
Co744 O753 2.069 . S
Co744 O754 2.015 1_655 S
Co744 O757 2.264 1_554 S
Co745 O743 2.122 . S
Co745 O756 1.976 1_655 S
Co745 O757 2.327 . S
Co745 O758 2.073 . S
H746 O743 0.980 . S
O747 Co739 2.073 . S
O747 C762 1.245 . S
O748 Co738 2.264 1_554 S
O748 Co739 2.327 . S
O748 C762 1.257 . S
O749 Co739 1.976 1_655 S
O749 C761 1.251 . S
O750 Co740 2.111 1_655 S
O750 C761 1.274 . S
O751 Co740 2.143 . S
O751 C764 1.246 . S
O752 Co744 2.286 . S
O752 C763 1.259 . S
O753 Co744 2.069 . S
O753 C763 1.289 . S
O754 Co744 2.015 1_455 S
O754 C764 1.257 . S
O755 Co740 2.111 1_556 S
O755 C765 1.274 . S
O756 Co745 1.976 1_455 S
O756 C765 1.251 . S
O757 Co744 2.264 1_556 S
O757 Co745 2.327 . S
O757 C766 1.257 . S
O758 Co745 2.073 . S
O758 C766 1.245 . S
C759 O767 1.259 . S
C759 O768 1.289 . S
C760 O769 1.246 . S
C760 O770 1.257 . S
C761 O749 1.251 . S
C761 O750 1.274 . S
C762 O747 1.245 . S
C762 O748 1.257 . S
C763 O752 1.259 . S
C763 O753 1.289 . S
C764 O751 1.246 . S
C764 O754 1.257 . S
C765 O755 1.274 . S
C765 O756 1.251 . S
C766 O757 1.257 . S
C766 O758 1.245 . S
O767 Co738 2.286 . S
O767 C759 1.259 . S
O768 Co738 2.069 . S
O768 C759 1.289 . S
O769 Co740 2.143 1_656 S
O769 C760 1.246 . S
O770 Co738 2.015 1_655 S
O770 C760 1.257 . S
Co771 O774 2.042 1_556 S
Co771 O781 2.264 1_556 S
Co771 O800 2.286 . S
Co771 O801 2.069 . S
Co771 O803 2.015 . S
Co772 O774 2.122 . S
Co772 O780 2.073 . S
Co772 O781 2.327 . S
Co772 O782 1.976 . S
Co773 O774 2.087 . S
Co773 O776 2.087 1_554 S
Co773 O783 2.111 . S
Co773 O784 2.143 . S
Co773 O788 2.111 1_554 S
Co773 O802 2.143 1_554 S
O774 Co771 2.042 1_554 S
O774 Co772 2.122 . S
O774 Co773 2.087 . S
O774 H775 0.980 . S
H775 O774 0.980 . S
O776 Co773 2.087 1_556 S
O776 Co777 2.042 1_556 S
O776 Co778 2.122 . S
O776 H779 0.980 . S
Co777 O776 2.042 1_554 S
Co777 O785 2.286 . S
Co777 O786 2.069 . S
Co777 O787 2.015 . S
Co777 O790 2.264 1_554 S
Co778 O776 2.122 . S
Co778 O789 1.976 . S
Co778 O790 2.327 . S
Co778 O791 2.073 . S
H779 O776 0.980 . S
O780 Co772 2.073 . S
O780 C795 1.245 . S
O781 Co771 2.264 1_554 S
O781 Co772 2.327 . S
O781 C795 1.257 . S
O782 Co772 1.976 . S
O782 C794 1.251 . S
O783 Co773 2.111 . S
O783 C794 1.274 . S
O784 Co773 2.143 . S
O784 C797 1.246 . S
O785 Co777 2.286 . S
O785 C796 1.259 . S
O786 Co777 2.069 . S
O786 C796 1.289 . S
O787 Co777 2.015 . S
O787 C797 1.257 . S
O788 Co773 2.111 1_556 S
O788 C798 1.274 . S
O789 Co778 1.976 . S
O789 C798 1.251 . S
O790 Co777 2.264 1_556 S
O790 Co778 2.327 . S
O790 C799 1.257 . S
O791 Co778 2.073 . S
O791 C799 1.245 . S
C792 O800 1.259 . S
C792 O801 1.289 . S
C793 O802 1.246 . S
C793 O803 1.257 . S
C794 O782 1.251 . S
C794 O783 1.274 . S
C795 O780 1.245 . S
C795 O781 1.257 . S
C796 O785 1.259 . S
C796 O786 1.289 . S
C797 O784 1.246 . S
C797 O787 1.257 . S
C798 O788 1.274 . S
C798 O789 1.251 . S
C799 O790 1.257 . S
C799 O791 1.245 . S
O800 Co771 2.286 . S
O800 C792 1.259 . S
O801 Co771 2.069 . S
O801 C792 1.289 . S
O802 Co773 2.143 1_556 S
O802 C793 1.246 . S
O803 Co771 2.015 . S
O803 C793 1.257 . S
Co804 O807 2.042 . S
Co804 O814 2.264 . S
Co804 O833 2.286 . S
Co804 O834 2.069 . S
Co804 O836 2.015 . S
Co805 O807 2.122 . S
Co805 O813 2.073 . S
Co805 O814 2.327 . S
Co805 O815 1.976 . S
Co806 O807 2.087 . S
Co806 O809 2.087 1_455 S
Co806 O816 2.111 . S
Co806 O817 2.143 1_455 S
Co806 O821 2.111 1_455 S
Co806 O835 2.143 . S
O807 Co804 2.042 . S
O807 Co805 2.122 . S
O807 Co806 2.087 . S
O807 H808 0.980 . S
H808 O807 0.980 . S
O809 Co806 2.087 1_655 S
O809 Co810 2.042 . S
O809 Co811 2.122 . S
O809 H812 0.980 . S
Co810 O809 2.042 . S
Co810 O818 2.286 . S
Co810 O819 2.069 . S
Co810 O820 2.015 . S
Co810 O823 2.264 . S
Co811 O809 2.122 . S
Co811 O822 1.976 . S
Co811 O823 2.327 . S
Co811 O824 2.073 . S
H812 O809 0.980 . S
O813 Co805 2.073 . S
O813 C828 1.245 . S
O814 Co804 2.264 . S
O814 Co805 2.327 . S
O814 C828 1.257 . S
O815 Co805 1.976 . S
O815 C827 1.251 . S
O816 Co806 2.111 . S
O816 C827 1.274 . S
O817 Co806 2.143 1_655 S
O817 C830 1.246 . S
O818 Co810 2.286 . S
O818 C829 1.259 . S
O819 Co810 2.069 . S
O819 C829 1.289 . S
O820 Co810 2.015 . S
O820 C830 1.257 . S
O821 Co806 2.111 1_655 S
O821 C831 1.274 . S
O822 Co811 1.976 . S
O822 C831 1.251 . S
O823 Co810 2.264 . S
O823 Co811 2.327 . S
O823 C832 1.257 . S
O824 Co811 2.073 . S
O824 C832 1.245 . S
C825 O833 1.259 . S
C825 O834 1.289 . S
C826 O835 1.246 . S
C826 O836 1.257 . S
C827 O815 1.251 . S
C827 O816 1.274 . S
C828 O813 1.245 . S
C828 O814 1.257 . S
C829 O818 1.259 . S
C829 O819 1.289 . S
C830 O817 1.246 . S
C830 O820 1.257 . S
C831 O821 1.274 . S
C831 O822 1.251 . S
C832 O823 1.257 . S
C832 O824 1.245 . S
O833 Co804 2.286 . S
O833 C825 1.259 . S
O834 Co804 2.069 . S
O834 C825 1.289 . S
O835 Co806 2.143 . S
O835 C826 1.246 . S
O836 Co804 2.015 . S
O836 C826 1.257 . S
Co837 O840 2.042 . S
Co837 O847 2.264 . S
Co837 O866 2.286 . S
Co837 O867 2.069 . S
Co837 O869 2.015 1_565 S
Co838 O840 2.122 . S
Co838 O846 2.073 . S
Co838 O847 2.327 . S
Co838 O848 1.976 1_565 S
Co839 O840 2.087 1_545 S
Co839 O842 2.087 . S
Co839 O849 2.111 . S
Co839 O850 2.143 1_545 S
Co839 O854 2.111 1_545 S
Co839 O868 2.143 . S
O840 Co837 2.042 . S
O840 Co838 2.122 . S
O840 Co839 2.087 1_565 S
O840 H841 0.980 . S
H841 O840 0.980 . S
O842 Co839 2.087 . S
O842 Co843 2.042 . S
O842 Co844 2.122 . S
O842 H845 0.980 . S
Co843 O842 2.042 . S
Co843 O851 2.286 . S
Co843 O852 2.069 . S
Co843 O853 2.015 1_545 S
Co843 O856 2.264 . S
Co844 O842 2.122 . S
Co844 O855 1.976 1_545 S
Co844 O856 2.327 . S
Co844 O857 2.073 . S
H845 O842 0.980 . S
O846 Co838 2.073 . S
O846 C861 1.245 . S
O847 Co837 2.264 . S
O847 Co838 2.327 . S
O847 C861 1.257 . S
O848 Co838 1.976 1_545 S
O848 C860 1.251 . S
O849 Co839 2.111 . S
O849 C860 1.274 . S
O850 Co839 2.143 1_565 S
O850 C863 1.246 . S
O851 Co843 2.286 . S
O851 C862 1.259 . S
O852 Co843 2.069 . S
O852 C862 1.289 . S
O853 Co843 2.015 1_565 S
O853 C863 1.257 . S
O854 Co839 2.111 1_565 S
O854 C864 1.274 . S
O855 Co844 1.976 1_565 S
O855 C864 1.251 . S
O856 Co843 2.264 . S
O856 Co844 2.327 . S
O856 C865 1.257 . S
O857 Co844 2.073 . S
O857 C865 1.245 . S
C858 O866 1.259 . S
C858 O867 1.289 . S
C859 O868 1.246 . S
C859 O869 1.257 . S
C860 O848 1.251 . S
C860 O849 1.274 . S
C861 O846 1.245 . S
C861 O847 1.257 . S
C862 O851 1.259 . S
C862 O852 1.289 . S
C863 O850 1.246 . S
C863 O853 1.257 . S
C864 O854 1.274 . S
C864 O855 1.251 . S
C865 O856 1.257 . S
C865 O857 1.245 . S
O866 Co837 2.286 . S
O866 C858 1.259 . S
O867 Co837 2.069 . S
O867 C858 1.289 . S
O868 Co839 2.143 . S
O868 C859 1.246 . S
O869 Co837 2.015 1_545 S
O869 C859 1.257 . S
C870 C871 1.387 . S
C870 H874 0.950 . S
C870 C879 1.390 . S
C871 C870 1.387 . S
C871 C873 1.387 . S
H872 C879 0.950 . S
C873 C871 1.387 . S
C873 C875 1.390 . S
C873 H877 0.950 . S
H874 C870 0.950 . S
C875 C873 1.390 . S
C875 C876 1.387 . S
C875 H878 0.950 . S
C876 C875 1.387 . S
C876 C879 1.387 . S
H877 C873 0.950 . S
H878 C875 0.950 . S
C879 C870 1.390 . S
C879 H872 0.950 . S
C879 C876 1.387 . S
C880 C881 1.387 . S
C880 H884 0.950 . S
C880 C889 1.390 . S
C881 C880 1.387 . S
C881 C883 1.387 . S
H882 C889 0.950 . S
C883 C881 1.387 . S
C883 C885 1.390 . S
C883 H887 0.950 . S
H884 C880 0.950 . S
C885 C883 1.390 . S
C885 C886 1.387 . S
C885 H888 0.950 . S
C886 C885 1.387 . S
C886 C889 1.387 . S
H887 C883 0.950 . S
H888 C885 0.950 . S
C889 C880 1.390 . S
C889 H882 0.950 . S
C889 C886 1.387 . S
C890 C891 1.387 . S
C890 H894 0.950 . S
C890 C899 1.390 . S
C891 C890 1.387 . S
C891 C893 1.387 . S
H892 C899 0.950 . S
C893 C891 1.387 . S
C893 C895 1.390 . S
C893 H897 0.950 . S
H894 C890 0.950 . S
C895 C893 1.390 . S
C895 C896 1.387 . S
C895 H898 0.950 . S
C896 C895 1.387 . S
C896 C899 1.387 . S
H897 C893 0.950 . S
H898 C895 0.950 . S
C899 C890 1.390 . S
C899 H892 0.950 . S
C899 C896 1.387 . S
C900 C901 1.387 . S
C900 H904 0.950 . S
C900 C909 1.390 . S
C901 C900 1.387 . S
C901 C903 1.387 . S
H902 C909 0.950 . S
C903 C901 1.387 . S
C903 C905 1.390 . S
C903 H907 0.950 . S
H904 C900 0.950 . S
C905 C903 1.390 . S
C905 C906 1.387 . S
C905 H908 0.950 . S
C906 C905 1.387 . S
C906 C909 1.387 . S
H907 C903 0.950 . S
H908 C905 0.950 . S
C909 C900 1.390 . S
C909 H902 0.950 . S
C909 C906 1.387 . S
C910 C911 1.387 . S
C910 H914 0.950 . S
C910 C919 1.390 . S
C911 C910 1.387 . S
C911 C913 1.387 . S
H912 C919 0.950 . S
C913 C911 1.387 . S
C913 C915 1.390 . S
C913 H917 0.950 . S
H914 C910 0.950 . S
C915 C913 1.390 . S
C915 C916 1.387 . S
C915 H918 0.950 . S
C916 C915 1.387 . S
C916 C919 1.387 . S
H917 C913 0.950 . S
H918 C915 0.950 . S
C919 C910 1.390 . S
C919 H912 0.950 . S
C919 C916 1.387 . S
C920 C921 1.387 . S
C920 H924 0.950 . S
C920 C929 1.390 . S
C921 C920 1.387 . S
C921 C923 1.387 . S
H922 C929 0.950 . S
C923 C921 1.387 . S
C923 C925 1.390 . S
C923 H927 0.950 . S
H924 C920 0.950 . S
C925 C923 1.390 . S
C925 C926 1.387 . S
C925 H928 0.950 . S
C926 C925 1.387 . S
C926 C929 1.387 . S
H927 C923 0.950 . S
H928 C925 0.950 . S
C929 C920 1.390 . S
C929 H922 0.950 . S
C929 C926 1.387 . S
C930 C931 1.387 . S
C930 H934 0.950 . S
C930 C939 1.390 . S
C931 C930 1.387 . S
C931 C933 1.387 . S
H932 C939 0.950 . S
C933 C931 1.387 . S
C933 C935 1.390 . S
C933 H937 0.950 . S
H934 C930 0.950 . S
C935 C933 1.390 . S
C935 C936 1.387 . S
C935 H938 0.950 . S
C936 C935 1.387 . S
C936 C939 1.387 . S
H937 C933 0.950 . S
H938 C935 0.950 . S
C939 C930 1.390 . S
C939 H932 0.950 . S
C939 C936 1.387 . S
C940 C941 1.387 . S
C940 H944 0.950 . S
C940 C949 1.390 . S
C941 C940 1.387 . S
C941 C943 1.387 . S
H942 C949 0.950 . S
C943 C941 1.387 . S
C943 C945 1.390 . S
C943 H947 0.950 . S
H944 C940 0.950 . S
C945 C943 1.390 . S
C945 C946 1.387 . S
C945 H948 0.950 . S
C946 C945 1.387 . S
C946 C949 1.387 . S
H947 C943 0.950 . S
H948 C945 0.950 . S
C949 C940 1.390 . S
C949 H942 0.950 . S
C949 C946 1.387 . S
C950 C951 1.387 . S
C950 H954 0.950 . S
C950 C959 1.390 . S
C951 C950 1.387 . S
C951 C953 1.387 . S
H952 C959 0.950 . S
C953 C951 1.387 . S
C953 C955 1.390 . S
C953 H957 0.950 . S
H954 C950 0.950 . S
C955 C953 1.390 . S
C955 C956 1.387 . S
C955 H958 0.950 . S
C956 C955 1.387 . S
C956 C959 1.387 . S
H957 C953 0.950 . S
H958 C955 0.950 . S
C959 C950 1.390 . S
C959 H952 0.950 . S
C959 C956 1.387 . S
C960 C961 1.387 . S
C960 H964 0.950 . S
C960 C969 1.390 . S
C961 C960 1.387 . S
C961 C963 1.387 . S
H962 C969 0.950 . S
C963 C961 1.387 . S
C963 C965 1.390 . S
C963 H967 0.950 . S
H964 C960 0.950 . S
C965 C963 1.390 . S
C965 C966 1.387 . S
C965 H968 0.950 . S
C966 C965 1.387 . S
C966 C969 1.387 . S
H967 C963 0.950 . S
H968 C965 0.950 . S
C969 C960 1.390 . S
C969 H962 0.950 . S
C969 C966 1.387 . S
C970 C971 1.387 . S
C970 H974 0.950 1_554 S
C970 C979 1.390 . S
C971 C970 1.387 . S
C971 C973 1.387 . S
H972 C979 0.950 1_556 S
C973 C971 1.387 . S
C973 C975 1.390 . S
C973 H977 0.950 . S
H974 C970 0.950 1_556 S
C975 C973 1.390 . S
C975 C976 1.387 . S
C975 H978 0.950 . S
C976 C975 1.387 . S
C976 C979 1.387 . S
H977 C973 0.950 . S
H978 C975 0.950 . S
C979 C970 1.390 . S
C979 H972 0.950 1_554 S
C979 C976 1.387 . S
C980 C981 1.387 . S
C980 H984 0.950 . S
C980 C989 1.390 . S
C981 C980 1.387 . S
C981 C983 1.387 . S
H982 C989 0.950 . S
C983 C981 1.387 . S
C983 C985 1.390 . S
C983 H987 0.950 . S
H984 C980 0.950 . S
C985 C983 1.390 . S
C985 C986 1.387 . S
C985 H988 0.950 . S
C986 C985 1.387 . S
C986 C989 1.387 . S
H987 C983 0.950 . S
H988 C985 0.950 . S
C989 C980 1.390 . S
C989 H982 0.950 . S
C989 C986 1.387 . S
C990 C991 1.387 . S
C990 H994 0.950 . S
C990 C999 1.390 . S
C991 C990 1.387 . S
C991 C993 1.387 . S
H992 C999 0.950 . S
C993 C991 1.387 . S
C993 C995 1.390 . S
C993 H997 0.950 . S
H994 C990 0.950 . S
C995 C993 1.390 . S
C995 C996 1.387 . S
C995 H998 0.950 . S
C996 C995 1.387 . S
C996 C999 1.387 . S
H997 C993 0.950 . S
H998 C995 0.950 . S
C999 C990 1.390 . S
C999 H992 0.950 . S
C999 C996 1.387 . S
C1000 C1001 1.387 . S
C1000 H1004 0.950 . S
C1000 C1009 1.390 . S
C1001 C1000 1.387 . S
C1001 C1003 1.387 . S
H1002 C1009 0.950 . S
C1003 C1001 1.387 . S
C1003 C1005 1.390 . S
C1003 H1007 0.950 . S
H1004 C1000 0.950 . S
C1005 C1003 1.390 . S
C1005 C1006 1.387 . S
C1005 H1008 0.950 . S
C1006 C1005 1.387 . S
C1006 C1009 1.387 . S
H1007 C1003 0.950 . S
H1008 C1005 0.950 . S
C1009 C1000 1.390 . S
C1009 H1002 0.950 . S
C1009 C1006 1.387 . S
C1010 C1011 1.387 . S
C1010 H1014 0.950 . S
C1010 C1019 1.390 . S
C1011 C1010 1.387 . S
C1011 C1013 1.387 . S
H1012 C1019 0.950 . S
C1013 C1011 1.387 . S
C1013 C1015 1.390 . S
C1013 H1017 0.950 . S
H1014 C1010 0.950 . S
C1015 C1013 1.390 . S
C1015 C1016 1.387 . S
C1015 H1018 0.950 . S
C1016 C1015 1.387 . S
C1016 C1019 1.387 . S
H1017 C1013 0.950 . S
H1018 C1015 0.950 . S
C1019 C1010 1.390 . S
C1019 H1012 0.950 . S
C1019 C1016 1.387 . S
C1020 C1021 1.387 . S
C1020 H1024 0.950 1_556 S
C1020 C1029 1.390 . S
C1021 C1020 1.387 . S
C1021 C1023 1.387 . S
H1022 C1029 0.950 1_554 S
C1023 C1021 1.387 . S
C1023 C1025 1.390 . S
C1023 H1027 0.950 . S
H1024 C1020 0.950 1_554 S
C1025 C1023 1.390 . S
C1025 C1026 1.387 . S
C1025 H1028 0.950 . S
C1026 C1025 1.387 . S
C1026 C1029 1.387 . S
H1027 C1023 0.950 . S
H1028 C1025 0.950 . S
C1029 C1020 1.390 . S
C1029 H1022 0.950 1_556 S
C1029 C1026 1.387 . S
C1030 C1031 1.387 . S
C1030 H1034 0.950 . S
C1030 C1039 1.390 . S
C1031 C1030 1.387 . S
C1031 C1033 1.387 . S
H1032 C1039 0.950 1_556 S
C1033 C1031 1.387 . S
C1033 C1035 1.390 . S
C1033 H1037 0.950 . S
H1034 C1030 0.950 . S
C1035 C1033 1.390 . S
C1035 C1036 1.387 . S
C1035 H1038 0.950 . S
C1036 C1035 1.387 . S
C1036 C1039 1.387 . S
H1037 C1033 0.950 . S
H1038 C1035 0.950 . S
C1039 C1030 1.390 . S
C1039 H1032 0.950 1_554 S
C1039 C1036 1.387 . S
C1040 C1041 1.387 . S
C1040 H1044 0.950 . S
C1040 C1049 1.390 . S
C1041 C1040 1.387 . S
C1041 C1043 1.387 . S
H1042 C1049 0.950 . S
C1043 C1041 1.387 . S
C1043 C1045 1.390 . S
C1043 H1047 0.950 . S
H1044 C1040 0.950 . S
C1045 C1043 1.390 . S
C1045 C1046 1.387 . S
C1045 H1048 0.950 . S
C1046 C1045 1.387 . S
C1046 C1049 1.387 . S
H1047 C1043 0.950 . S
H1048 C1045 0.950 . S
C1049 C1040 1.390 . S
C1049 H1042 0.950 . S
C1049 C1046 1.387 . S
C1050 C1051 1.387 . S
C1050 H1054 0.950 1_556 S
C1050 C1059 1.390 . S
C1051 C1050 1.387 . S
C1051 C1053 1.387 . S
H1052 C1059 0.950 1_554 S
C1053 C1051 1.387 . S
C1053 C1055 1.390 . S
C1053 H1057 0.950 . S
H1054 C1050 0.950 1_554 S
C1055 C1053 1.390 . S
C1055 C1056 1.387 . S
C1055 H1058 0.950 . S
C1056 C1055 1.387 . S
C1056 C1059 1.387 . S
H1057 C1053 0.950 . S
H1058 C1055 0.950 . S
C1059 C1050 1.390 . S
C1059 H1052 0.950 1_556 S
C1059 C1056 1.387 . S
C1060 C1061 1.387 . S
C1060 H1064 0.950 . S
C1060 C1069 1.390 . S
C1061 C1060 1.387 . S
C1061 C1063 1.387 . S
H1062 C1069 0.950 . S
C1063 C1061 1.387 . S
C1063 C1065 1.390 . S
C1063 H1067 0.950 . S
H1064 C1060 0.950 . S
C1065 C1063 1.390 . S
C1065 C1066 1.387 . S
C1065 H1068 0.950 . S
C1066 C1065 1.387 . S
C1066 C1069 1.387 . S
H1067 C1063 0.950 . S
H1068 C1065 0.950 . S
C1069 C1060 1.390 . S
C1069 H1062 0.950 . S
C1069 C1066 1.387 . S
C1070 C1071 1.387 . S
C1070 H1074 0.950 . S
C1070 C1079 1.390 . S
C1071 C1070 1.387 . S
C1071 C1073 1.387 . S
H1072 C1079 0.950 . S
C1073 C1071 1.387 . S
C1073 C1075 1.390 . S
C1073 H1077 0.950 . S
H1074 C1070 0.950 . S
C1075 C1073 1.390 . S
C1075 C1076 1.387 . S
C1075 H1078 0.950 . S
C1076 C1075 1.387 . S
C1076 C1079 1.387 . S
H1077 C1073 0.950 . S
H1078 C1075 0.950 . S
C1079 C1070 1.390 . S
C1079 H1072 0.950 . S
C1079 C1076 1.387 . S
C1080 C1081 1.387 . S
C1080 H1084 0.950 . S
C1080 C1089 1.390 . S
C1081 C1080 1.387 . S
C1081 C1083 1.387 . S
H1082 C1089 0.950 . S
C1083 C1081 1.387 . S
C1083 C1085 1.390 . S
C1083 H1087 0.950 . S
H1084 C1080 0.950 . S
C1085 C1083 1.390 . S
C1085 C1086 1.387 . S
C1085 H1088 0.950 . S
C1086 C1085 1.387 . S
C1086 C1089 1.387 . S
H1087 C1083 0.950 . S
H1088 C1085 0.950 . S
C1089 C1080 1.390 . S
C1089 H1082 0.950 . S
C1089 C1086 1.387 . S
C1090 C1091 1.387 . S
C1090 H1094 0.950 . S
C1090 C1099 1.390 . S
C1091 C1090 1.387 . S
C1091 C1093 1.387 . S
H1092 C1099 0.950 . S
C1093 C1091 1.387 . S
C1093 C1095 1.390 . S
C1093 H1097 0.950 . S
H1094 C1090 0.950 . S
C1095 C1093 1.390 . S
C1095 C1096 1.387 . S
C1095 H1098 0.950 . S
C1096 C1095 1.387 . S
C1096 C1099 1.387 . S
H1097 C1093 0.950 . S
H1098 C1095 0.950 . S
C1099 C1090 1.390 . S
C1099 H1092 0.950 . S
C1099 C1096 1.387 . S
C1100 C1101 1.387 . S
C1100 H1104 0.950 . S
C1100 C1109 1.390 . S
C1101 C1100 1.387 . S
C1101 C1103 1.387 . S
H1102 C1109 0.950 . S
C1103 C1101 1.387 . S
C1103 C1105 1.390 . S
C1103 H1107 0.950 . S
H1104 C1100 0.950 . S
C1105 C1103 1.390 . S
C1105 C1106 1.387 . S
C1105 H1108 0.950 . S
C1106 C1105 1.387 . S
C1106 C1109 1.387 . S
H1107 C1103 0.950 . S
H1108 C1105 0.950 . S
C1109 C1100 1.390 . S
C1109 H1102 0.950 . S
C1109 C1106 1.387 . S
C1110 C1111 1.387 . S
C1110 H1114 0.950 . S
C1110 C1119 1.390 . S
C1111 C1110 1.387 . S
C1111 C1113 1.387 . S
H1112 C1119 0.950 . S
C1113 C1111 1.387 . S
C1113 C1115 1.390 . S
C1113 H1117 0.950 . S
H1114 C1110 0.950 . S
C1115 C1113 1.390 . S
C1115 C1116 1.387 . S
C1115 H1118 0.950 . S
C1116 C1115 1.387 . S
C1116 C1119 1.387 . S
H1117 C1113 0.950 . S
H1118 C1115 0.950 . S
C1119 C1110 1.390 . S
C1119 H1112 0.950 . S
C1119 C1116 1.387 . S
C1120 C1121 1.387 . S
C1120 H1124 0.950 . S
C1120 C1129 1.390 . S
C1121 C1120 1.387 . S
C1121 C1123 1.387 . S
H1122 C1129 0.950 . S
C1123 C1121 1.387 . S
C1123 C1125 1.390 . S
C1123 H1127 0.950 . S
H1124 C1120 0.950 . S
C1125 C1123 1.390 . S
C1125 C1126 1.387 . S
C1125 H1128 0.950 . S
C1126 C1125 1.387 . S
C1126 C1129 1.387 . S
H1127 C1123 0.950 . S
H1128 C1125 0.950 . S
C1129 C1120 1.390 . S
C1129 H1122 0.950 . S
C1129 C1126 1.387 . S
C1130 C1131 1.387 . S
C1130 H1134 0.950 . S
C1130 C1139 1.390 . S
C1131 C1130 1.387 . S
C1131 C1133 1.387 . S
H1132 C1139 0.950 . S
C1133 C1131 1.387 . S
C1133 C1135 1.390 . S
C1133 H1137 0.950 . S
H1134 C1130 0.950 . S
C1135 C1133 1.390 . S
C1135 C1136 1.387 . S
C1135 H1138 0.950 . S
C1136 C1135 1.387 . S
C1136 C1139 1.387 . S
H1137 C1133 0.950 . S
H1138 C1135 0.950 . S
C1139 C1130 1.390 . S
C1139 H1132 0.950 . S
C1139 C1136 1.387 . S
C1140 C1141 1.387 . S
C1140 H1144 0.950 . S
C1140 C1149 1.390 . S
C1141 C1140 1.387 . S
C1141 C1143 1.387 . S
H1142 C1149 0.950 . S
C1143 C1141 1.387 . S
C1143 C1145 1.390 . S
C1143 H1147 0.950 1_556 S
H1144 C1140 0.950 . S
C1145 C1143 1.390 . S
C1145 C1146 1.387 . S
C1145 H1148 0.950 . S
C1146 C1145 1.387 . S
C1146 C1149 1.387 . S
H1147 C1143 0.950 1_554 S
H1148 C1145 0.950 . S
C1149 C1140 1.390 . S
C1149 H1142 0.950 . S
C1149 C1146 1.387 . S
C1150 C1151 1.387 . S
C1150 H1154 0.950 . S
C1150 C1159 1.390 . S
C1151 C1150 1.387 . S
C1151 C1153 1.387 . S
H1152 C1159 0.950 . S
C1153 C1151 1.387 . S
C1153 C1155 1.390 . S
C1153 H1157 0.950 . S
H1154 C1150 0.950 . S
C1155 C1153 1.390 . S
C1155 C1156 1.387 . S
C1155 H1158 0.950 . S
C1156 C1155 1.387 . S
C1156 C1159 1.387 . S
H1157 C1153 0.950 . S
H1158 C1155 0.950 . S
C1159 C1150 1.390 . S
C1159 H1152 0.950 . S
C1159 C1156 1.387 . S
C1160 C1161 1.387 . S
C1160 H1164 0.950 . S
C1160 C1169 1.390 . S
C1161 C1160 1.387 . S
C1161 C1163 1.387 . S
H1162 C1169 0.950 . S
C1163 C1161 1.387 . S
C1163 C1165 1.390 . S
C1163 H1167 0.950 . S
H1164 C1160 0.950 . S
C1165 C1163 1.390 . S
C1165 C1166 1.387 . S
C1165 H1168 0.950 . S
C1166 C1165 1.387 . S
C1166 C1169 1.387 . S
H1167 C1163 0.950 . S
H1168 C1165 0.950 . S
C1169 C1160 1.390 . S
C1169 H1162 0.950 . S
C1169 C1166 1.387 . S
C1170 C1171 1.387 . S
C1170 H1174 0.950 1_554 S
C1170 C1179 1.390 . S
C1171 C1170 1.387 . S
C1171 C1173 1.387 . S
H1172 C1179 0.950 . S
C1173 C1171 1.387 . S
C1173 C1175 1.390 . S
C1173 H1177 0.950 . S
H1174 C1170 0.950 1_556 S
C1175 C1173 1.390 . S
C1175 C1176 1.387 . S
C1175 H1178 0.950 . S
C1176 C1175 1.387 . S
C1176 C1179 1.387 . S
H1177 C1173 0.950 . S
H1178 C1175 0.950 . S
C1179 C1170 1.390 . S
C1179 H1172 0.950 . S
C1179 C1176 1.387 . S
C1180 C1181 1.387 . S
C1180 H1184 0.950 . S
C1180 C1189 1.390 . S
C1181 C1180 1.387 . S
C1181 C1183 1.387 . S
H1182 C1189 0.950 . S
C1183 C1181 1.387 . S
C1183 C1185 1.390 . S
C1183 H1187 0.950 . S
H1184 C1180 0.950 . S
C1185 C1183 1.390 . S
C1185 C1186 1.387 . S
C1185 H1188 0.950 . S
C1186 C1185 1.387 . S
C1186 C1189 1.387 . S
H1187 C1183 0.950 . S
H1188 C1185 0.950 . S
C1189 C1180 1.390 . S
C1189 H1182 0.950 . S
C1189 C1186 1.387 . S
C1190 C1191 1.387 . S
C1190 H1194 0.950 . S
C1190 C1199 1.390 . S
C1191 C1190 1.387 . S
C1191 C1193 1.387 . S
H1192 C1199 0.950 . S
C1193 C1191 1.387 . S
C1193 C1195 1.390 . S
C1193 H1197 0.950 . S
H1194 C1190 0.950 . S
C1195 C1193 1.390 . S
C1195 C1196 1.387 . S
C1195 H1198 0.950 . S
C1196 C1195 1.387 . S
C1196 C1199 1.387 . S
H1197 C1193 0.950 . S
H1198 C1195 0.950 . S
C1199 C1190 1.390 . S
C1199 H1192 0.950 . S
C1199 C1196 1.387 . S
C1200 C1201 1.387 . S
C1200 H1204 0.950 . S
C1200 C1209 1.390 . S
C1201 C1200 1.387 . S
C1201 C1203 1.387 . S
H1202 C1209 0.950 . S
C1203 C1201 1.387 . S
C1203 C1205 1.390 . S
C1203 H1207 0.950 . S
H1204 C1200 0.950 . S
C1205 C1203 1.390 . S
C1205 C1206 1.387 . S
C1205 H1208 0.950 . S
C1206 C1205 1.387 . S
C1206 C1209 1.387 . S
H1207 C1203 0.950 . S
H1208 C1205 0.950 . S
C1209 C1200 1.390 . S
C1209 H1202 0.950 . S
C1209 C1206 1.387 . S
C1210 C1211 1.387 . S
C1210 H1214 0.950 . S
C1210 C1219 1.390 . S
C1211 C1210 1.387 . S
C1211 C1213 1.387 . S
H1212 C1219 0.950 . S
C1213 C1211 1.387 . S
C1213 C1215 1.390 . S
C1213 H1217 0.950 . S
H1214 C1210 0.950 . S
C1215 C1213 1.390 . S
C1215 C1216 1.387 . S
C1215 H1218 0.950 . S
C1216 C1215 1.387 . S
C1216 C1219 1.387 . S
H1217 C1213 0.950 . S
H1218 C1215 0.950 . S
C1219 C1210 1.390 . S
C1219 H1212 0.950 . S
C1219 C1216 1.387 . S
C1220 C1221 1.387 . S
C1220 H1224 0.950 . S
C1220 C1229 1.390 . S
C1221 C1220 1.387 . S
C1221 C1223 1.387 . S
H1222 C1229 0.950 . S
C1223 C1221 1.387 . S
C1223 C1225 1.390 . S
C1223 H1227 0.950 . S
H1224 C1220 0.950 . S
C1225 C1223 1.390 . S
C1225 C1226 1.387 . S
C1225 H1228 0.950 . S
C1226 C1225 1.387 . S
C1226 C1229 1.387 . S
H1227 C1223 0.950 . S
H1228 C1225 0.950 . S
C1229 C1220 1.390 . S
C1229 H1222 0.950 . S
C1229 C1226 1.387 . S
C1230 C1231 1.387 . S
C1230 H1234 0.950 . S
C1230 C1239 1.390 . S
C1231 C1230 1.387 . S
C1231 C1233 1.387 . S
H1232 C1239 0.950 . S
C1233 C1231 1.387 . S
C1233 C1235 1.390 . S
C1233 H1237 0.950 . S
H1234 C1230 0.950 . S
C1235 C1233 1.390 . S
C1235 C1236 1.387 . S
C1235 H1238 0.950 . S
C1236 C1235 1.387 . S
C1236 C1239 1.387 . S
H1237 C1233 0.950 . S
H1238 C1235 0.950 . S
C1239 C1230 1.390 . S
C1239 H1232 0.950 . S
C1239 C1236 1.387 . S
C1240 C1241 1.387 . S
C1240 H1244 0.950 . S
C1240 C1249 1.390 . S
C1241 C1240 1.387 . S
C1241 C1243 1.387 . S
H1242 C1249 0.950 . S
C1243 C1241 1.387 . S
C1243 C1245 1.390 . S
C1243 H1247 0.950 . S
H1244 C1240 0.950 . S
C1245 C1243 1.390 . S
C1245 C1246 1.387 . S
C1245 H1248 0.950 . S
C1246 C1245 1.387 . S
C1246 C1249 1.387 . S
H1247 C1243 0.950 . S
H1248 C1245 0.950 . S
C1249 C1240 1.390 . S
C1249 H1242 0.950 . S
C1249 C1246 1.387 . S
C1250 C1251 1.387 . S
C1250 H1254 0.950 . S
C1250 C1259 1.390 . S
C1251 C1250 1.387 . S
C1251 C1253 1.387 . S
H1252 C1259 0.950 . S
C1253 C1251 1.387 . S
C1253 C1255 1.390 . S
C1253 H1257 0.950 . S
H1254 C1250 0.950 . S
C1255 C1253 1.390 . S
C1255 C1256 1.387 . S
C1255 H1258 0.950 . S
C1256 C1255 1.387 . S
C1256 C1259 1.387 . S
H1257 C1253 0.950 . S
H1258 C1255 0.950 . S
C1259 C1250 1.390 . S
C1259 H1252 0.950 . S
C1259 C1256 1.387 . S
C1260 C1261 1.387 . S
C1260 H1264 0.950 . S
C1260 C1269 1.390 . S
C1261 C1260 1.387 . S
C1261 C1263 1.387 . S
H1262 C1269 0.950 . S
C1263 C1261 1.387 . S
C1263 C1265 1.390 . S
C1263 H1267 0.950 . S
H1264 C1260 0.950 . S
C1265 C1263 1.390 . S
C1265 C1266 1.387 . S
C1265 H1268 0.950 . S
C1266 C1265 1.387 . S
C1266 C1269 1.387 . S
H1267 C1263 0.950 . S
H1268 C1265 0.950 . S
C1269 C1260 1.390 . S
C1269 H1262 0.950 . S
C1269 C1266 1.387 . S
C1270 C1271 1.387 . S
C1270 H1274 0.950 . S
C1270 C1279 1.390 . S
C1271 C1270 1.387 . S
C1271 C1273 1.387 . S
H1272 C1279 0.950 . S
C1273 C1271 1.387 . S
C1273 C1275 1.390 . S
C1273 H1277 0.950 . S
H1274 C1270 0.950 . S
C1275 C1273 1.390 . S
C1275 C1276 1.387 . S
C1275 H1278 0.950 . S
C1276 C1275 1.387 . S
C1276 C1279 1.387 . S
H1277 C1273 0.950 . S
H1278 C1275 0.950 . S
C1279 C1270 1.390 . S
C1279 H1272 0.950 . S
C1279 C1276 1.387 . S
C1280 C1281 1.387 . S
C1280 H1284 0.950 . S
C1280 C1289 1.390 . S
C1281 C1280 1.387 . S
C1281 C1283 1.387 . S
H1282 C1289 0.950 . S
C1283 C1281 1.387 . S
C1283 C1285 1.390 . S
C1283 H1287 0.950 . S
H1284 C1280 0.950 . S
C1285 C1283 1.390 . S
C1285 C1286 1.387 . S
C1285 H1288 0.950 . S
C1286 C1285 1.387 . S
C1286 C1289 1.387 . S
H1287 C1283 0.950 . S
H1288 C1285 0.950 . S
C1289 C1280 1.390 . S
C1289 H1282 0.950 . S
C1289 C1286 1.387 . S
C1290 C1291 1.387 . S
C1290 H1294 0.950 . S
C1290 C1299 1.390 . S
C1291 C1290 1.387 . S
C1291 C1293 1.387 . S
H1292 C1299 0.950 . S
C1293 C1291 1.387 . S
C1293 C1295 1.390 . S
C1293 H1297 0.950 . S
H1294 C1290 0.950 . S
C1295 C1293 1.390 . S
C1295 C1296 1.387 . S
C1295 H1298 0.950 . S
C1296 C1295 1.387 . S
C1296 C1299 1.387 . S
H1297 C1293 0.950 . S
H1298 C1295 0.950 . S
C1299 C1290 1.390 . S
C1299 H1292 0.950 . S
C1299 C1296 1.387 . S
C1300 C1301 1.387 . S
C1300 H1304 0.950 . S
C1300 C1309 1.390 . S
C1301 C1300 1.387 . S
C1301 C1303 1.387 . S
H1302 C1309 0.950 . S
C1303 C1301 1.387 . S
C1303 C1305 1.390 . S
C1303 H1307 0.950 . S
H1304 C1300 0.950 . S
C1305 C1303 1.390 . S
C1305 C1306 1.387 . S
C1305 H1308 0.950 . S
C1306 C1305 1.387 . S
C1306 C1309 1.387 . S
H1307 C1303 0.950 . S
H1308 C1305 0.950 . S
C1309 C1300 1.390 . S
C1309 H1302 0.950 . S
C1309 C1306 1.387 . S
C1310 C1311 1.387 . S
C1310 H1314 0.950 . S
C1310 C1319 1.390 . S
C1311 C1310 1.387 . S
C1311 C1313 1.387 . S
H1312 C1319 0.950 . S
C1313 C1311 1.387 . S
C1313 C1315 1.390 . S
C1313 H1317 0.950 . S
H1314 C1310 0.950 . S
C1315 C1313 1.390 . S
C1315 C1316 1.387 . S
C1315 H1318 0.950 . S
C1316 C1315 1.387 . S
C1316 C1319 1.387 . S
H1317 C1313 0.950 . S
H1318 C1315 0.950 . S
C1319 C1310 1.390 . S
C1319 H1312 0.950 . S
C1319 C1316 1.387 . S
C1320 C1321 1.387 . S
C1320 H1324 0.950 . S
C1320 C1329 1.390 . S
C1321 C1320 1.387 . S
C1321 C1323 1.387 . S
H1322 C1329 0.950 . S
C1323 C1321 1.387 . S
C1323 C1325 1.390 . S
C1323 H1327 0.950 . S
H1324 C1320 0.950 . S
C1325 C1323 1.390 . S
C1325 C1326 1.387 . S
C1325 H1328 0.950 . S
C1326 C1325 1.387 . S
C1326 C1329 1.387 . S
H1327 C1323 0.950 . S
H1328 C1325 0.950 . S
C1329 C1320 1.390 . S
C1329 H1322 0.950 . S
C1329 C1326 1.387 . S
C1330 C1331 1.387 . S
C1330 H1334 0.950 . S
C1330 C1339 1.390 . S
C1331 C1330 1.387 . S
C1331 C1333 1.387 . S
H1332 C1339 0.950 . S
C1333 C1331 1.387 . S
C1333 C1335 1.390 . S
C1333 H1337 0.950 . S
H1334 C1330 0.950 . S
C1335 C1333 1.390 . S
C1335 C1336 1.387 . S
C1335 H1338 0.950 . S
C1336 C1335 1.387 . S
C1336 C1339 1.387 . S
H1337 C1333 0.950 . S
H1338 C1335 0.950 . S
C1339 C1330 1.390 . S
C1339 H1332 0.950 . S
C1339 C1336 1.387 . S
C1340 C1341 1.387 . S
C1340 H1344 0.950 . S
C1340 C1349 1.390 . S
C1341 C1340 1.387 . S
C1341 C1343 1.387 . S
H1342 C1349 0.950 . S
C1343 C1341 1.387 . S
C1343 C1345 1.390 . S
C1343 H1347 0.950 . S
H1344 C1340 0.950 . S
C1345 C1343 1.390 . S
C1345 C1346 1.387 . S
C1345 H1348 0.950 . S
C1346 C1345 1.387 . S
C1346 C1349 1.387 . S
H1347 C1343 0.950 . S
H1348 C1345 0.950 . S
C1349 C1340 1.390 . S
C1349 H1342 0.950 . S
C1349 C1346 1.387 . S
C876 C699 1.430 . S
C871 C56 1.607 . S
C886 C700 1.482 . S
C881 C154 1.441 . S
C896 C694 1.702 . S
C891 C236 1.741 . S
C901 C310 1.136 . S
C906 C693 0.571 . S
C911 C394 1.439 . S
C916 C696 1.481 . S
C926 C698 1.702 . S
C921 C476 1.739 . S
C931 C574 1.133 . S
C936 C697 0.568 . S
C941 C656 1.608 . S
C946 C695 1.431 . S
C956 C730 2.629 . S
C951 C67 2.606 . S
C961 C139 1.695 . S
C966 C761 1.548 . S
C976 C729 1.365 . S
C971 C238 1.265 . S
C986 C764 1.518 . S
C981 C308 1.448 . S
C991 C392 1.730 . S
C996 C727 1.721 . S
C1006 C759 2.614 . S
C1001 C487 2.610 . S
C1011 C559 1.467 . S
C1016 C732 1.333 . S
C1021 C658 1.228 . S
C1026 C766 1.321 . S
C1031 C58 1.232 . S
C1036 C762 1.316 . S
C1041 C403 1.695 . S
C1046 C765 1.547 . S
C1056 C733 1.365 . S
C1051 C478 1.270 . S
C1066 C760 1.518 . S
C1061 C572 1.453 . S
C1071 C643 2.608 . S
C1076 C726 2.631 . S
C1081 C223 2.611 . S
C1086 C763 2.615 . S
C1096 C728 1.334 . S
C1091 C319 1.466 . S
C1101 C152 1.730 . S
C1106 C731 1.716 . S
C1111 C644 1.624 . S
C1116 C798 1.484 . S
C1121 C406 1.283 . S
C1126 C799 1.240 . S
C1136 C793 1.521 . S
C1131 C488 1.549 . S
C1146 C792 0.593 . S
C1141 C562 0.833 . S
C1151 C142 1.283 . S
C1156 C795 1.243 . S
C1166 C797 1.524 . S
C1161 C224 1.547 . S
C1171 C322 0.835 . S
C1176 C796 0.596 . S
C1181 C68 1.625 . S
C1186 C794 1.482 . S
C1191 C655 2.801 . S
C1196 C832 2.727 . S
C1206 C864 1.438 . S
C1201 C391 1.519 . S
C1211 C490 1.114 . S
C1216 C825 1.289 . S
C1221 C560 1.709 . S
C1226 C859 1.680 . S
C1236 C830 1.448 . S
C1231 C140 1.442 . S
C1241 C235 2.845 . S
C1246 C861 2.780 . S
C1256 C827 1.765 . S
C1251 C307 1.823 . S
C1266 C862 1.326 . S
C1261 C70 1.227 . S
C1276 C858 1.326 . S
C1271 C646 1.236 . S
C1281 C151 1.518 . S
C1286 C860 1.436 . S
C1291 C226 1.119 . S
C1296 C829 1.292 . S
C1306 C863 1.680 . S
C1301 C320 1.709 . S
C1311 C55 2.802 . S
C1316 C828 2.724 . S
C1321 C475 2.844 . S
C1326 C865 2.777 . S
C1336 C831 1.762 . S
C1331 C571 1.823 . S
C1346 C826 1.450 . S
C1341 C404 1.439 . S
