# Generated by pormake.
# Topology ocu, (6,8)-cn, num edge types: 1
# Building blocks:
#     Node 0, Type 0, BuildingBlock: BETDEL_clean_sbu_0, # of connection points: 6
#     Node 1, Type 0, BuildingBlock: BETDEL_clean_sbu_0, # of connection points: 6
#     Node 2, Type 0, BuildingBlock: BETDEL_clean_sbu_0, # of connection points: 6
#     Node 3, Type 0, BuildingBlock: BETDEL_clean_sbu_0, # of connection points: 6
#     Node 4, Type 0, BuildingBlock: BETDEL_clean_sbu_0, # of connection points: 6
#     Node 5, Type 0, BuildingBlock: BETDEL_clean_sbu_0, # of connection points: 6
#     Node 6, Type 0, BuildingBlock: BETDEL_clean_sbu_0, # of connection points: 6
#     Node 7, Type 0, BuildingBlock: BETDEL_clean_sbu_0, # of connection points: 6
#     Node 8, Type 1, BuildingBlock: TAGTUT_clean_sbu_1, # of connection points: 8
#     Node 9, Type 1, BuildingBlock: TAGTUT_clean_sbu_1, # of connection points: 8
#     Node 10, Type 1, BuildingBlock: TAGTUT_clean_sbu_1, # of connection points: 8
#     Node 11, Type 1, BuildingBlock: TAGTUT_clean_sbu_1, # of connection points: 8
#     Node 12, Type 1, BuildingBlock: TAGTUT_clean_sbu_1, # of connection points: 8
#     Node 13, Type 1, BuildingBlock: TAGTUT_clean_sbu_1, # of connection points: 8
#     Edge 14, Type (0, 1), BuildingBlock: XIVTED_clean_linker_0, # of connection points: 2
#     Edge 15, Type (0, 1), BuildingBlock: XIVTED_clean_linker_0, # of connection points: 2
#     Edge 16, Type (0, 1), BuildingBlock: XIVTED_clean_linker_0, # of connection points: 2
#     Edge 17, Type (0, 1), BuildingBlock: XIVTED_clean_linker_0, # of connection points: 2
#     Edge 18, Type (0, 1), BuildingBlock: XIVTED_clean_linker_0, # of connection points: 2
#     Edge 19, Type (0, 1), BuildingBlock: XIVTED_clean_linker_0, # of connection points: 2
#     Edge 20, Type (0, 1), BuildingBlock: XIVTED_clean_linker_0, # of connection points: 2
#     Edge 21, Type (0, 1), BuildingBlock: XIVTED_clean_linker_0, # of connection points: 2
#     Edge 22, Type (0, 1), BuildingBlock: XIVTED_clean_linker_0, # of connection points: 2
#     Edge 23, Type (0, 1), BuildingBlock: XIVTED_clean_linker_0, # of connection points: 2
#     Edge 24, Type (0, 1), BuildingBlock: XIVTED_clean_linker_0, # of connection points: 2
#     Edge 25, Type (0, 1), BuildingBlock: XIVTED_clean_linker_0, # of connection points: 2
#     Edge 26, Type (0, 1), BuildingBlock: XIVTED_clean_linker_0, # of connection points: 2
#     Edge 27, Type (0, 1), BuildingBlock: XIVTED_clean_linker_0, # of connection points: 2
#     Edge 28, Type (0, 1), BuildingBlock: XIVTED_clean_linker_0, # of connection points: 2
#     Edge 29, Type (0, 1), BuildingBlock: XIVTED_clean_linker_0, # of connection points: 2
#     Edge 30, Type (0, 1), BuildingBlock: XIVTED_clean_linker_0, # of connection points: 2
#     Edge 31, Type (0, 1), BuildingBlock: XIVTED_clean_linker_0, # of connection points: 2
#     Edge 32, Type (0, 1), BuildingBlock: XIVTED_clean_linker_0, # of connection points: 2
#     Edge 33, Type (0, 1), BuildingBlock: XIVTED_clean_linker_0, # of connection points: 2
#     Edge 34, Type (0, 1), BuildingBlock: XIVTED_clean_linker_0, # of connection points: 2
#     Edge 35, Type (0, 1), BuildingBlock: XIVTED_clean_linker_0, # of connection points: 2
#     Edge 36, Type (0, 1), BuildingBlock: XIVTED_clean_linker_0, # of connection points: 2
#     Edge 37, Type (0, 1), BuildingBlock: XIVTED_clean_linker_0, # of connection points: 2
#     Edge 38, Type (0, 1), BuildingBlock: XIVTED_clean_linker_0, # of connection points: 2
#     Edge 39, Type (0, 1), BuildingBlock: XIVTED_clean_linker_0, # of connection points: 2
#     Edge 40, Type (0, 1), BuildingBlock: XIVTED_clean_linker_0, # of connection points: 2
#     Edge 41, Type (0, 1), BuildingBlock: XIVTED_clean_linker_0, # of connection points: 2
#     Edge 42, Type (0, 1), BuildingBlock: XIVTED_clean_linker_0, # of connection points: 2
#     Edge 43, Type (0, 1), BuildingBlock: XIVTED_clean_linker_0, # of connection points: 2
#     Edge 44, Type (0, 1), BuildingBlock: XIVTED_clean_linker_0, # of connection points: 2
#     Edge 45, Type (0, 1), BuildingBlock: XIVTED_clean_linker_0, # of connection points: 2
#     Edge 46, Type (0, 1), BuildingBlock: XIVTED_clean_linker_0, # of connection points: 2
#     Edge 47, Type (0, 1), BuildingBlock: XIVTED_clean_linker_0, # of connection points: 2
#     Edge 48, Type (0, 1), BuildingBlock: XIVTED_clean_linker_0, # of connection points: 2
#     Edge 49, Type (0, 1), BuildingBlock: XIVTED_clean_linker_0, # of connection points: 2
#     Edge 50, Type (0, 1), BuildingBlock: XIVTED_clean_linker_0, # of connection points: 2
#     Edge 51, Type (0, 1), BuildingBlock: XIVTED_clean_linker_0, # of connection points: 2
#     Edge 52, Type (0, 1), BuildingBlock: XIVTED_clean_linker_0, # of connection points: 2
#     Edge 53, Type (0, 1), BuildingBlock: XIVTED_clean_linker_0, # of connection points: 2
#     Edge 54, Type (0, 1), BuildingBlock: XIVTED_clean_linker_0, # of connection points: 2
#     Edge 55, Type (0, 1), BuildingBlock: XIVTED_clean_linker_0, # of connection points: 2
#     Edge 56, Type (0, 1), BuildingBlock: XIVTED_clean_linker_0, # of connection points: 2
#     Edge 57, Type (0, 1), BuildingBlock: XIVTED_clean_linker_0, # of connection points: 2
#     Edge 58, Type (0, 1), BuildingBlock: XIVTED_clean_linker_0, # of connection points: 2
#     Edge 59, Type (0, 1), BuildingBlock: XIVTED_clean_linker_0, # of connection points: 2
#     Edge 60, Type (0, 1), BuildingBlock: XIVTED_clean_linker_0, # of connection points: 2
#     Edge 61, Type (0, 1), BuildingBlock: XIVTED_clean_linker_0, # of connection points: 2
# Relax obj value: 0.090
# Max RMSD: 0.257
# Mean RMSD: 0.149
data_MOF--net-ocu--node1-BETDEL_clean_sbu_0--node2-TAGTUT_clean_sbu_1--edge1-XIVTED_clean_linker_0
_symmetry_space_group_name_H-M    P1
_symmetry_Int_Tables_number       1
_symmetry_cell_setting            triclinic
loop_
_symmetry_equiv_pos_as_xyz
'x, y, z'
_cell_length_a     38.4589
_cell_length_b     37.291745
_cell_length_c     38.943111
_cell_angle_alpha  91.761094
_cell_angle_beta   93.940449
_cell_angle_gamma 107.18538
loop_
_atom_site_label
_atom_site_type_symbol
_atom_site_fract_x
_atom_site_fract_y
_atom_site_fract_z
_atom_type_partial_charge
Dy0 Dy 0.28039 0.24579 0.26968 0.0
C1 C 0.18276 0.2779 0.17309 0.0
C2 C 0.31799 0.21132 0.3118 0.0
Dy3 Dy 0.22344 0.2462 0.21491 0.0
O4 O 0.33052 0.24594 0.30311 0.0
O5 O 0.28448 0.19687 0.29922 0.0
O6 O 0.31544 0.30322 0.25806 0.0
O7 O 0.28274 0.26706 0.21822 0.0
C8 C 0.304 0.29981 0.22549 0.0
C9 C 0.20074 0.19249 0.25984 0.0
O10 O 0.25105 0.21309 0.18251 0.0
O11 O 0.28702 0.20342 0.22919 0.0
O12 O 0.17195 0.24337 0.1823 0.0
O13 O 0.21629 0.29385 0.18496 0.0
O14 O 0.19039 0.18789 0.22703 0.0
O15 O 0.22103 0.22568 0.26658 0.0
O16 O 0.2539 0.28024 0.30167 0.0
O17 O 0.21754 0.28934 0.255 0.0
C18 C 0.27512 0.19712 0.19603 0.0
C19 C 0.2299 0.2962 0.28803 0.0
Dy20 Dy 0.7867 0.23363 0.25491 0.0
C21 C 0.66923 0.28949 0.20061 0.0
C22 C 0.83894 0.2072 0.28612 0.0
Dy23 Dy 0.72288 0.26517 0.23205 0.0
O24 O 0.81148 0.18742 0.26563 0.0
O25 O 0.83759 0.24146 0.29022 0.0
O26 O 0.79212 0.2171 0.20006 0.0
O27 O 0.74133 0.21828 0.21538 0.0
C28 C 0.75876 0.21511 0.18984 0.0
C29 C 0.75067 0.28353 0.29718 0.0
O30 O 0.69194 0.2106 0.25163 0.0
O31 O 0.74093 0.20202 0.28538 0.0
O32 O 0.69381 0.30861 0.2241 0.0
O33 O 0.6743 0.25721 0.19365 0.0
O34 O 0.71712 0.28095 0.28702 0.0
O35 O 0.76817 0.28052 0.27162 0.0
O36 O 0.81835 0.28751 0.23457 0.0
O37 O 0.76921 0.29992 0.20406 0.0
C38 C 0.70547 0.1936 0.27613 0.0
C39 C 0.8048 0.30685 0.21214 0.0
Dy40 Dy 0.72759 0.73977 0.27041 0.0
C41 C 0.81703 0.7372 0.15742 0.0
C42 C 0.68759 0.74975 0.32287 0.0
Dy43 Dy 0.77912 0.74851 0.21113 0.0
O44 O 0.67437 0.73887 0.29141 0.0
O45 O 0.7225 0.75462 0.32573 0.0
O46 O 0.70738 0.67678 0.26105 0.0
O47 O 0.72616 0.71143 0.22077 0.0
C48 C 0.71738 0.67807 0.22983 0.0
C49 C 0.78994 0.81013 0.25233 0.0
O50 O 0.73425 0.76828 0.18522 0.0
O51 O 0.70884 0.77978 0.23532 0.0
O52 O 0.83167 0.75087 0.18792 0.0
O53 O 0.78186 0.73023 0.15621 0.0
O54 O 0.79942 0.81153 0.22088 0.0
O55 O 0.78082 0.7766 0.26096 0.0
O56 O 0.77295 0.72109 0.29668 0.0
O57 O 0.79858 0.70936 0.24673 0.0
C58 C 0.71198 0.78297 0.20154 0.0
C59 C 0.79539 0.70643 0.28054 0.0
Dy60 Dy 0.27426 0.71753 0.24816 0.0
C61 C 0.19586 0.82707 0.2508 0.0
C62 C 0.31056 0.66684 0.2348 0.0
Dy63 Dy 0.23278 0.77696 0.23725 0.0
O64 O 0.32478 0.69889 0.25195 0.0
O65 O 0.27622 0.66208 0.22641 0.0
O66 O 0.27882 0.72881 0.30575 0.0
O67 O 0.27691 0.77128 0.27218 0.0
C68 C 0.27615 0.76269 0.30313 0.0
C69 C 0.23056 0.73128 0.18246 0.0
O70 O 0.2873 0.81019 0.22327 0.0
O71 O 0.30906 0.75898 0.21428 0.0
O72 O 0.18176 0.79468 0.23421 0.0
O73 O 0.23047 0.83258 0.25835 0.0
O74 O 0.22792 0.76516 0.17963 0.0
O75 O 0.22999 0.72317 0.2135 0.0
O76 O 0.21966 0.68433 0.26205 0.0
O77 O 0.19815 0.73565 0.27129 0.0
C78 C 0.3119 0.79516 0.21217 0.0
C79 C 0.19513 0.69942 0.27323 0.0
Dy80 Dy 0.28759 0.7306 0.7533 0.0
C81 C 0.16904 0.78594 0.70064 0.0
C82 C 0.34141 0.70684 0.78514 0.0
Dy83 Dy 0.22286 0.7616 0.73175 0.0
O84 O 0.31724 0.68762 0.76134 0.0
O85 O 0.33585 0.7389 0.79208 0.0
O86 O 0.29439 0.71719 0.69809 0.0
O87 O 0.24285 0.71642 0.71313 0.0
C88 C 0.26096 0.71485 0.68765 0.0
C89 C 0.2497 0.77723 0.79738 0.0
O90 O 0.19189 0.70653 0.75045 0.0
O91 O 0.24126 0.69348 0.77985 0.0
O92 O 0.17244 0.75259 0.69561 0.0
O93 O 0.19534 0.80609 0.72214 0.0
O94 O 0.21631 0.77512 0.78705 0.0
O95 O 0.26758 0.77578 0.77175 0.0
O96 O 0.31854 0.78556 0.73444 0.0
O97 O 0.26908 0.798 0.70456 0.0
C98 C 0.20564 0.68645 0.77193 0.0
C99 C 0.30471 0.80529 0.71266 0.0
Dy100 Dy 0.23081 0.24534 0.77107 0.0
C101 C 0.3219 0.24658 0.65917 0.0
C102 C 0.19057 0.25261 0.82427 0.0
Dy103 Dy 0.28434 0.25705 0.71337 0.0
O104 O 0.17761 0.24434 0.79238 0.0
O105 O 0.22523 0.25632 0.82706 0.0
O106 O 0.20949 0.18301 0.75573 0.0
O107 O 0.22958 0.22237 0.71953 0.0
C108 C 0.21871 0.18793 0.72432 0.0
C109 C 0.2946 0.31645 0.75684 0.0
O110 O 0.24089 0.2792 0.68796 0.0
O111 O 0.21366 0.28793 0.73786 0.0
O112 O 0.33702 0.26266 0.68882 0.0
O113 O 0.28671 0.23668 0.65932 0.0
O114 O 0.30474 0.31943 0.72559 0.0
O115 O 0.28492 0.28241 0.76424 0.0
O116 O 0.27434 0.22366 0.79686 0.0
O117 O 0.3025 0.21576 0.74747 0.0
C118 C 0.21797 0.29292 0.70438 0.0
C119 C 0.29774 0.21044 0.78079 0.0
Dy120 Dy 0.76971 0.21666 0.74172 0.0
C121 C 0.69486 0.32907 0.75194 0.0
C122 C 0.80429 0.16551 0.72472 0.0
Dy123 Dy 0.72911 0.27769 0.73468 0.0
O124 O 0.81932 0.1965 0.74329 0.0
O125 O 0.7701 0.16198 0.71681 0.0
O126 O 0.77668 0.22696 0.79957 0.0
O127 O 0.77405 0.27009 0.76713 0.0
C128 C 0.77455 0.26115 0.79793 0.0
C129 C 0.72487 0.23363 0.6784 0.0
O130 O 0.78341 0.31046 0.71957 0.0
O131 O 0.80409 0.25891 0.70829 0.0
O132 O 0.67943 0.29772 0.734 0.0
O133 O 0.72922 0.33281 0.75896 0.0
O134 O 0.72257 0.26776 0.67678 0.0
O135 O 0.72495 0.22448 0.70914 0.0
O136 O 0.71555 0.18375 0.75666 0.0
O137 O 0.69485 0.23522 0.76828 0.0
C138 C 0.8074 0.29529 0.70728 0.0
C139 C 0.69161 0.19882 0.76914 0.0
Dy140 Dy 0.78384 0.74288 0.77117 0.0
C141 C 0.69312 0.78961 0.67129 0.0
C142 C 0.82461 0.7084 0.80977 0.0
Dy143 Dy 0.72487 0.75066 0.71378 0.0
O144 O 0.83541 0.74352 0.80238 0.0
O145 O 0.79094 0.69309 0.79791 0.0
O146 O 0.82007 0.80055 0.76014 0.0
O147 O 0.78405 0.76716 0.72124 0.0
C148 C 0.80663 0.79909 0.72831 0.0
C149 C 0.69315 0.70047 0.75932 0.0
O150 O 0.75131 0.71569 0.6821 0.0
O151 O 0.78791 0.70247 0.72751 0.0
O152 O 0.68353 0.75298 0.67118 0.0
O153 O 0.72116 0.80443 0.69318 0.0
O154 O 0.6754 0.70731 0.73187 0.0
O155 O 0.72617 0.71922 0.75857 0.0
O156 O 0.75308 0.7722 0.80392 0.0
O157 O 0.72299 0.79152 0.75737 0.0
C158 C 0.77469 0.69808 0.69453 0.0
C159 C 0.73162 0.79165 0.79108 0.0
C160 C 0.93609 0.08373 0.54271 0.0
C161 C 0.973 0.08467 0.43853 0.0
C162 C 0.93232 0.936 0.44495 0.0
Mg163 Mg 0.00725 0.08137 0.51119 0.0
O164 O 0.98149 0.02998 0.51118 0.0
Mg165 Mg 0.93165 0.01199 0.48609 0.0
Mg166 Mg 1.00224 0.99218 0.49129 0.0
O167 O 0.02251 0.954 0.47134 0.0
Mg168 Mg 0.99635 0.90263 0.47147 0.0
Mg169 Mg 0.0725 0.97178 0.49556 0.0
C170 C 0.0724 0.04876 0.53608 0.0
C171 C 0.06545 0.03327 0.44024 0.0
O172 O 0.91812 0.05527 0.52266 0.0
O173 O 0.97081 0.09819 0.54305 0.0
O174 O 0.94765 0.0554 0.44517 0.0
O175 O 1.00051 0.09962 0.45993 0.0
O176 O 0.06018 0.0771 0.53198 0.0
O177 O 0.05338 0.01501 0.52692 0.0
C178 C 0.9379 0.94943 0.54056 0.0
O179 O 0.97065 0.953 0.53253 0.0
O180 O 0.9186 0.96836 0.52626 0.0
O181 O 0.08526 0.92792 0.45931 0.0
O182 O 0.03229 0.88524 0.43937 0.0
O183 O 0.05669 0.92928 0.5372 0.0
C184 C 0.06699 0.89952 0.43935 0.0
O185 O 1.00348 0.88516 0.52315 0.0
O186 O 0.94384 0.90724 0.44941 0.0
C187 C 0.0312 0.90034 0.54431 0.0
O188 O 0.95153 0.96938 0.45518 0.0
O189 O 0.03378 0.03158 0.45017 0.0
O190 O 0.08456 0.01367 0.45366 0.0
C191 C 0.41571 0.07448 0.04256 0.0
C192 C 0.43651 0.07483 0.93621 0.0
C193 C 0.44071 0.92393 0.96044 0.0
Mg194 Mg 0.48685 0.0825 0.00559 0.0
O195 O 0.47421 0.03045 0.00715 0.0
Mg196 Mg 0.42312 0.00134 0.99017 0.0
Mg197 Mg 0.50424 0.99684 -0.00785 0.0
O198 O 0.53413 0.96315 0.97712 0.0
Mg199 Mg 0.52114 0.91114 0.97924 0.0
Mg200 Mg 0.58526 0.99202 -0.00599 0.0
C201 C 0.56753 0.06965 0.02448 0.0
C202 C 0.55476 0.03715 0.93344 0.0
O203 O 0.40125 0.04338 0.02437 0.0
O204 O 0.44967 0.09282 0.04194 0.0
O205 O 0.4202 0.04053 0.94285 0.0
O206 O 0.46412 0.09485 0.9557 0.0
O207 O 0.54571 0.08995 0.01946 0.0
O208 O 0.55664 0.03338 0.02142 0.0
C209 C 0.45381 0.95665 0.05092 0.0
O210 O 0.48508 0.96318 0.03884 0.0
O211 O 0.42795 0.96778 0.03694 0.0
O212 O 0.60671 0.94937 0.95976 0.0
O213 O 0.55782 0.90008 0.94294 0.0
O214 O 0.58827 0.95292 0.04128 0.0
C215 C 0.59181 0.91806 0.94196 0.0
O216 O 0.54392 0.89882 0.02901 0.0
O217 O 0.46235 0.9035 0.96566 0.0
C218 C 0.57182 0.91875 0.04816 0.0
O219 O 0.45188 0.9602 0.963 0.0
O220 O 0.52349 0.03061 0.94555 0.0
O221 O 0.58052 0.02579 0.94733 0.0
C222 C 0.94118 0.60228 0.00871 0.0
C223 C 0.96724 0.56383 0.91221 0.0
C224 C 0.93052 0.42658 0.96598 0.0
Mg225 Mg 0.00894 0.58469 0.98327 0.0
O226 O 0.98469 0.53751 -0.00161 0.0
Mg227 Mg 0.93307 0.51354 0.97914 0.0
Mg228 Mg 0.00442 0.49464 0.99062 0.0
O229 O 0.02393 0.45171 0.98288 0.0
Mg230 Mg 0.99928 0.40488 -0.00152 0.0
Mg231 Mg 0.07557 0.47525 0.00201 0.0
C232 C 0.07802 0.56268 0.01562 0.0
C233 C 0.06158 0.51389 0.93101 0.0
O234 O 0.92222 0.56842 -0.00094 0.0
O235 O 0.97579 0.61447 0.00658 0.0
O236 O 0.94306 0.53892 0.92657 0.0
O237 O 0.99672 0.58346 0.92893 0.0
O238 O 0.06384 0.58729 0.00338 0.0
O239 O 0.05921 0.52818 0.0182 0.0
C240 C 0.94749 0.47561 0.05031 0.0
O241 O 0.97825 0.47349 0.04088 0.0
O242 O 0.92668 0.48941 0.03131 0.0
O243 O 0.0857 0.41991 0.98175 0.0
O244 O 0.03156 0.37455 0.97509 0.0
O245 O 0.06577 0.44957 0.05459 0.0
C246 C 0.06608 0.38615 0.97242 0.0
O247 O 0.01173 0.4057 0.05266 0.0
O248 O 0.94441 0.40194 0.97854 0.0
C249 C 0.04158 0.4248 0.0691 0.0
O250 O 0.94963 0.46092 0.96319 0.0
O251 O 0.03076 0.51598 0.94035 0.0
O252 O 0.08216 0.49976 0.94995 0.0
C253 C 0.43864 0.58893 0.04861 0.0
C254 C 0.47708 0.59347 0.94459 0.0
C255 C 0.43478 0.44436 0.94732 0.0
Mg256 Mg 0.51013 0.58745 0.01718 0.0
O257 O 0.48372 0.536 0.01566 0.0
Mg258 Mg 0.43427 0.51923 0.98979 0.0
Mg259 Mg 0.50443 0.49876 -0.00527 0.0
O260 O 0.52503 0.46147 0.97371 0.0
Mg261 Mg 0.49845 0.41013 0.97261 0.0
Mg262 Mg 0.57457 0.47809 -0.00082 0.0
C263 C 0.57418 0.55318 0.04182 0.0
C264 C 0.5698 0.54334 0.94724 0.0
O265 O 0.42072 0.56129 0.02763 0.0
O266 O 0.4734 0.60331 0.04938 0.0
O267 O 0.45145 0.5641 0.95042 0.0
O268 O 0.50439 0.60768 0.96641 0.0
O269 O 0.56264 0.58204 0.03833 0.0
O270 O 0.5548 0.51988 0.03155 0.0
C271 C 0.43877 0.45405 0.04182 0.0
O272 O 0.47169 0.45783 0.03422 0.0
O273 O 0.41993 0.47381 0.0282 0.0
O274 O 0.58776 0.43568 0.96115 0.0
O275 O 0.53469 0.3935 0.94054 0.0
O276 O 0.55758 0.43335 0.03874 0.0
C277 C 0.56941 0.40772 0.94069 0.0
O278 O 0.50416 0.39023 0.02341 0.0
O279 O 0.44618 0.41545 0.95111 0.0
C280 C 0.53179 0.40427 0.04492 0.0
O281 O 0.4542 0.4776 0.95771 0.0
O282 O 0.5371 0.53975 0.95541 0.0
O283 O 0.5886 0.52332 0.96048 0.0
C284 C 0.91673 0.57776 0.54236 0.0
C285 C 0.93628 0.57381 0.4363 0.0
C286 C 0.94166 0.4251 0.46313 0.0
Mg287 Mg 0.9875 0.58446 0.50462 0.0
O288 O 0.9751 0.5326 0.50921 0.0
Mg289 Mg 0.92405 0.50248 0.4931 0.0
Mg290 Mg 0.00498 0.49913 0.49357 0.0
O291 O 0.03493 0.46579 0.47805 0.0
Mg292 Mg 0.02285 0.41388 0.48087 0.0
Mg293 Mg 0.08606 0.49567 0.49386 0.0
C294 C 0.06847 0.57306 0.52374 0.0
C295 C 0.05306 0.53862 0.43321 0.0
O296 O 0.90293 0.54474 0.52733 0.0
O297 O 0.9498 0.5975 0.539 0.0
O298 O 0.91952 0.54044 0.44511 0.0
O299 O 0.96509 0.59413 0.45398 0.0
O300 O 0.04659 0.59324 0.51845 0.0
O301 O 0.05758 0.53679 0.5213 0.0
C302 C 0.95675 0.45937 0.55373 0.0
O303 O 0.9877 0.46609 0.54101 0.0
O304 O 0.93034 0.46988 0.54012 0.0
O305 O 0.10752 0.45331 0.45974 0.0
O306 O 0.05922 0.40302 0.44406 0.0
O307 O 0.09063 0.4578 0.5417 0.0
C308 C 0.09292 0.4217 0.44238 0.0
O309 O 0.04673 0.40312 0.53071 0.0
O310 O 0.96372 0.40507 0.46804 0.0
C311 C 0.07469 0.42377 0.54934 0.0
O312 O 0.95244 0.46138 0.46567 0.0
O313 O 0.02222 0.53204 0.44613 0.0
O314 O 0.07953 0.5281 0.4467 0.0
C315 C 0.44097 0.1066 0.5122 0.0
C316 C 0.45935 0.06384 0.41455 0.0
C317 C 0.42585 0.92945 0.46928 0.0
Mg318 Mg 0.50542 0.08611 0.48279 0.0
O319 O 0.48201 0.04052 0.50179 0.0
Mg320 Mg 0.4296 0.01665 0.48461 0.0
Mg321 Mg 0.50062 -0.00239 0.4908 0.0
O322 O 0.51945 0.95503 0.47893 0.0
Mg323 Mg 0.49695 0.90782 0.49512 0.0
Mg324 Mg 0.57231 0.979 0.49395 0.0
C325 C 0.57598 0.06543 0.51124 0.0
C326 C 0.55139 0.01979 0.42708 0.0
O327 O 0.42103 0.07242 0.50524 0.0
O328 O 0.47488 0.11808 0.50674 0.0
O329 O 0.43583 0.04095 0.4313 0.0
O330 O 0.4905 0.08249 0.42876 0.0
O331 O 0.56121 0.08991 0.49985 0.0
O332 O 0.55735 0.03103 0.51449 0.0
C333 C 0.44853 0.97777 0.55401 0.0
O334 O 0.47822 0.97517 0.54225 0.0
O335 O 0.427 0.99254 0.53704 0.0
O336 O 0.58122 0.9243 0.47125 0.0
O337 O 0.52781 0.87792 0.46847 0.0
O338 O 0.56745 0.95315 0.54651 0.0
C339 C 0.56172 0.89023 0.46314 0.0
O340 O 0.51379 0.90947 0.54856 0.0
O341 O 0.44072 0.90457 0.47956 0.0
C342 C 0.54475 0.92884 0.56281 0.0
O343 O 0.44451 0.96395 0.46661 0.0
O344 O 0.52212 0.02093 0.44029 0.0
O345 O 0.57402 0.00482 0.44187 0.0
H346 H 0.19124 0.21442 0.3254 0.0
H347 H 0.09567 0.01125 0.38587 0.0
H348 H 0.16213 0.11762 0.25396 0.0
H349 H 0.07027 0.10742 0.42906 0.0
H350 H 0.1265 0.0498 0.34075 0.0
H351 H 0.15428 0.17611 0.36763 0.0
C352 C 0.17728 0.18503 0.31867 0.0
C353 C 0.17987 0.16909 0.28612 0.0
C354 C 0.1139 0.06243 0.35987 0.0
C355 C 0.13778 0.12517 0.33447 0.0
C356 C 0.09634 0.0405 0.38563 0.0
C357 C 0.08029 0.05617 0.41115 0.0
C358 C 0.11652 0.10074 0.36008 0.0
C359 C 0.08203 0.09422 0.40969 0.0
C360 C 0.15595 0.16333 0.34268 0.0
C361 C 0.16091 0.13097 0.27874 0.0
N362 N 0.10038 0.11543 0.38487 0.0
N363 N 0.14101 0.11021 0.30284 0.0
H364 H 0.89659 0.24374 0.33203 0.0
H365 H 0.93582 0.05322 0.37781 0.0
H366 H 0.84519 0.13707 0.27677 0.0
H367 H 0.99499 0.16019 0.42913 0.0
H368 H 0.91125 0.08579 0.3335 0.0
H369 H 0.9401 0.21627 0.36185 0.0
C370 C 0.89474 0.21465 0.326 0.0
C371 C 0.86704 0.19237 0.30244 0.0
C372 C 0.93015 0.10231 0.35404 0.0
C373 C 0.91648 0.1609 0.33609 0.0
C374 C 0.9443 0.08368 0.37925 0.0
C375 C 0.96689 0.10408 0.40741 0.0
C376 C 0.93804 0.14157 0.35743 0.0
C377 C 0.97741 0.14346 0.4079 0.0
C378 C 0.91961 0.19903 0.34286 0.0
C379 C 0.86589 0.15502 0.29518 0.0
N380 N 0.96217 0.16098 0.38369 0.0
N381 N 0.89001 0.14035 0.31221 0.0
H382 H 0.8429 0.87772 0.25069 0.0
H383 H 0.91877 0.98357 0.39769 0.0
H384 H 0.75727 0.81612 0.31057 0.0
H385 H 0.8708 0.87618 0.43992 0.0
H386 H 0.87278 0.9655 0.34841 0.0
H387 H 0.86739 0.92244 0.30008 0.0
C388 C 0.82864 0.87426 0.27397 0.0
C389 C 0.79902 0.84237 0.27743 0.0
C390 C 0.87186 0.94635 0.36891 0.0
C391 C 0.82641 0.8931 0.33363 0.0
C392 C 0.89775 0.95674 0.39718 0.0
C393 C 0.89891 0.93081 0.4223 0.0
C394 C 0.84703 0.91006 0.3663 0.0
C395 C 0.87117 0.89654 0.42061 0.0
C396 C 0.84243 0.89991 0.30211 0.0
C397 C 0.78125 0.83926 0.30781 0.0
N398 N 0.84656 0.88692 0.39274 0.0
N399 N 0.7958 0.86364 0.3352 0.0
H400 H 0.22176 0.8904 0.29263 0.0
H401 H 0.03754 0.84502 0.38778 0.0
H402 H 0.12211 0.80587 0.25455 0.0
H403 H 0.13885 0.92712 0.42645 0.0
H404 H 0.06672 0.83278 0.3369 0.0
H405 H 0.18928 0.90972 0.33793 0.0
C406 C 0.19275 0.87666 0.29324 0.0
C407 C 0.17459 0.84628 0.27017 0.0
C408 C 0.08255 0.85339 0.35659 0.0
C409 C 0.1376 0.8673 0.32243 0.0
C410 C 0.06604 0.86012 0.38586 0.0
C411 C 0.08574 0.88716 0.41152 0.0
C412 C 0.11902 0.87383 0.35294 0.0
C413 C 0.12254 0.90598 0.40743 0.0
C414 C 0.17432 0.88736 0.31935 0.0
C415 C 0.13708 0.82935 0.27201 0.0
N416 N 0.13792 0.89904 0.37863 0.0
N417 N 0.11989 0.83969 0.29817 0.0
H418 H 0.11308 0.74757 0.65394 0.0
H419 H 0.06648 0.93345 0.60517 0.0
H420 H 0.15938 0.8548 0.7097 0.0
H421 H 0.01126 0.82503 0.55461 0.0
H422 H 0.09184 0.90268 0.65053 0.0
H423 H 0.06838 0.77268 0.62317 0.0
C424 C 0.11356 0.7763 0.65989 0.0
C425 C 0.14019 0.79942 0.6839 0.0
C426 C 0.0736 0.88543 0.62994 0.0
C427 C 0.08935 0.82825 0.64906 0.0
C428 C 0.05899 0.90302 0.60414 0.0
C429 C 0.03731 0.88172 0.57592 0.0
C430 C 0.0671 0.84632 0.62706 0.0
C431 C 0.02808 0.84243 0.5759 0.0
C432 C 0.08799 0.79056 0.64248 0.0
C433 C 0.13954 0.83625 0.691 0.0
N434 N 0.04378 0.82596 0.60069 0.0
N435 N 0.11479 0.84966 0.67336 0.0
H436 H 0.19072 0.11081 0.72647 0.0
H437 H 0.13632 0.10106 0.52646 0.0
H438 H 0.22212 0.20028 0.65677 0.0
H439 H 0.08673 0.01288 0.59253 0.0
H440 H 0.186 0.12656 0.57106 0.0
H441 H 0.16759 0.06601 0.67626 0.0
C442 C 0.19367 0.12083 0.7007 0.0
C443 C 0.20868 0.15923 0.69567 0.0
C444 C 0.16477 0.10109 0.57566 0.0
C445 C 0.18311 0.10866 0.6387 0.0
C446 C 0.13664 0.08646 0.55006 0.0
C447 C 0.10736 0.05548 0.55636 0.0
C448 C 0.16252 0.08554 0.60821 0.0
C449 C 0.10889 0.03719 0.5871 0.0
C450 C 0.18073 0.09534 0.67216 0.0
C451 C 0.21187 0.17091 0.66191 0.0
N452 N 0.13547 0.05327 0.61255 0.0
N453 N 0.19901 0.14585 0.63486 0.0
H454 H 0.77654 0.10408 0.68082 0.0
H455 H 0.96486 0.1385 0.59411 0.0
H456 H 0.87812 0.18254 0.72326 0.0
H457 H 0.86354 0.05758 0.55373 0.0
H458 H 0.93417 0.15322 0.64294 0.0
H459 H 0.80931 0.08223 0.63721 0.0
C460 C 0.80593 0.11599 0.68147 0.0
C461 C 0.82471 0.14531 0.70537 0.0
C462 C 0.91866 0.13228 0.62336 0.0
C463 C 0.86215 0.12136 0.6551 0.0
C464 C 0.93607 0.1241 0.59526 0.0
C465 C 0.91677 0.09675 0.56968 0.0
C466 C 0.88166 0.11305 0.62592 0.0
C467 C 0.87955 0.07892 0.57274 0.0
C468 C 0.82457 0.10381 0.65636 0.0
C469 C 0.86269 0.1599 0.70514 0.0
N470 N 0.86325 0.08734 0.60039 0.0
N471 N 0.88016 0.14815 0.67997 0.0
H472 H 0.78233 0.79919 0.66105 0.0
H473 H 0.97091 0.92855 0.59898 0.0
H474 H 0.87499 0.8511 0.73338 0.0
H475 H 0.86608 0.91229 0.54324 0.0
H476 H 0.93952 0.89215 0.64577 0.0
H477 H 0.81561 0.83343 0.61501 0.0
C478 C 0.80955 0.81816 0.66732 0.0
C479 C 0.82568 0.82266 0.70121 0.0
C480 C 0.92355 0.8965 0.62315 0.0
C481 C 0.86453 0.86124 0.64826 0.0
C482 C 0.94144 0.91692 0.59636 0.0
C483 C 0.92106 0.92366 0.56726 0.0
C484 C 0.88517 0.88216 0.62036 0.0
C485 C 0.8829 0.90809 0.5653 0.0
C486 C 0.82865 0.83756 0.64097 0.0
C487 C 0.86135 0.84717 0.70768 0.0
N488 N 0.86631 0.88813 0.59134 0.0
N489 N 0.87971 0.86537 0.68141 0.0
H490 H 0.33787 0.17857 0.21189 0.0
H491 H 0.3408 0.06251 0.0364 0.0
H492 H 0.25475 0.16716 0.12857 0.0
H493 H 0.43811 0.12246 0.10005 0.0
H494 H 0.3048 0.09071 0.07297 0.0
H495 H 0.37031 0.14779 0.17484 0.0
C496 C 0.32609 0.1693 0.18589 0.0
C497 C 0.29327 0.17569 0.17355 0.0
C498 C 0.33403 0.09759 0.07887 0.0
C499 C 0.3308 0.13976 0.13061 0.0
C500 C 0.35461 0.08134 0.05813 0.0
C501 C 0.39273 0.09004 0.065 0.0
C502 C 0.35144 0.12207 0.10728 0.0
C503 C 0.40895 0.11492 0.0935 0.0
C504 C 0.3449 0.15183 0.16462 0.0
C505 C 0.27988 0.16299 0.13933 0.0
N506 N 0.38831 0.12969 0.11358 0.0
N507 N 0.29855 0.14551 0.11916 0.0
H508 H 0.87817 0.31914 0.20763 0.0
H509 H 0.89088 0.48691 0.08268 0.0
H510 H 0.78955 0.3639 0.17825 0.0
H511 H 0.97245 0.42866 0.09225 0.0
H512 H 0.86055 0.45195 0.12924 0.0
H513 H 0.91885 0.36765 0.1757 0.0
C514 C 0.86736 0.33937 0.19476 0.0
C515 C 0.83032 0.33721 0.19513 0.0
C516 C 0.88525 0.44693 0.12135 0.0
C517 C 0.87662 0.39269 0.15905 0.0
C518 C 0.90266 0.46691 0.09473 0.0
C519 C 0.93363 0.45969 0.08267 0.0
C520 C 0.89869 0.41929 0.13596 0.0
C521 C 0.94815 0.43431 0.10005 0.0
C522 C 0.89058 0.36699 0.1766 0.0
C523 C 0.81777 0.36415 0.17818 0.0
N524 N 0.93016 0.41442 0.1255 0.0
N525 N 0.84085 0.39065 0.16069 0.0
H526 H 0.68978 0.84395 0.22249 0.0
H527 H 0.56168 0.84312 0.05245 0.0
H528 H 0.68414 0.76994 0.13376 0.0
H529 H 0.62278 0.94914 0.1043 0.0
H530 H 0.59502 0.81121 0.09027 0.0
H531 H 0.65517 0.87822 0.18761 0.0
C532 C 0.68111 0.83469 0.1958 0.0
C533 C 0.69009 0.80386 0.18117 0.0
C534 C 0.6009 0.84141 0.09365 0.0
C535 C 0.6496 0.84266 0.14123 0.0
C536 C 0.58158 0.85982 0.0722 0.0
C537 C 0.58903 0.89922 0.07495 0.0
C538 C 0.6276 0.86203 0.11906 0.0
C539 C 0.6158 0.91885 0.10105 0.0
C540 C 0.66151 0.85444 0.17587 0.0
C541 C 0.67814 0.79351 0.14627 0.0
N542 N 0.63386 0.90012 0.12215 0.0
N543 N 0.65829 0.81243 0.12779 0.0
H544 H 0.21732 0.65585 0.18687 0.0
H545 H 0.1327 0.62034 -0.00526 0.0
H546 H 0.22713 0.74159 0.1132 0.0
H547 H 0.10892 0.53817 0.07212 0.0
H548 H 0.18554 0.65789 0.0316 0.0
H549 H 0.19582 0.60772 0.14014 0.0
C550 C 0.21587 0.66457 0.16071 0.0
C551 C 0.22352 0.70272 0.15385 0.0
C552 C 0.1694 0.63118 0.0402 0.0
C553 C 0.19814 0.64773 0.10034 0.0
C554 C 0.13934 0.60963 0.0191 0.0
C555 C 0.11588 0.57679 0.031 0.0
C556 C 0.17557 0.61999 0.07355 0.0
C557 C 0.12603 0.56371 0.06231 0.0
C558 C 0.20343 0.63703 0.13404 0.0
C559 C 0.22089 0.71242 0.11956 0.0
N560 N 0.15463 0.58596 0.08305 0.0
N561 N 0.20779 0.68504 0.09407 0.0
H562 H 0.29493 0.75296 0.84058 0.0
H563 H 0.39015 0.9512 0.92532 0.0
H564 H 0.2449 0.84152 0.82865 0.0
H565 H 0.40402 0.85081 0.96903 0.0
H566 H 0.33336 0.91275 0.89372 0.0
H567 H 0.33263 0.7881 0.89082 0.0
C568 C 0.29166 0.77964 0.849 0.0
C569 C 0.26735 0.79475 0.83065 0.0
C570 C 0.34841 0.89936 0.91096 0.0
C571 C 0.31043 0.83538 0.88735 0.0
C572 C 0.38077 0.9213 0.92901 0.0
C573 C 0.40235 0.90395 0.94891 0.0
C574 C 0.33811 0.86006 0.91274 0.0
C575 C 0.38878 0.86517 0.95307 0.0
C576 C 0.31289 0.7996 0.87773 0.0
C577 C 0.26354 0.82916 0.84245 0.0
N578 N 0.35797 0.8444 0.9345 0.0
N579 N 0.28556 0.84888 0.86973 0.0
H580 H 0.21917 0.28652 0.88692 0.0
H581 H 0.03252 0.31991 0.93552 0.0
H582 H 0.11759 0.24405 0.82369 0.0
H583 H 0.1391 0.39329 0.9723 0.0
H584 H 0.06172 0.28036 0.90443 0.0
H585 H 0.18789 0.3137 0.92855 0.0
C586 C 0.19011 0.28231 0.88217 0.0
C587 C 0.17086 0.26339 0.85181 0.0
C588 C 0.07863 0.30494 0.91958 0.0
C589 C 0.13518 0.29432 0.89904 0.0
C590 C 0.06206 0.32751 0.93741 0.0
C591 C 0.08344 0.36026 0.95621 0.0
C592 C 0.11682 0.31494 0.92086 0.0
C593 C 0.12158 0.36858 0.95777 0.0
C594 C 0.17239 0.29798 0.9058 0.0
C595 C 0.13335 0.25872 0.84676 0.0
N596 N 0.13709 0.34612 0.94016 0.0
N597 N 0.11669 0.27435 0.87009 0.0
H598 H 0.66489 0.1229 0.75984 0.0
H599 H 0.53902 0.10179 0.91671 0.0
H600 H 0.64741 0.21791 0.81435 0.0
H601 H 0.58699 0.01869 0.87938 0.0
H602 H 0.56222 0.14065 0.86833 0.0
H603 H 0.61917 0.08084 0.79196 0.0
C604 C 0.65125 0.13493 0.77848 0.0
C605 C 0.66066 0.17387 0.78525 0.0
C606 C 0.56691 0.11354 0.87046 0.0
C607 C 0.60845 0.12586 0.82218 0.0
C608 C 0.55365 0.09145 0.89783 0.0
C609 C 0.56185 0.05758 0.90201 0.0
C610 C 0.58778 0.10101 0.84723 0.0
C611 C 0.58077 0.04506 0.87716 0.0
C612 C 0.62503 0.1109 0.79668 0.0
C613 C 0.64134 0.18796 0.80887 0.0
N614 N 0.59334 0.06693 0.85095 0.0
N615 N 0.61651 0.16386 0.82708 0.0
H616 H 0.89864 0.73342 0.82396 0.0
H617 H 0.90753 0.5299 0.86752 0.0
H618 H 0.80626 0.63323 0.8171 0.0
H619 H 1.00011 0.6298 0.88264 0.0
H620 H 0.87485 0.56485 0.83308 0.0
H621 H 0.93932 0.69455 0.83447 0.0
C622 C 0.88696 0.70329 0.82508 0.0
C623 C 0.84912 0.68646 0.82032 0.0
C624 C 0.90263 0.57895 0.84329 0.0
C625 C 0.89525 0.64189 0.83118 0.0
C626 C 0.92152 0.55884 0.86262 0.0
C627 C 0.95586 0.57751 0.87945 0.0
C628 C 0.9183 0.61784 0.84103 0.0
C629 C 0.97307 0.61464 0.87122 0.0
C630 C 0.91015 0.6811 0.83053 0.0
C631 C 0.8353 0.64732 0.8212 0.0
N632 N 0.9536 0.63407 0.85354 0.0
N633 N 0.85837 0.62637 0.82666 0.0
H634 H 0.10838 0.25337 0.16011 0.0
H635 H 0.10208 0.45749 0.11321 0.0
H636 H 0.2019 0.352 0.16123 0.0
H637 H 0.00854 0.35849 0.09809 0.0
H638 H 0.13446 0.42168 0.1469 0.0
H639 H 0.06835 0.29279 0.14823 0.0
C640 C 0.12043 0.2832 0.15739 0.0
C641 C 0.1584 0.29947 0.16108 0.0
C642 C 0.10655 0.40795 0.13682 0.0
C643 C 0.1131 0.34467 0.14882 0.0
C644 C 0.08785 0.42856 0.11795 0.0
C645 C 0.05323 0.41045 0.10141 0.0
C646 C 0.09045 0.36911 0.13895 0.0
C647 C 0.03574 0.37327 0.10935 0.0
C648 C 0.09764 0.30573 0.15117 0.0
C649 C 0.17274 0.33831 0.1581 0.0
N650 N 0.05502 0.35335 0.12663 0.0
N651 N 0.15008 0.35956 0.15211 0.0
H652 H 0.13203 0.67301 0.77576 0.0
H653 H 0.11917 0.50391 0.89931 0.0
H654 H 0.22122 0.6292 0.80548 0.0
H655 H 0.03695 0.56132 0.88932 0.0
H656 H 0.15021 0.54004 0.85365 0.0
H657 H 0.09144 0.62391 0.80713 0.0
C658 C 0.143 0.65285 0.78857 0.0
C659 C 0.18018 0.65546 0.78843 0.0
C660 C 0.12521 0.5446 0.86124 0.0
C661 C 0.13392 0.5993 0.82398 0.0
C662 C 0.10738 0.52394 0.88733 0.0
C663 C 0.07595 0.53052 0.89902 0.0
C664 C 0.11172 0.57225 0.84673 0.0
C665 C 0.06152 0.55606 0.88178 0.0
C666 C 0.11982 0.6249 0.80645 0.0
C667 C 0.19289 0.62859 0.80534 0.0
N668 N 0.07988 0.57656 0.85682 0.0
N669 N 0.16982 0.60175 0.82257 0.0
H670 H 0.32211 0.1508 0.75956 0.0
H671 H 0.44587 0.15036 0.93222 0.0
H672 H 0.32326 0.222 0.84912 0.0
H673 H 0.38685 0.04443 0.87908 0.0
H674 H 0.41298 0.18212 0.89376 0.0
H675 H 0.35639 0.11648 0.79487 0.0
C676 C 0.32972 0.15944 0.78652 0.0
C677 C 0.31955 0.18949 0.80125 0.0
C678 C 0.40747 0.15198 0.89023 0.0
C679 C 0.35969 0.15067 0.84171 0.0
C680 C 0.42654 0.13366 0.91207 0.0
C681 C 0.41953 0.09431 0.90916 0.0
C682 C 0.38149 0.13135 0.86425 0.0
C683 C 0.39346 0.07467 0.88249 0.0
C684 C 0.34914 0.13965 0.8067 0.0
C685 C 0.33019 0.19904 0.83651 0.0
N686 N 0.37566 0.09333 0.86103 0.0
N687 N 0.34989 0.18017 0.85523 0.0
H688 H 0.7889 0.33677 0.79507 0.0
H689 H 0.87585 0.36866 0.98652 0.0
H690 H 0.77958 0.24936 0.86694 0.0
H691 H 0.89941 0.45192 0.91008 0.0
H692 H 0.82271 0.33173 0.94969 0.0
H693 H 0.81142 0.38392 0.84238 0.0
C694 C 0.79064 0.32746 0.82099 0.0
C695 C 0.7827 0.28912 0.82713 0.0
C696 C 0.83888 0.35854 0.94131 0.0
C697 C 0.80946 0.34304 0.88132 0.0
C698 C 0.86912 0.37973 0.96238 0.0
C699 C 0.89261 0.4127 0.9507 0.0
C700 C 0.83249 0.37026 0.90823 0.0
C701 C 0.88231 0.42626 0.91971 0.0
C702 C 0.80371 0.35447 0.84799 0.0
C703 C 0.78595 0.27869 0.86113 0.0
N704 N 0.85348 0.40439 0.89899 0.0
N705 N 0.79971 0.30557 0.88695 0.0
H706 H 0.75108 0.81683 0.85997 0.0
H707 H 0.56819 0.8716 0.88389 0.0
H708 H 0.67088 0.81382 0.776 0.0
H709 H 0.66618 0.92604 0.94891 0.0
H710 H 0.60352 0.84256 0.84826 0.0
H711 H 0.71902 0.84954 0.89701 0.0
C712 C 0.72691 0.82305 0.84925 0.0
C713 C 0.71396 0.81258 0.81458 0.0
C714 C 0.61741 0.86092 0.87026 0.0
C715 C 0.67669 0.84935 0.85711 0.0
C716 C 0.59719 0.87753 0.89074 0.0
C717 C 0.61411 0.90159 0.91952 0.0
C718 C 0.65496 0.86747 0.87877 0.0
C719 C 0.65194 0.90801 0.92687 0.0
C720 C 0.70868 0.84183 0.8704 0.0
C721 C 0.6823 0.82144 0.80233 0.0
N722 N 0.67099 0.89081 0.90689 0.0
N723 N 0.66475 0.83881 0.8235 0.0
H724 H 0.89059 0.75167 0.15503 0.0
H725 H 0.86772 0.59245 0.00845 0.0
H726 H 0.78741 0.69488 0.0986 0.0
H727 H 0.97255 0.66921 0.04551 0.0
H728 H 0.83784 0.6312 0.03968 0.0
H729 H 0.92159 0.72391 0.11354 0.0
C730 C 0.87458 0.7338 0.13357 0.0
C731 C 0.83649 0.7253 0.13022 0.0
C732 C 0.86738 0.63981 0.04065 0.0
C733 C 0.87147 0.69307 0.08315 0.0
C734 C 0.88447 0.6176 0.02293 0.0
C735 C 0.92272 0.62736 0.02467 0.0
C736 C 0.88867 0.67172 0.06064 0.0
C737 C 0.943 0.66049 0.04357 0.0
C738 C 0.89223 0.71797 0.10993 0.0
C739 C 0.81689 0.70204 0.10206 0.0
N740 N 0.92572 0.68123 0.06119 0.0
N741 N 0.83457 0.6863 0.07982 0.0
H742 H 0.35952 0.77475 0.1719 0.0
H743 H 0.42883 0.98022 0.10735 0.0
H744 H 0.3359 0.87153 0.21662 0.0
H745 H 0.46247 0.88847 0.06576 0.0
H746 H 0.40529 0.94284 0.15542 0.0
H747 H 0.40652 0.81683 0.14025 0.0
C748 C 0.36454 0.80483 0.1754 0.0
C749 C 0.34315 0.81971 0.19613 0.0
C750 C 0.4183 0.93086 0.13621 0.0
C751 C 0.39674 0.86772 0.16036 0.0
C752 C 0.43174 0.95226 0.10886 0.0
C753 C 0.44695 0.93694 0.08268 0.0
C754 C 0.41904 0.89345 0.13671 0.0
C755 C 0.4506 0.9009 0.08561 0.0
C756 C 0.39142 0.8288 0.15743 0.0
C757 C 0.35106 0.85881 0.20016 0.0
N758 N 0.43585 0.87984 0.11187 0.0
N759 N 0.37691 0.8814 0.18211 0.0
H760 H 0.71414 0.24002 0.14655 0.0
H761 H 0.61795 0.04193 0.05931 0.0
H762 H 0.76198 0.14989 0.15895 0.0
H763 H 0.60387 0.14338 0.01813 0.0
H764 H 0.67427 0.07986 0.09201 0.0
H765 H 0.67601 0.20526 0.09638 0.0
C766 C 0.71677 0.21301 0.1383 0.0
C767 C 0.74062 0.19741 0.15676 0.0
C768 C 0.65926 0.09363 0.07512 0.0
C769 C 0.6971 0.15722 0.10003 0.0
C770 C 0.62718 0.07199 0.05641 0.0
C771 C 0.60568 0.08969 0.03683 0.0
C772 C 0.66941 0.13302 0.07429 0.0
C773 C 0.61905 0.12869 0.03376 0.0
C774 C 0.69531 0.19327 0.1096 0.0
C775 C 0.7437 0.16264 0.14509 0.0
N776 N 0.64962 0.14912 0.05289 0.0
N777 N 0.72151 0.14318 0.11777 0.0
H778 H 0.72573 0.68592 0.8203 0.0
H779 H 0.53666 0.57591 0.89681 0.0
H780 H 0.62089 0.66478 0.76343 0.0
H781 H 0.6423 0.57206 0.9386 0.0
H782 H 0.5667 0.61556 0.85153 0.0
H783 H 0.69537 0.65028 0.86741 0.0
C784 C 0.69641 0.67349 0.8176 0.0
C785 C 0.67591 0.67784 0.7877 0.0
C786 C 0.58323 0.60609 0.87075 0.0
C787 C 0.64073 0.63779 0.84181 0.0
C788 C 0.5661 0.58367 0.89671 0.0
C789 C 0.58689 0.57031 0.92142 0.0
C790 C 0.62143 0.61559 0.86978 0.0
C791 C 0.62503 0.58127 0.91992 0.0
C792 C 0.679 0.65332 0.84455 0.0
C793 C 0.63779 0.66178 0.7859 0.0
N794 N 0.64097 0.60313 0.89464 0.0
N795 N 0.62144 0.64257 0.81254 0.0
H796 H 0.35588 0.64103 0.77157 0.0
H797 H 0.49805 0.66931 0.93646 0.0
H798 H 0.39246 0.74255 0.83719 0.0
H799 H 0.44276 0.56266 0.88269 0.0
H800 H 0.47338 0.70104 0.89084 0.0
H801 H 0.40035 0.61668 0.80319 0.0
C802 C 0.37353 0.6583 0.7925 0.0
C803 C 0.3702 0.69352 0.80226 0.0
C804 C 0.46735 0.67076 0.88868 0.0
C805 C 0.42108 0.66594 0.8385 0.0
C806 C 0.48169 0.6527 0.9145 0.0
C807 C 0.47178 0.61334 0.91353 0.0
C808 C 0.44328 0.64915 0.86181 0.0
C809 C 0.45046 0.59307 0.88464 0.0
C810 C 0.39896 0.64446 0.81047 0.0
C811 C 0.39397 0.71501 0.82923 0.0
N812 N 0.43649 0.61117 0.86016 0.0
N813 N 0.4182 0.70069 0.84674 0.0
H814 H 0.34245 0.38703 0.75486 0.0
H815 H 0.4196 0.49172 0.90059 0.0
H816 H 0.26372 0.31775 0.81702 0.0
H817 H 0.37307 0.38515 0.94475 0.0
H818 H 0.37233 0.47295 0.85245 0.0
H819 H 0.36483 0.43233 0.804 0.0
C820 C 0.32917 0.38189 0.77864 0.0
C821 C 0.30226 0.3479 0.78265 0.0
C822 C 0.37203 0.45406 0.87305 0.0
C823 C 0.32703 0.39953 0.83863 0.0
C824 C 0.39866 0.46491 0.90071 0.0
C825 C 0.40065 0.43931 0.92589 0.0
C826 C 0.34752 0.41756 0.87106 0.0
C827 C 0.37288 0.40516 0.92522 0.0
C828 C 0.34167 0.40794 0.80666 0.0
C829 C 0.28556 0.34275 0.81362 0.0
N830 N 0.34773 0.39499 0.89784 0.0
N831 N 0.29879 0.36777 0.84078 0.0
H832 H 0.72364 0.39085 0.79525 0.0
H833 H 0.53978 0.35251 0.88993 0.0
H834 H 0.62129 0.31149 0.75586 0.0
H835 H 0.64117 0.43545 0.92702 0.0
H836 H 0.56864 0.33883 0.83946 0.0
H837 H 0.69245 0.41203 0.84067 0.0
C838 C 0.69437 0.37864 0.79563 0.0
C839 C 0.67497 0.3492 0.77208 0.0
C840 C 0.58459 0.35998 0.85867 0.0
C841 C 0.6394 0.37237 0.82442 0.0
C842 C 0.56824 0.36757 0.88772 0.0
C843 C 0.58806 0.39519 0.91286 0.0
C844 C 0.62106 0.38007 0.8547 0.0
C845 C 0.62481 0.41385 0.90842 0.0
C846 C 0.67666 0.39042 0.82177 0.0
C847 C 0.63719 0.33421 0.77366 0.0
N848 N 0.64009 0.40599 0.87984 0.0
N849 N 0.62068 0.34557 0.79982 0.0
H850 H 0.65535 0.35534 0.21516 0.0
H851 H 0.51024 0.32845 0.05293 0.0
H852 H 0.61719 0.25416 0.14916 0.0
H853 H 0.56721 0.43479 0.10649 0.0
H854 H 0.53538 0.29631 0.09788 0.0
H855 H 0.61039 0.38001 0.18482 0.0
C856 C 0.63727 0.33822 0.19439 0.0
C857 C 0.64029 0.30302 0.18414 0.0
C858 C 0.54166 0.32661 0.10016 0.0
C859 C 0.58884 0.33096 0.14938 0.0
C860 C 0.52705 0.3449 0.07473 0.0
C861 C 0.5373 0.38429 0.07582 0.0
C862 C 0.56633 0.34801 0.12673 0.0
C863 C 0.55922 0.40436 0.10448 0.0
C864 C 0.61155 0.35224 0.17717 0.0
C865 C 0.61594 0.2817 0.15746 0.0
N866 N 0.57344 0.38603 0.12856 0.0
N867 N 0.59143 0.29621 0.14065 0.0
H868 H 0.7578 0.66778 0.17821 0.0
H869 H 0.63735 0.60996 0.04016 0.0
H870 H 0.65989 0.61394 0.22652 0.0
H871 H 0.5882 0.50876 0.0915 0.0
H872 H 0.68649 0.62802 0.08616 0.0
H873 H 0.7352 0.62451 0.12736 0.0
C874 C 0.73162 0.64668 0.17799 0.0
C875 C 0.70954 0.64567 0.20522 0.0
C876 C 0.6659 0.60104 0.08673 0.0
C877 C 0.68404 0.59587 0.14837 0.0
C878 C 0.63775 0.59094 0.06057 0.0
C879 C 0.60869 0.55823 0.06254 0.0
C880 C 0.66405 0.57885 0.11549 0.0
C881 C 0.61021 0.53437 0.08936 0.0
C882 C 0.719 0.62176 0.14936 0.0
C883 C 0.67714 0.61615 0.20537 0.0
N884 N 0.63676 0.54588 0.11564 0.0
N885 N 0.66483 0.59279 0.17681 0.0
H886 H 0.38463 0.68546 0.23413 0.0
H887 H 0.36621 0.56138 0.05952 0.0
H888 H 0.28448 0.60446 0.19187 0.0
H889 H 0.46709 0.64174 0.10171 0.0
H890 H 0.33677 0.57414 0.10987 0.0
H891 H 0.4172 0.66429 0.18977 0.0
C892 C 0.36974 0.66243 0.21614 0.0
C893 C 0.33183 0.64694 0.21626 0.0
C894 C 0.36534 0.58903 0.1081 0.0
C895 C 0.36848 0.62344 0.16506 0.0
C896 C 0.38211 0.58205 0.07914 0.0
C897 C 0.41922 0.60055 0.07627 0.0
C898 C 0.38574 0.61477 0.13441 0.0
C899 C 0.43841 0.62687 0.10271 0.0
C900 C 0.38822 0.65068 0.19057 0.0
C901 C 0.31373 0.6173 0.19241 0.0
N902 N 0.42144 0.63314 0.13071 0.0
N903 N 0.33214 0.6069 0.16736 0.0
H904 H 0.37045 0.35469 0.23388 0.0
H905 H 0.36768 0.41256 0.03903 0.0
H906 H 0.28468 0.29737 0.15654 0.0
H907 H 0.4689 0.43452 0.1024 0.0
H908 H 0.33565 0.37441 0.08353 0.0
H909 H 0.40545 0.38931 0.18844 0.0
C910 C 0.35882 0.34964 0.20741 0.0
C911 C 0.32445 0.32324 0.199 0.0
C912 C 0.3649 0.38723 0.08769 0.0
C913 C 0.36438 0.36268 0.14699 0.0
C914 C 0.38325 0.40902 0.06227 0.0
C915 C 0.42103 0.42678 0.06701 0.0
C916 C 0.38419 0.38366 0.11866 0.0
C917 C 0.43979 0.42114 0.09763 0.0
C918 C 0.37897 0.36915 0.18149 0.0
C919 C 0.31094 0.31758 0.16422 0.0
N920 N 0.42108 0.40048 0.12257 0.0
N921 N 0.33078 0.33725 0.1396 0.0
H922 H 0.79614 0.6352 0.70658 0.0
H923 H 0.91785 0.65143 0.54937 0.0
H924 H 0.7915 0.71285 0.62795 0.0
H925 H 0.86301 0.54195 0.584 0.0
H926 H 0.88018 0.67859 0.5844 0.0
H927 H 0.82823 0.60409 0.66843 0.0
C928 C 0.80151 0.64546 0.68116 0.0
C929 C 0.79065 0.67646 0.67034 0.0
C930 C 0.87635 0.64862 0.58426 0.0
C931 C 0.82864 0.64177 0.62706 0.0
C932 C 0.89797 0.63308 0.56442 0.0
C933 C 0.89364 0.59426 0.56362 0.0
C934 C 0.85083 0.62549 0.60446 0.0
C935 C 0.8672 0.57195 0.58364 0.0
C936 C 0.81983 0.62769 0.65944 0.0
C937 C 0.79879 0.68874 0.63721 0.0
N938 N 0.84721 0.5879 0.60357 0.0
N939 N 0.81775 0.67181 0.61704 0.0
H940 H 0.28979 0.86486 0.68304 0.0
H941 H 0.47313 0.92673 0.59081 0.0
H942 H 0.37727 0.81622 0.7049 0.0
H943 H 0.39564 0.99003 0.59143 0.0
H944 H 0.44239 0.88945 0.63663 0.0
H945 H 0.33086 0.9137 0.65245 0.0
C946 C 0.31772 0.86457 0.68149 0.0
C947 C 0.33005 0.83626 0.69612 0.0
C948 C 0.43255 0.91194 0.62708 0.0
C949 C 0.37727 0.89198 0.661 0.0
C950 C 0.45013 0.93322 0.60091 0.0
C951 C 0.43626 0.96067 0.58645 0.0
C952 C 0.40094 0.91829 0.63863 0.0
C953 C 0.4067 0.96839 0.60106 0.0
C954 C 0.34129 0.89262 0.66422 0.0
C955 C 0.36666 0.83751 0.6938 0.0
N956 N 0.38969 0.9469 0.62591 0.0
N957 N 0.38892 0.86465 0.67607 0.0
H958 H 0.19429 0.3531 0.72538 0.0
H959 H 0.0655 0.34854 0.55525 0.0
H960 H 0.19098 0.27994 0.63663 0.0
H961 H 0.12596 0.45604 0.6048 0.0
H962 H 0.09965 0.31811 0.59375 0.0
H963 H 0.15894 0.3865 0.69019 0.0
C964 C 0.18601 0.34388 0.69862 0.0
C965 C 0.19586 0.31357 0.68405 0.0
C966 C 0.1052 0.34832 0.59649 0.0
C967 C 0.15453 0.35123 0.64381 0.0
C968 C 0.08543 0.36588 0.57464 0.0
C969 C 0.09247 0.40524 0.57653 0.0
C970 C 0.13195 0.36977 0.62144 0.0
C971 C 0.1193 0.42574 0.60222 0.0
C972 C 0.16599 0.36312 0.67852 0.0
C973 C 0.18435 0.30317 0.64907 0.0
N974 N 0.13782 0.40783 0.62372 0.0
N975 N 0.16408 0.32152 0.63046 0.0
H976 H 0.72552 0.24707 0.60972 0.0
H977 H 0.60991 0.03824 0.5641 0.0
H978 H 0.70959 0.15788 0.68036 0.0
H979 H 0.62874 0.12591 0.49172 0.0
H980 H 0.6628 0.07633 0.6008 0.0
H981 H 0.70559 0.1998 0.56166 0.0
C982 C 0.71848 0.21754 0.615 0.0
C983 C 0.71861 0.20626 0.64893 0.0
C984 C 0.65603 0.08685 0.57641 0.0
C985 C 0.69561 0.15214 0.59447 0.0
C986 C 0.62599 0.06488 0.5553 0.0
C987 C 0.61421 0.07972 0.52563 0.0
C988 C 0.67382 0.12378 0.56773 0.0
C989 C 0.63628 0.11413 0.51515 0.0
C990 C 0.70729 0.19054 0.58763 0.0
C991 C 0.70978 0.16774 0.65453 0.0
N992 N 0.66444 0.13554 0.53668 0.0
N993 N 0.69799 0.14205 0.62762 0.0
H994 H 0.74297 0.34547 0.33078 0.0
H995 H 0.90609 0.35134 0.47042 0.0
H996 H 0.79924 0.26146 0.33823 0.0
H997 H 0.89011 0.45199 0.42912 0.0
H998 H 0.84986 0.3142 0.43807 0.0
H999 H 0.78123 0.38011 0.38161 0.0
C1000 C 0.76282 0.33397 0.3437 0.0
C1001 C 0.76861 0.30102 0.33042 0.0
C1002 C 0.85829 0.34449 0.43668 0.0
C1003 C 0.81143 0.33966 0.38814 0.0
C1004 C 0.89035 0.36577 0.4551 0.0
C1005 C 0.90337 0.40471 0.45154 0.0
C1006 C 0.83907 0.36224 0.41462 0.0
C1007 C 0.88134 0.42195 0.43209 0.0
C1008 C 0.78457 0.3537 0.37244 0.0
C1009 C 0.79459 0.28714 0.34759 0.0
N1010 N 0.85047 0.40044 0.41367 0.0
N1011 N 0.8152 0.30662 0.37559 0.0
H1012 H 0.71569 0.78787 0.38401 0.0
H1013 H 0.52808 0.8235 0.42681 0.0
H1014 H 0.61442 0.7403 0.32134 0.0
H1015 H 0.63458 0.89793 0.46231 0.0
H1016 H 0.55748 0.7827 0.39748 0.0
H1017 H 0.68382 0.81747 0.42304 0.0
C1018 C 0.68658 0.78308 0.37887 0.0
C1019 C 0.66759 0.76199 0.34936 0.0
C1020 C 0.57431 0.80785 0.4119 0.0
C1021 C 0.63121 0.79579 0.39356 0.0
C1022 C 0.55762 0.83113 0.42867 0.0
C1023 C 0.57895 0.86439 0.4467 0.0
C1024 C 0.61255 0.8177 0.41359 0.0
C1025 C 0.61709 0.87282 0.44831 0.0
C1026 C 0.66851 0.80014 0.40099 0.0
C1027 C 0.62999 0.75664 0.34377 0.0
N1028 N 0.63269 0.84964 0.43189 0.0
N1029 N 0.61298 0.77371 0.36559 0.0
H1030 H 0.14697 0.71994 0.31265 0.0
H1031 H 0.0752 0.51405 0.37558 0.0
H1032 H 0.17099 0.62304 0.26866 0.0
H1033 H 0.0448 0.60703 0.41907 0.0
H1034 H 0.09822 0.55133 0.32725 0.0
H1035 H 0.09909 0.67795 0.34341 0.0
C1036 C 0.14188 0.68985 0.30914 0.0
C1037 C 0.16361 0.67491 0.2889 0.0
C1038 C 0.08598 0.56358 0.34693 0.0
C1039 C 0.10898 0.62698 0.32361 0.0
C1040 C 0.07281 0.54224 0.3744 0.0
C1041 C 0.05879 0.55797 0.4012 0.0
C1042 C 0.08621 0.60132 0.34698 0.0
C1043 C 0.05579 0.5943 0.39872 0.0
C1044 C 0.11449 0.66593 0.32658 0.0
C1045 C 0.15556 0.6358 0.28478 0.0
N1046 N 0.07033 0.61528 0.37237 0.0
N1047 N 0.12919 0.61324 0.30233 0.0
H1048 H 0.29505 0.13726 0.32351 0.0
H1049 H 0.49276 0.12664 0.38067 0.0
H1050 H 0.39228 0.23198 0.32481 0.0
H1051 H 0.39508 0.03188 0.37538 0.0
H1052 H 0.45917 0.16184 0.34761 0.0
H1053 H 0.33289 0.09619 0.33441 0.0
C1054 C 0.32446 0.14947 0.32659 0.0
C1055 C 0.34066 0.18807 0.3238 0.0
C1056 C 0.44531 0.13303 0.35296 0.0
C1057 C 0.38424 0.14113 0.33553 0.0
C1058 C 0.46461 0.11266 0.37149 0.0
C1059 C 0.44613 0.07693 0.38229 0.0
C1060 C 0.40755 0.1173 0.34524 0.0
C1061 C 0.41001 0.05994 0.36877 0.0
C1062 C 0.34608 0.12593 0.3323 0.0
C1063 C 0.37881 0.2024 0.3274 0.0
N1064 N 0.39152 0.08073 0.35182 0.0
N1065 N 0.3994 0.17888 0.33326 0.0
H1066 H 0.62321 0.76286 0.64237 0.0
H1067 H 0.60734 0.96388 0.60337 0.0
H1068 H 0.70955 0.86546 0.6708 0.0
H1069 H 0.51529 0.86318 0.59397 0.0
H1070 H 0.64249 0.93038 0.63665 0.0
H1071 H 0.58188 0.79998 0.62815 0.0
C1072 C 0.63355 0.79324 0.64507 0.0
C1073 C 0.66981 0.81127 0.65729 0.0
C1074 C 0.61432 0.91582 0.62801 0.0
C1075 C 0.62271 0.85377 0.64212 0.0
C1076 C 0.59408 0.93508 0.6093 0.0
C1077 C 0.55891 0.91577 0.59459 0.0
C1078 C 0.5992 0.87711 0.63166 0.0
C1079 C 0.54277 0.87884 0.60388 0.0
C1080 C 0.60985 0.81439 0.63758 0.0
C1081 C 0.68179 0.8506 0.66106 0.0
N1082 N 0.56348 0.86025 0.62092 0.0
N1083 N 0.65829 0.8706 0.65337 0.0
H1084 H 0.70943 0.18639 0.34504 0.0
H1085 H 0.57208 -0.00219 0.36622 0.0
H1086 H 0.64334 0.1396 0.25101 0.0
H1087 H 0.56106 0.09384 0.42389 0.0
H1088 H 0.60577 0.04046 0.32442 0.0
H1089 H 0.66436 0.14297 0.37778 0.0
C1090 C 0.68562 0.16664 0.33136 0.0
C1091 C 0.67984 0.16624 0.29549 0.0
C1092 C 0.59488 0.05181 0.34571 0.0
C1093 C 0.62909 0.11688 0.33234 0.0
C1094 C 0.57576 0.02771 0.36933 0.0
C1095 C 0.56335 0.04258 0.39787 0.0
C1096 C 0.60261 0.09069 0.35185 0.0
C1097 C 0.56939 0.08144 0.40159 0.0
C1098 C 0.65996 0.14231 0.34995 0.0
C1099 C 0.64844 0.14056 0.27877 0.0
N1100 N 0.58946 0.10439 0.37923 0.0
N1101 N 0.62421 0.11631 0.29739 0.0
H1102 H 0.81659 0.64451 0.26066 0.0
H1103 H 0.94785 0.64917 0.42891 0.0
H1104 H 0.8243 0.72116 0.34787 0.0
H1105 H 0.88307 0.5417 0.38224 0.0
H1106 H 0.91426 0.6802 0.39046 0.0
H1107 H 0.85116 0.61065 0.29612 0.0
C1108 C 0.82573 0.65443 0.28713 0.0
C1109 C 0.81736 0.68589 0.30118 0.0
C1110 C 0.90762 0.64985 0.38834 0.0
C1111 C 0.85776 0.64758 0.34174 0.0
C1112 C 0.92707 0.63193 0.41015 0.0
C1113 C 0.91867 0.59242 0.40905 0.0
C1114 C 0.87984 0.62858 0.3642 0.0
C1115 C 0.89079 0.5721 0.38418 0.0
C1116 C 0.84529 0.63492 0.3074 0.0
C1117 C 0.82985 0.6971 0.33583 0.0
N1118 N 0.87263 0.59034 0.36267 0.0
N1119 N 0.84967 0.67839 0.35461 0.0
H1120 H 0.28737 0.83796 0.29975 0.0
H1121 H 0.37243 0.87103 0.49096 0.0
H1122 H 0.27869 0.75118 0.37218 0.0
H1123 H 0.39239 0.95536 0.41539 0.0
H1124 H 0.31906 0.83352 0.45474 0.0
H1125 H 0.30682 0.88538 0.3472 0.0
C1126 C 0.28862 0.82883 0.32578 0.0
C1127 C 0.28195 0.79065 0.33208 0.0
C1128 C 0.33442 0.86071 0.44646 0.0
C1129 C 0.30511 0.84486 0.38645 0.0
C1130 C 0.36478 0.88223 0.46722 0.0
C1131 C 0.38743 0.91563 0.45547 0.0
C1132 C 0.32721 0.87248 0.41357 0.0
C1133 C 0.37598 0.92934 0.42501 0.0
C1134 C 0.29988 0.85597 0.35288 0.0
C1135 C 0.28426 0.78041 0.36624 0.0
N1136 N 0.3472 0.9071 0.40449 0.0
N1137 N 0.29633 0.80744 0.39215 0.0
H1138 H 0.16706 0.31471 0.27264 0.0
H1139 H 0.16786 0.43419 0.44698 0.0
H1140 H 0.2517 0.32752 0.35479 0.0
H1141 H 0.06931 0.37268 0.38578 0.0
H1142 H 0.20307 0.40543 0.41 0.0
H1143 H 0.13548 0.34638 0.30982 0.0
C1144 C 0.17935 0.3245 0.2984 0.0
C1145 C 0.21233 0.31823 0.31041 0.0
C1146 C 0.17375 0.39834 0.40472 0.0
C1147 C 0.17583 0.35514 0.35345 0.0
C1148 C 0.15362 0.41491 0.42569 0.0
C1149 C 0.11541 0.40591 0.41963 0.0
C1150 C 0.15574 0.37326 0.37691 0.0
C1151 C 0.09858 0.38045 0.39169 0.0
C1152 C 0.16105 0.34246 0.31973 0.0
C1153 C 0.22641 0.33158 0.34431 0.0
N1154 N 0.11877 0.36538 0.37136 0.0
N1155 N 0.20823 0.34952 0.36455 0.0
H1156 H 0.2913 0.20834 0.59901 0.0
H1157 H 0.47629 0.1741 0.54651 0.0
H1158 H 0.39535 0.25813 0.65667 0.0
H1159 H 0.36851 0.10009 0.51469 0.0
H1160 H 0.44855 0.21556 0.57706 0.0
H1161 H 0.32139 0.17993 0.55748 0.0
C1162 C 0.32063 0.21379 0.60258 0.0
C1163 C 0.34094 0.23513 0.63143 0.0
C1164 C 0.43106 0.1904 0.56311 0.0
C1165 C 0.37534 0.20258 0.5843 0.0
C1166 C 0.4468 0.16676 0.54562 0.0
C1167 C 0.42463 0.13334 0.52838 0.0
C1168 C 0.39295 0.18073 0.56298 0.0
C1169 C 0.38662 0.12529 0.52803 0.0
C1170 C 0.33772 0.19745 0.57898 0.0
C1171 C 0.3788 0.24155 0.63482 0.0
N1172 N 0.37198 0.14877 0.54522 0.0
N1173 N 0.39484 0.22495 0.61164 0.0
H1174 H 0.85615 0.27515 0.66836 0.0
H1175 H 0.93519 0.48337 0.61197 0.0
H1176 H 0.83149 0.37175 0.71223 0.0
H1177 H 0.96274 0.38977 0.56608 0.0
H1178 H 0.9095 0.44462 0.6586 0.0
H1179 H 0.90551 0.31743 0.63949 0.0
C1180 C 0.86132 0.30522 0.67218 0.0
C1181 C 0.83911 0.32 0.69197 0.0
C1182 C 0.92174 0.43255 0.6388 0.0
C1183 C 0.89553 0.36828 0.65943 0.0
C1184 C 0.93651 0.45475 0.61234 0.0
C1185 C 0.9505 0.43931 0.58532 0.0
C1186 C 0.9199 0.39435 0.63746 0.0
C1187 C 0.95193 0.40234 0.58666 0.0
C1188 C 0.88959 0.3293 0.65583 0.0
C1189 C 0.84731 0.3591 0.69649 0.0
N1190 N 0.93587 0.38063 0.612 0.0
N1191 N 0.8746 0.38184 0.68004 0.0
H1192 H 0.27385 0.65765 0.65036 0.0
H1193 H 0.12058 0.54424 0.5538 0.0
H1194 H 0.20884 0.73394 0.64886 0.0
H1195 H 0.10366 0.6478 0.52091 0.0
H1196 H 0.17792 0.58063 0.5853 0.0
H1197 H 0.23607 0.62248 0.59972 0.0
C1198 C 0.25195 0.66727 0.63893 0.0
C1199 C 0.24356 0.69801 0.654 0.0
C1200 C 0.16233 0.59532 0.57019 0.0
C1201 C 0.20039 0.65812 0.59695 0.0
C1202 C 0.12944 0.57451 0.55232 0.0
C1203 C 0.10684 0.59307 0.53549 0.0
C1204 C 0.17237 0.63481 0.57117 0.0
C1205 C 0.11974 0.63234 0.53431 0.0
C1206 C 0.23024 0.64704 0.61037 0.0
C1207 C 0.21525 0.70968 0.63843 0.0
N1208 N 0.1512 0.65193 0.55264 0.0
N1209 N 0.19448 0.68957 0.6108 0.0
loop_
_geom_bond_atom_site_label_1
_geom_bond_atom_site_label_2
_geom_bond_distance
_geom_bond_site_symmetry_2
_ccdc_geom_bond_type
Dy0 O4 2.398 . S
Dy0 O5 2.491 . S
Dy0 O6 2.403 . S
Dy0 O7 2.664 . S
Dy0 O11 2.326 . S
Dy0 O15 2.310 . S
Dy0 O16 2.351 . S
C1 O12 1.185 . S
C1 O13 1.355 . S
C2 O4 1.185 . S
C2 O5 1.355 . S
Dy3 O7 2.310 . S
Dy3 O10 2.351 . S
Dy3 O12 2.398 . S
Dy3 O13 2.491 . S
Dy3 O14 2.403 . S
Dy3 O15 2.664 . S
Dy3 O17 2.326 . S
O4 Dy0 2.398 . S
O4 C2 1.185 . S
O5 Dy0 2.491 . S
O5 C2 1.355 . S
O6 Dy0 2.403 . S
O6 C8 1.254 . S
O7 Dy0 2.664 . S
O7 Dy3 2.310 . S
O7 C8 1.268 . S
C8 O6 1.254 . S
C8 O7 1.268 . S
C9 O14 1.254 . S
C9 O15 1.268 . S
O10 Dy3 2.351 . S
O10 C18 1.249 . S
O11 Dy0 2.326 . S
O11 C18 1.267 . S
O12 C1 1.185 . S
O12 Dy3 2.398 . S
O13 C1 1.355 . S
O13 Dy3 2.491 . S
O14 Dy3 2.403 . S
O14 C9 1.254 . S
O15 Dy0 2.310 . S
O15 Dy3 2.664 . S
O15 C9 1.268 . S
O16 Dy0 2.351 . S
O16 C19 1.249 . S
O17 Dy3 2.326 . S
O17 C19 1.267 . S
C18 O10 1.249 . S
C18 O11 1.267 . S
C19 O16 1.249 . S
C19 O17 1.267 . S
Dy20 O24 2.398 . S
Dy20 O25 2.491 . S
Dy20 O26 2.403 . S
Dy20 O27 2.664 . S
Dy20 O31 2.326 . S
Dy20 O35 2.310 . S
Dy20 O36 2.351 . S
C21 O32 1.185 . S
C21 O33 1.355 . S
C22 O24 1.185 . S
C22 O25 1.355 . S
Dy23 O27 2.310 . S
Dy23 O30 2.351 . S
Dy23 O32 2.398 . S
Dy23 O33 2.491 . S
Dy23 O34 2.403 . S
Dy23 O35 2.664 . S
Dy23 O37 2.326 . S
O24 Dy20 2.398 . S
O24 C22 1.185 . S
O25 Dy20 2.491 . S
O25 C22 1.355 . S
O26 Dy20 2.403 . S
O26 C28 1.254 . S
O27 Dy20 2.664 . S
O27 Dy23 2.310 . S
O27 C28 1.268 . S
C28 O26 1.254 . S
C28 O27 1.268 . S
C29 O34 1.254 . S
C29 O35 1.268 . S
O30 Dy23 2.351 . S
O30 C38 1.249 . S
O31 Dy20 2.326 . S
O31 C38 1.267 . S
O32 C21 1.185 . S
O32 Dy23 2.398 . S
O33 C21 1.355 . S
O33 Dy23 2.491 . S
O34 Dy23 2.403 . S
O34 C29 1.254 . S
O35 Dy20 2.310 . S
O35 Dy23 2.664 . S
O35 C29 1.268 . S
O36 Dy20 2.351 . S
O36 C39 1.249 . S
O37 Dy23 2.326 . S
O37 C39 1.267 . S
C38 O30 1.249 . S
C38 O31 1.267 . S
C39 O36 1.249 . S
C39 O37 1.267 . S
Dy40 O44 2.398 . S
Dy40 O45 2.491 . S
Dy40 O46 2.403 . S
Dy40 O47 2.664 . S
Dy40 O51 2.326 . S
Dy40 O55 2.310 . S
Dy40 O56 2.351 . S
C41 O52 1.185 . S
C41 O53 1.355 . S
C42 O44 1.185 . S
C42 O45 1.355 . S
Dy43 O47 2.310 . S
Dy43 O50 2.351 . S
Dy43 O52 2.398 . S
Dy43 O53 2.491 . S
Dy43 O54 2.403 . S
Dy43 O55 2.664 . S
Dy43 O57 2.326 . S
O44 Dy40 2.398 . S
O44 C42 1.185 . S
O45 Dy40 2.491 . S
O45 C42 1.355 . S
O46 Dy40 2.403 . S
O46 C48 1.254 . S
O47 Dy40 2.664 . S
O47 Dy43 2.310 . S
O47 C48 1.268 . S
C48 O46 1.254 . S
C48 O47 1.268 . S
C49 O54 1.254 . S
C49 O55 1.268 . S
O50 Dy43 2.351 . S
O50 C58 1.249 . S
O51 Dy40 2.326 . S
O51 C58 1.267 . S
O52 C41 1.185 . S
O52 Dy43 2.398 . S
O53 C41 1.355 . S
O53 Dy43 2.491 . S
O54 Dy43 2.403 . S
O54 C49 1.254 . S
O55 Dy40 2.310 . S
O55 Dy43 2.664 . S
O55 C49 1.268 . S
O56 Dy40 2.351 . S
O56 C59 1.249 . S
O57 Dy43 2.326 . S
O57 C59 1.267 . S
C58 O50 1.249 . S
C58 O51 1.267 . S
C59 O56 1.249 . S
C59 O57 1.267 . S
Dy60 O64 2.398 . S
Dy60 O65 2.491 . S
Dy60 O66 2.403 . S
Dy60 O67 2.664 . S
Dy60 O71 2.326 . S
Dy60 O75 2.310 . S
Dy60 O76 2.351 . S
C61 O72 1.185 . S
C61 O73 1.355 . S
C62 O64 1.185 . S
C62 O65 1.355 . S
Dy63 O67 2.310 . S
Dy63 O70 2.351 . S
Dy63 O72 2.398 . S
Dy63 O73 2.491 . S
Dy63 O74 2.403 . S
Dy63 O75 2.664 . S
Dy63 O77 2.326 . S
O64 Dy60 2.398 . S
O64 C62 1.185 . S
O65 Dy60 2.491 . S
O65 C62 1.355 . S
O66 Dy60 2.403 . S
O66 C68 1.254 . S
O67 Dy60 2.664 . S
O67 Dy63 2.310 . S
O67 C68 1.268 . S
C68 O66 1.254 . S
C68 O67 1.268 . S
C69 O74 1.254 . S
C69 O75 1.268 . S
O70 Dy63 2.351 . S
O70 C78 1.249 . S
O71 Dy60 2.326 . S
O71 C78 1.267 . S
O72 C61 1.185 . S
O72 Dy63 2.398 . S
O73 C61 1.355 . S
O73 Dy63 2.491 . S
O74 Dy63 2.403 . S
O74 C69 1.254 . S
O75 Dy60 2.310 . S
O75 Dy63 2.664 . S
O75 C69 1.268 . S
O76 Dy60 2.351 . S
O76 C79 1.249 . S
O77 Dy63 2.326 . S
O77 C79 1.267 . S
C78 O70 1.249 . S
C78 O71 1.267 . S
C79 O76 1.249 . S
C79 O77 1.267 . S
Dy80 O84 2.398 . S
Dy80 O85 2.491 . S
Dy80 O86 2.403 . S
Dy80 O87 2.664 . S
Dy80 O91 2.326 . S
Dy80 O95 2.310 . S
Dy80 O96 2.351 . S
C81 O92 1.185 . S
C81 O93 1.355 . S
C82 O84 1.185 . S
C82 O85 1.355 . S
Dy83 O87 2.310 . S
Dy83 O90 2.351 . S
Dy83 O92 2.398 . S
Dy83 O93 2.491 . S
Dy83 O94 2.403 . S
Dy83 O95 2.664 . S
Dy83 O97 2.326 . S
O84 Dy80 2.398 . S
O84 C82 1.185 . S
O85 Dy80 2.491 . S
O85 C82 1.355 . S
O86 Dy80 2.403 . S
O86 C88 1.254 . S
O87 Dy80 2.664 . S
O87 Dy83 2.310 . S
O87 C88 1.268 . S
C88 O86 1.254 . S
C88 O87 1.268 . S
C89 O94 1.254 . S
C89 O95 1.268 . S
O90 Dy83 2.351 . S
O90 C98 1.249 . S
O91 Dy80 2.326 . S
O91 C98 1.267 . S
O92 C81 1.185 . S
O92 Dy83 2.398 . S
O93 C81 1.355 . S
O93 Dy83 2.491 . S
O94 Dy83 2.403 . S
O94 C89 1.254 . S
O95 Dy80 2.310 . S
O95 Dy83 2.664 . S
O95 C89 1.268 . S
O96 Dy80 2.351 . S
O96 C99 1.249 . S
O97 Dy83 2.326 . S
O97 C99 1.267 . S
C98 O90 1.249 . S
C98 O91 1.267 . S
C99 O96 1.249 . S
C99 O97 1.267 . S
Dy100 O104 2.398 . S
Dy100 O105 2.491 . S
Dy100 O106 2.403 . S
Dy100 O107 2.664 . S
Dy100 O111 2.326 . S
Dy100 O115 2.310 . S
Dy100 O116 2.351 . S
C101 O112 1.185 . S
C101 O113 1.355 . S
C102 O104 1.185 . S
C102 O105 1.355 . S
Dy103 O107 2.310 . S
Dy103 O110 2.351 . S
Dy103 O112 2.398 . S
Dy103 O113 2.491 . S
Dy103 O114 2.403 . S
Dy103 O115 2.664 . S
Dy103 O117 2.326 . S
O104 Dy100 2.398 . S
O104 C102 1.185 . S
O105 Dy100 2.491 . S
O105 C102 1.355 . S
O106 Dy100 2.403 . S
O106 C108 1.254 . S
O107 Dy100 2.664 . S
O107 Dy103 2.310 . S
O107 C108 1.268 . S
C108 O106 1.254 . S
C108 O107 1.268 . S
C109 O114 1.254 . S
C109 O115 1.268 . S
O110 Dy103 2.351 . S
O110 C118 1.249 . S
O111 Dy100 2.326 . S
O111 C118 1.267 . S
O112 C101 1.185 . S
O112 Dy103 2.398 . S
O113 C101 1.355 . S
O113 Dy103 2.491 . S
O114 Dy103 2.403 . S
O114 C109 1.254 . S
O115 Dy100 2.310 . S
O115 Dy103 2.664 . S
O115 C109 1.268 . S
O116 Dy100 2.351 . S
O116 C119 1.249 . S
O117 Dy103 2.326 . S
O117 C119 1.267 . S
C118 O110 1.249 . S
C118 O111 1.267 . S
C119 O116 1.249 . S
C119 O117 1.267 . S
Dy120 O124 2.398 . S
Dy120 O125 2.491 . S
Dy120 O126 2.403 . S
Dy120 O127 2.664 . S
Dy120 O131 2.326 . S
Dy120 O135 2.310 . S
Dy120 O136 2.351 . S
C121 O132 1.185 . S
C121 O133 1.355 . S
C122 O124 1.185 . S
C122 O125 1.355 . S
Dy123 O127 2.310 . S
Dy123 O130 2.351 . S
Dy123 O132 2.398 . S
Dy123 O133 2.491 . S
Dy123 O134 2.403 . S
Dy123 O135 2.664 . S
Dy123 O137 2.326 . S
O124 Dy120 2.398 . S
O124 C122 1.185 . S
O125 Dy120 2.491 . S
O125 C122 1.355 . S
O126 Dy120 2.403 . S
O126 C128 1.254 . S
O127 Dy120 2.664 . S
O127 Dy123 2.310 . S
O127 C128 1.268 . S
C128 O126 1.254 . S
C128 O127 1.268 . S
C129 O134 1.254 . S
C129 O135 1.268 . S
O130 Dy123 2.351 . S
O130 C138 1.249 . S
O131 Dy120 2.326 . S
O131 C138 1.267 . S
O132 C121 1.185 . S
O132 Dy123 2.398 . S
O133 C121 1.355 . S
O133 Dy123 2.491 . S
O134 Dy123 2.403 . S
O134 C129 1.254 . S
O135 Dy120 2.310 . S
O135 Dy123 2.664 . S
O135 C129 1.268 . S
O136 Dy120 2.351 . S
O136 C139 1.249 . S
O137 Dy123 2.326 . S
O137 C139 1.267 . S
C138 O130 1.249 . S
C138 O131 1.267 . S
C139 O136 1.249 . S
C139 O137 1.267 . S
Dy140 O144 2.398 . S
Dy140 O145 2.491 . S
Dy140 O146 2.403 . S
Dy140 O147 2.664 . S
Dy140 O151 2.326 . S
Dy140 O155 2.310 . S
Dy140 O156 2.351 . S
C141 O152 1.185 . S
C141 O153 1.355 . S
C142 O144 1.185 . S
C142 O145 1.355 . S
Dy143 O147 2.310 . S
Dy143 O150 2.351 . S
Dy143 O152 2.398 . S
Dy143 O153 2.491 . S
Dy143 O154 2.403 . S
Dy143 O155 2.664 . S
Dy143 O157 2.326 . S
O144 Dy140 2.398 . S
O144 C142 1.185 . S
O145 Dy140 2.491 . S
O145 C142 1.355 . S
O146 Dy140 2.403 . S
O146 C148 1.254 . S
O147 Dy140 2.664 . S
O147 Dy143 2.310 . S
O147 C148 1.268 . S
C148 O146 1.254 . S
C148 O147 1.268 . S
C149 O154 1.254 . S
C149 O155 1.268 . S
O150 Dy143 2.351 . S
O150 C158 1.249 . S
O151 Dy140 2.326 . S
O151 C158 1.267 . S
O152 C141 1.185 . S
O152 Dy143 2.398 . S
O153 C141 1.355 . S
O153 Dy143 2.491 . S
O154 Dy143 2.403 . S
O154 C149 1.254 . S
O155 Dy140 2.310 . S
O155 Dy143 2.664 . S
O155 C149 1.268 . S
O156 Dy140 2.351 . S
O156 C159 1.249 . S
O157 Dy143 2.326 . S
O157 C159 1.267 . S
C158 O150 1.249 . S
C158 O151 1.267 . S
C159 O156 1.249 . S
C159 O157 1.267 . S
C160 O172 1.241 . S
C160 O173 1.280 . S
C161 O174 1.277 . S
C161 O175 1.245 . S
C162 O186 1.247 . S
C162 O188 1.289 . S
Mg163 O164 1.926 . S
Mg163 O173 1.984 . S
Mg163 O175 1.988 . S
Mg163 O176 2.061 1_655 S
O164 Mg163 1.926 . S
O164 Mg165 1.986 . S
O164 Mg166 1.917 1_655 S
Mg165 O164 1.986 . S
Mg165 O172 2.042 . S
Mg165 O174 2.041 . S
Mg165 O180 2.038 1_545 S
Mg165 O188 2.238 1_545 S
Mg166 O164 1.917 1_455 S
Mg166 O167 1.917 1_545 S
Mg166 O177 2.106 . S
Mg166 O179 2.079 1_445 S
Mg166 O188 2.106 1_445 S
Mg166 O189 2.079 . S
O167 Mg166 1.917 1_565 S
O167 Mg168 1.926 . S
O167 Mg169 1.986 . S
Mg168 O167 1.926 . S
Mg168 O182 1.984 . S
Mg168 O185 1.988 . S
Mg168 O186 2.061 1_455 S
Mg169 O167 1.986 . S
Mg169 O177 2.238 1_565 S
Mg169 O181 2.042 . S
Mg169 O183 2.041 . S
Mg169 O190 2.038 1_565 S
C170 O176 1.247 . S
C170 O177 1.289 . S
C171 O189 1.245 . S
C171 O190 1.274 . S
O172 C160 1.241 . S
O172 Mg165 2.042 . S
O173 C160 1.280 . S
O173 Mg163 1.984 . S
O174 C161 1.277 . S
O174 Mg165 2.041 . S
O175 C161 1.245 . S
O175 Mg163 1.988 . S
O176 Mg163 2.061 1_455 S
O176 C170 1.247 . S
O177 Mg166 2.106 . S
O177 Mg169 2.238 1_545 S
O177 C170 1.289 . S
C178 O179 1.245 . S
C178 O180 1.274 . S
O179 Mg166 2.079 1_665 S
O179 C178 1.245 . S
O180 Mg165 2.038 1_565 S
O180 C178 1.274 . S
O181 Mg169 2.042 . S
O181 C184 1.241 . S
O182 Mg168 1.984 . S
O182 C184 1.280 . S
O183 Mg169 2.041 . S
O183 C187 1.277 . S
C184 O181 1.241 . S
C184 O182 1.280 . S
O185 Mg168 1.988 . S
O185 C187 1.245 . S
O186 C162 1.247 . S
O186 Mg168 2.061 1_655 S
C187 O183 1.277 . S
C187 O185 1.245 . S
O188 C162 1.289 . S
O188 Mg165 2.238 1_565 S
O188 Mg166 2.106 1_665 S
O189 Mg166 2.079 . S
O189 C171 1.245 . S
O190 Mg169 2.038 1_545 S
O190 C171 1.274 . S
C191 O203 1.241 . S
C191 O204 1.280 . S
C192 O205 1.277 . S
C192 O206 1.245 . S
C193 O217 1.247 . S
C193 O219 1.289 . S
Mg194 O195 1.926 . S
Mg194 O204 1.984 . S
Mg194 O206 1.988 1_554 S
Mg194 O207 2.061 . S
O195 Mg194 1.926 . S
O195 Mg196 1.986 1_554 S
O195 Mg197 1.917 . S
Mg196 O195 1.986 1_556 S
Mg196 O203 2.042 1_556 S
Mg196 O205 2.041 . S
Mg196 O211 2.038 1_546 S
Mg196 O219 2.238 1_545 S
Mg197 O195 1.917 . S
Mg197 O198 1.917 1_544 S
Mg197 O208 2.106 . S
Mg197 O210 2.079 1_545 S
Mg197 O219 2.106 1_544 S
Mg197 O220 2.079 1_554 S
O198 Mg197 1.917 1_566 S
O198 Mg199 1.926 . S
O198 Mg200 1.986 1_556 S
Mg199 O198 1.926 . S
Mg199 O213 1.984 . S
Mg199 O216 1.988 1_556 S
Mg199 O217 2.061 . S
Mg200 O198 1.986 1_554 S
Mg200 O208 2.238 1_565 S
Mg200 O212 2.042 1_554 S
Mg200 O214 2.041 . S
Mg200 O221 2.038 1_564 S
C201 O207 1.247 . S
C201 O208 1.289 . S
C202 O220 1.245 . S
C202 O221 1.274 . S
O203 C191 1.241 . S
O203 Mg196 2.042 1_554 S
O204 C191 1.280 . S
O204 Mg194 1.984 . S
O205 C192 1.277 . S
O205 Mg196 2.041 . S
O206 C192 1.245 . S
O206 Mg194 1.988 1_556 S
O207 Mg194 2.061 . S
O207 C201 1.247 . S
O208 Mg197 2.106 . S
O208 Mg200 2.238 1_545 S
O208 C201 1.289 . S
C209 O210 1.245 . S
C209 O211 1.274 . S
O210 Mg197 2.079 1_565 S
O210 C209 1.245 . S
O211 Mg196 2.038 1_564 S
O211 C209 1.274 . S
O212 Mg200 2.042 1_556 S
O212 C215 1.241 . S
O213 Mg199 1.984 . S
O213 C215 1.280 . S
O214 Mg200 2.041 . S
O214 C218 1.277 . S
C215 O212 1.241 . S
C215 O213 1.280 . S
O216 Mg199 1.988 1_554 S
O216 C218 1.245 . S
O217 C193 1.247 . S
O217 Mg199 2.061 . S
C218 O214 1.277 . S
C218 O216 1.245 . S
O219 C193 1.289 . S
O219 Mg196 2.238 1_565 S
O219 Mg197 2.106 1_566 S
O220 Mg197 2.079 1_556 S
O220 C202 1.245 . S
O221 Mg200 2.038 1_546 S
O221 C202 1.274 . S
C222 O234 1.241 . S
C222 O235 1.280 . S
C223 O236 1.277 . S
C223 O237 1.245 . S
C224 O248 1.247 . S
C224 O250 1.289 . S
Mg225 O226 1.926 . S
Mg225 O235 1.984 . S
Mg225 O237 1.988 1_554 S
Mg225 O238 2.061 1_655 S
O226 Mg225 1.926 . S
O226 Mg227 1.986 1_554 S
O226 Mg228 1.917 1_655 S
Mg227 O226 1.986 1_556 S
Mg227 O234 2.042 1_556 S
Mg227 O236 2.041 . S
Mg227 O242 2.038 1_556 S
Mg227 O250 2.238 . S
Mg228 O226 1.917 1_455 S
Mg228 O229 1.917 1_554 S
Mg228 O239 2.107 . S
Mg228 O241 2.079 1_455 S
Mg228 O250 2.106 1_454 S
Mg228 O251 2.078 1_554 S
O229 Mg228 1.917 1_556 S
O229 Mg230 1.926 . S
O229 Mg231 1.986 1_556 S
Mg230 O229 1.926 . S
Mg230 O244 1.984 . S
Mg230 O247 1.988 1_556 S
Mg230 O248 2.061 1_455 S
Mg231 O229 1.986 1_554 S
Mg231 O239 2.238 . S
Mg231 O243 2.042 1_554 S
Mg231 O245 2.041 . S
Mg231 O252 2.038 1_554 S
C232 O238 1.247 . S
C232 O239 1.289 . S
C233 O251 1.245 . S
C233 O252 1.274 . S
O234 C222 1.241 . S
O234 Mg227 2.042 1_554 S
O235 C222 1.280 . S
O235 Mg225 1.984 . S
O236 C223 1.277 . S
O236 Mg227 2.041 . S
O237 C223 1.245 . S
O237 Mg225 1.988 1_556 S
O238 Mg225 2.061 1_455 S
O238 C232 1.247 . S
O239 Mg228 2.107 . S
O239 Mg231 2.238 . S
O239 C232 1.289 . S
C240 O241 1.245 . S
C240 O242 1.274 . S
O241 Mg228 2.079 1_655 S
O241 C240 1.245 . S
O242 Mg227 2.038 1_554 S
O242 C240 1.274 . S
O243 Mg231 2.042 1_556 S
O243 C246 1.241 . S
O244 Mg230 1.984 . S
O244 C246 1.280 . S
O245 Mg231 2.041 . S
O245 C249 1.277 . S
C246 O243 1.241 . S
C246 O244 1.280 . S
O247 Mg230 1.988 1_554 S
O247 C249 1.245 . S
O248 C224 1.247 . S
O248 Mg230 2.061 1_655 S
C249 O245 1.277 . S
C249 O247 1.245 . S
O250 C224 1.289 . S
O250 Mg227 2.238 . S
O250 Mg228 2.106 1_656 S
O251 Mg228 2.078 1_556 S
O251 C233 1.245 . S
O252 Mg231 2.038 1_556 S
O252 C233 1.274 . S
C253 O265 1.241 . S
C253 O266 1.280 . S
C254 O267 1.277 . S
C254 O268 1.245 . S
C255 O279 1.247 . S
C255 O281 1.289 . S
Mg256 O257 1.926 . S
Mg256 O266 1.984 . S
Mg256 O268 1.988 1_554 S
Mg256 O269 2.061 . S
O257 Mg256 1.926 . S
O257 Mg258 1.986 1_554 S
O257 Mg259 1.917 . S
Mg258 O257 1.986 1_556 S
Mg258 O265 2.042 1_556 S
Mg258 O267 2.041 . S
Mg258 O273 2.038 1_556 S
Mg258 O281 2.238 . S
Mg259 O257 1.917 . S
Mg259 O260 1.917 1_554 S
Mg259 O270 2.106 . S
Mg259 O272 2.079 . S
Mg259 O281 2.106 1_554 S
Mg259 O282 2.079 1_554 S
O260 Mg259 1.917 1_556 S
O260 Mg261 1.926 . S
O260 Mg262 1.986 1_556 S
Mg261 O260 1.926 . S
Mg261 O275 1.984 . S
Mg261 O278 1.988 1_556 S
Mg261 O279 2.061 . S
Mg262 O260 1.986 1_554 S
Mg262 O270 2.238 . S
Mg262 O274 2.042 1_554 S
Mg262 O276 2.041 . S
Mg262 O283 2.038 1_554 S
C263 O269 1.247 . S
C263 O270 1.289 . S
C264 O282 1.245 . S
C264 O283 1.274 . S
O265 C253 1.241 . S
O265 Mg258 2.042 1_554 S
O266 C253 1.280 . S
O266 Mg256 1.984 . S
O267 C254 1.277 . S
O267 Mg258 2.041 . S
O268 C254 1.245 . S
O268 Mg256 1.988 1_556 S
O269 Mg256 2.061 . S
O269 C263 1.247 . S
O270 Mg259 2.106 . S
O270 Mg262 2.238 . S
O270 C263 1.289 . S
C271 O272 1.245 . S
C271 O273 1.274 . S
O272 Mg259 2.079 . S
O272 C271 1.245 . S
O273 Mg258 2.038 1_554 S
O273 C271 1.274 . S
O274 Mg262 2.042 1_556 S
O274 C277 1.241 . S
O275 Mg261 1.984 . S
O275 C277 1.280 . S
O276 Mg262 2.041 . S
O276 C280 1.277 . S
C277 O274 1.241 . S
C277 O275 1.280 . S
O278 Mg261 1.988 1_554 S
O278 C280 1.245 . S
O279 C255 1.247 . S
O279 Mg261 2.061 . S
C280 O276 1.277 . S
C280 O278 1.245 . S
O281 C255 1.289 . S
O281 Mg258 2.238 . S
O281 Mg259 2.106 1_556 S
O282 Mg259 2.079 1_556 S
O282 C264 1.245 . S
O283 Mg262 2.038 1_556 S
O283 C264 1.274 . S
C284 O296 1.241 . S
C284 O297 1.280 . S
C285 O298 1.277 . S
C285 O299 1.245 . S
C286 O310 1.247 . S
C286 O312 1.289 . S
Mg287 O288 1.926 . S
Mg287 O297 1.984 . S
Mg287 O299 1.988 . S
Mg287 O300 2.061 1_655 S
O288 Mg287 1.926 . S
O288 Mg289 1.986 . S
O288 Mg290 1.917 1_655 S
Mg289 O288 1.986 . S
Mg289 O296 2.042 . S
Mg289 O298 2.041 . S
Mg289 O304 2.038 . S
Mg289 O312 2.238 . S
Mg290 O288 1.917 1_455 S
Mg290 O291 1.917 . S
Mg290 O301 2.106 . S
Mg290 O303 2.079 1_455 S
Mg290 O312 2.106 1_455 S
Mg290 O313 2.079 . S
O291 Mg290 1.917 . S
O291 Mg292 1.926 . S
O291 Mg293 1.986 . S
Mg292 O291 1.926 . S
Mg292 O306 1.984 . S
Mg292 O309 1.988 . S
Mg292 O310 2.061 1_455 S
Mg293 O291 1.986 . S
Mg293 O301 2.238 . S
Mg293 O305 2.042 . S
Mg293 O307 2.041 . S
Mg293 O314 2.038 . S
C294 O300 1.247 . S
C294 O301 1.289 . S
C295 O313 1.245 . S
C295 O314 1.274 . S
O296 C284 1.241 . S
O296 Mg289 2.042 . S
O297 C284 1.280 . S
O297 Mg287 1.984 . S
O298 C285 1.277 . S
O298 Mg289 2.041 . S
O299 C285 1.245 . S
O299 Mg287 1.988 . S
O300 Mg287 2.061 1_455 S
O300 C294 1.247 . S
O301 Mg290 2.106 . S
O301 Mg293 2.238 . S
O301 C294 1.289 . S
C302 O303 1.245 . S
C302 O304 1.274 . S
O303 Mg290 2.079 1_655 S
O303 C302 1.245 . S
O304 Mg289 2.038 . S
O304 C302 1.274 . S
O305 Mg293 2.042 . S
O305 C308 1.241 . S
O306 Mg292 1.984 . S
O306 C308 1.280 . S
O307 Mg293 2.041 . S
O307 C311 1.277 . S
C308 O305 1.241 . S
C308 O306 1.280 . S
O309 Mg292 1.988 . S
O309 C311 1.245 . S
O310 C286 1.247 . S
O310 Mg292 2.061 1_655 S
C311 O307 1.277 . S
C311 O309 1.245 . S
O312 C286 1.289 . S
O312 Mg289 2.238 . S
O312 Mg290 2.106 1_655 S
O313 Mg290 2.079 . S
O313 C295 1.245 . S
O314 Mg293 2.038 . S
O314 C295 1.274 . S
C315 O327 1.241 . S
C315 O328 1.280 . S
C316 O329 1.277 . S
C316 O330 1.245 . S
C317 O341 1.247 . S
C317 O343 1.289 . S
Mg318 O319 1.926 . S
Mg318 O328 1.984 . S
Mg318 O330 1.988 . S
Mg318 O331 2.061 . S
O319 Mg318 1.926 . S
O319 Mg320 1.986 . S
O319 Mg321 1.917 . S
Mg320 O319 1.986 . S
Mg320 O327 2.042 . S
Mg320 O329 2.041 . S
Mg320 O335 2.038 1_545 S
Mg320 O343 2.238 1_545 S
Mg321 O319 1.917 . S
Mg321 O322 1.917 1_545 S
Mg321 O332 2.106 . S
Mg321 O334 2.079 1_545 S
Mg321 O343 2.106 1_545 S
Mg321 O344 2.079 . S
O322 Mg321 1.917 1_565 S
O322 Mg323 1.926 . S
O322 Mg324 1.986 . S
Mg323 O322 1.926 . S
Mg323 O337 1.984 . S
Mg323 O340 1.988 . S
Mg323 O341 2.061 . S
Mg324 O322 1.986 . S
Mg324 O332 2.238 1_565 S
Mg324 O336 2.042 . S
Mg324 O338 2.041 . S
Mg324 O345 2.038 1_565 S
C325 O331 1.247 . S
C325 O332 1.289 . S
C326 O344 1.245 . S
C326 O345 1.274 . S
O327 C315 1.241 . S
O327 Mg320 2.042 . S
O328 C315 1.280 . S
O328 Mg318 1.984 . S
O329 C316 1.277 . S
O329 Mg320 2.041 . S
O330 C316 1.245 . S
O330 Mg318 1.988 . S
O331 Mg318 2.061 . S
O331 C325 1.247 . S
O332 Mg321 2.106 . S
O332 Mg324 2.238 1_545 S
O332 C325 1.289 . S
C333 O334 1.245 . S
C333 O335 1.274 . S
O334 Mg321 2.079 1_565 S
O334 C333 1.245 . S
O335 Mg320 2.038 1_565 S
O335 C333 1.274 . S
O336 Mg324 2.042 . S
O336 C339 1.241 . S
O337 Mg323 1.984 . S
O337 C339 1.280 . S
O338 Mg324 2.041 . S
O338 C342 1.277 . S
C339 O336 1.241 . S
C339 O337 1.280 . S
O340 Mg323 1.988 . S
O340 C342 1.245 . S
O341 C317 1.247 . S
O341 Mg323 2.061 . S
C342 O338 1.277 . S
C342 O340 1.245 . S
O343 C317 1.289 . S
O343 Mg320 2.238 1_565 S
O343 Mg321 2.106 1_565 S
O344 Mg321 2.079 . S
O344 C326 1.245 . S
O345 Mg324 2.038 1_545 S
O345 C326 1.274 . S
H346 C352 0.930 . S
H347 C356 0.930 . S
H348 C361 0.929 . S
H349 C359 0.929 . S
H350 C354 0.929 . S
H351 C360 0.929 . S
C352 H346 0.930 . S
C352 C353 1.367 . S
C352 C360 1.378 . S
C353 C352 1.367 . S
C353 C361 1.433 . S
C354 H350 0.929 . S
C354 C356 1.378 . S
C354 C358 1.350 . S
C355 C358 1.463 . S
C355 C360 1.350 . S
C355 N363 1.427 . S
C356 H347 0.930 . S
C356 C354 1.378 . S
C356 C357 1.367 . S
C357 C356 1.367 . S
C357 C359 1.433 . S
C358 C354 1.350 . S
C358 C355 1.463 . S
C358 N362 1.427 . S
C359 H349 0.929 . S
C359 C357 1.433 . S
C359 N362 1.384 . S
C360 H351 0.929 . S
C360 C352 1.378 . S
C360 C355 1.350 . S
C361 H348 0.929 . S
C361 C353 1.433 . S
C361 N363 1.384 . S
N362 C358 1.427 . S
N362 C359 1.384 . S
N363 C355 1.427 . S
N363 C361 1.384 . S
H364 C370 0.930 . S
H365 C374 0.930 . S
H366 C379 0.929 . S
H367 C377 0.929 . S
H368 C372 0.929 . S
H369 C378 0.929 . S
C370 H364 0.930 . S
C370 C371 1.367 . S
C370 C378 1.378 . S
C371 C370 1.367 . S
C371 C379 1.433 . S
C372 H368 0.929 . S
C372 C374 1.378 . S
C372 C376 1.350 . S
C373 C376 1.463 . S
C373 C378 1.350 . S
C373 N381 1.427 . S
C374 H365 0.930 . S
C374 C372 1.378 . S
C374 C375 1.367 . S
C375 C374 1.367 . S
C375 C377 1.433 . S
C376 C372 1.350 . S
C376 C373 1.463 . S
C376 N380 1.427 . S
C377 H367 0.929 . S
C377 C375 1.433 . S
C377 N380 1.384 . S
C378 H369 0.929 . S
C378 C370 1.378 . S
C378 C373 1.350 . S
C379 H366 0.929 . S
C379 C371 1.433 . S
C379 N381 1.384 . S
N380 C376 1.427 . S
N380 C377 1.384 . S
N381 C373 1.427 . S
N381 C379 1.384 . S
H382 C388 0.930 . S
H383 C392 0.930 . S
H384 C397 0.929 . S
H385 C395 0.929 . S
H386 C390 0.929 . S
H387 C396 0.929 . S
C388 H382 0.930 . S
C388 C389 1.367 . S
C388 C396 1.378 . S
C389 C388 1.367 . S
C389 C397 1.433 . S
C390 H386 0.929 . S
C390 C392 1.378 . S
C390 C394 1.350 . S
C391 C394 1.463 . S
C391 C396 1.350 . S
C391 N399 1.427 . S
C392 H383 0.930 . S
C392 C390 1.378 . S
C392 C393 1.367 . S
C393 C392 1.367 . S
C393 C395 1.433 . S
C394 C390 1.350 . S
C394 C391 1.463 . S
C394 N398 1.427 . S
C395 H385 0.929 . S
C395 C393 1.433 . S
C395 N398 1.384 . S
C396 H387 0.929 . S
C396 C388 1.378 . S
C396 C391 1.350 . S
C397 H384 0.929 . S
C397 C389 1.433 . S
C397 N399 1.384 . S
N398 C394 1.427 . S
N398 C395 1.384 . S
N399 C391 1.427 . S
N399 C397 1.384 . S
H400 C406 0.930 . S
H401 C410 0.930 . S
H402 C415 0.929 . S
H403 C413 0.929 . S
H404 C408 0.929 . S
H405 C414 0.929 . S
C406 H400 0.930 . S
C406 C407 1.367 . S
C406 C414 1.378 . S
C407 C406 1.367 . S
C407 C415 1.433 . S
C408 H404 0.929 . S
C408 C410 1.378 . S
C408 C412 1.350 . S
C409 C412 1.463 . S
C409 C414 1.350 . S
C409 N417 1.427 . S
C410 H401 0.930 . S
C410 C408 1.378 . S
C410 C411 1.367 . S
C411 C410 1.367 . S
C411 C413 1.433 . S
C412 C408 1.350 . S
C412 C409 1.463 . S
C412 N416 1.427 . S
C413 H403 0.929 . S
C413 C411 1.433 . S
C413 N416 1.384 . S
C414 H405 0.929 . S
C414 C406 1.378 . S
C414 C409 1.350 . S
C415 H402 0.929 . S
C415 C407 1.433 . S
C415 N417 1.384 . S
N416 C412 1.427 . S
N416 C413 1.384 . S
N417 C409 1.427 . S
N417 C415 1.384 . S
H418 C424 0.930 . S
H419 C428 0.930 . S
H420 C433 0.929 . S
H421 C431 0.929 . S
H422 C426 0.929 . S
H423 C432 0.929 . S
C424 H418 0.930 . S
C424 C425 1.367 . S
C424 C432 1.378 . S
C425 C424 1.367 . S
C425 C433 1.433 . S
C426 H422 0.929 . S
C426 C428 1.378 . S
C426 C430 1.350 . S
C427 C430 1.463 . S
C427 C432 1.350 . S
C427 N435 1.427 . S
C428 H419 0.930 . S
C428 C426 1.378 . S
C428 C429 1.367 . S
C429 C428 1.367 . S
C429 C431 1.433 . S
C430 C426 1.350 . S
C430 C427 1.463 . S
C430 N434 1.427 . S
C431 H421 0.929 . S
C431 C429 1.433 . S
C431 N434 1.384 . S
C432 H423 0.929 . S
C432 C424 1.378 . S
C432 C427 1.350 . S
C433 H420 0.929 . S
C433 C425 1.433 . S
C433 N435 1.384 . S
N434 C430 1.427 . S
N434 C431 1.384 . S
N435 C427 1.427 . S
N435 C433 1.384 . S
H436 C442 0.930 . S
H437 C446 0.930 . S
H438 C451 0.929 . S
H439 C449 0.929 . S
H440 C444 0.929 . S
H441 C450 0.929 . S
C442 H436 0.930 . S
C442 C443 1.367 . S
C442 C450 1.378 . S
C443 C442 1.367 . S
C443 C451 1.433 . S
C444 H440 0.929 . S
C444 C446 1.378 . S
C444 C448 1.350 . S
C445 C448 1.463 . S
C445 C450 1.350 . S
C445 N453 1.427 . S
C446 H437 0.930 . S
C446 C444 1.378 . S
C446 C447 1.367 . S
C447 C446 1.367 . S
C447 C449 1.433 . S
C448 C444 1.350 . S
C448 C445 1.463 . S
C448 N452 1.427 . S
C449 H439 0.929 . S
C449 C447 1.433 . S
C449 N452 1.384 . S
C450 H441 0.929 . S
C450 C442 1.378 . S
C450 C445 1.350 . S
C451 H438 0.929 . S
C451 C443 1.433 . S
C451 N453 1.384 . S
N452 C448 1.427 . S
N452 C449 1.384 . S
N453 C445 1.427 . S
N453 C451 1.384 . S
H454 C460 0.930 . S
H455 C464 0.930 . S
H456 C469 0.929 . S
H457 C467 0.929 . S
H458 C462 0.929 . S
H459 C468 0.929 . S
C460 H454 0.930 . S
C460 C461 1.367 . S
C460 C468 1.378 . S
C461 C460 1.367 . S
C461 C469 1.433 . S
C462 H458 0.929 . S
C462 C464 1.378 . S
C462 C466 1.350 . S
C463 C466 1.463 . S
C463 C468 1.350 . S
C463 N471 1.427 . S
C464 H455 0.930 . S
C464 C462 1.378 . S
C464 C465 1.367 . S
C465 C464 1.367 . S
C465 C467 1.433 . S
C466 C462 1.350 . S
C466 C463 1.463 . S
C466 N470 1.427 . S
C467 H457 0.929 . S
C467 C465 1.433 . S
C467 N470 1.384 . S
C468 H459 0.929 . S
C468 C460 1.378 . S
C468 C463 1.350 . S
C469 H456 0.929 . S
C469 C461 1.433 . S
C469 N471 1.384 . S
N470 C466 1.427 . S
N470 C467 1.384 . S
N471 C463 1.427 . S
N471 C469 1.384 . S
H472 C478 0.930 . S
H473 C482 0.930 . S
H474 C487 0.929 . S
H475 C485 0.929 . S
H476 C480 0.929 . S
H477 C486 0.929 . S
C478 H472 0.930 . S
C478 C479 1.367 . S
C478 C486 1.378 . S
C479 C478 1.367 . S
C479 C487 1.433 . S
C480 H476 0.929 . S
C480 C482 1.378 . S
C480 C484 1.350 . S
C481 C484 1.463 . S
C481 C486 1.350 . S
C481 N489 1.427 . S
C482 H473 0.930 . S
C482 C480 1.378 . S
C482 C483 1.367 . S
C483 C482 1.367 . S
C483 C485 1.433 . S
C484 C480 1.350 . S
C484 C481 1.463 . S
C484 N488 1.427 . S
C485 H475 0.929 . S
C485 C483 1.433 . S
C485 N488 1.384 . S
C486 H477 0.929 . S
C486 C478 1.378 . S
C486 C481 1.350 . S
C487 H474 0.929 . S
C487 C479 1.433 . S
C487 N489 1.384 . S
N488 C484 1.427 . S
N488 C485 1.384 . S
N489 C481 1.427 . S
N489 C487 1.384 . S
H490 C496 0.930 . S
H491 C500 0.930 . S
H492 C505 0.929 . S
H493 C503 0.929 . S
H494 C498 0.929 . S
H495 C504 0.929 . S
C496 H490 0.930 . S
C496 C497 1.367 . S
C496 C504 1.378 . S
C497 C496 1.367 . S
C497 C505 1.433 . S
C498 H494 0.929 . S
C498 C500 1.378 . S
C498 C502 1.350 . S
C499 C502 1.463 . S
C499 C504 1.350 . S
C499 N507 1.427 . S
C500 H491 0.930 . S
C500 C498 1.378 . S
C500 C501 1.367 . S
C501 C500 1.367 . S
C501 C503 1.433 . S
C502 C498 1.350 . S
C502 C499 1.463 . S
C502 N506 1.427 . S
C503 H493 0.929 . S
C503 C501 1.433 . S
C503 N506 1.384 . S
C504 H495 0.929 . S
C504 C496 1.378 . S
C504 C499 1.350 . S
C505 H492 0.929 . S
C505 C497 1.433 . S
C505 N507 1.384 . S
N506 C502 1.427 . S
N506 C503 1.384 . S
N507 C499 1.427 . S
N507 C505 1.384 . S
H508 C514 0.930 . S
H509 C518 0.930 . S
H510 C523 0.929 . S
H511 C521 0.929 . S
H512 C516 0.929 . S
H513 C522 0.929 . S
C514 H508 0.930 . S
C514 C515 1.367 . S
C514 C522 1.378 . S
C515 C514 1.367 . S
C515 C523 1.433 . S
C516 H512 0.929 . S
C516 C518 1.378 . S
C516 C520 1.350 . S
C517 C520 1.463 . S
C517 C522 1.350 . S
C517 N525 1.427 . S
C518 H509 0.930 . S
C518 C516 1.378 . S
C518 C519 1.367 . S
C519 C518 1.367 . S
C519 C521 1.433 . S
C520 C516 1.350 . S
C520 C517 1.463 . S
C520 N524 1.427 . S
C521 H511 0.929 . S
C521 C519 1.433 . S
C521 N524 1.384 . S
C522 H513 0.929 . S
C522 C514 1.378 . S
C522 C517 1.350 . S
C523 H510 0.929 . S
C523 C515 1.433 . S
C523 N525 1.384 . S
N524 C520 1.427 . S
N524 C521 1.384 . S
N525 C517 1.427 . S
N525 C523 1.384 . S
H526 C532 0.930 . S
H527 C536 0.930 . S
H528 C541 0.929 . S
H529 C539 0.929 . S
H530 C534 0.929 . S
H531 C540 0.929 . S
C532 H526 0.930 . S
C532 C533 1.367 . S
C532 C540 1.378 . S
C533 C532 1.367 . S
C533 C541 1.433 . S
C534 H530 0.929 . S
C534 C536 1.378 . S
C534 C538 1.350 . S
C535 C538 1.463 . S
C535 C540 1.350 . S
C535 N543 1.427 . S
C536 H527 0.930 . S
C536 C534 1.378 . S
C536 C537 1.367 . S
C537 C536 1.367 . S
C537 C539 1.433 . S
C538 C534 1.350 . S
C538 C535 1.463 . S
C538 N542 1.427 . S
C539 H529 0.929 . S
C539 C537 1.433 . S
C539 N542 1.384 . S
C540 H531 0.929 . S
C540 C532 1.378 . S
C540 C535 1.350 . S
C541 H528 0.929 . S
C541 C533 1.433 . S
C541 N543 1.384 . S
N542 C538 1.427 . S
N542 C539 1.384 . S
N543 C535 1.427 . S
N543 C541 1.384 . S
H544 C550 0.930 . S
H545 C554 0.930 . S
H546 C559 0.929 . S
H547 C557 0.929 . S
H548 C552 0.929 . S
H549 C558 0.929 . S
C550 H544 0.930 . S
C550 C551 1.367 . S
C550 C558 1.378 . S
C551 C550 1.367 . S
C551 C559 1.433 . S
C552 H548 0.929 . S
C552 C554 1.378 . S
C552 C556 1.350 . S
C553 C556 1.463 . S
C553 C558 1.350 . S
C553 N561 1.427 . S
C554 H545 0.930 . S
C554 C552 1.378 . S
C554 C555 1.367 . S
C555 C554 1.367 . S
C555 C557 1.433 . S
C556 C552 1.350 . S
C556 C553 1.463 . S
C556 N560 1.427 . S
C557 H547 0.929 . S
C557 C555 1.433 . S
C557 N560 1.384 . S
C558 H549 0.929 . S
C558 C550 1.378 . S
C558 C553 1.350 . S
C559 H546 0.929 . S
C559 C551 1.433 . S
C559 N561 1.384 . S
N560 C556 1.427 . S
N560 C557 1.384 . S
N561 C553 1.427 . S
N561 C559 1.384 . S
H562 C568 0.930 . S
H563 C572 0.930 . S
H564 C577 0.929 . S
H565 C575 0.929 . S
H566 C570 0.929 . S
H567 C576 0.929 . S
C568 H562 0.930 . S
C568 C569 1.367 . S
C568 C576 1.378 . S
C569 C568 1.367 . S
C569 C577 1.433 . S
C570 H566 0.929 . S
C570 C572 1.378 . S
C570 C574 1.350 . S
C571 C574 1.463 . S
C571 C576 1.350 . S
C571 N579 1.427 . S
C572 H563 0.930 . S
C572 C570 1.378 . S
C572 C573 1.367 . S
C573 C572 1.367 . S
C573 C575 1.433 . S
C574 C570 1.350 . S
C574 C571 1.463 . S
C574 N578 1.427 . S
C575 H565 0.929 . S
C575 C573 1.433 . S
C575 N578 1.384 . S
C576 H567 0.929 . S
C576 C568 1.378 . S
C576 C571 1.350 . S
C577 H564 0.929 . S
C577 C569 1.433 . S
C577 N579 1.384 . S
N578 C574 1.427 . S
N578 C575 1.384 . S
N579 C571 1.427 . S
N579 C577 1.384 . S
H580 C586 0.930 . S
H581 C590 0.930 . S
H582 C595 0.929 . S
H583 C593 0.929 . S
H584 C588 0.929 . S
H585 C594 0.929 . S
C586 H580 0.930 . S
C586 C587 1.367 . S
C586 C594 1.378 . S
C587 C586 1.367 . S
C587 C595 1.433 . S
C588 H584 0.929 . S
C588 C590 1.378 . S
C588 C592 1.350 . S
C589 C592 1.463 . S
C589 C594 1.350 . S
C589 N597 1.427 . S
C590 H581 0.930 . S
C590 C588 1.378 . S
C590 C591 1.367 . S
C591 C590 1.367 . S
C591 C593 1.433 . S
C592 C588 1.350 . S
C592 C589 1.463 . S
C592 N596 1.427 . S
C593 H583 0.929 . S
C593 C591 1.433 . S
C593 N596 1.384 . S
C594 H585 0.929 . S
C594 C586 1.378 . S
C594 C589 1.350 . S
C595 H582 0.929 . S
C595 C587 1.433 . S
C595 N597 1.384 . S
N596 C592 1.427 . S
N596 C593 1.384 . S
N597 C589 1.427 . S
N597 C595 1.384 . S
H598 C604 0.930 . S
H599 C608 0.930 . S
H600 C613 0.929 . S
H601 C611 0.929 . S
H602 C606 0.929 . S
H603 C612 0.929 . S
C604 H598 0.930 . S
C604 C605 1.367 . S
C604 C612 1.378 . S
C605 C604 1.367 . S
C605 C613 1.433 . S
C606 H602 0.929 . S
C606 C608 1.378 . S
C606 C610 1.350 . S
C607 C610 1.463 . S
C607 C612 1.350 . S
C607 N615 1.427 . S
C608 H599 0.930 . S
C608 C606 1.378 . S
C608 C609 1.367 . S
C609 C608 1.367 . S
C609 C611 1.433 . S
C610 C606 1.350 . S
C610 C607 1.463 . S
C610 N614 1.427 . S
C611 H601 0.929 . S
C611 C609 1.433 . S
C611 N614 1.384 . S
C612 H603 0.929 . S
C612 C604 1.378 . S
C612 C607 1.350 . S
C613 H600 0.929 . S
C613 C605 1.433 . S
C613 N615 1.384 . S
N614 C610 1.427 . S
N614 C611 1.384 . S
N615 C607 1.427 . S
N615 C613 1.384 . S
H616 C622 0.930 . S
H617 C626 0.930 . S
H618 C631 0.929 . S
H619 C629 0.929 . S
H620 C624 0.929 . S
H621 C630 0.929 . S
C622 H616 0.930 . S
C622 C623 1.367 . S
C622 C630 1.378 . S
C623 C622 1.367 . S
C623 C631 1.433 . S
C624 H620 0.929 . S
C624 C626 1.378 . S
C624 C628 1.350 . S
C625 C628 1.463 . S
C625 C630 1.350 . S
C625 N633 1.427 . S
C626 H617 0.930 . S
C626 C624 1.378 . S
C626 C627 1.367 . S
C627 C626 1.367 . S
C627 C629 1.433 . S
C628 C624 1.350 . S
C628 C625 1.463 . S
C628 N632 1.427 . S
C629 H619 0.929 . S
C629 C627 1.433 . S
C629 N632 1.384 . S
C630 H621 0.929 . S
C630 C622 1.378 . S
C630 C625 1.350 . S
C631 H618 0.929 . S
C631 C623 1.433 . S
C631 N633 1.384 . S
N632 C628 1.427 . S
N632 C629 1.384 . S
N633 C625 1.427 . S
N633 C631 1.384 . S
H634 C640 0.930 . S
H635 C644 0.930 . S
H636 C649 0.929 . S
H637 C647 0.929 . S
H638 C642 0.929 . S
H639 C648 0.929 . S
C640 H634 0.930 . S
C640 C641 1.367 . S
C640 C648 1.378 . S
C641 C640 1.367 . S
C641 C649 1.433 . S
C642 H638 0.929 . S
C642 C644 1.378 . S
C642 C646 1.350 . S
C643 C646 1.463 . S
C643 C648 1.350 . S
C643 N651 1.427 . S
C644 H635 0.930 . S
C644 C642 1.378 . S
C644 C645 1.367 . S
C645 C644 1.367 . S
C645 C647 1.433 . S
C646 C642 1.350 . S
C646 C643 1.463 . S
C646 N650 1.427 . S
C647 H637 0.929 . S
C647 C645 1.433 . S
C647 N650 1.384 . S
C648 H639 0.929 . S
C648 C640 1.378 . S
C648 C643 1.350 . S
C649 H636 0.929 . S
C649 C641 1.433 . S
C649 N651 1.384 . S
N650 C646 1.427 . S
N650 C647 1.384 . S
N651 C643 1.427 . S
N651 C649 1.384 . S
H652 C658 0.930 . S
H653 C662 0.930 . S
H654 C667 0.929 . S
H655 C665 0.929 . S
H656 C660 0.929 . S
H657 C666 0.929 . S
C658 H652 0.930 . S
C658 C659 1.367 . S
C658 C666 1.378 . S
C659 C658 1.367 . S
C659 C667 1.433 . S
C660 H656 0.929 . S
C660 C662 1.378 . S
C660 C664 1.350 . S
C661 C664 1.463 . S
C661 C666 1.350 . S
C661 N669 1.427 . S
C662 H653 0.930 . S
C662 C660 1.378 . S
C662 C663 1.367 . S
C663 C662 1.367 . S
C663 C665 1.433 . S
C664 C660 1.350 . S
C664 C661 1.463 . S
C664 N668 1.427 . S
C665 H655 0.929 . S
C665 C663 1.433 . S
C665 N668 1.384 . S
C666 H657 0.929 . S
C666 C658 1.378 . S
C666 C661 1.350 . S
C667 H654 0.929 . S
C667 C659 1.433 . S
C667 N669 1.384 . S
N668 C664 1.427 . S
N668 C665 1.384 . S
N669 C661 1.427 . S
N669 C667 1.384 . S
H670 C676 0.930 . S
H671 C680 0.930 . S
H672 C685 0.929 . S
H673 C683 0.929 . S
H674 C678 0.929 . S
H675 C684 0.929 . S
C676 H670 0.930 . S
C676 C677 1.367 . S
C676 C684 1.378 . S
C677 C676 1.367 . S
C677 C685 1.433 . S
C678 H674 0.929 . S
C678 C680 1.378 . S
C678 C682 1.350 . S
C679 C682 1.463 . S
C679 C684 1.350 . S
C679 N687 1.427 . S
C680 H671 0.930 . S
C680 C678 1.378 . S
C680 C681 1.367 . S
C681 C680 1.367 . S
C681 C683 1.433 . S
C682 C678 1.350 . S
C682 C679 1.463 . S
C682 N686 1.427 . S
C683 H673 0.929 . S
C683 C681 1.433 . S
C683 N686 1.384 . S
C684 H675 0.929 . S
C684 C676 1.378 . S
C684 C679 1.350 . S
C685 H672 0.929 . S
C685 C677 1.433 . S
C685 N687 1.384 . S
N686 C682 1.427 . S
N686 C683 1.384 . S
N687 C679 1.427 . S
N687 C685 1.384 . S
H688 C694 0.930 . S
H689 C698 0.930 . S
H690 C703 0.929 . S
H691 C701 0.929 . S
H692 C696 0.929 . S
H693 C702 0.929 . S
C694 H688 0.930 . S
C694 C695 1.367 . S
C694 C702 1.378 . S
C695 C694 1.367 . S
C695 C703 1.433 . S
C696 H692 0.929 . S
C696 C698 1.378 . S
C696 C700 1.350 . S
C697 C700 1.463 . S
C697 C702 1.350 . S
C697 N705 1.427 . S
C698 H689 0.930 . S
C698 C696 1.378 . S
C698 C699 1.367 . S
C699 C698 1.367 . S
C699 C701 1.433 . S
C700 C696 1.350 . S
C700 C697 1.463 . S
C700 N704 1.427 . S
C701 H691 0.929 . S
C701 C699 1.433 . S
C701 N704 1.384 . S
C702 H693 0.929 . S
C702 C694 1.378 . S
C702 C697 1.350 . S
C703 H690 0.929 . S
C703 C695 1.433 . S
C703 N705 1.384 . S
N704 C700 1.427 . S
N704 C701 1.384 . S
N705 C697 1.427 . S
N705 C703 1.384 . S
H706 C712 0.930 . S
H707 C716 0.930 . S
H708 C721 0.929 . S
H709 C719 0.929 . S
H710 C714 0.929 . S
H711 C720 0.929 . S
C712 H706 0.930 . S
C712 C713 1.367 . S
C712 C720 1.378 . S
C713 C712 1.367 . S
C713 C721 1.433 . S
C714 H710 0.929 . S
C714 C716 1.378 . S
C714 C718 1.350 . S
C715 C718 1.463 . S
C715 C720 1.350 . S
C715 N723 1.427 . S
C716 H707 0.930 . S
C716 C714 1.378 . S
C716 C717 1.367 . S
C717 C716 1.367 . S
C717 C719 1.433 . S
C718 C714 1.350 . S
C718 C715 1.463 . S
C718 N722 1.427 . S
C719 H709 0.929 . S
C719 C717 1.433 . S
C719 N722 1.384 . S
C720 H711 0.929 . S
C720 C712 1.378 . S
C720 C715 1.350 . S
C721 H708 0.929 . S
C721 C713 1.433 . S
C721 N723 1.384 . S
N722 C718 1.427 . S
N722 C719 1.384 . S
N723 C715 1.427 . S
N723 C721 1.384 . S
H724 C730 0.930 . S
H725 C734 0.930 . S
H726 C739 0.929 . S
H727 C737 0.929 . S
H728 C732 0.929 . S
H729 C738 0.929 . S
C730 H724 0.930 . S
C730 C731 1.367 . S
C730 C738 1.378 . S
C731 C730 1.367 . S
C731 C739 1.433 . S
C732 H728 0.929 . S
C732 C734 1.378 . S
C732 C736 1.350 . S
C733 C736 1.463 . S
C733 C738 1.350 . S
C733 N741 1.427 . S
C734 H725 0.930 . S
C734 C732 1.378 . S
C734 C735 1.367 . S
C735 C734 1.367 . S
C735 C737 1.433 . S
C736 C732 1.350 . S
C736 C733 1.463 . S
C736 N740 1.427 . S
C737 H727 0.929 . S
C737 C735 1.433 . S
C737 N740 1.384 . S
C738 H729 0.929 . S
C738 C730 1.378 . S
C738 C733 1.350 . S
C739 H726 0.929 . S
C739 C731 1.433 . S
C739 N741 1.384 . S
N740 C736 1.427 . S
N740 C737 1.384 . S
N741 C733 1.427 . S
N741 C739 1.384 . S
H742 C748 0.930 . S
H743 C752 0.930 . S
H744 C757 0.929 . S
H745 C755 0.929 . S
H746 C750 0.929 . S
H747 C756 0.929 . S
C748 H742 0.930 . S
C748 C749 1.367 . S
C748 C756 1.378 . S
C749 C748 1.367 . S
C749 C757 1.433 . S
C750 H746 0.929 . S
C750 C752 1.378 . S
C750 C754 1.350 . S
C751 C754 1.463 . S
C751 C756 1.350 . S
C751 N759 1.427 . S
C752 H743 0.930 . S
C752 C750 1.378 . S
C752 C753 1.367 . S
C753 C752 1.367 . S
C753 C755 1.433 . S
C754 C750 1.350 . S
C754 C751 1.463 . S
C754 N758 1.427 . S
C755 H745 0.929 . S
C755 C753 1.433 . S
C755 N758 1.384 . S
C756 H747 0.929 . S
C756 C748 1.378 . S
C756 C751 1.350 . S
C757 H744 0.929 . S
C757 C749 1.433 . S
C757 N759 1.384 . S
N758 C754 1.427 . S
N758 C755 1.384 . S
N759 C751 1.427 . S
N759 C757 1.384 . S
H760 C766 0.930 . S
H761 C770 0.930 . S
H762 C775 0.929 . S
H763 C773 0.929 . S
H764 C768 0.929 . S
H765 C774 0.929 . S
C766 H760 0.930 . S
C766 C767 1.367 . S
C766 C774 1.378 . S
C767 C766 1.367 . S
C767 C775 1.433 . S
C768 H764 0.929 . S
C768 C770 1.378 . S
C768 C772 1.350 . S
C769 C772 1.463 . S
C769 C774 1.350 . S
C769 N777 1.427 . S
C770 H761 0.930 . S
C770 C768 1.378 . S
C770 C771 1.367 . S
C771 C770 1.367 . S
C771 C773 1.433 . S
C772 C768 1.350 . S
C772 C769 1.463 . S
C772 N776 1.427 . S
C773 H763 0.929 . S
C773 C771 1.433 . S
C773 N776 1.384 . S
C774 H765 0.929 . S
C774 C766 1.378 . S
C774 C769 1.350 . S
C775 H762 0.929 . S
C775 C767 1.433 . S
C775 N777 1.384 . S
N776 C772 1.427 . S
N776 C773 1.384 . S
N777 C769 1.427 . S
N777 C775 1.384 . S
H778 C784 0.930 . S
H779 C788 0.930 . S
H780 C793 0.929 . S
H781 C791 0.929 . S
H782 C786 0.929 . S
H783 C792 0.929 . S
C784 H778 0.930 . S
C784 C785 1.367 . S
C784 C792 1.378 . S
C785 C784 1.367 . S
C785 C793 1.433 . S
C786 H782 0.929 . S
C786 C788 1.378 . S
C786 C790 1.350 . S
C787 C790 1.463 . S
C787 C792 1.350 . S
C787 N795 1.427 . S
C788 H779 0.930 . S
C788 C786 1.378 . S
C788 C789 1.367 . S
C789 C788 1.367 . S
C789 C791 1.433 . S
C790 C786 1.350 . S
C790 C787 1.463 . S
C790 N794 1.427 . S
C791 H781 0.929 . S
C791 C789 1.433 . S
C791 N794 1.384 . S
C792 H783 0.929 . S
C792 C784 1.378 . S
C792 C787 1.350 . S
C793 H780 0.929 . S
C793 C785 1.433 . S
C793 N795 1.384 . S
N794 C790 1.427 . S
N794 C791 1.384 . S
N795 C787 1.427 . S
N795 C793 1.384 . S
H796 C802 0.930 . S
H797 C806 0.930 . S
H798 C811 0.929 . S
H799 C809 0.929 . S
H800 C804 0.929 . S
H801 C810 0.929 . S
C802 H796 0.930 . S
C802 C803 1.367 . S
C802 C810 1.378 . S
C803 C802 1.367 . S
C803 C811 1.433 . S
C804 H800 0.929 . S
C804 C806 1.378 . S
C804 C808 1.350 . S
C805 C808 1.463 . S
C805 C810 1.350 . S
C805 N813 1.427 . S
C806 H797 0.930 . S
C806 C804 1.378 . S
C806 C807 1.367 . S
C807 C806 1.367 . S
C807 C809 1.433 . S
C808 C804 1.350 . S
C808 C805 1.463 . S
C808 N812 1.427 . S
C809 H799 0.929 . S
C809 C807 1.433 . S
C809 N812 1.384 . S
C810 H801 0.929 . S
C810 C802 1.378 . S
C810 C805 1.350 . S
C811 H798 0.929 . S
C811 C803 1.433 . S
C811 N813 1.384 . S
N812 C808 1.427 . S
N812 C809 1.384 . S
N813 C805 1.427 . S
N813 C811 1.384 . S
H814 C820 0.930 . S
H815 C824 0.930 . S
H816 C829 0.929 . S
H817 C827 0.929 . S
H818 C822 0.929 . S
H819 C828 0.929 . S
C820 H814 0.930 . S
C820 C821 1.367 . S
C820 C828 1.378 . S
C821 C820 1.367 . S
C821 C829 1.433 . S
C822 H818 0.929 . S
C822 C824 1.378 . S
C822 C826 1.350 . S
C823 C826 1.463 . S
C823 C828 1.350 . S
C823 N831 1.427 . S
C824 H815 0.930 . S
C824 C822 1.378 . S
C824 C825 1.367 . S
C825 C824 1.367 . S
C825 C827 1.433 . S
C826 C822 1.350 . S
C826 C823 1.463 . S
C826 N830 1.427 . S
C827 H817 0.929 . S
C827 C825 1.433 . S
C827 N830 1.384 . S
C828 H819 0.929 . S
C828 C820 1.378 . S
C828 C823 1.350 . S
C829 H816 0.929 . S
C829 C821 1.433 . S
C829 N831 1.384 . S
N830 C826 1.427 . S
N830 C827 1.384 . S
N831 C823 1.427 . S
N831 C829 1.384 . S
H832 C838 0.930 . S
H833 C842 0.930 . S
H834 C847 0.929 . S
H835 C845 0.929 . S
H836 C840 0.929 . S
H837 C846 0.929 . S
C838 H832 0.930 . S
C838 C839 1.367 . S
C838 C846 1.378 . S
C839 C838 1.367 . S
C839 C847 1.433 . S
C840 H836 0.929 . S
C840 C842 1.378 . S
C840 C844 1.350 . S
C841 C844 1.463 . S
C841 C846 1.350 . S
C841 N849 1.427 . S
C842 H833 0.930 . S
C842 C840 1.378 . S
C842 C843 1.367 . S
C843 C842 1.367 . S
C843 C845 1.433 . S
C844 C840 1.350 . S
C844 C841 1.463 . S
C844 N848 1.427 . S
C845 H835 0.929 . S
C845 C843 1.433 . S
C845 N848 1.384 . S
C846 H837 0.929 . S
C846 C838 1.378 . S
C846 C841 1.350 . S
C847 H834 0.929 . S
C847 C839 1.433 . S
C847 N849 1.384 . S
N848 C844 1.427 . S
N848 C845 1.384 . S
N849 C841 1.427 . S
N849 C847 1.384 . S
H850 C856 0.930 . S
H851 C860 0.930 . S
H852 C865 0.929 . S
H853 C863 0.929 . S
H854 C858 0.929 . S
H855 C864 0.929 . S
C856 H850 0.930 . S
C856 C857 1.367 . S
C856 C864 1.378 . S
C857 C856 1.367 . S
C857 C865 1.433 . S
C858 H854 0.929 . S
C858 C860 1.378 . S
C858 C862 1.350 . S
C859 C862 1.463 . S
C859 C864 1.350 . S
C859 N867 1.427 . S
C860 H851 0.930 . S
C860 C858 1.378 . S
C860 C861 1.367 . S
C861 C860 1.367 . S
C861 C863 1.433 . S
C862 C858 1.350 . S
C862 C859 1.463 . S
C862 N866 1.427 . S
C863 H853 0.929 . S
C863 C861 1.433 . S
C863 N866 1.384 . S
C864 H855 0.929 . S
C864 C856 1.378 . S
C864 C859 1.350 . S
C865 H852 0.929 . S
C865 C857 1.433 . S
C865 N867 1.384 . S
N866 C862 1.427 . S
N866 C863 1.384 . S
N867 C859 1.427 . S
N867 C865 1.384 . S
H868 C874 0.930 . S
H869 C878 0.930 . S
H870 C883 0.929 . S
H871 C881 0.929 . S
H872 C876 0.929 . S
H873 C882 0.929 . S
C874 H868 0.930 . S
C874 C875 1.367 . S
C874 C882 1.378 . S
C875 C874 1.367 . S
C875 C883 1.433 . S
C876 H872 0.929 . S
C876 C878 1.378 . S
C876 C880 1.350 . S
C877 C880 1.463 . S
C877 C882 1.350 . S
C877 N885 1.427 . S
C878 H869 0.930 . S
C878 C876 1.378 . S
C878 C879 1.367 . S
C879 C878 1.367 . S
C879 C881 1.433 . S
C880 C876 1.350 . S
C880 C877 1.463 . S
C880 N884 1.427 . S
C881 H871 0.929 . S
C881 C879 1.433 . S
C881 N884 1.384 . S
C882 H873 0.929 . S
C882 C874 1.378 . S
C882 C877 1.350 . S
C883 H870 0.929 . S
C883 C875 1.433 . S
C883 N885 1.384 . S
N884 C880 1.427 . S
N884 C881 1.384 . S
N885 C877 1.427 . S
N885 C883 1.384 . S
H886 C892 0.930 . S
H887 C896 0.930 . S
H888 C901 0.929 . S
H889 C899 0.929 . S
H890 C894 0.929 . S
H891 C900 0.929 . S
C892 H886 0.930 . S
C892 C893 1.367 . S
C892 C900 1.378 . S
C893 C892 1.367 . S
C893 C901 1.433 . S
C894 H890 0.929 . S
C894 C896 1.378 . S
C894 C898 1.350 . S
C895 C898 1.463 . S
C895 C900 1.350 . S
C895 N903 1.427 . S
C896 H887 0.930 . S
C896 C894 1.378 . S
C896 C897 1.367 . S
C897 C896 1.367 . S
C897 C899 1.433 . S
C898 C894 1.350 . S
C898 C895 1.463 . S
C898 N902 1.427 . S
C899 H889 0.929 . S
C899 C897 1.433 . S
C899 N902 1.384 . S
C900 H891 0.929 . S
C900 C892 1.378 . S
C900 C895 1.350 . S
C901 H888 0.929 . S
C901 C893 1.433 . S
C901 N903 1.384 . S
N902 C898 1.427 . S
N902 C899 1.384 . S
N903 C895 1.427 . S
N903 C901 1.384 . S
H904 C910 0.930 . S
H905 C914 0.930 . S
H906 C919 0.929 . S
H907 C917 0.929 . S
H908 C912 0.929 . S
H909 C918 0.929 . S
C910 H904 0.930 . S
C910 C911 1.367 . S
C910 C918 1.378 . S
C911 C910 1.367 . S
C911 C919 1.433 . S
C912 H908 0.929 . S
C912 C914 1.378 . S
C912 C916 1.350 . S
C913 C916 1.463 . S
C913 C918 1.350 . S
C913 N921 1.427 . S
C914 H905 0.930 . S
C914 C912 1.378 . S
C914 C915 1.367 . S
C915 C914 1.367 . S
C915 C917 1.433 . S
C916 C912 1.350 . S
C916 C913 1.463 . S
C916 N920 1.427 . S
C917 H907 0.929 . S
C917 C915 1.433 . S
C917 N920 1.384 . S
C918 H909 0.929 . S
C918 C910 1.378 . S
C918 C913 1.350 . S
C919 H906 0.929 . S
C919 C911 1.433 . S
C919 N921 1.384 . S
N920 C916 1.427 . S
N920 C917 1.384 . S
N921 C913 1.427 . S
N921 C919 1.384 . S
H922 C928 0.930 . S
H923 C932 0.930 . S
H924 C937 0.929 . S
H925 C935 0.929 . S
H926 C930 0.929 . S
H927 C936 0.929 . S
C928 H922 0.930 . S
C928 C929 1.367 . S
C928 C936 1.378 . S
C929 C928 1.367 . S
C929 C937 1.433 . S
C930 H926 0.929 . S
C930 C932 1.378 . S
C930 C934 1.350 . S
C931 C934 1.463 . S
C931 C936 1.350 . S
C931 N939 1.427 . S
C932 H923 0.930 . S
C932 C930 1.378 . S
C932 C933 1.367 . S
C933 C932 1.367 . S
C933 C935 1.433 . S
C934 C930 1.350 . S
C934 C931 1.463 . S
C934 N938 1.427 . S
C935 H925 0.929 . S
C935 C933 1.433 . S
C935 N938 1.384 . S
C936 H927 0.929 . S
C936 C928 1.378 . S
C936 C931 1.350 . S
C937 H924 0.929 . S
C937 C929 1.433 . S
C937 N939 1.384 . S
N938 C934 1.427 . S
N938 C935 1.384 . S
N939 C931 1.427 . S
N939 C937 1.384 . S
H940 C946 0.930 . S
H941 C950 0.930 . S
H942 C955 0.929 . S
H943 C953 0.929 . S
H944 C948 0.929 . S
H945 C954 0.929 . S
C946 H940 0.930 . S
C946 C947 1.367 . S
C946 C954 1.378 . S
C947 C946 1.367 . S
C947 C955 1.433 . S
C948 H944 0.929 . S
C948 C950 1.378 . S
C948 C952 1.350 . S
C949 C952 1.463 . S
C949 C954 1.350 . S
C949 N957 1.427 . S
C950 H941 0.930 . S
C950 C948 1.378 . S
C950 C951 1.367 . S
C951 C950 1.367 . S
C951 C953 1.433 . S
C952 C948 1.350 . S
C952 C949 1.463 . S
C952 N956 1.427 . S
C953 H943 0.929 . S
C953 C951 1.433 . S
C953 N956 1.384 . S
C954 H945 0.929 . S
C954 C946 1.378 . S
C954 C949 1.350 . S
C955 H942 0.929 . S
C955 C947 1.433 . S
C955 N957 1.384 . S
N956 C952 1.427 . S
N956 C953 1.384 . S
N957 C949 1.427 . S
N957 C955 1.384 . S
H958 C964 0.930 . S
H959 C968 0.930 . S
H960 C973 0.929 . S
H961 C971 0.929 . S
H962 C966 0.929 . S
H963 C972 0.929 . S
C964 H958 0.930 . S
C964 C965 1.367 . S
C964 C972 1.378 . S
C965 C964 1.367 . S
C965 C973 1.433 . S
C966 H962 0.929 . S
C966 C968 1.378 . S
C966 C970 1.350 . S
C967 C970 1.463 . S
C967 C972 1.350 . S
C967 N975 1.427 . S
C968 H959 0.930 . S
C968 C966 1.378 . S
C968 C969 1.367 . S
C969 C968 1.367 . S
C969 C971 1.433 . S
C970 C966 1.350 . S
C970 C967 1.463 . S
C970 N974 1.427 . S
C971 H961 0.929 . S
C971 C969 1.433 . S
C971 N974 1.384 . S
C972 H963 0.929 . S
C972 C964 1.378 . S
C972 C967 1.350 . S
C973 H960 0.929 . S
C973 C965 1.433 . S
C973 N975 1.384 . S
N974 C970 1.427 . S
N974 C971 1.384 . S
N975 C967 1.427 . S
N975 C973 1.384 . S
H976 C982 0.930 . S
H977 C986 0.930 . S
H978 C991 0.929 . S
H979 C989 0.929 . S
H980 C984 0.929 . S
H981 C990 0.929 . S
C982 H976 0.930 . S
C982 C983 1.367 . S
C982 C990 1.378 . S
C983 C982 1.367 . S
C983 C991 1.433 . S
C984 H980 0.929 . S
C984 C986 1.378 . S
C984 C988 1.350 . S
C985 C988 1.463 . S
C985 C990 1.350 . S
C985 N993 1.427 . S
C986 H977 0.930 . S
C986 C984 1.378 . S
C986 C987 1.367 . S
C987 C986 1.367 . S
C987 C989 1.433 . S
C988 C984 1.350 . S
C988 C985 1.463 . S
C988 N992 1.427 . S
C989 H979 0.929 . S
C989 C987 1.433 . S
C989 N992 1.384 . S
C990 H981 0.929 . S
C990 C982 1.378 . S
C990 C985 1.350 . S
C991 H978 0.929 . S
C991 C983 1.433 . S
C991 N993 1.384 . S
N992 C988 1.427 . S
N992 C989 1.384 . S
N993 C985 1.427 . S
N993 C991 1.384 . S
H994 C1000 0.930 . S
H995 C1004 0.930 . S
H996 C1009 0.929 . S
H997 C1007 0.929 . S
H998 C1002 0.929 . S
H999 C1008 0.929 . S
C1000 H994 0.930 . S
C1000 C1001 1.367 . S
C1000 C1008 1.378 . S
C1001 C1000 1.367 . S
C1001 C1009 1.433 . S
C1002 H998 0.929 . S
C1002 C1004 1.378 . S
C1002 C1006 1.350 . S
C1003 C1006 1.463 . S
C1003 C1008 1.350 . S
C1003 N1011 1.427 . S
C1004 H995 0.930 . S
C1004 C1002 1.378 . S
C1004 C1005 1.367 . S
C1005 C1004 1.367 . S
C1005 C1007 1.433 . S
C1006 C1002 1.350 . S
C1006 C1003 1.463 . S
C1006 N1010 1.427 . S
C1007 H997 0.929 . S
C1007 C1005 1.433 . S
C1007 N1010 1.384 . S
C1008 H999 0.929 . S
C1008 C1000 1.378 . S
C1008 C1003 1.350 . S
C1009 H996 0.929 . S
C1009 C1001 1.433 . S
C1009 N1011 1.384 . S
N1010 C1006 1.427 . S
N1010 C1007 1.384 . S
N1011 C1003 1.427 . S
N1011 C1009 1.384 . S
H1012 C1018 0.930 . S
H1013 C1022 0.930 . S
H1014 C1027 0.929 . S
H1015 C1025 0.929 . S
H1016 C1020 0.929 . S
H1017 C1026 0.929 . S
C1018 H1012 0.930 . S
C1018 C1019 1.367 . S
C1018 C1026 1.378 . S
C1019 C1018 1.367 . S
C1019 C1027 1.433 . S
C1020 H1016 0.929 . S
C1020 C1022 1.378 . S
C1020 C1024 1.350 . S
C1021 C1024 1.463 . S
C1021 C1026 1.350 . S
C1021 N1029 1.427 . S
C1022 H1013 0.930 . S
C1022 C1020 1.378 . S
C1022 C1023 1.367 . S
C1023 C1022 1.367 . S
C1023 C1025 1.433 . S
C1024 C1020 1.350 . S
C1024 C1021 1.463 . S
C1024 N1028 1.427 . S
C1025 H1015 0.929 . S
C1025 C1023 1.433 . S
C1025 N1028 1.384 . S
C1026 H1017 0.929 . S
C1026 C1018 1.378 . S
C1026 C1021 1.350 . S
C1027 H1014 0.929 . S
C1027 C1019 1.433 . S
C1027 N1029 1.384 . S
N1028 C1024 1.427 . S
N1028 C1025 1.384 . S
N1029 C1021 1.427 . S
N1029 C1027 1.384 . S
H1030 C1036 0.930 . S
H1031 C1040 0.930 . S
H1032 C1045 0.929 . S
H1033 C1043 0.929 . S
H1034 C1038 0.929 . S
H1035 C1044 0.929 . S
C1036 H1030 0.930 . S
C1036 C1037 1.367 . S
C1036 C1044 1.378 . S
C1037 C1036 1.367 . S
C1037 C1045 1.433 . S
C1038 H1034 0.929 . S
C1038 C1040 1.378 . S
C1038 C1042 1.350 . S
C1039 C1042 1.463 . S
C1039 C1044 1.350 . S
C1039 N1047 1.427 . S
C1040 H1031 0.930 . S
C1040 C1038 1.378 . S
C1040 C1041 1.367 . S
C1041 C1040 1.367 . S
C1041 C1043 1.433 . S
C1042 C1038 1.350 . S
C1042 C1039 1.463 . S
C1042 N1046 1.427 . S
C1043 H1033 0.929 . S
C1043 C1041 1.433 . S
C1043 N1046 1.384 . S
C1044 H1035 0.929 . S
C1044 C1036 1.378 . S
C1044 C1039 1.350 . S
C1045 H1032 0.929 . S
C1045 C1037 1.433 . S
C1045 N1047 1.384 . S
N1046 C1042 1.427 . S
N1046 C1043 1.384 . S
N1047 C1039 1.427 . S
N1047 C1045 1.384 . S
H1048 C1054 0.930 . S
H1049 C1058 0.930 . S
H1050 C1063 0.929 . S
H1051 C1061 0.929 . S
H1052 C1056 0.929 . S
H1053 C1062 0.929 . S
C1054 H1048 0.930 . S
C1054 C1055 1.367 . S
C1054 C1062 1.378 . S
C1055 C1054 1.367 . S
C1055 C1063 1.433 . S
C1056 H1052 0.929 . S
C1056 C1058 1.378 . S
C1056 C1060 1.350 . S
C1057 C1060 1.463 . S
C1057 C1062 1.350 . S
C1057 N1065 1.427 . S
C1058 H1049 0.930 . S
C1058 C1056 1.378 . S
C1058 C1059 1.367 . S
C1059 C1058 1.367 . S
C1059 C1061 1.433 . S
C1060 C1056 1.350 . S
C1060 C1057 1.463 . S
C1060 N1064 1.427 . S
C1061 H1051 0.929 . S
C1061 C1059 1.433 . S
C1061 N1064 1.384 . S
C1062 H1053 0.929 . S
C1062 C1054 1.378 . S
C1062 C1057 1.350 . S
C1063 H1050 0.929 . S
C1063 C1055 1.433 . S
C1063 N1065 1.384 . S
N1064 C1060 1.427 . S
N1064 C1061 1.384 . S
N1065 C1057 1.427 . S
N1065 C1063 1.384 . S
H1066 C1072 0.930 . S
H1067 C1076 0.930 . S
H1068 C1081 0.929 . S
H1069 C1079 0.929 . S
H1070 C1074 0.929 . S
H1071 C1080 0.929 . S
C1072 H1066 0.930 . S
C1072 C1073 1.367 . S
C1072 C1080 1.378 . S
C1073 C1072 1.367 . S
C1073 C1081 1.433 . S
C1074 H1070 0.929 . S
C1074 C1076 1.378 . S
C1074 C1078 1.350 . S
C1075 C1078 1.463 . S
C1075 C1080 1.350 . S
C1075 N1083 1.427 . S
C1076 H1067 0.930 . S
C1076 C1074 1.378 . S
C1076 C1077 1.367 . S
C1077 C1076 1.367 . S
C1077 C1079 1.433 . S
C1078 C1074 1.350 . S
C1078 C1075 1.463 . S
C1078 N1082 1.427 . S
C1079 H1069 0.929 . S
C1079 C1077 1.433 . S
C1079 N1082 1.384 . S
C1080 H1071 0.929 . S
C1080 C1072 1.378 . S
C1080 C1075 1.350 . S
C1081 H1068 0.929 . S
C1081 C1073 1.433 . S
C1081 N1083 1.384 . S
N1082 C1078 1.427 . S
N1082 C1079 1.384 . S
N1083 C1075 1.427 . S
N1083 C1081 1.384 . S
H1084 C1090 0.930 . S
H1085 C1094 0.930 . S
H1086 C1099 0.929 . S
H1087 C1097 0.929 . S
H1088 C1092 0.929 . S
H1089 C1098 0.929 . S
C1090 H1084 0.930 . S
C1090 C1091 1.367 . S
C1090 C1098 1.378 . S
C1091 C1090 1.367 . S
C1091 C1099 1.433 . S
C1092 H1088 0.929 . S
C1092 C1094 1.378 . S
C1092 C1096 1.350 . S
C1093 C1096 1.463 . S
C1093 C1098 1.350 . S
C1093 N1101 1.427 . S
C1094 H1085 0.930 . S
C1094 C1092 1.378 . S
C1094 C1095 1.367 . S
C1095 C1094 1.367 . S
C1095 C1097 1.433 . S
C1096 C1092 1.350 . S
C1096 C1093 1.463 . S
C1096 N1100 1.427 . S
C1097 H1087 0.929 . S
C1097 C1095 1.433 . S
C1097 N1100 1.384 . S
C1098 H1089 0.929 . S
C1098 C1090 1.378 . S
C1098 C1093 1.350 . S
C1099 H1086 0.929 . S
C1099 C1091 1.433 . S
C1099 N1101 1.384 . S
N1100 C1096 1.427 . S
N1100 C1097 1.384 . S
N1101 C1093 1.427 . S
N1101 C1099 1.384 . S
H1102 C1108 0.930 . S
H1103 C1112 0.930 . S
H1104 C1117 0.929 . S
H1105 C1115 0.929 . S
H1106 C1110 0.929 . S
H1107 C1116 0.929 . S
C1108 H1102 0.930 . S
C1108 C1109 1.367 . S
C1108 C1116 1.378 . S
C1109 C1108 1.367 . S
C1109 C1117 1.433 . S
C1110 H1106 0.929 . S
C1110 C1112 1.378 . S
C1110 C1114 1.350 . S
C1111 C1114 1.463 . S
C1111 C1116 1.350 . S
C1111 N1119 1.427 . S
C1112 H1103 0.930 . S
C1112 C1110 1.378 . S
C1112 C1113 1.367 . S
C1113 C1112 1.367 . S
C1113 C1115 1.433 . S
C1114 C1110 1.350 . S
C1114 C1111 1.463 . S
C1114 N1118 1.427 . S
C1115 H1105 0.929 . S
C1115 C1113 1.433 . S
C1115 N1118 1.384 . S
C1116 H1107 0.929 . S
C1116 C1108 1.378 . S
C1116 C1111 1.350 . S
C1117 H1104 0.929 . S
C1117 C1109 1.433 . S
C1117 N1119 1.384 . S
N1118 C1114 1.427 . S
N1118 C1115 1.384 . S
N1119 C1111 1.427 . S
N1119 C1117 1.384 . S
H1120 C1126 0.930 . S
H1121 C1130 0.930 . S
H1122 C1135 0.929 . S
H1123 C1133 0.929 . S
H1124 C1128 0.929 . S
H1125 C1134 0.929 . S
C1126 H1120 0.930 . S
C1126 C1127 1.367 . S
C1126 C1134 1.378 . S
C1127 C1126 1.367 . S
C1127 C1135 1.433 . S
C1128 H1124 0.929 . S
C1128 C1130 1.378 . S
C1128 C1132 1.350 . S
C1129 C1132 1.463 . S
C1129 C1134 1.350 . S
C1129 N1137 1.427 . S
C1130 H1121 0.930 . S
C1130 C1128 1.378 . S
C1130 C1131 1.367 . S
C1131 C1130 1.367 . S
C1131 C1133 1.433 . S
C1132 C1128 1.350 . S
C1132 C1129 1.463 . S
C1132 N1136 1.427 . S
C1133 H1123 0.929 . S
C1133 C1131 1.433 . S
C1133 N1136 1.384 . S
C1134 H1125 0.929 . S
C1134 C1126 1.378 . S
C1134 C1129 1.350 . S
C1135 H1122 0.929 . S
C1135 C1127 1.433 . S
C1135 N1137 1.384 . S
N1136 C1132 1.427 . S
N1136 C1133 1.384 . S
N1137 C1129 1.427 . S
N1137 C1135 1.384 . S
H1138 C1144 0.930 . S
H1139 C1148 0.930 . S
H1140 C1153 0.929 . S
H1141 C1151 0.929 . S
H1142 C1146 0.929 . S
H1143 C1152 0.929 . S
C1144 H1138 0.930 . S
C1144 C1145 1.367 . S
C1144 C1152 1.378 . S
C1145 C1144 1.367 . S
C1145 C1153 1.433 . S
C1146 H1142 0.929 . S
C1146 C1148 1.378 . S
C1146 C1150 1.350 . S
C1147 C1150 1.463 . S
C1147 C1152 1.350 . S
C1147 N1155 1.427 . S
C1148 H1139 0.930 . S
C1148 C1146 1.378 . S
C1148 C1149 1.367 . S
C1149 C1148 1.367 . S
C1149 C1151 1.433 . S
C1150 C1146 1.350 . S
C1150 C1147 1.463 . S
C1150 N1154 1.427 . S
C1151 H1141 0.929 . S
C1151 C1149 1.433 . S
C1151 N1154 1.384 . S
C1152 H1143 0.929 . S
C1152 C1144 1.378 . S
C1152 C1147 1.350 . S
C1153 H1140 0.929 . S
C1153 C1145 1.433 . S
C1153 N1155 1.384 . S
N1154 C1150 1.427 . S
N1154 C1151 1.384 . S
N1155 C1147 1.427 . S
N1155 C1153 1.384 . S
H1156 C1162 0.930 . S
H1157 C1166 0.930 . S
H1158 C1171 0.929 . S
H1159 C1169 0.929 . S
H1160 C1164 0.929 . S
H1161 C1170 0.929 . S
C1162 H1156 0.930 . S
C1162 C1163 1.367 . S
C1162 C1170 1.378 . S
C1163 C1162 1.367 . S
C1163 C1171 1.433 . S
C1164 H1160 0.929 . S
C1164 C1166 1.378 . S
C1164 C1168 1.350 . S
C1165 C1168 1.463 . S
C1165 C1170 1.350 . S
C1165 N1173 1.427 . S
C1166 H1157 0.930 . S
C1166 C1164 1.378 . S
C1166 C1167 1.367 . S
C1167 C1166 1.367 . S
C1167 C1169 1.433 . S
C1168 C1164 1.350 . S
C1168 C1165 1.463 . S
C1168 N1172 1.427 . S
C1169 H1159 0.929 . S
C1169 C1167 1.433 . S
C1169 N1172 1.384 . S
C1170 H1161 0.929 . S
C1170 C1162 1.378 . S
C1170 C1165 1.350 . S
C1171 H1158 0.929 . S
C1171 C1163 1.433 . S
C1171 N1173 1.384 . S
N1172 C1168 1.427 . S
N1172 C1169 1.384 . S
N1173 C1165 1.427 . S
N1173 C1171 1.384 . S
H1174 C1180 0.930 . S
H1175 C1184 0.930 . S
H1176 C1189 0.929 . S
H1177 C1187 0.929 . S
H1178 C1182 0.929 . S
H1179 C1188 0.929 . S
C1180 H1174 0.930 . S
C1180 C1181 1.367 . S
C1180 C1188 1.378 . S
C1181 C1180 1.367 . S
C1181 C1189 1.433 . S
C1182 H1178 0.929 . S
C1182 C1184 1.378 . S
C1182 C1186 1.350 . S
C1183 C1186 1.463 . S
C1183 C1188 1.350 . S
C1183 N1191 1.427 . S
C1184 H1175 0.930 . S
C1184 C1182 1.378 . S
C1184 C1185 1.367 . S
C1185 C1184 1.367 . S
C1185 C1187 1.433 . S
C1186 C1182 1.350 . S
C1186 C1183 1.463 . S
C1186 N1190 1.427 . S
C1187 H1177 0.929 . S
C1187 C1185 1.433 . S
C1187 N1190 1.384 . S
C1188 H1179 0.929 . S
C1188 C1180 1.378 . S
C1188 C1183 1.350 . S
C1189 H1176 0.929 . S
C1189 C1181 1.433 . S
C1189 N1191 1.384 . S
N1190 C1186 1.427 . S
N1190 C1187 1.384 . S
N1191 C1183 1.427 . S
N1191 C1189 1.384 . S
H1192 C1198 0.930 . S
H1193 C1202 0.930 . S
H1194 C1207 0.929 . S
H1195 C1205 0.929 . S
H1196 C1200 0.929 . S
H1197 C1206 0.929 . S
C1198 H1192 0.930 . S
C1198 C1199 1.367 . S
C1198 C1206 1.378 . S
C1199 C1198 1.367 . S
C1199 C1207 1.433 . S
C1200 H1196 0.929 . S
C1200 C1202 1.378 . S
C1200 C1204 1.350 . S
C1201 C1204 1.463 . S
C1201 C1206 1.350 . S
C1201 N1209 1.427 . S
C1202 H1193 0.930 . S
C1202 C1200 1.378 . S
C1202 C1203 1.367 . S
C1203 C1202 1.367 . S
C1203 C1205 1.433 . S
C1204 C1200 1.350 . S
C1204 C1201 1.463 . S
C1204 N1208 1.427 . S
C1205 H1195 0.929 . S
C1205 C1203 1.433 . S
C1205 N1208 1.384 . S
C1206 H1197 0.929 . S
C1206 C1198 1.378 . S
C1206 C1201 1.350 . S
C1207 H1194 0.929 . S
C1207 C1199 1.433 . S
C1207 N1209 1.384 . S
N1208 C1204 1.427 . S
N1208 C1205 1.384 . S
N1209 C1201 1.427 . S
N1209 C1207 1.384 . S
C357 C171 1.548 . S
C353 C9 1.577 . S
C375 C161 1.357 . S
C371 C22 1.359 . S
C393 C162 0.876 . S
C389 C49 0.871 . S
C407 C61 1.286 . S
C411 C184 1.268 . S
C425 C81 1.351 . S
C429 C187 1.343 . S
C447 C170 0.855 . S
C443 C108 0.870 . S
C461 C122 1.285 . S
C465 C160 1.264 . S
C479 C148 1.581 . S
C483 C178 1.553 . S
C501 C191 2.151 . S
C497 C18 2.129 . S
C515 C39 1.438 . S
C519 C240 1.406 . S
C537 C218 2.219 . S
C533 C58 2.212 . S
C555 C232 0.825 . S
C551 C69 0.858 . S
C569 C89 0.845 . S
C573 C193 0.841 . S
C591 C246 1.301 . S
C587 C102 1.321 . S
C605 C139 1.435 . S
C609 C202 1.410 . S
C623 C142 1.382 . S
C627 C223 1.355 . S
C641 C1 1.377 . S
C645 C249 1.361 . S
C659 C98 1.437 . S
C663 C233 1.406 . S
C681 C192 2.220 . S
C677 C119 2.211 . S
C699 C224 0.836 . S
C695 C128 0.850 . S
C713 C159 2.132 . S
C717 C215 2.154 . S
C731 C41 1.329 . S
C735 C222 1.303 . S
C753 C209 1.421 . S
C749 C78 1.448 . S
C767 C28 0.856 . S
C771 C201 0.850 . S
C785 C149 1.584 . S
C789 C264 1.556 . S
C803 C82 1.358 . S
C807 C254 1.346 . S
C825 C255 0.875 . S
C821 C109 0.867 . S
C843 C277 1.280 . S
C839 C121 1.295 . S
C857 C21 1.354 . S
C861 C280 1.343 . S
C879 C263 0.861 . S
C875 C48 0.879 . S
C893 C62 1.298 . S
C897 C253 1.275 . S
C911 C8 1.578 . S
C915 C271 1.544 . S
C929 C158 2.139 . S
C933 C284 2.146 . S
C951 C333 1.421 . S
C947 C99 1.447 . S
C965 C118 2.210 . S
C969 C311 2.218 . S
C983 C129 0.853 . S
C987 C325 0.852 . S
C1005 C286 0.828 . S
C1001 C29 0.847 . S
C1019 C42 1.332 . S
C1023 C339 1.285 . S
C1041 C295 1.423 . S
C1037 C79 1.445 . S
C1059 C316 1.362 . S
C1055 C2 1.373 . S
C1077 C342 1.360 . S
C1073 C141 1.379 . S
C1091 C38 1.446 . S
C1095 C326 1.415 . S
C1109 C59 2.213 . S
C1113 C285 2.223 . S
C1131 C317 0.842 . S
C1127 C68 0.848 . S
C1145 C19 2.134 . S
C1149 C308 2.145 . S
C1163 C101 1.331 . S
C1167 C315 1.284 . S
C1185 C302 1.408 . S
C1181 C138 1.442 . S
C1203 C294 0.836 . S
C1199 C88 0.841 . S
