# Generated by pormake.
# Topology gar, (4,6)-cn, num edge types: 1
# Building blocks:
#     Node 0, Type 0, BuildingBlock: UXUYUI_clean_sbu_0, # of connection points: 4
#     Node 1, Type 0, BuildingBlock: UXUYUI_clean_sbu_0, # of connection points: 4
#     Node 2, Type 0, BuildingBlock: UXUYUI_clean_sbu_0, # of connection points: 4
#     Node 3, Type 0, BuildingBlock: UXUYUI_clean_sbu_0, # of connection points: 4
#     Node 4, Type 0, BuildingBlock: UXUYUI_clean_sbu_0, # of connection points: 4
#     Node 5, Type 0, BuildingBlock: UXUYUI_clean_sbu_0, # of connection points: 4
#     Node 6, Type 0, BuildingBlock: UXUYUI_clean_sbu_0, # of connection points: 4
#     Node 7, Type 0, BuildingBlock: UXUYUI_clean_sbu_0, # of connection points: 4
#     Node 8, Type 0, BuildingBlock: UXUYUI_clean_sbu_0, # of connection points: 4
#     Node 9, Type 0, BuildingBlock: UXUYUI_clean_sbu_0, # of connection points: 4
#     Node 10, Type 0, BuildingBlock: UXUYUI_clean_sbu_0, # of connection points: 4
#     Node 11, Type 0, BuildingBlock: UXUYUI_clean_sbu_0, # of connection points: 4
#     Node 12, Type 0, BuildingBlock: UXUYUI_clean_sbu_0, # of connection points: 4
#     Node 13, Type 0, BuildingBlock: UXUYUI_clean_sbu_0, # of connection points: 4
#     Node 14, Type 0, BuildingBlock: UXUYUI_clean_sbu_0, # of connection points: 4
#     Node 15, Type 0, BuildingBlock: UXUYUI_clean_sbu_0, # of connection points: 4
#     Node 16, Type 0, BuildingBlock: UXUYUI_clean_sbu_0, # of connection points: 4
#     Node 17, Type 0, BuildingBlock: UXUYUI_clean_sbu_0, # of connection points: 4
#     Node 18, Type 0, BuildingBlock: UXUYUI_clean_sbu_0, # of connection points: 4
#     Node 19, Type 0, BuildingBlock: UXUYUI_clean_sbu_0, # of connection points: 4
#     Node 20, Type 0, BuildingBlock: UXUYUI_clean_sbu_0, # of connection points: 4
#     Node 21, Type 0, BuildingBlock: UXUYUI_clean_sbu_0, # of connection points: 4
#     Node 22, Type 0, BuildingBlock: UXUYUI_clean_sbu_0, # of connection points: 4
#     Node 23, Type 0, BuildingBlock: UXUYUI_clean_sbu_0, # of connection points: 4
#     Node 24, Type 1, BuildingBlock: PAMTOO_clean_sbu_0, # of connection points: 6
#     Node 25, Type 1, BuildingBlock: PAMTOO_clean_sbu_0, # of connection points: 6
#     Node 26, Type 1, BuildingBlock: PAMTOO_clean_sbu_0, # of connection points: 6
#     Node 27, Type 1, BuildingBlock: PAMTOO_clean_sbu_0, # of connection points: 6
#     Node 28, Type 1, BuildingBlock: PAMTOO_clean_sbu_0, # of connection points: 6
#     Node 29, Type 1, BuildingBlock: PAMTOO_clean_sbu_0, # of connection points: 6
#     Node 30, Type 1, BuildingBlock: PAMTOO_clean_sbu_0, # of connection points: 6
#     Node 31, Type 1, BuildingBlock: PAMTOO_clean_sbu_0, # of connection points: 6
#     Node 32, Type 1, BuildingBlock: PAMTOO_clean_sbu_0, # of connection points: 6
#     Node 33, Type 1, BuildingBlock: PAMTOO_clean_sbu_0, # of connection points: 6
#     Node 34, Type 1, BuildingBlock: PAMTOO_clean_sbu_0, # of connection points: 6
#     Node 35, Type 1, BuildingBlock: PAMTOO_clean_sbu_0, # of connection points: 6
#     Node 36, Type 1, BuildingBlock: PAMTOO_clean_sbu_0, # of connection points: 6
#     Node 37, Type 1, BuildingBlock: PAMTOO_clean_sbu_0, # of connection points: 6
#     Node 38, Type 1, BuildingBlock: PAMTOO_clean_sbu_0, # of connection points: 6
#     Node 39, Type 1, BuildingBlock: PAMTOO_clean_sbu_0, # of connection points: 6
#     Edge 40, Type (0, 1), BuildingBlock: EZIPEK_clean_linker_0, # of connection points: 2
#     Edge 41, Type (0, 1), BuildingBlock: EZIPEK_clean_linker_0, # of connection points: 2
#     Edge 42, Type (0, 1), BuildingBlock: EZIPEK_clean_linker_0, # of connection points: 2
#     Edge 43, Type (0, 1), BuildingBlock: EZIPEK_clean_linker_0, # of connection points: 2
#     Edge 44, Type (0, 1), BuildingBlock: EZIPEK_clean_linker_0, # of connection points: 2
#     Edge 45, Type (0, 1), BuildingBlock: EZIPEK_clean_linker_0, # of connection points: 2
#     Edge 46, Type (0, 1), BuildingBlock: EZIPEK_clean_linker_0, # of connection points: 2
#     Edge 47, Type (0, 1), BuildingBlock: EZIPEK_clean_linker_0, # of connection points: 2
#     Edge 48, Type (0, 1), BuildingBlock: EZIPEK_clean_linker_0, # of connection points: 2
#     Edge 49, Type (0, 1), BuildingBlock: EZIPEK_clean_linker_0, # of connection points: 2
#     Edge 50, Type (0, 1), BuildingBlock: EZIPEK_clean_linker_0, # of connection points: 2
#     Edge 51, Type (0, 1), BuildingBlock: EZIPEK_clean_linker_0, # of connection points: 2
#     Edge 52, Type (0, 1), BuildingBlock: EZIPEK_clean_linker_0, # of connection points: 2
#     Edge 53, Type (0, 1), BuildingBlock: EZIPEK_clean_linker_0, # of connection points: 2
#     Edge 54, Type (0, 1), BuildingBlock: EZIPEK_clean_linker_0, # of connection points: 2
#     Edge 55, Type (0, 1), BuildingBlock: EZIPEK_clean_linker_0, # of connection points: 2
#     Edge 56, Type (0, 1), BuildingBlock: EZIPEK_clean_linker_0, # of connection points: 2
#     Edge 57, Type (0, 1), BuildingBlock: EZIPEK_clean_linker_0, # of connection points: 2
#     Edge 58, Type (0, 1), BuildingBlock: EZIPEK_clean_linker_0, # of connection points: 2
#     Edge 59, Type (0, 1), BuildingBlock: EZIPEK_clean_linker_0, # of connection points: 2
#     Edge 60, Type (0, 1), BuildingBlock: EZIPEK_clean_linker_0, # of connection points: 2
#     Edge 61, Type (0, 1), BuildingBlock: EZIPEK_clean_linker_0, # of connection points: 2
#     Edge 62, Type (0, 1), BuildingBlock: EZIPEK_clean_linker_0, # of connection points: 2
#     Edge 63, Type (0, 1), BuildingBlock: EZIPEK_clean_linker_0, # of connection points: 2
#     Edge 64, Type (0, 1), BuildingBlock: EZIPEK_clean_linker_0, # of connection points: 2
#     Edge 65, Type (0, 1), BuildingBlock: EZIPEK_clean_linker_0, # of connection points: 2
#     Edge 66, Type (0, 1), BuildingBlock: EZIPEK_clean_linker_0, # of connection points: 2
#     Edge 67, Type (0, 1), BuildingBlock: EZIPEK_clean_linker_0, # of connection points: 2
#     Edge 68, Type (0, 1), BuildingBlock: EZIPEK_clean_linker_0, # of connection points: 2
#     Edge 69, Type (0, 1), BuildingBlock: EZIPEK_clean_linker_0, # of connection points: 2
#     Edge 70, Type (0, 1), BuildingBlock: EZIPEK_clean_linker_0, # of connection points: 2
#     Edge 71, Type (0, 1), BuildingBlock: EZIPEK_clean_linker_0, # of connection points: 2
#     Edge 72, Type (0, 1), BuildingBlock: EZIPEK_clean_linker_0, # of connection points: 2
#     Edge 73, Type (0, 1), BuildingBlock: EZIPEK_clean_linker_0, # of connection points: 2
#     Edge 74, Type (0, 1), BuildingBlock: EZIPEK_clean_linker_0, # of connection points: 2
#     Edge 75, Type (0, 1), BuildingBlock: EZIPEK_clean_linker_0, # of connection points: 2
#     Edge 76, Type (0, 1), BuildingBlock: EZIPEK_clean_linker_0, # of connection points: 2
#     Edge 77, Type (0, 1), BuildingBlock: EZIPEK_clean_linker_0, # of connection points: 2
#     Edge 78, Type (0, 1), BuildingBlock: EZIPEK_clean_linker_0, # of connection points: 2
#     Edge 79, Type (0, 1), BuildingBlock: EZIPEK_clean_linker_0, # of connection points: 2
#     Edge 80, Type (0, 1), BuildingBlock: EZIPEK_clean_linker_0, # of connection points: 2
#     Edge 81, Type (0, 1), BuildingBlock: EZIPEK_clean_linker_0, # of connection points: 2
#     Edge 82, Type (0, 1), BuildingBlock: EZIPEK_clean_linker_0, # of connection points: 2
#     Edge 83, Type (0, 1), BuildingBlock: EZIPEK_clean_linker_0, # of connection points: 2
#     Edge 84, Type (0, 1), BuildingBlock: EZIPEK_clean_linker_0, # of connection points: 2
#     Edge 85, Type (0, 1), BuildingBlock: EZIPEK_clean_linker_0, # of connection points: 2
#     Edge 86, Type (0, 1), BuildingBlock: EZIPEK_clean_linker_0, # of connection points: 2
#     Edge 87, Type (0, 1), BuildingBlock: EZIPEK_clean_linker_0, # of connection points: 2
#     Edge 88, Type (0, 1), BuildingBlock: EZIPEK_clean_linker_0, # of connection points: 2
#     Edge 89, Type (0, 1), BuildingBlock: EZIPEK_clean_linker_0, # of connection points: 2
#     Edge 90, Type (0, 1), BuildingBlock: EZIPEK_clean_linker_0, # of connection points: 2
#     Edge 91, Type (0, 1), BuildingBlock: EZIPEK_clean_linker_0, # of connection points: 2
#     Edge 92, Type (0, 1), BuildingBlock: EZIPEK_clean_linker_0, # of connection points: 2
#     Edge 93, Type (0, 1), BuildingBlock: EZIPEK_clean_linker_0, # of connection points: 2
#     Edge 94, Type (0, 1), BuildingBlock: EZIPEK_clean_linker_0, # of connection points: 2
#     Edge 95, Type (0, 1), BuildingBlock: EZIPEK_clean_linker_0, # of connection points: 2
#     Edge 96, Type (0, 1), BuildingBlock: EZIPEK_clean_linker_0, # of connection points: 2
#     Edge 97, Type (0, 1), BuildingBlock: EZIPEK_clean_linker_0, # of connection points: 2
#     Edge 98, Type (0, 1), BuildingBlock: EZIPEK_clean_linker_0, # of connection points: 2
#     Edge 99, Type (0, 1), BuildingBlock: EZIPEK_clean_linker_0, # of connection points: 2
#     Edge 100, Type (0, 1), BuildingBlock: EZIPEK_clean_linker_0, # of connection points: 2
#     Edge 101, Type (0, 1), BuildingBlock: EZIPEK_clean_linker_0, # of connection points: 2
#     Edge 102, Type (0, 1), BuildingBlock: EZIPEK_clean_linker_0, # of connection points: 2
#     Edge 103, Type (0, 1), BuildingBlock: EZIPEK_clean_linker_0, # of connection points: 2
#     Edge 104, Type (0, 1), BuildingBlock: EZIPEK_clean_linker_0, # of connection points: 2
#     Edge 105, Type (0, 1), BuildingBlock: EZIPEK_clean_linker_0, # of connection points: 2
#     Edge 106, Type (0, 1), BuildingBlock: EZIPEK_clean_linker_0, # of connection points: 2
#     Edge 107, Type (0, 1), BuildingBlock: EZIPEK_clean_linker_0, # of connection points: 2
#     Edge 108, Type (0, 1), BuildingBlock: EZIPEK_clean_linker_0, # of connection points: 2
#     Edge 109, Type (0, 1), BuildingBlock: EZIPEK_clean_linker_0, # of connection points: 2
#     Edge 110, Type (0, 1), BuildingBlock: EZIPEK_clean_linker_0, # of connection points: 2
#     Edge 111, Type (0, 1), BuildingBlock: EZIPEK_clean_linker_0, # of connection points: 2
#     Edge 112, Type (0, 1), BuildingBlock: EZIPEK_clean_linker_0, # of connection points: 2
#     Edge 113, Type (0, 1), BuildingBlock: EZIPEK_clean_linker_0, # of connection points: 2
#     Edge 114, Type (0, 1), BuildingBlock: EZIPEK_clean_linker_0, # of connection points: 2
#     Edge 115, Type (0, 1), BuildingBlock: EZIPEK_clean_linker_0, # of connection points: 2
#     Edge 116, Type (0, 1), BuildingBlock: EZIPEK_clean_linker_0, # of connection points: 2
#     Edge 117, Type (0, 1), BuildingBlock: EZIPEK_clean_linker_0, # of connection points: 2
#     Edge 118, Type (0, 1), BuildingBlock: EZIPEK_clean_linker_0, # of connection points: 2
#     Edge 119, Type (0, 1), BuildingBlock: EZIPEK_clean_linker_0, # of connection points: 2
#     Edge 120, Type (0, 1), BuildingBlock: EZIPEK_clean_linker_0, # of connection points: 2
#     Edge 121, Type (0, 1), BuildingBlock: EZIPEK_clean_linker_0, # of connection points: 2
#     Edge 122, Type (0, 1), BuildingBlock: EZIPEK_clean_linker_0, # of connection points: 2
#     Edge 123, Type (0, 1), BuildingBlock: EZIPEK_clean_linker_0, # of connection points: 2
#     Edge 124, Type (0, 1), BuildingBlock: EZIPEK_clean_linker_0, # of connection points: 2
#     Edge 125, Type (0, 1), BuildingBlock: EZIPEK_clean_linker_0, # of connection points: 2
#     Edge 126, Type (0, 1), BuildingBlock: EZIPEK_clean_linker_0, # of connection points: 2
#     Edge 127, Type (0, 1), BuildingBlock: EZIPEK_clean_linker_0, # of connection points: 2
#     Edge 128, Type (0, 1), BuildingBlock: EZIPEK_clean_linker_0, # of connection points: 2
#     Edge 129, Type (0, 1), BuildingBlock: EZIPEK_clean_linker_0, # of connection points: 2
#     Edge 130, Type (0, 1), BuildingBlock: EZIPEK_clean_linker_0, # of connection points: 2
#     Edge 131, Type (0, 1), BuildingBlock: EZIPEK_clean_linker_0, # of connection points: 2
#     Edge 132, Type (0, 1), BuildingBlock: EZIPEK_clean_linker_0, # of connection points: 2
#     Edge 133, Type (0, 1), BuildingBlock: EZIPEK_clean_linker_0, # of connection points: 2
#     Edge 134, Type (0, 1), BuildingBlock: EZIPEK_clean_linker_0, # of connection points: 2
#     Edge 135, Type (0, 1), BuildingBlock: EZIPEK_clean_linker_0, # of connection points: 2
# Relax obj value: 0.173
# Max RMSD: 0.261
# Mean RMSD: 0.203
data_MOF--net-gar--node1-UXUYUI_clean_sbu_0--node2-PAMTOO_clean_sbu_0--edge1-EZIPEK_clean_linker_0
_symmetry_space_group_name_H-M    P1
_symmetry_Int_Tables_number       1
_symmetry_cell_setting            triclinic
loop_
_symmetry_equiv_pos_as_xyz
'x, y, z'
_cell_length_a     57.394506
_cell_length_b     57.604546
_cell_length_c     55.685306
_cell_angle_alpha  96.646601
_cell_angle_beta   95.997642
_cell_angle_gamma 105.15197
loop_
_atom_site_label
_atom_site_type_symbol
_atom_site_fract_x
_atom_site_fract_y
_atom_site_fract_z
_atom_type_partial_charge
Li0 Li 0.03831 0.33382 0.35382 0.0
Li1 Li 0.06753 0.36339 0.38817 0.0
Li2 Li 0.08534 0.33669 0.35614 0.0
Li3 Li 0.06103 0.31779 0.38744 0.0
C4 C 0.05978 0.37177 0.33121 0.0
N5 N 0.04375 0.38897 0.29013 0.0
C6 C 0.04829 0.39035 0.33344 0.0
C7 C 0.06333 0.36206 0.30815 0.0
C8 C 0.04025 0.39876 0.31243 0.0
C9 C 0.05505 0.37098 0.28758 0.0
C10 C 0.02051 0.33531 0.40479 0.0
C11 C 1.00831 0.34488 0.44408 0.0
N12 N 0.98544 0.33031 0.43576 0.0
C13 C 0.99684 0.32049 0.39662 0.0
C14 C 0.02628 0.34766 0.42871 0.0
C15 C 0.97939 0.31816 0.41256 0.0
C16 C 0.98947 0.30948 0.32411 0.0
N17 N 1.00424 0.33045 0.33763 0.0
C18 C 0.96972 0.34713 0.3383 0.0
C19 C 0.99468 0.34916 0.3445 0.0
C20 C 0.95393 0.32556 0.32491 0.0
C21 C 0.96429 0.30671 0.31747 0.0
H22 H 0.99691 0.29441 0.31934 0.0
H23 H 1.00624 0.36539 0.35589 0.0
C24 C 0.08884 0.40721 0.42501 0.0
N25 N 0.06929 0.39418 0.40841 0.0
C26 C 0.08766 0.42811 0.44015 0.0
C27 C 0.04645 0.42194 0.42082 0.0
C28 C 0.04842 0.4013 0.40608 0.0
C29 C 0.06615 0.43557 0.43824 0.0
H30 H 0.10518 0.40117 0.42684 0.0
H31 H 0.03297 0.39053 0.3931 0.0
C32 C 0.05691 0.29016 0.33298 0.0
N33 N 0.05981 0.25558 0.29556 0.0
C34 C 0.06593 0.27074 0.3382 0.0
C35 C 0.0492 0.29195 0.3088 0.0
C36 C 0.0673 0.25345 0.319 0.0
C37 C 0.05086 0.2743 0.29012 0.0
C38 C 0.10718 0.34406 0.41367 0.0
C39 C 0.13013 0.34032 0.41226 0.0
C40 C 0.09926 0.3471 0.43641 0.0
C41 C 0.14471 0.33945 0.43368 0.0
C42 C 0.11437 0.34612 0.45741 0.0
N43 N 0.13659 0.34233 0.45562 0.0
C44 C 0.12867 0.35097 0.32851 0.0
C45 C 0.1249 0.31484 0.34562 0.0
C46 C 0.15097 0.34929 0.32053 0.0
N47 N 0.11593 0.3339 0.34098 0.0
C48 C 0.14711 0.31255 0.33807 0.0
C49 C 0.16073 0.32996 0.32542 0.0
H50 H 0.12186 0.36628 0.3251 0.0
H51 H 0.11517 0.30157 0.35591 0.0
C52 C 0.03495 0.2799 0.41165 0.0
N53 N 0.05758 0.29156 0.4071 0.0
C54 C 0.0317 0.26083 0.42556 0.0
C55 C 0.075 0.26543 0.42938 0.0
C56 C 0.07742 0.28439 0.41535 0.0
C57 C 0.05191 0.25351 0.4347 0.0
H58 H 0.0193 0.28518 0.40429 0.0
H59 H 0.09513 0.29323 0.41089 0.0
O60 O 0.06749 0.36306 0.3515 0.0
O61 O 0.0378 0.33801 0.38935 0.0
O62 O 0.05527 0.30714 0.35151 0.0
O63 O 0.09251 0.34461 0.39287 0.0
H64 H 0.04557 0.39816 0.3512 0.0
H65 H 0.07238 0.34779 0.30618 0.0
H66 H 0.03123 0.41307 0.31386 0.0
H67 H 0.0576 0.3636 0.26959 0.0
H68 H 1.01255 0.35436 0.46262 0.0
H69 H 0.99204 0.31058 0.37828 0.0
H70 H 0.04437 0.35941 0.43535 0.0
H71 H 0.96106 0.30665 0.4065 0.0
H72 H 0.96263 0.36209 0.34456 0.0
H73 H 0.95286 0.28969 0.30724 0.0
H74 H 0.10319 0.4381 0.4535 0.0
H75 H 0.02953 0.42701 0.41891 0.0
H76 H 0.07181 0.26905 0.35688 0.0
H77 H 0.04192 0.30676 0.30452 0.0
H78 H 0.07428 0.23833 0.32274 0.0
H79 H 0.045 0.27546 0.2713 0.0
H80 H 0.13663 0.33811 0.39484 0.0
H81 H 0.08157 0.34997 0.4378 0.0
H82 H 0.16248 0.3365 0.43285 0.0
H83 H 0.10842 0.34833 0.47513 0.0
H84 H 0.16073 0.36324 0.31092 0.0
H85 H 0.15375 0.29737 0.34239 0.0
H86 H 1.01359 0.25185 0.42912 0.0
H87 H 0.09095 0.26004 0.43597 0.0
Li88 Li 0.0348 0.78786 0.69063 0.0
Li89 Li 0.0548 0.77119 0.72397 0.0
Li90 Li 0.02697 0.74217 0.68998 0.0
Li91 Li 1.00817 0.76769 0.72209 0.0
C92 C 0.07504 0.77066 0.67446 0.0
N93 N 0.11131 0.7773 0.64489 0.0
C94 C 0.09846 0.78557 0.68363 0.0
C95 C 0.07005 0.75927 0.65019 0.0
C96 C 0.11656 0.78864 0.66841 0.0
C97 C 0.08863 0.76284 0.63555 0.0
C98 C 0.05164 0.81746 0.7422 0.0
C99 C 0.06267 0.84195 0.78195 0.0
N100 N 0.0811 0.85748 0.77345 0.0
C101 C 0.07066 0.83364 0.73382 0.0
C102 C 0.04755 0.8216 0.76642 0.0
C103 C 0.08536 0.85379 0.74993 0.0
C104 C 0.01868 0.82347 0.66703 0.0
N105 N 0.0379 0.81395 0.67082 0.0
C106 C 0.06094 0.84177 0.64737 0.0
C107 C 0.05883 0.82284 0.66136 0.0
C108 C 0.04144 0.8519 0.64321 0.0
C109 C 0.02008 0.84259 0.65327 0.0
H110 H 1.00226 0.81625 0.6748 0.0
H111 H 0.07408 0.81552 0.66479 0.0
C112 C 0.09869 0.75685 0.73272 0.0
N113 N 0.08829 0.77422 0.74169 0.0
C114 C 0.12346 0.75869 0.73983 0.0
C115 C 0.12684 0.79587 0.76625 0.0
C116 C 0.1019 0.79334 0.75862 0.0
C117 C 0.1381 0.77862 0.7565 0.0
H118 H 0.088 0.74197 0.71903 0.0
H119 H 0.09381 0.80715 0.76569 0.0
C120 C 0.98844 0.75529 0.6627 0.0
N121 N 0.95949 0.74141 0.61782 0.0
C122 C 0.96331 0.74525 0.66133 0.0
C123 C 0.99887 0.75836 0.6413 0.0
C124 C 0.94897 0.73832 0.63844 0.0
C125 C 0.98391 0.75121 0.61877 0.0
C126 C 0.03678 0.73352 0.74548 0.0
C127 C 0.04656 0.71383 0.74152 0.0
C128 C 0.03854 0.74548 0.76918 0.0
C129 C 0.0581 0.70645 0.76143 0.0
C130 C 0.05022 0.73754 0.78861 0.0
N131 N 0.05968 0.71837 0.78437 0.0
C132 C 0.0465 0.70566 0.6693 0.0
C133 C 1.00462 0.69734 0.65422 0.0
C134 C 0.04838 0.68536 0.65394 0.0
N135 N 0.02498 0.71156 0.66904 0.0
C136 C 1.00563 0.67657 0.63873 0.0
C137 C 0.02785 0.67053 0.63823 0.0
H138 H 0.06248 0.71712 0.68114 0.0
H139 H 0.98765 0.70221 0.65414 0.0
C140 C 0.97491 0.79219 0.7453 0.0
N141 N 0.9772 0.76985 0.73647 0.0
C142 C 0.95284 0.79495 0.75281 0.0
C143 C 0.93536 0.75178 0.74242 0.0
C144 C 0.95779 0.7498 0.7351 0.0
C145 C 0.93242 0.77465 0.75129 0.0
H146 H 0.99007 0.80813 0.74596 0.0
H147 H 0.95939 0.73216 0.72768 0.0
O148 O 0.05713 0.76716 0.68917 0.0
O149 O 0.03702 0.79769 0.72674 0.0
O150 O 1.00277 0.76206 0.68491 0.0
O151 O 0.02595 0.7414 0.72621 0.0
H152 H 0.10258 0.79497 0.70219 0.0
H153 H 0.05204 0.74774 0.64273 0.0
H154 H 0.13475 0.80011 0.67528 0.0
H155 H 0.08503 0.75408 0.61675 0.0
H156 H 0.05978 0.84538 0.80077 0.0
H157 H 0.07413 0.83058 0.71515 0.0
H158 H 0.0329 0.80918 0.77313 0.0
H159 H 0.10019 0.86646 0.74374 0.0
H160 H 0.07772 0.84858 0.63998 0.0
H161 H 1.0047 0.85004 0.65048 0.0
H162 H 0.13131 0.74497 0.73182 0.0
H163 H 0.13741 0.81153 0.77919 0.0
H164 H 0.955 0.7428 0.67777 0.0
H165 H 0.01827 0.76625 0.6421 0.0
H166 H 0.92949 0.73048 0.63708 0.0
H167 H 0.99172 0.75347 0.60204 0.0
H168 H 0.04537 0.70444 0.72324 0.0
H169 H 0.03113 0.76083 0.77248 0.0
H170 H 0.06582 0.69128 0.75865 0.0
H171 H 0.05182 0.74666 0.80706 0.0
H172 H 0.06584 0.68141 0.65414 0.0
H173 H 0.98934 0.66557 0.62692 0.0
H174 H 0.95158 0.81298 0.75933 0.0
H175 H 0.92023 0.73558 0.74068 0.0
Li176 Li 0.53592 0.8308 0.85152 0.0
Li177 Li 0.56516 0.86085 0.88551 0.0
Li178 Li 0.58342 0.83438 0.854 0.0
Li179 Li 0.55965 0.81572 0.88592 0.0
C180 C 0.55997 0.87191 0.83013 0.0
N181 N 0.55046 0.89614 0.79191 0.0
C182 C 0.5531 0.89339 0.83454 0.0
C183 C 0.56224 0.86284 0.80638 0.0
C184 C 0.54831 0.90536 0.81494 0.0
C185 C 0.55727 0.87533 0.78727 0.0
C186 C 0.52142 0.83696 0.90525 0.0
C187 C 0.51477 0.83683 0.9473 0.0
N188 N 0.49287 0.84128 0.94161 0.0
C189 C 0.49877 0.84139 0.89979 0.0
C190 C 0.52944 0.83456 0.92916 0.0
C191 C 0.48464 0.84359 0.91844 0.0
C192 C 0.48466 0.80499 0.83901 0.0
N193 N 0.50153 0.82531 0.8351 0.0
C194 C 0.46892 0.84029 0.8176 0.0
C195 C 0.49397 0.84273 0.82435 0.0
C196 C 0.45114 0.81986 0.82213 0.0
C197 C 0.45947 0.80191 0.83268 0.0
H198 H 0.4907 0.79158 0.84816 0.0
H199 H 0.50721 0.85908 0.82181 0.0
C200 C 0.58824 0.907 0.91847 0.0
N201 N 0.56719 0.89207 0.90537 0.0
C202 C 0.58802 0.92835 0.93348 0.0
C203 C 0.54462 0.91872 0.92129 0.0
C204 C 0.54575 0.89794 0.90617 0.0
C205 C 0.56588 0.93423 0.9354 0.0
H206 H 0.60517 0.90222 0.91755 0.0
H207 H 0.52934 0.88632 0.89518 0.0
C208 C 0.55376 0.78654 0.832 0.0
N209 N 0.55328 0.74952 0.79556 0.0
C210 C 0.56052 0.76606 0.8379 0.0
C211 C 0.54655 0.78814 0.80764 0.0
C212 C 0.56022 0.74755 0.81919 0.0
C213 C 0.54649 0.76924 0.78946 0.0
C214 C 0.6064 0.84391 0.91121 0.0
C215 C 0.62777 0.83688 0.90934 0.0
C216 C 0.60138 0.85227 0.93413 0.0
C217 C 0.64355 0.83791 0.93055 0.0
C218 C 0.61762 0.85303 0.95492 0.0
N219 N 0.63818 0.84586 0.95272 0.0
C220 C 0.62862 0.84996 0.82966 0.0
C221 C 0.62049 0.81047 0.84027 0.0
C222 C 0.65092 0.84793 0.82198 0.0
N223 N 0.61375 0.83139 0.83879 0.0
C224 C 0.64249 0.80767 0.83271 0.0
C225 C 0.65839 0.8266 0.82357 0.0
H226 H 0.62356 0.86671 0.82885 0.0
H227 H 0.60916 0.79603 0.84812 0.0
C228 C 0.53332 0.77728 0.90854 0.0
N229 N 0.55626 0.78979 0.90562 0.0
C230 C 0.52972 0.75813 0.92237 0.0
C231 C 0.57334 0.76475 0.92969 0.0
C232 C 0.57611 0.78365 0.9156 0.0
C233 C 0.54992 0.75182 0.93321 0.0
H234 H 0.51779 0.78218 0.9001 0.0
H235 H 0.5941 0.79325 0.91251 0.0
O236 O 0.5648 0.85999 0.84905 0.0
O237 O 0.53542 0.83455 0.88717 0.0
O238 O 0.55381 0.80475 0.85004 0.0
O239 O 0.59073 0.84301 0.89064 0.0
H240 H 0.55139 0.90068 0.85287 0.0
H241 H 0.56781 0.84636 0.80277 0.0
H242 H 0.54288 0.92196 0.81803 0.0
H243 H 0.55887 0.86851 0.76876 0.0
H244 H 0.52075 0.83497 0.96587 0.0
H245 H 0.49226 0.84337 0.88141 0.0
H246 H 0.54668 0.83068 0.93365 0.0
H247 H 0.46714 0.84713 0.9145 0.0
H248 H 0.46345 0.85461 0.80954 0.0
H249 H 0.44653 0.78589 0.83658 0.0
H250 H 0.60487 0.93988 0.94394 0.0
H251 H 0.5272 0.92258 0.92208 0.0
H252 H 0.566 0.76453 0.85672 0.0
H253 H 0.54101 0.80378 0.80286 0.0
H254 H 0.56549 0.73162 0.82345 0.0
H255 H 0.54099 0.77023 0.77051 0.0
H256 H 0.63204 0.83057 0.89172 0.0
H257 H 0.58522 0.85828 0.93586 0.0
H258 H 0.66007 0.83238 0.9294 0.0
H259 H 0.61392 0.8594 0.97279 0.0
H260 H 0.66248 0.86313 0.81523 0.0
H261 H 0.64732 0.79093 0.8345 0.0
H262 H 0.51139 0.74842 0.92468 0.0
H263 H 0.58929 0.76018 0.93769 0.0
Li264 Li 0.53616 0.28841 0.19099 0.0
Li265 Li 0.55646 0.27217 0.2247 0.0
Li266 Li 0.52805 0.24282 0.19084 0.0
Li267 Li 0.50966 0.26896 0.22294 0.0
C268 C 0.5749 0.26971 0.17365 0.0
N269 N 0.60848 0.27341 0.14117 0.0
C270 C 0.59916 0.28314 0.18127 0.0
C271 C 0.56772 0.25816 0.1495 0.0
C272 C 0.61586 0.2848 0.16457 0.0
C273 C 0.58497 0.26025 0.13336 0.0
C274 C 0.55173 0.31835 0.24362 0.0
C275 C 0.56034 0.34057 0.28444 0.0
N276 N 0.57784 0.35819 0.27716 0.0
C277 C 0.56973 0.33669 0.23649 0.0
C278 C 0.54689 0.3203 0.26773 0.0
C279 C 0.58275 0.3567 0.25374 0.0
C280 C 0.51943 0.32099 0.16318 0.0
N281 N 0.53959 0.31409 0.17085 0.0
C282 C 0.56427 0.34391 0.15052 0.0
C283 C 0.56178 0.32526 0.16492 0.0
C284 C 0.54375 0.35123 0.14227 0.0
C285 C 0.5211 0.33959 0.14875 0.0
H286 H 0.50201 0.31203 0.16828 0.0
H287 H 0.57765 0.3199 0.17153 0.0
C288 C 0.59988 0.25688 0.23509 0.0
N289 N 0.59026 0.27551 0.24207 0.0
C290 C 0.62468 0.25858 0.24207 0.0
C291 C 0.62977 0.29848 0.26395 0.0
C292 C 0.60477 0.29598 0.25664 0.0
C293 C 0.64024 0.27978 0.25634 0.0
H294 H 0.58853 0.24094 0.2231 0.0
H295 H 0.59735 0.31086 0.26201 0.0
C296 C 0.48862 0.25559 0.1642 0.0
N297 N 0.45745 0.24052 0.12066 0.0
C298 C 0.46383 0.2447 0.16422 0.0
C299 C 0.49757 0.25892 0.14208 0.0
C300 C 0.44836 0.23717 0.142 0.0
C301 C 0.48151 0.25116 0.12025 0.0
C302 C 0.53764 0.23436 0.24671 0.0
C303 C 0.54522 0.21321 0.24314 0.0
C304 C 0.54084 0.2473 0.27018 0.0
C305 C 0.5561 0.20545 0.26318 0.0
C306 C 0.55182 0.23896 0.28975 0.0
N307 N 0.55917 0.21839 0.28587 0.0
C308 C 0.54622 0.20397 0.17327 0.0
C309 C 0.50745 0.20044 0.15162 0.0
C310 C 0.54846 0.18369 0.1581 0.0
N311 N 0.52603 0.21211 0.16986 0.0
C312 C 0.50907 0.18018 0.13579 0.0
C313 C 0.52991 0.17167 0.13879 0.0
H314 H 0.56101 0.21368 0.18748 0.0
H315 H 0.49158 0.2071 0.14891 0.0
C316 C 0.47671 0.29461 0.2451 0.0
N317 N 0.4789 0.27193 0.23747 0.0
C318 C 0.45486 0.29795 0.2527 0.0
C319 C 0.43734 0.25466 0.24482 0.0
C320 C 0.45956 0.2521 0.23738 0.0
C321 C 0.43452 0.27787 0.25249 0.0
H322 H 0.4918 0.31036 0.24477 0.0
H323 H 0.46105 0.23417 0.23091 0.0
O324 O 0.55836 0.26757 0.18985 0.0
O325 O 0.53869 0.29872 0.227 0.0
O326 O 0.50405 0.26294 0.18574 0.0
O327 O 0.52741 0.24255 0.22728 0.0
H328 H 0.60501 0.29239 0.19982 0.0
H329 H 0.54908 0.24759 0.14329 0.0
H330 H 0.63468 0.29516 0.17022 0.0
H331 H 0.57968 0.25136 0.11464 0.0
H332 H 0.55684 0.34231 0.30318 0.0
H333 H 0.57371 0.33542 0.2179 0.0
H334 H 0.53287 0.30633 0.27345 0.0
H335 H 0.59679 0.37101 0.24852 0.0
H336 H 0.58203 0.35262 0.14592 0.0
H337 H 0.50492 0.34484 0.14269 0.0
H338 H 0.63182 0.24367 0.23576 0.0
H339 H 0.64098 0.31516 0.27499 0.0
H340 H 0.45665 0.24203 0.18122 0.0
H341 H 0.51668 0.26745 0.14177 0.0
H342 H 0.42914 0.22866 0.14172 0.0
H343 H 0.48817 0.2536 0.10299 0.0
H344 H 0.54272 0.20289 0.22511 0.0
H345 H 0.53503 0.2637 0.2732 0.0
H346 H 0.56212 0.18914 0.26069 0.0
H347 H 0.55452 0.24885 0.30802 0.0
H348 H 0.56485 0.17782 0.16101 0.0
H349 H 0.49439 0.17148 0.12107 0.0
H350 H 0.45371 0.3162 0.2583 0.0
H351 H 0.42228 0.23859 0.24415 0.0
Li352 Li 0.08181 0.84069 0.10204 0.0
Li353 Li 0.10862 0.82152 0.13389 0.0
Li354 Li 0.07744 0.79328 0.10009 0.0
Li355 Li 0.06343 0.81556 0.13334 0.0
C356 C 0.11746 0.81404 0.07738 0.0
N357 N 0.1377 0.79896 0.0376 0.0
C358 C 0.13996 0.8089 0.08079 0.0
C359 C 0.10536 0.81174 0.05376 0.0
C360 C 0.14987 0.80124 0.06044 0.0
C361 C 0.11586 0.80402 0.03387 0.0
C362 C 0.0838 0.85902 0.15888 0.0
C363 C 0.08165 0.86534 0.20206 0.0
N364 N 0.06915 0.88201 0.19852 0.0
C365 C 0.07091 0.87617 0.15563 0.0
C366 C 0.08924 0.85353 0.18225 0.0
C367 C 0.06369 0.88763 0.17593 0.0
C368 C 0.0575 0.87325 0.07729 0.0
N369 N 0.07959 0.87171 0.08777 0.0
C370 C 0.09691 0.9143 0.08431 0.0
C371 C 0.09916 0.89192 0.0912 0.0
C372 C 0.07428 0.91644 0.07366 0.0
C373 C 0.05451 0.89522 0.07005 0.0
H374 H 0.0418 0.85757 0.07514 0.0
H375 H 0.11654 0.89099 0.09999 0.0
C376 C 0.14893 0.80365 0.14929 0.0
N377 N 0.1396 0.8229 0.15359 0.0
C378 C 0.17023 0.80254 0.16351 0.0
C379 C 0.17126 0.84014 0.1876 0.0
C380 C 0.15014 0.84077 0.1727 0.0
C381 C 0.18319 0.82177 0.18227 0.0
H382 H 0.13944 0.7887 0.13508 0.0
H383 H 0.14176 0.85524 0.17693 0.0
C384 C 0.03215 0.80039 0.08094 0.0
N385 N 0.99226 0.77683 0.04639 0.0
C386 C 1.01188 0.78433 0.08763 0.0
C387 C 0.032 0.80467 0.05674 0.0
C388 C 0.99193 0.77254 0.06988 0.0
C389 C 1.0117 0.79252 0.03952 0.0
C390 C 0.0743 0.77336 0.14757 0.0
C391 C 0.05116 0.75732 0.13978 0.0
C392 C 0.08844 0.77027 0.16832 0.0
C393 C 0.04254 0.73833 0.15287 0.0
C394 C 0.07917 0.75105 0.18093 0.0
N395 N 0.0566 0.73561 0.17301 0.0
C396 C 0.09291 0.75041 0.08316 0.0
C397 C 0.05018 0.74286 0.07636 0.0
C398 C 0.09079 0.72544 0.07657 0.0
N399 N 0.07278 0.75887 0.08316 0.0
C400 C 0.04723 0.71769 0.07005 0.0
C401 C 0.06767 0.70845 0.07041 0.0
H402 H 0.11075 0.76286 0.08941 0.0
H403 H 0.03418 0.74926 0.077 0.0
C404 C 0.01763 0.81962 0.14555 0.0
N405 N 0.03793 0.81334 0.15399 0.0
C406 C 0.99814 0.81745 0.1591 0.0
C407 C 0.02106 0.80325 0.19031 0.0
C408 C 0.04006 0.80556 0.1761 0.0
C409 C 0.99974 0.80902 0.18168 0.0
H410 H 1.01647 0.82611 0.12812 0.0
H411 H 0.05649 0.80112 0.18275 0.0
O412 O 0.10743 0.82149 0.09706 0.0
O413 O 0.09067 0.8473 0.13922 0.0
O414 O 0.05184 0.8122 0.09806 0.0
O415 O 0.08298 0.79226 0.13522 0.0
H416 H 0.1497 0.81086 0.09893 0.0
H417 H 0.08806 0.81585 0.05082 0.0
H418 H 0.16724 0.79714 0.0628 0.0
H419 H 0.10665 0.80207 0.01548 0.0
H420 H 0.0856 0.86117 0.22024 0.0
H421 H 0.06646 0.88053 0.13762 0.0
H422 H 0.09886 0.83999 0.18498 0.0
H423 H 0.0537 0.90096 0.17371 0.0
H424 H 0.11271 0.93001 0.08774 0.0
H425 H 0.03664 0.89578 0.06216 0.0
H426 H 0.17585 0.78612 0.16001 0.0
H427 H 0.17701 0.85373 0.20355 0.0
H428 H 1.01163 0.7808 0.10627 0.0
H429 H 0.04734 0.81733 0.05133 0.0
H430 H 0.97619 0.75995 0.07477 0.0
H431 H 1.01137 0.79562 0.02071 0.0
H432 H 0.03989 0.75968 0.12397 0.0
H433 H 0.10632 0.78267 0.17471 0.0
H434 H 0.02463 0.72579 0.14708 0.0
H435 H 0.08988 0.74845 0.19705 0.0
H436 H 0.10712 0.71931 0.0772 0.0
H437 H 0.02902 0.70542 0.06555 0.0
H438 H 0.98197 0.82218 0.15202 0.0
H439 H 0.0229 0.79686 0.20777 0.0
Li440 Li 0.51424 0.81007 0.47566 0.0
Li441 Li 0.48254 0.78103 0.44156 0.0
Li442 Li 0.5106 0.76279 0.47211 0.0
Li443 Li 0.52751 0.78724 0.44132 0.0
C444 C 0.47322 0.78656 0.49758 0.0
N445 N 0.44936 0.79692 0.53629 0.0
C446 C 0.45365 0.79658 0.49405 0.0
C447 C 0.48044 0.78146 0.52068 0.0
C448 C 0.44188 0.80178 0.51389 0.0
C449 C 0.46821 0.78694 0.54005 0.0
C450 C 0.51323 0.82422 0.42205 0.0
C451 C 0.50791 0.82852 0.37942 0.0
N452 N 0.52335 0.85137 0.38475 0.0
C453 C 0.52905 0.84772 0.42713 0.0
C454 C 0.50251 0.81453 0.39805 0.0
C455 C 0.53391 0.86117 0.408 0.0
C456 C 0.54197 0.85955 0.50051 0.0
N457 N 0.51919 0.84431 0.49248 0.0
C458 C 0.50225 0.87852 0.49837 0.0
C459 C 0.49951 0.85351 0.49142 0.0
C460 C 0.52553 0.89469 0.50619 0.0
C461 C 0.54553 0.88476 0.50748 0.0
H462 H 0.55761 0.85238 0.50047 0.0
H463 H 0.48166 0.84164 0.48404 0.0
C464 C 0.43449 0.75973 0.41058 0.0
N465 N 0.45106 0.78029 0.42279 0.0
C466 C 0.41351 0.7612 0.3959 0.0
C467 C 0.42657 0.80479 0.40698 0.0
C468 C 0.44716 0.80251 0.42148 0.0
C469 C 0.4095 0.78402 0.39368 0.0
H470 H 0.43776 0.74221 0.41175 0.0
H471 H 0.46043 0.81866 0.43131 0.0
C472 C 0.55366 0.79297 0.4989 0.0
N473 N 0.58019 0.79432 0.54363 0.0
C474 C 0.57427 0.7843 0.50019 0.0
C475 C 0.54662 0.80247 0.52033 0.0
C476 C 0.58741 0.78509 0.52298 0.0
C477 C 0.56026 0.80296 0.54278 0.0
C478 C 0.5059 0.74295 0.41526 0.0
C479 C 0.5258 0.73323 0.41719 0.0
C480 C 0.49141 0.73972 0.39267 0.0
C481 C 0.531 0.72053 0.39642 0.0
C482 C 0.49716 0.72684 0.37234 0.0
N483 N 0.51668 0.71761 0.37462 0.0
C484 C 0.49502 0.71802 0.49711 0.0
C485 C 0.53395 0.72479 0.48473 0.0
C486 C 0.49691 0.69589 0.505 0.0
N487 N 0.51338 0.73217 0.48699 0.0
C488 C 0.53649 0.7028 0.49221 0.0
C489 C 0.51779 0.68771 0.5024 0.0
H490 H 0.47859 0.72359 0.49874 0.0
H491 H 0.54846 0.73573 0.47661 0.0
C492 C 0.57658 0.79986 0.43182 0.0
N493 N 0.55315 0.7914 0.42043 0.0
C494 C 0.59613 0.80294 0.41829 0.0
C495 C 0.56728 0.78887 0.38138 0.0
C496 C 0.54826 0.78622 0.39561 0.0
C497 C 0.59154 0.79726 0.39277 0.0
H498 H 0.58013 0.80425 0.45149 0.0
H499 H 0.52961 0.77991 0.38677 0.0
O500 O 0.48489 0.78124 0.47838 0.0
O501 O 0.50793 0.8109 0.44053 0.0
O502 O 0.54057 0.79229 0.47672 0.0
O503 O 0.50058 0.75556 0.43534 0.0
H504 H 0.44768 0.80036 0.4762 0.0
H505 H 0.4953 0.77332 0.52359 0.0
H506 H 0.42678 0.80966 0.51147 0.0
H507 H 0.47366 0.7832 0.55807 0.0
H508 H 0.49982 0.82122 0.36075 0.0
H509 H 0.5374 0.85552 0.44564 0.0
H510 H 0.49024 0.79634 0.39384 0.0
H511 H 0.54606 0.87942 0.41166 0.0
H512 H 0.48635 0.88533 0.49681 0.0
H513 H 0.56384 0.89653 0.51318 0.0
H514 H 0.40084 0.74473 0.38587 0.0
H515 H 0.42427 0.8227 0.40572 0.0
H516 H 0.58001 0.77696 0.48375 0.0
H517 H 0.53085 0.80943 0.51964 0.0
H518 H 0.60335 0.77836 0.52426 0.0
H519 H 0.555 0.81023 0.55952 0.0
H520 H 0.53735 0.73581 0.43444 0.0
H521 H 0.47603 0.74724 0.39082 0.0
H522 H 0.54645 0.71307 0.39762 0.0
H523 H 0.48615 0.72425 0.35473 0.0
H524 H 0.48196 0.68504 0.51273 0.0
H525 H 0.55296 0.6975 0.48982 0.0
H526 H 0.61466 0.8096 0.42763 0.0
H527 H 0.56313 0.78448 0.36169 0.0
Li528 Li 0.57994 0.34001 0.60079 0.0
Li529 Li 0.60375 0.32053 0.6326 0.0
Li530 Li 0.57531 0.29232 0.5981 0.0
Li531 Li 0.5585 0.31375 0.6323 0.0
C532 C 0.61725 0.3161 0.57758 0.0
N533 N 0.6415 0.30657 0.5389 0.0
C534 C 0.63965 0.31089 0.58179 0.0
C535 C 0.60728 0.3167 0.55376 0.0
C536 C 0.65161 0.30607 0.56198 0.0
C537 C 0.61979 0.31175 0.53443 0.0
C538 C 0.59465 0.36295 0.65771 0.0
C539 C 0.59856 0.37798 0.70062 0.0
N540 N 0.61512 0.39867 0.69738 0.0
C541 C 0.61162 0.38439 0.65478 0.0
C542 C 0.58796 0.35974 0.68079 0.0
C543 C 0.62179 0.40223 0.67506 0.0
C544 C 0.55581 0.37352 0.578 0.0
N545 N 0.57819 0.37099 0.58619 0.0
C546 C 0.59647 0.41255 0.57986 0.0
C547 C 0.59839 0.3901 0.58683 0.0
C548 C 0.57355 0.41579 0.57172 0.0
C549 C 0.55312 0.39552 0.57059 0.0
H550 H 0.53973 0.3586 0.57776 0.0
H551 H 0.61615 0.38829 0.59341 0.0
C552 C 0.64141 0.30074 0.64964 0.0
N553 N 0.63396 0.3213 0.65364 0.0
C554 C 0.6614 0.29773 0.66446 0.0
C555 C 0.6664 0.33733 0.68728 0.0
C556 C 0.64613 0.33953 0.67208 0.0
C557 C 0.67414 0.31612 0.68363 0.0
H558 H 0.63149 0.28635 0.63507 0.0
H559 H 0.64002 0.35566 0.67533 0.0
C560 C 0.53024 0.29934 0.57837 0.0
N561 N 0.49142 0.27517 0.54289 0.0
C562 C 0.50963 0.28348 0.58467 0.0
C563 C 0.53102 0.30313 0.55411 0.0
C564 C 0.49022 0.27135 0.56644 0.0
C565 C 0.51123 0.29068 0.53641 0.0
C566 C 0.58188 0.27732 0.65129 0.0
C567 C 0.58247 0.25321 0.64566 0.0
C568 C 0.58576 0.28814 0.67568 0.0
C569 C 0.58689 0.2403 0.66459 0.0
C570 C 0.59022 0.27468 0.69409 0.0
N571 N 0.59066 0.25122 0.68821 0.0
C572 C 0.59 0.25039 0.57479 0.0
C573 C 0.54844 0.24139 0.57984 0.0
C574 C 0.58787 0.22542 0.56799 0.0
N575 N 0.57047 0.25811 0.58076 0.0
C576 C 0.54554 0.21628 0.57316 0.0
C577 C 0.56549 0.20781 0.5675 0.0
H578 H 0.60766 0.2634 0.57648 0.0
H579 H 0.53327 0.2473 0.58562 0.0
C580 C 0.52447 0.32978 0.65918 0.0
N581 N 0.53236 0.31014 0.65183 0.0
C582 C 0.50582 0.32764 0.67382 0.0
C583 C 0.50337 0.285 0.67266 0.0
C584 C 0.52215 0.28797 0.65815 0.0
C585 C 0.49514 0.30504 0.68074 0.0
H586 H 0.53284 0.34718 0.65385 0.0
H587 H 0.52861 0.27259 0.65194 0.0
O588 O 0.60532 0.32095 0.59673 0.0
O589 O 0.58445 0.34533 0.63804 0.0
O590 O 0.54943 0.31131 0.59594 0.0
O591 O 0.57774 0.2903 0.63299 0.0
H592 H 0.64773 0.31058 0.60015 0.0
H593 H 0.59008 0.32095 0.55025 0.0
H594 H 0.66893 0.30195 0.56495 0.0
H595 H 0.61226 0.31207 0.51587 0.0
H596 H 0.59358 0.37571 0.71859 0.0
H597 H 0.61706 0.38714 0.63709 0.0
H598 H 0.57466 0.34341 0.68339 0.0
H599 H 0.63503 0.41887 0.67308 0.0
H600 H 0.61282 0.42744 0.58119 0.0
H601 H 0.53504 0.39688 0.56453 0.0
H602 H 0.66679 0.28111 0.66111 0.0
H603 H 0.67576 0.35189 0.70194 0.0
H604 H 0.50871 0.28044 0.60341 0.0
H605 H 0.54672 0.31559 0.54901 0.0
H606 H 0.4742 0.25891 0.57101 0.0
H607 H 0.51161 0.29338 0.51754 0.0
H608 H 0.57958 0.24452 0.6269 0.0
H609 H 0.58555 0.30681 0.68033 0.0
H610 H 0.58735 0.22162 0.66049 0.0
H611 H 0.59337 0.28288 0.71304 0.0
H612 H 0.60382 0.21984 0.56396 0.0
H613 H 0.52798 0.20347 0.57325 0.0
H614 H 0.49985 0.34345 0.67977 0.0
H615 H 0.49547 0.26731 0.67769 0.0
Li616 Li 1.01219 0.31036 0.97531 0.0
Li617 Li 0.9821 0.28186 0.9405 0.0
Li618 Li 1.00837 0.2631 0.9722 0.0
Li619 Li 0.02792 0.28761 0.94121 0.0
C620 C 0.97357 0.28918 0.99778 0.0
N621 N 0.9562 0.30486 0.0393 0.0
C622 C 0.95609 0.30208 0.99615 0.0
C623 C 0.98207 0.28406 0.02045 0.0
C624 C 0.94759 0.30992 0.01738 0.0
C625 C 0.97309 0.29219 0.04125 0.0
C626 C 1.01354 0.32811 0.92441 0.0
C627 C 1.00815 0.34007 0.88456 0.0
N628 N 0.02421 0.36215 0.89315 0.0
C629 C 0.02988 0.35097 0.93288 0.0
C630 C 1.00246 0.32264 0.9001 0.0
C631 C 0.03508 0.36791 0.91678 0.0
C632 C 0.03675 0.35832 0.00714 0.0
N633 N 1.01623 0.3444 0.99224 0.0
C634 C 1.00092 0.37972 0.9917 0.0
C635 C 0.99843 0.35479 0.98471 0.0
C636 C 0.022 0.3946 0.00667 0.0
C637 C 0.03992 0.38342 0.01468 0.0
H638 H 0.05117 0.35026 0.01248 0.0
H639 H 0.98259 0.34391 0.97231 0.0
C640 C 0.93834 0.26249 0.90276 0.0
N641 N 0.95145 0.28126 0.92024 0.0
C642 C 0.91785 0.26465 0.88777 0.0
C643 C 0.92427 0.30508 0.90926 0.0
C644 C 0.94467 0.30226 0.92361 0.0
C645 C 0.91064 0.28627 0.89082 0.0
H646 H 0.94399 0.24598 0.90008 0.0
H647 H 0.95548 0.31715 0.93721 0.0
C648 C 0.05554 0.2923 0.99564 0.0
N649 N 0.09077 0.29198 0.03328 0.0
C650 C 0.07643 0.28563 0.99054 0.0
C651 C 0.0526 0.29894 0.01983 0.0
C652 C 0.09402 0.28554 0.00984 0.0
C653 C 0.07061 0.29863 0.03862 0.0
C654 C 0.99977 0.24078 0.91478 0.0
C655 C 1.00404 0.21822 0.91668 0.0
C656 C 0.99482 0.24719 0.89173 0.0
C657 C 1.00347 0.20248 0.89543 0.0
C658 C 0.99439 0.23095 0.87091 0.0
N659 N 0.99872 0.20913 0.87317 0.0
C660 C 0.99315 0.21816 0.99714 0.0
C661 C 0.03172 0.22498 0.98392 0.0
C662 C 0.99522 0.19598 1.00477 0.0
N663 N 1.01125 0.23237 0.98678 0.0
C664 C 0.03447 0.20297 0.99121 0.0
C665 C 1.01605 0.18785 1.00172 0.0
H666 H 0.97676 0.2237 0.99915 0.0
H667 H 0.04587 0.23586 0.97529 0.0
C668 C 0.07032 0.31396 0.92335 0.0
N669 N 0.05477 0.29131 0.92188 0.0
C670 C 0.0901 0.31786 0.91009 0.0
C671 C 0.0782 0.27495 0.89458 0.0
C672 C 0.05869 0.27187 0.90816 0.0
C673 C 0.09408 0.29819 0.89538 0.0
H674 H 0.06752 0.32903 0.93502 0.0
H675 H 0.04691 0.25386 0.90786 0.0
O676 O 0.9823 0.28154 0.97727 0.0
O677 O 1.00813 0.31131 0.93994 0.0
O678 O 0.03825 0.2927 0.977 0.0
O679 O 1.00054 0.25652 0.93539 0.0
H680 H 0.94919 0.30601 0.97871 0.0
H681 H 0.99546 0.27391 0.02194 0.0
H682 H 0.93413 0.32 0.01642 0.0
H683 H 0.97954 0.28842 0.05894 0.0
H684 H 0.99974 0.33607 0.86569 0.0
H685 H 0.03868 0.35552 0.95162 0.0
H686 H 0.98952 0.3052 0.8933 0.0
H687 H 0.04777 0.38563 0.92307 0.0
H688 H 0.98669 0.38747 0.98494 0.0
H689 H 0.05656 0.39417 0.0261 0.0
H690 H 0.90792 0.24972 0.87371 0.0
H691 H 0.91945 0.32206 0.91218 0.0
H692 H 0.07899 0.28057 0.97186 0.0
H693 H 0.03665 0.30441 0.02402 0.0
H694 H 0.11028 0.28039 0.00619 0.0
H695 H 0.06859 0.30372 0.05744 0.0
H696 H 1.00779 0.21292 0.93437 0.0
H697 H 0.99148 0.26456 0.88996 0.0
H698 H 1.00682 0.185 0.89662 0.0
H699 H 0.99066 0.2357 0.85295 0.0
H700 H 0.98046 0.18507 0.0127 0.0
H701 H 0.05084 0.19765 0.98837 0.0
H702 H 0.10217 0.33601 0.9113 0.0
H703 H 0.08092 0.25934 0.88359 0.0
Li704 Li 0.41823 0.04728 0.34503 0.0
Li705 Li 0.3816 0.02249 0.32016 0.0
Li706 Li 0.41581 0.04243 0.30092 0.0
Li707 Li 0.39087 0.06508 0.32226 0.0
C708 C 0.42849 1.00194 0.32273 0.0
N709 N 0.45795 0.9709 0.32494 0.0
C710 C 0.41962 0.97878 0.32913 0.0
C711 C 0.45239 1.00921 0.3174 0.0
C712 C 0.43479 0.96339 0.33016 0.0
C713 C 0.46697 0.99328 0.31862 0.0
C714 C 0.37765 0.03537 0.36915 0.0
C715 C 0.35761 0.03336 0.40514 0.0
N716 N 0.36402 0.01274 0.40866 0.0
C717 C 0.38407 0.0142 0.37316 0.0
C718 C 0.36432 0.04505 0.38527 0.0
C719 C 0.377 1.00301 0.39321 0.0
C720 C 0.44468 0.07282 0.38969 0.0
N721 N 0.43861 0.05116 0.37467 0.0
C722 C 0.46416 0.03555 0.40091 0.0
C723 C 0.44747 0.03248 0.38021 0.0
C724 C 0.47107 0.05774 0.41654 0.0
C725 C 0.46085 0.07646 0.4112 0.0
H726 H 0.4371 0.08725 0.3848 0.0
H727 H 0.44177 0.0152 0.36866 0.0
C728 C 0.36107 0.97507 0.30229 0.0
N729 N 0.35689 0.99367 0.31681 0.0
C730 C 0.34621 0.9517 0.30113 0.0
C731 C 0.32152 0.96747 0.32806 0.0
C732 C 0.33717 0.99067 0.32894 0.0
C733 C 0.32679 0.94774 0.31478 0.0
H734 H 0.37665 0.97834 0.2925 0.0
H735 H 0.3341 1.00608 0.33987 0.0
C736 C 0.45123 0.08557 0.324 0.0
N737 N 0.49947 0.1096 0.32249 0.0
C738 C 0.45717 0.1072 0.31401 0.0
C739 C 0.46993 0.07634 0.33341 0.0
C740 C 0.48162 0.11901 0.31332 0.0
C741 C 0.49416 0.08871 0.33247 0.0
C742 C 0.36203 0.02702 0.27568 0.0
C743 C 0.366 0.01643 0.25314 0.0
C744 C 0.33819 0.02335 0.28105 0.0
C745 C 0.34616 1.00178 0.23666 0.0
C746 C 0.31882 1.00851 0.26412 0.0
N747 N 0.32317 0.9981 0.24247 0.0
C748 C 0.42748 0.01342 0.26433 0.0
C749 C 0.44659 0.05536 0.26458 0.0
C750 C 0.43865 1.00701 0.24463 0.0
N751 N 0.43182 0.03719 0.27399 0.0
C752 C 0.45823 0.04976 0.24485 0.0
C753 C 0.45423 0.02535 0.2349 0.0
H754 H 0.41518 0.99944 0.2719 0.0
H755 H 0.44925 0.07409 0.27223 0.0
C756 C 0.38489 0.11058 0.31365 0.0
N757 N 0.37505 0.08901 0.32116 0.0
C758 C 0.37002 0.12526 0.30764 0.0
C759 C 0.33565 0.0954 0.31805 0.0
C760 C 0.35126 0.08163 0.32437 0.0
C761 C 0.345 0.11706 0.30896 0.0
H762 H 0.40381 0.11568 0.31104 0.0
H763 H 0.34419 0.06432 0.33044 0.0
O764 O 0.41385 0.01734 0.32185 0.0
O765 O 0.38386 0.04645 0.34937 0.0
O766 O 0.42728 0.07392 0.32486 0.0
O767 O 0.38133 0.04127 0.29215 0.0
H768 H 0.40133 0.9728 0.3336 0.0
H769 H 0.45958 0.02679 0.312 0.0
H770 H 0.42815 0.94549 0.33519 0.0
H771 H 0.48545 0.99871 0.31447 0.0
H772 H 0.34726 0.04064 0.41774 0.0
H773 H 0.3942 1.00633 0.36084 0.0
H774 H 0.35912 0.06138 0.38236 0.0
H775 H 0.38177 0.98656 0.39644 0.0
H776 H 0.47148 0.02064 0.40482 0.0
H777 H 0.46566 0.09367 0.42325 0.0
H778 H 0.3503 0.9367 0.29039 0.0
H779 H 0.30628 0.96475 0.33835 0.0
H780 H 0.44307 0.11466 0.30652 0.0
H781 H 0.46592 0.05986 0.34144 0.0
H782 H 0.48641 0.13565 0.30545 0.0
H783 H 0.50876 0.08171 0.3397 0.0
H784 H 0.38412 0.01971 0.2482 0.0
H785 H 0.33467 0.03145 0.29829 0.0
H786 H 0.34903 0.99343 0.2192 0.0
H787 H 0.30033 1.00524 0.26822 0.0
H788 H 0.4352 0.98804 0.23705 0.0
H789 H 0.4701 0.0642 0.23737 0.0
H790 H 0.37757 0.14198 0.30061 0.0
H791 H 0.31637 0.08875 0.31919 0.0
Li792 Li 0.28985 0.23589 0.55282 0.0
Li793 Li 0.30741 0.20548 0.53235 0.0
Li794 Li 0.28863 0.23173 0.50678 0.0
Li795 Li 0.26274 0.19846 0.52639 0.0
C796 C 0.33591 0.26153 0.54354 0.0
N797 N 0.37274 0.30226 0.56499 0.0
C798 C 0.35472 0.25937 0.56045 0.0
C799 C 0.33607 0.28432 0.53716 0.0
C800 C 0.3731 0.2802 0.57121 0.0
C801 C 0.35479 0.30472 0.5483 0.0
C802 C 0.28851 0.18343 0.56966 0.0
C803 C 0.28812 0.14157 0.57061 0.0
N804 N 0.29644 0.14702 0.59494 0.0
C805 C 0.29688 0.18858 0.59471 0.0
C806 C 0.28392 0.15971 0.55754 0.0
C807 C 0.30082 0.16993 0.60715 0.0
C808 C 0.27168 0.26186 0.59086 0.0
N809 N 0.2915 0.25504 0.58451 0.0
C810 C 0.31088 0.26586 0.62614 0.0
C811 C 0.311 0.25713 0.60162 0.0
C812 C 0.29044 0.27239 0.63326 0.0
C813 C 0.27088 0.27088 0.61519 0.0
H814 H 0.25589 0.25912 0.57737 0.0
H815 H 0.32603 0.25053 0.59658 0.0
C816 C 0.33707 0.17837 0.51334 0.0
N817 N 0.33251 0.1895 0.53452 0.0
C818 C 0.35346 0.16426 0.51383 0.0
C819 C 0.36079 0.17398 0.55789 0.0
C820 C 0.34442 0.18811 0.55653 0.0
C821 C 0.36512 0.16162 0.53635 0.0
H822 H 0.32752 0.18 0.4961 0.0
H823 H 0.34078 0.19747 0.57307 0.0
C824 C 0.24962 0.25019 0.52578 0.0
N825 N 0.2252 0.28558 0.52509 0.0
C826 C 0.22421 0.24357 0.52062 0.0
C827 C 0.26263 0.27476 0.53068 0.0
C828 C 0.21219 0.26175 0.52034 0.0
C829 C 0.24995 0.2924 0.5302 0.0
C830 C 0.27225 0.17779 0.48252 0.0
C831 C 0.25853 0.18329 0.46282 0.0
C832 C 0.27356 0.15393 0.48279 0.0
C833 C 0.24612 0.16474 0.44381 0.0
C834 C 0.26085 0.13588 0.46346 0.0
N835 N 0.2475 0.14162 0.44454 0.0
C836 C 0.30615 0.23629 0.46196 0.0
C837 C 0.27973 0.2611 0.46858 0.0
C838 C 0.3084 0.24265 0.4386 0.0
N839 N 0.29183 0.24532 0.47639 0.0
C840 C 0.28169 0.26817 0.44536 0.0
C841 C 0.29599 0.2587 0.42996 0.0
H842 H 0.31539 0.22358 0.4684 0.0
H843 H 0.26818 0.26787 0.48008 0.0
C844 C 0.22648 0.16625 0.54564 0.0
N845 N 0.23176 0.17488 0.52453 0.0
C846 C 0.20424 0.14947 0.54638 0.0
C847 C 0.19258 0.15123 0.5038 0.0
C848 C 0.21524 0.1679 0.50383 0.0
C849 C 0.18699 0.1419 0.52533 0.0
H850 H 0.2393 0.17278 0.56216 0.0
H851 H 0.21934 0.17568 0.48753 0.0
O852 O 0.31782 0.24133 0.53276 0.0
O853 O 0.28486 0.20151 0.55706 0.0
O854 O 0.26156 0.2326 0.52666 0.0
O855 O 0.28468 0.19576 0.50122 0.0
H856 H 0.35502 0.24181 0.56535 0.0
H857 H 0.32199 0.2862 0.52362 0.0
H858 H 0.38766 0.27882 0.58449 0.0
H859 H 0.3551 0.3225 0.54362 0.0
H860 H 0.28476 0.12317 0.56141 0.0
H861 H 0.30035 0.20677 0.60444 0.0
H862 H 0.27717 0.1554 0.53825 0.0
H863 H 0.30738 0.17368 0.62652 0.0
H864 H 0.32621 0.26658 0.63961 0.0
H865 H 0.25474 0.27561 0.62006 0.0
H866 H 0.35653 0.15495 0.49691 0.0
H867 H 0.3696 0.17229 0.57552 0.0
H868 H 0.2139 0.22459 0.51697 0.0
H869 H 0.28226 0.28013 0.53506 0.0
H870 H 0.19251 0.25691 0.51641 0.0
H871 H 0.25977 0.3115 0.53399 0.0
H872 H 0.25717 0.20161 0.46234 0.0
H873 H 0.28439 0.14937 0.49765 0.0
H874 H 0.23533 0.16872 0.42852 0.0
H875 H 0.26166 0.11733 0.46347 0.0
H876 H 0.3195 0.23489 0.42724 0.0
H877 H 0.27179 0.28055 0.43929 0.0
H878 H 0.20024 0.14293 0.56339 0.0
H879 H 0.17939 0.14604 0.48738 0.0
Li880 Li 0.1534 0.08675 0.80049 0.0
Li881 Li 0.11928 0.06032 0.81994 0.0
Li882 Li 0.14684 0.04205 0.79396 0.0
Li883 Li 0.11718 0.06041 0.77474 0.0
C884 C 0.17519 0.07613 0.84257 0.0
N885 N 0.21494 0.09983 0.87717 0.0
C886 C 0.1718 0.08722 0.86513 0.0
C887 C 0.19874 0.0769 0.83767 0.0
C888 C 0.19216 0.09915 0.88237 0.0
C889 C 0.21862 0.08904 0.85538 0.0
C890 C 0.10206 0.09749 0.7905 0.0
C891 C 0.06005 0.09542 0.77774 0.0
N892 N 0.06743 0.11512 0.76623 0.0
C893 C 0.10928 0.11776 0.77866 0.0
C894 C 0.07729 0.08625 0.79015 0.0
C895 C 0.09147 0.12638 0.76645 0.0
C896 C 0.18383 0.12371 0.78103 0.0
N897 N 0.17709 0.1176 0.80268 0.0
C898 C 0.20223 0.15601 0.82381 0.0
C899 C 0.18581 0.13325 0.8239 0.0
C900 C 0.20946 0.16258 0.80166 0.0
C901 C 0.20021 0.14612 0.78012 0.0
H902 H 0.17608 0.11135 0.76431 0.0
H903 H 0.17968 0.12836 0.84078 0.0
C904 C 0.10912 0.03948 0.8628 0.0
N905 N 0.1052 0.05738 0.85026 0.0
C906 C 0.102 0.03766 0.88602 0.0
C907 C 0.08657 0.07254 0.88311 0.0
C908 C 0.09406 0.07374 0.85992 0.0
C909 C 0.09071 0.05443 0.89656 0.0
H910 H 0.11837 0.02692 0.85499 0.0
H911 H 0.09147 0.08808 0.84988 0.0
C912 C 0.16623 0.05962 0.75423 0.0
N913 N 0.19651 0.04873 0.72182 0.0
C914 C 0.15638 0.04721 0.73076 0.0
C915 C 0.19147 0.06656 0.76117 0.0
C916 C 0.17199 0.04188 0.71465 0.0
C917 C 0.20647 0.06084 0.74454 0.0
C918 C 0.09074 0.01456 0.7803 0.0
C919 C 0.09334 0.99935 0.75991 0.0
C920 C 0.06779 0.01203 0.78768 0.0
C921 C 0.0728 0.98185 0.7471 0.0
C922 C 0.04769 0.9943 0.77439 0.0
N923 N 0.05059 0.97971 0.75454 0.0
C924 C 0.17463 0.01274 0.8129 0.0
C925 C 0.16455 1.00451 0.76983 0.0
C926 C 0.18833 0.99592 0.8124 0.0
N927 N 0.1634 0.01701 0.79177 0.0
C928 C 0.17836 0.98781 0.76845 0.0
C929 C 0.19063 0.98356 0.78992 0.0
H930 H 0.17321 0.02265 0.83015 0.0
H931 H 0.15502 1.00765 0.75333 0.0
C932 C 0.11196 0.07771 0.73052 0.0
N933 N 0.099 0.06085 0.74292 0.0
C934 C 0.10378 0.07879 0.70623 0.0
C935 C 0.06819 0.04595 0.70781 0.0
C936 C 0.07706 0.04551 0.73224 0.0
C937 C 0.08192 0.06244 0.6944 0.0
H938 H 0.12928 0.08981 0.73927 0.0
H939 H 0.0667 0.03249 0.74228 0.0
O940 O 0.15551 0.06447 0.82542 0.0
O941 O 0.11917 0.08834 0.80193 0.0
O942 O 0.15124 0.06514 0.77024 0.0
O943 O 0.11064 0.03155 0.79328 0.0
H944 H 0.15368 0.08678 0.86921 0.0
H945 H 0.20162 0.06817 0.82041 0.0
H946 H 0.18984 0.1079 0.89988 0.0
H947 H 0.23696 0.08986 0.85182 0.0
H948 H 0.04079 0.08685 0.77719 0.0
H949 H 0.12842 0.12657 0.77872 0.0
H950 H 0.07147 0.07048 0.79918 0.0
H951 H 0.09676 0.14198 0.75708 0.0
H952 H 0.20884 0.16852 0.84069 0.0
H953 H 0.2052 0.15082 0.76271 0.0
H954 H 0.10559 0.02351 0.89584 0.0
H955 H 0.07798 0.08583 0.89066 0.0
H956 H 0.13687 0.04143 0.72515 0.0
H957 H 0.1994 0.07634 0.77916 0.0
H958 H 0.16462 0.03221 0.69648 0.0
H959 H 0.22604 0.06608 0.74968 0.0
H960 H 0.11099 1.00114 0.75398 0.0
H961 H 0.06557 0.02363 0.80352 0.0
H962 H 0.0745 0.96998 0.73124 0.0
H963 H 0.0298 0.99214 0.77985 0.0
H964 H 0.19749 0.99294 0.82931 0.0
H965 H 0.17966 0.97846 0.75082 0.0
H966 H 0.11485 0.09175 0.69648 0.0
H967 H 0.05118 0.03308 0.69925 0.0
Li968 Li 0.27793 0.95031 0.01561 0.0
Li969 Li 0.30506 0.92977 0.03579 0.0
Li970 Li 0.31853 0.9589 0.00776 0.0
Li971 Li 0.29123 0.92023 0.99259 0.0
C972 C 0.3018 0.9792 0.05816 0.0
N973 N 0.28972 1.00801 0.09547 0.0
C974 C 0.29762 0.97072 0.0803 0.0
C975 C 0.29994 1.00245 0.0551 0.0
C976 C 0.29141 0.98548 0.09887 0.0
C977 C 0.29389 0.01674 0.0742 0.0
C978 C 0.25021 0.89859 0.00986 0.0
C979 C 0.2233 0.85807 0.00616 0.0
N980 N 0.20844 0.86324 0.9881 0.0
C981 C 0.23467 0.90353 0.99129 0.0
C982 C 0.24451 0.8757 0.0174 0.0
C983 C 0.21364 0.88541 0.98052 0.0
C984 C 0.24307 0.97423 1.00269 0.0
N985 N 0.25175 0.96296 0.02028 0.0
C986 C 0.22814 0.97671 0.04848 0.0
C987 C 0.24352 0.96262 0.04227 0.0
C988 C 0.22092 0.99046 0.03149 0.0
C989 C 0.22745 0.98833 0.00798 0.0
H990 H 0.24924 0.97328 0.98503 0.0
H991 H 0.25011 0.95264 0.05546 0.0
C992 C 0.33972 0.92282 0.07 0.0
N993 N 0.31528 0.91793 0.06337 0.0
C994 C 0.3487 0.91174 0.08836 0.0
C995 C 0.30704 0.89172 0.09323 0.0
C996 C 0.29888 0.90301 0.07461 0.0
C997 C 0.33218 0.89589 0.09991 0.0
H998 H 0.35214 0.9346 0.06033 0.0
H999 H 0.27957 0.89952 0.06868 0.0
C1000 C 0.29889 0.97073 0.97104 0.0
N1001 N 0.32098 1.00906 0.948 0.0
C1002 C 0.31026 0.96655 0.95055 0.0
C1003 C 0.29897 0.9945 0.97985 0.0
C1004 C 0.32124 0.98614 0.93914 0.0
C1005 C 0.31017 0.0136 0.96794 0.0
C1006 C 0.33407 0.90731 1.00531 0.0
C1007 C 0.35291 0.90808 0.99111 0.0
C1008 C 0.32531 0.88661 0.01617 0.0
C1009 C 0.3625 0.88817 0.98792 0.0
C1010 C 0.33539 0.86709 0.01259 0.0
N1011 N 0.35363 0.86826 0.99864 0.0
C1012 C 0.35488 1.00318 0.02033 0.0
C1013 C 0.36095 0.97618 0.98753 0.0
C1014 C 0.37876 0.01762 0.02204 0.0
N1015 N 0.34689 0.98247 1.00388 0.0
C1016 C 0.38502 0.98985 0.98879 0.0
C1017 C 0.39431 1.01006 0.00702 0.0
H1018 H 0.34343 1.00748 0.03335 0.0
H1019 H 0.35395 0.95967 0.97461 0.0
C1020 C 0.27808 0.89888 0.9441 0.0
N1021 N 0.28177 0.89392 0.96718 0.0
C1022 C 0.27539 0.88082 0.9244 0.0
C1023 C 0.27741 0.85223 0.95269 0.0
C1024 C 0.28014 0.87092 0.97184 0.0
C1025 C 0.27612 0.8576 0.92885 0.0
H1026 H 0.27798 0.91697 0.94101 0.0
H1027 H 0.28176 0.8672 0.99036 0.0
O1028 O 0.3082 0.96506 0.03984 0.0
O1029 O 0.27141 0.91573 0.01991 0.0
O1030 O 0.28857 0.95189 0.98297 0.0
O1031 O 0.32486 0.92697 0.00905 0.0
H1032 H 0.29895 0.95289 0.08316 0.0
H1033 H 0.30311 1.00944 0.0382 0.0
H1034 H 0.28799 0.97904 0.11601 0.0
H1035 H 0.29255 0.0348 0.07212 0.0
H1036 H 0.21871 0.84022 0.01171 0.0
H1037 H 0.23903 0.921 0.98494 0.0
H1038 H 0.25652 0.87146 0.0315 0.0
H1039 H 0.20153 0.88893 0.96602 0.0
H1040 H 0.22299 0.9779 0.06666 0.0
H1041 H 0.22173 0.99858 0.9945 0.0
H1042 H 0.36819 0.91511 0.09325 0.0
H1043 H 0.29401 0.87948 0.10198 0.0
H1044 H 0.31133 0.94855 0.94388 0.0
H1045 H 0.2908 0.99828 0.99592 0.0
H1046 H 0.33021 0.98314 0.92338 0.0
H1047 H 0.3104 0.03206 0.97466 0.0
H1048 H 0.3602 0.92386 0.98268 0.0
H1049 H 0.31043 0.88526 0.02677 0.0
H1050 H 0.37705 0.88859 0.97695 0.0
H1051 H 0.32862 0.85096 0.0208 0.0
H1052 H 0.38564 0.03313 0.03634 0.0
H1053 H 0.39674 0.9837 0.97698 0.0
H1054 H 0.27388 0.88515 0.90598 0.0
H1055 H 0.27754 0.83422 0.95642 0.0
Li1056 Li 0.28763 0.40281 0.04616 0.0
Li1057 Li 0.30502 0.37564 0.0698 0.0
Li1058 Li 0.33269 0.40975 0.0525 0.0
Li1059 Li 0.30691 0.37323 0.02518 0.0
C1060 C 0.31779 0.43152 0.09437 0.0
N1061 N 0.33308 0.47244 0.12939 0.0
C1062 C 0.32213 0.42919 0.11902 0.0
C1063 C 0.32127 0.45463 0.08751 0.0
C1064 C 0.3298 0.45012 0.13646 0.0
C1065 C 0.32904 0.4751 0.10549 0.0
C1066 C 0.25948 0.34837 0.04794 0.0
C1067 C 0.24387 0.30649 0.05337 0.0
N1068 N 0.22369 0.31155 0.06089 0.0
C1069 C 0.23855 0.35315 0.05557 0.0
C1070 C 0.26215 0.32486 0.04668 0.0
C1071 C 0.22068 0.33429 0.0621 0.0
C1072 C 0.24735 0.41555 0.02214 0.0
N1073 N 0.26223 0.41869 0.04366 0.0
C1074 C 0.24237 0.44639 0.06214 0.0
C1075 C 0.25958 0.43323 0.06366 0.0
C1076 C 0.22759 0.44429 0.0399 0.0
C1077 C 0.22986 0.4284 0.01979 0.0
H1078 H 0.24914 0.40319 0.00677 0.0
H1079 H 0.27089 0.43474 0.08082 0.0
C1080 C 0.31929 0.35366 0.1111 0.0
N1081 N 0.30105 0.36119 0.09961 0.0
C1082 C 0.31777 0.34669 0.13437 0.0
C1083 C 0.27858 0.3549 0.1335 0.0
C1084 C 0.28097 0.36197 0.11042 0.0
C1085 C 0.29728 0.34746 0.14595 0.0
H1086 H 0.3354 0.35382 0.10255 0.0
H1087 H 0.26715 0.36893 0.10151 0.0
C1088 C 0.30534 0.42214 0.00607 0.0
N1089 N 0.29299 0.45081 0.97313 0.0
C1090 C 0.29013 0.4114 0.98416 0.0
C1091 C 0.31444 0.44744 0.01113 0.0
C1092 C 0.28405 0.42621 0.96777 0.0
C1093 C 0.30793 0.46163 0.99428 0.0
C1094 C 0.3436 0.35821 0.04173 0.0
C1095 C 0.36166 0.36496 0.02688 0.0
C1096 C 0.33495 0.33385 0.04472 0.0
C1097 C 0.37055 0.34706 0.01493 0.0
C1098 C 0.34434 0.31651 0.0325 0.0
N1099 N 0.36176 0.32341 0.01795 0.0
C1100 C 0.37673 0.44524 0.07734 0.0
C1101 C 0.37172 0.4379 0.03405 0.0
C1102 C 0.39935 0.4622 0.07792 0.0
N1103 N 0.36343 0.43359 0.05557 0.0
C1104 C 0.39421 0.45455 0.0338 0.0
C1105 C 0.40828 0.46682 0.05591 0.0
H1106 H 0.36993 0.44125 0.09422 0.0
H1107 H 0.36091 0.42817 0.01704 0.0
C1108 C 0.29276 0.33297 0.98396 0.0
N1109 N 0.30729 0.35566 0.99325 0.0
C1110 C 0.29254 0.32318 0.95956 0.0
C1111 C 0.32235 0.36006 0.95494 0.0
C1112 C 0.3223 0.36893 0.97937 0.0
C1113 C 0.30707 0.33708 0.94458 0.0
H1114 H 0.28085 0.32275 0.99519 0.0
H1115 H 0.33371 0.3869 0.9871 0.0
O1116 O 0.30988 0.41121 0.0771 0.0
O1117 O 0.27712 0.36658 0.04142 0.0
O1118 O 0.31153 0.40794 0.02234 0.0
O1119 O 0.33408 0.37532 0.0529 0.0
H1120 H 0.31948 0.41143 0.12464 0.0
H1121 H 0.31783 0.45669 0.06853 0.0
H1122 H 0.33312 0.4486 0.15563 0.0
H1123 H 0.33178 0.4931 0.10045 0.0
H1124 H 0.24571 0.28821 0.05256 0.0
H1125 H 0.2362 0.37127 0.05654 0.0
H1126 H 0.27815 0.32084 0.0406 0.0
H1127 H 0.20441 0.33773 0.06813 0.0
H1128 H 0.24078 0.4583 0.07806 0.0
H1129 H 0.21844 0.42621 1.00246 0.0
H1130 H 0.3326 0.34112 0.14344 0.0
H1131 H 0.26256 0.35581 0.14185 0.0
H1132 H 0.28283 0.39185 0.97998 0.0
H1133 H 0.32651 0.45605 0.02783 0.0
H1134 H 0.27219 0.41815 0.95081 0.0
H1135 H 0.31481 0.48123 0.99798 0.0
H1136 H 0.36851 0.38376 0.02437 0.0
H1137 H 0.3211 0.3284 0.05631 0.0
H1138 H 0.38438 0.35197 1.0032 0.0
H1139 H 0.33774 0.29755 0.03456 0.0
H1140 H 0.40993 0.47133 0.09529 0.0
H1141 H 0.4007 0.45764 0.01654 0.0
H1142 H 0.28055 0.30533 0.9522 0.0
H1143 H 0.33381 0.37131 0.94403 0.0
Li1144 Li 0.80821 0.18441 0.08865 0.0
Li1145 Li 0.82184 0.1547 0.06328 0.0
Li1146 Li 0.79539 0.17775 0.04544 0.0
Li1147 Li 0.77977 0.14558 0.06971 0.0
C1148 C 0.84851 0.20994 0.07029 0.0
N1149 N 0.88814 0.24985 0.08646 0.0
C1150 C 0.87074 0.20676 0.07996 0.0
C1151 C 0.8465 0.23337 0.06855 0.0
C1152 C 0.89056 0.22719 0.08811 0.0
C1153 C 0.86672 0.25333 0.07693 0.0
C1154 C 0.80224 0.13789 0.11301 0.0
C1155 C 0.79188 0.09953 0.1284 0.0
N1156 N 0.78815 0.11109 0.14977 0.0
C1157 C 0.79844 0.14939 0.1352 0.0
C1158 C 0.79909 0.11275 0.10964 0.0
C1159 C 0.79128 0.13553 0.15353 0.0
C1160 C 0.7932 0.21178 0.12321 0.0
N1161 N 0.81408 0.20834 0.116 0.0
C1162 C 0.83808 0.23733 0.14939 0.0
C1163 C 0.83637 0.22068 0.12851 0.0
C1164 C 0.81661 0.24106 0.15685 0.0
C1165 C 0.79407 0.22861 0.14326 0.0
H1166 H 0.77571 0.20062 0.11419 0.0
H1167 H 0.85264 0.21696 0.12295 0.0
C1168 C 0.85552 0.14611 0.03497 0.0
N1169 N 0.8459 0.14049 0.05551 0.0
C1170 C 0.87001 0.13271 0.02494 0.0
C1171 C 0.86482 0.10859 0.05794 0.0
C1172 C 0.85065 0.12265 0.06748 0.0
C1173 C 0.87405 0.11331 0.03615 0.0
H1174 H 0.85092 0.16021 0.02581 0.0
H1175 H 0.84251 0.11864 0.08368 0.0
C1176 C 0.75989 0.19241 0.06785 0.0
N1177 N 0.7292 0.22164 0.06122 0.0
C1178 C 0.73464 0.18252 0.06547 0.0
C1179 C 0.76954 0.21721 0.06707 0.0
C1180 C 0.71942 0.1976 0.06208 0.0
C1181 C 0.75372 0.23166 0.06362 0.0
C1182 C 0.78864 0.12232 0.02264 0.0
C1183 C 0.78168 0.1221 0.99779 0.0
C1184 C 0.79101 0.101 0.03101 0.0
C1185 C 0.77719 0.10046 0.98167 0.0
C1186 C 0.78647 0.07975 0.0143 0.0
N1187 N 0.77969 0.07991 0.99019 0.0
C1188 C 0.80421 0.20642 0.00859 0.0
C1189 C 0.76273 0.18599 0.00999 0.0
C1190 C 0.79741 0.21745 0.98909 0.0
N1191 N 0.78682 0.19131 0.01863 0.0
C1192 C 0.75507 0.19717 0.9911 0.0
C1193 C 0.77257 0.213 0.98051 0.0
H1194 H 0.82324 0.20993 0.01581 0.0
H1195 H 0.7495 0.17331 0.01803 0.0
C1196 C 0.74108 0.11492 0.09042 0.0
N1197 N 0.75001 0.12255 0.07012 0.0
C1198 C 0.71669 0.10177 0.08888 0.0
C1199 C 0.71134 0.10499 0.0458 0.0
C1200 C 0.7358 0.11756 0.04805 0.0
C1201 C 0.70152 0.09754 0.06649 0.0
H1202 H 0.75225 0.12021 0.108 0.0
H1203 H 0.74303 0.12489 0.03252 0.0
O1204 O 0.82904 0.19017 0.06186 0.0
O1205 O 0.80967 0.15122 0.09499 0.0
O1206 O 0.77511 0.17801 0.07167 0.0
O1207 O 0.79252 0.14326 0.03865 0.0
H1208 H 0.87262 0.18872 0.08128 0.0
H1209 H 0.82957 0.23613 0.06071 0.0
H1210 H 0.90785 0.22503 0.09575 0.0
H1211 H 0.86541 0.27157 0.07577 0.0
H1212 H 0.78922 0.08006 0.12595 0.0
H1213 H 0.80107 0.1688 0.13837 0.0
H1214 H 0.80192 0.10347 0.09268 0.0
H1215 H 0.78825 0.14422 0.17076 0.0
H1216 H 0.85567 0.24636 0.1601 0.0
H1217 H 0.7772 0.23065 0.14916 0.0
H1218 H 0.87707 0.13665 0.00812 0.0
H1219 H 0.86784 0.09371 0.06691 0.0
H1220 H 0.72686 0.16345 0.06637 0.0
H1221 H 0.78903 0.22518 0.0692 0.0
H1222 H 0.69984 0.19019 0.06021 0.0
H1223 H 0.76094 0.25087 0.06293 0.0
H1224 H 0.7796 0.13846 0.99108 0.0
H1225 H 0.79624 0.10087 0.05018 0.0
H1226 H 0.77169 0.09999 0.96239 0.0
H1227 H 0.7883 0.06312 0.02051 0.0
H1228 H 0.81123 0.22948 0.98097 0.0
H1229 H 0.7358 0.19334 0.98458 0.0
H1230 H 0.70936 0.09641 0.10519 0.0
H1231 H 0.6999 0.10218 0.02837 0.0
Li1232 Li 0.21759 0.57522 0.25422 0.0
Li1233 Li 0.18518 0.56773 0.27835 0.0
Li1234 Li 0.20077 0.53485 0.26024 0.0
Li1235 Li 0.17795 0.5554 0.23448 0.0
C1236 C 0.23149 0.57922 0.30509 0.0
N1237 N 0.25751 0.61206 0.34513 0.0
C1238 C 0.22977 0.60311 0.30803 0.0
C1239 C 0.2465 0.57205 0.32246 0.0
C1240 C 0.24298 0.61941 0.32846 0.0
C1241 C 0.25957 0.58894 0.34254 0.0
C1242 C 0.1736 0.60242 0.25136 0.0
C1243 C 0.13267 0.60646 0.24813 0.0
N1244 N 0.1417 0.63091 0.24906 0.0
C1245 C 0.18249 0.62757 0.25222 0.0
C1246 C 0.1485 0.59175 0.24931 0.0
C1247 C 0.16607 0.64167 0.25108 0.0
C1248 C 0.23822 0.61265 0.23252 0.0
N1249 N 0.24464 0.59965 0.24962 0.0
C1250 C 0.27958 0.63206 0.26665 0.0
C1251 C 0.26576 0.608 0.26538 0.0
C1252 C 0.27099 0.64689 0.25163 0.0
C1253 C 0.25138 0.63658 0.2331 0.0
H1254 H 0.22122 0.60538 0.22039 0.0
H1255 H 0.27032 0.59711 0.27873 0.0
C1256 C 0.16337 0.5599 0.31929 0.0
N1257 N 0.17162 0.57756 0.3056 0.0
C1258 C 0.15176 0.5648 0.33921 0.0
C1259 C 0.15775 0.60611 0.33073 0.0
C1260 C 0.16953 0.60049 0.31115 0.0
C1261 C 0.14859 0.58803 0.34475 0.0
H1262 H 0.16551 0.54192 0.31442 0.0
H1263 H 0.17677 0.61436 0.30035 0.0
C1264 C 0.22744 0.55104 0.21685 0.0
N1265 N 0.26809 0.56349 0.19349 0.0
C1266 C 0.22559 0.55897 0.19412 0.0
C1267 C 0.24987 0.54917 0.22759 0.0
C1268 C 0.24638 0.56526 0.18263 0.0
C1269 C 0.27023 0.55562 0.21551 0.0
C1270 C 0.14499 0.51848 0.25632 0.0
C1271 C 0.14341 0.49505 0.24503 0.0
C1272 C 0.12418 0.52387 0.26365 0.0
C1273 C 0.12086 0.47748 0.2408 0.0
C1274 C 0.10197 0.50579 0.25908 0.0
N1275 N 0.10078 0.48318 0.24782 0.0
C1276 C 0.20997 0.50237 0.2893 0.0
C1277 C 0.21676 0.49445 0.24809 0.0
C1278 C 0.2229 0.48637 0.29625 0.0
N1279 N 0.2081 0.50666 0.26582 0.0
C1280 C 0.22999 0.47845 0.25425 0.0
C1281 C 0.23398 0.47531 0.27874 0.0
H1282 H 0.20327 0.51296 0.30291 0.0
H1283 H 0.21523 0.49876 0.2297 0.0
C1284 C 0.16321 0.57285 0.19395 0.0
N1285 N 0.15702 0.55348 0.20611 0.0
C1286 C 0.14836 0.57416 0.1731 0.0
C1287 C 0.1214 0.53521 0.17745 0.0
C1288 C 0.13681 0.53465 0.19819 0.0
C1289 C 0.12714 0.55527 0.16502 0.0
H1290 H 0.17955 0.58743 0.20069 0.0
H1291 H 0.1325 0.51935 0.20795 0.0
O1292 O 0.2181 0.56258 0.28576 0.0
O1293 O 0.18956 0.58849 0.25255 0.0
O1294 O 0.20746 0.54546 0.22871 0.0
O1295 O 0.1669 0.5359 0.26073 0.0
H1296 H 0.21838 0.60902 0.29469 0.0
H1297 H 0.24796 0.55358 0.32046 0.0
H1298 H 0.24168 0.6379 0.3311 0.0
H1299 H 0.27126 0.58364 0.35613 0.0
H1300 H 0.11319 0.59844 0.24648 0.0
H1301 H 0.20189 0.63613 0.25394 0.0
H1302 H 0.14135 0.57234 0.24852 0.0
H1303 H 0.1727 0.66116 0.25181 0.0
H1304 H 0.29476 0.63977 0.28111 0.0
H1305 H 0.24446 0.6477 0.2213 0.0
H1306 H 0.14484 0.55056 0.34986 0.0
H1307 H 0.15558 0.62422 0.33477 0.0
H1308 H 0.20834 0.56044 0.18554 0.0
H1309 H 0.25161 0.5432 0.24526 0.0
H1310 H 0.24527 0.57158 0.16511 0.0
H1311 H 0.28776 0.55447 0.22368 0.0
H1312 H 0.15938 0.49057 0.23937 0.0
H1313 H 0.12517 0.54178 0.27284 0.0
H1314 H 0.11931 0.45931 0.23192 0.0
H1315 H 0.0857 0.50973 0.26454 0.0
H1316 H 0.22603 0.48428 0.3153 0.0
H1317 H 0.23859 0.47013 0.24054 0.0
H1318 H 0.15312 0.58975 0.16359 0.0
H1319 H 0.10508 0.52035 0.17128 0.0
Li1320 Li 0.78718 0.90036 0.54561 0.0
Li1321 Li 0.80521 0.87449 0.56999 0.0
Li1322 Li 0.83119 0.90833 0.55214 0.0
Li1323 Li 0.80696 0.87131 0.52493 0.0
C1324 C 0.82302 0.92872 0.59389 0.0
N1325 N 0.85204 0.96665 0.62801 0.0
C1326 C 0.8347 0.92396 0.61532 0.0
C1327 C 0.82614 0.95276 0.58979 0.0
C1328 C 0.84924 0.9434 0.63238 0.0
C1329 C 0.84092 0.97168 0.60723 0.0
C1330 C 0.76 0.84626 0.54866 0.0
C1331 C 0.74265 0.80405 0.55191 0.0
N1332 N 0.72458 0.81008 0.56301 0.0
C1333 C 0.74118 0.85204 0.55993 0.0
C1334 C 0.7607 0.82209 0.54445 0.0
C1335 C 0.72347 0.83348 0.56712 0.0
C1336 C 0.74419 0.91 0.52298 0.0
N1337 N 0.76115 0.91523 0.54327 0.0
C1338 C 0.74405 0.94564 0.56094 0.0
C1339 C 0.76098 0.9322 0.56232 0.0
C1340 C 0.72709 0.94139 0.53984 0.0
C1341 C 0.7269 0.9231 0.52079 0.0
H1342 H 0.74459 0.89622 0.50821 0.0
H1343 H 0.7743 0.93565 0.57843 0.0
C1344 C 0.81677 0.8484 0.60979 0.0
N1345 N 0.80117 0.86011 0.59992 0.0
C1346 C 0.81485 0.84142 0.63304 0.0
C1347 C 0.7809 0.85855 0.6356 0.0
C1348 C 0.78348 0.86522 0.6124 0.0
C1349 C 0.79684 0.84669 0.64632 0.0
H1350 H 0.83121 0.84517 0.60002 0.0
H1351 H 0.77185 0.87531 0.60468 0.0
C1352 C 0.79906 0.91663 0.50447 0.0
N1353 N 0.77622 0.93826 0.47082 0.0
C1354 C 0.78805 0.90359 0.48152 0.0
C1355 C 0.79818 0.94065 0.51032 0.0
C1356 C 0.77665 0.91483 0.46478 0.0
C1357 C 0.78666 0.95127 0.49305 0.0
C1358 C 0.84433 0.85696 0.54458 0.0
C1359 C 0.86567 0.86315 0.53391 0.0
C1360 C 0.83349 0.83264 0.54644 0.0
C1361 C 0.87574 0.8448 0.52508 0.0
C1362 C 0.84413 0.81482 0.53741 0.0
N1363 N 0.86484 0.82122 0.52699 0.0
C1364 C 0.8822 0.92896 0.56761 0.0
C1365 C 0.86275 0.9528 0.54505 0.0
C1366 C 0.90499 0.94545 0.56772 0.0
N1367 N 0.86174 0.93273 0.55602 0.0
C1368 C 0.88502 0.96983 0.54494 0.0
C1369 C 0.90648 0.96592 0.5559 0.0
H1370 H 0.88091 0.91274 0.57603 0.0
H1371 H 0.84638 0.95528 0.53575 0.0
C1372 C 0.78897 0.83444 0.48147 0.0
N1373 N 0.80797 0.85296 0.49361 0.0
C1374 C 0.78886 0.82557 0.45682 0.0
C1375 C 0.8281 0.85439 0.4579 0.0
C1376 C 0.82747 0.8627 0.4824 0.0
C1377 C 0.8084 0.83598 0.44467 0.0
H1378 H 0.77332 0.82745 0.49044 0.0
H1379 H 0.84195 0.87796 0.49209 0.0
O1380 O 0.80855 0.90996 0.57702 0.0
O1381 O 0.77744 0.86415 0.54145 0.0
O1382 O 0.8106 0.906 0.52106 0.0
O1383 O 0.834 0.8746 0.55301 0.0
H1384 H 0.83256 0.90549 0.61879 0.0
H1385 H 0.81735 0.95676 0.57323 0.0
H1386 H 0.85831 0.94 0.6491 0.0
H1387 H 0.84355 0.99037 0.60425 0.0
H1388 H 0.74298 0.78526 0.54882 0.0
H1389 H 0.74033 0.87068 0.56318 0.0
H1390 H 0.77497 0.8173 0.53545 0.0
H1391 H 0.70885 0.83768 0.57596 0.0
H1392 H 0.74451 0.9596 0.57594 0.0
H1393 H 0.71395 0.91947 0.50428 0.0
H1394 H 0.82761 0.83247 0.64083 0.0
H1395 H 0.76696 0.86312 0.64536 0.0
H1396 H 0.78815 0.88496 0.4766 0.0
H1397 H 0.80581 0.95088 0.52819 0.0
H1398 H 0.76812 0.90491 0.44697 0.0
H1399 H 0.78594 0.96984 0.49735 0.0
H1400 H 0.87425 0.88191 0.53231 0.0
H1401 H 0.81704 0.8276 0.55475 0.0
H1402 H 0.89219 0.8493 0.51668 0.0
H1403 H 0.83591 0.79592 0.53868 0.0
H1404 H 0.92131 0.94194 0.57628 0.0
H1405 H 0.88563 0.98543 0.53562 0.0
H1406 H 0.77322 0.81152 0.44705 0.0
H1407 H 0.84332 0.86302 0.44904 0.0
Li1408 Li 0.9772 0.04511 0.30379 0.0
Li1409 Li 0.94099 0.01744 0.27734 0.0
Li1410 Li 0.97393 0.04569 0.25863 0.0
Li1411 Li 0.94631 0.06295 0.2821 0.0
C1412 C 0.99209 1.00511 0.2816 0.0
N1413 N 0.02533 0.97914 0.29119 0.0
C1414 C 0.98613 0.98531 0.29433 0.0
C1415 C 1.01482 0.01154 0.27349 0.0
C1416 C 1.00322 0.97245 0.29906 0.0
C1417 C 0.03142 0.99823 0.27861 0.0
C1418 C 0.93182 0.03166 0.32585 0.0
C1419 C 0.90437 0.0322 0.35571 0.0
N1420 N 0.91101 0.01356 0.36476 0.0
C1421 C 0.93835 0.0125 0.3354 0.0
C1422 C 0.9147 0.04162 0.33603 0.0
C1423 C 0.92764 1.00361 0.3551 0.0
C1424 C 0.98841 0.06095 0.35458 0.0
N1425 N 0.99557 0.04774 0.33628 0.0
C1426 C 0.02108 0.03463 0.36584 0.0
C1427 C 1.01211 0.03517 0.34151 0.0
C1428 C 1.01313 0.0473 0.38497 0.0
C1429 C 0.99696 0.06097 0.3791 0.0
H1430 H 0.97527 0.07081 0.35015 0.0
H1431 H 0.01798 0.02503 0.32696 0.0
C1432 C 0.92211 0.96604 0.26595 0.0
N1433 N 0.91698 0.98706 0.2742 0.0
C1434 C 0.90532 0.94363 0.26623 0.0
C1435 C 0.87794 0.96498 0.28251 0.0
C1436 C 0.89523 0.98696 0.2819 0.0
C1437 C 0.88316 0.94306 0.27497 0.0
H1438 H 0.93947 0.96669 0.25976 0.0
H1439 H 0.8916 1.00397 0.28821 0.0
C1440 C 1.00528 0.08945 0.28621 0.0
N1441 N 0.0512 0.12026 0.28681 0.0
C1442 C 1.00797 0.11327 0.28158 0.0
C1443 C 0.0259 0.08133 0.29134 0.0
C1444 C 0.03135 0.12856 0.28191 0.0
C1445 C 0.04898 0.09718 0.2915 0.0
C1446 C 0.92609 0.04225 0.23107 0.0
C1447 C 0.93433 0.06413 0.22202 0.0
C1448 C 0.9057 0.02437 0.2185 0.0
C1449 C 0.92209 0.06768 0.20031 0.0
C1450 C 0.89388 0.02866 0.19692 0.0
N1451 N 0.90228 0.05003 0.18833 0.0
C1452 C 0.98613 0.02765 0.21291 0.0
C1453 C 0.99762 0.07064 0.22158 0.0
C1454 C 0.99324 0.02864 0.18959 0.0
N1455 N 0.9883 0.04847 0.22839 0.0
C1456 C 1.005 0.07246 0.19845 0.0
C1457 C 1.0026 0.05128 0.18204 0.0
H1458 H 0.97824 0.01023 0.21844 0.0
H1459 H 0.99859 0.08699 0.23373 0.0
C1460 C 0.93876 0.10863 0.2983 0.0
N1461 N 0.92852 0.08651 0.28446 0.0
C1462 C 0.92537 0.12566 0.30082 0.0
C1463 C 0.89135 0.0969 0.27452 0.0
C1464 C 0.90528 0.08037 0.27271 0.0
C1465 C 0.90136 0.11975 0.28885 0.0
H1466 H 0.95721 0.1129 0.30762 0.0
H1467 H 0.89746 0.06252 0.26215 0.0
O1468 O 0.97558 0.01784 0.27664 0.0
O1469 O 0.94216 0.04077 0.30666 0.0
O1470 O 0.98252 0.07429 0.28592 0.0
O1471 O 0.93763 0.03839 0.25234 0.0
H1472 H 0.96855 0.97997 0.30058 0.0
H1473 H 0.01958 0.02664 0.26335 0.0
H1474 H 0.99891 0.95716 0.30899 0.0
H1475 H 0.04913 1.00305 0.27254 0.0
H1476 H 0.8911 0.03972 0.3638 0.0
H1477 H 0.95164 1.00469 0.32774 0.0
H1478 H 0.90948 0.05648 0.3288 0.0
H1479 H 0.93257 0.98883 0.36273 0.0
H1480 H 0.03376 0.02409 0.36972 0.0
H1481 H 0.99055 0.07108 0.39339 0.0
H1482 H 0.90978 0.92692 0.26031 0.0
H1483 H 0.86098 0.96503 0.28939 0.0
H1484 H 0.99213 0.1198 0.27763 0.0
H1485 H 0.02409 0.06303 0.29524 0.0
H1486 H 0.03372 0.14702 0.27826 0.0
H1487 H 0.06512 0.09115 0.2954 0.0
H1488 H 0.94993 0.07824 0.23174 0.0
H1489 H 0.89904 1.0074 0.22543 0.0
H1490 H 0.92828 0.08449 0.19301 0.0
H1491 H 0.87804 0.01501 0.18702 0.0
H1492 H 0.9911 0.01192 0.1774 0.0
H1493 H 1.01209 0.09022 0.19324 0.0
H1494 H 0.93351 0.14312 0.31213 0.0
H1495 H 0.87281 0.09178 0.2652 0.0
Li1496 Li 0.30703 0.69113 0.58222 0.0
Li1497 Li 0.32382 0.66138 0.56054 0.0
Li1498 Li 0.30325 0.68766 0.53947 0.0
Li1499 Li 0.28069 0.65489 0.55841 0.0
C1500 C 0.35116 0.71495 0.57818 0.0
N1501 N 0.38466 0.7502 0.61168 0.0
C1502 C 0.37059 0.70925 0.59117 0.0
C1503 C 0.34887 0.73864 0.58209 0.0
C1504 C 0.38733 0.72733 0.60804 0.0
C1505 C 0.36595 0.75617 0.59917 0.0
C1506 C 0.29281 0.64126 0.60117 0.0
C1507 C 0.27687 0.59991 0.60822 0.0
N1508 N 0.26728 0.60808 0.62775 0.0
C1509 C 0.28295 0.64927 0.62142 0.0
C1510 C 0.28992 0.6164 0.59461 0.0
C1511 C 0.27005 0.63221 0.63459 0.0
C1512 C 0.29496 0.72714 0.61075 0.0
N1513 N 0.31019 0.71266 0.61063 0.0
C1514 C 0.3268 0.72814 0.6521 0.0
C1515 C 0.32613 0.71292 0.63057 0.0
C1516 C 0.31081 0.7428 0.65265 0.0
C1517 C 0.29511 0.74267 0.63171 0.0
H1518 H 0.28207 0.72599 0.59489 0.0
H1519 H 0.33771 0.70083 0.62987 0.0
C1520 C 0.35688 0.64329 0.53822 0.0
N1521 N 0.34796 0.64579 0.5597 0.0
C1522 C 0.37075 0.6271 0.53433 0.0
C1523 C 0.36723 0.61781 0.57544 0.0
C1524 C 0.35327 0.6341 0.57847 0.0
C1525 C 0.37531 0.61374 0.55286 0.0
H1526 H 0.35184 0.65268 0.52363 0.0
H1527 H 0.34556 0.63643 0.59519 0.0
C1528 C 0.26133 0.69707 0.54644 0.0
N1529 N 0.22875 0.71523 0.51937 0.0
C1530 C 0.23993 0.68132 0.53303 0.0
C1531 C 0.26624 0.7221 0.54577 0.0
C1532 C 0.22368 0.69085 0.51955 0.0
C1533 C 0.24952 0.7309 0.53207 0.0
C1534 C 0.29091 0.63051 0.51567 0.0
C1535 C 0.276 0.62849 0.49357 0.0
C1536 C 0.29744 0.61007 0.52216 0.0
C1537 C 0.26775 0.60605 0.47841 0.0
C1538 C 0.28889 0.58797 0.50645 0.0
N1539 N 0.27433 0.58643 0.4851 0.0
C1540 C 0.32282 0.72674 0.51603 0.0
C1541 C 0.28466 0.70096 0.49609 0.0
C1542 C 0.32204 0.74367 0.50027 0.0
N1543 N 0.30397 0.7063 0.51407 0.0
C1544 C 0.28307 0.7174 0.48003 0.0
C1545 C 0.30166 0.73917 0.48254 0.0
H1546 H 0.33808 0.73028 0.53028 0.0
H1547 H 0.26992 0.68464 0.49509 0.0
C1548 C 0.23765 0.64084 0.57576 0.0
N1549 N 0.25021 0.63237 0.559 0.0
C1550 C 0.21359 0.62848 0.57671 0.0
C1551 C 0.216 0.5983 0.5437 0.0
C1552 C 0.24021 0.6111 0.54362 0.0
C1553 C 0.2024 0.60752 0.5599 0.0
H1554 H 0.24601 0.65795 0.58754 0.0
H1555 H 0.25039 0.60454 0.53056 0.0
O1556 O 0.33435 0.69738 0.56189 0.0
O1557 O 0.30524 0.65767 0.58786 0.0
O1558 O 0.27731 0.68816 0.56022 0.0
O1559 O 0.29936 0.65247 0.53054 0.0
H1560 H 0.37263 0.69103 0.58838 0.0
H1561 H 0.33376 0.7433 0.57241 0.0
H1562 H 0.40241 0.72315 0.61829 0.0
H1563 H 0.36425 0.77449 0.60258 0.0
H1564 H 0.27435 0.58061 0.60324 0.0
H1565 H 0.28498 0.66844 0.62676 0.0
H1566 H 0.29751 0.60989 0.57907 0.0
H1567 H 0.26219 0.63814 0.65021 0.0
H1568 H 0.33878 0.72776 0.66834 0.0
H1569 H 0.2823 0.75355 0.632 0.0
H1570 H 0.37685 0.62414 0.51676 0.0
H1571 H 0.37064 0.60762 0.58996 0.0
H1572 H 0.23592 0.66191 0.53268 0.0
H1573 H 0.28298 0.7346 0.55541 0.0
H1574 H 0.20707 0.67883 0.50915 0.0
H1575 H 0.25308 0.7502 0.53147 0.0
H1576 H 0.27078 0.64405 0.48819 0.0
H1577 H 0.30876 0.61108 0.53919 0.0
H1578 H 0.25614 0.60424 0.46131 0.0
H1579 H 0.29378 0.57203 0.51129 0.0
H1580 H 0.33673 0.76028 0.50224 0.0
H1581 H 0.26723 0.71354 0.46624 0.0
H1582 H 0.20333 0.63603 0.58927 0.0
H1583 H 0.20761 0.58215 0.53046 0.0
Li1584 Li 0.44167 0.52 0.77651 0.0
Li1585 Li 0.47806 0.54542 0.80336 0.0
Li1586 Li 0.44762 0.56468 0.78209 0.0
Li1587 Li 0.47518 0.5463 0.75769 0.0
C1588 C 0.43052 0.53153 0.8236 0.0
N1589 N 0.40463 0.50932 0.85777 0.0
C1590 C 0.43751 0.51311 0.83418 0.0
C1591 C 0.41042 0.53873 0.83044 0.0
C1592 C 0.42418 0.50209 0.85142 0.0
C1593 C 0.39755 0.52725 0.84773 0.0
C1594 C 0.49176 0.50545 0.78173 0.0
C1595 C 0.53098 0.49782 0.78037 0.0
N1596 N 0.52421 0.47919 0.79341 0.0
C1597 C 0.48512 0.48614 0.79498 0.0
C1598 C 0.51481 0.5113 0.77424 0.0
C1599 C 0.50181 0.47313 0.80076 0.0
C1600 C 0.42262 0.4687 0.76369 0.0
N1601 N 0.41719 0.48937 0.77266 0.0
C1602 C 0.37866 0.46614 0.7812 0.0
C1603 C 0.39543 0.48848 0.78072 0.0
C1604 C 0.38422 0.4446 0.77293 0.0
C1605 C 0.40623 0.44593 0.76361 0.0
H1606 H 0.43996 0.46988 0.75726 0.0
H1607 H 0.39133 0.50509 0.78746 0.0
C1608 C 0.48834 0.5598 0.85414 0.0
N1609 N 0.49652 0.54776 0.83574 0.0
C1610 C 0.49697 0.55983 0.87862 0.0
C1611 C 0.52336 0.53605 0.86519 0.0
C1612 C 0.51415 0.53642 0.84086 0.0
C1613 C 0.51437 0.54747 0.88442 0.0
H1614 H 0.4744 0.56877 0.8498 0.0
H1615 H 0.52078 0.52717 0.82623 0.0
C1616 C 0.41719 0.53437 0.73693 0.0
N1617 N 0.37247 0.52045 0.70776 0.0
C1618 C 0.41557 0.52645 0.71198 0.0
C1619 C 0.39613 0.53525 0.74708 0.0
C1620 C 0.39277 0.51951 0.69752 0.0
C1621 C 0.37366 0.52809 0.73203 0.0
C1622 C 0.5051 0.59178 0.78486 0.0
C1623 C 0.50436 0.615 0.78052 0.0
C1624 C 0.52749 0.58649 0.7886 0.0
C1625 C 0.52616 0.63262 0.77985 0.0
C1626 C 0.54889 0.60461 0.78778 0.0
N1627 N 0.54778 0.6271 0.78345 0.0
C1628 C 0.42949 0.60025 0.80716 0.0
C1629 C 0.42164 0.59585 0.76394 0.0
C1630 C 0.41581 0.61701 0.80943 0.0
N1631 N 0.43175 0.58978 0.78467 0.0
C1632 C 0.40761 0.61232 0.76537 0.0
C1633 C 0.40436 0.62277 0.78833 0.0
H1634 H 0.43779 0.59507 0.8233 0.0
H1635 H 0.42389 0.58737 0.7463 0.0
C1636 C 0.48922 0.52871 0.7126 0.0
N1637 N 0.48972 0.54933 0.72759 0.0
C1638 C 0.49622 0.52993 0.68925 0.0
C1639 C 0.50444 0.57359 0.69709 0.0
C1640 C 0.49716 0.57153 0.72024 0.0
C1641 C 0.50374 0.55258 0.68115 0.0
H1642 H 0.48268 0.5112 0.71851 0.0
H1643 H 0.49676 0.58766 0.73201 0.0
O1644 O 0.44327 0.54253 0.80663 0.0
O1645 O 0.47565 0.51829 0.77571 0.0
O1646 O 0.43941 0.54173 0.75123 0.0
O1647 O 0.48395 0.5744 0.78563 0.0
H1648 H 0.45307 0.50741 0.82914 0.0
H1649 H 0.40471 0.55289 0.82232 0.0
H1650 H 0.42937 0.48779 0.85975 0.0
H1651 H 0.3819 0.53258 0.85315 0.0
H1652 H 0.54892 0.50217 0.77477 0.0
H1653 H 0.46727 0.48125 0.80074 0.0
H1654 H 0.52014 0.52611 0.76383 0.0
H1655 H 0.49696 0.45819 0.81108 0.0
H1656 H 0.36175 0.46564 0.78842 0.0
H1657 H 0.41097 0.42954 0.75709 0.0
H1658 H 0.48976 0.56902 0.89294 0.0
H1659 H 0.53701 0.52656 0.86898 0.0
H1660 H 0.43178 0.52583 0.70386 0.0
H1661 H 0.39715 0.54152 0.76635 0.0
H1662 H 0.39122 0.51341 0.67816 0.0
H1663 H 0.35719 0.52867 0.73962 0.0
H1664 H 0.48711 0.61932 0.77766 0.0
H1665 H 0.5283 0.5686 0.7921 0.0
H1666 H 0.52588 0.65067 0.77646 0.0
H1667 H 0.56638 0.60082 0.79061 0.0
H1668 H 0.41352 0.6248 0.82739 0.0
H1669 H 0.39895 0.61646 0.74879 0.0
H1670 H 0.49542 0.51333 0.67745 0.0
H1671 H 0.51012 0.59136 0.69148 0.0
Li1672 Li 0.68839 0.07342 0.77644 0.0
Li1673 Li 0.71654 0.08386 0.74832 0.0
Li1674 Li 0.67685 0.06161 0.7327 0.0
Li1675 Li 0.70521 0.04291 0.7543 0.0
C1676 C 0.66752 0.10392 0.75378 0.0
N1677 N 0.62864 0.12309 0.75919 0.0
C1678 C 0.67065 0.12893 0.7548 0.0
C1679 C 0.6446 0.08868 0.75558 0.0
C1680 C 0.65078 0.13827 0.75754 0.0
C1681 C 0.62518 0.09871 0.75827 0.0
C1682 C 0.74082 0.08703 0.79473 0.0
C1683 C 0.77989 0.09619 0.81977 0.0
N1684 N 0.77885 0.11938 0.82619 0.0
C1685 C 0.74012 0.11093 0.80154 0.0
C1686 C 0.76085 0.07956 0.80384 0.0
C1687 C 0.75954 0.12703 0.81747 0.0
C1688 C 0.66606 0.06295 0.81709 0.0
N1689 N 0.677 0.08167 0.80573 0.0
C1690 C 0.66639 0.1103 0.83395 0.0
C1691 C 0.67777 0.10508 0.81391 0.0
C1692 C 0.65429 0.09118 0.84541 0.0
C1693 C 0.65448 0.06734 0.83719 0.0
H1694 H 0.66573 0.04455 0.81003 0.0
H1695 H 0.68649 0.11959 0.80443 0.0
C1696 C 0.73192 0.12698 0.73325 0.0
N1697 N 0.74148 0.1103 0.74268 0.0
C1698 C 0.74617 0.1506 0.73461 0.0
C1699 C 0.78116 0.13832 0.75069 0.0
C1700 C 0.76581 0.11496 0.75021 0.0
C1701 C 0.77075 0.15685 0.74494 0.0
H1702 H 0.71271 0.12244 0.72652 0.0
H1703 H 0.773 0.10112 0.75721 0.0
C1704 C 0.65249 0.0196 0.7523 0.0
N1705 N 0.6154 0.97699 0.73875 0.0
C1706 C 0.65584 1.00056 0.7363 0.0
C1707 C 0.63035 0.01693 0.76152 0.0
C1708 C 0.63685 0.97915 0.72967 0.0
C1709 C 0.61179 0.99528 0.75438 0.0
C1710 C 0.72386 0.0627 0.70776 0.0
C1711 C 0.71732 0.0707 0.68595 0.0
C1712 C 0.74812 0.06311 0.71458 0.0
C1713 C 0.73524 0.07932 0.67149 0.0
C1714 C 0.76551 0.07186 0.69963 0.0
N1715 N 0.75877 0.07974 0.67858 0.0
C1716 C 0.65656 0.07883 0.69483 0.0
C1717 C 0.63249 0.0397 0.69951 0.0
C1718 C 0.64049 0.07952 0.67464 0.0
N1719 N 0.65245 0.05904 0.7066 0.0
C1720 C 0.61585 0.03967 0.67946 0.0
C1721 C 0.62002 0.05969 0.66684 0.0
H1722 H 0.67262 0.09393 0.70098 0.0
H1723 H 0.62948 0.02424 0.70909 0.0
C1724 C 0.7127 1.00764 0.78048 0.0
N1725 N 0.71608 0.01604 0.75896 0.0
C1726 C 0.725 0.99136 0.78806 0.0
C1727 C 0.74319 0.99216 0.75065 0.0
C1728 C 0.73015 1.00807 0.74359 0.0
C1729 C 0.74113 0.98434 0.77343 0.0
H1730 H 0.70154 0.0147 0.7923 0.0
H1731 H 0.73225 0.01504 0.72653 0.0
O1732 O 0.68704 0.0947 0.75155 0.0
O1733 O 0.72218 0.07103 0.77893 0.0
O1734 O 0.6708 0.04071 0.75914 0.0
O1735 O 0.7066 0.05449 0.72233 0.0
H1736 H 0.68831 0.14105 0.75372 0.0
H1737 H 0.64181 0.06934 0.75495 0.0
H1738 H 0.65298 0.15759 0.75841 0.0
H1739 H 0.60736 0.08712 0.75968 0.0
H1740 H 0.79551 0.09067 0.827 0.0
H1741 H 0.72502 0.11712 0.79417 0.0
H1742 H 0.76166 0.06111 0.79863 0.0
H1743 H 0.75931 0.14562 0.82279 0.0
H1744 H 0.66639 0.12886 0.84002 0.0
H1745 H 0.64516 0.0523 0.8458 0.0
H1746 H 0.73752 0.16425 0.7294 0.0
H1747 H 0.8004 0.14218 0.75722 0.0
H1748 H 0.67277 1.00239 0.72882 0.0
H1749 H 0.62749 0.03148 0.77399 0.0
H1750 H 0.63913 0.96429 0.71723 0.0
H1751 H 0.59452 0.99301 0.76127 0.0
H1752 H 0.69861 0.07017 0.68015 0.0
H1753 H 0.7536 0.05732 0.73157 0.0
H1754 H 0.73043 0.08563 0.6546 0.0
H1755 H 0.7844 0.07253 0.70484 0.0
H1756 H 0.64411 0.0951 0.66501 0.0
H1757 H 0.60014 0.02408 0.67357 0.0
H1758 H 0.72314 0.98546 0.80571 0.0
H1759 H 0.75549 0.98684 0.73904 0.0
Li1760 Li 0.7885 0.73431 0.05266 0.0
Li1761 Li 0.80778 0.70381 0.03155 0.0
Li1762 Li 0.78839 0.73084 0.00678 0.0
Li1763 Li 0.76398 0.69871 0.02586 0.0
C1764 C 0.83702 0.75848 0.04429 0.0
N1765 N 0.87742 0.79535 0.06642 0.0
C1766 C 0.85406 0.75375 0.06148 0.0
C1767 C 0.84074 0.78183 0.03799 0.0
C1768 C 0.87431 0.77267 0.07258 0.0
C1769 C 0.86122 0.80026 0.04948 0.0
C1770 C 0.7729 0.68219 0.06754 0.0
C1771 C 0.76143 0.64033 0.0742 0.0
N1772 N 0.74608 0.64562 0.08967 0.0
C1773 C 0.757 0.68723 0.08349 0.0
C1774 C 0.77519 0.65858 0.06286 0.0
C1775 C 0.7436 0.66848 0.0945 0.0
C1776 C 0.76999 0.75945 0.09121 0.0
N1777 N 0.78983 0.75261 0.08492 0.0
C1778 C 0.80876 0.76273 0.12677 0.0
C1779 C 0.80903 0.75418 0.10221 0.0
C1780 C 0.78834 0.76938 0.13379 0.0
C1781 C 0.76891 0.76801 0.11563 0.0
H1782 H 0.75442 0.75712 0.07751 0.0
H1783 H 0.82408 0.74759 0.0972 0.0
C1784 C 0.84313 0.68319 0.01346 0.0
N1785 N 0.83291 0.688 0.03376 0.0
C1786 C 0.85987 0.6694 0.01391 0.0
C1787 C 0.85567 0.66635 0.0563 0.0
C1788 C 0.83912 0.6803 0.05507 0.0
C1789 C 0.86589 0.66048 0.03542 0.0
H1790 H 0.83773 0.6895 0.99675 0.0
H1791 H 0.83069 0.68444 0.07092 0.0
C1792 C 0.75536 0.75372 0.02439 0.0
N1793 N 0.7443 0.79704 0.01996 0.0
C1794 C 0.73246 0.7536 0.01295 0.0
C1795 C 0.77261 0.77584 0.03361 0.0
C1796 C 0.72722 0.7757 0.01086 0.0
C1797 C 0.76667 0.79755 0.03121 0.0
C1798 C 0.77203 0.67739 0.98239 0.0
C1799 C 0.75215 0.6808 0.9679 0.0
C1800 C 0.77822 0.65551 0.97825 0.0
C1801 C 0.73864 0.66209 0.94953 0.0
C1802 C 0.76426 0.63725 0.95968 0.0
N1803 N 0.74492 0.64089 0.94584 0.0
C1804 C 0.81387 0.7495 0.96875 0.0
C1805 C 0.77208 0.74824 0.96287 0.0
C1806 C 0.81676 0.75667 0.94573 0.0
N1807 N 0.79176 0.74529 0.97685 0.0
C1808 C 0.77419 0.75546 0.93977 0.0
C1809 C 0.79668 0.75946 0.93082 0.0
H1810 H 0.82916 0.7466 0.97991 0.0
H1811 H 0.75453 0.74427 0.96929 0.0
C1812 C 0.71408 0.68265 0.02934 0.0
N1813 N 0.73318 0.67459 0.02303 0.0
C1814 C 0.69158 0.66614 0.03005 0.0
C1815 C 0.70865 0.63326 0.01746 0.0
C1816 C 0.73088 0.65041 0.0171 0.0
C1817 C 0.68883 0.64117 0.02419 0.0
H1818 H 0.71652 0.70192 0.03444 0.0
H1819 H 0.74646 0.64435 0.01286 0.0
O1820 O 0.81717 0.74017 0.03313 0.0
O1821 O 0.7861 0.70026 0.05651 0.0
O1822 O 0.76081 0.7322 0.02616 0.0
O1823 O 0.78541 0.69541 1.00053 0.0
H1824 H 0.85158 0.73569 0.06633 0.0
H1825 H 0.82799 0.78566 0.0243 0.0
H1826 H 0.88756 0.76932 0.08606 0.0
H1827 H 0.86427 0.81846 0.04488 0.0
H1828 H 0.76291 0.62194 0.07065 0.0
H1829 H 0.75496 0.70539 0.08723 0.0
H1830 H 0.78721 0.65433 0.05034 0.0
H1831 H 0.73119 0.67209 0.10685 0.0
H1832 H 0.82394 0.76326 0.14033 0.0
H1833 H 0.75275 0.77273 0.12043 0.0
H1834 H 0.86751 0.66513 0.99752 0.0
H1835 H 0.86001 0.65971 0.07316 0.0
H1836 H 0.71894 0.7366 0.00562 0.0
H1837 H 0.79031 0.77622 0.0427 0.0
H1838 H 0.7096 0.77589 1.00198 0.0
H1839 H 0.77985 0.81482 0.03831 0.0
H1840 H 0.74707 0.6976 0.97101 0.0
H1841 H 0.79352 0.65259 0.98939 0.0
H1842 H 0.72313 0.66441 0.93823 0.0
H1843 H 0.76877 0.62018 0.95631 0.0
H1844 H 0.83439 0.75963 0.93945 0.0
H1845 H 0.7583 0.75743 0.92876 0.0
H1846 H 0.6766 0.67272 0.03548 0.0
H1847 H 0.70708 0.61405 0.01308 0.0
Li1848 Li 0.88248 0.52905 0.81219 0.0
Li1849 Li 0.9205 0.54976 0.83718 0.0
Li1850 Li 0.89712 0.57172 0.81461 0.0
Li1851 Li 0.9182 0.54514 0.79322 0.0
C1852 C 0.87975 0.54207 0.86133 0.0
N1853 N 0.8647 0.51935 0.90039 0.0
C1854 C 0.88405 0.51972 0.86445 0.0
C1855 C 0.86781 0.55285 0.87814 0.0
C1856 C 0.87628 0.50853 0.88427 0.0
C1857 C 0.86035 0.54109 0.89776 0.0
C1858 C 0.9257 0.50295 0.81375 0.0
C1859 C 0.96302 0.49171 0.81053 0.0
N1860 N 0.95168 0.46876 0.81411 0.0
C1861 C 0.9144 0.47923 0.8174 0.0
C1862 C 0.95022 0.50925 0.81032 0.0
C1863 C 0.92785 0.46222 0.81753 0.0
C1864 C 0.85956 0.48557 0.78824 0.0
N1865 N 0.85621 0.5013 0.80674 0.0
C1866 C 0.82491 0.47041 0.81841 0.0
C1867 C 0.8385 0.49472 0.82104 0.0
C1868 C 0.83008 0.45349 0.80101 0.0
C1869 C 0.84658 0.46135 0.78498 0.0
H1870 H 0.87379 0.49152 0.77733 0.0
H1871 H 0.83618 0.50779 0.83551 0.0
C1872 C 0.95134 0.57325 0.87957 0.0
N1873 N 0.9413 0.55121 0.86559 0.0
C1874 C 0.96745 0.57526 0.9007 0.0
C1875 C 0.96283 0.53195 0.89206 0.0
C1876 C 0.94643 0.53071 0.87156 0.0
C1877 C 0.97326 0.55437 0.9069 0.0
H1878 H 0.94673 0.58916 0.87427 0.0
H1879 H 0.93762 0.51331 0.86073 0.0
C1880 C 0.86248 0.54036 0.77145 0.0
N1881 N 0.81625 0.52357 0.7453 0.0
C1882 C 0.85869 0.52607 0.74858 0.0
C1883 C 0.84282 0.54622 0.781 0.0
C1884 C 0.83515 0.5177 0.73566 0.0
C1885 C 0.81957 0.53756 0.76748 0.0
C1886 C 0.95549 0.58858 0.81561 0.0
C1887 C 0.95905 0.61001 0.80528 0.0
C1888 C 0.97563 0.58113 0.82448 0.0
C1889 C 0.98277 0.62348 0.80368 0.0
C1890 C 0.99905 0.59512 0.82257 0.0
N1891 N 1.00211 0.61581 0.81228 0.0
C1892 C 0.8756 0.60749 0.83065 0.0
C1893 C 0.88606 0.60664 0.79039 0.0
C1894 C 0.86131 0.62305 0.826 0.0
N1895 N 0.88685 0.59917 0.81262 0.0
C1896 C 0.87193 0.62207 0.78491 0.0
C1897 C 0.85872 0.62953 0.80259 0.0
H1898 H 0.87623 0.60061 0.84789 0.0
H1899 H 0.89479 0.59903 0.77637 0.0
C1900 C 0.92452 0.51398 0.75573 0.0
N1901 N 0.93338 0.53754 0.76652 0.0
C1902 C 0.93506 0.50503 0.73672 0.0
C1903 C 0.96333 0.54504 0.73975 0.0
C1904 C 0.95226 0.55321 0.75887 0.0
C1905 C 0.95466 0.5207 0.72871 0.0
H1906 H 0.90957 0.502 0.76229 0.0
H1907 H 0.95885 0.57186 0.76764 0.0
O1908 O 0.88711 0.55353 0.84205 0.0
O1909 O 0.91276 0.51985 0.81377 0.0
O1910 O 0.88528 0.54815 0.78464 0.0
O1911 O 0.93238 0.57542 0.81752 0.0
H1912 H 0.89298 0.51089 0.8516 0.0
H1913 H 0.86431 0.57012 0.87605 0.0
H1914 H 0.87941 0.49119 0.88679 0.0
H1915 H 0.85108 0.54925 0.91089 0.0
H1916 H 0.98199 0.49634 0.80782 0.0
H1917 H 0.89554 0.47406 0.82039 0.0
H1918 H 0.95923 0.52742 0.80734 0.0
H1919 H 0.91935 0.44384 0.82041 0.0
H1920 H 0.81201 0.46457 0.83086 0.0
H1921 H 0.85072 0.44857 0.77135 0.0
H1922 H 0.97512 0.59272 0.91215 0.0
H1923 H 0.96677 0.51551 0.89677 0.0
H1924 H 0.87374 0.52133 0.741 0.0
H1925 H 0.84545 0.5571 0.79878 0.0
H1926 H 0.8319 0.50651 0.718 0.0
H1927 H 0.80416 0.54188 0.77466 0.0
H1928 H 0.94364 0.61611 0.7985 0.0
H1929 H 0.97328 0.56485 0.83291 0.0
H1930 H 0.9858 0.64005 0.79564 0.0
H1931 H 1.0148 0.58956 0.82935 0.0
H1932 H 0.85108 0.62855 0.83982 0.0
H1933 H 0.86998 0.62678 0.76667 0.0
H1934 H 0.92814 0.48615 0.72842 0.0
H1935 H 0.9785 0.55744 0.7337 0.0
Li1936 Li 0.80659 0.42342 0.54466 0.0
Li1937 Li 0.7787 0.44619 0.52596 0.0
Li1938 Li 0.79216 0.4155 0.50097 0.0
Li1939 Li 0.82014 0.45422 0.51865 0.0
C1940 C 0.75397 0.39008 0.5263 0.0
N1941 N 0.71641 0.3479 0.52219 0.0
C1942 C 0.72983 0.39046 0.52021 0.0
C1943 C 0.75899 0.3683 0.5305 0.0
C1944 C 0.7111 0.36892 0.51817 0.0
C1945 C 0.73975 0.34716 0.52826 0.0
C1946 C 0.82164 0.48086 0.56245 0.0
C1947 C 0.83163 0.5246 0.56669 0.0
N1948 N 0.84954 0.5262 0.58535 0.0
C1949 C 0.83997 0.48291 0.58182 0.0
C1950 C 0.81727 0.50183 0.55493 0.0
C1951 C 0.85395 0.50601 0.5931 0.0
C1952 C 0.83946 0.40723 0.57288 0.0
N1953 N 0.81609 0.40865 0.57035 0.0
C1954 C 0.80575 0.3819 0.59942 0.0
C1955 C 0.79939 0.39692 0.58356 0.0
C1956 C 0.82935 0.37897 0.60123 0.0
C1957 C 0.84647 0.39206 0.58811 0.0
H1958 H 0.85229 0.41698 0.56214 0.0
H1959 H 0.78091 0.39838 0.5809 0.0
C1960 C 0.73925 0.4626 0.51066 0.0
N1961 N 0.75372 0.46006 0.53052 0.0
C1962 C 0.72397 0.47762 0.51327 0.0
C1963 C 0.7375 0.48526 0.55694 0.0
C1964 C 0.75274 0.47035 0.55343 0.0
C1965 C 0.72365 0.48952 0.53656 0.0
H1966 H 0.74073 0.45416 0.4927 0.0
H1967 H 0.76476 0.46802 0.56871 0.0
C1968 C 0.83894 0.40695 0.51077 0.0
N1969 N 0.86603 0.376 0.49618 0.0
C1970 C 0.85989 0.41563 0.50006 0.0
C1971 C 0.83178 0.38254 0.51404 0.0
C1972 C 0.87333 0.39969 0.4928 0.0
C1973 C 0.84572 0.36719 0.50655 0.0
C1974 C 0.79372 0.46388 0.47752 0.0
C1975 C 0.80086 0.45735 0.45504 0.0
C1976 C 0.78928 0.48656 0.48266 0.0
C1977 C 0.80372 0.47371 0.4382 0.0
C1978 C 0.79231 0.50241 0.46532 0.0
N1979 N 0.79943 0.49572 0.44364 0.0
C1980 C 0.76261 0.37411 0.46748 0.0
C1981 C 0.80254 0.39286 0.45956 0.0
C1982 C 0.75855 0.35721 0.44637 0.0
N1983 N 0.78441 0.39137 0.47362 0.0
C1984 C 0.79934 0.3764 0.43851 0.0
C1985 C 0.77711 0.35859 0.43177 0.0
H1986 H 0.74818 0.37374 0.47844 0.0
H1987 H 0.81927 0.4073 0.46437 0.0
C1988 C 0.86748 0.47474 0.53294 0.0
N1989 N 0.84956 0.47703 0.51621 0.0
C1990 C 0.8914 0.48818 0.53335 0.0
C1991 C 0.87817 0.5063 0.49914 0.0
C1992 C 0.85427 0.49263 0.4996 0.0
C1993 C 0.89685 0.50379 0.51606 0.0
H1994 H 0.8632 0.46177 0.5455 0.0
H1995 H 0.83988 0.49406 0.48633 0.0
O1996 O 0.77247 0.41104 0.52853 0.0
O1997 O 0.80796 0.4584 0.55102 0.0
O1998 O 0.82551 0.42234 0.51787 0.0
O1999 O 0.79042 0.44788 0.49406 0.0
H2000 H 0.72564 0.4072 0.51701 0.0
H2001 H 0.77751 0.3677 0.53545 0.0
H2002 H 0.69233 0.36891 0.51339 0.0
H2003 H 0.74339 0.33017 0.5314 0.0
H2004 H 0.82852 0.54099 0.56098 0.0
H2005 H 0.84348 0.4668 0.58791 0.0
H2006 H 0.80297 0.50055 0.54019 0.0
H2007 H 0.86831 0.50788 0.60801 0.0
H2008 H 0.79224 0.37194 0.60944 0.0
H2009 H 0.8648 0.39009 0.58927 0.0
H2010 H 0.71339 0.48079 0.49732 0.0
H2011 H 0.7375 0.49443 0.57506 0.0
H2012 H 0.86558 0.4344 0.49712 0.0
H2013 H 0.81564 0.37553 0.52225 0.0
H2014 H 0.88954 0.40615 0.48444 0.0
H2015 H 0.84039 0.34825 0.50898 0.0
H2016 H 0.80417 0.43986 0.4506 0.0
H2017 H 0.78357 0.49193 0.49982 0.0
H2018 H 0.80931 0.4689 0.42077 0.0
H2019 H 0.789 0.52003 0.4691 0.0
H2020 H 0.74104 0.34379 0.44111 0.0
H2021 H 0.81374 0.37802 0.42714 0.0
H2022 H 0.90564 0.48583 0.54644 0.0
H2023 H 0.88213 0.51821 0.48552 0.0
Li2024 Li 0.62092 0.55938 0.31914 0.0
Li2025 Li 0.65445 0.58751 0.30126 0.0
Li2026 Li 0.61819 0.56053 0.27451 0.0
Li2027 Li 0.64802 0.54176 0.29303 0.0
C2028 C 0.60039 0.59657 0.29636 0.0
N2029 N 0.56089 0.61437 0.28551 0.0
C2030 C 0.60399 0.62113 0.29414 0.0
C2031 C 0.57674 0.58108 0.29314 0.0
C2032 C 0.58377 0.62978 0.28866 0.0
C2033 C 0.557 0.5904 0.2876 0.0
C2034 C 0.6701 0.5736 0.34712 0.0
C2035 C 0.70249 0.57495 0.37896 0.0
N2036 N 0.69643 0.59307 0.39264 0.0
C2037 C 0.66421 0.59226 0.36143 0.0
C2038 C 0.68936 0.56484 0.3559 0.0
C2039 C 0.67771 0.60183 0.38444 0.0
C2040 C 0.61221 0.53836 0.36196 0.0
N2041 N 0.60704 0.55572 0.34934 0.0
C2042 C 0.58768 0.56961 0.38215 0.0
C2043 C 0.59492 0.57119 0.35893 0.0
C2044 C 0.59312 0.55208 0.39569 0.0
C2045 C 0.6054 0.53623 0.38524 0.0
H2046 H 0.62224 0.52656 0.35417 0.0
H2047 H 0.59141 0.58517 0.34884 0.0
C2048 C 0.6733 0.63317 0.28871 0.0
N2049 N 0.67834 0.61798 0.30419 0.0
C2050 C 0.6901 0.65549 0.28831 0.0
C2051 C 0.71724 0.64604 0.31958 0.0
C2052 C 0.69988 0.62383 0.31936 0.0
C2053 C 0.7123 0.66205 0.30388 0.0
H2054 H 0.65634 0.62771 0.27636 0.0
H2055 H 0.70379 0.61118 0.33101 0.0
C2056 C 0.593 0.51232 0.28035 0.0
N2057 N 0.55456 0.47408 0.25672 0.0
C2058 C 0.59676 0.49583 0.26169 0.0
C2059 C 0.56982 0.50906 0.28736 0.0
C2060 C 0.57705 0.47669 0.24986 0.0
C2061 C 0.55058 0.4897 0.27508 0.0
C2062 C 0.66108 0.56256 0.24903 0.0
C2063 C 0.64917 0.54201 0.23198 0.0
C2064 C 0.68139 0.5795 0.24354 0.0
C2065 C 0.65783 0.53869 0.20967 0.0
C2066 C 0.68949 0.57554 0.22102 0.0
N2067 N 0.67764 0.55538 0.20469 0.0
C2068 C 0.61084 0.58012 0.2318 0.0
C2069 C 0.58062 0.54296 0.23076 0.0
C2070 C 0.60297 0.58104 0.20735 0.0
N2071 N 0.60011 0.56099 0.24288 0.0
C2072 C 0.57204 0.54323 0.20623 0.0
C2073 C 0.58366 0.56219 0.19414 0.0
H2074 H 0.62639 0.59417 0.24166 0.0
H2075 H 0.57221 0.52789 0.23967 0.0
C2076 C 0.65559 0.49512 0.29443 0.0
N2077 N 0.6654 0.518 0.28964 0.0
C2078 C 0.66899 0.47804 0.29305 0.0
C2079 C 0.70227 0.50845 0.28189 0.0
C2080 C 0.68824 0.52491 0.28344 0.0
C2081 C 0.69264 0.48481 0.28685 0.0
H2082 H 0.6375 0.49025 0.29962 0.0
H2083 H 0.69566 0.54333 0.28005 0.0
O2084 O 0.61993 0.58777 0.30184 0.0
O2085 O 0.65728 0.56407 0.3245 0.0
O2086 O 0.61206 0.53108 0.29225 0.0
O2087 O 0.65289 0.56627 0.27096 0.0
H2088 H 0.62217 0.63344 0.29687 0.0
H2089 H 0.57371 0.56207 0.29482 0.0
H2090 H 0.58627 0.64877 0.28696 0.0
H2091 H 0.53858 0.57859 0.285 0.0
H2092 H 0.7175 0.56841 0.38598 0.0
H2093 H 0.64942 0.59932 0.35478 0.0
H2094 H 0.69416 0.55044 0.34494 0.0
H2095 H 0.67336 0.61625 0.39575 0.0
H2096 H 0.57832 0.58223 0.38969 0.0
H2097 H 0.61002 0.52258 0.39517 0.0
H2098 H 0.68591 0.66745 0.27588 0.0
H2099 H 0.73436 0.65061 0.33166 0.0
H2100 H 0.6147 0.49768 0.25646 0.0
H2101 H 0.56673 0.52125 0.30222 0.0
H2102 H 0.57966 0.46388 0.23529 0.0
H2103 H 0.53251 0.48703 0.28022 0.0
H2104 H 0.63328 0.52891 0.23583 0.0
H2105 H 0.69081 0.59552 0.25656 0.0
H2106 H 0.64876 0.52288 0.19627 0.0
H2107 H 0.70519 0.58848 0.21652 0.0
H2108 H 0.61241 0.59589 0.19859 0.0
H2109 H 0.55712 0.52835 0.19653 0.0
H2110 H 0.66117 0.4599 0.29705 0.0
H2111 H 0.72053 0.51415 0.27714 0.0
Dy2112 Dy 0.07167 0.069 0.05132 0.0
Dy2113 Dy 0.01846 0.03588 0.02606 0.0
C2114 C 0.0616 0.05098 0.99413 0.0
O2115 O 0.05455 0.09642 0.03603 0.0
O2116 O 1.01434 0.07433 0.02643 0.0
O2117 O 0.10308 0.09914 0.05079 0.0
O2118 O 0.10138 0.07866 0.08107 0.0
O2119 O 0.01818 0.03738 0.06659 0.0
O2120 O 0.04794 0.07288 0.08003 0.0
O2121 O 0.03844 1.00746 0.03199 0.0
O2122 O 0.07171 0.03078 0.05873 0.0
O2123 O 0.98106 0.01862 0.02887 0.0
O2124 O 0.99478 0.01285 0.9946 0.0
C2125 C 0.03162 0.09516 0.02861 0.0
O2126 O 0.07704 0.05344 0.01402 0.0
O2127 O 0.03845 0.04858 0.99542 0.0
C2128 C 0.13815 0.08843 0.06534 0.0
C2129 C 0.17248 0.06298 0.05744 0.0
C2130 C 0.15869 0.068 0.0375 0.0
C2131 C 0.14161 0.08069 0.0414 0.0
C2132 C 0.15373 0.08548 0.08521 0.0
C2133 C 0.17091 0.07272 0.08126 0.0
C2134 C 0.11531 0.09399 0.06956 0.0
C2135 C 0.02957 0.05543 0.08393 0.0
C2136 C 0.05775 1.00925 0.0479 0.0
C2137 C 0.95546 0.0184 0.99412 0.0
C2138 C 0.92274 0.04649 0.9943 0.0
C2139 C 0.94448 0.05443 0.98456 0.0
C2140 C 0.96087 0.04037 0.98448 0.0
C2141 C 0.93211 1.00883 1.00017 0.0
C2142 C 0.91574 0.02293 1.00032 0.0
C2143 C 0.9755 0.01046 0.0056 0.0
H2144 H 0.15989 0.06054 0.01903 0.0
H2145 H 0.1298 0.08259 0.02569 0.0
H2146 H 0.15121 0.09117 0.10377 0.0
H2147 H 0.1816 0.06887 0.09674 0.0
H2148 H 0.95003 0.07263 0.97989 0.0
H2149 H 0.97885 0.0481 0.97983 0.0
H2150 H 0.92775 0.99199 0.00779 0.0
H2151 H 0.89893 0.01666 0.00785 0.0
Dy2152 Dy 0.31512 0.80236 0.26912 0.0
Dy2153 Dy 0.27276 0.79106 0.30505 0.0
C2154 C 0.30136 0.84571 0.29922 0.0
O2155 O 0.33657 0.80691 0.30615 0.0
O2156 O 0.30665 0.78575 0.32613 0.0
O2157 O 0.34977 0.82125 0.25955 0.0
O2158 O 0.32717 0.78832 0.23662 0.0
O2159 O 0.26709 0.7578 0.27811 0.0
O2160 O 0.30735 0.76418 0.27548 0.0
O2161 O 0.25136 0.79698 0.27173 0.0
O2162 O 0.28064 0.80379 0.24595 0.0
O2163 O 0.25085 0.76665 0.32575 0.0
O2164 O 0.2467 0.80289 0.32517 0.0
C2165 C 0.32988 0.79549 0.32449 0.0
O2166 O 0.30998 0.83849 0.27974 0.0
O2167 O 0.29091 0.83082 0.31355 0.0
C2168 C 0.34794 0.81944 0.21741 0.0
C2169 C 0.35012 0.84325 0.17656 0.0
C2170 C 0.33084 0.84234 0.1902 0.0
C2171 C 0.32978 0.83054 0.21056 0.0
C2172 C 0.36722 0.82017 0.20375 0.0
C2173 C 0.36836 0.83216 0.18331 0.0
C2174 C 0.34627 0.80703 0.2387 0.0
C2175 C 0.2855 0.74961 0.27321 0.0
C2176 C 0.25824 0.80225 0.25082 0.0
C2177 C 0.24635 0.78744 0.36239 0.0
C2178 C 0.26643 0.78561 0.40961 0.0
C2179 C 0.24533 0.7677 0.39835 0.0
C2180 C 0.23524 0.76865 0.37478 0.0
C2181 C 0.26575 0.80689 0.37484 0.0
C2182 C 0.27564 0.80608 0.39856 0.0
C2183 C 0.24199 0.78347 0.33574 0.0
H2184 H 0.31673 0.85093 0.18513 0.0
H2185 H 0.31481 0.83009 0.22102 0.0
H2186 H 0.38129 0.81159 0.20894 0.0
H2187 H 0.38336 0.83291 0.17285 0.0
H2188 H 0.23808 0.75185 0.40687 0.0
H2189 H 0.22039 0.7535 0.36539 0.0
H2190 H 0.27476 0.82149 0.36551 0.0
H2191 H 0.29197 0.81997 0.40717 0.0
Dy2192 Dy 0.51377 0.04665 0.54378 0.0
Dy2193 Dy 0.57929 0.05629 0.53236 0.0
C2194 C 0.54277 0.05463 0.49486 0.0
O2195 O 0.52021 1.00902 0.53499 0.0
O2196 O 0.56041 0.01532 0.52457 0.0
O2197 O 0.48349 0.04602 0.51733 0.0
O2198 O 0.47762 0.03988 0.5543 0.0
O2199 O 0.55457 0.05114 0.55961 0.0
O2200 O 0.52757 0.04755 0.58334 0.0
O2201 O 0.57291 0.09384 0.54116 0.0
O2202 O 0.53239 0.08755 0.55051 0.0
O2203 O 0.60975 0.05689 0.55899 0.0
O2204 O 0.61533 0.06373 0.52205 0.0
C2205 C 0.53865 1.00097 0.52753 0.0
O2206 O 0.53865 0.05086 0.51666 0.0
O2207 O 0.56572 0.05773 0.4932 0.0
C2208 C 0.45382 0.06207 0.53446 0.0
C2209 C 0.42579 0.09557 0.53675 0.0
C2210 C 0.44217 0.09618 0.51968 0.0
C2211 C 0.45612 0.07962 0.51855 0.0
C2212 C 0.43739 0.06157 0.55154 0.0
C2213 C 0.42357 0.07827 0.55277 0.0
C2214 C 0.46832 0.04429 0.53338 0.0
C2215 C 0.55055 0.05048 0.58196 0.0
C2216 C 0.55423 0.10181 0.54788 0.0
C2217 C 0.63904 0.04108 0.54114 0.0
C2218 C 0.66612 1.00682 0.53888 0.0
C2219 C 0.66733 0.02191 0.56089 0.0
C2220 C 0.65394 0.039 0.56199 0.0
C2221 C 0.63768 0.02569 0.51916 0.0
C2222 C 0.65125 1.00878 0.51803 0.0
C2223 C 0.62476 0.05897 0.54274 0.0
H2224 H 0.44403 0.10939 0.50714 0.0
H2225 H 0.46859 0.08054 0.50514 0.0
H2226 H 0.4352 0.04821 0.56393 0.0
H2227 H 0.41093 0.07753 0.56599 0.0
H2228 H 0.67881 0.02061 0.57711 0.0
H2229 H 0.65519 0.0506 0.57911 0.0
H2230 H 0.62618 0.02669 0.50283 0.0
H2231 H 0.65019 0.99724 0.50091 0.0
Dy2232 Dy 0.32269 0.29453 0.79025 0.0
Dy2233 Dy 0.27135 0.31256 0.78846 0.0
C2234 C 0.32175 0.34996 0.78227 0.0
O2235 O 0.31328 0.29666 0.82862 0.0
O2236 O 0.29147 0.32472 0.82636 0.0
O2237 O 0.36093 0.30127 0.80406 0.0
O2238 O 0.34209 0.26847 0.7792 0.0
O2239 O 0.26372 0.27664 0.80176 0.0
O2240 O 0.29176 0.26057 0.78463 0.0
O2241 O 0.27403 0.30044 0.74895 0.0
O2242 O 0.31293 0.29556 0.75081 0.0
O2243 O 0.23244 0.30361 0.77736 0.0
O2244 O 0.25126 0.33793 0.79999 0.0
C2245 C 0.30332 0.3126 0.83921 0.0
O2246 O 0.33383 0.33464 0.78892 0.0
O2247 O 0.29784 0.34455 0.77878 0.0
C2248 C 0.38281 0.28676 0.77466 0.0
C2249 C 0.4193 0.29347 0.74375 0.0
C2250 C 0.40263 0.30751 0.74338 0.0
C2251 C 0.38446 0.30413 0.75866 0.0
C2252 C 0.39951 0.2728 0.77507 0.0
C2253 C 0.41762 0.27611 0.75974 0.0
C2254 C 0.36313 0.28236 0.7901 0.0
C2255 C 0.27136 0.25796 0.79403 0.0
C2256 C 0.29245 0.29626 0.73841 0.0
C2257 C 0.21111 0.31909 0.8069 0.0
C2258 C 0.17396 0.31229 0.83712 0.0
C2259 C 0.18642 0.29454 0.83285 0.0
C2260 C 0.2049 0.29792 0.81791 0.0
C2261 C 0.19885 0.33693 0.81145 0.0
C2262 C 0.18045 0.33358 0.82644 0.0
C2263 C 0.23019 0.3229 0.79065 0.0
H2264 H 0.40361 0.32096 0.73117 0.0
H2265 H 0.37159 0.31493 0.75788 0.0
H2266 H 0.39842 0.25919 0.78712 0.0
H2267 H 0.43028 0.2651 0.76027 0.0
H2268 H 0.1817 0.278 0.84093 0.0
H2269 H 0.2142 0.28395 0.81484 0.0
H2270 H 0.2034 0.35341 0.80326 0.0
H2271 H 0.17108 0.34749 0.82951 0.0
Dy2272 Dy 0.05528 0.0276 0.53793 0.0
Dy2273 Dy 0.03799 0.07915 0.54113 0.0
C2274 C 1.00077 0.02843 0.54536 0.0
O2275 O 0.05317 0.03586 0.4993 0.0
O2276 O 0.02817 0.06136 0.50197 0.0
O2277 O 0.04896 0.98927 0.52456 0.0
O2278 O 0.08062 1.00833 0.55074 0.0
O2279 O 0.0739 0.08763 0.52779 0.0
O2280 O 0.08961 0.05802 0.54174 0.0
O2281 O 0.0556 0.0783 0.57907 0.0
O2282 O 0.05039 0.03711 0.57681 0.0
O2283 O 0.04604 0.11776 0.55325 0.0
O2284 O 1.01164 0.09854 0.5311 0.0
C2285 C 0.03889 0.04766 0.48908 0.0
O2286 O 1.01469 0.01711 0.53433 0.0
O2287 O 1.00785 0.05189 0.5534 0.0
C2288 C 0.06206 0.96747 0.55441 0.0
C2289 C 0.0538 0.93014 0.5839 0.0
C2290 C 0.04643 0.95126 0.5899 0.0
C2291 C 0.05053 0.96979 0.57528 0.0
C2292 C 0.06924 0.9463 0.54831 0.0
C2293 C 0.06514 0.92778 0.56292 0.0
C2294 C 0.06727 0.98725 0.53934 0.0
C2295 C 0.0923 0.07895 0.53361 0.0
C2296 C 0.05552 0.05891 0.58956 0.0
C2297 C 0.03012 0.13861 0.52433 0.0
C2298 C 0.0375 0.17537 0.49415 0.0
C2299 C 0.05093 0.15817 0.49292 0.0
C2300 C 0.04723 0.13988 0.50784 0.0
C2301 C 1.01658 0.15566 0.52541 0.0
C2302 C 0.02021 0.17388 0.51043 0.0
C2303 C 0.02643 0.11972 0.54052 0.0
H2304 H 0.03764 0.95343 0.60598 0.0
H2305 H 0.04487 0.986 0.58034 0.0
H2306 H 0.07819 0.94417 0.53233 0.0
H2307 H 0.07095 0.91164 0.55796 0.0
H2308 H 0.06434 0.15898 0.48049 0.0
H2309 H 0.05781 0.12683 0.50662 0.0
H2310 H 1.00327 0.15496 0.53793 0.0
H2311 H 1.00966 0.18696 0.51164 0.0
Dy2312 Dy 0.29838 0.82863 0.78782 0.0
Dy2313 Dy 0.29063 0.77118 0.79619 0.0
C2314 C 0.28662 0.8104 0.83783 0.0
O2315 O 0.33643 0.8237 0.78958 0.0
O2316 O 0.3304 0.79039 0.80983 0.0
O2317 O 0.30898 0.86681 0.80278 0.0
O2318 O 0.29586 0.85557 0.76432 0.0
O2319 O 0.30633 0.77531 0.76192 0.0
O2320 O 0.2921 0.80675 0.75106 0.0
O2321 O 0.25333 0.77265 0.77942 0.0
O2322 O 0.25778 0.81389 0.78753 0.0
O2323 O 0.27871 0.7328 0.7823 0.0
O2324 O 0.29544 0.74525 0.82003 0.0
C2325 C 0.3451 0.80867 0.80178 0.0
O2326 O 0.30121 0.8266 0.82759 0.0
O2327 O 0.27629 0.7883 0.82676 0.0
C2328 C 0.28498 0.88901 0.78362 0.0
C2329 C 0.25314 0.91885 0.78525 0.0
C2330 C 0.25102 0.90026 0.7998 0.0
C2331 C 0.26673 0.88533 0.79889 0.0
C2332 C 0.28696 0.90746 0.76895 0.0
C2333 C 0.27111 0.92224 0.7697 0.0
C2334 C 0.30167 0.87345 0.78237 0.0
C2335 C 0.30065 0.78821 0.74567 0.0
C2336 C 0.24391 0.79135 0.78084 0.0
C2337 C 0.30527 0.71167 0.79949 0.0
C2338 C 0.33857 0.68357 0.79563 0.0
C2339 C 0.33191 0.69468 0.77587 0.0
C2340 C 0.31549 0.70875 0.77781 0.0
C2341 C 0.312 0.70053 0.81921 0.0
C2342 C 0.32858 0.68667 0.81734 0.0
C2343 C 0.2884 0.72698 0.80224 0.0
H2344 H 0.23724 0.89736 0.81188 0.0
H2345 H 0.26468 0.87098 0.81014 0.0
H2346 H 0.30078 0.91044 0.75692 0.0
H2347 H 0.27299 0.93647 0.75832 0.0
H2348 H 0.33945 0.69245 0.75899 0.0
H2349 H 0.3109 0.71737 0.76239 0.0
H2350 H 0.30451 0.70268 0.83614 0.0
H2351 H 0.33354 0.6782 0.83275 0.0
Dy2352 Dy 0.5507 0.07217 0.01607 0.0
Dy2353 Dy 0.54551 0.03464 0.05689 0.0
C2354 C 0.55498 0.01569 1.0032 0.0
O2355 O 0.51181 0.06254 0.02211 0.0
O2356 O 0.50925 0.02573 0.03461 0.0
O2357 O 0.5681 0.10482 1.00211 0.0
O2358 O 0.53636 0.07843 0.98084 0.0
O2359 O 0.5415 0.07003 0.07657 0.0
O2360 O 0.54527 0.09628 0.04794 0.0
O2361 O 0.58454 0.04437 0.05199 0.0
O2362 O 0.58757 0.08058 0.03737 0.0
O2363 O 0.5599 0.02598 0.09103 0.0
O2364 O 0.52605 1.00272 0.07063 0.0
C2365 C 0.49899 0.0414 0.02621 0.0
O2366 O 0.55765 0.0378 0.99748 0.0
O2367 O 0.5491 0.01024 0.0244 0.0
C2368 C 0.56741 0.09832 0.95976 0.0
C2369 C 0.59586 0.09967 0.92182 0.0
C2370 C 0.58265 0.07727 0.92731 0.0
C2371 C 0.5686 0.07657 0.94628 0.0
C2372 C 0.58031 0.12072 0.95393 0.0
C2373 C 0.59458 0.12141 0.93507 0.0
C2374 C 0.55432 0.09784 0.98099 0.0
C2375 C 0.54216 0.09156 0.07007 0.0
C2376 C 0.59737 0.06522 0.04727 0.0
C2377 C 0.52889 1.00859 0.11291 0.0
C2378 C 0.50387 1.00953 0.1532 0.0
C2379 C 0.50951 0.02989 0.14114 0.0
C2380 C 0.52189 0.02939 0.12102 0.0
C2381 C 0.52326 0.98819 0.12493 0.0
C2382 C 0.51071 0.98863 0.14506 0.0
C2383 C 0.5408 1.0078 0.0911 0.0
H2384 H 0.58364 0.06038 0.91722 0.0
H2385 H 0.55906 0.05906 0.95067 0.0
H2386 H 0.57975 0.13764 0.96431 0.0
H2387 H 0.60482 0.13879 0.93097 0.0
H2388 H 0.50416 0.04606 0.14723 0.0
H2389 H 0.52581 0.04514 0.11169 0.0
H2390 H 0.52834 0.97193 0.11859 0.0
H2391 H 0.50627 0.97278 0.15424 0.0
Dy2392 Dy 0.28181 0.27784 0.27495 0.0
Dy2393 Dy 0.31407 0.33057 0.30173 0.0
C2394 C 0.30102 0.28662 0.3327 0.0
O2395 O 0.25338 0.29357 0.2903 0.0
O2396 O 0.27504 0.33386 0.29981 0.0
O2397 O 0.25472 0.24393 0.27522 0.0
O2398 O 0.27282 0.24989 0.24342 0.0
O2399 O 0.31057 0.33285 0.26142 0.0
O2400 O 0.27583 0.30205 0.2478 0.0
O2401 O 0.34163 0.30889 0.29869 0.0
O2402 O 0.32033 0.28158 0.26582 0.0
O2403 O 0.34545 0.36124 0.30248 0.0
O2404 O 0.32254 0.3608 0.33091 0.0
C2405 C 0.25432 0.31639 0.29774 0.0
O2406 O 0.2959 0.27132 0.31218 0.0
O2407 O 0.30611 0.31013 0.33285 0.0
C2408 C 0.26973 0.2133 0.25817 0.0
C2409 C 0.28845 0.17552 0.27029 0.0
C2410 C 0.30302 0.19951 0.27592 0.0
C2411 C 0.29371 0.21828 0.26994 0.0
C2412 C 0.2552 0.18923 0.25194 0.0
C2413 C 0.26463 0.17023 0.25796 0.0
C2414 C 0.26002 0.23388 0.2551 0.0
C2415 C 0.29267 0.32106 0.24407 0.0
C2416 C 0.3412 0.29284 0.27969 0.0
C2417 C 0.3348 0.397 0.31529 0.0
C2418 C 0.30891 0.43028 0.30528 0.0
C2419 C 0.31557 0.4167 0.28605 0.0
C2420 C 0.32848 0.40009 0.291 0.0
C2421 C 0.33057 0.41272 0.33451 0.0
C2422 C 0.31754 0.42931 0.32951 0.0
C2423 C 0.33932 0.37407 0.32034 0.0
H2424 H 0.32141 0.20374 0.2855 0.0
H2425 H 0.30503 0.2368 0.27523 0.0
H2426 H 0.23658 0.18524 0.24311 0.0
H2427 H 0.2533 0.15163 0.25363 0.0
H2428 H 0.30903 0.41749 0.26727 0.0
H2429 H 0.33141 0.38817 0.27578 0.0
H2430 H 0.33518 0.41049 0.35332 0.0
H2431 H 0.31244 0.43986 0.34446 0.0
Dy2432 Dy 0.55684 0.52684 0.03682 0.0
Dy2433 Dy 0.54061 0.57864 0.04094 0.0
C2434 C 0.50321 0.52856 0.04632 0.0
O2435 O 0.55487 0.53616 0.99854 0.0
O2436 O 0.52849 0.55993 1.0023 0.0
O2437 O 0.54938 0.48848 0.02311 0.0
O2438 O 0.58207 0.50686 0.0483 0.0
O2439 O 0.57649 0.5867 0.02707 0.0
O2440 O 0.59159 0.55664 0.04074 0.0
O2441 O 0.55809 0.57764 0.07884 0.0
O2442 O 0.55387 0.53653 0.07624 0.0
O2443 O 0.54908 0.61735 0.05259 0.0
O2444 O 0.51406 0.59803 0.03154 0.0
C2445 C 0.53975 0.54737 0.98877 0.0
O2446 O 0.51626 0.5171 0.0341 0.0
O2447 O 0.51116 0.55191 0.05479 0.0
C2448 C 0.56312 0.46607 0.05263 0.0
C2449 C 0.55542 0.42866 0.08215 0.0
C2450 C 0.53553 0.43368 0.06896 0.0
C2451 C 0.53932 0.45227 0.05438 0.0
C2452 C 0.58294 0.46093 0.0659 0.0
C2453 C 0.57913 0.44248 0.08058 0.0
C2454 C 0.56779 0.48596 0.03745 0.0
C2455 C 0.59466 0.57763 0.03275 0.0
C2456 C 0.5586 0.55823 0.08909 0.0
C2457 C 0.53212 0.63791 0.02384 0.0
C2458 C 0.53754 0.67418 0.9931 0.0
C2459 C 0.5555 0.6619 0.99663 0.0
C2460 C 0.55278 0.64384 0.01178 0.0
C2461 C 0.51405 0.64999 0.02005 0.0
C2462 C 0.5167 0.66794 1.00478 0.0
C2463 C 0.52917 0.61923 0.04031 0.0
H2464 H 0.51709 0.42321 0.06997 0.0
H2465 H 0.52362 0.45581 0.04453 0.0
H2466 H 0.60145 0.47126 0.06494 0.0
H2467 H 0.5947 0.43887 0.0906 0.0
H2468 H 0.57168 0.6664 0.98775 0.0
H2469 H 0.56689 0.63463 0.0142 0.0
H2470 H 0.49792 0.64562 0.02903 0.0
H2471 H 0.50262 0.67716 1.00226 0.0
Dy2472 Dy 0.80008 0.331 0.28685 0.0
Dy2473 Dy 0.7938 0.27493 0.29942 0.0
C2474 C 0.78611 0.31557 0.33805 0.0
O2475 O 0.83858 0.32709 0.29102 0.0
O2476 O 0.83299 0.29578 0.31393 0.0
O2477 O 0.81241 0.36995 0.29829 0.0
O2478 O 0.79499 0.35541 0.26139 0.0
O2479 O 0.81221 0.2789 0.26671 0.0
O2480 O 0.79499 0.3066 0.25163 0.0
O2481 O 0.75612 0.27463 0.28156 0.0
O2482 O 0.75951 0.31573 0.28571 0.0
O2483 O 0.78204 0.23629 0.28688 0.0
O2484 O 0.79972 0.25002 0.32408 0.0
C2485 C 0.84756 0.31344 0.3049 0.0
O2486 O 0.79889 0.33221 0.32679 0.0
O2487 O 0.77854 0.29257 0.32882 0.0
C2488 C 0.78646 0.39042 0.27987 0.0
C2489 C 0.75473 0.42016 0.28276 0.0
C2490 C 0.74732 0.3962 0.28773 0.0
C2491 C 0.76311 0.38142 0.28631 0.0
C2492 C 0.79391 0.4144 0.27505 0.0
C2493 C 0.77813 0.42922 0.2765 0.0
C2494 C 0.80288 0.37473 0.27781 0.0
C2495 C 0.80546 0.28913 0.24853 0.0
C2496 C 0.74617 0.2929 0.28092 0.0
C2497 C 0.80889 0.21538 0.30403 0.0
C2498 C 0.84033 0.18528 0.29908 0.0
C2499 C 0.82562 0.1882 0.27854 0.0
C2500 C 0.81004 0.20312 0.28096 0.0
C2501 C 0.82368 0.21235 0.32456 0.0
C2502 C 0.83934 0.19752 0.32208 0.0
C2503 C 0.79236 0.23118 0.30687 0.0
H2504 H 0.72933 0.38898 0.29262 0.0
H2505 H 0.75706 0.36295 0.2901 0.0
H2506 H 0.81186 0.42162 0.27006 0.0
H2507 H 0.78408 0.44769 0.27265 0.0
H2508 H 0.82609 0.17879 0.26066 0.0
H2509 H 0.79886 0.20495 0.26476 0.0
H2510 H 0.82312 0.2214 0.34257 0.0
H2511 H 0.85053 0.19538 0.33814 0.0
Dy2512 Dy 0.05014 0.57265 0.51636 0.0
Dy2513 Dy 0.04894 0.53723 0.55813 0.0
C2514 C 0.05553 0.5182 0.50381 0.0
O2515 O 1.0118 0.56285 0.52315 0.0
O2516 O 1.01158 0.52687 0.53703 0.0
O2517 O 0.03675 0.58026 0.48129 0.0
O2518 O 0.06591 0.60729 0.50532 0.0
O2519 O 0.03494 0.56759 0.57473 0.0
O2520 O 0.05329 0.59636 0.55235 0.0
O2521 O 0.08581 0.56346 0.56376 0.0
O2522 O 0.08743 0.56865 0.52397 0.0
O2523 O 0.06432 0.53 0.59248 0.0
O2524 O 0.03412 0.50275 0.57021 0.0
C2525 C 1.0002 0.54165 0.52811 0.0
O2526 O 0.04648 0.53523 0.49599 0.0
O2527 O 0.0623 0.51857 0.52714 0.0
C2528 C 0.0688 0.6026 0.46372 0.0
C2529 C 0.0955 0.60225 0.4246 0.0
C2530 C 0.10132 0.59157 0.44491 0.0
C2531 C 0.08806 0.59179 0.46439 0.0
C2532 C 0.06326 0.61375 0.44366 0.0
C2533 C 0.07668 0.61367 0.42413 0.0
C2534 C 0.05379 0.60074 0.48335 0.0
C2535 C 0.04225 0.59045 0.57124 0.0
C2536 C 0.09824 0.56949 0.546 0.0
C2537 C 0.03441 0.50724 0.61236 0.0
C2538 C 1.00684 0.50285 0.65084 0.0
C2539 C 1.01367 0.52504 0.64194 0.0
C2540 C 0.02725 0.52719 0.62272 0.0
C2541 C 0.02766 0.48499 0.62126 0.0
C2542 C 1.01378 0.48275 0.64047 0.0
C2543 C 0.04768 0.50945 0.59142 0.0
H2544 H 0.11578 0.58265 0.44542 0.0
H2545 H 0.09253 0.58311 0.47979 0.0
H2546 H 0.04835 0.62205 0.44292 0.0
H2547 H 0.07205 0.62192 0.40843 0.0
H2548 H 1.00822 0.54061 0.64973 0.0
H2549 H 0.03194 0.54437 0.61579 0.0
H2550 H 0.03284 0.46938 0.61317 0.0
H2551 H 1.00837 0.46548 0.64717 0.0
Dy2552 Dy 0.82334 0.79513 0.28938 0.0
Dy2553 Dy 0.77025 0.81022 0.28805 0.0
C2554 C 0.82047 0.84879 0.28331 0.0
O2555 O 0.82221 0.8106 0.32822 0.0
O2556 O 0.78123 0.80799 0.3272 0.0
O2557 O 0.8624 0.80509 0.29979 0.0
O2558 O 0.84386 0.76991 0.27868 0.0
O2559 O 0.76127 0.76989 0.28656 0.0
O2560 O 0.79789 0.76431 0.30242 0.0
O2561 O 0.7785 0.80827 0.24926 0.0
O2562 O 0.80363 0.78299 0.2512 0.0
O2563 O 0.73147 0.80183 0.27537 0.0
O2564 O 0.74977 0.83484 0.30015 0.0
C2565 C 0.80313 0.81155 0.33921 0.0
O2566 O 0.82973 0.83104 0.2763 0.0
O2567 O 0.79976 0.84516 0.29226 0.0
C2568 C 0.88367 0.78887 0.27102 0.0
C2569 C 0.92049 0.79588 0.24049 0.0
C2570 C 0.90147 0.80692 0.23732 0.0
C2571 C 0.88316 0.80341 0.25246 0.0
C2572 C 0.90257 0.77772 0.27403 0.0
C2573 C 0.92083 0.78117 0.25888 0.0
C2574 C 0.86486 0.78539 0.28749 0.0
C2575 C 0.77414 0.75666 0.29623 0.0
C2576 C 0.78983 0.79362 0.23862 0.0
C2577 C 0.70898 0.81566 0.30471 0.0
C2578 C 0.67103 0.8086 0.33402 0.0
C2579 C 0.69439 0.80751 0.34333 0.0
C2580 C 0.7132 0.81095 0.32878 0.0
C2581 C 0.68557 0.81645 0.29535 0.0
C2582 C 0.66675 0.81294 0.30985 0.0
C2583 C 0.72887 0.82045 0.28944 0.0
H2584 H 0.90087 0.81828 0.22321 0.0
H2585 H 0.86868 0.81213 0.24979 0.0
H2586 H 0.90328 0.76642 0.2882 0.0
H2587 H 0.93532 0.77249 0.26158 0.0
H2588 H 0.69807 0.80419 0.36192 0.0
H2589 H 0.7311 0.81019 0.3364 0.0
H2590 H 0.6819 0.82005 0.27686 0.0
H2591 H 0.64888 0.81383 0.30231 0.0
Dy2592 Dy 0.80842 0.29728 0.76786 0.0
Dy2593 Dy 0.77439 0.30062 0.80591 0.0
C2594 C 0.80547 0.34986 0.79199 0.0
O2595 O 0.83325 0.29676 0.80141 0.0
O2596 O 0.80835 0.30022 0.83068 0.0
O2597 O 0.8423 0.30178 0.75316 0.0
O2598 O 0.81088 0.27178 0.73727 0.0
O2599 O 0.78353 0.26919 0.78526 0.0
O2600 O 0.78361 0.26917 0.78519 0.0
O2601 O 0.75301 0.30863 0.77321 0.0
O2602 O 0.77541 0.2997 0.74343 0.0
O2603 O 0.74153 0.27627 0.81376 0.0
O2604 O 0.75832 0.31093 0.83717 0.0
C2605 C 0.82933 0.29801 0.82428 0.0
O2606 O 0.8141 0.33757 0.77524 0.0
O2607 O 0.79061 0.33964 0.80642 0.0
C2608 C 0.83377 0.29373 0.71105 0.0
C2609 C 0.83789 0.31469 0.66842 0.0
C2610 C 0.82481 0.32263 0.68594 0.0
C2611 C 0.82294 0.31234 0.70714 0.0
C2612 C 0.84637 0.28516 0.69331 0.0
C2613 C 0.84853 0.29575 0.67193 0.0
C2614 C 0.83244 0.28487 0.73446 0.0
C2615 C 0.76714 0.25057 0.77215 0.0
C2616 C 0.75592 0.30532 0.75001 0.0
C2617 C 0.74281 0.27758 0.85588 0.0
C2618 C 0.74793 0.25754 0.89859 0.0
C2619 C 0.76393 0.25633 0.88152 0.0
C2620 C 0.7614 0.26637 0.86031 0.0
C2621 C 0.72666 0.27878 0.87287 0.0
C2622 C 0.72918 0.26867 0.89429 0.0
C2623 C 0.74216 0.28978 0.83453 0.0
H2624 H 0.81669 0.33736 0.68352 0.0
H2625 H 0.81373 0.31946 0.721 0.0
H2626 H 0.85491 0.27084 0.69625 0.0
H2627 H 0.85881 0.28964 0.65848 0.0
H2628 H 0.77848 0.24779 0.88475 0.0
H2629 H 0.77419 0.26583 0.8475 0.0
H2630 H 0.71248 0.28779 0.86975 0.0
H2631 H 0.71677 0.26964 0.90751 0.0
Dy2632 Dy 0.78025 0.77582 0.77544 0.0
Dy2633 Dy 0.81208 0.82893 0.80131 0.0
C2634 C 0.80157 0.78601 0.83281 0.0
O2635 O 0.75227 0.79696 0.77841 0.0
O2636 O 0.7736 0.82592 0.81017 0.0
O2637 O 0.7487 0.74519 0.77409 0.0
O2638 O 0.77287 0.74511 0.74688 0.0
O2639 O 0.79609 0.83483 0.76453 0.0
O2640 O 0.78903 0.79627 0.74434 0.0
O2641 O 0.83968 0.81337 0.78393 0.0
O2642 O 0.8193 0.7728 0.77863 0.0
O2643 O 0.83697 0.86385 0.7997 0.0
O2644 O 0.82454 0.85555 0.83386 0.0
C2645 C 0.75264 0.81366 0.79684 0.0
O2646 O 0.78343 0.77408 0.8158 0.0
O2647 O 0.81841 0.80469 0.82844 0.0
C2648 C 0.75998 0.7094 0.76324 0.0
C2649 C 0.78492 0.67587 0.7752 0.0
C2650 C 0.77865 0.69059 0.79378 0.0
C2651 C 0.76623 0.70732 0.78785 0.0
C2652 C 0.76391 0.69273 0.74472 0.0
C2653 C 0.77644 0.67599 0.7507 0.0
C2654 C 0.75561 0.73206 0.75707 0.0
C2655 C 0.79243 0.81962 0.74409 0.0
C2656 C 0.83943 0.79041 0.77852 0.0
C2657 C 0.82579 0.89417 0.82332 0.0
C2658 C 0.80231 0.92925 0.81258 0.0
C2659 C 0.79068 0.91004 0.82417 0.0
C2660 C 0.80232 0.89254 0.82949 0.0
C2661 C 0.83821 0.91463 0.81372 0.0
C2662 C 0.82646 0.93214 0.8083 0.0
C2663 C 0.83484 0.87257 0.82177 0.0
H2664 H 0.7851 0.6905 0.81275 0.0
H2665 H 0.76356 0.72003 0.80253 0.0
H2666 H 0.75939 0.6942 0.72568 0.0
H2667 H 0.78127 0.6646 0.73626 0.0
H2668 H 0.77199 0.90769 0.82749 0.0
H2669 H 0.79219 0.87687 0.8367 0.0
H2670 H 0.8562 0.91606 0.80866 0.0
H2671 H 0.83553 0.94696 0.79928 0.0
Dy2672 Dy 0.57379 0.5689 0.55034 0.0
Dy2673 Dy 0.52055 0.53609 0.52506 0.0
C2674 C 0.56433 0.54875 0.49315 0.0
O2675 O 0.55665 0.59588 0.53428 0.0
O2676 O 0.51629 0.57461 0.52875 0.0
O2677 O 0.60481 0.59953 0.54997 0.0
O2678 O 0.60431 0.57785 0.57919 0.0
O2679 O 0.5181 0.54009 0.56534 0.0
O2680 O 0.5509 0.57305 0.57979 0.0
O2681 O 0.54214 0.50852 0.52822 0.0
O2682 O 0.57229 0.53067 0.55863 0.0
O2683 O 0.49086 0.50365 0.52341 0.0
O2684 O 0.4893 0.5283 0.49725 0.0
C2685 C 0.53352 0.59509 0.52905 0.0
O2686 O 0.57976 0.55304 0.51339 0.0
O2687 O 0.54088 0.54488 0.49368 0.0
C2688 C 0.64039 0.58873 0.56242 0.0
C2689 C 0.67451 0.5635 0.55269 0.0
C2690 C 0.65969 0.56818 0.53333 0.0
C2691 C 0.64271 0.58078 0.53815 0.0
C2692 C 0.65704 0.58624 0.58159 0.0
C2693 C 0.67411 0.57361 0.57672 0.0
C2694 C 0.61767 0.59384 0.56789 0.0
C2695 C 0.53101 0.55704 0.58309 0.0
C2696 C 0.55972 0.50952 0.54585 0.0
C2697 C 0.45417 0.5138 0.51445 0.0
C2698 C 0.42042 0.53797 0.52835 0.0
C2699 C 0.43596 0.5321 0.54626 0.0
C2700 C 0.4528 0.52005 0.53935 0.0
C2701 C 0.43661 0.51713 0.4967 0.0
C2702 C 0.41974 0.52927 0.50365 0.0
C2703 C 0.47699 0.51045 0.50719 0.0
H2704 H 0.65993 0.56039 0.51471 0.0
H2705 H 0.63005 0.58234 0.52299 0.0
H2706 H 0.6554 0.5921 0.60039 0.0
H2707 H 0.68554 0.56998 0.59177 0.0
H2708 H 0.43661 0.53884 0.56538 0.0
H2709 H 0.46622 0.51786 0.55346 0.0
H2710 H 0.43753 0.51262 0.47745 0.0
H2711 H 0.40777 0.53384 0.48971 0.0
Dy2712 Dy 1.01411 0.54754 0.05171 0.0
Dy2713 Dy 0.07476 0.55507 0.0349 0.0
C2714 C 0.03093 0.55539 0.99738 0.0
O2715 O 0.01883 0.50952 0.03991 0.0
O2716 O 0.05729 0.51452 0.0267 0.0
O2717 O 0.9762 0.53433 0.0358 0.0
O2718 O 0.98627 0.55392 0.07267 0.0
O2719 O 0.05344 0.54867 0.0633 0.0
O2720 O 0.03045 0.54499 0.08985 0.0
O2721 O 0.07106 0.59342 0.04136 0.0
O2722 O 0.03418 0.58825 0.05778 0.0
O2723 O 0.10831 0.55841 0.05814 0.0
O2724 O 0.10777 0.55846 0.01879 0.0
C2725 C 0.0359 0.50071 0.03059 0.0
O2726 O 0.01973 0.56111 0.01586 0.0
O2727 O 0.05224 0.55073 0.99951 0.0
C2728 C 0.95354 0.56107 0.04885 0.0
C2729 C 0.92594 0.59415 0.04195 0.0
C2730 C 0.94758 0.59636 0.03164 0.0
C2731 C 0.96137 0.57997 0.03516 0.0
C2732 C 0.93175 0.55866 0.05881 0.0
C2733 C 0.91802 0.57509 0.05538 0.0
C2734 C 0.96885 0.54501 0.05437 0.0
C2735 C 0.05254 0.54747 0.086 0.0
C2736 C 0.05448 0.60212 0.05149 0.0
C2737 C 0.13494 0.53988 0.03886 0.0
C2738 C 0.1634 0.50683 0.03791 0.0
C2739 C 0.17233 0.52988 0.05215 0.0
C2740 C 0.15818 0.5463 0.05261 0.0
C2741 C 0.12582 0.51666 0.02489 0.0
C2742 C 0.14003 0.50028 0.02433 0.0
C2743 C 0.1204 0.55747 0.03952 0.0
H2744 H 0.95392 0.61096 0.02121 0.0
H2745 H 0.97832 0.58225 0.02756 0.0
H2746 H 0.92558 0.54433 0.06959 0.0
H2747 H 0.90135 0.57314 0.06342 0.0
H2748 H 0.1903 0.53518 0.06278 0.0
H2749 H 0.16541 0.56404 0.06364 0.0
H2750 H 0.10779 0.51126 0.01437 0.0
H2751 H 0.13287 0.48253 0.01329 0.0
C2752 C 1.00974 0.14159 0.99235 0.0
C2753 C 0.0186 0.16367 0.00911 0.0
C2754 C 0.03221 0.13993 0.03973 0.0
C2755 C 0.02558 0.11834 0.0222 0.0
N2756 N 1.01123 0.10003 0.98032 0.0
N2757 N 0.04078 0.18406 0.0482 0.0
C2758 C 1.01498 0.11954 0.99816 0.0
C2759 C 0.03053 0.16281 0.03264 0.0
N2760 N 0.99606 0.14161 0.97075 0.0
N2761 N 0.03922 0.13839 0.06358 0.0
H2762 H 0.03918 0.20086 0.04412 0.0
H2763 H 0.05227 0.18534 0.06434 0.0
H2764 H 0.04012 0.12209 0.06954 0.0
H2765 H 0.04189 0.15263 0.07783 0.0
H2766 H 0.98659 0.12583 0.95892 0.0
H2767 H 0.99259 0.15733 0.96551 0.0
H2768 H 1.00619 0.10044 0.9619 0.0
H2769 H 1.01523 0.08394 0.98355 0.0
C2770 C 0.21675 0.83599 0.22008 0.0
C2771 C 0.20694 0.82072 0.19748 0.0
C2772 C 0.23517 0.79617 0.20784 0.0
C2773 C 0.24026 0.80817 0.23241 0.0
N2774 N 0.23256 0.8387 0.26225 0.0
N2775 N 0.22131 0.79834 0.16575 0.0
C2776 C 0.22978 0.82755 0.23871 0.0
C2777 C 0.22016 0.80396 0.19001 0.0
N2778 N 0.21864 0.86023 0.22198 0.0
N2779 N 0.24357 0.7765 0.20167 0.0
H2780 H 0.21392 0.807 0.15266 0.0
H2781 H 0.23242 0.78813 0.15911 0.0
H2782 H 0.25401 0.76983 0.2142 0.0
H2783 H 0.2382 0.76544 0.18476 0.0
H2784 H 0.22749 0.87258 0.23751 0.0
H2785 H 0.21557 0.86831 0.20655 0.0
H2786 H 0.22321 0.85137 0.26733 0.0
H2787 H 0.24307 0.83474 0.27677 0.0
C2788 C 0.52879 0.93315 0.53585 0.0
C2789 C 0.52897 0.92196 0.51174 0.0
C2790 C 0.53645 0.9625 0.49813 0.0
C2791 C 0.53477 0.97358 0.52197 0.0
N2792 N 0.52662 0.96854 0.56303 0.0
N2793 N 0.52989 0.92546 0.46921 0.0
C2794 C 0.53006 0.95858 0.54063 0.0
C2795 C 0.53198 0.93656 0.49272 0.0
N2796 N 0.52808 0.91952 0.55443 0.0
N2797 N 0.5425 0.97678 0.4805 0.0
H2798 H 0.52757 0.90684 0.46462 0.0
H2799 H 0.52875 0.93426 0.45401 0.0
H2800 H 0.54421 0.99537 0.48284 0.0
H2801 H 0.54722 0.97055 0.4639 0.0
H2802 H 0.53088 0.92679 0.57283 0.0
H2803 H 0.52644 0.9009 0.55156 0.0
H2804 H 0.52018 0.95834 0.57641 0.0
H2805 H 0.52871 0.98704 0.56793 0.0
C2806 C 0.45077 0.29275 0.6864 0.0
C2807 C 0.47562 0.30243 0.69678 0.0
C2808 C 0.46329 0.30862 0.73748 0.0
C2809 C 0.43864 0.29692 0.72742 0.0
N2810 N 0.40913 0.27472 0.69291 0.0
N2811 N 0.50602 0.31645 0.73245 0.0
C2812 C 0.43242 0.28818 0.702 0.0
C2813 C 0.48201 0.30951 0.72242 0.0
N2814 N 0.44469 0.28848 0.66157 0.0
N2815 N 0.46872 0.31961 0.76127 0.0
H2816 H 0.52025 0.3177 0.72201 0.0
H2817 H 0.51182 0.31914 0.75116 0.0
H2818 H 0.45552 0.3194 0.77285 0.0
H2819 H 0.4859 0.33069 0.76899 0.0
H2820 H 0.42683 0.28403 0.6528 0.0
H2821 H 0.45765 0.29125 0.6496 0.0
H2822 H 0.40399 0.26558 0.67511 0.0
H2823 H 0.3952 0.27102 0.70372 0.0
C2824 C 0.03013 0.86833 0.60477 0.0
C2825 C 0.04362 0.87232 0.62848 0.0
C2826 C 0.06463 0.9139 0.62256 0.0
C2827 C 0.04984 0.91048 0.59962 0.0
N2828 N 1.01533 0.88614 0.57095 0.0
N2829 N 0.07022 0.90033 0.66187 0.0
C2830 C 0.03163 0.88817 0.59134 0.0
C2831 C 0.05987 0.89556 0.63794 0.0
N2832 N 1.01664 0.84536 0.59462 0.0
N2833 N 0.0838 0.93431 0.62929 0.0
H2834 H 0.06699 0.88747 0.67375 0.0
H2835 H 0.08017 0.91761 0.67055 0.0
H2836 H 0.08786 0.94817 0.6186 0.0
H2837 H 0.09689 0.9366 0.64445 0.0
H2838 H 1.00861 0.84081 0.57644 0.0
H2839 H 1.01517 0.83033 0.60374 0.0
H2840 H 1.00003 0.87133 0.56547 0.0
H2841 H 1.01586 0.90026 0.56066 0.0
C2842 C 0.41304 0.8332 0.83012 0.0
C2843 C 0.424 0.81747 0.81646 0.0
C2844 C 0.38307 0.79513 0.79424 0.0
C2845 C 0.37241 0.81205 0.80649 0.0
N2846 N 0.37797 0.84898 0.83427 0.0
N2847 N 0.41975 0.78603 0.7825 0.0
C2848 C 0.38769 0.8317 0.82377 0.0
C2849 C 0.40903 0.79911 0.79773 0.0
N2850 N 0.42657 0.84881 0.85007 0.0
N2851 N 0.36835 0.77497 0.77935 0.0
H2852 H 0.43855 0.78854 0.78425 0.0
H2853 H 0.41036 0.7743 0.76683 0.0
H2854 H 0.34958 0.77192 0.77529 0.0
H2855 H 0.37447 0.7604 0.7724 0.0
H2856 H 0.41924 0.85885 0.86246 0.0
H2857 H 0.44489 0.85021 0.85555 0.0
H2858 H 0.38844 0.86524 0.84472 0.0
H2859 H 0.35943 0.84784 0.8312 0.0
C2860 C 0.51744 0.12698 0.11995 0.0
C2861 C 0.53292 0.15095 0.12129 0.0
C2862 C 0.5564 0.13514 0.09187 0.0
C2863 C 0.53928 0.11173 0.0884 0.0
N2864 N 0.50032 0.08724 0.0956 0.0
N2865 N 0.5642 0.17851 0.10451 0.0
C2866 C 0.51896 0.10812 0.10157 0.0
C2867 C 0.55159 0.15519 0.10612 0.0
N2868 N 0.50167 0.12198 0.13662 0.0
N2869 N 0.57782 0.13817 0.08235 0.0
H2870 H 0.56091 0.19372 0.11412 0.0
H2871 H 0.57616 0.18282 0.09182 0.0
H2872 H 0.5824 0.12404 0.07225 0.0
H2873 H 0.59209 0.15411 0.08655 0.0
H2874 H 0.49183 0.10438 0.13817 0.0
H2875 H 0.50014 0.13516 0.15041 0.0
H2876 H 0.48398 0.08454 0.10287 0.0
H2877 H 0.50008 0.07375 0.08138 0.0
C2878 C 0.20706 0.33663 0.33475 0.0
C2879 C 0.18516 0.32802 0.31781 0.0
C2880 C 0.20955 0.31577 0.28671 0.0
C2881 C 0.23096 0.32212 0.30433 0.0
N2882 N 0.24886 0.33563 0.34639 0.0
N2883 N 0.1653 0.30686 0.27817 0.0
C2884 C 0.22939 0.33196 0.32865 0.0
C2885 C 0.18642 0.31695 0.29391 0.0
N2886 N 0.20664 0.3497 0.35673 0.0
N2887 N 0.21148 0.30941 0.26274 0.0
H2888 H 0.14831 0.30788 0.28247 0.0
H2889 H 0.16434 0.29598 0.26161 0.0
H2890 H 0.22797 0.30877 0.25677 0.0
H2891 H 0.19739 0.307 0.2485 0.0
H2892 H 0.22227 0.35892 0.36885 0.0
H2893 H 0.19075 0.353 0.36202 0.0
H2894 H 0.24813 0.33994 0.36492 0.0
H2895 H 0.26532 0.33243 0.34287 0.0
C2896 C 0.03153 0.04747 0.15145 0.0
C2897 C 1.00967 0.05277 0.15691 0.0
C2898 C 1.00208 0.06214 0.11513 0.0
C2899 C 0.02286 0.05494 0.10915 0.0
N2900 N 0.05573 0.03776 0.12053 0.0
N2901 N 0.97239 0.06217 0.14324 0.0
C2902 C 0.03715 0.04681 0.12705 0.0
C2903 C 0.99449 0.05937 0.13855 0.0
N2904 N 0.04738 0.04387 0.16982 0.0
N2905 N 0.98995 0.0722 0.09858 0.0
H2906 H 0.96626 0.06038 0.1601 0.0
H2907 H 0.95929 0.06442 0.12999 0.0
H2908 H 0.99479 0.07412 0.08121 0.0
H2909 H 0.97632 0.08032 0.10259 0.0
H2910 H 0.06483 0.04262 0.16772 0.0
H2911 H 0.04388 0.04411 0.18785 0.0
H2912 H 0.06484 0.02869 0.1317 0.0
H2913 H 0.06092 0.03768 0.10315 0.0
C2914 C 0.30682 0.75454 0.44306 0.0
C2915 C 0.29926 0.75707 0.46636 0.0
C2916 C 0.27562 0.78443 0.45413 0.0
C2917 C 0.28124 0.78004 0.43018 0.0
N2918 N 0.30554 0.76541 0.40224 0.0
N2919 N 0.28224 0.77845 0.49653 0.0
C2920 C 0.29827 0.76681 0.42488 0.0
C2921 C 0.28566 0.77357 0.47274 0.0
N2922 N 0.32103 0.73932 0.43814 0.0
N2923 N 0.25979 0.79799 0.45858 0.0
H2924 H 0.28956 0.77066 0.51044 0.0
H2925 H 0.27382 0.79142 0.50293 0.0
H2926 H 0.25306 0.80696 0.44538 0.0
H2927 H 0.25272 0.79988 0.47492 0.0
H2928 H 0.32527 0.7344 0.42093 0.0
H2929 H 0.32834 0.73094 0.45152 0.0
H2930 H 0.31923 0.7577 0.39758 0.0
H2931 H 0.29881 0.77324 0.38807 0.0
C2932 C 0.60422 0.04338 0.62327 0.0
C2933 C 0.60362 0.0591 0.64453 0.0
C2934 C 0.57137 0.0725 0.62299 0.0
C2935 C 0.56949 0.0541 0.60305 0.0
N2936 N 0.58155 0.01927 0.5858 0.0
N2937 N 0.58522 0.08693 0.66603 0.0
C2938 C 0.58531 0.03886 0.60351 0.0
C2939 C 0.58687 0.07332 0.64481 0.0
N2940 N 0.62306 0.03308 0.62183 0.0
N2941 N 0.55908 0.08971 0.6208 0.0
H2942 H 0.59643 0.08812 0.68239 0.0
H2943 H 0.57149 0.09552 0.66788 0.0
H2944 H 0.54805 0.09011 0.60483 0.0
H2945 H 0.56179 0.10498 0.63387 0.0
H2946 H 0.62566 0.02342 0.60579 0.0
H2947 H 0.63744 0.03616 0.63599 0.0
H2948 H 0.59088 1.00605 0.58672 0.0
H2949 H 0.56759 0.01502 0.57123 0.0
C2950 C 0.28372 0.32523 0.90175 0.0
C2951 C 0.30562 0.32845 0.91781 0.0
C2952 C 0.32663 0.32187 0.88228 0.0
C2953 C 0.3042 0.31653 0.86643 0.0
N2954 N 0.26022 0.30665 0.86243 0.0
N2955 N 0.34648 0.3243 0.92353 0.0
C2956 C 0.28239 0.31626 0.87659 0.0
C2957 C 0.32663 0.32501 0.9081 0.0
N2958 N 0.26449 0.33185 0.91014 0.0
N2959 N 0.34812 0.32536 0.87286 0.0
H2960 H 0.34697 0.32611 0.94246 0.0
H2961 H 0.36139 0.3195 0.91746 0.0
H2962 H 0.34911 0.3242 0.8542 0.0
H2963 H 0.3651 0.33178 0.88364 0.0
H2964 H 0.24915 0.33232 0.89863 0.0
H2965 H 0.26481 0.3392 0.92822 0.0
H2966 H 0.24374 0.30392 0.86947 0.0
H2967 H 0.25827 0.29884 0.84424 0.0
C2968 C 1.00875 0.02674 0.42272 0.0
C2969 C 0.02135 0.0461 0.41116 0.0
C2970 C 0.04677 0.06558 0.45035 0.0
C2971 C 0.03458 0.04596 0.46185 0.0
N2972 N 1.00693 1.00593 0.45842 0.0
N2973 N 0.05495 0.0817 0.41266 0.0
C2974 C 1.01653 0.02588 0.44779 0.0
C2975 C 0.04116 0.06485 0.42463 0.0
N2976 N 0.98873 1.00965 0.40994 0.0
N2977 N 0.06343 0.08524 0.46417 0.0
H2978 H 0.05113 0.08192 0.39397 0.0
H2979 H 0.07121 0.09431 0.42072 0.0
H2980 H 0.06934 0.08566 0.48256 0.0
H2981 H 0.07056 0.10156 0.4578 0.0
H2982 H 0.97698 0.99667 0.41784 0.0
H2983 H 0.98285 1.00938 0.39151 0.0
H2984 H 0.99549 0.98969 0.44881 0.0
H2985 H 1.01193 1.00492 0.47674 0.0
C2986 C 0.28802 0.74479 0.68784 0.0
C2987 C 0.30783 0.75565 0.67589 0.0
C2988 C 0.32181 0.78998 0.70888 0.0
C2989 C 0.30148 0.77945 0.72025 0.0
N2990 N 0.26218 0.75067 0.71827 0.0
N2991 N 0.34111 0.79 0.67213 0.0
C2992 C 0.28358 0.75804 0.70895 0.0
C2993 C 0.32401 0.77876 0.6855 0.0
N2994 N 0.27407 0.72149 0.67954 0.0
N2995 N 0.33934 0.81008 0.72083 0.0
H2996 H 0.34343 0.78195 0.6551 0.0
H2997 H 0.35184 0.80789 0.67706 0.0
H2998 H 0.33774 0.81921 0.73762 0.0
H2999 H 0.35599 0.81699 0.71477 0.0
H3000 H 0.26119 0.71175 0.68917 0.0
H3001 H 0.27671 0.71101 0.66403 0.0
H3002 H 0.24742 0.73646 0.70951 0.0
H3003 H 0.25824 0.7604 0.73358 0.0
C3004 C 0.61587 0.0969 0.85918 0.0
C3005 C 0.64017 0.09581 0.86519 0.0
C3006 C 0.6358 0.09841 0.90854 0.0
C3007 C 0.61171 0.10011 0.90259 0.0
N3008 N 0.57995 0.1052 0.87349 0.0
N3009 N 0.67497 0.09974 0.89514 0.0
C3010 C 0.60212 0.10074 0.87825 0.0
C3011 C 0.65068 0.09787 0.88978 0.0
N3012 N 0.60569 0.09329 0.83522 0.0
N3013 N 0.64413 0.09659 0.93198 0.0
H3014 H 0.68629 0.0991 0.88173 0.0
H3015 H 0.68438 0.10379 0.91279 0.0
H3016 H 0.63412 0.09793 0.94642 0.0
H3017 H 0.66034 0.09235 0.937 0.0
H3018 H 0.58726 0.09102 0.82961 0.0
H3019 H 0.61536 0.09098 0.82069 0.0
H3020 H 0.57305 0.1085 0.85657 0.0
H3021 H 0.56908 0.10743 0.88699 0.0
C3022 C 0.29625 0.35861 0.19128 0.0
C3023 C 0.29552 0.3407 0.17111 0.0
C3024 C 0.29483 0.31058 0.19913 0.0
C3025 C 0.29305 0.32778 0.21888 0.0
N3026 N 0.28793 0.36708 0.23282 0.0
N3027 N 0.28908 0.29839 0.1553 0.0
C3028 C 0.29261 0.35152 0.21468 0.0
C3029 C 0.29333 0.31632 0.1749 0.0
N3030 N 0.30139 0.38257 0.18835 0.0
N3031 N 0.29928 0.28918 0.20357 0.0
H3032 H 0.28756 0.30174 0.13727 0.0
H3033 H 0.28472 0.27995 0.15686 0.0
H3034 H 0.30129 0.28448 0.22101 0.0
H3035 H 0.30348 0.27722 0.19029 0.0
H3036 H 0.3047 0.3967 0.20284 0.0
H3037 H 0.30455 0.38855 0.1717 0.0
H3038 H 0.28476 0.38364 0.23011 0.0
H3039 H 0.28499 0.36246 0.25004 0.0
C3040 C 0.22244 0.03385 0.04375 0.0
C3041 C 0.20874 1.00899 0.03914 0.0
C3042 C 0.17278 0.01969 0.0511 0.0
C3043 C 0.18574 0.04463 0.05316 0.0
N3044 N 0.22174 0.076 0.04947 0.0
N3045 N 0.17049 0.97804 0.03535 0.0
C3046 C 0.2103 0.0519 0.04903 0.0
C3047 C 0.18381 1.00179 0.0421 0.0
N3048 N 0.24712 0.04009 0.04369 0.0
N3049 N 0.15005 0.01317 0.05799 0.0
H3050 H 0.17806 0.96439 0.0287 0.0
H3051 H 0.15162 0.97212 0.03449 0.0
H3052 H 0.141 0.02578 0.06404 0.0
H3053 H 0.14092 0.99538 0.05961 0.0
H3054 H 0.25846 0.05759 0.0496 0.0
H3055 H 0.25668 0.02742 0.03946 0.0
H3056 H 0.23864 0.08228 0.04369 0.0
H3057 H 0.21362 0.08979 0.05421 0.0
C3058 C 0.66041 0.61679 0.04915 0.0
C3059 C 0.66538 0.62336 0.02604 0.0
C3060 C 0.62558 0.59645 0.0069 0.0
C3061 C 0.61956 0.59207 0.03036 0.0
N3062 N 0.62978 0.60045 0.07422 0.0
N3063 N 0.65221 0.62161 0.98317 0.0
C3064 C 0.63665 0.60272 0.05162 0.0
C3065 C 0.64784 0.61372 1.00494 0.0
N3066 N 0.67853 0.62378 0.06868 0.0
N3067 N 0.61033 0.5835 0.98648 0.0
H3068 H 0.66856 0.63377 0.98092 0.0
H3069 H 0.63907 0.61749 0.96778 0.0
H3070 H 0.59413 0.57039 0.98731 0.0
H3071 H 0.61467 0.58407 0.96884 0.0
H3072 H 0.67689 0.61739 0.08534 0.0
H3073 H 0.69601 0.63447 0.06762 0.0
H3074 H 0.64047 0.61002 0.09039 0.0
H3075 H 0.61249 0.59049 0.07682 0.0
C3076 C 0.72224 0.46573 0.30769 0.0
C3077 C 0.70768 0.46737 0.28604 0.0
C3078 C 0.72289 0.43703 0.26254 0.0
C3079 C 0.73791 0.43583 0.28407 0.0
N3080 N 0.75351 0.44949 0.32666 0.0
N3081 N 0.69132 0.453 0.24373 0.0
C3082 C 0.73788 0.45019 0.30659 0.0
C3083 C 0.70724 0.45257 0.26366 0.0
N3084 N 0.72059 0.4787 0.32935 0.0
N3085 N 0.72425 0.4238 0.24093 0.0
H3086 H 0.67996 0.46449 0.24385 0.0
H3087 H 0.68819 0.44124 0.22738 0.0
H3088 H 0.73485 0.41162 0.23963 0.0
H3089 H 0.71584 0.42542 0.224 0.0
H3090 H 0.72873 0.47682 0.34631 0.0
H3091 H 0.70986 0.49075 0.33069 0.0
H3092 H 0.75643 0.46106 0.34311 0.0
H3093 H 0.76471 0.43785 0.32664 0.0
C3094 C 0.93365 0.5386 0.53001 0.0
C3095 C 0.92259 0.51597 0.5151 0.0
C3096 C 0.9622 0.51308 0.50485 0.0
C3097 C 0.9735 0.53377 0.52262 0.0
N3098 N 0.9706 0.56548 0.55365 0.0
N3099 N 0.92551 0.48077 0.48884 0.0
C3100 C 0.95942 0.54661 0.53539 0.0
C3101 C 0.93661 0.50304 0.50243 0.0
N3102 N 0.91944 0.55224 0.53912 0.0
N3103 N 0.97588 0.50346 0.48992 0.0
H3104 H 0.90663 0.47337 0.48566 0.0
H3105 H 0.93501 0.46904 0.4818 0.0
H3106 H 0.99471 0.51056 0.49102 0.0
H3107 H 0.96842 0.48986 0.47505 0.0
H3108 H 0.92638 0.57 0.54815 0.0
H3109 H 0.90043 0.54655 0.53577 0.0
H3110 H 0.96124 0.57382 0.56541 0.0
H3111 H 0.98944 0.57168 0.55842 0.0
C3112 C 0.31556 0.14189 0.31405 0.0
C3113 C 0.32819 0.12985 0.29853 0.0
C3114 C 0.31167 0.14503 0.26325 0.0
C3115 C 0.29853 0.15643 0.27865 0.0
N3116 N 0.28324 0.16156 0.31701 0.0
N3117 N 0.33356 0.11461 0.25776 0.0
C3118 C 0.29884 0.15335 0.30353 0.0
C3119 C 0.32478 0.12975 0.27289 0.0
N3120 N 0.32051 0.14346 0.33885 0.0
N3121 N 0.31244 0.14961 0.23975 0.0
H3122 H 0.34288 0.10273 0.26412 0.0
H3123 H 0.32963 0.11215 0.2388 0.0
H3124 H 0.30224 0.16 0.23177 0.0
H3125 H 0.32429 0.14437 0.22869 0.0
H3126 H 0.31379 0.15421 0.35116 0.0
H3127 H 0.33299 0.13559 0.34728 0.0
H3128 H 0.28098 0.15786 0.33462 0.0
H3129 H 0.27087 0.17022 0.30972 0.0
C3130 C 0.40641 0.15415 0.54381 0.0
C3131 C 0.38077 0.14481 0.53732 0.0
C3132 C 0.38496 0.10354 0.52877 0.0
C3133 C 0.41029 0.11256 0.53725 0.0
N3134 N 0.44459 0.14569 0.55694 0.0
N3135 N 0.34507 0.11029 0.52871 0.0
C3136 C 0.42089 0.13769 0.54597 0.0
C3137 C 0.36986 0.11938 0.53128 0.0
N3138 N 0.41698 0.17869 0.54706 0.0
N3139 N 0.37543 0.08005 0.51747 0.0
H3140 H 0.33335 0.12128 0.53076 0.0
H3141 H 0.33626 0.09178 0.52686 0.0
H3142 H 0.3859 0.06787 0.51501 0.0
H3143 H 0.35761 0.07329 0.50854 0.0
H3144 H 0.43576 0.18646 0.54922 0.0
H3145 H 0.40696 0.1913 0.54557 0.0
H3146 H 0.45258 0.16333 0.56594 0.0
H3147 H 0.45573 0.13414 0.55892 0.0
C3148 C 0.73181 0.70588 0.32141 0.0
C3149 C 0.73032 0.68572 0.30349 0.0
C3150 C 0.75907 0.71185 0.28158 0.0
C3151 C 0.76099 0.73185 0.29983 0.0
N3152 N 0.75331 0.74738 0.33939 0.0
N3153 N 0.74553 0.66808 0.26919 0.0
C3154 C 0.74864 0.72867 0.32049 0.0
C3155 C 0.74493 0.68828 0.28438 0.0
N3156 N 0.7164 0.70349 0.33868 0.0
N3157 N 0.77007 0.71557 0.26118 0.0
H3158 H 0.73526 0.65058 0.27065 0.0
H3159 H 0.75758 0.66831 0.25643 0.0
H3160 H 0.78133 0.7324 0.25898 0.0
H3161 H 0.76696 0.70245 0.24581 0.0
H3162 H 0.71451 0.71809 0.35043 0.0
H3163 H 0.70412 0.68699 0.34022 0.0
H3164 H 0.74694 0.74557 0.3561 0.0
H3165 H 0.76537 0.76433 0.33916 0.0
C3166 C 0.80408 0.41306 0.78102 0.0
C3167 C 0.82103 0.42718 0.801 0.0
C3168 C 0.82665 0.39047 0.81594 0.0
C3169 C 0.81172 0.37648 0.79452 0.0
N3170 N 0.78654 0.37371 0.75628 0.0
N3171 N 0.85081 0.43021 0.83616 0.0
C3172 C 0.80057 0.38759 0.77689 0.0
C3173 C 0.83278 0.41616 0.81831 0.0
N3174 N 0.79104 0.42412 0.76638 0.0
N3175 N 0.83486 0.3792 0.83405 0.0
H3176 H 0.85575 0.44916 0.83888 0.0
H3177 H 0.86213 0.42319 0.84732 0.0
H3178 H 0.83209 0.36042 0.83239 0.0
H3179 H 0.84309 0.38827 0.85136 0.0
H3180 H 0.77685 0.41479 0.75265 0.0
H3181 H 0.7931 0.44282 0.76929 0.0
H3182 H 0.78048 0.38075 0.7412 0.0
H3183 H 0.78183 0.35484 0.75389 0.0
C3184 C 0.05621 0.95274 0.08059 0.0
C3185 C 0.07091 0.94081 0.06743 0.0
C3186 C 0.07947 0.97539 0.04341 0.0
C3187 C 0.06289 0.98596 0.05498 0.0
N3188 N 0.03299 0.98256 0.08261 0.0
N3189 N 0.09434 0.9398 0.03408 0.0
C3190 C 0.05059 0.97396 0.07298 0.0
C3191 C 0.08207 0.95201 0.04832 0.0
N3192 N 0.04843 0.94442 0.1012 0.0
N3193 N 0.09295 0.98782 0.02776 0.0
H3194 H 0.09645 0.92285 0.03692 0.0
H3195 H 0.1008 0.94544 0.01834 0.0
H3196 H 0.09109 1.00444 0.02339 0.0
H3197 H 0.10716 0.9827 0.0205 0.0
H3198 H 0.04005 0.95369 0.11323 0.0
H3199 H 0.05242 0.9294 0.10763 0.0
H3200 H 0.02123 0.9732 0.0935 0.0
H3201 H 0.02886 0.99826 0.07823 0.0
C3202 C 0.86524 0.27537 0.87481 0.0
C3203 C 0.88947 0.28964 0.87435 0.0
C3204 C 0.87327 0.31222 0.84464 0.0
C3205 C 0.84949 0.29611 0.84298 0.0
N3206 N 0.82436 0.25879 0.8528 0.0
N3207 N 0.91685 0.31874 0.85508 0.0
C3208 C 0.84584 0.27678 0.85718 0.0
C3209 C 0.89355 0.30733 0.85826 0.0
N3210 N 0.86058 0.26082 0.89243 0.0
N3211 N 0.87647 0.33265 0.83367 0.0
H3212 H 0.93215 0.31529 0.86416 0.0
H3213 H 0.92093 0.32981 0.8417 0.0
H3214 H 0.86213 0.33703 0.82383 0.0
H3215 H 0.89283 0.34638 0.83631 0.0
H3216 H 0.84299 0.25198 0.89524 0.0
H3217 H 0.87416 0.25942 0.90572 0.0
H3218 H 0.82148 0.243 0.86082 0.0
H3219 H 0.81034 0.25842 0.83916 0.0
C3220 C 0.54924 0.16645 0.54012 0.0
C3221 C 0.56314 0.18065 0.56213 0.0
C3222 C 0.57339 0.14367 0.57349 0.0
C3223 C 0.55779 0.12911 0.55253 0.0
N3224 N 0.52869 0.12642 0.51709 0.0
N3225 N 0.58527 0.18172 0.60166 0.0
C3226 C 0.54504 0.14048 0.53627 0.0
C3227 C 0.57446 0.16895 0.57925 0.0
N3228 N 0.54085 0.17794 0.52235 0.0
N3229 N 0.58729 0.13334 0.58801 0.0
H3230 H 0.58622 0.19999 0.6067 0.0
H3231 H 0.59143 0.1738 0.61603 0.0
H3232 H 0.58623 0.11486 0.58516 0.0
H3233 H 0.6011 0.14331 0.60185 0.0
H3234 H 0.53296 0.16924 0.50483 0.0
H3235 H 0.54365 0.19674 0.5244 0.0
H3236 H 0.5166 0.13293 0.50633 0.0
H3237 H 0.52607 0.10773 0.51279 0.0
C3238 C 0.62095 0.77995 0.37079 0.0
C3239 C 0.61215 0.80019 0.378 0.0
C3240 C 0.64372 0.82636 0.3588 0.0
C3241 C 0.65107 0.8057 0.34966 0.0
N3242 N 0.64479 0.76228 0.34422 0.0
N3243 N 0.61289 0.84199 0.37645 0.0
C3244 C 0.63921 0.78233 0.35499 0.0
C3245 C 0.62293 0.82323 0.37133 0.0
N3246 N 0.61219 0.75857 0.37949 0.0
N3247 N 0.65717 0.84911 0.35623 0.0
H3248 H 0.59803 0.84055 0.38604 0.0
H3249 H 0.61806 0.8584 0.36966 0.0
H3250 H 0.67252 0.85214 0.34726 0.0
H3251 H 0.65443 0.86506 0.36473 0.0
H3252 H 0.61972 0.744 0.37727 0.0
H3253 H 0.59844 0.75598 0.3906 0.0
H3254 H 0.63502 0.7445 0.34515 0.0
H3255 H 0.6581 0.76329 0.33268 0.0
C3256 C 0.03886 0.20885 0.43847 0.0
C3257 C 0.04882 0.23338 0.44981 0.0
C3258 C 0.05397 0.21954 0.48968 0.0
C3259 C 0.04179 0.19527 0.47871 0.0
N3260 N 0.01952 0.16712 0.44322 0.0
N3261 N 0.06261 0.26255 0.48658 0.0
C3262 C 0.03343 0.18999 0.45321 0.0
C3263 C 0.05552 0.23885 0.47554 0.0
N3264 N 0.0352 0.20352 0.41356 0.0
N3265 N 0.06476 0.22405 0.51346 0.0
H3266 H 0.06418 0.27719 0.47687 0.0
H3267 H 0.06503 0.26767 0.50543 0.0
H3268 H 0.06413 0.21041 0.52437 0.0
H3269 H 0.07614 0.24091 0.52175 0.0
H3270 H 0.03052 0.18587 0.40417 0.0
H3271 H 0.03883 0.21684 0.40221 0.0
H3272 H 1.01063 0.16274 0.42534 0.0
H3273 H 1.01519 0.15285 0.45338 0.0
C3274 C 0.67772 0.28277 0.28713 0.0
C3275 C 0.66741 0.28255 0.26267 0.0
C3276 C 0.70812 0.28543 0.24983 0.0
C3277 C 0.71879 0.2879 0.27455 0.0
N3278 N 0.71401 0.29126 0.31714 0.0
N3279 N 0.67378 0.28723 0.22119 0.0
C3280 C 0.70361 0.28724 0.29328 0.0
C3281 C 0.6829 0.28472 0.24413 0.0
N3282 N 0.66261 0.2777 0.30439 0.0
N3283 N 0.72206 0.28339 0.23167 0.0
H3284 H 0.6557 0.28714 0.21636 0.0
H3285 H 0.6845 0.29149 0.20749 0.0
H3286 H 0.74052 0.28428 0.23515 0.0
H3287 H 0.71499 0.27885 0.21322 0.0
H3288 H 0.66845 0.27492 0.32189 0.0
H3289 H 0.64373 0.27422 0.30063 0.0
H3290 H 0.70478 0.29429 0.3318 0.0
H3291 H 0.73244 0.29304 0.32229 0.0
C3292 C 0.5715 0.95794 0.97808 0.0
C3293 C 0.56459 0.95605 0.95252 0.0
C3294 C 0.54971 0.99237 0.96009 0.0
C3295 C 0.55921 0.99588 0.98534 0.0
N3296 N 0.58526 0.98474 0.01651 0.0
N3297 N 0.55247 0.97528 0.91894 0.0
C3298 C 0.57192 0.97948 0.99378 0.0
C3299 C 0.55537 0.97447 0.94345 0.0
N3300 N 0.5766 0.93876 0.9877 0.0
N3301 N 0.53399 1.00489 0.95201 0.0
H3302 H 0.55699 0.96294 0.90627 0.0
H3303 H 0.54807 0.98966 0.91153 0.0
H3304 H 0.52787 0.01688 0.96356 0.0
H3305 H 0.52482 1.00126 0.93424 0.0
H3306 H 0.57921 0.93831 0.00643 0.0
H3307 H 0.57564 0.92229 0.97713 0.0
H3308 H 0.59675 0.97459 0.02244 0.0
H3309 H 0.58717 1.00066 0.02839 0.0
C3310 C 0.89364 0.78832 0.7425 0.0
C3311 C 0.90793 0.77754 0.75786 0.0
C3312 C 0.87555 0.77187 0.78498 0.0
C3313 C 0.8624 0.78468 0.77082 0.0
N3314 N 0.85969 0.80598 0.73628 0.0
N3315 N 0.91342 0.76108 0.79516 0.0
C3316 C 0.87179 0.79319 0.7497 0.0
C3317 C 0.89896 0.76967 0.77938 0.0
N3318 N 0.90038 0.79288 0.72028 0.0
N3319 N 0.86571 0.76183 0.80397 0.0
H3320 H 0.93041 0.75922 0.79175 0.0
H3321 H 0.90955 0.75746 0.81241 0.0
H3322 H 0.84964 0.76431 0.80957 0.0
H3323 H 0.87251 0.74978 0.81323 0.0
H3324 H 0.88965 0.79814 0.70688 0.0
H3325 H 0.91593 0.78944 0.71428 0.0
H3326 H 0.86703 0.81581 0.72299 0.0
H3327 H 0.84251 0.80768 0.73911 0.0
C3328 C 0.06405 0.034 0.926 0.0
C3329 C 0.08372 0.05325 0.92179 0.0
C3330 C 0.08853 0.07159 0.96493 0.0
C3331 C 0.07021 0.05129 0.96959 0.0
N3332 N 0.04418 0.01074 0.95546 0.0
N3333 N 0.1179 0.08774 0.93848 0.0
C3334 C 0.05899 0.03181 0.95034 0.0
C3335 C 0.09692 0.07127 0.94165 0.0
N3336 N 0.04963 0.01822 0.90663 0.0
N3337 N 0.09707 0.0918 0.98224 0.0
H3338 H 0.12467 0.08808 0.92181 0.0
H3339 H 0.12974 0.09959 0.95285 0.0
H3340 H 0.09101 0.09313 0.99922 0.0
H3341 H 0.10843 0.10809 0.97895 0.0
H3342 H 0.03345 1.00549 0.90824 0.0
H3343 H 0.05265 0.01925 0.88859 0.0
H3344 H 0.03744 0.995 0.94273 0.0
H3345 H 0.0406 1.00815 0.97309 0.0
C3346 C 0.8238 0.33611 0.60866 0.0
C3347 C 0.83563 0.36125 0.61598 0.0
C3348 C 0.85701 0.35212 0.65232 0.0
C3349 C 0.84143 0.32812 0.64756 0.0
N3350 N 0.8097 0.29671 0.62163 0.0
N3351 N 0.86241 0.39379 0.64559 0.0
C3352 C 0.82502 0.31977 0.6256 0.0
C3353 C 0.85234 0.36945 0.63783 0.0
N3354 N 0.81157 0.32798 0.58554 0.0
N3355 N 0.87579 0.35832 0.67116 0.0
H3356 H 0.85904 0.40719 0.63577 0.0
H3357 H 0.87255 0.4008 0.66273 0.0
H3358 H 0.8794 0.34575 0.68208 0.0
H3359 H 0.88906 0.375 0.67438 0.0
H3360 H 0.80435 0.30963 0.57851 0.0
H3361 H 0.81062 0.33955 0.57258 0.0
H3362 H 0.79521 0.29057 0.60745 0.0
H3363 H 0.81079 0.28404 0.63336 0.0
C3364 C 0.51225 0.07662 0.44166 0.0
C3365 C 0.4885 0.06035 0.43874 0.0
C3366 C 0.50143 0.03905 0.47049 0.0
C3367 C 0.52431 0.05679 0.47545 0.0
N3368 N 0.54921 0.09612 0.46959 0.0
N3369 N 0.45872 0.03115 0.45554 0.0
C3370 C 0.52911 0.07675 0.46222 0.0
C3371 C 0.48249 0.04333 0.45502 0.0
N3372 N 0.51919 0.09098 0.42434 0.0
N3373 N 0.49806 0.01745 0.4793 0.0
H3374 H 0.44427 0.03439 0.44469 0.0
H3375 H 0.45343 0.01992 0.46856 0.0
H3376 H 0.51203 0.01291 0.48941 0.0
H3377 H 0.48217 1.00316 0.47429 0.0
H3378 H 0.53714 0.10117 0.42452 0.0
H3379 H 0.5076 0.09112 0.40868 0.0
H3380 H 0.55214 0.11203 0.46175 0.0
H3381 H 0.5615 0.09743 0.48518 0.0
C3382 C 0.79861 0.80039 0.17212 0.0
C3383 C 0.78686 0.77633 0.16028 0.0
C3384 C 0.77326 0.76527 0.19903 0.0
C3385 C 0.78718 0.78852 0.21136 0.0
N3386 N 0.81527 0.82751 0.21029 0.0
N3387 N 0.76485 0.73503 0.16267 0.0
C3388 C 0.80029 0.80598 0.19803 0.0
C3389 C 0.77456 0.75856 0.17379 0.0
N3390 N 0.80784 0.818 0.15848 0.0
N3391 N 0.75835 0.74978 0.21142 0.0
H3392 H 0.76496 0.72951 0.14418 0.0
H3393 H 0.75816 0.72061 0.17202 0.0
H3394 H 0.75694 0.75418 0.22982 0.0
H3395 H 0.74585 0.73354 0.20311 0.0
H3396 H 0.81432 0.83642 0.16548 0.0
H3397 H 0.80725 0.81445 0.13959 0.0
H3398 H 0.82753 0.83986 0.20219 0.0
H3399 H 0.8167 0.83236 0.2291 0.0
C3400 C 0.05644 0.07247 0.65907 0.0
C3401 C 0.07464 0.06155 0.66757 0.0
C3402 C 0.08261 0.05275 0.6254 0.0
C3403 C 0.06275 0.06136 0.61658 0.0
N3404 N 0.02882 0.07695 0.62484 0.0
N3405 N 0.10246 0.03786 0.65856 0.0
C3406 C 0.04919 0.07069 0.63338 0.0
C3407 C 0.08697 0.0507 0.65063 0.0
N3408 N 0.04653 0.0851 0.67557 0.0
N3409 N 0.09809 0.04756 0.60982 0.0
H3410 H 0.10628 0.03603 0.67687 0.0
H3411 H 0.10985 0.02722 0.64681 0.0
H3412 H 0.0961 0.04964 0.59143 0.0
H3413 H 0.11432 0.04366 0.61558 0.0
H3414 H 0.03522 0.09578 0.67067 0.0
H3415 H 0.05106 0.08638 0.6944 0.0
H3416 H 1.01653 0.08111 0.63596 0.0
H3417 H 0.02314 0.07628 0.60631 0.0
C3418 C 0.76427 0.35187 0.38707 0.0
C3419 C 0.77309 0.34325 0.40799 0.0
C3420 C 0.78833 0.3145 0.38292 0.0
C3421 C 0.77974 0.32329 0.36192 0.0
N3422 N 0.75421 0.34548 0.34317 0.0
N3423 N 0.7876 0.31289 0.4262 0.0
C3424 C 0.76594 0.34042 0.36373 0.0
C3425 C 0.78299 0.3232 0.40596 0.0
N3426 N 0.75555 0.37184 0.38959 0.0
N3427 N 0.803 0.29927 0.38111 0.0
H3428 H 0.78394 0.31923 0.44334 0.0
H3429 H 0.79282 0.29685 0.42562 0.0
H3430 H 0.80792 0.29293 0.36462 0.0
H3431 H 0.81195 0.29441 0.39616 0.0
H3432 H 0.75203 0.38103 0.37519 0.0
H3433 H 0.75307 0.38014 0.40643 0.0
H3434 H 0.74184 0.35586 0.34346 0.0
H3435 H 0.7551 0.33748 0.32569 0.0
C3436 C 0.45361 0.0152 0.19005 0.0
C3437 C 0.46624 0.01896 0.21405 0.0
C3438 C 0.50327 0.01474 0.19826 0.0
C3439 C 0.49046 0.01036 0.17426 0.0
N3440 N 0.45264 1.00126 0.14708 0.0
N3441 N 0.50088 0.01734 0.24164 0.0
C3442 C 0.46531 1.00894 0.17008 0.0
C3443 C 0.49041 0.01712 0.21837 0.0
N3444 N 0.43078 0.01841 0.18635 0.0
N3445 N 0.52788 0.01775 0.20178 0.0
H3446 H 0.49207 0.01945 0.25688 0.0
H3447 H 0.51745 0.01344 0.24571 0.0
H3448 H 0.53793 0.01581 0.18749 0.0
H3449 H 0.53869 0.02379 0.21871 0.0
H3450 H 0.42176 0.01868 0.16922 0.0
H3451 H 0.42139 0.02247 0.20061 0.0
H3452 H 0.43378 0.99755 0.1432 0.0
H3453 H 0.46076 0.99651 0.13203 0.0
C3454 C 0.80059 0.79073 0.90207 0.0
C3455 C 0.79912 0.76647 0.90585 0.0
C3456 C 0.80284 0.75598 0.86243 0.0
C3457 C 0.80174 0.77954 0.85815 0.0
N3458 N 0.79566 0.81823 0.87338 0.0
N3459 N 0.79595 0.72508 0.88915 0.0
C3460 C 0.79972 0.79667 0.87787 0.0
C3461 C 0.79952 0.74885 0.88589 0.0
N3462 N 0.80336 0.80829 0.92173 0.0
N3463 N 0.80791 0.74069 0.84431 0.0
H3464 H 0.79376 0.71922 0.90602 0.0
H3465 H 0.79328 0.71089 0.87485 0.0
H3466 H 0.81046 0.7453 0.827 0.0
H3467 H 0.81171 0.7244 0.847 0.0
H3468 H 0.80735 0.82678 0.92052 0.0
H3469 H 0.80379 0.80461 0.93965 0.0
H3470 H 0.79109 0.83013 0.88641 0.0
H3471 H 0.79459 0.8233 0.85605 0.0
C3472 C 0.91065 0.09788 0.03535 0.0
C3473 C 0.88701 0.09714 0.0245 0.0
C3474 C 0.88824 0.0655 0.9917 0.0
C3475 C 0.91071 0.0645 1.00398 0.0
N3476 N 0.94145 0.07646 0.03977 0.0
N3477 N 0.85139 0.07802 0.99467 0.0
C3478 C 0.92148 0.07982 0.02644 0.0
C3479 C 0.87526 0.08041 1.00321 0.0
N3480 N 0.92293 0.11614 0.05381 0.0
N3481 N 0.87955 0.05247 0.96897 0.0
H3482 H 0.84113 0.08846 1.00273 0.0
H3483 H 0.84112 0.06436 0.98081 0.0
H3484 H 0.88859 0.04112 0.96024 0.0
H3485 H 0.86452 0.05439 0.958 0.0
H3486 H 0.94123 0.11907 0.06065 0.0
H3487 H 0.91552 0.12977 0.06083 0.0
H3488 H 0.94824 0.0852 0.05753 0.0
H3489 H 0.9501 0.06339 0.03408 0.0
C3490 C 0.43453 0.50653 0.04745 0.0
C3491 C 0.43272 0.48383 0.05575 0.0
C3492 C 0.47728 0.49308 0.06231 0.0
C3493 C 0.47897 0.51421 0.05095 0.0
N3494 N 0.45886 0.53921 0.02933 0.0
N3495 N 0.45214 0.45369 0.06774 0.0
C3496 C 0.45751 0.52061 0.04278 0.0
C3497 C 0.45404 0.47663 0.06238 0.0
N3498 N 0.4143 0.51478 0.04433 0.0
N3499 N 0.49783 0.48907 0.07373 0.0
H3500 H 0.43548 0.44105 0.06806 0.0
H3501 H 0.46696 0.44648 0.06984 0.0
H3502 H 0.51515 0.50092 0.07459 0.0
H3503 H 0.49748 0.47532 0.08441 0.0
H3504 H 0.41492 0.53226 0.04073 0.0
H3505 H 0.39719 0.50491 0.04757 0.0
H3506 H 0.44358 0.54293 0.02061 0.0
H3507 H 0.47521 0.54962 0.02497 0.0
C3508 C 0.39655 0.66386 0.7898 0.0
C3509 C 0.38767 0.63851 0.79023 0.0
C3510 C 0.34631 0.64248 0.79172 0.0
C3511 C 0.35553 0.6681 0.79343 0.0
N3512 N 0.38974 0.70376 0.7974 0.0
N3513 N 0.35499 0.60384 0.79465 0.0
C3514 C 0.38076 0.67897 0.79329 0.0
C3515 C 0.36279 0.62787 0.79212 0.0
N3516 N 0.41999 0.67338 0.7857 0.0
N3517 N 0.32167 0.63203 0.7887 0.0
H3518 H 0.36623 0.59225 0.79403 0.0
H3519 H 0.33787 0.59573 0.79912 0.0
H3520 H 0.30897 0.64208 0.78809 0.0
H3521 H 0.31366 0.61335 0.78468 0.0
H3522 H 0.42678 0.69113 0.78236 0.0
H3523 H 0.43229 0.66299 0.78393 0.0
H3524 H 0.40826 0.71283 0.80008 0.0
H3525 H 0.37875 0.71541 0.80004 0.0
C3526 C 0.16519 0.57501 0.56466 0.0
C3527 C 0.17573 0.5975 0.55689 0.0
C3528 C 0.13547 0.60306 0.54612 0.0
C3529 C 0.12483 0.57935 0.55109 0.0
N3530 N 0.12912 0.54113 0.56196 0.0
N3531 N 0.17111 0.63075 0.53571 0.0
C3532 C 0.13953 0.56484 0.55965 0.0
C3533 C 0.16094 0.61093 0.54631 0.0
N3534 N 0.17963 0.5637 0.57723 0.0
N3535 N 0.12137 0.61843 0.54219 0.0
H3536 H 0.18977 0.63701 0.53506 0.0
H3537 H 0.16082 0.63957 0.52548 0.0
H3538 H 0.10267 0.61364 0.54294 0.0
H3539 H 0.12858 0.63674 0.54086 0.0
H3540 H 0.17275 0.54856 0.58558 0.0
H3541 H 0.19855 0.57062 0.581 0.0
H3542 H 0.13918 0.52897 0.56559 0.0
H3543 H 0.11038 0.53299 0.55831 0.0
C3544 C 0.75443 0.94628 0.772 0.0
C3545 C 0.75742 0.97052 0.78291 0.0
C3546 C 0.78975 0.96771 0.81379 0.0
C3547 C 0.78786 0.94411 0.80187 0.0
N3548 N 0.77234 0.9127 0.76691 0.0
N3549 N 0.78125 1.00629 0.81061 0.0
C3550 C 0.7714 0.93392 0.78009 0.0
C3551 C 0.77606 0.98186 0.80281 0.0
N3552 N 0.73489 0.93478 0.75462 0.0
N3553 N 0.80409 0.9763 0.83587 0.0
H3554 H 0.772 0.01747 0.80266 0.0
H3555 H 0.79621 0.01592 0.82342 0.0
H3556 H 0.81476 0.96654 0.84422 0.0
H3557 H 0.80398 0.99224 0.84675 0.0
H3558 H 0.73037 0.91629 0.74792 0.0
H3559 H 0.72189 0.94321 0.74837 0.0
H3560 H 0.76256 0.9058 0.74959 0.0
H3561 H 0.78455 0.90304 0.77226 0.0
C3562 C 0.68642 0.94935 0.54292 0.0
C3563 C 0.71056 0.95718 0.5374 0.0
C3564 C 0.70549 0.99744 0.53268 0.0
C3565 C 0.68111 0.98941 0.5375 0.0
N3566 N 0.64682 0.95706 0.54333 0.0
N3567 N 0.7419 0.98669 0.52285 0.0
C3568 C 0.67107 0.9651 0.54138 0.0
C3569 C 0.71974 0.98067 0.53101 0.0
N3570 N 0.67852 0.92723 0.55051 0.0
N3571 N 0.71519 0.02129 0.53032 0.0
H3572 H 0.75295 0.97495 0.5217 0.0
H3573 H 0.74857 1.00247 0.5154 0.0
H3574 H 0.70505 0.03391 0.53043 0.0
H3575 H 0.73363 0.02905 0.52976 0.0
H3576 H 0.66219 0.92151 0.55748 0.0
H3577 H 0.68908 0.91501 0.55128 0.0
H3578 H 0.63772 0.93891 0.54348 0.0
H3579 H 0.63523 0.96832 0.54308 0.0
C3580 C 0.37155 0.40991 0.79649 0.0
C3581 C 0.36756 0.42069 0.77535 0.0
C3582 C 0.33261 0.38555 0.75866 0.0
C3583 C 0.33615 0.37508 0.78025 0.0
N3584 N 0.35454 0.38058 0.82228 0.0
N3585 N 0.34226 0.42124 0.73821 0.0
C3586 C 0.35443 0.38818 0.79988 0.0
C3587 C 0.34741 0.40926 0.75703 0.0
N3588 N 0.39187 0.42033 0.81328 0.0
N3589 N 0.31584 0.37256 0.73929 0.0
H3590 H 0.35328 0.43812 0.73587 0.0
H3591 H 0.32623 0.41535 0.72589 0.0
H3592 H 0.30403 0.35554 0.73973 0.0
H3593 H 0.31467 0.37781 0.72204 0.0
H3594 H 0.39735 0.41177 0.82746 0.0
H3595 H 0.40431 0.43685 0.81211 0.0
H3596 H 0.36584 0.39064 0.83792 0.0
H3597 H 0.34149 0.36553 0.82594 0.0
C3598 C 0.28933 0.68877 0.24296 0.0
C3599 C 0.27769 0.67342 0.25879 0.0
C3600 C 0.27444 0.70859 0.28573 0.0
C3601 C 0.28257 0.72343 0.26809 0.0
N3602 N 0.29461 0.72744 0.22817 0.0
N3603 N 0.25374 0.66829 0.29222 0.0
C3604 C 0.28934 0.71353 0.24623 0.0
C3605 C 0.26881 0.68315 0.27945 0.0
N3606 N 0.30027 0.67962 0.2249 0.0
N3607 N 0.27285 0.71868 0.30874 0.0
H3608 H 0.24798 0.64945 0.2877 0.0
H3609 H 0.24487 0.6749 0.30575 0.0
H3610 H 0.27783 0.7374 0.31442 0.0
H3611 H 0.2692 0.70846 0.32287 0.0
H3612 H 0.31095 0.69045 0.21415 0.0
H3613 H 0.30048 0.66145 0.2222 0.0
H3614 H 0.29745 0.72052 0.21094 0.0
H3615 H 0.29377 0.74541 0.22958 0.0
C3616 C 0.53415 0.66311 0.5326 0.0
C3617 C 0.5202 0.66356 0.51 0.0
C3618 C 0.51431 0.6189 0.49989 0.0
C3619 C 0.52724 0.61825 0.52304 0.0
N3620 N 0.54527 0.63941 0.56322 0.0
N3621 N 0.49387 0.64087 0.47372 0.0
C3622 C 0.53602 0.64034 0.53983 0.0
C3623 C 0.50925 0.64108 0.49425 0.0
N3624 N 0.54604 0.68461 0.54715 0.0
N3625 N 0.5081 0.59865 0.48257 0.0
H3626 H 0.49061 0.65663 0.46837 0.0
H3627 H 0.48295 0.62498 0.46296 0.0
H3628 H 0.51159 0.58231 0.4857 0.0
H3629 H 0.50134 0.59852 0.46446 0.0
H3630 H 0.55895 0.68608 0.56225 0.0
H3631 H 0.54418 0.70136 0.54322 0.0
H3632 H 0.5497 0.65414 0.5772 0.0
H3633 H 0.54635 0.62322 0.56933 0.0
C3634 C 0.71945 0.32144 0.69454 0.0
C3635 C 0.69531 0.31289 0.69994 0.0
C3636 C 0.71094 0.29482 0.73395 0.0
C3637 C 0.73544 0.30647 0.73105 0.0
N3638 N 0.76287 0.33164 0.70809 0.0
N3639 N 0.66815 0.29344 0.72635 0.0
C3640 C 0.73967 0.31979 0.71104 0.0
C3641 C 0.69112 0.30019 0.72012 0.0
N3642 N 0.72303 0.33073 0.67327 0.0
N3643 N 0.70647 0.27731 0.74881 0.0
H3644 H 0.65306 0.29643 0.71636 0.0
H3645 H 0.6644 0.28666 0.74251 0.0
H3646 H 0.72026 0.27141 0.75776 0.0
H3647 H 0.68907 0.26653 0.74991 0.0
H3648 H 0.73965 0.33449 0.66655 0.0
H3649 H 0.70885 0.33296 0.66124 0.0
H3650 H 0.76699 0.34423 0.69609 0.0
H3651 H 0.77825 0.33028 0.71873 0.0
C3652 C 0.03181 0.4375 0.99529 0.0
C3653 C 0.02551 0.42183 0.013 0.0
C3654 C 0.02655 0.45786 0.04267 0.0
C3655 C 0.03115 0.4733 0.02441 0.0
N3656 N 0.03337 0.47654 0.98191 0.0
N3657 N 1.01312 0.41674 0.05247 0.0
C3658 C 0.03251 0.46272 1.00034 0.0
C3659 C 0.02183 0.43197 0.03638 0.0
N3660 N 0.03783 0.4284 0.97374 0.0
N3661 N 0.0277 0.46796 0.06636 0.0
H3662 H 1.00987 0.39791 0.04874 0.0
H3663 H 1.00728 0.4225 0.06862 0.0
H3664 H 0.03068 0.48654 0.07179 0.0
H3665 H 0.02759 0.4582 0.08098 0.0
H3666 H 0.04525 0.43924 0.96119 0.0
H3667 H 0.03735 0.41017 0.96928 0.0
H3668 H 0.03175 0.46946 0.96355 0.0
H3669 H 0.03328 0.49474 0.98467 0.0
C3670 C 0.97858 0.82512 0.21459 0.0
C3671 C 0.97899 0.80602 0.19621 0.0
C3672 C 0.93958 0.78161 0.20489 0.0
C3673 C 0.94026 0.79978 0.22471 0.0
N3674 N 0.96148 0.83764 0.25037 0.0
N3675 N 0.96152 0.76507 0.17532 0.0
C3676 C 0.96003 0.82128 0.23003 0.0
C3677 C 0.95989 0.78398 0.19173 0.0
N3678 N 0.9957 0.84711 0.21693 0.0
N3679 N 0.91918 0.76239 0.19826 0.0
H3680 H 0.97577 0.76634 0.16491 0.0
H3681 H 0.94973 0.74761 0.17318 0.0
H3682 H 0.90409 0.75997 0.20761 0.0
H3683 H 0.91632 0.74989 0.18244 0.0
H3684 H 0.99492 0.86264 0.22802 0.0
H3685 H 1.00985 0.85038 0.20635 0.0
H3686 H 0.9767 0.85227 0.2569 0.0
H3687 H 0.94807 0.83568 0.26185 0.0
C3688 C 0.54719 0.36567 0.10142 0.0
C3689 C 0.54603 0.37098 0.12674 0.0
C3690 C 0.54844 0.41353 0.12226 0.0
C3691 C 0.55157 0.40864 0.09739 0.0
N3692 N 0.55667 0.38099 0.06371 0.0
N3693 N 0.54848 0.4003 0.16215 0.0
C3694 C 0.55169 0.38494 0.08709 0.0
C3695 C 0.54737 0.39501 0.1374 0.0
N3696 N 0.54326 0.34205 0.09094 0.0
N3697 N 0.54612 0.4358 0.13129 0.0
H3698 H 0.54743 0.38718 0.17374 0.0
H3699 H 0.55221 0.41788 0.17148 0.0
H3700 H 0.54752 0.44998 0.12096 0.0
H3701 H 0.5411 0.43977 0.14838 0.0
H3702 H 0.54117 0.33654 0.07218 0.0
H3703 H 0.54018 0.32752 0.10088 0.0
H3704 H 0.55996 0.365 0.05604 0.0
H3705 H 0.55916 0.39437 0.05236 0.0
C3706 C 0.9153 0.32216 0.29557 0.0
C3707 C 0.92663 0.32252 0.31965 0.0
C3708 C 0.88687 0.32022 0.33437 0.0
C3709 C 0.87501 0.31734 0.30998 0.0
N3710 N 0.87792 0.31098 0.26688 0.0
N3711 N 0.92195 0.31768 0.36143 0.0
C3712 C 0.88927 0.31717 0.29045 0.0
C3713 C 0.91202 0.32038 0.33888 0.0
N3714 N 0.92948 0.32726 0.27758 0.0
N3715 N 0.87442 0.3239 0.35344 0.0
H3716 H 0.94008 0.31759 0.36545 0.0
H3717 H 0.91172 0.31333 0.37548 0.0
H3718 H 0.85638 0.32466 0.35102 0.0
H3719 H 0.88264 0.32865 0.37155 0.0
H3720 H 0.92273 0.33007 0.26038 0.0
H3721 H 0.94841 0.33085 0.28051 0.0
H3722 H 0.88694 0.3079 0.25205 0.0
H3723 H 0.85907 0.30654 0.26222 0.0
C3724 C 0.02648 0.64895 0.59535 0.0
C3725 C 0.03005 0.64919 0.62103 0.0
C3726 C 0.0434 0.61183 0.61428 0.0
C3727 C 0.03744 0.61025 0.58857 0.0
N3728 N 1.01727 0.62458 0.55534 0.0
N3729 N 0.03672 0.62759 0.65455 0.0
C3730 C 0.02724 0.62803 0.57931 0.0
C3731 C 0.03692 0.6296 0.63036 0.0
N3732 N 0.0234 0.66909 0.58612 0.0
N3733 N 0.05649 0.59736 0.62347 0.0
H3734 H 0.03167 0.63993 0.66676 0.0
H3735 H 0.03914 0.61242 0.6619 0.0
H3736 H 0.06277 0.58507 0.61245 0.0
H3737 H 0.06335 0.59939 0.64189 0.0
H3738 H 0.02339 0.67084 0.5677 0.0
H3739 H 0.02329 0.68499 0.59709 0.0
H3740 H 1.00741 0.63569 0.54829 0.0
H3741 H 1.01641 0.60916 0.54312 0.0
C3742 C 0.6878 0.82363 0.79199 0.0
C3743 C 0.68293 0.82421 0.81664 0.0
C3744 C 0.72272 0.81587 0.82773 0.0
C3745 C 0.7287 0.81771 0.80366 0.0
N3746 N 0.71801 0.82782 0.76396 0.0
N3747 N 0.69875 0.8259 0.85883 0.0
C3748 C 0.71148 0.82281 0.7861 0.0
C3749 C 0.70131 0.82181 0.83472 0.0
N3750 N 0.66949 0.82289 0.77391 0.0
N3751 N 0.73672 0.80703 0.84372 0.0
H3752 H 0.68373 0.83065 0.86476 0.0
H3753 H 0.71259 0.82701 0.87295 0.0
H3754 H 0.7516 0.8012 0.83904 0.0
H3755 H 0.73201 0.80291 0.86061 0.0
H3756 H 0.67092 0.81973 0.7554 0.0
H3757 H 0.65206 0.82322 0.77734 0.0
H3758 H 0.70742 0.83415 0.75131 0.0
H3759 H 0.73513 0.82793 0.75917 0.0
C3760 C 0.49497 0.55944 0.63724 0.0
C3761 C 0.51083 0.55426 0.65604 0.0
C3762 C 0.53906 0.54959 0.6266 0.0
C3763 C 0.52417 0.5566 0.60829 0.0
N3764 N 0.48958 0.57123 0.59686 0.0
N3765 N 0.5498 0.54828 0.66965 0.0
C3766 C 0.50253 0.56234 0.61382 0.0
C3767 C 0.53339 0.55041 0.65097 0.0
N3768 N 0.47229 0.56074 0.64155 0.0
N3769 N 0.55813 0.54114 0.62048 0.0
H3770 H 0.54634 0.5487 0.68769 0.0
H3771 H 0.56763 0.5482 0.66771 0.0
H3772 H 0.56315 0.5405 0.60303 0.0
H3773 H 0.56772 0.53284 0.63209 0.0
H3774 H 0.45884 0.56187 0.62803 0.0
H3775 H 0.46617 0.5588 0.65839 0.0
H3776 H 0.47512 0.57824 0.60047 0.0
H3777 H 0.49448 0.57336 0.57956 0.0
C3778 C 0.75312 0.20994 0.93764 0.0
C3779 C 0.76479 0.2246 0.96011 0.0
C3780 C 0.76426 0.26142 0.9426 0.0
C3781 C 0.75108 0.24662 0.92079 0.0
N3782 N 0.72819 0.20725 0.89907 0.0
N3783 N 0.77679 0.26372 0.98586 0.0
C3784 C 0.74387 0.22098 0.91887 0.0
C3785 C 0.76897 0.25022 0.9632 0.0
N3786 N 0.75207 0.18578 0.93377 0.0
N3787 N 0.77308 0.286 0.94333 0.0
H3788 H 0.78 0.25605 1.00153 0.0
H3789 H 0.77793 0.28216 0.98949 0.0
H3790 H 0.76952 0.29495 0.9287 0.0
H3791 H 0.78532 0.29725 0.95778 0.0
H3792 H 0.74599 0.17487 0.91684 0.0
H3793 H 0.75945 0.17708 0.94679 0.0
H3794 H 0.72043 0.18859 0.89785 0.0
H3795 H 0.72111 0.2149 0.88489 0.0
C3796 C 0.10999 0.54129 0.12151 0.0
C3797 C 0.11055 0.55633 0.14359 0.0
C3798 C 0.0767 0.56971 0.12549 0.0
C3799 C 0.07352 0.55155 0.10498 0.0
N3800 N 0.08517 0.51767 0.08481 0.0
N3801 N 0.09367 0.58366 0.16793 0.0
C3802 C 0.08978 0.53684 0.10316 0.0
C3803 C 0.09383 0.57041 0.14595 0.0
N3804 N 0.1288 0.53134 0.11812 0.0
N3805 N 0.06392 0.58667 0.12513 0.0
H3806 H 0.10626 0.58499 0.18332 0.0
H3807 H 0.08002 0.59194 0.1714 0.0
H3808 H 0.05165 0.58718 0.11014 0.0
H3809 H 0.06736 0.60176 0.13859 0.0
H3810 H 0.13053 0.52227 0.10138 0.0
H3811 H 0.14391 0.53425 0.13141 0.0
H3812 H 0.09502 0.50482 0.08413 0.0
H3813 H 0.07015 0.51335 0.07136 0.0
C3814 C 0.80081 0.84506 0.40177 0.0
C3815 C 0.80734 0.82946 0.41764 0.0
C3816 C 0.81128 0.80176 0.38202 0.0
C3817 C 0.80623 0.81817 0.36634 0.0
N3818 N 0.80095 0.85763 0.36166 0.0
N3819 N 0.82217 0.79481 0.42346 0.0
C3820 C 0.80232 0.84044 0.37636 0.0
C3821 C 0.81355 0.80831 0.40791 0.0
N3822 N 0.79243 0.86396 0.41091 0.0
N3823 N 0.81301 0.77953 0.37213 0.0
H3824 H 0.82359 0.79881 0.44241 0.0
H3825 H 0.82954 0.78074 0.41777 0.0
H3826 H 0.81199 0.77435 0.3534 0.0
H3827 H 0.81377 0.76558 0.38227 0.0
H3828 H 0.78476 0.87431 0.39998 0.0
H3829 H 0.79122 0.86811 0.42939 0.0
H3830 H 0.80078 0.87525 0.36823 0.0
H3831 H 0.80233 0.85507 0.34307 0.0
C3832 C 0.51443 0.52501 0.92106 0.0
C3833 C 0.52288 0.54657 0.91066 0.0
C3834 C 0.54277 0.56847 0.95129 0.0
C3835 C 0.53536 0.54662 0.96161 0.0
N3836 N 0.51697 0.50329 0.95575 0.0
N3837 N 0.54909 0.58736 0.91482 0.0
C3838 C 0.52225 0.5246 0.94624 0.0
C3839 C 0.53823 0.56786 0.92551 0.0
N3840 N 0.49786 0.50529 0.90719 0.0
N3841 N 0.55376 0.59002 0.96617 0.0
H3842 H 0.54626 0.58753 0.89603 0.0
H3843 H 0.56257 0.60245 0.92414 0.0
H3844 H 0.55876 0.59126 0.98487 0.0
H3845 H 0.55658 0.60691 0.96027 0.0
H3846 H 0.48874 0.49003 0.91423 0.0
H3847 H 0.49174 0.50484 0.88879 0.0
H3848 H 0.51003 0.48626 0.94511 0.0
H3849 H 0.52103 0.5024 0.97425 0.0
C3850 C 0.82347 0.28012 0.1852 0.0
C3851 C 0.8166 0.25435 0.18094 0.0
C3852 C 0.79788 0.25273 0.21798 0.0
C3853 C 0.80738 0.27823 0.22403 0.0
N3854 N 0.83228 0.3163 0.21532 0.0
N3855 N 0.80298 0.21618 0.19622 0.0
C3856 C 0.82102 0.2921 0.20817 0.0
C3857 C 0.80573 0.24067 0.19837 0.0
N3858 N 0.8316 0.29303 0.16719 0.0
N3859 N 0.78047 0.24018 0.23025 0.0
H3860 H 0.80907 0.2067 0.18218 0.0
H3861 H 0.79703 0.20589 0.20975 0.0
H3862 H 0.77282 0.24886 0.24355 0.0
H3863 H 0.77157 0.22174 0.22516 0.0
H3864 H 0.83434 0.31175 0.16841 0.0
H3865 H 0.83401 0.28474 0.15031 0.0
H3866 H 0.84449 0.32662 0.20545 0.0
H3867 H 0.83088 0.32566 0.23204 0.0
C3868 C 0.14701 0.60851 0.3865 0.0
C3869 C 0.13476 0.59303 0.36467 0.0
C3870 C 0.09677 0.58333 0.38226 0.0
C3871 C 0.10853 0.60022 0.40335 0.0
N3872 N 0.14329 0.63224 0.42405 0.0
N3873 N 0.09712 0.5699 0.33954 0.0
C3874 C 0.13322 0.6139 0.405 0.0
C3875 C 0.10934 0.5817 0.36185 0.0
N3876 N 0.17187 0.61719 0.38998 0.0
N3877 N 0.07403 0.56808 0.38208 0.0
H3878 H 0.10567 0.56856 0.32401 0.0
H3879 H 0.07819 0.56345 0.3359 0.0
H3880 H 0.06414 0.56859 0.39672 0.0
H3881 H 0.06582 0.55353 0.36826 0.0
H3882 H 0.18197 0.62637 0.40657 0.0
H3883 H 0.18265 0.61347 0.37689 0.0
H3884 H 0.16045 0.64443 0.42497 0.0
H3885 H 0.13361 0.63667 0.43793 0.0
C3886 C 0.81308 0.85419 0.69144 0.0
C3887 C 0.79516 0.84063 0.67172 0.0
C3888 C 0.773 0.81732 0.70072 0.0
C3889 C 0.79256 0.82858 0.71982 0.0
N3890 N 0.83333 0.85524 0.73211 0.0
N3891 N 0.75961 0.80696 0.65706 0.0
C3892 C 0.81311 0.8465 0.71492 0.0
C3893 C 0.7755 0.82158 0.67624 0.0
N3894 N 0.82979 0.87482 0.68791 0.0
N3895 N 0.75164 0.80317 0.70609 0.0
H3896 H 0.76081 0.80947 0.63893 0.0
H3897 H 0.74656 0.79113 0.65894 0.0
H3898 H 0.74884 0.80029 0.72385 0.0
H3899 H 0.7359 0.79639 0.69342 0.0
H3900 H 0.84156 0.88694 0.70215 0.0
H3901 H 0.83039 0.88104 0.67106 0.0
H3902 H 0.8498 0.86614 0.72853 0.0
H3903 H 0.83455 0.84982 0.74929 0.0
C3904 C 0.68582 0.50155 0.54256 0.0
C3905 C 0.71072 0.50833 0.53944 0.0
C3906 C 0.71137 0.55122 0.54278 0.0
C3907 C 0.68714 0.54465 0.54807 0.0
N3908 N 0.65139 0.51439 0.55501 0.0
N3909 N 0.74812 0.539 0.53779 0.0
C3910 C 0.67432 0.52001 0.54845 0.0
C3911 C 0.72377 0.53302 0.53981 0.0
N3912 N 0.67314 0.47747 0.53945 0.0
N3913 N 0.72221 0.57475 0.54009 0.0
H3914 H 0.75761 0.52608 0.53435 0.0
H3915 H 0.75934 0.55675 0.54078 0.0
H3916 H 0.71378 0.58865 0.54284 0.0
H3917 H 0.73884 0.58032 0.53361 0.0
H3918 H 0.65431 0.47127 0.5387 0.0
H3919 H 0.68125 0.46344 0.53583 0.0
H3920 H 0.64222 0.49723 0.55842 0.0
H3921 H 0.64188 0.52727 0.5586 0.0
C3922 C 0.15583 0.10091 0.51542 0.0
C3923 C 0.16252 0.12558 0.52661 0.0
C3924 C 0.12489 0.11825 0.54509 0.0
C3925 C 0.11702 0.0943 0.53196 0.0
N3926 N 0.12307 0.06402 0.50133 0.0
N3927 N 0.15131 0.15906 0.54794 0.0
C3928 C 0.13198 0.08587 0.51624 0.0
C3929 C 0.14641 0.13465 0.54023 0.0
N3930 N 0.17246 0.09166 0.50463 0.0
N3931 N 0.11233 0.12506 0.56295 0.0
H3932 H 0.16676 0.17176 0.54446 0.0
H3933 H 0.13892 0.16696 0.55568 0.0
H3934 H 0.0969 0.11332 0.56768 0.0
H3935 H 0.11862 0.14146 0.57479 0.0
H3936 H 0.16953 0.0732 0.49853 0.0
H3937 H 0.19002 0.10216 0.50353 0.0
H3938 H 0.13213 0.05815 0.4876 0.0
H3939 H 0.10565 0.0526 0.50126 0.0
C3940 C 0.19611 0.94149 0.78093 0.0
C3941 C 0.20651 0.96681 0.7888 0.0
C3942 C 0.24687 0.96005 0.79701 0.0
C3943 C 0.23692 0.93524 0.78668 0.0
N3944 N 0.20277 0.90316 0.76484 0.0
N3945 N 0.24251 1.0009 0.79958 0.0
C3946 C 0.2117 0.92616 0.77752 0.0
C3947 C 0.23211 0.97631 0.79553 0.0
N3948 N 0.17135 0.93195 0.77751 0.0
N3949 N 0.2702 0.96797 0.80896 0.0
H3950 H 0.23244 0.01348 0.79815 0.0
H3951 H 0.26128 1.00878 0.802 0.0
H3952 H 0.28152 0.95657 0.81077 0.0
H3953 H 0.27752 0.98524 0.81908 0.0
H3954 H 0.1628 0.91333 0.77424 0.0
H3955 H 0.15935 0.94253 0.78015 0.0
H3956 H 0.18512 0.89648 0.7555 0.0
H3957 H 0.21364 0.89146 0.76179 0.0
C3958 C 0.4332 0.01484 0.03413 0.0
C3959 C 0.42092 0.02035 0.013 0.0
C3960 C 0.45986 0.03838 0.99958 0.0
C3961 C 0.47214 0.03512 0.02193 0.0
N3962 N 0.46995 0.02544 0.06304 0.0
N3963 N 0.4221 0.04153 0.97813 0.0
C3964 C 0.45867 0.02497 0.04003 0.0
C3965 C 0.43413 0.03358 0.99656 0.0
N3966 N 0.42084 0.9989 0.04793 0.0
N3967 N 0.47242 0.04436 0.9806 0.0
H3968 H 0.40317 0.03818 0.97545 0.0
H3969 H 0.43103 0.05331 0.96703 0.0
H3970 H 0.49106 0.04634 0.98131 0.0
H3971 H 0.46393 0.04467 0.96322 0.0
H3972 H 0.42956 0.99222 0.06184 0.0
H3973 H 0.40218 0.99041 0.04408 0.0
H3974 H 0.46041 0.02069 0.07748 0.0
H3975 H 0.48861 0.03282 0.06851 0.0
C3976 C 0.8151 0.62732 0.79042 0.0
C3977 C 0.83985 0.64143 0.79553 0.0
C3978 C 0.82862 0.67711 0.78423 0.0
C3979 C 0.8037 0.66359 0.78137 0.0
N3980 N 0.77263 0.62719 0.78447 0.0
N3981 N 0.87036 0.68001 0.8003 0.0
C3982 C 0.79674 0.63905 0.78523 0.0
C3983 C 0.84671 0.66642 0.79322 0.0
N3984 N 0.80928 0.60262 0.78969 0.0
N3985 N 0.83496 0.69997 0.77791 0.0
H3986 H 0.88415 0.67262 0.80677 0.0
H3987 H 0.87604 0.69887 0.80156 0.0
H3988 H 0.82222 0.70876 0.77181 0.0
H3989 H 0.85282 0.70958 0.7769 0.0
H3990 H 0.7919 0.5911 0.78347 0.0
H3991 H 0.82221 0.59327 0.79342 0.0
H3992 H 0.76654 0.6102 0.78993 0.0
H3993 H 0.75865 0.63509 0.78001 0.0
C3994 C 0.90588 0.65247 0.04901 0.0
C3995 C 0.88198 0.64402 0.03586 0.0
C3996 C 0.88879 0.60434 0.02341 0.0
C3997 C 0.91147 0.61184 0.03892 0.0
N3998 N 0.94048 0.64195 0.06903 0.0
N3999 N 0.84912 0.61086 0.01349 0.0
C4000 C 0.91979 0.63567 0.05236 0.0
C4001 C 0.87302 0.61967 0.02376 0.0
N4002 N 0.91546 0.67666 0.05779 0.0
N4003 N 0.8826 0.58278 0.00793 0.0
H4004 H 0.83687 0.62141 0.01346 0.0
H4005 H 0.84089 0.59255 0.00685 0.0
H4006 H 0.89376 0.57111 0.00713 0.0
H4007 H 0.86753 0.57751 0.99436 0.0
H4008 H 0.93364 0.68438 0.06528 0.0
H4009 H 0.90577 0.68947 0.05565 0.0
H4010 H 0.94598 0.65807 0.08131 0.0
H4011 H 0.95121 0.6302 0.07199 0.0
C4012 C 0.21537 0.20419 0.78982 0.0
C4013 C 0.22549 0.1872 0.80053 0.0
C4014 C 0.26563 0.21728 0.80877 0.0
C4015 C 0.25598 0.23325 0.79572 0.0
N4016 N 0.22274 0.23975 0.76945 0.0
N4017 N 0.26088 0.17593 0.81686 0.0
C4018 C 0.23112 0.22613 0.78506 0.0
C4019 C 0.25083 0.19327 0.80907 0.0
N4020 N 0.19063 0.19967 0.78478 0.0
N4021 N 0.28848 0.22535 0.82182 0.0
H4022 H 0.25059 0.15823 0.81754 0.0
H4023 H 0.27961 0.17849 0.82073 0.0
H4024 H 0.29972 0.24292 0.8225 0.0
H4025 H 0.29546 0.21538 0.83375 0.0
H4026 H 0.18217 0.21257 0.77945 0.0
H4027 H 0.17843 0.18387 0.78817 0.0
H4028 H 0.20547 0.23411 0.75919 0.0
H4029 H 0.23384 0.25553 0.76477 0.0
C4030 C 0.29768 0.90975 0.29386 0.0
C4031 C 0.3131 0.92245 0.31526 0.0
C4032 C 0.31716 0.88454 0.32845 0.0
C4033 C 0.304 0.87191 0.30551 0.0
N4034 N 0.28328 0.87253 0.2654 0.0
N4035 N 0.33238 0.92299 0.3558 0.0
C4036 C 0.29432 0.88444 0.28806 0.0
C4037 C 0.32095 0.91008 0.33364 0.0
N4038 N 0.28639 0.9222 0.2792 0.0
N4039 N 0.32802 0.87257 0.34412 0.0
H4040 H 0.33567 0.94179 0.35979 0.0
H4041 H 0.33683 0.91517 0.37093 0.0
H4042 H 0.327 0.85416 0.34046 0.0
H4043 H 0.3397 0.88101 0.36008 0.0
H4044 H 0.27301 0.91392 0.26437 0.0
H4045 H 0.28879 0.94089 0.28345 0.0
H4046 H 0.27865 0.88122 0.251 0.0
H4047 H 0.27993 0.85392 0.26024 0.0
C4048 C 0.55755 0.45348 0.5793 0.0
C4049 C 0.57074 0.44032 0.56533 0.0
C4050 C 0.57931 0.47416 0.54042 0.0
C4051 C 0.56404 0.48591 0.55279 0.0
N4052 N 0.53585 0.48459 0.58205 0.0
N4053 N 0.59147 0.43713 0.53013 0.0
C4054 C 0.55241 0.4749 0.57167 0.0
C4055 C 0.58101 0.45052 0.5453 0.0
N4056 N 0.55083 0.44619 0.60066 0.0
N4057 N 0.59262 0.48582 0.5242 0.0
H4058 H 0.59268 0.41983 0.53272 0.0
H4059 H 0.59705 0.44219 0.51384 0.0
H4060 H 0.59144 0.50268 0.51991 0.0
H4061 H 0.60621 0.47984 0.51657 0.0
H4062 H 0.54359 0.45631 0.61308 0.0
H4063 H 0.55472 0.43119 0.60725 0.0
H4064 H 0.52455 0.47601 0.59374 0.0
H4065 H 0.53198 0.50035 0.57745 0.0
C4066 C 0.38841 0.78121 0.35067 0.0
C4067 C 0.38853 0.7864 0.37624 0.0
C4068 C 0.35094 0.79935 0.36818 0.0
C4069 C 0.34958 0.79183 0.34267 0.0
N4070 N 0.36461 0.77036 0.31053 0.0
N4071 N 0.36778 0.79701 0.40951 0.0
C4072 C 0.36767 0.78131 0.3342 0.0
C4073 C 0.36914 0.7945 0.38504 0.0
N4074 N 0.40859 0.77711 0.3419 0.0
N4075 N 0.33557 0.81212 0.37627 0.0
H4076 H 0.38058 0.79346 0.42226 0.0
H4077 H 0.35297 0.8006 0.41699 0.0
H4078 H 0.3223 0.81623 0.36457 0.0
H4079 H 0.33725 0.82034 0.39426 0.0
H4080 H 0.41066 0.77604 0.32347 0.0
H4081 H 0.42431 0.77717 0.35317 0.0
H4082 H 0.37574 0.76007 0.30408 0.0
H4083 H 0.34951 0.76928 0.29794 0.0
C4084 C 0.07305 0.66871 0.08369 0.0
C4085 C 0.06481 0.68115 0.06526 0.0
C4086 C 0.04865 0.64146 0.03816 0.0
C4087 C 0.05865 0.62947 0.05589 0.0
N4088 N 0.08464 0.63285 0.09366 0.0
N4089 N 0.04885 0.67951 0.02311 0.0
C4090 C 0.07217 0.6435 0.07806 0.0
C4091 C 0.05367 0.6675 0.04199 0.0
N4092 N 0.08062 0.68061 0.10703 0.0
N4093 N 0.03406 0.62792 0.01765 0.0
H4094 H 0.05276 0.6984 0.02496 0.0
H4095 H 0.04316 0.67101 1.00513 0.0
H4096 H 0.0308 0.60912 0.01373 0.0
H4097 H 0.02382 0.63504 1.00542 0.0
H4098 H 0.08442 0.67196 0.12178 0.0
H4099 H 0.08082 0.69866 0.11217 0.0
H4100 H 0.09689 0.64255 0.10888 0.0
H4101 H 0.08444 0.61461 0.09013 0.0
C4102 C 0.13887 0.30504 0.89196 0.0
C4103 C 0.11469 0.30191 0.88059 0.0
C4104 C 0.12912 0.30309 0.84059 0.0
C4105 C 0.15355 0.30836 0.85218 0.0
N4106 N 0.18221 0.31786 0.88919 0.0
N4107 N 0.08718 0.30186 0.84477 0.0
C4108 C 0.15858 0.31027 0.87798 0.0
C4109 C 0.10993 0.30202 0.85507 0.0
N4110 N 0.14291 0.30232 0.91597 0.0
N4111 N 0.12415 0.29825 0.81568 0.0
H4112 H 0.07262 0.30094 0.85472 0.0
H4113 H 0.08321 0.3047 0.82685 0.0
H4114 H 0.13765 0.29872 0.80443 0.0
H4115 H 0.10655 0.29169 0.8062 0.0
H4116 H 0.15965 0.30169 0.92466 0.0
H4117 H 0.129 0.29875 0.92682 0.0
H4118 H 0.18709 0.32218 0.90804 0.0
H4119 H 0.19708 0.32173 0.87959 0.0
C4120 C 0.54681 0.7373 0.974 0.0
C4121 C 0.5466 0.73183 0.94845 0.0
C4122 C 0.53867 0.68834 0.95183 0.0
C4123 C 0.54079 0.69404 0.97763 0.0
N4124 N 0.55094 0.72423 0.01371 0.0
N4125 N 0.54558 0.70286 0.91321 0.0
C4126 C 0.54592 0.71862 0.98884 0.0
C4127 C 0.54349 0.70753 0.93741 0.0
N4128 N 0.54741 0.7603 0.98403 0.0
N4129 N 0.53119 0.66455 0.94105 0.0
H4130 H 0.54835 0.71632 0.90195 0.0
H4131 H 0.54632 0.68606 0.90466 0.0
H4132 H 0.52747 0.65004 0.95097 0.0
H4133 H 0.52677 0.65914 0.92227 0.0
H4134 H 0.5447 0.76482 1.00197 0.0
H4135 H 0.54877 0.77463 0.9739 0.0
H4136 H 0.55741 0.74195 0.02291 0.0
H4137 H 0.55069 0.71113 0.02522 0.0
C4138 C 0.17404 0.77092 0.78237 0.0
C4139 C 0.16524 0.7817 0.76284 0.0
C4140 C 0.20762 0.79731 0.75428 0.0
C4141 C 0.21662 0.7872 0.77427 0.0
N4142 N 0.20831 0.76228 0.80596 0.0
N4143 N 0.17365 0.80726 0.73177 0.0
C4144 C 0.19974 0.77336 0.78789 0.0
C4145 C 0.18208 0.79544 0.74923 0.0
N4146 N 0.15774 0.75906 0.79619 0.0
N4147 N 0.22341 0.80748 0.73912 0.0
H4148 H 0.15517 0.80557 0.72688 0.0
H4149 H 0.18485 0.81999 0.72313 0.0
H4150 H 0.24197 0.80873 0.7418 0.0
H4151 H 0.21803 0.81285 0.72272 0.0
H4152 H 0.16247 0.75244 0.81204 0.0
H4153 H 0.13901 0.75668 0.79242 0.0
H4154 H 0.19737 0.75015 0.81535 0.0
H4155 H 0.22679 0.76442 0.81121 0.0
C4156 C 0.04974 0.45302 0.47454 0.0
C4157 C 0.06369 0.45697 0.45501 0.0
C4158 C 0.0731 0.50129 0.46781 0.0
C4159 C 0.05759 0.49731 0.48613 0.0
N4160 N 0.02737 0.46939 0.50371 0.0
N4161 N 0.08551 0.48482 0.43058 0.0
C4162 C 0.04489 0.47315 0.48861 0.0
C4163 C 0.07447 0.48113 0.45094 0.0
N4164 N 0.04166 0.43003 0.48012 0.0
N4165 N 0.08736 0.52422 0.46716 0.0
H4166 H 0.08718 0.47059 0.41809 0.0
H4167 H 0.0913 0.50181 0.42504 0.0
H4168 H 0.08703 0.5393 0.47927 0.0
H4169 H 0.10096 0.52803 0.45603 0.0
H4170 H 0.0338 0.42627 0.49577 0.0
H4171 H 0.04473 0.41484 0.47025 0.0
H4172 H 1.01564 0.45237 0.50438 0.0
H4173 H 0.02289 0.48357 0.51389 0.0
C4174 C 0.40202 0.27455 0.28161 0.0
C4175 C 0.4103 0.28126 0.25942 0.0
C4176 C 0.37406 0.2968 0.25136 0.0
C4177 C 0.36496 0.2886 0.27268 0.0
N4178 N 0.36865 0.26615 0.30601 0.0
N4179 N 0.4016 0.29509 0.22117 0.0
C4180 C 0.37856 0.27653 0.28722 0.0
C4181 C 0.39555 0.2914 0.2438 0.0
N4182 N 0.417 0.26705 0.29785 0.0
N4183 N 0.36262 0.31062 0.2387 0.0
H4184 H 0.41695 0.29137 0.21494 0.0
H4185 H 0.39037 0.2998 0.20776 0.0
H4186 H 0.34693 0.31481 0.24341 0.0
H4187 H 0.36972 0.31964 0.22479 0.0
H4188 H 0.41349 0.26441 0.31544 0.0
H4189 H 0.43403 0.26531 0.29444 0.0
H4190 H 0.37607 0.25475 0.31569 0.0
H4191 H 0.35179 0.2673 0.31063 0.0
C4192 C 0.568 0.53066 0.42565 0.0
C4193 C 0.58655 0.55073 0.42101 0.0
C4194 C 0.59054 0.56979 0.46373 0.0
C4195 C 0.57336 0.54885 0.46885 0.0
N4196 N 0.54978 0.5072 0.45579 0.0
N4197 N 0.6192 0.58682 0.43702 0.0
C4198 C 0.56326 0.52865 0.45009 0.0
C4199 C 0.59896 0.56951 0.4405 0.0
N4200 N 0.55425 0.51393 0.40659 0.0
N4201 N 0.59783 0.59051 0.48046 0.0
H4202 H 0.62601 0.58719 0.42037 0.0
H4203 H 0.63053 0.5994 0.4512 0.0
H4204 H 0.59165 0.59188 0.49737 0.0
H4205 H 0.60821 0.60708 0.47668 0.0
H4206 H 0.53876 0.50044 0.40851 0.0
H4207 H 0.55703 0.51482 0.38847 0.0
H4208 H 0.54396 0.49112 0.44344 0.0
H4209 H 0.54652 0.50483 0.47355 0.0
C4210 C 0.35076 0.89553 0.1424 0.0
C4211 C 0.34105 0.88296 0.11857 0.0
C4212 C 0.34137 0.84412 0.13188 0.0
C4213 C 0.35108 0.85673 0.15568 0.0
N4214 N 0.37093 0.8942 0.18247 0.0
N4215 N 0.33285 0.8468 0.08889 0.0
C4216 C 0.35786 0.88244 0.1605 0.0
C4217 C 0.33828 0.85768 0.11273 0.0
N4218 N 0.35187 0.91958 0.14806 0.0
N4219 N 0.33399 0.81926 0.12791 0.0
H4220 H 0.33053 0.85634 0.07441 0.0
H4221 H 0.3328 0.8289 0.0833 0.0
H4222 H 0.33662 0.80872 0.14143 0.0
H4223 H 0.32401 0.80908 0.11165 0.0
H4224 H 0.3561 0.92894 0.1658 0.0
H4225 H 0.34681 0.92986 0.13526 0.0
H4226 H 0.37834 0.91298 0.1863 0.0
H4227 H 0.37633 0.88493 0.19611 0.0
C4228 C 0.9782 0.5421 0.94792 0.0
C4229 C 0.9887 0.55524 0.92994 0.0
C4230 C 0.02789 0.56934 0.95639 0.0
C4231 C 0.01784 0.55405 0.97306 0.0
N4232 N 0.98567 0.52069 0.98129 0.0
N4233 N 0.02453 0.57753 0.91468 0.0
C4234 C 0.99366 0.5388 0.96777 0.0
C4235 C 1.01389 0.56778 0.93341 0.0
N4236 N 0.95344 0.53347 0.94652 0.0
N4237 N 0.05016 0.58601 0.96281 0.0
H4238 H 1.01485 0.57653 0.89749 0.0
H4239 H 0.0433 0.58472 0.91557 0.0
H4240 H 0.06079 0.58793 0.97967 0.0
H4241 H 0.05712 0.59929 0.95223 0.0
H4242 H 0.945 0.52581 0.96054 0.0
H4243 H 0.94128 0.53628 0.9326 0.0
H4244 H 0.96879 0.50774 0.97672 0.0
H4245 H 0.99694 0.51697 0.99542 0.0
C4246 C 0.30492 0.30173 0.67256 0.0
C4247 C 0.28921 0.27952 0.65977 0.0
C4248 C 0.27269 0.27031 0.69783 0.0
C4249 C 0.29026 0.29134 0.71111 0.0
N4250 N 0.32603 0.32488 0.71131 0.0
N4251 N 0.26065 0.24075 0.66081 0.0
C4252 C 0.30721 0.30642 0.69852 0.0
C4253 C 0.27356 0.26339 0.67252 0.0
N4254 N 0.31725 0.31872 0.65977 0.0
N4255 N 0.25553 0.25647 0.70949 0.0
H4256 H 0.26099 0.23481 0.64248 0.0
H4257 H 0.25119 0.22704 0.66967 0.0
H4258 H 0.25554 0.25932 0.72829 0.0
H4259 H 0.2404 0.24294 0.70033 0.0
H4260 H 0.32688 0.33635 0.66774 0.0
H4261 H 0.31591 0.31598 0.64077 0.0
H4262 H 0.34057 0.3344 0.7034 0.0
H4263 H 0.32826 0.32964 0.73018 0.0
C4264 C 0.59066 0.55188 0.15072 0.0
C4265 C 0.57706 0.56144 0.16725 0.0
C4266 C 0.55075 0.56851 0.13254 0.0
C4267 C 0.56545 0.56057 0.11613 0.0
N4268 N 0.60206 0.54888 0.10998 0.0
N4269 N 0.54644 0.5821 0.17444 0.0
C4270 C 0.58613 0.55338 0.12535 0.0
C4271 C 0.55777 0.57074 0.15829 0.0
N4272 N 0.60755 0.54078 0.15921 0.0
N4273 N 0.52944 0.57283 0.12353 0.0
H4274 H 0.55068 0.58347 0.19332 0.0
H4275 H 0.53417 0.59169 0.16923 0.0
H4276 H 0.52364 0.57133 0.1049 0.0
H4277 H 0.51655 0.57599 0.13436 0.0
H4278 H 0.61605 0.53095 0.14787 0.0
H4279 H 0.6117 0.53968 0.17765 0.0
H4280 H 0.61885 0.54624 0.11595 0.0
H4281 H 0.5996 0.55001 0.09138 0.0
C4282 C 0.30105 0.83791 0.90374 0.0
C4283 C 0.27776 0.8399 0.90841 0.0
C4284 C 0.2593 0.81898 0.86767 0.0
C4285 C 0.28263 0.81724 0.86286 0.0
N4286 N 0.32396 0.8185 0.87774 0.0
N4287 N 0.23412 0.827 0.89824 0.0
C4288 C 0.30296 0.82451 0.88146 0.0
C4289 C 0.25662 0.82844 0.8915 0.0
N4290 N 0.32143 0.84999 0.9199 0.0
N4291 N 0.24021 0.81332 0.84918 0.0
H4292 H 0.23184 0.83401 0.91571 0.0
H4293 H 0.2179 0.81697 0.88743 0.0
H4294 H 0.24157 0.80678 0.83132 0.0
H4295 H 0.22355 0.81684 0.85106 0.0
H4296 H 0.3391 0.85168 0.91601 0.0
H4297 H 0.32082 0.85967 0.93673 0.0
H4298 H 0.33869 0.8214 0.89141 0.0
H4299 H 0.32577 0.80847 0.86152 0.0
C4300 C 0.98913 0.50696 0.7143 0.0
C4301 C 0.96627 0.51161 0.70874 0.0
C4302 C 0.96716 0.50133 0.66519 0.0
C4303 C 0.99174 0.50113 0.67067 0.0
N4304 N 0.02689 0.50429 0.7 0.0
N4305 N 0.93343 0.51429 0.67929 0.0
C4306 C 1.00287 0.50367 0.69512 0.0
C4307 C 0.95502 0.50873 0.68428 0.0
N4308 N 0.99752 0.50558 0.73785 0.0
N4309 N 0.95562 0.49456 0.64169 0.0
H4310 H 0.92386 0.51964 0.69284 0.0
H4311 H 0.92578 0.51524 0.66176 0.0
H4312 H 0.96423 0.489 0.62736 0.0
H4313 H 0.93705 0.49225 0.63678 0.0
H4314 H 1.01295 0.49994 0.74272 0.0
H4315 H 0.98782 0.50801 0.75234 0.0
H4316 H 0.03681 0.50908 0.71744 0.0
H4317 H 0.03739 0.50135 0.68637 0.0
C4318 C 0.27678 0.25632 0.38633 0.0
C4319 C 0.29753 0.265 0.40461 0.0
C4320 C 0.32155 0.28364 0.37409 0.0
C4321 C 0.30015 0.27738 0.3567 0.0
N4322 N 0.25647 0.26098 0.34749 0.0
N4323 N 0.33896 0.2898 0.41676 0.0
C4324 C 0.27752 0.26447 0.36311 0.0
C4325 C 0.31978 0.27937 0.39869 0.0
N4326 N 0.25656 0.23964 0.39088 0.0
N4327 N 0.34371 0.29312 0.36692 0.0
H4328 H 0.33832 0.28736 0.43498 0.0
H4329 H 0.35474 0.30252 0.41414 0.0
H4330 H 0.34563 0.29632 0.34907 0.0
H4331 H 0.36025 0.2957 0.37794 0.0
H4332 H 0.24188 0.23069 0.37748 0.0
H4333 H 0.25535 0.23304 0.40751 0.0
H4334 H 0.23918 0.2544 0.35234 0.0
H4335 H 0.25612 0.26653 0.33032 0.0
C4336 C 0.37245 0.56964 0.54294 0.0
C4337 C 0.38699 0.59419 0.5478 0.0
C4338 C 0.4228 0.58182 0.53803 0.0
C4339 C 0.40871 0.55715 0.53509 0.0
N4340 N 0.37155 0.52703 0.53815 0.0
N4341 N 0.42636 0.62372 0.55399 0.0
C4342 C 0.38392 0.55087 0.53858 0.0
C4343 C 0.41231 0.60032 0.54652 0.0
N4344 N 0.34763 0.56438 0.54149 0.0
N4345 N 0.44595 0.58758 0.53201 0.0
H4346 H 0.41918 0.6378 0.56029 0.0
H4347 H 0.44533 0.62884 0.55592 0.0
H4348 H 0.45455 0.57456 0.52602 0.0
H4349 H 0.456 0.60526 0.53109 0.0
H4350 H 0.33593 0.54708 0.53539 0.0
H4351 H 0.33846 0.57764 0.54452 0.0
H4352 H 0.35423 0.5215 0.54324 0.0
H4353 H 0.37936 0.51279 0.53447 0.0
C4354 C 0.94507 0.99835 0.57406 0.0
C4355 C 0.93052 0.98243 0.55344 0.0
C4356 C 0.96012 1.00013 0.52726 0.0
C4357 C 0.97603 0.01389 0.54824 0.0
N4358 N 0.9855 0.02281 0.5922 0.0
N4359 N 0.92628 0.9649 0.51112 0.0
C4360 C 0.969 0.01224 0.57184 0.0
C4361 C 0.93862 0.98241 0.5302 0.0
N4362 N 0.93586 1.00061 0.5956 0.0
N4363 N 0.96512 1.00458 0.50448 0.0
H4364 H 0.91065 0.95129 0.51258 0.0
H4365 H 0.93283 0.96246 0.49452 0.0
H4366 H 0.98027 0.01805 0.50162 0.0
H4367 H 0.95299 0.99674 0.4886 0.0
H4368 H 0.94465 0.01381 0.61047 0.0
H4369 H 0.91843 0.99069 0.5979 0.0
H4370 H 0.98216 0.02007 0.60983 0.0
H4371 H 1.0034 0.03247 0.59138 0.0
C4372 C 0.89134 0.15853 0.28101 0.0
C4373 C 0.88627 0.13703 0.29199 0.0
C4374 C 0.84997 0.14619 0.30569 0.0
C4375 C 0.85626 0.16873 0.29665 0.0
N4376 N 0.88512 0.19842 0.27945 0.0
N4377 N 0.86368 0.11278 0.31891 0.0
C4378 C 0.8776 0.17551 0.28536 0.0
C4379 C 0.8664 0.13154 0.30553 0.0
N4380 N 0.90869 0.16231 0.26573 0.0
N4381 N 0.82789 0.13834 0.31363 0.0
H4382 H 0.87552 0.10179 0.31953 0.0
H4383 H 0.8511 0.10954 0.33117 0.0
H4384 H 0.81523 0.14844 0.31387 0.0
H4385 H 0.82119 0.12091 0.31788 0.0
H4386 H 0.91138 0.17629 0.25513 0.0
H4387 H 0.91907 0.15027 0.26204 0.0
H4388 H 0.90188 0.20531 0.2736 0.0
H4389 H 0.87553 0.21135 0.28238 0.0
C4390 C 0.6608 0.10155 0.07559 0.0
C4391 C 0.6749 0.08744 0.06467 0.0
C4392 C 0.63798 0.05887 0.04176 0.0
C4393 C 0.62391 0.072 0.05402 0.0
N4394 N 0.62139 0.10174 0.08716 0.0
N4395 N 0.67691 0.0499 0.04199 0.0
C4396 C 0.63515 0.09207 0.07242 0.0
C4397 C 0.66344 0.06509 0.0493 0.0
N4398 N 0.67164 0.12452 0.08773 0.0
N4399 N 0.6273 0.04148 0.02206 0.0
H4400 H 0.69566 0.05394 0.04747 0.0
H4401 H 0.66916 0.03239 0.03254 0.0
H4402 H 0.60882 0.03727 0.01531 0.0
H4403 H 0.63713 0.03297 0.011 0.0
H4404 H 0.66178 0.13641 0.09361 0.0
H4405 H 0.69038 0.13263 0.08999 0.0
H4406 H 0.62894 0.115 0.10234 0.0
H4407 H 0.60252 0.09472 0.08573 0.0
C4408 C 0.24658 0.43865 0.28775 0.0
C4409 C 0.25294 0.46389 0.28663 0.0
C4410 C 0.2962 0.46726 0.29767 0.0
C4411 C 0.28973 0.44228 0.29996 0.0
N4412 N 0.25915 0.40464 0.301 0.0
N4413 N 0.2827 0.50326 0.2936 0.0
C4414 C 0.26499 0.42807 0.29615 0.0
C4415 C 0.27746 0.47854 0.29254 0.0
N4416 N 0.2231 0.4248 0.28018 0.0
N4417 N 0.32024 0.47991 0.29961 0.0
H4418 H 0.2696 0.51223 0.28916 0.0
H4419 H 0.29974 0.51516 0.30047 0.0
H4420 H 0.33445 0.47229 0.30404 0.0
H4421 H 0.32621 0.49741 0.29531 0.0
H4422 H 0.21779 0.40588 0.27788 0.0
H4423 H 0.20902 0.43218 0.27458 0.0
H4424 H 0.24138 0.39418 0.30107 0.0
H4425 H 0.27218 0.39604 0.30679 0.0
C4426 C 0.1883 0.45296 0.04826 0.0
C4427 C 0.21015 0.45923 0.03774 0.0
C4428 C 0.19917 0.4944 0.02401 0.0
C4429 C 0.17884 0.48976 0.03701 0.0
N4430 N 0.15543 0.46641 0.06401 0.0
N4431 N 0.23821 0.48746 0.01823 0.0
C4432 C 0.17368 0.46943 0.04973 0.0
C4433 C 0.21606 0.48034 0.02622 0.0
N4434 N 0.18131 0.43101 0.05638 0.0
N4435 N 0.20197 0.51189 0.00907 0.0
H4436 H 0.25102 0.47755 0.01928 0.0
H4437 H 0.24472 0.50414 0.01228 0.0
H4438 H 0.18992 0.52253 0.00696 0.0
H4439 H 0.21492 0.5144 0.99713 0.0
H4440 H 0.16435 0.42423 0.06187 0.0
H4441 H 0.19164 0.41855 0.05563 0.0
H4442 H 0.15253 0.45354 0.07585 0.0
H4443 H 0.14428 0.47805 0.06551 0.0
C4444 C 0.87091 0.90823 0.29837 0.0
C4445 C 0.86613 0.91952 0.27777 0.0
C4446 C 0.82878 0.88641 0.26331 0.0
C4447 C 0.83499 0.87393 0.28245 0.0
N4448 N 0.86205 0.87193 0.31784 0.0
N4449 N 0.842 0.91903 0.23952 0.0
C4450 C 0.85608 0.8846 0.29993 0.0
C4451 C 0.84536 0.90859 0.25999 0.0
N4452 N 0.88925 0.92046 0.31677 0.0
N4453 N 0.80695 0.87711 0.24847 0.0
H4454 H 0.85358 0.93545 0.2367 0.0
H4455 H 0.8288 0.91074 0.22456 0.0
H4456 H 0.79462 0.8607 0.25016 0.0
H4457 H 0.80015 0.88638 0.23569 0.0
H4458 H 0.89214 0.91448 0.33347 0.0
H4459 H 0.90068 0.93769 0.31616 0.0
H4460 H 0.87864 0.87718 0.32928 0.0
H4461 H 0.85079 0.85533 0.3206 0.0
C4462 C 0.78505 0.19248 0.77759 0.0
C4463 C 0.78307 0.1831 0.75257 0.0
C4464 C 0.77483 0.21997 0.74062 0.0
C4465 C 0.77353 0.22785 0.76539 0.0
N4466 N 0.77439 0.22061 0.8073 0.0
N4467 N 0.78563 0.1909 0.71161 0.0
C4468 C 0.7784 0.21415 0.78397 0.0
C4469 C 0.78159 0.19825 0.73461 0.0
N4470 N 0.79313 0.18065 0.79518 0.0
N4471 N 0.76792 0.23226 0.72282 0.0
H4472 H 0.79029 0.17468 0.70739 0.0
H4473 H 0.78648 0.20155 0.69768 0.0
H4474 H 0.76232 0.24797 0.72668 0.0
H4475 H 0.7663 0.2262 0.70422 0.0
H4476 H 0.79697 0.1877 0.81368 0.0
H4477 H 0.79889 0.16516 0.79121 0.0
H4478 H 0.77483 0.2099 0.82107 0.0
H4479 H 0.76826 0.23569 0.81249 0.0
loop_
_geom_bond_atom_site_label_1
_geom_bond_atom_site_label_2
_geom_bond_distance
_geom_bond_site_symmetry_2
_ccdc_geom_bond_type
Li0 N17 1.990 1_455 S
Li0 O60 1.956 . S
Li0 O61 1.970 . S
Li0 O62 1.961 . S
Li1 N25 1.990 . S
Li1 O60 1.970 . S
Li1 O61 1.956 . S
Li1 O63 1.961 . S
Li2 N47 1.990 . S
Li2 O60 1.961 . S
Li2 O62 1.956 . S
Li2 O63 1.970 . S
Li3 N53 1.990 . S
Li3 O61 1.961 . S
Li3 O62 1.970 . S
Li3 O63 1.956 . S
C4 C6 1.348 . S
C4 C7 1.356 . S
C4 O60 1.325 . S
N5 C8 1.314 . S
N5 C9 1.279 . S
C6 C4 1.348 . S
C6 C8 1.353 . S
C6 H64 0.929 . S
C7 C4 1.356 . S
C7 C9 1.358 . S
C7 H65 0.930 . S
C8 N5 1.314 . S
C8 C6 1.353 . S
C8 H66 0.930 . S
C9 N5 1.279 . S
C9 C7 1.358 . S
C9 H67 0.930 . S
C10 C13 1.348 . S
C10 C14 1.356 . S
C10 O61 1.325 1_655 S
C11 N12 1.279 . S
C11 C14 1.358 . S
C11 H68 0.930 . S
N12 C11 1.279 . S
N12 C15 1.314 . S
C13 C10 1.348 . S
C13 C15 1.353 . S
C13 H69 0.929 . S
C14 C10 1.356 . S
C14 C11 1.358 . S
C14 H70 0.930 1_655 S
C15 N12 1.314 . S
C15 C13 1.353 . S
C15 H71 0.930 . S
C16 N17 1.314 . S
C16 C21 1.353 . S
C16 H22 0.930 . S
N17 Li0 1.990 1_655 S
N17 C16 1.314 . S
N17 C19 1.279 . S
C18 C19 1.358 . S
C18 C20 1.356 . S
C18 H72 0.930 . S
C19 N17 1.279 . S
C19 C18 1.358 . S
C19 H23 0.930 . S
C20 C18 1.356 . S
C20 C21 1.348 . S
C21 C16 1.353 . S
C21 C20 1.348 . S
C21 H73 0.929 . S
H22 C16 0.930 . S
H23 C19 0.930 . S
C24 N25 1.314 . S
C24 C26 1.353 . S
C24 H30 0.930 . S
N25 Li1 1.990 . S
N25 C24 1.314 . S
N25 C28 1.279 . S
C26 C24 1.353 . S
C26 C29 1.348 . S
C26 H74 0.929 . S
C27 C28 1.358 . S
C27 C29 1.356 . S
C27 H75 0.930 . S
C28 N25 1.279 . S
C28 C27 1.358 . S
C28 H31 0.930 . S
C29 C26 1.348 . S
C29 C27 1.356 . S
H30 C24 0.930 . S
H31 C28 0.930 . S
C32 C34 1.348 . S
C32 C35 1.356 . S
C32 O62 1.325 . S
N33 C36 1.314 . S
N33 C37 1.279 . S
C34 C32 1.348 . S
C34 C36 1.353 . S
C34 H76 0.929 . S
C35 C32 1.356 . S
C35 C37 1.358 . S
C35 H77 0.930 . S
C36 N33 1.314 . S
C36 C34 1.353 . S
C36 H78 0.930 . S
C37 N33 1.279 . S
C37 C35 1.358 . S
C37 H79 0.930 . S
C38 C39 1.348 . S
C38 C40 1.356 . S
C38 O63 1.325 . S
C39 C38 1.348 . S
C39 C41 1.353 . S
C39 H80 0.929 . S
C40 C38 1.356 . S
C40 C42 1.358 . S
C40 H81 0.930 . S
C41 C39 1.353 . S
C41 N43 1.314 . S
C41 H82 0.930 . S
C42 C40 1.358 . S
C42 N43 1.279 . S
C42 H83 0.930 . S
N43 C41 1.314 . S
N43 C42 1.279 . S
C44 C46 1.353 . S
C44 N47 1.314 . S
C44 H50 0.930 . S
C45 N47 1.279 . S
C45 C48 1.358 . S
C45 H51 0.930 . S
C46 C44 1.353 . S
C46 C49 1.348 . S
C46 H84 0.929 . S
N47 Li2 1.990 . S
N47 C44 1.314 . S
N47 C45 1.279 . S
C48 C45 1.358 . S
C48 C49 1.356 . S
C48 H85 0.930 . S
C49 C46 1.348 . S
C49 C48 1.356 . S
H50 C44 0.930 . S
H51 C45 0.930 . S
C52 N53 1.314 . S
C52 C54 1.353 . S
C52 H58 0.930 1_455 S
N53 Li3 1.990 . S
N53 C52 1.314 . S
N53 C56 1.279 . S
C54 C52 1.353 . S
C54 C57 1.348 . S
C54 H86 0.929 1_455 S
C55 C56 1.358 . S
C55 C57 1.356 . S
C55 H87 0.930 . S
C56 N53 1.279 . S
C56 C55 1.358 . S
C56 H59 0.930 . S
C57 C54 1.348 . S
C57 C55 1.356 . S
H58 C52 0.930 1_655 S
H59 C56 0.930 . S
O60 Li0 1.956 . S
O60 Li1 1.970 . S
O60 Li2 1.961 . S
O60 C4 1.325 . S
O61 Li0 1.970 . S
O61 Li1 1.956 . S
O61 Li3 1.961 . S
O61 C10 1.325 1_455 S
O62 Li0 1.961 . S
O62 Li2 1.956 . S
O62 Li3 1.970 . S
O62 C32 1.325 . S
O63 Li1 1.961 . S
O63 Li2 1.970 . S
O63 Li3 1.956 . S
O63 C38 1.325 . S
H64 C6 0.929 . S
H65 C7 0.930 . S
H66 C8 0.930 . S
H67 C9 0.930 . S
H68 C11 0.930 . S
H69 C13 0.929 . S
H70 C14 0.930 1_455 S
H71 C15 0.930 . S
H72 C18 0.930 . S
H73 C21 0.929 . S
H74 C26 0.929 . S
H75 C27 0.930 . S
H76 C34 0.929 . S
H77 C35 0.930 . S
H78 C36 0.930 . S
H79 C37 0.930 . S
H80 C39 0.929 . S
H81 C40 0.930 . S
H82 C41 0.930 . S
H83 C42 0.930 . S
H84 C46 0.929 . S
H85 C48 0.930 . S
H86 C54 0.929 1_655 S
H87 C55 0.930 . S
Li88 N105 1.990 . S
Li88 O148 1.956 . S
Li88 O149 1.970 . S
Li88 O150 1.961 1_455 S
Li89 N113 1.990 . S
Li89 O148 1.970 . S
Li89 O149 1.956 . S
Li89 O151 1.961 . S
Li90 N135 1.990 . S
Li90 O148 1.961 . S
Li90 O150 1.956 1_455 S
Li90 O151 1.970 . S
Li91 N141 1.990 1_455 S
Li91 O149 1.961 . S
Li91 O150 1.970 1_455 S
Li91 O151 1.956 . S
C92 C94 1.348 . S
C92 C95 1.356 . S
C92 O148 1.325 . S
N93 C96 1.314 . S
N93 C97 1.279 . S
C94 C92 1.348 . S
C94 C96 1.353 . S
C94 H152 0.929 . S
C95 C92 1.356 . S
C95 C97 1.358 . S
C95 H153 0.930 . S
C96 N93 1.314 . S
C96 C94 1.353 . S
C96 H154 0.930 . S
C97 N93 1.279 . S
C97 C95 1.358 . S
C97 H155 0.930 . S
C98 C101 1.348 . S
C98 C102 1.356 . S
C98 O149 1.325 . S
C99 N100 1.279 . S
C99 C102 1.358 . S
C99 H156 0.930 . S
N100 C99 1.279 . S
N100 C103 1.314 . S
C101 C98 1.348 . S
C101 C103 1.353 . S
C101 H157 0.929 . S
C102 C98 1.356 . S
C102 C99 1.358 . S
C102 H158 0.930 . S
C103 N100 1.314 . S
C103 C101 1.353 . S
C103 H159 0.930 . S
C104 N105 1.314 . S
C104 C109 1.353 . S
C104 H110 0.890 1_455 S
N105 Li88 1.990 . S
N105 C104 1.314 . S
N105 C107 1.279 . S
C106 C107 1.358 . S
C106 C108 1.356 . S
C106 H160 0.930 . S
C107 N105 1.279 . S
C107 C106 1.358 . S
C107 H111 0.930 . S
C108 C106 1.356 . S
C108 C109 1.348 . S
C109 C104 1.353 . S
C109 C108 1.348 . S
C109 H161 0.909 1_455 S
H110 C104 0.890 1_655 S
H111 C107 0.930 . S
C112 N113 1.314 . S
C112 C114 1.353 . S
C112 H118 0.930 . S
N113 Li89 1.990 . S
N113 C112 1.314 . S
N113 C116 1.279 . S
C114 C112 1.353 . S
C114 C117 1.348 . S
C114 H162 0.929 . S
C115 C116 1.358 . S
C115 C117 1.356 . S
C115 H163 0.930 . S
C116 N113 1.279 . S
C116 C115 1.358 . S
C116 H119 0.930 . S
C117 C114 1.348 . S
C117 C115 1.356 . S
H118 C112 0.930 . S
H119 C116 0.930 . S
C120 C122 1.348 . S
C120 C123 1.356 . S
C120 O150 1.325 . S
N121 C124 1.314 . S
N121 C125 1.279 . S
C122 C120 1.348 . S
C122 C124 1.353 . S
C122 H164 0.929 . S
C123 C120 1.356 . S
C123 C125 1.358 . S
C123 H165 0.930 . S
C124 N121 1.314 . S
C124 C122 1.353 . S
C124 H166 0.930 . S
C125 N121 1.279 . S
C125 C123 1.358 . S
C125 H167 0.930 . S
C126 C127 1.348 . S
C126 C128 1.356 . S
C126 O151 1.325 . S
C127 C126 1.348 . S
C127 C129 1.353 . S
C127 H168 0.929 . S
C128 C126 1.356 . S
C128 C130 1.358 . S
C128 H169 0.930 . S
C129 C127 1.353 . S
C129 N131 1.314 . S
C129 H170 0.930 . S
C130 C128 1.358 . S
C130 N131 1.279 . S
C130 H171 0.930 . S
N131 C129 1.314 . S
N131 C130 1.279 . S
C132 C134 1.353 . S
C132 N135 1.314 . S
C132 H138 0.930 . S
C133 N135 1.279 1_655 S
C133 C136 1.358 . S
C133 H139 0.930 . S
C134 C132 1.353 . S
C134 C137 1.348 . S
C134 H172 0.929 . S
N135 Li90 1.990 . S
N135 C132 1.314 . S
N135 C133 1.279 1_455 S
C136 C133 1.358 . S
C136 C137 1.356 1_655 S
C136 H173 0.930 . S
C137 C134 1.348 . S
C137 C136 1.356 1_455 S
H138 C132 0.930 . S
H139 C133 0.930 . S
C140 N141 1.314 . S
C140 C142 1.353 . S
C140 H146 0.930 . S
N141 Li91 1.990 1_655 S
N141 C140 1.314 . S
N141 C144 1.279 . S
C142 C140 1.353 . S
C142 C145 1.348 . S
C142 H174 0.929 . S
C143 C144 1.358 . S
C143 C145 1.356 . S
C143 H175 0.930 . S
C144 N141 1.279 . S
C144 C143 1.358 . S
C144 H147 0.930 . S
C145 C142 1.348 . S
C145 C143 1.356 . S
H146 C140 0.930 . S
H147 C144 0.930 . S
O148 Li88 1.956 . S
O148 Li89 1.970 . S
O148 Li90 1.961 . S
O148 C92 1.325 . S
O149 Li88 1.970 . S
O149 Li89 1.956 . S
O149 Li91 1.961 . S
O149 C98 1.325 . S
O150 Li88 1.961 1_655 S
O150 Li90 1.956 1_655 S
O150 Li91 1.970 1_655 S
O150 C120 1.325 . S
O151 Li89 1.961 . S
O151 Li90 1.970 . S
O151 Li91 1.956 . S
O151 C126 1.325 . S
H152 C94 0.929 . S
H153 C95 0.930 . S
H154 C96 0.930 . S
H155 C97 0.930 . S
H156 C99 0.930 . S
H157 C101 0.929 . S
H158 C102 0.930 . S
H159 C103 0.930 . S
H160 C106 0.930 . S
H161 C109 0.909 1_655 S
H162 C114 0.929 . S
H163 C115 0.930 . S
H164 C122 0.929 . S
H165 C123 0.930 . S
H166 C124 0.930 . S
H167 C125 0.930 . S
H168 C127 0.929 . S
H169 C128 0.930 . S
H170 C129 0.930 . S
H171 C130 0.930 . S
H172 C134 0.929 . S
H173 C136 0.930 . S
H174 C142 0.929 . S
H175 C143 0.930 . S
Li176 N193 1.990 . S
Li176 O236 1.956 . S
Li176 O237 1.970 . S
Li176 O238 1.961 . S
Li177 N201 1.990 . S
Li177 O236 1.970 . S
Li177 O237 1.956 . S
Li177 O239 1.961 . S
Li178 N223 1.990 . S
Li178 O236 1.961 . S
Li178 O238 1.956 . S
Li178 O239 1.970 . S
Li179 N229 1.990 . S
Li179 O237 1.961 . S
Li179 O238 1.970 . S
Li179 O239 1.956 . S
C180 C182 1.348 . S
C180 C183 1.356 . S
C180 O236 1.325 . S
N181 C184 1.314 . S
N181 C185 1.279 . S
C182 C180 1.348 . S
C182 C184 1.353 . S
C182 H240 0.929 . S
C183 C180 1.356 . S
C183 C185 1.358 . S
C183 H241 0.930 . S
C184 N181 1.314 . S
C184 C182 1.353 . S
C184 H242 0.930 . S
C185 N181 1.279 . S
C185 C183 1.358 . S
C185 H243 0.930 . S
C186 C189 1.348 . S
C186 C190 1.356 . S
C186 O237 1.325 . S
C187 N188 1.279 . S
C187 C190 1.358 . S
C187 H244 0.930 . S
N188 C187 1.279 . S
N188 C191 1.314 . S
C189 C186 1.348 . S
C189 C191 1.353 . S
C189 H245 0.929 . S
C190 C186 1.356 . S
C190 C187 1.358 . S
C190 H246 0.930 . S
C191 N188 1.314 . S
C191 C189 1.353 . S
C191 H247 0.930 . S
C192 N193 1.314 . S
C192 C197 1.353 . S
C192 H198 0.930 . S
N193 Li176 1.990 . S
N193 C192 1.314 . S
N193 C195 1.279 . S
C194 C195 1.358 . S
C194 C196 1.356 . S
C194 H248 0.930 . S
C195 N193 1.279 . S
C195 C194 1.358 . S
C195 H199 0.930 . S
C196 C194 1.356 . S
C196 C197 1.348 . S
C197 C192 1.353 . S
C197 C196 1.348 . S
C197 H249 0.929 . S
H198 C192 0.930 . S
H199 C195 0.930 . S
C200 N201 1.314 . S
C200 C202 1.353 . S
C200 H206 0.930 . S
N201 Li177 1.990 . S
N201 C200 1.314 . S
N201 C204 1.279 . S
C202 C200 1.353 . S
C202 C205 1.348 . S
C202 H250 0.929 . S
C203 C204 1.358 . S
C203 C205 1.356 . S
C203 H251 0.930 . S
C204 N201 1.279 . S
C204 C203 1.358 . S
C204 H207 0.930 . S
C205 C202 1.348 . S
C205 C203 1.356 . S
H206 C200 0.930 . S
H207 C204 0.930 . S
C208 C210 1.348 . S
C208 C211 1.356 . S
C208 O238 1.325 . S
N209 C212 1.314 . S
N209 C213 1.279 . S
C210 C208 1.348 . S
C210 C212 1.353 . S
C210 H252 0.929 . S
C211 C208 1.356 . S
C211 C213 1.358 . S
C211 H253 0.930 . S
C212 N209 1.314 . S
C212 C210 1.353 . S
C212 H254 0.930 . S
C213 N209 1.279 . S
C213 C211 1.358 . S
C213 H255 0.930 . S
C214 C215 1.348 . S
C214 C216 1.356 . S
C214 O239 1.325 . S
C215 C214 1.348 . S
C215 C217 1.353 . S
C215 H256 0.929 . S
C216 C214 1.356 . S
C216 C218 1.358 . S
C216 H257 0.930 . S
C217 C215 1.353 . S
C217 N219 1.314 . S
C217 H258 0.930 . S
C218 C216 1.358 . S
C218 N219 1.279 . S
C218 H259 0.930 . S
N219 C217 1.314 . S
N219 C218 1.279 . S
C220 C222 1.353 . S
C220 N223 1.314 . S
C220 H226 0.930 . S
C221 N223 1.279 . S
C221 C224 1.358 . S
C221 H227 0.930 . S
C222 C220 1.353 . S
C222 C225 1.348 . S
C222 H260 0.929 . S
N223 Li178 1.990 . S
N223 C220 1.314 . S
N223 C221 1.279 . S
C224 C221 1.358 . S
C224 C225 1.356 . S
C224 H261 0.930 . S
C225 C222 1.348 . S
C225 C224 1.356 . S
H226 C220 0.930 . S
H227 C221 0.930 . S
C228 N229 1.314 . S
C228 C230 1.353 . S
C228 H234 0.930 . S
N229 Li179 1.990 . S
N229 C228 1.314 . S
N229 C232 1.279 . S
C230 C228 1.353 . S
C230 C233 1.348 . S
C230 H262 0.929 . S
C231 C232 1.358 . S
C231 C233 1.356 . S
C231 H263 0.930 . S
C232 N229 1.279 . S
C232 C231 1.358 . S
C232 H235 0.930 . S
C233 C230 1.348 . S
C233 C231 1.356 . S
H234 C228 0.930 . S
H235 C232 0.930 . S
O236 Li176 1.956 . S
O236 Li177 1.970 . S
O236 Li178 1.961 . S
O236 C180 1.325 . S
O237 Li176 1.970 . S
O237 Li177 1.956 . S
O237 Li179 1.961 . S
O237 C186 1.325 . S
O238 Li176 1.961 . S
O238 Li178 1.956 . S
O238 Li179 1.970 . S
O238 C208 1.325 . S
O239 Li177 1.961 . S
O239 Li178 1.970 . S
O239 Li179 1.956 . S
O239 C214 1.325 . S
H240 C182 0.929 . S
H241 C183 0.930 . S
H242 C184 0.930 . S
H243 C185 0.930 . S
H244 C187 0.930 . S
H245 C189 0.929 . S
H246 C190 0.930 . S
H247 C191 0.930 . S
H248 C194 0.930 . S
H249 C197 0.929 . S
H250 C202 0.929 . S
H251 C203 0.930 . S
H252 C210 0.929 . S
H253 C211 0.930 . S
H254 C212 0.930 . S
H255 C213 0.930 . S
H256 C215 0.929 . S
H257 C216 0.930 . S
H258 C217 0.930 . S
H259 C218 0.930 . S
H260 C222 0.929 . S
H261 C224 0.930 . S
H262 C230 0.929 . S
H263 C231 0.930 . S
Li264 N281 1.990 . S
Li264 O324 1.956 . S
Li264 O325 1.970 . S
Li264 O326 1.961 . S
Li265 N289 1.990 . S
Li265 O324 1.970 . S
Li265 O325 1.956 . S
Li265 O327 1.961 . S
Li266 N311 1.990 . S
Li266 O324 1.961 . S
Li266 O326 1.956 . S
Li266 O327 1.970 . S
Li267 N317 1.990 . S
Li267 O325 1.961 . S
Li267 O326 1.970 . S
Li267 O327 1.956 . S
C268 C270 1.348 . S
C268 C271 1.356 . S
C268 O324 1.325 . S
N269 C272 1.314 . S
N269 C273 1.279 . S
C270 C268 1.348 . S
C270 C272 1.353 . S
C270 H328 0.929 . S
C271 C268 1.356 . S
C271 C273 1.358 . S
C271 H329 0.930 . S
C272 N269 1.314 . S
C272 C270 1.353 . S
C272 H330 0.930 . S
C273 N269 1.279 . S
C273 C271 1.358 . S
C273 H331 0.930 . S
C274 C277 1.348 . S
C274 C278 1.356 . S
C274 O325 1.325 . S
C275 N276 1.279 . S
C275 C278 1.358 . S
C275 H332 0.930 . S
N276 C275 1.279 . S
N276 C279 1.314 . S
C277 C274 1.348 . S
C277 C279 1.353 . S
C277 H333 0.929 . S
C278 C274 1.356 . S
C278 C275 1.358 . S
C278 H334 0.930 . S
C279 N276 1.314 . S
C279 C277 1.353 . S
C279 H335 0.930 . S
C280 N281 1.314 . S
C280 C285 1.353 . S
C280 H286 0.930 . S
N281 Li264 1.990 . S
N281 C280 1.314 . S
N281 C283 1.279 . S
C282 C283 1.358 . S
C282 C284 1.356 . S
C282 H336 0.930 . S
C283 N281 1.279 . S
C283 C282 1.358 . S
C283 H287 0.930 . S
C284 C282 1.356 . S
C284 C285 1.348 . S
C285 C280 1.353 . S
C285 C284 1.348 . S
C285 H337 0.929 . S
H286 C280 0.930 . S
H287 C283 0.930 . S
C288 N289 1.314 . S
C288 C290 1.353 . S
C288 H294 0.930 . S
N289 Li265 1.990 . S
N289 C288 1.314 . S
N289 C292 1.279 . S
C290 C288 1.353 . S
C290 C293 1.348 . S
C290 H338 0.929 . S
C291 C292 1.358 . S
C291 C293 1.356 . S
C291 H339 0.930 . S
C292 N289 1.279 . S
C292 C291 1.358 . S
C292 H295 0.930 . S
C293 C290 1.348 . S
C293 C291 1.356 . S
H294 C288 0.930 . S
H295 C292 0.930 . S
C296 C298 1.348 . S
C296 C299 1.356 . S
C296 O326 1.325 . S
N297 C300 1.314 . S
N297 C301 1.279 . S
C298 C296 1.348 . S
C298 C300 1.353 . S
C298 H340 0.929 . S
C299 C296 1.356 . S
C299 C301 1.358 . S
C299 H341 0.930 . S
C300 N297 1.314 . S
C300 C298 1.353 . S
C300 H342 0.930 . S
C301 N297 1.279 . S
C301 C299 1.358 . S
C301 H343 0.930 . S
C302 C303 1.348 . S
C302 C304 1.356 . S
C302 O327 1.325 . S
C303 C302 1.348 . S
C303 C305 1.353 . S
C303 H344 0.929 . S
C304 C302 1.356 . S
C304 C306 1.358 . S
C304 H345 0.930 . S
C305 C303 1.353 . S
C305 N307 1.314 . S
C305 H346 0.930 . S
C306 C304 1.358 . S
C306 N307 1.279 . S
C306 H347 0.930 . S
N307 C305 1.314 . S
N307 C306 1.279 . S
C308 C310 1.353 . S
C308 N311 1.314 . S
C308 H314 0.930 . S
C309 N311 1.279 . S
C309 C312 1.358 . S
C309 H315 0.930 . S
C310 C308 1.353 . S
C310 C313 1.348 . S
C310 H348 0.929 . S
N311 Li266 1.990 . S
N311 C308 1.314 . S
N311 C309 1.279 . S
C312 C309 1.358 . S
C312 C313 1.356 . S
C312 H349 0.930 . S
C313 C310 1.348 . S
C313 C312 1.356 . S
H314 C308 0.930 . S
H315 C309 0.930 . S
C316 N317 1.314 . S
C316 C318 1.353 . S
C316 H322 0.930 . S
N317 Li267 1.990 . S
N317 C316 1.314 . S
N317 C320 1.279 . S
C318 C316 1.353 . S
C318 C321 1.348 . S
C318 H350 0.929 . S
C319 C320 1.358 . S
C319 C321 1.356 . S
C319 H351 0.930 . S
C320 N317 1.279 . S
C320 C319 1.358 . S
C320 H323 0.930 . S
C321 C318 1.348 . S
C321 C319 1.356 . S
H322 C316 0.930 . S
H323 C320 0.930 . S
O324 Li264 1.956 . S
O324 Li265 1.970 . S
O324 Li266 1.961 . S
O324 C268 1.325 . S
O325 Li264 1.970 . S
O325 Li265 1.956 . S
O325 Li267 1.961 . S
O325 C274 1.325 . S
O326 Li264 1.961 . S
O326 Li266 1.956 . S
O326 Li267 1.970 . S
O326 C296 1.325 . S
O327 Li265 1.961 . S
O327 Li266 1.970 . S
O327 Li267 1.956 . S
O327 C302 1.325 . S
H328 C270 0.929 . S
H329 C271 0.930 . S
H330 C272 0.930 . S
H331 C273 0.930 . S
H332 C275 0.930 . S
H333 C277 0.929 . S
H334 C278 0.930 . S
H335 C279 0.930 . S
H336 C282 0.930 . S
H337 C285 0.929 . S
H338 C290 0.929 . S
H339 C291 0.930 . S
H340 C298 0.929 . S
H341 C299 0.930 . S
H342 C300 0.930 . S
H343 C301 0.930 . S
H344 C303 0.929 . S
H345 C304 0.930 . S
H346 C305 0.930 . S
H347 C306 0.930 . S
H348 C310 0.929 . S
H349 C312 0.930 . S
H350 C318 0.929 . S
H351 C319 0.930 . S
Li352 N369 1.990 . S
Li352 O412 1.956 . S
Li352 O413 1.970 . S
Li352 O414 1.961 . S
Li353 N377 1.990 . S
Li353 O412 1.970 . S
Li353 O413 1.956 . S
Li353 O415 1.961 . S
Li354 N399 1.990 . S
Li354 O412 1.961 . S
Li354 O414 1.956 . S
Li354 O415 1.970 . S
Li355 N405 1.990 . S
Li355 O413 1.961 . S
Li355 O414 1.970 . S
Li355 O415 1.956 . S
C356 C358 1.348 . S
C356 C359 1.356 . S
C356 O412 1.325 . S
N357 C360 1.314 . S
N357 C361 1.279 . S
C358 C356 1.348 . S
C358 C360 1.353 . S
C358 H416 0.929 . S
C359 C356 1.356 . S
C359 C361 1.358 . S
C359 H417 0.930 . S
C360 N357 1.314 . S
C360 C358 1.353 . S
C360 H418 0.930 . S
C361 N357 1.279 . S
C361 C359 1.358 . S
C361 H419 0.930 . S
C362 C365 1.348 . S
C362 C366 1.356 . S
C362 O413 1.325 . S
C363 N364 1.279 . S
C363 C366 1.358 . S
C363 H420 0.930 . S
N364 C363 1.279 . S
N364 C367 1.314 . S
C365 C362 1.348 . S
C365 C367 1.353 . S
C365 H421 0.929 . S
C366 C362 1.356 . S
C366 C363 1.358 . S
C366 H422 0.930 . S
C367 N364 1.314 . S
C367 C365 1.353 . S
C367 H423 0.930 . S
C368 N369 1.314 . S
C368 C373 1.353 . S
C368 H374 0.930 . S
N369 Li352 1.990 . S
N369 C368 1.314 . S
N369 C371 1.279 . S
C370 C371 1.358 . S
C370 C372 1.356 . S
C370 H424 0.930 . S
C371 N369 1.279 . S
C371 C370 1.358 . S
C371 H375 0.930 . S
C372 C370 1.356 . S
C372 C373 1.348 . S
C373 C368 1.353 . S
C373 C372 1.348 . S
C373 H425 0.929 . S
H374 C368 0.930 . S
H375 C371 0.930 . S
C376 N377 1.314 . S
C376 C378 1.353 . S
C376 H382 0.930 . S
N377 Li353 1.990 . S
N377 C376 1.314 . S
N377 C380 1.279 . S
C378 C376 1.353 . S
C378 C381 1.348 . S
C378 H426 0.929 . S
C379 C380 1.358 . S
C379 C381 1.356 . S
C379 H427 0.930 . S
C380 N377 1.279 . S
C380 C379 1.358 . S
C380 H383 0.930 . S
C381 C378 1.348 . S
C381 C379 1.356 . S
H382 C376 0.930 . S
H383 C380 0.930 . S
C384 C386 1.348 1_455 S
C384 C387 1.356 . S
C384 O414 1.325 . S
N385 C388 1.314 . S
N385 C389 1.279 . S
C386 C384 1.348 1_655 S
C386 C388 1.353 . S
C386 H428 0.929 . S
C387 C384 1.356 . S
C387 C389 1.358 1_455 S
C387 H429 0.930 . S
C388 N385 1.314 . S
C388 C386 1.353 . S
C388 H430 0.930 . S
C389 N385 1.279 . S
C389 C387 1.358 1_655 S
C389 H431 0.930 . S
C390 C391 1.348 . S
C390 C392 1.356 . S
C390 O415 1.325 . S
C391 C390 1.348 . S
C391 C393 1.353 . S
C391 H432 0.929 . S
C392 C390 1.356 . S
C392 C394 1.358 . S
C392 H433 0.930 . S
C393 C391 1.353 . S
C393 N395 1.314 . S
C393 H434 0.930 . S
C394 C392 1.358 . S
C394 N395 1.279 . S
C394 H435 0.930 . S
N395 C393 1.314 . S
N395 C394 1.279 . S
C396 C398 1.353 . S
C396 N399 1.314 . S
C396 H402 0.930 . S
C397 N399 1.279 . S
C397 C400 1.358 . S
C397 H403 0.930 . S
C398 C396 1.353 . S
C398 C401 1.348 . S
C398 H436 0.929 . S
N399 Li354 1.990 . S
N399 C396 1.314 . S
N399 C397 1.279 . S
C400 C397 1.358 . S
C400 C401 1.356 . S
C400 H437 0.930 . S
C401 C398 1.348 . S
C401 C400 1.356 . S
H402 C396 0.930 . S
H403 C397 0.930 . S
C404 N405 1.314 . S
C404 C406 1.353 1_455 S
C404 H410 0.930 . S
N405 Li355 1.990 . S
N405 C404 1.314 . S
N405 C408 1.279 . S
C406 C404 1.353 1_655 S
C406 C409 1.348 . S
C406 H438 0.929 . S
C407 C408 1.358 1_655 S
C407 C409 1.356 . S
C407 H439 0.930 . S
C408 N405 1.279 . S
C408 C407 1.358 1_455 S
C408 H411 0.930 . S
C409 C406 1.348 . S
C409 C407 1.356 . S
H410 C404 0.930 . S
H411 C408 0.930 . S
O412 Li352 1.956 . S
O412 Li353 1.970 . S
O412 Li354 1.961 . S
O412 C356 1.325 . S
O413 Li352 1.970 . S
O413 Li353 1.956 . S
O413 Li355 1.961 . S
O413 C362 1.325 . S
O414 Li352 1.961 . S
O414 Li354 1.956 . S
O414 Li355 1.970 . S
O414 C384 1.325 . S
O415 Li353 1.961 . S
O415 Li354 1.970 . S
O415 Li355 1.956 . S
O415 C390 1.325 . S
H416 C358 0.929 . S
H417 C359 0.930 . S
H418 C360 0.930 . S
H419 C361 0.930 . S
H420 C363 0.930 . S
H421 C365 0.929 . S
H422 C366 0.930 . S
H423 C367 0.930 . S
H424 C370 0.930 . S
H425 C373 0.929 . S
H426 C378 0.929 . S
H427 C379 0.930 . S
H428 C386 0.929 . S
H429 C387 0.930 . S
H430 C388 0.930 . S
H431 C389 0.930 . S
H432 C391 0.929 . S
H433 C392 0.930 . S
H434 C393 0.930 . S
H435 C394 0.930 . S
H436 C398 0.929 . S
H437 C400 0.930 . S
H438 C406 0.929 . S
H439 C407 0.930 . S
Li440 N457 1.990 . S
Li440 O500 1.956 . S
Li440 O501 1.970 . S
Li440 O502 1.961 . S
Li441 N465 1.990 . S
Li441 O500 1.970 . S
Li441 O501 1.956 . S
Li441 O503 1.961 . S
Li442 N487 1.990 . S
Li442 O500 1.961 . S
Li442 O502 1.956 . S
Li442 O503 1.970 . S
Li443 N493 1.990 . S
Li443 O501 1.961 . S
Li443 O502 1.970 . S
Li443 O503 1.956 . S
C444 C446 1.348 . S
C444 C447 1.356 . S
C444 O500 1.325 . S
N445 C448 1.314 . S
N445 C449 1.279 . S
C446 C444 1.348 . S
C446 C448 1.353 . S
C446 H504 0.929 . S
C447 C444 1.356 . S
C447 C449 1.358 . S
C447 H505 0.930 . S
C448 N445 1.314 . S
C448 C446 1.353 . S
C448 H506 0.930 . S
C449 N445 1.279 . S
C449 C447 1.358 . S
C449 H507 0.930 . S
C450 C453 1.348 . S
C450 C454 1.356 . S
C450 O501 1.325 . S
C451 N452 1.279 . S
C451 C454 1.358 . S
C451 H508 0.930 . S
N452 C451 1.279 . S
N452 C455 1.314 . S
C453 C450 1.348 . S
C453 C455 1.353 . S
C453 H509 0.929 . S
C454 C450 1.356 . S
C454 C451 1.358 . S
C454 H510 0.930 . S
C455 N452 1.314 . S
C455 C453 1.353 . S
C455 H511 0.930 . S
C456 N457 1.314 . S
C456 C461 1.353 . S
C456 H462 0.930 . S
N457 Li440 1.990 . S
N457 C456 1.314 . S
N457 C459 1.279 . S
C458 C459 1.358 . S
C458 C460 1.356 . S
C458 H512 0.930 . S
C459 N457 1.279 . S
C459 C458 1.358 . S
C459 H463 0.930 . S
C460 C458 1.356 . S
C460 C461 1.348 . S
C461 C456 1.353 . S
C461 C460 1.348 . S
C461 H513 0.929 . S
H462 C456 0.930 . S
H463 C459 0.930 . S
C464 N465 1.314 . S
C464 C466 1.353 . S
C464 H470 0.930 . S
N465 Li441 1.990 . S
N465 C464 1.314 . S
N465 C468 1.279 . S
C466 C464 1.353 . S
C466 C469 1.348 . S
C466 H514 0.929 . S
C467 C468 1.358 . S
C467 C469 1.356 . S
C467 H515 0.930 . S
C468 N465 1.279 . S
C468 C467 1.358 . S
C468 H471 0.930 . S
C469 C466 1.348 . S
C469 C467 1.356 . S
H470 C464 0.930 . S
H471 C468 0.930 . S
C472 C474 1.348 . S
C472 C475 1.356 . S
C472 O502 1.325 . S
N473 C476 1.314 . S
N473 C477 1.279 . S
C474 C472 1.348 . S
C474 C476 1.353 . S
C474 H516 0.929 . S
C475 C472 1.356 . S
C475 C477 1.358 . S
C475 H517 0.930 . S
C476 N473 1.314 . S
C476 C474 1.353 . S
C476 H518 0.930 . S
C477 N473 1.279 . S
C477 C475 1.358 . S
C477 H519 0.930 . S
C478 C479 1.348 . S
C478 C480 1.356 . S
C478 O503 1.325 . S
C479 C478 1.348 . S
C479 C481 1.353 . S
C479 H520 0.929 . S
C480 C478 1.356 . S
C480 C482 1.358 . S
C480 H521 0.930 . S
C481 C479 1.353 . S
C481 N483 1.314 . S
C481 H522 0.930 . S
C482 C480 1.358 . S
C482 N483 1.279 . S
C482 H523 0.930 . S
N483 C481 1.314 . S
N483 C482 1.279 . S
C484 C486 1.353 . S
C484 N487 1.314 . S
C484 H490 0.930 . S
C485 N487 1.279 . S
C485 C488 1.358 . S
C485 H491 0.930 . S
C486 C484 1.353 . S
C486 C489 1.348 . S
C486 H524 0.929 . S
N487 Li442 1.990 . S
N487 C484 1.314 . S
N487 C485 1.279 . S
C488 C485 1.358 . S
C488 C489 1.356 . S
C488 H525 0.930 . S
C489 C486 1.348 . S
C489 C488 1.356 . S
H490 C484 0.930 . S
H491 C485 0.930 . S
C492 N493 1.314 . S
C492 C494 1.353 . S
C492 H498 0.930 . S
N493 Li443 1.990 . S
N493 C492 1.314 . S
N493 C496 1.279 . S
C494 C492 1.353 . S
C494 C497 1.348 . S
C494 H526 0.929 . S
C495 C496 1.358 . S
C495 C497 1.356 . S
C495 H527 0.930 . S
C496 N493 1.279 . S
C496 C495 1.358 . S
C496 H499 0.930 . S
C497 C494 1.348 . S
C497 C495 1.356 . S
H498 C492 0.930 . S
H499 C496 0.930 . S
O500 Li440 1.956 . S
O500 Li441 1.970 . S
O500 Li442 1.961 . S
O500 C444 1.325 . S
O501 Li440 1.970 . S
O501 Li441 1.956 . S
O501 Li443 1.961 . S
O501 C450 1.325 . S
O502 Li440 1.961 . S
O502 Li442 1.956 . S
O502 Li443 1.970 . S
O502 C472 1.325 . S
O503 Li441 1.961 . S
O503 Li442 1.970 . S
O503 Li443 1.956 . S
O503 C478 1.325 . S
H504 C446 0.929 . S
H505 C447 0.930 . S
H506 C448 0.930 . S
H507 C449 0.930 . S
H508 C451 0.930 . S
H509 C453 0.929 . S
H510 C454 0.930 . S
H511 C455 0.930 . S
H512 C458 0.930 . S
H513 C461 0.929 . S
H514 C466 0.929 . S
H515 C467 0.930 . S
H516 C474 0.929 . S
H517 C475 0.930 . S
H518 C476 0.930 . S
H519 C477 0.930 . S
H520 C479 0.929 . S
H521 C480 0.930 . S
H522 C481 0.930 . S
H523 C482 0.930 . S
H524 C486 0.929 . S
H525 C488 0.930 . S
H526 C494 0.929 . S
H527 C495 0.930 . S
Li528 N545 1.990 . S
Li528 O588 1.956 . S
Li528 O589 1.970 . S
Li528 O590 1.961 . S
Li529 N553 1.990 . S
Li529 O588 1.970 . S
Li529 O589 1.956 . S
Li529 O591 1.961 . S
Li530 N575 1.990 . S
Li530 O588 1.961 . S
Li530 O590 1.956 . S
Li530 O591 1.970 . S
Li531 N581 1.990 . S
Li531 O589 1.961 . S
Li531 O590 1.970 . S
Li531 O591 1.956 . S
C532 C534 1.348 . S
C532 C535 1.356 . S
C532 O588 1.325 . S
N533 C536 1.314 . S
N533 C537 1.279 . S
C534 C532 1.348 . S
C534 C536 1.353 . S
C534 H592 0.929 . S
C535 C532 1.356 . S
C535 C537 1.358 . S
C535 H593 0.930 . S
C536 N533 1.314 . S
C536 C534 1.353 . S
C536 H594 0.930 . S
C537 N533 1.279 . S
C537 C535 1.358 . S
C537 H595 0.930 . S
C538 C541 1.348 . S
C538 C542 1.356 . S
C538 O589 1.325 . S
C539 N540 1.279 . S
C539 C542 1.358 . S
C539 H596 0.930 . S
N540 C539 1.279 . S
N540 C543 1.314 . S
C541 C538 1.348 . S
C541 C543 1.353 . S
C541 H597 0.929 . S
C542 C538 1.356 . S
C542 C539 1.358 . S
C542 H598 0.930 . S
C543 N540 1.314 . S
C543 C541 1.353 . S
C543 H599 0.930 . S
C544 N545 1.314 . S
C544 C549 1.353 . S
C544 H550 0.930 . S
N545 Li528 1.990 . S
N545 C544 1.314 . S
N545 C547 1.279 . S
C546 C547 1.358 . S
C546 C548 1.356 . S
C546 H600 0.930 . S
C547 N545 1.279 . S
C547 C546 1.358 . S
C547 H551 0.930 . S
C548 C546 1.356 . S
C548 C549 1.348 . S
C549 C544 1.353 . S
C549 C548 1.348 . S
C549 H601 0.929 . S
H550 C544 0.930 . S
H551 C547 0.930 . S
C552 N553 1.314 . S
C552 C554 1.353 . S
C552 H558 0.930 . S
N553 Li529 1.990 . S
N553 C552 1.314 . S
N553 C556 1.279 . S
C554 C552 1.353 . S
C554 C557 1.348 . S
C554 H602 0.929 . S
C555 C556 1.358 . S
C555 C557 1.356 . S
C555 H603 0.930 . S
C556 N553 1.279 . S
C556 C555 1.358 . S
C556 H559 0.930 . S
C557 C554 1.348 . S
C557 C555 1.356 . S
H558 C552 0.930 . S
H559 C556 0.930 . S
C560 C562 1.348 . S
C560 C563 1.356 . S
C560 O590 1.325 . S
N561 C564 1.314 . S
N561 C565 1.279 . S
C562 C560 1.348 . S
C562 C564 1.353 . S
C562 H604 0.929 . S
C563 C560 1.356 . S
C563 C565 1.358 . S
C563 H605 0.930 . S
C564 N561 1.314 . S
C564 C562 1.353 . S
C564 H606 0.930 . S
C565 N561 1.279 . S
C565 C563 1.358 . S
C565 H607 0.930 . S
C566 C567 1.348 . S
C566 C568 1.356 . S
C566 O591 1.325 . S
C567 C566 1.348 . S
C567 C569 1.353 . S
C567 H608 0.929 . S
C568 C566 1.356 . S
C568 C570 1.358 . S
C568 H609 0.930 . S
C569 C567 1.353 . S
C569 N571 1.314 . S
C569 H610 0.930 . S
C570 C568 1.358 . S
C570 N571 1.279 . S
C570 H611 0.930 . S
N571 C569 1.314 . S
N571 C570 1.279 . S
C572 C574 1.353 . S
C572 N575 1.314 . S
C572 H578 0.930 . S
C573 N575 1.279 . S
C573 C576 1.358 . S
C573 H579 0.930 . S
C574 C572 1.353 . S
C574 C577 1.348 . S
C574 H612 0.929 . S
N575 Li530 1.990 . S
N575 C572 1.314 . S
N575 C573 1.279 . S
C576 C573 1.358 . S
C576 C577 1.356 . S
C576 H613 0.930 . S
C577 C574 1.348 . S
C577 C576 1.356 . S
H578 C572 0.930 . S
H579 C573 0.930 . S
C580 N581 1.314 . S
C580 C582 1.353 . S
C580 H586 0.930 . S
N581 Li531 1.990 . S
N581 C580 1.314 . S
N581 C584 1.279 . S
C582 C580 1.353 . S
C582 C585 1.348 . S
C582 H614 0.929 . S
C583 C584 1.358 . S
C583 C585 1.356 . S
C583 H615 0.930 . S
C584 N581 1.279 . S
C584 C583 1.358 . S
C584 H587 0.930 . S
C585 C582 1.348 . S
C585 C583 1.356 . S
H586 C580 0.930 . S
H587 C584 0.930 . S
O588 Li528 1.956 . S
O588 Li529 1.970 . S
O588 Li530 1.961 . S
O588 C532 1.325 . S
O589 Li528 1.970 . S
O589 Li529 1.956 . S
O589 Li531 1.961 . S
O589 C538 1.325 . S
O590 Li528 1.961 . S
O590 Li530 1.956 . S
O590 Li531 1.970 . S
O590 C560 1.325 . S
O591 Li529 1.961 . S
O591 Li530 1.970 . S
O591 Li531 1.956 . S
O591 C566 1.325 . S
H592 C534 0.929 . S
H593 C535 0.930 . S
H594 C536 0.930 . S
H595 C537 0.930 . S
H596 C539 0.930 . S
H597 C541 0.929 . S
H598 C542 0.930 . S
H599 C543 0.930 . S
H600 C546 0.930 . S
H601 C549 0.929 . S
H602 C554 0.929 . S
H603 C555 0.930 . S
H604 C562 0.929 . S
H605 C563 0.930 . S
H606 C564 0.930 . S
H607 C565 0.930 . S
H608 C567 0.929 . S
H609 C568 0.930 . S
H610 C569 0.930 . S
H611 C570 0.930 . S
H612 C574 0.929 . S
H613 C576 0.930 . S
H614 C582 0.929 . S
H615 C583 0.930 . S
Li616 N633 1.990 1_556 S
Li616 O676 1.956 1_455 S
Li616 O677 1.970 . S
Li616 O678 1.961 . S
Li617 N641 1.990 . S
Li617 O676 1.970 . S
Li617 O677 1.956 1_655 S
Li617 O679 1.961 . S
Li618 N663 1.986 1_556 S
Li618 O676 2.004 . S
Li618 O678 1.925 1_655 S
Li618 O679 1.970 . S
Li619 N669 1.990 . S
Li619 O677 1.961 . S
Li619 O678 1.970 . S
Li619 O679 1.956 1_455 S
C620 C622 1.348 . S
C620 C623 1.356 1_556 S
C620 O676 1.325 . S
N621 C624 1.349 . S
N621 C625 1.279 . S
C622 C620 1.348 . S
C622 C624 1.329 1_556 S
C622 H680 0.929 . S
C623 C620 1.356 1_554 S
C623 C625 1.358 . S
C623 H681 0.930 . S
C624 N621 1.349 . S
C624 C622 1.329 1_554 S
C624 H682 0.919 1_554 S
C625 N621 1.279 . S
C625 C623 1.358 . S
C625 H683 0.930 . S
C626 C629 1.348 . S
C626 C630 1.356 . S
C626 O677 1.325 . S
C627 N628 1.279 . S
C627 C630 1.358 . S
C627 H684 0.930 . S
N628 C627 1.279 . S
N628 C631 1.314 . S
C629 C626 1.348 . S
C629 C631 1.353 . S
C629 H685 0.929 1_455 S
C630 C626 1.356 . S
C630 C627 1.358 . S
C630 H686 0.930 . S
C631 N628 1.314 . S
C631 C629 1.353 . S
C631 H687 0.930 . S
C632 N633 1.314 . S
C632 C637 1.353 . S
C632 H638 0.930 . S
N633 Li616 1.990 1_554 S
N633 C632 1.314 . S
N633 C635 1.279 1_455 S
C634 C635 1.358 . S
C634 C636 1.356 1_655 S
C634 H688 0.930 . S
C635 N633 1.279 1_655 S
C635 C634 1.358 . S
C635 H639 0.930 . S
C636 C634 1.356 1_455 S
C636 C637 1.348 . S
C637 C632 1.353 . S
C637 C636 1.348 . S
C637 H689 0.929 . S
H638 C632 0.930 . S
H639 C635 0.930 . S
C640 N641 1.314 . S
C640 C642 1.353 . S
C640 H646 0.930 . S
N641 Li617 1.990 . S
N641 C640 1.314 . S
N641 C644 1.279 . S
C642 C640 1.353 . S
C642 C645 1.348 . S
C642 H690 0.929 . S
C643 C644 1.358 . S
C643 C645 1.356 . S
C643 H691 0.930 . S
C644 N641 1.279 . S
C644 C643 1.358 . S
C644 H647 0.930 . S
C645 C642 1.348 . S
C645 C643 1.356 . S
H646 C640 0.930 . S
H647 C644 0.930 . S
C648 C650 1.351 . S
C648 C651 1.348 1_556 S
C648 O678 1.330 . S
N649 C652 1.314 . S
N649 C653 1.279 . S
C650 C648 1.351 . S
C650 C652 1.353 1_556 S
C650 H692 0.929 . S
C651 C648 1.348 1_554 S
C651 C653 1.358 . S
C651 H693 0.930 . S
C652 N649 1.314 . S
C652 C650 1.353 1_554 S
C652 H694 0.930 . S
C653 N649 1.279 . S
C653 C651 1.358 . S
C653 H695 0.930 . S
C654 C655 1.348 . S
C654 C656 1.356 . S
C654 O679 1.325 . S
C655 C654 1.348 . S
C655 C657 1.353 . S
C655 H696 0.921 1_655 S
C656 C654 1.356 . S
C656 C658 1.358 . S
C656 H697 0.930 . S
C657 C655 1.353 . S
C657 N659 1.314 . S
C657 H698 0.930 . S
C658 C656 1.358 . S
C658 N659 1.279 . S
C658 H699 0.930 . S
N659 C657 1.314 . S
N659 C658 1.279 . S
C660 C662 1.353 . S
C660 N663 1.314 . S
C660 H666 0.930 1_554 S
C661 N663 1.279 1_455 S
C661 C664 1.358 . S
C661 H667 0.930 . S
C662 C660 1.353 . S
C662 C665 1.348 . S
C662 H700 0.929 . S
N663 Li618 1.986 1_554 S
N663 C660 1.314 . S
N663 C661 1.279 1_655 S
C664 C661 1.358 . S
C664 C665 1.356 1_455 S
C664 H701 0.930 . S
C665 C662 1.348 . S
C665 C664 1.356 1_655 S
H666 C660 0.930 1_556 S
H667 C661 0.930 . S
C668 N669 1.314 . S
C668 C670 1.353 . S
C668 H674 0.930 . S
N669 Li619 1.990 . S
N669 C668 1.314 . S
N669 C672 1.279 . S
C670 C668 1.353 . S
C670 C673 1.348 . S
C670 H702 0.929 . S
C671 C672 1.358 . S
C671 C673 1.356 . S
C671 H703 0.930 . S
C672 N669 1.279 . S
C672 C671 1.358 . S
C672 H675 0.930 . S
C673 C670 1.348 . S
C673 C671 1.356 . S
H674 C668 0.930 . S
H675 C672 0.930 . S
O676 Li616 1.956 1_655 S
O676 Li617 1.970 . S
O676 Li618 2.004 . S
O676 C620 1.325 . S
O677 Li616 1.970 . S
O677 Li617 1.956 1_455 S
O677 Li619 1.961 . S
O677 C626 1.325 . S
O678 Li616 1.961 . S
O678 Li618 1.925 1_455 S
O678 Li619 1.970 . S
O678 C648 1.330 . S
O679 Li617 1.961 . S
O679 Li618 1.970 . S
O679 Li619 1.956 1_655 S
O679 C654 1.325 . S
H680 C622 0.929 . S
H681 C623 0.930 . S
H682 C624 0.919 1_556 S
H683 C625 0.930 . S
H684 C627 0.930 . S
H685 C629 0.929 1_655 S
H686 C630 0.930 . S
H687 C631 0.930 . S
H688 C634 0.930 . S
H689 C637 0.929 . S
H690 C642 0.929 . S
H691 C643 0.930 . S
H692 C650 0.929 . S
H693 C651 0.930 . S
H694 C652 0.930 . S
H695 C653 0.930 . S
H696 C655 0.921 1_455 S
H697 C656 0.930 . S
H698 C657 0.930 . S
H699 C658 0.930 . S
H700 C662 0.929 . S
H701 C664 0.930 . S
H702 C670 0.929 . S
H703 C671 0.930 . S
Li704 N721 1.990 . S
Li704 O764 1.956 1_545 S
Li704 O765 1.975 1_545 S
Li704 O766 1.961 . S
Li705 N729 1.990 . S
Li705 O764 1.970 . S
Li705 O765 1.974 . S
Li705 O767 1.961 . S
Li706 N751 1.990 . S
Li706 O764 1.961 1_545 S
Li706 O766 1.956 . S
Li706 O767 1.970 1_545 S
Li707 N757 1.990 . S
Li707 O765 1.941 1_545 S
Li707 O766 1.970 . S
Li707 O767 1.956 1_545 S
C708 C710 1.348 . S
C708 C711 1.356 . S
C708 O764 1.325 . S
N709 C712 1.314 . S
N709 C713 1.279 . S
C710 C708 1.348 . S
C710 C712 1.353 . S
C710 H768 0.929 . S
C711 C708 1.356 . S
C711 C713 1.358 . S
C711 H769 0.930 . S
C712 N709 1.314 . S
C712 C710 1.353 . S
C712 H770 0.930 . S
C713 N709 1.279 . S
C713 C711 1.358 . S
C713 H771 0.930 . S
C714 C717 1.348 . S
C714 C718 1.356 . S
C714 O765 1.325 . S
C715 N716 1.279 . S
C715 C718 1.358 . S
C715 H772 0.930 . S
N716 C715 1.279 . S
N716 C719 1.314 . S
C717 C714 1.348 . S
C717 C719 1.353 . S
C717 H773 0.929 . S
C718 C714 1.356 . S
C718 C715 1.358 . S
C718 H774 0.930 . S
C719 N716 1.314 . S
C719 C717 1.353 . S
C719 H775 0.930 . S
C720 N721 1.314 . S
C720 C725 1.353 . S
C720 H726 0.930 . S
N721 Li704 1.990 . S
N721 C720 1.314 . S
N721 C723 1.279 1_545 S
C722 C723 1.353 . S
C722 C724 1.318 1_565 S
C722 H776 0.975 . S
C723 N721 1.279 1_565 S
C723 C722 1.353 . S
C723 H727 0.930 . S
C724 C722 1.318 1_545 S
C724 C725 1.348 . S
C725 C720 1.353 . S
C725 C724 1.348 . S
C725 H777 0.929 . S
H726 C720 0.930 . S
H727 C723 0.930 . S
C728 N729 1.314 . S
C728 C730 1.353 . S
C728 H734 0.930 . S
N729 Li705 1.990 . S
N729 C728 1.314 . S
N729 C732 1.279 . S
C730 C728 1.353 . S
C730 C733 1.348 . S
C730 H778 0.929 . S
C731 C732 1.358 . S
C731 C733 1.356 . S
C731 H779 0.930 . S
C732 N729 1.279 . S
C732 C731 1.358 . S
C732 H735 0.930 . S
C733 C730 1.348 . S
C733 C731 1.356 . S
H734 C728 0.930 . S
H735 C732 0.930 . S
C736 C738 1.348 . S
C736 C739 1.356 . S
C736 O766 1.325 . S
N737 C740 1.314 . S
N737 C741 1.279 . S
C738 C736 1.348 . S
C738 C740 1.353 . S
C738 H780 0.929 . S
C739 C736 1.356 . S
C739 C741 1.358 . S
C739 H781 0.930 . S
C740 N737 1.314 . S
C740 C738 1.353 . S
C740 H782 0.930 . S
C741 N737 1.279 . S
C741 C739 1.358 . S
C741 H783 0.930 . S
C742 C743 1.348 . S
C742 C744 1.356 . S
C742 O767 1.325 . S
C743 C742 1.348 . S
C743 C745 1.353 . S
C743 H784 0.929 1_565 S
C744 C742 1.356 . S
C744 C746 1.358 . S
C744 H785 0.930 . S
C745 C743 1.353 . S
C745 N747 1.314 . S
C745 H786 0.930 . S
C746 C744 1.358 . S
C746 N747 1.279 . S
C746 H787 0.930 . S
N747 C745 1.314 . S
N747 C746 1.279 . S
C748 C750 1.353 . S
C748 N751 1.314 1_565 S
C748 H754 0.930 . S
C749 N751 1.279 . S
C749 C752 1.358 . S
C749 H755 0.930 . S
C750 C748 1.353 . S
C750 C753 1.348 1_565 S
C750 H788 0.929 . S
N751 Li706 1.990 . S
N751 C748 1.314 1_545 S
N751 C749 1.279 . S
C752 C749 1.358 . S
C752 C753 1.356 . S
C752 H789 0.930 . S
C753 C750 1.348 1_545 S
C753 C752 1.356 . S
H754 C748 0.930 . S
H755 C749 0.930 . S
C756 N757 1.314 . S
C756 C758 1.353 . S
C756 H762 0.930 . S
N757 Li707 1.990 . S
N757 C756 1.314 . S
N757 C760 1.279 . S
C758 C756 1.353 . S
C758 C761 1.348 . S
C758 H790 0.929 . S
C759 C760 1.358 . S
C759 C761 1.356 . S
C759 H791 0.930 . S
C760 N757 1.279 . S
C760 C759 1.358 . S
C760 H763 0.930 . S
C761 C758 1.348 . S
C761 C759 1.356 . S
H762 C756 0.930 . S
H763 C760 0.930 . S
O764 Li704 1.956 1_565 S
O764 Li705 1.970 . S
O764 Li706 1.961 1_565 S
O764 C708 1.325 . S
O765 Li704 1.975 1_565 S
O765 Li705 1.974 . S
O765 Li707 1.941 1_565 S
O765 C714 1.325 . S
O766 Li704 1.961 . S
O766 Li706 1.956 . S
O766 Li707 1.970 . S
O766 C736 1.325 . S
O767 Li705 1.961 . S
O767 Li706 1.970 1_565 S
O767 Li707 1.956 1_565 S
O767 C742 1.325 . S
H768 C710 0.929 . S
H769 C711 0.930 . S
H770 C712 0.930 . S
H771 C713 0.930 . S
H772 C715 0.930 . S
H773 C717 0.929 . S
H774 C718 0.930 . S
H775 C719 0.930 . S
H776 C722 0.975 . S
H777 C725 0.929 . S
H778 C730 0.929 . S
H779 C731 0.930 . S
H780 C738 0.929 . S
H781 C739 0.930 . S
H782 C740 0.930 . S
H783 C741 0.930 . S
H784 C743 0.929 1_545 S
H785 C744 0.930 . S
H786 C745 0.930 . S
H787 C746 0.930 . S
H788 C750 0.929 . S
H789 C752 0.930 . S
H790 C758 0.929 . S
H791 C759 0.930 . S
Li792 N809 1.990 . S
Li792 O852 1.956 . S
Li792 O853 1.970 . S
Li792 O854 1.961 . S
Li793 N817 1.990 . S
Li793 O852 1.970 . S
Li793 O853 1.956 . S
Li793 O855 1.961 . S
Li794 N839 1.990 . S
Li794 O852 1.961 . S
Li794 O854 1.956 . S
Li794 O855 1.970 . S
Li795 N845 1.990 . S
Li795 O853 1.961 . S
Li795 O854 1.970 . S
Li795 O855 1.956 . S
C796 C798 1.348 . S
C796 C799 1.356 . S
C796 O852 1.325 . S
N797 C800 1.314 . S
N797 C801 1.279 . S
C798 C796 1.348 . S
C798 C800 1.353 . S
C798 H856 0.929 . S
C799 C796 1.356 . S
C799 C801 1.358 . S
C799 H857 0.930 . S
C800 N797 1.314 . S
C800 C798 1.353 . S
C800 H858 0.930 . S
C801 N797 1.279 . S
C801 C799 1.358 . S
C801 H859 0.930 . S
C802 C805 1.348 . S
C802 C806 1.356 . S
C802 O853 1.325 . S
C803 N804 1.279 . S
C803 C806 1.358 . S
C803 H860 0.930 . S
N804 C803 1.279 . S
N804 C807 1.314 . S
C805 C802 1.348 . S
C805 C807 1.353 . S
C805 H861 0.929 . S
C806 C802 1.356 . S
C806 C803 1.358 . S
C806 H862 0.930 . S
C807 N804 1.314 . S
C807 C805 1.353 . S
C807 H863 0.930 . S
C808 N809 1.314 . S
C808 C813 1.353 . S
C808 H814 0.930 . S
N809 Li792 1.990 . S
N809 C808 1.314 . S
N809 C811 1.279 . S
C810 C811 1.358 . S
C810 C812 1.356 . S
C810 H864 0.930 . S
C811 N809 1.279 . S
C811 C810 1.358 . S
C811 H815 0.930 . S
C812 C810 1.356 . S
C812 C813 1.348 . S
C813 C808 1.353 . S
C813 C812 1.348 . S
C813 H865 0.929 . S
H814 C808 0.930 . S
H815 C811 0.930 . S
C816 N817 1.314 . S
C816 C818 1.353 . S
C816 H822 0.930 . S
N817 Li793 1.990 . S
N817 C816 1.314 . S
N817 C820 1.279 . S
C818 C816 1.353 . S
C818 C821 1.348 . S
C818 H866 0.929 . S
C819 C820 1.358 . S
C819 C821 1.356 . S
C819 H867 0.930 . S
C820 N817 1.279 . S
C820 C819 1.358 . S
C820 H823 0.930 . S
C821 C818 1.348 . S
C821 C819 1.356 . S
H822 C816 0.930 . S
H823 C820 0.930 . S
C824 C826 1.348 . S
C824 C827 1.356 . S
C824 O854 1.325 . S
N825 C828 1.314 . S
N825 C829 1.279 . S
C826 C824 1.348 . S
C826 C828 1.353 . S
C826 H868 0.929 . S
C827 C824 1.356 . S
C827 C829 1.358 . S
C827 H869 0.930 . S
C828 N825 1.314 . S
C828 C826 1.353 . S
C828 H870 0.930 . S
C829 N825 1.279 . S
C829 C827 1.358 . S
C829 H871 0.930 . S
C830 C831 1.348 . S
C830 C832 1.356 . S
C830 O855 1.325 . S
C831 C830 1.348 . S
C831 C833 1.353 . S
C831 H872 0.929 . S
C832 C830 1.356 . S
C832 C834 1.358 . S
C832 H873 0.930 . S
C833 C831 1.353 . S
C833 N835 1.314 . S
C833 H874 0.930 . S
C834 C832 1.358 . S
C834 N835 1.279 . S
C834 H875 0.930 . S
N835 C833 1.314 . S
N835 C834 1.279 . S
C836 C838 1.353 . S
C836 N839 1.314 . S
C836 H842 0.930 . S
C837 N839 1.279 . S
C837 C840 1.358 . S
C837 H843 0.930 . S
C838 C836 1.353 . S
C838 C841 1.348 . S
C838 H876 0.929 . S
N839 Li794 1.990 . S
N839 C836 1.314 . S
N839 C837 1.279 . S
C840 C837 1.358 . S
C840 C841 1.356 . S
C840 H877 0.930 . S
C841 C838 1.348 . S
C841 C840 1.356 . S
H842 C836 0.930 . S
H843 C837 0.930 . S
C844 N845 1.314 . S
C844 C846 1.353 . S
C844 H850 0.930 . S
N845 Li795 1.990 . S
N845 C844 1.314 . S
N845 C848 1.279 . S
C846 C844 1.353 . S
C846 C849 1.348 . S
C846 H878 0.929 . S
C847 C848 1.358 . S
C847 C849 1.356 . S
C847 H879 0.930 . S
C848 N845 1.279 . S
C848 C847 1.358 . S
C848 H851 0.930 . S
C849 C846 1.348 . S
C849 C847 1.356 . S
H850 C844 0.930 . S
H851 C848 0.930 . S
O852 Li792 1.956 . S
O852 Li793 1.970 . S
O852 Li794 1.961 . S
O852 C796 1.325 . S
O853 Li792 1.970 . S
O853 Li793 1.956 . S
O853 Li795 1.961 . S
O853 C802 1.325 . S
O854 Li792 1.961 . S
O854 Li794 1.956 . S
O854 Li795 1.970 . S
O854 C824 1.325 . S
O855 Li793 1.961 . S
O855 Li794 1.970 . S
O855 Li795 1.956 . S
O855 C830 1.325 . S
H856 C798 0.929 . S
H857 C799 0.930 . S
H858 C800 0.930 . S
H859 C801 0.930 . S
H860 C803 0.930 . S
H861 C805 0.929 . S
H862 C806 0.930 . S
H863 C807 0.930 . S
H864 C810 0.930 . S
H865 C813 0.929 . S
H866 C818 0.929 . S
H867 C819 0.930 . S
H868 C826 0.929 . S
H869 C827 0.930 . S
H870 C828 0.930 . S
H871 C829 0.930 . S
H872 C831 0.929 . S
H873 C832 0.930 . S
H874 C833 0.930 . S
H875 C834 0.930 . S
H876 C838 0.929 . S
H877 C840 0.930 . S
H878 C846 0.929 . S
H879 C847 0.930 . S
Li880 N897 1.990 . S
Li880 O940 1.956 . S
Li880 O941 1.970 . S
Li880 O942 1.961 . S
Li881 N905 1.990 . S
Li881 O940 1.970 . S
Li881 O941 1.956 . S
Li881 O943 1.961 . S
Li882 N927 1.990 . S
Li882 O940 1.961 . S
Li882 O942 1.956 . S
Li882 O943 1.970 . S
Li883 N933 1.990 . S
Li883 O941 1.961 . S
Li883 O942 1.970 . S
Li883 O943 1.956 . S
C884 C886 1.348 . S
C884 C887 1.356 . S
C884 O940 1.325 . S
N885 C888 1.314 . S
N885 C889 1.279 . S
C886 C884 1.348 . S
C886 C888 1.353 . S
C886 H944 0.929 . S
C887 C884 1.356 . S
C887 C889 1.358 . S
C887 H945 0.930 . S
C888 N885 1.314 . S
C888 C886 1.353 . S
C888 H946 0.930 . S
C889 N885 1.279 . S
C889 C887 1.358 . S
C889 H947 0.930 . S
C890 C893 1.348 . S
C890 C894 1.356 . S
C890 O941 1.325 . S
C891 N892 1.279 . S
C891 C894 1.358 . S
C891 H948 0.930 . S
N892 C891 1.279 . S
N892 C895 1.314 . S
C893 C890 1.348 . S
C893 C895 1.353 . S
C893 H949 0.929 . S
C894 C890 1.356 . S
C894 C891 1.358 . S
C894 H950 0.930 . S
C895 N892 1.314 . S
C895 C893 1.353 . S
C895 H951 0.930 . S
C896 N897 1.314 . S
C896 C901 1.353 . S
C896 H902 0.930 . S
N897 Li880 1.990 . S
N897 C896 1.314 . S
N897 C899 1.279 . S
C898 C899 1.358 . S
C898 C900 1.356 . S
C898 H952 0.930 . S
C899 N897 1.279 . S
C899 C898 1.358 . S
C899 H903 0.930 . S
C900 C898 1.356 . S
C900 C901 1.348 . S
C901 C896 1.353 . S
C901 C900 1.348 . S
C901 H953 0.929 . S
H902 C896 0.930 . S
H903 C899 0.930 . S
C904 N905 1.314 . S
C904 C906 1.353 . S
C904 H910 0.930 . S
N905 Li881 1.990 . S
N905 C904 1.314 . S
N905 C908 1.279 . S
C906 C904 1.353 . S
C906 C909 1.348 . S
C906 H954 0.929 . S
C907 C908 1.358 . S
C907 C909 1.356 . S
C907 H955 0.930 . S
C908 N905 1.279 . S
C908 C907 1.358 . S
C908 H911 0.930 . S
C909 C906 1.348 . S
C909 C907 1.356 . S
H910 C904 0.930 . S
H911 C908 0.930 . S
C912 C914 1.348 . S
C912 C915 1.356 . S
C912 O942 1.325 . S
N913 C916 1.314 . S
N913 C917 1.279 . S
C914 C912 1.348 . S
C914 C916 1.353 . S
C914 H956 0.929 . S
C915 C912 1.356 . S
C915 C917 1.358 . S
C915 H957 0.930 . S
C916 N913 1.314 . S
C916 C914 1.353 . S
C916 H958 0.930 . S
C917 N913 1.279 . S
C917 C915 1.358 . S
C917 H959 0.930 . S
C918 C919 1.348 1_545 S
C918 C920 1.356 1_545 S
C918 O943 1.325 . S
C919 C918 1.348 1_565 S
C919 C921 1.353 . S
C919 H960 0.929 . S
C920 C918 1.356 1_565 S
C920 C922 1.358 . S
C920 H961 0.930 1_565 S
C921 C919 1.353 . S
C921 N923 1.314 . S
C921 H962 0.930 . S
C922 C920 1.358 . S
C922 N923 1.279 . S
C922 H963 0.930 . S
N923 C921 1.314 . S
N923 C922 1.279 . S
C924 C926 1.353 . S
C924 N927 1.314 1_565 S
C924 H930 0.930 1_565 S
C925 N927 1.279 . S
C925 C928 1.358 1_545 S
C925 H931 0.930 . S
C926 C924 1.353 . S
C926 C929 1.348 . S
C926 H964 0.929 . S
N927 Li882 1.990 . S
N927 C924 1.314 1_545 S
N927 C925 1.279 . S
C928 C925 1.358 1_565 S
C928 C929 1.356 . S
C928 H965 0.930 . S
C929 C926 1.348 . S
C929 C928 1.356 . S
H930 C924 0.930 1_545 S
H931 C925 0.930 . S
C932 N933 1.314 . S
C932 C934 1.353 . S
C932 H938 0.930 . S
N933 Li883 1.990 . S
N933 C932 1.314 . S
N933 C936 1.279 . S
C934 C932 1.353 . S
C934 C937 1.348 . S
C934 H966 0.929 . S
C935 C936 1.358 . S
C935 C937 1.356 . S
C935 H967 0.930 1_545 S
C936 N933 1.279 . S
C936 C935 1.358 . S
C936 H939 0.930 . S
C937 C934 1.348 . S
C937 C935 1.356 . S
H938 C932 0.930 . S
H939 C936 0.930 . S
O940 Li880 1.956 . S
O940 Li881 1.970 . S
O940 Li882 1.961 . S
O940 C884 1.325 . S
O941 Li880 1.970 . S
O941 Li881 1.956 . S
O941 Li883 1.961 . S
O941 C890 1.325 . S
O942 Li880 1.961 . S
O942 Li882 1.956 . S
O942 Li883 1.970 . S
O942 C912 1.325 . S
O943 Li881 1.961 . S
O943 Li882 1.970 . S
O943 Li883 1.956 . S
O943 C918 1.325 . S
H944 C886 0.929 . S
H945 C887 0.930 . S
H946 C888 0.930 . S
H947 C889 0.930 . S
H948 C891 0.930 . S
H949 C893 0.929 . S
H950 C894 0.930 . S
H951 C895 0.930 . S
H952 C898 0.930 . S
H953 C901 0.929 . S
H954 C906 0.929 . S
H955 C907 0.930 . S
H956 C914 0.929 . S
H957 C915 0.930 . S
H958 C916 0.930 . S
H959 C917 0.930 . S
H960 C919 0.929 . S
H961 C920 0.930 1_545 S
H962 C921 0.930 . S
H963 C922 0.930 . S
H964 C926 0.929 . S
H965 C928 0.930 . S
H966 C934 0.929 . S
H967 C935 0.930 1_565 S
Li968 N985 1.992 . S
Li968 O1028 1.986 . S
Li968 O1029 1.972 1_554 S
Li968 O1030 1.926 1_554 S
Li969 N993 1.990 . S
Li969 O1028 1.970 . S
Li969 O1029 1.956 1_554 S
Li969 O1031 1.991 . S
Li970 N1015 1.990 . S
Li970 O1028 1.961 . S
Li970 O1030 1.956 1_554 S
Li970 O1031 1.967 . S
Li971 N1021 1.990 . S
Li971 O1029 1.961 . S
Li971 O1030 1.970 . S
Li971 O1031 1.929 1_556 S
C972 C974 1.348 . S
C972 C975 1.356 . S
C972 O1028 1.325 . S
N973 C976 1.314 . S
N973 C977 1.279 . S
C974 C972 1.348 . S
C974 C976 1.353 . S
C974 H1032 0.929 . S
C975 C972 1.356 . S
C975 C977 1.358 . S
C975 H1033 0.930 . S
C976 N973 1.314 . S
C976 C974 1.353 . S
C976 H1034 0.930 . S
C977 N973 1.279 . S
C977 C975 1.358 . S
C977 H1035 0.930 1_565 S
C978 C981 1.346 . S
C978 C982 1.356 . S
C978 O1029 1.325 . S
C979 N980 1.279 . S
C979 C982 1.358 . S
C979 H1036 0.930 . S
N980 C979 1.279 . S
N980 C983 1.314 . S
C981 C978 1.346 . S
C981 C983 1.353 . S
C981 H1037 0.931 1_556 S
C982 C978 1.356 . S
C982 C979 1.358 . S
C982 H1038 0.930 . S
C983 N980 1.314 . S
C983 C981 1.353 . S
C983 H1039 0.919 1_556 S
C984 N985 1.314 1_556 S
C984 C989 1.353 . S
C984 H990 0.930 . S
N985 Li968 1.992 . S
N985 C984 1.314 1_554 S
N985 C987 1.279 . S
C986 C987 1.358 . S
C986 C988 1.360 . S
C986 H1040 0.930 . S
C987 N985 1.279 . S
C987 C986 1.358 . S
C987 H991 0.930 . S
C988 C986 1.360 . S
C988 C989 1.343 1_554 S
C989 C984 1.353 . S
C989 C988 1.343 1_556 S
C989 H1041 0.929 . S
H990 C984 0.930 . S
H991 C987 0.930 . S
C992 N993 1.314 . S
C992 C994 1.353 . S
C992 H998 0.930 . S
N993 Li969 1.990 . S
N993 C992 1.314 . S
N993 C996 1.279 . S
C994 C992 1.353 . S
C994 C997 1.348 . S
C994 H1042 0.929 . S
C995 C996 1.358 . S
C995 C997 1.356 . S
C995 H1043 0.930 . S
C996 N993 1.279 . S
C996 C995 1.358 . S
C996 H999 0.930 . S
C997 C994 1.348 . S
C997 C995 1.356 . S
H998 C992 0.930 . S
H999 C996 0.930 . S
C1000 C1002 1.348 . S
C1000 C1003 1.356 . S
C1000 O1030 1.325 . S
N1001 C1004 1.314 . S
N1001 C1005 1.279 . S
C1002 C1000 1.348 . S
C1002 C1004 1.353 . S
C1002 H1044 0.929 . S
C1003 C1000 1.356 . S
C1003 C1005 1.358 . S
C1003 H1045 0.930 . S
C1004 N1001 1.314 . S
C1004 C1002 1.353 . S
C1004 H1046 0.930 . S
C1005 N1001 1.279 . S
C1005 C1003 1.358 . S
C1005 H1047 0.908 1_565 S
C1006 C1007 1.347 1_554 S
C1006 C1008 1.357 . S
C1006 O1031 1.324 . S
C1007 C1006 1.347 1_556 S
C1007 C1009 1.353 . S
C1007 H1048 0.929 . S
C1008 C1006 1.357 . S
C1008 C1010 1.358 . S
C1008 H1049 0.930 . S
C1009 C1007 1.353 . S
C1009 N1011 1.314 . S
C1009 H1050 0.930 . S
C1010 C1008 1.358 . S
C1010 N1011 1.279 1_554 S
C1010 H1051 0.930 . S
N1011 C1009 1.314 . S
N1011 C1010 1.279 1_556 S
C1012 C1014 1.353 . S
C1012 N1015 1.314 . S
C1012 H1018 0.930 . S
C1013 N1015 1.279 1_556 S
C1013 C1016 1.358 . S
C1013 H1019 0.930 . S
C1014 C1012 1.353 . S
C1014 C1017 1.348 . S
C1014 H1052 0.929 . S
N1015 Li970 1.990 . S
N1015 C1012 1.314 . S
N1015 C1013 1.279 1_554 S
C1016 C1013 1.358 . S
C1016 C1017 1.356 1_556 S
C1016 H1053 0.950 . S
C1017 C1014 1.348 . S
C1017 C1016 1.356 1_554 S
H1018 C1012 0.930 . S
H1019 C1013 0.930 . S
C1020 N1021 1.314 . S
C1020 C1022 1.353 . S
C1020 H1026 0.930 . S
N1021 Li971 1.990 . S
N1021 C1020 1.314 . S
N1021 C1024 1.279 . S
C1022 C1020 1.353 . S
C1022 C1025 1.348 . S
C1022 H1054 0.929 . S
C1023 C1024 1.358 . S
C1023 C1025 1.356 . S
C1023 H1055 0.930 . S
C1024 N1021 1.279 . S
C1024 C1023 1.358 . S
C1024 H1027 0.930 . S
C1025 C1022 1.348 . S
C1025 C1023 1.356 . S
H1026 C1020 0.930 . S
H1027 C1024 0.930 . S
O1028 Li968 1.986 . S
O1028 Li969 1.970 . S
O1028 Li970 1.961 . S
O1028 C972 1.325 . S
O1029 Li968 1.972 1_556 S
O1029 Li969 1.956 1_556 S
O1029 Li971 1.961 . S
O1029 C978 1.325 . S
O1030 Li968 1.926 1_556 S
O1030 Li970 1.956 1_556 S
O1030 Li971 1.970 . S
O1030 C1000 1.325 . S
O1031 Li969 1.991 . S
O1031 Li970 1.967 . S
O1031 Li971 1.929 1_554 S
O1031 C1006 1.324 . S
H1032 C974 0.929 . S
H1033 C975 0.930 . S
H1034 C976 0.930 . S
H1035 C977 0.930 1_545 S
H1036 C979 0.930 . S
H1037 C981 0.931 1_554 S
H1038 C982 0.930 . S
H1039 C983 0.919 1_554 S
H1040 C986 0.930 . S
H1041 C989 0.929 . S
H1042 C994 0.929 . S
H1043 C995 0.930 . S
H1044 C1002 0.929 . S
H1045 C1003 0.930 . S
H1046 C1004 0.930 . S
H1047 C1005 0.908 1_545 S
H1048 C1007 0.929 . S
H1049 C1008 0.930 . S
H1050 C1009 0.930 . S
H1051 C1010 0.930 . S
H1052 C1014 0.929 . S
H1053 C1016 0.950 . S
H1054 C1022 0.929 . S
H1055 C1023 0.930 . S
Li1056 N1073 1.990 . S
Li1056 O1116 1.956 . S
Li1056 O1117 1.970 . S
Li1056 O1118 1.961 . S
Li1057 N1081 1.990 . S
Li1057 O1116 1.970 . S
Li1057 O1117 1.956 . S
Li1057 O1119 1.961 . S
Li1058 N1103 1.990 . S
Li1058 O1116 1.961 . S
Li1058 O1118 1.956 . S
Li1058 O1119 1.970 . S
Li1059 N1109 1.990 1_554 S
Li1059 O1117 1.961 . S
Li1059 O1118 1.970 . S
Li1059 O1119 1.956 . S
C1060 C1062 1.348 . S
C1060 C1063 1.356 . S
C1060 O1116 1.325 . S
N1061 C1064 1.314 . S
N1061 C1065 1.279 . S
C1062 C1060 1.348 . S
C1062 C1064 1.353 . S
C1062 H1120 0.929 . S
C1063 C1060 1.356 . S
C1063 C1065 1.358 . S
C1063 H1121 0.930 . S
C1064 N1061 1.314 . S
C1064 C1062 1.353 . S
C1064 H1122 0.930 . S
C1065 N1061 1.279 . S
C1065 C1063 1.358 . S
C1065 H1123 0.930 . S
C1066 C1069 1.348 . S
C1066 C1070 1.356 . S
C1066 O1117 1.325 . S
C1067 N1068 1.279 . S
C1067 C1070 1.358 . S
C1067 H1124 0.930 . S
N1068 C1067 1.279 . S
N1068 C1071 1.314 . S
C1069 C1066 1.348 . S
C1069 C1071 1.353 . S
C1069 H1125 0.929 . S
C1070 C1066 1.356 . S
C1070 C1067 1.358 . S
C1070 H1126 0.930 . S
C1071 N1068 1.314 . S
C1071 C1069 1.353 . S
C1071 H1127 0.930 . S
C1072 N1073 1.314 . S
C1072 C1077 1.353 . S
C1072 H1078 0.930 . S
N1073 Li1056 1.990 . S
N1073 C1072 1.314 . S
N1073 C1075 1.279 . S
C1074 C1075 1.358 . S
C1074 C1076 1.356 . S
C1074 H1128 0.930 . S
C1075 N1073 1.279 . S
C1075 C1074 1.358 . S
C1075 H1079 0.930 . S
C1076 C1074 1.356 . S
C1076 C1077 1.348 . S
C1077 C1072 1.353 . S
C1077 C1076 1.348 . S
C1077 H1129 0.965 . S
H1078 C1072 0.930 . S
H1079 C1075 0.930 . S
C1080 N1081 1.314 . S
C1080 C1082 1.353 . S
C1080 H1086 0.930 . S
N1081 Li1057 1.990 . S
N1081 C1080 1.314 . S
N1081 C1084 1.279 . S
C1082 C1080 1.353 . S
C1082 C1085 1.348 . S
C1082 H1130 0.929 . S
C1083 C1084 1.358 . S
C1083 C1085 1.356 . S
C1083 H1131 0.930 . S
C1084 N1081 1.279 . S
C1084 C1083 1.358 . S
C1084 H1087 0.930 . S
C1085 C1082 1.348 . S
C1085 C1083 1.356 . S
H1086 C1080 0.930 . S
H1087 C1084 0.930 . S
C1088 C1090 1.348 . S
C1088 C1091 1.356 . S
C1088 O1118 1.325 1_556 S
N1089 C1092 1.314 . S
N1089 C1093 1.279 . S
C1090 C1088 1.348 . S
C1090 C1092 1.353 . S
C1090 H1132 0.929 . S
C1091 C1088 1.356 . S
C1091 C1093 1.358 . S
C1091 H1133 0.930 1_556 S
C1092 N1089 1.314 . S
C1092 C1090 1.353 . S
C1092 H1134 0.930 . S
C1093 N1089 1.279 . S
C1093 C1091 1.358 . S
C1093 H1135 0.930 . S
C1094 C1095 1.348 . S
C1094 C1096 1.356 . S
C1094 O1119 1.325 . S
C1095 C1094 1.348 . S
C1095 C1097 1.353 . S
C1095 H1136 0.929 . S
C1096 C1094 1.356 . S
C1096 C1098 1.358 . S
C1096 H1137 0.930 . S
C1097 C1095 1.353 . S
C1097 N1099 1.314 . S
C1097 H1138 0.930 . S
C1098 C1096 1.358 . S
C1098 N1099 1.279 . S
C1098 H1139 0.930 . S
N1099 C1097 1.314 . S
N1099 C1098 1.279 . S
C1100 C1102 1.353 . S
C1100 N1103 1.314 . S
C1100 H1106 0.930 . S
C1101 N1103 1.279 . S
C1101 C1104 1.358 . S
C1101 H1107 0.930 . S
C1102 C1100 1.353 . S
C1102 C1105 1.348 . S
C1102 H1140 0.929 . S
N1103 Li1058 1.990 . S
N1103 C1100 1.314 . S
N1103 C1101 1.279 . S
C1104 C1101 1.358 . S
C1104 C1105 1.356 . S
C1104 H1141 0.930 . S
C1105 C1102 1.348 . S
C1105 C1104 1.356 . S
H1106 C1100 0.930 . S
H1107 C1101 0.930 . S
C1108 N1109 1.314 . S
C1108 C1110 1.353 . S
C1108 H1114 0.930 . S
N1109 Li1059 1.990 1_556 S
N1109 C1108 1.314 . S
N1109 C1112 1.279 . S
C1110 C1108 1.353 . S
C1110 C1113 1.348 . S
C1110 H1142 0.929 . S
C1111 C1112 1.358 . S
C1111 C1113 1.356 . S
C1111 H1143 0.930 . S
C1112 N1109 1.279 . S
C1112 C1111 1.358 . S
C1112 H1115 0.930 . S
C1113 C1110 1.348 . S
C1113 C1111 1.356 . S
H1114 C1108 0.930 . S
H1115 C1112 0.930 . S
O1116 Li1056 1.956 . S
O1116 Li1057 1.970 . S
O1116 Li1058 1.961 . S
O1116 C1060 1.325 . S
O1117 Li1056 1.970 . S
O1117 Li1057 1.956 . S
O1117 Li1059 1.961 . S
O1117 C1066 1.325 . S
O1118 Li1056 1.961 . S
O1118 Li1058 1.956 . S
O1118 Li1059 1.970 . S
O1118 C1088 1.325 1_554 S
O1119 Li1057 1.961 . S
O1119 Li1058 1.970 . S
O1119 Li1059 1.956 . S
O1119 C1094 1.325 . S
H1120 C1062 0.929 . S
H1121 C1063 0.930 . S
H1122 C1064 0.930 . S
H1123 C1065 0.930 . S
H1124 C1067 0.930 . S
H1125 C1069 0.929 . S
H1126 C1070 0.930 . S
H1127 C1071 0.930 . S
H1128 C1074 0.930 . S
H1129 C1077 0.965 . S
H1130 C1082 0.929 . S
H1131 C1083 0.930 . S
H1132 C1090 0.929 . S
H1133 C1091 0.930 1_554 S
H1134 C1092 0.930 . S
H1135 C1093 0.930 . S
H1136 C1095 0.929 . S
H1137 C1096 0.930 . S
H1138 C1097 0.930 . S
H1139 C1098 0.930 . S
H1140 C1102 0.929 . S
H1141 C1104 0.930 . S
H1142 C1110 0.929 . S
H1143 C1111 0.930 . S
Li1144 N1161 1.990 . S
Li1144 O1204 1.956 . S
Li1144 O1205 1.970 . S
Li1144 O1206 1.961 . S
Li1145 N1169 1.990 . S
Li1145 O1204 1.970 . S
Li1145 O1205 1.956 . S
Li1145 O1207 1.961 . S
Li1146 N1191 1.990 . S
Li1146 O1204 1.961 . S
Li1146 O1206 1.956 . S
Li1146 O1207 1.970 . S
Li1147 N1197 1.990 . S
Li1147 O1205 1.961 . S
Li1147 O1206 1.970 . S
Li1147 O1207 1.956 . S
C1148 C1150 1.348 . S
C1148 C1151 1.356 . S
C1148 O1204 1.325 . S
N1149 C1152 1.314 . S
N1149 C1153 1.279 . S
C1150 C1148 1.348 . S
C1150 C1152 1.353 . S
C1150 H1208 0.929 . S
C1151 C1148 1.356 . S
C1151 C1153 1.358 . S
C1151 H1209 0.930 . S
C1152 N1149 1.314 . S
C1152 C1150 1.353 . S
C1152 H1210 0.930 . S
C1153 N1149 1.279 . S
C1153 C1151 1.358 . S
C1153 H1211 0.930 . S
C1154 C1157 1.348 . S
C1154 C1158 1.356 . S
C1154 O1205 1.325 . S
C1155 N1156 1.279 . S
C1155 C1158 1.358 . S
C1155 H1212 0.930 . S
N1156 C1155 1.279 . S
N1156 C1159 1.314 . S
C1157 C1154 1.348 . S
C1157 C1159 1.353 . S
C1157 H1213 0.929 . S
C1158 C1154 1.356 . S
C1158 C1155 1.358 . S
C1158 H1214 0.930 . S
C1159 N1156 1.314 . S
C1159 C1157 1.353 . S
C1159 H1215 0.930 . S
C1160 N1161 1.314 . S
C1160 C1165 1.353 . S
C1160 H1166 0.930 . S
N1161 Li1144 1.990 . S
N1161 C1160 1.314 . S
N1161 C1163 1.279 . S
C1162 C1163 1.358 . S
C1162 C1164 1.356 . S
C1162 H1216 0.930 . S
C1163 N1161 1.279 . S
C1163 C1162 1.358 . S
C1163 H1167 0.930 . S
C1164 C1162 1.356 . S
C1164 C1165 1.348 . S
C1165 C1160 1.353 . S
C1165 C1164 1.348 . S
C1165 H1217 0.929 . S
H1166 C1160 0.930 . S
H1167 C1163 0.930 . S
C1168 N1169 1.314 . S
C1168 C1170 1.353 . S
C1168 H1174 0.930 . S
N1169 Li1145 1.990 . S
N1169 C1168 1.314 . S
N1169 C1172 1.279 . S
C1170 C1168 1.353 . S
C1170 C1173 1.348 . S
C1170 H1218 0.929 . S
C1171 C1172 1.358 . S
C1171 C1173 1.356 . S
C1171 H1219 0.930 . S
C1172 N1169 1.279 . S
C1172 C1171 1.358 . S
C1172 H1175 0.930 . S
C1173 C1170 1.348 . S
C1173 C1171 1.356 . S
H1174 C1168 0.930 . S
H1175 C1172 0.930 . S
C1176 C1178 1.348 . S
C1176 C1179 1.356 . S
C1176 O1206 1.325 . S
N1177 C1180 1.314 . S
N1177 C1181 1.279 . S
C1178 C1176 1.348 . S
C1178 C1180 1.353 . S
C1178 H1220 0.929 . S
C1179 C1176 1.356 . S
C1179 C1181 1.358 . S
C1179 H1221 0.930 . S
C1180 N1177 1.314 . S
C1180 C1178 1.353 . S
C1180 H1222 0.930 . S
C1181 N1177 1.279 . S
C1181 C1179 1.358 . S
C1181 H1223 0.930 . S
C1182 C1183 1.348 1_554 S
C1182 C1184 1.356 . S
C1182 O1207 1.325 . S
C1183 C1182 1.348 1_556 S
C1183 C1185 1.353 . S
C1183 H1224 0.929 . S
C1184 C1182 1.356 . S
C1184 C1186 1.358 1_554 S
C1184 H1225 0.930 . S
C1185 C1183 1.353 . S
C1185 N1187 1.314 . S
C1185 H1226 0.930 . S
C1186 C1184 1.358 1_556 S
C1186 N1187 1.279 . S
C1186 H1227 0.930 . S
N1187 C1185 1.314 . S
N1187 C1186 1.279 . S
C1188 C1190 1.353 1_554 S
C1188 N1191 1.314 . S
C1188 H1194 0.930 . S
C1189 N1191 1.279 . S
C1189 C1192 1.358 1_554 S
C1189 H1195 0.930 . S
C1190 C1188 1.353 1_556 S
C1190 C1193 1.348 . S
C1190 H1228 0.929 . S
N1191 Li1146 1.990 . S
N1191 C1188 1.314 . S
N1191 C1189 1.279 . S
C1192 C1189 1.358 1_556 S
C1192 C1193 1.356 . S
C1192 H1229 0.930 . S
C1193 C1190 1.348 . S
C1193 C1192 1.356 . S
H1194 C1188 0.930 . S
H1195 C1189 0.930 . S
C1196 N1197 1.314 . S
C1196 C1198 1.353 . S
C1196 H1202 0.930 . S
N1197 Li1147 1.990 . S
N1197 C1196 1.314 . S
N1197 C1200 1.279 . S
C1198 C1196 1.353 . S
C1198 C1201 1.348 . S
C1198 H1230 0.929 . S
C1199 C1200 1.358 . S
C1199 C1201 1.356 . S
C1199 H1231 0.930 . S
C1200 N1197 1.279 . S
C1200 C1199 1.358 . S
C1200 H1203 0.930 . S
C1201 C1198 1.348 . S
C1201 C1199 1.356 . S
H1202 C1196 0.930 . S
H1203 C1200 0.930 . S
O1204 Li1144 1.956 . S
O1204 Li1145 1.970 . S
O1204 Li1146 1.961 . S
O1204 C1148 1.325 . S
O1205 Li1144 1.970 . S
O1205 Li1145 1.956 . S
O1205 Li1147 1.961 . S
O1205 C1154 1.325 . S
O1206 Li1144 1.961 . S
O1206 Li1146 1.956 . S
O1206 Li1147 1.970 . S
O1206 C1176 1.325 . S
O1207 Li1145 1.961 . S
O1207 Li1146 1.970 . S
O1207 Li1147 1.956 . S
O1207 C1182 1.325 . S
H1208 C1150 0.929 . S
H1209 C1151 0.930 . S
H1210 C1152 0.930 . S
H1211 C1153 0.930 . S
H1212 C1155 0.930 . S
H1213 C1157 0.929 . S
H1214 C1158 0.930 . S
H1215 C1159 0.930 . S
H1216 C1162 0.930 . S
H1217 C1165 0.929 . S
H1218 C1170 0.929 . S
H1219 C1171 0.930 . S
H1220 C1178 0.929 . S
H1221 C1179 0.930 . S
H1222 C1180 0.930 . S
H1223 C1181 0.930 . S
H1224 C1183 0.929 . S
H1225 C1184 0.930 . S
H1226 C1185 0.930 . S
H1227 C1186 0.930 . S
H1228 C1190 0.929 . S
H1229 C1192 0.930 . S
H1230 C1198 0.929 . S
H1231 C1199 0.930 . S
Li1232 N1249 1.990 . S
Li1232 O1292 1.956 . S
Li1232 O1293 1.970 . S
Li1232 O1294 1.961 . S
Li1233 N1257 1.990 . S
Li1233 O1292 1.970 . S
Li1233 O1293 1.956 . S
Li1233 O1295 1.961 . S
Li1234 N1279 1.990 . S
Li1234 O1292 1.961 . S
Li1234 O1294 1.956 . S
Li1234 O1295 1.970 . S
Li1235 N1285 1.990 . S
Li1235 O1293 1.961 . S
Li1235 O1294 1.970 . S
Li1235 O1295 1.956 . S
C1236 C1238 1.348 . S
C1236 C1239 1.356 . S
C1236 O1292 1.325 . S
N1237 C1240 1.314 . S
N1237 C1241 1.279 . S
C1238 C1236 1.348 . S
C1238 C1240 1.353 . S
C1238 H1296 0.929 . S
C1239 C1236 1.356 . S
C1239 C1241 1.358 . S
C1239 H1297 0.930 . S
C1240 N1237 1.314 . S
C1240 C1238 1.353 . S
C1240 H1298 0.930 . S
C1241 N1237 1.279 . S
C1241 C1239 1.358 . S
C1241 H1299 0.930 . S
C1242 C1245 1.348 . S
C1242 C1246 1.356 . S
C1242 O1293 1.325 . S
C1243 N1244 1.279 . S
C1243 C1246 1.358 . S
C1243 H1300 0.930 . S
N1244 C1243 1.279 . S
N1244 C1247 1.314 . S
C1245 C1242 1.348 . S
C1245 C1247 1.353 . S
C1245 H1301 0.929 . S
C1246 C1242 1.356 . S
C1246 C1243 1.358 . S
C1246 H1302 0.930 . S
C1247 N1244 1.314 . S
C1247 C1245 1.353 . S
C1247 H1303 0.930 . S
C1248 N1249 1.314 . S
C1248 C1253 1.353 . S
C1248 H1254 0.930 . S
N1249 Li1232 1.990 . S
N1249 C1248 1.314 . S
N1249 C1251 1.279 . S
C1250 C1251 1.358 . S
C1250 C1252 1.356 . S
C1250 H1304 0.930 . S
C1251 N1249 1.279 . S
C1251 C1250 1.358 . S
C1251 H1255 0.930 . S
C1252 C1250 1.356 . S
C1252 C1253 1.348 . S
C1253 C1248 1.353 . S
C1253 C1252 1.348 . S
C1253 H1305 0.929 . S
H1254 C1248 0.930 . S
H1255 C1251 0.930 . S
C1256 N1257 1.314 . S
C1256 C1258 1.353 . S
C1256 H1262 0.930 . S
N1257 Li1233 1.990 . S
N1257 C1256 1.314 . S
N1257 C1260 1.279 . S
C1258 C1256 1.353 . S
C1258 C1261 1.348 . S
C1258 H1306 0.929 . S
C1259 C1260 1.358 . S
C1259 C1261 1.356 . S
C1259 H1307 0.930 . S
C1260 N1257 1.279 . S
C1260 C1259 1.358 . S
C1260 H1263 0.930 . S
C1261 C1258 1.348 . S
C1261 C1259 1.356 . S
H1262 C1256 0.930 . S
H1263 C1260 0.930 . S
C1264 C1266 1.348 . S
C1264 C1267 1.356 . S
C1264 O1294 1.325 . S
N1265 C1268 1.314 . S
N1265 C1269 1.279 . S
C1266 C1264 1.348 . S
C1266 C1268 1.353 . S
C1266 H1308 0.929 . S
C1267 C1264 1.356 . S
C1267 C1269 1.358 . S
C1267 H1309 0.930 . S
C1268 N1265 1.314 . S
C1268 C1266 1.353 . S
C1268 H1310 0.930 . S
C1269 N1265 1.279 . S
C1269 C1267 1.358 . S
C1269 H1311 0.930 . S
C1270 C1271 1.348 . S
C1270 C1272 1.356 . S
C1270 O1295 1.325 . S
C1271 C1270 1.348 . S
C1271 C1273 1.353 . S
C1271 H1312 0.929 . S
C1272 C1270 1.356 . S
C1272 C1274 1.358 . S
C1272 H1313 0.930 . S
C1273 C1271 1.353 . S
C1273 N1275 1.314 . S
C1273 H1314 0.930 . S
C1274 C1272 1.358 . S
C1274 N1275 1.279 . S
C1274 H1315 0.930 . S
N1275 C1273 1.314 . S
N1275 C1274 1.279 . S
C1276 C1278 1.353 . S
C1276 N1279 1.314 . S
C1276 H1282 0.930 . S
C1277 N1279 1.279 . S
C1277 C1280 1.358 . S
C1277 H1283 0.930 . S
C1278 C1276 1.353 . S
C1278 C1281 1.348 . S
C1278 H1316 0.929 . S
N1279 Li1234 1.990 . S
N1279 C1276 1.314 . S
N1279 C1277 1.279 . S
C1280 C1277 1.358 . S
C1280 C1281 1.356 . S
C1280 H1317 0.930 . S
C1281 C1278 1.348 . S
C1281 C1280 1.356 . S
H1282 C1276 0.930 . S
H1283 C1277 0.930 . S
C1284 N1285 1.314 . S
C1284 C1286 1.353 . S
C1284 H1290 0.930 . S
N1285 Li1235 1.990 . S
N1285 C1284 1.314 . S
N1285 C1288 1.279 . S
C1286 C1284 1.353 . S
C1286 C1289 1.348 . S
C1286 H1318 0.929 . S
C1287 C1288 1.358 . S
C1287 C1289 1.356 . S
C1287 H1319 0.930 . S
C1288 N1285 1.279 . S
C1288 C1287 1.358 . S
C1288 H1291 0.930 . S
C1289 C1286 1.348 . S
C1289 C1287 1.356 . S
H1290 C1284 0.930 . S
H1291 C1288 0.930 . S
O1292 Li1232 1.956 . S
O1292 Li1233 1.970 . S
O1292 Li1234 1.961 . S
O1292 C1236 1.325 . S
O1293 Li1232 1.970 . S
O1293 Li1233 1.956 . S
O1293 Li1235 1.961 . S
O1293 C1242 1.325 . S
O1294 Li1232 1.961 . S
O1294 Li1234 1.956 . S
O1294 Li1235 1.970 . S
O1294 C1264 1.325 . S
O1295 Li1233 1.961 . S
O1295 Li1234 1.970 . S
O1295 Li1235 1.956 . S
O1295 C1270 1.325 . S
H1296 C1238 0.929 . S
H1297 C1239 0.930 . S
H1298 C1240 0.930 . S
H1299 C1241 0.930 . S
H1300 C1243 0.930 . S
H1301 C1245 0.929 . S
H1302 C1246 0.930 . S
H1303 C1247 0.930 . S
H1304 C1250 0.930 . S
H1305 C1253 0.929 . S
H1306 C1258 0.929 . S
H1307 C1259 0.930 . S
H1308 C1266 0.929 . S
H1309 C1267 0.930 . S
H1310 C1268 0.930 . S
H1311 C1269 0.930 . S
H1312 C1271 0.929 . S
H1313 C1272 0.930 . S
H1314 C1273 0.930 . S
H1315 C1274 0.930 . S
H1316 C1278 0.929 . S
H1317 C1280 0.930 . S
H1318 C1286 0.929 . S
H1319 C1287 0.930 . S
Li1320 N1337 1.990 . S
Li1320 O1380 1.956 . S
Li1320 O1381 1.970 . S
Li1320 O1382 1.961 . S
Li1321 N1345 1.990 . S
Li1321 O1380 1.970 . S
Li1321 O1381 1.956 . S
Li1321 O1383 1.961 . S
Li1322 N1367 1.990 . S
Li1322 O1380 1.961 . S
Li1322 O1382 1.956 . S
Li1322 O1383 1.970 . S
Li1323 N1373 1.990 . S
Li1323 O1381 1.961 . S
Li1323 O1382 1.970 . S
Li1323 O1383 1.956 . S
C1324 C1326 1.348 . S
C1324 C1327 1.356 . S
C1324 O1380 1.325 . S
N1325 C1328 1.314 . S
N1325 C1329 1.279 . S
C1326 C1324 1.348 . S
C1326 C1328 1.353 . S
C1326 H1384 0.929 . S
C1327 C1324 1.356 . S
C1327 C1329 1.358 . S
C1327 H1385 0.930 . S
C1328 N1325 1.314 . S
C1328 C1326 1.353 . S
C1328 H1386 0.930 . S
C1329 N1325 1.279 . S
C1329 C1327 1.358 . S
C1329 H1387 0.930 . S
C1330 C1333 1.348 . S
C1330 C1334 1.356 . S
C1330 O1381 1.325 . S
C1331 N1332 1.279 . S
C1331 C1334 1.358 . S
C1331 H1388 0.930 . S
N1332 C1331 1.279 . S
N1332 C1335 1.314 . S
C1333 C1330 1.348 . S
C1333 C1335 1.353 . S
C1333 H1389 0.929 . S
C1334 C1330 1.356 . S
C1334 C1331 1.358 . S
C1334 H1390 0.930 . S
C1335 N1332 1.314 . S
C1335 C1333 1.353 . S
C1335 H1391 0.930 . S
C1336 N1337 1.314 . S
C1336 C1341 1.353 . S
C1336 H1342 0.930 . S
N1337 Li1320 1.990 . S
N1337 C1336 1.314 . S
N1337 C1339 1.279 . S
C1338 C1339 1.358 . S
C1338 C1340 1.356 . S
C1338 H1392 0.930 . S
C1339 N1337 1.279 . S
C1339 C1338 1.358 . S
C1339 H1343 0.930 . S
C1340 C1338 1.356 . S
C1340 C1341 1.348 . S
C1341 C1336 1.353 . S
C1341 C1340 1.348 . S
C1341 H1393 0.929 . S
H1342 C1336 0.930 . S
H1343 C1339 0.930 . S
C1344 N1345 1.314 . S
C1344 C1346 1.353 . S
C1344 H1350 0.930 . S
N1345 Li1321 1.990 . S
N1345 C1344 1.314 . S
N1345 C1348 1.279 . S
C1346 C1344 1.353 . S
C1346 C1349 1.348 . S
C1346 H1394 0.929 . S
C1347 C1348 1.358 . S
C1347 C1349 1.356 . S
C1347 H1395 0.930 . S
C1348 N1345 1.279 . S
C1348 C1347 1.358 . S
C1348 H1351 0.930 . S
C1349 C1346 1.348 . S
C1349 C1347 1.356 . S
H1350 C1344 0.930 . S
H1351 C1348 0.930 . S
C1352 C1354 1.348 . S
C1352 C1355 1.356 . S
C1352 O1382 1.325 . S
N1353 C1356 1.314 . S
N1353 C1357 1.279 . S
C1354 C1352 1.348 . S
C1354 C1356 1.353 . S
C1354 H1396 0.929 . S
C1355 C1352 1.356 . S
C1355 C1357 1.358 . S
C1355 H1397 0.930 . S
C1356 N1353 1.314 . S
C1356 C1354 1.353 . S
C1356 H1398 0.930 . S
C1357 N1353 1.279 . S
C1357 C1355 1.358 . S
C1357 H1399 0.930 . S
C1358 C1359 1.348 . S
C1358 C1360 1.356 . S
C1358 O1383 1.325 . S
C1359 C1358 1.348 . S
C1359 C1361 1.353 . S
C1359 H1400 0.929 . S
C1360 C1358 1.356 . S
C1360 C1362 1.358 . S
C1360 H1401 0.930 . S
C1361 C1359 1.353 . S
C1361 N1363 1.314 . S
C1361 H1402 0.930 . S
C1362 C1360 1.358 . S
C1362 N1363 1.279 . S
C1362 H1403 0.930 . S
N1363 C1361 1.314 . S
N1363 C1362 1.279 . S
C1364 C1366 1.353 . S
C1364 N1367 1.314 . S
C1364 H1370 0.930 . S
C1365 N1367 1.279 . S
C1365 C1368 1.358 . S
C1365 H1371 0.930 . S
C1366 C1364 1.353 . S
C1366 C1369 1.348 . S
C1366 H1404 0.929 . S
N1367 Li1322 1.990 . S
N1367 C1364 1.314 . S
N1367 C1365 1.279 . S
C1368 C1365 1.358 . S
C1368 C1369 1.356 . S
C1368 H1405 0.930 . S
C1369 C1366 1.348 . S
C1369 C1368 1.356 . S
H1370 C1364 0.930 . S
H1371 C1365 0.930 . S
C1372 N1373 1.314 . S
C1372 C1374 1.353 . S
C1372 H1378 0.930 . S
N1373 Li1323 1.990 . S
N1373 C1372 1.314 . S
N1373 C1376 1.279 . S
C1374 C1372 1.353 . S
C1374 C1377 1.348 . S
C1374 H1406 0.929 . S
C1375 C1376 1.358 . S
C1375 C1377 1.356 . S
C1375 H1407 0.930 . S
C1376 N1373 1.279 . S
C1376 C1375 1.358 . S
C1376 H1379 0.930 . S
C1377 C1374 1.348 . S
C1377 C1375 1.356 . S
H1378 C1372 0.930 . S
H1379 C1376 0.930 . S
O1380 Li1320 1.956 . S
O1380 Li1321 1.970 . S
O1380 Li1322 1.961 . S
O1380 C1324 1.325 . S
O1381 Li1320 1.970 . S
O1381 Li1321 1.956 . S
O1381 Li1323 1.961 . S
O1381 C1330 1.325 . S
O1382 Li1320 1.961 . S
O1382 Li1322 1.956 . S
O1382 Li1323 1.970 . S
O1382 C1352 1.325 . S
O1383 Li1321 1.961 . S
O1383 Li1322 1.970 . S
O1383 Li1323 1.956 . S
O1383 C1358 1.325 . S
H1384 C1326 0.929 . S
H1385 C1327 0.930 . S
H1386 C1328 0.930 . S
H1387 C1329 0.930 . S
H1388 C1331 0.930 . S
H1389 C1333 0.929 . S
H1390 C1334 0.930 . S
H1391 C1335 0.930 . S
H1392 C1338 0.930 . S
H1393 C1341 0.929 . S
H1394 C1346 0.929 . S
H1395 C1347 0.930 . S
H1396 C1354 0.929 . S
H1397 C1355 0.930 . S
H1398 C1356 0.930 . S
H1399 C1357 0.930 . S
H1400 C1359 0.929 . S
H1401 C1360 0.930 . S
H1402 C1361 0.930 . S
H1403 C1362 0.930 . S
H1404 C1366 0.929 . S
H1405 C1368 0.930 . S
H1406 C1374 0.929 . S
H1407 C1375 0.930 . S
Li1408 N1425 1.990 . S
Li1408 O1468 1.956 . S
Li1408 O1469 1.970 . S
Li1408 O1470 1.961 . S
Li1409 N1433 1.990 1_545 S
Li1409 O1468 1.970 . S
Li1409 O1469 1.956 . S
Li1409 O1471 1.961 . S
Li1410 N1455 1.990 . S
Li1410 O1468 1.961 . S
Li1410 O1470 1.956 . S
Li1410 O1471 1.970 . S
Li1411 N1461 1.990 . S
Li1411 O1469 1.961 . S
Li1411 O1470 1.970 . S
Li1411 O1471 1.956 . S
C1412 C1414 1.348 . S
C1412 C1415 1.356 1_565 S
C1412 O1468 1.325 1_565 S
N1413 C1416 1.314 . S
N1413 C1417 1.279 1_655 S
C1414 C1412 1.348 . S
C1414 C1416 1.353 . S
C1414 H1472 0.929 . S
C1415 C1412 1.356 1_545 S
C1415 C1417 1.351 1_645 S
C1415 H1473 0.937 1_655 S
C1416 N1413 1.314 . S
C1416 C1414 1.353 . S
C1416 H1474 0.930 . S
C1417 N1413 1.279 1_455 S
C1417 C1415 1.351 1_465 S
C1417 H1475 0.930 . S
C1418 C1421 1.348 . S
C1418 C1422 1.356 . S
C1418 O1469 1.325 . S
C1419 N1420 1.279 . S
C1419 C1422 1.358 . S
C1419 H1476 0.930 . S
N1420 C1419 1.279 . S
N1420 C1423 1.314 . S
C1421 C1418 1.348 . S
C1421 C1423 1.353 . S
C1421 H1477 0.929 . S
C1422 C1418 1.356 . S
C1422 C1419 1.358 . S
C1422 H1478 0.930 . S
C1423 N1420 1.314 . S
C1423 C1421 1.353 . S
C1423 H1479 0.930 . S
C1424 N1425 1.314 . S
C1424 C1429 1.353 1_655 S
C1424 H1430 0.930 . S
N1425 Li1408 1.990 . S
N1425 C1424 1.314 . S
N1425 C1427 1.279 . S
C1426 C1427 1.358 1_455 S
C1426 C1428 1.356 . S
C1426 H1480 0.930 . S
C1427 N1425 1.279 . S
C1427 C1426 1.358 1_655 S
C1427 H1431 0.930 . S
C1428 C1426 1.356 . S
C1428 C1429 1.348 . S
C1429 C1424 1.353 1_455 S
C1429 C1428 1.348 . S
C1429 H1481 0.929 . S
H1430 C1424 0.930 . S
H1431 C1427 0.930 . S
C1432 N1433 1.314 . S
C1432 C1434 1.353 . S
C1432 H1438 0.930 . S
N1433 Li1409 1.990 1_565 S
N1433 C1432 1.314 . S
N1433 C1436 1.279 . S
C1434 C1432 1.353 . S
C1434 C1437 1.348 . S
C1434 H1482 0.929 . S
C1435 C1436 1.358 . S
C1435 C1437 1.356 . S
C1435 H1483 0.930 . S
C1436 N1433 1.279 . S
C1436 C1435 1.358 . S
C1436 H1439 0.930 . S
C1437 C1434 1.348 . S
C1437 C1435 1.356 . S
H1438 C1432 0.930 . S
H1439 C1436 0.930 . S
C1440 C1442 1.348 . S
C1440 C1443 1.356 1_655 S
C1440 O1470 1.325 . S
N1441 C1444 1.314 1_455 S
N1441 C1445 1.279 . S
C1442 C1440 1.348 . S
C1442 C1444 1.353 . S
C1442 H1484 0.929 . S
C1443 C1440 1.356 1_455 S
C1443 C1445 1.358 . S
C1443 H1485 0.930 . S
C1444 N1441 1.314 1_655 S
C1444 C1442 1.353 . S
C1444 H1486 0.930 . S
C1445 N1441 1.279 . S
C1445 C1443 1.358 . S
C1445 H1487 0.930 . S
C1446 C1447 1.348 . S
C1446 C1448 1.356 . S
C1446 O1471 1.325 . S
C1447 C1446 1.348 . S
C1447 C1449 1.353 . S
C1447 H1488 0.929 . S
C1448 C1446 1.356 . S
C1448 C1450 1.358 . S
C1448 H1489 0.930 . S
C1449 C1447 1.353 . S
C1449 N1451 1.314 . S
C1449 H1490 0.930 . S
C1450 C1448 1.358 . S
C1450 N1451 1.279 . S
C1450 H1491 0.930 . S
N1451 C1449 1.314 . S
N1451 C1450 1.279 . S
C1452 C1454 1.353 . S
C1452 N1455 1.314 . S
C1452 H1458 0.930 . S
C1453 N1455 1.279 . S
C1453 C1456 1.358 1_655 S
C1453 H1459 0.930 . S
C1454 C1452 1.353 . S
C1454 C1457 1.348 1_655 S
C1454 H1492 0.929 . S
N1455 Li1410 1.990 . S
N1455 C1452 1.314 . S
N1455 C1453 1.279 . S
C1456 C1453 1.358 1_455 S
C1456 C1457 1.356 . S
C1456 H1493 0.930 . S
C1457 C1454 1.348 1_455 S
C1457 C1456 1.356 . S
H1458 C1452 0.930 . S
H1459 C1453 0.930 . S
C1460 N1461 1.314 . S
C1460 C1462 1.353 . S
C1460 H1466 0.930 . S
N1461 Li1411 1.990 . S
N1461 C1460 1.314 . S
N1461 C1464 1.279 . S
C1462 C1460 1.353 . S
C1462 C1465 1.348 . S
C1462 H1494 0.929 . S
C1463 C1464 1.358 . S
C1463 C1465 1.356 . S
C1463 H1495 0.930 . S
C1464 N1461 1.279 . S
C1464 C1463 1.358 . S
C1464 H1467 0.930 . S
C1465 C1462 1.348 . S
C1465 C1463 1.356 . S
H1466 C1460 0.930 . S
H1467 C1464 0.930 . S
O1468 Li1408 1.956 . S
O1468 Li1409 1.970 . S
O1468 Li1410 1.961 . S
O1468 C1412 1.325 1_545 S
O1469 Li1408 1.970 . S
O1469 Li1409 1.956 . S
O1469 Li1411 1.961 . S
O1469 C1418 1.325 . S
O1470 Li1408 1.961 . S
O1470 Li1410 1.956 . S
O1470 Li1411 1.970 . S
O1470 C1440 1.325 . S
O1471 Li1409 1.961 . S
O1471 Li1410 1.970 . S
O1471 Li1411 1.956 . S
O1471 C1446 1.325 . S
H1472 C1414 0.929 . S
H1473 C1415 0.937 1_455 S
H1474 C1416 0.930 . S
H1475 C1417 0.930 . S
H1476 C1419 0.930 . S
H1477 C1421 0.929 . S
H1478 C1422 0.930 . S
H1479 C1423 0.930 . S
H1480 C1426 0.930 . S
H1481 C1429 0.929 . S
H1482 C1434 0.929 . S
H1483 C1435 0.930 . S
H1484 C1442 0.929 . S
H1485 C1443 0.930 . S
H1486 C1444 0.930 . S
H1487 C1445 0.930 . S
H1488 C1447 0.929 . S
H1489 C1448 0.930 . S
H1490 C1449 0.930 . S
H1491 C1450 0.930 . S
H1492 C1454 0.929 . S
H1493 C1456 0.930 . S
H1494 C1462 0.929 . S
H1495 C1463 0.930 . S
Li1496 N1513 1.990 . S
Li1496 O1556 1.956 . S
Li1496 O1557 1.970 . S
Li1496 O1558 1.961 . S
Li1497 N1521 1.990 . S
Li1497 O1556 1.970 . S
Li1497 O1557 1.956 . S
Li1497 O1559 1.961 . S
Li1498 N1543 1.990 . S
Li1498 O1556 1.961 . S
Li1498 O1558 1.956 . S
Li1498 O1559 1.970 . S
Li1499 N1549 1.990 . S
Li1499 O1557 1.961 . S
Li1499 O1558 1.970 . S
Li1499 O1559 1.956 . S
C1500 C1502 1.348 . S
C1500 C1503 1.356 . S
C1500 O1556 1.325 . S
N1501 C1504 1.314 . S
N1501 C1505 1.279 . S
C1502 C1500 1.348 . S
C1502 C1504 1.353 . S
C1502 H1560 0.929 . S
C1503 C1500 1.356 . S
C1503 C1505 1.358 . S
C1503 H1561 0.930 . S
C1504 N1501 1.314 . S
C1504 C1502 1.353 . S
C1504 H1562 0.930 . S
C1505 N1501 1.279 . S
C1505 C1503 1.358 . S
C1505 H1563 0.930 . S
C1506 C1509 1.348 . S
C1506 C1510 1.356 . S
C1506 O1557 1.325 . S
C1507 N1508 1.279 . S
C1507 C1510 1.358 . S
C1507 H1564 0.930 . S
N1508 C1507 1.279 . S
N1508 C1511 1.314 . S
C1509 C1506 1.348 . S
C1509 C1511 1.353 . S
C1509 H1565 0.929 . S
C1510 C1506 1.356 . S
C1510 C1507 1.358 . S
C1510 H1566 0.930 . S
C1511 N1508 1.314 . S
C1511 C1509 1.353 . S
C1511 H1567 0.930 . S
C1512 N1513 1.314 . S
C1512 C1517 1.353 . S
C1512 H1518 0.930 . S
N1513 Li1496 1.990 . S
N1513 C1512 1.314 . S
N1513 C1515 1.279 . S
C1514 C1515 1.358 . S
C1514 C1516 1.356 . S
C1514 H1568 0.930 . S
C1515 N1513 1.279 . S
C1515 C1514 1.358 . S
C1515 H1519 0.930 . S
C1516 C1514 1.356 . S
C1516 C1517 1.348 . S
C1517 C1512 1.353 . S
C1517 C1516 1.348 . S
C1517 H1569 0.929 . S
H1518 C1512 0.930 . S
H1519 C1515 0.930 . S
C1520 N1521 1.314 . S
C1520 C1522 1.353 . S
C1520 H1526 0.930 . S
N1521 Li1497 1.990 . S
N1521 C1520 1.314 . S
N1521 C1524 1.279 . S
C1522 C1520 1.353 . S
C1522 C1525 1.348 . S
C1522 H1570 0.929 . S
C1523 C1524 1.358 . S
C1523 C1525 1.356 . S
C1523 H1571 0.930 . S
C1524 N1521 1.279 . S
C1524 C1523 1.358 . S
C1524 H1527 0.930 . S
C1525 C1522 1.348 . S
C1525 C1523 1.356 . S
H1526 C1520 0.930 . S
H1527 C1524 0.930 . S
C1528 C1530 1.348 . S
C1528 C1531 1.356 . S
C1528 O1558 1.325 . S
N1529 C1532 1.314 . S
N1529 C1533 1.279 . S
C1530 C1528 1.348 . S
C1530 C1532 1.353 . S
C1530 H1572 0.929 . S
C1531 C1528 1.356 . S
C1531 C1533 1.358 . S
C1531 H1573 0.930 . S
C1532 N1529 1.314 . S
C1532 C1530 1.353 . S
C1532 H1574 0.930 . S
C1533 N1529 1.279 . S
C1533 C1531 1.358 . S
C1533 H1575 0.930 . S
C1534 C1535 1.348 . S
C1534 C1536 1.356 . S
C1534 O1559 1.325 . S
C1535 C1534 1.348 . S
C1535 C1537 1.353 . S
C1535 H1576 0.929 . S
C1536 C1534 1.356 . S
C1536 C1538 1.358 . S
C1536 H1577 0.930 . S
C1537 C1535 1.353 . S
C1537 N1539 1.314 . S
C1537 H1578 0.930 . S
C1538 C1536 1.358 . S
C1538 N1539 1.279 . S
C1538 H1579 0.930 . S
N1539 C1537 1.314 . S
N1539 C1538 1.279 . S
C1540 C1542 1.353 . S
C1540 N1543 1.314 . S
C1540 H1546 0.930 . S
C1541 N1543 1.279 . S
C1541 C1544 1.358 . S
C1541 H1547 0.930 . S
C1542 C1540 1.353 . S
C1542 C1545 1.348 . S
C1542 H1580 0.929 . S
N1543 Li1498 1.990 . S
N1543 C1540 1.314 . S
N1543 C1541 1.279 . S
C1544 C1541 1.358 . S
C1544 C1545 1.356 . S
C1544 H1581 0.930 . S
C1545 C1542 1.348 . S
C1545 C1544 1.356 . S
H1546 C1540 0.930 . S
H1547 C1541 0.930 . S
C1548 N1549 1.314 . S
C1548 C1550 1.353 . S
C1548 H1554 0.930 . S
N1549 Li1499 1.990 . S
N1549 C1548 1.314 . S
N1549 C1552 1.279 . S
C1550 C1548 1.353 . S
C1550 C1553 1.348 . S
C1550 H1582 0.929 . S
C1551 C1552 1.358 . S
C1551 C1553 1.356 . S
C1551 H1583 0.930 . S
C1552 N1549 1.279 . S
C1552 C1551 1.358 . S
C1552 H1555 0.930 . S
C1553 C1550 1.348 . S
C1553 C1551 1.356 . S
H1554 C1548 0.930 . S
H1555 C1552 0.930 . S
O1556 Li1496 1.956 . S
O1556 Li1497 1.970 . S
O1556 Li1498 1.961 . S
O1556 C1500 1.325 . S
O1557 Li1496 1.970 . S
O1557 Li1497 1.956 . S
O1557 Li1499 1.961 . S
O1557 C1506 1.325 . S
O1558 Li1496 1.961 . S
O1558 Li1498 1.956 . S
O1558 Li1499 1.970 . S
O1558 C1528 1.325 . S
O1559 Li1497 1.961 . S
O1559 Li1498 1.970 . S
O1559 Li1499 1.956 . S
O1559 C1534 1.325 . S
H1560 C1502 0.929 . S
H1561 C1503 0.930 . S
H1562 C1504 0.930 . S
H1563 C1505 0.930 . S
H1564 C1507 0.930 . S
H1565 C1509 0.929 . S
H1566 C1510 0.930 . S
H1567 C1511 0.930 . S
H1568 C1514 0.930 . S
H1569 C1517 0.929 . S
H1570 C1522 0.929 . S
H1571 C1523 0.930 . S
H1572 C1530 0.929 . S
H1573 C1531 0.930 . S
H1574 C1532 0.930 . S
H1575 C1533 0.930 . S
H1576 C1535 0.929 . S
H1577 C1536 0.930 . S
H1578 C1537 0.930 . S
H1579 C1538 0.930 . S
H1580 C1542 0.929 . S
H1581 C1544 0.930 . S
H1582 C1550 0.929 . S
H1583 C1551 0.930 . S
Li1584 N1601 1.990 . S
Li1584 O1644 1.956 . S
Li1584 O1645 1.970 . S
Li1584 O1646 1.961 . S
Li1585 N1609 1.990 . S
Li1585 O1644 1.970 . S
Li1585 O1645 1.956 . S
Li1585 O1647 1.961 . S
Li1586 N1631 1.990 . S
Li1586 O1644 1.961 . S
Li1586 O1646 1.956 . S
Li1586 O1647 1.970 . S
Li1587 N1637 1.990 . S
Li1587 O1645 1.961 . S
Li1587 O1646 1.970 . S
Li1587 O1647 1.956 . S
C1588 C1590 1.348 . S
C1588 C1591 1.356 . S
C1588 O1644 1.325 . S
N1589 C1592 1.314 . S
N1589 C1593 1.279 . S
C1590 C1588 1.348 . S
C1590 C1592 1.353 . S
C1590 H1648 0.929 . S
C1591 C1588 1.356 . S
C1591 C1593 1.358 . S
C1591 H1649 0.930 . S
C1592 N1589 1.314 . S
C1592 C1590 1.353 . S
C1592 H1650 0.930 . S
C1593 N1589 1.279 . S
C1593 C1591 1.358 . S
C1593 H1651 0.930 . S
C1594 C1597 1.348 . S
C1594 C1598 1.356 . S
C1594 O1645 1.325 . S
C1595 N1596 1.279 . S
C1595 C1598 1.358 . S
C1595 H1652 0.930 . S
N1596 C1595 1.279 . S
N1596 C1599 1.314 . S
C1597 C1594 1.348 . S
C1597 C1599 1.353 . S
C1597 H1653 0.929 . S
C1598 C1594 1.356 . S
C1598 C1595 1.358 . S
C1598 H1654 0.930 . S
C1599 N1596 1.314 . S
C1599 C1597 1.353 . S
C1599 H1655 0.930 . S
C1600 N1601 1.314 . S
C1600 C1605 1.353 . S
C1600 H1606 0.930 . S
N1601 Li1584 1.990 . S
N1601 C1600 1.314 . S
N1601 C1603 1.279 . S
C1602 C1603 1.358 . S
C1602 C1604 1.356 . S
C1602 H1656 0.930 . S
C1603 N1601 1.279 . S
C1603 C1602 1.358 . S
C1603 H1607 0.930 . S
C1604 C1602 1.356 . S
C1604 C1605 1.348 . S
C1605 C1600 1.353 . S
C1605 C1604 1.348 . S
C1605 H1657 0.929 . S
H1606 C1600 0.930 . S
H1607 C1603 0.930 . S
C1608 N1609 1.314 . S
C1608 C1610 1.353 . S
C1608 H1614 0.930 . S
N1609 Li1585 1.990 . S
N1609 C1608 1.314 . S
N1609 C1612 1.279 . S
C1610 C1608 1.353 . S
C1610 C1613 1.348 . S
C1610 H1658 0.929 . S
C1611 C1612 1.358 . S
C1611 C1613 1.356 . S
C1611 H1659 0.930 . S
C1612 N1609 1.279 . S
C1612 C1611 1.358 . S
C1612 H1615 0.930 . S
C1613 C1610 1.348 . S
C1613 C1611 1.356 . S
H1614 C1608 0.930 . S
H1615 C1612 0.930 . S
C1616 C1618 1.348 . S
C1616 C1619 1.356 . S
C1616 O1646 1.325 . S
N1617 C1620 1.314 . S
N1617 C1621 1.279 . S
C1618 C1616 1.348 . S
C1618 C1620 1.353 . S
C1618 H1660 0.929 . S
C1619 C1616 1.356 . S
C1619 C1621 1.358 . S
C1619 H1661 0.930 . S
C1620 N1617 1.314 . S
C1620 C1618 1.353 . S
C1620 H1662 0.930 . S
C1621 N1617 1.279 . S
C1621 C1619 1.358 . S
C1621 H1663 0.930 . S
C1622 C1623 1.348 . S
C1622 C1624 1.356 . S
C1622 O1647 1.325 . S
C1623 C1622 1.348 . S
C1623 C1625 1.353 . S
C1623 H1664 0.929 . S
C1624 C1622 1.356 . S
C1624 C1626 1.358 . S
C1624 H1665 0.930 . S
C1625 C1623 1.353 . S
C1625 N1627 1.314 . S
C1625 H1666 0.930 . S
C1626 C1624 1.358 . S
C1626 N1627 1.279 . S
C1626 H1667 0.930 . S
N1627 C1625 1.314 . S
N1627 C1626 1.279 . S
C1628 C1630 1.353 . S
C1628 N1631 1.314 . S
C1628 H1634 0.930 . S
C1629 N1631 1.279 . S
C1629 C1632 1.358 . S
C1629 H1635 0.930 . S
C1630 C1628 1.353 . S
C1630 C1633 1.348 . S
C1630 H1668 0.929 . S
N1631 Li1586 1.990 . S
N1631 C1628 1.314 . S
N1631 C1629 1.279 . S
C1632 C1629 1.358 . S
C1632 C1633 1.356 . S
C1632 H1669 0.930 . S
C1633 C1630 1.348 . S
C1633 C1632 1.356 . S
H1634 C1628 0.930 . S
H1635 C1629 0.930 . S
C1636 N1637 1.314 . S
C1636 C1638 1.353 . S
C1636 H1642 0.930 . S
N1637 Li1587 1.990 . S
N1637 C1636 1.314 . S
N1637 C1640 1.279 . S
C1638 C1636 1.353 . S
C1638 C1641 1.348 . S
C1638 H1670 0.929 . S
C1639 C1640 1.358 . S
C1639 C1641 1.356 . S
C1639 H1671 0.930 . S
C1640 N1637 1.279 . S
C1640 C1639 1.358 . S
C1640 H1643 0.930 . S
C1641 C1638 1.348 . S
C1641 C1639 1.356 . S
H1642 C1636 0.930 . S
H1643 C1640 0.930 . S
O1644 Li1584 1.956 . S
O1644 Li1585 1.970 . S
O1644 Li1586 1.961 . S
O1644 C1588 1.325 . S
O1645 Li1584 1.970 . S
O1645 Li1585 1.956 . S
O1645 Li1587 1.961 . S
O1645 C1594 1.325 . S
O1646 Li1584 1.961 . S
O1646 Li1586 1.956 . S
O1646 Li1587 1.970 . S
O1646 C1616 1.325 . S
O1647 Li1585 1.961 . S
O1647 Li1586 1.970 . S
O1647 Li1587 1.956 . S
O1647 C1622 1.325 . S
H1648 C1590 0.929 . S
H1649 C1591 0.930 . S
H1650 C1592 0.930 . S
H1651 C1593 0.930 . S
H1652 C1595 0.930 . S
H1653 C1597 0.929 . S
H1654 C1598 0.930 . S
H1655 C1599 0.930 . S
H1656 C1602 0.930 . S
H1657 C1605 0.929 . S
H1658 C1610 0.929 . S
H1659 C1611 0.930 . S
H1660 C1618 0.929 . S
H1661 C1619 0.930 . S
H1662 C1620 0.930 . S
H1663 C1621 0.930 . S
H1664 C1623 0.929 . S
H1665 C1624 0.930 . S
H1666 C1625 0.930 . S
H1667 C1626 0.930 . S
H1668 C1630 0.929 . S
H1669 C1632 0.930 . S
H1670 C1638 0.929 . S
H1671 C1639 0.930 . S
Li1672 N1689 1.990 . S
Li1672 O1732 1.956 . S
Li1672 O1733 1.970 . S
Li1672 O1734 1.961 . S
Li1673 N1697 1.990 . S
Li1673 O1732 1.970 . S
Li1673 O1733 1.956 . S
Li1673 O1735 1.961 . S
Li1674 N1719 1.990 . S
Li1674 O1732 1.961 . S
Li1674 O1734 1.956 . S
Li1674 O1735 1.970 . S
Li1675 N1725 1.990 . S
Li1675 O1733 1.961 . S
Li1675 O1734 1.970 . S
Li1675 O1735 1.956 . S
C1676 C1678 1.348 . S
C1676 C1679 1.356 . S
C1676 O1732 1.325 . S
N1677 C1680 1.314 . S
N1677 C1681 1.279 . S
C1678 C1676 1.348 . S
C1678 C1680 1.353 . S
C1678 H1736 0.929 . S
C1679 C1676 1.356 . S
C1679 C1681 1.358 . S
C1679 H1737 0.930 . S
C1680 N1677 1.314 . S
C1680 C1678 1.353 . S
C1680 H1738 0.930 . S
C1681 N1677 1.279 . S
C1681 C1679 1.358 . S
C1681 H1739 0.930 . S
C1682 C1685 1.348 . S
C1682 C1686 1.356 . S
C1682 O1733 1.325 . S
C1683 N1684 1.279 . S
C1683 C1686 1.358 . S
C1683 H1740 0.930 . S
N1684 C1683 1.279 . S
N1684 C1687 1.314 . S
C1685 C1682 1.348 . S
C1685 C1687 1.353 . S
C1685 H1741 0.929 . S
C1686 C1682 1.356 . S
C1686 C1683 1.358 . S
C1686 H1742 0.930 . S
C1687 N1684 1.314 . S
C1687 C1685 1.353 . S
C1687 H1743 0.930 . S
C1688 N1689 1.314 . S
C1688 C1693 1.353 . S
C1688 H1694 0.930 . S
N1689 Li1672 1.990 . S
N1689 C1688 1.314 . S
N1689 C1691 1.279 . S
C1690 C1691 1.358 . S
C1690 C1692 1.356 . S
C1690 H1744 0.930 . S
C1691 N1689 1.279 . S
C1691 C1690 1.358 . S
C1691 H1695 0.930 . S
C1692 C1690 1.356 . S
C1692 C1693 1.348 . S
C1693 C1688 1.353 . S
C1693 C1692 1.348 . S
C1693 H1745 0.929 . S
H1694 C1688 0.930 . S
H1695 C1691 0.930 . S
C1696 N1697 1.314 . S
C1696 C1698 1.353 . S
C1696 H1702 0.930 . S
N1697 Li1673 1.990 . S
N1697 C1696 1.314 . S
N1697 C1700 1.279 . S
C1698 C1696 1.353 . S
C1698 C1701 1.348 . S
C1698 H1746 0.929 . S
C1699 C1700 1.358 . S
C1699 C1701 1.356 . S
C1699 H1747 0.930 . S
C1700 N1697 1.279 . S
C1700 C1699 1.358 . S
C1700 H1703 0.930 . S
C1701 C1698 1.348 . S
C1701 C1699 1.356 . S
H1702 C1696 0.930 . S
H1703 C1700 0.930 . S
C1704 C1706 1.348 . S
C1704 C1707 1.356 . S
C1704 O1734 1.325 . S
N1705 C1708 1.314 . S
N1705 C1709 1.279 1_565 S
C1706 C1704 1.348 . S
C1706 C1708 1.353 1_545 S
C1706 H1748 0.929 . S
C1707 C1704 1.356 . S
C1707 C1709 1.358 . S
C1707 H1749 0.930 . S
C1708 N1705 1.314 . S
C1708 C1706 1.353 1_565 S
C1708 H1750 0.930 . S
C1709 N1705 1.279 1_545 S
C1709 C1707 1.358 . S
C1709 H1751 0.930 . S
C1710 C1711 1.348 . S
C1710 C1712 1.356 . S
C1710 O1735 1.325 . S
C1711 C1710 1.348 . S
C1711 C1713 1.353 . S
C1711 H1752 0.929 . S
C1712 C1710 1.356 . S
C1712 C1714 1.358 . S
C1712 H1753 0.930 . S
C1713 C1711 1.353 . S
C1713 N1715 1.314 . S
C1713 H1754 0.930 . S
C1714 C1712 1.358 . S
C1714 N1715 1.279 . S
C1714 H1755 0.930 . S
N1715 C1713 1.314 . S
N1715 C1714 1.279 . S
C1716 C1718 1.353 . S
C1716 N1719 1.314 . S
C1716 H1722 0.930 . S
C1717 N1719 1.279 . S
C1717 C1720 1.358 . S
C1717 H1723 0.930 . S
C1718 C1716 1.353 . S
C1718 C1721 1.348 . S
C1718 H1756 0.929 . S
N1719 Li1674 1.990 . S
N1719 C1716 1.314 . S
N1719 C1717 1.279 . S
C1720 C1717 1.358 . S
C1720 C1721 1.356 . S
C1720 H1757 0.930 . S
C1721 C1718 1.348 . S
C1721 C1720 1.356 . S
H1722 C1716 0.930 . S
H1723 C1717 0.930 . S
C1724 N1725 1.314 . S
C1724 C1726 1.353 . S
C1724 H1730 0.930 . S
N1725 Li1675 1.990 . S
N1725 C1724 1.314 . S
N1725 C1728 1.279 . S
C1726 C1724 1.353 . S
C1726 C1729 1.348 . S
C1726 H1758 0.929 . S
C1727 C1728 1.358 . S
C1727 C1729 1.356 . S
C1727 H1759 0.930 . S
C1728 N1725 1.279 . S
C1728 C1727 1.358 . S
C1728 H1731 0.930 . S
C1729 C1726 1.348 . S
C1729 C1727 1.356 . S
H1730 C1724 0.930 . S
H1731 C1728 0.930 . S
O1732 Li1672 1.956 . S
O1732 Li1673 1.970 . S
O1732 Li1674 1.961 . S
O1732 C1676 1.325 . S
O1733 Li1672 1.970 . S
O1733 Li1673 1.956 . S
O1733 Li1675 1.961 . S
O1733 C1682 1.325 . S
O1734 Li1672 1.961 . S
O1734 Li1674 1.956 . S
O1734 Li1675 1.970 . S
O1734 C1704 1.325 . S
O1735 Li1673 1.961 . S
O1735 Li1674 1.970 . S
O1735 Li1675 1.956 . S
O1735 C1710 1.325 . S
H1736 C1678 0.929 . S
H1737 C1679 0.930 . S
H1738 C1680 0.930 . S
H1739 C1681 0.930 . S
H1740 C1683 0.930 . S
H1741 C1685 0.929 . S
H1742 C1686 0.930 . S
H1743 C1687 0.930 . S
H1744 C1690 0.930 . S
H1745 C1693 0.929 . S
H1746 C1698 0.929 . S
H1747 C1699 0.930 . S
H1748 C1706 0.929 . S
H1749 C1707 0.930 . S
H1750 C1708 0.930 . S
H1751 C1709 0.930 . S
H1752 C1711 0.929 . S
H1753 C1712 0.930 . S
H1754 C1713 0.930 . S
H1755 C1714 0.930 . S
H1756 C1718 0.929 . S
H1757 C1720 0.930 . S
H1758 C1726 0.929 . S
H1759 C1727 0.930 . S
Li1760 N1777 1.990 . S
Li1760 O1820 1.956 . S
Li1760 O1821 1.970 . S
Li1760 O1822 1.961 . S
Li1761 N1785 1.990 . S
Li1761 O1820 1.970 . S
Li1761 O1821 1.956 . S
Li1761 O1823 1.961 . S
Li1762 N1807 1.990 1_554 S
Li1762 O1820 1.961 . S
Li1762 O1822 1.956 . S
Li1762 O1823 1.970 . S
Li1763 N1813 1.990 . S
Li1763 O1821 1.961 . S
Li1763 O1822 1.970 . S
Li1763 O1823 1.956 . S
C1764 C1766 1.348 . S
C1764 C1767 1.356 . S
C1764 O1820 1.325 . S
N1765 C1768 1.314 . S
N1765 C1769 1.279 . S
C1766 C1764 1.348 . S
C1766 C1768 1.353 . S
C1766 H1824 0.929 . S
C1767 C1764 1.356 . S
C1767 C1769 1.358 . S
C1767 H1825 0.930 . S
C1768 N1765 1.314 . S
C1768 C1766 1.353 . S
C1768 H1826 0.930 . S
C1769 N1765 1.279 . S
C1769 C1767 1.358 . S
C1769 H1827 0.930 . S
C1770 C1773 1.348 . S
C1770 C1774 1.356 . S
C1770 O1821 1.325 . S
C1771 N1772 1.279 . S
C1771 C1774 1.358 . S
C1771 H1828 0.930 . S
N1772 C1771 1.279 . S
N1772 C1775 1.314 . S
C1773 C1770 1.348 . S
C1773 C1775 1.353 . S
C1773 H1829 0.929 . S
C1774 C1770 1.356 . S
C1774 C1771 1.358 . S
C1774 H1830 0.930 . S
C1775 N1772 1.314 . S
C1775 C1773 1.353 . S
C1775 H1831 0.930 . S
C1776 N1777 1.314 . S
C1776 C1781 1.353 . S
C1776 H1782 0.930 . S
N1777 Li1760 1.990 . S
N1777 C1776 1.314 . S
N1777 C1779 1.279 . S
C1778 C1779 1.358 . S
C1778 C1780 1.356 . S
C1778 H1832 0.930 . S
C1779 N1777 1.279 . S
C1779 C1778 1.358 . S
C1779 H1783 0.930 . S
C1780 C1778 1.356 . S
C1780 C1781 1.348 . S
C1781 C1776 1.353 . S
C1781 C1780 1.348 . S
C1781 H1833 0.929 . S
H1782 C1776 0.930 . S
H1783 C1779 0.930 . S
C1784 N1785 1.314 . S
C1784 C1786 1.353 . S
C1784 H1790 0.930 1_554 S
N1785 Li1761 1.990 . S
N1785 C1784 1.314 . S
N1785 C1788 1.279 . S
C1786 C1784 1.353 . S
C1786 C1789 1.348 . S
C1786 H1834 0.929 1_554 S
C1787 C1788 1.358 . S
C1787 C1789 1.356 . S
C1787 H1835 0.930 . S
C1788 N1785 1.279 . S
C1788 C1787 1.358 . S
C1788 H1791 0.930 . S
C1789 C1786 1.348 . S
C1789 C1787 1.356 . S
H1790 C1784 0.930 1_556 S
H1791 C1788 0.930 . S
C1792 C1794 1.348 . S
C1792 C1795 1.356 . S
C1792 O1822 1.325 . S
N1793 C1796 1.314 . S
N1793 C1797 1.279 . S
C1794 C1792 1.348 . S
C1794 C1796 1.353 . S
C1794 H1836 0.929 . S
C1795 C1792 1.356 . S
C1795 C1797 1.358 . S
C1795 H1837 0.930 . S
C1796 N1793 1.314 . S
C1796 C1794 1.353 . S
C1796 H1838 0.930 . S
C1797 N1793 1.279 . S
C1797 C1795 1.358 . S
C1797 H1839 0.930 . S
C1798 C1799 1.348 . S
C1798 C1800 1.356 . S
C1798 O1823 1.325 1_556 S
C1799 C1798 1.348 . S
C1799 C1801 1.353 . S
C1799 H1840 0.929 . S
C1800 C1798 1.356 . S
C1800 C1802 1.358 . S
C1800 H1841 0.930 . S
C1801 C1799 1.353 . S
C1801 N1803 1.314 . S
C1801 H1842 0.930 . S
C1802 C1800 1.358 . S
C1802 N1803 1.279 . S
C1802 H1843 0.930 . S
N1803 C1801 1.314 . S
N1803 C1802 1.279 . S
C1804 C1806 1.353 . S
C1804 N1807 1.314 . S
C1804 H1810 0.930 . S
C1805 N1807 1.279 . S
C1805 C1808 1.358 . S
C1805 H1811 0.930 . S
C1806 C1804 1.353 . S
C1806 C1809 1.348 . S
C1806 H1844 0.929 . S
N1807 Li1762 1.990 1_556 S
N1807 C1804 1.314 . S
N1807 C1805 1.279 . S
C1808 C1805 1.358 . S
C1808 C1809 1.356 . S
C1808 H1845 0.930 . S
C1809 C1806 1.348 . S
C1809 C1808 1.356 . S
H1810 C1804 0.930 . S
H1811 C1805 0.930 . S
C1812 N1813 1.314 . S
C1812 C1814 1.353 . S
C1812 H1818 0.930 . S
N1813 Li1763 1.990 . S
N1813 C1812 1.314 . S
N1813 C1816 1.279 . S
C1814 C1812 1.353 . S
C1814 C1817 1.348 . S
C1814 H1846 0.929 . S
C1815 C1816 1.358 1_556 S
C1815 C1817 1.356 1_556 S
C1815 H1847 0.930 . S
C1816 N1813 1.279 . S
C1816 C1815 1.358 1_554 S
C1816 H1819 0.930 1_554 S
C1817 C1814 1.348 . S
C1817 C1815 1.356 1_554 S
H1818 C1812 0.930 . S
H1819 C1816 0.930 1_556 S
O1820 Li1760 1.956 . S
O1820 Li1761 1.970 . S
O1820 Li1762 1.961 . S
O1820 C1764 1.325 . S
O1821 Li1760 1.970 . S
O1821 Li1761 1.956 . S
O1821 Li1763 1.961 . S
O1821 C1770 1.325 . S
O1822 Li1760 1.961 . S
O1822 Li1762 1.956 . S
O1822 Li1763 1.970 . S
O1822 C1792 1.325 . S
O1823 Li1761 1.961 . S
O1823 Li1762 1.970 . S
O1823 Li1763 1.956 . S
O1823 C1798 1.325 1_554 S
H1824 C1766 0.929 . S
H1825 C1767 0.930 . S
H1826 C1768 0.930 . S
H1827 C1769 0.930 . S
H1828 C1771 0.930 . S
H1829 C1773 0.929 . S
H1830 C1774 0.930 . S
H1831 C1775 0.930 . S
H1832 C1778 0.930 . S
H1833 C1781 0.929 . S
H1834 C1786 0.929 1_556 S
H1835 C1787 0.930 . S
H1836 C1794 0.929 . S
H1837 C1795 0.930 . S
H1838 C1796 0.930 . S
H1839 C1797 0.930 . S
H1840 C1799 0.929 . S
H1841 C1800 0.930 . S
H1842 C1801 0.930 . S
H1843 C1802 0.930 . S
H1844 C1806 0.929 . S
H1845 C1808 0.930 . S
H1846 C1814 0.929 . S
H1847 C1815 0.930 . S
Li1848 N1865 1.990 . S
Li1848 O1908 1.956 . S
Li1848 O1909 1.970 . S
Li1848 O1910 1.961 . S
Li1849 N1873 1.990 . S
Li1849 O1908 1.970 . S
Li1849 O1909 1.956 . S
Li1849 O1911 1.961 . S
Li1850 N1895 1.990 . S
Li1850 O1908 1.961 . S
Li1850 O1910 1.956 . S
Li1850 O1911 1.970 . S
Li1851 N1901 1.990 . S
Li1851 O1909 1.961 . S
Li1851 O1910 1.970 . S
Li1851 O1911 1.956 . S
C1852 C1854 1.348 . S
C1852 C1855 1.356 . S
C1852 O1908 1.325 . S
N1853 C1856 1.314 . S
N1853 C1857 1.279 . S
C1854 C1852 1.348 . S
C1854 C1856 1.353 . S
C1854 H1912 0.929 . S
C1855 C1852 1.356 . S
C1855 C1857 1.358 . S
C1855 H1913 0.930 . S
C1856 N1853 1.314 . S
C1856 C1854 1.353 . S
C1856 H1914 0.930 . S
C1857 N1853 1.279 . S
C1857 C1855 1.358 . S
C1857 H1915 0.930 . S
C1858 C1861 1.348 . S
C1858 C1862 1.356 . S
C1858 O1909 1.325 . S
C1859 N1860 1.279 . S
C1859 C1862 1.358 . S
C1859 H1916 0.930 . S
N1860 C1859 1.279 . S
N1860 C1863 1.314 . S
C1861 C1858 1.348 . S
C1861 C1863 1.353 . S
C1861 H1917 0.929 . S
C1862 C1858 1.356 . S
C1862 C1859 1.358 . S
C1862 H1918 0.930 . S
C1863 N1860 1.314 . S
C1863 C1861 1.353 . S
C1863 H1919 0.930 . S
C1864 N1865 1.314 . S
C1864 C1869 1.353 . S
C1864 H1870 0.930 . S
N1865 Li1848 1.990 . S
N1865 C1864 1.314 . S
N1865 C1867 1.279 . S
C1866 C1867 1.358 . S
C1866 C1868 1.356 . S
C1866 H1920 0.930 . S
C1867 N1865 1.279 . S
C1867 C1866 1.358 . S
C1867 H1871 0.930 . S
C1868 C1866 1.356 . S
C1868 C1869 1.348 . S
C1869 C1864 1.353 . S
C1869 C1868 1.348 . S
C1869 H1921 0.929 . S
H1870 C1864 0.930 . S
H1871 C1867 0.930 . S
C1872 N1873 1.314 . S
C1872 C1874 1.353 . S
C1872 H1878 0.930 . S
N1873 Li1849 1.990 . S
N1873 C1872 1.314 . S
N1873 C1876 1.279 . S
C1874 C1872 1.353 . S
C1874 C1877 1.348 . S
C1874 H1922 0.929 . S
C1875 C1876 1.358 . S
C1875 C1877 1.356 . S
C1875 H1923 0.930 . S
C1876 N1873 1.279 . S
C1876 C1875 1.358 . S
C1876 H1879 0.930 . S
C1877 C1874 1.348 . S
C1877 C1875 1.356 . S
H1878 C1872 0.930 . S
H1879 C1876 0.930 . S
C1880 C1882 1.348 . S
C1880 C1883 1.356 . S
C1880 O1910 1.325 . S
N1881 C1884 1.314 . S
N1881 C1885 1.279 . S
C1882 C1880 1.348 . S
C1882 C1884 1.353 . S
C1882 H1924 0.929 . S
C1883 C1880 1.356 . S
C1883 C1885 1.358 . S
C1883 H1925 0.930 . S
C1884 N1881 1.314 . S
C1884 C1882 1.353 . S
C1884 H1926 0.930 . S
C1885 N1881 1.279 . S
C1885 C1883 1.358 . S
C1885 H1927 0.930 . S
C1886 C1887 1.348 . S
C1886 C1888 1.356 . S
C1886 O1911 1.325 . S
C1887 C1886 1.348 . S
C1887 C1889 1.353 . S
C1887 H1928 0.929 . S
C1888 C1886 1.356 . S
C1888 C1890 1.358 . S
C1888 H1929 0.930 . S
C1889 C1887 1.353 . S
C1889 N1891 1.314 . S
C1889 H1930 0.930 . S
C1890 C1888 1.358 . S
C1890 N1891 1.279 . S
C1890 H1931 0.930 . S
N1891 C1889 1.314 . S
N1891 C1890 1.279 . S
C1892 C1894 1.353 . S
C1892 N1895 1.314 . S
C1892 H1898 0.930 . S
C1893 N1895 1.279 . S
C1893 C1896 1.358 . S
C1893 H1899 0.930 . S
C1894 C1892 1.353 . S
C1894 C1897 1.348 . S
C1894 H1932 0.929 . S
N1895 Li1850 1.990 . S
N1895 C1892 1.314 . S
N1895 C1893 1.279 . S
C1896 C1893 1.358 . S
C1896 C1897 1.356 . S
C1896 H1933 0.930 . S
C1897 C1894 1.348 . S
C1897 C1896 1.356 . S
H1898 C1892 0.930 . S
H1899 C1893 0.930 . S
C1900 N1901 1.314 . S
C1900 C1902 1.353 . S
C1900 H1906 0.930 . S
N1901 Li1851 1.990 . S
N1901 C1900 1.314 . S
N1901 C1904 1.279 . S
C1902 C1900 1.353 . S
C1902 C1905 1.348 . S
C1902 H1934 0.929 . S
C1903 C1904 1.358 . S
C1903 C1905 1.356 . S
C1903 H1935 0.930 . S
C1904 N1901 1.279 . S
C1904 C1903 1.358 . S
C1904 H1907 0.930 . S
C1905 C1902 1.348 . S
C1905 C1903 1.356 . S
H1906 C1900 0.930 . S
H1907 C1904 0.930 . S
O1908 Li1848 1.956 . S
O1908 Li1849 1.970 . S
O1908 Li1850 1.961 . S
O1908 C1852 1.325 . S
O1909 Li1848 1.970 . S
O1909 Li1849 1.956 . S
O1909 Li1851 1.961 . S
O1909 C1858 1.325 . S
O1910 Li1848 1.961 . S
O1910 Li1850 1.956 . S
O1910 Li1851 1.970 . S
O1910 C1880 1.325 . S
O1911 Li1849 1.961 . S
O1911 Li1850 1.970 . S
O1911 Li1851 1.956 . S
O1911 C1886 1.325 . S
H1912 C1854 0.929 . S
H1913 C1855 0.930 . S
H1914 C1856 0.930 . S
H1915 C1857 0.930 . S
H1916 C1859 0.930 . S
H1917 C1861 0.929 . S
H1918 C1862 0.930 . S
H1919 C1863 0.930 . S
H1920 C1866 0.930 . S
H1921 C1869 0.929 . S
H1922 C1874 0.929 . S
H1923 C1875 0.930 . S
H1924 C1882 0.929 . S
H1925 C1883 0.930 . S
H1926 C1884 0.930 . S
H1927 C1885 0.930 . S
H1928 C1887 0.929 . S
H1929 C1888 0.930 . S
H1930 C1889 0.930 . S
H1931 C1890 0.930 . S
H1932 C1894 0.929 . S
H1933 C1896 0.930 . S
H1934 C1902 0.929 . S
H1935 C1903 0.930 . S
Li1936 N1953 1.990 . S
Li1936 O1996 1.956 . S
Li1936 O1997 1.970 . S
Li1936 O1998 1.961 . S
Li1937 N1961 1.990 . S
Li1937 O1996 1.970 . S
Li1937 O1997 1.956 . S
Li1937 O1999 1.961 . S
Li1938 N1983 1.990 . S
Li1938 O1996 1.961 . S
Li1938 O1998 1.956 . S
Li1938 O1999 1.970 . S
Li1939 N1989 1.990 . S
Li1939 O1997 1.961 . S
Li1939 O1998 1.970 . S
Li1939 O1999 1.956 . S
C1940 C1942 1.348 . S
C1940 C1943 1.356 . S
C1940 O1996 1.325 . S
N1941 C1944 1.314 . S
N1941 C1945 1.279 . S
C1942 C1940 1.348 . S
C1942 C1944 1.353 . S
C1942 H2000 0.929 . S
C1943 C1940 1.356 . S
C1943 C1945 1.358 . S
C1943 H2001 0.930 . S
C1944 N1941 1.314 . S
C1944 C1942 1.353 . S
C1944 H2002 0.930 . S
C1945 N1941 1.279 . S
C1945 C1943 1.358 . S
C1945 H2003 0.930 . S
C1946 C1949 1.348 . S
C1946 C1950 1.356 . S
C1946 O1997 1.325 . S
C1947 N1948 1.279 . S
C1947 C1950 1.358 . S
C1947 H2004 0.930 . S
N1948 C1947 1.279 . S
N1948 C1951 1.314 . S
C1949 C1946 1.348 . S
C1949 C1951 1.353 . S
C1949 H2005 0.929 . S
C1950 C1946 1.356 . S
C1950 C1947 1.358 . S
C1950 H2006 0.930 . S
C1951 N1948 1.314 . S
C1951 C1949 1.353 . S
C1951 H2007 0.930 . S
C1952 N1953 1.314 . S
C1952 C1957 1.353 . S
C1952 H1958 0.930 . S
N1953 Li1936 1.990 . S
N1953 C1952 1.314 . S
N1953 C1955 1.279 . S
C1954 C1955 1.358 . S
C1954 C1956 1.356 . S
C1954 H2008 0.930 . S
C1955 N1953 1.279 . S
C1955 C1954 1.358 . S
C1955 H1959 0.930 . S
C1956 C1954 1.356 . S
C1956 C1957 1.348 . S
C1957 C1952 1.353 . S
C1957 C1956 1.348 . S
C1957 H2009 0.929 . S
H1958 C1952 0.930 . S
H1959 C1955 0.930 . S
C1960 N1961 1.314 . S
C1960 C1962 1.353 . S
C1960 H1966 0.930 . S
N1961 Li1937 1.990 . S
N1961 C1960 1.314 . S
N1961 C1964 1.279 . S
C1962 C1960 1.353 . S
C1962 C1965 1.348 . S
C1962 H2010 0.929 . S
C1963 C1964 1.358 . S
C1963 C1965 1.356 . S
C1963 H2011 0.930 . S
C1964 N1961 1.279 . S
C1964 C1963 1.358 . S
C1964 H1967 0.930 . S
C1965 C1962 1.348 . S
C1965 C1963 1.356 . S
H1966 C1960 0.930 . S
H1967 C1964 0.930 . S
C1968 C1970 1.348 . S
C1968 C1971 1.356 . S
C1968 O1998 1.325 . S
N1969 C1972 1.314 . S
N1969 C1973 1.279 . S
C1970 C1968 1.348 . S
C1970 C1972 1.353 . S
C1970 H2012 0.929 . S
C1971 C1968 1.356 . S
C1971 C1973 1.358 . S
C1971 H2013 0.930 . S
C1972 N1969 1.314 . S
C1972 C1970 1.353 . S
C1972 H2014 0.930 . S
C1973 N1969 1.279 . S
C1973 C1971 1.358 . S
C1973 H2015 0.930 . S
C1974 C1975 1.348 . S
C1974 C1976 1.356 . S
C1974 O1999 1.325 . S
C1975 C1974 1.348 . S
C1975 C1977 1.353 . S
C1975 H2016 0.929 . S
C1976 C1974 1.356 . S
C1976 C1978 1.358 . S
C1976 H2017 0.930 . S
C1977 C1975 1.353 . S
C1977 N1979 1.314 . S
C1977 H2018 0.930 . S
C1978 C1976 1.358 . S
C1978 N1979 1.279 . S
C1978 H2019 0.930 . S
N1979 C1977 1.314 . S
N1979 C1978 1.279 . S
C1980 C1982 1.353 . S
C1980 N1983 1.314 . S
C1980 H1986 0.930 . S
C1981 N1983 1.279 . S
C1981 C1984 1.358 . S
C1981 H1987 0.930 . S
C1982 C1980 1.353 . S
C1982 C1985 1.348 . S
C1982 H2020 0.929 . S
N1983 Li1938 1.990 . S
N1983 C1980 1.314 . S
N1983 C1981 1.279 . S
C1984 C1981 1.358 . S
C1984 C1985 1.356 . S
C1984 H2021 0.930 . S
C1985 C1982 1.348 . S
C1985 C1984 1.356 . S
H1986 C1980 0.930 . S
H1987 C1981 0.930 . S
C1988 N1989 1.314 . S
C1988 C1990 1.353 . S
C1988 H1994 0.930 . S
N1989 Li1939 1.990 . S
N1989 C1988 1.314 . S
N1989 C1992 1.279 . S
C1990 C1988 1.353 . S
C1990 C1993 1.348 . S
C1990 H2022 0.929 . S
C1991 C1992 1.358 . S
C1991 C1993 1.356 . S
C1991 H2023 0.930 . S
C1992 N1989 1.279 . S
C1992 C1991 1.358 . S
C1992 H1995 0.930 . S
C1993 C1990 1.348 . S
C1993 C1991 1.356 . S
H1994 C1988 0.930 . S
H1995 C1992 0.930 . S
O1996 Li1936 1.956 . S
O1996 Li1937 1.970 . S
O1996 Li1938 1.961 . S
O1996 C1940 1.325 . S
O1997 Li1936 1.970 . S
O1997 Li1937 1.956 . S
O1997 Li1939 1.961 . S
O1997 C1946 1.325 . S
O1998 Li1936 1.961 . S
O1998 Li1938 1.956 . S
O1998 Li1939 1.970 . S
O1998 C1968 1.325 . S
O1999 Li1937 1.961 . S
O1999 Li1938 1.970 . S
O1999 Li1939 1.956 . S
O1999 C1974 1.325 . S
H2000 C1942 0.929 . S
H2001 C1943 0.930 . S
H2002 C1944 0.930 . S
H2003 C1945 0.930 . S
H2004 C1947 0.930 . S
H2005 C1949 0.929 . S
H2006 C1950 0.930 . S
H2007 C1951 0.930 . S
H2008 C1954 0.930 . S
H2009 C1957 0.929 . S
H2010 C1962 0.929 . S
H2011 C1963 0.930 . S
H2012 C1970 0.929 . S
H2013 C1971 0.930 . S
H2014 C1972 0.930 . S
H2015 C1973 0.930 . S
H2016 C1975 0.929 . S
H2017 C1976 0.930 . S
H2018 C1977 0.930 . S
H2019 C1978 0.930 . S
H2020 C1982 0.929 . S
H2021 C1984 0.930 . S
H2022 C1990 0.929 . S
H2023 C1991 0.930 . S
Li2024 N2041 1.990 . S
Li2024 O2084 1.956 . S
Li2024 O2085 1.970 . S
Li2024 O2086 1.961 . S
Li2025 N2049 1.990 . S
Li2025 O2084 1.970 . S
Li2025 O2085 1.956 . S
Li2025 O2087 1.961 . S
Li2026 N2071 1.990 . S
Li2026 O2084 1.961 . S
Li2026 O2086 1.956 . S
Li2026 O2087 1.970 . S
Li2027 N2077 1.990 . S
Li2027 O2085 1.961 . S
Li2027 O2086 1.970 . S
Li2027 O2087 1.956 . S
C2028 C2030 1.348 . S
C2028 C2031 1.356 . S
C2028 O2084 1.325 . S
N2029 C2032 1.314 . S
N2029 C2033 1.279 . S
C2030 C2028 1.348 . S
C2030 C2032 1.353 . S
C2030 H2088 0.929 . S
C2031 C2028 1.356 . S
C2031 C2033 1.358 . S
C2031 H2089 0.930 . S
C2032 N2029 1.314 . S
C2032 C2030 1.353 . S
C2032 H2090 0.930 . S
C2033 N2029 1.279 . S
C2033 C2031 1.358 . S
C2033 H2091 0.930 . S
C2034 C2037 1.348 . S
C2034 C2038 1.356 . S
C2034 O2085 1.325 . S
C2035 N2036 1.279 . S
C2035 C2038 1.358 . S
C2035 H2092 0.930 . S
N2036 C2035 1.279 . S
N2036 C2039 1.314 . S
C2037 C2034 1.348 . S
C2037 C2039 1.353 . S
C2037 H2093 0.929 . S
C2038 C2034 1.356 . S
C2038 C2035 1.358 . S
C2038 H2094 0.930 . S
C2039 N2036 1.314 . S
C2039 C2037 1.353 . S
C2039 H2095 0.930 . S
C2040 N2041 1.314 . S
C2040 C2045 1.353 . S
C2040 H2046 0.930 . S
N2041 Li2024 1.990 . S
N2041 C2040 1.314 . S
N2041 C2043 1.279 . S
C2042 C2043 1.358 . S
C2042 C2044 1.356 . S
C2042 H2096 0.930 . S
C2043 N2041 1.279 . S
C2043 C2042 1.358 . S
C2043 H2047 0.930 . S
C2044 C2042 1.356 . S
C2044 C2045 1.348 . S
C2045 C2040 1.353 . S
C2045 C2044 1.348 . S
C2045 H2097 0.929 . S
H2046 C2040 0.930 . S
H2047 C2043 0.930 . S
C2048 N2049 1.314 . S
C2048 C2050 1.353 . S
C2048 H2054 0.930 . S
N2049 Li2025 1.990 . S
N2049 C2048 1.314 . S
N2049 C2052 1.279 . S
C2050 C2048 1.353 . S
C2050 C2053 1.348 . S
C2050 H2098 0.929 . S
C2051 C2052 1.358 . S
C2051 C2053 1.356 . S
C2051 H2099 0.930 . S
C2052 N2049 1.279 . S
C2052 C2051 1.358 . S
C2052 H2055 0.930 . S
C2053 C2050 1.348 . S
C2053 C2051 1.356 . S
H2054 C2048 0.930 . S
H2055 C2052 0.930 . S
C2056 C2058 1.348 . S
C2056 C2059 1.356 . S
C2056 O2086 1.325 . S
N2057 C2060 1.314 . S
N2057 C2061 1.279 . S
C2058 C2056 1.348 . S
C2058 C2060 1.353 . S
C2058 H2100 0.929 . S
C2059 C2056 1.356 . S
C2059 C2061 1.358 . S
C2059 H2101 0.930 . S
C2060 N2057 1.314 . S
C2060 C2058 1.353 . S
C2060 H2102 0.930 . S
C2061 N2057 1.279 . S
C2061 C2059 1.358 . S
C2061 H2103 0.930 . S
C2062 C2063 1.348 . S
C2062 C2064 1.356 . S
C2062 O2087 1.325 . S
C2063 C2062 1.348 . S
C2063 C2065 1.353 . S
C2063 H2104 0.929 . S
C2064 C2062 1.356 . S
C2064 C2066 1.358 . S
C2064 H2105 0.930 . S
C2065 C2063 1.353 . S
C2065 N2067 1.314 . S
C2065 H2106 0.930 . S
C2066 C2064 1.358 . S
C2066 N2067 1.279 . S
C2066 H2107 0.930 . S
N2067 C2065 1.314 . S
N2067 C2066 1.279 . S
C2068 C2070 1.353 . S
C2068 N2071 1.314 . S
C2068 H2074 0.930 . S
C2069 N2071 1.279 . S
C2069 C2072 1.358 . S
C2069 H2075 0.930 . S
C2070 C2068 1.353 . S
C2070 C2073 1.348 . S
C2070 H2108 0.929 . S
N2071 Li2026 1.990 . S
N2071 C2068 1.314 . S
N2071 C2069 1.279 . S
C2072 C2069 1.358 . S
C2072 C2073 1.356 . S
C2072 H2109 0.930 . S
C2073 C2070 1.348 . S
C2073 C2072 1.356 . S
H2074 C2068 0.930 . S
H2075 C2069 0.930 . S
C2076 N2077 1.314 . S
C2076 C2078 1.353 . S
C2076 H2082 0.930 . S
N2077 Li2027 1.990 . S
N2077 C2076 1.314 . S
N2077 C2080 1.279 . S
C2078 C2076 1.353 . S
C2078 C2081 1.348 . S
C2078 H2110 0.929 . S
C2079 C2080 1.358 . S
C2079 C2081 1.356 . S
C2079 H2111 0.930 . S
C2080 N2077 1.279 . S
C2080 C2079 1.358 . S
C2080 H2083 0.930 . S
C2081 C2078 1.348 . S
C2081 C2079 1.356 . S
H2082 C2076 0.930 . S
H2083 C2080 0.930 . S
O2084 Li2024 1.956 . S
O2084 Li2025 1.970 . S
O2084 Li2026 1.961 . S
O2084 C2028 1.325 . S
O2085 Li2024 1.970 . S
O2085 Li2025 1.956 . S
O2085 Li2027 1.961 . S
O2085 C2034 1.325 . S
O2086 Li2024 1.961 . S
O2086 Li2026 1.956 . S
O2086 Li2027 1.970 . S
O2086 C2056 1.325 . S
O2087 Li2025 1.961 . S
O2087 Li2026 1.970 . S
O2087 Li2027 1.956 . S
O2087 C2062 1.325 . S
H2088 C2030 0.929 . S
H2089 C2031 0.930 . S
H2090 C2032 0.930 . S
H2091 C2033 0.930 . S
H2092 C2035 0.930 . S
H2093 C2037 0.929 . S
H2094 C2038 0.930 . S
H2095 C2039 0.930 . S
H2096 C2042 0.930 . S
H2097 C2045 0.929 . S
H2098 C2050 0.929 . S
H2099 C2051 0.930 . S
H2100 C2058 0.929 . S
H2101 C2059 0.930 . S
H2102 C2060 0.930 . S
H2103 C2061 0.930 . S
H2104 C2063 0.929 . S
H2105 C2064 0.930 . S
H2106 C2065 0.930 . S
H2107 C2066 0.930 . S
H2108 C2070 0.929 . S
H2109 C2072 0.930 . S
H2110 C2078 0.929 . S
H2111 C2079 0.930 . S
Dy2112 O2115 2.307 . S
Dy2112 O2117 2.395 . S
Dy2112 O2118 2.379 . S
Dy2112 O2120 2.339 . S
Dy2112 O2122 2.298 . S
Dy2112 O2126 2.275 . S
Dy2112 C2134 2.738 . S
Dy2113 O2116 2.298 1_655 S
Dy2113 O2119 2.275 1_655 S
Dy2113 O2121 2.319 1_655 S
Dy2113 O2123 2.395 . S
Dy2113 O2124 2.379 1_554 S
Dy2113 O2127 2.339 1_654 S
Dy2113 C2143 2.738 . S
C2114 O2126 1.254 1_556 S
C2114 O2127 1.257 . S
O2115 Dy2112 2.307 . S
O2115 C2125 1.266 . S
O2116 Dy2113 2.298 1_455 S
O2116 C2125 1.236 . S
O2117 Dy2112 2.395 . S
O2117 C2134 1.255 . S
O2118 Dy2112 2.379 . S
O2118 C2134 1.249 . S
O2119 Dy2113 2.275 1_455 S
O2119 C2135 1.254 . S
O2120 Dy2112 2.339 . S
O2120 C2135 1.257 . S
O2121 Dy2113 2.319 1_455 S
O2121 C2136 1.260 1_545 S
O2122 Dy2112 2.298 . S
O2122 C2136 1.236 1_545 S
O2123 Dy2113 2.395 . S
O2123 C2143 1.255 . S
O2124 Dy2113 2.379 1_556 S
O2124 C2143 1.249 1_556 S
C2125 O2115 1.266 . S
C2125 O2116 1.236 . S
O2126 Dy2112 2.275 . S
O2126 C2114 1.254 1_554 S
O2127 Dy2113 2.339 1_456 S
O2127 C2114 1.257 . S
C2128 C2131 1.344 . S
C2128 C2132 1.328 . S
C2128 C2134 1.516 . S
C2129 C2130 1.304 . S
C2129 C2133 1.323 . S
C2130 C2129 1.304 . S
C2130 C2131 1.371 . S
C2130 H2144 0.930 1_545 S
C2131 C2128 1.344 . S
C2131 C2130 1.371 . S
C2131 H2145 0.931 . S
C2132 C2128 1.328 . S
C2132 C2133 1.433 . S
C2132 H2146 0.931 . S
C2133 C2129 1.323 . S
C2133 C2132 1.433 . S
C2133 H2147 0.933 . S
C2134 Dy2112 2.738 . S
C2134 O2117 1.255 . S
C2134 O2118 1.249 . S
C2134 C2128 1.516 . S
C2135 O2119 1.254 . S
C2135 O2120 1.257 . S
C2136 O2121 1.260 1_565 S
C2136 O2122 1.236 1_565 S
C2137 C2140 1.344 . S
C2137 C2141 1.328 1_554 S
C2137 C2143 1.516 . S
C2138 C2139 1.304 . S
C2138 C2142 1.323 1_554 S
C2139 C2138 1.304 . S
C2139 C2140 1.371 . S
C2139 H2148 0.930 . S
C2140 C2137 1.344 . S
C2140 C2139 1.371 . S
C2140 H2149 0.931 . S
C2141 C2137 1.328 1_556 S
C2141 C2142 1.433 . S
C2141 H2150 0.931 . S
C2142 C2138 1.323 1_556 S
C2142 C2141 1.433 . S
C2142 H2151 0.933 . S
C2143 Dy2113 2.738 . S
C2143 O2123 1.255 . S
C2143 O2124 1.249 1_554 S
C2143 C2137 1.516 . S
H2144 C2130 0.930 1_565 S
H2145 C2131 0.931 . S
H2146 C2132 0.931 . S
H2147 C2133 0.933 . S
H2148 C2139 0.930 . S
H2149 C2140 0.931 . S
H2150 C2141 0.931 . S
H2151 C2142 0.933 . S
Dy2152 O2155 2.307 . S
Dy2152 O2157 2.395 . S
Dy2152 O2158 2.379 . S
Dy2152 O2160 2.339 . S
Dy2152 O2162 2.298 . S
Dy2152 O2166 2.275 . S
Dy2152 C2174 2.738 . S
Dy2153 O2156 2.298 . S
Dy2153 O2159 2.275 . S
Dy2153 O2161 2.307 . S
Dy2153 O2163 2.395 . S
Dy2153 O2164 2.379 . S
Dy2153 O2167 2.339 . S
Dy2153 C2183 2.738 . S
C2154 O2166 1.254 . S
C2154 O2167 1.257 . S
O2155 Dy2152 2.307 . S
O2155 C2165 1.266 . S
O2156 Dy2153 2.298 . S
O2156 C2165 1.236 . S
O2157 Dy2152 2.395 . S
O2157 C2174 1.255 . S
O2158 Dy2152 2.379 . S
O2158 C2174 1.249 . S
O2159 Dy2153 2.275 . S
O2159 C2175 1.254 . S
O2160 Dy2152 2.339 . S
O2160 C2175 1.257 . S
O2161 Dy2153 2.307 . S
O2161 C2176 1.266 . S
O2162 Dy2152 2.298 . S
O2162 C2176 1.236 . S
O2163 Dy2153 2.395 . S
O2163 C2183 1.255 . S
O2164 Dy2153 2.379 . S
O2164 C2183 1.249 . S
C2165 O2155 1.266 . S
C2165 O2156 1.236 . S
O2166 Dy2152 2.275 . S
O2166 C2154 1.254 . S
O2167 Dy2153 2.339 . S
O2167 C2154 1.257 . S
C2168 C2171 1.344 . S
C2168 C2172 1.328 . S
C2168 C2174 1.516 . S
C2169 C2170 1.304 . S
C2169 C2173 1.323 . S
C2170 C2169 1.304 . S
C2170 C2171 1.371 . S
C2170 H2184 0.930 . S
C2171 C2168 1.344 . S
C2171 C2170 1.371 . S
C2171 H2185 0.931 . S
C2172 C2168 1.328 . S
C2172 C2173 1.433 . S
C2172 H2186 0.931 . S
C2173 C2169 1.323 . S
C2173 C2172 1.433 . S
C2173 H2187 0.933 . S
C2174 Dy2152 2.738 . S
C2174 O2157 1.255 . S
C2174 O2158 1.249 . S
C2174 C2168 1.516 . S
C2175 O2159 1.254 . S
C2175 O2160 1.257 . S
C2176 O2161 1.266 . S
C2176 O2162 1.236 . S
C2177 C2180 1.344 . S
C2177 C2181 1.328 . S
C2177 C2183 1.516 . S
C2178 C2179 1.304 . S
C2178 C2182 1.323 . S
C2179 C2178 1.304 . S
C2179 C2180 1.371 . S
C2179 H2188 0.930 . S
C2180 C2177 1.344 . S
C2180 C2179 1.371 . S
C2180 H2189 0.931 . S
C2181 C2177 1.328 . S
C2181 C2182 1.433 . S
C2181 H2190 0.931 . S
C2182 C2178 1.323 . S
C2182 C2181 1.433 . S
C2182 H2191 0.933 . S
C2183 Dy2153 2.738 . S
C2183 O2163 1.255 . S
C2183 O2164 1.249 . S
C2183 C2177 1.516 . S
H2184 C2170 0.930 . S
H2185 C2171 0.931 . S
H2186 C2172 0.931 . S
H2187 C2173 0.933 . S
H2188 C2179 0.930 . S
H2189 C2180 0.931 . S
H2190 C2181 0.931 . S
H2191 C2182 0.933 . S
Dy2192 O2195 2.307 . S
Dy2192 O2197 2.395 . S
Dy2192 O2198 2.379 . S
Dy2192 O2200 2.339 . S
Dy2192 O2202 2.298 . S
Dy2192 O2206 2.275 . S
Dy2192 C2214 2.738 . S
Dy2193 O2196 2.298 . S
Dy2193 O2199 2.275 . S
Dy2193 O2201 2.307 . S
Dy2193 O2203 2.395 . S
Dy2193 O2204 2.379 . S
Dy2193 O2207 2.339 . S
Dy2193 C2223 2.738 . S
C2194 O2206 1.254 . S
C2194 O2207 1.257 . S
O2195 Dy2192 2.307 . S
O2195 C2205 1.266 1_545 S
O2196 Dy2193 2.298 . S
O2196 C2205 1.236 1_545 S
O2197 Dy2192 2.395 . S
O2197 C2214 1.255 . S
O2198 Dy2192 2.379 . S
O2198 C2214 1.249 . S
O2199 Dy2193 2.275 . S
O2199 C2215 1.254 . S
O2200 Dy2192 2.339 . S
O2200 C2215 1.257 . S
O2201 Dy2193 2.307 . S
O2201 C2216 1.266 . S
O2202 Dy2192 2.298 . S
O2202 C2216 1.236 . S
O2203 Dy2193 2.395 . S
O2203 C2223 1.255 . S
O2204 Dy2193 2.379 . S
O2204 C2223 1.249 . S
C2205 O2195 1.266 1_565 S
C2205 O2196 1.236 1_565 S
O2206 Dy2192 2.275 . S
O2206 C2194 1.254 . S
O2207 Dy2193 2.339 . S
O2207 C2194 1.257 . S
C2208 C2211 1.344 . S
C2208 C2212 1.328 . S
C2208 C2214 1.516 . S
C2209 C2210 1.304 . S
C2209 C2213 1.323 . S
C2210 C2209 1.304 . S
C2210 C2211 1.371 . S
C2210 H2224 0.930 . S
C2211 C2208 1.344 . S
C2211 C2210 1.371 . S
C2211 H2225 0.931 . S
C2212 C2208 1.328 . S
C2212 C2213 1.433 . S
C2212 H2226 0.931 . S
C2213 C2209 1.323 . S
C2213 C2212 1.433 . S
C2213 H2227 0.933 . S
C2214 Dy2192 2.738 . S
C2214 O2197 1.255 . S
C2214 O2198 1.249 . S
C2214 C2208 1.516 . S
C2215 O2199 1.254 . S
C2215 O2200 1.257 . S
C2216 O2201 1.266 . S
C2216 O2202 1.236 . S
C2217 C2220 1.344 1_545 S
C2217 C2221 1.328 . S
C2217 C2223 1.516 . S
C2218 C2219 1.304 . S
C2218 C2222 1.323 . S
C2219 C2218 1.304 . S
C2219 C2220 1.371 . S
C2219 H2228 0.930 . S
C2220 C2217 1.344 1_565 S
C2220 C2219 1.371 . S
C2220 H2229 0.931 . S
C2221 C2217 1.328 . S
C2221 C2222 1.433 1_545 S
C2221 H2230 0.931 . S
C2222 C2218 1.323 . S
C2222 C2221 1.433 1_565 S
C2222 H2231 0.933 . S
C2223 Dy2193 2.738 . S
C2223 O2203 1.255 . S
C2223 O2204 1.249 . S
C2223 C2217 1.516 . S
H2224 C2210 0.930 . S
H2225 C2211 0.931 . S
H2226 C2212 0.931 . S
H2227 C2213 0.933 . S
H2228 C2219 0.930 . S
H2229 C2220 0.931 . S
H2230 C2221 0.931 . S
H2231 C2222 0.933 . S
Dy2232 O2235 2.307 . S
Dy2232 O2237 2.395 . S
Dy2232 O2238 2.379 . S
Dy2232 O2240 2.339 . S
Dy2232 O2242 2.298 . S
Dy2232 O2246 2.275 . S
Dy2232 C2254 2.738 . S
Dy2233 O2236 2.298 . S
Dy2233 O2239 2.275 . S
Dy2233 O2241 2.307 . S
Dy2233 O2243 2.395 . S
Dy2233 O2244 2.379 . S
Dy2233 O2247 2.339 . S
Dy2233 C2263 2.738 . S
C2234 O2246 1.254 . S
C2234 O2247 1.257 . S
O2235 Dy2232 2.307 . S
O2235 C2245 1.266 . S
O2236 Dy2233 2.298 . S
O2236 C2245 1.236 . S
O2237 Dy2232 2.395 . S
O2237 C2254 1.255 . S
O2238 Dy2232 2.379 . S
O2238 C2254 1.249 . S
O2239 Dy2233 2.275 . S
O2239 C2255 1.254 . S
O2240 Dy2232 2.339 . S
O2240 C2255 1.257 . S
O2241 Dy2233 2.307 . S
O2241 C2256 1.266 . S
O2242 Dy2232 2.298 . S
O2242 C2256 1.236 . S
O2243 Dy2233 2.395 . S
O2243 C2263 1.255 . S
O2244 Dy2233 2.379 . S
O2244 C2263 1.249 . S
C2245 O2235 1.266 . S
C2245 O2236 1.236 . S
O2246 Dy2232 2.275 . S
O2246 C2234 1.254 . S
O2247 Dy2233 2.339 . S
O2247 C2234 1.257 . S
C2248 C2251 1.344 . S
C2248 C2252 1.328 . S
C2248 C2254 1.516 . S
C2249 C2250 1.304 . S
C2249 C2253 1.323 . S
C2250 C2249 1.304 . S
C2250 C2251 1.371 . S
C2250 H2264 0.930 . S
C2251 C2248 1.344 . S
C2251 C2250 1.371 . S
C2251 H2265 0.931 . S
C2252 C2248 1.328 . S
C2252 C2253 1.433 . S
C2252 H2266 0.931 . S
C2253 C2249 1.323 . S
C2253 C2252 1.433 . S
C2253 H2267 0.933 . S
C2254 Dy2232 2.738 . S
C2254 O2237 1.255 . S
C2254 O2238 1.249 . S
C2254 C2248 1.516 . S
C2255 O2239 1.254 . S
C2255 O2240 1.257 . S
C2256 O2241 1.266 . S
C2256 O2242 1.236 . S
C2257 C2260 1.344 . S
C2257 C2261 1.328 . S
C2257 C2263 1.516 . S
C2258 C2259 1.304 . S
C2258 C2262 1.323 . S
C2259 C2258 1.304 . S
C2259 C2260 1.371 . S
C2259 H2268 0.930 . S
C2260 C2257 1.344 . S
C2260 C2259 1.371 . S
C2260 H2269 0.931 . S
C2261 C2257 1.328 . S
C2261 C2262 1.433 . S
C2261 H2270 0.931 . S
C2262 C2258 1.323 . S
C2262 C2261 1.433 . S
C2262 H2271 0.933 . S
C2263 Dy2233 2.738 . S
C2263 O2243 1.255 . S
C2263 O2244 1.249 . S
C2263 C2257 1.516 . S
H2264 C2250 0.930 . S
H2265 C2251 0.931 . S
H2266 C2252 0.931 . S
H2267 C2253 0.933 . S
H2268 C2259 0.930 . S
H2269 C2260 0.931 . S
H2270 C2261 0.931 . S
H2271 C2262 0.933 . S
Dy2272 O2275 2.307 . S
Dy2272 O2277 2.395 1_545 S
Dy2272 O2278 2.379 1_545 S
Dy2272 O2280 2.339 . S
Dy2272 O2282 2.298 . S
Dy2272 O2286 2.275 . S
Dy2272 C2294 2.738 1_545 S
Dy2273 O2276 2.298 . S
Dy2273 O2279 2.275 . S
Dy2273 O2281 2.307 . S
Dy2273 O2283 2.395 . S
Dy2273 O2284 2.379 1_455 S
Dy2273 O2287 2.339 1_455 S
Dy2273 C2303 2.738 . S
C2274 O2286 1.254 1_655 S
C2274 O2287 1.257 . S
O2275 Dy2272 2.307 . S
O2275 C2285 1.266 . S
O2276 Dy2273 2.298 . S
O2276 C2285 1.236 . S
O2277 Dy2272 2.395 1_565 S
O2277 C2294 1.255 . S
O2278 Dy2272 2.379 1_565 S
O2278 C2294 1.249 . S
O2279 Dy2273 2.275 . S
O2279 C2295 1.254 . S
O2280 Dy2272 2.339 . S
O2280 C2295 1.257 . S
O2281 Dy2273 2.307 . S
O2281 C2296 1.266 . S
O2282 Dy2272 2.298 . S
O2282 C2296 1.236 . S
O2283 Dy2273 2.395 . S
O2283 C2303 1.255 . S
O2284 Dy2273 2.379 1_655 S
O2284 C2303 1.249 1_655 S
C2285 O2275 1.266 . S
C2285 O2276 1.236 . S
O2286 Dy2272 2.275 . S
O2286 C2274 1.254 1_455 S
O2287 Dy2273 2.339 1_655 S
O2287 C2274 1.257 . S
C2288 C2291 1.344 . S
C2288 C2292 1.328 . S
C2288 C2294 1.516 . S
C2289 C2290 1.304 . S
C2289 C2293 1.323 . S
C2290 C2289 1.304 . S
C2290 C2291 1.371 . S
C2290 H2304 0.930 . S
C2291 C2288 1.344 . S
C2291 C2290 1.371 . S
C2291 H2305 0.931 . S
C2292 C2288 1.328 . S
C2292 C2293 1.433 . S
C2292 H2306 0.931 . S
C2293 C2289 1.323 . S
C2293 C2292 1.433 . S
C2293 H2307 0.933 . S
C2294 Dy2272 2.738 1_565 S
C2294 O2277 1.255 . S
C2294 O2278 1.249 . S
C2294 C2288 1.516 . S
C2295 O2279 1.254 . S
C2295 O2280 1.257 . S
C2296 O2281 1.266 . S
C2296 O2282 1.236 . S
C2297 C2300 1.344 . S
C2297 C2301 1.328 1_455 S
C2297 C2303 1.516 . S
C2298 C2299 1.304 . S
C2298 C2302 1.323 1_455 S
C2299 C2298 1.304 . S
C2299 C2300 1.371 . S
C2299 H2308 0.930 . S
C2300 C2297 1.344 . S
C2300 C2299 1.371 . S
C2300 H2309 0.931 . S
C2301 C2297 1.328 1_655 S
C2301 C2302 1.433 . S
C2301 H2310 0.931 . S
C2302 C2298 1.323 1_655 S
C2302 C2301 1.433 . S
C2302 H2311 0.933 . S
C2303 Dy2273 2.738 . S
C2303 O2283 1.255 . S
C2303 O2284 1.249 1_455 S
C2303 C2297 1.516 . S
H2304 C2290 0.930 . S
H2305 C2291 0.931 . S
H2306 C2292 0.931 . S
H2307 C2293 0.933 . S
H2308 C2299 0.930 . S
H2309 C2300 0.931 . S
H2310 C2301 0.931 . S
H2311 C2302 0.933 . S
Dy2312 O2315 2.307 . S
Dy2312 O2317 2.395 . S
Dy2312 O2318 2.379 . S
Dy2312 O2320 2.339 . S
Dy2312 O2322 2.298 . S
Dy2312 O2326 2.275 . S
Dy2312 C2334 2.738 . S
Dy2313 O2316 2.298 . S
Dy2313 O2319 2.275 . S
Dy2313 O2321 2.307 . S
Dy2313 O2323 2.395 . S
Dy2313 O2324 2.379 . S
Dy2313 O2327 2.339 . S
Dy2313 C2343 2.738 . S
C2314 O2326 1.254 . S
C2314 O2327 1.257 . S
O2315 Dy2312 2.307 . S
O2315 C2325 1.266 . S
O2316 Dy2313 2.298 . S
O2316 C2325 1.236 . S
O2317 Dy2312 2.395 . S
O2317 C2334 1.255 . S
O2318 Dy2312 2.379 . S
O2318 C2334 1.249 . S
O2319 Dy2313 2.275 . S
O2319 C2335 1.254 . S
O2320 Dy2312 2.339 . S
O2320 C2335 1.257 . S
O2321 Dy2313 2.307 . S
O2321 C2336 1.266 . S
O2322 Dy2312 2.298 . S
O2322 C2336 1.236 . S
O2323 Dy2313 2.395 . S
O2323 C2343 1.255 . S
O2324 Dy2313 2.379 . S
O2324 C2343 1.249 . S
C2325 O2315 1.266 . S
C2325 O2316 1.236 . S
O2326 Dy2312 2.275 . S
O2326 C2314 1.254 . S
O2327 Dy2313 2.339 . S
O2327 C2314 1.257 . S
C2328 C2331 1.344 . S
C2328 C2332 1.328 . S
C2328 C2334 1.516 . S
C2329 C2330 1.304 . S
C2329 C2333 1.323 . S
C2330 C2329 1.304 . S
C2330 C2331 1.371 . S
C2330 H2344 0.930 . S
C2331 C2328 1.344 . S
C2331 C2330 1.371 . S
C2331 H2345 0.931 . S
C2332 C2328 1.328 . S
C2332 C2333 1.433 . S
C2332 H2346 0.931 . S
C2333 C2329 1.323 . S
C2333 C2332 1.433 . S
C2333 H2347 0.933 . S
C2334 Dy2312 2.738 . S
C2334 O2317 1.255 . S
C2334 O2318 1.249 . S
C2334 C2328 1.516 . S
C2335 O2319 1.254 . S
C2335 O2320 1.257 . S
C2336 O2321 1.266 . S
C2336 O2322 1.236 . S
C2337 C2340 1.344 . S
C2337 C2341 1.328 . S
C2337 C2343 1.516 . S
C2338 C2339 1.304 . S
C2338 C2342 1.323 . S
C2339 C2338 1.304 . S
C2339 C2340 1.371 . S
C2339 H2348 0.930 . S
C2340 C2337 1.344 . S
C2340 C2339 1.371 . S
C2340 H2349 0.931 . S
C2341 C2337 1.328 . S
C2341 C2342 1.433 . S
C2341 H2350 0.931 . S
C2342 C2338 1.323 . S
C2342 C2341 1.433 . S
C2342 H2351 0.933 . S
C2343 Dy2313 2.738 . S
C2343 O2323 1.255 . S
C2343 O2324 1.249 . S
C2343 C2337 1.516 . S
H2344 C2330 0.930 . S
H2345 C2331 0.931 . S
H2346 C2332 0.931 . S
H2347 C2333 0.933 . S
H2348 C2339 0.930 . S
H2349 C2340 0.931 . S
H2350 C2341 0.931 . S
H2351 C2342 0.933 . S
Dy2352 O2355 2.307 . S
Dy2352 O2357 2.395 1_554 S
Dy2352 O2358 2.379 1_554 S
Dy2352 O2360 2.339 . S
Dy2352 O2362 2.298 . S
Dy2352 O2366 2.275 . S
Dy2352 C2374 2.738 1_554 S
Dy2353 O2356 2.298 . S
Dy2353 O2359 2.275 . S
Dy2353 O2361 2.307 . S
Dy2353 O2363 2.395 . S
Dy2353 O2364 2.360 1_545 S
Dy2353 O2367 2.339 1_545 S
Dy2353 C2383 2.738 . S
C2354 O2366 1.254 . S
C2354 O2367 1.257 1_545 S
O2355 Dy2352 2.307 . S
O2355 C2365 1.266 . S
O2356 Dy2353 2.298 . S
O2356 C2365 1.236 . S
O2357 Dy2352 2.395 1_556 S
O2357 C2374 1.255 . S
O2358 Dy2352 2.379 1_556 S
O2358 C2374 1.249 . S
O2359 Dy2353 2.275 . S
O2359 C2375 1.254 . S
O2360 Dy2352 2.339 . S
O2360 C2375 1.257 . S
O2361 Dy2353 2.307 . S
O2361 C2376 1.266 . S
O2362 Dy2352 2.298 . S
O2362 C2376 1.236 . S
O2363 Dy2353 2.395 . S
O2363 C2383 1.255 . S
O2364 Dy2353 2.360 1_565 S
O2364 C2383 1.230 1_565 S
C2365 O2355 1.266 . S
C2365 O2356 1.236 . S
O2366 Dy2352 2.275 . S
O2366 C2354 1.254 . S
O2367 Dy2353 2.339 1_565 S
O2367 C2354 1.257 1_565 S
C2368 C2371 1.344 . S
C2368 C2372 1.328 . S
C2368 C2374 1.516 . S
C2369 C2370 1.304 . S
C2369 C2373 1.323 . S
C2370 C2369 1.304 . S
C2370 C2371 1.371 . S
C2370 H2384 0.930 . S
C2371 C2368 1.344 . S
C2371 C2370 1.371 . S
C2371 H2385 0.931 . S
C2372 C2368 1.328 . S
C2372 C2373 1.433 . S
C2372 H2386 0.931 . S
C2373 C2369 1.323 . S
C2373 C2372 1.433 . S
C2373 H2387 0.933 . S
C2374 Dy2352 2.738 1_556 S
C2374 O2357 1.255 . S
C2374 O2358 1.249 . S
C2374 C2368 1.516 . S
C2375 O2359 1.254 . S
C2375 O2360 1.257 . S
C2376 O2361 1.266 . S
C2376 O2362 1.236 . S
C2377 C2380 1.344 . S
C2377 C2381 1.328 1_545 S
C2377 C2383 1.516 . S
C2378 C2379 1.304 1_565 S
C2378 C2382 1.323 . S
C2379 C2378 1.304 1_545 S
C2379 C2380 1.371 . S
C2379 H2388 0.930 . S
C2380 C2377 1.344 . S
C2380 C2379 1.371 . S
C2380 H2389 0.931 . S
C2381 C2377 1.328 1_565 S
C2381 C2382 1.433 . S
C2381 H2390 0.931 . S
C2382 C2378 1.323 . S
C2382 C2381 1.433 . S
C2382 H2391 0.933 . S
C2383 Dy2353 2.738 . S
C2383 O2363 1.255 . S
C2383 O2364 1.230 1_545 S
C2383 C2377 1.516 . S
H2384 C2370 0.930 . S
H2385 C2371 0.931 . S
H2386 C2372 0.931 . S
H2387 C2373 0.933 . S
H2388 C2379 0.930 . S
H2389 C2380 0.931 . S
H2390 C2381 0.931 . S
H2391 C2382 0.933 . S
Dy2392 O2395 2.307 . S
Dy2392 O2397 2.395 . S
Dy2392 O2398 2.379 . S
Dy2392 O2400 2.339 . S
Dy2392 O2402 2.298 . S
Dy2392 O2406 2.275 . S
Dy2392 C2414 2.738 . S
Dy2393 O2396 2.298 . S
Dy2393 O2399 2.275 . S
Dy2393 O2401 2.307 . S
Dy2393 O2403 2.395 . S
Dy2393 O2404 2.379 . S
Dy2393 O2407 2.339 . S
Dy2393 C2423 2.738 . S
C2394 O2406 1.254 . S
C2394 O2407 1.257 . S
O2395 Dy2392 2.307 . S
O2395 C2405 1.266 . S
O2396 Dy2393 2.298 . S
O2396 C2405 1.236 . S
O2397 Dy2392 2.395 . S
O2397 C2414 1.255 . S
O2398 Dy2392 2.379 . S
O2398 C2414 1.249 . S
O2399 Dy2393 2.275 . S
O2399 C2415 1.254 . S
O2400 Dy2392 2.339 . S
O2400 C2415 1.257 . S
O2401 Dy2393 2.307 . S
O2401 C2416 1.266 . S
O2402 Dy2392 2.298 . S
O2402 C2416 1.236 . S
O2403 Dy2393 2.395 . S
O2403 C2423 1.255 . S
O2404 Dy2393 2.379 . S
O2404 C2423 1.249 . S
C2405 O2395 1.266 . S
C2405 O2396 1.236 . S
O2406 Dy2392 2.275 . S
O2406 C2394 1.254 . S
O2407 Dy2393 2.339 . S
O2407 C2394 1.257 . S
C2408 C2411 1.344 . S
C2408 C2412 1.328 . S
C2408 C2414 1.516 . S
C2409 C2410 1.304 . S
C2409 C2413 1.323 . S
C2410 C2409 1.304 . S
C2410 C2411 1.371 . S
C2410 H2424 0.930 . S
C2411 C2408 1.344 . S
C2411 C2410 1.371 . S
C2411 H2425 0.931 . S
C2412 C2408 1.328 . S
C2412 C2413 1.433 . S
C2412 H2426 0.931 . S
C2413 C2409 1.323 . S
C2413 C2412 1.433 . S
C2413 H2427 0.933 . S
C2414 Dy2392 2.738 . S
C2414 O2397 1.255 . S
C2414 O2398 1.249 . S
C2414 C2408 1.516 . S
C2415 O2399 1.254 . S
C2415 O2400 1.257 . S
C2416 O2401 1.266 . S
C2416 O2402 1.236 . S
C2417 C2420 1.344 . S
C2417 C2421 1.328 . S
C2417 C2423 1.516 . S
C2418 C2419 1.304 . S
C2418 C2422 1.323 . S
C2419 C2418 1.304 . S
C2419 C2420 1.371 . S
C2419 H2428 0.930 . S
C2420 C2417 1.344 . S
C2420 C2419 1.371 . S
C2420 H2429 0.931 . S
C2421 C2417 1.328 . S
C2421 C2422 1.433 . S
C2421 H2430 0.931 . S
C2422 C2418 1.323 . S
C2422 C2421 1.433 . S
C2422 H2431 0.933 . S
C2423 Dy2393 2.738 . S
C2423 O2403 1.255 . S
C2423 O2404 1.249 . S
C2423 C2417 1.516 . S
H2424 C2410 0.930 . S
H2425 C2411 0.931 . S
H2426 C2412 0.931 . S
H2427 C2413 0.933 . S
H2428 C2419 0.930 . S
H2429 C2420 0.931 . S
H2430 C2421 0.931 . S
H2431 C2422 0.933 . S
Dy2432 O2435 2.307 1_554 S
Dy2432 O2437 2.395 . S
Dy2432 O2438 2.379 . S
Dy2432 O2440 2.339 . S
Dy2432 O2442 2.298 . S
Dy2432 O2446 2.275 . S
Dy2432 C2454 2.738 . S
Dy2433 O2436 2.298 1_554 S
Dy2433 O2439 2.275 . S
Dy2433 O2441 2.307 . S
Dy2433 O2443 2.395 . S
Dy2433 O2444 2.379 . S
Dy2433 O2447 2.339 . S
Dy2433 C2463 2.738 . S
C2434 O2446 1.254 . S
C2434 O2447 1.257 . S
O2435 Dy2432 2.307 1_556 S
O2435 C2445 1.266 . S
O2436 Dy2433 2.298 1_556 S
O2436 C2445 1.236 . S
O2437 Dy2432 2.395 . S
O2437 C2454 1.255 . S
O2438 Dy2432 2.379 . S
O2438 C2454 1.249 . S
O2439 Dy2433 2.275 . S
O2439 C2455 1.254 . S
O2440 Dy2432 2.339 . S
O2440 C2455 1.257 . S
O2441 Dy2433 2.307 . S
O2441 C2456 1.266 . S
O2442 Dy2432 2.298 . S
O2442 C2456 1.236 . S
O2443 Dy2433 2.395 . S
O2443 C2463 1.255 . S
O2444 Dy2433 2.379 . S
O2444 C2463 1.249 . S
C2445 O2435 1.266 . S
C2445 O2436 1.236 . S
O2446 Dy2432 2.275 . S
O2446 C2434 1.254 . S
O2447 Dy2433 2.339 . S
O2447 C2434 1.257 . S
C2448 C2451 1.344 . S
C2448 C2452 1.328 . S
C2448 C2454 1.516 . S
C2449 C2450 1.304 . S
C2449 C2453 1.323 . S
C2450 C2449 1.304 . S
C2450 C2451 1.371 . S
C2450 H2464 0.930 . S
C2451 C2448 1.344 . S
C2451 C2450 1.371 . S
C2451 H2465 0.931 . S
C2452 C2448 1.328 . S
C2452 C2453 1.433 . S
C2452 H2466 0.931 . S
C2453 C2449 1.323 . S
C2453 C2452 1.433 . S
C2453 H2467 0.933 . S
C2454 Dy2432 2.738 . S
C2454 O2437 1.255 . S
C2454 O2438 1.249 . S
C2454 C2448 1.516 . S
C2455 O2439 1.254 . S
C2455 O2440 1.257 . S
C2456 O2441 1.266 . S
C2456 O2442 1.236 . S
C2457 C2460 1.344 . S
C2457 C2461 1.328 . S
C2457 C2463 1.516 1_556 S
C2458 C2459 1.304 . S
C2458 C2462 1.323 . S
C2459 C2458 1.304 . S
C2459 C2460 1.371 . S
C2459 H2468 0.930 . S
C2460 C2457 1.344 . S
C2460 C2459 1.371 . S
C2460 H2469 0.931 . S
C2461 C2457 1.328 . S
C2461 C2462 1.433 . S
C2461 H2470 0.931 1_556 S
C2462 C2458 1.323 . S
C2462 C2461 1.433 . S
C2462 H2471 0.933 . S
C2463 Dy2433 2.738 . S
C2463 O2443 1.255 . S
C2463 O2444 1.249 . S
C2463 C2457 1.516 1_554 S
H2464 C2450 0.930 . S
H2465 C2451 0.931 . S
H2466 C2452 0.931 . S
H2467 C2453 0.933 . S
H2468 C2459 0.930 . S
H2469 C2460 0.931 . S
H2470 C2461 0.931 1_554 S
H2471 C2462 0.933 . S
Dy2472 O2475 2.307 . S
Dy2472 O2477 2.395 . S
Dy2472 O2478 2.379 . S
Dy2472 O2480 2.339 . S
Dy2472 O2482 2.298 . S
Dy2472 O2486 2.275 . S
Dy2472 C2494 2.738 . S
Dy2473 O2476 2.298 . S
Dy2473 O2479 2.275 . S
Dy2473 O2481 2.307 . S
Dy2473 O2483 2.395 . S
Dy2473 O2484 2.379 . S
Dy2473 O2487 2.339 . S
Dy2473 C2503 2.738 . S
C2474 O2486 1.254 . S
C2474 O2487 1.257 . S
O2475 Dy2472 2.307 . S
O2475 C2485 1.266 . S
O2476 Dy2473 2.298 . S
O2476 C2485 1.236 . S
O2477 Dy2472 2.395 . S
O2477 C2494 1.255 . S
O2478 Dy2472 2.379 . S
O2478 C2494 1.249 . S
O2479 Dy2473 2.275 . S
O2479 C2495 1.254 . S
O2480 Dy2472 2.339 . S
O2480 C2495 1.257 . S
O2481 Dy2473 2.307 . S
O2481 C2496 1.266 . S
O2482 Dy2472 2.298 . S
O2482 C2496 1.236 . S
O2483 Dy2473 2.395 . S
O2483 C2503 1.255 . S
O2484 Dy2473 2.379 . S
O2484 C2503 1.249 . S
C2485 O2475 1.266 . S
C2485 O2476 1.236 . S
O2486 Dy2472 2.275 . S
O2486 C2474 1.254 . S
O2487 Dy2473 2.339 . S
O2487 C2474 1.257 . S
C2488 C2491 1.344 . S
C2488 C2492 1.328 . S
C2488 C2494 1.516 . S
C2489 C2490 1.304 . S
C2489 C2493 1.323 . S
C2490 C2489 1.304 . S
C2490 C2491 1.371 . S
C2490 H2504 0.930 . S
C2491 C2488 1.344 . S
C2491 C2490 1.371 . S
C2491 H2505 0.931 . S
C2492 C2488 1.328 . S
C2492 C2493 1.433 . S
C2492 H2506 0.931 . S
C2493 C2489 1.323 . S
C2493 C2492 1.433 . S
C2493 H2507 0.933 . S
C2494 Dy2472 2.738 . S
C2494 O2477 1.255 . S
C2494 O2478 1.249 . S
C2494 C2488 1.516 . S
C2495 O2479 1.254 . S
C2495 O2480 1.257 . S
C2496 O2481 1.266 . S
C2496 O2482 1.236 . S
C2497 C2500 1.344 . S
C2497 C2501 1.328 . S
C2497 C2503 1.516 . S
C2498 C2499 1.304 . S
C2498 C2502 1.323 . S
C2499 C2498 1.304 . S
C2499 C2500 1.371 . S
C2499 H2508 0.930 . S
C2500 C2497 1.344 . S
C2500 C2499 1.371 . S
C2500 H2509 0.931 . S
C2501 C2497 1.328 . S
C2501 C2502 1.433 . S
C2501 H2510 0.931 . S
C2502 C2498 1.323 . S
C2502 C2501 1.433 . S
C2502 H2511 0.933 . S
C2503 Dy2473 2.738 . S
C2503 O2483 1.255 . S
C2503 O2484 1.249 . S
C2503 C2497 1.516 . S
H2504 C2490 0.930 . S
H2505 C2491 0.931 . S
H2506 C2492 0.931 . S
H2507 C2493 0.933 . S
H2508 C2499 0.930 . S
H2509 C2500 0.931 . S
H2510 C2501 0.931 . S
H2511 C2502 0.933 . S
Dy2512 O2515 2.307 1_455 S
Dy2512 O2517 2.395 . S
Dy2512 O2518 2.379 . S
Dy2512 O2520 2.339 . S
Dy2512 O2522 2.298 . S
Dy2512 O2526 2.275 . S
Dy2512 C2534 2.738 . S
Dy2513 O2516 2.298 1_455 S
Dy2513 O2519 2.275 . S
Dy2513 O2521 2.307 . S
Dy2513 O2523 2.395 . S
Dy2513 O2524 2.379 . S
Dy2513 O2527 2.339 . S
Dy2513 C2543 2.738 . S
C2514 O2526 1.254 . S
C2514 O2527 1.257 . S
O2515 Dy2512 2.307 1_655 S
O2515 C2525 1.266 . S
O2516 Dy2513 2.298 1_655 S
O2516 C2525 1.236 . S
O2517 Dy2512 2.395 . S
O2517 C2534 1.255 . S
O2518 Dy2512 2.379 . S
O2518 C2534 1.249 . S
O2519 Dy2513 2.275 . S
O2519 C2535 1.254 . S
O2520 Dy2512 2.339 . S
O2520 C2535 1.257 . S
O2521 Dy2513 2.307 . S
O2521 C2536 1.266 . S
O2522 Dy2512 2.298 . S
O2522 C2536 1.236 . S
O2523 Dy2513 2.395 . S
O2523 C2543 1.255 . S
O2524 Dy2513 2.379 . S
O2524 C2543 1.249 . S
C2525 O2515 1.266 . S
C2525 O2516 1.236 . S
O2526 Dy2512 2.275 . S
O2526 C2514 1.254 . S
O2527 Dy2513 2.339 . S
O2527 C2514 1.257 . S
C2528 C2531 1.344 . S
C2528 C2532 1.328 . S
C2528 C2534 1.516 . S
C2529 C2530 1.304 . S
C2529 C2533 1.323 . S
C2530 C2529 1.304 . S
C2530 C2531 1.371 . S
C2530 H2544 0.930 . S
C2531 C2528 1.344 . S
C2531 C2530 1.371 . S
C2531 H2545 0.931 . S
C2532 C2528 1.328 . S
C2532 C2533 1.433 . S
C2532 H2546 0.931 . S
C2533 C2529 1.323 . S
C2533 C2532 1.433 . S
C2533 H2547 0.933 . S
C2534 Dy2512 2.738 . S
C2534 O2517 1.255 . S
C2534 O2518 1.249 . S
C2534 C2528 1.516 . S
C2535 O2519 1.254 . S
C2535 O2520 1.257 . S
C2536 O2521 1.266 . S
C2536 O2522 1.236 . S
C2537 C2540 1.344 . S
C2537 C2541 1.328 . S
C2537 C2543 1.516 1_655 S
C2538 C2539 1.304 . S
C2538 C2542 1.323 . S
C2539 C2538 1.304 . S
C2539 C2540 1.371 . S
C2539 H2548 0.930 . S
C2540 C2537 1.344 . S
C2540 C2539 1.371 . S
C2540 H2549 0.931 . S
C2541 C2537 1.328 . S
C2541 C2542 1.433 . S
C2541 H2550 0.931 . S
C2542 C2538 1.323 . S
C2542 C2541 1.433 . S
C2542 H2551 0.933 . S
C2543 Dy2513 2.738 . S
C2543 O2523 1.255 . S
C2543 O2524 1.249 . S
C2543 C2537 1.516 1_455 S
H2544 C2530 0.930 . S
H2545 C2531 0.931 . S
H2546 C2532 0.931 . S
H2547 C2533 0.933 . S
H2548 C2539 0.930 . S
H2549 C2540 0.931 . S
H2550 C2541 0.931 . S
H2551 C2542 0.933 . S
Dy2552 O2555 2.307 . S
Dy2552 O2557 2.395 . S
Dy2552 O2558 2.379 . S
Dy2552 O2560 2.339 . S
Dy2552 O2562 2.298 . S
Dy2552 O2566 2.275 . S
Dy2552 C2574 2.738 . S
Dy2553 O2556 2.298 . S
Dy2553 O2559 2.275 . S
Dy2553 O2561 2.307 . S
Dy2553 O2563 2.395 . S
Dy2553 O2564 2.379 . S
Dy2553 O2567 2.339 . S
Dy2553 C2583 2.738 . S
C2554 O2566 1.254 . S
C2554 O2567 1.257 . S
O2555 Dy2552 2.307 . S
O2555 C2565 1.266 . S
O2556 Dy2553 2.298 . S
O2556 C2565 1.236 . S
O2557 Dy2552 2.395 . S
O2557 C2574 1.255 . S
O2558 Dy2552 2.379 . S
O2558 C2574 1.249 . S
O2559 Dy2553 2.275 . S
O2559 C2575 1.254 . S
O2560 Dy2552 2.339 . S
O2560 C2575 1.257 . S
O2561 Dy2553 2.307 . S
O2561 C2576 1.266 . S
O2562 Dy2552 2.298 . S
O2562 C2576 1.236 . S
O2563 Dy2553 2.395 . S
O2563 C2583 1.255 . S
O2564 Dy2553 2.379 . S
O2564 C2583 1.249 . S
C2565 O2555 1.266 . S
C2565 O2556 1.236 . S
O2566 Dy2552 2.275 . S
O2566 C2554 1.254 . S
O2567 Dy2553 2.339 . S
O2567 C2554 1.257 . S
C2568 C2571 1.344 . S
C2568 C2572 1.328 . S
C2568 C2574 1.516 . S
C2569 C2570 1.304 . S
C2569 C2573 1.323 . S
C2570 C2569 1.304 . S
C2570 C2571 1.371 . S
C2570 H2584 0.930 . S
C2571 C2568 1.344 . S
C2571 C2570 1.371 . S
C2571 H2585 0.931 . S
C2572 C2568 1.328 . S
C2572 C2573 1.433 . S
C2572 H2586 0.931 . S
C2573 C2569 1.323 . S
C2573 C2572 1.433 . S
C2573 H2587 0.933 . S
C2574 Dy2552 2.738 . S
C2574 O2557 1.255 . S
C2574 O2558 1.249 . S
C2574 C2568 1.516 . S
C2575 O2559 1.254 . S
C2575 O2560 1.257 . S
C2576 O2561 1.266 . S
C2576 O2562 1.236 . S
C2577 C2580 1.344 . S
C2577 C2581 1.328 . S
C2577 C2583 1.516 . S
C2578 C2579 1.304 . S
C2578 C2582 1.323 . S
C2579 C2578 1.304 . S
C2579 C2580 1.371 . S
C2579 H2588 0.930 . S
C2580 C2577 1.344 . S
C2580 C2579 1.371 . S
C2580 H2589 0.931 . S
C2581 C2577 1.328 . S
C2581 C2582 1.433 . S
C2581 H2590 0.931 . S
C2582 C2578 1.323 . S
C2582 C2581 1.433 . S
C2582 H2591 0.933 . S
C2583 Dy2553 2.738 . S
C2583 O2563 1.255 . S
C2583 O2564 1.249 . S
C2583 C2577 1.516 . S
H2584 C2570 0.930 . S
H2585 C2571 0.931 . S
H2586 C2572 0.931 . S
H2587 C2573 0.933 . S
H2588 C2579 0.930 . S
H2589 C2580 0.931 . S
H2590 C2581 0.931 . S
H2591 C2582 0.933 . S
Dy2592 O2595 2.307 . S
Dy2592 O2597 2.395 . S
Dy2592 O2598 2.379 . S
Dy2592 O2600 2.339 . S
Dy2592 O2602 2.298 . S
Dy2592 O2606 2.275 . S
Dy2592 C2614 2.738 . S
Dy2593 O2596 2.298 . S
Dy2593 O2599 2.275 . S
Dy2593 O2601 2.307 . S
Dy2593 O2603 2.395 . S
Dy2593 O2604 2.379 . S
Dy2593 O2607 2.339 . S
Dy2593 C2623 2.738 . S
C2594 O2606 1.254 . S
C2594 O2607 1.257 . S
O2595 Dy2592 2.307 . S
O2595 C2605 1.266 . S
O2596 Dy2593 2.298 . S
O2596 C2605 1.236 . S
O2597 Dy2592 2.395 . S
O2597 C2614 1.255 . S
O2598 Dy2592 2.379 . S
O2598 C2614 1.249 . S
O2599 Dy2593 2.275 . S
O2599 C2615 1.254 . S
O2600 Dy2592 2.339 . S
O2600 C2615 1.257 . S
O2601 Dy2593 2.307 . S
O2601 C2616 1.266 . S
O2602 Dy2592 2.298 . S
O2602 C2616 1.236 . S
O2603 Dy2593 2.395 . S
O2603 C2623 1.255 . S
O2604 Dy2593 2.379 . S
O2604 C2623 1.249 . S
C2605 O2595 1.266 . S
C2605 O2596 1.236 . S
O2606 Dy2592 2.275 . S
O2606 C2594 1.254 . S
O2607 Dy2593 2.339 . S
O2607 C2594 1.257 . S
C2608 C2611 1.344 . S
C2608 C2612 1.328 . S
C2608 C2614 1.516 . S
C2609 C2610 1.304 . S
C2609 C2613 1.323 . S
C2610 C2609 1.304 . S
C2610 C2611 1.371 . S
C2610 H2624 0.930 . S
C2611 C2608 1.344 . S
C2611 C2610 1.371 . S
C2611 H2625 0.931 . S
C2612 C2608 1.328 . S
C2612 C2613 1.433 . S
C2612 H2626 0.931 . S
C2613 C2609 1.323 . S
C2613 C2612 1.433 . S
C2613 H2627 0.933 . S
C2614 Dy2592 2.738 . S
C2614 O2597 1.255 . S
C2614 O2598 1.249 . S
C2614 C2608 1.516 . S
C2615 O2599 1.254 . S
C2615 O2600 1.257 . S
C2616 O2601 1.266 . S
C2616 O2602 1.236 . S
C2617 C2620 1.344 . S
C2617 C2621 1.328 . S
C2617 C2623 1.516 . S
C2618 C2619 1.304 . S
C2618 C2622 1.323 . S
C2619 C2618 1.304 . S
C2619 C2620 1.371 . S
C2619 H2628 0.930 . S
C2620 C2617 1.344 . S
C2620 C2619 1.371 . S
C2620 H2629 0.931 . S
C2621 C2617 1.328 . S
C2621 C2622 1.433 . S
C2621 H2630 0.931 . S
C2622 C2618 1.323 . S
C2622 C2621 1.433 . S
C2622 H2631 0.933 . S
C2623 Dy2593 2.738 . S
C2623 O2603 1.255 . S
C2623 O2604 1.249 . S
C2623 C2617 1.516 . S
H2624 C2610 0.930 . S
H2625 C2611 0.931 . S
H2626 C2612 0.931 . S
H2627 C2613 0.933 . S
H2628 C2619 0.930 . S
H2629 C2620 0.931 . S
H2630 C2621 0.931 . S
H2631 C2622 0.933 . S
Dy2632 O2635 2.307 . S
Dy2632 O2637 2.395 . S
Dy2632 O2638 2.379 . S
Dy2632 O2640 2.339 . S
Dy2632 O2642 2.298 . S
Dy2632 O2646 2.275 . S
Dy2632 C2654 2.738 . S
Dy2633 O2636 2.298 . S
Dy2633 O2639 2.275 . S
Dy2633 O2641 2.307 . S
Dy2633 O2643 2.395 . S
Dy2633 O2644 2.379 . S
Dy2633 O2647 2.339 . S
Dy2633 C2663 2.738 . S
C2634 O2646 1.254 . S
C2634 O2647 1.257 . S
O2635 Dy2632 2.307 . S
O2635 C2645 1.266 . S
O2636 Dy2633 2.298 . S
O2636 C2645 1.236 . S
O2637 Dy2632 2.395 . S
O2637 C2654 1.255 . S
O2638 Dy2632 2.379 . S
O2638 C2654 1.249 . S
O2639 Dy2633 2.275 . S
O2639 C2655 1.254 . S
O2640 Dy2632 2.339 . S
O2640 C2655 1.257 . S
O2641 Dy2633 2.307 . S
O2641 C2656 1.266 . S
O2642 Dy2632 2.298 . S
O2642 C2656 1.236 . S
O2643 Dy2633 2.395 . S
O2643 C2663 1.255 . S
O2644 Dy2633 2.379 . S
O2644 C2663 1.249 . S
C2645 O2635 1.266 . S
C2645 O2636 1.236 . S
O2646 Dy2632 2.275 . S
O2646 C2634 1.254 . S
O2647 Dy2633 2.339 . S
O2647 C2634 1.257 . S
C2648 C2651 1.344 . S
C2648 C2652 1.328 . S
C2648 C2654 1.516 . S
C2649 C2650 1.304 . S
C2649 C2653 1.323 . S
C2650 C2649 1.304 . S
C2650 C2651 1.371 . S
C2650 H2664 0.930 . S
C2651 C2648 1.344 . S
C2651 C2650 1.371 . S
C2651 H2665 0.931 . S
C2652 C2648 1.328 . S
C2652 C2653 1.433 . S
C2652 H2666 0.931 . S
C2653 C2649 1.323 . S
C2653 C2652 1.433 . S
C2653 H2667 0.933 . S
C2654 Dy2632 2.738 . S
C2654 O2637 1.255 . S
C2654 O2638 1.249 . S
C2654 C2648 1.516 . S
C2655 O2639 1.254 . S
C2655 O2640 1.257 . S
C2656 O2641 1.266 . S
C2656 O2642 1.236 . S
C2657 C2660 1.344 . S
C2657 C2661 1.328 . S
C2657 C2663 1.516 . S
C2658 C2659 1.304 . S
C2658 C2662 1.323 . S
C2659 C2658 1.304 . S
C2659 C2660 1.371 . S
C2659 H2668 0.930 . S
C2660 C2657 1.344 . S
C2660 C2659 1.371 . S
C2660 H2669 0.931 . S
C2661 C2657 1.328 . S
C2661 C2662 1.433 . S
C2661 H2670 0.931 . S
C2662 C2658 1.323 . S
C2662 C2661 1.433 . S
C2662 H2671 0.933 . S
C2663 Dy2633 2.738 . S
C2663 O2643 1.255 . S
C2663 O2644 1.249 . S
C2663 C2657 1.516 . S
H2664 C2650 0.930 . S
H2665 C2651 0.931 . S
H2666 C2652 0.931 . S
H2667 C2653 0.933 . S
H2668 C2659 0.930 . S
H2669 C2660 0.931 . S
H2670 C2661 0.931 . S
H2671 C2662 0.933 . S
Dy2672 O2675 2.307 . S
Dy2672 O2677 2.395 . S
Dy2672 O2678 2.379 . S
Dy2672 O2680 2.339 . S
Dy2672 O2682 2.298 . S
Dy2672 O2686 2.275 . S
Dy2672 C2694 2.738 . S
Dy2673 O2676 2.298 . S
Dy2673 O2679 2.275 . S
Dy2673 O2681 2.307 . S
Dy2673 O2683 2.395 . S
Dy2673 O2684 2.379 . S
Dy2673 O2687 2.339 . S
Dy2673 C2703 2.738 . S
C2674 O2686 1.254 . S
C2674 O2687 1.257 . S
O2675 Dy2672 2.307 . S
O2675 C2685 1.266 . S
O2676 Dy2673 2.298 . S
O2676 C2685 1.236 . S
O2677 Dy2672 2.395 . S
O2677 C2694 1.255 . S
O2678 Dy2672 2.379 . S
O2678 C2694 1.249 . S
O2679 Dy2673 2.275 . S
O2679 C2695 1.254 . S
O2680 Dy2672 2.339 . S
O2680 C2695 1.257 . S
O2681 Dy2673 2.307 . S
O2681 C2696 1.266 . S
O2682 Dy2672 2.298 . S
O2682 C2696 1.236 . S
O2683 Dy2673 2.395 . S
O2683 C2703 1.255 . S
O2684 Dy2673 2.379 . S
O2684 C2703 1.249 . S
C2685 O2675 1.266 . S
C2685 O2676 1.236 . S
O2686 Dy2672 2.275 . S
O2686 C2674 1.254 . S
O2687 Dy2673 2.339 . S
O2687 C2674 1.257 . S
C2688 C2691 1.344 . S
C2688 C2692 1.328 . S
C2688 C2694 1.516 . S
C2689 C2690 1.304 . S
C2689 C2693 1.323 . S
C2690 C2689 1.304 . S
C2690 C2691 1.371 . S
C2690 H2704 0.930 . S
C2691 C2688 1.344 . S
C2691 C2690 1.371 . S
C2691 H2705 0.931 . S
C2692 C2688 1.328 . S
C2692 C2693 1.433 . S
C2692 H2706 0.931 . S
C2693 C2689 1.323 . S
C2693 C2692 1.433 . S
C2693 H2707 0.933 . S
C2694 Dy2672 2.738 . S
C2694 O2677 1.255 . S
C2694 O2678 1.249 . S
C2694 C2688 1.516 . S
C2695 O2679 1.254 . S
C2695 O2680 1.257 . S
C2696 O2681 1.266 . S
C2696 O2682 1.236 . S
C2697 C2700 1.344 . S
C2697 C2701 1.328 . S
C2697 C2703 1.516 . S
C2698 C2699 1.304 . S
C2698 C2702 1.323 . S
C2699 C2698 1.304 . S
C2699 C2700 1.371 . S
C2699 H2708 0.930 . S
C2700 C2697 1.344 . S
C2700 C2699 1.371 . S
C2700 H2709 0.931 . S
C2701 C2697 1.328 . S
C2701 C2702 1.433 . S
C2701 H2710 0.931 . S
C2702 C2698 1.323 . S
C2702 C2701 1.433 . S
C2702 H2711 0.933 . S
C2703 Dy2673 2.738 . S
C2703 O2683 1.255 . S
C2703 O2684 1.249 . S
C2703 C2697 1.516 . S
H2704 C2690 0.930 . S
H2705 C2691 0.931 . S
H2706 C2692 0.931 . S
H2707 C2693 0.933 . S
H2708 C2699 0.930 . S
H2709 C2700 0.931 . S
H2710 C2701 0.931 . S
H2711 C2702 0.933 . S
Dy2712 O2715 2.306 . S
Dy2712 O2717 2.396 1_455 S
Dy2712 O2718 2.380 1_455 S
Dy2712 O2720 2.338 . S
Dy2712 O2722 2.297 . S
Dy2712 O2726 2.275 . S
Dy2712 C2734 2.740 1_455 S
Dy2713 O2716 2.298 . S
Dy2713 O2719 2.275 . S
Dy2713 O2721 2.307 . S
Dy2713 O2723 2.395 . S
Dy2713 O2724 2.379 1_554 S
Dy2713 O2727 2.339 1_554 S
Dy2713 C2743 2.738 . S
C2714 O2726 1.254 1_556 S
C2714 O2727 1.257 . S
O2715 Dy2712 2.306 . S
O2715 C2725 1.266 . S
O2716 Dy2713 2.298 . S
O2716 C2725 1.236 . S
O2717 Dy2712 2.396 1_655 S
O2717 C2734 1.255 . S
O2718 Dy2712 2.380 1_655 S
O2718 C2734 1.249 . S
O2719 Dy2713 2.275 . S
O2719 C2735 1.254 . S
O2720 Dy2712 2.338 . S
O2720 C2735 1.257 . S
O2721 Dy2713 2.307 . S
O2721 C2736 1.266 . S
O2722 Dy2712 2.297 . S
O2722 C2736 1.236 . S
O2723 Dy2713 2.395 . S
O2723 C2743 1.255 . S
O2724 Dy2713 2.379 1_556 S
O2724 C2743 1.249 1_556 S
C2725 O2715 1.266 . S
C2725 O2716 1.236 . S
O2726 Dy2712 2.275 . S
O2726 C2714 1.254 1_554 S
O2727 Dy2713 2.339 1_556 S
O2727 C2714 1.257 . S
C2728 C2731 1.344 . S
C2728 C2732 1.328 . S
C2728 C2734 1.516 . S
C2729 C2730 1.304 . S
C2729 C2733 1.323 . S
C2730 C2729 1.304 . S
C2730 C2731 1.371 . S
C2730 H2744 0.930 . S
C2731 C2728 1.344 . S
C2731 C2730 1.371 . S
C2731 H2745 0.931 . S
C2732 C2728 1.328 . S
C2732 C2733 1.433 . S
C2732 H2746 0.931 . S
C2733 C2729 1.323 . S
C2733 C2732 1.433 . S
C2733 H2747 0.933 . S
C2734 Dy2712 2.740 1_655 S
C2734 O2717 1.255 . S
C2734 O2718 1.249 . S
C2734 C2728 1.516 . S
C2735 O2719 1.254 . S
C2735 O2720 1.257 . S
C2736 O2721 1.266 . S
C2736 O2722 1.236 . S
C2737 C2740 1.344 . S
C2737 C2741 1.328 1_554 S
C2737 C2743 1.516 . S
C2738 C2739 1.304 . S
C2738 C2742 1.323 1_554 S
C2739 C2738 1.304 . S
C2739 C2740 1.371 . S
C2739 H2748 0.930 . S
C2740 C2737 1.344 . S
C2740 C2739 1.371 . S
C2740 H2749 0.931 . S
C2741 C2737 1.328 1_556 S
C2741 C2742 1.433 . S
C2741 H2750 0.931 . S
C2742 C2738 1.323 1_556 S
C2742 C2741 1.433 . S
C2742 H2751 0.933 . S
C2743 Dy2713 2.738 . S
C2743 O2723 1.255 . S
C2743 O2724 1.249 1_554 S
C2743 C2737 1.516 . S
H2744 C2730 0.930 . S
H2745 C2731 0.931 . S
H2746 C2732 0.931 . S
H2747 C2733 0.933 . S
H2748 C2739 0.930 . S
H2749 C2740 0.931 . S
H2750 C2741 0.931 . S
H2751 C2742 0.933 . S
C2752 C2753 1.363 1_655 S
C2752 C2758 1.379 1_655 S
C2752 N2760 1.356 . S
C2753 C2752 1.363 1_455 S
C2753 C2759 1.363 . S
C2754 C2755 1.363 . S
C2754 C2759 1.379 . S
C2754 N2761 1.356 . S
C2755 C2754 1.363 . S
C2755 C2758 1.363 . S
N2756 C2758 1.356 1_655 S
N2756 H2768 0.984 1_554 S
N2756 H2769 0.985 1_655 S
N2757 C2759 1.356 . S
N2757 H2762 0.984 . S
N2757 H2763 0.985 . S
C2758 C2752 1.379 1_455 S
C2758 C2755 1.363 . S
C2758 N2756 1.356 1_455 S
C2759 C2753 1.363 . S
C2759 C2754 1.379 . S
C2759 N2757 1.356 . S
N2760 C2752 1.356 . S
N2760 H2766 0.984 1_554 S
N2760 H2767 0.984 . S
N2761 C2754 1.356 . S
N2761 H2764 0.984 . S
N2761 H2765 0.985 . S
H2762 N2757 0.984 . S
H2763 N2757 0.985 . S
H2764 N2761 0.984 . S
H2765 N2761 0.985 . S
H2766 N2760 0.984 1_556 S
H2767 N2760 0.984 . S
H2768 N2756 0.984 1_556 S
H2769 N2756 0.985 1_455 S
C2770 C2771 1.363 . S
C2770 C2776 1.379 . S
C2770 N2778 1.356 . S
C2771 C2770 1.363 . S
C2771 C2777 1.363 . S
C2772 C2773 1.363 . S
C2772 C2777 1.379 . S
C2772 N2779 1.356 . S
C2773 C2772 1.363 . S
C2773 C2776 1.363 . S
N2774 C2776 1.356 . S
N2774 H2786 0.984 . S
N2774 H2787 0.985 . S
N2775 C2777 1.356 . S
N2775 H2780 0.984 . S
N2775 H2781 0.985 . S
C2776 C2770 1.379 . S
C2776 C2773 1.363 . S
C2776 N2774 1.356 . S
C2777 C2771 1.363 . S
C2777 C2772 1.379 . S
C2777 N2775 1.356 . S
N2778 C2770 1.356 . S
N2778 H2784 0.984 . S
N2778 H2785 0.984 . S
N2779 C2772 1.356 . S
N2779 H2782 0.984 . S
N2779 H2783 0.985 . S
H2780 N2775 0.984 . S
H2781 N2775 0.985 . S
H2782 N2779 0.984 . S
H2783 N2779 0.985 . S
H2784 N2778 0.984 . S
H2785 N2778 0.984 . S
H2786 N2774 0.984 . S
H2787 N2774 0.985 . S
C2788 C2789 1.363 . S
C2788 C2794 1.379 . S
C2788 N2796 1.356 . S
C2789 C2788 1.363 . S
C2789 C2795 1.363 . S
C2790 C2791 1.363 . S
C2790 C2795 1.379 . S
C2790 N2797 1.356 . S
C2791 C2790 1.363 . S
C2791 C2794 1.363 . S
N2792 C2794 1.356 . S
N2792 H2804 0.984 . S
N2792 H2805 0.985 . S
N2793 C2795 1.356 . S
N2793 H2798 0.984 . S
N2793 H2799 0.985 . S
C2794 C2788 1.379 . S
C2794 C2791 1.363 . S
C2794 N2792 1.356 . S
C2795 C2789 1.363 . S
C2795 C2790 1.379 . S
C2795 N2793 1.356 . S
N2796 C2788 1.356 . S
N2796 H2802 0.984 . S
N2796 H2803 0.984 . S
N2797 C2790 1.356 . S
N2797 H2800 0.984 . S
N2797 H2801 0.985 . S
H2798 N2793 0.984 . S
H2799 N2793 0.985 . S
H2800 N2797 0.984 . S
H2801 N2797 0.985 . S
H2802 N2796 0.984 . S
H2803 N2796 0.984 . S
H2804 N2792 0.984 . S
H2805 N2792 0.985 . S
C2806 C2807 1.363 . S
C2806 C2812 1.379 . S
C2806 N2814 1.356 . S
C2807 C2806 1.363 . S
C2807 C2813 1.363 . S
C2808 C2809 1.363 . S
C2808 C2813 1.379 . S
C2808 N2815 1.356 . S
C2809 C2808 1.363 . S
C2809 C2812 1.363 . S
N2810 C2812 1.356 . S
N2810 H2822 0.984 . S
N2810 H2823 0.985 . S
N2811 C2813 1.356 . S
N2811 H2816 0.984 . S
N2811 H2817 0.985 . S
C2812 C2806 1.379 . S
C2812 C2809 1.363 . S
C2812 N2810 1.356 . S
C2813 C2807 1.363 . S
C2813 C2808 1.379 . S
C2813 N2811 1.356 . S
N2814 C2806 1.356 . S
N2814 H2820 0.984 . S
N2814 H2821 0.984 . S
N2815 C2808 1.356 . S
N2815 H2818 0.984 . S
N2815 H2819 0.985 . S
H2816 N2811 0.984 . S
H2817 N2811 0.985 . S
H2818 N2815 0.984 . S
H2819 N2815 0.985 . S
H2820 N2814 0.984 . S
H2821 N2814 0.984 . S
H2822 N2810 0.984 . S
H2823 N2810 0.985 . S
C2824 C2825 1.363 . S
C2824 C2830 1.379 . S
C2824 N2832 1.356 . S
C2825 C2824 1.363 . S
C2825 C2831 1.363 . S
C2826 C2827 1.363 . S
C2826 C2831 1.379 . S
C2826 N2833 1.356 . S
C2827 C2826 1.363 . S
C2827 C2830 1.363 . S
N2828 C2830 1.356 . S
N2828 H2840 0.984 . S
N2828 H2841 0.985 . S
N2829 C2831 1.356 . S
N2829 H2834 0.984 . S
N2829 H2835 0.985 . S
C2830 C2824 1.379 . S
C2830 C2827 1.363 . S
C2830 N2828 1.356 . S
C2831 C2825 1.363 . S
C2831 C2826 1.379 . S
C2831 N2829 1.356 . S
N2832 C2824 1.356 . S
N2832 H2838 0.984 1_455 S
N2832 H2839 0.984 . S
N2833 C2826 1.356 . S
N2833 H2836 0.984 . S
N2833 H2837 0.985 . S
H2834 N2829 0.984 . S
H2835 N2829 0.985 . S
H2836 N2833 0.984 . S
H2837 N2833 0.985 . S
H2838 N2832 0.984 1_655 S
H2839 N2832 0.984 . S
H2840 N2828 0.984 . S
H2841 N2828 0.985 . S
C2842 C2843 1.363 . S
C2842 C2848 1.379 . S
C2842 N2850 1.356 . S
C2843 C2842 1.363 . S
C2843 C2849 1.363 . S
C2844 C2845 1.363 . S
C2844 C2849 1.379 . S
C2844 N2851 1.356 . S
C2845 C2844 1.363 . S
C2845 C2848 1.363 . S
N2846 C2848 1.356 . S
N2846 H2858 0.984 . S
N2846 H2859 0.985 . S
N2847 C2849 1.356 . S
N2847 H2852 0.984 . S
N2847 H2853 0.985 . S
C2848 C2842 1.379 . S
C2848 C2845 1.363 . S
C2848 N2846 1.356 . S
C2849 C2843 1.363 . S
C2849 C2844 1.379 . S
C2849 N2847 1.356 . S
N2850 C2842 1.356 . S
N2850 H2856 0.984 . S
N2850 H2857 0.984 . S
N2851 C2844 1.356 . S
N2851 H2854 0.984 . S
N2851 H2855 0.985 . S
H2852 N2847 0.984 . S
H2853 N2847 0.985 . S
H2854 N2851 0.984 . S
H2855 N2851 0.985 . S
H2856 N2850 0.984 . S
H2857 N2850 0.984 . S
H2858 N2846 0.984 . S
H2859 N2846 0.985 . S
C2860 C2861 1.363 . S
C2860 C2866 1.379 . S
C2860 N2868 1.356 . S
C2861 C2860 1.363 . S
C2861 C2867 1.363 . S
C2862 C2863 1.363 . S
C2862 C2867 1.379 . S
C2862 N2869 1.356 . S
C2863 C2862 1.363 . S
C2863 C2866 1.363 . S
N2864 C2866 1.356 . S
N2864 H2876 0.984 . S
N2864 H2877 0.985 . S
N2865 C2867 1.356 . S
N2865 H2870 0.984 . S
N2865 H2871 0.985 . S
C2866 C2860 1.379 . S
C2866 C2863 1.363 . S
C2866 N2864 1.356 . S
C2867 C2861 1.363 . S
C2867 C2862 1.379 . S
C2867 N2865 1.356 . S
N2868 C2860 1.356 . S
N2868 H2874 0.984 . S
N2868 H2875 0.984 . S
N2869 C2862 1.356 . S
N2869 H2872 0.984 . S
N2869 H2873 0.985 . S
H2870 N2865 0.984 . S
H2871 N2865 0.985 . S
H2872 N2869 0.984 . S
H2873 N2869 0.985 . S
H2874 N2868 0.984 . S
H2875 N2868 0.984 . S
H2876 N2864 0.984 . S
H2877 N2864 0.985 . S
C2878 C2879 1.363 . S
C2878 C2884 1.379 . S
C2878 N2886 1.356 . S
C2879 C2878 1.363 . S
C2879 C2885 1.363 . S
C2880 C2881 1.363 . S
C2880 C2885 1.379 . S
C2880 N2887 1.356 . S
C2881 C2880 1.363 . S
C2881 C2884 1.363 . S
N2882 C2884 1.356 . S
N2882 H2894 0.984 . S
N2882 H2895 0.985 . S
N2883 C2885 1.356 . S
N2883 H2888 0.984 . S
N2883 H2889 0.985 . S
C2884 C2878 1.379 . S
C2884 C2881 1.363 . S
C2884 N2882 1.356 . S
C2885 C2879 1.363 . S
C2885 C2880 1.379 . S
C2885 N2883 1.356 . S
N2886 C2878 1.356 . S
N2886 H2892 0.984 . S
N2886 H2893 0.984 . S
N2887 C2880 1.356 . S
N2887 H2890 0.984 . S
N2887 H2891 0.985 . S
H2888 N2883 0.984 . S
H2889 N2883 0.985 . S
H2890 N2887 0.984 . S
H2891 N2887 0.985 . S
H2892 N2886 0.984 . S
H2893 N2886 0.984 . S
H2894 N2882 0.984 . S
H2895 N2882 0.985 . S
C2896 C2897 1.363 . S
C2896 C2902 1.379 . S
C2896 N2904 1.356 . S
C2897 C2896 1.363 . S
C2897 C2903 1.363 . S
C2898 C2899 1.363 . S
C2898 C2903 1.379 . S
C2898 N2905 1.356 . S
C2899 C2898 1.363 . S
C2899 C2902 1.363 . S
N2900 C2902 1.356 . S
N2900 H2912 0.984 . S
N2900 H2913 0.985 . S
N2901 C2903 1.356 1_655 S
N2901 H2906 0.984 . S
N2901 H2907 0.985 . S
C2902 C2896 1.379 . S
C2902 C2899 1.363 . S
C2902 N2900 1.356 . S
C2903 C2897 1.363 . S
C2903 C2898 1.379 . S
C2903 N2901 1.356 1_455 S
N2904 C2896 1.356 . S
N2904 H2910 0.984 . S
N2904 H2911 0.984 . S
N2905 C2898 1.356 . S
N2905 H2908 0.984 . S
N2905 H2909 0.985 1_455 S
H2906 N2901 0.984 . S
H2907 N2901 0.985 . S
H2908 N2905 0.984 . S
H2909 N2905 0.985 1_655 S
H2910 N2904 0.984 . S
H2911 N2904 0.984 . S
H2912 N2900 0.984 . S
H2913 N2900 0.985 . S
C2914 C2915 1.363 . S
C2914 C2920 1.379 . S
C2914 N2922 1.356 . S
C2915 C2914 1.363 . S
C2915 C2921 1.363 . S
C2916 C2917 1.363 . S
C2916 C2921 1.379 . S
C2916 N2923 1.356 . S
C2917 C2916 1.363 . S
C2917 C2920 1.363 . S
N2918 C2920 1.356 . S
N2918 H2930 0.984 . S
N2918 H2931 0.985 . S
N2919 C2921 1.356 . S
N2919 H2924 0.984 . S
N2919 H2925 0.985 . S
C2920 C2914 1.379 . S
C2920 C2917 1.363 . S
C2920 N2918 1.356 . S
C2921 C2915 1.363 . S
C2921 C2916 1.379 . S
C2921 N2919 1.356 . S
N2922 C2914 1.356 . S
N2922 H2928 0.984 . S
N2922 H2929 0.984 . S
N2923 C2916 1.356 . S
N2923 H2926 0.984 . S
N2923 H2927 0.985 . S
H2924 N2919 0.984 . S
H2925 N2919 0.985 . S
H2926 N2923 0.984 . S
H2927 N2923 0.985 . S
H2928 N2922 0.984 . S
H2929 N2922 0.984 . S
H2930 N2918 0.984 . S
H2931 N2918 0.985 . S
C2932 C2933 1.363 . S
C2932 C2938 1.379 . S
C2932 N2940 1.356 . S
C2933 C2932 1.363 . S
C2933 C2939 1.363 . S
C2934 C2935 1.363 . S
C2934 C2939 1.379 . S
C2934 N2941 1.356 . S
C2935 C2934 1.363 . S
C2935 C2938 1.363 . S
N2936 C2938 1.356 . S
N2936 H2948 0.984 . S
N2936 H2949 0.985 . S
N2937 C2939 1.356 . S
N2937 H2942 0.984 . S
N2937 H2943 0.985 . S
C2938 C2932 1.379 . S
C2938 C2935 1.363 . S
C2938 N2936 1.356 . S
C2939 C2933 1.363 . S
C2939 C2934 1.379 . S
C2939 N2937 1.356 . S
N2940 C2932 1.356 . S
N2940 H2946 0.984 . S
N2940 H2947 0.984 . S
N2941 C2934 1.356 . S
N2941 H2944 0.984 . S
N2941 H2945 0.985 . S
H2942 N2937 0.984 . S
H2943 N2937 0.985 . S
H2944 N2941 0.984 . S
H2945 N2941 0.985 . S
H2946 N2940 0.984 . S
H2947 N2940 0.984 . S
H2948 N2936 0.984 . S
H2949 N2936 0.985 . S
C2950 C2951 1.363 . S
C2950 C2956 1.379 . S
C2950 N2958 1.356 . S
C2951 C2950 1.363 . S
C2951 C2957 1.363 . S
C2952 C2953 1.363 . S
C2952 C2957 1.379 . S
C2952 N2959 1.356 . S
C2953 C2952 1.363 . S
C2953 C2956 1.363 . S
N2954 C2956 1.356 . S
N2954 H2966 0.984 . S
N2954 H2967 0.985 . S
N2955 C2957 1.356 . S
N2955 H2960 0.984 . S
N2955 H2961 0.985 . S
C2956 C2950 1.379 . S
C2956 C2953 1.363 . S
C2956 N2954 1.356 . S
C2957 C2951 1.363 . S
C2957 C2952 1.379 . S
C2957 N2955 1.356 . S
N2958 C2950 1.356 . S
N2958 H2964 0.984 . S
N2958 H2965 0.984 . S
N2959 C2952 1.356 . S
N2959 H2962 0.984 . S
N2959 H2963 0.985 . S
H2960 N2955 0.984 . S
H2961 N2955 0.985 . S
H2962 N2959 0.984 . S
H2963 N2959 0.985 . S
H2964 N2958 0.984 . S
H2965 N2958 0.984 . S
H2966 N2954 0.984 . S
H2967 N2954 0.985 . S
C2968 C2969 1.363 . S
C2968 C2974 1.379 . S
C2968 N2976 1.356 1_455 S
C2969 C2968 1.363 . S
C2969 C2975 1.363 . S
C2970 C2971 1.363 . S
C2970 C2975 1.379 . S
C2970 N2977 1.356 . S
C2971 C2970 1.363 . S
C2971 C2974 1.363 . S
N2972 C2974 1.356 1_655 S
N2972 H2984 0.984 1_545 S
N2972 H2985 0.985 . S
N2973 C2975 1.356 . S
N2973 H2978 0.984 . S
N2973 H2979 0.985 . S
C2974 C2968 1.379 . S
C2974 C2971 1.363 . S
C2974 N2972 1.356 1_455 S
C2975 C2969 1.363 . S
C2975 C2970 1.379 . S
C2975 N2973 1.356 . S
N2976 C2968 1.356 1_655 S
N2976 H2982 0.984 . S
N2976 H2983 0.984 . S
N2977 C2970 1.356 . S
N2977 H2980 0.984 . S
N2977 H2981 0.985 . S
H2978 N2973 0.984 . S
H2979 N2973 0.985 . S
H2980 N2977 0.984 . S
H2981 N2977 0.985 . S
H2982 N2976 0.984 . S
H2983 N2976 0.984 . S
H2984 N2972 0.984 1_565 S
H2985 N2972 0.985 . S
C2986 C2987 1.363 . S
C2986 C2992 1.379 . S
C2986 N2994 1.356 . S
C2987 C2986 1.363 . S
C2987 C2993 1.363 . S
C2988 C2989 1.363 . S
C2988 C2993 1.379 . S
C2988 N2995 1.356 . S
C2989 C2988 1.363 . S
C2989 C2992 1.363 . S
N2990 C2992 1.356 . S
N2990 H3002 0.984 . S
N2990 H3003 0.985 . S
N2991 C2993 1.356 . S
N2991 H2996 0.984 . S
N2991 H2997 0.985 . S
C2992 C2986 1.379 . S
C2992 C2989 1.363 . S
C2992 N2990 1.356 . S
C2993 C2987 1.363 . S
C2993 C2988 1.379 . S
C2993 N2991 1.356 . S
N2994 C2986 1.356 . S
N2994 H3000 0.984 . S
N2994 H3001 0.984 . S
N2995 C2988 1.356 . S
N2995 H2998 0.984 . S
N2995 H2999 0.985 . S
H2996 N2991 0.984 . S
H2997 N2991 0.985 . S
H2998 N2995 0.984 . S
H2999 N2995 0.985 . S
H3000 N2994 0.984 . S
H3001 N2994 0.984 . S
H3002 N2990 0.984 . S
H3003 N2990 0.985 . S
C3004 C3005 1.363 . S
C3004 C3010 1.379 . S
C3004 N3012 1.356 . S
C3005 C3004 1.363 . S
C3005 C3011 1.363 . S
C3006 C3007 1.363 . S
C3006 C3011 1.379 . S
C3006 N3013 1.356 . S
C3007 C3006 1.363 . S
C3007 C3010 1.363 . S
N3008 C3010 1.356 . S
N3008 H3020 0.984 . S
N3008 H3021 0.985 . S
N3009 C3011 1.356 . S
N3009 H3014 0.984 . S
N3009 H3015 0.985 . S
C3010 C3004 1.379 . S
C3010 C3007 1.363 . S
C3010 N3008 1.356 . S
C3011 C3005 1.363 . S
C3011 C3006 1.379 . S
C3011 N3009 1.356 . S
N3012 C3004 1.356 . S
N3012 H3018 0.984 . S
N3012 H3019 0.984 . S
N3013 C3006 1.356 . S
N3013 H3016 0.984 . S
N3013 H3017 0.985 . S
H3014 N3009 0.984 . S
H3015 N3009 0.985 . S
H3016 N3013 0.984 . S
H3017 N3013 0.985 . S
H3018 N3012 0.984 . S
H3019 N3012 0.984 . S
H3020 N3008 0.984 . S
H3021 N3008 0.985 . S
C3022 C3023 1.363 . S
C3022 C3028 1.379 . S
C3022 N3030 1.356 . S
C3023 C3022 1.363 . S
C3023 C3029 1.363 . S
C3024 C3025 1.363 . S
C3024 C3029 1.379 . S
C3024 N3031 1.356 . S
C3025 C3024 1.363 . S
C3025 C3028 1.363 . S
N3026 C3028 1.356 . S
N3026 H3038 0.984 . S
N3026 H3039 0.985 . S
N3027 C3029 1.356 . S
N3027 H3032 0.984 . S
N3027 H3033 0.985 . S
C3028 C3022 1.379 . S
C3028 C3025 1.363 . S
C3028 N3026 1.356 . S
C3029 C3023 1.363 . S
C3029 C3024 1.379 . S
C3029 N3027 1.356 . S
N3030 C3022 1.356 . S
N3030 H3036 0.984 . S
N3030 H3037 0.984 . S
N3031 C3024 1.356 . S
N3031 H3034 0.984 . S
N3031 H3035 0.985 . S
H3032 N3027 0.984 . S
H3033 N3027 0.985 . S
H3034 N3031 0.984 . S
H3035 N3031 0.985 . S
H3036 N3030 0.984 . S
H3037 N3030 0.984 . S
H3038 N3026 0.984 . S
H3039 N3026 0.985 . S
C3040 C3041 1.363 1_545 S
C3040 C3046 1.379 . S
C3040 N3048 1.356 . S
C3041 C3040 1.363 1_565 S
C3041 C3047 1.363 . S
C3042 C3043 1.363 1_565 S
C3042 C3047 1.379 . S
C3042 N3049 1.356 . S
C3043 C3042 1.363 1_545 S
C3043 C3046 1.363 . S
N3044 C3046 1.356 . S
N3044 H3056 0.984 . S
N3044 H3057 0.985 . S
N3045 C3047 1.356 . S
N3045 H3050 0.984 1_554 S
N3045 H3051 0.985 . S
C3046 C3040 1.379 . S
C3046 C3043 1.363 . S
C3046 N3044 1.356 . S
C3047 C3041 1.363 . S
C3047 C3042 1.379 . S
C3047 N3045 1.356 . S
N3048 C3040 1.356 . S
N3048 H3054 0.984 . S
N3048 H3055 0.984 1_554 S
N3049 C3042 1.356 . S
N3049 H3052 0.984 . S
N3049 H3053 0.985 . S
H3050 N3045 0.984 1_556 S
H3051 N3045 0.985 . S
H3052 N3049 0.984 . S
H3053 N3049 0.985 . S
H3054 N3048 0.984 . S
H3055 N3048 0.984 1_556 S
H3056 N3044 0.984 . S
H3057 N3044 0.985 . S
C3058 C3059 1.363 . S
C3058 C3064 1.379 . S
C3058 N3066 1.356 . S
C3059 C3058 1.363 . S
C3059 C3065 1.363 1_554 S
C3060 C3061 1.363 . S
C3060 C3065 1.379 1_554 S
C3060 N3067 1.356 1_554 S
C3061 C3060 1.363 . S
C3061 C3064 1.363 . S
N3062 C3064 1.356 . S
N3062 H3074 0.984 . S
N3062 H3075 0.985 . S
N3063 C3065 1.356 . S
N3063 H3068 0.984 . S
N3063 H3069 0.985 . S
C3064 C3058 1.379 . S
C3064 C3061 1.363 . S
C3064 N3062 1.356 . S
C3065 C3059 1.363 1_556 S
C3065 C3060 1.379 1_556 S
C3065 N3063 1.356 . S
N3066 C3058 1.356 . S
N3066 H3072 0.984 . S
N3066 H3073 0.984 . S
N3067 C3060 1.356 1_556 S
N3067 H3070 0.984 . S
N3067 H3071 0.985 . S
H3068 N3063 0.984 . S
H3069 N3063 0.985 . S
H3070 N3067 0.984 . S
H3071 N3067 0.985 . S
H3072 N3066 0.984 . S
H3073 N3066 0.984 . S
H3074 N3062 0.984 . S
H3075 N3062 0.985 . S
C3076 C3077 1.363 . S
C3076 C3082 1.379 . S
C3076 N3084 1.356 . S
C3077 C3076 1.363 . S
C3077 C3083 1.363 . S
C3078 C3079 1.363 . S
C3078 C3083 1.379 . S
C3078 N3085 1.356 . S
C3079 C3078 1.363 . S
C3079 C3082 1.363 . S
N3080 C3082 1.356 . S
N3080 H3092 0.984 . S
N3080 H3093 0.985 . S
N3081 C3083 1.356 . S
N3081 H3086 0.984 . S
N3081 H3087 0.985 . S
C3082 C3076 1.379 . S
C3082 C3079 1.363 . S
C3082 N3080 1.356 . S
C3083 C3077 1.363 . S
C3083 C3078 1.379 . S
C3083 N3081 1.356 . S
N3084 C3076 1.356 . S
N3084 H3090 0.984 . S
N3084 H3091 0.984 . S
N3085 C3078 1.356 . S
N3085 H3088 0.984 . S
N3085 H3089 0.985 . S
H3086 N3081 0.984 . S
H3087 N3081 0.985 . S
H3088 N3085 0.984 . S
H3089 N3085 0.985 . S
H3090 N3084 0.984 . S
H3091 N3084 0.984 . S
H3092 N3080 0.984 . S
H3093 N3080 0.985 . S
C3094 C3095 1.363 . S
C3094 C3100 1.379 . S
C3094 N3102 1.356 . S
C3095 C3094 1.363 . S
C3095 C3101 1.363 . S
C3096 C3097 1.363 . S
C3096 C3101 1.379 . S
C3096 N3103 1.356 . S
C3097 C3096 1.363 . S
C3097 C3100 1.363 . S
N3098 C3100 1.356 . S
N3098 H3110 0.984 . S
N3098 H3111 0.985 . S
N3099 C3101 1.356 . S
N3099 H3104 0.984 . S
N3099 H3105 0.985 . S
C3100 C3094 1.379 . S
C3100 C3097 1.363 . S
C3100 N3098 1.356 . S
C3101 C3095 1.363 . S
C3101 C3096 1.379 . S
C3101 N3099 1.356 . S
N3102 C3094 1.356 . S
N3102 H3108 0.984 . S
N3102 H3109 0.984 . S
N3103 C3096 1.356 . S
N3103 H3106 0.984 . S
N3103 H3107 0.985 . S
H3104 N3099 0.984 . S
H3105 N3099 0.985 . S
H3106 N3103 0.984 . S
H3107 N3103 0.985 . S
H3108 N3102 0.984 . S
H3109 N3102 0.984 . S
H3110 N3098 0.984 . S
H3111 N3098 0.985 . S
C3112 C3113 1.363 . S
C3112 C3118 1.379 . S
C3112 N3120 1.356 . S
C3113 C3112 1.363 . S
C3113 C3119 1.363 . S
C3114 C3115 1.363 . S
C3114 C3119 1.379 . S
C3114 N3121 1.356 . S
C3115 C3114 1.363 . S
C3115 C3118 1.363 . S
N3116 C3118 1.356 . S
N3116 H3128 0.984 . S
N3116 H3129 0.985 . S
N3117 C3119 1.356 . S
N3117 H3122 0.984 . S
N3117 H3123 0.985 . S
C3118 C3112 1.379 . S
C3118 C3115 1.363 . S
C3118 N3116 1.356 . S
C3119 C3113 1.363 . S
C3119 C3114 1.379 . S
C3119 N3117 1.356 . S
N3120 C3112 1.356 . S
N3120 H3126 0.984 . S
N3120 H3127 0.984 . S
N3121 C3114 1.356 . S
N3121 H3124 0.984 . S
N3121 H3125 0.985 . S
H3122 N3117 0.984 . S
H3123 N3117 0.985 . S
H3124 N3121 0.984 . S
H3125 N3121 0.985 . S
H3126 N3120 0.984 . S
H3127 N3120 0.984 . S
H3128 N3116 0.984 . S
H3129 N3116 0.985 . S
C3130 C3131 1.363 . S
C3130 C3136 1.379 . S
C3130 N3138 1.356 . S
C3131 C3130 1.363 . S
C3131 C3137 1.363 . S
C3132 C3133 1.363 . S
C3132 C3137 1.379 . S
C3132 N3139 1.356 . S
C3133 C3132 1.363 . S
C3133 C3136 1.363 . S
N3134 C3136 1.356 . S
N3134 H3146 0.984 . S
N3134 H3147 0.985 . S
N3135 C3137 1.356 . S
N3135 H3140 0.984 . S
N3135 H3141 0.985 . S
C3136 C3130 1.379 . S
C3136 C3133 1.363 . S
C3136 N3134 1.356 . S
C3137 C3131 1.363 . S
C3137 C3132 1.379 . S
C3137 N3135 1.356 . S
N3138 C3130 1.356 . S
N3138 H3144 0.984 . S
N3138 H3145 0.984 . S
N3139 C3132 1.356 . S
N3139 H3142 0.984 . S
N3139 H3143 0.985 . S
H3140 N3135 0.984 . S
H3141 N3135 0.985 . S
H3142 N3139 0.984 . S
H3143 N3139 0.985 . S
H3144 N3138 0.984 . S
H3145 N3138 0.984 . S
H3146 N3134 0.984 . S
H3147 N3134 0.985 . S
C3148 C3149 1.363 . S
C3148 C3154 1.379 . S
C3148 N3156 1.356 . S
C3149 C3148 1.363 . S
C3149 C3155 1.363 . S
C3150 C3151 1.363 . S
C3150 C3155 1.379 . S
C3150 N3157 1.356 . S
C3151 C3150 1.363 . S
C3151 C3154 1.363 . S
N3152 C3154 1.356 . S
N3152 H3164 0.984 . S
N3152 H3165 0.985 . S
N3153 C3155 1.356 . S
N3153 H3158 0.984 . S
N3153 H3159 0.985 . S
C3154 C3148 1.379 . S
C3154 C3151 1.363 . S
C3154 N3152 1.356 . S
C3155 C3149 1.363 . S
C3155 C3150 1.379 . S
C3155 N3153 1.356 . S
N3156 C3148 1.356 . S
N3156 H3162 0.984 . S
N3156 H3163 0.984 . S
N3157 C3150 1.356 . S
N3157 H3160 0.984 . S
N3157 H3161 0.985 . S
H3158 N3153 0.984 . S
H3159 N3153 0.985 . S
H3160 N3157 0.984 . S
H3161 N3157 0.985 . S
H3162 N3156 0.984 . S
H3163 N3156 0.984 . S
H3164 N3152 0.984 . S
H3165 N3152 0.985 . S
C3166 C3167 1.363 . S
C3166 C3172 1.379 . S
C3166 N3174 1.356 . S
C3167 C3166 1.363 . S
C3167 C3173 1.363 . S
C3168 C3169 1.363 . S
C3168 C3173 1.379 . S
C3168 N3175 1.356 . S
C3169 C3168 1.363 . S
C3169 C3172 1.363 . S
N3170 C3172 1.356 . S
N3170 H3182 0.984 . S
N3170 H3183 0.985 . S
N3171 C3173 1.356 . S
N3171 H3176 0.984 . S
N3171 H3177 0.985 . S
C3172 C3166 1.379 . S
C3172 C3169 1.363 . S
C3172 N3170 1.356 . S
C3173 C3167 1.363 . S
C3173 C3168 1.379 . S
C3173 N3171 1.356 . S
N3174 C3166 1.356 . S
N3174 H3180 0.984 . S
N3174 H3181 0.984 . S
N3175 C3168 1.356 . S
N3175 H3178 0.984 . S
N3175 H3179 0.985 . S
H3176 N3171 0.984 . S
H3177 N3171 0.985 . S
H3178 N3175 0.984 . S
H3179 N3175 0.985 . S
H3180 N3174 0.984 . S
H3181 N3174 0.984 . S
H3182 N3170 0.984 . S
H3183 N3170 0.985 . S
C3184 C3185 1.363 . S
C3184 C3190 1.379 . S
C3184 N3192 1.356 . S
C3185 C3184 1.363 . S
C3185 C3191 1.363 . S
C3186 C3187 1.363 . S
C3186 C3191 1.379 . S
C3186 N3193 1.356 . S
C3187 C3186 1.363 . S
C3187 C3190 1.363 . S
N3188 C3190 1.356 . S
N3188 H3200 0.984 . S
N3188 H3201 0.985 . S
N3189 C3191 1.356 . S
N3189 H3194 0.984 . S
N3189 H3195 0.985 1_554 S
C3190 C3184 1.379 . S
C3190 C3187 1.363 . S
C3190 N3188 1.356 . S
C3191 C3185 1.363 . S
C3191 C3186 1.379 . S
C3191 N3189 1.356 . S
N3192 C3184 1.356 . S
N3192 H3198 0.984 . S
N3192 H3199 0.984 . S
N3193 C3186 1.356 . S
N3193 H3196 0.984 . S
N3193 H3197 0.985 1_554 S
H3194 N3189 0.984 . S
H3195 N3189 0.985 1_556 S
H3196 N3193 0.984 . S
H3197 N3193 0.985 1_556 S
H3198 N3192 0.984 . S
H3199 N3192 0.984 . S
H3200 N3188 0.984 . S
H3201 N3188 0.985 . S
C3202 C3203 1.363 . S
C3202 C3208 1.379 . S
C3202 N3210 1.356 . S
C3203 C3202 1.363 . S
C3203 C3209 1.363 . S
C3204 C3205 1.363 . S
C3204 C3209 1.379 . S
C3204 N3211 1.356 . S
C3205 C3204 1.363 . S
C3205 C3208 1.363 . S
N3206 C3208 1.356 . S
N3206 H3218 0.984 . S
N3206 H3219 0.985 . S
N3207 C3209 1.356 . S
N3207 H3212 0.984 . S
N3207 H3213 0.985 . S
C3208 C3202 1.379 . S
C3208 C3205 1.363 . S
C3208 N3206 1.356 . S
C3209 C3203 1.363 . S
C3209 C3204 1.379 . S
C3209 N3207 1.356 . S
N3210 C3202 1.356 . S
N3210 H3216 0.984 . S
N3210 H3217 0.984 . S
N3211 C3204 1.356 . S
N3211 H3214 0.984 . S
N3211 H3215 0.985 . S
H3212 N3207 0.984 . S
H3213 N3207 0.985 . S
H3214 N3211 0.984 . S
H3215 N3211 0.985 . S
H3216 N3210 0.984 . S
H3217 N3210 0.984 . S
H3218 N3206 0.984 . S
H3219 N3206 0.985 . S
C3220 C3221 1.363 . S
C3220 C3226 1.379 . S
C3220 N3228 1.356 . S
C3221 C3220 1.363 . S
C3221 C3227 1.363 . S
C3222 C3223 1.363 . S
C3222 C3227 1.379 . S
C3222 N3229 1.356 . S
C3223 C3222 1.363 . S
C3223 C3226 1.363 . S
N3224 C3226 1.356 . S
N3224 H3236 0.984 . S
N3224 H3237 0.985 . S
N3225 C3227 1.356 . S
N3225 H3230 0.984 . S
N3225 H3231 0.985 . S
C3226 C3220 1.379 . S
C3226 C3223 1.363 . S
C3226 N3224 1.356 . S
C3227 C3221 1.363 . S
C3227 C3222 1.379 . S
C3227 N3225 1.356 . S
N3228 C3220 1.356 . S
N3228 H3234 0.984 . S
N3228 H3235 0.984 . S
N3229 C3222 1.356 . S
N3229 H3232 0.984 . S
N3229 H3233 0.985 . S
H3230 N3225 0.984 . S
H3231 N3225 0.985 . S
H3232 N3229 0.984 . S
H3233 N3229 0.985 . S
H3234 N3228 0.984 . S
H3235 N3228 0.984 . S
H3236 N3224 0.984 . S
H3237 N3224 0.985 . S
C3238 C3239 1.363 . S
C3238 C3244 1.379 . S
C3238 N3246 1.356 . S
C3239 C3238 1.363 . S
C3239 C3245 1.363 . S
C3240 C3241 1.363 . S
C3240 C3245 1.379 . S
C3240 N3247 1.356 . S
C3241 C3240 1.363 . S
C3241 C3244 1.363 . S
N3242 C3244 1.356 . S
N3242 H3254 0.984 . S
N3242 H3255 0.985 . S
N3243 C3245 1.356 . S
N3243 H3248 0.984 . S
N3243 H3249 0.985 . S
C3244 C3238 1.379 . S
C3244 C3241 1.363 . S
C3244 N3242 1.356 . S
C3245 C3239 1.363 . S
C3245 C3240 1.379 . S
C3245 N3243 1.356 . S
N3246 C3238 1.356 . S
N3246 H3252 0.984 . S
N3246 H3253 0.984 . S
N3247 C3240 1.356 . S
N3247 H3250 0.984 . S
N3247 H3251 0.985 . S
H3248 N3243 0.984 . S
H3249 N3243 0.985 . S
H3250 N3247 0.984 . S
H3251 N3247 0.985 . S
H3252 N3246 0.984 . S
H3253 N3246 0.984 . S
H3254 N3242 0.984 . S
H3255 N3242 0.985 . S
C3256 C3257 1.363 . S
C3256 C3262 1.379 . S
C3256 N3264 1.356 . S
C3257 C3256 1.363 . S
C3257 C3263 1.363 . S
C3258 C3259 1.363 . S
C3258 C3263 1.379 . S
C3258 N3265 1.356 . S
C3259 C3258 1.363 . S
C3259 C3262 1.363 . S
N3260 C3262 1.356 1_655 S
N3260 H3272 0.984 . S
N3260 H3273 0.985 . S
N3261 C3263 1.356 . S
N3261 H3266 0.984 . S
N3261 H3267 0.985 . S
C3262 C3256 1.379 . S
C3262 C3259 1.363 . S
C3262 N3260 1.356 1_455 S
C3263 C3257 1.363 . S
C3263 C3258 1.379 . S
C3263 N3261 1.356 . S
N3264 C3256 1.356 . S
N3264 H3270 0.984 1_455 S
N3264 H3271 0.984 . S
N3265 C3258 1.356 . S
N3265 H3268 0.984 . S
N3265 H3269 0.985 . S
H3266 N3261 0.984 . S
H3267 N3261 0.985 . S
H3268 N3265 0.984 . S
H3269 N3265 0.985 . S
H3270 N3264 0.984 1_655 S
H3271 N3264 0.984 . S
H3272 N3260 0.984 . S
H3273 N3260 0.985 . S
C3274 C3275 1.363 . S
C3274 C3280 1.379 . S
C3274 N3282 1.356 . S
C3275 C3274 1.363 . S
C3275 C3281 1.363 . S
C3276 C3277 1.363 . S
C3276 C3281 1.379 . S
C3276 N3283 1.356 . S
C3277 C3276 1.363 . S
C3277 C3280 1.363 . S
N3278 C3280 1.356 . S
N3278 H3290 0.984 . S
N3278 H3291 0.985 . S
N3279 C3281 1.356 . S
N3279 H3284 0.984 . S
N3279 H3285 0.985 . S
C3280 C3274 1.379 . S
C3280 C3277 1.363 . S
C3280 N3278 1.356 . S
C3281 C3275 1.363 . S
C3281 C3276 1.379 . S
C3281 N3279 1.356 . S
N3282 C3274 1.356 . S
N3282 H3288 0.984 . S
N3282 H3289 0.984 . S
N3283 C3276 1.356 . S
N3283 H3286 0.984 . S
N3283 H3287 0.985 . S
H3284 N3279 0.984 . S
H3285 N3279 0.985 . S
H3286 N3283 0.984 . S
H3287 N3283 0.985 . S
H3288 N3282 0.984 . S
H3289 N3282 0.984 . S
H3290 N3278 0.984 . S
H3291 N3278 0.985 . S
C3292 C3293 1.363 . S
C3292 C3298 1.404 . S
C3292 N3300 1.356 . S
C3293 C3292 1.363 . S
C3293 C3299 1.363 . S
C3294 C3295 1.363 . S
C3294 C3299 1.379 . S
C3294 N3301 1.356 1_565 S
C3295 C3294 1.363 . S
C3295 C3298 1.376 . S
N3296 C3298 1.317 1_554 S
N3296 H3308 0.984 . S
N3296 H3309 0.985 . S
N3297 C3299 1.356 . S
N3297 H3302 0.984 . S
N3297 H3303 0.985 . S
C3298 C3292 1.404 . S
C3298 C3295 1.376 . S
C3298 N3296 1.317 1_556 S
C3299 C3293 1.363 . S
C3299 C3294 1.379 . S
C3299 N3297 1.356 . S
N3300 C3292 1.356 . S
N3300 H3306 0.984 . S
N3300 H3307 0.984 . S
N3301 C3294 1.356 1_545 S
N3301 H3304 0.984 . S
N3301 H3305 0.985 . S
H3302 N3297 0.984 . S
H3303 N3297 0.985 . S
H3304 N3301 0.984 . S
H3305 N3301 0.985 . S
H3306 N3300 0.984 . S
H3307 N3300 0.984 . S
H3308 N3296 0.984 . S
H3309 N3296 0.985 . S
C3310 C3311 1.363 . S
C3310 C3316 1.379 . S
C3310 N3318 1.356 . S
C3311 C3310 1.363 . S
C3311 C3317 1.363 . S
C3312 C3313 1.363 . S
C3312 C3317 1.379 . S
C3312 N3319 1.356 . S
C3313 C3312 1.363 . S
C3313 C3316 1.363 . S
N3314 C3316 1.356 . S
N3314 H3326 0.984 . S
N3314 H3327 0.985 . S
N3315 C3317 1.356 . S
N3315 H3320 0.984 . S
N3315 H3321 0.985 . S
C3316 C3310 1.379 . S
C3316 C3313 1.363 . S
C3316 N3314 1.356 . S
C3317 C3311 1.363 . S
C3317 C3312 1.379 . S
C3317 N3315 1.356 . S
N3318 C3310 1.356 . S
N3318 H3324 0.984 . S
N3318 H3325 0.984 . S
N3319 C3312 1.356 . S
N3319 H3322 0.984 . S
N3319 H3323 0.985 . S
H3320 N3315 0.984 . S
H3321 N3315 0.985 . S
H3322 N3319 0.984 . S
H3323 N3319 0.985 . S
H3324 N3318 0.984 . S
H3325 N3318 0.984 . S
H3326 N3314 0.984 . S
H3327 N3314 0.985 . S
C3328 C3329 1.363 . S
C3328 C3334 1.379 . S
C3328 N3336 1.356 . S
C3329 C3328 1.363 . S
C3329 C3335 1.363 . S
C3330 C3331 1.363 . S
C3330 C3335 1.379 . S
C3330 N3337 1.356 . S
C3331 C3330 1.363 . S
C3331 C3334 1.363 . S
N3332 C3334 1.356 . S
N3332 H3344 0.984 1_545 S
N3332 H3345 0.985 . S
N3333 C3335 1.356 . S
N3333 H3338 0.984 . S
N3333 H3339 0.985 . S
C3334 C3328 1.379 . S
C3334 C3331 1.363 . S
C3334 N3332 1.356 . S
C3335 C3329 1.363 . S
C3335 C3330 1.379 . S
C3335 N3333 1.356 . S
N3336 C3328 1.356 . S
N3336 H3342 0.984 1_545 S
N3336 H3343 0.984 . S
N3337 C3330 1.356 . S
N3337 H3340 0.984 . S
N3337 H3341 0.985 . S
H3338 N3333 0.984 . S
H3339 N3333 0.985 . S
H3340 N3337 0.984 . S
H3341 N3337 0.985 . S
H3342 N3336 0.984 1_565 S
H3343 N3336 0.984 . S
H3344 N3332 0.984 1_565 S
H3345 N3332 0.985 . S
C3346 C3347 1.363 . S
C3346 C3352 1.379 . S
C3346 N3354 1.356 . S
C3347 C3346 1.363 . S
C3347 C3353 1.363 . S
C3348 C3349 1.363 . S
C3348 C3353 1.379 . S
C3348 N3355 1.356 . S
C3349 C3348 1.363 . S
C3349 C3352 1.363 . S
N3350 C3352 1.356 . S
N3350 H3362 0.984 . S
N3350 H3363 0.985 . S
N3351 C3353 1.356 . S
N3351 H3356 0.984 . S
N3351 H3357 0.985 . S
C3352 C3346 1.379 . S
C3352 C3349 1.363 . S
C3352 N3350 1.356 . S
C3353 C3347 1.363 . S
C3353 C3348 1.379 . S
C3353 N3351 1.356 . S
N3354 C3346 1.356 . S
N3354 H3360 0.984 . S
N3354 H3361 0.984 . S
N3355 C3348 1.356 . S
N3355 H3358 0.984 . S
N3355 H3359 0.985 . S
H3356 N3351 0.984 . S
H3357 N3351 0.985 . S
H3358 N3355 0.984 . S
H3359 N3355 0.985 . S
H3360 N3354 0.984 . S
H3361 N3354 0.984 . S
H3362 N3350 0.984 . S
H3363 N3350 0.985 . S
C3364 C3365 1.363 . S
C3364 C3370 1.379 . S
C3364 N3372 1.356 . S
C3365 C3364 1.363 . S
C3365 C3371 1.363 . S
C3366 C3367 1.363 . S
C3366 C3371 1.379 . S
C3366 N3373 1.356 . S
C3367 C3366 1.363 . S
C3367 C3370 1.363 . S
N3368 C3370 1.356 . S
N3368 H3380 0.984 . S
N3368 H3381 0.985 . S
N3369 C3371 1.356 1_565 S
N3369 H3374 0.984 . S
N3369 H3375 0.985 . S
C3370 C3364 1.379 . S
C3370 C3367 1.363 . S
C3370 N3368 1.356 . S
C3371 C3365 1.363 . S
C3371 C3366 1.379 . S
C3371 N3369 1.356 1_545 S
N3372 C3364 1.356 . S
N3372 H3378 0.984 . S
N3372 H3379 0.984 . S
N3373 C3366 1.356 . S
N3373 H3376 0.984 . S
N3373 H3377 0.985 1_545 S
H3374 N3369 0.984 . S
H3375 N3369 0.985 . S
H3376 N3373 0.984 . S
H3377 N3373 0.985 1_565 S
H3378 N3372 0.984 . S
H3379 N3372 0.984 . S
H3380 N3368 0.984 . S
H3381 N3368 0.985 . S
C3382 C3383 1.363 . S
C3382 C3388 1.379 . S
C3382 N3390 1.356 . S
C3383 C3382 1.363 . S
C3383 C3389 1.363 . S
C3384 C3385 1.363 . S
C3384 C3389 1.379 . S
C3384 N3391 1.356 . S
C3385 C3384 1.363 . S
C3385 C3388 1.363 . S
N3386 C3388 1.356 . S
N3386 H3398 0.984 . S
N3386 H3399 0.985 . S
N3387 C3389 1.356 . S
N3387 H3392 0.984 . S
N3387 H3393 0.985 . S
C3388 C3382 1.379 . S
C3388 C3385 1.363 . S
C3388 N3386 1.356 . S
C3389 C3383 1.363 . S
C3389 C3384 1.379 . S
C3389 N3387 1.356 . S
N3390 C3382 1.356 . S
N3390 H3396 0.984 . S
N3390 H3397 0.984 . S
N3391 C3384 1.356 . S
N3391 H3394 0.984 . S
N3391 H3395 0.985 . S
H3392 N3387 0.984 . S
H3393 N3387 0.985 . S
H3394 N3391 0.984 . S
H3395 N3391 0.985 . S
H3396 N3390 0.984 . S
H3397 N3390 0.984 . S
H3398 N3386 0.984 . S
H3399 N3386 0.985 . S
C3400 C3401 1.363 . S
C3400 C3406 1.379 . S
C3400 N3408 1.356 . S
C3401 C3400 1.363 . S
C3401 C3407 1.363 . S
C3402 C3403 1.363 . S
C3402 C3407 1.379 . S
C3402 N3409 1.356 . S
C3403 C3402 1.363 . S
C3403 C3406 1.363 . S
N3404 C3406 1.356 . S
N3404 H3416 0.999 . S
N3404 H3417 0.985 . S
N3405 C3407 1.356 . S
N3405 H3410 0.984 . S
N3405 H3411 0.985 . S
C3406 C3400 1.379 . S
C3406 C3403 1.363 . S
C3406 N3404 1.356 . S
C3407 C3401 1.363 . S
C3407 C3402 1.379 . S
C3407 N3405 1.356 . S
N3408 C3400 1.356 . S
N3408 H3414 0.984 1_455 S
N3408 H3415 0.984 . S
N3409 C3402 1.356 . S
N3409 H3412 0.984 . S
N3409 H3413 0.985 . S
H3410 N3405 0.984 . S
H3411 N3405 0.985 . S
H3412 N3409 0.984 . S
H3413 N3409 0.985 . S
H3414 N3408 0.984 1_655 S
H3415 N3408 0.984 . S
H3416 N3404 0.999 . S
H3417 N3404 0.985 . S
C3418 C3419 1.363 . S
C3418 C3424 1.379 . S
C3418 N3426 1.356 . S
C3419 C3418 1.363 . S
C3419 C3425 1.363 . S
C3420 C3421 1.363 . S
C3420 C3425 1.379 . S
C3420 N3427 1.356 . S
C3421 C3420 1.363 . S
C3421 C3424 1.363 . S
N3422 C3424 1.356 . S
N3422 H3434 0.984 . S
N3422 H3435 0.985 . S
N3423 C3425 1.356 . S
N3423 H3428 0.984 . S
N3423 H3429 0.985 . S
C3424 C3418 1.379 . S
C3424 C3421 1.363 . S
C3424 N3422 1.356 . S
C3425 C3419 1.363 . S
C3425 C3420 1.379 . S
C3425 N3423 1.356 . S
N3426 C3418 1.356 . S
N3426 H3432 0.984 . S
N3426 H3433 0.984 . S
N3427 C3420 1.356 . S
N3427 H3430 0.984 . S
N3427 H3431 0.985 . S
H3428 N3423 0.984 . S
H3429 N3423 0.985 . S
H3430 N3427 0.984 . S
H3431 N3427 0.985 . S
H3432 N3426 0.984 . S
H3433 N3426 0.984 . S
H3434 N3422 0.984 . S
H3435 N3422 0.985 . S
C3436 C3437 1.363 . S
C3436 C3442 1.379 . S
C3436 N3444 1.356 . S
C3437 C3436 1.363 . S
C3437 C3443 1.363 1_545 S
C3438 C3439 1.363 . S
C3438 C3443 1.379 . S
C3438 N3445 1.356 . S
C3439 C3438 1.363 . S
C3439 C3442 1.363 1_565 S
N3440 C3442 1.356 . S
N3440 H3452 0.984 . S
N3440 H3453 0.985 1_545 S
N3441 C3443 1.356 . S
N3441 H3446 0.984 . S
N3441 H3447 0.985 . S
C3442 C3436 1.379 . S
C3442 C3439 1.363 1_545 S
C3442 N3440 1.356 . S
C3443 C3437 1.363 1_565 S
C3443 C3438 1.379 . S
C3443 N3441 1.356 . S
N3444 C3436 1.356 . S
N3444 H3450 0.984 . S
N3444 H3451 0.984 . S
N3445 C3438 1.356 . S
N3445 H3448 0.984 . S
N3445 H3449 0.985 . S
H3446 N3441 0.984 . S
H3447 N3441 0.985 . S
H3448 N3445 0.984 . S
H3449 N3445 0.985 . S
H3450 N3444 0.984 . S
H3451 N3444 0.984 . S
H3452 N3440 0.984 . S
H3453 N3440 0.985 1_565 S
C3454 C3455 1.363 . S
C3454 C3460 1.379 . S
C3454 N3462 1.356 . S
C3455 C3454 1.363 . S
C3455 C3461 1.363 . S
C3456 C3457 1.363 . S
C3456 C3461 1.379 . S
C3456 N3463 1.356 . S
C3457 C3456 1.363 . S
C3457 C3460 1.363 . S
N3458 C3460 1.356 . S
N3458 H3470 0.984 . S
N3458 H3471 0.985 . S
N3459 C3461 1.356 . S
N3459 H3464 0.984 . S
N3459 H3465 0.985 . S
C3460 C3454 1.379 . S
C3460 C3457 1.363 . S
C3460 N3458 1.356 . S
C3461 C3455 1.363 . S
C3461 C3456 1.379 . S
C3461 N3459 1.356 . S
N3462 C3454 1.356 . S
N3462 H3468 0.984 . S
N3462 H3469 0.984 . S
N3463 C3456 1.356 . S
N3463 H3466 0.984 . S
N3463 H3467 0.985 . S
H3464 N3459 0.984 . S
H3465 N3459 0.985 . S
H3466 N3463 0.984 . S
H3467 N3463 0.985 . S
H3468 N3462 0.984 . S
H3469 N3462 0.984 . S
H3470 N3458 0.984 . S
H3471 N3458 0.985 . S
C3472 C3473 1.363 . S
C3472 C3478 1.379 . S
C3472 N3480 1.356 . S
C3473 C3472 1.363 . S
C3473 C3479 1.363 . S
C3474 C3475 1.363 . S
C3474 C3479 1.379 . S
C3474 N3481 1.356 1_554 S
C3475 C3474 1.363 . S
C3475 C3478 1.363 . S
N3476 C3478 1.356 . S
N3476 H3488 0.984 . S
N3476 H3489 0.985 . S
N3477 C3479 1.356 . S
N3477 H3482 0.984 . S
N3477 H3483 0.985 . S
C3478 C3472 1.379 . S
C3478 C3475 1.363 . S
C3478 N3476 1.356 . S
C3479 C3473 1.363 . S
C3479 C3474 1.379 . S
C3479 N3477 1.356 . S
N3480 C3472 1.356 . S
N3480 H3486 0.984 . S
N3480 H3487 0.984 . S
N3481 C3474 1.356 1_556 S
N3481 H3484 0.984 . S
N3481 H3485 0.985 . S
H3482 N3477 0.984 . S
H3483 N3477 0.985 . S
H3484 N3481 0.984 . S
H3485 N3481 0.985 . S
H3486 N3480 0.984 . S
H3487 N3480 0.984 . S
H3488 N3476 0.984 . S
H3489 N3476 0.985 . S
C3490 C3491 1.363 . S
C3490 C3496 1.379 . S
C3490 N3498 1.356 . S
C3491 C3490 1.363 . S
C3491 C3497 1.363 . S
C3492 C3493 1.363 . S
C3492 C3497 1.379 . S
C3492 N3499 1.356 . S
C3493 C3492 1.363 . S
C3493 C3496 1.363 . S
N3494 C3496 1.356 . S
N3494 H3506 0.984 . S
N3494 H3507 0.985 . S
N3495 C3497 1.356 . S
N3495 H3500 0.984 . S
N3495 H3501 0.985 . S
C3496 C3490 1.379 . S
C3496 C3493 1.363 . S
C3496 N3494 1.356 . S
C3497 C3491 1.363 . S
C3497 C3492 1.379 . S
C3497 N3495 1.356 . S
N3498 C3490 1.356 . S
N3498 H3504 0.984 . S
N3498 H3505 0.984 . S
N3499 C3492 1.356 . S
N3499 H3502 0.984 . S
N3499 H3503 0.985 . S
H3500 N3495 0.984 . S
H3501 N3495 0.985 . S
H3502 N3499 0.984 . S
H3503 N3499 0.985 . S
H3504 N3498 0.984 . S
H3505 N3498 0.984 . S
H3506 N3494 0.984 . S
H3507 N3494 0.985 . S
C3508 C3509 1.363 . S
C3508 C3514 1.379 . S
C3508 N3516 1.356 . S
C3509 C3508 1.363 . S
C3509 C3515 1.363 . S
C3510 C3511 1.363 . S
C3510 C3515 1.379 . S
C3510 N3517 1.356 . S
C3511 C3510 1.363 . S
C3511 C3514 1.363 . S
N3512 C3514 1.356 . S
N3512 H3524 0.984 . S
N3512 H3525 0.985 . S
N3513 C3515 1.356 . S
N3513 H3518 0.984 . S
N3513 H3519 0.985 . S
C3514 C3508 1.379 . S
C3514 C3511 1.363 . S
C3514 N3512 1.356 . S
C3515 C3509 1.363 . S
C3515 C3510 1.379 . S
C3515 N3513 1.356 . S
N3516 C3508 1.356 . S
N3516 H3522 0.984 . S
N3516 H3523 0.984 . S
N3517 C3510 1.356 . S
N3517 H3520 0.984 . S
N3517 H3521 0.985 . S
H3518 N3513 0.984 . S
H3519 N3513 0.985 . S
H3520 N3517 0.984 . S
H3521 N3517 0.985 . S
H3522 N3516 0.984 . S
H3523 N3516 0.984 . S
H3524 N3512 0.984 . S
H3525 N3512 0.985 . S
C3526 C3527 1.363 . S
C3526 C3532 1.379 . S
C3526 N3534 1.356 . S
C3527 C3526 1.363 . S
C3527 C3533 1.363 . S
C3528 C3529 1.363 . S
C3528 C3533 1.379 . S
C3528 N3535 1.356 . S
C3529 C3528 1.363 . S
C3529 C3532 1.363 . S
N3530 C3532 1.356 . S
N3530 H3542 0.984 . S
N3530 H3543 0.985 . S
N3531 C3533 1.356 . S
N3531 H3536 0.984 . S
N3531 H3537 0.985 . S
C3532 C3526 1.379 . S
C3532 C3529 1.363 . S
C3532 N3530 1.356 . S
C3533 C3527 1.363 . S
C3533 C3528 1.379 . S
C3533 N3531 1.356 . S
N3534 C3526 1.356 . S
N3534 H3540 0.984 . S
N3534 H3541 0.984 . S
N3535 C3528 1.356 . S
N3535 H3538 0.984 . S
N3535 H3539 0.985 . S
H3536 N3531 0.984 . S
H3537 N3531 0.985 . S
H3538 N3535 0.984 . S
H3539 N3535 0.985 . S
H3540 N3534 0.984 . S
H3541 N3534 0.984 . S
H3542 N3530 0.984 . S
H3543 N3530 0.985 . S
C3544 C3545 1.363 . S
C3544 C3550 1.379 . S
C3544 N3552 1.356 . S
C3545 C3544 1.363 . S
C3545 C3551 1.363 . S
C3546 C3547 1.363 . S
C3546 C3551 1.379 . S
C3546 N3553 1.356 . S
C3547 C3546 1.363 . S
C3547 C3550 1.363 . S
N3548 C3550 1.356 . S
N3548 H3560 0.984 . S
N3548 H3561 0.985 . S
N3549 C3551 1.356 1_545 S
N3549 H3554 0.984 . S
N3549 H3555 0.985 . S
C3550 C3544 1.379 . S
C3550 C3547 1.363 . S
C3550 N3548 1.356 . S
C3551 C3545 1.363 . S
C3551 C3546 1.379 . S
C3551 N3549 1.356 1_565 S
N3552 C3544 1.356 . S
N3552 H3558 0.984 . S
N3552 H3559 0.984 . S
N3553 C3546 1.356 . S
N3553 H3556 0.984 . S
N3553 H3557 0.985 . S
H3554 N3549 0.984 . S
H3555 N3549 0.985 . S
H3556 N3553 0.984 . S
H3557 N3553 0.985 . S
H3558 N3552 0.984 . S
H3559 N3552 0.984 . S
H3560 N3548 0.984 . S
H3561 N3548 0.985 . S
C3562 C3563 1.363 . S
C3562 C3568 1.379 . S
C3562 N3570 1.356 . S
C3563 C3562 1.363 . S
C3563 C3569 1.363 . S
C3564 C3565 1.363 . S
C3564 C3569 1.379 . S
C3564 N3571 1.379 . S
C3565 C3564 1.363 . S
C3565 C3568 1.363 . S
N3566 C3568 1.356 . S
N3566 H3578 0.984 . S
N3566 H3579 0.985 . S
N3567 C3569 1.356 . S
N3567 H3572 0.984 . S
N3567 H3573 0.985 . S
C3568 C3562 1.379 . S
C3568 C3565 1.363 . S
C3568 N3566 1.356 . S
C3569 C3563 1.363 . S
C3569 C3564 1.379 . S
C3569 N3567 1.356 . S
N3570 C3562 1.356 . S
N3570 H3576 0.984 . S
N3570 H3577 0.984 . S
N3571 C3564 1.379 . S
N3571 H3574 0.970 1_565 S
N3571 H3575 0.977 1_565 S
H3572 N3567 0.984 . S
H3573 N3567 0.985 . S
H3574 N3571 0.970 1_545 S
H3575 N3571 0.977 1_545 S
H3576 N3570 0.984 . S
H3577 N3570 0.984 . S
H3578 N3566 0.984 . S
H3579 N3566 0.985 . S
C3580 C3581 1.363 . S
C3580 C3586 1.379 . S
C3580 N3588 1.356 . S
C3581 C3580 1.363 . S
C3581 C3587 1.363 . S
C3582 C3583 1.363 . S
C3582 C3587 1.379 . S
C3582 N3589 1.356 . S
C3583 C3582 1.363 . S
C3583 C3586 1.363 . S
N3584 C3586 1.356 . S
N3584 H3596 0.984 . S
N3584 H3597 0.985 . S
N3585 C3587 1.356 . S
N3585 H3590 0.984 . S
N3585 H3591 0.985 . S
C3586 C3580 1.379 . S
C3586 C3583 1.363 . S
C3586 N3584 1.356 . S
C3587 C3581 1.363 . S
C3587 C3582 1.379 . S
C3587 N3585 1.356 . S
N3588 C3580 1.356 . S
N3588 H3594 0.984 . S
N3588 H3595 0.984 . S
N3589 C3582 1.356 . S
N3589 H3592 0.984 . S
N3589 H3593 0.985 . S
H3590 N3585 0.984 . S
H3591 N3585 0.985 . S
H3592 N3589 0.984 . S
H3593 N3589 0.985 . S
H3594 N3588 0.984 . S
H3595 N3588 0.984 . S
H3596 N3584 0.984 . S
H3597 N3584 0.985 . S
C3598 C3599 1.363 . S
C3598 C3604 1.379 . S
C3598 N3606 1.356 . S
C3599 C3598 1.363 . S
C3599 C3605 1.363 . S
C3600 C3601 1.363 . S
C3600 C3605 1.379 . S
C3600 N3607 1.356 . S
C3601 C3600 1.363 . S
C3601 C3604 1.363 . S
N3602 C3604 1.356 . S
N3602 H3614 0.984 . S
N3602 H3615 0.985 . S
N3603 C3605 1.356 . S
N3603 H3608 0.984 . S
N3603 H3609 0.985 . S
C3604 C3598 1.379 . S
C3604 C3601 1.363 . S
C3604 N3602 1.356 . S
C3605 C3599 1.363 . S
C3605 C3600 1.379 . S
C3605 N3603 1.356 . S
N3606 C3598 1.356 . S
N3606 H3612 0.984 . S
N3606 H3613 0.984 . S
N3607 C3600 1.356 . S
N3607 H3610 0.984 . S
N3607 H3611 0.985 . S
H3608 N3603 0.984 . S
H3609 N3603 0.985 . S
H3610 N3607 0.984 . S
H3611 N3607 0.985 . S
H3612 N3606 0.984 . S
H3613 N3606 0.984 . S
H3614 N3602 0.984 . S
H3615 N3602 0.985 . S
C3616 C3617 1.363 . S
C3616 C3622 1.379 . S
C3616 N3624 1.356 . S
C3617 C3616 1.363 . S
C3617 C3623 1.363 . S
C3618 C3619 1.363 . S
C3618 C3623 1.379 . S
C3618 N3625 1.356 . S
C3619 C3618 1.363 . S
C3619 C3622 1.363 . S
N3620 C3622 1.356 . S
N3620 H3632 0.984 . S
N3620 H3633 0.985 . S
N3621 C3623 1.356 . S
N3621 H3626 0.984 . S
N3621 H3627 0.985 . S
C3622 C3616 1.379 . S
C3622 C3619 1.363 . S
C3622 N3620 1.356 . S
C3623 C3617 1.363 . S
C3623 C3618 1.379 . S
C3623 N3621 1.356 . S
N3624 C3616 1.356 . S
N3624 H3630 0.984 . S
N3624 H3631 0.984 . S
N3625 C3618 1.356 . S
N3625 H3628 0.984 . S
N3625 H3629 0.985 . S
H3626 N3621 0.984 . S
H3627 N3621 0.985 . S
H3628 N3625 0.984 . S
H3629 N3625 0.985 . S
H3630 N3624 0.984 . S
H3631 N3624 0.984 . S
H3632 N3620 0.984 . S
H3633 N3620 0.985 . S
C3634 C3635 1.363 . S
C3634 C3640 1.379 . S
C3634 N3642 1.356 . S
C3635 C3634 1.363 . S
C3635 C3641 1.363 . S
C3636 C3637 1.363 . S
C3636 C3641 1.379 . S
C3636 N3643 1.356 . S
C3637 C3636 1.363 . S
C3637 C3640 1.363 . S
N3638 C3640 1.356 . S
N3638 H3650 0.984 . S
N3638 H3651 0.985 . S
N3639 C3641 1.356 . S
N3639 H3644 0.984 . S
N3639 H3645 0.985 . S
C3640 C3634 1.379 . S
C3640 C3637 1.363 . S
C3640 N3638 1.356 . S
C3641 C3635 1.363 . S
C3641 C3636 1.379 . S
C3641 N3639 1.356 . S
N3642 C3634 1.356 . S
N3642 H3648 0.984 . S
N3642 H3649 0.984 . S
N3643 C3636 1.356 . S
N3643 H3646 0.984 . S
N3643 H3647 0.985 . S
H3644 N3639 0.984 . S
H3645 N3639 0.985 . S
H3646 N3643 0.984 . S
H3647 N3643 0.985 . S
H3648 N3642 0.984 . S
H3649 N3642 0.984 . S
H3650 N3638 0.984 . S
H3651 N3638 0.985 . S
C3652 C3653 1.363 . S
C3652 C3658 1.379 . S
C3652 N3660 1.356 . S
C3653 C3652 1.363 . S
C3653 C3659 1.363 . S
C3654 C3655 1.363 . S
C3654 C3659 1.379 . S
C3654 N3661 1.356 . S
C3655 C3654 1.363 . S
C3655 C3658 1.363 . S
N3656 C3658 1.356 . S
N3656 H3668 0.984 1_554 S
N3656 H3669 0.985 . S
N3657 C3659 1.356 . S
N3657 H3662 0.984 . S
N3657 H3663 0.985 1_455 S
C3658 C3652 1.379 . S
C3658 C3655 1.363 . S
C3658 N3656 1.356 . S
C3659 C3653 1.363 . S
C3659 C3654 1.379 . S
C3659 N3657 1.356 . S
N3660 C3652 1.356 . S
N3660 H3666 0.984 . S
N3660 H3667 0.984 . S
N3661 C3654 1.356 . S
N3661 H3664 0.984 . S
N3661 H3665 0.985 1_455 S
H3662 N3657 0.984 . S
H3663 N3657 0.985 1_655 S
H3664 N3661 0.984 . S
H3665 N3661 0.985 1_655 S
H3666 N3660 0.984 . S
H3667 N3660 0.984 . S
H3668 N3656 0.984 1_556 S
H3669 N3656 0.985 . S
C3670 C3671 1.363 . S
C3670 C3676 1.379 . S
C3670 N3678 1.356 . S
C3671 C3670 1.363 . S
C3671 C3677 1.363 . S
C3672 C3673 1.363 . S
C3672 C3677 1.379 . S
C3672 N3679 1.356 . S
C3673 C3672 1.363 . S
C3673 C3676 1.363 . S
N3674 C3676 1.356 . S
N3674 H3686 0.984 . S
N3674 H3687 0.985 . S
N3675 C3677 1.356 . S
N3675 H3680 0.984 . S
N3675 H3681 0.985 . S
C3676 C3670 1.379 . S
C3676 C3673 1.363 . S
C3676 N3674 1.356 . S
C3677 C3671 1.363 . S
C3677 C3672 1.379 . S
C3677 N3675 1.356 . S
N3678 C3670 1.356 . S
N3678 H3684 0.984 . S
N3678 H3685 0.984 . S
N3679 C3672 1.356 . S
N3679 H3682 0.984 . S
N3679 H3683 0.985 . S
H3680 N3675 0.984 . S
H3681 N3675 0.985 . S
H3682 N3679 0.984 . S
H3683 N3679 0.985 . S
H3684 N3678 0.984 . S
H3685 N3678 0.984 . S
H3686 N3674 0.984 . S
H3687 N3674 0.985 . S
C3688 C3689 1.363 . S
C3688 C3694 1.379 . S
C3688 N3696 1.356 . S
C3689 C3688 1.363 . S
C3689 C3695 1.363 . S
C3690 C3691 1.363 . S
C3690 C3695 1.379 . S
C3690 N3697 1.356 . S
C3691 C3690 1.363 . S
C3691 C3694 1.363 . S
N3692 C3694 1.356 . S
N3692 H3704 0.984 . S
N3692 H3705 0.985 . S
N3693 C3695 1.356 . S
N3693 H3698 0.984 . S
N3693 H3699 0.985 . S
C3694 C3688 1.379 . S
C3694 C3691 1.363 . S
C3694 N3692 1.356 . S
C3695 C3689 1.363 . S
C3695 C3690 1.379 . S
C3695 N3693 1.356 . S
N3696 C3688 1.356 . S
N3696 H3702 0.984 . S
N3696 H3703 0.984 . S
N3697 C3690 1.356 . S
N3697 H3700 0.984 . S
N3697 H3701 0.985 . S
H3698 N3693 0.984 . S
H3699 N3693 0.985 . S
H3700 N3697 0.984 . S
H3701 N3697 0.985 . S
H3702 N3696 0.984 . S
H3703 N3696 0.984 . S
H3704 N3692 0.984 . S
H3705 N3692 0.985 . S
C3706 C3707 1.363 . S
C3706 C3712 1.379 . S
C3706 N3714 1.356 . S
C3707 C3706 1.363 . S
C3707 C3713 1.363 . S
C3708 C3709 1.363 . S
C3708 C3713 1.379 . S
C3708 N3715 1.356 . S
C3709 C3708 1.363 . S
C3709 C3712 1.363 . S
N3710 C3712 1.356 . S
N3710 H3722 0.984 . S
N3710 H3723 0.985 . S
N3711 C3713 1.356 . S
N3711 H3716 0.984 . S
N3711 H3717 0.985 . S
C3712 C3706 1.379 . S
C3712 C3709 1.363 . S
C3712 N3710 1.356 . S
C3713 C3707 1.363 . S
C3713 C3708 1.379 . S
C3713 N3711 1.356 . S
N3714 C3706 1.356 . S
N3714 H3720 0.984 . S
N3714 H3721 0.984 . S
N3715 C3708 1.356 . S
N3715 H3718 0.984 . S
N3715 H3719 0.985 . S
H3716 N3711 0.984 . S
H3717 N3711 0.985 . S
H3718 N3715 0.984 . S
H3719 N3715 0.985 . S
H3720 N3714 0.984 . S
H3721 N3714 0.984 . S
H3722 N3710 0.984 . S
H3723 N3710 0.985 . S
C3724 C3725 1.363 1_655 S
C3724 C3730 1.379 1_655 S
C3724 N3732 1.356 . S
C3725 C3724 1.363 1_455 S
C3725 C3731 1.363 . S
C3726 C3727 1.363 . S
C3726 C3731 1.379 . S
C3726 N3733 1.356 . S
C3727 C3726 1.363 . S
C3727 C3730 1.363 . S
N3728 C3730 1.356 1_655 S
N3728 H3740 0.984 . S
N3728 H3741 0.985 1_655 S
N3729 C3731 1.356 . S
N3729 H3734 0.984 . S
N3729 H3735 0.985 . S
C3730 C3724 1.379 1_455 S
C3730 C3727 1.363 . S
C3730 N3728 1.356 1_455 S
C3731 C3725 1.363 . S
C3731 C3726 1.379 . S
C3731 N3729 1.356 . S
N3732 C3724 1.356 . S
N3732 H3738 0.984 . S
N3732 H3739 0.984 . S
N3733 C3726 1.356 . S
N3733 H3736 0.984 . S
N3733 H3737 0.985 . S
H3734 N3729 0.984 . S
H3735 N3729 0.985 . S
H3736 N3733 0.984 . S
H3737 N3733 0.985 . S
H3738 N3732 0.984 . S
H3739 N3732 0.984 . S
H3740 N3728 0.984 . S
H3741 N3728 0.985 1_455 S
C3742 C3743 1.363 . S
C3742 C3748 1.379 . S
C3742 N3750 1.356 . S
C3743 C3742 1.363 . S
C3743 C3749 1.363 . S
C3744 C3745 1.363 . S
C3744 C3749 1.379 . S
C3744 N3751 1.356 . S
C3745 C3744 1.363 . S
C3745 C3748 1.363 . S
N3746 C3748 1.356 . S
N3746 H3758 0.984 . S
N3746 H3759 0.985 . S
N3747 C3749 1.356 . S
N3747 H3752 0.984 . S
N3747 H3753 0.985 . S
C3748 C3742 1.379 . S
C3748 C3745 1.363 . S
C3748 N3746 1.356 . S
C3749 C3743 1.363 . S
C3749 C3744 1.379 . S
C3749 N3747 1.356 . S
N3750 C3742 1.356 . S
N3750 H3756 0.984 . S
N3750 H3757 0.984 . S
N3751 C3744 1.356 . S
N3751 H3754 0.984 . S
N3751 H3755 0.985 . S
H3752 N3747 0.984 . S
H3753 N3747 0.985 . S
H3754 N3751 0.984 . S
H3755 N3751 0.985 . S
H3756 N3750 0.984 . S
H3757 N3750 0.984 . S
H3758 N3746 0.984 . S
H3759 N3746 0.985 . S
C3760 C3761 1.363 . S
C3760 C3766 1.379 . S
C3760 N3768 1.356 . S
C3761 C3760 1.363 . S
C3761 C3767 1.363 . S
C3762 C3763 1.363 . S
C3762 C3767 1.379 . S
C3762 N3769 1.356 . S
C3763 C3762 1.363 . S
C3763 C3766 1.363 . S
N3764 C3766 1.356 . S
N3764 H3776 0.984 . S
N3764 H3777 0.985 . S
N3765 C3767 1.356 . S
N3765 H3770 0.984 . S
N3765 H3771 0.985 . S
C3766 C3760 1.379 . S
C3766 C3763 1.363 . S
C3766 N3764 1.356 . S
C3767 C3761 1.363 . S
C3767 C3762 1.379 . S
C3767 N3765 1.356 . S
N3768 C3760 1.356 . S
N3768 H3774 0.984 . S
N3768 H3775 0.984 . S
N3769 C3762 1.356 . S
N3769 H3772 0.984 . S
N3769 H3773 0.985 . S
H3770 N3765 0.984 . S
H3771 N3765 0.985 . S
H3772 N3769 0.984 . S
H3773 N3769 0.985 . S
H3774 N3768 0.984 . S
H3775 N3768 0.984 . S
H3776 N3764 0.984 . S
H3777 N3764 0.985 . S
C3778 C3779 1.363 . S
C3778 C3784 1.379 . S
C3778 N3786 1.356 . S
C3779 C3778 1.363 . S
C3779 C3785 1.363 . S
C3780 C3781 1.363 . S
C3780 C3785 1.379 . S
C3780 N3787 1.356 . S
C3781 C3780 1.363 . S
C3781 C3784 1.363 . S
N3782 C3784 1.356 . S
N3782 H3794 0.984 . S
N3782 H3795 0.985 . S
N3783 C3785 1.356 . S
N3783 H3788 0.984 . S
N3783 H3789 0.985 . S
C3784 C3778 1.379 . S
C3784 C3781 1.363 . S
C3784 N3782 1.356 . S
C3785 C3779 1.363 . S
C3785 C3780 1.379 . S
C3785 N3783 1.356 . S
N3786 C3778 1.356 . S
N3786 H3792 0.984 . S
N3786 H3793 0.984 . S
N3787 C3780 1.356 . S
N3787 H3790 0.984 . S
N3787 H3791 0.985 . S
H3788 N3783 0.984 . S
H3789 N3783 0.985 . S
H3790 N3787 0.984 . S
H3791 N3787 0.985 . S
H3792 N3786 0.984 . S
H3793 N3786 0.984 . S
H3794 N3782 0.984 . S
H3795 N3782 0.985 . S
C3796 C3797 1.363 . S
C3796 C3802 1.379 . S
C3796 N3804 1.356 . S
C3797 C3796 1.363 . S
C3797 C3803 1.363 . S
C3798 C3799 1.363 . S
C3798 C3803 1.379 . S
C3798 N3805 1.356 . S
C3799 C3798 1.363 . S
C3799 C3802 1.363 . S
N3800 C3802 1.356 . S
N3800 H3812 0.984 . S
N3800 H3813 0.985 . S
N3801 C3803 1.356 . S
N3801 H3806 0.984 . S
N3801 H3807 0.985 . S
C3802 C3796 1.379 . S
C3802 C3799 1.363 . S
C3802 N3800 1.356 . S
C3803 C3797 1.363 . S
C3803 C3798 1.379 . S
C3803 N3801 1.356 . S
N3804 C3796 1.356 . S
N3804 H3810 0.984 . S
N3804 H3811 0.984 . S
N3805 C3798 1.356 . S
N3805 H3808 0.984 . S
N3805 H3809 0.985 . S
H3806 N3801 0.984 . S
H3807 N3801 0.985 . S
H3808 N3805 0.984 . S
H3809 N3805 0.985 . S
H3810 N3804 0.984 . S
H3811 N3804 0.984 . S
H3812 N3800 0.984 . S
H3813 N3800 0.985 . S
C3814 C3815 1.363 . S
C3814 C3820 1.379 . S
C3814 N3822 1.356 . S
C3815 C3814 1.363 . S
C3815 C3821 1.363 . S
C3816 C3817 1.363 . S
C3816 C3821 1.379 . S
C3816 N3823 1.356 . S
C3817 C3816 1.363 . S
C3817 C3820 1.363 . S
N3818 C3820 1.356 . S
N3818 H3830 0.984 . S
N3818 H3831 0.985 . S
N3819 C3821 1.356 . S
N3819 H3824 0.984 . S
N3819 H3825 0.985 . S
C3820 C3814 1.379 . S
C3820 C3817 1.363 . S
C3820 N3818 1.356 . S
C3821 C3815 1.363 . S
C3821 C3816 1.379 . S
C3821 N3819 1.356 . S
N3822 C3814 1.356 . S
N3822 H3828 0.984 . S
N3822 H3829 0.984 . S
N3823 C3816 1.356 . S
N3823 H3826 0.984 . S
N3823 H3827 0.985 . S
H3824 N3819 0.984 . S
H3825 N3819 0.985 . S
H3826 N3823 0.984 . S
H3827 N3823 0.985 . S
H3828 N3822 0.984 . S
H3829 N3822 0.984 . S
H3830 N3818 0.984 . S
H3831 N3818 0.985 . S
C3832 C3833 1.363 . S
C3832 C3838 1.379 . S
C3832 N3840 1.356 . S
C3833 C3832 1.363 . S
C3833 C3839 1.363 . S
C3834 C3835 1.363 . S
C3834 C3839 1.379 . S
C3834 N3841 1.356 . S
C3835 C3834 1.363 . S
C3835 C3838 1.363 . S
N3836 C3838 1.356 . S
N3836 H3848 0.984 . S
N3836 H3849 0.985 . S
N3837 C3839 1.356 . S
N3837 H3842 0.984 . S
N3837 H3843 0.985 . S
C3838 C3832 1.379 . S
C3838 C3835 1.363 . S
C3838 N3836 1.356 . S
C3839 C3833 1.363 . S
C3839 C3834 1.379 . S
C3839 N3837 1.356 . S
N3840 C3832 1.356 . S
N3840 H3846 0.984 . S
N3840 H3847 0.984 . S
N3841 C3834 1.356 . S
N3841 H3844 0.984 . S
N3841 H3845 0.985 . S
H3842 N3837 0.984 . S
H3843 N3837 0.985 . S
H3844 N3841 0.984 . S
H3845 N3841 0.985 . S
H3846 N3840 0.984 . S
H3847 N3840 0.984 . S
H3848 N3836 0.984 . S
H3849 N3836 0.985 . S
C3850 C3851 1.363 . S
C3850 C3856 1.379 . S
C3850 N3858 1.356 . S
C3851 C3850 1.363 . S
C3851 C3857 1.363 . S
C3852 C3853 1.363 . S
C3852 C3857 1.379 . S
C3852 N3859 1.356 . S
C3853 C3852 1.363 . S
C3853 C3856 1.363 . S
N3854 C3856 1.356 . S
N3854 H3866 0.984 . S
N3854 H3867 0.985 . S
N3855 C3857 1.356 . S
N3855 H3860 0.984 . S
N3855 H3861 0.985 . S
C3856 C3850 1.379 . S
C3856 C3853 1.363 . S
C3856 N3854 1.356 . S
C3857 C3851 1.363 . S
C3857 C3852 1.379 . S
C3857 N3855 1.356 . S
N3858 C3850 1.356 . S
N3858 H3864 0.984 . S
N3858 H3865 0.984 . S
N3859 C3852 1.356 . S
N3859 H3862 0.984 . S
N3859 H3863 0.985 . S
H3860 N3855 0.984 . S
H3861 N3855 0.985 . S
H3862 N3859 0.984 . S
H3863 N3859 0.985 . S
H3864 N3858 0.984 . S
H3865 N3858 0.984 . S
H3866 N3854 0.984 . S
H3867 N3854 0.985 . S
C3868 C3869 1.363 . S
C3868 C3874 1.379 . S
C3868 N3876 1.356 . S
C3869 C3868 1.363 . S
C3869 C3875 1.363 . S
C3870 C3871 1.363 . S
C3870 C3875 1.379 . S
C3870 N3877 1.356 . S
C3871 C3870 1.363 . S
C3871 C3874 1.363 . S
N3872 C3874 1.356 . S
N3872 H3884 0.984 . S
N3872 H3885 0.985 . S
N3873 C3875 1.356 . S
N3873 H3878 0.984 . S
N3873 H3879 0.985 . S
C3874 C3868 1.379 . S
C3874 C3871 1.363 . S
C3874 N3872 1.356 . S
C3875 C3869 1.363 . S
C3875 C3870 1.379 . S
C3875 N3873 1.356 . S
N3876 C3868 1.356 . S
N3876 H3882 0.984 . S
N3876 H3883 0.984 . S
N3877 C3870 1.356 . S
N3877 H3880 0.984 . S
N3877 H3881 0.985 . S
H3878 N3873 0.984 . S
H3879 N3873 0.985 . S
H3880 N3877 0.984 . S
H3881 N3877 0.985 . S
H3882 N3876 0.984 . S
H3883 N3876 0.984 . S
H3884 N3872 0.984 . S
H3885 N3872 0.985 . S
C3886 C3887 1.363 . S
C3886 C3892 1.379 . S
C3886 N3894 1.356 . S
C3887 C3886 1.363 . S
C3887 C3893 1.363 . S
C3888 C3889 1.363 . S
C3888 C3893 1.379 . S
C3888 N3895 1.356 . S
C3889 C3888 1.363 . S
C3889 C3892 1.363 . S
N3890 C3892 1.356 . S
N3890 H3902 0.984 . S
N3890 H3903 0.985 . S
N3891 C3893 1.356 . S
N3891 H3896 0.984 . S
N3891 H3897 0.985 . S
C3892 C3886 1.379 . S
C3892 C3889 1.363 . S
C3892 N3890 1.356 . S
C3893 C3887 1.363 . S
C3893 C3888 1.379 . S
C3893 N3891 1.356 . S
N3894 C3886 1.356 . S
N3894 H3900 0.984 . S
N3894 H3901 0.984 . S
N3895 C3888 1.356 . S
N3895 H3898 0.984 . S
N3895 H3899 0.985 . S
H3896 N3891 0.984 . S
H3897 N3891 0.985 . S
H3898 N3895 0.984 . S
H3899 N3895 0.985 . S
H3900 N3894 0.984 . S
H3901 N3894 0.984 . S
H3902 N3890 0.984 . S
H3903 N3890 0.985 . S
C3904 C3905 1.363 . S
C3904 C3910 1.379 . S
C3904 N3912 1.356 . S
C3905 C3904 1.363 . S
C3905 C3911 1.363 . S
C3906 C3907 1.363 . S
C3906 C3911 1.379 . S
C3906 N3913 1.356 . S
C3907 C3906 1.363 . S
C3907 C3910 1.363 . S
N3908 C3910 1.356 . S
N3908 H3920 0.984 . S
N3908 H3921 0.985 . S
N3909 C3911 1.356 . S
N3909 H3914 0.984 . S
N3909 H3915 0.985 . S
C3910 C3904 1.379 . S
C3910 C3907 1.363 . S
C3910 N3908 1.356 . S
C3911 C3905 1.363 . S
C3911 C3906 1.379 . S
C3911 N3909 1.356 . S
N3912 C3904 1.356 . S
N3912 H3918 0.984 . S
N3912 H3919 0.984 . S
N3913 C3906 1.356 . S
N3913 H3916 0.984 . S
N3913 H3917 0.985 . S
H3914 N3909 0.984 . S
H3915 N3909 0.985 . S
H3916 N3913 0.984 . S
H3917 N3913 0.985 . S
H3918 N3912 0.984 . S
H3919 N3912 0.984 . S
H3920 N3908 0.984 . S
H3921 N3908 0.985 . S
C3922 C3923 1.363 . S
C3922 C3928 1.379 . S
C3922 N3930 1.356 . S
C3923 C3922 1.363 . S
C3923 C3929 1.363 . S
C3924 C3925 1.363 . S
C3924 C3929 1.379 . S
C3924 N3931 1.356 . S
C3925 C3924 1.363 . S
C3925 C3928 1.363 . S
N3926 C3928 1.356 . S
N3926 H3938 0.984 . S
N3926 H3939 0.985 . S
N3927 C3929 1.356 . S
N3927 H3932 0.984 . S
N3927 H3933 0.985 . S
C3928 C3922 1.379 . S
C3928 C3925 1.363 . S
C3928 N3926 1.356 . S
C3929 C3923 1.363 . S
C3929 C3924 1.379 . S
C3929 N3927 1.356 . S
N3930 C3922 1.356 . S
N3930 H3936 0.984 . S
N3930 H3937 0.984 . S
N3931 C3924 1.356 . S
N3931 H3934 0.984 . S
N3931 H3935 0.985 . S
H3932 N3927 0.984 . S
H3933 N3927 0.985 . S
H3934 N3931 0.984 . S
H3935 N3931 0.985 . S
H3936 N3930 0.984 . S
H3937 N3930 0.984 . S
H3938 N3926 0.984 . S
H3939 N3926 0.985 . S
C3940 C3941 1.363 . S
C3940 C3946 1.379 . S
C3940 N3948 1.356 . S
C3941 C3940 1.363 . S
C3941 C3947 1.363 . S
C3942 C3943 1.363 . S
C3942 C3947 1.379 . S
C3942 N3949 1.356 . S
C3943 C3942 1.363 . S
C3943 C3946 1.363 . S
N3944 C3946 1.356 . S
N3944 H3956 0.984 . S
N3944 H3957 0.985 . S
N3945 C3947 1.356 . S
N3945 H3950 0.984 . S
N3945 H3951 0.985 . S
C3946 C3940 1.379 . S
C3946 C3943 1.363 . S
C3946 N3944 1.356 . S
C3947 C3941 1.363 . S
C3947 C3942 1.379 . S
C3947 N3945 1.356 . S
N3948 C3940 1.356 . S
N3948 H3954 0.984 . S
N3948 H3955 0.984 . S
N3949 C3942 1.356 . S
N3949 H3952 0.984 . S
N3949 H3953 0.985 . S
H3950 N3945 0.984 . S
H3951 N3945 0.985 . S
H3952 N3949 0.984 . S
H3953 N3949 0.985 . S
H3954 N3948 0.984 . S
H3955 N3948 0.984 . S
H3956 N3944 0.984 . S
H3957 N3944 0.985 . S
C3958 C3959 1.363 1_565 S
C3958 C3964 1.379 1_565 S
C3958 N3966 1.356 . S
C3959 C3958 1.363 1_545 S
C3959 C3965 1.363 . S
C3960 C3961 1.363 . S
C3960 C3965 1.379 . S
C3960 N3967 1.356 . S
C3961 C3960 1.363 . S
C3961 C3964 1.363 . S
N3962 C3964 1.356 . S
N3962 H3974 0.984 1_545 S
N3962 H3975 0.985 . S
N3963 C3965 1.356 1_556 S
N3963 H3968 0.984 . S
N3963 H3969 0.985 . S
C3964 C3958 1.379 1_545 S
C3964 C3961 1.363 . S
C3964 N3962 1.356 . S
C3965 C3959 1.363 . S
C3965 C3960 1.379 . S
C3965 N3963 1.356 1_554 S
N3966 C3958 1.356 . S
N3966 H3972 0.984 . S
N3966 H3973 0.984 . S
N3967 C3960 1.356 . S
N3967 H3970 0.984 . S
N3967 H3971 0.985 1_554 S
H3968 N3963 0.984 . S
H3969 N3963 0.985 . S
H3970 N3967 0.984 . S
H3971 N3967 0.985 1_556 S
H3972 N3966 0.984 . S
H3973 N3966 0.984 . S
H3974 N3962 0.984 1_565 S
H3975 N3962 0.985 . S
C3976 C3977 1.363 . S
C3976 C3982 1.379 . S
C3976 N3984 1.356 . S
C3977 C3976 1.363 . S
C3977 C3983 1.363 . S
C3978 C3979 1.363 . S
C3978 C3983 1.379 . S
C3978 N3985 1.356 . S
C3979 C3978 1.363 . S
C3979 C3982 1.363 . S
N3980 C3982 1.356 . S
N3980 H3992 0.984 . S
N3980 H3993 0.985 . S
N3981 C3983 1.356 . S
N3981 H3986 0.984 . S
N3981 H3987 0.985 . S
C3982 C3976 1.379 . S
C3982 C3979 1.363 . S
C3982 N3980 1.356 . S
C3983 C3977 1.363 . S
C3983 C3978 1.379 . S
C3983 N3981 1.356 . S
N3984 C3976 1.356 . S
N3984 H3990 0.984 . S
N3984 H3991 0.984 . S
N3985 C3978 1.356 . S
N3985 H3988 0.984 . S
N3985 H3989 0.985 . S
H3986 N3981 0.984 . S
H3987 N3981 0.985 . S
H3988 N3985 0.984 . S
H3989 N3985 0.985 . S
H3990 N3984 0.984 . S
H3991 N3984 0.984 . S
H3992 N3980 0.984 . S
H3993 N3980 0.985 . S
C3994 C3995 1.363 . S
C3994 C4000 1.379 . S
C3994 N4002 1.356 . S
C3995 C3994 1.363 . S
C3995 C4001 1.363 . S
C3996 C3997 1.363 . S
C3996 C4001 1.379 . S
C3996 N4003 1.356 . S
C3997 C3996 1.363 . S
C3997 C4000 1.363 . S
N3998 C4000 1.356 . S
N3998 H4010 0.984 . S
N3998 H4011 0.985 . S
N3999 C4001 1.356 . S
N3999 H4004 0.984 . S
N3999 H4005 0.985 1_554 S
C4000 C3994 1.379 . S
C4000 C3997 1.363 . S
C4000 N3998 1.356 . S
C4001 C3995 1.363 . S
C4001 C3996 1.379 . S
C4001 N3999 1.356 . S
N4002 C3994 1.356 . S
N4002 H4008 0.984 . S
N4002 H4009 0.984 . S
N4003 C3996 1.356 . S
N4003 H4006 0.984 . S
N4003 H4007 0.985 . S
H4004 N3999 0.984 . S
H4005 N3999 0.985 1_556 S
H4006 N4003 0.984 . S
H4007 N4003 0.985 . S
H4008 N4002 0.984 . S
H4009 N4002 0.984 . S
H4010 N3998 0.984 . S
H4011 N3998 0.985 . S
C4012 C4013 1.363 . S
C4012 C4018 1.379 . S
C4012 N4020 1.356 . S
C4013 C4012 1.363 . S
C4013 C4019 1.363 . S
C4014 C4015 1.363 . S
C4014 C4019 1.379 . S
C4014 N4021 1.356 . S
C4015 C4014 1.363 . S
C4015 C4018 1.363 . S
N4016 C4018 1.356 . S
N4016 H4028 0.984 . S
N4016 H4029 0.985 . S
N4017 C4019 1.356 . S
N4017 H4022 0.984 . S
N4017 H4023 0.985 . S
C4018 C4012 1.379 . S
C4018 C4015 1.363 . S
C4018 N4016 1.356 . S
C4019 C4013 1.363 . S
C4019 C4014 1.379 . S
C4019 N4017 1.356 . S
N4020 C4012 1.356 . S
N4020 H4026 0.984 . S
N4020 H4027 0.984 . S
N4021 C4014 1.356 . S
N4021 H4024 0.984 . S
N4021 H4025 0.985 . S
H4022 N4017 0.984 . S
H4023 N4017 0.985 . S
H4024 N4021 0.984 . S
H4025 N4021 0.985 . S
H4026 N4020 0.984 . S
H4027 N4020 0.984 . S
H4028 N4016 0.984 . S
H4029 N4016 0.985 . S
C4030 C4031 1.363 . S
C4030 C4036 1.379 . S
C4030 N4038 1.356 . S
C4031 C4030 1.363 . S
C4031 C4037 1.363 . S
C4032 C4033 1.363 . S
C4032 C4037 1.379 . S
C4032 N4039 1.356 . S
C4033 C4032 1.363 . S
C4033 C4036 1.363 . S
N4034 C4036 1.356 . S
N4034 H4046 0.984 . S
N4034 H4047 0.985 . S
N4035 C4037 1.356 . S
N4035 H4040 0.984 . S
N4035 H4041 0.985 . S
C4036 C4030 1.379 . S
C4036 C4033 1.363 . S
C4036 N4034 1.356 . S
C4037 C4031 1.363 . S
C4037 C4032 1.379 . S
C4037 N4035 1.356 . S
N4038 C4030 1.356 . S
N4038 H4044 0.984 . S
N4038 H4045 0.984 . S
N4039 C4032 1.356 . S
N4039 H4042 0.984 . S
N4039 H4043 0.985 . S
H4040 N4035 0.984 . S
H4041 N4035 0.985 . S
H4042 N4039 0.984 . S
H4043 N4039 0.985 . S
H4044 N4038 0.984 . S
H4045 N4038 0.984 . S
H4046 N4034 0.984 . S
H4047 N4034 0.985 . S
C4048 C4049 1.363 . S
C4048 C4054 1.379 . S
C4048 N4056 1.356 . S
C4049 C4048 1.363 . S
C4049 C4055 1.363 . S
C4050 C4051 1.363 . S
C4050 C4055 1.379 . S
C4050 N4057 1.356 . S
C4051 C4050 1.363 . S
C4051 C4054 1.363 . S
N4052 C4054 1.356 . S
N4052 H4064 0.984 . S
N4052 H4065 0.985 . S
N4053 C4055 1.356 . S
N4053 H4058 0.984 . S
N4053 H4059 0.985 . S
C4054 C4048 1.379 . S
C4054 C4051 1.363 . S
C4054 N4052 1.356 . S
C4055 C4049 1.363 . S
C4055 C4050 1.379 . S
C4055 N4053 1.356 . S
N4056 C4048 1.356 . S
N4056 H4062 0.984 . S
N4056 H4063 0.984 . S
N4057 C4050 1.356 . S
N4057 H4060 0.984 . S
N4057 H4061 0.985 . S
H4058 N4053 0.984 . S
H4059 N4053 0.985 . S
H4060 N4057 0.984 . S
H4061 N4057 0.985 . S
H4062 N4056 0.984 . S
H4063 N4056 0.984 . S
H4064 N4052 0.984 . S
H4065 N4052 0.985 . S
C4066 C4067 1.363 . S
C4066 C4072 1.379 . S
C4066 N4074 1.356 . S
C4067 C4066 1.363 . S
C4067 C4073 1.363 . S
C4068 C4069 1.363 . S
C4068 C4073 1.379 . S
C4068 N4075 1.356 . S
C4069 C4068 1.363 . S
C4069 C4072 1.363 . S
N4070 C4072 1.356 . S
N4070 H4082 0.984 . S
N4070 H4083 0.985 . S
N4071 C4073 1.356 . S
N4071 H4076 0.984 . S
N4071 H4077 0.985 . S
C4072 C4066 1.379 . S
C4072 C4069 1.363 . S
C4072 N4070 1.356 . S
C4073 C4067 1.363 . S
C4073 C4068 1.379 . S
C4073 N4071 1.356 . S
N4074 C4066 1.356 . S
N4074 H4080 0.984 . S
N4074 H4081 0.984 . S
N4075 C4068 1.356 . S
N4075 H4078 0.984 . S
N4075 H4079 0.985 . S
H4076 N4071 0.984 . S
H4077 N4071 0.985 . S
H4078 N4075 0.984 . S
H4079 N4075 0.985 . S
H4080 N4074 0.984 . S
H4081 N4074 0.984 . S
H4082 N4070 0.984 . S
H4083 N4070 0.985 . S
C4084 C4085 1.363 . S
C4084 C4090 1.379 . S
C4084 N4092 1.356 . S
C4085 C4084 1.363 . S
C4085 C4091 1.363 . S
C4086 C4087 1.363 . S
C4086 C4091 1.379 . S
C4086 N4093 1.356 . S
C4087 C4086 1.363 . S
C4087 C4090 1.363 . S
N4088 C4090 1.356 . S
N4088 H4100 0.984 . S
N4088 H4101 0.985 . S
N4089 C4091 1.356 1_556 S
N4089 H4094 0.984 . S
N4089 H4095 0.984 1_455 S
C4090 C4084 1.379 . S
C4090 C4087 1.363 . S
C4090 N4088 1.356 . S
C4091 C4085 1.363 . S
C4091 C4086 1.379 . S
C4091 N4089 1.356 1_554 S
N4092 C4084 1.356 . S
N4092 H4098 0.984 . S
N4092 H4099 0.984 . S
N4093 C4086 1.356 . S
N4093 H4096 0.984 . S
N4093 H4097 0.995 1_554 S
H4094 N4089 0.984 . S
H4095 N4089 0.984 1_655 S
H4096 N4093 0.984 . S
H4097 N4093 0.995 1_556 S
H4098 N4092 0.984 . S
H4099 N4092 0.984 . S
H4100 N4088 0.984 . S
H4101 N4088 0.985 . S
C4102 C4103 1.363 . S
C4102 C4108 1.379 . S
C4102 N4110 1.356 . S
C4103 C4102 1.363 . S
C4103 C4109 1.363 . S
C4104 C4105 1.363 . S
C4104 C4109 1.379 . S
C4104 N4111 1.356 . S
C4105 C4104 1.363 . S
C4105 C4108 1.363 . S
N4106 C4108 1.356 . S
N4106 H4118 0.984 . S
N4106 H4119 0.985 . S
N4107 C4109 1.356 . S
N4107 H4112 0.984 . S
N4107 H4113 0.985 . S
C4108 C4102 1.379 . S
C4108 C4105 1.363 . S
C4108 N4106 1.356 . S
C4109 C4103 1.363 . S
C4109 C4104 1.379 . S
C4109 N4107 1.356 . S
N4110 C4102 1.356 . S
N4110 H4116 0.984 . S
N4110 H4117 0.984 . S
N4111 C4104 1.356 . S
N4111 H4114 0.984 . S
N4111 H4115 0.985 . S
H4112 N4107 0.984 . S
H4113 N4107 0.985 . S
H4114 N4111 0.984 . S
H4115 N4111 0.985 . S
H4116 N4110 0.984 . S
H4117 N4110 0.984 . S
H4118 N4106 0.984 . S
H4119 N4106 0.985 . S
C4120 C4121 1.363 . S
C4120 C4126 1.379 . S
C4120 N4128 1.356 . S
C4121 C4120 1.363 . S
C4121 C4127 1.363 . S
C4122 C4123 1.363 . S
C4122 C4127 1.379 . S
C4122 N4129 1.356 . S
C4123 C4122 1.363 . S
C4123 C4126 1.363 . S
N4124 C4126 1.356 . S
N4124 H4136 0.976 1_556 S
N4124 H4137 0.985 . S
N4125 C4127 1.356 . S
N4125 H4130 0.984 . S
N4125 H4131 0.985 . S
C4126 C4120 1.379 . S
C4126 C4123 1.363 . S
C4126 N4124 1.356 . S
C4127 C4121 1.363 . S
C4127 C4122 1.379 . S
C4127 N4125 1.356 . S
N4128 C4120 1.356 . S
N4128 H4134 0.984 . S
N4128 H4135 0.984 . S
N4129 C4122 1.356 . S
N4129 H4132 0.984 . S
N4129 H4133 0.985 . S
H4130 N4125 0.984 . S
H4131 N4125 0.985 . S
H4132 N4129 0.984 . S
H4133 N4129 0.985 . S
H4134 N4128 0.984 . S
H4135 N4128 0.984 . S
H4136 N4124 0.976 1_554 S
H4137 N4124 0.985 . S
C4138 C4139 1.363 . S
C4138 C4144 1.379 . S
C4138 N4146 1.356 . S
C4139 C4138 1.363 . S
C4139 C4145 1.363 . S
C4140 C4141 1.363 . S
C4140 C4145 1.379 . S
C4140 N4147 1.356 . S
C4141 C4140 1.363 . S
C4141 C4144 1.363 . S
N4142 C4144 1.356 . S
N4142 H4154 0.984 . S
N4142 H4155 0.985 . S
N4143 C4145 1.356 . S
N4143 H4148 0.984 . S
N4143 H4149 0.985 . S
C4144 C4138 1.379 . S
C4144 C4141 1.363 . S
C4144 N4142 1.356 . S
C4145 C4139 1.363 . S
C4145 C4140 1.379 . S
C4145 N4143 1.356 . S
N4146 C4138 1.356 . S
N4146 H4152 0.984 . S
N4146 H4153 0.984 . S
N4147 C4140 1.356 . S
N4147 H4150 0.984 . S
N4147 H4151 0.985 . S
H4148 N4143 0.984 . S
H4149 N4143 0.985 . S
H4150 N4147 0.984 . S
H4151 N4147 0.985 . S
H4152 N4146 0.984 . S
H4153 N4146 0.984 . S
H4154 N4142 0.984 . S
H4155 N4142 0.985 . S
C4156 C4157 1.363 . S
C4156 C4162 1.379 . S
C4156 N4164 1.356 . S
C4157 C4156 1.363 . S
C4157 C4163 1.363 . S
C4158 C4159 1.363 . S
C4158 C4163 1.379 . S
C4158 N4165 1.356 . S
C4159 C4158 1.363 . S
C4159 C4162 1.363 . S
N4160 C4162 1.356 . S
N4160 H4172 0.984 . S
N4160 H4173 0.985 . S
N4161 C4163 1.356 . S
N4161 H4166 0.984 . S
N4161 H4167 0.985 . S
C4162 C4156 1.379 . S
C4162 C4159 1.363 . S
C4162 N4160 1.356 . S
C4163 C4157 1.363 . S
C4163 C4158 1.379 . S
C4163 N4161 1.356 . S
N4164 C4156 1.356 . S
N4164 H4170 0.984 . S
N4164 H4171 0.984 . S
N4165 C4158 1.356 . S
N4165 H4168 0.984 . S
N4165 H4169 0.985 . S
H4166 N4161 0.984 . S
H4167 N4161 0.985 . S
H4168 N4165 0.984 . S
H4169 N4165 0.985 . S
H4170 N4164 0.984 . S
H4171 N4164 0.984 . S
H4172 N4160 0.984 . S
H4173 N4160 0.985 . S
C4174 C4175 1.363 . S
C4174 C4180 1.379 . S
C4174 N4182 1.356 . S
C4175 C4174 1.363 . S
C4175 C4181 1.363 . S
C4176 C4177 1.363 . S
C4176 C4181 1.379 . S
C4176 N4183 1.356 . S
C4177 C4176 1.363 . S
C4177 C4180 1.363 . S
N4178 C4180 1.356 . S
N4178 H4190 0.984 . S
N4178 H4191 0.985 . S
N4179 C4181 1.356 . S
N4179 H4184 0.984 . S
N4179 H4185 0.985 . S
C4180 C4174 1.379 . S
C4180 C4177 1.363 . S
C4180 N4178 1.356 . S
C4181 C4175 1.363 . S
C4181 C4176 1.379 . S
C4181 N4179 1.356 . S
N4182 C4174 1.356 . S
N4182 H4188 0.984 . S
N4182 H4189 0.984 . S
N4183 C4176 1.356 . S
N4183 H4186 0.984 . S
N4183 H4187 0.985 . S
H4184 N4179 0.984 . S
H4185 N4179 0.985 . S
H4186 N4183 0.984 . S
H4187 N4183 0.985 . S
H4188 N4182 0.984 . S
H4189 N4182 0.984 . S
H4190 N4178 0.984 . S
H4191 N4178 0.985 . S
C4192 C4193 1.363 . S
C4192 C4198 1.379 . S
C4192 N4200 1.356 . S
C4193 C4192 1.363 . S
C4193 C4199 1.363 . S
C4194 C4195 1.363 . S
C4194 C4199 1.379 . S
C4194 N4201 1.356 . S
C4195 C4194 1.363 . S
C4195 C4198 1.363 . S
N4196 C4198 1.356 . S
N4196 H4208 0.984 . S
N4196 H4209 0.985 . S
N4197 C4199 1.356 . S
N4197 H4202 0.984 . S
N4197 H4203 0.985 . S
C4198 C4192 1.379 . S
C4198 C4195 1.363 . S
C4198 N4196 1.356 . S
C4199 C4193 1.363 . S
C4199 C4194 1.379 . S
C4199 N4197 1.356 . S
N4200 C4192 1.356 . S
N4200 H4206 0.984 . S
N4200 H4207 0.984 . S
N4201 C4194 1.356 . S
N4201 H4204 0.984 . S
N4201 H4205 0.985 . S
H4202 N4197 0.984 . S
H4203 N4197 0.985 . S
H4204 N4201 0.984 . S
H4205 N4201 0.985 . S
H4206 N4200 0.984 . S
H4207 N4200 0.984 . S
H4208 N4196 0.984 . S
H4209 N4196 0.985 . S
C4210 C4211 1.363 . S
C4210 C4216 1.379 . S
C4210 N4218 1.356 . S
C4211 C4210 1.363 . S
C4211 C4217 1.363 . S
C4212 C4213 1.363 . S
C4212 C4217 1.379 . S
C4212 N4219 1.356 . S
C4213 C4212 1.363 . S
C4213 C4216 1.363 . S
N4214 C4216 1.356 . S
N4214 H4226 0.984 . S
N4214 H4227 0.985 . S
N4215 C4217 1.356 . S
N4215 H4220 0.984 . S
N4215 H4221 0.985 . S
C4216 C4210 1.379 . S
C4216 C4213 1.363 . S
C4216 N4214 1.356 . S
C4217 C4211 1.363 . S
C4217 C4212 1.379 . S
C4217 N4215 1.356 . S
N4218 C4210 1.356 . S
N4218 H4224 0.984 . S
N4218 H4225 0.984 . S
N4219 C4212 1.356 . S
N4219 H4222 0.984 . S
N4219 H4223 0.985 . S
H4220 N4215 0.984 . S
H4221 N4215 0.985 . S
H4222 N4219 0.984 . S
H4223 N4219 0.985 . S
H4224 N4218 0.984 . S
H4225 N4218 0.984 . S
H4226 N4214 0.984 . S
H4227 N4214 0.985 . S
C4228 C4229 1.363 . S
C4228 C4234 1.379 . S
C4228 N4236 1.356 . S
C4229 C4228 1.363 . S
C4229 C4235 1.363 . S
C4230 C4231 1.359 1_455 S
C4230 C4235 1.379 1_455 S
C4230 N4237 1.356 . S
C4231 C4230 1.359 1_655 S
C4231 C4234 1.389 . S
N4232 C4234 1.356 . S
N4232 H4244 0.984 . S
N4232 H4245 0.985 1_556 S
N4233 C4235 1.356 . S
N4233 H4238 0.984 . S
N4233 H4239 0.985 . S
C4234 C4228 1.379 . S
C4234 C4231 1.389 . S
C4234 N4232 1.356 . S
C4235 C4229 1.363 . S
C4235 C4230 1.379 1_655 S
C4235 N4233 1.356 . S
N4236 C4228 1.356 . S
N4236 H4242 0.984 . S
N4236 H4243 0.984 . S
N4237 C4230 1.356 . S
N4237 H4240 0.984 . S
N4237 H4241 0.985 . S
H4238 N4233 0.984 . S
H4239 N4233 0.985 . S
H4240 N4237 0.984 . S
H4241 N4237 0.985 . S
H4242 N4236 0.984 . S
H4243 N4236 0.984 . S
H4244 N4232 0.984 . S
H4245 N4232 0.985 1_554 S
C4246 C4247 1.363 . S
C4246 C4252 1.379 . S
C4246 N4254 1.356 . S
C4247 C4246 1.363 . S
C4247 C4253 1.363 . S
C4248 C4249 1.363 . S
C4248 C4253 1.379 . S
C4248 N4255 1.356 . S
C4249 C4248 1.363 . S
C4249 C4252 1.363 . S
N4250 C4252 1.356 . S
N4250 H4262 0.984 . S
N4250 H4263 0.985 . S
N4251 C4253 1.356 . S
N4251 H4256 0.984 . S
N4251 H4257 0.985 . S
C4252 C4246 1.379 . S
C4252 C4249 1.363 . S
C4252 N4250 1.356 . S
C4253 C4247 1.363 . S
C4253 C4248 1.379 . S
C4253 N4251 1.356 . S
N4254 C4246 1.356 . S
N4254 H4260 0.984 . S
N4254 H4261 0.984 . S
N4255 C4248 1.356 . S
N4255 H4258 0.984 . S
N4255 H4259 0.985 . S
H4256 N4251 0.984 . S
H4257 N4251 0.985 . S
H4258 N4255 0.984 . S
H4259 N4255 0.985 . S
H4260 N4254 0.984 . S
H4261 N4254 0.984 . S
H4262 N4250 0.984 . S
H4263 N4250 0.985 . S
C4264 C4265 1.363 . S
C4264 C4270 1.379 . S
C4264 N4272 1.356 . S
C4265 C4264 1.363 . S
C4265 C4271 1.363 . S
C4266 C4267 1.363 . S
C4266 C4271 1.379 . S
C4266 N4273 1.356 . S
C4267 C4266 1.363 . S
C4267 C4270 1.363 . S
N4268 C4270 1.356 . S
N4268 H4280 0.984 . S
N4268 H4281 0.985 . S
N4269 C4271 1.356 . S
N4269 H4274 0.984 . S
N4269 H4275 0.985 . S
C4270 C4264 1.379 . S
C4270 C4267 1.363 . S
C4270 N4268 1.356 . S
C4271 C4265 1.363 . S
C4271 C4266 1.379 . S
C4271 N4269 1.356 . S
N4272 C4264 1.356 . S
N4272 H4278 0.984 . S
N4272 H4279 0.984 . S
N4273 C4266 1.356 . S
N4273 H4276 0.984 . S
N4273 H4277 0.985 . S
H4274 N4269 0.984 . S
H4275 N4269 0.985 . S
H4276 N4273 0.984 . S
H4277 N4273 0.985 . S
H4278 N4272 0.984 . S
H4279 N4272 0.984 . S
H4280 N4268 0.984 . S
H4281 N4268 0.985 . S
C4282 C4283 1.363 . S
C4282 C4288 1.379 . S
C4282 N4290 1.356 . S
C4283 C4282 1.363 . S
C4283 C4289 1.363 . S
C4284 C4285 1.363 . S
C4284 C4289 1.379 . S
C4284 N4291 1.356 . S
C4285 C4284 1.363 . S
C4285 C4288 1.363 . S
N4286 C4288 1.356 . S
N4286 H4298 0.984 . S
N4286 H4299 0.985 . S
N4287 C4289 1.356 . S
N4287 H4292 0.984 . S
N4287 H4293 0.985 . S
C4288 C4282 1.379 . S
C4288 C4285 1.363 . S
C4288 N4286 1.356 . S
C4289 C4283 1.363 . S
C4289 C4284 1.379 . S
C4289 N4287 1.356 . S
N4290 C4282 1.356 . S
N4290 H4296 0.984 . S
N4290 H4297 0.984 . S
N4291 C4284 1.356 . S
N4291 H4294 0.984 . S
N4291 H4295 0.985 . S
H4292 N4287 0.984 . S
H4293 N4287 0.985 . S
H4294 N4291 0.984 . S
H4295 N4291 0.985 . S
H4296 N4290 0.984 . S
H4297 N4290 0.984 . S
H4298 N4286 0.984 . S
H4299 N4286 0.985 . S
C4300 C4301 1.363 . S
C4300 C4306 1.379 . S
C4300 N4308 1.356 . S
C4301 C4300 1.363 . S
C4301 C4307 1.363 . S
C4302 C4303 1.363 . S
C4302 C4307 1.379 . S
C4302 N4309 1.356 . S
C4303 C4302 1.363 . S
C4303 C4306 1.363 . S
N4304 C4306 1.356 . S
N4304 H4316 0.984 . S
N4304 H4317 0.985 . S
N4305 C4307 1.356 . S
N4305 H4310 0.984 . S
N4305 H4311 0.985 . S
C4306 C4300 1.379 . S
C4306 C4303 1.363 . S
C4306 N4304 1.356 . S
C4307 C4301 1.363 . S
C4307 C4302 1.379 . S
C4307 N4305 1.356 . S
N4308 C4300 1.356 . S
N4308 H4314 0.984 . S
N4308 H4315 0.984 . S
N4309 C4302 1.356 . S
N4309 H4312 0.984 . S
N4309 H4313 0.985 . S
H4310 N4305 0.984 . S
H4311 N4305 0.985 . S
H4312 N4309 0.984 . S
H4313 N4309 0.985 . S
H4314 N4308 0.984 . S
H4315 N4308 0.984 . S
H4316 N4304 0.984 . S
H4317 N4304 0.985 . S
C4318 C4319 1.363 . S
C4318 C4324 1.379 . S
C4318 N4326 1.356 . S
C4319 C4318 1.363 . S
C4319 C4325 1.363 . S
C4320 C4321 1.363 . S
C4320 C4325 1.379 . S
C4320 N4327 1.356 . S
C4321 C4320 1.363 . S
C4321 C4324 1.363 . S
N4322 C4324 1.356 . S
N4322 H4334 0.984 . S
N4322 H4335 0.985 . S
N4323 C4325 1.356 . S
N4323 H4328 0.984 . S
N4323 H4329 0.985 . S
C4324 C4318 1.379 . S
C4324 C4321 1.363 . S
C4324 N4322 1.356 . S
C4325 C4319 1.363 . S
C4325 C4320 1.379 . S
C4325 N4323 1.356 . S
N4326 C4318 1.356 . S
N4326 H4332 0.984 . S
N4326 H4333 0.984 . S
N4327 C4320 1.356 . S
N4327 H4330 0.984 . S
N4327 H4331 0.985 . S
H4328 N4323 0.984 . S
H4329 N4323 0.985 . S
H4330 N4327 0.984 . S
H4331 N4327 0.985 . S
H4332 N4326 0.984 . S
H4333 N4326 0.984 . S
H4334 N4322 0.984 . S
H4335 N4322 0.985 . S
C4336 C4337 1.363 . S
C4336 C4342 1.379 . S
C4336 N4344 1.356 . S
C4337 C4336 1.363 . S
C4337 C4343 1.363 . S
C4338 C4339 1.363 . S
C4338 C4343 1.379 . S
C4338 N4345 1.356 . S
C4339 C4338 1.363 . S
C4339 C4342 1.363 . S
N4340 C4342 1.356 . S
N4340 H4352 0.984 . S
N4340 H4353 0.985 . S
N4341 C4343 1.356 . S
N4341 H4346 0.984 . S
N4341 H4347 0.985 . S
C4342 C4336 1.379 . S
C4342 C4339 1.363 . S
C4342 N4340 1.356 . S
C4343 C4337 1.363 . S
C4343 C4338 1.379 . S
C4343 N4341 1.356 . S
N4344 C4336 1.356 . S
N4344 H4350 0.984 . S
N4344 H4351 0.984 . S
N4345 C4338 1.356 . S
N4345 H4348 0.984 . S
N4345 H4349 0.985 . S
H4346 N4341 0.984 . S
H4347 N4341 0.985 . S
H4348 N4345 0.984 . S
H4349 N4345 0.985 . S
H4350 N4344 0.984 . S
H4351 N4344 0.984 . S
H4352 N4340 0.984 . S
H4353 N4340 0.985 . S
C4354 C4355 1.363 . S
C4354 C4360 1.379 1_565 S
C4354 N4362 1.356 . S
C4355 C4354 1.363 . S
C4355 C4361 1.363 . S
C4356 C4357 1.363 1_565 S
C4356 C4361 1.379 . S
C4356 N4363 1.356 . S
C4357 C4356 1.363 1_545 S
C4357 C4360 1.363 . S
N4358 C4360 1.356 . S
N4358 H4370 0.984 . S
N4358 H4371 0.985 . S
N4359 C4361 1.356 . S
N4359 H4364 0.984 . S
N4359 H4365 0.985 . S
C4360 C4354 1.379 1_545 S
C4360 C4357 1.363 . S
C4360 N4358 1.356 . S
C4361 C4355 1.363 . S
C4361 C4356 1.379 . S
C4361 N4359 1.356 . S
N4362 C4354 1.356 . S
N4362 H4368 0.984 1_565 S
N4362 H4369 0.984 . S
N4363 C4356 1.356 . S
N4363 H4366 0.987 . S
N4363 H4367 0.985 . S
H4364 N4359 0.984 . S
H4365 N4359 0.985 . S
H4366 N4363 0.987 . S
H4367 N4363 0.985 . S
H4368 N4362 0.984 1_545 S
H4369 N4362 0.984 . S
H4370 N4358 0.984 . S
H4371 N4358 0.985 . S
C4372 C4373 1.363 . S
C4372 C4378 1.379 . S
C4372 N4380 1.356 . S
C4373 C4372 1.363 . S
C4373 C4379 1.363 . S
C4374 C4375 1.363 . S
C4374 C4379 1.379 . S
C4374 N4381 1.356 . S
C4375 C4374 1.363 . S
C4375 C4378 1.363 . S
N4376 C4378 1.356 . S
N4376 H4388 0.984 . S
N4376 H4389 0.985 . S
N4377 C4379 1.356 . S
N4377 H4382 0.984 . S
N4377 H4383 0.985 . S
C4378 C4372 1.379 . S
C4378 C4375 1.363 . S
C4378 N4376 1.356 . S
C4379 C4373 1.363 . S
C4379 C4374 1.379 . S
C4379 N4377 1.356 . S
N4380 C4372 1.356 . S
N4380 H4386 0.984 . S
N4380 H4387 0.984 . S
N4381 C4374 1.356 . S
N4381 H4384 0.984 . S
N4381 H4385 0.985 . S
H4382 N4377 0.984 . S
H4383 N4377 0.985 . S
H4384 N4381 0.984 . S
H4385 N4381 0.985 . S
H4386 N4380 0.984 . S
H4387 N4380 0.984 . S
H4388 N4376 0.984 . S
H4389 N4376 0.985 . S
C4390 C4391 1.363 . S
C4390 C4396 1.379 . S
C4390 N4398 1.356 . S
C4391 C4390 1.363 . S
C4391 C4397 1.363 . S
C4392 C4393 1.363 . S
C4392 C4397 1.379 . S
C4392 N4399 1.356 . S
C4393 C4392 1.363 . S
C4393 C4396 1.363 . S
N4394 C4396 1.356 . S
N4394 H4406 0.984 . S
N4394 H4407 0.985 . S
N4395 C4397 1.356 . S
N4395 H4400 0.984 . S
N4395 H4401 0.985 . S
C4396 C4390 1.379 . S
C4396 C4393 1.363 . S
C4396 N4394 1.356 . S
C4397 C4391 1.363 . S
C4397 C4392 1.379 . S
C4397 N4395 1.356 . S
N4398 C4390 1.356 . S
N4398 H4404 0.984 . S
N4398 H4405 0.984 . S
N4399 C4392 1.356 . S
N4399 H4402 0.984 . S
N4399 H4403 0.985 1_554 S
H4400 N4395 0.984 . S
H4401 N4395 0.985 . S
H4402 N4399 0.984 . S
H4403 N4399 0.985 1_556 S
H4404 N4398 0.984 . S
H4405 N4398 0.984 . S
H4406 N4394 0.984 . S
H4407 N4394 0.985 . S
C4408 C4409 1.363 . S
C4408 C4414 1.379 . S
C4408 N4416 1.356 . S
C4409 C4408 1.363 . S
C4409 C4415 1.363 . S
C4410 C4411 1.363 . S
C4410 C4415 1.379 . S
C4410 N4417 1.356 . S
C4411 C4410 1.363 . S
C4411 C4414 1.363 . S
N4412 C4414 1.356 . S
N4412 H4424 0.984 . S
N4412 H4425 0.985 . S
N4413 C4415 1.356 . S
N4413 H4418 0.984 . S
N4413 H4419 0.985 . S
C4414 C4408 1.379 . S
C4414 C4411 1.363 . S
C4414 N4412 1.356 . S
C4415 C4409 1.363 . S
C4415 C4410 1.379 . S
C4415 N4413 1.356 . S
N4416 C4408 1.356 . S
N4416 H4422 0.984 . S
N4416 H4423 0.984 . S
N4417 C4410 1.356 . S
N4417 H4420 0.984 . S
N4417 H4421 0.985 . S
H4418 N4413 0.984 . S
H4419 N4413 0.985 . S
H4420 N4417 0.984 . S
H4421 N4417 0.985 . S
H4422 N4416 0.984 . S
H4423 N4416 0.984 . S
H4424 N4412 0.984 . S
H4425 N4412 0.985 . S
C4426 C4427 1.363 . S
C4426 C4432 1.379 . S
C4426 N4434 1.356 . S
C4427 C4426 1.363 . S
C4427 C4433 1.363 . S
C4428 C4429 1.363 1_556 S
C4428 C4433 1.379 1_556 S
C4428 N4435 1.356 . S
C4429 C4428 1.363 1_554 S
C4429 C4432 1.363 . S
N4430 C4432 1.356 . S
N4430 H4442 0.984 . S
N4430 H4443 0.985 . S
N4431 C4433 1.356 . S
N4431 H4436 0.984 . S
N4431 H4437 0.985 1_554 S
C4432 C4426 1.379 . S
C4432 C4429 1.363 . S
C4432 N4430 1.356 . S
C4433 C4427 1.363 . S
C4433 C4428 1.379 1_554 S
C4433 N4431 1.356 . S
N4434 C4426 1.356 . S
N4434 H4440 0.984 . S
N4434 H4441 0.984 . S
N4435 C4428 1.356 . S
N4435 H4438 0.984 . S
N4435 H4439 0.985 . S
H4436 N4431 0.984 . S
H4437 N4431 0.985 1_556 S
H4438 N4435 0.984 . S
H4439 N4435 0.985 . S
H4440 N4434 0.984 . S
H4441 N4434 0.984 . S
H4442 N4430 0.984 . S
H4443 N4430 0.985 . S
C4444 C4445 1.363 . S
C4444 C4450 1.379 . S
C4444 N4452 1.356 . S
C4445 C4444 1.363 . S
C4445 C4451 1.363 . S
C4446 C4447 1.363 . S
C4446 C4451 1.379 . S
C4446 N4453 1.356 . S
C4447 C4446 1.363 . S
C4447 C4450 1.363 . S
N4448 C4450 1.356 . S
N4448 H4460 0.984 . S
N4448 H4461 0.985 . S
N4449 C4451 1.356 . S
N4449 H4454 0.984 . S
N4449 H4455 0.985 . S
C4450 C4444 1.379 . S
C4450 C4447 1.363 . S
C4450 N4448 1.356 . S
C4451 C4445 1.363 . S
C4451 C4446 1.379 . S
C4451 N4449 1.356 . S
N4452 C4444 1.356 . S
N4452 H4458 0.984 . S
N4452 H4459 0.984 . S
N4453 C4446 1.356 . S
N4453 H4456 0.984 . S
N4453 H4457 0.985 . S
H4454 N4449 0.984 . S
H4455 N4449 0.985 . S
H4456 N4453 0.984 . S
H4457 N4453 0.985 . S
H4458 N4452 0.984 . S
H4459 N4452 0.984 . S
H4460 N4448 0.984 . S
H4461 N4448 0.985 . S
C4462 C4463 1.363 . S
C4462 C4468 1.379 . S
C4462 N4470 1.356 . S
C4463 C4462 1.363 . S
C4463 C4469 1.363 . S
C4464 C4465 1.363 . S
C4464 C4469 1.379 . S
C4464 N4471 1.356 . S
C4465 C4464 1.363 . S
C4465 C4468 1.363 . S
N4466 C4468 1.356 . S
N4466 H4478 0.984 . S
N4466 H4479 0.985 . S
N4467 C4469 1.356 . S
N4467 H4472 0.984 . S
N4467 H4473 0.985 . S
C4468 C4462 1.379 . S
C4468 C4465 1.363 . S
C4468 N4466 1.356 . S
C4469 C4463 1.363 . S
C4469 C4464 1.379 . S
C4469 N4467 1.356 . S
N4470 C4462 1.356 . S
N4470 H4476 0.984 . S
N4470 H4477 0.984 . S
N4471 C4464 1.356 . S
N4471 H4474 0.984 . S
N4471 H4475 0.985 . S
H4472 N4467 0.984 . S
H4473 N4467 0.985 . S
H4474 N4471 0.984 . S
H4475 N4471 0.985 . S
H4476 N4470 0.984 . S
H4477 N4470 0.984 . S
H4478 N4466 0.984 . S
H4479 N4466 0.985 . S
C2753 C665 2.365 1_455 S
C2755 C2125 2.469 . S
C2771 C381 2.075 . S
C2773 C2176 2.103 . S
C2789 C460 1.829 . S
C2791 C2205 1.974 . S
C2809 C2249 1.408 . S
C2807 C585 1.479 . S
C2825 C108 1.358 . S
C2827 C2289 1.296 . S
C2845 C2325 1.877 . S
C2843 C196 1.768 . S
C2863 C2375 1.888 . S
C2861 C313 1.848 . S
C2879 C49 2.447 . S
C2881 C2405 2.529 . S
C2899 C2135 1.976 . S
C2897 C1457 2.011 . S
C2915 C1545 0.529 . S
C2917 C2178 0.584 . S
C2935 C2215 1.194 . S
C2933 C1721 1.206 . S
C2953 C2245 1.702 . S
C2951 C1113 1.600 . S
C2969 C1428 1.619 . S
C2971 C2285 1.712 . S
C2989 C2335 0.850 . S
C2987 C1516 0.853 . S
C3007 C2369 0.851 . S
C3005 C1692 0.875 . S
C3025 C2415 1.983 . S
C3023 C1085 2.016 . S
C3043 C2129 1.274 . S
C3041 C988 1.346 . S
C3059 C1817 1.663 . S
C3061 C2455 1.667 . S
C3079 C2489 1.422 . S
C3077 C2081 1.498 . S
C3097 C2525 0.846 . S
C3095 C1993 0.841 . S
C3113 C761 1.601 . S
C3115 C2409 1.552 . S
C3131 C821 1.582 . S
C3133 C2209 1.493 . S
C3149 C2053 1.590 . S
C3151 C2575 1.594 . S
C3169 C2594 0.492 . S
C3167 C1868 0.565 . S
C3187 C2136 2.463 . S
C3185 C372 2.368 . S
C3205 C2605 2.101 . S
C3203 C645 2.068 . S
C3221 C577 1.825 . S
C3223 C2216 1.968 . S
C3239 C497 1.481 . S
C3241 C2578 1.406 . S
C3259 C2298 1.294 . S
C3257 C57 1.359 . S
C3275 C293 1.765 . S
C3277 C2496 1.871 . S
C3295 C2354 1.888 1_566 S
C3293 C205 1.842 . S
C3313 C2656 2.524 . S
C3311 C145 2.450 . S
C3331 C2114 1.972 . S
C3329 C909 2.009 . S
C3349 C2609 0.586 . S
C3347 C1956 0.529 . S
C3365 C724 1.204 . S
C3367 C2194 1.193 . S
C3383 C1780 1.598 . S
C3385 C2576 1.696 . S
C3401 C937 1.617 . S
C3403 C2296 1.706 . S
C3421 C2474 0.847 . S
C3419 C1985 0.849 . S
C3437 C753 0.874 . S
C3439 C2378 0.847 . S
C3455 C1809 2.014 . S
C3457 C2634 1.979 . S
C3473 C1173 1.354 . S
C3475 C2138 1.273 . S
C3491 C1105 1.659 . S
C3493 C2434 1.666 . S
C3509 C1633 1.502 . S
C3511 C2338 1.422 . S
C3527 C1553 0.837 . S
C3529 C2536 0.841 . S
C3547 C2658 1.555 . S
C3545 C1729 1.607 1_565 S
C3563 C1340 1.587 . S
C3565 C2218 1.492 . S
C3583 C2234 1.593 . S
C3581 C1604 1.585 . S
C3601 C2175 0.487 . S
C3599 C1252 0.561 . S
C3617 C489 2.365 . S
C3619 C2685 2.469 . S
C3637 C2616 2.103 . S
C3635 C557 2.075 . S
C3653 C636 1.829 . S
C3655 C2725 1.974 . S
C3671 C409 1.480 . S
C3673 C2569 1.408 . S
C3689 C284 1.358 . S
C3691 C2449 1.296 . S
C3709 C2485 1.877 . S
C3707 C20 1.769 . S
C3727 C2535 1.889 . S
C3725 C137 1.848 . S
C3745 C2645 2.529 . S
C3743 C225 2.447 . S
C3763 C2695 1.976 . S
C3761 C1641 2.011 . S
C3779 C1193 0.529 . S
C3781 C2618 0.584 . S
C3799 C2735 1.195 . S
C3797 C1289 1.207 . S
C3817 C2565 1.702 . S
C3815 C1377 1.600 . S
C3835 C2445 1.713 . S
C3833 C1613 1.619 . S
C3851 C1164 0.853 . S
C3853 C2495 0.850 . S
C3871 C2529 0.851 . S
C3869 C1261 0.875 . S
C3887 C1349 2.016 . S
C3889 C2655 1.983 . S
C3907 C2689 1.275 . S
C3905 C1965 1.347 . S
C3923 C849 1.663 . S
C3925 C2295 1.667 . S
C3943 C2329 1.422 . S
C3941 C929 1.497 . S
C3961 C2365 0.845 . S
C3959 C1017 0.841 1_545 S
C3979 C2649 1.558 . S
C3977 C1897 1.601 . S
C3995 C1789 1.582 . S
C3997 C2729 1.493 . S
C4015 C2255 1.594 . S
C4013 C900 1.590 . S
C4033 C2154 0.492 . S
C4031 C733 0.567 . S
C4049 C548 2.368 . S
C4051 C2696 2.464 . S
C4069 C2165 2.101 . S
C4067 C469 2.068 . S
C4085 C401 1.825 . S
C4087 C2736 1.968 . S
C4103 C673 1.481 . S
C4105 C2258 1.406 . S
C4121 C233 1.358 . S
C4123 C2458 1.294 . S
C4141 C2336 1.871 . S
C4139 C117 1.765 . S
C4157 C29 1.841 . S
C4159 C2514 1.888 . S
C4175 C321 2.450 . S
C4177 C2416 2.524 . S
C4195 C2674 1.972 . S
C4193 C2044 2.009 . S
C4211 C997 0.528 . S
C4213 C2169 0.580 . S
C4231 C2714 1.169 1_655 S
C4229 C1877 1.205 . S
C4247 C812 1.598 . S
C4249 C2256 1.696 . S
C4265 C2073 1.617 . S
C4267 C2456 1.706 . S
C4285 C2314 0.848 . S
C4283 C1025 0.855 . S
C4301 C1905 0.874 . S
C4303 C2538 0.848 . S
C4321 C2394 1.979 . S
C4319 C841 2.014 . S
C4339 C2698 1.274 . S
C4337 C1525 1.355 . S
C4357 C2274 1.666 . S
C4355 C1369 1.659 . S
C4373 C1465 1.502 . S
C4375 C2498 1.421 . S
C4393 C2376 0.841 . S
C4391 C1201 0.836 . S
C4409 C1281 1.607 . S
C4411 C2418 1.555 . S
C4427 C1076 1.587 . S
C4429 C2738 1.492 . S
C4447 C2554 1.593 . S
C4445 C1437 1.585 . S
C4465 C2615 0.486 . S
C4463 C1701 0.560 . S
