# Generated by pormake.
# Topology pyr, (3,6)-cn, num edge types: 1
# Building blocks:
#     Node 0, Type 0, BuildingBlock: OLANEW_clean_sbu_2, # of connection points: 3
#     Node 1, Type 0, BuildingBlock: OLANEW_clean_sbu_2, # of connection points: 3
#     Node 2, Type 0, BuildingBlock: OLANEW_clean_sbu_2, # of connection points: 3
#     Node 3, Type 0, BuildingBlock: OLANEW_clean_sbu_2, # of connection points: 3
#     Node 4, Type 0, BuildingBlock: OLANEW_clean_sbu_2, # of connection points: 3
#     Node 5, Type 0, BuildingBlock: OLANEW_clean_sbu_2, # of connection points: 3
#     Node 6, Type 0, BuildingBlock: OLANEW_clean_sbu_2, # of connection points: 3
#     Node 7, Type 0, BuildingBlock: OLANEW_clean_sbu_2, # of connection points: 3
#     Node 8, Type 1, BuildingBlock: INOVEN_clean_sbu_0, # of connection points: 6
#     Node 9, Type 1, BuildingBlock: INOVEN_clean_sbu_0, # of connection points: 6
#     Node 10, Type 1, BuildingBlock: INOVEN_clean_sbu_0, # of connection points: 6
#     Node 11, Type 1, BuildingBlock: INOVEN_clean_sbu_0, # of connection points: 6
#     Edge 12, Type (0, 1), BuildingBlock: OJICUG_clean_linker_0, # of connection points: 2
#     Edge 13, Type (0, 1), BuildingBlock: OJICUG_clean_linker_0, # of connection points: 2
#     Edge 14, Type (0, 1), BuildingBlock: OJICUG_clean_linker_0, # of connection points: 2
#     Edge 15, Type (0, 1), BuildingBlock: OJICUG_clean_linker_0, # of connection points: 2
#     Edge 16, Type (0, 1), BuildingBlock: OJICUG_clean_linker_0, # of connection points: 2
#     Edge 17, Type (0, 1), BuildingBlock: OJICUG_clean_linker_0, # of connection points: 2
#     Edge 18, Type (0, 1), BuildingBlock: OJICUG_clean_linker_0, # of connection points: 2
#     Edge 19, Type (0, 1), BuildingBlock: OJICUG_clean_linker_0, # of connection points: 2
#     Edge 20, Type (0, 1), BuildingBlock: OJICUG_clean_linker_0, # of connection points: 2
#     Edge 21, Type (0, 1), BuildingBlock: OJICUG_clean_linker_0, # of connection points: 2
#     Edge 22, Type (0, 1), BuildingBlock: OJICUG_clean_linker_0, # of connection points: 2
#     Edge 23, Type (0, 1), BuildingBlock: OJICUG_clean_linker_0, # of connection points: 2
#     Edge 24, Type (0, 1), BuildingBlock: OJICUG_clean_linker_0, # of connection points: 2
#     Edge 25, Type (0, 1), BuildingBlock: OJICUG_clean_linker_0, # of connection points: 2
#     Edge 26, Type (0, 1), BuildingBlock: OJICUG_clean_linker_0, # of connection points: 2
#     Edge 27, Type (0, 1), BuildingBlock: OJICUG_clean_linker_0, # of connection points: 2
#     Edge 28, Type (0, 1), BuildingBlock: OJICUG_clean_linker_0, # of connection points: 2
#     Edge 29, Type (0, 1), BuildingBlock: OJICUG_clean_linker_0, # of connection points: 2
#     Edge 30, Type (0, 1), BuildingBlock: OJICUG_clean_linker_0, # of connection points: 2
#     Edge 31, Type (0, 1), BuildingBlock: OJICUG_clean_linker_0, # of connection points: 2
#     Edge 32, Type (0, 1), BuildingBlock: OJICUG_clean_linker_0, # of connection points: 2
#     Edge 33, Type (0, 1), BuildingBlock: OJICUG_clean_linker_0, # of connection points: 2
#     Edge 34, Type (0, 1), BuildingBlock: OJICUG_clean_linker_0, # of connection points: 2
#     Edge 35, Type (0, 1), BuildingBlock: OJICUG_clean_linker_0, # of connection points: 2
# Relax obj value: 0.181
# Max RMSD: 0.177
# Mean RMSD: 0.124
data_MOF--net-pyr--node1-OLANEW_clean_sbu_2--node2-INOVEN_clean_sbu_0--edge1-OJICUG_clean_linker_0
_symmetry_space_group_name_H-M    P1
_symmetry_Int_Tables_number       1
_symmetry_cell_setting            triclinic
loop_
_symmetry_equiv_pos_as_xyz
'x, y, z'
_cell_length_a     30.601701
_cell_length_b     33.666492
_cell_length_c     29.423854
_cell_angle_alpha  95.787525
_cell_angle_beta   88.318934
_cell_angle_gamma 104.35328
loop_
_atom_site_label
_atom_site_type_symbol
_atom_site_fract_x
_atom_site_fract_y
_atom_site_fract_z
_atom_type_partial_charge
O0 O 0.44699 0.32179 0.19679 0.0
Cd1 Cd 0.42573 0.38254 0.237 0.0
O2 O 0.38944 0.29364 0.23699 0.0
Cd3 Cd 0.34147 0.24757 0.26957 0.0
O4 O 0.3279 0.23029 0.3373 0.0
C5 C 0.33631 0.25858 0.3701 0.0
O6 O 0.35229 0.29703 0.36144 0.0
C7 C 0.42225 0.28938 0.21126 0.0
C8 C 0.34655 0.40291 0.21271 0.0
O9 O 0.38542 0.42201 0.19872 0.0
O10 O 0.3446 0.37305 0.23713 0.0
O11 O 0.24263 0.90693 0.71374 0.0
Cd12 Cd 0.21211 0.87002 0.64183 0.0
O13 O 0.22395 0.85018 0.7489 0.0
Cd14 Cd 0.16677 0.82794 0.70363 0.0
O15 O 0.13579 0.87233 0.67816 0.0
C16 C 0.13693 0.90507 0.70419 0.0
O17 O 0.14927 0.90737 0.74696 0.0
C18 C 0.24647 0.88732 0.7476 0.0
C19 C 0.27084 0.82052 0.62169 0.0
O20 O 0.23479 0.80805 0.64485 0.0
O21 O 0.27725 0.85525 0.60502 0.0
O22 O 0.75528 0.44718 0.89526 0.0
Cd23 Cd 0.68118 0.43238 0.85162 0.0
O24 O 0.7515 0.39596 0.93954 0.0
Cd25 Cd 0.68812 0.34496 0.93497 0.0
O26 O 0.6383 0.28711 0.95304 0.0
C27 C 0.64265 0.27345 0.99117 0.0
O28 O 0.67617 0.29377 1.01784 0.0
C29 C 0.77273 0.43022 0.92504 0.0
C30 C 0.65797 0.47672 0.78066 0.0
O31 O 0.65788 0.49046 0.82295 0.0
O32 O 0.67154 0.44369 0.77126 0.0
O33 O 0.95416 0.80118 0.39565 0.0
Cd34 Cd 0.921 0.73617 0.3441 0.0
O35 O 0.90244 0.78221 0.44836 0.0
Cd36 Cd 0.86597 0.72057 0.42051 0.0
O37 O 0.80287 0.67956 0.44206 0.0
C38 C 0.78961 0.69372 0.48027 0.0
O39 O 0.81463 0.72819 0.5003 0.0
C40 C 0.93575 0.8089 0.43413 0.0
C41 C 0.96071 0.68951 0.2756 0.0
O42 O 0.95052 0.72273 0.26699 0.0
O43 O 0.95541 0.68001 0.31692 0.0
O44 O 0.66123 0.74969 0.77788 0.0
Cd45 Cd 0.62537 0.69344 0.82184 0.0
O46 O 0.65071 0.78879 0.83858 0.0
Cd47 Cd 0.6514 0.84108 0.88889 0.0
O48 O 0.63497 0.8908 0.93329 0.0
C49 C 0.59627 0.89706 0.92809 0.0
O50 O 0.56937 0.87376 0.89665 0.0
C51 C 0.6688 0.78533 0.79931 0.0
C52 C 0.69777 0.68025 0.86767 0.0
O53 O 0.6857 0.66145 0.82828 0.0
O54 O 0.67396 0.70376 0.8867 0.0
O55 O 0.79876 0.24692 0.47795 0.0
Cd56 Cd 0.85958 0.27625 0.53109 0.0
O57 O 0.84921 0.26481 0.42426 0.0
Cd58 Cd 0.8844 0.31652 0.47084 0.0
O59 O 0.83371 0.3459 0.50322 0.0
C60 C 0.80235 0.34467 0.47535 0.0
O61 O 0.80719 0.33166 0.43233 0.0
C62 C 0.81029 0.24463 0.43615 0.0
C63 C 0.89922 0.21423 0.54851 0.0
O64 O 0.8714 0.2266 0.57652 0.0
O65 O 0.90918 0.23161 0.51153 0.0
O66 O 0.44544 0.84268 0.27145 0.0
Cd67 Cd 0.42616 0.76921 0.30143 0.0
O68 O 0.38661 0.83533 0.22584 0.0
Cd69 Cd 0.34276 0.7735 0.23002 0.0
O70 O 0.27941 0.73075 0.20486 0.0
C71 C 0.27859 0.71168 0.16516 0.0
O72 O 0.31618 0.71641 0.14129 0.0
C73 C 0.42356 0.85733 0.24299 0.0
C74 C 0.45872 0.72404 0.36778 0.0
O75 O 0.47292 0.7237 0.32625 0.0
O76 O 0.43219 0.74762 0.37914 0.0
O77 O 0.18224 0.47907 0.80403 0.0
Cd78 Cd 0.2114 0.44864 0.73126 0.0
O79 O 0.13319 0.42338 0.82516 0.0
Cd80 Cd 0.14185 0.37158 0.77558 0.0
O81 O 0.12993 0.30786 0.7409 0.0
C82 C 0.09667 0.27989 0.75332 0.0
O83 O 0.07017 0.28979 0.78617 0.0
C84 C 0.15148 0.462 0.83134 0.0
C85 C 0.29516 0.48339 0.68849 0.0
O86 O 0.26278 0.50144 0.69052 0.0
O87 O 0.28925 0.45026 0.70832 0.0
Gd88 Gd 0.04467 0.06203 0.56275 0.0
Gd89 Gd 0.98746 1.02337 0.64221 0.0
C90 C 0.04905 0.11607 0.65758 0.0
C91 C 0.08113 0.09756 0.49376 0.0
C92 C 0.12331 0.12935 0.49204 0.0
C93 C 0.16049 0.1281 0.51835 0.0
C94 C 0.12604 0.1622 0.46575 0.0
C95 C 0.20462 0.18947 0.48741 0.0
C96 C 0.16646 0.19212 0.46342 0.0
C97 C 0.2009 0.15791 0.51597 0.0
C98 C 0.08977 0.03522 0.62653 0.0
C99 C 0.98374 0.96823 0.54394 0.0
C100 C 0.95176 0.97997 0.70746 0.0
C101 C 0.90688 0.95457 0.71827 0.0
C102 C 0.86986 0.97196 0.72796 0.0
C103 C 0.90109 0.91207 0.71927 0.0
C104 C 0.82199 0.90438 0.73872 0.0
C105 C 0.85899 0.88716 0.72915 0.0
C106 C 0.82776 0.94701 0.7384 0.0
C107 C 0.94947 0.07277 0.59955 0.0
O108 O 0.04894 0.11692 0.61299 0.0
O109 O 0.03474 0.08108 0.67685 0.0
O110 O 0.08532 0.06105 0.50178 0.0
O111 O 0.04862 0.10928 0.51719 0.0
O112 O 0.10851 0.06528 0.60273 0.0
O113 O 0.05122 1.01924 0.61141 0.0
O114 O 0.96622 0.9715 0.58567 0.0
O115 O 0.01346 0.99918 0.52749 0.0
O116 O 0.95624 1.01964 0.70896 0.0
O117 O 0.97299 0.96565 0.67287 0.0
O118 O 0.94031 0.0641 0.64107 0.0
O119 O 0.97258 0.04964 0.58032 0.0
H120 H 0.15885 0.10344 0.53972 0.0
H121 H 0.09735 0.16403 0.44607 0.0
H122 H 0.1686 0.21576 0.44047 0.0
H123 H 0.22985 0.15522 0.53467 0.0
H124 H 0.87332 1.00473 0.72755 0.0
H125 H 0.92921 0.89808 0.71243 0.0
H126 H 0.85553 0.85444 0.73007 0.0
H127 H 0.79965 0.9609 0.7458 0.0
Gd128 Gd 0.54319 0.08429 0.13545 0.0
Gd129 Gd 0.45661 0.06314 0.08556 0.0
C130 C 0.46658 0.13276 0.16444 0.0
C131 C 0.621 0.12373 0.16644 0.0
C132 C 0.64018 0.14076 0.21114 0.0
C133 C 0.63539 0.11707 0.2485 0.0
C134 C 0.66303 0.18244 0.21647 0.0
C135 C 0.68236 0.17527 0.29372 0.0
C136 C 0.68386 0.19964 0.25754 0.0
C137 C 0.65657 0.13436 0.2898 0.0
C138 C 0.48988 1.02264 0.18018 0.0
C139 C 0.5345 1.01847 0.04798 0.0
C140 C 0.38249 1.02919 0.04227 0.0
C141 C 0.36993 1.00814 0.99659 0.0
C142 C 0.3863 1.02665 0.95662 0.0
C143 C 0.34006 0.9691 0.99303 0.0
C144 C 0.34097 0.96785 0.91031 0.0
C145 C 0.32571 0.94911 0.95035 0.0
C146 C 0.3718 1.00667 0.91379 0.0
C147 C 0.51766 0.12992 0.05735 0.0
O148 O 0.50993 0.13508 0.15997 0.0
O149 O 0.43668 0.10034 0.1464 0.0
O150 O 0.61014 0.08361 0.15716 0.0
O151 O 0.59101 0.14151 0.1531 0.0
O152 O 0.52924 0.04419 0.19304 0.0
O153 O 0.47772 0.03736 0.1457 0.0
O154 O 0.49232 1.02073 0.04457 0.0
O155 O 0.56225 0.04238 0.07856 0.0
O156 O 0.40142 0.06856 0.04454 0.0
O157 O 0.401 1.00975 0.0695 0.0
O158 O 0.47473 0.12661 0.05991 0.0
O159 O 0.52603 0.09688 0.06722 0.0
H160 H 0.61665 0.0851 0.24537 0.0
H161 H 0.66589 0.2014 0.18833 0.0
H162 H 0.70326 0.23143 0.26031 0.0
H163 H 0.65511 0.11523 0.31756 0.0
H164 H 0.40978 0.0567 0.95839 0.0
H165 H 0.32709 0.95435 1.02341 0.0
H166 H 0.30138 0.91955 0.94889 0.0
H167 H 0.38445 1.02167 0.88349 0.0
Gd168 Gd 0.53749 0.54769 0.53933 0.0
Gd169 Gd 0.53835 0.61865 0.6047 0.0
C170 C 0.57879 0.55104 0.64225 0.0
C171 C 0.55745 0.48526 0.49317 0.0
C172 C 0.58802 0.45965 0.50272 0.0
C173 C 0.57449 0.41682 0.49291 0.0
C174 C 0.63075 0.47764 0.5218 0.0
C175 C 0.64859 0.41083 0.51466 0.0
C176 C 0.6608 0.45348 0.52753 0.0
C177 C 0.60442 0.39253 0.49905 0.0
C178 C 0.45675 0.54429 0.58216 0.0
C179 C 0.50525 0.61997 0.49979 0.0
C180 C 0.51589 0.67876 0.65235 0.0
C181 C 0.48203 0.70071 0.64287 0.0
C182 C 0.48783 0.74229 0.65884 0.0
C183 C 0.44408 0.68029 0.61648 0.0
C184 C 0.41602 0.74158 0.62568 0.0
C185 C 0.41103 0.70049 0.60836 0.0
C186 C 0.45489 0.76276 0.65016 0.0
C187 C 0.61989 0.62189 0.56623 0.0
O188 O 0.57788 0.53607 0.59877 0.0
O189 O 0.56094 0.58226 0.65512 0.0
O190 O 0.52183 0.48188 0.51932 0.0
O191 O 0.57647 0.52339 0.48591 0.0
O192 O 0.46116 0.53233 0.5393 0.0
O193 O 0.49515 0.55599 0.60036 0.0
O194 O 0.50174 0.63212 0.54366 0.0
O195 O 0.52231 0.58801 0.48752 0.0
O196 O 0.55058 0.68413 0.6247 0.0
O197 O 0.49991 0.64025 0.66026 0.0
O198 O 0.61329 0.63332 0.60874 0.0
O199 O 0.58266 0.61026 0.54524 0.0
H200 H 0.54121 0.4023 0.47929 0.0
H201 H 0.64159 0.51059 0.53076 0.0
H202 H 0.69453 0.46874 0.53937 0.0
H203 H 0.59361 0.35963 0.4898 0.0
H204 H 0.51737 0.7586 0.67849 0.0
H205 H 0.43962 0.64855 0.60265 0.0
H206 H 0.38118 0.68389 0.58931 0.0
H207 H 0.45892 0.79456 0.66383 0.0
Gd208 Gd 0.03952 0.52527 0.06461 0.0
Gd209 Gd 0.0244 0.60429 1.02348 0.0
C210 C 0.11238 0.61481 0.08181 0.0
C211 C 0.07832 0.46696 0.07524 0.0
C212 C 0.11665 0.46158 0.10195 0.0
C213 C 0.11008 0.44609 0.145 0.0
C214 C 0.16042 0.47018 0.0831 0.0
C215 C 0.18992 0.44718 0.14887 0.0
C216 C 0.19654 0.46333 0.10637 0.0
C217 C 0.14638 0.43875 0.16815 0.0
C218 C 0.00887 0.5755 0.13081 0.0
C219 C 0.9465 0.51616 1.00951 0.0
C220 C 0.9903 0.66259 1.00192 0.0
C221 C 0.94694 0.66569 0.98382 0.0
C222 C 0.94583 0.67963 0.94064 0.0
C223 C 0.90662 0.65519 1.00908 0.0
C224 C 0.86485 0.67171 0.94765 0.0
C225 C 0.86599 0.65838 0.99119 0.0
C226 C 0.90515 0.68243 0.9226 0.0
C227 C 0.0741 0.56 0.97207 0.0
O228 O 0.10538 0.57414 0.0764 0.0
O229 O 0.08289 0.63421 0.06908 0.0
O230 O 0.04104 0.47021 0.09704 0.0
O231 O 0.08917 0.49191 0.04306 0.0
O232 O 0.01637 0.5403 0.1379 0.0
O233 O 0.01654 0.57986 0.08915 0.0
O234 O 0.95912 0.55648 1.00624 0.0
O235 O 0.97207 0.49627 0.02965 0.0
O236 O 0.01555 0.64508 0.97387 0.0
O237 O 0.98982 0.65188 0.04349 0.0
O238 O 0.08183 0.59999 0.97446 0.0
O239 O 0.03943 0.54571 0.99554 0.0
H240 H 0.07684 0.43902 0.16044 0.0
H241 H 0.16683 0.48161 0.04981 0.0
H242 H 0.22955 0.46948 0.09034 0.0
H243 H 0.14042 0.42635 0.20097 0.0
H244 H 0.97648 0.68821 0.92073 0.0
H245 H 0.90629 0.64431 0.04253 0.0
H246 H 0.8353 0.64961 1.011 0.0
H247 H 0.90524 0.69322 0.88913 0.0
C248 C 0.28952 0.27281 0.43661 0.0
C249 C 0.31682 0.24879 0.41467 0.0
H250 H 0.23121 0.27224 0.47883 0.0
C251 C 0.31528 0.2099 0.42858 0.0
H252 H 0.29045 0.30305 0.42641 0.0
C253 C 0.28184 0.1925 0.45869 0.0
C254 C 0.24936 0.21373 0.47446 0.0
H255 H 0.33653 0.19118 0.41224 0.0
H256 H 0.27802 0.16056 0.46455 0.0
C257 C 0.25555 0.25516 0.46635 0.0
C258 C 0.29005 0.88522 0.81705 0.0
C259 C 0.27501 0.90827 0.78646 0.0
H260 H 0.32447 0.88627 0.87945 0.0
C261 C 0.2857 0.95141 0.79446 0.0
H262 H 0.28288 0.85195 0.8112 0.0
C263 C 0.30892 0.97102 0.83385 0.0
C264 C 0.32221 0.94782 0.8656 0.0
H265 H 0.27441 0.96988 0.77136 0.0
H266 H 0.31453 1.00413 0.84042 0.0
C267 C 0.31375 0.90485 0.85609 0.0
C268 C 0.6306 0.53565 0.75404 0.0
C269 C 0.64035 0.49691 0.74429 0.0
H270 H 0.60408 0.58306 0.72997 0.0
C271 C 0.63069 0.47668 0.70005 0.0
H272 H 0.63765 0.55231 0.78753 0.0
C273 C 0.61129 0.49435 0.66691 0.0
C274 C 0.60082 0.53276 0.67699 0.0
H275 H 0.63725 0.44667 0.69122 0.0
H276 H 0.60375 0.47748 0.63357 0.0
C277 C 0.61114 0.55328 0.72095 0.0
C278 C 0.97455 0.62066 0.24624 0.0
C279 C 0.97501 0.66136 0.23854 0.0
H280 H 0.984 0.562 0.21838 0.0
C281 C 0.9869 0.67377 0.19455 0.0
H282 H 0.96525 0.60973 0.27941 0.0
C283 C 0.99795 0.64621 0.15939 0.0
C284 C 0.99665 0.60536 0.16706 0.0
H285 H 0.98781 0.70487 0.18728 0.0
H286 H 1.00806 0.65708 0.1265 0.0
C287 C 0.98508 0.59312 0.21106 0.0
C288 C 0.45842 0.24224 0.16055 0.0
C289 C 0.43228 0.24849 0.19936 0.0
H290 H 0.48968 0.20065 0.11962 0.0
C291 C 0.41777 0.21589 0.22727 0.0
H292 H 0.47083 0.26669 0.13867 0.0
C293 C 0.42733 0.1775 0.21547 0.0
C294 C 0.45329 0.17164 0.17664 0.0
H295 H 0.40072 0.22016 0.25923 0.0
H296 H 0.41588 0.15299 0.23747 0.0
C297 C 0.46908 0.20438 0.14955 0.0
C298 C 0.13369 0.94405 0.63758 0.0
C299 C 0.13022 0.94171 0.68498 0.0
H300 H 0.12562 0.97782 0.58194 0.0
C301 C 0.12113 0.97481 0.71349 0.0
H302 H 0.14137 0.91928 0.61485 0.0
C303 C 0.11238 1.00841 0.69448 0.0
C304 C 0.114 1.00965 0.64705 0.0
H305 H 0.11866 0.97384 0.75018 0.0
H306 H 0.1017 0.03209 0.7165 0.0
C307 C 0.1258 0.97789 0.6188 0.0
C308 C 0.84101 0.49111 0.93477 0.0
C309 C 0.81827 0.45135 0.94518 0.0
H310 H 0.89829 0.54234 0.94663 0.0
C311 C 0.83897 0.43247 0.97642 0.0
H312 H 0.82662 0.50679 0.91092 0.0
C313 C 0.88063 0.4529 0.99693 0.0
C314 C 0.90269 0.49308 0.98729 0.0
H315 H 0.8228 0.40184 0.98543 0.0
H316 H 0.89514 0.43746 1.02093 0.0
C317 C 0.8823 0.51165 0.95559 0.0
C318 C 0.71674 0.63805 0.48047 0.0
C319 C 0.74653 0.67337 0.50184 0.0
H320 H 0.6526 0.59387 0.48405 0.0
C321 C 0.73447 0.69039 0.54449 0.0
H322 H 0.72517 0.62414 0.44764 0.0
C323 C 0.69377 0.67291 0.56526 0.0
C324 C 0.66356 0.63821 0.54378 0.0
H325 H 0.75635 0.7176 0.56197 0.0
H326 H 0.68556 0.68733 0.59791 0.0
C327 C 0.67529 0.62077 0.50117 0.0
C328 C 0.2629 0.38686 0.19967 0.0
C329 C 0.30535 0.41512 0.20076 0.0
H330 H 0.19287 0.37491 0.18216 0.0
C331 C 0.30847 0.45518 0.18907 0.0
H332 H 0.25948 0.35578 0.20856 0.0
C333 C 0.27041 0.4662 0.17451 0.0
C334 C 0.2284 0.43736 0.17114 0.0
H335 H 0.34054 0.47791 0.19056 0.0
H336 H 0.27403 0.49704 0.16477 0.0
C337 C 0.22475 0.39786 0.18486 0.0
C338 C 0.61117 0.22767 0.05264 0.0
C339 C 0.61044 0.23603 1.00679 0.0
H340 H 0.58103 0.18985 0.10456 0.0
C341 C 0.57875 0.20862 0.97732 0.0
H342 H 0.63422 0.24837 0.07678 0.0
C343 C 0.54913 0.17362 0.99343 0.0
C344 C 0.55059 0.16529 0.03922 0.0
H345 H 0.5769 0.21414 0.94188 0.0
H346 H 0.52495 0.15314 0.97016 0.0
C347 C 0.58127 0.19328 0.06863 0.0
C348 C 0.98306 0.88279 0.44722 0.0
C349 C 0.95013 0.84959 0.46233 0.0
H350 H 0.01921 0.94611 0.46058 0.0
C351 C 0.92852 0.85607 0.50454 0.0
H352 H 1.0004 0.87914 0.41504 0.0
C353 C 0.939 0.89442 0.53051 0.0
C354 C 0.97142 0.92779 0.51523 0.0
H355 H 0.90296 0.83145 0.51765 0.0
H356 H 0.92153 0.89781 0.56267 0.0
C357 C 0.99354 0.92136 0.4733 0.0
C358 C 0.34463 0.80978 0.59111 0.0
C359 C 0.30624 0.79769 0.61872 0.0
H360 H 0.41022 0.80117 0.57188 0.0
C361 C 0.30398 0.76621 0.64727 0.0
H362 H 0.34724 0.83401 0.56886 0.0
C363 C 0.33982 0.74782 0.64898 0.0
C364 C 0.37839 0.76065 0.62228 0.0
H365 H 0.27519 0.75664 0.66943 0.0
H366 H 0.33789 0.72415 0.67187 0.0
C367 C 0.38062 0.79134 0.59296 0.0
C368 C 0.72282 0.81213 0.73803 0.0
C369 C 0.70204 0.81976 0.78024 0.0
H370 H 0.77708 0.83306 0.69185 0.0
C371 C 0.71789 0.85818 0.80557 0.0
H372 H 0.71147 0.78315 0.71716 0.0
C373 C 0.75545 0.88692 0.79071 0.0
C374 C 0.77805 0.8776 0.75044 0.0
H375 H 0.70324 0.86569 0.83787 0.0
H376 H 0.76838 0.91536 0.81209 0.0
C377 C 0.76056 0.84061 0.72346 0.0
C378 C 0.79141 0.21939 0.35532 0.0
C379 C 0.77727 0.22327 0.40094 0.0
H380 H 0.77187 0.20095 0.28591 0.0
C381 C 0.73113 0.20962 0.4117 0.0
H382 H 0.82663 0.2295 0.34595 0.0
C383 C 0.69964 0.19315 0.37701 0.0
C384 C 0.71413 0.19064 0.33144 0.0
H385 H 0.71926 0.21264 0.44662 0.0
H386 H 0.66414 0.18346 0.38552 0.0
C387 C 0.76013 0.20329 0.32096 0.0
C388 C 0.45521 0.69851 0.44665 0.0
C389 C 0.47086 0.69695 0.40111 0.0
H390 H 0.45318 0.67591 0.51254 0.0
C391 C 0.49671 0.66821 0.38778 0.0
H392 H 0.43487 0.71966 0.45848 0.0
C393 C 0.50684 0.64239 0.41902 0.0
C394 C 0.49173 0.64462 0.46478 0.0
H395 H 0.50921 0.66562 0.35307 0.0
H396 H 0.5273 0.62127 0.4075 0.0
C397 C 0.46563 0.67308 0.47784 0.0
C398 C 0.10205 0.46822 0.90085 0.0
C399 C 0.13437 0.48732 0.86951 0.0
H400 H 0.05755 0.47579 0.95709 0.0
C401 C 0.14792 0.53067 0.87373 0.0
H402 H 0.09064 0.43497 0.89894 0.0
C403 C 0.12913 0.5541 0.90763 0.0
C404 C 0.09613 0.53491 0.93817 0.0
H405 H 0.1724 0.54661 0.85022 0.0
H406 H 0.13982 0.58738 0.90928 0.0
C407 C 0.08309 0.49165 0.93448 0.0
C408 C 0.53732 0.93429 0.95354 0.0
C409 C 0.58116 0.92918 0.95772 0.0
H410 H 0.48823 0.96652 0.97862 0.0
C411 C 0.61005 0.95454 0.99095 0.0
H412 H 0.51426 0.91527 0.92823 0.0
C413 C 0.59516 0.98403 1.01986 0.0
C414 C 0.55107 0.98868 1.01614 0.0
H415 H 0.64407 0.95141 0.99494 0.0
H416 H 0.61807 1.0028 0.04545 0.0
C417 C 0.52241 0.9637 0.98246 0.0
C418 C 0.92432 0.17605 0.60536 0.0
C419 C 0.9187 0.1807 0.55939 0.0
H420 H 0.93956 0.13863 0.65356 0.0
C421 C 0.92827 0.1515 0.52532 0.0
H422 H 0.91806 0.19856 0.63215 0.0
C423 C 0.94041 0.11649 0.53768 0.0
C424 C 0.94303 0.1109 0.58402 0.0
H425 H 0.92415 0.15467 0.48954 0.0
H426 H 0.94565 0.09316 0.5114 0.0
C427 C 0.93652 0.14164 0.61753 0.0
C428 C 0.19383 0.6914 0.16164 0.0
C429 C 0.23574 0.68603 0.1449 0.0
H430 H 0.12175 0.67349 0.15381 0.0
C431 C 0.2365 0.6568 0.10737 0.0
H432 H 0.1921 0.71376 0.19038 0.0
C433 C 0.19629 0.63321 0.08725 0.0
C434 C 0.15466 0.6393 0.10338 0.0
H435 H 0.2682 0.65197 0.09363 0.0
H436 H 0.19776 0.61077 0.0585 0.0
C437 C 0.15365 0.66863 0.14061 0.0
C438 C 0.35678 0.54163 0.66279 0.0
C439 C 0.33709 0.49913 0.66205 0.0
H440 H 0.41105 0.58902 0.63943 0.0
C441 C 0.35701 0.47169 0.63451 0.0
H442 H 0.34227 0.56349 0.68373 0.0
C443 C 0.39517 0.48647 0.60762 0.0
C444 C 0.41512 0.52892 0.60887 0.0
H445 H 0.34247 0.43879 0.63299 0.0
H446 H 0.40956 0.46467 0.58641 0.0
C447 C 0.39599 0.55628 0.63727 0.0
C448 C 0.76983 0.65798 0.86378 0.0
C449 C 0.73944 0.67666 0.8892 0.0
H450 H 0.83332 0.64196 0.8624 0.0
C451 C 0.75042 0.69353 0.93431 0.0
H452 H 0.76253 0.64495 0.82884 0.0
C453 C 0.79102 0.69167 0.95356 0.0
C454 C 0.82158 0.67343 0.92781 0.0
H455 H 0.72779 0.70835 0.95465 0.0
H456 H 0.79891 0.70514 0.98827 0.0
C457 C 0.81055 0.65657 0.88281 0.0
C458 C 0.4783 0.92858 0.24714 0.0
C459 C 0.4399 0.90039 0.22818 0.0
H460 H 0.52305 0.98869 0.24762 0.0
C461 C 0.41644 0.9138 0.19409 0.0
H462 H 0.49735 0.91992 0.27328 0.0
C463 C 0.43126 0.95354 0.17906 0.0
C464 C 0.46989 0.98146 0.19789 0.0
H465 H 0.38662 0.89329 0.17832 0.0
H466 H 0.41292 0.96208 0.15222 0.0
C467 C 0.49287 0.96833 0.23237 0.0
C468 C 0.05091 0.20622 0.74632 0.0
C469 C 0.08686 0.23693 0.73077 0.0
H470 H 0.01133 0.14364 0.73596 0.0
C471 C 0.11227 0.22623 0.69299 0.0
H472 H 0.03049 0.21329 0.77523 0.0
C473 C 0.10092 0.18637 0.67039 0.0
C474 C 0.06453 0.15603 0.68555 0.0
H475 H 0.14025 0.24889 0.68015 0.0
H476 H 0.12024 0.17938 0.6405 0.0
C477 C 0.04009 0.16615 0.72416 0.0
C478 C 0.72296 0.34507 0.46113 0.0
C479 C 0.76058 0.35665 0.49006 0.0
H480 H 0.6581 0.35277 0.44637 0.0
C481 C 0.75809 0.38082 0.53137 0.0
H482 H 0.72338 0.32552 0.4296 0.0
C483 C 0.72 0.39614 0.54147 0.0
C484 C 0.68386 0.38732 0.51046 0.0
H485 H 0.78631 0.38949 0.55474 0.0
H486 H 0.71966 0.41628 0.57252 0.0
C487 C 0.68506 0.36019 0.47118 0.0
loop_
_geom_bond_atom_site_label_1
_geom_bond_atom_site_label_2
_geom_bond_distance
_geom_bond_site_symmetry_2
_ccdc_geom_bond_type
O0 Cd1 2.300 . S
O0 C7 1.275 . S
Cd1 O0 2.300 . S
Cd1 O9 2.381 . S
Cd1 O10 2.378 . S
O2 Cd3 2.385 . S
O2 C7 1.255 . S
Cd3 O2 2.385 . S
Cd3 O4 2.317 . S
O4 Cd3 2.317 . S
O4 C5 1.232 . S
C5 O4 1.232 . S
C5 O6 1.218 . S
O6 C5 1.218 . S
C7 O0 1.275 . S
C7 O2 1.255 . S
C8 O9 1.258 . S
C8 O10 1.256 . S
O9 Cd1 2.381 . S
O9 C8 1.258 . S
O10 Cd1 2.378 . S
O10 C8 1.256 . S
O11 Cd12 2.300 . S
O11 C18 1.275 . S
Cd12 O11 2.300 . S
Cd12 O20 2.381 . S
Cd12 O21 2.378 . S
O13 Cd14 2.385 . S
O13 C18 1.255 . S
Cd14 O13 2.385 . S
Cd14 O15 2.317 . S
O15 Cd14 2.317 . S
O15 C16 1.232 . S
C16 O15 1.232 . S
C16 O17 1.218 . S
O17 C16 1.218 . S
C18 O11 1.275 . S
C18 O13 1.255 . S
C19 O20 1.258 . S
C19 O21 1.256 . S
O20 Cd12 2.381 . S
O20 C19 1.258 . S
O21 Cd12 2.378 . S
O21 C19 1.256 . S
O22 Cd23 2.300 . S
O22 C29 1.275 . S
Cd23 O22 2.300 . S
Cd23 O31 2.381 . S
Cd23 O32 2.378 . S
O24 Cd25 2.385 . S
O24 C29 1.255 . S
Cd25 O24 2.385 . S
Cd25 O26 2.317 . S
O26 Cd25 2.317 . S
O26 C27 1.232 . S
C27 O26 1.232 . S
C27 O28 1.218 . S
O28 C27 1.218 . S
C29 O22 1.275 . S
C29 O24 1.255 . S
C30 O31 1.258 . S
C30 O32 1.256 . S
O31 Cd23 2.381 . S
O31 C30 1.258 . S
O32 Cd23 2.378 . S
O32 C30 1.256 . S
O33 Cd34 2.300 . S
O33 C40 1.275 . S
Cd34 O33 2.300 . S
Cd34 O42 2.381 . S
Cd34 O43 2.378 . S
O35 Cd36 2.385 . S
O35 C40 1.255 . S
Cd36 O35 2.385 . S
Cd36 O37 2.317 . S
O37 Cd36 2.317 . S
O37 C38 1.232 . S
C38 O37 1.232 . S
C38 O39 1.218 . S
O39 C38 1.218 . S
C40 O33 1.275 . S
C40 O35 1.255 . S
C41 O42 1.258 . S
C41 O43 1.256 . S
O42 Cd34 2.381 . S
O42 C41 1.258 . S
O43 Cd34 2.378 . S
O43 C41 1.256 . S
O44 Cd45 2.300 . S
O44 C51 1.275 . S
Cd45 O44 2.300 . S
Cd45 O53 2.381 . S
Cd45 O54 2.378 . S
O46 Cd47 2.385 . S
O46 C51 1.255 . S
Cd47 O46 2.385 . S
Cd47 O48 2.317 . S
O48 Cd47 2.317 . S
O48 C49 1.232 . S
C49 O48 1.232 . S
C49 O50 1.218 . S
O50 C49 1.218 . S
C51 O44 1.275 . S
C51 O46 1.255 . S
C52 O53 1.258 . S
C52 O54 1.256 . S
O53 Cd45 2.381 . S
O53 C52 1.258 . S
O54 Cd45 2.378 . S
O54 C52 1.256 . S
O55 Cd56 2.300 . S
O55 C62 1.275 . S
Cd56 O55 2.300 . S
Cd56 O64 2.381 . S
Cd56 O65 2.378 . S
O57 Cd58 2.385 . S
O57 C62 1.255 . S
Cd58 O57 2.385 . S
Cd58 O59 2.317 . S
O59 Cd58 2.317 . S
O59 C60 1.232 . S
C60 O59 1.232 . S
C60 O61 1.218 . S
O61 C60 1.218 . S
C62 O55 1.275 . S
C62 O57 1.255 . S
C63 O64 1.258 . S
C63 O65 1.256 . S
O64 Cd56 2.381 . S
O64 C63 1.258 . S
O65 Cd56 2.378 . S
O65 C63 1.256 . S
O66 Cd67 2.300 . S
O66 C73 1.275 . S
Cd67 O66 2.300 . S
Cd67 O75 2.381 . S
Cd67 O76 2.378 . S
O68 Cd69 2.385 . S
O68 C73 1.255 . S
Cd69 O68 2.385 . S
Cd69 O70 2.317 . S
O70 Cd69 2.317 . S
O70 C71 1.232 . S
C71 O70 1.232 . S
C71 O72 1.218 . S
O72 C71 1.218 . S
C73 O66 1.275 . S
C73 O68 1.255 . S
C74 O75 1.258 . S
C74 O76 1.256 . S
O75 Cd67 2.381 . S
O75 C74 1.258 . S
O76 Cd67 2.378 . S
O76 C74 1.256 . S
O77 Cd78 2.300 . S
O77 C84 1.275 . S
Cd78 O77 2.300 . S
Cd78 O86 2.381 . S
Cd78 O87 2.378 . S
O79 Cd80 2.385 . S
O79 C84 1.255 . S
Cd80 O79 2.385 . S
Cd80 O81 2.317 . S
O81 Cd80 2.317 . S
O81 C82 1.232 . S
C82 O81 1.232 . S
C82 O83 1.218 . S
O83 C82 1.218 . S
C84 O77 1.275 . S
C84 O79 1.255 . S
C85 O86 1.258 . S
C85 O87 1.256 . S
O86 Cd78 2.381 . S
O86 C85 1.258 . S
O87 Cd78 2.378 . S
O87 C85 1.256 . S
Gd88 C91 2.818 . S
Gd88 O108 2.377 . S
Gd88 O110 2.448 . S
Gd88 O111 2.506 . S
Gd88 O112 2.435 . S
Gd88 O113 2.717 1_545 S
Gd88 O115 2.395 1_445 S
Gd88 O119 2.327 1_455 S
Gd89 C100 2.818 1_545 S
Gd89 O109 2.395 1_655 S
Gd89 O113 2.327 1_645 S
Gd89 O114 2.377 1_545 S
Gd89 O116 2.448 1_545 S
Gd89 O117 2.506 1_545 S
Gd89 O118 2.435 . S
Gd89 O119 2.717 . S
C90 O108 1.240 . S
C90 O109 1.240 . S
C91 Gd88 2.818 . S
C91 C92 1.510 . S
C91 O110 1.249 . S
C91 O111 1.252 . S
C92 C91 1.510 . S
C92 C93 1.404 . S
C92 C94 1.352 . S
C93 C92 1.404 . S
C93 C97 1.389 . S
C93 H120 0.930 . S
C94 C92 1.352 . S
C94 C96 1.374 . S
C94 H121 0.931 . S
C95 C96 1.359 . S
C95 C97 1.364 . S
C96 C94 1.374 . S
C96 C95 1.359 . S
C96 H122 0.931 . S
C97 C93 1.389 . S
C97 C95 1.364 . S
C97 H123 0.931 . S
C98 O112 1.256 1_565 S
C98 O113 1.257 . S
C99 O114 1.240 . S
C99 O115 1.240 . S
C100 Gd89 2.818 1_565 S
C100 C101 1.510 . S
C100 O116 1.249 . S
C100 O117 1.252 . S
C101 C100 1.510 . S
C101 C102 1.404 . S
C101 C103 1.352 . S
C102 C101 1.404 . S
C102 C106 1.389 . S
C102 H124 0.930 . S
C103 C101 1.352 . S
C103 C105 1.374 . S
C103 H125 0.931 . S
C104 C105 1.359 . S
C104 C106 1.364 . S
C105 C103 1.374 . S
C105 C104 1.359 . S
C105 H126 0.931 . S
C106 C102 1.389 . S
C106 C104 1.364 . S
C106 H127 0.931 . S
C107 O118 1.256 . S
C107 O119 1.257 . S
O108 Gd88 2.377 . S
O108 C90 1.240 . S
O109 Gd89 2.395 1_455 S
O109 C90 1.240 . S
O110 Gd88 2.448 . S
O110 C91 1.249 . S
O111 Gd88 2.506 . S
O111 C91 1.252 . S
O112 Gd88 2.435 . S
O112 C98 1.256 1_545 S
O113 Gd88 2.717 1_565 S
O113 Gd89 2.327 1_465 S
O113 C98 1.257 . S
O114 Gd89 2.377 1_565 S
O114 C99 1.240 . S
O115 Gd88 2.395 1_665 S
O115 C99 1.240 . S
O116 Gd89 2.448 1_565 S
O116 C100 1.249 . S
O117 Gd89 2.506 1_565 S
O117 C100 1.252 . S
O118 Gd89 2.435 . S
O118 C107 1.256 . S
O119 Gd88 2.327 1_655 S
O119 Gd89 2.717 . S
O119 C107 1.257 . S
H120 C93 0.930 . S
H121 C94 0.931 . S
H122 C96 0.931 . S
H123 C97 0.931 . S
H124 C102 0.930 . S
H125 C103 0.931 . S
H126 C105 0.931 . S
H127 C106 0.931 . S
Gd128 C131 2.818 . S
Gd128 O148 2.377 . S
Gd128 O150 2.448 . S
Gd128 O151 2.506 . S
Gd128 O152 2.435 1_545 S
Gd128 O153 2.717 . S
Gd128 O155 2.395 . S
Gd128 O159 2.327 . S
Gd129 C140 2.818 1_544 S
Gd129 O149 2.395 . S
Gd129 O153 2.327 . S
Gd129 O154 2.377 1_554 S
Gd129 O156 2.448 1_554 S
Gd129 O157 2.506 1_544 S
Gd129 O158 2.435 . S
Gd129 O159 2.717 . S
C130 O148 1.240 . S
C130 O149 1.240 . S
C131 Gd128 2.818 . S
C131 C132 1.510 . S
C131 O150 1.249 . S
C131 O151 1.252 . S
C132 C131 1.510 . S
C132 C133 1.404 . S
C132 C134 1.352 . S
C133 C132 1.404 . S
C133 C137 1.389 . S
C133 H160 0.930 . S
C134 C132 1.352 . S
C134 C136 1.374 . S
C134 H161 0.931 . S
C135 C136 1.359 . S
C135 C137 1.364 . S
C136 C134 1.374 . S
C136 C135 1.359 . S
C136 H162 0.931 . S
C137 C133 1.389 . S
C137 C135 1.364 . S
C137 H163 0.931 . S
C138 O152 1.256 . S
C138 O153 1.257 1_565 S
C139 O154 1.240 1_564 S
C139 O155 1.240 1_565 S
C140 Gd129 2.818 1_566 S
C140 C141 1.510 . S
C140 O156 1.249 1_565 S
C140 O157 1.252 . S
C141 C140 1.510 . S
C141 C142 1.404 . S
C141 C143 1.352 . S
C142 C141 1.404 . S
C142 C146 1.389 . S
C142 H164 0.930 1_565 S
C143 C141 1.352 . S
C143 C145 1.374 . S
C143 H165 0.931 . S
C144 C145 1.359 . S
C144 C146 1.364 . S
C145 C143 1.374 . S
C145 C144 1.359 . S
C145 H166 0.931 . S
C146 C142 1.389 . S
C146 C144 1.364 . S
C146 H167 0.931 . S
C147 O158 1.256 . S
C147 O159 1.257 . S
O148 Gd128 2.377 . S
O148 C130 1.240 . S
O149 Gd129 2.395 . S
O149 C130 1.240 . S
O150 Gd128 2.448 . S
O150 C131 1.249 . S
O151 Gd128 2.506 . S
O151 C131 1.252 . S
O152 Gd128 2.435 1_565 S
O152 C138 1.256 . S
O153 Gd128 2.717 . S
O153 Gd129 2.327 . S
O153 C138 1.257 1_545 S
O154 Gd129 2.377 1_556 S
O154 C139 1.240 1_546 S
O155 Gd128 2.395 . S
O155 C139 1.240 1_545 S
O156 Gd129 2.448 1_556 S
O156 C140 1.249 1_545 S
O157 Gd129 2.506 1_566 S
O157 C140 1.252 . S
O158 Gd129 2.435 . S
O158 C147 1.256 . S
O159 Gd128 2.327 . S
O159 Gd129 2.717 . S
O159 C147 1.257 . S
H160 C133 0.930 . S
H161 C134 0.931 . S
H162 C136 0.931 . S
H163 C137 0.931 . S
H164 C142 0.930 1_545 S
H165 C143 0.931 . S
H166 C145 0.931 . S
H167 C146 0.931 . S
Gd168 C171 2.818 . S
Gd168 O188 2.377 . S
Gd168 O190 2.448 . S
Gd168 O191 2.506 . S
Gd168 O192 2.435 . S
Gd168 O193 2.717 . S
Gd168 O195 2.395 . S
Gd168 O199 2.327 . S
Gd169 C180 2.818 . S
Gd169 O189 2.395 . S
Gd169 O193 2.327 . S
Gd169 O194 2.377 . S
Gd169 O196 2.448 . S
Gd169 O197 2.506 . S
Gd169 O198 2.435 . S
Gd169 O199 2.717 . S
C170 O188 1.240 . S
C170 O189 1.240 . S
C171 Gd168 2.818 . S
C171 C172 1.510 . S
C171 O190 1.249 . S
C171 O191 1.252 . S
C172 C171 1.510 . S
C172 C173 1.404 . S
C172 C174 1.352 . S
C173 C172 1.404 . S
C173 C177 1.389 . S
C173 H200 0.930 . S
C174 C172 1.352 . S
C174 C176 1.374 . S
C174 H201 0.931 . S
C175 C176 1.359 . S
C175 C177 1.364 . S
C176 C174 1.374 . S
C176 C175 1.359 . S
C176 H202 0.931 . S
C177 C173 1.389 . S
C177 C175 1.364 . S
C177 H203 0.931 . S
C178 O192 1.256 . S
C178 O193 1.257 . S
C179 O194 1.240 . S
C179 O195 1.240 . S
C180 Gd169 2.818 . S
C180 C181 1.510 . S
C180 O196 1.249 . S
C180 O197 1.252 . S
C181 C180 1.510 . S
C181 C182 1.404 . S
C181 C183 1.352 . S
C182 C181 1.404 . S
C182 C186 1.389 . S
C182 H204 0.930 . S
C183 C181 1.352 . S
C183 C185 1.374 . S
C183 H205 0.931 . S
C184 C185 1.359 . S
C184 C186 1.364 . S
C185 C183 1.374 . S
C185 C184 1.359 . S
C185 H206 0.931 . S
C186 C182 1.389 . S
C186 C184 1.364 . S
C186 H207 0.931 . S
C187 O198 1.256 . S
C187 O199 1.257 . S
O188 Gd168 2.377 . S
O188 C170 1.240 . S
O189 Gd169 2.395 . S
O189 C170 1.240 . S
O190 Gd168 2.448 . S
O190 C171 1.249 . S
O191 Gd168 2.506 . S
O191 C171 1.252 . S
O192 Gd168 2.435 . S
O192 C178 1.256 . S
O193 Gd168 2.717 . S
O193 Gd169 2.327 . S
O193 C178 1.257 . S
O194 Gd169 2.377 . S
O194 C179 1.240 . S
O195 Gd168 2.395 . S
O195 C179 1.240 . S
O196 Gd169 2.448 . S
O196 C180 1.249 . S
O197 Gd169 2.506 . S
O197 C180 1.252 . S
O198 Gd169 2.435 . S
O198 C187 1.256 . S
O199 Gd168 2.327 . S
O199 Gd169 2.717 . S
O199 C187 1.257 . S
H200 C173 0.930 . S
H201 C174 0.931 . S
H202 C176 0.931 . S
H203 C177 0.931 . S
H204 C182 0.930 . S
H205 C183 0.931 . S
H206 C185 0.931 . S
H207 C186 0.931 . S
Gd208 C211 2.818 . S
Gd208 O228 2.377 . S
Gd208 O230 2.448 . S
Gd208 O231 2.506 . S
Gd208 O232 2.435 1_455 S
Gd208 O233 2.717 1_455 S
Gd208 O235 2.395 1_455 S
Gd208 O239 2.327 1_554 S
Gd209 C220 2.818 1_455 S
Gd209 O229 2.395 1_556 S
Gd209 O233 2.327 1_456 S
Gd209 O234 2.377 1_455 S
Gd209 O236 2.448 1_455 S
Gd209 O237 2.506 1_455 S
Gd209 O238 2.435 . S
Gd209 O239 2.717 . S
C210 O228 1.240 . S
C210 O229 1.240 . S
C211 Gd208 2.818 . S
C211 C212 1.510 . S
C211 O230 1.249 . S
C211 O231 1.252 . S
C212 C211 1.510 . S
C212 C213 1.404 . S
C212 C214 1.352 . S
C213 C212 1.404 . S
C213 C217 1.389 . S
C213 H240 0.930 . S
C214 C212 1.352 . S
C214 C216 1.374 . S
C214 H241 0.931 . S
C215 C216 1.359 . S
C215 C217 1.364 . S
C216 C214 1.374 . S
C216 C215 1.359 . S
C216 H242 0.931 . S
C217 C213 1.389 . S
C217 C215 1.364 . S
C217 H243 0.931 . S
C218 O232 1.256 . S
C218 O233 1.257 . S
C219 O234 1.240 . S
C219 O235 1.240 1_556 S
C220 Gd209 2.818 1_655 S
C220 C221 1.510 . S
C220 O236 1.249 . S
C220 O237 1.252 . S
C221 C220 1.510 . S
C221 C222 1.404 . S
C221 C223 1.352 . S
C222 C221 1.404 . S
C222 C226 1.389 . S
C222 H244 0.930 . S
C223 C221 1.352 . S
C223 C225 1.374 . S
C223 H245 0.931 . S
C224 C225 1.359 . S
C224 C226 1.364 . S
C225 C223 1.374 . S
C225 C224 1.359 . S
C225 H246 0.931 . S
C226 C222 1.389 . S
C226 C224 1.364 . S
C226 H247 0.931 . S
C227 O238 1.256 . S
C227 O239 1.257 . S
O228 Gd208 2.377 . S
O228 C210 1.240 . S
O229 Gd209 2.395 1_554 S
O229 C210 1.240 . S
O230 Gd208 2.448 . S
O230 C211 1.249 . S
O231 Gd208 2.506 . S
O231 C211 1.252 . S
O232 Gd208 2.435 1_655 S
O232 C218 1.256 . S
O233 Gd208 2.717 1_655 S
O233 Gd209 2.327 1_654 S
O233 C218 1.257 . S
O234 Gd209 2.377 1_655 S
O234 C219 1.240 . S
O235 Gd208 2.395 1_655 S
O235 C219 1.240 1_554 S
O236 Gd209 2.448 1_655 S
O236 C220 1.249 . S
O237 Gd209 2.506 1_655 S
O237 C220 1.252 . S
O238 Gd209 2.435 . S
O238 C227 1.256 . S
O239 Gd208 2.327 1_556 S
O239 Gd209 2.717 . S
O239 C227 1.257 . S
H240 C213 0.930 . S
H241 C214 0.931 . S
H242 C216 0.931 . S
H243 C217 0.931 . S
H244 C222 0.930 . S
H245 C223 0.931 . S
H246 C225 0.931 . S
H247 C226 0.931 . S
C248 C249 1.387 . S
C248 H252 0.950 . S
C248 C257 1.390 . S
C249 C248 1.387 . S
C249 C251 1.387 . S
H250 C257 0.950 . S
C251 C249 1.387 . S
C251 C253 1.390 . S
C251 H255 0.950 . S
H252 C248 0.950 . S
C253 C251 1.390 . S
C253 C254 1.387 . S
C253 H256 0.950 . S
C254 C253 1.387 . S
C254 C257 1.387 . S
H255 C251 0.950 . S
H256 C253 0.950 . S
C257 C248 1.390 . S
C257 H250 0.950 . S
C257 C254 1.387 . S
C258 C259 1.387 . S
C258 H262 0.950 . S
C258 C267 1.390 . S
C259 C258 1.387 . S
C259 C261 1.387 . S
H260 C267 0.950 . S
C261 C259 1.387 . S
C261 C263 1.390 . S
C261 H265 0.950 . S
H262 C258 0.950 . S
C263 C261 1.390 . S
C263 C264 1.387 . S
C263 H266 0.950 . S
C264 C263 1.387 . S
C264 C267 1.387 . S
H265 C261 0.950 . S
H266 C263 0.950 . S
C267 C258 1.390 . S
C267 H260 0.950 . S
C267 C264 1.387 . S
C268 C269 1.387 . S
C268 H272 0.950 . S
C268 C277 1.390 . S
C269 C268 1.387 . S
C269 C271 1.387 . S
H270 C277 0.950 . S
C271 C269 1.387 . S
C271 C273 1.390 . S
C271 H275 0.950 . S
H272 C268 0.950 . S
C273 C271 1.390 . S
C273 C274 1.387 . S
C273 H276 0.950 . S
C274 C273 1.387 . S
C274 C277 1.387 . S
H275 C271 0.950 . S
H276 C273 0.950 . S
C277 C268 1.390 . S
C277 H270 0.950 . S
C277 C274 1.387 . S
C278 C279 1.387 . S
C278 H282 0.950 . S
C278 C287 1.390 . S
C279 C278 1.387 . S
C279 C281 1.387 . S
H280 C287 0.950 . S
C281 C279 1.387 . S
C281 C283 1.390 . S
C281 H285 0.950 . S
H282 C278 0.950 . S
C283 C281 1.390 . S
C283 C284 1.387 . S
C283 H286 0.950 . S
C284 C283 1.387 . S
C284 C287 1.387 . S
H285 C281 0.950 . S
H286 C283 0.950 . S
C287 C278 1.390 . S
C287 H280 0.950 . S
C287 C284 1.387 . S
C288 C289 1.387 . S
C288 H292 0.950 . S
C288 C297 1.390 . S
C289 C288 1.387 . S
C289 C291 1.387 . S
H290 C297 0.950 . S
C291 C289 1.387 . S
C291 C293 1.390 . S
C291 H295 0.950 . S
H292 C288 0.950 . S
C293 C291 1.390 . S
C293 C294 1.387 . S
C293 H296 0.950 . S
C294 C293 1.387 . S
C294 C297 1.387 . S
H295 C291 0.950 . S
H296 C293 0.950 . S
C297 C288 1.390 . S
C297 H290 0.950 . S
C297 C294 1.387 . S
C298 C299 1.387 . S
C298 H302 0.950 . S
C298 C307 1.390 . S
C299 C298 1.387 . S
C299 C301 1.387 . S
H300 C307 0.950 . S
C301 C299 1.387 . S
C301 C303 1.390 . S
C301 H305 0.950 . S
H302 C298 0.950 . S
C303 C301 1.390 . S
C303 C304 1.387 . S
C303 H306 0.950 . S
C304 C303 1.387 . S
C304 C307 1.387 . S
H305 C301 0.950 . S
H306 C303 0.950 . S
C307 C298 1.390 . S
C307 H300 0.950 . S
C307 C304 1.387 . S
C308 C309 1.387 . S
C308 H312 0.950 . S
C308 C317 1.390 . S
C309 C308 1.387 . S
C309 C311 1.387 . S
H310 C317 0.950 . S
C311 C309 1.387 . S
C311 C313 1.390 . S
C311 H315 0.950 . S
H312 C308 0.950 . S
C313 C311 1.390 . S
C313 C314 1.387 . S
C313 H316 0.950 1_556 S
C314 C313 1.387 . S
C314 C317 1.387 . S
H315 C311 0.950 . S
H316 C313 0.950 1_554 S
C317 C308 1.390 . S
C317 H310 0.950 . S
C317 C314 1.387 . S
C318 C319 1.387 . S
C318 H322 0.950 . S
C318 C327 1.390 . S
C319 C318 1.387 . S
C319 C321 1.387 . S
H320 C327 0.950 . S
C321 C319 1.387 . S
C321 C323 1.390 . S
C321 H325 0.950 . S
H322 C318 0.950 . S
C323 C321 1.390 . S
C323 C324 1.387 . S
C323 H326 0.950 . S
C324 C323 1.387 . S
C324 C327 1.387 . S
H325 C321 0.950 . S
H326 C323 0.950 . S
C327 C318 1.390 . S
C327 H320 0.950 . S
C327 C324 1.387 . S
C328 C329 1.387 . S
C328 H332 0.950 . S
C328 C337 1.390 . S
C329 C328 1.387 . S
C329 C331 1.387 . S
H330 C337 0.950 . S
C331 C329 1.387 . S
C331 C333 1.390 . S
C331 H335 0.950 . S
H332 C328 0.950 . S
C333 C331 1.390 . S
C333 C334 1.387 . S
C333 H336 0.950 . S
C334 C333 1.387 . S
C334 C337 1.387 . S
H335 C331 0.950 . S
H336 C333 0.950 . S
C337 C328 1.390 . S
C337 H330 0.950 . S
C337 C334 1.387 . S
C338 C339 1.387 1_554 S
C338 H342 0.950 . S
C338 C347 1.390 . S
C339 C338 1.387 1_556 S
C339 C341 1.387 . S
H340 C347 0.950 . S
C341 C339 1.387 . S
C341 C343 1.390 . S
C341 H345 0.950 . S
H342 C338 0.950 . S
C343 C341 1.390 . S
C343 C344 1.387 . S
C343 H346 0.950 . S
C344 C343 1.387 . S
C344 C347 1.387 1_556 S
H345 C341 0.950 . S
H346 C343 0.950 . S
C347 C338 1.390 . S
C347 H340 0.950 . S
C347 C344 1.387 1_554 S
C348 C349 1.387 . S
C348 H352 0.950 . S
C348 C357 1.390 . S
C349 C348 1.387 . S
C349 C351 1.387 . S
H350 C357 0.950 . S
C351 C349 1.387 . S
C351 C353 1.390 . S
C351 H355 0.950 . S
H352 C348 0.950 . S
C353 C351 1.390 . S
C353 C354 1.387 . S
C353 H356 0.950 . S
C354 C353 1.387 . S
C354 C357 1.387 . S
H355 C351 0.950 . S
H356 C353 0.950 . S
C357 C348 1.390 . S
C357 H350 0.950 . S
C357 C354 1.387 . S
C358 C359 1.387 . S
C358 H362 0.950 . S
C358 C367 1.390 . S
C359 C358 1.387 . S
C359 C361 1.387 . S
H360 C367 0.950 . S
C361 C359 1.387 . S
C361 C363 1.390 . S
C361 H365 0.950 . S
H362 C358 0.950 . S
C363 C361 1.390 . S
C363 C364 1.387 . S
C363 H366 0.950 . S
C364 C363 1.387 . S
C364 C367 1.387 . S
H365 C361 0.950 . S
H366 C363 0.950 . S
C367 C358 1.390 . S
C367 H360 0.950 . S
C367 C364 1.387 . S
C368 C369 1.387 . S
C368 H372 0.950 . S
C368 C377 1.390 . S
C369 C368 1.387 . S
C369 C371 1.387 . S
H370 C377 0.950 . S
C371 C369 1.387 . S
C371 C373 1.390 . S
C371 H375 0.950 . S
H372 C368 0.950 . S
C373 C371 1.390 . S
C373 C374 1.387 . S
C373 H376 0.950 . S
C374 C373 1.387 . S
C374 C377 1.387 . S
H375 C371 0.950 . S
H376 C373 0.950 . S
C377 C368 1.390 . S
C377 H370 0.950 . S
C377 C374 1.387 . S
C378 C379 1.387 . S
C378 H382 0.950 . S
C378 C387 1.390 . S
C379 C378 1.387 . S
C379 C381 1.387 . S
H380 C387 0.950 . S
C381 C379 1.387 . S
C381 C383 1.390 . S
C381 H385 0.950 . S
H382 C378 0.950 . S
C383 C381 1.390 . S
C383 C384 1.387 . S
C383 H386 0.950 . S
C384 C383 1.387 . S
C384 C387 1.387 . S
H385 C381 0.950 . S
H386 C383 0.950 . S
C387 C378 1.390 . S
C387 H380 0.950 . S
C387 C384 1.387 . S
C388 C389 1.387 . S
C388 H392 0.950 . S
C388 C397 1.390 . S
C389 C388 1.387 . S
C389 C391 1.387 . S
H390 C397 0.950 . S
C391 C389 1.387 . S
C391 C393 1.390 . S
C391 H395 0.950 . S
H392 C388 0.950 . S
C393 C391 1.390 . S
C393 C394 1.387 . S
C393 H396 0.950 . S
C394 C393 1.387 . S
C394 C397 1.387 . S
H395 C391 0.950 . S
H396 C393 0.950 . S
C397 C388 1.390 . S
C397 H390 0.950 . S
C397 C394 1.387 . S
C398 C399 1.387 . S
C398 H402 0.950 . S
C398 C407 1.390 . S
C399 C398 1.387 . S
C399 C401 1.387 . S
H400 C407 0.950 . S
C401 C399 1.387 . S
C401 C403 1.390 . S
C401 H405 0.950 . S
H402 C398 0.950 . S
C403 C401 1.390 . S
C403 C404 1.387 . S
C403 H406 0.950 . S
C404 C403 1.387 . S
C404 C407 1.387 . S
H405 C401 0.950 . S
H406 C403 0.950 . S
C407 C398 1.390 . S
C407 H400 0.950 . S
C407 C404 1.387 . S
C408 C409 1.387 . S
C408 H412 0.950 . S
C408 C417 1.390 . S
C409 C408 1.387 . S
C409 C411 1.387 . S
H410 C417 0.950 . S
C411 C409 1.387 . S
C411 C413 1.390 . S
C411 H415 0.950 . S
H412 C408 0.950 . S
C413 C411 1.390 . S
C413 C414 1.387 . S
C413 H416 0.950 . S
C414 C413 1.387 . S
C414 C417 1.387 . S
H415 C411 0.950 . S
H416 C413 0.950 . S
C417 C408 1.390 . S
C417 H410 0.950 . S
C417 C414 1.387 . S
C418 C419 1.387 . S
C418 H422 0.950 . S
C418 C427 1.390 . S
C419 C418 1.387 . S
C419 C421 1.387 . S
H420 C427 0.950 . S
C421 C419 1.387 . S
C421 C423 1.390 . S
C421 H425 0.950 . S
H422 C418 0.950 . S
C423 C421 1.390 . S
C423 C424 1.387 . S
C423 H426 0.950 . S
C424 C423 1.387 . S
C424 C427 1.387 . S
H425 C421 0.950 . S
H426 C423 0.950 . S
C427 C418 1.390 . S
C427 H420 0.950 . S
C427 C424 1.387 . S
C428 C429 1.387 . S
C428 H432 0.950 . S
C428 C437 1.390 . S
C429 C428 1.387 . S
C429 C431 1.387 . S
H430 C437 0.950 . S
C431 C429 1.387 . S
C431 C433 1.390 . S
C431 H435 0.950 . S
H432 C428 0.950 . S
C433 C431 1.390 . S
C433 C434 1.387 . S
C433 H436 0.950 . S
C434 C433 1.387 . S
C434 C437 1.387 . S
H435 C431 0.950 . S
H436 C433 0.950 . S
C437 C428 1.390 . S
C437 H430 0.950 . S
C437 C434 1.387 . S
C438 C439 1.387 . S
C438 H442 0.950 . S
C438 C447 1.390 . S
C439 C438 1.387 . S
C439 C441 1.387 . S
H440 C447 0.950 . S
C441 C439 1.387 . S
C441 C443 1.390 . S
C441 H445 0.950 . S
H442 C438 0.950 . S
C443 C441 1.390 . S
C443 C444 1.387 . S
C443 H446 0.950 . S
C444 C443 1.387 . S
C444 C447 1.387 . S
H445 C441 0.950 . S
H446 C443 0.950 . S
C447 C438 1.390 . S
C447 H440 0.950 . S
C447 C444 1.387 . S
C448 C449 1.387 . S
C448 H452 0.950 . S
C448 C457 1.390 . S
C449 C448 1.387 . S
C449 C451 1.387 . S
H450 C457 0.950 . S
C451 C449 1.387 . S
C451 C453 1.390 . S
C451 H455 0.950 . S
H452 C448 0.950 . S
C453 C451 1.390 . S
C453 C454 1.387 . S
C453 H456 0.950 . S
C454 C453 1.387 . S
C454 C457 1.387 . S
H455 C451 0.950 . S
H456 C453 0.950 . S
C457 C448 1.390 . S
C457 H450 0.950 . S
C457 C454 1.387 . S
C458 C459 1.387 . S
C458 H462 0.950 . S
C458 C467 1.390 . S
C459 C458 1.387 . S
C459 C461 1.387 . S
H460 C467 0.950 . S
C461 C459 1.387 . S
C461 C463 1.390 . S
C461 H465 0.950 . S
H462 C458 0.950 . S
C463 C461 1.390 . S
C463 C464 1.387 . S
C463 H466 0.950 . S
C464 C463 1.387 . S
C464 C467 1.387 . S
H465 C461 0.950 . S
H466 C463 0.950 . S
C467 C458 1.390 . S
C467 H460 0.950 . S
C467 C464 1.387 . S
C468 C469 1.387 . S
C468 H472 0.950 . S
C468 C477 1.390 . S
C469 C468 1.387 . S
C469 C471 1.387 . S
H470 C477 0.950 . S
C471 C469 1.387 . S
C471 C473 1.390 . S
C471 H475 0.950 . S
H472 C468 0.950 . S
C473 C471 1.390 . S
C473 C474 1.387 . S
C473 H476 0.950 . S
C474 C473 1.387 . S
C474 C477 1.387 . S
H475 C471 0.950 . S
H476 C473 0.950 . S
C477 C468 1.390 . S
C477 H470 0.950 . S
C477 C474 1.387 . S
C478 C479 1.387 . S
C478 H482 0.950 . S
C478 C487 1.390 . S
C479 C478 1.387 . S
C479 C481 1.387 . S
H480 C487 0.950 . S
C481 C479 1.387 . S
C481 C483 1.390 . S
C481 H485 0.950 . S
H482 C478 0.950 . S
C483 C481 1.390 . S
C483 C484 1.387 . S
C483 H486 0.950 . S
C484 C483 1.387 . S
C484 C487 1.387 . S
H485 C481 0.950 . S
H486 C483 0.950 . S
C487 C478 1.390 . S
C487 H480 0.950 . S
C487 C484 1.387 . S
C249 C5 1.010 . S
C254 C95 1.262 . S
C259 C18 1.062 . S
C264 C144 1.200 . S
C274 C170 2.365 . S
C269 C30 2.394 . S
C279 C41 2.200 . S
C284 C218 2.157 . S
C294 C130 2.293 . S
C289 C7 2.033 . S
C304 C98 0.903 . S
C299 C16 0.867 . S
C314 C219 2.006 . S
C309 C29 1.965 . S
C324 C187 1.376 . S
C319 C38 1.251 . S
C329 C8 1.482 . S
C334 C215 1.619 . S
C344 C147 2.542 1_556 S
C339 C27 2.361 . S
C349 C40 2.455 . S
C354 C99 2.464 . S
C359 C19 1.139 . S
C364 C184 1.120 . S
C374 C104 1.260 . S
C369 C51 0.991 . S
C379 C62 1.536 . S
C384 C135 1.443 . S
C389 C74 2.492 . S
C394 C179 2.471 . S
C399 C84 2.267 . S
C404 C227 2.356 . S
C409 C49 1.764 . S
C414 C139 2.491 1_556 S
C424 C107 1.050 . S
C419 C63 1.055 . S
C434 C210 1.859 . S
C429 C71 1.765 . S
C444 C178 1.530 . S
C439 C85 1.512 . S
C449 C52 1.552 . S
C454 C224 1.696 . S
C464 C138 2.634 . S
C459 C73 2.704 . S
C474 C90 2.082 . S
C469 C82 1.777 . S
C479 C60 0.990 . S
C484 C175 1.075 . S
