# Generated by pormake.
# Topology soc, (4,6)-cn, num edge types: 1
# Building blocks:
#     Node 0, Type 0, BuildingBlock: ESEHIV_clean_sbu_0, # of connection points: 4
#     Node 1, Type 0, BuildingBlock: ESEHIV_clean_sbu_0, # of connection points: 4
#     Node 2, Type 0, BuildingBlock: ESEHIV_clean_sbu_0, # of connection points: 4
#     Node 3, Type 0, BuildingBlock: ESEHIV_clean_sbu_0, # of connection points: 4
#     Node 4, Type 0, BuildingBlock: ESEHIV_clean_sbu_0, # of connection points: 4
#     Node 5, Type 0, BuildingBlock: ESEHIV_clean_sbu_0, # of connection points: 4
#     Node 6, Type 0, BuildingBlock: ESEHIV_clean_sbu_0, # of connection points: 4
#     Node 7, Type 0, BuildingBlock: ESEHIV_clean_sbu_0, # of connection points: 4
#     Node 8, Type 0, BuildingBlock: ESEHIV_clean_sbu_0, # of connection points: 4
#     Node 9, Type 0, BuildingBlock: ESEHIV_clean_sbu_0, # of connection points: 4
#     Node 10, Type 0, BuildingBlock: ESEHIV_clean_sbu_0, # of connection points: 4
#     Node 11, Type 0, BuildingBlock: ESEHIV_clean_sbu_0, # of connection points: 4
#     Node 12, Type 1, BuildingBlock: PAMTUU_clean_sbu_0, # of connection points: 6
#     Node 13, Type 1, BuildingBlock: PAMTUU_clean_sbu_0, # of connection points: 6
#     Node 14, Type 1, BuildingBlock: PAMTUU_clean_sbu_0, # of connection points: 6
#     Node 15, Type 1, BuildingBlock: PAMTUU_clean_sbu_0, # of connection points: 6
#     Node 16, Type 1, BuildingBlock: PAMTUU_clean_sbu_0, # of connection points: 6
#     Node 17, Type 1, BuildingBlock: PAMTUU_clean_sbu_0, # of connection points: 6
#     Node 18, Type 1, BuildingBlock: PAMTUU_clean_sbu_0, # of connection points: 6
#     Node 19, Type 1, BuildingBlock: PAMTUU_clean_sbu_0, # of connection points: 6
#     Edge 20, Type (0, 1), BuildingBlock: ZUJKAS_clean_linker_0, # of connection points: 2
#     Edge 21, Type (0, 1), BuildingBlock: ZUJKAS_clean_linker_0, # of connection points: 2
#     Edge 22, Type (0, 1), BuildingBlock: ZUJKAS_clean_linker_0, # of connection points: 2
#     Edge 23, Type (0, 1), BuildingBlock: ZUJKAS_clean_linker_0, # of connection points: 2
#     Edge 24, Type (0, 1), BuildingBlock: ZUJKAS_clean_linker_0, # of connection points: 2
#     Edge 25, Type (0, 1), BuildingBlock: ZUJKAS_clean_linker_0, # of connection points: 2
#     Edge 26, Type (0, 1), BuildingBlock: ZUJKAS_clean_linker_0, # of connection points: 2
#     Edge 27, Type (0, 1), BuildingBlock: ZUJKAS_clean_linker_0, # of connection points: 2
#     Edge 28, Type (0, 1), BuildingBlock: ZUJKAS_clean_linker_0, # of connection points: 2
#     Edge 29, Type (0, 1), BuildingBlock: ZUJKAS_clean_linker_0, # of connection points: 2
#     Edge 30, Type (0, 1), BuildingBlock: ZUJKAS_clean_linker_0, # of connection points: 2
#     Edge 31, Type (0, 1), BuildingBlock: ZUJKAS_clean_linker_0, # of connection points: 2
#     Edge 32, Type (0, 1), BuildingBlock: ZUJKAS_clean_linker_0, # of connection points: 2
#     Edge 33, Type (0, 1), BuildingBlock: ZUJKAS_clean_linker_0, # of connection points: 2
#     Edge 34, Type (0, 1), BuildingBlock: ZUJKAS_clean_linker_0, # of connection points: 2
#     Edge 35, Type (0, 1), BuildingBlock: ZUJKAS_clean_linker_0, # of connection points: 2
#     Edge 36, Type (0, 1), BuildingBlock: ZUJKAS_clean_linker_0, # of connection points: 2
#     Edge 37, Type (0, 1), BuildingBlock: ZUJKAS_clean_linker_0, # of connection points: 2
#     Edge 38, Type (0, 1), BuildingBlock: ZUJKAS_clean_linker_0, # of connection points: 2
#     Edge 39, Type (0, 1), BuildingBlock: ZUJKAS_clean_linker_0, # of connection points: 2
#     Edge 40, Type (0, 1), BuildingBlock: ZUJKAS_clean_linker_0, # of connection points: 2
#     Edge 41, Type (0, 1), BuildingBlock: ZUJKAS_clean_linker_0, # of connection points: 2
#     Edge 42, Type (0, 1), BuildingBlock: ZUJKAS_clean_linker_0, # of connection points: 2
#     Edge 43, Type (0, 1), BuildingBlock: ZUJKAS_clean_linker_0, # of connection points: 2
#     Edge 44, Type (0, 1), BuildingBlock: ZUJKAS_clean_linker_0, # of connection points: 2
#     Edge 45, Type (0, 1), BuildingBlock: ZUJKAS_clean_linker_0, # of connection points: 2
#     Edge 46, Type (0, 1), BuildingBlock: ZUJKAS_clean_linker_0, # of connection points: 2
#     Edge 47, Type (0, 1), BuildingBlock: ZUJKAS_clean_linker_0, # of connection points: 2
#     Edge 48, Type (0, 1), BuildingBlock: ZUJKAS_clean_linker_0, # of connection points: 2
#     Edge 49, Type (0, 1), BuildingBlock: ZUJKAS_clean_linker_0, # of connection points: 2
#     Edge 50, Type (0, 1), BuildingBlock: ZUJKAS_clean_linker_0, # of connection points: 2
#     Edge 51, Type (0, 1), BuildingBlock: ZUJKAS_clean_linker_0, # of connection points: 2
#     Edge 52, Type (0, 1), BuildingBlock: ZUJKAS_clean_linker_0, # of connection points: 2
#     Edge 53, Type (0, 1), BuildingBlock: ZUJKAS_clean_linker_0, # of connection points: 2
#     Edge 54, Type (0, 1), BuildingBlock: ZUJKAS_clean_linker_0, # of connection points: 2
#     Edge 55, Type (0, 1), BuildingBlock: ZUJKAS_clean_linker_0, # of connection points: 2
#     Edge 56, Type (0, 1), BuildingBlock: ZUJKAS_clean_linker_0, # of connection points: 2
#     Edge 57, Type (0, 1), BuildingBlock: ZUJKAS_clean_linker_0, # of connection points: 2
#     Edge 58, Type (0, 1), BuildingBlock: ZUJKAS_clean_linker_0, # of connection points: 2
#     Edge 59, Type (0, 1), BuildingBlock: ZUJKAS_clean_linker_0, # of connection points: 2
#     Edge 60, Type (0, 1), BuildingBlock: ZUJKAS_clean_linker_0, # of connection points: 2
#     Edge 61, Type (0, 1), BuildingBlock: ZUJKAS_clean_linker_0, # of connection points: 2
#     Edge 62, Type (0, 1), BuildingBlock: ZUJKAS_clean_linker_0, # of connection points: 2
#     Edge 63, Type (0, 1), BuildingBlock: ZUJKAS_clean_linker_0, # of connection points: 2
#     Edge 64, Type (0, 1), BuildingBlock: ZUJKAS_clean_linker_0, # of connection points: 2
#     Edge 65, Type (0, 1), BuildingBlock: ZUJKAS_clean_linker_0, # of connection points: 2
#     Edge 66, Type (0, 1), BuildingBlock: ZUJKAS_clean_linker_0, # of connection points: 2
#     Edge 67, Type (0, 1), BuildingBlock: ZUJKAS_clean_linker_0, # of connection points: 2
# Relax obj value: 0.112
# Max RMSD: 0.197
# Mean RMSD: 0.147
data_MOF--net-soc--node1-ESEHIV_clean_sbu_0--node2-PAMTUU_clean_sbu_0--edge1-ZUJKAS_clean_linker_0
_symmetry_space_group_name_H-M    P1
_symmetry_Int_Tables_number       1
_symmetry_cell_setting            triclinic
loop_
_symmetry_equiv_pos_as_xyz
'x, y, z'
_cell_length_a     64.476403
_cell_length_b     63.017463
_cell_length_c     55.309273
_cell_angle_alpha  84.428221
_cell_angle_beta   83.937561
_cell_angle_gamma 74.564251
loop_
_atom_site_label
_atom_site_type_symbol
_atom_site_fract_x
_atom_site_fract_y
_atom_site_fract_z
_atom_type_partial_charge
Cu0 Cu 0.04252 0.02603 0.34696 0.0
N1 N 0.05349 0.04196 0.367 0.0
N2 N 0.0739 0.06271 0.37762 0.0
C3 C 0.07222 0.04786 0.36233 0.0
C4 C 0.05547 0.06622 0.39245 0.0
C5 C 0.04286 0.05362 0.3857 0.0
O6 O 0.06678 0.00537 0.33055 0.0
C7 C 1.00762 0.0468 0.31671 0.0
O8 O 1.00408 0.02725 0.31666 0.0
H9 H 0.08387 0.0421 0.34728 0.0
H10 H 0.02646 0.05423 0.39276 0.0
N11 N 0.02586 0.00881 0.365 0.0
N12 N 1.00744 0.9831 0.37289 0.0
C13 C 1.01919 0.9929 0.35596 0.0
C14 C 1.01848 0.00874 0.3887 0.0
C15 C 1.00706 0.99292 0.39361 0.0
C16 C 0.07866 0.99184 0.34529 0.0
O17 O 0.07382 0.99377 0.3688 0.0
H18 H 1.02311 0.98846 0.33729 0.0
H19 H 1.02121 0.01928 0.40163 0.0
O20 O 1.02408 0.04867 0.32635 0.0
H21 H 0.05072 0.07822 0.40607 0.0
H22 H 0.99881 0.98924 0.41095 0.0
Cu23 Cu 0.04377 0.02196 0.75363 0.0
N24 N 0.03247 0.00491 0.73522 0.0
N25 N 1.01262 0.98299 0.72603 0.0
C26 C 1.01674 0.99489 0.74319 0.0
C27 C 0.02644 0.98568 0.70654 0.0
C28 C 0.03865 0.99915 0.71227 0.0
O29 O 1.02022 0.04082 0.773 0.0
C30 C 0.08283 0.99214 0.75806 0.0
O31 O 0.08268 0.99673 0.73439 0.0
H32 H 1.00847 0.99648 0.76124 0.0
H33 H 0.05138 0.00406 0.70065 0.0
N34 N 0.05677 0.04148 0.73419 0.0
N35 N 0.0762 0.0662 0.72552 0.0
C36 C 0.07025 0.05158 0.74248 0.0
C37 C 0.05395 0.04998 0.71114 0.0
C38 C 0.06606 0.06517 0.70567 0.0
C39 C 1.00402 0.05116 0.76135 0.0
O40 O 1.0039 0.04723 0.73848 0.0
H41 H 0.07542 0.0483 0.76077 0.0
H42 H 0.04339 0.04591 0.6994 0.0
O43 O 0.06645 1.00176 0.77167 0.0
H44 H 0.02807 0.97807 0.68949 0.0
H45 H 0.06674 0.0752 0.68872 0.0
Cu46 Cu 0.27371 0.04999 0.08468 0.0
N47 N 0.25049 0.0434 0.07249 0.0
N48 N 0.23339 0.02373 0.05424 0.0
C49 C 0.25152 0.02375 0.06432 0.0
C50 C 0.22037 0.04428 0.05608 0.0
C51 C 0.23096 0.0564 0.06749 0.0
O52 O 0.29014 0.02239 0.10037 0.0
C53 C 0.27858 0.08241 0.04946 0.0
O54 O 0.25975 0.09145 0.06069 0.0
H55 H 0.26582 0.01006 0.06462 0.0
H56 H 0.22512 0.07363 0.07113 0.0
N57 N 0.26442 0.07036 0.10839 0.0
N58 N 0.26576 0.09431 0.135 0.0
C59 C 0.27683 0.08124 0.11749 0.0
C60 C 0.2448 0.07675 0.12045 0.0
C61 C 0.24559 0.09151 0.13694 0.0
C62 C 0.27922 0.01446 0.11784 0.0
O63 O 0.25921 0.02555 0.1234 0.0
H64 H 0.29377 0.07921 0.1117 0.0
H65 H 0.23098 0.07088 0.11767 0.0
O66 O 0.2889 0.0632 0.05733 0.0
H67 H 0.20459 0.05024 0.04921 0.0
H68 H 0.23233 0.09963 0.1493 0.0
Cu69 Cu 0.06581 0.30483 0.08472 0.0
N70 N 0.07656 0.32137 0.05887 0.0
N71 N 0.09619 0.32751 0.02436 0.0
C72 C 0.09208 0.31236 0.04188 0.0
C73 C 0.08272 0.3469 0.03065 0.0
C74 C 0.07049 0.34304 0.05188 0.0
O75 O 0.08951 0.29098 0.1055 0.0
C76 C 0.03555 0.29712 0.05835 0.0
O77 O 0.02994 0.31868 0.05924 0.0
H78 H 0.10016 0.29493 0.04243 0.0
H79 H 0.05779 0.35509 0.06116 0.0
N80 N 0.04379 0.32189 0.1049 0.0
N81 N 1.0139 0.32956 0.13044 0.0
C82 C 0.02768 0.31427 0.11693 0.0
C83 C 0.04027 0.34275 0.11114 0.0
C84 C 1.02173 0.34758 0.12681 0.0
C85 C 0.09927 0.3045 0.11188 0.0
O86 O 0.09318 0.32522 0.10342 0.0
H87 H 0.026 0.29783 0.11542 0.0
H88 H 0.05051 0.35362 0.10498 0.0
O89 O 0.05217 0.28596 0.06893 0.0
H90 H 0.08135 0.36263 0.02032 0.0
H91 H 1.0148 0.363 0.13518 0.0
Cu92 Cu 0.79908 0.00235 0.01265 0.0
N93 N 0.81623 0.01872 0.99432 0.0
N94 N 0.82284 0.04743 0.97066 0.0
C95 C 0.80812 0.03615 0.97899 0.0
C96 C 0.84107 0.03642 0.98109 0.0
C97 C 0.8369 0.01878 0.99582 0.0
O98 O 0.7818 0.02279 0.03595 0.0
C99 C 0.79576 0.98174 0.97248 0.0
O100 O 0.81628 0.98164 0.97036 0.0
H101 H 0.79143 0.04079 0.97477 0.0
H102 H 0.84779 0.00761 1.00774 0.0
N103 N 0.81485 0.97768 0.03044 0.0
N104 N 0.82128 0.9506 0.06016 0.0
C105 C 0.80667 0.9682 0.05074 0.0
C106 C 0.83533 0.96558 0.02653 0.0
C107 C 0.83937 0.94888 0.04488 0.0
C108 C 0.79282 0.0265 0.05219 0.0
O109 O 0.8133 0.01577 0.05221 0.0
H110 H 0.79014 0.9741 0.05819 0.0
H111 H 0.84649 0.9686 1.01141 0.0
O112 O 0.78372 0.99105 0.99032 0.0
H113 H 0.856 0.04142 0.97933 0.0
H114 H 0.85454 0.93661 0.04687 0.0
Cu115 Cu 0.03636 0.7334 0.01672 0.0
N116 N 1.02381 0.72006 0.99541 0.0
N117 N 0.99997 0.71544 0.97103 0.0
C118 C 1.00324 0.72664 0.98933 0.0
C119 C 1.01931 0.70133 0.9654 0.0
C120 C 0.03396 0.70436 0.98027 0.0
O121 O 1.01358 0.74835 0.04052 0.0
C122 C 0.06835 0.75802 1.00215 0.0
O123 O 0.07018 0.75852 0.02549 0.0
H124 H 0.99112 0.73985 0.99771 0.0
H125 H 0.05109 0.69656 0.9791 0.0
N126 N 0.05589 0.71257 0.03523 0.0
N127 N 0.08002 0.70082 0.06301 0.0
C128 C 0.0638 0.71747 0.05491 0.0
C129 C 0.06708 0.69179 0.03101 0.0
C130 C 0.08205 0.68451 0.04809 0.0
C131 C 1.00319 0.73538 0.05227 0.0
O132 O 1.00826 0.71473 0.04666 0.0
H133 H 0.05867 0.73358 0.06209 0.0
H134 H 0.06524 0.68283 0.01605 0.0
O135 O 0.05342 0.75057 0.99557 0.0
H136 H 1.02295 0.69048 0.95064 0.0
H137 H 0.094 0.66877 0.04885 0.0
Cu138 Cu 0.53949 0.52155 0.85098 0.0
N139 N 0.55305 0.53497 0.87082 0.0
N140 N 0.5708 0.55791 0.88197 0.0
C141 C 0.56087 0.55259 0.86401 0.0
C142 C 0.56894 0.54313 0.90091 0.0
C143 C 0.55803 0.52892 0.89393 0.0
O144 O 0.56157 0.49926 0.83386 0.0
C145 C 0.50476 0.54275 0.82202 0.0
O146 O 0.5018 0.5229 0.82231 0.0
H147 H 0.55944 0.56121 0.84612 0.0
H148 H 0.55435 0.51494 0.90475 0.0
N149 N 0.52134 0.5069 0.87008 0.0
N150 N 0.49996 0.48412 0.87941 0.0
C151 C 0.51579 0.4892 0.86382 0.0
C152 C 0.50887 0.51316 0.89053 0.0
C153 C 0.4957 0.49905 0.89642 0.0
C154 C 0.57968 0.50207 0.82464 0.0
O155 O 0.58288 0.5219 0.82322 0.0
H156 H 0.52266 0.48083 0.84752 0.0
H157 H 0.50864 0.52757 0.8998 0.0
O158 O 0.52135 0.54506 0.83104 0.0
H159 H 0.57559 0.5422 0.91827 0.0
H160 H 0.48314 0.50048 0.91124 0.0
Cu161 Cu 0.54995 0.52906 0.24329 0.0
N162 N 0.53643 0.51323 0.22592 0.0
N163 N 0.51435 0.49292 0.21864 0.0
C164 C 0.52006 0.50449 0.23502 0.0
C165 C 0.52773 0.49456 0.19842 0.0
C166 C 0.54131 0.50704 0.20297 0.0
O167 O 0.52774 0.5495 0.26244 0.0
C168 C 0.58627 0.49561 0.24832 0.0
O169 O 0.58564 0.49882 0.22455 0.0
H170 H 0.51261 0.50662 0.25338 0.0
H171 H 0.55418 0.51086 0.1906 0.0
N172 N 0.56497 0.54625 0.22281 0.0
N173 N 0.5881 0.56706 0.21192 0.0
C174 C 0.5806 0.55421 0.22985 0.0
C175 C 0.56232 0.55435 0.19961 0.0
C176 C 0.57661 0.56717 0.19282 0.0
C177 C 0.51272 0.56162 0.25018 0.0
O178 O 0.51334 0.55882 0.22686 0.0
H179 H 0.58582 0.55112 0.24811 0.0
H180 H 0.55058 0.5515 0.18857 0.0
O181 O 0.57132 0.50764 0.26174 0.0
H182 H 0.52821 0.48677 0.18171 0.0
H183 H 0.57828 0.57595 0.17521 0.0
Cu184 Cu 0.79384 0.54771 0.58082 0.0
N185 N 0.79418 0.56935 0.55532 0.0
N186 N 0.80118 0.59004 0.52187 0.0
C187 C 0.80744 0.57038 0.5349 0.0
C188 C 0.78337 0.6015 0.53461 0.0
C189 C 0.77922 0.58881 0.55513 0.0
O190 O 0.78861 0.56339 0.61069 0.0
C191 C 0.76348 0.53339 0.55651 0.0
O192 O 0.76333 0.55072 0.54125 0.0
H193 H 0.82143 0.55721 0.52992 0.0
H194 H 0.76603 0.59332 0.56903 0.0
N195 N 0.81957 0.52553 0.58231 0.0
N196 N 0.83927 0.49173 0.59332 0.0
C197 C 0.81939 0.50466 0.58984 0.0
C198 C 0.84047 0.5259 0.58068 0.0
C199 C 0.8527 0.505 0.58774 0.0
C200 C 0.8021 0.5746 0.61271 0.0
O201 O 0.81805 0.57375 0.59566 0.0
H202 H 0.8047 0.49942 0.59449 0.0
H203 H 0.84633 0.54044 0.57588 0.0
O204 O 0.77284 0.53134 0.57611 0.0
H205 H 0.77371 0.61783 0.52935 0.0
H206 H 0.86992 0.50015 0.58947 0.0
Cu207 Cu 0.57054 0.77048 0.58034 0.0
N208 N 0.5922 0.75432 0.55839 0.0
N209 N 0.61837 0.7474 0.52772 0.0
C210 C 0.60552 0.76281 0.54202 0.0
C211 C 0.6129 0.72848 0.53558 0.0
C212 C 0.59683 0.73278 0.55439 0.0
O213 O 0.58476 0.78293 0.60267 0.0
C214 C 0.54433 0.78483 0.54332 0.0
O215 O 0.55275 0.76404 0.53894 0.0
H216 H 0.60527 0.78013 0.54017 0.0
H217 H 0.58878 0.72108 0.56406 0.0
N218 N 0.5536 0.75375 0.59925 0.0
N219 N 0.52517 0.74671 0.62277 0.0
C220 C 0.53276 0.76171 0.60769 0.0
C221 C 0.55946 0.73297 0.60933 0.0
C222 C 0.54201 0.72856 0.62372 0.0
C223 C 0.60026 0.76928 0.61286 0.0
O224 O 0.60529 0.74857 0.60751 0.0
H225 H 0.52365 0.77853 0.60357 0.0
H226 H 0.57545 0.72198 0.60702 0.0
O227 O 0.55035 0.79234 0.56119 0.0
H228 H 0.61994 0.71258 0.52827 0.0
H229 H 0.5419 0.7132 0.63426 0.0
Cu230 Cu 0.30601 0.50033 0.52252 0.0
N231 N 0.32289 0.51754 0.50491 0.0
N232 N 0.3304 0.54738 0.48425 0.0
C233 C 0.31561 0.5393 0.4987 0.0
C234 C 0.34773 0.52994 0.48132 0.0
C235 C 0.343 0.51155 0.49394 0.0
O236 O 0.28377 0.52086 0.54117 0.0
C237 C 0.30709 0.47033 0.48897 0.0
O238 O 0.32735 0.46439 0.49413 0.0
H239 H 0.29956 0.5489 0.50441 0.0
H240 H 0.35323 0.49489 0.4943 0.0
N241 N 0.32134 0.47826 0.54415 0.0
N242 N 0.32735 0.45221 0.57505 0.0
C243 C 0.31236 0.46651 0.56197 0.0
C244 C 0.34277 0.47116 0.54603 0.0
C245 C 0.34652 0.45504 0.56498 0.0
C246 C 0.28882 0.52602 0.56101 0.0
O247 O 0.3079 0.51618 0.56855 0.0
H248 H 0.29512 0.46849 0.56525 0.0
H249 H 0.35483 0.47744 0.53471 0.0
O250 O 0.29414 0.48632 0.49955 0.0
H251 H 0.36244 0.5302 0.47003 0.0
H252 H 0.36213 0.44647 0.57123 0.0
Cu253 Cu 0.53213 0.23569 0.52266 0.0
N254 N 0.55531 0.22042 0.50234 0.0
N255 N 0.58697 0.21419 0.47983 0.0
C256 C 0.57202 0.22861 0.49328 0.0
C257 C 0.57926 0.19621 0.48033 0.0
C258 C 0.55976 0.20007 0.49428 0.0
O259 O 0.54502 0.25302 0.54165 0.0
C260 C 0.50296 0.24013 0.488 0.0
O261 O 0.51303 0.2191 0.48771 0.0
H262 H 0.57302 0.24497 0.49641 0.0
H263 H 0.54962 0.18879 0.49818 0.0
N264 N 0.52077 0.21662 0.54497 0.0
N265 N 0.49987 0.20626 0.57632 0.0
C266 C 0.5038 0.22324 0.56131 0.0
C267 C 0.52793 0.19467 0.54976 0.0
C268 C 0.51504 0.18823 0.56904 0.0
C269 C 0.55976 0.24089 0.55443 0.0
O270 O 0.56353 0.21937 0.55408 0.0
H271 H 0.49507 0.24036 0.56264 0.0
H272 H 0.54191 0.18414 0.5405 0.0
O273 O 0.50866 0.25181 0.50244 0.0
H274 H 0.58723 0.18121 0.47155 0.0
H275 H 0.51689 0.17157 0.57715 0.0
Tb276 Tb 0.304 0.29281 0.28897 0.0
Tb277 Tb 0.27841 0.26727 0.33305 0.0
C278 C 0.25862 0.28489 0.28245 0.0
C279 C 0.33621 0.32971 0.25572 0.0
C280 C 0.36212 0.35992 0.25137 0.0
C281 C 0.34837 0.35986 0.23322 0.0
C282 C 0.33562 0.34486 0.23536 0.0
C283 C 0.3493 0.33016 0.27431 0.0
C284 C 0.36218 0.34506 0.27212 0.0
C285 C 0.32385 0.313 0.25667 0.0
O286 O 0.28219 0.31825 0.31031 0.0
O287 O 0.27895 0.29811 0.34669 0.0
O288 O 0.3116 0.261 0.343 0.0
O289 O 0.32231 0.28955 0.32059 0.0
O290 O 0.25101 0.26786 0.35747 0.0
O291 O 0.27829 0.23919 0.35669 0.0
O292 O 0.28759 0.24508 0.30417 0.0
O293 O 0.31515 0.25771 0.28303 0.0
O294 O 0.27761 0.28616 0.27212 0.0
O295 O 0.25493 0.2823 0.30633 0.0
C296 C 0.2778 0.31704 0.33408 0.0
O297 O 0.33248 0.29375 0.26734 0.0
O298 O 0.30316 0.31953 0.26269 0.0
C299 C 0.32482 0.27394 0.33841 0.0
C300 C 0.24391 0.2329 0.36514 0.0
C301 C 0.21733 0.20383 0.36509 0.0
C302 C 0.22329 0.20897 0.38715 0.0
C303 C 0.23647 0.22336 0.38714 0.0
C304 C 0.23791 0.22803 0.34307 0.0
C305 C 0.22471 0.21364 0.34304 0.0
C306 C 0.25844 0.2473 0.36539 0.0
C307 C 0.30425 0.24267 0.28798 0.0
H308 H 0.34753 0.37134 0.21724 0.0
H309 H 0.32552 0.34487 0.22089 0.0
H310 H 0.34994 0.31867 0.29028 0.0
H311 H 0.37268 0.34444 0.28636 0.0
H312 H 0.21764 0.20199 0.40446 0.0
H313 H 0.24096 0.22696 0.40433 0.0
H314 H 0.24364 0.23519 0.32587 0.0
H315 H 0.22062 0.20987 0.32574 0.0
Tb316 Tb 0.78825 0.26879 0.28193 0.0
Tb317 Tb 0.80622 0.28657 0.32824 0.0
C318 C 0.76736 0.31585 0.30096 0.0
C319 C 0.77715 0.23814 0.23044 0.0
C320 C 0.77928 0.20486 0.19876 0.0
C321 C 0.76888 0.22702 0.19244 0.0
C322 C 0.7678 0.24345 0.20815 0.0
C323 C 0.78836 0.21619 0.23643 0.0
C324 C 0.78939 0.19971 0.22074 0.0
C325 C 0.77263 0.2552 0.24814 0.0
O326 O 0.81947 0.27385 0.26812 0.0
O327 O 0.82061 0.29945 0.29444 0.0
O328 O 0.83106 0.2573 0.31787 0.0
O329 O 0.81083 0.24012 0.2983 0.0
O330 O 0.81732 0.31146 0.34098 0.0
O331 O 0.81505 0.28267 0.36439 0.0
O332 O 0.78565 0.26553 0.34396 0.0
O333 O 0.76407 0.27056 0.31254 0.0
O334 O 0.77445 0.30441 0.28171 0.0
O335 O 0.77493 0.30904 0.32228 0.0
C336 C 0.82755 0.28944 0.27423 0.0
O337 O 0.77051 0.24853 0.2711 0.0
O338 O 0.78308 0.27048 0.2446 0.0
C339 C 0.82845 0.23979 0.30862 0.0
C340 C 0.80932 0.31648 0.38277 0.0
C341 C 0.79259 0.3478 0.41789 0.0
C342 C 0.81442 0.33576 0.41676 0.0
C343 C 0.82267 0.32029 0.39937 0.0
C344 C 0.78738 0.32789 0.3842 0.0
C345 C 0.77908 0.3434 0.40162 0.0
C346 C 0.81897 0.30202 0.36293 0.0
C347 C 0.76771 0.26462 0.33539 0.0
H348 H 0.76075 0.23157 0.17582 0.0
H349 H 0.75891 0.26023 0.20329 0.0
H350 H 0.79572 0.21168 0.25355 0.0
H351 H 0.79784 0.18286 0.22597 0.0
H352 H 0.8254 0.33889 0.42867 0.0
H353 H 0.83969 0.31177 0.3984 0.0
H354 H 0.77682 0.32519 0.37148 0.0
H355 H 0.76215 0.35215 0.40214 0.0
Tb356 Tb 0.82478 0.7714 0.31136 0.0
Tb357 Tb 0.79641 0.7539 0.27417 0.0
C358 C 0.82348 0.72112 0.31355 0.0
C359 C 0.85898 0.80009 0.34105 0.0
C360 C 0.88709 0.82724 0.3431 0.0
C361 C 0.87476 0.82174 0.36414 0.0
C362 C 0.8609 0.80829 0.3631 0.0
C363 C 0.87108 0.80552 0.31988 0.0
C364 C 0.88507 0.81901 0.3209 0.0
C365 C 0.84393 0.78627 0.3408 0.0
O366 O 0.84811 0.76006 0.28055 0.0
O367 O 0.82528 0.75784 0.25188 0.0
O368 O 0.78829 0.78993 0.27041 0.0
O369 O 0.81927 0.79617 0.28124 0.0
O370 O 0.794 0.7341 0.24672 0.0
O371 O 0.76625 0.7591 0.2602 0.0
O372 O 0.78001 0.75121 0.31026 0.0
O373 O 0.79124 0.77749 0.32727 0.0
O374 O 0.82654 0.73752 0.32444 0.0
O375 O 0.81415 0.72365 0.29304 0.0
C376 C 0.84444 0.75799 0.25796 0.0
O377 O 0.82483 0.7963 0.33391 0.0
O378 O 0.85154 0.76712 0.33167 0.0
C379 C 0.80214 0.80208 0.26895 0.0
C380 C 0.75926 0.72776 0.24579 0.0
C381 C 0.73242 0.69962 0.24156 0.0
C382 C 0.72532 0.72247 0.23561 0.0
C383 C 0.73862 0.73632 0.23762 0.0
C384 C 0.7663 0.70504 0.25238 0.0
C385 C 0.75299 0.6911 0.25026 0.0
C386 C 0.77327 0.74282 0.2461 0.0
C387 C 0.77818 0.76456 0.32758 0.0
H388 H 0.87553 0.82814 0.38141 0.0
H389 H 0.85152 0.80439 0.37956 0.0
H390 H 0.8697 0.79937 0.30265 0.0
H391 H 0.89443 0.8228 0.3044 0.0
H392 H 0.70943 0.72969 0.22935 0.0
H393 H 0.73285 0.7538 0.23249 0.0
H394 H 0.78216 0.69799 0.25878 0.0
H395 H 0.75905 0.67359 0.25485 0.0
Tb396 Tb 0.31449 0.79601 0.32011 0.0
Tb397 Tb 0.29475 0.77016 0.28246 0.0
C398 C 0.26559 0.81157 0.30762 0.0
C399 C 0.34155 0.81583 0.3683 0.0
C400 C 0.36826 0.81694 0.40513 0.0
C401 C 0.34773 0.83179 0.40427 0.0
C402 C 0.33455 0.83125 0.38599 0.0
C403 C 0.36161 0.80027 0.3697 0.0
C404 C 0.37486 0.80085 0.38795 0.0
C405 C 0.32862 0.81792 0.34738 0.0
O406 O 0.30279 0.77097 0.34364 0.0
O407 O 0.30087 0.74775 0.31473 0.0
O408 O 0.3299 0.7581 0.27859 0.0
O409 O 0.33883 0.76509 0.31564 0.0
O410 O 0.27546 0.74938 0.27707 0.0
O411 O 0.295 0.76068 0.24689 0.0
O412 O 0.29527 0.80209 0.26397 0.0
O413 O 0.32327 0.80723 0.28281 0.0
O414 O 0.28304 0.81708 0.31192 0.0
O415 O 0.26649 0.79208 0.30032 0.0
C416 C 0.30108 0.75185 0.33752 0.0
O417 O 0.33876 0.81048 0.32701 0.0
O418 O 0.30982 0.81361 0.35158 0.0
C419 C 0.34326 0.75411 0.29592 0.0
C420 C 0.26307 0.75194 0.23762 0.0
C421 C 0.23132 0.74833 0.20788 0.0
C422 C 0.25272 0.74653 0.19812 0.0
C423 C 0.26842 0.74821 0.21288 0.0
C424 C 0.24146 0.75495 0.24713 0.0
C425 C 0.22575 0.75316 0.2324 0.0
C426 C 0.28059 0.74967 0.25362 0.0
C427 C 0.3106 0.81206 0.26487 0.0
H428 H 0.342 0.84412 0.41746 0.0
H429 H 0.31912 0.84339 0.38521 0.0
H430 H 0.36738 0.7882 0.35622 0.0
H431 H 0.39065 0.78928 0.38795 0.0
H432 H 0.25747 0.74325 0.1792 0.0
H433 H 0.28498 0.74574 0.20514 0.0
H434 H 0.23681 0.75777 0.26618 0.0
H435 H 0.20948 0.75449 0.24057 0.0
Tb436 Tb 0.27863 0.75941 0.78492 0.0
Tb437 Tb 0.30113 0.77811 0.8263 0.0
C438 C 0.26283 0.80896 0.79891 0.0
C439 C 0.26187 0.73409 0.73273 0.0
C440 C 0.26233 0.70662 0.69541 0.0
C441 C 0.24565 0.72598 0.69828 0.0
C442 C 0.24544 0.73957 0.71681 0.0
C443 C 0.27924 0.71548 0.72915 0.0
C444 C 0.27946 0.70184 0.71059 0.0
C445 C 0.25903 0.74664 0.75435 0.0
O446 O 0.30515 0.77089 0.76444 0.0
O447 O 0.32546 0.77325 0.79557 0.0
O448 O 0.31442 0.74227 0.8283 0.0
O449 O 0.30802 0.7338 0.79065 0.0
O450 O 0.31778 0.79986 0.83642 0.0
O451 O 0.30844 0.7757 0.8627 0.0
O452 O 0.26883 0.7777 0.84202 0.0
O453 O 0.26357 0.7507 0.82047 0.0
O454 O 0.25774 0.79153 0.79281 0.0
O455 O 0.28125 0.80748 0.80789 0.0
C456 C 0.32323 0.77269 0.77228 0.0
O457 O 0.26485 0.73546 0.77474 0.0
O458 O 0.26409 0.76549 0.75171 0.0
C459 C 0.31845 0.72893 0.81045 0.0
C460 C 0.30517 0.81082 0.87565 0.0
C461 C 0.2849 0.84529 0.90575 0.0
C462 C 0.30713 0.83504 0.90632 0.0
C463 C 0.31718 0.81793 0.89136 0.0
C464 C 0.283 0.82087 0.87507 0.0
C465 C 0.27294 0.83793 0.89001 0.0
C466 C 0.3157 0.79331 0.85944 0.0
C467 C 0.25825 0.76316 0.83904 0.0
H468 H 0.23213 0.73003 0.6871 0.0
H469 H 0.23187 0.75384 0.71942 0.0
H470 H 0.29213 0.71106 0.74124 0.0
H471 H 0.29272 0.68721 0.70855 0.0
H472 H 0.31685 0.84053 0.91797 0.0
H473 H 0.33433 0.8104 0.89189 0.0
H474 H 0.2735 0.81557 0.86296 0.0
H475 H 0.25578 0.84526 0.88933 0.0
Tb476 Tb 0.31759 0.26922 0.82294 0.0
Tb477 Tb 0.28924 0.24838 0.78965 0.0
C478 C 0.30716 0.22339 0.83758 0.0
C479 C 0.35313 0.29903 0.84886 0.0
C480 C 0.37845 0.32892 0.85081 0.0
C481 C 0.37994 0.31075 0.86803 0.0
C482 C 0.36737 0.29599 0.86706 0.0
C483 C 0.352 0.3167 0.8311 0.0
C484 C 0.3646 0.33155 0.83206 0.0
C485 C 0.33891 0.28419 0.8498 0.0
O486 O 0.33794 0.26102 0.78966 0.0
O487 O 0.32345 0.23376 0.77998 0.0
O488 O 0.29796 0.27541 0.76708 0.0
O489 O 0.30417 0.29601 0.79635 0.0
O490 O 0.2857 0.22072 0.774 0.0
O491 O 0.26414 0.25296 0.76665 0.0
O492 O 0.26543 0.27052 0.81297 0.0
O493 O 0.28678 0.27086 0.84357 0.0
O494 O 0.32206 0.23438 0.83489 0.0
O495 O 0.29045 0.22906 0.82447 0.0
C496 C 0.33901 0.24389 0.77744 0.0
O497 O 0.31876 0.29331 0.84596 0.0
O498 O 0.34652 0.26584 0.83909 0.0
C499 C 0.30047 0.29394 0.77384 0.0
C500 C 0.25045 0.22187 0.76407 0.0
C501 C 0.21854 0.19934 0.76067 0.0
C502 C 0.2209 0.21668 0.74346 0.0
C503 C 0.23672 0.22776 0.74513 0.0
C504 C 0.2476 0.20522 0.78194 0.0
C505 C 0.23176 0.19406 0.78025 0.0
C506 C 0.26868 0.23197 0.76327 0.0
C507 C 0.26771 0.27469 0.83524 0.0
H508 H 0.39075 0.308 0.88241 0.0
H509 H 0.3685 0.28237 0.88085 0.0
H510 H 0.34107 0.31928 0.81686 0.0
H511 H 0.36301 0.34544 0.81859 0.0
H512 H 0.21073 0.22146 0.72844 0.0
H513 H 0.23864 0.24057 0.73118 0.0
H514 H 0.25801 0.20037 0.79675 0.0
H515 H 0.23045 0.18072 0.79374 0.0
Tb516 Tb 0.81586 0.29467 0.81406 0.0
Tb517 Tb 0.79068 0.2749 0.7744 0.0
C518 C 0.76828 0.31782 0.80087 0.0
C519 C 0.85155 0.30276 0.86103 0.0
C520 C 0.88534 0.2916 0.89263 0.0
C521 C 0.86916 0.31158 0.89411 0.0
C522 C 0.85252 0.31706 0.87851 0.0
C523 C 0.86731 0.28253 0.85971 0.0
C524 C 0.88404 0.27698 0.87542 0.0
C525 C 0.83447 0.30992 0.8439 0.0
O526 O 0.81219 0.26344 0.83092 0.0
O527 O 0.78377 0.26029 0.81092 0.0
O528 O 0.82035 0.2494 0.77971 0.0
O529 O 0.84067 0.2685 0.79674 0.0
O530 O 0.76224 0.26671 0.76872 0.0
O531 O 0.78895 0.26193 0.74098 0.0
O532 O 0.80982 0.29454 0.75221 0.0
O533 O 0.81458 0.31651 0.78115 0.0
O534 O 0.78129 0.31117 0.81849 0.0
O535 O 0.77211 0.30834 0.7802 0.0
C536 C 0.79671 0.25407 0.82864 0.0
O537 O 0.84062 0.30872 0.82073 0.0
O538 O 0.81679 0.30358 0.84961 0.0
C539 C 0.83871 0.25095 0.78686 0.0
C540 C 0.75341 0.2677 0.72771 0.0
C541 C 0.72117 0.27395 0.69448 0.0
C542 C 0.74196 0.25999 0.68958 0.0
C543 C 0.7578 0.25687 0.70602 0.0
C544 C 0.73302 0.28253 0.73211 0.0
C545 C 0.71711 0.28563 0.71568 0.0
C546 C 0.76906 0.26091 0.74669 0.0
C547 C 0.81542 0.31179 0.75838 0.0
H548 H 0.86933 0.32306 0.9074 0.0
H549 H 0.84049 0.33271 0.8799 0.0
H550 H 0.86687 0.27123 0.84633 0.0
H551 H 0.89624 0.26152 0.87366 0.0
H552 H 0.74589 0.25105 0.67325 0.0
H553 H 0.7733 0.24527 0.70219 0.0
H554 H 0.72902 0.29109 0.74872 0.0
H555 H 0.70131 0.29641 0.7202 0.0
Tb556 Tb 0.79637 0.78924 0.7808 0.0
Tb557 Tb 0.7686 0.76687 0.82508 0.0
C558 C 0.74769 0.79061 0.7771 0.0
C559 C 0.83294 0.82152 0.74792 0.0
C560 C 0.86107 0.84941 0.74558 0.0
C561 C 0.84819 0.85006 0.72634 0.0
C562 C 0.83433 0.83622 0.72749 0.0
C563 C 0.8454 0.82104 0.76741 0.0
C564 C 0.85939 0.83479 0.76621 0.0
C565 C 0.8186 0.80672 0.74845 0.0
O566 O 0.77902 0.81575 0.80379 0.0
O567 O 0.77463 0.7952 0.83959 0.0
O568 O 0.80275 0.7537 0.83082 0.0
O569 O 0.81574 0.78199 0.81175 0.0
O570 O 0.74219 0.77028 0.85143 0.0
O571 O 0.76617 0.73915 0.84833 0.0
O572 O 0.77153 0.74671 0.79476 0.0
O573 O 0.80142 0.75459 0.77323 0.0
O574 O 0.76688 0.78887 0.76558 0.0
O575 O 0.74498 0.78694 0.80093 0.0
C576 C 0.77509 0.81411 0.82763 0.0
O577 O 0.82541 0.78698 0.75899 0.0
O578 O 0.79818 0.8153 0.75448 0.0
C579 C 0.81764 0.76468 0.82735 0.0
C580 C 0.73065 0.73768 0.86052 0.0
C581 C 0.69978 0.71292 0.86393 0.0
C582 C 0.71126 0.71343 0.88405 0.0
C583 C 0.72653 0.72571 0.88234 0.0
C584 C 0.71919 0.73745 0.84039 0.0
C585 C 0.70382 0.72521 0.8421 0.0
C586 C 0.74763 0.7494 0.8588 0.0
C587 C 0.78764 0.74225 0.77787 0.0
H588 H 0.84871 0.86138 0.71038 0.0
H589 H 0.82472 0.83694 0.71235 0.0
H590 H 0.84451 0.80989 0.78344 0.0
H591 H 0.86919 0.83361 0.78126 0.0
H592 H 0.70887 0.70387 0.90098 0.0
H593 H 0.7354 0.72557 0.89797 0.0
H594 H 0.72228 0.74655 0.82334 0.0
H595 H 0.69513 0.72537 0.82634 0.0
H596 H 0.08491 0.08202 0.41432 0.0
H597 H 0.11033 0.10504 0.41132 0.0
H598 H 0.12545 0.09393 0.33505 0.0
H599 H 0.09997 0.07105 0.3378 0.0
H600 H 0.16201 0.09075 0.36042 0.0
H601 H 0.09818 0.16774 0.3776 0.0
H602 H 0.09802 0.14554 0.40054 0.0
H603 H 0.09222 0.14287 0.37006 0.0
C604 C 0.09358 0.08451 0.39688 0.0
C605 C 0.09019 0.0748 0.37627 0.0
C606 C 0.1081 0.09768 0.3952 0.0
C607 C 0.11948 0.10152 0.37286 0.0
C608 C 0.11676 0.09125 0.35245 0.0
H609 H 0.18372 0.20721 0.33717 0.0
H610 H 0.16086 0.18172 0.33779 0.0
C611 C 0.10224 0.07805 0.35411 0.0
C612 C 0.13394 0.11653 0.37069 0.0
H613 H 0.13446 0.1698 0.37678 0.0
C614 C 0.15601 0.10804 0.36393 0.0
C615 C 0.126 0.13917 0.3749 0.0
C616 C 0.10228 0.14948 0.38096 0.0
C617 C 0.17043 0.12151 0.3618 0.0
C618 C 0.16259 0.14397 0.36686 0.0
C619 C 0.14046 0.15254 0.37311 0.0
C620 C 0.17706 0.1589 0.36587 0.0
C621 C 0.19386 0.11165 0.35384 0.0
C622 C 0.19368 0.15459 0.38154 0.0
C623 C 0.20683 0.16907 0.38115 0.0
C624 C 0.20355 0.18823 0.36516 0.0
C625 C 0.18688 0.19248 0.34947 0.0
C626 C 0.17371 0.178 0.3499 0.0
H627 H 0.19612 0.09626 0.34449 0.0
H628 H 0.20058 0.12354 0.34137 0.0
H629 H 0.20327 0.10748 0.3701 0.0
H630 H 0.19632 0.14017 0.39431 0.0
H631 H 0.21964 0.16518 0.39331 0.0
H632 H 1.0063 0.08994 0.32218 0.0
H633 H 0.97564 0.12219 0.31753 0.0
H634 H 0.93946 0.08177 0.2915 0.0
H635 H 0.96988 0.04929 0.29658 0.0
H636 H 0.95224 0.1432 0.27924 0.0
H637 H 0.90023 0.10787 0.34951 0.0
H638 H 0.9289 0.09588 0.34456 0.0
H639 H 0.91078 0.091 0.32441 0.0
C640 C 0.99194 0.0879 0.31516 0.0
C641 C 0.99051 0.06691 0.31002 0.0
C642 C 0.97439 0.10639 0.31255 0.0
C643 C 0.95503 0.10433 0.30475 0.0
C644 C 0.95401 0.08367 0.29818 0.0
H645 H 0.82936 0.1996 0.29253 0.0
H646 H 0.85991 0.16678 0.29049 0.0
C647 C 0.97152 0.06513 0.3009 0.0
C648 C 0.93578 0.12362 0.30439 0.0
H649 H 0.88392 0.14213 0.32932 0.0
C650 C 0.9373 0.14295 0.29017 0.0
C651 C 0.91627 0.12334 0.31873 0.0
C652 C 0.91392 0.10351 0.33535 0.0
C653 C 0.91986 0.16191 0.2898 0.0
C654 C 0.90045 0.16165 0.30426 0.0
C655 C 0.8988 0.14226 0.31821 0.0
C656 C 0.88187 0.18153 0.30568 0.0
C657 C 0.92226 0.18203 0.27374 0.0
C658 C 0.88394 0.20056 0.31537 0.0
C659 C 0.8665 0.21931 0.31671 0.0
C660 C 0.84656 0.21942 0.30841 0.0
C661 C 0.84445 0.20016 0.29908 0.0
C662 C 0.8619 0.18137 0.29785 0.0
H663 H 0.93579 0.17786 0.25937 0.0
H664 H 0.90716 0.19008 0.2649 0.0
H665 H 0.92565 0.19412 0.28507 0.0
H666 H 0.89907 0.20091 0.32196 0.0
H667 H 0.86877 0.23378 0.32404 0.0
H668 H 0.99833 0.95169 0.40629 0.0
H669 H 0.97966 0.92377 0.40002 0.0
H670 H 0.97326 0.94905 0.32512 0.0
H671 H 0.99203 0.97679 0.33121 0.0
H672 H 0.93897 0.92965 0.38704 0.0
H673 H 0.9976 0.88378 0.31742 0.0
H674 H 1.00404 0.90339 0.33516 0.0
H675 H 0.98863 0.9128 0.30911 0.0
C676 C 0.99298 0.95126 0.38849 0.0
C677 C 0.99681 0.96636 0.36921 0.0
C678 C 0.98239 0.93525 0.3849 0.0
C679 C 0.97542 0.93404 0.36197 0.0
C680 C 0.97905 0.94923 0.34276 0.0
H681 H 0.89418 0.86064 0.31013 0.0
H682 H 0.91633 0.88607 0.31419 0.0
C683 C 0.98975 0.96512 0.34629 0.0
C684 C 0.96347 0.91757 0.35847 0.0
H685 H 0.96335 0.87549 0.32387 0.0
C686 C 0.9444 0.91771 0.37335 0.0
C687 C 0.97053 0.90202 0.34053 0.0
C688 C 0.99143 0.90029 0.3248 0.0
C689 C 0.93204 0.90298 0.37054 0.0
C690 C 0.93902 0.88759 0.35252 0.0
C691 C 0.95804 0.88741 0.3376 0.0
C692 C 0.92684 0.87134 0.34926 0.0
C693 C 0.9114 0.90415 0.38663 0.0
C694 C 0.92593 0.85436 0.36734 0.0
C695 C 0.91351 0.8397 0.36499 0.0
C696 C 0.90167 0.84179 0.34452 0.0
C697 C 0.9032 0.85845 0.32604 0.0
C698 C 0.91574 0.87306 0.32837 0.0
H699 H 0.90612 0.91961 0.39626 0.0
H700 H 0.89824 0.90307 0.37575 0.0
H701 H 0.914 0.88998 0.40054 0.0
H702 H 0.93468 0.85258 0.38342 0.0
H703 H 0.91309 0.82679 0.37932 0.0
H704 H 0.10782 0.96397 0.37336 0.0
H705 H 0.13725 0.93284 0.3613 0.0
H706 H 0.121 0.94632 0.28672 0.0
H707 H 0.09127 0.97807 0.29872 0.0
H708 H 0.13469 0.89549 0.34005 0.0
H709 H 0.18635 0.94138 0.28142 0.0
H710 H 0.16433 0.95496 0.30211 0.0
H711 H 0.15889 0.94627 0.27401 0.0
C712 C 0.11045 0.9605 0.35432 0.0
C713 C 0.09713 0.97359 0.33699 0.0
C714 C 0.12732 0.94258 0.34747 0.0
C715 C 0.13143 0.93723 0.32312 0.0
C716 C 0.1183 0.9503 0.3056 0.0
H717 H 0.22629 0.81002 0.29347 0.0
H718 H 0.19261 0.83953 0.29435 0.0
C719 C 0.10131 0.9684 0.31247 0.0
C720 C 0.14939 0.91776 0.3167 0.0
H721 H 0.20007 0.90299 0.28776 0.0
C722 C 0.14889 0.89703 0.32835 0.0
C723 C 0.16794 0.91986 0.30157 0.0
C724 C 0.16963 0.9418 0.28913 0.0
C725 C 0.16671 0.87857 0.32602 0.0
C726 C 0.18545 0.88077 0.31132 0.0
C727 C 0.18566 0.90131 0.29896 0.0
C728 C 0.20571 0.86265 0.31037 0.0
C729 C 0.16572 0.85717 0.34035 0.0
C730 C 0.22433 0.86588 0.3188 0.0
C731 C 0.24354 0.84915 0.31826 0.0
C732 C 0.24467 0.82872 0.3092 0.0
C733 C 0.22597 0.82545 0.30079 0.0
C734 C 0.20668 0.8423 0.30129 0.0
H735 H 0.15185 0.85943 0.35444 0.0
H736 H 0.16392 0.84523 0.32775 0.0
H737 H 0.18083 0.84985 0.34943 0.0
H738 H 0.22398 0.8814 0.32595 0.0
H739 H 0.25757 0.85234 0.32488 0.0
H740 H 0.11929 0.97098 0.73211 0.0
H741 H 0.15011 0.94307 0.74653 0.0
H742 H 0.12118 0.94823 0.82039 0.0
H743 H 0.08962 0.9763 0.80587 0.0
H744 H 0.17937 0.94423 0.77874 0.0
H745 H 0.13336 0.88222 0.81156 0.0
H746 H 0.12191 0.90677 0.79282 0.0
H747 H 0.12446 0.90854 0.82453 0.0
C748 C 0.11933 0.9663 0.75148 0.0
C749 C 0.10181 0.97581 0.76781 0.0
C750 C 0.13711 0.95034 0.75971 0.0
C751 C 0.13794 0.94335 0.7845 0.0
C752 C 0.12075 0.95312 0.8011 0.0
H753 H 0.26012 0.84638 0.82234 0.0
H754 H 0.23042 0.88018 0.82266 0.0
C755 C 0.10277 0.96921 0.79281 0.0
C756 C 0.15669 0.92534 0.79221 0.0
H757 H 0.171 0.87074 0.81185 0.0
C758 C 0.17757 0.92823 0.78636 0.0
C759 C 0.15431 0.90445 0.80199 0.0
C760 C 0.13236 0.90011 0.80798 0.0
C761 C 0.19607 0.91058 0.78888 0.0
C762 C 0.19365 0.88951 0.79792 0.0
C763 C 0.17282 0.8869 0.80492 0.0
C764 C 0.21214 0.86946 0.79776 0.0
C765 C 0.21794 0.91432 0.78048 0.0
C766 C 0.21174 0.85215 0.78382 0.0
C767 C 0.22852 0.83287 0.78372 0.0
C768 C 0.24623 0.8304 0.79754 0.0
C769 C 0.24687 0.84788 0.81123 0.0
C770 C 0.22989 0.86721 0.81144 0.0
H771 H 0.21667 0.93037 0.7697 0.0
H772 H 0.22681 0.9143 0.79662 0.0
H773 H 0.22762 0.9009 0.7692 0.0
H774 H 0.1983 0.85351 0.77303 0.0
H775 H 0.22748 0.81978 0.77295 0.0
H776 H 0.08235 0.08129 0.7678 0.0
H777 H 0.10593 0.10464 0.77331 0.0
H778 H 0.12437 0.10724 0.69606 0.0
H779 H 0.10081 0.08368 0.69037 0.0
H780 H 0.15036 0.0961 0.76211 0.0
H781 H 0.10704 0.17242 0.71084 0.0
H782 H 0.09501 0.14984 0.72039 0.0
H783 H 0.11411 0.14813 0.69406 0.0
C784 C 0.09148 0.08668 0.75196 0.0
C785 C 0.08973 0.08051 0.72862 0.0
C786 C 0.10488 0.10015 0.75515 0.0
C787 C 0.11672 0.10788 0.73509 0.0
C788 C 0.11503 0.10182 0.71174 0.0
H789 H 0.21063 0.18508 0.71828 0.0
H790 H 0.18576 0.16305 0.71275 0.0
C791 C 0.10158 0.08834 0.70851 0.0
C792 C 0.13132 0.12168 0.73886 0.0
H793 H 0.14091 0.17229 0.72403 0.0
C794 C 0.14826 0.1128 0.75388 0.0
C795 C 0.12852 0.14344 0.72809 0.0
C796 C 0.11008 0.15415 0.71261 0.0
C797 C 0.16271 0.12496 0.75808 0.0
C798 C 0.15992 0.14672 0.7473 0.0
C799 C 0.14298 0.15561 0.73229 0.0
C800 C 0.17469 0.16038 0.75094 0.0
C801 C 0.18116 0.11423 0.77355 0.0
C802 C 0.1765 0.16643 0.77425 0.0
C803 C 0.19066 0.17915 0.77749 0.0
C804 C 0.20312 0.18619 0.75743 0.0
C805 C 0.20104 0.18025 0.73408 0.0
C806 C 0.18692 0.16755 0.73088 0.0
H807 H 0.18406 0.09599 0.77553 0.0
H808 H 0.19628 0.11837 0.76562 0.0
H809 H 0.17725 0.12043 0.79203 0.0
H810 H 0.16688 0.16142 0.78991 0.0
H811 H 0.19166 0.18368 0.79564 0.0
H812 H 1.0058 0.07803 0.79705 0.0
H813 H 0.97835 0.11181 0.80824 0.0
H814 H 0.93598 0.09901 0.75932 0.0
H815 H 0.96314 0.06561 0.74806 0.0
H816 H 0.96183 0.14758 0.77245 0.0
H817 H 0.89626 0.11516 0.82227 0.0
H818 H 0.92389 0.09875 0.81868 0.0
H819 H 0.90669 0.10256 0.79421 0.0
C820 C 0.9904 0.08216 0.78921 0.0
C821 C 0.98659 0.06918 0.77171 0.0
C822 C 0.97481 0.1015 0.7955 0.0
C823 C 0.95506 0.10782 0.78475 0.0
C824 C 0.95094 0.09431 0.76812 0.0
H825 H 0.8427 0.2132 0.76415 0.0
H826 H 0.87203 0.17949 0.76546 0.0
C827 C 0.96654 0.07525 0.76164 0.0
C828 C 0.93939 0.12943 0.78888 0.0
H829 H 0.88628 0.15268 0.8057 0.0
C830 C 0.9454 0.1488 0.78014 0.0
C831 C 0.91796 0.13092 0.79876 0.0
C832 C 0.91082 0.11076 0.80923 0.0
C833 C 0.93024 0.16951 0.7798 0.0
C834 C 0.90859 0.17091 0.7889 0.0
C835 C 0.90283 0.15161 0.79856 0.0
C836 C 0.89135 0.19197 0.78748 0.0
C837 C 0.9373 0.18952 0.76852 0.0
C838 C 0.89247 0.21034 0.79929 0.0
C839 C 0.87575 0.22981 0.79839 0.0
C840 C 0.85745 0.2312 0.78588 0.0
C841 C 0.85652 0.2128 0.77391 0.0
C842 C 0.87326 0.19344 0.77472 0.0
H843 H 0.95294 0.18488 0.75728 0.0
H844 H 0.92498 0.20012 0.7569 0.0
H845 H 0.93936 0.1994 0.78321 0.0
H846 H 0.90604 0.20949 0.80966 0.0
H847 H 0.87692 0.24351 0.80809 0.0
H848 H 0.99342 0.96741 0.76785 0.0
H849 H 0.96738 0.94515 0.77131 0.0
H850 H 0.97059 0.94575 0.69307 0.0
H851 H 0.9962 0.9685 0.68925 0.0
H852 H 0.92566 0.95587 0.74874 0.0
H853 H 0.9839 0.87881 0.71896 0.0
H854 H 0.9924 0.9009 0.73014 0.0
H855 H 0.98398 0.90358 0.69984 0.0
C856 C 0.98851 0.96308 0.75129 0.0
C857 C 0.99712 0.96983 0.72822 0.0
C858 C 0.97367 0.95022 0.75336 0.0
C859 C 0.96727 0.94362 0.73247 0.0
C860 C 0.9756 0.9504 0.70944 0.0
H861 H 0.886 0.86034 0.70542 0.0
H862 H 0.91075 0.88397 0.70265 0.0
C863 C 0.99033 0.96338 0.70732 0.0
C864 C 0.95171 0.9298 0.73473 0.0
H865 H 0.94714 0.87862 0.72498 0.0
C866 C 0.93032 0.93895 0.74365 0.0
C867 C 0.95788 0.90779 0.72796 0.0
C868 C 0.98082 0.89703 0.71884 0.0
C869 C 0.91475 0.9268 0.74553 0.0
C870 C 0.92093 0.90469 0.7389 0.0
C871 C 0.9424 0.89555 0.73006 0.0
C872 C 0.90538 0.89078 0.74072 0.0
C873 C 0.89172 0.938 0.75391 0.0
C874 C 0.8942 0.88655 0.7631 0.0
C875 C 0.87974 0.87329 0.76468 0.0
C876 C 0.87634 0.86371 0.74397 0.0
C877 C 0.88783 0.86775 0.72165 0.0
C878 C 0.90217 0.88113 0.72007 0.0
H879 H 0.88848 0.95626 0.75143 0.0
H880 H 0.88013 0.93274 0.74386 0.0
H881 H 0.88871 0.93348 0.77362 0.0
H882 H 0.89676 0.89338 0.77942 0.0
H883 H 0.8711 0.8707 0.78213 0.0
H884 H 0.25224 0.10524 0.18123 0.0
H885 H 0.26606 0.12849 0.205 0.0
H886 H 0.31195 0.13716 0.14475 0.0
H887 H 0.29801 0.11412 0.12068 0.0
H888 H 0.31236 0.12172 0.21562 0.0
H889 H 0.27654 0.20115 0.16368 0.0
H890 H 0.26636 0.17711 0.16334 0.0
H891 H 0.29156 0.17813 0.14675 0.0
C892 C 0.26514 0.11223 0.17296 0.0
C893 C 0.27396 0.10792 0.14904 0.0
C894 C 0.27313 0.12535 0.18662 0.0
C895 C 0.28993 0.13456 0.17654 0.0
C896 C 0.29889 0.13024 0.15275 0.0
H897 H 0.32868 0.23679 0.24417 0.0
H898 H 0.33054 0.20832 0.21619 0.0
C899 C 0.291 0.11699 0.13911 0.0
C900 C 0.29777 0.14892 0.19101 0.0
H901 H 0.2947 0.20292 0.1977 0.0
C902 C 0.30875 0.13946 0.21159 0.0
C903 C 0.2932 0.17197 0.18549 0.0
C904 C 0.28118 0.18285 0.1637 0.0
C905 C 0.31474 0.15259 0.22729 0.0
C906 C 0.30914 0.17579 0.22252 0.0
C907 C 0.29903 0.18513 0.2013 0.0
C908 C 0.31117 0.19084 0.2406 0.0
C909 C 0.32674 0.14153 0.24902 0.0
C910 C 0.3 0.19021 0.26372 0.0
C911 C 0.29893 0.20635 0.27968 0.0
C912 C 0.30888 0.22361 0.27279 0.0
C913 C 0.32096 0.22365 0.25008 0.0
C914 C 0.32197 0.20745 0.23404 0.0
H915 H 0.33633 0.1245 0.24547 0.0
H916 H 0.33774 0.15102 0.25393 0.0
H917 H 0.31492 0.14033 0.26487 0.0
H918 H 0.29113 0.17788 0.26899 0.0
H919 H 0.28949 0.2058 0.29703 0.0
H920 H 1.00682 0.29145 0.15234 0.0
H921 H 0.97413 0.28656 0.17615 0.0
H922 H 0.94521 0.35659 0.16723 0.0
H923 H 0.97778 0.36158 0.14275 0.0
H924 H 0.95444 0.30518 0.21949 0.0
H925 H 0.89979 0.32911 0.14458 0.0
H926 H 0.92883 0.32245 0.13906 0.0
H927 H 0.91425 0.3489 0.14941 0.0
C928 C 0.99346 0.30582 0.15518 0.0
C929 C 0.99488 0.3269 0.14539 0.0
C930 C 0.97483 0.303 0.16895 0.0
C931 C 0.95713 0.32115 0.17316 0.0
C932 C 0.95856 0.3423 0.16385 0.0
H933 H 0.84889 0.3202 0.28146 0.0
H934 H 0.87978 0.32864 0.25677 0.0
C935 C 0.97727 0.34516 0.15008 0.0
C936 C 0.93736 0.31779 0.18757 0.0
H937 H 0.88385 0.32178 0.18398 0.0
C938 C 0.93899 0.30887 0.21176 0.0
C939 C 0.9173 0.32235 0.17732 0.0
C940 C 0.91485 0.33106 0.15111 0.0
C941 C 0.92107 0.30447 0.22605 0.0
C942 C 0.90091 0.3094 0.21595 0.0
C943 C 0.89929 0.3182 0.19171 0.0
C944 C 0.88145 0.30509 0.2302 0.0
C945 C 0.92396 0.2941 0.25165 0.0
C946 C 0.87173 0.28951 0.22304 0.0
C947 C 0.85398 0.28466 0.23708 0.0
C948 C 0.84554 0.29543 0.25848 0.0
C949 C 0.85499 0.31149 0.26518 0.0
C950 C 0.87274 0.31629 0.25115 0.0
H951 H 0.94125 0.28671 0.25464 0.0
H952 H 0.91734 0.30695 0.2648 0.0
H953 H 0.91512 0.28109 0.2557 0.0
H954 H 0.87817 0.28076 0.20685 0.0
H955 H 0.84709 0.27225 0.23133 0.0
H956 H 0.845 0.90898 0.07264 0.0
H957 H 0.83917 0.88576 0.10933 0.0
H958 H 0.7839 0.93689 0.13351 0.0
H959 H 0.79022 0.96064 0.09765 0.0
H960 H 0.80832 0.91961 0.1701 0.0
H961 H 0.79387 0.85184 0.12306 0.0
H962 H 0.81943 0.85735 0.11309 0.0
H963 H 0.79485 0.8781 0.10744 0.0
C964 C 0.83169 0.91542 0.08578 0.0
C965 C 0.81799 0.93673 0.08188 0.0
C966 C 0.8282 0.90195 0.10665 0.0
C967 C 0.81079 0.90936 0.12393 0.0
C968 C 0.79731 0.9307 0.12032 0.0
H969 H 0.77017 0.81879 0.23786 0.0
H970 H 0.76998 0.84689 0.20396 0.0
C971 C 0.80086 0.94423 0.09959 0.0
C972 C 0.80691 0.89515 0.1461 0.0
H973 H 0.79939 0.84439 0.16539 0.0
C974 C 0.8062 0.90323 0.16906 0.0
C975 C 0.80371 0.87394 0.14479 0.0
C976 C 0.80277 0.86487 0.12077 0.0
C977 C 0.80303 0.89044 0.19069 0.0
C978 C 0.80102 0.86876 0.18937 0.0
C979 C 0.80109 0.86094 0.16642 0.0
C980 C 0.79985 0.85353 0.21143 0.0
C981 C 0.80169 0.90038 0.21474 0.0
C982 C 0.81653 0.84811 0.22708 0.0
C983 C 0.81658 0.83227 0.24658 0.0
C984 C 0.80008 0.82121 0.25066 0.0
C985 C 0.78306 0.82706 0.23534 0.0
C986 C 0.78298 0.84305 0.21588 0.0
H987 H 0.79626 0.91869 0.21268 0.0
H988 H 0.79043 0.89425 0.22854 0.0
H989 H 0.81795 0.89581 0.22166 0.0
H990 H 0.83 0.85554 0.2237 0.0
H991 H 0.83007 0.82809 0.25782 0.0
H992 H 0.0707 0.72657 0.10124 0.0
H993 H 0.0964 0.7335 0.12699 0.0
H994 H 0.14766 0.6849 0.09139 0.0
H995 H 0.12225 0.67851 0.06489 0.0
H996 H 0.12421 0.7071 0.1592 0.0
H997 H 0.16962 0.74039 0.08024 0.0
H998 H 0.14361 0.73541 0.07808 0.0
H999 H 0.16757 0.71288 0.07748 0.0
C1000 C 0.08743 0.71735 0.09886 0.0
C1001 C 0.09445 0.70227 0.08067 0.0
C1002 C 0.10207 0.72123 0.1137 0.0
C1003 C 0.12401 0.71011 0.11068 0.0
C1004 C 0.13087 0.69405 0.09361 0.0
H1005 H 0.23807 0.71625 0.17586 0.0
H1006 H 0.21164 0.70746 0.15267 0.0
C1007 C 0.11624 0.6902 0.07868 0.0
C1008 C 0.13978 0.71595 0.12475 0.0
H1009 H 0.18439 0.73615 0.1184 0.0
C1010 C 0.13734 0.7135 0.15031 0.0
C1011 C 0.15678 0.72448 0.11307 0.0
C1012 C 0.1595 0.72867 0.08572 0.0
C1013 C 0.15176 0.71892 0.16451 0.0
C1014 C 0.16886 0.72722 0.1528 0.0
C1015 C 0.17126 0.72973 0.12727 0.0
C1016 C 0.18473 0.73301 0.16668 0.0
C1017 C 0.14886 0.71535 0.19189 0.0
C1018 C 0.17839 0.75058 0.1819 0.0
C1019 C 0.19353 0.75585 0.19501 0.0
C1020 C 0.21529 0.74366 0.19306 0.0
C1021 C 0.22156 0.72625 0.1775 0.0
C1022 C 0.20645 0.72106 0.16437 0.0
H1023 H 0.13776 0.70468 0.19777 0.0
H1024 H 0.16464 0.70771 0.19949 0.0
H1025 H 0.14196 0.73152 0.19978 0.0
H1026 H 0.16175 0.76026 0.18356 0.0
H1027 H 0.18821 0.76953 0.20657 0.0
H1028 H 0.21155 0.02748 0.0141 0.0
H1029 H 0.21163 0.99755 0.98883 0.0
H1030 H 0.24941 0.95043 0.0396 0.0
H1031 H 0.24892 0.98011 0.06506 0.0
H1032 H 0.24952 0.97233 0.96758 0.0
H1033 H 0.20606 0.91813 0.02452 0.0
H1034 H 0.2034 0.94633 0.031 0.0
H1035 H 0.22613 0.92468 0.04046 0.0
C1036 C 0.21926 0.01066 0.02022 0.0
C1037 C 0.23037 0.00611 0.04144 0.0
C1038 C 0.21938 0.9936 1.00574 0.0
C1039 C 0.23034 0.97175 1.01246 0.0
C1040 C 0.24048 0.96709 0.03429 0.0
H1041 H 0.29111 0.84916 0.95316 0.0
H1042 H 0.2751 0.8806 0.97776 0.0
C1043 C 0.24043 0.98409 0.04867 0.0
C1044 C 0.23378 0.95424 0.99535 0.0
H1045 H 0.23121 0.90121 0.992 0.0
C1046 C 0.24511 0.95694 0.97266 0.0
C1047 C 0.22812 0.93416 1.00213 0.0
C1048 C 0.21506 0.93072 0.02577 0.0
C1049 C 0.25203 0.93965 0.95713 0.0
C1050 C 0.24712 0.91927 0.96435 0.0
C1051 C 0.23502 0.91684 0.98659 0.0
C1052 C 0.25564 0.89987 0.94976 0.0
C1053 C 0.26554 0.94296 0.93376 0.0
C1054 C 0.24972 0.90019 0.92602 0.0
C1055 C 0.25904 0.88237 0.91181 0.0
C1056 C 0.27433 0.86383 0.92118 0.0
C1057 C 0.2797 0.86334 0.94525 0.0
C1058 C 0.27041 0.88118 0.95941 0.0
H1059 H 0.27157 0.95796 0.93336 0.0
H1060 H 0.2796 0.92847 0.93121 0.0
H1061 H 0.2556 0.94484 0.91811 0.0
H1062 H 0.23813 0.91435 0.91837 0.0
H1063 H 0.25464 0.88335 0.89329 0.0
H1064 H 0.10955 0.28999 1.0006 0.0
H1065 H 0.13694 0.28241 0.9663 0.0
H1066 H 0.145 0.34824 0.96557 0.0
H1067 H 0.11747 0.35598 0.99997 0.0
H1068 H 0.14424 0.33475 0.91875 0.0
H1069 H 0.2014 0.27157 0.9735 0.0
H1070 H 0.17534 0.26637 0.9736 0.0
H1071 H 0.1778 0.29028 0.9872 0.0
C1072 C 0.11722 0.30283 0.99327 0.0
C1073 C 0.11154 0.3235 1.00328 0.0
C1074 C 0.13285 0.29848 0.97361 0.0
C1075 C 0.1433 0.31461 0.96367 0.0
C1076 C 0.13718 0.33552 0.97303 0.0
H1077 H 0.26643 0.29071 0.87954 0.0
H1078 H 0.23543 0.30154 0.90905 0.0
C1079 C 0.12144 0.33993 0.99266 0.0
C1080 C 0.16103 0.30943 0.944 0.0
H1081 H 0.21094 0.2751 0.93108 0.0
C1082 C 0.15885 0.32174 0.92141 0.0
C1083 C 0.18017 0.2926 0.94761 0.0
C1084 C 0.18398 0.27956 0.97184 0.0
C1085 C 0.17527 0.31753 0.90226 0.0
C1086 C 0.19419 0.30035 0.90573 0.0
C1087 C 0.19635 0.28815 0.92837 0.0
C1088 C 0.21247 0.29525 0.88664 0.0
C1089 C 0.17243 0.33182 0.87872 0.0
C1090 C 0.20989 0.28824 0.86404 0.0
C1091 C 0.22769 0.28209 0.84693 0.0
C1092 C 0.24839 0.28261 0.85229 0.0
C1093 C 0.25077 0.28997 0.87481 0.0
C1094 C 0.23304 0.2962 0.89175 0.0
H1095 H 0.15967 0.34745 0.88104 0.0
H1096 H 0.18776 0.3359 0.87152 0.0
H1097 H 0.16766 0.32275 0.86494 0.0
H1098 H 0.19425 0.28697 0.85988 0.0
H1099 H 0.22531 0.27638 0.82984 0.0
H1100 H 0.85266 0.06449 0.9427 0.0
H1101 H 0.84627 0.10025 0.91913 0.0
H1102 H 0.77815 0.11282 0.94092 0.0
H1103 H 0.7844 0.07771 0.96516 0.0
H1104 H 0.82049 0.1167 0.88068 0.0
H1105 H 0.7927 0.16775 0.95995 0.0
H1106 H 0.80615 0.13871 0.96322 0.0
H1107 H 0.77796 0.14756 0.95812 0.0
C1108 C 0.83635 0.07493 0.94267 0.0
C1109 C 0.8191 0.06813 0.95597 0.0
C1110 C 0.8327 0.0953 0.92905 0.0
C1111 C 0.81177 0.10933 0.92857 0.0
C1112 C 0.79449 0.10244 0.94138 0.0
H1113 H 0.77306 0.22425 0.82502 0.0
H1114 H 0.77514 0.1893 0.84955 0.0
C1115 C 0.7981 0.08214 0.95502 0.0
C1116 C 0.80797 0.13117 0.91465 0.0
H1117 H 0.7887 0.18655 0.92074 0.0
C1118 C 0.81354 0.13198 0.88941 0.0
C1119 C 0.7991 0.15109 0.92615 0.0
C1120 C 0.79381 0.15134 0.95338 0.0
C1121 C 0.81035 0.15219 0.87532 0.0
C1122 C 0.801 0.17207 0.88674 0.0
C1123 C 0.79556 0.17126 0.91199 0.0
C1124 C 0.79811 0.19395 0.87307 0.0
C1125 C 0.81755 0.15215 0.84845 0.0
C1126 C 0.80961 0.20853 0.87884 0.0
C1127 C 0.80835 0.22851 0.86503 0.0
C1128 C 0.79546 0.23441 0.8452 0.0
C1129 C 0.78314 0.22023 0.84015 0.0
C1130 C 0.78446 0.20016 0.854 0.0
H1131 H 0.82855 0.13604 0.8436 0.0
H1132 H 0.8032 0.15539 0.83788 0.0
H1133 H 0.82595 0.16533 0.84282 0.0
H1134 H 0.82013 0.20412 0.89358 0.0
H1135 H 0.81799 0.23904 0.86954 0.0
H1136 H 0.98824 0.68619 0.94591 0.0
H1137 H 0.95689 0.69327 0.92217 0.0
H1138 H 0.93645 0.7602 0.94342 0.0
H1139 H 0.96781 0.75333 0.96709 0.0
H1140 H 0.90264 0.73953 0.94608 0.0
H1141 H 0.95105 0.73021 0.85673 0.0
H1142 H 0.95842 0.70705 0.87859 0.0
H1143 H 0.96232 0.73326 0.88431 0.0
C1144 C 0.97716 0.70246 0.94546 0.0
C1145 C 0.98072 0.71923 0.95829 0.0
C1146 C 0.95923 0.70647 0.93187 0.0
C1147 C 0.94453 0.72737 0.93068 0.0
C1148 C 0.94764 0.74396 0.94403 0.0
H1149 H 0.85144 0.7836 0.82517 0.0
H1150 H 0.88175 0.77394 0.85064 0.0
C1151 C 0.96555 0.73996 0.95766 0.0
C1152 C 0.92606 0.73205 0.91531 0.0
H1153 H 0.91346 0.73446 0.85646 0.0
C1154 C 0.90498 0.7384 0.92649 0.0
C1155 C 0.92917 0.73084 0.88971 0.0
C1156 C 0.95145 0.72517 0.87653 0.0
C1157 C 0.88691 0.7434 0.91278 0.0
C1158 C 0.89002 0.74171 0.88725 0.0
C1159 C 0.91111 0.73552 0.87606 0.0
C1160 C 0.87165 0.74712 0.87167 0.0
C1161 C 0.86467 0.75097 0.92565 0.0
C1162 C 0.85605 0.735 0.87474 0.0
C1163 C 0.83862 0.74047 0.86017 0.0
C1164 C 0.83654 0.75812 0.84216 0.0
C1165 C 0.85246 0.76994 0.83886 0.0
C1166 C 0.86984 0.76444 0.85341 0.0
H1167 H 0.86529 0.75637 0.94404 0.0
H1168 H 0.85439 0.76483 0.91484 0.0
H1169 H 0.85687 0.73711 0.92789 0.0
H1170 H 0.85736 0.72128 0.8884 0.0
H1171 H 0.82673 0.73097 0.86316 0.0
H1172 H 0.11129 0.26622 0.14224 0.0
H1173 H 0.13728 0.25887 0.17369 0.0
H1174 H 0.15161 0.32139 0.15238 0.0
H1175 H 0.126 0.32883 0.12144 0.0
H1176 H 0.18283 0.25783 0.17081 0.0
H1177 H 0.13304 0.32493 0.2258 0.0
H1178 H 0.12237 0.31393 0.2023 0.0
H1179 H 0.13784 0.33389 0.19439 0.0
C1180 C 0.12014 0.27827 0.14416 0.0
C1181 C 0.11632 0.29822 0.12944 0.0
C1182 C 0.13495 0.27409 0.16217 0.0
C1183 C 0.14606 0.28983 0.1658 0.0
C1184 C 0.14288 0.30923 0.1504 0.0
H1185 H 0.26087 0.2882 0.2325 0.0
H1186 H 0.2332 0.28716 0.20611 0.0
C1187 C 0.12822 0.3134 0.13258 0.0
C1188 C 0.16087 0.28653 0.18565 0.0
H1189 H 0.17009 0.3114 0.23433 0.0
C1190 C 0.17992 0.26935 0.1849 0.0
C1191 C 0.157 0.30136 0.20431 0.0
C1192 C 0.13635 0.31944 0.20697 0.0
C1193 C 0.19563 0.2673 0.20151 0.0
C1194 C 0.19236 0.28302 0.21917 0.0
C1195 C 0.17281 0.29949 0.22067 0.0
C1196 C 0.20931 0.28326 0.23555 0.0
C1197 C 0.21564 0.24834 0.19992 0.0
C1198 C 0.20501 0.28211 0.26105 0.0
C1199 C 0.22084 0.28287 0.27633 0.0
C1200 C 0.24129 0.28504 0.26645 0.0
C1201 C 0.24539 0.2865 0.24088 0.0
C1202 C 0.2296 0.28567 0.22568 0.0
H1203 H 0.2128 0.23439 0.19106 0.0
H1204 H 0.22876 0.25399 0.18876 0.0
H1205 H 0.2212 0.24224 0.21826 0.0
H1206 H 0.18942 0.28045 0.26915 0.0
H1207 H 0.21707 0.28163 0.29588 0.0
H1208 H 0.07595 0.74827 0.95411 0.0
H1209 H 0.10781 0.74984 0.9264 0.0
H1210 H 0.13252 0.77866 0.98102 0.0
H1211 H 0.10106 0.77653 1.00907 0.0
H1212 H 0.12572 0.78185 0.90587 0.0
H1213 H 0.18268 0.72668 0.96736 0.0
H1214 H 0.15384 0.73101 0.97277 0.0
H1215 H 0.16672 0.7509 0.98138 0.0
C1216 C 0.08804 0.75517 0.96018 0.0
C1217 C 0.08595 0.76211 0.98397 0.0
C1218 C 0.10633 0.75599 0.94429 0.0
C1219 C 0.12298 0.76379 0.95176 0.0
C1220 C 0.12033 0.77188 0.97501 0.0
H1221 H 0.24516 0.78267 0.88223 0.0
H1222 H 0.21243 0.78259 0.90903 0.0
C1223 C 0.10215 0.77088 0.99099 0.0
C1224 C 0.14317 0.76312 0.93542 0.0
H1225 H 0.19828 0.74403 0.9327 0.0
C1226 C 0.14155 0.77347 0.91174 0.0
C1227 C 0.16395 0.75208 0.94289 0.0
C1228 C 0.16695 0.73935 0.96738 0.0
C1229 C 0.16003 0.77347 0.89564 0.0
C1230 C 0.18074 0.76273 0.90328 0.0
C1231 C 0.18241 0.75235 0.92688 0.0
C1232 C 0.20089 0.76223 0.8871 0.0
C1233 C 0.15732 0.78534 0.87069 0.0
C1234 C 0.20556 0.75045 0.86603 0.0
C1235 C 0.22442 0.75026 0.85073 0.0
C1236 C 0.23898 0.76197 0.8561 0.0
C1237 C 0.23436 0.77348 0.87744 0.0
C1238 C 0.21562 0.77348 0.89282 0.0
H1239 H 0.14078 0.79624 0.86919 0.0
H1240 H 0.16915 0.79543 0.86633 0.0
H1241 H 0.16042 0.77301 0.85683 0.0
H1242 H 0.19458 0.74141 0.86139 0.0
H1243 H 0.22736 0.74126 0.83446 0.0
H1244 H 0.26056 0.12426 0.03193 0.0
H1245 H 0.27137 0.14399 0.99491 0.0
H1246 H 0.32541 0.08829 0.97987 0.0
H1247 H 0.31437 0.06799 0.01719 0.0
H1248 H 0.30916 0.1561 0.98134 0.0
H1249 H 0.29481 0.10039 0.91635 0.0
H1250 H 0.28496 0.09926 0.94811 0.0
H1251 H 0.31303 0.08782 0.93925 0.0
C1252 C 0.27479 0.11607 0.02087 0.0
C1253 C 0.28652 0.09443 0.02752 0.0
C1254 C 0.28097 0.12747 0.99966 0.0
C1255 C 0.29904 0.11758 0.98442 0.0
C1256 C 0.31118 0.09613 0.99115 0.0
H1257 H 0.34084 0.20459 0.86566 0.0
H1258 H 0.34192 0.17681 0.89993 0.0
C1259 C 0.30496 0.08461 1.01256 0.0
C1260 C 0.30465 0.13011 0.96159 0.0
H1261 H 0.30499 0.13223 0.89955 0.0
C1262 C 0.30855 0.15076 0.96343 0.0
C1263 C 0.30357 0.12323 0.93825 0.0
C1264 C 0.29872 0.10155 0.93519 0.0
C1265 C 0.31068 0.16502 0.94271 0.0
C1266 C 0.30937 0.15826 0.91936 0.0
C1267 C 0.3061 0.13734 0.91743 0.0
C1268 C 0.3098 0.17335 0.89698 0.0
C1269 C 0.31319 0.18766 0.94616 0.0
C1270 C 0.29178 0.17993 0.8832 0.0
C1271 C 0.29119 0.19565 0.8634 0.0
C1272 C 0.30862 0.20514 0.85699 0.0
C1273 C 0.32702 0.19782 0.87023 0.0
C1274 C 0.32764 0.182 0.88992 0.0
H1275 H 0.30888 0.1921 0.96534 0.0
H1276 H 0.33026 0.18795 0.94132 0.0
H1277 H 0.30292 0.20047 0.93418 0.0
H1278 H 0.27785 0.17342 0.88824 0.0
H1279 H 0.27678 0.20082 0.85361 0.0
H1280 H 0.99237 0.31019 0.05728 0.0
H1281 H 0.97024 0.2999 0.0297 0.0
H1282 H 0.02609 0.25227 1.0002 0.0
H1283 H 0.04856 0.26265 0.0282 0.0
H1284 H 1.00362 0.2818 0.96461 0.0
H1285 H 0.9463 0.24666 0.02648 0.0
H1286 H 0.94823 0.27241 0.03605 0.0
H1287 H 0.97153 0.24907 0.03588 0.0
C1288 C 0.99989 0.29709 0.04537 0.0
C1289 C 1.02218 0.28714 0.04499 0.0
C1290 C 0.98716 0.29114 0.02966 0.0
C1291 C 0.99637 0.27513 0.01299 0.0
C1292 C 1.01857 0.26453 0.01306 0.0
H1293 H 0.90457 0.25187 0.9166 0.0
H1294 H 0.9337 0.2443 0.94399 0.0
C1295 C 0.03136 0.27033 0.02915 0.0
C1296 C 0.98301 0.27154 0.99408 0.0
H1297 H 0.93393 0.26268 0.98727 0.0
C1298 C 0.98861 0.27715 0.96951 0.0
C1299 C 0.96348 0.26527 1.00031 0.0
C1300 C 0.95713 0.25779 0.0261 0.0
C1301 C 0.97459 0.27807 0.95134 0.0
C1302 C 0.95426 0.27356 0.95791 0.0
C1303 C 0.94933 0.26648 0.9822 0.0
C1304 C 0.93735 0.27764 0.9403 0.0
C1305 C 0.98156 0.28428 0.92531 0.0
C1306 C 0.92955 0.2989 0.92919 0.0
C1307 C 0.91299 0.30325 0.91354 0.0
C1308 C 0.9036 0.28649 0.90868 0.0
C1309 C 0.91153 0.26513 0.91971 0.0
C1310 C 0.92812 0.2608 0.93548 0.0
H1311 H 0.99944 0.28007 0.92204 0.0
H1312 H 0.97505 0.27585 0.91229 0.0
H1313 H 0.97542 0.30237 0.92151 0.0
H1314 H 0.93604 0.31231 0.93295 0.0
H1315 H 0.90753 0.31983 0.90522 0.0
H1316 H 0.81554 0.96819 0.9289 0.0
H1317 H 0.80686 0.94275 0.90358 0.0
H1318 H 0.75047 0.94058 0.95215 0.0
H1319 H 0.75907 0.96637 0.97784 0.0
H1320 H 0.80468 0.89976 0.92325 0.0
H1321 H 0.72949 0.94694 0.88165 0.0
H1322 H 0.74748 0.96035 0.89338 0.0
H1323 H 0.73006 0.94782 0.91403 0.0
C1324 C 0.80106 0.96264 0.93408 0.0
C1325 C 0.78808 0.96919 0.95553 0.0
C1326 C 0.79612 0.94809 0.91952 0.0
C1327 C 0.77804 0.93976 0.92594 0.0
C1328 C 0.76438 0.94702 0.94671 0.0
H1329 H 0.76659 0.81671 0.8769 0.0
H1330 H 0.76533 0.84773 0.90071 0.0
C1331 C 0.76931 0.96172 0.96138 0.0
C1332 C 0.77507 0.92188 0.9121 0.0
H1333 H 0.74305 0.90946 0.87296 0.0
C1334 C 0.79115 0.90185 0.91234 0.0
C1335 C 0.7575 0.92473 0.89775 0.0
C1336 C 0.74015 0.94613 0.89643 0.0
C1337 C 0.79022 0.88463 0.89856 0.0
C1338 C 0.77261 0.88738 0.88431 0.0
C1339 C 0.75647 0.90739 0.88401 0.0
C1340 C 0.77103 0.86953 0.86952 0.0
C1341 C 0.80834 0.86374 0.89896 0.0
C1342 C 0.77408 0.8717 0.84398 0.0
C1343 C 0.77486 0.85392 0.8302 0.0
C1344 C 0.77252 0.83368 0.84177 0.0
C1345 C 0.76862 0.83194 0.86733 0.0
C1346 C 0.76788 0.84967 0.88103 0.0
H1347 H 0.8227 0.86592 0.9069 0.0
H1348 H 0.80269 0.85045 0.91015 0.0
H1349 H 0.81329 0.85823 0.88025 0.0
H1350 H 0.77656 0.88691 0.83476 0.0
H1351 H 0.77784 0.85588 0.81058 0.0
H1352 H 0.99508 0.77187 0.07964 0.0
H1353 H 0.96974 0.77943 0.11637 0.0
H1354 H 0.94831 0.72163 0.10763 0.0
H1355 H 0.97332 0.71396 0.07154 0.0
H1356 H 0.92361 0.78538 0.12469 0.0
H1357 H 0.96796 0.71074 0.17709 0.0
H1358 H 0.97962 0.72196 0.14926 0.0
H1359 H 0.96141 0.70491 0.14812 0.0
C1360 C 0.98478 0.76095 0.08545 0.0
C1361 C 0.98645 0.74217 0.07277 0.0
C1362 C 0.97037 0.76523 0.10648 0.0
C1363 C 0.95748 0.75077 0.11514 0.0
C1364 C 0.95845 0.7327 0.10176 0.0
H1365 H 0.84174 0.75829 0.20883 0.0
H1366 H 0.86992 0.75864 0.17589 0.0
C1367 C 0.97276 0.7284 0.08098 0.0
C1368 C 0.94308 0.75402 0.13821 0.0
H1369 H 0.93171 0.72714 0.19278 0.0
C1370 C 0.92555 0.7728 0.13972 0.0
C1371 C 0.94571 0.73779 0.15807 0.0
C1372 C 0.96481 0.71781 0.15823 0.0
C1373 C 0.91002 0.77518 0.15992 0.0
C1374 C 0.91191 0.75822 0.17901 0.0
C1375 C 0.93006 0.74003 0.17808 0.0
C1376 C 0.89472 0.75845 0.19942 0.0
C1377 C 0.89162 0.79579 0.16055 0.0
C1378 C 0.8993 0.75758 0.22386 0.0
C1379 C 0.88313 0.75728 0.24294 0.0
C1380 C 0.86206 0.75754 0.23801 0.0
C1381 C 0.85769 0.75808 0.21348 0.0
C1382 C 0.87379 0.7585 0.1945 0.0
H1383 H 0.89582 0.80968 0.14889 0.0
H1384 H 0.87737 0.79248 0.15353 0.0
H1385 H 0.88703 0.80092 0.17944 0.0
H1386 H 0.91538 0.75731 0.22817 0.0
H1387 H 0.88714 0.75688 0.26154 0.0
H1388 H 0.31806 0.98329 0.109 0.0
H1389 H 0.33044 0.94703 0.13134 0.0
H1390 H 0.27186 0.96084 0.17912 0.0
H1391 H 0.25967 0.9967 0.15748 0.0
H1392 H 0.30845 0.94376 0.20389 0.0
H1393 H 0.3064 0.89294 0.12768 0.0
H1394 H 0.32248 0.91254 0.12198 0.0
H1395 H 0.29366 0.92218 0.12694 0.0
C1396 C 0.30793 0.97857 0.12435 0.0
C1397 C 0.28784 0.99289 0.13136 0.0
C1398 C 0.31494 0.95781 0.13698 0.0
C1399 C 0.30194 0.95112 0.15675 0.0
C1400 C 0.28215 0.9656 0.16394 0.0
H1401 H 0.28315 0.83188 0.22993 0.0
H1402 H 0.28463 0.86436 0.20248 0.0
C1403 C 0.27518 0.98615 0.15143 0.0
C1404 C 0.30843 0.92915 0.17033 0.0
H1405 H 0.31402 0.87415 0.16585 0.0
C1406 C 0.31001 0.92848 0.19553 0.0
C1407 C 0.31019 0.90928 0.15941 0.0
C1408 C 0.30798 0.9091 0.13255 0.0
C1409 C 0.31244 0.90868 0.21028 0.0
C1410 C 0.31386 0.88882 0.19945 0.0
C1411 C 0.31304 0.88935 0.1741 0.0
C1412 C 0.3144 0.86777 0.21443 0.0
C1413 C 0.31224 0.90946 0.23751 0.0
C1414 C 0.33097 0.85846 0.22983 0.0
C1415 C 0.33006 0.83998 0.24575 0.0
C1416 C 0.31271 0.83025 0.24635 0.0
C1417 C 0.29673 0.83895 0.23001 0.0
C1418 C 0.29756 0.85752 0.21425 0.0
H1419 H 0.30611 0.92657 0.24331 0.0
H1420 H 0.30205 0.89919 0.24743 0.0
H1421 H 0.32893 0.90289 0.24303 0.0
H1422 H 0.34438 0.86576 0.22992 0.0
H1423 H 0.34278 0.83358 0.25789 0.0
H1424 H 0.80622 0.02766 0.09647 0.0
H1425 H 0.79901 0.05935 0.12097 0.0
H1426 H 0.75415 0.09747 0.07063 0.0
H1427 H 0.76127 0.06543 0.04586 0.0
H1428 H 0.80828 0.09942 0.09917 0.0
H1429 H 0.7237 0.11214 0.14059 0.0
H1430 H 0.73938 0.08582 0.13027 0.0
H1431 H 0.7287 0.108 0.1085 0.0
C1432 C 0.7944 0.04261 0.09089 0.0
C1433 C 0.78437 0.04411 0.0692 0.0
C1434 C 0.79033 0.06071 0.10491 0.0
C1435 C 0.77613 0.08077 0.0976 0.0
C1436 C 0.76502 0.08204 0.07672 0.0
H1437 H 0.78422 0.20554 0.14878 0.0
H1438 H 0.78205 0.1768 0.12309 0.0
C1439 C 0.76904 0.06375 0.06263 0.0
C1440 C 0.77503 0.10065 0.11056 0.0
H1441 H 0.74289 0.13724 0.14926 0.0
C1442 C 0.79393 0.10782 0.10997 0.0
C1443 C 0.75635 0.11143 0.12473 0.0
C1444 C 0.73584 0.10399 0.12631 0.0
C1445 C 0.79479 0.12524 0.12351 0.0
C1446 C 0.77615 0.136 0.13781 0.0
C1447 C 0.75713 0.12902 0.13819 0.0
C1448 C 0.77647 0.15389 0.15326 0.0
C1449 C 0.81587 0.13149 0.12305 0.0
C1450 C 0.77373 0.15069 0.17874 0.0
C1451 C 0.77489 0.16711 0.19347 0.0
C1452 C 0.77869 0.18715 0.18302 0.0
C1453 C 0.78119 0.19037 0.15744 0.0
C1454 C 0.78007 0.17392 0.14273 0.0
H1455 H 0.82971 0.11865 0.11536 0.0
H1456 H 0.81491 0.14711 0.11157 0.0
H1457 H 0.81911 0.13419 0.14169 0.0
H1458 H 0.7709 0.13537 0.18724 0.0
H1459 H 0.7725 0.16422 0.21307 0.0
H1460 H 0.57661 0.58029 0.91908 0.0
H1461 H 0.5963 0.60888 0.91652 0.0
H1462 H 0.61076 0.60219 0.83927 0.0
H1463 H 0.59107 0.57382 0.84167 0.0
H1464 H 0.63866 0.60575 0.90215 0.0
H1465 H 0.58726 0.6683 0.84123 0.0
H1466 H 0.57879 0.64489 0.85624 0.0
H1467 H 0.59668 0.64183 0.8288 0.0
C1468 C 0.58396 0.58496 0.90156 0.0
C1469 C 0.58211 0.57493 0.88055 0.0
C1470 C 0.59512 0.60134 0.9001 0.0
C1471 C 0.60461 0.60799 0.87762 0.0
C1472 C 0.60301 0.59782 0.85668 0.0
H1473 H 0.69337 0.68748 0.82932 0.0
H1474 H 0.66923 0.66302 0.83314 0.0
C1475 C 0.59176 0.58156 0.8581 0.0
C1476 C 0.61708 0.62481 0.87618 0.0
H1477 H 0.6217 0.6738 0.84677 0.0
C1478 C 0.63482 0.62074 0.89024 0.0
C1479 C 0.61204 0.64436 0.86061 0.0
C1480 C 0.59252 0.65025 0.84604 0.0
C1481 C 0.64799 0.6354 0.88865 0.0
C1482 C 0.64318 0.65469 0.87274 0.0
C1483 C 0.62534 0.65892 0.85887 0.0
C1484 C 0.65674 0.67049 0.87005 0.0
C1485 C 0.6673 0.62992 0.90351 0.0
C1486 C 0.65727 0.68313 0.88936 0.0
C1487 C 0.67086 0.69729 0.88718 0.0
C1488 C 0.68421 0.69904 0.86562 0.0
C1489 C 0.68316 0.68674 0.84607 0.0
C1490 C 0.66948 0.67265 0.84825 0.0
H1491 H 0.67102 0.61258 0.91147 0.0
H1492 H 0.68176 0.63261 0.89214 0.0
H1493 H 0.66399 0.64099 0.91867 0.0
H1494 H 0.64728 0.68191 0.9062 0.0
H1495 H 0.67095 0.70684 0.90241 0.0
H1496 H 0.50325 0.58655 0.82411 0.0
H1497 H 0.47172 0.6182 0.82034 0.0
H1498 H 0.43427 0.57525 0.80284 0.0
H1499 H 0.46557 0.54354 0.80664 0.0
H1500 H 0.44371 0.63568 0.7816 0.0
H1501 H 0.40095 0.60479 0.86449 0.0
H1502 H 0.42955 0.59422 0.85682 0.0
H1503 H 0.41044 0.58545 0.8414 0.0
C1504 C 0.48841 0.58385 0.81908 0.0
C1505 C 0.48694 0.56241 0.81589 0.0
C1506 C 0.47038 0.60198 0.81698 0.0
C1507 C 0.45053 0.59902 0.81179 0.0
C1508 C 0.44932 0.57786 0.80731 0.0
H1509 H 0.33391 0.6992 0.77563 0.0
H1510 H 0.3658 0.66788 0.77599 0.0
C1511 C 0.46731 0.55975 0.80934 0.0
C1512 C 0.43087 0.61783 0.81209 0.0
H1513 H 0.38112 0.63635 0.84228 0.0
C1514 C 0.43002 0.63585 0.79484 0.0
C1515 C 0.41314 0.61817 0.82964 0.0
C1516 C 0.41352 0.59974 0.8493 0.0
C1517 C 0.41175 0.65401 0.79438 0.0
C1518 C 0.39378 0.65405 0.81152 0.0
C1519 C 0.3948 0.63621 0.82903 0.0
C1520 C 0.37386 0.67258 0.81173 0.0
C1521 C 0.41195 0.67317 0.77582 0.0
C1522 C 0.36729 0.68519 0.83209 0.0
C1523 C 0.34893 0.70311 0.83203 0.0
C1524 C 0.33665 0.70866 0.81167 0.0
C1525 C 0.34293 0.6955 0.79164 0.0
C1526 C 0.3613 0.67765 0.7917 0.0
H1527 H 0.4286 0.67306 0.76809 0.0
H1528 H 0.40244 0.67211 0.76059 0.0
H1529 H 0.4045 0.68914 0.784 0.0
H1530 H 0.37664 0.68147 0.84783 0.0
H1531 H 0.34463 0.71283 0.84777 0.0
H1532 H 0.49463 0.46809 0.83731 0.0
H1533 H 0.47395 0.44174 0.83254 0.0
H1534 H 0.4576 0.43739 0.91016 0.0
H1535 H 0.47847 0.46373 0.91518 0.0
H1536 H 0.47901 0.39836 0.85304 0.0
H1537 H 0.39866 0.45239 0.88163 0.0
H1538 H 0.42221 0.4628 0.87381 0.0
H1539 H 0.41859 0.44865 0.90313 0.0
C1540 C 0.48689 0.46138 0.85346 0.0
C1541 C 0.48825 0.46805 0.87668 0.0
C1542 C 0.47495 0.44641 0.85064 0.0
C1543 C 0.46401 0.43787 0.87093 0.0
C1544 C 0.46557 0.44416 0.8942 0.0
H1545 H 0.38432 0.34604 0.89228 0.0
H1546 H 0.4055 0.37218 0.89636 0.0
C1547 C 0.47751 0.45918 0.89704 0.0
C1548 C 0.45115 0.42223 0.86766 0.0
H1549 H 0.40003 0.41537 0.87523 0.0
C1550 C 0.46173 0.40208 0.85779 0.0
C1551 C 0.42861 0.42721 0.87382 0.0
C1552 C 0.41625 0.44901 0.88349 0.0
C1553 C 0.45043 0.38654 0.8544 0.0
C1554 C 0.4279 0.39148 0.86066 0.0
C1555 C 0.41731 0.41166 0.87044 0.0
C1556 C 0.4151 0.37569 0.85782 0.0
C1557 C 0.46276 0.36475 0.84471 0.0
C1558 C 0.41324 0.36922 0.83472 0.0
C1559 C 0.40124 0.35413 0.83233 0.0
C1560 C 0.39086 0.34531 0.85301 0.0
C1561 C 0.39247 0.35218 0.87604 0.0
C1562 C 0.40443 0.36724 0.8784 0.0
H1563 H 0.4804 0.36149 0.84622 0.0
H1564 H 0.45701 0.35093 0.85463 0.0
H1565 H 0.46014 0.365 0.82516 0.0
H1566 H 0.42105 0.37586 0.81856 0.0
H1567 H 0.40036 0.34913 0.81436 0.0
H1568 H 0.6193 0.50193 0.80115 0.0
H1569 H 0.65071 0.47034 0.79602 0.0
H1570 H 0.6136 0.42699 0.83222 0.0
H1571 H 0.58198 0.45833 0.83664 0.0
H1572 H 0.6728 0.44384 0.82972 0.0
H1573 H 0.64064 0.39294 0.7747 0.0
H1574 H 0.6268 0.42125 0.77972 0.0
H1575 H 0.62422 0.39949 0.80257 0.0
C1576 C 0.6177 0.48561 0.80761 0.0
C1577 C 0.59804 0.48269 0.81915 0.0
C1578 C 0.63572 0.46756 0.80477 0.0
C1579 C 0.63456 0.44616 0.81347 0.0
C1580 C 0.61486 0.44318 0.82477 0.0
H1581 H 0.74907 0.33758 0.84282 0.0
H1582 H 0.71668 0.36845 0.8468 0.0
C1583 C 0.59676 0.46118 0.82737 0.0
C1584 C 0.6542 0.42722 0.8118 0.0
H1585 H 0.67359 0.37522 0.79234 0.0
C1586 C 0.673 0.42888 0.82142 0.0
C1587 C 0.65461 0.40773 0.80077 0.0
C1588 C 0.63556 0.40529 0.78863 0.0
C1589 C 0.69206 0.41164 0.82045 0.0
C1590 C 0.69223 0.39184 0.8102 0.0
C1591 C 0.67346 0.39024 0.80047 0.0
C1592 C 0.71193 0.37298 0.80825 0.0
C1593 C 0.71198 0.41514 0.82979 0.0
C1594 C 0.71977 0.36474 0.78544 0.0
C1595 C 0.73798 0.34689 0.78321 0.0
C1596 C 0.74896 0.33683 0.80373 0.0
C1597 C 0.74114 0.34506 0.82662 0.0
C1598 C 0.72268 0.36282 0.82888 0.0
H1599 H 0.71095 0.43296 0.83043 0.0
H1600 H 0.71365 0.40735 0.84859 0.0
H1601 H 0.72674 0.40757 0.8182 0.0
H1602 H 0.71183 0.3722 0.76923 0.0
H1603 H 0.74353 0.34109 0.76525 0.0
H1604 H 0.61808 0.46697 0.22292 0.0
H1605 H 0.6485 0.439 0.2382 0.0
H1606 H 0.6268 0.45695 0.31165 0.0
H1607 H 0.59572 0.48522 0.29638 0.0
H1608 H 0.68106 0.44552 0.26413 0.0
H1609 H 0.63631 0.38915 0.3166 0.0
H1610 H 0.62389 0.41037 0.29437 0.0
H1611 H 0.62845 0.41765 0.32356 0.0
C1612 C 0.61959 0.46505 0.24237 0.0
C1613 C 0.60439 0.47839 0.25844 0.0
C1614 C 0.63709 0.449 0.25106 0.0
C1615 C 0.63989 0.44578 0.27604 0.0
C1616 C 0.62478 0.45898 0.29231 0.0
H1617 H 0.74479 0.34099 0.33767 0.0
H1618 H 0.71453 0.37394 0.33421 0.0
C1619 C 0.60709 0.47516 0.28356 0.0
C1620 C 0.65898 0.42873 0.28441 0.0
H1621 H 0.67422 0.37737 0.31363 0.0
C1622 C 0.67958 0.43074 0.27522 0.0
C1623 C 0.65702 0.4095 0.29895 0.0
C1624 C 0.63527 0.40632 0.30889 0.0
C1625 C 0.69819 0.41372 0.2794 0.0
C1626 C 0.69614 0.39406 0.29289 0.0
C1627 C 0.67569 0.39245 0.30317 0.0
C1628 C 0.71481 0.37446 0.29504 0.0
C1629 C 0.71988 0.41676 0.26897 0.0
C1630 C 0.7249 0.36376 0.27416 0.0
C1631 C 0.74212 0.3449 0.27603 0.0
C1632 C 0.74962 0.33634 0.29887 0.0
C1633 C 0.73951 0.34718 0.31977 0.0
C1634 C 0.72218 0.36599 0.31787 0.0
H1635 H 0.71944 0.4345 0.26507 0.0
H1636 H 0.73252 0.40915 0.28164 0.0
H1637 H 0.72452 0.4086 0.25158 0.0
H1638 H 0.71923 0.36984 0.2564 0.0
H1639 H 0.74943 0.33697 0.25958 0.0
H1640 H 0.59312 0.60384 0.1844 0.0
H1641 H 0.61934 0.62475 0.18843 0.0
H1642 H 0.64501 0.57919 0.24791 0.0
H1643 H 0.61955 0.55766 0.24335 0.0
H1644 H 0.62315 0.64578 0.22787 0.0
H1645 H 0.6996 0.58274 0.20631 0.0
H1646 H 0.67367 0.57976 0.19998 0.0
H1647 H 0.68237 0.57349 0.23031 0.0
C1648 C 0.60459 0.59797 0.19802 0.0
C1649 C 0.60413 0.579 0.21354 0.0
C1650 C 0.6195 0.61006 0.20041 0.0
C1651 C 0.63433 0.6034 0.21827 0.0
C1652 C 0.63402 0.58442 0.23368 0.0
H1653 H 0.7263 0.66373 0.27115 0.0
H1654 H 0.70278 0.64006 0.26557 0.0
C1655 C 0.6192 0.57228 0.23125 0.0
C1656 C 0.64934 0.61694 0.22159 0.0
H1657 H 0.70266 0.61514 0.223 0.0
C1658 C 0.64054 0.63911 0.22664 0.0
C1659 C 0.67203 0.60819 0.22011 0.0
C1660 C 0.68252 0.5848 0.21365 0.0
C1661 C 0.65378 0.65268 0.23053 0.0
C1662 C 0.67643 0.64391 0.2291 0.0
C1663 C 0.68527 0.62175 0.22417 0.0
C1664 C 0.69118 0.65774 0.2321 0.0
C1665 C 0.64345 0.67623 0.2365 0.0
C1666 C 0.69271 0.67522 0.21488 0.0
C1667 C 0.70624 0.68861 0.21787 0.0
C1668 C 0.71851 0.68485 0.2382 0.0
C1669 C 0.71722 0.66702 0.2552 0.0
C1670 C 0.70372 0.65354 0.25212 0.0
H1671 H 0.62595 0.67897 0.24223 0.0
H1672 H 0.6515 0.68081 0.25126 0.0
H1673 H 0.64523 0.68742 0.2201 0.0
H1674 H 0.68345 0.67846 0.19906 0.0
H1675 H 0.7072 0.70184 0.2041 0.0
H1676 H 0.51074 0.58062 0.29358 0.0
H1677 H 0.48262 0.61243 0.30867 0.0
H1678 H 0.44772 0.61467 0.24574 0.0
H1679 H 0.47533 0.58323 0.23075 0.0
H1680 H 0.46961 0.65519 0.28321 0.0
H1681 H 0.40111 0.61705 0.30276 0.0
H1682 H 0.42887 0.60092 0.29983 0.0
H1683 H 0.4147 0.61167 0.2731 0.0
C1684 C 0.49688 0.58772 0.28322 0.0
C1685 C 0.49526 0.5794 0.26099 0.0
C1686 C 0.4809 0.60591 0.29179 0.0
C1687 C 0.46295 0.61572 0.27846 0.0
C1688 C 0.4612 0.60713 0.25655 0.0
H1689 H 0.35663 0.72614 0.25922 0.0
H1690 H 0.38674 0.6931 0.25806 0.0
C1691 C 0.47712 0.5892 0.24794 0.0
C1692 C 0.44647 0.63576 0.28624 0.0
H1693 H 0.39192 0.65665 0.29562 0.0
C1694 C 0.45266 0.65549 0.28648 0.0
C1695 C 0.42438 0.63608 0.2905 0.0
C1696 C 0.41687 0.61524 0.29179 0.0
C1697 C 0.43716 0.67575 0.28931 0.0
C1698 C 0.415 0.67618 0.29215 0.0
C1699 C 0.40892 0.6563 0.29317 0.0
C1700 C 0.39775 0.69713 0.29253 0.0
C1701 C 0.44446 0.6967 0.28794 0.0
C1702 C 0.39408 0.7105 0.31221 0.0
C1703 C 0.37682 0.72949 0.31295 0.0
C1704 C 0.3629 0.73541 0.29402 0.0
C1705 C 0.367 0.72219 0.27408 0.0
C1706 C 0.38418 0.70323 0.27341 0.0
H1707 H 0.46197 0.6939 0.28221 0.0
H1708 H 0.43519 0.70931 0.27494 0.0
H1709 H 0.44134 0.70349 0.30614 0.0
H1710 H 0.40422 0.70594 0.32728 0.0
H1711 H 0.37409 0.73919 0.32866 0.0
H1712 H 0.49529 0.47893 0.18374 0.0
H1713 H 0.46872 0.4572 0.19001 0.0
H1714 H 0.46923 0.4575 0.2678 0.0
H1715 H 0.4962 0.4787 0.26188 0.0
H1716 H 0.47438 0.41415 0.21865 0.0
H1717 H 0.40379 0.47919 0.25339 0.0
H1718 H 0.42689 0.4856 0.23581 0.0
H1719 H 0.42863 0.47566 0.26724 0.0
C1720 C 0.48993 0.47433 0.20222 0.0
C1721 C 0.49805 0.48068 0.22227 0.0
C1722 C 0.47461 0.46199 0.20574 0.0
C1723 C 0.46687 0.45596 0.22935 0.0
C1724 C 0.47476 0.46231 0.24942 0.0
H1725 H 0.37358 0.38203 0.28623 0.0
H1726 H 0.39933 0.40482 0.28109 0.0
C1727 C 0.49019 0.47452 0.24594 0.0
C1728 C 0.45115 0.4423 0.23297 0.0
H1729 H 0.39914 0.44321 0.25371 0.0
C1730 C 0.4579 0.42048 0.22624 0.0
C1731 C 0.42977 0.45061 0.24309 0.0
C1732 C 0.42167 0.47409 0.25019 0.0
C1733 C 0.44387 0.40659 0.2296 0.0
C1734 C 0.42232 0.41498 0.23932 0.0
C1735 C 0.41563 0.43681 0.2462 0.0
C1736 C 0.40645 0.4014 0.24233 0.0
C1737 C 0.45248 0.38291 0.22324 0.0
C1738 C 0.40158 0.39222 0.2222 0.0
C1739 C 0.38712 0.37893 0.22512 0.0
C1740 C 0.37692 0.37478 0.24822 0.0
C1741 C 0.3814 0.38453 0.26826 0.0
C1742 C 0.39599 0.39771 0.26533 0.0
H1743 H 0.47036 0.37744 0.22314 0.0
H1744 H 0.44545 0.37165 0.23628 0.0
H1745 H 0.44818 0.38136 0.20471 0.0
H1746 H 0.40905 0.39524 0.20417 0.0
H1747 H 0.38429 0.37158 0.20929 0.0
H1748 H 0.7689 0.58545 0.64911 0.0
H1749 H 0.7647 0.61294 0.67931 0.0
H1750 H 0.82554 0.62532 0.65081 0.0
H1751 H 0.82991 0.59823 0.62099 0.0
H1752 H 0.79531 0.61594 0.71563 0.0
H1753 H 0.78023 0.68678 0.64611 0.0
H1754 H 0.777 0.66003 0.64088 0.0
H1755 H 0.80347 0.66467 0.63863 0.0
C1756 C 0.78143 0.59392 0.64944 0.0
C1757 C 0.79964 0.58973 0.63246 0.0
C1758 C 0.779 0.60962 0.66667 0.0
C1759 C 0.79466 0.62141 0.66701 0.0
C1760 C 0.8131 0.61669 0.65062 0.0
H1761 H 0.81755 0.72768 0.73974 0.0
H1762 H 0.81894 0.69765 0.71408 0.0
C1763 C 0.81556 0.6011 0.63358 0.0
C1764 C 0.79195 0.63898 0.68406 0.0
H1765 H 0.78785 0.69409 0.6851 0.0
C1766 C 0.79341 0.63308 0.70906 0.0
C1767 C 0.78964 0.6613 0.67539 0.0
C1768 C 0.7873 0.66869 0.64881 0.0
C1769 C 0.79335 0.64881 0.72553 0.0
C1770 C 0.79138 0.6711 0.71678 0.0
C1771 C 0.78952 0.67701 0.69181 0.0
C1772 C 0.7911 0.68864 0.73314 0.0
C1773 C 0.79617 0.64126 0.75199 0.0
C1774 C 0.77495 0.69367 0.75233 0.0
C1775 C 0.77415 0.71075 0.76706 0.0
C1776 C 0.78939 0.72338 0.76284 0.0
C1777 C 0.80561 0.71828 0.74362 0.0
C1778 C 0.8064 0.70113 0.72889 0.0
H1779 H 0.80331 0.62316 0.75449 0.0
H1780 H 0.80665 0.64985 0.75973 0.0
H1781 H 0.78016 0.64515 0.76251 0.0
H1782 H 0.76265 0.68466 0.75565 0.0
H1783 H 0.7613 0.71424 0.78155 0.0
H1784 H 0.48757 0.77641 0.61154 0.0
H1785 H 0.45224 0.78198 0.63463 0.0
H1786 H 0.47909 0.72974 0.68757 0.0
H1787 H 0.51439 0.72407 0.66467 0.0
H1788 H 0.44007 0.72664 0.67535 0.0
H1789 H 0.43355 0.8122 0.69782 0.0
H1790 H 0.43772 0.80833 0.66577 0.0
H1791 H 0.45845 0.79449 0.68544 0.0
C1792 C 0.48607 0.76621 0.62819 0.0
C1793 C 0.50406 0.74984 0.63618 0.0
C1794 C 0.46578 0.76945 0.64144 0.0
C1795 C 0.46295 0.75654 0.66314 0.0
C1796 C 0.48077 0.73997 0.67094 0.0
H1797 H 0.36184 0.7797 0.78104 0.0
H1798 H 0.39457 0.77611 0.75353 0.0
C1799 C 0.50103 0.73669 0.6577 0.0
C1800 C 0.44151 0.7601 0.67772 0.0
H1801 H 0.40291 0.79837 0.70913 0.0
C1802 C 0.43193 0.74236 0.68265 0.0
C1803 C 0.4309 0.78052 0.68759 0.0
C1804 C 0.44073 0.79994 0.68413 0.0
C1805 C 0.41217 0.74446 0.69703 0.0
C1806 C 0.40139 0.76499 0.70651 0.0
C1807 C 0.41098 0.78271 0.70164 0.0
C1808 C 0.38084 0.76803 0.72271 0.0
C1809 C 0.40334 0.72446 0.7026 0.0
C1810 C 0.3619 0.76516 0.71453 0.0
C1811 C 0.34297 0.76727 0.73029 0.0
C1812 C 0.34256 0.77232 0.75463 0.0
C1813 C 0.36144 0.77574 0.76251 0.0
C1814 C 0.38026 0.77371 0.74675 0.0
H1815 H 0.41576 0.70893 0.69861 0.0
H1816 H 0.39709 0.7232 0.72204 0.0
H1817 H 0.38978 0.72597 0.69121 0.0
H1818 H 0.36176 0.76116 0.69595 0.0
H1819 H 0.32882 0.7645 0.72353 0.0
H1820 H 0.35386 0.41275 0.58903 0.0
H1821 H 0.34765 0.38772 0.62408 0.0
H1822 H 0.28666 0.43337 0.64369 0.0
H1823 H 0.29264 0.45827 0.6084 0.0
H1824 H 0.34264 0.39263 0.67207 0.0
H1825 H 0.26829 0.37724 0.64372 0.0
H1826 H 0.28519 0.39105 0.62353 0.0
H1827 H 0.26622 0.40592 0.64619 0.0
C1828 C 0.33914 0.41747 0.60081 0.0
C1829 C 0.32367 0.43744 0.59577 0.0
C1830 C 0.33558 0.40312 0.62084 0.0
C1831 C 0.31651 0.40842 0.63637 0.0
C1832 C 0.30122 0.42857 0.63165 0.0
H1833 H 0.30396 0.33581 0.77951 0.0
H1834 H 0.30684 0.36482 0.74741 0.0
C1835 C 0.30467 0.44283 0.61146 0.0
C1836 C 0.31285 0.39294 0.65757 0.0
H1837 H 0.27811 0.3629 0.68329 0.0
C1838 C 0.32852 0.38614 0.67453 0.0
C1839 C 0.29453 0.38425 0.66069 0.0
C1840 C 0.2777 0.3898 0.64246 0.0
C1841 C 0.32646 0.37086 0.69437 0.0
C1842 C 0.30793 0.36254 0.69776 0.0
C1843 C 0.2922 0.36944 0.68088 0.0
C1844 C 0.30518 0.34552 0.71768 0.0
C1845 C 0.34457 0.36322 0.71096 0.0
C1846 C 0.30244 0.32531 0.71183 0.0
C1847 C 0.30044 0.30888 0.73012 0.0
C1848 C 0.30116 0.31218 0.7548 0.0
C1849 C 0.30345 0.33263 0.76072 0.0
C1850 C 0.30528 0.34918 0.74235 0.0
H1851 H 0.3598 0.36669 0.70233 0.0
H1852 H 0.34002 0.37209 0.72788 0.0
H1853 H 0.34769 0.34524 0.71608 0.0
H1854 H 0.30224 0.32207 0.69299 0.0
H1855 H 0.29872 0.29339 0.72477 0.0
H1856 H 0.56055 0.28446 0.55779 0.0
H1857 H 0.58596 0.2974 0.57953 0.0
H1858 H 0.61601 0.23023 0.60378 0.0
H1859 H 0.59106 0.21729 0.58272 0.0
H1860 H 0.597 0.28275 0.63614 0.0
H1861 H 0.66416 0.26078 0.5639 0.0
H1862 H 0.63608 0.26801 0.5576 0.0
H1863 H 0.64818 0.24122 0.57148 0.0
C1864 C 0.57247 0.27252 0.56793 0.0
C1865 C 0.57374 0.24982 0.56836 0.0
C1866 C 0.58696 0.27992 0.58031 0.0
C1867 C 0.60297 0.26471 0.59311 0.0
C1868 C 0.6039 0.24222 0.59392 0.0
H1869 H 0.71323 0.24031 0.67205 0.0
H1870 H 0.68413 0.24175 0.64664 0.0
C1871 C 0.58952 0.23489 0.58178 0.0
C1872 C 0.61929 0.27163 0.60545 0.0
H1873 H 0.67368 0.26583 0.60292 0.0
C1874 C 0.6137 0.2796 0.62872 0.0
C1875 C 0.64108 0.26724 0.59581 0.0
C1876 C 0.64784 0.25898 0.57074 0.0
C1877 C 0.62955 0.28217 0.64313 0.0
C1878 C 0.65154 0.27688 0.63385 0.0
C1879 C 0.6569 0.26986 0.61011 0.0
C1880 C 0.66941 0.27666 0.64908 0.0
C1881 C 0.6228 0.28925 0.66868 0.0
C1882 C 0.67111 0.29588 0.65879 0.0
C1883 C 0.68793 0.29514 0.67333 0.0
C1884 C 0.70353 0.27519 0.67835 0.0
C1885 C 0.70184 0.25607 0.66831 0.0
C1886 C 0.68507 0.25682 0.65384 0.0
H1887 H 0.60601 0.28848 0.67472 0.0
H1888 H 0.63382 0.27872 0.68177 0.0
H1889 H 0.62366 0.30654 0.66933 0.0
H1890 H 0.65951 0.31149 0.65501 0.0
H1891 H 0.68882 0.31026 0.68045 0.0
H1892 H 0.74127 0.53254 0.5174 0.0
H1893 H 0.74018 0.50009 0.49727 0.0
H1894 H 0.77412 0.45778 0.55439 0.0
H1895 H 0.77483 0.49015 0.57494 0.0
H1896 H 0.77701 0.47202 0.47979 0.0
H1897 H 0.73031 0.42479 0.54315 0.0
H1898 H 0.72908 0.45334 0.5465 0.0
H1899 H 0.75142 0.43175 0.55688 0.0
C1900 C 0.74792 0.51634 0.5261 0.0
C1901 C 0.75826 0.51401 0.54773 0.0
C1902 C 0.74734 0.49777 0.51451 0.0
C1903 C 0.75703 0.47644 0.52427 0.0
C1904 C 0.76617 0.47401 0.54667 0.0
H1905 H 0.80216 0.34797 0.46517 0.0
H1906 H 0.79205 0.37901 0.49121 0.0
C1907 C 0.76663 0.4926 0.5584 0.0
C1908 C 0.76003 0.45716 0.50947 0.0
H1909 H 0.75157 0.40578 0.50986 0.0
C1910 C 0.7712 0.45766 0.48629 0.0
C1911 C 0.75272 0.43827 0.51803 0.0
C1912 C 0.74004 0.43702 0.54242 0.0
C1913 C 0.77559 0.43975 0.47163 0.0
C1914 C 0.76827 0.42088 0.48013 0.0
C1915 C 0.75709 0.4203 0.50332 0.0
C1916 C 0.77259 0.40148 0.46528 0.0
C1917 C 0.78862 0.44096 0.44742 0.0
C1918 C 0.76452 0.40359 0.44232 0.0
C1919 C 0.77043 0.38596 0.42728 0.0
C1920 C 0.78445 0.36574 0.43495 0.0
C1921 C 0.79167 0.36339 0.45848 0.0
C1922 C 0.78576 0.38106 0.47349 0.0
H1923 H 0.79743 0.45401 0.4463 0.0
H1924 H 0.8005 0.42493 0.44421 0.0
H1925 H 0.77759 0.44488 0.43257 0.0
H1926 H 0.75407 0.41909 0.43575 0.0
H1927 H 0.76466 0.38848 0.40927 0.0
H1928 H 0.64054 0.77911 0.52106 0.0
H1929 H 0.66694 0.78412 0.4871 0.0
H1930 H 0.65863 0.72756 0.45511 0.0
H1931 H 0.63203 0.7227 0.48857 0.0
H1932 H 0.70641 0.75423 0.47133 0.0
H1933 H 0.65006 0.77529 0.39837 0.0
H1934 H 0.64083 0.776 0.43034 0.0
H1935 H 0.64937 0.75015 0.41636 0.0
C1936 C 0.64414 0.76786 0.50669 0.0
C1937 C 0.63401 0.75051 0.50767 0.0
C1938 C 0.65936 0.77068 0.48732 0.0
C1939 C 0.66463 0.75641 0.4683 0.0
C1940 C 0.65464 0.73903 0.46929 0.0
H1941 H 0.75042 0.73787 0.33601 0.0
H1942 H 0.72344 0.73689 0.37029 0.0
C1943 C 0.63954 0.73613 0.48867 0.0
C1944 C 0.68085 0.75931 0.44766 0.0
H1945 H 0.68751 0.76758 0.38555 0.0
C1946 C 0.70225 0.75735 0.45259 0.0
C1947 C 0.67549 0.76333 0.42315 0.0
C1948 C 0.65266 0.76653 0.41666 0.0
C1949 C 0.71851 0.75855 0.43371 0.0
C1950 C 0.71319 0.76235 0.40914 0.0
C1951 C 0.6917 0.76464 0.40429 0.0
C1952 C 0.72972 0.76334 0.38815 0.0
C1953 C 0.74139 0.75491 0.44024 0.0
C1954 C 0.74219 0.77876 0.38636 0.0
C1955 C 0.75779 0.77932 0.3667 0.0
C1956 C 0.76115 0.76463 0.34818 0.0
C1957 C 0.74835 0.74949 0.34982 0.0
C1958 C 0.73285 0.7489 0.36949 0.0
H1959 H 0.74377 0.74642 0.45869 0.0
H1960 H 0.75308 0.74496 0.42681 0.0
H1961 H 0.74512 0.77112 0.4402 0.0
H1962 H 0.7398 0.79048 0.40013 0.0
H1963 H 0.76721 0.79129 0.36605 0.0
H1964 H 0.36171 0.56844 0.46929 0.0
H1965 H 0.3571 0.60529 0.44846 0.0
H1966 H 0.28836 0.61324 0.45183 0.0
H1967 H 0.29282 0.5766 0.47275 0.0
H1968 H 0.34196 0.62002 0.40523 0.0
H1969 H 0.29007 0.6712 0.47537 0.0
H1970 H 0.30409 0.64268 0.48197 0.0
H1971 H 0.27887 0.64965 0.4681 0.0
C1972 C 0.3456 0.57806 0.4657 0.0
C1973 C 0.32765 0.5695 0.47283 0.0
C1974 C 0.34297 0.59919 0.45387 0.0
C1975 C 0.32233 0.61229 0.44892 0.0
C1976 C 0.30438 0.6038 0.45605 0.0
H1977 H 0.29072 0.71329 0.33306 0.0
H1978 H 0.29612 0.68059 0.36143 0.0
C1979 C 0.30698 0.58274 0.46799 0.0
C1980 C 0.31971 0.63413 0.43485 0.0
H1981 H 0.29157 0.68848 0.43474 0.0
C1982 C 0.3311 0.63501 0.41184 0.0
C1983 C 0.3058 0.65384 0.44353 0.0
C1984 C 0.29419 0.65439 0.4687 0.0
C1985 C 0.32838 0.65477 0.39696 0.0
C1986 C 0.31349 0.67417 0.40502 0.0
C1987 C 0.30273 0.67355 0.42841 0.0
C1988 C 0.30845 0.69494 0.38896 0.0
C1989 C 0.34153 0.65467 0.3727 0.0
C1990 C 0.31256 0.71436 0.39549 0.0
C1991 C 0.30929 0.73333 0.37929 0.0
C1992 C 0.30182 0.73316 0.35631 0.0
C1993 C 0.29675 0.71398 0.35045 0.0
C1994 C 0.29993 0.69517 0.36661 0.0
H1995 H 0.35636 0.64076 0.37239 0.0
H1996 H 0.33172 0.65268 0.35816 0.0
H1997 H 0.34631 0.67038 0.36835 0.0
H1998 H 0.31898 0.71462 0.41276 0.0
H1999 H 0.31339 0.74779 0.38439 0.0
H2000 H 0.50122 0.22835 0.44282 0.0
H2001 H 0.47043 0.23745 0.41821 0.0
H2002 H 0.43265 0.27938 0.47285 0.0
H2003 H 0.46406 0.2709 0.4972 0.0
H2004 H 0.43424 0.22697 0.42941 0.0
H2005 H 0.41517 0.31799 0.41271 0.0
H2006 H 0.43997 0.30209 0.42485 0.0
H2007 H 0.41536 0.30876 0.44444 0.0
C2008 C 0.48651 0.23994 0.44935 0.0
C2009 C 0.48511 0.24899 0.4719 0.0
C2010 C 0.46882 0.24506 0.43529 0.0
C2011 C 0.44905 0.25916 0.44348 0.0
C2012 C 0.44776 0.26883 0.46574 0.0
H2013 H 0.33043 0.25107 0.38319 0.0
H2014 H 0.35924 0.24821 0.40975 0.0
C2015 C 0.46572 0.26397 0.47971 0.0
C2016 C 0.42973 0.26209 0.4294 0.0
H2017 H 0.38993 0.30037 0.40083 0.0
C2018 C 0.42461 0.24307 0.42316 0.0
C2019 C 0.41712 0.28303 0.42099 0.0
C2020 C 0.42226 0.30414 0.42587 0.0
C2021 C 0.40762 0.24431 0.40863 0.0
C2022 C 0.39468 0.26523 0.40067 0.0
C2023 C 0.39966 0.2843 0.40704 0.0
C2024 C 0.3765 0.26764 0.38499 0.0
C2025 C 0.40432 0.22308 0.40123 0.0
C2026 C 0.37599 0.28016 0.36249 0.0
C2027 C 0.35931 0.28211 0.34741 0.0
C2028 C 0.3427 0.2715 0.35437 0.0
C2029 C 0.34309 0.25917 0.37702 0.0
C2030 C 0.35966 0.25745 0.39223 0.0
H2031 H 0.41914 0.20929 0.40258 0.0
H2032 H 0.39129 0.21841 0.4136 0.0
H2033 H 0.39959 0.22493 0.38225 0.0
H2034 H 0.38868 0.28825 0.35642 0.0
H2035 H 0.35955 0.29183 0.33018 0.0
H2036 H 0.59038 0.80803 0.63602 0.0
H2037 H 0.61055 0.81739 0.66699 0.0
H2038 H 0.65814 0.75506 0.66029 0.0
H2039 H 0.63801 0.74546 0.63012 0.0
H2040 H 0.64545 0.76292 0.70738 0.0
H2041 H 0.66655 0.83639 0.65766 0.0
H2042 H 0.63824 0.83764 0.66204 0.0
H2043 H 0.65586 0.81777 0.64288 0.0
C2044 C 0.60522 0.79644 0.64108 0.0
C2045 C 0.61256 0.776 0.63063 0.0
C2046 C 0.61678 0.80183 0.6587 0.0
C2047 C 0.63598 0.78699 0.66585 0.0
C2048 C 0.64335 0.76675 0.65517 0.0
H2049 H 0.74794 0.79417 0.72748 0.0
H2050 H 0.71811 0.79624 0.70308 0.0
C2051 C 0.6318 0.7613 0.63784 0.0
C2052 C 0.64847 0.7919 0.68477 0.0
H2053 H 0.67961 0.82537 0.69627 0.0
C2054 C 0.65274 0.77672 0.70511 0.0
C2055 C 0.65803 0.80985 0.68171 0.0
C2056 C 0.65464 0.82629 0.65983 0.0
C2057 C 0.66706 0.77837 0.72186 0.0
C2058 C 0.67692 0.79613 0.71861 0.0
C2059 C 0.67194 0.81185 0.69883 0.0
C2060 C 0.69424 0.79723 0.73384 0.0
C2061 C 0.67244 0.76032 0.74201 0.0
C2062 C 0.6907 0.79772 0.75932 0.0
C2063 C 0.7079 0.79626 0.77348 0.0
C2064 C 0.72888 0.79462 0.76235 0.0
C2065 C 0.73206 0.79533 0.73675 0.0
C2066 C 0.71496 0.79658 0.72269 0.0
H2067 H 0.66716 0.74552 0.73872 0.0
H2068 H 0.69007 0.75522 0.74398 0.0
H2069 H 0.66408 0.76653 0.75951 0.0
H2070 H 0.67475 0.79873 0.76831 0.0
H2071 H 0.70482 0.79592 0.79312 0.0
H2072 H 0.60991 0.2416 0.49151 0.0
H2073 H 0.64224 0.249 0.46906 0.0
H2074 H 0.64191 0.20167 0.41793 0.0
H2075 H 0.6093 0.19438 0.44004 0.0
H2076 H 0.68394 0.19931 0.43503 0.0
H2077 H 0.64048 0.28368 0.40075 0.0
H2078 H 0.63728 0.27761 0.43315 0.0
H2079 H 0.62658 0.26316 0.41312 0.0
C2080 C 0.61656 0.23286 0.4754 0.0
C2081 C 0.60679 0.21759 0.46741 0.0
C2082 C 0.63512 0.23704 0.46267 0.0
C2083 C 0.64427 0.22607 0.44171 0.0
C2084 C 0.63504 0.21031 0.43409 0.0
H2085 H 0.72896 0.26081 0.32344 0.0
H2086 H 0.7002 0.25065 0.3504 0.0
C2087 C 0.61643 0.20613 0.44679 0.0
C2088 C 0.66303 0.23158 0.42724 0.0
H2089 H 0.67816 0.27291 0.39118 0.0
C2090 C 0.68276 0.2154 0.42548 0.0
C2091 C 0.6613 0.25254 0.41469 0.0
C2092 C 0.64026 0.27025 0.41528 0.0
C2093 C 0.70087 0.21966 0.41144 0.0
C2094 C 0.69917 0.24069 0.39905 0.0
C2095 C 0.67944 0.25685 0.40087 0.0
C2096 C 0.71724 0.24599 0.38295 0.0
C2097 C 0.72152 0.20151 0.40943 0.0
C2098 C 0.7364 0.24676 0.39235 0.0
C2099 C 0.75298 0.25261 0.37694 0.0
C2100 C 0.7506 0.25785 0.35189 0.0
C2101 C 0.73139 0.25692 0.34262 0.0
C2102 C 0.71489 0.25111 0.358 0.0
H2103 H 0.71894 0.18513 0.41611 0.0
H2104 H 0.72859 0.2007 0.39024 0.0
H2105 H 0.73342 0.20503 0.42052 0.0
H2106 H 0.73838 0.24319 0.41165 0.0
H2107 H 0.76753 0.25324 0.38468 0.0
H2108 H 0.8263 0.56537 0.48647 0.0
H2109 H 0.84045 0.57934 0.44683 0.0
H2110 H 0.81091 0.6461 0.46588 0.0
H2111 H 0.79806 0.63252 0.50546 0.0
H2112 H 0.81961 0.60271 0.41009 0.0
H2113 H 0.8691 0.65201 0.44058 0.0
H2114 H 0.8592 0.63213 0.46104 0.0
H2115 H 0.84275 0.66001 0.45614 0.0
C2116 C 0.82329 0.58301 0.48238 0.0
C2117 C 0.81091 0.59779 0.49917 0.0
C2118 C 0.83126 0.59097 0.45966 0.0
C2119 C 0.8271 0.61381 0.4535 0.0
C2120 C 0.81491 0.62845 0.47037 0.0
H2121 H 0.796 0.6956 0.32763 0.0
H2122 H 0.80144 0.6645 0.35829 0.0
C2123 C 0.80718 0.62059 0.49296 0.0
C2124 C 0.83397 0.62282 0.42903 0.0
H2125 H 0.85234 0.66611 0.40243 0.0
C2126 C 0.82729 0.61621 0.40825 0.0
C2127 C 0.84467 0.63991 0.42633 0.0
C2128 C 0.85455 0.64619 0.44724 0.0
C2129 C 0.82924 0.6276 0.38531 0.0
C2130 C 0.83726 0.64663 0.38334 0.0
C2131 C 0.84572 0.65189 0.40374 0.0
C2132 C 0.83517 0.66262 0.36144 0.0
C2133 C 0.8224 0.6192 0.36361 0.0
C2134 C 0.85215 0.67225 0.35285 0.0
C2135 C 0.84871 0.69066 0.33606 0.0
C2136 C 0.82845 0.6993 0.32692 0.0
C2137 C 0.8119 0.68884 0.33406 0.0
C2138 C 0.81511 0.6709 0.35148 0.0
H2139 H 0.82608 0.60089 0.36533 0.0
H2140 H 0.80467 0.62556 0.36294 0.0
H2141 H 0.83056 0.62441 0.34623 0.0
H2142 H 0.86778 0.66629 0.36014 0.0
H2143 H 0.86162 0.69866 0.33091 0.0
H2144 H 0.51068 0.81952 0.55767 0.0
H2145 H 0.47746 0.83521 0.53687 0.0
H2146 H 0.50413 0.79412 0.47729 0.0
H2147 H 0.53709 0.77869 0.49767 0.0
H2148 H 0.48033 0.8372 0.46252 0.0
H2149 H 0.43583 0.79526 0.53567 0.0
H2150 H 0.4493 0.81453 0.54455 0.0
H2151 H 0.46491 0.78911 0.53263 0.0
C2152 C 0.5096 0.81434 0.53984 0.0
C2153 C 0.52632 0.79775 0.52935 0.0
C2154 C 0.4906 0.82315 0.5281 0.0
C2155 C 0.48825 0.81552 0.50575 0.0
C2156 C 0.50559 0.80017 0.49456 0.0
H2157 H 0.39565 0.78383 0.43101 0.0
H2158 H 0.42252 0.78742 0.45732 0.0
C2159 C 0.52439 0.79133 0.50626 0.0
C2160 C 0.46735 0.82155 0.4947 0.0
H2161 H 0.41842 0.80943 0.5003 0.0
C2162 C 0.46655 0.83162 0.47093 0.0
C2163 C 0.44957 0.81395 0.50571 0.0
C2164 C 0.44981 0.80249 0.53099 0.0
C2165 C 0.44893 0.83324 0.45735 0.0
C2166 C 0.43153 0.82485 0.46803 0.0
C2167 C 0.43181 0.81584 0.49224 0.0
C2168 C 0.41406 0.82313 0.45355 0.0
C2169 C 0.44974 0.84258 0.43118 0.0
C2170 C 0.40013 0.84203 0.44313 0.0
C2171 C 0.38491 0.84002 0.42786 0.0
C2172 C 0.38325 0.81905 0.42289 0.0
C2173 C 0.39673 0.80018 0.43414 0.0
C2174 C 0.41196 0.80222 0.44934 0.0
H2175 H 0.466 0.84463 0.42446 0.0
H2176 H 0.44521 0.83173 0.41913 0.0
H2177 H 0.43801 0.85901 0.42965 0.0
H2178 H 0.40129 0.85831 0.44643 0.0
H2179 H 0.37492 0.8549 0.41934 0.0
H2180 H 0.26879 0.48187 0.46721 0.0
H2181 H 0.25781 0.46174 0.43704 0.0
H2182 H 0.31784 0.41136 0.44112 0.0
H2183 H 0.32909 0.43153 0.47047 0.0
H2184 H 0.30872 0.42363 0.39465 0.0
H2185 H 0.23685 0.40619 0.4494 0.0
H2186 H 0.23664 0.43481 0.44399 0.0
H2187 H 0.25628 0.41668 0.46246 0.0
C2188 C 0.27958 0.46646 0.46169 0.0
C2189 C 0.2998 0.45828 0.47124 0.0
C2190 C 0.27325 0.45493 0.44455 0.0
C2191 C 0.28691 0.43491 0.43701 0.0
C2192 C 0.30704 0.42679 0.44661 0.0
H2193 H 0.27438 0.31963 0.38332 0.0
H2194 H 0.27315 0.35149 0.40543 0.0
C2195 C 0.31344 0.43835 0.46345 0.0
C2196 C 0.28073 0.42217 0.419 0.0
H2197 H 0.24585 0.39154 0.41107 0.0
C2198 C 0.29483 0.4168 0.39806 0.0
C2199 C 0.26261 0.41327 0.42355 0.0
C2200 C 0.24728 0.41784 0.44613 0.0
C2201 C 0.29202 0.40185 0.38225 0.0
C2202 C 0.27417 0.39254 0.38708 0.0
C2203 C 0.25944 0.3988 0.40734 0.0
C2204 C 0.27215 0.37419 0.37332 0.0
C2205 C 0.30901 0.39513 0.36147 0.0
C2206 C 0.27127 0.37645 0.3479 0.0
C2207 C 0.27229 0.35805 0.33504 0.0
C2208 C 0.27383 0.33719 0.34748 0.0
C2209 C 0.2733 0.33538 0.37308 0.0
C2210 C 0.27253 0.35364 0.38582 0.0
H2211 H 0.32389 0.40031 0.36341 0.0
H2212 H 0.31348 0.37696 0.36029 0.0
H2213 H 0.30254 0.40303 0.34406 0.0
H2214 H 0.27042 0.39227 0.33793 0.0
H2215 H 0.27245 0.36007 0.31536 0.0
H2216 H 0.50046 0.17726 0.61621 0.0
H2217 H 0.47346 0.18001 0.65103 0.0
H2218 H 0.43612 0.2413 0.61836 0.0
H2219 H 0.46248 0.23823 0.58304 0.0
H2220 H 0.46089 0.21183 0.68326 0.0
H2221 H 0.39071 0.20756 0.63603 0.0
H2222 H 0.41797 0.20046 0.62193 0.0
H2223 H 0.40282 0.22891 0.6225 0.0
C2224 C 0.48633 0.19112 0.61615 0.0
C2225 C 0.48369 0.20749 0.59668 0.0
C2226 C 0.47097 0.19275 0.6362 0.0
C2227 C 0.45262 0.2107 0.63715 0.0
C2228 C 0.44993 0.22706 0.61781 0.0
H2229 H 0.37073 0.26463 0.76159 0.0
H2230 H 0.39915 0.25465 0.72877 0.0
C2231 C 0.46521 0.22542 0.59773 0.0
C2232 C 0.43671 0.21282 0.6588 0.0
H2233 H 0.38299 0.22043 0.67612 0.0
C2234 C 0.44388 0.2135 0.68175 0.0
C2235 C 0.41459 0.21465 0.65688 0.0
C2236 C 0.40608 0.21263 0.63305 0.0
C2237 C 0.42941 0.21668 0.70271 0.0
C2238 C 0.40711 0.21973 0.70055 0.0
C2239 C 0.40005 0.21832 0.67774 0.0
C2240 C 0.39071 0.22498 0.72153 0.0
C2241 C 0.43818 0.21661 0.72696 0.0
C2242 C 0.37626 0.21182 0.72816 0.0
C2243 C 0.3598 0.21762 0.74677 0.0
C2244 C 0.35745 0.23673 0.75909 0.0
C2245 C 0.37218 0.24968 0.75267 0.0
C2246 C 0.38854 0.24393 0.73397 0.0
H2247 H 0.45546 0.20734 0.7268 0.0
H2248 H 0.43698 0.23385 0.73089 0.0
H2249 H 0.42889 0.20918 0.74195 0.0
H2250 H 0.37756 0.19718 0.71872 0.0
H2251 H 0.34873 0.20729 0.75122 0.0
H2252 H 0.86668 0.47473 0.62831 0.0
H2253 H 0.86828 0.4402 0.65376 0.0
H2254 H 0.82284 0.42502 0.61069 0.0
H2255 H 0.82111 0.45949 0.58539 0.0
H2256 H 0.8266 0.43382 0.67871 0.0
H2257 H 0.87095 0.36506 0.62202 0.0
H2258 H 0.87521 0.39243 0.61701 0.0
H2259 H 0.85137 0.38721 0.60755 0.0
C2260 C 0.85762 0.46365 0.62382 0.0
C2261 C 0.84375 0.46974 0.60495 0.0
C2262 C 0.85845 0.44402 0.6384 0.0
C2263 C 0.84578 0.43003 0.63398 0.0
C2264 C 0.83296 0.43544 0.6142 0.0
H2265 H 0.80667 0.31794 0.71025 0.0
H2266 H 0.81517 0.34607 0.67979 0.0
C2267 C 0.83191 0.45514 0.59986 0.0
C2268 C 0.84354 0.41151 0.65184 0.0
H2269 H 0.85246 0.35545 0.65915 0.0
C2270 C 0.83246 0.41666 0.67458 0.0
C2271 C 0.85081 0.38923 0.64612 0.0
C2272 C 0.86288 0.38299 0.62191 0.0
C2273 C 0.82806 0.40014 0.69168 0.0
C2274 C 0.83561 0.37773 0.6862 0.0
C2275 C 0.84678 0.37258 0.6634 0.0
C2276 C 0.83192 0.35955 0.70395 0.0
C2277 C 0.81466 0.40699 0.71507 0.0
C2278 C 0.83906 0.35733 0.72739 0.0
C2279 C 0.83396 0.34156 0.74485 0.0
C2280 C 0.822 0.32731 0.73912 0.0
C2281 C 0.81584 0.32872 0.71525 0.0
C2282 C 0.8207 0.34477 0.69783 0.0
H2283 H 0.80486 0.42439 0.71322 0.0
H2284 H 0.80361 0.39626 0.7208 0.0
H2285 H 0.82553 0.40565 0.72973 0.0
H2286 H 0.8483 0.36807 0.73233 0.0
H2287 H 0.8393 0.34065 0.76294 0.0
H2288 H 0.25992 0.56214 0.54143 0.0
H2289 H 0.24479 0.59742 0.56013 0.0
H2290 H 0.27341 0.56875 0.62673 0.0
H2291 H 0.28843 0.5337 0.60831 0.0
H2292 H 0.23041 0.59929 0.63268 0.0
H2293 H 0.29004 0.63219 0.56988 0.0
H2294 H 0.27129 0.62071 0.55701 0.0
H2295 H 0.29201 0.603 0.57431 0.0
C2296 C 0.26238 0.56323 0.56029 0.0
C2297 C 0.27551 0.54533 0.5734 0.0
C2298 C 0.25387 0.58338 0.57086 0.0
C2299 C 0.2583 0.58569 0.59464 0.0
C2300 C 0.26988 0.56728 0.60832 0.0
H2301 H 0.27113 0.66188 0.70339 0.0
H2302 H 0.2663 0.63546 0.67648 0.0
C2303 C 0.27849 0.5473 0.59777 0.0
C2304 C 0.25341 0.60751 0.60468 0.0
H2305 H 0.27397 0.65225 0.60341 0.0
C2306 C 0.23951 0.61118 0.62599 0.0
C2307 C 0.26528 0.62298 0.5958 0.0
C2308 C 0.28059 0.61965 0.57306 0.0
C2309 C 0.23814 0.62929 0.63948 0.0
C2310 C 0.25138 0.64372 0.63169 0.0
C2311 C 0.264 0.64101 0.60941 0.0
C2312 C 0.25423 0.66005 0.64767 0.0
C2313 C 0.22309 0.63236 0.66241 0.0
C2314 C 0.24996 0.68254 0.63992 0.0
C2315 C 0.25308 0.6977 0.65514 0.0
C2316 C 0.26072 0.69055 0.67825 0.0
C2317 C 0.26548 0.66792 0.68561 0.0
C2318 C 0.26236 0.65283 0.67043 0.0
H2319 H 0.20927 0.62515 0.66139 0.0
H2320 H 0.23199 0.62375 0.67817 0.0
H2321 H 0.21673 0.6501 0.66581 0.0
H2322 H 0.24402 0.68836 0.62223 0.0
H2323 H 0.24946 0.71501 0.64887 0.0
loop_
_geom_bond_atom_site_label_1
_geom_bond_atom_site_label_2
_geom_bond_distance
_geom_bond_site_symmetry_2
_ccdc_geom_bond_type
Cu0 N1 1.999 . S
Cu0 O6 1.974 1_545 S
Cu0 N11 1.985 1_545 S
Cu0 O20 1.957 1_455 S
N1 Cu0 1.999 . S
N1 C3 1.263 . S
N1 C5 1.389 . S
N2 C3 1.358 . S
N2 C4 1.400 . S
C3 N1 1.263 . S
C3 N2 1.358 . S
C3 H9 0.930 . S
C4 N2 1.400 . S
C4 C5 1.351 . S
C4 H21 0.930 . S
C5 N1 1.389 . S
C5 C4 1.351 . S
C5 H10 0.930 . S
O6 Cu0 1.974 1_565 S
O6 C16 1.282 . S
C7 O8 1.261 1_655 S
C7 O20 1.252 . S
O8 C7 1.261 1_455 S
H9 C3 0.930 . S
H10 C5 0.930 . S
N11 Cu0 1.985 1_565 S
N11 C13 1.335 1_455 S
N11 C14 1.390 . S
N12 C13 1.345 . S
N12 C15 1.336 1_655 S
C13 N11 1.335 1_655 S
C13 N12 1.345 . S
C13 H18 0.930 . S
C14 N11 1.390 . S
C14 C15 1.346 . S
C14 H19 0.930 . S
C15 N12 1.336 1_455 S
C15 C14 1.346 . S
C15 H22 0.929 . S
C16 O6 1.282 . S
C16 O17 1.216 . S
O17 C16 1.216 . S
H18 C13 0.930 . S
H19 C14 0.930 . S
O20 Cu0 1.957 1_655 S
O20 C7 1.252 . S
H21 C4 0.930 . S
H22 C15 0.929 . S
Cu23 N24 2.024 . S
Cu23 O29 1.974 1_455 S
Cu23 N34 1.985 . S
Cu23 O43 1.959 . S
N24 Cu23 2.024 . S
N24 C26 1.233 1_455 S
N24 C28 1.390 1_545 S
N25 C26 1.358 1_565 S
N25 C27 1.400 . S
C26 N24 1.233 1_655 S
C26 N25 1.358 1_545 S
C26 H32 0.930 . S
C27 N25 1.400 . S
C27 C28 1.351 1_655 S
C27 H44 0.930 . S
C28 N24 1.390 1_565 S
C28 C27 1.351 1_455 S
C28 H33 0.930 . S
O29 Cu23 1.974 1_655 S
O29 C39 1.282 . S
C30 O31 1.261 . S
C30 O43 1.251 . S
O31 C30 1.261 . S
H32 C26 0.930 . S
H33 C28 0.930 . S
N34 Cu23 1.985 . S
N34 C36 1.335 . S
N34 C37 1.390 . S
N35 C36 1.345 . S
N35 C38 1.336 . S
C36 N34 1.335 . S
C36 N35 1.345 . S
C36 H41 0.930 . S
C37 N34 1.390 . S
C37 C38 1.346 . S
C37 H42 0.930 . S
C38 N35 1.336 . S
C38 C37 1.346 . S
C38 H45 0.929 . S
C39 O29 1.282 . S
C39 O40 1.216 . S
O40 C39 1.216 . S
H41 C36 0.930 . S
H42 C37 0.930 . S
O43 Cu23 1.959 . S
O43 C30 1.251 . S
H44 C27 0.930 . S
H45 C38 0.929 . S
Cu46 N47 1.999 . S
Cu46 O52 1.974 . S
Cu46 N57 1.985 . S
Cu46 O66 1.959 . S
N47 Cu46 1.999 . S
N47 C49 1.263 . S
N47 C51 1.389 . S
N48 C49 1.358 1_565 S
N48 C50 1.400 1_565 S
C49 N47 1.263 . S
C49 N48 1.358 1_545 S
C49 H55 0.930 1_545 S
C50 N48 1.400 1_545 S
C50 C51 1.351 . S
C50 H67 0.930 1_544 S
C51 N47 1.389 . S
C51 C50 1.351 . S
C51 H56 0.930 . S
O52 Cu46 1.974 . S
O52 C62 1.282 . S
C53 O54 1.261 . S
C53 O66 1.251 . S
O54 C53 1.261 . S
H55 C49 0.930 1_565 S
H56 C51 0.930 . S
N57 Cu46 1.985 . S
N57 C59 1.335 . S
N57 C60 1.390 . S
N58 C59 1.345 . S
N58 C61 1.336 . S
C59 N57 1.335 . S
C59 N58 1.345 . S
C59 H64 0.930 . S
C60 N57 1.390 . S
C60 C61 1.346 . S
C60 H65 0.930 . S
C61 N58 1.336 . S
C61 C60 1.346 . S
C61 H68 0.929 . S
C62 O52 1.282 . S
C62 O63 1.216 . S
O63 C62 1.216 . S
H64 C59 0.930 . S
H65 C60 0.930 . S
O66 Cu46 1.959 . S
O66 C53 1.251 . S
H67 C50 0.930 1_566 S
H68 C61 0.929 . S
Cu69 N70 1.999 . S
Cu69 O75 1.974 . S
Cu69 N80 1.985 . S
Cu69 O89 1.959 . S
N70 Cu69 1.999 . S
N70 C72 1.263 . S
N70 C74 1.389 . S
N71 C72 1.358 . S
N71 C73 1.400 1_554 S
C72 N70 1.263 . S
C72 N71 1.358 . S
C72 H78 0.930 . S
C73 N71 1.400 1_556 S
C73 C74 1.351 1_556 S
C73 H90 0.930 . S
C74 N70 1.389 . S
C74 C73 1.351 1_554 S
C74 H79 0.930 . S
O75 Cu69 1.974 . S
O75 C85 1.282 . S
C76 O77 1.261 . S
C76 O89 1.251 . S
O77 C76 1.261 . S
H78 C72 0.930 . S
H79 C74 0.930 . S
N80 Cu69 1.985 . S
N80 C82 1.335 1_455 S
N80 C83 1.390 . S
N81 C82 1.345 . S
N81 C84 1.317 1_655 S
C82 N80 1.335 1_655 S
C82 N81 1.345 . S
C82 H87 0.930 . S
C83 N80 1.390 . S
C83 C84 1.368 . S
C83 H88 0.930 . S
C84 N81 1.317 1_455 S
C84 C83 1.368 . S
C84 H91 0.926 1_455 S
C85 O75 1.282 . S
C85 O86 1.216 . S
O86 C85 1.216 . S
H87 C82 0.930 . S
H88 C83 0.930 . S
O89 Cu69 1.959 . S
O89 C76 1.251 . S
H90 C73 0.930 . S
H91 C84 0.926 1_655 S
Cu92 N93 1.999 1_554 S
Cu92 O98 1.974 . S
Cu92 N103 1.985 1_545 S
Cu92 O112 1.959 1_544 S
N93 Cu92 1.999 1_556 S
N93 C95 1.263 . S
N93 C97 1.389 . S
N94 C95 1.358 . S
N94 C96 1.400 . S
C95 N93 1.263 . S
C95 N94 1.358 . S
C95 H101 0.930 . S
C96 N94 1.400 . S
C96 C97 1.351 . S
C96 H113 0.930 . S
C97 N93 1.389 . S
C97 C96 1.351 . S
C97 H102 0.930 . S
O98 Cu92 1.974 . S
O98 C108 1.282 . S
C99 O100 1.261 . S
C99 O112 1.251 . S
O100 C99 1.261 . S
H101 C95 0.930 . S
H102 C97 0.930 . S
N103 Cu92 1.985 1_565 S
N103 C105 1.335 . S
N103 C106 1.390 . S
N104 C105 1.345 . S
N104 C107 1.336 . S
C105 N103 1.335 . S
C105 N104 1.345 . S
C105 H110 0.930 . S
C106 N103 1.390 . S
C106 C107 1.346 . S
C106 H111 0.930 . S
C107 N104 1.336 . S
C107 C106 1.346 . S
C107 H114 0.929 . S
C108 O98 1.282 . S
C108 O109 1.216 . S
O109 C108 1.216 . S
H110 C105 0.930 . S
H111 C106 0.930 . S
O112 Cu92 1.959 1_566 S
O112 C99 1.251 . S
H113 C96 0.930 . S
H114 C107 0.929 . S
Cu115 N116 1.999 1_454 S
Cu115 O121 1.974 1_455 S
Cu115 N126 1.985 . S
Cu115 O135 1.959 1_554 S
N116 Cu115 1.999 1_656 S
N116 C118 1.263 . S
N116 C120 1.389 . S
N117 C118 1.358 . S
N117 C119 1.400 . S
C118 N116 1.263 . S
C118 N117 1.358 . S
C118 H124 0.939 . S
C119 N117 1.400 . S
C119 C120 1.352 . S
C119 H136 0.930 . S
C120 N116 1.389 . S
C120 C119 1.352 . S
C120 H125 0.929 1_655 S
O121 Cu115 1.974 1_655 S
O121 C131 1.282 . S
C122 O123 1.261 . S
C122 O135 1.251 . S
O123 C122 1.261 . S
H124 C118 0.939 . S
H125 C120 0.929 1_455 S
N126 Cu115 1.985 . S
N126 C128 1.335 . S
N126 C129 1.390 . S
N127 C128 1.345 . S
N127 C130 1.336 . S
C128 N126 1.335 . S
C128 N127 1.345 . S
C128 H133 0.930 . S
C129 N126 1.390 . S
C129 C130 1.346 . S
C129 H134 0.930 . S
C130 N127 1.336 . S
C130 C129 1.346 . S
C130 H137 0.929 . S
C131 O121 1.282 . S
C131 O132 1.216 . S
O132 C131 1.216 . S
H133 C128 0.930 . S
H134 C129 0.930 . S
O135 Cu115 1.959 1_556 S
O135 C122 1.251 . S
H136 C119 0.930 . S
H137 C130 0.929 . S
Cu138 N139 1.999 . S
Cu138 O144 1.974 . S
Cu138 N149 1.985 . S
Cu138 O158 1.959 . S
N139 Cu138 1.999 . S
N139 C141 1.263 . S
N139 C143 1.389 . S
N140 C141 1.358 . S
N140 C142 1.400 . S
C141 N139 1.263 . S
C141 N140 1.358 . S
C141 H147 0.930 . S
C142 N140 1.400 . S
C142 C143 1.351 . S
C142 H159 0.930 . S
C143 N139 1.389 . S
C143 C142 1.351 . S
C143 H148 0.930 . S
O144 Cu138 1.974 . S
O144 C154 1.282 . S
C145 O146 1.261 . S
C145 O158 1.251 . S
O146 C145 1.261 . S
H147 C141 0.930 . S
H148 C143 0.930 . S
N149 Cu138 1.985 . S
N149 C151 1.335 . S
N149 C152 1.390 . S
N150 C151 1.345 . S
N150 C153 1.336 . S
C151 N149 1.335 . S
C151 N150 1.345 . S
C151 H156 0.930 . S
C152 N149 1.390 . S
C152 C153 1.346 . S
C152 H157 0.930 . S
C153 N150 1.336 . S
C153 C152 1.346 . S
C153 H160 0.929 . S
C154 O144 1.282 . S
C154 O155 1.216 . S
O155 C154 1.216 . S
H156 C151 0.930 . S
H157 C152 0.930 . S
O158 Cu138 1.959 . S
O158 C145 1.251 . S
H159 C142 0.930 . S
H160 C153 0.929 . S
Cu161 N162 1.999 . S
Cu161 O167 1.974 . S
Cu161 N172 1.985 . S
Cu161 O181 1.959 . S
N162 Cu161 1.999 . S
N162 C164 1.263 . S
N162 C166 1.389 . S
N163 C164 1.358 . S
N163 C165 1.400 . S
C164 N162 1.263 . S
C164 N163 1.358 . S
C164 H170 0.930 . S
C165 N163 1.400 . S
C165 C166 1.351 . S
C165 H182 0.930 . S
C166 N162 1.389 . S
C166 C165 1.351 . S
C166 H171 0.930 . S
O167 Cu161 1.974 . S
O167 C177 1.282 . S
C168 O169 1.261 . S
C168 O181 1.251 . S
O169 C168 1.261 . S
H170 C164 0.930 . S
H171 C166 0.930 . S
N172 Cu161 1.985 . S
N172 C174 1.335 . S
N172 C175 1.390 . S
N173 C174 1.345 . S
N173 C176 1.336 . S
C174 N172 1.335 . S
C174 N173 1.345 . S
C174 H179 0.930 . S
C175 N172 1.390 . S
C175 C176 1.346 . S
C175 H180 0.930 . S
C176 N173 1.336 . S
C176 C175 1.346 . S
C176 H183 0.929 . S
C177 O167 1.282 . S
C177 O178 1.216 . S
O178 C177 1.216 . S
H179 C174 0.930 . S
H180 C175 0.930 . S
O181 Cu161 1.959 . S
O181 C168 1.251 . S
H182 C165 0.930 . S
H183 C176 0.929 . S
Cu184 N185 1.999 . S
Cu184 O190 1.974 . S
Cu184 N195 1.985 . S
Cu184 O204 1.959 . S
N185 Cu184 1.999 . S
N185 C187 1.263 . S
N185 C189 1.389 . S
N186 C187 1.358 . S
N186 C188 1.400 . S
C187 N185 1.263 . S
C187 N186 1.358 . S
C187 H193 0.930 . S
C188 N186 1.400 . S
C188 C189 1.351 . S
C188 H205 0.930 . S
C189 N185 1.389 . S
C189 C188 1.351 . S
C189 H194 0.930 . S
O190 Cu184 1.974 . S
O190 C200 1.282 . S
C191 O192 1.261 . S
C191 O204 1.251 . S
O192 C191 1.261 . S
H193 C187 0.930 . S
H194 C189 0.930 . S
N195 Cu184 1.985 . S
N195 C197 1.335 . S
N195 C198 1.390 . S
N196 C197 1.345 . S
N196 C199 1.336 . S
C197 N195 1.335 . S
C197 N196 1.345 . S
C197 H202 0.930 . S
C198 N195 1.390 . S
C198 C199 1.346 . S
C198 H203 0.930 . S
C199 N196 1.336 . S
C199 C198 1.346 . S
C199 H206 0.929 . S
C200 O190 1.282 . S
C200 O201 1.216 . S
O201 C200 1.216 . S
H202 C197 0.930 . S
H203 C198 0.930 . S
O204 Cu184 1.959 . S
O204 C191 1.251 . S
H205 C188 0.930 . S
H206 C199 0.929 . S
Cu207 N208 1.999 . S
Cu207 O213 1.974 . S
Cu207 N218 1.985 . S
Cu207 O227 1.959 . S
N208 Cu207 1.999 . S
N208 C210 1.263 . S
N208 C212 1.389 . S
N209 C210 1.358 . S
N209 C211 1.400 . S
C210 N208 1.263 . S
C210 N209 1.358 . S
C210 H216 0.930 . S
C211 N209 1.400 . S
C211 C212 1.351 . S
C211 H228 0.930 . S
C212 N208 1.389 . S
C212 C211 1.351 . S
C212 H217 0.930 . S
O213 Cu207 1.974 . S
O213 C223 1.282 . S
C214 O215 1.261 . S
C214 O227 1.251 . S
O215 C214 1.261 . S
H216 C210 0.930 . S
H217 C212 0.930 . S
N218 Cu207 1.985 . S
N218 C220 1.335 . S
N218 C221 1.390 . S
N219 C220 1.345 . S
N219 C222 1.336 . S
C220 N218 1.335 . S
C220 N219 1.345 . S
C220 H225 0.930 . S
C221 N218 1.390 . S
C221 C222 1.346 . S
C221 H226 0.930 . S
C222 N219 1.336 . S
C222 C221 1.346 . S
C222 H229 0.929 . S
C223 O213 1.282 . S
C223 O224 1.216 . S
O224 C223 1.216 . S
H225 C220 0.930 . S
H226 C221 0.930 . S
O227 Cu207 1.959 . S
O227 C214 1.251 . S
H228 C211 0.930 . S
H229 C222 0.929 . S
Cu230 N231 1.999 . S
Cu230 O236 1.974 . S
Cu230 N241 1.985 . S
Cu230 O250 1.959 . S
N231 Cu230 1.999 . S
N231 C233 1.263 . S
N231 C235 1.389 . S
N232 C233 1.358 . S
N232 C234 1.400 . S
C233 N231 1.263 . S
C233 N232 1.358 . S
C233 H239 0.930 . S
C234 N232 1.400 . S
C234 C235 1.351 . S
C234 H251 0.930 . S
C235 N231 1.389 . S
C235 C234 1.351 . S
C235 H240 0.930 . S
O236 Cu230 1.974 . S
O236 C246 1.282 . S
C237 O238 1.261 . S
C237 O250 1.251 . S
O238 C237 1.261 . S
H239 C233 0.930 . S
H240 C235 0.930 . S
N241 Cu230 1.985 . S
N241 C243 1.335 . S
N241 C244 1.390 . S
N242 C243 1.345 . S
N242 C245 1.336 . S
C243 N241 1.335 . S
C243 N242 1.345 . S
C243 H248 0.930 . S
C244 N241 1.390 . S
C244 C245 1.346 . S
C244 H249 0.930 . S
C245 N242 1.336 . S
C245 C244 1.346 . S
C245 H252 0.929 . S
C246 O236 1.282 . S
C246 O247 1.216 . S
O247 C246 1.216 . S
H248 C243 0.930 . S
H249 C244 0.930 . S
O250 Cu230 1.959 . S
O250 C237 1.251 . S
H251 C234 0.930 . S
H252 C245 0.929 . S
Cu253 N254 1.999 . S
Cu253 O259 1.974 . S
Cu253 N264 1.985 . S
Cu253 O273 1.959 . S
N254 Cu253 1.999 . S
N254 C256 1.263 . S
N254 C258 1.389 . S
N255 C256 1.358 . S
N255 C257 1.400 . S
C256 N254 1.263 . S
C256 N255 1.358 . S
C256 H262 0.930 . S
C257 N255 1.400 . S
C257 C258 1.351 . S
C257 H274 0.930 . S
C258 N254 1.389 . S
C258 C257 1.351 . S
C258 H263 0.930 . S
O259 Cu253 1.974 . S
O259 C269 1.282 . S
C260 O261 1.261 . S
C260 O273 1.251 . S
O261 C260 1.261 . S
H262 C256 0.930 . S
H263 C258 0.930 . S
N264 Cu253 1.985 . S
N264 C266 1.335 . S
N264 C267 1.390 . S
N265 C266 1.345 . S
N265 C268 1.336 . S
C266 N264 1.335 . S
C266 N265 1.345 . S
C266 H271 0.930 . S
C267 N264 1.390 . S
C267 C268 1.346 . S
C267 H272 0.930 . S
C268 N265 1.336 . S
C268 C267 1.346 . S
C268 H275 0.929 . S
C269 O259 1.282 . S
C269 O270 1.216 . S
O270 C269 1.216 . S
H271 C266 0.930 . S
H272 C267 0.930 . S
O273 Cu253 1.959 . S
O273 C260 1.251 . S
H274 C257 0.930 . S
H275 C268 0.929 . S
Tb276 C285 2.764 . S
Tb276 O286 2.325 . S
Tb276 O289 2.303 . S
Tb276 O293 2.322 . S
Tb276 O294 2.349 . S
Tb276 O297 2.415 . S
Tb276 O298 2.399 . S
Tb277 O287 2.322 . S
Tb277 O288 2.349 . S
Tb277 O290 2.415 . S
Tb277 O291 2.399 . S
Tb277 O292 2.325 . S
Tb277 O295 2.303 . S
Tb277 C306 2.764 . S
C278 O294 1.261 . S
C278 O295 1.257 . S
C279 C282 1.358 . S
C279 C283 1.332 . S
C279 C285 1.504 . S
C280 C281 1.373 . S
C280 C284 1.308 . S
C281 C280 1.373 . S
C281 C282 1.429 . S
C281 H308 0.932 . S
C282 C279 1.358 . S
C282 C281 1.429 . S
C282 H309 0.930 . S
C283 C279 1.332 . S
C283 C284 1.394 . S
C283 H310 0.932 . S
C284 C280 1.308 . S
C284 C283 1.394 . S
C284 H311 0.929 . S
C285 Tb276 2.764 . S
C285 C279 1.504 . S
C285 O297 1.239 . S
C285 O298 1.263 . S
O286 Tb276 2.325 . S
O286 C296 1.236 . S
O287 Tb277 2.322 . S
O287 C296 1.257 . S
O288 Tb277 2.349 . S
O288 C299 1.261 . S
O289 Tb276 2.303 . S
O289 C299 1.257 . S
O290 Tb277 2.415 . S
O290 C306 1.239 . S
O291 Tb277 2.399 . S
O291 C306 1.263 . S
O292 Tb277 2.325 . S
O292 C307 1.236 . S
O293 Tb276 2.322 . S
O293 C307 1.257 . S
O294 Tb276 2.349 . S
O294 C278 1.261 . S
O295 Tb277 2.303 . S
O295 C278 1.257 . S
C296 O286 1.236 . S
C296 O287 1.257 . S
O297 Tb276 2.415 . S
O297 C285 1.239 . S
O298 Tb276 2.399 . S
O298 C285 1.263 . S
C299 O288 1.261 . S
C299 O289 1.257 . S
C300 C303 1.358 . S
C300 C304 1.332 . S
C300 C306 1.504 . S
C301 C302 1.373 . S
C301 C305 1.308 . S
C302 C301 1.373 . S
C302 C303 1.429 . S
C302 H312 0.932 . S
C303 C300 1.358 . S
C303 C302 1.429 . S
C303 H313 0.930 . S
C304 C300 1.332 . S
C304 C305 1.394 . S
C304 H314 0.932 . S
C305 C301 1.308 . S
C305 C304 1.394 . S
C305 H315 0.929 . S
C306 Tb277 2.764 . S
C306 O290 1.239 . S
C306 O291 1.263 . S
C306 C300 1.504 . S
C307 O292 1.236 . S
C307 O293 1.257 . S
H308 C281 0.932 . S
H309 C282 0.930 . S
H310 C283 0.932 . S
H311 C284 0.929 . S
H312 C302 0.932 . S
H313 C303 0.930 . S
H314 C304 0.932 . S
H315 C305 0.929 . S
Tb316 C325 2.764 . S
Tb316 O326 2.325 . S
Tb316 O329 2.303 . S
Tb316 O333 2.322 . S
Tb316 O334 2.349 . S
Tb316 O337 2.415 . S
Tb316 O338 2.399 . S
Tb317 O327 2.322 . S
Tb317 O328 2.349 . S
Tb317 O330 2.415 . S
Tb317 O331 2.399 . S
Tb317 O332 2.325 . S
Tb317 O335 2.303 . S
Tb317 C346 2.764 . S
C318 O334 1.261 . S
C318 O335 1.257 . S
C319 C322 1.358 . S
C319 C323 1.332 . S
C319 C325 1.504 . S
C320 C321 1.373 . S
C320 C324 1.308 . S
C321 C320 1.373 . S
C321 C322 1.429 . S
C321 H348 0.932 . S
C322 C319 1.358 . S
C322 C321 1.429 . S
C322 H349 0.930 . S
C323 C319 1.332 . S
C323 C324 1.394 . S
C323 H350 0.932 . S
C324 C320 1.308 . S
C324 C323 1.394 . S
C324 H351 0.929 . S
C325 Tb316 2.764 . S
C325 C319 1.504 . S
C325 O337 1.239 . S
C325 O338 1.263 . S
O326 Tb316 2.325 . S
O326 C336 1.236 . S
O327 Tb317 2.322 . S
O327 C336 1.257 . S
O328 Tb317 2.349 . S
O328 C339 1.261 . S
O329 Tb316 2.303 . S
O329 C339 1.257 . S
O330 Tb317 2.415 . S
O330 C346 1.239 . S
O331 Tb317 2.399 . S
O331 C346 1.263 . S
O332 Tb317 2.325 . S
O332 C347 1.236 . S
O333 Tb316 2.322 . S
O333 C347 1.257 . S
O334 Tb316 2.349 . S
O334 C318 1.261 . S
O335 Tb317 2.303 . S
O335 C318 1.257 . S
C336 O326 1.236 . S
C336 O327 1.257 . S
O337 Tb316 2.415 . S
O337 C325 1.239 . S
O338 Tb316 2.399 . S
O338 C325 1.263 . S
C339 O328 1.261 . S
C339 O329 1.257 . S
C340 C343 1.358 . S
C340 C344 1.332 . S
C340 C346 1.504 . S
C341 C342 1.373 . S
C341 C345 1.308 . S
C342 C341 1.373 . S
C342 C343 1.429 . S
C342 H352 0.932 . S
C343 C340 1.358 . S
C343 C342 1.429 . S
C343 H353 0.930 . S
C344 C340 1.332 . S
C344 C345 1.394 . S
C344 H354 0.932 . S
C345 C341 1.308 . S
C345 C344 1.394 . S
C345 H355 0.929 . S
C346 Tb317 2.764 . S
C346 O330 1.239 . S
C346 O331 1.263 . S
C346 C340 1.504 . S
C347 O332 1.236 . S
C347 O333 1.257 . S
H348 C321 0.932 . S
H349 C322 0.930 . S
H350 C323 0.932 . S
H351 C324 0.929 . S
H352 C342 0.932 . S
H353 C343 0.930 . S
H354 C344 0.932 . S
H355 C345 0.929 . S
Tb356 C365 2.764 . S
Tb356 O366 2.325 . S
Tb356 O369 2.303 . S
Tb356 O373 2.322 . S
Tb356 O374 2.349 . S
Tb356 O377 2.415 . S
Tb356 O378 2.399 . S
Tb357 O367 2.322 . S
Tb357 O368 2.349 . S
Tb357 O370 2.415 . S
Tb357 O371 2.399 . S
Tb357 O372 2.325 . S
Tb357 O375 2.303 . S
Tb357 C386 2.764 . S
C358 O374 1.261 . S
C358 O375 1.257 . S
C359 C362 1.358 . S
C359 C363 1.332 . S
C359 C365 1.504 . S
C360 C361 1.373 . S
C360 C364 1.308 . S
C361 C360 1.373 . S
C361 C362 1.429 . S
C361 H388 0.932 . S
C362 C359 1.358 . S
C362 C361 1.429 . S
C362 H389 0.930 . S
C363 C359 1.332 . S
C363 C364 1.394 . S
C363 H390 0.932 . S
C364 C360 1.308 . S
C364 C363 1.394 . S
C364 H391 0.929 . S
C365 Tb356 2.764 . S
C365 C359 1.504 . S
C365 O377 1.239 . S
C365 O378 1.263 . S
O366 Tb356 2.325 . S
O366 C376 1.236 . S
O367 Tb357 2.322 . S
O367 C376 1.257 . S
O368 Tb357 2.349 . S
O368 C379 1.261 . S
O369 Tb356 2.303 . S
O369 C379 1.257 . S
O370 Tb357 2.415 . S
O370 C386 1.239 . S
O371 Tb357 2.399 . S
O371 C386 1.263 . S
O372 Tb357 2.325 . S
O372 C387 1.236 . S
O373 Tb356 2.322 . S
O373 C387 1.257 . S
O374 Tb356 2.349 . S
O374 C358 1.261 . S
O375 Tb357 2.303 . S
O375 C358 1.257 . S
C376 O366 1.236 . S
C376 O367 1.257 . S
O377 Tb356 2.415 . S
O377 C365 1.239 . S
O378 Tb356 2.399 . S
O378 C365 1.263 . S
C379 O368 1.261 . S
C379 O369 1.257 . S
C380 C383 1.358 . S
C380 C384 1.332 . S
C380 C386 1.504 . S
C381 C382 1.373 . S
C381 C385 1.308 . S
C382 C381 1.373 . S
C382 C383 1.429 . S
C382 H392 0.932 . S
C383 C380 1.358 . S
C383 C382 1.429 . S
C383 H393 0.930 . S
C384 C380 1.332 . S
C384 C385 1.394 . S
C384 H394 0.932 . S
C385 C381 1.308 . S
C385 C384 1.394 . S
C385 H395 0.929 . S
C386 Tb357 2.764 . S
C386 O370 1.239 . S
C386 O371 1.263 . S
C386 C380 1.504 . S
C387 O372 1.236 . S
C387 O373 1.257 . S
H388 C361 0.932 . S
H389 C362 0.930 . S
H390 C363 0.932 . S
H391 C364 0.929 . S
H392 C382 0.932 . S
H393 C383 0.930 . S
H394 C384 0.932 . S
H395 C385 0.929 . S
Tb396 C405 2.764 . S
Tb396 O406 2.325 . S
Tb396 O409 2.303 . S
Tb396 O413 2.322 . S
Tb396 O414 2.349 . S
Tb396 O417 2.415 . S
Tb396 O418 2.399 . S
Tb397 O407 2.322 . S
Tb397 O408 2.349 . S
Tb397 O410 2.415 . S
Tb397 O411 2.399 . S
Tb397 O412 2.325 . S
Tb397 O415 2.303 . S
Tb397 C426 2.764 . S
C398 O414 1.261 . S
C398 O415 1.257 . S
C399 C402 1.358 . S
C399 C403 1.332 . S
C399 C405 1.504 . S
C400 C401 1.373 . S
C400 C404 1.308 . S
C401 C400 1.373 . S
C401 C402 1.429 . S
C401 H428 0.932 . S
C402 C399 1.358 . S
C402 C401 1.429 . S
C402 H429 0.930 . S
C403 C399 1.332 . S
C403 C404 1.394 . S
C403 H430 0.932 . S
C404 C400 1.308 . S
C404 C403 1.394 . S
C404 H431 0.929 . S
C405 Tb396 2.764 . S
C405 C399 1.504 . S
C405 O417 1.239 . S
C405 O418 1.263 . S
O406 Tb396 2.325 . S
O406 C416 1.236 . S
O407 Tb397 2.322 . S
O407 C416 1.257 . S
O408 Tb397 2.349 . S
O408 C419 1.261 . S
O409 Tb396 2.303 . S
O409 C419 1.257 . S
O410 Tb397 2.415 . S
O410 C426 1.239 . S
O411 Tb397 2.399 . S
O411 C426 1.263 . S
O412 Tb397 2.325 . S
O412 C427 1.236 . S
O413 Tb396 2.322 . S
O413 C427 1.257 . S
O414 Tb396 2.349 . S
O414 C398 1.261 . S
O415 Tb397 2.303 . S
O415 C398 1.257 . S
C416 O406 1.236 . S
C416 O407 1.257 . S
O417 Tb396 2.415 . S
O417 C405 1.239 . S
O418 Tb396 2.399 . S
O418 C405 1.263 . S
C419 O408 1.261 . S
C419 O409 1.257 . S
C420 C423 1.358 . S
C420 C424 1.332 . S
C420 C426 1.504 . S
C421 C422 1.373 . S
C421 C425 1.308 . S
C422 C421 1.373 . S
C422 C423 1.429 . S
C422 H432 0.932 . S
C423 C420 1.358 . S
C423 C422 1.429 . S
C423 H433 0.930 . S
C424 C420 1.332 . S
C424 C425 1.394 . S
C424 H434 0.932 . S
C425 C421 1.308 . S
C425 C424 1.394 . S
C425 H435 0.929 . S
C426 Tb397 2.764 . S
C426 O410 1.239 . S
C426 O411 1.263 . S
C426 C420 1.504 . S
C427 O412 1.236 . S
C427 O413 1.257 . S
H428 C401 0.932 . S
H429 C402 0.930 . S
H430 C403 0.932 . S
H431 C404 0.929 . S
H432 C422 0.932 . S
H433 C423 0.930 . S
H434 C424 0.932 . S
H435 C425 0.929 . S
Tb436 C445 2.764 . S
Tb436 O446 2.325 . S
Tb436 O449 2.303 . S
Tb436 O453 2.322 . S
Tb436 O454 2.349 . S
Tb436 O457 2.415 . S
Tb436 O458 2.399 . S
Tb437 O447 2.322 . S
Tb437 O448 2.349 . S
Tb437 O450 2.415 . S
Tb437 O451 2.399 . S
Tb437 O452 2.325 . S
Tb437 O455 2.303 . S
Tb437 C466 2.764 . S
C438 O454 1.261 . S
C438 O455 1.257 . S
C439 C442 1.358 . S
C439 C443 1.332 . S
C439 C445 1.504 . S
C440 C441 1.373 . S
C440 C444 1.308 . S
C441 C440 1.373 . S
C441 C442 1.429 . S
C441 H468 0.932 . S
C442 C439 1.358 . S
C442 C441 1.429 . S
C442 H469 0.930 . S
C443 C439 1.332 . S
C443 C444 1.394 . S
C443 H470 0.932 . S
C444 C440 1.308 . S
C444 C443 1.394 . S
C444 H471 0.929 . S
C445 Tb436 2.764 . S
C445 C439 1.504 . S
C445 O457 1.239 . S
C445 O458 1.263 . S
O446 Tb436 2.325 . S
O446 C456 1.236 . S
O447 Tb437 2.322 . S
O447 C456 1.257 . S
O448 Tb437 2.349 . S
O448 C459 1.261 . S
O449 Tb436 2.303 . S
O449 C459 1.257 . S
O450 Tb437 2.415 . S
O450 C466 1.239 . S
O451 Tb437 2.399 . S
O451 C466 1.263 . S
O452 Tb437 2.325 . S
O452 C467 1.236 . S
O453 Tb436 2.322 . S
O453 C467 1.257 . S
O454 Tb436 2.349 . S
O454 C438 1.261 . S
O455 Tb437 2.303 . S
O455 C438 1.257 . S
C456 O446 1.236 . S
C456 O447 1.257 . S
O457 Tb436 2.415 . S
O457 C445 1.239 . S
O458 Tb436 2.399 . S
O458 C445 1.263 . S
C459 O448 1.261 . S
C459 O449 1.257 . S
C460 C463 1.358 . S
C460 C464 1.332 . S
C460 C466 1.504 . S
C461 C462 1.373 . S
C461 C465 1.308 . S
C462 C461 1.373 . S
C462 C463 1.429 . S
C462 H472 0.932 . S
C463 C460 1.358 . S
C463 C462 1.429 . S
C463 H473 0.930 . S
C464 C460 1.332 . S
C464 C465 1.394 . S
C464 H474 0.932 . S
C465 C461 1.308 . S
C465 C464 1.394 . S
C465 H475 0.929 . S
C466 Tb437 2.764 . S
C466 O450 1.239 . S
C466 O451 1.263 . S
C466 C460 1.504 . S
C467 O452 1.236 . S
C467 O453 1.257 . S
H468 C441 0.932 . S
H469 C442 0.930 . S
H470 C443 0.932 . S
H471 C444 0.929 . S
H472 C462 0.932 . S
H473 C463 0.930 . S
H474 C464 0.932 . S
H475 C465 0.929 . S
Tb476 C485 2.764 . S
Tb476 O486 2.325 . S
Tb476 O489 2.303 . S
Tb476 O493 2.322 . S
Tb476 O494 2.349 . S
Tb476 O497 2.415 . S
Tb476 O498 2.399 . S
Tb477 O487 2.322 . S
Tb477 O488 2.349 . S
Tb477 O490 2.415 . S
Tb477 O491 2.399 . S
Tb477 O492 2.325 . S
Tb477 O495 2.303 . S
Tb477 C506 2.764 . S
C478 O494 1.261 . S
C478 O495 1.257 . S
C479 C482 1.358 . S
C479 C483 1.332 . S
C479 C485 1.504 . S
C480 C481 1.373 . S
C480 C484 1.308 . S
C481 C480 1.373 . S
C481 C482 1.429 . S
C481 H508 0.932 . S
C482 C479 1.358 . S
C482 C481 1.429 . S
C482 H509 0.930 . S
C483 C479 1.332 . S
C483 C484 1.394 . S
C483 H510 0.932 . S
C484 C480 1.308 . S
C484 C483 1.394 . S
C484 H511 0.929 . S
C485 Tb476 2.764 . S
C485 C479 1.504 . S
C485 O497 1.239 . S
C485 O498 1.263 . S
O486 Tb476 2.325 . S
O486 C496 1.236 . S
O487 Tb477 2.322 . S
O487 C496 1.257 . S
O488 Tb477 2.349 . S
O488 C499 1.261 . S
O489 Tb476 2.303 . S
O489 C499 1.257 . S
O490 Tb477 2.415 . S
O490 C506 1.239 . S
O491 Tb477 2.399 . S
O491 C506 1.263 . S
O492 Tb477 2.325 . S
O492 C507 1.236 . S
O493 Tb476 2.322 . S
O493 C507 1.257 . S
O494 Tb476 2.349 . S
O494 C478 1.261 . S
O495 Tb477 2.303 . S
O495 C478 1.257 . S
C496 O486 1.236 . S
C496 O487 1.257 . S
O497 Tb476 2.415 . S
O497 C485 1.239 . S
O498 Tb476 2.399 . S
O498 C485 1.263 . S
C499 O488 1.261 . S
C499 O489 1.257 . S
C500 C503 1.358 . S
C500 C504 1.332 . S
C500 C506 1.504 . S
C501 C502 1.373 . S
C501 C505 1.308 . S
C502 C501 1.373 . S
C502 C503 1.429 . S
C502 H512 0.932 . S
C503 C500 1.358 . S
C503 C502 1.429 . S
C503 H513 0.930 . S
C504 C500 1.332 . S
C504 C505 1.394 . S
C504 H514 0.932 . S
C505 C501 1.308 . S
C505 C504 1.394 . S
C505 H515 0.929 . S
C506 Tb477 2.764 . S
C506 O490 1.239 . S
C506 O491 1.263 . S
C506 C500 1.504 . S
C507 O492 1.236 . S
C507 O493 1.257 . S
H508 C481 0.932 . S
H509 C482 0.930 . S
H510 C483 0.932 . S
H511 C484 0.929 . S
H512 C502 0.932 . S
H513 C503 0.930 . S
H514 C504 0.932 . S
H515 C505 0.929 . S
Tb516 C525 2.764 . S
Tb516 O526 2.325 . S
Tb516 O529 2.303 . S
Tb516 O533 2.322 . S
Tb516 O534 2.349 . S
Tb516 O537 2.415 . S
Tb516 O538 2.399 . S
Tb517 O527 2.322 . S
Tb517 O528 2.349 . S
Tb517 O530 2.415 . S
Tb517 O531 2.399 . S
Tb517 O532 2.325 . S
Tb517 O535 2.303 . S
Tb517 C546 2.764 . S
C518 O534 1.261 . S
C518 O535 1.257 . S
C519 C522 1.358 . S
C519 C523 1.332 . S
C519 C525 1.504 . S
C520 C521 1.373 . S
C520 C524 1.308 . S
C521 C520 1.373 . S
C521 C522 1.429 . S
C521 H548 0.932 . S
C522 C519 1.358 . S
C522 C521 1.429 . S
C522 H549 0.930 . S
C523 C519 1.332 . S
C523 C524 1.394 . S
C523 H550 0.932 . S
C524 C520 1.308 . S
C524 C523 1.394 . S
C524 H551 0.929 . S
C525 Tb516 2.764 . S
C525 C519 1.504 . S
C525 O537 1.239 . S
C525 O538 1.263 . S
O526 Tb516 2.325 . S
O526 C536 1.236 . S
O527 Tb517 2.322 . S
O527 C536 1.257 . S
O528 Tb517 2.349 . S
O528 C539 1.261 . S
O529 Tb516 2.303 . S
O529 C539 1.257 . S
O530 Tb517 2.415 . S
O530 C546 1.239 . S
O531 Tb517 2.399 . S
O531 C546 1.263 . S
O532 Tb517 2.325 . S
O532 C547 1.236 . S
O533 Tb516 2.322 . S
O533 C547 1.257 . S
O534 Tb516 2.349 . S
O534 C518 1.261 . S
O535 Tb517 2.303 . S
O535 C518 1.257 . S
C536 O526 1.236 . S
C536 O527 1.257 . S
O537 Tb516 2.415 . S
O537 C525 1.239 . S
O538 Tb516 2.399 . S
O538 C525 1.263 . S
C539 O528 1.261 . S
C539 O529 1.257 . S
C540 C543 1.358 . S
C540 C544 1.332 . S
C540 C546 1.504 . S
C541 C542 1.373 . S
C541 C545 1.308 . S
C542 C541 1.373 . S
C542 C543 1.429 . S
C542 H552 0.932 . S
C543 C540 1.358 . S
C543 C542 1.429 . S
C543 H553 0.930 . S
C544 C540 1.332 . S
C544 C545 1.394 . S
C544 H554 0.932 . S
C545 C541 1.308 . S
C545 C544 1.394 . S
C545 H555 0.929 . S
C546 Tb517 2.764 . S
C546 O530 1.239 . S
C546 O531 1.263 . S
C546 C540 1.504 . S
C547 O532 1.236 . S
C547 O533 1.257 . S
H548 C521 0.932 . S
H549 C522 0.930 . S
H550 C523 0.932 . S
H551 C524 0.929 . S
H552 C542 0.932 . S
H553 C543 0.930 . S
H554 C544 0.932 . S
H555 C545 0.929 . S
Tb556 C565 2.764 . S
Tb556 O566 2.325 . S
Tb556 O569 2.303 . S
Tb556 O573 2.322 . S
Tb556 O574 2.349 . S
Tb556 O577 2.415 . S
Tb556 O578 2.399 . S
Tb557 O567 2.322 . S
Tb557 O568 2.349 . S
Tb557 O570 2.415 . S
Tb557 O571 2.399 . S
Tb557 O572 2.325 . S
Tb557 O575 2.303 . S
Tb557 C586 2.764 . S
C558 O574 1.261 . S
C558 O575 1.257 . S
C559 C562 1.358 . S
C559 C563 1.332 . S
C559 C565 1.504 . S
C560 C561 1.373 . S
C560 C564 1.308 . S
C561 C560 1.373 . S
C561 C562 1.429 . S
C561 H588 0.932 . S
C562 C559 1.358 . S
C562 C561 1.429 . S
C562 H589 0.930 . S
C563 C559 1.332 . S
C563 C564 1.394 . S
C563 H590 0.932 . S
C564 C560 1.308 . S
C564 C563 1.394 . S
C564 H591 0.929 . S
C565 Tb556 2.764 . S
C565 C559 1.504 . S
C565 O577 1.239 . S
C565 O578 1.263 . S
O566 Tb556 2.325 . S
O566 C576 1.236 . S
O567 Tb557 2.322 . S
O567 C576 1.257 . S
O568 Tb557 2.349 . S
O568 C579 1.261 . S
O569 Tb556 2.303 . S
O569 C579 1.257 . S
O570 Tb557 2.415 . S
O570 C586 1.239 . S
O571 Tb557 2.399 . S
O571 C586 1.263 . S
O572 Tb557 2.325 . S
O572 C587 1.236 . S
O573 Tb556 2.322 . S
O573 C587 1.257 . S
O574 Tb556 2.349 . S
O574 C558 1.261 . S
O575 Tb557 2.303 . S
O575 C558 1.257 . S
C576 O566 1.236 . S
C576 O567 1.257 . S
O577 Tb556 2.415 . S
O577 C565 1.239 . S
O578 Tb556 2.399 . S
O578 C565 1.263 . S
C579 O568 1.261 . S
C579 O569 1.257 . S
C580 C583 1.358 . S
C580 C584 1.332 . S
C580 C586 1.504 . S
C581 C582 1.373 . S
C581 C585 1.308 . S
C582 C581 1.373 . S
C582 C583 1.429 . S
C582 H592 0.932 . S
C583 C580 1.358 . S
C583 C582 1.429 . S
C583 H593 0.930 . S
C584 C580 1.332 . S
C584 C585 1.394 . S
C584 H594 0.932 . S
C585 C581 1.308 . S
C585 C584 1.394 . S
C585 H595 0.929 . S
C586 Tb557 2.764 . S
C586 O570 1.239 . S
C586 O571 1.263 . S
C586 C580 1.504 . S
C587 O572 1.236 . S
C587 O573 1.257 . S
H588 C561 0.932 . S
H589 C562 0.930 . S
H590 C563 0.932 . S
H591 C564 0.929 . S
H592 C582 0.932 . S
H593 C583 0.930 . S
H594 C584 0.932 . S
H595 C585 0.929 . S
H596 C604 0.929 . S
H597 C606 0.930 . S
H598 C608 0.930 . S
H599 C611 0.929 . S
H600 C614 0.930 . S
H601 C616 0.960 . S
H602 C616 0.960 . S
H603 C616 0.960 . S
C604 H596 0.929 . S
C604 C605 1.377 . S
C604 C606 1.384 . S
C605 C604 1.377 . S
C605 C611 1.390 . S
C606 H597 0.930 . S
C606 C604 1.384 . S
C606 C607 1.372 . S
C607 C606 1.372 . S
C607 C608 1.400 . S
C607 C612 1.490 . S
C608 H598 0.930 . S
C608 C607 1.400 . S
C608 C611 1.386 . S
H609 C625 0.930 . S
H610 C626 0.931 . S
C611 H599 0.929 . S
C611 C605 1.390 . S
C611 C608 1.386 . S
C612 C607 1.490 . S
C612 C614 1.395 . S
C612 C615 1.403 . S
H613 C619 0.930 . S
C614 H600 0.930 . S
C614 C612 1.395 . S
C614 C617 1.403 . S
C615 C612 1.403 . S
C615 C616 1.524 . S
C615 C619 1.400 . S
C616 H601 0.960 . S
C616 H602 0.960 . S
C616 H603 0.960 . S
C616 C615 1.524 . S
C617 C614 1.403 . S
C617 C618 1.392 . S
C617 C621 1.495 . S
C618 C617 1.392 . S
C618 C619 1.385 . S
C618 C620 1.478 . S
C619 H613 0.930 . S
C619 C615 1.400 . S
C619 C618 1.385 . S
C620 C618 1.478 . S
C620 C622 1.381 . S
C620 C626 1.383 . S
C621 C617 1.495 . S
C621 H627 0.959 . S
C621 H628 0.961 . S
C621 H629 0.960 . S
C622 C620 1.381 . S
C622 C623 1.394 . S
C622 H630 0.930 . S
C623 C622 1.394 . S
C623 C624 1.383 . S
C623 H631 0.929 . S
C624 C623 1.383 . S
C624 C625 1.377 . S
C625 H609 0.930 . S
C625 C624 1.377 . S
C625 C626 1.379 . S
C626 H610 0.931 . S
C626 C620 1.383 . S
C626 C625 1.379 . S
H627 C621 0.959 . S
H628 C621 0.961 . S
H629 C621 0.960 . S
H630 C622 0.930 . S
H631 C623 0.929 . S
H632 C640 0.929 . S
H633 C642 0.930 . S
H634 C644 0.930 . S
H635 C647 0.929 . S
H636 C650 0.930 . S
H637 C652 0.960 . S
H638 C652 0.960 . S
H639 C652 0.960 . S
C640 H632 0.929 . S
C640 C641 1.377 . S
C640 C642 1.384 . S
C641 C640 1.377 . S
C641 C647 1.390 . S
C642 H633 0.930 . S
C642 C640 1.384 . S
C642 C643 1.372 . S
C643 C642 1.372 . S
C643 C644 1.400 . S
C643 C648 1.490 . S
C644 H634 0.930 . S
C644 C643 1.400 . S
C644 C647 1.386 . S
H645 C661 0.930 . S
H646 C662 0.931 . S
C647 H635 0.929 . S
C647 C641 1.390 . S
C647 C644 1.386 . S
C648 C643 1.490 . S
C648 C650 1.395 . S
C648 C651 1.403 . S
H649 C655 0.930 . S
C650 H636 0.930 . S
C650 C648 1.395 . S
C650 C653 1.403 . S
C651 C648 1.403 . S
C651 C652 1.524 . S
C651 C655 1.400 . S
C652 H637 0.960 . S
C652 H638 0.960 . S
C652 H639 0.960 . S
C652 C651 1.524 . S
C653 C650 1.403 . S
C653 C654 1.392 . S
C653 C657 1.495 . S
C654 C653 1.392 . S
C654 C655 1.385 . S
C654 C656 1.478 . S
C655 H649 0.930 . S
C655 C651 1.400 . S
C655 C654 1.385 . S
C656 C654 1.478 . S
C656 C658 1.381 . S
C656 C662 1.383 . S
C657 C653 1.495 . S
C657 H663 0.959 . S
C657 H664 0.961 . S
C657 H665 0.960 . S
C658 C656 1.381 . S
C658 C659 1.394 . S
C658 H666 0.930 . S
C659 C658 1.394 . S
C659 C660 1.383 . S
C659 H667 0.929 . S
C660 C659 1.383 . S
C660 C661 1.377 . S
C661 H645 0.930 . S
C661 C660 1.377 . S
C661 C662 1.379 . S
C662 H646 0.931 . S
C662 C656 1.383 . S
C662 C661 1.379 . S
H663 C657 0.959 . S
H664 C657 0.961 . S
H665 C657 0.960 . S
H666 C658 0.930 . S
H667 C659 0.929 . S
H668 C676 0.929 . S
H669 C678 0.930 . S
H670 C680 0.930 . S
H671 C683 0.929 . S
H672 C686 0.930 . S
H673 C688 0.960 . S
H674 C688 0.960 . S
H675 C688 0.960 . S
C676 H668 0.929 . S
C676 C677 1.377 . S
C676 C678 1.384 . S
C677 C676 1.377 . S
C677 C683 1.390 . S
C678 H669 0.930 . S
C678 C676 1.384 . S
C678 C679 1.372 . S
C679 C678 1.372 . S
C679 C680 1.400 . S
C679 C684 1.490 . S
C680 H670 0.930 . S
C680 C679 1.400 . S
C680 C683 1.386 . S
H681 C697 0.930 . S
H682 C698 0.931 . S
C683 H671 0.929 . S
C683 C677 1.390 . S
C683 C680 1.386 . S
C684 C679 1.490 . S
C684 C686 1.395 . S
C684 C687 1.403 . S
H685 C691 0.930 . S
C686 H672 0.930 . S
C686 C684 1.395 . S
C686 C689 1.403 . S
C687 C684 1.403 . S
C687 C688 1.524 . S
C687 C691 1.400 . S
C688 H673 0.960 . S
C688 H674 0.960 . S
C688 H675 0.960 . S
C688 C687 1.524 . S
C689 C686 1.403 . S
C689 C690 1.392 . S
C689 C693 1.495 . S
C690 C689 1.392 . S
C690 C691 1.385 . S
C690 C692 1.478 . S
C691 H685 0.930 . S
C691 C687 1.400 . S
C691 C690 1.385 . S
C692 C690 1.478 . S
C692 C694 1.381 . S
C692 C698 1.383 . S
C693 C689 1.495 . S
C693 H699 0.959 . S
C693 H700 0.961 . S
C693 H701 0.960 . S
C694 C692 1.381 . S
C694 C695 1.394 . S
C694 H702 0.930 . S
C695 C694 1.394 . S
C695 C696 1.383 . S
C695 H703 0.929 . S
C696 C695 1.383 . S
C696 C697 1.377 . S
C697 H681 0.930 . S
C697 C696 1.377 . S
C697 C698 1.379 . S
C698 H682 0.931 . S
C698 C692 1.383 . S
C698 C697 1.379 . S
H699 C693 0.959 . S
H700 C693 0.961 . S
H701 C693 0.960 . S
H702 C694 0.930 . S
H703 C695 0.929 . S
H704 C712 0.929 . S
H705 C714 0.930 . S
H706 C716 0.930 . S
H707 C719 0.929 . S
H708 C722 0.930 . S
H709 C724 0.960 . S
H710 C724 0.960 . S
H711 C724 0.960 . S
C712 H704 0.929 . S
C712 C713 1.377 . S
C712 C714 1.384 . S
C713 C712 1.377 . S
C713 C719 1.390 . S
C714 H705 0.930 . S
C714 C712 1.384 . S
C714 C715 1.372 . S
C715 C714 1.372 . S
C715 C716 1.400 . S
C715 C720 1.490 . S
C716 H706 0.930 . S
C716 C715 1.400 . S
C716 C719 1.386 . S
H717 C733 0.930 . S
H718 C734 0.931 . S
C719 H707 0.929 . S
C719 C713 1.390 . S
C719 C716 1.386 . S
C720 C715 1.490 . S
C720 C722 1.395 . S
C720 C723 1.403 . S
H721 C727 0.930 . S
C722 H708 0.930 . S
C722 C720 1.395 . S
C722 C725 1.403 . S
C723 C720 1.403 . S
C723 C724 1.524 . S
C723 C727 1.400 . S
C724 H709 0.960 . S
C724 H710 0.960 . S
C724 H711 0.960 . S
C724 C723 1.524 . S
C725 C722 1.403 . S
C725 C726 1.392 . S
C725 C729 1.495 . S
C726 C725 1.392 . S
C726 C727 1.385 . S
C726 C728 1.478 . S
C727 H721 0.930 . S
C727 C723 1.400 . S
C727 C726 1.385 . S
C728 C726 1.478 . S
C728 C730 1.381 . S
C728 C734 1.383 . S
C729 C725 1.495 . S
C729 H735 0.959 . S
C729 H736 0.961 . S
C729 H737 0.960 . S
C730 C728 1.381 . S
C730 C731 1.394 . S
C730 H738 0.930 . S
C731 C730 1.394 . S
C731 C732 1.383 . S
C731 H739 0.929 . S
C732 C731 1.383 . S
C732 C733 1.377 . S
C733 H717 0.930 . S
C733 C732 1.377 . S
C733 C734 1.379 . S
C734 H718 0.931 . S
C734 C728 1.383 . S
C734 C733 1.379 . S
H735 C729 0.959 . S
H736 C729 0.961 . S
H737 C729 0.960 . S
H738 C730 0.930 . S
H739 C731 0.929 . S
H740 C748 0.929 . S
H741 C750 0.930 . S
H742 C752 0.930 . S
H743 C755 0.929 . S
H744 C758 0.930 . S
H745 C760 0.960 . S
H746 C760 0.960 . S
H747 C760 0.960 . S
C748 H740 0.929 . S
C748 C749 1.377 . S
C748 C750 1.384 . S
C749 C748 1.377 . S
C749 C755 1.390 . S
C750 H741 0.930 . S
C750 C748 1.384 . S
C750 C751 1.372 . S
C751 C750 1.372 . S
C751 C752 1.400 . S
C751 C756 1.490 . S
C752 H742 0.930 . S
C752 C751 1.400 . S
C752 C755 1.386 . S
H753 C769 0.930 . S
H754 C770 0.931 . S
C755 H743 0.929 . S
C755 C749 1.390 . S
C755 C752 1.386 . S
C756 C751 1.490 . S
C756 C758 1.395 . S
C756 C759 1.403 . S
H757 C763 0.930 . S
C758 H744 0.930 . S
C758 C756 1.395 . S
C758 C761 1.403 . S
C759 C756 1.403 . S
C759 C760 1.524 . S
C759 C763 1.400 . S
C760 H745 0.960 . S
C760 H746 0.960 . S
C760 H747 0.960 . S
C760 C759 1.524 . S
C761 C758 1.403 . S
C761 C762 1.392 . S
C761 C765 1.495 . S
C762 C761 1.392 . S
C762 C763 1.385 . S
C762 C764 1.478 . S
C763 H757 0.930 . S
C763 C759 1.400 . S
C763 C762 1.385 . S
C764 C762 1.478 . S
C764 C766 1.381 . S
C764 C770 1.383 . S
C765 C761 1.495 . S
C765 H771 0.959 . S
C765 H772 0.961 . S
C765 H773 0.960 . S
C766 C764 1.381 . S
C766 C767 1.394 . S
C766 H774 0.930 . S
C767 C766 1.394 . S
C767 C768 1.383 . S
C767 H775 0.929 . S
C768 C767 1.383 . S
C768 C769 1.377 . S
C769 H753 0.930 . S
C769 C768 1.377 . S
C769 C770 1.379 . S
C770 H754 0.931 . S
C770 C764 1.383 . S
C770 C769 1.379 . S
H771 C765 0.959 . S
H772 C765 0.961 . S
H773 C765 0.960 . S
H774 C766 0.930 . S
H775 C767 0.929 . S
H776 C784 0.929 . S
H777 C786 0.930 . S
H778 C788 0.930 . S
H779 C791 0.929 . S
H780 C794 0.930 . S
H781 C796 0.960 . S
H782 C796 0.960 . S
H783 C796 0.960 . S
C784 H776 0.929 . S
C784 C785 1.377 . S
C784 C786 1.384 . S
C785 C784 1.377 . S
C785 C791 1.390 . S
C786 H777 0.930 . S
C786 C784 1.384 . S
C786 C787 1.372 . S
C787 C786 1.372 . S
C787 C788 1.400 . S
C787 C792 1.490 . S
C788 H778 0.930 . S
C788 C787 1.400 . S
C788 C791 1.386 . S
H789 C805 0.930 . S
H790 C806 0.931 . S
C791 H779 0.929 . S
C791 C785 1.390 . S
C791 C788 1.386 . S
C792 C787 1.490 . S
C792 C794 1.395 . S
C792 C795 1.403 . S
H793 C799 0.930 . S
C794 H780 0.930 . S
C794 C792 1.395 . S
C794 C797 1.403 . S
C795 C792 1.403 . S
C795 C796 1.524 . S
C795 C799 1.400 . S
C796 H781 0.960 . S
C796 H782 0.960 . S
C796 H783 0.960 . S
C796 C795 1.524 . S
C797 C794 1.403 . S
C797 C798 1.392 . S
C797 C801 1.495 . S
C798 C797 1.392 . S
C798 C799 1.385 . S
C798 C800 1.478 . S
C799 H793 0.930 . S
C799 C795 1.400 . S
C799 C798 1.385 . S
C800 C798 1.478 . S
C800 C802 1.381 . S
C800 C806 1.383 . S
C801 C797 1.495 . S
C801 H807 0.959 . S
C801 H808 0.961 . S
C801 H809 0.960 . S
C802 C800 1.381 . S
C802 C803 1.394 . S
C802 H810 0.930 . S
C803 C802 1.394 . S
C803 C804 1.383 . S
C803 H811 0.929 . S
C804 C803 1.383 . S
C804 C805 1.377 . S
C805 H789 0.930 . S
C805 C804 1.377 . S
C805 C806 1.379 . S
C806 H790 0.931 . S
C806 C800 1.383 . S
C806 C805 1.379 . S
H807 C801 0.959 . S
H808 C801 0.961 . S
H809 C801 0.960 . S
H810 C802 0.930 . S
H811 C803 0.929 . S
H812 C820 0.929 . S
H813 C822 0.930 . S
H814 C824 0.930 . S
H815 C827 0.929 . S
H816 C830 0.930 . S
H817 C832 0.960 . S
H818 C832 0.960 . S
H819 C832 0.960 . S
C820 H812 0.929 . S
C820 C821 1.377 . S
C820 C822 1.384 . S
C821 C820 1.377 . S
C821 C827 1.390 . S
C822 H813 0.930 . S
C822 C820 1.384 . S
C822 C823 1.372 . S
C823 C822 1.372 . S
C823 C824 1.400 . S
C823 C828 1.490 . S
C824 H814 0.930 . S
C824 C823 1.400 . S
C824 C827 1.386 . S
H825 C841 0.930 . S
H826 C842 0.931 . S
C827 H815 0.929 . S
C827 C821 1.390 . S
C827 C824 1.386 . S
C828 C823 1.490 . S
C828 C830 1.395 . S
C828 C831 1.403 . S
H829 C835 0.930 . S
C830 H816 0.930 . S
C830 C828 1.395 . S
C830 C833 1.403 . S
C831 C828 1.403 . S
C831 C832 1.524 . S
C831 C835 1.400 . S
C832 H817 0.960 . S
C832 H818 0.960 . S
C832 H819 0.960 . S
C832 C831 1.524 . S
C833 C830 1.403 . S
C833 C834 1.392 . S
C833 C837 1.495 . S
C834 C833 1.392 . S
C834 C835 1.385 . S
C834 C836 1.478 . S
C835 H829 0.930 . S
C835 C831 1.400 . S
C835 C834 1.385 . S
C836 C834 1.478 . S
C836 C838 1.381 . S
C836 C842 1.383 . S
C837 C833 1.495 . S
C837 H843 0.959 . S
C837 H844 0.961 . S
C837 H845 0.960 . S
C838 C836 1.381 . S
C838 C839 1.394 . S
C838 H846 0.930 . S
C839 C838 1.394 . S
C839 C840 1.383 . S
C839 H847 0.929 . S
C840 C839 1.383 . S
C840 C841 1.377 . S
C841 H825 0.930 . S
C841 C840 1.377 . S
C841 C842 1.379 . S
C842 H826 0.931 . S
C842 C836 1.383 . S
C842 C841 1.379 . S
H843 C837 0.959 . S
H844 C837 0.961 . S
H845 C837 0.960 . S
H846 C838 0.930 . S
H847 C839 0.929 . S
H848 C856 0.929 . S
H849 C858 0.930 . S
H850 C860 0.930 . S
H851 C863 0.929 . S
H852 C866 0.930 . S
H853 C868 0.960 . S
H854 C868 0.960 . S
H855 C868 0.960 . S
C856 H848 0.929 . S
C856 C857 1.377 . S
C856 C858 1.384 . S
C857 C856 1.377 . S
C857 C863 1.390 . S
C858 H849 0.930 . S
C858 C856 1.384 . S
C858 C859 1.372 . S
C859 C858 1.372 . S
C859 C860 1.400 . S
C859 C864 1.490 . S
C860 H850 0.930 . S
C860 C859 1.400 . S
C860 C863 1.386 . S
H861 C877 0.930 . S
H862 C878 0.931 . S
C863 H851 0.929 . S
C863 C857 1.390 . S
C863 C860 1.386 . S
C864 C859 1.490 . S
C864 C866 1.395 . S
C864 C867 1.403 . S
H865 C871 0.930 . S
C866 H852 0.930 . S
C866 C864 1.395 . S
C866 C869 1.403 . S
C867 C864 1.403 . S
C867 C868 1.524 . S
C867 C871 1.400 . S
C868 H853 0.960 . S
C868 H854 0.960 . S
C868 H855 0.960 . S
C868 C867 1.524 . S
C869 C866 1.403 . S
C869 C870 1.392 . S
C869 C873 1.495 . S
C870 C869 1.392 . S
C870 C871 1.385 . S
C870 C872 1.478 . S
C871 H865 0.930 . S
C871 C867 1.400 . S
C871 C870 1.385 . S
C872 C870 1.478 . S
C872 C874 1.381 . S
C872 C878 1.383 . S
C873 C869 1.495 . S
C873 H879 0.959 . S
C873 H880 0.961 . S
C873 H881 0.960 . S
C874 C872 1.381 . S
C874 C875 1.394 . S
C874 H882 0.930 . S
C875 C874 1.394 . S
C875 C876 1.383 . S
C875 H883 0.929 . S
C876 C875 1.383 . S
C876 C877 1.377 . S
C877 H861 0.930 . S
C877 C876 1.377 . S
C877 C878 1.379 . S
C878 H862 0.931 . S
C878 C872 1.383 . S
C878 C877 1.379 . S
H879 C873 0.959 . S
H880 C873 0.961 . S
H881 C873 0.960 . S
H882 C874 0.930 . S
H883 C875 0.929 . S
H884 C892 0.929 . S
H885 C894 0.930 . S
H886 C896 0.930 . S
H887 C899 0.929 . S
H888 C902 0.930 . S
H889 C904 0.960 . S
H890 C904 0.960 . S
H891 C904 0.960 . S
C892 H884 0.929 . S
C892 C893 1.377 . S
C892 C894 1.384 . S
C893 C892 1.377 . S
C893 C899 1.390 . S
C894 H885 0.930 . S
C894 C892 1.384 . S
C894 C895 1.372 . S
C895 C894 1.372 . S
C895 C896 1.400 . S
C895 C900 1.490 . S
C896 H886 0.930 . S
C896 C895 1.400 . S
C896 C899 1.386 . S
H897 C913 0.930 . S
H898 C914 0.931 . S
C899 H887 0.929 . S
C899 C893 1.390 . S
C899 C896 1.386 . S
C900 C895 1.490 . S
C900 C902 1.395 . S
C900 C903 1.403 . S
H901 C907 0.930 . S
C902 H888 0.930 . S
C902 C900 1.395 . S
C902 C905 1.403 . S
C903 C900 1.403 . S
C903 C904 1.524 . S
C903 C907 1.400 . S
C904 H889 0.960 . S
C904 H890 0.960 . S
C904 H891 0.960 . S
C904 C903 1.524 . S
C905 C902 1.403 . S
C905 C906 1.392 . S
C905 C909 1.495 . S
C906 C905 1.392 . S
C906 C907 1.385 . S
C906 C908 1.478 . S
C907 H901 0.930 . S
C907 C903 1.400 . S
C907 C906 1.385 . S
C908 C906 1.478 . S
C908 C910 1.381 . S
C908 C914 1.383 . S
C909 C905 1.495 . S
C909 H915 0.959 . S
C909 H916 0.961 . S
C909 H917 0.960 . S
C910 C908 1.381 . S
C910 C911 1.394 . S
C910 H918 0.930 . S
C911 C910 1.394 . S
C911 C912 1.383 . S
C911 H919 0.929 . S
C912 C911 1.383 . S
C912 C913 1.377 . S
C913 H897 0.930 . S
C913 C912 1.377 . S
C913 C914 1.379 . S
C914 H898 0.931 . S
C914 C908 1.383 . S
C914 C913 1.379 . S
H915 C909 0.959 . S
H916 C909 0.961 . S
H917 C909 0.960 . S
H918 C910 0.930 . S
H919 C911 0.929 . S
H920 C928 0.929 . S
H921 C930 0.930 . S
H922 C932 0.930 . S
H923 C935 0.929 . S
H924 C938 0.930 . S
H925 C940 0.960 . S
H926 C940 0.960 . S
H927 C940 0.960 . S
C928 H920 0.929 . S
C928 C929 1.377 . S
C928 C930 1.384 . S
C929 C928 1.377 . S
C929 C935 1.390 . S
C930 H921 0.930 . S
C930 C928 1.384 . S
C930 C931 1.372 . S
C931 C930 1.372 . S
C931 C932 1.400 . S
C931 C936 1.490 . S
C932 H922 0.930 . S
C932 C931 1.400 . S
C932 C935 1.386 . S
H933 C949 0.930 . S
H934 C950 0.931 . S
C935 H923 0.929 . S
C935 C929 1.390 . S
C935 C932 1.386 . S
C936 C931 1.490 . S
C936 C938 1.395 . S
C936 C939 1.403 . S
H937 C943 0.930 . S
C938 H924 0.930 . S
C938 C936 1.395 . S
C938 C941 1.403 . S
C939 C936 1.403 . S
C939 C940 1.524 . S
C939 C943 1.400 . S
C940 H925 0.960 . S
C940 H926 0.960 . S
C940 H927 0.960 . S
C940 C939 1.524 . S
C941 C938 1.403 . S
C941 C942 1.392 . S
C941 C945 1.495 . S
C942 C941 1.392 . S
C942 C943 1.385 . S
C942 C944 1.478 . S
C943 H937 0.930 . S
C943 C939 1.400 . S
C943 C942 1.385 . S
C944 C942 1.478 . S
C944 C946 1.381 . S
C944 C950 1.383 . S
C945 C941 1.495 . S
C945 H951 0.959 . S
C945 H952 0.961 . S
C945 H953 0.960 . S
C946 C944 1.381 . S
C946 C947 1.394 . S
C946 H954 0.930 . S
C947 C946 1.394 . S
C947 C948 1.383 . S
C947 H955 0.929 . S
C948 C947 1.383 . S
C948 C949 1.377 . S
C949 H933 0.930 . S
C949 C948 1.377 . S
C949 C950 1.379 . S
C950 H934 0.931 . S
C950 C944 1.383 . S
C950 C949 1.379 . S
H951 C945 0.959 . S
H952 C945 0.961 . S
H953 C945 0.960 . S
H954 C946 0.930 . S
H955 C947 0.929 . S
H956 C964 0.929 . S
H957 C966 0.930 . S
H958 C968 0.930 . S
H959 C971 0.929 . S
H960 C974 0.930 . S
H961 C976 0.960 . S
H962 C976 0.960 . S
H963 C976 0.960 . S
C964 H956 0.929 . S
C964 C965 1.377 . S
C964 C966 1.384 . S
C965 C964 1.377 . S
C965 C971 1.390 . S
C966 H957 0.930 . S
C966 C964 1.384 . S
C966 C967 1.372 . S
C967 C966 1.372 . S
C967 C968 1.400 . S
C967 C972 1.490 . S
C968 H958 0.930 . S
C968 C967 1.400 . S
C968 C971 1.386 . S
H969 C985 0.930 . S
H970 C986 0.931 . S
C971 H959 0.929 . S
C971 C965 1.390 . S
C971 C968 1.386 . S
C972 C967 1.490 . S
C972 C974 1.395 . S
C972 C975 1.403 . S
H973 C979 0.930 . S
C974 H960 0.930 . S
C974 C972 1.395 . S
C974 C977 1.403 . S
C975 C972 1.403 . S
C975 C976 1.524 . S
C975 C979 1.400 . S
C976 H961 0.960 . S
C976 H962 0.960 . S
C976 H963 0.960 . S
C976 C975 1.524 . S
C977 C974 1.403 . S
C977 C978 1.392 . S
C977 C981 1.495 . S
C978 C977 1.392 . S
C978 C979 1.385 . S
C978 C980 1.478 . S
C979 H973 0.930 . S
C979 C975 1.400 . S
C979 C978 1.385 . S
C980 C978 1.478 . S
C980 C982 1.381 . S
C980 C986 1.383 . S
C981 C977 1.495 . S
C981 H987 0.959 . S
C981 H988 0.961 . S
C981 H989 0.960 . S
C982 C980 1.381 . S
C982 C983 1.394 . S
C982 H990 0.930 . S
C983 C982 1.394 . S
C983 C984 1.383 . S
C983 H991 0.929 . S
C984 C983 1.383 . S
C984 C985 1.377 . S
C985 H969 0.930 . S
C985 C984 1.377 . S
C985 C986 1.379 . S
C986 H970 0.931 . S
C986 C980 1.383 . S
C986 C985 1.379 . S
H987 C981 0.959 . S
H988 C981 0.961 . S
H989 C981 0.960 . S
H990 C982 0.930 . S
H991 C983 0.929 . S
H992 C1000 0.929 . S
H993 C1002 0.930 . S
H994 C1004 0.930 . S
H995 C1007 0.929 . S
H996 C1010 0.930 . S
H997 C1012 0.960 . S
H998 C1012 0.960 . S
H999 C1012 0.960 . S
C1000 H992 0.929 . S
C1000 C1001 1.377 . S
C1000 C1002 1.384 . S
C1001 C1000 1.377 . S
C1001 C1007 1.390 . S
C1002 H993 0.930 . S
C1002 C1000 1.384 . S
C1002 C1003 1.372 . S
C1003 C1002 1.372 . S
C1003 C1004 1.400 . S
C1003 C1008 1.490 . S
C1004 H994 0.930 . S
C1004 C1003 1.400 . S
C1004 C1007 1.386 . S
H1005 C1021 0.930 . S
H1006 C1022 0.931 . S
C1007 H995 0.929 . S
C1007 C1001 1.390 . S
C1007 C1004 1.386 . S
C1008 C1003 1.490 . S
C1008 C1010 1.395 . S
C1008 C1011 1.403 . S
H1009 C1015 0.930 . S
C1010 H996 0.930 . S
C1010 C1008 1.395 . S
C1010 C1013 1.403 . S
C1011 C1008 1.403 . S
C1011 C1012 1.524 . S
C1011 C1015 1.400 . S
C1012 H997 0.960 . S
C1012 H998 0.960 . S
C1012 H999 0.960 . S
C1012 C1011 1.524 . S
C1013 C1010 1.403 . S
C1013 C1014 1.392 . S
C1013 C1017 1.495 . S
C1014 C1013 1.392 . S
C1014 C1015 1.385 . S
C1014 C1016 1.478 . S
C1015 H1009 0.930 . S
C1015 C1011 1.400 . S
C1015 C1014 1.385 . S
C1016 C1014 1.478 . S
C1016 C1018 1.381 . S
C1016 C1022 1.383 . S
C1017 C1013 1.495 . S
C1017 H1023 0.959 . S
C1017 H1024 0.961 . S
C1017 H1025 0.960 . S
C1018 C1016 1.381 . S
C1018 C1019 1.394 . S
C1018 H1026 0.930 . S
C1019 C1018 1.394 . S
C1019 C1020 1.383 . S
C1019 H1027 0.929 . S
C1020 C1019 1.383 . S
C1020 C1021 1.377 . S
C1021 H1005 0.930 . S
C1021 C1020 1.377 . S
C1021 C1022 1.379 . S
C1022 H1006 0.931 . S
C1022 C1016 1.383 . S
C1022 C1021 1.379 . S
H1023 C1017 0.959 . S
H1024 C1017 0.961 . S
H1025 C1017 0.960 . S
H1026 C1018 0.930 . S
H1027 C1019 0.929 . S
H1028 C1036 0.929 1_545 S
H1029 C1038 0.930 . S
H1030 C1040 0.930 . S
H1031 C1043 0.929 . S
H1032 C1046 0.930 . S
H1033 C1048 0.960 . S
H1034 C1048 0.960 . S
H1035 C1048 0.960 . S
C1036 H1028 0.929 1_565 S
C1036 C1037 1.377 . S
C1036 C1038 1.384 1_554 S
C1037 C1036 1.377 . S
C1037 C1043 1.390 . S
C1038 H1029 0.930 . S
C1038 C1036 1.384 1_556 S
C1038 C1039 1.372 . S
C1039 C1038 1.372 . S
C1039 C1040 1.400 1_556 S
C1039 C1044 1.490 . S
C1040 H1030 0.930 . S
C1040 C1039 1.400 1_554 S
C1040 C1043 1.386 . S
H1041 C1057 0.930 . S
H1042 C1058 0.931 . S
C1043 H1031 0.929 . S
C1043 C1037 1.390 . S
C1043 C1040 1.386 . S
C1044 C1039 1.490 . S
C1044 C1046 1.395 . S
C1044 C1047 1.403 . S
H1045 C1051 0.930 . S
C1046 H1032 0.930 . S
C1046 C1044 1.395 . S
C1046 C1049 1.403 . S
C1047 C1044 1.403 . S
C1047 C1048 1.524 1_556 S
C1047 C1051 1.400 . S
C1048 H1033 0.960 . S
C1048 H1034 0.960 . S
C1048 H1035 0.960 . S
C1048 C1047 1.524 1_554 S
C1049 C1046 1.403 . S
C1049 C1050 1.392 . S
C1049 C1053 1.495 . S
C1050 C1049 1.392 . S
C1050 C1051 1.385 . S
C1050 C1052 1.478 . S
C1051 H1045 0.930 . S
C1051 C1047 1.400 . S
C1051 C1050 1.385 . S
C1052 C1050 1.478 . S
C1052 C1054 1.381 . S
C1052 C1058 1.383 . S
C1053 C1049 1.495 . S
C1053 H1059 0.959 . S
C1053 H1060 0.961 . S
C1053 H1061 0.960 . S
C1054 C1052 1.381 . S
C1054 C1055 1.394 . S
C1054 H1062 0.930 . S
C1055 C1054 1.394 . S
C1055 C1056 1.383 . S
C1055 H1063 0.929 . S
C1056 C1055 1.383 . S
C1056 C1057 1.377 . S
C1057 H1041 0.930 . S
C1057 C1056 1.377 . S
C1057 C1058 1.379 . S
C1058 H1042 0.931 . S
C1058 C1052 1.383 . S
C1058 C1057 1.379 . S
H1059 C1053 0.959 . S
H1060 C1053 0.961 . S
H1061 C1053 0.960 . S
H1062 C1054 0.930 . S
H1063 C1055 0.929 . S
H1064 C1072 0.929 . S
H1065 C1074 0.930 . S
H1066 C1076 0.930 . S
H1067 C1079 0.929 . S
H1068 C1082 0.930 . S
H1069 C1084 0.960 . S
H1070 C1084 0.960 . S
H1071 C1084 0.960 . S
C1072 H1064 0.929 . S
C1072 C1073 1.377 . S
C1072 C1074 1.384 . S
C1073 C1072 1.377 . S
C1073 C1079 1.390 . S
C1074 H1065 0.930 . S
C1074 C1072 1.384 . S
C1074 C1075 1.372 . S
C1075 C1074 1.372 . S
C1075 C1076 1.400 . S
C1075 C1080 1.490 . S
C1076 H1066 0.930 . S
C1076 C1075 1.400 . S
C1076 C1079 1.386 . S
H1077 C1093 0.930 . S
H1078 C1094 0.931 . S
C1079 H1067 0.929 . S
C1079 C1073 1.390 . S
C1079 C1076 1.386 . S
C1080 C1075 1.490 . S
C1080 C1082 1.395 . S
C1080 C1083 1.403 . S
H1081 C1087 0.930 . S
C1082 H1068 0.930 . S
C1082 C1080 1.395 . S
C1082 C1085 1.403 . S
C1083 C1080 1.403 . S
C1083 C1084 1.524 . S
C1083 C1087 1.400 . S
C1084 H1069 0.960 . S
C1084 H1070 0.960 . S
C1084 H1071 0.960 . S
C1084 C1083 1.524 . S
C1085 C1082 1.403 . S
C1085 C1086 1.392 . S
C1085 C1089 1.495 . S
C1086 C1085 1.392 . S
C1086 C1087 1.385 . S
C1086 C1088 1.478 . S
C1087 H1081 0.930 . S
C1087 C1083 1.400 . S
C1087 C1086 1.385 . S
C1088 C1086 1.478 . S
C1088 C1090 1.381 . S
C1088 C1094 1.383 . S
C1089 C1085 1.495 . S
C1089 H1095 0.959 . S
C1089 H1096 0.961 . S
C1089 H1097 0.960 . S
C1090 C1088 1.381 . S
C1090 C1091 1.394 . S
C1090 H1098 0.930 . S
C1091 C1090 1.394 . S
C1091 C1092 1.383 . S
C1091 H1099 0.929 . S
C1092 C1091 1.383 . S
C1092 C1093 1.377 . S
C1093 H1077 0.930 . S
C1093 C1092 1.377 . S
C1093 C1094 1.379 . S
C1094 H1078 0.931 . S
C1094 C1088 1.383 . S
C1094 C1093 1.379 . S
H1095 C1089 0.959 . S
H1096 C1089 0.961 . S
H1097 C1089 0.960 . S
H1098 C1090 0.930 . S
H1099 C1091 0.929 . S
H1100 C1108 0.929 . S
H1101 C1110 0.930 . S
H1102 C1112 0.930 . S
H1103 C1115 0.929 . S
H1104 C1118 0.930 . S
H1105 C1120 0.960 . S
H1106 C1120 0.960 . S
H1107 C1120 0.960 . S
C1108 H1100 0.929 . S
C1108 C1109 1.377 . S
C1108 C1110 1.384 . S
C1109 C1108 1.377 . S
C1109 C1115 1.390 . S
C1110 H1101 0.930 . S
C1110 C1108 1.384 . S
C1110 C1111 1.372 . S
C1111 C1110 1.372 . S
C1111 C1112 1.400 . S
C1111 C1116 1.490 . S
C1112 H1102 0.930 . S
C1112 C1111 1.400 . S
C1112 C1115 1.386 . S
H1113 C1129 0.930 . S
H1114 C1130 0.931 . S
C1115 H1103 0.929 . S
C1115 C1109 1.390 . S
C1115 C1112 1.386 . S
C1116 C1111 1.490 . S
C1116 C1118 1.395 . S
C1116 C1119 1.403 . S
H1117 C1123 0.930 . S
C1118 H1104 0.930 . S
C1118 C1116 1.395 . S
C1118 C1121 1.403 . S
C1119 C1116 1.403 . S
C1119 C1120 1.524 . S
C1119 C1123 1.400 . S
C1120 H1105 0.960 . S
C1120 H1106 0.960 . S
C1120 H1107 0.960 . S
C1120 C1119 1.524 . S
C1121 C1118 1.403 . S
C1121 C1122 1.392 . S
C1121 C1125 1.495 . S
C1122 C1121 1.392 . S
C1122 C1123 1.385 . S
C1122 C1124 1.478 . S
C1123 H1117 0.930 . S
C1123 C1119 1.400 . S
C1123 C1122 1.385 . S
C1124 C1122 1.478 . S
C1124 C1126 1.381 . S
C1124 C1130 1.383 . S
C1125 C1121 1.495 . S
C1125 H1131 0.959 . S
C1125 H1132 0.961 . S
C1125 H1133 0.960 . S
C1126 C1124 1.381 . S
C1126 C1127 1.394 . S
C1126 H1134 0.930 . S
C1127 C1126 1.394 . S
C1127 C1128 1.383 . S
C1127 H1135 0.929 . S
C1128 C1127 1.383 . S
C1128 C1129 1.377 . S
C1129 H1113 0.930 . S
C1129 C1128 1.377 . S
C1129 C1130 1.379 . S
C1130 H1114 0.931 . S
C1130 C1124 1.383 . S
C1130 C1129 1.379 . S
H1131 C1125 0.959 . S
H1132 C1125 0.961 . S
H1133 C1125 0.960 . S
H1134 C1126 0.930 . S
H1135 C1127 0.929 . S
H1136 C1144 0.929 . S
H1137 C1146 0.930 . S
H1138 C1148 0.930 . S
H1139 C1151 0.929 . S
H1140 C1154 0.930 . S
H1141 C1156 0.960 . S
H1142 C1156 0.960 . S
H1143 C1156 0.960 . S
C1144 H1136 0.929 . S
C1144 C1145 1.377 . S
C1144 C1146 1.384 . S
C1145 C1144 1.377 . S
C1145 C1151 1.390 . S
C1146 H1137 0.930 . S
C1146 C1144 1.384 . S
C1146 C1147 1.372 . S
C1147 C1146 1.372 . S
C1147 C1148 1.400 . S
C1147 C1152 1.490 . S
C1148 H1138 0.930 . S
C1148 C1147 1.400 . S
C1148 C1151 1.386 . S
H1149 C1165 0.930 . S
H1150 C1166 0.931 . S
C1151 H1139 0.929 . S
C1151 C1145 1.390 . S
C1151 C1148 1.386 . S
C1152 C1147 1.490 . S
C1152 C1154 1.395 . S
C1152 C1155 1.403 . S
H1153 C1159 0.930 . S
C1154 H1140 0.930 . S
C1154 C1152 1.395 . S
C1154 C1157 1.403 . S
C1155 C1152 1.403 . S
C1155 C1156 1.524 . S
C1155 C1159 1.400 . S
C1156 H1141 0.960 . S
C1156 H1142 0.960 . S
C1156 H1143 0.960 . S
C1156 C1155 1.524 . S
C1157 C1154 1.403 . S
C1157 C1158 1.392 . S
C1157 C1161 1.495 . S
C1158 C1157 1.392 . S
C1158 C1159 1.385 . S
C1158 C1160 1.478 . S
C1159 H1153 0.930 . S
C1159 C1155 1.400 . S
C1159 C1158 1.385 . S
C1160 C1158 1.478 . S
C1160 C1162 1.381 . S
C1160 C1166 1.383 . S
C1161 C1157 1.495 . S
C1161 H1167 0.959 . S
C1161 H1168 0.961 . S
C1161 H1169 0.960 . S
C1162 C1160 1.381 . S
C1162 C1163 1.394 . S
C1162 H1170 0.930 . S
C1163 C1162 1.394 . S
C1163 C1164 1.383 . S
C1163 H1171 0.929 . S
C1164 C1163 1.383 . S
C1164 C1165 1.377 . S
C1165 H1149 0.930 . S
C1165 C1164 1.377 . S
C1165 C1166 1.379 . S
C1166 H1150 0.931 . S
C1166 C1160 1.383 . S
C1166 C1165 1.379 . S
H1167 C1161 0.959 . S
H1168 C1161 0.961 . S
H1169 C1161 0.960 . S
H1170 C1162 0.930 . S
H1171 C1163 0.929 . S
H1172 C1180 0.929 . S
H1173 C1182 0.930 . S
H1174 C1184 0.930 . S
H1175 C1187 0.929 . S
H1176 C1190 0.930 . S
H1177 C1192 0.960 . S
H1178 C1192 0.960 . S
H1179 C1192 0.960 . S
C1180 H1172 0.929 . S
C1180 C1181 1.377 . S
C1180 C1182 1.384 . S
C1181 C1180 1.377 . S
C1181 C1187 1.390 . S
C1182 H1173 0.930 . S
C1182 C1180 1.384 . S
C1182 C1183 1.372 . S
C1183 C1182 1.372 . S
C1183 C1184 1.400 . S
C1183 C1188 1.490 . S
C1184 H1174 0.930 . S
C1184 C1183 1.400 . S
C1184 C1187 1.386 . S
H1185 C1201 0.930 . S
H1186 C1202 0.931 . S
C1187 H1175 0.929 . S
C1187 C1181 1.390 . S
C1187 C1184 1.386 . S
C1188 C1183 1.490 . S
C1188 C1190 1.395 . S
C1188 C1191 1.403 . S
H1189 C1195 0.930 . S
C1190 H1176 0.930 . S
C1190 C1188 1.395 . S
C1190 C1193 1.403 . S
C1191 C1188 1.403 . S
C1191 C1192 1.524 . S
C1191 C1195 1.400 . S
C1192 H1177 0.960 . S
C1192 H1178 0.960 . S
C1192 H1179 0.960 . S
C1192 C1191 1.524 . S
C1193 C1190 1.403 . S
C1193 C1194 1.392 . S
C1193 C1197 1.495 . S
C1194 C1193 1.392 . S
C1194 C1195 1.385 . S
C1194 C1196 1.478 . S
C1195 H1189 0.930 . S
C1195 C1191 1.400 . S
C1195 C1194 1.385 . S
C1196 C1194 1.478 . S
C1196 C1198 1.381 . S
C1196 C1202 1.383 . S
C1197 C1193 1.495 . S
C1197 H1203 0.959 . S
C1197 H1204 0.961 . S
C1197 H1205 0.960 . S
C1198 C1196 1.381 . S
C1198 C1199 1.394 . S
C1198 H1206 0.930 . S
C1199 C1198 1.394 . S
C1199 C1200 1.383 . S
C1199 H1207 0.929 . S
C1200 C1199 1.383 . S
C1200 C1201 1.377 . S
C1201 H1185 0.930 . S
C1201 C1200 1.377 . S
C1201 C1202 1.379 . S
C1202 H1186 0.931 . S
C1202 C1196 1.383 . S
C1202 C1201 1.379 . S
H1203 C1197 0.959 . S
H1204 C1197 0.961 . S
H1205 C1197 0.960 . S
H1206 C1198 0.930 . S
H1207 C1199 0.929 . S
H1208 C1216 0.929 . S
H1209 C1218 0.930 . S
H1210 C1220 0.930 . S
H1211 C1223 0.929 . S
H1212 C1226 0.930 . S
H1213 C1228 0.960 . S
H1214 C1228 0.960 . S
H1215 C1228 0.960 . S
C1216 H1208 0.929 . S
C1216 C1217 1.377 . S
C1216 C1218 1.384 . S
C1217 C1216 1.377 . S
C1217 C1223 1.390 . S
C1218 H1209 0.930 . S
C1218 C1216 1.384 . S
C1218 C1219 1.372 . S
C1219 C1218 1.372 . S
C1219 C1220 1.400 . S
C1219 C1224 1.490 . S
C1220 H1210 0.930 . S
C1220 C1219 1.400 . S
C1220 C1223 1.386 . S
H1221 C1237 0.930 . S
H1222 C1238 0.931 . S
C1223 H1211 0.929 . S
C1223 C1217 1.390 . S
C1223 C1220 1.386 . S
C1224 C1219 1.490 . S
C1224 C1226 1.395 . S
C1224 C1227 1.403 . S
H1225 C1231 0.930 . S
C1226 H1212 0.930 . S
C1226 C1224 1.395 . S
C1226 C1229 1.403 . S
C1227 C1224 1.403 . S
C1227 C1228 1.524 . S
C1227 C1231 1.400 . S
C1228 H1213 0.960 . S
C1228 H1214 0.960 . S
C1228 H1215 0.960 . S
C1228 C1227 1.524 . S
C1229 C1226 1.403 . S
C1229 C1230 1.392 . S
C1229 C1233 1.495 . S
C1230 C1229 1.392 . S
C1230 C1231 1.385 . S
C1230 C1232 1.478 . S
C1231 H1225 0.930 . S
C1231 C1227 1.400 . S
C1231 C1230 1.385 . S
C1232 C1230 1.478 . S
C1232 C1234 1.381 . S
C1232 C1238 1.383 . S
C1233 C1229 1.495 . S
C1233 H1239 0.959 . S
C1233 H1240 0.961 . S
C1233 H1241 0.960 . S
C1234 C1232 1.381 . S
C1234 C1235 1.394 . S
C1234 H1242 0.930 . S
C1235 C1234 1.394 . S
C1235 C1236 1.383 . S
C1235 H1243 0.929 . S
C1236 C1235 1.383 . S
C1236 C1237 1.377 . S
C1237 H1221 0.930 . S
C1237 C1236 1.377 . S
C1237 C1238 1.379 . S
C1238 H1222 0.931 . S
C1238 C1232 1.383 . S
C1238 C1237 1.379 . S
H1239 C1233 0.959 . S
H1240 C1233 0.961 . S
H1241 C1233 0.960 . S
H1242 C1234 0.930 . S
H1243 C1235 0.929 . S
H1244 C1252 0.929 . S
H1245 C1254 0.930 . S
H1246 C1256 0.930 . S
H1247 C1259 0.929 . S
H1248 C1262 0.930 . S
H1249 C1264 0.960 . S
H1250 C1264 0.960 . S
H1251 C1264 0.960 . S
C1252 H1244 0.929 . S
C1252 C1253 1.377 . S
C1252 C1254 1.384 1_554 S
C1253 C1252 1.377 . S
C1253 C1259 1.390 . S
C1254 H1245 0.930 . S
C1254 C1252 1.384 1_556 S
C1254 C1255 1.372 . S
C1255 C1254 1.372 . S
C1255 C1256 1.400 . S
C1255 C1260 1.490 . S
C1256 H1246 0.930 . S
C1256 C1255 1.400 . S
C1256 C1259 1.386 1_556 S
H1257 C1273 0.930 . S
H1258 C1274 0.931 . S
C1259 H1247 0.929 . S
C1259 C1253 1.390 . S
C1259 C1256 1.386 1_554 S
C1260 C1255 1.490 . S
C1260 C1262 1.395 . S
C1260 C1263 1.403 . S
H1261 C1267 0.930 . S
C1262 H1248 0.930 . S
C1262 C1260 1.395 . S
C1262 C1265 1.403 . S
C1263 C1260 1.403 . S
C1263 C1264 1.524 . S
C1263 C1267 1.400 . S
C1264 H1249 0.960 . S
C1264 H1250 0.960 . S
C1264 H1251 0.960 . S
C1264 C1263 1.524 . S
C1265 C1262 1.403 . S
C1265 C1266 1.392 . S
C1265 C1269 1.495 . S
C1266 C1265 1.392 . S
C1266 C1267 1.385 . S
C1266 C1268 1.478 . S
C1267 H1261 0.930 . S
C1267 C1263 1.400 . S
C1267 C1266 1.385 . S
C1268 C1266 1.478 . S
C1268 C1270 1.381 . S
C1268 C1274 1.383 . S
C1269 C1265 1.495 . S
C1269 H1275 0.959 . S
C1269 H1276 0.961 . S
C1269 H1277 0.960 . S
C1270 C1268 1.381 . S
C1270 C1271 1.394 . S
C1270 H1278 0.930 . S
C1271 C1270 1.394 . S
C1271 C1272 1.383 . S
C1271 H1279 0.929 . S
C1272 C1271 1.383 . S
C1272 C1273 1.377 . S
C1273 H1257 0.930 . S
C1273 C1272 1.377 . S
C1273 C1274 1.379 . S
C1274 H1258 0.931 . S
C1274 C1268 1.383 . S
C1274 C1273 1.379 . S
H1275 C1269 0.959 . S
H1276 C1269 0.961 . S
H1277 C1269 0.960 . S
H1278 C1270 0.930 . S
H1279 C1271 0.929 . S
H1280 C1288 0.929 . S
H1281 C1290 0.927 1_556 S
H1282 C1292 0.932 . S
H1283 C1295 0.929 1_455 S
H1284 C1298 0.930 . S
H1285 C1300 0.960 . S
H1286 C1300 0.960 . S
H1287 C1300 0.960 . S
C1288 H1280 0.929 . S
C1288 C1289 1.377 . S
C1288 C1290 1.392 . S
C1289 C1288 1.377 . S
C1289 C1295 1.390 . S
C1290 H1281 0.927 1_554 S
C1290 C1288 1.392 . S
C1290 C1291 1.367 1_554 S
C1291 C1290 1.367 1_556 S
C1291 C1292 1.401 . S
C1291 C1296 1.490 . S
C1292 H1282 0.932 . S
C1292 C1291 1.401 . S
C1292 C1295 1.382 1_556 S
H1293 C1309 0.930 . S
H1294 C1310 0.931 . S
C1295 H1283 0.929 1_655 S
C1295 C1289 1.390 . S
C1295 C1292 1.382 1_554 S
C1296 C1291 1.490 . S
C1296 C1298 1.395 . S
C1296 C1299 1.403 . S
H1297 C1303 0.930 . S
C1298 H1284 0.930 . S
C1298 C1296 1.395 . S
C1298 C1301 1.403 . S
C1299 C1296 1.403 . S
C1299 C1300 1.524 1_556 S
C1299 C1303 1.400 . S
C1300 H1285 0.960 . S
C1300 H1286 0.960 . S
C1300 H1287 0.960 . S
C1300 C1299 1.524 1_554 S
C1301 C1298 1.403 . S
C1301 C1302 1.392 . S
C1301 C1305 1.495 . S
C1302 C1301 1.392 . S
C1302 C1303 1.385 . S
C1302 C1304 1.478 . S
C1303 H1297 0.930 . S
C1303 C1299 1.400 . S
C1303 C1302 1.385 . S
C1304 C1302 1.478 . S
C1304 C1306 1.381 . S
C1304 C1310 1.383 . S
C1305 C1301 1.495 . S
C1305 H1311 0.959 . S
C1305 H1312 0.961 . S
C1305 H1313 0.960 . S
C1306 C1304 1.381 . S
C1306 C1307 1.394 . S
C1306 H1314 0.930 . S
C1307 C1306 1.394 . S
C1307 C1308 1.383 . S
C1307 H1315 0.929 . S
C1308 C1307 1.383 . S
C1308 C1309 1.377 . S
C1309 H1293 0.930 . S
C1309 C1308 1.377 . S
C1309 C1310 1.379 . S
C1310 H1294 0.931 . S
C1310 C1304 1.383 . S
C1310 C1309 1.379 . S
H1311 C1305 0.959 . S
H1312 C1305 0.961 . S
H1313 C1305 0.960 . S
H1314 C1306 0.930 . S
H1315 C1307 0.929 . S
H1316 C1324 0.929 . S
H1317 C1326 0.930 . S
H1318 C1328 0.930 . S
H1319 C1331 0.929 . S
H1320 C1334 0.930 . S
H1321 C1336 0.960 . S
H1322 C1336 0.960 . S
H1323 C1336 0.960 . S
C1324 H1316 0.929 . S
C1324 C1325 1.377 . S
C1324 C1326 1.384 . S
C1325 C1324 1.377 . S
C1325 C1331 1.390 . S
C1326 H1317 0.930 . S
C1326 C1324 1.384 . S
C1326 C1327 1.372 . S
C1327 C1326 1.372 . S
C1327 C1328 1.400 . S
C1327 C1332 1.490 . S
C1328 H1318 0.930 . S
C1328 C1327 1.400 . S
C1328 C1331 1.386 . S
H1329 C1345 0.930 . S
H1330 C1346 0.931 . S
C1331 H1319 0.929 . S
C1331 C1325 1.390 . S
C1331 C1328 1.386 . S
C1332 C1327 1.490 . S
C1332 C1334 1.395 . S
C1332 C1335 1.403 . S
H1333 C1339 0.930 . S
C1334 H1320 0.930 . S
C1334 C1332 1.395 . S
C1334 C1337 1.403 . S
C1335 C1332 1.403 . S
C1335 C1336 1.524 . S
C1335 C1339 1.400 . S
C1336 H1321 0.960 . S
C1336 H1322 0.960 . S
C1336 H1323 0.960 . S
C1336 C1335 1.524 . S
C1337 C1334 1.403 . S
C1337 C1338 1.392 . S
C1337 C1341 1.495 . S
C1338 C1337 1.392 . S
C1338 C1339 1.385 . S
C1338 C1340 1.478 . S
C1339 H1333 0.930 . S
C1339 C1335 1.400 . S
C1339 C1338 1.385 . S
C1340 C1338 1.478 . S
C1340 C1342 1.381 . S
C1340 C1346 1.383 . S
C1341 C1337 1.495 . S
C1341 H1347 0.959 . S
C1341 H1348 0.961 . S
C1341 H1349 0.960 . S
C1342 C1340 1.381 . S
C1342 C1343 1.394 . S
C1342 H1350 0.930 . S
C1343 C1342 1.394 . S
C1343 C1344 1.383 . S
C1343 H1351 0.929 . S
C1344 C1343 1.383 . S
C1344 C1345 1.377 . S
C1345 H1329 0.930 . S
C1345 C1344 1.377 . S
C1345 C1346 1.379 . S
C1346 H1330 0.931 . S
C1346 C1340 1.383 . S
C1346 C1345 1.379 . S
H1347 C1341 0.959 . S
H1348 C1341 0.961 . S
H1349 C1341 0.960 . S
H1350 C1342 0.930 . S
H1351 C1343 0.929 . S
H1352 C1360 0.929 . S
H1353 C1362 0.930 . S
H1354 C1364 0.930 . S
H1355 C1367 0.929 . S
H1356 C1370 0.930 . S
H1357 C1372 0.960 . S
H1358 C1372 0.960 . S
H1359 C1372 0.960 . S
C1360 H1352 0.929 . S
C1360 C1361 1.377 . S
C1360 C1362 1.384 . S
C1361 C1360 1.377 . S
C1361 C1367 1.390 . S
C1362 H1353 0.930 . S
C1362 C1360 1.384 . S
C1362 C1363 1.372 . S
C1363 C1362 1.372 . S
C1363 C1364 1.400 . S
C1363 C1368 1.490 . S
C1364 H1354 0.930 . S
C1364 C1363 1.400 . S
C1364 C1367 1.386 . S
H1365 C1381 0.930 . S
H1366 C1382 0.931 . S
C1367 H1355 0.929 . S
C1367 C1361 1.390 . S
C1367 C1364 1.386 . S
C1368 C1363 1.490 . S
C1368 C1370 1.395 . S
C1368 C1371 1.403 . S
H1369 C1375 0.930 . S
C1370 H1356 0.930 . S
C1370 C1368 1.395 . S
C1370 C1373 1.403 . S
C1371 C1368 1.403 . S
C1371 C1372 1.524 . S
C1371 C1375 1.400 . S
C1372 H1357 0.960 . S
C1372 H1358 0.960 . S
C1372 H1359 0.960 . S
C1372 C1371 1.524 . S
C1373 C1370 1.403 . S
C1373 C1374 1.392 . S
C1373 C1377 1.495 . S
C1374 C1373 1.392 . S
C1374 C1375 1.385 . S
C1374 C1376 1.478 . S
C1375 H1369 0.930 . S
C1375 C1371 1.400 . S
C1375 C1374 1.385 . S
C1376 C1374 1.478 . S
C1376 C1378 1.381 . S
C1376 C1382 1.383 . S
C1377 C1373 1.495 . S
C1377 H1383 0.959 . S
C1377 H1384 0.961 . S
C1377 H1385 0.960 . S
C1378 C1376 1.381 . S
C1378 C1379 1.394 . S
C1378 H1386 0.930 . S
C1379 C1378 1.394 . S
C1379 C1380 1.383 . S
C1379 H1387 0.929 . S
C1380 C1379 1.383 . S
C1380 C1381 1.377 . S
C1381 H1365 0.930 . S
C1381 C1380 1.377 . S
C1381 C1382 1.379 . S
C1382 H1366 0.931 . S
C1382 C1376 1.383 . S
C1382 C1381 1.379 . S
H1383 C1377 0.959 . S
H1384 C1377 0.961 . S
H1385 C1377 0.960 . S
H1386 C1378 0.930 . S
H1387 C1379 0.929 . S
H1388 C1396 0.929 . S
H1389 C1398 0.930 . S
H1390 C1400 0.930 . S
H1391 C1403 0.929 . S
H1392 C1406 0.930 . S
H1393 C1408 0.960 . S
H1394 C1408 0.960 . S
H1395 C1408 0.960 . S
C1396 H1388 0.929 . S
C1396 C1397 1.377 . S
C1396 C1398 1.384 . S
C1397 C1396 1.377 . S
C1397 C1403 1.390 . S
C1398 H1389 0.930 . S
C1398 C1396 1.384 . S
C1398 C1399 1.372 . S
C1399 C1398 1.372 . S
C1399 C1400 1.400 . S
C1399 C1404 1.490 . S
C1400 H1390 0.930 . S
C1400 C1399 1.400 . S
C1400 C1403 1.386 . S
H1401 C1417 0.930 . S
H1402 C1418 0.931 . S
C1403 H1391 0.929 . S
C1403 C1397 1.390 . S
C1403 C1400 1.386 . S
C1404 C1399 1.490 . S
C1404 C1406 1.395 . S
C1404 C1407 1.403 . S
H1405 C1411 0.930 . S
C1406 H1392 0.930 . S
C1406 C1404 1.395 . S
C1406 C1409 1.403 . S
C1407 C1404 1.403 . S
C1407 C1408 1.524 . S
C1407 C1411 1.400 . S
C1408 H1393 0.960 . S
C1408 H1394 0.960 . S
C1408 H1395 0.960 . S
C1408 C1407 1.524 . S
C1409 C1406 1.403 . S
C1409 C1410 1.392 . S
C1409 C1413 1.495 . S
C1410 C1409 1.392 . S
C1410 C1411 1.385 . S
C1410 C1412 1.478 . S
C1411 H1405 0.930 . S
C1411 C1407 1.400 . S
C1411 C1410 1.385 . S
C1412 C1410 1.478 . S
C1412 C1414 1.381 . S
C1412 C1418 1.383 . S
C1413 C1409 1.495 . S
C1413 H1419 0.959 . S
C1413 H1420 0.961 . S
C1413 H1421 0.960 . S
C1414 C1412 1.381 . S
C1414 C1415 1.394 . S
C1414 H1422 0.930 . S
C1415 C1414 1.394 . S
C1415 C1416 1.383 . S
C1415 H1423 0.929 . S
C1416 C1415 1.383 . S
C1416 C1417 1.377 . S
C1417 H1401 0.930 . S
C1417 C1416 1.377 . S
C1417 C1418 1.379 . S
C1418 H1402 0.931 . S
C1418 C1412 1.383 . S
C1418 C1417 1.379 . S
H1419 C1413 0.959 . S
H1420 C1413 0.961 . S
H1421 C1413 0.960 . S
H1422 C1414 0.930 . S
H1423 C1415 0.929 . S
H1424 C1432 0.929 . S
H1425 C1434 0.930 . S
H1426 C1436 0.930 . S
H1427 C1439 0.929 . S
H1428 C1442 0.930 . S
H1429 C1444 0.960 . S
H1430 C1444 0.960 . S
H1431 C1444 0.960 . S
C1432 H1424 0.929 . S
C1432 C1433 1.377 . S
C1432 C1434 1.384 . S
C1433 C1432 1.377 . S
C1433 C1439 1.390 . S
C1434 H1425 0.930 . S
C1434 C1432 1.384 . S
C1434 C1435 1.372 . S
C1435 C1434 1.372 . S
C1435 C1436 1.400 . S
C1435 C1440 1.490 . S
C1436 H1426 0.930 . S
C1436 C1435 1.400 . S
C1436 C1439 1.386 . S
H1437 C1453 0.930 . S
H1438 C1454 0.931 . S
C1439 H1427 0.929 . S
C1439 C1433 1.390 . S
C1439 C1436 1.386 . S
C1440 C1435 1.490 . S
C1440 C1442 1.395 . S
C1440 C1443 1.403 . S
H1441 C1447 0.930 . S
C1442 H1428 0.930 . S
C1442 C1440 1.395 . S
C1442 C1445 1.403 . S
C1443 C1440 1.403 . S
C1443 C1444 1.524 . S
C1443 C1447 1.400 . S
C1444 H1429 0.960 . S
C1444 H1430 0.960 . S
C1444 H1431 0.960 . S
C1444 C1443 1.524 . S
C1445 C1442 1.403 . S
C1445 C1446 1.392 . S
C1445 C1449 1.495 . S
C1446 C1445 1.392 . S
C1446 C1447 1.385 . S
C1446 C1448 1.478 . S
C1447 H1441 0.930 . S
C1447 C1443 1.400 . S
C1447 C1446 1.385 . S
C1448 C1446 1.478 . S
C1448 C1450 1.381 . S
C1448 C1454 1.383 . S
C1449 C1445 1.495 . S
C1449 H1455 0.959 . S
C1449 H1456 0.961 . S
C1449 H1457 0.960 . S
C1450 C1448 1.381 . S
C1450 C1451 1.394 . S
C1450 H1458 0.930 . S
C1451 C1450 1.394 . S
C1451 C1452 1.383 . S
C1451 H1459 0.929 . S
C1452 C1451 1.383 . S
C1452 C1453 1.377 . S
C1453 H1437 0.930 . S
C1453 C1452 1.377 . S
C1453 C1454 1.379 . S
C1454 H1438 0.931 . S
C1454 C1448 1.383 . S
C1454 C1453 1.379 . S
H1455 C1449 0.959 . S
H1456 C1449 0.961 . S
H1457 C1449 0.960 . S
H1458 C1450 0.930 . S
H1459 C1451 0.929 . S
H1460 C1468 0.929 . S
H1461 C1470 0.930 . S
H1462 C1472 0.930 . S
H1463 C1475 0.929 . S
H1464 C1478 0.930 . S
H1465 C1480 0.960 . S
H1466 C1480 0.960 . S
H1467 C1480 0.960 . S
C1468 H1460 0.929 . S
C1468 C1469 1.377 . S
C1468 C1470 1.384 . S
C1469 C1468 1.377 . S
C1469 C1475 1.390 . S
C1470 H1461 0.930 . S
C1470 C1468 1.384 . S
C1470 C1471 1.372 . S
C1471 C1470 1.372 . S
C1471 C1472 1.400 . S
C1471 C1476 1.490 . S
C1472 H1462 0.930 . S
C1472 C1471 1.400 . S
C1472 C1475 1.386 . S
H1473 C1489 0.930 . S
H1474 C1490 0.931 . S
C1475 H1463 0.929 . S
C1475 C1469 1.390 . S
C1475 C1472 1.386 . S
C1476 C1471 1.490 . S
C1476 C1478 1.395 . S
C1476 C1479 1.403 . S
H1477 C1483 0.930 . S
C1478 H1464 0.930 . S
C1478 C1476 1.395 . S
C1478 C1481 1.403 . S
C1479 C1476 1.403 . S
C1479 C1480 1.524 . S
C1479 C1483 1.400 . S
C1480 H1465 0.960 . S
C1480 H1466 0.960 . S
C1480 H1467 0.960 . S
C1480 C1479 1.524 . S
C1481 C1478 1.403 . S
C1481 C1482 1.392 . S
C1481 C1485 1.495 . S
C1482 C1481 1.392 . S
C1482 C1483 1.385 . S
C1482 C1484 1.478 . S
C1483 H1477 0.930 . S
C1483 C1479 1.400 . S
C1483 C1482 1.385 . S
C1484 C1482 1.478 . S
C1484 C1486 1.381 . S
C1484 C1490 1.383 . S
C1485 C1481 1.495 . S
C1485 H1491 0.959 . S
C1485 H1492 0.961 . S
C1485 H1493 0.960 . S
C1486 C1484 1.381 . S
C1486 C1487 1.394 . S
C1486 H1494 0.930 . S
C1487 C1486 1.394 . S
C1487 C1488 1.383 . S
C1487 H1495 0.929 . S
C1488 C1487 1.383 . S
C1488 C1489 1.377 . S
C1489 H1473 0.930 . S
C1489 C1488 1.377 . S
C1489 C1490 1.379 . S
C1490 H1474 0.931 . S
C1490 C1484 1.383 . S
C1490 C1489 1.379 . S
H1491 C1485 0.959 . S
H1492 C1485 0.961 . S
H1493 C1485 0.960 . S
H1494 C1486 0.930 . S
H1495 C1487 0.929 . S
H1496 C1504 0.929 . S
H1497 C1506 0.930 . S
H1498 C1508 0.930 . S
H1499 C1511 0.929 . S
H1500 C1514 0.930 . S
H1501 C1516 0.960 . S
H1502 C1516 0.960 . S
H1503 C1516 0.960 . S
C1504 H1496 0.929 . S
C1504 C1505 1.377 . S
C1504 C1506 1.384 . S
C1505 C1504 1.377 . S
C1505 C1511 1.390 . S
C1506 H1497 0.930 . S
C1506 C1504 1.384 . S
C1506 C1507 1.372 . S
C1507 C1506 1.372 . S
C1507 C1508 1.400 . S
C1507 C1512 1.490 . S
C1508 H1498 0.930 . S
C1508 C1507 1.400 . S
C1508 C1511 1.386 . S
H1509 C1525 0.930 . S
H1510 C1526 0.931 . S
C1511 H1499 0.929 . S
C1511 C1505 1.390 . S
C1511 C1508 1.386 . S
C1512 C1507 1.490 . S
C1512 C1514 1.395 . S
C1512 C1515 1.403 . S
H1513 C1519 0.930 . S
C1514 H1500 0.930 . S
C1514 C1512 1.395 . S
C1514 C1517 1.403 . S
C1515 C1512 1.403 . S
C1515 C1516 1.524 . S
C1515 C1519 1.400 . S
C1516 H1501 0.960 . S
C1516 H1502 0.960 . S
C1516 H1503 0.960 . S
C1516 C1515 1.524 . S
C1517 C1514 1.403 . S
C1517 C1518 1.392 . S
C1517 C1521 1.495 . S
C1518 C1517 1.392 . S
C1518 C1519 1.385 . S
C1518 C1520 1.478 . S
C1519 H1513 0.930 . S
C1519 C1515 1.400 . S
C1519 C1518 1.385 . S
C1520 C1518 1.478 . S
C1520 C1522 1.381 . S
C1520 C1526 1.383 . S
C1521 C1517 1.495 . S
C1521 H1527 0.959 . S
C1521 H1528 0.961 . S
C1521 H1529 0.960 . S
C1522 C1520 1.381 . S
C1522 C1523 1.394 . S
C1522 H1530 0.930 . S
C1523 C1522 1.394 . S
C1523 C1524 1.383 . S
C1523 H1531 0.929 . S
C1524 C1523 1.383 . S
C1524 C1525 1.377 . S
C1525 H1509 0.930 . S
C1525 C1524 1.377 . S
C1525 C1526 1.379 . S
C1526 H1510 0.931 . S
C1526 C1520 1.383 . S
C1526 C1525 1.379 . S
H1527 C1521 0.959 . S
H1528 C1521 0.961 . S
H1529 C1521 0.960 . S
H1530 C1522 0.930 . S
H1531 C1523 0.929 . S
H1532 C1540 0.929 . S
H1533 C1542 0.930 . S
H1534 C1544 0.930 . S
H1535 C1547 0.929 . S
H1536 C1550 0.930 . S
H1537 C1552 0.960 . S
H1538 C1552 0.960 . S
H1539 C1552 0.960 . S
C1540 H1532 0.929 . S
C1540 C1541 1.377 . S
C1540 C1542 1.384 . S
C1541 C1540 1.377 . S
C1541 C1547 1.390 . S
C1542 H1533 0.930 . S
C1542 C1540 1.384 . S
C1542 C1543 1.372 . S
C1543 C1542 1.372 . S
C1543 C1544 1.400 . S
C1543 C1548 1.490 . S
C1544 H1534 0.930 . S
C1544 C1543 1.400 . S
C1544 C1547 1.386 . S
H1545 C1561 0.930 . S
H1546 C1562 0.931 . S
C1547 H1535 0.929 . S
C1547 C1541 1.390 . S
C1547 C1544 1.386 . S
C1548 C1543 1.490 . S
C1548 C1550 1.395 . S
C1548 C1551 1.403 . S
H1549 C1555 0.930 . S
C1550 H1536 0.930 . S
C1550 C1548 1.395 . S
C1550 C1553 1.403 . S
C1551 C1548 1.403 . S
C1551 C1552 1.524 . S
C1551 C1555 1.400 . S
C1552 H1537 0.960 . S
C1552 H1538 0.960 . S
C1552 H1539 0.960 . S
C1552 C1551 1.524 . S
C1553 C1550 1.403 . S
C1553 C1554 1.392 . S
C1553 C1557 1.495 . S
C1554 C1553 1.392 . S
C1554 C1555 1.385 . S
C1554 C1556 1.478 . S
C1555 H1549 0.930 . S
C1555 C1551 1.400 . S
C1555 C1554 1.385 . S
C1556 C1554 1.478 . S
C1556 C1558 1.381 . S
C1556 C1562 1.383 . S
C1557 C1553 1.495 . S
C1557 H1563 0.959 . S
C1557 H1564 0.961 . S
C1557 H1565 0.960 . S
C1558 C1556 1.381 . S
C1558 C1559 1.394 . S
C1558 H1566 0.930 . S
C1559 C1558 1.394 . S
C1559 C1560 1.383 . S
C1559 H1567 0.929 . S
C1560 C1559 1.383 . S
C1560 C1561 1.377 . S
C1561 H1545 0.930 . S
C1561 C1560 1.377 . S
C1561 C1562 1.379 . S
C1562 H1546 0.931 . S
C1562 C1556 1.383 . S
C1562 C1561 1.379 . S
H1563 C1557 0.959 . S
H1564 C1557 0.961 . S
H1565 C1557 0.960 . S
H1566 C1558 0.930 . S
H1567 C1559 0.929 . S
H1568 C1576 0.929 . S
H1569 C1578 0.930 . S
H1570 C1580 0.930 . S
H1571 C1583 0.929 . S
H1572 C1586 0.930 . S
H1573 C1588 0.960 . S
H1574 C1588 0.960 . S
H1575 C1588 0.960 . S
C1576 H1568 0.929 . S
C1576 C1577 1.377 . S
C1576 C1578 1.384 . S
C1577 C1576 1.377 . S
C1577 C1583 1.390 . S
C1578 H1569 0.930 . S
C1578 C1576 1.384 . S
C1578 C1579 1.372 . S
C1579 C1578 1.372 . S
C1579 C1580 1.400 . S
C1579 C1584 1.490 . S
C1580 H1570 0.930 . S
C1580 C1579 1.400 . S
C1580 C1583 1.386 . S
H1581 C1597 0.930 . S
H1582 C1598 0.931 . S
C1583 H1571 0.929 . S
C1583 C1577 1.390 . S
C1583 C1580 1.386 . S
C1584 C1579 1.490 . S
C1584 C1586 1.395 . S
C1584 C1587 1.403 . S
H1585 C1591 0.930 . S
C1586 H1572 0.930 . S
C1586 C1584 1.395 . S
C1586 C1589 1.403 . S
C1587 C1584 1.403 . S
C1587 C1588 1.524 . S
C1587 C1591 1.400 . S
C1588 H1573 0.960 . S
C1588 H1574 0.960 . S
C1588 H1575 0.960 . S
C1588 C1587 1.524 . S
C1589 C1586 1.403 . S
C1589 C1590 1.392 . S
C1589 C1593 1.495 . S
C1590 C1589 1.392 . S
C1590 C1591 1.385 . S
C1590 C1592 1.478 . S
C1591 H1585 0.930 . S
C1591 C1587 1.400 . S
C1591 C1590 1.385 . S
C1592 C1590 1.478 . S
C1592 C1594 1.381 . S
C1592 C1598 1.383 . S
C1593 C1589 1.495 . S
C1593 H1599 0.959 . S
C1593 H1600 0.961 . S
C1593 H1601 0.960 . S
C1594 C1592 1.381 . S
C1594 C1595 1.394 . S
C1594 H1602 0.930 . S
C1595 C1594 1.394 . S
C1595 C1596 1.383 . S
C1595 H1603 0.929 . S
C1596 C1595 1.383 . S
C1596 C1597 1.377 . S
C1597 H1581 0.930 . S
C1597 C1596 1.377 . S
C1597 C1598 1.379 . S
C1598 H1582 0.931 . S
C1598 C1592 1.383 . S
C1598 C1597 1.379 . S
H1599 C1593 0.959 . S
H1600 C1593 0.961 . S
H1601 C1593 0.960 . S
H1602 C1594 0.930 . S
H1603 C1595 0.929 . S
H1604 C1612 0.929 . S
H1605 C1614 0.930 . S
H1606 C1616 0.930 . S
H1607 C1619 0.929 . S
H1608 C1622 0.930 . S
H1609 C1624 0.960 . S
H1610 C1624 0.960 . S
H1611 C1624 0.960 . S
C1612 H1604 0.929 . S
C1612 C1613 1.377 . S
C1612 C1614 1.384 . S
C1613 C1612 1.377 . S
C1613 C1619 1.390 . S
C1614 H1605 0.930 . S
C1614 C1612 1.384 . S
C1614 C1615 1.372 . S
C1615 C1614 1.372 . S
C1615 C1616 1.400 . S
C1615 C1620 1.490 . S
C1616 H1606 0.930 . S
C1616 C1615 1.400 . S
C1616 C1619 1.386 . S
H1617 C1633 0.930 . S
H1618 C1634 0.931 . S
C1619 H1607 0.929 . S
C1619 C1613 1.390 . S
C1619 C1616 1.386 . S
C1620 C1615 1.490 . S
C1620 C1622 1.395 . S
C1620 C1623 1.403 . S
H1621 C1627 0.930 . S
C1622 H1608 0.930 . S
C1622 C1620 1.395 . S
C1622 C1625 1.403 . S
C1623 C1620 1.403 . S
C1623 C1624 1.524 . S
C1623 C1627 1.400 . S
C1624 H1609 0.960 . S
C1624 H1610 0.960 . S
C1624 H1611 0.960 . S
C1624 C1623 1.524 . S
C1625 C1622 1.403 . S
C1625 C1626 1.392 . S
C1625 C1629 1.495 . S
C1626 C1625 1.392 . S
C1626 C1627 1.385 . S
C1626 C1628 1.478 . S
C1627 H1621 0.930 . S
C1627 C1623 1.400 . S
C1627 C1626 1.385 . S
C1628 C1626 1.478 . S
C1628 C1630 1.381 . S
C1628 C1634 1.383 . S
C1629 C1625 1.495 . S
C1629 H1635 0.959 . S
C1629 H1636 0.961 . S
C1629 H1637 0.960 . S
C1630 C1628 1.381 . S
C1630 C1631 1.394 . S
C1630 H1638 0.930 . S
C1631 C1630 1.394 . S
C1631 C1632 1.383 . S
C1631 H1639 0.929 . S
C1632 C1631 1.383 . S
C1632 C1633 1.377 . S
C1633 H1617 0.930 . S
C1633 C1632 1.377 . S
C1633 C1634 1.379 . S
C1634 H1618 0.931 . S
C1634 C1628 1.383 . S
C1634 C1633 1.379 . S
H1635 C1629 0.959 . S
H1636 C1629 0.961 . S
H1637 C1629 0.960 . S
H1638 C1630 0.930 . S
H1639 C1631 0.929 . S
H1640 C1648 0.929 . S
H1641 C1650 0.930 . S
H1642 C1652 0.930 . S
H1643 C1655 0.929 . S
H1644 C1658 0.930 . S
H1645 C1660 0.960 . S
H1646 C1660 0.960 . S
H1647 C1660 0.960 . S
C1648 H1640 0.929 . S
C1648 C1649 1.377 . S
C1648 C1650 1.384 . S
C1649 C1648 1.377 . S
C1649 C1655 1.390 . S
C1650 H1641 0.930 . S
C1650 C1648 1.384 . S
C1650 C1651 1.372 . S
C1651 C1650 1.372 . S
C1651 C1652 1.400 . S
C1651 C1656 1.490 . S
C1652 H1642 0.930 . S
C1652 C1651 1.400 . S
C1652 C1655 1.386 . S
H1653 C1669 0.930 . S
H1654 C1670 0.931 . S
C1655 H1643 0.929 . S
C1655 C1649 1.390 . S
C1655 C1652 1.386 . S
C1656 C1651 1.490 . S
C1656 C1658 1.395 . S
C1656 C1659 1.403 . S
H1657 C1663 0.930 . S
C1658 H1644 0.930 . S
C1658 C1656 1.395 . S
C1658 C1661 1.403 . S
C1659 C1656 1.403 . S
C1659 C1660 1.524 . S
C1659 C1663 1.400 . S
C1660 H1645 0.960 . S
C1660 H1646 0.960 . S
C1660 H1647 0.960 . S
C1660 C1659 1.524 . S
C1661 C1658 1.403 . S
C1661 C1662 1.392 . S
C1661 C1665 1.495 . S
C1662 C1661 1.392 . S
C1662 C1663 1.385 . S
C1662 C1664 1.478 . S
C1663 H1657 0.930 . S
C1663 C1659 1.400 . S
C1663 C1662 1.385 . S
C1664 C1662 1.478 . S
C1664 C1666 1.381 . S
C1664 C1670 1.383 . S
C1665 C1661 1.495 . S
C1665 H1671 0.959 . S
C1665 H1672 0.961 . S
C1665 H1673 0.960 . S
C1666 C1664 1.381 . S
C1666 C1667 1.394 . S
C1666 H1674 0.930 . S
C1667 C1666 1.394 . S
C1667 C1668 1.383 . S
C1667 H1675 0.929 . S
C1668 C1667 1.383 . S
C1668 C1669 1.377 . S
C1669 H1653 0.930 . S
C1669 C1668 1.377 . S
C1669 C1670 1.379 . S
C1670 H1654 0.931 . S
C1670 C1664 1.383 . S
C1670 C1669 1.379 . S
H1671 C1665 0.959 . S
H1672 C1665 0.961 . S
H1673 C1665 0.960 . S
H1674 C1666 0.930 . S
H1675 C1667 0.929 . S
H1676 C1684 0.929 . S
H1677 C1686 0.930 . S
H1678 C1688 0.930 . S
H1679 C1691 0.929 . S
H1680 C1694 0.930 . S
H1681 C1696 0.960 . S
H1682 C1696 0.960 . S
H1683 C1696 0.960 . S
C1684 H1676 0.929 . S
C1684 C1685 1.377 . S
C1684 C1686 1.384 . S
C1685 C1684 1.377 . S
C1685 C1691 1.390 . S
C1686 H1677 0.930 . S
C1686 C1684 1.384 . S
C1686 C1687 1.372 . S
C1687 C1686 1.372 . S
C1687 C1688 1.400 . S
C1687 C1692 1.490 . S
C1688 H1678 0.930 . S
C1688 C1687 1.400 . S
C1688 C1691 1.386 . S
H1689 C1705 0.930 . S
H1690 C1706 0.931 . S
C1691 H1679 0.929 . S
C1691 C1685 1.390 . S
C1691 C1688 1.386 . S
C1692 C1687 1.490 . S
C1692 C1694 1.395 . S
C1692 C1695 1.403 . S
H1693 C1699 0.930 . S
C1694 H1680 0.930 . S
C1694 C1692 1.395 . S
C1694 C1697 1.403 . S
C1695 C1692 1.403 . S
C1695 C1696 1.524 . S
C1695 C1699 1.400 . S
C1696 H1681 0.960 . S
C1696 H1682 0.960 . S
C1696 H1683 0.960 . S
C1696 C1695 1.524 . S
C1697 C1694 1.403 . S
C1697 C1698 1.392 . S
C1697 C1701 1.495 . S
C1698 C1697 1.392 . S
C1698 C1699 1.385 . S
C1698 C1700 1.478 . S
C1699 H1693 0.930 . S
C1699 C1695 1.400 . S
C1699 C1698 1.385 . S
C1700 C1698 1.478 . S
C1700 C1702 1.381 . S
C1700 C1706 1.383 . S
C1701 C1697 1.495 . S
C1701 H1707 0.959 . S
C1701 H1708 0.961 . S
C1701 H1709 0.960 . S
C1702 C1700 1.381 . S
C1702 C1703 1.394 . S
C1702 H1710 0.930 . S
C1703 C1702 1.394 . S
C1703 C1704 1.383 . S
C1703 H1711 0.929 . S
C1704 C1703 1.383 . S
C1704 C1705 1.377 . S
C1705 H1689 0.930 . S
C1705 C1704 1.377 . S
C1705 C1706 1.379 . S
C1706 H1690 0.931 . S
C1706 C1700 1.383 . S
C1706 C1705 1.379 . S
H1707 C1701 0.959 . S
H1708 C1701 0.961 . S
H1709 C1701 0.960 . S
H1710 C1702 0.930 . S
H1711 C1703 0.929 . S
H1712 C1720 0.929 . S
H1713 C1722 0.930 . S
H1714 C1724 0.930 . S
H1715 C1727 0.929 . S
H1716 C1730 0.930 . S
H1717 C1732 0.960 . S
H1718 C1732 0.960 . S
H1719 C1732 0.960 . S
C1720 H1712 0.929 . S
C1720 C1721 1.377 . S
C1720 C1722 1.384 . S
C1721 C1720 1.377 . S
C1721 C1727 1.390 . S
C1722 H1713 0.930 . S
C1722 C1720 1.384 . S
C1722 C1723 1.372 . S
C1723 C1722 1.372 . S
C1723 C1724 1.400 . S
C1723 C1728 1.490 . S
C1724 H1714 0.930 . S
C1724 C1723 1.400 . S
C1724 C1727 1.386 . S
H1725 C1741 0.930 . S
H1726 C1742 0.931 . S
C1727 H1715 0.929 . S
C1727 C1721 1.390 . S
C1727 C1724 1.386 . S
C1728 C1723 1.490 . S
C1728 C1730 1.395 . S
C1728 C1731 1.403 . S
H1729 C1735 0.930 . S
C1730 H1716 0.930 . S
C1730 C1728 1.395 . S
C1730 C1733 1.403 . S
C1731 C1728 1.403 . S
C1731 C1732 1.524 . S
C1731 C1735 1.400 . S
C1732 H1717 0.960 . S
C1732 H1718 0.960 . S
C1732 H1719 0.960 . S
C1732 C1731 1.524 . S
C1733 C1730 1.403 . S
C1733 C1734 1.392 . S
C1733 C1737 1.495 . S
C1734 C1733 1.392 . S
C1734 C1735 1.385 . S
C1734 C1736 1.478 . S
C1735 H1729 0.930 . S
C1735 C1731 1.400 . S
C1735 C1734 1.385 . S
C1736 C1734 1.478 . S
C1736 C1738 1.381 . S
C1736 C1742 1.383 . S
C1737 C1733 1.495 . S
C1737 H1743 0.959 . S
C1737 H1744 0.961 . S
C1737 H1745 0.960 . S
C1738 C1736 1.381 . S
C1738 C1739 1.394 . S
C1738 H1746 0.930 . S
C1739 C1738 1.394 . S
C1739 C1740 1.383 . S
C1739 H1747 0.929 . S
C1740 C1739 1.383 . S
C1740 C1741 1.377 . S
C1741 H1725 0.930 . S
C1741 C1740 1.377 . S
C1741 C1742 1.379 . S
C1742 H1726 0.931 . S
C1742 C1736 1.383 . S
C1742 C1741 1.379 . S
H1743 C1737 0.959 . S
H1744 C1737 0.961 . S
H1745 C1737 0.960 . S
H1746 C1738 0.930 . S
H1747 C1739 0.929 . S
H1748 C1756 0.929 . S
H1749 C1758 0.930 . S
H1750 C1760 0.930 . S
H1751 C1763 0.929 . S
H1752 C1766 0.930 . S
H1753 C1768 0.960 . S
H1754 C1768 0.960 . S
H1755 C1768 0.960 . S
C1756 H1748 0.929 . S
C1756 C1757 1.377 . S
C1756 C1758 1.384 . S
C1757 C1756 1.377 . S
C1757 C1763 1.390 . S
C1758 H1749 0.930 . S
C1758 C1756 1.384 . S
C1758 C1759 1.372 . S
C1759 C1758 1.372 . S
C1759 C1760 1.400 . S
C1759 C1764 1.490 . S
C1760 H1750 0.930 . S
C1760 C1759 1.400 . S
C1760 C1763 1.386 . S
H1761 C1777 0.930 . S
H1762 C1778 0.931 . S
C1763 H1751 0.929 . S
C1763 C1757 1.390 . S
C1763 C1760 1.386 . S
C1764 C1759 1.490 . S
C1764 C1766 1.395 . S
C1764 C1767 1.403 . S
H1765 C1771 0.930 . S
C1766 H1752 0.930 . S
C1766 C1764 1.395 . S
C1766 C1769 1.403 . S
C1767 C1764 1.403 . S
C1767 C1768 1.524 . S
C1767 C1771 1.400 . S
C1768 H1753 0.960 . S
C1768 H1754 0.960 . S
C1768 H1755 0.960 . S
C1768 C1767 1.524 . S
C1769 C1766 1.403 . S
C1769 C1770 1.392 . S
C1769 C1773 1.495 . S
C1770 C1769 1.392 . S
C1770 C1771 1.385 . S
C1770 C1772 1.478 . S
C1771 H1765 0.930 . S
C1771 C1767 1.400 . S
C1771 C1770 1.385 . S
C1772 C1770 1.478 . S
C1772 C1774 1.381 . S
C1772 C1778 1.383 . S
C1773 C1769 1.495 . S
C1773 H1779 0.959 . S
C1773 H1780 0.961 . S
C1773 H1781 0.960 . S
C1774 C1772 1.381 . S
C1774 C1775 1.394 . S
C1774 H1782 0.930 . S
C1775 C1774 1.394 . S
C1775 C1776 1.383 . S
C1775 H1783 0.929 . S
C1776 C1775 1.383 . S
C1776 C1777 1.377 . S
C1777 H1761 0.930 . S
C1777 C1776 1.377 . S
C1777 C1778 1.379 . S
C1778 H1762 0.931 . S
C1778 C1772 1.383 . S
C1778 C1777 1.379 . S
H1779 C1773 0.959 . S
H1780 C1773 0.961 . S
H1781 C1773 0.960 . S
H1782 C1774 0.930 . S
H1783 C1775 0.929 . S
H1784 C1792 0.929 . S
H1785 C1794 0.930 . S
H1786 C1796 0.930 . S
H1787 C1799 0.929 . S
H1788 C1802 0.930 . S
H1789 C1804 0.960 . S
H1790 C1804 0.960 . S
H1791 C1804 0.960 . S
C1792 H1784 0.929 . S
C1792 C1793 1.377 . S
C1792 C1794 1.384 . S
C1793 C1792 1.377 . S
C1793 C1799 1.390 . S
C1794 H1785 0.930 . S
C1794 C1792 1.384 . S
C1794 C1795 1.372 . S
C1795 C1794 1.372 . S
C1795 C1796 1.400 . S
C1795 C1800 1.490 . S
C1796 H1786 0.930 . S
C1796 C1795 1.400 . S
C1796 C1799 1.386 . S
H1797 C1813 0.930 . S
H1798 C1814 0.931 . S
C1799 H1787 0.929 . S
C1799 C1793 1.390 . S
C1799 C1796 1.386 . S
C1800 C1795 1.490 . S
C1800 C1802 1.395 . S
C1800 C1803 1.403 . S
H1801 C1807 0.930 . S
C1802 H1788 0.930 . S
C1802 C1800 1.395 . S
C1802 C1805 1.403 . S
C1803 C1800 1.403 . S
C1803 C1804 1.524 . S
C1803 C1807 1.400 . S
C1804 H1789 0.960 . S
C1804 H1790 0.960 . S
C1804 H1791 0.960 . S
C1804 C1803 1.524 . S
C1805 C1802 1.403 . S
C1805 C1806 1.392 . S
C1805 C1809 1.495 . S
C1806 C1805 1.392 . S
C1806 C1807 1.385 . S
C1806 C1808 1.478 . S
C1807 H1801 0.930 . S
C1807 C1803 1.400 . S
C1807 C1806 1.385 . S
C1808 C1806 1.478 . S
C1808 C1810 1.381 . S
C1808 C1814 1.383 . S
C1809 C1805 1.495 . S
C1809 H1815 0.959 . S
C1809 H1816 0.961 . S
C1809 H1817 0.960 . S
C1810 C1808 1.381 . S
C1810 C1811 1.394 . S
C1810 H1818 0.930 . S
C1811 C1810 1.394 . S
C1811 C1812 1.383 . S
C1811 H1819 0.929 . S
C1812 C1811 1.383 . S
C1812 C1813 1.377 . S
C1813 H1797 0.930 . S
C1813 C1812 1.377 . S
C1813 C1814 1.379 . S
C1814 H1798 0.931 . S
C1814 C1808 1.383 . S
C1814 C1813 1.379 . S
H1815 C1809 0.959 . S
H1816 C1809 0.961 . S
H1817 C1809 0.960 . S
H1818 C1810 0.930 . S
H1819 C1811 0.929 . S
H1820 C1828 0.929 . S
H1821 C1830 0.930 . S
H1822 C1832 0.930 . S
H1823 C1835 0.929 . S
H1824 C1838 0.930 . S
H1825 C1840 0.960 . S
H1826 C1840 0.960 . S
H1827 C1840 0.960 . S
C1828 H1820 0.929 . S
C1828 C1829 1.377 . S
C1828 C1830 1.384 . S
C1829 C1828 1.377 . S
C1829 C1835 1.390 . S
C1830 H1821 0.930 . S
C1830 C1828 1.384 . S
C1830 C1831 1.372 . S
C1831 C1830 1.372 . S
C1831 C1832 1.400 . S
C1831 C1836 1.490 . S
C1832 H1822 0.930 . S
C1832 C1831 1.400 . S
C1832 C1835 1.386 . S
H1833 C1849 0.930 . S
H1834 C1850 0.931 . S
C1835 H1823 0.929 . S
C1835 C1829 1.390 . S
C1835 C1832 1.386 . S
C1836 C1831 1.490 . S
C1836 C1838 1.395 . S
C1836 C1839 1.403 . S
H1837 C1843 0.930 . S
C1838 H1824 0.930 . S
C1838 C1836 1.395 . S
C1838 C1841 1.403 . S
C1839 C1836 1.403 . S
C1839 C1840 1.524 . S
C1839 C1843 1.400 . S
C1840 H1825 0.960 . S
C1840 H1826 0.960 . S
C1840 H1827 0.960 . S
C1840 C1839 1.524 . S
C1841 C1838 1.403 . S
C1841 C1842 1.392 . S
C1841 C1845 1.495 . S
C1842 C1841 1.392 . S
C1842 C1843 1.385 . S
C1842 C1844 1.478 . S
C1843 H1837 0.930 . S
C1843 C1839 1.400 . S
C1843 C1842 1.385 . S
C1844 C1842 1.478 . S
C1844 C1846 1.381 . S
C1844 C1850 1.383 . S
C1845 C1841 1.495 . S
C1845 H1851 0.959 . S
C1845 H1852 0.961 . S
C1845 H1853 0.960 . S
C1846 C1844 1.381 . S
C1846 C1847 1.394 . S
C1846 H1854 0.930 . S
C1847 C1846 1.394 . S
C1847 C1848 1.383 . S
C1847 H1855 0.929 . S
C1848 C1847 1.383 . S
C1848 C1849 1.377 . S
C1849 H1833 0.930 . S
C1849 C1848 1.377 . S
C1849 C1850 1.379 . S
C1850 H1834 0.931 . S
C1850 C1844 1.383 . S
C1850 C1849 1.379 . S
H1851 C1845 0.959 . S
H1852 C1845 0.961 . S
H1853 C1845 0.960 . S
H1854 C1846 0.930 . S
H1855 C1847 0.929 . S
H1856 C1864 0.929 . S
H1857 C1866 0.930 . S
H1858 C1868 0.930 . S
H1859 C1871 0.929 . S
H1860 C1874 0.930 . S
H1861 C1876 0.960 . S
H1862 C1876 0.960 . S
H1863 C1876 0.960 . S
C1864 H1856 0.929 . S
C1864 C1865 1.377 . S
C1864 C1866 1.384 . S
C1865 C1864 1.377 . S
C1865 C1871 1.390 . S
C1866 H1857 0.930 . S
C1866 C1864 1.384 . S
C1866 C1867 1.372 . S
C1867 C1866 1.372 . S
C1867 C1868 1.400 . S
C1867 C1872 1.490 . S
C1868 H1858 0.930 . S
C1868 C1867 1.400 . S
C1868 C1871 1.386 . S
H1869 C1885 0.930 . S
H1870 C1886 0.931 . S
C1871 H1859 0.929 . S
C1871 C1865 1.390 . S
C1871 C1868 1.386 . S
C1872 C1867 1.490 . S
C1872 C1874 1.395 . S
C1872 C1875 1.403 . S
H1873 C1879 0.930 . S
C1874 H1860 0.930 . S
C1874 C1872 1.395 . S
C1874 C1877 1.403 . S
C1875 C1872 1.403 . S
C1875 C1876 1.524 . S
C1875 C1879 1.400 . S
C1876 H1861 0.960 . S
C1876 H1862 0.960 . S
C1876 H1863 0.960 . S
C1876 C1875 1.524 . S
C1877 C1874 1.403 . S
C1877 C1878 1.392 . S
C1877 C1881 1.495 . S
C1878 C1877 1.392 . S
C1878 C1879 1.385 . S
C1878 C1880 1.478 . S
C1879 H1873 0.930 . S
C1879 C1875 1.400 . S
C1879 C1878 1.385 . S
C1880 C1878 1.478 . S
C1880 C1882 1.381 . S
C1880 C1886 1.383 . S
C1881 C1877 1.495 . S
C1881 H1887 0.959 . S
C1881 H1888 0.961 . S
C1881 H1889 0.960 . S
C1882 C1880 1.381 . S
C1882 C1883 1.394 . S
C1882 H1890 0.930 . S
C1883 C1882 1.394 . S
C1883 C1884 1.383 . S
C1883 H1891 0.929 . S
C1884 C1883 1.383 . S
C1884 C1885 1.377 . S
C1885 H1869 0.930 . S
C1885 C1884 1.377 . S
C1885 C1886 1.379 . S
C1886 H1870 0.931 . S
C1886 C1880 1.383 . S
C1886 C1885 1.379 . S
H1887 C1881 0.959 . S
H1888 C1881 0.961 . S
H1889 C1881 0.960 . S
H1890 C1882 0.930 . S
H1891 C1883 0.929 . S
H1892 C1900 0.929 . S
H1893 C1902 0.930 . S
H1894 C1904 0.930 . S
H1895 C1907 0.929 . S
H1896 C1910 0.930 . S
H1897 C1912 0.960 . S
H1898 C1912 0.960 . S
H1899 C1912 0.960 . S
C1900 H1892 0.929 . S
C1900 C1901 1.377 . S
C1900 C1902 1.384 . S
C1901 C1900 1.377 . S
C1901 C1907 1.390 . S
C1902 H1893 0.930 . S
C1902 C1900 1.384 . S
C1902 C1903 1.372 . S
C1903 C1902 1.372 . S
C1903 C1904 1.400 . S
C1903 C1908 1.490 . S
C1904 H1894 0.930 . S
C1904 C1903 1.400 . S
C1904 C1907 1.386 . S
H1905 C1921 0.930 . S
H1906 C1922 0.931 . S
C1907 H1895 0.929 . S
C1907 C1901 1.390 . S
C1907 C1904 1.386 . S
C1908 C1903 1.490 . S
C1908 C1910 1.395 . S
C1908 C1911 1.403 . S
H1909 C1915 0.930 . S
C1910 H1896 0.930 . S
C1910 C1908 1.395 . S
C1910 C1913 1.403 . S
C1911 C1908 1.403 . S
C1911 C1912 1.524 . S
C1911 C1915 1.400 . S
C1912 H1897 0.960 . S
C1912 H1898 0.960 . S
C1912 H1899 0.960 . S
C1912 C1911 1.524 . S
C1913 C1910 1.403 . S
C1913 C1914 1.392 . S
C1913 C1917 1.495 . S
C1914 C1913 1.392 . S
C1914 C1915 1.385 . S
C1914 C1916 1.478 . S
C1915 H1909 0.930 . S
C1915 C1911 1.400 . S
C1915 C1914 1.385 . S
C1916 C1914 1.478 . S
C1916 C1918 1.381 . S
C1916 C1922 1.383 . S
C1917 C1913 1.495 . S
C1917 H1923 0.959 . S
C1917 H1924 0.961 . S
C1917 H1925 0.960 . S
C1918 C1916 1.381 . S
C1918 C1919 1.394 . S
C1918 H1926 0.930 . S
C1919 C1918 1.394 . S
C1919 C1920 1.383 . S
C1919 H1927 0.929 . S
C1920 C1919 1.383 . S
C1920 C1921 1.377 . S
C1921 H1905 0.930 . S
C1921 C1920 1.377 . S
C1921 C1922 1.379 . S
C1922 H1906 0.931 . S
C1922 C1916 1.383 . S
C1922 C1921 1.379 . S
H1923 C1917 0.959 . S
H1924 C1917 0.961 . S
H1925 C1917 0.960 . S
H1926 C1918 0.930 . S
H1927 C1919 0.929 . S
H1928 C1936 0.929 . S
H1929 C1938 0.930 . S
H1930 C1940 0.930 . S
H1931 C1943 0.929 . S
H1932 C1946 0.930 . S
H1933 C1948 0.960 . S
H1934 C1948 0.960 . S
H1935 C1948 0.960 . S
C1936 H1928 0.929 . S
C1936 C1937 1.377 . S
C1936 C1938 1.384 . S
C1937 C1936 1.377 . S
C1937 C1943 1.390 . S
C1938 H1929 0.930 . S
C1938 C1936 1.384 . S
C1938 C1939 1.372 . S
C1939 C1938 1.372 . S
C1939 C1940 1.400 . S
C1939 C1944 1.490 . S
C1940 H1930 0.930 . S
C1940 C1939 1.400 . S
C1940 C1943 1.386 . S
H1941 C1957 0.930 . S
H1942 C1958 0.931 . S
C1943 H1931 0.929 . S
C1943 C1937 1.390 . S
C1943 C1940 1.386 . S
C1944 C1939 1.490 . S
C1944 C1946 1.395 . S
C1944 C1947 1.403 . S
H1945 C1951 0.930 . S
C1946 H1932 0.930 . S
C1946 C1944 1.395 . S
C1946 C1949 1.403 . S
C1947 C1944 1.403 . S
C1947 C1948 1.524 . S
C1947 C1951 1.400 . S
C1948 H1933 0.960 . S
C1948 H1934 0.960 . S
C1948 H1935 0.960 . S
C1948 C1947 1.524 . S
C1949 C1946 1.403 . S
C1949 C1950 1.392 . S
C1949 C1953 1.495 . S
C1950 C1949 1.392 . S
C1950 C1951 1.385 . S
C1950 C1952 1.478 . S
C1951 H1945 0.930 . S
C1951 C1947 1.400 . S
C1951 C1950 1.385 . S
C1952 C1950 1.478 . S
C1952 C1954 1.381 . S
C1952 C1958 1.383 . S
C1953 C1949 1.495 . S
C1953 H1959 0.959 . S
C1953 H1960 0.961 . S
C1953 H1961 0.960 . S
C1954 C1952 1.381 . S
C1954 C1955 1.394 . S
C1954 H1962 0.930 . S
C1955 C1954 1.394 . S
C1955 C1956 1.383 . S
C1955 H1963 0.929 . S
C1956 C1955 1.383 . S
C1956 C1957 1.377 . S
C1957 H1941 0.930 . S
C1957 C1956 1.377 . S
C1957 C1958 1.379 . S
C1958 H1942 0.931 . S
C1958 C1952 1.383 . S
C1958 C1957 1.379 . S
H1959 C1953 0.959 . S
H1960 C1953 0.961 . S
H1961 C1953 0.960 . S
H1962 C1954 0.930 . S
H1963 C1955 0.929 . S
H1964 C1972 0.929 . S
H1965 C1974 0.930 . S
H1966 C1976 0.930 . S
H1967 C1979 0.929 . S
H1968 C1982 0.930 . S
H1969 C1984 0.960 . S
H1970 C1984 0.960 . S
H1971 C1984 0.960 . S
C1972 H1964 0.929 . S
C1972 C1973 1.377 . S
C1972 C1974 1.384 . S
C1973 C1972 1.377 . S
C1973 C1979 1.390 . S
C1974 H1965 0.930 . S
C1974 C1972 1.384 . S
C1974 C1975 1.372 . S
C1975 C1974 1.372 . S
C1975 C1976 1.400 . S
C1975 C1980 1.490 . S
C1976 H1966 0.930 . S
C1976 C1975 1.400 . S
C1976 C1979 1.386 . S
H1977 C1993 0.930 . S
H1978 C1994 0.931 . S
C1979 H1967 0.929 . S
C1979 C1973 1.390 . S
C1979 C1976 1.386 . S
C1980 C1975 1.490 . S
C1980 C1982 1.395 . S
C1980 C1983 1.403 . S
H1981 C1987 0.930 . S
C1982 H1968 0.930 . S
C1982 C1980 1.395 . S
C1982 C1985 1.403 . S
C1983 C1980 1.403 . S
C1983 C1984 1.524 . S
C1983 C1987 1.400 . S
C1984 H1969 0.960 . S
C1984 H1970 0.960 . S
C1984 H1971 0.960 . S
C1984 C1983 1.524 . S
C1985 C1982 1.403 . S
C1985 C1986 1.392 . S
C1985 C1989 1.495 . S
C1986 C1985 1.392 . S
C1986 C1987 1.385 . S
C1986 C1988 1.478 . S
C1987 H1981 0.930 . S
C1987 C1983 1.400 . S
C1987 C1986 1.385 . S
C1988 C1986 1.478 . S
C1988 C1990 1.381 . S
C1988 C1994 1.383 . S
C1989 C1985 1.495 . S
C1989 H1995 0.959 . S
C1989 H1996 0.961 . S
C1989 H1997 0.960 . S
C1990 C1988 1.381 . S
C1990 C1991 1.394 . S
C1990 H1998 0.930 . S
C1991 C1990 1.394 . S
C1991 C1992 1.383 . S
C1991 H1999 0.929 . S
C1992 C1991 1.383 . S
C1992 C1993 1.377 . S
C1993 H1977 0.930 . S
C1993 C1992 1.377 . S
C1993 C1994 1.379 . S
C1994 H1978 0.931 . S
C1994 C1988 1.383 . S
C1994 C1993 1.379 . S
H1995 C1989 0.959 . S
H1996 C1989 0.961 . S
H1997 C1989 0.960 . S
H1998 C1990 0.930 . S
H1999 C1991 0.929 . S
H2000 C2008 0.929 . S
H2001 C2010 0.930 . S
H2002 C2012 0.930 . S
H2003 C2015 0.929 . S
H2004 C2018 0.930 . S
H2005 C2020 0.960 . S
H2006 C2020 0.960 . S
H2007 C2020 0.960 . S
C2008 H2000 0.929 . S
C2008 C2009 1.377 . S
C2008 C2010 1.384 . S
C2009 C2008 1.377 . S
C2009 C2015 1.390 . S
C2010 H2001 0.930 . S
C2010 C2008 1.384 . S
C2010 C2011 1.372 . S
C2011 C2010 1.372 . S
C2011 C2012 1.400 . S
C2011 C2016 1.490 . S
C2012 H2002 0.930 . S
C2012 C2011 1.400 . S
C2012 C2015 1.386 . S
H2013 C2029 0.930 . S
H2014 C2030 0.931 . S
C2015 H2003 0.929 . S
C2015 C2009 1.390 . S
C2015 C2012 1.386 . S
C2016 C2011 1.490 . S
C2016 C2018 1.395 . S
C2016 C2019 1.403 . S
H2017 C2023 0.930 . S
C2018 H2004 0.930 . S
C2018 C2016 1.395 . S
C2018 C2021 1.403 . S
C2019 C2016 1.403 . S
C2019 C2020 1.524 . S
C2019 C2023 1.400 . S
C2020 H2005 0.960 . S
C2020 H2006 0.960 . S
C2020 H2007 0.960 . S
C2020 C2019 1.524 . S
C2021 C2018 1.403 . S
C2021 C2022 1.392 . S
C2021 C2025 1.495 . S
C2022 C2021 1.392 . S
C2022 C2023 1.385 . S
C2022 C2024 1.478 . S
C2023 H2017 0.930 . S
C2023 C2019 1.400 . S
C2023 C2022 1.385 . S
C2024 C2022 1.478 . S
C2024 C2026 1.381 . S
C2024 C2030 1.383 . S
C2025 C2021 1.495 . S
C2025 H2031 0.959 . S
C2025 H2032 0.961 . S
C2025 H2033 0.960 . S
C2026 C2024 1.381 . S
C2026 C2027 1.394 . S
C2026 H2034 0.930 . S
C2027 C2026 1.394 . S
C2027 C2028 1.383 . S
C2027 H2035 0.929 . S
C2028 C2027 1.383 . S
C2028 C2029 1.377 . S
C2029 H2013 0.930 . S
C2029 C2028 1.377 . S
C2029 C2030 1.379 . S
C2030 H2014 0.931 . S
C2030 C2024 1.383 . S
C2030 C2029 1.379 . S
H2031 C2025 0.959 . S
H2032 C2025 0.961 . S
H2033 C2025 0.960 . S
H2034 C2026 0.930 . S
H2035 C2027 0.929 . S
H2036 C2044 0.929 . S
H2037 C2046 0.930 . S
H2038 C2048 0.930 . S
H2039 C2051 0.929 . S
H2040 C2054 0.930 . S
H2041 C2056 0.960 . S
H2042 C2056 0.960 . S
H2043 C2056 0.960 . S
C2044 H2036 0.929 . S
C2044 C2045 1.377 . S
C2044 C2046 1.384 . S
C2045 C2044 1.377 . S
C2045 C2051 1.390 . S
C2046 H2037 0.930 . S
C2046 C2044 1.384 . S
C2046 C2047 1.372 . S
C2047 C2046 1.372 . S
C2047 C2048 1.400 . S
C2047 C2052 1.490 . S
C2048 H2038 0.930 . S
C2048 C2047 1.400 . S
C2048 C2051 1.386 . S
H2049 C2065 0.930 . S
H2050 C2066 0.931 . S
C2051 H2039 0.929 . S
C2051 C2045 1.390 . S
C2051 C2048 1.386 . S
C2052 C2047 1.490 . S
C2052 C2054 1.395 . S
C2052 C2055 1.403 . S
H2053 C2059 0.930 . S
C2054 H2040 0.930 . S
C2054 C2052 1.395 . S
C2054 C2057 1.403 . S
C2055 C2052 1.403 . S
C2055 C2056 1.524 . S
C2055 C2059 1.400 . S
C2056 H2041 0.960 . S
C2056 H2042 0.960 . S
C2056 H2043 0.960 . S
C2056 C2055 1.524 . S
C2057 C2054 1.403 . S
C2057 C2058 1.392 . S
C2057 C2061 1.495 . S
C2058 C2057 1.392 . S
C2058 C2059 1.385 . S
C2058 C2060 1.478 . S
C2059 H2053 0.930 . S
C2059 C2055 1.400 . S
C2059 C2058 1.385 . S
C2060 C2058 1.478 . S
C2060 C2062 1.381 . S
C2060 C2066 1.383 . S
C2061 C2057 1.495 . S
C2061 H2067 0.959 . S
C2061 H2068 0.961 . S
C2061 H2069 0.960 . S
C2062 C2060 1.381 . S
C2062 C2063 1.394 . S
C2062 H2070 0.930 . S
C2063 C2062 1.394 . S
C2063 C2064 1.383 . S
C2063 H2071 0.929 . S
C2064 C2063 1.383 . S
C2064 C2065 1.377 . S
C2065 H2049 0.930 . S
C2065 C2064 1.377 . S
C2065 C2066 1.379 . S
C2066 H2050 0.931 . S
C2066 C2060 1.383 . S
C2066 C2065 1.379 . S
H2067 C2061 0.959 . S
H2068 C2061 0.961 . S
H2069 C2061 0.960 . S
H2070 C2062 0.930 . S
H2071 C2063 0.929 . S
H2072 C2080 0.929 . S
H2073 C2082 0.930 . S
H2074 C2084 0.930 . S
H2075 C2087 0.929 . S
H2076 C2090 0.930 . S
H2077 C2092 0.960 . S
H2078 C2092 0.960 . S
H2079 C2092 0.960 . S
C2080 H2072 0.929 . S
C2080 C2081 1.377 . S
C2080 C2082 1.384 . S
C2081 C2080 1.377 . S
C2081 C2087 1.390 . S
C2082 H2073 0.930 . S
C2082 C2080 1.384 . S
C2082 C2083 1.372 . S
C2083 C2082 1.372 . S
C2083 C2084 1.400 . S
C2083 C2088 1.490 . S
C2084 H2074 0.930 . S
C2084 C2083 1.400 . S
C2084 C2087 1.386 . S
H2085 C2101 0.930 . S
H2086 C2102 0.931 . S
C2087 H2075 0.929 . S
C2087 C2081 1.390 . S
C2087 C2084 1.386 . S
C2088 C2083 1.490 . S
C2088 C2090 1.395 . S
C2088 C2091 1.403 . S
H2089 C2095 0.930 . S
C2090 H2076 0.930 . S
C2090 C2088 1.395 . S
C2090 C2093 1.403 . S
C2091 C2088 1.403 . S
C2091 C2092 1.524 . S
C2091 C2095 1.400 . S
C2092 H2077 0.960 . S
C2092 H2078 0.960 . S
C2092 H2079 0.960 . S
C2092 C2091 1.524 . S
C2093 C2090 1.403 . S
C2093 C2094 1.392 . S
C2093 C2097 1.495 . S
C2094 C2093 1.392 . S
C2094 C2095 1.385 . S
C2094 C2096 1.478 . S
C2095 H2089 0.930 . S
C2095 C2091 1.400 . S
C2095 C2094 1.385 . S
C2096 C2094 1.478 . S
C2096 C2098 1.381 . S
C2096 C2102 1.383 . S
C2097 C2093 1.495 . S
C2097 H2103 0.959 . S
C2097 H2104 0.961 . S
C2097 H2105 0.960 . S
C2098 C2096 1.381 . S
C2098 C2099 1.394 . S
C2098 H2106 0.930 . S
C2099 C2098 1.394 . S
C2099 C2100 1.383 . S
C2099 H2107 0.929 . S
C2100 C2099 1.383 . S
C2100 C2101 1.377 . S
C2101 H2085 0.930 . S
C2101 C2100 1.377 . S
C2101 C2102 1.379 . S
C2102 H2086 0.931 . S
C2102 C2096 1.383 . S
C2102 C2101 1.379 . S
H2103 C2097 0.959 . S
H2104 C2097 0.961 . S
H2105 C2097 0.960 . S
H2106 C2098 0.930 . S
H2107 C2099 0.929 . S
H2108 C2116 0.929 . S
H2109 C2118 0.930 . S
H2110 C2120 0.930 . S
H2111 C2123 0.929 . S
H2112 C2126 0.930 . S
H2113 C2128 0.960 . S
H2114 C2128 0.960 . S
H2115 C2128 0.960 . S
C2116 H2108 0.929 . S
C2116 C2117 1.377 . S
C2116 C2118 1.384 . S
C2117 C2116 1.377 . S
C2117 C2123 1.390 . S
C2118 H2109 0.930 . S
C2118 C2116 1.384 . S
C2118 C2119 1.372 . S
C2119 C2118 1.372 . S
C2119 C2120 1.400 . S
C2119 C2124 1.490 . S
C2120 H2110 0.930 . S
C2120 C2119 1.400 . S
C2120 C2123 1.386 . S
H2121 C2137 0.930 . S
H2122 C2138 0.931 . S
C2123 H2111 0.929 . S
C2123 C2117 1.390 . S
C2123 C2120 1.386 . S
C2124 C2119 1.490 . S
C2124 C2126 1.395 . S
C2124 C2127 1.403 . S
H2125 C2131 0.930 . S
C2126 H2112 0.930 . S
C2126 C2124 1.395 . S
C2126 C2129 1.403 . S
C2127 C2124 1.403 . S
C2127 C2128 1.524 . S
C2127 C2131 1.400 . S
C2128 H2113 0.960 . S
C2128 H2114 0.960 . S
C2128 H2115 0.960 . S
C2128 C2127 1.524 . S
C2129 C2126 1.403 . S
C2129 C2130 1.392 . S
C2129 C2133 1.495 . S
C2130 C2129 1.392 . S
C2130 C2131 1.385 . S
C2130 C2132 1.478 . S
C2131 H2125 0.930 . S
C2131 C2127 1.400 . S
C2131 C2130 1.385 . S
C2132 C2130 1.478 . S
C2132 C2134 1.381 . S
C2132 C2138 1.383 . S
C2133 C2129 1.495 . S
C2133 H2139 0.959 . S
C2133 H2140 0.961 . S
C2133 H2141 0.960 . S
C2134 C2132 1.381 . S
C2134 C2135 1.394 . S
C2134 H2142 0.930 . S
C2135 C2134 1.394 . S
C2135 C2136 1.383 . S
C2135 H2143 0.929 . S
C2136 C2135 1.383 . S
C2136 C2137 1.377 . S
C2137 H2121 0.930 . S
C2137 C2136 1.377 . S
C2137 C2138 1.379 . S
C2138 H2122 0.931 . S
C2138 C2132 1.383 . S
C2138 C2137 1.379 . S
H2139 C2133 0.959 . S
H2140 C2133 0.961 . S
H2141 C2133 0.960 . S
H2142 C2134 0.930 . S
H2143 C2135 0.929 . S
H2144 C2152 0.929 . S
H2145 C2154 0.930 . S
H2146 C2156 0.930 . S
H2147 C2159 0.929 . S
H2148 C2162 0.930 . S
H2149 C2164 0.960 . S
H2150 C2164 0.960 . S
H2151 C2164 0.960 . S
C2152 H2144 0.929 . S
C2152 C2153 1.377 . S
C2152 C2154 1.384 . S
C2153 C2152 1.377 . S
C2153 C2159 1.390 . S
C2154 H2145 0.930 . S
C2154 C2152 1.384 . S
C2154 C2155 1.372 . S
C2155 C2154 1.372 . S
C2155 C2156 1.400 . S
C2155 C2160 1.490 . S
C2156 H2146 0.930 . S
C2156 C2155 1.400 . S
C2156 C2159 1.386 . S
H2157 C2173 0.930 . S
H2158 C2174 0.931 . S
C2159 H2147 0.929 . S
C2159 C2153 1.390 . S
C2159 C2156 1.386 . S
C2160 C2155 1.490 . S
C2160 C2162 1.395 . S
C2160 C2163 1.403 . S
H2161 C2167 0.930 . S
C2162 H2148 0.930 . S
C2162 C2160 1.395 . S
C2162 C2165 1.403 . S
C2163 C2160 1.403 . S
C2163 C2164 1.524 . S
C2163 C2167 1.400 . S
C2164 H2149 0.960 . S
C2164 H2150 0.960 . S
C2164 H2151 0.960 . S
C2164 C2163 1.524 . S
C2165 C2162 1.403 . S
C2165 C2166 1.392 . S
C2165 C2169 1.495 . S
C2166 C2165 1.392 . S
C2166 C2167 1.385 . S
C2166 C2168 1.478 . S
C2167 H2161 0.930 . S
C2167 C2163 1.400 . S
C2167 C2166 1.385 . S
C2168 C2166 1.478 . S
C2168 C2170 1.381 . S
C2168 C2174 1.383 . S
C2169 C2165 1.495 . S
C2169 H2175 0.959 . S
C2169 H2176 0.961 . S
C2169 H2177 0.960 . S
C2170 C2168 1.381 . S
C2170 C2171 1.394 . S
C2170 H2178 0.930 . S
C2171 C2170 1.394 . S
C2171 C2172 1.383 . S
C2171 H2179 0.929 . S
C2172 C2171 1.383 . S
C2172 C2173 1.377 . S
C2173 H2157 0.930 . S
C2173 C2172 1.377 . S
C2173 C2174 1.379 . S
C2174 H2158 0.931 . S
C2174 C2168 1.383 . S
C2174 C2173 1.379 . S
H2175 C2169 0.959 . S
H2176 C2169 0.961 . S
H2177 C2169 0.960 . S
H2178 C2170 0.930 . S
H2179 C2171 0.929 . S
H2180 C2188 0.929 . S
H2181 C2190 0.930 . S
H2182 C2192 0.930 . S
H2183 C2195 0.929 . S
H2184 C2198 0.930 . S
H2185 C2200 0.960 . S
H2186 C2200 0.960 . S
H2187 C2200 0.960 . S
C2188 H2180 0.929 . S
C2188 C2189 1.377 . S
C2188 C2190 1.384 . S
C2189 C2188 1.377 . S
C2189 C2195 1.390 . S
C2190 H2181 0.930 . S
C2190 C2188 1.384 . S
C2190 C2191 1.372 . S
C2191 C2190 1.372 . S
C2191 C2192 1.400 . S
C2191 C2196 1.490 . S
C2192 H2182 0.930 . S
C2192 C2191 1.400 . S
C2192 C2195 1.386 . S
H2193 C2209 0.930 . S
H2194 C2210 0.931 . S
C2195 H2183 0.929 . S
C2195 C2189 1.390 . S
C2195 C2192 1.386 . S
C2196 C2191 1.490 . S
C2196 C2198 1.395 . S
C2196 C2199 1.403 . S
H2197 C2203 0.930 . S
C2198 H2184 0.930 . S
C2198 C2196 1.395 . S
C2198 C2201 1.403 . S
C2199 C2196 1.403 . S
C2199 C2200 1.524 . S
C2199 C2203 1.400 . S
C2200 H2185 0.960 . S
C2200 H2186 0.960 . S
C2200 H2187 0.960 . S
C2200 C2199 1.524 . S
C2201 C2198 1.403 . S
C2201 C2202 1.392 . S
C2201 C2205 1.495 . S
C2202 C2201 1.392 . S
C2202 C2203 1.385 . S
C2202 C2204 1.478 . S
C2203 H2197 0.930 . S
C2203 C2199 1.400 . S
C2203 C2202 1.385 . S
C2204 C2202 1.478 . S
C2204 C2206 1.381 . S
C2204 C2210 1.383 . S
C2205 C2201 1.495 . S
C2205 H2211 0.959 . S
C2205 H2212 0.961 . S
C2205 H2213 0.960 . S
C2206 C2204 1.381 . S
C2206 C2207 1.394 . S
C2206 H2214 0.930 . S
C2207 C2206 1.394 . S
C2207 C2208 1.383 . S
C2207 H2215 0.929 . S
C2208 C2207 1.383 . S
C2208 C2209 1.377 . S
C2209 H2193 0.930 . S
C2209 C2208 1.377 . S
C2209 C2210 1.379 . S
C2210 H2194 0.931 . S
C2210 C2204 1.383 . S
C2210 C2209 1.379 . S
H2211 C2205 0.959 . S
H2212 C2205 0.961 . S
H2213 C2205 0.960 . S
H2214 C2206 0.930 . S
H2215 C2207 0.929 . S
H2216 C2224 0.929 . S
H2217 C2226 0.930 . S
H2218 C2228 0.930 . S
H2219 C2231 0.929 . S
H2220 C2234 0.930 . S
H2221 C2236 0.960 . S
H2222 C2236 0.960 . S
H2223 C2236 0.960 . S
C2224 H2216 0.929 . S
C2224 C2225 1.377 . S
C2224 C2226 1.384 . S
C2225 C2224 1.377 . S
C2225 C2231 1.390 . S
C2226 H2217 0.930 . S
C2226 C2224 1.384 . S
C2226 C2227 1.372 . S
C2227 C2226 1.372 . S
C2227 C2228 1.400 . S
C2227 C2232 1.490 . S
C2228 H2218 0.930 . S
C2228 C2227 1.400 . S
C2228 C2231 1.386 . S
H2229 C2245 0.930 . S
H2230 C2246 0.931 . S
C2231 H2219 0.929 . S
C2231 C2225 1.390 . S
C2231 C2228 1.386 . S
C2232 C2227 1.490 . S
C2232 C2234 1.395 . S
C2232 C2235 1.403 . S
H2233 C2239 0.930 . S
C2234 H2220 0.930 . S
C2234 C2232 1.395 . S
C2234 C2237 1.403 . S
C2235 C2232 1.403 . S
C2235 C2236 1.524 . S
C2235 C2239 1.400 . S
C2236 H2221 0.960 . S
C2236 H2222 0.960 . S
C2236 H2223 0.960 . S
C2236 C2235 1.524 . S
C2237 C2234 1.403 . S
C2237 C2238 1.392 . S
C2237 C2241 1.495 . S
C2238 C2237 1.392 . S
C2238 C2239 1.385 . S
C2238 C2240 1.478 . S
C2239 H2233 0.930 . S
C2239 C2235 1.400 . S
C2239 C2238 1.385 . S
C2240 C2238 1.478 . S
C2240 C2242 1.381 . S
C2240 C2246 1.383 . S
C2241 C2237 1.495 . S
C2241 H2247 0.959 . S
C2241 H2248 0.961 . S
C2241 H2249 0.960 . S
C2242 C2240 1.381 . S
C2242 C2243 1.394 . S
C2242 H2250 0.930 . S
C2243 C2242 1.394 . S
C2243 C2244 1.383 . S
C2243 H2251 0.929 . S
C2244 C2243 1.383 . S
C2244 C2245 1.377 . S
C2245 H2229 0.930 . S
C2245 C2244 1.377 . S
C2245 C2246 1.379 . S
C2246 H2230 0.931 . S
C2246 C2240 1.383 . S
C2246 C2245 1.379 . S
H2247 C2241 0.959 . S
H2248 C2241 0.961 . S
H2249 C2241 0.960 . S
H2250 C2242 0.930 . S
H2251 C2243 0.929 . S
H2252 C2260 0.929 . S
H2253 C2262 0.930 . S
H2254 C2264 0.930 . S
H2255 C2267 0.929 . S
H2256 C2270 0.930 . S
H2257 C2272 0.960 . S
H2258 C2272 0.960 . S
H2259 C2272 0.960 . S
C2260 H2252 0.929 . S
C2260 C2261 1.377 . S
C2260 C2262 1.384 . S
C2261 C2260 1.377 . S
C2261 C2267 1.390 . S
C2262 H2253 0.930 . S
C2262 C2260 1.384 . S
C2262 C2263 1.372 . S
C2263 C2262 1.372 . S
C2263 C2264 1.400 . S
C2263 C2268 1.490 . S
C2264 H2254 0.930 . S
C2264 C2263 1.400 . S
C2264 C2267 1.386 . S
H2265 C2281 0.930 . S
H2266 C2282 0.931 . S
C2267 H2255 0.929 . S
C2267 C2261 1.390 . S
C2267 C2264 1.386 . S
C2268 C2263 1.490 . S
C2268 C2270 1.395 . S
C2268 C2271 1.403 . S
H2269 C2275 0.930 . S
C2270 H2256 0.930 . S
C2270 C2268 1.395 . S
C2270 C2273 1.403 . S
C2271 C2268 1.403 . S
C2271 C2272 1.524 . S
C2271 C2275 1.400 . S
C2272 H2257 0.960 . S
C2272 H2258 0.960 . S
C2272 H2259 0.960 . S
C2272 C2271 1.524 . S
C2273 C2270 1.403 . S
C2273 C2274 1.392 . S
C2273 C2277 1.495 . S
C2274 C2273 1.392 . S
C2274 C2275 1.385 . S
C2274 C2276 1.478 . S
C2275 H2269 0.930 . S
C2275 C2271 1.400 . S
C2275 C2274 1.385 . S
C2276 C2274 1.478 . S
C2276 C2278 1.381 . S
C2276 C2282 1.383 . S
C2277 C2273 1.495 . S
C2277 H2283 0.959 . S
C2277 H2284 0.961 . S
C2277 H2285 0.960 . S
C2278 C2276 1.381 . S
C2278 C2279 1.394 . S
C2278 H2286 0.930 . S
C2279 C2278 1.394 . S
C2279 C2280 1.383 . S
C2279 H2287 0.929 . S
C2280 C2279 1.383 . S
C2280 C2281 1.377 . S
C2281 H2265 0.930 . S
C2281 C2280 1.377 . S
C2281 C2282 1.379 . S
C2282 H2266 0.931 . S
C2282 C2276 1.383 . S
C2282 C2281 1.379 . S
H2283 C2277 0.959 . S
H2284 C2277 0.961 . S
H2285 C2277 0.960 . S
H2286 C2278 0.930 . S
H2287 C2279 0.929 . S
H2288 C2296 0.929 . S
H2289 C2298 0.930 . S
H2290 C2300 0.930 . S
H2291 C2303 0.929 . S
H2292 C2306 0.930 . S
H2293 C2308 0.960 . S
H2294 C2308 0.960 . S
H2295 C2308 0.960 . S
C2296 H2288 0.929 . S
C2296 C2297 1.377 . S
C2296 C2298 1.384 . S
C2297 C2296 1.377 . S
C2297 C2303 1.390 . S
C2298 H2289 0.930 . S
C2298 C2296 1.384 . S
C2298 C2299 1.372 . S
C2299 C2298 1.372 . S
C2299 C2300 1.400 . S
C2299 C2304 1.490 . S
C2300 H2290 0.930 . S
C2300 C2299 1.400 . S
C2300 C2303 1.386 . S
H2301 C2317 0.930 . S
H2302 C2318 0.931 . S
C2303 H2291 0.929 . S
C2303 C2297 1.390 . S
C2303 C2300 1.386 . S
C2304 C2299 1.490 . S
C2304 C2306 1.395 . S
C2304 C2307 1.403 . S
H2305 C2311 0.930 . S
C2306 H2292 0.930 . S
C2306 C2304 1.395 . S
C2306 C2309 1.403 . S
C2307 C2304 1.403 . S
C2307 C2308 1.524 . S
C2307 C2311 1.400 . S
C2308 H2293 0.960 . S
C2308 H2294 0.960 . S
C2308 H2295 0.960 . S
C2308 C2307 1.524 . S
C2309 C2306 1.403 . S
C2309 C2310 1.392 . S
C2309 C2313 1.495 . S
C2310 C2309 1.392 . S
C2310 C2311 1.385 . S
C2310 C2312 1.478 . S
C2311 H2305 0.930 . S
C2311 C2307 1.400 . S
C2311 C2310 1.385 . S
C2312 C2310 1.478 . S
C2312 C2314 1.381 . S
C2312 C2318 1.383 . S
C2313 C2309 1.495 . S
C2313 H2319 0.959 . S
C2313 H2320 0.961 . S
C2313 H2321 0.960 . S
C2314 C2312 1.381 . S
C2314 C2315 1.394 . S
C2314 H2322 0.930 . S
C2315 C2314 1.394 . S
C2315 C2316 1.383 . S
C2315 H2323 0.929 . S
C2316 C2315 1.383 . S
C2316 C2317 1.377 . S
C2317 H2301 0.930 . S
C2317 C2316 1.377 . S
C2317 C2318 1.379 . S
C2318 H2302 0.931 . S
C2318 C2312 1.383 . S
C2318 C2317 1.379 . S
H2319 C2313 0.959 . S
H2320 C2313 0.961 . S
H2321 C2313 0.960 . S
H2322 C2314 0.930 . S
H2323 C2315 0.929 . S
C624 C301 1.367 . S
C605 N2 1.338 . S
C660 C339 2.639 . S
C641 C7 2.671 . S
C696 C360 1.599 . S
C677 N12 1.499 . S
C713 C16 1.953 . S
C732 C398 1.973 . S
C768 C438 2.731 . S
C749 C30 2.735 1_565 S
C804 C501 1.425 . S
C785 N35 1.365 . S
C821 C39 2.113 . S
C840 C539 2.090 . S
C876 C560 1.237 . S
C857 N25 1.158 . S
C912 C307 1.133 . S
C893 N58 1.089 . S
C929 N81 1.870 . S
C948 C336 1.882 . S
C984 C379 1.310 . S
C965 N104 1.260 . S
C1001 N127 1.044 . S
C1020 C421 1.054 . S
C1056 C461 0.639 . S
C1037 N48 0.677 . S
C1092 C507 1.611 . S
C1073 N71 1.561 1_556 S
C1109 N94 1.186 . S
C1128 C536 1.156 . S
C1164 C579 1.879 . S
C1145 N117 1.886 . S
C1181 C85 2.393 . S
C1200 C278 2.364 . S
C1217 C122 2.357 . S
C1236 C467 2.332 . S
C1253 C53 1.852 . S
C1272 C478 1.813 . S
C1308 C520 1.315 . S
C1289 C76 1.343 1_655 S
C1344 C576 1.688 . S
C1325 C99 1.700 . S
C1380 C376 2.003 . S
C1361 C131 1.975 . S
C1416 C427 1.547 . S
C1397 C62 1.569 1_565 S
C1433 C108 0.943 . S
C1452 C320 0.961 . S
C1488 C581 1.422 . S
C1469 N140 1.391 . S
C1505 C145 2.666 . S
C1524 C459 2.632 . S
C1560 C480 1.520 . S
C1541 N150 1.408 . S
C1577 C154 1.957 . S
C1596 C518 1.979 . S
C1632 C318 2.735 . S
C1613 C168 2.740 . S
C1649 N173 1.274 . S
C1668 C381 1.324 . S
C1704 C419 2.092 . S
C1685 C177 2.118 . S
C1740 C280 1.279 . S
C1721 N163 1.223 . S
C1776 C587 1.591 . S
C1757 C200 1.584 . S
C1812 C456 2.197 . S
C1793 N219 2.169 . S
C1829 N242 1.505 . S
C1848 C499 1.550 . S
C1884 C541 1.312 . S
C1865 C269 1.347 . S
C1920 C341 0.945 . S
C1901 C191 0.970 . S
C1937 N209 1.808 . S
C1956 C387 1.850 . S
C1973 N232 1.495 . S
C1992 C416 1.477 . S
C2009 C260 2.411 . S
C2028 C299 2.386 . S
C2045 C223 2.097 . S
C2064 C558 2.079 . S
C2081 N255 1.892 . S
C2100 C347 1.927 . S
C2117 N186 1.357 . S
C2136 C358 1.397 . S
C2172 C400 1.003 . S
C2153 C214 1.033 . S
C2208 C296 1.386 . S
C2189 C237 1.379 . S
C2244 C496 1.577 . S
C2225 N265 1.503 . S
C2280 C547 1.182 . S
C2261 N196 1.181 . S
C2316 C440 0.615 . S
C2297 C246 0.646 . S
