# Generated by pormake.
# Topology eea, (3,6)-cn, num edge types: 1
# Building blocks:
#     Node 0, Type 0, BuildingBlock: OLANEW_clean_sbu_2, # of connection points: 3
#     Node 1, Type 0, BuildingBlock: OLANEW_clean_sbu_2, # of connection points: 3
#     Node 2, Type 0, BuildingBlock: OLANEW_clean_sbu_2, # of connection points: 3
#     Node 3, Type 0, BuildingBlock: OLANEW_clean_sbu_2, # of connection points: 3
#     Node 4, Type 0, BuildingBlock: OLANEW_clean_sbu_2, # of connection points: 3
#     Node 5, Type 0, BuildingBlock: OLANEW_clean_sbu_2, # of connection points: 3
#     Node 6, Type 0, BuildingBlock: OLANEW_clean_sbu_2, # of connection points: 3
#     Node 7, Type 0, BuildingBlock: OLANEW_clean_sbu_2, # of connection points: 3
#     Node 8, Type 0, BuildingBlock: OLANEW_clean_sbu_2, # of connection points: 3
#     Node 9, Type 0, BuildingBlock: OLANEW_clean_sbu_2, # of connection points: 3
#     Node 10, Type 0, BuildingBlock: OLANEW_clean_sbu_2, # of connection points: 3
#     Node 11, Type 0, BuildingBlock: OLANEW_clean_sbu_2, # of connection points: 3
#     Node 12, Type 0, BuildingBlock: OLANEW_clean_sbu_2, # of connection points: 3
#     Node 13, Type 0, BuildingBlock: OLANEW_clean_sbu_2, # of connection points: 3
#     Node 14, Type 0, BuildingBlock: OLANEW_clean_sbu_2, # of connection points: 3
#     Node 15, Type 0, BuildingBlock: OLANEW_clean_sbu_2, # of connection points: 3
#     Node 16, Type 0, BuildingBlock: OLANEW_clean_sbu_2, # of connection points: 3
#     Node 17, Type 0, BuildingBlock: OLANEW_clean_sbu_2, # of connection points: 3
#     Node 18, Type 1, BuildingBlock: CUWYAW_clean_sbu_0, # of connection points: 6
#     Node 19, Type 1, BuildingBlock: CUWYAW_clean_sbu_0, # of connection points: 6
#     Node 20, Type 1, BuildingBlock: CUWYAW_clean_sbu_0, # of connection points: 6
#     Node 21, Type 1, BuildingBlock: CUWYAW_clean_sbu_0, # of connection points: 6
#     Node 22, Type 1, BuildingBlock: CUWYAW_clean_sbu_0, # of connection points: 6
#     Node 23, Type 1, BuildingBlock: CUWYAW_clean_sbu_0, # of connection points: 6
#     Node 24, Type 1, BuildingBlock: CUWYAW_clean_sbu_0, # of connection points: 6
#     Node 25, Type 1, BuildingBlock: CUWYAW_clean_sbu_0, # of connection points: 6
#     Node 26, Type 1, BuildingBlock: CUWYAW_clean_sbu_0, # of connection points: 6
#     Edge 27, Type (0, 1), BuildingBlock: CIFDUS_clean_linker_0, # of connection points: 2
#     Edge 28, Type (0, 1), BuildingBlock: CIFDUS_clean_linker_0, # of connection points: 2
#     Edge 29, Type (0, 1), BuildingBlock: CIFDUS_clean_linker_0, # of connection points: 2
#     Edge 30, Type (0, 1), BuildingBlock: CIFDUS_clean_linker_0, # of connection points: 2
#     Edge 31, Type (0, 1), BuildingBlock: CIFDUS_clean_linker_0, # of connection points: 2
#     Edge 32, Type (0, 1), BuildingBlock: CIFDUS_clean_linker_0, # of connection points: 2
#     Edge 33, Type (0, 1), BuildingBlock: CIFDUS_clean_linker_0, # of connection points: 2
#     Edge 34, Type (0, 1), BuildingBlock: CIFDUS_clean_linker_0, # of connection points: 2
#     Edge 35, Type (0, 1), BuildingBlock: CIFDUS_clean_linker_0, # of connection points: 2
#     Edge 36, Type (0, 1), BuildingBlock: CIFDUS_clean_linker_0, # of connection points: 2
#     Edge 37, Type (0, 1), BuildingBlock: CIFDUS_clean_linker_0, # of connection points: 2
#     Edge 38, Type (0, 1), BuildingBlock: CIFDUS_clean_linker_0, # of connection points: 2
#     Edge 39, Type (0, 1), BuildingBlock: CIFDUS_clean_linker_0, # of connection points: 2
#     Edge 40, Type (0, 1), BuildingBlock: CIFDUS_clean_linker_0, # of connection points: 2
#     Edge 41, Type (0, 1), BuildingBlock: CIFDUS_clean_linker_0, # of connection points: 2
#     Edge 42, Type (0, 1), BuildingBlock: CIFDUS_clean_linker_0, # of connection points: 2
#     Edge 43, Type (0, 1), BuildingBlock: CIFDUS_clean_linker_0, # of connection points: 2
#     Edge 44, Type (0, 1), BuildingBlock: CIFDUS_clean_linker_0, # of connection points: 2
#     Edge 45, Type (0, 1), BuildingBlock: CIFDUS_clean_linker_0, # of connection points: 2
#     Edge 46, Type (0, 1), BuildingBlock: CIFDUS_clean_linker_0, # of connection points: 2
#     Edge 47, Type (0, 1), BuildingBlock: CIFDUS_clean_linker_0, # of connection points: 2
#     Edge 48, Type (0, 1), BuildingBlock: CIFDUS_clean_linker_0, # of connection points: 2
#     Edge 49, Type (0, 1), BuildingBlock: CIFDUS_clean_linker_0, # of connection points: 2
#     Edge 50, Type (0, 1), BuildingBlock: CIFDUS_clean_linker_0, # of connection points: 2
#     Edge 51, Type (0, 1), BuildingBlock: CIFDUS_clean_linker_0, # of connection points: 2
#     Edge 52, Type (0, 1), BuildingBlock: CIFDUS_clean_linker_0, # of connection points: 2
#     Edge 53, Type (0, 1), BuildingBlock: CIFDUS_clean_linker_0, # of connection points: 2
#     Edge 54, Type (0, 1), BuildingBlock: CIFDUS_clean_linker_0, # of connection points: 2
#     Edge 55, Type (0, 1), BuildingBlock: CIFDUS_clean_linker_0, # of connection points: 2
#     Edge 56, Type (0, 1), BuildingBlock: CIFDUS_clean_linker_0, # of connection points: 2
#     Edge 57, Type (0, 1), BuildingBlock: CIFDUS_clean_linker_0, # of connection points: 2
#     Edge 58, Type (0, 1), BuildingBlock: CIFDUS_clean_linker_0, # of connection points: 2
#     Edge 59, Type (0, 1), BuildingBlock: CIFDUS_clean_linker_0, # of connection points: 2
#     Edge 60, Type (0, 1), BuildingBlock: CIFDUS_clean_linker_0, # of connection points: 2
#     Edge 61, Type (0, 1), BuildingBlock: CIFDUS_clean_linker_0, # of connection points: 2
#     Edge 62, Type (0, 1), BuildingBlock: CIFDUS_clean_linker_0, # of connection points: 2
#     Edge 63, Type (0, 1), BuildingBlock: CIFDUS_clean_linker_0, # of connection points: 2
#     Edge 64, Type (0, 1), BuildingBlock: CIFDUS_clean_linker_0, # of connection points: 2
#     Edge 65, Type (0, 1), BuildingBlock: CIFDUS_clean_linker_0, # of connection points: 2
#     Edge 66, Type (0, 1), BuildingBlock: CIFDUS_clean_linker_0, # of connection points: 2
#     Edge 67, Type (0, 1), BuildingBlock: CIFDUS_clean_linker_0, # of connection points: 2
#     Edge 68, Type (0, 1), BuildingBlock: CIFDUS_clean_linker_0, # of connection points: 2
#     Edge 69, Type (0, 1), BuildingBlock: CIFDUS_clean_linker_0, # of connection points: 2
#     Edge 70, Type (0, 1), BuildingBlock: CIFDUS_clean_linker_0, # of connection points: 2
#     Edge 71, Type (0, 1), BuildingBlock: CIFDUS_clean_linker_0, # of connection points: 2
#     Edge 72, Type (0, 1), BuildingBlock: CIFDUS_clean_linker_0, # of connection points: 2
#     Edge 73, Type (0, 1), BuildingBlock: CIFDUS_clean_linker_0, # of connection points: 2
#     Edge 74, Type (0, 1), BuildingBlock: CIFDUS_clean_linker_0, # of connection points: 2
#     Edge 75, Type (0, 1), BuildingBlock: CIFDUS_clean_linker_0, # of connection points: 2
#     Edge 76, Type (0, 1), BuildingBlock: CIFDUS_clean_linker_0, # of connection points: 2
#     Edge 77, Type (0, 1), BuildingBlock: CIFDUS_clean_linker_0, # of connection points: 2
#     Edge 78, Type (0, 1), BuildingBlock: CIFDUS_clean_linker_0, # of connection points: 2
#     Edge 79, Type (0, 1), BuildingBlock: CIFDUS_clean_linker_0, # of connection points: 2
#     Edge 80, Type (0, 1), BuildingBlock: CIFDUS_clean_linker_0, # of connection points: 2
# Relax obj value: 0.027
# Max RMSD: 0.198
# Mean RMSD: 0.132
data_MOF--net-eea--node1-OLANEW_clean_sbu_2--node2-CUWYAW_clean_sbu_0--edge1-CIFDUS_clean_linker_0
_symmetry_space_group_name_H-M    P1
_symmetry_Int_Tables_number       1
_symmetry_cell_setting            triclinic
loop_
_symmetry_equiv_pos_as_xyz
'x, y, z'
_cell_length_a     53.750144
_cell_length_b     51.920602
_cell_length_c     63.844448
_cell_angle_alpha  96.423402
_cell_angle_beta   93.420298
_cell_angle_gamma 120.34399
loop_
_atom_site_label
_atom_site_type_symbol
_atom_site_fract_x
_atom_site_fract_y
_atom_site_fract_z
_atom_type_partial_charge
O0 O 0.25153 0.15753 0.4512 0.0
Cd1 Cd 0.22482 0.14449 0.41549 0.0
O2 O 0.28867 0.15577 0.44012 0.0
Cd3 Cd 0.26602 0.13576 0.4079 0.0
O4 O 0.23988 0.09158 0.38781 0.0
C5 C 0.24762 0.07274 0.39096 0.0
O6 O 0.27074 0.08175 0.40475 0.0
C7 C 0.27646 0.16065 0.45525 0.0
C8 C 0.22362 0.19242 0.40049 0.0
O9 O 0.20542 0.17674 0.41259 0.0
O10 O 0.24278 0.18579 0.39574 0.0
O11 O 0.88932 0.19929 0.44554 0.0
Cd12 Cd 0.90055 0.20548 0.40939 0.0
O13 O 0.87583 0.15283 0.43253 0.0
Cd14 Cd 0.85444 0.10389 0.43045 0.0
O15 O 0.83055 0.05557 0.41851 0.0
C16 C 0.80294 0.04097 0.41661 0.0
O17 O 0.78959 0.05524 0.42283 0.0
C18 C 0.87857 0.17196 0.44815 0.0
C19 C 0.95959 0.23307 0.40617 0.0
O20 O 0.94658 0.24804 0.40602 0.0
O21 O 0.94482 0.20513 0.40815 0.0
O22 O 0.91021 0.78371 0.46084 0.0
Cd23 Cd 0.91633 0.80945 0.43007 0.0
O24 O 0.87021 0.74222 0.44532 0.0
Cd25 Cd 0.86572 0.76148 0.41778 0.0
O26 O 0.83867 0.77428 0.40031 0.0
C27 C 0.82624 0.78491 0.41165 0.0
O28 O 0.83172 0.78875 0.43247 0.0
C29 C 0.88982 0.75684 0.46127 0.0
C30 C 0.96155 0.81217 0.40926 0.0
O31 O 0.96648 0.83215 0.42526 0.0
O32 O 0.93514 0.7909 0.403 0.0
O33 O 0.15561 0.26379 0.59523 0.0
Cd34 Cd 0.14872 0.24178 0.62771 0.0
O35 O 0.12172 0.27387 0.6013 0.0
Cd36 Cd 0.08848 0.28646 0.60009 0.0
O37 O 0.04998 0.28216 0.61312 0.0
C38 C 0.02957 0.25523 0.61336 0.0
O39 O 0.0325 0.23276 0.60499 0.0
C40 C 0.14017 0.27453 0.58942 0.0
C41 C 0.19073 0.22689 0.63701 0.0
O42 O 0.16692 0.2081 0.62485 0.0
O43 O 0.19459 0.25269 0.64482 0.0
O44 O 0.75098 0.8585 0.61071 0.0
Cd45 Cd 0.76803 0.87202 0.64887 0.0
O46 O 0.78966 0.89783 0.60263 0.0
Cd47 Cd 0.8057 0.92001 0.63556 0.0
O48 O 0.81037 0.96004 0.65464 0.0
C49 C 0.78943 0.96445 0.65096 0.0
O50 O 0.7665 0.94398 0.63756 0.0
C51 C 0.76544 0.87332 0.5968 0.0
C52 C 0.79253 0.83896 0.66119 0.0
O53 O 0.76498 0.82794 0.65939 0.0
O54 O 0.80869 0.86585 0.65731 0.0
O55 O 0.11207 0.84557 0.59347 0.0
Cd56 Cd 0.10609 0.83909 0.63055 0.0
O57 O 0.13562 0.89548 0.59836 0.0
Cd58 Cd 0.14365 0.90553 0.633 0.0
O59 O 0.1796 0.94382 0.65468 0.0
C60 C 0.17822 0.96731 0.66019 0.0
O61 O 0.15404 0.96673 0.65442 0.0
C62 C 0.12385 0.8702 0.586 0.0
C63 C 0.04777 0.80245 0.63613 0.0
O64 O 0.06083 0.83132 0.64106 0.0
O65 O 0.0621 0.79088 0.62848 0.0
O66 O 0.92328 0.48645 0.77048 0.0
Cd67 Cd 0.91077 0.48415 0.7327 0.0
O68 O 0.94613 0.46232 0.76234 0.0
Cd69 Cd 0.93131 0.44951 0.72827 0.0
O70 O 0.91641 0.40888 0.70504 0.0
C71 C 0.88968 0.38821 0.70164 0.0
O72 O 0.87069 0.39313 0.7105 0.0
C73 C 0.93887 0.47586 0.77626 0.0
C74 C 0.89788 0.52803 0.72466 0.0
O75 O 0.87773 0.50137 0.7266 0.0
O76 O 0.92424 0.53405 0.72675 0.0
O77 O 0.57007 0.48579 0.78111 0.0
Cd78 Cd 0.58076 0.47059 0.74681 0.0
O79 O 0.57549 0.45208 0.79552 0.0
Cd80 Cd 0.57614 0.42882 0.76522 0.0
O81 O 0.54323 0.38879 0.74337 0.0
C82 C 0.51757 0.38362 0.74426 0.0
O83 O 0.51402 0.40307 0.75679 0.0
C84 C 0.57075 0.47382 0.79729 0.0
C85 C 0.63585 0.51305 0.7385 0.0
O86 O 0.6324 0.49259 0.74954 0.0
O87 O 0.61323 0.51344 0.73145 0.0
O88 O 0.57114 0.09259 0.78842 0.0
Cd89 Cd 0.57885 0.11754 0.75722 0.0
O90 O 0.53269 0.05006 0.7722 0.0
Cd91 Cd 0.52852 0.06855 0.74408 0.0
O92 O 0.50277 0.08336 0.72714 0.0
C93 C 0.49166 0.0948 0.73921 0.0
O94 O 0.49753 0.09765 0.75991 0.0
C95 C 0.55129 0.06539 0.78863 0.0
C96 C 0.63264 0.13188 0.74477 0.0
O97 O 0.6095 0.10665 0.73702 0.0
O98 O 0.63027 0.15047 0.75829 0.0
O99 O 0.81025 0.56916 0.92309 0.0
Cd100 Cd 0.80027 0.54898 0.95632 0.0
O101 O 0.77696 0.58198 0.92035 0.0
Cd102 Cd 0.75762 0.56814 0.9493 0.0
O103 O 0.72354 0.56128 0.96914 0.0
C104 C 0.69893 0.55315 0.95903 0.0
O105 O 0.6958 0.54865 0.93813 0.0
C106 C 0.79767 0.58019 0.91308 0.0
C107 C 0.84631 0.54235 0.97146 0.0
O108 O 0.82506 0.52145 0.95801 0.0
O109 O 0.84559 0.56619 0.97803 0.0
O110 O 0.36003 0.13653 0.93687 0.0
Cd111 Cd 0.35444 0.11895 0.97105 0.0
O112 O 0.38613 0.18236 0.95492 0.0
Cd113 Cd 0.41395 0.23148 0.95915 0.0
O114 O 0.44017 0.2801 0.97008 0.0
C115 C 0.42805 0.29569 0.97007 0.0
O116 O 0.40024 0.28213 0.9628 0.0
C117 C 0.37478 0.16489 0.93711 0.0
C118 C 0.39566 0.10373 0.98217 0.0
O119 O 0.37101 0.08419 0.97127 0.0
O120 O 0.40089 0.13067 0.98784 0.0
O121 O 0.75649 0.20302 0.91379 0.0
Cd122 Cd 0.74554 0.20476 0.95049 0.0
O123 O 0.79281 0.19729 0.92458 0.0
Cd124 Cd 0.79554 0.21532 0.95779 0.0
O125 O 0.82004 0.25745 0.98059 0.0
C126 C 0.84708 0.2721 0.9791 0.0
O127 O 0.85722 0.26003 0.96546 0.0
C128 C 0.77641 0.19761 0.90952 0.0
C129 C 0.69303 0.15528 0.95723 0.0
O130 O 0.69548 0.18103 0.95655 0.0
O131 O 0.71509 0.15267 0.95442 0.0
O132 O 0.6321 0.84957 0.11166 0.0
Cd133 Cd 0.62835 0.84983 0.07341 0.0
O134 O 0.58507 0.81889 0.11134 0.0
Cd135 Cd 0.57597 0.80295 0.07721 0.0
O136 O 0.55901 0.76072 0.05517 0.0
C137 C 0.56968 0.74451 0.05903 0.0
O138 O 0.59111 0.75509 0.07469 0.0
C139 C 0.61039 0.83616 0.12161 0.0
C140 C 0.60362 0.88332 0.06222 0.0
O141 O 0.58799 0.85481 0.06225 0.0
O142 O 0.63117 0.89619 0.06749 0.0
O143 O 0.23492 0.81096 0.11632 0.0
Cd144 Cd 0.24734 0.79518 0.08298 0.0
O145 O 0.22168 0.7665 0.12518 0.0
Cd146 Cd 0.22165 0.74493 0.09407 0.0
O147 O 0.18877 0.70662 0.07111 0.0
C148 C 0.16265 0.69818 0.07381 0.0
O149 O 0.1579 0.71361 0.08916 0.0
C150 C 0.22593 0.79299 0.1298 0.0
C151 C 0.30246 0.83606 0.07379 0.0
O152 O 0.29916 0.81755 0.08657 0.0
O153 O 0.27979 0.83558 0.06568 0.0
O154 O 0.24078 0.41751 0.1261 0.0
Cd155 Cd 0.24699 0.44329 0.09528 0.0
O156 O 0.19721 0.37941 0.11251 0.0
Cd157 Cd 0.19462 0.39717 0.08361 0.0
O158 O 0.17181 0.4117 0.06305 0.0
C159 C 0.16552 0.43018 0.07239 0.0
O160 O 0.17456 0.44019 0.09284 0.0
C161 C 0.21819 0.39253 0.12766 0.0
C162 C 0.29657 0.45468 0.07677 0.0
O163 O 0.29799 0.47291 0.09273 0.0
O164 O 0.27178 0.43092 0.06971 0.0
O165 O 0.45722 0.88897 0.24695 0.0
Cd166 Cd 0.44152 0.86731 0.27918 0.0
O167 O 0.43242 0.91217 0.24711 0.0
Cd168 Cd 0.41108 0.89633 0.275 0.0
O169 O 0.37699 0.88651 0.29534 0.0
C170 C 0.35124 0.87434 0.28579 0.0
O171 O 0.34688 0.86753 0.26493 0.0
C172 C 0.44982 0.90568 0.23867 0.0
C173 C 0.48474 0.86094 0.30021 0.0
O174 O 0.46631 0.84063 0.28495 0.0
O175 O 0.4826 0.88419 0.3057 0.0
O176 O 0.01722 0.45816 0.25916 0.0
Cd177 Cd 0.01043 0.43976 0.29311 0.0
O178 O 0.03697 0.50422 0.27664 0.0
Cd179 Cd 0.05973 0.55359 0.28066 0.0
O180 O 0.08562 0.60219 0.29223 0.0
C181 C 0.07408 0.61838 0.29316 0.0
O182 O 0.0462 0.60565 0.2864 0.0
C183 C 0.0287 0.48634 0.25901 0.0
C184 C 0.05067 0.42375 0.30561 0.0
O185 O 0.02678 0.40471 0.29363 0.0
O186 O 0.05568 0.45055 0.31156 0.0
O187 O 0.43311 0.52992 0.2545 0.0
Cd188 Cd 0.42614 0.54452 0.29055 0.0
O189 O 0.46366 0.51572 0.26428 0.0
Cd190 Cd 0.46501 0.53214 0.29746 0.0
O191 O 0.48533 0.57474 0.31946 0.0
C192 C 0.51077 0.59373 0.316 0.0
O193 O 0.52215 0.58542 0.30094 0.0
C194 C 0.44912 0.51926 0.24962 0.0
C195 C 0.37253 0.50315 0.30179 0.0
O196 O 0.37499 0.52297 0.29045 0.0
O197 O 0.39546 0.50268 0.30782 0.0
C198 C 0.52733 0.01495 0.07702 0.0
Eu199 Eu 0.51084 0.0029 0.03615 0.0
C200 C 0.51609 0.00237 0.09626 0.0
C201 C 0.51837 0.02196 0.11425 0.0
C202 C 0.50782 0.01078 0.13272 0.0
C203 C 0.49495 0.97976 0.1336 0.0
C204 C 0.49271 0.9601 0.11556 0.0
C205 C 0.50304 0.97128 0.09699 0.0
C206 C 0.48565 0.02704 0.01371 0.0
C207 C 0.44469 0.94472 0.02401 0.0
C208 C 0.47095 0.95762 0.94922 0.0
Eu209 Eu 0.48775 0.97277 0.99008 0.0
C210 C 0.48219 0.96759 0.92938 0.0
C211 C 0.47591 0.94579 0.91162 0.0
C212 C 0.48491 0.95455 0.89223 0.0
C213 C 0.50022 0.98534 0.8902 0.0
C214 C 0.50721 0.00719 0.90825 0.0
C215 C 0.49837 0.9984 0.9277 0.0
C216 C 0.50947 0.9465 0.01322 0.0
C217 C 0.55202 0.03467 1.00205 0.0
O218 O 0.53439 0.99947 0.06361 0.0
O219 O 0.5139 0.02646 0.06756 0.0
O220 O 0.50808 0.0431 0.02824 0.0
O221 O 0.47691 0.99941 0.0127 0.0
O222 O 0.46793 0.96019 0.03862 0.0
O223 O 0.44602 0.94874 1.00396 0.0
O224 O 0.46549 0.9755 0.96162 0.0
O225 O 0.48323 0.94583 0.95974 0.0
O226 O 0.48624 0.93154 0.99935 0.0
O227 O 0.52086 0.97467 0.01382 0.0
O228 O 0.52992 0.01578 0.98721 0.0
O229 O 0.55119 0.03256 0.02241 0.0
H230 H 0.52836 0.046 0.11401 0.0
H231 H 0.51007 0.02648 0.14643 0.0
H232 H 0.4826 0.93605 0.11574 0.0
H233 H 0.50077 0.95563 0.08323 0.0
H234 H 0.46366 0.92191 0.91268 0.0
H235 H 0.47963 0.93716 0.87877 0.0
H236 H 0.51868 0.03108 0.90723 0.0
H237 H 0.50366 0.01566 0.94127 0.0
C238 C 0.01819 0.53172 0.07617 0.0
Eu239 Eu 0.00863 0.50292 0.0377 0.0
C240 C 0.02309 0.52562 0.09747 0.0
C241 C 0.01317 0.4959 0.10079 0.0
C242 C 0.01728 0.49004 0.12112 0.0
C243 C 0.03171 0.51383 0.13851 0.0
C244 C 0.04212 0.54368 0.13497 0.0
C245 C 0.03778 0.5495 0.11461 0.0
C246 C 0.97128 0.44229 0.02568 0.0
C247 C 0.05375 0.47867 0.03277 0.0
C248 C 0.00276 0.44627 0.95603 0.0
Eu249 Eu 0.01267 0.47644 0.99399 0.0
C250 C 0.99662 0.44976 0.93401 0.0
C251 C 0.01777 0.45606 0.92034 0.0
C252 C 0.01277 0.45977 0.89952 0.0
C253 C 0.98629 0.45689 0.89177 0.0
C254 C 0.96509 0.45066 0.90548 0.0
C255 C 0.97021 0.44716 0.92642 0.0
C256 C 0.05191 0.53612 1.00576 0.0
C257 C 0.96893 0.5027 0.99921 0.0
O258 O 0.03881 0.53725 0.06432 0.0
O259 O 0.99217 0.51347 0.06565 0.0
O260 O 0.96458 0.45965 0.03697 0.0
O261 O 0.99732 0.45712 0.02267 0.0
O262 O 0.04793 0.49782 0.04358 0.0
O263 O 0.03873 0.4629 0.01406 0.0
O264 O 0.98251 0.44018 0.96839 0.0
O265 O 0.02885 0.46597 0.96586 0.0
O266 O 0.0567 0.51775 0.99372 0.0
O267 O 0.02584 0.52297 1.00929 0.0
O268 O 0.97402 0.48301 0.98824 0.0
O269 O 0.98423 0.51818 0.01786 0.0
H270 H 0.00194 0.47717 0.08769 0.0
H271 H 0.00857 0.46675 0.12325 0.0
H272 H 0.05372 0.56258 0.1479 0.0
H273 H 0.04583 0.57262 0.11225 0.0
H274 H 0.03833 0.45821 0.9258 0.0
H275 H 0.02974 0.46502 0.8895 0.0
H276 H 0.94432 0.4479 0.89993 0.0
H277 H 0.95344 0.44231 0.93657 0.0
C278 C 0.46197 0.49116 0.95712 0.0
Eu279 Eu 0.48447 0.51241 0.99676 0.0
C280 C 0.47471 0.48926 0.93766 0.0
C281 C 0.50114 0.51376 0.93389 0.0
C282 C 0.51451 0.51057 0.91649 0.0
C283 C 0.5019 0.48272 0.90279 0.0
C284 C 0.47524 0.45842 0.9064 0.0
C285 C 0.46172 0.46171 0.92366 0.0
C286 C 0.51069 0.57078 0.01557 0.0
C287 C 0.5522 0.52896 1.00048 0.0
C288 C 0.54302 0.54639 0.07957 0.0
Eu289 Eu 0.51917 0.5266 0.04 0.0
C290 C 0.53244 0.53985 0.10012 0.0
C291 C 0.50289 0.51962 0.10104 0.0
C292 C 0.493 0.51316 0.12064 0.0
C293 C 0.51255 0.52672 0.13963 0.0
C294 C 0.54218 0.54692 0.13854 0.0
C295 C 0.55202 0.55342 0.11894 0.0
C296 C 0.49186 0.46801 0.02103 0.0
C297 C 0.45065 0.50878 0.03622 0.0
O298 O 0.46246 0.4743 0.97071 0.0
O299 O 0.46906 0.51824 0.96633 0.0
O300 O 0.4852 0.55631 1.00423 0.0
O301 O 0.52189 0.5545 0.01561 0.0
O302 O 0.52601 0.51402 0.98926 0.0
O303 O 0.55625 0.54103 0.02062 0.0
O304 O 0.53305 0.56002 0.06875 0.0
O305 O 0.54314 0.52426 0.0677 0.0
O306 O 0.51721 0.4817 0.03242 0.0
O307 O 0.48167 0.48507 0.02138 0.0
O308 O 0.47648 0.5224 0.048 0.0
O309 O 0.44721 0.49906 0.01565 0.0
H310 H 0.5119 0.53513 0.94468 0.0
H311 H 0.53519 0.52953 0.91417 0.0
H312 H 0.46495 0.43679 0.89593 0.0
H313 H 0.44149 0.44249 0.92639 0.0
H314 H 0.4875 0.50873 0.0866 0.0
H315 H 0.47012 0.49731 0.12091 0.0
H316 H 0.55772 0.55808 0.15289 0.0
H317 H 0.5749 0.56906 0.11847 0.0
C318 C 0.21016 0.37386 0.4233 0.0
Eu319 Eu 0.18555 0.3624 0.38434 0.0
C320 C 0.20185 0.36099 0.4429 0.0
C321 C 0.17284 0.34673 0.44704 0.0
C322 C 0.16535 0.33399 0.46556 0.0
C323 C 0.18669 0.33499 0.48006 0.0
C324 C 0.21569 0.34943 0.47584 0.0
C325 C 0.22318 0.36233 0.45744 0.0
C326 C 0.16408 0.39179 0.36491 0.0
C327 C 0.11778 0.31834 0.37131 0.0
C328 C 0.14026 0.3186 0.29719 0.0
Eu329 Eu 0.1638 0.33721 0.33693 0.0
C330 C 0.15037 0.32248 0.27619 0.0
C331 C 0.13723 0.29782 0.25952 0.0
C332 C 0.14525 0.30154 0.23914 0.0
C333 C 0.16642 0.33012 0.235 0.0
C334 C 0.18019 0.35458 0.25199 0.0
C335 C 0.17237 0.35076 0.27239 0.0
C336 C 0.18411 0.30824 0.3589 0.0
C337 C 0.23061 0.3877 0.34884 0.0
O338 O 0.21284 0.35688 0.40792 0.0
O339 O 0.19699 0.38738 0.41654 0.0
O340 O 0.16342 0.38952 0.38491 0.0
O341 O 0.17878 0.38153 0.35662 0.0
O342 O 0.13934 0.32675 0.3866 0.0
O343 O 0.12233 0.32289 0.35159 0.0
O344 O 0.14323 0.34262 0.30878 0.0
O345 O 0.14695 0.30279 0.30831 0.0
O346 O 0.18979 0.31388 0.33991 0.0
O347 O 0.16793 0.31762 0.36507 0.0
O348 O 0.20828 0.37445 0.3336 0.0
O349 O 0.22742 0.38406 0.36895 0.0
H350 H 0.15597 0.34519 0.43588 0.0
H351 H 0.1428 0.32274 0.4683 0.0
H352 H 0.23265 0.35081 0.48682 0.0
H353 H 0.24564 0.3732 0.45449 0.0
H354 H 0.1204 0.27576 0.26219 0.0
H355 H 0.13457 0.28208 0.22656 0.0
H356 H 0.1963 0.37699 0.24942 0.0
H357 H 0.18304 0.37012 0.28506 0.0
C358 C 0.64861 0.84946 0.4208 0.0
Eu359 Eu 0.64573 0.8277 0.38145 0.0
C360 C 0.6656 0.85302 0.44096 0.0
C361 C 0.67142 0.83053 0.44544 0.0
C362 C 0.68848 0.83484 0.46439 0.0
C363 C 0.70035 0.86188 0.47894 0.0
C364 C 0.69468 0.8844 0.47429 0.0
C365 C 0.67738 0.87995 0.45548 0.0
C366 C 0.61511 0.76896 0.36288 0.0
C367 C 0.69834 0.81385 0.37733 0.0
C368 C 0.66184 0.79563 0.29872 0.0
Eu369 Eu 0.66078 0.81462 0.33793 0.0
C370 C 0.65804 0.80382 0.27804 0.0
C371 C 0.67168 0.79865 0.26145 0.0
C372 C 0.66972 0.80789 0.24202 0.0
C373 C 0.65404 0.82244 0.23888 0.0
C374 C 0.64026 0.82746 0.25556 0.0
C375 C 0.64237 0.81836 0.27504 0.0
C376 C 0.69112 0.87341 0.35661 0.0
C377 C 0.60686 0.82701 0.34178 0.0
O378 O 0.66358 0.86619 0.40714 0.0
O379 O 0.62903 0.8218 0.41188 0.0
O380 O 0.60408 0.78181 0.37447 0.0
O381 O 0.64182 0.7869 0.36269 0.0
O382 O 0.68821 0.82849 0.38881 0.0
O383 O 0.68677 0.80086 0.35748 0.0
O384 O 0.63871 0.78286 0.30838 0.0
O385 O 0.68506 0.81626 0.31155 0.0
O386 O 0.70222 0.86076 0.34503 0.0
O387 O 0.66448 0.85526 0.35655 0.0
O388 O 0.61898 0.81485 0.33 0.0
O389 O 0.61608 0.83763 0.36227 0.0
H390 H 0.66297 0.80975 0.43427 0.0
H391 H 0.69276 0.81726 0.46753 0.0
H392 H 0.70335 0.90533 0.48535 0.0
H393 H 0.67332 0.89764 0.4522 0.0
H394 H 0.68402 0.78766 0.26358 0.0
H395 H 0.6802 0.80333 0.22936 0.0
H396 H 0.62822 0.83881 0.25363 0.0
H397 H 0.63203 0.82292 0.28781 0.0
C398 C 0.11741 0.82048 0.28708 0.0
Eu399 Eu 0.1401 0.83826 0.32683 0.0
C400 C 0.12762 0.81184 0.26822 0.0
C401 C 0.1253 0.82197 0.24917 0.0
C402 C 0.13774 0.81659 0.23185 0.0
C403 C 0.15277 0.80105 0.23338 0.0
C404 C 0.15462 0.79053 0.25243 0.0
C405 C 0.14216 0.79586 0.26967 0.0
C406 C 0.16997 0.89596 0.34731 0.0
C407 C 0.20533 0.8476 0.32999 0.0
C408 C 0.19688 0.86386 0.40927 0.0
Eu409 Eu 0.17356 0.84759 0.36962 0.0
C410 C 0.18542 0.86156 0.42983 0.0
C411 C 0.19307 0.84815 0.44486 0.0
C412 C 0.18138 0.84443 0.46403 0.0
C413 C 0.16188 0.85418 0.46857 0.0
C414 C 0.15435 0.86777 0.45353 0.0
C415 C 0.16596 0.87137 0.43433 0.0
C416 C 0.14357 0.78993 0.34874 0.0
C417 C 0.10794 0.8382 0.36659 0.0
O418 O 0.10992 0.80228 0.30119 0.0
O419 O 0.13318 0.84898 0.29575 0.0
O420 O 0.14451 0.88379 0.33618 0.0
O421 O 0.17903 0.87776 0.34637 0.0
O422 O 0.17905 0.83441 0.319 0.0
O423 O 0.21024 0.85954 0.35024 0.0
O424 O 0.19474 0.88226 0.39784 0.0
O425 O 0.19044 0.83823 0.39785 0.0
O426 O 0.16896 0.80188 0.35984 0.0
O427 O 0.13472 0.80824 0.35009 0.0
O428 O 0.1333 0.84828 0.37822 0.0
O429 O 0.10372 0.82935 0.34584 0.0
H430 H 0.11433 0.83452 0.24782 0.0
H431 H 0.1356 0.82459 0.21728 0.0
H432 H 0.16638 0.77887 0.25423 0.0
H433 H 0.1446 0.78814 0.28431 0.0
H434 H 0.20799 0.84038 0.44171 0.0
H435 H 0.18791 0.83428 0.47544 0.0
H436 H 0.13921 0.87528 0.45651 0.0
H437 H 0.15955 0.88165 0.42297 0.0
C438 C 0.86528 0.68776 0.74983 0.0
Eu439 Eu 0.84937 0.68344 0.70962 0.0
C440 C 0.8528 0.67328 0.7683 0.0
C441 C 0.84551 0.68848 0.78408 0.0
C442 C 0.83462 0.67574 0.80201 0.0
C443 C 0.83105 0.64762 0.80468 0.0
C444 C 0.83834 0.63236 0.78892 0.0
C445 C 0.84908 0.64503 0.77088 0.0
C446 C 0.83371 0.71935 0.69239 0.0
C447 C 0.78 0.63454 0.69686 0.0
C448 C 0.80577 0.6576 0.62322 0.0
Eu449 Eu 0.82299 0.66234 0.66318 0.0
C450 C 0.81814 0.66584 0.6033 0.0
C451 C 0.81136 0.64289 0.58619 0.0
C452 C 0.82108 0.65009 0.56667 0.0
C453 C 0.83759 0.68045 0.56379 0.0
C454 C 0.84501 0.70344 0.58113 0.0
C455 C 0.83544 0.69622 0.6007 0.0
C456 C 0.8358 0.62477 0.6805 0.0
C457 C 0.89304 0.71178 0.67614 0.0
O458 O 0.86962 0.67193 0.73461 0.0
O459 O 0.85534 0.7039 0.74258 0.0
O460 O 0.85708 0.72984 0.70581 0.0
O461 O 0.81947 0.69093 0.68944 0.0
O462 O 0.8036 0.64407 0.71053 0.0
O463 O 0.78175 0.643 0.678 0.0
O464 O 0.80984 0.6796 0.63794 0.0
O465 O 0.80811 0.63655 0.63103 0.0
O466 O 0.81295 0.61552 0.66684 0.0
O467 O 0.85167 0.65325 0.68356 0.0
O468 O 0.87009 0.69815 0.66123 0.0
O469 O 0.89113 0.70771 0.69612 0.0
H470 H 0.84851 0.71045 0.78268 0.0
H471 H 0.82962 0.68825 0.81403 0.0
H472 H 0.83562 0.61055 0.79049 0.0
H473 H 0.85463 0.63277 0.75907 0.0
H474 H 0.79806 0.6193 0.58781 0.0
H475 H 0.81533 0.63183 0.55375 0.0
H476 H 0.85732 0.72705 0.57941 0.0
H477 H 0.84105 0.71447 0.6136 0.0
C478 C 0.36846 0.22237 0.75748 0.0
Eu479 Eu 0.35187 0.1925 0.71883 0.0
C480 C 0.37272 0.21434 0.77817 0.0
C481 C 0.35986 0.18386 0.78051 0.0
C482 C 0.36307 0.17607 0.80029 0.0
C483 C 0.37952 0.19864 0.81809 0.0
C484 C 0.39292 0.22923 0.8155 0.0
C485 C 0.38948 0.23699 0.79569 0.0
C486 C 0.30414 0.13647 0.70737 0.0
C487 C 0.3833 0.15267 0.71144 0.0
C488 C 0.33199 0.13281 0.63589 0.0
Eu489 Eu 0.34808 0.16194 0.67481 0.0
C490 C 0.32287 0.13822 0.6155 0.0
C491 C 0.3131 0.15864 0.61489 0.0
C492 C 0.3057 0.16463 0.59541 0.0
C493 C 0.30827 0.15053 0.57623 0.0
C494 C 0.31809 0.13008 0.57695 0.0
C495 C 0.3253 0.12398 0.59644 0.0
C496 C 0.39566 0.21807 0.68675 0.0
C497 C 0.31712 0.20197 0.68242 0.0
O498 O 0.38671 0.22381 0.74432 0.0
O499 O 0.34154 0.20816 0.74819 0.0
O500 O 0.30417 0.15864 0.7189 0.0
O501 O 0.32942 0.14407 0.7035 0.0
O502 O 0.38243 0.17472 0.72328 0.0
O503 O 0.3677 0.14002 0.6925 0.0
O504 O 0.3142 0.12711 0.65018 0.0
O505 O 0.35912 0.15165 0.64395 0.0
O506 O 0.39613 0.19609 0.67541 0.0
O507 O 0.37018 0.21003 0.69017 0.0
O508 O 0.31616 0.1784 0.67121 0.0
O509 O 0.33474 0.2159 0.70045 0.0
H510 H 0.34696 0.16604 0.76708 0.0
H511 H 0.35206 0.15233 0.8017 0.0
H512 H 0.40612 0.24718 0.82876 0.0
H513 H 0.39977 0.26064 0.79406 0.0
H514 H 0.31145 0.17019 0.62945 0.0
H515 H 0.29844 0.18065 0.59537 0.0
H516 H 0.31991 0.11856 0.56243 0.0
H517 H 0.33296 0.10829 0.59663 0.0
C518 C 0.78956 0.12082 0.61975 0.0
Eu519 Eu 0.80878 0.15411 0.65724 0.0
C520 C 0.79964 0.1283 0.59921 0.0
C521 C 0.81972 0.15845 0.59761 0.0
C522 C 0.82918 0.16616 0.57815 0.0
C523 C 0.8189 0.14382 0.55997 0.0
C524 C 0.79917 0.11349 0.56171 0.0
C525 C 0.78953 0.1058 0.58124 0.0
C526 C 0.82059 0.21203 0.66343 0.0
C527 C 0.87993 0.19141 0.66241 0.0
C528 C 0.86123 0.22674 0.73579 0.0
Eu529 Eu 0.84352 0.19122 0.69921 0.0
C530 C 0.84842 0.22362 0.75579 0.0
C531 C 0.83154 0.19494 0.76157 0.0
C532 C 0.81877 0.19193 0.78027 0.0
C533 C 0.82227 0.21746 0.79337 0.0
C534 C 0.83877 0.24609 0.78736 0.0
C535 C 0.85182 0.24914 0.76874 0.0
C536 C 0.83411 0.13444 0.69306 0.0
C537 C 0.7721 0.15112 0.69396 0.0
O538 O 0.80789 0.11981 0.63357 0.0
O539 O 0.77801 0.13576 0.62817 0.0
O540 O 0.79585 0.18931 0.65423 0.0
O541 O 0.83785 0.20343 0.66818 0.0
O542 O 0.85522 0.16731 0.65299 0.0
O543 O 0.88062 0.20866 0.67958 0.0
O544 O 0.8469 0.22965 0.71984 0.0
O545 O 0.87021 0.20809 0.73018 0.0
O546 O 0.8579 0.15774 0.70317 0.0
O547 O 0.81569 0.14163 0.68803 0.0
O548 O 0.7963 0.17579 0.70354 0.0
O549 O 0.77246 0.13453 0.67692 0.0
H550 H 0.82797 0.17607 0.61144 0.0
H551 H 0.84472 0.18961 0.57736 0.0
H552 H 0.79083 0.09586 0.54791 0.0
H553 H 0.77411 0.08241 0.58227 0.0
H554 H 0.82812 0.17483 0.75158 0.0
H555 H 0.80588 0.16957 0.78437 0.0
H556 H 0.84197 0.26617 0.79724 0.0
H557 H 0.86448 0.27139 0.76441 0.0
H558 H 0.31416 0.86239 0.03856 0.0
H559 H 0.35569 0.85548 0.09582 0.0
H560 H 0.40361 0.8889 0.08569 0.0
H561 H 0.43364 0.91979 0.06027 0.0
H562 H 0.39138 0.92397 1.00215 0.0
H563 H 0.34388 0.89179 0.01285 0.0
C564 C 0.33371 0.86833 0.04888 0.0
C565 C 0.33143 0.85669 0.06796 0.0
C566 C 0.36106 0.88691 0.04273 0.0
C567 C 0.35691 0.8642 0.08103 0.0
C568 C 0.38429 0.88329 0.07525 0.0
C569 C 0.41402 0.91361 0.04996 0.0
C570 C 0.41608 0.92426 0.03045 0.0
C571 C 0.38663 0.8947 0.05608 0.0
C572 C 0.39045 0.91592 0.01719 0.0
C573 C 0.36323 0.8976 0.02333 0.0
H574 H 0.14847 0.46857 0.08827 0.0
H575 H 0.13862 0.40939 0.03117 0.0
H576 H 0.10355 0.41962 0.01365 0.0
H577 H 0.07422 0.44384 0.01511 0.0
H578 H 0.08438 0.50277 0.07254 0.0
H579 H 0.12074 0.49407 0.0893 0.0
C580 C 0.13882 0.45801 0.07195 0.0
C581 C 0.14608 0.43813 0.06111 0.0
C582 C 0.11856 0.4638 0.06205 0.0
C583 C 0.13341 0.42478 0.03991 0.0
C584 C 0.11328 0.43054 0.0299 0.0
C585 C 0.08442 0.45481 0.03127 0.0
C586 C 0.07639 0.47378 0.04254 0.0
C587 C 0.10542 0.44974 0.04091 0.0
C588 C 0.09001 0.48799 0.06345 0.0
C589 C 0.11086 0.48304 0.0731 0.0
H590 H 0.58894 0.7056 0.06253 0.0
H591 H 0.5202 0.71261 0.03026 0.0
H592 H 0.49597 0.65944 0.01398 0.0
H593 H 0.49336 0.61049 1.00994 0.0
H594 H 0.56251 0.60365 0.0415 0.0
H595 H 0.58747 0.65724 0.05718 0.0
C596 C 0.56875 0.69558 0.05184 0.0
C597 C 0.55634 0.71306 0.04772 0.0
C598 C 0.55489 0.66497 0.04256 0.0
C599 C 0.53025 0.69971 0.03372 0.0
C600 C 0.5163 0.66926 0.02446 0.0
C601 C 0.51391 0.62077 0.02024 0.0
C602 C 0.526 0.60318 0.02473 0.0
C603 C 0.52826 0.65161 0.02896 0.0
C604 C 0.55274 0.61676 0.03793 0.0
C605 C 0.56701 0.64738 0.04685 0.0
H606 H 0.90516 0.30719 0.97936 0.0
H607 H 0.8328 0.3069 1.00546 0.0
H608 H 0.86497 0.3595 0.0228 0.0
H609 H 0.91362 0.40644 0.02929 0.0
H610 H 0.98514 0.40556 1.00259 0.0
H611 H 0.95331 0.35265 0.98672 0.0
C612 C 0.89636 0.3185 0.98893 0.0
C613 C 0.86658 0.30313 0.99101 0.0
C614 C 0.91485 0.34867 0.99867 0.0
C615 C 0.85566 0.31819 1.00357 0.0
C616 C 0.87403 0.34831 0.01345 0.0
C617 C 0.92216 0.39453 0.02009 0.0
C618 C 0.95163 0.40989 0.01704 0.0
C619 C 0.90363 0.36391 1.01091 0.0
C620 C 0.96251 0.39427 1.00512 0.0
C621 C 0.94433 0.36399 0.99603 0.0
H622 H 0.6437 0.5328 0.94157 0.0
H623 H 0.69908 0.56631 1.00191 0.0
H624 H 0.65877 0.56233 0.02012 0.0
H625 H 0.60769 0.54954 0.01879 0.0
H626 H 0.55274 0.51522 0.95816 0.0
H627 H 0.59303 0.51947 0.94025 0.0
C628 C 0.64703 0.53922 0.95872 0.0
C629 C 0.67442 0.54988 0.97033 0.0
C630 C 0.62381 0.53683 0.96906 0.0
C631 C 0.67821 0.55798 0.99256 0.0
C632 C 0.65518 0.55577 1.00299 0.0
C633 C 0.60458 0.5431 1.00166 0.0
C634 C 0.57719 0.53219 0.98988 0.0
C635 C 0.62788 0.54532 0.99138 0.0
C636 C 0.57351 0.52371 0.96769 0.0
C637 C 0.59657 0.52611 0.95738 0.0
H638 H 0.39057 0.04904 0.972 0.0
H639 H 0.44897 0.1392 1.00643 0.0
H640 H 0.48312 0.12404 0.01818 0.0
H641 H 0.49519 0.08427 0.02011 0.0
H642 H 0.43564 0.994 0.98633 0.0
H643 H 0.40337 0.0102 0.9727 0.0
C644 C 0.41082 0.06545 0.98199 0.0
C645 C 0.41709 0.09514 0.98843 0.0
C646 C 0.43021 0.05656 0.98879 0.0
C647 C 0.44353 0.11614 1.0013 0.0
C648 C 0.46308 0.1075 1.00804 0.0
C649 C 0.47528 0.06829 1.00961 0.0
C650 C 0.4678 0.03802 1.00422 0.0
C651 C 0.45648 0.07765 1.00209 0.0
C652 C 0.44194 0.01747 0.99063 0.0
C653 C 0.42338 0.02667 0.9829 0.0
H654 H 0.66127 0.15669 0.98795 0.0
H655 H 0.6649 0.09657 0.93763 0.0
H656 H 0.62032 0.05379 0.94618 0.0
H657 H 0.58077 0.03343 0.96868 0.0
H658 H 0.58117 0.09287 0.02171 0.0
H659 H 0.62365 0.13599 1.01156 0.0
C660 C 0.65211 0.13421 0.97882 0.0
C661 C 0.66594 0.12967 0.96205 0.0
C662 C 0.62732 0.10965 0.98443 0.0
C663 C 0.65441 0.10046 0.95056 0.0
C664 C 0.62899 0.07607 0.95545 0.0
C665 C 0.59025 0.05587 0.97794 0.0
C666 C 0.57797 0.06015 0.99585 0.0
C667 C 0.61533 0.08036 0.97245 0.0
C668 C 0.59047 0.08915 1.00793 0.0
C669 C 0.61466 0.11378 1.0021 0.0
H670 H 0.85966 0.50092 0.95484 0.0
H671 H 0.88886 0.577 1.005 0.0
H672 H 0.92966 0.57186 0.01768 0.0
H673 H 0.9566 0.54534 0.0149 0.0
H674 H 0.92817 0.46998 0.96422 0.0
H675 H 0.88768 0.47546 0.9513 0.0
C676 C 0.87492 0.51634 0.96857 0.0
C677 C 0.87108 0.53919 0.97903 0.0
C678 C 0.89853 0.51347 0.97565 0.0
C679 C 0.89125 0.55919 0.99666 0.0
C680 C 0.9146 0.55627 1.00394 0.0
C681 C 0.94163 0.53015 1.00098 0.0
C682 C 0.94541 0.5072 0.99062 0.0
C683 C 0.91841 0.53344 0.99359 0.0
C684 C 0.92585 0.48787 0.97252 0.0
C685 C 0.9026 0.49091 0.96514 0.0
H686 H 0.40822 0.33466 0.97323 0.0
H687 H 0.48512 0.32986 0.98777 0.0
H688 H 0.51175 0.38288 1.00463 0.0
H689 H 0.51286 0.43033 0.0161 0.0
H690 H 0.43593 0.43495 1.00163 0.0
H691 H 0.40966 0.3823 0.98387 0.0
C692 C 0.43084 0.34521 0.98 0.0
C693 C 0.44459 0.32824 0.9793 0.0
C694 C 0.446 0.37567 0.98976 0.0
C695 C 0.47395 0.34235 0.98812 0.0
C696 C 0.48921 0.37268 0.9978 0.0
C697 C 0.49034 0.41975 1.00905 0.0
C698 C 0.47629 0.43635 1.01018 0.0
C699 C 0.47538 0.38947 0.99887 0.0
C700 C 0.44719 0.42255 1.00091 0.0
C701 C 0.43216 0.39246 0.99078 0.0
H702 H 0.16516 0.66078 0.04184 0.0
H703 H 0.10482 0.67226 0.07766 0.0
H704 H 0.06468 0.62372 0.05892 0.0
H705 H 0.04709 0.5766 0.03362 0.0
H706 H 0.10801 0.5652 0.99858 0.0
H707 H 0.14741 0.61517 0.01559 0.0
C708 C 0.14321 0.65281 0.04545 0.0
C709 C 0.13807 0.67004 0.06122 0.0
C710 C 0.12028 0.62481 0.03477 0.0
C711 C 0.10944 0.6594 0.06563 0.0
C712 C 0.08644 0.63161 0.05494 0.0
C713 C 0.06897 0.58523 0.02965 0.0
C714 C 0.07473 0.56727 0.01501 0.0
C715 C 0.09166 0.61391 0.03969 0.0
C716 C 0.1031 0.57863 1.00989 0.0
C717 C 0.12566 0.60717 0.01962 0.0
H718 H 0.3532 0.49594 0.09228 0.0
H719 H 0.29849 0.42783 0.03818 0.0
H720 H 0.34123 0.43915 0.02069 0.0
H721 H 0.39403 0.46835 0.02067 0.0
H722 H 0.44914 0.53492 0.07536 0.0
H723 H 0.40634 0.52424 0.09269 0.0
C724 C 0.35064 0.48359 0.07666 0.0
C725 C 0.32268 0.46115 0.06652 0.0
C726 C 0.37536 0.48997 0.06678 0.0
C727 C 0.31975 0.44517 0.04636 0.0
C728 C 0.34418 0.45167 0.03631 0.0
C729 C 0.3967 0.48067 0.03634 0.0
C730 C 0.42473 0.5026 0.04662 0.0
C731 C 0.37207 0.47407 0.04635 0.0
C732 C 0.42781 0.51799 0.06706 0.0
C733 C 0.40334 0.51189 0.07699 0.0
H734 H 0.54682 0.86116 0.04836 0.0
H735 H 0.63028 0.94424 0.06153 0.0
H736 H 0.60813 0.97193 0.04908 0.0
H737 H 0.56527 0.97187 0.03251 0.0
H738 H 0.48266 0.88796 0.01825 0.0
H739 H 0.50418 0.86136 0.03329 0.0
C740 C 0.5602 0.88536 0.04864 0.0
C741 C 0.59018 0.90054 0.05575 0.0
C742 C 0.54744 0.90101 0.04124 0.0
C743 C 0.60714 0.93194 0.05603 0.0
C744 C 0.5945 0.94781 0.04892 0.0
C745 C 0.55202 0.94784 0.03293 0.0
C746 C 0.52252 0.9318 0.0242 0.0
C747 C 0.56471 0.9325 0.04122 0.0
C748 C 0.5055 0.90069 0.02475 0.0
C749 C 0.51777 0.88546 0.03332 0.0
H750 H 0.98773 0.27583 0.38205 0.0
H751 H 7e-05 0.22137 0.42289 0.0
H752 H 0.05102 0.24418 0.41669 0.0
H753 H 0.09177 0.27896 0.39877 0.0
H754 H 0.07703 0.32906 0.3551 0.0
H755 H 0.02736 0.30869 0.36322 0.0
C756 C 0.00168 0.26917 0.38971 0.0
C757 C 0.99043 0.24728 0.40304 0.0
C758 C 0.03045 0.28149 0.38544 0.0
C759 C 0.00843 0.23829 0.41257 0.0
C760 C 0.03749 0.2513 0.40903 0.0
C761 C 0.07759 0.28536 0.39112 0.0
C762 C 0.08787 0.30539 0.3764 0.0
C763 C 0.04869 0.2728 0.39537 0.0
C764 C 0.06939 0.31342 0.36637 0.0
C765 C 0.04106 0.3019 0.37105 0.0
H766 H 0.79688 0.80809 0.43165 0.0
H767 H 0.80589 0.7742 0.36941 0.0
H768 H 0.76724 0.78039 0.35338 0.0
H769 H 0.73001 0.79397 0.35712 0.0
H770 H 0.72119 0.82825 0.41931 0.0
H771 H 0.76069 0.82329 0.43526 0.0
C772 C 0.79052 0.80218 0.41456 0.0
C773 C 0.80421 0.79057 0.40177 0.0
C774 C 0.76822 0.80571 0.40545 0.0
C775 C 0.79573 0.78317 0.37964 0.0
C776 C 0.77357 0.78662 0.37046 0.0
C777 C 0.73667 0.80033 0.37418 0.0
C778 C 0.72251 0.81126 0.38701 0.0
C779 C 0.75948 0.79758 0.38323 0.0
C780 C 0.73167 0.81972 0.40905 0.0
C781 C 0.75426 0.81688 0.4182 0.0
H782 H 0.26074 0.02891 0.3927 0.0
H783 H 0.19484 0.04456 0.36587 0.0
H784 H 0.16478 0.99106 0.35028 0.0
H785 H 0.15689 0.93964 0.34477 0.0
H786 H 0.22343 0.9245 0.37086 0.0
H787 H 0.25348 0.978 0.38644 0.0
C788 C 0.23984 0.02068 0.3834 0.0
C789 C 0.23004 0.04072 0.38051 0.0
C790 C 0.2227 0.98994 0.37448 0.0
C791 C 0.20294 0.02965 0.36832 0.0
C792 C 0.18569 0.99903 0.35945 0.0
C793 C 0.17796 0.94809 0.3539 0.0
C794 C 0.18789 0.9282 0.35682 0.0
C795 C 0.19528 0.97895 0.36254 0.0
C796 C 0.21527 0.93939 0.36854 0.0
C797 C 0.23249 0.96998 0.37738 0.0
H798 H 0.5661 0.63736 0.31354 0.0
H799 H 0.49109 0.62096 0.34412 0.0
H800 H 0.51673 0.67393 0.3613 0.0
H801 H 0.56023 0.72527 0.36695 0.0
H802 H 0.6352 0.74087 0.33666 0.0
H803 H 0.6097 0.68784 0.31991 0.0
C804 C 0.55534 0.64529 0.32402 0.0
C805 C 0.52669 0.62524 0.32748 0.0
C806 C 0.57016 0.67568 0.33379 0.0
C807 C 0.51316 0.63591 0.3412 0.0
C808 C 0.52777 0.66622 0.35097 0.0
C809 C 0.57091 0.71698 0.35668 0.0
C810 C 0.59945 0.73688 0.35294 0.0
C811 C 0.5562 0.68636 0.34725 0.0
C812 C 0.61319 0.72594 0.33972 0.0
C813 C 0.59865 0.69564 0.33016 0.0
H814 H 0.29451 0.84884 0.26964 0.0
H815 H 0.35301 0.88956 0.32863 0.0
H816 H 0.31295 0.88438 0.34765 0.0
H817 H 0.26154 0.86969 0.34727 0.0
H818 H 0.20365 0.82936 0.28795 0.0
H819 H 0.24323 0.83296 0.26939 0.0
C820 C 0.29855 0.85649 0.28668 0.0
C821 C 0.32678 0.86968 0.29765 0.0
C822 C 0.2755 0.85359 0.29747 0.0
C823 C 0.33151 0.87935 0.31976 0.0
C824 C 0.30861 0.87645 0.33065 0.0
C825 C 0.25756 0.86163 0.3303 0.0
C826 C 0.22957 0.84931 0.31906 0.0
C827 C 0.28056 0.86385 0.31963 0.0
C828 C 0.22486 0.83889 0.29706 0.0
C829 C 0.24755 0.84098 0.28638 0.0
H830 H 0.09967 0.45662 0.33449 0.0
H831 H 0.04793 0.37028 0.29325 0.0
H832 H 0.08011 0.35381 0.30678 0.0
H833 H 0.12054 0.36253 0.33221 0.0
H834 H 0.17149 0.44757 0.37432 0.0
H835 H 0.14184 0.46608 0.35877 0.0
C836 C 0.0956 0.43431 0.3283 0.0
C837 C 0.07136 0.41469 0.31292 0.0
C838 C 0.114 0.42481 0.33634 0.0
C839 C 0.06634 0.38581 0.30515 0.0
C840 C 0.08474 0.37635 0.31286 0.0
C841 C 0.12592 0.38547 0.3373 0.0
C842 C 0.14876 0.40409 0.35373 0.0
C843 C 0.10841 0.39552 0.32861 0.0
C844 C 0.15428 0.43315 0.36133 0.0
C845 C 0.13728 0.44362 0.35252 0.0
H846 H 0.36177 0.47331 0.33572 0.0
H847 H 0.31922 0.48483 0.28115 0.0
H848 H 0.27172 0.44951 0.29067 0.0
H849 H 0.24232 0.41596 0.31455 0.0
H850 H 0.28406 0.40636 0.3705 0.0
H851 H 0.33191 0.44048 0.36047 0.0
C852 C 0.34206 0.46794 0.3259 0.0
C853 C 0.34397 0.48152 0.3077 0.0
C854 C 0.31476 0.44811 0.33176 0.0
C855 C 0.31831 0.47472 0.29526 0.0
C856 C 0.29115 0.45451 0.30067 0.0
C857 C 0.26187 0.4212 0.32454 0.0
C858 C 0.25967 0.4085 0.34317 0.0
C859 C 0.28913 0.44116 0.31889 0.0
C860 C 0.28521 0.4159 0.35609 0.0
C861 C 0.31254 0.43533 0.35033 0.0
H862 H 0.50358 0.82326 0.28614 0.0
H863 H 0.51834 0.89185 0.33841 0.0
H864 H 0.5569 0.88687 0.35616 0.0
H865 H 0.58672 0.86332 0.35669 0.0
H866 H 0.57346 0.79653 0.30352 0.0
H867 H 0.53408 0.80057 0.28628 0.0
C868 C 0.51515 0.83704 0.30146 0.0
C869 C 0.50799 0.85778 0.31098 0.0
C870 C 0.53762 0.83442 0.3114 0.0
C871 C 0.52344 0.87572 0.33072 0.0
C872 C 0.54547 0.87286 0.3409 0.0
C873 C 0.57513 0.84955 0.34138 0.0
C874 C 0.58294 0.82954 0.33148 0.0
C875 C 0.55278 0.85232 0.33137 0.0
C876 C 0.56793 0.81214 0.3115 0.0
C877 C 0.54536 0.81439 0.30163 0.0
H878 H 0.05606 0.65894 0.29819 0.0
H879 H 0.13137 0.65055 0.31026 0.0
H880 H 0.15954 0.70301 0.32814 0.0
H881 H 0.16249 0.75084 0.34137 0.0
H882 H 0.0874 0.75944 0.32949 0.0
H883 H 0.05948 0.70737 0.31044 0.0
C884 C 0.07867 0.6686 0.30464 0.0
C885 C 0.09149 0.65073 0.30295 0.0
C886 C 0.09478 0.69881 0.31499 0.0
C887 C 0.12087 0.66371 0.31135 0.0
C888 C 0.13703 0.69373 0.32162 0.0
C889 C 0.14001 0.74128 0.33459 0.0
C890 C 0.12694 0.7588 0.33686 0.0
C891 C 0.12414 0.71138 0.32371 0.0
C892 C 0.0979 0.74631 0.3279 0.0
C893 C 0.08194 0.71656 0.31705 0.0
H894 H 0.74411 0.00352 0.4102 0.0
H895 H 0.824 0.00669 0.39899 0.0
H896 H 0.79633 0.95513 0.37944 0.0
H897 H 0.74951 0.90962 0.36465 0.0
H898 H 0.66961 0.90597 0.37605 0.0
H899 H 0.69723 0.95731 0.3964 0.0
C900 C 0.75549 0.9929 0.40357 0.0
C901 C 0.78608 0.00903 0.40598 0.0
C902 C 0.73945 0.96324 0.39229 0.0
C903 C 0.80046 0.99485 0.39736 0.0
C904 C 0.78467 0.96537 0.38612 0.0
C905 C 0.73819 0.92014 0.37157 0.0
C906 C 0.70767 0.90427 0.36883 0.0
C907 C 0.75418 0.94948 0.38331 0.0
C908 C 0.69316 0.9179 0.37799 0.0
C909 C 0.70892 0.94719 0.3896 0.0
H910 H 0.01933 0.84592 0.42371 0.0
H911 H 0.95785 0.78149 0.37043 0.0
H912 H 0.99773 0.78423 0.35234 0.0
H913 H 0.05011 0.80494 0.35168 0.0
H914 H 0.11127 0.86791 0.40562 0.0
H915 H 0.07148 0.86563 0.42343 0.0
C916 C 0.01465 0.83253 0.40811 0.0
C917 C 0.98568 0.81365 0.39839 0.0
C918 C 0.03763 0.8339 0.39793 0.0
C919 C 0.97996 0.79619 0.37827 0.0
C920 C 0.00276 0.79778 0.3679 0.0
C921 C 0.05473 0.81824 0.3673 0.0
C922 C 0.08364 0.83662 0.37727 0.0
C923 C 0.03168 0.81657 0.37757 0.0
C924 C 0.08923 0.85345 0.39762 0.0
C925 C 0.06648 0.85224 0.40781 0.0
H926 H 0.19382 0.21929 0.41366 0.0
H927 H 0.24914 0.21979 0.36723 0.0
H928 H 0.24276 0.25665 0.35065 0.0
H929 H 0.2192 0.2867 0.34817 0.0
H930 H 0.16503 0.28704 0.39528 0.0
H931 H 0.17337 0.25212 0.41283 0.0
C932 C 0.20461 0.22758 0.39998 0.0
C933 C 0.22169 0.21658 0.39157 0.0
C934 C 0.20097 0.24888 0.39059 0.0
C935 C 0.23582 0.22784 0.374 0.0
C936 C 0.23211 0.24886 0.36446 0.0
C937 C 0.2094 0.27923 0.36235 0.0
C938 C 0.19127 0.2891 0.37027 0.0
C939 C 0.2144 0.25922 0.37243 0.0
C940 C 0.17892 0.27957 0.38879 0.0
C941 C 0.18365 0.25957 0.39882 0.0
H942 H 0.64867 0.55023 0.70902 0.0
H943 H 0.68857 0.52566 0.75741 0.0
H944 H 0.73679 0.56193 0.74935 0.0
H945 H 0.76758 0.59991 0.72806 0.0
H946 H 0.72737 0.62268 0.67862 0.0
H947 H 0.67934 0.58784 0.68761 0.0
C948 C 0.66792 0.55289 0.71787 0.0
C949 C 0.66504 0.53532 0.73381 0.0
C950 C 0.69553 0.57342 0.71293 0.0
C951 C 0.69019 0.53887 0.74501 0.0
C952 C 0.71778 0.55962 0.74044 0.0
C953 C 0.74831 0.59737 0.71934 0.0
C954 C 0.75105 0.6139 0.70273 0.0
C955 C 0.7207 0.57693 0.72437 0.0
C956 C 0.72586 0.61014 0.69143 0.0
C957 C 0.69838 0.59025 0.69658 0.0
H958 H 0.46853 0.12354 0.76105 0.0
H959 H 0.46927 0.0857 0.69751 0.0
H960 H 0.43475 0.09908 0.68335 0.0
H961 H 0.40458 0.12192 0.68908 0.0
H962 H 0.40535 0.16086 0.7527 0.0
H963 H 0.43889 0.14641 0.76674 0.0
C964 C 0.46118 0.1182 0.74408 0.0
C965 C 0.47147 0.10363 0.73037 0.0
C966 C 0.44148 0.12603 0.73607 0.0
C967 C 0.46177 0.09699 0.70843 0.0
C968 C 0.44196 0.10455 0.70032 0.0
C969 C 0.41192 0.127 0.70603 0.0
C970 C 0.40242 0.14235 0.71982 0.0
C971 C 0.43164 0.11905 0.714 0.0
C972 C 0.41238 0.14912 0.74172 0.0
C973 C 0.43158 0.14089 0.74978 0.0
H974 H 0.83471 0.33988 0.6892 0.0
H975 H 0.92531 0.36727 0.69072 0.0
H976 H 0.91164 0.31516 0.67832 0.0
H977 H 0.87433 0.26138 0.66972 0.0
H978 H 0.78366 0.23342 0.66679 0.0
H979 H 0.79694 0.28623 0.67707 0.0
C980 C 0.85144 0.33449 0.68656 0.0
C981 C 0.88099 0.35743 0.69111 0.0
C982 C 0.84344 0.30438 0.67939 0.0
C983 C 0.90239 0.35011 0.68741 0.0
C984 C 0.89463 0.32026 0.68041 0.0
C985 C 0.85749 0.26693 0.67119 0.0
C986 C 0.82812 0.24374 0.66776 0.0
C987 C 0.86529 0.29718 0.67681 0.0
C988 C 0.80643 0.25106 0.66941 0.0
C989 C 0.81403 0.28117 0.67532 0.0
H990 H 0.18113 0.01877 0.67836 0.0
H991 H 0.23463 0.98063 0.66462 0.0
H992 H 0.27845 0.02964 0.67794 0.0
H993 H 0.30174 0.0841 0.69209 0.0
H994 H 0.24798 0.12148 0.70694 0.0
H995 H 0.20416 0.07213 0.69448 0.0
C996 C 0.20236 0.02111 0.67842 0.0
C997 C 0.20456 0.99609 0.67039 0.0
C998 C 0.22747 0.04932 0.68615 0.0
C999 C 0.23226 0.99948 0.67075 0.0
C1000 C 0.25738 0.02756 0.67826 0.0
C1001 C 0.2804 0.08132 0.69262 0.0
C1002 C 0.278 0.10632 0.70029 0.0
C1003 C 0.25526 0.05274 0.68573 0.0
C1004 C 0.2503 0.1025 0.7011 0.0
C1005 C 0.22526 0.07432 0.69397 0.0
H1006 H 0.98051 0.2009 0.61191 0.0
H1007 H 0.02033 0.2954 0.63838 0.0
H1008 H 0.97808 0.28405 0.65674 0.0
H1009 H 0.92952 0.24689 0.66529 0.0
H1010 H 0.88991 0.15287 0.6374 0.0
H1011 H 0.93244 0.16442 0.61977 0.0
C1012 C 0.98001 0.21908 0.62167 0.0
C1013 C 0.00359 0.24893 0.62378 0.0
C1014 C 0.95568 0.21243 0.63205 0.0
C1015 C 0.00242 0.2722 0.63642 0.0
C1016 C 0.97831 0.26571 0.64699 0.0
C1017 C 0.93038 0.22897 0.65548 0.0
C1018 C 0.90665 0.19906 0.65273 0.0
C1019 C 0.95482 0.23586 0.64499 0.0
C1020 C 0.90785 0.1761 0.63974 0.0
C1021 C 0.93216 0.18266 0.62963 0.0
H1022 H 0.76485 0.77814 0.6586 0.0
H1023 H 0.84867 0.85957 0.67772 0.0
H1024 H 0.86911 0.82976 0.68901 0.0
H1025 H 0.86273 0.78038 0.6941 0.0
H1026 H 0.77924 0.6991 0.67326 0.0
H1027 H 0.75913 0.72897 0.6619 0.0
C1028 C 0.78759 0.78937 0.66527 0.0
C1029 C 0.80516 0.821 0.66751 0.0
C1030 C 0.79925 0.7721 0.67139 0.0
C1031 C 0.83469 0.83521 0.67586 0.0
C1032 C 0.84637 0.8182 0.68234 0.0
C1033 C 0.84017 0.7693 0.68702 0.0
C1034 C 0.82241 0.73768 0.68467 0.0
C1035 C 0.82881 0.78662 0.68028 0.0
C1036 C 0.79331 0.72346 0.67528 0.0
C1037 C 0.78177 0.74051 0.66881 0.0
H1038 H 0.02099 0.81277 0.66773 0.0
H1039 H 0.00656 0.74822 0.61274 0.0
H1040 H 0.95637 0.71526 0.61923 0.0
H1041 H 0.91701 0.70401 0.64145 0.0
H1042 H 0.93376 0.7662 0.69858 0.0
H1043 H 0.98247 0.80092 0.69041 0.0
C1044 C 0.00674 0.79158 0.65711 0.0
C1045 C 0.01728 0.78298 0.63972 0.0
C1046 C 0.97835 0.7723 0.66139 0.0
C1047 C -0.00115 0.75525 0.62625 0.0
C1048 C 0.97018 0.73644 0.62994 0.0
C1049 C 0.93135 0.72528 0.65196 0.0
C1050 C 0.92193 0.73273 0.6705 0.0
C1051 C 0.95975 0.74461 0.64757 0.0
C1052 C 0.94071 0.76006 0.68424 0.0
C1053 C 0.9685 0.7799 0.67957 0.0
H1054 H 0.23989 0.25899 0.6656 0.0
H1055 H 0.1914 0.17668 0.61983 0.0
H1056 H 0.22724 0.16263 0.62895 0.0
H1057 H 0.27119 0.1727 0.65092 0.0
H1058 H 0.31881 0.25424 0.6975 0.0
H1059 H 0.2845 0.26964 0.68696 0.0
C1060 C 0.23721 0.23804 0.65755 0.0
C1061 C 0.21294 0.21888 0.64212 0.0
C1062 C 0.25771 0.22993 0.66302 0.0
C1063 C 0.2098 0.19178 0.63185 0.0
C1064 C 0.2303 0.18374 0.63704 0.0
C1065 C 0.27425 0.19399 0.65863 0.0
C1066 C 0.29753 0.21227 0.67499 0.0
C1067 C 0.25419 0.2025 0.65273 0.0
C1068 C 0.30103 0.23968 0.68491 0.0
C1069 C 0.2814 0.24851 0.67891 0.0
H1070 H 0.83611 0.01382 0.6752 0.0
H1071 H 0.74868 0.9806 0.64565 0.0
H1072 H 0.75442 0.03004 0.65667 0.0
H1073 H 0.78514 0.08351 0.67309 0.0
H1074 H 0.87269 0.11684 0.70223 0.0
H1075 H 0.86603 0.06659 0.69298 0.0
C1076 C 0.8182 0.01728 0.67135 0.0
C1077 C 0.79207 0.99355 0.65952 0.0
C1078 C 0.82173 0.04587 0.67753 0.0
C1079 C 0.76909 0.99847 0.65468 0.0
C1080 C 0.77235 0.02678 0.66093 0.0
C1081 C 0.80266 0.07967 0.67751 0.0
C1082 C 0.82937 0.10375 0.68825 0.0
C1083 C 0.79872 0.05076 0.67208 0.0
C1084 C 0.85192 0.09858 0.69392 0.0
C1085 C 0.84814 0.06988 0.68864 0.0
H1086 H 0.51681 0.33699 0.71923 0.0
H1087 H 0.46049 0.36599 0.74438 0.0
H1088 H 0.41786 0.31761 0.72839 0.0
H1089 H 0.39649 0.26631 0.7085 0.0
H1090 H 0.45235 0.23692 0.68327 0.0
H1091 H 0.49523 0.2862 0.69803 0.0
C1092 C 0.49521 0.33282 0.72107 0.0
C1093 C 0.4919 0.35507 0.73307 0.0
C1094 C 0.47069 0.30482 0.71192 0.0
C1095 C 0.46373 0.34928 0.73528 0.0
C1096 C 0.43928 0.32157 0.72617 0.0
C1097 C 0.41806 0.27078 0.70616 0.0
C1098 C 0.42136 0.24811 0.6949 0.0
C1099 C 0.44252 0.29907 0.71468 0.0
C1100 C 0.44935 0.25411 0.69192 0.0
C1101 C 0.47384 0.28224 0.70036 0.0
H1102 H 0.64377 0.09847 0.71519 0.0
H1103 H 0.6858 0.18213 0.75982 0.0
H1104 H 0.73286 0.19481 0.74875 0.0
H1105 H 0.76187 0.18282 0.7257 0.0
H1106 H 0.71947 0.09953 0.6806 0.0
H1107 H 0.67284 0.08603 0.69268 0.0
C1108 C 0.66322 0.11946 0.72254 0.0
C1109 C 0.66121 0.13935 0.73825 0.0
C1110 C 0.69018 0.12671 0.71602 0.0
C1111 C 0.68667 0.16644 0.74762 0.0
C1112 C 0.71362 0.17372 0.74132 0.0
C1113 C 0.74247 0.16163 0.71858 0.0
C1114 C 0.7442 0.14228 0.70221 0.0
C1115 C 0.7156 0.15411 0.72544 0.0
C1116 C 0.7188 0.11493 0.69318 0.0
C1117 C 0.69208 0.10717 0.70006 0.0
H1118 H 0.84474 0.51846 0.71102 0.0
H1119 H 0.93525 0.58868 0.72612 0.0
H1120 H 0.92378 0.62562 0.71524 0.0
H1121 H 0.88824 0.63732 0.69955 0.0
H1122 H 0.79843 0.56603 0.68263 0.0
H1123 H 0.80934 0.53023 0.69625 0.0
C1124 C 0.86194 0.5419 0.71211 0.0
C1125 C 0.89079 0.55079 0.71932 0.0
C1126 C 0.85531 0.56281 0.70542 0.0
C1127 C 0.91285 0.58122 0.72052 0.0
C1128 C 0.90632 0.60236 0.71431 0.0
C1129 C 0.87111 0.61399 0.69903 0.0
C1130 C 0.84265 0.60419 0.69003 0.0
C1131 C 0.87768 0.59333 0.70645 0.0
C1132 C 0.82057 0.57396 0.68935 0.0
C1133 C 0.82677 0.5535 0.69714 0.0
H1134 H 0.44071 0.94408 0.21827 0.0
H1135 H 0.48388 0.89291 0.21451 0.0
H1136 H 0.50111 0.91079 0.1815 0.0
H1137 H 0.504 0.94107 0.15365 0.0
H1138 H 0.46131 0.99258 0.15781 0.0
H1139 H 0.44385 0.97446 0.19073 0.0
C1140 C 0.45391 0.93681 0.21028 0.0
C1141 C 0.46092 0.91712 0.2189 0.0
C1142 C 0.46382 0.94722 0.19133 0.0
C1143 C 0.47814 0.90807 0.20829 0.0
C1144 C 0.48798 0.91824 0.18937 0.0
C1145 C 0.49068 0.9481 0.1617 0.0
C1146 C 0.48392 0.96809 0.15332 0.0
C1147 C 0.48089 0.93776 0.18071 0.0
C1148 C 0.467 0.97739 0.16406 0.0
C1149 C 0.45694 0.96698 0.18284 0.0
H1150 H 0.03956 0.46372 0.22286 0.0
H1151 H 0.02357 0.5334 0.24907 0.0
H1152 H 0.02484 0.5493 0.21434 0.0
H1153 H 0.02701 0.54093 0.17602 0.0
H1154 H 0.04406 0.4718 0.15 0.0
H1155 H 0.04537 0.45785 0.18508 0.0
C1156 C 0.03662 0.48256 0.22097 0.0
C1157 C 0.03184 0.49761 0.23852 0.0
C1158 C 0.03716 0.4914 0.20094 0.0
C1159 C 0.02805 0.52197 0.23592 0.0
C1160 C 0.02843 0.53083 0.216 0.0
C1161 C 0.03157 0.5232 0.17805 0.0
C1162 C 0.03508 0.50724 0.16026 0.0
C1163 C 0.03262 0.51546 0.19834 0.0
C1164 C 0.04061 0.48405 0.16326 0.0
C1165 C 0.04155 0.47615 0.18336 0.0
H1166 H 0.49116 0.51071 0.23461 0.0
H1167 H 0.41761 0.51857 0.21413 0.0
H1168 H 0.42964 0.5194 0.17785 0.0
H1169 H 0.46377 0.52298 0.1528 0.0
H1170 H 0.538 0.51645 0.17349 0.0
H1171 H 0.52312 0.51031 0.20888 0.0
C1172 C 0.47744 0.51206 0.22215 0.0
C1173 C 0.45361 0.51475 0.22714 0.0
C1174 C 0.48489 0.51328 0.20142 0.0
C1175 C 0.43616 0.51662 0.21078 0.0
C1176 C 0.44309 0.51722 0.19003 0.0
C1177 C 0.47641 0.51968 0.16494 0.0
C1178 C 0.50211 0.52046 0.16056 0.0
C1179 C 0.46783 0.51636 0.18529 0.0
C1180 C 0.51842 0.51649 0.17656 0.0
C1181 C 0.50983 0.51281 0.19676 0.0
H1182 H 0.96986 0.45324 0.79279 0.0
H1183 H 0.92657 0.50157 0.81106 0.0
H1184 H 0.93801 0.50063 0.84856 0.0
H1185 H 0.95922 0.48469 0.87602 0.0
H1186 H 0.00043 0.43445 0.85683 0.0
H1187 H 0.99114 0.43791 0.8198 0.0
C1188 C 0.96301 0.46376 0.80492 0.0
C1189 C 0.94731 0.4774 0.79908 0.0
C1190 C 0.96929 0.46279 0.82631 0.0
C1191 C 0.93868 0.49091 0.81509 0.0
C1192 C 0.94515 0.49031 0.83654 0.0
C1193 C 0.96598 0.47433 0.86371 0.0
C1194 C 0.9806 0.45942 0.86926 0.0
C1195 C 0.96018 0.476 0.84231 0.0
C1196 C 0.98958 0.44649 0.85311 0.0
C1197 C 0.9841 0.44827 0.83188 0.0
H1198 H 0.55606 0.44313 0.83043 0.0
H1199 H 0.56668 0.52379 0.80927 0.0
H1200 H 0.54781 0.5347 0.84086 0.0
H1201 H 0.52502 0.51921 0.87322 0.0
H1202 H 0.51231 0.43708 0.89297 0.0
H1203 H 0.53515 0.42873 0.8631 0.0
C1204 C 0.55467 0.46335 0.83283 0.0
C1205 C 0.56278 0.48261 0.8175 0.0
C1206 C 0.54307 0.46899 0.85065 0.0
C1207 C 0.56055 0.50857 0.82082 0.0
C1208 C 0.54968 0.51476 0.83884 0.0
C1209 C 0.52755 0.49968 0.87104 0.0
C1210 C 0.51684 0.47865 0.88512 0.0
C1211 C 0.54034 0.49481 0.85365 0.0
C1212 C 0.52003 0.45331 0.88212 0.0
C1213 C 0.5332 0.44861 0.86513 0.0
H1214 H 0.5067 0.01214 0.79618 0.0
H1215 H 0.58893 0.08968 0.82582 0.0
H1216 H 0.58128 0.07066 0.85961 0.0
H1217 H 0.54981 0.0336 0.88122 0.0
H1218 H 0.46637 0.95783 0.85166 0.0
H1219 H 0.47626 0.97434 0.81732 0.0
C1220 C 0.52315 0.02476 0.80994 0.0
C1221 C 0.54827 0.05238 0.80847 0.0
C1222 C 0.51837 0.01404 0.82939 0.0
C1223 C 0.56931 0.06841 0.82652 0.0
C1224 C 0.56493 0.05759 0.84587 0.0
C1225 C 0.53376 0.02074 0.86728 0.0
C1226 C 0.50737 0.99453 0.8691 0.0
C1227 C 0.53927 0.03073 0.84758 0.0
C1228 C 0.48705 0.97784 0.85075 0.0
C1229 C 0.49256 0.98739 0.83109 0.0
H1230 H 0.17019 0.26805 0.559 0.0
H1231 H 0.1195 0.30907 0.57423 0.0
H1232 H 0.12819 0.33017 0.54121 0.0
H1233 H 0.15212 0.33867 0.50856 0.0
H1234 H 0.20362 0.29823 0.49449 0.0
H1235 H 0.19289 0.27545 0.52665 0.0
C1236 C 0.16092 0.28156 0.55517 0.0
C1237 C 0.14405 0.28678 0.56914 0.0
C1238 C 0.16637 0.29393 0.53638 0.0
C1239 C 0.13221 0.30426 0.56374 0.0
C1240 C 0.13736 0.31653 0.54488 0.0
C1241 C 0.16074 0.32464 0.51248 0.0
C1242 C 0.17884 0.32033 0.49925 0.0
C1243 C 0.1546 0.31169 0.53114 0.0
C1244 C 0.19003 0.30228 0.50458 0.0
C1245 C 0.1838 0.28913 0.52291 0.0
H1246 H 0.78406 0.9065 0.56509 0.0
H1247 H 0.71767 0.81955 0.57769 0.0
H1248 H 0.6929 0.80725 0.54146 0.0
H1249 H 0.68775 0.82321 0.50735 0.0
H1250 H 0.75286 0.91125 0.49574 0.0
H1251 H 0.78052 0.92116 0.53048 0.0
C1252 C 0.76442 0.88464 0.55985 0.0
C1253 C 0.75268 0.86404 0.57413 0.0
C1254 C 0.74989 0.87808 0.53924 0.0
C1255 C 0.72712 0.83589 0.56705 0.0
C1256 C 0.71289 0.82887 0.54636 0.0
C1257 C 0.70823 0.84435 0.51234 0.0
C1258 C 0.71822 0.86657 0.49914 0.0
C1259 C 0.72371 0.85009 0.53249 0.0
C1260 C 0.74462 0.89399 0.5058 0.0
C1261 C 0.76044 0.89961 0.5256 0.0
H1262 H 0.11812 0.82414 0.55716 0.0
H1263 H 0.13678 0.91608 0.56351 0.0
H1264 H 0.14826 0.91843 0.52712 0.0
H1265 H 0.15717 0.89603 0.49469 0.0
H1266 H 0.14027 0.80482 0.48866 0.0
H1267 H 0.12413 0.8006 0.52378 0.0
C1268 C 0.12421 0.84451 0.55046 0.0
C1269 C 0.12669 0.86992 0.56307 0.0
C1270 C 0.13151 0.84599 0.52969 0.0
C1271 C 0.13484 0.89623 0.55419 0.0
C1272 C 0.14149 0.89764 0.53339 0.0
C1273 C 0.1495 0.87506 0.50092 0.0
C1274 C 0.15008 0.85085 0.48916 0.0
C1275 C 0.14055 0.87292 0.52118 0.0
C1276 C 0.14043 0.82394 0.49756 0.0
C1277 C 0.13107 0.82147 0.51758 0.0
H1278 H 0.66126 0.85667 0.14699 0.0
H1279 H 0.56907 0.81809 0.14841 0.0
H1280 H 0.57497 0.81283 0.1856 0.0
H1281 H 0.60539 0.81425 0.21645 0.0
H1282 H 0.6972 0.85102 0.21461 0.0
H1283 H 0.69233 0.86179 0.1788 0.0
C1284 C 0.64253 0.84762 0.15554 0.0
C1285 C 0.61475 0.83759 0.14489 0.0
C1286 C 0.64593 0.84391 0.17675 0.0
C1287 C 0.59069 0.82579 0.15619 0.0
C1288 C 0.59401 0.82269 0.17744 0.0
C1289 C 0.62441 0.82512 0.20835 0.0
C1290 C 0.65155 0.83158 0.21805 0.0
C1291 C 0.62139 0.8309 0.18769 0.0
C1292 C 0.67597 0.84538 0.2073 0.0
C1293 C 0.67324 0.85166 0.18688 0.0
H1294 H 0.20128 0.75709 0.15907 0.0
H1295 H 0.23071 0.84702 0.14559 0.0
H1296 H 0.21126 0.85778 0.17692 0.0
H1297 H 0.18384 0.84058 0.20715 0.0
H1298 H 0.15269 0.74959 0.21897 0.0
H1299 H 0.17511 0.74041 0.18925 0.0
C1300 C 0.20376 0.7792 0.16303 0.0
C1301 C 0.21738 0.80119 0.14994 0.0
C1302 C 0.19205 0.78496 0.18069 0.0
C1303 C 0.22032 0.82968 0.15538 0.0
C1304 C 0.20909 0.83579 0.17323 0.0
C1305 C 0.18179 0.81868 0.2031 0.0
C1306 C 0.16655 0.79578 0.21525 0.0
C1307 C 0.19446 0.81339 0.18578 0.0
C1308 C 0.16455 0.76771 0.21005 0.0
C1309 C 0.17725 0.76238 0.193 0.0
H1310 H 0.1692 0.34669 0.13872 0.0
H1311 H 0.2595 0.41143 0.16232 0.0
H1312 H 0.25202 0.39577 0.19724 0.0
H1313 H 0.21889 0.3666 0.22176 0.0
H1314 H 0.12785 0.3048 0.19836 0.0
H1315 H 0.13681 0.31594 0.16263 0.0
C1316 C 0.1874 0.35713 0.15138 0.0
C1317 C 0.21483 0.38035 0.1479 0.0
C1318 C 0.18279 0.34859 0.17153 0.0
C1319 C 0.23811 0.3936 0.16456 0.0
C1320 C 0.23383 0.38472 0.18457 0.0
C1321 C 0.20098 0.35558 0.20887 0.0
C1322 C 0.1727 0.33496 0.21289 0.0
C1323 C 0.20608 0.36277 0.18837 0.0
C1324 C 0.14992 0.32045 0.19581 0.0
C1325 C 0.15495 0.32701 0.17534 0.0
H1326 H 0.77476 0.60357 0.88731 0.0
H1327 H 0.84166 0.58093 0.89312 0.0
H1328 H 0.85723 0.59888 0.85982 0.0
H1329 H 0.85257 0.62203 0.8294 0.0
H1330 H 0.78573 0.64463 0.8237 0.0
H1331 H 0.7695 0.62573 0.85666 0.0
C1332 C 0.79275 0.60251 0.88132 0.0
C1333 C 0.80702 0.59095 0.89278 0.0
C1334 C 0.80164 0.6129 0.86218 0.0
C1335 C 0.83026 0.58974 0.88469 0.0
C1336 C 0.83919 0.59999 0.86562 0.0
C1337 C 0.83423 0.62247 0.83525 0.0
C1338 C 0.8204 0.63475 0.82415 0.0
C1339 C 0.82509 0.61167 0.85426 0.0
C1340 C 0.79694 0.63559 0.83209 0.0
C1341 C 0.78759 0.62471 0.85089 0.0
H1342 H 0.3806 0.14025 0.89958 0.0
H1343 H 0.37573 0.216 0.9294 0.0
H1344 H 0.37837 0.23411 0.89539 0.0
H1345 H 0.37891 0.22651 0.8568 0.0
H1346 H 0.38531 0.15146 0.8272 0.0
H1347 H 0.38475 0.13473 0.86144 0.0
C1348 C 0.38033 0.16084 0.89861 0.0
C1349 C 0.3783 0.17696 0.91695 0.0
C1350 C 0.38177 0.17103 0.87902 0.0
C1351 C 0.378 0.20361 0.91558 0.0
C1352 C 0.3792 0.21379 0.89609 0.0
C1353 C 0.38076 0.20683 0.85785 0.0
C1354 C 0.38182 0.19012 0.83932 0.0
C1355 C 0.3808 0.19751 0.87767 0.0
C1356 C 0.3838 0.16442 0.84106 0.0
C1357 C 0.38367 0.1549 0.86068 0.0
H1358 H 0.76568 0.22146 0.87677 0.0
H1359 H 0.80211 0.16774 0.89303 0.0
H1360 H 0.81799 0.16768 0.85798 0.0
H1361 H 0.82463 0.18589 0.82371 0.0
H1362 H 0.7909 0.24212 0.80809 0.0
H1363 H 0.77106 0.23844 0.84191 0.0
C1364 C 0.77665 0.20932 0.87248 0.0
C1365 C 0.78262 0.19453 0.88742 0.0
C1366 C 0.78657 0.2102 0.85253 0.0
C1367 C 0.79728 0.1793 0.88179 0.0
C1368 C 0.80645 0.17933 0.86178 0.0
C1369 C 0.81262 0.19702 0.82762 0.0
C1370 C 0.80925 0.21428 0.81348 0.0
C1371 C 0.8017 0.19518 0.84719 0.0
C1372 C 0.79401 0.22896 0.81885 0.0
C1373 C 0.78257 0.22675 0.83812 0.0
H1374 H 0.25237 0.16302 0.4912 0.0
H1375 H 0.3294 0.16897 0.46949 0.0
H1376 H 0.34691 0.1683 0.50544 0.0
H1377 H 0.33825 0.1613 0.54227 0.0
H1378 H 0.26056 0.15373 0.56372 0.0
H1379 H 0.24559 0.16007 0.52871 0.0
C1380 C 0.27323 0.16469 0.49437 0.0
C1381 C 0.28937 0.16574 0.47758 0.0
C1382 C 0.28293 0.16368 0.51501 0.0
C1383 C 0.3164 0.16796 0.48205 0.0
C1384 C 0.3264 0.16743 0.5026 0.0
C1385 C 0.31805 0.16106 0.53926 0.0
C1386 C 0.30038 0.1567 0.55548 0.0
C1387 C 0.30944 0.16442 0.51905 0.0
C1388 C 0.27459 0.15712 0.55152 0.0
C1389 C 0.26595 0.16061 0.53148 0.0
H1390 H 0.85924 0.1984 0.4763 0.0
H1391 H 0.87611 0.12542 0.46615 0.0
H1392 H 0.85772 0.10928 0.49926 0.0
H1393 H 0.8376 0.11651 0.53154 0.0
H1394 H 0.82228 0.19057 0.54218 0.0
H1395 H 0.83968 0.20596 0.50864 0.0
C1396 C 0.85891 0.17898 0.48136 0.0
C1397 C 0.86828 0.16263 0.4685 0.0
C1398 C 0.84874 0.17014 0.50059 0.0
C1399 C 0.86793 0.13766 0.47531 0.0
C1400 C 0.85775 0.12864 0.4944 0.0
C1401 C 0.83784 0.13583 0.52639 0.0
C1402 C 0.82869 0.15238 0.53929 0.0
C1403 C 0.848 0.14465 0.50713 0.0
C1404 C 0.82949 0.17765 0.5326 0.0
C1405 C 0.83934 0.18641 0.51341 0.0
H1406 H 0.84502 0.70391 0.4691 0.0
H1407 H 0.92831 0.78045 0.49804 0.0
H1408 H 0.92056 0.76203 0.53204 0.0
H1409 H 0.88833 0.72647 0.55417 0.0
H1410 H 0.80383 0.6519 0.52531 0.0
H1411 H 0.81419 0.66698 0.49062 0.0
C1412 C 0.8617 0.71641 0.48274 0.0
C1413 C 0.8871 0.74367 0.48103 0.0
C1414 C 0.85685 0.70608 0.50232 0.0
C1415 C 0.90847 0.75948 0.49891 0.0
C1416 C 0.90403 0.74902 0.51839 0.0
C1417 C 0.87218 0.71352 0.54029 0.0
C1418 C 0.84528 0.68817 0.54244 0.0
C1419 C 0.87796 0.72276 0.5204 0.0
C1420 C 0.82485 0.67129 0.52418 0.0
C1421 C 0.83065 0.68004 0.50431 0.0
loop_
_geom_bond_atom_site_label_1
_geom_bond_atom_site_label_2
_geom_bond_distance
_geom_bond_site_symmetry_2
_ccdc_geom_bond_type
O0 Cd1 2.300 . S
O0 C7 1.275 . S
Cd1 O0 2.300 . S
Cd1 O9 2.381 . S
Cd1 O10 2.378 . S
O2 Cd3 2.385 . S
O2 C7 1.255 . S
Cd3 O2 2.385 . S
Cd3 O4 2.317 . S
O4 Cd3 2.317 . S
O4 C5 1.232 . S
C5 O4 1.232 . S
C5 O6 1.218 . S
O6 C5 1.218 . S
C7 O0 1.275 . S
C7 O2 1.255 . S
C8 O9 1.258 . S
C8 O10 1.256 . S
O9 Cd1 2.381 . S
O9 C8 1.258 . S
O10 Cd1 2.378 . S
O10 C8 1.256 . S
O11 Cd12 2.300 . S
O11 C18 1.275 . S
Cd12 O11 2.300 . S
Cd12 O20 2.381 . S
Cd12 O21 2.378 . S
O13 Cd14 2.385 . S
O13 C18 1.255 . S
Cd14 O13 2.385 . S
Cd14 O15 2.317 . S
O15 Cd14 2.317 . S
O15 C16 1.232 . S
C16 O15 1.232 . S
C16 O17 1.218 . S
O17 C16 1.218 . S
C18 O11 1.275 . S
C18 O13 1.255 . S
C19 O20 1.258 . S
C19 O21 1.256 . S
O20 Cd12 2.381 . S
O20 C19 1.258 . S
O21 Cd12 2.378 . S
O21 C19 1.256 . S
O22 Cd23 2.300 . S
O22 C29 1.275 . S
Cd23 O22 2.300 . S
Cd23 O31 2.381 . S
Cd23 O32 2.378 . S
O24 Cd25 2.385 . S
O24 C29 1.255 . S
Cd25 O24 2.385 . S
Cd25 O26 2.317 . S
O26 Cd25 2.317 . S
O26 C27 1.232 . S
C27 O26 1.232 . S
C27 O28 1.218 . S
O28 C27 1.218 . S
C29 O22 1.275 . S
C29 O24 1.255 . S
C30 O31 1.258 . S
C30 O32 1.256 . S
O31 Cd23 2.381 . S
O31 C30 1.258 . S
O32 Cd23 2.378 . S
O32 C30 1.256 . S
O33 Cd34 2.300 . S
O33 C40 1.275 . S
Cd34 O33 2.300 . S
Cd34 O42 2.381 . S
Cd34 O43 2.378 . S
O35 Cd36 2.385 . S
O35 C40 1.255 . S
Cd36 O35 2.385 . S
Cd36 O37 2.317 . S
O37 Cd36 2.317 . S
O37 C38 1.232 . S
C38 O37 1.232 . S
C38 O39 1.218 . S
O39 C38 1.218 . S
C40 O33 1.275 . S
C40 O35 1.255 . S
C41 O42 1.258 . S
C41 O43 1.256 . S
O42 Cd34 2.381 . S
O42 C41 1.258 . S
O43 Cd34 2.378 . S
O43 C41 1.256 . S
O44 Cd45 2.300 . S
O44 C51 1.275 . S
Cd45 O44 2.300 . S
Cd45 O53 2.381 . S
Cd45 O54 2.378 . S
O46 Cd47 2.385 . S
O46 C51 1.255 . S
Cd47 O46 2.385 . S
Cd47 O48 2.317 . S
O48 Cd47 2.317 . S
O48 C49 1.232 . S
C49 O48 1.232 . S
C49 O50 1.218 . S
O50 C49 1.218 . S
C51 O44 1.275 . S
C51 O46 1.255 . S
C52 O53 1.258 . S
C52 O54 1.256 . S
O53 Cd45 2.381 . S
O53 C52 1.258 . S
O54 Cd45 2.378 . S
O54 C52 1.256 . S
O55 Cd56 2.300 . S
O55 C62 1.275 . S
Cd56 O55 2.300 . S
Cd56 O64 2.381 . S
Cd56 O65 2.378 . S
O57 Cd58 2.385 . S
O57 C62 1.255 . S
Cd58 O57 2.385 . S
Cd58 O59 2.317 . S
O59 Cd58 2.317 . S
O59 C60 1.232 . S
C60 O59 1.232 . S
C60 O61 1.218 . S
O61 C60 1.218 . S
C62 O55 1.275 . S
C62 O57 1.255 . S
C63 O64 1.258 . S
C63 O65 1.256 . S
O64 Cd56 2.381 . S
O64 C63 1.258 . S
O65 Cd56 2.378 . S
O65 C63 1.256 . S
O66 Cd67 2.300 . S
O66 C73 1.275 . S
Cd67 O66 2.300 . S
Cd67 O75 2.381 . S
Cd67 O76 2.378 . S
O68 Cd69 2.385 . S
O68 C73 1.255 . S
Cd69 O68 2.385 . S
Cd69 O70 2.317 . S
O70 Cd69 2.317 . S
O70 C71 1.232 . S
C71 O70 1.232 . S
C71 O72 1.218 . S
O72 C71 1.218 . S
C73 O66 1.275 . S
C73 O68 1.255 . S
C74 O75 1.258 . S
C74 O76 1.256 . S
O75 Cd67 2.381 . S
O75 C74 1.258 . S
O76 Cd67 2.378 . S
O76 C74 1.256 . S
O77 Cd78 2.300 . S
O77 C84 1.275 . S
Cd78 O77 2.300 . S
Cd78 O86 2.381 . S
Cd78 O87 2.378 . S
O79 Cd80 2.385 . S
O79 C84 1.255 . S
Cd80 O79 2.385 . S
Cd80 O81 2.317 . S
O81 Cd80 2.317 . S
O81 C82 1.232 . S
C82 O81 1.232 . S
C82 O83 1.218 . S
O83 C82 1.218 . S
C84 O77 1.275 . S
C84 O79 1.255 . S
C85 O86 1.258 . S
C85 O87 1.256 . S
O86 Cd78 2.381 . S
O86 C85 1.258 . S
O87 Cd78 2.378 . S
O87 C85 1.256 . S
O88 Cd89 2.300 . S
O88 C95 1.275 . S
Cd89 O88 2.300 . S
Cd89 O97 2.381 . S
Cd89 O98 2.378 . S
O90 Cd91 2.385 . S
O90 C95 1.255 . S
Cd91 O90 2.385 . S
Cd91 O92 2.317 . S
O92 Cd91 2.317 . S
O92 C93 1.232 . S
C93 O92 1.232 . S
C93 O94 1.218 . S
O94 C93 1.218 . S
C95 O88 1.275 . S
C95 O90 1.255 . S
C96 O97 1.258 . S
C96 O98 1.256 . S
O97 Cd89 2.381 . S
O97 C96 1.258 . S
O98 Cd89 2.378 . S
O98 C96 1.256 . S
O99 Cd100 2.300 . S
O99 C106 1.275 . S
Cd100 O99 2.300 . S
Cd100 O108 2.381 . S
Cd100 O109 2.378 . S
O101 Cd102 2.385 . S
O101 C106 1.255 . S
Cd102 O101 2.385 . S
Cd102 O103 2.317 . S
O103 Cd102 2.317 . S
O103 C104 1.232 . S
C104 O103 1.232 . S
C104 O105 1.218 . S
O105 C104 1.218 . S
C106 O99 1.275 . S
C106 O101 1.255 . S
C107 O108 1.258 . S
C107 O109 1.256 . S
O108 Cd100 2.381 . S
O108 C107 1.258 . S
O109 Cd100 2.378 . S
O109 C107 1.256 . S
O110 Cd111 2.300 . S
O110 C117 1.275 . S
Cd111 O110 2.300 . S
Cd111 O119 2.381 . S
Cd111 O120 2.378 . S
O112 Cd113 2.385 . S
O112 C117 1.255 . S
Cd113 O112 2.385 . S
Cd113 O114 2.317 . S
O114 Cd113 2.317 . S
O114 C115 1.232 . S
C115 O114 1.232 . S
C115 O116 1.218 . S
O116 C115 1.218 . S
C117 O110 1.275 . S
C117 O112 1.255 . S
C118 O119 1.258 . S
C118 O120 1.256 . S
O119 Cd111 2.381 . S
O119 C118 1.258 . S
O120 Cd111 2.378 . S
O120 C118 1.256 . S
O121 Cd122 2.300 . S
O121 C128 1.275 . S
Cd122 O121 2.300 . S
Cd122 O130 2.381 . S
Cd122 O131 2.378 . S
O123 Cd124 2.385 . S
O123 C128 1.255 . S
Cd124 O123 2.385 . S
Cd124 O125 2.317 . S
O125 Cd124 2.317 . S
O125 C126 1.232 . S
C126 O125 1.232 . S
C126 O127 1.218 . S
O127 C126 1.218 . S
C128 O121 1.275 . S
C128 O123 1.255 . S
C129 O130 1.258 . S
C129 O131 1.256 . S
O130 Cd122 2.381 . S
O130 C129 1.258 . S
O131 Cd122 2.378 . S
O131 C129 1.256 . S
O132 Cd133 2.300 . S
O132 C139 1.275 . S
Cd133 O132 2.300 . S
Cd133 O141 2.381 . S
Cd133 O142 2.378 . S
O134 Cd135 2.385 . S
O134 C139 1.255 . S
Cd135 O134 2.385 . S
Cd135 O136 2.317 . S
O136 Cd135 2.317 . S
O136 C137 1.232 . S
C137 O136 1.232 . S
C137 O138 1.218 . S
O138 C137 1.218 . S
C139 O132 1.275 . S
C139 O134 1.255 . S
C140 O141 1.258 . S
C140 O142 1.256 . S
O141 Cd133 2.381 . S
O141 C140 1.258 . S
O142 Cd133 2.378 . S
O142 C140 1.256 . S
O143 Cd144 2.300 . S
O143 C150 1.275 . S
Cd144 O143 2.300 . S
Cd144 O152 2.381 . S
Cd144 O153 2.378 . S
O145 Cd146 2.385 . S
O145 C150 1.255 . S
Cd146 O145 2.385 . S
Cd146 O147 2.317 . S
O147 Cd146 2.317 . S
O147 C148 1.232 . S
C148 O147 1.232 . S
C148 O149 1.218 . S
O149 C148 1.218 . S
C150 O143 1.275 . S
C150 O145 1.255 . S
C151 O152 1.258 . S
C151 O153 1.256 . S
O152 Cd144 2.381 . S
O152 C151 1.258 . S
O153 Cd144 2.378 . S
O153 C151 1.256 . S
O154 Cd155 2.300 . S
O154 C161 1.275 . S
Cd155 O154 2.300 . S
Cd155 O163 2.381 . S
Cd155 O164 2.378 . S
O156 Cd157 2.385 . S
O156 C161 1.255 . S
Cd157 O156 2.385 . S
Cd157 O158 2.317 . S
O158 Cd157 2.317 . S
O158 C159 1.232 . S
C159 O158 1.232 . S
C159 O160 1.218 . S
O160 C159 1.218 . S
C161 O154 1.275 . S
C161 O156 1.255 . S
C162 O163 1.258 . S
C162 O164 1.256 . S
O163 Cd155 2.381 . S
O163 C162 1.258 . S
O164 Cd155 2.378 . S
O164 C162 1.256 . S
O165 Cd166 2.300 . S
O165 C172 1.275 . S
Cd166 O165 2.300 . S
Cd166 O174 2.381 . S
Cd166 O175 2.378 . S
O167 Cd168 2.385 . S
O167 C172 1.255 . S
Cd168 O167 2.385 . S
Cd168 O169 2.317 . S
O169 Cd168 2.317 . S
O169 C170 1.232 . S
C170 O169 1.232 . S
C170 O171 1.218 . S
O171 C170 1.218 . S
C172 O165 1.275 . S
C172 O167 1.255 . S
C173 O174 1.258 . S
C173 O175 1.256 . S
O174 Cd166 2.381 . S
O174 C173 1.258 . S
O175 Cd166 2.378 . S
O175 C173 1.256 . S
O176 Cd177 2.300 . S
O176 C183 1.275 . S
Cd177 O176 2.300 . S
Cd177 O185 2.381 . S
Cd177 O186 2.378 . S
O178 Cd179 2.385 . S
O178 C183 1.255 . S
Cd179 O178 2.385 . S
Cd179 O180 2.317 . S
O180 Cd179 2.317 . S
O180 C181 1.232 . S
C181 O180 1.232 . S
C181 O182 1.218 . S
O182 C181 1.218 . S
C183 O176 1.275 . S
C183 O178 1.255 . S
C184 O185 1.258 . S
C184 O186 1.256 . S
O185 Cd177 2.381 . S
O185 C184 1.258 . S
O186 Cd177 2.378 . S
O186 C184 1.256 . S
O187 Cd188 2.300 . S
O187 C194 1.275 . S
Cd188 O187 2.300 . S
Cd188 O196 2.381 . S
Cd188 O197 2.378 . S
O189 Cd190 2.385 . S
O189 C194 1.255 . S
Cd190 O189 2.385 . S
Cd190 O191 2.317 . S
O191 Cd190 2.317 . S
O191 C192 1.232 . S
C192 O191 1.232 . S
C192 O193 1.218 . S
O193 C192 1.218 . S
C194 O187 1.275 . S
C194 O189 1.255 . S
C195 O196 1.258 . S
C195 O197 1.256 . S
O196 Cd188 2.381 . S
O196 C195 1.258 . S
O197 Cd188 2.378 . S
O197 C195 1.256 . S
C198 Eu199 2.835 . S
C198 C200 1.500 1_545 S
C198 O218 1.257 1_545 S
C198 O219 1.260 . S
Eu199 C198 2.835 . S
Eu199 O218 2.473 1_545 S
Eu199 O219 2.480 . S
Eu199 O220 2.430 . S
Eu199 O221 2.666 1_554 S
Eu199 O222 2.394 1_545 S
Eu199 O227 2.355 1_545 S
Eu199 O229 2.374 . S
C200 C198 1.500 1_565 S
C200 C201 1.377 1_565 S
C200 C205 1.377 . S
C201 C200 1.377 1_545 S
C201 C202 1.395 . S
C201 H230 0.931 . S
C202 C201 1.395 . S
C202 C203 1.383 1_545 S
C202 H231 0.931 . S
C203 C202 1.383 1_565 S
C203 C204 1.394 . S
C204 C203 1.394 . S
C204 C205 1.378 . S
C204 H232 0.931 . S
C205 C200 1.377 . S
C205 C204 1.378 . S
C205 H233 0.931 . S
C206 O220 1.259 . S
C206 O221 1.268 1_554 S
C207 O222 1.251 . S
C207 O223 1.251 1_554 S
C208 Eu209 2.834 1_545 S
C208 C210 1.501 . S
C208 O224 1.261 . S
C208 O225 1.256 1_545 S
Eu209 C208 2.834 1_565 S
Eu209 O221 2.358 1_565 S
Eu209 O223 2.374 . S
Eu209 O224 2.473 1_565 S
Eu209 O225 2.480 . S
Eu209 O226 2.430 . S
Eu209 O227 2.670 1_556 S
Eu209 O228 2.394 1_565 S
C210 C208 1.501 . S
C210 C211 1.377 1_545 S
C210 C215 1.377 . S
C211 C210 1.377 1_565 S
C211 C212 1.395 . S
C211 H234 0.931 . S
C212 C211 1.395 . S
C212 C213 1.383 1_565 S
C212 H235 0.931 . S
C213 C212 1.383 1_545 S
C213 C214 1.394 . S
C214 C213 1.394 . S
C214 C215 1.378 . S
C214 H236 0.931 . S
C215 C210 1.377 . S
C215 C214 1.378 . S
C215 H237 0.931 . S
C216 O226 1.259 1_554 S
C216 O227 1.270 . S
C217 O228 1.251 . S
C217 O229 1.251 1_556 S
O218 C198 1.257 1_565 S
O218 Eu199 2.473 1_565 S
O219 C198 1.260 . S
O219 Eu199 2.480 . S
O220 Eu199 2.430 . S
O220 C206 1.259 . S
O221 Eu199 2.666 1_556 S
O221 C206 1.268 1_556 S
O221 Eu209 2.358 1_545 S
O222 Eu199 2.394 1_565 S
O222 C207 1.251 . S
O223 C207 1.251 1_556 S
O223 Eu209 2.374 . S
O224 C208 1.261 . S
O224 Eu209 2.473 1_545 S
O225 C208 1.256 1_565 S
O225 Eu209 2.480 . S
O226 Eu209 2.430 . S
O226 C216 1.259 1_556 S
O227 Eu199 2.355 1_565 S
O227 Eu209 2.670 1_554 S
O227 C216 1.270 . S
O228 Eu209 2.394 1_545 S
O228 C217 1.251 . S
O229 Eu199 2.374 . S
O229 C217 1.251 1_554 S
H230 C201 0.931 . S
H231 C202 0.931 . S
H232 C204 0.931 . S
H233 C205 0.931 . S
H234 C211 0.931 . S
H235 C212 0.931 . S
H236 C214 0.931 . S
H237 C215 0.931 . S
C238 Eu239 2.835 1_455 S
C238 C240 1.500 . S
C238 O258 1.257 . S
C238 O259 1.260 1_455 S
Eu239 C238 2.835 1_655 S
Eu239 O258 2.473 1_655 S
Eu239 O259 2.480 . S
Eu239 O260 2.430 . S
Eu239 O261 2.665 . S
Eu239 O262 2.394 1_655 S
Eu239 O267 2.355 1_655 S
Eu239 O269 2.374 . S
C240 C238 1.500 . S
C240 C241 1.377 . S
C240 C245 1.377 . S
C241 C240 1.377 . S
C241 C242 1.395 . S
C241 H270 0.931 1_455 S
C242 C241 1.395 . S
C242 C243 1.383 . S
C242 H271 0.931 . S
C243 C242 1.383 . S
C243 C244 1.394 . S
C244 C243 1.394 . S
C244 C245 1.378 . S
C244 H272 0.931 . S
C245 C240 1.377 . S
C245 C244 1.378 . S
C245 H273 0.931 . S
C246 O260 1.259 . S
C246 O261 1.266 . S
C247 O262 1.251 . S
C247 O263 1.251 . S
C248 Eu249 2.835 1_655 S
C248 C250 1.500 . S
C248 O264 1.257 . S
C248 O265 1.260 1_655 S
Eu249 C248 2.835 1_455 S
Eu249 O261 2.359 1_456 S
Eu249 O263 2.374 1_556 S
Eu249 O264 2.473 1_455 S
Eu249 O265 2.480 . S
Eu249 O266 2.430 . S
Eu249 O267 2.670 1_556 S
Eu249 O268 2.394 1_455 S
C250 C248 1.500 . S
C250 C251 1.377 . S
C250 C255 1.377 . S
C251 C250 1.377 . S
C251 C252 1.395 . S
C251 H274 0.931 1_655 S
C252 C251 1.395 . S
C252 C253 1.383 . S
C252 H275 0.946 . S
C253 C252 1.383 . S
C253 C254 1.394 . S
C254 C253 1.394 . S
C254 C255 1.378 . S
C254 H276 0.931 . S
C255 C250 1.377 . S
C255 C254 1.378 . S
C255 H277 0.931 . S
C256 O266 1.259 1_554 S
C256 O267 1.270 . S
C257 O268 1.251 . S
C257 O269 1.251 1_556 S
O258 C238 1.257 . S
O258 Eu239 2.473 1_455 S
O259 C238 1.260 1_655 S
O259 Eu239 2.480 . S
O260 Eu239 2.430 . S
O260 C246 1.259 . S
O261 Eu239 2.665 . S
O261 C246 1.266 . S
O261 Eu249 2.359 1_654 S
O262 Eu239 2.394 1_455 S
O262 C247 1.251 . S
O263 C247 1.251 . S
O263 Eu249 2.374 1_554 S
O264 C248 1.257 . S
O264 Eu249 2.473 1_655 S
O265 C248 1.260 1_455 S
O265 Eu249 2.480 . S
O266 Eu249 2.430 . S
O266 C256 1.259 1_556 S
O267 Eu239 2.355 1_455 S
O267 Eu249 2.670 1_554 S
O267 C256 1.270 . S
O268 Eu249 2.394 1_655 S
O268 C257 1.251 . S
O269 Eu239 2.374 . S
O269 C257 1.251 1_554 S
H270 C241 0.931 1_655 S
H271 C242 0.931 . S
H272 C244 0.931 . S
H273 C245 0.931 . S
H274 C251 0.931 1_455 S
H275 C252 0.946 . S
H276 C254 0.931 . S
H277 C255 0.931 . S
C278 Eu279 2.835 . S
C278 C280 1.500 . S
C278 O298 1.257 . S
C278 O299 1.260 . S
Eu279 C278 2.835 . S
Eu279 O298 2.473 . S
Eu279 O299 2.480 . S
Eu279 O300 2.430 . S
Eu279 O301 2.670 1_556 S
Eu279 O302 2.394 . S
Eu279 O307 2.355 . S
Eu279 O309 2.374 . S
C280 C278 1.500 . S
C280 C281 1.377 . S
C280 C285 1.377 . S
C281 C280 1.377 . S
C281 C282 1.395 . S
C281 H310 0.931 . S
C282 C281 1.395 . S
C282 C283 1.383 . S
C282 H311 0.931 . S
C283 C282 1.383 . S
C283 C284 1.394 . S
C284 C283 1.394 . S
C284 C285 1.378 . S
C284 H312 0.931 . S
C285 C280 1.377 . S
C285 C284 1.378 . S
C285 H313 0.931 . S
C286 O300 1.259 1_554 S
C286 O301 1.270 . S
C287 O302 1.251 . S
C287 O303 1.251 1_556 S
C288 Eu289 2.835 . S
C288 C290 1.500 . S
C288 O304 1.257 . S
C288 O305 1.260 . S
Eu289 C288 2.835 . S
Eu289 O301 2.355 . S
Eu289 O303 2.374 . S
Eu289 O304 2.473 . S
Eu289 O305 2.480 . S
Eu289 O306 2.430 . S
Eu289 O307 2.670 1_554 S
Eu289 O308 2.394 . S
C290 C288 1.500 . S
C290 C291 1.377 . S
C290 C295 1.377 . S
C291 C290 1.377 . S
C291 C292 1.395 . S
C291 H314 0.931 . S
C292 C291 1.395 . S
C292 C293 1.383 . S
C292 H315 0.931 . S
C293 C292 1.383 . S
C293 C294 1.394 . S
C294 C293 1.394 . S
C294 C295 1.378 . S
C294 H316 0.931 . S
C295 C290 1.377 . S
C295 C294 1.378 . S
C295 H317 0.931 . S
C296 O306 1.259 . S
C296 O307 1.270 1_554 S
C297 O308 1.251 . S
C297 O309 1.251 1_554 S
O298 C278 1.257 . S
O298 Eu279 2.473 . S
O299 C278 1.260 . S
O299 Eu279 2.480 . S
O300 Eu279 2.430 . S
O300 C286 1.259 1_556 S
O301 Eu279 2.670 1_554 S
O301 C286 1.270 . S
O301 Eu289 2.355 . S
O302 Eu279 2.394 . S
O302 C287 1.251 . S
O303 C287 1.251 1_554 S
O303 Eu289 2.374 . S
O304 C288 1.257 . S
O304 Eu289 2.473 . S
O305 C288 1.260 . S
O305 Eu289 2.480 . S
O306 Eu289 2.430 . S
O306 C296 1.259 . S
O307 Eu279 2.355 . S
O307 Eu289 2.670 1_556 S
O307 C296 1.270 1_556 S
O308 Eu289 2.394 . S
O308 C297 1.251 . S
O309 Eu279 2.374 . S
O309 C297 1.251 1_556 S
H310 C281 0.931 . S
H311 C282 0.931 . S
H312 C284 0.931 . S
H313 C285 0.931 . S
H314 C291 0.931 . S
H315 C292 0.931 . S
H316 C294 0.931 . S
H317 C295 0.931 . S
C318 Eu319 2.835 . S
C318 C320 1.500 . S
C318 O338 1.257 . S
C318 O339 1.260 . S
Eu319 C318 2.835 . S
Eu319 O338 2.473 . S
Eu319 O339 2.480 . S
Eu319 O340 2.430 . S
Eu319 O341 2.670 . S
Eu319 O342 2.394 . S
Eu319 O347 2.355 . S
Eu319 O349 2.374 . S
C320 C318 1.500 . S
C320 C321 1.377 . S
C320 C325 1.377 . S
C321 C320 1.377 . S
C321 C322 1.395 . S
C321 H350 0.931 . S
C322 C321 1.395 . S
C322 C323 1.383 . S
C322 H351 0.931 . S
C323 C322 1.383 . S
C323 C324 1.394 . S
C324 C323 1.394 . S
C324 C325 1.378 . S
C324 H352 0.931 . S
C325 C320 1.377 . S
C325 C324 1.378 . S
C325 H353 0.931 . S
C326 O340 1.259 . S
C326 O341 1.270 . S
C327 O342 1.251 . S
C327 O343 1.251 . S
C328 Eu329 2.835 . S
C328 C330 1.500 . S
C328 O344 1.257 . S
C328 O345 1.260 . S
Eu329 C328 2.835 . S
Eu329 O341 2.355 . S
Eu329 O343 2.374 . S
Eu329 O344 2.473 . S
Eu329 O345 2.480 . S
Eu329 O346 2.430 . S
Eu329 O347 2.670 . S
Eu329 O348 2.394 . S
C330 C328 1.500 . S
C330 C331 1.377 . S
C330 C335 1.377 . S
C331 C330 1.377 . S
C331 C332 1.395 . S
C331 H354 0.931 . S
C332 C331 1.395 . S
C332 C333 1.383 . S
C332 H355 0.931 . S
C333 C332 1.383 . S
C333 C334 1.394 . S
C334 C333 1.394 . S
C334 C335 1.378 . S
C334 H356 0.931 . S
C335 C330 1.377 . S
C335 C334 1.378 . S
C335 H357 0.931 . S
C336 O346 1.259 . S
C336 O347 1.270 . S
C337 O348 1.251 . S
C337 O349 1.251 . S
O338 C318 1.257 . S
O338 Eu319 2.473 . S
O339 C318 1.260 . S
O339 Eu319 2.480 . S
O340 Eu319 2.430 . S
O340 C326 1.259 . S
O341 Eu319 2.670 . S
O341 C326 1.270 . S
O341 Eu329 2.355 . S
O342 Eu319 2.394 . S
O342 C327 1.251 . S
O343 C327 1.251 . S
O343 Eu329 2.374 . S
O344 C328 1.257 . S
O344 Eu329 2.473 . S
O345 C328 1.260 . S
O345 Eu329 2.480 . S
O346 Eu329 2.430 . S
O346 C336 1.259 . S
O347 Eu319 2.355 . S
O347 Eu329 2.670 . S
O347 C336 1.270 . S
O348 Eu329 2.394 . S
O348 C337 1.251 . S
O349 Eu319 2.374 . S
O349 C337 1.251 . S
H350 C321 0.931 . S
H351 C322 0.931 . S
H352 C324 0.931 . S
H353 C325 0.931 . S
H354 C331 0.931 . S
H355 C332 0.931 . S
H356 C334 0.931 . S
H357 C335 0.931 . S
C358 Eu359 2.835 . S
C358 C360 1.500 . S
C358 O378 1.257 . S
C358 O379 1.260 . S
Eu359 C358 2.835 . S
Eu359 O378 2.473 . S
Eu359 O379 2.480 . S
Eu359 O380 2.430 . S
Eu359 O381 2.670 . S
Eu359 O382 2.394 . S
Eu359 O387 2.355 . S
Eu359 O389 2.374 . S
C360 C358 1.500 . S
C360 C361 1.377 . S
C360 C365 1.377 . S
C361 C360 1.377 . S
C361 C362 1.395 . S
C361 H390 0.931 . S
C362 C361 1.395 . S
C362 C363 1.383 . S
C362 H391 0.931 . S
C363 C362 1.383 . S
C363 C364 1.394 . S
C364 C363 1.394 . S
C364 C365 1.378 . S
C364 H392 0.931 . S
C365 C360 1.377 . S
C365 C364 1.378 . S
C365 H393 0.931 . S
C366 O380 1.259 . S
C366 O381 1.270 . S
C367 O382 1.251 . S
C367 O383 1.251 . S
C368 Eu369 2.835 . S
C368 C370 1.500 . S
C368 O384 1.257 . S
C368 O385 1.260 . S
Eu369 C368 2.835 . S
Eu369 O381 2.355 . S
Eu369 O383 2.374 . S
Eu369 O384 2.473 . S
Eu369 O385 2.480 . S
Eu369 O386 2.430 . S
Eu369 O387 2.670 . S
Eu369 O388 2.394 . S
C370 C368 1.500 . S
C370 C371 1.377 . S
C370 C375 1.377 . S
C371 C370 1.377 . S
C371 C372 1.395 . S
C371 H394 0.931 . S
C372 C371 1.395 . S
C372 C373 1.383 . S
C372 H395 0.931 . S
C373 C372 1.383 . S
C373 C374 1.394 . S
C374 C373 1.394 . S
C374 C375 1.378 . S
C374 H396 0.931 . S
C375 C370 1.377 . S
C375 C374 1.378 . S
C375 H397 0.931 . S
C376 O386 1.259 . S
C376 O387 1.270 . S
C377 O388 1.251 . S
C377 O389 1.251 . S
O378 C358 1.257 . S
O378 Eu359 2.473 . S
O379 C358 1.260 . S
O379 Eu359 2.480 . S
O380 Eu359 2.430 . S
O380 C366 1.259 . S
O381 Eu359 2.670 . S
O381 C366 1.270 . S
O381 Eu369 2.355 . S
O382 Eu359 2.394 . S
O382 C367 1.251 . S
O383 C367 1.251 . S
O383 Eu369 2.374 . S
O384 C368 1.257 . S
O384 Eu369 2.473 . S
O385 C368 1.260 . S
O385 Eu369 2.480 . S
O386 Eu369 2.430 . S
O386 C376 1.259 . S
O387 Eu359 2.355 . S
O387 Eu369 2.670 . S
O387 C376 1.270 . S
O388 Eu369 2.394 . S
O388 C377 1.251 . S
O389 Eu359 2.374 . S
O389 C377 1.251 . S
H390 C361 0.931 . S
H391 C362 0.931 . S
H392 C364 0.931 . S
H393 C365 0.931 . S
H394 C371 0.931 . S
H395 C372 0.931 . S
H396 C374 0.931 . S
H397 C375 0.931 . S
C398 Eu399 2.835 . S
C398 C400 1.500 . S
C398 O418 1.257 . S
C398 O419 1.260 . S
Eu399 C398 2.835 . S
Eu399 O418 2.473 . S
Eu399 O419 2.480 . S
Eu399 O420 2.430 . S
Eu399 O421 2.670 . S
Eu399 O422 2.394 . S
Eu399 O427 2.355 . S
Eu399 O429 2.374 . S
C400 C398 1.500 . S
C400 C401 1.377 . S
C400 C405 1.377 . S
C401 C400 1.377 . S
C401 C402 1.395 . S
C401 H430 0.931 . S
C402 C401 1.395 . S
C402 C403 1.383 . S
C402 H431 0.931 . S
C403 C402 1.383 . S
C403 C404 1.394 . S
C404 C403 1.394 . S
C404 C405 1.378 . S
C404 H432 0.931 . S
C405 C400 1.377 . S
C405 C404 1.378 . S
C405 H433 0.931 . S
C406 O420 1.259 . S
C406 O421 1.270 . S
C407 O422 1.251 . S
C407 O423 1.251 . S
C408 Eu409 2.835 . S
C408 C410 1.500 . S
C408 O424 1.257 . S
C408 O425 1.260 . S
Eu409 C408 2.835 . S
Eu409 O421 2.355 . S
Eu409 O423 2.374 . S
Eu409 O424 2.473 . S
Eu409 O425 2.480 . S
Eu409 O426 2.430 . S
Eu409 O427 2.670 . S
Eu409 O428 2.394 . S
C410 C408 1.500 . S
C410 C411 1.377 . S
C410 C415 1.377 . S
C411 C410 1.377 . S
C411 C412 1.395 . S
C411 H434 0.931 . S
C412 C411 1.395 . S
C412 C413 1.383 . S
C412 H435 0.931 . S
C413 C412 1.383 . S
C413 C414 1.394 . S
C414 C413 1.394 . S
C414 C415 1.378 . S
C414 H436 0.931 . S
C415 C410 1.377 . S
C415 C414 1.378 . S
C415 H437 0.931 . S
C416 O426 1.259 . S
C416 O427 1.270 . S
C417 O428 1.251 . S
C417 O429 1.251 . S
O418 C398 1.257 . S
O418 Eu399 2.473 . S
O419 C398 1.260 . S
O419 Eu399 2.480 . S
O420 Eu399 2.430 . S
O420 C406 1.259 . S
O421 Eu399 2.670 . S
O421 C406 1.270 . S
O421 Eu409 2.355 . S
O422 Eu399 2.394 . S
O422 C407 1.251 . S
O423 C407 1.251 . S
O423 Eu409 2.374 . S
O424 C408 1.257 . S
O424 Eu409 2.473 . S
O425 C408 1.260 . S
O425 Eu409 2.480 . S
O426 Eu409 2.430 . S
O426 C416 1.259 . S
O427 Eu399 2.355 . S
O427 Eu409 2.670 . S
O427 C416 1.270 . S
O428 Eu409 2.394 . S
O428 C417 1.251 . S
O429 Eu399 2.374 . S
O429 C417 1.251 . S
H430 C401 0.931 . S
H431 C402 0.931 . S
H432 C404 0.931 . S
H433 C405 0.931 . S
H434 C411 0.931 . S
H435 C412 0.931 . S
H436 C414 0.931 . S
H437 C415 0.931 . S
C438 Eu439 2.835 . S
C438 C440 1.500 . S
C438 O458 1.257 . S
C438 O459 1.260 . S
Eu439 C438 2.835 . S
Eu439 O458 2.473 . S
Eu439 O459 2.480 . S
Eu439 O460 2.430 . S
Eu439 O461 2.670 . S
Eu439 O462 2.394 . S
Eu439 O467 2.355 . S
Eu439 O469 2.374 . S
C440 C438 1.500 . S
C440 C441 1.377 . S
C440 C445 1.377 . S
C441 C440 1.377 . S
C441 C442 1.395 . S
C441 H470 0.931 . S
C442 C441 1.395 . S
C442 C443 1.383 . S
C442 H471 0.931 . S
C443 C442 1.383 . S
C443 C444 1.394 . S
C444 C443 1.394 . S
C444 C445 1.378 . S
C444 H472 0.931 . S
C445 C440 1.377 . S
C445 C444 1.378 . S
C445 H473 0.931 . S
C446 O460 1.259 . S
C446 O461 1.270 . S
C447 O462 1.251 . S
C447 O463 1.251 . S
C448 Eu449 2.835 . S
C448 C450 1.500 . S
C448 O464 1.257 . S
C448 O465 1.260 . S
Eu449 C448 2.835 . S
Eu449 O461 2.355 . S
Eu449 O463 2.374 . S
Eu449 O464 2.473 . S
Eu449 O465 2.480 . S
Eu449 O466 2.430 . S
Eu449 O467 2.670 . S
Eu449 O468 2.394 . S
C450 C448 1.500 . S
C450 C451 1.377 . S
C450 C455 1.377 . S
C451 C450 1.377 . S
C451 C452 1.395 . S
C451 H474 0.931 . S
C452 C451 1.395 . S
C452 C453 1.383 . S
C452 H475 0.931 . S
C453 C452 1.383 . S
C453 C454 1.394 . S
C454 C453 1.394 . S
C454 C455 1.378 . S
C454 H476 0.931 . S
C455 C450 1.377 . S
C455 C454 1.378 . S
C455 H477 0.931 . S
C456 O466 1.259 . S
C456 O467 1.270 . S
C457 O468 1.251 . S
C457 O469 1.251 . S
O458 C438 1.257 . S
O458 Eu439 2.473 . S
O459 C438 1.260 . S
O459 Eu439 2.480 . S
O460 Eu439 2.430 . S
O460 C446 1.259 . S
O461 Eu439 2.670 . S
O461 C446 1.270 . S
O461 Eu449 2.355 . S
O462 Eu439 2.394 . S
O462 C447 1.251 . S
O463 C447 1.251 . S
O463 Eu449 2.374 . S
O464 C448 1.257 . S
O464 Eu449 2.473 . S
O465 C448 1.260 . S
O465 Eu449 2.480 . S
O466 Eu449 2.430 . S
O466 C456 1.259 . S
O467 Eu439 2.355 . S
O467 Eu449 2.670 . S
O467 C456 1.270 . S
O468 Eu449 2.394 . S
O468 C457 1.251 . S
O469 Eu439 2.374 . S
O469 C457 1.251 . S
H470 C441 0.931 . S
H471 C442 0.931 . S
H472 C444 0.931 . S
H473 C445 0.931 . S
H474 C451 0.931 . S
H475 C452 0.931 . S
H476 C454 0.931 . S
H477 C455 0.931 . S
C478 Eu479 2.835 . S
C478 C480 1.500 . S
C478 O498 1.257 . S
C478 O499 1.260 . S
Eu479 C478 2.835 . S
Eu479 O498 2.473 . S
Eu479 O499 2.480 . S
Eu479 O500 2.430 . S
Eu479 O501 2.670 . S
Eu479 O502 2.394 . S
Eu479 O507 2.355 . S
Eu479 O509 2.374 . S
C480 C478 1.500 . S
C480 C481 1.377 . S
C480 C485 1.377 . S
C481 C480 1.377 . S
C481 C482 1.395 . S
C481 H510 0.931 . S
C482 C481 1.395 . S
C482 C483 1.383 . S
C482 H511 0.931 . S
C483 C482 1.383 . S
C483 C484 1.394 . S
C484 C483 1.394 . S
C484 C485 1.378 . S
C484 H512 0.931 . S
C485 C480 1.377 . S
C485 C484 1.378 . S
C485 H513 0.931 . S
C486 O500 1.259 . S
C486 O501 1.270 . S
C487 O502 1.251 . S
C487 O503 1.251 . S
C488 Eu489 2.835 . S
C488 C490 1.500 . S
C488 O504 1.257 . S
C488 O505 1.260 . S
Eu489 C488 2.835 . S
Eu489 O501 2.355 . S
Eu489 O503 2.374 . S
Eu489 O504 2.473 . S
Eu489 O505 2.480 . S
Eu489 O506 2.430 . S
Eu489 O507 2.670 . S
Eu489 O508 2.394 . S
C490 C488 1.500 . S
C490 C491 1.377 . S
C490 C495 1.377 . S
C491 C490 1.377 . S
C491 C492 1.395 . S
C491 H514 0.931 . S
C492 C491 1.395 . S
C492 C493 1.383 . S
C492 H515 0.931 . S
C493 C492 1.383 . S
C493 C494 1.394 . S
C494 C493 1.394 . S
C494 C495 1.378 . S
C494 H516 0.931 . S
C495 C490 1.377 . S
C495 C494 1.378 . S
C495 H517 0.931 . S
C496 O506 1.259 . S
C496 O507 1.270 . S
C497 O508 1.251 . S
C497 O509 1.251 . S
O498 C478 1.257 . S
O498 Eu479 2.473 . S
O499 C478 1.260 . S
O499 Eu479 2.480 . S
O500 Eu479 2.430 . S
O500 C486 1.259 . S
O501 Eu479 2.670 . S
O501 C486 1.270 . S
O501 Eu489 2.355 . S
O502 Eu479 2.394 . S
O502 C487 1.251 . S
O503 C487 1.251 . S
O503 Eu489 2.374 . S
O504 C488 1.257 . S
O504 Eu489 2.473 . S
O505 C488 1.260 . S
O505 Eu489 2.480 . S
O506 Eu489 2.430 . S
O506 C496 1.259 . S
O507 Eu479 2.355 . S
O507 Eu489 2.670 . S
O507 C496 1.270 . S
O508 Eu489 2.394 . S
O508 C497 1.251 . S
O509 Eu479 2.374 . S
O509 C497 1.251 . S
H510 C481 0.931 . S
H511 C482 0.931 . S
H512 C484 0.931 . S
H513 C485 0.931 . S
H514 C491 0.931 . S
H515 C492 0.931 . S
H516 C494 0.931 . S
H517 C495 0.931 . S
C518 Eu519 2.835 . S
C518 C520 1.500 . S
C518 O538 1.257 . S
C518 O539 1.260 . S
Eu519 C518 2.835 . S
Eu519 O538 2.473 . S
Eu519 O539 2.480 . S
Eu519 O540 2.430 . S
Eu519 O541 2.670 . S
Eu519 O542 2.394 . S
Eu519 O547 2.355 . S
Eu519 O549 2.374 . S
C520 C518 1.500 . S
C520 C521 1.377 . S
C520 C525 1.377 . S
C521 C520 1.377 . S
C521 C522 1.395 . S
C521 H550 0.931 . S
C522 C521 1.395 . S
C522 C523 1.383 . S
C522 H551 0.931 . S
C523 C522 1.383 . S
C523 C524 1.394 . S
C524 C523 1.394 . S
C524 C525 1.378 . S
C524 H552 0.931 . S
C525 C520 1.377 . S
C525 C524 1.378 . S
C525 H553 0.931 . S
C526 O540 1.259 . S
C526 O541 1.270 . S
C527 O542 1.251 . S
C527 O543 1.251 . S
C528 Eu529 2.835 . S
C528 C530 1.500 . S
C528 O544 1.257 . S
C528 O545 1.260 . S
Eu529 C528 2.835 . S
Eu529 O541 2.355 . S
Eu529 O543 2.374 . S
Eu529 O544 2.473 . S
Eu529 O545 2.480 . S
Eu529 O546 2.430 . S
Eu529 O547 2.670 . S
Eu529 O548 2.394 . S
C530 C528 1.500 . S
C530 C531 1.377 . S
C530 C535 1.377 . S
C531 C530 1.377 . S
C531 C532 1.395 . S
C531 H554 0.931 . S
C532 C531 1.395 . S
C532 C533 1.383 . S
C532 H555 0.931 . S
C533 C532 1.383 . S
C533 C534 1.394 . S
C534 C533 1.394 . S
C534 C535 1.378 . S
C534 H556 0.931 . S
C535 C530 1.377 . S
C535 C534 1.378 . S
C535 H557 0.931 . S
C536 O546 1.259 . S
C536 O547 1.270 . S
C537 O548 1.251 . S
C537 O549 1.251 . S
O538 C518 1.257 . S
O538 Eu519 2.473 . S
O539 C518 1.260 . S
O539 Eu519 2.480 . S
O540 Eu519 2.430 . S
O540 C526 1.259 . S
O541 Eu519 2.670 . S
O541 C526 1.270 . S
O541 Eu529 2.355 . S
O542 Eu519 2.394 . S
O542 C527 1.251 . S
O543 C527 1.251 . S
O543 Eu529 2.374 . S
O544 C528 1.257 . S
O544 Eu529 2.473 . S
O545 C528 1.260 . S
O545 Eu529 2.480 . S
O546 Eu529 2.430 . S
O546 C536 1.259 . S
O547 Eu519 2.355 . S
O547 Eu529 2.670 . S
O547 C536 1.270 . S
O548 Eu529 2.394 . S
O548 C537 1.251 . S
O549 Eu519 2.374 . S
O549 C537 1.251 . S
H550 C521 0.931 . S
H551 C522 0.931 . S
H552 C524 0.931 . S
H553 C525 0.931 . S
H554 C531 0.931 . S
H555 C532 0.931 . S
H556 C534 0.931 . S
H557 C535 0.931 . S
H558 C564 0.930 . S
H559 C567 0.930 . S
H560 C568 0.930 . S
H561 C569 0.930 . S
H562 C572 0.930 . S
H563 C573 0.930 . S
C564 H558 0.930 . S
C564 C565 1.355 . S
C564 C566 1.415 . S
C565 C564 1.355 . S
C565 C567 1.419 . S
C566 C564 1.415 . S
C566 C571 1.425 . S
C566 C573 1.409 . S
C567 H559 0.930 . S
C567 C565 1.419 . S
C567 C568 1.362 . S
C568 H560 0.930 . S
C568 C567 1.362 . S
C568 C571 1.409 . S
C569 H561 0.930 . S
C569 C570 1.355 . S
C569 C571 1.415 . S
C570 C569 1.355 . S
C570 C572 1.419 . S
C571 C566 1.425 . S
C571 C568 1.409 . S
C571 C569 1.415 . S
C572 H562 0.930 . S
C572 C570 1.419 . S
C572 C573 1.362 . S
C573 H563 0.930 . S
C573 C566 1.409 . S
C573 C572 1.362 . S
H574 C580 0.930 . S
H575 C583 0.930 . S
H576 C584 0.930 . S
H577 C585 0.930 . S
H578 C588 0.930 . S
H579 C589 0.930 . S
C580 H574 0.930 . S
C580 C581 1.355 . S
C580 C582 1.415 . S
C581 C580 1.355 . S
C581 C583 1.419 . S
C582 C580 1.415 . S
C582 C587 1.425 . S
C582 C589 1.409 . S
C583 H575 0.930 . S
C583 C581 1.419 . S
C583 C584 1.362 . S
C584 H576 0.930 . S
C584 C583 1.362 . S
C584 C587 1.409 . S
C585 H577 0.930 . S
C585 C586 1.355 . S
C585 C587 1.415 . S
C586 C585 1.355 . S
C586 C588 1.419 . S
C587 C582 1.425 . S
C587 C584 1.409 . S
C587 C585 1.415 . S
C588 H578 0.930 . S
C588 C586 1.419 . S
C588 C589 1.362 . S
C589 H579 0.930 . S
C589 C582 1.409 . S
C589 C588 1.362 . S
H590 C596 0.930 . S
H591 C599 0.933 1_556 S
H592 C600 0.930 1_556 S
H593 C601 0.930 1_556 S
H594 C604 0.930 . S
H595 C605 0.930 . S
C596 H590 0.930 . S
C596 C597 1.355 . S
C596 C598 1.415 . S
C597 C596 1.355 . S
C597 C599 1.419 . S
C598 C596 1.415 . S
C598 C603 1.425 . S
C598 C605 1.409 . S
C599 H591 0.933 1_554 S
C599 C597 1.419 . S
C599 C600 1.362 . S
C600 H592 0.930 1_554 S
C600 C599 1.362 . S
C600 C603 1.409 . S
C601 H593 0.930 1_554 S
C601 C602 1.355 . S
C601 C603 1.415 . S
C602 C601 1.355 . S
C602 C604 1.419 . S
C603 C598 1.425 . S
C603 C600 1.409 . S
C603 C601 1.415 . S
C604 H594 0.930 . S
C604 C602 1.419 . S
C604 C605 1.362 . S
C605 H595 0.930 . S
C605 C598 1.409 . S
C605 C604 1.362 . S
H606 C612 0.930 . S
H607 C615 0.930 . S
H608 C616 0.930 . S
H609 C617 0.930 . S
H610 C620 0.930 . S
H611 C621 0.930 . S
C612 H606 0.930 . S
C612 C613 1.355 . S
C612 C614 1.415 . S
C613 C612 1.355 . S
C613 C615 1.419 . S
C614 C612 1.415 . S
C614 C619 1.425 . S
C614 C621 1.409 . S
C615 H607 0.930 . S
C615 C613 1.419 . S
C615 C616 1.362 . S
C616 H608 0.930 . S
C616 C615 1.362 . S
C616 C619 1.409 . S
C617 H609 0.930 . S
C617 C618 1.355 . S
C617 C619 1.415 . S
C618 C617 1.355 . S
C618 C620 1.419 . S
C619 C614 1.425 . S
C619 C616 1.409 . S
C619 C617 1.415 . S
C620 H610 0.930 . S
C620 C618 1.419 . S
C620 C621 1.362 . S
C621 H611 0.930 . S
C621 C614 1.409 . S
C621 C620 1.362 . S
H622 C628 0.930 . S
H623 C631 0.930 . S
H624 C632 0.930 . S
H625 C633 0.930 . S
H626 C636 0.930 . S
H627 C637 0.930 . S
C628 H622 0.930 . S
C628 C629 1.355 . S
C628 C630 1.415 . S
C629 C628 1.355 . S
C629 C631 1.419 . S
C630 C628 1.415 . S
C630 C635 1.425 . S
C630 C637 1.409 . S
C631 H623 0.930 . S
C631 C629 1.419 . S
C631 C632 1.362 . S
C632 H624 0.930 . S
C632 C631 1.362 . S
C632 C635 1.409 . S
C633 H625 0.930 . S
C633 C634 1.355 . S
C633 C635 1.415 . S
C634 C633 1.355 . S
C634 C636 1.419 . S
C635 C630 1.425 . S
C635 C632 1.409 . S
C635 C633 1.415 . S
C636 H626 0.930 . S
C636 C634 1.419 . S
C636 C637 1.362 . S
C637 H627 0.930 . S
C637 C630 1.409 . S
C637 C636 1.362 . S
H638 C644 0.930 . S
H639 C647 0.930 . S
H640 C648 0.933 1_554 S
H641 C649 0.926 . S
H642 C652 0.926 . S
H643 C653 0.930 . S
C644 H638 0.930 . S
C644 C645 1.355 . S
C644 C646 1.415 . S
C645 C644 1.355 . S
C645 C647 1.419 . S
C646 C644 1.415 . S
C646 C651 1.425 . S
C646 C653 1.409 . S
C647 H639 0.930 . S
C647 C645 1.419 . S
C647 C648 1.362 . S
C648 H640 0.933 1_556 S
C648 C647 1.362 . S
C648 C651 1.409 . S
C649 H641 0.926 . S
C649 C650 1.365 . S
C649 C651 1.410 1_554 S
C650 C649 1.365 . S
C650 C652 1.422 1_554 S
C651 C646 1.425 . S
C651 C648 1.409 . S
C651 C649 1.410 1_556 S
C652 H642 0.926 . S
C652 C650 1.422 1_556 S
C652 C653 1.368 . S
C653 H643 0.930 . S
C653 C646 1.409 . S
C653 C652 1.368 . S
H654 C660 0.930 . S
H655 C663 0.930 . S
H656 C664 0.930 . S
H657 C665 0.930 . S
H658 C668 0.927 . S
H659 C669 0.930 1_554 S
C660 H654 0.930 . S
C660 C661 1.355 . S
C660 C662 1.415 . S
C661 C660 1.355 . S
C661 C663 1.419 . S
C662 C660 1.415 . S
C662 C667 1.425 . S
C662 C669 1.409 . S
C663 H655 0.930 . S
C663 C661 1.419 . S
C663 C664 1.362 . S
C664 H656 0.930 . S
C664 C663 1.362 . S
C664 C667 1.409 . S
C665 H657 0.930 . S
C665 C666 1.355 . S
C665 C667 1.415 . S
C666 C665 1.355 . S
C666 C668 1.420 1_556 S
C667 C662 1.425 . S
C667 C664 1.409 . S
C667 C665 1.415 . S
C668 H658 0.927 . S
C668 C666 1.420 1_554 S
C668 C669 1.364 1_554 S
C669 H659 0.930 1_556 S
C669 C662 1.409 . S
C669 C668 1.364 1_556 S
H670 C676 0.930 . S
H671 C679 0.930 1_554 S
H672 C680 0.930 . S
H673 C681 0.909 1_554 S
H674 C684 0.930 . S
H675 C685 0.930 . S
C676 H670 0.930 . S
C676 C677 1.355 . S
C676 C678 1.415 . S
C677 C676 1.355 . S
C677 C679 1.419 . S
C678 C676 1.415 . S
C678 C683 1.425 . S
C678 C685 1.409 . S
C679 H671 0.930 1_556 S
C679 C677 1.419 . S
C679 C680 1.362 1_556 S
C680 H672 0.930 . S
C680 C679 1.362 1_554 S
C680 C683 1.409 1_554 S
C681 H673 0.909 1_556 S
C681 C682 1.367 . S
C681 C683 1.423 . S
C682 C681 1.367 . S
C682 C684 1.419 . S
C683 C678 1.425 . S
C683 C680 1.409 1_556 S
C683 C681 1.423 . S
C684 H674 0.930 . S
C684 C682 1.419 . S
C684 C685 1.362 . S
C685 H675 0.930 . S
C685 C678 1.409 . S
C685 C684 1.362 . S
H686 C692 0.954 . S
H687 C695 0.930 . S
H688 C696 0.930 . S
H689 C697 0.930 . S
H690 C700 0.930 . S
H691 C701 0.930 . S
C692 H686 0.954 . S
C692 C693 1.355 . S
C692 C694 1.415 . S
C693 C692 1.355 . S
C693 C695 1.419 . S
C694 C692 1.415 . S
C694 C699 1.425 . S
C694 C701 1.409 1_556 S
C695 H687 0.930 . S
C695 C693 1.419 . S
C695 C696 1.362 . S
C696 H688 0.930 . S
C696 C695 1.362 . S
C696 C699 1.409 . S
C697 H689 0.930 . S
C697 C698 1.355 . S
C697 C699 1.415 . S
C698 C697 1.355 . S
C698 C700 1.419 1_556 S
C699 C694 1.425 . S
C699 C696 1.409 . S
C699 C697 1.415 . S
C700 H690 0.930 . S
C700 C698 1.419 1_554 S
C700 C701 1.362 . S
C701 H691 0.930 . S
C701 C694 1.409 1_554 S
C701 C700 1.362 . S
H702 C708 0.930 . S
H703 C711 0.930 . S
H704 C712 0.930 . S
H705 C713 0.930 . S
H706 C716 0.930 . S
H707 C717 0.930 . S
C708 H702 0.930 . S
C708 C709 1.355 . S
C708 C710 1.415 . S
C709 C708 1.355 . S
C709 C711 1.419 . S
C710 C708 1.415 . S
C710 C715 1.425 . S
C710 C717 1.409 . S
C711 H703 0.930 . S
C711 C709 1.419 . S
C711 C712 1.362 . S
C712 H704 0.930 . S
C712 C711 1.362 . S
C712 C715 1.409 . S
C713 H705 0.930 . S
C713 C714 1.355 . S
C713 C715 1.415 . S
C714 C713 1.355 . S
C714 C716 1.419 . S
C715 C710 1.425 . S
C715 C712 1.409 . S
C715 C713 1.415 . S
C716 H706 0.930 . S
C716 C714 1.419 . S
C716 C717 1.362 . S
C717 H707 0.930 . S
C717 C710 1.409 . S
C717 C716 1.362 . S
H718 C724 0.930 . S
H719 C727 0.930 . S
H720 C728 0.930 . S
H721 C729 0.930 . S
H722 C732 0.930 . S
H723 C733 0.930 . S
C724 H718 0.930 . S
C724 C725 1.355 . S
C724 C726 1.415 . S
C725 C724 1.355 . S
C725 C727 1.419 . S
C726 C724 1.415 . S
C726 C731 1.425 . S
C726 C733 1.409 . S
C727 H719 0.930 . S
C727 C725 1.419 . S
C727 C728 1.362 . S
C728 H720 0.930 . S
C728 C727 1.362 . S
C728 C731 1.409 . S
C729 H721 0.930 . S
C729 C730 1.355 . S
C729 C731 1.415 . S
C730 C729 1.355 . S
C730 C732 1.419 . S
C731 C726 1.425 . S
C731 C728 1.409 . S
C731 C729 1.415 . S
C732 H722 0.930 . S
C732 C730 1.419 . S
C732 C733 1.362 . S
C733 H723 0.930 . S
C733 C726 1.409 . S
C733 C732 1.362 . S
H734 C740 0.930 1_556 S
H735 C743 0.930 . S
H736 C744 0.930 . S
H737 C745 0.930 . S
H738 C748 0.930 . S
H739 C749 0.930 . S
C740 H734 0.930 1_554 S
C740 C741 1.355 . S
C740 C742 1.415 . S
C741 C740 1.355 . S
C741 C743 1.419 . S
C742 C740 1.415 . S
C742 C747 1.425 . S
C742 C749 1.409 1_554 S
C743 H735 0.930 . S
C743 C741 1.419 . S
C743 C744 1.362 . S
C744 H736 0.930 . S
C744 C743 1.362 . S
C744 C747 1.409 . S
C745 H737 0.930 . S
C745 C746 1.355 . S
C745 C747 1.415 . S
C746 C745 1.355 . S
C746 C748 1.419 1_554 S
C747 C742 1.425 . S
C747 C744 1.409 . S
C747 C745 1.415 . S
C748 H738 0.930 . S
C748 C746 1.419 1_556 S
C748 C749 1.362 . S
C749 H739 0.930 . S
C749 C742 1.409 1_556 S
C749 C748 1.362 . S
H750 C756 0.930 . S
H751 C759 0.930 . S
H752 C760 0.930 . S
H753 C761 0.930 . S
H754 C764 0.930 . S
H755 C765 0.930 . S
C756 H750 0.930 . S
C756 C757 1.355 . S
C756 C758 1.415 1_655 S
C757 C756 1.355 . S
C757 C759 1.419 . S
C758 C756 1.415 1_455 S
C758 C763 1.425 . S
C758 C765 1.409 . S
C759 H751 0.930 . S
C759 C757 1.419 . S
C759 C760 1.362 1_655 S
C760 H752 0.930 . S
C760 C759 1.362 1_455 S
C760 C763 1.409 . S
C761 H753 0.930 . S
C761 C762 1.355 . S
C761 C763 1.415 . S
C762 C761 1.355 . S
C762 C764 1.419 . S
C763 C758 1.425 . S
C763 C760 1.409 . S
C763 C761 1.415 . S
C764 H754 0.930 . S
C764 C762 1.419 . S
C764 C765 1.362 . S
C765 H755 0.930 . S
C765 C758 1.409 . S
C765 C764 1.362 . S
H766 C772 0.930 . S
H767 C775 0.930 . S
H768 C776 0.930 . S
H769 C777 0.930 . S
H770 C780 0.930 . S
H771 C781 0.930 . S
C772 H766 0.930 . S
C772 C773 1.355 . S
C772 C774 1.415 . S
C773 C772 1.355 . S
C773 C775 1.419 . S
C774 C772 1.415 . S
C774 C779 1.425 . S
C774 C781 1.409 . S
C775 H767 0.930 . S
C775 C773 1.419 . S
C775 C776 1.362 . S
C776 H768 0.930 . S
C776 C775 1.362 . S
C776 C779 1.409 . S
C777 H769 0.930 . S
C777 C778 1.355 . S
C777 C779 1.415 . S
C778 C777 1.355 . S
C778 C780 1.419 . S
C779 C774 1.425 . S
C779 C776 1.409 . S
C779 C777 1.415 . S
C780 H770 0.930 . S
C780 C778 1.419 . S
C780 C781 1.362 . S
C781 H771 0.930 . S
C781 C774 1.409 . S
C781 C780 1.362 . S
H782 C788 0.930 . S
H783 C791 0.930 . S
H784 C792 0.930 . S
H785 C793 0.930 . S
H786 C796 0.930 . S
H787 C797 0.930 . S
C788 H782 0.930 . S
C788 C789 1.355 . S
C788 C790 1.415 1_545 S
C789 C788 1.355 . S
C789 C791 1.419 . S
C790 C788 1.415 1_565 S
C790 C795 1.425 . S
C790 C797 1.409 . S
C791 H783 0.930 . S
C791 C789 1.419 . S
C791 C792 1.362 1_545 S
C792 H784 0.930 . S
C792 C791 1.362 1_565 S
C792 C795 1.409 . S
C793 H785 0.930 . S
C793 C794 1.355 . S
C793 C795 1.415 . S
C794 C793 1.355 . S
C794 C796 1.419 . S
C795 C790 1.425 . S
C795 C792 1.409 . S
C795 C793 1.415 . S
C796 H786 0.930 . S
C796 C794 1.419 . S
C796 C797 1.362 . S
C797 H787 0.930 . S
C797 C790 1.409 . S
C797 C796 1.362 . S
H798 C804 0.930 . S
H799 C807 0.930 . S
H800 C808 0.930 . S
H801 C809 0.930 . S
H802 C812 0.930 . S
H803 C813 0.930 . S
C804 H798 0.930 . S
C804 C805 1.355 . S
C804 C806 1.415 . S
C805 C804 1.355 . S
C805 C807 1.419 . S
C806 C804 1.415 . S
C806 C811 1.425 . S
C806 C813 1.409 . S
C807 H799 0.930 . S
C807 C805 1.419 . S
C807 C808 1.362 . S
C808 H800 0.930 . S
C808 C807 1.362 . S
C808 C811 1.409 . S
C809 H801 0.930 . S
C809 C810 1.355 . S
C809 C811 1.415 . S
C810 C809 1.355 . S
C810 C812 1.419 . S
C811 C806 1.425 . S
C811 C808 1.409 . S
C811 C809 1.415 . S
C812 H802 0.930 . S
C812 C810 1.419 . S
C812 C813 1.362 . S
C813 H803 0.930 . S
C813 C806 1.409 . S
C813 C812 1.362 . S
H814 C820 0.930 . S
H815 C823 0.930 . S
H816 C824 0.930 . S
H817 C825 0.930 . S
H818 C828 0.930 . S
H819 C829 0.930 . S
C820 H814 0.930 . S
C820 C821 1.355 . S
C820 C822 1.415 . S
C821 C820 1.355 . S
C821 C823 1.419 . S
C822 C820 1.415 . S
C822 C827 1.425 . S
C822 C829 1.409 . S
C823 H815 0.930 . S
C823 C821 1.419 . S
C823 C824 1.362 . S
C824 H816 0.930 . S
C824 C823 1.362 . S
C824 C827 1.409 . S
C825 H817 0.930 . S
C825 C826 1.355 . S
C825 C827 1.415 . S
C826 C825 1.355 . S
C826 C828 1.419 . S
C827 C822 1.425 . S
C827 C824 1.409 . S
C827 C825 1.415 . S
C828 H818 0.930 . S
C828 C826 1.419 . S
C828 C829 1.362 . S
C829 H819 0.930 . S
C829 C822 1.409 . S
C829 C828 1.362 . S
H830 C836 0.930 . S
H831 C839 0.930 . S
H832 C840 0.930 . S
H833 C841 0.930 . S
H834 C844 0.930 . S
H835 C845 0.930 . S
C836 H830 0.930 . S
C836 C837 1.355 . S
C836 C838 1.415 . S
C837 C836 1.355 . S
C837 C839 1.419 . S
C838 C836 1.415 . S
C838 C843 1.425 . S
C838 C845 1.409 . S
C839 H831 0.930 . S
C839 C837 1.419 . S
C839 C840 1.362 . S
C840 H832 0.930 . S
C840 C839 1.362 . S
C840 C843 1.409 . S
C841 H833 0.930 . S
C841 C842 1.355 . S
C841 C843 1.415 . S
C842 C841 1.355 . S
C842 C844 1.419 . S
C843 C838 1.425 . S
C843 C840 1.409 . S
C843 C841 1.415 . S
C844 H834 0.930 . S
C844 C842 1.419 . S
C844 C845 1.362 . S
C845 H835 0.930 . S
C845 C838 1.409 . S
C845 C844 1.362 . S
H846 C852 0.930 . S
H847 C855 0.930 . S
H848 C856 0.930 . S
H849 C857 0.930 . S
H850 C860 0.930 . S
H851 C861 0.930 . S
C852 H846 0.930 . S
C852 C853 1.355 . S
C852 C854 1.415 . S
C853 C852 1.355 . S
C853 C855 1.419 . S
C854 C852 1.415 . S
C854 C859 1.425 . S
C854 C861 1.409 . S
C855 H847 0.930 . S
C855 C853 1.419 . S
C855 C856 1.362 . S
C856 H848 0.930 . S
C856 C855 1.362 . S
C856 C859 1.409 . S
C857 H849 0.930 . S
C857 C858 1.355 . S
C857 C859 1.415 . S
C858 C857 1.355 . S
C858 C860 1.419 . S
C859 C854 1.425 . S
C859 C856 1.409 . S
C859 C857 1.415 . S
C860 H850 0.930 . S
C860 C858 1.419 . S
C860 C861 1.362 . S
C861 H851 0.930 . S
C861 C854 1.409 . S
C861 C860 1.362 . S
H862 C868 0.930 . S
H863 C871 0.930 . S
H864 C872 0.930 . S
H865 C873 0.930 . S
H866 C876 0.930 . S
H867 C877 0.930 . S
C868 H862 0.930 . S
C868 C869 1.355 . S
C868 C870 1.415 . S
C869 C868 1.355 . S
C869 C871 1.419 . S
C870 C868 1.415 . S
C870 C875 1.425 . S
C870 C877 1.409 . S
C871 H863 0.930 . S
C871 C869 1.419 . S
C871 C872 1.362 . S
C872 H864 0.930 . S
C872 C871 1.362 . S
C872 C875 1.409 . S
C873 H865 0.930 . S
C873 C874 1.355 . S
C873 C875 1.415 . S
C874 C873 1.355 . S
C874 C876 1.419 . S
C875 C870 1.425 . S
C875 C872 1.409 . S
C875 C873 1.415 . S
C876 H866 0.930 . S
C876 C874 1.419 . S
C876 C877 1.362 . S
C877 H867 0.930 . S
C877 C870 1.409 . S
C877 C876 1.362 . S
H878 C884 0.930 . S
H879 C887 0.930 . S
H880 C888 0.930 . S
H881 C889 0.930 . S
H882 C892 0.930 . S
H883 C893 0.930 . S
C884 H878 0.930 . S
C884 C885 1.355 . S
C884 C886 1.415 . S
C885 C884 1.355 . S
C885 C887 1.419 . S
C886 C884 1.415 . S
C886 C891 1.425 . S
C886 C893 1.409 . S
C887 H879 0.930 . S
C887 C885 1.419 . S
C887 C888 1.362 . S
C888 H880 0.930 . S
C888 C887 1.362 . S
C888 C891 1.409 . S
C889 H881 0.930 . S
C889 C890 1.355 . S
C889 C891 1.415 . S
C890 C889 1.355 . S
C890 C892 1.419 . S
C891 C886 1.425 . S
C891 C888 1.409 . S
C891 C889 1.415 . S
C892 H882 0.930 . S
C892 C890 1.419 . S
C892 C893 1.362 . S
C893 H883 0.930 . S
C893 C886 1.409 . S
C893 C892 1.362 . S
H894 C900 0.930 . S
H895 C903 0.930 . S
H896 C904 0.930 . S
H897 C905 0.930 . S
H898 C908 0.930 . S
H899 C909 0.930 . S
C900 H894 0.930 . S
C900 C901 1.355 . S
C900 C902 1.415 1_545 S
C901 C900 1.355 . S
C901 C903 1.419 . S
C902 C900 1.415 1_565 S
C902 C907 1.425 . S
C902 C909 1.409 . S
C903 H895 0.930 . S
C903 C901 1.419 . S
C903 C904 1.362 1_545 S
C904 H896 0.930 . S
C904 C903 1.362 1_565 S
C904 C907 1.409 . S
C905 H897 0.930 . S
C905 C906 1.355 . S
C905 C907 1.415 . S
C906 C905 1.355 . S
C906 C908 1.419 . S
C907 C902 1.425 . S
C907 C904 1.409 . S
C907 C905 1.415 . S
C908 H898 0.930 . S
C908 C906 1.419 . S
C908 C909 1.362 . S
C909 H899 0.930 . S
C909 C902 1.409 . S
C909 C908 1.362 . S
H910 C916 0.930 . S
H911 C919 0.930 . S
H912 C920 0.930 . S
H913 C921 0.930 . S
H914 C924 0.930 . S
H915 C925 0.930 . S
C916 H910 0.930 . S
C916 C917 1.355 1_455 S
C916 C918 1.415 . S
C917 C916 1.355 1_655 S
C917 C919 1.419 . S
C918 C916 1.415 . S
C918 C923 1.425 . S
C918 C925 1.409 . S
C919 H911 0.930 . S
C919 C917 1.419 . S
C919 C920 1.362 1_655 S
C920 H912 0.930 . S
C920 C919 1.362 1_455 S
C920 C923 1.409 . S
C921 H913 0.930 . S
C921 C922 1.355 . S
C921 C923 1.415 . S
C922 C921 1.355 . S
C922 C924 1.419 . S
C923 C918 1.425 . S
C923 C920 1.409 . S
C923 C921 1.415 . S
C924 H914 0.930 . S
C924 C922 1.419 . S
C924 C925 1.362 . S
C925 H915 0.930 . S
C925 C918 1.409 . S
C925 C924 1.362 . S
H926 C932 0.930 . S
H927 C935 0.930 . S
H928 C936 0.930 . S
H929 C937 0.930 . S
H930 C940 0.930 . S
H931 C941 0.930 . S
C932 H926 0.930 . S
C932 C933 1.355 . S
C932 C934 1.415 . S
C933 C932 1.355 . S
C933 C935 1.419 . S
C934 C932 1.415 . S
C934 C939 1.425 . S
C934 C941 1.409 . S
C935 H927 0.930 . S
C935 C933 1.419 . S
C935 C936 1.362 . S
C936 H928 0.930 . S
C936 C935 1.362 . S
C936 C939 1.409 . S
C937 H929 0.930 . S
C937 C938 1.355 . S
C937 C939 1.415 . S
C938 C937 1.355 . S
C938 C940 1.419 . S
C939 C934 1.425 . S
C939 C936 1.409 . S
C939 C937 1.415 . S
C940 H930 0.930 . S
C940 C938 1.419 . S
C940 C941 1.362 . S
C941 H931 0.930 . S
C941 C934 1.409 . S
C941 C940 1.362 . S
H942 C948 0.930 . S
H943 C951 0.930 . S
H944 C952 0.930 . S
H945 C953 0.930 . S
H946 C956 0.930 . S
H947 C957 0.930 . S
C948 H942 0.930 . S
C948 C949 1.355 . S
C948 C950 1.415 . S
C949 C948 1.355 . S
C949 C951 1.419 . S
C950 C948 1.415 . S
C950 C955 1.425 . S
C950 C957 1.409 . S
C951 H943 0.930 . S
C951 C949 1.419 . S
C951 C952 1.362 . S
C952 H944 0.930 . S
C952 C951 1.362 . S
C952 C955 1.409 . S
C953 H945 0.930 . S
C953 C954 1.355 . S
C953 C955 1.415 . S
C954 C953 1.355 . S
C954 C956 1.419 . S
C955 C950 1.425 . S
C955 C952 1.409 . S
C955 C953 1.415 . S
C956 H946 0.930 . S
C956 C954 1.419 . S
C956 C957 1.362 . S
C957 H947 0.930 . S
C957 C950 1.409 . S
C957 C956 1.362 . S
H958 C964 0.930 . S
H959 C967 0.930 . S
H960 C968 0.930 . S
H961 C969 0.930 . S
H962 C972 0.930 . S
H963 C973 0.930 . S
C964 H958 0.930 . S
C964 C965 1.355 . S
C964 C966 1.415 . S
C965 C964 1.355 . S
C965 C967 1.419 . S
C966 C964 1.415 . S
C966 C971 1.425 . S
C966 C973 1.409 . S
C967 H959 0.930 . S
C967 C965 1.419 . S
C967 C968 1.362 . S
C968 H960 0.930 . S
C968 C967 1.362 . S
C968 C971 1.409 . S
C969 H961 0.930 . S
C969 C970 1.355 . S
C969 C971 1.415 . S
C970 C969 1.355 . S
C970 C972 1.419 . S
C971 C966 1.425 . S
C971 C968 1.409 . S
C971 C969 1.415 . S
C972 H962 0.930 . S
C972 C970 1.419 . S
C972 C973 1.362 . S
C973 H963 0.930 . S
C973 C966 1.409 . S
C973 C972 1.362 . S
H974 C980 0.930 . S
H975 C983 0.930 . S
H976 C984 0.930 . S
H977 C985 0.930 . S
H978 C988 0.930 . S
H979 C989 0.930 . S
C980 H974 0.930 . S
C980 C981 1.355 . S
C980 C982 1.415 . S
C981 C980 1.355 . S
C981 C983 1.419 . S
C982 C980 1.415 . S
C982 C987 1.425 . S
C982 C989 1.409 . S
C983 H975 0.930 . S
C983 C981 1.419 . S
C983 C984 1.362 . S
C984 H976 0.930 . S
C984 C983 1.362 . S
C984 C987 1.409 . S
C985 H977 0.930 . S
C985 C986 1.355 . S
C985 C987 1.415 . S
C986 C985 1.355 . S
C986 C988 1.419 . S
C987 C982 1.425 . S
C987 C984 1.409 . S
C987 C985 1.415 . S
C988 H978 0.930 . S
C988 C986 1.419 . S
C988 C989 1.362 . S
C989 H979 0.930 . S
C989 C982 1.409 . S
C989 C988 1.362 . S
H990 C996 0.930 . S
H991 C999 0.930 . S
H992 C1000 0.936 1_545 S
H993 C1001 0.930 . S
H994 C1004 0.930 . S
H995 C1005 0.930 . S
C996 H990 0.930 . S
C996 C997 1.355 . S
C996 C998 1.415 1_565 S
C997 C996 1.355 . S
C997 C999 1.419 . S
C998 C996 1.415 1_545 S
C998 C1003 1.425 . S
C998 C1005 1.409 . S
C999 H991 0.930 . S
C999 C997 1.419 . S
C999 C1000 1.362 . S
C1000 H992 0.936 1_565 S
C1000 C999 1.362 . S
C1000 C1003 1.409 1_565 S
C1001 H993 0.930 . S
C1001 C1002 1.355 . S
C1001 C1003 1.415 . S
C1002 C1001 1.355 . S
C1002 C1004 1.419 . S
C1003 C998 1.425 . S
C1003 C1000 1.409 1_545 S
C1003 C1001 1.415 . S
C1004 H994 0.930 . S
C1004 C1002 1.419 . S
C1004 C1005 1.362 . S
C1005 H995 0.930 . S
C1005 C998 1.409 . S
C1005 C1004 1.362 . S
H1006 C1012 0.935 1_655 S
H1007 C1015 0.930 . S
H1008 C1016 0.930 . S
H1009 C1017 0.930 . S
H1010 C1020 0.930 . S
H1011 C1021 0.930 . S
C1012 H1006 0.935 1_455 S
C1012 C1013 1.376 . S
C1012 C1014 1.389 1_455 S
C1013 C1012 1.376 . S
C1013 C1015 1.419 . S
C1014 C1012 1.389 1_655 S
C1014 C1019 1.425 . S
C1014 C1021 1.409 . S
C1015 H1007 0.930 . S
C1015 C1013 1.419 . S
C1015 C1016 1.362 . S
C1016 H1008 0.930 . S
C1016 C1015 1.362 . S
C1016 C1019 1.409 1_455 S
C1017 H1009 0.930 . S
C1017 C1018 1.355 . S
C1017 C1019 1.415 . S
C1018 C1017 1.355 . S
C1018 C1020 1.419 . S
C1019 C1014 1.425 . S
C1019 C1016 1.409 1_655 S
C1019 C1017 1.415 . S
C1020 H1010 0.930 . S
C1020 C1018 1.419 . S
C1020 C1021 1.362 . S
C1021 H1011 0.930 . S
C1021 C1014 1.409 . S
C1021 C1020 1.362 . S
H1022 C1028 0.930 . S
H1023 C1031 0.930 . S
H1024 C1032 0.930 . S
H1025 C1033 0.930 . S
H1026 C1036 0.930 . S
H1027 C1037 0.930 . S
C1028 H1022 0.930 . S
C1028 C1029 1.355 . S
C1028 C1030 1.415 . S
C1029 C1028 1.355 . S
C1029 C1031 1.419 . S
C1030 C1028 1.415 . S
C1030 C1035 1.425 . S
C1030 C1037 1.409 . S
C1031 H1023 0.930 . S
C1031 C1029 1.419 . S
C1031 C1032 1.362 . S
C1032 H1024 0.930 . S
C1032 C1031 1.362 . S
C1032 C1035 1.409 . S
C1033 H1025 0.930 . S
C1033 C1034 1.355 . S
C1033 C1035 1.415 . S
C1034 C1033 1.355 . S
C1034 C1036 1.419 . S
C1035 C1030 1.425 . S
C1035 C1032 1.409 . S
C1035 C1033 1.415 . S
C1036 H1026 0.930 . S
C1036 C1034 1.419 . S
C1036 C1037 1.362 . S
C1037 H1027 0.930 . S
C1037 C1030 1.409 . S
C1037 C1036 1.362 . S
H1038 C1044 0.930 . S
H1039 C1047 0.930 . S
H1040 C1048 0.930 . S
H1041 C1049 0.930 . S
H1042 C1052 0.930 . S
H1043 C1053 0.930 . S
C1044 H1038 0.930 . S
C1044 C1045 1.353 . S
C1044 C1046 1.416 1_455 S
C1045 C1044 1.353 . S
C1045 C1047 1.419 . S
C1046 C1044 1.416 1_655 S
C1046 C1051 1.425 . S
C1046 C1053 1.409 . S
C1047 H1039 0.930 . S
C1047 C1045 1.419 . S
C1047 C1048 1.362 1_455 S
C1048 H1040 0.930 . S
C1048 C1047 1.362 1_655 S
C1048 C1051 1.409 . S
C1049 H1041 0.930 . S
C1049 C1050 1.355 . S
C1049 C1051 1.415 . S
C1050 C1049 1.355 . S
C1050 C1052 1.419 . S
C1051 C1046 1.425 . S
C1051 C1048 1.409 . S
C1051 C1049 1.415 . S
C1052 H1042 0.930 . S
C1052 C1050 1.419 . S
C1052 C1053 1.362 . S
C1053 H1043 0.930 . S
C1053 C1046 1.409 . S
C1053 C1052 1.362 . S
H1054 C1060 0.930 . S
H1055 C1063 0.930 . S
H1056 C1064 0.930 . S
H1057 C1065 0.930 . S
H1058 C1068 0.930 . S
H1059 C1069 0.930 . S
C1060 H1054 0.930 . S
C1060 C1061 1.355 . S
C1060 C1062 1.415 . S
C1061 C1060 1.355 . S
C1061 C1063 1.419 . S
C1062 C1060 1.415 . S
C1062 C1067 1.425 . S
C1062 C1069 1.409 . S
C1063 H1055 0.930 . S
C1063 C1061 1.419 . S
C1063 C1064 1.362 . S
C1064 H1056 0.930 . S
C1064 C1063 1.362 . S
C1064 C1067 1.409 . S
C1065 H1057 0.930 . S
C1065 C1066 1.355 . S
C1065 C1067 1.415 . S
C1066 C1065 1.355 . S
C1066 C1068 1.419 . S
C1067 C1062 1.425 . S
C1067 C1064 1.409 . S
C1067 C1065 1.415 . S
C1068 H1058 0.930 . S
C1068 C1066 1.419 . S
C1068 C1069 1.362 . S
C1069 H1059 0.930 . S
C1069 C1062 1.409 . S
C1069 C1068 1.362 . S
H1070 C1076 0.930 . S
H1071 C1079 0.930 . S
H1072 C1080 0.930 . S
H1073 C1081 0.930 . S
H1074 C1084 0.930 . S
H1075 C1085 0.930 . S
C1076 H1070 0.930 . S
C1076 C1077 1.355 . S
C1076 C1078 1.415 1_565 S
C1077 C1076 1.355 . S
C1077 C1079 1.419 . S
C1078 C1076 1.415 1_545 S
C1078 C1083 1.425 . S
C1078 C1085 1.409 . S
C1079 H1071 0.930 . S
C1079 C1077 1.419 . S
C1079 C1080 1.362 1_565 S
C1080 H1072 0.930 . S
C1080 C1079 1.362 1_545 S
C1080 C1083 1.409 . S
C1081 H1073 0.930 . S
C1081 C1082 1.355 . S
C1081 C1083 1.415 . S
C1082 C1081 1.355 . S
C1082 C1084 1.419 . S
C1083 C1078 1.425 . S
C1083 C1080 1.409 . S
C1083 C1081 1.415 . S
C1084 H1074 0.930 . S
C1084 C1082 1.419 . S
C1084 C1085 1.362 . S
C1085 H1075 0.930 . S
C1085 C1078 1.409 . S
C1085 C1084 1.362 . S
H1086 C1092 0.930 . S
H1087 C1095 0.930 . S
H1088 C1096 0.930 . S
H1089 C1097 0.930 . S
H1090 C1100 0.930 . S
H1091 C1101 0.930 . S
C1092 H1086 0.930 . S
C1092 C1093 1.355 . S
C1092 C1094 1.415 . S
C1093 C1092 1.355 . S
C1093 C1095 1.419 . S
C1094 C1092 1.415 . S
C1094 C1099 1.425 . S
C1094 C1101 1.409 . S
C1095 H1087 0.930 . S
C1095 C1093 1.419 . S
C1095 C1096 1.362 . S
C1096 H1088 0.930 . S
C1096 C1095 1.362 . S
C1096 C1099 1.409 . S
C1097 H1089 0.930 . S
C1097 C1098 1.355 . S
C1097 C1099 1.415 . S
C1098 C1097 1.355 . S
C1098 C1100 1.419 . S
C1099 C1094 1.425 . S
C1099 C1096 1.409 . S
C1099 C1097 1.415 . S
C1100 H1090 0.930 . S
C1100 C1098 1.419 . S
C1100 C1101 1.362 . S
C1101 H1091 0.930 . S
C1101 C1094 1.409 . S
C1101 C1100 1.362 . S
H1102 C1108 0.930 . S
H1103 C1111 0.930 . S
H1104 C1112 0.930 . S
H1105 C1113 0.930 . S
H1106 C1116 0.930 . S
H1107 C1117 0.930 . S
C1108 H1102 0.930 . S
C1108 C1109 1.355 . S
C1108 C1110 1.415 . S
C1109 C1108 1.355 . S
C1109 C1111 1.419 . S
C1110 C1108 1.415 . S
C1110 C1115 1.425 . S
C1110 C1117 1.409 . S
C1111 H1103 0.930 . S
C1111 C1109 1.419 . S
C1111 C1112 1.362 . S
C1112 H1104 0.930 . S
C1112 C1111 1.362 . S
C1112 C1115 1.409 . S
C1113 H1105 0.930 . S
C1113 C1114 1.355 . S
C1113 C1115 1.415 . S
C1114 C1113 1.355 . S
C1114 C1116 1.419 . S
C1115 C1110 1.425 . S
C1115 C1112 1.409 . S
C1115 C1113 1.415 . S
C1116 H1106 0.930 . S
C1116 C1114 1.419 . S
C1116 C1117 1.362 . S
C1117 H1107 0.930 . S
C1117 C1110 1.409 . S
C1117 C1116 1.362 . S
H1118 C1124 0.930 . S
H1119 C1127 0.930 . S
H1120 C1128 0.930 . S
H1121 C1129 0.930 . S
H1122 C1132 0.930 . S
H1123 C1133 0.930 . S
C1124 H1118 0.930 . S
C1124 C1125 1.355 . S
C1124 C1126 1.415 . S
C1125 C1124 1.355 . S
C1125 C1127 1.419 . S
C1126 C1124 1.415 . S
C1126 C1131 1.425 . S
C1126 C1133 1.409 . S
C1127 H1119 0.930 . S
C1127 C1125 1.419 . S
C1127 C1128 1.362 . S
C1128 H1120 0.930 . S
C1128 C1127 1.362 . S
C1128 C1131 1.409 . S
C1129 H1121 0.930 . S
C1129 C1130 1.355 . S
C1129 C1131 1.415 . S
C1130 C1129 1.355 . S
C1130 C1132 1.419 . S
C1131 C1126 1.425 . S
C1131 C1128 1.409 . S
C1131 C1129 1.415 . S
C1132 H1122 0.930 . S
C1132 C1130 1.419 . S
C1132 C1133 1.362 . S
C1133 H1123 0.930 . S
C1133 C1126 1.409 . S
C1133 C1132 1.362 . S
H1134 C1140 0.930 . S
H1135 C1143 0.930 . S
H1136 C1144 0.930 . S
H1137 C1145 0.930 . S
H1138 C1148 0.930 . S
H1139 C1149 0.930 . S
C1140 H1134 0.930 . S
C1140 C1141 1.355 . S
C1140 C1142 1.415 . S
C1141 C1140 1.355 . S
C1141 C1143 1.419 . S
C1142 C1140 1.415 . S
C1142 C1147 1.425 . S
C1142 C1149 1.409 . S
C1143 H1135 0.930 . S
C1143 C1141 1.419 . S
C1143 C1144 1.362 . S
C1144 H1136 0.930 . S
C1144 C1143 1.362 . S
C1144 C1147 1.409 . S
C1145 H1137 0.930 . S
C1145 C1146 1.355 . S
C1145 C1147 1.415 . S
C1146 C1145 1.355 . S
C1146 C1148 1.419 . S
C1147 C1142 1.425 . S
C1147 C1144 1.409 . S
C1147 C1145 1.415 . S
C1148 H1138 0.930 . S
C1148 C1146 1.419 . S
C1148 C1149 1.362 . S
C1149 H1139 0.930 . S
C1149 C1142 1.409 . S
C1149 C1148 1.362 . S
H1150 C1156 0.930 . S
H1151 C1159 0.930 . S
H1152 C1160 0.930 . S
H1153 C1161 0.930 . S
H1154 C1164 0.930 . S
H1155 C1165 0.930 . S
C1156 H1150 0.930 . S
C1156 C1157 1.355 . S
C1156 C1158 1.415 . S
C1157 C1156 1.355 . S
C1157 C1159 1.419 . S
C1158 C1156 1.415 . S
C1158 C1163 1.425 . S
C1158 C1165 1.409 . S
C1159 H1151 0.930 . S
C1159 C1157 1.419 . S
C1159 C1160 1.362 . S
C1160 H1152 0.930 . S
C1160 C1159 1.362 . S
C1160 C1163 1.409 . S
C1161 H1153 0.930 . S
C1161 C1162 1.355 . S
C1161 C1163 1.415 . S
C1162 C1161 1.355 . S
C1162 C1164 1.419 . S
C1163 C1158 1.425 . S
C1163 C1160 1.409 . S
C1163 C1161 1.415 . S
C1164 H1154 0.930 . S
C1164 C1162 1.419 . S
C1164 C1165 1.362 . S
C1165 H1155 0.930 . S
C1165 C1158 1.409 . S
C1165 C1164 1.362 . S
H1166 C1172 0.930 . S
H1167 C1175 0.930 . S
H1168 C1176 0.930 . S
H1169 C1177 0.930 . S
H1170 C1180 0.930 . S
H1171 C1181 0.930 . S
C1172 H1166 0.930 . S
C1172 C1173 1.355 . S
C1172 C1174 1.415 . S
C1173 C1172 1.355 . S
C1173 C1175 1.419 . S
C1174 C1172 1.415 . S
C1174 C1179 1.425 . S
C1174 C1181 1.409 . S
C1175 H1167 0.930 . S
C1175 C1173 1.419 . S
C1175 C1176 1.362 . S
C1176 H1168 0.930 . S
C1176 C1175 1.362 . S
C1176 C1179 1.409 . S
C1177 H1169 0.930 . S
C1177 C1178 1.355 . S
C1177 C1179 1.415 . S
C1178 C1177 1.355 . S
C1178 C1180 1.419 . S
C1179 C1174 1.425 . S
C1179 C1176 1.409 . S
C1179 C1177 1.415 . S
C1180 H1170 0.930 . S
C1180 C1178 1.419 . S
C1180 C1181 1.362 . S
C1181 H1171 0.930 . S
C1181 C1174 1.409 . S
C1181 C1180 1.362 . S
H1182 C1188 0.930 . S
H1183 C1191 0.930 . S
H1184 C1192 0.930 . S
H1185 C1193 0.930 . S
H1186 C1196 0.930 1_455 S
H1187 C1197 0.930 1_455 S
C1188 H1182 0.930 . S
C1188 C1189 1.355 . S
C1188 C1190 1.415 . S
C1189 C1188 1.355 . S
C1189 C1191 1.419 . S
C1190 C1188 1.415 . S
C1190 C1195 1.425 . S
C1190 C1197 1.409 . S
C1191 H1183 0.930 . S
C1191 C1189 1.419 . S
C1191 C1192 1.362 . S
C1192 H1184 0.930 . S
C1192 C1191 1.362 . S
C1192 C1195 1.409 . S
C1193 H1185 0.930 . S
C1193 C1194 1.355 . S
C1193 C1195 1.415 . S
C1194 C1193 1.355 . S
C1194 C1196 1.419 . S
C1195 C1190 1.425 . S
C1195 C1192 1.409 . S
C1195 C1193 1.415 . S
C1196 H1186 0.930 1_655 S
C1196 C1194 1.419 . S
C1196 C1197 1.362 . S
C1197 H1187 0.930 1_655 S
C1197 C1190 1.409 . S
C1197 C1196 1.362 . S
H1198 C1204 0.930 . S
H1199 C1207 0.930 . S
H1200 C1208 0.930 . S
H1201 C1209 0.930 . S
H1202 C1212 0.930 . S
H1203 C1213 0.930 . S
C1204 H1198 0.930 . S
C1204 C1205 1.355 . S
C1204 C1206 1.415 . S
C1205 C1204 1.355 . S
C1205 C1207 1.419 . S
C1206 C1204 1.415 . S
C1206 C1211 1.425 . S
C1206 C1213 1.409 . S
C1207 H1199 0.930 . S
C1207 C1205 1.419 . S
C1207 C1208 1.362 . S
C1208 H1200 0.930 . S
C1208 C1207 1.362 . S
C1208 C1211 1.409 . S
C1209 H1201 0.930 . S
C1209 C1210 1.355 . S
C1209 C1211 1.415 . S
C1210 C1209 1.355 . S
C1210 C1212 1.419 . S
C1211 C1206 1.425 . S
C1211 C1208 1.409 . S
C1211 C1209 1.415 . S
C1212 H1202 0.930 . S
C1212 C1210 1.419 . S
C1212 C1213 1.362 . S
C1213 H1203 0.930 . S
C1213 C1206 1.409 . S
C1213 C1212 1.362 . S
H1214 C1220 0.930 . S
H1215 C1223 0.930 . S
H1216 C1224 0.930 . S
H1217 C1225 0.930 . S
H1218 C1228 0.930 1_565 S
H1219 C1229 0.930 1_565 S
C1220 H1214 0.930 . S
C1220 C1221 1.355 . S
C1220 C1222 1.415 . S
C1221 C1220 1.355 . S
C1221 C1223 1.419 . S
C1222 C1220 1.415 . S
C1222 C1227 1.425 . S
C1222 C1229 1.409 . S
C1223 H1215 0.930 . S
C1223 C1221 1.419 . S
C1223 C1224 1.362 . S
C1224 H1216 0.930 . S
C1224 C1223 1.362 . S
C1224 C1227 1.409 . S
C1225 H1217 0.930 . S
C1225 C1226 1.355 . S
C1225 C1227 1.415 . S
C1226 C1225 1.355 . S
C1226 C1228 1.419 . S
C1227 C1222 1.425 . S
C1227 C1224 1.409 . S
C1227 C1225 1.415 . S
C1228 H1218 0.930 1_545 S
C1228 C1226 1.419 . S
C1228 C1229 1.362 . S
C1229 H1219 0.930 1_545 S
C1229 C1222 1.409 . S
C1229 C1228 1.362 . S
H1230 C1236 0.930 . S
H1231 C1239 0.930 . S
H1232 C1240 0.930 . S
H1233 C1241 0.930 . S
H1234 C1244 0.930 . S
H1235 C1245 0.930 . S
C1236 H1230 0.930 . S
C1236 C1237 1.355 . S
C1236 C1238 1.415 . S
C1237 C1236 1.355 . S
C1237 C1239 1.419 . S
C1238 C1236 1.415 . S
C1238 C1243 1.425 . S
C1238 C1245 1.409 . S
C1239 H1231 0.930 . S
C1239 C1237 1.419 . S
C1239 C1240 1.362 . S
C1240 H1232 0.930 . S
C1240 C1239 1.362 . S
C1240 C1243 1.409 . S
C1241 H1233 0.930 . S
C1241 C1242 1.355 . S
C1241 C1243 1.415 . S
C1242 C1241 1.355 . S
C1242 C1244 1.419 . S
C1243 C1238 1.425 . S
C1243 C1240 1.409 . S
C1243 C1241 1.415 . S
C1244 H1234 0.930 . S
C1244 C1242 1.419 . S
C1244 C1245 1.362 . S
C1245 H1235 0.930 . S
C1245 C1238 1.409 . S
C1245 C1244 1.362 . S
H1246 C1252 0.930 . S
H1247 C1255 0.930 . S
H1248 C1256 0.930 . S
H1249 C1257 0.930 . S
H1250 C1260 0.930 . S
H1251 C1261 0.930 . S
C1252 H1246 0.930 . S
C1252 C1253 1.355 . S
C1252 C1254 1.415 . S
C1253 C1252 1.355 . S
C1253 C1255 1.419 . S
C1254 C1252 1.415 . S
C1254 C1259 1.425 . S
C1254 C1261 1.409 . S
C1255 H1247 0.930 . S
C1255 C1253 1.419 . S
C1255 C1256 1.362 . S
C1256 H1248 0.930 . S
C1256 C1255 1.362 . S
C1256 C1259 1.409 . S
C1257 H1249 0.930 . S
C1257 C1258 1.355 . S
C1257 C1259 1.415 . S
C1258 C1257 1.355 . S
C1258 C1260 1.419 . S
C1259 C1254 1.425 . S
C1259 C1256 1.409 . S
C1259 C1257 1.415 . S
C1260 H1250 0.930 . S
C1260 C1258 1.419 . S
C1260 C1261 1.362 . S
C1261 H1251 0.930 . S
C1261 C1254 1.409 . S
C1261 C1260 1.362 . S
H1262 C1268 0.930 . S
H1263 C1271 0.930 . S
H1264 C1272 0.930 . S
H1265 C1273 0.930 . S
H1266 C1276 0.930 . S
H1267 C1277 0.930 . S
C1268 H1262 0.930 . S
C1268 C1269 1.355 . S
C1268 C1270 1.415 . S
C1269 C1268 1.355 . S
C1269 C1271 1.419 . S
C1270 C1268 1.415 . S
C1270 C1275 1.425 . S
C1270 C1277 1.409 . S
C1271 H1263 0.930 . S
C1271 C1269 1.419 . S
C1271 C1272 1.362 . S
C1272 H1264 0.930 . S
C1272 C1271 1.362 . S
C1272 C1275 1.409 . S
C1273 H1265 0.930 . S
C1273 C1274 1.355 . S
C1273 C1275 1.415 . S
C1274 C1273 1.355 . S
C1274 C1276 1.419 . S
C1275 C1270 1.425 . S
C1275 C1272 1.409 . S
C1275 C1273 1.415 . S
C1276 H1266 0.930 . S
C1276 C1274 1.419 . S
C1276 C1277 1.362 . S
C1277 H1267 0.930 . S
C1277 C1270 1.409 . S
C1277 C1276 1.362 . S
H1278 C1284 0.930 . S
H1279 C1287 0.930 . S
H1280 C1288 0.930 . S
H1281 C1289 0.930 . S
H1282 C1292 0.930 . S
H1283 C1293 0.930 . S
C1284 H1278 0.930 . S
C1284 C1285 1.355 . S
C1284 C1286 1.415 . S
C1285 C1284 1.355 . S
C1285 C1287 1.419 . S
C1286 C1284 1.415 . S
C1286 C1291 1.425 . S
C1286 C1293 1.409 . S
C1287 H1279 0.930 . S
C1287 C1285 1.419 . S
C1287 C1288 1.362 . S
C1288 H1280 0.930 . S
C1288 C1287 1.362 . S
C1288 C1291 1.409 . S
C1289 H1281 0.930 . S
C1289 C1290 1.355 . S
C1289 C1291 1.415 . S
C1290 C1289 1.355 . S
C1290 C1292 1.419 . S
C1291 C1286 1.425 . S
C1291 C1288 1.409 . S
C1291 C1289 1.415 . S
C1292 H1282 0.930 . S
C1292 C1290 1.419 . S
C1292 C1293 1.362 . S
C1293 H1283 0.930 . S
C1293 C1286 1.409 . S
C1293 C1292 1.362 . S
H1294 C1300 0.930 . S
H1295 C1303 0.930 . S
H1296 C1304 0.930 . S
H1297 C1305 0.930 . S
H1298 C1308 0.930 . S
H1299 C1309 0.930 . S
C1300 H1294 0.930 . S
C1300 C1301 1.355 . S
C1300 C1302 1.415 . S
C1301 C1300 1.355 . S
C1301 C1303 1.419 . S
C1302 C1300 1.415 . S
C1302 C1307 1.425 . S
C1302 C1309 1.409 . S
C1303 H1295 0.930 . S
C1303 C1301 1.419 . S
C1303 C1304 1.362 . S
C1304 H1296 0.930 . S
C1304 C1303 1.362 . S
C1304 C1307 1.409 . S
C1305 H1297 0.930 . S
C1305 C1306 1.355 . S
C1305 C1307 1.415 . S
C1306 C1305 1.355 . S
C1306 C1308 1.419 . S
C1307 C1302 1.425 . S
C1307 C1304 1.409 . S
C1307 C1305 1.415 . S
C1308 H1298 0.930 . S
C1308 C1306 1.419 . S
C1308 C1309 1.362 . S
C1309 H1299 0.930 . S
C1309 C1302 1.409 . S
C1309 C1308 1.362 . S
H1310 C1316 0.930 . S
H1311 C1319 0.930 . S
H1312 C1320 0.930 . S
H1313 C1321 0.930 . S
H1314 C1324 0.930 . S
H1315 C1325 0.930 . S
C1316 H1310 0.930 . S
C1316 C1317 1.355 . S
C1316 C1318 1.415 . S
C1317 C1316 1.355 . S
C1317 C1319 1.419 . S
C1318 C1316 1.415 . S
C1318 C1323 1.425 . S
C1318 C1325 1.409 . S
C1319 H1311 0.930 . S
C1319 C1317 1.419 . S
C1319 C1320 1.362 . S
C1320 H1312 0.930 . S
C1320 C1319 1.362 . S
C1320 C1323 1.409 . S
C1321 H1313 0.930 . S
C1321 C1322 1.355 . S
C1321 C1323 1.415 . S
C1322 C1321 1.355 . S
C1322 C1324 1.419 . S
C1323 C1318 1.425 . S
C1323 C1320 1.409 . S
C1323 C1321 1.415 . S
C1324 H1314 0.930 . S
C1324 C1322 1.419 . S
C1324 C1325 1.362 . S
C1325 H1315 0.930 . S
C1325 C1318 1.409 . S
C1325 C1324 1.362 . S
H1326 C1332 0.930 . S
H1327 C1335 0.930 . S
H1328 C1336 0.930 . S
H1329 C1337 0.930 . S
H1330 C1340 0.930 . S
H1331 C1341 0.930 . S
C1332 H1326 0.930 . S
C1332 C1333 1.355 . S
C1332 C1334 1.415 . S
C1333 C1332 1.355 . S
C1333 C1335 1.419 . S
C1334 C1332 1.415 . S
C1334 C1339 1.425 . S
C1334 C1341 1.409 . S
C1335 H1327 0.930 . S
C1335 C1333 1.419 . S
C1335 C1336 1.362 . S
C1336 H1328 0.930 . S
C1336 C1335 1.362 . S
C1336 C1339 1.409 . S
C1337 H1329 0.930 . S
C1337 C1338 1.355 . S
C1337 C1339 1.415 . S
C1338 C1337 1.355 . S
C1338 C1340 1.419 . S
C1339 C1334 1.425 . S
C1339 C1336 1.409 . S
C1339 C1337 1.415 . S
C1340 H1330 0.930 . S
C1340 C1338 1.419 . S
C1340 C1341 1.362 . S
C1341 H1331 0.930 . S
C1341 C1334 1.409 . S
C1341 C1340 1.362 . S
H1342 C1348 0.930 . S
H1343 C1351 0.930 . S
H1344 C1352 0.930 . S
H1345 C1353 0.930 . S
H1346 C1356 0.930 . S
H1347 C1357 0.930 . S
C1348 H1342 0.930 . S
C1348 C1349 1.355 . S
C1348 C1350 1.415 . S
C1349 C1348 1.355 . S
C1349 C1351 1.419 . S
C1350 C1348 1.415 . S
C1350 C1355 1.425 . S
C1350 C1357 1.409 . S
C1351 H1343 0.930 . S
C1351 C1349 1.419 . S
C1351 C1352 1.362 . S
C1352 H1344 0.930 . S
C1352 C1351 1.362 . S
C1352 C1355 1.409 . S
C1353 H1345 0.930 . S
C1353 C1354 1.355 . S
C1353 C1355 1.415 . S
C1354 C1353 1.355 . S
C1354 C1356 1.419 . S
C1355 C1350 1.425 . S
C1355 C1352 1.409 . S
C1355 C1353 1.415 . S
C1356 H1346 0.930 . S
C1356 C1354 1.419 . S
C1356 C1357 1.362 . S
C1357 H1347 0.930 . S
C1357 C1350 1.409 . S
C1357 C1356 1.362 . S
H1358 C1364 0.930 . S
H1359 C1367 0.930 . S
H1360 C1368 0.930 . S
H1361 C1369 0.930 . S
H1362 C1372 0.930 . S
H1363 C1373 0.930 . S
C1364 H1358 0.930 . S
C1364 C1365 1.355 . S
C1364 C1366 1.415 . S
C1365 C1364 1.355 . S
C1365 C1367 1.419 . S
C1366 C1364 1.415 . S
C1366 C1371 1.425 . S
C1366 C1373 1.409 . S
C1367 H1359 0.930 . S
C1367 C1365 1.419 . S
C1367 C1368 1.362 . S
C1368 H1360 0.930 . S
C1368 C1367 1.362 . S
C1368 C1371 1.409 . S
C1369 H1361 0.930 . S
C1369 C1370 1.355 . S
C1369 C1371 1.415 . S
C1370 C1369 1.355 . S
C1370 C1372 1.419 . S
C1371 C1366 1.425 . S
C1371 C1368 1.409 . S
C1371 C1369 1.415 . S
C1372 H1362 0.930 . S
C1372 C1370 1.419 . S
C1372 C1373 1.362 . S
C1373 H1363 0.930 . S
C1373 C1366 1.409 . S
C1373 C1372 1.362 . S
H1374 C1380 0.930 . S
H1375 C1383 0.930 . S
H1376 C1384 0.930 . S
H1377 C1385 0.930 . S
H1378 C1388 0.930 . S
H1379 C1389 0.930 . S
C1380 H1374 0.930 . S
C1380 C1381 1.355 . S
C1380 C1382 1.415 . S
C1381 C1380 1.355 . S
C1381 C1383 1.419 . S
C1382 C1380 1.415 . S
C1382 C1387 1.425 . S
C1382 C1389 1.409 . S
C1383 H1375 0.930 . S
C1383 C1381 1.419 . S
C1383 C1384 1.362 . S
C1384 H1376 0.930 . S
C1384 C1383 1.362 . S
C1384 C1387 1.409 . S
C1385 H1377 0.930 . S
C1385 C1386 1.355 . S
C1385 C1387 1.415 . S
C1386 C1385 1.355 . S
C1386 C1388 1.419 . S
C1387 C1382 1.425 . S
C1387 C1384 1.409 . S
C1387 C1385 1.415 . S
C1388 H1378 0.930 . S
C1388 C1386 1.419 . S
C1388 C1389 1.362 . S
C1389 H1379 0.930 . S
C1389 C1382 1.409 . S
C1389 C1388 1.362 . S
H1390 C1396 0.930 . S
H1391 C1399 0.930 . S
H1392 C1400 0.930 . S
H1393 C1401 0.930 . S
H1394 C1404 0.930 . S
H1395 C1405 0.930 . S
C1396 H1390 0.930 . S
C1396 C1397 1.355 . S
C1396 C1398 1.415 . S
C1397 C1396 1.355 . S
C1397 C1399 1.419 . S
C1398 C1396 1.415 . S
C1398 C1403 1.425 . S
C1398 C1405 1.409 . S
C1399 H1391 0.930 . S
C1399 C1397 1.419 . S
C1399 C1400 1.362 . S
C1400 H1392 0.930 . S
C1400 C1399 1.362 . S
C1400 C1403 1.409 . S
C1401 H1393 0.930 . S
C1401 C1402 1.355 . S
C1401 C1403 1.415 . S
C1402 C1401 1.355 . S
C1402 C1404 1.419 . S
C1403 C1398 1.425 . S
C1403 C1400 1.409 . S
C1403 C1401 1.415 . S
C1404 H1394 0.930 . S
C1404 C1402 1.419 . S
C1404 C1405 1.362 . S
C1405 H1395 0.930 . S
C1405 C1398 1.409 . S
C1405 C1404 1.362 . S
H1406 C1412 0.930 . S
H1407 C1415 0.930 . S
H1408 C1416 0.930 . S
H1409 C1417 0.930 . S
H1410 C1420 0.930 . S
H1411 C1421 0.930 . S
C1412 H1406 0.930 . S
C1412 C1413 1.355 . S
C1412 C1414 1.415 . S
C1413 C1412 1.355 . S
C1413 C1415 1.419 . S
C1414 C1412 1.415 . S
C1414 C1419 1.425 . S
C1414 C1421 1.409 . S
C1415 H1407 0.930 . S
C1415 C1413 1.419 . S
C1415 C1416 1.362 . S
C1416 H1408 0.930 . S
C1416 C1415 1.362 . S
C1416 C1419 1.409 . S
C1417 H1409 0.930 . S
C1417 C1418 1.355 . S
C1417 C1419 1.415 . S
C1418 C1417 1.355 . S
C1418 C1420 1.419 . S
C1419 C1414 1.425 . S
C1419 C1416 1.409 . S
C1419 C1417 1.415 . S
C1420 H1410 0.930 . S
C1420 C1418 1.419 . S
C1420 C1421 1.362 . S
C1421 H1411 0.930 . S
C1421 C1414 1.409 . S
C1421 C1420 1.362 . S
C565 C151 1.296 . S
C570 C207 1.323 . S
C581 C159 1.864 . S
C586 C247 2.004 . S
C597 C137 1.530 . S
C602 C286 1.633 . S
C613 C126 1.444 . S
C618 C246 1.497 1_556 S
C634 C287 1.805 . S
C629 C104 1.712 . S
C645 C118 1.110 . S
C650 C206 1.188 . S
C666 C217 1.615 . S
C661 C129 1.636 . S
C682 C257 1.741 . S
C677 C107 1.765 . S
C693 C115 1.194 . S
C698 C296 1.611 1_556 S
C709 C148 1.236 . S
C714 C256 1.442 . S
C725 C162 1.563 . S
C730 C297 1.558 . S
C746 C216 1.416 . S
C741 C140 1.449 . S
C762 C327 1.339 . S
C757 C19 1.320 . S
C773 C27 1.904 . S
C778 C367 1.982 . S
C789 C5 1.599 . S
C794 C406 1.646 . S
C805 C192 1.446 . S
C810 C366 1.496 . S
C821 C170 1.724 . S
C826 C407 1.799 . S
C837 C184 1.112 . S
C842 C326 1.128 . S
C853 C195 1.623 . S
C858 C337 1.568 . S
C869 C173 1.765 . S
C874 C377 1.737 . S
C890 C416 1.638 . S
C885 C181 1.216 . S
C901 C16 1.109 . S
C906 C376 1.466 . S
C922 C417 1.558 . S
C917 C30 1.564 . S
C933 C8 1.471 . S
C938 C336 1.451 . S
C954 C447 1.329 . S
C949 C85 1.306 . S
C965 C93 1.855 . S
C970 C487 2.007 . S
C986 C526 1.611 . S
C981 C71 1.512 . S
C1002 C486 1.463 . S
C997 C60 1.348 . S
C1018 C527 1.822 . S
C1013 C38 1.670 . S
C1029 C52 1.104 . S
C1034 C446 1.184 . S
C1045 C63 1.636 . S
C1050 C457 1.616 . S
C1061 C41 1.758 . S
C1066 C497 1.709 . S
C1082 C536 1.611 . S
C1077 C49 1.321 . S
C1093 C82 1.140 . S
C1098 C496 1.422 . S
C1109 C96 1.558 . S
C1114 C537 1.520 . S
C1125 C74 1.468 . S
C1130 C456 1.442 . S
C1141 C172 1.494 . S
C1146 C203 1.555 . S
C1162 C243 1.635 . S
C1157 C183 1.501 . S
C1173 C194 1.513 . S
C1178 C293 1.539 . S
C1189 C73 1.766 . S
C1194 C253 1.773 . S
C1205 C84 1.344 . S
C1210 C283 1.384 . S
C1226 C213 1.489 . S
C1221 C95 1.453 . S
C1237 C40 1.482 . S
C1242 C323 1.542 . S
C1253 C51 1.561 . S
C1258 C363 1.658 . S
C1269 C62 1.540 . S
C1274 C413 1.544 . S
C1285 C139 1.780 . S
C1290 C373 1.782 . S
C1306 C403 1.378 . S
C1301 C150 1.309 . S
C1317 C161 1.462 . S
C1322 C333 1.492 . S
C1333 C106 1.496 . S
C1338 C443 1.555 . S
C1349 C117 1.510 . S
C1354 C483 1.639 . S
C1370 C533 1.552 . S
C1365 C128 1.509 . S
C1381 C7 1.781 . S
C1386 C493 1.784 . S
C1397 C18 1.258 . S
C1402 C523 1.365 . S
C1413 C29 1.457 . S
C1418 C453 1.490 . S
