# Generated by pormake.
# Topology pth, (4,4)-cn, num edge types: 1
# Building blocks:
#     Node 0, Type 0, BuildingBlock: UXUYUI_clean_sbu_0, # of connection points: 4
#     Node 1, Type 0, BuildingBlock: UXUYUI_clean_sbu_0, # of connection points: 4
#     Node 2, Type 0, BuildingBlock: UXUYUI_clean_sbu_0, # of connection points: 4
#     Node 3, Type 1, BuildingBlock: KOZSID_clean_sbu_0, # of connection points: 4
#     Node 4, Type 1, BuildingBlock: KOZSID_clean_sbu_0, # of connection points: 4
#     Node 5, Type 1, BuildingBlock: KOZSID_clean_sbu_0, # of connection points: 4
#     Edge 6, Type (0, 1), BuildingBlock: AJUNOK_clean_linker_0, # of connection points: 2
#     Edge 7, Type (0, 1), BuildingBlock: AJUNOK_clean_linker_0, # of connection points: 2
#     Edge 8, Type (0, 1), BuildingBlock: AJUNOK_clean_linker_0, # of connection points: 2
#     Edge 9, Type (0, 1), BuildingBlock: AJUNOK_clean_linker_0, # of connection points: 2
#     Edge 10, Type (0, 1), BuildingBlock: AJUNOK_clean_linker_0, # of connection points: 2
#     Edge 11, Type (0, 1), BuildingBlock: AJUNOK_clean_linker_0, # of connection points: 2
#     Edge 12, Type (0, 1), BuildingBlock: AJUNOK_clean_linker_0, # of connection points: 2
#     Edge 13, Type (0, 1), BuildingBlock: AJUNOK_clean_linker_0, # of connection points: 2
#     Edge 14, Type (0, 1), BuildingBlock: AJUNOK_clean_linker_0, # of connection points: 2
#     Edge 15, Type (0, 1), BuildingBlock: AJUNOK_clean_linker_0, # of connection points: 2
#     Edge 16, Type (0, 1), BuildingBlock: AJUNOK_clean_linker_0, # of connection points: 2
#     Edge 17, Type (0, 1), BuildingBlock: AJUNOK_clean_linker_0, # of connection points: 2
# Relax obj value: 0.074
# Max RMSD: 0.214
# Mean RMSD: 0.112
data_MOF--net-pth--node1-UXUYUI_clean_sbu_0--node2-KOZSID_clean_sbu_0--edge1-AJUNOK_clean_linker_0
_symmetry_space_group_name_H-M    P1
_symmetry_Int_Tables_number       1
_symmetry_cell_setting            triclinic
loop_
_symmetry_equiv_pos_as_xyz
'x, y, z'
_cell_length_a     25.798132
_cell_length_b     25.791596
_cell_length_c     58.612223
_cell_angle_alpha  87.290888
_cell_angle_beta   87.389966
_cell_angle_gamma 120.00926
loop_
_atom_site_label
_atom_site_type_symbol
_atom_site_fract_x
_atom_site_fract_y
_atom_site_fract_z
_atom_type_partial_charge
Li0 Li 0.13157 0.10356 0.02481 0.0
Li1 Li 0.05277 0.09898 0.05207 0.0
Li2 Li 0.08156 0.01847 0.05484 0.0
Li3 Li 0.02161 0.01864 0.02398 0.0
C4 C 0.18706 0.14433 0.06469 0.0
N5 N 0.30202 0.22395 0.07567 0.0
C6 C 0.19955 0.19798 0.07396 0.0
C7 C 0.23292 0.13103 0.06113 0.0
C8 C 0.25799 0.23769 0.07936 0.0
C9 C 0.29077 0.17189 0.06676 0.0
C10 C 0.03881 0.13902 0.00517 0.0
C11 C 0.95923 0.14467 0.98721 0.0
N12 N 0.99896 0.20217 0.979 0.0
C13 C 0.07893 0.19802 0.99636 0.0
C14 C 0.97853 0.11195 1.0004 0.0
C15 C 0.05788 0.22926 0.98325 0.0
C16 C 0.22597 0.15214 0.98784 0.0
N17 N 0.2034 0.16449 0.00692 0.0
C18 C 0.276 0.26945 0.99989 0.0
C19 C 0.22765 0.22181 0.01311 0.0
C20 C 0.29916 0.25844 0.97977 0.0
C21 C 0.27407 0.1987 0.97393 0.0
H22 H 0.20561 0.10641 0.98306 0.0
H23 H 0.20774 0.23108 0.02781 0.0
C24 C 0.0375 0.1465 0.0926 0.0
N25 N 0.03794 0.15278 0.0694 0.0
C26 C 0.03818 0.19021 0.10608 0.0
C27 C 0.03719 0.24494 0.0717 0.0
C28 C 0.03669 0.20029 0.05888 0.0
C29 C 0.03963 0.24114 0.09558 0.0
H30 H 0.03953 0.10889 0.10054 0.0
H31 H 0.0374 0.20487 0.04049 0.0
C32 C 0.11578 0.97441 0.02067 0.0
N33 N 0.15168 0.8899 0.02057 0.0
C34 C 0.07318 0.9135 0.02045 0.0
C35 C 0.17669 0.99249 0.02044 0.0
C36 C 0.09221 0.87141 0.02053 0.0
C37 C 0.19394 0.94904 0.02049 0.0
C38 C 0.94025 0.98999 0.06305 0.0
C39 C 0.90323 0.93469 0.07551 0.0
C40 C 0.91645 0.026 0.05636 0.0
C41 C 0.84264 0.91579 0.08062 0.0
C42 C 0.85567 0.00558 0.06182 0.0
N43 N 0.8203 0.9513 0.0737 0.0
C44 C 0.13138 0.97485 0.08967 0.0
C45 C 0.03911 0.90361 0.07618 0.0
C46 C 0.12994 0.93048 0.10495 0.0
N47 N 0.08631 0.9607 0.07564 0.0
C48 C 0.03586 0.85804 0.09113 0.0
C49 C 0.08141 0.87112 0.10595 0.0
H50 H 0.16821 0.02052 0.0892 0.0
H51 H 1.00359 0.89349 0.065 0.0
C52 C 0.96577 0.97825 0.98188 0.0
N53 N 0.96159 0.96398 0.00481 0.0
C54 C 0.92588 0.9363 0.96769 0.0
C55 C 0.87786 0.86581 1.0009 0.0
C56 C 0.91873 0.90891 0.0144 0.0
C57 C 0.88152 0.87885 0.97714 0.0
H58 H 1.00078 0.02188 0.97452 0.0
H59 H 0.91739 0.89756 0.03247 0.0
O60 O 0.13028 0.1053 0.05899 0.0
O61 O 0.05875 0.10751 0.01788 0.0
O62 O 0.09794 0.01617 0.02097 0.0
O63 O 0.99973 0.00917 0.05794 0.0
H64 H 0.16469 0.20919 0.07672 0.0
H65 H 0.22396 0.08967 0.05406 0.0
H66 H 0.26837 0.2795 0.08644 0.0
H67 H 0.32674 0.16222 0.06404 0.0
H68 H 0.91269 0.12426 0.98346 0.0
H69 H 0.12571 0.2197 0.99973 0.0
H70 H 0.94692 0.06604 0.00669 0.0
H71 H 0.08841 0.27504 0.97645 0.0
H72 H 0.29346 0.31482 0.00485 0.0
H73 H 0.29096 0.18825 0.95862 0.0
H74 H 0.04016 0.18548 0.12442 0.0
H75 H 0.03682 0.28266 0.06294 0.0
H76 H 0.02589 0.89882 0.02046 0.0
H77 H 0.2103 0.03956 0.02013 0.0
H78 H 0.05968 0.82406 0.02057 0.0
H79 H 0.24092 0.96235 0.02041 0.0
H80 H 0.92101 0.90652 0.08109 0.0
H81 H 0.94466 0.06947 0.04724 0.0
H82 H 0.81341 0.87293 0.09011 0.0
H83 H 0.83668 0.03298 0.05667 0.0
H84 H 0.16665 0.94246 0.11574 0.0
H85 H 0.9975 0.8131 0.09135 0.0
H86 H 0.92987 0.94864 0.94951 0.0
H87 H 0.84483 0.82197 0.00888 0.0
Li88 Li 0.04048 0.02727 0.35537 0.0
Li89 Li 0.10722 0.09275 0.38522 0.0
Li90 Li 1.00124 0.06617 0.38543 0.0
Li91 Li 0.07001 0.13717 0.35576 0.0
C92 C 0.99142 0.97001 0.40515 0.0
N93 N 0.90157 0.89116 0.43749 0.0
C94 C 0.99814 0.97835 0.42845 0.0
C95 C 0.93924 0.92152 0.39828 0.0
C96 C 0.95212 0.93799 0.44454 0.0
C97 C 0.89428 0.88214 0.4149 0.0
C98 C 0.17899 0.14558 0.34245 0.0
C99 C 0.26833 0.24103 0.34556 0.0
N100 N 0.29202 0.23512 0.32531 0.0
C101 C 0.2041 0.1404 0.32167 0.0
C102 C 0.21123 0.19621 0.35453 0.0
C103 C 0.26138 0.18618 0.31329 0.0
C104 C 0.02899 0.96996 0.31359 0.0
N105 N 0.03299 0.9649 0.33657 0.0
C106 C 0.04152 0.87717 0.33308 0.0
C107 C 0.03859 0.91934 0.34647 0.0
C108 C 0.03924 0.88208 0.3092 0.0
C109 C 0.03169 0.92868 0.29955 0.0
H110 H 0.02521 0.00695 0.30608 0.0
H111 H 0.04267 0.91683 0.36472 0.0
C112 C 0.17292 0.11451 0.42522 0.0
N113 N 0.17046 0.09951 0.4032 0.0
C114 C 0.21426 0.11149 0.43915 0.0
C115 C 0.25059 0.07899 0.40733 0.0
C116 C 0.20851 0.08245 0.39407 0.0
C117 C 0.25314 0.09248 0.43035 0.0
H118 H 0.14169 0.12726 0.43216 0.0
H119 H 0.20496 0.06975 0.37663 0.0
C120 C 0.93275 0.04411 0.34748 0.0
N121 N 0.81446 1.00041 0.33842 0.0
C122 C 0.90873 0.08215 0.34712 0.0
C123 C 0.89693 0.9841 0.34289 0.0
C124 C 0.84872 0.0591 0.34262 0.0
C125 C 0.83715 0.96281 0.33842 0.0
C126 C 0.07518 0.19687 0.39463 0.0
C127 C 0.02797 0.20667 0.39001 0.0
C128 C 0.12514 0.24083 0.40454 0.0
C129 C 0.03176 0.26071 0.39519 0.0
C130 C 0.12724 0.29429 0.40948 0.0
N131 N 0.08092 0.30305 0.40473 0.0
C132 C 0.94932 0.08265 0.42585 0.0
C133 C 0.87516 0.01743 0.40254 0.0
C134 C 0.90551 0.08267 0.44081 0.0
N135 N 0.93394 0.05202 0.40668 0.0
C136 C 0.82982 0.01644 0.417 0.0
C137 C 0.84493 0.05065 0.43612 0.0
H138 H 0.99603 0.10855 0.42926 0.0
H139 H 0.86313 0.99123 0.38788 0.0
C140 C 0.04994 0.19386 0.3179 0.0
N141 N 0.084 0.20638 0.33612 0.0
C142 C 0.0498 0.23995 0.3044 0.0
C143 C 0.12162 0.31182 0.328 0.0
C144 C 0.12063 0.26421 0.34102 0.0
C145 C 0.08498 0.29986 0.30964 0.0
H146 H 0.02141 0.1477 0.3142 0.0
H147 H 0.14802 0.2735 0.35536 0.0
O148 O 0.03485 0.01025 0.38911 0.0
O149 O 0.12294 0.10132 0.35085 0.0
O150 O 0.99149 0.06581 0.35165 0.0
O151 O 0.07274 0.14457 0.38949 0.0
H152 H 0.03814 0.016 0.43399 0.0
H153 H 0.93335 0.9147 0.38029 0.0
H154 H 0.9565 0.94403 0.46263 0.0
H155 H 0.8535 0.84455 0.40984 0.0
H156 H 0.29379 0.28051 0.35471 0.0
H157 H 0.17957 0.10141 0.31214 0.0
H158 H 0.19236 0.20088 0.37063 0.0
H159 H 0.28145 0.18281 0.29723 0.0
H160 H 0.04752 0.84221 0.34127 0.0
H161 H 0.0284 0.93351 0.28131 0.0
H162 H 0.21545 0.12343 0.45666 0.0
H163 H 0.27952 0.06398 0.39988 0.0
H164 H 0.93609 0.12895 0.35024 0.0
H165 H 0.91505 0.95426 0.34284 0.0
H166 H 0.82942 0.08792 0.34242 0.0
H167 H 0.80878 0.91639 0.33496 0.0
H168 H 0.98891 0.17293 0.38247 0.0
H169 H 0.16199 0.2338 0.40827 0.0
H170 H 0.99564 0.26899 0.39163 0.0
H171 H 0.16571 0.32882 0.41708 0.0
H172 H 0.91914 0.10911 0.45549 0.0
H173 H 0.78343 0.98948 0.41317 0.0
H174 H 0.02103 0.22862 0.29038 0.0
H175 H 0.15058 0.35746 0.3323 0.0
Li176 Li 0.11614 0.04601 0.69043 0.0
Li177 Li 0.11541 0.11552 0.7199 0.0
Li178 Li 0.03727 0.01191 0.72208 0.0
Li179 Li 0.0341 0.07638 0.69207 0.0
C180 C 0.12077 1.00098 0.7398 0.0
N181 N 0.10659 0.91211 0.77197 0.0
C182 C 0.12033 0.00979 0.76313 0.0
C183 C 0.11394 0.94698 0.73281 0.0
C184 C 0.11306 0.96429 0.77913 0.0
C185 C 0.10694 0.90264 0.74934 0.0
C186 C 0.16173 0.17617 0.67151 0.0
C187 C 0.18376 0.26451 0.64753 0.0
N188 N 0.24047 0.27534 0.64248 0.0
C189 C 0.22025 0.18817 0.66607 0.0
C190 C 0.14328 0.21459 0.66214 0.0
C191 C 0.25937 0.23853 0.65137 0.0
C192 C 0.17374 0.05159 0.64705 0.0
N193 N 0.17135 0.03733 0.66987 0.0
C194 C 0.25853 0.02753 0.66415 0.0
C195 C 0.21236 0.02497 0.67854 0.0
C196 C 0.26401 0.04494 0.64063 0.0
C197 C 0.21994 0.05588 0.63209 0.0
H198 H 0.14137 0.06245 0.64061 0.0
H199 H 0.21054 0.01503 0.69677 0.0
C200 C 0.15841 0.1784 0.7598 0.0
N201 N 0.1706 0.18154 0.73679 0.0
C202 C 0.20058 0.22071 0.77321 0.0
C203 C 0.2662 0.27041 0.73895 0.0
C204 C 0.22308 0.22682 0.72625 0.0
C205 C 0.25571 0.26744 0.76284 0.0
H206 H 0.11662 0.14182 0.76787 0.0
H207 H 0.23241 0.22854 0.70807 0.0
C208 C 0.98099 0.94087 0.68738 0.0
N209 N 0.88556 0.82616 0.68491 0.0
C210 C 0.92253 0.92767 0.69373 0.0
C211 C 0.99099 0.89601 0.67957 0.0
C212 C 0.87487 0.86929 0.69244 0.0
C213 C 0.9421 0.83822 0.67848 0.0
C214 C 0.01594 0.12836 0.72964 0.0
C215 C 0.96508 0.11745 0.74329 0.0
C216 C 0.0553 0.18629 0.71963 0.0
C217 C 0.95443 0.1647 0.74666 0.0
C218 C 0.04317 0.23237 0.72344 0.0
N219 N 0.99338 0.22071 0.73675 0.0
C220 C 0.9569 0.9596 0.76171 0.0
C221 C 0.96484 0.88661 0.74128 0.0
C222 C 0.91156 0.9148 0.77698 0.0
N223 N 0.9817 0.94502 0.74393 0.0
C224 C 0.91941 0.84031 0.7561 0.0
C225 C 0.89117 0.85408 0.77397 0.0
H226 H 0.97148 0.0062 0.76379 0.0
H227 H 0.98568 0.87562 0.72741 0.0
C228 C 0.99376 0.09905 0.65012 0.0
N229 N 0.9806 0.08761 0.67319 0.0
C230 C 0.95152 0.09878 0.63582 0.0
C231 C 0.8831 0.0754 0.66925 0.0
C232 C 0.92666 0.07633 0.68288 0.0
C233 C 0.89473 0.08557 0.64531 0.0
H234 H 0.03647 0.10675 0.64273 0.0
H235 H 0.91635 0.06553 0.70116 0.0
O236 O 0.12638 0.04438 0.72389 0.0
O237 O 0.12232 0.12647 0.68555 0.0
O238 O 0.02833 0.99748 0.68872 0.0
O239 O 0.02646 0.08219 0.72609 0.0
H240 H 0.12517 0.05112 0.76883 0.0
H241 H 0.11288 0.9389 0.71484 0.0
H242 H 0.11245 0.97041 0.79725 0.0
H243 H 0.1013 0.8605 0.74419 0.0
H244 H 0.17007 0.29463 0.64017 0.0
H245 H 0.23559 0.15938 0.67336 0.0
H246 H 0.09816 0.206 0.66611 0.0
H247 H 0.3048 0.24842 0.64708 0.0
H248 H 0.29002 0.01668 0.67149 0.0
H249 H 0.22225 0.06964 0.61416 0.0
H250 H 0.19086 0.21551 0.79161 0.0
H251 H 0.30777 0.30569 0.73015 0.0
H252 H 0.91418 0.96186 0.69994 0.0
H253 H 0.03608 0.9057 0.67457 0.0
H254 H 0.8294 0.85824 0.69748 0.0
H255 H 0.94911 0.80292 0.67257 0.0
H256 H 0.93382 0.07282 0.75105 0.0
H257 H 0.09497 0.19584 0.70913 0.0
H258 H 0.91515 0.15681 0.75713 0.0
H259 H 0.07336 0.27741 0.71581 0.0
H260 H 0.89135 0.9275 0.79059 0.0
H261 H 0.90622 0.79415 0.75351 0.0
H262 H 0.96299 0.1081 0.61752 0.0
H263 H 0.83987 0.0646 0.6773 0.0
C264 C 0.12667 0.68163 0.17058 0.0
C265 C 0.18113 0.72385 0.1591 0.0
C266 C 0.22295 0.7097 0.1659 0.0
C267 C 0.19178 0.65979 0.18106 0.0
N268 N 0.13296 0.64157 0.18424 0.0
Co269 Co 0.07194 0.57163 0.20473 0.0
N270 N 0.13502 0.56748 0.22183 0.0
C271 C 0.19406 0.59551 0.21501 0.0
C272 C 0.2271 0.58373 0.22987 0.0
C273 C 0.18633 0.54486 0.24696 0.0
C274 C 0.13038 0.5348 0.24147 0.0
N275 N 0.01067 0.5012 0.22513 0.0
C276 C 0.01664 0.47354 0.24433 0.0
C277 C 0.96206 0.42383 0.25244 0.0
C278 C 0.92089 0.41942 0.23756 0.0
C279 C 0.95238 0.46652 0.22126 0.0
N280 N 0.00946 0.57624 0.18749 0.0
C281 C 0.95161 0.53278 0.18752 0.0
C282 C 0.91887 0.5493 0.17428 0.0
C283 C 0.95866 0.60673 0.1653 0.0
C284 C 0.01368 0.62195 0.17355 0.0
N285 N 0.07421 0.51637 0.18317 0.0
C286 C 0.0663 0.43127 0.1531 0.0
C287 C 0.06787 0.48405 0.14487 0.0
C288 C 0.072 0.526 0.16015 0.0
C289 C 0.07039 0.42295 0.17656 0.0
C290 C 0.0746 0.46587 0.19119 0.0
N291 N 0.06873 0.6266 0.22613 0.0
C292 C 0.01014 0.65859 0.24829 0.0
C293 C 0.06226 0.71014 0.25361 0.0
C294 C 0.1179 0.71792 0.2454 0.0
C295 C 0.12015 0.67576 0.23173 0.0
C296 C 0.01432 0.61763 0.23461 0.0
H297 H 0.16351 0.68344 0.22543 0.0
H298 H 0.97319 0.57925 0.23053 0.0
H299 H 0.07206 0.56563 0.15335 0.0
H300 H 0.077 0.4573 0.20906 0.0
C301 C 0.21748 0.63607 0.19557 0.0
C302 C 0.06952 0.67884 0.16707 0.0
C303 C 0.07393 0.48732 0.25345 0.0
C304 C 0.92794 0.48228 0.2032 0.0
H305 H 0.18972 0.761 0.1471 0.0
H306 H 0.27078 0.73448 0.16116 0.0
H307 H 0.27511 0.60131 0.22847 0.0
H308 H 0.19628 0.52436 0.26137 0.0
H309 H 0.95341 0.39276 0.26712 0.0
H310 H 0.87365 0.38585 0.23853 0.0
H311 H 0.87119 0.52377 0.17223 0.0
H312 H 0.94825 0.63426 0.1541 0.0
H313 H 0.06432 0.49219 0.12687 0.0
H314 H 0.07015 0.38326 0.18366 0.0
H315 H 0.96616 0.65056 0.25421 0.0
H316 H 0.1595 0.75625 0.24953 0.0
C317 C 0.45766 0.00851 0.57452 0.0
C318 C 0.41501 0.95318 0.58535 0.0
C319 C 0.4225 0.9108 0.57507 0.0
C320 C 0.46947 0.94247 0.5588 0.0
N321 N 0.49299 1.00264 0.5582 0.0
Co322 Co 0.56313 0.06511 0.5376 0.0
N323 N 0.57 1.00221 0.52099 0.0
C324 C 0.53296 0.94208 0.52426 0.0
C325 C 0.54857 0.91008 0.51031 0.0
C326 C 0.59895 0.95223 0.49745 0.0
C327 C 0.61137 0.00771 0.50444 0.0
N328 N 0.63497 0.12744 0.51757 0.0
C329 C 0.67164 0.1211 0.50197 0.0
C330 C 0.71903 0.17633 0.49309 0.0
C331 C 0.71247 0.21911 0.50356 0.0
C332 C 0.66182 0.18771 0.51827 0.0
N333 N 0.55444 0.12786 0.55362 0.0
C334 C 0.58829 0.18806 0.54893 0.0
C335 C 0.5685 0.21983 0.56105 0.0
C336 C 0.51846 0.17744 0.57405 0.0
C337 C 0.51089 0.12193 0.5693 0.0
N338 N 0.61897 0.06547 0.56014 0.0
C339 C 0.70593 0.06876 0.58877 0.0
C340 C 0.70442 0.12079 0.58235 0.0
C341 C 0.66101 0.11817 0.56824 0.0
C342 C 0.66152 0.01453 0.58133 0.0
C343 C 0.61879 0.01388 0.56719 0.0
N344 N 0.50759 0.06542 0.51503 0.0
C345 C 0.4786 0.12092 0.48916 0.0
C346 C 0.4238 0.06944 0.48652 0.0
C347 C 0.41268 0.01525 0.49768 0.0
C348 C 0.45496 0.01419 0.51165 0.0
C349 C 0.51937 0.11796 0.50331 0.0
H350 H 0.44381 0.97155 0.51975 0.0
H351 H 0.55967 0.1592 0.50476 0.0
H352 H 0.6631 0.1597 0.56382 0.0
H353 H 0.58643 0.9712 0.56197 0.0
C354 C 0.48835 0.91688 0.54233 0.0
C355 C 0.46076 0.06484 0.57963 0.0
C356 C 0.66438 0.06394 0.49553 0.0
C357 C 0.63786 0.21331 0.53277 0.0
H358 H 0.38096 0.94421 0.59889 0.0
H359 H 0.39559 0.86253 0.57852 0.0
H360 H 0.5272 0.86176 0.51013 0.0
H361 H 0.6246 0.94312 0.48478 0.0
H362 H 0.75499 0.18477 0.48052 0.0
H363 H 0.74153 0.26734 0.50094 0.0
H364 H 0.58749 0.26805 0.56019 0.0
H365 H 0.49023 0.18648 0.58543 0.0
H366 H 0.73758 0.16386 0.58776 0.0
H367 H 0.65956 0.97263 0.58641 0.0
H368 H 0.48949 0.16391 0.48078 0.0
H369 H 0.37155 0.97375 0.49564 0.0
C370 C 0.69301 0.60978 0.83946 0.0
C371 C 0.73549 0.59759 0.82978 0.0
C372 C 0.7192 0.54038 0.83791 0.0
C373 C 0.66794 0.52098 0.85204 0.0
N374 N 0.65088 0.56231 0.85335 0.0
Co375 Co 0.57966 0.55274 0.87192 0.0
N376 N 0.5715 0.48252 0.89105 0.0
C377 C 0.59895 0.45116 0.88605 0.0
C378 C 0.58379 0.40372 0.90175 0.0
C379 C 0.54329 0.40425 0.91746 0.0
C380 C 0.53582 0.45217 0.91043 0.0
N381 N 0.50773 0.54277 0.89029 0.0
C382 C 0.47693 0.50679 0.90956 0.0
C383 C 0.42779 0.5127 0.91599 0.0
C384 C 0.42665 0.55216 0.89986 0.0
C385 C 0.47517 0.56848 0.88459 0.0
N386 N 0.58839 0.62295 0.85281 0.0
C387 C 0.54629 0.63879 0.85095 0.0
C388 C 0.56541 0.68971 0.83658 0.0
C389 C 0.6232 0.70696 0.82888 0.0
C390 C 0.63605 0.66542 0.83904 0.0
N391 N 0.52643 0.49839 0.85014 0.0
C392 C 0.44223 0.4264 0.82005 0.0
C393 C 0.49641 0.47751 0.81163 0.0
C394 C 0.53785 0.51301 0.82697 0.0
C395 C 0.43268 0.41057 0.84362 0.0
C396 C 0.47522 0.44673 0.85822 0.0
N397 N 0.63265 0.60775 0.89351 0.0
C398 C 0.66312 0.69528 0.91465 0.0
C399 C 0.71364 0.69338 0.92128 0.0
C400 C 0.72175 0.64648 0.91424 0.0
C401 C 0.68071 0.60409 0.90048 0.0
C402 C 0.62352 0.65243 0.90077 0.0
H403 H 0.68846 0.56893 0.8952 0.0
H404 H 0.58613 0.6564 0.89553 0.0
H405 H 0.57847 0.55296 0.8201 0.0
H406 H 0.46582 0.43327 0.87613 0.0
C407 C 0.64153 0.46981 0.86736 0.0
C408 C 0.69242 0.66557 0.83422 0.0
C409 C 0.48755 0.46069 0.92043 0.0
C410 C 0.49413 0.61112 0.86581 0.0
H411 H 0.77427 0.62701 0.81815 0.0
H412 H 0.74343 0.51689 0.83473 0.0
H413 H 0.60001 0.37229 0.90172 0.0
H414 H 0.51995 0.37143 0.9319 0.0
H415 H 0.3949 0.48914 0.93039 0.0
H416 H 0.3943 0.56718 0.89936 0.0
H417 H 0.5412 0.71296 0.83288 0.0
H418 H 0.65252 0.74559 0.81716 0.0
H419 H 0.50585 0.4909 0.79344 0.0
H420 H 0.39219 0.37054 0.8508 0.0
H421 H 0.65501 0.73065 0.91968 0.0
H422 H 0.7595 0.64248 0.91934 0.0
C423 C 0.00989 0.27765 0.13011 0.0
C424 C 0.04575 0.29075 0.10946 0.0
C425 C 0.01638 0.32334 0.14389 0.0
C426 C 0.05904 0.38411 0.13762 0.0
H427 H 0.97634 0.23164 0.13566 0.0
H428 H 0.98757 0.31095 0.15959 0.0
S429 S 0.16677 0.44218 0.08602 0.0
N430 N 0.12732 0.36897 0.08394 0.0
N431 N 0.13919 0.45463 0.10976 0.0
C432 C 0.09521 0.3979 0.11704 0.0
C433 C 0.08868 0.35135 0.10301 0.0
C434 C 0.79592 0.04526 0.475 0.0
C435 C 0.79826 0.05397 0.45096 0.0
C436 C 0.75286 0.04904 0.4893 0.0
C437 C 0.71112 0.06239 0.4801 0.0
H438 H 0.82717 0.03474 0.4828 0.0
H439 H 0.75199 0.04129 0.50768 0.0
S440 S 0.69927 0.0915 0.41866 0.0
N441 N 0.75566 0.07828 0.4188 0.0
N442 N 0.6749 0.08513 0.44577 0.0
C443 C 0.71313 0.07171 0.45624 0.0
C444 C 0.75662 0.06753 0.44165 0.0
C445 C 0.83899 0.80756 0.81313 0.0
C446 C 0.83991 0.80567 0.78911 0.0
C447 C 0.79092 0.7625 0.82765 0.0
C448 C 0.74183 0.7144 0.81865 0.0
H449 H 0.87613 0.84371 0.82078 0.0
H450 H 0.79228 0.76503 0.84603 0.0
S451 S 0.72023 0.68963 0.75726 0.0
N452 N 0.78571 0.75221 0.75714 0.0
N453 N 0.69588 0.66786 0.78449 0.0
C454 C 0.74163 0.71225 0.79478 0.0
C455 C 0.79053 0.75775 0.78 0.0
C456 C 0.06288 0.76627 0.11414 0.0
C457 C 0.07803 0.82259 0.12205 0.0
C458 C 0.05906 0.71966 0.12885 0.0
C459 C 0.06963 0.72731 0.1521 0.0
H460 H 0.05486 0.75844 0.09631 0.0
H461 H 0.0485 0.67752 0.12196 0.0
S462 S 0.1087 0.86426 0.18178 0.0
N463 N 0.10202 0.88216 0.15506 0.0
N464 N 0.09533 0.7945 0.18251 0.0
C465 C 0.08453 0.7829 0.16031 0.0
C466 C 0.08856 0.8305 0.14537 0.0
C467 C 0.35621 0.11001 0.43697 0.0
C468 C 0.29563 0.08578 0.44503 0.0
C469 C 0.39705 0.10411 0.45038 0.0
C470 C 0.37892 0.0731 0.47231 0.0
H471 H 0.37241 0.13442 0.42024 0.0
H472 H 0.44323 0.12382 0.44345 0.0
S473 S 0.22515 1.00025 0.50125 0.0
N474 N 0.21934 0.02842 0.47624 0.0
N475 N 0.29614 0.01804 0.50149 0.0
C476 C 0.31839 0.04821 0.48051 0.0
C477 C 0.27685 0.0545 0.4669 0.0
C478 C 0.36365 0.32628 0.77241 0.0
C479 C 0.30321 0.31104 0.77685 0.0
C480 C 0.40875 0.36495 0.78597 0.0
C481 C 0.39515 0.38953 0.80465 0.0
H482 H 0.37606 0.30695 0.75868 0.0
H483 H 0.45425 0.37423 0.78225 0.0
S484 S 0.24591 0.36976 0.82215 0.0
N485 N 0.23373 0.32833 0.8002 0.0
N486 N 0.31807 0.39966 0.82589 0.0
C487 C 0.33545 0.37618 0.8089 0.0
C488 C 0.28965 0.33728 0.795 0.0
C489 C 0.81377 0.10886 0.63606 0.0
C490 C 0.84716 0.08094 0.63047 0.0
C491 C 0.76828 0.10454 0.62258 0.0
C492 C 0.75376 0.07164 0.60304 0.0
H493 H 0.82323 0.13479 0.65089 0.0
H494 H 0.74391 0.12682 0.62763 0.0
S495 S 0.82713 0.98952 0.58102 0.0
N496 N 0.86157 0.01823 0.60418 0.0
N497 N 0.77717 0.01123 0.57864 0.0
C498 C 0.78666 0.04336 0.59728 0.0
C499 C 0.83309 0.04786 0.61098 0.0
C500 C 0.77742 0.79996 0.96868 0.0
C501 C 0.83966 0.8322 0.96244 0.0
C502 C 0.73715 0.75538 0.95531 0.0
C503 C 0.75748 0.74044 0.93533 0.0
H504 H 0.75956 0.80969 0.98393 0.0
H505 H 0.68969 0.73199 0.9608 0.0
S506 S 0.91594 0.81091 0.91152 0.0
N507 N 0.9196 0.84544 0.93493 0.0
N508 N 0.84406 0.76206 0.90983 0.0
C509 C 0.81957 0.77212 0.92893 0.0
C510 C 0.86053 0.81789 0.94243 0.0
C511 C 0.0131 0.77705 0.30095 0.0
C512 C 0.0457 0.83925 0.29459 0.0
C513 C 0.01886 0.7359 0.28769 0.0
C514 C 0.05795 0.75512 0.26759 0.0
H515 H 0.98235 0.75988 0.31622 0.0
H516 H 0.99277 0.68856 0.29336 0.0
S517 S 0.15415 0.91313 0.24349 0.0
N518 N 0.11942 0.91804 0.26695 0.0
N519 N 0.12939 0.8408 0.24189 0.0
C520 C 0.09098 0.81719 0.26107 0.0
C521 C 0.08497 0.85911 0.27453 0.0
C522 C 0.30575 0.03131 0.60305 0.0
C523 C 0.31549 0.05227 0.62513 0.0
C524 C 0.35308 0.03675 0.58832 0.0
C525 C 0.41203 0.06316 0.59508 0.0
H526 H 0.26097 0.00947 0.59721 0.0
H527 H 0.34339 0.01939 0.57161 0.0
S528 S 0.46299 0.12785 0.65035 0.0
N529 N 0.39027 0.10383 0.65231 0.0
N530 N 0.47806 0.111 0.625 0.0
C531 C 0.42274 0.08472 0.6169 0.0
C532 C 0.37483 0.07999 0.63182 0.0
C533 C 0.40006 0.35351 0.97324 0.0
C534 C 0.347 0.3096 0.96446 0.0
C535 C 0.44505 0.40265 0.95906 0.0
C536 C 0.43814 0.41013 0.93569 0.0
H537 H 0.40712 0.34942 0.99116 0.0
H538 H 0.48564 0.43482 0.96636 0.0
S539 S 0.30636 0.31018 0.90458 0.0
N540 N 0.2895 0.27847 0.93105 0.0
N541 N 0.37341 0.3706 0.9046 0.0
C542 C 0.38495 0.36718 0.92683 0.0
C543 C 0.33958 0.317 0.94114 0.0
C544 C 0.08756 0.35125 0.27173 0.0
C545 C 0.08306 0.34903 0.29584 0.0
C546 C 0.0843 0.39588 0.25827 0.0
C547 C 0.07608 0.43991 0.26837 0.0
H548 H 0.09412 0.31843 0.26315 0.0
H549 H 0.08839 0.39606 0.2398 0.0
S550 S 0.05926 0.45331 0.3305 0.0
N551 N 0.06818 0.39434 0.32916 0.0
N552 N 0.06248 0.47835 0.30369 0.0
C553 C 0.07117 0.43829 0.29234 0.0
C554 C 0.07467 0.39292 0.30611 0.0
loop_
_geom_bond_atom_site_label_1
_geom_bond_atom_site_label_2
_geom_bond_distance
_geom_bond_site_symmetry_2
_ccdc_geom_bond_type
Li0 N17 1.994 . S
Li0 O60 1.956 . S
Li0 O61 1.970 . S
Li0 O62 1.961 . S
Li1 N25 1.990 . S
Li1 O60 1.970 . S
Li1 O61 1.956 . S
Li1 O63 1.961 . S
Li2 N47 1.990 1_545 S
Li2 O60 1.961 . S
Li2 O62 1.956 . S
Li2 O63 1.970 . S
Li3 N53 1.990 1_445 S
Li3 O61 1.961 . S
Li3 O62 1.970 . S
Li3 O63 1.956 . S
C4 C6 1.348 . S
C4 C7 1.356 . S
C4 O60 1.325 . S
N5 C8 1.314 . S
N5 C9 1.279 . S
C6 C4 1.348 . S
C6 C8 1.353 . S
C6 H64 0.929 . S
C7 C4 1.356 . S
C7 C9 1.358 . S
C7 H65 0.930 . S
C8 N5 1.314 . S
C8 C6 1.353 . S
C8 H66 0.930 . S
C9 N5 1.279 . S
C9 C7 1.358 . S
C9 H67 0.930 . S
C10 C13 1.348 1_554 S
C10 C14 1.356 . S
C10 O61 1.325 . S
C11 N12 1.279 1_655 S
C11 C14 1.358 1_656 S
C11 H68 0.930 . S
N12 C11 1.279 1_455 S
N12 C15 1.314 . S
C13 C10 1.348 1_556 S
C13 C15 1.353 . S
C13 H69 0.929 . S
C14 C10 1.356 . S
C14 C11 1.358 1_454 S
C14 H70 0.930 1_455 S
C15 N12 1.314 . S
C15 C13 1.353 . S
C15 H71 0.930 . S
C16 N17 1.307 1_556 S
C16 C21 1.353 . S
C16 H22 0.930 . S
N17 Li0 1.994 . S
N17 C16 1.307 1_554 S
N17 C19 1.282 . S
C18 C19 1.358 1_556 S
C18 C20 1.356 . S
C18 H72 0.930 . S
C19 N17 1.282 . S
C19 C18 1.358 1_554 S
C19 H23 0.930 . S
C20 C18 1.356 . S
C20 C21 1.348 . S
C21 C16 1.353 . S
C21 C20 1.348 . S
C21 H73 0.929 . S
H22 C16 0.930 . S
H23 C19 0.930 . S
C24 N25 1.314 . S
C24 C26 1.353 . S
C24 H30 0.930 . S
N25 Li1 1.990 . S
N25 C24 1.314 . S
N25 C28 1.279 . S
C26 C24 1.353 . S
C26 C29 1.348 . S
C26 H74 0.929 1_455 S
C27 C28 1.358 . S
C27 C29 1.356 . S
C27 H75 0.930 . S
C28 N25 1.279 . S
C28 C27 1.358 . S
C28 H31 0.930 . S
C29 C26 1.348 . S
C29 C27 1.356 . S
H30 C24 0.930 . S
H31 C28 0.930 . S
C32 C34 1.348 1_554 S
C32 C35 1.356 . S
C32 O62 1.325 1_565 S
N33 C36 1.314 . S
N33 C37 1.279 . S
C34 C32 1.348 1_556 S
C34 C36 1.353 . S
C34 H76 0.929 . S
C35 C32 1.356 . S
C35 C37 1.358 1_554 S
C35 H77 0.930 1_565 S
C36 N33 1.314 . S
C36 C34 1.353 . S
C36 H78 0.930 . S
C37 N33 1.279 . S
C37 C35 1.358 1_556 S
C37 H79 0.930 . S
C38 C39 1.348 . S
C38 C40 1.356 . S
C38 O63 1.325 1_665 S
C39 C38 1.348 . S
C39 C41 1.353 . S
C39 H80 0.929 . S
C40 C38 1.356 . S
C40 C42 1.358 . S
C40 H81 0.930 1_565 S
C41 C39 1.353 . S
C41 N43 1.314 . S
C41 H82 0.930 . S
C42 C40 1.358 . S
C42 N43 1.279 . S
C42 H83 0.930 . S
N43 C41 1.314 . S
N43 C42 1.279 . S
C44 C46 1.353 . S
C44 N47 1.314 . S
C44 H50 0.920 1_565 S
C45 N47 1.279 . S
C45 C48 1.358 . S
C45 H51 0.930 . S
C46 C44 1.353 . S
C46 C49 1.348 . S
C46 H84 0.929 . S
N47 Li2 1.990 1_565 S
N47 C44 1.314 . S
N47 C45 1.279 . S
C48 C45 1.358 . S
C48 C49 1.356 . S
C48 H85 0.930 . S
C49 C46 1.348 . S
C49 C48 1.356 . S
H50 C44 0.920 1_545 S
H51 C45 0.930 . S
C52 N53 1.314 1_556 S
C52 C54 1.353 . S
C52 H58 0.930 1_565 S
N53 Li3 1.990 1_665 S
N53 C52 1.314 1_554 S
N53 C56 1.279 . S
C54 C52 1.353 . S
C54 C57 1.348 . S
C54 H86 0.929 . S
C55 C56 1.358 1_556 S
C55 C57 1.356 . S
C55 H87 0.930 1_556 S
C56 N53 1.279 . S
C56 C55 1.358 1_554 S
C56 H59 0.930 . S
C57 C54 1.348 . S
C57 C55 1.356 . S
H58 C52 0.930 1_545 S
H59 C56 0.930 . S
O60 Li0 1.956 . S
O60 Li1 1.970 . S
O60 Li2 1.961 . S
O60 C4 1.325 . S
O61 Li0 1.970 . S
O61 Li1 1.956 . S
O61 Li3 1.961 . S
O61 C10 1.325 . S
O62 Li0 1.961 . S
O62 Li2 1.956 . S
O62 Li3 1.970 . S
O62 C32 1.325 1_545 S
O63 Li1 1.961 . S
O63 Li2 1.970 . S
O63 Li3 1.956 . S
O63 C38 1.325 1_445 S
H64 C6 0.929 . S
H65 C7 0.930 . S
H66 C8 0.930 . S
H67 C9 0.930 . S
H68 C11 0.930 . S
H69 C13 0.929 . S
H70 C14 0.930 1_655 S
H71 C15 0.930 . S
H72 C18 0.930 . S
H73 C21 0.929 . S
H74 C26 0.929 1_655 S
H75 C27 0.930 . S
H76 C34 0.929 . S
H77 C35 0.930 1_545 S
H78 C36 0.930 . S
H79 C37 0.930 . S
H80 C39 0.929 . S
H81 C40 0.930 1_545 S
H82 C41 0.930 . S
H83 C42 0.930 . S
H84 C46 0.929 . S
H85 C48 0.930 . S
H86 C54 0.929 . S
H87 C55 0.930 1_554 S
Li88 N105 1.990 1_545 S
Li88 O148 1.956 . S
Li88 O149 1.970 . S
Li88 O150 1.961 1_455 S
Li89 N113 1.990 . S
Li89 O148 1.970 . S
Li89 O149 1.956 . S
Li89 O151 1.961 . S
Li90 N135 1.990 . S
Li90 O148 1.961 1_655 S
Li90 O150 1.956 . S
Li90 O151 1.970 1_655 S
Li91 N141 1.990 . S
Li91 O149 1.961 . S
Li91 O150 1.970 1_455 S
Li91 O151 1.956 . S
C92 C94 1.348 . S
C92 C95 1.356 1_455 S
C92 O148 1.325 1_565 S
N93 C96 1.314 1_655 S
N93 C97 1.279 . S
C94 C92 1.348 . S
C94 C96 1.353 . S
C94 H152 0.929 . S
C95 C92 1.356 1_655 S
C95 C97 1.358 . S
C95 H153 0.930 . S
C96 N93 1.314 1_455 S
C96 C94 1.353 . S
C96 H154 0.930 . S
C97 N93 1.279 . S
C97 C95 1.358 . S
C97 H155 0.930 . S
C98 C101 1.348 . S
C98 C102 1.356 . S
C98 O149 1.325 . S
C99 N100 1.279 . S
C99 C102 1.358 . S
C99 H156 0.930 . S
N100 C99 1.279 . S
N100 C103 1.314 . S
C101 C98 1.348 . S
C101 C103 1.353 . S
C101 H157 0.929 . S
C102 C98 1.356 . S
C102 C99 1.358 . S
C102 H158 0.930 . S
C103 N100 1.314 . S
C103 C101 1.353 . S
C103 H159 0.930 . S
C104 N105 1.314 1_655 S
C104 C109 1.353 . S
C104 H110 0.930 . S
N105 Li88 1.990 1_565 S
N105 C104 1.314 1_455 S
N105 C107 1.279 . S
C106 C107 1.358 1_655 S
C106 C108 1.356 . S
C106 H160 0.930 . S
C107 N105 1.279 . S
C107 C106 1.358 1_455 S
C107 H111 0.930 . S
C108 C106 1.356 . S
C108 C109 1.348 . S
C109 C104 1.353 . S
C109 C108 1.348 . S
C109 H161 0.929 . S
H110 C104 0.930 . S
H111 C107 0.930 . S
C112 N113 1.314 . S
C112 C114 1.353 . S
C112 H118 0.930 . S
N113 Li89 1.990 . S
N113 C112 1.314 . S
N113 C116 1.279 . S
C114 C112 1.353 . S
C114 C117 1.348 . S
C114 H162 0.929 . S
C115 C116 1.358 . S
C115 C117 1.356 . S
C115 H163 0.930 . S
C116 N113 1.279 . S
C116 C115 1.358 . S
C116 H119 0.930 . S
C117 C114 1.348 . S
C117 C115 1.356 . S
H118 C112 0.930 . S
H119 C116 0.930 . S
C120 C122 1.348 . S
C120 C123 1.356 1_545 S
C120 O150 1.325 . S
N121 C124 1.314 . S
N121 C125 1.279 1_545 S
C122 C120 1.348 . S
C122 C124 1.353 . S
C122 H164 0.929 . S
C123 C120 1.356 1_565 S
C123 C125 1.358 . S
C123 H165 0.930 . S
C124 N121 1.314 . S
C124 C122 1.353 . S
C124 H166 0.930 . S
C125 N121 1.279 1_565 S
C125 C123 1.358 . S
C125 H167 0.930 . S
C126 C127 1.348 . S
C126 C128 1.356 . S
C126 O151 1.325 . S
C127 C126 1.348 . S
C127 C129 1.353 . S
C127 H168 0.929 1_455 S
C128 C126 1.356 . S
C128 C130 1.358 . S
C128 H169 0.930 . S
C129 C127 1.353 . S
C129 N131 1.314 . S
C129 H170 0.930 . S
C130 C128 1.358 . S
C130 N131 1.279 . S
C130 H171 0.930 . S
N131 C129 1.314 . S
N131 C130 1.279 . S
C132 C134 1.353 . S
C132 N135 1.314 . S
C132 H138 0.930 . S
C133 N135 1.279 . S
C133 C136 1.358 . S
C133 H139 0.930 . S
C134 C132 1.353 . S
C134 C137 1.348 . S
C134 H172 0.929 . S
N135 Li90 1.990 . S
N135 C132 1.314 . S
N135 C133 1.279 . S
C136 C133 1.358 . S
C136 C137 1.356 . S
C136 H173 0.930 . S
C137 C134 1.348 . S
C137 C136 1.356 . S
H138 C132 0.930 . S
H139 C133 0.930 . S
C140 N141 1.314 . S
C140 C142 1.353 . S
C140 H146 0.930 . S
N141 Li91 1.990 . S
N141 C140 1.314 . S
N141 C144 1.279 . S
C142 C140 1.353 . S
C142 C145 1.348 . S
C142 H174 0.929 . S
C143 C144 1.358 . S
C143 C145 1.356 . S
C143 H175 0.930 . S
C144 N141 1.279 . S
C144 C143 1.358 . S
C144 H147 0.930 . S
C145 C142 1.348 . S
C145 C143 1.356 . S
H146 C140 0.930 . S
H147 C144 0.930 . S
O148 Li88 1.956 . S
O148 Li89 1.970 . S
O148 Li90 1.961 1_455 S
O148 C92 1.325 1_545 S
O149 Li88 1.970 . S
O149 Li89 1.956 . S
O149 Li91 1.961 . S
O149 C98 1.325 . S
O150 Li88 1.961 1_655 S
O150 Li90 1.956 . S
O150 Li91 1.970 1_655 S
O150 C120 1.325 . S
O151 Li89 1.961 . S
O151 Li90 1.970 1_455 S
O151 Li91 1.956 . S
O151 C126 1.325 . S
H152 C94 0.929 . S
H153 C95 0.930 . S
H154 C96 0.930 . S
H155 C97 0.930 . S
H156 C99 0.930 . S
H157 C101 0.929 . S
H158 C102 0.930 . S
H159 C103 0.930 . S
H160 C106 0.930 . S
H161 C109 0.929 . S
H162 C114 0.929 . S
H163 C115 0.930 . S
H164 C122 0.929 . S
H165 C123 0.930 . S
H166 C124 0.930 . S
H167 C125 0.930 . S
H168 C127 0.929 1_655 S
H169 C128 0.930 . S
H170 C129 0.930 . S
H171 C130 0.930 . S
H172 C134 0.929 . S
H173 C136 0.930 . S
H174 C142 0.929 . S
H175 C143 0.930 . S
Li176 N193 1.990 . S
Li176 O236 1.956 . S
Li176 O237 1.970 . S
Li176 O238 1.961 1_545 S
Li177 N201 1.990 . S
Li177 O236 1.970 . S
Li177 O237 1.956 . S
Li177 O239 1.961 . S
Li178 N223 1.990 1_455 S
Li178 O236 1.961 1_565 S
Li178 O238 1.956 . S
Li178 O239 1.970 1_565 S
Li179 N229 1.990 1_455 S
Li179 O237 1.961 . S
Li179 O238 1.970 1_545 S
Li179 O239 1.956 . S
C180 C182 1.348 . S
C180 C183 1.356 1_545 S
C180 O236 1.325 . S
N181 C184 1.314 1_565 S
N181 C185 1.279 . S
C182 C180 1.348 . S
C182 C184 1.353 . S
C182 H240 0.929 . S
C183 C180 1.356 1_565 S
C183 C185 1.358 . S
C183 H241 0.930 . S
C184 N181 1.314 1_545 S
C184 C182 1.353 . S
C184 H242 0.930 . S
C185 N181 1.279 . S
C185 C183 1.358 . S
C185 H243 0.930 . S
C186 C189 1.348 . S
C186 C190 1.356 . S
C186 O237 1.325 . S
C187 N188 1.279 . S
C187 C190 1.358 . S
C187 H244 0.930 . S
N188 C187 1.279 . S
N188 C191 1.314 . S
C189 C186 1.348 . S
C189 C191 1.353 . S
C189 H245 0.929 . S
C190 C186 1.356 . S
C190 C187 1.358 . S
C190 H246 0.930 . S
C191 N188 1.314 . S
C191 C189 1.353 . S
C191 H247 0.930 . S
C192 N193 1.314 . S
C192 C197 1.353 1_545 S
C192 H198 0.930 . S
N193 Li176 1.990 . S
N193 C192 1.314 . S
N193 C195 1.279 . S
C194 C195 1.358 . S
C194 C196 1.356 1_545 S
C194 H248 0.937 . S
C195 N193 1.279 . S
C195 C194 1.358 . S
C195 H199 0.930 . S
C196 C194 1.356 1_565 S
C196 C197 1.348 . S
C197 C192 1.353 1_565 S
C197 C196 1.348 . S
C197 H249 0.929 . S
H198 C192 0.930 . S
H199 C195 0.930 . S
C200 N201 1.314 . S
C200 C202 1.353 . S
C200 H206 0.930 . S
N201 Li177 1.990 . S
N201 C200 1.314 . S
N201 C204 1.279 . S
C202 C200 1.353 . S
C202 C205 1.348 . S
C202 H250 0.929 . S
C203 C204 1.358 . S
C203 C205 1.356 . S
C203 H251 0.930 . S
C204 N201 1.279 . S
C204 C203 1.358 . S
C204 H207 0.930 . S
C205 C202 1.348 . S
C205 C203 1.356 . S
H206 C200 0.930 . S
H207 C204 0.930 . S
C208 C210 1.348 . S
C208 C211 1.356 1_655 S
C208 O238 1.325 1_655 S
N209 C212 1.314 . S
N209 C213 1.279 . S
C210 C208 1.348 . S
C210 C212 1.353 . S
C210 H252 0.929 . S
C211 C208 1.356 1_455 S
C211 C213 1.358 1_455 S
C211 H253 0.930 . S
C212 N209 1.314 . S
C212 C210 1.353 . S
C212 H254 0.930 . S
C213 N209 1.279 . S
C213 C211 1.358 1_655 S
C213 H255 0.930 . S
C214 C215 1.348 . S
C214 C216 1.356 . S
C214 O239 1.325 1_655 S
C215 C214 1.348 . S
C215 C217 1.353 . S
C215 H256 0.929 1_545 S
C216 C214 1.356 . S
C216 C218 1.358 . S
C216 H257 0.930 1_655 S
C217 C215 1.353 . S
C217 N219 1.314 . S
C217 H258 0.930 . S
C218 C216 1.358 . S
C218 N219 1.279 . S
C218 H259 0.930 . S
N219 C217 1.314 . S
N219 C218 1.279 . S
C220 C222 1.353 . S
C220 N223 1.314 . S
C220 H226 0.930 1_655 S
C221 N223 1.279 . S
C221 C224 1.358 . S
C221 H227 0.930 . S
C222 C220 1.353 . S
C222 C225 1.348 . S
C222 H260 0.929 . S
N223 Li178 1.990 1_655 S
N223 C220 1.314 . S
N223 C221 1.279 . S
C224 C221 1.358 . S
C224 C225 1.356 . S
C224 H261 0.930 . S
C225 C222 1.348 . S
C225 C224 1.356 . S
H226 C220 0.930 1_455 S
H227 C221 0.930 . S
C228 N229 1.314 . S
C228 C230 1.353 . S
C228 H234 0.930 1_655 S
N229 Li179 1.990 1_655 S
N229 C228 1.314 . S
N229 C232 1.279 . S
C230 C228 1.353 . S
C230 C233 1.348 . S
C230 H262 0.929 . S
C231 C232 1.358 . S
C231 C233 1.356 . S
C231 H263 0.930 . S
C232 N229 1.279 . S
C232 C231 1.358 . S
C232 H235 0.930 . S
C233 C230 1.348 . S
C233 C231 1.356 . S
H234 C228 0.930 1_455 S
H235 C232 0.930 . S
O236 Li176 1.956 . S
O236 Li177 1.970 . S
O236 Li178 1.961 1_545 S
O236 C180 1.325 . S
O237 Li176 1.970 . S
O237 Li177 1.956 . S
O237 Li179 1.961 . S
O237 C186 1.325 . S
O238 Li176 1.961 1_565 S
O238 Li178 1.956 . S
O238 Li179 1.970 1_565 S
O238 C208 1.325 1_455 S
O239 Li177 1.961 . S
O239 Li178 1.970 1_545 S
O239 Li179 1.956 . S
O239 C214 1.325 1_455 S
H240 C182 0.929 . S
H241 C183 0.930 . S
H242 C184 0.930 . S
H243 C185 0.930 . S
H244 C187 0.930 . S
H245 C189 0.929 . S
H246 C190 0.930 . S
H247 C191 0.930 . S
H248 C194 0.937 . S
H249 C197 0.929 . S
H250 C202 0.929 . S
H251 C203 0.930 . S
H252 C210 0.929 . S
H253 C211 0.930 . S
H254 C212 0.930 . S
H255 C213 0.930 . S
H256 C215 0.929 1_565 S
H257 C216 0.930 1_455 S
H258 C217 0.930 . S
H259 C218 0.930 . S
H260 C222 0.929 . S
H261 C224 0.930 . S
H262 C230 0.929 . S
H263 C231 0.930 . S
C264 C265 1.443 . S
C264 N268 1.376 . S
C264 C302 1.389 . S
C265 C264 1.443 . S
C265 C266 1.340 . S
C265 H305 0.951 . S
C266 C265 1.340 . S
C266 C267 1.439 . S
C266 H306 0.950 . S
C267 C266 1.439 . S
C267 N268 1.374 . S
C267 C301 1.395 . S
N268 C264 1.376 . S
N268 C267 1.374 . S
N268 Co269 2.008 . S
Co269 N268 2.008 . S
Co269 N270 1.995 . S
Co269 N275 2.008 1_455 S
Co269 N280 1.995 1_455 S
Co269 N285 2.282 . S
Co269 N291 2.282 . S
N270 Co269 1.995 . S
N270 C271 1.376 . S
N270 C274 1.383 . S
C271 N270 1.376 . S
C271 C272 1.446 . S
C271 C301 1.391 . S
C272 C271 1.446 . S
C272 C273 1.339 . S
C272 H307 0.949 . S
C273 C272 1.339 . S
C273 C274 1.439 . S
C273 H308 0.950 . S
C274 N270 1.383 . S
C274 C273 1.439 . S
C274 C303 1.392 . S
N275 Co269 2.008 1_655 S
N275 C276 1.376 . S
N275 C279 1.374 . S
C276 N275 1.376 . S
C276 C277 1.443 . S
C276 C303 1.389 1_655 S
C277 C276 1.443 . S
C277 C278 1.340 . S
C277 H309 0.951 . S
C278 C277 1.340 . S
C278 C279 1.439 . S
C278 H310 0.950 . S
C279 N275 1.374 . S
C279 C278 1.439 . S
C279 C304 1.395 . S
N280 Co269 1.995 1_655 S
N280 C281 1.376 . S
N280 C284 1.383 . S
C281 N280 1.376 . S
C281 C282 1.446 . S
C281 C304 1.391 . S
C282 C281 1.446 . S
C282 C283 1.339 . S
C282 H311 0.949 . S
C283 C282 1.339 . S
C283 C284 1.439 . S
C283 H312 0.950 . S
C284 N280 1.383 . S
C284 C283 1.439 . S
C284 C302 1.392 1_655 S
N285 Co269 2.282 . S
N285 C288 1.332 1_455 S
N285 C290 1.332 . S
C286 C287 1.386 1_455 S
C286 C289 1.388 . S
C287 C286 1.386 1_655 S
C287 C288 1.382 . S
C287 H313 0.950 . S
C288 N285 1.332 1_655 S
C288 C287 1.382 . S
C288 H299 0.952 . S
C289 C286 1.388 . S
C289 C290 1.382 . S
C289 H314 0.950 . S
C290 N285 1.332 . S
C290 C289 1.382 . S
C290 H300 0.948 . S
N291 Co269 2.282 . S
N291 C295 1.332 . S
N291 C296 1.332 1_455 S
C292 C293 1.388 1_655 S
C292 C296 1.382 . S
C292 H315 0.950 . S
C293 C292 1.388 1_455 S
C293 C294 1.386 . S
C294 C293 1.386 . S
C294 C295 1.382 . S
C294 H316 0.950 . S
C295 N291 1.332 . S
C295 C294 1.382 . S
C295 H297 0.952 . S
C296 N291 1.332 1_655 S
C296 C292 1.382 . S
C296 H298 0.948 . S
H297 C295 0.952 . S
H298 C296 0.948 . S
H299 C288 0.952 . S
H300 C290 0.948 . S
C301 C267 1.395 . S
C301 C271 1.391 . S
C302 C264 1.389 . S
C302 C284 1.392 1_455 S
C303 C274 1.392 . S
C303 C276 1.389 1_455 S
C304 C279 1.395 . S
C304 C281 1.391 . S
H305 C265 0.951 . S
H306 C266 0.950 . S
H307 C272 0.949 . S
H308 C273 0.950 . S
H309 C277 0.951 . S
H310 C278 0.950 . S
H311 C282 0.949 . S
H312 C283 0.950 . S
H313 C287 0.950 . S
H314 C289 0.950 . S
H315 C292 0.950 . S
H316 C294 0.950 . S
C317 C318 1.443 1_545 S
C317 N321 1.376 . S
C317 C355 1.389 . S
C318 C317 1.443 1_565 S
C318 C319 1.340 . S
C318 H358 0.951 . S
C319 C318 1.340 . S
C319 C320 1.439 . S
C319 H359 0.950 . S
C320 C319 1.439 . S
C320 N321 1.374 1_565 S
C320 C354 1.395 . S
N321 C317 1.376 . S
N321 C320 1.374 1_545 S
N321 Co322 2.008 . S
Co322 N321 2.008 . S
Co322 N323 1.995 . S
Co322 N328 2.008 . S
Co322 N333 1.995 . S
Co322 N338 2.282 . S
Co322 N344 2.282 . S
N323 Co322 1.995 . S
N323 C324 1.376 1_545 S
N323 C327 1.383 . S
C324 N323 1.376 1_565 S
C324 C325 1.446 . S
C324 C354 1.391 . S
C325 C324 1.446 . S
C325 C326 1.339 . S
C325 H360 0.949 . S
C326 C325 1.339 . S
C326 C327 1.439 1_565 S
C326 H361 0.950 . S
C327 N323 1.383 . S
C327 C326 1.439 1_545 S
C327 C356 1.392 . S
N328 Co322 2.008 . S
N328 C329 1.376 . S
N328 C332 1.374 . S
C329 N328 1.376 . S
C329 C330 1.443 . S
C329 C356 1.389 . S
C330 C329 1.443 . S
C330 C331 1.340 . S
C330 H362 0.951 . S
C331 C330 1.340 . S
C331 C332 1.439 . S
C331 H363 0.950 . S
C332 N328 1.374 . S
C332 C331 1.439 . S
C332 C357 1.395 . S
N333 Co322 1.995 . S
N333 C334 1.376 . S
N333 C337 1.383 . S
C334 N333 1.376 . S
C334 C335 1.446 . S
C334 C357 1.391 . S
C335 C334 1.446 . S
C335 C336 1.339 . S
C335 H364 0.949 . S
C336 C335 1.339 . S
C336 C337 1.439 . S
C336 H365 0.950 . S
C337 N333 1.383 . S
C337 C336 1.439 . S
C337 C355 1.392 . S
N338 Co322 2.282 . S
N338 C341 1.332 . S
N338 C343 1.332 . S
C339 C340 1.386 . S
C339 C342 1.388 . S
C340 C339 1.386 . S
C340 C341 1.382 . S
C340 H366 0.950 . S
C341 N338 1.332 . S
C341 C340 1.382 . S
C341 H352 0.952 . S
C342 C339 1.388 . S
C342 C343 1.382 . S
C342 H367 0.969 . S
C343 N338 1.332 . S
C343 C342 1.382 . S
C343 H353 0.948 . S
N344 Co322 2.282 . S
N344 C348 1.332 . S
N344 C349 1.332 . S
C345 C346 1.388 . S
C345 C349 1.382 . S
C345 H368 0.950 . S
C346 C345 1.388 . S
C346 C347 1.386 . S
C347 C346 1.386 . S
C347 C348 1.382 . S
C347 H369 0.950 . S
C348 N344 1.332 . S
C348 C347 1.382 . S
C348 H350 0.952 . S
C349 N344 1.332 . S
C349 C345 1.382 . S
C349 H351 0.948 . S
H350 C348 0.952 . S
H351 C349 0.948 . S
H352 C341 0.952 . S
H353 C343 0.948 . S
C354 C320 1.395 . S
C354 C324 1.391 . S
C355 C317 1.389 . S
C355 C337 1.392 . S
C356 C327 1.392 . S
C356 C329 1.389 . S
C357 C332 1.395 . S
C357 C334 1.391 . S
H358 C318 0.951 . S
H359 C319 0.950 . S
H360 C325 0.949 . S
H361 C326 0.950 . S
H362 C330 0.951 . S
H363 C331 0.950 . S
H364 C335 0.949 . S
H365 C336 0.950 . S
H366 C340 0.950 . S
H367 C342 0.969 . S
H368 C345 0.950 . S
H369 C347 0.950 . S
C370 C371 1.443 . S
C370 N374 1.376 . S
C370 C408 1.389 . S
C371 C370 1.443 . S
C371 C372 1.340 . S
C371 H411 0.951 . S
C372 C371 1.340 . S
C372 C373 1.439 . S
C372 H412 0.950 . S
C373 C372 1.439 . S
C373 N374 1.374 . S
C373 C407 1.395 . S
N374 C370 1.376 . S
N374 C373 1.374 . S
N374 Co375 2.008 . S
Co375 N374 2.008 . S
Co375 N376 1.995 . S
Co375 N381 2.008 . S
Co375 N386 1.995 . S
Co375 N391 2.282 . S
Co375 N397 2.282 . S
N376 Co375 1.995 . S
N376 C377 1.376 . S
N376 C380 1.383 . S
C377 N376 1.376 . S
C377 C378 1.446 . S
C377 C407 1.391 . S
C378 C377 1.446 . S
C378 C379 1.339 . S
C378 H413 0.949 . S
C379 C378 1.339 . S
C379 C380 1.439 . S
C379 H414 0.950 . S
C380 N376 1.383 . S
C380 C379 1.439 . S
C380 C409 1.392 . S
N381 Co375 2.008 . S
N381 C382 1.376 . S
N381 C385 1.374 . S
C382 N381 1.376 . S
C382 C383 1.443 . S
C382 C409 1.389 . S
C383 C382 1.443 . S
C383 C384 1.340 . S
C383 H415 0.951 . S
C384 C383 1.340 . S
C384 C385 1.439 . S
C384 H416 0.950 . S
C385 N381 1.374 . S
C385 C384 1.439 . S
C385 C410 1.395 . S
N386 Co375 1.995 . S
N386 C387 1.376 . S
N386 C390 1.383 . S
C387 N386 1.376 . S
C387 C388 1.446 . S
C387 C410 1.391 . S
C388 C387 1.446 . S
C388 C389 1.339 . S
C388 H417 0.949 . S
C389 C388 1.339 . S
C389 C390 1.439 . S
C389 H418 0.950 . S
C390 N386 1.383 . S
C390 C389 1.439 . S
C390 C408 1.392 . S
N391 Co375 2.282 . S
N391 C394 1.332 . S
N391 C396 1.332 . S
C392 C393 1.386 . S
C392 C395 1.388 . S
C393 C392 1.386 . S
C393 C394 1.382 . S
C393 H419 0.950 . S
C394 N391 1.332 . S
C394 C393 1.382 . S
C394 H405 0.952 . S
C395 C392 1.388 . S
C395 C396 1.382 . S
C395 H420 0.950 . S
C396 N391 1.332 . S
C396 C395 1.382 . S
C396 H406 0.948 . S
N397 Co375 2.282 . S
N397 C401 1.332 . S
N397 C402 1.332 . S
C398 C399 1.388 . S
C398 C402 1.382 . S
C398 H421 0.950 . S
C399 C398 1.388 . S
C399 C400 1.386 . S
C400 C399 1.386 . S
C400 C401 1.382 . S
C400 H422 0.950 . S
C401 N397 1.332 . S
C401 C400 1.382 . S
C401 H403 0.952 . S
C402 N397 1.332 . S
C402 C398 1.382 . S
C402 H404 0.948 . S
H403 C401 0.952 . S
H404 C402 0.948 . S
H405 C394 0.952 . S
H406 C396 0.948 . S
C407 C373 1.395 . S
C407 C377 1.391 . S
C408 C370 1.389 . S
C408 C390 1.392 . S
C409 C380 1.392 . S
C409 C382 1.389 . S
C410 C385 1.395 . S
C410 C387 1.391 . S
H411 C371 0.951 . S
H412 C372 0.950 . S
H413 C378 0.949 . S
H414 C379 0.950 . S
H415 C383 0.951 . S
H416 C384 0.950 . S
H417 C388 0.949 . S
H418 C389 0.950 . S
H419 C393 0.950 . S
H420 C395 0.950 . S
H421 C398 0.950 . S
H422 C400 0.950 . S
C423 C424 1.369 1_655 S
C423 C425 1.419 . S
C423 H427 0.930 . S
C424 C423 1.369 1_455 S
C424 C433 1.429 . S
C425 C423 1.419 . S
C425 C426 1.363 1_655 S
C425 H428 0.929 . S
C426 C425 1.363 1_455 S
C426 C432 1.428 . S
H427 C423 0.930 . S
H428 C425 0.929 . S
S429 N430 1.613 . S
S429 N431 1.610 . S
N430 S429 1.613 . S
N430 C433 1.350 . S
N431 S429 1.610 . S
N431 C432 1.351 . S
C432 C426 1.428 . S
C432 N431 1.351 . S
C432 C433 1.434 . S
C433 C424 1.429 . S
C433 N430 1.350 . S
C433 C432 1.434 . S
C434 C435 1.368 1_565 S
C434 C436 1.411 1_565 S
C434 H438 0.939 . S
C435 C434 1.368 1_545 S
C435 C444 1.429 . S
C436 C434 1.411 1_545 S
C436 C437 1.363 . S
C436 H439 0.925 1_545 S
C437 C436 1.363 . S
C437 C443 1.428 . S
H438 C434 0.939 . S
H439 C436 0.925 1_565 S
S440 N441 1.613 . S
S440 N442 1.610 . S
N441 S440 1.613 . S
N441 C444 1.350 . S
N442 S440 1.610 . S
N442 C443 1.351 . S
C443 C437 1.428 . S
C443 N442 1.351 . S
C443 C444 1.434 . S
C444 C435 1.429 . S
C444 N441 1.350 . S
C444 C443 1.434 . S
C445 C446 1.369 . S
C445 C447 1.419 . S
C445 H449 0.930 . S
C446 C445 1.369 . S
C446 C455 1.429 . S
C447 C445 1.419 . S
C447 C448 1.363 . S
C447 H450 0.929 . S
C448 C447 1.363 . S
C448 C454 1.428 . S
H449 C445 0.930 . S
H450 C447 0.929 . S
S451 N452 1.613 . S
S451 N453 1.610 . S
N452 S451 1.613 . S
N452 C455 1.350 . S
N453 S451 1.610 . S
N453 C454 1.351 . S
C454 C448 1.428 . S
C454 N453 1.351 . S
C454 C455 1.434 . S
C455 C446 1.429 . S
C455 N452 1.350 . S
C455 C454 1.434 . S
C456 C457 1.369 . S
C456 C458 1.419 . S
C456 H460 0.930 . S
C457 C456 1.369 . S
C457 C466 1.429 . S
C458 C456 1.419 . S
C458 C459 1.363 . S
C458 H461 0.929 . S
C459 C458 1.363 . S
C459 C465 1.428 . S
H460 C456 0.930 . S
H461 C458 0.929 . S
S462 N463 1.613 1_655 S
S462 N464 1.610 . S
N463 S462 1.613 1_455 S
N463 C466 1.350 . S
N464 S462 1.610 . S
N464 C465 1.351 1_655 S
C465 C459 1.428 . S
C465 N464 1.351 1_455 S
C465 C466 1.434 . S
C466 C457 1.429 . S
C466 N463 1.350 . S
C466 C465 1.434 . S
C467 C468 1.369 . S
C467 C469 1.419 . S
C467 H471 0.930 . S
C468 C467 1.369 . S
C468 C477 1.429 . S
C469 C467 1.419 . S
C469 C470 1.363 . S
C469 H472 0.929 . S
C470 C469 1.363 . S
C470 C476 1.428 . S
H471 C467 0.930 . S
H472 C469 0.929 . S
S473 N474 1.613 1_565 S
S473 N475 1.610 1_565 S
N474 S473 1.613 1_545 S
N474 C477 1.350 . S
N475 S473 1.610 1_545 S
N475 C476 1.351 . S
C476 C470 1.428 . S
C476 N475 1.351 . S
C476 C477 1.434 . S
C477 C468 1.429 . S
C477 N474 1.350 . S
C477 C476 1.434 . S
C478 C479 1.369 . S
C478 C480 1.419 . S
C478 H482 0.930 . S
C479 C478 1.369 . S
C479 C488 1.429 . S
C480 C478 1.419 . S
C480 C481 1.363 . S
C480 H483 0.929 . S
C481 C480 1.363 . S
C481 C487 1.428 . S
H482 C478 0.930 . S
H483 C480 0.929 . S
S484 N485 1.613 . S
S484 N486 1.610 . S
N485 S484 1.613 . S
N485 C488 1.350 . S
N486 S484 1.610 . S
N486 C487 1.351 . S
C487 C481 1.428 . S
C487 N486 1.351 . S
C487 C488 1.434 . S
C488 C479 1.429 . S
C488 N485 1.350 . S
C488 C487 1.434 . S
C489 C490 1.369 . S
C489 C491 1.419 . S
C489 H493 0.930 . S
C490 C489 1.369 . S
C490 C499 1.429 . S
C491 C489 1.419 . S
C491 C492 1.363 . S
C491 H494 0.929 . S
C492 C491 1.363 . S
C492 C498 1.428 . S
H493 C489 0.930 . S
H494 C491 0.929 . S
S495 N496 1.611 1_565 S
S495 N497 1.606 1_565 S
N496 S495 1.611 1_545 S
N496 C499 1.350 . S
N497 S495 1.606 1_545 S
N497 C498 1.351 . S
C498 C492 1.428 . S
C498 N497 1.351 . S
C498 C499 1.434 . S
C499 C490 1.429 . S
C499 N496 1.350 . S
C499 C498 1.434 . S
C500 C501 1.369 . S
C500 C502 1.419 . S
C500 H504 0.930 . S
C501 C500 1.369 . S
C501 C510 1.429 . S
C502 C500 1.419 . S
C502 C503 1.363 . S
C502 H505 0.929 . S
C503 C502 1.363 . S
C503 C509 1.428 . S
H504 C500 0.930 . S
H505 C502 0.929 . S
S506 N507 1.613 . S
S506 N508 1.610 . S
N507 S506 1.613 . S
N507 C510 1.350 . S
N508 S506 1.610 . S
N508 C509 1.351 . S
C509 C503 1.428 . S
C509 N508 1.351 . S
C509 C510 1.434 . S
C510 C501 1.429 . S
C510 N507 1.350 . S
C510 C509 1.434 . S
C511 C512 1.369 . S
C511 C513 1.419 . S
C511 H515 0.930 . S
C512 C511 1.369 . S
C512 C521 1.429 1_655 S
C513 C511 1.419 . S
C513 C514 1.363 1_655 S
C513 H516 0.929 . S
C514 C513 1.363 1_455 S
C514 C520 1.428 . S
H515 C511 0.930 . S
H516 C513 0.929 . S
S517 N518 1.613 . S
S517 N519 1.610 . S
N518 S517 1.613 . S
N518 C521 1.350 . S
N519 S517 1.610 . S
N519 C520 1.351 . S
C520 C514 1.428 . S
C520 N519 1.351 . S
C520 C521 1.434 . S
C521 C512 1.429 1_455 S
C521 N518 1.350 . S
C521 C520 1.434 . S
C522 C523 1.369 1_565 S
C522 C524 1.419 1_565 S
C522 H526 0.930 . S
C523 C522 1.369 1_545 S
C523 C532 1.429 . S
C524 C522 1.419 1_545 S
C524 C525 1.363 . S
C524 H527 0.930 . S
C525 C524 1.363 . S
C525 C531 1.428 . S
H526 C522 0.930 . S
H527 C524 0.930 . S
S528 N529 1.613 . S
S528 N530 1.610 . S
N529 S528 1.613 . S
N529 C532 1.350 . S
N530 S528 1.610 . S
N530 C531 1.351 . S
C531 C525 1.428 . S
C531 N530 1.351 . S
C531 C532 1.434 . S
C532 C523 1.429 . S
C532 N529 1.350 . S
C532 C531 1.434 . S
C533 C534 1.369 . S
C533 C535 1.419 . S
C533 H537 0.930 . S
C534 C533 1.369 . S
C534 C543 1.429 . S
C535 C533 1.419 . S
C535 C536 1.363 . S
C535 H538 0.929 . S
C536 C535 1.363 . S
C536 C542 1.428 . S
H537 C533 0.930 . S
H538 C535 0.929 . S
S539 N540 1.613 . S
S539 N541 1.610 . S
N540 S539 1.613 . S
N540 C543 1.350 . S
N541 S539 1.610 . S
N541 C542 1.351 . S
C542 C536 1.428 . S
C542 N541 1.351 . S
C542 C543 1.434 . S
C543 C534 1.429 . S
C543 N540 1.350 . S
C543 C542 1.434 . S
C544 C545 1.369 . S
C544 C546 1.419 . S
C544 H548 0.930 . S
C545 C544 1.369 . S
C545 C554 1.429 . S
C546 C544 1.419 . S
C546 C547 1.363 . S
C546 H549 0.929 . S
C547 C546 1.363 . S
C547 C553 1.428 . S
H548 C544 0.930 . S
H549 C546 0.929 . S
S550 N551 1.613 1_655 S
S550 N552 1.610 . S
N551 S550 1.613 1_455 S
N551 C554 1.350 . S
N552 S550 1.610 . S
N552 C553 1.351 1_655 S
C553 C547 1.428 . S
C553 N552 1.351 1_455 S
C553 C554 1.434 . S
C554 C545 1.429 . S
C554 N551 1.350 . S
C554 C553 1.434 . S
C426 C286 1.501 . S
C424 C29 1.474 . S
C435 C137 1.545 . S
C437 C356 1.586 . S
C446 C225 1.550 . S
C448 C408 1.588 . S
C457 C49 1.567 . S
C459 C302 1.603 . S
C470 C346 1.515 . S
C468 C117 1.487 . S
C479 C205 1.489 . S
C481 C392 1.508 . S
C492 C339 1.501 . S
C490 C233 1.475 . S
C501 C57 1.482 . S
C503 C399 1.508 . S
C514 C293 1.515 . S
C512 C108 1.486 . S
C525 C355 1.603 . S
C523 C196 1.566 1_545 S
C536 C409 1.595 . S
C534 C20 1.553 . S
C545 C145 1.545 . S
C547 C303 1.586 . S
