# Generated by pormake.
# Topology anh, (6,3)-cn, num edge types: 1
# Building blocks:
#     Node 0, Type 0, BuildingBlock: BETDAH_clean_sbu_0, # of connection points: 6
#     Node 1, Type 0, BuildingBlock: BETDAH_clean_sbu_0, # of connection points: 6
#     Node 2, Type 0, BuildingBlock: BETDAH_clean_sbu_0, # of connection points: 6
#     Node 3, Type 1, BuildingBlock: OLANEW_clean_sbu_2, # of connection points: 3
#     Node 4, Type 1, BuildingBlock: OLANEW_clean_sbu_2, # of connection points: 3
#     Node 5, Type 1, BuildingBlock: OLANEW_clean_sbu_2, # of connection points: 3
#     Node 6, Type 1, BuildingBlock: OLANEW_clean_sbu_2, # of connection points: 3
#     Node 7, Type 1, BuildingBlock: OLANEW_clean_sbu_2, # of connection points: 3
#     Node 8, Type 1, BuildingBlock: OLANEW_clean_sbu_2, # of connection points: 3
#     Edge 9, Type (0, 1), BuildingBlock: CIFDUS_clean_linker_0, # of connection points: 2
#     Edge 10, Type (0, 1), BuildingBlock: CIFDUS_clean_linker_0, # of connection points: 2
#     Edge 11, Type (0, 1), BuildingBlock: CIFDUS_clean_linker_0, # of connection points: 2
#     Edge 12, Type (0, 1), BuildingBlock: CIFDUS_clean_linker_0, # of connection points: 2
#     Edge 13, Type (0, 1), BuildingBlock: CIFDUS_clean_linker_0, # of connection points: 2
#     Edge 14, Type (0, 1), BuildingBlock: CIFDUS_clean_linker_0, # of connection points: 2
#     Edge 15, Type (0, 1), BuildingBlock: CIFDUS_clean_linker_0, # of connection points: 2
#     Edge 16, Type (0, 1), BuildingBlock: CIFDUS_clean_linker_0, # of connection points: 2
#     Edge 17, Type (0, 1), BuildingBlock: CIFDUS_clean_linker_0, # of connection points: 2
#     Edge 18, Type (0, 1), BuildingBlock: CIFDUS_clean_linker_0, # of connection points: 2
#     Edge 19, Type (0, 1), BuildingBlock: CIFDUS_clean_linker_0, # of connection points: 2
#     Edge 20, Type (0, 1), BuildingBlock: CIFDUS_clean_linker_0, # of connection points: 2
#     Edge 21, Type (0, 1), BuildingBlock: CIFDUS_clean_linker_0, # of connection points: 2
#     Edge 22, Type (0, 1), BuildingBlock: CIFDUS_clean_linker_0, # of connection points: 2
#     Edge 23, Type (0, 1), BuildingBlock: CIFDUS_clean_linker_0, # of connection points: 2
#     Edge 24, Type (0, 1), BuildingBlock: CIFDUS_clean_linker_0, # of connection points: 2
#     Edge 25, Type (0, 1), BuildingBlock: CIFDUS_clean_linker_0, # of connection points: 2
#     Edge 26, Type (0, 1), BuildingBlock: CIFDUS_clean_linker_0, # of connection points: 2
# Relax obj value: 0.161
# Max RMSD: 0.181
# Mean RMSD: 0.118
data_MOF--net-anh--node1-BETDAH_clean_sbu_0--node2-OLANEW_clean_sbu_2--edge1-CIFDUS_clean_linker_0
_symmetry_space_group_name_H-M    P1
_symmetry_Int_Tables_number       1
_symmetry_cell_setting            triclinic
loop_
_symmetry_equiv_pos_as_xyz
'x, y, z'
_cell_length_a     33.348038
_cell_length_b     37.542569
_cell_length_c     44.123761
_cell_angle_alpha  92.440011
_cell_angle_beta   89.530373
_cell_angle_gamma 130.88706
loop_
_atom_site_label
_atom_site_type_symbol
_atom_site_fract_x
_atom_site_fract_y
_atom_site_fract_z
_atom_type_partial_charge
Ho0 Ho 0.06834 0.52787 0.12587 0.0
Ho1 Ho 0.027 0.57659 0.14752 0.0
C2 C 0.1513 0.64228 0.14008 0.0
C3 C 0.11252 0.49884 0.09966 0.0
C4 C 0.15385 0.49905 0.11094 0.0
C5 C 0.16397 0.47247 0.09539 0.0
C6 C 0.19551 0.46506 0.10909 0.0
C7 C 0.21674 0.48376 0.13864 0.0
C8 C 0.20861 0.51237 0.15346 0.0
C9 C 0.17744 0.52 0.13969 0.0
C10 C 0.05962 0.53127 0.18647 0.0
C11 C 0.9453 0.46367 0.13542 0.0
C12 C 0.98442 0.60466 0.17734 0.0
C13 C 0.93231 0.58457 0.18885 0.0
C14 C 0.92966 0.60353 0.21603 0.0
C15 C 0.88105 0.58855 0.22584 0.0
C16 C 0.83434 0.55458 0.20844 0.0
C17 C 0.83689 0.5337 0.18207 0.0
C18 C 0.88547 0.54843 0.17243 0.0
C19 C 0.03793 0.5738 0.08681 0.0
O20 O 0.14326 0.60547 0.12704 0.0
O21 O 0.11275 0.63875 0.15236 0.0
O22 O 0.06836 0.47157 0.11433 0.0
O23 O 0.12689 0.54 0.0951 0.0
O24 O 0.05364 0.49753 0.1717 0.0
O25 O 0.07495 0.56328 0.16888 0.0
O26 O 0.95635 0.49957 0.15177 0.0
O27 O 0.98098 0.46921 0.11768 0.0
O28 O 0.98907 0.60601 0.14785 0.0
O29 O 1.00795 0.59185 0.19043 0.0
O30 O 0.0461 0.60865 0.10174 0.0
O31 O 0.02095 0.54123 0.10431 0.0
H32 H 0.14544 0.45559 0.07335 0.0
H33 H 0.20081 0.44257 0.09725 0.0
H34 H 0.22498 0.52761 0.17609 0.0
H35 H 0.16956 0.54032 0.15211 0.0
H36 H 0.96547 0.63103 0.22918 0.0
H37 H 0.8803 0.60468 0.24654 0.0
H38 H 0.80186 0.5078 0.16793 0.0
H39 H 0.88667 0.53289 0.15156 0.0
Ho40 Ho 0.56396 0.9961 0.48408 0.0
Ho41 Ho 0.49554 0.02706 0.47324 0.0
C42 C 0.43605 0.91775 0.46953 0.0
C43 C 0.60313 0.9656 0.51199 0.0
C44 C 0.59651 0.92257 0.51157 0.0
C45 C 0.57388 0.89375 0.53652 0.0
C46 C 0.56814 0.85347 0.53714 0.0
C47 C 0.58538 0.84128 0.51291 0.0
C48 C 0.60814 0.87012 0.48791 0.0
C49 C 0.61354 0.91033 0.4872 0.0
C50 C 0.54517 0.99429 0.42396 0.0
C51 C 0.62569 0.10688 0.47999 0.0
C52 C 0.4593 0.06737 0.45834 0.0
C53 C 0.4791 0.11588 0.46295 0.0
C54 C 0.52839 0.15497 0.45201 0.0
C55 C 0.5484 0.20081 0.45907 0.0
C56 C 0.51979 0.20862 0.47737 0.0
C57 C 0.46979 0.16934 0.48751 0.0
C58 C 0.44965 0.12354 0.48027 0.0
C59 C 0.50643 0.01093 0.53034 0.0
O60 O 0.47827 0.92818 0.48317 0.0
O61 O 0.43592 0.95037 0.45923 0.0
O62 O 0.62567 0.99249 0.48866 0.0
O63 O 0.56284 0.96102 0.52196 0.0
O64 O 0.57175 0.98295 0.43426 0.0
O65 O 0.53008 0.0041 0.44641 0.0
O66 O 0.57993 0.09632 0.47384 0.0
O67 O 0.62917 0.07481 0.48658 0.0
O68 O 0.446 0.0441 0.48301 0.0
O69 O 0.48506 0.06098 0.43967 0.0
O70 O 0.46334 1.00019 0.51977 0.0
O71 O 0.5416 0.0312 0.51069 0.0
H72 H 0.56096 0.90261 0.55576 0.0
H73 H 0.55128 0.83243 0.55695 0.0
H74 H 0.62154 0.86146 0.46886 0.0
H75 H 0.63126 0.93185 0.46763 0.0
H76 H 0.55204 0.15031 0.43849 0.0
H77 H 0.58651 0.23016 0.45037 0.0
H78 H 0.44688 0.17391 0.50192 0.0
H79 H 0.41159 0.09402 0.489 0.0
Ho80 Ho 0.58357 0.56262 0.86182 0.0
Ho81 Ho 0.4976 0.45613 0.86193 0.0
C82 C 0.45784 0.51266 0.86237 0.0
C83 C 0.63913 0.64971 0.84818 0.0
C84 C 0.62771 0.68016 0.84032 0.0
C85 C 0.58173 0.66217 0.82356 0.0
C86 C 0.57148 0.69164 0.81658 0.0
C87 C 0.60703 0.73969 0.8262 0.0
C88 C 0.65289 0.75738 0.8431 0.0
C89 C 0.66306 0.72789 0.85007 0.0
C90 C 0.55589 0.52658 0.91722 0.0
C91 C 0.6247 0.50705 0.86539 0.0
C92 C 0.44337 0.36772 0.87073 0.0
C93 C 0.45233 0.33597 0.85959 0.0
C94 C 0.42333 0.29075 0.8706 0.0
C95 C 0.43141 0.26053 0.85902 0.0
C96 C 0.46841 0.27514 0.83614 0.0
C97 C 0.49819 0.32097 0.82579 0.0
C98 C 0.49026 0.35104 0.8374 0.0
C99 C 0.52319 0.49195 0.80672 0.0
O100 O 0.50654 0.54819 0.85358 0.0
O101 O 0.44594 0.4738 0.87193 0.0
O102 O 0.62961 0.63619 0.87606 0.0
O103 O 0.62377 0.61572 0.82835 0.0
O104 O 0.60387 0.56357 0.91073 0.0
O105 O 0.52499 0.51307 0.89492 0.0
O106 O 0.57395 0.46907 0.868 0.0
O107 O 0.63957 0.54865 0.86032 0.0
O108 O 0.43117 0.38297 0.84971 0.0
O109 O 0.47915 0.40146 0.89018 0.0
O110 O 0.47552 0.45626 0.81419 0.0
O111 O 0.55563 0.50516 0.82819 0.0
H112 H 0.55379 0.62539 0.81578 0.0
H113 H 0.5361 0.67689 0.80327 0.0
H114 H 0.68071 0.79396 0.85129 0.0
H115 H 0.69857 0.74239 0.86318 0.0
H116 H 0.39406 0.27864 0.88782 0.0
H117 H 0.40773 0.22536 0.86732 0.0
H118 H 0.52759 0.33356 0.80857 0.0
H119 H 0.51339 0.38601 0.82879 0.0
O120 O 0.5727 0.11883 0.25333 0.0
Cd121 Cd 0.57491 0.13651 0.20017 0.0
O122 O 0.53832 0.04811 0.23674 0.0
Cd123 Cd 0.49577 0.97249 0.23553 0.0
O124 O 0.43298 0.90292 0.21377 0.0
C125 C 0.40124 0.90203 0.19727 0.0
O126 O 0.40932 0.94112 0.19526 0.0
C127 C 0.5531 0.07731 0.25901 0.0
C128 C 0.66601 0.22624 0.18503 0.0
O129 O 0.62638 0.21966 0.19666 0.0
O130 O 0.66283 0.19044 0.18089 0.0
O131 O 0.63219 0.5372 0.61862 0.0
Cd132 Cd 0.63677 0.53898 0.56319 0.0
O133 O 0.57947 0.55334 0.62058 0.0
Cd134 Cd 0.58405 0.5714 0.57355 0.0
O135 O 0.58025 0.61719 0.54721 0.0
C136 C 0.62132 0.65432 0.53594 0.0
O137 O 0.66648 0.66323 0.53786 0.0
C138 C 0.60396 0.5428 0.63383 0.0
C139 C 0.59619 0.4514 0.53705 0.0
O140 O 0.64539 0.4831 0.54477 0.0
O141 O 0.56624 0.46119 0.54151 0.0
O142 O 0.09195 0.51606 0.90695 0.0
Cd143 Cd 0.13141 0.5122 0.86005 0.0
O144 O 0.0381 0.52792 0.89214 0.0
Cd145 Cd 0.97687 0.53569 0.89656 0.0
O146 O 0.91765 0.54575 0.89215 0.0
C147 C 0.86821 0.51154 0.88676 0.0
O148 O 0.85105 0.4685 0.88414 0.0
C149 C 0.05905 0.52199 0.91321 0.0
C150 C 0.20933 0.50321 0.86665 0.0
O151 O 0.22268 0.54375 0.86477 0.0
O152 O 0.15957 0.46718 0.8663 0.0
O153 O 0.04957 0.54565 0.37973 0.0
Cd154 Cd 0.05802 0.56594 0.43401 0.0
O155 O 0.99315 0.46766 0.37918 0.0
Cd156 Cd 0.96988 0.4525 0.42647 0.0
O157 O 0.9056 0.3907 0.45098 0.0
C158 C 0.86028 0.37923 0.45076 0.0
O159 O 0.85506 0.40721 0.4383 0.0
C160 C 0.02335 0.50588 0.36532 0.0
C161 C 0.14964 0.66078 0.44436 0.0
O162 O 0.15112 0.62769 0.44628 0.0
O163 O 0.10473 0.64901 0.43816 0.0
O164 O 0.47586 0.93809 0.72215 0.0
Cd165 Cd 0.48798 0.93892 0.77699 0.0
O166 O 0.53263 0.01565 0.72023 0.0
Cd167 Cd 0.53189 0.03167 0.76844 0.0
O168 O 0.51947 0.07284 0.79721 0.0
C169 C 0.51209 0.09646 0.78226 0.0
O170 O 0.51276 0.09383 0.75248 0.0
C171 C 0.50282 0.97492 0.70684 0.0
C172 C 0.50707 0.8788 0.79104 0.0
O173 O 0.45988 0.86406 0.7903 0.0
O174 O 0.5453 0.92197 0.78522 0.0
O175 O 0.50517 0.50186 0.11406 0.0
Cd176 Cd 0.47946 0.48166 0.16675 0.0
O177 O 0.45267 0.42828 0.09563 0.0
Cd178 Cd 0.42021 0.4006 0.14 0.0
O179 O 0.39318 0.39062 0.18672 0.0
C180 C 0.36648 0.39963 0.20015 0.0
O181 O 0.35593 0.38981 0.22886 0.0
C182 C 0.48766 0.47229 0.09165 0.0
C183 C 0.55393 0.4813 0.19374 0.0
O184 O 0.55937 0.51845 0.19496 0.0
O185 O 0.51187 0.4436 0.18081 0.0
H186 H 0.29271 0.48254 0.11753 0.0
H187 H 0.19953 0.45381 0.19614 0.0
H188 H 0.23858 0.42635 0.22217 0.0
H189 H 0.29627 0.4075 0.22177 0.0
H190 H 0.39129 0.4388 0.14354 0.0
H191 H 0.35402 0.46733 0.11826 0.0
C192 C 0.28107 0.47029 0.14037 0.0
C193 C 0.24335 0.47018 0.15488 0.0
C194 C 0.30352 0.4544 0.15519 0.0
C195 C 0.22899 0.45475 0.18461 0.0
C196 C 0.251 0.43872 0.19943 0.0
C197 C 0.30909 0.42061 0.19919 0.0
C198 C 0.34589 0.41941 0.1845 0.0
C199 C 0.28794 0.43798 0.18481 0.0
C200 C 0.36206 0.43723 0.15537 0.0
C201 C 0.34098 0.45428 0.14082 0.0
H202 H 0.63477 0.18381 0.47373 0.0
H203 H 0.72838 0.14299 0.48419 0.0
H204 H 0.80954 0.22445 0.47861 0.0
H205 H 0.85363 0.30623 0.46717 0.0
H206 H 0.75946 0.34624 0.45569 0.0
H207 H 0.67909 0.26627 0.46556 0.0
C208 C 0.67285 0.1926 0.47493 0.0
C209 C 0.67519 0.157 0.47906 0.0
C210 C 0.71942 0.23948 0.47147 0.0
C211 C 0.72515 0.16946 0.48092 0.0
C212 C 0.7717 0.21611 0.47768 0.0
C213 C 0.81562 0.29764 0.46719 0.0
C214 C 0.81268 0.33223 0.46045 0.0
C215 C 0.76927 0.25128 0.47244 0.0
C216 C 0.76298 0.32036 0.4606 0.0
C217 C 0.71688 0.27453 0.46617 0.0
H218 H 0.51238 0.72025 0.82626 0.0
H219 H 0.67859 0.83073 0.80867 0.0
H220 H 0.66258 0.88342 0.79678 0.0
H221 H 0.60148 0.89829 0.79109 0.0
H222 H 0.43491 0.78734 0.80751 0.0
H223 H 0.45096 0.73469 0.81971 0.0
C224 C 0.54505 0.75568 0.81953 0.0
C225 C 0.59668 0.7714 0.8185 0.0
C226 C 0.53552 0.78582 0.81246 0.0
C227 C 0.63859 0.81778 0.81015 0.0
C228 C 0.62943 0.84793 0.80315 0.0
C229 C 0.56865 0.8626 0.79735 0.0
C230 C 0.51706 0.84691 0.79839 0.0
C231 C 0.5781 0.83238 0.80427 0.0
C232 C 0.47503 0.80045 0.80649 0.0
C233 C 0.48416 0.77025 0.81349 0.0
H234 H 0.73267 0.47026 0.20387 0.0
H235 H 0.82423 0.6181 0.22838 0.0
H236 H 0.74337 0.6062 0.23112 0.0
H237 H 0.64892 0.55705 0.21877 0.0
H238 H 0.55753 0.41054 0.19047 0.0
H239 H 0.6359 0.41872 0.19704 0.0
C240 C 0.73486 0.49977 0.21007 0.0
C241 C 0.78457 0.54507 0.21551 0.0
C242 C 0.68825 0.49309 0.21056 0.0
C243 C 0.78661 0.58273 0.22426 0.0
C244 C 0.74035 0.5761 0.22553 0.0
C245 C 0.64583 0.52664 0.21458 0.0
C246 C 0.59773 0.48351 0.20365 0.0
C247 C 0.69126 0.53188 0.21759 0.0
C248 C 0.59427 0.44432 0.19863 0.0
C249 C 0.63912 0.449 0.20226 0.0
H250 H 0.33675 0.882 0.45277 0.0
H251 H 0.42468 0.83999 0.47868 0.0
H252 H 0.34414 0.75722 0.47344 0.0
H253 H 0.24869 0.69646 0.46134 0.0
H254 H 0.16042 0.73842 0.43635 0.0
H255 H 0.24105 0.8213 0.44148 0.0
C256 C 0.33843 0.85479 0.45718 0.0
C257 C 0.38692 0.86741 0.46601 0.0
C258 C 0.29178 0.80711 0.45438 0.0
C259 C 0.38803 0.83151 0.47188 0.0
C260 C 0.34192 0.78404 0.46888 0.0
C261 C 0.24703 0.72371 0.45707 0.0
C262 C 0.19848 0.71112 0.44844 0.0
C263 C 0.29357 0.77141 0.46015 0.0
C264 C 0.19715 0.747 0.44307 0.0
C265 C 0.24331 0.79447 0.44594 0.0
H266 H 0.47734 0.21683 0.86427 0.0
H267 H 0.47339 0.25996 0.77603 0.0
H268 H 0.48634 0.20865 0.75191 0.0
H269 H 0.49964 0.15241 0.75561 0.0
H270 H 0.50448 0.10856 0.84334 0.0
H271 H 0.49006 0.15903 0.86789 0.0
C272 C 0.47894 0.21465 0.83977 0.0
C273 C 0.47475 0.24245 0.822 0.0
C274 C 0.48664 0.18505 0.82595 0.0
C275 C 0.47731 0.23953 0.79027 0.0
C276 C 0.48448 0.21003 0.77643 0.0
C277 C 0.4975 0.15372 0.78012 0.0
C278 C 0.50317 0.12668 0.79757 0.0
C279 C 0.48946 0.18285 0.79402 0.0
C280 C 0.50032 0.12902 0.82932 0.0
C281 C 0.49203 0.15787 0.84338 0.0
H282 H 0.66048 0.83519 0.49905 0.0
H283 H 0.50052 0.7535 0.53051 0.0
H284 H 0.4959 0.68678 0.53784 0.0
H285 H 0.53948 0.65386 0.53885 0.0
H286 H 0.7005 0.73623 0.5089 0.0
H287 H 0.70209 0.80004 0.49683 0.0
C288 C 0.62431 0.80248 0.507 0.0
C289 C 0.58105 0.79942 0.51443 0.0
C290 C 0.62215 0.76442 0.5115 0.0
C291 C 0.53463 0.75698 0.52504 0.0
C292 C 0.5319 0.71877 0.52914 0.0
C293 C 0.57474 0.68549 0.52931 0.0
C294 C 0.61994 0.69031 0.525 0.0
C295 C 0.57578 0.72243 0.52301 0.0
C296 C 0.66523 0.73162 0.51261 0.0
C297 C 0.66624 0.76822 0.50577 0.0
H298 H 0.73381 0.57602 0.87253 0.0
H299 H 0.60652 0.42491 0.86454 0.0
H300 H 0.66976 0.41341 0.87022 0.0
H301 H 0.76082 0.4453 0.87802 0.0
H302 H 0.88928 0.5959 0.88705 0.0
H303 H 0.82632 0.60827 0.88051 0.0
C304 C 0.71993 0.54059 0.8719 0.0
C305 C 0.66507 0.50147 0.86808 0.0
C306 C 0.75685 0.53397 0.87551 0.0
C307 C 0.64816 0.45584 0.86752 0.0
C308 C 0.68444 0.44911 0.87077 0.0
C309 C 0.77529 0.48094 0.87857 0.0
C310 C 0.83004 0.51956 0.88306 0.0
C311 C 0.73881 0.48781 0.87491 0.0
C312 C 0.84754 0.56539 0.88371 0.0
C313 C 0.81144 0.57252 0.87992 0.0
H314 H 0.17918 0.72738 0.1403 0.0
H315 H 0.24396 0.6599 0.15055 0.0
H316 H 0.32909 0.73554 0.16835 0.0
H317 H 0.38165 0.81942 0.1858 0.0
H318 H 0.31488 0.88526 0.17429 0.0
H319 H 0.23394 0.81167 0.15231 0.0
C320 C 0.21228 0.72942 0.14596 0.0
C321 C 0.20542 0.6883 0.14439 0.0
C322 C 0.26043 0.77259 0.15639 0.0
C323 C 0.24856 0.69129 0.15144 0.0
C324 C 0.29696 0.73439 0.16192 0.0
C325 C 0.34946 0.81762 0.1783 0.0
C326 C 0.35407 0.85765 0.18209 0.0
C327 C 0.30283 0.77503 0.16532 0.0
C328 C 0.31237 0.85502 0.17182 0.0
C329 C 0.26596 0.81291 0.15923 0.0
H330 H 0.46898 0.24328 0.48275 0.0
H331 H 0.62282 0.28386 0.49419 0.0
H332 H 0.66029 0.36275 0.51236 0.0
H333 H 0.64884 0.4194 0.52707 0.0
H334 H 0.4944 0.37808 0.5173 0.0
H335 H 0.45773 0.30024 0.4969 0.0
C336 C 0.51065 0.26926 0.48936 0.0
C337 C 0.5429 0.25743 0.48704 0.0
C338 C 0.53186 0.31445 0.50032 0.0
C339 C 0.59709 0.29199 0.49525 0.0
C340 C 0.61854 0.3371 0.50592 0.0
C341 C 0.60718 0.39345 0.52039 0.0
C342 C 0.57445 0.40463 0.52382 0.0
C343 C 0.58622 0.3486 0.5088 0.0
C344 C 0.52055 0.37049 0.515 0.0
C345 C 0.49949 0.3259 0.50331 0.0
H346 H 0.35132 0.44626 0.87376 0.0
H347 H 0.47282 0.59175 0.85148 0.0
H348 H 0.40791 0.60204 0.85171 0.0
H349 H 0.31615 0.56995 0.85773 0.0
H350 H 0.19385 0.42409 0.87871 0.0
H351 H 0.25922 0.41404 0.87965 0.0
C352 C 0.36367 0.48024 0.86898 0.0
C353 C 0.41721 0.51807 0.86256 0.0
C354 C 0.3258 0.48601 0.86899 0.0
C355 C 0.43209 0.5618 0.85636 0.0
C356 C 0.39488 0.56784 0.85656 0.0
C357 C 0.30377 0.53599 0.86267 0.0
C358 C 0.24994 0.4979 0.86822 0.0
C359 C 0.34158 0.53023 0.8628 0.0
C360 C 0.23484 0.4541 0.87434 0.0
C361 C 0.27229 0.44828 0.87487 0.0
H362 H 0.85974 0.44075 0.16487 0.0
H363 H 0.91405 0.37918 0.11391 0.0
H364 H 0.83208 0.30026 0.12444 0.0
H365 H 0.74701 0.2488 0.15035 0.0
H366 H 0.69249 0.31055 0.20073 0.0
H367 H 0.77267 0.38933 0.18825 0.0
C368 C 0.85355 0.4101 0.15582 0.0
C369 C 0.8932 0.41597 0.13875 0.0
C370 C 0.80648 0.36482 0.1621 0.0
C371 C 0.88423 0.37578 0.12707 0.0
C372 C 0.83745 0.33058 0.13322 0.0
C373 C 0.75266 0.2795 0.15858 0.0
C374 C 0.71404 0.27381 0.17668 0.0
C375 C 0.79869 0.32471 0.15112 0.0
C376 C 0.72165 0.31391 0.18685 0.0
C377 C 0.76751 0.359 0.17972 0.0
H378 H 0.02948 0.5064 0.05435 0.0
H379 H 0.0504 0.63144 0.04472 0.0
H380 H 0.05298 0.62371 0.98947 0.0
H381 H 0.05319 0.58297 0.94386 0.0
H382 H 0.039 0.46157 0.95464 0.0
H383 H 0.02901 0.4657 0.00927 0.0
C384 C 0.0344 0.53184 0.04012 0.0
C385 C 0.03972 0.56939 0.0535 0.0
C386 C 0.0367 0.52758 0.00851 0.0
C387 C 0.0464 0.6023 0.03488 0.0
C388 C 0.04771 0.5978 0.0033 0.0
C389 C 0.04691 0.55702 0.9582 0.0
C390 C 0.04625 0.52173 0.94534 0.0
C391 C 0.04322 0.56072 0.98983 0.0
C392 C 0.03936 0.48889 0.96412 0.0
C393 C 0.0339 0.49135 0.99534 0.0
H394 H 0.53526 0.05384 0.40055 0.0
H395 H 0.54762 0.94943 0.37526 0.0
H396 H 0.54822 0.96367 0.32155 0.0
H397 H 0.55061 0.00944 0.28205 0.0
H398 H 0.54146 0.11602 0.30787 0.0
H399 H 0.53411 0.09741 0.36104 0.0
C400 C 0.53657 0.03339 0.38322 0.0
C401 C 0.54037 1.0001 0.39171 0.0
C402 C 0.5381 0.04259 0.35249 0.0
C403 C 0.54431 0.97507 0.36914 0.0
C404 C 0.54478 0.98328 0.33847 0.0
C405 C 0.54588 0.02786 0.29921 0.0
C406 C 0.54605 0.06372 0.29092 0.0
C407 C 0.54238 0.01742 0.32987 0.0
C408 C 0.54155 0.0883 0.31363 0.0
C409 C 0.53723 0.07764 0.34406 0.0
H410 H 0.60647 0.51487 0.77427 0.0
H411 H 0.46872 0.50248 0.76949 0.0
H412 H 0.48332 0.51972 0.71578 0.0
H413 H 0.53149 0.53318 0.6697 0.0
H414 H 0.66522 0.53931 0.67259 0.0
H415 H 0.65578 0.52918 0.72739 0.0
C416 C 0.58036 0.51676 0.76144 0.0
C417 C 0.53687 0.50787 0.77558 0.0
C418 C 0.58778 0.52479 0.73021 0.0
C419 C 0.50249 0.50938 0.75886 0.0
C420 C 0.5107 0.51904 0.7282 0.0
C421 C 0.55883 0.53257 0.68228 0.0
C422 C 0.59897 0.53696 0.66703 0.0
C423 C 0.55258 0.52591 0.71353 0.0
C424 C 0.63377 0.53573 0.68373 0.0
C425 C 0.62851 0.53011 0.71508 0.0
H426 H 0.43363 0.94601 0.56931 0.0
H427 H 0.5999 0.06672 0.5622 0.0
H428 H 0.61423 0.06536 0.6163 0.0
H429 H 0.57805 0.03288 0.66629 0.0
H430 H 0.41334 0.90825 0.67275 0.0
H431 H 0.39976 0.90757 0.61822 0.0
C432 C 0.47298 0.9717 0.57967 0.0
C433 C 0.51552 0.00684 0.56212 0.0
C434 C 0.48112 0.96997 0.6106 0.0
C435 C 0.56658 0.0395 0.57544 0.0
C436 C 0.57474 0.0388 0.60634 0.0
C437 C 0.53936 0.00531 0.65563 0.0
C438 C 0.49662 0.97096 0.67345 0.0
C439 C 0.53213 0.00468 0.62423 0.0
C440 C 0.44684 0.93501 0.65942 0.0
C441 C 0.43899 0.93477 0.6283 0.0
H442 H 0.60811 0.57061 0.97114 0.0
H443 H 0.46113 0.44386 0.93171 0.0
H444 H 0.42781 0.41486 0.98216 0.0
H445 H 0.4394 0.42639 0.03752 0.0
H446 H 0.58306 0.55599 0.07735 0.0
H447 H 0.61856 0.58327 0.02684 0.0
C448 C 0.56899 0.53652 0.97369 0.0
C449 C 0.53738 0.50905 0.94784 0.0
C450 C 0.54933 0.52081 0.00283 0.0
C451 C 0.48641 0.46533 0.95133 0.0
C452 C 0.46723 0.44883 0.98015 0.0
C453 C 0.47854 0.46054 0.03513 0.0
C454 C 0.50863 0.48904 0.06109 0.0
C455 C 0.4982 0.47638 0.00606 0.0
C456 C 0.55902 0.53347 0.05767 0.0
C457 C 0.57943 0.54902 0.02881 0.0
H458 H 0.01961 0.46202 0.22518 0.0
H459 H 0.09374 0.60833 0.22193 0.0
H460 H 0.08996 0.61378 0.27723 0.0
H461 H 0.06552 0.57669 0.32645 0.0
H462 H 0.98944 0.42959 0.32909 0.0
H463 H 0.99428 0.42481 0.2741 0.0
C464 C 0.03496 0.49508 0.23663 0.0
C465 C 0.0569 0.5347 0.21967 0.0
C466 C 0.03243 0.49783 0.26829 0.0
C467 C 0.07643 0.57729 0.23462 0.0
C468 C 0.07442 0.58045 0.2662 0.0
C469 C 0.05019 0.54364 0.31502 0.0
C470 C 0.02727 0.50362 0.33194 0.0
C471 C 0.05254 0.54092 0.28328 0.0
C472 C 1.0072 0.46096 0.31668 0.0
C473 C 1.00995 0.45814 0.28521 0.0
loop_
_geom_bond_atom_site_label_1
_geom_bond_atom_site_label_2
_geom_bond_distance
_geom_bond_site_symmetry_2
_ccdc_geom_bond_type
Ho0 C3 2.811 . S
Ho0 O20 2.322 . S
Ho0 O22 2.378 . S
Ho0 O23 2.524 . S
Ho0 O24 2.381 . S
Ho0 O25 2.669 . S
Ho0 O27 2.346 1_455 S
Ho0 O31 2.305 . S
Ho1 C12 2.811 . S
Ho1 O21 2.346 1_655 S
Ho1 O25 2.305 1_655 S
Ho1 O26 2.322 . S
Ho1 O28 2.378 . S
Ho1 O29 2.524 . S
Ho1 O30 2.379 1_655 S
Ho1 O31 2.669 1_655 S
C2 O20 1.259 . S
C2 O21 1.268 . S
C3 Ho0 2.811 . S
C3 C4 1.488 . S
C3 O22 1.215 . S
C3 O23 1.289 . S
C4 C3 1.488 . S
C4 C5 1.348 . S
C4 C9 1.413 . S
C5 C4 1.348 . S
C5 C6 1.442 . S
C5 H32 0.930 . S
C6 C5 1.442 . S
C6 C7 1.381 . S
C6 H33 0.931 . S
C7 C6 1.381 . S
C7 C8 1.321 . S
C8 C7 1.321 . S
C8 C9 1.403 . S
C8 H34 0.934 . S
C9 C4 1.413 . S
C9 C8 1.403 . S
C9 H35 0.930 . S
C10 O24 1.275 . S
C10 O25 1.256 . S
C11 O26 1.259 . S
C11 O27 1.268 . S
C12 Ho1 2.811 . S
C12 C13 1.488 . S
C12 O28 1.215 . S
C12 O29 1.289 . S
C13 C12 1.488 . S
C13 C14 1.348 . S
C13 C18 1.413 . S
C14 C13 1.348 . S
C14 C15 1.442 . S
C14 H36 0.930 . S
C15 C14 1.442 . S
C15 C16 1.381 . S
C15 H37 0.931 . S
C16 C15 1.381 . S
C16 C17 1.321 . S
C17 C16 1.321 . S
C17 C18 1.403 . S
C17 H38 0.934 . S
C18 C13 1.413 . S
C18 C17 1.403 . S
C18 H39 0.930 . S
C19 O30 1.282 . S
C19 O31 1.256 . S
O20 Ho0 2.322 . S
O20 C2 1.259 . S
O21 Ho1 2.346 1_455 S
O21 C2 1.268 . S
O22 Ho0 2.378 . S
O22 C3 1.215 . S
O23 Ho0 2.524 . S
O23 C3 1.289 . S
O24 Ho0 2.381 . S
O24 C10 1.275 . S
O25 Ho0 2.669 . S
O25 Ho1 2.305 1_455 S
O25 C10 1.256 . S
O26 Ho1 2.322 . S
O26 C11 1.259 . S
O27 Ho0 2.346 1_655 S
O27 C11 1.268 . S
O28 Ho1 2.378 . S
O28 C12 1.215 . S
O29 Ho1 2.524 . S
O29 C12 1.289 . S
O30 Ho1 2.379 1_455 S
O30 C19 1.282 . S
O31 Ho0 2.305 . S
O31 Ho1 2.669 1_455 S
O31 C19 1.256 . S
H32 C5 0.930 . S
H33 C6 0.931 . S
H34 C8 0.934 . S
H35 C9 0.930 . S
H36 C14 0.930 . S
H37 C15 0.931 . S
H38 C17 0.934 . S
H39 C18 0.930 . S
Ho40 C43 2.811 . S
Ho40 O60 2.322 . S
Ho40 O62 2.378 . S
Ho40 O63 2.524 . S
Ho40 O64 2.381 . S
Ho40 O65 2.669 1_565 S
Ho40 O67 2.346 1_565 S
Ho40 O71 2.305 1_565 S
Ho41 C52 2.811 . S
Ho41 O61 2.346 1_545 S
Ho41 O65 2.305 . S
Ho41 O66 2.322 . S
Ho41 O68 2.378 . S
Ho41 O69 2.524 . S
Ho41 O70 2.381 . S
Ho41 O71 2.669 . S
C42 O60 1.259 . S
C42 O61 1.268 . S
C43 Ho40 2.811 . S
C43 C44 1.488 . S
C43 O62 1.215 . S
C43 O63 1.289 . S
C44 C43 1.488 . S
C44 C45 1.348 . S
C44 C49 1.413 . S
C45 C44 1.348 . S
C45 C46 1.442 . S
C45 H72 0.930 . S
C46 C45 1.442 . S
C46 C47 1.381 . S
C46 H73 0.931 . S
C47 C46 1.381 . S
C47 C48 1.321 . S
C48 C47 1.321 . S
C48 C49 1.403 . S
C48 H74 0.934 . S
C49 C44 1.413 . S
C49 C48 1.403 . S
C49 H75 0.930 . S
C50 O64 1.275 1_545 S
C50 O65 1.256 . S
C51 O66 1.259 . S
C51 O67 1.268 . S
C52 Ho41 2.811 . S
C52 C53 1.488 . S
C52 O68 1.215 . S
C52 O69 1.289 . S
C53 C52 1.488 . S
C53 C54 1.348 . S
C53 C58 1.413 . S
C54 C53 1.348 . S
C54 C55 1.442 . S
C54 H76 0.930 . S
C55 C54 1.442 . S
C55 C56 1.381 . S
C55 H77 0.931 . S
C56 C55 1.381 . S
C56 C57 1.321 . S
C57 C56 1.321 . S
C57 C58 1.403 . S
C57 H78 0.934 . S
C58 C53 1.413 . S
C58 C57 1.403 . S
C58 H79 0.930 . S
C59 O70 1.275 . S
C59 O71 1.256 . S
O60 Ho40 2.322 . S
O60 C42 1.259 . S
O61 Ho41 2.346 1_565 S
O61 C42 1.268 . S
O62 Ho40 2.378 . S
O62 C43 1.215 . S
O63 Ho40 2.524 . S
O63 C43 1.289 . S
O64 Ho40 2.381 . S
O64 C50 1.275 1_565 S
O65 Ho40 2.669 1_545 S
O65 Ho41 2.305 . S
O65 C50 1.256 . S
O66 Ho41 2.322 . S
O66 C51 1.259 . S
O67 Ho40 2.346 1_545 S
O67 C51 1.268 . S
O68 Ho41 2.378 . S
O68 C52 1.215 . S
O69 Ho41 2.524 . S
O69 C52 1.289 . S
O70 Ho41 2.381 . S
O70 C59 1.275 . S
O71 Ho40 2.305 1_545 S
O71 Ho41 2.669 . S
O71 C59 1.256 . S
H72 C45 0.930 . S
H73 C46 0.931 . S
H74 C48 0.934 . S
H75 C49 0.930 . S
H76 C54 0.930 . S
H77 C55 0.931 . S
H78 C57 0.934 . S
H79 C58 0.930 . S
Ho80 C83 2.811 . S
Ho80 O100 2.322 . S
Ho80 O102 2.378 . S
Ho80 O103 2.524 . S
Ho80 O104 2.381 . S
Ho80 O105 2.669 . S
Ho80 O107 2.346 . S
Ho80 O111 2.305 . S
Ho81 C92 2.811 . S
Ho81 O101 2.346 . S
Ho81 O105 2.305 . S
Ho81 O106 2.322 . S
Ho81 O108 2.378 . S
Ho81 O109 2.524 . S
Ho81 O110 2.381 . S
Ho81 O111 2.669 . S
C82 O100 1.259 . S
C82 O101 1.268 . S
C83 Ho80 2.811 . S
C83 C84 1.488 . S
C83 O102 1.215 . S
C83 O103 1.289 . S
C84 C83 1.488 . S
C84 C85 1.348 . S
C84 C89 1.413 . S
C85 C84 1.348 . S
C85 C86 1.442 . S
C85 H112 0.930 . S
C86 C85 1.442 . S
C86 C87 1.381 . S
C86 H113 0.931 . S
C87 C86 1.381 . S
C87 C88 1.321 . S
C88 C87 1.321 . S
C88 C89 1.403 . S
C88 H114 0.934 . S
C89 C84 1.413 . S
C89 C88 1.403 . S
C89 H115 0.930 . S
C90 O104 1.275 . S
C90 O105 1.256 . S
C91 O106 1.259 . S
C91 O107 1.268 . S
C92 Ho81 2.811 . S
C92 C93 1.488 . S
C92 O108 1.215 . S
C92 O109 1.289 . S
C93 C92 1.488 . S
C93 C94 1.348 . S
C93 C98 1.413 . S
C94 C93 1.348 . S
C94 C95 1.442 . S
C94 H116 0.930 . S
C95 C94 1.442 . S
C95 C96 1.381 . S
C95 H117 0.931 . S
C96 C95 1.381 . S
C96 C97 1.321 . S
C97 C96 1.321 . S
C97 C98 1.403 . S
C97 H118 0.934 . S
C98 C93 1.413 . S
C98 C97 1.403 . S
C98 H119 0.930 . S
C99 O110 1.275 . S
C99 O111 1.256 . S
O100 Ho80 2.322 . S
O100 C82 1.259 . S
O101 Ho81 2.346 . S
O101 C82 1.268 . S
O102 Ho80 2.378 . S
O102 C83 1.215 . S
O103 Ho80 2.524 . S
O103 C83 1.289 . S
O104 Ho80 2.381 . S
O104 C90 1.275 . S
O105 Ho80 2.669 . S
O105 Ho81 2.305 . S
O105 C90 1.256 . S
O106 Ho81 2.322 . S
O106 C91 1.259 . S
O107 Ho80 2.346 . S
O107 C91 1.268 . S
O108 Ho81 2.378 . S
O108 C92 1.215 . S
O109 Ho81 2.524 . S
O109 C92 1.289 . S
O110 Ho81 2.381 . S
O110 C99 1.275 . S
O111 Ho80 2.305 . S
O111 Ho81 2.669 . S
O111 C99 1.256 . S
H112 C85 0.930 . S
H113 C86 0.931 . S
H114 C88 0.934 . S
H115 C89 0.930 . S
H116 C94 0.930 . S
H117 C95 0.931 . S
H118 C97 0.934 . S
H119 C98 0.930 . S
O120 Cd121 2.300 . S
O120 C127 1.275 . S
Cd121 O120 2.300 . S
Cd121 O129 2.381 . S
Cd121 O130 2.378 . S
O122 Cd123 2.385 . S
O122 C127 1.255 1_565 S
Cd123 O122 2.385 . S
Cd123 O124 2.317 . S
O124 Cd123 2.317 . S
O124 C125 1.232 . S
C125 O124 1.232 . S
C125 O126 1.218 . S
O126 C125 1.218 . S
C127 O120 1.275 . S
C127 O122 1.255 1_545 S
C128 O129 1.258 . S
C128 O130 1.256 . S
O129 Cd121 2.381 . S
O129 C128 1.258 . S
O130 Cd121 2.378 . S
O130 C128 1.256 . S
O131 Cd132 2.300 . S
O131 C138 1.275 . S
Cd132 O131 2.300 . S
Cd132 O140 2.381 . S
Cd132 O141 2.378 . S
O133 Cd134 2.385 . S
O133 C138 1.255 . S
Cd134 O133 2.385 . S
Cd134 O135 2.317 . S
O135 Cd134 2.317 . S
O135 C136 1.232 . S
C136 O135 1.232 . S
C136 O137 1.218 . S
O137 C136 1.218 . S
C138 O131 1.275 . S
C138 O133 1.255 . S
C139 O140 1.258 . S
C139 O141 1.256 . S
O140 Cd132 2.381 . S
O140 C139 1.258 . S
O141 Cd132 2.378 . S
O141 C139 1.256 . S
O142 Cd143 2.300 . S
O142 C149 1.275 . S
Cd143 O142 2.300 . S
Cd143 O151 2.381 . S
Cd143 O152 2.378 . S
O144 Cd145 2.385 . S
O144 C149 1.255 1_655 S
Cd145 O144 2.385 . S
Cd145 O146 2.317 . S
O146 Cd145 2.317 . S
O146 C147 1.232 . S
C147 O146 1.232 . S
C147 O148 1.218 . S
O148 C147 1.218 . S
C149 O142 1.275 . S
C149 O144 1.255 1_455 S
C150 O151 1.258 . S
C150 O152 1.256 . S
O151 Cd143 2.381 . S
O151 C150 1.258 . S
O152 Cd143 2.378 . S
O152 C150 1.256 . S
O153 Cd154 2.300 . S
O153 C160 1.275 1_455 S
Cd154 O153 2.300 . S
Cd154 O162 2.381 . S
Cd154 O163 2.378 . S
O155 Cd156 2.385 . S
O155 C160 1.255 . S
Cd156 O155 2.385 . S
Cd156 O157 2.317 . S
O157 Cd156 2.317 . S
O157 C158 1.232 . S
C158 O157 1.232 . S
C158 O159 1.218 . S
O159 C158 1.218 . S
C160 O153 1.275 1_655 S
C160 O155 1.255 . S
C161 O162 1.258 . S
C161 O163 1.256 . S
O162 Cd154 2.381 . S
O162 C161 1.258 . S
O163 Cd154 2.378 . S
O163 C161 1.256 . S
O164 Cd165 2.300 . S
O164 C171 1.275 1_565 S
Cd165 O164 2.300 . S
Cd165 O173 2.381 . S
Cd165 O174 2.378 . S
O166 Cd167 2.385 . S
O166 C171 1.255 . S
Cd167 O166 2.385 . S
Cd167 O168 2.317 . S
O168 Cd167 2.317 . S
O168 C169 1.232 . S
C169 O168 1.232 . S
C169 O170 1.218 . S
O170 C169 1.218 . S
C171 O164 1.275 1_545 S
C171 O166 1.255 . S
C172 O173 1.258 . S
C172 O174 1.256 . S
O173 Cd165 2.381 . S
O173 C172 1.258 . S
O174 Cd165 2.378 . S
O174 C172 1.256 . S
O175 Cd176 2.300 . S
O175 C182 1.275 . S
Cd176 O175 2.300 . S
Cd176 O184 2.381 . S
Cd176 O185 2.378 . S
O177 Cd178 2.385 . S
O177 C182 1.255 . S
Cd178 O177 2.385 . S
Cd178 O179 2.317 . S
O179 Cd178 2.317 . S
O179 C180 1.232 . S
C180 O179 1.232 . S
C180 O181 1.218 . S
O181 C180 1.218 . S
C182 O175 1.275 . S
C182 O177 1.255 . S
C183 O184 1.258 . S
C183 O185 1.256 . S
O184 Cd176 2.381 . S
O184 C183 1.258 . S
O185 Cd176 2.378 . S
O185 C183 1.256 . S
H186 C192 0.930 . S
H187 C195 0.930 . S
H188 C196 0.930 . S
H189 C197 0.930 . S
H190 C200 0.930 . S
H191 C201 0.930 . S
C192 H186 0.930 . S
C192 C193 1.355 . S
C192 C194 1.415 . S
C193 C192 1.355 . S
C193 C195 1.419 . S
C194 C192 1.415 . S
C194 C199 1.425 . S
C194 C201 1.409 . S
C195 H187 0.930 . S
C195 C193 1.419 . S
C195 C196 1.362 . S
C196 H188 0.930 . S
C196 C195 1.362 . S
C196 C199 1.409 . S
C197 H189 0.930 . S
C197 C198 1.355 . S
C197 C199 1.415 . S
C198 C197 1.355 . S
C198 C200 1.419 . S
C199 C194 1.425 . S
C199 C196 1.409 . S
C199 C197 1.415 . S
C200 H190 0.930 . S
C200 C198 1.419 . S
C200 C201 1.362 . S
C201 H191 0.930 . S
C201 C194 1.409 . S
C201 C200 1.362 . S
H202 C208 0.930 . S
H203 C211 0.930 . S
H204 C212 0.930 . S
H205 C213 0.930 . S
H206 C216 0.930 . S
H207 C217 0.930 . S
C208 H202 0.930 . S
C208 C209 1.355 . S
C208 C210 1.415 . S
C209 C208 1.355 . S
C209 C211 1.419 . S
C210 C208 1.415 . S
C210 C215 1.425 . S
C210 C217 1.409 . S
C211 H203 0.930 . S
C211 C209 1.419 . S
C211 C212 1.362 . S
C212 H204 0.930 . S
C212 C211 1.362 . S
C212 C215 1.409 . S
C213 H205 0.930 . S
C213 C214 1.355 . S
C213 C215 1.415 . S
C214 C213 1.355 . S
C214 C216 1.419 . S
C215 C210 1.425 . S
C215 C212 1.409 . S
C215 C213 1.415 . S
C216 H206 0.930 . S
C216 C214 1.419 . S
C216 C217 1.362 . S
C217 H207 0.930 . S
C217 C210 1.409 . S
C217 C216 1.362 . S
H218 C224 0.930 . S
H219 C227 0.930 . S
H220 C228 0.930 . S
H221 C229 0.930 . S
H222 C232 0.930 . S
H223 C233 0.930 . S
C224 H218 0.930 . S
C224 C225 1.355 . S
C224 C226 1.415 . S
C225 C224 1.355 . S
C225 C227 1.419 . S
C226 C224 1.415 . S
C226 C231 1.425 . S
C226 C233 1.409 . S
C227 H219 0.930 . S
C227 C225 1.419 . S
C227 C228 1.362 . S
C228 H220 0.930 . S
C228 C227 1.362 . S
C228 C231 1.409 . S
C229 H221 0.930 . S
C229 C230 1.355 . S
C229 C231 1.415 . S
C230 C229 1.355 . S
C230 C232 1.419 . S
C231 C226 1.425 . S
C231 C228 1.409 . S
C231 C229 1.415 . S
C232 H222 0.930 . S
C232 C230 1.419 . S
C232 C233 1.362 . S
C233 H223 0.930 . S
C233 C226 1.409 . S
C233 C232 1.362 . S
H234 C240 0.930 . S
H235 C243 0.930 . S
H236 C244 0.930 . S
H237 C245 0.930 . S
H238 C248 0.930 . S
H239 C249 0.930 . S
C240 H234 0.930 . S
C240 C241 1.355 . S
C240 C242 1.415 . S
C241 C240 1.355 . S
C241 C243 1.419 . S
C242 C240 1.415 . S
C242 C247 1.425 . S
C242 C249 1.409 . S
C243 H235 0.930 . S
C243 C241 1.419 . S
C243 C244 1.362 . S
C244 H236 0.930 . S
C244 C243 1.362 . S
C244 C247 1.409 . S
C245 H237 0.930 . S
C245 C246 1.355 . S
C245 C247 1.415 . S
C246 C245 1.355 . S
C246 C248 1.419 . S
C247 C242 1.425 . S
C247 C244 1.409 . S
C247 C245 1.415 . S
C248 H238 0.930 . S
C248 C246 1.419 . S
C248 C249 1.362 . S
C249 H239 0.930 . S
C249 C242 1.409 . S
C249 C248 1.362 . S
H250 C256 0.930 . S
H251 C259 0.930 . S
H252 C260 0.930 . S
H253 C261 0.930 . S
H254 C264 0.930 . S
H255 C265 0.930 . S
C256 H250 0.930 . S
C256 C257 1.355 . S
C256 C258 1.415 . S
C257 C256 1.355 . S
C257 C259 1.419 . S
C258 C256 1.415 . S
C258 C263 1.425 . S
C258 C265 1.409 . S
C259 H251 0.930 . S
C259 C257 1.419 . S
C259 C260 1.362 . S
C260 H252 0.930 . S
C260 C259 1.362 . S
C260 C263 1.409 . S
C261 H253 0.930 . S
C261 C262 1.355 . S
C261 C263 1.415 . S
C262 C261 1.355 . S
C262 C264 1.419 . S
C263 C258 1.425 . S
C263 C260 1.409 . S
C263 C261 1.415 . S
C264 H254 0.930 . S
C264 C262 1.419 . S
C264 C265 1.362 . S
C265 H255 0.930 . S
C265 C258 1.409 . S
C265 C264 1.362 . S
H266 C272 0.930 . S
H267 C275 0.930 . S
H268 C276 0.930 . S
H269 C277 0.930 . S
H270 C280 0.930 . S
H271 C281 0.930 . S
C272 H266 0.930 . S
C272 C273 1.355 . S
C272 C274 1.415 . S
C273 C272 1.355 . S
C273 C275 1.419 . S
C274 C272 1.415 . S
C274 C279 1.425 . S
C274 C281 1.409 . S
C275 H267 0.930 . S
C275 C273 1.419 . S
C275 C276 1.362 . S
C276 H268 0.930 . S
C276 C275 1.362 . S
C276 C279 1.409 . S
C277 H269 0.930 . S
C277 C278 1.355 . S
C277 C279 1.415 . S
C278 C277 1.355 . S
C278 C280 1.419 . S
C279 C274 1.425 . S
C279 C276 1.409 . S
C279 C277 1.415 . S
C280 H270 0.930 . S
C280 C278 1.419 . S
C280 C281 1.362 . S
C281 H271 0.930 . S
C281 C274 1.409 . S
C281 C280 1.362 . S
H282 C288 0.930 . S
H283 C291 0.930 . S
H284 C292 0.930 . S
H285 C293 0.930 . S
H286 C296 0.930 . S
H287 C297 0.930 . S
C288 H282 0.930 . S
C288 C289 1.355 . S
C288 C290 1.415 . S
C289 C288 1.355 . S
C289 C291 1.419 . S
C290 C288 1.415 . S
C290 C295 1.425 . S
C290 C297 1.409 . S
C291 H283 0.930 . S
C291 C289 1.419 . S
C291 C292 1.362 . S
C292 H284 0.930 . S
C292 C291 1.362 . S
C292 C295 1.409 . S
C293 H285 0.930 . S
C293 C294 1.355 . S
C293 C295 1.415 . S
C294 C293 1.355 . S
C294 C296 1.419 . S
C295 C290 1.425 . S
C295 C292 1.409 . S
C295 C293 1.415 . S
C296 H286 0.930 . S
C296 C294 1.419 . S
C296 C297 1.362 . S
C297 H287 0.930 . S
C297 C290 1.409 . S
C297 C296 1.362 . S
H298 C304 0.930 . S
H299 C307 0.930 . S
H300 C308 0.930 . S
H301 C309 0.930 . S
H302 C312 0.930 . S
H303 C313 0.930 . S
C304 H298 0.930 . S
C304 C305 1.355 . S
C304 C306 1.415 . S
C305 C304 1.355 . S
C305 C307 1.419 . S
C306 C304 1.415 . S
C306 C311 1.425 . S
C306 C313 1.409 . S
C307 H299 0.930 . S
C307 C305 1.419 . S
C307 C308 1.362 . S
C308 H300 0.930 . S
C308 C307 1.362 . S
C308 C311 1.409 . S
C309 H301 0.930 . S
C309 C310 1.355 . S
C309 C311 1.415 . S
C310 C309 1.355 . S
C310 C312 1.419 . S
C311 C306 1.425 . S
C311 C308 1.409 . S
C311 C309 1.415 . S
C312 H302 0.930 . S
C312 C310 1.419 . S
C312 C313 1.362 . S
C313 H303 0.930 . S
C313 C306 1.409 . S
C313 C312 1.362 . S
H314 C320 0.930 . S
H315 C323 0.930 . S
H316 C324 0.930 . S
H317 C325 0.930 . S
H318 C328 0.930 . S
H319 C329 0.930 . S
C320 H314 0.930 . S
C320 C321 1.355 . S
C320 C322 1.415 . S
C321 C320 1.355 . S
C321 C323 1.419 . S
C322 C320 1.415 . S
C322 C327 1.425 . S
C322 C329 1.409 . S
C323 H315 0.930 . S
C323 C321 1.419 . S
C323 C324 1.362 . S
C324 H316 0.930 . S
C324 C323 1.362 . S
C324 C327 1.409 . S
C325 H317 0.930 . S
C325 C326 1.355 . S
C325 C327 1.415 . S
C326 C325 1.355 . S
C326 C328 1.419 . S
C327 C322 1.425 . S
C327 C324 1.409 . S
C327 C325 1.415 . S
C328 H318 0.930 . S
C328 C326 1.419 . S
C328 C329 1.362 . S
C329 H319 0.930 . S
C329 C322 1.409 . S
C329 C328 1.362 . S
H330 C336 0.930 . S
H331 C339 0.930 . S
H332 C340 0.930 . S
H333 C341 0.930 . S
H334 C344 0.930 . S
H335 C345 0.930 . S
C336 H330 0.930 . S
C336 C337 1.355 . S
C336 C338 1.415 . S
C337 C336 1.355 . S
C337 C339 1.419 . S
C338 C336 1.415 . S
C338 C343 1.425 . S
C338 C345 1.409 . S
C339 H331 0.930 . S
C339 C337 1.419 . S
C339 C340 1.362 . S
C340 H332 0.930 . S
C340 C339 1.362 . S
C340 C343 1.409 . S
C341 H333 0.930 . S
C341 C342 1.355 . S
C341 C343 1.415 . S
C342 C341 1.355 . S
C342 C344 1.419 . S
C343 C338 1.425 . S
C343 C340 1.409 . S
C343 C341 1.415 . S
C344 H334 0.930 . S
C344 C342 1.419 . S
C344 C345 1.362 . S
C345 H335 0.930 . S
C345 C338 1.409 . S
C345 C344 1.362 . S
H346 C352 0.930 . S
H347 C355 0.930 . S
H348 C356 0.930 . S
H349 C357 0.930 . S
H350 C360 0.930 . S
H351 C361 0.930 . S
C352 H346 0.930 . S
C352 C353 1.355 . S
C352 C354 1.415 . S
C353 C352 1.355 . S
C353 C355 1.419 . S
C354 C352 1.415 . S
C354 C359 1.425 . S
C354 C361 1.409 . S
C355 H347 0.930 . S
C355 C353 1.419 . S
C355 C356 1.362 . S
C356 H348 0.930 . S
C356 C355 1.362 . S
C356 C359 1.409 . S
C357 H349 0.930 . S
C357 C358 1.355 . S
C357 C359 1.415 . S
C358 C357 1.355 . S
C358 C360 1.419 . S
C359 C354 1.425 . S
C359 C356 1.409 . S
C359 C357 1.415 . S
C360 H350 0.930 . S
C360 C358 1.419 . S
C360 C361 1.362 . S
C361 H351 0.930 . S
C361 C354 1.409 . S
C361 C360 1.362 . S
H362 C368 0.930 . S
H363 C371 0.930 . S
H364 C372 0.930 . S
H365 C373 0.930 . S
H366 C376 0.930 . S
H367 C377 0.930 . S
C368 H362 0.930 . S
C368 C369 1.355 . S
C368 C370 1.415 . S
C369 C368 1.355 . S
C369 C371 1.419 . S
C370 C368 1.415 . S
C370 C375 1.425 . S
C370 C377 1.409 . S
C371 H363 0.930 . S
C371 C369 1.419 . S
C371 C372 1.362 . S
C372 H364 0.930 . S
C372 C371 1.362 . S
C372 C375 1.409 . S
C373 H365 0.930 . S
C373 C374 1.355 . S
C373 C375 1.415 . S
C374 C373 1.355 . S
C374 C376 1.419 . S
C375 C370 1.425 . S
C375 C372 1.409 . S
C375 C373 1.415 . S
C376 H366 0.930 . S
C376 C374 1.419 . S
C376 C377 1.362 . S
C377 H367 0.930 . S
C377 C370 1.409 . S
C377 C376 1.362 . S
H378 C384 0.930 . S
H379 C387 0.930 . S
H380 C388 0.930 . S
H381 C389 0.930 1_655 S
H382 C392 0.930 . S
H383 C393 0.930 . S
C384 H378 0.930 . S
C384 C385 1.355 . S
C384 C386 1.415 . S
C385 C384 1.355 . S
C385 C387 1.419 1_455 S
C386 C384 1.415 . S
C386 C391 1.425 . S
C386 C393 1.409 . S
C387 H379 0.930 . S
C387 C385 1.419 1_655 S
C387 C388 1.362 . S
C388 H380 0.930 . S
C388 C387 1.362 . S
C388 C391 1.409 1_655 S
C389 H381 0.930 1_455 S
C389 C390 1.355 . S
C389 C391 1.415 1_556 S
C390 C389 1.355 . S
C390 C392 1.419 . S
C391 C386 1.425 . S
C391 C388 1.409 1_455 S
C391 C389 1.415 1_554 S
C392 H382 0.930 . S
C392 C390 1.419 . S
C392 C393 1.362 1_556 S
C393 H383 0.930 . S
C393 C386 1.409 . S
C393 C392 1.362 1_554 S
H394 C400 0.930 . S
H395 C403 0.919 1_565 S
H396 C404 0.930 1_565 S
H397 C405 0.930 . S
H398 C408 0.930 . S
H399 C409 0.930 . S
C400 H394 0.930 . S
C400 C401 1.355 . S
C400 C402 1.415 . S
C401 C400 1.355 . S
C401 C403 1.419 . S
C402 C400 1.415 . S
C402 C407 1.425 . S
C402 C409 1.409 . S
C403 H395 0.919 1_545 S
C403 C401 1.419 . S
C403 C404 1.362 . S
C404 H396 0.930 1_545 S
C404 C403 1.362 . S
C404 C407 1.409 . S
C405 H397 0.930 . S
C405 C406 1.355 . S
C405 C407 1.415 . S
C406 C405 1.355 . S
C406 C408 1.419 . S
C407 C402 1.425 . S
C407 C404 1.409 . S
C407 C405 1.415 . S
C408 H398 0.930 . S
C408 C406 1.419 . S
C408 C409 1.362 . S
C409 H399 0.930 . S
C409 C402 1.409 . S
C409 C408 1.362 . S
H410 C416 0.930 . S
H411 C419 0.930 . S
H412 C420 0.930 . S
H413 C421 0.930 . S
H414 C424 0.930 . S
H415 C425 0.930 . S
C416 H410 0.930 . S
C416 C417 1.355 . S
C416 C418 1.415 . S
C417 C416 1.355 . S
C417 C419 1.419 . S
C418 C416 1.415 . S
C418 C423 1.425 . S
C418 C425 1.409 . S
C419 H411 0.930 . S
C419 C417 1.419 . S
C419 C420 1.362 . S
C420 H412 0.930 . S
C420 C419 1.362 . S
C420 C423 1.409 . S
C421 H413 0.930 . S
C421 C422 1.355 . S
C421 C423 1.415 . S
C422 C421 1.355 . S
C422 C424 1.419 . S
C423 C418 1.425 . S
C423 C420 1.409 . S
C423 C421 1.415 . S
C424 H414 0.930 . S
C424 C422 1.419 . S
C424 C425 1.362 . S
C425 H415 0.930 . S
C425 C418 1.409 . S
C425 C424 1.362 . S
H426 C432 0.930 . S
H427 C435 0.930 . S
H428 C436 0.930 . S
H429 C437 0.930 . S
H430 C440 0.930 . S
H431 C441 0.930 . S
C432 H426 0.930 . S
C432 C433 1.355 1_565 S
C432 C434 1.415 . S
C433 C432 1.355 1_545 S
C433 C435 1.419 . S
C434 C432 1.415 . S
C434 C439 1.425 1_565 S
C434 C441 1.409 . S
C435 H427 0.930 . S
C435 C433 1.419 . S
C435 C436 1.362 . S
C436 H428 0.930 . S
C436 C435 1.362 . S
C436 C439 1.409 . S
C437 H429 0.930 . S
C437 C438 1.355 . S
C437 C439 1.415 . S
C438 C437 1.355 . S
C438 C440 1.419 1_545 S
C439 C434 1.425 1_545 S
C439 C436 1.409 . S
C439 C437 1.415 . S
C440 H430 0.930 . S
C440 C438 1.419 1_565 S
C440 C441 1.362 . S
C441 H431 0.930 . S
C441 C434 1.409 . S
C441 C440 1.362 . S
H442 C448 0.930 . S
H443 C451 0.930 . S
H444 C452 0.930 . S
H445 C453 0.930 . S
H446 C456 0.930 . S
H447 C457 0.930 . S
C448 H442 0.930 . S
C448 C449 1.355 . S
C448 C450 1.415 . S
C449 C448 1.355 . S
C449 C451 1.419 . S
C450 C448 1.415 . S
C450 C455 1.425 . S
C450 C457 1.409 . S
C451 H443 0.930 . S
C451 C449 1.419 . S
C451 C452 1.362 . S
C452 H444 0.930 . S
C452 C451 1.362 . S
C452 C455 1.409 . S
C453 H445 0.930 . S
C453 C454 1.355 . S
C453 C455 1.415 1_554 S
C454 C453 1.355 . S
C454 C456 1.419 . S
C455 C450 1.425 . S
C455 C452 1.409 . S
C455 C453 1.415 1_556 S
C456 H446 0.930 . S
C456 C454 1.419 . S
C456 C457 1.362 1_554 S
C457 H447 0.930 . S
C457 C450 1.409 . S
C457 C456 1.362 1_556 S
H458 C464 0.930 . S
H459 C467 0.930 . S
H460 C468 0.930 . S
H461 C469 0.930 . S
H462 C472 0.930 . S
H463 C473 0.930 . S
C464 H458 0.930 . S
C464 C465 1.355 . S
C464 C466 1.415 . S
C465 C464 1.355 . S
C465 C467 1.419 . S
C466 C464 1.415 . S
C466 C471 1.415 1_455 S
C466 C473 1.409 . S
C467 H459 0.930 . S
C467 C465 1.419 . S
C467 C468 1.362 1_455 S
C468 H460 0.930 . S
C468 C467 1.362 1_655 S
C468 C471 1.416 . S
C469 H461 0.930 . S
C469 C470 1.355 . S
C469 C471 1.417 . S
C470 C469 1.355 . S
C470 C472 1.419 1_655 S
C471 C466 1.415 1_655 S
C471 C468 1.416 . S
C471 C469 1.417 . S
C472 H462 0.930 . S
C472 C470 1.419 1_455 S
C472 C473 1.362 . S
C473 H463 0.930 . S
C473 C466 1.409 . S
C473 C472 1.362 . S
C193 C7 0.703 . S
C198 C180 0.616 . S
C209 C51 2.024 . S
C214 C158 1.706 . S
C225 C87 1.132 . S
C230 C172 1.128 . S
C241 C16 0.305 . S
C246 C183 0.315 . S
C262 C161 1.818 . S
C257 C42 1.910 . S
C278 C169 1.205 . S
C273 C96 1.373 . S
C289 C47 1.372 . S
C294 C136 1.212 . S
C305 C91 3.256 . S
C310 C147 2.895 . S
C321 C2 2.134 . S
C326 C125 1.823 . S
C342 C139 1.099 . S
C337 C56 1.138 . S
C358 C150 2.845 . S
C353 C82 2.934 . S
C369 C11 1.812 . S
C374 C128 1.801 . S
C390 C149 1.618 . S
C385 C19 1.635 . S
C401 C50 1.373 . S
C406 C127 1.401 . S
C417 C99 1.533 . S
C422 C138 1.438 . S
C438 C171 1.456 . S
C433 C59 1.465 . S
C454 C182 1.141 . S
C449 C90 1.193 . S
C465 C10 1.449 . S
C470 C160 1.406 . S
