# Generated by pormake.
# Topology dag, (6,3)-cn, num edge types: 1
# Building blocks:
#     Node 0, Type 0, BuildingBlock: IZENUY_clean_sbu_0, # of connection points: 6
#     Node 1, Type 0, BuildingBlock: IZENUY_clean_sbu_0, # of connection points: 6
#     Node 2, Type 0, BuildingBlock: IZENUY_clean_sbu_0, # of connection points: 6
#     Node 3, Type 0, BuildingBlock: IZENUY_clean_sbu_0, # of connection points: 6
#     Node 4, Type 1, BuildingBlock: WUSLED_clean_sbu_0, # of connection points: 3
#     Node 5, Type 1, BuildingBlock: WUSLED_clean_sbu_0, # of connection points: 3
#     Node 6, Type 1, BuildingBlock: WUSLED_clean_sbu_0, # of connection points: 3
#     Node 7, Type 1, BuildingBlock: WUSLED_clean_sbu_0, # of connection points: 3
#     Node 8, Type 1, BuildingBlock: WUSLED_clean_sbu_0, # of connection points: 3
#     Node 9, Type 1, BuildingBlock: WUSLED_clean_sbu_0, # of connection points: 3
#     Node 10, Type 1, BuildingBlock: WUSLED_clean_sbu_0, # of connection points: 3
#     Node 11, Type 1, BuildingBlock: WUSLED_clean_sbu_0, # of connection points: 3
#     Edge 12, Type (0, 1), BuildingBlock: EZIPEK_clean_linker_0, # of connection points: 2
#     Edge 13, Type (0, 1), BuildingBlock: EZIPEK_clean_linker_0, # of connection points: 2
#     Edge 14, Type (0, 1), BuildingBlock: EZIPEK_clean_linker_0, # of connection points: 2
#     Edge 15, Type (0, 1), BuildingBlock: EZIPEK_clean_linker_0, # of connection points: 2
#     Edge 16, Type (0, 1), BuildingBlock: EZIPEK_clean_linker_0, # of connection points: 2
#     Edge 17, Type (0, 1), BuildingBlock: EZIPEK_clean_linker_0, # of connection points: 2
#     Edge 18, Type (0, 1), BuildingBlock: EZIPEK_clean_linker_0, # of connection points: 2
#     Edge 19, Type (0, 1), BuildingBlock: EZIPEK_clean_linker_0, # of connection points: 2
#     Edge 20, Type (0, 1), BuildingBlock: EZIPEK_clean_linker_0, # of connection points: 2
#     Edge 21, Type (0, 1), BuildingBlock: EZIPEK_clean_linker_0, # of connection points: 2
#     Edge 22, Type (0, 1), BuildingBlock: EZIPEK_clean_linker_0, # of connection points: 2
#     Edge 23, Type (0, 1), BuildingBlock: EZIPEK_clean_linker_0, # of connection points: 2
#     Edge 24, Type (0, 1), BuildingBlock: EZIPEK_clean_linker_0, # of connection points: 2
#     Edge 25, Type (0, 1), BuildingBlock: EZIPEK_clean_linker_0, # of connection points: 2
#     Edge 26, Type (0, 1), BuildingBlock: EZIPEK_clean_linker_0, # of connection points: 2
#     Edge 27, Type (0, 1), BuildingBlock: EZIPEK_clean_linker_0, # of connection points: 2
#     Edge 28, Type (0, 1), BuildingBlock: EZIPEK_clean_linker_0, # of connection points: 2
#     Edge 29, Type (0, 1), BuildingBlock: EZIPEK_clean_linker_0, # of connection points: 2
#     Edge 30, Type (0, 1), BuildingBlock: EZIPEK_clean_linker_0, # of connection points: 2
#     Edge 31, Type (0, 1), BuildingBlock: EZIPEK_clean_linker_0, # of connection points: 2
#     Edge 32, Type (0, 1), BuildingBlock: EZIPEK_clean_linker_0, # of connection points: 2
#     Edge 33, Type (0, 1), BuildingBlock: EZIPEK_clean_linker_0, # of connection points: 2
#     Edge 34, Type (0, 1), BuildingBlock: EZIPEK_clean_linker_0, # of connection points: 2
#     Edge 35, Type (0, 1), BuildingBlock: EZIPEK_clean_linker_0, # of connection points: 2
# Relax obj value: 0.246
# Max RMSD: 0.192
# Mean RMSD: 0.159
data_MOF--net-dag--node1-IZENUY_clean_sbu_0--node2-WUSLED_clean_sbu_0--edge1-EZIPEK_clean_linker_0
_symmetry_space_group_name_H-M    P1
_symmetry_Int_Tables_number       1
_symmetry_cell_setting            triclinic
loop_
_symmetry_equiv_pos_as_xyz
'x, y, z'
_cell_length_a     39.577353
_cell_length_b     41.504697
_cell_length_c     35.130467
_cell_angle_alpha  95.280875
_cell_angle_beta   90.524864
_cell_angle_gamma 90.299819
loop_
_atom_site_label
_atom_site_type_symbol
_atom_site_fract_x
_atom_site_fract_y
_atom_site_fract_z
_atom_type_partial_charge
Fe0 Fe 0.19589 0.85644 0.1016 0.0
Fe1 Fe 0.13013 0.87706 0.06543 0.0
O2 O 0.15838 0.84625 0.07561 0.0
Fe3 Fe 0.14872 0.80521 0.06036 0.0
O4 O 0.16977 0.78872 0.1017 0.0
O5 O 0.18276 0.83204 0.13873 0.0
O6 O 0.17755 0.89098 0.13102 0.0
C7 C 0.14717 0.89855 0.13843 0.0
C8 C 0.21619 0.80579 0.04579 0.0
O9 O 0.1236 0.88925 0.11566 0.0
C10 C 0.12647 0.83995 0.99815 0.0
O11 O 0.21099 0.88238 0.06613 0.0
O12 O 0.16284 0.90795 0.06173 0.0
O13 O 0.18678 0.80079 0.03239 0.0
O14 O 0.22114 0.82338 0.07695 0.0
C15 C 0.08634 0.82624 0.08291 0.0
O16 O 0.13524 0.86685 0.01478 0.0
O17 O 0.12617 0.81473 0.01621 0.0
C18 C 0.19422 0.90594 0.0559 0.0
O19 O 0.09196 0.85193 0.06725 0.0
O20 O 0.10972 0.80637 0.08735 0.0
C21 C 0.17797 0.80199 0.13445 0.0
Fe22 Fe 0.69402 0.64912 0.48223 0.0
Fe23 Fe 0.64393 0.70038 0.51587 0.0
O24 O 0.65426 0.65903 0.50363 0.0
Fe25 Fe 0.62493 0.62812 0.51191 0.0
O26 O 0.65503 0.60712 0.53989 0.0
O27 O 0.69884 0.61012 0.50255 0.0
O28 O 0.71702 0.6681 0.52356 0.0
C29 C 0.71389 0.69757 0.53552 0.0
C30 C 0.65152 0.60752 0.43881 0.0
O31 O 0.68788 0.71328 0.52714 0.0
C32 C 0.58027 0.67401 0.4912 0.0
O33 O 0.69694 0.68619 0.45732 0.0
O34 O 0.64755 0.70861 0.46558 0.0
O35 O 0.63442 0.60292 0.46803 0.0
O36 O 0.6739 0.62931 0.43947 0.0
C37 C 0.6192 0.67291 0.57882 0.0
O38 O 0.59825 0.69626 0.50779 0.0
O39 O 0.59135 0.64568 0.48507 0.0
C40 C 0.67345 0.70304 0.44513 0.0
O41 O 0.63848 0.69406 0.56648 0.0
O42 O 0.61082 0.64831 0.5569 0.0
C43 C 0.6838 0.59763 0.52915 0.0
Fe44 Fe 0.86416 0.20324 0.02083 0.0
Fe45 Fe 0.8849 0.13183 0.02174 0.0
O46 O 0.85494 0.16131 0.01039 0.0
Fe47 Fe 0.81581 0.14842 0.98865 0.0
O48 O 0.82374 0.17015 0.9473 0.0
O49 O 0.84209 0.21577 0.97795 0.0
O50 O 0.90218 0.20062 0.99215 0.0
C51 C 0.9264 0.18183 0.99687 0.0
C52 C 0.7972 0.20281 0.0399 0.0
O53 O 0.92237 0.15678 0.01431 0.0
C54 C 0.82239 0.10334 0.04065 0.0
O55 O 0.8878 0.19781 0.06563 0.0
O56 O 0.88404 0.14563 0.07206 0.0
O57 O 0.79093 0.18219 0.01178 0.0
O58 O 0.82706 0.20978 0.05026 0.0
C59 C 0.8636 0.10508 0.95172 0.0
O60 O 0.85319 0.10094 0.03138 0.0
O61 O 0.80497 0.12568 0.02869 0.0
C62 C 0.89009 0.17412 0.08613 0.0
O63 O 0.8881 0.11601 0.97218 0.0
O64 O 0.83343 0.11228 0.96095 0.0
C65 C 0.8315 0.19963 0.94768 0.0
Fe66 Fe 0.38419 0.3716 0.56581 0.0
Fe67 Fe 0.31587 0.35628 0.60122 0.0
O68 O 0.35397 0.34267 0.5785 0.0
Fe69 Fe 0.3622 0.30055 0.56857 0.0
O70 O 0.40163 0.30326 0.59609 0.0
O71 O 0.42142 0.34643 0.57214 0.0
O72 O 0.38981 0.38761 0.61502 0.0
C73 C 0.3665 0.39896 0.63632 0.0
C74 C 0.38596 0.32866 0.50224 0.0
O75 O 0.33577 0.39181 0.62868 0.0
C76 C 0.29419 0.30195 0.55057 0.0
O77 O 0.35325 0.403 0.55701 0.0
O78 O 0.30397 0.37952 0.56204 0.0
O79 O 0.3842 0.30527 0.52314 0.0
O80 O 0.38069 0.35735 0.51579 0.0
C81 C 0.33156 0.30499 0.64204 0.0
O82 O 0.28926 0.32323 0.5782 0.0
O83 O 0.32364 0.29381 0.54037 0.0
C84 C 0.32176 0.40191 0.55086 0.0
O85 O 0.32424 0.3344 0.64221 0.0
O86 O 0.34164 0.28863 0.61209 0.0
C87 C 0.4259 0.32194 0.59037 0.0
C88 C 0.00626 0.1805 0.29429 0.0
C89 C 0.00942 0.15796 0.26208 0.0
C90 C 0.95868 0.17881 0.2335 0.0
C91 C 0.98597 0.15727 0.23191 0.0
C92 C 0.95432 0.20005 0.26661 0.0
C93 C 0.97804 0.20096 0.29673 0.0
U94 U 0.07966 0.14354 0.34388 0.0
O95 O 0.13227 0.15974 0.35425 0.0
O96 O 0.1006 0.14915 0.40275 0.0
C97 C 0.13035 0.15876 0.39146 0.0
C98 C 0.03342 0.18404 0.32383 0.0
C99 C 0.14956 0.18384 0.41577 0.0
C100 C 0.1548 0.22685 0.46792 0.0
C101 C 0.13454 0.20563 0.44365 0.0
C102 C 0.205 0.20483 0.43672 0.0
C103 C 0.19027 0.22653 0.46458 0.0
C104 C 0.18492 0.1838 0.41267 0.0
C105 C 0.09075 0.05313 0.30003 0.0
C106 C 0.13876 0.02076 0.27712 0.0
C107 C 0.08187 0.99936 0.26809 0.0
C108 C 0.06909 0.02739 0.28761 0.0
C109 C 0.11655 0.99659 0.26102 0.0
C110 C 0.12588 0.04913 0.29633 0.0
C111 C 0.0754 0.08521 0.30828 0.0
O112 O 0.02993 0.16692 0.35328 0.0
O113 O 0.06429 0.18319 0.31033 0.0
O114 O 0.09077 0.10958 0.29431 0.0
O115 O 0.06192 0.09267 0.34198 0.0
H116 H 0.03075 0.14167 0.2596 0.0
H117 H 0.9898 0.14072 0.20665 0.0
H118 H 0.93348 0.21691 0.26834 0.0
H119 H 0.97496 0.21839 0.32134 0.0
H120 H 0.14293 0.24328 0.48945 0.0
H121 H 0.10737 0.20596 0.44701 0.0
H122 H 0.23222 0.20391 0.43387 0.0
H123 H 0.19718 0.1669 0.39192 0.0
H124 H 0.16563 0.01899 0.27174 0.0
H125 H 0.06441 0.98096 0.25581 0.0
H126 H 0.04195 0.03007 0.29 0.0
H127 H 0.14304 0.06878 0.30556 0.0
C128 C 0.39266 0.56067 0.80503 0.0
C129 C 0.42004 0.53901 0.80344 0.0
C130 C 0.39088 0.50374 0.75422 0.0
C131 C 0.41904 0.51061 0.77836 0.0
C132 C 0.36362 0.5252 0.75603 0.0
C133 C 0.36442 0.55323 0.78127 0.0
U134 U 0.42416 0.64585 0.84554 0.0
O135 O 0.39412 0.68944 0.8596 0.0
O136 O 0.42391 0.66935 0.90479 0.0
C137 C 0.40278 0.69192 0.89592 0.0
C138 C 0.3918 0.59039 0.832 0.0
C139 C 0.37598 0.70217 0.92329 0.0
C140 C 0.31657 0.70649 0.94032 0.0
C141 C 0.34233 0.69156 0.918 0.0
C142 C 0.35793 0.74175 0.97439 0.0
C143 C 0.32416 0.73219 0.96805 0.0
C144 C 0.3836 0.72682 0.95222 0.0
C145 C 0.50469 0.66536 0.77896 0.0
C146 C 0.52442 0.6846 0.71974 0.0
C147 C 0.56444 0.6622 0.76253 0.0
C148 C 0.53815 0.65732 0.78802 0.0
C149 C 0.55742 0.67482 0.72757 0.0
C150 C 0.49837 0.68002 0.74515 0.0
C151 C 0.4761 0.65795 0.80369 0.0
O152 O 0.41638 0.59506 0.85745 0.0
O153 O 0.38286 0.617 0.81708 0.0
O154 O 0.47965 0.64461 0.83606 0.0
O155 O 0.44481 0.66385 0.79379 0.0
H156 H 0.44211 0.5439 0.82154 0.0
H157 H 0.44029 0.49423 0.77741 0.0
H158 H 0.34159 0.52018 0.73786 0.0
H159 H 0.3428 0.56917 0.78227 0.0
H160 H 0.2906 0.69887 0.93502 0.0
H161 H 0.33582 0.67276 0.89565 0.0
H162 H 0.36423 0.76161 0.99551 0.0
H163 H 0.40931 0.73563 0.95645 0.0
H164 H 0.51849 0.6944 0.69293 0.0
H165 H 0.58976 0.65443 0.76902 0.0
H166 H 0.54382 0.64632 0.8141 0.0
H167 H 0.47302 0.68698 0.73757 0.0
C168 C 0.75523 0.92723 0.12998 0.0
C169 C 0.78108 0.927 0.10275 0.0
C170 C 0.77188 0.98436 0.09606 0.0
C171 C 0.78921 0.95536 0.08573 0.0
C172 C 0.74522 0.98409 0.12209 0.0
C173 C 0.73695 0.95579 0.13878 0.0
U174 U 0.78147 0.84924 0.17459 0.0
O175 O 0.77451 0.83802 0.23416 0.0
O176 O 0.75203 0.80589 0.18673 0.0
C177 C 0.75808 0.81105 0.22369 0.0
C178 C 0.74857 0.8993 0.15223 0.0
C179 C 0.73698 0.79588 0.25155 0.0
C180 C 0.68569 0.79084 0.28843 0.0
C181 C 0.7043 0.80619 0.26117 0.0
C182 C 0.73314 0.75605 0.29778 0.0
C183 C 0.69951 0.76488 0.30708 0.0
C184 C 0.75116 0.77079 0.27011 0.0
C185 C 0.87795 0.83227 0.1387 0.0
C186 C 0.92203 0.79478 0.11607 0.0
C187 C 0.93534 0.85157 0.13177 0.0
C188 C 0.90173 0.85756 0.14165 0.0
C189 C 0.94573 0.82017 0.11921 0.0
C190 C 0.88824 0.80083 0.1257 0.0
C191 C 0.84313 0.83836 0.15164 0.0
O192 O 0.74729 0.87033 0.13352 0.0
O193 O 0.76523 0.89983 0.18478 0.0
O194 O 0.83621 0.85878 0.18132 0.0
O195 O 0.81689 0.82457 0.13341 0.0
H196 H 0.79567 0.90531 0.09566 0.0
H197 H 0.81 0.95511 0.06586 0.0
H198 H 0.7317 0.00616 0.13066 0.0
H199 H 0.71702 0.95654 0.15978 0.0
H200 H 0.66063 0.79966 0.29336 0.0
H201 H 0.69308 0.82598 0.24753 0.0
H202 H 0.7459 0.73736 0.3119 0.0
H203 H 0.77663 0.76272 0.26352 0.0
H204 H 0.92972 0.77042 0.10631 0.0
H205 H 0.95332 0.87144 0.13392 0.0
H206 H 0.8943 0.88195 0.15163 0.0
H207 H 0.87034 0.7809 0.12374 0.0
C208 C 0.74031 0.42169 0.62221 0.0
C209 C 0.70704 0.43178 0.61661 0.0
C210 C 0.72809 0.48076 0.59148 0.0
C211 C 0.70099 0.46114 0.60116 0.0
C212 C 0.76131 0.47025 0.59625 0.0
C213 C 0.76734 0.44092 0.61162 0.0
U214 U 0.73149 0.33966 0.67184 0.0
O215 O 0.77439 0.30694 0.68064 0.0
O216 O 0.75434 0.33849 0.72872 0.0
C217 C 0.77709 0.31701 0.71715 0.0
C218 C 0.74811 0.39386 0.64356 0.0
C219 C 0.78675 0.29394 0.74466 0.0
C220 C 0.82632 0.28186 0.7947 0.0
C221 C 0.81789 0.29908 0.76369 0.0
C222 C 0.77329 0.25243 0.78675 0.0
C223 C 0.80384 0.25886 0.80705 0.0
C224 C 0.76462 0.2701 0.75586 0.0
C225 C 0.63792 0.31121 0.64402 0.0
C226 C 0.58244 0.28552 0.63894 0.0
C227 C 0.59121 0.3371 0.61328 0.0
C228 C 0.62536 0.33696 0.62484 0.0
C229 C 0.56932 0.31168 0.62115 0.0
C230 C 0.61639 0.28527 0.65011 0.0
C231 C 0.67216 0.31114 0.66108 0.0
O232 O 0.7329 0.39259 0.67645 0.0
O233 O 0.75275 0.36532 0.6248 0.0
O234 O 0.69793 0.30478 0.63826 0.0
O235 O 0.67889 0.33321 0.68945 0.0
H236 H 0.68591 0.4174 0.62495 0.0
H237 H 0.67518 0.46877 0.59708 0.0
H238 H 0.78246 0.48487 0.58845 0.0
H239 H 0.79321 0.43365 0.61623 0.0
H240 H 0.84988 0.28729 0.80993 0.0
H241 H 0.83514 0.3176 0.75563 0.0
H242 H 0.75559 0.23478 0.7959 0.0
H243 H 0.74033 0.26602 0.74173 0.0
H244 H 0.56609 0.26576 0.64538 0.0
H245 H 0.58152 0.35754 0.59958 0.0
H246 H 0.64156 0.35724 0.61987 0.0
H247 H 0.62558 0.2652 0.66488 0.0
C248 C 0.50039 0.34211 0.30096 0.0
C249 C 0.50392 0.36096 0.336 0.0
C250 C 0.45342 0.33572 0.35941 0.0
C251 C 0.48047 0.3578 0.36506 0.0
C252 C 0.44906 0.31803 0.32377 0.0
C253 C 0.47239 0.32129 0.29474 0.0
U254 U 0.58205 0.3569 0.238 0.0
O255 O 0.58592 0.33506 0.17828 0.0
O256 O 0.61543 0.31559 0.22417 0.0
C257 C 0.60764 0.31319 0.18761 0.0
C258 C 0.52774 0.33906 0.27289 0.0
C259 C 0.63486 0.30335 0.16074 0.0
C260 C 0.65374 0.26386 0.11003 0.0
C261 C 0.62774 0.2786 0.13178 0.0
C262 C 0.69443 0.29963 0.14453 0.0
C263 C 0.68734 0.27373 0.11687 0.0
C264 C 0.66832 0.31433 0.16649 0.0
C265 C 0.61126 0.44487 0.27679 0.0
C266 C 0.63445 0.49939 0.28766 0.0
C267 C 0.60088 0.47749 0.33667 0.0
C268 C 0.59622 0.44862 0.313 0.0
C269 C 0.62069 0.50273 0.3244 0.0
C270 C 0.62968 0.47073 0.26404 0.0
C271 C 0.61169 0.41358 0.25315 0.0
O272 O 0.52621 0.35484 0.24213 0.0
O273 O 0.55858 0.33503 0.28572 0.0
O274 O 0.58798 0.40815 0.22682 0.0
O275 O 0.61941 0.38786 0.2706 0.0
H276 H 0.52557 0.37684 0.3415 0.0
H277 H 0.48428 0.37142 0.39259 0.0
H278 H 0.42866 0.30057 0.31912 0.0
H279 H 0.46962 0.30611 0.26807 0.0
H280 H 0.64781 0.24394 0.08885 0.0
H281 H 0.60214 0.26956 0.1272 0.0
H282 H 0.72026 0.30757 0.15008 0.0
H283 H 0.6744 0.33323 0.18889 0.0
H284 H 0.64993 0.51852 0.27784 0.0
H285 H 0.59023 0.47967 0.36508 0.0
H286 H 0.58201 0.42893 0.32345 0.0
H287 H 0.64162 0.46824 0.2363 0.0
C288 C 0.13599 0.19864 0.93995 0.0
C289 C 0.12358 0.17158 0.95677 0.0
C290 C 0.06809 0.19673 0.96325 0.0
C291 C 0.0898 0.17071 0.96855 0.0
C292 C 0.08103 0.22418 0.94783 0.0
C293 C 0.11471 0.22514 0.93644 0.0
U294 U 0.22684 0.16743 0.91343 0.0
O295 O 0.25054 0.16589 0.85722 0.0
O296 O 0.27211 0.19738 0.90519 0.0
C297 C 0.27451 0.18648 0.86896 0.0
C298 C 0.16971 0.19921 0.92258 0.0
C299 C 0.28538 0.20859 0.84116 0.0
C300 C 0.2805 0.25758 0.80873 0.0
C301 C 0.27118 0.23925 0.83865 0.0
C302 C 0.31854 0.21501 0.78458 0.0
C303 C 0.30366 0.24511 0.781 0.0
C304 C 0.30956 0.197 0.81448 0.0
C305 C 0.23423 0.08415 0.96317 0.0
C306 C 0.26041 0.03841 0.99 0.0
C307 C 0.1995 0.04017 0.98215 0.0
C308 C 0.2023 0.07006 0.96689 0.0
C309 C 0.22859 0.02411 0.99339 0.0
C310 C 0.26317 0.06824 0.97495 0.0
C311 C 0.23904 0.11307 0.94282 0.0
O312 O 0.19588 0.20449 0.94572 0.0
O313 O 0.17528 0.17717 0.89405 0.0
O314 O 0.24609 0.1413 0.96145 0.0
O315 O 0.22304 0.11463 0.91013 0.0
H316 H 0.13962 0.15085 0.95963 0.0
H317 H 0.08021 0.14929 0.98033 0.0
H318 H 0.06473 0.24442 0.94342 0.0
H319 H 0.12383 0.2462 0.92349 0.0
H320 H 0.26875 0.28082 0.80627 0.0
H321 H 0.25238 0.2485 0.85899 0.0
H322 H 0.33634 0.20499 0.76349 0.0
H323 H 0.32073 0.17336 0.81604 0.0
H324 H 0.28302 0.02637 0.9988 0.0
H325 H 0.17474 0.02948 0.98503 0.0
H326 H 0.17975 0.08184 0.95748 0.0
H327 H 0.28807 0.07857 0.97161 0.0
C328 C 0.26455 0.57765 0.45947 0.0
C329 C 0.29616 0.57266 0.47611 0.0
C330 C 0.27683 0.52013 0.49319 0.0
C331 C 0.30223 0.54395 0.49306 0.0
C332 C 0.24509 0.52556 0.47713 0.0
C333 C 0.23898 0.55423 0.46058 0.0
U334 U 0.27517 0.6576 0.40619 0.0
O335 O 0.2495 0.65834 0.35098 0.0
O336 O 0.23312 0.69169 0.39939 0.0
C337 C 0.22899 0.68179 0.36301 0.0
C338 C 0.25768 0.60518 0.43748 0.0
C339 C 0.22237 0.70614 0.33603 0.0
C340 C 0.1802 0.7359 0.30287 0.0
C341 C 0.1895 0.7184 0.33346 0.0
C342 C 0.23702 0.73028 0.27803 0.0
C343 C 0.2036 0.74077 0.27416 0.0
C344 C 0.24641 0.71313 0.30879 0.0
C345 C 0.3699 0.68261 0.42992 0.0
C346 C 0.42066 0.7121 0.45252 0.0
C347 C 0.42137 0.65354 0.443 0.0
C348 C 0.3873 0.65332 0.43158 0.0
C349 C 0.43837 0.68298 0.45287 0.0
C350 C 0.38675 0.71189 0.44103 0.0
C351 C 0.33568 0.68412 0.41306 0.0
O352 O 0.25529 0.63428 0.45553 0.0
O353 O 0.27162 0.60473 0.40366 0.0
O354 O 0.32721 0.66167 0.38569 0.0
O355 O 0.31075 0.69253 0.43634 0.0
H356 H 0.31623 0.59038 0.47504 0.0
H357 H 0.32701 0.5398 0.50495 0.0
H358 H 0.22543 0.50725 0.47654 0.0
H359 H 0.21454 0.55767 0.44742 0.0
H360 H 0.15444 0.74427 0.3006 0.0
H361 H 0.17057 0.71304 0.3541 0.0
H362 H 0.25553 0.73438 0.25643 0.0
H363 H 0.27193 0.70396 0.31019 0.0
H364 H 0.43334 0.735 0.46024 0.0
H365 H 0.43466 0.63083 0.44351 0.0
H366 H 0.37487 0.63043 0.42316 0.0
H367 H 0.37389 0.73476 0.43972 0.0
C368 C 0.88608 0.94781 0.77583 0.0
C369 C 0.91433 0.96851 0.78199 0.0
C370 C 0.88332 1.0027 0.82972 0.0
C371 C 0.91286 0.99588 0.8086 0.0
C372 C 0.85515 0.98227 0.82324 0.0
C373 C 0.85647 0.95524 0.79648 0.0
U374 U 0.9206 0.86498 0.73378 0.0
O375 O 0.89264 0.81977 0.71931 0.0
O376 O 0.92034 0.84195 0.67435 0.0
C377 C 0.90136 0.81767 0.68325 0.0
C378 C 0.8861 0.91869 0.74793 0.0
C379 C 0.87559 0.80412 0.65584 0.0
C380 C 0.82291 0.80685 0.62013 0.0
C381 C 0.8488 0.82234 0.64272 0.0
C382 C 0.85079 0.75529 0.62351 0.0
C383 C 0.82348 0.77307 0.6111 0.0
C384 C 0.87664 0.77071 0.64549 0.0
C385 C 1.00093 0.84672 0.8021 0.0
C386 C 0.02039 0.82425 0.85982 0.0
C387 C 0.05967 0.8532 0.82264 0.0
C388 C 0.03387 0.85796 0.79616 0.0
C389 C 0.05262 0.83732 0.85531 0.0
C390 C 0.9948 0.8288 0.8334 0.0
C391 C 0.97261 0.85395 0.77666 0.0
O392 O 0.91078 0.91567 0.72299 0.0
O393 O 0.8782 0.89134 0.76184 0.0
O394 O 0.97608 0.86813 0.74487 0.0
O395 O 0.9414 0.84717 0.78563 0.0
H396 H 0.93752 0.96351 0.76646 0.0
H397 H 0.93488 0.01141 0.81325 0.0
H398 H 0.83212 0.98719 0.83912 0.0
H399 H 0.83427 0.93992 0.79204 0.0
H400 H 0.80191 0.82091 0.61085 0.0
H401 H 0.84745 0.84812 0.65073 0.0
H402 H 0.85164 0.72928 0.61695 0.0
H403 H 0.89703 0.75627 0.65558 0.0
H404 H 0.01454 0.81208 0.88497 0.0
H405 H 0.08441 0.86373 0.81904 0.0
H406 H 0.03936 0.87148 0.77199 0.0
H407 H 0.96985 0.81927 0.83838 0.0
C408 C 0.13171 0.95543 0.1621 0.0
C409 C 0.14009 0.92351 0.17035 0.0
C410 C 0.13455 0.9397 0.23916 0.0
C411 C 0.12803 0.97186 0.23072 0.0
N412 N 0.12659 0.01191 0.18505 0.0
N413 N 0.15279 0.88556 0.21643 0.0
C414 C 0.12864 0.98017 0.19246 0.0
C415 C 0.1427 0.91579 0.20887 0.0
N416 N 0.1255 0.9621 0.12528 0.0
N417 N 0.13203 0.93196 0.27602 0.0
H418 H 0.15668 0.86689 0.19505 0.0
H419 H 0.15891 0.87928 0.24364 0.0
H420 H 0.12753 0.94924 0.29888 0.0
H421 H 0.13266 0.9084 0.28387 0.0
H422 H 0.11505 0.98371 0.11806 0.0
H423 H 0.12803 0.94528 0.10176 0.0
H424 H 0.13172 0.01989 0.15844 0.0
H425 H 0.12253 0.03086 0.20605 0.0
C426 C 0.61067 0.70279 0.64699 0.0
C427 C 0.60487 0.67559 0.61915 0.0
C428 C 0.58215 0.64551 0.67051 0.0
C429 C 0.58229 0.67361 0.69593 0.0
N430 N 0.59521 0.73002 0.70884 0.0
N431 N 0.5679 0.62803 0.6061 0.0
C432 C 0.59659 0.70247 0.68445 0.0
C433 C 0.58612 0.64862 0.63123 0.0
N434 N 0.62813 0.72952 0.63817 0.0
N435 N 0.57522 0.61606 0.68312 0.0
H436 H 0.56131 0.63323 0.57863 0.0
H437 H 0.55323 0.60914 0.61483 0.0
H438 H 0.57129 0.61292 0.71184 0.0
H439 H 0.57718 0.59456 0.66541 0.0
H440 H 0.63805 0.74654 0.65901 0.0
H441 H 0.6325 0.73548 0.61063 0.0
H442 H 0.60087 0.75297 0.70083 0.0
H443 H 0.58676 0.72989 0.7369 0.0
C444 C 0.77271 0.06569 0.05286 0.0
C445 C 0.80641 0.07675 0.06134 0.0
C446 C 0.81451 0.02977 0.09895 0.0
C447 C 0.78399 0.01586 0.08349 0.0
N448 N 0.73534 0.01921 0.04239 0.0
N449 N 0.85765 0.07101 0.09813 0.0
C450 C 0.76348 0.03346 0.0595 0.0
C451 C 0.82678 0.05916 0.08601 0.0
N452 N 0.74864 0.08612 0.04095 0.0
N453 N 0.83091 0.0158 0.12767 0.0
H454 H 0.86461 0.09503 0.0967 0.0
H455 H 0.87625 0.05708 0.10973 0.0
H456 H 0.82259 0.99462 0.13849 0.0
H457 H 0.85116 0.0265 0.14326 0.0
H458 H 0.72333 0.07947 0.03718 0.0
H459 H 0.752 0.11096 0.0411 0.0
H460 H 0.72152 0.02954 0.02128 0.0
H461 H 0.72771 0.99571 0.04661 0.0
C462 C 0.47687 0.33743 0.63112 0.0
C463 C 0.46096 0.3152 0.6034 0.0
C464 C 0.51603 0.29115 0.58661 0.0
C465 C 0.53204 0.31342 0.6143 0.0
N466 N 0.52707 0.35304 0.66866 0.0
N467 N 0.46391 0.26492 0.56342 0.0
C468 C 0.51227 0.33535 0.63813 0.0
C469 C 0.48008 0.2901 0.58391 0.0
N470 N 0.45781 0.3603 0.65125 0.0
N471 N 0.53526 0.27194 0.56174 0.0
H472 H 0.43769 0.26335 0.56092 0.0
H473 H 0.47627 0.24428 0.55174 0.0
H474 H 0.56161 0.27229 0.56257 0.0
H475 H 0.52523 0.25783 0.53823 0.0
H476 H 0.46786 0.38047 0.66733 0.0
H477 H 0.43153 0.35897 0.6515 0.0
H478 H 0.51366 0.367 0.68943 0.0
H479 H 0.55276 0.35193 0.67518 0.0
C480 C 0.61721 0.58535 0.38194 0.0
C481 C 0.64697 0.58419 0.40456 0.0
C482 C 0.65978 0.53021 0.37398 0.0
C483 C 0.63002 0.5313 0.35124 0.0
N484 N 0.58376 0.5617 0.32797 0.0
N485 N 0.70067 0.55952 0.41598 0.0
C486 C 0.60977 0.55952 0.35346 0.0
C487 C 0.66963 0.5579 0.39849 0.0
N488 N 0.59583 0.61099 0.38832 0.0
N489 N 0.678 0.50224 0.37315 0.0
H490 H 0.70864 0.57931 0.43429 0.0
H491 H 0.71965 0.54261 0.40994 0.0
H492 H 0.6723 0.48172 0.35475 0.0
H493 H 0.69732 0.49845 0.39251 0.0
H494 H 0.57176 0.61189 0.37631 0.0
H495 H 0.60191 0.63118 0.40705 0.0
H496 H 0.57009 0.58274 0.32536 0.0
H497 H 0.57723 0.54289 0.30741 0.0
C498 C 0.97608 0.16861 0.95453 0.0
C499 C 0.96088 0.1895 0.98362 0.0
C500 C 0.0158 0.2151 0.99955 0.0
C501 C 0.0311 0.1943 0.97038 0.0
N502 N 0.0245 0.15708 0.91383 0.0
N503 N 0.96414 0.23932 0.02477 0.0
C504 C 0.01086 0.17263 0.94607 0.0
C505 C 0.98003 0.21495 0.00323 0.0
N506 N 0.95704 0.14517 0.93457 0.0
N507 N 0.03552 0.23397 0.0249 0.0
H508 H 0.93803 0.24011 0.0282 0.0
H509 H 0.97654 0.26016 0.0365 0.0
H510 H 0.06183 0.23442 0.02349 0.0
H511 H 0.02602 0.24687 0.04929 0.0
H512 H 0.96721 0.12608 0.91712 0.0
H513 H 0.93078 0.14461 0.93612 0.0
H514 H 0.01036 0.14357 0.89287 0.0
H515 H 0.04964 0.15991 0.9061 0.0
C516 C 0.31442 0.43658 0.49666 0.0
C517 C 0.30548 0.42961 0.53413 0.0
C518 C 0.27341 0.48034 0.54289 0.0
C519 C 0.28461 0.48815 0.50662 0.0
N520 N 0.30731 0.47078 0.4448 0.0
N521 N 0.27762 0.445 0.59399 0.0
C522 C 0.3027 0.46539 0.48228 0.0
C523 C 0.28464 0.4512 0.55728 0.0
N524 N 0.33511 0.41602 0.47527 0.0
N525 N 0.25158 0.50061 0.5632 0.0
H526 H 0.28457 0.4238 0.60557 0.0
H527 H 0.26635 0.46144 0.61404 0.0
H528 H 0.24411 0.52281 0.55432 0.0
H529 H 0.23898 0.49478 0.58752 0.0
H530 H 0.34665 0.42151 0.45015 0.0
H531 H 0.34197 0.39362 0.4837 0.0
H532 H 0.31681 0.45366 0.42422 0.0
H533 H 0.29898 0.49161 0.43318 0.0
C534 C 0.11729 0.81557 0.93002 0.0
C535 C 0.10958 0.8397 0.96004 0.0
C536 C 0.07228 0.86614 0.91645 0.0
C537 C 0.07606 0.83966 0.88858 0.0
N538 N 0.09958 0.7874 0.86935 0.0
N539 N 0.07219 0.88332 0.9835 0.0
C540 C 0.09789 0.81381 0.89546 0.0
C541 C 0.08527 0.86394 0.95369 0.0
N542 N 0.1438 0.79514 0.93391 0.0
N543 N 0.0556 0.89332 0.9077 0.0
H544 H 0.07845 0.88151 0.01196 0.0
H545 H 0.05176 0.89864 0.98047 0.0
H546 H 0.04447 0.89567 0.8811 0.0
H547 H 0.05567 0.91472 0.92573 0.0
H548 H 0.15253 0.77909 0.91168 0.0
H549 H 0.15915 0.79632 0.95827 0.0
H550 H 0.11198 0.76617 0.87465 0.0
H551 H 0.08677 0.78611 0.84314 0.0
C552 C 0.86123 0.08495 0.88157 0.0
C553 C 0.87024 0.0797 0.91977 0.0
C554 C 0.89433 0.02696 0.89691 0.0
C555 C 0.88162 0.03055 0.85968 0.0
N556 N 0.85127 0.06191 0.81633 0.0
N557 N 0.89127 0.04357 0.9646 0.0
C558 C 0.8646 0.0593 0.85195 0.0
C559 C 0.88601 0.05026 0.92761 0.0
N560 N 0.85083 0.11488 0.87334 0.0
N561 N 0.91441 1.00119 0.90302 0.0
H562 H 0.88513 0.05946 0.98812 0.0
H563 H 0.89887 0.02105 0.97224 0.0
H564 H 0.92796 0.99939 0.92828 0.0
H565 H 0.91986 0.98278 0.88179 0.0
H566 H 0.84726 0.1214 0.84568 0.0
H567 H 0.8487 0.13424 0.89415 0.0
H568 H 0.83499 0.08034 0.80998 0.0
H569 H 0.85503 0.04453 0.79338 0.0
C570 C 0.38233 0.33629 0.43226 0.0
C571 C 0.4 0.32375 0.46295 0.0
C572 C 0.44689 0.30921 0.41978 0.0
C573 C 0.43259 0.32823 0.39245 0.0
N574 N 0.38647 0.36039 0.37208 0.0
N575 N 0.45178 0.30157 0.48658 0.0
C576 C 0.40001 0.34168 0.39828 0.0
C577 C 0.43277 0.31047 0.45676 0.0
N578 N 0.34852 0.34216 0.43532 0.0
N579 N 0.47414 0.2901 0.41047 0.0
H580 H 0.44354 0.30412 0.51459 0.0
H581 H 0.47707 0.29491 0.4841 0.0
H582 H 0.48521 0.28872 0.38353 0.0
H583 H 0.48337 0.2732 0.42809 0.0
H584 H 0.33362 0.34895 0.41283 0.0
H585 H 0.33485 0.33718 0.4594 0.0
H586 H 0.36449 0.3738 0.37687 0.0
H587 H 0.39845 0.36409 0.34649 0.0
C588 C 0.22037 0.9338 0.00297 0.0
C589 C 0.21139 0.9344 0.04203 0.0
C590 C 0.21932 0.9934 0.05036 0.0
C591 C 0.22547 0.99298 0.01064 0.0
N592 N 0.24003 0.9635 0.95082 0.0
N593 N 0.20549 0.96324 0.10419 0.0
C594 C 0.22871 0.96331 0.98747 0.0
C595 C 0.21228 0.96381 0.0662 0.0
N596 N 0.21885 0.90523 0.98034 0.0
N597 N 0.22112 0.02212 0.07286 0.0
H598 H 0.20417 0.94176 0.11717 0.0
H599 H 0.20124 0.98355 0.12308 0.0
H600 H 0.22627 0.04419 0.06206 0.0
H601 H 0.21919 0.02443 0.10245 0.0
H602 H 0.22135 0.90317 0.95077 0.0
H603 H 0.21358 0.88331 0.99127 0.0
H604 H 0.24631 0.94277 0.93347 0.0
H605 H 0.24544 0.98477 0.93835 0.0
C606 C 0.53453 0.68454 0.44391 0.0
C607 C 0.54435 0.68057 0.48209 0.0
C608 C 0.4849 0.68029 0.50154 0.0
C609 C 0.47495 0.6834 0.46319 0.0
N610 N 0.48935 0.69457 0.39918 0.0
N611 N 0.52994 0.68421 0.54889 0.0
C612 C 0.49955 0.68742 0.43473 0.0
C613 C 0.51983 0.68131 0.51145 0.0
N614 N 0.55878 0.68552 0.41656 0.0
N615 N 0.46089 0.67588 0.52839 0.0
H616 H 0.55518 0.68647 0.55715 0.0
H617 H 0.51354 0.6877 0.57186 0.0
H618 H 0.43501 0.67662 0.52264 0.0
H619 H 0.46642 0.66953 0.55572 0.0
H620 H 0.5537 0.68468 0.38739 0.0
H621 H 0.58456 0.68629 0.4231 0.0
H622 H 0.50572 0.70109 0.37817 0.0
H623 H 0.46399 0.6959 0.39118 0.0
C624 C 0.3944 0.45203 0.65974 0.0
C625 C 0.37515 0.42441 0.66776 0.0
C626 C 0.36908 0.44746 0.73437 0.0
C627 C 0.3893 0.47435 0.72645 0.0
N628 N 0.42833 0.49807 0.68463 0.0
N629 N 0.35142 0.39232 0.7149 0.0
C630 C 0.40445 0.47512 0.69018 0.0
C631 C 0.3645 0.42111 0.70575 0.0
N632 N 0.40111 0.45761 0.62278 0.0
N633 N 0.35396 0.44729 0.76917 0.0
H634 H 0.34913 0.37216 0.69511 0.0
H635 H 0.3461 0.38732 0.74273 0.0
H636 H 0.35859 0.46508 0.79161 0.0
H637 H 0.33556 0.43051 0.77517 0.0
H638 H 0.41185 0.47903 0.61518 0.0
H639 H 0.39283 0.44254 0.5992 0.0
H640 H 0.44321 0.49736 0.66025 0.0
H641 H 0.43556 0.51611 0.70578 0.0
C642 C 0.04073 0.81305 0.12881 0.0
C643 C 0.05078 0.81781 0.09102 0.0
C644 C 0.99142 0.81879 0.07032 0.0
C645 C 0.98145 0.81465 0.10817 0.0
N646 N 0.99545 0.79935 0.1708 0.0
N647 N 0.03641 0.81578 0.02393 0.0
C648 C 0.00582 0.80885 0.13654 0.0
C649 C 0.02627 0.81777 0.06115 0.0
N650 N 0.06419 0.8146 0.15775 0.0
N651 N 0.96757 0.8246 0.04341 0.0
H652 H 0.06164 0.81336 0.01621 0.0
H653 H 0.01992 0.81303 1.0006 0.0
H654 H 0.94167 0.82378 0.04856 0.0
H655 H 0.97334 0.83193 0.01666 0.0
H656 H 0.05796 0.81502 0.18652 0.0
H657 H 0.08998 0.81775 0.15343 0.0
H658 H 0.01193 0.79151 0.19126 0.0
H659 H 0.97001 0.79651 0.17735 0.0
C660 C 0.69306 0.53752 0.5234 0.0
C661 C 0.69798 0.56823 0.54422 0.0
C662 C 0.72531 0.54188 0.59608 0.0
C663 C 0.72125 0.51148 0.57431 0.0
N664 N 0.71075 0.48175 0.51322 0.0
N665 N 0.72437 0.60055 0.59683 0.0
C666 C 0.70819 0.5098 0.53664 0.0
C667 C 0.71597 0.57071 0.5795 0.0
N668 N 0.67242 0.53436 0.49198 0.0
N669 N 0.73689 0.54306 0.63296 0.0
H670 H 0.71731 0.62201 0.5857 0.0
H671 H 0.74044 0.60407 0.62049 0.0
H672 H 0.74439 0.52251 0.64574 0.0
H673 H 0.73711 0.56402 0.65166 0.0
H674 H 0.66491 0.5121 0.47829 0.0
H675 H 0.66018 0.55381 0.48173 0.0
H676 H 0.70499 0.48018 0.4841 0.0
H677 H 0.72198 0.46092 0.52195 0.0
C678 C 0.89034 0.16257 0.15579 0.0
C679 C 0.90487 0.17874 0.12578 0.0
C680 C 0.94832 0.20175 0.17096 0.0
C681 C 0.93738 0.18131 0.19857 0.0
N682 N 0.89936 0.13992 0.21643 0.0
N683 N 0.95322 0.20737 0.10369 0.0
C684 C 0.90868 0.16106 0.1908 0.0
C685 C 0.93508 0.19708 0.13316 0.0
N686 N 0.85861 0.14955 0.15133 0.0
N687 N 0.972 0.22525 0.18049 0.0
H688 H 0.94706 0.20071 0.07527 0.0
H689 H 0.97685 0.21848 0.10727 0.0
H690 H 0.98305 0.22892 0.20762 0.0
H691 H 0.97813 0.24301 0.16253 0.0
H692 H 0.84562 0.13977 0.17325 0.0
H693 H 0.84388 0.15151 0.12686 0.0
H694 H 0.88117 0.12188 0.21043 0.0
H695 H 0.91146 0.13913 0.24285 0.0
C696 C 0.17126 0.75189 0.17315 0.0
C697 C 0.18581 0.78294 0.16806 0.0
C698 C 0.20697 0.7871 0.23433 0.0
C699 C 0.19374 0.75627 0.23926 0.0
N700 N 0.16043 0.70988 0.21587 0.0
N701 N 0.23138 0.81995 0.18915 0.0
C702 C 0.17518 0.73873 0.20928 0.0
C703 C 0.20745 0.79782 0.19742 0.0
N704 N 0.15589 0.73375 0.14332 0.0
N705 N 0.21894 0.80646 0.26513 0.0
H706 H 0.2372 0.82443 0.16122 0.0
H707 H 0.24906 0.8298 0.20918 0.0
H708 H 0.21859 0.79944 0.29291 0.0
H709 H 0.22564 0.83062 0.26346 0.0
H710 H 0.14933 0.70952 0.14379 0.0
H711 H 0.15159 0.74115 0.11639 0.0
H712 H 0.14245 0.6978 0.19804 0.0
H713 H 0.16446 0.69863 0.24082 0.0
C714 C 0.77235 0.72216 0.53448 0.0
C715 C 0.7428 0.71552 0.55531 0.0
C716 C 0.76527 0.74869 0.61182 0.0
C717 C 0.79464 0.75541 0.5909 0.0
N718 N 0.82822 0.74688 0.53412 0.0
N719 N 0.71014 0.72287 0.61286 0.0
C720 C 0.79868 0.74171 0.55266 0.0
C721 C 0.73903 0.72901 0.59372 0.0
N722 N 0.77448 0.71105 0.49669 0.0
N723 N 0.7635 0.75954 0.64976 0.0
H724 H 0.69256 0.70544 0.60241 0.0
H725 H 0.70304 0.73519 0.63863 0.0
H726 H 0.78201 0.77408 0.66406 0.0
H727 H 0.74473 0.75299 0.66811 0.0
H728 H 0.7931 0.71797 0.47837 0.0
H729 H 0.75655 0.69576 0.48262 0.0
H730 H 0.83516 0.73447 0.50834 0.0
H731 H 0.8469 0.76292 0.54541 0.0
C732 C 0.75103 0.20702 0.08881 0.0
C733 C 0.76897 0.22091 0.05951 0.0
C734 C 0.73129 0.26799 0.06543 0.0
C735 C 0.71524 0.2554 0.0968 0.0
N736 N 0.71228 0.21514 0.14197 0.0
N737 N 0.78043 0.26734 0.02487 0.0
C738 C 0.72571 0.22543 0.10942 0.0
C739 C 0.7603 0.25218 0.0492 0.0
N740 N 0.75817 0.17617 0.09689 0.0
N741 N 0.71822 0.29457 0.05045 0.0
H742 H 0.80205 0.25679 0.01268 0.0
H743 H 0.77739 0.29137 0.01933 0.0
H744 H 0.69722 0.30695 0.06188 0.0
H745 H 0.72633 0.30267 0.02485 0.0
H746 H 0.74338 0.1631 0.11447 0.0
H747 H 0.77793 0.16278 0.08417 0.0
H748 H 0.72139 0.19544 0.15517 0.0
H749 H 0.69353 0.22777 0.15766 0.0
C750 C 0.35097 0.28597 0.7043 0.0
C751 C 0.32473 0.28884 0.67706 0.0
C752 C 0.28502 0.26225 0.71747 0.0
C753 C 0.31045 0.26181 0.74615 0.0
N754 N 0.36622 0.27703 0.7696 0.0
N755 N 0.26555 0.28454 0.66001 0.0
C756 C 0.34312 0.27467 0.74028 0.0
C757 C 0.29138 0.27846 0.68437 0.0
N758 N 0.38341 0.29381 0.69559 0.0
N759 N 0.25533 0.24576 0.72087 0.0
H760 H 0.26924 0.29503 0.63458 0.0
H761 H 0.24016 0.28137 0.66634 0.0
H762 H 0.24962 0.23319 0.74437 0.0
H763 H 0.23751 0.24204 0.69889 0.0
H764 H 0.4043 0.28884 0.71223 0.0
H765 H 0.38979 0.30336 0.67017 0.0
H766 H 0.38934 0.28897 0.76856 0.0
H767 H 0.36112 0.26933 0.79641 0.0
C768 C 0.66502 0.74983 0.40405 0.0
C769 C 0.67736 0.71802 0.40773 0.0
C770 C 0.68966 0.71339 0.33852 0.0
C771 C 0.68142 0.7463 0.33659 0.0
N772 N 0.63864 0.78366 0.36062 0.0
N773 N 0.70694 0.67118 0.37663 0.0
C774 C 0.66284 0.76166 0.36735 0.0
C775 C 0.69089 0.70004 0.37443 0.0
N776 N 0.65705 0.76986 0.4357 0.0
N777 N 0.69471 0.69446 0.30516 0.0
H778 H 0.70964 0.65938 0.40107 0.0
H779 H 0.7211 0.66007 0.35433 0.0
H780 H 0.69233 0.7037 0.2786 0.0
H781 H 0.69709 0.66938 0.30356 0.0
H782 H 0.6506 0.79405 0.4342 0.0
H783 H 0.66117 0.76389 0.46352 0.0
H784 H 0.62304 0.79419 0.38198 0.0
H785 H 0.62869 0.78503 0.33337 0.0
C786 C 0.79592 0.23497 0.90899 0.0
C787 C 0.82531 0.21599 0.91237 0.0
C788 C 0.83905 0.22242 0.8454 0.0
C789 C 0.81124 0.24373 0.84318 0.0
N790 N 0.76824 0.27635 0.87603 0.0
N791 N 0.87802 0.19596 0.88615 0.0
C792 C 0.79112 0.25177 0.87591 0.0
C793 C 0.84786 0.21102 0.88123 0.0
N794 N 0.7718 0.23588 0.9366 0.0
N795 N 0.85627 0.21215 0.81302 0.0
H796 H 0.8851 0.18711 0.9119 0.0
H797 H 0.8971 0.19455 0.86587 0.0
H798 H 0.85026 0.21965 0.78625 0.0
H799 H 0.8745 0.19411 0.81202 0.0
H800 H 0.74828 0.24663 0.93377 0.0
H801 H 0.77396 0.22318 0.96071 0.0
H802 H 0.75553 0.28548 0.90049 0.0
H803 H 0.76439 0.28984 0.85277 0.0
C804 C 0.24571 0.2985 0.503 0.0
C805 C 0.26466 0.28421 0.5316 0.0
C806 C 0.22989 0.23466 0.52119 0.0
C807 C 0.21281 0.24792 0.49059 0.0
N808 N 0.19997 0.2936 0.45571 0.0
N809 N 0.27597 0.23863 0.56755 0.0
C810 C 0.21929 0.28033 0.48266 0.0
C811 C 0.25683 0.25236 0.54082 0.0
N812 N 0.25425 0.32888 0.49407 0.0
N813 N 0.21944 0.20546 0.53217 0.0
H814 H 0.29464 0.25127 0.58387 0.0
H815 H 0.27471 0.21433 0.5725 0.0
H816 H 0.19971 0.19207 0.51849 0.0
H817 H 0.22816 0.19554 0.55652 0.0
H818 H 0.24358 0.34038 0.47187 0.0
H819 H 0.27343 0.34262 0.50822 0.0
H820 H 0.20109 0.31769 0.44997 0.0
H821 H 0.18111 0.2807 0.43987 0.0
C822 C 0.25364 0.79356 0.9888 0.0
C823 C 0.24474 0.78761 0.02666 0.0
C824 C 0.28751 0.74447 0.02585 0.0
C825 C 0.2966 0.75095 0.98831 0.0
N826 N 0.29321 0.78509 0.93654 0.0
N827 N 0.24968 0.75469 0.07963 0.0
C828 C 0.28092 0.77638 0.97044 0.0
C829 C 0.26101 0.76254 0.04497 0.0
N830 N 0.23521 0.81493 0.96982 0.0
N831 N 0.30492 0.72152 0.04347 0.0
H832 H 0.23071 0.76734 0.09472 0.0
H833 H 0.25742 0.73455 0.09286 0.0
H834 H 0.32337 0.70698 0.02971 0.0
H835 H 0.30263 0.71772 0.07217 0.0
H836 H 0.23744 0.81746 0.94076 0.0
H837 H 0.21566 0.82865 0.9824 0.0
H838 H 0.28609 0.80598 0.92438 0.0
H839 H 0.31267 0.77276 0.92173 0.0
loop_
_geom_bond_atom_site_label_1
_geom_bond_atom_site_label_2
_geom_bond_distance
_geom_bond_site_symmetry_2
_ccdc_geom_bond_type
Fe0 O2 1.918 . S
Fe0 O5 1.997 . S
Fe0 O6 2.002 . S
Fe0 O11 1.976 . S
Fe0 O14 1.996 . S
Fe1 O2 1.918 . S
Fe1 O9 1.997 . S
Fe1 O12 1.996 . S
Fe1 O16 1.976 . S
Fe1 O19 2.002 . S
O2 Fe0 1.918 . S
O2 Fe1 1.918 . S
O2 Fe3 1.918 . S
Fe3 O2 1.918 . S
Fe3 O4 2.002 . S
Fe3 O13 1.976 . S
Fe3 O17 1.996 . S
Fe3 O20 1.997 . S
O4 Fe3 2.002 . S
O4 C21 1.295 . S
O5 Fe0 1.997 . S
O5 C21 1.235 . S
O6 Fe0 2.002 . S
O6 C7 1.295 . S
C7 O6 1.295 . S
C7 O9 1.235 . S
C8 O13 1.287 . S
C8 O14 1.255 . S
O9 Fe1 1.997 . S
O9 C7 1.235 . S
C10 O16 1.287 1_556 S
C10 O17 1.255 1_556 S
O11 Fe0 1.976 . S
O11 C18 1.287 . S
O12 Fe1 1.996 . S
O12 C18 1.255 . S
O13 Fe3 1.976 . S
O13 C8 1.287 . S
O14 Fe0 1.996 . S
O14 C8 1.255 . S
C15 O19 1.295 . S
C15 O20 1.235 . S
O16 Fe1 1.976 . S
O16 C10 1.287 1_554 S
O17 Fe3 1.996 . S
O17 C10 1.255 1_554 S
C18 O11 1.287 . S
C18 O12 1.255 . S
O19 Fe1 2.002 . S
O19 C15 1.295 . S
O20 Fe3 1.997 . S
O20 C15 1.235 . S
C21 O4 1.295 . S
C21 O5 1.235 . S
Fe22 O24 1.918 . S
Fe22 O27 1.997 . S
Fe22 O28 2.002 . S
Fe22 O33 1.976 . S
Fe22 O36 1.996 . S
Fe23 O24 1.918 . S
Fe23 O31 1.997 . S
Fe23 O34 1.996 . S
Fe23 O38 1.976 . S
Fe23 O41 2.002 . S
O24 Fe22 1.918 . S
O24 Fe23 1.918 . S
O24 Fe25 1.918 . S
Fe25 O24 1.918 . S
Fe25 O26 2.002 . S
Fe25 O35 1.976 . S
Fe25 O39 1.996 . S
Fe25 O42 1.997 . S
O26 Fe25 2.002 . S
O26 C43 1.295 . S
O27 Fe22 1.997 . S
O27 C43 1.235 . S
O28 Fe22 2.002 . S
O28 C29 1.295 . S
C29 O28 1.295 . S
C29 O31 1.235 . S
C30 O35 1.287 . S
C30 O36 1.255 . S
O31 Fe23 1.997 . S
O31 C29 1.235 . S
C32 O38 1.287 . S
C32 O39 1.255 . S
O33 Fe22 1.976 . S
O33 C40 1.287 . S
O34 Fe23 1.996 . S
O34 C40 1.255 . S
O35 Fe25 1.976 . S
O35 C30 1.287 . S
O36 Fe22 1.996 . S
O36 C30 1.255 . S
C37 O41 1.295 . S
C37 O42 1.235 . S
O38 Fe23 1.976 . S
O38 C32 1.287 . S
O39 Fe25 1.996 . S
O39 C32 1.255 . S
C40 O33 1.287 . S
C40 O34 1.255 . S
O41 Fe23 2.002 . S
O41 C37 1.295 . S
O42 Fe25 1.997 . S
O42 C37 1.235 . S
C43 O26 1.295 . S
C43 O27 1.235 . S
Fe44 O46 1.918 . S
Fe44 O49 1.997 1_554 S
Fe44 O50 2.002 . S
Fe44 O55 1.976 . S
Fe44 O58 1.996 . S
Fe45 O46 1.918 . S
Fe45 O53 1.997 . S
Fe45 O56 1.996 . S
Fe45 O60 1.976 . S
Fe45 O63 2.002 1_554 S
O46 Fe44 1.918 . S
O46 Fe45 1.918 . S
O46 Fe47 1.918 1_554 S
Fe47 O46 1.918 1_556 S
Fe47 O48 2.002 . S
Fe47 O57 1.976 1_556 S
Fe47 O61 1.996 1_556 S
Fe47 O64 1.997 . S
O48 Fe47 2.002 . S
O48 C65 1.295 . S
O49 Fe44 1.997 1_556 S
O49 C65 1.235 . S
O50 Fe44 2.002 . S
O50 C51 1.295 1_554 S
C51 O50 1.295 1_556 S
C51 O53 1.235 1_556 S
C52 O57 1.287 . S
C52 O58 1.255 . S
O53 Fe45 1.997 . S
O53 C51 1.235 1_554 S
C54 O60 1.287 . S
C54 O61 1.255 . S
O55 Fe44 1.976 . S
O55 C62 1.287 . S
O56 Fe45 1.996 . S
O56 C62 1.255 . S
O57 Fe47 1.976 1_554 S
O57 C52 1.287 . S
O58 Fe44 1.996 . S
O58 C52 1.255 . S
C59 O63 1.295 . S
C59 O64 1.235 . S
O60 Fe45 1.976 . S
O60 C54 1.287 . S
O61 Fe47 1.996 1_554 S
O61 C54 1.255 . S
C62 O55 1.287 . S
C62 O56 1.255 . S
O63 Fe45 2.002 1_556 S
O63 C59 1.295 . S
O64 Fe47 1.997 . S
O64 C59 1.235 . S
C65 O48 1.295 . S
C65 O49 1.235 . S
Fe66 O68 1.918 . S
Fe66 O71 1.997 . S
Fe66 O72 2.002 . S
Fe66 O77 1.976 . S
Fe66 O80 1.996 . S
Fe67 O68 1.918 . S
Fe67 O75 1.997 . S
Fe67 O78 1.996 . S
Fe67 O82 1.976 . S
Fe67 O85 2.002 . S
O68 Fe66 1.918 . S
O68 Fe67 1.918 . S
O68 Fe69 1.918 . S
Fe69 O68 1.918 . S
Fe69 O70 2.002 . S
Fe69 O79 1.976 . S
Fe69 O83 1.996 . S
Fe69 O86 1.997 . S
O70 Fe69 2.002 . S
O70 C87 1.295 . S
O71 Fe66 1.997 . S
O71 C87 1.235 . S
O72 Fe66 2.002 . S
O72 C73 1.295 . S
C73 O72 1.295 . S
C73 O75 1.235 . S
C74 O79 1.287 . S
C74 O80 1.255 . S
O75 Fe67 1.997 . S
O75 C73 1.235 . S
C76 O82 1.287 . S
C76 O83 1.255 . S
O77 Fe66 1.976 . S
O77 C84 1.287 . S
O78 Fe67 1.996 . S
O78 C84 1.255 . S
O79 Fe69 1.976 . S
O79 C74 1.287 . S
O80 Fe66 1.996 . S
O80 C74 1.255 . S
C81 O85 1.295 . S
C81 O86 1.235 . S
O82 Fe67 1.976 . S
O82 C76 1.287 . S
O83 Fe69 1.996 . S
O83 C76 1.255 . S
C84 O77 1.287 . S
C84 O78 1.255 . S
O85 Fe67 2.002 . S
O85 C81 1.295 . S
O86 Fe69 1.997 . S
O86 C81 1.235 . S
C87 O70 1.295 . S
C87 O71 1.235 . S
C88 C89 1.264 . S
C88 C93 1.479 . S
C88 C98 1.465 1_655 S
C89 C88 1.264 . S
C89 C91 1.339 . S
C89 H116 0.931 . S
C90 C91 1.395 . S
C90 C92 1.320 . S
C91 C89 1.339 . S
C91 C90 1.395 . S
C91 H117 0.929 . S
C92 C90 1.320 . S
C92 C93 1.405 . S
C92 H118 0.930 . S
C93 C88 1.479 . S
C93 C92 1.405 . S
C93 H119 0.931 . S
U94 O95 2.454 . S
U94 O96 2.458 . S
U94 C97 2.984 . S
U94 C98 2.847 . S
U94 C111 2.882 . S
U94 O112 2.441 . S
U94 O113 2.420 . S
U94 O114 2.455 . S
U94 O115 2.449 . S
O95 U94 2.454 . S
O95 C97 1.353 . S
O96 U94 2.458 . S
O96 C97 1.286 . S
C97 U94 2.984 . S
C97 O95 1.353 . S
C97 O96 1.286 . S
C97 C99 1.363 . S
C98 C88 1.465 1_455 S
C98 U94 2.847 . S
C98 O112 1.249 . S
C98 O113 1.202 . S
C99 C97 1.363 . S
C99 C101 1.408 . S
C99 C104 1.342 . S
C100 C101 1.310 . S
C100 C103 1.461 . S
C100 H120 0.932 . S
C101 C99 1.408 . S
C101 C100 1.310 . S
C101 H121 0.930 . S
C102 C103 1.474 . S
C102 C104 1.285 . S
C102 H122 0.929 . S
C103 C100 1.461 . S
C103 C102 1.474 . S
C104 C99 1.342 . S
C104 C102 1.285 . S
C104 H123 0.930 . S
C105 C108 1.424 . S
C105 C110 1.245 . S
C105 C111 1.428 . S
C106 C109 1.260 . S
C106 C110 1.477 1_565 S
C106 H124 0.932 . S
C107 C108 1.384 1_565 S
C107 C109 1.479 . S
C107 H125 0.929 . S
C108 C105 1.424 . S
C108 C107 1.384 1_545 S
C108 H126 0.928 . S
C109 C106 1.260 . S
C109 C107 1.479 . S
C110 C105 1.245 . S
C110 C106 1.477 1_545 S
C110 H127 0.932 . S
C111 U94 2.882 . S
C111 C105 1.428 . S
C111 O114 1.301 . S
C111 O115 1.282 . S
O112 U94 2.441 . S
O112 C98 1.249 . S
O113 U94 2.420 . S
O113 C98 1.202 . S
O114 U94 2.455 . S
O114 C111 1.301 . S
O115 U94 2.449 . S
O115 C111 1.282 . S
H116 C89 0.931 . S
H117 C91 0.929 . S
H118 C92 0.930 . S
H119 C93 0.931 . S
H120 C100 0.932 . S
H121 C101 0.930 . S
H122 C102 0.929 . S
H123 C104 0.930 . S
H124 C106 0.932 . S
H125 C107 0.929 . S
H126 C108 0.928 . S
H127 C110 0.932 . S
C128 C129 1.264 . S
C128 C133 1.479 . S
C128 C138 1.465 . S
C129 C128 1.264 . S
C129 C131 1.339 . S
C129 H156 0.931 . S
C130 C131 1.395 . S
C130 C132 1.320 . S
C131 C129 1.339 . S
C131 C130 1.395 . S
C131 H157 0.929 . S
C132 C130 1.320 . S
C132 C133 1.405 . S
C132 H158 0.930 . S
C133 C128 1.479 . S
C133 C132 1.405 . S
C133 H159 0.931 . S
U134 O135 2.454 . S
U134 O136 2.458 . S
U134 C137 2.984 . S
U134 C138 2.847 . S
U134 C151 2.882 . S
U134 O152 2.441 . S
U134 O153 2.420 . S
U134 O154 2.455 . S
U134 O155 2.449 . S
O135 U134 2.454 . S
O135 C137 1.353 . S
O136 U134 2.458 . S
O136 C137 1.286 . S
C137 U134 2.984 . S
C137 O135 1.353 . S
C137 O136 1.286 . S
C137 C139 1.363 . S
C138 C128 1.465 . S
C138 U134 2.847 . S
C138 O152 1.249 . S
C138 O153 1.202 . S
C139 C137 1.363 . S
C139 C141 1.408 . S
C139 C144 1.342 . S
C140 C141 1.310 . S
C140 C143 1.461 . S
C140 H160 0.932 . S
C141 C139 1.408 . S
C141 C140 1.310 . S
C141 H161 0.930 . S
C142 C143 1.474 . S
C142 C144 1.285 . S
C142 H162 0.929 . S
C143 C140 1.461 . S
C143 C142 1.474 . S
C144 C139 1.342 . S
C144 C142 1.285 . S
C144 H163 0.930 . S
C145 C148 1.424 . S
C145 C150 1.245 . S
C145 C151 1.428 . S
C146 C149 1.260 . S
C146 C150 1.477 . S
C146 H164 0.932 . S
C147 C148 1.384 . S
C147 C149 1.479 . S
C147 H165 0.929 . S
C148 C145 1.424 . S
C148 C147 1.384 . S
C148 H166 0.928 . S
C149 C146 1.260 . S
C149 C147 1.479 . S
C150 C145 1.245 . S
C150 C146 1.477 . S
C150 H167 0.932 . S
C151 U134 2.882 . S
C151 C145 1.428 . S
C151 O154 1.301 . S
C151 O155 1.282 . S
O152 U134 2.441 . S
O152 C138 1.249 . S
O153 U134 2.420 . S
O153 C138 1.202 . S
O154 U134 2.455 . S
O154 C151 1.301 . S
O155 U134 2.449 . S
O155 C151 1.282 . S
H156 C129 0.931 . S
H157 C131 0.929 . S
H158 C132 0.930 . S
H159 C133 0.931 . S
H160 C140 0.932 . S
H161 C141 0.930 . S
H162 C142 0.929 . S
H163 C144 0.930 . S
H164 C146 0.932 . S
H165 C147 0.929 . S
H166 C148 0.928 . S
H167 C150 0.932 . S
C168 C169 1.264 . S
C168 C173 1.479 . S
C168 C178 1.465 . S
C169 C168 1.264 . S
C169 C171 1.339 . S
C169 H196 0.931 . S
C170 C171 1.395 . S
C170 C172 1.320 . S
C171 C169 1.339 . S
C171 C170 1.395 . S
C171 H197 0.929 . S
C172 C170 1.320 . S
C172 C173 1.405 . S
C172 H198 0.930 . S
C173 C168 1.479 . S
C173 C172 1.405 . S
C173 H199 0.931 . S
U174 O175 2.454 . S
U174 O176 2.458 . S
U174 C177 2.984 . S
U174 C178 2.847 . S
U174 C191 2.882 . S
U174 O192 2.441 . S
U174 O193 2.420 . S
U174 O194 2.455 . S
U174 O195 2.449 . S
O175 U174 2.454 . S
O175 C177 1.353 . S
O176 U174 2.458 . S
O176 C177 1.286 . S
C177 U174 2.984 . S
C177 O175 1.353 . S
C177 O176 1.286 . S
C177 C179 1.363 . S
C178 C168 1.465 . S
C178 U174 2.847 . S
C178 O192 1.249 . S
C178 O193 1.202 . S
C179 C177 1.363 . S
C179 C181 1.408 . S
C179 C184 1.342 . S
C180 C181 1.310 . S
C180 C183 1.461 . S
C180 H200 0.932 . S
C181 C179 1.408 . S
C181 C180 1.310 . S
C181 H201 0.930 . S
C182 C183 1.474 . S
C182 C184 1.285 . S
C182 H202 0.929 . S
C183 C180 1.461 . S
C183 C182 1.474 . S
C184 C179 1.342 . S
C184 C182 1.285 . S
C184 H203 0.930 . S
C185 C188 1.424 . S
C185 C190 1.245 . S
C185 C191 1.428 . S
C186 C189 1.260 . S
C186 C190 1.477 . S
C186 H204 0.932 . S
C187 C188 1.384 . S
C187 C189 1.479 . S
C187 H205 0.929 . S
C188 C185 1.424 . S
C188 C187 1.384 . S
C188 H206 0.928 . S
C189 C186 1.260 . S
C189 C187 1.479 . S
C190 C185 1.245 . S
C190 C186 1.477 . S
C190 H207 0.932 . S
C191 U174 2.882 . S
C191 C185 1.428 . S
C191 O194 1.301 . S
C191 O195 1.282 . S
O192 U174 2.441 . S
O192 C178 1.249 . S
O193 U174 2.420 . S
O193 C178 1.202 . S
O194 U174 2.455 . S
O194 C191 1.301 . S
O195 U174 2.449 . S
O195 C191 1.282 . S
H196 C169 0.931 . S
H197 C171 0.929 . S
H198 C172 0.930 . S
H199 C173 0.931 . S
H200 C180 0.932 . S
H201 C181 0.930 . S
H202 C182 0.929 . S
H203 C184 0.930 . S
H204 C186 0.932 . S
H205 C187 0.929 . S
H206 C188 0.928 . S
H207 C190 0.932 . S
C208 C209 1.264 . S
C208 C213 1.479 . S
C208 C218 1.465 . S
C209 C208 1.264 . S
C209 C211 1.339 . S
C209 H236 0.931 . S
C210 C211 1.395 . S
C210 C212 1.320 . S
C211 C209 1.339 . S
C211 C210 1.395 . S
C211 H237 0.929 . S
C212 C210 1.320 . S
C212 C213 1.405 . S
C212 H238 0.930 . S
C213 C208 1.479 . S
C213 C212 1.405 . S
C213 H239 0.931 . S
U214 O215 2.454 . S
U214 O216 2.458 . S
U214 C217 2.984 . S
U214 C218 2.847 . S
U214 C231 2.882 . S
U214 O232 2.441 . S
U214 O233 2.420 . S
U214 O234 2.455 . S
U214 O235 2.449 . S
O215 U214 2.454 . S
O215 C217 1.353 . S
O216 U214 2.458 . S
O216 C217 1.286 . S
C217 U214 2.984 . S
C217 O215 1.353 . S
C217 O216 1.286 . S
C217 C219 1.363 . S
C218 C208 1.465 . S
C218 U214 2.847 . S
C218 O232 1.249 . S
C218 O233 1.202 . S
C219 C217 1.363 . S
C219 C221 1.408 . S
C219 C224 1.342 . S
C220 C221 1.310 . S
C220 C223 1.461 . S
C220 H240 0.932 . S
C221 C219 1.408 . S
C221 C220 1.310 . S
C221 H241 0.930 . S
C222 C223 1.474 . S
C222 C224 1.285 . S
C222 H242 0.929 . S
C223 C220 1.461 . S
C223 C222 1.474 . S
C224 C219 1.342 . S
C224 C222 1.285 . S
C224 H243 0.930 . S
C225 C228 1.424 . S
C225 C230 1.245 . S
C225 C231 1.428 . S
C226 C229 1.260 . S
C226 C230 1.477 . S
C226 H244 0.932 . S
C227 C228 1.384 . S
C227 C229 1.479 . S
C227 H245 0.929 . S
C228 C225 1.424 . S
C228 C227 1.384 . S
C228 H246 0.928 . S
C229 C226 1.260 . S
C229 C227 1.479 . S
C230 C225 1.245 . S
C230 C226 1.477 . S
C230 H247 0.932 . S
C231 U214 2.882 . S
C231 C225 1.428 . S
C231 O234 1.301 . S
C231 O235 1.282 . S
O232 U214 2.441 . S
O232 C218 1.249 . S
O233 U214 2.420 . S
O233 C218 1.202 . S
O234 U214 2.455 . S
O234 C231 1.301 . S
O235 U214 2.449 . S
O235 C231 1.282 . S
H236 C209 0.931 . S
H237 C211 0.929 . S
H238 C212 0.930 . S
H239 C213 0.931 . S
H240 C220 0.932 . S
H241 C221 0.930 . S
H242 C222 0.929 . S
H243 C224 0.930 . S
H244 C226 0.932 . S
H245 C227 0.929 . S
H246 C228 0.928 . S
H247 C230 0.932 . S
C248 C249 1.264 . S
C248 C253 1.479 . S
C248 C258 1.465 . S
C249 C248 1.264 . S
C249 C251 1.339 . S
C249 H276 0.931 . S
C250 C251 1.395 . S
C250 C252 1.320 . S
C251 C249 1.339 . S
C251 C250 1.395 . S
C251 H277 0.929 . S
C252 C250 1.320 . S
C252 C253 1.405 . S
C252 H278 0.930 . S
C253 C248 1.479 . S
C253 C252 1.405 . S
C253 H279 0.931 . S
U254 O255 2.454 . S
U254 O256 2.458 . S
U254 C257 2.984 . S
U254 C258 2.847 . S
U254 C271 2.882 . S
U254 O272 2.441 . S
U254 O273 2.420 . S
U254 O274 2.455 . S
U254 O275 2.449 . S
O255 U254 2.454 . S
O255 C257 1.353 . S
O256 U254 2.458 . S
O256 C257 1.286 . S
C257 U254 2.984 . S
C257 O255 1.353 . S
C257 O256 1.286 . S
C257 C259 1.363 . S
C258 C248 1.465 . S
C258 U254 2.847 . S
C258 O272 1.249 . S
C258 O273 1.202 . S
C259 C257 1.363 . S
C259 C261 1.408 . S
C259 C264 1.342 . S
C260 C261 1.310 . S
C260 C263 1.461 . S
C260 H280 0.932 . S
C261 C259 1.408 . S
C261 C260 1.310 . S
C261 H281 0.930 . S
C262 C263 1.474 . S
C262 C264 1.285 . S
C262 H282 0.929 . S
C263 C260 1.461 . S
C263 C262 1.474 . S
C264 C259 1.342 . S
C264 C262 1.285 . S
C264 H283 0.930 . S
C265 C268 1.424 . S
C265 C270 1.245 . S
C265 C271 1.428 . S
C266 C269 1.260 . S
C266 C270 1.477 . S
C266 H284 0.932 . S
C267 C268 1.384 . S
C267 C269 1.479 . S
C267 H285 0.929 . S
C268 C265 1.424 . S
C268 C267 1.384 . S
C268 H286 0.928 . S
C269 C266 1.260 . S
C269 C267 1.479 . S
C270 C265 1.245 . S
C270 C266 1.477 . S
C270 H287 0.932 . S
C271 U254 2.882 . S
C271 C265 1.428 . S
C271 O274 1.301 . S
C271 O275 1.282 . S
O272 U254 2.441 . S
O272 C258 1.249 . S
O273 U254 2.420 . S
O273 C258 1.202 . S
O274 U254 2.455 . S
O274 C271 1.301 . S
O275 U254 2.449 . S
O275 C271 1.282 . S
H276 C249 0.931 . S
H277 C251 0.929 . S
H278 C252 0.930 . S
H279 C253 0.931 . S
H280 C260 0.932 . S
H281 C261 0.930 . S
H282 C262 0.929 . S
H283 C264 0.930 . S
H284 C266 0.932 . S
H285 C267 0.929 . S
H286 C268 0.928 . S
H287 C270 0.932 . S
C288 C289 1.264 . S
C288 C293 1.479 . S
C288 C298 1.465 . S
C289 C288 1.264 . S
C289 C291 1.339 . S
C289 H316 0.931 . S
C290 C291 1.395 . S
C290 C292 1.320 . S
C291 C289 1.339 . S
C291 C290 1.395 . S
C291 H317 0.929 . S
C292 C290 1.320 . S
C292 C293 1.405 . S
C292 H318 0.930 . S
C293 C288 1.479 . S
C293 C292 1.405 . S
C293 H319 0.931 . S
U294 O295 2.454 . S
U294 O296 2.458 . S
U294 C297 2.984 . S
U294 C298 2.847 . S
U294 C311 2.882 . S
U294 O312 2.441 . S
U294 O313 2.420 . S
U294 O314 2.455 . S
U294 O315 2.449 . S
O295 U294 2.454 . S
O295 C297 1.353 . S
O296 U294 2.458 . S
O296 C297 1.286 . S
C297 U294 2.984 . S
C297 O295 1.353 . S
C297 O296 1.286 . S
C297 C299 1.363 . S
C298 C288 1.465 . S
C298 U294 2.847 . S
C298 O312 1.249 . S
C298 O313 1.202 . S
C299 C297 1.363 . S
C299 C301 1.408 . S
C299 C304 1.342 . S
C300 C301 1.310 . S
C300 C303 1.461 . S
C300 H320 0.932 . S
C301 C299 1.408 . S
C301 C300 1.310 . S
C301 H321 0.930 . S
C302 C303 1.474 . S
C302 C304 1.285 . S
C302 H322 0.929 . S
C303 C300 1.461 . S
C303 C302 1.474 . S
C304 C299 1.342 . S
C304 C302 1.285 . S
C304 H323 0.930 . S
C305 C308 1.424 . S
C305 C310 1.245 . S
C305 C311 1.428 . S
C306 C309 1.260 . S
C306 C310 1.477 . S
C306 H324 0.932 . S
C307 C308 1.384 . S
C307 C309 1.479 . S
C307 H325 0.929 1_556 S
C308 C305 1.424 . S
C308 C307 1.384 . S
C308 H326 0.928 . S
C309 C306 1.260 . S
C309 C307 1.479 . S
C310 C305 1.245 . S
C310 C306 1.477 . S
C310 H327 0.932 . S
C311 U294 2.882 . S
C311 C305 1.428 . S
C311 O314 1.301 . S
C311 O315 1.282 . S
O312 U294 2.441 . S
O312 C298 1.249 . S
O313 U294 2.420 . S
O313 C298 1.202 . S
O314 U294 2.455 . S
O314 C311 1.301 . S
O315 U294 2.449 . S
O315 C311 1.282 . S
H316 C289 0.931 . S
H317 C291 0.929 . S
H318 C292 0.930 . S
H319 C293 0.931 . S
H320 C300 0.932 . S
H321 C301 0.930 . S
H322 C302 0.929 . S
H323 C304 0.930 . S
H324 C306 0.932 . S
H325 C307 0.929 1_554 S
H326 C308 0.928 . S
H327 C310 0.932 . S
C328 C329 1.264 . S
C328 C333 1.479 . S
C328 C338 1.465 . S
C329 C328 1.264 . S
C329 C331 1.339 . S
C329 H356 0.931 . S
C330 C331 1.395 . S
C330 C332 1.320 . S
C331 C329 1.339 . S
C331 C330 1.395 . S
C331 H357 0.929 . S
C332 C330 1.320 . S
C332 C333 1.405 . S
C332 H358 0.930 . S
C333 C328 1.479 . S
C333 C332 1.405 . S
C333 H359 0.931 . S
U334 O335 2.454 . S
U334 O336 2.458 . S
U334 C337 2.984 . S
U334 C338 2.847 . S
U334 C351 2.882 . S
U334 O352 2.441 . S
U334 O353 2.420 . S
U334 O354 2.455 . S
U334 O355 2.449 . S
O335 U334 2.454 . S
O335 C337 1.353 . S
O336 U334 2.458 . S
O336 C337 1.286 . S
C337 U334 2.984 . S
C337 O335 1.353 . S
C337 O336 1.286 . S
C337 C339 1.363 . S
C338 C328 1.465 . S
C338 U334 2.847 . S
C338 O352 1.249 . S
C338 O353 1.202 . S
C339 C337 1.363 . S
C339 C341 1.408 . S
C339 C344 1.342 . S
C340 C341 1.310 . S
C340 C343 1.461 . S
C340 H360 0.932 . S
C341 C339 1.408 . S
C341 C340 1.310 . S
C341 H361 0.930 . S
C342 C343 1.474 . S
C342 C344 1.285 . S
C342 H362 0.929 . S
C343 C340 1.461 . S
C343 C342 1.474 . S
C344 C339 1.342 . S
C344 C342 1.285 . S
C344 H363 0.930 . S
C345 C348 1.424 . S
C345 C350 1.245 . S
C345 C351 1.428 . S
C346 C349 1.260 . S
C346 C350 1.477 . S
C346 H364 0.932 . S
C347 C348 1.384 . S
C347 C349 1.479 . S
C347 H365 0.929 . S
C348 C345 1.424 . S
C348 C347 1.384 . S
C348 H366 0.928 . S
C349 C346 1.260 . S
C349 C347 1.479 . S
C350 C345 1.245 . S
C350 C346 1.477 . S
C350 H367 0.932 . S
C351 U334 2.882 . S
C351 C345 1.428 . S
C351 O354 1.301 . S
C351 O355 1.282 . S
O352 U334 2.441 . S
O352 C338 1.249 . S
O353 U334 2.420 . S
O353 C338 1.202 . S
O354 U334 2.455 . S
O354 C351 1.301 . S
O355 U334 2.449 . S
O355 C351 1.282 . S
H356 C329 0.931 . S
H357 C331 0.929 . S
H358 C332 0.930 . S
H359 C333 0.931 . S
H360 C340 0.932 . S
H361 C341 0.930 . S
H362 C342 0.929 . S
H363 C344 0.930 . S
H364 C346 0.932 . S
H365 C347 0.929 . S
H366 C348 0.928 . S
H367 C350 0.932 . S
C368 C369 1.264 . S
C368 C373 1.479 . S
C368 C378 1.465 . S
C369 C368 1.264 . S
C369 C371 1.339 1_565 S
C369 H396 0.931 . S
C370 C371 1.395 . S
C370 C372 1.320 . S
C371 C369 1.339 1_545 S
C371 C370 1.395 . S
C371 H397 0.929 . S
C372 C370 1.320 . S
C372 C373 1.405 1_545 S
C372 H398 0.930 . S
C373 C368 1.479 . S
C373 C372 1.405 1_565 S
C373 H399 0.931 . S
U374 O375 2.454 . S
U374 O376 2.458 . S
U374 C377 2.984 . S
U374 C378 2.847 . S
U374 C391 2.882 . S
U374 O392 2.441 . S
U374 O393 2.420 . S
U374 O394 2.455 . S
U374 O395 2.449 . S
O375 U374 2.454 . S
O375 C377 1.353 . S
O376 U374 2.458 . S
O376 C377 1.286 . S
C377 U374 2.984 . S
C377 O375 1.353 . S
C377 O376 1.286 . S
C377 C379 1.363 . S
C378 C368 1.465 . S
C378 U374 2.847 . S
C378 O392 1.249 . S
C378 O393 1.202 . S
C379 C377 1.363 . S
C379 C381 1.408 . S
C379 C384 1.342 . S
C380 C381 1.310 . S
C380 C383 1.461 . S
C380 H400 0.932 . S
C381 C379 1.408 . S
C381 C380 1.310 . S
C381 H401 0.930 . S
C382 C383 1.474 . S
C382 C384 1.285 . S
C382 H402 0.929 . S
C383 C380 1.461 . S
C383 C382 1.474 . S
C384 C379 1.342 . S
C384 C382 1.285 . S
C384 H403 0.930 . S
C385 C388 1.406 1_655 S
C385 C390 1.233 1_655 S
C385 C391 1.456 . S
C386 C389 1.260 . S
C386 C390 1.477 . S
C386 H404 0.932 . S
C387 C388 1.384 . S
C387 C389 1.479 . S
C387 H405 0.929 . S
C388 C385 1.406 1_455 S
C388 C387 1.384 . S
C388 H406 0.928 . S
C389 C386 1.260 . S
C389 C387 1.479 . S
C390 C385 1.233 1_455 S
C390 C386 1.477 . S
C390 H407 0.942 . S
C391 U374 2.882 . S
C391 C385 1.456 . S
C391 O394 1.301 . S
C391 O395 1.282 . S
O392 U374 2.441 . S
O392 C378 1.249 . S
O393 U374 2.420 . S
O393 C378 1.202 . S
O394 U374 2.455 . S
O394 C391 1.301 . S
O395 U374 2.449 . S
O395 C391 1.282 . S
H396 C369 0.931 . S
H397 C371 0.929 . S
H398 C372 0.930 . S
H399 C373 0.931 . S
H400 C380 0.932 . S
H401 C381 0.930 . S
H402 C382 0.929 . S
H403 C384 0.930 . S
H404 C386 0.932 . S
H405 C387 0.929 . S
H406 C388 0.928 . S
H407 C390 0.942 . S
C408 C409 1.363 . S
C408 C414 1.379 . S
C408 N416 1.356 . S
C409 C408 1.363 . S
C409 C415 1.363 . S
C410 C411 1.363 . S
C410 C415 1.379 . S
C410 N417 1.356 . S
C411 C410 1.363 . S
C411 C414 1.363 . S
N412 C414 1.356 . S
N412 H424 0.984 1_565 S
N412 H425 0.985 . S
N413 C415 1.356 . S
N413 H418 0.984 . S
N413 H419 0.985 . S
C414 C408 1.379 . S
C414 C411 1.363 . S
C414 N412 1.356 . S
C415 C409 1.363 . S
C415 C410 1.379 . S
C415 N413 1.356 . S
N416 C408 1.356 . S
N416 H422 0.984 . S
N416 H423 0.984 . S
N417 C410 1.356 . S
N417 H420 0.984 . S
N417 H421 0.985 . S
H418 N413 0.984 . S
H419 N413 0.985 . S
H420 N417 0.984 . S
H421 N417 0.985 . S
H422 N416 0.984 . S
H423 N416 0.984 . S
H424 N412 0.984 1_545 S
H425 N412 0.985 . S
C426 C427 1.363 . S
C426 C432 1.379 . S
C426 N434 1.356 . S
C427 C426 1.363 . S
C427 C433 1.363 . S
C428 C429 1.363 . S
C428 C433 1.379 . S
C428 N435 1.356 . S
C429 C428 1.363 . S
C429 C432 1.363 . S
N430 C432 1.356 . S
N430 H442 0.984 . S
N430 H443 0.985 . S
N431 C433 1.356 . S
N431 H436 0.984 . S
N431 H437 0.985 . S
C432 C426 1.379 . S
C432 C429 1.363 . S
C432 N430 1.356 . S
C433 C427 1.363 . S
C433 C428 1.379 . S
C433 N431 1.356 . S
N434 C426 1.356 . S
N434 H440 0.984 . S
N434 H441 0.984 . S
N435 C428 1.356 . S
N435 H438 0.984 . S
N435 H439 0.985 . S
H436 N431 0.984 . S
H437 N431 0.985 . S
H438 N435 0.984 . S
H439 N435 0.985 . S
H440 N434 0.984 . S
H441 N434 0.984 . S
H442 N430 0.984 . S
H443 N430 0.985 . S
C444 C445 1.363 . S
C444 C450 1.379 . S
C444 N452 1.356 . S
C445 C444 1.363 . S
C445 C451 1.363 . S
C446 C447 1.363 . S
C446 C451 1.379 . S
C446 N453 1.356 1_545 S
C447 C446 1.363 . S
C447 C450 1.363 . S
N448 C450 1.356 . S
N448 H460 0.984 . S
N448 H461 0.985 . S
N449 C451 1.356 . S
N449 H454 0.984 . S
N449 H455 0.985 . S
C450 C444 1.379 . S
C450 C447 1.363 . S
C450 N448 1.356 . S
C451 C445 1.363 . S
C451 C446 1.379 . S
C451 N449 1.356 . S
N452 C444 1.356 . S
N452 H458 0.984 . S
N452 H459 0.984 . S
N453 C446 1.356 1_565 S
N453 H456 0.984 . S
N453 H457 0.985 . S
H454 N449 0.984 . S
H455 N449 0.985 . S
H456 N453 0.984 . S
H457 N453 0.985 . S
H458 N452 0.984 . S
H459 N452 0.984 . S
H460 N448 0.984 . S
H461 N448 0.985 . S
C462 C463 1.363 . S
C462 C468 1.379 . S
C462 N470 1.356 . S
C463 C462 1.363 . S
C463 C469 1.363 . S
C464 C465 1.363 . S
C464 C469 1.379 . S
C464 N471 1.356 . S
C465 C464 1.363 . S
C465 C468 1.363 . S
N466 C468 1.356 . S
N466 H478 0.984 . S
N466 H479 0.985 . S
N467 C469 1.356 . S
N467 H472 0.984 . S
N467 H473 0.985 . S
C468 C462 1.379 . S
C468 C465 1.363 . S
C468 N466 1.356 . S
C469 C463 1.363 . S
C469 C464 1.379 . S
C469 N467 1.356 . S
N470 C462 1.356 . S
N470 H476 0.984 . S
N470 H477 0.984 . S
N471 C464 1.356 . S
N471 H474 0.984 . S
N471 H475 0.985 . S
H472 N467 0.984 . S
H473 N467 0.985 . S
H474 N471 0.984 . S
H475 N471 0.985 . S
H476 N470 0.984 . S
H477 N470 0.984 . S
H478 N466 0.984 . S
H479 N466 0.985 . S
C480 C481 1.363 . S
C480 C486 1.379 . S
C480 N488 1.356 . S
C481 C480 1.363 . S
C481 C487 1.363 . S
C482 C483 1.363 . S
C482 C487 1.379 . S
C482 N489 1.356 . S
C483 C482 1.363 . S
C483 C486 1.363 . S
N484 C486 1.356 . S
N484 H496 0.984 . S
N484 H497 0.985 . S
N485 C487 1.356 . S
N485 H490 0.984 . S
N485 H491 0.985 . S
C486 C480 1.379 . S
C486 C483 1.363 . S
C486 N484 1.356 . S
C487 C481 1.363 . S
C487 C482 1.379 . S
C487 N485 1.356 . S
N488 C480 1.356 . S
N488 H494 0.984 . S
N488 H495 0.984 . S
N489 C482 1.356 . S
N489 H492 0.984 . S
N489 H493 0.985 . S
H490 N485 0.984 . S
H491 N485 0.985 . S
H492 N489 0.984 . S
H493 N489 0.985 . S
H494 N488 0.984 . S
H495 N488 0.984 . S
H496 N484 0.984 . S
H497 N484 0.985 . S
C498 C499 1.363 . S
C498 C504 1.379 1_655 S
C498 N506 1.356 . S
C499 C498 1.363 . S
C499 C505 1.363 1_556 S
C500 C501 1.363 1_554 S
C500 C505 1.379 1_455 S
C500 N507 1.356 . S
C501 C500 1.363 1_556 S
C501 C504 1.363 . S
N502 C504 1.356 . S
N502 H514 0.984 . S
N502 H515 0.985 . S
N503 C505 1.356 . S
N503 H508 0.984 . S
N503 H509 0.985 . S
C504 C498 1.379 1_455 S
C504 C501 1.363 . S
C504 N502 1.356 . S
C505 C499 1.363 1_554 S
C505 C500 1.379 1_655 S
C505 N503 1.356 . S
N506 C498 1.356 . S
N506 H512 0.984 . S
N506 H513 0.984 . S
N507 C500 1.356 . S
N507 H510 0.984 . S
N507 H511 0.985 . S
H508 N503 0.984 . S
H509 N503 0.985 . S
H510 N507 0.984 . S
H511 N507 0.985 . S
H512 N506 0.984 . S
H513 N506 0.984 . S
H514 N502 0.984 . S
H515 N502 0.985 . S
C516 C517 1.363 . S
C516 C522 1.379 . S
C516 N524 1.356 . S
C517 C516 1.363 . S
C517 C523 1.363 . S
C518 C519 1.363 . S
C518 C523 1.379 . S
C518 N525 1.356 . S
C519 C518 1.363 . S
C519 C522 1.363 . S
N520 C522 1.356 . S
N520 H532 0.984 . S
N520 H533 0.985 . S
N521 C523 1.356 . S
N521 H526 0.984 . S
N521 H527 0.985 . S
C522 C516 1.379 . S
C522 C519 1.363 . S
C522 N520 1.356 . S
C523 C517 1.363 . S
C523 C518 1.379 . S
C523 N521 1.356 . S
N524 C516 1.356 . S
N524 H530 0.984 . S
N524 H531 0.984 . S
N525 C518 1.356 . S
N525 H528 0.984 . S
N525 H529 0.985 . S
H526 N521 0.984 . S
H527 N521 0.985 . S
H528 N525 0.984 . S
H529 N525 0.985 . S
H530 N524 0.984 . S
H531 N524 0.984 . S
H532 N520 0.984 . S
H533 N520 0.985 . S
C534 C535 1.363 . S
C534 C540 1.379 . S
C534 N542 1.356 . S
C535 C534 1.363 . S
C535 C541 1.363 . S
C536 C537 1.363 . S
C536 C541 1.379 . S
C536 N543 1.356 . S
C537 C536 1.363 . S
C537 C540 1.363 . S
N538 C540 1.356 . S
N538 H550 0.984 . S
N538 H551 0.985 . S
N539 C541 1.356 . S
N539 H544 0.984 . S
N539 H545 0.985 . S
C540 C534 1.379 . S
C540 C537 1.363 . S
C540 N538 1.356 . S
C541 C535 1.363 . S
C541 C536 1.379 . S
C541 N539 1.356 . S
N542 C534 1.356 . S
N542 H548 0.984 . S
N542 H549 0.984 . S
N543 C536 1.356 . S
N543 H546 0.984 . S
N543 H547 0.985 . S
H544 N539 0.984 . S
H545 N539 0.985 . S
H546 N543 0.984 . S
H547 N543 0.985 . S
H548 N542 0.984 . S
H549 N542 0.984 . S
H550 N538 0.984 . S
H551 N538 0.985 . S
C552 C553 1.363 . S
C552 C558 1.379 . S
C552 N560 1.356 . S
C553 C552 1.363 . S
C553 C559 1.363 . S
C554 C555 1.363 . S
C554 C559 1.379 . S
C554 N561 1.356 . S
C555 C554 1.363 . S
C555 C558 1.363 . S
N556 C558 1.356 . S
N556 H568 0.984 . S
N556 H569 0.985 . S
N557 C559 1.356 . S
N557 H562 0.984 . S
N557 H563 0.985 . S
C558 C552 1.379 . S
C558 C555 1.363 . S
C558 N556 1.356 . S
C559 C553 1.363 . S
C559 C554 1.379 . S
C559 N557 1.356 . S
N560 C552 1.356 . S
N560 H566 0.984 . S
N560 H567 0.984 . S
N561 C554 1.356 . S
N561 H564 0.984 . S
N561 H565 0.985 . S
H562 N557 0.984 . S
H563 N557 0.985 . S
H564 N561 0.984 . S
H565 N561 0.985 . S
H566 N560 0.984 . S
H567 N560 0.984 . S
H568 N556 0.984 . S
H569 N556 0.985 . S
C570 C571 1.363 . S
C570 C576 1.379 . S
C570 N578 1.356 . S
C571 C570 1.363 . S
C571 C577 1.363 . S
C572 C573 1.363 . S
C572 C577 1.379 . S
C572 N579 1.356 . S
C573 C572 1.363 . S
C573 C576 1.363 . S
N574 C576 1.356 . S
N574 H586 0.984 . S
N574 H587 0.985 . S
N575 C577 1.356 . S
N575 H580 0.984 . S
N575 H581 0.985 . S
C576 C570 1.379 . S
C576 C573 1.363 . S
C576 N574 1.356 . S
C577 C571 1.363 . S
C577 C572 1.379 . S
C577 N575 1.356 . S
N578 C570 1.356 . S
N578 H584 0.984 . S
N578 H585 0.984 . S
N579 C572 1.356 . S
N579 H582 0.984 . S
N579 H583 0.985 . S
H580 N575 0.984 . S
H581 N575 0.985 . S
H582 N579 0.984 . S
H583 N579 0.985 . S
H584 N578 0.984 . S
H585 N578 0.984 . S
H586 N574 0.984 . S
H587 N574 0.985 . S
C588 C589 1.363 1_556 S
C588 C594 1.379 . S
C588 N596 1.356 . S
C589 C588 1.363 1_554 S
C589 C595 1.363 . S
C590 C591 1.363 . S
C590 C595 1.379 . S
C590 N597 1.356 1_565 S
C591 C590 1.363 . S
C591 C594 1.363 1_554 S
N592 C594 1.356 . S
N592 H604 0.984 . S
N592 H605 0.985 . S
N593 C595 1.356 . S
N593 H598 0.984 . S
N593 H599 0.985 . S
C594 C588 1.379 . S
C594 C591 1.363 1_556 S
C594 N592 1.356 . S
C595 C589 1.363 . S
C595 C590 1.379 . S
C595 N593 1.356 . S
N596 C588 1.356 . S
N596 H602 0.984 . S
N596 H603 0.984 . S
N597 C590 1.356 1_545 S
N597 H600 0.984 . S
N597 H601 0.985 . S
H598 N593 0.984 . S
H599 N593 0.985 . S
H600 N597 0.984 . S
H601 N597 0.985 . S
H602 N596 0.984 . S
H603 N596 0.984 . S
H604 N592 0.984 . S
H605 N592 0.985 . S
C606 C607 1.363 . S
C606 C612 1.379 . S
C606 N614 1.356 . S
C607 C606 1.363 . S
C607 C613 1.363 . S
C608 C609 1.363 . S
C608 C613 1.379 . S
C608 N615 1.356 . S
C609 C608 1.363 . S
C609 C612 1.363 . S
N610 C612 1.356 . S
N610 H622 0.984 . S
N610 H623 0.985 . S
N611 C613 1.356 . S
N611 H616 0.984 . S
N611 H617 0.985 . S
C612 C606 1.379 . S
C612 C609 1.363 . S
C612 N610 1.356 . S
C613 C607 1.363 . S
C613 C608 1.379 . S
C613 N611 1.356 . S
N614 C606 1.356 . S
N614 H620 0.984 . S
N614 H621 0.984 . S
N615 C608 1.356 . S
N615 H618 0.984 . S
N615 H619 0.985 . S
H616 N611 0.984 . S
H617 N611 0.985 . S
H618 N615 0.984 . S
H619 N615 0.985 . S
H620 N614 0.984 . S
H621 N614 0.984 . S
H622 N610 0.984 . S
H623 N610 0.985 . S
C624 C625 1.363 . S
C624 C630 1.379 . S
C624 N632 1.356 . S
C625 C624 1.363 . S
C625 C631 1.363 . S
C626 C627 1.363 . S
C626 C631 1.379 . S
C626 N633 1.356 . S
C627 C626 1.363 . S
C627 C630 1.363 . S
N628 C630 1.356 . S
N628 H640 0.984 . S
N628 H641 0.985 . S
N629 C631 1.356 . S
N629 H634 0.984 . S
N629 H635 0.985 . S
C630 C624 1.379 . S
C630 C627 1.363 . S
C630 N628 1.356 . S
C631 C625 1.363 . S
C631 C626 1.379 . S
C631 N629 1.356 . S
N632 C624 1.356 . S
N632 H638 0.984 . S
N632 H639 0.984 . S
N633 C626 1.356 . S
N633 H636 0.984 . S
N633 H637 0.985 . S
H634 N629 0.984 . S
H635 N629 0.985 . S
H636 N633 0.984 . S
H637 N633 0.985 . S
H638 N632 0.984 . S
H639 N632 0.984 . S
H640 N628 0.984 . S
H641 N628 0.985 . S
C642 C643 1.363 . S
C642 C648 1.379 1_455 S
C642 N650 1.356 . S
C643 C642 1.363 . S
C643 C649 1.363 . S
C644 C645 1.363 . S
C644 C649 1.379 1_655 S
C644 N651 1.356 . S
C645 C644 1.363 . S
C645 C648 1.363 . S
N646 C648 1.356 . S
N646 H658 0.984 . S
N646 H659 0.985 . S
N647 C649 1.356 . S
N647 H652 0.984 . S
N647 H653 0.985 . S
C648 C642 1.379 1_655 S
C648 C645 1.363 . S
C648 N646 1.356 . S
C649 C643 1.363 . S
C649 C644 1.379 1_455 S
C649 N647 1.356 . S
N650 C642 1.356 . S
N650 H656 0.984 . S
N650 H657 0.984 . S
N651 C644 1.356 . S
N651 H654 0.984 . S
N651 H655 0.985 . S
H652 N647 0.984 . S
H653 N647 0.985 . S
H654 N651 0.984 . S
H655 N651 0.985 . S
H656 N650 0.984 . S
H657 N650 0.984 . S
H658 N646 0.984 . S
H659 N646 0.985 . S
C660 C661 1.363 . S
C660 C666 1.379 . S
C660 N668 1.356 . S
C661 C660 1.363 . S
C661 C667 1.363 . S
C662 C663 1.363 . S
C662 C667 1.379 . S
C662 N669 1.356 . S
C663 C662 1.363 . S
C663 C666 1.363 . S
N664 C666 1.356 . S
N664 H676 0.984 . S
N664 H677 0.985 . S
N665 C667 1.356 . S
N665 H670 0.984 . S
N665 H671 0.985 . S
C666 C660 1.379 . S
C666 C663 1.363 . S
C666 N664 1.356 . S
C667 C661 1.363 . S
C667 C662 1.379 . S
C667 N665 1.356 . S
N668 C660 1.356 . S
N668 H674 0.984 . S
N668 H675 0.984 . S
N669 C662 1.356 . S
N669 H672 0.984 . S
N669 H673 0.985 . S
H670 N665 0.984 . S
H671 N665 0.985 . S
H672 N669 0.984 . S
H673 N669 0.985 . S
H674 N668 0.984 . S
H675 N668 0.984 . S
H676 N664 0.984 . S
H677 N664 0.985 . S
C678 C679 1.363 . S
C678 C684 1.379 . S
C678 N686 1.356 . S
C679 C678 1.363 . S
C679 C685 1.363 . S
C680 C681 1.363 . S
C680 C685 1.379 . S
C680 N687 1.356 . S
C681 C680 1.363 . S
C681 C684 1.363 . S
N682 C684 1.356 . S
N682 H694 0.984 . S
N682 H695 0.985 . S
N683 C685 1.356 . S
N683 H688 0.984 . S
N683 H689 0.985 . S
C684 C678 1.379 . S
C684 C681 1.363 . S
C684 N682 1.356 . S
C685 C679 1.363 . S
C685 C680 1.379 . S
C685 N683 1.356 . S
N686 C678 1.356 . S
N686 H692 0.984 . S
N686 H693 0.984 . S
N687 C680 1.356 . S
N687 H690 0.984 . S
N687 H691 0.985 . S
H688 N683 0.984 . S
H689 N683 0.985 . S
H690 N687 0.984 . S
H691 N687 0.985 . S
H692 N686 0.984 . S
H693 N686 0.984 . S
H694 N682 0.984 . S
H695 N682 0.985 . S
C696 C697 1.363 . S
C696 C702 1.379 . S
C696 N704 1.356 . S
C697 C696 1.363 . S
C697 C703 1.363 . S
C698 C699 1.363 . S
C698 C703 1.379 . S
C698 N705 1.356 . S
C699 C698 1.363 . S
C699 C702 1.363 . S
N700 C702 1.356 . S
N700 H712 0.984 . S
N700 H713 0.985 . S
N701 C703 1.356 . S
N701 H706 0.984 . S
N701 H707 0.985 . S
C702 C696 1.379 . S
C702 C699 1.363 . S
C702 N700 1.356 . S
C703 C697 1.363 . S
C703 C698 1.379 . S
C703 N701 1.356 . S
N704 C696 1.356 . S
N704 H710 0.984 . S
N704 H711 0.984 . S
N705 C698 1.356 . S
N705 H708 0.984 . S
N705 H709 0.985 . S
H706 N701 0.984 . S
H707 N701 0.985 . S
H708 N705 0.984 . S
H709 N705 0.985 . S
H710 N704 0.984 . S
H711 N704 0.984 . S
H712 N700 0.984 . S
H713 N700 0.985 . S
C714 C715 1.363 . S
C714 C720 1.379 . S
C714 N722 1.356 . S
C715 C714 1.363 . S
C715 C721 1.363 . S
C716 C717 1.363 . S
C716 C721 1.379 . S
C716 N723 1.356 . S
C717 C716 1.363 . S
C717 C720 1.363 . S
N718 C720 1.356 . S
N718 H730 0.984 . S
N718 H731 0.985 . S
N719 C721 1.356 . S
N719 H724 0.984 . S
N719 H725 0.985 . S
C720 C714 1.379 . S
C720 C717 1.363 . S
C720 N718 1.356 . S
C721 C715 1.363 . S
C721 C716 1.379 . S
C721 N719 1.356 . S
N722 C714 1.356 . S
N722 H728 0.984 . S
N722 H729 0.984 . S
N723 C716 1.356 . S
N723 H726 0.984 . S
N723 H727 0.985 . S
H724 N719 0.984 . S
H725 N719 0.985 . S
H726 N723 0.984 . S
H727 N723 0.985 . S
H728 N722 0.984 . S
H729 N722 0.984 . S
H730 N718 0.984 . S
H731 N718 0.985 . S
C732 C733 1.363 . S
C732 C738 1.379 . S
C732 N740 1.356 . S
C733 C732 1.363 . S
C733 C739 1.363 . S
C734 C735 1.363 . S
C734 C739 1.379 . S
C734 N741 1.356 . S
C735 C734 1.363 . S
C735 C738 1.363 . S
N736 C738 1.356 . S
N736 H748 0.984 . S
N736 H749 0.985 . S
N737 C739 1.356 . S
N737 H742 0.984 . S
N737 H743 0.985 . S
C738 C732 1.379 . S
C738 C735 1.363 . S
C738 N736 1.356 . S
C739 C733 1.363 . S
C739 C734 1.379 . S
C739 N737 1.356 . S
N740 C732 1.356 . S
N740 H746 0.984 . S
N740 H747 0.984 . S
N741 C734 1.356 . S
N741 H744 0.984 . S
N741 H745 0.985 . S
H742 N737 0.984 . S
H743 N737 0.985 . S
H744 N741 0.984 . S
H745 N741 0.985 . S
H746 N740 0.984 . S
H747 N740 0.984 . S
H748 N736 0.984 . S
H749 N736 0.985 . S
C750 C751 1.363 . S
C750 C756 1.379 . S
C750 N758 1.356 . S
C751 C750 1.363 . S
C751 C757 1.363 . S
C752 C753 1.363 . S
C752 C757 1.379 . S
C752 N759 1.356 . S
C753 C752 1.363 . S
C753 C756 1.363 . S
N754 C756 1.356 . S
N754 H766 0.984 . S
N754 H767 0.985 . S
N755 C757 1.356 . S
N755 H760 0.984 . S
N755 H761 0.985 . S
C756 C750 1.379 . S
C756 C753 1.363 . S
C756 N754 1.356 . S
C757 C751 1.363 . S
C757 C752 1.379 . S
C757 N755 1.356 . S
N758 C750 1.356 . S
N758 H764 0.984 . S
N758 H765 0.984 . S
N759 C752 1.356 . S
N759 H762 0.984 . S
N759 H763 0.985 . S
H760 N755 0.984 . S
H761 N755 0.985 . S
H762 N759 0.984 . S
H763 N759 0.985 . S
H764 N758 0.984 . S
H765 N758 0.984 . S
H766 N754 0.984 . S
H767 N754 0.985 . S
C768 C769 1.363 . S
C768 C774 1.379 . S
C768 N776 1.356 . S
C769 C768 1.363 . S
C769 C775 1.363 . S
C770 C771 1.363 . S
C770 C775 1.379 . S
C770 N777 1.356 . S
C771 C770 1.363 . S
C771 C774 1.363 . S
N772 C774 1.356 . S
N772 H784 0.984 . S
N772 H785 0.985 . S
N773 C775 1.356 . S
N773 H778 0.984 . S
N773 H779 0.985 . S
C774 C768 1.379 . S
C774 C771 1.363 . S
C774 N772 1.356 . S
C775 C769 1.363 . S
C775 C770 1.379 . S
C775 N773 1.356 . S
N776 C768 1.356 . S
N776 H782 0.984 . S
N776 H783 0.984 . S
N777 C770 1.356 . S
N777 H780 0.984 . S
N777 H781 0.985 . S
H778 N773 0.984 . S
H779 N773 0.985 . S
H780 N777 0.984 . S
H781 N777 0.985 . S
H782 N776 0.984 . S
H783 N776 0.984 . S
H784 N772 0.984 . S
H785 N772 0.985 . S
C786 C787 1.363 . S
C786 C792 1.379 . S
C786 N794 1.356 . S
C787 C786 1.363 . S
C787 C793 1.363 . S
C788 C789 1.363 . S
C788 C793 1.379 . S
C788 N795 1.356 . S
C789 C788 1.363 . S
C789 C792 1.363 . S
N790 C792 1.356 . S
N790 H802 0.984 . S
N790 H803 0.985 . S
N791 C793 1.356 . S
N791 H796 0.984 . S
N791 H797 0.985 . S
C792 C786 1.379 . S
C792 C789 1.363 . S
C792 N790 1.356 . S
C793 C787 1.363 . S
C793 C788 1.379 . S
C793 N791 1.356 . S
N794 C786 1.356 . S
N794 H800 0.984 . S
N794 H801 0.984 . S
N795 C788 1.356 . S
N795 H798 0.984 . S
N795 H799 0.985 . S
H796 N791 0.984 . S
H797 N791 0.985 . S
H798 N795 0.984 . S
H799 N795 0.985 . S
H800 N794 0.984 . S
H801 N794 0.984 . S
H802 N790 0.984 . S
H803 N790 0.985 . S
C804 C805 1.363 . S
C804 C810 1.379 . S
C804 N812 1.356 . S
C805 C804 1.363 . S
C805 C811 1.363 . S
C806 C807 1.363 . S
C806 C811 1.379 . S
C806 N813 1.356 . S
C807 C806 1.363 . S
C807 C810 1.363 . S
N808 C810 1.356 . S
N808 H820 0.984 . S
N808 H821 0.985 . S
N809 C811 1.356 . S
N809 H814 0.984 . S
N809 H815 0.985 . S
C810 C804 1.379 . S
C810 C807 1.363 . S
C810 N808 1.356 . S
C811 C805 1.363 . S
C811 C806 1.379 . S
C811 N809 1.356 . S
N812 C804 1.356 . S
N812 H818 0.984 . S
N812 H819 0.984 . S
N813 C806 1.356 . S
N813 H816 0.984 . S
N813 H817 0.985 . S
H814 N809 0.984 . S
H815 N809 0.985 . S
H816 N813 0.984 . S
H817 N813 0.985 . S
H818 N812 0.984 . S
H819 N812 0.984 . S
H820 N808 0.984 . S
H821 N808 0.985 . S
C822 C823 1.363 1_556 S
C822 C828 1.379 . S
C822 N830 1.356 . S
C823 C822 1.363 1_554 S
C823 C829 1.363 . S
C824 C825 1.363 . S
C824 C829 1.379 . S
C824 N831 1.356 . S
C825 C824 1.363 . S
C825 C828 1.363 1_554 S
N826 C828 1.356 . S
N826 H838 0.984 . S
N826 H839 0.985 . S
N827 C829 1.356 . S
N827 H832 0.984 . S
N827 H833 0.985 . S
C828 C822 1.379 . S
C828 C825 1.363 1_556 S
C828 N826 1.356 . S
C829 C823 1.363 . S
C829 C824 1.379 . S
C829 N827 1.356 . S
N830 C822 1.356 . S
N830 H836 0.984 . S
N830 H837 0.984 . S
N831 C824 1.356 . S
N831 H834 0.984 . S
N831 H835 0.985 . S
H832 N827 0.984 . S
H833 N827 0.985 . S
H834 N831 0.984 . S
H835 N831 0.985 . S
H836 N830 0.984 . S
H837 N830 0.984 . S
H838 N826 0.984 . S
H839 N826 0.985 . S
C409 C7 1.897 . S
C411 C109 1.637 . S
C427 C37 1.985 . S
C429 C149 1.638 . S
C445 C54 2.080 . S
C447 C170 1.828 1_545 S
C465 C229 1.666 . S
C463 C87 1.682 . S
C483 C269 1.588 . S
C481 C30 1.822 . S
C499 C51 1.713 . S
C501 C290 1.597 . S
C517 C84 2.183 . S
C519 C330 1.921 . S
C535 C10 1.927 . S
C537 C389 1.598 . S
C553 C59 1.842 . S
C555 C370 1.639 . S
C573 C250 1.598 . S
C571 C74 1.862 . S
C591 C309 1.845 1_564 S
C589 C18 2.192 . S
C607 C32 1.710 . S
C609 C349 1.535 . S
C627 C130 1.630 . S
C625 C73 1.835 . S
C643 C15 1.766 . S
C645 C189 1.605 . S
C663 C210 2.043 . S
C661 C43 2.169 . S
C681 C90 1.608 . S
C679 C62 1.873 . S
C699 C343 1.716 . S
C697 C21 1.847 . S
C717 C383 1.515 . S
C715 C29 1.560 . S
C733 C52 1.495 . S
C735 C263 1.428 . S
C753 C303 1.710 . S
C751 C81 1.845 . S
C771 C183 1.682 . S
C769 C40 1.776 . S
C787 C65 1.785 . S
C789 C223 1.675 . S
C807 C103 1.460 . S
C805 C76 1.531 . S
C825 C143 1.514 1_554 S
C823 C8 1.585 . S
