# Generated by pormake.
# Topology gar, (4,6)-cn, num edge types: 1
# Building blocks:
#     Node 0, Type 0, BuildingBlock: CEKHIL_clean_sbu_0, # of connection points: 4
#     Node 1, Type 0, BuildingBlock: CEKHIL_clean_sbu_0, # of connection points: 4
#     Node 2, Type 0, BuildingBlock: CEKHIL_clean_sbu_0, # of connection points: 4
#     Node 3, Type 0, BuildingBlock: CEKHIL_clean_sbu_0, # of connection points: 4
#     Node 4, Type 0, BuildingBlock: CEKHIL_clean_sbu_0, # of connection points: 4
#     Node 5, Type 0, BuildingBlock: CEKHIL_clean_sbu_0, # of connection points: 4
#     Node 6, Type 0, BuildingBlock: CEKHIL_clean_sbu_0, # of connection points: 4
#     Node 7, Type 0, BuildingBlock: CEKHIL_clean_sbu_0, # of connection points: 4
#     Node 8, Type 0, BuildingBlock: CEKHIL_clean_sbu_0, # of connection points: 4
#     Node 9, Type 0, BuildingBlock: CEKHIL_clean_sbu_0, # of connection points: 4
#     Node 10, Type 0, BuildingBlock: CEKHIL_clean_sbu_0, # of connection points: 4
#     Node 11, Type 0, BuildingBlock: CEKHIL_clean_sbu_0, # of connection points: 4
#     Node 12, Type 0, BuildingBlock: CEKHIL_clean_sbu_0, # of connection points: 4
#     Node 13, Type 0, BuildingBlock: CEKHIL_clean_sbu_0, # of connection points: 4
#     Node 14, Type 0, BuildingBlock: CEKHIL_clean_sbu_0, # of connection points: 4
#     Node 15, Type 0, BuildingBlock: CEKHIL_clean_sbu_0, # of connection points: 4
#     Node 16, Type 0, BuildingBlock: CEKHIL_clean_sbu_0, # of connection points: 4
#     Node 17, Type 0, BuildingBlock: CEKHIL_clean_sbu_0, # of connection points: 4
#     Node 18, Type 0, BuildingBlock: CEKHIL_clean_sbu_0, # of connection points: 4
#     Node 19, Type 0, BuildingBlock: CEKHIL_clean_sbu_0, # of connection points: 4
#     Node 20, Type 0, BuildingBlock: CEKHIL_clean_sbu_0, # of connection points: 4
#     Node 21, Type 0, BuildingBlock: CEKHIL_clean_sbu_0, # of connection points: 4
#     Node 22, Type 0, BuildingBlock: CEKHIL_clean_sbu_0, # of connection points: 4
#     Node 23, Type 0, BuildingBlock: CEKHIL_clean_sbu_0, # of connection points: 4
#     Node 24, Type 1, BuildingBlock: BETDEL_clean_sbu_0, # of connection points: 6
#     Node 25, Type 1, BuildingBlock: BETDEL_clean_sbu_0, # of connection points: 6
#     Node 26, Type 1, BuildingBlock: BETDEL_clean_sbu_0, # of connection points: 6
#     Node 27, Type 1, BuildingBlock: BETDEL_clean_sbu_0, # of connection points: 6
#     Node 28, Type 1, BuildingBlock: BETDEL_clean_sbu_0, # of connection points: 6
#     Node 29, Type 1, BuildingBlock: BETDEL_clean_sbu_0, # of connection points: 6
#     Node 30, Type 1, BuildingBlock: BETDEL_clean_sbu_0, # of connection points: 6
#     Node 31, Type 1, BuildingBlock: BETDEL_clean_sbu_0, # of connection points: 6
#     Node 32, Type 1, BuildingBlock: BETDEL_clean_sbu_0, # of connection points: 6
#     Node 33, Type 1, BuildingBlock: BETDEL_clean_sbu_0, # of connection points: 6
#     Node 34, Type 1, BuildingBlock: BETDEL_clean_sbu_0, # of connection points: 6
#     Node 35, Type 1, BuildingBlock: BETDEL_clean_sbu_0, # of connection points: 6
#     Node 36, Type 1, BuildingBlock: BETDEL_clean_sbu_0, # of connection points: 6
#     Node 37, Type 1, BuildingBlock: BETDEL_clean_sbu_0, # of connection points: 6
#     Node 38, Type 1, BuildingBlock: BETDEL_clean_sbu_0, # of connection points: 6
#     Node 39, Type 1, BuildingBlock: BETDEL_clean_sbu_0, # of connection points: 6
#     Edge 40, Type (0, 1), BuildingBlock: EZIPEK_clean_linker_0, # of connection points: 2
#     Edge 41, Type (0, 1), BuildingBlock: EZIPEK_clean_linker_0, # of connection points: 2
#     Edge 42, Type (0, 1), BuildingBlock: EZIPEK_clean_linker_0, # of connection points: 2
#     Edge 43, Type (0, 1), BuildingBlock: EZIPEK_clean_linker_0, # of connection points: 2
#     Edge 44, Type (0, 1), BuildingBlock: EZIPEK_clean_linker_0, # of connection points: 2
#     Edge 45, Type (0, 1), BuildingBlock: EZIPEK_clean_linker_0, # of connection points: 2
#     Edge 46, Type (0, 1), BuildingBlock: EZIPEK_clean_linker_0, # of connection points: 2
#     Edge 47, Type (0, 1), BuildingBlock: EZIPEK_clean_linker_0, # of connection points: 2
#     Edge 48, Type (0, 1), BuildingBlock: EZIPEK_clean_linker_0, # of connection points: 2
#     Edge 49, Type (0, 1), BuildingBlock: EZIPEK_clean_linker_0, # of connection points: 2
#     Edge 50, Type (0, 1), BuildingBlock: EZIPEK_clean_linker_0, # of connection points: 2
#     Edge 51, Type (0, 1), BuildingBlock: EZIPEK_clean_linker_0, # of connection points: 2
#     Edge 52, Type (0, 1), BuildingBlock: EZIPEK_clean_linker_0, # of connection points: 2
#     Edge 53, Type (0, 1), BuildingBlock: EZIPEK_clean_linker_0, # of connection points: 2
#     Edge 54, Type (0, 1), BuildingBlock: EZIPEK_clean_linker_0, # of connection points: 2
#     Edge 55, Type (0, 1), BuildingBlock: EZIPEK_clean_linker_0, # of connection points: 2
#     Edge 56, Type (0, 1), BuildingBlock: EZIPEK_clean_linker_0, # of connection points: 2
#     Edge 57, Type (0, 1), BuildingBlock: EZIPEK_clean_linker_0, # of connection points: 2
#     Edge 58, Type (0, 1), BuildingBlock: EZIPEK_clean_linker_0, # of connection points: 2
#     Edge 59, Type (0, 1), BuildingBlock: EZIPEK_clean_linker_0, # of connection points: 2
#     Edge 60, Type (0, 1), BuildingBlock: EZIPEK_clean_linker_0, # of connection points: 2
#     Edge 61, Type (0, 1), BuildingBlock: EZIPEK_clean_linker_0, # of connection points: 2
#     Edge 62, Type (0, 1), BuildingBlock: EZIPEK_clean_linker_0, # of connection points: 2
#     Edge 63, Type (0, 1), BuildingBlock: EZIPEK_clean_linker_0, # of connection points: 2
#     Edge 64, Type (0, 1), BuildingBlock: EZIPEK_clean_linker_0, # of connection points: 2
#     Edge 65, Type (0, 1), BuildingBlock: EZIPEK_clean_linker_0, # of connection points: 2
#     Edge 66, Type (0, 1), BuildingBlock: EZIPEK_clean_linker_0, # of connection points: 2
#     Edge 67, Type (0, 1), BuildingBlock: EZIPEK_clean_linker_0, # of connection points: 2
#     Edge 68, Type (0, 1), BuildingBlock: EZIPEK_clean_linker_0, # of connection points: 2
#     Edge 69, Type (0, 1), BuildingBlock: EZIPEK_clean_linker_0, # of connection points: 2
#     Edge 70, Type (0, 1), BuildingBlock: EZIPEK_clean_linker_0, # of connection points: 2
#     Edge 71, Type (0, 1), BuildingBlock: EZIPEK_clean_linker_0, # of connection points: 2
#     Edge 72, Type (0, 1), BuildingBlock: EZIPEK_clean_linker_0, # of connection points: 2
#     Edge 73, Type (0, 1), BuildingBlock: EZIPEK_clean_linker_0, # of connection points: 2
#     Edge 74, Type (0, 1), BuildingBlock: EZIPEK_clean_linker_0, # of connection points: 2
#     Edge 75, Type (0, 1), BuildingBlock: EZIPEK_clean_linker_0, # of connection points: 2
#     Edge 76, Type (0, 1), BuildingBlock: EZIPEK_clean_linker_0, # of connection points: 2
#     Edge 77, Type (0, 1), BuildingBlock: EZIPEK_clean_linker_0, # of connection points: 2
#     Edge 78, Type (0, 1), BuildingBlock: EZIPEK_clean_linker_0, # of connection points: 2
#     Edge 79, Type (0, 1), BuildingBlock: EZIPEK_clean_linker_0, # of connection points: 2
#     Edge 80, Type (0, 1), BuildingBlock: EZIPEK_clean_linker_0, # of connection points: 2
#     Edge 81, Type (0, 1), BuildingBlock: EZIPEK_clean_linker_0, # of connection points: 2
#     Edge 82, Type (0, 1), BuildingBlock: EZIPEK_clean_linker_0, # of connection points: 2
#     Edge 83, Type (0, 1), BuildingBlock: EZIPEK_clean_linker_0, # of connection points: 2
#     Edge 84, Type (0, 1), BuildingBlock: EZIPEK_clean_linker_0, # of connection points: 2
#     Edge 85, Type (0, 1), BuildingBlock: EZIPEK_clean_linker_0, # of connection points: 2
#     Edge 86, Type (0, 1), BuildingBlock: EZIPEK_clean_linker_0, # of connection points: 2
#     Edge 87, Type (0, 1), BuildingBlock: EZIPEK_clean_linker_0, # of connection points: 2
#     Edge 88, Type (0, 1), BuildingBlock: EZIPEK_clean_linker_0, # of connection points: 2
#     Edge 89, Type (0, 1), BuildingBlock: EZIPEK_clean_linker_0, # of connection points: 2
#     Edge 90, Type (0, 1), BuildingBlock: EZIPEK_clean_linker_0, # of connection points: 2
#     Edge 91, Type (0, 1), BuildingBlock: EZIPEK_clean_linker_0, # of connection points: 2
#     Edge 92, Type (0, 1), BuildingBlock: EZIPEK_clean_linker_0, # of connection points: 2
#     Edge 93, Type (0, 1), BuildingBlock: EZIPEK_clean_linker_0, # of connection points: 2
#     Edge 94, Type (0, 1), BuildingBlock: EZIPEK_clean_linker_0, # of connection points: 2
#     Edge 95, Type (0, 1), BuildingBlock: EZIPEK_clean_linker_0, # of connection points: 2
#     Edge 96, Type (0, 1), BuildingBlock: EZIPEK_clean_linker_0, # of connection points: 2
#     Edge 97, Type (0, 1), BuildingBlock: EZIPEK_clean_linker_0, # of connection points: 2
#     Edge 98, Type (0, 1), BuildingBlock: EZIPEK_clean_linker_0, # of connection points: 2
#     Edge 99, Type (0, 1), BuildingBlock: EZIPEK_clean_linker_0, # of connection points: 2
#     Edge 100, Type (0, 1), BuildingBlock: EZIPEK_clean_linker_0, # of connection points: 2
#     Edge 101, Type (0, 1), BuildingBlock: EZIPEK_clean_linker_0, # of connection points: 2
#     Edge 102, Type (0, 1), BuildingBlock: EZIPEK_clean_linker_0, # of connection points: 2
#     Edge 103, Type (0, 1), BuildingBlock: EZIPEK_clean_linker_0, # of connection points: 2
#     Edge 104, Type (0, 1), BuildingBlock: EZIPEK_clean_linker_0, # of connection points: 2
#     Edge 105, Type (0, 1), BuildingBlock: EZIPEK_clean_linker_0, # of connection points: 2
#     Edge 106, Type (0, 1), BuildingBlock: EZIPEK_clean_linker_0, # of connection points: 2
#     Edge 107, Type (0, 1), BuildingBlock: EZIPEK_clean_linker_0, # of connection points: 2
#     Edge 108, Type (0, 1), BuildingBlock: EZIPEK_clean_linker_0, # of connection points: 2
#     Edge 109, Type (0, 1), BuildingBlock: EZIPEK_clean_linker_0, # of connection points: 2
#     Edge 110, Type (0, 1), BuildingBlock: EZIPEK_clean_linker_0, # of connection points: 2
#     Edge 111, Type (0, 1), BuildingBlock: EZIPEK_clean_linker_0, # of connection points: 2
#     Edge 112, Type (0, 1), BuildingBlock: EZIPEK_clean_linker_0, # of connection points: 2
#     Edge 113, Type (0, 1), BuildingBlock: EZIPEK_clean_linker_0, # of connection points: 2
#     Edge 114, Type (0, 1), BuildingBlock: EZIPEK_clean_linker_0, # of connection points: 2
#     Edge 115, Type (0, 1), BuildingBlock: EZIPEK_clean_linker_0, # of connection points: 2
#     Edge 116, Type (0, 1), BuildingBlock: EZIPEK_clean_linker_0, # of connection points: 2
#     Edge 117, Type (0, 1), BuildingBlock: EZIPEK_clean_linker_0, # of connection points: 2
#     Edge 118, Type (0, 1), BuildingBlock: EZIPEK_clean_linker_0, # of connection points: 2
#     Edge 119, Type (0, 1), BuildingBlock: EZIPEK_clean_linker_0, # of connection points: 2
#     Edge 120, Type (0, 1), BuildingBlock: EZIPEK_clean_linker_0, # of connection points: 2
#     Edge 121, Type (0, 1), BuildingBlock: EZIPEK_clean_linker_0, # of connection points: 2
#     Edge 122, Type (0, 1), BuildingBlock: EZIPEK_clean_linker_0, # of connection points: 2
#     Edge 123, Type (0, 1), BuildingBlock: EZIPEK_clean_linker_0, # of connection points: 2
#     Edge 124, Type (0, 1), BuildingBlock: EZIPEK_clean_linker_0, # of connection points: 2
#     Edge 125, Type (0, 1), BuildingBlock: EZIPEK_clean_linker_0, # of connection points: 2
#     Edge 126, Type (0, 1), BuildingBlock: EZIPEK_clean_linker_0, # of connection points: 2
#     Edge 127, Type (0, 1), BuildingBlock: EZIPEK_clean_linker_0, # of connection points: 2
#     Edge 128, Type (0, 1), BuildingBlock: EZIPEK_clean_linker_0, # of connection points: 2
#     Edge 129, Type (0, 1), BuildingBlock: EZIPEK_clean_linker_0, # of connection points: 2
#     Edge 130, Type (0, 1), BuildingBlock: EZIPEK_clean_linker_0, # of connection points: 2
#     Edge 131, Type (0, 1), BuildingBlock: EZIPEK_clean_linker_0, # of connection points: 2
#     Edge 132, Type (0, 1), BuildingBlock: EZIPEK_clean_linker_0, # of connection points: 2
#     Edge 133, Type (0, 1), BuildingBlock: EZIPEK_clean_linker_0, # of connection points: 2
#     Edge 134, Type (0, 1), BuildingBlock: EZIPEK_clean_linker_0, # of connection points: 2
#     Edge 135, Type (0, 1), BuildingBlock: EZIPEK_clean_linker_0, # of connection points: 2
# Relax obj value: 0.151
# Max RMSD: 0.280
# Mean RMSD: 0.146
data_MOF--net-gar--node1-CEKHIL_clean_sbu_0--node2-BETDEL_clean_sbu_0--edge1-EZIPEK_clean_linker_0
_symmetry_space_group_name_H-M    P1
_symmetry_Int_Tables_number       1
_symmetry_cell_setting            triclinic
loop_
_symmetry_equiv_pos_as_xyz
'x, y, z'
_cell_length_a     41.770932
_cell_length_b     38.721086
_cell_length_c     39.541156
_cell_angle_alpha  95.560201
_cell_angle_beta   92.200343
_cell_angle_gamma 100.53299
loop_
_atom_site_label
_atom_site_type_symbol
_atom_site_fract_x
_atom_site_fract_y
_atom_site_fract_z
_atom_type_partial_charge
Co0 Co 0.05857 0.28269 0.38952 0.0
O1 O 0.10407 0.27711 0.38972 0.0
O2 O 0.06839 0.26078 0.34586 0.0
C3 C 0.06898 0.33973 0.41431 0.0
O4 O 0.01107 0.28565 0.37649 0.0
Co5 Co 0.0207 0.29981 0.45292 0.0
O6 O 0.9877 0.31089 0.4202 0.0
C7 C 0.03546 0.22803 0.4382 0.0
C8 C 0.09821 0.26418 0.35802 0.0
C9 C 0.98764 0.29953 0.38889 0.0
O10 O 0.04544 0.23521 0.40859 0.0
O11 O 0.02682 0.25074 0.45996 0.0
O12 O 0.07209 0.33256 0.38195 0.0
O13 O 0.06114 0.31238 0.43059 0.0
Co14 Co 1.00189 0.78095 0.62717 0.0
O15 O 0.95533 0.78145 0.62785 0.0
O16 O 0.98622 0.77416 0.67213 0.0
C17 C 0.01385 0.8298 0.59828 0.0
O18 O 0.04945 0.77946 0.63993 0.0
Co19 Co 0.04258 0.77543 0.56391 0.0
O20 O 0.08099 0.77701 0.59548 0.0
C21 C 1.00053 0.71116 0.58422 0.0
C22 C 0.95783 0.7777 0.66014 0.0
C23 C 0.07697 0.77734 0.62722 0.0
O24 O 0.99349 0.72798 0.61206 0.0
O25 O 0.01691 0.72625 0.56128 0.0
O26 O 0.01092 0.83304 0.631 0.0
O27 O 1.00894 0.79786 0.58391 0.0
Co28 Co 0.56175 0.78139 0.88715 0.0
O29 O 0.60706 0.7753 0.88725 0.0
O30 O 0.57134 0.76086 0.84311 0.0
C31 C 0.57144 0.83741 0.91387 0.0
O32 O 0.51491 0.78538 0.87389 0.0
Co33 Co 0.52262 0.79692 0.95061 0.0
O34 O 0.49043 0.80903 0.91762 0.0
C35 C 0.53865 0.72592 0.93449 0.0
C36 C 0.60106 0.76358 0.8552 0.0
C37 C 0.4913 0.79892 0.88612 0.0
O38 O 0.54796 0.73337 0.90473 0.0
O39 O 0.53022 0.74828 0.95676 0.0
O40 O 0.57608 0.83175 0.88164 0.0
O41 O 0.56331 0.80922 0.92876 0.0
Co42 Co 0.49604 0.27871 0.12451 0.0
O43 O 0.44925 0.27887 0.12552 0.0
O44 O 0.48057 0.2718 0.16945 0.0
C45 C 0.50732 0.32786 0.09546 0.0
O46 O 0.5441 0.2778 0.13682 0.0
Co47 Co 0.53629 0.27374 0.06029 0.0
O48 O 0.57512 0.27702 0.09172 0.0
C49 C 0.4949 0.20926 0.08153 0.0
C50 C 0.45206 0.27548 0.15789 0.0
C51 C 0.57165 0.27682 0.12353 0.0
O52 O 0.48811 0.22598 0.10949 0.0
O53 O 0.51084 0.22439 0.0583 0.0
O54 O 0.50417 0.33063 0.12818 0.0
O55 O 0.5031 0.29581 0.08145 0.0
Co56 Co 0.03775 0.80146 0.14913 0.0
O57 O 0.99081 0.7913 0.13885 0.0
O58 O 0.01493 0.78757 0.18869 0.0
C59 C 0.04501 0.85287 0.12391 0.0
O60 O 0.08312 0.81056 0.17295 0.0
Co61 Co 0.09204 0.81033 0.10013 0.0
O62 O 0.12478 0.81798 0.13911 0.0
C63 C 0.05521 0.73905 0.10685 0.0
C64 C 0.98803 0.78594 0.17068 0.0
C65 C 0.11385 0.81566 0.1685 0.0
O66 O 0.04112 0.75098 0.1328 0.0
O67 O 0.074 0.7588 0.08893 0.0
O68 O 0.03659 0.85179 0.15511 0.0
O69 O 0.04973 0.82313 0.10892 0.0
Co70 Co 0.50434 0.76849 0.37632 0.0
O71 O 0.55162 0.78076 0.38141 0.0
O72 O 0.52336 0.7566 0.33385 0.0
C73 C 0.49546 0.82017 0.4036 0.0
O74 O 0.45645 0.75469 0.35806 0.0
Co75 Co 0.45955 0.76007 0.435 0.0
O76 O 0.42259 0.75385 0.40065 0.0
C77 C 0.50448 0.71175 0.42286 0.0
C78 C 0.55161 0.76903 0.34946 0.0
C79 C 0.42759 0.75192 0.36907 0.0
O80 O 0.50673 0.72057 0.39224 0.0
O81 O 0.48943 0.72729 0.44535 0.0
O82 O 0.50154 0.81756 0.37149 0.0
O83 O 0.496 0.79201 0.41853 0.0
Co84 Co 0.54225 0.30416 0.64832 0.0
O85 O 0.49491 0.29763 0.6416 0.0
O86 O 0.52142 0.29157 0.68943 0.0
C87 C 0.55109 0.35524 0.62226 0.0
O88 O 0.58879 0.30956 0.66912 0.0
Co89 Co 0.59388 0.3095 0.59599 0.0
O90 O 0.62861 0.31912 0.63321 0.0
C91 C 0.55249 0.24009 0.6034 0.0
C92 C 0.49381 0.29137 0.67335 0.0
C93 C 0.61923 0.31548 0.66304 0.0
O94 O 0.5412 0.25279 0.63093 0.0
O95 O 0.57136 0.25905 0.58484 0.0
O96 O 0.54451 0.35548 0.65417 0.0
O97 O 0.55318 0.32464 0.60733 0.0
Co98 Co 0.011 0.26859 0.87772 0.0
O99 O 0.0579 0.2862 0.88192 0.0
O100 O 0.03069 0.25625 0.83596 0.0
C101 C 0.99798 0.31966 0.90291 0.0
O102 O 0.96422 0.24741 0.85921 0.0
Co103 Co 0.96376 0.25927 0.93312 0.0
O104 O 0.93053 0.26296 0.89701 0.0
C105 C 0.01156 0.21262 0.92577 0.0
C106 C 0.0584 0.27208 0.85073 0.0
C107 C 0.93614 0.25399 0.8665 0.0
O108 O 0.01832 0.22358 0.8966 0.0
O109 O 0.99163 0.22502 0.94511 0.0
O110 O 1.00326 0.31582 0.87059 0.0
O111 O 1.00033 0.29262 0.91891 0.0
Co112 Co 0.41697 0.04386 0.291 0.0
O113 O 0.4193 0.09035 0.27608 0.0
O114 O 0.37576 0.04711 0.27057 0.0
C115 C 0.44193 0.06106 0.34265 0.0
O116 O 0.40184 0.99476 0.30355 0.0
Co117 Co 0.47227 0.00587 0.3127 0.0
O118 O 0.43863 0.96681 0.32563 0.0
C119 C 0.45751 0.01278 0.23967 0.0
C120 C 0.38843 0.07946 0.26698 0.0
C121 C 0.40939 0.96827 0.3168 0.0
O122 O 0.43195 0.02564 0.24643 0.0
O123 O 0.47709 0.0053 0.2624 0.0
O124 O 0.41157 0.06337 0.33705 0.0
O125 O 0.45685 0.05073 0.31668 0.0
Co126 Co 0.27628 0.15055 0.48648 0.0
O127 O 0.32384 0.15872 0.49369 0.0
O128 O 0.29081 0.10799 0.49712 0.0
C129 C 0.2764 0.17949 0.43781 0.0
O130 O 0.22792 0.12716 0.47976 0.0
Co131 Co 0.23224 0.20452 0.48646 0.0
O132 O 0.1938 0.16526 0.47962 0.0
C133 C 0.26145 0.1923 0.552 0.0
C134 C 0.32044 0.12551 0.49876 0.0
C135 C 0.19886 0.13379 0.47835 0.0
O136 O 0.27163 0.16541 0.53705 0.0
O137 O 0.24764 0.21306 0.53576 0.0
O138 O 0.28062 0.14692 0.4367 0.0
O139 O 0.27264 0.19391 0.46798 0.0
Co140 Co 0.16619 0.01036 0.79763 0.0
O141 O 0.16147 0.9591 0.78739 0.0
O142 O 0.20701 0.99722 0.78428 0.0
C143 C 0.13885 0.00771 0.84705 0.0
O144 O 0.18475 0.06328 0.80592 0.0
Co145 Co 0.11226 0.05476 0.80697 0.0
O146 O 0.14717 0.09762 0.81105 0.0
C147 C 0.12735 0.02868 0.73745 0.0
C148 C 0.19247 0.96449 0.78181 0.0
C149 C 0.17664 0.09386 0.80862 0.0
O150 O 0.15219 0.01661 0.74888 0.0
O151 O 0.10745 0.0414 0.75667 0.0
O152 O 0.16944 0.005 0.84681 0.0
O153 O 0.12563 0.01157 0.81806 0.0
Co154 Co 0.25852 0.90065 0.99039 0.0
O155 O 0.21401 0.90299 1.00126 0.0
O156 O 0.2558 0.9481 0.00706 0.0
C157 C 0.24786 0.86774 0.93949 0.0
O158 O 0.30647 0.91172 0.98144 0.0
Co159 Co 0.2882 0.83249 0.97942 0.0
O160 O 0.32973 0.86422 0.9717 0.0
C161 C 0.27407 0.86003 0.04831 0.0
C162 C 0.22498 0.93662 0.00959 0.0
C163 C 0.33132 0.89753 0.97514 0.0
O164 O 0.26876 0.88905 0.0378 0.0
O165 O 0.27915 0.83354 0.02874 0.0
O166 O 0.24704 0.90134 0.94198 0.0
O167 O 0.25178 0.85478 0.96781 0.0
Co168 Co 0.2713 0.39888 0.02703 0.0
O169 O 0.22387 0.39172 0.01919 0.0
O170 O 0.25462 0.441 0.04292 0.0
C171 C 0.28051 0.37545 0.97315 0.0
O172 O 0.31997 0.42082 0.03668 0.0
Co173 Co 0.31281 0.3421 0.02455 0.0
O174 O 0.35187 0.38041 0.02958 0.0
C175 C 0.27308 0.34962 0.08338 0.0
C176 C 0.22589 0.42462 0.03111 0.0
C177 C 0.34833 0.41227 0.03542 0.0
O178 O 0.26697 0.37905 0.07378 0.0
O179 O 0.28844 0.32962 0.06534 0.0
O180 O 0.27618 0.4078 0.97929 0.0
O181 O 0.27791 0.35751 0.99922 0.0
Co182 Co 0.78896 0.13638 0.01447 0.0
O183 O 0.83481 0.142 0.00648 0.0
O184 O 0.80713 0.09968 0.03359 0.0
C185 C 0.77296 0.14333 0.96088 0.0
O186 O 0.74227 0.11937 0.02555 0.0
Co187 Co 0.74785 0.19464 0.00453 0.0
O188 O 0.71014 0.15726 0.01199 0.0
C189 C 0.79419 0.20238 0.06341 0.0
C190 C 0.83403 0.11269 0.02021 0.0
C191 C 0.71421 0.12787 0.02178 0.0
O192 O 0.79706 0.16955 0.05852 0.0
O193 O 0.78166 0.21818 0.04078 0.0
O194 O 0.77885 0.11296 0.96794 0.0
O195 O 0.77906 0.16854 0.98522 0.0
Co196 Co 0.15125 0.50804 0.24127 0.0
O197 O 0.15576 0.45987 0.24295 0.0
O198 O 0.19418 0.50313 0.22878 0.0
C199 C 0.12821 0.51415 0.29104 0.0
O200 O 0.15721 0.56071 0.23914 0.0
Co201 Co 0.08355 0.53175 0.24045 0.0
O202 O 0.10963 0.58012 0.23969 0.0
C203 C 0.10181 0.48788 0.18473 0.0
C204 C 0.18582 0.47074 0.23576 0.0
C205 C 0.14068 0.58556 0.23925 0.0
O206 O 0.13245 0.49813 0.19287 0.0
O207 O 0.08057 0.48864 0.20697 0.0
O208 O 0.15966 0.51656 0.29065 0.0
O209 O 0.11206 0.50524 0.26221 0.0
Co210 Co 0.7709 0.90161 0.52297 0.0
O211 O 0.72352 0.89431 0.51557 0.0
O212 O 0.75462 0.94396 0.53837 0.0
C213 C 0.77969 0.87725 0.46971 0.0
O214 O 0.81963 0.92346 0.53231 0.0
Co215 Co 0.81262 0.84503 0.52159 0.0
O216 O 0.8519 0.88326 0.52707 0.0
C217 C 0.77115 0.85249 0.57917 0.0
C218 C 0.72579 0.92731 0.52722 0.0
C219 C 0.84814 0.91517 0.53169 0.0
O220 O 0.76643 0.88245 0.56978 0.0
O221 O 0.78652 0.83216 0.56151 0.0
O222 O 0.77535 0.90966 0.47507 0.0
O223 O 0.77741 0.85985 0.49615 0.0
Co224 Co 0.88807 0.04441 0.23945 0.0
O225 O 0.89356 0.09595 0.24606 0.0
O226 O 0.84928 0.06046 0.22285 0.0
C227 C 0.90755 0.03787 0.29282 0.0
O228 O 0.87016 0.99077 0.23152 0.0
Co229 Co 0.94415 1.00201 0.24497 0.0
O230 O 0.90915 0.95945 0.24204 0.0
C231 C 0.93882 0.04233 0.1862 0.0
C232 C 0.86361 0.0924 0.23394 0.0
C233 C 0.87944 0.96127 0.2355 0.0
O234 O 0.9093 0.04574 0.19313 0.0
O235 O 0.95754 0.0302 0.20651 0.0
O236 O 0.87794 0.04287 0.28761 0.0
O237 O 0.92474 0.03955 0.26647 0.0
Co238 Co 0.29403 0.63503 0.51961 0.0
O239 O 0.33955 0.63807 0.51048 0.0
O240 O 0.30747 0.59156 0.52776 0.0
C241 C 0.28108 0.65847 0.47235 0.0
O242 O 0.24691 0.61883 0.53 0.0
Co243 Co 0.25556 0.69698 0.52571 0.0
O244 O 0.2159 0.65987 0.52546 0.0
C245 C 0.30527 0.69004 0.57892 0.0
C246 C 0.33552 0.60542 0.51745 0.0
C247 C 0.21917 0.62847 0.52953 0.0
O248 O 0.30552 0.65752 0.56792 0.0
O249 O 0.29078 0.7104 0.56279 0.0
O250 O 0.2827 0.62508 0.47038 0.0
O251 O 0.28774 0.67599 0.50171 0.0
Co252 Co 0.3924 0.54505 0.73471 0.0
O253 O 0.39652 0.59637 0.74097 0.0
O254 O 0.35241 0.55939 0.7193 0.0
C255 C 0.41332 0.53925 0.78741 0.0
O256 O 0.37585 0.49117 0.72754 0.0
Co257 Co 0.45015 0.50479 0.73866 0.0
O258 O 0.41631 0.46126 0.73591 0.0
C259 C 0.44221 0.5445 0.68015 0.0
C260 C 0.36603 0.59162 0.73023 0.0
C261 C 0.38619 0.46212 0.73091 0.0
O262 O 0.41259 0.54683 0.68781 0.0
O263 O 0.46186 0.53287 0.69978 0.0
O264 O 0.38339 0.54365 0.7831 0.0
O265 O 0.43003 0.54153 0.76073 0.0
Co266 Co 0.64486 0.00648 0.74638 0.0
O267 O 0.64459 0.95796 0.75435 0.0
O268 O 0.6871 0.99565 0.73916 0.0
C269 C 0.61866 0.01955 0.79325 0.0
O270 O 0.65756 0.05725 0.73707 0.0
Co271 Co 0.58546 0.04315 0.73854 0.0
O272 O 0.6175 0.08832 0.7398 0.0
C273 C 0.5999 0.99061 0.68478 0.0
C274 C 0.67542 0.96484 0.74825 0.0
C275 C 0.64735 0.08637 0.73656 0.0
O276 O 0.62921 0.99269 0.69732 0.0
O277 O 0.57793 1.00318 0.70102 0.0
O278 O 0.64991 0.02016 0.79567 0.0
O279 O 0.60446 0.01064 0.76349 0.0
Co280 Co 0.77758 0.65239 0.98553 0.0
O281 O 0.82511 0.66093 0.99343 0.0
O282 O 0.79223 0.61002 0.99648 0.0
C283 C 0.77828 0.68118 0.93677 0.0
O284 O 0.72945 0.62845 0.97828 0.0
Co285 Co 0.73271 0.70552 0.98377 0.0
O286 O 0.69472 0.66579 0.97663 0.0
C287 C 0.76022 0.69343 0.05028 0.0
C288 C 0.8218 0.62767 0.99829 0.0
C289 C 0.70025 0.63455 0.97618 0.0
O290 O 0.77186 0.66728 0.03583 0.0
O291 O 0.74606 0.71356 0.03357 0.0
O292 O 0.78273 0.64871 0.93591 0.0
O293 O 0.77383 0.69559 0.96672 0.0
Co294 Co 0.91412 0.54469 0.7931 0.0
O295 O 0.91701 0.59054 0.77677 0.0
O296 O 0.87237 0.54884 0.77471 0.0
C297 C 0.9422 0.56221 0.84314 0.0
O298 O 0.89862 0.49631 0.80741 0.0
Co299 Co 0.97068 0.50633 0.80982 0.0
O300 O 0.93698 0.46485 0.81771 0.0
C301 C 0.95253 0.51538 0.73899 0.0
C302 C 0.88584 0.58033 0.76891 0.0
C303 C 0.90718 0.46772 0.81465 0.0
O304 O 0.92568 0.5243 0.74779 0.0
O305 O 0.97485 0.51049 0.76005 0.0
O306 O 0.91195 0.56586 0.83938 0.0
O307 O 0.95524 0.55105 0.81617 0.0
Co308 Co 0.76391 0.40443 0.48325 0.0
O309 O 0.71873 0.40297 0.4942 0.0
O310 O 0.75732 0.45109 0.49758 0.0
C311 C 0.75425 0.36836 0.43358 0.0
O312 O 0.81117 0.4199 0.4737 0.0
Co313 Co 0.80061 0.341 0.47411 0.0
O314 O 0.83909 0.37602 0.46416 0.0
C315 C 0.78388 0.36866 0.54239 0.0
C316 C 0.72714 0.43721 0.50059 0.0
C317 C 0.8375 0.40867 0.46733 0.0
O318 O 0.77603 0.39626 0.53114 0.0
O319 O 0.79138 0.34292 0.5235 0.0
O320 O 0.75083 0.4012 0.43499 0.0
O321 O 0.76114 0.3581 0.46252 0.0
Co322 Co 0.6685 0.5081 0.29647 0.0
O323 O 0.66769 0.45729 0.2863 0.0
O324 O 0.71018 0.49913 0.2815 0.0
C325 C 0.64221 0.5031 0.34645 0.0
O326 O 0.68279 0.56204 0.30395 0.0
Co327 Co 0.61185 0.5481 0.3079 0.0
O328 O 0.64404 0.59276 0.31827 0.0
C329 C 0.62738 0.52404 0.23716 0.0
C330 C 0.69808 0.46567 0.27882 0.0
C331 C 0.67346 0.59149 0.31216 0.0
O332 O 0.65234 0.51193 0.24798 0.0
O333 O 0.60823 0.53721 0.25712 0.0
O334 O 0.67341 0.50333 0.34584 0.0
O335 O 0.62805 0.50596 0.31766 0.0
Dy336 Dy 1.00222 0.02021 1.00022 0.0
C337 C 0.13145 0.02364 0.03655 0.0
C338 C 0.94285 0.03939 0.0045 0.0
Dy339 Dy 0.07225 0.04246 0.03383 0.0
O340 O 0.95064 0.01886 0.97892 0.0
O341 O 0.96663 0.04718 0.02749 0.0
O342 O 0.02062 0.9913 0.95431 0.0
O343 O 0.05089 0.03376 0.98239 0.0
C344 C 0.05076 0.00895 0.95909 0.0
C345 C 0.02455 0.05317 0.07519 0.0
O346 O 0.07066 0.0926 0.00906 0.0
O347 O 0.01691 0.07581 0.98697 0.0
O348 O 0.12469 0.05108 0.05503 0.0
O349 O 0.10661 0.00779 0.01695 0.0
O350 O 0.05434 0.07127 0.08007 0.0
O351 O 0.0242 0.02851 0.05168 0.0
O352 O 1.00377 0.96857 0.02123 0.0
O353 O 0.05721 0.98547 0.04399 0.0
C354 C 0.04448 0.09922 0.99243 0.0
C355 C 0.02999 0.96146 0.03734 0.0
Dy356 Dy 0.27313 0.79118 0.24346 0.0
C357 C 0.25175 0.74773 0.3736 0.0
C358 C 0.27858 0.81892 0.18317 0.0
Dy359 Dy 0.25117 0.7846 0.31928 0.0
O360 O 0.28795 0.7897 0.18918 0.0
O361 O 0.26682 0.83278 0.20986 0.0
O362 O 0.31032 0.75626 0.25205 0.0
O363 O 0.29601 0.78653 0.29245 0.0
C364 C 0.31239 0.76281 0.28521 0.0
C365 C 0.2046 0.80458 0.2801 0.0
O366 O 0.28336 0.83813 0.32822 0.0
O367 O 0.2977 0.8428 0.27207 0.0
O368 O 0.24526 0.77967 0.37523 0.0
O369 O 0.25814 0.73687 0.34307 0.0
O370 O 0.20182 0.80131 0.31249 0.0
O371 O 0.23187 0.79753 0.2726 0.0
O372 O 0.23275 0.74411 0.23498 0.0
O373 O 0.23365 0.73113 0.29109 0.0
C374 C 0.29888 0.85588 0.30473 0.0
C375 C 0.2241 0.72279 0.25863 0.0
Dy376 Dy 0.55879 0.02557 0.50822 0.0
C377 C 0.42853 0.05238 0.5216 0.0
C378 C 0.6168 1.00238 0.51582 0.0
Dy379 Dy 0.48371 0.02339 0.52615 0.0
O380 O 0.6058 0.01273 0.48786 0.0
O381 O 0.59707 0.00692 0.53977 0.0
O382 O 0.55068 0.05412 0.46216 0.0
O383 O 0.51182 0.02181 0.48167 0.0
C384 C 0.51882 0.04455 0.46116 0.0
C385 C 0.52274 0.00502 0.57318 0.0
O386 O 0.47978 0.96972 0.49573 0.0
O387 O 0.53552 0.96866 0.49431 0.0
O388 O 0.43001 0.02296 0.53491 0.0
O389 O 0.45667 0.06511 0.51072 0.0
O390 O 0.49101 0.99536 0.57287 0.0
O391 O 0.52996 0.02716 0.55225 0.0
O392 O 0.56416 0.08184 0.53099 0.0
O393 O 0.50915 0.07954 0.54246 0.0
C394 C 0.50445 0.95355 0.48776 0.0
C395 C 0.53969 0.09699 0.54183 0.0
Dy396 Dy 0.24118 0.28252 0.76108 0.0
C397 C 0.37504 0.28132 0.74668 0.0
C398 C 0.17835 0.27542 0.78034 0.0
Dy399 Dy 0.31299 0.27354 0.76797 0.0
O400 O 0.19121 0.29731 0.75933 0.0
O401 O 0.1993 0.25664 0.78926 0.0
O402 O 0.25548 0.33084 0.73258 0.0
O403 O 0.28832 0.31784 0.76781 0.0
C404 C 0.28557 0.338 0.74514 0.0
C405 C 0.26986 0.22059 0.78785 0.0
O406 O 0.31086 0.30594 0.81849 0.0
O407 O 0.25429 0.29805 0.81704 0.0
O408 O 0.36424 0.26206 0.77066 0.0
O409 O 0.35252 0.29737 0.73602 0.0
O410 O 0.30004 0.22877 0.80013 0.0
O411 O 0.26603 0.23783 0.76285 0.0
O412 O 0.24213 0.25273 0.70945 0.0
O413 O 0.29785 0.25243 0.71304 0.0
C414 C 0.2832 0.30882 0.83349 0.0
C415 C 0.26915 0.24594 0.69559 0.0
Dy416 Dy 0.01398 0.00846 0.47091 0.0
C417 C 0.07559 0.04169 0.60318 0.0
C418 C 0.97354 1.00293 0.41361 0.0
Dy419 Dy 0.03654 0.03614 0.545 0.0
O420 O 1.00262 0.99508 0.41418 0.0
O421 O 0.96637 0.01211 0.44437 0.0
O422 O 0.06547 0.00514 0.45754 0.0
O423 O 0.05724 0.04288 0.49574 0.0
C424 C 0.07931 0.02986 0.48115 0.0
C425 C 0.97107 0.01491 0.53401 0.0
O426 O 0.03838 0.08937 0.52542 0.0
O427 O 0.0116 0.06663 0.47319 0.0
O428 O 0.04719 0.05112 0.60155 0.0
O429 O 0.08337 0.03161 0.57285 0.0
O430 O 0.98473 0.03935 0.55793 0.0
O431 O 0.99334 1.0018 0.52003 0.0
O432 O 0.013 0.95535 0.49087 0.0
O433 O 0.03974 0.97848 0.54301 0.0
C434 C 0.02495 0.09389 0.49543 0.0
C435 C 0.02645 0.95113 0.52099 0.0
Dy436 Dy 0.31779 0.7977 0.76665 0.0
C437 C 0.18771 0.75654 0.71023 0.0
C438 C 0.37687 0.80654 0.802 0.0
Dy439 Dy 0.24521 0.76186 0.74768 0.0
O440 O 0.36971 0.82717 0.77967 0.0
O441 O 0.35176 0.78215 0.80518 0.0
O442 O 0.32709 0.80441 0.71145 0.0
O443 O 0.29128 0.76496 0.72363 0.0
C444 C 0.30331 0.77924 0.69867 0.0
C445 C 0.26065 0.77892 0.81576 0.0
O446 O 0.26959 0.71356 0.74014 0.0
O447 O 0.31778 0.73957 0.77105 0.0
O448 O 0.19304 0.73437 0.73187 0.0
O449 O 0.21365 0.78033 0.70885 0.0
O450 O 0.23636 0.75427 0.80296 0.0
O451 O 0.27191 0.79429 0.79104 0.0
O452 O 0.29298 0.84598 0.77354 0.0
O453 O 0.24478 0.81947 0.743 0.0
C454 C 0.29864 0.71137 0.75437 0.0
C455 C 0.26394 0.84783 0.75901 0.0
Dy456 Dy 0.52032 1.0036 0.04044 0.0
C457 C 0.5451 0.04351 0.90884 0.0
C458 C 0.50204 0.99879 0.10461 0.0
Dy459 Dy 0.52874 0.03065 0.9735 0.0
O460 O 0.49987 0.97167 0.08189 0.0
O461 O 0.51477 0.02774 0.09256 0.0
O462 O 0.5563 0.96785 0.03059 0.0
O463 O 0.5269 0.97769 0.98982 0.0
C464 C 0.54952 0.96181 0.99792 0.0
C465 C 0.5169 0.07991 0.02281 0.0
O466 O 0.4774 1.00049 0.96277 0.0
O467 O 0.47062 0.98223 0.01695 0.0
O468 O 0.51618 0.02956 0.91726 0.0
O469 O 0.56442 0.05063 0.93591 0.0
O470 O 0.53281 0.08721 0.99621 0.0
O471 O 0.50445 0.04759 0.0187 0.0
O472 O 0.56925 0.03765 0.04973 0.0
O473 O 0.57996 0.03311 0.99361 0.0
C474 C 0.4596 0.98357 0.98537 0.0
C475 C 0.59003 0.04169 0.02581 0.0
Dy476 Dy 0.28114 0.3096 0.27486 0.0
C477 C 0.29036 0.16202 0.24167 0.0
C478 C 0.26978 0.3748 0.26582 0.0
Dy479 Dy 0.27234 0.22617 0.24595 0.0
O480 O 0.26437 0.35945 0.29344 0.0
O481 O 0.28321 0.35535 0.24414 0.0
O482 O 0.29522 0.30369 0.32995 0.0
O483 O 0.28721 0.26064 0.2929 0.0
C484 C 0.29257 0.26929 0.32474 0.0
C485 C 0.25674 0.26776 0.19826 0.0
O486 O 0.22367 0.2248 0.26846 0.0
O487 O 0.22806 0.28621 0.28078 0.0
O488 O 0.29488 0.18413 0.21895 0.0
O489 O 0.27285 0.1736 0.26534 0.0
O490 O 0.25421 0.23358 0.1919 0.0
O491 O 0.26556 0.27497 0.22933 0.0
O492 O 0.33098 0.30979 0.25573 0.0
O493 O 0.32613 0.24896 0.24297 0.0
C494 C 0.21184 0.25302 0.28056 0.0
C495 C 0.34338 0.28176 0.24484 0.0
Dy496 Dy 0.5167 0.50779 0.96736 0.0
C497 C 0.57876 0.54427 0.10315 0.0
C498 C 0.47814 0.50607 0.90934 0.0
Dy499 Dy 0.54037 0.53619 0.04428 0.0
O500 O 0.50031 0.48656 0.91258 0.0
O501 O 0.47699 0.52559 0.93756 0.0
O502 O 0.56853 0.50433 0.9549 0.0
O503 O 0.56003 0.54074 0.99391 0.0
C504 C 0.58231 0.52828 0.97925 0.0
C505 C 0.47431 0.5077 0.03757 0.0
O506 O 0.54093 0.58892 0.02366 0.0
O507 O 0.51769 0.56635 0.96934 0.0
O508 O 0.55599 0.56242 0.09745 0.0
O509 O 0.58154 0.52357 0.07603 0.0
O510 O 0.49005 0.52147 0.06618 0.0
O511 O 0.49564 0.5113 0.01596 0.0
O512 O 0.50987 0.45771 0.99428 0.0
O513 O 0.55057 0.48119 0.0352 0.0
C514 C 0.52929 0.59325 0.99268 0.0
C515 C 0.52881 0.45401 0.02105 0.0
Dy516 Dy 0.81728 0.29897 0.2625 0.0
C517 C 0.68793 0.25754 0.19902 0.0
C518 C 0.87214 0.30779 0.30494 0.0
Dy519 Dy 0.74592 0.26583 0.23673 0.0
O520 O 0.87043 0.32214 0.27656 0.0
O521 O 0.84363 0.29017 0.31067 0.0
O522 O 0.83189 0.30909 0.20942 0.0
O523 O 0.79394 0.26771 0.21695 0.0
C524 C 0.80849 0.28461 0.19473 0.0
C525 C 0.75518 0.28223 0.30491 0.0
O526 O 0.76713 0.21551 0.23235 0.0
O527 O 0.81613 0.24016 0.26268 0.0
O528 O 0.69249 0.24084 0.22535 0.0
O529 O 0.71511 0.27735 0.19286 0.0
O530 O 0.73272 0.2567 0.29053 0.0
O531 O 0.76915 0.29833 0.28183 0.0
O532 O 0.79634 0.34915 0.26384 0.0
O533 O 0.74945 0.32411 0.2309 0.0
C534 C 0.79569 0.2123 0.24701 0.0
C535 C 0.76971 0.35262 0.24571 0.0
Dy536 Dy 0.02067 0.50584 0.54248 0.0
C537 C 0.05803 0.5365 0.40962 0.0
C538 C 0.99808 0.50237 0.60517 0.0
Dy539 Dy 0.03582 0.53697 0.47245 0.0
O540 O 0.98888 0.47832 0.57971 0.0
O541 O 0.02021 0.52771 0.59667 0.0
O542 O 0.03608 0.45286 0.53035 0.0
O543 O 0.03881 0.48953 0.49539 0.0
C544 C 0.04386 0.45909 0.49959 0.0
C545 C 0.02245 0.58314 0.52298 0.0
O546 O 0.9836 0.51172 0.46004 0.0
O547 O 0.97209 0.49287 0.5135 0.0
O548 O 0.04153 0.55977 0.42226 0.0
O549 O 0.06156 0.51377 0.4307 0.0
O550 O 0.0403 0.5923 0.49776 0.0
O551 O 0.00995 0.55063 0.51739 0.0
O552 O 0.07311 0.5329 0.55339 0.0
O553 O 0.08493 0.54811 0.49892 0.0
C554 C 0.96349 0.49569 0.48127 0.0
C555 C 0.09365 0.54628 0.53112 0.0
Dy556 Dy 0.73559 0.77988 0.26113 0.0
C557 C 0.86932 0.77825 0.24396 0.0
C558 C 0.67223 0.77385 0.27932 0.0
Dy559 Dy 0.80772 0.77085 0.26655 0.0
O560 O 0.69078 0.80298 0.27277 0.0
O561 O 0.6877 0.74781 0.27394 0.0
O562 O 0.74969 0.82756 0.23181 0.0
O563 O 0.78285 0.81517 0.2673 0.0
C564 C 0.77976 0.83517 0.24454 0.0
C565 C 0.76516 0.71749 0.28647 0.0
O566 O 0.80588 0.80451 0.31616 0.0
O567 O 0.74967 0.78968 0.31751 0.0
O568 O 0.85978 0.76175 0.27017 0.0
O569 O 0.84573 0.7918 0.2317 0.0
O570 O 0.79552 0.72545 0.29824 0.0
O571 O 0.76085 0.73544 0.26217 0.0
O572 O 0.73664 0.75428 0.20767 0.0
O573 O 0.79148 0.74969 0.21195 0.0
C574 C 0.77856 0.80419 0.3326 0.0
C575 C 0.76317 0.74567 0.19407 0.0
Dy576 Dy 0.78404 0.28954 0.73196 0.0
C577 C 0.75349 0.22122 0.85147 0.0
C578 C 0.78553 0.32128 0.67407 0.0
Dy579 Dy 0.75763 0.27057 0.80673 0.0
O580 O 0.77617 0.33411 0.70277 0.0
O581 O 0.79455 0.29113 0.67685 0.0
O582 O 0.83414 0.27583 0.74134 0.0
O583 O 0.79949 0.2678 0.77629 0.0
C584 C 0.82866 0.26493 0.77124 0.0
C585 C 0.71458 0.29677 0.76835 0.0
O586 O 0.7931 0.32171 0.82185 0.0
O587 O 0.80401 0.33829 0.76697 0.0
O588 O 0.75608 0.21564 0.81907 0.0
O589 O 0.75217 0.25451 0.86016 0.0
O590 O 0.70902 0.28897 0.79938 0.0
O591 O 0.74273 0.29159 0.76237 0.0
O592 O 0.75069 0.23743 0.71669 0.0
O593 O 0.73677 0.22323 0.77121 0.0
C594 C 0.80746 0.34392 0.80084 0.0
C595 C 0.73576 0.21591 0.73779 0.0
Dy596 Dy 0.78321 0.80657 0.77189 0.0
C597 C 0.78967 0.66355 0.7385 0.0
C598 C 0.76464 0.86992 0.76803 0.0
Dy599 Dy 0.77333 0.72886 0.74308 0.0
O600 O 0.76855 0.85601 0.79625 0.0
O601 O 0.7743 0.85107 0.74302 0.0
O602 O 0.80991 0.79729 0.81984 0.0
O603 O 0.77406 0.7569 0.79431 0.0
C604 C 0.79545 0.76408 0.81901 0.0
C605 C 0.76207 0.77396 0.69698 0.0
O606 O 0.72283 0.72483 0.76053 0.0
O607 O 0.72905 0.78523 0.77608 0.0
O608 O 0.79343 0.68502 0.71516 0.0
O609 O 0.77315 0.67613 0.76233 0.0
O610 O 0.74791 0.74064 0.69435 0.0
O611 O 0.78266 0.77882 0.72194 0.0
O612 O 0.83309 0.8072 0.7513 0.0
O613 O 0.82799 0.74661 0.74833 0.0
C614 C 0.71137 0.75263 0.77351 0.0
C615 C 0.84512 0.77794 0.74405 0.0
Dy616 Dy 0.50068 0.51549 0.49558 0.0
C617 C 0.63242 0.52559 0.52158 0.0
C618 C 0.43695 0.52282 0.49675 0.0
Dy619 Dy 0.57239 0.54181 0.52429 0.0
O620 O 0.454 0.52385 0.46983 0.0
O621 O 0.45383 0.51413 0.52172 0.0
O622 O 0.51781 0.48693 0.4484 0.0
O623 O 0.54746 0.53144 0.47452 0.0
C624 C 0.547 0.50687 0.45094 0.0
C625 C 0.52663 0.55299 0.5681 0.0
O626 O 0.5664 0.58874 0.49671 0.0
O627 O 0.50992 0.57459 0.49465 0.0
O628 O 0.62484 0.54893 0.54469 0.0
O629 O 0.60812 0.51327 0.49991 0.0
O630 O 0.556 0.57246 0.57038 0.0
O631 O 0.52582 0.52737 0.54545 0.0
O632 O 0.5069 0.46466 0.51549 0.0
O633 O 0.56025 0.48532 0.53713 0.0
C634 C 0.5372 0.59634 0.48946 0.0
C635 C 0.53402 0.45977 0.53148 0.0
Dy636 Dy 0.05916 0.52477 0.009 0.0
C637 C 0.92888 0.55257 0.01907 0.0
C638 C 0.11611 0.49922 0.01773 0.0
Dy639 Dy 0.98323 0.52241 0.02473 0.0
O640 O 0.10866 0.51563 0.99194 0.0
O641 O 0.09318 0.49862 0.0391 0.0
O642 O 0.05216 0.55502 0.96355 0.0
O643 O 0.01293 0.52218 0.98156 0.0
C644 C 0.02028 0.54529 0.9616 0.0
C645 C 0.01992 0.50034 0.07093 0.0
O646 O 0.97968 0.46883 0.99454 0.0
O647 O 0.03555 0.46914 0.98989 0.0
O648 O 0.92956 0.52303 0.03244 0.0
O649 O 0.95732 0.56475 0.0085 0.0
O650 O 0.98806 0.4919 0.06989 0.0
O651 O 0.02851 0.52405 0.05184 0.0
O652 O 0.06454 0.57947 0.036 0.0
O653 O 1.0091 0.57711 0.04579 0.0
C654 C 1.00443 0.45362 0.98479 0.0
C655 C 0.03996 0.59415 0.04738 0.0
C656 C 0.0264 0.15188 0.92163 0.0
C657 C 0.02844 0.18583 0.93947 0.0
C658 C 0.04902 0.16492 0.99141 0.0
C659 C 0.04631 0.1309 0.97374 0.0
N660 N 0.04334 0.09521 0.91992 0.0
N661 N 0.05201 0.22746 0.98726 0.0
C662 C 0.03876 0.12559 0.93805 0.0
C663 C 0.04323 0.19324 0.97308 0.0
N664 N 0.01067 0.14379 0.89013 0.0
N665 N 0.05518 0.16981 0.02588 0.0
H666 H 0.04903 0.24882 0.97403 0.0
H667 H 0.06526 0.23472 0.01052 0.0
H668 H 0.06013 0.14977 0.03995 0.0
H669 H 0.0534 0.19306 0.0407 0.0
H670 H 1.00509 0.1182 0.87786 0.0
H671 H 1.00086 0.162 0.87723 0.0
H672 H 0.04114 0.09105 0.89344 0.0
H673 H 0.05282 0.07581 0.93131 0.0
C674 C 0.16528 0.84203 0.20579 0.0
C675 C 0.13671 0.81551 0.19857 0.0
C676 C 0.1477 0.79185 0.25225 0.0
C677 C 0.17939 0.81285 0.25566 0.0
N678 N 0.21684 0.86217 0.23895 0.0
N679 N 0.10514 0.76008 0.21231 0.0
C680 C 0.18785 0.83911 0.23314 0.0
C681 C 0.12905 0.7891 0.22114 0.0
N682 N 0.17006 0.87062 0.18757 0.0
N683 N 0.13455 0.77547 0.27889 0.0
H684 H 0.09201 0.75525 0.18887 0.0
H685 H 0.10114 0.73868 0.22674 0.0
H686 H 0.14597 0.77921 0.30315 0.0
H687 H 0.11044 0.76206 0.278 0.0
H688 H 0.18905 0.89218 0.19289 0.0
H689 H 0.15337 0.87434 0.16861 0.0
H690 H 0.2264 0.87984 0.22206 0.0
H691 H 0.23193 0.86283 0.26073 0.0
C692 C 0.4734 0.85785 0.45031 0.0
C693 C 0.49525 0.85497 0.42372 0.0
C694 C 0.51559 0.91862 0.43452 0.0
C695 C 0.49832 0.92008 0.4647 0.0
N696 N 0.46332 0.88954 0.50365 0.0
N697 N 0.54388 0.88267 0.39787 0.0
C698 C 0.4778 0.88929 0.47326 0.0
C699 C 0.51813 0.88538 0.41763 0.0
N700 N 0.44758 0.8313 0.45289 0.0
N701 N 0.52914 0.94898 0.42145 0.0
H702 H 0.54921 0.85868 0.38772 0.0
H703 H 0.56251 0.90407 0.39542 0.0
H704 H 0.52644 0.97393 0.43204 0.0
H705 H 0.53954 0.94896 0.39789 0.0
H706 H 0.42929 0.83328 0.46977 0.0
H707 H 0.4424 0.80914 0.4353 0.0
H708 H 0.45108 0.86671 0.51282 0.0
H709 H 0.46583 0.91209 0.52095 0.0
C710 C 0.44796 0.25484 0.70145 0.0
C711 C 0.46313 0.28805 0.6919 0.0
C712 C 0.4245 0.31677 0.72461 0.0
C713 C 0.40705 0.28321 0.73089 0.0
N714 N 0.39903 0.21957 0.72003 0.0
N715 N 0.46377 0.35031 0.69123 0.0
C716 C 0.41805 0.25197 0.71821 0.0
C717 C 0.45065 0.31887 0.70246 0.0
N718 N 0.46208 0.22596 0.69449 0.0
N719 N 0.41697 0.34676 0.74107 0.0
H720 H 0.48398 0.35306 0.67657 0.0
H721 H 0.4533 0.37277 0.69426 0.0
H722 H 0.39892 0.34627 0.75863 0.0
H723 H 0.43069 0.37194 0.74014 0.0
H724 H 0.4544 0.20203 0.70437 0.0
H725 H 0.48297 0.22664 0.68074 0.0
H726 H 0.40403 0.19624 0.70783 0.0
H727 H 0.3766 0.21602 0.7311 0.0
C728 C 0.04867 0.8785 0.57058 0.0
C729 C 0.01728 0.86022 0.57726 0.0
C730 C 0.99175 0.89616 0.53972 0.0
C731 C 0.02316 0.91572 0.53428 0.0
N732 N 0.08147 0.92165 0.53882 0.0
N733 N 0.95883 0.85357 0.57169 0.0
C734 C 0.05161 0.9057 0.54819 0.0
C735 C 0.98882 0.86932 0.56243 0.0
N736 N 0.07557 0.87052 0.58663 0.0
N737 N 0.96464 0.90292 0.52304 0.0
H738 H 0.95565 0.83364 0.58785 0.0
H739 H 0.93716 0.86184 0.56572 0.0
H740 H 0.96504 0.92316 0.50754 0.0
H741 H 0.94164 0.88705 0.52253 0.0
H742 H 0.09917 0.8846 0.58575 0.0
H743 H 0.07409 0.8506 0.60278 0.0
H744 H 0.10346 0.9147 0.54589 0.0
H745 H 0.08409 0.94054 0.5215 0.0
C746 C 0.44517 0.77117 0.84376 0.0
C747 C 0.4635 0.80197 0.86256 0.0
C748 C 0.42701 0.83789 0.83853 0.0
C749 C 0.40929 0.80703 0.81923 0.0
N750 N 0.40794 0.74701 0.79533 0.0
N751 N 0.47618 0.86554 0.87281 0.0
C752 C 0.42038 0.7745 0.81939 0.0
C753 C 0.45575 0.83567 0.85835 0.0
N754 N 0.45029 0.7385 0.85027 0.0
N755 N 0.41568 0.86888 0.83918 0.0
H756 H 0.4967 0.86483 0.88834 0.0
H757 H 0.47433 0.89092 0.86749 0.0
H758 H 0.39457 0.87143 0.82551 0.0
H759 H 0.42607 0.89174 0.85468 0.0
H760 H 0.43513 0.71509 0.84007 0.0
H761 H 0.46778 0.7347 0.86837 0.0
H762 H 0.41715 0.72373 0.79215 0.0
H763 H 0.39095 0.74906 0.77594 0.0
C764 C 0.50696 0.15109 0.09368 0.0
C765 C 0.48741 0.17004 0.07558 0.0
C766 C 0.47709 0.12138 0.02935 0.0
C767 C 0.50286 0.10712 0.04369 0.0
N768 N 0.54236 0.10823 0.09004 0.0
N769 N 0.45002 0.17193 0.02857 0.0
C770 C 0.5173 0.12145 0.0764 0.0
C771 C 0.47067 0.15423 0.04443 0.0
N772 N 0.51629 0.162 0.12705 0.0
N773 N 0.45925 0.10379 1.00113 0.0
H774 H 0.44386 0.19499 0.04029 0.0
H775 H 0.43985 0.16456 0.00391 0.0
H776 H 0.46374 0.07998 0.98938 0.0
H777 H 0.43851 0.11118 0.9909 0.0
H778 H 0.52853 0.14776 0.14253 0.0
H779 H 0.50872 0.18346 0.14021 0.0
H780 H 0.55664 0.12005 0.1117 0.0
H781 H 0.55013 0.08642 0.07823 0.0
C782 C 0.13378 0.27983 0.30965 0.0
C783 C 0.12492 0.25747 0.33551 0.0
C784 C 0.16954 0.2257 0.3209 0.0
C785 C 0.17874 0.24884 0.29536 0.0
N786 N 0.16195 0.28836 0.25784 0.0
N787 N 0.12931 0.20462 0.36113 0.0
C788 C 0.15838 0.2729 0.28744 0.0
C789 C 0.14119 0.22885 0.33957 0.0
N790 N 0.11982 0.30886 0.30717 0.0
N791 N 0.18843 0.20185 0.32855 0.0
H792 H 0.10912 0.20671 0.37541 0.0
H793 H 0.13758 0.18111 0.36315 0.0
H794 H 0.20953 0.19875 0.31653 0.0
H795 H 0.18443 0.18599 0.34828 0.0
H796 H 0.12819 0.32844 0.29163 0.0
H797 H 0.10165 0.31507 0.32274 0.0
H798 H 0.14605 0.30369 0.24892 0.0
H799 H 0.1786 0.28234 0.24023 0.0
C800 C 0.96208 0.01537 0.13611 0.0
C801 C 0.95166 0.04559 0.1515 0.0
C802 C 0.98477 0.08095 0.11203 0.0
C803 C 0.99963 0.05155 0.10178 0.0
N804 N 1.00843 0.99411 0.11406 0.0
N805 N 0.95393 0.10828 0.15486 0.0
C806 C 0.98964 0.01947 0.11614 0.0
C807 C 0.96295 0.0788 0.1394 0.0
N808 N 0.94633 0.98254 0.14181 0.0
N809 N 0.99121 0.11061 0.09554 0.0
H810 H 0.93728 0.10698 0.17393 0.0
H811 H 0.96397 0.13379 0.1498 0.0
H812 H 1.00721 0.11293 0.07589 0.0
H813 H 0.97888 0.13159 0.09958 0.0
H814 H 0.95151 0.95961 0.12897 0.0
H815 H 0.92587 0.97874 0.15637 0.0
H816 H 1.00396 0.97228 0.12785 0.0
H817 H 0.03092 0.99756 0.1031 0.0
C818 C 0.29575 0.70976 0.44009 0.0
C819 C 0.27391 0.67779 0.44349 0.0
C820 C 0.23527 0.6932 0.40206 0.0
C821 C 0.25563 0.72686 0.40202 0.0
N822 N 0.3018 0.76998 0.42635 0.0
N823 N 0.22089 0.64077 0.43115 0.0
C824 C 0.28474 0.73608 0.42285 0.0
C825 C 0.24312 0.66976 0.42527 0.0
N826 N 0.3274 0.71448 0.45263 0.0
N827 N 0.20862 0.68357 0.37968 0.0
H828 H 0.22619 0.62265 0.44727 0.0
H829 H 0.1967 0.63588 0.4217 0.0
H830 H 0.2009 0.70096 0.36394 0.0
H831 H 0.19517 0.65794 0.37559 0.0
H832 H 0.34524 0.73586 0.44812 0.0
H833 H 0.33662 0.69501 0.4643 0.0
H834 H 0.32189 0.77879 0.44346 0.0
H835 H 0.29375 0.79021 0.41489 0.0
C836 C 0.59783 0.01685 0.6325 0.0
C837 C 0.59281 0.98517 0.64775 0.0
C838 C 0.54666 0.9621 0.60655 0.0
C839 C 0.54682 0.9971 0.59841 0.0
N840 N 0.56821 0.05931 0.61347 0.0
N841 N 0.56348 0.92605 0.64864 0.0
C842 C 0.57158 0.02497 0.61344 0.0
C843 C 0.56782 0.95693 0.63406 0.0
N844 N 0.62612 0.04082 0.6395 0.0
N845 N 0.52675 0.93417 0.58819 0.0
H846 H 0.57967 0.92194 0.66801 0.0
H847 H 0.54356 0.90561 0.64243 0.0
H848 H 0.51146 0.93723 0.56766 0.0
H849 H 0.52757 0.90797 0.59151 0.0
H850 H 0.63113 0.06403 0.62769 0.0
H851 H 0.64547 0.03542 0.65433 0.0
H852 H 0.58389 0.07968 0.6283 0.0
H853 H 0.54736 0.06673 0.60343 0.0
C854 C 0.2589 0.36309 0.91151 0.0
C855 C 0.28179 0.35834 0.93737 0.0
C856 C 0.30331 0.31769 0.89582 0.0
C857 C 0.28377 0.32669 0.86908 0.0
N858 N 0.24741 0.36478 0.85151 0.0
N859 N 0.33005 0.33547 0.95159 0.0
C860 C 0.2629 0.3514 0.87691 0.0
C861 C 0.30517 0.33682 0.92879 0.0
N862 N 0.23199 0.37683 0.91993 0.0
N863 N 0.31884 0.28965 0.89051 0.0
H864 H 0.33274 0.34975 0.97535 0.0
H865 H 0.34972 0.32338 0.94553 0.0
H866 H 0.31704 0.27385 0.86738 0.0
H867 H 0.33053 0.27968 0.91011 0.0
H868 H 0.21286 0.37729 0.90236 0.0
H869 H 0.22668 0.38365 0.94495 0.0
H870 H 0.23501 0.38566 0.8561 0.0
H871 H 0.24952 0.3579 0.82572 0.0
C872 C 0.90603 0.00552 0.34624 0.0
C873 C 0.92205 0.0318 0.32657 0.0
C874 C 0.97014 0.04209 0.36706 0.0
C875 C 0.9561 0.01213 0.38315 0.0
N876 N 0.91135 0.96437 0.38793 0.0
N877 N 0.96842 0.07771 0.3202 0.0
C878 C 0.92407 0.99386 0.37295 0.0
C879 C 0.95388 0.05074 0.33758 0.0
N880 N 0.87356 0.99186 0.33996 0.0
N881 N 0.99806 0.06367 0.38123 0.0
H882 H 0.95574 0.08911 0.3024 0.0
H883 H 0.99321 0.08854 0.32298 0.0
H884 H 0.01065 0.05865 0.40292 0.0
H885 H 1.00749 0.08821 0.37343 0.0
H886 H 0.85976 0.97637 0.35625 0.0
H887 H 0.85957 0.99738 0.31959 0.0
H888 H 0.88982 0.94724 0.37909 0.0
H889 H 0.92369 0.95537 0.40775 0.0
C890 C 0.33709 0.73785 0.61864 0.0
C891 C 0.31583 0.70459 0.61424 0.0
C892 C 0.28384 0.72323 0.65992 0.0
C893 C 0.30508 0.75674 0.66573 0.0
N894 N 0.3475 0.79878 0.64438 0.0
N895 N 0.27729 0.66163 0.63843 0.0
C896 C 0.33102 0.76481 0.64369 0.0
C897 C 0.29251 0.6959 0.63805 0.0
N898 N 0.36237 0.74337 0.59773 0.0
N899 N 0.25359 0.71863 0.6723 0.0
H900 H 0.28357 0.64118 0.6224 0.0
H901 H 0.26146 0.65341 0.65706 0.0
H902 H 0.24492 0.73954 0.68474 0.0
H903 H 0.23598 0.6958 0.66631 0.0
H904 H 0.3803 0.76606 0.59966 0.0
H905 H 0.36643 0.72336 0.57959 0.0
H906 H 0.36648 0.80685 0.629 0.0
H907 H 0.33969 0.81997 0.65773 0.0
C908 C 0.57117 1.00239 0.82817 0.0
C909 C 0.59914 0.02759 0.82239 0.0
C910 C 0.58578 0.06827 0.86876 0.0
C911 C 0.55778 0.04292 0.87427 0.0
N912 N 0.51742 0.99287 0.85004 0.0
N913 N 0.62875 0.08762 0.83151 0.0
C914 C 0.54827 0.01227 0.85096 0.0
C915 C 0.6053 0.06151 0.84108 0.0
N916 N 0.56713 0.96849 0.81298 0.0
N917 N 0.59369 0.09881 0.89021 0.0
H918 H 0.64307 0.08364 0.81108 0.0
H919 H 0.6323 0.11387 0.84192 0.0
H920 H 0.57784 0.10646 0.90803 0.0
H921 H 0.61607 0.116 0.8909 0.0
H922 H 0.54878 0.94824 0.81884 0.0
H923 H 0.58407 0.95964 0.79721 0.0
H924 H 0.5088 0.9715 0.8319 0.0
H925 H 0.49901 1.00115 0.86389 0.0
C926 C 0.29387 0.33464 0.13862 0.0
C927 C 0.26645 0.33867 0.11828 0.0
C928 C 0.23123 0.30109 0.15465 0.0
C929 C 0.25941 0.29329 0.17154 0.0
N930 N 0.31706 0.29405 0.16984 0.0
N931 N 0.20851 0.32505 0.10606 0.0
C932 C 0.29065 0.30813 0.16129 0.0
C933 C 0.23482 0.32211 0.12639 0.0
N934 N 0.32349 0.3554 0.13526 0.0
N935 N 0.20113 0.28771 0.16509 0.0
H936 H 0.2106 0.34108 0.0862 0.0
H937 H 0.18509 0.31083 0.10793 0.0
H938 H 0.19794 0.27113 0.18446 0.0
H939 H 0.17966 0.29463 0.15617 0.0
H940 H 0.34388 0.35534 0.15132 0.0
H941 H 0.32653 0.37512 0.11878 0.0
H942 H 0.33956 0.30106 0.1594 0.0
H943 H 0.31508 0.27171 0.18284 0.0
C944 C 0.18564 0.95802 0.04959 0.0
C945 C 0.2034 0.96174 0.01985 0.0
C946 C 0.18312 0.01611 0.01169 0.0
C947 C 0.1616 0.00915 0.03786 0.0
N948 N 0.14084 0.97347 0.08154 0.0
N949 N 0.21642 0.99217 0.97009 0.0
C950 C 0.16269 0.98029 0.05707 0.0
C951 C 0.20183 0.99052 1.00043 0.0
N952 N 0.19133 0.9339 0.07104 0.0
N953 N 0.18515 0.0471 0.99737 0.0
H954 H 0.2294 0.97331 0.96017 0.0
H955 H 0.21318 0.01039 0.95315 0.0
H956 H 0.1718 0.06625 0.00585 0.0
H957 H 0.20219 0.05531 0.97987 0.0
H958 H 0.18124 0.93193 0.0946 0.0
H959 H 0.20852 0.91782 0.0666 0.0
H960 H 0.13766 0.95063 0.09386 0.0
H961 H 0.12481 0.99033 0.08856 0.0
C962 C 0.66813 0.58161 1.00127 0.0
C963 C 0.67192 0.60424 0.9747 0.0
C964 C 0.61758 0.5754 0.94975 0.0
C965 C 0.61439 0.55178 0.97544 0.0
N966 N 0.63894 0.52796 0.02165 0.0
N967 N 0.65355 0.61687 0.91954 0.0
C968 C 0.64048 0.55351 0.9999 0.0
C969 C 0.64761 0.59931 0.94769 0.0
N970 N 0.68995 0.58802 0.02883 0.0
N971 N 0.59135 0.57649 0.92837 0.0
H972 H 0.67544 0.63403 0.91683 0.0
H973 H 0.63822 0.61181 0.89752 0.0
H974 H 0.56903 0.55937 0.92845 0.0
H975 H 0.59083 0.59631 0.91245 0.0
H976 H 0.68634 0.57545 0.05086 0.0
H977 H 0.71064 0.60787 0.03101 0.0
H978 H 0.65839 0.52547 0.03793 0.0
H979 H 0.61905 0.5072 0.02122 0.0
C980 C 0.70873 0.41443 0.23823 0.0
C981 C 0.71858 0.43883 0.26765 0.0
C982 C 0.77011 0.41614 0.27249 0.0
C983 C 0.75738 0.38751 0.2475 0.0
N984 N 0.72373 0.37131 0.19572 0.0
N985 N 0.75865 0.46247 0.31368 0.0
C986 C 0.72913 0.39001 0.22718 0.0
C987 C 0.74953 0.43992 0.28469 0.0
N988 N 0.68005 0.41484 0.22054 0.0
N989 N 0.80239 0.42215 0.28282 0.0
H990 H 0.74373 0.47876 0.32466 0.0
H991 H 0.77973 0.46295 0.32876 0.0
H992 H 0.81888 0.40864 0.27075 0.0
H993 H 0.81382 0.44385 0.29932 0.0
H994 H 0.6696 0.3957 0.20104 0.0
H995 H 0.66585 0.43397 0.22594 0.0
H996 H 0.70483 0.37269 0.17831 0.0
H997 H 0.74091 0.35764 0.18522 0.0
C998 C 0.87673 0.46178 0.49495 0.0
C999 C 0.86778 0.43529 0.46696 0.0
C1000 C 0.91974 0.45548 0.44181 0.0
C1001 C 0.92879 0.48121 0.47038 0.0
N1002 N 0.91094 0.51778 0.51575 0.0
N1003 N 0.87612 0.41405 0.40929 0.0
C1004 C 0.9054 0.4874 0.49398 0.0
C1005 C 0.88788 0.43429 0.43895 0.0
N1006 N 0.85945 0.46111 0.52365 0.0
N1007 N 0.94162 0.45022 0.41804 0.0
H1008 H 0.85262 0.39889 0.40617 0.0
H1009 H 0.88834 0.41503 0.38685 0.0
H1010 H 0.96316 0.46796 0.41607 0.0
H1011 H 0.9384 0.42787 0.40049 0.0
H1012 H 0.86736 0.47757 0.54597 0.0
H1013 H 0.83907 0.44198 0.52669 0.0
H1014 H 0.89349 0.52522 0.53165 0.0
H1015 H 0.93171 0.53729 0.51502 0.0
C1016 C 0.34612 0.09514 0.22795 0.0
C1017 C 0.36649 0.10345 0.25833 0.0
C1018 C 0.33824 0.15134 0.27616 0.0
C1019 C 0.31507 0.14024 0.2482 0.0
N1020 N 0.2954 0.10032 0.19823 0.0
N1021 N 0.37743 0.13497 0.31473 0.0
C1022 C 0.31864 0.11181 0.22415 0.0
C1023 C 0.36142 0.13033 0.28331 0.0
N1024 N 0.35354 0.07184 0.20256 0.0
N1025 N 0.33982 0.18314 0.29491 0.0
H1026 H 0.39536 0.12108 0.32145 0.0
H1027 H 0.37091 0.15078 0.33522 0.0
H1028 H 0.3245 0.2008 0.29051 0.0
H1029 H 0.35948 0.19392 0.31202 0.0
H1030 H 0.3415 0.06684 0.17857 0.0
H1031 H 0.3738 0.05972 0.20457 0.0
H1032 H 0.29479 0.07758 0.18168 0.0
H1033 H 0.27515 0.11218 0.19487 0.0
C1034 C 0.37298 0.12094 0.53127 0.0
C1035 C 0.34867 0.10738 0.50478 0.0
C1036 C 0.37363 0.05454 0.49403 0.0
C1037 C 0.39955 0.06965 0.51823 0.0
N1038 N 0.42655 0.11964 0.55663 0.0
N1039 N 0.33033 0.0649 0.45593 0.0
C1040 C 0.40006 0.10366 0.53575 0.0
C1041 C 0.35011 0.07503 0.48491 0.0
N1042 N 0.36942 0.14922 0.55336 0.0
N1043 N 0.3716 0.0207 0.47939 0.0
H1044 H 0.31403 0.07996 0.44726 0.0
H1045 H 0.33254 0.04366 0.43847 0.0
H1046 H 0.38893 0.00534 0.48444 0.0
H1047 H 0.35143 0.00686 0.46438 0.0
H1048 H 0.38442 0.15793 0.57532 0.0
H1049 H 0.34969 0.16211 0.55156 0.0
H1050 H 0.43036 0.1461 0.5665 0.0
H1051 H 0.44581 0.10708 0.56251 0.0
C1052 C 0.71114 0.64934 0.33427 0.0
C1053 C 0.69602 0.6249 0.30666 0.0
C1054 C 0.72896 0.65911 0.2669 0.0
C1055 C 0.74197 0.68534 0.29386 0.0
N1056 N 0.74246 0.70788 0.35296 0.0
N1057 N 0.68393 0.61265 0.24608 0.0
C1058 C 0.73229 0.68112 0.32757 0.0
C1059 C 0.70301 0.6316 0.27281 0.0
N1060 N 0.70585 0.64187 0.36684 0.0
N1061 N 0.74252 0.6591 0.236 0.0
H1062 H 0.66397 0.593 0.2493 0.0
H1063 H 0.68569 0.6193 0.22121 0.0
H1064 H 0.76272 0.67763 0.23092 0.0
H1065 H 0.73594 0.63844 0.21662 0.0
H1066 H 0.71882 0.65648 0.38815 0.0
H1067 H 0.68977 0.61952 0.37239 0.0
H1068 H 0.73336 0.70826 0.37711 0.0
H1069 H 0.75836 0.73109 0.34919 0.0
C1070 C 0.88166 0.41123 0.83916 0.0
C1071 C 0.88056 0.43654 0.81557 0.0
C1072 C 0.82485 0.40753 0.79788 0.0
C1073 C 0.82886 0.37787 0.81439 0.0
N1074 N 0.86321 0.35058 0.85014 0.0
N1075 N 0.85302 0.45062 0.76468 0.0
C1076 C 0.85773 0.37945 0.83528 0.0
C1077 C 0.85256 0.43273 0.79287 0.0
N1078 N 0.90465 0.4177 0.86563 0.0
N1079 N 0.79466 0.41088 0.78592 0.0
H1080 H 0.8742 0.46544 0.75658 0.0
H1081 H 0.8334 0.44639 0.74668 0.0
H1082 H 0.77383 0.39336 0.79128 0.0
H1083 H 0.79039 0.43316 0.77492 0.0
H1084 H 0.90469 0.40118 0.88493 0.0
H1085 H 0.92138 0.44139 0.87035 0.0
H1086 H 0.88558 0.34924 0.86206 0.0
H1087 H 0.84603 0.32738 0.84891 0.0
C1088 C 0.01354 0.89805 0.10347 0.0
C1089 C 0.04223 0.88308 0.10336 0.0
C1090 C 0.05865 0.91328 0.05283 0.0
C1091 C 0.02964 0.9276 0.05302 0.0
N1092 N 0.97419 0.9213 0.07022 0.0
N1093 N 0.09504 0.8817 0.0818 0.0
C1094 C 1.00532 0.91593 0.07551 0.0
C1095 C 0.06547 0.89184 0.07872 0.0
N1096 N 0.99522 0.89788 0.13132 0.0
N1097 N 0.07908 0.91957 0.02698 0.0
H1098 H 0.10179 0.86951 0.10263 0.0
H1099 H 0.11406 0.88806 0.06598 0.0
H1100 H 0.07339 0.93341 0.00687 0.0
H1101 H 0.10001 0.90898 0.02359 0.0
H1102 H 0.97477 0.90959 0.1332 0.0
H1103 H 1.0031 0.8914 0.15469 0.0
H1104 H 0.9549 0.90997 0.08393 0.0
H1105 H 0.96649 0.93262 0.04933 0.0
C1106 C 0.87617 0.24193 0.85006 0.0
C1107 C 0.9086 0.24949 0.8398 0.0
C1108 C 0.88551 0.25212 0.78228 0.0
C1109 C 0.85457 0.25541 0.79501 0.0
N1110 N 0.82423 0.25881 0.84612 0.0
N1111 N 0.94349 0.26877 0.79463 0.0
C1112 C 0.85081 0.25161 0.83031 0.0
C1113 C 0.91329 0.25639 0.80542 0.0
N1114 N 0.86933 0.22522 0.87854 0.0
N1115 N 0.88858 0.24351 0.74843 0.0
H1116 H 0.96458 0.27516 0.81052 0.0
H1117 H 0.9468 0.27662 0.7703 0.0
H1118 H 0.86851 0.23525 0.73118 0.0
H1119 H 0.91055 0.23912 0.73876 0.0
H1120 H 0.84585 0.21889 0.88689 0.0
H1121 H 0.88645 0.21385 0.89126 0.0
H1122 H 0.8227 0.2603 0.87248 0.0
H1123 H 0.80549 0.26696 0.83358 0.0
C1124 C 0.56156 0.17847 0.60471 0.0
C1125 C 0.54365 0.20189 0.591 0.0
C1126 C 0.52412 0.15688 0.54285 0.0
C1127 C 0.5453 0.13521 0.55501 0.0
N1128 N 0.59236 0.13264 0.59161 0.0
N1129 N 0.50885 0.21475 0.54588 0.0
C1130 C 0.56656 0.14812 0.58409 0.0
C1131 C 0.52506 0.19138 0.55971 0.0
N1132 N 0.57277 0.18446 0.63794 0.0
N1133 N 0.50345 0.14465 0.51488 0.0
H1134 H 0.50723 0.23912 0.55885 0.0
H1135 H 0.4981 0.21068 0.52128 0.0
H1136 H 0.50477 0.12157 0.49951 0.0
H1137 H 0.48441 0.15676 0.50744 0.0
H1138 H 0.5843 0.16684 0.64991 0.0
H1139 H 0.56585 0.20414 0.65436 0.0
H1140 H 0.61019 0.14379 0.61066 0.0
H1141 H 0.59822 0.11139 0.57657 0.0
C1142 C 0.60697 0.75262 0.34344 0.0
C1143 C 0.58242 0.77007 0.33139 0.0
C1144 C 0.61521 0.78644 0.28297 0.0
C1145 C 0.64102 0.77195 0.29682 0.0
N1146 N 0.66407 0.74836 0.34469 0.0
N1147 N 0.56574 0.8093 0.29319 0.0
C1148 C 0.63762 0.75687 0.32824 0.0
C1149 C 0.5872 0.7885 0.30204 0.0
N1150 N 0.6007 0.73095 0.36868 0.0
N1151 N 0.61693 0.79721 0.25107 0.0
H1152 H 0.54534 0.81216 0.30684 0.0
H1153 H 0.56979 0.82634 0.27433 0.0
H1154 H 0.63686 0.79581 0.23623 0.0
H1155 H 0.59743 0.80444 0.23808 0.0
H1156 H 0.61634 0.71451 0.37585 0.0
H1157 H 0.5785 0.72678 0.38025 0.0
H1158 H 0.66373 0.74083 0.36928 0.0
H1159 H 0.68735 0.75235 0.33548 0.0
C1160 C 1.00392 0.16858 0.44791 0.0
C1161 C 0.03431 0.19208 0.44919 0.0
C1162 C 0.05939 0.15177 0.48173 0.0
C1163 C 0.02816 0.12978 0.48317 0.0
N1164 N 0.96986 0.12114 0.47291 0.0
N1165 N 0.09034 0.20862 0.47044 0.0
C1166 C 1.00022 0.13927 0.46757 0.0
C1167 C 0.06187 0.18435 0.46697 0.0
N1168 N 0.97863 0.17412 0.42747 0.0
N1169 N 0.08696 0.14101 0.49292 0.0
H1170 H 0.09364 0.23172 0.45837 0.0
H1171 H 0.11001 0.20697 0.48681 0.0
H1172 H 0.08678 0.11778 0.50412 0.0
H1173 H 0.11043 0.15371 0.48866 0.0
H1174 H 0.95679 0.15609 0.42254 0.0
H1175 H 0.98075 0.19532 0.41281 0.0
H1176 H 0.94832 0.1286 0.46494 0.0
H1177 H 0.96617 0.10075 0.48855 0.0
C1178 C 0.60935 0.23726 0.14178 0.0
C1179 C 0.59964 0.2708 0.14546 0.0
C1180 C 0.64362 0.29217 0.18981 0.0
C1181 C 0.65574 0.26035 0.18298 0.0
N1182 N 0.65042 0.20204 0.15392 0.0
N1183 N 0.60737 0.33046 0.1722 0.0
C1184 C 0.63847 0.23256 0.15957 0.0
C1185 C 0.61654 0.29822 0.16957 0.0
N1186 N 0.5903 0.20984 0.12163 0.0
N1187 N 0.65747 0.31609 0.21647 0.0
H1188 H 0.5874 0.33556 0.15821 0.0
H1189 H 0.62042 0.35278 0.18671 0.0
H1190 H 0.67716 0.31242 0.23187 0.0
H1191 H 0.64783 0.33798 0.22538 0.0
H1192 H 0.59408 0.18394 0.11957 0.0
H1193 H 0.569 0.21239 0.10827 0.0
H1194 H 0.64027 0.18109 0.13609 0.0
H1195 H 0.6714 0.19781 0.16678 0.0
C1196 C 0.57764 0.87558 0.96914 0.0
C1197 C 0.57221 0.87292 0.93323 0.0
C1198 C 0.56099 0.93325 0.94013 0.0
C1199 C 0.55845 0.93164 0.97578 0.0
N1200 N 0.55612 0.89408 0.02182 0.0
N1201 N 0.55619 0.90093 0.88432 0.0
C1202 C 0.56468 0.90095 0.98981 0.0
C1203 C 0.56342 0.90227 0.91846 0.0
N1204 N 0.59557 0.85421 0.98372 0.0
N1205 N 0.5624 0.96462 0.92688 0.0
H1206 H 0.55787 0.87983 0.86665 0.0
H1207 H 0.54559 0.92009 0.87376 0.0
H1208 H 0.56223 0.9879 0.94212 0.0
H1209 H 0.56784 0.96813 0.9018 0.0
H1210 H 0.60173 0.85702 0.0098 0.0
H1211 H 0.60779 0.83722 0.96933 0.0
H1212 H 0.55857 0.87053 0.03153 0.0
H1213 H 0.54221 0.90875 0.03655 0.0
C1214 C 0.90103 0.75185 0.67485 0.0
C1215 C 0.92964 0.77768 0.68244 0.0
C1216 C 0.90463 0.80174 0.73309 0.0
C1217 C 0.87469 0.77836 0.72322 0.0
N1218 N 0.84289 0.73719 0.67855 0.0
N1219 N 0.95727 0.83083 0.71609 0.0
C1220 C 0.8725 0.75494 0.69251 0.0
C1221 C 0.93111 0.80361 0.71091 0.0
N1222 N 0.90117 0.72359 0.6513 0.0
N1223 N 0.90824 0.82128 0.76413 0.0
H1224 H 0.97689 0.83329 0.70041 0.0
H1225 H 0.95823 0.85255 0.73409 0.0
H1226 H 0.88962 0.82018 0.78105 0.0
H1227 H 0.93045 0.83607 0.77435 0.0
H1228 H 0.88217 0.70178 0.64767 0.0
H1229 H 0.92159 0.72015 0.6379 0.0
H1230 H 0.83986 0.72302 0.6545 0.0
H1231 H 0.82078 0.74005 0.68856 0.0
C1232 C 0.12336 0.03619 0.90273 0.0
C1233 C 0.11958 0.00627 0.87836 0.0
C1234 C 0.07611 0.97529 0.91143 0.0
C1235 C 0.0778 0.00641 0.93436 0.0
N1236 N 0.1138 0.0601 0.9591 0.0
N1237 N 0.09122 0.94769 0.85792 0.0
C1238 C 0.10443 0.03515 0.9321 0.0
C1239 C 0.09572 0.97586 0.8824 0.0
N1240 N 0.14441 0.06632 0.89725 0.0
N1241 N 0.05791 0.94425 0.9191 0.0
H1242 H 0.10626 0.94622 0.83756 0.0
H1243 H 0.07153 0.9267 0.85654 0.0
H1244 H 0.04648 0.94191 0.94196 0.0
H1245 H 0.0575 0.91989 0.90528 0.0
H1246 H 0.14474 0.09079 0.91088 0.0
H1247 H 0.15993 0.06753 0.8772 0.0
H1248 H 0.13391 0.0805 0.95978 0.0
H1249 H 0.10531 0.0571 0.98299 0.0
C1250 C 0.81421 0.3669 0.5971 0.0
C1251 C 0.7839 0.36514 0.57908 0.0
C1252 C 0.75461 0.34079 0.62642 0.0
C1253 C 0.78502 0.33829 0.64241 0.0
N1254 N 0.8438 0.34919 0.64451 0.0
N1255 N 0.72519 0.35107 0.57529 0.0
C1256 C 0.81489 0.35169 0.62832 0.0
C1257 C 0.754 0.35302 0.59371 0.0
N1258 N 0.84218 0.38348 0.58424 0.0
N1259 N 0.72632 0.33061 0.64215 0.0
H1260 H 0.72389 0.36074 0.55166 0.0
H1261 H 0.70262 0.33865 0.58245 0.0
H1262 H 0.72545 0.3184 0.66453 0.0
H1263 H 0.70379 0.33558 0.634 0.0
H1264 H 0.86499 0.38857 0.59715 0.0
H1265 H 0.84213 0.39477 0.56134 0.0
H1266 H 0.86634 0.35472 0.63391 0.0
H1267 H 0.84527 0.34007 0.66839 0.0
C1268 C 0.44361 0.03947 0.40011 0.0
C1269 C 0.45736 0.06307 0.3772 0.0
C1270 C 0.50521 0.08362 0.41701 0.0
C1271 C 0.49493 0.05474 0.43608 0.0
N1272 N 0.45115 0.00775 0.44755 0.0
N1273 N 0.5009 0.10883 0.36363 0.0
C1274 C 0.46309 0.03383 0.42837 0.0
C1275 C 0.48803 0.08562 0.38568 0.0
N1276 N 0.41173 0.0225 0.39556 0.0
N1277 N 0.5302 0.11018 0.42972 0.0
H1278 H 0.48793 0.11317 0.34184 0.0
H1279 H 0.52491 0.12253 0.36615 0.0
H1280 H 0.54119 0.11131 0.45401 0.0
H1281 H 0.53708 0.13332 0.41829 0.0
H1282 H 0.3993 0.00917 0.41421 0.0
H1283 H 0.39652 0.0231 0.37434 0.0
H1284 H 0.43377 0.98557 0.43837 0.0
H1285 H 0.45552 0.01123 0.47355 0.0
C1286 C 0.73562 0.69081 0.10764 0.0
C1287 C 0.76283 0.70173 0.08813 0.0
C1288 C 0.78799 0.74375 0.13656 0.0
C1289 C 0.76214 0.73081 0.15728 0.0
N1290 N 0.71471 0.6861 0.16368 0.0
N1291 N 0.81786 0.73312 0.08629 0.0
C1292 C 0.73686 0.70265 0.14315 0.0
C1293 C 0.79003 0.72625 0.10348 0.0
N1294 N 0.70812 0.66983 0.09204 0.0
N1295 N 0.80946 0.77427 0.1474 0.0
H1296 H 0.81996 0.72103 0.06192 0.0
H1297 H 0.8397 0.74798 0.09744 0.0
H1298 H 0.80775 0.78945 0.17025 0.0
H1299 H 0.82671 0.78678 0.13206 0.0
H1300 H 0.68615 0.66435 0.10383 0.0
H1301 H 0.70663 0.65997 0.06643 0.0
H1302 H 0.69819 0.66295 0.15549 0.0
H1303 H 0.71472 0.69342 0.18971 0.0
C1304 C 0.1115 1.00122 0.67712 0.0
C1305 C 0.12185 0.03176 0.70048 0.0
C1306 C 0.10539 0.06917 0.65843 0.0
C1307 C 0.0943 0.03862 0.63531 0.0
N1308 N 0.09202 0.97614 0.61982 0.0
N1309 N 0.13542 0.09526 0.71125 0.0
C1310 C 0.0994 0.00489 0.64362 0.0
C1311 C 0.12098 0.06589 0.69031 0.0
N1312 N 0.11105 0.96856 0.68774 0.0
N1313 N 0.10034 0.10134 0.65019 0.0
H1314 H 0.14609 0.09395 0.73521 0.0
H1315 H 0.13913 0.12079 0.70411 0.0
H1316 H 0.09124 0.10525 0.6262 0.0
H1317 H 0.10373 0.12396 0.66742 0.0
H1318 H 0.09983 0.94502 0.67374 0.0
H1319 H 0.12041 0.96491 0.71168 0.0
H1320 H 0.09887 0.95202 0.6227 0.0
H1321 H 0.08065 0.97667 0.59607 0.0
C1322 C 0.75453 0.35946 0.36931 0.0
C1323 C 0.75284 0.34481 0.40087 0.0
C1324 C 0.75323 0.28667 0.36928 0.0
C1325 C 0.75088 0.30157 0.33826 0.0
N1326 N 0.73153 0.34808 0.31197 0.0
N1327 N 0.73853 0.29033 0.42776 0.0
C1328 C 0.74598 0.33671 0.33914 0.0
C1329 C 0.74881 0.30712 0.40022 0.0
N1330 N 0.76629 0.39435 0.36712 0.0
N1331 N 0.75948 0.25332 0.36942 0.0
H1332 H 0.73017 0.30298 0.44915 0.0
H1333 H 0.73355 0.2629 0.42719 0.0
H1334 H 0.76201 0.23758 0.34707 0.0
H1335 H 0.76449 0.24264 0.39181 0.0
H1336 H 0.76888 0.40421 0.3436 0.0
H1337 H 0.77842 0.41162 0.3873 0.0
H1338 H 0.72532 0.37307 0.31324 0.0
H1339 H 0.72169 0.33085 0.29066 0.0
C1340 C 0.49951 0.02546 0.19765 0.0
C1341 C 0.46726 0.00969 0.2042 0.0
C1342 C 0.45701 0.98642 0.14414 0.0
C1343 C 0.49047 0.99838 0.13909 0.0
N1344 N 0.54501 0.02308 0.16225 0.0
N1345 N 0.41563 0.97254 0.18433 0.0
C1346 C 0.51217 0.01598 0.16626 0.0
C1347 C 0.446 0.98942 0.17764 0.0
N1348 N 0.51748 0.05095 0.22073 0.0
N1349 N 0.43538 0.97417 0.11689 0.0
H1350 H 0.40567 0.97597 0.2078 0.0
H1351 H 0.40097 0.95361 0.16705 0.0
H1352 H 0.44228 0.97167 0.09185 0.0
H1353 H 0.41018 0.96914 0.11874 0.0
H1354 H 0.53993 0.06567 0.21567 0.0
H1355 H 0.50834 0.06034 0.2433 0.0
H1356 H 0.56216 0.03287 0.18234 0.0
H1357 H 0.55532 0.0157 0.13967 0.0
C1358 C 0.81386 0.70938 0.89174 0.0
C1359 C 0.783 0.70264 0.90661 0.0
C1360 C 0.76258 0.74154 0.86805 0.0
C1361 C 0.79214 0.74514 0.85086 0.0
N1362 N 0.84922 0.74318 0.85412 0.0
N1363 N 0.72708 0.71016 0.9069 0.0
C1364 C 0.81874 0.73199 0.86489 0.0
C1365 C 0.75724 0.71845 0.89435 0.0
N1366 N 0.83857 0.69385 0.90301 0.0
N1367 N 0.74063 0.76245 0.86106 0.0
H1368 H 0.72194 0.6922 0.92479 0.0
H1369 H 0.70645 0.71861 0.89779 0.0
H1370 H 0.74452 0.78096 0.84347 0.0
H1371 H 0.72031 0.76436 0.87505 0.0
H1372 H 0.86001 0.69356 0.89053 0.0
H1373 H 0.83712 0.67958 0.9241 0.0
H1374 H 0.87051 0.73844 0.86578 0.0
H1375 H 0.85355 0.75951 0.83464 0.0
C1376 C 0.85568 0.05739 1.00131 0.0
C1377 C 0.86134 0.09295 0.01687 0.0
C1378 C 0.92004 0.09451 0.01659 0.0
C1379 C 0.91442 0.05763 0.00573 0.0
N1380 N 0.87626 1.00271 0.9928 0.0
N1381 N 0.89897 0.14268 0.04567 0.0
C1382 C 0.88205 0.03865 0.99943 0.0
C1383 C 0.89355 0.11071 0.02639 0.0
N1384 N 0.82565 0.04196 0.9867 0.0
N1385 N 0.95045 0.11466 0.01588 0.0
H1386 H 0.88009 0.15499 0.05408 0.0
H1387 H 0.92192 0.15502 0.0563 0.0
H1388 H 0.97013 0.1046 0.00632 0.0
H1389 H 0.95518 0.14211 0.02067 0.0
H1390 H 0.82125 0.01757 0.97201 0.0
H1391 H 0.80586 0.05486 0.98621 0.0
H1392 H 0.85298 0.98724 0.99176 0.0
H1393 H 0.89487 0.98808 0.99123 0.0
C1394 C 0.3902 0.46414 0.06378 0.0
C1395 C 0.37788 0.44049 0.03472 0.0
C1396 C 0.42591 0.46412 0.0043 0.0
C1397 C 0.43894 0.48804 0.03357 0.0
N1398 N 0.42476 0.51987 0.08487 0.0
N1399 N 0.3784 0.42691 0.97412 0.0
C1400 C 0.41849 0.49074 0.06152 0.0
C1401 C 0.39409 0.44317 0.00408 0.0
N1402 N 0.3754 0.46087 0.09379 0.0
N1403 N 0.44356 0.46053 0.97649 0.0
H1404 H 0.35464 0.41248 0.97269 0.0
H1405 H 0.38739 0.43097 0.95032 0.0
H1406 H 0.46365 0.4788 0.97201 0.0
H1407 H 0.4382 0.4389 0.95799 0.0
H1408 H 0.38545 0.4748 0.11677 0.0
H1409 H 0.35436 0.44221 0.09609 0.0
H1410 H 0.40941 0.52432 0.10433 0.0
H1411 H 0.44244 0.54193 0.08183 0.0
C1412 C 0.35649 0.65191 0.71761 0.0
C1413 C 0.34679 0.62097 0.73389 0.0
C1414 C 0.30149 0.64673 0.7583 0.0
C1415 C 0.31374 0.67931 0.74557 0.0
N1416 N 0.35501 0.7137 0.71469 0.0
N1417 N 0.31236 0.59057 0.77361 0.0
C1418 C 0.34182 0.68206 0.72565 0.0
C1419 C 0.31965 0.61864 0.75497 0.0
N1420 N 0.37894 0.65203 0.69332 0.0
N1421 N 0.27263 0.64264 0.77392 0.0
H1422 H 0.32516 0.56982 0.77261 0.0
H1423 H 0.29547 0.5892 0.79235 0.0
H1424 H 0.25954 0.66301 0.77819 0.0
H1425 H 0.26039 0.61843 0.78029 0.0
H1426 H 0.38432 0.67199 0.67743 0.0
H1427 H 0.38999 0.63044 0.68668 0.0
H1428 H 0.37766 0.71863 0.70418 0.0
H1429 H 0.34453 0.73602 0.71807 0.0
C1430 C 0.17162 0.60824 0.56411 0.0
C1431 C 0.19002 0.60209 0.53544 0.0
C1432 C 0.15086 0.54776 0.51699 0.0
C1433 C 0.12901 0.5586 0.54046 0.0
N1434 N 0.12062 0.59409 0.59156 0.0
N1435 N 0.19888 0.56413 0.48569 0.0
C1436 C 0.14018 0.58704 0.566 0.0
C1437 C 0.18057 0.57084 0.51262 0.0
N1438 N 0.18488 0.63337 0.59004 0.0
N1439 N 0.14277 0.51518 0.49888 0.0
H1440 H 0.22164 0.57909 0.48233 0.0
H1441 H 0.19085 0.54461 0.46563 0.0
H1442 H 0.12106 0.49792 0.50213 0.0
H1443 H 0.1586 0.50396 0.48343 0.0
H1444 H 0.17427 0.637 0.61317 0.0
H1445 H 0.20818 0.64865 0.58967 0.0
H1446 H 0.1246 0.61756 0.60767 0.0
H1447 H 0.10068 0.5756 0.5971 0.0
C1448 C 0.72193 0.94859 0.78089 0.0
C1449 C 0.69739 0.93995 0.75394 0.0
C1450 C 0.71494 0.8841 0.7385 0.0
C1451 C 0.7418 0.89437 0.76309 0.0
N1452 N 0.77349 0.93844 0.80442 0.0
N1453 N 0.67395 0.90297 0.70333 0.0
C1454 C 0.74598 0.92717 0.78349 0.0
C1455 C 0.6949 0.90874 0.73161 0.0
N1456 N 0.72169 0.9767 0.80458 0.0
N1457 N 0.70718 0.85023 0.72311 0.0
H1458 H 0.65835 0.92012 0.69781 0.0
H1459 H 0.67406 0.88286 0.68384 0.0
H1460 H 0.71924 0.83015 0.72894 0.0
H1461 H 0.68626 0.8408 0.70732 0.0
H1462 H 0.73672 0.98205 0.82681 0.0
H1463 H 0.7045 0.99304 0.80357 0.0
H1464 H 0.77966 0.96377 0.81716 0.0
H1465 H 0.7917 0.9235 0.8068 0.0
C1466 C 0.66809 0.93444 0.5397 0.0
C1467 C 0.69773 0.94637 0.52445 0.0
C1468 C 0.67546 0.99699 0.50652 0.0
C1469 C 0.64477 0.98321 0.51883 0.0
N1470 N 0.61005 0.93398 0.5404 0.0
N1471 N 0.72687 0.98493 0.48674 0.0
C1472 C 0.64058 0.95065 0.5337 0.0
C1473 C 0.70068 0.97657 0.50607 0.0
N1474 N 0.66639 0.9083 0.56079 0.0
N1475 N 0.68111 0.03024 0.49643 0.0
H1476 H 0.74541 0.97024 0.48471 0.0
H1477 H 0.72854 0.00424 0.46995 0.0
H1478 H 0.6636 0.04631 0.49697 0.0
H1479 H 0.70408 0.04318 0.49073 0.0
H1480 H 0.64668 0.90124 0.57568 0.0
H1481 H 0.68596 0.89591 0.56588 0.0
H1482 H 0.60521 0.90865 0.54806 0.0
H1483 H 0.58894 0.94356 0.53476 0.0
C1484 C 0.3597 0.41243 0.76329 0.0
C1485 C 0.36172 0.42878 0.73259 0.0
C1486 C 0.31516 0.38316 0.70791 0.0
C1487 C 0.31051 0.37044 0.74037 0.0
N1488 N 0.3224 0.38385 0.80099 0.0
N1489 N 0.33944 0.43095 0.67584 0.0
C1490 C 0.33126 0.38789 0.76857 0.0
C1491 C 0.33866 0.41466 0.70501 0.0
N1492 N 0.38441 0.42027 0.78804 0.0
N1493 N 0.29838 0.36452 0.67959 0.0
H1494 H 0.35769 0.45218 0.67179 0.0
H1495 H 0.32107 0.42456 0.65648 0.0
H1496 H 0.28143 0.34132 0.68037 0.0
H1497 H 0.30332 0.37031 0.65493 0.0
H1498 H 0.38497 0.40565 0.80881 0.0
H1499 H 0.40549 0.439 0.78695 0.0
H1500 H 0.3355 0.39822 0.82241 0.0
H1501 H 0.29945 0.37073 0.80608 0.0
C1502 C 0.18457 0.6307 0.21828 0.0
C1503 C 0.15923 0.62221 0.24089 0.0
C1504 C 0.17258 0.68237 0.26923 0.0
C1505 C 0.2006 0.68924 0.24993 0.0
N1506 N 0.23612 0.66803 0.20939 0.0
N1507 N 0.13307 0.63871 0.29213 0.0
C1508 C 0.20725 0.66306 0.22504 0.0
C1509 C 0.15403 0.64777 0.26731 0.0
N1510 N 0.1868 0.60815 0.19004 0.0
N1511 N 0.16333 0.70912 0.2893 0.0
H1512 H 0.11892 0.61373 0.29261 0.0
H1513 H 0.13201 0.65515 0.31437 0.0
H1514 H 0.17645 0.73482 0.29188 0.0
H1515 H 0.14104 0.70659 0.30067 0.0
H1516 H 0.20239 0.61479 0.17078 0.0
H1517 H 0.17107 0.58401 0.18421 0.0
H1518 H 0.24397 0.64813 0.19408 0.0
H1519 H 0.25371 0.69104 0.21405 0.0
C1520 C 0.50222 0.64672 0.42329 0.0
C1521 C 0.51853 0.68169 0.43342 0.0
C1522 C 0.54969 0.66103 0.47898 0.0
C1523 C 0.5336 0.62581 0.46868 0.0
N1524 N 0.50133 0.58443 0.42456 0.0
N1525 N 0.56318 0.72145 0.46466 0.0
C1526 C 0.51202 0.61844 0.4388 0.0
C1527 C 0.54418 0.68851 0.45918 0.0
N1528 N 0.47609 0.64057 0.40016 0.0
N1529 N 0.56847 0.66867 0.50877 0.0
H1530 H 0.55967 0.74187 0.45034 0.0
H1531 H 0.58414 0.72752 0.48086 0.0
H1532 H 0.57251 0.64949 0.52435 0.0
H1533 H 0.57788 0.69432 0.51951 0.0
H1534 H 0.46027 0.61629 0.3954 0.0
H1535 H 0.46882 0.66039 0.38731 0.0
H1536 H 0.48883 0.57806 0.40083 0.0
H1537 H 0.5076 0.56246 0.43443 0.0
C1538 C 0.64039 0.27918 0.70523 0.0
C1539 C 0.64353 0.31172 0.69066 0.0
C1540 C 0.69391 0.33447 0.72651 0.0
C1541 C 0.68963 0.30265 0.74243 0.0
N1542 N 0.65643 0.24616 0.74994 0.0
N1543 N 0.67038 0.37221 0.69064 0.0
C1544 C 0.66191 0.27567 0.73299 0.0
C1545 C 0.66956 0.33991 0.70216 0.0
N1546 N 0.61809 0.25071 0.69089 0.0
N1547 N 0.72142 0.35944 0.73453 0.0
H1548 H 0.65292 0.37696 0.67296 0.0
H1549 H 0.68675 0.39493 0.70028 0.0
H1550 H 0.73891 0.35679 0.75307 0.0
H1551 H 0.72814 0.3814 0.72136 0.0
H1552 H 0.61547 0.22548 0.69861 0.0
H1553 H 0.60404 0.25148 0.66879 0.0
H1554 H 0.63453 0.22805 0.74765 0.0
H1555 H 0.67305 0.24027 0.76778 0.0
C1556 C 0.97726 0.35678 0.9515 0.0
C1557 C 0.99614 0.35476 0.92213 0.0
C1558 C 0.01144 0.41932 0.92993 0.0
C1559 C 0.99784 0.42014 0.96219 0.0
N1560 N 0.97099 0.38871 0.00592 0.0
N1561 N 0.03934 0.38575 0.89079 0.0
C1562 C 0.9816 0.38863 0.97365 0.0
C1563 C 0.01523 0.38652 0.91301 0.0
N1564 N 0.95391 0.32907 0.95762 0.0
N1565 N 0.02095 0.44988 0.91541 0.0
H1566 H 0.04671 0.36258 0.88168 0.0
H1567 H 0.05535 0.40839 0.88566 0.0
H1568 H 0.01772 0.47439 0.92671 0.0
H1569 H 0.02846 0.45015 0.89058 0.0
H1570 H 0.93765 0.33027 0.97684 0.0
H1571 H 0.94786 0.30675 0.94064 0.0
H1572 H 0.96266 0.36563 0.01702 0.0
H1573 H 0.97286 0.4117 0.02253 0.0
C1574 C 0.94003 0.81141 0.19122 0.0
C1575 C 0.95623 0.78215 0.1873 0.0
C1576 C 0.91473 0.74889 0.22039 0.0
C1577 C 0.90109 0.77975 0.22765 0.0
N1578 N 0.90631 0.84273 0.22655 0.0
N1579 N 0.96128 0.72421 0.20171 0.0
C1580 C 0.91536 0.81167 0.21492 0.0
C1581 C 0.94442 0.75136 0.20325 0.0
N1582 N 0.9478 0.83894 0.17211 0.0
N1583 N 0.89844 0.71676 0.22766 0.0
H1584 H 0.98159 0.72379 0.18724 0.0
H1585 H 0.95617 0.7031 0.21634 0.0
H1586 H 0.87612 0.71319 0.23892 0.0
H1587 H 0.90548 0.69302 0.21951 0.0
H1588 H 0.9345 0.85919 0.17155 0.0
H1589 H 0.96516 0.83957 0.15399 0.0
H1590 H 0.91811 0.86732 0.2206 0.0
H1591 H 0.88961 0.84443 0.24531 0.0
C1592 C 0.53061 0.39236 0.09103 0.0
C1593 C 0.51386 0.35926 0.0752 0.0
C1594 C 0.5121 0.38674 0.02138 0.0
C1595 C 0.5233 0.42084 0.03902 0.0
N1596 N 0.53013 0.4543 0.09498 0.0
N1597 N 0.48012 0.32893 0.02573 0.0
C1598 C 0.52894 0.42326 0.07509 0.0
C1599 C 0.50221 0.35737 0.0404 0.0
N1600 N 0.54879 0.39481 0.1209 0.0
N1601 N 0.51154 0.38177 0.98671 0.0
H1602 H 0.46903 0.30856 0.0391 0.0
H1603 H 0.46941 0.32809 1.00134 0.0
H1604 H 0.52045 0.40185 0.97191 0.0
H1605 H 0.50594 0.35674 0.97316 0.0
H1606 H 0.56289 0.41864 0.13183 0.0
H1607 H 0.55331 0.37278 0.13207 0.0
H1608 H 0.53183 0.45577 0.12148 0.0
H1609 H 0.52416 0.47666 0.08569 0.0
C1610 C 0.95306 0.33531 0.35829 0.0
C1611 C 0.95891 0.30177 0.36603 0.0
C1612 C 0.91075 0.27264 0.32948 0.0
C1613 C 0.90288 0.30614 0.32475 0.0
N1614 N 0.91534 0.36953 0.33559 0.0
N1615 N 0.94112 0.23866 0.36265 0.0
C1616 C 0.92389 0.33758 0.33918 0.0
C1617 C 0.9372 0.27047 0.35251 0.0
N1618 N 0.97575 0.36491 0.36881 0.0
N1619 N 0.89398 0.24291 0.31059 0.0
H1620 H 0.96035 0.23591 0.37913 0.0
H1621 H 0.92391 0.21548 0.35704 0.0
H1622 H 0.87545 0.24344 0.29234 0.0
H1623 H 0.9006 0.21824 0.31027 0.0
H1624 H 0.97524 0.38971 0.36103 0.0
H1625 H 0.99661 0.36417 0.38377 0.0
H1626 H 0.92828 0.39352 0.34712 0.0
H1627 H 0.89399 0.37212 0.32236 0.0
C1628 C 0.01134 0.6521 0.59552 0.0
C1629 C 0.99241 0.67191 0.57767 0.0
C1630 C 0.98267 0.62466 0.53002 0.0
C1631 C 1.00777 0.60948 0.54447 0.0
N1632 N 0.04494 0.60729 0.59178 0.0
N1633 N 0.9555 0.67531 0.53077 0.0
C1634 C 0.02124 0.62231 0.57784 0.0
C1635 C 0.97599 0.65703 0.54608 0.0
N1636 N 0.02045 0.66236 0.62904 0.0
N1637 N 0.96581 0.60845 0.50071 0.0
H1638 H 0.94925 0.698 0.54318 0.0
H1639 H 0.94537 0.66874 0.50602 0.0
H1640 H 0.97064 0.58513 0.48822 0.0
H1641 H 0.94559 0.61646 0.49003 0.0
H1642 H 0.03228 0.6477 0.64443 0.0
H1643 H 0.01317 0.68393 0.64232 0.0
H1644 H 0.05864 0.61759 0.61422 0.0
H1645 H 0.0519 0.58515 0.57951 0.0
C1646 C 0.63474 0.7792 0.80561 0.0
C1647 C 0.62737 0.75731 0.83218 0.0
C1648 C 0.67158 0.72583 0.81585 0.0
C1649 C 0.67901 0.74824 0.78939 0.0
N1650 N 0.66005 0.78638 0.75201 0.0
N1651 N 0.63354 0.70507 0.85811 0.0
C1652 C 0.65813 0.77184 0.78214 0.0
C1653 C 0.64413 0.72902 0.83582 0.0
N1654 N 0.62059 0.80817 0.80364 0.0
N1655 N 0.69137 0.70269 0.82306 0.0
H1656 H 0.61397 0.70715 0.87334 0.0
H1657 H 0.64221 0.68174 0.85982 0.0
H1658 H 0.71197 0.69966 0.81005 0.0
H1659 H 0.68866 0.68745 0.84336 0.0
H1660 H 0.62793 0.82724 0.78723 0.0
H1661 H 0.6036 0.81499 0.82045 0.0
H1662 H 0.64362 0.80142 0.74365 0.0
H1663 H 0.67578 0.7797 0.73363 0.0
C1664 C 0.46975 0.58221 0.63639 0.0
C1665 C 0.4543 0.54873 0.64532 0.0
C1666 C 0.48901 0.52029 0.60766 0.0
C1667 C 0.50242 0.55281 0.59554 0.0
N1668 N 0.50313 0.61534 0.59667 0.0
N1669 N 0.44288 0.48575 0.63143 0.0
C1670 C 0.49197 0.58407 0.60933 0.0
C1671 C 0.46137 0.51787 0.62752 0.0
N1672 N 0.46411 0.61204 0.65463 0.0
N1673 N 0.50522 0.49277 0.60447 0.0
H1674 H 0.42255 0.48323 0.64622 0.0
H1675 H 0.446 0.46252 0.61731 0.0
H1676 H 0.52826 0.49495 0.5948 0.0
H1677 H 0.49843 0.47038 0.61702 0.0
H1678 H 0.47707 0.63725 0.65225 0.0
H1679 H 0.44705 0.61105 0.67331 0.0
H1680 H 0.49452 0.63846 0.6036 0.0
H1681 H 0.51917 0.61746 0.57708 0.0
C1682 C 0.78717 0.15613 0.90217 0.0
C1683 C 0.76339 0.1509 0.9265 0.0
C1684 C 0.73049 0.18681 0.89823 0.0
C1685 C 0.75515 0.194 0.87492 0.0
N1686 N 0.80051 0.17388 0.84689 0.0
N1687 N 0.70717 0.14692 0.93812 0.0
C1688 C 0.78124 0.17467 0.87403 0.0
C1689 C 0.73333 0.1619 0.92161 0.0
N1690 N 0.81623 0.1453 0.90696 0.0
N1691 N 0.70427 0.20335 0.8979 0.0
H1692 H 0.70858 0.12588 0.95229 0.0
H1693 H 0.68369 0.15181 0.93408 0.0
H1694 H 0.69988 0.21958 0.87936 0.0
H1695 H 0.68762 0.20201 0.9169 0.0
H1696 H 0.83625 0.15253 0.89252 0.0
H1697 H 0.82091 0.13044 0.92657 0.0
H1698 H 0.81702 0.15681 0.8438 0.0
H1699 H 0.79881 0.18789 0.82603 0.0
C1700 C 0.0745 0.45981 0.12875 0.0
C1701 C 0.08913 0.49062 0.15003 0.0
C1702 C 0.0547 0.52522 0.12237 0.0
C1703 C 0.04152 0.49531 0.09945 0.0
N1704 N 0.04127 0.43508 0.07719 0.0
N1705 N 0.09995 0.55403 0.16055 0.0
C1706 C 0.05219 0.46275 0.10143 0.0
C1707 C 0.08164 0.52383 0.14429 0.0
N1708 N 0.08137 0.42791 0.13537 0.0
N1709 N 0.0403 0.55432 0.12459 0.0
H1710 H 0.12045 0.55355 0.17601 0.0
H1711 H 0.09696 0.57927 0.15584 0.0
H1712 H 0.01931 0.5557 0.11003 0.0
H1713 H 0.04702 0.57546 0.14343 0.0
H1714 H 0.06909 0.40385 0.12315 0.0
H1715 H 0.0989 0.42577 0.15422 0.0
H1716 H 0.05023 0.41162 0.0755 0.0
H1717 H 0.02445 0.43647 0.05741 0.0
C1718 C 0.80537 0.84066 0.42521 0.0
C1719 C 0.78001 0.85909 0.43444 0.0
C1720 C 0.7562 0.8453 0.37578 0.0
C1721 C 0.77936 0.82324 0.36767 0.0
N1722 N 0.82143 0.79394 0.38825 0.0
N1723 N 0.72663 0.87093 0.42001 0.0
C1724 C 0.80274 0.81928 0.39338 0.0
C1725 C 0.75412 0.85916 0.41015 0.0
N1726 N 0.83271 0.84462 0.44622 0.0
N1727 N 0.7369 0.85451 0.35073 0.0
H1728 H 0.72338 0.88025 0.44501 0.0
H1729 H 0.70559 0.86777 0.4041 0.0
H1730 H 0.73768 0.84636 0.32498 0.0
H1731 H 0.72248 0.87361 0.35516 0.0
H1732 H 0.85338 0.83466 0.43944 0.0
H1733 H 0.83594 0.86132 0.46874 0.0
H1734 H 0.83649 0.78764 0.40742 0.0
H1735 H 0.81923 0.77653 0.3661 0.0
C1736 C 0.45922 0.55255 0.83248 0.0
C1737 C 0.42827 0.53214 0.82039 0.0
C1738 C 0.43189 0.49226 0.86476 0.0
C1739 C 0.46247 0.51287 0.87692 0.0
N1740 N 0.50366 0.56516 0.87596 0.0
N1741 N 0.38199 0.48716 0.82979 0.0
C1742 C 0.47572 0.54368 0.86169 0.0
C1743 C 0.41357 0.50347 0.83803 0.0
N1744 N 0.47271 0.58088 0.81621 0.0
N1745 N 0.42078 0.46136 0.87821 0.0
H1746 H 0.36826 0.49214 0.80895 0.0
H1747 H 0.36861 0.46968 0.84472 0.0
H1748 H 0.43367 0.45255 0.89773 0.0
H1749 H 0.40037 0.44303 0.8683 0.0
H1750 H 0.49697 0.59354 0.82002 0.0
H1751 H 0.45971 0.59162 0.79816 0.0
H1752 H 0.51243 0.59038 0.86936 0.0
H1753 H 0.51757 0.55851 0.89593 0.0
C1754 C 0.77416 0.23952 0.11006 0.0
C1755 C 0.79938 0.22213 0.09804 0.0
C1756 C 0.83264 0.24687 0.15031 0.0
C1757 C 0.80883 0.26758 0.1596 0.0
N1758 N 0.76171 0.29064 0.14302 0.0
N1759 N 0.85502 0.21384 0.10456 0.0
C1760 C 0.78113 0.26611 0.13774 0.0
C1761 C 0.8294 0.22704 0.11755 0.0
N1762 N 0.74298 0.22953 0.09614 0.0
N1763 N 0.85744 0.24482 0.17312 0.0
H1764 H 0.85346 0.19961 0.08062 0.0
H1765 H 0.87842 0.21959 0.11629 0.0
H1766 H 0.86078 0.25898 0.19719 0.0
H1767 H 0.87315 0.22698 0.1691 0.0
H1768 H 0.72332 0.23928 0.10631 0.0
H1769 H 0.73614 0.20857 0.07713 0.0
H1770 H 0.74252 0.29246 0.12603 0.0
H1771 H 0.76713 0.31133 0.16252 0.0
C1772 C 0.12104 0.55269 0.34429 0.0
C1773 C 0.11096 0.52109 0.32207 0.0
C1774 C 0.06128 0.50673 0.35258 0.0
C1775 C 0.07306 0.53588 0.37685 0.0
N1776 N 0.11565 0.58443 0.3991 0.0
N1777 N 0.07548 0.46399 0.31001 0.0
C1778 C 0.10331 0.55843 0.3736 0.0
C1779 C 0.08206 0.49702 0.32745 0.0
N1780 N 0.14666 0.57772 0.33696 0.0
N1781 N 0.0302 0.4883 0.35372 0.0
H1782 H 0.09137 0.4547 0.29317 0.0
H1783 H 0.05616 0.44438 0.315 0.0
H1784 H 0.01437 0.49511 0.37196 0.0
H1785 H 0.01916 0.46866 0.33481 0.0
H1786 H 0.15292 0.60263 0.35054 0.0
H1787 H 0.15993 0.57518 0.31539 0.0
H1788 H 0.13942 0.59872 0.40031 0.0
H1789 H 0.10271 0.5903 0.42029 0.0
C1790 C 0.73495 0.81614 0.61809 0.0
C1791 C 0.76308 0.84174 0.61374 0.0
C1792 C 0.79032 0.82374 0.66306 0.0
C1793 C 0.76184 0.79866 0.66905 0.0
N1794 N 0.70383 0.77953 0.65658 0.0
N1795 N 0.81257 0.87776 0.63901 0.0
C1796 C 0.73308 0.79752 0.6479 0.0
C1797 C 0.78864 0.84859 0.63913 0.0
N1798 N 0.71036 0.80891 0.59326 0.0
N1799 N 0.82015 0.82134 0.67663 0.0
H1800 H 0.81212 0.89588 0.62116 0.0
H1801 H 0.83058 0.88574 0.65864 0.0
H1802 H 0.82395 0.79935 0.68772 0.0
H1803 H 0.84182 0.83742 0.67127 0.0
H1804 H 0.69091 0.78773 0.59277 0.0
H1805 H 0.71049 0.82339 0.5723 0.0
H1806 H 0.68175 0.78036 0.64381 0.0
H1807 H 0.7012 0.76691 0.67868 0.0
C1808 C 0.69829 0.48428 0.4834 0.0
C1809 C 0.70335 0.46063 0.50754 0.0
C1810 C 0.66542 0.48458 0.54496 0.0
C1811 C 0.6617 0.50934 0.5215 0.0
N1812 N 0.6786 0.53743 0.47187 0.0
N1813 N 0.69654 0.44202 0.56365 0.0
C1814 C 0.67962 0.51071 0.49189 0.0
C1815 C 0.68836 0.46189 0.53909 0.0
N1816 N 0.70995 0.48031 0.45167 0.0
N1817 N 0.64572 0.48126 0.57173 0.0
H1818 H 0.71287 0.42476 0.55995 0.0
H1819 H 0.68908 0.44452 0.58845 0.0
H1820 H 0.62933 0.498 0.57751 0.0
H1821 H 0.64413 0.46059 0.58696 0.0
H1822 H 0.70399 0.49408 0.43171 0.0
H1823 H 0.72324 0.46084 0.44415 0.0
H1824 H 0.69328 0.54195 0.45147 0.0
H1825 H 0.6651 0.5572 0.47771 0.0
C1826 C 0.14528 0.10049 0.45006 0.0
C1827 C 0.1701 0.10383 0.4764 0.0
C1828 C 0.13829 0.05241 0.50024 0.0
C1829 C 0.1117 0.05257 0.47698 0.0
N1830 N 0.08856 0.0791 0.43133 0.0
N1831 N 0.1888 0.08462 0.52888 0.0
C1832 C 0.11494 0.07702 0.45207 0.0
C1833 C 0.16642 0.07994 0.50191 0.0
N1834 N 0.15105 0.11906 0.42252 0.0
N1835 N 0.13678 0.02559 0.52053 0.0
H1836 H 0.20984 0.104 0.53127 0.0
H1837 H 0.18534 0.07106 0.55033 0.0
H1838 H 0.11656 0.00516 0.51978 0.0
H1839 H 0.1565 0.02175 0.5357 0.0
H1840 H 0.13526 0.11529 0.4009 0.0
H1841 H 0.17319 0.13575 0.41976 0.0
H1842 H 0.08808 0.09945 0.41604 0.0
H1843 H 0.06616 0.06206 0.43128 0.0
C1844 C 0.23334 0.93437 0.74939 0.0
C1845 C 0.21139 0.935 0.77612 0.0
C1846 C 0.22403 0.87867 0.79132 0.0
C1847 C 0.24824 0.87955 0.76676 0.0
N1848 N 0.27908 0.91113 0.72562 0.0
N1849 N 0.19357 0.91229 0.82843 0.0
C1850 C 0.254 0.90849 0.74695 0.0
C1851 C 0.20894 0.90846 0.79876 0.0
N1852 N 0.23326 0.95728 0.7252 0.0
N1853 N 0.21435 0.8489 0.80696 0.0
H1854 H 0.18322 0.93418 0.83578 0.0
H1855 H 0.19437 0.89571 0.84758 0.0
H1856 H 0.22401 0.82621 0.80209 0.0
H1857 H 0.1944 0.84549 0.82215 0.0
H1858 H 0.24624 0.95599 0.7033 0.0
H1859 H 0.21771 0.97551 0.72529 0.0
H1860 H 0.28676 0.93328 0.71295 0.0
H1861 H 0.294 0.89228 0.72286 0.0
C1862 C 0.37269 0.94976 1.00112 0.0
C1863 C 0.36349 0.92143 0.97483 0.0
C1864 C 0.41753 0.93616 0.95193 0.0
C1865 C 0.42539 0.96594 0.97668 0.0
N1866 N 0.40694 0.00672 0.01797 0.0
N1867 N 0.37458 0.89317 0.9205 0.0
C1868 C 0.40162 0.97467 0.9988 0.0
C1869 C 0.3851 0.9163 0.94871 0.0
N1870 N 0.35541 0.95153 0.02973 0.0
N1871 N 0.44124 0.9255 0.9329 0.0
H1872 H 0.35088 0.8787 0.91679 0.0
H1873 H 0.38841 0.89098 0.89934 0.0
H1874 H 0.46518 0.93941 0.93415 0.0
H1875 H 0.43762 0.90131 0.91792 0.0
H1876 H 0.36328 0.96978 0.05089 0.0
H1877 H 0.33554 0.93237 0.0343 0.0
H1878 H 0.38914 0.01564 0.03243 0.0
H1879 H 0.42787 0.02581 0.01643 0.0
C1880 C 0.86084 0.63316 0.78175 0.0
C1881 C 0.86479 0.60443 0.75847 0.0
C1882 C 0.81759 0.61241 0.72304 0.0
C1883 C 0.8147 0.64224 0.74565 0.0
N1884 N 0.84041 0.6868 0.79088 0.0
N1885 N 0.85117 0.56991 0.70417 0.0
C1886 C 0.83822 0.6543 0.77329 0.0
C1887 C 0.8444 0.59501 0.72818 0.0
N1888 N 0.87706 0.63925 0.81313 0.0
N1889 N 0.79431 0.60027 0.69729 0.0
H1890 H 0.87097 0.55725 0.70719 0.0
H1891 H 0.83913 0.56384 0.68021 0.0
H1892 H 0.77461 0.6127 0.69285 0.0
H1893 H 0.79311 0.57664 0.68191 0.0
H1894 H 0.87142 0.65694 0.8326 0.0
H1895 H 0.89419 0.62483 0.82098 0.0
H1896 H 0.86121 0.69881 0.80595 0.0
H1897 H 0.82353 0.70308 0.78836 0.0
C1898 C 0.87397 0.62166 0.03068 0.0
C1899 C 0.85006 0.60939 1.00354 0.0
C1900 C 0.87504 0.55691 0.99051 0.0
C1901 C 0.9004 0.57062 0.01572 0.0
N1902 N 0.92683 0.6185 0.05676 0.0
N1903 N 0.83233 0.56935 0.95288 0.0
C1904 C 0.90076 0.60383 0.03478 0.0
C1905 C 0.85174 0.57798 0.98225 0.0
N1906 N 0.87028 0.64923 0.0536 0.0
N1907 N 0.87326 0.52377 0.97421 0.0
H1908 H 0.81611 0.58487 0.94497 0.0
H1909 H 0.83472 0.54897 0.9345 0.0
H1910 H 0.89044 0.50806 0.9787 0.0
H1911 H 0.85343 0.51072 0.95826 0.0
H1912 H 0.88484 0.65695 0.076 0.0
H1913 H 0.85088 0.66262 0.05181 0.0
H1914 H 0.93054 0.6444 0.0682 0.0
H1915 H 0.94592 0.60548 0.06207 0.0
C1916 C 0.20816 0.15481 0.83021 0.0
C1917 C 0.20219 0.1256 0.80463 0.0
C1918 C 0.2439 0.15729 0.77041 0.0
C1919 C 0.24734 0.18764 0.79429 0.0
N1920 N 0.23256 0.21641 0.84654 0.0
N1921 N 0.21195 0.10062 0.74818 0.0
C1922 C 0.22949 0.18664 0.82417 0.0
C1923 C 0.21959 0.12716 0.77425 0.0
N1924 N 0.19446 0.15153 0.86087 0.0
N1925 N 0.26476 0.15676 0.74457 0.0
H1926 H 0.19522 0.07746 0.74966 0.0
H1927 H 0.22023 0.10266 0.72382 0.0
H1928 H 0.28274 0.17829 0.74069 0.0
H1929 H 0.26625 0.13409 0.72872 0.0
H1930 H 0.20026 0.17025 0.88195 0.0
H1931 H 0.17907 0.1286 0.86623 0.0
H1932 H 0.21731 0.21927 0.8664 0.0
H1933 H 0.24956 0.23922 0.84419 0.0
C1934 C 0.36311 0.92802 0.28589 0.0
C1935 C 0.38271 0.93731 0.31644 0.0
C1936 C 0.34239 0.89747 0.34517 0.0
C1937 C 0.32238 0.88992 0.31414 0.0
N1938 N 0.30802 0.91259 0.26211 0.0
N1939 N 0.38947 0.93483 0.37683 0.0
C1940 C 0.33088 0.91025 0.28696 0.0
C1941 C 0.37204 0.92306 0.34668 0.0
N1942 N 0.37575 0.93518 0.25548 0.0
N1943 N 0.33332 0.88092 0.37315 0.0
H1944 H 0.41191 0.95203 0.37835 0.0
H1945 H 0.38113 0.92898 0.40047 0.0
H1946 H 0.30965 0.86813 0.37617 0.0
H1947 H 0.34924 0.88074 0.39403 0.0
H1948 H 0.36278 0.92665 0.23218 0.0
H1949 H 0.40045 0.9455 0.25376 0.0
H1950 H 0.31291 0.92889 0.2427 0.0
H1951 H 0.28346 0.9015 0.26361 0.0
C1952 C 0.57205 0.39322 0.57628 0.0
C1953 C 0.54885 0.38518 0.60115 0.0
C1954 C 0.5109 0.41461 0.57072 0.0
C1955 C 0.53536 0.4269 0.54855 0.0
N1956 N 0.58727 0.42293 0.52589 0.0
N1957 N 0.50138 0.39987 0.62772 0.0
C1958 C 0.56544 0.41454 0.55008 0.0
C1959 C 0.51972 0.39911 0.59998 0.0
N1960 N 0.60091 0.38151 0.57878 0.0
N1961 N 0.47917 0.41722 0.56405 0.0
H1962 H 0.51065 0.39627 0.65158 0.0
H1963 H 0.4802 0.41046 0.62863 0.0
H1964 H 0.4709 0.42579 0.5418 0.0
H1965 H 0.46027 0.40607 0.57835 0.0
H1966 H 0.61869 0.38426 0.56106 0.0
H1967 H 0.60763 0.3697 0.59988 0.0
H1968 H 0.61052 0.41695 0.52565 0.0
H1969 H 0.58149 0.43548 0.50488 0.0
C1970 C 0.38631 0.72574 0.31953 0.0
C1971 C 0.39945 0.75356 0.34517 0.0
C1972 C 0.35098 0.77927 0.33789 0.0
C1973 C 0.33975 0.75557 0.30833 0.0
N1974 N 0.34622 0.70334 0.2725 0.0
N1975 N 0.39832 0.81249 0.37051 0.0
C1976 C 0.35746 0.72802 0.29936 0.0
C1977 C 0.38313 0.78216 0.35151 0.0
N1978 N 0.40055 0.69666 0.31544 0.0
N1979 N 0.3304 0.79689 0.3553 0.0
H1980 H 0.42265 0.81643 0.37951 0.0
H1981 H 0.38791 0.83505 0.37355 0.0
H1982 H 0.30537 0.79036 0.35066 0.0
H1983 H 0.33756 0.81246 0.37829 0.0
H1984 H 0.39052 0.67377 0.29976 0.0
H1985 H 0.4217 0.69471 0.32947 0.0
H1986 H 0.35999 0.68575 0.26169 0.0
H1987 H 0.32291 0.70047 0.26096 0.0
C1988 C 0.07353 0.68066 0.10385 0.0
C1989 C 0.04953 0.70069 0.09577 0.0
C1990 C 0.02428 0.65366 0.05198 0.0
C1991 C 0.04583 0.63173 0.06253 0.0
N1992 N 0.08863 0.62304 0.10203 0.0
N1993 N 0.99879 0.7041 0.06653 0.0
C1994 C 0.06994 0.64485 0.08939 0.0
C1995 C 0.02373 0.68633 0.07139 0.0
N1996 N 0.10014 0.69614 0.12477 0.0
N1997 N 1.00576 0.64431 0.02208 0.0
H1998 H 0.99783 0.72832 0.08017 0.0
H1999 H 0.97769 0.6933 0.05141 0.0
H2000 H 1.00736 0.622 0.00568 0.0
H2001 H 0.99176 0.66069 0.01157 0.0
H2002 H 0.12048 0.68458 0.12834 0.0
H2003 H 0.10284 0.72174 0.13689 0.0
H2004 H 0.10411 0.63024 0.12383 0.0
H2005 H 0.08699 0.59674 0.09246 0.0
C2006 C 0.10794 0.30601 0.82619 0.0
C2007 C 0.0891 0.27319 0.83257 0.0
C2008 C 0.1258 0.24223 0.79931 0.0
C2009 C 0.14666 0.27505 0.79639 0.0
N2010 N 0.16109 0.33771 0.81463 0.0
N2011 N 0.08318 0.20981 0.83016 0.0
C2012 C 0.13872 0.30688 0.81182 0.0
C2013 C 0.09885 0.24117 0.82045 0.0
N2014 N 0.0959 0.33633 0.83247 0.0
N2015 N 0.13109 0.21216 0.78104 0.0
H2016 H 0.0637 0.20796 0.84604 0.0
H2017 H 0.09142 0.18611 0.82517 0.0
H2018 H 0.15002 0.21199 0.7646 0.0
H2019 H 0.1149 0.1881 0.77952 0.0
H2020 H 0.10721 0.36057 0.82525 0.0
H2021 H 0.07278 0.33637 0.84135 0.0
H2022 H 0.15764 0.36065 0.82894 0.0
H2023 H 0.18447 0.33961 0.80586 0.0
C2024 C 0.50769 0.66653 0.9442 0.0
C2025 C 0.53799 0.69009 0.94521 0.0
C2026 C 0.56329 0.65098 0.979 0.0
C2027 C 0.53216 0.629 0.98062 0.0
N2028 N 0.47389 0.61915 0.96957 0.0
N2029 N 0.59411 0.70727 0.9661 0.0
C2030 C 0.50414 0.63772 0.96444 0.0
C2031 C 0.56567 0.68296 0.96328 0.0
N2032 N 0.48237 0.67158 0.92349 0.0
N2033 N 0.59082 0.64068 0.99099 0.0
H2034 H 0.5973 0.72986 0.95325 0.0
H2035 H 0.61389 0.70613 0.98251 0.0
H2036 H 0.59049 0.61797 1.00313 0.0
H2037 H 0.61433 0.65328 0.98677 0.0
H2038 H 0.46056 0.65348 0.91879 0.0
H2039 H 0.4844 0.69246 0.9084 0.0
H2040 H 0.45223 0.62608 0.96118 0.0
H2041 H 0.47031 0.59874 0.98523 0.0
C2042 C 0.11372 0.73747 0.64675 0.0
C2043 C 0.10399 0.77096 0.65012 0.0
C2044 C 0.14353 0.79026 0.69889 0.0
C2045 C 0.15613 0.75867 0.69259 0.0
N2046 N 0.15522 0.70323 0.65893 0.0
N2047 N 0.11106 0.83037 0.67759 0.0
C2048 C 0.14156 0.73235 0.66631 0.0
C2049 C 0.11912 0.7976 0.6759 0.0
N2050 N 0.09574 0.71019 0.62557 0.0
N2051 N 0.15445 0.81286 0.72745 0.0
H2052 H 0.09308 0.83657 0.66144 0.0
H2053 H 0.12377 0.85217 0.69316 0.0
H2054 H 0.17169 0.80784 0.74523 0.0
H2055 H 0.14434 0.83474 0.73533 0.0
H2056 H 0.09933 0.68422 0.62477 0.0
H2057 H 0.07529 0.71283 0.61077 0.0
H2058 H 0.14831 0.68534 0.63737 0.0
H2059 H 0.17498 0.69813 0.67326 0.0
C2060 C 0.05707 0.40201 0.41795 0.0
C2061 C 0.07197 0.3763 0.43224 0.0
C2062 C 0.0794 0.41399 0.48695 0.0
C2063 C 0.05671 0.43382 0.47484 0.0
N2064 N 0.02102 0.44321 0.42843 0.0
N2065 N 0.10268 0.36093 0.47956 0.0
C2066 C 0.04518 0.42737 0.44007 0.0
C2067 C 0.08489 0.38338 0.46655 0.0
N2068 N 0.05456 0.40291 0.38356 0.0
N2069 N 0.0966 0.42515 0.51737 0.0
H2070 H 0.11101 0.34129 0.46428 0.0
H2071 H 0.10866 0.3614 0.50544 0.0
H2072 H 0.09433 0.4483 0.53216 0.0
H2073 H 0.11556 0.41375 0.5263 0.0
H2074 H 0.04595 0.42301 0.37244 0.0
H2075 H 0.06482 0.38656 0.36645 0.0
H2076 H 0.00947 0.43644 0.40425 0.0
H2077 H 0.01045 0.46054 0.444 0.0
C2078 C 0.41193 0.31014 0.18544 0.0
C2079 C 0.42526 0.27869 0.1817 0.0
C2080 C 0.39325 0.25685 0.22891 0.0
C2081 C 0.37667 0.28581 0.22969 0.0
N2082 N 0.38145 0.34709 0.21937 0.0
N2083 N 0.42585 0.22029 0.19772 0.0
C2084 C 0.38911 0.3146 0.211 0.0
C2085 C 0.41542 0.25174 0.20314 0.0
N2086 N 0.421 0.33592 0.1645 0.0
N2087 N 0.38946 0.23565 0.25466 0.0
H2088 H 0.44141 0.21508 0.17865 0.0
H2089 H 0.41663 0.19819 0.20987 0.0
H2090 H 0.37632 0.24162 0.27566 0.0
H2091 H 0.40257 0.2156 0.25758 0.0
H2092 H 0.40863 0.3566 0.16186 0.0
H2093 H 0.43986 0.33578 0.14805 0.0
H2094 H 0.39115 0.36965 0.20822 0.0
H2095 H 0.36953 0.3533 0.24106 0.0
C2096 C 0.60244 0.47081 0.38514 0.0
C2097 C 0.62331 0.50229 0.37805 0.0
C2098 C 0.59354 0.53658 0.41668 0.0
C2099 C 0.57371 0.50511 0.426 0.0
N2100 N 0.56644 0.44164 0.42483 0.0
N2101 N 0.64482 0.56343 0.39529 0.0
C2102 C 0.58025 0.47196 0.41189 0.0
C2103 C 0.62104 0.53448 0.39689 0.0
N2104 N 0.60344 0.43978 0.36598 0.0
N2105 N 0.58453 0.56847 0.4235 0.0
H2106 H 0.6653 0.56225 0.38126 0.0
H2107 H 0.64599 0.58699 0.41087 0.0
H2108 H 0.56213 0.57071 0.43276 0.0
H2109 H 0.59669 0.59171 0.41496 0.0
H2110 H 0.5863 0.41675 0.3671 0.0
H2111 H 0.62044 0.43772 0.34758 0.0
H2112 H 0.57268 0.41722 0.41773 0.0
H2113 H 0.55141 0.44141 0.44527 0.0
C2114 C 0.30592 0.85769 0.10234 0.0
C2115 C 0.27526 0.85635 0.08501 0.0
C2116 C 0.24681 0.8314 0.13255 0.0
C2117 C 0.27753 0.8326 0.1498 0.0
N2118 N 0.33564 0.85344 0.1553 0.0
N2119 N 0.21672 0.8483 0.08503 0.0
C2120 C 0.30694 0.84772 0.13594 0.0
C2121 C 0.24573 0.84553 0.10077 0.0
N2122 N 0.334 0.86749 0.08616 0.0
N2123 N 0.21887 0.81496 0.14565 0.0
H2124 H 0.21507 0.85694 0.06096 0.0
H2125 H 0.19458 0.84463 0.09665 0.0
H2126 H 0.21863 0.80387 0.16867 0.0
H2127 H 0.19603 0.80993 0.13278 0.0
H2128 H 0.35697 0.86493 0.09558 0.0
H2129 H 0.33418 0.87678 0.06225 0.0
H2130 H 0.35744 0.86778 0.14813 0.0
H2131 H 0.33719 0.84618 0.17996 0.0
C2132 C 0.94604 0.53758 0.8987 0.0
C2133 C 0.95876 0.56284 0.87688 0.0
C2134 C 1.00636 0.58403 0.91701 0.0
C2135 C 0.9967 0.55468 0.93564 0.0
N2136 N 0.95437 0.50577 0.94571 0.0
N2137 N 1.00128 0.61005 0.86411 0.0
C2138 C 0.96564 0.5324 0.92698 0.0
C2139 C 0.989 0.58611 0.88574 0.0
N2140 N 0.91488 0.51864 0.89308 0.0
N2141 N 0.03079 0.61099 0.93016 0.0
H2142 H 0.98829 0.614 0.8422 0.0
H2143 H 0.02498 0.6246 0.86696 0.0
H2144 H 0.04175 0.61196 0.95445 0.0
H2145 H 0.03722 0.63443 0.91911 0.0
H2146 H 0.90304 0.50298 0.9105 0.0
H2147 H 0.89949 0.51984 0.87218 0.0
H2148 H 0.93892 0.48242 0.9357 0.0
H2149 H 0.9561 0.51047 0.97187 0.0
C2150 C 0.29211 0.22843 0.60316 0.0
C2151 C 0.26611 0.20112 0.58978 0.0
C2152 C 0.24464 0.19938 0.64697 0.0
C2153 C 0.26792 0.23018 0.65915 0.0
N2154 N 0.3107 0.27748 0.64634 0.0
N2155 N 0.2152 0.16307 0.59798 0.0
C2156 C 0.29104 0.24546 0.63664 0.0
C2157 C 0.24174 0.18718 0.61147 0.0
N2158 N 0.31799 0.23813 0.58378 0.0
N2159 N 0.22617 0.18087 0.66939 0.0
H2160 H 0.21265 0.15312 0.57237 0.0
H2161 H 0.19478 0.15493 0.61158 0.0
H2162 H 0.22818 0.18822 0.69556 0.0
H2163 H 0.21124 0.15636 0.66248 0.0
H2164 H 0.3393 0.25532 0.59324 0.0
H2165 H 0.31942 0.2262 0.55919 0.0
H2166 H 0.32545 0.29161 0.62979 0.0
H2167 H 0.3099 0.29185 0.66986 0.0
C2168 C 0.58473 0.51096 0.18997 0.0
C2169 C 0.61819 0.52253 0.20002 0.0
C2170 C 0.62687 0.54503 0.1442 0.0
C2171 C 0.5925 0.53915 0.13725 0.0
N2172 N 0.53823 0.51957 0.15608 0.0
N2173 N 0.67196 0.55055 0.1863 0.0
C2174 C 0.5713 0.52312 0.1609 0.0
C2175 C 0.63968 0.53913 0.17683 0.0
N2176 N 0.56593 0.4872 0.20788 0.0
N2177 N 0.64725 0.55645 0.11967 0.0
H2178 H 0.68262 0.54526 0.20897 0.0
H2179 H 0.68798 0.56678 0.17245 0.0
H2180 H 0.63881 0.56327 0.09651 0.0
H2181 H 0.67232 0.55731 0.12141 0.0
H2182 H 0.54215 0.47494 0.19992 0.0
H2183 H 0.5755 0.47669 0.22852 0.0
H2184 H 0.52221 0.51212 0.17477 0.0
H2185 H 0.52662 0.52609 0.13451 0.0
C2186 C 0.27534 0.85686 0.88487 0.0
C2187 C 0.25025 0.84604 0.90685 0.0
C2188 C 0.23792 0.78712 0.87422 0.0
C2189 C 0.26121 0.7988 0.85065 0.0
N2190 N 0.31111 0.83901 0.84324 0.0
N2191 N 0.20396 0.80307 0.91937 0.0
C2192 C 0.28231 0.83221 0.85854 0.0
C2193 C 0.23063 0.81168 0.90075 0.0
N2194 N 0.29273 0.89068 0.88874 0.0
N2195 N 0.2248 0.752 0.87304 0.0
H2196 H 0.19725 0.8207 0.93826 0.0
H2197 H 0.18662 0.78 0.91383 0.0
H2198 H 0.23283 0.7329 0.8568 0.0
H2199 H 0.20964 0.74123 0.89116 0.0
H2200 H 0.30727 0.90139 0.8701 0.0
H2201 H 0.29153 0.9091 0.90934 0.0
H2202 H 0.32954 0.86081 0.85039 0.0
H2203 H 0.31838 0.82027 0.82642 0.0
C2204 C 0.9639 0.47716 0.68858 0.0
C2205 C 0.9585 0.51049 0.7027 0.0
C2206 C 0.97091 0.53498 0.64918 0.0
C2207 C 0.98217 0.50375 0.63756 0.0
N2208 N 0.99216 0.44582 0.64709 0.0
N2209 N 0.9599 0.57257 0.69802 0.0
C2210 C 0.97905 0.47475 0.65724 0.0
C2211 C 0.96246 0.5398 0.68337 0.0
N2212 N 0.95417 0.44786 0.70501 0.0
N2213 N 0.96732 0.55949 0.6273 0.0
H2214 H 0.9539 0.57742 0.72314 0.0
H2215 H 0.9664 0.59548 0.6861 0.0
H2216 H 0.97178 0.5561 0.60153 0.0
H2217 H 0.95647 0.58122 0.63376 0.0
H2218 H 0.95468 0.4223 0.69435 0.0
H2219 H 0.94249 0.44883 0.72786 0.0
H2220 H 0.99367 0.42569 0.6624 0.0
H2221 H 1.00411 0.44326 0.62458 0.0
C2222 C 0.31023 0.20692 0.39104 0.0
C2223 C 0.28019 0.20092 0.40753 0.0
C2224 C 0.25922 0.24148 0.37117 0.0
C2225 C 0.28818 0.24518 0.35285 0.0
N2226 N 0.345 0.24202 0.35398 0.0
N2227 N 0.22469 0.20932 0.41031 0.0
C2228 C 0.31465 0.2305 0.36496 0.0
C2229 C 0.25444 0.21762 0.39689 0.0
N2230 N 0.33477 0.1901 0.40022 0.0
N2231 N 0.23698 0.26245 0.36549 0.0
H2232 H 0.21988 0.19068 0.4276 0.0
H2233 H 0.20394 0.21829 0.40232 0.0
H2234 H 0.23917 0.27995 0.34696 0.0
H2235 H 0.21766 0.26478 0.38086 0.0
H2236 H 0.35538 0.18947 0.38636 0.0
H2237 H 0.33391 0.17511 0.42077 0.0
H2238 H 0.36635 0.23682 0.36514 0.0
H2239 H 0.34919 0.25905 0.33504 0.0
C2240 C 0.35599 0.55433 0.48705 0.0
C2241 C 0.36118 0.58401 0.51219 0.0
C2242 C 0.41645 0.57499 0.52498 0.0
C2243 C 0.41041 0.54325 0.5023 0.0
N2244 N 0.37334 0.50047 0.46445 0.0
N2245 N 0.39374 0.61856 0.55953 0.0
C2246 C 0.37983 0.53229 0.48403 0.0
C2247 C 0.39066 0.59322 0.53237 0.0
N2248 N 0.32891 0.54803 0.4652 0.0
N2249 N 0.44724 0.58914 0.53815 0.0
H2250 H 0.3754 0.63268 0.56582 0.0
H2251 H 0.41326 0.62327 0.57764 0.0
H2252 H 0.46712 0.57688 0.53452 0.0
H2253 H 0.45356 0.61483 0.5501 0.0
H2254 H 0.32539 0.5292 0.44409 0.0
H2255 H 0.31101 0.56362 0.46648 0.0
H2256 H 0.35036 0.48908 0.45337 0.0
H2257 H 0.39048 0.48406 0.4614 0.0
C2258 C 0.90218 0.94494 0.56145 0.0
C2259 C 0.87797 0.94376 0.53491 0.0
C2260 C 0.91217 0.99486 0.51313 0.0
C2261 C 0.93801 0.99289 0.53674 0.0
N2262 N 0.95883 0.96383 0.58184 0.0
N2263 N 0.86196 0.96465 0.48236 0.0
C2264 C 0.93326 0.96747 0.56068 0.0
C2265 C 0.88335 0.96818 0.51007 0.0
N2266 N 0.89513 0.92512 0.58794 0.0
N2267 N 0.915 0.02258 0.49386 0.0
H2268 H 0.8409 0.94527 0.47871 0.0
H2269 H 0.86652 0.9789 0.46147 0.0
H2270 H 0.93569 0.0425 0.49575 0.0
H2271 H 0.8959 0.02754 0.47849 0.0
H2272 H 0.9104 0.92728 0.60978 0.0
H2273 H 0.87253 0.90879 0.58956 0.0
H2274 H 0.95819 0.94291 0.59664 0.0
H2275 H 0.98169 0.98022 0.5828 0.0
C2276 C 0.83431 0.13606 0.20734 0.0
C2277 C 0.84503 0.12236 0.23692 0.0
C2278 C 0.81984 0.16493 0.27268 0.0
C2279 C 0.80824 0.17807 0.24309 0.0
N2280 N 0.80059 0.17256 0.18171 0.0
N2281 N 0.84339 0.11973 0.29753 0.0
C2282 C 0.81411 0.16236 0.21026 0.0
C2283 C 0.83659 0.1358 0.26952 0.0
N2284 N 0.84492 0.12521 0.17649 0.0
N2285 N 0.8151 0.18067 0.30412 0.0
H2286 H 0.85614 0.09901 0.29663 0.0
H2287 H 0.83442 0.12504 0.32129 0.0
H2288 H 0.79996 0.1992 0.30782 0.0
H2289 H 0.82717 0.17655 0.32648 0.0
H2290 H 0.84161 0.13695 0.15435 0.0
H2291 H 0.85954 0.10609 0.17348 0.0
H2292 H 0.80067 0.15951 0.15745 0.0
H2293 H 0.78719 0.19272 0.18217 0.0
C2294 C 0.6777 0.06856 0.00791 0.0
C2295 C 0.68517 0.10176 0.02819 0.0
C2296 C 0.63512 0.08664 0.05823 0.0
C2297 C 0.62516 0.05678 0.03395 0.0
N2298 N 0.64184 0.01124 0.99709 0.0
N2299 N 0.67181 0.1425 0.07309 0.0
C2300 C 0.64811 0.04522 0.0123 0.0
C2301 C 0.66422 0.11068 0.05366 0.0
N2302 N 0.69753 0.0604 0.98279 0.0
N2303 N 0.61843 0.09066 0.08693 0.0
H2304 H 0.69441 0.15919 0.0733 0.0
H2305 H 0.65493 0.15319 0.08738 0.0
H2306 H 0.60049 0.07078 0.09404 0.0
H2307 H 0.62565 0.11098 0.10645 0.0
H2308 H 0.69119 0.03887 0.96436 0.0
H2309 H 0.71963 0.07632 0.97868 0.0
H2310 H 0.65851 0.99968 0.98322 0.0
H2311 H 0.621 0.99329 1.00173 0.0
C2312 C 0.20502 0.41428 0.22191 0.0
C2313 C 0.21034 0.44834 0.2399 0.0
C2314 C 0.25895 0.43627 0.2699 0.0
C2315 C 0.25088 0.40084 0.2553 0.0
N2316 N 0.21259 0.35412 0.22223 0.0
N2317 N 0.23953 0.49044 0.28511 0.0
C2318 C 0.2231 0.38927 0.23237 0.0
C2319 C 0.23678 0.45928 0.26476 0.0
N2320 N 0.183 0.40599 0.19453 0.0
N2321 N 0.2878 0.4479 0.28856 0.0
H2322 H 0.22355 0.50795 0.28306 0.0
H2323 H 0.25604 0.4976 0.30613 0.0
H2324 H 0.30427 0.43137 0.29312 0.0
H2325 H 0.29663 0.4744 0.29691 0.0
H2326 H 0.18057 0.38265 0.17833 0.0
H2327 H 0.1695 0.42396 0.18601 0.0
H2328 H 0.19014 0.3442 0.20921 0.0
H2329 H 0.22453 0.33445 0.22962 0.0
C2330 C 0.20185 0.47624 0.01292 0.0
C2331 C 0.19774 0.44379 0.02795 0.0
C2332 C 0.13925 0.44544 0.03137 0.0
C2333 C 0.14432 0.48013 0.02078 0.0
N2334 N 0.18266 0.53105 0.00785 0.0
N2335 N 0.1631 0.40121 0.05754 0.0
C2336 C 0.17625 0.49623 0.01334 0.0
C2337 C 0.16659 0.42947 0.03893 0.0
N2338 N 0.22949 0.48726 0.9965 0.0
N2339 N 0.1083 0.42665 0.03228 0.0
H2340 H 0.18254 0.38927 0.0642 0.0
H2341 H 0.14172 0.39204 0.06927 0.0
H2342 H 0.08763 0.43594 0.02444 0.0
H2343 H 0.10332 0.40019 0.03682 0.0
H2344 H 0.23223 0.50872 0.98218 0.0
H2345 H 0.24814 0.4728 0.99384 0.0
H2346 H 0.20619 0.54507 0.00587 0.0
H2347 H 0.16498 0.5469 0.00881 0.0
C2348 C 0.84917 0.91369 0.26775 0.0
C2349 C 0.85414 0.92851 0.23646 0.0
C2350 C 0.81061 0.88098 0.20892 0.0
C2351 C 0.80358 0.8688 0.24118 0.0
N2352 N 0.80914 0.88357 0.30209 0.0
N2353 N 0.8372 0.92828 0.17748 0.0
C2354 C 0.821 0.88784 0.2708 0.0
C2355 C 0.83392 0.91289 0.20713 0.0
N2356 N 0.87107 0.92415 0.295 0.0
N2357 N 0.79612 0.86146 0.17991 0.0
H2358 H 0.85523 0.95017 0.17473 0.0
H2359 H 0.82093 0.92063 0.15632 0.0
H2360 H 0.77888 0.83836 0.18012 0.0
H2361 H 0.80293 0.86666 0.15559 0.0
H2362 H 0.87006 0.91099 0.31684 0.0
H2363 H 0.89171 0.94376 0.29502 0.0
H2364 H 0.81943 0.89896 0.3243 0.0
H2365 H 0.78632 0.8686 0.30502 0.0
C2366 C 0.66606 0.14137 0.70733 0.0
C2367 C 0.67196 0.11834 0.73192 0.0
C2368 C 0.72722 0.1527 0.74319 0.0
C2369 C 0.71836 0.17985 0.72566 0.0
N2370 N 0.68043 0.19994 0.68845 0.0
N2371 N 0.70819 0.10531 0.77665 0.0
C2372 C 0.68822 0.17402 0.7065 0.0
C2373 C 0.70278 0.12448 0.75041 0.0
N2374 N 0.64008 0.13161 0.68419 0.0
N2375 N 0.75904 0.15488 0.75407 0.0
H2376 H 0.69076 0.08548 0.78463 0.0
H2377 H 0.72905 0.11168 0.79302 0.0
H2378 H 0.77729 0.17572 0.74895 0.0
H2379 H 0.76761 0.13448 0.76475 0.0
H2380 H 0.63635 0.14584 0.6639 0.0
H2381 H 0.62409 0.10743 0.68311 0.0
H2382 H 0.6577 0.19856 0.67617 0.0
H2383 H 0.69664 0.2235 0.68664 0.0
loop_
_geom_bond_atom_site_label_1
_geom_bond_atom_site_label_2
_geom_bond_distance
_geom_bond_site_symmetry_2
_ccdc_geom_bond_type
Co0 O1 2.216 . S
Co0 O2 2.091 . S
Co0 O4 2.004 1_455 S
Co0 O10 2.021 . S
Co0 O12 2.137 . S
Co0 O13 2.244 . S
O1 Co0 2.216 . S
O1 C8 1.247 . S
O2 Co0 2.091 . S
O2 C8 1.261 . S
C3 O12 1.247 . S
C3 O13 1.272 . S
O4 Co0 2.004 1_655 S
O4 C9 1.259 . S
Co5 O6 2.061 . S
Co5 O11 2.052 1_655 S
Co5 O13 2.135 1_655 S
O6 Co5 2.061 . S
O6 C9 1.235 . S
C7 O10 1.238 . S
C7 O11 1.241 . S
C8 O1 1.247 . S
C8 O2 1.261 . S
C9 O4 1.259 . S
C9 O6 1.235 . S
O10 Co0 2.021 . S
O10 C7 1.238 . S
O11 Co5 2.052 1_455 S
O11 C7 1.241 . S
O12 Co0 2.137 . S
O12 C3 1.247 . S
O13 Co0 2.244 . S
O13 C3 1.272 . S
O13 Co5 2.135 1_455 S
Co14 O15 2.195 1_455 S
Co14 O16 2.077 1_455 S
Co14 O18 2.023 . S
Co14 O24 2.024 1_455 S
Co14 O26 2.134 . S
Co14 O27 2.250 . S
O15 Co14 2.195 1_655 S
O15 C22 1.247 . S
O16 Co14 2.077 1_655 S
O16 C22 1.261 . S
C17 O26 1.247 . S
C17 O27 1.272 . S
O18 Co14 2.023 . S
O18 C23 1.259 . S
Co19 O20 2.061 . S
Co19 O25 2.052 . S
Co19 O27 2.135 . S
O20 Co19 2.061 . S
O20 C23 1.235 . S
C21 O24 1.238 1_455 S
C21 O25 1.241 . S
C22 O15 1.247 . S
C22 O16 1.261 . S
C23 O18 1.259 . S
C23 O20 1.235 . S
O24 Co14 2.024 1_655 S
O24 C21 1.238 1_655 S
O25 Co19 2.052 . S
O25 C21 1.241 . S
O26 Co14 2.134 . S
O26 C17 1.247 . S
O27 Co14 2.250 . S
O27 C17 1.272 . S
O27 Co19 2.135 . S
Co28 O29 2.216 . S
Co28 O30 2.091 . S
Co28 O32 2.004 . S
Co28 O38 2.021 . S
Co28 O40 2.137 . S
Co28 O41 2.244 . S
O29 Co28 2.216 . S
O29 C36 1.247 . S
O30 Co28 2.091 . S
O30 C36 1.261 . S
C31 O40 1.247 . S
C31 O41 1.272 . S
O32 Co28 2.004 . S
O32 C37 1.259 . S
Co33 O34 2.061 . S
Co33 O39 2.052 . S
Co33 O41 2.135 . S
O34 Co33 2.061 . S
O34 C37 1.235 . S
C35 O38 1.238 . S
C35 O39 1.241 . S
C36 O29 1.247 . S
C36 O30 1.261 . S
C37 O32 1.259 . S
C37 O34 1.235 . S
O38 Co28 2.021 . S
O38 C35 1.238 . S
O39 Co33 2.052 . S
O39 C35 1.241 . S
O40 Co28 2.137 . S
O40 C31 1.247 . S
O41 Co28 2.244 . S
O41 C31 1.272 . S
O41 Co33 2.135 . S
Co42 O43 2.216 . S
Co42 O44 2.091 . S
Co42 O46 2.004 . S
Co42 O52 2.021 . S
Co42 O54 2.137 . S
Co42 O55 2.244 . S
O43 Co42 2.216 . S
O43 C50 1.247 . S
O44 Co42 2.091 . S
O44 C50 1.261 . S
C45 O54 1.247 . S
C45 O55 1.272 . S
O46 Co42 2.004 . S
O46 C51 1.259 . S
Co47 O48 2.061 . S
Co47 O53 2.052 . S
Co47 O55 2.135 . S
O48 Co47 2.061 . S
O48 C51 1.235 . S
C49 O52 1.238 . S
C49 O53 1.241 . S
C50 O43 1.247 . S
C50 O44 1.261 . S
C51 O46 1.259 . S
C51 O48 1.235 . S
O52 Co42 2.021 . S
O52 C49 1.238 . S
O53 Co47 2.052 . S
O53 C49 1.241 . S
O54 Co42 2.137 . S
O54 C45 1.247 . S
O55 Co42 2.244 . S
O55 C45 1.272 . S
O55 Co47 2.135 . S
Co56 O57 2.216 1_455 S
Co56 O58 2.091 1_455 S
Co56 O60 2.004 . S
Co56 O66 2.021 . S
Co56 O68 2.137 . S
Co56 O69 2.244 . S
O57 Co56 2.216 1_655 S
O57 C64 1.247 . S
O58 Co56 2.091 1_655 S
O58 C64 1.261 . S
C59 O68 1.247 . S
C59 O69 1.272 . S
O60 Co56 2.004 . S
O60 C65 1.259 . S
Co61 O62 2.061 . S
Co61 O67 2.052 . S
Co61 O69 2.135 . S
O62 Co61 2.061 . S
O62 C65 1.235 . S
C63 O66 1.238 . S
C63 O67 1.241 . S
C64 O57 1.247 . S
C64 O58 1.261 . S
C65 O60 1.259 . S
C65 O62 1.235 . S
O66 Co56 2.021 . S
O66 C63 1.238 . S
O67 Co61 2.052 . S
O67 C63 1.241 . S
O68 Co56 2.137 . S
O68 C59 1.247 . S
O69 Co56 2.244 . S
O69 C59 1.272 . S
O69 Co61 2.135 . S
Co70 O71 2.216 . S
Co70 O72 2.091 . S
Co70 O74 2.004 . S
Co70 O80 2.021 . S
Co70 O82 2.137 . S
Co70 O83 2.244 . S
O71 Co70 2.216 . S
O71 C78 1.247 . S
O72 Co70 2.091 . S
O72 C78 1.261 . S
C73 O82 1.247 . S
C73 O83 1.272 . S
O74 Co70 2.004 . S
O74 C79 1.259 . S
Co75 O76 2.061 . S
Co75 O81 2.052 . S
Co75 O83 2.135 . S
O76 Co75 2.061 . S
O76 C79 1.235 . S
C77 O80 1.238 . S
C77 O81 1.241 . S
C78 O71 1.247 . S
C78 O72 1.261 . S
C79 O74 1.259 . S
C79 O76 1.235 . S
O80 Co70 2.021 . S
O80 C77 1.238 . S
O81 Co75 2.052 . S
O81 C77 1.241 . S
O82 Co70 2.137 . S
O82 C73 1.247 . S
O83 Co70 2.244 . S
O83 C73 1.272 . S
O83 Co75 2.135 . S
Co84 O85 2.216 . S
Co84 O86 2.091 . S
Co84 O88 2.004 . S
Co84 O94 2.021 . S
Co84 O96 2.137 . S
Co84 O97 2.244 . S
O85 Co84 2.216 . S
O85 C92 1.247 . S
O86 Co84 2.091 . S
O86 C92 1.261 . S
C87 O96 1.247 . S
C87 O97 1.272 . S
O88 Co84 2.004 . S
O88 C93 1.259 . S
Co89 O90 2.061 . S
Co89 O95 2.052 . S
Co89 O97 2.135 . S
O90 Co89 2.061 . S
O90 C93 1.235 . S
C91 O94 1.238 . S
C91 O95 1.241 . S
C92 O85 1.247 . S
C92 O86 1.261 . S
C93 O88 1.259 . S
C93 O90 1.235 . S
O94 Co84 2.021 . S
O94 C91 1.238 . S
O95 Co89 2.052 . S
O95 C91 1.241 . S
O96 Co84 2.137 . S
O96 C87 1.247 . S
O97 Co84 2.244 . S
O97 C87 1.272 . S
O97 Co89 2.135 . S
Co98 O99 2.216 . S
Co98 O100 2.091 . S
Co98 O102 2.004 1_455 S
Co98 O108 2.021 1_455 S
Co98 O110 2.137 . S
Co98 O111 2.244 1_455 S
O99 Co98 2.216 . S
O99 C106 1.247 . S
O100 Co98 2.091 . S
O100 C106 1.261 . S
C101 O110 1.247 . S
C101 O111 1.272 1_455 S
O102 Co98 2.004 1_655 S
O102 C107 1.259 . S
Co103 O104 2.061 . S
Co103 O109 2.052 . S
Co103 O111 2.135 . S
O104 Co103 2.061 . S
O104 C107 1.235 . S
C105 O108 1.240 . S
C105 O109 1.241 . S
C106 O99 1.247 . S
C106 O100 1.261 . S
C107 O102 1.259 . S
C107 O104 1.235 . S
O108 Co98 2.021 1_655 S
O108 C105 1.240 . S
O109 Co103 2.052 . S
O109 C105 1.241 . S
O110 Co98 2.137 . S
O110 C101 1.247 . S
O111 Co98 2.244 1_655 S
O111 C101 1.272 1_655 S
O111 Co103 2.135 . S
Co112 O113 2.216 . S
Co112 O114 2.091 . S
Co112 O116 2.004 1_545 S
Co112 O122 2.021 . S
Co112 O124 2.137 . S
Co112 O125 2.244 . S
O113 Co112 2.216 . S
O113 C120 1.247 . S
O114 Co112 2.091 . S
O114 C120 1.261 . S
C115 O124 1.247 . S
C115 O125 1.272 . S
O116 Co112 2.004 1_565 S
O116 C121 1.259 . S
Co117 O118 2.061 . S
Co117 O123 2.052 . S
Co117 O125 2.135 1_565 S
O118 Co117 2.061 . S
O118 C121 1.235 . S
C119 O122 1.238 . S
C119 O123 1.241 1_545 S
C120 O113 1.247 . S
C120 O114 1.261 . S
C121 O116 1.259 . S
C121 O118 1.235 . S
O122 Co112 2.021 . S
O122 C119 1.238 . S
O123 Co117 2.052 . S
O123 C119 1.241 1_565 S
O124 Co112 2.137 . S
O124 C115 1.247 . S
O125 Co112 2.244 . S
O125 C115 1.272 . S
O125 Co117 2.135 1_545 S
Co126 O127 2.216 . S
Co126 O128 2.091 . S
Co126 O130 2.004 . S
Co126 O136 2.021 . S
Co126 O138 2.137 . S
Co126 O139 2.244 . S
O127 Co126 2.216 . S
O127 C134 1.247 . S
O128 Co126 2.091 . S
O128 C134 1.261 . S
C129 O138 1.247 . S
C129 O139 1.272 . S
O130 Co126 2.004 . S
O130 C135 1.259 . S
Co131 O132 2.061 . S
Co131 O137 2.052 . S
Co131 O139 2.135 . S
O132 Co131 2.061 . S
O132 C135 1.235 . S
C133 O136 1.238 . S
C133 O137 1.241 . S
C134 O127 1.247 . S
C134 O128 1.261 . S
C135 O130 1.259 . S
C135 O132 1.235 . S
O136 Co126 2.021 . S
O136 C133 1.238 . S
O137 Co131 2.052 . S
O137 C133 1.241 . S
O138 Co126 2.137 . S
O138 C129 1.247 . S
O139 Co126 2.244 . S
O139 C129 1.272 . S
O139 Co131 2.135 . S
Co140 O141 2.216 . S
Co140 O142 2.091 . S
Co140 O144 2.004 1_565 S
Co140 O150 2.021 . S
Co140 O152 2.137 . S
Co140 O153 2.244 1_565 S
O141 Co140 2.216 . S
O141 C148 1.247 . S
O142 Co140 2.091 . S
O142 C148 1.261 . S
C143 O152 1.233 1_545 S
C143 O153 1.284 . S
O144 Co140 2.004 1_545 S
O144 C149 1.259 . S
Co145 O146 2.061 . S
Co145 O151 2.052 . S
Co145 O153 2.135 . S
O146 Co145 2.061 . S
O146 C149 1.235 . S
C147 O150 1.238 . S
C147 O151 1.241 1_565 S
C148 O141 1.247 . S
C148 O142 1.261 . S
C149 O144 1.259 . S
C149 O146 1.235 . S
O150 Co140 2.021 . S
O150 C147 1.238 . S
O151 Co145 2.052 . S
O151 C147 1.241 1_545 S
O152 Co140 2.137 . S
O152 C143 1.233 1_565 S
O153 Co140 2.244 1_545 S
O153 C143 1.284 . S
O153 Co145 2.135 . S
Co154 O155 2.216 . S
Co154 O156 2.091 . S
Co154 O158 2.004 . S
Co154 O164 2.021 . S
Co154 O166 2.137 1_554 S
Co154 O167 2.244 1_554 S
O155 Co154 2.216 . S
O155 C162 1.247 . S
O156 Co154 2.091 . S
O156 C162 1.261 . S
C157 O166 1.247 . S
C157 O167 1.272 . S
O158 Co154 2.004 . S
O158 C163 1.259 . S
Co159 O160 2.061 . S
Co159 O165 2.052 . S
Co159 O167 2.135 1_554 S
O160 Co159 2.061 . S
O160 C163 1.235 . S
C161 O164 1.238 . S
C161 O165 1.241 . S
C162 O155 1.247 . S
C162 O156 1.261 . S
C163 O158 1.259 . S
C163 O160 1.235 . S
O164 Co154 2.021 . S
O164 C161 1.238 . S
O165 Co159 2.052 . S
O165 C161 1.241 . S
O166 Co154 2.137 1_556 S
O166 C157 1.247 . S
O167 Co154 2.244 1_556 S
O167 C157 1.272 . S
O167 Co159 2.135 1_556 S
Co168 O169 2.216 . S
Co168 O170 2.091 . S
Co168 O172 2.004 . S
Co168 O178 2.021 . S
Co168 O180 2.137 1_554 S
Co168 O181 2.244 1_554 S
O169 Co168 2.216 . S
O169 C176 1.247 . S
O170 Co168 2.091 . S
O170 C176 1.261 . S
C171 O180 1.247 . S
C171 O181 1.272 . S
O172 Co168 2.004 . S
O172 C177 1.259 . S
Co173 O174 2.061 . S
Co173 O179 2.052 . S
Co173 O181 2.135 1_554 S
O174 Co173 2.061 . S
O174 C177 1.235 . S
C175 O178 1.238 . S
C175 O179 1.241 . S
C176 O169 1.247 . S
C176 O170 1.261 . S
C177 O172 1.259 . S
C177 O174 1.235 . S
O178 Co168 2.021 . S
O178 C175 1.238 . S
O179 Co173 2.052 . S
O179 C175 1.241 . S
O180 Co168 2.137 1_556 S
O180 C171 1.247 . S
O181 Co168 2.244 1_556 S
O181 C171 1.272 . S
O181 Co173 2.135 1_556 S
Co182 O183 2.216 1_556 S
Co182 O184 2.089 1_556 S
Co182 O186 2.004 . S
Co182 O192 2.021 1_556 S
Co182 O194 2.137 . S
Co182 O195 2.244 . S
O183 Co182 2.216 1_554 S
O183 C190 1.247 . S
O184 Co182 2.089 1_554 S
O184 C190 1.260 . S
C185 O194 1.247 . S
C185 O195 1.272 . S
O186 Co182 2.004 . S
O186 C191 1.259 . S
Co187 O188 2.061 . S
Co187 O193 2.052 . S
Co187 O195 2.135 1_554 S
O188 Co187 2.061 . S
O188 C191 1.235 1_554 S
C189 O192 1.238 . S
C189 O193 1.241 . S
C190 O183 1.247 . S
C190 O184 1.260 . S
C191 O186 1.259 . S
C191 O188 1.235 1_556 S
O192 Co182 2.021 1_554 S
O192 C189 1.238 . S
O193 Co187 2.052 . S
O193 C189 1.241 . S
O194 Co182 2.137 . S
O194 C185 1.247 . S
O195 Co182 2.244 . S
O195 C185 1.272 . S
O195 Co187 2.135 1_556 S
Co196 O197 2.216 . S
Co196 O198 2.091 . S
Co196 O200 2.004 . S
Co196 O206 2.021 . S
Co196 O208 2.137 . S
Co196 O209 2.244 . S
O197 Co196 2.216 . S
O197 C204 1.247 . S
O198 Co196 2.091 . S
O198 C204 1.261 . S
C199 O208 1.247 . S
C199 O209 1.272 . S
O200 Co196 2.004 . S
O200 C205 1.259 . S
Co201 O202 2.061 . S
Co201 O207 2.052 . S
Co201 O209 2.135 . S
O202 Co201 2.061 . S
O202 C205 1.235 . S
C203 O206 1.238 . S
C203 O207 1.241 . S
C204 O197 1.247 . S
C204 O198 1.261 . S
C205 O200 1.259 . S
C205 O202 1.235 . S
O206 Co196 2.021 . S
O206 C203 1.238 . S
O207 Co201 2.052 . S
O207 C203 1.241 . S
O208 Co196 2.137 . S
O208 C199 1.247 . S
O209 Co196 2.244 . S
O209 C199 1.272 . S
O209 Co201 2.135 . S
Co210 O211 2.216 . S
Co210 O212 2.091 . S
Co210 O214 2.004 . S
Co210 O220 2.021 . S
Co210 O222 2.137 . S
Co210 O223 2.244 . S
O211 Co210 2.216 . S
O211 C218 1.247 . S
O212 Co210 2.091 . S
O212 C218 1.261 . S
C213 O222 1.247 . S
C213 O223 1.272 . S
O214 Co210 2.004 . S
O214 C219 1.259 . S
Co215 O216 2.061 . S
Co215 O221 2.052 . S
Co215 O223 2.135 . S
O216 Co215 2.061 . S
O216 C219 1.235 . S
C217 O220 1.238 . S
C217 O221 1.241 . S
C218 O211 1.247 . S
C218 O212 1.261 . S
C219 O214 1.259 . S
C219 O216 1.235 . S
O220 Co210 2.021 . S
O220 C217 1.238 . S
O221 Co215 2.052 . S
O221 C217 1.241 . S
O222 Co210 2.137 . S
O222 C213 1.247 . S
O223 Co210 2.244 . S
O223 C213 1.272 . S
O223 Co215 2.135 . S
Co224 O225 2.216 . S
Co224 O226 2.091 . S
Co224 O228 2.031 . S
Co224 O234 2.021 . S
Co224 O236 2.137 . S
Co224 O237 2.244 . S
O225 Co224 2.216 . S
O225 C232 1.247 . S
O226 Co224 2.091 . S
O226 C232 1.261 . S
C227 O236 1.247 . S
C227 O237 1.272 . S
O228 Co224 2.031 . S
O228 C233 1.229 1_545 S
Co229 O230 2.061 . S
Co229 O235 2.052 1_565 S
Co229 O237 2.135 1_565 S
O230 Co229 2.061 . S
O230 C233 1.235 . S
C231 O234 1.238 . S
C231 O235 1.241 . S
C232 O225 1.247 . S
C232 O226 1.261 . S
C233 O228 1.229 1_565 S
C233 O230 1.235 . S
O234 Co224 2.021 . S
O234 C231 1.238 . S
O235 Co229 2.052 1_545 S
O235 C231 1.241 . S
O236 Co224 2.137 . S
O236 C227 1.247 . S
O237 Co224 2.244 . S
O237 C227 1.272 . S
O237 Co229 2.135 1_545 S
Co238 O239 2.216 . S
Co238 O240 2.091 . S
Co238 O242 2.004 . S
Co238 O248 2.021 . S
Co238 O250 2.137 . S
Co238 O251 2.244 . S
O239 Co238 2.216 . S
O239 C246 1.247 . S
O240 Co238 2.091 . S
O240 C246 1.261 . S
C241 O250 1.247 . S
C241 O251 1.272 . S
O242 Co238 2.004 . S
O242 C247 1.259 . S
Co243 O244 2.061 . S
Co243 O249 2.052 . S
Co243 O251 2.135 . S
O244 Co243 2.061 . S
O244 C247 1.235 . S
C245 O248 1.238 . S
C245 O249 1.241 . S
C246 O239 1.247 . S
C246 O240 1.261 . S
C247 O242 1.259 . S
C247 O244 1.235 . S
O248 Co238 2.021 . S
O248 C245 1.238 . S
O249 Co243 2.052 . S
O249 C245 1.241 . S
O250 Co238 2.137 . S
O250 C241 1.247 . S
O251 Co238 2.244 . S
O251 C241 1.272 . S
O251 Co243 2.135 . S
Co252 O253 2.216 . S
Co252 O254 2.091 . S
Co252 O256 2.004 . S
Co252 O262 2.021 . S
Co252 O264 2.137 . S
Co252 O265 2.244 . S
O253 Co252 2.216 . S
O253 C260 1.247 . S
O254 Co252 2.091 . S
O254 C260 1.261 . S
C255 O264 1.247 . S
C255 O265 1.272 . S
O256 Co252 2.004 . S
O256 C261 1.259 . S
Co257 O258 2.061 . S
Co257 O263 2.052 . S
Co257 O265 2.135 . S
O258 Co257 2.061 . S
O258 C261 1.235 . S
C259 O262 1.238 . S
C259 O263 1.241 . S
C260 O253 1.247 . S
C260 O254 1.261 . S
C261 O256 1.259 . S
C261 O258 1.235 . S
O262 Co252 2.021 . S
O262 C259 1.238 . S
O263 Co257 2.052 . S
O263 C259 1.241 . S
O264 Co252 2.137 . S
O264 C255 1.247 . S
O265 Co252 2.244 . S
O265 C255 1.272 . S
O265 Co257 2.135 . S
Co266 O267 2.216 1_545 S
Co266 O268 2.091 1_545 S
Co266 O270 2.004 . S
Co266 O276 2.021 . S
Co266 O278 2.137 . S
Co266 O279 2.244 . S
O267 Co266 2.216 1_565 S
O267 C274 1.247 . S
O268 Co266 2.091 1_565 S
O268 C274 1.261 . S
C269 O278 1.247 . S
C269 O279 1.272 . S
O270 Co266 2.004 . S
O270 C275 1.259 . S
Co271 O272 2.061 . S
Co271 O277 2.052 . S
Co271 O279 2.135 . S
O272 Co271 2.061 . S
O272 C275 1.235 . S
C273 O276 1.238 . S
C273 O277 1.241 . S
C274 O267 1.247 . S
C274 O268 1.261 . S
C275 O270 1.259 . S
C275 O272 1.235 . S
O276 Co266 2.021 . S
O276 C273 1.238 . S
O277 Co271 2.052 . S
O277 C273 1.241 . S
O278 Co266 2.137 . S
O278 C269 1.247 . S
O279 Co266 2.244 . S
O279 C269 1.272 . S
O279 Co271 2.135 . S
Co280 O281 2.216 1_556 S
Co280 O282 2.091 1_556 S
Co280 O284 2.004 . S
Co280 O290 2.021 1_556 S
Co280 O292 2.137 . S
Co280 O293 2.244 . S
O281 Co280 2.216 1_554 S
O281 C288 1.247 . S
O282 Co280 2.091 1_554 S
O282 C288 1.261 . S
C283 O292 1.247 . S
C283 O293 1.272 . S
O284 Co280 2.004 . S
O284 C289 1.259 . S
Co285 O286 2.061 . S
Co285 O291 2.052 . S
Co285 O293 2.135 1_554 S
O286 Co285 2.061 . S
O286 C289 1.235 1_554 S
C287 O290 1.238 . S
C287 O291 1.241 . S
C288 O281 1.247 . S
C288 O282 1.261 . S
C289 O284 1.259 . S
C289 O286 1.235 1_556 S
O290 Co280 2.021 1_554 S
O290 C287 1.238 . S
O291 Co285 2.052 . S
O291 C287 1.241 . S
O292 Co280 2.137 . S
O292 C283 1.247 . S
O293 Co280 2.244 . S
O293 C283 1.272 . S
O293 Co285 2.135 1_556 S
Co294 O295 2.216 . S
Co294 O296 2.091 . S
Co294 O298 2.004 . S
Co294 O304 2.021 . S
Co294 O306 2.137 . S
Co294 O307 2.244 . S
O295 Co294 2.216 . S
O295 C302 1.247 . S
O296 Co294 2.091 . S
O296 C302 1.261 . S
C297 O306 1.247 . S
C297 O307 1.272 . S
O298 Co294 2.004 . S
O298 C303 1.259 . S
Co299 O300 2.061 . S
Co299 O305 2.052 . S
Co299 O307 2.135 . S
O300 Co299 2.061 . S
O300 C303 1.235 . S
C301 O304 1.238 . S
C301 O305 1.241 . S
C302 O295 1.247 . S
C302 O296 1.261 . S
C303 O298 1.259 . S
C303 O300 1.235 . S
O304 Co294 2.021 . S
O304 C301 1.238 . S
O305 Co299 2.052 . S
O305 C301 1.241 . S
O306 Co294 2.137 . S
O306 C297 1.247 . S
O307 Co294 2.244 . S
O307 C297 1.272 . S
O307 Co299 2.135 . S
Co308 O309 2.216 . S
Co308 O310 2.091 . S
Co308 O312 2.004 . S
Co308 O318 2.021 . S
Co308 O320 2.137 . S
Co308 O321 2.244 . S
O309 Co308 2.216 . S
O309 C316 1.247 . S
O310 Co308 2.091 . S
O310 C316 1.261 . S
C311 O320 1.247 . S
C311 O321 1.272 . S
O312 Co308 2.004 . S
O312 C317 1.259 . S
Co313 O314 2.061 . S
Co313 O319 2.052 . S
Co313 O321 2.135 . S
O314 Co313 2.061 . S
O314 C317 1.235 . S
C315 O318 1.238 . S
C315 O319 1.241 . S
C316 O309 1.247 . S
C316 O310 1.261 . S
C317 O312 1.259 . S
C317 O314 1.235 . S
O318 Co308 2.021 . S
O318 C315 1.238 . S
O319 Co313 2.052 . S
O319 C315 1.241 . S
O320 Co308 2.137 . S
O320 C311 1.247 . S
O321 Co308 2.244 . S
O321 C311 1.272 . S
O321 Co313 2.135 . S
Co322 O323 2.216 . S
Co322 O324 2.091 . S
Co322 O326 2.004 . S
Co322 O332 2.021 . S
Co322 O334 2.137 . S
Co322 O335 2.244 . S
O323 Co322 2.216 . S
O323 C330 1.247 . S
O324 Co322 2.091 . S
O324 C330 1.261 . S
C325 O334 1.247 . S
C325 O335 1.272 . S
O326 Co322 2.004 . S
O326 C331 1.259 . S
Co327 O328 2.061 . S
Co327 O333 2.052 . S
Co327 O335 2.135 . S
O328 Co327 2.061 . S
O328 C331 1.235 . S
C329 O332 1.238 . S
C329 O333 1.241 . S
C330 O323 1.247 . S
C330 O324 1.261 . S
C331 O326 1.259 . S
C331 O328 1.235 . S
O332 Co322 2.021 . S
O332 C329 1.238 . S
O333 Co327 2.052 . S
O333 C329 1.241 . S
O334 Co322 2.137 . S
O334 C325 1.247 . S
O335 Co322 2.244 . S
O335 C325 1.272 . S
O335 Co327 2.135 . S
Dy336 O340 2.398 . S
Dy336 O341 2.491 1_556 S
Dy336 O342 2.403 . S
Dy336 O343 2.664 1_655 S
Dy336 O347 2.326 . S
Dy336 O351 2.310 1_656 S
Dy336 O352 2.351 1_546 S
C337 O348 1.185 . S
C337 O349 1.355 1_545 S
C338 O340 1.185 . S
C338 O341 1.355 1_556 S
Dy339 O343 2.310 1_554 S
Dy339 O346 2.351 . S
Dy339 O348 2.398 . S
Dy339 O349 2.491 1_545 S
Dy339 O350 2.403 . S
Dy339 O351 2.664 . S
Dy339 O353 2.326 1_545 S
O340 Dy336 2.398 . S
O340 C338 1.185 . S
O341 Dy336 2.491 1_554 S
O341 C338 1.355 1_554 S
O342 Dy336 2.403 . S
O342 C344 1.254 1_655 S
O343 Dy336 2.664 1_455 S
O343 Dy339 2.310 1_556 S
O343 C344 1.268 . S
C344 O342 1.254 1_455 S
C344 O343 1.268 . S
C345 O350 1.254 . S
C345 O351 1.268 . S
O346 Dy339 2.351 . S
O346 C354 1.249 1_554 S
O347 Dy336 2.326 . S
O347 C354 1.267 1_655 S
O348 C337 1.185 . S
O348 Dy339 2.398 . S
O349 C337 1.355 1_565 S
O349 Dy339 2.491 1_565 S
O350 Dy339 2.403 . S
O350 C345 1.254 . S
O351 Dy336 2.310 1_454 S
O351 Dy339 2.664 . S
O351 C345 1.268 . S
O352 Dy336 2.351 1_564 S
O352 C355 1.249 1_655 S
O353 Dy339 2.326 1_565 S
O353 C355 1.267 . S
C354 O346 1.249 1_556 S
C354 O347 1.267 1_455 S
C355 O352 1.249 1_455 S
C355 O353 1.267 . S
Dy356 O360 2.398 . S
Dy356 O361 2.491 . S
Dy356 O362 2.403 . S
Dy356 O363 2.664 . S
Dy356 O367 2.326 . S
Dy356 O371 2.310 . S
Dy356 O372 2.351 . S
C357 O368 1.185 . S
C357 O369 1.355 . S
C358 O360 1.185 . S
C358 O361 1.355 . S
Dy359 O363 2.310 . S
Dy359 O366 2.351 . S
Dy359 O368 2.398 . S
Dy359 O369 2.491 . S
Dy359 O370 2.403 . S
Dy359 O371 2.664 . S
Dy359 O373 2.326 . S
O360 Dy356 2.398 . S
O360 C358 1.185 . S
O361 Dy356 2.491 . S
O361 C358 1.355 . S
O362 Dy356 2.403 . S
O362 C364 1.254 . S
O363 Dy356 2.664 . S
O363 Dy359 2.310 . S
O363 C364 1.268 . S
C364 O362 1.254 . S
C364 O363 1.268 . S
C365 O370 1.254 . S
C365 O371 1.268 . S
O366 Dy359 2.351 . S
O366 C374 1.249 . S
O367 Dy356 2.326 . S
O367 C374 1.267 . S
O368 C357 1.185 . S
O368 Dy359 2.398 . S
O369 C357 1.355 . S
O369 Dy359 2.491 . S
O370 Dy359 2.403 . S
O370 C365 1.254 . S
O371 Dy356 2.310 . S
O371 Dy359 2.664 . S
O371 C365 1.268 . S
O372 Dy356 2.351 . S
O372 C375 1.249 . S
O373 Dy359 2.326 . S
O373 C375 1.267 . S
C374 O366 1.249 . S
C374 O367 1.267 . S
C375 O372 1.249 . S
C375 O373 1.267 . S
Dy376 O380 2.400 . S
Dy376 O381 2.491 1_545 S
Dy376 O382 2.403 . S
Dy376 O383 2.664 . S
Dy376 O387 2.326 1_545 S
Dy376 O391 2.310 . S
Dy376 O392 2.351 . S
C377 O388 1.185 . S
C377 O389 1.355 . S
C378 O380 1.181 1_565 S
C378 O381 1.355 . S
Dy379 O383 2.310 . S
Dy379 O386 2.351 1_545 S
Dy379 O388 2.398 . S
Dy379 O389 2.491 . S
Dy379 O390 2.403 . S
Dy379 O391 2.664 . S
Dy379 O393 2.326 . S
O380 Dy376 2.400 . S
O380 C378 1.181 1_545 S
O381 Dy376 2.491 1_565 S
O381 C378 1.355 . S
O382 Dy376 2.403 . S
O382 C384 1.254 . S
O383 Dy376 2.664 . S
O383 Dy379 2.310 . S
O383 C384 1.268 . S
C384 O382 1.254 . S
C384 O383 1.268 . S
C385 O390 1.254 . S
C385 O391 1.268 . S
O386 Dy379 2.351 1_565 S
O386 C394 1.249 . S
O387 Dy376 2.326 1_565 S
O387 C394 1.267 . S
O388 C377 1.185 . S
O388 Dy379 2.398 . S
O389 C377 1.355 . S
O389 Dy379 2.491 . S
O390 Dy379 2.403 . S
O390 C385 1.254 . S
O391 Dy376 2.310 . S
O391 Dy379 2.664 . S
O391 C385 1.268 . S
O392 Dy376 2.351 . S
O392 C395 1.249 . S
O393 Dy379 2.326 . S
O393 C395 1.267 . S
C394 O386 1.249 . S
C394 O387 1.267 . S
C395 O392 1.249 . S
C395 O393 1.267 . S
Dy396 O400 2.398 . S
Dy396 O401 2.491 . S
Dy396 O402 2.403 . S
Dy396 O403 2.664 . S
Dy396 O407 2.326 . S
Dy396 O411 2.310 . S
Dy396 O412 2.351 . S
C397 O408 1.185 . S
C397 O409 1.355 . S
C398 O400 1.185 . S
C398 O401 1.355 . S
Dy399 O403 2.310 . S
Dy399 O406 2.351 . S
Dy399 O408 2.398 . S
Dy399 O409 2.491 . S
Dy399 O410 2.403 . S
Dy399 O411 2.664 . S
Dy399 O413 2.326 . S
O400 Dy396 2.398 . S
O400 C398 1.185 . S
O401 Dy396 2.491 . S
O401 C398 1.355 . S
O402 Dy396 2.403 . S
O402 C404 1.254 . S
O403 Dy396 2.664 . S
O403 Dy399 2.310 . S
O403 C404 1.268 . S
C404 O402 1.254 . S
C404 O403 1.268 . S
C405 O410 1.254 . S
C405 O411 1.268 . S
O406 Dy399 2.351 . S
O406 C414 1.249 . S
O407 Dy396 2.326 . S
O407 C414 1.267 . S
O408 C397 1.185 . S
O408 Dy399 2.398 . S
O409 C397 1.355 . S
O409 Dy399 2.491 . S
O410 Dy399 2.403 . S
O410 C405 1.254 . S
O411 Dy396 2.310 . S
O411 Dy399 2.664 . S
O411 C405 1.268 . S
O412 Dy396 2.351 . S
O412 C415 1.249 . S
O413 Dy399 2.326 . S
O413 C415 1.267 . S
C414 O406 1.249 . S
C414 O407 1.267 . S
C415 O412 1.249 . S
C415 O413 1.267 . S
Dy416 O420 2.394 1_565 S
Dy416 O421 2.486 1_465 S
Dy416 O422 2.400 1_565 S
Dy416 O423 2.661 1_565 S
Dy416 O427 2.313 1_565 S
Dy416 O431 2.307 1_465 S
Dy416 O432 2.362 . S
C417 O428 1.185 . S
C417 O429 1.355 . S
C418 O420 1.185 1_655 S
C418 O421 1.355 . S
Dy419 O423 2.310 . S
Dy419 O426 2.351 . S
Dy419 O428 2.398 . S
Dy419 O429 2.491 . S
Dy419 O430 2.403 1_455 S
Dy419 O431 2.664 1_455 S
Dy419 O433 2.326 1_545 S
O420 Dy416 2.394 1_545 S
O420 C418 1.185 1_455 S
O421 Dy416 2.486 1_645 S
O421 C418 1.355 . S
O422 Dy416 2.400 1_545 S
O422 C424 1.254 . S
O423 Dy416 2.661 1_545 S
O423 Dy419 2.310 . S
O423 C424 1.268 . S
C424 O422 1.254 . S
C424 O423 1.268 . S
C425 O430 1.254 . S
C425 O431 1.268 . S
O426 Dy419 2.351 . S
O426 C434 1.249 . S
O427 Dy416 2.313 1_545 S
O427 C434 1.267 . S
O428 C417 1.185 . S
O428 Dy419 2.398 . S
O429 C417 1.355 . S
O429 Dy419 2.491 . S
O430 Dy419 2.403 1_655 S
O430 C425 1.254 . S
O431 Dy416 2.307 1_645 S
O431 Dy419 2.664 1_655 S
O431 C425 1.268 . S
O432 Dy416 2.362 . S
O432 C435 1.249 . S
O433 Dy419 2.326 1_565 S
O433 C435 1.267 . S
C434 O426 1.249 . S
C434 O427 1.267 . S
C435 O432 1.249 . S
C435 O433 1.267 . S
Dy436 O440 2.398 . S
Dy436 O441 2.491 . S
Dy436 O442 2.403 . S
Dy436 O443 2.664 . S
Dy436 O447 2.326 . S
Dy436 O451 2.310 . S
Dy436 O452 2.351 . S
C437 O448 1.185 . S
C437 O449 1.355 . S
C438 O440 1.185 . S
C438 O441 1.355 . S
Dy439 O443 2.310 . S
Dy439 O446 2.351 . S
Dy439 O448 2.398 . S
Dy439 O449 2.491 . S
Dy439 O450 2.403 . S
Dy439 O451 2.664 . S
Dy439 O453 2.326 . S
O440 Dy436 2.398 . S
O440 C438 1.185 . S
O441 Dy436 2.491 . S
O441 C438 1.355 . S
O442 Dy436 2.403 . S
O442 C444 1.254 . S
O443 Dy436 2.664 . S
O443 Dy439 2.310 . S
O443 C444 1.268 . S
C444 O442 1.254 . S
C444 O443 1.268 . S
C445 O450 1.254 . S
C445 O451 1.268 . S
O446 Dy439 2.351 . S
O446 C454 1.249 . S
O447 Dy436 2.326 . S
O447 C454 1.267 . S
O448 C437 1.185 . S
O448 Dy439 2.398 . S
O449 C437 1.355 . S
O449 Dy439 2.491 . S
O450 Dy439 2.403 . S
O450 C445 1.254 . S
O451 Dy436 2.310 . S
O451 Dy439 2.664 . S
O451 C445 1.268 . S
O452 Dy436 2.351 . S
O452 C455 1.249 . S
O453 Dy439 2.326 . S
O453 C455 1.267 . S
C454 O446 1.249 . S
C454 O447 1.267 . S
C455 O452 1.249 . S
C455 O453 1.267 . S
Dy456 O460 2.398 1_545 S
Dy456 O461 2.491 . S
Dy456 O462 2.403 1_545 S
Dy456 O463 2.664 1_544 S
Dy456 O467 2.326 1_545 S
Dy456 O471 2.310 . S
Dy456 O472 2.351 . S
C457 O468 1.185 . S
C457 O469 1.355 . S
C458 O460 1.185 . S
C458 O461 1.355 1_565 S
Dy459 O463 2.310 1_545 S
Dy459 O466 2.351 . S
Dy459 O468 2.398 . S
Dy459 O469 2.491 . S
Dy459 O470 2.403 . S
Dy459 O471 2.664 1_556 S
Dy459 O473 2.326 . S
O460 Dy456 2.398 1_565 S
O460 C458 1.185 . S
O461 Dy456 2.491 . S
O461 C458 1.355 1_545 S
O462 Dy456 2.403 1_565 S
O462 C464 1.254 1_554 S
O463 Dy456 2.664 1_566 S
O463 Dy459 2.310 1_565 S
O463 C464 1.268 . S
C464 O462 1.254 1_556 S
C464 O463 1.268 . S
C465 O470 1.254 1_554 S
C465 O471 1.268 . S
O466 Dy459 2.351 . S
O466 C474 1.238 1_546 S
O467 Dy456 2.326 1_565 S
O467 C474 1.281 . S
O468 C457 1.185 . S
O468 Dy459 2.398 . S
O469 C457 1.355 . S
O469 Dy459 2.491 . S
O470 Dy459 2.403 . S
O470 C465 1.254 1_556 S
O471 Dy456 2.310 . S
O471 Dy459 2.664 1_554 S
O471 C465 1.268 . S
O472 Dy456 2.351 . S
O472 C475 1.249 . S
O473 Dy459 2.326 . S
O473 C475 1.267 1_556 S
C474 O466 1.238 1_564 S
C474 O467 1.281 . S
C475 O472 1.249 . S
C475 O473 1.267 1_554 S
Dy476 O480 2.398 . S
Dy476 O481 2.491 . S
Dy476 O482 2.403 . S
Dy476 O483 2.664 . S
Dy476 O487 2.326 . S
Dy476 O491 2.310 . S
Dy476 O492 2.351 . S
C477 O488 1.185 . S
C477 O489 1.355 . S
C478 O480 1.185 . S
C478 O481 1.355 . S
Dy479 O483 2.310 . S
Dy479 O486 2.351 . S
Dy479 O488 2.398 . S
Dy479 O489 2.491 . S
Dy479 O490 2.403 . S
Dy479 O491 2.664 . S
Dy479 O493 2.326 . S
O480 Dy476 2.398 . S
O480 C478 1.185 . S
O481 Dy476 2.491 . S
O481 C478 1.355 . S
O482 Dy476 2.403 . S
O482 C484 1.254 . S
O483 Dy476 2.664 . S
O483 Dy479 2.310 . S
O483 C484 1.268 . S
C484 O482 1.254 . S
C484 O483 1.268 . S
C485 O490 1.254 . S
C485 O491 1.268 . S
O486 Dy479 2.351 . S
O486 C494 1.249 . S
O487 Dy476 2.326 . S
O487 C494 1.267 . S
O488 C477 1.185 . S
O488 Dy479 2.398 . S
O489 C477 1.355 . S
O489 Dy479 2.491 . S
O490 Dy479 2.403 . S
O490 C485 1.254 . S
O491 Dy476 2.310 . S
O491 Dy479 2.664 . S
O491 C485 1.268 . S
O492 Dy476 2.351 . S
O492 C495 1.249 . S
O493 Dy479 2.326 . S
O493 C495 1.267 . S
C494 O486 1.249 . S
C494 O487 1.267 . S
C495 O492 1.249 . S
C495 O493 1.267 . S
Dy496 O500 2.398 . S
Dy496 O501 2.491 . S
Dy496 O502 2.403 . S
Dy496 O503 2.664 1_556 S
Dy496 O507 2.326 . S
Dy496 O511 2.301 1_556 S
Dy496 O512 2.351 . S
C497 O508 1.185 . S
C497 O509 1.355 . S
C498 O500 1.185 . S
C498 O501 1.355 . S
Dy499 O503 2.310 . S
Dy499 O506 2.351 . S
Dy499 O508 2.398 . S
Dy499 O509 2.491 . S
Dy499 O510 2.403 . S
Dy499 O511 2.672 . S
Dy499 O513 2.326 . S
O500 Dy496 2.398 . S
O500 C498 1.185 . S
O501 Dy496 2.491 . S
O501 C498 1.355 . S
O502 Dy496 2.403 . S
O502 C504 1.254 . S
O503 Dy496 2.664 1_554 S
O503 Dy499 2.310 . S
O503 C504 1.268 1_554 S
C504 O502 1.254 . S
C504 O503 1.268 1_556 S
C505 O510 1.254 . S
C505 O511 1.275 . S
O506 Dy499 2.351 . S
O506 C514 1.249 1_554 S
O507 Dy496 2.326 . S
O507 C514 1.267 . S
O508 C497 1.185 . S
O508 Dy499 2.398 . S
O509 C497 1.355 . S
O509 Dy499 2.491 . S
O510 Dy499 2.403 . S
O510 C505 1.254 . S
O511 Dy496 2.301 1_554 S
O511 Dy499 2.672 . S
O511 C505 1.275 . S
O512 Dy496 2.351 . S
O512 C515 1.249 1_556 S
O513 Dy499 2.326 . S
O513 C515 1.267 . S
C514 O506 1.249 1_556 S
C514 O507 1.267 . S
C515 O512 1.249 1_554 S
C515 O513 1.267 . S
Dy516 O520 2.398 . S
Dy516 O521 2.491 . S
Dy516 O522 2.403 . S
Dy516 O523 2.664 . S
Dy516 O527 2.326 . S
Dy516 O531 2.310 . S
Dy516 O532 2.351 . S
C517 O528 1.185 . S
C517 O529 1.355 . S
C518 O520 1.185 . S
C518 O521 1.355 . S
Dy519 O523 2.310 . S
Dy519 O526 2.351 . S
Dy519 O528 2.398 . S
Dy519 O529 2.491 . S
Dy519 O530 2.403 . S
Dy519 O531 2.664 . S
Dy519 O533 2.326 . S
O520 Dy516 2.398 . S
O520 C518 1.185 . S
O521 Dy516 2.491 . S
O521 C518 1.355 . S
O522 Dy516 2.403 . S
O522 C524 1.254 . S
O523 Dy516 2.664 . S
O523 Dy519 2.310 . S
O523 C524 1.268 . S
C524 O522 1.254 . S
C524 O523 1.268 . S
C525 O530 1.254 . S
C525 O531 1.268 . S
O526 Dy519 2.351 . S
O526 C534 1.249 . S
O527 Dy516 2.326 . S
O527 C534 1.267 . S
O528 C517 1.185 . S
O528 Dy519 2.398 . S
O529 C517 1.355 . S
O529 Dy519 2.491 . S
O530 Dy519 2.403 . S
O530 C525 1.254 . S
O531 Dy516 2.310 . S
O531 Dy519 2.664 . S
O531 C525 1.268 . S
O532 Dy516 2.351 . S
O532 C535 1.249 . S
O533 Dy519 2.326 . S
O533 C535 1.267 . S
C534 O526 1.249 . S
C534 O527 1.267 . S
C535 O532 1.249 . S
C535 O533 1.267 . S
Dy536 O540 2.398 1_455 S
Dy536 O541 2.491 1_455 S
Dy536 O542 2.403 . S
Dy536 O543 2.664 . S
Dy536 O547 2.326 1_455 S
Dy536 O551 2.310 . S
Dy536 O552 2.351 . S
C537 O548 1.185 . S
C537 O549 1.355 . S
C538 O540 1.185 . S
C538 O541 1.355 . S
Dy539 O543 2.310 . S
Dy539 O546 2.351 1_455 S
Dy539 O548 2.398 . S
Dy539 O549 2.491 . S
Dy539 O550 2.403 . S
Dy539 O551 2.664 . S
Dy539 O553 2.326 . S
O540 Dy536 2.398 1_655 S
O540 C538 1.185 . S
O541 Dy536 2.491 1_655 S
O541 C538 1.355 . S
O542 Dy536 2.403 . S
O542 C544 1.254 . S
O543 Dy536 2.664 . S
O543 Dy539 2.310 . S
O543 C544 1.268 . S
C544 O542 1.254 . S
C544 O543 1.268 . S
C545 O550 1.254 . S
C545 O551 1.268 . S
O546 Dy539 2.351 1_655 S
O546 C554 1.249 . S
O547 Dy536 2.326 1_655 S
O547 C554 1.267 . S
O548 C537 1.185 . S
O548 Dy539 2.398 . S
O549 C537 1.355 . S
O549 Dy539 2.491 . S
O550 Dy539 2.403 . S
O550 C545 1.254 . S
O551 Dy536 2.310 . S
O551 Dy539 2.664 . S
O551 C545 1.268 . S
O552 Dy536 2.351 . S
O552 C555 1.249 . S
O553 Dy539 2.326 . S
O553 C555 1.267 . S
C554 O546 1.249 . S
C554 O547 1.267 . S
C555 O552 1.249 . S
C555 O553 1.267 . S
Dy556 O560 2.398 . S
Dy556 O561 2.491 . S
Dy556 O562 2.403 . S
Dy556 O563 2.664 . S
Dy556 O567 2.326 . S
Dy556 O571 2.310 . S
Dy556 O572 2.351 . S
C557 O568 1.185 . S
C557 O569 1.355 . S
C558 O560 1.185 . S
C558 O561 1.355 . S
Dy559 O563 2.310 . S
Dy559 O566 2.351 . S
Dy559 O568 2.398 . S
Dy559 O569 2.491 . S
Dy559 O570 2.403 . S
Dy559 O571 2.664 . S
Dy559 O573 2.326 . S
O560 Dy556 2.398 . S
O560 C558 1.185 . S
O561 Dy556 2.491 . S
O561 C558 1.355 . S
O562 Dy556 2.403 . S
O562 C564 1.254 . S
O563 Dy556 2.664 . S
O563 Dy559 2.310 . S
O563 C564 1.268 . S
C564 O562 1.254 . S
C564 O563 1.268 . S
C565 O570 1.254 . S
C565 O571 1.268 . S
O566 Dy559 2.351 . S
O566 C574 1.249 . S
O567 Dy556 2.326 . S
O567 C574 1.267 . S
O568 C557 1.185 . S
O568 Dy559 2.398 . S
O569 C557 1.355 . S
O569 Dy559 2.491 . S
O570 Dy559 2.403 . S
O570 C565 1.254 . S
O571 Dy556 2.310 . S
O571 Dy559 2.664 . S
O571 C565 1.268 . S
O572 Dy556 2.351 . S
O572 C575 1.249 . S
O573 Dy559 2.326 . S
O573 C575 1.267 . S
C574 O566 1.249 . S
C574 O567 1.267 . S
C575 O572 1.249 . S
C575 O573 1.267 . S
Dy576 O580 2.398 . S
Dy576 O581 2.491 . S
Dy576 O582 2.403 . S
Dy576 O583 2.664 . S
Dy576 O587 2.326 . S
Dy576 O591 2.310 . S
Dy576 O592 2.351 . S
C577 O588 1.185 . S
C577 O589 1.355 . S
C578 O580 1.185 . S
C578 O581 1.355 . S
Dy579 O583 2.310 . S
Dy579 O586 2.351 . S
Dy579 O588 2.398 . S
Dy579 O589 2.491 . S
Dy579 O590 2.403 . S
Dy579 O591 2.664 . S
Dy579 O593 2.326 . S
O580 Dy576 2.398 . S
O580 C578 1.185 . S
O581 Dy576 2.491 . S
O581 C578 1.355 . S
O582 Dy576 2.403 . S
O582 C584 1.254 . S
O583 Dy576 2.664 . S
O583 Dy579 2.310 . S
O583 C584 1.268 . S
C584 O582 1.254 . S
C584 O583 1.268 . S
C585 O590 1.254 . S
C585 O591 1.268 . S
O586 Dy579 2.351 . S
O586 C594 1.249 . S
O587 Dy576 2.326 . S
O587 C594 1.267 . S
O588 C577 1.185 . S
O588 Dy579 2.398 . S
O589 C577 1.355 . S
O589 Dy579 2.491 . S
O590 Dy579 2.403 . S
O590 C585 1.254 . S
O591 Dy576 2.310 . S
O591 Dy579 2.664 . S
O591 C585 1.268 . S
O592 Dy576 2.351 . S
O592 C595 1.249 . S
O593 Dy579 2.326 . S
O593 C595 1.267 . S
C594 O586 1.249 . S
C594 O587 1.267 . S
C595 O592 1.249 . S
C595 O593 1.267 . S
Dy596 O600 2.398 . S
Dy596 O601 2.491 . S
Dy596 O602 2.403 . S
Dy596 O603 2.664 . S
Dy596 O607 2.326 . S
Dy596 O611 2.310 . S
Dy596 O612 2.351 . S
C597 O608 1.185 . S
C597 O609 1.355 . S
C598 O600 1.185 . S
C598 O601 1.355 . S
Dy599 O603 2.310 . S
Dy599 O606 2.351 . S
Dy599 O608 2.398 . S
Dy599 O609 2.491 . S
Dy599 O610 2.403 . S
Dy599 O611 2.664 . S
Dy599 O613 2.326 . S
O600 Dy596 2.398 . S
O600 C598 1.185 . S
O601 Dy596 2.491 . S
O601 C598 1.355 . S
O602 Dy596 2.403 . S
O602 C604 1.254 . S
O603 Dy596 2.664 . S
O603 Dy599 2.310 . S
O603 C604 1.268 . S
C604 O602 1.254 . S
C604 O603 1.268 . S
C605 O610 1.254 . S
C605 O611 1.268 . S
O606 Dy599 2.351 . S
O606 C614 1.249 . S
O607 Dy596 2.326 . S
O607 C614 1.267 . S
O608 C597 1.185 . S
O608 Dy599 2.398 . S
O609 C597 1.355 . S
O609 Dy599 2.491 . S
O610 Dy599 2.403 . S
O610 C605 1.254 . S
O611 Dy596 2.310 . S
O611 Dy599 2.664 . S
O611 C605 1.268 . S
O612 Dy596 2.351 . S
O612 C615 1.249 . S
O613 Dy599 2.326 . S
O613 C615 1.267 . S
C614 O606 1.249 . S
C614 O607 1.267 . S
C615 O612 1.249 . S
C615 O613 1.267 . S
Dy616 O620 2.398 . S
Dy616 O621 2.491 . S
Dy616 O622 2.403 . S
Dy616 O623 2.664 . S
Dy616 O627 2.326 . S
Dy616 O631 2.310 . S
Dy616 O632 2.351 . S
C617 O628 1.185 . S
C617 O629 1.355 . S
C618 O620 1.185 . S
C618 O621 1.355 . S
Dy619 O623 2.310 . S
Dy619 O626 2.351 . S
Dy619 O628 2.398 . S
Dy619 O629 2.491 . S
Dy619 O630 2.403 . S
Dy619 O631 2.664 . S
Dy619 O633 2.326 . S
O620 Dy616 2.398 . S
O620 C618 1.185 . S
O621 Dy616 2.491 . S
O621 C618 1.355 . S
O622 Dy616 2.403 . S
O622 C624 1.254 . S
O623 Dy616 2.664 . S
O623 Dy619 2.310 . S
O623 C624 1.268 . S
C624 O622 1.254 . S
C624 O623 1.268 . S
C625 O630 1.254 . S
C625 O631 1.268 . S
O626 Dy619 2.351 . S
O626 C634 1.249 . S
O627 Dy616 2.326 . S
O627 C634 1.267 . S
O628 C617 1.185 . S
O628 Dy619 2.398 . S
O629 C617 1.355 . S
O629 Dy619 2.491 . S
O630 Dy619 2.403 . S
O630 C625 1.254 . S
O631 Dy616 2.310 . S
O631 Dy619 2.664 . S
O631 C625 1.268 . S
O632 Dy616 2.351 . S
O632 C635 1.249 . S
O633 Dy619 2.326 . S
O633 C635 1.267 . S
C634 O626 1.249 . S
C634 O627 1.267 . S
C635 O632 1.249 . S
C635 O633 1.267 . S
Dy636 O640 2.398 . S
Dy636 O641 2.491 1_556 S
Dy636 O642 2.403 . S
Dy636 O643 2.690 . S
Dy636 O647 2.326 . S
Dy636 O651 2.310 1_556 S
Dy636 O652 2.351 1_556 S
C637 O648 1.185 . S
C637 O649 1.355 . S
C638 O640 1.185 . S
C638 O641 1.355 1_556 S
Dy639 O643 2.295 1_654 S
Dy639 O646 2.351 . S
Dy639 O648 2.398 . S
Dy639 O649 2.491 . S
Dy639 O650 2.403 . S
Dy639 O651 2.664 1_655 S
Dy639 O653 2.321 1_655 S
O640 Dy636 2.398 . S
O640 C638 1.185 . S
O641 Dy636 2.491 1_554 S
O641 C638 1.355 1_554 S
O642 Dy636 2.403 . S
O642 C644 1.254 . S
O643 Dy636 2.690 . S
O643 Dy639 2.295 1_456 S
O643 C644 1.277 . S
C644 O642 1.254 . S
C644 O643 1.277 . S
C645 O650 1.254 1_455 S
C645 O651 1.268 . S
O646 Dy639 2.351 . S
O646 C654 1.249 1_654 S
O647 Dy636 2.326 . S
O647 C654 1.267 . S
O648 C637 1.185 . S
O648 Dy639 2.398 . S
O649 C637 1.355 . S
O649 Dy639 2.491 . S
O650 Dy639 2.403 . S
O650 C645 1.254 1_655 S
O651 Dy636 2.310 1_554 S
O651 Dy639 2.664 1_455 S
O651 C645 1.268 . S
O652 Dy636 2.351 1_554 S
O652 C655 1.249 . S
O653 Dy639 2.321 1_455 S
O653 C655 1.277 . S
C654 O646 1.249 1_456 S
C654 O647 1.267 . S
C655 O652 1.249 . S
C655 O653 1.277 . S
C656 C657 1.359 . S
C656 C662 1.379 1_655 S
C656 N664 1.356 . S
C657 C656 1.359 . S
C657 C663 1.358 1_655 S
C658 C659 1.363 . S
C658 C663 1.379 . S
C658 N665 1.356 1_556 S
C659 C658 1.363 . S
C659 C662 1.363 . S
N660 C662 1.356 . S
N660 H672 0.984 1_455 S
N660 H673 0.985 . S
N661 C663 1.356 . S
N661 H666 0.984 . S
N661 H667 0.985 1_556 S
C662 C656 1.379 1_455 S
C662 C659 1.363 . S
C662 N660 1.356 . S
C663 C657 1.358 1_455 S
C663 C658 1.379 . S
C663 N661 1.356 . S
N664 C656 1.356 . S
N664 H670 0.984 . S
N664 H671 0.984 . S
N665 C658 1.356 1_554 S
N665 H668 0.984 . S
N665 H669 0.985 . S
H666 N661 0.984 . S
H667 N661 0.985 1_554 S
H668 N665 0.984 . S
H669 N665 0.985 . S
H670 N664 0.984 . S
H671 N664 0.984 . S
H672 N660 0.984 1_655 S
H673 N660 0.985 . S
C674 C675 1.363 . S
C674 C680 1.379 . S
C674 N682 1.356 . S
C675 C674 1.363 . S
C675 C681 1.363 . S
C676 C677 1.363 . S
C676 C681 1.379 . S
C676 N683 1.356 . S
C677 C676 1.363 . S
C677 C680 1.363 . S
N678 C680 1.356 . S
N678 H690 0.984 . S
N678 H691 0.985 . S
N679 C681 1.356 . S
N679 H684 0.984 . S
N679 H685 0.985 . S
C680 C674 1.379 . S
C680 C677 1.363 . S
C680 N678 1.356 . S
C681 C675 1.363 . S
C681 C676 1.379 . S
C681 N679 1.356 . S
N682 C674 1.356 . S
N682 H688 0.984 . S
N682 H689 0.984 . S
N683 C676 1.356 . S
N683 H686 0.984 . S
N683 H687 0.985 . S
H684 N679 0.984 . S
H685 N679 0.985 . S
H686 N683 0.984 . S
H687 N683 0.985 . S
H688 N682 0.984 . S
H689 N682 0.984 . S
H690 N678 0.984 . S
H691 N678 0.985 . S
C692 C693 1.363 . S
C692 C698 1.379 . S
C692 N700 1.356 . S
C693 C692 1.363 . S
C693 C699 1.363 . S
C694 C695 1.363 . S
C694 C699 1.379 . S
C694 N701 1.356 . S
C695 C694 1.363 . S
C695 C698 1.363 . S
N696 C698 1.356 . S
N696 H708 0.984 . S
N696 H709 0.985 . S
N697 C699 1.356 . S
N697 H702 0.984 . S
N697 H703 0.985 . S
C698 C692 1.379 . S
C698 C695 1.363 . S
C698 N696 1.356 . S
C699 C693 1.363 . S
C699 C694 1.379 . S
C699 N697 1.356 . S
N700 C692 1.356 . S
N700 H706 0.984 . S
N700 H707 0.984 . S
N701 C694 1.356 . S
N701 H704 0.984 . S
N701 H705 0.985 . S
H702 N697 0.984 . S
H703 N697 0.985 . S
H704 N701 0.984 . S
H705 N701 0.985 . S
H706 N700 0.984 . S
H707 N700 0.984 . S
H708 N696 0.984 . S
H709 N696 0.985 . S
C710 C711 1.363 . S
C710 C716 1.379 . S
C710 N718 1.356 . S
C711 C710 1.363 . S
C711 C717 1.363 . S
C712 C713 1.363 . S
C712 C717 1.379 . S
C712 N719 1.356 . S
C713 C712 1.363 . S
C713 C716 1.363 . S
N714 C716 1.356 . S
N714 H726 0.984 . S
N714 H727 0.985 . S
N715 C717 1.356 . S
N715 H720 0.984 . S
N715 H721 0.985 . S
C716 C710 1.379 . S
C716 C713 1.363 . S
C716 N714 1.356 . S
C717 C711 1.363 . S
C717 C712 1.379 . S
C717 N715 1.356 . S
N718 C710 1.356 . S
N718 H724 0.984 . S
N718 H725 0.984 . S
N719 C712 1.356 . S
N719 H722 0.984 . S
N719 H723 0.985 . S
H720 N715 0.984 . S
H721 N715 0.985 . S
H722 N719 0.984 . S
H723 N719 0.985 . S
H724 N718 0.984 . S
H725 N718 0.984 . S
H726 N714 0.984 . S
H727 N714 0.985 . S
C728 C729 1.363 . S
C728 C734 1.379 . S
C728 N736 1.356 . S
C729 C728 1.363 . S
C729 C735 1.363 . S
C730 C731 1.363 . S
C730 C735 1.379 . S
C730 N737 1.356 . S
C731 C730 1.363 . S
C731 C734 1.363 . S
N732 C734 1.356 . S
N732 H744 0.984 . S
N732 H745 0.985 . S
N733 C735 1.344 1_655 S
N733 H738 0.982 . S
N733 H739 1.001 . S
C734 C728 1.379 . S
C734 C731 1.363 . S
C734 N732 1.356 . S
C735 C729 1.363 . S
C735 C730 1.379 . S
C735 N733 1.344 1_455 S
N736 C728 1.356 . S
N736 H742 0.984 . S
N736 H743 0.984 . S
N737 C730 1.356 . S
N737 H740 0.984 . S
N737 H741 0.985 . S
H738 N733 0.982 . S
H739 N733 1.001 . S
H740 N737 0.984 . S
H741 N737 0.985 . S
H742 N736 0.984 . S
H743 N736 0.984 . S
H744 N732 0.984 . S
H745 N732 0.985 . S
C746 C747 1.363 . S
C746 C752 1.379 . S
C746 N754 1.356 . S
C747 C746 1.363 . S
C747 C753 1.363 . S
C748 C749 1.363 . S
C748 C753 1.379 . S
C748 N755 1.356 . S
C749 C748 1.363 . S
C749 C752 1.363 . S
N750 C752 1.356 . S
N750 H762 0.984 . S
N750 H763 0.985 . S
N751 C753 1.356 . S
N751 H756 0.984 . S
N751 H757 0.985 . S
C752 C746 1.379 . S
C752 C749 1.363 . S
C752 N750 1.356 . S
C753 C747 1.363 . S
C753 C748 1.379 . S
C753 N751 1.356 . S
N754 C746 1.356 . S
N754 H760 0.984 . S
N754 H761 0.984 . S
N755 C748 1.356 . S
N755 H758 0.984 . S
N755 H759 0.985 . S
H756 N751 0.984 . S
H757 N751 0.985 . S
H758 N755 0.984 . S
H759 N755 0.985 . S
H760 N754 0.984 . S
H761 N754 0.984 . S
H762 N750 0.984 . S
H763 N750 0.985 . S
C764 C765 1.363 . S
C764 C770 1.379 . S
C764 N772 1.356 . S
C765 C764 1.363 . S
C765 C771 1.363 . S
C766 C767 1.363 . S
C766 C771 1.379 . S
C766 N773 1.356 1_554 S
C767 C766 1.363 . S
C767 C770 1.363 . S
N768 C770 1.356 . S
N768 H780 0.984 . S
N768 H781 0.985 . S
N769 C771 1.356 . S
N769 H774 0.984 . S
N769 H775 0.985 . S
C770 C764 1.379 . S
C770 C767 1.363 . S
C770 N768 1.356 . S
C771 C765 1.363 . S
C771 C766 1.379 . S
C771 N769 1.356 . S
N772 C764 1.356 . S
N772 H778 0.984 . S
N772 H779 0.984 . S
N773 C766 1.356 1_556 S
N773 H776 0.984 . S
N773 H777 0.985 . S
H774 N769 0.984 . S
H775 N769 0.985 . S
H776 N773 0.984 . S
H777 N773 0.985 . S
H778 N772 0.984 . S
H779 N772 0.984 . S
H780 N768 0.984 . S
H781 N768 0.985 . S
C782 C783 1.363 . S
C782 C788 1.379 . S
C782 N790 1.356 . S
C783 C782 1.363 . S
C783 C789 1.363 . S
C784 C785 1.363 . S
C784 C789 1.379 . S
C784 N791 1.356 . S
C785 C784 1.363 . S
C785 C788 1.363 . S
N786 C788 1.356 . S
N786 H798 0.984 . S
N786 H799 0.985 . S
N787 C789 1.356 . S
N787 H792 0.984 . S
N787 H793 0.985 . S
C788 C782 1.379 . S
C788 C785 1.363 . S
C788 N786 1.356 . S
C789 C783 1.363 . S
C789 C784 1.379 . S
C789 N787 1.356 . S
N790 C782 1.356 . S
N790 H796 0.984 . S
N790 H797 0.984 . S
N791 C784 1.356 . S
N791 H794 0.984 . S
N791 H795 0.985 . S
H792 N787 0.984 . S
H793 N787 0.985 . S
H794 N791 0.984 . S
H795 N791 0.985 . S
H796 N790 0.984 . S
H797 N790 0.984 . S
H798 N786 0.984 . S
H799 N786 0.985 . S
C800 C801 1.363 . S
C800 C806 1.379 . S
C800 N808 1.356 . S
C801 C800 1.363 . S
C801 C807 1.363 . S
C802 C803 1.363 . S
C802 C807 1.379 . S
C802 N809 1.356 . S
C803 C802 1.363 . S
C803 C806 1.363 . S
N804 C806 1.356 1_455 S
N804 H816 0.984 1_545 S
N804 H817 0.985 . S
N805 C807 1.356 . S
N805 H810 0.984 . S
N805 H811 0.985 . S
C806 C800 1.379 . S
C806 C803 1.363 . S
C806 N804 1.356 1_655 S
C807 C801 1.363 . S
C807 C802 1.379 . S
C807 N805 1.356 . S
N808 C800 1.356 . S
N808 H814 0.984 1_545 S
N808 H815 0.984 . S
N809 C802 1.356 . S
N809 H812 0.984 . S
N809 H813 0.985 . S
H810 N805 0.984 . S
H811 N805 0.985 . S
H812 N809 0.984 . S
H813 N809 0.985 . S
H814 N808 0.984 1_565 S
H815 N808 0.984 . S
H816 N804 0.984 1_565 S
H817 N804 0.985 . S
C818 C819 1.363 . S
C818 C824 1.379 . S
C818 N826 1.356 . S
C819 C818 1.363 . S
C819 C825 1.363 . S
C820 C821 1.363 . S
C820 C825 1.379 . S
C820 N827 1.356 . S
C821 C820 1.363 . S
C821 C824 1.363 . S
N822 C824 1.356 . S
N822 H834 0.984 . S
N822 H835 0.985 . S
N823 C825 1.356 . S
N823 H828 0.984 . S
N823 H829 0.985 . S
C824 C818 1.379 . S
C824 C821 1.363 . S
C824 N822 1.356 . S
C825 C819 1.363 . S
C825 C820 1.379 . S
C825 N823 1.356 . S
N826 C818 1.356 . S
N826 H832 0.984 . S
N826 H833 0.984 . S
N827 C820 1.356 . S
N827 H830 0.984 . S
N827 H831 0.985 . S
H828 N823 0.984 . S
H829 N823 0.985 . S
H830 N827 0.984 . S
H831 N827 0.985 . S
H832 N826 0.984 . S
H833 N826 0.984 . S
H834 N822 0.984 . S
H835 N822 0.985 . S
C836 C837 1.363 . S
C836 C842 1.379 . S
C836 N844 1.356 . S
C837 C836 1.363 . S
C837 C843 1.363 1_545 S
C838 C839 1.363 1_565 S
C838 C843 1.379 . S
C838 N845 1.356 . S
C839 C838 1.363 1_545 S
C839 C842 1.363 . S
N840 C842 1.356 . S
N840 H852 0.984 . S
N840 H853 0.985 . S
N841 C843 1.356 . S
N841 H846 0.984 . S
N841 H847 0.985 . S
C842 C836 1.379 . S
C842 C839 1.363 . S
C842 N840 1.356 . S
C843 C837 1.363 1_565 S
C843 C838 1.379 . S
C843 N841 1.356 . S
N844 C836 1.356 . S
N844 H850 0.984 . S
N844 H851 0.984 . S
N845 C838 1.356 . S
N845 H848 0.984 . S
N845 H849 0.985 . S
H846 N841 0.984 . S
H847 N841 0.985 . S
H848 N845 0.984 . S
H849 N845 0.985 . S
H850 N844 0.984 . S
H851 N844 0.984 . S
H852 N840 0.984 . S
H853 N840 0.985 . S
C854 C855 1.363 . S
C854 C860 1.379 . S
C854 N862 1.356 . S
C855 C854 1.363 . S
C855 C861 1.363 . S
C856 C857 1.363 . S
C856 C861 1.379 . S
C856 N863 1.356 . S
C857 C856 1.363 . S
C857 C860 1.363 . S
N858 C860 1.356 . S
N858 H870 0.984 . S
N858 H871 0.985 . S
N859 C861 1.356 . S
N859 H864 0.984 . S
N859 H865 0.985 . S
C860 C854 1.379 . S
C860 C857 1.363 . S
C860 N858 1.356 . S
C861 C855 1.363 . S
C861 C856 1.379 . S
C861 N859 1.356 . S
N862 C854 1.356 . S
N862 H868 0.984 . S
N862 H869 0.984 . S
N863 C856 1.356 . S
N863 H866 0.984 . S
N863 H867 0.985 . S
H864 N859 0.984 . S
H865 N859 0.985 . S
H866 N863 0.984 . S
H867 N863 0.985 . S
H868 N862 0.984 . S
H869 N862 0.984 . S
H870 N858 0.984 . S
H871 N858 0.985 . S
C872 C873 1.363 . S
C872 C878 1.379 . S
C872 N880 1.356 . S
C873 C872 1.363 . S
C873 C879 1.363 . S
C874 C875 1.363 . S
C874 C879 1.379 . S
C874 N881 1.356 1_655 S
C875 C874 1.363 . S
C875 C878 1.363 . S
N876 C878 1.356 1_565 S
N876 H888 0.984 . S
N876 H889 0.985 . S
N877 C879 1.356 . S
N877 H882 0.984 . S
N877 H883 0.985 . S
C878 C872 1.379 . S
C878 C875 1.363 . S
C878 N876 1.356 1_545 S
C879 C873 1.363 . S
C879 C874 1.379 . S
C879 N877 1.356 . S
N880 C872 1.356 . S
N880 H886 0.984 1_545 S
N880 H887 0.984 . S
N881 C874 1.356 1_455 S
N881 H884 0.984 . S
N881 H885 0.985 . S
H882 N877 0.984 . S
H883 N877 0.985 . S
H884 N881 0.984 . S
H885 N881 0.985 . S
H886 N880 0.984 1_565 S
H887 N880 0.984 . S
H888 N876 0.984 . S
H889 N876 0.985 . S
C890 C891 1.363 . S
C890 C896 1.379 . S
C890 N898 1.356 . S
C891 C890 1.363 . S
C891 C897 1.363 . S
C892 C893 1.363 . S
C892 C897 1.379 . S
C892 N899 1.356 . S
C893 C892 1.363 . S
C893 C896 1.363 . S
N894 C896 1.356 . S
N894 H906 0.984 . S
N894 H907 0.985 . S
N895 C897 1.356 . S
N895 H900 0.984 . S
N895 H901 0.985 . S
C896 C890 1.379 . S
C896 C893 1.363 . S
C896 N894 1.356 . S
C897 C891 1.363 . S
C897 C892 1.379 . S
C897 N895 1.356 . S
N898 C890 1.356 . S
N898 H904 0.984 . S
N898 H905 0.984 . S
N899 C892 1.356 . S
N899 H902 0.984 . S
N899 H903 0.985 . S
H900 N895 0.984 . S
H901 N895 0.985 . S
H902 N899 0.984 . S
H903 N899 0.985 . S
H904 N898 0.984 . S
H905 N898 0.984 . S
H906 N894 0.984 . S
H907 N894 0.985 . S
C908 C909 1.363 . S
C908 C914 1.379 . S
C908 N916 1.356 1_545 S
C909 C908 1.363 . S
C909 C915 1.363 . S
C910 C911 1.363 . S
C910 C915 1.379 . S
C910 N917 1.356 . S
C911 C910 1.363 . S
C911 C914 1.363 . S
N912 C914 1.356 . S
N912 H924 0.984 1_545 S
N912 H925 0.985 . S
N913 C915 1.356 . S
N913 H918 0.984 . S
N913 H919 0.985 . S
C914 C908 1.379 . S
C914 C911 1.363 . S
C914 N912 1.356 . S
C915 C909 1.363 . S
C915 C910 1.379 . S
C915 N913 1.356 . S
N916 C908 1.356 1_565 S
N916 H922 0.984 . S
N916 H923 0.984 . S
N917 C910 1.356 . S
N917 H920 0.984 . S
N917 H921 0.985 . S
H918 N913 0.984 . S
H919 N913 0.985 . S
H920 N917 0.984 . S
H921 N917 0.985 . S
H922 N916 0.984 . S
H923 N916 0.984 . S
H924 N912 0.984 1_565 S
H925 N912 0.985 . S
C926 C927 1.363 . S
C926 C932 1.379 . S
C926 N934 1.356 . S
C927 C926 1.363 . S
C927 C933 1.363 . S
C928 C929 1.363 . S
C928 C933 1.379 . S
C928 N935 1.356 . S
C929 C928 1.363 . S
C929 C932 1.363 . S
N930 C932 1.356 . S
N930 H942 0.984 . S
N930 H943 0.985 . S
N931 C933 1.356 . S
N931 H936 0.984 . S
N931 H937 0.985 . S
C932 C926 1.379 . S
C932 C929 1.363 . S
C932 N930 1.356 . S
C933 C927 1.363 . S
C933 C928 1.379 . S
C933 N931 1.356 . S
N934 C926 1.356 . S
N934 H940 0.984 . S
N934 H941 0.984 . S
N935 C928 1.356 . S
N935 H938 0.984 . S
N935 H939 0.985 . S
H936 N931 0.984 . S
H937 N931 0.985 . S
H938 N935 0.984 . S
H939 N935 0.985 . S
H940 N934 0.984 . S
H941 N934 0.984 . S
H942 N930 0.984 . S
H943 N930 0.985 . S
C944 C945 1.363 . S
C944 C950 1.379 . S
C944 N952 1.356 . S
C945 C944 1.363 . S
C945 C951 1.363 . S
C946 C947 1.364 . S
C946 C951 1.380 . S
C946 N953 1.355 1_565 S
C947 C946 1.364 . S
C947 C950 1.363 . S
N948 C950 1.356 . S
N948 H960 0.984 . S
N948 H961 0.985 . S
N949 C951 1.356 . S
N949 H954 0.990 . S
N949 H955 0.985 1_565 S
C950 C944 1.379 . S
C950 C947 1.363 . S
C950 N948 1.356 . S
C951 C945 1.363 . S
C951 C946 1.380 . S
C951 N949 1.356 . S
N952 C944 1.356 . S
N952 H958 0.984 . S
N952 H959 0.984 . S
N953 C946 1.355 1_545 S
N953 H956 0.984 . S
N953 H957 0.985 . S
H954 N949 0.990 . S
H955 N949 0.985 1_545 S
H956 N953 0.984 . S
H957 N953 0.985 . S
H958 N952 0.984 . S
H959 N952 0.984 . S
H960 N948 0.984 . S
H961 N948 0.985 . S
C962 C963 1.363 1_554 S
C962 C968 1.379 . S
C962 N970 1.356 . S
C963 C962 1.363 1_556 S
C963 C969 1.363 . S
C964 C965 1.363 . S
C964 C969 1.379 . S
C964 N971 1.356 . S
C965 C964 1.363 . S
C965 C968 1.363 1_556 S
N966 C968 1.356 . S
N966 H978 0.984 . S
N966 H979 0.985 . S
N967 C969 1.356 . S
N967 H972 0.984 . S
N967 H973 0.985 . S
C968 C962 1.379 . S
C968 C965 1.363 1_554 S
C968 N966 1.356 . S
C969 C963 1.363 . S
C969 C964 1.379 . S
C969 N967 1.356 . S
N970 C962 1.356 . S
N970 H976 0.984 . S
N970 H977 0.984 . S
N971 C964 1.356 . S
N971 H974 0.984 . S
N971 H975 0.985 . S
H972 N967 0.984 . S
H973 N967 0.985 . S
H974 N971 0.984 . S
H975 N971 0.985 . S
H976 N970 0.984 . S
H977 N970 0.984 . S
H978 N966 0.984 . S
H979 N966 0.985 . S
C980 C981 1.363 . S
C980 C986 1.379 . S
C980 N988 1.356 . S
C981 C980 1.363 . S
C981 C987 1.363 . S
C982 C983 1.363 . S
C982 C987 1.379 . S
C982 N989 1.356 . S
C983 C982 1.363 . S
C983 C986 1.363 . S
N984 C986 1.356 . S
N984 H996 0.984 . S
N984 H997 0.985 . S
N985 C987 1.356 . S
N985 H990 0.984 . S
N985 H991 0.985 . S
C986 C980 1.379 . S
C986 C983 1.363 . S
C986 N984 1.356 . S
C987 C981 1.363 . S
C987 C982 1.379 . S
C987 N985 1.356 . S
N988 C980 1.356 . S
N988 H994 0.984 . S
N988 H995 0.984 . S
N989 C982 1.356 . S
N989 H992 0.984 . S
N989 H993 0.985 . S
H990 N985 0.984 . S
H991 N985 0.985 . S
H992 N989 0.984 . S
H993 N989 0.985 . S
H994 N988 0.984 . S
H995 N988 0.984 . S
H996 N984 0.984 . S
H997 N984 0.985 . S
C998 C999 1.363 . S
C998 C1004 1.379 . S
C998 N1006 1.356 . S
C999 C998 1.363 . S
C999 C1005 1.363 . S
C1000 C1001 1.363 . S
C1000 C1005 1.379 . S
C1000 N1007 1.356 . S
C1001 C1000 1.363 . S
C1001 C1004 1.363 . S
N1002 C1004 1.356 . S
N1002 H1014 0.984 . S
N1002 H1015 0.985 . S
N1003 C1005 1.356 . S
N1003 H1008 0.984 . S
N1003 H1009 0.985 . S
C1004 C998 1.379 . S
C1004 C1001 1.363 . S
C1004 N1002 1.356 . S
C1005 C999 1.363 . S
C1005 C1000 1.379 . S
C1005 N1003 1.356 . S
N1006 C998 1.356 . S
N1006 H1012 0.984 . S
N1006 H1013 0.984 . S
N1007 C1000 1.356 . S
N1007 H1010 0.984 . S
N1007 H1011 0.985 . S
H1008 N1003 0.984 . S
H1009 N1003 0.985 . S
H1010 N1007 0.984 . S
H1011 N1007 0.985 . S
H1012 N1006 0.984 . S
H1013 N1006 0.984 . S
H1014 N1002 0.984 . S
H1015 N1002 0.985 . S
C1016 C1017 1.363 . S
C1016 C1022 1.379 . S
C1016 N1024 1.356 . S
C1017 C1016 1.363 . S
C1017 C1023 1.363 . S
C1018 C1019 1.363 . S
C1018 C1023 1.379 . S
C1018 N1025 1.356 . S
C1019 C1018 1.363 . S
C1019 C1022 1.363 . S
N1020 C1022 1.356 . S
N1020 H1032 0.984 . S
N1020 H1033 0.985 . S
N1021 C1023 1.356 . S
N1021 H1026 0.984 . S
N1021 H1027 0.985 . S
C1022 C1016 1.379 . S
C1022 C1019 1.363 . S
C1022 N1020 1.356 . S
C1023 C1017 1.363 . S
C1023 C1018 1.379 . S
C1023 N1021 1.356 . S
N1024 C1016 1.356 . S
N1024 H1030 0.984 . S
N1024 H1031 0.984 . S
N1025 C1018 1.356 . S
N1025 H1028 0.984 . S
N1025 H1029 0.985 . S
H1026 N1021 0.984 . S
H1027 N1021 0.985 . S
H1028 N1025 0.984 . S
H1029 N1025 0.985 . S
H1030 N1024 0.984 . S
H1031 N1024 0.984 . S
H1032 N1020 0.984 . S
H1033 N1020 0.985 . S
C1034 C1035 1.363 . S
C1034 C1040 1.379 . S
C1034 N1042 1.356 . S
C1035 C1034 1.363 . S
C1035 C1041 1.363 . S
C1036 C1037 1.363 . S
C1036 C1041 1.379 . S
C1036 N1043 1.356 . S
C1037 C1036 1.363 . S
C1037 C1040 1.363 . S
N1038 C1040 1.356 . S
N1038 H1050 0.984 . S
N1038 H1051 0.985 . S
N1039 C1041 1.356 . S
N1039 H1044 0.984 . S
N1039 H1045 0.985 . S
C1040 C1034 1.379 . S
C1040 C1037 1.363 . S
C1040 N1038 1.356 . S
C1041 C1035 1.363 . S
C1041 C1036 1.379 . S
C1041 N1039 1.356 . S
N1042 C1034 1.356 . S
N1042 H1048 0.984 . S
N1042 H1049 0.984 . S
N1043 C1036 1.356 . S
N1043 H1046 0.984 . S
N1043 H1047 0.985 . S
H1044 N1039 0.984 . S
H1045 N1039 0.985 . S
H1046 N1043 0.984 . S
H1047 N1043 0.985 . S
H1048 N1042 0.984 . S
H1049 N1042 0.984 . S
H1050 N1038 0.984 . S
H1051 N1038 0.985 . S
C1052 C1053 1.363 . S
C1052 C1058 1.379 . S
C1052 N1060 1.356 . S
C1053 C1052 1.363 . S
C1053 C1059 1.363 . S
C1054 C1055 1.363 . S
C1054 C1059 1.379 . S
C1054 N1061 1.356 . S
C1055 C1054 1.363 . S
C1055 C1058 1.363 . S
N1056 C1058 1.356 . S
N1056 H1068 0.984 . S
N1056 H1069 0.985 . S
N1057 C1059 1.356 . S
N1057 H1062 0.984 . S
N1057 H1063 0.985 . S
C1058 C1052 1.379 . S
C1058 C1055 1.363 . S
C1058 N1056 1.356 . S
C1059 C1053 1.363 . S
C1059 C1054 1.379 . S
C1059 N1057 1.356 . S
N1060 C1052 1.356 . S
N1060 H1066 0.984 . S
N1060 H1067 0.984 . S
N1061 C1054 1.356 . S
N1061 H1064 0.984 . S
N1061 H1065 0.985 . S
H1062 N1057 0.984 . S
H1063 N1057 0.985 . S
H1064 N1061 0.984 . S
H1065 N1061 0.985 . S
H1066 N1060 0.984 . S
H1067 N1060 0.984 . S
H1068 N1056 0.984 . S
H1069 N1056 0.985 . S
C1070 C1071 1.363 . S
C1070 C1076 1.379 . S
C1070 N1078 1.356 . S
C1071 C1070 1.363 . S
C1071 C1077 1.363 . S
C1072 C1073 1.363 . S
C1072 C1077 1.379 . S
C1072 N1079 1.356 . S
C1073 C1072 1.363 . S
C1073 C1076 1.363 . S
N1074 C1076 1.356 . S
N1074 H1086 0.984 . S
N1074 H1087 0.985 . S
N1075 C1077 1.356 . S
N1075 H1080 0.984 . S
N1075 H1081 0.985 . S
C1076 C1070 1.379 . S
C1076 C1073 1.363 . S
C1076 N1074 1.356 . S
C1077 C1071 1.363 . S
C1077 C1072 1.379 . S
C1077 N1075 1.356 . S
N1078 C1070 1.356 . S
N1078 H1084 0.984 . S
N1078 H1085 0.984 . S
N1079 C1072 1.356 . S
N1079 H1082 0.984 . S
N1079 H1083 0.985 . S
H1080 N1075 0.984 . S
H1081 N1075 0.985 . S
H1082 N1079 0.984 . S
H1083 N1079 0.985 . S
H1084 N1078 0.984 . S
H1085 N1078 0.984 . S
H1086 N1074 0.984 . S
H1087 N1074 0.985 . S
C1088 C1089 1.363 . S
C1088 C1094 1.379 . S
C1088 N1096 1.356 . S
C1089 C1088 1.363 . S
C1089 C1095 1.363 . S
C1090 C1091 1.363 . S
C1090 C1095 1.379 . S
C1090 N1097 1.356 1_554 S
C1091 C1090 1.363 . S
C1091 C1094 1.363 . S
N1092 C1094 1.356 . S
N1092 H1104 0.984 . S
N1092 H1105 0.985 . S
N1093 C1095 1.356 . S
N1093 H1098 0.984 . S
N1093 H1099 0.985 . S
C1094 C1088 1.379 . S
C1094 C1091 1.363 . S
C1094 N1092 1.356 . S
C1095 C1089 1.363 . S
C1095 C1090 1.379 . S
C1095 N1093 1.356 . S
N1096 C1088 1.356 . S
N1096 H1102 0.984 . S
N1096 H1103 0.984 . S
N1097 C1090 1.356 1_556 S
N1097 H1100 0.984 . S
N1097 H1101 0.985 . S
H1098 N1093 0.984 . S
H1099 N1093 0.985 . S
H1100 N1097 0.984 . S
H1101 N1097 0.985 . S
H1102 N1096 0.984 . S
H1103 N1096 0.984 . S
H1104 N1092 0.984 . S
H1105 N1092 0.985 . S
C1106 C1107 1.363 . S
C1106 C1112 1.379 . S
C1106 N1114 1.356 . S
C1107 C1106 1.363 . S
C1107 C1113 1.363 . S
C1108 C1109 1.363 . S
C1108 C1113 1.379 . S
C1108 N1115 1.356 . S
C1109 C1108 1.363 . S
C1109 C1112 1.363 . S
N1110 C1112 1.356 . S
N1110 H1122 0.984 . S
N1110 H1123 0.985 . S
N1111 C1113 1.356 . S
N1111 H1116 0.984 . S
N1111 H1117 0.985 . S
C1112 C1106 1.379 . S
C1112 C1109 1.363 . S
C1112 N1110 1.356 . S
C1113 C1107 1.363 . S
C1113 C1108 1.379 . S
C1113 N1111 1.356 . S
N1114 C1106 1.356 . S
N1114 H1120 0.984 . S
N1114 H1121 0.984 . S
N1115 C1108 1.356 . S
N1115 H1118 0.984 . S
N1115 H1119 0.985 . S
H1116 N1111 0.984 . S
H1117 N1111 0.985 . S
H1118 N1115 0.984 . S
H1119 N1115 0.985 . S
H1120 N1114 0.984 . S
H1121 N1114 0.984 . S
H1122 N1110 0.984 . S
H1123 N1110 0.985 . S
C1124 C1125 1.363 . S
C1124 C1130 1.379 . S
C1124 N1132 1.356 . S
C1125 C1124 1.363 . S
C1125 C1131 1.363 . S
C1126 C1127 1.363 . S
C1126 C1131 1.379 . S
C1126 N1133 1.356 . S
C1127 C1126 1.363 . S
C1127 C1130 1.363 . S
N1128 C1130 1.356 . S
N1128 H1140 0.984 . S
N1128 H1141 0.985 . S
N1129 C1131 1.356 . S
N1129 H1134 0.984 . S
N1129 H1135 0.985 . S
C1130 C1124 1.379 . S
C1130 C1127 1.363 . S
C1130 N1128 1.356 . S
C1131 C1125 1.363 . S
C1131 C1126 1.379 . S
C1131 N1129 1.356 . S
N1132 C1124 1.356 . S
N1132 H1138 0.984 . S
N1132 H1139 0.984 . S
N1133 C1126 1.356 . S
N1133 H1136 0.984 . S
N1133 H1137 0.985 . S
H1134 N1129 0.984 . S
H1135 N1129 0.985 . S
H1136 N1133 0.984 . S
H1137 N1133 0.985 . S
H1138 N1132 0.984 . S
H1139 N1132 0.984 . S
H1140 N1128 0.984 . S
H1141 N1128 0.985 . S
C1142 C1143 1.363 . S
C1142 C1148 1.379 . S
C1142 N1150 1.356 . S
C1143 C1142 1.363 . S
C1143 C1149 1.363 . S
C1144 C1145 1.363 . S
C1144 C1149 1.379 . S
C1144 N1151 1.356 . S
C1145 C1144 1.363 . S
C1145 C1148 1.363 . S
N1146 C1148 1.356 . S
N1146 H1158 0.984 . S
N1146 H1159 0.985 . S
N1147 C1149 1.356 . S
N1147 H1152 0.984 . S
N1147 H1153 0.985 . S
C1148 C1142 1.379 . S
C1148 C1145 1.363 . S
C1148 N1146 1.356 . S
C1149 C1143 1.363 . S
C1149 C1144 1.379 . S
C1149 N1147 1.356 . S
N1150 C1142 1.356 . S
N1150 H1156 0.984 . S
N1150 H1157 0.984 . S
N1151 C1144 1.356 . S
N1151 H1154 0.984 . S
N1151 H1155 0.985 . S
H1152 N1147 0.984 . S
H1153 N1147 0.985 . S
H1154 N1151 0.984 . S
H1155 N1151 0.985 . S
H1156 N1150 0.984 . S
H1157 N1150 0.984 . S
H1158 N1146 0.984 . S
H1159 N1146 0.985 . S
C1160 C1161 1.363 1_655 S
C1160 C1166 1.379 . S
C1160 N1168 1.356 . S
C1161 C1160 1.363 1_455 S
C1161 C1167 1.363 . S
C1162 C1163 1.363 . S
C1162 C1167 1.379 . S
C1162 N1169 1.356 . S
C1163 C1162 1.363 . S
C1163 C1166 1.363 1_455 S
N1164 C1166 1.356 . S
N1164 H1176 0.984 . S
N1164 H1177 0.985 . S
N1165 C1167 1.356 . S
N1165 H1170 0.984 . S
N1165 H1171 0.985 . S
C1166 C1160 1.379 . S
C1166 C1163 1.363 1_655 S
C1166 N1164 1.356 . S
C1167 C1161 1.363 . S
C1167 C1162 1.379 . S
C1167 N1165 1.356 . S
N1168 C1160 1.356 . S
N1168 H1174 0.984 . S
N1168 H1175 0.984 . S
N1169 C1162 1.356 . S
N1169 H1172 0.984 . S
N1169 H1173 0.985 . S
H1170 N1165 0.984 . S
H1171 N1165 0.985 . S
H1172 N1169 0.984 . S
H1173 N1169 0.985 . S
H1174 N1168 0.984 . S
H1175 N1168 0.984 . S
H1176 N1164 0.984 . S
H1177 N1164 0.985 . S
C1178 C1179 1.363 . S
C1178 C1184 1.379 . S
C1178 N1186 1.356 . S
C1179 C1178 1.363 . S
C1179 C1185 1.363 . S
C1180 C1181 1.363 . S
C1180 C1185 1.379 . S
C1180 N1187 1.356 . S
C1181 C1180 1.363 . S
C1181 C1184 1.363 . S
N1182 C1184 1.356 . S
N1182 H1194 0.984 . S
N1182 H1195 0.985 . S
N1183 C1185 1.356 . S
N1183 H1188 0.984 . S
N1183 H1189 0.985 . S
C1184 C1178 1.379 . S
C1184 C1181 1.363 . S
C1184 N1182 1.356 . S
C1185 C1179 1.363 . S
C1185 C1180 1.379 . S
C1185 N1183 1.356 . S
N1186 C1178 1.356 . S
N1186 H1192 0.984 . S
N1186 H1193 0.984 . S
N1187 C1180 1.356 . S
N1187 H1190 0.984 . S
N1187 H1191 0.985 . S
H1188 N1183 0.984 . S
H1189 N1183 0.985 . S
H1190 N1187 0.984 . S
H1191 N1187 0.985 . S
H1192 N1186 0.984 . S
H1193 N1186 0.984 . S
H1194 N1182 0.984 . S
H1195 N1182 0.985 . S
C1196 C1197 1.363 . S
C1196 C1202 1.379 . S
C1196 N1204 1.356 . S
C1197 C1196 1.363 . S
C1197 C1203 1.363 . S
C1198 C1199 1.363 . S
C1198 C1203 1.379 . S
C1198 N1205 1.356 . S
C1199 C1198 1.363 . S
C1199 C1202 1.363 . S
N1200 C1202 1.356 1_554 S
N1200 H1212 0.984 . S
N1200 H1213 0.985 . S
N1201 C1203 1.356 . S
N1201 H1206 0.984 . S
N1201 H1207 0.985 . S
C1202 C1196 1.379 . S
C1202 C1199 1.363 . S
C1202 N1200 1.356 1_556 S
C1203 C1197 1.363 . S
C1203 C1198 1.379 . S
C1203 N1201 1.356 . S
N1204 C1196 1.356 . S
N1204 H1210 0.984 . S
N1204 H1211 0.984 . S
N1205 C1198 1.356 . S
N1205 H1208 0.984 . S
N1205 H1209 0.985 . S
H1206 N1201 0.984 . S
H1207 N1201 0.985 . S
H1208 N1205 0.984 . S
H1209 N1205 0.985 . S
H1210 N1204 0.984 . S
H1211 N1204 0.984 . S
H1212 N1200 0.984 . S
H1213 N1200 0.985 . S
C1214 C1215 1.363 . S
C1214 C1220 1.379 . S
C1214 N1222 1.356 . S
C1215 C1214 1.363 . S
C1215 C1221 1.363 . S
C1216 C1217 1.363 . S
C1216 C1221 1.379 . S
C1216 N1223 1.356 . S
C1217 C1216 1.363 . S
C1217 C1220 1.363 . S
N1218 C1220 1.356 . S
N1218 H1230 0.984 . S
N1218 H1231 0.985 . S
N1219 C1221 1.356 . S
N1219 H1224 0.984 . S
N1219 H1225 0.985 . S
C1220 C1214 1.379 . S
C1220 C1217 1.363 . S
C1220 N1218 1.356 . S
C1221 C1215 1.363 . S
C1221 C1216 1.379 . S
C1221 N1219 1.356 . S
N1222 C1214 1.356 . S
N1222 H1228 0.984 . S
N1222 H1229 0.984 . S
N1223 C1216 1.356 . S
N1223 H1226 0.984 . S
N1223 H1227 0.985 . S
H1224 N1219 0.984 . S
H1225 N1219 0.985 . S
H1226 N1223 0.984 . S
H1227 N1223 0.985 . S
H1228 N1222 0.984 . S
H1229 N1222 0.984 . S
H1230 N1218 0.984 . S
H1231 N1218 0.985 . S
C1232 C1233 1.363 . S
C1232 C1238 1.379 . S
C1232 N1240 1.356 . S
C1233 C1232 1.363 . S
C1233 C1239 1.363 1_545 S
C1234 C1235 1.363 1_565 S
C1234 C1239 1.379 . S
C1234 N1241 1.356 . S
C1235 C1234 1.363 1_545 S
C1235 C1238 1.363 . S
N1236 C1238 1.356 . S
N1236 H1248 0.984 . S
N1236 H1249 0.985 . S
N1237 C1239 1.356 . S
N1237 H1242 0.984 . S
N1237 H1243 0.985 . S
C1238 C1232 1.379 . S
C1238 C1235 1.363 . S
C1238 N1236 1.356 . S
C1239 C1233 1.363 1_565 S
C1239 C1234 1.379 . S
C1239 N1237 1.356 . S
N1240 C1232 1.356 . S
N1240 H1246 0.984 . S
N1240 H1247 0.984 . S
N1241 C1234 1.356 . S
N1241 H1244 0.984 . S
N1241 H1245 0.985 . S
H1242 N1237 0.984 . S
H1243 N1237 0.985 . S
H1244 N1241 0.984 . S
H1245 N1241 0.985 . S
H1246 N1240 0.984 . S
H1247 N1240 0.984 . S
H1248 N1236 0.984 . S
H1249 N1236 0.985 . S
C1250 C1251 1.363 . S
C1250 C1256 1.379 . S
C1250 N1258 1.356 . S
C1251 C1250 1.363 . S
C1251 C1257 1.363 . S
C1252 C1253 1.363 . S
C1252 C1257 1.379 . S
C1252 N1259 1.356 . S
C1253 C1252 1.363 . S
C1253 C1256 1.363 . S
N1254 C1256 1.356 . S
N1254 H1266 0.984 . S
N1254 H1267 0.985 . S
N1255 C1257 1.356 . S
N1255 H1260 0.984 . S
N1255 H1261 0.985 . S
C1256 C1250 1.379 . S
C1256 C1253 1.363 . S
C1256 N1254 1.356 . S
C1257 C1251 1.363 . S
C1257 C1252 1.379 . S
C1257 N1255 1.356 . S
N1258 C1250 1.356 . S
N1258 H1264 0.984 . S
N1258 H1265 0.984 . S
N1259 C1252 1.356 . S
N1259 H1262 0.984 . S
N1259 H1263 0.985 . S
H1260 N1255 0.984 . S
H1261 N1255 0.985 . S
H1262 N1259 0.984 . S
H1263 N1259 0.985 . S
H1264 N1258 0.984 . S
H1265 N1258 0.984 . S
H1266 N1254 0.984 . S
H1267 N1254 0.985 . S
C1268 C1269 1.347 1_565 S
C1268 C1274 1.382 1_565 S
C1268 N1276 1.366 . S
C1269 C1268 1.347 1_545 S
C1269 C1275 1.363 . S
C1270 C1271 1.363 . S
C1270 C1275 1.379 . S
C1270 N1277 1.356 . S
C1271 C1270 1.363 . S
C1271 C1274 1.363 . S
N1272 C1274 1.356 1_565 S
N1272 H1284 0.984 . S
N1272 H1285 0.985 . S
N1273 C1275 1.356 . S
N1273 H1278 0.984 . S
N1273 H1279 0.985 . S
C1274 C1268 1.382 1_545 S
C1274 C1271 1.363 . S
C1274 N1272 1.356 1_545 S
C1275 C1269 1.363 . S
C1275 C1270 1.379 . S
C1275 N1273 1.356 . S
N1276 C1268 1.366 . S
N1276 H1282 0.984 . S
N1276 H1283 0.984 . S
N1277 C1270 1.356 . S
N1277 H1280 0.984 . S
N1277 H1281 0.985 . S
H1278 N1273 0.984 . S
H1279 N1273 0.985 . S
H1280 N1277 0.984 . S
H1281 N1277 0.985 . S
H1282 N1276 0.984 . S
H1283 N1276 0.984 . S
H1284 N1272 0.984 . S
H1285 N1272 0.985 . S
C1286 C1287 1.363 . S
C1286 C1292 1.379 . S
C1286 N1294 1.356 . S
C1287 C1286 1.363 . S
C1287 C1293 1.363 . S
C1288 C1289 1.363 . S
C1288 C1293 1.379 . S
C1288 N1295 1.356 . S
C1289 C1288 1.363 . S
C1289 C1292 1.363 . S
N1290 C1292 1.356 . S
N1290 H1302 0.984 . S
N1290 H1303 0.985 . S
N1291 C1293 1.356 . S
N1291 H1296 0.984 . S
N1291 H1297 0.985 . S
C1292 C1286 1.379 . S
C1292 C1289 1.363 . S
C1292 N1290 1.356 . S
C1293 C1287 1.363 . S
C1293 C1288 1.379 . S
C1293 N1291 1.356 . S
N1294 C1286 1.356 . S
N1294 H1300 0.984 . S
N1294 H1301 0.984 . S
N1295 C1288 1.356 . S
N1295 H1298 0.984 . S
N1295 H1299 0.985 . S
H1296 N1291 0.984 . S
H1297 N1291 0.985 . S
H1298 N1295 0.984 . S
H1299 N1295 0.985 . S
H1300 N1294 0.984 . S
H1301 N1294 0.984 . S
H1302 N1290 0.984 . S
H1303 N1290 0.985 . S
C1304 C1305 1.363 . S
C1304 C1310 1.379 . S
C1304 N1312 1.356 . S
C1305 C1304 1.363 . S
C1305 C1311 1.363 1_565 S
C1306 C1307 1.363 . S
C1306 C1311 1.379 . S
C1306 N1313 1.356 . S
C1307 C1306 1.363 . S
C1307 C1310 1.363 1_545 S
N1308 C1310 1.356 . S
N1308 H1320 0.984 . S
N1308 H1321 0.985 . S
N1309 C1311 1.356 . S
N1309 H1314 0.984 . S
N1309 H1315 0.985 . S
C1310 C1304 1.379 . S
C1310 C1307 1.363 1_565 S
C1310 N1308 1.356 . S
C1311 C1305 1.363 1_545 S
C1311 C1306 1.379 . S
C1311 N1309 1.356 . S
N1312 C1304 1.356 . S
N1312 H1318 0.984 . S
N1312 H1319 0.984 . S
N1313 C1306 1.356 . S
N1313 H1316 0.984 . S
N1313 H1317 0.985 . S
H1314 N1309 0.984 . S
H1315 N1309 0.985 . S
H1316 N1313 0.984 . S
H1317 N1313 0.985 . S
H1318 N1312 0.984 . S
H1319 N1312 0.984 . S
H1320 N1308 0.984 . S
H1321 N1308 0.985 . S
C1322 C1323 1.363 . S
C1322 C1328 1.379 . S
C1322 N1330 1.356 . S
C1323 C1322 1.363 . S
C1323 C1329 1.363 . S
C1324 C1325 1.363 . S
C1324 C1329 1.379 . S
C1324 N1331 1.356 . S
C1325 C1324 1.363 . S
C1325 C1328 1.363 . S
N1326 C1328 1.356 . S
N1326 H1338 0.984 . S
N1326 H1339 0.985 . S
N1327 C1329 1.356 . S
N1327 H1332 0.984 . S
N1327 H1333 0.985 . S
C1328 C1322 1.379 . S
C1328 C1325 1.363 . S
C1328 N1326 1.356 . S
C1329 C1323 1.363 . S
C1329 C1324 1.379 . S
C1329 N1327 1.356 . S
N1330 C1322 1.356 . S
N1330 H1336 0.984 . S
N1330 H1337 0.984 . S
N1331 C1324 1.356 . S
N1331 H1334 0.984 . S
N1331 H1335 0.985 . S
H1332 N1327 0.984 . S
H1333 N1327 0.985 . S
H1334 N1331 0.984 . S
H1335 N1331 0.985 . S
H1336 N1330 0.984 . S
H1337 N1330 0.984 . S
H1338 N1326 0.984 . S
H1339 N1326 0.985 . S
C1340 C1341 1.367 . S
C1340 C1346 1.377 1_545 S
C1340 N1348 1.358 . S
C1341 C1340 1.367 . S
C1341 C1347 1.363 . S
C1342 C1343 1.363 1_545 S
C1342 C1347 1.379 . S
C1342 N1349 1.356 . S
C1343 C1342 1.363 1_565 S
C1343 C1346 1.363 . S
N1344 C1346 1.356 . S
N1344 H1356 0.984 . S
N1344 H1357 0.985 . S
N1345 C1347 1.356 . S
N1345 H1350 0.984 . S
N1345 H1351 0.985 . S
C1346 C1340 1.377 1_565 S
C1346 C1343 1.363 . S
C1346 N1344 1.356 . S
C1347 C1341 1.363 . S
C1347 C1342 1.379 . S
C1347 N1345 1.356 . S
N1348 C1340 1.358 . S
N1348 H1354 0.973 1_545 S
N1348 H1355 0.994 . S
N1349 C1342 1.356 . S
N1349 H1352 0.984 1_545 S
N1349 H1353 0.985 . S
H1350 N1345 0.984 . S
H1351 N1345 0.985 . S
H1352 N1349 0.984 1_565 S
H1353 N1349 0.985 . S
H1354 N1348 0.973 1_565 S
H1355 N1348 0.994 . S
H1356 N1344 0.984 . S
H1357 N1344 0.985 . S
C1358 C1359 1.363 . S
C1358 C1364 1.379 . S
C1358 N1366 1.356 . S
C1359 C1358 1.363 . S
C1359 C1365 1.363 . S
C1360 C1361 1.363 . S
C1360 C1365 1.379 . S
C1360 N1367 1.356 . S
C1361 C1360 1.363 . S
C1361 C1364 1.363 . S
N1362 C1364 1.356 . S
N1362 H1374 0.984 . S
N1362 H1375 0.985 . S
N1363 C1365 1.356 . S
N1363 H1368 0.984 . S
N1363 H1369 0.985 . S
C1364 C1358 1.379 . S
C1364 C1361 1.363 . S
C1364 N1362 1.356 . S
C1365 C1359 1.363 . S
C1365 C1360 1.379 . S
C1365 N1363 1.356 . S
N1366 C1358 1.356 . S
N1366 H1372 0.984 . S
N1366 H1373 0.984 . S
N1367 C1360 1.356 . S
N1367 H1370 0.984 . S
N1367 H1371 0.985 . S
H1368 N1363 0.984 . S
H1369 N1363 0.985 . S
H1370 N1367 0.984 . S
H1371 N1367 0.985 . S
H1372 N1366 0.984 . S
H1373 N1366 0.984 . S
H1374 N1362 0.984 . S
H1375 N1362 0.985 . S
C1376 C1377 1.363 . S
C1376 C1382 1.379 . S
C1376 N1384 1.356 . S
C1377 C1376 1.363 . S
C1377 C1383 1.363 1_556 S
C1378 C1379 1.363 1_554 S
C1378 C1383 1.379 . S
C1378 N1385 1.356 . S
C1379 C1378 1.363 1_556 S
C1379 C1382 1.363 . S
N1380 C1382 1.356 . S
N1380 H1392 0.984 . S
N1380 H1393 0.985 . S
N1381 C1383 1.356 . S
N1381 H1386 0.984 . S
N1381 H1387 0.985 . S
C1382 C1376 1.379 . S
C1382 C1379 1.363 . S
C1382 N1380 1.356 . S
C1383 C1377 1.363 1_554 S
C1383 C1378 1.379 . S
C1383 N1381 1.356 . S
N1384 C1376 1.356 . S
N1384 H1390 0.984 . S
N1384 H1391 0.984 . S
N1385 C1378 1.356 . S
N1385 H1388 0.984 . S
N1385 H1389 0.985 . S
H1386 N1381 0.984 . S
H1387 N1381 0.985 . S
H1388 N1385 0.984 . S
H1389 N1385 0.985 . S
H1390 N1384 0.984 . S
H1391 N1384 0.984 . S
H1392 N1380 0.984 . S
H1393 N1380 0.985 . S
C1394 C1395 1.363 . S
C1394 C1400 1.379 . S
C1394 N1402 1.356 . S
C1395 C1394 1.363 . S
C1395 C1401 1.363 1_554 S
C1396 C1397 1.363 1_556 S
C1396 C1401 1.379 . S
C1396 N1403 1.356 . S
C1397 C1396 1.363 1_554 S
C1397 C1400 1.363 . S
N1398 C1400 1.356 . S
N1398 H1410 0.984 . S
N1398 H1411 0.985 . S
N1399 C1401 1.356 . S
N1399 H1404 0.984 . S
N1399 H1405 0.985 . S
C1400 C1394 1.379 . S
C1400 C1397 1.363 . S
C1400 N1398 1.356 . S
C1401 C1395 1.363 1_556 S
C1401 C1396 1.379 . S
C1401 N1399 1.356 . S
N1402 C1394 1.356 . S
N1402 H1408 0.984 . S
N1402 H1409 0.984 . S
N1403 C1396 1.356 . S
N1403 H1406 0.984 . S
N1403 H1407 0.985 . S
H1404 N1399 0.984 . S
H1405 N1399 0.985 . S
H1406 N1403 0.984 . S
H1407 N1403 0.985 . S
H1408 N1402 0.984 . S
H1409 N1402 0.984 . S
H1410 N1398 0.984 . S
H1411 N1398 0.985 . S
C1412 C1413 1.363 . S
C1412 C1418 1.379 . S
C1412 N1420 1.356 . S
C1413 C1412 1.363 . S
C1413 C1419 1.363 . S
C1414 C1415 1.363 . S
C1414 C1419 1.379 . S
C1414 N1421 1.356 . S
C1415 C1414 1.363 . S
C1415 C1418 1.363 . S
N1416 C1418 1.356 . S
N1416 H1428 0.984 . S
N1416 H1429 0.985 . S
N1417 C1419 1.356 . S
N1417 H1422 0.984 . S
N1417 H1423 0.985 . S
C1418 C1412 1.379 . S
C1418 C1415 1.363 . S
C1418 N1416 1.356 . S
C1419 C1413 1.363 . S
C1419 C1414 1.379 . S
C1419 N1417 1.356 . S
N1420 C1412 1.356 . S
N1420 H1426 0.984 . S
N1420 H1427 0.984 . S
N1421 C1414 1.356 . S
N1421 H1424 0.984 . S
N1421 H1425 0.985 . S
H1422 N1417 0.984 . S
H1423 N1417 0.985 . S
H1424 N1421 0.984 . S
H1425 N1421 0.985 . S
H1426 N1420 0.984 . S
H1427 N1420 0.984 . S
H1428 N1416 0.984 . S
H1429 N1416 0.985 . S
C1430 C1431 1.363 . S
C1430 C1436 1.379 . S
C1430 N1438 1.356 . S
C1431 C1430 1.363 . S
C1431 C1437 1.363 . S
C1432 C1433 1.363 . S
C1432 C1437 1.379 . S
C1432 N1439 1.356 . S
C1433 C1432 1.363 . S
C1433 C1436 1.363 . S
N1434 C1436 1.356 . S
N1434 H1446 0.984 . S
N1434 H1447 0.985 . S
N1435 C1437 1.356 . S
N1435 H1440 0.984 . S
N1435 H1441 0.985 . S
C1436 C1430 1.379 . S
C1436 C1433 1.363 . S
C1436 N1434 1.356 . S
C1437 C1431 1.363 . S
C1437 C1432 1.379 . S
C1437 N1435 1.356 . S
N1438 C1430 1.356 . S
N1438 H1444 0.984 . S
N1438 H1445 0.984 . S
N1439 C1432 1.356 . S
N1439 H1442 0.984 . S
N1439 H1443 0.985 . S
H1440 N1435 0.984 . S
H1441 N1435 0.985 . S
H1442 N1439 0.984 . S
H1443 N1439 0.985 . S
H1444 N1438 0.984 . S
H1445 N1438 0.984 . S
H1446 N1434 0.984 . S
H1447 N1434 0.985 . S
C1448 C1449 1.363 . S
C1448 C1454 1.379 . S
C1448 N1456 1.356 . S
C1449 C1448 1.363 . S
C1449 C1455 1.363 . S
C1450 C1451 1.363 . S
C1450 C1455 1.379 . S
C1450 N1457 1.356 . S
C1451 C1450 1.363 . S
C1451 C1454 1.363 . S
N1452 C1454 1.356 . S
N1452 H1464 0.984 . S
N1452 H1465 0.985 . S
N1453 C1455 1.356 . S
N1453 H1458 0.984 . S
N1453 H1459 0.985 . S
C1454 C1448 1.379 . S
C1454 C1451 1.363 . S
C1454 N1452 1.356 . S
C1455 C1449 1.363 . S
C1455 C1450 1.379 . S
C1455 N1453 1.356 . S
N1456 C1448 1.356 . S
N1456 H1462 0.977 1_565 S
N1456 H1463 0.984 . S
N1457 C1450 1.356 . S
N1457 H1460 0.984 . S
N1457 H1461 0.985 . S
H1458 N1453 0.984 . S
H1459 N1453 0.985 . S
H1460 N1457 0.984 . S
H1461 N1457 0.985 . S
H1462 N1456 0.977 1_545 S
H1463 N1456 0.984 . S
H1464 N1452 0.984 . S
H1465 N1452 0.985 . S
C1466 C1467 1.363 . S
C1466 C1472 1.379 . S
C1466 N1474 1.356 . S
C1467 C1466 1.363 . S
C1467 C1473 1.363 . S
C1468 C1469 1.363 . S
C1468 C1473 1.379 . S
C1468 N1475 1.356 . S
C1469 C1468 1.363 . S
C1469 C1472 1.363 . S
N1470 C1472 1.356 . S
N1470 H1482 0.984 . S
N1470 H1483 0.985 . S
N1471 C1473 1.356 . S
N1471 H1476 0.984 . S
N1471 H1477 0.985 . S
C1472 C1466 1.379 . S
C1472 C1469 1.363 . S
C1472 N1470 1.356 . S
C1473 C1467 1.363 . S
C1473 C1468 1.379 . S
C1473 N1471 1.356 . S
N1474 C1466 1.356 . S
N1474 H1480 0.984 . S
N1474 H1481 0.984 . S
N1475 C1468 1.356 . S
N1475 H1478 0.984 . S
N1475 H1479 0.985 . S
H1476 N1471 0.984 . S
H1477 N1471 0.985 . S
H1478 N1475 0.984 . S
H1479 N1475 0.985 . S
H1480 N1474 0.984 . S
H1481 N1474 0.984 . S
H1482 N1470 0.984 . S
H1483 N1470 0.985 . S
C1484 C1485 1.363 . S
C1484 C1490 1.379 . S
C1484 N1492 1.356 . S
C1485 C1484 1.363 . S
C1485 C1491 1.363 . S
C1486 C1487 1.363 . S
C1486 C1491 1.379 . S
C1486 N1493 1.356 . S
C1487 C1486 1.363 . S
C1487 C1490 1.363 . S
N1488 C1490 1.356 . S
N1488 H1500 0.984 . S
N1488 H1501 0.985 . S
N1489 C1491 1.356 . S
N1489 H1494 0.984 . S
N1489 H1495 0.985 . S
C1490 C1484 1.379 . S
C1490 C1487 1.363 . S
C1490 N1488 1.356 . S
C1491 C1485 1.363 . S
C1491 C1486 1.379 . S
C1491 N1489 1.356 . S
N1492 C1484 1.356 . S
N1492 H1498 0.984 . S
N1492 H1499 0.984 . S
N1493 C1486 1.356 . S
N1493 H1496 0.984 . S
N1493 H1497 0.985 . S
H1494 N1489 0.984 . S
H1495 N1489 0.985 . S
H1496 N1493 0.984 . S
H1497 N1493 0.985 . S
H1498 N1492 0.984 . S
H1499 N1492 0.984 . S
H1500 N1488 0.984 . S
H1501 N1488 0.985 . S
C1502 C1503 1.363 . S
C1502 C1508 1.379 . S
C1502 N1510 1.356 . S
C1503 C1502 1.363 . S
C1503 C1509 1.363 . S
C1504 C1505 1.363 . S
C1504 C1509 1.379 . S
C1504 N1511 1.356 . S
C1505 C1504 1.363 . S
C1505 C1508 1.363 . S
N1506 C1508 1.356 . S
N1506 H1518 0.984 . S
N1506 H1519 0.985 . S
N1507 C1509 1.356 . S
N1507 H1512 0.984 . S
N1507 H1513 0.985 . S
C1508 C1502 1.379 . S
C1508 C1505 1.363 . S
C1508 N1506 1.356 . S
C1509 C1503 1.363 . S
C1509 C1504 1.379 . S
C1509 N1507 1.356 . S
N1510 C1502 1.356 . S
N1510 H1516 0.984 . S
N1510 H1517 0.984 . S
N1511 C1504 1.356 . S
N1511 H1514 0.984 . S
N1511 H1515 0.985 . S
H1512 N1507 0.984 . S
H1513 N1507 0.985 . S
H1514 N1511 0.984 . S
H1515 N1511 0.985 . S
H1516 N1510 0.984 . S
H1517 N1510 0.984 . S
H1518 N1506 0.984 . S
H1519 N1506 0.985 . S
C1520 C1521 1.363 . S
C1520 C1526 1.379 . S
C1520 N1528 1.356 . S
C1521 C1520 1.363 . S
C1521 C1527 1.363 . S
C1522 C1523 1.363 . S
C1522 C1527 1.379 . S
C1522 N1529 1.356 . S
C1523 C1522 1.363 . S
C1523 C1526 1.363 . S
N1524 C1526 1.356 . S
N1524 H1536 0.984 . S
N1524 H1537 0.985 . S
N1525 C1527 1.356 . S
N1525 H1530 0.984 . S
N1525 H1531 0.985 . S
C1526 C1520 1.379 . S
C1526 C1523 1.363 . S
C1526 N1524 1.356 . S
C1527 C1521 1.363 . S
C1527 C1522 1.379 . S
C1527 N1525 1.356 . S
N1528 C1520 1.356 . S
N1528 H1534 0.984 . S
N1528 H1535 0.984 . S
N1529 C1522 1.356 . S
N1529 H1532 0.984 . S
N1529 H1533 0.985 . S
H1530 N1525 0.984 . S
H1531 N1525 0.985 . S
H1532 N1529 0.984 . S
H1533 N1529 0.985 . S
H1534 N1528 0.984 . S
H1535 N1528 0.984 . S
H1536 N1524 0.984 . S
H1537 N1524 0.985 . S
C1538 C1539 1.363 . S
C1538 C1544 1.379 . S
C1538 N1546 1.356 . S
C1539 C1538 1.363 . S
C1539 C1545 1.363 . S
C1540 C1541 1.363 . S
C1540 C1545 1.379 . S
C1540 N1547 1.356 . S
C1541 C1540 1.363 . S
C1541 C1544 1.363 . S
N1542 C1544 1.356 . S
N1542 H1554 0.984 . S
N1542 H1555 0.985 . S
N1543 C1545 1.356 . S
N1543 H1548 0.984 . S
N1543 H1549 0.985 . S
C1544 C1538 1.379 . S
C1544 C1541 1.363 . S
C1544 N1542 1.356 . S
C1545 C1539 1.363 . S
C1545 C1540 1.379 . S
C1545 N1543 1.356 . S
N1546 C1538 1.356 . S
N1546 H1552 0.984 . S
N1546 H1553 0.984 . S
N1547 C1540 1.356 . S
N1547 H1550 0.984 . S
N1547 H1551 0.985 . S
H1548 N1543 0.984 . S
H1549 N1543 0.985 . S
H1550 N1547 0.984 . S
H1551 N1547 0.985 . S
H1552 N1546 0.984 . S
H1553 N1546 0.984 . S
H1554 N1542 0.984 . S
H1555 N1542 0.985 . S
C1556 C1557 1.363 1_655 S
C1556 C1562 1.379 . S
C1556 N1564 1.356 . S
C1557 C1556 1.363 1_455 S
C1557 C1563 1.363 . S
C1558 C1559 1.363 . S
C1558 C1563 1.379 . S
C1558 N1565 1.356 . S
C1559 C1558 1.363 . S
C1559 C1562 1.363 1_455 S
N1560 C1562 1.356 1_554 S
N1560 H1572 0.984 . S
N1560 H1573 0.985 . S
N1561 C1563 1.356 . S
N1561 H1566 0.984 . S
N1561 H1567 0.985 . S
C1562 C1556 1.379 . S
C1562 C1559 1.363 1_655 S
C1562 N1560 1.356 1_556 S
C1563 C1557 1.363 . S
C1563 C1558 1.379 . S
C1563 N1561 1.356 . S
N1564 C1556 1.356 . S
N1564 H1570 0.984 . S
N1564 H1571 0.984 . S
N1565 C1558 1.356 . S
N1565 H1568 0.984 . S
N1565 H1569 0.985 . S
H1566 N1561 0.984 . S
H1567 N1561 0.985 . S
H1568 N1565 0.984 . S
H1569 N1565 0.985 . S
H1570 N1564 0.984 . S
H1571 N1564 0.984 . S
H1572 N1560 0.984 . S
H1573 N1560 0.985 . S
C1574 C1575 1.363 . S
C1574 C1580 1.379 . S
C1574 N1582 1.356 . S
C1575 C1574 1.363 . S
C1575 C1581 1.363 . S
C1576 C1577 1.363 . S
C1576 C1581 1.379 . S
C1576 N1583 1.356 . S
C1577 C1576 1.363 . S
C1577 C1580 1.363 . S
N1578 C1580 1.356 . S
N1578 H1590 0.984 . S
N1578 H1591 0.985 . S
N1579 C1581 1.356 . S
N1579 H1584 0.984 . S
N1579 H1585 0.985 . S
C1580 C1574 1.379 . S
C1580 C1577 1.363 . S
C1580 N1578 1.356 . S
C1581 C1575 1.363 . S
C1581 C1576 1.379 . S
C1581 N1579 1.356 . S
N1582 C1574 1.356 . S
N1582 H1588 0.984 . S
N1582 H1589 0.984 . S
N1583 C1576 1.356 . S
N1583 H1586 0.984 . S
N1583 H1587 0.985 . S
H1584 N1579 0.984 . S
H1585 N1579 0.985 . S
H1586 N1583 0.984 . S
H1587 N1583 0.985 . S
H1588 N1582 0.984 . S
H1589 N1582 0.984 . S
H1590 N1578 0.984 . S
H1591 N1578 0.985 . S
C1592 C1593 1.363 . S
C1592 C1598 1.379 . S
C1592 N1600 1.356 . S
C1593 C1592 1.363 . S
C1593 C1599 1.363 . S
C1594 C1595 1.363 . S
C1594 C1599 1.379 . S
C1594 N1601 1.354 . S
C1595 C1594 1.363 . S
C1595 C1598 1.363 . S
N1596 C1598 1.356 . S
N1596 H1608 0.984 . S
N1596 H1609 0.985 . S
N1597 C1599 1.356 . S
N1597 H1602 0.984 . S
N1597 H1603 0.985 . S
C1598 C1592 1.379 . S
C1598 C1595 1.363 . S
C1598 N1596 1.356 . S
C1599 C1593 1.363 . S
C1599 C1594 1.379 . S
C1599 N1597 1.356 . S
N1600 C1592 1.356 . S
N1600 H1606 0.984 . S
N1600 H1607 0.984 . S
N1601 C1594 1.354 . S
N1601 H1604 0.985 1_554 S
N1601 H1605 0.986 1_554 S
H1602 N1597 0.984 . S
H1603 N1597 0.985 . S
H1604 N1601 0.985 1_556 S
H1605 N1601 0.986 1_556 S
H1606 N1600 0.984 . S
H1607 N1600 0.984 . S
H1608 N1596 0.984 . S
H1609 N1596 0.985 . S
C1610 C1611 1.363 . S
C1610 C1616 1.379 . S
C1610 N1618 1.356 . S
C1611 C1610 1.363 . S
C1611 C1617 1.363 . S
C1612 C1613 1.363 . S
C1612 C1617 1.379 . S
C1612 N1619 1.356 . S
C1613 C1612 1.363 . S
C1613 C1616 1.363 . S
N1614 C1616 1.356 . S
N1614 H1626 0.984 . S
N1614 H1627 0.985 . S
N1615 C1617 1.356 . S
N1615 H1620 0.984 . S
N1615 H1621 0.985 . S
C1616 C1610 1.379 . S
C1616 C1613 1.363 . S
C1616 N1614 1.356 . S
C1617 C1611 1.363 . S
C1617 C1612 1.379 . S
C1617 N1615 1.356 . S
N1618 C1610 1.356 . S
N1618 H1624 0.984 . S
N1618 H1625 0.984 . S
N1619 C1612 1.356 . S
N1619 H1622 0.984 . S
N1619 H1623 0.985 . S
H1620 N1615 0.984 . S
H1621 N1615 0.985 . S
H1622 N1619 0.984 . S
H1623 N1619 0.985 . S
H1624 N1618 0.984 . S
H1625 N1618 0.984 . S
H1626 N1614 0.984 . S
H1627 N1614 0.985 . S
C1628 C1629 1.347 1_455 S
C1628 C1634 1.379 . S
C1628 N1636 1.356 . S
C1629 C1628 1.347 1_655 S
C1629 C1635 1.369 . S
C1630 C1631 1.363 1_655 S
C1630 C1635 1.379 . S
C1630 N1637 1.356 . S
C1631 C1630 1.363 1_455 S
C1631 C1634 1.363 . S
N1632 C1634 1.356 . S
N1632 H1644 0.984 . S
N1632 H1645 0.985 . S
N1633 C1635 1.356 . S
N1633 H1638 0.984 . S
N1633 H1639 0.985 . S
C1634 C1628 1.379 . S
C1634 C1631 1.363 . S
C1634 N1632 1.356 . S
C1635 C1629 1.369 . S
C1635 C1630 1.379 . S
C1635 N1633 1.356 . S
N1636 C1628 1.356 . S
N1636 H1642 0.984 . S
N1636 H1643 0.984 . S
N1637 C1630 1.356 . S
N1637 H1640 0.984 . S
N1637 H1641 0.985 . S
H1638 N1633 0.984 . S
H1639 N1633 0.985 . S
H1640 N1637 0.984 . S
H1641 N1637 0.985 . S
H1642 N1636 0.984 . S
H1643 N1636 0.984 . S
H1644 N1632 0.984 . S
H1645 N1632 0.985 . S
C1646 C1647 1.363 . S
C1646 C1652 1.379 . S
C1646 N1654 1.356 . S
C1647 C1646 1.363 . S
C1647 C1653 1.363 . S
C1648 C1649 1.363 . S
C1648 C1653 1.379 . S
C1648 N1655 1.356 . S
C1649 C1648 1.363 . S
C1649 C1652 1.363 . S
N1650 C1652 1.356 . S
N1650 H1662 0.984 . S
N1650 H1663 0.985 . S
N1651 C1653 1.356 . S
N1651 H1656 0.984 . S
N1651 H1657 0.985 . S
C1652 C1646 1.379 . S
C1652 C1649 1.363 . S
C1652 N1650 1.356 . S
C1653 C1647 1.363 . S
C1653 C1648 1.379 . S
C1653 N1651 1.356 . S
N1654 C1646 1.356 . S
N1654 H1660 0.984 . S
N1654 H1661 0.984 . S
N1655 C1648 1.356 . S
N1655 H1658 0.984 . S
N1655 H1659 0.985 . S
H1656 N1651 0.984 . S
H1657 N1651 0.985 . S
H1658 N1655 0.984 . S
H1659 N1655 0.985 . S
H1660 N1654 0.984 . S
H1661 N1654 0.984 . S
H1662 N1650 0.984 . S
H1663 N1650 0.985 . S
C1664 C1665 1.363 . S
C1664 C1670 1.379 . S
C1664 N1672 1.356 . S
C1665 C1664 1.363 . S
C1665 C1671 1.363 . S
C1666 C1667 1.363 . S
C1666 C1671 1.379 . S
C1666 N1673 1.356 . S
C1667 C1666 1.363 . S
C1667 C1670 1.363 . S
N1668 C1670 1.356 . S
N1668 H1680 0.984 . S
N1668 H1681 0.985 . S
N1669 C1671 1.356 . S
N1669 H1674 0.984 . S
N1669 H1675 0.985 . S
C1670 C1664 1.379 . S
C1670 C1667 1.363 . S
C1670 N1668 1.356 . S
C1671 C1665 1.363 . S
C1671 C1666 1.379 . S
C1671 N1669 1.356 . S
N1672 C1664 1.356 . S
N1672 H1678 0.984 . S
N1672 H1679 0.984 . S
N1673 C1666 1.356 . S
N1673 H1676 0.984 . S
N1673 H1677 0.985 . S
H1674 N1669 0.984 . S
H1675 N1669 0.985 . S
H1676 N1673 0.984 . S
H1677 N1673 0.985 . S
H1678 N1672 0.984 . S
H1679 N1672 0.984 . S
H1680 N1668 0.984 . S
H1681 N1668 0.985 . S
C1682 C1683 1.363 . S
C1682 C1688 1.379 . S
C1682 N1690 1.356 . S
C1683 C1682 1.363 . S
C1683 C1689 1.363 . S
C1684 C1685 1.363 . S
C1684 C1689 1.379 . S
C1684 N1691 1.356 . S
C1685 C1684 1.363 . S
C1685 C1688 1.363 . S
N1686 C1688 1.356 . S
N1686 H1698 0.984 . S
N1686 H1699 0.985 . S
N1687 C1689 1.356 . S
N1687 H1692 0.984 . S
N1687 H1693 0.985 . S
C1688 C1682 1.379 . S
C1688 C1685 1.363 . S
C1688 N1686 1.356 . S
C1689 C1683 1.363 . S
C1689 C1684 1.379 . S
C1689 N1687 1.356 . S
N1690 C1682 1.356 . S
N1690 H1696 0.984 . S
N1690 H1697 0.984 . S
N1691 C1684 1.356 . S
N1691 H1694 0.984 . S
N1691 H1695 0.985 . S
H1692 N1687 0.984 . S
H1693 N1687 0.985 . S
H1694 N1691 0.984 . S
H1695 N1691 0.985 . S
H1696 N1690 0.984 . S
H1697 N1690 0.984 . S
H1698 N1686 0.984 . S
H1699 N1686 0.985 . S
C1700 C1701 1.363 . S
C1700 C1706 1.379 . S
C1700 N1708 1.356 . S
C1701 C1700 1.363 . S
C1701 C1707 1.363 . S
C1702 C1703 1.363 . S
C1702 C1707 1.379 . S
C1702 N1709 1.356 . S
C1703 C1702 1.363 . S
C1703 C1706 1.363 . S
N1704 C1706 1.356 . S
N1704 H1716 0.984 . S
N1704 H1717 0.985 . S
N1705 C1707 1.356 . S
N1705 H1710 0.984 . S
N1705 H1711 0.985 . S
C1706 C1700 1.379 . S
C1706 C1703 1.363 . S
C1706 N1704 1.356 . S
C1707 C1701 1.363 . S
C1707 C1702 1.379 . S
C1707 N1705 1.356 . S
N1708 C1700 1.356 . S
N1708 H1714 0.984 . S
N1708 H1715 0.984 . S
N1709 C1702 1.356 . S
N1709 H1712 0.984 . S
N1709 H1713 0.985 . S
H1710 N1705 0.984 . S
H1711 N1705 0.985 . S
H1712 N1709 0.984 . S
H1713 N1709 0.985 . S
H1714 N1708 0.984 . S
H1715 N1708 0.984 . S
H1716 N1704 0.984 . S
H1717 N1704 0.985 . S
C1718 C1719 1.363 . S
C1718 C1724 1.379 . S
C1718 N1726 1.356 . S
C1719 C1718 1.363 . S
C1719 C1725 1.363 . S
C1720 C1721 1.363 . S
C1720 C1725 1.379 . S
C1720 N1727 1.356 . S
C1721 C1720 1.363 . S
C1721 C1724 1.363 . S
N1722 C1724 1.356 . S
N1722 H1734 0.984 . S
N1722 H1735 0.985 . S
N1723 C1725 1.356 . S
N1723 H1728 0.984 . S
N1723 H1729 0.985 . S
C1724 C1718 1.379 . S
C1724 C1721 1.363 . S
C1724 N1722 1.356 . S
C1725 C1719 1.363 . S
C1725 C1720 1.379 . S
C1725 N1723 1.356 . S
N1726 C1718 1.356 . S
N1726 H1732 0.984 . S
N1726 H1733 0.984 . S
N1727 C1720 1.356 . S
N1727 H1730 0.984 . S
N1727 H1731 0.985 . S
H1728 N1723 0.984 . S
H1729 N1723 0.985 . S
H1730 N1727 0.984 . S
H1731 N1727 0.985 . S
H1732 N1726 0.984 . S
H1733 N1726 0.984 . S
H1734 N1722 0.984 . S
H1735 N1722 0.985 . S
C1736 C1737 1.363 . S
C1736 C1742 1.379 . S
C1736 N1744 1.356 . S
C1737 C1736 1.363 . S
C1737 C1743 1.363 . S
C1738 C1739 1.363 . S
C1738 C1743 1.379 . S
C1738 N1745 1.356 . S
C1739 C1738 1.363 . S
C1739 C1742 1.363 . S
N1740 C1742 1.356 . S
N1740 H1752 0.984 . S
N1740 H1753 0.985 . S
N1741 C1743 1.356 . S
N1741 H1746 0.984 . S
N1741 H1747 0.985 . S
C1742 C1736 1.379 . S
C1742 C1739 1.363 . S
C1742 N1740 1.356 . S
C1743 C1737 1.363 . S
C1743 C1738 1.379 . S
C1743 N1741 1.356 . S
N1744 C1736 1.356 . S
N1744 H1750 0.984 . S
N1744 H1751 0.984 . S
N1745 C1738 1.356 . S
N1745 H1748 0.984 . S
N1745 H1749 0.985 . S
H1746 N1741 0.984 . S
H1747 N1741 0.985 . S
H1748 N1745 0.984 . S
H1749 N1745 0.985 . S
H1750 N1744 0.984 . S
H1751 N1744 0.984 . S
H1752 N1740 0.984 . S
H1753 N1740 0.985 . S
C1754 C1755 1.363 . S
C1754 C1760 1.379 . S
C1754 N1762 1.356 . S
C1755 C1754 1.363 . S
C1755 C1761 1.363 . S
C1756 C1757 1.363 . S
C1756 C1761 1.379 . S
C1756 N1763 1.356 . S
C1757 C1756 1.363 . S
C1757 C1760 1.363 . S
N1758 C1760 1.356 . S
N1758 H1770 0.984 . S
N1758 H1771 0.985 . S
N1759 C1761 1.356 . S
N1759 H1764 0.984 . S
N1759 H1765 0.985 . S
C1760 C1754 1.379 . S
C1760 C1757 1.363 . S
C1760 N1758 1.356 . S
C1761 C1755 1.363 . S
C1761 C1756 1.379 . S
C1761 N1759 1.356 . S
N1762 C1754 1.356 . S
N1762 H1768 0.984 . S
N1762 H1769 0.984 . S
N1763 C1756 1.356 . S
N1763 H1766 0.984 . S
N1763 H1767 0.985 . S
H1764 N1759 0.984 . S
H1765 N1759 0.985 . S
H1766 N1763 0.984 . S
H1767 N1763 0.985 . S
H1768 N1762 0.984 . S
H1769 N1762 0.984 . S
H1770 N1758 0.984 . S
H1771 N1758 0.985 . S
C1772 C1773 1.363 . S
C1772 C1778 1.379 . S
C1772 N1780 1.356 . S
C1773 C1772 1.363 . S
C1773 C1779 1.363 . S
C1774 C1775 1.363 . S
C1774 C1779 1.379 . S
C1774 N1781 1.356 . S
C1775 C1774 1.363 . S
C1775 C1778 1.363 . S
N1776 C1778 1.356 . S
N1776 H1788 0.984 . S
N1776 H1789 0.985 . S
N1777 C1779 1.356 . S
N1777 H1782 0.984 . S
N1777 H1783 0.985 . S
C1778 C1772 1.379 . S
C1778 C1775 1.363 . S
C1778 N1776 1.356 . S
C1779 C1773 1.363 . S
C1779 C1774 1.379 . S
C1779 N1777 1.356 . S
N1780 C1772 1.356 . S
N1780 H1786 0.984 . S
N1780 H1787 0.984 . S
N1781 C1774 1.356 . S
N1781 H1784 0.984 . S
N1781 H1785 0.985 . S
H1782 N1777 0.984 . S
H1783 N1777 0.985 . S
H1784 N1781 0.984 . S
H1785 N1781 0.985 . S
H1786 N1780 0.984 . S
H1787 N1780 0.984 . S
H1788 N1776 0.984 . S
H1789 N1776 0.985 . S
C1790 C1791 1.363 . S
C1790 C1796 1.379 . S
C1790 N1798 1.356 . S
C1791 C1790 1.363 . S
C1791 C1797 1.363 . S
C1792 C1793 1.363 . S
C1792 C1797 1.379 . S
C1792 N1799 1.356 . S
C1793 C1792 1.363 . S
C1793 C1796 1.363 . S
N1794 C1796 1.356 . S
N1794 H1806 0.984 . S
N1794 H1807 0.985 . S
N1795 C1797 1.356 . S
N1795 H1800 0.984 . S
N1795 H1801 0.985 . S
C1796 C1790 1.379 . S
C1796 C1793 1.363 . S
C1796 N1794 1.356 . S
C1797 C1791 1.363 . S
C1797 C1792 1.379 . S
C1797 N1795 1.356 . S
N1798 C1790 1.356 . S
N1798 H1804 0.984 . S
N1798 H1805 0.984 . S
N1799 C1792 1.356 . S
N1799 H1802 0.984 . S
N1799 H1803 0.985 . S
H1800 N1795 0.984 . S
H1801 N1795 0.985 . S
H1802 N1799 0.984 . S
H1803 N1799 0.985 . S
H1804 N1798 0.984 . S
H1805 N1798 0.984 . S
H1806 N1794 0.984 . S
H1807 N1794 0.985 . S
C1808 C1809 1.363 . S
C1808 C1814 1.379 . S
C1808 N1816 1.356 . S
C1809 C1808 1.363 . S
C1809 C1815 1.363 . S
C1810 C1811 1.363 . S
C1810 C1815 1.379 . S
C1810 N1817 1.356 . S
C1811 C1810 1.363 . S
C1811 C1814 1.363 . S
N1812 C1814 1.356 . S
N1812 H1824 0.984 . S
N1812 H1825 0.985 . S
N1813 C1815 1.356 . S
N1813 H1818 0.984 . S
N1813 H1819 0.985 . S
C1814 C1808 1.379 . S
C1814 C1811 1.363 . S
C1814 N1812 1.356 . S
C1815 C1809 1.363 . S
C1815 C1810 1.379 . S
C1815 N1813 1.356 . S
N1816 C1808 1.356 . S
N1816 H1822 0.984 . S
N1816 H1823 0.984 . S
N1817 C1810 1.356 . S
N1817 H1820 0.984 . S
N1817 H1821 0.985 . S
H1818 N1813 0.984 . S
H1819 N1813 0.985 . S
H1820 N1817 0.984 . S
H1821 N1817 0.985 . S
H1822 N1816 0.984 . S
H1823 N1816 0.984 . S
H1824 N1812 0.984 . S
H1825 N1812 0.985 . S
C1826 C1827 1.363 . S
C1826 C1832 1.379 . S
C1826 N1834 1.356 . S
C1827 C1826 1.363 . S
C1827 C1833 1.363 . S
C1828 C1829 1.363 . S
C1828 C1833 1.379 . S
C1828 N1835 1.356 . S
C1829 C1828 1.363 . S
C1829 C1832 1.363 . S
N1830 C1832 1.356 . S
N1830 H1842 0.984 . S
N1830 H1843 0.985 . S
N1831 C1833 1.356 . S
N1831 H1836 0.984 . S
N1831 H1837 0.985 . S
C1832 C1826 1.379 . S
C1832 C1829 1.363 . S
C1832 N1830 1.356 . S
C1833 C1827 1.363 . S
C1833 C1828 1.379 . S
C1833 N1831 1.356 . S
N1834 C1826 1.356 . S
N1834 H1840 0.984 . S
N1834 H1841 0.984 . S
N1835 C1828 1.356 . S
N1835 H1838 0.984 . S
N1835 H1839 0.985 . S
H1836 N1831 0.984 . S
H1837 N1831 0.985 . S
H1838 N1835 0.984 . S
H1839 N1835 0.985 . S
H1840 N1834 0.984 . S
H1841 N1834 0.984 . S
H1842 N1830 0.984 . S
H1843 N1830 0.985 . S
C1844 C1845 1.363 . S
C1844 C1850 1.379 . S
C1844 N1852 1.356 . S
C1845 C1844 1.363 . S
C1845 C1851 1.363 . S
C1846 C1847 1.363 . S
C1846 C1851 1.379 . S
C1846 N1853 1.356 . S
C1847 C1846 1.363 . S
C1847 C1850 1.363 . S
N1848 C1850 1.356 . S
N1848 H1860 0.984 . S
N1848 H1861 0.985 . S
N1849 C1851 1.356 . S
N1849 H1854 0.984 . S
N1849 H1855 0.985 . S
C1850 C1844 1.379 . S
C1850 C1847 1.363 . S
C1850 N1848 1.356 . S
C1851 C1845 1.363 . S
C1851 C1846 1.379 . S
C1851 N1849 1.356 . S
N1852 C1844 1.356 . S
N1852 H1858 0.984 . S
N1852 H1859 0.984 . S
N1853 C1846 1.356 . S
N1853 H1856 0.984 . S
N1853 H1857 0.985 . S
H1854 N1849 0.984 . S
H1855 N1849 0.985 . S
H1856 N1853 0.984 . S
H1857 N1853 0.985 . S
H1858 N1852 0.984 . S
H1859 N1852 0.984 . S
H1860 N1848 0.984 . S
H1861 N1848 0.985 . S
C1862 C1863 1.363 . S
C1862 C1868 1.379 . S
C1862 N1870 1.356 . S
C1863 C1862 1.363 . S
C1863 C1869 1.363 1_554 S
C1864 C1865 1.363 1_556 S
C1864 C1869 1.379 . S
C1864 N1871 1.356 . S
C1865 C1864 1.363 1_554 S
C1865 C1868 1.363 . S
N1866 C1868 1.356 1_545 S
N1866 H1878 0.984 . S
N1866 H1879 0.985 . S
N1867 C1869 1.356 . S
N1867 H1872 0.984 . S
N1867 H1873 0.985 . S
C1868 C1862 1.379 . S
C1868 C1865 1.363 . S
C1868 N1866 1.356 1_565 S
C1869 C1863 1.363 1_556 S
C1869 C1864 1.379 . S
C1869 N1867 1.356 . S
N1870 C1862 1.356 . S
N1870 H1876 0.984 . S
N1870 H1877 0.984 . S
N1871 C1864 1.356 . S
N1871 H1874 0.984 . S
N1871 H1875 0.985 . S
H1872 N1867 0.984 . S
H1873 N1867 0.985 . S
H1874 N1871 0.984 . S
H1875 N1871 0.985 . S
H1876 N1870 0.984 . S
H1877 N1870 0.984 . S
H1878 N1866 0.984 . S
H1879 N1866 0.985 . S
C1880 C1881 1.363 . S
C1880 C1886 1.379 . S
C1880 N1888 1.356 . S
C1881 C1880 1.363 . S
C1881 C1887 1.363 . S
C1882 C1883 1.363 . S
C1882 C1887 1.379 . S
C1882 N1889 1.356 . S
C1883 C1882 1.363 . S
C1883 C1886 1.363 . S
N1884 C1886 1.356 . S
N1884 H1896 0.984 . S
N1884 H1897 0.985 . S
N1885 C1887 1.356 . S
N1885 H1890 0.984 . S
N1885 H1891 0.985 . S
C1886 C1880 1.379 . S
C1886 C1883 1.363 . S
C1886 N1884 1.356 . S
C1887 C1881 1.363 . S
C1887 C1882 1.379 . S
C1887 N1885 1.356 . S
N1888 C1880 1.356 . S
N1888 H1894 0.984 . S
N1888 H1895 0.984 . S
N1889 C1882 1.356 . S
N1889 H1892 0.984 . S
N1889 H1893 0.985 . S
H1890 N1885 0.984 . S
H1891 N1885 0.985 . S
H1892 N1889 0.984 . S
H1893 N1889 0.985 . S
H1894 N1888 0.984 . S
H1895 N1888 0.984 . S
H1896 N1884 0.984 . S
H1897 N1884 0.985 . S
C1898 C1899 1.363 . S
C1898 C1904 1.379 . S
C1898 N1906 1.356 . S
C1899 C1898 1.363 . S
C1899 C1905 1.363 1_554 S
C1900 C1901 1.363 . S
C1900 C1905 1.379 1_554 S
C1900 N1907 1.356 1_554 S
C1901 C1900 1.363 . S
C1901 C1904 1.363 . S
N1902 C1904 1.356 . S
N1902 H1914 0.984 . S
N1902 H1915 0.985 . S
N1903 C1905 1.356 . S
N1903 H1908 0.984 . S
N1903 H1909 0.985 . S
C1904 C1898 1.379 . S
C1904 C1901 1.363 . S
C1904 N1902 1.356 . S
C1905 C1899 1.363 1_556 S
C1905 C1900 1.379 1_556 S
C1905 N1903 1.356 . S
N1906 C1898 1.356 . S
N1906 H1912 0.984 . S
N1906 H1913 0.984 . S
N1907 C1900 1.356 1_556 S
N1907 H1910 0.984 1_556 S
N1907 H1911 0.985 . S
H1908 N1903 0.984 . S
H1909 N1903 0.985 . S
H1910 N1907 0.984 1_554 S
H1911 N1907 0.985 . S
H1912 N1906 0.984 . S
H1913 N1906 0.984 . S
H1914 N1902 0.984 . S
H1915 N1902 0.985 . S
C1916 C1917 1.363 . S
C1916 C1922 1.379 . S
C1916 N1924 1.356 . S
C1917 C1916 1.363 . S
C1917 C1923 1.363 . S
C1918 C1919 1.363 . S
C1918 C1923 1.379 . S
C1918 N1925 1.356 . S
C1919 C1918 1.363 . S
C1919 C1922 1.363 . S
N1920 C1922 1.356 . S
N1920 H1932 0.984 . S
N1920 H1933 0.985 . S
N1921 C1923 1.356 . S
N1921 H1926 0.984 . S
N1921 H1927 0.985 . S
C1922 C1916 1.379 . S
C1922 C1919 1.363 . S
C1922 N1920 1.356 . S
C1923 C1917 1.363 . S
C1923 C1918 1.379 . S
C1923 N1921 1.356 . S
N1924 C1916 1.356 . S
N1924 H1930 0.984 . S
N1924 H1931 0.984 . S
N1925 C1918 1.356 . S
N1925 H1928 0.984 . S
N1925 H1929 0.985 . S
H1926 N1921 0.984 . S
H1927 N1921 0.985 . S
H1928 N1925 0.984 . S
H1929 N1925 0.985 . S
H1930 N1924 0.984 . S
H1931 N1924 0.984 . S
H1932 N1920 0.984 . S
H1933 N1920 0.985 . S
C1934 C1935 1.363 . S
C1934 C1940 1.379 . S
C1934 N1942 1.356 . S
C1935 C1934 1.363 . S
C1935 C1941 1.363 . S
C1936 C1937 1.363 . S
C1936 C1941 1.379 . S
C1936 N1943 1.356 . S
C1937 C1936 1.363 . S
C1937 C1940 1.363 . S
N1938 C1940 1.356 . S
N1938 H1950 0.984 . S
N1938 H1951 0.985 . S
N1939 C1941 1.356 . S
N1939 H1944 0.984 . S
N1939 H1945 0.985 . S
C1940 C1934 1.379 . S
C1940 C1937 1.363 . S
C1940 N1938 1.356 . S
C1941 C1935 1.363 . S
C1941 C1936 1.379 . S
C1941 N1939 1.356 . S
N1942 C1934 1.356 . S
N1942 H1948 0.984 . S
N1942 H1949 0.984 . S
N1943 C1936 1.356 . S
N1943 H1946 0.984 . S
N1943 H1947 0.985 . S
H1944 N1939 0.984 . S
H1945 N1939 0.985 . S
H1946 N1943 0.984 . S
H1947 N1943 0.985 . S
H1948 N1942 0.984 . S
H1949 N1942 0.984 . S
H1950 N1938 0.984 . S
H1951 N1938 0.985 . S
C1952 C1953 1.363 . S
C1952 C1958 1.379 . S
C1952 N1960 1.356 . S
C1953 C1952 1.363 . S
C1953 C1959 1.363 . S
C1954 C1955 1.363 . S
C1954 C1959 1.379 . S
C1954 N1961 1.356 . S
C1955 C1954 1.363 . S
C1955 C1958 1.363 . S
N1956 C1958 1.356 . S
N1956 H1968 0.984 . S
N1956 H1969 0.985 . S
N1957 C1959 1.356 . S
N1957 H1962 0.984 . S
N1957 H1963 0.985 . S
C1958 C1952 1.379 . S
C1958 C1955 1.363 . S
C1958 N1956 1.356 . S
C1959 C1953 1.363 . S
C1959 C1954 1.379 . S
C1959 N1957 1.356 . S
N1960 C1952 1.356 . S
N1960 H1966 0.984 . S
N1960 H1967 0.984 . S
N1961 C1954 1.356 . S
N1961 H1964 0.984 . S
N1961 H1965 0.985 . S
H1962 N1957 0.984 . S
H1963 N1957 0.985 . S
H1964 N1961 0.984 . S
H1965 N1961 0.985 . S
H1966 N1960 0.984 . S
H1967 N1960 0.984 . S
H1968 N1956 0.984 . S
H1969 N1956 0.985 . S
C1970 C1971 1.363 . S
C1970 C1976 1.379 . S
C1970 N1978 1.356 . S
C1971 C1970 1.363 . S
C1971 C1977 1.363 . S
C1972 C1973 1.363 . S
C1972 C1977 1.379 . S
C1972 N1979 1.356 . S
C1973 C1972 1.363 . S
C1973 C1976 1.363 . S
N1974 C1976 1.356 . S
N1974 H1986 0.984 . S
N1974 H1987 0.985 . S
N1975 C1977 1.356 . S
N1975 H1980 0.984 . S
N1975 H1981 0.985 . S
C1976 C1970 1.379 . S
C1976 C1973 1.363 . S
C1976 N1974 1.356 . S
C1977 C1971 1.363 . S
C1977 C1972 1.379 . S
C1977 N1975 1.356 . S
N1978 C1970 1.356 . S
N1978 H1984 0.984 . S
N1978 H1985 0.984 . S
N1979 C1972 1.356 . S
N1979 H1982 0.984 . S
N1979 H1983 0.985 . S
H1980 N1975 0.984 . S
H1981 N1975 0.985 . S
H1982 N1979 0.984 . S
H1983 N1979 0.985 . S
H1984 N1978 0.984 . S
H1985 N1978 0.984 . S
H1986 N1974 0.984 . S
H1987 N1974 0.985 . S
C1988 C1989 1.363 . S
C1988 C1994 1.379 . S
C1988 N1996 1.356 . S
C1989 C1988 1.363 . S
C1989 C1995 1.382 . S
C1990 C1991 1.355 1_655 S
C1990 C1995 1.386 1_655 S
C1990 N1997 1.361 . S
C1991 C1990 1.355 1_455 S
C1991 C1994 1.363 . S
N1992 C1994 1.356 . S
N1992 H2004 0.984 . S
N1992 H2005 0.985 . S
N1993 C1995 1.336 1_655 S
N1993 H1998 0.984 . S
N1993 H1999 0.985 . S
C1994 C1988 1.379 . S
C1994 C1991 1.363 . S
C1994 N1992 1.356 . S
C1995 C1989 1.382 . S
C1995 C1990 1.386 1_455 S
C1995 N1993 1.336 1_455 S
N1996 C1988 1.356 . S
N1996 H2002 0.984 . S
N1996 H2003 0.984 . S
N1997 C1990 1.361 . S
N1997 H2000 0.984 1_554 S
N1997 H2001 0.985 1_554 S
H1998 N1993 0.984 . S
H1999 N1993 0.985 . S
H2000 N1997 0.984 1_556 S
H2001 N1997 0.985 1_556 S
H2002 N1996 0.984 . S
H2003 N1996 0.984 . S
H2004 N1992 0.984 . S
H2005 N1992 0.985 . S
C2006 C2007 1.363 . S
C2006 C2012 1.379 . S
C2006 N2014 1.356 . S
C2007 C2006 1.363 . S
C2007 C2013 1.363 . S
C2008 C2009 1.363 . S
C2008 C2013 1.379 . S
C2008 N2015 1.356 . S
C2009 C2008 1.363 . S
C2009 C2012 1.363 . S
N2010 C2012 1.356 . S
N2010 H2022 0.984 . S
N2010 H2023 0.985 . S
N2011 C2013 1.356 . S
N2011 H2016 0.984 . S
N2011 H2017 0.985 . S
C2012 C2006 1.379 . S
C2012 C2009 1.363 . S
C2012 N2010 1.356 . S
C2013 C2007 1.363 . S
C2013 C2008 1.379 . S
C2013 N2011 1.356 . S
N2014 C2006 1.356 . S
N2014 H2020 0.984 . S
N2014 H2021 0.984 . S
N2015 C2008 1.356 . S
N2015 H2018 0.984 . S
N2015 H2019 0.985 . S
H2016 N2011 0.984 . S
H2017 N2011 0.985 . S
H2018 N2015 0.984 . S
H2019 N2015 0.985 . S
H2020 N2014 0.984 . S
H2021 N2014 0.984 . S
H2022 N2010 0.984 . S
H2023 N2010 0.985 . S
C2024 C2025 1.363 . S
C2024 C2030 1.379 . S
C2024 N2032 1.356 . S
C2025 C2024 1.363 . S
C2025 C2031 1.363 . S
C2026 C2027 1.363 . S
C2026 C2031 1.379 . S
C2026 N2033 1.356 1_556 S
C2027 C2026 1.363 . S
C2027 C2030 1.363 . S
N2028 C2030 1.356 . S
N2028 H2040 0.984 . S
N2028 H2041 0.985 . S
N2029 C2031 1.356 . S
N2029 H2034 0.984 . S
N2029 H2035 0.985 . S
C2030 C2024 1.379 . S
C2030 C2027 1.363 . S
C2030 N2028 1.356 . S
C2031 C2025 1.363 . S
C2031 C2026 1.379 . S
C2031 N2029 1.356 . S
N2032 C2024 1.356 . S
N2032 H2038 0.984 . S
N2032 H2039 0.984 . S
N2033 C2026 1.356 1_554 S
N2033 H2036 0.984 . S
N2033 H2037 0.985 . S
H2034 N2029 0.984 . S
H2035 N2029 0.985 . S
H2036 N2033 0.984 . S
H2037 N2033 0.985 . S
H2038 N2032 0.984 . S
H2039 N2032 0.984 . S
H2040 N2028 0.984 . S
H2041 N2028 0.985 . S
C2042 C2043 1.363 . S
C2042 C2048 1.379 . S
C2042 N2050 1.356 . S
C2043 C2042 1.363 . S
C2043 C2049 1.363 . S
C2044 C2045 1.363 . S
C2044 C2049 1.379 . S
C2044 N2051 1.356 . S
C2045 C2044 1.363 . S
C2045 C2048 1.363 . S
N2046 C2048 1.356 . S
N2046 H2058 0.984 . S
N2046 H2059 0.985 . S
N2047 C2049 1.356 . S
N2047 H2052 0.984 . S
N2047 H2053 0.985 . S
C2048 C2042 1.379 . S
C2048 C2045 1.363 . S
C2048 N2046 1.356 . S
C2049 C2043 1.363 . S
C2049 C2044 1.379 . S
C2049 N2047 1.356 . S
N2050 C2042 1.356 . S
N2050 H2056 0.984 . S
N2050 H2057 0.984 . S
N2051 C2044 1.356 . S
N2051 H2054 0.984 . S
N2051 H2055 0.985 . S
H2052 N2047 0.984 . S
H2053 N2047 0.985 . S
H2054 N2051 0.984 . S
H2055 N2051 0.985 . S
H2056 N2050 0.984 . S
H2057 N2050 0.984 . S
H2058 N2046 0.984 . S
H2059 N2046 0.985 . S
C2060 C2061 1.363 . S
C2060 C2066 1.379 . S
C2060 N2068 1.356 1_455 S
C2061 C2060 1.363 . S
C2061 C2067 1.363 . S
C2062 C2063 1.363 . S
C2062 C2067 1.379 . S
C2062 N2069 1.356 . S
C2063 C2062 1.363 . S
C2063 C2066 1.363 . S
N2064 C2066 1.356 1_655 S
N2064 H2076 0.984 . S
N2064 H2077 0.985 . S
N2065 C2067 1.356 . S
N2065 H2070 0.984 . S
N2065 H2071 0.985 . S
C2066 C2060 1.379 . S
C2066 C2063 1.363 . S
C2066 N2064 1.356 1_455 S
C2067 C2061 1.363 . S
C2067 C2062 1.379 . S
C2067 N2065 1.356 . S
N2068 C2060 1.356 1_655 S
N2068 H2074 0.984 . S
N2068 H2075 0.984 1_655 S
N2069 C2062 1.356 . S
N2069 H2072 0.984 . S
N2069 H2073 0.985 . S
H2070 N2065 0.984 . S
H2071 N2065 0.985 . S
H2072 N2069 0.984 . S
H2073 N2069 0.985 . S
H2074 N2068 0.984 . S
H2075 N2068 0.984 1_455 S
H2076 N2064 0.984 . S
H2077 N2064 0.985 . S
C2078 C2079 1.363 . S
C2078 C2084 1.379 . S
C2078 N2086 1.356 . S
C2079 C2078 1.363 . S
C2079 C2085 1.363 . S
C2080 C2081 1.363 . S
C2080 C2085 1.379 . S
C2080 N2087 1.356 . S
C2081 C2080 1.363 . S
C2081 C2084 1.363 . S
N2082 C2084 1.356 . S
N2082 H2094 0.984 . S
N2082 H2095 0.985 . S
N2083 C2085 1.356 . S
N2083 H2088 0.984 . S
N2083 H2089 0.985 . S
C2084 C2078 1.379 . S
C2084 C2081 1.363 . S
C2084 N2082 1.356 . S
C2085 C2079 1.363 . S
C2085 C2080 1.379 . S
C2085 N2083 1.356 . S
N2086 C2078 1.356 . S
N2086 H2092 0.984 . S
N2086 H2093 0.984 . S
N2087 C2080 1.356 . S
N2087 H2090 0.984 . S
N2087 H2091 0.985 . S
H2088 N2083 0.984 . S
H2089 N2083 0.985 . S
H2090 N2087 0.984 . S
H2091 N2087 0.985 . S
H2092 N2086 0.984 . S
H2093 N2086 0.984 . S
H2094 N2082 0.984 . S
H2095 N2082 0.985 . S
C2096 C2097 1.363 . S
C2096 C2102 1.379 . S
C2096 N2104 1.356 . S
C2097 C2096 1.363 . S
C2097 C2103 1.363 . S
C2098 C2099 1.363 . S
C2098 C2103 1.379 . S
C2098 N2105 1.356 . S
C2099 C2098 1.363 . S
C2099 C2102 1.363 . S
N2100 C2102 1.356 . S
N2100 H2112 0.984 . S
N2100 H2113 0.985 . S
N2101 C2103 1.356 . S
N2101 H2106 0.984 . S
N2101 H2107 0.985 . S
C2102 C2096 1.379 . S
C2102 C2099 1.363 . S
C2102 N2100 1.356 . S
C2103 C2097 1.363 . S
C2103 C2098 1.379 . S
C2103 N2101 1.356 . S
N2104 C2096 1.356 . S
N2104 H2110 0.984 . S
N2104 H2111 0.984 . S
N2105 C2098 1.356 . S
N2105 H2108 0.984 . S
N2105 H2109 0.985 . S
H2106 N2101 0.984 . S
H2107 N2101 0.985 . S
H2108 N2105 0.984 . S
H2109 N2105 0.985 . S
H2110 N2104 0.984 . S
H2111 N2104 0.984 . S
H2112 N2100 0.984 . S
H2113 N2100 0.985 . S
C2114 C2115 1.363 . S
C2114 C2120 1.379 . S
C2114 N2122 1.356 . S
C2115 C2114 1.363 . S
C2115 C2121 1.363 . S
C2116 C2117 1.363 . S
C2116 C2121 1.379 . S
C2116 N2123 1.356 . S
C2117 C2116 1.363 . S
C2117 C2120 1.363 . S
N2118 C2120 1.356 . S
N2118 H2130 0.984 . S
N2118 H2131 0.985 . S
N2119 C2121 1.356 . S
N2119 H2124 0.984 . S
N2119 H2125 0.985 . S
C2120 C2114 1.379 . S
C2120 C2117 1.363 . S
C2120 N2118 1.356 . S
C2121 C2115 1.363 . S
C2121 C2116 1.379 . S
C2121 N2119 1.356 . S
N2122 C2114 1.356 . S
N2122 H2128 0.984 . S
N2122 H2129 0.984 . S
N2123 C2116 1.356 . S
N2123 H2126 0.984 . S
N2123 H2127 0.985 . S
H2124 N2119 0.984 . S
H2125 N2119 0.985 . S
H2126 N2123 0.984 . S
H2127 N2123 0.985 . S
H2128 N2122 0.984 . S
H2129 N2122 0.984 . S
H2130 N2118 0.984 . S
H2131 N2118 0.985 . S
C2132 C2133 1.363 . S
C2132 C2138 1.379 . S
C2132 N2140 1.356 . S
C2133 C2132 1.363 . S
C2133 C2139 1.363 . S
C2134 C2135 1.363 . S
C2134 C2139 1.379 . S
C2134 N2141 1.356 1_655 S
C2135 C2134 1.363 . S
C2135 C2138 1.363 . S
N2136 C2138 1.356 . S
N2136 H2148 0.984 . S
N2136 H2149 0.985 . S
N2137 C2139 1.356 . S
N2137 H2142 0.984 . S
N2137 H2143 0.985 . S
C2138 C2132 1.379 . S
C2138 C2135 1.363 . S
C2138 N2136 1.356 . S
C2139 C2133 1.363 . S
C2139 C2134 1.379 . S
C2139 N2137 1.356 . S
N2140 C2132 1.356 . S
N2140 H2146 0.984 . S
N2140 H2147 0.984 . S
N2141 C2134 1.356 1_455 S
N2141 H2144 0.984 . S
N2141 H2145 0.985 . S
H2142 N2137 0.984 . S
H2143 N2137 0.985 . S
H2144 N2141 0.984 . S
H2145 N2141 0.985 . S
H2146 N2140 0.984 . S
H2147 N2140 0.984 . S
H2148 N2136 0.984 . S
H2149 N2136 0.985 . S
C2150 C2151 1.363 . S
C2150 C2156 1.379 . S
C2150 N2158 1.356 . S
C2151 C2150 1.363 . S
C2151 C2157 1.363 . S
C2152 C2153 1.363 . S
C2152 C2157 1.379 . S
C2152 N2159 1.356 . S
C2153 C2152 1.363 . S
C2153 C2156 1.363 . S
N2154 C2156 1.356 . S
N2154 H2166 0.984 . S
N2154 H2167 0.985 . S
N2155 C2157 1.356 . S
N2155 H2160 0.984 . S
N2155 H2161 0.985 . S
C2156 C2150 1.379 . S
C2156 C2153 1.363 . S
C2156 N2154 1.356 . S
C2157 C2151 1.363 . S
C2157 C2152 1.379 . S
C2157 N2155 1.356 . S
N2158 C2150 1.356 . S
N2158 H2164 0.984 . S
N2158 H2165 0.984 . S
N2159 C2152 1.356 . S
N2159 H2162 0.984 . S
N2159 H2163 0.985 . S
H2160 N2155 0.984 . S
H2161 N2155 0.985 . S
H2162 N2159 0.984 . S
H2163 N2159 0.985 . S
H2164 N2158 0.984 . S
H2165 N2158 0.984 . S
H2166 N2154 0.984 . S
H2167 N2154 0.985 . S
C2168 C2169 1.363 . S
C2168 C2174 1.379 . S
C2168 N2176 1.356 . S
C2169 C2168 1.363 . S
C2169 C2175 1.363 . S
C2170 C2171 1.363 . S
C2170 C2175 1.379 . S
C2170 N2177 1.356 . S
C2171 C2170 1.363 . S
C2171 C2174 1.363 . S
N2172 C2174 1.356 . S
N2172 H2184 0.984 . S
N2172 H2185 0.985 . S
N2173 C2175 1.356 . S
N2173 H2178 0.984 . S
N2173 H2179 0.985 . S
C2174 C2168 1.379 . S
C2174 C2171 1.363 . S
C2174 N2172 1.356 . S
C2175 C2169 1.363 . S
C2175 C2170 1.379 . S
C2175 N2173 1.356 . S
N2176 C2168 1.356 . S
N2176 H2182 0.984 . S
N2176 H2183 0.984 . S
N2177 C2170 1.356 . S
N2177 H2180 0.984 . S
N2177 H2181 0.985 . S
H2178 N2173 0.984 . S
H2179 N2173 0.985 . S
H2180 N2177 0.984 . S
H2181 N2177 0.985 . S
H2182 N2176 0.984 . S
H2183 N2176 0.984 . S
H2184 N2172 0.984 . S
H2185 N2172 0.985 . S
C2186 C2187 1.363 . S
C2186 C2192 1.379 . S
C2186 N2194 1.356 . S
C2187 C2186 1.363 . S
C2187 C2193 1.363 . S
C2188 C2189 1.363 . S
C2188 C2193 1.379 . S
C2188 N2195 1.356 . S
C2189 C2188 1.363 . S
C2189 C2192 1.363 . S
N2190 C2192 1.356 . S
N2190 H2202 0.984 . S
N2190 H2203 0.985 . S
N2191 C2193 1.356 . S
N2191 H2196 0.984 . S
N2191 H2197 0.985 . S
C2192 C2186 1.379 . S
C2192 C2189 1.363 . S
C2192 N2190 1.356 . S
C2193 C2187 1.363 . S
C2193 C2188 1.379 . S
C2193 N2191 1.356 . S
N2194 C2186 1.356 . S
N2194 H2200 0.984 . S
N2194 H2201 0.984 . S
N2195 C2188 1.356 . S
N2195 H2198 0.984 . S
N2195 H2199 0.985 . S
H2196 N2191 0.984 . S
H2197 N2191 0.985 . S
H2198 N2195 0.984 . S
H2199 N2195 0.985 . S
H2200 N2194 0.984 . S
H2201 N2194 0.984 . S
H2202 N2190 0.984 . S
H2203 N2190 0.985 . S
C2204 C2205 1.363 . S
C2204 C2210 1.379 . S
C2204 N2212 1.356 . S
C2205 C2204 1.363 . S
C2205 C2211 1.363 . S
C2206 C2207 1.363 . S
C2206 C2211 1.379 . S
C2206 N2213 1.356 . S
C2207 C2206 1.363 . S
C2207 C2210 1.363 . S
N2208 C2210 1.356 . S
N2208 H2220 0.984 1_655 S
N2208 H2221 0.985 . S
N2209 C2211 1.356 . S
N2209 H2214 0.984 . S
N2209 H2215 0.985 . S
C2210 C2204 1.379 . S
C2210 C2207 1.363 . S
C2210 N2208 1.356 . S
C2211 C2205 1.363 . S
C2211 C2206 1.379 . S
C2211 N2209 1.356 . S
N2212 C2204 1.356 . S
N2212 H2218 0.984 . S
N2212 H2219 0.984 . S
N2213 C2206 1.356 . S
N2213 H2216 0.984 . S
N2213 H2217 0.985 . S
H2214 N2209 0.984 . S
H2215 N2209 0.985 . S
H2216 N2213 0.984 . S
H2217 N2213 0.985 . S
H2218 N2212 0.984 . S
H2219 N2212 0.984 . S
H2220 N2208 0.984 1_455 S
H2221 N2208 0.985 . S
C2222 C2223 1.363 . S
C2222 C2228 1.379 . S
C2222 N2230 1.356 . S
C2223 C2222 1.363 . S
C2223 C2229 1.363 . S
C2224 C2225 1.363 . S
C2224 C2229 1.379 . S
C2224 N2231 1.356 . S
C2225 C2224 1.363 . S
C2225 C2228 1.363 . S
N2226 C2228 1.356 . S
N2226 H2238 0.984 . S
N2226 H2239 0.985 . S
N2227 C2229 1.356 . S
N2227 H2232 0.984 . S
N2227 H2233 0.985 . S
C2228 C2222 1.379 . S
C2228 C2225 1.363 . S
C2228 N2226 1.356 . S
C2229 C2223 1.363 . S
C2229 C2224 1.379 . S
C2229 N2227 1.356 . S
N2230 C2222 1.356 . S
N2230 H2236 0.984 . S
N2230 H2237 0.984 . S
N2231 C2224 1.356 . S
N2231 H2234 0.984 . S
N2231 H2235 0.985 . S
H2232 N2227 0.984 . S
H2233 N2227 0.985 . S
H2234 N2231 0.984 . S
H2235 N2231 0.985 . S
H2236 N2230 0.984 . S
H2237 N2230 0.984 . S
H2238 N2226 0.984 . S
H2239 N2226 0.985 . S
C2240 C2241 1.363 . S
C2240 C2246 1.379 . S
C2240 N2248 1.356 . S
C2241 C2240 1.363 . S
C2241 C2247 1.363 . S
C2242 C2243 1.363 . S
C2242 C2247 1.379 . S
C2242 N2249 1.356 . S
C2243 C2242 1.363 . S
C2243 C2246 1.363 . S
N2244 C2246 1.356 . S
N2244 H2256 0.984 . S
N2244 H2257 0.985 . S
N2245 C2247 1.356 . S
N2245 H2250 0.984 . S
N2245 H2251 0.985 . S
C2246 C2240 1.379 . S
C2246 C2243 1.363 . S
C2246 N2244 1.356 . S
C2247 C2241 1.363 . S
C2247 C2242 1.379 . S
C2247 N2245 1.356 . S
N2248 C2240 1.356 . S
N2248 H2254 0.984 . S
N2248 H2255 0.984 . S
N2249 C2242 1.356 . S
N2249 H2252 0.984 . S
N2249 H2253 0.985 . S
H2250 N2245 0.984 . S
H2251 N2245 0.985 . S
H2252 N2249 0.984 . S
H2253 N2249 0.985 . S
H2254 N2248 0.984 . S
H2255 N2248 0.984 . S
H2256 N2244 0.984 . S
H2257 N2244 0.985 . S
C2258 C2259 1.363 . S
C2258 C2264 1.379 . S
C2258 N2266 1.356 . S
C2259 C2258 1.363 . S
C2259 C2265 1.363 . S
C2260 C2261 1.363 . S
C2260 C2265 1.379 . S
C2260 N2267 1.356 . S
C2261 C2260 1.363 . S
C2261 C2264 1.363 . S
N2262 C2264 1.356 . S
N2262 H2274 0.984 . S
N2262 H2275 0.985 . S
N2263 C2265 1.356 . S
N2263 H2268 0.984 . S
N2263 H2269 0.985 . S
C2264 C2258 1.379 . S
C2264 C2261 1.363 . S
C2264 N2262 1.356 . S
C2265 C2259 1.363 . S
C2265 C2260 1.379 . S
C2265 N2263 1.356 . S
N2266 C2258 1.356 . S
N2266 H2272 0.984 . S
N2266 H2273 0.984 . S
N2267 C2260 1.356 . S
N2267 H2270 0.984 1_565 S
N2267 H2271 0.985 1_565 S
H2268 N2263 0.984 . S
H2269 N2263 0.985 . S
H2270 N2267 0.984 1_545 S
H2271 N2267 0.985 1_545 S
H2272 N2266 0.984 . S
H2273 N2266 0.984 . S
H2274 N2262 0.984 . S
H2275 N2262 0.985 . S
C2276 C2277 1.363 . S
C2276 C2282 1.379 . S
C2276 N2284 1.356 . S
C2277 C2276 1.363 . S
C2277 C2283 1.363 . S
C2278 C2279 1.363 . S
C2278 C2283 1.379 . S
C2278 N2285 1.356 . S
C2279 C2278 1.363 . S
C2279 C2282 1.363 . S
N2280 C2282 1.356 . S
N2280 H2292 0.984 . S
N2280 H2293 0.985 . S
N2281 C2283 1.356 . S
N2281 H2286 0.984 . S
N2281 H2287 0.985 . S
C2282 C2276 1.379 . S
C2282 C2279 1.363 . S
C2282 N2280 1.356 . S
C2283 C2277 1.363 . S
C2283 C2278 1.379 . S
C2283 N2281 1.356 . S
N2284 C2276 1.356 . S
N2284 H2290 0.984 . S
N2284 H2291 0.984 . S
N2285 C2278 1.356 . S
N2285 H2288 0.984 . S
N2285 H2289 0.985 . S
H2286 N2281 0.984 . S
H2287 N2281 0.985 . S
H2288 N2285 0.984 . S
H2289 N2285 0.985 . S
H2290 N2284 0.984 . S
H2291 N2284 0.984 . S
H2292 N2280 0.984 . S
H2293 N2280 0.985 . S
C2294 C2295 1.363 . S
C2294 C2300 1.379 . S
C2294 N2302 1.356 . S
C2295 C2294 1.363 . S
C2295 C2301 1.363 1_556 S
C2296 C2297 1.363 . S
C2296 C2301 1.379 . S
C2296 N2303 1.356 . S
C2297 C2296 1.363 . S
C2297 C2300 1.363 1_554 S
N2298 C2300 1.356 . S
N2298 H2310 0.984 . S
N2298 H2311 0.985 . S
N2299 C2301 1.356 . S
N2299 H2304 0.984 . S
N2299 H2305 0.985 . S
C2300 C2294 1.379 . S
C2300 C2297 1.363 1_556 S
C2300 N2298 1.356 . S
C2301 C2295 1.363 1_554 S
C2301 C2296 1.379 . S
C2301 N2299 1.356 . S
N2302 C2294 1.356 . S
N2302 H2308 0.984 . S
N2302 H2309 0.984 . S
N2303 C2296 1.356 . S
N2303 H2306 0.984 . S
N2303 H2307 0.985 . S
H2304 N2299 0.984 . S
H2305 N2299 0.985 . S
H2306 N2303 0.984 . S
H2307 N2303 0.985 . S
H2308 N2302 0.984 . S
H2309 N2302 0.984 . S
H2310 N2298 0.984 . S
H2311 N2298 0.985 . S
C2312 C2313 1.363 . S
C2312 C2318 1.379 . S
C2312 N2320 1.356 . S
C2313 C2312 1.363 . S
C2313 C2319 1.363 . S
C2314 C2315 1.363 . S
C2314 C2319 1.379 . S
C2314 N2321 1.356 . S
C2315 C2314 1.363 . S
C2315 C2318 1.363 . S
N2316 C2318 1.356 . S
N2316 H2328 0.984 . S
N2316 H2329 0.985 . S
N2317 C2319 1.356 . S
N2317 H2322 0.984 . S
N2317 H2323 0.985 . S
C2318 C2312 1.379 . S
C2318 C2315 1.363 . S
C2318 N2316 1.356 . S
C2319 C2313 1.363 . S
C2319 C2314 1.379 . S
C2319 N2317 1.356 . S
N2320 C2312 1.356 . S
N2320 H2326 0.984 . S
N2320 H2327 0.984 . S
N2321 C2314 1.356 . S
N2321 H2324 0.984 . S
N2321 H2325 0.985 . S
H2322 N2317 0.984 . S
H2323 N2317 0.985 . S
H2324 N2321 0.984 . S
H2325 N2321 0.985 . S
H2326 N2320 0.984 . S
H2327 N2320 0.984 . S
H2328 N2316 0.984 . S
H2329 N2316 0.985 . S
C2330 C2331 1.363 1_556 S
C2330 C2336 1.379 . S
C2330 N2338 1.356 . S
C2331 C2330 1.363 1_554 S
C2331 C2337 1.363 . S
C2332 C2333 1.363 1_554 S
C2332 C2337 1.379 . S
C2332 N2339 1.356 . S
C2333 C2332 1.363 1_556 S
C2333 C2336 1.363 . S
N2334 C2336 1.356 . S
N2334 H2346 0.984 . S
N2334 H2347 0.985 . S
N2335 C2337 1.356 . S
N2335 H2340 0.984 . S
N2335 H2341 0.985 . S
C2336 C2330 1.379 . S
C2336 C2333 1.363 . S
C2336 N2334 1.356 . S
C2337 C2331 1.363 . S
C2337 C2332 1.379 . S
C2337 N2335 1.356 . S
N2338 C2330 1.356 . S
N2338 H2344 0.984 . S
N2338 H2345 0.984 . S
N2339 C2332 1.356 . S
N2339 H2342 0.984 . S
N2339 H2343 0.985 . S
H2340 N2335 0.984 . S
H2341 N2335 0.985 . S
H2342 N2339 0.984 . S
H2343 N2339 0.985 . S
H2344 N2338 0.984 . S
H2345 N2338 0.984 . S
H2346 N2334 0.984 . S
H2347 N2334 0.985 . S
C2348 C2349 1.363 . S
C2348 C2354 1.379 . S
C2348 N2356 1.356 . S
C2349 C2348 1.363 . S
C2349 C2355 1.363 . S
C2350 C2351 1.363 . S
C2350 C2355 1.379 . S
C2350 N2357 1.356 . S
C2351 C2350 1.363 . S
C2351 C2354 1.363 . S
N2352 C2354 1.356 . S
N2352 H2364 0.984 . S
N2352 H2365 0.985 . S
N2353 C2355 1.356 . S
N2353 H2358 0.984 . S
N2353 H2359 0.985 . S
C2354 C2348 1.379 . S
C2354 C2351 1.363 . S
C2354 N2352 1.356 . S
C2355 C2349 1.363 . S
C2355 C2350 1.379 . S
C2355 N2353 1.356 . S
N2356 C2348 1.356 . S
N2356 H2362 0.984 . S
N2356 H2363 0.984 . S
N2357 C2350 1.356 . S
N2357 H2360 0.984 . S
N2357 H2361 0.985 . S
H2358 N2353 0.984 . S
H2359 N2353 0.985 . S
H2360 N2357 0.984 . S
H2361 N2357 0.985 . S
H2362 N2356 0.984 . S
H2363 N2356 0.984 . S
H2364 N2352 0.984 . S
H2365 N2352 0.985 . S
C2366 C2367 1.363 . S
C2366 C2372 1.379 . S
C2366 N2374 1.356 . S
C2367 C2366 1.363 . S
C2367 C2373 1.363 . S
C2368 C2369 1.363 . S
C2368 C2373 1.379 . S
C2368 N2375 1.356 . S
C2369 C2368 1.363 . S
C2369 C2372 1.363 . S
N2370 C2372 1.356 . S
N2370 H2382 0.984 . S
N2370 H2383 0.985 . S
N2371 C2373 1.356 . S
N2371 H2376 0.984 . S
N2371 H2377 0.985 . S
C2372 C2366 1.379 . S
C2372 C2369 1.363 . S
C2372 N2370 1.356 . S
C2373 C2367 1.363 . S
C2373 C2368 1.379 . S
C2373 N2371 1.356 . S
N2374 C2366 1.356 . S
N2374 H2380 0.984 . S
N2374 H2381 0.984 . S
N2375 C2368 1.356 . S
N2375 H2378 0.984 . S
N2375 H2379 0.985 . S
H2376 N2371 0.984 . S
H2377 N2371 0.985 . S
H2378 N2375 0.984 . S
H2379 N2375 0.985 . S
H2380 N2374 0.984 . S
H2381 N2374 0.984 . S
H2382 N2370 0.984 . S
H2383 N2370 0.985 . S
C657 C105 1.684 . S
C659 C354 1.634 . S
C675 C65 1.715 . S
C677 C365 1.718 . S
C693 C73 1.245 . S
C695 C394 1.189 . S
C713 C397 1.457 . S
C711 C92 1.467 . S
C729 C17 1.715 . S
C731 C435 1.626 . S
C749 C438 1.249 . S
C747 C37 1.246 . S
C767 C465 1.574 . S
C765 C49 1.501 . S
C783 C8 1.724 . S
C785 C494 1.634 . S
C803 C345 1.669 1_655 S
C801 C231 1.588 . S
C819 C241 1.121 . S
C821 C357 1.092 . S
C839 C385 1.573 . S
C837 C273 1.524 . S
C857 C414 1.278 . S
C855 C171 1.297 . S
C873 C227 1.209 . S
C875 C418 1.216 . S
C893 C444 1.614 . S
C891 C245 1.583 . S
C911 C457 0.943 . S
C909 C269 0.958 . S
C929 C485 1.670 . S
C927 C175 1.651 . S
C947 C337 1.555 1_565 S
C945 C162 1.590 . S
C963 C289 1.764 . S
C965 C504 1.726 . S
C983 C535 1.617 . S
C981 C330 1.699 . S
C1001 C554 1.071 . S
C999 C317 1.096 . S
C1017 C120 1.458 . S
C1019 C477 1.457 . S
C1035 C134 1.587 . S
C1037 C377 1.582 . S
C1053 C331 1.583 . S
C1055 C565 1.581 . S
C1073 C594 1.048 . S
C1071 C303 1.121 . S
C1091 C355 1.649 . S
C1089 C59 1.696 . S
C1109 C584 1.730 . S
C1107 C107 1.723 . S
C1125 C91 1.229 . S
C1127 C395 1.219 . S
C1143 C78 1.478 . S
C1145 C558 1.473 . S
C1163 C434 1.653 . S
C1161 C7 1.671 . S
C1179 C51 1.255 . S
C1181 C517 1.251 . S
C1199 C464 1.593 . S
C1197 C31 1.596 . S
C1217 C615 1.643 . S
C1215 C22 1.723 . S
C1235 C344 1.673 . S
C1233 C143 1.672 . S
C1253 C578 1.104 . S
C1251 C315 1.069 . S
C1269 C115 1.588 . S
C1271 C384 1.582 . S
C1287 C287 1.296 . S
C1289 C575 1.316 . S
C1305 C147 1.139 . S
C1307 C417 1.233 . S
C1325 C525 1.622 . S
C1323 C311 1.648 . S
C1341 C119 0.946 . S
C1343 C458 0.962 . S
C1359 C283 1.693 . S
C1361 C604 1.682 . S
C1377 C190 1.578 1_556 S
C1379 C338 1.556 . S
C1395 C177 1.771 . S
C1397 C505 1.738 . S
C1413 C260 1.690 . S
C1415 C454 1.624 . S
C1431 C247 1.127 . S
C1433 C555 1.104 . S
C1451 C598 1.453 . S
C1449 C274 1.438 . S
C1467 C218 1.575 . S
C1469 C378 1.587 . S
C1487 C404 1.600 . S
C1485 C261 1.597 . S
C1505 C375 1.061 . S
C1503 C205 1.129 . S
C1521 C77 1.672 . S
C1523 C634 1.634 . S
C1541 C585 1.718 . S
C1539 C93 1.715 . S
C1557 C101 1.245 . S
C1559 C654 1.189 . S
C1575 C64 1.467 . S
C1577 C557 1.457 . S
C1593 C45 1.715 . S
C1595 C515 1.626 . S
C1613 C518 1.248 . S
C1611 C9 1.246 . S
C1631 C545 1.574 . S
C1629 C21 1.504 1_655 S
C1649 C614 1.634 . S
C1647 C36 1.724 . S
C1667 C625 1.669 . S
C1665 C259 1.588 . S
C1683 C185 1.121 . S
C1685 C577 1.092 . S
C1703 C645 1.573 . S
C1701 C203 1.524 . S
C1721 C574 1.278 . S
C1719 C213 1.297 . S
C1739 C498 1.216 . S
C1737 C255 1.209 . S
C1755 C189 1.583 . S
C1757 C524 1.614 . S
C1775 C537 0.943 . S
C1773 C199 0.958 . S
C1791 C217 1.651 . S
C1793 C605 1.670 . S
C1811 C617 1.555 . S
C1809 C316 1.590 . S
C1827 C135 1.764 . S
C1829 C424 1.726 . S
C1847 C455 1.617 . S
C1845 C148 1.702 . S
C1865 C474 1.074 . S
C1863 C163 1.096 . S
C1883 C597 1.457 . S
C1881 C302 1.457 . S
C1899 C288 1.587 . S
C1901 C637 1.582 . S
C1919 C405 1.581 . S
C1917 C149 1.579 . S
C1937 C374 1.048 . S
C1935 C121 1.121 . S
C1953 C87 1.696 . S
C1955 C635 1.649 . S
C1973 C364 1.730 . S
C1971 C79 1.723 . S
C1989 C63 1.229 . S
C1991 C655 1.219 . S
C2007 C106 1.478 . S
C2009 C398 1.474 . S
C2025 C35 1.671 . S
C2027 C514 1.653 . S
C2045 C437 1.251 . S
C2043 C23 1.254 . S
C2061 C3 1.596 . S
C2063 C544 1.593 . S
C2079 C50 1.723 . S
C2081 C495 1.643 . S
C2099 C624 1.673 . S
C2097 C325 1.670 . S
C2115 C161 1.069 . S
C2117 C358 1.104 . S
C2135 C644 1.582 1_655 S
C2133 C297 1.588 . S
C2151 C133 1.296 . S
C2153 C415 1.316 . S
C2169 C329 1.139 . S
C2171 C497 1.235 . S
C2189 C445 1.621 . S
C2187 C157 1.648 . S
C2205 C301 0.946 . S
C2207 C538 0.962 . S
C2225 C484 1.682 . S
C2223 C129 1.694 . S
C2243 C618 1.557 . S
C2241 C246 1.578 . S
C2261 C425 1.738 1_565 S
C2259 C219 1.772 . S
C2277 C232 1.690 . S
C2279 C534 1.624 . S
C2297 C475 1.104 . S
C2295 C191 1.127 . S
C2313 C204 1.438 . S
C2315 C478 1.453 . S
C2331 C176 1.575 . S
C2333 C638 1.587 . S
C2351 C564 1.600 . S
C2349 C233 1.597 . S
C2369 C595 1.061 . S
C2367 C275 1.129 . S
