# Generated by pormake.
# Topology iac, (4,6)-cn, num edge types: 1
# Building blocks:
#     Node 0, Type 0, BuildingBlock: GALJAG_clean_sbu_0, # of connection points: 4
#     Node 1, Type 0, BuildingBlock: GALJAG_clean_sbu_0, # of connection points: 4
#     Node 2, Type 0, BuildingBlock: GALJAG_clean_sbu_0, # of connection points: 4
#     Node 3, Type 0, BuildingBlock: GALJAG_clean_sbu_0, # of connection points: 4
#     Node 4, Type 0, BuildingBlock: GALJAG_clean_sbu_0, # of connection points: 4
#     Node 5, Type 0, BuildingBlock: GALJAG_clean_sbu_0, # of connection points: 4
#     Node 6, Type 0, BuildingBlock: GALJAG_clean_sbu_0, # of connection points: 4
#     Node 7, Type 0, BuildingBlock: GALJAG_clean_sbu_0, # of connection points: 4
#     Node 8, Type 0, BuildingBlock: GALJAG_clean_sbu_0, # of connection points: 4
#     Node 9, Type 0, BuildingBlock: GALJAG_clean_sbu_0, # of connection points: 4
#     Node 10, Type 0, BuildingBlock: GALJAG_clean_sbu_0, # of connection points: 4
#     Node 11, Type 0, BuildingBlock: GALJAG_clean_sbu_0, # of connection points: 4
#     Node 12, Type 0, BuildingBlock: GALJAG_clean_sbu_0, # of connection points: 4
#     Node 13, Type 0, BuildingBlock: GALJAG_clean_sbu_0, # of connection points: 4
#     Node 14, Type 0, BuildingBlock: GALJAG_clean_sbu_0, # of connection points: 4
#     Node 15, Type 0, BuildingBlock: GALJAG_clean_sbu_0, # of connection points: 4
#     Node 16, Type 0, BuildingBlock: GALJAG_clean_sbu_0, # of connection points: 4
#     Node 17, Type 0, BuildingBlock: GALJAG_clean_sbu_0, # of connection points: 4
#     Node 18, Type 0, BuildingBlock: GALJAG_clean_sbu_0, # of connection points: 4
#     Node 19, Type 0, BuildingBlock: GALJAG_clean_sbu_0, # of connection points: 4
#     Node 20, Type 0, BuildingBlock: GALJAG_clean_sbu_0, # of connection points: 4
#     Node 21, Type 0, BuildingBlock: GALJAG_clean_sbu_0, # of connection points: 4
#     Node 22, Type 0, BuildingBlock: GALJAG_clean_sbu_0, # of connection points: 4
#     Node 23, Type 0, BuildingBlock: GALJAG_clean_sbu_0, # of connection points: 4
#     Node 24, Type 1, BuildingBlock: FUNLAD_clean_sbu_0, # of connection points: 6
#     Node 25, Type 1, BuildingBlock: FUNLAD_clean_sbu_0, # of connection points: 6
#     Node 26, Type 1, BuildingBlock: FUNLAD_clean_sbu_0, # of connection points: 6
#     Node 27, Type 1, BuildingBlock: FUNLAD_clean_sbu_0, # of connection points: 6
#     Node 28, Type 1, BuildingBlock: FUNLAD_clean_sbu_0, # of connection points: 6
#     Node 29, Type 1, BuildingBlock: FUNLAD_clean_sbu_0, # of connection points: 6
#     Node 30, Type 1, BuildingBlock: FUNLAD_clean_sbu_0, # of connection points: 6
#     Node 31, Type 1, BuildingBlock: FUNLAD_clean_sbu_0, # of connection points: 6
#     Node 32, Type 1, BuildingBlock: FUNLAD_clean_sbu_0, # of connection points: 6
#     Node 33, Type 1, BuildingBlock: FUNLAD_clean_sbu_0, # of connection points: 6
#     Node 34, Type 1, BuildingBlock: FUNLAD_clean_sbu_0, # of connection points: 6
#     Node 35, Type 1, BuildingBlock: FUNLAD_clean_sbu_0, # of connection points: 6
#     Node 36, Type 1, BuildingBlock: FUNLAD_clean_sbu_0, # of connection points: 6
#     Node 37, Type 1, BuildingBlock: FUNLAD_clean_sbu_0, # of connection points: 6
#     Node 38, Type 1, BuildingBlock: FUNLAD_clean_sbu_0, # of connection points: 6
#     Node 39, Type 1, BuildingBlock: FUNLAD_clean_sbu_0, # of connection points: 6
#     Edge 40, Type (0, 1), BuildingBlock: AJUNOK_clean_linker_0, # of connection points: 2
#     Edge 41, Type (0, 1), BuildingBlock: AJUNOK_clean_linker_0, # of connection points: 2
#     Edge 42, Type (0, 1), BuildingBlock: AJUNOK_clean_linker_0, # of connection points: 2
#     Edge 43, Type (0, 1), BuildingBlock: AJUNOK_clean_linker_0, # of connection points: 2
#     Edge 44, Type (0, 1), BuildingBlock: AJUNOK_clean_linker_0, # of connection points: 2
#     Edge 45, Type (0, 1), BuildingBlock: AJUNOK_clean_linker_0, # of connection points: 2
#     Edge 46, Type (0, 1), BuildingBlock: AJUNOK_clean_linker_0, # of connection points: 2
#     Edge 47, Type (0, 1), BuildingBlock: AJUNOK_clean_linker_0, # of connection points: 2
#     Edge 48, Type (0, 1), BuildingBlock: AJUNOK_clean_linker_0, # of connection points: 2
#     Edge 49, Type (0, 1), BuildingBlock: AJUNOK_clean_linker_0, # of connection points: 2
#     Edge 50, Type (0, 1), BuildingBlock: AJUNOK_clean_linker_0, # of connection points: 2
#     Edge 51, Type (0, 1), BuildingBlock: AJUNOK_clean_linker_0, # of connection points: 2
#     Edge 52, Type (0, 1), BuildingBlock: AJUNOK_clean_linker_0, # of connection points: 2
#     Edge 53, Type (0, 1), BuildingBlock: AJUNOK_clean_linker_0, # of connection points: 2
#     Edge 54, Type (0, 1), BuildingBlock: AJUNOK_clean_linker_0, # of connection points: 2
#     Edge 55, Type (0, 1), BuildingBlock: AJUNOK_clean_linker_0, # of connection points: 2
#     Edge 56, Type (0, 1), BuildingBlock: AJUNOK_clean_linker_0, # of connection points: 2
#     Edge 57, Type (0, 1), BuildingBlock: AJUNOK_clean_linker_0, # of connection points: 2
#     Edge 58, Type (0, 1), BuildingBlock: AJUNOK_clean_linker_0, # of connection points: 2
#     Edge 59, Type (0, 1), BuildingBlock: AJUNOK_clean_linker_0, # of connection points: 2
#     Edge 60, Type (0, 1), BuildingBlock: AJUNOK_clean_linker_0, # of connection points: 2
#     Edge 61, Type (0, 1), BuildingBlock: AJUNOK_clean_linker_0, # of connection points: 2
#     Edge 62, Type (0, 1), BuildingBlock: AJUNOK_clean_linker_0, # of connection points: 2
#     Edge 63, Type (0, 1), BuildingBlock: AJUNOK_clean_linker_0, # of connection points: 2
#     Edge 64, Type (0, 1), BuildingBlock: AJUNOK_clean_linker_0, # of connection points: 2
#     Edge 65, Type (0, 1), BuildingBlock: AJUNOK_clean_linker_0, # of connection points: 2
#     Edge 66, Type (0, 1), BuildingBlock: AJUNOK_clean_linker_0, # of connection points: 2
#     Edge 67, Type (0, 1), BuildingBlock: AJUNOK_clean_linker_0, # of connection points: 2
#     Edge 68, Type (0, 1), BuildingBlock: AJUNOK_clean_linker_0, # of connection points: 2
#     Edge 69, Type (0, 1), BuildingBlock: AJUNOK_clean_linker_0, # of connection points: 2
#     Edge 70, Type (0, 1), BuildingBlock: AJUNOK_clean_linker_0, # of connection points: 2
#     Edge 71, Type (0, 1), BuildingBlock: AJUNOK_clean_linker_0, # of connection points: 2
#     Edge 72, Type (0, 1), BuildingBlock: AJUNOK_clean_linker_0, # of connection points: 2
#     Edge 73, Type (0, 1), BuildingBlock: AJUNOK_clean_linker_0, # of connection points: 2
#     Edge 74, Type (0, 1), BuildingBlock: AJUNOK_clean_linker_0, # of connection points: 2
#     Edge 75, Type (0, 1), BuildingBlock: AJUNOK_clean_linker_0, # of connection points: 2
#     Edge 76, Type (0, 1), BuildingBlock: AJUNOK_clean_linker_0, # of connection points: 2
#     Edge 77, Type (0, 1), BuildingBlock: AJUNOK_clean_linker_0, # of connection points: 2
#     Edge 78, Type (0, 1), BuildingBlock: AJUNOK_clean_linker_0, # of connection points: 2
#     Edge 79, Type (0, 1), BuildingBlock: AJUNOK_clean_linker_0, # of connection points: 2
#     Edge 80, Type (0, 1), BuildingBlock: AJUNOK_clean_linker_0, # of connection points: 2
#     Edge 81, Type (0, 1), BuildingBlock: AJUNOK_clean_linker_0, # of connection points: 2
#     Edge 82, Type (0, 1), BuildingBlock: AJUNOK_clean_linker_0, # of connection points: 2
#     Edge 83, Type (0, 1), BuildingBlock: AJUNOK_clean_linker_0, # of connection points: 2
#     Edge 84, Type (0, 1), BuildingBlock: AJUNOK_clean_linker_0, # of connection points: 2
#     Edge 85, Type (0, 1), BuildingBlock: AJUNOK_clean_linker_0, # of connection points: 2
#     Edge 86, Type (0, 1), BuildingBlock: AJUNOK_clean_linker_0, # of connection points: 2
#     Edge 87, Type (0, 1), BuildingBlock: AJUNOK_clean_linker_0, # of connection points: 2
#     Edge 88, Type (0, 1), BuildingBlock: AJUNOK_clean_linker_0, # of connection points: 2
#     Edge 89, Type (0, 1), BuildingBlock: AJUNOK_clean_linker_0, # of connection points: 2
#     Edge 90, Type (0, 1), BuildingBlock: AJUNOK_clean_linker_0, # of connection points: 2
#     Edge 91, Type (0, 1), BuildingBlock: AJUNOK_clean_linker_0, # of connection points: 2
#     Edge 92, Type (0, 1), BuildingBlock: AJUNOK_clean_linker_0, # of connection points: 2
#     Edge 93, Type (0, 1), BuildingBlock: AJUNOK_clean_linker_0, # of connection points: 2
#     Edge 94, Type (0, 1), BuildingBlock: AJUNOK_clean_linker_0, # of connection points: 2
#     Edge 95, Type (0, 1), BuildingBlock: AJUNOK_clean_linker_0, # of connection points: 2
#     Edge 96, Type (0, 1), BuildingBlock: AJUNOK_clean_linker_0, # of connection points: 2
#     Edge 97, Type (0, 1), BuildingBlock: AJUNOK_clean_linker_0, # of connection points: 2
#     Edge 98, Type (0, 1), BuildingBlock: AJUNOK_clean_linker_0, # of connection points: 2
#     Edge 99, Type (0, 1), BuildingBlock: AJUNOK_clean_linker_0, # of connection points: 2
#     Edge 100, Type (0, 1), BuildingBlock: AJUNOK_clean_linker_0, # of connection points: 2
#     Edge 101, Type (0, 1), BuildingBlock: AJUNOK_clean_linker_0, # of connection points: 2
#     Edge 102, Type (0, 1), BuildingBlock: AJUNOK_clean_linker_0, # of connection points: 2
#     Edge 103, Type (0, 1), BuildingBlock: AJUNOK_clean_linker_0, # of connection points: 2
#     Edge 104, Type (0, 1), BuildingBlock: AJUNOK_clean_linker_0, # of connection points: 2
#     Edge 105, Type (0, 1), BuildingBlock: AJUNOK_clean_linker_0, # of connection points: 2
#     Edge 106, Type (0, 1), BuildingBlock: AJUNOK_clean_linker_0, # of connection points: 2
#     Edge 107, Type (0, 1), BuildingBlock: AJUNOK_clean_linker_0, # of connection points: 2
#     Edge 108, Type (0, 1), BuildingBlock: AJUNOK_clean_linker_0, # of connection points: 2
#     Edge 109, Type (0, 1), BuildingBlock: AJUNOK_clean_linker_0, # of connection points: 2
#     Edge 110, Type (0, 1), BuildingBlock: AJUNOK_clean_linker_0, # of connection points: 2
#     Edge 111, Type (0, 1), BuildingBlock: AJUNOK_clean_linker_0, # of connection points: 2
#     Edge 112, Type (0, 1), BuildingBlock: AJUNOK_clean_linker_0, # of connection points: 2
#     Edge 113, Type (0, 1), BuildingBlock: AJUNOK_clean_linker_0, # of connection points: 2
#     Edge 114, Type (0, 1), BuildingBlock: AJUNOK_clean_linker_0, # of connection points: 2
#     Edge 115, Type (0, 1), BuildingBlock: AJUNOK_clean_linker_0, # of connection points: 2
#     Edge 116, Type (0, 1), BuildingBlock: AJUNOK_clean_linker_0, # of connection points: 2
#     Edge 117, Type (0, 1), BuildingBlock: AJUNOK_clean_linker_0, # of connection points: 2
#     Edge 118, Type (0, 1), BuildingBlock: AJUNOK_clean_linker_0, # of connection points: 2
#     Edge 119, Type (0, 1), BuildingBlock: AJUNOK_clean_linker_0, # of connection points: 2
#     Edge 120, Type (0, 1), BuildingBlock: AJUNOK_clean_linker_0, # of connection points: 2
#     Edge 121, Type (0, 1), BuildingBlock: AJUNOK_clean_linker_0, # of connection points: 2
#     Edge 122, Type (0, 1), BuildingBlock: AJUNOK_clean_linker_0, # of connection points: 2
#     Edge 123, Type (0, 1), BuildingBlock: AJUNOK_clean_linker_0, # of connection points: 2
#     Edge 124, Type (0, 1), BuildingBlock: AJUNOK_clean_linker_0, # of connection points: 2
#     Edge 125, Type (0, 1), BuildingBlock: AJUNOK_clean_linker_0, # of connection points: 2
#     Edge 126, Type (0, 1), BuildingBlock: AJUNOK_clean_linker_0, # of connection points: 2
#     Edge 127, Type (0, 1), BuildingBlock: AJUNOK_clean_linker_0, # of connection points: 2
#     Edge 128, Type (0, 1), BuildingBlock: AJUNOK_clean_linker_0, # of connection points: 2
#     Edge 129, Type (0, 1), BuildingBlock: AJUNOK_clean_linker_0, # of connection points: 2
#     Edge 130, Type (0, 1), BuildingBlock: AJUNOK_clean_linker_0, # of connection points: 2
#     Edge 131, Type (0, 1), BuildingBlock: AJUNOK_clean_linker_0, # of connection points: 2
#     Edge 132, Type (0, 1), BuildingBlock: AJUNOK_clean_linker_0, # of connection points: 2
#     Edge 133, Type (0, 1), BuildingBlock: AJUNOK_clean_linker_0, # of connection points: 2
#     Edge 134, Type (0, 1), BuildingBlock: AJUNOK_clean_linker_0, # of connection points: 2
#     Edge 135, Type (0, 1), BuildingBlock: AJUNOK_clean_linker_0, # of connection points: 2
# Relax obj value: 0.393
# Max RMSD: 0.311
# Mean RMSD: 0.175
data_MOF--net-iac--node1-GALJAG_clean_sbu_0--node2-FUNLAD_clean_sbu_0--edge1-AJUNOK_clean_linker_0
_symmetry_space_group_name_H-M    P1
_symmetry_Int_Tables_number       1
_symmetry_cell_setting            triclinic
loop_
_symmetry_equiv_pos_as_xyz
'x, y, z'
_cell_length_a     40.933974
_cell_length_b     39.252882
_cell_length_c     45.586406
_cell_angle_alpha  89.379061
_cell_angle_beta   91.986293
_cell_angle_gamma 89.650005
loop_
_atom_site_label
_atom_site_type_symbol
_atom_site_fract_x
_atom_site_fract_y
_atom_site_fract_z
_atom_type_partial_charge
In0 In 0.10276 0.20403 0.16805 0.0
O1 O 0.12199 0.15525 0.14696 0.0
O2 O 0.07849 0.17849 0.12943 0.0
C3 C 0.10119 0.2567 0.1311 0.0
C4 C 0.05241 0.20615 0.20441 0.0
C5 C 0.15493 0.21386 0.20408 0.0
O6 O 0.07665 0.24782 0.14532 0.0
O7 O 0.12661 0.23872 0.13543 0.0
O8 O 0.13735 0.18764 0.20631 0.0
O9 O 0.14684 0.2336 0.18316 0.0
C10 C 0.09937 0.15514 0.12736 0.0
O11 O 0.06218 0.17849 0.19375 0.0
O12 O 0.06849 0.23195 0.19713 0.0
In13 In 0.05082 0.76564 0.40161 0.0
O14 O 0.08193 0.75252 0.36027 0.0
O15 O 0.10713 0.77273 0.39681 0.0
C16 C 0.98893 0.77073 0.37382 0.0
C17 C 0.05392 0.70505 0.43329 0.0
C18 C 0.04851 0.82365 0.43597 0.0
O19 O 0.01434 0.78335 0.36317 0.0
O20 O 0.99484 0.75533 0.39783 0.0
O21 O 0.04496 0.79378 0.4457 0.0
O22 O 0.05356 0.82459 0.40876 0.0
C23 C 0.10935 0.7614 0.37116 0.0
O24 O 0.06081 0.7337 0.44406 0.0
O25 O 0.04592 0.70666 0.40626 0.0
In26 In 0.59516 0.70589 0.64447 0.0
O27 O 0.5624 0.74141 0.61684 0.0
O28 O 0.61391 0.74341 0.61178 0.0
C29 C 0.60536 0.65724 0.60543 0.0
C30 C 0.64891 0.72533 0.6741 0.0
C31 C 0.54801 0.69867 0.68436 0.0
O32 O 0.62121 0.65757 0.62972 0.0
O33 O 0.58279 0.6791 0.60255 0.0
O34 O 0.55738 0.67391 0.66928 0.0
O35 O 0.56258 0.72607 0.67935 0.0
C36 C 0.58608 0.7549 0.60407 0.0
O37 O 0.6267 0.74591 0.66581 0.0
O38 O 0.64343 0.6944 0.66845 0.0
In39 In 0.55218 0.26997 0.90082 0.0
O40 O 0.58435 0.2561 0.86037 0.0
O41 O 0.60872 0.27689 0.89707 0.0
C42 C 0.49102 0.27186 0.87186 0.0
C43 C 0.55376 0.21028 0.93339 0.0
C44 C 0.54706 0.32901 0.93342 0.0
O45 O 0.49657 0.25891 0.89696 0.0
O46 O 0.51644 0.28399 0.86081 0.0
O47 O 0.54533 0.29934 0.94405 0.0
O48 O 0.55189 0.32926 0.90616 0.0
C49 C 0.61154 0.26505 0.87165 0.0
O50 O 0.56261 0.2386 0.9437 0.0
O51 O 0.54507 0.2119 0.90654 0.0
In52 In 0.17684 0.01009 0.25972 0.0
O53 O 0.22428 0.98039 0.25803 0.0
O54 O 0.18045 0.95221 0.26248 0.0
C55 C 0.22059 0.06031 0.26655 0.0
C56 C 0.14189 0.00329 0.20876 0.0
C57 C 0.1433 0.02069 0.30844 0.0
O58 O 0.21904 0.035 0.28359 0.0
O59 O 0.19945 0.0608 0.24559 0.0
O60 O 0.14272 0.04188 0.28736 0.0
O61 O 0.15901 0.99362 0.30396 0.0
C62 C 0.21114 0.95169 0.26058 0.0
O63 O 0.12838 0.00552 0.23313 0.0
O64 O 0.1725 0.00677 0.21007 0.0
In65 In 0.30695 0.90848 0.56226 0.0
O66 O 0.26728 0.9427 0.58255 0.0
O67 O 0.26025 0.92695 0.53848 0.0
C68 C 0.36307 0.94541 0.55813 0.0
C69 C 0.30308 0.86619 0.60992 0.0
C70 C 0.3128 0.87307 0.51214 0.0
O71 O 0.33578 0.95959 0.56203 0.0
O72 O 0.36196 0.91339 0.55844 0.0
O73 O 0.31583 0.85908 0.53715 0.0
O74 O 0.30572 0.90434 0.51261 0.0
C75 C 0.24906 0.94328 0.55957 0.0
O76 O 0.28337 0.865 0.58806 0.0
O77 O 0.32465 0.88892 0.608 0.0
In78 In 0.42519 0.0152 0.74625 0.0
O79 O 0.39385 0.0587 0.72493 0.0
O80 O 0.39614 0.05432 0.77132 0.0
C81 C 0.38993 0.95725 0.75032 0.0
C82 C 0.46317 0.02096 0.69896 0.0
C83 C 0.46435 0.00376 0.79438 0.0
O84 O 0.37865 0.9857 0.75798 0.0
O85 O 0.41706 0.95894 0.73821 0.0
O86 O 0.45778 0.0335 0.78502 0.0
O87 O 0.45267 0.98048 0.77866 0.0
C88 C 0.38516 0.07062 0.7491 0.0
O89 O 0.47066 0.03466 0.72318 0.0
O90 O 0.43621 0.00551 0.6984 0.0
In91 In 0.30226 0.13815 0.05021 0.0
O92 O 0.34342 0.10666 0.06971 0.0
O93 O 0.34245 0.11659 0.02337 0.0
C94 C 0.25901 0.0929 0.0689 0.0
C95 C 0.32261 0.19153 0.08129 0.0
C96 C 0.27265 0.15553 0.99897 0.0
O97 O 0.28911 0.08659 0.06879 0.0
O98 O 0.25157 0.1235 0.06325 0.0
O99 O 0.27208 0.17442 0.02112 0.0
O100 O 0.28926 0.12858 0.00247 0.0
C101 C 0.35632 0.1018 0.04528 0.0
O102 O 0.33673 0.18237 0.05855 0.0
O103 O 0.29816 0.17404 0.08802 0.0
In104 In 0.79785 0.40644 0.06616 0.0
O105 O 0.79154 0.35758 0.09399 0.0
O106 O 0.79924 0.4039 0.11655 0.0
C107 C 0.80177 0.37371 0.01487 0.0
C108 C 0.73865 0.43876 0.06186 0.0
C109 C 0.85685 0.43694 0.05874 0.0
O110 O 0.80539 0.35826 0.03929 0.0
O111 O 0.79493 0.40498 0.01664 0.0
O112 O 0.83011 0.45309 0.05655 0.0
O113 O 0.8539 0.40649 0.06717 0.0
C114 C 0.79441 0.37222 0.11846 0.0
O115 O 0.76201 0.4497 0.07792 0.0
O116 O 0.74496 0.41167 0.04854 0.0
In117 In 0.92231 0.52696 0.24152 0.0
O118 O 0.96205 0.54677 0.21134 0.0
O119 O 0.92727 0.51279 0.19289 0.0
C120 C 0.95731 0.52098 0.29262 0.0
C121 C 0.88668 0.58539 0.2437 0.0
C122 C 0.8934 0.46616 0.25188 0.0
O123 O 0.96888 0.51313 0.26832 0.0
O124 O 0.92911 0.53401 0.29076 0.0
O125 O 0.87703 0.49328 0.24743 0.0
O126 O 0.92368 0.46947 0.24864 0.0
C127 C 0.95256 0.53038 0.18907 0.0
O128 O 0.87354 0.55678 0.23922 0.0
O129 O 0.91746 0.58446 0.24643 0.0
In130 In 0.79074 0.60082 0.54537 0.0
O131 O 0.83222 0.56939 0.5645 0.0
O132 O 0.8319 0.58035 0.51858 0.0
C133 C 0.75281 0.54566 0.54506 0.0
C134 C 0.81023 0.63918 0.59093 0.0
C135 C 0.76729 0.64655 0.50574 0.0
O136 O 0.77238 0.55224 0.52503 0.0
O137 O 0.75106 0.5681 0.56472 0.0
O138 O 0.74843 0.63151 0.52292 0.0
O139 O 0.79693 0.63809 0.50853 0.0
C140 C 0.84639 0.56644 0.54056 0.0
O141 O 0.82166 0.64206 0.56578 0.0
O142 O 0.78719 0.61801 0.59289 0.0
In143 In 0.67027 0.50835 0.74934 0.0
O144 O 0.69814 0.46329 0.73125 0.0
O145 O 0.69805 0.46836 0.77747 0.0
C146 C 0.70915 0.56305 0.74458 0.0
C147 C 0.62752 0.50103 0.70316 0.0
C148 C 0.63952 0.52002 0.79954 0.0
O149 O 0.72013 0.53403 0.75185 0.0
O150 O 0.67898 0.56395 0.73808 0.0
O151 O 0.63856 0.49133 0.7871 0.0
O152 O 0.65534 0.5425 0.78627 0.0
C153 C 0.70786 0.45172 0.75594 0.0
O154 O 0.61809 0.50557 0.72885 0.0
O155 O 0.65807 0.50031 0.70088 0.0
In156 In 0.02014 0.80461 0.88618 0.0
O157 O 0.02595 0.82226 0.83901 0.0
O158 O 0.05764 0.84313 0.87168 0.0
C159 C 0.95903 0.78107 0.88394 0.0
C160 C 0.05264 0.74557 0.88621 0.0
C161 C 0.01554 0.83245 0.93882 0.0
O162 O 0.9831 0.76359 0.89317 0.0
O163 O 0.96561 0.81087 0.87515 0.0
O164 O 0.99908 0.84339 0.91667 0.0
O165 O 0.03563 0.80896 0.93378 0.0
C166 C 0.05052 0.84053 0.84469 0.0
O167 O 0.05943 0.76888 0.90428 0.0
O168 O 0.03228 0.75418 0.86598 0.0
In169 In 0.04412 0.26335 0.663 0.0
O170 O 0.03173 0.29205 0.61918 0.0
O171 O 0.04727 0.32187 0.65517 0.0
C172 C 0.0476 0.20236 0.6331 0.0
C173 C 0.10606 0.26215 0.69071 0.0
C174 C 0.98702 0.26708 0.69529 0.0
O175 O 0.05163 0.2311 0.62122 0.0
O176 O 0.04159 0.20423 0.66002 0.0
O177 O 0.01468 0.27687 0.70489 0.0
O178 O 0.98803 0.25559 0.66957 0.0
C179 C 0.0384 0.3215 0.62833 0.0
O180 O 0.08078 0.25029 0.7021 0.0
O181 O 0.10018 0.27497 0.66559 0.0
In182 In 0.51756 0.33315 0.4205 0.0
O183 O 0.5328 0.35081 0.37563 0.0
O184 O 0.56372 0.36377 0.41214 0.0
C185 C 0.4877 0.28346 0.39043 0.0
C186 C 0.55436 0.30001 0.46144 0.0
C187 C 0.47119 0.36849 0.44827 0.0
O188 O 0.48819 0.3139 0.38124 0.0
O189 O 0.50165 0.27817 0.41509 0.0
O190 O 0.49298 0.38295 0.43372 0.0
O191 O 0.47166 0.33656 0.44696 0.0
C192 C 0.55938 0.36374 0.38457 0.0
O193 O 0.53646 0.32503 0.46753 0.0
O194 O 0.55613 0.29442 0.43433 0.0
In195 In 0.54314 0.76709 0.16261 0.0
O196 O 0.55018 0.73824 0.11884 0.0
O197 O 0.54326 0.70795 0.15638 0.0
C198 C 0.53969 0.82862 0.13191 0.0
C199 C 0.48512 0.76791 0.19399 0.0
C200 C 0.60428 0.76542 0.19187 0.0
O201 O 0.52868 0.80104 0.12171 0.0
O202 O 0.55136 0.82545 0.1578 0.0
O203 O 0.5785 0.75451 0.20315 0.0
O204 O 0.59927 0.7767 0.16609 0.0
C205 C 0.54793 0.70844 0.12913 0.0
O206 O 0.51245 0.77754 0.20446 0.0
O207 O 0.48686 0.75802 0.16785 0.0
In208 In 0.91945 0.00331 0.8193 0.0
O209 O 0.96358 0.99546 0.79039 0.0
O210 O 0.91637 0.99947 0.76957 0.0
C211 C 0.95549 0.00417 0.87056 0.0
C212 C 0.88817 0.06459 0.81628 0.0
C213 C 0.88656 0.94384 0.81796 0.0
O214 O 0.96771 0.01106 0.84616 0.0
O215 O 0.9254 0.99772 0.86897 0.0
O216 O 0.87209 0.97231 0.81745 0.0
O217 O 0.91727 0.94553 0.81972 0.0
C218 C 0.94666 0.99511 0.76662 0.0
O219 O 0.87984 0.04099 0.83334 0.0
O220 O 0.9126 0.05771 0.80131 0.0
In221 In 0.80176 0.13022 0.50073 0.0
O222 O 0.83845 0.08992 0.48448 0.0
O223 O 0.84695 0.11109 0.52654 0.0
C224 C 0.74286 0.09936 0.50252 0.0
C225 C 0.79186 0.16226 0.55157 0.0
C226 C 0.80573 0.17147 0.45231 0.0
O227 O 0.76927 0.08245 0.50182 0.0
O228 O 0.74634 0.13111 0.49948 0.0
O229 O 0.82347 0.17551 0.47519 0.0
O230 O 0.78667 0.14639 0.45364 0.0
C231 C 0.85636 0.09053 0.5076 0.0
O232 O 0.80517 0.17733 0.53047 0.0
O233 O 0.78526 0.13148 0.54729 0.0
In234 In 0.67479 0.03001 0.321 0.0
O235 O 0.7217 0.99734 0.3264 0.0
O236 O 0.67761 0.9718 0.31542 0.0
C237 C 0.70889 0.08899 0.31763 0.0
C238 C 0.64198 0.0345 0.26865 0.0
C239 C 0.63927 0.03344 0.37021 0.0
O240 O 0.72097 0.06029 0.31173 0.0
O241 O 0.68043 0.0876 0.32738 0.0
O242 O 0.62859 0.04376 0.34544 0.0
O243 O 0.66816 0.0219 0.37041 0.0
C244 C 0.70802 0.96936 0.32058 0.0
O245 O 0.63225 0.01587 0.28925 0.0
O246 O 0.66853 0.04935 0.27411 0.0
In247 In 0.76496 0.89301 0.00659 0.0
O248 O 0.73727 0.93893 0.98947 0.0
O249 O 0.73999 0.92984 0.03581 0.0
C250 C 0.81675 0.917 0.9788 0.0
C251 C 0.78853 0.88087 0.06117 0.0
C252 C 0.72924 0.84212 0.98248 0.0
O253 O 0.79083 0.93389 0.98123 0.0
O254 O 0.81415 0.88606 0.98608 0.0
O255 O 0.75651 0.83727 0.9954 0.0
O256 O 0.72027 0.87273 0.98139 0.0
C257 C 0.72966 0.94854 0.01474 0.0
O258 O 0.75828 0.88254 0.05488 0.0
O259 O 0.8069 0.8842 0.03975 0.0
In260 In 0.29232 0.63242 0.99491 0.0
O261 O 0.28301 0.6793 0.02339 0.0
O262 O 0.29178 0.63136 0.04437 0.0
C263 C 0.29769 0.67221 0.94572 0.0
C264 C 0.34961 0.5967 0.99915 0.0
C265 C 0.23387 0.60025 0.99882 0.0
O266 O 0.31483 0.67681 0.96887 0.0
O267 O 0.27798 0.64772 0.94731 0.0
O268 O 0.26058 0.58397 0.9977 0.0
O269 O 0.23672 0.632 0.99565 0.0
C270 C 0.28486 0.66243 0.0472 0.0
O271 O 0.32829 0.591 0.97904 0.0
O272 O 0.34201 0.61998 0.01646 0.0
In273 In 0.17468 0.51844 0.81313 0.0
O274 O 0.22312 0.48815 0.81485 0.0
O275 O 0.17882 0.46078 0.80899 0.0
C276 C 0.21203 0.57422 0.80446 0.0
C277 C 0.13626 0.52792 0.76442 0.0
C278 C 0.14033 0.51328 0.86322 0.0
O279 O 0.21515 0.54709 0.79024 0.0
O280 O 0.19156 0.5725 0.82457 0.0
O281 O 0.12701 0.51722 0.83809 0.0
O282 O 0.17121 0.51294 0.86338 0.0
C283 C 0.20961 0.45957 0.81131 0.0
O284 O 0.14956 0.49962 0.77084 0.0
O285 O 0.14123 0.5508 0.78311 0.0
In286 In 0.3063 0.43491 0.52735 0.0
O287 O 0.35274 0.41266 0.54969 0.0
O288 O 0.31375 0.42868 0.57609 0.0
C289 C 0.30583 0.37666 0.49746 0.0
C290 C 0.24276 0.44851 0.52574 0.0
C291 C 0.32644 0.49866 0.51673 0.0
O292 O 0.28996 0.38087 0.52036 0.0
O293 O 0.32181 0.40239 0.48919 0.0
O294 O 0.31102 0.49003 0.53893 0.0
O295 O 0.33289 0.47446 0.49967 0.0
C296 C 0.3417 0.41526 0.57508 0.0
O297 O 0.25806 0.43852 0.54878 0.0
O298 O 0.25935 0.44994 0.50291 0.0
In299 In 0.41351 0.50123 0.31384 0.0
O300 O 0.45158 0.51683 0.28068 0.0
O301 O 0.41574 0.48109 0.26716 0.0
C302 C 0.45082 0.50756 0.36302 0.0
C303 C 0.37732 0.55878 0.31054 0.0
C304 C 0.38815 0.43975 0.32598 0.0
O305 O 0.46234 0.49677 0.33949 0.0
O306 O 0.42064 0.51444 0.36179 0.0
O307 O 0.3701 0.4658 0.32225 0.0
O308 O 0.41827 0.44541 0.3243 0.0
C309 C 0.44055 0.49789 0.26057 0.0
O310 O 0.3661 0.53068 0.30161 0.0
O311 O 0.40645 0.55765 0.32026 0.0
C312 C 0.0251 0.99263 0.98421 0.0
N313 N 0.97931 0.00153 0.06364 0.0
C314 C 0.96397 0.02411 0.0449 0.0
C315 C 0.93426 0.01519 0.03142 0.0
C316 C 0.91999 0.98414 0.03925 0.0
C317 C 0.93213 0.96688 0.06457 0.0
C318 C 0.96254 0.97601 0.07652 0.0
Zn319 Zn 0.02496 0.98896 0.05133 0.0
C320 C 0.03008 0.91608 0.03559 0.0
N321 N 0.11703 0.96265 0.01812 0.0
C322 C 0.12894 0.9812 0.99556 0.0
C323 C 0.13757 0.9467 0.038 0.0
C324 C 0.16953 0.95821 0.04144 0.0
C325 C 0.17944 0.98486 0.02319 0.0
C326 C 0.16137 0.99146 0.99703 0.0
Zn327 Zn 0.07197 0.97518 0.03202 0.0
O328 O 0.00877 0.99756 0.00689 0.0
C329 C 0.06813 0.04767 0.04852 0.0
O330 O 0.05455 0.98272 0.98752 0.0
H331 H 0.12792 0.92986 0.05444 0.0
H332 H 0.9776 0.04486 0.03556 0.0
H333 H 0.11261 0.99292 0.97925 0.0
O334 O 0.0397 0.03902 0.05571 0.0
O335 O 0.0865 0.02646 0.03608 0.0
H336 H 0.97498 0.95891 0.09203 0.0
O337 O 0.08831 0.96888 0.07646 0.0
O338 O 0.04138 0.98084 0.09557 0.0
O339 O 0.05868 0.92504 0.02938 0.0
O340 O 0.0106 0.93764 0.04611 0.0
C341 C 0.07162 0.97369 0.09902 0.0
H342 H 0.92515 0.02997 0.01265 0.0
H343 H 0.92045 0.9441 0.07262 0.0
H344 H 0.1838 0.95077 0.06092 0.0
H345 H 0.16946 0.01031 0.98137 0.0
C346 C 0.36024 0.76483 0.25768 0.0
N347 N 0.26865 0.73537 0.22155 0.0
C348 C 0.2783 0.7564 0.19958 0.0
C349 C 0.27517 0.74655 0.17041 0.0
C350 C 0.2619 0.71469 0.16357 0.0
C351 C 0.25037 0.69419 0.18647 0.0
C352 C 0.25402 0.70509 0.21555 0.0
Zn353 Zn 0.28522 0.74834 0.26276 0.0
C354 C 0.31423 0.69069 0.29644 0.0
N355 N 0.32674 0.7806 0.34436 0.0
C356 C 0.34226 0.81079 0.34854 0.0
C357 C 0.31619 0.76189 0.36745 0.0
C358 C 0.31887 0.7745 0.39588 0.0
C359 C 0.33278 0.80661 0.40066 0.0
C360 C 0.34558 0.82434 0.37672 0.0
Zn361 Zn 0.31002 0.76652 0.30357 0.0
O362 O 0.33423 0.755 0.24407 0.0
C363 C 0.28044 0.82359 0.27031 0.0
O364 O 0.35813 0.77237 0.28472 0.0
H365 H 0.3034 0.73823 0.36364 0.0
H366 H 0.29068 0.77996 0.20468 0.0
H367 H 0.35019 0.82539 0.32986 0.0
O368 O 0.27229 0.79925 0.25362 0.0
O369 O 0.29804 0.81758 0.29325 0.0
H370 H 0.24693 0.68856 0.23332 0.0
O371 O 0.26158 0.76121 0.32184 0.0
O372 O 0.23658 0.74236 0.28223 0.0
O373 O 0.32176 0.71513 0.31337 0.0
O374 O 0.29783 0.697 0.27281 0.0
C375 C 0.23513 0.75152 0.30902 0.0
H376 H 0.28525 0.76272 0.15364 0.0
H377 H 0.24006 0.66934 0.18204 0.0
H378 H 0.30801 0.76035 0.41353 0.0
H379 H 0.35657 0.84918 0.37957 0.0
C380 C 0.54118 0.0291 0.59518 0.0
N381 N 0.5722 0.95354 0.53956 0.0
C382 C 0.59334 0.94173 0.56096 0.0
C383 C 0.59778 0.90687 0.565 0.0
C384 C 0.58001 0.88439 0.54698 0.0
C385 C 0.55975 0.89716 0.52408 0.0
C386 C 0.55628 0.93222 0.52064 0.0
Zn387 Zn 0.56109 0.00314 0.53764 0.0
C388 C 0.4869 0.01037 0.53079 0.0
N389 N 0.53384 0.10632 0.53158 0.0
C390 C 0.54927 0.12605 0.55215 0.0
C391 C 0.51978 0.12011 0.50673 0.0
C392 C 0.52378 0.15461 0.5005 0.0
C393 C 0.54207 0.17475 0.5202 0.0
C394 C 0.55357 0.16073 0.5469 0.0
Zn395 Zn 0.54322 0.05571 0.53369 0.0
O396 O 0.55379 0.00324 0.58335 0.0
C397 C 0.61744 0.04743 0.53994 0.0
O398 O 0.53617 0.05597 0.57989 0.0
H399 H 0.50791 0.10387 0.49064 0.0
H400 H 0.60559 0.95932 0.57569 0.0
H401 H 0.56096 0.11443 0.57142 0.0
O402 O 0.61117 0.01596 0.54244 0.0
O403 O 0.59376 0.0685 0.53833 0.0
H404 H 0.53976 0.94238 0.50367 0.0
O405 O 0.55094 0.05479 0.48684 0.0
O406 O 0.56827 0.00233 0.49267 0.0
O407 O 0.49216 0.04229 0.52893 0.0
O408 O 0.51123 0.99017 0.53258 0.0
C409 C 0.56388 0.02826 0.47623 0.0
H410 H 0.61338 0.89757 0.58308 0.0
H411 H 0.54583 0.88024 0.50986 0.0
H412 H 0.51454 0.165 0.47969 0.0
H413 H 0.56794 0.17573 0.56236 0.0
C414 C 0.31969 0.2016 0.76377 0.0
N415 N 0.2679 0.23751 0.83411 0.0
C416 C 0.25043 0.20815 0.83285 0.0
C417 C 0.23913 0.19348 0.85855 0.0
C418 C 0.24572 0.20957 0.88539 0.0
C419 C 0.26218 0.24079 0.88571 0.0
C420 C 0.27321 0.25432 0.85968 0.0
Zn421 Zn 0.28867 0.25657 0.79835 0.0
C422 C 0.3604 0.27266 0.81094 0.0
N423 N 0.33268 0.29789 0.72388 0.0
C424 C 0.32647 0.28618 0.69632 0.0
C425 C 0.35241 0.32515 0.72886 0.0
C426 C 0.36544 0.34292 0.7055 0.0
C427 C 0.35779 0.33277 0.67673 0.0
C428 C 0.33882 0.30344 0.67221 0.0
Zn429 Zn 0.31103 0.27726 0.75908 0.0
O430 O 0.30388 0.20743 0.78665 0.0
C431 C 0.23887 0.26073 0.74747 0.0
O432 O 0.32573 0.22646 0.74661 0.0
H433 H 0.35689 0.33414 0.75095 0.0
H434 H 0.24646 0.19543 0.81213 0.0
H435 H 0.31073 0.26443 0.69298 0.0
O436 O 0.24306 0.251 0.77404 0.0
O437 O 0.26357 0.27267 0.73444 0.0
H438 H 0.28734 0.2775 0.86011 0.0
O439 O 0.29588 0.32791 0.77186 0.0
O440 O 0.273 0.30544 0.81001 0.0
O441 O 0.35763 0.28148 0.78401 0.0
O442 O 0.33486 0.26203 0.82323 0.0
C443 C 0.27873 0.33143 0.79439 0.0
H444 H 0.22686 0.16911 0.85768 0.0
H445 H 0.26862 0.2534 0.90611 0.0
H446 H 0.37978 0.36556 0.70978 0.0
H447 H 0.3317 0.29532 0.65029 0.0
C448 C 0.1154 0.99593 0.54877 0.0
N449 N 0.06716 0.04547 0.47733 0.0
C450 C 0.09717 0.05925 0.47352 0.0
C451 C 0.10927 0.06241 0.44535 0.0
C452 C 0.08993 0.05187 0.42115 0.0
C453 C 0.05795 0.04108 0.42543 0.0
C454 C 0.04708 0.03772 0.45392 0.0
Zn455 Zn 0.05537 0.02541 0.51709 0.0
C456 C 0.04407 0.9481 0.5082 0.0
N457 N 0.03118 0.97763 0.59787 0.0
C458 C 0.0492 0.98844 0.62162 0.0
C459 C 1.00202 0.96182 0.60117 0.0
C460 C 0.9887 0.95907 0.62897 0.0
C461 C 1.00541 0.9731 0.65343 0.0
C462 C 0.03671 0.98645 0.64968 0.0
Zn463 Zn 0.04361 0.99703 0.55776 0.0
O464 O 0.10546 0.01355 0.52664 0.0
C465 C 0.05461 0.07428 0.56637 0.0
O466 O 0.09458 0.98565 0.56694 0.0
H467 H 0.98797 0.95357 0.58204 0.0
H468 H 0.11281 0.06513 0.49237 0.0
H469 H 0.07209 0.0014 0.61858 0.0
O470 O 0.06006 0.07442 0.53897 0.0
O471 O 0.04826 0.04592 0.5786 0.0
H472 H 0.02367 0.02599 0.45727 0.0
O473 O 0.99297 0.00911 0.54802 0.0
O474 O 1.00542 0.03675 0.50802 0.0
O475 O 0.03891 0.94808 0.5357 0.0
O476 O 0.05052 0.9764 0.49581 0.0
C477 C 0.984 0.02678 0.52556 0.0
H478 H 0.13421 0.07063 0.44263 0.0
H479 H 0.04268 0.03229 0.40719 0.0
H480 H 0.96485 0.9477 0.63104 0.0
H481 H 0.05043 0.99759 0.66789 0.0
C482 C 0.29715 0.78295 0.71623 0.0
N483 N 0.36861 0.72947 0.76598 0.0
C484 C 0.37099 0.70951 0.74195 0.0
C485 C 0.40143 0.69805 0.73328 0.0
C486 C 0.42971 0.70691 0.7497 0.0
C487 C 0.42629 0.7257 0.7755 0.0
C488 C 0.39533 0.7369 0.78325 0.0
Zn489 Zn 0.32484 0.75254 0.77267 0.0
C490 C 0.33216 0.82719 0.78192 0.0
N491 N 0.23291 0.80176 0.78364 0.0
C492 C 0.21067 0.80271 0.76071 0.0
C493 C 0.22618 0.81632 0.80969 0.0
C494 C 0.19545 0.83058 0.81398 0.0
C495 C 0.17165 0.83096 0.79094 0.0
C496 C 0.18024 0.81817 0.76362 0.0
Zn497 Zn 0.27709 0.7781 0.77866 0.0
O498 O 0.32123 0.76552 0.72658 0.0
C499 C 0.26954 0.70345 0.76994 0.0
O500 O 0.27415 0.79033 0.73299 0.0
H501 H 0.24429 0.8161 0.8275 0.0
H502 H 0.34941 0.70407 0.72848 0.0
H503 H 0.21604 0.79094 0.74013 0.0
O504 O 0.30029 0.7052 0.76711 0.0
O505 O 0.25321 0.73081 0.77288 0.0
H506 H 0.39283 0.75289 0.80221 0.0
O507 O 0.28099 0.76479 0.82454 0.0
O508 O 0.32874 0.74056 0.81868 0.0
O509 O 0.30139 0.82544 0.78468 0.0
O510 O 0.34831 0.79985 0.77849 0.0
C511 C 0.30534 0.74788 0.83522 0.0
H512 H 0.40291 0.68442 0.71285 0.0
H513 H 0.44752 0.73306 0.78877 0.0
H514 H 0.19006 0.83991 0.83556 0.0
H515 H 0.16335 0.81907 0.74484 0.0
C516 C 0.5407 0.95694 0.06252 0.0
N517 N 0.5572 0.05452 0.09616 0.0
C518 C 0.53606 0.04521 0.11718 0.0
C519 C 0.54531 0.04723 0.14682 0.0
C520 C 0.57714 0.05744 0.15486 0.0
C521 C 0.59725 0.06996 0.13284 0.0
C522 C 0.58654 0.06874 0.1035 0.0
Zn523 Zn 0.54943 0.03545 0.05498 0.0
C524 C 0.60933 0.01302 0.02937 0.0
N525 N 0.532 0.98852 0.97225 0.0
C526 C 0.50407 0.97228 0.96359 0.0
C527 C 0.55372 0.99944 0.95227 0.0
C528 C 0.54683 0.99626 0.92236 0.0
C529 C 0.51712 0.98207 0.91274 0.0
C530 C 0.49606 0.96882 0.93367 0.0
Zn531 Zn 0.5387 0.00722 0.01377 0.0
O532 O 0.54666 0.98512 0.07523 0.0
C533 C 0.47878 0.03173 0.03868 0.0
O534 O 0.53518 0.95737 0.03477 0.0
H535 H 0.57534 0.01318 0.95926 0.0
H536 H 0.51296 0.03365 0.11111 0.0
H537 H 0.4869 0.96423 0.97973 0.0
O538 O 0.4993 0.04232 0.0579 0.0
O539 O 0.4885 0.01502 0.01697 0.0
H540 H 0.60291 0.07644 0.08659 0.0
O541 O 0.54215 0.05677 0.99372 0.0
O542 O 0.55259 0.08535 0.03382 0.0
O543 O 0.58898 1.00057 0.01094 0.0
O544 O 0.59934 0.02888 0.05129 0.0
C545 C 0.54789 0.08514 0.00599 0.0
H546 H 0.52834 0.03895 0.16308 0.0
H547 H 0.62193 0.07837 0.13791 0.0
H548 H 0.56367 0.00674 0.90687 0.0
H549 H 0.47262 0.95818 0.92708 0.0
C550 C 0.30911 0.16996 0.29461 0.0
N551 N 0.35458 0.24546 0.24491 0.0
C552 C 0.37051 0.21966 0.23175 0.0
C553 C 0.37644 0.2218 0.20189 0.0
C554 C 0.36586 0.2508 0.18578 0.0
C555 C 0.35308 0.27857 0.2007 0.0
C556 C 0.34724 0.27519 0.23043 0.0
Zn557 Zn 0.3362 0.23872 0.28502 0.0
C558 C 0.26406 0.2484 0.28117 0.0
N559 N 0.29406 0.23145 0.36845 0.0
C560 C 0.31306 0.21841 0.39105 0.0
C561 C 0.26964 0.25416 0.37342 0.0
C562 C 0.26725 0.26878 0.40088 0.0
C563 C 0.29054 0.26032 0.42293 0.0
C564 C 0.31223 0.23326 0.41872 0.0
Zn565 Zn 0.31263 0.23347 0.32738 0.0
O566 O 0.32267 0.18853 0.2756 0.0
C567 C 0.38517 0.22094 0.32968 0.0
O568 O 0.30532 0.18114 0.3204 0.0
H569 H 0.25501 0.26483 0.3554 0.0
H570 H 0.37622 0.19639 0.24382 0.0
H571 H 0.33181 0.19978 0.38689 0.0
O572 O 0.38203 0.22326 0.30197 0.0
O573 O 0.3602 0.22481 0.34506 0.0
H574 H 0.33442 0.29535 0.24127 0.0
O575 O 0.31946 0.28728 0.33399 0.0
O576 O 0.34894 0.28852 0.29489 0.0
O577 O 0.26616 0.24075 0.30821 0.0
O578 O 0.28992 0.25345 0.26725 0.0
C579 C 0.33789 0.30338 0.31695 0.0
H580 H 0.38582 0.19953 0.19105 0.0
H581 H 0.34447 0.30117 0.18889 0.0
H582 H 0.25042 0.28987 0.40355 0.0
H583 H 0.33059 0.22633 0.43545 0.0
C584 C 0.6095 0.5005 0.04369 0.0
N585 N 0.56435 0.54964 0.9699 0.0
C586 C 0.59515 0.56052 0.96466 0.0
C587 C 0.60649 0.56054 0.93602 0.0
C588 C 0.58583 0.54922 0.91295 0.0
C589 C 0.55332 0.54157 0.91862 0.0
C590 C 0.54312 0.54163 0.94738 0.0
Zn591 Zn 0.55177 0.53185 0.01036 0.0
C592 C 0.5376 0.45524 0.00254 0.0
N593 N 0.52372 0.48701 0.0911 0.0
C594 C 0.54382 0.49413 0.11463 0.0
C595 C 0.49301 0.47492 0.09478 0.0
C596 C 0.48044 0.47274 0.12287 0.0
C597 C 0.49984 0.48279 0.14726 0.0
C598 C 0.53249 0.49164 0.14301 0.0
Zn599 Zn 0.53715 0.50555 0.05118 0.0
O600 O 0.60176 0.51742 0.02049 0.0
C601 C 0.55181 0.58225 0.05907 0.0
O602 O 0.58727 0.49249 0.06123 0.0
H603 H 0.47738 0.46936 0.07585 0.0
H604 H 0.61178 0.56643 0.98281 0.0
H605 H 0.56794 0.50424 0.11143 0.0
O606 O 0.55829 0.58117 0.03185 0.0
O607 O 0.5433 0.55473 0.07166 0.0
H608 H 0.5191 0.53205 0.95171 0.0
O609 O 0.48702 0.51924 0.04063 0.0
O610 O 0.50173 0.54544 1.00068 0.0
O611 O 0.53139 0.45615 0.0298 0.0
O612 O 0.54532 0.48293 0.9899 0.0
C613 C 0.47932 0.53655 0.01767 0.0
H614 H 0.63177 0.56678 0.93231 0.0
H615 H 0.53659 0.53325 0.90124 0.0
H616 H 0.45518 0.46548 0.12523 0.0
H617 H 0.54861 0.49847 0.16133 0.0
C618 C 0.79079 0.30002 0.23122 0.0
N619 N 0.86602 0.24309 0.27454 0.0
C620 C 0.86913 0.22574 0.24911 0.0
C621 C 0.89996 0.21493 0.24064 0.0
C622 C 0.92754 0.22203 0.25867 0.0
C623 C 0.92321 0.23759 0.28578 0.0
C624 C 0.89215 0.24836 0.29316 0.0
Zn625 Zn 0.82331 0.2663 0.28423 0.0
C626 C 0.8344 0.34058 0.29404 0.0
N627 N 0.73594 0.31864 0.30602 0.0
C628 C 0.70989 0.32108 0.28673 0.0
C629 C 0.73481 0.33252 0.33318 0.0
C630 C 0.70611 0.34744 0.34262 0.0
C631 C 0.67848 0.34977 0.32348 0.0
C632 C 0.68105 0.33713 0.29487 0.0
Zn633 Zn 0.77785 0.29352 0.2952 0.0
O634 O 0.81462 0.28036 0.23856 0.0
C635 C 0.76737 0.2189 0.285 0.0
O636 O 0.77052 0.30822 0.25045 0.0
H637 H 0.75592 0.33121 0.34805 0.0
H638 H 0.84796 0.22176 0.23471 0.0
H639 H 0.71114 0.31004 0.26519 0.0
O640 O 0.79763 0.22035 0.2797 0.0
O641 O 0.75191 0.24647 0.28988 0.0
H642 H 0.88922 0.2624 0.31316 0.0
O643 O 0.78571 0.27781 0.33988 0.0
O644 O 0.83143 0.25211 0.32973 0.0
O645 O 0.80433 0.33999 0.30019 0.0
O646 O 0.84875 0.3127 0.28869 0.0
C647 C 0.80978 0.25907 0.34808 0.0
H648 H 0.90243 0.20297 0.21953 0.0
H649 H 0.94386 0.2429 0.3005 0.0
H650 H 0.70538 0.35547 0.36519 0.0
H651 H 0.66063 0.33857 0.27915 0.0
C652 C 0.03853 0.44678 0.55527 0.0
N653 N 0.05732 0.54261 0.59031 0.0
C654 C 0.03734 0.53048 0.61122 0.0
C655 C 0.04613 0.53333 0.64082 0.0
C656 C 0.07569 0.54889 0.64897 0.0
C657 C 0.0946 0.56372 0.62718 0.0
C658 C 0.08488 0.56022 0.59767 0.0
Zn659 Zn 0.04942 0.52441 0.549 0.0
C660 C 0.1099 0.49798 0.52473 0.0
N661 N 0.03241 0.48006 0.46534 0.0
C662 C 1.00347 0.46537 0.45739 0.0
C663 C 0.05321 0.49153 0.44481 0.0
C664 C 0.04382 0.49165 0.41516 0.0
C665 C 0.0127 0.47995 0.40663 0.0
C666 C 0.99299 0.46518 0.42789 0.0
Zn667 Zn 0.04028 0.49784 0.50686 0.0
O668 O 0.04455 0.47455 0.56845 0.0
C669 C 0.97964 0.52259 0.53233 0.0
O670 O 0.0346 0.4477 0.52735 0.0
H671 H 0.07577 0.50382 0.45152 0.0
H672 H 0.01582 0.51609 0.60499 0.0
H673 H 0.98721 0.4566 0.47404 0.0
O674 O 0.99964 0.5329 0.55206 0.0
O675 O 0.99007 0.50744 0.51006 0.0
H676 H 0.10057 0.5693 0.58069 0.0
O677 O 0.04591 0.54832 0.48731 0.0
O678 O 0.05449 0.57429 0.52902 0.0
O679 O 0.09041 0.48802 0.50443 0.0
O680 O 0.09912 0.51505 0.54579 0.0
C681 C 0.05137 0.57587 0.50111 0.0
H682 H 0.03101 0.52162 0.65712 0.0
H683 H 0.1178 0.57556 0.63275 0.0
H684 H 0.05946 0.50374 0.3995 0.0
H685 H 0.96883 0.45582 0.422 0.0
C686 C 0.817 0.71145 0.26783 0.0
N687 N 0.76663 0.74059 0.34213 0.0
C688 C 0.787 0.71728 0.35549 0.0
C689 C 0.78041 0.70462 0.38315 0.0
C690 C 0.75266 0.71604 0.3973 0.0
C691 C 0.73102 0.7388 0.38271 0.0
C692 C 0.73862 0.75097 0.35477 0.0
Zn693 Zn 0.78319 0.76214 0.30482 0.0
C694 C 0.85687 0.78135 0.31575 0.0
N695 N 0.82296 0.80823 0.23034 0.0
C696 C 0.818 0.78999 0.2054 0.0
C697 C 0.83382 0.84094 0.22952 0.0
C698 C 0.83722 0.85749 0.20255 0.0
C699 C 0.83022 0.83962 0.1767 0.0
C700 C 0.82201 0.80517 0.17819 0.0
Zn701 Zn 0.80641 0.78726 0.2676 0.0
O702 O 0.79898 0.71267 0.28996 0.0
C703 C 0.73321 0.76723 0.25603 0.0
O704 O 0.82306 0.73891 0.25427 0.0
H705 H 0.8376 0.85491 0.24964 0.0
H706 H 0.80923 0.70954 0.34525 0.0
H707 H 0.80847 0.76443 0.20637 0.0
O708 O 0.73595 0.75592 0.28232 0.0
O709 O 0.75845 0.78041 0.2449 0.0
H710 H 0.72287 0.76965 0.34372 0.0
O711 O 0.7903 0.83589 0.28155 0.0
O712 O 0.76698 0.8119 0.31894 0.0
O713 O 0.85362 0.79368 0.28984 0.0
O714 O 0.83166 0.76833 0.32711 0.0
C715 C 0.77333 0.83865 0.30419 0.0
H716 H 0.79753 0.68696 0.39391 0.0
H717 H 0.70945 0.7481 0.39325 0.0
H718 H 0.84312 0.88435 0.20187 0.0
H719 H 0.81573 0.79106 0.1585 0.0
C720 C 0.86329 0.26883 0.76051 0.0
N721 N 0.7729 0.23809 0.72441 0.0
C722 C 0.77894 0.26082 0.70249 0.0
C723 C 0.77627 0.25125 0.67325 0.0
C724 C 0.76839 0.21758 0.66626 0.0
C725 C 0.7607 0.19494 0.68913 0.0
C726 C 0.76282 0.20591 0.71823 0.0
Zn727 Zn 0.78911 0.25151 0.76567 0.0
C728 C 0.81993 0.19378 0.79911 0.0
N729 N 0.82924 0.28361 0.8478 0.0
C730 C 0.84261 0.31485 0.85225 0.0
C731 C 0.81904 0.26425 0.87065 0.0
C732 C 0.81925 0.27736 0.89892 0.0
C733 C 0.82994 0.31074 0.90366 0.0
C734 C 0.8433 0.32897 0.88028 0.0
Zn735 Zn 0.81318 0.26923 0.80696 0.0
O736 O 0.83719 0.2594 0.7469 0.0
C737 C 0.78241 0.32669 0.77354 0.0
O738 O 0.86144 0.27593 0.78772 0.0
H739 H 0.80797 0.23973 0.86663 0.0
H740 H 0.78821 0.28582 0.70751 0.0
H741 H 0.85041 0.32987 0.83376 0.0
O742 O 0.775 0.30226 0.75671 0.0
O743 O 0.79968 0.32069 0.79671 0.0
H744 H 0.75863 0.18801 0.73589 0.0
O745 O 0.76491 0.263 0.8251 0.0
O746 O 0.74057 0.24421 0.78516 0.0
O747 O 0.8263 0.21761 0.81701 0.0
O748 O 0.80384 0.20049 0.77538 0.0
C749 C 0.73869 0.25323 0.81195 0.0
H750 H 0.78218 0.26959 0.65634 0.0
H751 H 0.75522 0.16849 0.68485 0.0
H752 H 0.80869 0.26257 0.91637 0.0
H753 H 0.85235 0.35461 0.8833 0.0
C754 C 0.77931 0.68325 0.78112 0.0
N755 N 0.85658 0.73381 0.74662 0.0
C756 C 0.86948 0.70182 0.74629 0.0
C757 C 0.87489 0.68638 0.71952 0.0
C758 C 0.86712 0.70448 0.69347 0.0
C759 C 0.86039 0.7395 0.6949 0.0
C760 C 0.85538 0.75392 0.72215 0.0
Zn761 Zn 0.82152 0.74247 0.77595 0.0
C762 C 0.75954 0.76492 0.74474 0.0
N763 N 0.74425 0.76028 0.83354 0.0
C764 C 0.73457 0.7329 0.84963 0.0
C765 C 0.73231 0.79197 0.83849 0.0
C766 C 0.71365 0.79775 0.86291 0.0
C767 C 0.7067 0.77045 0.88195 0.0
C768 C 0.71468 0.73735 0.87344 0.0
Zn769 Zn 0.78069 0.75418 0.80478 0.0
O770 O 0.80618 0.69182 0.77048 0.0
C771 C 0.8422 0.73149 0.83639 0.0
O772 O 0.7645 0.70412 0.79706 0.0
H773 H 0.73937 0.81327 0.82496 0.0
H774 H 0.87032 0.6864 0.76611 0.0
H775 H 0.74406 0.70775 0.84558 0.0
O776 O 0.85264 0.72891 0.81063 0.0
O777 O 0.8125 0.73933 0.84008 0.0
H778 H 0.84511 0.77933 0.72304 0.0
O779 O 0.79745 0.80481 0.81086 0.0
O780 O 0.83692 0.79319 0.78108 0.0
O781 O 0.74956 0.76944 0.7704 0.0
O782 O 0.78882 0.75563 0.74118 0.0
C783 C 0.82288 0.81404 0.79775 0.0
H784 H 0.88054 0.65938 0.71914 0.0
H785 H 0.85417 0.75431 0.67529 0.0
H786 H 0.70784 0.82384 0.86832 0.0
H787 H 0.70863 0.71545 0.88679 0.0
C788 C 0.51764 0.51124 0.47648 0.0
N789 N 0.48176 0.55712 0.55019 0.0
C790 C 0.47816 0.58364 0.53081 0.0
C791 C 0.44766 0.59917 0.52635 0.0
C792 C 0.42131 0.58681 0.54205 0.0
C793 C 0.4279 0.56528 0.56649 0.0
C794 C 0.45852 0.54989 0.56975 0.0
Zn795 Zn 0.51552 0.52093 0.54184 0.0
C796 C 0.48778 0.45227 0.53532 0.0
N797 N 0.58895 0.44935 0.51924 0.0
C798 C 0.60754 0.45909 0.49652 0.0
C799 C 0.6019 0.42972 0.54161 0.0
C800 C 0.63584 0.42727 0.54561 0.0
C801 C 0.65562 0.44501 0.52614 0.0
C802 C 0.64137 0.45701 0.49949 0.0
Zn803 Zn 0.55288 0.4835 0.52871 0.0
O804 O 0.50407 0.52753 0.49663 0.0
C805 C 0.57955 0.55256 0.53375 0.0
O806 O 0.54025 0.49012 0.48342 0.0
H807 H 0.58656 0.42094 0.55894 0.0
H808 H 0.49737 0.58943 0.51587 0.0
H809 H 0.59711 0.47425 0.47862 0.0
O810 O 0.55019 0.55823 0.54009 0.0
O811 O 0.58858 0.52265 0.52755 0.0
H812 H 0.46212 0.52895 0.58517 0.0
O813 O 0.56454 0.47783 0.57374 0.0
O814 O 0.52765 0.51428 0.58757 0.0
O815 O 0.51756 0.4455 0.53051 0.0
O816 O 0.4796 0.48234 0.54223 0.0
C817 C 0.55124 0.49405 0.59412 0.0
H818 H 0.44357 0.61601 0.50758 0.0
H819 H 0.40833 0.55531 0.57942 0.0
H820 H 0.64609 0.41618 0.56578 0.0
H821 H 0.65564 0.47021 0.4834 0.0
C822 C 0.02696 0.52973 0.08197 0.0
N823 N 0.07363 0.4459 0.04529 0.0
C824 C 0.09308 0.44326 0.06998 0.0
C825 C 0.10265 0.41126 0.08068 0.0
C826 C 0.09187 0.3822 0.06569 0.0
C827 C 0.07313 0.38574 0.03958 0.0
C828 C 0.06425 0.41812 0.02967 0.0
Zn829 Zn 0.05606 0.49105 0.03165 0.0
C830 C 0.98311 0.48756 0.0209 0.0
N831 N 0.0176 0.58463 0.002 0.0
C832 C 0.03211 0.61401 0.01073 0.0
C833 C 1.00299 0.58172 0.97493 0.0
C834 C 0.00856 0.60613 0.95347 0.0
C835 C 0.02769 0.63461 0.96061 0.0
C836 C 0.03692 0.63991 0.99023 0.0
Zn837 Zn 0.03461 0.54023 0.01886 0.0
O838 O 0.04222 0.50277 0.07513 0.0
C839 C 0.10743 0.54386 0.02994 0.0
O840 O 0.02212 0.5531 0.06268 0.0
H841 H 0.99156 0.55805 0.96854 0.0
H842 H 0.10013 0.46589 0.08189 0.0
H843 H 0.04339 0.61571 0.03247 0.0
O844 O 0.10355 0.51282 0.03709 0.0
O845 O 0.08226 0.56182 0.02338 0.0
H846 H 0.04887 0.42103 0.01003 0.0
O847 O 0.04772 0.52731 0.97479 0.0
O848 O 0.07 0.47905 0.98869 0.0
O849 O 0.98718 0.51878 0.01458 0.0
O850 O 0.00826 0.46907 0.02636 0.0
C851 C 0.06436 0.50115 0.96872 0.0
H852 H 0.11667 0.40917 0.10122 0.0
H853 H 0.06438 0.36364 0.0277 0.0
H854 H 1.00039 0.60108 0.93112 0.0
H855 H 0.04974 0.66264 0.99715 0.0
C856 C 0.07122 0.1338 0.08217 0.0
C857 C 0.09623 0.12962 0.10397 0.0
C858 C 0.06409 0.10815 0.06202 0.0
C859 C 0.0821 0.07773 0.06264 0.0
H860 H 0.05588 0.15641 0.08149 0.0
H861 H 0.04319 0.11131 0.04696 0.0
S862 S 0.15181 0.05511 0.11347 0.0
N863 N 0.14067 0.09367 0.12346 0.0
N864 N 0.12696 0.04509 0.08563 0.0
C865 C 0.10846 0.07393 0.08308 0.0
C866 C 0.11571 0.10007 0.1037 0.0
C867 C 0.14286 0.74692 0.32629 0.0
C868 C 0.14151 0.75849 0.35554 0.0
C869 C 0.17283 0.74426 0.31152 0.0
C870 C 0.20316 0.75289 0.32523 0.0
H871 H 0.12047 0.73999 0.31454 0.0
H872 H 0.17211 0.73558 0.28905 0.0
S873 S 0.21363 0.784 0.40192 0.0
N874 N 0.17386 0.77825 0.39759 0.0
N875 N 0.22933 0.77323 0.37047 0.0
C876 C 0.20207 0.7642 0.3546 0.0
C877 C 0.17165 0.76699 0.3695 0.0
C878 C 0.61064 0.79863 0.57232 0.0
C879 C 0.58242 0.78419 0.58393 0.0
C880 C 0.60932 0.8303 0.55819 0.0
C881 C 0.57969 0.84817 0.5549 0.0
H882 H 0.63431 0.78642 0.57564 0.0
H883 H 0.63185 0.84171 0.5512 0.0
S884 S 0.49824 0.81964 0.57788 0.0
N885 N 0.52344 0.78853 0.58849 0.0
N886 N 0.52106 0.84835 0.56175 0.0
C887 C 0.55086 0.83288 0.56419 0.0
C888 C 0.55219 0.80069 0.57877 0.0
C889 C 0.45254 0.28569 0.82812 0.0
C890 C 0.45744 0.27254 0.85689 0.0
C891 C 0.42132 0.28601 0.81368 0.0
C892 C 0.39325 0.27334 0.82729 0.0
H893 H 0.47308 0.29566 0.81647 0.0
H894 H 0.41927 0.29616 0.79151 0.0
S895 S 0.39236 0.23643 0.90275 0.0
N896 N 0.43096 0.24673 0.89851 0.0
N897 N 0.37291 0.24746 0.87174 0.0
C898 C 0.3978 0.26041 0.85619 0.0
C899 C 0.42957 0.25997 0.87082 0.0
C900 C 0.05148 0.88762 0.44282 0.0
C901 C 0.04676 0.85488 0.4549 0.0
C902 C 0.05017 0.91723 0.46008 0.0
C903 C 0.04401 0.9158 0.49042 0.0
H904 H 0.05639 0.89049 0.41973 0.0
H905 H 0.05425 0.94155 0.44941 0.0
S906 S 0.02957 0.8364 0.53305 0.0
N907 N 0.03537 0.823 0.49941 0.0
N908 N 0.0329 0.87828 0.53161 0.0
C909 C 0.03903 0.88321 0.50278 0.0
C910 C 0.04041 0.85299 0.48516 0.0
C911 C 0.51246 0.72704 0.71996 0.0
C912 C 0.52045 0.69744 0.70454 0.0
C913 C 0.48405 0.72903 0.73599 0.0
C914 C 0.46242 0.70143 0.73737 0.0
H915 H 0.52756 0.74957 0.71871 0.0
H916 H 0.47813 0.7531 0.74597 0.0
S917 S 0.47435 0.61638 0.70458 0.0
N918 N 0.50611 0.63865 0.69411 0.0
N919 N 0.45272 0.64223 0.72477 0.0
C920 C 0.47114 0.67087 0.7237 0.0
C921 C 0.50017 0.66885 0.70722 0.0
C922 C 0.56295 0.17771 0.98141 0.0
C923 C 0.55247 0.17816 0.95155 0.0
C924 C 0.56122 0.14788 0.99896 0.0
C925 C 0.549 0.11708 0.98746 0.0
H926 H 0.57257 0.20063 0.99139 0.0
H927 H 0.56976 0.14897 0.02168 0.0
S928 S 0.51695 0.10497 0.91088 0.0
N929 N 0.52854 0.14513 0.91163 0.0
N930 N 0.52524 0.08958 0.94413 0.0
C931 C 0.53819 0.11737 0.95765 0.0
C932 C 0.53994 0.14766 0.93988 0.0
C933 C 0.20159 0.25085 0.21875 0.0
C934 C 0.18182 0.22258 0.22491 0.0
C935 C 0.22714 0.2604 0.23798 0.0
C936 C 0.23342 0.24246 0.26435 0.0
H937 H 0.19774 0.26546 0.19861 0.0
H938 H 0.24256 0.28147 0.23186 0.0
S939 S 0.18927 0.16616 0.29057 0.0
N940 N 0.17049 0.17651 0.25907 0.0
N941 N 0.21831 0.19472 0.29557 0.0
C942 C 0.2135 0.2145 0.27111 0.0
C943 C 0.18778 0.20443 0.25126 0.0
C944 C 0.08991 0.99976 0.17804 0.0
C945 C 0.12383 0.9942 0.18128 0.0
C946 C 0.07271 0.99141 0.15189 0.0
C947 C 0.08874 0.97674 0.12819 0.0
H948 H 0.0767 0.01142 0.19554 0.0
H949 H 0.04688 0.99755 0.14995 0.0
S950 S 0.17688 0.95333 0.12728 0.0
N951 N 0.1724 0.97084 0.15961 0.0
N952 N 0.14026 0.95442 0.11101 0.0
C953 C 0.12243 0.96953 0.1319 0.0
C954 C 0.13993 0.9785 0.15826 0.0
C955 C 0.31153 0.87217 0.45746 0.0
C956 C 0.3184 0.85517 0.48431 0.0
C957 C 0.31714 0.85655 0.43064 0.0
C958 C 0.32995 0.82328 0.42955 0.0
H959 H 0.30145 0.89778 0.45705 0.0
H960 H 0.31061 0.87039 0.41059 0.0
S961 S 0.35395 0.76833 0.49353 0.0
N962 N 0.33979 0.80353 0.50817 0.0
N963 N 0.35068 0.77427 0.45762 0.0
C964 C 0.33741 0.8061 0.4562 0.0
C965 C 0.33158 0.822 0.48361 0.0
C966 C 0.50575 0.04959 0.66903 0.0
C967 C 0.48466 0.02191 0.67345 0.0
C968 C 0.52502 0.05152 0.64407 0.0
C969 C 0.52479 0.02517 0.6234 0.0
H970 H 0.50654 0.07043 0.68441 0.0
H971 H 0.53985 0.0739 0.64073 0.0
S972 S 0.47439 0.94692 0.62518 0.0
N973 N 0.46491 0.9676 0.6551 0.0
N974 N 0.50183 0.97061 0.60903 0.0
C975 C 0.50453 0.99695 0.62808 0.0
C976 C 0.48429 0.99546 0.65291 0.0
C977 C 0.26561 0.14686 0.94536 0.0
C978 C 0.25781 0.16549 0.97034 0.0
C979 C 0.25795 0.15959 0.91726 0.0
C980 C 0.24214 0.19126 0.91338 0.0
H981 H 0.27988 0.12354 0.94738 0.0
H982 H 0.2672 0.14611 0.89864 0.0
S983 S 0.20903 0.24538 0.97153 0.0
N984 N 0.22794 0.21379 0.98948 0.0
N985 N 0.2134 0.23768 0.93633 0.0
C986 C 0.23069 0.20801 0.93807 0.0
C987 C 0.23861 0.19514 0.96673 0.0
C988 C 0.1064 0.05474 0.3398 0.0
C989 C 0.12947 0.02828 0.33717 0.0
C990 C 0.09388 0.06288 0.36717 0.0
C991 C 0.10477 0.04542 0.39275 0.0
H992 H 0.09772 0.06901 0.32057 0.0
H993 H 0.07561 0.08286 0.36837 0.0
S994 S 0.16471 0.97435 0.39796 0.0
N995 N 0.16247 0.98463 0.36274 0.0
N996 N 0.13932 1.0005 0.414 0.0
C997 C 0.12791 0.01919 0.39049 0.0
C998 C 0.14019 0.01047 0.36272 0.0
C999 C 0.32964 0.83414 0.65245 0.0
C1000 C 0.30119 0.84272 0.63567 0.0
C1001 C 0.32836 0.8128 0.67738 0.0
C1002 C 0.29846 0.79988 0.68695 0.0
H1003 H 0.35309 0.84418 0.64639 0.0
H1004 H 0.35079 0.80774 0.69004 0.0
S1005 S 0.21703 0.81415 0.65051 0.0
N1006 N 0.24239 0.83553 0.62985 0.0
N1007 N 0.23985 0.79666 0.67728 0.0
C1008 C 0.26993 0.80786 0.67013 0.0
C1009 C 0.27133 0.82891 0.64435 0.0
C1010 C 0.4955 0.02322 0.83902 0.0
C1011 C 0.48096 0.99656 0.8231 0.0
C1012 C 0.50815 0.0178 0.8676 0.0
C1013 C 0.5064 0.98568 0.88149 0.0
H1014 H 0.49646 0.04864 0.82964 0.0
H1015 H 0.51841 0.03929 0.87929 0.0
S1016 S 0.47287 0.90681 0.84862 0.0
N1017 N 0.46722 0.93619 0.82271 0.0
N1018 N 0.49084 0.92638 0.87666 0.0
C1019 C 0.49288 0.95854 0.86554 0.0
C1020 C 0.48028 0.96389 0.83627 0.0
C1021 C 0.31478 0.23554 0.11837 0.0
C1022 C 0.33626 0.21684 0.10143 0.0
C1023 C 0.32589 0.25095 0.14418 0.0
C1024 C 0.35871 0.24747 0.15407 0.0
H1025 H 0.28877 0.23579 0.113 0.0
H1026 H 0.30783 0.26221 0.15804 0.0
S1027 S 0.4257 0.20699 0.1142 0.0
N1028 N 0.39261 0.20048 0.09328 0.0
N1029 N 0.41351 0.22908 0.14252 0.0
C1030 C 0.38111 0.23235 0.13549 0.0
C1031 C 0.36983 0.21707 0.10887 0.0
C1032 C 0.24628 0.03125 0.06585 0.0
C1033 C 0.23537 0.06535 0.06412 0.0
C1034 C 0.22833 0.00518 0.05234 0.0
C1035 C 0.1991 0.01248 0.03647 0.0
H1036 H 0.26978 0.02491 0.07625 0.0
H1037 H 0.23783 0.97937 0.05357 0.0
S1038 S 0.15788 0.09713 0.02884 0.0
N1039 N 0.19182 0.10444 0.04816 0.0
N1040 N 0.15806 0.0558 0.0228 0.0
C1041 C 0.18686 0.0462 0.03635 0.0
C1042 C 0.2049 0.07252 0.05036 0.0
C1043 C 0.69144 0.45871 0.02973 0.0
C1044 C 0.70667 0.45656 0.05786 0.0
C1045 C 0.66066 0.47434 0.02522 0.0
C1046 C 0.64338 0.4874 0.04883 0.0
H1047 H 0.70347 0.44824 0.01101 0.0
H1048 H 0.6498 0.47512 0.0032 0.0
S1049 S 0.67245 0.48808 0.1268 0.0
N1050 N 0.70255 0.46959 0.10955 0.0
N1051 N 0.64396 0.49739 0.10135 0.0
C1052 C 0.65834 0.48543 0.07707 0.0
C1053 C 0.69018 0.47047 0.08151 0.0
C1054 C 0.84553 0.43254 0.26924 0.0
C1055 C 0.87897 0.434 0.26308 0.0
C1056 C 0.83168 0.40289 0.28097 0.0
C1057 C 0.85066 0.37338 0.28699 0.0
H1058 H 0.8298 0.45441 0.26481 0.0
H1059 H 0.80561 0.40281 0.28435 0.0
S1060 S 0.93986 0.36437 0.27628 0.0
N1061 N 0.93102 0.40357 0.26503 0.0
N1062 N 0.90508 0.3481 0.28693 0.0
C1063 C 0.88431 0.3748 0.28159 0.0
C1064 C 0.8984 0.40495 0.26965 0.0
C1065 C 0.89252 0.54567 0.51147 0.0
C1066 C 0.87889 0.55081 0.53896 0.0
C1067 C 0.92493 0.5349 0.50945 0.0
C1068 C 0.94472 0.52949 0.53486 0.0
H1069 H 0.87838 0.55092 0.49138 0.0
H1070 H 0.93494 0.5323 0.48788 0.0
S1071 S 0.9197 0.53573 0.61202 0.0
N1072 N 0.8868 0.5468 0.59214 0.0
N1073 N 0.94791 0.52694 0.5882 0.0
C1074 C 0.93097 0.5329 0.56245 0.0
C1075 C 0.89792 0.54345 0.56454 0.0
C1076 C 0.26363 0.087 0.29839 0.0
C1077 C 0.24518 0.08713 0.27171 0.0
C1078 C 0.28579 0.11298 0.30509 0.0
C1079 C 0.29088 0.13961 0.28507 0.0
H1080 H 0.26022 0.06724 0.31476 0.0
H1081 H 0.29838 0.11272 0.3264 0.0
S1082 S 0.24933 0.1515 0.21186 0.0
N1083 N 0.23387 0.11592 0.22495 0.0
N1084 N 0.27606 0.16452 0.23721 0.0
C1085 C 0.2735 0.13946 0.25782 0.0
C1086 C 0.25046 0.11329 0.25123 0.0
C1087 C 0.42107 0.94458 0.54308 0.0
C1088 C 0.39365 0.96379 0.55094 0.0
C1089 C 0.4502 0.96015 0.53523 0.0
C1090 C 0.45367 0.99586 0.53496 0.0
H1091 H 0.42018 0.917 0.54296 0.0
H1092 H 0.47047 0.94374 0.52988 0.0
S1093 S 0.3891 0.0582 0.55331 0.0
N1094 N 0.37151 0.02074 0.55736 0.0
N1095 N 0.42667 0.05017 0.54305 0.0
C1096 C 0.42632 0.0156 0.54235 0.0
C1097 C 0.39632 0.99957 0.55027 0.0
C1098 C 0.83686 0.61683 0.25994 0.0
C1099 C 0.86776 0.61736 0.24727 0.0
C1100 C 0.82025 0.64728 0.26631 0.0
C1101 C 0.83355 0.67929 0.25947 0.0
H1102 H 0.82598 0.59278 0.26597 0.0
H1103 H 0.79697 0.64574 0.27682 0.0
S1104 S 0.91311 0.69426 0.2247 0.0
N1105 N 0.91055 0.65241 0.22743 0.0
N1106 N 0.87924 0.70934 0.23845 0.0
C1107 C 0.86398 0.67997 0.24587 0.0
C1108 C 0.8811 0.6491 0.24003 0.0
C1109 C 0.74241 0.412 0.78729 0.0
C1110 C 0.72908 0.42117 0.75941 0.0
C1111 C 0.76136 0.38235 0.79142 0.0
C1112 C 0.76737 0.36059 0.76787 0.0
H1113 H 0.73773 0.42752 0.80621 0.0
H1114 H 0.77014 0.37571 0.81346 0.0
S1115 S 0.74037 0.3745 0.69004 0.0
N1116 N 0.72509 0.40723 0.70752 0.0
N1117 N 0.7604 0.35144 0.71534 0.0
C1118 C 0.75524 0.37014 0.73969 0.0
C1119 C 0.73617 0.40043 0.73545 0.0
C1120 C 0.99187 0.87544 0.97143 0.0
C1121 C 0.01296 0.84755 0.96799 0.0
C1122 C 0.99401 0.89508 0.99668 0.0
C1123 C 0.01704 0.88724 0.01932 0.0
H1124 H 0.9755 0.88392 0.9536 0.0
H1125 H 0.98053 0.91892 0.99668 0.0
S1126 S 0.07292 0.81288 0.0237 0.0
N1127 N 0.0537 0.80962 0.9914 0.0
N1128 N 0.05779 0.84731 0.03889 0.0
C1129 C 0.0355 0.85726 0.01768 0.0
C1130 C 0.03343 0.83715 0.99193 0.0
C1131 C 0.92577 0.25852 0.69953 0.0
C1132 C 0.95594 0.26861 0.71253 0.0
C1133 C 0.89638 0.25919 0.715 0.0
C1134 C 0.8953 0.26987 0.74452 0.0
H1135 H 0.92475 0.24985 0.67704 0.0
H1136 H 0.87423 0.25088 0.70361 0.0
S1137 S 0.9673 0.29931 0.78909 0.0
N1138 N 0.98256 0.29007 0.75703 0.0
N1139 N 0.92781 0.29114 0.78595 0.0
C1140 C 0.92529 0.28023 0.7578 0.0
C1141 C 0.9553 0.27965 0.74194 0.0
C1142 C 0.57735 0.24295 0.47287 0.0
C1143 C 0.56193 0.27251 0.48293 0.0
C1144 C 0.57245 0.21146 0.48645 0.0
C1145 C 0.5526 0.20872 0.51083 0.0
H1146 H 0.59049 0.24346 0.45264 0.0
H1147 H 0.58247 0.18879 0.47669 0.0
S1148 S 0.51372 0.2793 0.55016 0.0
N1149 N 0.5312 0.29792 0.52211 0.0
N1150 N 0.52239 0.23827 0.54777 0.0
C1151 C 0.54072 0.23844 0.52349 0.0
C1152 C 0.54553 0.27063 0.50958 0.0
C1153 C 0.64192 0.75181 0.23624 0.0
C1154 C 0.6375 0.76551 0.20759 0.0
C1155 C 0.6727 0.75212 0.25147 0.0
C1156 C 0.70079 0.76616 0.2389 0.0
H1157 H 0.62134 0.7408 0.24716 0.0
H1158 H 0.67436 0.74138 0.27346 0.0
S1159 S 0.70279 0.80556 0.16436 0.0
N1160 N 0.66442 0.79364 0.16732 0.0
N1161 N 0.72161 0.79425 0.1956 0.0
C1162 C 0.6967 0.77984 0.21018 0.0
C1163 C 0.66538 0.77951 0.1947 0.0
C1164 C 0.05748 0.16923 0.58671 0.0
C1165 C 0.04984 0.16937 0.61669 0.0
C1166 C 0.05946 0.13864 0.57074 0.0
C1167 C 0.05392 0.10662 0.58397 0.0
H1168 H 0.06186 0.19304 0.57533 0.0
H1169 H 0.06514 0.14021 0.54775 0.0
S1170 S 0.03317 0.09265 0.66209 0.0
N1171 N 0.03685 0.13437 0.65893 0.0
N1172 N 0.0405 0.07736 0.62937 0.0
C1173 C 0.04644 0.10645 0.61405 0.0
C1174 C 0.04443 0.13757 0.63024 0.0
C1175 C 0.58869 0.34662 0.34054 0.0
C1176 C 0.5867 0.36831 0.36472 0.0
C1177 C 0.61794 0.34254 0.32603 0.0
C1178 C 0.64622 0.36069 0.33463 0.0
H1179 H 0.56839 0.33029 0.33433 0.0
H1180 H 0.61881 0.32307 0.30945 0.0
S1181 S 0.6507 0.42753 0.39178 0.0
N1182 N 0.61339 0.41209 0.39385 0.0
N1183 N 0.66796 0.40661 0.36508 0.0
C1184 C 0.64326 0.38551 0.3566 0.0
C1185 C 0.61362 0.38883 0.37201 0.0
C1186 C 0.52372 0.8645 0.08678 0.0
C1187 C 0.53997 0.86157 0.11457 0.0
C1188 C 0.5242 0.89504 0.06998 0.0
C1189 C 0.54081 0.92423 0.08021 0.0
H1190 H 0.51042 0.84297 0.07787 0.0
H1191 H 0.51113 0.89586 0.04892 0.0
S1192 S 0.58995 0.92925 0.15015 0.0
N1193 N 0.57491 0.89034 0.15052 0.0
N1194 N 0.57569 0.94721 0.11938 0.0
C1195 C 0.55759 0.92143 0.10775 0.0
C1196 C 0.5572 0.89037 0.12475 0.0
C1197 C 0.92429 0.73134 0.8725 0.0
C1198 C 0.92664 0.76588 0.88017 0.0
C1199 C 0.8947 0.71797 0.86186 0.0
C1200 C 0.86657 0.7385 0.85962 0.0
H1201 H 0.94599 0.71544 0.87203 0.0
H1202 H 0.89454 0.69259 0.85273 0.0
S1203 S 0.85874 0.82822 0.88338 0.0
N1204 N 0.89782 0.81876 0.88919 0.0
N1205 N 0.84157 0.79315 0.87061 0.0
C1206 C 0.86776 0.77165 0.87107 0.0
C1207 C 0.89811 0.78561 0.88087 0.0
C1208 C 0.95766 0.00135 0.92527 0.0
C1209 C 0.9745 0.00272 0.89892 0.0
C1210 C 0.97437 0.99856 0.9525 0.0
C1211 C 0.00875 0.9967 0.9547 0.0
H1212 H 0.93118 0.00229 0.92494 0.0
H1213 H 0.96001 0.99724 0.97198 0.0
S1214 S 0.06457 0.99895 0.89226 0.0
N1215 N 0.02763 0.00205 0.87664 0.0
N1216 N 0.05915 0.99645 0.92795 0.0
C1217 C 0.02602 0.99806 0.92853 0.0
C1218 C 0.0089 0.00123 0.90066 0.0
C1219 C 0.80525 0.20251 0.59208 0.0
C1220 C 0.78393 0.17872 0.57926 0.0
C1221 C 0.7996 0.21541 0.61999 0.0
C1222 C 0.77208 0.20545 0.63578 0.0
H1223 H 0.82713 0.21009 0.58104 0.0
H1224 H 0.81758 0.23244 0.62965 0.0
S1225 S 0.70649 0.14737 0.60941 0.0
N1226 N 0.73299 0.14768 0.58291 0.0
N1227 N 0.72163 0.17299 0.63489 0.0
C1228 C 0.74974 0.18294 0.62238 0.0
C1229 C 0.75582 0.16936 0.59421 0.0
C1230 C 0.62518 0.00801 0.41837 0.0
C1231 C 0.61886 0.03275 0.39644 0.0
C1232 C 0.60608 0.00597 0.44318 0.0
C1233 C 0.58017 0.02907 0.44757 0.0
H1234 H 0.64498 0.98984 0.41629 0.0
H1235 H 0.61251 0.98662 0.45954 0.0
S1236 S 0.55374 0.099 0.39663 0.0
N1237 N 0.58457 0.08068 0.38027 0.0
N1238 N 0.54933 0.07763 0.42765 0.0
C1239 C 0.57353 0.05401 0.42577 0.0
C1240 C 0.59266 0.05562 0.40004 0.0
C1241 C 0.83203 0.85951 0.09617 0.0
C1242 C 0.80141 0.87539 0.09125 0.0
C1243 C 0.84291 0.85019 0.12459 0.0
C1244 C 0.82389 0.85753 0.14877 0.0
H1245 H 0.84678 0.85249 0.07788 0.0
H1246 H 0.86541 0.83569 0.12756 0.0
S1247 S 0.74388 0.90217 0.1478 0.0
N1248 N 0.75357 0.90053 0.11298 0.0
N1249 N 0.77446 0.88356 0.16649 0.0
C1250 C 0.79439 0.87548 0.14431 0.0
C1251 C 0.783 0.88431 0.11545 0.0
C1252 C 0.99279 0.97577 0.73587 0.0
C1253 C 0.96099 0.98925 0.7376 0.0
C1254 C 0.00668 0.96973 0.70863 0.0
C1255 C 0.98933 0.97702 0.68206 0.0
H1256 H 0.00707 0.96967 0.7557 0.0
H1257 H 0.03124 0.95935 0.70839 0.0
S1258 S 0.90603 0.01481 0.67456 0.0
N1259 N 0.9129 0.01068 0.71032 0.0
N1260 N 0.93921 1.00013 0.65932 0.0
C1261 C 0.95758 0.99075 0.68352 0.0
C1262 C 0.94338 0.99669 0.71121 0.0
C1263 C 0.83504 0.21266 0.41955 0.0
C1264 C 0.80641 0.19479 0.42632 0.0
C1265 C 0.83617 0.23394 0.39444 0.0
C1266 C 0.80833 0.23916 0.37592 0.0
H1267 H 0.85697 0.20949 0.43332 0.0
H1268 H 0.85892 0.24635 0.38948 0.0
S1269 S 0.72738 0.19856 0.38392 0.0
N1270 N 0.74975 0.18363 0.41208 0.0
N1271 N 0.75147 0.22442 0.36594 0.0
C1272 C 0.77947 0.22193 0.3828 0.0
C1273 C 0.7786 0.19958 0.40771 0.0
C1274 C 0.62856 0.07034 0.22463 0.0
C1275 C 0.62341 0.04026 0.24078 0.0
C1276 C 0.61228 0.07639 0.1976 0.0
C1277 C 0.59065 0.0523 0.18534 0.0
H1278 H 0.64537 0.08946 0.23293 0.0
H1279 H 0.6171 0.09999 0.18604 0.0
S1280 S 0.56875 0.96928 0.21939 0.0
N1281 N 0.59457 0.98658 0.24342 0.0
N1282 N 0.56498 0.99687 0.19187 0.0
C1283 C 0.58487 0.02223 0.20164 0.0
C1284 C 0.60105 0.01646 0.22951 0.0
C1285 C 0.68745 0.82557 0.94463 0.0
C1286 C 0.71303 0.81592 0.96443 0.0
C1287 C 0.6809 0.80665 0.91931 0.0
C1288 C 0.70017 0.77803 0.91301 0.0
H1289 H 0.67498 0.84979 0.94684 0.0
H1290 H 0.66373 0.81699 0.90287 0.0
S1291 S 0.76096 0.73565 0.96407 0.0
N1292 N 0.75024 0.7707 0.98101 0.0
N1293 N 0.73912 0.73566 0.93298 0.0
C1294 C 0.72122 0.7647 0.93555 0.0
C1295 C 0.72749 0.78374 0.96147 0.0
C1296 C 0.84788 0.97018 0.98637 0.0
C1297 C 0.84828 0.93454 0.98288 0.0
C1298 C 0.87149 0.98627 0.00417 0.0
C1299 C 0.89656 0.96735 0.01864 0.0
H1300 H 0.82735 0.9853 0.9779 0.0
H1301 H 0.86888 0.01332 0.008 0.0
S1302 S 0.91369 0.87501 0.00935 0.0
N1303 N 0.87967 0.88217 0.98977 0.0
N1304 N 0.92416 0.9122 0.0232 0.0
C1305 C 0.89959 0.93246 0.01208 0.0
C1306 C 0.87567 0.9162 0.99381 0.0
C1307 C 0.39456 0.57185 0.03127 0.0
C1308 C 0.38123 0.5781 0.00281 0.0
C1309 C 0.42564 0.55695 0.0358 0.0
C1310 C 0.44512 0.54866 0.01204 0.0
H1311 H 0.38094 0.57886 0.05028 0.0
H1312 H 0.43499 0.55317 0.05813 0.0
S1313 S 0.4213 0.55912 0.93312 0.0
N1314 N 0.38937 0.5736 0.9505 0.0
N1315 N 0.44835 0.54686 0.95891 0.0
C1316 C 0.4319 0.55431 0.98343 0.0
C1317 C 0.39981 0.56864 0.97884 0.0
C1318 C 0.21348 0.63786 0.80307 0.0
C1319 C 0.22767 0.60658 0.79555 0.0
C1320 C 0.22621 0.6689 0.79328 0.0
C1321 C 0.25402 0.67005 0.77591 0.0
H1322 H 0.19208 0.63843 0.81639 0.0
H1323 H 0.21466 0.69223 0.80021 0.0
S1324 S 0.30027 0.59524 0.74996 0.0
N1325 N 0.27073 0.57856 0.76918 0.0
N1326 N 0.29522 0.63695 0.75145 0.0
C1327 C 0.26842 0.63893 0.76815 0.0
C1328 C 0.25512 0.60723 0.77777 0.0
C1329 C 0.19061 0.4644 0.49951 0.0
C1330 C 0.2088 0.46051 0.52603 0.0
C1331 C 0.15865 0.47709 0.49918 0.0
C1332 C 0.14417 0.48687 0.52531 0.0
H1333 H 0.20104 0.4574 0.47888 0.0
H1334 H 0.14523 0.4793 0.47833 0.0
S1335 S 0.18179 0.48204 0.60054 0.0
N1336 N 0.21026 0.46751 0.57908 0.0
N1337 N 0.15027 0.49177 0.57844 0.0
C1338 C 0.16224 0.48342 0.55198 0.0
C1339 C 0.19456 0.47005 0.55235 0.0
C1340 C 0.88699 0.88269 0.80452 0.0
C1341 C 0.86945 0.91106 0.81424 0.0
C1342 C 0.8715 0.85169 0.799 0.0
C1343 C 0.83791 0.84759 0.8034 0.0
H1344 H 0.91288 0.88455 0.80059 0.0
H1345 H 0.88616 0.83066 0.79146 0.0
S1346 S 0.78124 0.91348 0.83027 0.0
N1347 N 0.81684 0.93295 0.82891 0.0
N1348 N 0.78772 0.87418 0.81914 0.0
C1349 C 0.82015 0.87548 0.81384 0.0
C1350 C 0.8359 0.90735 0.81905 0.0
C1351 C 0.68561 0.10684 0.51856 0.0
C1352 C 0.7113 0.08466 0.51159 0.0
C1353 C 0.6562 0.09457 0.52922 0.0
C1354 C 0.6509 0.05945 0.53333 0.0
H1355 H 0.68821 0.13415 0.51596 0.0
H1356 H 0.63718 0.11292 0.53369 0.0
S1357 S 0.71062 0.99043 0.51891 0.0
N1358 N 0.72985 0.02579 0.51019 0.0
N1359 N 0.67434 0.00251 0.52986 0.0
C1360 C 0.67658 0.03689 0.52687 0.0
C1361 C 0.70673 0.04951 0.51604 0.0
C1362 C 0.25916 0.42659 0.79656 0.0
C1363 C 0.22817 0.42719 0.80906 0.0
C1364 C 0.27572 0.39561 0.79204 0.0
C1365 C 0.26227 0.36429 0.80068 0.0
H1366 H 0.2702 0.4501 0.78934 0.0
H1367 H 0.2991 0.39618 0.78163 0.0
S1368 S 0.18234 0.35239 0.8356 0.0
N1369 N 0.18506 0.39396 0.83053 0.0
N1370 N 0.21628 0.33611 0.82296 0.0
C1371 C 0.2317 0.3648 0.81401 0.0
C1372 C 0.21462 0.39614 0.81796 0.0
C1373 C 0.33418 0.59675 0.28736 0.0
C1374 C 0.35849 0.59095 0.30937 0.0
C1375 C 0.31897 0.62878 0.28399 0.0
C1376 C 0.32725 0.65592 0.3028 0.0
H1377 H 0.32787 0.57691 0.27186 0.0
H1378 H 0.30132 0.63251 0.26598 0.0
S1379 S 0.38645 0.65181 0.36651 0.0
N1380 N 0.38809 0.61359 0.35189 0.0
N1381 N 0.35932 0.67345 0.34606 0.0
C1382 C 0.35018 0.6496 0.32603 0.0
C1383 C 0.36589 0.61721 0.32916 0.0
C1384 C 0.62362 0.59989 0.5894 0.0
C1385 C 0.61122 0.63247 0.58225 0.0
C1386 C 0.61971 0.5732 0.56946 0.0
C1387 C 0.603 0.57863 0.54234 0.0
H1388 H 0.63295 0.5941 0.61144 0.0
H1389 H 0.62481 0.54747 0.57719 0.0
S1390 S 0.57634 0.66134 0.50999 0.0
N1391 N 0.58989 0.67052 0.54351 0.0
N1392 N 0.58186 0.61988 0.50653 0.0
C1393 C 0.59606 0.61207 0.53317 0.0
C1394 C 0.60001 0.63921 0.55326 0.0
C1395 C 0.64605 0.249 0.82784 0.0
C1396 C 0.64408 0.2616 0.85672 0.0
C1397 C 0.67635 0.2458 0.81368 0.0
C1398 C 0.70641 0.25486 0.82766 0.0
H1399 H 0.62391 0.24167 0.8159 0.0
H1400 H 0.67611 0.23637 0.79144 0.0
S1401 S 0.71521 0.28892 0.90352 0.0
N1402 N 0.67553 0.28295 0.8987 0.0
N1403 N 0.7316 0.27692 0.8727 0.0
C1404 C 0.70468 0.26722 0.85667 0.0
C1405 C 0.67393 0.27058 0.87095 0.0
C1406 C 0.06982 0.29955 0.10164 0.0
C1407 C 0.10026 0.28681 0.11191 0.0
C1408 C 0.06763 0.32986 0.08555 0.0
C1409 C 0.09578 0.34853 0.0795 0.0
H1410 H 0.04743 0.28636 0.10653 0.0
H1411 H 0.04362 0.33943 0.07876 0.0
S1412 S 0.18135 0.32537 0.10017 0.0
N1413 N 0.15934 0.29424 0.11385 0.0
N1414 N 0.15497 0.35189 0.08366 0.0
C1415 C 0.12645 0.33573 0.08889 0.0
C1416 C 0.12877 0.30457 0.10503 0.0
C1417 C 0.94973 0.79026 0.33214 0.0
C1418 C 0.95498 0.77388 0.35966 0.0
C1419 C 0.91817 0.79312 0.31848 0.0
C1420 C 0.89006 0.77991 0.33164 0.0
H1421 H 0.97027 0.8008 0.32085 0.0
H1422 H 0.91592 0.80558 0.29719 0.0
S1423 S 0.88993 0.73515 0.40401 0.0
N1424 N 0.92873 0.74462 0.3997 0.0
N1425 N 0.87008 0.75004 0.37441 0.0
C1426 C 0.89495 0.76381 0.35935 0.0
C1427 C 0.92707 0.7608 0.37318 0.0
C1428 C 0.54732 0.39322 0.93864 0.0
C1429 C 0.54359 0.36072 0.95146 0.0
C1430 C 0.54468 0.42327 0.95516 0.0
C1431 C 0.53805 0.4225 0.98543 0.0
H1432 H 0.55263 0.39558 0.9156 0.0
H1433 H 0.54823 0.4474 0.94399 0.0
S1434 S 0.52532 0.34396 0.02966 0.0
N1435 N 0.53226 0.32976 0.99647 0.0
N1436 N 0.52729 0.3859 0.02728 0.0
C1437 C 0.53381 0.39016 0.99845 0.0
C1438 C 0.53659 0.35949 0.98161 0.0
C1439 C 1.00038 0.18185 0.22258 0.0
C1440 C 0.02256 0.20908 0.22154 0.0
C1441 C 0.9699 0.18581 0.23533 0.0
C1442 C 0.96081 0.21695 0.24772 0.0
H1443 H 0.00607 0.15775 0.21256 0.0
H1444 H 0.95312 0.16456 0.23506 0.0
S1445 S 0.01053 0.29565 0.25157 0.0
N1446 N 0.03379 0.26779 0.23509 0.0
N1447 N 0.97648 0.27528 0.25853 0.0
C1448 C 0.98318 0.244 0.24762 0.0
C1449 C 0.01408 0.24 0.23467 0.0
C1450 C 0.04723 0.6411 0.43755 0.0
C1451 C 0.05434 0.67246 0.45105 0.0
C1452 C 0.0467 0.6103 0.45379 0.0
C1453 C 0.05312 0.6092 0.48446 0.0
H1454 H 0.04184 0.64028 0.41414 0.0
H1455 H 0.04089 0.58712 0.44209 0.0
S1456 S 0.07357 0.68411 0.53062 0.0
N1457 N 0.0684 0.70026 0.49717 0.0
N1458 N 0.06727 0.64277 0.52752 0.0
C1459 C 0.0605 0.64038 0.49823 0.0
C1460 C 0.06114 0.67177 0.48164 0.0
C1461 C 0.6793 0.76875 0.70303 0.0
C1462 C 0.67901 0.73703 0.68896 0.0
C1463 C 0.70682 0.77938 0.71937 0.0
C1464 C 0.73511 0.75908 0.72128 0.0
H1465 H 0.65761 0.78473 0.70264 0.0
H1466 H 0.70546 0.80279 0.73167 0.0
S1467 S 0.74752 0.67512 0.68645 0.0
N1468 N 0.70977 0.6863 0.6766 0.0
N1469 N 0.76198 0.70671 0.70655 0.0
C1470 C 0.73584 0.72831 0.70572 0.0
C1471 C 0.70757 0.71711 0.68978 0.0
C1472 C 0.61476 0.4758 0.65453 0.0
C1473 C 0.60507 0.49667 0.67747 0.0
C1474 C 0.59585 0.47345 0.62853 0.0
C1475 C 0.56677 0.49252 0.62406 0.0
H1476 H 0.63753 0.46158 0.65645 0.0
H1477 H 0.60503 0.45755 0.61134 0.0
S1478 S 0.52971 0.54935 0.6785 0.0
N1479 N 0.56357 0.53501 0.69524 0.0
N1480 N 0.52823 0.53151 0.64583 0.0
C1481 C 0.55606 0.51245 0.64742 0.0
C1482 C 0.57517 0.51431 0.67425 0.0
C1483 C 0.82422 0.32595 0.98553 0.0
C1484 C 0.8076 0.3574 0.98641 0.0
C1485 C 0.83195 0.31123 0.95871 0.0
C1486 C 0.82343 0.3275 0.93186 0.0
H1487 H 0.83175 0.31284 0.00569 0.0
H1488 H 0.84484 0.28703 0.95898 0.0
S1489 S 0.77707 0.40858 0.92207 0.0
N1490 N 0.7813 0.40337 0.95798 0.0
N1491 N 0.79545 0.37547 0.90772 0.0
C1492 C 0.80622 0.35857 0.93243 0.0
C1493 C 0.79838 0.37356 0.95966 0.0
C1494 C 0.99054 0.55836 0.15382 0.0
C1495 C 0.97084 0.53042 0.16138 0.0
C1496 C 0.00869 0.55841 0.12806 0.0
C1497 C 0.00874 0.52997 0.10958 0.0
H1498 H 0.99167 0.58053 0.16776 0.0
H1499 H 0.02308 0.58058 0.12279 0.0
S1500 S 0.96104 0.45068 0.11912 0.0
N1501 N 0.95197 0.47406 0.14765 0.0
N1502 N 0.98687 0.47354 0.1002 0.0
C1503 C 0.98924 0.50191 0.11696 0.0
C1504 C 0.9701 0.50228 0.14259 0.0
C1505 C 0.77783 0.69705 0.47517 0.0
C1506 C 0.75646 0.67073 0.48257 0.0
C1507 C 0.77406 0.71445 0.44844 0.0
C1508 C 0.74896 0.70586 0.42815 0.0
H1509 H 0.79902 0.70257 0.4892 0.0
H1510 H 0.79248 0.73279 0.44255 0.0
S1511 S 0.68372 0.64255 0.43901 0.0
N1512 N 0.70687 0.63988 0.4694 0.0
N1513 N 0.70009 0.67247 0.41849 0.0
C1514 C 0.72552 0.68201 0.43643 0.0
C1515 C 0.72919 0.66441 0.46394 0.0
C1516 C 0.62813 0.55939 0.84069 0.0
C1517 C 0.62465 0.52692 0.82803 0.0
C1518 C 0.61558 0.56654 0.86818 0.0
C1519 C 0.59882 0.54159 0.88384 0.0
H1520 H 0.64091 0.57946 0.82941 0.0
H1521 H 0.61882 0.59179 0.87716 0.0
S1522 S 0.58411 0.45226 0.86123 0.0
N1523 N 0.60379 0.46941 0.83378 0.0
N1524 N 0.5803 0.48286 0.88546 0.0
C1525 C 0.59521 0.50902 0.87156 0.0
C1526 C 0.60808 0.50169 0.84364 0.0
C1527 C 0.79926 0.31857 0.14933 0.0
C1528 C 0.79228 0.35377 0.14709 0.0
C1529 C 0.79851 0.30103 0.17647 0.0
C1530 C 0.78965 0.31779 0.20218 0.0
H1531 H 0.80611 0.30462 0.13009 0.0
H1532 H 0.80485 0.27419 0.17734 0.0
S1533 S 0.7692 0.4097 0.20826 0.0
N1534 N 0.77662 0.40465 0.1732 0.0
N1535 N 0.77416 0.37169 0.22368 0.0
C1536 C 0.78214 0.35282 0.20011 0.0
C1537 C 0.78372 0.37079 0.17273 0.0
C1538 C 0.95669 0.51813 0.34716 0.0
C1539 C 0.97314 0.51147 0.32123 0.0
C1540 C 0.96929 0.50688 0.37449 0.0
C1541 C 0.99892 0.48861 0.37703 0.0
H1542 H 0.93365 0.5319 0.34641 0.0
H1543 H 0.95601 0.51312 0.39389 0.0
S1544 S 0.05146 0.46404 0.31604 0.0
N1545 N 0.02063 0.48507 0.29985 0.0
N1546 N 0.04436 0.46407 0.35148 0.0
C1547 C 0.01576 0.48185 0.35139 0.0
C1548 C 1.00287 0.49322 0.32344 0.0
C1549 C 0.81749 0.64575 0.64494 0.0
C1550 C 0.82542 0.65627 0.61656 0.0
C1551 C 0.83273 0.66019 0.66966 0.0
C1552 C 0.85641 0.68581 0.66695 0.0
H1553 H 0.79932 0.62622 0.64816 0.0
H1554 H 0.82492 0.65211 0.69111 0.0
S1555 S 0.88697 0.72143 0.59763 0.0
N1556 N 0.85937 0.69317 0.58708 0.0
N1557 N 0.88788 0.72037 0.63387 0.0
C1558 C 0.86503 0.69618 0.63876 0.0
C1559 C 0.84959 0.68139 0.61349 0.0
C1560 C 0.73414 0.4925 0.52043 0.0
C1561 C 0.73265 0.51461 0.54447 0.0
C1562 C 0.71159 0.46616 0.51662 0.0
C1563 C 0.68652 0.46122 0.53653 0.0
H1564 H 0.75159 0.49675 0.50348 0.0
H1565 H 0.71197 0.45153 0.4966 0.0
S1566 S 0.67742 0.507 0.60688 0.0
N1567 N 0.7085 0.52572 0.59138 0.0
N1568 N 0.66537 0.47694 0.58397 0.0
C1569 C 0.68729 0.48063 0.56246 0.0
C1570 C 0.71044 0.50732 0.56638 0.0
C1571 C 0.19654 0.96202 0.58193 0.0
C1572 C 0.21638 0.96005 0.55738 0.0
C1573 C 0.16406 0.97412 0.57919 0.0
C1574 C 0.15047 0.98545 0.55192 0.0
H1575 H 0.20573 0.95291 0.60318 0.0
H1576 H 0.14939 0.97425 0.59852 0.0
S1577 S 0.19324 0.98762 0.4813 0.0
N1578 N 0.22058 0.9717 0.50522 0.0
N1579 N 0.16027 0.99509 0.5001 0.0
C1580 C 0.17062 0.98479 0.52746 0.0
C1581 C 0.20334 0.97192 0.53018 0.0
C1582 C 0.34248 0.92195 0.7661 0.0
C1583 C 0.37555 0.92419 0.75903 0.0
C1584 C 0.32891 0.8908 0.77492 0.0
C1585 C 0.34804 0.8608 0.77743 0.0
H1586 H 0.3268 0.94426 0.76429 0.0
H1587 H 0.30302 0.89013 0.77903 0.0
S1588 S 0.43711 0.85427 0.76503 0.0
N1589 N 0.42778 0.89443 0.75747 0.0
N1590 N 0.40261 0.83632 0.77441 0.0
C1591 C 0.38155 0.8632 0.77172 0.0
C1592 C 0.39519 0.89473 0.76239 0.0
C1593 C 0.40346 0.07096 0.06853 0.0
C1594 C 0.38549 0.08033 0.04288 0.0
C1595 C 0.43276 0.05296 0.06703 0.0
C1596 C 0.44486 0.04341 0.03986 0.0
H1597 H 0.39556 0.0787 0.08991 0.0
H1598 H 0.44668 0.04766 0.08725 0.0
S1599 S 0.40504 0.05833 0.96648 0.0
N1600 N 0.38021 0.07624 0.98966 0.0
N1601 N 0.43554 0.04207 0.98685 0.0
C1602 C 0.42611 0.05063 0.01413 0.0
C1603 C 0.39635 0.06933 0.01563 0.0
C1604 C 0.71126 0.62305 0.76021 0.0
C1605 C 0.72789 0.59421 0.75033 0.0
C1606 C 0.72832 0.65127 0.77077 0.0
C1607 C 0.76268 0.65203 0.7713 0.0
H1608 H 0.68482 0.62335 0.76094 0.0
H1609 H 0.71436 0.6728 0.77835 0.0
S1610 S 0.81757 0.58421 0.74502 0.0
N1611 N 0.78042 0.56853 0.74021 0.0
N1612 N 0.81273 0.62248 0.75904 0.0
C1613 C 0.77964 0.62396 0.76024 0.0
C1614 C 0.76218 0.5948 0.75004 0.0
C1615 C 0.91638 0.42947 0.04876 0.0
C1616 C 0.88858 0.4508 0.0489 0.0
C1617 C 0.94628 0.44101 0.03825 0.0
C1618 C 0.94984 0.47448 0.02738 0.0
H1619 H 0.91516 0.40351 0.05692 0.0
H1620 H 0.96699 0.42368 0.0394 0.0
S1621 S 0.88414 0.54036 0.02197 0.0
N1622 N 0.86631 0.50684 0.03642 0.0
N1623 N 0.92229 0.52864 0.0168 0.0
C1624 C 0.922 0.49593 0.02687 0.0
C1625 C 0.89152 0.48412 0.03763 0.0
C1626 C 0.36482 0.1273 0.72925 0.0
C1627 C 0.36539 0.1023 0.75166 0.0
C1628 C 0.34926 0.15902 0.73288 0.0
C1629 C 0.33323 0.16676 0.75889 0.0
H1630 H 0.37753 0.12285 0.70918 0.0
H1631 H 0.35041 0.17783 0.71539 0.0
S1632 S 0.32517 0.10846 0.82315 0.0
N1633 N 0.3469 0.08656 0.79998 0.0
N1634 N 0.31731 0.14542 0.80673 0.0
C1635 C 0.33243 0.14121 0.78091 0.0
C1636 C 0.3486 0.10923 0.77732 0.0
C1637 C 0.21644 0.89003 0.25042 0.0
C1638 C 0.2303 0.91998 0.2616 0.0
C1639 C 0.23375 0.85926 0.25196 0.0
C1640 C 0.26519 0.85727 0.26543 0.0
H1641 H 0.19199 0.89035 0.2405 0.0
H1642 H 0.22182 0.8366 0.2436 0.0
S1643 S 0.31243 0.9288 0.29758 0.0
N1644 N 0.27759 0.94631 0.28565 0.0
N1645 N 0.30981 0.88797 0.28949 0.0
C1646 C 0.27952 0.88716 0.27633 0.0
C1647 C 0.26215 0.91869 0.27415 0.0
C1648 C 0.46543 0.37247 0.50152 0.0
C1649 C 0.45708 0.38562 0.47338 0.0
C1650 C 0.46892 0.39426 0.5255 0.0
C1651 C 0.46348 0.42941 0.52186 0.0
H1652 H 0.47426 0.34649 0.50418 0.0
H1653 H 0.48089 0.38451 0.54548 0.0
S1654 S 0.42727 0.47271 0.45572 0.0
N1655 N 0.43421 0.43327 0.44516 0.0
N1656 N 0.4385 0.47395 0.49086 0.0
C1657 C 0.44773 0.44098 0.49564 0.0
C1658 C 0.44548 0.41913 0.47092 0.0
C1659 C 0.42394 0.75721 0.19724 0.0
C1660 C 0.45366 0.76789 0.2108 0.0
C1661 C 0.39426 0.7566 0.21237 0.0
C1662 C 0.39247 0.76657 0.24202 0.0
H1663 H 0.42352 0.74911 0.1746 0.0
H1664 H 0.37246 0.74801 0.20059 0.0
S1665 S 0.46305 0.79699 0.28797 0.0
N1666 N 0.47902 0.78896 0.25598 0.0
N1667 N 0.42384 0.78776 0.28418 0.0
C1668 C 0.42202 0.77744 0.25583 0.0
C1669 C 0.45228 0.7781 0.24037 0.0
C1670 C 0.02542 0.69078 0.89267 0.0
C1671 C 0.05402 0.71011 0.89655 0.0
C1672 C 0.01749 0.66572 0.91304 0.0
C1673 C 0.03869 0.65785 0.93712 0.0
H1674 H 0.00701 0.69777 0.876 0.0
H1675 H 0.99353 0.6543 0.91087 0.0
S1676 S 0.12207 0.6927 0.95024 0.0
N1677 N 0.10674 0.71504 0.92204 0.0
N1678 N 0.0936 0.665 0.95874 0.0
C1679 C 0.06978 0.67321 0.93833 0.0
C1680 C 0.07719 0.69982 0.91821 0.0
C1681 C 0.16716 0.27424 0.69105 0.0
C1682 C 0.13979 0.26099 0.70533 0.0
C1683 C 0.19895 0.27357 0.70439 0.0
C1684 C 0.2051 0.25964 0.73276 0.0
H1685 H 0.16402 0.28542 0.66931 0.0
H1686 H 0.21883 0.28446 0.69241 0.0
S1687 S 0.14211 0.22099 0.77964 0.0
N1688 N 0.12142 0.23305 0.74954 0.0
N1689 N 0.18041 0.23175 0.77445 0.0
C1690 C 0.17791 0.24603 0.74716 0.0
C1691 C 0.14561 0.24672 0.73356 0.0
C1692 C 0.54533 0.64433 0.12342 0.0
C1693 C 0.55012 0.67676 0.11076 0.0
C1694 C 0.54646 0.61431 0.10667 0.0
C1695 C 0.55256 0.61497 0.07631 0.0
H1696 H 0.54034 0.64202 0.14653 0.0
H1697 H 0.54221 0.59028 0.11777 0.0
S1698 S 0.56752 0.69326 0.03236 0.0
N1699 N 0.56177 0.70751 0.06575 0.0
N1700 N 0.56396 0.65143 0.03451 0.0
C1701 C 0.55782 0.64723 0.06342 0.0
C1702 C 0.55657 0.67789 0.0805 0.0
C1703 C 0.10081 0.87009 0.82981 0.0
C1704 C 0.07535 0.84746 0.82277 0.0
C1705 C 0.13117 0.86708 0.81681 0.0
C1706 C 0.13732 0.84081 0.79687 0.0
H1707 H 0.09824 0.88822 0.84735 0.0
H1708 H 0.15072 0.88371 0.82424 0.0
S1709 S 0.07614 0.77943 0.76699 0.0
N1710 N 0.056 0.80237 0.79056 0.0
N1711 N 0.11348 0.79501 0.76756 0.0
C1712 C 0.11073 0.82069 0.78712 0.0
C1713 C 0.07955 0.82452 0.79973 0.0
C1714 C 0.04415 0.38502 0.62111 0.0
C1715 C 0.03706 0.35291 0.60907 0.0
C1716 C 0.04416 0.41482 0.6036 0.0
C1717 C 0.0372 0.41419 0.573 0.0
H1718 H 0.04999 0.38725 0.64436 0.0
H1719 H 0.05002 0.43863 0.6143 0.0
S1720 S 0.01646 0.33668 0.53039 0.0
N1721 N 0.02235 0.32242 0.56439 0.0
N1722 N 0.02251 0.37821 0.53161 0.0
C1723 C 0.02978 0.38226 0.56065 0.0
C1724 C 0.02967 0.3518 0.57858 0.0
C1725 C 0.46733 0.25756 0.34422 0.0
C1726 C 0.46876 0.25734 0.37498 0.0
C1727 C 0.44237 0.24052 0.32886 0.0
C1728 C 0.41776 0.22362 0.34404 0.0
H1729 H 0.484 0.2732 0.33205 0.0
H1730 H 0.44027 0.24422 0.30529 0.0
S1731 S 0.41621 0.20818 0.42435 0.0
N1732 N 0.44818 0.23295 0.4199 0.0
N1733 N 0.40069 0.20125 0.39104 0.0
C1734 C 0.42187 0.21912 0.37459 0.0
C1735 C 0.44757 0.23609 0.39016 0.0
C1736 C 0.49536 0.48756 0.39793 0.0
C1737 C 0.47074 0.51142 0.39024 0.0
C1738 C 0.51181 0.4887 0.42541 0.0
C1739 C 0.5044 0.51398 0.4459 0.0
H1740 H 0.50083 0.46694 0.38323 0.0
H1741 H 0.52936 0.46871 0.43107 0.0
S1742 S 0.44567 0.58575 0.43371 0.0
N1743 N 0.44219 0.56308 0.4035 0.0
N1744 N 0.47354 0.56595 0.4548 0.0
C1745 C 0.48139 0.5394 0.43743 0.0
C1746 C 0.46439 0.53788 0.40969 0.0
C1747 C 0.28513 0.65686 0.10165 0.0
C1748 C 0.27814 0.67674 0.0763 0.0
C1749 C 0.27857 0.66888 0.12962 0.0
C1750 C 0.26461 0.70126 0.13342 0.0
H1751 H 0.29619 0.63182 0.09999 0.0
H1752 H 0.28546 0.65305 0.14846 0.0
S1753 S 0.23917 0.76235 0.07413 0.0
N1754 N 0.25496 0.7298 0.05669 0.0
N1755 N 0.24221 0.75231 0.1094 0.0
C1756 C 0.25672 0.72114 0.10825 0.0
C1757 C 0.26358 0.70894 0.07967 0.0
C1758 C 0.08821 0.51986 0.89021 0.0
C1759 C 0.121 0.50865 0.89002 0.0
C1760 C 0.06953 0.51633 0.91539 0.0
C1761 C 0.08254 0.50043 0.94106 0.0
H1762 H 0.07711 0.53227 0.87097 0.0
H1763 H 0.04485 0.5265 0.91488 0.0
S1764 S 0.16698 0.4662 0.95188 0.0
N1765 N 0.16558 0.48095 0.91781 0.0
N1766 N 0.13038 0.47343 0.9647 0.0
C1767 C 0.11506 0.48839 0.94092 0.0
C1768 C 0.13429 0.49274 0.91554 0.0
C1769 C 0.34875 0.41073 0.62884 0.0
C1770 C 0.35651 0.39834 0.60117 0.0
C1771 C 0.35236 0.39012 0.65386 0.0
C1772 C 0.36355 0.35629 0.65196 0.0
H1773 H 0.33738 0.43557 0.63085 0.0
H1774 H 0.34353 0.3998 0.67431 0.0
S1775 S 0.39307 0.31417 0.58544 0.0
N1776 N 0.38054 0.35221 0.57378 0.0
N1777 N 0.38713 0.31311 0.62111 0.0
C1778 C 0.37456 0.34481 0.62493 0.0
C1779 C 0.37122 0.36604 0.59941 0.0
C1780 C 0.45034 0.46546 0.21484 0.0
C1781 C 0.45589 0.4947 0.23186 0.0
C1782 C 0.4649 0.46154 0.18769 0.0
C1783 C 0.48536 0.48683 0.17647 0.0
H1784 H 0.43491 0.44523 0.22271 0.0
H1785 H 0.46027 0.43844 0.17548 0.0
S1786 S 0.50508 0.56971 0.2113 0.0
N1787 N 0.48195 0.55003 0.23504 0.0
N1788 N 0.50844 0.54331 0.18361 0.0
C1789 C 0.49052 0.51654 0.19305 0.0
C1790 C 0.47602 0.52031 0.22084 0.0
C1791 C 0.27219 0.70021 0.90076 0.0
C1792 C 0.30019 0.69372 0.91879 0.0
C1793 C 0.27392 0.7194 0.87463 0.0
C1794 C 0.30389 0.73206 0.86498 0.0
H1795 H 0.2487 0.69029 0.90685 0.0
H1796 H 0.25175 0.72312 0.86126 0.0
S1797 S 0.38438 0.72222 0.90416 0.0
N1798 N 0.35869 0.7023 0.92553 0.0
N1799 N 0.36218 0.73695 0.87577 0.0
C1800 C 0.33205 0.72591 0.88287 0.0
C1801 C 0.33013 0.70717 0.90994 0.0
C1802 C 0.10705 0.50682 0.71946 0.0
C1803 C 0.11846 0.53441 0.7362 0.0
C1804 C 0.09232 0.51202 0.69163 0.0
C1805 C 0.0889 0.54494 0.67937 0.0
H1806 H 0.10987 0.48097 0.72776 0.0
H1807 H 0.08445 0.48997 0.6792 0.0
S1808 S 0.11409 0.62579 0.71431 0.0
N1809 N 0.12463 0.59602 0.73878 0.0
N1810 N 0.09728 0.60554 0.68608 0.0
C1811 C 0.09976 0.5728 0.69593 0.0
C1812 C 0.11439 0.5676 0.7245 0.0
C1813 C 0.32202 0.3417 0.45506 0.0
C1814 C 0.30463 0.34451 0.48097 0.0
C1815 C 0.3188 0.31296 0.43743 0.0
C1816 C 0.29814 0.2861 0.44511 0.0
H1817 H 0.33739 0.3623 0.44779 0.0
H1818 H 0.3314 0.31237 0.41691 0.0
S1819 S 0.24974 0.2791 0.51179 0.0
N1820 N 0.26797 0.31642 0.51459 0.0
N1821 N 0.26171 0.26262 0.48071 0.0
C1822 C 0.28179 0.28765 0.47144 0.0
C1823 C 0.28515 0.31684 0.48962 0.0
C1824 C 0.36624 0.53805 0.49485 0.0
C1825 C 0.34119 0.5327 0.51455 0.0
C1826 C 0.38996 0.56275 0.5006 0.0
C1827 C 0.38944 0.5821 0.52649 0.0
H1828 H 0.37002 0.52041 0.47716 0.0
H1829 H 0.4115 0.56223 0.48751 0.0
S1830 S 0.32129 0.58758 0.57733 0.0
N1831 N 0.31101 0.5564 0.55485 0.0
N1832 N 0.3565 0.60222 0.566 0.0
C1833 C 0.36078 0.58207 0.54237 0.0
C1834 C 0.33643 0.55713 0.53645 0.0
C1835 C 0.90644 0.06273 0.48825 0.0
C1836 C 0.88684 0.07024 0.51208 0.0
C1837 C 0.93745 0.04755 0.4927 0.0
C1838 C 0.94961 0.03852 0.52106 0.0
H1839 H 0.89845 0.07006 0.46616 0.0
H1840 H 0.95231 0.04352 0.47382 0.0
S1841 S 0.90632 0.04998 0.5905 0.0
N1842 N 0.88088 0.06577 0.56486 0.0
N1843 N 0.93856 0.03641 0.57312 0.0
C1844 C 0.92942 0.04425 0.54488 0.0
C1845 C 0.89822 0.06036 0.54042 0.0
C1846 C 0.707 0.15256 0.31112 0.0
C1847 C 0.72464 0.12174 0.30967 0.0
C1848 C 0.72036 0.18357 0.30178 0.0
C1849 C 0.75199 0.18517 0.29061 0.0
H1850 H 0.68254 0.15281 0.31943 0.0
H1851 H 0.70594 0.20658 0.30398 0.0
S1852 S 0.80832 0.11148 0.28196 0.0
N1853 N 0.77536 0.09468 0.29594 0.0
N1854 N 0.80049 0.15264 0.27842 0.0
C1855 C 0.76978 0.15437 0.28877 0.0
C1856 C 0.75615 0.12282 0.29833 0.0
C1857 C 0.68593 0.98594 0.99427 0.0
C1858 C 0.70512 0.97508 0.01876 0.0
C1859 C 0.65559 0.00114 0.99795 0.0
C1860 C 0.64407 0.00644 0.02616 0.0
H1861 H 0.69277 0.97975 0.9722 0.0
H1862 H 0.64015 0.00655 0.97864 0.0
S1863 S 0.68909 0.99098 0.09701 0.0
N1864 N 0.71371 0.97678 0.07187 0.0
N1865 N 0.65643 0.00598 0.07877 0.0
C1866 C 0.66495 1.00018 0.05069 0.0
C1867 C 0.69575 0.98431 0.04696 0.0
C1868 C 0.34149 0.3986 0.32922 0.0
C1869 C 0.37538 0.40468 0.32852 0.0
C1870 C 0.32909 0.3653 0.32728 0.0
C1871 C 0.35026 0.33741 0.32412 0.0
H1872 H 0.32441 0.4197 0.33019 0.0
H1873 H 0.30287 0.36157 0.32668 0.0
S1874 S 0.44069 0.33904 0.32409 0.0
N1875 N 0.42977 0.37928 0.32723 0.0
N1876 N 0.40631 0.31733 0.32275 0.0
C1877 C 0.38405 0.34296 0.3249 0.0
C1878 C 0.39668 0.37648 0.32735 0.0
C1879 C 0.17388 0.6052 0.00718 0.0
C1880 C 0.20212 0.58456 0.00641 0.0
C1881 C 0.14388 0.59211 0.01593 0.0
C1882 C 0.14062 0.55774 0.02451 0.0
H1883 H 0.17486 0.63187 0.00093 0.0
H1884 H 0.12292 0.60913 0.01552 0.0
S1885 S 0.20721 0.49282 0.02681 0.0
N1886 N 0.22497 0.52794 0.01531 0.0
N1887 N 0.16867 0.50324 0.03176 0.0
C1888 C 0.16876 0.5368 0.02412 0.0
C1889 C 0.19939 0.55017 0.01503 0.0
C1890 C 0.71065 0.9055 0.3251 0.0
C1891 C 0.72617 0.9365 0.31871 0.0
C1892 C 0.72673 0.87399 0.32191 0.0
C1893 C 0.75862 0.87222 0.31135 0.0
H1894 H 0.68577 0.90555 0.33246 0.0
H1895 H 0.71355 0.85081 0.32656 0.0
S1896 S 0.8102 0.94594 0.29184 0.0
N1897 N 0.77573 0.96338 0.30228 0.0
N1898 N 0.80536 0.90435 0.29515 0.0
C1899 C 0.77453 0.90305 0.30522 0.0
C1900 C 0.75848 0.93512 0.30921 0.0
C1901 C 0.86595 0.11206 0.78462 0.0
C1902 C 0.86969 0.09693 0.81264 0.0
C1903 C 0.84842 0.14262 0.78031 0.0
C1904 C 0.83484 0.15969 0.80401 0.0
H1905 H 0.87648 0.10006 0.76581 0.0
H1906 H 0.84647 0.15355 0.75838 0.0
S1907 S 0.83774 0.1307 0.88173 0.0
N1908 N 0.85769 0.10076 0.86433 0.0
N1909 N 0.82609 0.15916 0.85646 0.0
C1910 C 0.83839 0.14486 0.83215 0.0
C1911 C 0.85544 0.11319 0.8364 0.0
loop_
_geom_bond_atom_site_label_1
_geom_bond_atom_site_label_2
_geom_bond_distance
_geom_bond_site_symmetry_2
_ccdc_geom_bond_type
In0 O1 2.294 . S
In0 O2 2.326 . S
In0 O6 2.266 . S
In0 O7 2.326 . S
In0 O8 2.266 . S
In0 O9 2.326 . S
In0 O11 2.294 . S
In0 O12 2.326 . S
O1 In0 2.294 . S
O1 C10 1.240 . S
O2 In0 2.326 . S
O2 C10 1.252 . S
C3 O6 1.252 . S
C3 O7 1.260 . S
C4 O11 1.240 . S
C4 O12 1.252 . S
C5 O8 1.252 . S
C5 O9 1.260 . S
O6 In0 2.266 . S
O6 C3 1.252 . S
O7 In0 2.326 . S
O7 C3 1.260 . S
O8 In0 2.266 . S
O8 C5 1.252 . S
O9 In0 2.326 . S
O9 C5 1.260 . S
C10 O1 1.240 . S
C10 O2 1.252 . S
O11 In0 2.294 . S
O11 C4 1.240 . S
O12 In0 2.326 . S
O12 C4 1.252 . S
In13 O14 2.294 . S
In13 O15 2.326 . S
In13 O19 2.266 . S
In13 O20 2.326 1_455 S
In13 O21 2.266 . S
In13 O22 2.326 . S
In13 O24 2.294 . S
In13 O25 2.326 . S
O14 In13 2.294 . S
O14 C23 1.240 . S
O15 In13 2.326 . S
O15 C23 1.252 . S
C16 O19 1.252 1_655 S
C16 O20 1.260 . S
C17 O24 1.240 . S
C17 O25 1.252 . S
C18 O21 1.252 . S
C18 O22 1.260 . S
O19 In13 2.266 . S
O19 C16 1.252 1_455 S
O20 In13 2.326 1_655 S
O20 C16 1.260 . S
O21 In13 2.266 . S
O21 C18 1.252 . S
O22 In13 2.326 . S
O22 C18 1.260 . S
C23 O14 1.240 . S
C23 O15 1.252 . S
O24 In13 2.294 . S
O24 C17 1.240 . S
O25 In13 2.326 . S
O25 C17 1.252 . S
In26 O27 2.294 . S
In26 O28 2.326 . S
In26 O32 2.266 . S
In26 O33 2.326 . S
In26 O34 2.266 . S
In26 O35 2.326 . S
In26 O37 2.294 . S
In26 O38 2.326 . S
O27 In26 2.294 . S
O27 C36 1.240 . S
O28 In26 2.326 . S
O28 C36 1.252 . S
C29 O32 1.252 . S
C29 O33 1.260 . S
C30 O37 1.240 . S
C30 O38 1.252 . S
C31 O34 1.252 . S
C31 O35 1.260 . S
O32 In26 2.266 . S
O32 C29 1.252 . S
O33 In26 2.326 . S
O33 C29 1.260 . S
O34 In26 2.266 . S
O34 C31 1.252 . S
O35 In26 2.326 . S
O35 C31 1.260 . S
C36 O27 1.240 . S
C36 O28 1.252 . S
O37 In26 2.294 . S
O37 C30 1.240 . S
O38 In26 2.326 . S
O38 C30 1.252 . S
In39 O40 2.294 . S
In39 O41 2.326 . S
In39 O45 2.266 . S
In39 O46 2.326 . S
In39 O47 2.266 . S
In39 O48 2.326 . S
In39 O50 2.294 . S
In39 O51 2.326 . S
O40 In39 2.294 . S
O40 C49 1.240 . S
O41 In39 2.326 . S
O41 C49 1.252 . S
C42 O45 1.252 . S
C42 O46 1.260 . S
C43 O50 1.240 . S
C43 O51 1.252 . S
C44 O47 1.252 . S
C44 O48 1.260 . S
O45 In39 2.266 . S
O45 C42 1.252 . S
O46 In39 2.326 . S
O46 C42 1.260 . S
O47 In39 2.266 . S
O47 C44 1.252 . S
O48 In39 2.326 . S
O48 C44 1.260 . S
C49 O40 1.240 . S
C49 O41 1.252 . S
O50 In39 2.294 . S
O50 C43 1.240 . S
O51 In39 2.326 . S
O51 C43 1.252 . S
In52 O53 2.294 1_545 S
In52 O54 2.326 1_545 S
In52 O58 2.266 . S
In52 O59 2.326 . S
In52 O60 2.266 . S
In52 O61 2.326 . S
In52 O63 2.294 . S
In52 O64 2.326 . S
O53 In52 2.294 1_565 S
O53 C62 1.240 . S
O54 In52 2.326 1_565 S
O54 C62 1.252 . S
C55 O58 1.252 . S
C55 O59 1.260 . S
C56 O63 1.240 . S
C56 O64 1.252 . S
C57 O60 1.252 . S
C57 O61 1.260 . S
O58 In52 2.266 . S
O58 C55 1.252 . S
O59 In52 2.326 . S
O59 C55 1.260 . S
O60 In52 2.266 . S
O60 C57 1.252 . S
O61 In52 2.326 . S
O61 C57 1.260 . S
C62 O53 1.240 . S
C62 O54 1.252 . S
O63 In52 2.294 . S
O63 C56 1.240 . S
O64 In52 2.326 . S
O64 C56 1.252 . S
In65 O66 2.294 . S
In65 O67 2.326 . S
In65 O71 2.266 . S
In65 O72 2.326 . S
In65 O73 2.266 . S
In65 O74 2.326 . S
In65 O76 2.294 . S
In65 O77 2.326 . S
O66 In65 2.294 . S
O66 C75 1.240 . S
O67 In65 2.326 . S
O67 C75 1.252 . S
C68 O71 1.252 . S
C68 O72 1.260 . S
C69 O76 1.240 . S
C69 O77 1.252 . S
C70 O73 1.252 . S
C70 O74 1.260 . S
O71 In65 2.266 . S
O71 C68 1.252 . S
O72 In65 2.326 . S
O72 C68 1.260 . S
O73 In65 2.266 . S
O73 C70 1.252 . S
O74 In65 2.326 . S
O74 C70 1.260 . S
C75 O66 1.240 . S
C75 O67 1.252 . S
O76 In65 2.294 . S
O76 C69 1.240 . S
O77 In65 2.326 . S
O77 C69 1.252 . S
In78 O79 2.294 . S
In78 O80 2.326 . S
In78 O84 2.266 1_545 S
In78 O85 2.326 1_545 S
In78 O86 2.266 . S
In78 O87 2.326 . S
In78 O89 2.294 . S
In78 O90 2.326 . S
O79 In78 2.294 . S
O79 C88 1.240 . S
O80 In78 2.326 . S
O80 C88 1.252 . S
C81 O84 1.252 . S
C81 O85 1.260 . S
C82 O89 1.240 . S
C82 O90 1.252 . S
C83 O86 1.252 . S
C83 O87 1.260 . S
O84 In78 2.266 1_565 S
O84 C81 1.252 . S
O85 In78 2.326 1_565 S
O85 C81 1.260 . S
O86 In78 2.266 . S
O86 C83 1.252 . S
O87 In78 2.326 . S
O87 C83 1.260 . S
C88 O79 1.240 . S
C88 O80 1.252 . S
O89 In78 2.294 . S
O89 C82 1.240 . S
O90 In78 2.326 . S
O90 C82 1.252 . S
In91 O92 2.294 . S
In91 O93 2.326 . S
In91 O97 2.266 . S
In91 O98 2.326 . S
In91 O99 2.266 . S
In91 O100 2.326 1_554 S
In91 O102 2.294 . S
In91 O103 2.326 . S
O92 In91 2.294 . S
O92 C101 1.240 . S
O93 In91 2.326 . S
O93 C101 1.252 . S
C94 O97 1.252 . S
C94 O98 1.260 . S
C95 O102 1.240 . S
C95 O103 1.252 . S
C96 O99 1.252 1_556 S
C96 O100 1.260 . S
O97 In91 2.266 . S
O97 C94 1.252 . S
O98 In91 2.326 . S
O98 C94 1.260 . S
O99 In91 2.266 . S
O99 C96 1.252 1_554 S
O100 In91 2.326 1_556 S
O100 C96 1.260 . S
C101 O92 1.240 . S
C101 O93 1.252 . S
O102 In91 2.294 . S
O102 C95 1.240 . S
O103 In91 2.326 . S
O103 C95 1.252 . S
In104 O105 2.294 . S
In104 O106 2.326 . S
In104 O110 2.266 . S
In104 O111 2.326 . S
In104 O112 2.266 . S
In104 O113 2.326 . S
In104 O115 2.294 . S
In104 O116 2.326 . S
O105 In104 2.294 . S
O105 C114 1.240 . S
O106 In104 2.326 . S
O106 C114 1.252 . S
C107 O110 1.252 . S
C107 O111 1.260 . S
C108 O115 1.240 . S
C108 O116 1.252 . S
C109 O112 1.252 . S
C109 O113 1.260 . S
O110 In104 2.266 . S
O110 C107 1.252 . S
O111 In104 2.326 . S
O111 C107 1.260 . S
O112 In104 2.266 . S
O112 C109 1.252 . S
O113 In104 2.326 . S
O113 C109 1.260 . S
C114 O105 1.240 . S
C114 O106 1.252 . S
O115 In104 2.294 . S
O115 C108 1.240 . S
O116 In104 2.326 . S
O116 C108 1.252 . S
In117 O118 2.294 . S
In117 O119 2.326 . S
In117 O123 2.266 . S
In117 O124 2.326 . S
In117 O125 2.266 . S
In117 O126 2.326 . S
In117 O128 2.294 . S
In117 O129 2.326 . S
O118 In117 2.294 . S
O118 C127 1.240 . S
O119 In117 2.326 . S
O119 C127 1.252 . S
C120 O123 1.252 . S
C120 O124 1.260 . S
C121 O128 1.240 . S
C121 O129 1.252 . S
C122 O125 1.252 . S
C122 O126 1.260 . S
O123 In117 2.266 . S
O123 C120 1.252 . S
O124 In117 2.326 . S
O124 C120 1.260 . S
O125 In117 2.266 . S
O125 C122 1.252 . S
O126 In117 2.326 . S
O126 C122 1.260 . S
C127 O118 1.240 . S
C127 O119 1.252 . S
O128 In117 2.294 . S
O128 C121 1.240 . S
O129 In117 2.326 . S
O129 C121 1.252 . S
In130 O131 2.294 . S
In130 O132 2.326 . S
In130 O136 2.266 . S
In130 O137 2.326 . S
In130 O138 2.266 . S
In130 O139 2.326 . S
In130 O141 2.294 . S
In130 O142 2.326 . S
O131 In130 2.294 . S
O131 C140 1.240 . S
O132 In130 2.326 . S
O132 C140 1.252 . S
C133 O136 1.252 . S
C133 O137 1.260 . S
C134 O141 1.240 . S
C134 O142 1.252 . S
C135 O138 1.252 . S
C135 O139 1.260 . S
O136 In130 2.266 . S
O136 C133 1.252 . S
O137 In130 2.326 . S
O137 C133 1.260 . S
O138 In130 2.266 . S
O138 C135 1.252 . S
O139 In130 2.326 . S
O139 C135 1.260 . S
C140 O131 1.240 . S
C140 O132 1.252 . S
O141 In130 2.294 . S
O141 C134 1.240 . S
O142 In130 2.326 . S
O142 C134 1.252 . S
In143 O144 2.294 . S
In143 O145 2.326 . S
In143 O149 2.266 . S
In143 O150 2.326 . S
In143 O151 2.266 . S
In143 O152 2.326 . S
In143 O154 2.294 . S
In143 O155 2.326 . S
O144 In143 2.294 . S
O144 C153 1.240 . S
O145 In143 2.326 . S
O145 C153 1.252 . S
C146 O149 1.252 . S
C146 O150 1.260 . S
C147 O154 1.240 . S
C147 O155 1.252 . S
C148 O151 1.252 . S
C148 O152 1.260 . S
O149 In143 2.266 . S
O149 C146 1.252 . S
O150 In143 2.326 . S
O150 C146 1.260 . S
O151 In143 2.266 . S
O151 C148 1.252 . S
O152 In143 2.326 . S
O152 C148 1.260 . S
C153 O144 1.240 . S
C153 O145 1.252 . S
O154 In143 2.294 . S
O154 C147 1.240 . S
O155 In143 2.326 . S
O155 C147 1.252 . S
In156 O157 2.296 . S
In156 O158 2.330 . S
In156 O162 2.264 1_455 S
In156 O163 2.322 1_455 S
In156 O164 2.266 1_455 S
In156 O165 2.325 1_455 S
In156 O167 2.294 . S
In156 O168 2.327 . S
O157 In156 2.296 . S
O157 C166 1.240 . S
O158 In156 2.330 . S
O158 C166 1.252 . S
C159 O162 1.252 . S
C159 O163 1.260 . S
C160 O167 1.240 . S
C160 O168 1.252 . S
C161 O164 1.252 . S
C161 O165 1.260 . S
O162 In156 2.264 1_655 S
O162 C159 1.252 . S
O163 In156 2.322 1_655 S
O163 C159 1.260 . S
O164 In156 2.266 1_655 S
O164 C161 1.252 . S
O165 In156 2.325 1_655 S
O165 C161 1.260 . S
C166 O157 1.240 . S
C166 O158 1.252 . S
O167 In156 2.294 . S
O167 C160 1.240 . S
O168 In156 2.327 . S
O168 C160 1.252 . S
In169 O170 2.294 . S
In169 O171 2.326 . S
In169 O175 2.266 . S
In169 O176 2.326 . S
In169 O177 2.266 . S
In169 O178 2.326 1_455 S
In169 O180 2.294 . S
In169 O181 2.326 . S
O170 In169 2.294 . S
O170 C179 1.240 . S
O171 In169 2.326 . S
O171 C179 1.252 . S
C172 O175 1.252 . S
C172 O176 1.260 . S
C173 O180 1.240 . S
C173 O181 1.252 . S
C174 O177 1.252 1_655 S
C174 O178 1.260 . S
O175 In169 2.266 . S
O175 C172 1.252 . S
O176 In169 2.326 . S
O176 C172 1.260 . S
O177 In169 2.266 . S
O177 C174 1.252 1_455 S
O178 In169 2.326 1_655 S
O178 C174 1.260 . S
C179 O170 1.240 . S
C179 O171 1.252 . S
O180 In169 2.294 . S
O180 C173 1.240 . S
O181 In169 2.326 . S
O181 C173 1.252 . S
In182 O183 2.294 . S
In182 O184 2.326 . S
In182 O188 2.266 . S
In182 O189 2.326 . S
In182 O190 2.266 . S
In182 O191 2.326 . S
In182 O193 2.294 . S
In182 O194 2.326 . S
O183 In182 2.294 . S
O183 C192 1.240 . S
O184 In182 2.326 . S
O184 C192 1.252 . S
C185 O188 1.252 . S
C185 O189 1.260 . S
C186 O193 1.240 . S
C186 O194 1.252 . S
C187 O190 1.252 . S
C187 O191 1.260 . S
O188 In182 2.266 . S
O188 C185 1.252 . S
O189 In182 2.326 . S
O189 C185 1.260 . S
O190 In182 2.266 . S
O190 C187 1.252 . S
O191 In182 2.326 . S
O191 C187 1.260 . S
C192 O183 1.240 . S
C192 O184 1.252 . S
O193 In182 2.294 . S
O193 C186 1.240 . S
O194 In182 2.326 . S
O194 C186 1.252 . S
In195 O196 2.294 . S
In195 O197 2.326 . S
In195 O201 2.266 . S
In195 O202 2.326 . S
In195 O203 2.266 . S
In195 O204 2.326 . S
In195 O206 2.294 . S
In195 O207 2.326 . S
O196 In195 2.294 . S
O196 C205 1.240 . S
O197 In195 2.326 . S
O197 C205 1.252 . S
C198 O201 1.252 . S
C198 O202 1.260 . S
C199 O206 1.240 . S
C199 O207 1.252 . S
C200 O203 1.252 . S
C200 O204 1.260 . S
O201 In195 2.266 . S
O201 C198 1.252 . S
O202 In195 2.326 . S
O202 C198 1.260 . S
O203 In195 2.266 . S
O203 C200 1.252 . S
O204 In195 2.326 . S
O204 C200 1.260 . S
C205 O196 1.240 . S
C205 O197 1.252 . S
O206 In195 2.294 . S
O206 C199 1.240 . S
O207 In195 2.326 . S
O207 C199 1.252 . S
In208 O209 2.294 . S
In208 O210 2.326 . S
In208 O214 2.266 1_545 S
In208 O215 2.327 . S
In208 O216 2.266 1_545 S
In208 O217 2.326 1_545 S
In208 O219 2.294 . S
In208 O220 2.326 . S
O209 In208 2.294 . S
O209 C218 1.240 . S
O210 In208 2.326 . S
O210 C218 1.252 . S
C211 O214 1.252 . S
C211 O215 1.259 1_565 S
C212 O219 1.240 . S
C212 O220 1.252 . S
C213 O216 1.252 . S
C213 O217 1.260 . S
O214 In208 2.266 1_565 S
O214 C211 1.252 . S
O215 In208 2.327 . S
O215 C211 1.259 1_545 S
O216 In208 2.266 1_565 S
O216 C213 1.252 . S
O217 In208 2.326 1_565 S
O217 C213 1.260 . S
C218 O209 1.240 . S
C218 O210 1.252 . S
O219 In208 2.294 . S
O219 C212 1.240 . S
O220 In208 2.326 . S
O220 C212 1.252 . S
In221 O222 2.294 . S
In221 O223 2.326 . S
In221 O227 2.266 . S
In221 O228 2.326 . S
In221 O229 2.266 . S
In221 O230 2.326 . S
In221 O232 2.294 . S
In221 O233 2.326 . S
O222 In221 2.294 . S
O222 C231 1.240 . S
O223 In221 2.326 . S
O223 C231 1.252 . S
C224 O227 1.252 . S
C224 O228 1.260 . S
C225 O232 1.240 . S
C225 O233 1.252 . S
C226 O229 1.252 . S
C226 O230 1.260 . S
O227 In221 2.266 . S
O227 C224 1.252 . S
O228 In221 2.326 . S
O228 C224 1.260 . S
O229 In221 2.266 . S
O229 C226 1.252 . S
O230 In221 2.326 . S
O230 C226 1.260 . S
C231 O222 1.240 . S
C231 O223 1.252 . S
O232 In221 2.294 . S
O232 C225 1.240 . S
O233 In221 2.326 . S
O233 C225 1.252 . S
In234 O235 2.294 1_545 S
In234 O236 2.326 1_545 S
In234 O240 2.266 . S
In234 O241 2.326 . S
In234 O242 2.266 . S
In234 O243 2.326 . S
In234 O245 2.294 . S
In234 O246 2.326 . S
O235 In234 2.294 1_565 S
O235 C244 1.240 . S
O236 In234 2.326 1_565 S
O236 C244 1.252 . S
C237 O240 1.252 . S
C237 O241 1.260 . S
C238 O245 1.240 . S
C238 O246 1.252 . S
C239 O242 1.252 . S
C239 O243 1.260 . S
O240 In234 2.266 . S
O240 C237 1.252 . S
O241 In234 2.326 . S
O241 C237 1.260 . S
O242 In234 2.266 . S
O242 C239 1.252 . S
O243 In234 2.326 . S
O243 C239 1.260 . S
C244 O235 1.240 . S
C244 O236 1.252 . S
O245 In234 2.294 . S
O245 C238 1.240 . S
O246 In234 2.326 . S
O246 C238 1.252 . S
In247 O248 2.294 . S
In247 O249 2.326 . S
In247 O253 2.266 . S
In247 O254 2.326 . S
In247 O255 2.266 . S
In247 O256 2.326 1_554 S
In247 O258 2.294 . S
In247 O259 2.326 . S
O248 In247 2.294 . S
O248 C257 1.240 . S
O249 In247 2.326 . S
O249 C257 1.252 . S
C250 O253 1.252 . S
C250 O254 1.260 . S
C251 O258 1.240 . S
C251 O259 1.252 . S
C252 O255 1.252 1_556 S
C252 O256 1.260 . S
O253 In247 2.266 . S
O253 C250 1.252 . S
O254 In247 2.326 . S
O254 C250 1.260 . S
O255 In247 2.266 . S
O255 C252 1.252 1_554 S
O256 In247 2.326 1_556 S
O256 C252 1.260 . S
C257 O248 1.240 . S
C257 O249 1.252 . S
O258 In247 2.294 . S
O258 C251 1.240 . S
O259 In247 2.326 . S
O259 C251 1.252 . S
In260 O261 2.305 . S
In260 O262 2.343 . S
In260 O266 2.255 1_554 S
In260 O267 2.309 1_554 S
In260 O268 2.264 1_554 S
In260 O269 2.325 1_554 S
In260 O271 2.296 . S
In260 O272 2.327 . S
O261 In260 2.305 . S
O261 C270 1.240 . S
O262 In260 2.343 . S
O262 C270 1.252 . S
C263 O266 1.252 . S
C263 O267 1.260 . S
C264 O271 1.240 . S
C264 O272 1.252 . S
C265 O268 1.252 . S
C265 O269 1.260 . S
O266 In260 2.255 1_556 S
O266 C263 1.252 . S
O267 In260 2.309 1_556 S
O267 C263 1.260 . S
O268 In260 2.264 1_556 S
O268 C265 1.252 . S
O269 In260 2.325 1_556 S
O269 C265 1.260 . S
C270 O261 1.240 . S
C270 O262 1.252 . S
O271 In260 2.296 . S
O271 C264 1.240 . S
O272 In260 2.327 . S
O272 C264 1.252 . S
In273 O274 2.294 . S
In273 O275 2.326 . S
In273 O279 2.266 . S
In273 O280 2.326 . S
In273 O281 2.266 . S
In273 O282 2.326 . S
In273 O284 2.294 . S
In273 O285 2.326 . S
O274 In273 2.294 . S
O274 C283 1.240 . S
O275 In273 2.326 . S
O275 C283 1.252 . S
C276 O279 1.252 . S
C276 O280 1.260 . S
C277 O284 1.240 . S
C277 O285 1.252 . S
C278 O281 1.252 . S
C278 O282 1.260 . S
O279 In273 2.266 . S
O279 C276 1.252 . S
O280 In273 2.326 . S
O280 C276 1.260 . S
O281 In273 2.266 . S
O281 C278 1.252 . S
O282 In273 2.326 . S
O282 C278 1.260 . S
C283 O274 1.240 . S
C283 O275 1.252 . S
O284 In273 2.294 . S
O284 C277 1.240 . S
O285 In273 2.326 . S
O285 C277 1.252 . S
In286 O287 2.294 . S
In286 O288 2.326 . S
In286 O292 2.266 . S
In286 O293 2.326 . S
In286 O294 2.266 . S
In286 O295 2.326 . S
In286 O297 2.294 . S
In286 O298 2.326 . S
O287 In286 2.294 . S
O287 C296 1.240 . S
O288 In286 2.326 . S
O288 C296 1.252 . S
C289 O292 1.252 . S
C289 O293 1.260 . S
C290 O297 1.240 . S
C290 O298 1.252 . S
C291 O294 1.252 . S
C291 O295 1.260 . S
O292 In286 2.266 . S
O292 C289 1.252 . S
O293 In286 2.326 . S
O293 C289 1.260 . S
O294 In286 2.266 . S
O294 C291 1.252 . S
O295 In286 2.326 . S
O295 C291 1.260 . S
C296 O287 1.240 . S
C296 O288 1.252 . S
O297 In286 2.294 . S
O297 C290 1.240 . S
O298 In286 2.326 . S
O298 C290 1.252 . S
In299 O300 2.294 . S
In299 O301 2.326 . S
In299 O305 2.266 . S
In299 O306 2.326 . S
In299 O307 2.266 . S
In299 O308 2.326 . S
In299 O310 2.294 . S
In299 O311 2.326 . S
O300 In299 2.294 . S
O300 C309 1.240 . S
O301 In299 2.326 . S
O301 C309 1.252 . S
C302 O305 1.252 . S
C302 O306 1.260 . S
C303 O310 1.240 . S
C303 O311 1.252 . S
C304 O307 1.252 . S
C304 O308 1.260 . S
O305 In299 2.266 . S
O305 C302 1.252 . S
O306 In299 2.326 . S
O306 C302 1.260 . S
O307 In299 2.266 . S
O307 C304 1.252 . S
O308 In299 2.326 . S
O308 C304 1.260 . S
C309 O300 1.240 . S
C309 O301 1.252 . S
O310 In299 2.294 . S
O310 C303 1.240 . S
O311 In299 2.326 . S
O311 C303 1.252 . S
C312 O328 1.251 1_455 S
C312 O330 1.254 . S
N313 C314 1.333 1_565 S
N313 C318 1.307 . S
N313 Zn319 2.018 1_665 S
C314 N313 1.333 1_545 S
C314 C315 1.379 . S
C314 H332 0.952 . S
C315 C314 1.379 . S
C315 C316 1.390 1_545 S
C315 H342 0.949 . S
C316 C315 1.390 1_565 S
C316 C317 1.357 . S
C317 C316 1.357 . S
C317 C318 1.370 . S
C317 H343 0.950 . S
C318 N313 1.307 . S
C318 C317 1.370 . S
C318 H336 0.948 . S
Zn319 N313 2.018 1_445 S
Zn319 O328 2.043 1_454 S
Zn319 O334 2.045 . S
Zn319 O338 2.022 1_545 S
Zn319 O340 2.015 1_545 S
C320 O339 1.246 . S
C320 O340 1.249 . S
N321 C322 1.307 1_554 S
N321 C323 1.333 . S
N321 Zn327 2.020 . S
C322 N321 1.307 1_556 S
C322 C326 1.370 . S
C322 H333 0.948 . S
C323 N321 1.333 . S
C323 C324 1.379 . S
C323 H331 0.952 1_545 S
C324 C323 1.379 . S
C324 C325 1.390 1_554 S
C324 H344 0.949 . S
C325 C324 1.390 1_556 S
C325 C326 1.357 . S
C326 C322 1.370 . S
C326 C325 1.357 . S
C326 H345 0.950 . S
Zn327 N321 2.020 . S
Zn327 O330 2.025 1_554 S
Zn327 O335 2.024 . S
Zn327 O337 2.039 . S
Zn327 O339 2.034 1_545 S
O328 C312 1.251 1_655 S
O328 Zn319 2.043 1_656 S
C329 O334 1.246 . S
C329 O335 1.249 . S
O330 C312 1.254 . S
O330 Zn327 2.025 1_556 S
H331 C323 0.952 1_565 S
H332 C314 0.952 . S
H333 C322 0.948 . S
O334 Zn319 2.045 . S
O334 C329 1.246 . S
O335 Zn327 2.024 . S
O335 C329 1.249 . S
H336 C318 0.948 . S
O337 Zn327 2.039 . S
O337 C341 1.251 1_545 S
O338 Zn319 2.022 1_565 S
O338 C341 1.254 . S
O339 C320 1.246 . S
O339 Zn327 2.034 1_565 S
O340 Zn319 2.015 1_565 S
O340 C320 1.249 . S
C341 O337 1.251 1_565 S
C341 O338 1.254 . S
H342 C315 0.949 . S
H343 C317 0.950 . S
H344 C324 0.949 . S
H345 C326 0.950 . S
C346 O362 1.251 . S
C346 O364 1.254 . S
N347 C348 1.333 . S
N347 C352 1.307 . S
N347 Zn353 2.020 . S
C348 N347 1.333 . S
C348 C349 1.379 . S
C348 H366 0.952 . S
C349 C348 1.379 . S
C349 C350 1.390 . S
C349 H376 0.949 . S
C350 C349 1.390 . S
C350 C351 1.357 . S
C351 C350 1.357 . S
C351 C352 1.370 . S
C351 H377 0.950 . S
C352 N347 1.307 . S
C352 C351 1.370 . S
C352 H370 0.948 . S
Zn353 N347 2.020 . S
Zn353 O362 2.039 . S
Zn353 O368 2.034 . S
Zn353 O372 2.025 . S
Zn353 O374 2.024 . S
C354 O373 1.246 . S
C354 O374 1.249 . S
N355 C356 1.307 . S
N355 C357 1.333 . S
N355 Zn361 2.020 . S
C356 N355 1.307 . S
C356 C360 1.370 . S
C356 H367 0.948 . S
C357 N355 1.333 . S
C357 C358 1.379 . S
C357 H365 0.952 . S
C358 C357 1.379 . S
C358 C359 1.390 . S
C358 H378 0.949 . S
C359 C358 1.390 . S
C359 C360 1.357 . S
C360 C356 1.370 . S
C360 C359 1.357 . S
C360 H379 0.950 . S
Zn361 N355 2.020 . S
Zn361 O364 2.025 . S
Zn361 O369 2.024 . S
Zn361 O371 2.039 . S
Zn361 O373 2.034 . S
O362 C346 1.251 . S
O362 Zn353 2.039 . S
C363 O368 1.246 . S
C363 O369 1.249 . S
O364 C346 1.254 . S
O364 Zn361 2.025 . S
H365 C357 0.952 . S
H366 C348 0.952 . S
H367 C356 0.948 . S
O368 Zn353 2.034 . S
O368 C363 1.246 . S
O369 Zn361 2.024 . S
O369 C363 1.249 . S
H370 C352 0.948 . S
O371 Zn361 2.039 . S
O371 C375 1.251 . S
O372 Zn353 2.025 . S
O372 C375 1.254 . S
O373 C354 1.246 . S
O373 Zn361 2.034 . S
O374 Zn353 2.024 . S
O374 C354 1.249 . S
C375 O371 1.251 . S
C375 O372 1.254 . S
H376 C349 0.949 . S
H377 C351 0.950 . S
H378 C358 0.949 . S
H379 C360 0.950 . S
C380 O396 1.251 . S
C380 O398 1.254 . S
N381 C382 1.333 . S
N381 C386 1.307 . S
N381 Zn387 2.020 . S
C382 N381 1.333 . S
C382 C383 1.379 . S
C382 H400 0.952 . S
C383 C382 1.379 . S
C383 C384 1.390 . S
C383 H410 0.949 . S
C384 C383 1.390 . S
C384 C385 1.357 . S
C385 C384 1.357 . S
C385 C386 1.370 . S
C385 H411 0.950 . S
C386 N381 1.307 . S
C386 C385 1.370 . S
C386 H404 0.948 . S
Zn387 N381 2.020 . S
Zn387 O396 2.039 1_565 S
Zn387 O402 2.034 1_565 S
Zn387 O406 2.025 . S
Zn387 O408 2.024 . S
C388 O407 1.246 1_565 S
C388 O408 1.249 . S
N389 C390 1.307 . S
N389 C391 1.333 . S
N389 Zn395 2.020 . S
C390 N389 1.307 . S
C390 C394 1.370 . S
C390 H401 0.948 . S
C391 N389 1.333 . S
C391 C392 1.379 . S
C391 H399 0.952 . S
C392 C391 1.379 . S
C392 C393 1.390 . S
C392 H412 0.949 . S
C393 C392 1.390 . S
C393 C394 1.357 . S
C394 C390 1.370 . S
C394 C393 1.357 . S
C394 H413 0.950 . S
Zn395 N389 2.020 . S
Zn395 O398 2.025 . S
Zn395 O403 2.024 . S
Zn395 O405 2.039 . S
Zn395 O407 2.034 . S
O396 C380 1.251 . S
O396 Zn387 2.039 1_545 S
C397 O402 1.246 . S
C397 O403 1.249 . S
O398 C380 1.254 . S
O398 Zn395 2.025 . S
H399 C391 0.952 . S
H400 C382 0.952 . S
H401 C390 0.948 . S
O402 Zn387 2.034 1_545 S
O402 C397 1.246 . S
O403 Zn395 2.024 . S
O403 C397 1.249 . S
H404 C386 0.948 . S
O405 Zn395 2.039 . S
O405 C409 1.251 . S
O406 Zn387 2.025 . S
O406 C409 1.254 1_565 S
O407 C388 1.246 1_545 S
O407 Zn395 2.034 . S
O408 Zn387 2.024 . S
O408 C388 1.249 . S
C409 O405 1.251 . S
C409 O406 1.254 1_545 S
H410 C383 0.949 . S
H411 C385 0.950 . S
H412 C392 0.949 . S
H413 C394 0.950 . S
C414 O430 1.251 . S
C414 O432 1.254 . S
N415 C416 1.333 . S
N415 C420 1.307 . S
N415 Zn421 2.020 . S
C416 N415 1.333 . S
C416 C417 1.379 . S
C416 H434 0.952 . S
C417 C416 1.379 . S
C417 C418 1.390 . S
C417 H444 0.949 . S
C418 C417 1.390 . S
C418 C419 1.357 . S
C419 C418 1.357 . S
C419 C420 1.370 . S
C419 H445 0.950 . S
C420 N415 1.307 . S
C420 C419 1.370 . S
C420 H438 0.948 . S
Zn421 N415 2.020 . S
Zn421 O430 2.039 . S
Zn421 O436 2.034 . S
Zn421 O440 2.025 . S
Zn421 O442 2.024 . S
C422 O441 1.246 . S
C422 O442 1.249 . S
N423 C424 1.307 . S
N423 C425 1.333 . S
N423 Zn429 2.020 . S
C424 N423 1.307 . S
C424 C428 1.370 . S
C424 H435 0.948 . S
C425 N423 1.333 . S
C425 C426 1.379 . S
C425 H433 0.952 . S
C426 C425 1.379 . S
C426 C427 1.390 . S
C426 H446 0.949 . S
C427 C426 1.390 . S
C427 C428 1.357 . S
C428 C424 1.370 . S
C428 C427 1.357 . S
C428 H447 0.950 . S
Zn429 N423 2.020 . S
Zn429 O432 2.025 . S
Zn429 O437 2.024 . S
Zn429 O439 2.039 . S
Zn429 O441 2.034 . S
O430 C414 1.251 . S
O430 Zn421 2.039 . S
C431 O436 1.246 . S
C431 O437 1.249 . S
O432 C414 1.254 . S
O432 Zn429 2.025 . S
H433 C425 0.952 . S
H434 C416 0.952 . S
H435 C424 0.948 . S
O436 Zn421 2.034 . S
O436 C431 1.246 . S
O437 Zn429 2.024 . S
O437 C431 1.249 . S
H438 C420 0.948 . S
O439 Zn429 2.039 . S
O439 C443 1.251 . S
O440 Zn421 2.025 . S
O440 C443 1.254 . S
O441 C422 1.246 . S
O441 Zn429 2.034 . S
O442 Zn421 2.024 . S
O442 C422 1.249 . S
C443 O439 1.251 . S
C443 O440 1.254 . S
H444 C417 0.949 . S
H445 C419 0.950 . S
H446 C426 0.949 . S
H447 C428 0.950 . S
C448 O464 1.251 1_565 S
C448 O466 1.254 . S
N449 C450 1.333 . S
N449 C454 1.307 . S
N449 Zn455 2.020 . S
C450 N449 1.333 . S
C450 C451 1.379 . S
C450 H468 0.952 . S
C451 C450 1.379 . S
C451 C452 1.390 . S
C451 H478 0.949 . S
C452 C451 1.390 . S
C452 C453 1.357 . S
C453 C452 1.357 . S
C453 C454 1.370 . S
C453 H479 0.950 . S
C454 N449 1.307 . S
C454 C453 1.370 . S
C454 H472 0.948 . S
Zn455 N449 2.020 . S
Zn455 O464 2.039 . S
Zn455 O470 2.034 . S
Zn455 O474 2.025 . S
Zn455 O476 2.024 1_545 S
C456 O475 1.246 . S
C456 O476 1.249 . S
N457 C458 1.307 . S
N457 C459 1.333 1_455 S
N457 Zn463 2.020 1_565 S
C458 N457 1.307 . S
C458 C462 1.370 . S
C458 H469 0.948 1_565 S
C459 N457 1.333 1_655 S
C459 C460 1.379 . S
C459 H467 0.952 . S
C460 C459 1.379 . S
C460 C461 1.390 . S
C460 H480 0.949 . S
C461 C460 1.390 . S
C461 C462 1.357 1_655 S
C462 C458 1.370 . S
C462 C461 1.357 1_455 S
C462 H481 0.950 . S
Zn463 N457 2.020 1_545 S
Zn463 O466 2.025 1_545 S
Zn463 O471 2.024 . S
Zn463 O473 2.039 1_455 S
Zn463 O475 2.034 1_545 S
O464 C448 1.251 1_545 S
O464 Zn455 2.039 . S
C465 O470 1.246 . S
C465 O471 1.249 . S
O466 C448 1.254 . S
O466 Zn463 2.025 1_565 S
H467 C459 0.952 . S
H468 C450 0.952 . S
H469 C458 0.948 1_545 S
O470 Zn455 2.034 . S
O470 C465 1.246 . S
O471 Zn463 2.024 . S
O471 C465 1.249 . S
H472 C454 0.948 . S
O473 Zn463 2.039 1_655 S
O473 C477 1.251 . S
O474 Zn455 2.025 . S
O474 C477 1.254 1_455 S
O475 C456 1.246 . S
O475 Zn463 2.034 1_565 S
O476 Zn455 2.024 1_565 S
O476 C456 1.249 . S
C477 O473 1.251 . S
C477 O474 1.254 1_655 S
H478 C451 0.949 . S
H479 C453 0.950 . S
H480 C460 0.949 . S
H481 C462 0.950 . S
C482 O498 1.251 . S
C482 O500 1.254 . S
N483 C484 1.333 . S
N483 C488 1.307 . S
N483 Zn489 2.020 . S
C484 N483 1.333 . S
C484 C485 1.379 . S
C484 H502 0.952 . S
C485 C484 1.379 . S
C485 C486 1.390 . S
C485 H512 0.949 . S
C486 C485 1.390 . S
C486 C487 1.357 . S
C487 C486 1.357 . S
C487 C488 1.370 . S
C487 H513 0.950 . S
C488 N483 1.307 . S
C488 C487 1.370 . S
C488 H506 0.948 . S
Zn489 N483 2.020 . S
Zn489 O498 2.039 . S
Zn489 O504 2.034 . S
Zn489 O508 2.025 . S
Zn489 O510 2.024 . S
C490 O509 1.246 . S
C490 O510 1.249 . S
N491 C492 1.307 . S
N491 C493 1.333 . S
N491 Zn497 2.020 . S
C492 N491 1.307 . S
C492 C496 1.370 . S
C492 H503 0.948 . S
C493 N491 1.333 . S
C493 C494 1.379 . S
C493 H501 0.952 . S
C494 C493 1.379 . S
C494 C495 1.390 . S
C494 H514 0.949 . S
C495 C494 1.390 . S
C495 C496 1.357 . S
C496 C492 1.370 . S
C496 C495 1.357 . S
C496 H515 0.950 . S
Zn497 N491 2.020 . S
Zn497 O500 2.025 . S
Zn497 O505 2.024 . S
Zn497 O507 2.039 . S
Zn497 O509 2.034 . S
O498 C482 1.251 . S
O498 Zn489 2.039 . S
C499 O504 1.246 . S
C499 O505 1.249 . S
O500 C482 1.254 . S
O500 Zn497 2.025 . S
H501 C493 0.952 . S
H502 C484 0.952 . S
H503 C492 0.948 . S
O504 Zn489 2.034 . S
O504 C499 1.246 . S
O505 Zn497 2.024 . S
O505 C499 1.249 . S
H506 C488 0.948 . S
O507 Zn497 2.039 . S
O507 C511 1.251 . S
O508 Zn489 2.025 . S
O508 C511 1.254 . S
O509 C490 1.246 . S
O509 Zn497 2.034 . S
O510 Zn489 2.024 . S
O510 C490 1.249 . S
C511 O507 1.251 . S
C511 O508 1.254 . S
H512 C485 0.949 . S
H513 C487 0.950 . S
H514 C494 0.949 . S
H515 C496 0.950 . S
C516 O532 1.251 . S
C516 O534 1.254 . S
N517 C518 1.333 . S
N517 C522 1.307 . S
N517 Zn523 2.020 . S
C518 N517 1.333 . S
C518 C519 1.379 . S
C518 H536 0.952 1_545 S
C519 C518 1.379 . S
C519 C520 1.390 . S
C519 H546 0.949 . S
C520 C519 1.390 . S
C520 C521 1.357 . S
C521 C520 1.357 . S
C521 C522 1.370 . S
C521 H547 0.950 . S
C522 N517 1.307 . S
C522 C521 1.370 . S
C522 H540 0.948 . S
Zn523 N517 2.020 . S
Zn523 O532 2.039 1_545 S
Zn523 O538 2.034 . S
Zn523 O542 2.025 . S
Zn523 O544 2.014 1_545 S
C524 O543 1.246 . S
C524 O544 1.262 . S
N525 C526 1.307 . S
N525 C527 1.333 . S
N525 Zn531 2.020 1_556 S
C526 N525 1.307 . S
C526 C530 1.370 . S
C526 H537 0.948 . S
C527 N525 1.333 . S
C527 C528 1.379 . S
C527 H535 0.952 1_565 S
C528 C527 1.379 . S
C528 C529 1.390 . S
C528 H548 0.949 1_565 S
C529 C528 1.390 . S
C529 C530 1.357 . S
C530 C526 1.370 . S
C530 C529 1.357 . S
C530 H549 0.950 . S
Zn531 N525 2.020 1_554 S
Zn531 O534 2.025 . S
Zn531 O539 2.024 1_565 S
Zn531 O541 2.039 1_564 S
Zn531 O543 2.034 . S
O532 C516 1.251 . S
O532 Zn523 2.039 1_565 S
C533 O538 1.246 . S
C533 O539 1.249 . S
O534 C516 1.254 . S
O534 Zn531 2.025 . S
H535 C527 0.952 1_545 S
H536 C518 0.952 1_565 S
H537 C526 0.948 . S
O538 Zn523 2.034 . S
O538 C533 1.246 . S
O539 Zn531 2.024 1_545 S
O539 C533 1.249 . S
H540 C522 0.948 . S
O541 Zn531 2.039 1_546 S
O541 C545 1.251 1_556 S
O542 Zn523 2.025 . S
O542 C545 1.254 . S
O543 C524 1.246 . S
O543 Zn531 2.034 . S
O544 Zn523 2.014 1_565 S
O544 C524 1.262 . S
C545 O541 1.251 1_554 S
C545 O542 1.254 . S
H546 C519 0.949 . S
H547 C521 0.950 . S
H548 C528 0.949 1_545 S
H549 C530 0.950 . S
C550 O566 1.251 . S
C550 O568 1.254 . S
N551 C552 1.333 . S
N551 C556 1.307 . S
N551 Zn557 2.020 . S
C552 N551 1.333 . S
C552 C553 1.379 . S
C552 H570 0.952 . S
C553 C552 1.379 . S
C553 C554 1.390 . S
C553 H580 0.949 . S
C554 C553 1.390 . S
C554 C555 1.357 . S
C555 C554 1.357 . S
C555 C556 1.370 . S
C555 H581 0.950 . S
C556 N551 1.307 . S
C556 C555 1.370 . S
C556 H574 0.948 . S
Zn557 N551 2.020 . S
Zn557 O566 2.039 . S
Zn557 O572 2.034 . S
Zn557 O576 2.025 . S
Zn557 O578 2.024 . S
C558 O577 1.246 . S
C558 O578 1.249 . S
N559 C560 1.307 . S
N559 C561 1.333 . S
N559 Zn565 2.020 . S
C560 N559 1.307 . S
C560 C564 1.370 . S
C560 H571 0.948 . S
C561 N559 1.333 . S
C561 C562 1.379 . S
C561 H569 0.952 . S
C562 C561 1.379 . S
C562 C563 1.390 . S
C562 H582 0.949 . S
C563 C562 1.390 . S
C563 C564 1.357 . S
C564 C560 1.370 . S
C564 C563 1.357 . S
C564 H583 0.950 . S
Zn565 N559 2.020 . S
Zn565 O568 2.025 . S
Zn565 O573 2.024 . S
Zn565 O575 2.039 . S
Zn565 O577 2.034 . S
O566 C550 1.251 . S
O566 Zn557 2.039 . S
C567 O572 1.246 . S
C567 O573 1.249 . S
O568 C550 1.254 . S
O568 Zn565 2.025 . S
H569 C561 0.952 . S
H570 C552 0.952 . S
H571 C560 0.948 . S
O572 Zn557 2.034 . S
O572 C567 1.246 . S
O573 Zn565 2.024 . S
O573 C567 1.249 . S
H574 C556 0.948 . S
O575 Zn565 2.039 . S
O575 C579 1.251 . S
O576 Zn557 2.025 . S
O576 C579 1.254 . S
O577 C558 1.246 . S
O577 Zn565 2.034 . S
O578 Zn557 2.024 . S
O578 C558 1.249 . S
C579 O575 1.251 . S
C579 O576 1.254 . S
H580 C553 0.949 . S
H581 C555 0.950 . S
H582 C562 0.949 . S
H583 C564 0.950 . S
C584 O600 1.251 . S
C584 O602 1.254 . S
N585 C586 1.333 . S
N585 C590 1.307 . S
N585 Zn591 2.020 1_556 S
C586 N585 1.333 . S
C586 C587 1.379 . S
C586 H604 0.952 . S
C587 C586 1.379 . S
C587 C588 1.390 . S
C587 H614 0.949 . S
C588 C587 1.390 . S
C588 C589 1.357 . S
C589 C588 1.357 . S
C589 C590 1.370 . S
C589 H615 0.950 . S
C590 N585 1.307 . S
C590 C589 1.370 . S
C590 H608 0.948 . S
Zn591 N585 2.020 1_554 S
Zn591 O600 2.039 . S
Zn591 O606 2.034 . S
Zn591 O610 2.025 . S
Zn591 O612 2.024 1_554 S
C592 O611 1.246 . S
C592 O612 1.249 1_554 S
N593 C594 1.307 . S
N593 C595 1.333 . S
N593 Zn599 2.020 . S
C594 N593 1.307 . S
C594 C598 1.370 . S
C594 H605 0.948 . S
C595 N593 1.333 . S
C595 C596 1.379 . S
C595 H603 0.952 . S
C596 C595 1.379 . S
C596 C597 1.390 . S
C596 H616 0.949 . S
C597 C596 1.390 . S
C597 C598 1.357 . S
C598 C594 1.370 . S
C598 C597 1.357 . S
C598 H617 0.950 . S
Zn599 N593 2.020 . S
Zn599 O602 2.025 . S
Zn599 O607 2.024 . S
Zn599 O609 2.039 . S
Zn599 O611 2.034 . S
O600 C584 1.251 . S
O600 Zn591 2.039 . S
C601 O606 1.246 . S
C601 O607 1.249 . S
O602 C584 1.254 . S
O602 Zn599 2.025 . S
H603 C595 0.952 . S
H604 C586 0.952 . S
H605 C594 0.948 . S
O606 Zn591 2.034 . S
O606 C601 1.246 . S
O607 Zn599 2.024 . S
O607 C601 1.249 . S
H608 C590 0.948 . S
O609 Zn599 2.039 . S
O609 C613 1.251 . S
O610 Zn591 2.025 . S
O610 C613 1.254 . S
O611 C592 1.246 . S
O611 Zn599 2.034 . S
O612 Zn591 2.024 1_556 S
O612 C592 1.249 1_556 S
C613 O609 1.251 . S
C613 O610 1.254 . S
H614 C587 0.949 . S
H615 C589 0.950 . S
H616 C596 0.949 . S
H617 C598 0.950 . S
C618 O634 1.251 . S
C618 O636 1.254 . S
N619 C620 1.333 . S
N619 C624 1.307 . S
N619 Zn625 2.020 . S
C620 N619 1.333 . S
C620 C621 1.379 . S
C620 H638 0.952 . S
C621 C620 1.379 . S
C621 C622 1.390 . S
C621 H648 0.949 . S
C622 C621 1.390 . S
C622 C623 1.357 . S
C623 C622 1.357 . S
C623 C624 1.370 . S
C623 H649 0.950 . S
C624 N619 1.307 . S
C624 C623 1.370 . S
C624 H642 0.948 . S
Zn625 N619 2.020 . S
Zn625 O634 2.039 . S
Zn625 O640 2.034 . S
Zn625 O644 2.025 . S
Zn625 O646 2.024 . S
C626 O645 1.246 . S
C626 O646 1.249 . S
N627 C628 1.307 . S
N627 C629 1.333 . S
N627 Zn633 2.020 . S
C628 N627 1.307 . S
C628 C632 1.370 . S
C628 H639 0.948 . S
C629 N627 1.333 . S
C629 C630 1.379 . S
C629 H637 0.952 . S
C630 C629 1.379 . S
C630 C631 1.390 . S
C630 H650 0.949 . S
C631 C630 1.390 . S
C631 C632 1.357 . S
C632 C628 1.370 . S
C632 C631 1.357 . S
C632 H651 0.950 . S
Zn633 N627 2.020 . S
Zn633 O636 2.025 . S
Zn633 O641 2.024 . S
Zn633 O643 2.039 . S
Zn633 O645 2.034 . S
O634 C618 1.251 . S
O634 Zn625 2.039 . S
C635 O640 1.246 . S
C635 O641 1.249 . S
O636 C618 1.254 . S
O636 Zn633 2.025 . S
H637 C629 0.952 . S
H638 C620 0.952 . S
H639 C628 0.948 . S
O640 Zn625 2.034 . S
O640 C635 1.246 . S
O641 Zn633 2.024 . S
O641 C635 1.249 . S
H642 C624 0.948 . S
O643 Zn633 2.039 . S
O643 C647 1.251 . S
O644 Zn625 2.025 . S
O644 C647 1.254 . S
O645 C626 1.246 . S
O645 Zn633 2.034 . S
O646 Zn625 2.024 . S
O646 C626 1.249 . S
C647 O643 1.251 . S
C647 O644 1.254 . S
H648 C621 0.949 . S
H649 C623 0.950 . S
H650 C630 0.949 . S
H651 C632 0.950 . S
C652 O668 1.251 . S
C652 O670 1.254 . S
N653 C654 1.333 . S
N653 C658 1.307 . S
N653 Zn659 2.020 . S
C654 N653 1.333 . S
C654 C655 1.379 . S
C654 H672 0.952 . S
C655 C654 1.379 . S
C655 C656 1.390 . S
C655 H682 0.949 . S
C656 C655 1.390 . S
C656 C657 1.357 . S
C657 C656 1.357 . S
C657 C658 1.370 . S
C657 H683 0.950 . S
C658 N653 1.307 . S
C658 C657 1.370 . S
C658 H676 0.948 . S
Zn659 N653 2.020 . S
Zn659 O668 2.039 . S
Zn659 O674 2.034 . S
Zn659 O678 2.025 . S
Zn659 O680 2.024 . S
C660 O679 1.246 . S
C660 O680 1.249 . S
N661 C662 1.307 1_455 S
N661 C663 1.333 . S
N661 Zn667 2.020 . S
C662 N661 1.307 1_655 S
C662 C666 1.370 . S
C662 H673 0.948 . S
C663 N661 1.333 . S
C663 C664 1.379 . S
C663 H671 0.952 . S
C664 C663 1.379 . S
C664 C665 1.390 1_455 S
C664 H684 0.949 . S
C665 C664 1.390 1_655 S
C665 C666 1.357 . S
C666 C662 1.370 . S
C666 C665 1.357 . S
C666 H685 0.950 . S
Zn667 N661 2.020 . S
Zn667 O670 2.025 . S
Zn667 O675 2.024 1_455 S
Zn667 O677 2.039 . S
Zn667 O679 2.034 . S
O668 C652 1.251 . S
O668 Zn659 2.039 . S
C669 O674 1.246 1_655 S
C669 O675 1.249 . S
O670 C652 1.254 . S
O670 Zn667 2.025 . S
H671 C663 0.952 . S
H672 C654 0.952 . S
H673 C662 0.948 . S
O674 Zn659 2.034 . S
O674 C669 1.246 1_455 S
O675 Zn667 2.024 1_655 S
O675 C669 1.249 . S
H676 C658 0.948 . S
O677 Zn667 2.039 . S
O677 C681 1.251 . S
O678 Zn659 2.025 . S
O678 C681 1.254 . S
O679 C660 1.246 . S
O679 Zn667 2.034 . S
O680 Zn659 2.024 . S
O680 C660 1.249 . S
C681 O677 1.251 . S
C681 O678 1.254 . S
H682 C655 0.949 . S
H683 C657 0.950 . S
H684 C664 0.949 . S
H685 C666 0.950 . S
C686 O702 1.251 . S
C686 O704 1.254 . S
N687 C688 1.333 . S
N687 C692 1.307 . S
N687 Zn693 2.020 . S
C688 N687 1.333 . S
C688 C689 1.379 . S
C688 H706 0.952 . S
C689 C688 1.379 . S
C689 C690 1.390 . S
C689 H716 0.949 . S
C690 C689 1.390 . S
C690 C691 1.357 . S
C691 C690 1.357 . S
C691 C692 1.370 . S
C691 H717 0.950 . S
C692 N687 1.307 . S
C692 C691 1.370 . S
C692 H710 0.948 . S
Zn693 N687 2.020 . S
Zn693 O702 2.039 . S
Zn693 O708 2.034 . S
Zn693 O712 2.025 . S
Zn693 O714 2.024 . S
C694 O713 1.246 . S
C694 O714 1.249 . S
N695 C696 1.307 . S
N695 C697 1.333 . S
N695 Zn701 2.020 . S
C696 N695 1.307 . S
C696 C700 1.370 . S
C696 H707 0.948 . S
C697 N695 1.333 . S
C697 C698 1.379 . S
C697 H705 0.952 . S
C698 C697 1.379 . S
C698 C699 1.390 . S
C698 H718 0.949 . S
C699 C698 1.390 . S
C699 C700 1.357 . S
C700 C696 1.370 . S
C700 C699 1.357 . S
C700 H719 0.950 . S
Zn701 N695 2.020 . S
Zn701 O704 2.025 . S
Zn701 O709 2.024 . S
Zn701 O711 2.039 . S
Zn701 O713 2.034 . S
O702 C686 1.251 . S
O702 Zn693 2.039 . S
C703 O708 1.246 . S
C703 O709 1.249 . S
O704 C686 1.254 . S
O704 Zn701 2.025 . S
H705 C697 0.952 . S
H706 C688 0.952 . S
H707 C696 0.948 . S
O708 Zn693 2.034 . S
O708 C703 1.246 . S
O709 Zn701 2.024 . S
O709 C703 1.249 . S
H710 C692 0.948 . S
O711 Zn701 2.039 . S
O711 C715 1.251 . S
O712 Zn693 2.025 . S
O712 C715 1.254 . S
O713 C694 1.246 . S
O713 Zn701 2.034 . S
O714 Zn693 2.024 . S
O714 C694 1.249 . S
C715 O711 1.251 . S
C715 O712 1.254 . S
H716 C689 0.949 . S
H717 C691 0.950 . S
H718 C698 0.949 . S
H719 C700 0.950 . S
C720 O736 1.251 . S
C720 O738 1.254 . S
N721 C722 1.333 . S
N721 C726 1.307 . S
N721 Zn727 2.020 . S
C722 N721 1.333 . S
C722 C723 1.379 . S
C722 H740 0.952 . S
C723 C722 1.379 . S
C723 C724 1.390 . S
C723 H750 0.949 . S
C724 C723 1.390 . S
C724 C725 1.357 . S
C725 C724 1.357 . S
C725 C726 1.370 . S
C725 H751 0.950 . S
C726 N721 1.307 . S
C726 C725 1.370 . S
C726 H744 0.948 . S
Zn727 N721 2.020 . S
Zn727 O736 2.039 . S
Zn727 O742 2.034 . S
Zn727 O746 2.025 . S
Zn727 O748 2.024 . S
C728 O747 1.246 . S
C728 O748 1.249 . S
N729 C730 1.307 . S
N729 C731 1.333 . S
N729 Zn735 2.020 . S
C730 N729 1.307 . S
C730 C734 1.370 . S
C730 H741 0.948 . S
C731 N729 1.333 . S
C731 C732 1.379 . S
C731 H739 0.952 . S
C732 C731 1.379 . S
C732 C733 1.390 . S
C732 H752 0.949 . S
C733 C732 1.390 . S
C733 C734 1.357 . S
C734 C730 1.370 . S
C734 C733 1.357 . S
C734 H753 0.950 . S
Zn735 N729 2.020 . S
Zn735 O738 2.025 . S
Zn735 O743 2.024 . S
Zn735 O745 2.039 . S
Zn735 O747 2.034 . S
O736 C720 1.251 . S
O736 Zn727 2.039 . S
C737 O742 1.246 . S
C737 O743 1.249 . S
O738 C720 1.254 . S
O738 Zn735 2.025 . S
H739 C731 0.952 . S
H740 C722 0.952 . S
H741 C730 0.948 . S
O742 Zn727 2.034 . S
O742 C737 1.246 . S
O743 Zn735 2.024 . S
O743 C737 1.249 . S
H744 C726 0.948 . S
O745 Zn735 2.039 . S
O745 C749 1.251 . S
O746 Zn727 2.025 . S
O746 C749 1.254 . S
O747 C728 1.246 . S
O747 Zn735 2.034 . S
O748 Zn727 2.024 . S
O748 C728 1.249 . S
C749 O745 1.251 . S
C749 O746 1.254 . S
H750 C723 0.949 . S
H751 C725 0.950 . S
H752 C732 0.949 . S
H753 C734 0.950 . S
C754 O770 1.251 . S
C754 O772 1.254 . S
N755 C756 1.333 . S
N755 C760 1.307 . S
N755 Zn761 2.020 . S
C756 N755 1.333 . S
C756 C757 1.379 . S
C756 H774 0.952 . S
C757 C756 1.379 . S
C757 C758 1.390 . S
C757 H784 0.949 . S
C758 C757 1.390 . S
C758 C759 1.357 . S
C759 C758 1.357 . S
C759 C760 1.370 . S
C759 H785 0.950 . S
C760 N755 1.307 . S
C760 C759 1.370 . S
C760 H778 0.948 . S
Zn761 N755 2.020 . S
Zn761 O770 2.039 . S
Zn761 O776 2.034 . S
Zn761 O780 2.025 . S
Zn761 O782 2.024 . S
C762 O781 1.246 . S
C762 O782 1.249 . S
N763 C764 1.307 . S
N763 C765 1.333 . S
N763 Zn769 2.020 . S
C764 N763 1.307 . S
C764 C768 1.370 . S
C764 H775 0.948 . S
C765 N763 1.333 . S
C765 C766 1.379 . S
C765 H773 0.952 . S
C766 C765 1.379 . S
C766 C767 1.390 . S
C766 H786 0.949 . S
C767 C766 1.390 . S
C767 C768 1.357 . S
C768 C764 1.370 . S
C768 C767 1.357 . S
C768 H787 0.950 . S
Zn769 N763 2.020 . S
Zn769 O772 2.025 . S
Zn769 O777 2.024 . S
Zn769 O779 2.039 . S
Zn769 O781 2.034 . S
O770 C754 1.251 . S
O770 Zn761 2.039 . S
C771 O776 1.246 . S
C771 O777 1.249 . S
O772 C754 1.254 . S
O772 Zn769 2.025 . S
H773 C765 0.952 . S
H774 C756 0.952 . S
H775 C764 0.948 . S
O776 Zn761 2.034 . S
O776 C771 1.246 . S
O777 Zn769 2.024 . S
O777 C771 1.249 . S
H778 C760 0.948 . S
O779 Zn769 2.039 . S
O779 C783 1.251 . S
O780 Zn761 2.025 . S
O780 C783 1.254 . S
O781 C762 1.246 . S
O781 Zn769 2.034 . S
O782 Zn761 2.024 . S
O782 C762 1.249 . S
C783 O779 1.251 . S
C783 O780 1.254 . S
H784 C757 0.949 . S
H785 C759 0.950 . S
H786 C766 0.949 . S
H787 C768 0.950 . S
C788 O804 1.251 . S
C788 O806 1.254 . S
N789 C790 1.333 . S
N789 C794 1.307 . S
N789 Zn795 2.020 . S
C790 N789 1.333 . S
C790 C791 1.379 . S
C790 H808 0.952 . S
C791 C790 1.379 . S
C791 C792 1.390 . S
C791 H818 0.949 . S
C792 C791 1.390 . S
C792 C793 1.357 . S
C793 C792 1.357 . S
C793 C794 1.370 . S
C793 H819 0.950 . S
C794 N789 1.307 . S
C794 C793 1.370 . S
C794 H812 0.948 . S
Zn795 N789 2.020 . S
Zn795 O804 2.039 . S
Zn795 O810 2.034 . S
Zn795 O814 2.025 . S
Zn795 O816 2.024 . S
C796 O815 1.246 . S
C796 O816 1.249 . S
N797 C798 1.307 . S
N797 C799 1.333 . S
N797 Zn803 2.020 . S
C798 N797 1.307 . S
C798 C802 1.370 . S
C798 H809 0.948 . S
C799 N797 1.333 . S
C799 C800 1.379 . S
C799 H807 0.952 . S
C800 C799 1.379 . S
C800 C801 1.390 . S
C800 H820 0.949 . S
C801 C800 1.390 . S
C801 C802 1.357 . S
C802 C798 1.370 . S
C802 C801 1.357 . S
C802 H821 0.950 . S
Zn803 N797 2.020 . S
Zn803 O806 2.025 . S
Zn803 O811 2.024 . S
Zn803 O813 2.039 . S
Zn803 O815 2.034 . S
O804 C788 1.251 . S
O804 Zn795 2.039 . S
C805 O810 1.246 . S
C805 O811 1.249 . S
O806 C788 1.254 . S
O806 Zn803 2.025 . S
H807 C799 0.952 . S
H808 C790 0.952 . S
H809 C798 0.948 . S
O810 Zn795 2.034 . S
O810 C805 1.246 . S
O811 Zn803 2.024 . S
O811 C805 1.249 . S
H812 C794 0.948 . S
O813 Zn803 2.039 . S
O813 C817 1.251 . S
O814 Zn795 2.025 . S
O814 C817 1.254 . S
O815 C796 1.246 . S
O815 Zn803 2.034 . S
O816 Zn795 2.024 . S
O816 C796 1.249 . S
C817 O813 1.251 . S
C817 O814 1.254 . S
H818 C791 0.949 . S
H819 C793 0.950 . S
H820 C800 0.949 . S
H821 C802 0.950 . S
C822 O838 1.251 . S
C822 O840 1.254 . S
N823 C824 1.333 . S
N823 C828 1.307 . S
N823 Zn829 2.020 . S
C824 N823 1.333 . S
C824 C825 1.379 . S
C824 H842 0.952 . S
C825 C824 1.379 . S
C825 C826 1.390 . S
C825 H852 0.949 . S
C826 C825 1.390 . S
C826 C827 1.357 . S
C827 C826 1.357 . S
C827 C828 1.370 . S
C827 H853 0.950 . S
C828 N823 1.307 . S
C828 C827 1.370 . S
C828 H846 0.948 . S
Zn829 N823 2.020 . S
Zn829 O838 2.039 . S
Zn829 O844 2.034 . S
Zn829 O848 2.025 1_554 S
Zn829 O850 2.024 . S
C830 O849 1.246 . S
C830 O850 1.249 1_655 S
N831 C832 1.307 . S
N831 C833 1.333 1_554 S
N831 Zn837 2.020 . S
C832 N831 1.307 . S
C832 C836 1.370 . S
C832 H843 0.948 . S
C833 N831 1.333 1_556 S
C833 C834 1.379 . S
C833 H841 0.952 . S
C834 C833 1.379 . S
C834 C835 1.390 . S
C834 H854 0.949 1_455 S
C835 C834 1.390 . S
C835 C836 1.357 1_556 S
C836 C832 1.370 . S
C836 C835 1.357 1_554 S
C836 H855 0.950 . S
Zn837 N831 2.020 . S
Zn837 O840 2.025 . S
Zn837 O845 2.024 . S
Zn837 O847 2.039 1_554 S
Zn837 O849 2.034 1_455 S
O838 C822 1.251 . S
O838 Zn829 2.039 . S
C839 O844 1.246 . S
C839 O845 1.249 . S
O840 C822 1.254 . S
O840 Zn837 2.025 . S
H841 C833 0.952 . S
H842 C824 0.952 . S
H843 C832 0.948 . S
O844 Zn829 2.034 . S
O844 C839 1.246 . S
O845 Zn837 2.024 . S
O845 C839 1.249 . S
H846 C828 0.948 . S
O847 Zn837 2.039 1_556 S
O847 C851 1.251 . S
O848 Zn829 2.025 1_556 S
O848 C851 1.254 . S
O849 C830 1.246 . S
O849 Zn837 2.034 1_655 S
O850 Zn829 2.024 . S
O850 C830 1.249 1_455 S
C851 O847 1.251 . S
C851 O848 1.254 . S
H852 C825 0.949 . S
H853 C827 0.950 . S
H854 C834 0.949 1_655 S
H855 C836 0.950 . S
C856 C857 1.369 . S
C856 C858 1.419 . S
C856 H860 0.930 . S
C857 C856 1.369 . S
C857 C866 1.429 . S
C858 C856 1.419 . S
C858 C859 1.363 . S
C858 H861 0.929 . S
C859 C858 1.363 . S
C859 C865 1.428 . S
H860 C856 0.930 . S
H861 C858 0.929 . S
S862 N863 1.613 . S
S862 N864 1.610 . S
N863 S862 1.613 . S
N863 C866 1.350 . S
N864 S862 1.610 . S
N864 C865 1.351 . S
C865 C859 1.428 . S
C865 N864 1.351 . S
C865 C866 1.434 . S
C866 C857 1.429 . S
C866 N863 1.350 . S
C866 C865 1.434 . S
C867 C868 1.369 . S
C867 C869 1.419 . S
C867 H871 0.930 . S
C868 C867 1.369 . S
C868 C877 1.429 . S
C869 C867 1.419 . S
C869 C870 1.363 . S
C869 H872 0.929 . S
C870 C869 1.363 . S
C870 C876 1.428 . S
H871 C867 0.930 . S
H872 C869 0.929 . S
S873 N874 1.613 . S
S873 N875 1.610 . S
N874 S873 1.613 . S
N874 C877 1.350 . S
N875 S873 1.610 . S
N875 C876 1.351 . S
C876 C870 1.428 . S
C876 N875 1.351 . S
C876 C877 1.434 . S
C877 C868 1.429 . S
C877 N874 1.350 . S
C877 C876 1.434 . S
C878 C879 1.369 . S
C878 C880 1.419 . S
C878 H882 0.930 . S
C879 C878 1.369 . S
C879 C888 1.429 . S
C880 C878 1.419 . S
C880 C881 1.363 . S
C880 H883 0.929 . S
C881 C880 1.363 . S
C881 C887 1.428 . S
H882 C878 0.930 . S
H883 C880 0.929 . S
S884 N885 1.613 . S
S884 N886 1.610 . S
N885 S884 1.613 . S
N885 C888 1.350 . S
N886 S884 1.610 . S
N886 C887 1.351 . S
C887 C881 1.428 . S
C887 N886 1.351 . S
C887 C888 1.434 . S
C888 C879 1.429 . S
C888 N885 1.350 . S
C888 C887 1.434 . S
C889 C890 1.369 . S
C889 C891 1.419 . S
C889 H893 0.930 . S
C890 C889 1.369 . S
C890 C899 1.429 . S
C891 C889 1.419 . S
C891 C892 1.363 . S
C891 H894 0.929 . S
C892 C891 1.363 . S
C892 C898 1.428 . S
H893 C889 0.930 . S
H894 C891 0.929 . S
S895 N896 1.613 . S
S895 N897 1.610 . S
N896 S895 1.613 . S
N896 C899 1.350 . S
N897 S895 1.610 . S
N897 C898 1.351 . S
C898 C892 1.428 . S
C898 N897 1.351 . S
C898 C899 1.434 . S
C899 C890 1.429 . S
C899 N896 1.350 . S
C899 C898 1.434 . S
C900 C901 1.369 . S
C900 C902 1.419 . S
C900 H904 0.930 . S
C901 C900 1.369 . S
C901 C910 1.429 . S
C902 C900 1.419 . S
C902 C903 1.363 . S
C902 H905 0.929 . S
C903 C902 1.363 . S
C903 C909 1.428 . S
H904 C900 0.930 . S
H905 C902 0.929 . S
S906 N907 1.613 . S
S906 N908 1.610 . S
N907 S906 1.613 . S
N907 C910 1.350 . S
N908 S906 1.610 . S
N908 C909 1.351 . S
C909 C903 1.428 . S
C909 N908 1.351 . S
C909 C910 1.434 . S
C910 C901 1.429 . S
C910 N907 1.350 . S
C910 C909 1.434 . S
C911 C912 1.369 . S
C911 C913 1.419 . S
C911 H915 0.930 . S
C912 C911 1.369 . S
C912 C921 1.429 . S
C913 C911 1.419 . S
C913 C914 1.363 . S
C913 H916 0.929 . S
C914 C913 1.363 . S
C914 C920 1.428 . S
H915 C911 0.930 . S
H916 C913 0.929 . S
S917 N918 1.613 . S
S917 N919 1.610 . S
N918 S917 1.613 . S
N918 C921 1.350 . S
N919 S917 1.610 . S
N919 C920 1.351 . S
C920 C914 1.428 . S
C920 N919 1.351 . S
C920 C921 1.434 . S
C921 C912 1.429 . S
C921 N918 1.350 . S
C921 C920 1.434 . S
C922 C923 1.369 . S
C922 C924 1.419 . S
C922 H926 0.930 . S
C923 C922 1.369 . S
C923 C932 1.429 . S
C924 C922 1.419 . S
C924 C925 1.363 . S
C924 H927 0.929 1_556 S
C925 C924 1.363 . S
C925 C931 1.428 . S
H926 C922 0.930 . S
H927 C924 0.929 1_554 S
S928 N929 1.613 . S
S928 N930 1.610 . S
N929 S928 1.613 . S
N929 C932 1.350 . S
N930 S928 1.610 . S
N930 C931 1.351 . S
C931 C925 1.428 . S
C931 N930 1.351 . S
C931 C932 1.434 . S
C932 C923 1.429 . S
C932 N929 1.350 . S
C932 C931 1.434 . S
C933 C934 1.369 . S
C933 C935 1.419 . S
C933 H937 0.930 . S
C934 C933 1.369 . S
C934 C943 1.429 . S
C935 C933 1.419 . S
C935 C936 1.363 . S
C935 H938 0.929 . S
C936 C935 1.363 . S
C936 C942 1.428 . S
H937 C933 0.930 . S
H938 C935 0.929 . S
S939 N940 1.613 . S
S939 N941 1.610 . S
N940 S939 1.613 . S
N940 C943 1.350 . S
N941 S939 1.610 . S
N941 C942 1.351 . S
C942 C936 1.428 . S
C942 N941 1.351 . S
C942 C943 1.434 . S
C943 C934 1.429 . S
C943 N940 1.350 . S
C943 C942 1.434 . S
C944 C945 1.362 1_565 S
C944 C946 1.425 . S
C944 H948 0.932 . S
C945 C944 1.362 1_545 S
C945 C954 1.429 . S
C946 C944 1.425 . S
C946 C947 1.363 . S
C946 H949 0.929 . S
C947 C946 1.363 . S
C947 C953 1.428 1_565 S
H948 C944 0.932 . S
H949 C946 0.929 . S
S950 N951 1.613 . S
S950 N952 1.610 . S
N951 S950 1.613 . S
N951 C954 1.350 . S
N952 S950 1.610 . S
N952 C953 1.351 . S
C953 C947 1.428 1_545 S
C953 N952 1.351 . S
C953 C954 1.434 . S
C954 C945 1.429 . S
C954 N951 1.350 . S
C954 C953 1.434 . S
C955 C956 1.369 . S
C955 C957 1.419 . S
C955 H959 0.930 . S
C956 C955 1.369 . S
C956 C965 1.429 . S
C957 C955 1.419 . S
C957 C958 1.363 . S
C957 H960 0.929 . S
C958 C957 1.363 . S
C958 C964 1.428 . S
H959 C955 0.930 . S
H960 C957 0.929 . S
S961 N962 1.613 . S
S961 N963 1.610 . S
N962 S961 1.613 . S
N962 C965 1.350 . S
N963 S961 1.610 . S
N963 C964 1.351 . S
C964 C958 1.428 . S
C964 N963 1.351 . S
C964 C965 1.434 . S
C965 C956 1.429 . S
C965 N962 1.350 . S
C965 C964 1.434 . S
C966 C967 1.369 . S
C966 C968 1.419 . S
C966 H970 0.930 . S
C967 C966 1.369 . S
C967 C976 1.407 1_545 S
C968 C966 1.419 . S
C968 C969 1.363 . S
C968 H971 0.929 . S
C969 C968 1.363 . S
C969 C975 1.428 . S
H970 C966 0.930 . S
H971 C968 0.929 . S
S972 N973 1.613 . S
S972 N974 1.610 . S
N973 S972 1.613 . S
N973 C976 1.377 . S
N974 S972 1.610 . S
N974 C975 1.351 1_565 S
C975 C969 1.428 . S
C975 N974 1.351 1_545 S
C975 C976 1.431 1_545 S
C976 C967 1.407 1_565 S
C976 N973 1.377 . S
C976 C975 1.431 1_565 S
C977 C978 1.369 . S
C977 C979 1.419 . S
C977 H981 0.930 . S
C978 C977 1.369 . S
C978 C987 1.429 . S
C979 C977 1.419 . S
C979 C980 1.363 . S
C979 H982 0.929 . S
C980 C979 1.363 . S
C980 C986 1.428 . S
H981 C977 0.930 . S
H982 C979 0.929 . S
S983 N984 1.613 . S
S983 N985 1.610 . S
N984 S983 1.613 . S
N984 C987 1.350 . S
N985 S983 1.610 . S
N985 C986 1.351 . S
C986 C980 1.428 . S
C986 N985 1.351 . S
C986 C987 1.434 . S
C987 C978 1.429 . S
C987 N984 1.350 . S
C987 C986 1.434 . S
C988 C989 1.369 . S
C988 C990 1.419 . S
C988 H992 0.930 . S
C989 C988 1.369 . S
C989 C998 1.429 . S
C990 C988 1.419 . S
C990 C991 1.363 . S
C990 H993 0.929 . S
C991 C990 1.363 . S
C991 C997 1.428 . S
H992 C988 0.930 . S
H993 C990 0.929 . S
S994 N995 1.613 . S
S994 N996 1.610 . S
N995 S994 1.613 . S
N995 C998 1.350 . S
N996 S994 1.610 . S
N996 C997 1.351 . S
C997 C991 1.428 . S
C997 N996 1.351 . S
C997 C998 1.434 . S
C998 C989 1.429 . S
C998 N995 1.350 . S
C998 C997 1.434 . S
C999 C1000 1.369 . S
C999 C1001 1.419 . S
C999 H1003 0.930 . S
C1000 C999 1.369 . S
C1000 C1009 1.429 . S
C1001 C999 1.419 . S
C1001 C1002 1.363 . S
C1001 H1004 0.929 . S
C1002 C1001 1.363 . S
C1002 C1008 1.428 . S
H1003 C999 0.930 . S
H1004 C1001 0.929 . S
S1005 N1006 1.613 . S
S1005 N1007 1.610 . S
N1006 S1005 1.613 . S
N1006 C1009 1.350 . S
N1007 S1005 1.610 . S
N1007 C1008 1.351 . S
C1008 C1002 1.428 . S
C1008 N1007 1.351 . S
C1008 C1009 1.434 . S
C1009 C1000 1.429 . S
C1009 N1006 1.350 . S
C1009 C1008 1.434 . S
C1010 C1011 1.369 1_545 S
C1010 C1012 1.419 1_545 S
C1010 H1014 0.930 . S
C1011 C1010 1.369 1_565 S
C1011 C1020 1.429 . S
C1012 C1010 1.419 1_565 S
C1012 C1013 1.363 . S
C1012 H1015 0.929 1_565 S
C1013 C1012 1.363 . S
C1013 C1019 1.428 . S
H1014 C1010 0.930 . S
H1015 C1012 0.929 1_545 S
S1016 N1017 1.613 . S
S1016 N1018 1.610 . S
N1017 S1016 1.613 . S
N1017 C1020 1.350 . S
N1018 S1016 1.610 . S
N1018 C1019 1.351 . S
C1019 C1013 1.428 . S
C1019 N1018 1.351 . S
C1019 C1020 1.434 . S
C1020 C1011 1.429 . S
C1020 N1017 1.350 . S
C1020 C1019 1.434 . S
C1021 C1022 1.369 . S
C1021 C1023 1.419 . S
C1021 H1025 0.930 . S
C1022 C1021 1.369 . S
C1022 C1031 1.429 . S
C1023 C1021 1.419 . S
C1023 C1024 1.363 . S
C1023 H1026 0.929 . S
C1024 C1023 1.363 . S
C1024 C1030 1.428 . S
H1025 C1021 0.930 . S
H1026 C1023 0.929 . S
S1027 N1028 1.613 . S
S1027 N1029 1.610 . S
N1028 S1027 1.613 . S
N1028 C1031 1.350 . S
N1029 S1027 1.610 . S
N1029 C1030 1.351 . S
C1030 C1024 1.428 . S
C1030 N1029 1.351 . S
C1030 C1031 1.434 . S
C1031 C1022 1.429 . S
C1031 N1028 1.350 . S
C1031 C1030 1.434 . S
C1032 C1033 1.396 . S
C1032 C1034 1.404 1_554 S
C1032 H1036 0.918 1_554 S
C1033 C1032 1.396 . S
C1033 C1042 1.429 . S
C1034 C1032 1.404 1_556 S
C1034 C1035 1.363 . S
C1034 H1037 0.929 . S
C1035 C1034 1.363 . S
C1035 C1041 1.428 1_556 S
H1036 C1032 0.918 1_556 S
H1037 C1034 0.929 . S
S1038 N1039 1.613 . S
S1038 N1040 1.610 . S
N1039 S1038 1.613 . S
N1039 C1042 1.350 . S
N1040 S1038 1.610 . S
N1040 C1041 1.351 . S
C1041 C1035 1.428 1_554 S
C1041 N1040 1.351 . S
C1041 C1042 1.434 . S
C1042 C1033 1.429 . S
C1042 N1039 1.350 . S
C1042 C1041 1.434 . S
C1043 C1044 1.369 . S
C1043 C1045 1.419 . S
C1043 H1047 0.930 . S
C1044 C1043 1.369 . S
C1044 C1053 1.429 . S
C1045 C1043 1.419 . S
C1045 C1046 1.363 . S
C1045 H1048 0.929 . S
C1046 C1045 1.363 . S
C1046 C1052 1.428 . S
H1047 C1043 0.930 . S
H1048 C1045 0.929 . S
S1049 N1050 1.613 . S
S1049 N1051 1.610 . S
N1050 S1049 1.613 . S
N1050 C1053 1.350 . S
N1051 S1049 1.610 . S
N1051 C1052 1.351 . S
C1052 C1046 1.428 . S
C1052 N1051 1.351 . S
C1052 C1053 1.434 . S
C1053 C1044 1.429 . S
C1053 N1050 1.350 . S
C1053 C1052 1.434 . S
C1054 C1055 1.369 . S
C1054 C1056 1.419 . S
C1054 H1058 0.930 . S
C1055 C1054 1.369 . S
C1055 C1064 1.429 . S
C1056 C1054 1.419 . S
C1056 C1057 1.363 . S
C1056 H1059 0.929 . S
C1057 C1056 1.363 . S
C1057 C1063 1.428 . S
H1058 C1054 0.930 . S
H1059 C1056 0.929 . S
S1060 N1061 1.613 . S
S1060 N1062 1.610 . S
N1061 S1060 1.613 . S
N1061 C1064 1.350 . S
N1062 S1060 1.610 . S
N1062 C1063 1.351 . S
C1063 C1057 1.428 . S
C1063 N1062 1.351 . S
C1063 C1064 1.434 . S
C1064 C1055 1.429 . S
C1064 N1061 1.350 . S
C1064 C1063 1.434 . S
C1065 C1066 1.369 . S
C1065 C1067 1.419 . S
C1065 H1069 0.930 . S
C1066 C1065 1.369 . S
C1066 C1075 1.429 . S
C1067 C1065 1.419 . S
C1067 C1068 1.363 . S
C1067 H1070 0.929 . S
C1068 C1067 1.363 . S
C1068 C1074 1.428 . S
H1069 C1065 0.930 . S
H1070 C1067 0.929 . S
S1071 N1072 1.613 . S
S1071 N1073 1.610 1_655 S
N1072 S1071 1.613 . S
N1072 C1075 1.350 . S
N1073 S1071 1.610 1_455 S
N1073 C1074 1.351 1_455 S
C1074 C1068 1.428 . S
C1074 N1073 1.351 1_655 S
C1074 C1075 1.434 . S
C1075 C1066 1.429 . S
C1075 N1072 1.350 . S
C1075 C1074 1.434 . S
C1076 C1077 1.369 . S
C1076 C1078 1.419 . S
C1076 H1080 0.930 . S
C1077 C1076 1.369 . S
C1077 C1086 1.429 . S
C1078 C1076 1.419 . S
C1078 C1079 1.363 . S
C1078 H1081 0.929 . S
C1079 C1078 1.363 . S
C1079 C1085 1.428 . S
H1080 C1076 0.930 . S
H1081 C1078 0.929 . S
S1082 N1083 1.613 . S
S1082 N1084 1.610 . S
N1083 S1082 1.613 . S
N1083 C1086 1.350 . S
N1084 S1082 1.610 . S
N1084 C1085 1.351 . S
C1085 C1079 1.428 . S
C1085 N1084 1.351 . S
C1085 C1086 1.434 . S
C1086 C1077 1.429 . S
C1086 N1083 1.350 . S
C1086 C1085 1.434 . S
C1087 C1088 1.369 . S
C1087 C1089 1.419 . S
C1087 H1091 0.930 . S
C1088 C1087 1.369 . S
C1088 C1097 1.429 . S
C1089 C1087 1.419 . S
C1089 C1090 1.363 . S
C1089 H1092 0.929 . S
C1090 C1089 1.363 . S
C1090 C1096 1.428 . S
H1091 C1087 0.930 . S
H1092 C1089 0.929 . S
S1093 N1094 1.613 . S
S1093 N1095 1.610 . S
N1094 S1093 1.613 . S
N1094 C1097 1.350 1_545 S
N1095 S1093 1.610 . S
N1095 C1096 1.351 1_545 S
C1096 C1090 1.428 . S
C1096 N1095 1.351 1_565 S
C1096 C1097 1.434 . S
C1097 C1088 1.429 . S
C1097 N1094 1.350 1_565 S
C1097 C1096 1.434 . S
C1098 C1099 1.369 . S
C1098 C1100 1.419 . S
C1098 H1102 0.930 . S
C1099 C1098 1.369 . S
C1099 C1108 1.429 . S
C1100 C1098 1.419 . S
C1100 C1101 1.363 . S
C1100 H1103 0.929 . S
C1101 C1100 1.363 . S
C1101 C1107 1.428 . S
H1102 C1098 0.930 . S
H1103 C1100 0.929 . S
S1104 N1105 1.613 . S
S1104 N1106 1.610 . S
N1105 S1104 1.613 . S
N1105 C1108 1.350 . S
N1106 S1104 1.610 . S
N1106 C1107 1.351 . S
C1107 C1101 1.428 . S
C1107 N1106 1.351 . S
C1107 C1108 1.434 . S
C1108 C1099 1.429 . S
C1108 N1105 1.350 . S
C1108 C1107 1.434 . S
C1109 C1110 1.369 . S
C1109 C1111 1.419 . S
C1109 H1113 0.930 . S
C1110 C1109 1.369 . S
C1110 C1119 1.429 . S
C1111 C1109 1.419 . S
C1111 C1112 1.363 . S
C1111 H1114 0.929 . S
C1112 C1111 1.363 . S
C1112 C1118 1.428 . S
H1113 C1109 0.930 . S
H1114 C1111 0.929 . S
S1115 N1116 1.613 . S
S1115 N1117 1.610 . S
N1116 S1115 1.613 . S
N1116 C1119 1.350 . S
N1117 S1115 1.610 . S
N1117 C1118 1.351 . S
C1118 C1112 1.428 . S
C1118 N1117 1.351 . S
C1118 C1119 1.434 . S
C1119 C1110 1.429 . S
C1119 N1116 1.350 . S
C1119 C1118 1.434 . S
C1120 C1121 1.369 1_655 S
C1120 C1122 1.419 1_655 S
C1120 H1124 0.930 . S
C1121 C1120 1.369 1_455 S
C1121 C1130 1.429 . S
C1122 C1120 1.419 1_455 S
C1122 C1123 1.363 . S
C1122 H1125 0.929 . S
C1123 C1122 1.363 . S
C1123 C1129 1.428 . S
H1124 C1120 0.930 . S
H1125 C1122 0.929 . S
S1126 N1127 1.613 . S
S1126 N1128 1.610 . S
N1127 S1126 1.613 . S
N1127 C1130 1.350 . S
N1128 S1126 1.610 . S
N1128 C1129 1.351 . S
C1129 C1123 1.428 . S
C1129 N1128 1.351 . S
C1129 C1130 1.434 . S
C1130 C1121 1.429 . S
C1130 N1127 1.350 . S
C1130 C1129 1.434 . S
C1131 C1132 1.369 . S
C1131 C1133 1.419 . S
C1131 H1135 0.930 . S
C1132 C1131 1.369 . S
C1132 C1141 1.429 . S
C1133 C1131 1.419 . S
C1133 C1134 1.363 . S
C1133 H1136 0.929 . S
C1134 C1133 1.363 . S
C1134 C1140 1.428 . S
H1135 C1131 0.930 . S
H1136 C1133 0.929 . S
S1137 N1138 1.613 . S
S1137 N1139 1.610 . S
N1138 S1137 1.613 . S
N1138 C1141 1.350 . S
N1139 S1137 1.610 . S
N1139 C1140 1.351 . S
C1140 C1134 1.428 . S
C1140 N1139 1.351 . S
C1140 C1141 1.434 . S
C1141 C1132 1.429 . S
C1141 N1138 1.350 . S
C1141 C1140 1.434 . S
C1142 C1143 1.369 . S
C1142 C1144 1.419 . S
C1142 H1146 0.930 . S
C1143 C1142 1.369 . S
C1143 C1152 1.429 . S
C1144 C1142 1.419 . S
C1144 C1145 1.363 . S
C1144 H1147 0.929 . S
C1145 C1144 1.363 . S
C1145 C1151 1.428 . S
H1146 C1142 0.930 . S
H1147 C1144 0.929 . S
S1148 N1149 1.613 . S
S1148 N1150 1.610 . S
N1149 S1148 1.613 . S
N1149 C1152 1.350 . S
N1150 S1148 1.610 . S
N1150 C1151 1.351 . S
C1151 C1145 1.428 . S
C1151 N1150 1.351 . S
C1151 C1152 1.434 . S
C1152 C1143 1.429 . S
C1152 N1149 1.350 . S
C1152 C1151 1.434 . S
C1153 C1154 1.369 . S
C1153 C1155 1.419 . S
C1153 H1157 0.930 . S
C1154 C1153 1.369 . S
C1154 C1163 1.429 . S
C1155 C1153 1.419 . S
C1155 C1156 1.363 . S
C1155 H1158 0.929 . S
C1156 C1155 1.363 . S
C1156 C1162 1.428 . S
H1157 C1153 0.930 . S
H1158 C1155 0.929 . S
S1159 N1160 1.613 . S
S1159 N1161 1.610 . S
N1160 S1159 1.613 . S
N1160 C1163 1.350 . S
N1161 S1159 1.610 . S
N1161 C1162 1.351 . S
C1162 C1156 1.428 . S
C1162 N1161 1.351 . S
C1162 C1163 1.434 . S
C1163 C1154 1.429 . S
C1163 N1160 1.350 . S
C1163 C1162 1.434 . S
C1164 C1165 1.369 . S
C1164 C1166 1.419 . S
C1164 H1168 0.930 . S
C1165 C1164 1.369 . S
C1165 C1174 1.429 . S
C1166 C1164 1.419 . S
C1166 C1167 1.363 . S
C1166 H1169 0.929 . S
C1167 C1166 1.363 . S
C1167 C1173 1.428 . S
H1168 C1164 0.930 . S
H1169 C1166 0.929 . S
S1170 N1171 1.613 . S
S1170 N1172 1.610 1_655 S
N1171 S1170 1.613 . S
N1171 C1174 1.350 1_655 S
N1172 S1170 1.610 1_455 S
N1172 C1173 1.351 . S
C1173 C1167 1.428 . S
C1173 N1172 1.351 . S
C1173 C1174 1.434 . S
C1174 C1165 1.429 . S
C1174 N1171 1.350 1_455 S
C1174 C1173 1.434 . S
C1175 C1176 1.369 . S
C1175 C1177 1.419 . S
C1175 H1179 0.930 . S
C1176 C1175 1.369 . S
C1176 C1185 1.429 . S
C1177 C1175 1.419 . S
C1177 C1178 1.363 . S
C1177 H1180 0.929 . S
C1178 C1177 1.363 . S
C1178 C1184 1.428 . S
H1179 C1175 0.930 . S
H1180 C1177 0.929 . S
S1181 N1182 1.613 . S
S1181 N1183 1.610 . S
N1182 S1181 1.613 . S
N1182 C1185 1.350 . S
N1183 S1181 1.610 . S
N1183 C1184 1.351 . S
C1184 C1178 1.428 . S
C1184 N1183 1.351 . S
C1184 C1185 1.434 . S
C1185 C1176 1.429 . S
C1185 N1182 1.350 . S
C1185 C1184 1.434 . S
C1186 C1187 1.369 . S
C1186 C1188 1.419 . S
C1186 H1190 0.930 . S
C1187 C1186 1.369 . S
C1187 C1196 1.429 . S
C1188 C1186 1.419 . S
C1188 C1189 1.363 . S
C1188 H1191 0.929 . S
C1189 C1188 1.363 . S
C1189 C1195 1.428 . S
H1190 C1186 0.930 . S
H1191 C1188 0.929 . S
S1192 N1193 1.613 . S
S1192 N1194 1.610 . S
N1193 S1192 1.613 . S
N1193 C1196 1.350 . S
N1194 S1192 1.610 . S
N1194 C1195 1.351 . S
C1195 C1189 1.428 . S
C1195 N1194 1.351 . S
C1195 C1196 1.434 . S
C1196 C1187 1.429 . S
C1196 N1193 1.350 . S
C1196 C1195 1.434 . S
C1197 C1198 1.369 . S
C1197 C1199 1.419 . S
C1197 H1201 0.930 . S
C1198 C1197 1.369 . S
C1198 C1207 1.429 . S
C1199 C1197 1.419 . S
C1199 C1200 1.363 . S
C1199 H1202 0.929 . S
C1200 C1199 1.363 . S
C1200 C1206 1.428 . S
H1201 C1197 0.930 . S
H1202 C1199 0.929 . S
S1203 N1204 1.613 . S
S1203 N1205 1.610 . S
N1204 S1203 1.613 . S
N1204 C1207 1.350 . S
N1205 S1203 1.610 . S
N1205 C1206 1.351 . S
C1206 C1200 1.428 . S
C1206 N1205 1.351 . S
C1206 C1207 1.434 . S
C1207 C1198 1.429 . S
C1207 N1204 1.350 . S
C1207 C1206 1.434 . S
C1208 C1209 1.369 . S
C1208 C1210 1.419 . S
C1208 H1212 0.930 . S
C1209 C1208 1.369 . S
C1209 C1218 1.429 . S
C1210 C1208 1.419 . S
C1210 C1211 1.363 . S
C1210 H1213 0.929 . S
C1211 C1210 1.363 . S
C1211 C1217 1.428 1_655 S
H1212 C1208 0.930 . S
H1213 C1210 0.929 . S
S1214 N1215 1.613 . S
S1214 N1216 1.610 1_565 S
N1215 S1214 1.613 . S
N1215 C1218 1.350 1_465 S
N1216 S1214 1.610 1_545 S
N1216 C1217 1.351 . S
C1217 C1211 1.428 1_455 S
C1217 N1216 1.351 . S
C1217 C1218 1.434 1_455 S
C1218 C1209 1.429 . S
C1218 N1215 1.350 1_645 S
C1218 C1217 1.434 1_655 S
C1219 C1220 1.369 . S
C1219 C1221 1.419 . S
C1219 H1223 0.930 . S
C1220 C1219 1.369 . S
C1220 C1229 1.429 . S
C1221 C1219 1.419 . S
C1221 C1222 1.363 . S
C1221 H1224 0.929 . S
C1222 C1221 1.363 . S
C1222 C1228 1.428 . S
H1223 C1219 0.930 . S
H1224 C1221 0.929 . S
S1225 N1226 1.613 . S
S1225 N1227 1.610 . S
N1226 S1225 1.613 . S
N1226 C1229 1.350 . S
N1227 S1225 1.610 . S
N1227 C1228 1.351 . S
C1228 C1222 1.428 . S
C1228 N1227 1.351 . S
C1228 C1229 1.434 . S
C1229 C1220 1.429 . S
C1229 N1226 1.350 . S
C1229 C1228 1.434 . S
C1230 C1231 1.369 . S
C1230 C1232 1.419 1_545 S
C1230 H1234 0.930 1_545 S
C1231 C1230 1.369 . S
C1231 C1240 1.429 . S
C1232 C1230 1.419 1_565 S
C1232 C1233 1.363 1_565 S
C1232 H1235 0.929 . S
C1233 C1232 1.363 1_545 S
C1233 C1239 1.428 . S
H1234 C1230 0.930 1_565 S
H1235 C1232 0.929 . S
S1236 N1237 1.613 . S
S1236 N1238 1.610 . S
N1237 S1236 1.613 . S
N1237 C1240 1.350 . S
N1238 S1236 1.610 . S
N1238 C1239 1.351 . S
C1239 C1233 1.428 . S
C1239 N1238 1.351 . S
C1239 C1240 1.434 . S
C1240 C1231 1.429 . S
C1240 N1237 1.350 . S
C1240 C1239 1.434 . S
C1241 C1242 1.369 . S
C1241 C1243 1.419 . S
C1241 H1245 0.930 . S
C1242 C1241 1.369 . S
C1242 C1251 1.429 . S
C1243 C1241 1.419 . S
C1243 C1244 1.363 . S
C1243 H1246 0.929 . S
C1244 C1243 1.363 . S
C1244 C1250 1.428 . S
H1245 C1241 0.930 . S
H1246 C1243 0.929 . S
S1247 N1248 1.613 . S
S1247 N1249 1.610 . S
N1248 S1247 1.613 . S
N1248 C1251 1.350 . S
N1249 S1247 1.610 . S
N1249 C1250 1.351 . S
C1250 C1244 1.428 . S
C1250 N1249 1.351 . S
C1250 C1251 1.434 . S
C1251 C1242 1.429 . S
C1251 N1248 1.350 . S
C1251 C1250 1.434 . S
C1252 C1253 1.369 1_565 S
C1252 C1254 1.419 . S
C1252 H1256 0.930 . S
C1253 C1252 1.369 1_545 S
C1253 C1262 1.429 . S
C1254 C1252 1.419 . S
C1254 C1255 1.363 . S
C1254 H1257 0.929 . S
C1255 C1254 1.363 . S
C1255 C1261 1.428 1_565 S
H1256 C1252 0.930 . S
H1257 C1254 0.929 . S
S1258 N1259 1.613 . S
S1258 N1260 1.610 . S
N1259 S1258 1.613 . S
N1259 C1262 1.350 . S
N1260 S1258 1.610 . S
N1260 C1261 1.351 . S
C1261 C1255 1.428 1_545 S
C1261 N1260 1.351 . S
C1261 C1262 1.434 . S
C1262 C1253 1.429 . S
C1262 N1259 1.350 . S
C1262 C1261 1.434 . S
C1263 C1264 1.369 . S
C1263 C1265 1.419 . S
C1263 H1267 0.930 . S
C1264 C1263 1.369 . S
C1264 C1273 1.429 . S
C1265 C1263 1.419 . S
C1265 C1266 1.363 . S
C1265 H1268 0.929 . S
C1266 C1265 1.363 . S
C1266 C1272 1.428 . S
H1267 C1263 0.930 . S
H1268 C1265 0.929 . S
S1269 N1270 1.613 . S
S1269 N1271 1.610 . S
N1270 S1269 1.613 . S
N1270 C1273 1.350 . S
N1271 S1269 1.610 . S
N1271 C1272 1.351 . S
C1272 C1266 1.428 . S
C1272 N1271 1.351 . S
C1272 C1273 1.434 . S
C1273 C1264 1.429 . S
C1273 N1270 1.350 . S
C1273 C1272 1.434 . S
C1274 C1275 1.369 . S
C1274 C1276 1.419 . S
C1274 H1278 0.930 . S
C1275 C1274 1.369 . S
C1275 C1284 1.429 1_545 S
C1276 C1274 1.419 . S
C1276 C1277 1.363 . S
C1276 H1279 0.929 . S
C1277 C1276 1.363 . S
C1277 C1283 1.428 . S
H1278 C1274 0.930 . S
H1279 C1276 0.929 . S
S1280 N1281 1.613 . S
S1280 N1282 1.610 . S
N1281 S1280 1.613 . S
N1281 C1284 1.350 . S
N1282 S1280 1.610 . S
N1282 C1283 1.351 1_565 S
C1283 C1277 1.428 . S
C1283 N1282 1.351 1_545 S
C1283 C1284 1.434 1_545 S
C1284 C1275 1.429 1_565 S
C1284 N1281 1.350 . S
C1284 C1283 1.434 1_565 S
C1285 C1286 1.369 . S
C1285 C1287 1.419 . S
C1285 H1289 0.930 . S
C1286 C1285 1.369 . S
C1286 C1295 1.429 . S
C1287 C1285 1.419 . S
C1287 C1288 1.363 . S
C1287 H1290 0.929 . S
C1288 C1287 1.363 . S
C1288 C1294 1.428 . S
H1289 C1285 0.930 . S
H1290 C1287 0.929 . S
S1291 N1292 1.613 . S
S1291 N1293 1.610 . S
N1292 S1291 1.613 . S
N1292 C1295 1.350 . S
N1293 S1291 1.610 . S
N1293 C1294 1.351 . S
C1294 C1288 1.428 . S
C1294 N1293 1.351 . S
C1294 C1295 1.434 . S
C1295 C1286 1.429 . S
C1295 N1292 1.350 . S
C1295 C1294 1.434 . S
C1296 C1297 1.369 . S
C1296 C1298 1.419 . S
C1296 H1300 0.930 . S
C1297 C1296 1.369 . S
C1297 C1306 1.429 . S
C1298 C1296 1.419 . S
C1298 C1299 1.363 . S
C1298 H1301 0.927 1_565 S
C1299 C1298 1.363 . S
C1299 C1305 1.428 . S
H1300 C1296 0.930 . S
H1301 C1298 0.927 1_545 S
S1302 N1303 1.613 . S
S1302 N1304 1.610 . S
N1303 S1302 1.613 . S
N1303 C1306 1.350 . S
N1304 S1302 1.610 . S
N1304 C1305 1.351 . S
C1305 C1299 1.428 . S
C1305 N1304 1.351 . S
C1305 C1306 1.434 . S
C1306 C1297 1.429 . S
C1306 N1303 1.350 . S
C1306 C1305 1.434 . S
C1307 C1308 1.369 . S
C1307 C1309 1.419 . S
C1307 H1311 0.930 . S
C1308 C1307 1.369 . S
C1308 C1317 1.429 1_554 S
C1309 C1307 1.419 . S
C1309 C1310 1.363 . S
C1309 H1312 0.929 . S
C1310 C1309 1.363 . S
C1310 C1316 1.428 1_554 S
H1311 C1307 0.930 . S
H1312 C1309 0.929 . S
S1313 N1314 1.613 . S
S1313 N1315 1.610 . S
N1314 S1313 1.613 . S
N1314 C1317 1.350 . S
N1315 S1313 1.610 . S
N1315 C1316 1.351 . S
C1316 C1310 1.428 1_556 S
C1316 N1315 1.351 . S
C1316 C1317 1.434 . S
C1317 C1308 1.429 1_556 S
C1317 N1314 1.350 . S
C1317 C1316 1.434 . S
C1318 C1319 1.369 . S
C1318 C1320 1.419 . S
C1318 H1322 0.930 . S
C1319 C1318 1.369 . S
C1319 C1328 1.429 . S
C1320 C1318 1.419 . S
C1320 C1321 1.363 . S
C1320 H1323 0.929 . S
C1321 C1320 1.363 . S
C1321 C1327 1.428 . S
H1322 C1318 0.930 . S
H1323 C1320 0.929 . S
S1324 N1325 1.613 . S
S1324 N1326 1.610 . S
N1325 S1324 1.613 . S
N1325 C1328 1.350 . S
N1326 S1324 1.610 . S
N1326 C1327 1.351 . S
C1327 C1321 1.428 . S
C1327 N1326 1.351 . S
C1327 C1328 1.434 . S
C1328 C1319 1.429 . S
C1328 N1325 1.350 . S
C1328 C1327 1.434 . S
C1329 C1330 1.369 . S
C1329 C1331 1.419 . S
C1329 H1333 0.930 . S
C1330 C1329 1.369 . S
C1330 C1339 1.429 . S
C1331 C1329 1.419 . S
C1331 C1332 1.363 . S
C1331 H1334 0.929 . S
C1332 C1331 1.363 . S
C1332 C1338 1.428 . S
H1333 C1329 0.930 . S
H1334 C1331 0.929 . S
S1335 N1336 1.613 . S
S1335 N1337 1.610 . S
N1336 S1335 1.613 . S
N1336 C1339 1.350 . S
N1337 S1335 1.610 . S
N1337 C1338 1.351 . S
C1338 C1332 1.428 . S
C1338 N1337 1.351 . S
C1338 C1339 1.434 . S
C1339 C1330 1.429 . S
C1339 N1336 1.350 . S
C1339 C1338 1.434 . S
C1340 C1341 1.369 . S
C1340 C1342 1.419 . S
C1340 H1344 0.930 . S
C1341 C1340 1.369 . S
C1341 C1350 1.429 . S
C1342 C1340 1.419 . S
C1342 C1343 1.363 . S
C1342 H1345 0.929 . S
C1343 C1342 1.363 . S
C1343 C1349 1.428 . S
H1344 C1340 0.930 . S
H1345 C1342 0.929 . S
S1346 N1347 1.613 . S
S1346 N1348 1.610 . S
N1347 S1346 1.613 . S
N1347 C1350 1.350 . S
N1348 S1346 1.610 . S
N1348 C1349 1.351 . S
C1349 C1343 1.428 . S
C1349 N1348 1.351 . S
C1349 C1350 1.434 . S
C1350 C1341 1.429 . S
C1350 N1347 1.350 . S
C1350 C1349 1.434 . S
C1351 C1352 1.369 . S
C1351 C1353 1.419 . S
C1351 H1355 0.930 . S
C1352 C1351 1.369 . S
C1352 C1361 1.429 . S
C1353 C1351 1.419 . S
C1353 C1354 1.363 . S
C1353 H1356 0.929 . S
C1354 C1353 1.363 . S
C1354 C1360 1.428 . S
H1355 C1351 0.930 . S
H1356 C1353 0.929 . S
S1357 N1358 1.613 1_565 S
S1357 N1359 1.610 . S
N1358 S1357 1.613 1_545 S
N1358 C1361 1.350 . S
N1359 S1357 1.610 . S
N1359 C1360 1.351 1_565 S
C1360 C1354 1.428 . S
C1360 N1359 1.351 1_545 S
C1360 C1361 1.434 . S
C1361 C1352 1.429 . S
C1361 N1358 1.350 . S
C1361 C1360 1.434 . S
C1362 C1363 1.369 . S
C1362 C1364 1.419 . S
C1362 H1366 0.930 . S
C1363 C1362 1.369 . S
C1363 C1372 1.429 . S
C1364 C1362 1.419 . S
C1364 C1365 1.363 . S
C1364 H1367 0.929 . S
C1365 C1364 1.363 . S
C1365 C1371 1.428 . S
H1366 C1362 0.930 . S
H1367 C1364 0.929 . S
S1368 N1369 1.613 . S
S1368 N1370 1.610 . S
N1369 S1368 1.613 . S
N1369 C1372 1.350 . S
N1370 S1368 1.610 . S
N1370 C1371 1.351 . S
C1371 C1365 1.428 . S
C1371 N1370 1.351 . S
C1371 C1372 1.434 . S
C1372 C1363 1.429 . S
C1372 N1369 1.350 . S
C1372 C1371 1.434 . S
C1373 C1374 1.369 . S
C1373 C1375 1.419 . S
C1373 H1377 0.930 . S
C1374 C1373 1.369 . S
C1374 C1383 1.429 . S
C1375 C1373 1.419 . S
C1375 C1376 1.363 . S
C1375 H1378 0.929 . S
C1376 C1375 1.363 . S
C1376 C1382 1.428 . S
H1377 C1373 0.930 . S
H1378 C1375 0.929 . S
S1379 N1380 1.613 . S
S1379 N1381 1.610 . S
N1380 S1379 1.613 . S
N1380 C1383 1.350 . S
N1381 S1379 1.610 . S
N1381 C1382 1.351 . S
C1382 C1376 1.428 . S
C1382 N1381 1.351 . S
C1382 C1383 1.434 . S
C1383 C1374 1.429 . S
C1383 N1380 1.350 . S
C1383 C1382 1.434 . S
C1384 C1385 1.369 . S
C1384 C1386 1.419 . S
C1384 H1388 0.930 . S
C1385 C1384 1.369 . S
C1385 C1394 1.429 . S
C1386 C1384 1.419 . S
C1386 C1387 1.363 . S
C1386 H1389 0.929 . S
C1387 C1386 1.363 . S
C1387 C1393 1.428 . S
H1388 C1384 0.930 . S
H1389 C1386 0.929 . S
S1390 N1391 1.613 . S
S1390 N1392 1.610 . S
N1391 S1390 1.613 . S
N1391 C1394 1.350 . S
N1392 S1390 1.610 . S
N1392 C1393 1.351 . S
C1393 C1387 1.428 . S
C1393 N1392 1.351 . S
C1393 C1394 1.434 . S
C1394 C1385 1.429 . S
C1394 N1391 1.350 . S
C1394 C1393 1.434 . S
C1395 C1396 1.369 . S
C1395 C1397 1.419 . S
C1395 H1399 0.930 . S
C1396 C1395 1.369 . S
C1396 C1405 1.429 . S
C1397 C1395 1.419 . S
C1397 C1398 1.363 . S
C1397 H1400 0.929 . S
C1398 C1397 1.363 . S
C1398 C1404 1.428 . S
H1399 C1395 0.930 . S
H1400 C1397 0.929 . S
S1401 N1402 1.613 . S
S1401 N1403 1.610 . S
N1402 S1401 1.613 . S
N1402 C1405 1.350 . S
N1403 S1401 1.610 . S
N1403 C1404 1.351 . S
C1404 C1398 1.428 . S
C1404 N1403 1.351 . S
C1404 C1405 1.434 . S
C1405 C1396 1.429 . S
C1405 N1402 1.350 . S
C1405 C1404 1.434 . S
C1406 C1407 1.369 . S
C1406 C1408 1.419 . S
C1406 H1410 0.930 . S
C1407 C1406 1.369 . S
C1407 C1416 1.429 . S
C1408 C1406 1.419 . S
C1408 C1409 1.363 . S
C1408 H1411 0.929 . S
C1409 C1408 1.363 . S
C1409 C1415 1.428 . S
H1410 C1406 0.930 . S
H1411 C1408 0.929 . S
S1412 N1413 1.613 . S
S1412 N1414 1.610 . S
N1413 S1412 1.613 . S
N1413 C1416 1.350 . S
N1414 S1412 1.610 . S
N1414 C1415 1.351 . S
C1415 C1409 1.428 . S
C1415 N1414 1.351 . S
C1415 C1416 1.434 . S
C1416 C1407 1.429 . S
C1416 N1413 1.350 . S
C1416 C1415 1.434 . S
C1417 C1418 1.369 . S
C1417 C1419 1.419 . S
C1417 H1421 0.930 . S
C1418 C1417 1.369 . S
C1418 C1427 1.429 . S
C1419 C1417 1.419 . S
C1419 C1420 1.363 . S
C1419 H1422 0.929 . S
C1420 C1419 1.363 . S
C1420 C1426 1.428 . S
H1421 C1417 0.930 . S
H1422 C1419 0.929 . S
S1423 N1424 1.613 . S
S1423 N1425 1.610 . S
N1424 S1423 1.613 . S
N1424 C1427 1.350 . S
N1425 S1423 1.610 . S
N1425 C1426 1.351 . S
C1426 C1420 1.428 . S
C1426 N1425 1.351 . S
C1426 C1427 1.434 . S
C1427 C1418 1.429 . S
C1427 N1424 1.350 . S
C1427 C1426 1.434 . S
C1428 C1429 1.369 . S
C1428 C1430 1.419 . S
C1428 H1432 0.930 . S
C1429 C1428 1.369 . S
C1429 C1438 1.429 . S
C1430 C1428 1.419 . S
C1430 C1431 1.363 . S
C1430 H1433 0.929 . S
C1431 C1430 1.363 . S
C1431 C1437 1.428 . S
H1432 C1428 0.930 . S
H1433 C1430 0.929 . S
S1434 N1435 1.613 1_554 S
S1434 N1436 1.610 . S
N1435 S1434 1.613 1_556 S
N1435 C1438 1.350 . S
N1436 S1434 1.610 . S
N1436 C1437 1.351 1_554 S
C1437 C1431 1.428 . S
C1437 N1436 1.351 1_556 S
C1437 C1438 1.434 . S
C1438 C1429 1.429 . S
C1438 N1435 1.350 . S
C1438 C1437 1.434 . S
C1439 C1440 1.369 1_655 S
C1439 C1441 1.419 . S
C1439 H1443 0.930 1_655 S
C1440 C1439 1.369 1_455 S
C1440 C1449 1.429 1_455 S
C1441 C1439 1.419 . S
C1441 C1442 1.363 . S
C1441 H1444 0.929 . S
C1442 C1441 1.363 . S
C1442 C1448 1.428 . S
H1443 C1439 0.930 1_455 S
H1444 C1441 0.929 . S
S1445 N1446 1.613 . S
S1445 N1447 1.610 . S
N1446 S1445 1.613 . S
N1446 C1449 1.350 . S
N1447 S1445 1.610 . S
N1447 C1448 1.351 . S
C1448 C1442 1.428 . S
C1448 N1447 1.351 . S
C1448 C1449 1.434 . S
C1449 C1440 1.429 1_655 S
C1449 N1446 1.350 . S
C1449 C1448 1.434 . S
C1450 C1451 1.369 . S
C1450 C1452 1.419 . S
C1450 H1454 0.930 . S
C1451 C1450 1.369 . S
C1451 C1460 1.429 . S
C1452 C1450 1.419 . S
C1452 C1453 1.363 . S
C1452 H1455 0.929 . S
C1453 C1452 1.363 . S
C1453 C1459 1.428 . S
H1454 C1450 0.930 . S
H1455 C1452 0.929 . S
S1456 N1457 1.613 . S
S1456 N1458 1.610 . S
N1457 S1456 1.613 . S
N1457 C1460 1.350 . S
N1458 S1456 1.610 . S
N1458 C1459 1.351 . S
C1459 C1453 1.428 . S
C1459 N1458 1.351 . S
C1459 C1460 1.434 . S
C1460 C1451 1.429 . S
C1460 N1457 1.350 . S
C1460 C1459 1.434 . S
C1461 C1462 1.369 . S
C1461 C1463 1.419 . S
C1461 H1465 0.930 . S
C1462 C1461 1.369 . S
C1462 C1471 1.429 . S
C1463 C1461 1.419 . S
C1463 C1464 1.363 . S
C1463 H1466 0.929 . S
C1464 C1463 1.363 . S
C1464 C1470 1.428 . S
H1465 C1461 0.930 . S
H1466 C1463 0.929 . S
S1467 N1468 1.613 . S
S1467 N1469 1.610 . S
N1468 S1467 1.613 . S
N1468 C1471 1.350 . S
N1469 S1467 1.610 . S
N1469 C1470 1.351 . S
C1470 C1464 1.428 . S
C1470 N1469 1.351 . S
C1470 C1471 1.434 . S
C1471 C1462 1.429 . S
C1471 N1468 1.350 . S
C1471 C1470 1.434 . S
C1472 C1473 1.369 . S
C1472 C1474 1.419 . S
C1472 H1476 0.930 . S
C1473 C1472 1.369 . S
C1473 C1482 1.429 . S
C1474 C1472 1.419 . S
C1474 C1475 1.363 . S
C1474 H1477 0.929 . S
C1475 C1474 1.363 . S
C1475 C1481 1.428 . S
H1476 C1472 0.930 . S
H1477 C1474 0.929 . S
S1478 N1479 1.613 . S
S1478 N1480 1.610 . S
N1479 S1478 1.613 . S
N1479 C1482 1.350 . S
N1480 S1478 1.610 . S
N1480 C1481 1.351 . S
C1481 C1475 1.428 . S
C1481 N1480 1.351 . S
C1481 C1482 1.434 . S
C1482 C1473 1.429 . S
C1482 N1479 1.350 . S
C1482 C1481 1.434 . S
C1483 C1484 1.369 . S
C1483 C1485 1.419 . S
C1483 H1487 0.930 . S
C1484 C1483 1.369 . S
C1484 C1493 1.429 . S
C1485 C1483 1.419 . S
C1485 C1486 1.363 . S
C1485 H1488 0.929 . S
C1486 C1485 1.363 . S
C1486 C1492 1.428 . S
H1487 C1483 0.930 . S
H1488 C1485 0.929 . S
S1489 N1490 1.613 . S
S1489 N1491 1.610 . S
N1490 S1489 1.613 . S
N1490 C1493 1.350 . S
N1491 S1489 1.610 . S
N1491 C1492 1.351 . S
C1492 C1486 1.428 . S
C1492 N1491 1.351 . S
C1492 C1493 1.434 . S
C1493 C1484 1.429 . S
C1493 N1490 1.350 . S
C1493 C1492 1.434 . S
C1494 C1495 1.369 . S
C1494 C1496 1.419 . S
C1494 H1498 0.930 . S
C1495 C1494 1.369 . S
C1495 C1504 1.429 . S
C1496 C1494 1.419 . S
C1496 C1497 1.363 1_655 S
C1496 H1499 0.929 . S
C1497 C1496 1.363 1_455 S
C1497 C1503 1.428 1_455 S
H1498 C1494 0.930 . S
H1499 C1496 0.929 . S
S1500 N1501 1.613 . S
S1500 N1502 1.610 1_655 S
N1501 S1500 1.613 . S
N1501 C1504 1.350 . S
N1502 S1500 1.610 1_455 S
N1502 C1503 1.351 1_455 S
C1503 C1497 1.428 1_655 S
C1503 N1502 1.351 1_655 S
C1503 C1504 1.434 . S
C1504 C1495 1.429 . S
C1504 N1501 1.350 . S
C1504 C1503 1.434 . S
C1505 C1506 1.369 . S
C1505 C1507 1.419 . S
C1505 H1509 0.930 . S
C1506 C1505 1.369 . S
C1506 C1515 1.429 . S
C1507 C1505 1.419 . S
C1507 C1508 1.363 . S
C1507 H1510 0.929 . S
C1508 C1507 1.363 . S
C1508 C1514 1.428 . S
H1509 C1505 0.930 . S
H1510 C1507 0.929 . S
S1511 N1512 1.613 . S
S1511 N1513 1.610 . S
N1512 S1511 1.613 . S
N1512 C1515 1.350 . S
N1513 S1511 1.610 . S
N1513 C1514 1.351 . S
C1514 C1508 1.428 . S
C1514 N1513 1.351 . S
C1514 C1515 1.434 . S
C1515 C1506 1.429 . S
C1515 N1512 1.350 . S
C1515 C1514 1.434 . S
C1516 C1517 1.369 . S
C1516 C1518 1.419 . S
C1516 H1520 0.930 . S
C1517 C1516 1.369 . S
C1517 C1526 1.429 . S
C1518 C1516 1.419 . S
C1518 C1519 1.363 . S
C1518 H1521 0.929 . S
C1519 C1518 1.363 . S
C1519 C1525 1.428 . S
H1520 C1516 0.930 . S
H1521 C1518 0.929 . S
S1522 N1523 1.613 . S
S1522 N1524 1.610 . S
N1523 S1522 1.613 . S
N1523 C1526 1.350 . S
N1524 S1522 1.610 . S
N1524 C1525 1.351 . S
C1525 C1519 1.428 . S
C1525 N1524 1.351 . S
C1525 C1526 1.434 . S
C1526 C1517 1.429 . S
C1526 N1523 1.350 . S
C1526 C1525 1.434 . S
C1527 C1528 1.369 . S
C1527 C1529 1.419 . S
C1527 H1531 0.930 . S
C1528 C1527 1.369 . S
C1528 C1537 1.429 . S
C1529 C1527 1.419 . S
C1529 C1530 1.363 . S
C1529 H1532 0.929 . S
C1530 C1529 1.363 . S
C1530 C1536 1.428 . S
H1531 C1527 0.930 . S
H1532 C1529 0.929 . S
S1533 N1534 1.613 . S
S1533 N1535 1.610 . S
N1534 S1533 1.613 . S
N1534 C1537 1.350 . S
N1535 S1533 1.610 . S
N1535 C1536 1.351 . S
C1536 C1530 1.428 . S
C1536 N1535 1.351 . S
C1536 C1537 1.434 . S
C1537 C1528 1.429 . S
C1537 N1534 1.350 . S
C1537 C1536 1.434 . S
C1538 C1539 1.369 . S
C1538 C1540 1.419 . S
C1538 H1542 0.930 . S
C1539 C1538 1.369 . S
C1539 C1548 1.429 . S
C1540 C1538 1.419 . S
C1540 C1541 1.363 . S
C1540 H1543 0.929 . S
C1541 C1540 1.363 . S
C1541 C1547 1.428 . S
H1542 C1538 0.930 . S
H1543 C1540 0.929 . S
S1544 N1545 1.613 1_455 S
S1544 N1546 1.610 . S
N1545 S1544 1.613 1_655 S
N1545 C1548 1.350 . S
N1546 S1544 1.610 . S
N1546 C1547 1.351 1_455 S
C1547 C1541 1.428 . S
C1547 N1546 1.351 1_655 S
C1547 C1548 1.434 . S
C1548 C1539 1.429 . S
C1548 N1545 1.350 . S
C1548 C1547 1.434 . S
C1549 C1550 1.369 . S
C1549 C1551 1.419 . S
C1549 H1553 0.930 . S
C1550 C1549 1.369 . S
C1550 C1559 1.429 . S
C1551 C1549 1.419 . S
C1551 C1552 1.363 . S
C1551 H1554 0.929 . S
C1552 C1551 1.363 . S
C1552 C1558 1.428 . S
H1553 C1549 0.930 . S
H1554 C1551 0.929 . S
S1555 N1556 1.613 . S
S1555 N1557 1.610 . S
N1556 S1555 1.613 . S
N1556 C1559 1.350 . S
N1557 S1555 1.610 . S
N1557 C1558 1.351 . S
C1558 C1552 1.428 . S
C1558 N1557 1.351 . S
C1558 C1559 1.434 . S
C1559 C1550 1.429 . S
C1559 N1556 1.350 . S
C1559 C1558 1.434 . S
C1560 C1561 1.369 . S
C1560 C1562 1.419 . S
C1560 H1564 0.930 . S
C1561 C1560 1.369 . S
C1561 C1570 1.429 . S
C1562 C1560 1.419 . S
C1562 C1563 1.363 . S
C1562 H1565 0.929 . S
C1563 C1562 1.363 . S
C1563 C1569 1.428 . S
H1564 C1560 0.930 . S
H1565 C1562 0.929 . S
S1566 N1567 1.613 . S
S1566 N1568 1.610 . S
N1567 S1566 1.613 . S
N1567 C1570 1.350 . S
N1568 S1566 1.610 . S
N1568 C1569 1.351 . S
C1569 C1563 1.428 . S
C1569 N1568 1.351 . S
C1569 C1570 1.434 . S
C1570 C1561 1.429 . S
C1570 N1567 1.350 . S
C1570 C1569 1.434 . S
C1571 C1572 1.369 . S
C1571 C1573 1.419 . S
C1571 H1575 0.930 . S
C1572 C1571 1.369 . S
C1572 C1581 1.429 . S
C1573 C1571 1.419 . S
C1573 C1574 1.363 . S
C1573 H1576 0.929 1_565 S
C1574 C1573 1.363 . S
C1574 C1580 1.428 . S
H1575 C1571 0.930 . S
H1576 C1573 0.929 1_545 S
S1577 N1578 1.613 . S
S1577 N1579 1.610 . S
N1578 S1577 1.613 . S
N1578 C1581 1.350 . S
N1579 S1577 1.610 . S
N1579 C1580 1.351 . S
C1580 C1574 1.428 . S
C1580 N1579 1.351 . S
C1580 C1581 1.434 . S
C1581 C1572 1.429 . S
C1581 N1578 1.350 . S
C1581 C1580 1.434 . S
C1582 C1583 1.369 . S
C1582 C1584 1.419 . S
C1582 H1586 0.930 . S
C1583 C1582 1.369 . S
C1583 C1592 1.429 . S
C1584 C1582 1.419 . S
C1584 C1585 1.363 . S
C1584 H1587 0.929 . S
C1585 C1584 1.363 . S
C1585 C1591 1.428 . S
H1586 C1582 0.930 . S
H1587 C1584 0.929 . S
S1588 N1589 1.613 . S
S1588 N1590 1.610 . S
N1589 S1588 1.613 . S
N1589 C1592 1.350 . S
N1590 S1588 1.610 . S
N1590 C1591 1.351 . S
C1591 C1585 1.428 . S
C1591 N1590 1.351 . S
C1591 C1592 1.434 . S
C1592 C1583 1.429 . S
C1592 N1589 1.350 . S
C1592 C1591 1.434 . S
C1593 C1594 1.369 . S
C1593 C1595 1.419 . S
C1593 H1597 0.930 . S
C1594 C1593 1.369 . S
C1594 C1603 1.429 . S
C1595 C1593 1.419 . S
C1595 C1596 1.363 . S
C1595 H1598 0.929 . S
C1596 C1595 1.363 . S
C1596 C1602 1.428 . S
H1597 C1593 0.930 . S
H1598 C1595 0.929 . S
S1599 N1600 1.613 . S
S1599 N1601 1.610 . S
N1600 S1599 1.613 . S
N1600 C1603 1.350 1_556 S
N1601 S1599 1.610 . S
N1601 C1602 1.351 1_556 S
C1602 C1596 1.428 . S
C1602 N1601 1.351 1_554 S
C1602 C1603 1.434 . S
C1603 C1594 1.429 . S
C1603 N1600 1.350 1_554 S
C1603 C1602 1.434 . S
C1604 C1605 1.369 . S
C1604 C1606 1.419 . S
C1604 H1608 0.930 . S
C1605 C1604 1.369 . S
C1605 C1614 1.429 . S
C1606 C1604 1.419 . S
C1606 C1607 1.363 . S
C1606 H1609 0.929 . S
C1607 C1606 1.363 . S
C1607 C1613 1.428 . S
H1608 C1604 0.930 . S
H1609 C1606 0.929 . S
S1610 N1611 1.613 . S
S1610 N1612 1.610 . S
N1611 S1610 1.613 . S
N1611 C1614 1.350 . S
N1612 S1610 1.610 . S
N1612 C1613 1.351 . S
C1613 C1607 1.428 . S
C1613 N1612 1.351 . S
C1613 C1614 1.434 . S
C1614 C1605 1.429 . S
C1614 N1611 1.350 . S
C1614 C1613 1.434 . S
C1615 C1616 1.369 . S
C1615 C1617 1.419 . S
C1615 H1619 0.930 . S
C1616 C1615 1.369 . S
C1616 C1625 1.429 . S
C1617 C1615 1.419 . S
C1617 C1618 1.363 . S
C1617 H1620 0.929 . S
C1618 C1617 1.363 . S
C1618 C1624 1.428 . S
H1619 C1615 0.930 . S
H1620 C1617 0.929 . S
S1621 N1622 1.613 1_556 S
S1621 N1623 1.611 . S
N1622 S1621 1.613 1_554 S
N1622 C1625 1.350 . S
N1623 S1621 1.611 . S
N1623 C1624 1.334 1_556 S
C1624 C1618 1.428 . S
C1624 N1623 1.334 1_554 S
C1624 C1625 1.434 . S
C1625 C1616 1.429 . S
C1625 N1622 1.350 . S
C1625 C1624 1.434 . S
C1626 C1627 1.369 . S
C1626 C1628 1.419 . S
C1626 H1630 0.930 . S
C1627 C1626 1.369 . S
C1627 C1636 1.429 . S
C1628 C1626 1.419 . S
C1628 C1629 1.363 . S
C1628 H1631 0.929 . S
C1629 C1628 1.363 . S
C1629 C1635 1.428 . S
H1630 C1626 0.930 . S
H1631 C1628 0.929 . S
S1632 N1633 1.613 . S
S1632 N1634 1.610 . S
N1633 S1632 1.613 . S
N1633 C1636 1.350 . S
N1634 S1632 1.610 . S
N1634 C1635 1.351 . S
C1635 C1629 1.428 . S
C1635 N1634 1.351 . S
C1635 C1636 1.434 . S
C1636 C1627 1.429 . S
C1636 N1633 1.350 . S
C1636 C1635 1.434 . S
C1637 C1638 1.369 . S
C1637 C1639 1.419 . S
C1637 H1641 0.930 . S
C1638 C1637 1.369 . S
C1638 C1647 1.429 . S
C1639 C1637 1.419 . S
C1639 C1640 1.363 . S
C1639 H1642 0.929 . S
C1640 C1639 1.363 . S
C1640 C1646 1.428 . S
H1641 C1637 0.930 . S
H1642 C1639 0.929 . S
S1643 N1644 1.613 . S
S1643 N1645 1.610 . S
N1644 S1643 1.613 . S
N1644 C1647 1.350 . S
N1645 S1643 1.610 . S
N1645 C1646 1.351 . S
C1646 C1640 1.428 . S
C1646 N1645 1.351 . S
C1646 C1647 1.434 . S
C1647 C1638 1.429 . S
C1647 N1644 1.350 . S
C1647 C1646 1.434 . S
C1648 C1649 1.369 . S
C1648 C1650 1.419 . S
C1648 H1652 0.930 . S
C1649 C1648 1.369 . S
C1649 C1658 1.429 . S
C1650 C1648 1.419 . S
C1650 C1651 1.363 . S
C1650 H1653 0.929 . S
C1651 C1650 1.363 . S
C1651 C1657 1.428 . S
H1652 C1648 0.930 . S
H1653 C1650 0.929 . S
S1654 N1655 1.613 . S
S1654 N1656 1.610 . S
N1655 S1654 1.613 . S
N1655 C1658 1.350 . S
N1656 S1654 1.610 . S
N1656 C1657 1.351 . S
C1657 C1651 1.428 . S
C1657 N1656 1.351 . S
C1657 C1658 1.434 . S
C1658 C1649 1.429 . S
C1658 N1655 1.350 . S
C1658 C1657 1.434 . S
C1659 C1660 1.369 . S
C1659 C1661 1.419 . S
C1659 H1663 0.930 . S
C1660 C1659 1.369 . S
C1660 C1669 1.429 . S
C1661 C1659 1.419 . S
C1661 C1662 1.363 . S
C1661 H1664 0.929 . S
C1662 C1661 1.363 . S
C1662 C1668 1.428 . S
H1663 C1659 0.930 . S
H1664 C1661 0.929 . S
S1665 N1666 1.613 . S
S1665 N1667 1.610 . S
N1666 S1665 1.613 . S
N1666 C1669 1.350 . S
N1667 S1665 1.610 . S
N1667 C1668 1.351 . S
C1668 C1662 1.428 . S
C1668 N1667 1.351 . S
C1668 C1669 1.434 . S
C1669 C1660 1.429 . S
C1669 N1666 1.350 . S
C1669 C1668 1.434 . S
C1670 C1671 1.369 1_655 S
C1670 C1672 1.419 . S
C1670 H1674 0.930 . S
C1671 C1670 1.369 1_455 S
C1671 C1680 1.429 . S
C1672 C1670 1.419 . S
C1672 C1673 1.379 . S
C1672 H1675 0.929 . S
C1673 C1672 1.379 . S
C1673 C1679 1.408 1_655 S
H1674 C1670 0.930 . S
H1675 C1672 0.929 . S
S1676 N1677 1.613 . S
S1676 N1678 1.610 . S
N1677 S1676 1.613 . S
N1677 C1680 1.350 . S
N1678 S1676 1.610 . S
N1678 C1679 1.351 . S
C1679 C1673 1.408 1_455 S
C1679 N1678 1.351 . S
C1679 C1680 1.434 . S
C1680 C1671 1.429 . S
C1680 N1677 1.350 . S
C1680 C1679 1.434 . S
C1681 C1682 1.369 . S
C1681 C1683 1.419 . S
C1681 H1685 0.930 . S
C1682 C1681 1.369 . S
C1682 C1691 1.429 . S
C1683 C1681 1.419 . S
C1683 C1684 1.363 . S
C1683 H1686 0.929 . S
C1684 C1683 1.363 . S
C1684 C1690 1.428 . S
H1685 C1681 0.930 . S
H1686 C1683 0.929 . S
S1687 N1688 1.613 . S
S1687 N1689 1.610 . S
N1688 S1687 1.613 . S
N1688 C1691 1.350 . S
N1689 S1687 1.610 . S
N1689 C1690 1.351 . S
C1690 C1684 1.428 . S
C1690 N1689 1.351 . S
C1690 C1691 1.434 . S
C1691 C1682 1.429 . S
C1691 N1688 1.350 . S
C1691 C1690 1.434 . S
C1692 C1693 1.369 . S
C1692 C1694 1.419 . S
C1692 H1696 0.930 . S
C1693 C1692 1.369 . S
C1693 C1702 1.429 . S
C1694 C1692 1.419 . S
C1694 C1695 1.363 . S
C1694 H1697 0.929 . S
C1695 C1694 1.363 . S
C1695 C1701 1.428 . S
H1696 C1692 0.930 . S
H1697 C1694 0.929 . S
S1698 N1699 1.613 . S
S1698 N1700 1.610 . S
N1699 S1698 1.613 . S
N1699 C1702 1.350 . S
N1700 S1698 1.610 . S
N1700 C1701 1.351 . S
C1701 C1695 1.428 . S
C1701 N1700 1.351 . S
C1701 C1702 1.434 . S
C1702 C1693 1.429 . S
C1702 N1699 1.350 . S
C1702 C1701 1.434 . S
C1703 C1704 1.369 . S
C1703 C1705 1.419 . S
C1703 H1707 0.930 . S
C1704 C1703 1.369 . S
C1704 C1713 1.429 . S
C1705 C1703 1.419 . S
C1705 C1706 1.363 . S
C1705 H1708 0.929 . S
C1706 C1705 1.363 . S
C1706 C1712 1.428 . S
H1707 C1703 0.930 . S
H1708 C1705 0.929 . S
S1709 N1710 1.613 . S
S1709 N1711 1.610 . S
N1710 S1709 1.613 . S
N1710 C1713 1.350 . S
N1711 S1709 1.610 . S
N1711 C1712 1.351 . S
C1712 C1706 1.428 . S
C1712 N1711 1.351 . S
C1712 C1713 1.434 . S
C1713 C1704 1.429 . S
C1713 N1710 1.350 . S
C1713 C1712 1.434 . S
C1714 C1715 1.369 . S
C1714 C1716 1.419 . S
C1714 H1718 0.930 . S
C1715 C1714 1.369 . S
C1715 C1724 1.429 . S
C1716 C1714 1.419 . S
C1716 C1717 1.363 . S
C1716 H1719 0.929 . S
C1717 C1716 1.363 . S
C1717 C1723 1.428 . S
H1718 C1714 0.930 . S
H1719 C1716 0.929 . S
S1720 N1721 1.613 . S
S1720 N1722 1.610 . S
N1721 S1720 1.613 . S
N1721 C1724 1.350 . S
N1722 S1720 1.610 . S
N1722 C1723 1.351 . S
C1723 C1717 1.428 . S
C1723 N1722 1.351 . S
C1723 C1724 1.434 . S
C1724 C1715 1.429 . S
C1724 N1721 1.350 . S
C1724 C1723 1.434 . S
C1725 C1726 1.369 . S
C1725 C1727 1.419 . S
C1725 H1729 0.930 . S
C1726 C1725 1.369 . S
C1726 C1735 1.429 . S
C1727 C1725 1.419 . S
C1727 C1728 1.363 . S
C1727 H1730 0.929 . S
C1728 C1727 1.363 . S
C1728 C1734 1.428 . S
H1729 C1725 0.930 . S
H1730 C1727 0.929 . S
S1731 N1732 1.613 . S
S1731 N1733 1.610 . S
N1732 S1731 1.613 . S
N1732 C1735 1.350 . S
N1733 S1731 1.610 . S
N1733 C1734 1.351 . S
C1734 C1728 1.428 . S
C1734 N1733 1.351 . S
C1734 C1735 1.434 . S
C1735 C1726 1.429 . S
C1735 N1732 1.350 . S
C1735 C1734 1.434 . S
C1736 C1737 1.369 . S
C1736 C1738 1.419 . S
C1736 H1740 0.930 . S
C1737 C1736 1.369 . S
C1737 C1746 1.429 . S
C1738 C1736 1.419 . S
C1738 C1739 1.363 . S
C1738 H1741 0.929 . S
C1739 C1738 1.363 . S
C1739 C1745 1.428 . S
H1740 C1736 0.930 . S
H1741 C1738 0.929 . S
S1742 N1743 1.613 . S
S1742 N1744 1.610 . S
N1743 S1742 1.613 . S
N1743 C1746 1.350 . S
N1744 S1742 1.610 . S
N1744 C1745 1.351 . S
C1745 C1739 1.428 . S
C1745 N1744 1.351 . S
C1745 C1746 1.434 . S
C1746 C1737 1.429 . S
C1746 N1743 1.350 . S
C1746 C1745 1.434 . S
C1747 C1748 1.369 . S
C1747 C1749 1.419 . S
C1747 H1751 0.930 . S
C1748 C1747 1.369 . S
C1748 C1757 1.429 . S
C1749 C1747 1.419 . S
C1749 C1750 1.363 . S
C1749 H1752 0.929 . S
C1750 C1749 1.363 . S
C1750 C1756 1.428 . S
H1751 C1747 0.930 . S
H1752 C1749 0.929 . S
S1753 N1754 1.613 . S
S1753 N1755 1.610 . S
N1754 S1753 1.613 . S
N1754 C1757 1.350 . S
N1755 S1753 1.610 . S
N1755 C1756 1.351 . S
C1756 C1750 1.428 . S
C1756 N1755 1.351 . S
C1756 C1757 1.434 . S
C1757 C1748 1.429 . S
C1757 N1754 1.350 . S
C1757 C1756 1.434 . S
C1758 C1759 1.369 . S
C1758 C1760 1.419 . S
C1758 H1762 0.930 . S
C1759 C1758 1.369 . S
C1759 C1768 1.429 . S
C1760 C1758 1.419 . S
C1760 C1761 1.363 . S
C1760 H1763 0.929 . S
C1761 C1760 1.363 . S
C1761 C1767 1.428 . S
H1762 C1758 0.930 . S
H1763 C1760 0.929 . S
S1764 N1765 1.613 . S
S1764 N1766 1.610 . S
N1765 S1764 1.613 . S
N1765 C1768 1.350 . S
N1766 S1764 1.610 . S
N1766 C1767 1.351 . S
C1767 C1761 1.428 . S
C1767 N1766 1.351 . S
C1767 C1768 1.434 . S
C1768 C1759 1.429 . S
C1768 N1765 1.350 . S
C1768 C1767 1.434 . S
C1769 C1770 1.369 . S
C1769 C1771 1.419 . S
C1769 H1773 0.930 . S
C1770 C1769 1.369 . S
C1770 C1779 1.429 . S
C1771 C1769 1.419 . S
C1771 C1772 1.363 . S
C1771 H1774 0.929 . S
C1772 C1771 1.363 . S
C1772 C1778 1.428 . S
H1773 C1769 0.930 . S
H1774 C1771 0.929 . S
S1775 N1776 1.613 . S
S1775 N1777 1.610 . S
N1776 S1775 1.613 . S
N1776 C1779 1.350 . S
N1777 S1775 1.610 . S
N1777 C1778 1.351 . S
C1778 C1772 1.428 . S
C1778 N1777 1.351 . S
C1778 C1779 1.434 . S
C1779 C1770 1.429 . S
C1779 N1776 1.350 . S
C1779 C1778 1.434 . S
C1780 C1781 1.369 . S
C1780 C1782 1.419 . S
C1780 H1784 0.930 . S
C1781 C1780 1.369 . S
C1781 C1790 1.429 . S
C1782 C1780 1.419 . S
C1782 C1783 1.363 . S
C1782 H1785 0.929 . S
C1783 C1782 1.363 . S
C1783 C1789 1.428 . S
H1784 C1780 0.930 . S
H1785 C1782 0.929 . S
S1786 N1787 1.613 . S
S1786 N1788 1.610 . S
N1787 S1786 1.613 . S
N1787 C1790 1.350 . S
N1788 S1786 1.610 . S
N1788 C1789 1.351 . S
C1789 C1783 1.428 . S
C1789 N1788 1.351 . S
C1789 C1790 1.434 . S
C1790 C1781 1.429 . S
C1790 N1787 1.350 . S
C1790 C1789 1.434 . S
C1791 C1792 1.369 . S
C1791 C1793 1.419 . S
C1791 H1795 0.930 . S
C1792 C1791 1.369 . S
C1792 C1801 1.429 . S
C1793 C1791 1.419 . S
C1793 C1794 1.363 . S
C1793 H1796 0.929 . S
C1794 C1793 1.363 . S
C1794 C1800 1.428 . S
H1795 C1791 0.930 . S
H1796 C1793 0.929 . S
S1797 N1798 1.613 . S
S1797 N1799 1.610 . S
N1798 S1797 1.613 . S
N1798 C1801 1.350 . S
N1799 S1797 1.610 . S
N1799 C1800 1.351 . S
C1800 C1794 1.428 . S
C1800 N1799 1.351 . S
C1800 C1801 1.434 . S
C1801 C1792 1.429 . S
C1801 N1798 1.350 . S
C1801 C1800 1.434 . S
C1802 C1803 1.369 . S
C1802 C1804 1.419 . S
C1802 H1806 0.930 . S
C1803 C1802 1.369 . S
C1803 C1812 1.429 . S
C1804 C1802 1.419 . S
C1804 C1805 1.363 . S
C1804 H1807 0.929 . S
C1805 C1804 1.363 . S
C1805 C1811 1.428 . S
H1806 C1802 0.930 . S
H1807 C1804 0.929 . S
S1808 N1809 1.613 . S
S1808 N1810 1.610 . S
N1809 S1808 1.613 . S
N1809 C1812 1.350 . S
N1810 S1808 1.610 . S
N1810 C1811 1.351 . S
C1811 C1805 1.428 . S
C1811 N1810 1.351 . S
C1811 C1812 1.434 . S
C1812 C1803 1.429 . S
C1812 N1809 1.350 . S
C1812 C1811 1.434 . S
C1813 C1814 1.369 . S
C1813 C1815 1.419 . S
C1813 H1817 0.930 . S
C1814 C1813 1.369 . S
C1814 C1823 1.429 . S
C1815 C1813 1.419 . S
C1815 C1816 1.363 . S
C1815 H1818 0.929 . S
C1816 C1815 1.363 . S
C1816 C1822 1.428 . S
H1817 C1813 0.930 . S
H1818 C1815 0.929 . S
S1819 N1820 1.613 . S
S1819 N1821 1.610 . S
N1820 S1819 1.613 . S
N1820 C1823 1.350 . S
N1821 S1819 1.610 . S
N1821 C1822 1.351 . S
C1822 C1816 1.428 . S
C1822 N1821 1.351 . S
C1822 C1823 1.434 . S
C1823 C1814 1.429 . S
C1823 N1820 1.350 . S
C1823 C1822 1.434 . S
C1824 C1825 1.369 . S
C1824 C1826 1.419 . S
C1824 H1828 0.930 . S
C1825 C1824 1.369 . S
C1825 C1834 1.429 . S
C1826 C1824 1.419 . S
C1826 C1827 1.363 . S
C1826 H1829 0.929 . S
C1827 C1826 1.363 . S
C1827 C1833 1.428 . S
H1828 C1824 0.930 . S
H1829 C1826 0.929 . S
S1830 N1831 1.613 . S
S1830 N1832 1.610 . S
N1831 S1830 1.613 . S
N1831 C1834 1.350 . S
N1832 S1830 1.610 . S
N1832 C1833 1.351 . S
C1833 C1827 1.428 . S
C1833 N1832 1.351 . S
C1833 C1834 1.434 . S
C1834 C1825 1.429 . S
C1834 N1831 1.350 . S
C1834 C1833 1.434 . S
C1835 C1836 1.369 . S
C1835 C1837 1.419 . S
C1835 H1839 0.930 . S
C1836 C1835 1.369 . S
C1836 C1845 1.429 . S
C1837 C1835 1.419 . S
C1837 C1838 1.363 . S
C1837 H1840 0.929 . S
C1838 C1837 1.363 . S
C1838 C1844 1.428 . S
H1839 C1835 0.930 . S
H1840 C1837 0.929 . S
S1841 N1842 1.613 . S
S1841 N1843 1.610 . S
N1842 S1841 1.613 . S
N1842 C1845 1.350 . S
N1843 S1841 1.610 . S
N1843 C1844 1.351 . S
C1844 C1838 1.428 . S
C1844 N1843 1.351 . S
C1844 C1845 1.434 . S
C1845 C1836 1.429 . S
C1845 N1842 1.350 . S
C1845 C1844 1.434 . S
C1846 C1847 1.369 . S
C1846 C1848 1.419 . S
C1846 H1850 0.930 . S
C1847 C1846 1.369 . S
C1847 C1856 1.429 . S
C1848 C1846 1.419 . S
C1848 C1849 1.363 . S
C1848 H1851 0.929 . S
C1849 C1848 1.363 . S
C1849 C1855 1.428 . S
H1850 C1846 0.930 . S
H1851 C1848 0.929 . S
S1852 N1853 1.613 . S
S1852 N1854 1.610 . S
N1853 S1852 1.613 . S
N1853 C1856 1.350 . S
N1854 S1852 1.610 . S
N1854 C1855 1.351 . S
C1855 C1849 1.428 . S
C1855 N1854 1.351 . S
C1855 C1856 1.434 . S
C1856 C1847 1.429 . S
C1856 N1853 1.350 . S
C1856 C1855 1.434 . S
C1857 C1858 1.369 . S
C1857 C1859 1.419 . S
C1857 H1861 0.930 . S
C1858 C1857 1.369 . S
C1858 C1867 1.429 . S
C1859 C1857 1.419 . S
C1859 C1860 1.363 . S
C1859 H1862 0.929 . S
C1860 C1859 1.363 . S
C1860 C1866 1.428 . S
H1861 C1857 0.930 . S
H1862 C1859 0.929 . S
S1863 N1864 1.613 . S
S1863 N1865 1.610 . S
N1864 S1863 1.613 . S
N1864 C1867 1.350 1_545 S
N1865 S1863 1.610 . S
N1865 C1866 1.351 1_545 S
C1866 C1860 1.428 . S
C1866 N1865 1.351 1_565 S
C1866 C1867 1.434 . S
C1867 C1858 1.429 . S
C1867 N1864 1.350 1_565 S
C1867 C1866 1.434 . S
C1868 C1869 1.369 . S
C1868 C1870 1.419 . S
C1868 H1872 0.930 . S
C1869 C1868 1.369 . S
C1869 C1878 1.429 . S
C1870 C1868 1.419 . S
C1870 C1871 1.363 . S
C1870 H1873 0.929 . S
C1871 C1870 1.363 . S
C1871 C1877 1.428 . S
H1872 C1868 0.930 . S
H1873 C1870 0.929 . S
S1874 N1875 1.613 . S
S1874 N1876 1.610 . S
N1875 S1874 1.613 . S
N1875 C1878 1.350 . S
N1876 S1874 1.610 . S
N1876 C1877 1.351 . S
C1877 C1871 1.428 . S
C1877 N1876 1.351 . S
C1877 C1878 1.434 . S
C1878 C1869 1.429 . S
C1878 N1875 1.350 . S
C1878 C1877 1.434 . S
C1879 C1880 1.369 . S
C1879 C1881 1.419 . S
C1879 H1883 0.930 . S
C1880 C1879 1.369 . S
C1880 C1889 1.429 . S
C1881 C1879 1.419 . S
C1881 C1882 1.363 . S
C1881 H1884 0.929 . S
C1882 C1881 1.363 . S
C1882 C1888 1.428 . S
H1883 C1879 0.930 . S
H1884 C1881 0.929 . S
S1885 N1886 1.613 1_554 S
S1885 N1887 1.610 . S
N1886 S1885 1.613 1_556 S
N1886 C1889 1.350 1_556 S
N1887 S1885 1.610 . S
N1887 C1888 1.351 . S
C1888 C1882 1.428 . S
C1888 N1887 1.351 . S
C1888 C1889 1.434 . S
C1889 C1880 1.429 . S
C1889 N1886 1.350 1_554 S
C1889 C1888 1.434 . S
C1890 C1891 1.369 . S
C1890 C1892 1.419 . S
C1890 H1894 0.930 . S
C1891 C1890 1.369 . S
C1891 C1900 1.429 . S
C1892 C1890 1.419 . S
C1892 C1893 1.363 . S
C1892 H1895 0.929 . S
C1893 C1892 1.363 . S
C1893 C1899 1.428 . S
H1894 C1890 0.930 . S
H1895 C1892 0.929 . S
S1896 N1897 1.613 . S
S1896 N1898 1.610 . S
N1897 S1896 1.613 . S
N1897 C1900 1.350 . S
N1898 S1896 1.610 . S
N1898 C1899 1.351 . S
C1899 C1893 1.428 . S
C1899 N1898 1.351 . S
C1899 C1900 1.434 . S
C1900 C1891 1.429 . S
C1900 N1897 1.350 . S
C1900 C1899 1.434 . S
C1901 C1902 1.369 . S
C1901 C1903 1.419 . S
C1901 H1905 0.930 . S
C1902 C1901 1.369 . S
C1902 C1911 1.429 . S
C1903 C1901 1.419 . S
C1903 C1904 1.363 . S
C1903 H1906 0.929 . S
C1904 C1903 1.363 . S
C1904 C1910 1.428 . S
H1905 C1901 0.930 . S
H1906 C1903 0.929 . S
S1907 N1908 1.613 . S
S1907 N1909 1.610 . S
N1908 S1907 1.613 . S
N1908 C1911 1.350 . S
N1909 S1907 1.610 . S
N1909 C1910 1.351 . S
C1910 C1904 1.428 . S
C1910 N1909 1.351 . S
C1910 C1911 1.434 . S
C1911 C1902 1.429 . S
C1911 N1908 1.350 . S
C1911 C1910 1.434 . S
C859 C329 1.446 . S
C857 C10 1.440 . S
C868 C23 2.137 . S
C870 C375 2.119 . S
C879 C36 1.124 . S
C881 C384 1.119 . S
C892 C422 1.924 . S
C890 C42 1.972 . S
C901 C18 1.906 . S
C903 C456 1.878 . S
C914 C486 1.080 . S
C912 C31 1.093 . S
C925 C545 1.871 1_556 S
C923 C43 1.884 . S
C934 C5 1.387 . S
C936 C558 1.359 . S
C945 C56 1.741 . S
C947 C341 1.693 . S
C956 C70 1.414 . S
C958 C359 1.388 . S
C969 C380 1.973 . S
C967 C82 2.004 . S
C980 C418 1.169 . S
C978 C96 1.211 . S
C989 C57 1.523 . S
C991 C452 1.467 . S
C1002 C482 1.899 . S
C1000 C69 1.926 . S
C1013 C529 1.464 . S
C1011 C83 1.509 1_565 S
C1024 C554 0.990 . S
C1022 C95 1.001 . S
C1035 C325 0.942 . S
C1033 C94 0.978 . S
C1046 C584 1.806 . S
C1044 C108 1.802 . S
C1055 C122 1.703 . S
C1057 C626 1.676 . S
C1068 C669 0.709 . S
C1066 C140 0.713 . S
C1077 C55 1.702 . S
C1079 C550 1.648 . S
C1090 C388 1.739 . S
C1088 C68 1.768 . S
C1099 C121 1.614 . S
C1101 C686 1.626 . S
C1112 C737 1.824 . S
C1110 C153 1.816 . S
C1121 C161 1.226 1_455 S
C1123 C320 1.267 1_556 S
C1134 C720 1.879 . S
C1132 C174 1.893 . S
C1143 C186 1.019 . S
C1145 C393 1.020 . S
C1154 C200 1.699 . S
C1156 C703 1.651 . S
C1167 C465 1.643 . S
C1165 C172 1.678 . S
C1178 C631 0.919 . S
C1176 C192 0.923 . S
C1189 C516 1.626 . S
C1187 C198 1.643 . S
C1200 C771 1.173 . S
C1198 C159 1.181 . S
C1211 C312 1.441 1_655 S
C1209 C211 1.482 1_545 S
C1220 C225 1.283 . S
C1222 C724 1.274 . S
C1233 C409 1.729 . S
C1231 C239 1.754 . S
C1242 C251 1.130 . S
C1244 C699 1.098 . S
C1253 C218 1.372 . S
C1255 C461 1.326 . S
C1264 C226 1.693 . S
C1266 C647 1.665 . S
C1277 C520 1.320 . S
C1275 C238 1.356 . S
C1286 C252 0.871 . S
C1288 C767 0.860 . S
C1297 C250 0.852 . S
C1299 C316 0.841 . S
C1308 C264 1.585 . S
C1310 C613 1.583 . S
C1319 C276 1.513 . S
C1321 C499 1.515 . S
C1330 C290 0.489 . S
C1332 C660 0.500 . S
C1343 C783 1.425 . S
C1341 C213 1.454 . S
C1354 C397 1.549 . S
C1352 C224 1.552 . S
C1365 C443 1.384 . S
C1363 C283 1.384 . S
C1376 C354 1.613 . S
C1374 C303 1.619 . S
C1385 C29 1.452 . S
C1387 C805 1.455 . S
C1398 C749 2.119 . S
C1396 C49 2.136 . S
C1409 C826 1.124 . S
C1407 C3 1.138 . S
C1418 C16 1.974 . S
C1420 C694 1.921 . S
C1429 C44 1.907 . S
C1431 C592 1.878 1_556 S
C1442 C622 1.071 . S
C1440 C4 1.085 . S
C1453 C681 1.875 . S
C1451 C17 1.884 . S
C1464 C762 1.353 . S
C1462 C30 1.376 . S
C1475 C817 1.696 . S
C1473 C147 1.739 . S
C1484 C107 1.419 1_556 S
C1486 C733 1.387 . S
C1495 C127 2.005 . S
C1497 C822 1.976 . S
C1508 C690 1.169 . S
C1506 C135 1.218 . S
C1519 C588 1.463 . S
C1517 C148 1.521 . S
C1528 C114 1.927 . S
C1530 C618 1.893 . S
C1541 C665 1.465 . S
C1539 C120 1.505 . S
C1550 C134 0.997 . S
C1552 C758 0.988 . S
C1563 C801 0.944 . S
C1561 C133 0.974 . S
C1574 C448 1.808 . S
C1572 C75 1.801 . S
C1585 C490 1.676 . S
C1583 C81 1.705 . S
C1594 C101 0.711 . S
C1596 C533 0.710 . S
C1607 C754 1.653 . S
C1605 C146 1.697 . S
C1616 C109 1.768 . S
C1618 C830 1.742 . S
C1629 C414 1.624 . S
C1627 C88 1.607 . S
C1640 C363 1.821 . S
C1638 C62 1.811 . S
C1649 C187 1.230 . S
C1651 C796 1.267 . S
C1662 C346 1.872 . S
C1660 C199 1.885 . S
C1673 C835 1.008 1_655 S
C1671 C160 1.026 . S
C1682 C173 1.693 . S
C1684 C431 1.643 . S
C1693 C205 1.665 . S
C1695 C601 1.640 . S
C1704 C166 0.921 . S
C1706 C495 0.911 . S
C1715 C179 1.632 . S
C1717 C652 1.620 . S
C1726 C185 1.162 . S
C1728 C567 1.187 . S
C1739 C788 1.440 . S
C1737 C302 1.487 . S
C1748 C270 1.290 . S
C1750 C350 1.274 . S
C1761 C851 1.733 . S
C1759 C278 1.753 . S
C1770 C296 1.116 . S
C1772 C427 1.115 . S
C1781 C309 1.374 . S
C1783 C597 1.329 . S
C1794 C511 1.672 . S
C1792 C263 1.688 . S
C1803 C277 1.351 . S
C1805 C656 1.330 . S
C1816 C563 0.868 . S
C1814 C289 0.863 . S
C1827 C792 0.847 . S
C1825 C291 0.855 . S
C1838 C477 1.581 . S
C1836 C231 1.584 . S
C1847 C237 1.516 . S
C1849 C635 1.511 . S
C1860 C524 0.504 . S
C1858 C257 0.477 . S
C1871 C579 1.432 . S
C1869 C304 1.445 . S
C1880 C265 1.552 1_554 S
C1882 C839 1.548 . S
C1893 C715 1.382 . S
C1891 C244 1.380 . S
C1904 C728 1.612 . S
C1902 C212 1.616 . S
