# Generated by pormake.
# Topology pts, (4,4)-cn, num edge types: 1
# Building blocks:
#     Node 0, Type 0, BuildingBlock: ESEHIV_clean_sbu_0, # of connection points: 4
#     Node 1, Type 0, BuildingBlock: ESEHIV_clean_sbu_0, # of connection points: 4
#     Node 2, Type 1, BuildingBlock: UXUYUI_clean_sbu_0, # of connection points: 4
#     Node 3, Type 1, BuildingBlock: UXUYUI_clean_sbu_0, # of connection points: 4
#     Edge 4, Type (0, 1), BuildingBlock: XUDNAN_clean_linker_2, # of connection points: 2
#     Edge 5, Type (0, 1), BuildingBlock: XUDNAN_clean_linker_2, # of connection points: 2
#     Edge 6, Type (0, 1), BuildingBlock: XUDNAN_clean_linker_2, # of connection points: 2
#     Edge 7, Type (0, 1), BuildingBlock: XUDNAN_clean_linker_2, # of connection points: 2
#     Edge 8, Type (0, 1), BuildingBlock: XUDNAN_clean_linker_2, # of connection points: 2
#     Edge 9, Type (0, 1), BuildingBlock: XUDNAN_clean_linker_2, # of connection points: 2
#     Edge 10, Type (0, 1), BuildingBlock: XUDNAN_clean_linker_2, # of connection points: 2
#     Edge 11, Type (0, 1), BuildingBlock: XUDNAN_clean_linker_2, # of connection points: 2
# Relax obj value: 0.002
# Max RMSD: 0.096
# Mean RMSD: 0.062
data_MOF--net-pts--node1-ESEHIV_clean_sbu_0--node2-UXUYUI_clean_sbu_0--edge1-XUDNAN_clean_linker_2
_symmetry_space_group_name_H-M    P1
_symmetry_Int_Tables_number       1
_symmetry_cell_setting            triclinic
loop_
_symmetry_equiv_pos_as_xyz
'x, y, z'
_cell_length_a     30.465075
_cell_length_b     30.527751
_cell_length_c     45.395487
_cell_angle_alpha  92.961571
_cell_angle_beta   92.89941
_cell_angle_gamma 89.871719
loop_
_atom_site_label
_atom_site_type_symbol
_atom_site_fract_x
_atom_site_fract_y
_atom_site_fract_z
_atom_type_partial_charge
Cu0 Cu 0.54756 0.03146 0.01875 0.0
N1 N 0.57854 1.00223 0.98914 0.0
N2 N 0.62462 0.99559 0.95247 0.0
C3 C 0.60035 0.02326 0.96907 0.0
C4 C 0.61766 0.95537 0.96234 0.0
C5 C 0.58884 0.95951 0.9849 0.0
O6 O 0.5893 0.06605 0.0444 0.0
C7 C 0.47328 0.04058 0.98397 0.0
O8 O 0.47746 0.99775 0.98443 0.0
H9 H 0.60026 0.05857 0.9678 0.0
H10 H 0.57765 0.93353 0.99798 0.0
N11 N 0.51959 0.99385 0.04299 0.0
N12 N 0.47009 0.97219 0.07404 0.0
C13 C 0.48043 1.00207 0.05457 0.0
C14 C 0.53499 0.95763 0.0556 0.0
C15 C 0.50443 0.94403 0.07464 0.0
C16 C 0.62674 0.04866 0.04992 0.0
O17 O 0.63549 1.01006 0.0375 0.0
H18 H 0.46041 0.03008 0.04911 0.0
H19 H 0.56688 0.9432 0.05214 0.0
O20 O 0.50189 0.06471 0.99836 0.0
H21 H 0.6329 0.92536 0.9542 0.0
H22 H 0.50824 0.9166 0.08871 0.0
Cu23 Cu 0.08642 0.57968 0.51331 0.0
N24 N 0.11009 0.54098 0.54049 0.0
N25 N 0.10891 0.48345 0.56918 0.0
C26 C 0.08553 0.50933 0.55088 0.0
C27 C 0.15012 0.50014 0.57045 0.0
C28 C 0.15073 0.53564 0.55274 0.0
O29 O 0.05493 0.54233 0.48328 0.0
C30 C 0.07541 0.64489 0.55467 0.0
O31 O 0.11738 0.63527 0.55796 0.0
H32 H 0.05096 0.50576 0.54481 0.0
H33 H 0.17882 0.55581 0.54905 0.0
N34 N 0.1275 0.61166 0.49406 0.0
N35 N 0.15079 0.66247 0.46468 0.0
C36 C 0.11609 0.64557 0.47753 0.0
C37 C 0.17108 0.60664 0.49169 0.0
C38 C 0.18556 0.638 0.47356 0.0
C39 C 0.08047 0.51461 0.47095 0.0
O40 O 0.12258 0.51631 0.47877 0.0
H41 H 0.0825 0.65663 0.47436 0.0
H42 H 0.19081 0.5815 0.50179 0.0
O43 O 0.05201 0.62286 0.5351 0.0
H44 H 0.17815 0.48747 0.58288 0.0
H45 H 0.21907 0.64223 0.46737 0.0
Li46 Li 0.05424 0.11461 0.2854 0.0
Li47 Li 0.05554 0.03813 0.28866 0.0
Li48 Li 0.09379 0.07031 0.24863 0.0
Li49 Li 1.00828 0.07006 0.25012 0.0
C50 C 0.13356 0.10216 0.31026 0.0
N51 N 0.18733 0.15336 0.34879 0.0
C52 C 0.12512 0.10607 0.34025 0.0
C53 C 0.1696 0.12382 0.29988 0.0
C54 C 0.15259 0.13228 0.35937 0.0
C55 C 0.19635 0.14965 0.31972 0.0
C56 C 0.97869 0.05614 0.3119 0.0
C57 C 0.91628 1.01107 0.32072 0.0
N58 N 0.92776 1.01346 0.35011 0.0
C59 C 0.98966 0.05849 0.3422 0.0
C60 C 0.94157 0.03249 0.30103 0.0
C61 C 0.96359 0.03653 0.36115 0.0
C62 C 1.01555 0.17779 0.32311 0.0
N63 N 0.05206 0.17013 0.30758 0.0
C64 C 0.0804 0.24111 0.32312 0.0
C65 C 0.0842 0.20094 0.30725 0.0
C66 C 0.04315 0.24979 0.33956 0.0
C67 C 1.01044 0.21743 0.33935 0.0
H68 H 0.99016 0.15312 0.32287 0.0
H69 H 0.11264 0.19465 0.29445 0.0
C70 C 0.10865 0.98423 0.32248 0.0
N71 N 0.06566 0.98945 0.31381 0.0
C72 C 0.12234 0.94778 0.33774 0.0
C73 C 0.04718 0.92248 0.33563 0.0
C74 C 0.03487 0.95956 0.32023 0.0
C75 C 0.09163 0.91589 0.34412 0.0
H76 H 0.13283 1.00767 0.3167 0.0
H77 H 1.0011 0.96342 0.31246 0.0
C78 C 0.05838 0.16154 0.23774 0.0
N79 N 0.07458 0.24962 0.232 0.0
C80 C 0.02416 0.19197 0.23964 0.0
C81 C 0.10078 0.17585 0.23272 0.0
C82 C 0.03305 0.23638 0.23678 0.0
C83 C 0.1083 0.22053 0.22989 0.0
C84 C 0.048 0.97589 0.24642 0.0
C85 C 0.08652 0.95093 0.24741 0.0
C86 C 1.00729 0.95517 0.24747 0.0
C87 C 0.08366 0.90557 0.24969 0.0
C88 C 1.00581 0.90971 0.24964 0.0
N89 N 0.04371 0.88608 0.25075 0.0
C90 C 0.17668 0.03774 0.23866 0.0
C91 C 0.1447 0.07067 0.19654 0.0
C92 C 0.21268 0.02368 0.22292 0.0
N93 N 0.14338 0.06017 0.22525 0.0
C94 C 0.18054 0.05762 0.17997 0.0
C95 C 0.21464 0.03298 0.19305 0.0
H96 H 0.17456 0.0296 0.26146 0.0
H97 H 0.1175 0.08812 0.18633 0.0
C98 C 0.92686 0.10473 0.23332 0.0
N99 N 0.95445 0.07091 0.22698 0.0
C100 C 0.88761 0.10966 0.21658 0.0
C101 C 0.90494 0.0437 0.18777 0.0
C102 C 0.94437 0.04057 0.20473 0.0
C103 C 0.87599 0.07895 0.19333 0.0
H104 H 0.93568 0.12823 0.25126 0.0
H105 H 0.967 1.01407 0.20005 0.0
O106 O 0.1069 0.07684 0.29121 0.0
O107 O 1.00366 0.07766 0.29306 0.0
O108 O 0.05055 0.11798 0.24089 0.0
O109 O 0.05017 0.02047 0.24503 0.0
H110 H 0.09754 0.08919 0.34861 0.0
H111 H 0.17657 0.12108 0.27672 0.0
H112 H 0.14632 0.13585 0.38261 0.0
H113 H 0.22421 0.16684 0.31199 0.0
H114 H 0.88758 0.99248 0.31262 0.0
H115 H 0.01806 0.07701 0.35096 0.0
H116 H 0.93245 0.03054 0.27767 0.0
H117 H 0.97181 0.03786 0.38465 0.0
H118 H 0.10617 0.2653 0.3222 0.0
H119 H 0.98143 0.22234 0.35195 0.0
H120 H 0.15686 0.94434 0.34414 0.0
H121 H 0.0225 0.89841 0.33981 0.0
H122 H 0.99121 0.1815 0.24361 0.0
H123 H 0.1277 0.15281 0.23139 0.0
H124 H 1.00695 0.26033 0.2384 0.0
H125 H 0.141 0.2321 0.22617 0.0
H126 H 0.11829 0.96645 0.24678 0.0
H127 H 0.9772 0.97404 0.24706 0.0
H128 H 0.11321 0.88589 0.25071 0.0
H129 H 0.97455 0.89327 0.25064 0.0
H130 H 0.2385 1.00522 0.23391 0.0
H131 H 0.18076 0.06522 0.15694 0.0
H132 H 0.86712 0.1378 0.22158 0.0
H133 H 0.89731 0.01857 0.1706 0.0
Li134 Li 1.00753 0.0729 0.78602 0.0
Li135 Li 0.08695 0.07208 0.78858 0.0
Li136 Li 0.04412 0.11318 0.7489 0.0
Li137 Li 0.04401 0.03197 0.74915 0.0
C138 C 0.03092 0.15996 0.8077 0.0
N139 N 0.99855 0.23301 0.83799 0.0
C140 C 0.04173 0.1676 0.83784 0.0
C141 C 1.0041 0.18987 0.79292 0.0
C142 C 0.02487 0.20458 0.85277 0.0
C143 C 0.98797 0.2265 0.80863 0.0
C144 C 0.05055 1.00869 0.82014 0.0
C145 C 0.06432 0.95302 0.85527 0.0
N146 N 0.05909 0.9835 0.87774 0.0
C147 C 0.04532 0.03942 0.84357 0.0
C148 C 0.06012 0.96511 0.82599 0.0
C149 C 0.04973 0.02608 0.87253 0.0
C150 C 0.94044 0.02927 0.8135 0.0
N151 N 0.95508 0.07012 0.80829 0.0
C152 C 0.89238 0.10241 0.83057 0.0
C153 C 0.93181 0.10639 0.81653 0.0
C154 C 0.87622 0.06062 0.83593 0.0
C155 C 0.90107 0.02374 0.82737 0.0
H156 H 0.95873 1.00076 0.80604 0.0
H157 H 0.94298 0.13845 0.81166 0.0
C158 C 0.15166 0.11557 0.82532 0.0
N159 N 0.13902 0.07542 0.81363 0.0
C160 C 0.18917 0.12006 0.84422 0.0
C161 C 0.20072 0.04186 0.83808 0.0
C162 C 0.1626 0.03883 0.81959 0.0
C163 C 0.21446 0.08291 0.85087 0.0
H164 H 0.13246 0.14419 0.82002 0.0
H165 H 0.15186 1.00729 0.80991 0.0
C166 C 0.94998 0.07081 0.74072 0.0
N167 N 0.85932 0.06815 0.73972 0.0
C168 C 0.92821 0.03058 0.74083 0.0
C169 C 0.92572 0.10963 0.73971 0.0
C170 C 0.88232 0.02995 0.74042 0.0
C171 C 0.87988 0.10761 0.73931 0.0
C172 C 0.11598 0.04871 0.72387 0.0
C173 C 0.10602 0.05621 0.69417 0.0
C174 C 0.14556 1.01556 0.73134 0.0
C175 C 0.1257 0.03011 0.67235 0.0
C176 C 0.16455 0.99016 0.70887 0.0
N177 N 0.15428 0.99788 0.68009 0.0
C178 C 0.06899 0.19828 0.73356 0.0
C179 C 0.02422 0.1581 0.69751 0.0
C180 C 0.07065 0.23369 0.71531 0.0
N181 N 0.04573 0.16167 0.72446 0.0
C182 C 0.02549 0.19241 0.67841 0.0
C183 C 0.04872 0.2311 0.68724 0.0
H184 H 0.08601 0.20003 0.75509 0.0
H185 H 1.00646 0.1283 0.69076 0.0
C186 C 0.05868 0.94247 0.73146 0.0
N187 N 0.04059 0.98092 0.72315 0.0
C188 C 0.05507 0.90494 0.71251 0.0
C189 C 1.01422 0.94733 0.6769 0.0
C190 C 0.0187 0.98402 0.6965 0.0
C191 C 0.03247 0.90703 0.6848 0.0
H192 H 0.07585 0.94099 0.75283 0.0
H193 H 1.00472 1.01511 0.69048 0.0
O194 O 0.04795 0.12442 0.79253 0.0
O195 O 0.04713 0.02107 0.79156 0.0
O196 O 0.99487 0.07218 0.74207 0.0
O197 O 0.0958 0.07279 0.74552 0.0
H198 H 0.06312 0.1454 0.84962 0.0
H199 H 0.99526 0.1846 0.76968 0.0
H200 H 0.03287 0.21077 0.8761 0.0
H201 H 0.96694 0.2497 0.79748 0.0
H202 H 0.07179 0.9194 0.86012 0.0
H203 H 0.03771 0.07312 0.83942 0.0
H204 H 0.06441 0.94091 0.80809 0.0
H205 H 0.0457 0.04956 0.89087 0.0
H206 H 0.87465 0.13186 0.83701 0.0
H207 H 0.88961 0.99084 0.83051 0.0
H208 H 0.19782 0.15229 0.85378 0.0
H209 H 0.21939 1.01233 0.84199 0.0
H210 H 0.94659 1.00025 0.7417 0.0
H211 H 0.94211 0.14099 0.73943 0.0
H212 H 0.86502 0.9991 0.74079 0.0
H213 H 0.86066 0.13742 0.73874 0.0
H214 H 0.08294 0.08156 0.68805 0.0
H215 H 0.15334 1.00916 0.75423 0.0
H216 H 0.11812 0.03535 0.64926 0.0
H217 H 0.18731 0.9642 0.71431 0.0
H218 H 0.08848 0.26291 0.72332 0.0
H219 H 1.00888 0.18831 0.6568 0.0
H220 H 0.06932 0.87449 0.71966 0.0
H221 H 0.99715 0.95067 0.65562 0.0
H222 H 0.41527 0.04111 0.08676 0.0
H223 H 0.43743 0.90324 0.10187 0.0
H224 H 0.37369 0.90369 0.13319 0.0
H225 H 0.38286 0.07332 0.15856 0.0
H226 H 0.34129 0.11117 0.14607 0.0
H227 H 0.38831 0.09996 0.1244 0.0
H228 H 0.33686 0.07728 0.07901 0.0
H229 H 0.28963 0.08851 0.10051 0.0
H230 H 0.2961 0.03529 0.08215 0.0
H231 H 0.30897 0.91961 0.16417 0.0
H232 H 0.24683 0.9495 0.19175 0.0
H233 H 0.2651 0.07626 0.15509 0.0
C234 C 0.40662 1.01072 0.09619 0.0
C235 C 0.43186 0.97209 0.09171 0.0
C236 C 0.41929 0.93343 0.10515 0.0
C237 C 0.38286 0.93327 0.12288 0.0
C238 C 0.35901 0.97193 0.12686 0.0
C239 C 0.37022 1.00988 0.11379 0.0
C240 C 0.33937 0.04719 0.12185 0.0
C241 C 0.36446 0.08514 0.13873 0.0
C242 C 0.31398 0.06298 0.09424 0.0
C243 C 0.30922 0.02434 0.14172 0.0
C244 C 0.32121 0.98095 0.14433 0.0
C245 C 0.29917 0.95347 0.16219 0.0
C246 C 0.26409 0.9708 0.17787 0.0
C247 C 0.25119 1.01518 0.17558 0.0
C248 C 0.27393 0.04211 0.15702 0.0
H249 H 0.15166 0.43679 0.61224 0.0
H250 H 0.02915 0.44268 0.55894 0.0
H251 H 1.00092 0.38062 0.58401 0.0
H252 H 0.15671 0.31841 0.61081 0.0
H253 H 0.17951 0.31685 0.64816 0.0
H254 H 0.19037 0.36307 0.62651 0.0
H255 H 0.15978 0.41552 0.66725 0.0
H256 H 0.14861 0.36944 0.68896 0.0
H257 H 0.10508 0.40692 0.67924 0.0
H258 H 0.98432 0.31895 0.61539 0.0
H259 H 0.9824 0.25892 0.64942 0.0
H260 H 0.1171 0.28853 0.68004 0.0
C261 C 0.119 0.42519 0.60561 0.0
C262 C 0.09279 0.4458 0.58362 0.0
C263 C 0.05008 0.42882 0.57594 0.0
C264 C 0.03355 0.3931 0.59002 0.0
C265 C 0.06008 0.37404 0.61162 0.0
C266 C 0.10201 0.38913 0.61924 0.0
C267 C 0.12393 0.36187 0.64282 0.0
C268 C 0.16506 0.33867 0.63138 0.0
C269 C 0.13499 0.39013 0.67125 0.0
C270 C 0.08759 0.32933 0.64725 0.0
C271 C 0.051 0.33718 0.62911 0.0
C272 C 1.01296 0.3121 0.62949 0.0
C273 C 1.01235 0.27778 0.64879 0.0
C274 C 0.04973 0.26839 0.66731 0.0
C275 C 0.08777 0.29484 0.66646 0.0
H276 H 0.71514 0.03878 0.05078 0.0
H277 H 0.61098 0.10024 0.09974 0.0
H278 H 0.66478 0.11962 0.14121 0.0
H279 H 0.76881 0.98973 0.10847 0.0
H280 H 0.82378 0.99865 0.09711 0.0
H281 H 0.77867 0.99499 0.06998 0.0
H282 H 0.79842 0.07113 0.05165 0.0
H283 H 0.84423 0.07473 0.07838 0.0
H284 H 0.80352 0.11765 0.07772 0.0
H285 H 0.72822 0.12144 0.17992 0.0
H286 H 0.79658 0.11329 0.21048 0.0
H287 H 0.86004 0.05526 0.13421 0.0
C288 C 0.70386 0.05736 0.06993 0.0
C289 C 0.65903 0.06816 0.07213 0.0
C290 C 0.64533 0.0922 0.09753 0.0
C291 C 0.67562 0.10307 0.1212 0.0
C292 C 0.71944 0.09038 0.11874 0.0
C293 C 0.73364 0.06894 0.09341 0.0
C294 C 0.78186 0.0571 0.0966 0.0
C295 C 0.78864 1.00717 0.09282 0.0
C296 C 0.80858 0.08163 0.0748 0.0
C297 C 0.79236 0.07373 0.12811 0.0
C298 C 0.75605 0.09286 0.14054 0.0
C299 C 0.75715 0.10758 0.17013 0.0
C300 C 0.79638 0.10292 0.18732 0.0
C301 C 0.83434 0.08396 0.1749 0.0
C302 C 0.83192 0.06956 0.14473 0.0
H303 H 0.11929 0.69331 0.59859 0.0
H304 H 0.99204 0.68111 0.55141 0.0
H305 H 0.96575 0.74611 0.58061 0.0
H306 H 0.07998 0.72752 0.66987 0.0
H307 H 0.12524 0.76474 0.67839 0.0
H308 H 0.13264 0.71646 0.65464 0.0
H309 H 0.15956 0.76488 0.61388 0.0
H310 H 0.15217 0.81329 0.63744 0.0
H311 H 0.12518 0.80891 0.60115 0.0
H312 H 0.95515 0.81492 0.61433 0.0
H313 H 0.96057 0.87961 0.64948 0.0
H314 H 0.0957 0.84546 0.67307 0.0
C315 C 0.08571 0.70392 0.59442 0.0
C316 C 0.05766 0.68205 0.5727 0.0
C317 C 1.01404 0.69726 0.56801 0.0
C318 C 0.9989 0.73415 0.58447 0.0
C319 C 0.02778 0.7552 0.60551 0.0
C320 C 0.07023 0.74039 0.61051 0.0
C321 C 0.09541 0.769 0.6337 0.0
C322 C 0.10911 0.74286 0.66075 0.0
C323 C 0.13543 0.79028 0.62076 0.0
C324 C 0.06067 0.80265 0.64098 0.0
C325 C 0.02182 0.79424 0.6246 0.0
C326 C 0.98541 0.82164 0.62728 0.0
C327 C 0.98891 0.85847 0.64717 0.0
C328 C 0.02855 0.86762 0.66412 0.0
C329 C 0.06471 0.83908 0.66087 0.0
H330 H 0.39626 0.99987 0.96741 0.0
H331 H 0.46648 0.12207 0.9606 0.0
H332 H 0.40629 0.14811 0.92691 0.0
H333 H 0.35724 0.98674 0.89383 0.0
H334 H 0.30457 0.96479 0.90194 0.0
H335 H 0.35147 0.95746 0.92691 0.0
H336 H 0.30945 0.99379 0.97003 0.0
H337 H 0.26217 1.00079 0.94525 0.0
H338 H 0.28576 0.04749 0.9662 0.0
H339 H 0.34097 0.15701 0.89015 0.0
H340 H 0.27463 0.15076 0.85672 0.0
H341 H 0.24619 0.02399 0.8907 0.0
C342 C 0.39885 0.03235 0.95911 0.0
C343 C 0.43606 0.05896 0.96646 0.0
C344 C 0.43809 0.10131 0.95531 0.0
C345 C 0.40417 0.11623 0.93612 0.0
C346 C 0.36832 0.08861 0.92879 0.0
C347 C 0.36525 0.04782 0.94036 0.0
C348 C 0.32393 0.02394 0.92884 0.0
C349 C 0.33499 0.98069 0.91188 0.0
C350 C 0.29353 0.01606 0.95408 0.0
C351 C 0.30453 0.05714 0.90833 0.0
C352 C 0.33049 0.09425 0.90854 0.0
C353 C 0.32005 0.12842 0.89024 0.0
C354 C 0.28206 0.12461 0.8714 0.0
C355 C 0.25469 0.08695 0.87104 0.0
C356 C 0.26633 0.05304 0.89001 0.0
H357 H 0.12901 0.44864 0.44683 0.0
H358 H 0.99587 0.49947 0.44727 0.0
H359 H 0.97114 0.4377 0.41263 0.0
H360 H 0.12776 0.41164 0.37064 0.0
H361 H 0.16027 0.36362 0.37791 0.0
H362 H 0.16682 0.4123 0.40185 0.0
H363 H 0.1507 0.36731 0.44701 0.0
H364 H 0.14413 0.31849 0.42323 0.0
H365 H 0.10062 0.33589 0.44663 0.0
H366 H 0.96194 0.36863 0.37795 0.0
H367 H 0.96863 0.29969 0.34739 0.0
H368 H 0.108 0.29516 0.37212 0.0
C369 C 0.0946 0.44721 0.4396 0.0
C370 C 0.06436 0.47908 0.44967 0.0
C371 C 0.01963 0.4755 0.43976 0.0
C372 C 1.00536 0.44055 0.42011 0.0
C373 C 0.03626 0.40958 0.41076 0.0
C374 C 0.07994 0.41274 0.42031 0.0
C375 C 0.10676 0.37508 0.40785 0.0
C376 C 0.1425 0.39167 0.38841 0.0
C377 C 0.12671 0.34757 0.43266 0.0
C378 C 0.07147 0.34998 0.3896 0.0
C379 C 0.03098 0.37025 0.39143 0.0
C380 C 0.99351 0.35257 0.37646 0.0
C381 C 0.99761 0.31323 0.35928 0.0
C382 C 0.03889 0.2919 0.35727 0.0
C383 C 0.07612 0.31084 0.37271 0.0
H384 H 0.70529 0.96091 0.94314 0.0
H385 H 0.61237 0.05911 0.91372 0.0
H386 H 0.66585 0.08474 0.87919 0.0
H387 H 0.79973 0.02849 0.94298 0.0
H388 H 0.83589 0.98542 0.93039 0.0
H389 H 0.78915 0.9724 0.95105 0.0
H390 H 0.76145 0.91744 0.9088 0.0
H391 H 0.80825 0.93016 0.88805 0.0
H392 H 0.75345 0.93585 0.87181 0.0
H393 H 0.73 0.10121 0.84921 0.0
H394 H 0.80093 0.10827 0.82607 0.0
H395 H 0.85376 1.00135 0.87653 0.0
C396 C 0.69599 0.98717 0.92895 0.0
C397 C 0.65463 1.00788 0.93085 0.0
C398 C 0.64395 0.04294 0.91255 0.0
C399 C 0.67402 0.05758 0.89285 0.0
C400 C 0.71479 0.03696 0.89184 0.0
C401 C 0.72589 1.00254 0.9094 0.0
C402 C 0.77278 0.98773 0.90514 0.0
C403 C 0.80105 0.9939 0.93411 0.0
C404 C 0.77404 0.93996 0.89271 0.0
C405 C 0.78631 0.0193 0.88254 0.0
C406 C 0.75227 0.04723 0.87507 0.0
C407 C 0.75695 0.07957 0.85492 0.0
C408 C 0.79755 0.08357 0.84208 0.0
C409 C 0.83318 0.05561 0.84957 0.0
C410 C 0.82716 0.02296 0.87004 0.0
H411 H 0.08988 0.72784 0.46039 0.0
H412 H 0.20952 0.67744 0.42304 0.0
H413 H 0.20689 0.73652 0.38795 0.0
H414 H 0.03619 0.75669 0.3916 0.0
H415 H 1.01117 0.80553 0.40726 0.0
H416 H 0.02283 0.75973 0.4299 0.0
H417 H 0.06854 0.81032 0.46734 0.0
H418 H 0.05691 0.8563 0.44489 0.0
H419 H 0.11304 0.84203 0.45464 0.0
H420 H 0.19084 0.80048 0.35652 0.0
H421 H 0.16351 0.86589 0.33165 0.0
H422 H 0.05368 0.87428 0.38897 0.0
C423 C 0.11541 0.72887 0.44473 0.0
C424 C 0.14995 0.69772 0.44459 0.0
C425 C 0.18303 0.70104 0.42395 0.0
C426 C 0.18165 0.73435 0.40375 0.0
C427 C 0.14695 0.76415 0.40439 0.0
C428 C 0.11446 0.7618 0.42437 0.0
C429 C 0.0808 0.79799 0.42048 0.0
C430 C 0.03504 0.77883 0.41179 0.0
C431 C 0.07979 0.82847 0.4485 0.0
C432 C 0.09948 0.82115 0.39518 0.0
C433 C 0.13763 0.80104 0.38623 0.0
C434 C 0.1611 0.81659 0.3634 0.0
C435 C 0.14542 0.8539 0.34952 0.0
C436 C 0.10663 0.87542 0.3585 0.0
C437 C 0.08323 0.85841 0.38148 0.0
loop_
_geom_bond_atom_site_label_1
_geom_bond_atom_site_label_2
_geom_bond_distance
_geom_bond_site_symmetry_2
_ccdc_geom_bond_type
Cu0 N1 1.999 1_554 S
Cu0 O6 1.974 . S
Cu0 N11 1.985 . S
Cu0 O20 1.959 1_554 S
N1 Cu0 1.999 1_556 S
N1 C3 1.263 . S
N1 C5 1.389 . S
N2 C3 1.358 . S
N2 C4 1.400 . S
C3 N1 1.263 . S
C3 N2 1.358 . S
C3 H9 0.930 . S
C4 N2 1.400 . S
C4 C5 1.351 . S
C4 H21 0.930 . S
C5 N1 1.389 . S
C5 C4 1.351 . S
C5 H10 0.930 . S
O6 Cu0 1.974 . S
O6 C16 1.282 . S
C7 O8 1.261 1_545 S
C7 O20 1.251 . S
O8 C7 1.261 1_565 S
H9 C3 0.930 . S
H10 C5 0.930 . S
N11 Cu0 1.985 . S
N11 C13 1.335 . S
N11 C14 1.390 . S
N12 C13 1.345 . S
N12 C15 1.336 . S
C13 N11 1.335 . S
C13 N12 1.345 . S
C13 H18 0.930 . S
C14 N11 1.390 . S
C14 C15 1.346 . S
C14 H19 0.930 . S
C15 N12 1.336 . S
C15 C14 1.346 . S
C15 H22 0.929 . S
C16 O6 1.282 . S
C16 O17 1.216 1_545 S
O17 C16 1.216 1_565 S
H18 C13 0.930 . S
H19 C14 0.930 . S
O20 Cu0 1.959 1_556 S
O20 C7 1.251 . S
H21 C4 0.930 . S
H22 C15 0.929 . S
Cu23 N24 1.999 . S
Cu23 O29 1.974 . S
Cu23 N34 1.985 . S
Cu23 O43 1.959 . S
N24 Cu23 1.999 . S
N24 C26 1.263 . S
N24 C28 1.389 1_455 S
N25 C26 1.358 . S
N25 C27 1.415 . S
C26 N24 1.263 . S
C26 N25 1.358 . S
C26 H32 0.930 . S
C27 N25 1.415 . S
C27 C28 1.350 1_455 S
C27 H44 0.920 1_455 S
C28 N24 1.389 1_655 S
C28 C27 1.350 1_655 S
C28 H33 0.930 . S
O29 Cu23 1.974 . S
O29 C39 1.282 . S
C30 O31 1.261 . S
C30 O43 1.251 . S
O31 C30 1.261 . S
H32 C26 0.930 . S
H33 C28 0.930 . S
N34 Cu23 1.985 . S
N34 C36 1.335 . S
N34 C37 1.390 . S
N35 C36 1.345 . S
N35 C38 1.336 . S
C36 N34 1.335 . S
C36 N35 1.345 . S
C36 H41 0.930 . S
C37 N34 1.390 . S
C37 C38 1.346 . S
C37 H42 0.930 . S
C38 N35 1.336 . S
C38 C37 1.346 . S
C38 H45 0.929 . S
C39 O29 1.282 . S
C39 O40 1.216 . S
O40 C39 1.216 . S
H41 C36 0.930 . S
H42 C37 0.930 . S
O43 Cu23 1.959 . S
O43 C30 1.251 . S
H44 C27 0.920 1_655 S
H45 C38 0.929 . S
Li46 N63 1.990 . S
Li46 O106 1.956 . S
Li46 O107 1.970 1_455 S
Li46 O108 1.961 . S
Li47 N71 1.990 1_545 S
Li47 O106 1.970 . S
Li47 O107 1.956 1_455 S
Li47 O109 1.961 . S
Li48 N93 1.990 . S
Li48 O106 1.961 . S
Li48 O108 1.956 . S
Li48 O109 1.970 . S
Li49 N99 1.990 . S
Li49 O107 1.961 . S
Li49 O108 1.970 1_655 S
Li49 O109 1.956 1_655 S
C50 C52 1.348 . S
C50 C53 1.356 . S
C50 O106 1.325 . S
N51 C54 1.314 . S
N51 C55 1.279 . S
C52 C50 1.348 . S
C52 C54 1.353 . S
C52 H110 0.929 . S
C53 C50 1.356 . S
C53 C55 1.358 . S
C53 H111 0.930 . S
C54 N51 1.314 . S
C54 C52 1.353 . S
C54 H112 0.930 . S
C55 N51 1.279 . S
C55 C53 1.358 . S
C55 H113 0.930 . S
C56 C59 1.348 . S
C56 C60 1.356 . S
C56 O107 1.325 . S
C57 N58 1.279 . S
C57 C60 1.358 . S
C57 H114 0.930 . S
N58 C57 1.279 . S
N58 C61 1.314 . S
C59 C56 1.348 . S
C59 C61 1.353 . S
C59 H115 0.929 . S
C60 C56 1.356 . S
C60 C57 1.358 . S
C60 H116 0.930 . S
C61 N58 1.314 . S
C61 C59 1.353 . S
C61 H117 0.930 . S
C62 N63 1.314 . S
C62 C67 1.353 . S
C62 H68 0.930 1_455 S
N63 Li46 1.990 . S
N63 C62 1.314 . S
N63 C65 1.279 . S
C64 C65 1.358 . S
C64 C66 1.356 . S
C64 H118 0.930 . S
C65 N63 1.279 . S
C65 C64 1.358 . S
C65 H69 0.930 . S
C66 C64 1.356 . S
C66 C67 1.348 . S
C67 C62 1.353 . S
C67 C66 1.348 . S
C67 H119 0.929 1_455 S
H68 C62 0.930 1_655 S
H69 C65 0.930 . S
C70 N71 1.314 . S
C70 C72 1.353 . S
C70 H76 0.930 . S
N71 Li47 1.990 1_565 S
N71 C70 1.314 . S
N71 C74 1.279 . S
C72 C70 1.353 . S
C72 C75 1.348 . S
C72 H120 0.929 . S
C73 C74 1.358 . S
C73 C75 1.356 . S
C73 H121 0.930 1_455 S
C74 N71 1.279 . S
C74 C73 1.358 . S
C74 H77 0.930 1_455 S
C75 C72 1.348 . S
C75 C73 1.356 . S
H76 C70 0.930 . S
H77 C74 0.930 1_655 S
C78 C80 1.348 . S
C78 C81 1.356 . S
C78 O108 1.325 . S
N79 C82 1.314 . S
N79 C83 1.279 . S
C80 C78 1.348 . S
C80 C82 1.353 . S
C80 H122 0.929 1_455 S
C81 C78 1.356 . S
C81 C83 1.358 . S
C81 H123 0.930 . S
C82 N79 1.314 . S
C82 C80 1.353 . S
C82 H124 0.930 1_455 S
C83 N79 1.279 . S
C83 C81 1.358 . S
C83 H125 0.930 . S
C84 C85 1.348 . S
C84 C86 1.356 . S
C84 O109 1.325 1_565 S
C85 C84 1.348 . S
C85 C87 1.353 . S
C85 H126 0.929 . S
C86 C84 1.356 . S
C86 C88 1.358 . S
C86 H127 0.930 1_455 S
C87 C85 1.353 . S
C87 N89 1.314 . S
C87 H128 0.930 . S
C88 C86 1.358 . S
C88 N89 1.279 . S
C88 H129 0.930 1_455 S
N89 C87 1.314 . S
N89 C88 1.279 . S
C90 C92 1.353 . S
C90 N93 1.314 . S
C90 H96 0.930 . S
C91 N93 1.279 . S
C91 C94 1.358 . S
C91 H97 0.930 . S
C92 C90 1.353 . S
C92 C95 1.348 . S
C92 H130 0.929 . S
N93 Li48 1.990 . S
N93 C90 1.314 . S
N93 C91 1.279 . S
C94 C91 1.358 . S
C94 C95 1.356 . S
C94 H131 0.930 . S
C95 C92 1.348 . S
C95 C94 1.356 . S
H96 C90 0.930 . S
H97 C91 0.930 . S
C98 N99 1.314 . S
C98 C100 1.353 . S
C98 H104 0.930 . S
N99 Li49 1.990 . S
N99 C98 1.314 . S
N99 C102 1.279 . S
C100 C98 1.353 . S
C100 C103 1.348 . S
C100 H132 0.929 . S
C101 C102 1.358 . S
C101 C103 1.356 . S
C101 H133 0.930 . S
C102 N99 1.279 . S
C102 C101 1.358 . S
C102 H105 0.930 . S
C103 C100 1.348 . S
C103 C101 1.356 . S
H104 C98 0.930 . S
H105 C102 0.930 . S
O106 Li46 1.956 . S
O106 Li47 1.970 . S
O106 Li48 1.961 . S
O106 C50 1.325 . S
O107 Li46 1.970 1_655 S
O107 Li47 1.956 1_655 S
O107 Li49 1.961 . S
O107 C56 1.325 . S
O108 Li46 1.961 . S
O108 Li48 1.956 . S
O108 Li49 1.970 1_455 S
O108 C78 1.325 . S
O109 Li47 1.961 . S
O109 Li48 1.970 . S
O109 Li49 1.956 1_455 S
O109 C84 1.325 1_545 S
H110 C52 0.929 . S
H111 C53 0.930 . S
H112 C54 0.930 . S
H113 C55 0.930 . S
H114 C57 0.930 . S
H115 C59 0.929 . S
H116 C60 0.930 . S
H117 C61 0.930 . S
H118 C64 0.930 . S
H119 C67 0.929 1_655 S
H120 C72 0.929 . S
H121 C73 0.930 1_655 S
H122 C80 0.929 1_655 S
H123 C81 0.930 . S
H124 C82 0.930 1_655 S
H125 C83 0.930 . S
H126 C85 0.929 . S
H127 C86 0.930 1_655 S
H128 C87 0.930 . S
H129 C88 0.930 1_655 S
H130 C92 0.929 . S
H131 C94 0.930 . S
H132 C100 0.929 . S
H133 C101 0.930 . S
Li134 N151 1.990 1_455 S
Li134 O194 1.956 . S
Li134 O195 1.970 1_545 S
Li134 O196 1.961 . S
Li135 N159 1.990 . S
Li135 O194 1.970 . S
Li135 O195 1.956 1_545 S
Li135 O197 1.961 . S
Li136 N181 1.990 . S
Li136 O194 1.961 . S
Li136 O196 1.956 . S
Li136 O197 1.970 . S
Li137 N187 1.990 . S
Li137 O195 1.961 . S
Li137 O196 1.970 1_565 S
Li137 O197 1.956 1_565 S
C138 C140 1.348 . S
C138 C141 1.356 . S
C138 O194 1.325 . S
N139 C142 1.314 . S
N139 C143 1.279 . S
C140 C138 1.348 . S
C140 C142 1.353 . S
C140 H198 0.929 . S
C141 C138 1.356 . S
C141 C143 1.358 . S
C141 H199 0.930 . S
C142 N139 1.314 . S
C142 C140 1.353 . S
C142 H200 0.930 . S
C143 N139 1.279 . S
C143 C141 1.358 . S
C143 H201 0.930 . S
C144 C147 1.348 . S
C144 C148 1.356 . S
C144 O195 1.325 . S
C145 N146 1.279 . S
C145 C148 1.358 . S
C145 H202 0.930 . S
N146 C145 1.279 . S
N146 C149 1.314 . S
C147 C144 1.348 . S
C147 C149 1.353 . S
C147 H203 0.929 . S
C148 C144 1.356 . S
C148 C145 1.358 . S
C148 H204 0.930 . S
C149 N146 1.314 . S
C149 C147 1.353 . S
C149 H205 0.930 . S
C150 N151 1.314 . S
C150 C155 1.353 . S
C150 H156 0.930 1_545 S
N151 Li134 1.990 1_655 S
N151 C150 1.314 . S
N151 C153 1.279 . S
C152 C153 1.358 . S
C152 C154 1.356 . S
C152 H206 0.930 . S
C153 N151 1.279 . S
C153 C152 1.358 . S
C153 H157 0.930 . S
C154 C152 1.356 . S
C154 C155 1.348 . S
C155 C150 1.353 . S
C155 C154 1.348 . S
C155 H207 0.929 1_545 S
H156 C150 0.930 1_565 S
H157 C153 0.930 . S
C158 N159 1.314 . S
C158 C160 1.353 . S
C158 H164 0.930 . S
N159 Li135 1.990 . S
N159 C158 1.314 . S
N159 C162 1.279 . S
C160 C158 1.353 . S
C160 C163 1.348 . S
C160 H208 0.929 . S
C161 C162 1.358 . S
C161 C163 1.356 . S
C161 H209 0.930 1_545 S
C162 N159 1.279 . S
C162 C161 1.358 . S
C162 H165 0.930 1_545 S
C163 C160 1.348 . S
C163 C161 1.356 . S
H164 C158 0.930 . S
H165 C162 0.930 1_565 S
C166 C168 1.348 . S
C166 C169 1.356 . S
C166 O196 1.325 1_655 S
N167 C170 1.314 . S
N167 C171 1.279 . S
C168 C166 1.348 . S
C168 C170 1.353 . S
C168 H210 0.929 1_545 S
C169 C166 1.356 . S
C169 C171 1.358 . S
C169 H211 0.930 . S
C170 N167 1.314 . S
C170 C168 1.353 . S
C170 H212 0.930 1_545 S
C171 N167 1.279 . S
C171 C169 1.358 . S
C171 H213 0.930 . S
C172 C173 1.348 . S
C172 C174 1.356 . S
C172 O197 1.325 . S
C173 C172 1.348 . S
C173 C175 1.353 . S
C173 H214 0.929 . S
C174 C172 1.356 . S
C174 C176 1.358 . S
C174 H215 0.930 1_545 S
C175 C173 1.353 . S
C175 N177 1.314 . S
C175 H216 0.930 . S
C176 C174 1.358 . S
C176 N177 1.279 . S
C176 H217 0.930 1_545 S
N177 C175 1.314 . S
N177 C176 1.279 . S
C178 C180 1.353 . S
C178 N181 1.314 . S
C178 H184 0.930 . S
C179 N181 1.279 . S
C179 C182 1.358 . S
C179 H185 0.930 . S
C180 C178 1.353 . S
C180 C183 1.348 . S
C180 H218 0.929 . S
N181 Li136 1.990 . S
N181 C178 1.314 . S
N181 C179 1.279 . S
C182 C179 1.358 . S
C182 C183 1.356 . S
C182 H219 0.930 . S
C183 C180 1.348 . S
C183 C182 1.356 . S
H184 C178 0.930 . S
H185 C179 0.930 . S
C186 N187 1.314 . S
C186 C188 1.353 . S
C186 H192 0.930 . S
N187 Li137 1.990 . S
N187 C186 1.314 . S
N187 C190 1.279 . S
C188 C186 1.353 . S
C188 C191 1.348 . S
C188 H220 0.929 . S
C189 C190 1.358 . S
C189 C191 1.356 . S
C189 H221 0.930 . S
C190 N187 1.279 . S
C190 C189 1.358 . S
C190 H193 0.930 . S
C191 C188 1.348 . S
C191 C189 1.356 . S
H192 C186 0.930 . S
H193 C190 0.930 . S
O194 Li134 1.956 . S
O194 Li135 1.970 . S
O194 Li136 1.961 . S
O194 C138 1.325 . S
O195 Li134 1.970 1_565 S
O195 Li135 1.956 1_565 S
O195 Li137 1.961 . S
O195 C144 1.325 . S
O196 Li134 1.961 . S
O196 Li136 1.956 . S
O196 Li137 1.970 1_545 S
O196 C166 1.325 1_455 S
O197 Li135 1.961 . S
O197 Li136 1.970 . S
O197 Li137 1.956 1_545 S
O197 C172 1.325 . S
H198 C140 0.929 . S
H199 C141 0.930 . S
H200 C142 0.930 . S
H201 C143 0.930 . S
H202 C145 0.930 . S
H203 C147 0.929 . S
H204 C148 0.930 . S
H205 C149 0.930 . S
H206 C152 0.930 . S
H207 C155 0.929 1_565 S
H208 C160 0.929 . S
H209 C161 0.930 1_565 S
H210 C168 0.929 1_565 S
H211 C169 0.930 . S
H212 C170 0.930 1_565 S
H213 C171 0.930 . S
H214 C173 0.929 . S
H215 C174 0.930 1_565 S
H216 C175 0.930 . S
H217 C176 0.930 1_565 S
H218 C180 0.929 . S
H219 C182 0.930 . S
H220 C188 0.929 . S
H221 C189 0.930 . S
H222 C234 0.930 . S
H223 C236 0.930 1_565 S
H224 C237 0.916 1_565 S
H225 C241 0.959 . S
H226 C241 0.959 . S
H227 C241 0.961 . S
H228 C242 0.960 . S
H229 C242 0.961 . S
H230 C242 0.959 . S
H231 C245 0.929 . S
H232 C246 0.931 1_565 S
H233 C248 0.930 . S
C234 H222 0.930 . S
C234 C235 1.399 . S
C234 C239 1.399 . S
C235 C234 1.399 . S
C235 C236 1.376 . S
C236 H223 0.930 1_545 S
C236 C235 1.376 . S
C236 C237 1.392 . S
C237 H224 0.916 1_545 S
C237 C236 1.392 . S
C237 C238 1.400 . S
C238 C237 1.400 . S
C238 C239 1.394 . S
C238 C244 1.465 . S
C239 C234 1.399 . S
C239 C238 1.394 . S
C239 C240 1.516 . S
C240 C239 1.516 . S
C240 C241 1.502 . S
C240 C242 1.561 . S
C240 C243 1.526 . S
C241 H225 0.959 . S
C241 H226 0.959 . S
C241 H227 0.961 . S
C241 C240 1.502 . S
C242 H228 0.960 . S
C242 H229 0.961 . S
C242 H230 0.959 . S
C242 C240 1.561 . S
C243 C240 1.526 . S
C243 C244 1.396 . S
C243 C248 1.390 . S
C244 C238 1.465 . S
C244 C243 1.396 . S
C244 C245 1.399 1_545 S
C245 H231 0.929 . S
C245 C244 1.399 1_565 S
C245 C246 1.385 1_565 S
C246 H232 0.931 1_545 S
C246 C245 1.385 1_545 S
C246 C247 1.389 . S
C247 C246 1.389 . S
C247 C248 1.387 . S
C248 H233 0.930 . S
C248 C243 1.390 . S
C248 C247 1.387 . S
H249 C261 0.930 . S
H250 C263 0.930 . S
H251 C264 0.930 . S
H252 C268 0.959 . S
H253 C268 0.959 . S
H254 C268 0.961 . S
H255 C269 0.960 . S
H256 C269 0.961 . S
H257 C269 0.959 . S
H258 C272 0.929 . S
H259 C273 0.931 1_655 S
H260 C275 0.930 . S
C261 H249 0.930 . S
C261 C262 1.399 . S
C261 C266 1.399 . S
C262 C261 1.399 . S
C262 C263 1.376 1_455 S
C263 H250 0.930 . S
C263 C262 1.376 1_655 S
C263 C264 1.388 . S
C264 H251 0.930 . S
C264 C263 1.388 . S
C264 C265 1.390 1_655 S
C265 C264 1.390 1_455 S
C265 C266 1.394 . S
C265 C271 1.465 . S
C266 C261 1.399 . S
C266 C265 1.394 . S
C266 C267 1.516 . S
C267 C266 1.516 . S
C267 C268 1.502 . S
C267 C269 1.561 . S
C267 C270 1.526 . S
C268 H252 0.959 . S
C268 H253 0.959 . S
C268 H254 0.961 . S
C268 C267 1.502 . S
C269 H255 0.960 . S
C269 H256 0.961 . S
C269 H257 0.959 . S
C269 C267 1.561 . S
C270 C267 1.526 . S
C270 C271 1.396 . S
C270 C275 1.390 . S
C271 C265 1.465 . S
C271 C270 1.396 . S
C271 C272 1.399 1_455 S
C272 H258 0.929 . S
C272 C271 1.399 1_655 S
C272 C273 1.385 1_655 S
C273 H259 0.931 1_455 S
C273 C272 1.385 1_455 S
C273 C274 1.389 . S
C274 C273 1.389 . S
C274 C275 1.387 . S
C275 H260 0.930 . S
C275 C270 1.390 . S
C275 C274 1.387 . S
H276 C288 0.930 . S
H277 C290 0.930 1_565 S
H278 C291 0.930 1_565 S
H279 C295 0.959 . S
H280 C295 0.959 . S
H281 C295 0.961 . S
H282 C296 0.960 . S
H283 C296 0.961 . S
H284 C296 0.959 . S
H285 C299 0.929 1_565 S
H286 C300 0.931 . S
H287 C302 0.930 . S
C288 H276 0.930 . S
C288 C289 1.399 . S
C288 C293 1.399 . S
C289 C288 1.399 . S
C289 C290 1.376 . S
C290 H277 0.930 1_545 S
C290 C289 1.376 . S
C290 C291 1.388 . S
C291 H278 0.930 1_545 S
C291 C290 1.388 . S
C291 C292 1.390 . S
C292 C291 1.390 . S
C292 C293 1.394 . S
C292 C298 1.465 . S
C293 C288 1.399 . S
C293 C292 1.394 . S
C293 C294 1.516 . S
C294 C293 1.516 . S
C294 C295 1.502 . S
C294 C296 1.561 . S
C294 C297 1.526 . S
C295 H279 0.959 . S
C295 H280 0.959 . S
C295 H281 0.961 . S
C295 C294 1.502 . S
C296 H282 0.960 . S
C296 H283 0.961 . S
C296 H284 0.959 . S
C296 C294 1.561 . S
C297 C294 1.526 . S
C297 C298 1.396 . S
C297 C302 1.390 . S
C298 C292 1.465 . S
C298 C297 1.396 . S
C298 C299 1.399 . S
C299 H285 0.929 1_545 S
C299 C298 1.399 . S
C299 C300 1.385 . S
C300 H286 0.931 . S
C300 C299 1.385 . S
C300 C301 1.389 . S
C301 C300 1.389 . S
C301 C302 1.387 . S
C302 H287 0.930 . S
C302 C297 1.390 . S
C302 C301 1.387 . S
H303 C315 0.930 . S
H304 C317 0.930 . S
H305 C318 0.930 . S
H306 C322 0.959 . S
H307 C322 0.959 . S
H308 C322 0.961 . S
H309 C323 0.960 . S
H310 C323 0.961 . S
H311 C323 0.959 . S
H312 C326 0.929 . S
H313 C327 0.931 . S
H314 C329 0.930 . S
C315 H303 0.930 . S
C315 C316 1.399 . S
C315 C320 1.399 . S
C316 C315 1.399 . S
C316 C317 1.376 . S
C317 H304 0.930 . S
C317 C316 1.376 . S
C317 C318 1.388 . S
C318 H305 0.930 . S
C318 C317 1.388 . S
C318 C319 1.390 . S
C319 C318 1.390 . S
C319 C320 1.394 . S
C319 C325 1.465 . S
C320 C315 1.399 . S
C320 C319 1.394 . S
C320 C321 1.516 . S
C321 C320 1.516 . S
C321 C322 1.502 . S
C321 C323 1.561 . S
C321 C324 1.526 . S
C322 H306 0.959 . S
C322 H307 0.959 . S
C322 H308 0.961 . S
C322 C321 1.502 . S
C323 H309 0.960 . S
C323 H310 0.961 . S
C323 H311 0.959 . S
C323 C321 1.561 . S
C324 C321 1.526 . S
C324 C325 1.396 . S
C324 C329 1.390 . S
C325 C319 1.465 . S
C325 C324 1.396 . S
C325 C326 1.399 . S
C326 H312 0.929 . S
C326 C325 1.399 . S
C326 C327 1.385 . S
C327 H313 0.931 . S
C327 C326 1.385 . S
C327 C328 1.389 . S
C328 C327 1.389 . S
C328 C329 1.387 . S
C329 H314 0.930 . S
C329 C324 1.390 . S
C329 C328 1.387 . S
H330 C342 0.930 . S
H331 C344 0.930 . S
H332 C345 0.930 . S
H333 C349 0.959 . S
H334 C349 0.959 . S
H335 C349 0.961 . S
H336 C350 0.960 . S
H337 C350 0.961 . S
H338 C350 0.959 . S
H339 C353 0.929 . S
H340 C354 0.931 . S
H341 C356 0.930 . S
C342 H330 0.930 . S
C342 C343 1.399 . S
C342 C347 1.399 . S
C343 C342 1.399 . S
C343 C344 1.376 1_545 S
C344 H331 0.930 . S
C344 C343 1.376 1_565 S
C344 C345 1.388 . S
C345 H332 0.930 . S
C345 C344 1.388 . S
C345 C346 1.390 1_565 S
C346 C345 1.390 1_545 S
C346 C347 1.394 . S
C346 C352 1.465 . S
C347 C342 1.399 . S
C347 C346 1.394 . S
C347 C348 1.516 . S
C348 C347 1.516 . S
C348 C349 1.502 . S
C348 C350 1.561 . S
C348 C351 1.526 . S
C349 H333 0.959 . S
C349 H334 0.959 . S
C349 H335 0.961 . S
C349 C348 1.502 . S
C350 H336 0.960 . S
C350 H337 0.961 . S
C350 H338 0.959 . S
C350 C348 1.561 . S
C351 C348 1.526 . S
C351 C352 1.396 . S
C351 C356 1.390 . S
C352 C346 1.465 . S
C352 C351 1.396 . S
C352 C353 1.399 1_545 S
C353 H339 0.929 . S
C353 C352 1.399 1_565 S
C353 C354 1.385 . S
C354 H340 0.931 . S
C354 C353 1.385 . S
C354 C355 1.389 1_565 S
C355 C354 1.389 1_545 S
C355 C356 1.387 . S
C356 H341 0.930 . S
C356 C351 1.390 . S
C356 C355 1.387 . S
H357 C369 0.930 . S
H358 C371 0.930 . S
H359 C372 0.930 . S
H360 C376 0.959 1_455 S
H361 C376 0.959 . S
H362 C376 0.961 . S
H363 C377 0.960 . S
H364 C377 0.961 . S
H365 C377 0.959 . S
H366 C380 0.929 . S
H367 C381 0.931 . S
H368 C383 0.930 1_655 S
C369 H357 0.930 . S
C369 C370 1.399 . S
C369 C374 1.399 . S
C370 C369 1.399 . S
C370 C371 1.376 . S
C371 H358 0.930 . S
C371 C370 1.376 . S
C371 C372 1.388 . S
C372 H359 0.930 . S
C372 C371 1.388 . S
C372 C373 1.390 . S
C373 C372 1.390 . S
C373 C374 1.394 . S
C373 C379 1.465 . S
C374 C369 1.399 . S
C374 C373 1.394 . S
C374 C375 1.516 . S
C375 C374 1.516 . S
C375 C376 1.502 1_455 S
C375 C377 1.561 1_455 S
C375 C378 1.526 . S
C376 H360 0.959 1_655 S
C376 H361 0.959 . S
C376 H362 0.961 . S
C376 C375 1.502 1_655 S
C377 H363 0.960 . S
C377 H364 0.961 . S
C377 H365 0.959 . S
C377 C375 1.561 1_655 S
C378 C375 1.526 . S
C378 C379 1.396 . S
C378 C383 1.390 . S
C379 C373 1.465 . S
C379 C378 1.396 . S
C379 C380 1.399 . S
C380 H366 0.929 . S
C380 C379 1.399 . S
C380 C381 1.385 . S
C381 H367 0.931 . S
C381 C380 1.385 . S
C381 C382 1.389 . S
C382 C381 1.389 . S
C382 C383 1.387 . S
C383 H368 0.930 1_455 S
C383 C378 1.390 . S
C383 C382 1.387 . S
H384 C396 0.930 1_565 S
H385 C398 0.930 . S
H386 C399 0.930 . S
H387 C403 0.959 . S
H388 C403 0.959 . S
H389 C403 0.961 . S
H390 C404 0.960 . S
H391 C404 0.961 . S
H392 C404 0.959 . S
H393 C407 0.929 . S
H394 C408 0.931 . S
H395 C410 0.930 1_565 S
C396 H384 0.930 1_545 S
C396 C397 1.399 . S
C396 C401 1.399 . S
C397 C396 1.399 . S
C397 C398 1.376 . S
C398 H385 0.930 . S
C398 C397 1.376 . S
C398 C399 1.388 . S
C399 H386 0.930 . S
C399 C398 1.388 . S
C399 C400 1.390 . S
C400 C399 1.390 . S
C400 C401 1.394 . S
C400 C406 1.465 . S
C401 C396 1.399 . S
C401 C400 1.394 . S
C401 C402 1.516 1_545 S
C402 C401 1.516 1_565 S
C402 C403 1.502 . S
C402 C404 1.561 . S
C402 C405 1.526 1_565 S
C403 H387 0.959 . S
C403 H388 0.959 . S
C403 H389 0.961 . S
C403 C402 1.502 . S
C404 H390 0.960 . S
C404 H391 0.961 . S
C404 H392 0.959 . S
C404 C402 1.561 . S
C405 C402 1.526 1_545 S
C405 C406 1.396 . S
C405 C410 1.390 . S
C406 C400 1.465 . S
C406 C405 1.396 . S
C406 C407 1.399 . S
C407 H393 0.929 . S
C407 C406 1.399 . S
C407 C408 1.385 . S
C408 H394 0.931 . S
C408 C407 1.385 . S
C408 C409 1.389 . S
C409 C408 1.389 . S
C409 C410 1.387 . S
C410 H395 0.930 1_545 S
C410 C405 1.390 . S
C410 C409 1.387 . S
H411 C423 0.930 1_655 S
H412 C425 0.930 . S
H413 C426 0.930 . S
H414 C430 0.959 . S
H415 C430 0.959 . S
H416 C430 0.961 . S
H417 C431 0.960 . S
H418 C431 0.961 . S
H419 C431 0.959 . S
H420 C434 0.929 . S
H421 C435 0.931 . S
H422 C437 0.930 . S
C423 H411 0.930 1_455 S
C423 C424 1.399 . S
C423 C428 1.399 . S
C424 C423 1.399 . S
C424 C425 1.376 . S
C425 H412 0.930 . S
C425 C424 1.376 . S
C425 C426 1.388 . S
C426 H413 0.930 . S
C426 C425 1.388 . S
C426 C427 1.390 . S
C427 C426 1.390 . S
C427 C428 1.394 . S
C427 C433 1.465 . S
C428 C423 1.399 . S
C428 C427 1.394 . S
C428 C429 1.516 . S
C429 C428 1.516 . S
C429 C430 1.502 1_455 S
C429 C431 1.561 . S
C429 C432 1.526 . S
C430 H414 0.959 . S
C430 H415 0.959 . S
C430 H416 0.961 . S
C430 C429 1.502 1_655 S
C431 H417 0.960 . S
C431 H418 0.961 . S
C431 H419 0.959 . S
C431 C429 1.561 . S
C432 C429 1.526 . S
C432 C433 1.396 . S
C432 C437 1.390 . S
C433 C427 1.465 . S
C433 C432 1.396 . S
C433 C434 1.399 . S
C434 H420 0.929 . S
C434 C433 1.399 . S
C434 C435 1.385 . S
C435 H421 0.931 . S
C435 C434 1.385 . S
C435 C436 1.389 . S
C436 C435 1.389 . S
C436 C437 1.387 . S
C437 H422 0.930 . S
C437 C432 1.390 . S
C437 C436 1.387 . S
C247 C95 1.461 . S
C235 N12 1.427 . S
C274 C183 1.489 . S
C262 N25 1.441 . S
C301 C103 1.440 . S
C289 C16 1.427 . S
C328 C191 1.489 . S
C316 C30 1.492 . S
C355 C163 1.483 . S
C343 C7 1.487 . S
C382 C66 1.438 . S
C370 C39 1.426 . S
C409 C154 1.490 . S
C397 N2 1.437 . S
C424 N35 1.395 . S
C436 C75 1.462 . S
