# Generated by pormake.
# Topology ibd, (4,6)-cn, num edge types: 1
# Building blocks:
#     Node 0, Type 0, BuildingBlock: CEKHIL_clean_sbu_0, # of connection points: 4
#     Node 1, Type 0, BuildingBlock: CEKHIL_clean_sbu_0, # of connection points: 4
#     Node 2, Type 0, BuildingBlock: CEKHIL_clean_sbu_0, # of connection points: 4
#     Node 3, Type 0, BuildingBlock: CEKHIL_clean_sbu_0, # of connection points: 4
#     Node 4, Type 0, BuildingBlock: CEKHIL_clean_sbu_0, # of connection points: 4
#     Node 5, Type 0, BuildingBlock: CEKHIL_clean_sbu_0, # of connection points: 4
#     Node 6, Type 0, BuildingBlock: CEKHIL_clean_sbu_0, # of connection points: 4
#     Node 7, Type 0, BuildingBlock: CEKHIL_clean_sbu_0, # of connection points: 4
#     Node 8, Type 0, BuildingBlock: CEKHIL_clean_sbu_0, # of connection points: 4
#     Node 9, Type 0, BuildingBlock: CEKHIL_clean_sbu_0, # of connection points: 4
#     Node 10, Type 0, BuildingBlock: CEKHIL_clean_sbu_0, # of connection points: 4
#     Node 11, Type 0, BuildingBlock: CEKHIL_clean_sbu_0, # of connection points: 4
#     Node 12, Type 0, BuildingBlock: CEKHIL_clean_sbu_0, # of connection points: 4
#     Node 13, Type 0, BuildingBlock: CEKHIL_clean_sbu_0, # of connection points: 4
#     Node 14, Type 0, BuildingBlock: CEKHIL_clean_sbu_0, # of connection points: 4
#     Node 15, Type 0, BuildingBlock: CEKHIL_clean_sbu_0, # of connection points: 4
#     Node 16, Type 0, BuildingBlock: CEKHIL_clean_sbu_0, # of connection points: 4
#     Node 17, Type 0, BuildingBlock: CEKHIL_clean_sbu_0, # of connection points: 4
#     Node 18, Type 0, BuildingBlock: CEKHIL_clean_sbu_0, # of connection points: 4
#     Node 19, Type 0, BuildingBlock: CEKHIL_clean_sbu_0, # of connection points: 4
#     Node 20, Type 0, BuildingBlock: CEKHIL_clean_sbu_0, # of connection points: 4
#     Node 21, Type 0, BuildingBlock: CEKHIL_clean_sbu_0, # of connection points: 4
#     Node 22, Type 0, BuildingBlock: CEKHIL_clean_sbu_0, # of connection points: 4
#     Node 23, Type 0, BuildingBlock: CEKHIL_clean_sbu_0, # of connection points: 4
#     Node 24, Type 1, BuildingBlock: OJICUG_clean_sbu_0, # of connection points: 6
#     Node 25, Type 1, BuildingBlock: OJICUG_clean_sbu_0, # of connection points: 6
#     Node 26, Type 1, BuildingBlock: OJICUG_clean_sbu_0, # of connection points: 6
#     Node 27, Type 1, BuildingBlock: OJICUG_clean_sbu_0, # of connection points: 6
#     Node 28, Type 1, BuildingBlock: OJICUG_clean_sbu_0, # of connection points: 6
#     Node 29, Type 1, BuildingBlock: OJICUG_clean_sbu_0, # of connection points: 6
#     Node 30, Type 1, BuildingBlock: OJICUG_clean_sbu_0, # of connection points: 6
#     Node 31, Type 1, BuildingBlock: OJICUG_clean_sbu_0, # of connection points: 6
#     Node 32, Type 1, BuildingBlock: OJICUG_clean_sbu_0, # of connection points: 6
#     Node 33, Type 1, BuildingBlock: OJICUG_clean_sbu_0, # of connection points: 6
#     Node 34, Type 1, BuildingBlock: OJICUG_clean_sbu_0, # of connection points: 6
#     Node 35, Type 1, BuildingBlock: OJICUG_clean_sbu_0, # of connection points: 6
#     Node 36, Type 1, BuildingBlock: OJICUG_clean_sbu_0, # of connection points: 6
#     Node 37, Type 1, BuildingBlock: OJICUG_clean_sbu_0, # of connection points: 6
#     Node 38, Type 1, BuildingBlock: OJICUG_clean_sbu_0, # of connection points: 6
#     Node 39, Type 1, BuildingBlock: OJICUG_clean_sbu_0, # of connection points: 6
#     Edge 40, Type (0, 1), BuildingBlock: XIVTED_clean_linker_0, # of connection points: 2
#     Edge 41, Type (0, 1), BuildingBlock: XIVTED_clean_linker_0, # of connection points: 2
#     Edge 42, Type (0, 1), BuildingBlock: XIVTED_clean_linker_0, # of connection points: 2
#     Edge 43, Type (0, 1), BuildingBlock: XIVTED_clean_linker_0, # of connection points: 2
#     Edge 44, Type (0, 1), BuildingBlock: XIVTED_clean_linker_0, # of connection points: 2
#     Edge 45, Type (0, 1), BuildingBlock: XIVTED_clean_linker_0, # of connection points: 2
#     Edge 46, Type (0, 1), BuildingBlock: XIVTED_clean_linker_0, # of connection points: 2
#     Edge 47, Type (0, 1), BuildingBlock: XIVTED_clean_linker_0, # of connection points: 2
#     Edge 48, Type (0, 1), BuildingBlock: XIVTED_clean_linker_0, # of connection points: 2
#     Edge 49, Type (0, 1), BuildingBlock: XIVTED_clean_linker_0, # of connection points: 2
#     Edge 50, Type (0, 1), BuildingBlock: XIVTED_clean_linker_0, # of connection points: 2
#     Edge 51, Type (0, 1), BuildingBlock: XIVTED_clean_linker_0, # of connection points: 2
#     Edge 52, Type (0, 1), BuildingBlock: XIVTED_clean_linker_0, # of connection points: 2
#     Edge 53, Type (0, 1), BuildingBlock: XIVTED_clean_linker_0, # of connection points: 2
#     Edge 54, Type (0, 1), BuildingBlock: XIVTED_clean_linker_0, # of connection points: 2
#     Edge 55, Type (0, 1), BuildingBlock: XIVTED_clean_linker_0, # of connection points: 2
#     Edge 56, Type (0, 1), BuildingBlock: XIVTED_clean_linker_0, # of connection points: 2
#     Edge 57, Type (0, 1), BuildingBlock: XIVTED_clean_linker_0, # of connection points: 2
#     Edge 58, Type (0, 1), BuildingBlock: XIVTED_clean_linker_0, # of connection points: 2
#     Edge 59, Type (0, 1), BuildingBlock: XIVTED_clean_linker_0, # of connection points: 2
#     Edge 60, Type (0, 1), BuildingBlock: XIVTED_clean_linker_0, # of connection points: 2
#     Edge 61, Type (0, 1), BuildingBlock: XIVTED_clean_linker_0, # of connection points: 2
#     Edge 62, Type (0, 1), BuildingBlock: XIVTED_clean_linker_0, # of connection points: 2
#     Edge 63, Type (0, 1), BuildingBlock: XIVTED_clean_linker_0, # of connection points: 2
#     Edge 64, Type (0, 1), BuildingBlock: XIVTED_clean_linker_0, # of connection points: 2
#     Edge 65, Type (0, 1), BuildingBlock: XIVTED_clean_linker_0, # of connection points: 2
#     Edge 66, Type (0, 1), BuildingBlock: XIVTED_clean_linker_0, # of connection points: 2
#     Edge 67, Type (0, 1), BuildingBlock: XIVTED_clean_linker_0, # of connection points: 2
#     Edge 68, Type (0, 1), BuildingBlock: XIVTED_clean_linker_0, # of connection points: 2
#     Edge 69, Type (0, 1), BuildingBlock: XIVTED_clean_linker_0, # of connection points: 2
#     Edge 70, Type (0, 1), BuildingBlock: XIVTED_clean_linker_0, # of connection points: 2
#     Edge 71, Type (0, 1), BuildingBlock: XIVTED_clean_linker_0, # of connection points: 2
#     Edge 72, Type (0, 1), BuildingBlock: XIVTED_clean_linker_0, # of connection points: 2
#     Edge 73, Type (0, 1), BuildingBlock: XIVTED_clean_linker_0, # of connection points: 2
#     Edge 74, Type (0, 1), BuildingBlock: XIVTED_clean_linker_0, # of connection points: 2
#     Edge 75, Type (0, 1), BuildingBlock: XIVTED_clean_linker_0, # of connection points: 2
#     Edge 76, Type (0, 1), BuildingBlock: XIVTED_clean_linker_0, # of connection points: 2
#     Edge 77, Type (0, 1), BuildingBlock: XIVTED_clean_linker_0, # of connection points: 2
#     Edge 78, Type (0, 1), BuildingBlock: XIVTED_clean_linker_0, # of connection points: 2
#     Edge 79, Type (0, 1), BuildingBlock: XIVTED_clean_linker_0, # of connection points: 2
#     Edge 80, Type (0, 1), BuildingBlock: XIVTED_clean_linker_0, # of connection points: 2
#     Edge 81, Type (0, 1), BuildingBlock: XIVTED_clean_linker_0, # of connection points: 2
#     Edge 82, Type (0, 1), BuildingBlock: XIVTED_clean_linker_0, # of connection points: 2
#     Edge 83, Type (0, 1), BuildingBlock: XIVTED_clean_linker_0, # of connection points: 2
#     Edge 84, Type (0, 1), BuildingBlock: XIVTED_clean_linker_0, # of connection points: 2
#     Edge 85, Type (0, 1), BuildingBlock: XIVTED_clean_linker_0, # of connection points: 2
#     Edge 86, Type (0, 1), BuildingBlock: XIVTED_clean_linker_0, # of connection points: 2
#     Edge 87, Type (0, 1), BuildingBlock: XIVTED_clean_linker_0, # of connection points: 2
#     Edge 88, Type (0, 1), BuildingBlock: XIVTED_clean_linker_0, # of connection points: 2
#     Edge 89, Type (0, 1), BuildingBlock: XIVTED_clean_linker_0, # of connection points: 2
#     Edge 90, Type (0, 1), BuildingBlock: XIVTED_clean_linker_0, # of connection points: 2
#     Edge 91, Type (0, 1), BuildingBlock: XIVTED_clean_linker_0, # of connection points: 2
#     Edge 92, Type (0, 1), BuildingBlock: XIVTED_clean_linker_0, # of connection points: 2
#     Edge 93, Type (0, 1), BuildingBlock: XIVTED_clean_linker_0, # of connection points: 2
#     Edge 94, Type (0, 1), BuildingBlock: XIVTED_clean_linker_0, # of connection points: 2
#     Edge 95, Type (0, 1), BuildingBlock: XIVTED_clean_linker_0, # of connection points: 2
#     Edge 96, Type (0, 1), BuildingBlock: XIVTED_clean_linker_0, # of connection points: 2
#     Edge 97, Type (0, 1), BuildingBlock: XIVTED_clean_linker_0, # of connection points: 2
#     Edge 98, Type (0, 1), BuildingBlock: XIVTED_clean_linker_0, # of connection points: 2
#     Edge 99, Type (0, 1), BuildingBlock: XIVTED_clean_linker_0, # of connection points: 2
#     Edge 100, Type (0, 1), BuildingBlock: XIVTED_clean_linker_0, # of connection points: 2
#     Edge 101, Type (0, 1), BuildingBlock: XIVTED_clean_linker_0, # of connection points: 2
#     Edge 102, Type (0, 1), BuildingBlock: XIVTED_clean_linker_0, # of connection points: 2
#     Edge 103, Type (0, 1), BuildingBlock: XIVTED_clean_linker_0, # of connection points: 2
#     Edge 104, Type (0, 1), BuildingBlock: XIVTED_clean_linker_0, # of connection points: 2
#     Edge 105, Type (0, 1), BuildingBlock: XIVTED_clean_linker_0, # of connection points: 2
#     Edge 106, Type (0, 1), BuildingBlock: XIVTED_clean_linker_0, # of connection points: 2
#     Edge 107, Type (0, 1), BuildingBlock: XIVTED_clean_linker_0, # of connection points: 2
#     Edge 108, Type (0, 1), BuildingBlock: XIVTED_clean_linker_0, # of connection points: 2
#     Edge 109, Type (0, 1), BuildingBlock: XIVTED_clean_linker_0, # of connection points: 2
#     Edge 110, Type (0, 1), BuildingBlock: XIVTED_clean_linker_0, # of connection points: 2
#     Edge 111, Type (0, 1), BuildingBlock: XIVTED_clean_linker_0, # of connection points: 2
#     Edge 112, Type (0, 1), BuildingBlock: XIVTED_clean_linker_0, # of connection points: 2
#     Edge 113, Type (0, 1), BuildingBlock: XIVTED_clean_linker_0, # of connection points: 2
#     Edge 114, Type (0, 1), BuildingBlock: XIVTED_clean_linker_0, # of connection points: 2
#     Edge 115, Type (0, 1), BuildingBlock: XIVTED_clean_linker_0, # of connection points: 2
#     Edge 116, Type (0, 1), BuildingBlock: XIVTED_clean_linker_0, # of connection points: 2
#     Edge 117, Type (0, 1), BuildingBlock: XIVTED_clean_linker_0, # of connection points: 2
#     Edge 118, Type (0, 1), BuildingBlock: XIVTED_clean_linker_0, # of connection points: 2
#     Edge 119, Type (0, 1), BuildingBlock: XIVTED_clean_linker_0, # of connection points: 2
#     Edge 120, Type (0, 1), BuildingBlock: XIVTED_clean_linker_0, # of connection points: 2
#     Edge 121, Type (0, 1), BuildingBlock: XIVTED_clean_linker_0, # of connection points: 2
#     Edge 122, Type (0, 1), BuildingBlock: XIVTED_clean_linker_0, # of connection points: 2
#     Edge 123, Type (0, 1), BuildingBlock: XIVTED_clean_linker_0, # of connection points: 2
#     Edge 124, Type (0, 1), BuildingBlock: XIVTED_clean_linker_0, # of connection points: 2
#     Edge 125, Type (0, 1), BuildingBlock: XIVTED_clean_linker_0, # of connection points: 2
#     Edge 126, Type (0, 1), BuildingBlock: XIVTED_clean_linker_0, # of connection points: 2
#     Edge 127, Type (0, 1), BuildingBlock: XIVTED_clean_linker_0, # of connection points: 2
#     Edge 128, Type (0, 1), BuildingBlock: XIVTED_clean_linker_0, # of connection points: 2
#     Edge 129, Type (0, 1), BuildingBlock: XIVTED_clean_linker_0, # of connection points: 2
#     Edge 130, Type (0, 1), BuildingBlock: XIVTED_clean_linker_0, # of connection points: 2
#     Edge 131, Type (0, 1), BuildingBlock: XIVTED_clean_linker_0, # of connection points: 2
#     Edge 132, Type (0, 1), BuildingBlock: XIVTED_clean_linker_0, # of connection points: 2
#     Edge 133, Type (0, 1), BuildingBlock: XIVTED_clean_linker_0, # of connection points: 2
#     Edge 134, Type (0, 1), BuildingBlock: XIVTED_clean_linker_0, # of connection points: 2
#     Edge 135, Type (0, 1), BuildingBlock: XIVTED_clean_linker_0, # of connection points: 2
# Relax obj value: 0.371
# Max RMSD: 0.283
# Mean RMSD: 0.280
data_MOF--net-ibd--node1-CEKHIL_clean_sbu_0--node2-OJICUG_clean_sbu_0--edge1-XIVTED_clean_linker_0
_symmetry_space_group_name_H-M    P1
_symmetry_Int_Tables_number       1
_symmetry_cell_setting            triclinic
loop_
_symmetry_equiv_pos_as_xyz
'x, y, z'
_cell_length_a     48.922557
_cell_length_b     48.843504
_cell_length_c     48.855294
_cell_angle_alpha  90.14654
_cell_angle_beta   90.188287
_cell_angle_gamma 90.797413
loop_
_atom_site_label
_atom_site_type_symbol
_atom_site_fract_x
_atom_site_fract_y
_atom_site_fract_z
_atom_type_partial_charge
Co0 Co -0.00422 0.21769 0.3776 0.0
O1 O 0.00155 0.24327 0.34799 0.0
O2 O 0.9691 0.21109 0.34953 0.0
C3 C 0.00046 0.24893 0.41111 0.0
O4 O 0.98135 0.18846 0.4031 0.0
Co5 Co 0.03698 0.20301 0.42224 0.0
O6 O 0.00896 0.17789 0.43786 0.0
C7 C 0.04831 0.19286 0.36433 0.0
C8 C 0.98063 0.23114 0.33639 0.0
C9 C 0.9866 0.17484 0.4248 0.0
O10 O 0.02238 0.19245 0.35999 0.0
O11 O 0.05869 0.1988 0.38769 0.0
O12 O 0.97703 0.24562 0.39872 0.0
O13 O 0.02014 0.23365 0.40276 0.0
Co14 Co 0.00586 0.74252 0.60331 0.0
O15 O 0.98658 0.73508 0.63666 0.0
O16 O 0.00746 0.77438 0.62675 0.0
C17 C 0.97327 0.72517 0.57552 0.0
O18 O 0.02659 0.75843 0.57104 0.0
Co19 Co 0.02363 0.6964 0.56397 0.0
O20 O 0.02763 0.72695 0.5375 0.0
C21 C 0.05429 0.70609 0.61532 0.0
C22 C 0.99267 0.76008 0.64372 0.0
C23 C 0.03094 0.7514 0.54611 0.0
O24 O 0.04046 0.7279 0.6197 0.0
O25 O 0.04945 0.68976 0.59527 0.0
O26 O 0.97153 0.7501 0.58463 0.0
O27 O 0.99344 0.71108 0.58477 0.0
Co28 Co 0.49182 0.85542 0.87515 0.0
O29 O 0.48487 0.8836 0.84856 0.0
O30 O 0.46374 0.84312 0.85053 0.0
C31 C 0.4928 0.88141 0.91291 0.0
O32 O 0.49194 0.82171 0.8991 0.0
Co33 Co 0.54517 0.85322 0.90884 0.0
O34 O 0.52672 0.82298 0.92908 0.0
C35 C 0.54577 0.83426 0.85189 0.0
C36 C 0.46712 0.86639 0.83812 0.0
C37 C 0.50494 0.81187 0.9196 0.0
O38 O 0.52008 0.83916 0.85042 0.0
O39 O 0.56024 0.83929 0.87323 0.0
O40 O 0.46953 0.87357 0.90237 0.0
O41 O 0.51438 0.87612 0.89864 0.0
Co42 Co 0.50334 0.20267 0.12144 0.0
O43 O 0.47483 0.20028 0.14892 0.0
O44 O 0.49486 0.23861 0.13496 0.0
C45 C 0.48323 0.17415 0.09088 0.0
O46 O 0.53176 0.21484 0.09357 0.0
Co47 Co 0.538 0.15425 0.10071 0.0
O48 O 0.55348 0.18008 0.0735 0.0
C49 C 0.54893 0.17855 0.15532 0.0
C50 C 0.47669 0.22686 0.15042 0.0
C51 C 0.54888 0.20553 0.07606 0.0
O52 O 0.53228 0.19811 0.15039 0.0
O53 O 0.55237 0.15833 0.13901 0.0
O54 O 0.47583 0.19956 0.09262 0.0
O55 O 0.50113 0.1663 0.10856 0.0
Co56 Co -0.00224 0.69827 0.11867 0.0
O57 O 0.0043 0.72626 0.09144 0.0
O58 O 0.9647 0.70497 0.09834 0.0
C59 C 0.01948 0.72097 0.15269 0.0
O60 O 0.98147 0.67022 0.14503 0.0
Co61 Co 0.04268 0.66652 0.14901 0.0
O62 O 0.01309 0.65094 0.17182 0.0
C63 C 0.03252 0.65681 0.09018 0.0
C64 C 0.97856 0.7235 0.08511 0.0
C65 C 0.98831 0.65449 0.16491 0.0
O66 O 0.00959 0.66939 0.0918 0.0
O67 O 0.04939 0.6554 0.11017 0.0
O68 O -0.00572 0.72658 0.14654 0.0
O69 O 0.03098 0.7027 0.13765 0.0
Co70 Co 0.52205 0.70864 0.36999 0.0
O71 O 0.48636 0.717 0.38387 0.0
O72 O 0.52321 0.74367 0.38804 0.0
C73 C 0.50637 0.69498 0.32912 0.0
O74 O 0.56157 0.70871 0.35721 0.0
Co75 Co 0.54064 0.65199 0.35259 0.0
O76 O 0.56644 0.67318 0.32907 0.0
C77 C 0.53026 0.66361 0.41074 0.0
C78 C 0.49722 0.73992 0.39236 0.0
C79 C 0.57321 0.69726 0.33672 0.0
O80 O 0.53061 0.68928 0.40504 0.0
O81 O 0.53259 0.64497 0.39243 0.0
O82 O 0.51102 0.72078 0.33417 0.0
O83 O 0.51086 0.67812 0.34904 0.0
Co84 Co 0.4887 0.27981 0.63272 0.0
O85 O 0.49313 0.29613 0.59705 0.0
O86 O 0.45433 0.27884 0.61307 0.0
C87 C 0.51223 0.31276 0.65563 0.0
O88 O 0.4753 0.262 0.66796 0.0
Co89 Co 0.53727 0.26234 0.66987 0.0
O90 O 0.50919 0.25865 0.69878 0.0
C91 C 0.5204 0.22808 0.6222 0.0
C92 C 0.46729 0.2909 0.59319 0.0
C93 C 0.48408 0.25644 0.69213 0.0
O94 O 0.49929 0.24298 0.61766 0.0
O95 O 0.53835 0.23364 0.64061 0.0
O96 O 0.48656 0.31631 0.64972 0.0
O97 O 0.5227 0.29052 0.64658 0.0
Co98 Co 0.97344 0.26336 0.86327 0.0
O99 O 0.94559 0.28092 0.88475 0.0
O100 O 0.98702 0.29795 0.87637 0.0
C101 C 0.94616 0.24971 0.82854 0.0
O102 O 0.00723 0.25417 0.8419 0.0
Co103 Co 0.97489 0.20232 0.84633 0.0
O104 O 0.00314 0.21438 0.81946 0.0
C105 C 0.9871 0.21876 0.90356 0.0
C106 C 0.96348 0.30069 0.88807 0.0
C107 C 0.0155 0.23707 0.82394 0.0
O108 O 0.9876 0.24424 0.89681 0.0
O109 O 0.98055 0.19946 0.88687 0.0
O110 O 0.95559 0.27478 0.82922 0.0
O111 O 0.95224 0.23459 0.84918 0.0
Co112 Co 0.37991 0.05318 0.23039 0.0
O113 O 0.41842 0.05165 0.22199 0.0
O114 O 0.39099 0.01612 0.23091 0.0
C115 C 0.36655 0.08201 0.19754 0.0
O116 O 0.34044 0.04489 0.23858 0.0
Co117 Co 0.35009 0.10413 0.25109 0.0
O118 O 0.31611 0.08115 0.25152 0.0
C119 C 0.38944 0.07693 0.28699 0.0
C120 C 0.41524 0.02528 0.22509 0.0
C121 C 0.31793 0.05584 0.24568 0.0
O122 O 0.38914 0.05661 0.27029 0.0
O123 O 0.37702 0.09928 0.28198 0.0
O124 O 0.37079 0.05637 0.192 0.0
O125 O 0.3736 0.0901 0.22193 0.0
Co126 Co 0.19771 0.12391 0.5005 0.0
O127 O 0.20158 0.08653 0.51301 0.0
O128 O 0.2326 0.1106 0.48993 0.0
C129 C 0.1807 0.1423 0.53891 0.0
O130 O 0.2034 0.16144 0.4847 0.0
Co131 Co 0.14356 0.15534 0.49459 0.0
O132 O 0.16595 0.18693 0.4811 0.0
C133 C 0.15631 0.11092 0.45628 0.0
C134 C 0.22569 0.08784 0.50172 0.0
C135 C 0.19154 0.18365 0.4781 0.0
O136 O 0.18102 0.11057 0.4653 0.0
O137 O 0.13743 0.12511 0.46719 0.0
O138 O 0.20683 0.13812 0.53671 0.0
O139 O 0.16564 0.133 0.5191 0.0
Co140 Co 0.11848 -0.00259 0.71229 0.0
O141 O 0.14952 -0.00137 0.6884 0.0
O142 O 0.14156 0.96622 0.71917 0.0
C143 C 0.0883 0.00741 0.67908 0.0
O144 O 0.08824 0.98839 0.73958 0.0
Co145 Co 0.08273 0.04842 0.72202 0.0
O146 O 0.05887 0.02314 0.74333 0.0
C147 C 0.13727 0.04544 0.74712 0.0
C148 C 0.15688 0.97584 0.69961 0.0
C149 C 0.06638 -0.001 0.74937 0.0
O150 O 0.13868 0.01995 0.74054 0.0
O151 O 0.11808 0.0611 0.73914 0.0
O152 O 0.09604 0.98228 0.6825 0.0
O153 O 0.09981 0.02546 0.69477 0.0
Co154 Co 0.20789 0.87497 0.02924 0.0
O155 O 0.2102 0.8466 0.05683 0.0
O156 O 0.24516 0.86485 0.03423 0.0
C157 C 0.17978 0.90297 0.05207 0.0
O158 O 0.21558 0.90409 0.00101 0.0
Co159 Co 0.1559 0.89229 -0.00184 0.0
O160 O 0.17895 0.91985 0.97889 0.0
C161 C 0.18554 0.84284 0.98041 0.0
C162 C 0.23649 0.84781 0.05264 0.0
C163 C 0.20461 0.9197 0.98315 0.0
O164 O 0.20361 0.84691 -0.00079 0.0
O165 O 0.16437 0.85771 0.97763 0.0
O166 O 0.20573 0.90251 0.05768 0.0
O167 O 0.17097 0.88507 0.0344 0.0
Co168 Co 0.30429 0.37475 0.97132 0.0
O169 O 0.33241 0.3479 0.97127 0.0
O170 O 0.29665 0.34801 0.94316 0.0
C171 C 0.33248 0.41097 0.97437 0.0
O172 O 0.27196 0.3996 0.96467 0.0
Co173 Co 0.29624 0.412 0.02194 0.0
O174 O 0.26946 0.43093 -0.00169 0.0
C175 C 0.27607 0.35518 0.02366 0.0
C176 C 0.31899 0.33633 0.95134 0.0
C177 C 0.26118 0.42084 0.97561 0.0
O178 O 0.28258 0.35239 -0.00168 0.0
O179 O 0.28149 0.37684 0.03754 0.0
O180 O 0.32742 0.40002 0.95059 0.0
O181 O 0.32226 0.39854 -0.00464 0.0
Co182 Co 0.75708 0.11173 0.00889 0.0
O183 O 0.77284 0.0766 0.01599 0.0
O184 O 0.74742 0.08661 0.97982 0.0
C185 C 0.79507 0.13632 0.01792 0.0
O186 O 0.73899 0.14556 0.99319 0.0
Co187 Co 0.75215 0.15689 0.05293 0.0
O188 O 0.75024 0.1811 0.02025 0.0
C189 C 0.71643 0.10778 0.05542 0.0
C190 C 0.76235 0.06895 0.99269 0.0
C191 C 0.74221 0.17142 -0.00271 0.0
O192 O 0.72373 0.10113 0.03097 0.0
O193 O 0.72694 0.1281 0.06855 0.0
O194 O 0.79171 0.12502 0.99403 0.0
O195 O 0.77654 0.13085 0.03595 0.0
Co196 Co 0.12689 0.54084 0.23586 0.0
O197 O 0.15531 0.51642 0.22435 0.0
O198 O 0.15335 0.53711 0.26471 0.0
C199 C 0.09187 0.51432 0.22188 0.0
O200 O 0.10048 0.56496 0.2566 0.0
Co201 Co 0.08736 0.56841 0.19568 0.0
O202 O 0.06618 0.57757 0.22893 0.0
C203 C 0.14527 0.58469 0.19633 0.0
C204 C 0.16549 0.51981 0.24876 0.0
C205 C 0.07685 0.57541 0.25262 0.0
O206 O 0.14766 0.57282 0.21971 0.0
O207 O 0.1233 0.58338 0.18209 0.0
O208 O 0.10396 0.50965 0.24507 0.0
O209 O 0.10257 0.53341 0.2068 0.0
Co210 Co 0.75783 0.83875 0.50488 0.0
O211 O 0.7705 0.802 0.49908 0.0
O212 O 0.74494 0.82532 0.46992 0.0
C213 C 0.79719 0.85822 0.51993 0.0
O214 O 0.74096 0.87636 0.50288 0.0
Co215 Co 0.75755 0.86626 0.56248 0.0
O216 O 0.74556 0.89935 0.54253 0.0
C217 C 0.7145 0.82587 0.54771 0.0
C218 C 0.75733 0.80276 0.47592 0.0
C219 C 0.73786 0.89792 0.51763 0.0
O220 O 0.72399 0.82403 0.52326 0.0
O221 O 0.72605 0.84004 0.56668 0.0
O222 O 0.79301 0.85462 0.49383 0.0
O223 O 0.77926 0.84698 0.53576 0.0
Co224 Co 0.87255 -0.00309 0.24213 0.0
O225 O 0.90274 0.97338 0.23516 0.0
O226 O 0.89286 0.99131 0.27562 0.0
C227 C 0.84276 0.97009 0.21909 0.0
O228 O 0.84235 0.02074 0.2577 0.0
Co229 Co 0.84141 0.0251 0.19542 0.0
O230 O 0.81499 0.0355 0.22404 0.0
C231 C 0.89554 0.04653 0.21232 0.0
C232 C 0.90811 0.97522 0.2611 0.0
C233 C 0.82093 0.03329 0.24932 0.0
O234 O 0.89554 0.02997 0.23276 0.0
O235 O 0.87675 0.04647 0.19402 0.0
O236 O 0.84865 0.96507 0.24451 0.0
O237 O 0.85571 0.99046 0.20801 0.0
Co238 Co 0.26154 0.62113 0.49969 0.0
O239 O 0.27766 0.58557 0.5049 0.0
O240 O 0.2634 0.60214 0.46527 0.0
C241 C 0.29236 0.64462 0.52508 0.0
O242 O 0.24592 0.65648 0.48464 0.0
Co243 Co 0.23918 0.6583 0.54569 0.0
O244 O 0.24168 0.6878 0.5179 0.0
C245 C 0.20825 0.60846 0.52852 0.0
C246 C 0.27513 0.58252 0.47854 0.0
C247 C 0.24216 0.68123 0.49268 0.0
O248 O 0.22401 0.60543 0.50765 0.0
O249 O 0.21214 0.62708 0.54671 0.0
O250 O 0.29796 0.63798 0.49993 0.0
O251 O 0.26935 0.63553 0.5344 0.0
Co252 Co 0.37084 0.41604 0.75291 0.0
O253 O 0.3986 0.38993 0.7624 0.0
O254 O 0.38256 0.42209 0.78993 0.0
C255 C 0.34074 0.38716 0.73238 0.0
O256 O 0.3427 0.44586 0.75221 0.0
Co257 Co 0.35333 0.42965 0.69332 0.0
O258 O 0.32613 0.45432 0.7103 0.0
C259 C 0.40343 0.45519 0.71672 0.0
C260 C 0.39913 0.40193 0.78625 0.0
C261 C 0.32691 0.45893 0.73597 0.0
O262 O 0.39922 0.4432 0.73977 0.0
O263 O 0.38864 0.45085 0.69543 0.0
O264 O 0.34203 0.38874 0.75894 0.0
O265 O 0.35959 0.40051 0.7194 0.0
Co266 Co 0.62685 0.96544 0.71806 0.0
O267 O 0.66252 0.94974 0.71194 0.0
O268 O 0.63717 0.94371 0.74897 0.0
C269 C 0.6088 0.95616 0.67645 0.0
O270 O 0.58959 0.97615 0.73254 0.0
Co271 Co 0.60191 0.01368 0.68564 0.0
O272 O 0.56691 0.00178 0.70228 0.0
C273 C 0.64579 0.02406 0.72662 0.0
C274 C 0.65967 0.93872 0.73604 0.0
C275 C 0.56767 0.98761 0.72407 0.0
O276 O 0.64472 -0.001 0.73469 0.0
O277 O 0.63149 0.03317 0.7067 0.0
O278 O 0.60963 0.93721 0.69513 0.0
O279 O 0.62064 0.97906 0.68277 0.0
Co280 Co 0.7596 0.6254 0.05123 0.0
O281 O 0.76189 0.60542 0.08514 0.0
O282 O 0.79567 0.61136 0.05543 0.0
C283 C 0.7375 0.66137 0.0683 0.0
O284 O 0.76655 0.64507 0.01535 0.0
Co285 Co 0.70536 0.64122 0.02296 0.0
O286 O 0.72853 0.66184 -0.00355 0.0
C287 C 0.72167 0.58362 0.02725 0.0
C288 C 0.78712 0.60089 0.07831 0.0
C289 C 0.75438 0.65892 -0.00324 0.0
O290 O 0.74662 0.59106 0.0319 0.0
O291 O 0.70184 0.6004 0.02646 0.0
O292 O 0.76398 0.66024 0.07077 0.0
O293 O 0.72556 0.64053 0.05716 0.0
Co294 Co 0.85588 0.55575 0.72921 0.0
O295 O 0.88533 0.55726 0.70279 0.0
O296 O 0.86816 0.51953 0.72163 0.0
C297 C 0.82748 0.58448 0.70777 0.0
O298 O 0.82605 0.54441 0.75569 0.0
Co299 Co 0.83559 0.60476 0.76338 0.0
O300 O 0.80562 0.57992 0.77579 0.0
C301 C 0.88848 0.57935 0.77667 0.0
C302 C 0.88557 0.53069 0.70494 0.0
C303 C 0.80763 0.55434 0.77134 0.0
O304 O 0.88301 0.55971 0.7599 0.0
O305 O 0.87321 0.60028 0.77944 0.0
O306 O 0.82903 0.55905 0.70007 0.0
O307 O 0.84452 0.5923 0.72662 0.0
Co308 Co 0.71249 0.37929 0.57229 0.0
O309 O 0.70657 0.3465 0.59371 0.0
O310 O 0.74645 0.36105 0.57738 0.0
C311 C 0.68752 0.40789 0.59817 0.0
O312 O 0.72798 0.41113 0.55046 0.0
Co313 Co 0.66646 0.40951 0.54206 0.0
O314 O 0.69548 0.43522 0.5293 0.0
C315 C 0.68526 0.35662 0.52069 0.0
C316 C 0.73267 0.34259 0.59074 0.0
C317 C 0.72044 0.43089 0.53506 0.0
O318 O 0.70532 0.35747 0.53779 0.0
O319 O 0.66622 0.37433 0.52061 0.0
O320 O 0.71243 0.40204 0.60519 0.0
O321 O 0.67784 0.3947 0.57721 0.0
Co322 Co 0.61832 0.46206 0.20139 0.0
O323 O 0.64999 0.45803 0.17834 0.0
O324 O 0.62946 0.42442 0.20121 0.0
C325 C 0.59459 0.48891 0.17231 0.0
O326 O 0.58537 0.45664 0.22596 0.0
Co327 Co 0.5976 0.5174 0.22404 0.0
O328 O 0.56632 0.49604 0.23892 0.0
C329 C 0.64539 0.49093 0.24972 0.0
C330 C 0.64898 0.43225 0.18498 0.0
C331 C 0.56682 0.47 0.2386 0.0
O332 O 0.64248 0.46976 0.23417 0.0
O333 O 0.6307 0.51232 0.24762 0.0
O334 O 0.59445 0.46245 0.16903 0.0
O335 O 0.61007 0.49819 0.19171 0.0
Sc336 Sc 0.10399 0.18701 0.13368 0.0
Sc337 Sc 0.1321 0.12638 0.15934 0.0
Sc338 Sc 0.13973 0.1429 0.08988 0.0
O339 O 0.12514 0.15201 0.12766 0.0
C340 C 0.0829 0.16817 0.07434 0.0
C341 C 0.06929 0.14215 0.16639 0.0
C342 C 0.12346 0.08318 0.11073 0.0
C343 C 0.13496 0.18296 0.19111 0.0
C344 C 0.1516 0.20751 0.09517 0.0
C345 C 0.18975 0.12994 0.12942 0.0
O346 O 0.08288 0.18388 0.09509 0.0
O347 O 0.08968 0.12679 0.17085 0.0
O348 O 0.12853 0.10019 0.09176 0.0
O349 O 0.1213 0.19577 0.17327 0.0
O350 O 0.15294 0.18444 0.08317 0.0
O351 O 0.17486 0.12569 0.15031 0.0
O352 O 0.13604 0.21179 0.11555 0.0
O353 O 0.14145 0.15816 0.1881 0.0
O354 O 0.18024 0.13536 0.1058 0.0
O355 O 0.07076 0.1642 0.15245 0.0
O356 O 0.10097 0.15014 0.07053 0.0
O357 O 0.12399 0.08984 0.13584 0.0
Sc358 Sc 0.16512 0.88728 0.36801 0.0
Sc359 Sc 0.11908 0.84055 0.33952 0.0
Sc360 Sc 0.13599 0.89953 0.30489 0.0
O361 O 0.14051 0.87535 0.33741 0.0
C362 C 0.14041 0.9427 0.35298 0.0
C363 C 0.11488 0.86014 0.39999 0.0
C364 C 0.07621 0.8839 0.31783 0.0
C365 C 0.17752 0.82516 0.36613 0.0
C366 C 0.19656 0.90697 0.313 0.0
C367 C 0.12901 0.83977 0.27818 0.0
O368 O 0.14329 0.9248 0.37151 0.0
O369 O 0.10318 0.85167 0.37832 0.0
O370 O 0.09383 0.90283 0.31416 0.0
O371 O 0.18715 0.84955 0.36661 0.0
O372 O 0.17863 0.8969 0.29681 0.0
O373 O 0.13363 0.8275 0.30049 0.0
O374 O 0.19348 0.90675 0.33904 0.0
O375 O 0.15303 0.81941 0.35865 0.0
O376 O 0.12674 0.86569 0.27712 0.0
O377 O 0.13906 0.87025 0.40011 0.0
O378 O 0.14309 0.93715 0.32769 0.0
O379 O 0.08253 0.85888 0.3216 0.0
Sc380 Sc 0.41508 0.86361 0.58501 0.0
Sc381 Sc 0.34958 0.87456 0.55856 0.0
Sc382 Sc 0.38335 0.92595 0.59757 0.0
O383 O 0.38257 0.88814 0.58021 0.0
C384 C 0.41002 0.88848 0.64394 0.0
C385 C 0.3672 0.81878 0.5855 0.0
C386 C 0.32275 0.90448 0.61007 0.0
C387 C 0.40086 0.85634 0.52235 0.0
C388 C 0.44449 0.9224 0.57937 0.0
C389 C 0.35062 0.93735 0.54198 0.0
O390 O 0.41342 0.86756 0.6288 0.0
O391 O 0.34876 0.83494 0.57755 0.0
O392 O 0.34399 0.91865 0.61606 0.0
O393 O 0.41821 0.85878 0.54168 0.0
O394 O 0.4232 0.93691 0.5814 0.0
O395 O 0.34508 0.91238 0.53695 0.0
O396 O 0.4439 0.89664 0.58234 0.0
O397 O 0.37519 0.85952 0.52555 0.0
O398 O 0.36429 0.94516 0.56284 0.0
O399 O 0.39203 0.82609 0.58781 0.0
O400 O 0.40183 0.91131 0.63479 0.0
O401 O 0.32136 0.88841 0.58951 0.0
Sc402 Sc 0.35778 0.07328 0.8336 0.0
Sc403 Sc 0.40657 0.10216 0.8783 0.0
Sc404 Sc 0.34245 0.08382 0.90149 0.0
O405 O 0.36935 0.08633 0.87092 0.0
C406 C 0.30231 0.0941 0.85135 0.0
C407 C 0.39377 0.12664 0.8196 0.0
C408 C 0.36382 0.14355 0.90538 0.0
C409 C 0.41813 0.05105 0.83859 0.0
C410 C 0.33476 0.02775 0.87571 0.0
C411 C 0.39792 0.07862 0.93578 0.0
O412 O 0.32154 0.09739 0.83436 0.0
O413 O 0.40467 0.12764 0.84314 0.0
O414 O 0.34335 0.12717 0.90417 0.0
O415 O 0.39359 0.04883 0.83002 0.0
O416 O 0.34274 0.04057 0.89707 0.0
O417 O 0.41303 0.07865 0.9148 0.0
O418 O 0.33556 0.03826 0.8517 0.0
O419 O 0.42617 0.06975 0.85524 0.0
O420 O 0.37243 0.08255 0.9339 0.0
O421 O 0.37769 0.10723 0.81214 0.0
O422 O 0.3067 0.08519 0.87533 0.0
O423 O 0.38849 0.13618 0.90088 0.0
Sc424 Sc 0.67307 0.3695 0.90686 0.0
Sc425 Sc 0.6192 0.3357 0.87419 0.0
Sc426 Sc 0.62125 0.40617 0.87421 0.0
O427 O 0.63815 0.37065 0.88516 0.0
C428 C 0.64706 0.42175 0.93277 0.0
C429 C 0.6325 0.32606 0.93564 0.0
C430 C 0.5682 0.37434 0.88488 0.0
C431 C 0.68128 0.31571 0.87567 0.0
C432 C 0.68361 0.41783 0.86301 0.0
C433 C 0.61249 0.36782 0.8211 0.0
O434 O 0.65967 0.39945 0.93578 0.0
O435 O 0.61492 0.32588 0.91638 0.0
O436 O 0.5824 0.39516 0.89197 0.0
O437 O 0.69089 0.33946 0.88047 0.0
O438 O 0.65863 0.41961 0.85599 0.0
O439 O 0.62276 0.34639 0.83165 0.0
O440 O 0.69198 0.40161 0.88171 0.0
O441 O 0.65571 0.31136 0.87367 0.0
O442 O 0.60787 0.38943 0.83502 0.0
O443 O 0.65602 0.33779 0.93396 0.0
O444 O 0.63339 0.42733 0.91133 0.0
O445 O 0.57906 0.3532 0.87462 0.0
Sc446 Sc 0.92682 0.34354 0.10973 0.0
Sc447 Sc 0.88038 0.37338 0.15599 0.0
Sc448 Sc 0.86461 0.36967 0.08593 0.0
O449 O 0.89056 0.36199 0.11726 0.0
C450 C 0.92108 0.37865 0.0551 0.0
C451 C 0.94366 0.39076 0.15135 0.0
C452 C 0.86222 0.4246 0.1204 0.0
C453 C 0.91116 0.31782 0.16782 0.0
C454 C 0.88398 0.30868 0.07398 0.0
C455 C 0.82212 0.35494 0.13382 0.0
O456 O 0.93511 0.3654 0.07232 0.0
O457 O 0.92016 0.39183 0.16235 0.0
O458 O 0.86172 0.41186 0.09767 0.0
O459 O 0.92489 0.31877 0.14586 0.0
O460 O 0.86677 0.32792 0.0717 0.0
O461 O 0.83913 0.35721 0.15346 0.0
O462 O 0.90635 0.31102 0.08734 0.0
O463 O 0.89309 0.33528 0.17377 0.0
O464 O 0.82878 0.35921 0.10909 0.0
O465 O 0.94946 0.37467 0.13175 0.0
O466 O 0.89564 0.38195 0.05781 0.0
O467 O 0.86685 0.4131 0.14321 0.0
Sc468 Sc 0.86498 0.55516 0.36397 0.0
Sc469 Sc 0.86328 0.62632 0.36466 0.0
Sc470 Sc 0.82207 0.58887 0.40919 0.0
O471 O 0.84986 0.59029 0.37926 0.0
C472 C 0.80244 0.5429 0.3653 0.0
C473 C 0.8654 0.59393 0.31107 0.0
C474 C 0.80066 0.64014 0.37723 0.0
C475 C 0.91779 0.58982 0.3682 0.0
C476 C 0.85221 0.53699 0.42545 0.0
C477 C 0.86197 0.63792 0.4282 0.0
O478 O 0.82465 0.5429 0.3517 0.0
O479 O 0.85456 0.6141 0.32317 0.0
O480 O 0.79574 0.61796 0.38996 0.0
O481 O 0.90613 0.56739 0.37541 0.0
O482 O 0.8462 0.56105 0.43239 0.0
O483 O 0.8731 0.64107 0.40491 0.0
O484 O 0.85812 0.53113 0.40084 0.0
O485 O 0.90436 0.61094 0.36127 0.0
O486 O 0.84238 0.62101 0.43256 0.0
O487 O 0.87273 0.57267 0.32402 0.0
O488 O 0.79957 0.55622 0.38772 0.0
O489 O 0.8241 0.64596 0.36745 0.0
Sc490 Sc 0.90981 0.82916 0.87502 0.0
Sc491 Sc 0.84521 0.84693 0.89536 0.0
Sc492 Sc 0.87853 0.88491 0.84588 0.0
O493 O 0.87783 0.8539 0.87215 0.0
C494 C 0.93837 0.88759 0.86258 0.0
C495 C 0.89617 0.83382 0.93539 0.0
C496 C 0.8479 0.90993 0.89846 0.0
C497 C 0.85901 0.78784 0.88348 0.0
C498 C 0.90642 0.8356 0.81284 0.0
C499 C 0.8185 0.86571 0.83827 0.0
O500 O 0.93936 0.86149 0.86376 0.0
O501 O 0.87058 0.8326 0.92967 0.0
O502 O 0.85589 0.91162 0.8736 0.0
O503 O 0.88449 0.7933 0.88629 0.0
O504 O 0.90095 0.86104 0.81539 0.0
O505 O 0.81636 0.85997 0.86371 0.0
O506 O 0.90552 0.81898 0.83282 0.0
O507 O 0.84176 0.80647 0.8793 0.0
O508 O 0.84133 0.87116 0.82717 0.0
O509 O 0.91412 0.83922 0.91736 0.0
O510 O 0.91583 0.90008 0.86338 0.0
O511 O 0.84733 0.88748 0.91155 0.0
Sc512 Sc 0.81953 0.09895 0.5981 0.0
Sc513 Sc 0.88376 0.13236 0.60262 0.0
Sc514 Sc 0.86824 0.07741 0.64659 0.0
O515 O 0.85713 0.10296 0.61582 0.0
C516 C 0.8064 0.08894 0.66154 0.0
C517 C 0.82664 0.16367 0.60178 0.0
C518 C 0.89195 0.13566 0.66702 0.0
C519 C 0.8579 0.11009 0.54692 0.0
C520 C 0.83807 0.03681 0.60458 0.0
C521 C 0.92332 0.0821 0.61226 0.0
O522 O 0.79949 0.09568 0.63736 0.0
O523 O 0.85262 0.16317 0.60218 0.0
O524 O 0.88345 0.11128 0.67153 0.0
O525 O 0.83538 0.10154 0.55678 0.0
O526 O 0.85446 0.04121 0.62446 0.0
O527 O 0.91825 0.10516 0.60154 0.0
O528 O 0.82378 0.05551 0.59387 0.0
O529 O 0.87663 0.12149 0.56103 0.0
O530 O 0.9073 0.07027 0.62892 0.0
O531 O 0.81187 0.14211 0.60021 0.0
O532 O 0.83027 0.08127 0.66771 0.0
O533 O 0.89352 0.14577 0.64318 0.0
Sc534 Sc 0.61805 0.08503 0.3815 0.0
Sc535 Sc 0.65255 0.11856 0.43598 0.0
Sc536 Sc 0.59393 0.1472 0.40649 0.0
O537 O 0.62166 0.11689 0.40804 0.0
C538 C 0.60515 0.13765 0.34425 0.0
C539 C 0.68211 0.09868 0.38131 0.0
C540 C 0.64708 0.18205 0.4245 0.0
C541 C 0.63943 0.05441 0.43487 0.0
C542 C 0.55581 0.09487 0.39256 0.0
C543 C 0.59864 0.13394 0.46965 0.0
O544 O 0.60902 0.11215 0.34782 0.0
O545 O 0.68338 0.10953 0.40511 0.0
O546 O 0.62252 0.17972 0.41629 0.0
O547 O 0.62776 0.05405 0.41156 0.0
O548 O 0.56022 0.12019 0.39684 0.0
O549 O 0.62379 0.12718 0.46881 0.0
O550 O 0.57508 0.078 0.38931 0.0
O551 O 0.64853 0.0762 0.44593 0.0
O552 O 0.585 0.14098 0.44868 0.0
O553 O 0.66012 0.08934 0.37072 0.0
O554 O 0.60136 0.15431 0.36388 0.0
O555 O 0.66136 0.16147 0.4306 0.0
Sc556 Sc 0.6312 0.88873 0.10837 0.0
Sc557 Sc 0.58325 0.85156 0.14724 0.0
Sc558 Sc 0.63142 0.8956 0.17959 0.0
O559 O 0.61516 0.87861 0.14513 0.0
C560 C 0.68452 0.88415 0.14578 0.0
C561 C 0.62343 0.82434 0.10389 0.0
C562 C 0.61721 0.83486 0.20029 0.0
C563 C 0.56768 0.88422 0.09347 0.0
C564 C 0.63267 0.94609 0.13724 0.0
C565 C 0.56767 0.89902 0.18963 0.0
O566 O 0.67292 0.88823 0.12287 0.0
O567 O 0.60339 0.82279 0.12047 0.0
O568 O 0.62876 0.85815 0.20335 0.0
O569 O 0.59219 0.89151 0.08895 0.0
O570 O 0.63677 0.93613 0.16101 0.0
O571 O 0.56142 0.87842 0.1746 0.0
O572 O 0.62811 0.93127 0.11638 0.0
O573 O 0.56078 0.8696 0.1138 0.0
O574 O 0.59201 0.90786 0.19295 0.0
O575 O 0.6353 0.84675 0.09771 0.0
O576 O 0.67177 0.88397 0.16836 0.0
O577 O 0.60103 0.82951 0.18061 0.0
Sc578 Sc 0.36215 0.64755 0.06207 0.0
Sc579 Sc 0.41854 0.66889 0.10166 0.0
Sc580 Sc 0.38742 0.60564 0.11355 0.0
O581 O 0.38956 0.64071 0.09225 0.0
C582 C 0.32556 0.62052 0.1092 0.0
C583 C 0.36459 0.70426 0.09247 0.0
C584 C 0.40462 0.64826 0.16037 0.0
C585 C 0.41756 0.6738 0.03775 0.0
C586 C 0.37503 0.58632 0.05209 0.0
C587 C 0.45047 0.61153 0.10526 0.0
O588 O 0.32816 0.62916 0.0847 0.0
O589 O 0.39003 0.70294 0.09817 0.0
O590 O 0.39923 0.62401 0.15228 0.0
O591 O 0.39215 0.66786 0.03587 0.0
O592 O 0.37679 0.58198 0.0777 0.0
O593 O 0.45009 0.63768 0.10685 0.0
O594 O 0.37157 0.6099 0.04195 0.0
O595 O 0.43075 0.67242 0.06006 0.0
O596 O 0.42887 0.59684 0.1047 0.0
O597 O 0.35128 0.68508 0.08076 0.0
O598 O 0.34579 0.61316 0.12361 0.0
O599 O 0.40872 0.66794 0.14402 0.0
Sc600 Sc 0.14133 0.58673 0.82172 0.0
Sc601 Sc 0.17737 0.61517 0.87806 0.0
Sc602 Sc 0.12375 0.65099 0.8474 0.0
O603 O 0.1477 0.61763 0.84903 0.0
C604 C 0.13439 0.64072 0.78492 0.0
C605 C 0.20615 0.59185 0.82405 0.0
C606 C 0.18023 0.67893 0.86674 0.0
C607 C 0.15632 0.55327 0.87556 0.0
C608 C 0.08063 0.60283 0.83378 0.0
C609 C 0.12543 0.63747 0.9108 0.0
O610 O 0.13544 0.61486 0.78805 0.0
O611 O 0.20757 0.60172 0.84829 0.0
O612 O 0.15605 0.67942 0.85733 0.0
O613 O 0.147 0.5542 0.85127 0.0
O614 O 0.08729 0.62768 0.83807 0.0
O615 O 0.14918 0.62698 0.91012 0.0
O616 O 0.09811 0.58435 0.82944 0.0
O617 O 0.1669 0.57381 0.88762 0.0
O618 O 0.11343 0.64661 0.88967 0.0
O619 O 0.18372 0.58645 0.81188 0.0
O620 O 0.13241 0.65726 0.8049 0.0
O621 O 0.19177 0.65686 0.87361 0.0
Sc622 Sc 0.12147 0.37808 0.5874 0.0
Sc623 Sc 0.05988 0.3566 0.61743 0.0
Sc624 Sc 0.10079 0.40698 0.64988 0.0
O625 O 0.09393 0.38078 0.61815 0.0
C626 C 0.16098 0.38626 0.63919 0.0
C627 C 0.10705 0.31596 0.59846 0.0
C628 C 0.07939 0.35248 0.67933 0.0
C629 C 0.0644 0.37008 0.55492 0.0
C630 C 0.1176 0.4421 0.5966 0.0
C631 C 0.03664 0.41282 0.64107 0.0
O632 O 0.15699 0.38125 0.61395 0.0
O633 O 0.08243 0.32064 0.60523 0.0
O634 O 0.09129 0.37584 0.68046 0.0
O635 O 0.09027 0.37323 0.556 0.0
O636 O 0.11175 0.44015 0.62201 0.0
O637 O 0.03339 0.38939 0.62997 0.0
O638 O 0.12076 0.42138 0.58116 0.0
O639 O 0.04995 0.36643 0.57611 0.0
O640 O 0.05978 0.42186 0.64902 0.0
O641 O 0.1241 0.33481 0.59242 0.0
O642 O 0.14232 0.39492 0.65475 0.0
O643 O 0.06698 0.34372 0.6582 0.0
Sc644 Sc 0.5425 0.66622 0.65969 0.0
Sc645 Sc 0.59055 0.62934 0.6987 0.0
Sc646 Sc 0.59543 0.6321 0.62703 0.0
O647 O 0.57631 0.64263 0.66191 0.0
C648 C 0.5354 0.63038 0.60499 0.0
C649 C 0.5258 0.61875 0.70104 0.0
C650 C 0.60039 0.57689 0.66105 0.0
C651 C 0.57034 0.68871 0.71491 0.0
C652 C 0.58098 0.69528 0.61741 0.0
C653 C 0.64556 0.64503 0.66721 0.0
O654 O 0.52756 0.64869 0.62163 0.0
O655 O 0.54994 0.61615 0.71059 0.0
O656 O 0.60008 0.59042 0.63896 0.0
O657 O 0.55236 0.68903 0.69615 0.0
O658 O 0.59222 0.67285 0.61087 0.0
O659 O 0.63215 0.64077 0.68912 0.0
O660 O 0.56396 0.69743 0.63692 0.0
O661 O 0.5866 0.66893 0.71797 0.0
O662 O 0.63494 0.64304 0.64347 0.0
O663 O 0.51985 0.63556 0.68205 0.0
O664 O 0.55857 0.61933 0.60695 0.0
O665 O 0.59743 0.58783 0.68449 0.0
Sc666 Sc 0.3265 0.3629 0.38097 0.0
Sc667 Sc 0.36042 0.38561 0.32407 0.0
Sc668 Sc 0.37731 0.32355 0.35285 0.0
O669 O 0.35464 0.35711 0.35249 0.0
C670 C 0.37509 0.33548 0.41496 0.0
C671 C 0.34785 0.42136 0.37774 0.0
C672 C 0.41978 0.37154 0.33706 0.0
C673 C 0.29873 0.38757 0.32651 0.0
C674 C 0.31724 0.30192 0.37002 0.0
C675 C 0.37112 0.32934 0.29095 0.0
O676 O 0.35011 0.34259 0.41313 0.0
O677 O 0.34948 0.41939 0.35169 0.0
O678 O 0.41385 0.34597 0.33839 0.0
O679 O 0.29979 0.38462 0.35251 0.0
O680 O 0.34298 0.29806 0.36767 0.0
O681 O 0.37246 0.35546 0.293 0.0
O682 O 0.30693 0.32558 0.36944 0.0
O683 O 0.31882 0.38196 0.31119 0.0
O684 O 0.36609 0.3142 0.31149 0.0
O685 O 0.3456 0.40043 0.39289 0.0
O686 O 0.38988 0.3317 0.394 0.0
O687 O 0.40168 0.38991 0.3371 0.0
H688 H 0.10222 0.17778 0.36265 0.0
H689 H 0.11431 0.23141 0.20976 0.0
H690 H 0.03666 0.20869 0.3126 0.0
H691 H 0.15961 0.16103 0.23661 0.0
H692 H 0.09915 0.23846 0.25663 0.0
H693 H 0.13354 0.18343 0.32353 0.0
C694 C 0.09442 0.18551 0.34343 0.0
C695 C 0.06673 0.19228 0.34061 0.0
C696 C 0.11306 0.22195 0.2523 0.0
C697 C 0.10245 0.20025 0.29696 0.0
C698 C 0.12194 0.218 0.22558 0.0
C699 C 0.13699 0.19466 0.21899 0.0
C700 C 0.11952 0.20258 0.27236 0.0
C701 C 0.14699 0.17861 0.24062 0.0
C702 C 0.1123 0.18903 0.3214 0.0
C703 C 0.05767 0.20266 0.31551 0.0
N704 N 0.13731 0.18231 0.26637 0.0
N705 N 0.07554 0.20648 0.29474 0.0
H706 H 0.01867 0.7555 0.4921 0.0
H707 H 0.13663 0.85471 0.45181 0.0
H708 H 0.06559 0.79467 0.55645 0.0
H709 H 0.0604 0.85172 0.40701 0.0
H710 H 0.1134 0.83315 0.49093 0.0
H711 H 0.03649 0.78928 0.45971 0.0
C712 C 0.03271 0.77129 0.49936 0.0
C713 C 0.04083 0.77233 0.52683 0.0
C714 C 0.10174 0.83788 0.4727 0.0
C715 C 0.06145 0.81076 0.49001 0.0
C716 C 0.11492 0.85024 0.45046 0.0
C717 C 0.10057 0.85434 0.42592 0.0
C718 C 0.07431 0.82939 0.47 0.0
C719 C 0.07244 0.84823 0.42529 0.0
C720 C 0.04267 0.79067 0.48099 0.0
C721 C 0.05887 0.79331 0.53534 0.0
N722 N 0.06038 0.8355 0.44675 0.0
N723 N 0.06903 0.81153 0.51684 0.0
H724 H 0.43533 0.83092 0.80853 0.0
H725 H 0.41935 0.93025 0.68032 0.0
H726 H 0.46858 0.91328 0.80735 0.0
H727 H 0.41368 0.84207 0.67494 0.0
H728 H 0.4294 0.92639 0.72921 0.0
H729 H 0.41838 0.83722 0.76202 0.0
C730 C 0.43875 0.85048 0.79863 0.0
C731 C 0.45362 0.87154 0.81169 0.0
C732 C 0.42586 0.90793 0.71729 0.0
C733 C 0.43439 0.87875 0.75846 0.0
C734 C 0.42009 0.91008 0.68943 0.0
C735 C 0.41582 0.8864 0.67351 0.0
C736 C 0.42702 0.88196 0.72935 0.0
C737 C 0.41708 0.86083 0.68639 0.0
C738 C 0.4292 0.85397 0.77203 0.0
C739 C 0.45737 0.89646 0.7979 0.0
N740 N 0.42253 0.85929 0.71359 0.0
N741 N 0.44793 0.89935 0.7719 0.0
H742 H 0.50691 0.12911 0.06805 0.0
H743 H 0.37269 0.08648 0.98501 0.0
H744 H 0.43265 0.17568 0.06779 0.0
H745 H 0.4527 0.07712 0.94927 0.0
H746 H 0.39415 0.10498 0.02632 0.0
H747 H 0.4865 0.09784 0.03376 0.0
C748 C 0.48628 0.13262 0.06089 0.0
C749 C 0.47146 0.15511 0.07044 0.0
C750 C 0.40696 0.09833 0.00959 0.0
C751 C 0.44794 0.11914 0.03233 0.0
C752 C 0.3948 0.08758 0.98602 0.0
C753 C 0.41086 0.08102 0.9632 0.0
C754 C 0.43538 0.10213 0.01055 0.0
C755 C 0.43946 0.08247 0.96611 0.0
C756 C 0.47472 0.1148 0.04147 0.0
C757 C 0.44484 0.15878 0.06065 0.0
N758 N 0.45086 0.09333 0.98923 0.0
N759 N 0.43386 0.14088 0.04222 0.0
H760 H 0.00764 0.77156 0.17303 0.0
H761 H 0.13874 0.7856 0.26778 0.0
H762 H 0.06885 0.70884 0.17535 0.0
H763 H 0.09572 0.85545 0.23626 0.0
H764 H 0.1129 0.75605 0.23614 0.0
H765 H 0.03781 0.80131 0.20038 0.0
C766 C 0.02728 0.76394 0.1796 0.0
C767 C 0.0358 0.73775 0.17197 0.0
C768 C 0.10949 0.77791 0.23588 0.0
C769 C 0.07044 0.77166 0.20292 0.0
C770 C 0.12432 0.7948 0.25379 0.0
C771 C 0.11925 0.82301 0.25481 0.0
C772 C 0.08911 0.78928 0.21932 0.0
C773 C 0.10034 0.83383 0.23621 0.0
C774 C 0.04461 0.78102 0.19489 0.0
C775 C 0.06156 0.72895 0.1808 0.0
N776 N 0.08557 0.81687 0.21958 0.0
N777 N 0.07797 0.74585 0.19592 0.0
H778 H 0.4423 0.73841 0.4024 0.0
H779 H 0.45005 0.86856 0.49955 0.0
H780 H 0.51446 0.78923 0.41307 0.0
H781 H 0.37586 0.82182 0.48545 0.0
H782 H 0.4716 0.84449 0.46177 0.0
H783 H 0.41575 0.77232 0.4273 0.0
C784 C 0.45253 0.75677 0.40989 0.0
C785 C 0.48071 0.76082 0.40611 0.0
C786 C 0.45047 0.83974 0.46657 0.0
C787 C 0.45047 0.79971 0.43449 0.0
C788 C 0.43815 0.85354 0.48809 0.0
C789 C 0.41132 0.84679 0.49584 0.0
C790 C 0.43605 0.81862 0.45306 0.0
C791 C 0.39666 0.82749 0.48016 0.0
C792 C 0.43733 0.77619 0.42397 0.0
C793 C 0.49284 0.78512 0.41587 0.0
N794 N 0.40942 0.81361 0.45982 0.0
N795 N 0.47771 0.80351 0.42986 0.0
H796 H 0.48848 0.25507 0.74787 0.0
H797 H 0.3846 0.13007 0.76374 0.0
H798 H 0.43708 0.22728 0.68113 0.0
H799 H 0.41962 0.17483 0.83203 0.0
H800 H 0.40171 0.16608 0.7329 0.0
H801 H 0.4616 0.22682 0.77921 0.0
C802 C 0.47128 0.2433 0.73989 0.0
C803 C 0.46516 0.24335 0.71184 0.0
C804 C 0.40531 0.16806 0.75471 0.0
C805 C 0.43458 0.21044 0.74749 0.0
C806 C 0.39559 0.14751 0.77228 0.0
C807 C 0.40111 0.14908 0.80046 0.0
C808 C 0.42071 0.19017 0.76545 0.0
C809 C 0.41531 0.17231 0.8104 0.0
C810 C 0.45591 0.22715 0.75777 0.0
C811 C 0.44251 0.22783 0.70263 0.0
N812 N 0.42483 0.19168 0.79294 0.0
N813 N 0.42832 0.2116 0.72033 0.0
H814 H -0.00149 0.25219 0.94766 0.0
H815 H 0.06839 0.13407 0.03194 0.0
H816 H -0.00525 0.16709 0.92328 0.0
H817 H 0.05103 0.21317 0.06706 0.0
H818 H 0.03948 0.14521 0.9928 0.0
H819 H 0.01609 0.23823 0.99236 0.0
C820 C 0.00121 0.23061 0.95172 0.0
C821 C -0.00444 0.21085 0.93149 0.0
C822 C 0.04173 0.16 0.00925 0.0
C823 C 0.01571 0.19479 0.98248 0.0
C824 C 0.05829 0.15366 0.03155 0.0
C825 C 0.06249 0.17288 0.05258 0.0
C826 C 0.0297 0.18591 0.00773 0.0
C827 C 0.04857 0.1978 0.05118 0.0
C828 C 0.01111 0.22263 0.97728 0.0
C829 C -0.00088 0.18313 0.93808 0.0
N830 N 0.03316 0.2038 0.0289 0.0
N831 N 0.00928 0.17596 0.96284 0.0
H832 H 0.34862 0.06953 0.14595 0.0
H833 H 0.21662 0.15124 0.17296 0.0
H834 H 0.34284 0.13113 0.20906 0.0
H835 H 0.23026 0.11098 0.09564 0.0
H836 H 0.26523 0.14894 0.18302 0.0
H837 H 0.30931 0.08942 0.12284 0.0
C838 C 0.33944 0.08762 0.15464 0.0
C839 C 0.34831 0.09812 0.17998 0.0
C840 C 0.25781 0.14091 0.16364 0.0
C841 C 0.30324 0.12068 0.15388 0.0
C842 C 0.23001 0.14198 0.15804 0.0
C843 C 0.21948 0.13064 0.13378 0.0
C844 C 0.2752 0.12769 0.14521 0.0
C845 C 0.23768 0.11956 0.11478 0.0
C846 C 0.31702 0.099 0.1414 0.0
C847 C 0.33615 0.12192 0.18996 0.0
N848 N 0.26469 0.11775 0.12118 0.0
N849 N 0.31377 0.13202 0.17723 0.0
H850 H 0.18895 0.09566 0.41406 0.0
H851 H 0.15674 0.9892 0.3262 0.0
H852 H 0.1078 0.08437 0.44684 0.0
H853 H 0.1149 0.96107 0.39874 0.0
H854 H 0.15553 0.03616 0.34412 0.0
H855 H 0.17966 0.05897 0.38112 0.0
C856 C 0.16897 0.0858 0.41389 0.0
C857 C 0.14922 0.09267 0.43334 0.0
C858 C 0.14638 0.01967 0.35587 0.0
C859 C 0.1385 0.05083 0.39595 0.0
C860 C 0.14692 0.99299 0.34566 0.0
C861 C 0.13644 0.97128 0.36139 0.0
C862 C 0.13503 0.02447 0.38175 0.0
C863 C 0.12376 0.97722 0.38634 0.0
C864 C 0.16357 0.0651 0.39492 0.0
C865 C 0.12358 0.07951 0.43221 0.0
N866 N 0.12355 0.00331 0.39586 0.0
N867 N 0.11921 0.05859 0.4143 0.0
H868 H 0.19179 0.94201 0.72751 0.0
H869 H 0.31956 0.91879 0.66423 0.0
H870 H 0.17576 0.9759 0.64771 0.0
H871 H 0.26959 0.90036 0.59341 0.0
H872 H 0.27823 0.93146 0.68941 0.0
H873 H 0.23247 0.91937 0.70869 0.0
C874 C 0.19678 0.94454 0.70607 0.0
C875 C 0.18074 0.96107 0.68915 0.0
C876 C 0.27634 0.92403 0.66858 0.0
C877 C 0.22641 0.93515 0.66763 0.0
C878 C 0.29986 0.91702 0.65414 0.0
C879 C 0.29795 0.90862 0.62667 0.0
C880 C 0.25095 0.92326 0.65515 0.0
C881 C 0.27196 0.90664 0.61457 0.0
C882 C 0.21993 0.93178 0.69544 0.0
C883 C 0.18787 0.96366 0.6615 0.0
N884 N 0.24953 0.91452 0.62871 0.0
N885 N 0.21006 0.95067 0.65156 0.0
H886 H 0.25909 0.92827 0.99046 0.0
H887 H 0.28327 0.01684 0.85704 0.0
H888 H 0.19323 0.94568 0.93428 0.0
H889 H 0.34732 0.9848 0.90799 0.0
H890 H 0.25005 0.98736 0.88083 0.0
H891 H 0.29134 0.94777 0.95837 0.0
C892 C 0.25132 0.93639 0.97139 0.0
C893 C 0.22332 0.93527 0.9651 0.0
C894 C 0.2715 0.98616 0.88621 0.0
C895 C 0.26057 0.95761 0.92779 0.0
C896 C 0.2905 0.00262 0.87234 0.0
C897 C 0.31795 0.00323 0.88079 0.0
C898 C 0.28023 0.97049 0.90859 0.0
C899 C 0.32628 0.98493 0.90103 0.0
C900 C 0.26987 0.94733 0.95288 0.0
C901 C 0.21462 0.9463 0.94005 0.0
N902 N 0.30741 0.96965 0.91457 0.0
N903 N 0.23322 0.95709 0.92225 0.0
H904 H 0.30431 0.01169 0.21477 0.0
H905 H 0.21163 0.91142 0.25925 0.0
H906 H 0.28052 0.05591 0.28715 0.0
H907 H 0.22735 0.94646 0.33912 0.0
H908 H 0.2372 0.94907 0.23863 0.0
H909 H 0.27535 0.97337 0.22867 0.0
C910 C 0.29218 0.01361 0.2332 0.0
C911 C 0.29471 0.03692 0.24987 0.0
C912 C 0.23572 0.94823 0.2607 0.0
C913 C 0.26161 0.99302 0.26615 0.0
C914 C 0.22109 0.92663 0.27253 0.0
C915 C 0.21737 0.92562 0.30101 0.0
C916 C 0.24682 0.969 0.27747 0.0
C917 C 0.22986 0.94616 0.31712 0.0
C918 C 0.27562 0.99167 0.24116 0.0
C919 C 0.27887 0.03837 0.27363 0.0
N920 N 0.24376 0.96715 0.30508 0.0
N921 N 0.26334 0.01642 0.28136 0.0
H922 H 0.28042 0.09049 0.49298 0.0
H923 H 0.30371 0.93073 0.51212 0.0
H924 H 0.21498 0.03335 0.51139 0.0
H925 H 0.36355 0.99191 0.53668 0.0
H926 H 0.27358 0.96716 0.49681 0.0
H927 H 0.31298 0.05307 0.49525 0.0
C928 C 0.27287 0.07001 0.49731 0.0
C929 C 0.24501 0.06499 0.50235 0.0
C930 C 0.29353 0.97249 0.50508 0.0
C931 C 0.28209 0.0222 0.50442 0.0
C932 C 0.31091 0.95176 0.51356 0.0
C933 C 0.33607 0.95834 0.52609 0.0
C934 C 0.3016 -0.00012 0.50871 0.0
C935 C 0.34419 0.98597 0.52746 0.0
C936 C 0.29147 0.04875 0.49857 0.0
C937 C 0.23634 0.03809 0.50776 0.0
N938 N 0.32687 0.00579 0.5191 0.0
N939 N 0.25488 0.01761 0.50866 0.0
H940 H 0.15861 0.09749 0.7471 0.0
H941 H 0.25723 0.06949 0.87365 0.0
H942 H 0.16357 0.01989 0.78872 0.0
H943 H 0.28277 0.11999 0.80566 0.0
H944 H 0.21304 0.06217 0.85127 0.0
H945 H 0.19547 0.11555 0.77672 0.0
C946 C 0.16729 0.08439 0.76263 0.0
C947 C 0.15845 0.05707 0.76532 0.0
C948 C 0.22818 0.07529 0.84158 0.0
C949 C 0.1996 0.07771 0.79941 0.0
C950 C 0.25333 0.07966 0.85437 0.0
C951 C 0.2739 0.09498 0.84121 0.0
C952 C 0.22347 0.08662 0.8157 0.0
C953 C 0.26761 0.10766 0.81625 0.0
C954 C 0.18818 0.09469 0.77944 0.0
C955 C 0.17018 0.04092 0.78575 0.0
N956 N 0.24296 0.10296 0.8041 0.0
N957 N 0.19016 0.05152 0.80209 0.0
H958 H 0.18325 0.92551 0.1026 0.0
H959 H 0.11441 0.06038 0.05996 0.0
H960 H 0.13739 0.92959 0.02727 0.0
H961 H 0.12534 0.0389 0.14495 0.0
H962 H 0.11919 0.01213 0.04757 0.0
H963 H 0.15965 0.96598 0.1192 0.0
C964 C 0.16788 0.93479 0.08973 0.0
C965 C 0.16242 0.92452 0.06347 0.0
C966 C 0.11992 0.01793 0.06897 0.0
C967 C 0.1358 0.97115 0.08198 0.0
C968 C 0.11732 0.04549 0.07607 0.0
C969 C 0.1202 0.05384 0.10348 0.0
C970 C 0.12601 -0.00126 0.08936 0.0
C971 C 0.12347 0.03354 0.1235 0.0
C972 C 0.1543 0.95778 0.09924 0.0
C973 C 0.14219 0.93705 0.04763 0.0
N974 N 0.12694 0.00704 0.11599 0.0
N975 N 0.13003 0.9602 0.05687 0.0
H976 H 0.24932 0.35584 0.07312 0.0
H977 H 0.1832 0.20711 0.04935 0.0
H978 H 0.26591 0.30376 0.00368 0.0
H979 H 0.16201 0.25838 0.1181 0.0
H980 H 0.21484 0.24223 0.03374 0.0
H981 H 0.21928 0.31998 0.09167 0.0
C982 C 0.24688 0.33681 0.06189 0.0
C983 C 0.26001 0.33292 0.03666 0.0
C984 C 0.20331 0.24591 0.05224 0.0
C985 C 0.22556 0.292 0.0577 0.0
C986 C 0.18512 0.22581 0.06121 0.0
C987 C 0.16984 0.22972 0.08515 0.0
C988 C 0.20643 0.27029 0.06722 0.0
C989 C 0.17329 0.2545 0.09949 0.0
C990 C 0.22962 0.31643 0.07245 0.0
C991 C 0.25605 0.30785 0.02305 0.0
N992 N 0.19128 0.27389 0.09031 0.0
N993 N 0.23912 0.28845 0.03369 0.0
H994 H 0.71362 0.16164 0.94966 0.0
H995 H 0.73298 0.31559 0.89772 0.0
H996 H 0.75971 0.2246 0.99238 0.0
H997 H 0.66903 0.2611 0.86833 0.0
H998 H 0.75265 0.27766 0.92307 0.0
H999 H 0.70542 0.19394 0.9123 0.0
C1000 C 0.72206 0.18221 0.95118 0.0
C1001 C 0.73693 0.19058 0.97446 0.0
C1002 C 0.73462 0.27389 0.91061 0.0
C1003 C 0.72813 0.22737 0.93152 0.0
C1004 C 0.72352 0.2955 0.8958 0.0
C1005 C 0.69875 0.2918 0.88151 0.0
C1006 C 0.721 0.24841 0.91095 0.0
C1007 C 0.68777 0.2651 0.87961 0.0
C1008 C 0.71747 0.20057 0.9298 0.0
C1009 C 0.74764 0.2174 0.97513 0.0
N1010 N 0.69862 0.24454 0.89468 0.0
N1011 N 0.74296 0.23483 0.95405 0.0
H1012 H 0.08256 0.46112 0.23485 0.0
H1013 H 0.93801 0.44395 0.16677 0.0
H1014 H 0.05027 0.52737 0.18689 0.0
H1015 H -0.00234 0.38017 0.15927 0.0
H1016 H 0.9741 0.47516 0.18387 0.0
H1017 H 0.04611 0.43096 0.21719 0.0
C1018 C 0.06763 0.46934 0.22077 0.0
C1019 C 0.06932 0.49666 0.21217 0.0
C1020 C 0.97915 0.45433 0.1784 0.0
C1021 C 0.02767 0.46257 0.19244 0.0
C1022 C 0.95869 0.43655 0.16885 0.0
C1023 C 0.96505 0.40957 0.16163 0.0
C1024 C 0.00581 0.44469 0.1815 0.0
C1025 C 0.99209 0.4009 0.1645 0.0
C1026 C 0.04705 0.45212 0.21064 0.0
C1027 C 0.04964 0.50634 0.19381 0.0
N1028 N 0.01151 0.41836 0.17458 0.0
N1029 N 0.02933 0.48931 0.18469 0.0
H1030 H 0.75761 0.7492 0.49063 0.0
H1031 H 0.80183 0.69118 0.3534 0.0
H1032 H 0.75305 0.80173 0.42 0.0
H1033 H 0.75533 0.64141 0.41 0.0
H1034 H 0.78226 0.73213 0.374 0.0
H1035 H 0.75684 0.70928 0.46033 0.0
C1036 C 0.75639 0.75227 0.4687 0.0
C1037 C 0.75574 0.77869 0.45771 0.0
C1038 C 0.77573 0.71217 0.38129 0.0
C1039 C 0.75504 0.73324 0.42295 0.0
C1040 C 0.78681 0.68874 0.36948 0.0
C1041 C 0.78108 0.6628 0.38067 0.0
C1042 C 0.75931 0.70953 0.40465 0.0
C1043 C 0.76103 0.66097 0.40117 0.0
C1044 C 0.75561 0.72952 0.45144 0.0
C1045 C 0.75375 0.7816 0.42918 0.0
N1046 N 0.75163 0.68407 0.41319 0.0
N1047 N 0.7541 0.75911 0.41266 0.0
H1048 H 0.90237 0.08723 0.17415 0.0
H1049 H 0.05975 0.10778 0.20926 0.0
H1050 H 0.94219 0.04984 0.24342 0.0
H1051 H 0.018 0.15629 0.14882 0.0
H1052 H 0.01589 0.08922 0.2243 0.0
H1053 H 0.94323 0.11545 0.16665 0.0
C1054 C 0.91958 0.08508 0.18793 0.0
C1055 C 0.91896 0.06576 0.2092 0.0
C1056 C 0.01622 0.10411 0.20791 0.0
C1057 C 0.96582 0.09799 0.20062 0.0
C1058 C 0.0413 0.11463 0.19923 0.0
C1059 C 0.04255 0.13325 0.17742 0.0
C1060 C 0.99217 0.11189 0.19444 0.0
C1061 C 0.01796 0.14181 0.16556 0.0
C1062 C 0.94289 0.10128 0.18367 0.0
C1063 C 0.94179 0.06419 0.22657 0.0
N1064 N -0.00625 0.13073 0.17394 0.0
N1065 N 0.96438 0.07983 0.22169 0.0
H1066 H 0.34243 0.66665 0.51201 0.0
H1067 H 0.40169 0.77543 0.58103 0.0
H1068 H 0.27925 0.66897 0.57342 0.0
H1069 H 0.3169 0.79508 0.59399 0.0
H1070 H 0.38824 0.72771 0.57272 0.0
H1071 H 0.36567 0.70501 0.53506 0.0
C1072 C 0.33372 0.67492 0.53058 0.0
C1073 C 0.30867 0.665 0.54055 0.0
C1074 C 0.3727 0.74246 0.57775 0.0
C1075 C 0.33508 0.70855 0.56703 0.0
C1076 C 0.38032 0.76962 0.5828 0.0
C1077 C 0.36025 0.78937 0.58757 0.0
C1078 C 0.3449 0.73511 0.57773 0.0
C1079 C 0.33294 0.78061 0.58981 0.0
C1080 C 0.34712 0.6966 0.5439 0.0
C1081 C 0.29832 0.67629 0.5648 0.0
N1082 N 0.32601 0.7541 0.58458 0.0
N1083 N 0.31124 0.69794 0.57685 0.0
H1084 H 0.07633 0.55008 0.30228 0.0
H1085 H 0.94945 0.63463 0.35621 0.0
H1086 H 0.03859 0.61545 0.25725 0.0
H1087 H 0.95415 0.54701 0.36668 0.0
H1088 H -0.006 0.63447 0.33408 0.0
H1089 H 0.04256 0.55601 0.33885 0.0
C1090 C 0.06143 0.56618 0.30045 0.0
C1091 C 0.0601 0.58226 0.27668 0.0
C1092 C 0.98549 0.61541 0.3418 0.0
C1093 C 0.02197 0.58925 0.3184 0.0
C1094 C 0.96008 0.61539 0.3545 0.0
C1095 C 0.94757 0.59061 0.36261 0.0
C1096 C -0.00124 0.59059 0.33753 0.0
C1097 C 0.96276 0.56651 0.36036 0.0
C1098 C 0.04217 0.56939 0.32121 0.0
C1099 C 0.04021 0.60257 0.27517 0.0
N1100 N 0.98746 0.56702 0.34757 0.0
N1101 N 0.02186 0.60546 0.29575 0.0
H1102 H 0.42944 0.35541 0.78978 0.0
H1103 H 0.53631 0.42012 0.88975 0.0
H1104 H 0.41372 0.43155 0.8315 0.0
H1105 H 0.53145 0.33302 0.87468 0.0
H1106 H 0.48952 0.42429 0.87263 0.0
H1107 H 0.46548 0.34594 0.8231 0.0
C1108 C 0.43341 0.36998 0.80612 0.0
C1109 C 0.41888 0.39442 0.80771 0.0
C1110 C 0.49851 0.40418 0.8737 0.0
C1111 C 0.46016 0.38395 0.84568 0.0
C1112 C 0.5252 0.40178 0.88358 0.0
C1113 C 0.53813 0.37632 0.88283 0.0
C1114 C 0.48497 0.38105 0.86273 0.0
C1115 C 0.52258 0.35321 0.87486 0.0
C1116 C 0.45383 0.36451 0.82525 0.0
C1117 C 0.42462 0.41251 0.82944 0.0
N1118 N 0.49708 0.35622 0.86447 0.0
N1119 N 0.44519 0.40717 0.8473 0.0
H1120 H -0.00543 0.81373 0.66067 0.0
H1121 H 0.90795 0.78251 0.79592 0.0
H1122 H 0.96505 0.73351 0.68417 0.0
H1123 H 0.92895 0.8646 0.77007 0.0
H1124 H 0.92947 0.76458 0.75499 0.0
H1125 H 0.97236 0.83308 0.70117 0.0
C1126 C 0.98361 0.80019 0.67445 0.0
C1127 C 0.98156 0.77199 0.66904 0.0
C1128 C 0.92929 0.78654 0.75811 0.0
C1129 C 0.95602 0.79393 0.71509 0.0
C1130 C 0.91694 0.79681 0.7815 0.0
C1131 C 0.9167 0.82511 0.78647 0.0
C1132 C 0.94176 0.80461 0.73951 0.0
C1133 C 0.92855 0.84264 0.76695 0.0
C1134 C 0.97081 0.81125 0.69743 0.0
C1135 C 0.96707 0.75538 0.68748 0.0
N1136 N 0.94081 0.83209 0.74437 0.0
N1137 N 0.95485 0.76659 0.70961 0.0
H1138 H 0.99115 0.13427 0.46337 0.0
H1139 H 0.84166 0.13972 0.50289 0.0
H1140 H 0.93289 0.17248 0.4095 0.0
H1141 H 0.89164 0.07205 0.5271 0.0
H1142 H 0.87117 0.14703 0.46317 0.0
H1143 H 0.95383 0.10725 0.48333 0.0
C1144 C 0.97059 0.13677 0.45555 0.0
C1145 C 0.96507 0.15609 0.43519 0.0
C1146 C 0.87505 0.12981 0.47648 0.0
C1147 C 0.9223 0.12537 0.45791 0.0
C1148 C 0.85795 0.12545 0.49892 0.0
C1149 C 0.86454 0.10546 0.51819 0.0
C1150 C 0.89913 0.11457 0.47413 0.0
C1151 C 0.88614 0.08778 0.51258 0.0
C1152 C 0.94932 0.12114 0.46672 0.0
C1153 C 0.93807 0.15813 0.42549 0.0
N1154 N 0.90332 0.09332 0.49153 0.0
N1155 N 0.91759 0.14343 0.43736 0.0
H1156 H 0.54279 0.21291 0.1995 0.0
H1157 H 0.62344 0.11284 0.29774 0.0
H1158 H 0.58894 0.14349 0.17152 0.0
H1159 H 0.58372 0.18598 0.32616 0.0
H1160 H 0.61617 0.12748 0.2507 0.0
H1161 H 0.56276 0.20742 0.24505 0.0
C1162 C 0.55737 0.19675 0.2028 0.0
C1163 C 0.5637 0.17825 0.18178 0.0
C1164 C 0.60926 0.14051 0.26719 0.0
C1165 C 0.58645 0.17178 0.23386 0.0
C1166 C 0.61332 0.13208 0.29408 0.0
C1167 C 0.60369 0.14794 0.3159 0.0
C1168 C 0.59512 0.16479 0.26201 0.0
C1169 C 0.59122 0.17296 0.30993 0.0
C1170 C 0.56876 0.19362 0.22882 0.0
C1171 C 0.58297 0.15791 0.18721 0.0
N1172 N 0.58691 0.18042 0.28352 0.0
N1173 N 0.59336 0.155 0.21277 0.0
H1174 H 0.46034 0.86639 0.95591 0.0
H1175 H 0.56814 0.92966 0.06167 0.0
H1176 H 0.531 0.91567 0.93501 0.0
H1177 H 0.52068 0.85648 0.07819 0.0
H1178 H 0.54132 0.9368 0.02021 0.0
H1179 H 0.47035 0.87425 0.00469 0.0
C1180 C 0.47749 0.87949 0.96162 0.0
C1181 C 0.49514 0.89018 0.94162 0.0
C1182 C 0.53643 0.91945 0.03316 0.0
C1183 C 0.50641 0.89937 -0.00314 0.0
C1184 C 0.55171 0.91534 0.05679 0.0
C1185 C 0.54715 0.89196 0.07283 0.0
C1186 C 0.51667 0.89988 0.02533 0.0
C1187 C 0.52512 0.8745 0.06605 0.0
C1188 C 0.48321 0.88384 0.98936 0.0
C1189 C 0.51715 0.90682 0.94991 0.0
N1190 N 0.51103 0.87845 0.04234 0.0
N1191 N 0.52227 0.91077 0.97694 0.0
H1192 H 0.91272 0.20546 0.82792 0.0
H1193 H 0.91506 0.18714 0.66546 0.0
H1194 H 0.95118 0.26428 0.77421 0.0
H1195 H 0.88504 0.12586 0.72191 0.0
H1196 H 0.92498 0.21758 0.70404 0.0
H1197 H 0.89768 0.17894 0.78832 0.0
C1198 C 0.91771 0.21296 0.80766 0.0
C1199 C 0.93337 0.23695 0.80427 0.0
C1200 C 0.91622 0.19748 0.70796 0.0
C1201 C 0.91665 0.20635 0.75872 0.0
C1202 C 0.91059 0.18 0.68595 0.0
C1203 C 0.89924 0.15375 0.6904 0.0
C1204 C 0.91038 0.18877 0.73464 0.0
C1205 C 0.89391 0.14578 0.71743 0.0
C1206 C 0.90923 0.19773 0.78504 0.0
C1207 C 0.93907 0.24589 0.77763 0.0
N1208 N 0.8995 0.16322 0.73848 0.0
N1209 N 0.93096 0.23037 0.75577 0.0
H1210 H 0.49202 0.21158 0.57626 0.0
H1211 H 0.54423 0.12714 0.47907 0.0
H1212 H 0.56129 0.19071 0.62678 0.0
H1213 H 0.6206 0.14445 0.52046 0.0
H1214 H 0.51963 0.13999 0.52033 0.0
H1215 H 0.50693 0.17857 0.54234 0.0
C1216 C 0.50999 0.19958 0.58055 0.0
C1217 C 0.52577 0.20447 0.60409 0.0
C1218 C 0.54173 0.14105 0.52045 0.0
C1219 C 0.54292 0.16622 0.56545 0.0
C1220 C 0.55582 0.13349 0.49699 0.0
C1221 C 0.58446 0.13567 0.49614 0.0
C1222 C 0.55642 0.15138 0.54299 0.0
C1223 C 0.5985 0.14301 0.52013 0.0
C1224 C 0.51844 0.18045 0.56121 0.0
C1225 C 0.54879 0.18812 0.60861 0.0
N1226 N 0.58428 0.15117 0.54249 0.0
N1227 N 0.557 0.17019 0.58918 0.0
H1228 H 0.59485 0.68432 0.28661 0.0
H1229 H 0.63189 0.84076 0.25445 0.0
H1230 H 0.59392 0.74881 0.34721 0.0
H1231 H 0.61175 0.77957 0.19349 0.0
H1232 H 0.63126 0.80489 0.28957 0.0
H1233 H 0.6151 0.71643 0.25397 0.0
C1234 C 0.59949 0.70503 0.29332 0.0
C1235 C 0.592 0.71401 0.31955 0.0
C1236 C 0.62741 0.79931 0.26842 0.0
C1237 C 0.6149 0.75098 0.28207 0.0
C1238 C 0.62784 0.81974 0.24837 0.0
C1239 C 0.6213 0.81323 0.22109 0.0
C1240 C 0.62068 0.77219 0.26106 0.0
C1241 C 0.61633 0.78562 0.21437 0.0
C1242 C 0.61091 0.72342 0.27457 0.0
C1243 C 0.59882 0.74107 0.32705 0.0
N1244 N 0.61588 0.7662 0.23422 0.0
N1245 N 0.60944 0.75872 0.30827 0.0
H1246 H 0.92487 0.72325 0.0691 0.0
H1247 H 0.94641 0.84225 0.95886 0.0
H1248 H 0.00187 0.76507 0.0553 0.0
H1249 H 0.86891 0.80131 0.97249 0.0
H1250 H 0.96566 0.81761 -0.00241 0.0
H1251 H 0.90308 0.75391 0.03637 0.0
C1252 C 0.93722 0.73885 0.05915 0.0
C1253 C 0.9653 0.74147 0.06481 0.0
C1254 C 0.94435 0.81422 0.99235 0.0
C1255 C 0.94039 0.77682 0.02746 0.0
C1256 C 0.93329 0.82841 0.97029 0.0
C1257 C 0.90605 0.82367 0.96219 0.0
C1258 C 0.9282 0.79489 0.00637 0.0
C1259 C 0.89001 0.80563 0.97795 0.0
C1260 C 0.92472 0.75644 0.04056 0.0
C1261 C 0.98021 0.76218 0.05144 0.0
N1262 N 0.90142 0.79161 -0.00096 0.0
N1263 N 0.96761 0.77898 0.03335 0.0
H1264 H 0.65781 0.91306 0.78554 0.0
H1265 H 0.81531 0.87244 0.78276 0.0
H1266 H 0.71081 0.92703 0.71637 0.0
H1267 H 0.76477 0.86705 0.85491 0.0
H1268 H 0.77535 0.88514 0.75602 0.0
H1269 H 0.69478 0.88944 0.80883 0.0
C1270 C 0.67719 0.91099 0.77514 0.0
C1271 C 0.68133 0.92233 0.74906 0.0
C1272 C 0.77293 0.88095 0.77765 0.0
C1273 C 0.72384 0.89528 0.77575 0.0
C1274 C 0.79576 0.87363 0.79299 0.0
C1275 C 0.79356 0.8691 0.82132 0.0
C1276 C 0.74761 0.88386 0.79064 0.0
C1277 C 0.76754 0.87058 0.83322 0.0
C1278 C 0.6983 0.89748 0.78848 0.0
C1279 C 0.70679 0.91879 0.73654 0.0
N1280 N 0.74565 0.87815 0.81789 0.0
N1281 N 0.72716 0.90576 0.75009 0.0
H1282 H 0.81643 0.86511 0.57185 0.0
H1283 H 0.82177 0.02443 0.55267 0.0
H1284 H 0.8156 0.90361 0.49252 0.0
H1285 H 0.85286 0.98692 0.62619 0.0
H1286 H 0.82039 0.97981 0.53054 0.0
H1287 H 0.83271 0.90823 0.59216 0.0
C1288 C 0.82041 0.88247 0.55861 0.0
C1289 C 0.81433 0.88096 0.53054 0.0
C1290 C 0.82771 0.98128 0.55145 0.0
C1291 C 0.83211 0.93042 0.5537 0.0
C1292 C 0.82819 0.00675 0.56427 0.0
C1293 C 0.83703 0.0094 0.59154 0.0
C1294 C 0.83566 0.95801 0.56604 0.0
C1295 C 0.84565 0.98577 0.60523 0.0
C1296 C 0.82959 0.90708 0.57022 0.0
C1297 C 0.81991 0.90394 0.51427 0.0
N1298 N 0.84439 0.96095 0.59246 0.0
N1299 N 0.82789 0.92793 0.52619 0.0
H1300 H 0.77683 0.06555 0.23928 0.0
H1301 H 0.73356 0.08184 0.39639 0.0
H1302 H 0.82371 0.03144 0.30573 0.0
H1303 H 0.68613 0.10899 0.32732 0.0
H1304 H 0.77048 0.06905 0.36478 0.0
H1305 H 0.74672 0.08663 0.27236 0.0
C1306 C 0.78084 0.06244 0.26085 0.0
C1307 C 0.80277 0.04641 0.26964 0.0
C1308 C 0.75214 0.07822 0.35666 0.0
C1309 C 0.76808 0.07072 0.30795 0.0
C1310 C 0.73127 0.08575 0.37469 0.0
C1311 C 0.70682 0.09629 0.36433 0.0
C1312 C 0.7484 0.08149 0.32827 0.0
C1313 C 0.70461 0.10068 0.33607 0.0
C1314 C 0.76362 0.07461 0.27982 0.0
C1315 C 0.80696 0.04347 0.29798 0.0
N1316 N 0.72498 0.09309 0.31907 0.0
N1317 N 0.78966 0.05535 0.31614 0.0
H1318 H 0.67777 0.07316 0.03325 0.0
H1319 H 0.66415 0.98401 0.16559 0.0
H1320 H 0.71027 0.10134 0.11074 0.0
H1321 H 0.6094 0.97561 0.09655 0.0
H1322 H 0.67835 0.02926 0.14851 0.0
H1323 H 0.64999 0.03917 0.05747 0.0
C1324 C 0.67882 0.07239 0.05538 0.0
C1325 C 0.69662 0.08986 0.06993 0.0
C1326 C 0.66275 0.01774 0.13748 0.0
C1327 C 0.66524 0.05066 0.09785 0.0
C1328 C 0.65455 0.99199 0.14732 0.0
C1329 C 0.63607 0.97578 0.13212 0.0
C1330 C 0.65253 0.02702 0.11224 0.0
C1331 C 0.62425 0.98715 0.10856 0.0
C1332 C 0.66288 0.05306 0.06926 0.0
C1333 C 0.69692 0.08815 0.09868 0.0
N1334 N 0.63306 0.01176 0.09907 0.0
N1335 N 0.68191 0.06851 0.11168 0.0
H1336 H 0.64916 0.07993 0.72412 0.0
H1337 H 0.80796 0.06232 0.7108 0.0
H1338 H 0.69364 0.00943 0.75171 0.0
H1339 H 0.75734 0.11524 0.6621 0.0
H1340 H 0.77001 0.05576 0.74267 0.0
H1341 H 0.6921 0.10566 0.7212 0.0
C1342 C 0.66785 0.07013 0.73052 0.0
C1343 C 0.66806 0.0421 0.7368 0.0
C1344 C 0.7675 0.06932 0.72536 0.0
C1345 C 0.71706 0.07124 0.73306 0.0
C1346 C 0.78906 0.07299 0.70706 0.0
C1347 C 0.78543 0.08857 0.68321 0.0
C1348 C 0.74227 0.08143 0.71979 0.0
C1349 C 0.76071 0.10231 0.67973 0.0
C1350 C 0.69236 0.08484 0.72877 0.0
C1351 C 0.69267 0.03075 0.74584 0.0
N1352 N 0.73991 0.09808 0.6976 0.0
N1353 N 0.71643 0.04512 0.74279 0.0
H1354 H 0.72338 0.94589 0.54267 0.0
H1355 H 0.64405 0.00331 0.41186 0.0
H1356 H 0.71645 0.90217 0.4659 0.0
H1357 H 0.6518 0.04659 0.48871 0.0
H1358 H 0.66614 0.96379 0.43273 0.0
H1359 H 0.6946 0.98171 0.52401 0.0
C1360 C 0.71598 0.94387 0.52184 0.0
C1361 C 0.72245 0.92095 0.50585 0.0
C1362 C 0.66267 0.98183 0.44511 0.0
C1363 C 0.68913 0.96183 0.48442 0.0
C1364 C 0.64979 0.00428 0.43327 0.0
C1365 C 0.64643 0.02842 0.44845 0.0
C1366 C 0.6722 0.98361 0.47225 0.0
C1367 C 0.65437 0.02854 0.47611 0.0
C1368 C 0.69936 0.96427 0.51124 0.0
C1369 C 0.71209 0.91947 0.47901 0.0
N1370 N 0.66716 0.00664 0.48701 0.0
N1371 N 0.69597 0.93962 0.46915 0.0
H1372 H 0.82703 0.97508 0.16553 0.0
H1373 H 0.71664 0.85767 0.18246 0.0
H1374 H 0.8195 0.92204 0.23573 0.0
H1375 H 0.72038 0.9118 0.11292 0.0
H1376 H 0.76326 0.8712 0.19462 0.0
H1377 H 0.79621 0.9444 0.14 0.0
C1378 C 0.81895 0.95693 0.17552 0.0
C1379 C 0.82512 0.95146 0.20299 0.0
C1380 C 0.75418 0.8797 0.17632 0.0
C1381 C 0.7903 0.91621 0.17392 0.0
C1382 C 0.72763 0.87185 0.16933 0.0
C1383 C 0.71449 0.88439 0.14725 0.0
C1384 C 0.76721 0.90073 0.16154 0.0
C1385 C 0.7297 0.90211 0.13047 0.0
C1386 C 0.80159 0.93931 0.16088 0.0
C1387 C 0.81468 0.92739 0.21478 0.0
N1388 N 0.75507 0.91047 0.13846 0.0
N1389 N 0.79752 0.91084 0.20028 0.0
H1390 H 0.78653 0.02522 0.01698 0.0
H1391 H 0.82869 0.95695 0.87489 0.0
H1392 H 0.75757 0.05413 0.93885 0.0
H1393 H 0.83982 0.91776 0.95319 0.0
H1394 H 0.80496 0.99432 0.89794 0.0
H1395 H 0.80709 0.98614 0.99399 0.0
C1396 C 0.78418 0.02312 -0.00498 0.0
C1397 C 0.77048 0.043 0.97977 0.0
C1398 C 0.81265 0.97752 0.91003 0.0
C1399 C 0.79448 -0.0013 0.95324 0.0
C1400 C 0.82645 0.95635 0.89693 0.0
C1401 C 0.83629 0.93419 0.91212 0.0
C1402 C 0.80892 0.97665 0.93853 0.0
C1403 C 0.83252 0.93437 0.94062 0.0
C1404 C 0.79601 0.00088 0.98188 0.0
C1405 C 0.76797 0.03925 0.95137 0.0
N1406 N 0.81919 0.95525 0.95287 0.0
N1407 N 0.78018 0.01771 0.93895 0.0
H1408 H 0.81031 0.66081 0.99334 0.0
H1409 H 0.8105 0.76465 0.86764 0.0
H1410 H 0.7376 0.68752 0.95134 0.0
H1411 H 0.88112 0.75004 0.91839 0.0
H1412 H 0.78611 0.72763 0.89098 0.0
H1413 H 0.83821 0.68547 0.95998 0.0
C1414 C 0.80014 0.67167 0.977 0.0
C1415 C 0.77143 0.67234 0.97543 0.0
C1416 C 0.8071 0.73216 0.8967 0.0
C1417 C 0.8035 0.70056 0.93699 0.0
C1418 C 0.82113 0.75316 0.88324 0.0
C1419 C 0.84775 0.76073 0.89137 0.0
C1420 C 0.81968 0.71869 0.91861 0.0
C1421 C 0.86059 0.74496 0.91152 0.0
C1422 C 0.81616 0.68572 0.95792 0.0
C1423 C 0.75959 0.68664 0.95361 0.0
N1424 N 0.84625 0.725 0.92482 0.0
N1425 N 0.77566 0.70033 0.93539 0.0
H1426 H 0.22647 0.81186 0.09478 0.0
H1427 H 0.31459 0.70567 0.11522 0.0
H1428 H 0.29135 0.84481 0.04455 0.0
H1429 H 0.3784 0.75826 0.08359 0.0
H1430 H 0.2834 0.74365 0.11475 0.0
H1431 H 0.25912 0.78103 0.11598 0.0
C1432 C 0.24757 0.81248 0.08814 0.0
C1433 C 0.25603 0.83035 0.06735 0.0
C1434 C 0.30432 0.74753 0.10876 0.0
C1435 C 0.29351 0.79451 0.09076 0.0
C1436 C 0.3222 0.72563 0.10894 0.0
C1437 C 0.34893 0.72887 0.09911 0.0
C1438 C 0.31316 0.77288 0.09827 0.0
C1439 C 0.35789 0.75501 0.09128 0.0
C1440 C 0.26628 0.79471 0.10012 0.0
C1441 C 0.28377 0.83092 0.06009 0.0
N1442 N 0.3398 0.77593 0.09043 0.0
N1443 N 0.30139 0.81302 0.0715 0.0
H1444 H 0.92689 0.53895 0.77645 0.0
H1445 H 0.03784 0.63368 0.85111 0.0
H1446 H 0.90961 0.61782 0.81222 0.0
H1447 H 0.0562 0.55577 0.81394 0.0
H1448 H 0.98933 0.62439 0.84396 0.0
H1449 H 0.97238 0.54098 0.79696 0.0
C1450 C 0.9325 0.55658 0.78885 0.0
C1451 C 0.91452 0.57853 0.79212 0.0
C1452 C 0.00392 0.60919 0.83758 0.0
C1453 C 0.96672 0.58099 0.81552 0.0
C1454 C 0.03167 0.61451 0.84159 0.0
C1455 C 0.05118 0.59572 0.83257 0.0
C1456 C -0.00448 0.58502 0.82422 0.0
C1457 C 0.0419 0.57099 0.82091 0.0
C1458 C 0.95852 0.5577 0.80056 0.0
C1459 C 0.92288 0.60061 0.80875 0.0
N1460 N 0.01473 0.56652 0.81671 0.0
N1461 N 0.94849 0.60143 0.81952 0.0
H1462 H 0.20901 0.17798 0.5722 0.0
H1463 H 0.07652 0.26826 0.59624 0.0
H1464 H 0.1272 0.15215 0.54985 0.0
H1465 H 0.15975 0.29875 0.59999 0.0
H1466 H 0.09391 0.22165 0.59148 0.0
H1467 H 0.19005 0.21766 0.59573 0.0
C1468 C 0.18703 0.18034 0.57277 0.0
C1469 C 0.16966 0.16225 0.55846 0.0
C1470 C 0.1083 0.23858 0.59366 0.0
C1471 C 0.14793 0.20757 0.58495 0.0
C1472 C 0.0984 0.26514 0.5963 0.0
C1473 C 0.11671 0.28746 0.59778 0.0
C1474 C 0.13664 0.23439 0.59271 0.0
C1475 C 0.14486 0.28222 0.59817 0.0
C1476 C 0.17623 0.20304 0.58607 0.0
C1477 C 0.14133 0.16605 0.56011 0.0
N1478 N 0.15395 0.25628 0.5954 0.0
N1479 N 0.13134 0.18857 0.57269 0.0
H1480 H 0.02342 0.01649 0.78048 0.0
H1481 H 0.98637 0.86892 0.84045 0.0
H1482 H 0.07162 0.94492 0.76404 0.0
H1483 H 0.94568 0.94321 0.86393 0.0
H1484 H 0.02052 0.89648 0.81594 0.0
H1485 H -0.00347 0.99004 0.81322 0.0
C1486 C 0.02837 -0.00481 0.78369 0.0
C1487 C 0.04977 0.98292 0.76923 0.0
C1488 C 0.00435 0.90675 0.82683 0.0
C1489 C 0.01892 0.95238 0.80701 0.0
C1490 C 0.98496 0.89102 0.84107 0.0
C1491 C 0.96282 0.9037 0.85397 0.0
C1492 C 0.00151 0.93532 0.82539 0.0
C1493 C 0.96212 0.93246 0.85395 0.0
C1494 C 0.01307 0.9801 0.80258 0.0
C1495 C 0.05527 0.95526 0.77458 0.0
N1496 N 0.98087 0.94722 0.83955 0.0
N1497 N 0.03984 0.94088 0.79287 0.0
H1498 H 0.64789 0.34855 0.47931 0.0
H1499 H 0.69606 0.19616 0.44883 0.0
H1500 H 0.71878 0.31207 0.51657 0.0
H1501 H 0.623 0.23158 0.41495 0.0
H1502 H 0.70924 0.241 0.46713 0.0
H1503 H 0.64284 0.3085 0.44973 0.0
C1504 C 0.66254 0.33224 0.48118 0.0
C1505 C 0.68356 0.33359 0.50083 0.0
C1506 C 0.6905 0.23903 0.45538 0.0
C1507 C 0.6778 0.28749 0.4669 0.0
C1508 C 0.683 0.21341 0.44479 0.0
C1509 C 0.65807 0.20987 0.43073 0.0
C1510 C 0.67297 0.2613 0.452 0.0
C1511 C 0.64218 0.23315 0.42601 0.0
C1512 C 0.65966 0.30935 0.4642 0.0
C1513 C 0.70208 0.31188 0.50195 0.0
N1514 N 0.64969 0.25774 0.43693 0.0
N1515 N 0.69859 0.28962 0.48546 0.0
H1516 H 0.88263 0.47567 0.69713 0.0
H1517 H 0.98236 0.3997 0.63295 0.0
H1518 H 0.93321 0.54647 0.67945 0.0
H1519 H 0.03585 0.46612 0.65859 0.0
H1520 H 0.94303 0.4283 0.64285 0.0
H1521 H 0.91708 0.44644 0.67709 0.0
C1522 C 0.90086 0.48511 0.6886 0.0
C1523 C 0.90516 0.51353 0.69005 0.0
C1524 C 0.96337 0.4365 0.64658 0.0
C1525 C 0.94466 0.48013 0.66662 0.0
C1526 C 0.98587 0.42024 0.64072 0.0
C1527 C 0.0125 0.43027 0.64546 0.0
C1528 C 0.96753 0.46296 0.65735 0.0
C1529 C 0.01573 0.45728 0.65509 0.0
C1530 C 0.92044 0.46838 0.67685 0.0
C1531 C 0.92912 0.52464 0.6787 0.0
N1532 N 0.99351 0.47262 0.66081 0.0
N1533 N 0.94823 0.50783 0.66782 0.0
H1534 H 0.55555 0.47586 0.13353 0.0
H1535 H 0.49939 0.62883 0.12786 0.0
H1536 H 0.59349 0.54455 0.17525 0.0
H1537 H 0.46075 0.55993 0.08711 0.0
H1538 H 0.53836 0.59982 0.13901 0.0
H1539 H 0.52447 0.50753 0.11067 0.0
C1540 C 0.55745 0.49758 0.13773 0.0
C1541 C 0.57682 0.50752 0.15663 0.0
C1542 C 0.52152 0.59117 0.12726 0.0
C1543 C 0.54144 0.54389 0.13061 0.0
C1544 C 0.49938 0.60782 0.12072 0.0
C1545 C 0.4766 0.59667 0.10697 0.0
C1546 C 0.52079 0.56325 0.12001 0.0
C1547 C 0.47768 0.56925 0.09824 0.0
C1548 C 0.53976 0.51569 0.12467 0.0
C1549 C 0.57858 0.53592 0.16112 0.0
N1550 N 0.49917 0.55342 0.1052 0.0
N1551 N 0.56099 0.55305 0.14843 0.0
H1552 H 0.53171 0.83734 0.79811 0.0
H1553 H 0.6008 0.69487 0.76229 0.0
H1554 H 0.58665 0.79641 0.85324 0.0
H1555 H 0.54523 0.73799 0.70935 0.0
H1556 H 0.60187 0.73463 0.7931 0.0
H1557 H 0.54359 0.80498 0.76218 0.0
C1558 C 0.54669 0.82178 0.80247 0.0
C1559 C 0.55789 0.81925 0.82877 0.0
C1560 C 0.58964 0.7354 0.7746 0.0
C1561 C 0.57101 0.78152 0.78797 0.0
C1562 C 0.58893 0.71267 0.75706 0.0
C1563 C 0.57246 0.7128 0.73343 0.0
C1564 C 0.57384 0.75841 0.76841 0.0
C1565 C 0.55781 0.73662 0.72756 0.0
C1566 C 0.5534 0.8032 0.782 0.0
C1567 C 0.57744 0.79895 0.83324 0.0
N1568 N 0.5587 0.75827 0.74498 0.0
N1569 N 0.58299 0.78045 0.81319 0.0
H1570 H 0.54488 0.2613 0.07613 0.0
H1571 H 0.58622 0.33475 0.96351 0.0
H1572 H 0.58804 0.19536 0.03699 0.0
H1573 H 0.65898 0.28603 0.96442 0.0
H1574 H 0.56787 0.30775 0.0012 0.0
H1575 H 0.56876 0.29385 0.04678 0.0
C1576 C 0.55926 0.25358 0.06128 0.0
C1577 C 0.56398 0.22541 0.05868 0.0
C1578 C 0.58819 0.30337 0.99383 0.0
C1579 C 0.59115 0.26274 0.02466 0.0
C1580 C 0.59858 0.31869 0.97222 0.0
C1581 C 0.62416 0.31267 0.9612 0.0
C1582 C 0.60333 0.2815 0.00424 0.0
C1583 C 0.63931 0.29144 0.97278 0.0
C1584 C 0.57282 0.27224 0.04445 0.0
C1585 C 0.58338 0.21683 0.03941 0.0
N1586 N 0.6284 0.27618 0.99347 0.0
N1587 N 0.59618 0.23545 0.023 0.0
H1588 H 0.92915 0.22322 0.31652 0.0
H1589 H 0.95974 0.29136 0.17202 0.0
H1590 H 0.00779 0.25823 0.29557 0.0
H1591 H 0.88176 0.29968 0.21218 0.0
H1592 H 0.9765 0.26594 0.21151 0.0
H1593 H 0.91089 0.23908 0.27264 0.0
C1594 C 0.9426 0.23408 0.30257 0.0
C1595 C 0.96991 0.23977 0.30968 0.0
C1596 C 0.95561 0.27303 0.21141 0.0
C1597 C 0.94935 0.25728 0.25956 0.0
C1598 C 0.94591 0.28734 0.18885 0.0
C1599 C 0.91938 0.29799 0.18898 0.0
C1600 C 0.93853 0.26892 0.23401 0.0
C1601 C 0.90244 0.29213 0.21141 0.0
C1602 C 0.93216 0.24308 0.27765 0.0
C1603 C 0.98652 0.2538 0.29093 0.0
N1604 N 0.91236 0.27806 0.23316 0.0
N1605 N 0.97597 0.26205 0.2666 0.0
H1606 H 0.95983 0.67156 0.56821 0.0
H1607 H 0.88655 0.68843 0.42718 0.0
H1608 H 0.94234 0.75232 0.53784 0.0
H1609 H 0.86387 0.62282 0.48195 0.0
H1610 H 0.91019 0.7117 0.46516 0.0
H1611 H 0.9282 0.65203 0.53424 0.0
C1612 C 0.94928 0.68515 0.55436 0.0
C1613 C 0.95369 0.71353 0.55563 0.0
C1614 C 0.8997 0.6924 0.46887 0.0
C1615 C 0.91791 0.69138 0.51672 0.0
C1616 C 0.88635 0.67907 0.44726 0.0
C1617 C 0.87345 0.65359 0.45146 0.0
C1618 C 0.90074 0.67976 0.49458 0.0
C1619 C 0.87358 0.64244 0.47788 0.0
C1620 C 0.93113 0.67404 0.53519 0.0
C1621 C 0.93941 0.73031 0.53744 0.0
N1622 N 0.88749 0.65536 0.49838 0.0
N1623 N 0.9224 0.71894 0.51835 0.0
H1624 H 0.49362 0.34903 0.69463 0.0
H1625 H 0.62928 0.33483 0.77918 0.0
H1626 H 0.56711 0.31507 0.66071 0.0
H1627 H 0.57075 0.39711 0.79899 0.0
H1628 H 0.60689 0.3285 0.73477 0.0
H1629 H 0.52115 0.36908 0.7321 0.0
C1630 C 0.51555 0.34635 0.69474 0.0
C1631 C 0.52807 0.32994 0.67497 0.0
C1632 C 0.59919 0.34387 0.74866 0.0
C1633 C 0.5594 0.35224 0.71758 0.0
C1634 C 0.61194 0.3474 0.77402 0.0
C1635 C 0.60178 0.36636 0.79282 0.0
C1636 C 0.57568 0.3589 0.74235 0.0
C1637 C 0.57928 0.38224 0.78505 0.0
C1638 C 0.53124 0.35769 0.7161 0.0
C1639 C 0.55657 0.32709 0.67595 0.0
N1640 N 0.56664 0.3778 0.76059 0.0
N1641 N 0.57118 0.33769 0.69714 0.0
H1642 H 0.91432 0.32002 0.90538 0.0
H1643 H 0.89685 0.40445 0.01167 0.0
H1644 H 0.0013 0.33441 0.91221 0.0
H1645 H 0.97273 0.36752 0.03639 0.0
H1646 H 0.9094 0.39758 0.96389 0.0
H1647 H 0.90708 0.35407 0.94119 0.0
C1648 C 0.93183 0.3308 0.91404 0.0
C1649 C 0.95841 0.32415 0.90623 0.0
C1650 C 0.92351 0.39154 0.97983 0.0
C1651 C 0.95041 0.36311 0.94707 0.0
C1652 C 0.91652 0.3956 0.00714 0.0
C1653 C 0.93311 0.38512 0.0281 0.0
C1654 C 0.94718 0.37696 0.97364 0.0
C1655 C 0.95878 0.37488 0.02091 0.0
C1656 C 0.92771 0.35053 0.93422 0.0
C1657 C 0.98045 0.33882 0.9179 0.0
N1658 N 0.96473 0.37034 0.99417 0.0
N1659 N 0.97601 0.35706 0.93837 0.0
H1660 H 0.99271 0.60996 0.1985 0.0
H1661 H 0.8558 0.63653 0.27566 0.0
H1662 H 0.93422 0.66798 0.16809 0.0
H1663 H 0.8984 0.5599 0.28177 0.0
H1664 H 0.88203 0.64735 0.23446 0.0
H1665 H 0.95743 0.59049 0.22816 0.0
C1666 C 0.97238 0.61846 0.19789 0.0
C1667 C 0.96649 0.64083 0.18099 0.0
C1668 C 0.88519 0.62791 0.24453 0.0
C1669 C 0.92604 0.61876 0.21508 0.0
C1670 C 0.87018 0.6217 0.26805 0.0
C1671 C 0.87532 0.59756 0.28264 0.0
C1672 C 0.90575 0.6101 0.23587 0.0
C1673 C 0.89403 0.57899 0.27155 0.0
C1674 C 0.95218 0.60722 0.21469 0.0
C1675 C 0.93969 0.65081 0.18088 0.0
N1676 N 0.90901 0.58593 0.24922 0.0
N1677 N 0.92056 0.64002 0.19802 0.0
H1678 H 0.51004 0.69522 0.45186 0.0
H1679 H 0.54021 0.58867 0.56776 0.0
H1680 H 0.53698 0.61314 0.43467 0.0
H1681 H 0.4983 0.66464 0.58147 0.0
H1682 H 0.53153 0.59307 0.51878 0.0
H1683 H 0.50028 0.68174 0.49872 0.0
C1684 C 0.51409 0.67436 0.45797 0.0
C1685 C 0.52495 0.65544 0.4394 0.0
C1686 C 0.52361 0.60844 0.53255 0.0
C1687 C 0.51346 0.63973 0.49325 0.0
C1688 C 0.52839 0.60583 0.56058 0.0
C1689 C 0.52081 0.62682 0.57865 0.0
C1690 C 0.51149 0.63232 0.5226 0.0
C1691 C 0.50507 0.64825 0.56827 0.0
C1692 C 0.50815 0.66656 0.48471 0.0
C1693 C 0.52903 0.62851 0.4484 0.0
N1694 N 0.50163 0.65088 0.54082 0.0
N1695 N 0.52364 0.62155 0.4748 0.0
H1696 H 0.80753 0.63063 0.7321 0.0
H1697 H 0.68341 0.63901 0.62656 0.0
H1698 H 0.79744 0.57875 0.66106 0.0
H1699 H 0.6763 0.65837 0.71255 0.0
H1700 H 0.73246 0.63291 0.63288 0.0
H1701 H 0.76651 0.65562 0.71853 0.0
C1702 C 0.79696 0.6248 0.71342 0.0
C1703 C 0.80542 0.60221 0.69797 0.0
C1704 C 0.72019 0.63909 0.65018 0.0
C1705 C 0.75911 0.63092 0.68221 0.0
C1706 C 0.6922 0.6427 0.64663 0.0
C1707 C 0.67558 0.64843 0.66927 0.0
C1708 C 0.73162 0.64152 0.67645 0.0
C1709 C 0.68825 0.65327 0.69468 0.0
C1710 C 0.77365 0.63908 0.70572 0.0
C1711 C 0.79122 0.5957 0.67381 0.0
N1712 N 0.71552 0.64928 0.6977 0.0
N1713 N 0.7686 0.60987 0.66676 0.0
H1714 H 0.74602 0.55188 0.98882 0.0
H1715 H 0.66065 0.41802 0.98731 0.0
H1716 H 0.68129 0.55169 0.04851 0.0
H1717 H 0.65068 0.476 0.92157 0.0
H1718 H 0.68151 0.45482 0.01548 0.0
H1719 H 0.7266 0.50935 0.96918 0.0
C1720 C 0.72838 0.5423 -0.00162 0.0
C1721 C 0.71509 0.55509 0.02014 0.0
C1722 C 0.67436 0.45928 -0.00501 0.0
C1723 C 0.69324 0.50702 -0.00181 0.0
C1724 C 0.66232 0.43853 0.97904 0.0
C1725 C 0.65372 0.44408 0.95216 0.0
C1726 C 0.6785 0.48522 0.98348 0.0
C1727 C 0.65664 0.4709 0.94227 0.0
C1728 C 0.71727 0.51833 0.98711 0.0
C1729 C 0.69196 0.54228 0.03161 0.0
N1730 N 0.66928 0.49038 0.95778 0.0
N1731 N 0.68154 0.5189 0.02034 0.0
H1732 H 0.66755 0.38706 0.2116 0.0
H1733 H 0.77915 0.35606 0.09777 0.0
H1734 H 0.67799 0.43377 0.13748 0.0
H1735 H 0.79718 0.34965 0.18415 0.0
H1736 H 0.73217 0.36756 0.10896 0.0
H1737 H 0.70604 0.35817 0.19799 0.0
C1738 C 0.67763 0.39089 0.19225 0.0
C1739 C 0.66994 0.41298 0.17573 0.0
C1740 C 0.74632 0.36298 0.12538 0.0
C1741 C 0.7131 0.37979 0.15991 0.0
C1742 C 0.77316 0.35628 0.11909 0.0
C1743 C 0.79251 0.35279 0.14011 0.0
C1744 C 0.73864 0.36577 0.15282 0.0
C1745 C 0.78318 0.35282 0.16729 0.0
C1746 C 0.69949 0.37445 0.18458 0.0
C1747 C 0.68359 0.41716 0.15091 0.0
N1748 N 0.75694 0.35977 0.17292 0.0
N1749 N 0.70455 0.40071 0.14374 0.0
H1750 H 0.71858 0.45175 0.48355 0.0
H1751 H 0.853 0.53675 0.48155 0.0
H1752 H 0.77148 0.44533 0.55403 0.0
H1753 H 0.82803 0.48851 0.41147 0.0
H1754 H 0.82292 0.50846 0.51048 0.0
H1755 H 0.75632 0.47286 0.45806 0.0
C1756 C 0.738 0.45521 0.49379 0.0
C1757 C 0.74194 0.44691 0.52094 0.0
C1758 C 0.8247 0.50368 0.4889 0.0
C1759 C 0.78506 0.47085 0.4919 0.0
C1760 C 0.84199 0.5196 0.47245 0.0
C1761 C 0.84297 0.51499 0.44406 0.0
C1762 C 0.8078 0.48371 0.47663 0.0
C1763 C 0.82804 0.4927 0.43325 0.0
C1764 C 0.75959 0.46685 0.47913 0.0
C1765 C 0.76769 0.45149 0.5331 0.0
N1766 N 0.81044 0.47839 0.44942 0.0
N1767 N 0.7883 0.46346 0.51856 0.0
H1768 H 0.75726 0.56396 0.79394 0.0
H1769 H 0.73977 0.4147 0.85872 0.0
H1770 H 0.81648 0.50039 0.78173 0.0
H1771 H 0.67149 0.46601 0.83829 0.0
H1772 H 0.7706 0.44856 0.8373 0.0
H1773 H 0.72757 0.53068 0.81741 0.0
C1774 C 0.76402 0.54307 0.79624 0.0
C1775 C 0.78925 0.53488 0.78567 0.0
C1776 C 0.74882 0.45224 0.83753 0.0
C1777 C 0.7557 0.49695 0.81273 0.0
C1778 C 0.73128 0.43299 0.84975 0.0
C1779 C 0.703 0.43735 0.85003 0.0
C1780 C 0.738 0.47618 0.8261 0.0
C1781 C 0.69311 0.46153 0.83822 0.0
C1782 C 0.74709 0.5241 0.80955 0.0
C1783 C 0.79704 0.50752 0.78928 0.0
N1784 N 0.71056 0.48005 0.82689 0.0
N1785 N 0.7804 0.48956 0.8026 0.0
H1786 H 0.77335 0.57043 0.12342 0.0
H1787 H 0.87783 0.4608 0.08135 0.0
H1788 H 0.84003 0.58777 0.06816 0.0
H1789 H 0.83625 0.45549 0.15893 0.0
H1790 H 0.86653 0.50914 0.07877 0.0
H1791 H 0.79831 0.53097 0.14075 0.0
C1792 C 0.7935 0.56633 0.1154 0.0
C1793 C 0.8043 0.58179 0.09373 0.0
C1794 C 0.86019 0.49758 0.0966 0.0
C1795 C 0.83261 0.53674 0.1131 0.0
C1796 C 0.86641 0.46995 0.09791 0.0
C1797 C 0.85746 0.45419 0.1201 0.0
C1798 C 0.84423 0.50934 0.11724 0.0
C1799 C 0.84323 0.46704 0.14133 0.0
C1800 C 0.80774 0.54384 0.12531 0.0
C1801 C 0.83063 0.57589 0.08437 0.0
N1802 N 0.83647 0.49384 0.13911 0.0
N1803 N 0.84364 0.55343 0.09368 0.0
H1804 H 0.69328 0.46214 0.25092 0.0
H1805 H 0.74887 0.54495 0.38167 0.0
H1806 H 0.64637 0.52047 0.29699 0.0
H1807 H 0.80141 0.5067 0.3223 0.0
H1808 H 0.70918 0.52541 0.35781 0.0
H1809 H 0.73096 0.46813 0.28387 0.0
C1810 C 0.69076 0.47586 0.26816 0.0
C1811 C 0.66693 0.49126 0.27096 0.0
C1812 C 0.72944 0.52108 0.35021 0.0
C1813 C 0.70961 0.49801 0.3086 0.0
C1814 C 0.75212 0.53218 0.36384 0.0
C1815 C 0.77852 0.52805 0.35359 0.0
C1816 C 0.73316 0.50565 0.32624 0.0
C1817 C 0.78142 0.51097 0.3306 0.0
C1818 C 0.71224 0.47932 0.28687 0.0
C1819 C 0.66463 0.50864 0.29374 0.0
N1820 N 0.759 0.50066 0.3175 0.0
N1821 N 0.68577 0.51169 0.31155 0.0
H1822 H 0.70227 0.43853 0.64318 0.0
H1823 H 0.58018 0.54127 0.62333 0.0
H1824 H 0.63623 0.42531 0.58568 0.0
H1825 H 0.63504 0.54633 0.69243 0.0
H1826 H 0.59776 0.49609 0.61245 0.0
H1827 H 0.67638 0.47564 0.66423 0.0
C1828 C 0.68227 0.44332 0.6351 0.0
C1829 C 0.67157 0.42911 0.61237 0.0
C1830 C 0.6057 0.50675 0.63031 0.0
C1831 C 0.64187 0.47145 0.63633 0.0
C1832 C 0.59558 0.53251 0.63655 0.0
C1833 C 0.60635 0.54751 0.65867 0.0
C1834 C 0.62728 0.49616 0.64586 0.0
C1835 C 0.62621 0.5353 0.67521 0.0
C1836 C 0.66744 0.4644 0.64721 0.0
C1837 C 0.64544 0.43595 0.60294 0.0
N1838 N 0.6365 0.51051 0.66814 0.0
N1839 N 0.63164 0.45679 0.61475 0.0
H1840 H 0.68559 0.78944 0.51563 0.0
H1841 H 0.58525 0.74771 0.63715 0.0
H1842 H 0.68444 0.82921 0.59474 0.0
H1843 H 0.59875 0.69875 0.56493 0.0
H1844 H 0.61167 0.78516 0.61629 0.0
H1845 H 0.64479 0.76322 0.52845 0.0
C1846 C 0.67671 0.7928 0.53562 0.0
C1847 C 0.68886 0.8111 0.55437 0.0
C1848 C 0.60836 0.76639 0.60482 0.0
C1849 C 0.64211 0.78129 0.56906 0.0
C1850 C 0.59316 0.74514 0.61663 0.0
C1851 C 0.5905 0.71997 0.60297 0.0
C1852 C 0.62076 0.7623 0.57924 0.0
C1853 C 0.60098 0.71767 0.57639 0.0
C1854 C 0.65336 0.7779 0.54288 0.0
C1855 C 0.67615 0.8149 0.57982 0.0
N1856 N 0.61602 0.73841 0.56554 0.0
N1857 N 0.65363 0.7999 0.58653 0.0
H1858 H 0.24626 0.73702 0.49849 0.0
H1859 H 0.17163 0.76968 0.35925 0.0
H1860 H 0.22686 0.67397 0.43915 0.0
H1861 H 0.21957 0.83053 0.40297 0.0
H1862 H 0.19187 0.73409 0.3877 0.0
H1863 H 0.23611 0.77173 0.46401 0.0
C1864 C 0.23991 0.73047 0.47822 0.0
C1865 C 0.23713 0.70253 0.4718 0.0
C1866 C 0.1983 0.75519 0.39074 0.0
C1867 C 0.22543 0.74215 0.4323 0.0
C1868 C 0.18678 0.77551 0.37448 0.0
C1869 C 0.19371 0.80316 0.37887 0.0
C1870 C 0.21641 0.76262 0.41194 0.0
C1871 C 0.21356 0.80949 0.39886 0.0
C1872 C 0.23432 0.75029 0.45849 0.0
C1873 C 0.22916 0.69526 0.44507 0.0
N1874 N 0.22382 0.78944 0.41501 0.0
N1875 N 0.22325 0.71493 0.42642 0.0
H1876 H 0.59281 -0.0026 0.64232 0.0
H1877 H 0.46004 0.97419 0.59607 0.0
H1878 H 0.58315 0.91047 0.65566 0.0
H1879 H 0.49171 0.89951 0.56195 0.0
H1880 H 0.50636 0.98694 0.61091 0.0
H1881 H 0.55651 -0.0049 0.60773 0.0
C1882 C 0.5833 0.97776 0.6378 0.0
C1883 C 0.59039 0.95416 0.65251 0.0
C1884 C 0.50329 0.96828 0.59921 0.0
C1885 C 0.54952 0.95148 0.61264 0.0
C1886 C 0.47684 0.96104 0.59065 0.0
C1887 C 0.47193 0.93538 0.57851 0.0
C1888 C 0.52455 0.94951 0.59582 0.0
C1889 C 0.49451 0.91914 0.572 0.0
C1890 C 0.56265 0.97656 0.61805 0.0
C1891 C 0.57789 0.92922 0.64524 0.0
N1892 N 0.51971 0.92598 0.58165 0.0
N1893 N 0.55791 0.92856 0.62587 0.0
H1894 H 0.36836 0.31217 0.95837 0.0
H1895 H 0.31458 0.16867 0.90308 0.0
H1896 H 0.28979 0.30047 0.91928 0.0
H1897 H 0.40019 0.18486 0.9193 0.0
H1898 H 0.30517 0.21676 0.91046 0.0
H1899 H 0.38083 0.26585 0.94472 0.0
C1900 C 0.35384 0.29992 0.94665 0.0
C1901 C 0.32789 0.30998 0.94015 0.0
C1902 C 0.32604 0.20987 0.91231 0.0
C1903 C 0.3419 0.25703 0.92483 0.0
C1904 C 0.33144 0.18231 0.90836 0.0
C1905 C 0.35824 0.17265 0.9108 0.0
C1906 C 0.34748 0.22797 0.91908 0.0
C1907 C 0.37923 0.19143 0.91731 0.0
C1908 C 0.36099 0.27354 0.93886 0.0
C1909 C 0.30996 0.29342 0.92479 0.0
N1910 N 0.37337 0.21825 0.92144 0.0
N1911 N 0.31717 0.26758 0.91793 0.0
H1912 H 0.4423 0.47013 0.75517 0.0
H1913 H 0.47399 0.61201 0.68048 0.0
H1914 H 0.41004 0.4929 0.67609 0.0
H1915 H 0.52993 0.57799 0.73957 0.0
H1916 H 0.44425 0.57207 0.68611 0.0
H1917 H 0.47049 0.51214 0.7552 0.0
C1918 C 0.44135 0.48372 0.73771 0.0
C1919 C 0.42373 0.47791 0.7156 0.0
C1920 C 0.46295 0.57348 0.69801 0.0
C1921 C 0.45517 0.52616 0.71598 0.0
C1922 C 0.47985 0.59643 0.69502 0.0
C1923 C 0.50484 0.59819 0.70916 0.0
C1924 C 0.47092 0.55217 0.71537 0.0
C1925 C 0.51106 0.57736 0.72793 0.0
C1926 C 0.45728 0.50772 0.73785 0.0
C1927 C 0.42331 0.49636 0.69359 0.0
N1928 N 0.49434 0.55502 0.7303 0.0
N1929 N 0.43855 0.51971 0.69448 0.0
H1930 H 0.82127 0.14765 0.06558 0.0
H1931 H 0.85209 0.29877 0.02893 0.0
H1932 H 0.81429 0.1745 0.98187 0.0
H1933 H 0.90015 0.25797 0.0904 0.0
H1934 H 0.83698 0.25404 0.01136 0.0
H1935 H 0.84969 0.18807 0.07581 0.0
C1936 C 0.82618 0.16189 0.04929 0.0
C1937 C 0.81554 0.15797 0.02292 0.0
C1938 C 0.85119 0.25494 0.0284 0.0
C1939 C 0.84717 0.20433 0.03455 0.0
C1940 C 0.85962 0.28039 0.03856 0.0
C1941 C 0.87707 0.28201 0.06138 0.0
C1942 C 0.85971 0.23105 0.04161 0.0
C1943 C 0.88655 0.2576 0.07287 0.0
C1944 C 0.84241 0.18483 0.05508 0.0
C1945 C 0.82233 0.17688 0.00243 0.0
N1946 N 0.87729 0.23307 0.06321 0.0
N1947 N 0.83728 0.19969 0.00882 0.0
H1948 H 0.51411 0.99393 0.70952 0.0
H1949 H 0.47161 0.04349 0.8541 0.0
H1950 H 0.56642 0.98111 0.77952 0.0
H1951 H 0.41136 0.01701 0.79445 0.0
H1952 H 0.50658 0.01931 0.82816 0.0
H1953 H 0.47563 0.00093 0.74049 0.0
C1954 C 0.51738 0.99222 0.73139 0.0
C1955 C 0.54351 0.98736 0.74202 0.0
C1956 C 0.48557 0.0184 0.8211 0.0
C1957 C 0.49986 -0.00418 0.77746 0.0
C1958 C 0.46564 0.03229 0.83583 0.0
C1959 C 0.4386 0.03278 0.82618 0.0
C1960 C 0.47849 0.00546 0.79632 0.0
C1961 C 0.432 0.01757 0.80252 0.0
C1962 C 0.49543 -0.00392 0.74904 0.0
C1963 C 0.5466 0.98501 0.7705 0.0
N1964 N 0.4519 0.00503 0.78808 0.0
N1965 N 0.52515 0.98989 0.7873 0.0
H1966 H 0.93127 0.93006 0.23917 0.0
H1967 H 0.05383 0.92784 0.34209 0.0
H1968 H 0.93325 0.98156 0.31109 0.0
H1969 H 0.03387 0.85867 0.29044 0.0
H1970 H 0.00871 0.94663 0.3331 0.0
H1971 H 0.96791 0.90282 0.25852 0.0
C1972 C 0.93945 0.93563 0.25909 0.0
C1973 C 0.9296 0.95838 0.27339 0.0
C1974 C 0.01391 0.92707 0.32416 0.0
C1975 C 0.97149 0.92722 0.29564 0.0
C1976 C 0.03962 0.91639 0.32923 0.0
C1977 C 0.04746 0.89189 0.31671 0.0
C1978 C -0.00376 0.9135 0.30582 0.0
C1979 C 0.02845 0.87766 0.3004 0.0
C1980 C 0.96015 0.91987 0.27024 0.0
C1981 C 0.94053 0.96434 0.2993 0.0
N1982 N 0.00381 0.889 0.2949 0.0
N1983 N 0.96125 0.94909 0.30946 0.0
H1984 H 0.47724 0.28233 0.15753 0.0
H1985 H 0.39073 0.35325 0.24376 0.0
H1986 H 0.43537 0.20889 0.18426 0.0
H1987 H 0.37321 0.27431 0.27971 0.0
H1988 H 0.41353 0.33043 0.20597 0.0
H1989 H 0.44852 0.30924 0.18743 0.0
C1990 C 0.46175 0.27186 0.16954 0.0
C1991 C 0.45879 0.24326 0.1684 0.0
C1992 C 0.40501 0.31799 0.22218 0.0
C1993 C 0.42488 0.27423 0.20246 0.0
C1994 C 0.3915 0.3311 0.24365 0.0
C1995 C 0.38043 0.3158 0.26535 0.0
C1996 C 0.4078 0.28932 0.22254 0.0
C1997 C 0.38178 0.28708 0.26374 0.0
C1998 C 0.44499 0.28737 0.18648 0.0
C1999 C 0.43843 0.23088 0.18453 0.0
N2000 N 0.39547 0.27486 0.24295 0.0
N2001 N 0.42239 0.24642 0.20099 0.0
H2002 H 0.45706 0.78472 0.90758 0.0
H2003 H 0.47268 0.67963 0.03097 0.0
H2004 H 0.52752 0.7815 0.96099 0.0
H2005 H 0.3958 0.69618 0.99101 0.0
H2006 H 0.49602 0.7086 -0.00232 0.0
H2007 H 0.43759 0.74497 0.93093 0.0
C2008 C 0.46856 0.7756 0.92411 0.0
C2009 C 0.49383 0.78679 0.93261 0.0
C2010 C 0.47409 0.70562 -0.00403 0.0
C2011 C 0.47159 0.74112 0.95926 0.0
C2012 C 0.46072 0.68902 0.01493 0.0
C2013 C 0.43211 0.686 0.01418 0.0
C2014 C 0.45881 0.71937 0.97612 0.0
C2015 C 0.41783 0.69819 0.99257 0.0
C2016 C 0.4574 0.75286 0.93738 0.0
C2017 C 0.50783 0.77384 0.95397 0.0
N2018 N 0.43129 0.71474 0.97462 0.0
N2019 N 0.49643 0.7518 0.96668 0.0
H2020 H 0.08218 0.65783 0.61928 0.0
H2021 H 0.13468 0.69458 0.7693 0.0
H2022 H 0.07489 0.73724 0.6575 0.0
H2023 H 0.13097 0.61246 0.73631 0.0
H2024 H 0.12429 0.71245 0.72399 0.0
H2025 H 0.11114 0.64337 0.65724 0.0
C2026 C 0.08697 0.67239 0.63541 0.0
C2027 C 0.07545 0.69858 0.63555 0.0
C2028 C 0.12608 0.69054 0.72659 0.0
C2029 C 0.10854 0.68208 0.67904 0.0
C2030 C 0.132 0.68028 0.75249 0.0
C2031 C 0.13293 0.6519 0.75683 0.0
C2032 C 0.12085 0.67231 0.70488 0.0
C2033 C 0.1299 0.63447 0.73408 0.0
C2034 C 0.10351 0.66408 0.65709 0.0
C2035 C 0.08276 0.71664 0.65682 0.0
N2036 N 0.12353 0.64493 0.70916 0.0
N2037 N 0.09852 0.70792 0.67789 0.0
H2038 H 0.96467 0.28047 0.44073 0.0
H2039 H 0.08837 0.36836 0.50423 0.0
H2040 H 0.0501 0.27186 0.42116 0.0
H2041 H 0.01006 0.35964 0.54414 0.0
H2042 H 0.06926 0.34552 0.46394 0.0
H2043 H 0.97682 0.31968 0.47051 0.0
C2044 C 0.98587 0.28689 0.44262 0.0
C2045 C 0.00647 0.27261 0.429 0.0
C2046 C 0.05613 0.34907 0.48137 0.0
C2047 C 0.0203 0.31755 0.46197 0.0
C2048 C 0.06699 0.36229 0.50435 0.0
C2049 C 0.05114 0.36497 0.52805 0.0
C2050 C 0.02934 0.33837 0.48218 0.0
C2051 C 0.02333 0.35723 0.52664 0.0
C2052 C 0.99275 0.30927 0.4594 0.0
C2053 C 0.0336 0.2819 0.43176 0.0
N2054 N 0.01346 0.34363 0.50433 0.0
N2055 N 0.03969 0.30369 0.44794 0.0
H2056 H 0.49053 0.64303 0.31424 0.0
H2057 H 0.4032 0.69691 0.1875 0.0
H2058 H 0.48586 0.72756 0.28918 0.0
H2059 H 0.42157 0.61149 0.19892 0.0
H2060 H 0.42567 0.70747 0.23085 0.0
H2061 H 0.45987 0.63026 0.27637 0.0
C2062 C 0.48324 0.65884 0.30064 0.0
C2063 C 0.49075 0.68638 0.30476 0.0
C2064 C 0.42452 0.68635 0.22407 0.0
C2065 C 0.45539 0.67204 0.26205 0.0
C2066 C 0.4115 0.68029 0.19944 0.0
C2067 C 0.41103 0.65337 0.1894 0.0
C2068 C 0.43731 0.66539 0.23867 0.0
C2069 C 0.42169 0.63256 0.20587 0.0
C2070 C 0.46563 0.65157 0.27922 0.0
C2071 C 0.48066 0.70608 0.2867 0.0
N2072 N 0.43489 0.63907 0.22957 0.0
N2073 N 0.46343 0.69853 0.2662 0.0
H2074 H 0.07562 0.62334 0.0796 0.0
H2075 H 0.07466 0.65823 0.92024 0.0
H2076 H 0.01109 0.66753 0.03937 0.0
H2077 H 0.14103 0.61718 0.96094 0.0
H2078 H 0.049 0.65751 0.96276 0.0
H2079 H 0.09675 0.61528 0.03526 0.0
C2080 C 0.06562 0.63098 0.0614 0.0
C2081 C 0.04176 0.64657 0.06329 0.0
C2082 C 0.06914 0.6486 0.96241 0.0
C2083 C 0.06614 0.6377 0.01245 0.0
C2084 C 0.08394 0.64911 0.93812 0.0
C2085 C 0.11024 0.63794 0.93697 0.0
C2086 C 0.08063 0.63688 0.98588 0.0
C2087 C 0.12096 0.62625 0.96086 0.0
C2088 C 0.07779 0.62646 0.03608 0.0
C2089 C 0.02957 0.65559 0.03895 0.0
N2090 N 0.10615 0.62611 0.98436 0.0
N2091 N 0.04212 0.65136 0.01457 0.0
H2092 H 0.02971 0.21752 0.7732 0.0
H2093 H 0.08653 0.36382 0.73444 0.0
H2094 H 0.05183 0.27896 0.83329 0.0
H2095 H 0.07622 0.29716 0.67697 0.0
H2096 H 0.08245 0.33078 0.77211 0.0
H2097 H 0.05621 0.2428 0.73911 0.0
C2098 C 0.04075 0.23589 0.77943 0.0
C2099 C 0.03779 0.24663 0.80585 0.0
C2100 C 0.08151 0.32339 0.7512 0.0
C2101 C 0.06744 0.27611 0.76687 0.0
C2102 C 0.08375 0.34227 0.72978 0.0
C2103 C 0.08071 0.33335 0.70265 0.0
C2104 C 0.0762 0.29555 0.74528 0.0
C2105 C 0.07765 0.30511 0.69766 0.0
C2106 C 0.05575 0.25049 0.75992 0.0
C2107 C 0.05283 0.2704 0.81286 0.0
N2108 N 0.07507 0.28733 0.71872 0.0
N2109 N 0.06642 0.28474 0.79332 0.0
H2110 H 0.49046 0.31154 0.54672 0.0
H2111 H 0.34945 0.3271 0.46455 0.0
H2112 H 0.41251 0.28744 0.58078 0.0
H2113 H 0.42933 0.33257 0.42749 0.0
H2114 H 0.37134 0.31699 0.50866 0.0
H2115 H 0.46753 0.32372 0.50413 0.0
C2116 C 0.46849 0.30883 0.54526 0.0
C2117 C 0.4534 0.29838 0.56734 0.0
C2118 C 0.384 0.32046 0.49083 0.0
C2119 C 0.4269 0.31242 0.51852 0.0
C2120 C 0.37154 0.32636 0.4657 0.0
C2121 C 0.38755 0.33059 0.44222 0.0
C2122 C 0.41265 0.31911 0.49252 0.0
C2123 C 0.4161 0.32926 0.44493 0.0
C2124 C 0.45539 0.31576 0.52089 0.0
C2125 C 0.42495 0.29534 0.56422 0.0
N2126 N 0.42767 0.32368 0.46953 0.0
N2127 N 0.41259 0.30236 0.54027 0.0
H2128 H 0.18572 0.51769 0.3008 0.0
H2129 H 0.28561 0.39316 0.27219 0.0
H2130 H 0.19404 0.48073 0.22095 0.0
H2131 H 0.26061 0.4183 0.35304 0.0
H2132 H 0.25369 0.42582 0.25245 0.0
H2133 H 0.21645 0.48354 0.31956 0.0
C2134 C 0.19429 0.50259 0.28713 0.0
C2135 C 0.18722 0.50197 0.25929 0.0
C2136 C 0.25501 0.42396 0.2745 0.0
C2137 C 0.22213 0.46257 0.28073 0.0
C2138 C 0.27312 0.40522 0.2858 0.0
C2139 C 0.27593 0.40306 0.31435 0.0
C2140 C 0.23985 0.44088 0.29186 0.0
C2141 C 0.25916 0.41919 0.33094 0.0
C2142 C 0.21162 0.48293 0.29792 0.0
C2143 C 0.19891 0.48191 0.24256 0.0
N2144 N 0.24209 0.43764 0.31946 0.0
N2145 N 0.21576 0.46293 0.25356 0.0
H2146 H 0.33172 0.45658 0.94191 0.0
H2147 H 0.40548 0.54137 0.0606 0.0
H2148 H 0.36819 0.42305 0.0147 0.0
H2149 H 0.35125 0.57788 0.00165 0.0
H2150 H 0.40505 0.49934 0.03377 0.0
H2151 H 0.3512 0.50181 0.95405 0.0
C2152 C 0.34443 0.45868 0.96002 0.0
C2153 C 0.34803 0.43651 0.97775 0.0
C2154 C 0.39344 0.5166 0.02649 0.0
C2155 C 0.37025 0.48739 0.99148 0.0
C2156 C 0.39354 0.54051 0.04188 0.0
C2157 C 0.37757 0.56264 0.03376 0.0
C2158 C 0.37675 0.51458 0.00315 0.0
C2159 C 0.36333 0.56092 0.00884 0.0
C2160 C 0.35541 0.48436 0.96695 0.0
C2161 C 0.36457 0.43993 0.00089 0.0
N2162 N 0.3627 0.53693 -0.00536 0.0
N2163 N 0.37488 0.46499 0.00723 0.0
H2164 H 0.29312 0.49491 0.70935 0.0
H2165 H 0.25294 0.57237 0.84755 0.0
H2166 H 0.32525 0.47547 0.78937 0.0
H2167 H 0.21511 0.58768 0.76927 0.0
H2168 H 0.28632 0.54334 0.82471 0.0
H2169 H 0.26932 0.53379 0.72951 0.0
C2170 C 0.29508 0.49869 0.73112 0.0
C2171 C 0.311 0.48166 0.74769 0.0
C2172 C 0.27102 0.55347 0.81246 0.0
C2173 C 0.28423 0.52637 0.7708 0.0
C2174 C 0.25221 0.57035 0.82547 0.0
C2175 C 0.23099 0.58202 0.81032 0.0
C2176 C 0.26846 0.54831 0.78421 0.0
C2177 C 0.23091 0.57861 0.78176 0.0
C2178 C 0.28168 0.52103 0.74259 0.0
C2179 C 0.31305 0.48783 0.77575 0.0
N2180 N 0.24903 0.56169 0.76967 0.0
N2181 N 0.29978 0.50957 0.78639 0.0
H2182 H 0.19388 0.56344 0.49741 0.0
H2183 H 0.11818 0.49256 0.62208 0.0
H2184 H 0.17249 0.60637 0.57158 0.0
H2185 H 0.12818 0.45426 0.543 0.0
H2186 H 0.13242 0.53632 0.60209 0.0
H2187 H 0.16409 0.52548 0.51126 0.0
C2188 C 0.18263 0.56512 0.51638 0.0
C2189 C 0.1863 0.58789 0.53364 0.0
C2190 C 0.13115 0.51837 0.58905 0.0
C2191 C 0.15246 0.54427 0.54986 0.0
C2192 C 0.12306 0.49336 0.6005 0.0
C2193 C 0.12258 0.46949 0.58441 0.0
C2194 C 0.13904 0.51949 0.56141 0.0
C2195 C 0.12879 0.47194 0.55642 0.0
C2196 C 0.16561 0.5434 0.52433 0.0
C2197 C 0.17081 0.589 0.55782 0.0
N2198 N 0.13712 0.49633 0.54594 0.0
N2199 N 0.155 0.5673 0.56546 0.0
H2200 H 0.15254 0.60308 0.14363 0.0
H2201 H 0.31405 0.61574 0.16346 0.0
H2202 H 0.19442 0.59596 0.2212 0.0
H2203 H 0.27468 0.62418 0.08474 0.0
H2204 H 0.26955 0.61354 0.18512 0.0
H2205 H 0.1958 0.61666 0.12228 0.0
C2206 C 0.17069 0.60482 0.15631 0.0
C2207 C 0.16988 0.59787 0.18423 0.0
C2208 C 0.27051 0.61592 0.1631 0.0
C2209 C 0.21947 0.61315 0.15977 0.0
C2210 C 0.29601 0.61701 0.15064 0.0
C2211 C 0.29819 0.61967 0.12211 0.0
C2212 C 0.24675 0.61721 0.14705 0.0
C2213 C 0.27398 0.62183 0.10676 0.0
C2214 C 0.19541 0.61245 0.14403 0.0
C2215 C 0.19406 0.60067 0.19956 0.0
N2216 N 0.24921 0.62027 0.1194 0.0
N2217 N 0.21785 0.60778 0.18708 0.0
H2218 H 0.24321 0.41269 0.92277 0.0
H2219 H 0.14867 0.54343 0.92959 0.0
H2220 H 0.22681 0.45962 -0.00421 0.0
H2221 H 0.17077 0.50377 0.85407 0.0
H2222 H 0.16674 0.50478 0.95505 0.0
H2223 H 0.20808 0.43849 0.89855 0.0
C2224 C 0.23206 0.4282 0.9338 0.0
C2225 C 0.2384 0.43439 0.96122 0.0
C2226 C 0.16717 0.50416 0.9329 0.0
C2227 C 0.19808 0.46377 0.93368 0.0
C2228 C 0.15665 0.52613 0.91837 0.0
C2229 C 0.15864 0.52687 0.88977 0.0
C2230 C 0.18031 0.48307 0.91873 0.0
C2231 C 0.16897 0.50394 0.87615 0.0
C2232 C 0.21197 0.44286 0.91997 0.0
C2233 C 0.22306 0.45449 0.97452 0.0
N2234 N 0.18008 0.48319 0.89081 0.0
N2235 N 0.20385 0.4686 0.96056 0.0
H2236 H 0.29247 0.36964 0.75503 0.0
H2237 H 0.21034 0.37861 0.61332 0.0
H2238 H 0.33159 0.384 0.67723 0.0
H2239 H 0.17335 0.38147 0.6934 0.0
H2240 H 0.25494 0.37155 0.63519 0.0
H2241 H 0.24878 0.36352 0.73127 0.0
C2242 C 0.29196 0.37105 0.73291 0.0
C2243 C 0.31557 0.37792 0.71813 0.0
C2244 C 0.23698 0.37357 0.64789 0.0
C2245 C 0.26562 0.3713 0.69084 0.0
C2246 C 0.21155 0.37764 0.63543 0.0
C2247 C 0.18812 0.38111 0.65154 0.0
C2248 C 0.23887 0.37269 0.6766 0.0
C2249 C 0.19089 0.37942 0.68012 0.0
C2250 C 0.26698 0.36772 0.71935 0.0
C2251 C 0.31375 0.37921 0.68946 0.0
N2252 N 0.21575 0.37544 0.69168 0.0
N2253 N 0.28912 0.37632 0.67675 0.0
H2254 H 0.30312 0.53935 0.50004 0.0
H2255 H 0.32946 0.46881 0.3543 0.0
H2256 H 0.27462 0.57253 0.42346 0.0
H2257 H 0.35517 0.43473 0.43148 0.0
H2258 H 0.31339 0.50941 0.37866 0.0
H2259 H 0.32497 0.50232 0.47485 0.0
C2260 C 0.30133 0.53876 0.47794 0.0
C2261 C 0.28694 0.55899 0.46385 0.0
C2262 C 0.32285 0.49317 0.39021 0.0
C2263 C 0.31216 0.51686 0.4348 0.0
C2264 C 0.3323 0.47013 0.37626 0.0
C2265 C 0.34347 0.44825 0.3909 0.0
C2266 C 0.32463 0.4943 0.41894 0.0
C2267 C 0.34641 0.45098 0.41939 0.0
C2268 C 0.31394 0.51771 0.46353 0.0
C2269 C 0.28543 0.55729 0.43518 0.0
N2270 N 0.33683 0.47341 0.43248 0.0
N2271 N 0.29787 0.53661 0.4216 0.0
H2272 H 0.17558 0.22223 0.44048 0.0
H2273 H 0.33076 0.25584 0.39856 0.0
H2274 H 0.24647 0.19068 0.482 0.0
H2275 H 0.26185 0.29818 0.36423 0.0
H2276 H 0.29913 0.22715 0.42488 0.0
H2277 H 0.20607 0.24848 0.41015 0.0
C2278 C 0.19747 0.22128 0.44358 0.0
C2279 C 0.20852 0.20416 0.46365 0.0
C2280 C 0.2909 0.24252 0.41133 0.0
C2281 C 0.24337 0.23329 0.42871 0.0
C2282 C 0.30897 0.25858 0.39596 0.0
C2283 C 0.29894 0.27962 0.37946 0.0
C2284 C 0.26267 0.24752 0.41009 0.0
C2285 C 0.27045 0.28239 0.37703 0.0
C2286 C 0.21487 0.23593 0.42606 0.0
C2287 C 0.23707 0.20342 0.46659 0.0
N2288 N 0.25331 0.26678 0.39246 0.0
N2289 N 0.25346 0.21756 0.44921 0.0
H2290 H 0.70839 0.294 0.60587 0.0
H2291 H 0.85048 0.21473 0.60468 0.0
H2292 H 0.78717 0.33315 0.59468 0.0
H2293 H 0.77159 0.17381 0.60408 0.0
H2294 H 0.8276 0.25863 0.60764 0.0
H2295 H 0.73131 0.25021 0.6127 0.0
C2296 C 0.73051 0.29346 0.60534 0.0
C2297 C 0.74592 0.31711 0.59941 0.0
C2298 C 0.81529 0.24004 0.60693 0.0
C2299 C 0.77217 0.26727 0.6069 0.0
C2300 C 0.82835 0.21492 0.60516 0.0
C2301 C 0.81297 0.19047 0.60379 0.0
C2302 C 0.78661 0.24082 0.60735 0.0
C2303 C 0.78432 0.19211 0.60479 0.0
C2304 C 0.74356 0.26847 0.60905 0.0
C2305 C 0.7745 0.31531 0.59889 0.0
N2306 N 0.77207 0.21686 0.60638 0.0
N2307 N 0.78669 0.29079 0.60236 0.0
H2308 H 0.39852 0.11552 0.32729 0.0
H2309 H 0.53671 0.04619 0.37069 0.0
H2310 H 0.42112 0.03388 0.30277 0.0
H2311 H 0.50925 0.12336 0.40311 0.0
H2312 H 0.49064 0.03716 0.3531 0.0
H2313 H 0.43448 0.11496 0.36205 0.0
C2314 C 0.4107 0.0973 0.32948 0.0
C2315 C 0.40718 0.07501 0.31155 0.0
C2316 C 0.49457 0.05586 0.36451 0.0
C2317 C 0.44867 0.07436 0.35112 0.0
C2318 C 0.5209 0.06097 0.37465 0.0
C2319 C 0.52711 0.08593 0.38772 0.0
C2320 C 0.47442 0.07594 0.36726 0.0
C2321 C 0.50563 0.10415 0.3925 0.0
C2322 C 0.43127 0.09697 0.34936 0.0
C2323 C 0.42339 0.05181 0.31571 0.0
N2324 N 0.48043 0.09906 0.38181 0.0
N2325 N 0.44373 0.0523 0.33466 0.0
H2326 H 0.7541 0.71523 0.07015 0.0
H2327 H 0.60939 0.77102 0.11619 0.0
H2328 H 0.68419 0.66178 0.08198 0.0
H2329 H 0.66811 0.81984 0.07094 0.0
H2330 H 0.63745 0.73073 0.10807 0.0
H2331 H 0.72437 0.75485 0.07685 0.0
C2332 C 0.73262 0.71191 0.07451 0.0
C2333 C 0.72143 0.68542 0.07541 0.0
C2334 C 0.64394 0.75029 0.09974 0.0
C2335 C 0.68758 0.73009 0.08285 0.0
C2336 C 0.62786 0.77323 0.10419 0.0
C2337 C 0.63653 0.79895 0.09455 0.0
C2338 C 0.66893 0.75326 0.08592 0.0
C2339 C 0.6607 0.80053 0.07908 0.0
C2340 C 0.71565 0.73438 0.07802 0.0
C2341 C 0.69347 0.68201 0.08093 0.0
N2342 N 0.67626 0.77808 0.0756 0.0
N2343 N 0.67745 0.70411 0.0845 0.0
H2344 H 0.53157 0.48958 0.27719 0.0
H2345 H 0.45771 0.34619 0.30482 0.0
H2346 H 0.55676 0.41459 0.23825 0.0
H2347 H 0.44438 0.41913 0.35262 0.0
H2348 H 0.49688 0.36906 0.28292 0.0
H2349 H 0.50064 0.46311 0.30616 0.0
C2350 C 0.53048 0.46757 0.27459 0.0
C2351 C 0.5467 0.45435 0.25511 0.0
C2352 C 0.48572 0.37982 0.29864 0.0
C2353 C 0.51142 0.42376 0.28851 0.0
C2354 C 0.46361 0.36664 0.31138 0.0
C2355 C 0.44768 0.38095 0.3303 0.0
C2356 C 0.49165 0.40742 0.30487 0.0
C2357 C 0.45597 0.40753 0.33785 0.0
C2358 C 0.513 0.45239 0.29135 0.0
C2359 C 0.54459 0.42568 0.25294 0.0
N2360 N 0.47709 0.42005 0.32481 0.0
N2361 N 0.52717 0.41135 0.26933 0.0
H2362 H 0.16028 0.83566 0.93091 0.0
H2363 H 0.22022 0.68839 0.90537 0.0
H2364 H 0.22169 0.80021 0.98313 0.0
H2365 H 0.16752 0.73009 0.84854 0.0
H2366 H 0.22766 0.73153 0.92989 0.0
H2367 H 0.16749 0.79935 0.89768 0.0
C2368 C 0.17524 0.82017 0.93546 0.0
C2369 C 0.19003 0.82075 0.96014 0.0
C2370 C 0.21496 0.73137 0.91169 0.0
C2371 C 0.19854 0.77896 0.92188 0.0
C2372 C 0.21092 0.70676 0.89747 0.0
C2373 C 0.19256 0.70545 0.87531 0.0
C2374 C 0.20046 0.75467 0.9037 0.0
C2375 C 0.18127 0.72999 0.86596 0.0
C2376 C 0.17957 0.79954 0.9163 0.0
C2377 C 0.20958 0.8004 0.96454 0.0
N2378 N 0.1849 0.75344 0.88054 0.0
N2379 N 0.21302 0.78012 0.94577 0.0
H2380 H 0.41153 0.9699 0.22337 0.0
H2381 H 0.57224 0.9484 0.21586 0.0
H2382 H 0.47025 0.03675 0.22252 0.0
H2383 H 0.51267 0.88722 0.19031 0.0
H2384 H 0.53516 0.97865 0.22842 0.0
H2385 H 0.44877 0.93757 0.22034 0.0
C2386 C 0.43231 0.97779 0.22255 0.0
C2387 C 0.43789 0.00605 0.22291 0.0
C2388 C 0.53027 0.95851 0.22027 0.0
C2389 C 0.48051 0.9691 0.21968 0.0
C2390 C 0.55138 0.94112 0.21322 0.0
C2391 C 0.54554 0.91537 0.2015 0.0
C2392 C 0.50318 0.95003 0.21578 0.0
C2393 C 0.51812 0.90703 0.19887 0.0
C2394 C 0.45352 0.9593 0.22086 0.0
C2395 C 0.46514 0.01512 0.22196 0.0
N2396 N 0.49791 0.92445 0.20575 0.0
N2397 N 0.48555 -0.00338 0.22035 0.0
H2398 H 0.05053 0.97498 0.65219 0.0
H2399 H 0.97248 0.1067 0.6 0.0
H2400 H 0.08058 0.05822 0.65858 0.0
H2401 H 0.93436 0.02772 0.61351 0.0
H2402 H 0.01736 0.08554 0.60468 0.0
H2403 H 0.01337 0.99088 0.62253 0.0
C2404 C 0.04951 -0.00351 0.64702 0.0
C2405 C 0.068 0.01548 0.65846 0.0
C2406 C -0.00086 0.07275 0.60598 0.0
C2407 C 0.02612 0.03367 0.62454 0.0
C2408 C 0.97358 0.08481 0.60319 0.0
C2409 C 0.94982 0.06906 0.60737 0.0
C2410 C 0.00072 0.0449 0.61297 0.0
C2411 C 0.95231 0.04071 0.61108 0.0
C2412 C 0.02843 0.00554 0.63007 0.0
C2413 C 0.06618 0.04304 0.6508 0.0
N2414 N 0.97733 0.02959 0.61435 0.0
N2415 N 0.04538 0.05137 0.6346 0.0
loop_
_geom_bond_atom_site_label_1
_geom_bond_atom_site_label_2
_geom_bond_distance
_geom_bond_site_symmetry_2
_ccdc_geom_bond_type
Co0 O1 2.216 1_655 S
Co0 O2 2.091 . S
Co0 O4 2.004 . S
Co0 O10 2.021 1_655 S
Co0 O12 2.140 . S
Co0 O13 2.244 1_655 S
O1 Co0 2.216 1_455 S
O1 C8 1.247 1_455 S
O2 Co0 2.091 . S
O2 C8 1.261 . S
C3 O12 1.221 1_455 S
C3 O13 1.272 . S
O4 Co0 2.004 . S
O4 C9 1.259 . S
Co5 O6 2.061 . S
Co5 O11 2.052 . S
Co5 O13 2.135 . S
O6 Co5 2.061 . S
O6 C9 1.235 1_455 S
C7 O10 1.238 . S
C7 O11 1.241 . S
C8 O1 1.247 1_655 S
C8 O2 1.261 . S
C9 O4 1.259 . S
C9 O6 1.235 1_655 S
O10 Co0 2.021 1_455 S
O10 C7 1.238 . S
O11 Co5 2.052 . S
O11 C7 1.241 . S
O12 Co0 2.140 . S
O12 C3 1.221 1_655 S
O13 Co0 2.244 1_455 S
O13 C3 1.272 . S
O13 Co5 2.135 . S
Co14 O15 2.216 . S
Co14 O16 2.091 . S
Co14 O18 2.004 1_655 S
Co14 O24 2.021 1_655 S
Co14 O26 2.137 . S
Co14 O27 2.244 . S
O15 Co14 2.216 . S
O15 C22 1.247 . S
O16 Co14 2.091 . S
O16 C22 1.261 . S
C17 O26 1.247 . S
C17 O27 1.272 . S
O18 Co14 2.004 1_455 S
O18 C23 1.259 . S
Co19 O20 2.061 . S
Co19 O25 2.052 . S
Co19 O27 2.135 1_455 S
O20 Co19 2.061 . S
O20 C23 1.235 . S
C21 O24 1.238 . S
C21 O25 1.241 . S
C22 O15 1.247 . S
C22 O16 1.261 . S
C23 O18 1.259 . S
C23 O20 1.235 . S
O24 Co14 2.021 1_455 S
O24 C21 1.238 . S
O25 Co19 2.052 . S
O25 C21 1.241 . S
O26 Co14 2.137 . S
O26 C17 1.247 . S
O27 Co14 2.244 . S
O27 C17 1.272 . S
O27 Co19 2.135 1_655 S
Co28 O29 2.216 . S
Co28 O30 2.091 . S
Co28 O32 2.004 . S
Co28 O38 2.021 . S
Co28 O40 2.137 . S
Co28 O41 2.244 . S
O29 Co28 2.216 . S
O29 C36 1.247 . S
O30 Co28 2.091 . S
O30 C36 1.261 . S
C31 O40 1.247 . S
C31 O41 1.272 . S
O32 Co28 2.004 . S
O32 C37 1.259 . S
Co33 O34 2.061 . S
Co33 O39 2.052 . S
Co33 O41 2.135 . S
O34 Co33 2.061 . S
O34 C37 1.235 . S
C35 O38 1.238 . S
C35 O39 1.241 . S
C36 O29 1.247 . S
C36 O30 1.261 . S
C37 O32 1.259 . S
C37 O34 1.235 . S
O38 Co28 2.021 . S
O38 C35 1.238 . S
O39 Co33 2.052 . S
O39 C35 1.241 . S
O40 Co28 2.137 . S
O40 C31 1.247 . S
O41 Co28 2.244 . S
O41 C31 1.272 . S
O41 Co33 2.135 . S
Co42 O43 2.216 . S
Co42 O44 2.091 . S
Co42 O46 2.004 . S
Co42 O52 2.021 . S
Co42 O54 2.137 . S
Co42 O55 2.244 . S
O43 Co42 2.216 . S
O43 C50 1.247 . S
O44 Co42 2.091 . S
O44 C50 1.261 . S
C45 O54 1.247 . S
C45 O55 1.272 . S
O46 Co42 2.004 . S
O46 C51 1.259 . S
Co47 O48 2.061 . S
Co47 O53 2.052 . S
Co47 O55 2.135 . S
O48 Co47 2.061 . S
O48 C51 1.235 . S
C49 O52 1.238 . S
C49 O53 1.241 . S
C50 O43 1.247 . S
C50 O44 1.261 . S
C51 O46 1.259 . S
C51 O48 1.235 . S
O52 Co42 2.021 . S
O52 C49 1.238 . S
O53 Co47 2.052 . S
O53 C49 1.241 . S
O54 Co42 2.137 . S
O54 C45 1.247 . S
O55 Co42 2.244 . S
O55 C45 1.272 . S
O55 Co47 2.135 . S
Co56 O57 2.216 1_655 S
Co56 O58 2.091 . S
Co56 O60 2.004 . S
Co56 O66 2.021 1_655 S
Co56 O68 2.137 . S
Co56 O69 2.244 1_655 S
O57 Co56 2.216 1_455 S
O57 C64 1.247 1_455 S
O58 Co56 2.091 . S
O58 C64 1.261 . S
C59 O68 1.247 1_455 S
C59 O69 1.272 . S
O60 Co56 2.004 . S
O60 C65 1.259 . S
Co61 O62 2.061 . S
Co61 O67 2.052 . S
Co61 O69 2.135 . S
O62 Co61 2.061 . S
O62 C65 1.235 1_455 S
C63 O66 1.238 . S
C63 O67 1.241 . S
C64 O57 1.247 1_655 S
C64 O58 1.261 . S
C65 O60 1.259 . S
C65 O62 1.235 1_655 S
O66 Co56 2.021 1_455 S
O66 C63 1.238 . S
O67 Co61 2.052 . S
O67 C63 1.241 . S
O68 Co56 2.137 . S
O68 C59 1.247 1_655 S
O69 Co56 2.244 1_455 S
O69 C59 1.272 . S
O69 Co61 2.135 . S
Co70 O71 2.216 . S
Co70 O72 2.091 . S
Co70 O74 2.004 . S
Co70 O80 2.021 . S
Co70 O82 2.137 . S
Co70 O83 2.244 . S
O71 Co70 2.216 . S
O71 C78 1.247 . S
O72 Co70 2.091 . S
O72 C78 1.261 . S
C73 O82 1.247 . S
C73 O83 1.272 . S
O74 Co70 2.004 . S
O74 C79 1.259 . S
Co75 O76 2.061 . S
Co75 O81 2.052 . S
Co75 O83 2.135 . S
O76 Co75 2.061 . S
O76 C79 1.235 . S
C77 O80 1.238 . S
C77 O81 1.241 . S
C78 O71 1.247 . S
C78 O72 1.261 . S
C79 O74 1.259 . S
C79 O76 1.235 . S
O80 Co70 2.021 . S
O80 C77 1.238 . S
O81 Co75 2.052 . S
O81 C77 1.241 . S
O82 Co70 2.137 . S
O82 C73 1.247 . S
O83 Co70 2.244 . S
O83 C73 1.272 . S
O83 Co75 2.135 . S
Co84 O85 2.216 . S
Co84 O86 2.091 . S
Co84 O88 2.004 . S
Co84 O94 2.021 . S
Co84 O96 2.137 . S
Co84 O97 2.244 . S
O85 Co84 2.216 . S
O85 C92 1.247 . S
O86 Co84 2.091 . S
O86 C92 1.261 . S
C87 O96 1.247 . S
C87 O97 1.272 . S
O88 Co84 2.004 . S
O88 C93 1.259 . S
Co89 O90 2.061 . S
Co89 O95 2.052 . S
Co89 O97 2.135 . S
O90 Co89 2.061 . S
O90 C93 1.235 . S
C91 O94 1.238 . S
C91 O95 1.241 . S
C92 O85 1.247 . S
C92 O86 1.261 . S
C93 O88 1.259 . S
C93 O90 1.235 . S
O94 Co84 2.021 . S
O94 C91 1.238 . S
O95 Co89 2.052 . S
O95 C91 1.241 . S
O96 Co84 2.137 . S
O96 C87 1.247 . S
O97 Co84 2.244 . S
O97 C87 1.272 . S
O97 Co89 2.135 . S
Co98 O99 2.216 . S
Co98 O100 2.091 . S
Co98 O102 2.004 1_655 S
Co98 O108 2.021 1_655 S
Co98 O110 2.137 . S
Co98 O111 2.244 . S
O99 Co98 2.216 . S
O99 C106 1.247 . S
O100 Co98 2.091 . S
O100 C106 1.261 . S
C101 O110 1.247 . S
C101 O111 1.272 . S
O102 Co98 2.004 1_455 S
O102 C107 1.259 . S
Co103 O104 2.061 . S
Co103 O109 2.052 . S
Co103 O111 2.135 1_455 S
O104 Co103 2.061 . S
O104 C107 1.235 . S
C105 O108 1.238 . S
C105 O109 1.241 . S
C106 O99 1.247 . S
C106 O100 1.261 . S
C107 O102 1.259 . S
C107 O104 1.235 . S
O108 Co98 2.021 1_455 S
O108 C105 1.238 . S
O109 Co103 2.052 . S
O109 C105 1.241 . S
O110 Co98 2.137 . S
O110 C101 1.247 . S
O111 Co98 2.244 . S
O111 C101 1.272 . S
O111 Co103 2.135 1_655 S
Co112 O113 2.216 1_565 S
Co112 O114 2.091 . S
Co112 O116 2.004 . S
Co112 O122 2.021 1_565 S
Co112 O124 2.138 . S
Co112 O125 2.244 1_565 S
O113 Co112 2.216 1_545 S
O113 C120 1.247 1_545 S
O114 Co112 2.091 . S
O114 C120 1.261 . S
C115 O124 1.241 1_545 S
C115 O125 1.272 . S
O116 Co112 2.004 . S
O116 C121 1.259 . S
Co117 O118 2.061 . S
Co117 O123 2.052 . S
Co117 O125 2.135 . S
O118 Co117 2.061 . S
O118 C121 1.235 1_545 S
C119 O122 1.238 . S
C119 O123 1.241 . S
C120 O113 1.247 1_565 S
C120 O114 1.261 . S
C121 O116 1.259 . S
C121 O118 1.235 1_565 S
O122 Co112 2.021 1_545 S
O122 C119 1.238 . S
O123 Co117 2.052 . S
O123 C119 1.241 . S
O124 Co112 2.138 . S
O124 C115 1.241 1_565 S
O125 Co112 2.244 1_545 S
O125 C115 1.272 . S
O125 Co117 2.135 . S
Co126 O127 2.216 . S
Co126 O128 2.091 . S
Co126 O130 2.004 . S
Co126 O136 2.021 . S
Co126 O138 2.137 . S
Co126 O139 2.244 . S
O127 Co126 2.216 . S
O127 C134 1.247 . S
O128 Co126 2.091 . S
O128 C134 1.261 . S
C129 O138 1.247 . S
C129 O139 1.272 . S
O130 Co126 2.004 . S
O130 C135 1.259 . S
Co131 O132 2.061 . S
Co131 O137 2.052 . S
Co131 O139 2.135 . S
O132 Co131 2.061 . S
O132 C135 1.235 . S
C133 O136 1.238 . S
C133 O137 1.241 . S
C134 O127 1.247 . S
C134 O128 1.261 . S
C135 O130 1.259 . S
C135 O132 1.235 . S
O136 Co126 2.021 . S
O136 C133 1.238 . S
O137 Co131 2.052 . S
O137 C133 1.241 . S
O138 Co126 2.137 . S
O138 C129 1.247 . S
O139 Co126 2.244 . S
O139 C129 1.272 . S
O139 Co131 2.135 . S
Co140 O141 2.216 1_565 S
Co140 O142 2.091 . S
Co140 O144 2.004 . S
Co140 O150 2.021 1_565 S
Co140 O152 2.137 . S
Co140 O153 2.244 1_565 S
O141 Co140 2.216 1_545 S
O141 C148 1.247 1_545 S
O142 Co140 2.091 . S
O142 C148 1.261 . S
C143 O152 1.247 1_545 S
C143 O153 1.272 . S
O144 Co140 2.004 . S
O144 C149 1.259 . S
Co145 O146 2.061 . S
Co145 O151 2.052 . S
Co145 O153 2.135 . S
O146 Co145 2.061 . S
O146 C149 1.235 1_545 S
C147 O150 1.238 . S
C147 O151 1.241 . S
C148 O141 1.247 1_565 S
C148 O142 1.261 . S
C149 O144 1.259 . S
C149 O146 1.235 1_565 S
O150 Co140 2.021 1_545 S
O150 C147 1.238 . S
O151 Co145 2.052 . S
O151 C147 1.241 . S
O152 Co140 2.137 . S
O152 C143 1.247 1_565 S
O153 Co140 2.244 1_545 S
O153 C143 1.272 . S
O153 Co145 2.135 . S
Co154 O155 2.216 . S
Co154 O156 2.091 . S
Co154 O158 2.004 1_554 S
Co154 O164 2.021 1_554 S
Co154 O166 2.137 . S
Co154 O167 2.244 . S
O155 Co154 2.216 . S
O155 C162 1.247 . S
O156 Co154 2.091 . S
O156 C162 1.261 . S
C157 O166 1.247 . S
C157 O167 1.272 . S
O158 Co154 2.004 1_556 S
O158 C163 1.259 . S
Co159 O160 2.061 . S
Co159 O165 2.052 . S
Co159 O167 2.135 1_556 S
O160 Co159 2.061 . S
O160 C163 1.235 . S
C161 O164 1.238 . S
C161 O165 1.241 . S
C162 O155 1.247 . S
C162 O156 1.261 . S
C163 O158 1.259 . S
C163 O160 1.235 . S
O164 Co154 2.021 1_556 S
O164 C161 1.238 . S
O165 Co159 2.052 . S
O165 C161 1.241 . S
O166 Co154 2.137 . S
O166 C157 1.247 . S
O167 Co154 2.244 . S
O167 C157 1.272 . S
O167 Co159 2.135 1_554 S
Co168 O169 2.216 1_556 S
Co168 O170 2.091 . S
Co168 O172 2.004 . S
Co168 O178 2.021 1_556 S
Co168 O180 2.137 . S
Co168 O181 2.244 1_556 S
O169 Co168 2.216 1_554 S
O169 C176 1.247 1_554 S
O170 Co168 2.091 . S
O170 C176 1.261 . S
C171 O180 1.247 1_554 S
C171 O181 1.272 . S
O172 Co168 2.004 . S
O172 C177 1.259 . S
Co173 O174 2.061 . S
Co173 O179 2.052 . S
Co173 O181 2.135 . S
O174 Co173 2.061 . S
O174 C177 1.235 1_554 S
C175 O178 1.238 . S
C175 O179 1.241 . S
C176 O169 1.247 1_556 S
C176 O170 1.261 . S
C177 O172 1.259 . S
C177 O174 1.235 1_556 S
O178 Co168 2.021 1_554 S
O178 C175 1.238 . S
O179 Co173 2.052 . S
O179 C175 1.241 . S
O180 Co168 2.137 . S
O180 C171 1.247 1_556 S
O181 Co168 2.244 1_554 S
O181 C171 1.272 . S
O181 Co173 2.135 . S
Co182 O183 2.216 1_556 S
Co182 O184 2.091 . S
Co182 O186 2.004 . S
Co182 O192 2.021 1_556 S
Co182 O194 2.137 . S
Co182 O195 2.244 1_556 S
O183 Co182 2.216 1_554 S
O183 C190 1.247 1_554 S
O184 Co182 2.091 . S
O184 C190 1.261 . S
C185 O194 1.247 1_554 S
C185 O195 1.272 . S
O186 Co182 2.004 . S
O186 C191 1.259 . S
Co187 O188 2.061 . S
Co187 O193 2.052 . S
Co187 O195 2.135 . S
O188 Co187 2.061 . S
O188 C191 1.235 1_554 S
C189 O192 1.238 . S
C189 O193 1.241 . S
C190 O183 1.247 1_556 S
C190 O184 1.261 . S
C191 O186 1.259 . S
C191 O188 1.235 1_556 S
O192 Co182 2.021 1_554 S
O192 C189 1.238 . S
O193 Co187 2.052 . S
O193 C189 1.241 . S
O194 Co182 2.137 . S
O194 C185 1.247 1_556 S
O195 Co182 2.244 1_554 S
O195 C185 1.272 . S
O195 Co187 2.135 . S
Co196 O197 2.216 . S
Co196 O198 2.091 . S
Co196 O200 2.004 . S
Co196 O206 2.021 . S
Co196 O208 2.137 . S
Co196 O209 2.244 . S
O197 Co196 2.216 . S
O197 C204 1.247 . S
O198 Co196 2.091 . S
O198 C204 1.261 . S
C199 O208 1.247 . S
C199 O209 1.272 . S
O200 Co196 2.004 . S
O200 C205 1.259 . S
Co201 O202 2.061 . S
Co201 O207 2.052 . S
Co201 O209 2.135 . S
O202 Co201 2.061 . S
O202 C205 1.235 . S
C203 O206 1.238 . S
C203 O207 1.241 . S
C204 O197 1.247 . S
C204 O198 1.261 . S
C205 O200 1.259 . S
C205 O202 1.235 . S
O206 Co196 2.021 . S
O206 C203 1.238 . S
O207 Co201 2.052 . S
O207 C203 1.241 . S
O208 Co196 2.137 . S
O208 C199 1.247 . S
O209 Co196 2.244 . S
O209 C199 1.272 . S
O209 Co201 2.135 . S
Co210 O211 2.216 . S
Co210 O212 2.091 . S
Co210 O214 2.004 . S
Co210 O220 2.021 . S
Co210 O222 2.137 . S
Co210 O223 2.244 . S
O211 Co210 2.216 . S
O211 C218 1.247 . S
O212 Co210 2.091 . S
O212 C218 1.261 . S
C213 O222 1.247 . S
C213 O223 1.272 . S
O214 Co210 2.004 . S
O214 C219 1.259 . S
Co215 O216 2.061 . S
Co215 O221 2.052 . S
Co215 O223 2.135 . S
O216 Co215 2.061 . S
O216 C219 1.235 . S
C217 O220 1.238 . S
C217 O221 1.241 . S
C218 O211 1.247 . S
C218 O212 1.261 . S
C219 O214 1.259 . S
C219 O216 1.235 . S
O220 Co210 2.021 . S
O220 C217 1.238 . S
O221 Co215 2.052 . S
O221 C217 1.241 . S
O222 Co210 2.137 . S
O222 C213 1.247 . S
O223 Co210 2.244 . S
O223 C213 1.272 . S
O223 Co215 2.135 . S
Co224 O225 2.216 . S
Co224 O226 2.091 . S
Co224 O228 2.004 1_565 S
Co224 O234 2.021 1_565 S
Co224 O236 2.137 . S
Co224 O237 2.244 . S
O225 Co224 2.216 . S
O225 C232 1.247 . S
O226 Co224 2.091 . S
O226 C232 1.261 . S
C227 O236 1.247 . S
C227 O237 1.272 . S
O228 Co224 2.004 1_545 S
O228 C233 1.259 . S
Co229 O230 2.061 . S
Co229 O235 2.052 . S
Co229 O237 2.135 1_545 S
O230 Co229 2.061 . S
O230 C233 1.235 . S
C231 O234 1.238 . S
C231 O235 1.241 . S
C232 O225 1.247 . S
C232 O226 1.261 . S
C233 O228 1.259 . S
C233 O230 1.235 . S
O234 Co224 2.021 1_545 S
O234 C231 1.238 . S
O235 Co229 2.052 . S
O235 C231 1.241 . S
O236 Co224 2.137 . S
O236 C227 1.247 . S
O237 Co224 2.244 . S
O237 C227 1.272 . S
O237 Co229 2.135 1_565 S
Co238 O239 2.216 . S
Co238 O240 2.091 . S
Co238 O242 2.004 . S
Co238 O248 2.021 . S
Co238 O250 2.137 . S
Co238 O251 2.244 . S
O239 Co238 2.216 . S
O239 C246 1.247 . S
O240 Co238 2.091 . S
O240 C246 1.261 . S
C241 O250 1.247 . S
C241 O251 1.272 . S
O242 Co238 2.004 . S
O242 C247 1.259 . S
Co243 O244 2.061 . S
Co243 O249 2.052 . S
Co243 O251 2.135 . S
O244 Co243 2.061 . S
O244 C247 1.235 . S
C245 O248 1.238 . S
C245 O249 1.241 . S
C246 O239 1.247 . S
C246 O240 1.261 . S
C247 O242 1.259 . S
C247 O244 1.235 . S
O248 Co238 2.021 . S
O248 C245 1.238 . S
O249 Co243 2.052 . S
O249 C245 1.241 . S
O250 Co238 2.137 . S
O250 C241 1.247 . S
O251 Co238 2.244 . S
O251 C241 1.272 . S
O251 Co243 2.135 . S
Co252 O253 2.216 . S
Co252 O254 2.091 . S
Co252 O256 2.004 . S
Co252 O262 2.021 . S
Co252 O264 2.137 . S
Co252 O265 2.244 . S
O253 Co252 2.216 . S
O253 C260 1.247 . S
O254 Co252 2.091 . S
O254 C260 1.261 . S
C255 O264 1.247 . S
C255 O265 1.272 . S
O256 Co252 2.004 . S
O256 C261 1.259 . S
Co257 O258 2.061 . S
Co257 O263 2.052 . S
Co257 O265 2.135 . S
O258 Co257 2.061 . S
O258 C261 1.235 . S
C259 O262 1.238 . S
C259 O263 1.241 . S
C260 O253 1.247 . S
C260 O254 1.261 . S
C261 O256 1.259 . S
C261 O258 1.235 . S
O262 Co252 2.021 . S
O262 C259 1.238 . S
O263 Co257 2.052 . S
O263 C259 1.241 . S
O264 Co252 2.137 . S
O264 C255 1.247 . S
O265 Co252 2.244 . S
O265 C255 1.272 . S
O265 Co257 2.135 . S
Co266 O267 2.216 . S
Co266 O268 2.091 . S
Co266 O270 2.004 1_565 S
Co266 O276 2.021 1_565 S
Co266 O278 2.137 . S
Co266 O279 2.244 . S
O267 Co266 2.216 . S
O267 C274 1.247 . S
O268 Co266 2.091 . S
O268 C274 1.261 . S
C269 O278 1.247 . S
C269 O279 1.272 . S
O270 Co266 2.004 1_545 S
O270 C275 1.259 . S
Co271 O272 2.061 . S
Co271 O277 2.052 . S
Co271 O279 2.135 1_545 S
O272 Co271 2.061 . S
O272 C275 1.235 . S
C273 O276 1.238 . S
C273 O277 1.241 . S
C274 O267 1.247 . S
C274 O268 1.261 . S
C275 O270 1.259 . S
C275 O272 1.235 . S
O276 Co266 2.021 1_545 S
O276 C273 1.238 . S
O277 Co271 2.052 . S
O277 C273 1.241 . S
O278 Co266 2.137 . S
O278 C269 1.247 . S
O279 Co266 2.244 . S
O279 C269 1.272 . S
O279 Co271 2.135 1_565 S
Co280 O281 2.216 . S
Co280 O282 2.091 . S
Co280 O284 2.004 1_554 S
Co280 O290 2.021 1_554 S
Co280 O292 2.137 . S
Co280 O293 2.244 . S
O281 Co280 2.216 . S
O281 C288 1.247 . S
O282 Co280 2.091 . S
O282 C288 1.261 . S
C283 O292 1.247 . S
C283 O293 1.272 . S
O284 Co280 2.004 1_556 S
O284 C289 1.259 . S
Co285 O286 2.061 . S
Co285 O291 2.052 . S
Co285 O293 2.135 1_556 S
O286 Co285 2.061 . S
O286 C289 1.235 . S
C287 O290 1.238 . S
C287 O291 1.241 . S
C288 O281 1.247 . S
C288 O282 1.261 . S
C289 O284 1.259 . S
C289 O286 1.235 . S
O290 Co280 2.021 1_556 S
O290 C287 1.238 . S
O291 Co285 2.052 . S
O291 C287 1.241 . S
O292 Co280 2.137 . S
O292 C283 1.247 . S
O293 Co280 2.244 . S
O293 C283 1.272 . S
O293 Co285 2.135 1_554 S
Co294 O295 2.216 . S
Co294 O296 2.091 . S
Co294 O298 2.004 . S
Co294 O304 2.021 . S
Co294 O306 2.137 . S
Co294 O307 2.244 . S
O295 Co294 2.216 . S
O295 C302 1.247 . S
O296 Co294 2.091 . S
O296 C302 1.261 . S
C297 O306 1.247 . S
C297 O307 1.272 . S
O298 Co294 2.004 . S
O298 C303 1.259 . S
Co299 O300 2.061 . S
Co299 O305 2.052 . S
Co299 O307 2.135 . S
O300 Co299 2.061 . S
O300 C303 1.235 . S
C301 O304 1.238 . S
C301 O305 1.241 . S
C302 O295 1.247 . S
C302 O296 1.261 . S
C303 O298 1.259 . S
C303 O300 1.235 . S
O304 Co294 2.021 . S
O304 C301 1.238 . S
O305 Co299 2.052 . S
O305 C301 1.241 . S
O306 Co294 2.137 . S
O306 C297 1.247 . S
O307 Co294 2.244 . S
O307 C297 1.272 . S
O307 Co299 2.135 . S
Co308 O309 2.216 . S
Co308 O310 2.091 . S
Co308 O312 2.004 . S
Co308 O318 2.021 . S
Co308 O320 2.137 . S
Co308 O321 2.244 . S
O309 Co308 2.216 . S
O309 C316 1.247 . S
O310 Co308 2.091 . S
O310 C316 1.261 . S
C311 O320 1.247 . S
C311 O321 1.272 . S
O312 Co308 2.004 . S
O312 C317 1.259 . S
Co313 O314 2.061 . S
Co313 O319 2.052 . S
Co313 O321 2.135 . S
O314 Co313 2.061 . S
O314 C317 1.235 . S
C315 O318 1.238 . S
C315 O319 1.241 . S
C316 O309 1.247 . S
C316 O310 1.261 . S
C317 O312 1.259 . S
C317 O314 1.235 . S
O318 Co308 2.021 . S
O318 C315 1.238 . S
O319 Co313 2.052 . S
O319 C315 1.241 . S
O320 Co308 2.137 . S
O320 C311 1.247 . S
O321 Co308 2.244 . S
O321 C311 1.272 . S
O321 Co313 2.135 . S
Co322 O323 2.216 . S
Co322 O324 2.091 . S
Co322 O326 2.004 . S
Co322 O332 2.021 . S
Co322 O334 2.137 . S
Co322 O335 2.244 . S
O323 Co322 2.216 . S
O323 C330 1.247 . S
O324 Co322 2.091 . S
O324 C330 1.261 . S
C325 O334 1.247 . S
C325 O335 1.272 . S
O326 Co322 2.004 . S
O326 C331 1.259 . S
Co327 O328 2.061 . S
Co327 O333 2.052 . S
Co327 O335 2.135 . S
O328 Co327 2.061 . S
O328 C331 1.235 . S
C329 O332 1.238 . S
C329 O333 1.241 . S
C330 O323 1.247 . S
C330 O324 1.261 . S
C331 O326 1.259 . S
C331 O328 1.235 . S
O332 Co322 2.021 . S
O332 C329 1.238 . S
O333 Co327 2.052 . S
O333 C329 1.241 . S
O334 Co322 2.137 . S
O334 C325 1.247 . S
O335 Co322 2.244 . S
O335 C325 1.272 . S
O335 Co327 2.135 . S
Sc336 O339 2.025 . S
Sc336 O346 2.105 . S
Sc336 O349 2.105 . S
Sc336 O352 2.105 . S
Sc336 O355 2.105 . S
Sc337 O339 2.025 . S
Sc337 O347 2.105 . S
Sc337 O351 2.105 . S
Sc337 O353 2.105 . S
Sc337 O357 2.105 . S
Sc338 O339 2.025 . S
Sc338 O348 2.105 . S
Sc338 O350 2.105 . S
Sc338 O354 2.105 . S
Sc338 O356 2.105 . S
O339 Sc336 2.025 . S
O339 Sc337 2.025 . S
O339 Sc338 2.025 . S
C340 O346 1.268 . S
C340 O356 1.268 . S
C341 O347 1.268 . S
C341 O355 1.268 . S
C342 O348 1.268 . S
C342 O357 1.268 . S
C343 O349 1.268 . S
C343 O353 1.268 . S
C344 O350 1.268 . S
C344 O352 1.268 . S
C345 O351 1.268 . S
C345 O354 1.268 . S
O346 Sc336 2.105 . S
O346 C340 1.268 . S
O347 Sc337 2.105 . S
O347 C341 1.268 . S
O348 Sc338 2.105 . S
O348 C342 1.268 . S
O349 Sc336 2.105 . S
O349 C343 1.268 . S
O350 Sc338 2.105 . S
O350 C344 1.268 . S
O351 Sc337 2.105 . S
O351 C345 1.268 . S
O352 Sc336 2.105 . S
O352 C344 1.268 . S
O353 Sc337 2.105 . S
O353 C343 1.268 . S
O354 Sc338 2.105 . S
O354 C345 1.268 . S
O355 Sc336 2.105 . S
O355 C341 1.268 . S
O356 Sc338 2.105 . S
O356 C340 1.268 . S
O357 Sc337 2.105 . S
O357 C342 1.268 . S
Sc358 O361 2.025 . S
Sc358 O368 2.105 . S
Sc358 O371 2.105 . S
Sc358 O374 2.105 . S
Sc358 O377 2.105 . S
Sc359 O361 2.025 . S
Sc359 O369 2.105 . S
Sc359 O373 2.105 . S
Sc359 O375 2.105 . S
Sc359 O379 2.105 . S
Sc360 O361 2.025 . S
Sc360 O370 2.105 . S
Sc360 O372 2.105 . S
Sc360 O376 2.105 . S
Sc360 O378 2.105 . S
O361 Sc358 2.025 . S
O361 Sc359 2.025 . S
O361 Sc360 2.025 . S
C362 O368 1.268 . S
C362 O378 1.268 . S
C363 O369 1.268 . S
C363 O377 1.268 . S
C364 O370 1.268 . S
C364 O379 1.268 . S
C365 O371 1.268 . S
C365 O375 1.268 . S
C366 O372 1.268 . S
C366 O374 1.268 . S
C367 O373 1.268 . S
C367 O376 1.268 . S
O368 Sc358 2.105 . S
O368 C362 1.268 . S
O369 Sc359 2.105 . S
O369 C363 1.268 . S
O370 Sc360 2.105 . S
O370 C364 1.268 . S
O371 Sc358 2.105 . S
O371 C365 1.268 . S
O372 Sc360 2.105 . S
O372 C366 1.268 . S
O373 Sc359 2.105 . S
O373 C367 1.268 . S
O374 Sc358 2.105 . S
O374 C366 1.268 . S
O375 Sc359 2.105 . S
O375 C365 1.268 . S
O376 Sc360 2.105 . S
O376 C367 1.268 . S
O377 Sc358 2.105 . S
O377 C363 1.268 . S
O378 Sc360 2.105 . S
O378 C362 1.268 . S
O379 Sc359 2.105 . S
O379 C364 1.268 . S
Sc380 O383 2.025 . S
Sc380 O390 2.105 . S
Sc380 O393 2.105 . S
Sc380 O396 2.105 . S
Sc380 O399 2.105 . S
Sc381 O383 2.025 . S
Sc381 O391 2.105 . S
Sc381 O395 2.105 . S
Sc381 O397 2.105 . S
Sc381 O401 2.105 . S
Sc382 O383 2.025 . S
Sc382 O392 2.105 . S
Sc382 O394 2.105 . S
Sc382 O398 2.105 . S
Sc382 O400 2.105 . S
O383 Sc380 2.025 . S
O383 Sc381 2.025 . S
O383 Sc382 2.025 . S
C384 O390 1.268 . S
C384 O400 1.268 . S
C385 O391 1.268 . S
C385 O399 1.268 . S
C386 O392 1.268 . S
C386 O401 1.268 . S
C387 O393 1.268 . S
C387 O397 1.268 . S
C388 O394 1.268 . S
C388 O396 1.268 . S
C389 O395 1.268 . S
C389 O398 1.268 . S
O390 Sc380 2.105 . S
O390 C384 1.268 . S
O391 Sc381 2.105 . S
O391 C385 1.268 . S
O392 Sc382 2.105 . S
O392 C386 1.268 . S
O393 Sc380 2.105 . S
O393 C387 1.268 . S
O394 Sc382 2.105 . S
O394 C388 1.268 . S
O395 Sc381 2.105 . S
O395 C389 1.268 . S
O396 Sc380 2.105 . S
O396 C388 1.268 . S
O397 Sc381 2.105 . S
O397 C387 1.268 . S
O398 Sc382 2.105 . S
O398 C389 1.268 . S
O399 Sc380 2.105 . S
O399 C385 1.268 . S
O400 Sc382 2.105 . S
O400 C384 1.268 . S
O401 Sc381 2.105 . S
O401 C386 1.268 . S
Sc402 O405 2.025 . S
Sc402 O412 2.105 . S
Sc402 O415 2.105 . S
Sc402 O418 2.105 . S
Sc402 O421 2.105 . S
Sc403 O405 2.025 . S
Sc403 O413 2.105 . S
Sc403 O417 2.105 . S
Sc403 O419 2.105 . S
Sc403 O423 2.105 . S
Sc404 O405 2.025 . S
Sc404 O414 2.105 . S
Sc404 O416 2.105 . S
Sc404 O420 2.105 . S
Sc404 O422 2.105 . S
O405 Sc402 2.025 . S
O405 Sc403 2.025 . S
O405 Sc404 2.025 . S
C406 O412 1.268 . S
C406 O422 1.268 . S
C407 O413 1.268 . S
C407 O421 1.268 . S
C408 O414 1.268 . S
C408 O423 1.268 . S
C409 O415 1.268 . S
C409 O419 1.268 . S
C410 O416 1.268 . S
C410 O418 1.268 . S
C411 O417 1.268 . S
C411 O420 1.268 . S
O412 Sc402 2.105 . S
O412 C406 1.268 . S
O413 Sc403 2.105 . S
O413 C407 1.268 . S
O414 Sc404 2.105 . S
O414 C408 1.268 . S
O415 Sc402 2.105 . S
O415 C409 1.268 . S
O416 Sc404 2.105 . S
O416 C410 1.268 . S
O417 Sc403 2.105 . S
O417 C411 1.268 . S
O418 Sc402 2.105 . S
O418 C410 1.268 . S
O419 Sc403 2.105 . S
O419 C409 1.268 . S
O420 Sc404 2.105 . S
O420 C411 1.268 . S
O421 Sc402 2.105 . S
O421 C407 1.268 . S
O422 Sc404 2.105 . S
O422 C406 1.268 . S
O423 Sc403 2.105 . S
O423 C408 1.268 . S
Sc424 O427 2.025 . S
Sc424 O434 2.105 . S
Sc424 O437 2.105 . S
Sc424 O440 2.105 . S
Sc424 O443 2.105 . S
Sc425 O427 2.025 . S
Sc425 O435 2.105 . S
Sc425 O439 2.105 . S
Sc425 O441 2.105 . S
Sc425 O445 2.105 . S
Sc426 O427 2.025 . S
Sc426 O436 2.105 . S
Sc426 O438 2.105 . S
Sc426 O442 2.105 . S
Sc426 O444 2.105 . S
O427 Sc424 2.025 . S
O427 Sc425 2.025 . S
O427 Sc426 2.025 . S
C428 O434 1.268 . S
C428 O444 1.268 . S
C429 O435 1.268 . S
C429 O443 1.268 . S
C430 O436 1.268 . S
C430 O445 1.268 . S
C431 O437 1.268 . S
C431 O441 1.268 . S
C432 O438 1.268 . S
C432 O440 1.268 . S
C433 O439 1.268 . S
C433 O442 1.268 . S
O434 Sc424 2.105 . S
O434 C428 1.268 . S
O435 Sc425 2.105 . S
O435 C429 1.268 . S
O436 Sc426 2.105 . S
O436 C430 1.268 . S
O437 Sc424 2.105 . S
O437 C431 1.268 . S
O438 Sc426 2.105 . S
O438 C432 1.268 . S
O439 Sc425 2.105 . S
O439 C433 1.268 . S
O440 Sc424 2.105 . S
O440 C432 1.268 . S
O441 Sc425 2.105 . S
O441 C431 1.268 . S
O442 Sc426 2.105 . S
O442 C433 1.268 . S
O443 Sc424 2.105 . S
O443 C429 1.268 . S
O444 Sc426 2.105 . S
O444 C428 1.268 . S
O445 Sc425 2.105 . S
O445 C430 1.268 . S
Sc446 O449 2.025 . S
Sc446 O456 2.105 . S
Sc446 O459 2.105 . S
Sc446 O462 2.105 . S
Sc446 O465 2.105 . S
Sc447 O449 2.025 . S
Sc447 O457 2.105 . S
Sc447 O461 2.105 . S
Sc447 O463 2.105 . S
Sc447 O467 2.105 . S
Sc448 O449 2.025 . S
Sc448 O458 2.105 . S
Sc448 O460 2.105 . S
Sc448 O464 2.105 . S
Sc448 O466 2.105 . S
O449 Sc446 2.025 . S
O449 Sc447 2.025 . S
O449 Sc448 2.025 . S
C450 O456 1.268 . S
C450 O466 1.268 . S
C451 O457 1.268 . S
C451 O465 1.268 . S
C452 O458 1.268 . S
C452 O467 1.268 . S
C453 O459 1.268 . S
C453 O463 1.268 . S
C454 O460 1.268 . S
C454 O462 1.268 . S
C455 O461 1.268 . S
C455 O464 1.268 . S
O456 Sc446 2.105 . S
O456 C450 1.268 . S
O457 Sc447 2.105 . S
O457 C451 1.268 . S
O458 Sc448 2.105 . S
O458 C452 1.268 . S
O459 Sc446 2.105 . S
O459 C453 1.268 . S
O460 Sc448 2.105 . S
O460 C454 1.268 . S
O461 Sc447 2.105 . S
O461 C455 1.268 . S
O462 Sc446 2.105 . S
O462 C454 1.268 . S
O463 Sc447 2.105 . S
O463 C453 1.268 . S
O464 Sc448 2.105 . S
O464 C455 1.268 . S
O465 Sc446 2.105 . S
O465 C451 1.268 . S
O466 Sc448 2.105 . S
O466 C450 1.268 . S
O467 Sc447 2.105 . S
O467 C452 1.268 . S
Sc468 O471 2.025 . S
Sc468 O478 2.105 . S
Sc468 O481 2.105 . S
Sc468 O484 2.105 . S
Sc468 O487 2.105 . S
Sc469 O471 2.025 . S
Sc469 O479 2.105 . S
Sc469 O483 2.105 . S
Sc469 O485 2.105 . S
Sc469 O489 2.105 . S
Sc470 O471 2.025 . S
Sc470 O480 2.105 . S
Sc470 O482 2.105 . S
Sc470 O486 2.105 . S
Sc470 O488 2.105 . S
O471 Sc468 2.025 . S
O471 Sc469 2.025 . S
O471 Sc470 2.025 . S
C472 O478 1.268 . S
C472 O488 1.268 . S
C473 O479 1.268 . S
C473 O487 1.268 . S
C474 O480 1.268 . S
C474 O489 1.268 . S
C475 O481 1.268 . S
C475 O485 1.268 . S
C476 O482 1.268 . S
C476 O484 1.268 . S
C477 O483 1.268 . S
C477 O486 1.268 . S
O478 Sc468 2.105 . S
O478 C472 1.268 . S
O479 Sc469 2.105 . S
O479 C473 1.268 . S
O480 Sc470 2.105 . S
O480 C474 1.268 . S
O481 Sc468 2.105 . S
O481 C475 1.268 . S
O482 Sc470 2.105 . S
O482 C476 1.268 . S
O483 Sc469 2.105 . S
O483 C477 1.268 . S
O484 Sc468 2.105 . S
O484 C476 1.268 . S
O485 Sc469 2.105 . S
O485 C475 1.268 . S
O486 Sc470 2.105 . S
O486 C477 1.268 . S
O487 Sc468 2.105 . S
O487 C473 1.268 . S
O488 Sc470 2.105 . S
O488 C472 1.268 . S
O489 Sc469 2.105 . S
O489 C474 1.268 . S
Sc490 O493 2.025 . S
Sc490 O500 2.105 . S
Sc490 O503 2.105 . S
Sc490 O506 2.105 . S
Sc490 O509 2.105 . S
Sc491 O493 2.025 . S
Sc491 O501 2.105 . S
Sc491 O505 2.105 . S
Sc491 O507 2.105 . S
Sc491 O511 2.105 . S
Sc492 O493 2.025 . S
Sc492 O502 2.105 . S
Sc492 O504 2.105 . S
Sc492 O508 2.105 . S
Sc492 O510 2.105 . S
O493 Sc490 2.025 . S
O493 Sc491 2.025 . S
O493 Sc492 2.025 . S
C494 O500 1.268 . S
C494 O510 1.268 . S
C495 O501 1.268 . S
C495 O509 1.268 . S
C496 O502 1.268 . S
C496 O511 1.268 . S
C497 O503 1.268 . S
C497 O507 1.268 . S
C498 O504 1.268 . S
C498 O506 1.268 . S
C499 O505 1.268 . S
C499 O508 1.268 . S
O500 Sc490 2.105 . S
O500 C494 1.268 . S
O501 Sc491 2.105 . S
O501 C495 1.268 . S
O502 Sc492 2.105 . S
O502 C496 1.268 . S
O503 Sc490 2.105 . S
O503 C497 1.268 . S
O504 Sc492 2.105 . S
O504 C498 1.268 . S
O505 Sc491 2.105 . S
O505 C499 1.268 . S
O506 Sc490 2.105 . S
O506 C498 1.268 . S
O507 Sc491 2.105 . S
O507 C497 1.268 . S
O508 Sc492 2.105 . S
O508 C499 1.268 . S
O509 Sc490 2.105 . S
O509 C495 1.268 . S
O510 Sc492 2.105 . S
O510 C494 1.268 . S
O511 Sc491 2.105 . S
O511 C496 1.268 . S
Sc512 O515 2.025 . S
Sc512 O522 2.105 . S
Sc512 O525 2.105 . S
Sc512 O528 2.105 . S
Sc512 O531 2.105 . S
Sc513 O515 2.025 . S
Sc513 O523 2.105 . S
Sc513 O527 2.105 . S
Sc513 O529 2.105 . S
Sc513 O533 2.105 . S
Sc514 O515 2.025 . S
Sc514 O524 2.105 . S
Sc514 O526 2.105 . S
Sc514 O530 2.105 . S
Sc514 O532 2.105 . S
O515 Sc512 2.025 . S
O515 Sc513 2.025 . S
O515 Sc514 2.025 . S
C516 O522 1.268 . S
C516 O532 1.268 . S
C517 O523 1.268 . S
C517 O531 1.268 . S
C518 O524 1.268 . S
C518 O533 1.268 . S
C519 O525 1.268 . S
C519 O529 1.268 . S
C520 O526 1.268 . S
C520 O528 1.268 . S
C521 O527 1.268 . S
C521 O530 1.268 . S
O522 Sc512 2.105 . S
O522 C516 1.268 . S
O523 Sc513 2.105 . S
O523 C517 1.268 . S
O524 Sc514 2.105 . S
O524 C518 1.268 . S
O525 Sc512 2.105 . S
O525 C519 1.268 . S
O526 Sc514 2.105 . S
O526 C520 1.268 . S
O527 Sc513 2.105 . S
O527 C521 1.268 . S
O528 Sc512 2.105 . S
O528 C520 1.268 . S
O529 Sc513 2.105 . S
O529 C519 1.268 . S
O530 Sc514 2.105 . S
O530 C521 1.268 . S
O531 Sc512 2.105 . S
O531 C517 1.268 . S
O532 Sc514 2.105 . S
O532 C516 1.268 . S
O533 Sc513 2.105 . S
O533 C518 1.268 . S
Sc534 O537 2.025 . S
Sc534 O544 2.105 . S
Sc534 O547 2.105 . S
Sc534 O550 2.105 . S
Sc534 O553 2.105 . S
Sc535 O537 2.025 . S
Sc535 O545 2.105 . S
Sc535 O549 2.105 . S
Sc535 O551 2.105 . S
Sc535 O555 2.105 . S
Sc536 O537 2.025 . S
Sc536 O546 2.105 . S
Sc536 O548 2.105 . S
Sc536 O552 2.105 . S
Sc536 O554 2.105 . S
O537 Sc534 2.025 . S
O537 Sc535 2.025 . S
O537 Sc536 2.025 . S
C538 O544 1.268 . S
C538 O554 1.268 . S
C539 O545 1.268 . S
C539 O553 1.268 . S
C540 O546 1.268 . S
C540 O555 1.268 . S
C541 O547 1.268 . S
C541 O551 1.268 . S
C542 O548 1.268 . S
C542 O550 1.268 . S
C543 O549 1.268 . S
C543 O552 1.268 . S
O544 Sc534 2.105 . S
O544 C538 1.268 . S
O545 Sc535 2.105 . S
O545 C539 1.268 . S
O546 Sc536 2.105 . S
O546 C540 1.268 . S
O547 Sc534 2.105 . S
O547 C541 1.268 . S
O548 Sc536 2.105 . S
O548 C542 1.268 . S
O549 Sc535 2.105 . S
O549 C543 1.268 . S
O550 Sc534 2.105 . S
O550 C542 1.268 . S
O551 Sc535 2.105 . S
O551 C541 1.268 . S
O552 Sc536 2.105 . S
O552 C543 1.268 . S
O553 Sc534 2.105 . S
O553 C539 1.268 . S
O554 Sc536 2.105 . S
O554 C538 1.268 . S
O555 Sc535 2.105 . S
O555 C540 1.268 . S
Sc556 O559 2.025 . S
Sc556 O566 2.105 . S
Sc556 O569 2.105 . S
Sc556 O572 2.105 . S
Sc556 O575 2.105 . S
Sc557 O559 2.025 . S
Sc557 O567 2.105 . S
Sc557 O571 2.105 . S
Sc557 O573 2.105 . S
Sc557 O577 2.105 . S
Sc558 O559 2.025 . S
Sc558 O568 2.105 . S
Sc558 O570 2.105 . S
Sc558 O574 2.105 . S
Sc558 O576 2.105 . S
O559 Sc556 2.025 . S
O559 Sc557 2.025 . S
O559 Sc558 2.025 . S
C560 O566 1.268 . S
C560 O576 1.268 . S
C561 O567 1.268 . S
C561 O575 1.268 . S
C562 O568 1.268 . S
C562 O577 1.268 . S
C563 O569 1.268 . S
C563 O573 1.268 . S
C564 O570 1.268 . S
C564 O572 1.268 . S
C565 O571 1.268 . S
C565 O574 1.268 . S
O566 Sc556 2.105 . S
O566 C560 1.268 . S
O567 Sc557 2.105 . S
O567 C561 1.268 . S
O568 Sc558 2.105 . S
O568 C562 1.268 . S
O569 Sc556 2.105 . S
O569 C563 1.268 . S
O570 Sc558 2.105 . S
O570 C564 1.268 . S
O571 Sc557 2.105 . S
O571 C565 1.268 . S
O572 Sc556 2.105 . S
O572 C564 1.268 . S
O573 Sc557 2.105 . S
O573 C563 1.268 . S
O574 Sc558 2.105 . S
O574 C565 1.268 . S
O575 Sc556 2.105 . S
O575 C561 1.268 . S
O576 Sc558 2.105 . S
O576 C560 1.268 . S
O577 Sc557 2.105 . S
O577 C562 1.268 . S
Sc578 O581 2.025 . S
Sc578 O588 2.105 . S
Sc578 O591 2.105 . S
Sc578 O594 2.105 . S
Sc578 O597 2.105 . S
Sc579 O581 2.025 . S
Sc579 O589 2.105 . S
Sc579 O593 2.105 . S
Sc579 O595 2.105 . S
Sc579 O599 2.105 . S
Sc580 O581 2.025 . S
Sc580 O590 2.105 . S
Sc580 O592 2.105 . S
Sc580 O596 2.105 . S
Sc580 O598 2.105 . S
O581 Sc578 2.025 . S
O581 Sc579 2.025 . S
O581 Sc580 2.025 . S
C582 O588 1.268 . S
C582 O598 1.268 . S
C583 O589 1.268 . S
C583 O597 1.268 . S
C584 O590 1.268 . S
C584 O599 1.268 . S
C585 O591 1.268 . S
C585 O595 1.268 . S
C586 O592 1.268 . S
C586 O594 1.268 . S
C587 O593 1.268 . S
C587 O596 1.268 . S
O588 Sc578 2.105 . S
O588 C582 1.268 . S
O589 Sc579 2.105 . S
O589 C583 1.268 . S
O590 Sc580 2.105 . S
O590 C584 1.268 . S
O591 Sc578 2.105 . S
O591 C585 1.268 . S
O592 Sc580 2.105 . S
O592 C586 1.268 . S
O593 Sc579 2.105 . S
O593 C587 1.268 . S
O594 Sc578 2.105 . S
O594 C586 1.268 . S
O595 Sc579 2.105 . S
O595 C585 1.268 . S
O596 Sc580 2.105 . S
O596 C587 1.268 . S
O597 Sc578 2.105 . S
O597 C583 1.268 . S
O598 Sc580 2.105 . S
O598 C582 1.268 . S
O599 Sc579 2.105 . S
O599 C584 1.268 . S
Sc600 O603 2.025 . S
Sc600 O610 2.105 . S
Sc600 O613 2.105 . S
Sc600 O616 2.105 . S
Sc600 O619 2.105 . S
Sc601 O603 2.025 . S
Sc601 O611 2.105 . S
Sc601 O615 2.105 . S
Sc601 O617 2.105 . S
Sc601 O621 2.105 . S
Sc602 O603 2.025 . S
Sc602 O612 2.105 . S
Sc602 O614 2.105 . S
Sc602 O618 2.105 . S
Sc602 O620 2.105 . S
O603 Sc600 2.025 . S
O603 Sc601 2.025 . S
O603 Sc602 2.025 . S
C604 O610 1.268 . S
C604 O620 1.268 . S
C605 O611 1.268 . S
C605 O619 1.268 . S
C606 O612 1.268 . S
C606 O621 1.268 . S
C607 O613 1.268 . S
C607 O617 1.268 . S
C608 O614 1.268 . S
C608 O616 1.268 . S
C609 O615 1.268 . S
C609 O618 1.268 . S
O610 Sc600 2.105 . S
O610 C604 1.268 . S
O611 Sc601 2.105 . S
O611 C605 1.268 . S
O612 Sc602 2.105 . S
O612 C606 1.268 . S
O613 Sc600 2.105 . S
O613 C607 1.268 . S
O614 Sc602 2.105 . S
O614 C608 1.268 . S
O615 Sc601 2.105 . S
O615 C609 1.268 . S
O616 Sc600 2.105 . S
O616 C608 1.268 . S
O617 Sc601 2.105 . S
O617 C607 1.268 . S
O618 Sc602 2.105 . S
O618 C609 1.268 . S
O619 Sc600 2.105 . S
O619 C605 1.268 . S
O620 Sc602 2.105 . S
O620 C604 1.268 . S
O621 Sc601 2.105 . S
O621 C606 1.268 . S
Sc622 O625 2.025 . S
Sc622 O632 2.105 . S
Sc622 O635 2.105 . S
Sc622 O638 2.105 . S
Sc622 O641 2.105 . S
Sc623 O625 2.025 . S
Sc623 O633 2.105 . S
Sc623 O637 2.105 . S
Sc623 O639 2.105 . S
Sc623 O643 2.105 . S
Sc624 O625 2.025 . S
Sc624 O634 2.105 . S
Sc624 O636 2.105 . S
Sc624 O640 2.105 . S
Sc624 O642 2.105 . S
O625 Sc622 2.025 . S
O625 Sc623 2.025 . S
O625 Sc624 2.025 . S
C626 O632 1.268 . S
C626 O642 1.268 . S
C627 O633 1.268 . S
C627 O641 1.268 . S
C628 O634 1.268 . S
C628 O643 1.268 . S
C629 O635 1.268 . S
C629 O639 1.268 . S
C630 O636 1.268 . S
C630 O638 1.268 . S
C631 O637 1.268 . S
C631 O640 1.268 . S
O632 Sc622 2.105 . S
O632 C626 1.268 . S
O633 Sc623 2.105 . S
O633 C627 1.268 . S
O634 Sc624 2.105 . S
O634 C628 1.268 . S
O635 Sc622 2.105 . S
O635 C629 1.268 . S
O636 Sc624 2.105 . S
O636 C630 1.268 . S
O637 Sc623 2.105 . S
O637 C631 1.268 . S
O638 Sc622 2.105 . S
O638 C630 1.268 . S
O639 Sc623 2.105 . S
O639 C629 1.268 . S
O640 Sc624 2.105 . S
O640 C631 1.268 . S
O641 Sc622 2.105 . S
O641 C627 1.268 . S
O642 Sc624 2.105 . S
O642 C626 1.268 . S
O643 Sc623 2.105 . S
O643 C628 1.268 . S
Sc644 O647 2.025 . S
Sc644 O654 2.105 . S
Sc644 O657 2.105 . S
Sc644 O660 2.105 . S
Sc644 O663 2.105 . S
Sc645 O647 2.025 . S
Sc645 O655 2.105 . S
Sc645 O659 2.105 . S
Sc645 O661 2.105 . S
Sc645 O665 2.105 . S
Sc646 O647 2.025 . S
Sc646 O656 2.105 . S
Sc646 O658 2.105 . S
Sc646 O662 2.105 . S
Sc646 O664 2.105 . S
O647 Sc644 2.025 . S
O647 Sc645 2.025 . S
O647 Sc646 2.025 . S
C648 O654 1.268 . S
C648 O664 1.268 . S
C649 O655 1.268 . S
C649 O663 1.268 . S
C650 O656 1.268 . S
C650 O665 1.268 . S
C651 O657 1.268 . S
C651 O661 1.268 . S
C652 O658 1.268 . S
C652 O660 1.268 . S
C653 O659 1.268 . S
C653 O662 1.268 . S
O654 Sc644 2.105 . S
O654 C648 1.268 . S
O655 Sc645 2.105 . S
O655 C649 1.268 . S
O656 Sc646 2.105 . S
O656 C650 1.268 . S
O657 Sc644 2.105 . S
O657 C651 1.268 . S
O658 Sc646 2.105 . S
O658 C652 1.268 . S
O659 Sc645 2.105 . S
O659 C653 1.268 . S
O660 Sc644 2.105 . S
O660 C652 1.268 . S
O661 Sc645 2.105 . S
O661 C651 1.268 . S
O662 Sc646 2.105 . S
O662 C653 1.268 . S
O663 Sc644 2.105 . S
O663 C649 1.268 . S
O664 Sc646 2.105 . S
O664 C648 1.268 . S
O665 Sc645 2.105 . S
O665 C650 1.268 . S
Sc666 O669 2.025 . S
Sc666 O676 2.105 . S
Sc666 O679 2.105 . S
Sc666 O682 2.105 . S
Sc666 O685 2.105 . S
Sc667 O669 2.025 . S
Sc667 O677 2.105 . S
Sc667 O681 2.105 . S
Sc667 O683 2.105 . S
Sc667 O687 2.105 . S
Sc668 O669 2.025 . S
Sc668 O678 2.105 . S
Sc668 O680 2.105 . S
Sc668 O684 2.105 . S
Sc668 O686 2.105 . S
O669 Sc666 2.025 . S
O669 Sc667 2.025 . S
O669 Sc668 2.025 . S
C670 O676 1.268 . S
C670 O686 1.268 . S
C671 O677 1.268 . S
C671 O685 1.268 . S
C672 O678 1.268 . S
C672 O687 1.268 . S
C673 O679 1.268 . S
C673 O683 1.268 . S
C674 O680 1.268 . S
C674 O682 1.268 . S
C675 O681 1.268 . S
C675 O684 1.268 . S
O676 Sc666 2.105 . S
O676 C670 1.268 . S
O677 Sc667 2.105 . S
O677 C671 1.268 . S
O678 Sc668 2.105 . S
O678 C672 1.268 . S
O679 Sc666 2.105 . S
O679 C673 1.268 . S
O680 Sc668 2.105 . S
O680 C674 1.268 . S
O681 Sc667 2.105 . S
O681 C675 1.268 . S
O682 Sc666 2.105 . S
O682 C674 1.268 . S
O683 Sc667 2.105 . S
O683 C673 1.268 . S
O684 Sc668 2.105 . S
O684 C675 1.268 . S
O685 Sc666 2.105 . S
O685 C671 1.268 . S
O686 Sc668 2.105 . S
O686 C670 1.268 . S
O687 Sc667 2.105 . S
O687 C672 1.268 . S
H688 C694 0.930 . S
H689 C698 0.930 . S
H690 C703 0.929 . S
H691 C701 0.929 . S
H692 C696 0.929 . S
H693 C702 0.929 . S
C694 H688 0.930 . S
C694 C695 1.367 . S
C694 C702 1.378 . S
C695 C694 1.367 . S
C695 C703 1.433 . S
C696 H692 0.929 . S
C696 C698 1.378 . S
C696 C700 1.350 . S
C697 C700 1.463 . S
C697 C702 1.350 . S
C697 N705 1.427 . S
C698 H689 0.930 . S
C698 C696 1.378 . S
C698 C699 1.367 . S
C699 C698 1.367 . S
C699 C701 1.433 . S
C700 C696 1.350 . S
C700 C697 1.463 . S
C700 N704 1.427 . S
C701 H691 0.929 . S
C701 C699 1.433 . S
C701 N704 1.384 . S
C702 H693 0.929 . S
C702 C694 1.378 . S
C702 C697 1.350 . S
C703 H690 0.929 . S
C703 C695 1.433 . S
C703 N705 1.384 . S
N704 C700 1.427 . S
N704 C701 1.384 . S
N705 C697 1.427 . S
N705 C703 1.384 . S
H706 C712 0.930 . S
H707 C716 0.930 . S
H708 C721 0.929 . S
H709 C719 0.929 . S
H710 C714 0.929 . S
H711 C720 0.929 . S
C712 H706 0.930 . S
C712 C713 1.367 . S
C712 C720 1.378 . S
C713 C712 1.367 . S
C713 C721 1.433 . S
C714 H710 0.929 . S
C714 C716 1.378 . S
C714 C718 1.350 . S
C715 C718 1.463 . S
C715 C720 1.350 . S
C715 N723 1.427 . S
C716 H707 0.930 . S
C716 C714 1.378 . S
C716 C717 1.367 . S
C717 C716 1.367 . S
C717 C719 1.433 . S
C718 C714 1.350 . S
C718 C715 1.463 . S
C718 N722 1.427 . S
C719 H709 0.929 . S
C719 C717 1.433 . S
C719 N722 1.384 . S
C720 H711 0.929 . S
C720 C712 1.378 . S
C720 C715 1.350 . S
C721 H708 0.929 . S
C721 C713 1.433 . S
C721 N723 1.384 . S
N722 C718 1.427 . S
N722 C719 1.384 . S
N723 C715 1.427 . S
N723 C721 1.384 . S
H724 C730 0.930 . S
H725 C734 0.930 . S
H726 C739 0.929 . S
H727 C737 0.929 . S
H728 C732 0.929 . S
H729 C738 0.929 . S
C730 H724 0.930 . S
C730 C731 1.367 . S
C730 C738 1.378 . S
C731 C730 1.367 . S
C731 C739 1.433 . S
C732 H728 0.929 . S
C732 C734 1.378 . S
C732 C736 1.350 . S
C733 C736 1.463 . S
C733 C738 1.350 . S
C733 N741 1.427 . S
C734 H725 0.930 . S
C734 C732 1.378 . S
C734 C735 1.367 . S
C735 C734 1.367 . S
C735 C737 1.433 . S
C736 C732 1.350 . S
C736 C733 1.463 . S
C736 N740 1.427 . S
C737 H727 0.929 . S
C737 C735 1.433 . S
C737 N740 1.384 . S
C738 H729 0.929 . S
C738 C730 1.378 . S
C738 C733 1.350 . S
C739 H726 0.929 . S
C739 C731 1.433 . S
C739 N741 1.384 . S
N740 C736 1.427 . S
N740 C737 1.384 . S
N741 C733 1.427 . S
N741 C739 1.384 . S
H742 C748 0.930 . S
H743 C752 0.930 . S
H744 C757 0.929 . S
H745 C755 0.929 . S
H746 C750 0.929 . S
H747 C756 0.929 . S
C748 H742 0.930 . S
C748 C749 1.367 . S
C748 C756 1.378 . S
C749 C748 1.367 . S
C749 C757 1.433 . S
C750 H746 0.929 . S
C750 C752 1.378 1_554 S
C750 C754 1.350 . S
C751 C754 1.463 . S
C751 C756 1.350 . S
C751 N759 1.427 . S
C752 H743 0.930 . S
C752 C750 1.378 1_556 S
C752 C753 1.367 . S
C753 C752 1.367 . S
C753 C755 1.433 . S
C754 C750 1.350 . S
C754 C751 1.463 . S
C754 N758 1.427 1_554 S
C755 H745 0.929 . S
C755 C753 1.433 . S
C755 N758 1.384 . S
C756 H747 0.929 . S
C756 C748 1.378 . S
C756 C751 1.350 . S
C757 H744 0.929 . S
C757 C749 1.433 . S
C757 N759 1.384 . S
N758 C754 1.427 1_556 S
N758 C755 1.384 . S
N759 C751 1.427 . S
N759 C757 1.384 . S
H760 C766 0.930 . S
H761 C770 0.930 . S
H762 C775 0.929 . S
H763 C773 0.929 . S
H764 C768 0.929 . S
H765 C774 0.929 . S
C766 H760 0.930 . S
C766 C767 1.367 . S
C766 C774 1.378 . S
C767 C766 1.367 . S
C767 C775 1.433 . S
C768 H764 0.929 . S
C768 C770 1.378 . S
C768 C772 1.350 . S
C769 C772 1.463 . S
C769 C774 1.350 . S
C769 N777 1.427 . S
C770 H761 0.930 . S
C770 C768 1.378 . S
C770 C771 1.367 . S
C771 C770 1.367 . S
C771 C773 1.433 . S
C772 C768 1.350 . S
C772 C769 1.463 . S
C772 N776 1.427 . S
C773 H763 0.929 . S
C773 C771 1.433 . S
C773 N776 1.384 . S
C774 H765 0.929 . S
C774 C766 1.378 . S
C774 C769 1.350 . S
C775 H762 0.929 . S
C775 C767 1.433 . S
C775 N777 1.384 . S
N776 C772 1.427 . S
N776 C773 1.384 . S
N777 C769 1.427 . S
N777 C775 1.384 . S
H778 C784 0.930 . S
H779 C788 0.930 . S
H780 C793 0.929 . S
H781 C791 0.929 . S
H782 C786 0.929 . S
H783 C792 0.929 . S
C784 H778 0.930 . S
C784 C785 1.367 . S
C784 C792 1.378 . S
C785 C784 1.367 . S
C785 C793 1.433 . S
C786 H782 0.929 . S
C786 C788 1.378 . S
C786 C790 1.350 . S
C787 C790 1.463 . S
C787 C792 1.350 . S
C787 N795 1.427 . S
C788 H779 0.930 . S
C788 C786 1.378 . S
C788 C789 1.367 . S
C789 C788 1.367 . S
C789 C791 1.433 . S
C790 C786 1.350 . S
C790 C787 1.463 . S
C790 N794 1.427 . S
C791 H781 0.929 . S
C791 C789 1.433 . S
C791 N794 1.384 . S
C792 H783 0.929 . S
C792 C784 1.378 . S
C792 C787 1.350 . S
C793 H780 0.929 . S
C793 C785 1.433 . S
C793 N795 1.384 . S
N794 C790 1.427 . S
N794 C791 1.384 . S
N795 C787 1.427 . S
N795 C793 1.384 . S
H796 C802 0.930 . S
H797 C806 0.930 . S
H798 C811 0.929 . S
H799 C809 0.929 . S
H800 C804 0.929 . S
H801 C810 0.929 . S
C802 H796 0.930 . S
C802 C803 1.367 . S
C802 C810 1.378 . S
C803 C802 1.367 . S
C803 C811 1.433 . S
C804 H800 0.929 . S
C804 C806 1.378 . S
C804 C808 1.350 . S
C805 C808 1.463 . S
C805 C810 1.350 . S
C805 N813 1.427 . S
C806 H797 0.930 . S
C806 C804 1.378 . S
C806 C807 1.367 . S
C807 C806 1.367 . S
C807 C809 1.433 . S
C808 C804 1.350 . S
C808 C805 1.463 . S
C808 N812 1.427 . S
C809 H799 0.929 . S
C809 C807 1.433 . S
C809 N812 1.384 . S
C810 H801 0.929 . S
C810 C802 1.378 . S
C810 C805 1.350 . S
C811 H798 0.929 . S
C811 C803 1.433 . S
C811 N813 1.384 . S
N812 C808 1.427 . S
N812 C809 1.384 . S
N813 C805 1.427 . S
N813 C811 1.384 . S
H814 C820 0.930 . S
H815 C824 0.930 . S
H816 C829 0.929 . S
H817 C827 0.929 . S
H818 C822 0.929 . S
H819 C828 0.929 . S
C820 H814 0.930 . S
C820 C821 1.367 . S
C820 C828 1.378 . S
C821 C820 1.367 . S
C821 C829 1.433 . S
C822 H818 0.929 . S
C822 C824 1.378 1_556 S
C822 C826 1.350 . S
C823 C826 1.463 . S
C823 C828 1.350 . S
C823 N831 1.427 . S
C824 H815 0.930 . S
C824 C822 1.378 1_554 S
C824 C825 1.367 . S
C825 C824 1.367 . S
C825 C827 1.433 . S
C826 C822 1.350 . S
C826 C823 1.463 . S
C826 N830 1.427 1_556 S
C827 H817 0.929 . S
C827 C825 1.433 . S
C827 N830 1.384 . S
C828 H819 0.929 . S
C828 C820 1.378 . S
C828 C823 1.350 . S
C829 H816 0.929 . S
C829 C821 1.433 . S
C829 N831 1.384 . S
N830 C826 1.427 1_554 S
N830 C827 1.384 . S
N831 C823 1.427 . S
N831 C829 1.384 . S
H832 C838 0.930 . S
H833 C842 0.930 . S
H834 C847 0.929 . S
H835 C845 0.929 . S
H836 C840 0.929 . S
H837 C846 0.929 . S
C838 H832 0.930 . S
C838 C839 1.367 . S
C838 C846 1.378 . S
C839 C838 1.367 . S
C839 C847 1.433 . S
C840 H836 0.929 . S
C840 C842 1.378 . S
C840 C844 1.350 . S
C841 C844 1.463 . S
C841 C846 1.350 . S
C841 N849 1.427 . S
C842 H833 0.930 . S
C842 C840 1.378 . S
C842 C843 1.367 . S
C843 C842 1.367 . S
C843 C845 1.433 . S
C844 C840 1.350 . S
C844 C841 1.463 . S
C844 N848 1.427 . S
C845 H835 0.929 . S
C845 C843 1.433 . S
C845 N848 1.384 . S
C846 H837 0.929 . S
C846 C838 1.378 . S
C846 C841 1.350 . S
C847 H834 0.929 . S
C847 C839 1.433 . S
C847 N849 1.384 . S
N848 C844 1.427 . S
N848 C845 1.384 . S
N849 C841 1.427 . S
N849 C847 1.384 . S
H850 C856 0.930 . S
H851 C860 0.930 . S
H852 C865 0.929 . S
H853 C863 0.929 . S
H854 C858 0.929 . S
H855 C864 0.929 . S
C856 H850 0.930 . S
C856 C857 1.367 . S
C856 C864 1.378 . S
C857 C856 1.367 . S
C857 C865 1.433 . S
C858 H854 0.929 . S
C858 C860 1.378 1_545 S
C858 C862 1.350 . S
C859 C862 1.463 . S
C859 C864 1.350 . S
C859 N867 1.427 . S
C860 H851 0.930 . S
C860 C858 1.378 1_565 S
C860 C861 1.367 . S
C861 C860 1.367 . S
C861 C863 1.433 . S
C862 C858 1.350 . S
C862 C859 1.463 . S
C862 N866 1.427 1_545 S
C863 H853 0.929 . S
C863 C861 1.433 . S
C863 N866 1.384 . S
C864 H855 0.929 . S
C864 C856 1.378 . S
C864 C859 1.350 . S
C865 H852 0.929 . S
C865 C857 1.433 . S
C865 N867 1.384 . S
N866 C862 1.427 1_565 S
N866 C863 1.384 . S
N867 C859 1.427 . S
N867 C865 1.384 . S
H868 C874 0.930 . S
H869 C878 0.930 . S
H870 C883 0.929 . S
H871 C881 0.929 . S
H872 C876 0.929 . S
H873 C882 0.929 . S
C874 H868 0.930 . S
C874 C875 1.367 . S
C874 C882 1.378 . S
C875 C874 1.367 . S
C875 C883 1.433 . S
C876 H872 0.929 . S
C876 C878 1.378 . S
C876 C880 1.350 . S
C877 C880 1.463 . S
C877 C882 1.350 . S
C877 N885 1.427 . S
C878 H869 0.930 . S
C878 C876 1.378 . S
C878 C879 1.367 . S
C879 C878 1.367 . S
C879 C881 1.433 . S
C880 C876 1.350 . S
C880 C877 1.463 . S
C880 N884 1.427 . S
C881 H871 0.929 . S
C881 C879 1.433 . S
C881 N884 1.384 . S
C882 H873 0.929 . S
C882 C874 1.378 . S
C882 C877 1.350 . S
C883 H870 0.929 . S
C883 C875 1.433 . S
C883 N885 1.384 . S
N884 C880 1.427 . S
N884 C881 1.384 . S
N885 C877 1.427 . S
N885 C883 1.384 . S
H886 C892 0.930 . S
H887 C896 0.930 . S
H888 C901 0.929 . S
H889 C899 0.929 . S
H890 C894 0.929 . S
H891 C900 0.929 . S
C892 H886 0.930 . S
C892 C893 1.367 . S
C892 C900 1.378 . S
C893 C892 1.367 . S
C893 C901 1.433 . S
C894 H890 0.929 . S
C894 C896 1.378 . S
C894 C898 1.333 1_545 S
C895 C898 1.485 . S
C895 C900 1.350 . S
C895 N903 1.427 . S
C896 H887 0.930 . S
C896 C894 1.378 . S
C896 C897 1.367 . S
C897 C896 1.367 . S
C897 C899 1.433 . S
C898 C894 1.333 1_565 S
C898 C895 1.485 . S
C898 N902 1.424 1_565 S
C899 H889 0.929 . S
C899 C897 1.433 . S
C899 N902 1.384 . S
C900 H891 0.929 . S
C900 C892 1.378 . S
C900 C895 1.350 . S
C901 H888 0.929 . S
C901 C893 1.433 . S
C901 N903 1.384 . S
N902 C898 1.424 1_545 S
N902 C899 1.384 . S
N903 C895 1.427 . S
N903 C901 1.384 . S
H904 C910 0.930 . S
H905 C914 0.930 . S
H906 C919 0.929 1_545 S
H907 C917 0.929 . S
H908 C912 0.929 . S
H909 C918 0.929 . S
C910 H904 0.930 . S
C910 C911 1.367 . S
C910 C918 1.378 . S
C911 C910 1.367 . S
C911 C919 1.433 . S
C912 H908 0.929 . S
C912 C914 1.378 . S
C912 C916 1.350 . S
C913 C916 1.463 . S
C913 C918 1.350 . S
C913 N921 1.427 . S
C914 H905 0.930 . S
C914 C912 1.378 . S
C914 C915 1.367 . S
C915 C914 1.367 . S
C915 C917 1.433 . S
C916 C912 1.350 . S
C916 C913 1.463 . S
C916 N920 1.427 . S
C917 H907 0.929 . S
C917 C915 1.433 . S
C917 N920 1.384 . S
C918 H909 0.929 . S
C918 C910 1.378 . S
C918 C913 1.350 . S
C919 H906 0.929 1_565 S
C919 C911 1.433 . S
C919 N921 1.384 . S
N920 C916 1.427 . S
N920 C917 1.384 . S
N921 C913 1.427 . S
N921 C919 1.384 . S
H922 C928 0.930 . S
H923 C932 0.930 . S
H924 C937 0.929 . S
H925 C935 0.929 . S
H926 C930 0.929 . S
H927 C936 0.929 . S
C928 H922 0.930 . S
C928 C929 1.367 . S
C928 C936 1.378 . S
C929 C928 1.367 . S
C929 C937 1.433 . S
C930 H926 0.929 . S
C930 C932 1.378 . S
C930 C934 1.350 1_565 S
C931 C934 1.463 . S
C931 C936 1.350 . S
C931 N939 1.427 . S
C932 H923 0.930 . S
C932 C930 1.378 . S
C932 C933 1.367 . S
C933 C932 1.367 . S
C933 C935 1.433 . S
C934 C930 1.350 1_545 S
C934 C931 1.463 . S
C934 N938 1.427 . S
C935 H925 0.929 . S
C935 C933 1.433 . S
C935 N938 1.384 1_565 S
C936 H927 0.929 . S
C936 C928 1.378 . S
C936 C931 1.350 . S
C937 H924 0.929 . S
C937 C929 1.433 . S
C937 N939 1.384 . S
N938 C934 1.427 . S
N938 C935 1.384 1_545 S
N939 C931 1.427 . S
N939 C937 1.384 . S
H940 C946 0.930 . S
H941 C950 0.930 . S
H942 C955 0.929 . S
H943 C953 0.929 . S
H944 C948 0.929 . S
H945 C954 0.929 . S
C946 H940 0.930 . S
C946 C947 1.367 . S
C946 C954 1.378 . S
C947 C946 1.367 . S
C947 C955 1.433 . S
C948 H944 0.929 . S
C948 C950 1.378 . S
C948 C952 1.350 . S
C949 C952 1.463 . S
C949 C954 1.350 . S
C949 N957 1.427 . S
C950 H941 0.930 . S
C950 C948 1.378 . S
C950 C951 1.367 . S
C951 C950 1.367 . S
C951 C953 1.433 . S
C952 C948 1.350 . S
C952 C949 1.463 . S
C952 N956 1.427 . S
C953 H943 0.929 . S
C953 C951 1.433 . S
C953 N956 1.384 . S
C954 H945 0.929 . S
C954 C946 1.378 . S
C954 C949 1.350 . S
C955 H942 0.929 . S
C955 C947 1.433 . S
C955 N957 1.384 . S
N956 C952 1.427 . S
N956 C953 1.384 . S
N957 C949 1.427 . S
N957 C955 1.384 . S
H958 C964 0.930 . S
H959 C968 0.930 . S
H960 C973 0.929 . S
H961 C971 0.929 . S
H962 C966 0.929 1_565 S
H963 C972 0.929 . S
C964 H958 0.930 . S
C964 C965 1.367 . S
C964 C972 1.378 . S
C965 C964 1.367 . S
C965 C973 1.433 . S
C966 H962 0.929 1_545 S
C966 C968 1.378 . S
C966 C970 1.350 1_545 S
C967 C970 1.463 . S
C967 C972 1.350 . S
C967 N975 1.427 . S
C968 H959 0.930 . S
C968 C966 1.378 . S
C968 C969 1.367 . S
C969 C968 1.367 . S
C969 C971 1.433 . S
C970 C966 1.350 1_565 S
C970 C967 1.463 . S
C970 N974 1.427 1_565 S
C971 H961 0.929 . S
C971 C969 1.433 . S
C971 N974 1.384 . S
C972 H963 0.929 . S
C972 C964 1.378 . S
C972 C967 1.350 . S
C973 H960 0.929 . S
C973 C965 1.433 . S
C973 N975 1.384 . S
N974 C970 1.427 1_545 S
N974 C971 1.384 . S
N975 C967 1.427 . S
N975 C973 1.384 . S
H976 C982 0.930 . S
H977 C986 0.930 . S
H978 C991 0.929 . S
H979 C989 0.929 . S
H980 C984 0.929 . S
H981 C990 0.929 . S
C982 H976 0.930 . S
C982 C983 1.367 . S
C982 C990 1.378 . S
C983 C982 1.367 . S
C983 C991 1.433 . S
C984 H980 0.929 . S
C984 C986 1.378 . S
C984 C988 1.350 . S
C985 C988 1.463 . S
C985 C990 1.350 . S
C985 N993 1.427 . S
C986 H977 0.930 . S
C986 C984 1.378 . S
C986 C987 1.367 . S
C987 C986 1.367 . S
C987 C989 1.433 . S
C988 C984 1.350 . S
C988 C985 1.463 . S
C988 N992 1.427 . S
C989 H979 0.929 . S
C989 C987 1.433 . S
C989 N992 1.384 . S
C990 H981 0.929 . S
C990 C982 1.378 . S
C990 C985 1.350 . S
C991 H978 0.929 . S
C991 C983 1.433 . S
C991 N993 1.384 . S
N992 C988 1.427 . S
N992 C989 1.384 . S
N993 C985 1.427 . S
N993 C991 1.384 . S
H994 C1000 0.930 . S
H995 C1004 0.930 . S
H996 C1009 0.929 . S
H997 C1007 0.929 . S
H998 C1002 0.929 . S
H999 C1008 0.929 . S
C1000 H994 0.930 . S
C1000 C1001 1.367 . S
C1000 C1008 1.378 . S
C1001 C1000 1.367 . S
C1001 C1009 1.433 . S
C1002 H998 0.929 . S
C1002 C1004 1.378 . S
C1002 C1006 1.350 . S
C1003 C1006 1.463 . S
C1003 C1008 1.350 . S
C1003 N1011 1.427 . S
C1004 H995 0.930 . S
C1004 C1002 1.378 . S
C1004 C1005 1.367 . S
C1005 C1004 1.367 . S
C1005 C1007 1.433 . S
C1006 C1002 1.350 . S
C1006 C1003 1.463 . S
C1006 N1010 1.427 . S
C1007 H997 0.929 . S
C1007 C1005 1.433 . S
C1007 N1010 1.384 . S
C1008 H999 0.929 . S
C1008 C1000 1.378 . S
C1008 C1003 1.350 . S
C1009 H996 0.929 . S
C1009 C1001 1.433 . S
C1009 N1011 1.384 . S
N1010 C1006 1.427 . S
N1010 C1007 1.384 . S
N1011 C1003 1.427 . S
N1011 C1009 1.384 . S
H1012 C1018 0.930 . S
H1013 C1022 0.930 . S
H1014 C1027 0.929 . S
H1015 C1025 0.929 . S
H1016 C1020 0.929 . S
H1017 C1026 0.929 . S
C1018 H1012 0.930 . S
C1018 C1019 1.367 . S
C1018 C1026 1.378 . S
C1019 C1018 1.367 . S
C1019 C1027 1.433 . S
C1020 H1016 0.929 . S
C1020 C1022 1.378 1_455 S
C1020 C1024 1.350 . S
C1021 C1024 1.463 . S
C1021 C1026 1.350 . S
C1021 N1029 1.427 . S
C1022 H1013 0.930 . S
C1022 C1020 1.378 1_655 S
C1022 C1023 1.367 . S
C1023 C1022 1.367 . S
C1023 C1025 1.433 . S
C1024 C1020 1.350 . S
C1024 C1021 1.463 . S
C1024 N1028 1.427 1_455 S
C1025 H1015 0.929 . S
C1025 C1023 1.433 . S
C1025 N1028 1.384 . S
C1026 H1017 0.929 . S
C1026 C1018 1.378 . S
C1026 C1021 1.350 . S
C1027 H1014 0.929 . S
C1027 C1019 1.433 . S
C1027 N1029 1.384 . S
N1028 C1024 1.427 1_655 S
N1028 C1025 1.384 . S
N1029 C1021 1.427 . S
N1029 C1027 1.384 . S
H1030 C1036 0.930 . S
H1031 C1040 0.930 . S
H1032 C1045 0.929 . S
H1033 C1043 0.929 . S
H1034 C1038 0.929 . S
H1035 C1044 0.929 . S
C1036 H1030 0.930 . S
C1036 C1037 1.367 . S
C1036 C1044 1.378 . S
C1037 C1036 1.367 . S
C1037 C1045 1.433 . S
C1038 H1034 0.929 . S
C1038 C1040 1.378 . S
C1038 C1042 1.350 . S
C1039 C1042 1.463 . S
C1039 C1044 1.350 . S
C1039 N1047 1.427 . S
C1040 H1031 0.930 . S
C1040 C1038 1.378 . S
C1040 C1041 1.367 . S
C1041 C1040 1.367 . S
C1041 C1043 1.433 . S
C1042 C1038 1.350 . S
C1042 C1039 1.463 . S
C1042 N1046 1.427 . S
C1043 H1033 0.929 . S
C1043 C1041 1.433 . S
C1043 N1046 1.384 . S
C1044 H1035 0.929 . S
C1044 C1036 1.378 . S
C1044 C1039 1.350 . S
C1045 H1032 0.929 . S
C1045 C1037 1.433 . S
C1045 N1047 1.384 . S
N1046 C1042 1.427 . S
N1046 C1043 1.384 . S
N1047 C1039 1.427 . S
N1047 C1045 1.384 . S
H1048 C1054 0.930 . S
H1049 C1058 0.930 . S
H1050 C1063 0.929 . S
H1051 C1061 0.929 . S
H1052 C1056 0.929 . S
H1053 C1062 0.929 . S
C1054 H1048 0.930 . S
C1054 C1055 1.367 . S
C1054 C1062 1.378 . S
C1055 C1054 1.367 . S
C1055 C1063 1.433 . S
C1056 H1052 0.929 . S
C1056 C1058 1.378 . S
C1056 C1060 1.350 1_455 S
C1057 C1060 1.463 . S
C1057 C1062 1.350 . S
C1057 N1065 1.427 . S
C1058 H1049 0.930 . S
C1058 C1056 1.378 . S
C1058 C1059 1.367 . S
C1059 C1058 1.367 . S
C1059 C1061 1.433 . S
C1060 C1056 1.350 1_655 S
C1060 C1057 1.463 . S
C1060 N1064 1.427 . S
C1061 H1051 0.929 . S
C1061 C1059 1.433 . S
C1061 N1064 1.384 1_455 S
C1062 H1053 0.929 . S
C1062 C1054 1.378 . S
C1062 C1057 1.350 . S
C1063 H1050 0.929 . S
C1063 C1055 1.433 . S
C1063 N1065 1.384 . S
N1064 C1060 1.427 . S
N1064 C1061 1.384 1_655 S
N1065 C1057 1.427 . S
N1065 C1063 1.384 . S
H1066 C1072 0.930 . S
H1067 C1076 0.930 . S
H1068 C1081 0.929 . S
H1069 C1079 0.929 . S
H1070 C1074 0.929 . S
H1071 C1080 0.929 . S
C1072 H1066 0.930 . S
C1072 C1073 1.367 . S
C1072 C1080 1.378 . S
C1073 C1072 1.367 . S
C1073 C1081 1.433 . S
C1074 H1070 0.929 . S
C1074 C1076 1.378 . S
C1074 C1078 1.350 . S
C1075 C1078 1.463 . S
C1075 C1080 1.350 . S
C1075 N1083 1.427 . S
C1076 H1067 0.930 . S
C1076 C1074 1.378 . S
C1076 C1077 1.367 . S
C1077 C1076 1.367 . S
C1077 C1079 1.433 . S
C1078 C1074 1.350 . S
C1078 C1075 1.463 . S
C1078 N1082 1.427 . S
C1079 H1069 0.929 . S
C1079 C1077 1.433 . S
C1079 N1082 1.384 . S
C1080 H1071 0.929 . S
C1080 C1072 1.378 . S
C1080 C1075 1.350 . S
C1081 H1068 0.929 . S
C1081 C1073 1.433 . S
C1081 N1083 1.384 . S
N1082 C1078 1.427 . S
N1082 C1079 1.384 . S
N1083 C1075 1.427 . S
N1083 C1081 1.384 . S
H1084 C1090 0.930 . S
H1085 C1094 0.930 . S
H1086 C1099 0.929 . S
H1087 C1097 0.929 . S
H1088 C1092 0.929 . S
H1089 C1098 0.929 . S
C1090 H1084 0.930 . S
C1090 C1091 1.367 . S
C1090 C1098 1.378 . S
C1091 C1090 1.367 . S
C1091 C1099 1.433 . S
C1092 H1088 0.929 . S
C1092 C1094 1.378 . S
C1092 C1096 1.350 1_655 S
C1093 C1096 1.463 . S
C1093 C1098 1.350 . S
C1093 N1101 1.427 . S
C1094 H1085 0.930 . S
C1094 C1092 1.378 . S
C1094 C1095 1.367 . S
C1095 C1094 1.367 . S
C1095 C1097 1.433 . S
C1096 C1092 1.350 1_455 S
C1096 C1093 1.463 . S
C1096 N1100 1.427 1_455 S
C1097 H1087 0.929 . S
C1097 C1095 1.433 . S
C1097 N1100 1.384 . S
C1098 H1089 0.929 . S
C1098 C1090 1.378 . S
C1098 C1093 1.350 . S
C1099 H1086 0.929 . S
C1099 C1091 1.433 . S
C1099 N1101 1.384 . S
N1100 C1096 1.427 1_655 S
N1100 C1097 1.384 . S
N1101 C1093 1.427 . S
N1101 C1099 1.384 . S
H1102 C1108 0.930 . S
H1103 C1112 0.930 . S
H1104 C1117 0.929 . S
H1105 C1115 0.929 . S
H1106 C1110 0.929 . S
H1107 C1116 0.929 . S
C1108 H1102 0.930 . S
C1108 C1109 1.367 . S
C1108 C1116 1.378 . S
C1109 C1108 1.367 . S
C1109 C1117 1.433 . S
C1110 H1106 0.929 . S
C1110 C1112 1.378 . S
C1110 C1114 1.350 . S
C1111 C1114 1.463 . S
C1111 C1116 1.350 . S
C1111 N1119 1.427 . S
C1112 H1103 0.930 . S
C1112 C1110 1.378 . S
C1112 C1113 1.367 . S
C1113 C1112 1.367 . S
C1113 C1115 1.433 . S
C1114 C1110 1.350 . S
C1114 C1111 1.463 . S
C1114 N1118 1.427 . S
C1115 H1105 0.929 . S
C1115 C1113 1.433 . S
C1115 N1118 1.384 . S
C1116 H1107 0.929 . S
C1116 C1108 1.378 . S
C1116 C1111 1.350 . S
C1117 H1104 0.929 . S
C1117 C1109 1.433 . S
C1117 N1119 1.384 . S
N1118 C1114 1.427 . S
N1118 C1115 1.384 . S
N1119 C1111 1.427 . S
N1119 C1117 1.384 . S
H1120 C1126 0.930 . S
H1121 C1130 0.930 . S
H1122 C1135 0.929 . S
H1123 C1133 0.929 . S
H1124 C1128 0.929 . S
H1125 C1134 0.929 . S
C1126 H1120 0.930 . S
C1126 C1127 1.367 . S
C1126 C1134 1.378 . S
C1127 C1126 1.367 . S
C1127 C1135 1.433 . S
C1128 H1124 0.929 . S
C1128 C1130 1.378 . S
C1128 C1132 1.350 . S
C1129 C1132 1.463 . S
C1129 C1134 1.350 . S
C1129 N1137 1.427 . S
C1130 H1121 0.930 . S
C1130 C1128 1.378 . S
C1130 C1131 1.367 . S
C1131 C1130 1.367 . S
C1131 C1133 1.433 . S
C1132 C1128 1.350 . S
C1132 C1129 1.463 . S
C1132 N1136 1.427 . S
C1133 H1123 0.929 . S
C1133 C1131 1.433 . S
C1133 N1136 1.384 . S
C1134 H1125 0.929 . S
C1134 C1126 1.378 . S
C1134 C1129 1.350 . S
C1135 H1122 0.929 . S
C1135 C1127 1.433 . S
C1135 N1137 1.384 . S
N1136 C1132 1.427 . S
N1136 C1133 1.384 . S
N1137 C1129 1.427 . S
N1137 C1135 1.384 . S
H1138 C1144 0.930 . S
H1139 C1148 0.930 . S
H1140 C1153 0.929 . S
H1141 C1151 0.929 . S
H1142 C1146 0.929 . S
H1143 C1152 0.929 . S
C1144 H1138 0.930 . S
C1144 C1145 1.367 . S
C1144 C1152 1.378 . S
C1145 C1144 1.367 . S
C1145 C1153 1.433 . S
C1146 H1142 0.929 . S
C1146 C1148 1.378 . S
C1146 C1150 1.350 . S
C1147 C1150 1.463 . S
C1147 C1152 1.350 . S
C1147 N1155 1.427 . S
C1148 H1139 0.930 . S
C1148 C1146 1.378 . S
C1148 C1149 1.367 . S
C1149 C1148 1.367 . S
C1149 C1151 1.433 . S
C1150 C1146 1.350 . S
C1150 C1147 1.463 . S
C1150 N1154 1.427 . S
C1151 H1141 0.929 . S
C1151 C1149 1.433 . S
C1151 N1154 1.384 . S
C1152 H1143 0.929 . S
C1152 C1144 1.378 . S
C1152 C1147 1.350 . S
C1153 H1140 0.929 . S
C1153 C1145 1.433 . S
C1153 N1155 1.384 . S
N1154 C1150 1.427 . S
N1154 C1151 1.384 . S
N1155 C1147 1.427 . S
N1155 C1153 1.384 . S
H1156 C1162 0.930 . S
H1157 C1166 0.930 . S
H1158 C1171 0.929 . S
H1159 C1169 0.929 . S
H1160 C1164 0.929 . S
H1161 C1170 0.929 . S
C1162 H1156 0.930 . S
C1162 C1163 1.367 . S
C1162 C1170 1.378 . S
C1163 C1162 1.367 . S
C1163 C1171 1.433 . S
C1164 H1160 0.929 . S
C1164 C1166 1.378 . S
C1164 C1168 1.350 . S
C1165 C1168 1.463 . S
C1165 C1170 1.350 . S
C1165 N1173 1.427 . S
C1166 H1157 0.930 . S
C1166 C1164 1.378 . S
C1166 C1167 1.367 . S
C1167 C1166 1.367 . S
C1167 C1169 1.433 . S
C1168 C1164 1.350 . S
C1168 C1165 1.463 . S
C1168 N1172 1.427 . S
C1169 H1159 0.929 . S
C1169 C1167 1.433 . S
C1169 N1172 1.384 . S
C1170 H1161 0.929 . S
C1170 C1162 1.378 . S
C1170 C1165 1.350 . S
C1171 H1158 0.929 . S
C1171 C1163 1.433 . S
C1171 N1173 1.384 . S
N1172 C1168 1.427 . S
N1172 C1169 1.384 . S
N1173 C1165 1.427 . S
N1173 C1171 1.384 . S
H1174 C1180 0.930 . S
H1175 C1184 0.930 . S
H1176 C1189 0.929 . S
H1177 C1187 0.929 . S
H1178 C1182 0.929 . S
H1179 C1188 0.929 . S
C1180 H1174 0.930 . S
C1180 C1181 1.367 . S
C1180 C1188 1.378 . S
C1181 C1180 1.367 . S
C1181 C1189 1.433 . S
C1182 H1178 0.929 . S
C1182 C1184 1.378 1_556 S
C1182 C1186 1.350 . S
C1183 C1186 1.463 . S
C1183 C1188 1.350 . S
C1183 N1191 1.427 . S
C1184 H1175 0.930 . S
C1184 C1182 1.378 1_554 S
C1184 C1185 1.367 . S
C1185 C1184 1.367 . S
C1185 C1187 1.433 . S
C1186 C1182 1.350 . S
C1186 C1183 1.463 . S
C1186 N1190 1.427 1_556 S
C1187 H1177 0.929 . S
C1187 C1185 1.433 . S
C1187 N1190 1.384 . S
C1188 H1179 0.929 . S
C1188 C1180 1.378 . S
C1188 C1183 1.350 . S
C1189 H1176 0.929 . S
C1189 C1181 1.433 . S
C1189 N1191 1.384 . S
N1190 C1186 1.427 1_554 S
N1190 C1187 1.384 . S
N1191 C1183 1.427 . S
N1191 C1189 1.384 . S
H1192 C1198 0.930 . S
H1193 C1202 0.930 . S
H1194 C1207 0.929 . S
H1195 C1205 0.929 . S
H1196 C1200 0.929 . S
H1197 C1206 0.929 . S
C1198 H1192 0.930 . S
C1198 C1199 1.367 . S
C1198 C1206 1.378 . S
C1199 C1198 1.367 . S
C1199 C1207 1.433 . S
C1200 H1196 0.929 . S
C1200 C1202 1.378 . S
C1200 C1204 1.350 . S
C1201 C1204 1.463 . S
C1201 C1206 1.350 . S
C1201 N1209 1.427 . S
C1202 H1193 0.930 . S
C1202 C1200 1.378 . S
C1202 C1203 1.367 . S
C1203 C1202 1.367 . S
C1203 C1205 1.433 . S
C1204 C1200 1.350 . S
C1204 C1201 1.463 . S
C1204 N1208 1.427 . S
C1205 H1195 0.929 . S
C1205 C1203 1.433 . S
C1205 N1208 1.384 . S
C1206 H1197 0.929 . S
C1206 C1198 1.378 . S
C1206 C1201 1.350 . S
C1207 H1194 0.929 . S
C1207 C1199 1.433 . S
C1207 N1209 1.384 . S
N1208 C1204 1.427 . S
N1208 C1205 1.384 . S
N1209 C1201 1.427 . S
N1209 C1207 1.384 . S
H1210 C1216 0.930 . S
H1211 C1220 0.930 . S
H1212 C1225 0.929 . S
H1213 C1223 0.929 . S
H1214 C1218 0.929 . S
H1215 C1224 0.929 . S
C1216 H1210 0.930 . S
C1216 C1217 1.367 . S
C1216 C1224 1.378 . S
C1217 C1216 1.367 . S
C1217 C1225 1.433 . S
C1218 H1214 0.929 . S
C1218 C1220 1.378 . S
C1218 C1222 1.350 . S
C1219 C1222 1.463 . S
C1219 C1224 1.350 . S
C1219 N1227 1.427 . S
C1220 H1211 0.930 . S
C1220 C1218 1.378 . S
C1220 C1221 1.367 . S
C1221 C1220 1.367 . S
C1221 C1223 1.433 . S
C1222 C1218 1.350 . S
C1222 C1219 1.463 . S
C1222 N1226 1.427 . S
C1223 H1213 0.929 . S
C1223 C1221 1.433 . S
C1223 N1226 1.384 . S
C1224 H1215 0.929 . S
C1224 C1216 1.378 . S
C1224 C1219 1.350 . S
C1225 H1212 0.929 . S
C1225 C1217 1.433 . S
C1225 N1227 1.384 . S
N1226 C1222 1.427 . S
N1226 C1223 1.384 . S
N1227 C1219 1.427 . S
N1227 C1225 1.384 . S
H1228 C1234 0.930 . S
H1229 C1238 0.930 . S
H1230 C1243 0.929 . S
H1231 C1241 0.929 . S
H1232 C1236 0.929 . S
H1233 C1242 0.929 . S
C1234 H1228 0.930 . S
C1234 C1235 1.367 . S
C1234 C1242 1.378 . S
C1235 C1234 1.367 . S
C1235 C1243 1.433 . S
C1236 H1232 0.929 . S
C1236 C1238 1.378 . S
C1236 C1240 1.350 . S
C1237 C1240 1.463 . S
C1237 C1242 1.350 . S
C1237 N1245 1.427 . S
C1238 H1229 0.930 . S
C1238 C1236 1.378 . S
C1238 C1239 1.367 . S
C1239 C1238 1.367 . S
C1239 C1241 1.433 . S
C1240 C1236 1.350 . S
C1240 C1237 1.463 . S
C1240 N1244 1.427 . S
C1241 H1231 0.929 . S
C1241 C1239 1.433 . S
C1241 N1244 1.384 . S
C1242 H1233 0.929 . S
C1242 C1234 1.378 . S
C1242 C1237 1.350 . S
C1243 H1230 0.929 . S
C1243 C1235 1.433 . S
C1243 N1245 1.384 . S
N1244 C1240 1.427 . S
N1244 C1241 1.384 . S
N1245 C1237 1.427 . S
N1245 C1243 1.384 . S
H1246 C1252 0.930 . S
H1247 C1256 0.930 . S
H1248 C1261 0.929 1_455 S
H1249 C1259 0.929 . S
H1250 C1254 0.929 . S
H1251 C1260 0.929 . S
C1252 H1246 0.930 . S
C1252 C1253 1.367 . S
C1252 C1260 1.378 . S
C1253 C1252 1.367 . S
C1253 C1261 1.433 . S
C1254 H1250 0.929 . S
C1254 C1256 1.378 . S
C1254 C1258 1.350 1_556 S
C1255 C1258 1.463 . S
C1255 C1260 1.350 . S
C1255 N1263 1.427 . S
C1256 H1247 0.930 . S
C1256 C1254 1.378 . S
C1256 C1257 1.367 . S
C1257 C1256 1.367 . S
C1257 C1259 1.433 . S
C1258 C1254 1.350 1_554 S
C1258 C1255 1.463 . S
C1258 N1262 1.427 1_554 S
C1259 H1249 0.929 . S
C1259 C1257 1.433 . S
C1259 N1262 1.384 . S
C1260 H1251 0.929 . S
C1260 C1252 1.378 . S
C1260 C1255 1.350 . S
C1261 H1248 0.929 1_655 S
C1261 C1253 1.433 . S
C1261 N1263 1.384 . S
N1262 C1258 1.427 1_556 S
N1262 C1259 1.384 . S
N1263 C1255 1.427 . S
N1263 C1261 1.384 . S
H1264 C1270 0.930 . S
H1265 C1274 0.930 . S
H1266 C1279 0.929 . S
H1267 C1277 0.929 . S
H1268 C1272 0.929 . S
H1269 C1278 0.929 . S
C1270 H1264 0.930 . S
C1270 C1271 1.367 . S
C1270 C1278 1.378 . S
C1271 C1270 1.367 . S
C1271 C1279 1.433 . S
C1272 H1268 0.929 . S
C1272 C1274 1.378 . S
C1272 C1276 1.350 . S
C1273 C1276 1.463 . S
C1273 C1278 1.350 . S
C1273 N1281 1.427 . S
C1274 H1265 0.930 . S
C1274 C1272 1.378 . S
C1274 C1275 1.367 . S
C1275 C1274 1.367 . S
C1275 C1277 1.433 . S
C1276 C1272 1.350 . S
C1276 C1273 1.463 . S
C1276 N1280 1.427 . S
C1277 H1267 0.929 . S
C1277 C1275 1.433 . S
C1277 N1280 1.384 . S
C1278 H1269 0.929 . S
C1278 C1270 1.378 . S
C1278 C1273 1.350 . S
C1279 H1266 0.929 . S
C1279 C1271 1.433 . S
C1279 N1281 1.384 . S
N1280 C1276 1.427 . S
N1280 C1277 1.384 . S
N1281 C1273 1.427 . S
N1281 C1279 1.384 . S
H1282 C1288 0.930 . S
H1283 C1292 0.930 . S
H1284 C1297 0.929 . S
H1285 C1295 0.929 . S
H1286 C1290 0.929 . S
H1287 C1296 0.929 . S
C1288 H1282 0.930 . S
C1288 C1289 1.367 . S
C1288 C1296 1.378 . S
C1289 C1288 1.367 . S
C1289 C1297 1.433 . S
C1290 H1286 0.929 . S
C1290 C1292 1.378 . S
C1290 C1294 1.350 1_545 S
C1291 C1294 1.463 . S
C1291 C1296 1.350 . S
C1291 N1299 1.427 . S
C1292 H1283 0.930 . S
C1292 C1290 1.378 . S
C1292 C1293 1.367 . S
C1293 C1292 1.367 . S
C1293 C1295 1.433 . S
C1294 C1290 1.350 1_565 S
C1294 C1291 1.463 . S
C1294 N1298 1.427 . S
C1295 H1285 0.929 . S
C1295 C1293 1.433 . S
C1295 N1298 1.384 1_545 S
C1296 H1287 0.929 . S
C1296 C1288 1.378 . S
C1296 C1291 1.350 . S
C1297 H1284 0.929 . S
C1297 C1289 1.433 . S
C1297 N1299 1.384 . S
N1298 C1294 1.427 . S
N1298 C1295 1.384 1_565 S
N1299 C1291 1.427 . S
N1299 C1297 1.384 . S
H1300 C1306 0.930 . S
H1301 C1310 0.930 . S
H1302 C1315 0.929 . S
H1303 C1313 0.929 . S
H1304 C1308 0.929 . S
H1305 C1314 0.929 . S
C1306 H1300 0.930 . S
C1306 C1307 1.367 . S
C1306 C1314 1.378 . S
C1307 C1306 1.367 . S
C1307 C1315 1.433 . S
C1308 H1304 0.929 . S
C1308 C1310 1.378 . S
C1308 C1312 1.350 . S
C1309 C1312 1.463 . S
C1309 C1314 1.350 . S
C1309 N1317 1.427 . S
C1310 H1301 0.930 . S
C1310 C1308 1.378 . S
C1310 C1311 1.367 . S
C1311 C1310 1.367 . S
C1311 C1313 1.433 . S
C1312 C1308 1.350 . S
C1312 C1309 1.463 . S
C1312 N1316 1.427 . S
C1313 H1303 0.929 . S
C1313 C1311 1.433 . S
C1313 N1316 1.384 . S
C1314 H1305 0.929 . S
C1314 C1306 1.378 . S
C1314 C1309 1.350 . S
C1315 H1302 0.929 . S
C1315 C1307 1.433 . S
C1315 N1317 1.384 . S
N1316 C1312 1.427 . S
N1316 C1313 1.384 . S
N1317 C1309 1.427 . S
N1317 C1315 1.384 . S
H1318 C1324 0.930 . S
H1319 C1328 0.930 . S
H1320 C1333 0.929 . S
H1321 C1331 0.929 . S
H1322 C1326 0.929 . S
H1323 C1332 0.929 . S
C1324 H1318 0.930 . S
C1324 C1325 1.367 . S
C1324 C1332 1.378 . S
C1325 C1324 1.367 . S
C1325 C1333 1.433 . S
C1326 H1322 0.929 . S
C1326 C1328 1.378 1_545 S
C1326 C1330 1.350 . S
C1327 C1330 1.463 . S
C1327 C1332 1.350 . S
C1327 N1335 1.427 . S
C1328 H1319 0.930 . S
C1328 C1326 1.378 1_565 S
C1328 C1329 1.367 . S
C1329 C1328 1.367 . S
C1329 C1331 1.433 . S
C1330 C1326 1.350 . S
C1330 C1327 1.463 . S
C1330 N1334 1.427 1_545 S
C1331 H1321 0.929 . S
C1331 C1329 1.433 . S
C1331 N1334 1.384 . S
C1332 H1323 0.929 . S
C1332 C1324 1.378 . S
C1332 C1327 1.350 . S
C1333 H1320 0.929 . S
C1333 C1325 1.433 . S
C1333 N1335 1.384 . S
N1334 C1330 1.427 1_565 S
N1334 C1331 1.384 . S
N1335 C1327 1.427 . S
N1335 C1333 1.384 . S
H1336 C1342 0.930 . S
H1337 C1346 0.930 . S
H1338 C1351 0.929 . S
H1339 C1349 0.929 . S
H1340 C1344 0.929 . S
H1341 C1350 0.929 . S
C1342 H1336 0.930 . S
C1342 C1343 1.367 . S
C1342 C1350 1.378 . S
C1343 C1342 1.367 . S
C1343 C1351 1.433 . S
C1344 H1340 0.929 . S
C1344 C1346 1.378 . S
C1344 C1348 1.350 . S
C1345 C1348 1.463 . S
C1345 C1350 1.350 . S
C1345 N1353 1.427 . S
C1346 H1337 0.930 . S
C1346 C1344 1.378 . S
C1346 C1347 1.367 . S
C1347 C1346 1.367 . S
C1347 C1349 1.433 . S
C1348 C1344 1.350 . S
C1348 C1345 1.463 . S
C1348 N1352 1.427 . S
C1349 H1339 0.929 . S
C1349 C1347 1.433 . S
C1349 N1352 1.384 . S
C1350 H1341 0.929 . S
C1350 C1342 1.378 . S
C1350 C1345 1.350 . S
C1351 H1338 0.929 . S
C1351 C1343 1.433 . S
C1351 N1353 1.384 . S
N1352 C1348 1.427 . S
N1352 C1349 1.384 . S
N1353 C1345 1.427 . S
N1353 C1351 1.384 . S
H1354 C1360 0.930 . S
H1355 C1364 0.930 . S
H1356 C1369 0.929 . S
H1357 C1367 0.929 . S
H1358 C1362 0.950 . S
H1359 C1368 0.929 . S
C1360 H1354 0.930 . S
C1360 C1361 1.367 . S
C1360 C1368 1.378 . S
C1361 C1360 1.367 . S
C1361 C1369 1.433 . S
C1362 H1358 0.950 . S
C1362 C1364 1.378 . S
C1362 C1366 1.350 . S
C1363 C1366 1.463 1_565 S
C1363 C1368 1.350 . S
C1363 N1371 1.427 . S
C1364 H1355 0.930 . S
C1364 C1362 1.378 . S
C1364 C1365 1.367 . S
C1365 C1364 1.367 . S
C1365 C1367 1.433 . S
C1366 C1362 1.350 . S
C1366 C1363 1.463 1_545 S
C1366 N1370 1.427 . S
C1367 H1357 0.929 . S
C1367 C1365 1.433 . S
C1367 N1370 1.384 . S
C1368 H1359 0.929 . S
C1368 C1360 1.378 . S
C1368 C1363 1.350 . S
C1369 H1356 0.929 . S
C1369 C1361 1.433 . S
C1369 N1371 1.384 . S
N1370 C1366 1.427 . S
N1370 C1367 1.384 . S
N1371 C1363 1.427 . S
N1371 C1369 1.384 . S
H1372 C1378 0.930 . S
H1373 C1382 0.930 . S
H1374 C1387 0.929 . S
H1375 C1385 0.929 . S
H1376 C1380 0.929 . S
H1377 C1386 0.929 . S
C1378 H1372 0.930 . S
C1378 C1379 1.367 . S
C1378 C1386 1.378 . S
C1379 C1378 1.367 . S
C1379 C1387 1.433 . S
C1380 H1376 0.929 . S
C1380 C1382 1.378 . S
C1380 C1384 1.350 . S
C1381 C1384 1.463 . S
C1381 C1386 1.350 . S
C1381 N1389 1.427 . S
C1382 H1373 0.930 . S
C1382 C1380 1.378 . S
C1382 C1383 1.367 . S
C1383 C1382 1.367 . S
C1383 C1385 1.433 . S
C1384 C1380 1.350 . S
C1384 C1381 1.463 . S
C1384 N1388 1.427 . S
C1385 H1375 0.929 . S
C1385 C1383 1.433 . S
C1385 N1388 1.384 . S
C1386 H1377 0.929 . S
C1386 C1378 1.378 . S
C1386 C1381 1.350 . S
C1387 H1374 0.929 . S
C1387 C1379 1.433 . S
C1387 N1389 1.384 . S
N1388 C1384 1.427 . S
N1388 C1385 1.384 . S
N1389 C1381 1.427 . S
N1389 C1387 1.384 . S
H1390 C1396 0.912 1_554 S
H1391 C1400 0.930 . S
H1392 C1405 0.929 . S
H1393 C1403 0.929 . S
H1394 C1398 0.929 . S
H1395 C1404 0.929 . S
C1396 H1390 0.912 1_556 S
C1396 C1397 1.367 . S
C1396 C1404 1.378 . S
C1397 C1396 1.367 . S
C1397 C1405 1.433 . S
C1398 H1394 0.929 . S
C1398 C1400 1.378 1_545 S
C1398 C1402 1.350 . S
C1399 C1402 1.463 . S
C1399 C1404 1.350 . S
C1399 N1407 1.427 . S
C1400 H1391 0.930 . S
C1400 C1398 1.378 1_565 S
C1400 C1401 1.367 . S
C1401 C1400 1.367 . S
C1401 C1403 1.433 . S
C1402 C1398 1.350 . S
C1402 C1399 1.463 . S
C1402 N1406 1.427 1_545 S
C1403 H1393 0.929 . S
C1403 C1401 1.433 . S
C1403 N1406 1.384 . S
C1404 H1395 0.929 . S
C1404 C1396 1.378 . S
C1404 C1399 1.350 . S
C1405 H1392 0.929 . S
C1405 C1397 1.433 . S
C1405 N1407 1.384 . S
N1406 C1402 1.427 1_565 S
N1406 C1403 1.384 . S
N1407 C1399 1.427 . S
N1407 C1405 1.384 . S
H1408 C1414 0.930 . S
H1409 C1418 0.930 . S
H1410 C1423 0.929 . S
H1411 C1421 0.929 . S
H1412 C1416 0.929 . S
H1413 C1422 0.929 . S
C1414 H1408 0.930 . S
C1414 C1415 1.367 . S
C1414 C1422 1.378 . S
C1415 C1414 1.367 . S
C1415 C1423 1.433 . S
C1416 H1412 0.929 . S
C1416 C1418 1.378 . S
C1416 C1420 1.350 . S
C1417 C1420 1.463 . S
C1417 C1422 1.350 . S
C1417 N1425 1.427 . S
C1418 H1409 0.930 . S
C1418 C1416 1.378 . S
C1418 C1419 1.367 . S
C1419 C1418 1.367 . S
C1419 C1421 1.433 . S
C1420 C1416 1.350 . S
C1420 C1417 1.463 . S
C1420 N1424 1.427 . S
C1421 H1411 0.929 . S
C1421 C1419 1.433 . S
C1421 N1424 1.384 . S
C1422 H1413 0.929 . S
C1422 C1414 1.378 . S
C1422 C1417 1.350 . S
C1423 H1410 0.929 . S
C1423 C1415 1.433 . S
C1423 N1425 1.384 . S
N1424 C1420 1.427 . S
N1424 C1421 1.384 . S
N1425 C1417 1.427 . S
N1425 C1423 1.384 . S
H1426 C1432 0.930 . S
H1427 C1436 0.930 . S
H1428 C1441 0.929 . S
H1429 C1439 0.929 . S
H1430 C1434 0.929 . S
H1431 C1440 0.929 . S
C1432 H1426 0.930 . S
C1432 C1433 1.367 . S
C1432 C1440 1.378 . S
C1433 C1432 1.367 . S
C1433 C1441 1.433 . S
C1434 H1430 0.929 . S
C1434 C1436 1.378 . S
C1434 C1438 1.350 . S
C1435 C1438 1.463 . S
C1435 C1440 1.350 . S
C1435 N1443 1.427 . S
C1436 H1427 0.930 . S
C1436 C1434 1.378 . S
C1436 C1437 1.367 . S
C1437 C1436 1.367 . S
C1437 C1439 1.433 . S
C1438 C1434 1.350 . S
C1438 C1435 1.463 . S
C1438 N1442 1.427 . S
C1439 H1429 0.929 . S
C1439 C1437 1.433 . S
C1439 N1442 1.384 . S
C1440 H1431 0.929 . S
C1440 C1432 1.378 . S
C1440 C1435 1.350 . S
C1441 H1428 0.929 . S
C1441 C1433 1.433 . S
C1441 N1443 1.384 . S
N1442 C1438 1.427 . S
N1442 C1439 1.384 . S
N1443 C1435 1.427 . S
N1443 C1441 1.384 . S
H1444 C1450 0.930 . S
H1445 C1454 0.930 . S
H1446 C1459 0.929 . S
H1447 C1457 0.929 . S
H1448 C1452 0.929 . S
H1449 C1458 0.929 . S
C1450 H1444 0.930 . S
C1450 C1451 1.367 . S
C1450 C1458 1.378 . S
C1451 C1450 1.367 . S
C1451 C1459 1.433 . S
C1452 H1448 0.929 . S
C1452 C1454 1.378 1_655 S
C1452 C1456 1.350 . S
C1453 C1456 1.463 . S
C1453 C1458 1.350 . S
C1453 N1461 1.427 . S
C1454 H1445 0.930 . S
C1454 C1452 1.378 1_455 S
C1454 C1455 1.367 . S
C1455 C1454 1.367 . S
C1455 C1457 1.433 . S
C1456 C1452 1.350 . S
C1456 C1453 1.463 . S
C1456 N1460 1.427 1_655 S
C1457 H1447 0.929 . S
C1457 C1455 1.433 . S
C1457 N1460 1.384 . S
C1458 H1449 0.929 . S
C1458 C1450 1.378 . S
C1458 C1453 1.350 . S
C1459 H1446 0.929 . S
C1459 C1451 1.433 . S
C1459 N1461 1.384 . S
N1460 C1456 1.427 1_455 S
N1460 C1457 1.384 . S
N1461 C1453 1.427 . S
N1461 C1459 1.384 . S
H1462 C1468 0.930 . S
H1463 C1472 0.930 . S
H1464 C1477 0.929 . S
H1465 C1475 0.929 . S
H1466 C1470 0.929 . S
H1467 C1476 0.929 . S
C1468 H1462 0.930 . S
C1468 C1469 1.367 . S
C1468 C1476 1.378 . S
C1469 C1468 1.367 . S
C1469 C1477 1.433 . S
C1470 H1466 0.929 . S
C1470 C1472 1.378 . S
C1470 C1474 1.350 . S
C1471 C1474 1.463 . S
C1471 C1476 1.350 . S
C1471 N1479 1.427 . S
C1472 H1463 0.930 . S
C1472 C1470 1.378 . S
C1472 C1473 1.367 . S
C1473 C1472 1.367 . S
C1473 C1475 1.433 . S
C1474 C1470 1.350 . S
C1474 C1471 1.463 . S
C1474 N1478 1.427 . S
C1475 H1465 0.929 . S
C1475 C1473 1.433 . S
C1475 N1478 1.384 . S
C1476 H1467 0.929 . S
C1476 C1468 1.378 . S
C1476 C1471 1.350 . S
C1477 H1464 0.929 . S
C1477 C1469 1.433 . S
C1477 N1479 1.384 . S
N1478 C1474 1.427 . S
N1478 C1475 1.384 . S
N1479 C1471 1.427 . S
N1479 C1477 1.384 . S
H1480 C1486 0.930 1_545 S
H1481 C1490 0.930 . S
H1482 C1495 0.929 . S
H1483 C1493 0.929 . S
H1484 C1488 0.929 . S
H1485 C1494 0.929 . S
C1486 H1480 0.930 1_565 S
C1486 C1487 1.367 . S
C1486 C1494 1.378 . S
C1487 C1486 1.367 . S
C1487 C1495 1.433 . S
C1488 H1484 0.929 . S
C1488 C1490 1.378 1_455 S
C1488 C1492 1.350 . S
C1489 C1492 1.463 . S
C1489 C1494 1.350 . S
C1489 N1497 1.427 . S
C1490 H1481 0.930 . S
C1490 C1488 1.378 1_655 S
C1490 C1491 1.367 . S
C1491 C1490 1.367 . S
C1491 C1493 1.433 . S
C1492 C1488 1.350 . S
C1492 C1489 1.463 . S
C1492 N1496 1.427 1_455 S
C1493 H1483 0.929 . S
C1493 C1491 1.433 . S
C1493 N1496 1.384 . S
C1494 H1485 0.929 . S
C1494 C1486 1.378 . S
C1494 C1489 1.350 . S
C1495 H1482 0.929 . S
C1495 C1487 1.433 . S
C1495 N1497 1.384 . S
N1496 C1492 1.427 1_655 S
N1496 C1493 1.384 . S
N1497 C1489 1.427 . S
N1497 C1495 1.384 . S
H1498 C1504 0.930 . S
H1499 C1508 0.930 . S
H1500 C1513 0.929 . S
H1501 C1511 0.929 . S
H1502 C1506 0.929 . S
H1503 C1512 0.929 . S
C1504 H1498 0.930 . S
C1504 C1505 1.367 . S
C1504 C1512 1.378 . S
C1505 C1504 1.367 . S
C1505 C1513 1.433 . S
C1506 H1502 0.929 . S
C1506 C1508 1.378 . S
C1506 C1510 1.350 . S
C1507 C1510 1.463 . S
C1507 C1512 1.350 . S
C1507 N1515 1.427 . S
C1508 H1499 0.930 . S
C1508 C1506 1.378 . S
C1508 C1509 1.367 . S
C1509 C1508 1.367 . S
C1509 C1511 1.433 . S
C1510 C1506 1.350 . S
C1510 C1507 1.463 . S
C1510 N1514 1.427 . S
C1511 H1501 0.929 . S
C1511 C1509 1.433 . S
C1511 N1514 1.384 . S
C1512 H1503 0.929 . S
C1512 C1504 1.378 . S
C1512 C1507 1.350 . S
C1513 H1500 0.929 . S
C1513 C1505 1.433 . S
C1513 N1515 1.384 . S
N1514 C1510 1.427 . S
N1514 C1511 1.384 . S
N1515 C1507 1.427 . S
N1515 C1513 1.384 . S
H1516 C1522 0.930 . S
H1517 C1526 0.930 . S
H1518 C1531 0.929 . S
H1519 C1529 0.929 . S
H1520 C1524 0.909 1_655 S
H1521 C1530 0.929 . S
C1522 H1516 0.930 . S
C1522 C1523 1.367 . S
C1522 C1530 1.378 . S
C1523 C1522 1.367 . S
C1523 C1531 1.433 . S
C1524 H1520 0.909 1_455 S
C1524 C1526 1.398 . S
C1524 C1528 1.350 . S
C1525 C1528 1.463 1_655 S
C1525 C1530 1.350 . S
C1525 N1533 1.427 . S
C1526 H1517 0.930 . S
C1526 C1524 1.398 . S
C1526 C1527 1.367 . S
C1527 C1526 1.367 . S
C1527 C1529 1.433 . S
C1528 C1524 1.350 . S
C1528 C1525 1.463 1_455 S
C1528 N1532 1.427 . S
C1529 H1519 0.929 . S
C1529 C1527 1.433 . S
C1529 N1532 1.384 . S
C1530 H1521 0.929 . S
C1530 C1522 1.378 . S
C1530 C1525 1.350 . S
C1531 H1518 0.929 . S
C1531 C1523 1.433 . S
C1531 N1533 1.384 . S
N1532 C1528 1.427 . S
N1532 C1529 1.384 . S
N1533 C1525 1.427 . S
N1533 C1531 1.384 . S
H1534 C1540 0.930 . S
H1535 C1544 0.930 . S
H1536 C1549 0.929 . S
H1537 C1547 0.929 . S
H1538 C1542 0.929 . S
H1539 C1548 0.929 . S
C1540 H1534 0.930 . S
C1540 C1541 1.367 . S
C1540 C1548 1.378 . S
C1541 C1540 1.367 . S
C1541 C1549 1.433 . S
C1542 H1538 0.929 . S
C1542 C1544 1.378 . S
C1542 C1546 1.350 . S
C1543 C1546 1.463 . S
C1543 C1548 1.350 . S
C1543 N1551 1.427 . S
C1544 H1535 0.930 . S
C1544 C1542 1.378 . S
C1544 C1545 1.367 . S
C1545 C1544 1.367 . S
C1545 C1547 1.433 . S
C1546 C1542 1.350 . S
C1546 C1543 1.463 . S
C1546 N1550 1.427 . S
C1547 H1537 0.929 . S
C1547 C1545 1.433 . S
C1547 N1550 1.384 . S
C1548 H1539 0.929 . S
C1548 C1540 1.378 . S
C1548 C1543 1.350 . S
C1549 H1536 0.929 . S
C1549 C1541 1.433 . S
C1549 N1551 1.384 . S
N1550 C1546 1.427 . S
N1550 C1547 1.384 . S
N1551 C1543 1.427 . S
N1551 C1549 1.384 . S
H1552 C1558 0.930 . S
H1553 C1562 0.930 . S
H1554 C1567 0.929 . S
H1555 C1565 0.929 . S
H1556 C1560 0.929 . S
H1557 C1566 0.929 . S
C1558 H1552 0.930 . S
C1558 C1559 1.367 . S
C1558 C1566 1.378 . S
C1559 C1558 1.367 . S
C1559 C1567 1.433 . S
C1560 H1556 0.929 . S
C1560 C1562 1.378 . S
C1560 C1564 1.350 . S
C1561 C1564 1.463 . S
C1561 C1566 1.350 . S
C1561 N1569 1.427 . S
C1562 H1553 0.930 . S
C1562 C1560 1.378 . S
C1562 C1563 1.367 . S
C1563 C1562 1.367 . S
C1563 C1565 1.433 . S
C1564 C1560 1.350 . S
C1564 C1561 1.463 . S
C1564 N1568 1.427 . S
C1565 H1555 0.929 . S
C1565 C1563 1.433 . S
C1565 N1568 1.384 . S
C1566 H1557 0.929 . S
C1566 C1558 1.378 . S
C1566 C1561 1.350 . S
C1567 H1554 0.929 . S
C1567 C1559 1.433 . S
C1567 N1569 1.384 . S
N1568 C1564 1.427 . S
N1568 C1565 1.384 . S
N1569 C1561 1.427 . S
N1569 C1567 1.384 . S
H1570 C1576 0.930 . S
H1571 C1580 0.930 . S
H1572 C1585 0.929 . S
H1573 C1583 0.929 . S
H1574 C1578 0.929 . S
H1575 C1584 0.929 . S
C1576 H1570 0.930 . S
C1576 C1577 1.367 . S
C1576 C1584 1.378 . S
C1577 C1576 1.367 . S
C1577 C1585 1.433 . S
C1578 H1574 0.929 . S
C1578 C1580 1.378 . S
C1578 C1582 1.350 1_556 S
C1579 C1582 1.463 . S
C1579 C1584 1.350 . S
C1579 N1587 1.427 . S
C1580 H1571 0.930 . S
C1580 C1578 1.378 . S
C1580 C1581 1.367 . S
C1581 C1580 1.367 . S
C1581 C1583 1.433 . S
C1582 C1578 1.350 1_554 S
C1582 C1579 1.463 . S
C1582 N1586 1.427 . S
C1583 H1573 0.929 . S
C1583 C1581 1.433 . S
C1583 N1586 1.384 1_556 S
C1584 H1575 0.929 . S
C1584 C1576 1.378 . S
C1584 C1579 1.350 . S
C1585 H1572 0.929 . S
C1585 C1577 1.433 . S
C1585 N1587 1.384 . S
N1586 C1582 1.427 . S
N1586 C1583 1.384 1_554 S
N1587 C1579 1.427 . S
N1587 C1585 1.384 . S
H1588 C1594 0.930 . S
H1589 C1598 0.930 . S
H1590 C1603 0.929 1_455 S
H1591 C1601 0.929 . S
H1592 C1596 0.929 . S
H1593 C1602 0.929 . S
C1594 H1588 0.930 . S
C1594 C1595 1.367 . S
C1594 C1602 1.378 . S
C1595 C1594 1.367 . S
C1595 C1603 1.433 . S
C1596 H1592 0.929 . S
C1596 C1598 1.378 . S
C1596 C1600 1.350 . S
C1597 C1600 1.463 . S
C1597 C1602 1.350 . S
C1597 N1605 1.427 . S
C1598 H1589 0.930 . S
C1598 C1596 1.378 . S
C1598 C1599 1.367 . S
C1599 C1598 1.367 . S
C1599 C1601 1.433 . S
C1600 C1596 1.350 . S
C1600 C1597 1.463 . S
C1600 N1604 1.427 . S
C1601 H1591 0.929 . S
C1601 C1599 1.433 . S
C1601 N1604 1.384 . S
C1602 H1593 0.929 . S
C1602 C1594 1.378 . S
C1602 C1597 1.350 . S
C1603 H1590 0.929 1_655 S
C1603 C1595 1.433 . S
C1603 N1605 1.384 . S
N1604 C1600 1.427 . S
N1604 C1601 1.384 . S
N1605 C1597 1.427 . S
N1605 C1603 1.384 . S
H1606 C1612 0.930 . S
H1607 C1616 0.930 . S
H1608 C1621 0.929 . S
H1609 C1619 0.929 . S
H1610 C1614 0.929 . S
H1611 C1620 0.929 . S
C1612 H1606 0.930 . S
C1612 C1613 1.367 . S
C1612 C1620 1.378 . S
C1613 C1612 1.367 . S
C1613 C1621 1.433 . S
C1614 H1610 0.929 . S
C1614 C1616 1.378 . S
C1614 C1618 1.350 . S
C1615 C1618 1.463 . S
C1615 C1620 1.350 . S
C1615 N1623 1.427 . S
C1616 H1607 0.930 . S
C1616 C1614 1.378 . S
C1616 C1617 1.367 . S
C1617 C1616 1.367 . S
C1617 C1619 1.433 . S
C1618 C1614 1.350 . S
C1618 C1615 1.463 . S
C1618 N1622 1.427 . S
C1619 H1609 0.929 . S
C1619 C1617 1.433 . S
C1619 N1622 1.384 . S
C1620 H1611 0.929 . S
C1620 C1612 1.378 . S
C1620 C1615 1.350 . S
C1621 H1608 0.929 . S
C1621 C1613 1.433 . S
C1621 N1623 1.384 . S
N1622 C1618 1.427 . S
N1622 C1619 1.384 . S
N1623 C1615 1.427 . S
N1623 C1621 1.384 . S
H1624 C1630 0.930 . S
H1625 C1634 0.930 . S
H1626 C1639 0.929 . S
H1627 C1637 0.929 . S
H1628 C1632 0.929 . S
H1629 C1638 0.929 . S
C1630 H1624 0.930 . S
C1630 C1631 1.367 . S
C1630 C1638 1.378 . S
C1631 C1630 1.367 . S
C1631 C1639 1.433 . S
C1632 H1628 0.929 . S
C1632 C1634 1.378 . S
C1632 C1636 1.350 . S
C1633 C1636 1.463 . S
C1633 C1638 1.350 . S
C1633 N1641 1.427 . S
C1634 H1625 0.930 . S
C1634 C1632 1.378 . S
C1634 C1635 1.367 . S
C1635 C1634 1.367 . S
C1635 C1637 1.433 . S
C1636 C1632 1.350 . S
C1636 C1633 1.463 . S
C1636 N1640 1.427 . S
C1637 H1627 0.929 . S
C1637 C1635 1.433 . S
C1637 N1640 1.384 . S
C1638 H1629 0.929 . S
C1638 C1630 1.378 . S
C1638 C1633 1.350 . S
C1639 H1626 0.929 . S
C1639 C1631 1.433 . S
C1639 N1641 1.384 . S
N1640 C1636 1.427 . S
N1640 C1637 1.384 . S
N1641 C1633 1.427 . S
N1641 C1639 1.384 . S
H1642 C1648 0.930 . S
H1643 C1652 0.930 . S
H1644 C1657 0.929 . S
H1645 C1655 0.929 . S
H1646 C1650 0.929 . S
H1647 C1656 0.929 . S
C1648 H1642 0.930 . S
C1648 C1649 1.367 . S
C1648 C1656 1.378 . S
C1649 C1648 1.367 . S
C1649 C1657 1.433 . S
C1650 H1646 0.929 . S
C1650 C1652 1.378 1_556 S
C1650 C1654 1.354 . S
C1651 C1654 1.481 . S
C1651 C1656 1.350 . S
C1651 N1659 1.427 . S
C1652 H1643 0.930 . S
C1652 C1650 1.378 1_554 S
C1652 C1653 1.367 . S
C1653 C1652 1.367 . S
C1653 C1655 1.433 . S
C1654 C1650 1.354 . S
C1654 C1651 1.481 . S
C1654 N1658 1.405 1_556 S
C1655 H1645 0.929 . S
C1655 C1653 1.433 . S
C1655 N1658 1.384 . S
C1656 H1647 0.929 . S
C1656 C1648 1.378 . S
C1656 C1651 1.350 . S
C1657 H1644 0.929 . S
C1657 C1649 1.433 . S
C1657 N1659 1.384 . S
N1658 C1654 1.405 1_554 S
N1658 C1655 1.384 . S
N1659 C1651 1.427 . S
N1659 C1657 1.384 . S
H1660 C1666 0.930 . S
H1661 C1670 0.930 . S
H1662 C1675 0.929 . S
H1663 C1673 0.929 . S
H1664 C1668 0.929 . S
H1665 C1674 0.929 . S
C1666 H1660 0.930 . S
C1666 C1667 1.367 . S
C1666 C1674 1.378 . S
C1667 C1666 1.367 . S
C1667 C1675 1.433 . S
C1668 H1664 0.929 . S
C1668 C1670 1.378 . S
C1668 C1672 1.350 . S
C1669 C1672 1.463 . S
C1669 C1674 1.350 . S
C1669 N1677 1.427 . S
C1670 H1661 0.930 . S
C1670 C1668 1.378 . S
C1670 C1671 1.367 . S
C1671 C1670 1.367 . S
C1671 C1673 1.433 . S
C1672 C1668 1.350 . S
C1672 C1669 1.463 . S
C1672 N1676 1.427 . S
C1673 H1663 0.929 . S
C1673 C1671 1.433 . S
C1673 N1676 1.384 . S
C1674 H1665 0.929 . S
C1674 C1666 1.378 . S
C1674 C1669 1.350 . S
C1675 H1662 0.929 . S
C1675 C1667 1.433 . S
C1675 N1677 1.384 . S
N1676 C1672 1.427 . S
N1676 C1673 1.384 . S
N1677 C1669 1.427 . S
N1677 C1675 1.384 . S
H1678 C1684 0.930 . S
H1679 C1688 0.930 . S
H1680 C1693 0.929 . S
H1681 C1691 0.929 . S
H1682 C1686 0.929 . S
H1683 C1692 0.929 . S
C1684 H1678 0.930 . S
C1684 C1685 1.367 . S
C1684 C1692 1.378 . S
C1685 C1684 1.367 . S
C1685 C1693 1.433 . S
C1686 H1682 0.929 . S
C1686 C1688 1.378 . S
C1686 C1690 1.350 . S
C1687 C1690 1.463 . S
C1687 C1692 1.350 . S
C1687 N1695 1.427 . S
C1688 H1679 0.930 . S
C1688 C1686 1.378 . S
C1688 C1689 1.367 . S
C1689 C1688 1.367 . S
C1689 C1691 1.433 . S
C1690 C1686 1.350 . S
C1690 C1687 1.463 . S
C1690 N1694 1.427 . S
C1691 H1681 0.929 . S
C1691 C1689 1.433 . S
C1691 N1694 1.384 . S
C1692 H1683 0.929 . S
C1692 C1684 1.378 . S
C1692 C1687 1.350 . S
C1693 H1680 0.929 . S
C1693 C1685 1.433 . S
C1693 N1695 1.384 . S
N1694 C1690 1.427 . S
N1694 C1691 1.384 . S
N1695 C1687 1.427 . S
N1695 C1693 1.384 . S
H1696 C1702 0.930 . S
H1697 C1706 0.930 . S
H1698 C1711 0.929 . S
H1699 C1709 0.929 . S
H1700 C1704 0.929 . S
H1701 C1710 0.929 . S
C1702 H1696 0.930 . S
C1702 C1703 1.367 . S
C1702 C1710 1.378 . S
C1703 C1702 1.367 . S
C1703 C1711 1.433 . S
C1704 H1700 0.929 . S
C1704 C1706 1.378 . S
C1704 C1708 1.350 . S
C1705 C1708 1.463 . S
C1705 C1710 1.350 . S
C1705 N1713 1.427 . S
C1706 H1697 0.930 . S
C1706 C1704 1.378 . S
C1706 C1707 1.367 . S
C1707 C1706 1.367 . S
C1707 C1709 1.433 . S
C1708 C1704 1.350 . S
C1708 C1705 1.463 . S
C1708 N1712 1.427 . S
C1709 H1699 0.929 . S
C1709 C1707 1.433 . S
C1709 N1712 1.384 . S
C1710 H1701 0.929 . S
C1710 C1702 1.378 . S
C1710 C1705 1.350 . S
C1711 H1698 0.929 . S
C1711 C1703 1.433 . S
C1711 N1713 1.384 . S
N1712 C1708 1.427 . S
N1712 C1709 1.384 . S
N1713 C1705 1.427 . S
N1713 C1711 1.384 . S
H1714 C1720 0.930 . S
H1715 C1724 0.930 . S
H1716 C1729 0.929 . S
H1717 C1727 0.929 . S
H1718 C1722 0.929 . S
H1719 C1728 0.929 . S
C1720 H1714 0.930 . S
C1720 C1721 1.367 . S
C1720 C1728 1.378 . S
C1721 C1720 1.367 . S
C1721 C1729 1.433 . S
C1722 H1718 0.929 . S
C1722 C1724 1.378 . S
C1722 C1726 1.350 . S
C1723 C1726 1.463 . S
C1723 C1728 1.350 . S
C1723 N1731 1.427 . S
C1724 H1715 0.930 . S
C1724 C1722 1.378 . S
C1724 C1725 1.367 . S
C1725 C1724 1.367 . S
C1725 C1727 1.433 . S
C1726 C1722 1.350 . S
C1726 C1723 1.463 . S
C1726 N1730 1.427 . S
C1727 H1717 0.929 . S
C1727 C1725 1.433 . S
C1727 N1730 1.384 . S
C1728 H1719 0.929 . S
C1728 C1720 1.378 . S
C1728 C1723 1.350 . S
C1729 H1716 0.929 . S
C1729 C1721 1.433 . S
C1729 N1731 1.384 . S
N1730 C1726 1.427 . S
N1730 C1727 1.384 . S
N1731 C1723 1.427 . S
N1731 C1729 1.384 . S
H1732 C1738 0.930 . S
H1733 C1742 0.930 . S
H1734 C1747 0.929 . S
H1735 C1745 0.929 . S
H1736 C1740 0.929 . S
H1737 C1746 0.929 . S
C1738 H1732 0.930 . S
C1738 C1739 1.367 . S
C1738 C1746 1.378 . S
C1739 C1738 1.367 . S
C1739 C1747 1.433 . S
C1740 H1736 0.929 . S
C1740 C1742 1.378 . S
C1740 C1744 1.350 . S
C1741 C1744 1.463 . S
C1741 C1746 1.350 . S
C1741 N1749 1.427 . S
C1742 H1733 0.930 . S
C1742 C1740 1.378 . S
C1742 C1743 1.367 . S
C1743 C1742 1.367 . S
C1743 C1745 1.433 . S
C1744 C1740 1.350 . S
C1744 C1741 1.463 . S
C1744 N1748 1.427 . S
C1745 H1735 0.929 . S
C1745 C1743 1.433 . S
C1745 N1748 1.384 . S
C1746 H1737 0.929 . S
C1746 C1738 1.378 . S
C1746 C1741 1.350 . S
C1747 H1734 0.929 . S
C1747 C1739 1.433 . S
C1747 N1749 1.384 . S
N1748 C1744 1.427 . S
N1748 C1745 1.384 . S
N1749 C1741 1.427 . S
N1749 C1747 1.384 . S
H1750 C1756 0.930 . S
H1751 C1760 0.930 . S
H1752 C1765 0.929 . S
H1753 C1763 0.929 . S
H1754 C1758 0.929 . S
H1755 C1764 0.929 . S
C1756 H1750 0.930 . S
C1756 C1757 1.367 . S
C1756 C1764 1.378 . S
C1757 C1756 1.367 . S
C1757 C1765 1.433 . S
C1758 H1754 0.929 . S
C1758 C1760 1.378 . S
C1758 C1762 1.350 . S
C1759 C1762 1.463 . S
C1759 C1764 1.350 . S
C1759 N1767 1.427 . S
C1760 H1751 0.930 . S
C1760 C1758 1.378 . S
C1760 C1761 1.367 . S
C1761 C1760 1.367 . S
C1761 C1763 1.433 . S
C1762 C1758 1.350 . S
C1762 C1759 1.463 . S
C1762 N1766 1.427 . S
C1763 H1753 0.929 . S
C1763 C1761 1.433 . S
C1763 N1766 1.384 . S
C1764 H1755 0.929 . S
C1764 C1756 1.378 . S
C1764 C1759 1.350 . S
C1765 H1752 0.929 . S
C1765 C1757 1.433 . S
C1765 N1767 1.384 . S
N1766 C1762 1.427 . S
N1766 C1763 1.384 . S
N1767 C1759 1.427 . S
N1767 C1765 1.384 . S
H1768 C1774 0.930 . S
H1769 C1778 0.930 . S
H1770 C1783 0.929 . S
H1771 C1781 0.929 . S
H1772 C1776 0.929 . S
H1773 C1782 0.929 . S
C1774 H1768 0.930 . S
C1774 C1775 1.367 . S
C1774 C1782 1.378 . S
C1775 C1774 1.367 . S
C1775 C1783 1.433 . S
C1776 H1772 0.929 . S
C1776 C1778 1.378 . S
C1776 C1780 1.350 . S
C1777 C1780 1.463 . S
C1777 C1782 1.350 . S
C1777 N1785 1.427 . S
C1778 H1769 0.930 . S
C1778 C1776 1.378 . S
C1778 C1779 1.367 . S
C1779 C1778 1.367 . S
C1779 C1781 1.433 . S
C1780 C1776 1.350 . S
C1780 C1777 1.463 . S
C1780 N1784 1.427 . S
C1781 H1771 0.929 . S
C1781 C1779 1.433 . S
C1781 N1784 1.384 . S
C1782 H1773 0.929 . S
C1782 C1774 1.378 . S
C1782 C1777 1.350 . S
C1783 H1770 0.929 . S
C1783 C1775 1.433 . S
C1783 N1785 1.384 . S
N1784 C1780 1.427 . S
N1784 C1781 1.384 . S
N1785 C1777 1.427 . S
N1785 C1783 1.384 . S
H1786 C1792 0.930 . S
H1787 C1796 0.930 . S
H1788 C1801 0.929 . S
H1789 C1799 0.929 . S
H1790 C1794 0.929 . S
H1791 C1800 0.929 . S
C1792 H1786 0.930 . S
C1792 C1793 1.367 . S
C1792 C1800 1.378 . S
C1793 C1792 1.367 . S
C1793 C1801 1.433 . S
C1794 H1790 0.929 . S
C1794 C1796 1.378 . S
C1794 C1798 1.350 . S
C1795 C1798 1.463 . S
C1795 C1800 1.350 . S
C1795 N1803 1.427 . S
C1796 H1787 0.930 . S
C1796 C1794 1.378 . S
C1796 C1797 1.367 . S
C1797 C1796 1.367 . S
C1797 C1799 1.433 . S
C1798 C1794 1.350 . S
C1798 C1795 1.463 . S
C1798 N1802 1.427 . S
C1799 H1789 0.929 . S
C1799 C1797 1.433 . S
C1799 N1802 1.384 . S
C1800 H1791 0.929 . S
C1800 C1792 1.378 . S
C1800 C1795 1.350 . S
C1801 H1788 0.929 . S
C1801 C1793 1.433 . S
C1801 N1803 1.384 . S
N1802 C1798 1.427 . S
N1802 C1799 1.384 . S
N1803 C1795 1.427 . S
N1803 C1801 1.384 . S
H1804 C1810 0.930 . S
H1805 C1814 0.930 . S
H1806 C1819 0.929 . S
H1807 C1817 0.929 . S
H1808 C1812 0.929 . S
H1809 C1818 0.929 . S
C1810 H1804 0.930 . S
C1810 C1811 1.367 . S
C1810 C1818 1.378 . S
C1811 C1810 1.367 . S
C1811 C1819 1.433 . S
C1812 H1808 0.929 . S
C1812 C1814 1.378 . S
C1812 C1816 1.350 . S
C1813 C1816 1.463 . S
C1813 C1818 1.350 . S
C1813 N1821 1.427 . S
C1814 H1805 0.930 . S
C1814 C1812 1.378 . S
C1814 C1815 1.367 . S
C1815 C1814 1.367 . S
C1815 C1817 1.433 . S
C1816 C1812 1.350 . S
C1816 C1813 1.463 . S
C1816 N1820 1.427 . S
C1817 H1807 0.929 . S
C1817 C1815 1.433 . S
C1817 N1820 1.384 . S
C1818 H1809 0.929 . S
C1818 C1810 1.378 . S
C1818 C1813 1.350 . S
C1819 H1806 0.929 . S
C1819 C1811 1.433 . S
C1819 N1821 1.384 . S
N1820 C1816 1.427 . S
N1820 C1817 1.384 . S
N1821 C1813 1.427 . S
N1821 C1819 1.384 . S
H1822 C1828 0.930 . S
H1823 C1832 0.930 . S
H1824 C1837 0.929 . S
H1825 C1835 0.929 . S
H1826 C1830 0.929 . S
H1827 C1836 0.929 . S
C1828 H1822 0.930 . S
C1828 C1829 1.367 . S
C1828 C1836 1.378 . S
C1829 C1828 1.367 . S
C1829 C1837 1.433 . S
C1830 H1826 0.929 . S
C1830 C1832 1.378 . S
C1830 C1834 1.350 . S
C1831 C1834 1.463 . S
C1831 C1836 1.350 . S
C1831 N1839 1.427 . S
C1832 H1823 0.930 . S
C1832 C1830 1.378 . S
C1832 C1833 1.367 . S
C1833 C1832 1.367 . S
C1833 C1835 1.433 . S
C1834 C1830 1.350 . S
C1834 C1831 1.463 . S
C1834 N1838 1.427 . S
C1835 H1825 0.929 . S
C1835 C1833 1.433 . S
C1835 N1838 1.384 . S
C1836 H1827 0.929 . S
C1836 C1828 1.378 . S
C1836 C1831 1.350 . S
C1837 H1824 0.929 . S
C1837 C1829 1.433 . S
C1837 N1839 1.384 . S
N1838 C1834 1.427 . S
N1838 C1835 1.384 . S
N1839 C1831 1.427 . S
N1839 C1837 1.384 . S
H1840 C1846 0.930 . S
H1841 C1850 0.930 . S
H1842 C1855 0.929 . S
H1843 C1853 0.929 . S
H1844 C1848 0.929 . S
H1845 C1854 0.929 . S
C1846 H1840 0.930 . S
C1846 C1847 1.367 . S
C1846 C1854 1.378 . S
C1847 C1846 1.367 . S
C1847 C1855 1.433 . S
C1848 H1844 0.929 . S
C1848 C1850 1.378 . S
C1848 C1852 1.350 . S
C1849 C1852 1.463 . S
C1849 C1854 1.350 . S
C1849 N1857 1.427 . S
C1850 H1841 0.930 . S
C1850 C1848 1.378 . S
C1850 C1851 1.367 . S
C1851 C1850 1.367 . S
C1851 C1853 1.433 . S
C1852 C1848 1.350 . S
C1852 C1849 1.463 . S
C1852 N1856 1.427 . S
C1853 H1843 0.929 . S
C1853 C1851 1.433 . S
C1853 N1856 1.384 . S
C1854 H1845 0.929 . S
C1854 C1846 1.378 . S
C1854 C1849 1.350 . S
C1855 H1842 0.929 . S
C1855 C1847 1.433 . S
C1855 N1857 1.384 . S
N1856 C1852 1.427 . S
N1856 C1853 1.384 . S
N1857 C1849 1.427 . S
N1857 C1855 1.384 . S
H1858 C1864 0.930 . S
H1859 C1868 0.930 . S
H1860 C1873 0.929 . S
H1861 C1871 0.929 . S
H1862 C1866 0.929 . S
H1863 C1872 0.929 . S
C1864 H1858 0.930 . S
C1864 C1865 1.367 . S
C1864 C1872 1.378 . S
C1865 C1864 1.367 . S
C1865 C1873 1.433 . S
C1866 H1862 0.929 . S
C1866 C1868 1.378 . S
C1866 C1870 1.350 . S
C1867 C1870 1.463 . S
C1867 C1872 1.350 . S
C1867 N1875 1.427 . S
C1868 H1859 0.930 . S
C1868 C1866 1.378 . S
C1868 C1869 1.367 . S
C1869 C1868 1.367 . S
C1869 C1871 1.433 . S
C1870 C1866 1.350 . S
C1870 C1867 1.463 . S
C1870 N1874 1.427 . S
C1871 H1861 0.929 . S
C1871 C1869 1.433 . S
C1871 N1874 1.384 . S
C1872 H1863 0.929 . S
C1872 C1864 1.378 . S
C1872 C1867 1.350 . S
C1873 H1860 0.929 . S
C1873 C1865 1.433 . S
C1873 N1875 1.384 . S
N1874 C1870 1.427 . S
N1874 C1871 1.384 . S
N1875 C1867 1.427 . S
N1875 C1873 1.384 . S
H1876 C1882 0.930 . S
H1877 C1886 0.930 . S
H1878 C1891 0.929 . S
H1879 C1889 0.929 . S
H1880 C1884 0.929 . S
H1881 C1890 0.929 . S
C1882 H1876 0.930 . S
C1882 C1883 1.367 . S
C1882 C1890 1.378 . S
C1883 C1882 1.367 . S
C1883 C1891 1.433 . S
C1884 H1880 0.929 . S
C1884 C1886 1.378 . S
C1884 C1888 1.350 . S
C1885 C1888 1.463 . S
C1885 C1890 1.350 . S
C1885 N1893 1.427 . S
C1886 H1877 0.930 . S
C1886 C1884 1.378 . S
C1886 C1887 1.367 . S
C1887 C1886 1.367 . S
C1887 C1889 1.433 . S
C1888 C1884 1.350 . S
C1888 C1885 1.463 . S
C1888 N1892 1.427 . S
C1889 H1879 0.929 . S
C1889 C1887 1.433 . S
C1889 N1892 1.384 . S
C1890 H1881 0.929 . S
C1890 C1882 1.378 . S
C1890 C1885 1.350 . S
C1891 H1878 0.929 . S
C1891 C1883 1.433 . S
C1891 N1893 1.384 . S
N1892 C1888 1.427 . S
N1892 C1889 1.384 . S
N1893 C1885 1.427 . S
N1893 C1891 1.384 . S
H1894 C1900 0.959 . S
H1895 C1904 0.930 . S
H1896 C1909 0.929 . S
H1897 C1907 0.929 . S
H1898 C1902 0.929 . S
H1899 C1908 0.929 . S
C1900 H1894 0.959 . S
C1900 C1901 1.367 . S
C1900 C1908 1.378 . S
C1901 C1900 1.367 . S
C1901 C1909 1.433 . S
C1902 H1898 0.929 . S
C1902 C1904 1.378 . S
C1902 C1906 1.350 . S
C1903 C1906 1.463 . S
C1903 C1908 1.350 . S
C1903 N1911 1.427 . S
C1904 H1895 0.930 . S
C1904 C1902 1.378 . S
C1904 C1905 1.367 . S
C1905 C1904 1.367 . S
C1905 C1907 1.433 . S
C1906 C1902 1.350 . S
C1906 C1903 1.463 . S
C1906 N1910 1.427 . S
C1907 H1897 0.929 . S
C1907 C1905 1.433 . S
C1907 N1910 1.384 . S
C1908 H1899 0.929 . S
C1908 C1900 1.378 . S
C1908 C1903 1.350 . S
C1909 H1896 0.929 . S
C1909 C1901 1.433 . S
C1909 N1911 1.384 . S
N1910 C1906 1.427 . S
N1910 C1907 1.384 . S
N1911 C1903 1.427 . S
N1911 C1909 1.384 . S
H1912 C1918 0.930 . S
H1913 C1922 0.930 . S
H1914 C1927 0.929 . S
H1915 C1925 0.929 . S
H1916 C1920 0.929 . S
H1917 C1926 0.929 . S
C1918 H1912 0.930 . S
C1918 C1919 1.367 . S
C1918 C1926 1.378 . S
C1919 C1918 1.367 . S
C1919 C1927 1.433 . S
C1920 H1916 0.929 . S
C1920 C1922 1.378 . S
C1920 C1924 1.350 . S
C1921 C1924 1.463 . S
C1921 C1926 1.350 . S
C1921 N1929 1.427 . S
C1922 H1913 0.930 . S
C1922 C1920 1.378 . S
C1922 C1923 1.367 . S
C1923 C1922 1.367 . S
C1923 C1925 1.433 . S
C1924 C1920 1.350 . S
C1924 C1921 1.463 . S
C1924 N1928 1.427 . S
C1925 H1915 0.929 . S
C1925 C1923 1.433 . S
C1925 N1928 1.384 . S
C1926 H1917 0.929 . S
C1926 C1918 1.378 . S
C1926 C1921 1.350 . S
C1927 H1914 0.929 . S
C1927 C1919 1.433 . S
C1927 N1929 1.384 . S
N1928 C1924 1.427 . S
N1928 C1925 1.384 . S
N1929 C1921 1.427 . S
N1929 C1927 1.384 . S
H1930 C1936 0.930 . S
H1931 C1940 0.930 . S
H1932 C1945 0.927 . S
H1933 C1943 0.929 . S
H1934 C1938 0.929 . S
H1935 C1944 0.929 . S
C1936 H1930 0.930 . S
C1936 C1937 1.367 . S
C1936 C1944 1.378 . S
C1937 C1936 1.367 . S
C1937 C1945 1.433 . S
C1938 H1934 0.929 . S
C1938 C1940 1.378 . S
C1938 C1942 1.350 . S
C1939 C1942 1.463 . S
C1939 C1944 1.350 . S
C1939 N1947 1.427 . S
C1940 H1931 0.930 . S
C1940 C1938 1.378 . S
C1940 C1941 1.367 . S
C1941 C1940 1.367 . S
C1941 C1943 1.433 . S
C1942 C1938 1.350 . S
C1942 C1939 1.463 . S
C1942 N1946 1.427 . S
C1943 H1933 0.929 . S
C1943 C1941 1.433 . S
C1943 N1946 1.384 . S
C1944 H1935 0.929 . S
C1944 C1936 1.378 . S
C1944 C1939 1.350 . S
C1945 H1932 0.927 . S
C1945 C1937 1.433 . S
C1945 N1947 1.384 . S
N1946 C1942 1.427 . S
N1946 C1943 1.384 . S
N1947 C1939 1.427 . S
N1947 C1945 1.384 . S
H1948 C1954 0.930 . S
H1949 C1958 0.930 . S
H1950 C1963 0.929 . S
H1951 C1961 0.929 . S
H1952 C1956 0.929 . S
H1953 C1962 0.929 . S
C1954 H1948 0.930 . S
C1954 C1955 1.367 . S
C1954 C1962 1.378 . S
C1955 C1954 1.367 . S
C1955 C1963 1.433 . S
C1956 H1952 0.929 . S
C1956 C1958 1.378 . S
C1956 C1960 1.350 . S
C1957 C1960 1.463 . S
C1957 C1962 1.350 . S
C1957 N1965 1.427 . S
C1958 H1949 0.930 . S
C1958 C1956 1.378 . S
C1958 C1959 1.367 . S
C1959 C1958 1.367 . S
C1959 C1961 1.433 . S
C1960 C1956 1.350 . S
C1960 C1957 1.463 . S
C1960 N1964 1.427 . S
C1961 H1951 0.929 . S
C1961 C1959 1.433 . S
C1961 N1964 1.384 . S
C1962 H1953 0.929 . S
C1962 C1954 1.378 . S
C1962 C1957 1.350 . S
C1963 H1950 0.929 . S
C1963 C1955 1.433 . S
C1963 N1965 1.384 . S
N1964 C1960 1.427 . S
N1964 C1961 1.384 . S
N1965 C1957 1.427 . S
N1965 C1963 1.384 . S
H1966 C1972 0.930 . S
H1967 C1976 0.930 . S
H1968 C1981 0.929 . S
H1969 C1979 0.929 . S
H1970 C1974 0.929 . S
H1971 C1980 0.929 . S
C1972 H1966 0.930 . S
C1972 C1973 1.367 . S
C1972 C1980 1.378 . S
C1973 C1972 1.367 . S
C1973 C1981 1.433 . S
C1974 H1970 0.929 . S
C1974 C1976 1.378 . S
C1974 C1978 1.354 . S
C1975 C1978 1.454 1_655 S
C1975 C1980 1.350 . S
C1975 N1983 1.427 . S
C1976 H1967 0.930 . S
C1976 C1974 1.378 . S
C1976 C1977 1.367 . S
C1977 C1976 1.367 . S
C1977 C1979 1.433 . S
C1978 C1974 1.354 . S
C1978 C1975 1.454 1_455 S
C1978 N1982 1.431 . S
C1979 H1969 0.929 . S
C1979 C1977 1.433 . S
C1979 N1982 1.384 . S
C1980 H1971 0.929 . S
C1980 C1972 1.378 . S
C1980 C1975 1.350 . S
C1981 H1968 0.929 . S
C1981 C1973 1.433 . S
C1981 N1983 1.384 . S
N1982 C1978 1.431 . S
N1982 C1979 1.384 . S
N1983 C1975 1.427 . S
N1983 C1981 1.384 . S
H1984 C1990 0.930 . S
H1985 C1994 0.930 . S
H1986 C1999 0.929 . S
H1987 C1997 0.929 . S
H1988 C1992 0.929 . S
H1989 C1998 0.929 . S
C1990 H1984 0.930 . S
C1990 C1991 1.367 . S
C1990 C1998 1.378 . S
C1991 C1990 1.367 . S
C1991 C1999 1.433 . S
C1992 H1988 0.929 . S
C1992 C1994 1.378 . S
C1992 C1996 1.350 . S
C1993 C1996 1.463 . S
C1993 C1998 1.350 . S
C1993 N2001 1.427 . S
C1994 H1985 0.930 . S
C1994 C1992 1.378 . S
C1994 C1995 1.367 . S
C1995 C1994 1.367 . S
C1995 C1997 1.433 . S
C1996 C1992 1.350 . S
C1996 C1993 1.463 . S
C1996 N2000 1.427 . S
C1997 H1987 0.929 . S
C1997 C1995 1.433 . S
C1997 N2000 1.384 . S
C1998 H1989 0.929 . S
C1998 C1990 1.378 . S
C1998 C1993 1.350 . S
C1999 H1986 0.929 . S
C1999 C1991 1.433 . S
C1999 N2001 1.384 . S
N2000 C1996 1.427 . S
N2000 C1997 1.384 . S
N2001 C1993 1.427 . S
N2001 C1999 1.384 . S
H2002 C2008 0.930 . S
H2003 C2012 0.930 . S
H2004 C2017 0.929 . S
H2005 C2015 0.929 . S
H2006 C2010 0.929 . S
H2007 C2016 0.929 . S
C2008 H2002 0.930 . S
C2008 C2009 1.367 . S
C2008 C2016 1.378 . S
C2009 C2008 1.367 . S
C2009 C2017 1.433 . S
C2010 H2006 0.929 . S
C2010 C2012 1.378 . S
C2010 C2014 1.371 . S
C2011 C2014 1.432 1_556 S
C2011 C2016 1.350 . S
C2011 N2019 1.427 . S
C2012 H2003 0.930 . S
C2012 C2010 1.378 . S
C2012 C2013 1.367 . S
C2013 C2012 1.367 . S
C2013 C2015 1.433 . S
C2014 C2010 1.371 . S
C2014 C2011 1.432 1_554 S
C2014 N2018 1.436 . S
C2015 H2005 0.929 . S
C2015 C2013 1.433 . S
C2015 N2018 1.384 . S
C2016 H2007 0.929 . S
C2016 C2008 1.378 . S
C2016 C2011 1.350 . S
C2017 H2004 0.929 . S
C2017 C2009 1.433 . S
C2017 N2019 1.384 . S
N2018 C2014 1.436 . S
N2018 C2015 1.384 . S
N2019 C2011 1.427 . S
N2019 C2017 1.384 . S
H2020 C2026 0.930 . S
H2021 C2030 0.930 . S
H2022 C2035 0.929 . S
H2023 C2033 0.929 . S
H2024 C2028 0.929 . S
H2025 C2034 0.929 . S
C2026 H2020 0.930 . S
C2026 C2027 1.367 . S
C2026 C2034 1.378 . S
C2027 C2026 1.367 . S
C2027 C2035 1.433 . S
C2028 H2024 0.929 . S
C2028 C2030 1.378 . S
C2028 C2032 1.350 . S
C2029 C2032 1.463 . S
C2029 C2034 1.350 . S
C2029 N2037 1.427 . S
C2030 H2021 0.930 . S
C2030 C2028 1.378 . S
C2030 C2031 1.367 . S
C2031 C2030 1.367 . S
C2031 C2033 1.433 . S
C2032 C2028 1.350 . S
C2032 C2029 1.463 . S
C2032 N2036 1.427 . S
C2033 H2023 0.929 . S
C2033 C2031 1.433 . S
C2033 N2036 1.384 . S
C2034 H2025 0.929 . S
C2034 C2026 1.378 . S
C2034 C2029 1.350 . S
C2035 H2022 0.929 . S
C2035 C2027 1.433 . S
C2035 N2037 1.384 . S
N2036 C2032 1.427 . S
N2036 C2033 1.384 . S
N2037 C2029 1.427 . S
N2037 C2035 1.384 . S
H2038 C2044 0.906 1_655 S
H2039 C2048 0.930 . S
H2040 C2053 0.929 . S
H2041 C2051 0.929 . S
H2042 C2046 0.929 . S
H2043 C2052 0.929 . S
C2044 H2038 0.906 1_455 S
C2044 C2045 1.367 . S
C2044 C2052 1.378 . S
C2045 C2044 1.367 . S
C2045 C2053 1.433 . S
C2046 H2042 0.929 . S
C2046 C2048 1.378 . S
C2046 C2050 1.350 . S
C2047 C2050 1.463 . S
C2047 C2052 1.350 . S
C2047 N2055 1.427 . S
C2048 H2039 0.930 . S
C2048 C2046 1.378 . S
C2048 C2049 1.367 . S
C2049 C2048 1.367 . S
C2049 C2051 1.433 . S
C2050 C2046 1.350 . S
C2050 C2047 1.463 . S
C2050 N2054 1.427 . S
C2051 H2041 0.929 . S
C2051 C2049 1.433 . S
C2051 N2054 1.384 . S
C2052 H2043 0.929 . S
C2052 C2044 1.378 . S
C2052 C2047 1.350 . S
C2053 H2040 0.929 . S
C2053 C2045 1.433 . S
C2053 N2055 1.384 . S
N2054 C2050 1.427 . S
N2054 C2051 1.384 . S
N2055 C2047 1.427 . S
N2055 C2053 1.384 . S
H2056 C2062 0.930 . S
H2057 C2066 0.930 . S
H2058 C2071 0.929 . S
H2059 C2069 0.929 . S
H2060 C2064 0.929 . S
H2061 C2070 0.929 . S
C2062 H2056 0.930 . S
C2062 C2063 1.367 . S
C2062 C2070 1.378 . S
C2063 C2062 1.367 . S
C2063 C2071 1.433 . S
C2064 H2060 0.929 . S
C2064 C2066 1.378 . S
C2064 C2068 1.350 . S
C2065 C2068 1.463 . S
C2065 C2070 1.350 . S
C2065 N2073 1.427 . S
C2066 H2057 0.930 . S
C2066 C2064 1.378 . S
C2066 C2067 1.367 . S
C2067 C2066 1.367 . S
C2067 C2069 1.433 . S
C2068 C2064 1.350 . S
C2068 C2065 1.463 . S
C2068 N2072 1.427 . S
C2069 H2059 0.929 . S
C2069 C2067 1.433 . S
C2069 N2072 1.384 . S
C2070 H2061 0.929 . S
C2070 C2062 1.378 . S
C2070 C2065 1.350 . S
C2071 H2058 0.929 . S
C2071 C2063 1.433 . S
C2071 N2073 1.384 . S
N2072 C2068 1.427 . S
N2072 C2069 1.384 . S
N2073 C2065 1.427 . S
N2073 C2071 1.384 . S
H2074 C2080 0.930 . S
H2075 C2084 0.930 . S
H2076 C2089 0.929 . S
H2077 C2087 0.929 . S
H2078 C2082 0.929 1_554 S
H2079 C2088 0.929 . S
C2080 H2074 0.930 . S
C2080 C2081 1.367 . S
C2080 C2088 1.378 . S
C2081 C2080 1.367 . S
C2081 C2089 1.433 . S
C2082 H2078 0.929 1_556 S
C2082 C2084 1.378 . S
C2082 C2086 1.350 1_556 S
C2083 C2086 1.463 . S
C2083 C2088 1.350 . S
C2083 N2091 1.427 . S
C2084 H2075 0.930 . S
C2084 C2082 1.378 . S
C2084 C2085 1.367 . S
C2085 C2084 1.367 . S
C2085 C2087 1.433 . S
C2086 C2082 1.350 1_554 S
C2086 C2083 1.463 . S
C2086 N2090 1.427 1_554 S
C2087 H2077 0.929 . S
C2087 C2085 1.433 . S
C2087 N2090 1.384 . S
C2088 H2079 0.929 . S
C2088 C2080 1.378 . S
C2088 C2083 1.350 . S
C2089 H2076 0.929 . S
C2089 C2081 1.433 . S
C2089 N2091 1.384 . S
N2090 C2086 1.427 1_556 S
N2090 C2087 1.384 . S
N2091 C2083 1.427 . S
N2091 C2089 1.384 . S
H2092 C2098 0.930 . S
H2093 C2102 0.930 . S
H2094 C2107 0.929 . S
H2095 C2105 0.929 . S
H2096 C2100 0.929 . S
H2097 C2106 0.929 . S
C2098 H2092 0.930 . S
C2098 C2099 1.367 . S
C2098 C2106 1.378 . S
C2099 C2098 1.367 . S
C2099 C2107 1.433 . S
C2100 H2096 0.929 . S
C2100 C2102 1.378 . S
C2100 C2104 1.350 . S
C2101 C2104 1.463 . S
C2101 C2106 1.350 . S
C2101 N2109 1.427 . S
C2102 H2093 0.930 . S
C2102 C2100 1.378 . S
C2102 C2103 1.367 . S
C2103 C2102 1.367 . S
C2103 C2105 1.433 . S
C2104 C2100 1.350 . S
C2104 C2101 1.463 . S
C2104 N2108 1.427 . S
C2105 H2095 0.929 . S
C2105 C2103 1.433 . S
C2105 N2108 1.384 . S
C2106 H2097 0.929 . S
C2106 C2098 1.378 . S
C2106 C2101 1.350 . S
C2107 H2094 0.929 . S
C2107 C2099 1.433 . S
C2107 N2109 1.384 . S
N2108 C2104 1.427 . S
N2108 C2105 1.384 . S
N2109 C2101 1.427 . S
N2109 C2107 1.384 . S
H2110 C2116 0.930 . S
H2111 C2120 0.930 . S
H2112 C2125 0.929 . S
H2113 C2123 0.929 . S
H2114 C2118 0.929 . S
H2115 C2124 0.929 . S
C2116 H2110 0.930 . S
C2116 C2117 1.367 . S
C2116 C2124 1.378 . S
C2117 C2116 1.367 . S
C2117 C2125 1.433 . S
C2118 H2114 0.929 . S
C2118 C2120 1.378 . S
C2118 C2122 1.350 . S
C2119 C2122 1.463 . S
C2119 C2124 1.350 . S
C2119 N2127 1.427 . S
C2120 H2111 0.930 . S
C2120 C2118 1.378 . S
C2120 C2121 1.367 . S
C2121 C2120 1.367 . S
C2121 C2123 1.433 . S
C2122 C2118 1.350 . S
C2122 C2119 1.463 . S
C2122 N2126 1.427 . S
C2123 H2113 0.929 . S
C2123 C2121 1.433 . S
C2123 N2126 1.384 . S
C2124 H2115 0.929 . S
C2124 C2116 1.378 . S
C2124 C2119 1.350 . S
C2125 H2112 0.929 . S
C2125 C2117 1.433 . S
C2125 N2127 1.384 . S
N2126 C2122 1.427 . S
N2126 C2123 1.384 . S
N2127 C2119 1.427 . S
N2127 C2125 1.384 . S
H2128 C2134 0.930 . S
H2129 C2138 0.930 . S
H2130 C2143 0.929 . S
H2131 C2141 0.929 . S
H2132 C2136 0.929 . S
H2133 C2142 0.929 . S
C2134 H2128 0.930 . S
C2134 C2135 1.367 . S
C2134 C2142 1.378 . S
C2135 C2134 1.367 . S
C2135 C2143 1.433 . S
C2136 H2132 0.929 . S
C2136 C2138 1.378 . S
C2136 C2140 1.350 . S
C2137 C2140 1.463 . S
C2137 C2142 1.350 . S
C2137 N2145 1.427 . S
C2138 H2129 0.930 . S
C2138 C2136 1.378 . S
C2138 C2139 1.367 . S
C2139 C2138 1.367 . S
C2139 C2141 1.433 . S
C2140 C2136 1.350 . S
C2140 C2137 1.463 . S
C2140 N2144 1.427 . S
C2141 H2131 0.929 . S
C2141 C2139 1.433 . S
C2141 N2144 1.384 . S
C2142 H2133 0.929 . S
C2142 C2134 1.378 . S
C2142 C2137 1.350 . S
C2143 H2130 0.929 . S
C2143 C2135 1.433 . S
C2143 N2145 1.384 . S
N2144 C2140 1.427 . S
N2144 C2141 1.384 . S
N2145 C2137 1.427 . S
N2145 C2143 1.384 . S
H2146 C2152 0.930 . S
H2147 C2156 0.930 . S
H2148 C2161 0.929 . S
H2149 C2159 0.929 . S
H2150 C2154 0.929 . S
H2151 C2160 0.929 . S
C2152 H2146 0.930 . S
C2152 C2153 1.367 . S
C2152 C2160 1.378 . S
C2153 C2152 1.367 . S
C2153 C2161 1.433 . S
C2154 H2150 0.929 . S
C2154 C2156 1.378 . S
C2154 C2158 1.350 . S
C2155 C2158 1.463 . S
C2155 C2160 1.350 . S
C2155 N2163 1.427 . S
C2156 H2147 0.930 . S
C2156 C2154 1.378 . S
C2156 C2157 1.367 . S
C2157 C2156 1.367 . S
C2157 C2159 1.433 . S
C2158 C2154 1.350 . S
C2158 C2155 1.463 . S
C2158 N2162 1.427 . S
C2159 H2149 0.929 . S
C2159 C2157 1.433 . S
C2159 N2162 1.384 . S
C2160 H2151 0.929 . S
C2160 C2152 1.378 . S
C2160 C2155 1.350 . S
C2161 H2148 0.929 . S
C2161 C2153 1.433 . S
C2161 N2163 1.384 . S
N2162 C2158 1.427 . S
N2162 C2159 1.384 . S
N2163 C2155 1.427 . S
N2163 C2161 1.384 . S
H2164 C2170 0.930 . S
H2165 C2174 0.930 . S
H2166 C2179 0.929 . S
H2167 C2177 0.929 . S
H2168 C2172 0.929 . S
H2169 C2178 0.929 . S
C2170 H2164 0.930 . S
C2170 C2171 1.367 . S
C2170 C2178 1.378 . S
C2171 C2170 1.367 . S
C2171 C2179 1.433 . S
C2172 H2168 0.929 . S
C2172 C2174 1.378 . S
C2172 C2176 1.350 . S
C2173 C2176 1.463 . S
C2173 C2178 1.350 . S
C2173 N2181 1.427 . S
C2174 H2165 0.930 . S
C2174 C2172 1.378 . S
C2174 C2175 1.367 . S
C2175 C2174 1.367 . S
C2175 C2177 1.433 . S
C2176 C2172 1.350 . S
C2176 C2173 1.463 . S
C2176 N2180 1.427 . S
C2177 H2167 0.929 . S
C2177 C2175 1.433 . S
C2177 N2180 1.384 . S
C2178 H2169 0.929 . S
C2178 C2170 1.378 . S
C2178 C2173 1.350 . S
C2179 H2166 0.929 . S
C2179 C2171 1.433 . S
C2179 N2181 1.384 . S
N2180 C2176 1.427 . S
N2180 C2177 1.384 . S
N2181 C2173 1.427 . S
N2181 C2179 1.384 . S
H2182 C2188 0.930 . S
H2183 C2192 0.930 . S
H2184 C2197 0.929 . S
H2185 C2195 0.929 . S
H2186 C2190 0.929 . S
H2187 C2196 0.929 . S
C2188 H2182 0.930 . S
C2188 C2189 1.367 . S
C2188 C2196 1.378 . S
C2189 C2188 1.367 . S
C2189 C2197 1.433 . S
C2190 H2186 0.929 . S
C2190 C2192 1.378 . S
C2190 C2194 1.350 . S
C2191 C2194 1.463 . S
C2191 C2196 1.350 . S
C2191 N2199 1.427 . S
C2192 H2183 0.930 . S
C2192 C2190 1.378 . S
C2192 C2193 1.367 . S
C2193 C2192 1.367 . S
C2193 C2195 1.433 . S
C2194 C2190 1.350 . S
C2194 C2191 1.463 . S
C2194 N2198 1.427 . S
C2195 H2185 0.929 . S
C2195 C2193 1.433 . S
C2195 N2198 1.384 . S
C2196 H2187 0.929 . S
C2196 C2188 1.378 . S
C2196 C2191 1.350 . S
C2197 H2184 0.929 . S
C2197 C2189 1.433 . S
C2197 N2199 1.384 . S
N2198 C2194 1.427 . S
N2198 C2195 1.384 . S
N2199 C2191 1.427 . S
N2199 C2197 1.384 . S
H2200 C2206 0.930 . S
H2201 C2210 0.930 . S
H2202 C2215 0.929 . S
H2203 C2213 0.929 . S
H2204 C2208 0.929 . S
H2205 C2214 0.929 . S
C2206 H2200 0.930 . S
C2206 C2207 1.367 . S
C2206 C2214 1.378 . S
C2207 C2206 1.367 . S
C2207 C2215 1.433 . S
C2208 H2204 0.929 . S
C2208 C2210 1.378 . S
C2208 C2212 1.350 . S
C2209 C2212 1.463 . S
C2209 C2214 1.350 . S
C2209 N2217 1.427 . S
C2210 H2201 0.930 . S
C2210 C2208 1.378 . S
C2210 C2211 1.367 . S
C2211 C2210 1.367 . S
C2211 C2213 1.433 . S
C2212 C2208 1.350 . S
C2212 C2209 1.463 . S
C2212 N2216 1.427 . S
C2213 H2203 0.929 . S
C2213 C2211 1.433 . S
C2213 N2216 1.384 . S
C2214 H2205 0.929 . S
C2214 C2206 1.378 . S
C2214 C2209 1.350 . S
C2215 H2202 0.929 . S
C2215 C2207 1.433 . S
C2215 N2217 1.384 . S
N2216 C2212 1.427 . S
N2216 C2213 1.384 . S
N2217 C2209 1.427 . S
N2217 C2215 1.384 . S
H2218 C2224 0.930 . S
H2219 C2228 0.930 . S
H2220 C2233 0.929 1_554 S
H2221 C2231 0.929 . S
H2222 C2226 0.929 . S
H2223 C2232 0.929 . S
C2224 H2218 0.930 . S
C2224 C2225 1.367 . S
C2224 C2232 1.378 . S
C2225 C2224 1.367 . S
C2225 C2233 1.433 . S
C2226 H2222 0.929 . S
C2226 C2228 1.378 . S
C2226 C2230 1.350 . S
C2227 C2230 1.463 . S
C2227 C2232 1.350 . S
C2227 N2235 1.427 . S
C2228 H2219 0.930 . S
C2228 C2226 1.378 . S
C2228 C2229 1.367 . S
C2229 C2228 1.367 . S
C2229 C2231 1.433 . S
C2230 C2226 1.350 . S
C2230 C2227 1.463 . S
C2230 N2234 1.427 . S
C2231 H2221 0.929 . S
C2231 C2229 1.433 . S
C2231 N2234 1.384 . S
C2232 H2223 0.929 . S
C2232 C2224 1.378 . S
C2232 C2227 1.350 . S
C2233 H2220 0.929 1_556 S
C2233 C2225 1.433 . S
C2233 N2235 1.384 . S
N2234 C2230 1.427 . S
N2234 C2231 1.384 . S
N2235 C2227 1.427 . S
N2235 C2233 1.384 . S
H2236 C2242 0.930 . S
H2237 C2246 0.930 . S
H2238 C2251 0.929 . S
H2239 C2249 0.929 . S
H2240 C2244 0.929 . S
H2241 C2250 0.929 . S
C2242 H2236 0.930 . S
C2242 C2243 1.367 . S
C2242 C2250 1.378 . S
C2243 C2242 1.367 . S
C2243 C2251 1.433 . S
C2244 H2240 0.929 . S
C2244 C2246 1.378 . S
C2244 C2248 1.350 . S
C2245 C2248 1.463 . S
C2245 C2250 1.350 . S
C2245 N2253 1.427 . S
C2246 H2237 0.930 . S
C2246 C2244 1.378 . S
C2246 C2247 1.367 . S
C2247 C2246 1.367 . S
C2247 C2249 1.433 . S
C2248 C2244 1.350 . S
C2248 C2245 1.463 . S
C2248 N2252 1.427 . S
C2249 H2239 0.929 . S
C2249 C2247 1.433 . S
C2249 N2252 1.384 . S
C2250 H2241 0.929 . S
C2250 C2242 1.378 . S
C2250 C2245 1.350 . S
C2251 H2238 0.929 . S
C2251 C2243 1.433 . S
C2251 N2253 1.384 . S
N2252 C2248 1.427 . S
N2252 C2249 1.384 . S
N2253 C2245 1.427 . S
N2253 C2251 1.384 . S
H2254 C2260 0.930 . S
H2255 C2264 0.930 . S
H2256 C2269 0.929 . S
H2257 C2267 0.929 . S
H2258 C2262 0.929 . S
H2259 C2268 0.929 . S
C2260 H2254 0.930 . S
C2260 C2261 1.367 . S
C2260 C2268 1.378 . S
C2261 C2260 1.367 . S
C2261 C2269 1.433 . S
C2262 H2258 0.929 . S
C2262 C2264 1.378 . S
C2262 C2266 1.350 . S
C2263 C2266 1.463 . S
C2263 C2268 1.350 . S
C2263 N2271 1.427 . S
C2264 H2255 0.930 . S
C2264 C2262 1.378 . S
C2264 C2265 1.367 . S
C2265 C2264 1.367 . S
C2265 C2267 1.433 . S
C2266 C2262 1.350 . S
C2266 C2263 1.463 . S
C2266 N2270 1.427 . S
C2267 H2257 0.929 . S
C2267 C2265 1.433 . S
C2267 N2270 1.384 . S
C2268 H2259 0.929 . S
C2268 C2260 1.378 . S
C2268 C2263 1.350 . S
C2269 H2256 0.929 . S
C2269 C2261 1.433 . S
C2269 N2271 1.384 . S
N2270 C2266 1.427 . S
N2270 C2267 1.384 . S
N2271 C2263 1.427 . S
N2271 C2269 1.384 . S
H2272 C2278 0.930 . S
H2273 C2282 0.930 . S
H2274 C2287 0.929 . S
H2275 C2285 0.929 . S
H2276 C2280 0.929 . S
H2277 C2286 0.929 . S
C2278 H2272 0.930 . S
C2278 C2279 1.367 . S
C2278 C2286 1.378 . S
C2279 C2278 1.367 . S
C2279 C2287 1.433 . S
C2280 H2276 0.929 . S
C2280 C2282 1.378 . S
C2280 C2284 1.350 . S
C2281 C2284 1.463 . S
C2281 C2286 1.350 . S
C2281 N2289 1.427 . S
C2282 H2273 0.930 . S
C2282 C2280 1.378 . S
C2282 C2283 1.367 . S
C2283 C2282 1.367 . S
C2283 C2285 1.433 . S
C2284 C2280 1.350 . S
C2284 C2281 1.463 . S
C2284 N2288 1.427 . S
C2285 H2275 0.929 . S
C2285 C2283 1.433 . S
C2285 N2288 1.384 . S
C2286 H2277 0.929 . S
C2286 C2278 1.378 . S
C2286 C2281 1.350 . S
C2287 H2274 0.929 . S
C2287 C2279 1.433 . S
C2287 N2289 1.384 . S
N2288 C2284 1.427 . S
N2288 C2285 1.384 . S
N2289 C2281 1.427 . S
N2289 C2287 1.384 . S
H2290 C2296 0.930 . S
H2291 C2300 0.930 . S
H2292 C2305 0.929 . S
H2293 C2303 0.929 . S
H2294 C2298 0.929 . S
H2295 C2304 0.929 . S
C2296 H2290 0.930 . S
C2296 C2297 1.367 . S
C2296 C2304 1.378 . S
C2297 C2296 1.367 . S
C2297 C2305 1.433 . S
C2298 H2294 0.929 . S
C2298 C2300 1.378 . S
C2298 C2302 1.350 . S
C2299 C2302 1.463 . S
C2299 C2304 1.350 . S
C2299 N2307 1.427 . S
C2300 H2291 0.930 . S
C2300 C2298 1.378 . S
C2300 C2301 1.367 . S
C2301 C2300 1.367 . S
C2301 C2303 1.433 . S
C2302 C2298 1.350 . S
C2302 C2299 1.463 . S
C2302 N2306 1.427 . S
C2303 H2293 0.929 . S
C2303 C2301 1.433 . S
C2303 N2306 1.384 . S
C2304 H2295 0.929 . S
C2304 C2296 1.378 . S
C2304 C2299 1.350 . S
C2305 H2292 0.929 . S
C2305 C2297 1.433 . S
C2305 N2307 1.384 . S
N2306 C2302 1.427 . S
N2306 C2303 1.384 . S
N2307 C2299 1.427 . S
N2307 C2305 1.384 . S
H2308 C2314 0.930 . S
H2309 C2318 0.930 . S
H2310 C2323 0.918 1_565 S
H2311 C2321 0.929 . S
H2312 C2316 0.929 . S
H2313 C2322 0.929 . S
C2314 H2308 0.930 . S
C2314 C2315 1.367 . S
C2314 C2322 1.378 . S
C2315 C2314 1.367 . S
C2315 C2323 1.433 . S
C2316 H2312 0.929 . S
C2316 C2318 1.378 . S
C2316 C2320 1.350 . S
C2317 C2320 1.463 . S
C2317 C2322 1.350 . S
C2317 N2325 1.427 . S
C2318 H2309 0.930 . S
C2318 C2316 1.378 . S
C2318 C2319 1.367 . S
C2319 C2318 1.367 . S
C2319 C2321 1.433 . S
C2320 C2316 1.350 . S
C2320 C2317 1.463 . S
C2320 N2324 1.427 . S
C2321 H2311 0.929 . S
C2321 C2319 1.433 . S
C2321 N2324 1.384 . S
C2322 H2313 0.929 . S
C2322 C2314 1.378 . S
C2322 C2317 1.350 . S
C2323 H2310 0.918 1_545 S
C2323 C2315 1.433 . S
C2323 N2325 1.384 . S
N2324 C2320 1.427 . S
N2324 C2321 1.384 . S
N2325 C2317 1.427 . S
N2325 C2323 1.384 . S
H2326 C2332 0.930 . S
H2327 C2336 0.930 . S
H2328 C2341 0.929 . S
H2329 C2339 0.929 . S
H2330 C2334 0.929 . S
H2331 C2340 0.929 . S
C2332 H2326 0.930 . S
C2332 C2333 1.367 . S
C2332 C2340 1.378 . S
C2333 C2332 1.367 . S
C2333 C2341 1.433 . S
C2334 H2330 0.929 . S
C2334 C2336 1.378 . S
C2334 C2338 1.350 . S
C2335 C2338 1.463 . S
C2335 C2340 1.350 . S
C2335 N2343 1.427 . S
C2336 H2327 0.930 . S
C2336 C2334 1.378 . S
C2336 C2337 1.367 . S
C2337 C2336 1.367 . S
C2337 C2339 1.433 . S
C2338 C2334 1.350 . S
C2338 C2335 1.463 . S
C2338 N2342 1.427 . S
C2339 H2329 0.929 . S
C2339 C2337 1.433 . S
C2339 N2342 1.384 . S
C2340 H2331 0.929 . S
C2340 C2332 1.378 . S
C2340 C2335 1.350 . S
C2341 H2328 0.929 . S
C2341 C2333 1.433 . S
C2341 N2343 1.384 . S
N2342 C2338 1.427 . S
N2342 C2339 1.384 . S
N2343 C2335 1.427 . S
N2343 C2341 1.384 . S
H2344 C2350 0.930 . S
H2345 C2354 0.930 . S
H2346 C2359 0.929 . S
H2347 C2357 0.929 . S
H2348 C2352 0.929 . S
H2349 C2358 0.929 . S
C2350 H2344 0.930 . S
C2350 C2351 1.367 . S
C2350 C2358 1.378 . S
C2351 C2350 1.367 . S
C2351 C2359 1.433 . S
C2352 H2348 0.929 . S
C2352 C2354 1.378 . S
C2352 C2356 1.350 . S
C2353 C2356 1.463 . S
C2353 C2358 1.350 . S
C2353 N2361 1.427 . S
C2354 H2345 0.930 . S
C2354 C2352 1.378 . S
C2354 C2355 1.367 . S
C2355 C2354 1.367 . S
C2355 C2357 1.433 . S
C2356 C2352 1.350 . S
C2356 C2353 1.463 . S
C2356 N2360 1.427 . S
C2357 H2347 0.929 . S
C2357 C2355 1.433 . S
C2357 N2360 1.384 . S
C2358 H2349 0.929 . S
C2358 C2350 1.378 . S
C2358 C2353 1.350 . S
C2359 H2346 0.929 . S
C2359 C2351 1.433 . S
C2359 N2361 1.384 . S
N2360 C2356 1.427 . S
N2360 C2357 1.384 . S
N2361 C2353 1.427 . S
N2361 C2359 1.384 . S
H2362 C2368 0.930 . S
H2363 C2372 0.930 . S
H2364 C2377 0.929 . S
H2365 C2375 0.929 . S
H2366 C2370 0.929 . S
H2367 C2376 0.929 . S
C2368 H2362 0.930 . S
C2368 C2369 1.367 . S
C2368 C2376 1.378 . S
C2369 C2368 1.367 . S
C2369 C2377 1.433 . S
C2370 H2366 0.929 . S
C2370 C2372 1.378 . S
C2370 C2374 1.350 . S
C2371 C2374 1.463 . S
C2371 C2376 1.350 . S
C2371 N2379 1.427 . S
C2372 H2363 0.930 . S
C2372 C2370 1.378 . S
C2372 C2373 1.367 . S
C2373 C2372 1.367 . S
C2373 C2375 1.433 . S
C2374 C2370 1.350 . S
C2374 C2371 1.463 . S
C2374 N2378 1.427 . S
C2375 H2365 0.929 . S
C2375 C2373 1.433 . S
C2375 N2378 1.384 . S
C2376 H2367 0.929 . S
C2376 C2368 1.378 . S
C2376 C2371 1.350 . S
C2377 H2364 0.929 . S
C2377 C2369 1.433 . S
C2377 N2379 1.384 . S
N2378 C2374 1.427 . S
N2378 C2375 1.384 . S
N2379 C2371 1.427 . S
N2379 C2377 1.384 . S
H2380 C2386 0.930 . S
H2381 C2390 0.930 . S
H2382 C2395 0.929 1_545 S
H2383 C2393 0.929 . S
H2384 C2388 0.929 . S
H2385 C2394 0.929 . S
C2386 H2380 0.930 . S
C2386 C2387 1.367 . S
C2386 C2394 1.378 . S
C2387 C2386 1.367 . S
C2387 C2395 1.433 . S
C2388 H2384 0.929 . S
C2388 C2390 1.378 . S
C2388 C2392 1.350 . S
C2389 C2392 1.463 . S
C2389 C2394 1.350 . S
C2389 N2397 1.427 . S
C2390 H2381 0.930 . S
C2390 C2388 1.378 . S
C2390 C2391 1.367 . S
C2391 C2390 1.367 . S
C2391 C2393 1.433 . S
C2392 C2388 1.350 . S
C2392 C2389 1.463 . S
C2392 N2396 1.427 . S
C2393 H2383 0.929 . S
C2393 C2391 1.433 . S
C2393 N2396 1.384 . S
C2394 H2385 0.929 . S
C2394 C2386 1.378 . S
C2394 C2389 1.350 . S
C2395 H2382 0.929 1_565 S
C2395 C2387 1.433 . S
C2395 N2397 1.384 . S
N2396 C2392 1.427 . S
N2396 C2393 1.384 . S
N2397 C2389 1.427 . S
N2397 C2395 1.384 . S
H2398 C2404 0.914 1_565 S
H2399 C2408 0.930 . S
H2400 C2413 0.929 . S
H2401 C2411 0.929 . S
H2402 C2406 0.929 1_455 S
H2403 C2412 0.929 . S
C2404 H2398 0.914 1_545 S
C2404 C2405 1.367 . S
C2404 C2412 1.378 . S
C2405 C2404 1.367 . S
C2405 C2413 1.433 . S
C2406 H2402 0.929 1_655 S
C2406 C2408 1.378 . S
C2406 C2410 1.350 1_655 S
C2407 C2410 1.463 . S
C2407 C2412 1.350 . S
C2407 N2415 1.427 . S
C2408 H2399 0.930 . S
C2408 C2406 1.378 . S
C2408 C2409 1.367 . S
C2409 C2408 1.367 . S
C2409 C2411 1.433 . S
C2410 C2406 1.350 1_455 S
C2410 C2407 1.463 . S
C2410 N2414 1.427 1_455 S
C2411 H2401 0.929 . S
C2411 C2409 1.433 . S
C2411 N2414 1.384 . S
C2412 H2403 0.929 . S
C2412 C2404 1.378 . S
C2412 C2407 1.350 . S
C2413 H2400 0.929 . S
C2413 C2405 1.433 . S
C2413 N2415 1.384 . S
N2414 C2410 1.427 1_655 S
N2414 C2411 1.384 . S
N2415 C2407 1.427 . S
N2415 C2413 1.384 . S
C699 C343 1.187 . S
C695 C7 1.241 . S
C713 C23 1.170 . S
C717 C363 1.134 . S
C735 C384 1.056 . S
C731 C36 1.104 . S
C753 C411 1.126 . S
C749 C45 1.179 . S
C771 C367 1.130 . S
C767 C59 1.189 . S
C785 C78 1.116 . S
C789 C387 1.065 . S
C807 C407 1.135 . S
C803 C93 1.170 . S
C821 C105 1.239 . S
C825 C340 1.186 . S
C839 C115 1.251 . S
C843 C345 1.198 . S
C861 C362 1.124 . S
C857 C133 1.172 . S
C879 C386 1.083 . S
C875 C148 1.144 . S
C897 C410 1.082 . S
C893 C163 1.143 . S
C915 C366 1.084 . S
C911 C121 1.148 . S
C933 C389 1.093 . S
C929 C134 1.150 . S
C947 C147 1.165 . S
C951 C406 1.110 . S
C969 C342 1.196 . S
C965 C157 1.252 . S
C983 C175 1.217 . S
C987 C344 1.156 . S
C1001 C191 1.199 . S
C1005 C431 1.144 . S
C1023 C451 1.115 . S
C1019 C199 1.160 . S
C1041 C474 1.094 . S
C1037 C218 1.136 . S
C1055 C231 1.222 . S
C1059 C341 1.166 . S
C1073 C241 1.154 . S
C1077 C385 1.108 . S
C1095 C475 1.130 . S
C1091 C205 1.190 . S
C1113 C430 1.091 . S
C1109 C260 1.138 . S
C1131 C498 1.021 . S
C1127 C22 1.057 . S
C1149 C519 1.141 . S
C1145 C9 1.174 . S
C1163 C49 1.193 . S
C1167 C538 1.159 . S
C1181 C31 1.130 . S
C1185 C563 1.103 . S
C1199 C101 1.137 . S
C1203 C518 1.091 . S
C1217 C91 1.191 . S
C1221 C543 1.158 . S
C1239 C562 1.149 . S
C1235 C79 1.169 . S
C1253 C64 1.054 . S
C1257 C495 1.030 . S
C1271 C274 1.054 . S
C1275 C499 1.027 . S
C1293 C520 1.090 . S
C1289 C213 1.140 . S
C1311 C539 1.159 . S
C1307 C233 1.182 . S
C1329 C564 1.141 . S
C1325 C189 1.178 . S
C1347 C516 1.128 . S
C1343 C273 1.177 . S
C1365 C541 1.152 . S
C1361 C219 1.185 . S
C1383 C560 1.106 . S
C1379 C227 1.133 . S
C1397 C190 1.055 . S
C1401 C496 1.026 . S
C1419 C497 1.057 . S
C1415 C289 1.070 . S
C1433 C162 1.164 . S
C1437 C583 1.111 . S
C1455 C608 1.103 . S
C1451 C301 1.147 . S
C1469 C129 1.183 . S
C1473 C627 1.134 . S
C1491 C494 1.045 . S
C1487 C149 1.063 . S
C1509 C540 1.109 . S
C1505 C315 1.141 . S
C1527 C631 1.131 . S
C1523 C302 1.156 . S
C1541 C325 1.178 . S
C1545 C587 1.146 . S
C1559 C35 1.232 . S
C1563 C651 1.170 . S
C1577 C51 1.181 . S
C1581 C429 1.116 . S
C1599 C453 1.048 . S
C1595 C8 1.107 . S
C1613 C17 1.189 . S
C1617 C477 1.124 . S
C1631 C87 1.188 . S
C1635 C433 1.136 . S
C1649 C106 1.110 . S
C1653 C450 1.070 . S
C1671 C473 1.136 . S
C1667 C65 1.180 . S
C1689 C648 1.190 . S
C1685 C77 1.242 . S
C1707 C653 1.180 . S
C1703 C297 1.244 . S
C1725 C428 1.132 . S
C1721 C287 1.176 . S
C1743 C455 1.081 . S
C1739 C330 1.141 . S
C1757 C317 1.141 . S
C1761 C476 1.108 . S
C1779 C432 1.107 . S
C1775 C303 1.139 . S
C1793 C288 1.150 . S
C1797 C452 1.106 . S
C1815 C472 1.115 . S
C1811 C329 1.167 . S
C1829 C311 1.254 . S
C1833 C650 1.183 . S
C1851 C652 1.175 . S
C1847 C217 1.227 . S
C1865 C247 1.185 . S
C1869 C365 1.144 . S
C1887 C388 1.099 . S
C1883 C269 1.163 . S
C1901 C176 1.135 . S
C1905 C408 1.094 . S
C1923 C649 1.176 . S
C1919 C259 1.228 . S
C1941 C454 1.090 . S
C1937 C185 1.156 . S
C1959 C409 1.151 . S
C1955 C275 1.186 . S
C1977 C364 1.091 . S
C1973 C232 1.138 . S
C1991 C50 1.052 . S
C1995 C675 1.033 . S
C2009 C37 1.178 . S
C2013 C585 1.156 . S
C2027 C21 1.191 . S
C2031 C604 1.146 . S
C2049 C629 1.088 . S
C2045 C3 1.131 . S
C2067 C584 1.103 . S
C2063 C73 1.133 . S
C2081 C63 1.191 . S
C2085 C609 1.158 . S
C2103 C628 1.152 . S
C2099 C107 1.168 . S
C2117 C92 1.059 . S
C2121 C670 1.012 . S
C2139 C673 1.022 . S
C2135 C204 1.056 . S
C2153 C171 1.132 . S
C2157 C586 1.101 . S
C2171 C261 1.192 . S
C2175 C605 1.150 . S
C2193 C630 1.146 . S
C2189 C245 1.177 . S
C2211 C582 1.131 . S
C2207 C203 1.175 . S
C2225 C177 1.194 . S
C2229 C607 1.159 . S
C2247 C626 1.101 . S
C2243 C255 1.132 . S
C2265 C671 1.023 . S
C2261 C246 1.054 . S
C2283 C674 1.035 . S
C2279 C135 1.072 . S
C2301 C517 1.121 . S
C2297 C316 1.159 . S
C2315 C119 1.140 . S
C2319 C542 1.106 . S
C2333 C283 1.183 . S
C2337 C561 1.133 . S
C2355 C672 1.035 . S
C2351 C331 1.072 . S
C2373 C606 1.091 . S
C2369 C161 1.142 . S
C2391 C565 1.124 . S
C2387 C120 1.159 . S
C2409 C521 1.136 . S
C2405 C143 1.182 . S
