# Generated by pormake.
# Topology anh, (6,3)-cn, num edge types: 1
# Building blocks:
#     Node 0, Type 0, BuildingBlock: BETDAH_clean_sbu_0, # of connection points: 6
#     Node 1, Type 0, BuildingBlock: BETDAH_clean_sbu_0, # of connection points: 6
#     Node 2, Type 0, BuildingBlock: BETDAH_clean_sbu_0, # of connection points: 6
#     Node 3, Type 1, BuildingBlock: OLANEW_clean_sbu_2, # of connection points: 3
#     Node 4, Type 1, BuildingBlock: OLANEW_clean_sbu_2, # of connection points: 3
#     Node 5, Type 1, BuildingBlock: OLANEW_clean_sbu_2, # of connection points: 3
#     Node 6, Type 1, BuildingBlock: OLANEW_clean_sbu_2, # of connection points: 3
#     Node 7, Type 1, BuildingBlock: OLANEW_clean_sbu_2, # of connection points: 3
#     Node 8, Type 1, BuildingBlock: OLANEW_clean_sbu_2, # of connection points: 3
#     Edge 9, Type (0, 1), BuildingBlock: FUNLAD_clean_linker_0, # of connection points: 2
#     Edge 10, Type (0, 1), BuildingBlock: FUNLAD_clean_linker_0, # of connection points: 2
#     Edge 11, Type (0, 1), BuildingBlock: FUNLAD_clean_linker_0, # of connection points: 2
#     Edge 12, Type (0, 1), BuildingBlock: FUNLAD_clean_linker_0, # of connection points: 2
#     Edge 13, Type (0, 1), BuildingBlock: FUNLAD_clean_linker_0, # of connection points: 2
#     Edge 14, Type (0, 1), BuildingBlock: FUNLAD_clean_linker_0, # of connection points: 2
#     Edge 15, Type (0, 1), BuildingBlock: FUNLAD_clean_linker_0, # of connection points: 2
#     Edge 16, Type (0, 1), BuildingBlock: FUNLAD_clean_linker_0, # of connection points: 2
#     Edge 17, Type (0, 1), BuildingBlock: FUNLAD_clean_linker_0, # of connection points: 2
#     Edge 18, Type (0, 1), BuildingBlock: FUNLAD_clean_linker_0, # of connection points: 2
#     Edge 19, Type (0, 1), BuildingBlock: FUNLAD_clean_linker_0, # of connection points: 2
#     Edge 20, Type (0, 1), BuildingBlock: FUNLAD_clean_linker_0, # of connection points: 2
#     Edge 21, Type (0, 1), BuildingBlock: FUNLAD_clean_linker_0, # of connection points: 2
#     Edge 22, Type (0, 1), BuildingBlock: FUNLAD_clean_linker_0, # of connection points: 2
#     Edge 23, Type (0, 1), BuildingBlock: FUNLAD_clean_linker_0, # of connection points: 2
#     Edge 24, Type (0, 1), BuildingBlock: FUNLAD_clean_linker_0, # of connection points: 2
#     Edge 25, Type (0, 1), BuildingBlock: FUNLAD_clean_linker_0, # of connection points: 2
#     Edge 26, Type (0, 1), BuildingBlock: FUNLAD_clean_linker_0, # of connection points: 2
# Relax obj value: 0.124
# Max RMSD: 0.162
# Mean RMSD: 0.112
data_MOF--net-anh--node1-BETDAH_clean_sbu_0--node2-OLANEW_clean_sbu_2--edge1-FUNLAD_clean_linker_0
_symmetry_space_group_name_H-M    P1
_symmetry_Int_Tables_number       1
_symmetry_cell_setting            triclinic
loop_
_symmetry_equiv_pos_as_xyz
'x, y, z'
_cell_length_a     41.977121
_cell_length_b     46.28236
_cell_length_c     58.506919
_cell_angle_alpha  92.094687
_cell_angle_beta   89.547878
_cell_angle_gamma 128.99774
loop_
_atom_site_label
_atom_site_type_symbol
_atom_site_fract_x
_atom_site_fract_y
_atom_site_fract_z
_atom_type_partial_charge
Ho0 Ho 0.0245 0.49027 0.13518 0.0
Ho1 Ho 0.98311 0.52136 0.15285 0.0
C2 C 0.07859 0.58012 0.14636 0.0
C3 C 0.06877 0.47674 0.11475 0.0
C4 C 0.11002 0.48984 0.12032 0.0
C5 C 0.12332 0.47063 0.11142 0.0
C6 C 0.16053 0.48027 0.11898 0.0
C7 C 0.18487 0.50923 0.1356 0.0
C8 C 0.17182 0.52901 0.144 0.0
C9 C 0.13462 0.51928 0.1365 0.0
C10 C 0.0177 0.49103 0.18106 0.0
C11 C 0.92923 0.43266 0.14168 0.0
C12 C 0.93933 0.5328 0.17617 0.0
C13 C 0.89633 0.50879 0.18326 0.0
C14 C 0.887 0.51127 0.20594 0.0
C15 C 0.84626 0.48907 0.21288 0.0
C16 C 0.81406 0.46419 0.19716 0.0
C17 C 0.8238 0.46095 0.17462 0.0
C18 C 0.8645 0.48281 0.16779 0.0
C19 C 0.99231 0.52231 0.10708 0.0
O20 O 0.07584 0.55304 0.13527 0.0
O21 O 0.04714 0.57366 0.15722 0.0
O22 O 0.04133 0.4551 0.12983 0.0
O23 O 0.06628 0.50201 0.10818 0.0
O24 O 0.01554 0.4655 0.16948 0.0
O25 O 0.02644 0.51597 0.16805 0.0
O26 O 0.9339 0.45916 0.1546 0.0
O27 O 0.95909 0.43991 0.12856 0.0
O28 O 0.94595 0.53877 0.1543 0.0
O29 O 0.96225 0.52626 0.18557 0.0
O30 O 0.9958 0.54842 0.11901 0.0
O31 O 0.98187 0.49629 0.1197 0.0
H32 H 0.10446 0.44761 0.09908 0.0
H33 H 0.17007 0.46485 0.112 0.0
H34 H 0.18964 0.55113 0.15699 0.0
H35 H 0.12444 0.53398 0.14387 0.0
H36 H 0.91125 0.53067 0.21824 0.0
H37 H 0.84 0.49187 0.23046 0.0
H38 H 0.79999 0.44261 0.16189 0.0
H39 H 0.87094 0.47985 0.15028 0.0
Ho40 Ho 0.54974 0.01446 0.49226 0.0
Ho41 Ho 0.49728 0.03645 0.47964 0.0
C42 C 0.4527 0.95055 0.47866 0.0
C43 C 0.58042 0.98591 0.5097 0.0
C44 C 0.57039 0.9492 0.50992 0.0
C45 C 0.52961 0.91633 0.51005 0.0
C46 C 0.52075 0.88171 0.5099 0.0
C47 C 0.55259 0.87934 0.50964 0.0
C48 C 0.59343 0.91244 0.50953 0.0
C49 C 0.60219 0.94701 0.50964 0.0
C50 C 0.55092 0.02876 0.44788 0.0
C51 C 0.59475 0.10071 0.49246 0.0
C52 C 0.46827 0.06672 0.46278 0.0
C53 C 0.47513 0.1016 0.46789 0.0
C54 C 0.46375 0.11545 0.45179 0.0
C55 C 0.46911 0.14807 0.45683 0.0
C56 C 0.4857 0.16718 0.47814 0.0
C57 C 0.49769 0.15347 0.49407 0.0
C58 C 0.49265 0.12107 0.48895 0.0
C59 C 0.49791 0.02391 0.52428 0.0
O60 O 0.48492 0.95946 0.49037 0.0
O61 O 0.45319 0.97618 0.46899 0.0
O62 O 0.5912 0.00167 0.48998 0.0
O63 O 0.55586 0.98965 0.52071 0.0
O64 O 0.58225 0.03664 0.45898 0.0
O65 O 0.51982 0.0114 0.4603 0.0
O66 O 0.56158 0.0916 0.48187 0.0
O67 O 0.59557 0.07532 0.50134 0.0
O68 O 0.45024 0.04234 0.47875 0.0
O69 O 0.49926 0.0702 0.45405 0.0
O70 O 0.46626 0.01622 0.51371 0.0
O71 O 0.52801 0.04033 0.51125 0.0
H72 H 0.50467 0.91745 0.51027 0.0
H73 H 0.48897 0.8568 0.50975 0.0
H74 H 0.6187 0.9117 0.5097 0.0
H75 H 0.63388 0.9721 0.50955 0.0
H76 H 0.45031 0.10081 0.43542 0.0
H77 H 0.45934 0.15784 0.44428 0.0
H78 H 0.51106 0.16787 0.5105 0.0
H79 H 0.50204 0.11097 0.5015 0.0
Ho80 Ho 0.57402 0.55789 0.83995 0.0
Ho81 Ho 0.52154 0.47835 0.8558 0.0
C82 C 0.47728 0.51391 0.85218 0.0
C83 C 0.60189 0.61702 0.81818 0.0
C84 C 0.59025 0.64092 0.81677 0.0
C85 C 0.60535 0.66598 0.79916 0.0
C86 C 0.59453 0.68892 0.7977 0.0
C87 C 0.56842 0.68722 0.81388 0.0
C88 C 0.55312 0.66173 0.83142 0.0
C89 C 0.56388 0.63875 0.83282 0.0
C90 C 0.57456 0.55157 0.88542 0.0
C91 C 0.6197 0.52425 0.84697 0.0
C92 C 0.49285 0.41703 0.87497 0.0
C93 C 0.50074 0.39063 0.87056 0.0
C94 C 0.48496 0.36088 0.88486 0.0
C95 C 0.49198 0.33543 0.88014 0.0
C96 C 0.5149 0.33942 0.86102 0.0
C97 C 0.53081 0.36956 0.84687 0.0
C98 C 0.52391 0.39495 0.85164 0.0
C99 C 0.52314 0.48524 0.81005 0.0
O100 O 0.50957 0.54029 0.84044 0.0
O101 O 0.4773 0.4893 0.86302 0.0
O102 O 0.61657 0.61769 0.83801 0.0
O103 O 0.57551 0.5833 0.8092 0.0
O104 O 0.6059 0.57856 0.87443 0.0
O105 O 0.54387 0.53135 0.87218 0.0
O106 O 0.58615 0.49693 0.85744 0.0
O107 O 0.62065 0.54909 0.8357 0.0
O108 O 0.47383 0.41912 0.85835 0.0
O109 O 0.52397 0.44981 0.88338 0.0
O110 O 0.49126 0.45852 0.82076 0.0
O111 O 0.55298 0.50509 0.82381 0.0
H112 H 0.62549 0.66777 0.78652 0.0
H113 H 0.60629 0.70771 0.78373 0.0
H114 H 0.53331 0.65991 0.8443 0.0
H115 H 0.55182 0.61943 0.84652 0.0
H116 H 0.46713 0.35727 0.89959 0.0
H117 H 0.47967 0.31278 0.89151 0.0
H118 H 0.54793 0.37318 0.83179 0.0
H119 H 0.53627 0.41778 0.84039 0.0
O120 O 0.55019 0.03596 0.22641 0.0
Cd121 Cd 0.55901 0.03496 0.18504 0.0
O122 O 0.49718 0.97633 0.22825 0.0
Cd123 Cd 0.48829 0.95737 0.19241 0.0
O124 O 0.44399 0.90652 0.17162 0.0
C125 C 0.40883 0.89761 0.16846 0.0
O126 O 0.40256 0.92074 0.17599 0.0
C127 C 0.52306 0.00825 0.23803 0.0
C128 C 0.62814 0.10467 0.17129 0.0
O129 O 0.59269 0.09638 0.17159 0.0
O130 O 0.63086 0.07994 0.17732 0.0
O131 O 0.54074 0.51079 0.58849 0.0
Cd132 Cd 0.54496 0.51645 0.54699 0.0
O133 O 0.49028 0.51341 0.59116 0.0
Cd134 Cd 0.49551 0.53284 0.55685 0.0
O135 O 0.49753 0.57387 0.53801 0.0
C136 C 0.4713 0.57795 0.54387 0.0
O137 O 0.44425 0.55616 0.55927 0.0
C138 C 0.5139 0.50865 0.6004 0.0
C139 C 0.53814 0.45709 0.52674 0.0
O140 O 0.57334 0.48832 0.53163 0.0
O141 O 0.50626 0.4542 0.53102 0.0
O142 O 0.09448 0.53396 0.89746 0.0
Cd143 Cd 0.11979 0.526 0.86115 0.0
O144 O 0.03958 0.52579 0.88487 0.0
Cd145 Cd 0.98529 0.52419 0.88708 0.0
O146 O 0.93024 0.52147 0.8861 0.0
C147 C 0.92087 0.53038 0.86848 0.0
O148 O 0.94454 0.5416 0.85059 0.0
C149 C 0.06332 0.53226 0.90136 0.0
C150 C 0.18947 0.52913 0.86333 0.0
O151 O 0.19316 0.55863 0.86147 0.0
O152 O 0.15308 0.49825 0.86488 0.0
O153 O 0.0401 0.549 0.4041 0.0
Cd154 Cd 0.04845 0.5578 0.44568 0.0
O155 O 0.97943 0.49326 0.40119 0.0
Cd156 Cd 0.96583 0.48034 0.43725 0.0
O157 O 0.92218 0.43523 0.45977 0.0
C158 C 0.92089 0.40701 0.45928 0.0
O159 O 0.94762 0.40779 0.44686 0.0
C160 C 0.01061 0.52178 0.39188 0.0
C161 C 0.11974 0.63048 0.4558 0.0
O162 O 0.12097 0.6036 0.45299 0.0
O163 O 0.08468 0.62285 0.4544 0.0
O164 O 0.49885 0.97226 0.74041 0.0
Cd165 Cd 0.49137 0.96355 0.78161 0.0
O166 O 0.54995 0.03237 0.74398 0.0
Cd167 Cd 0.54117 0.03744 0.78029 0.0
O168 O 0.53235 0.07074 0.80258 0.0
C169 C 0.5354 0.09583 0.79194 0.0
O170 O 0.54326 0.09864 0.76998 0.0
C171 C 0.52662 0.00295 0.73139 0.0
C172 C 0.50853 0.91645 0.79293 0.0
O173 O 0.47218 0.90337 0.78708 0.0
O174 O 0.53665 0.95188 0.79386 0.0
O175 O 0.5493 0.52282 0.10511 0.0
Cd176 Cd 0.54362 0.51588 0.14624 0.0
O177 O 0.58688 0.58366 0.10883 0.0
Cd178 Cd 0.56747 0.58083 0.14399 0.0
O179 O 0.52064 0.57516 0.16491 0.0
C180 C 0.48837 0.54318 0.16998 0.0
O181 O 0.48541 0.51382 0.16446 0.0
C182 C 0.5716 0.55452 0.09626 0.0
C183 C 0.56681 0.47387 0.15772 0.0
O184 O 0.59339 0.5084 0.15352 0.0
O185 O 0.52875 0.45894 0.15709 0.0
C186 C 0.22405 0.48926 0.15012 0.0
C187 C 0.22306 0.51801 0.14471 0.0
C188 C 0.26 0.4974 0.1586 0.0
C189 C 0.29577 0.53458 0.16195 0.0
C190 C 0.29467 0.56327 0.15661 0.0
C191 C 0.25866 0.55512 0.14821 0.0
C192 C 0.33558 0.54438 0.16878 0.0
C193 C 0.33904 0.52163 0.18014 0.0
C194 C 0.37848 0.52842 0.18218 0.0
C195 C 0.37774 0.49768 0.18181 0.0
C196 C 0.41399 0.50261 0.1794 0.0
C197 C 0.45169 0.53846 0.17749 0.0
H198 H 0.41839 0.58886 0.18379 0.0
C199 C 0.45282 0.5694 0.18011 0.0
C200 C 0.41655 0.56445 0.1825 0.0
H201 H 0.48148 0.59743 0.17918 0.0
H202 H 0.19697 0.46039 0.14779 0.0
H203 H 0.25978 0.4744 0.16177 0.0
H204 H 0.32193 0.59211 0.15871 0.0
H205 H 0.25892 0.57787 0.144 0.0
H206 H 0.36294 0.57064 0.16297 0.0
H207 H 0.31175 0.49532 0.18592 0.0
H208 H 0.34885 0.46965 0.18191 0.0
H209 H 0.41209 0.47818 0.17775 0.0
C210 C 0.66851 0.15115 0.50403 0.0
C211 C 0.63193 0.14038 0.49404 0.0
C212 C 0.70435 0.18823 0.50391 0.0
C213 C 0.70443 0.21534 0.49365 0.0
C214 C 0.66742 0.20479 0.4846 0.0
C215 C 0.63164 0.16778 0.48471 0.0
C216 C 0.74233 0.25455 0.49144 0.0
C217 C 0.78043 0.26497 0.49151 0.0
C218 C 0.81763 0.30279 0.48557 0.0
C219 C 0.85127 0.30675 0.47664 0.0
C220 C 0.88541 0.34093 0.46887 0.0
C221 C 0.8869 0.37215 0.47005 0.0
H222 H 0.79541 0.33301 0.49544 0.0
C223 C 0.85426 0.3688 0.48016 0.0
C224 C 0.81999 0.33451 0.48789 0.0
H225 H 0.85464 0.39242 0.48157 0.0
H226 H 0.66972 0.13086 0.51163 0.0
H227 H 0.73178 0.19534 0.51183 0.0
H228 H 0.66637 0.22507 0.47681 0.0
H229 H 0.60396 0.16062 0.47705 0.0
H230 H 0.73815 0.27468 0.48736 0.0
H231 H 0.78436 0.24417 0.49363 0.0
H232 H 0.85059 0.28297 0.4749 0.0
H233 H 0.91015 0.34257 0.46138 0.0
C234 C 0.58661 0.74912 0.80622 0.0
C235 C 0.55735 0.71201 0.8125 0.0
C236 C 0.57622 0.77238 0.80473 0.0
C237 C 0.5363 0.75918 0.80975 0.0
C238 C 0.50705 0.72204 0.8159 0.0
C239 C 0.51741 0.69875 0.8173 0.0
C240 C 0.52336 0.78253 0.80784 0.0
C241 C 0.54975 0.82005 0.80764 0.0
C242 C 0.53726 0.84362 0.80479 0.0
C243 C 0.56668 0.88223 0.80909 0.0
C244 C 0.55723 0.90582 0.8056 0.0
C245 C 0.51801 0.89135 0.79773 0.0
H246 H 0.47438 0.79984 0.79283 0.0
C247 C 0.48835 0.85274 0.79365 0.0
C248 C 0.49786 0.82914 0.79698 0.0
H249 H 0.45793 0.84072 0.78738 0.0
H250 H 0.61775 0.76037 0.80256 0.0
H251 H 0.59953 0.80035 0.79924 0.0
H252 H 0.47594 0.7109 0.81958 0.0
H253 H 0.49388 0.67016 0.82181 0.0
H254 H 0.49064 0.76787 0.80719 0.0
H255 H 0.58228 0.83468 0.81012 0.0
H256 H 0.59733 0.89431 0.81498 0.0
H257 H 0.58082 0.93546 0.80889 0.0
C258 C 0.73877 0.40971 0.19315 0.0
C259 C 0.77059 0.44477 0.20329 0.0
C260 C 0.69811 0.39582 0.19435 0.0
C261 C 0.68861 0.4166 0.20594 0.0
C262 C 0.71958 0.44916 0.21843 0.0
C263 C 0.76027 0.46335 0.21695 0.0
C264 C 0.64933 0.40932 0.20185 0.0
C265 C 0.63426 0.40256 0.18039 0.0
C266 C 0.61196 0.41587 0.17331 0.0
C267 C 0.62646 0.43857 0.15442 0.0
C268 C 0.61121 0.457 0.14927 0.0
C269 C 0.58013 0.45197 0.16242 0.0
H270 H 0.56821 0.39228 0.20074 0.0
C271 C 0.5636 0.42738 0.18045 0.0
C272 C 0.57992 0.40983 0.18613 0.0
H273 H 0.5395 0.42314 0.19075 0.0
H274 H 0.74547 0.39399 0.18318 0.0
H275 H 0.67452 0.37007 0.18505 0.0
H276 H 0.71293 0.46556 0.22756 0.0
H277 H 0.78376 0.49039 0.22501 0.0
H278 H 0.63941 0.41927 0.21495 0.0
H279 H 0.64734 0.39656 0.16676 0.0
H280 H 0.65125 0.44368 0.14437 0.0
H281 H 0.62408 0.4756 0.13515 0.0
C282 C 0.38141 0.90053 0.46311 0.0
C283 C 0.41536 0.91096 0.47624 0.0
C284 C 0.34578 0.86335 0.46133 0.0
C285 C 0.34316 0.8357 0.4728 0.0
C286 C 0.37735 0.84607 0.48556 0.0
C287 C 0.41291 0.88322 0.48737 0.0
C288 C 0.30599 0.79574 0.47134 0.0
C289 C 0.26806 0.78397 0.46637 0.0
C290 C 0.23066 0.74406 0.46473 0.0
C291 C 0.19202 0.73537 0.46561 0.0
C292 C 0.15604 0.6985 0.46317 0.0
C293 C 0.15781 0.66934 0.45968 0.0
H294 H 0.26135 0.72006 0.45987 0.0
C295 C 0.1964 0.67788 0.45896 0.0
C296 C 0.23242 0.71479 0.46134 0.0
H297 H 0.19886 0.65611 0.45609 0.0
H298 H 0.38227 0.92107 0.45414 0.0
H299 H 0.32075 0.85648 0.45067 0.0
H300 H 0.37643 0.8254 0.49441 0.0
H301 H 0.43827 0.89013 0.49767 0.0
H302 H 0.31012 0.77565 0.47558 0.0
H303 H 0.26361 0.8044 0.46413 0.0
H304 H 0.18961 0.75725 0.46806 0.0
H305 H 0.12683 0.69293 0.46375 0.0
C306 C 0.48982 0.27362 0.85762 0.0
C307 C 0.52156 0.31197 0.85539 0.0
C308 C 0.4952 0.24773 0.85057 0.0
C309 C 0.53255 0.25971 0.84119 0.0
C310 C 0.56446 0.298 0.83946 0.0
C311 C 0.55918 0.32383 0.8466 0.0
C312 C 0.53839 0.23335 0.83128 0.0
C313 C 0.51659 0.19767 0.83713 0.0
C314 C 0.52175 0.17178 0.82552 0.0
C315 C 0.51515 0.14281 0.8376 0.0
C316 C 0.51976 0.11811 0.82685 0.0
C317 C 0.53046 0.12164 0.8037 0.0
H318 H 0.53574 0.19603 0.79217 0.0
C319 C 0.53622 0.1502 0.79154 0.0
C320 C 0.53186 0.17491 0.80228 0.0
H321 H 0.54404 0.15352 0.77362 0.0
H322 H 0.46023 0.26348 0.86397 0.0
H323 H 0.46949 0.21844 0.85166 0.0
H324 H 0.59352 0.30802 0.83225 0.0
H325 H 0.58454 0.35315 0.84499 0.0
H326 H 0.56238 0.24422 0.81876 0.0
H327 H 0.49536 0.18733 0.85118 0.0
H328 H 0.50685 0.13953 0.85544 0.0
H329 H 0.51484 0.09624 0.83665 0.0
C330 C 0.51207 0.81439 0.5236 0.0
C331 C 0.54335 0.84259 0.50986 0.0
C332 C 0.50435 0.78034 0.52449 0.0
C333 C 0.52766 0.77361 0.51154 0.0
C334 C 0.55881 0.80173 0.49778 0.0
C335 C 0.56644 0.83574 0.49683 0.0
C336 C 0.52228 0.73877 0.5132 0.0
C337 C 0.48674 0.70615 0.51907 0.0
C338 C 0.48209 0.67216 0.5234 0.0
C339 C 0.44937 0.64493 0.53684 0.0
C340 C 0.44522 0.61382 0.54288 0.0
C341 C 0.4736 0.60902 0.53547 0.0
H342 H 0.5343 0.68604 0.50401 0.0
C343 C 0.5053 0.6353 0.52112 0.0
C344 C 0.50949 0.66653 0.51508 0.0
H345 H 0.52741 0.6322 0.51491 0.0
H346 H 0.49428 0.819 0.53423 0.0
H347 H 0.48107 0.76 0.53596 0.0
H348 H 0.57741 0.79742 0.48775 0.0
H349 H 0.59044 0.85666 0.48585 0.0
H350 H 0.549 0.74071 0.50986 0.0
H351 H 0.46012 0.70455 0.52205 0.0
H352 H 0.42752 0.64824 0.54329 0.0
H353 H 0.42023 0.59398 0.55382 0.0
C354 C 0.65631 0.50011 0.85935 0.0
C355 C 0.65683 0.52661 0.84784 0.0
C356 C 0.69141 0.50265 0.86057 0.0
C357 C 0.72817 0.53195 0.85037 0.0
C358 C 0.72841 0.55809 0.83863 0.0
C359 C 0.69337 0.55558 0.83743 0.0
C360 C 0.76641 0.53574 0.8508 0.0
C361 C 0.77413 0.51902 0.86572 0.0
C362 C 0.81251 0.523 0.86605 0.0
C363 C 0.82246 0.51326 0.88571 0.0
C364 C 0.85756 0.51579 0.88664 0.0
C365 C 0.88366 0.52794 0.86783 0.0
H366 H 0.83178 0.54175 0.8314 0.0
C367 C 0.87363 0.53748 0.8481 0.0
C368 C 0.83856 0.53496 0.84717 0.0
H369 H 0.89275 0.54669 0.83319 0.0
H370 H 0.62868 0.47719 0.86743 0.0
H371 H 0.68918 0.48121 0.86922 0.0
H372 H 0.75599 0.58081 0.83039 0.0
H373 H 0.69505 0.57648 0.82837 0.0
H374 H 0.78979 0.55446 0.83872 0.0
H375 H 0.75217 0.50263 0.87896 0.0
H376 H 0.80298 0.50365 0.9005 0.0
H377 H 0.86414 0.50807 0.9021 0.0
C378 C 0.15311 0.62775 0.13637 0.0
C379 C 0.11806 0.61861 0.14736 0.0
C380 C 0.19006 0.66443 0.13752 0.0
C381 C 0.19263 0.69266 0.14981 0.0
C382 C 0.15749 0.68325 0.16072 0.0
C383 C 0.12081 0.64687 0.15954 0.0
C384 C 0.23056 0.7323 0.15187 0.0
C385 C 0.2678 0.74593 0.14403 0.0
C386 C 0.30447 0.78576 0.1479 0.0
C387 C 0.34345 0.79539 0.15 0.0
C388 C 0.37787 0.83209 0.15574 0.0
C389 C 0.37396 0.85994 0.15937 0.0
H390 H 0.272 0.80827 0.14758 0.0
C391 C 0.33539 0.85071 0.1559 0.0
C392 C 0.30111 0.81415 0.15009 0.0
H393 H 0.33139 0.87158 0.15817 0.0
H394 H 0.15203 0.60664 0.12683 0.0
H395 H 0.21609 0.67024 0.12867 0.0
H396 H 0.15829 0.7042 0.1703 0.0
H397 H 0.09456 0.64102 0.16825 0.0
H398 H 0.22763 0.75117 0.16127 0.0
H399 H 0.27255 0.72746 0.13599 0.0
H400 H 0.34707 0.77423 0.14803 0.0
H401 H 0.40722 0.83832 0.15813 0.0
C402 C 0.50513 0.22883 0.46827 0.0
C403 C 0.48944 0.20069 0.48402 0.0
C404 C 0.50825 0.2602 0.47388 0.0
C405 C 0.4955 0.26392 0.49534 0.0
C406 C 0.47934 0.23554 0.5109 0.0
C407 C 0.47663 0.20443 0.5054 0.0
C408 C 0.49722 0.29622 0.50184 0.0
C409 C 0.52504 0.33042 0.49369 0.0
C410 C 0.52746 0.36273 0.50137 0.0
C411 C 0.56572 0.39848 0.50225 0.0
C412 C 0.56921 0.42924 0.51026 0.0
C413 C 0.53432 0.42494 0.51717 0.0
H414 H 0.46223 0.33158 0.50658 0.0
C415 C 0.49582 0.38934 0.5155 0.0
C416 C 0.4924 0.35855 0.50772 0.0
H417 H 0.4683 0.3851 0.52053 0.0
H418 H 0.51522 0.22667 0.45166 0.0
H419 H 0.51991 0.28105 0.46123 0.0
H420 H 0.46892 0.23751 0.52745 0.0
H421 H 0.46384 0.18295 0.51775 0.0
H422 H 0.47638 0.29211 0.51495 0.0
H423 H 0.54864 0.33564 0.48236 0.0
H424 H 0.59313 0.40252 0.49722 0.0
H425 H 0.59929 0.45634 0.51119 0.0
C426 C 0.4409 0.54002 0.84406 0.0
C427 C 0.44131 0.51318 0.8543 0.0
C428 C 0.40698 0.53922 0.8462 0.0
C429 C 0.37254 0.51156 0.85877 0.0
C430 C 0.37304 0.4847 0.86883 0.0
C431 C 0.40686 0.48552 0.8667 0.0
C432 C 0.33499 0.50866 0.86131 0.0
C433 C 0.33323 0.53621 0.8571 0.0
C434 C 0.2956 0.5332 0.85969 0.0
C435 C 0.29993 0.56592 0.85961 0.0
C436 C 0.26573 0.56467 0.86119 0.0
C437 C 0.226 0.53056 0.86283 0.0
H438 H 0.25039 0.47287 0.86101 0.0
C439 C 0.2215 0.49776 0.86305 0.0
C440 C 0.25573 0.49898 0.86142 0.0
H441 H 0.19136 0.47093 0.8641 0.0
H442 H 0.46676 0.56167 0.83427 0.0
H443 H 0.40785 0.56 0.83764 0.0
H444 H 0.34706 0.46287 0.87848 0.0
H445 H 0.40587 0.46431 0.8748 0.0
H446 H 0.30807 0.48281 0.86776 0.0
H447 H 0.36093 0.56292 0.85215 0.0
H448 H 0.33 0.59271 0.85819 0.0
H449 H 0.27047 0.59052 0.86088 0.0
C450 C 0.88511 0.36417 0.13142 0.0
C451 C 0.88985 0.39427 0.14233 0.0
C452 C 0.84858 0.32775 0.13332 0.0
C453 C 0.81601 0.32071 0.14623 0.0
C454 C 0.82037 0.35097 0.15644 0.0
C455 C 0.85685 0.38726 0.15463 0.0
C456 C 0.77702 0.28248 0.14947 0.0
C457 C 0.77381 0.25158 0.14798 0.0
C458 C 0.73562 0.21381 0.1532 0.0
C459 C 0.73875 0.18667 0.1595 0.0
C460 C 0.7039 0.15119 0.16518 0.0
C461 C 0.66494 0.1419 0.16455 0.0
H462 H 0.69235 0.22373 0.14647 0.0
C463 C 0.66158 0.1687 0.1577 0.0
C464 C 0.69645 0.20419 0.15199 0.0
H465 H 0.63196 0.16232 0.15678 0.0
H466 H 0.90981 0.36863 0.12167 0.0
H467 H 0.84602 0.30537 0.12456 0.0
H468 H 0.79571 0.34651 0.16626 0.0
H469 H 0.85922 0.40976 0.16311 0.0
H470 H 0.75089 0.28033 0.15502 0.0
H471 H 0.80091 0.25416 0.14443 0.0
H472 H 0.76841 0.19311 0.16038 0.0
H473 H 0.70759 0.13117 0.17028 0.0
C474 C 0.01169 0.55319 0.06954 0.0
C475 C 0.99643 0.5216 0.08201 0.0
C476 C 0.01552 0.55243 0.04577 0.0
C477 C 1.00392 0.51991 0.03401 0.0
C478 C 0.98815 0.48823 0.04651 0.0
C479 C 0.98482 0.48915 0.07029 0.0
C480 C 1.00719 0.51783 0.00875 0.0
C481 C 0.03649 0.54728 0.99668 0.0
C482 C 0.04208 0.54419 0.97184 0.0
C483 C 0.08194 0.5663 0.96328 0.0
C484 C 0.08863 0.56277 0.94027 0.0
C485 C 0.05548 0.5378 0.92517 0.0
H486 H 0.97755 0.50275 0.96264 0.0
C487 C 0.01541 0.51666 0.93348 0.0
C488 C 1.00874 0.51966 0.95665 0.0
H489 H 0.98933 0.49684 0.92229 0.0
H490 H 0.02071 0.57852 0.07816 0.0
H491 H 0.02689 0.57711 0.03665 0.0
H492 H 0.97881 0.46278 0.03789 0.0
H493 H 0.97285 0.46434 0.07946 0.0
H494 H 0.98685 0.49054 0.00014 0.0
H495 H 0.05952 0.57379 0.0056 0.0
H496 H 0.10812 0.5856 0.97456 0.0
H497 H 0.11984 0.57946 0.93431 0.0
C498 C 0.51422 0.02151 0.41191 0.0
C499 C 0.55063 0.0346 0.42331 0.0
C500 C 0.51386 0.02534 0.38832 0.0
C501 C 0.54997 0.04219 0.3757 0.0
C502 C 0.58661 0.05661 0.38739 0.0
C503 C 0.58694 0.05272 0.41093 0.0
C504 C 0.55068 0.04461 0.35039 0.0
C505 C 0.51767 0.02026 0.33673 0.0
C506 C 0.5193 0.01899 0.31133 0.0
C507 C 0.4892 0.9853 0.29943 0.0
C508 C 0.49033 0.98203 0.27569 0.0
C509 C 0.52147 0.01254 0.26316 0.0
H510 H 0.57293 0.07674 0.30721 0.0
C511 C 0.55098 0.04669 0.27495 0.0
C512 C 0.5499 0.04994 0.29879 0.0
H513 H 0.57512 0.07086 0.2658 0.0
H514 H 0.48592 0.0079 0.42116 0.0
H515 H 0.48527 0.01506 0.38012 0.0
H516 H 0.61494 0.07007 0.37819 0.0
H517 H 0.61555 0.06342 0.41935 0.0
H518 H 0.58033 0.06484 0.34279 0.0
H519 H 0.48889 0.998 0.34435 0.0
H520 H 0.46508 0.9611 0.30858 0.0
H521 H 0.46686 0.95535 0.26721 0.0
C522 C 0.49075 0.46334 0.77109 0.0
C523 C 0.52561 0.48853 0.78503 0.0
C524 C 0.49299 0.46607 0.74733 0.0
C525 C 0.5302 0.49435 0.73704 0.0
C526 C 0.56514 0.51921 0.75106 0.0
C527 C 0.56288 0.51644 0.77482 0.0
C528 C 0.53391 0.49829 0.71183 0.0
C529 C 0.50197 0.48594 0.69781 0.0
C530 C 0.5057 0.4912 0.67274 0.0
C531 C 0.47654 0.49135 0.66133 0.0
C532 C 0.47906 0.49671 0.63786 0.0
C533 C 0.51061 0.50162 0.62514 0.0
H534 H 0.55913 0.49418 0.66801 0.0
C535 C 0.53926 0.50051 0.63643 0.0
C536 C 0.53684 0.49533 0.65999 0.0
H537 H 0.56376 0.50392 0.62711 0.0
H538 H 0.46173 0.44132 0.77853 0.0
H539 H 0.46566 0.44556 0.73717 0.0
H540 H 0.59426 0.54104 0.74361 0.0
H541 H 0.59031 0.53608 0.78519 0.0
H542 H 0.56447 0.51385 0.7049 0.0
H543 H 0.47218 0.47355 0.70504 0.0
H544 H 0.45198 0.48784 0.67067 0.0
H545 H 0.4563 0.49717 0.62971 0.0
C546 C 0.53612 0.02909 0.55879 0.0
C547 C 0.4991 0.01638 0.54838 0.0
C548 C 0.53727 0.0221 0.58169 0.0
C549 C 0.50138 0.00256 0.5947 0.0
C550 C 0.46429 0.98933 0.58406 0.0
C551 C 0.46316 0.99628 0.56116 0.0
C552 C 0.50117 0.99529 0.61929 0.0
C553 C 0.53463 0.01622 0.63316 0.0
C554 C 0.53332 0.01113 0.65819 0.0
C555 C 0.56274 0.04188 0.6725 0.0
C556 C 0.56118 0.03898 0.69623 0.0
C557 C 0.53032 0.00508 0.70619 0.0
H558 H 0.48112 0.95207 0.65758 0.0
C559 C 0.50194 0.97381 0.69182 0.0
C560 C 0.50344 0.97676 0.66806 0.0
H561 H 0.47805 0.94717 0.69892 0.0
H562 H 0.56425 0.0445 0.54925 0.0
H563 H 0.56625 0.03177 0.58895 0.0
H564 H 0.43612 0.97394 0.59358 0.0
H565 H 0.43416 0.98596 0.55348 0.0
H566 H 0.47162 0.97365 0.6265 0.0
H567 H 0.56345 0.04005 0.62648 0.0
H568 H 0.5864 0.06857 0.66535 0.0
H569 H 0.58374 0.06357 0.70676 0.0
C570 C 0.60926 0.57226 0.92376 0.0
C571 C 0.57366 0.54747 0.91027 0.0
C572 C 0.6082 0.569 0.94745 0.0
C573 C 0.5713 0.54098 0.95808 0.0
C574 C 0.53603 0.51561 0.94441 0.0
C575 C 0.53713 0.51888 0.92074 0.0
C576 C 0.56834 0.53703 0.98325 0.0
C577 C 0.59403 0.5654 0.99836 0.0
C578 C 0.58916 0.56193 0.02352 0.0
C579 C 0.6055 0.59403 0.03735 0.0
C580 C 0.6003 0.59177 0.06101 0.0
C581 C 0.57882 0.55731 0.07136 0.0
H582 H 0.55715 0.50245 0.02406 0.0
C583 C 0.56356 0.52535 0.05761 0.0
C584 C 0.56884 0.52762 0.03397 0.0
H585 H 0.54737 0.49844 0.06507 0.0
H586 H 0.63795 0.59424 0.91602 0.0
H587 H 0.63641 0.58827 0.95724 0.0
H588 H 0.50733 0.49352 0.95211 0.0
H589 H 0.5093 0.4992 0.91067 0.0
H590 H 0.54222 0.51038 0.98943 0.0
H591 H 0.61781 0.59296 0.99222 0.0
H592 H 0.62168 0.62088 0.02979 0.0
H593 H 0.61266 0.61698 0.07113 0.0
C594 C 0.02315 0.52394 0.2175 0.0
C595 C 0.01399 0.49223 0.20608 0.0
C596 C 0.01943 0.52489 0.24124 0.0
C597 C 1.00676 0.49415 0.25402 0.0
C598 C 0.99724 0.46238 0.24245 0.0
C599 C 1.00101 0.46147 0.21874 0.0
C600 C 1.00199 0.49362 0.27925 0.0
C601 C 0.02173 0.52453 0.29304 0.0
C602 C 0.0177 0.52345 0.31833 0.0
C603 C 0.04971 0.55376 0.33195 0.0
C604 C 0.04738 0.55343 0.35581 0.0
C605 C 0.01273 0.52281 0.36658 0.0
H606 H 0.95656 0.46991 0.31924 0.0
C607 C 0.98022 0.49288 0.35292 0.0
C608 C 0.98256 0.49322 0.32909 0.0
H609 H 0.95284 0.46903 0.36062 0.0
H610 H 0.03317 0.54802 0.2081 0.0
H611 H 0.02589 0.5495 0.24935 0.0
H612 H 0.98708 0.43819 0.2518 0.0
H613 H 0.99356 0.4366 0.21031 0.0
H614 H 0.98317 0.46652 0.28677 0.0
H615 H 0.0436 0.55165 0.28584 0.0
H616 H 0.07693 0.57759 0.32412 0.0
H617 H 0.0729 0.57706 0.36578 0.0
loop_
_geom_bond_atom_site_label_1
_geom_bond_atom_site_label_2
_geom_bond_distance
_geom_bond_site_symmetry_2
_ccdc_geom_bond_type
Ho0 C3 2.811 . S
Ho0 O20 2.322 . S
Ho0 O22 2.378 . S
Ho0 O23 2.524 . S
Ho0 O24 2.381 . S
Ho0 O25 2.669 . S
Ho0 O27 2.346 1_455 S
Ho0 O31 2.305 . S
Ho1 C12 2.811 . S
Ho1 O21 2.346 1_655 S
Ho1 O25 2.305 1_655 S
Ho1 O26 2.322 . S
Ho1 O28 2.378 . S
Ho1 O29 2.524 . S
Ho1 O30 2.381 1_655 S
Ho1 O31 2.669 1_655 S
C2 O20 1.259 . S
C2 O21 1.268 . S
C3 Ho0 2.811 . S
C3 C4 1.488 . S
C3 O22 1.215 . S
C3 O23 1.289 . S
C4 C3 1.488 . S
C4 C5 1.348 . S
C4 C9 1.413 . S
C5 C4 1.348 . S
C5 C6 1.442 . S
C5 H32 0.930 . S
C6 C5 1.442 . S
C6 C7 1.381 . S
C6 H33 0.931 . S
C7 C6 1.381 . S
C7 C8 1.321 . S
C8 C7 1.321 . S
C8 C9 1.403 . S
C8 H34 0.934 . S
C9 C4 1.413 . S
C9 C8 1.403 . S
C9 H35 0.930 . S
C10 O24 1.275 . S
C10 O25 1.256 . S
C11 O26 1.259 . S
C11 O27 1.268 . S
C12 Ho1 2.811 . S
C12 C13 1.488 . S
C12 O28 1.215 . S
C12 O29 1.289 . S
C13 C12 1.488 . S
C13 C14 1.348 . S
C13 C18 1.413 . S
C14 C13 1.348 . S
C14 C15 1.442 . S
C14 H36 0.930 . S
C15 C14 1.442 . S
C15 C16 1.381 . S
C15 H37 0.931 . S
C16 C15 1.381 . S
C16 C17 1.321 . S
C17 C16 1.321 . S
C17 C18 1.403 . S
C17 H38 0.934 . S
C18 C13 1.413 . S
C18 C17 1.403 . S
C18 H39 0.930 . S
C19 O30 1.275 . S
C19 O31 1.256 . S
O20 Ho0 2.322 . S
O20 C2 1.259 . S
O21 Ho1 2.346 1_455 S
O21 C2 1.268 . S
O22 Ho0 2.378 . S
O22 C3 1.215 . S
O23 Ho0 2.524 . S
O23 C3 1.289 . S
O24 Ho0 2.381 . S
O24 C10 1.275 . S
O25 Ho0 2.669 . S
O25 Ho1 2.305 1_455 S
O25 C10 1.256 . S
O26 Ho1 2.322 . S
O26 C11 1.259 . S
O27 Ho0 2.346 1_655 S
O27 C11 1.268 . S
O28 Ho1 2.378 . S
O28 C12 1.215 . S
O29 Ho1 2.524 . S
O29 C12 1.289 . S
O30 Ho1 2.381 1_455 S
O30 C19 1.275 . S
O31 Ho0 2.305 . S
O31 Ho1 2.669 1_455 S
O31 C19 1.256 . S
H32 C5 0.930 . S
H33 C6 0.931 . S
H34 C8 0.934 . S
H35 C9 0.930 . S
H36 C14 0.930 . S
H37 C15 0.931 . S
H38 C17 0.934 . S
H39 C18 0.930 . S
Ho40 C43 2.811 . S
Ho40 O60 2.322 . S
Ho40 O62 2.378 . S
Ho40 O63 2.524 . S
Ho40 O64 2.381 . S
Ho40 O65 2.669 1_565 S
Ho40 O67 2.346 1_565 S
Ho40 O71 2.305 1_565 S
Ho41 C52 2.811 . S
Ho41 O61 2.346 1_545 S
Ho41 O65 2.305 . S
Ho41 O66 2.322 . S
Ho41 O68 2.378 . S
Ho41 O69 2.524 . S
Ho41 O70 2.381 . S
Ho41 O71 2.669 . S
C42 O60 1.259 . S
C42 O61 1.268 . S
C43 Ho40 2.811 . S
C43 C44 1.488 . S
C43 O62 1.215 . S
C43 O63 1.289 . S
C44 C43 1.488 . S
C44 C45 1.348 . S
C44 C49 1.413 . S
C45 C44 1.348 . S
C45 C46 1.442 . S
C45 H72 0.930 . S
C46 C45 1.442 . S
C46 C47 1.381 . S
C46 H73 0.931 . S
C47 C46 1.381 . S
C47 C48 1.321 . S
C48 C47 1.321 . S
C48 C49 1.403 . S
C48 H74 0.934 . S
C49 C44 1.413 . S
C49 C48 1.403 . S
C49 H75 0.930 . S
C50 O64 1.275 1_545 S
C50 O65 1.256 . S
C51 O66 1.259 . S
C51 O67 1.268 . S
C52 Ho41 2.811 . S
C52 C53 1.488 . S
C52 O68 1.215 . S
C52 O69 1.289 . S
C53 C52 1.488 . S
C53 C54 1.348 . S
C53 C58 1.413 . S
C54 C53 1.348 . S
C54 C55 1.442 . S
C54 H76 0.930 . S
C55 C54 1.442 . S
C55 C56 1.381 . S
C55 H77 0.931 . S
C56 C55 1.381 . S
C56 C57 1.321 . S
C57 C56 1.321 . S
C57 C58 1.403 . S
C57 H78 0.934 . S
C58 C53 1.413 . S
C58 C57 1.403 . S
C58 H79 0.930 . S
C59 O70 1.275 . S
C59 O71 1.256 . S
O60 Ho40 2.322 . S
O60 C42 1.259 . S
O61 Ho41 2.346 1_565 S
O61 C42 1.268 . S
O62 Ho40 2.378 . S
O62 C43 1.215 . S
O63 Ho40 2.524 . S
O63 C43 1.289 . S
O64 Ho40 2.381 . S
O64 C50 1.275 1_565 S
O65 Ho40 2.669 1_545 S
O65 Ho41 2.305 . S
O65 C50 1.256 . S
O66 Ho41 2.322 . S
O66 C51 1.259 . S
O67 Ho40 2.346 1_545 S
O67 C51 1.268 . S
O68 Ho41 2.378 . S
O68 C52 1.215 . S
O69 Ho41 2.524 . S
O69 C52 1.289 . S
O70 Ho41 2.381 . S
O70 C59 1.275 . S
O71 Ho40 2.305 1_545 S
O71 Ho41 2.669 . S
O71 C59 1.256 . S
H72 C45 0.930 . S
H73 C46 0.931 . S
H74 C48 0.934 . S
H75 C49 0.930 . S
H76 C54 0.930 . S
H77 C55 0.931 . S
H78 C57 0.934 . S
H79 C58 0.930 . S
Ho80 C83 2.811 . S
Ho80 O100 2.322 . S
Ho80 O102 2.378 . S
Ho80 O103 2.524 . S
Ho80 O104 2.381 . S
Ho80 O105 2.669 . S
Ho80 O107 2.346 . S
Ho80 O111 2.305 . S
Ho81 C92 2.811 . S
Ho81 O101 2.346 . S
Ho81 O105 2.305 . S
Ho81 O106 2.322 . S
Ho81 O108 2.378 . S
Ho81 O109 2.524 . S
Ho81 O110 2.381 . S
Ho81 O111 2.669 . S
C82 O100 1.259 . S
C82 O101 1.268 . S
C83 Ho80 2.811 . S
C83 C84 1.488 . S
C83 O102 1.215 . S
C83 O103 1.289 . S
C84 C83 1.488 . S
C84 C85 1.348 . S
C84 C89 1.413 . S
C85 C84 1.348 . S
C85 C86 1.442 . S
C85 H112 0.930 . S
C86 C85 1.442 . S
C86 C87 1.381 . S
C86 H113 0.931 . S
C87 C86 1.381 . S
C87 C88 1.321 . S
C88 C87 1.321 . S
C88 C89 1.403 . S
C88 H114 0.934 . S
C89 C84 1.413 . S
C89 C88 1.403 . S
C89 H115 0.930 . S
C90 O104 1.275 . S
C90 O105 1.256 . S
C91 O106 1.259 . S
C91 O107 1.268 . S
C92 Ho81 2.811 . S
C92 C93 1.488 . S
C92 O108 1.215 . S
C92 O109 1.289 . S
C93 C92 1.488 . S
C93 C94 1.348 . S
C93 C98 1.413 . S
C94 C93 1.348 . S
C94 C95 1.442 . S
C94 H116 0.930 . S
C95 C94 1.442 . S
C95 C96 1.381 . S
C95 H117 0.931 . S
C96 C95 1.381 . S
C96 C97 1.321 . S
C97 C96 1.321 . S
C97 C98 1.403 . S
C97 H118 0.934 . S
C98 C93 1.413 . S
C98 C97 1.403 . S
C98 H119 0.930 . S
C99 O110 1.275 . S
C99 O111 1.256 . S
O100 Ho80 2.322 . S
O100 C82 1.259 . S
O101 Ho81 2.346 . S
O101 C82 1.268 . S
O102 Ho80 2.378 . S
O102 C83 1.215 . S
O103 Ho80 2.524 . S
O103 C83 1.289 . S
O104 Ho80 2.381 . S
O104 C90 1.275 . S
O105 Ho80 2.669 . S
O105 Ho81 2.305 . S
O105 C90 1.256 . S
O106 Ho81 2.322 . S
O106 C91 1.259 . S
O107 Ho80 2.346 . S
O107 C91 1.268 . S
O108 Ho81 2.378 . S
O108 C92 1.215 . S
O109 Ho81 2.524 . S
O109 C92 1.289 . S
O110 Ho81 2.381 . S
O110 C99 1.275 . S
O111 Ho80 2.305 . S
O111 Ho81 2.669 . S
O111 C99 1.256 . S
H112 C85 0.930 . S
H113 C86 0.931 . S
H114 C88 0.934 . S
H115 C89 0.930 . S
H116 C94 0.930 . S
H117 C95 0.931 . S
H118 C97 0.934 . S
H119 C98 0.930 . S
O120 Cd121 2.300 . S
O120 C127 1.275 . S
Cd121 O120 2.300 . S
Cd121 O129 2.381 . S
Cd121 O130 2.378 . S
O122 Cd123 2.385 . S
O122 C127 1.255 1_565 S
Cd123 O122 2.385 . S
Cd123 O124 2.317 . S
O124 Cd123 2.317 . S
O124 C125 1.232 . S
C125 O124 1.232 . S
C125 O126 1.218 . S
O126 C125 1.218 . S
C127 O120 1.275 . S
C127 O122 1.255 1_545 S
C128 O129 1.258 . S
C128 O130 1.256 . S
O129 Cd121 2.381 . S
O129 C128 1.258 . S
O130 Cd121 2.378 . S
O130 C128 1.256 . S
O131 Cd132 2.300 . S
O131 C138 1.275 . S
Cd132 O131 2.300 . S
Cd132 O140 2.381 . S
Cd132 O141 2.378 . S
O133 Cd134 2.385 . S
O133 C138 1.255 . S
Cd134 O133 2.385 . S
Cd134 O135 2.317 . S
O135 Cd134 2.317 . S
O135 C136 1.232 . S
C136 O135 1.232 . S
C136 O137 1.218 . S
O137 C136 1.218 . S
C138 O131 1.275 . S
C138 O133 1.255 . S
C139 O140 1.258 . S
C139 O141 1.256 . S
O140 Cd132 2.381 . S
O140 C139 1.258 . S
O141 Cd132 2.378 . S
O141 C139 1.256 . S
O142 Cd143 2.300 . S
O142 C149 1.275 . S
Cd143 O142 2.300 . S
Cd143 O151 2.381 . S
Cd143 O152 2.378 . S
O144 Cd145 2.385 1_455 S
O144 C149 1.255 . S
Cd145 O144 2.385 1_655 S
Cd145 O146 2.317 . S
O146 Cd145 2.317 . S
O146 C147 1.232 . S
C147 O146 1.232 . S
C147 O148 1.218 . S
O148 C147 1.218 . S
C149 O142 1.275 . S
C149 O144 1.255 . S
C150 O151 1.258 . S
C150 O152 1.256 . S
O151 Cd143 2.381 . S
O151 C150 1.258 . S
O152 Cd143 2.378 . S
O152 C150 1.256 . S
O153 Cd154 2.300 . S
O153 C160 1.275 1_455 S
Cd154 O153 2.300 . S
Cd154 O162 2.381 . S
Cd154 O163 2.378 . S
O155 Cd156 2.385 . S
O155 C160 1.255 . S
Cd156 O155 2.385 . S
Cd156 O157 2.317 . S
O157 Cd156 2.317 . S
O157 C158 1.232 . S
C158 O157 1.232 . S
C158 O159 1.218 . S
O159 C158 1.218 . S
C160 O153 1.275 1_655 S
C160 O155 1.255 . S
C161 O162 1.258 . S
C161 O163 1.256 . S
O162 Cd154 2.381 . S
O162 C161 1.258 . S
O163 Cd154 2.378 . S
O163 C161 1.256 . S
O164 Cd165 2.300 . S
O164 C171 1.275 1_565 S
Cd165 O164 2.300 . S
Cd165 O173 2.381 . S
Cd165 O174 2.378 . S
O166 Cd167 2.385 . S
O166 C171 1.255 . S
Cd167 O166 2.385 . S
Cd167 O168 2.317 . S
O168 Cd167 2.317 . S
O168 C169 1.232 . S
C169 O168 1.232 . S
C169 O170 1.218 . S
O170 C169 1.218 . S
C171 O164 1.275 1_545 S
C171 O166 1.255 . S
C172 O173 1.258 . S
C172 O174 1.256 . S
O173 Cd165 2.381 . S
O173 C172 1.258 . S
O174 Cd165 2.378 . S
O174 C172 1.256 . S
O175 Cd176 2.300 . S
O175 C182 1.275 . S
Cd176 O175 2.300 . S
Cd176 O184 2.381 . S
Cd176 O185 2.378 . S
O177 Cd178 2.385 . S
O177 C182 1.255 . S
Cd178 O177 2.385 . S
Cd178 O179 2.317 . S
O179 Cd178 2.317 . S
O179 C180 1.232 . S
C180 O179 1.232 . S
C180 O181 1.218 . S
O181 C180 1.218 . S
C182 O175 1.275 . S
C182 O177 1.255 . S
C183 O184 1.258 . S
C183 O185 1.256 . S
O184 Cd176 2.381 . S
O184 C183 1.258 . S
O185 Cd176 2.378 . S
O185 C183 1.256 . S
C186 C187 1.386 . S
C186 C188 1.383 . S
C186 H202 0.951 . S
C187 C186 1.386 . S
C187 C191 1.383 . S
C188 C186 1.383 . S
C188 C189 1.402 . S
C188 H203 0.951 . S
C189 C188 1.402 . S
C189 C190 1.375 . S
C189 C192 1.481 . S
C190 C189 1.375 . S
C190 C191 1.367 . S
C190 H204 0.951 . S
C191 C187 1.383 . S
C191 C190 1.367 . S
C191 H205 0.950 . S
C192 C189 1.481 . S
C192 C193 1.297 . S
C192 H206 0.950 . S
C193 C192 1.297 . S
C193 C194 1.479 . S
C193 H207 0.950 . S
C194 C193 1.479 . S
C194 C195 1.375 . S
C194 C200 1.404 . S
C195 C194 1.375 . S
C195 C196 1.369 . S
C195 H208 0.950 . S
C196 C195 1.369 . S
C196 C197 1.392 . S
C196 H209 0.951 . S
C197 C196 1.392 . S
C197 C199 1.384 . S
H198 C200 0.949 . S
C199 C197 1.384 . S
C199 C200 1.385 . S
C199 H201 0.950 . S
C200 C194 1.404 . S
C200 H198 0.949 . S
C200 C199 1.385 . S
H201 C199 0.950 . S
H202 C186 0.951 . S
H203 C188 0.951 . S
H204 C190 0.951 . S
H205 C191 0.950 . S
H206 C192 0.950 . S
H207 C193 0.950 . S
H208 C195 0.950 . S
H209 C196 0.951 . S
C210 C211 1.386 . S
C210 C212 1.383 . S
C210 H226 0.951 . S
C211 C210 1.386 . S
C211 C215 1.383 . S
C212 C210 1.383 . S
C212 C213 1.402 . S
C212 H227 0.951 . S
C213 C212 1.402 . S
C213 C214 1.375 . S
C213 C216 1.481 . S
C214 C213 1.375 . S
C214 C215 1.367 . S
C214 H228 0.951 . S
C215 C211 1.383 . S
C215 C214 1.367 . S
C215 H229 0.950 . S
C216 C213 1.481 . S
C216 C217 1.297 . S
C216 H230 0.950 . S
C217 C216 1.297 . S
C217 C218 1.479 . S
C217 H231 0.950 . S
C218 C217 1.479 . S
C218 C219 1.375 . S
C218 C224 1.404 . S
C219 C218 1.375 . S
C219 C220 1.369 . S
C219 H232 0.950 . S
C220 C219 1.369 . S
C220 C221 1.392 . S
C220 H233 0.951 . S
C221 C220 1.392 . S
C221 C223 1.384 . S
H222 C224 0.949 . S
C223 C221 1.384 . S
C223 C224 1.385 . S
C223 H225 0.950 . S
C224 C218 1.404 . S
C224 H222 0.949 . S
C224 C223 1.385 . S
H225 C223 0.950 . S
H226 C210 0.951 . S
H227 C212 0.951 . S
H228 C214 0.951 . S
H229 C215 0.950 . S
H230 C216 0.950 . S
H231 C217 0.950 . S
H232 C219 0.950 . S
H233 C220 0.951 . S
C234 C235 1.386 . S
C234 C236 1.383 . S
C234 H250 0.951 . S
C235 C234 1.386 . S
C235 C239 1.383 . S
C236 C234 1.383 . S
C236 C237 1.402 . S
C236 H251 0.951 . S
C237 C236 1.402 . S
C237 C238 1.375 . S
C237 C240 1.481 . S
C238 C237 1.375 . S
C238 C239 1.367 . S
C238 H252 0.951 . S
C239 C235 1.383 . S
C239 C238 1.367 . S
C239 H253 0.950 . S
C240 C237 1.481 . S
C240 C241 1.297 . S
C240 H254 0.950 . S
C241 C240 1.297 . S
C241 C242 1.479 . S
C241 H255 0.950 . S
C242 C241 1.479 . S
C242 C243 1.375 . S
C242 C248 1.404 . S
C243 C242 1.375 . S
C243 C244 1.369 . S
C243 H256 0.950 . S
C244 C243 1.369 . S
C244 C245 1.392 . S
C244 H257 0.951 . S
C245 C244 1.392 . S
C245 C247 1.384 . S
H246 C248 0.949 . S
C247 C245 1.384 . S
C247 C248 1.385 . S
C247 H249 0.950 . S
C248 C242 1.404 . S
C248 H246 0.949 . S
C248 C247 1.385 . S
H249 C247 0.950 . S
H250 C234 0.951 . S
H251 C236 0.951 . S
H252 C238 0.951 . S
H253 C239 0.950 . S
H254 C240 0.950 . S
H255 C241 0.950 . S
H256 C243 0.950 . S
H257 C244 0.951 . S
C258 C259 1.386 . S
C258 C260 1.383 . S
C258 H274 0.951 . S
C259 C258 1.386 . S
C259 C263 1.383 . S
C260 C258 1.383 . S
C260 C261 1.402 . S
C260 H275 0.951 . S
C261 C260 1.402 . S
C261 C262 1.375 . S
C261 C264 1.481 . S
C262 C261 1.375 . S
C262 C263 1.367 . S
C262 H276 0.951 . S
C263 C259 1.383 . S
C263 C262 1.367 . S
C263 H277 0.950 . S
C264 C261 1.481 . S
C264 C265 1.297 . S
C264 H278 0.950 . S
C265 C264 1.297 . S
C265 C266 1.479 . S
C265 H279 0.950 . S
C266 C265 1.479 . S
C266 C267 1.375 . S
C266 C272 1.404 . S
C267 C266 1.375 . S
C267 C268 1.369 . S
C267 H280 0.950 . S
C268 C267 1.369 . S
C268 C269 1.392 . S
C268 H281 0.951 . S
C269 C268 1.392 . S
C269 C271 1.384 . S
H270 C272 0.949 . S
C271 C269 1.384 . S
C271 C272 1.385 . S
C271 H273 0.950 . S
C272 C266 1.404 . S
C272 H270 0.949 . S
C272 C271 1.385 . S
H273 C271 0.950 . S
H274 C258 0.951 . S
H275 C260 0.951 . S
H276 C262 0.951 . S
H277 C263 0.950 . S
H278 C264 0.950 . S
H279 C265 0.950 . S
H280 C267 0.950 . S
H281 C268 0.951 . S
C282 C283 1.386 . S
C282 C284 1.383 . S
C282 H298 0.951 . S
C283 C282 1.386 . S
C283 C287 1.383 . S
C284 C282 1.383 . S
C284 C285 1.402 . S
C284 H299 0.951 . S
C285 C284 1.402 . S
C285 C286 1.375 . S
C285 C288 1.481 . S
C286 C285 1.375 . S
C286 C287 1.367 . S
C286 H300 0.951 . S
C287 C283 1.383 . S
C287 C286 1.367 . S
C287 H301 0.950 . S
C288 C285 1.481 . S
C288 C289 1.297 . S
C288 H302 0.950 . S
C289 C288 1.297 . S
C289 C290 1.479 . S
C289 H303 0.950 . S
C290 C289 1.479 . S
C290 C291 1.375 . S
C290 C296 1.404 . S
C291 C290 1.375 . S
C291 C292 1.369 . S
C291 H304 0.950 . S
C292 C291 1.369 . S
C292 C293 1.392 . S
C292 H305 0.951 . S
C293 C292 1.392 . S
C293 C295 1.384 . S
H294 C296 0.949 . S
C295 C293 1.384 . S
C295 C296 1.385 . S
C295 H297 0.950 . S
C296 C290 1.404 . S
C296 H294 0.949 . S
C296 C295 1.385 . S
H297 C295 0.950 . S
H298 C282 0.951 . S
H299 C284 0.951 . S
H300 C286 0.951 . S
H301 C287 0.950 . S
H302 C288 0.950 . S
H303 C289 0.950 . S
H304 C291 0.950 . S
H305 C292 0.951 . S
C306 C307 1.386 . S
C306 C308 1.383 . S
C306 H322 0.951 . S
C307 C306 1.386 . S
C307 C311 1.383 . S
C308 C306 1.383 . S
C308 C309 1.402 . S
C308 H323 0.951 . S
C309 C308 1.402 . S
C309 C310 1.375 . S
C309 C312 1.481 . S
C310 C309 1.375 . S
C310 C311 1.367 . S
C310 H324 0.951 . S
C311 C307 1.383 . S
C311 C310 1.367 . S
C311 H325 0.950 . S
C312 C309 1.481 . S
C312 C313 1.297 . S
C312 H326 0.950 . S
C313 C312 1.297 . S
C313 C314 1.479 . S
C313 H327 0.950 . S
C314 C313 1.479 . S
C314 C315 1.375 . S
C314 C320 1.404 . S
C315 C314 1.375 . S
C315 C316 1.369 . S
C315 H328 0.950 . S
C316 C315 1.369 . S
C316 C317 1.392 . S
C316 H329 0.951 . S
C317 C316 1.392 . S
C317 C319 1.384 . S
H318 C320 0.949 . S
C319 C317 1.384 . S
C319 C320 1.385 . S
C319 H321 0.950 . S
C320 C314 1.404 . S
C320 H318 0.949 . S
C320 C319 1.385 . S
H321 C319 0.950 . S
H322 C306 0.951 . S
H323 C308 0.951 . S
H324 C310 0.951 . S
H325 C311 0.950 . S
H326 C312 0.950 . S
H327 C313 0.950 . S
H328 C315 0.950 . S
H329 C316 0.951 . S
C330 C331 1.386 . S
C330 C332 1.383 . S
C330 H346 0.951 . S
C331 C330 1.386 . S
C331 C335 1.383 . S
C332 C330 1.383 . S
C332 C333 1.402 . S
C332 H347 0.951 . S
C333 C332 1.402 . S
C333 C334 1.375 . S
C333 C336 1.481 . S
C334 C333 1.375 . S
C334 C335 1.367 . S
C334 H348 0.951 . S
C335 C331 1.383 . S
C335 C334 1.367 . S
C335 H349 0.950 . S
C336 C333 1.481 . S
C336 C337 1.297 . S
C336 H350 0.950 . S
C337 C336 1.297 . S
C337 C338 1.479 . S
C337 H351 0.950 . S
C338 C337 1.479 . S
C338 C339 1.375 . S
C338 C344 1.404 . S
C339 C338 1.375 . S
C339 C340 1.369 . S
C339 H352 0.950 . S
C340 C339 1.369 . S
C340 C341 1.392 . S
C340 H353 0.951 . S
C341 C340 1.392 . S
C341 C343 1.384 . S
H342 C344 0.949 . S
C343 C341 1.384 . S
C343 C344 1.385 . S
C343 H345 0.950 . S
C344 C338 1.404 . S
C344 H342 0.949 . S
C344 C343 1.385 . S
H345 C343 0.950 . S
H346 C330 0.951 . S
H347 C332 0.951 . S
H348 C334 0.951 . S
H349 C335 0.950 . S
H350 C336 0.950 . S
H351 C337 0.950 . S
H352 C339 0.950 . S
H353 C340 0.951 . S
C354 C355 1.386 . S
C354 C356 1.383 . S
C354 H370 0.951 . S
C355 C354 1.386 . S
C355 C359 1.383 . S
C356 C354 1.383 . S
C356 C357 1.402 . S
C356 H371 0.951 . S
C357 C356 1.402 . S
C357 C358 1.375 . S
C357 C360 1.481 . S
C358 C357 1.375 . S
C358 C359 1.367 . S
C358 H372 0.951 . S
C359 C355 1.383 . S
C359 C358 1.367 . S
C359 H373 0.950 . S
C360 C357 1.481 . S
C360 C361 1.297 . S
C360 H374 0.950 . S
C361 C360 1.297 . S
C361 C362 1.479 . S
C361 H375 0.950 . S
C362 C361 1.479 . S
C362 C363 1.375 . S
C362 C368 1.404 . S
C363 C362 1.375 . S
C363 C364 1.369 . S
C363 H376 0.950 . S
C364 C363 1.369 . S
C364 C365 1.392 . S
C364 H377 0.951 . S
C365 C364 1.392 . S
C365 C367 1.384 . S
H366 C368 0.949 . S
C367 C365 1.384 . S
C367 C368 1.385 . S
C367 H369 0.950 . S
C368 C362 1.404 . S
C368 H366 0.949 . S
C368 C367 1.385 . S
H369 C367 0.950 . S
H370 C354 0.951 . S
H371 C356 0.951 . S
H372 C358 0.951 . S
H373 C359 0.950 . S
H374 C360 0.950 . S
H375 C361 0.950 . S
H376 C363 0.950 . S
H377 C364 0.951 . S
C378 C379 1.386 . S
C378 C380 1.383 . S
C378 H394 0.951 . S
C379 C378 1.386 . S
C379 C383 1.383 . S
C380 C378 1.383 . S
C380 C381 1.402 . S
C380 H395 0.951 . S
C381 C380 1.402 . S
C381 C382 1.375 . S
C381 C384 1.481 . S
C382 C381 1.375 . S
C382 C383 1.367 . S
C382 H396 0.951 . S
C383 C379 1.383 . S
C383 C382 1.367 . S
C383 H397 0.950 . S
C384 C381 1.481 . S
C384 C385 1.297 . S
C384 H398 0.950 . S
C385 C384 1.297 . S
C385 C386 1.479 . S
C385 H399 0.950 . S
C386 C385 1.479 . S
C386 C387 1.375 . S
C386 C392 1.404 . S
C387 C386 1.375 . S
C387 C388 1.369 . S
C387 H400 0.950 . S
C388 C387 1.369 . S
C388 C389 1.392 . S
C388 H401 0.951 . S
C389 C388 1.392 . S
C389 C391 1.384 . S
H390 C392 0.949 . S
C391 C389 1.384 . S
C391 C392 1.385 . S
C391 H393 0.950 . S
C392 C386 1.404 . S
C392 H390 0.949 . S
C392 C391 1.385 . S
H393 C391 0.950 . S
H394 C378 0.951 . S
H395 C380 0.951 . S
H396 C382 0.951 . S
H397 C383 0.950 . S
H398 C384 0.950 . S
H399 C385 0.950 . S
H400 C387 0.950 . S
H401 C388 0.951 . S
C402 C403 1.386 . S
C402 C404 1.383 . S
C402 H418 0.951 . S
C403 C402 1.386 . S
C403 C407 1.383 . S
C404 C402 1.383 . S
C404 C405 1.402 . S
C404 H419 0.951 . S
C405 C404 1.402 . S
C405 C406 1.375 . S
C405 C408 1.481 . S
C406 C405 1.375 . S
C406 C407 1.367 . S
C406 H420 0.951 . S
C407 C403 1.383 . S
C407 C406 1.367 . S
C407 H421 0.950 . S
C408 C405 1.481 . S
C408 C409 1.297 . S
C408 H422 0.950 . S
C409 C408 1.297 . S
C409 C410 1.479 . S
C409 H423 0.950 . S
C410 C409 1.479 . S
C410 C411 1.375 . S
C410 C416 1.404 . S
C411 C410 1.375 . S
C411 C412 1.369 . S
C411 H424 0.950 . S
C412 C411 1.369 . S
C412 C413 1.392 . S
C412 H425 0.951 . S
C413 C412 1.392 . S
C413 C415 1.384 . S
H414 C416 0.949 . S
C415 C413 1.384 . S
C415 C416 1.385 . S
C415 H417 0.950 . S
C416 C410 1.404 . S
C416 H414 0.949 . S
C416 C415 1.385 . S
H417 C415 0.950 . S
H418 C402 0.951 . S
H419 C404 0.951 . S
H420 C406 0.951 . S
H421 C407 0.950 . S
H422 C408 0.950 . S
H423 C409 0.950 . S
H424 C411 0.950 . S
H425 C412 0.951 . S
C426 C427 1.386 . S
C426 C428 1.383 . S
C426 H442 0.951 . S
C427 C426 1.386 . S
C427 C431 1.383 . S
C428 C426 1.383 . S
C428 C429 1.402 . S
C428 H443 0.951 . S
C429 C428 1.402 . S
C429 C430 1.375 . S
C429 C432 1.481 . S
C430 C429 1.375 . S
C430 C431 1.367 . S
C430 H444 0.951 . S
C431 C427 1.383 . S
C431 C430 1.367 . S
C431 H445 0.950 . S
C432 C429 1.481 . S
C432 C433 1.297 . S
C432 H446 0.950 . S
C433 C432 1.297 . S
C433 C434 1.479 . S
C433 H447 0.950 . S
C434 C433 1.479 . S
C434 C435 1.375 . S
C434 C440 1.404 . S
C435 C434 1.375 . S
C435 C436 1.369 . S
C435 H448 0.950 . S
C436 C435 1.369 . S
C436 C437 1.392 . S
C436 H449 0.951 . S
C437 C436 1.392 . S
C437 C439 1.384 . S
H438 C440 0.949 . S
C439 C437 1.384 . S
C439 C440 1.385 . S
C439 H441 0.950 . S
C440 C434 1.404 . S
C440 H438 0.949 . S
C440 C439 1.385 . S
H441 C439 0.950 . S
H442 C426 0.951 . S
H443 C428 0.951 . S
H444 C430 0.951 . S
H445 C431 0.950 . S
H446 C432 0.950 . S
H447 C433 0.950 . S
H448 C435 0.950 . S
H449 C436 0.951 . S
C450 C451 1.386 . S
C450 C452 1.383 . S
C450 H466 0.951 . S
C451 C450 1.386 . S
C451 C455 1.383 . S
C452 C450 1.383 . S
C452 C453 1.402 . S
C452 H467 0.951 . S
C453 C452 1.402 . S
C453 C454 1.375 . S
C453 C456 1.481 . S
C454 C453 1.375 . S
C454 C455 1.367 . S
C454 H468 0.951 . S
C455 C451 1.383 . S
C455 C454 1.367 . S
C455 H469 0.950 . S
C456 C453 1.481 . S
C456 C457 1.297 . S
C456 H470 0.950 . S
C457 C456 1.297 . S
C457 C458 1.479 . S
C457 H471 0.950 . S
C458 C457 1.479 . S
C458 C459 1.375 . S
C458 C464 1.404 . S
C459 C458 1.375 . S
C459 C460 1.369 . S
C459 H472 0.950 . S
C460 C459 1.369 . S
C460 C461 1.392 . S
C460 H473 0.951 . S
C461 C460 1.392 . S
C461 C463 1.384 . S
H462 C464 0.949 . S
C463 C461 1.384 . S
C463 C464 1.385 . S
C463 H465 0.950 . S
C464 C458 1.404 . S
C464 H462 0.949 . S
C464 C463 1.385 . S
H465 C463 0.950 . S
H466 C450 0.951 . S
H467 C452 0.951 . S
H468 C454 0.951 . S
H469 C455 0.950 . S
H470 C456 0.950 . S
H471 C457 0.950 . S
H472 C459 0.950 . S
H473 C460 0.951 . S
C474 C475 1.386 . S
C474 C476 1.383 . S
C474 H490 0.951 . S
C475 C474 1.386 . S
C475 C479 1.383 1_455 S
C476 C474 1.383 . S
C476 C477 1.402 . S
C476 H491 0.951 . S
C477 C476 1.402 . S
C477 C478 1.375 1_455 S
C477 C480 1.481 . S
C478 C477 1.375 1_655 S
C478 C479 1.367 . S
C478 H492 0.951 . S
C479 C475 1.383 1_655 S
C479 C478 1.367 . S
C479 H493 0.950 . S
C480 C477 1.481 . S
C480 C481 1.297 . S
C480 H494 0.950 1_455 S
C481 C480 1.297 . S
C481 C482 1.479 1_554 S
C481 H495 0.950 . S
C482 C481 1.479 1_556 S
C482 C483 1.375 . S
C482 C488 1.404 . S
C483 C482 1.375 . S
C483 C484 1.369 . S
C483 H496 0.950 . S
C484 C483 1.369 . S
C484 C485 1.392 . S
C484 H497 0.951 . S
C485 C484 1.392 . S
C485 C487 1.384 . S
H486 C488 0.949 1_655 S
C487 C485 1.384 . S
C487 C488 1.385 . S
C487 H489 0.950 1_455 S
C488 C482 1.404 . S
C488 H486 0.949 1_455 S
C488 C487 1.385 . S
H489 C487 0.950 1_655 S
H490 C474 0.951 . S
H491 C476 0.951 . S
H492 C478 0.951 . S
H493 C479 0.950 . S
H494 C480 0.950 1_655 S
H495 C481 0.950 . S
H496 C483 0.950 . S
H497 C484 0.951 . S
C498 C499 1.386 1_565 S
C498 C500 1.383 . S
C498 H514 0.951 . S
C499 C498 1.386 1_545 S
C499 C503 1.383 . S
C500 C498 1.383 . S
C500 C501 1.402 1_565 S
C500 H515 0.951 . S
C501 C500 1.402 1_545 S
C501 C502 1.375 . S
C501 C504 1.481 . S
C502 C501 1.375 . S
C502 C503 1.367 . S
C502 H516 0.951 . S
C503 C499 1.383 . S
C503 C502 1.367 . S
C503 H517 0.950 . S
C504 C501 1.481 . S
C504 C505 1.297 . S
C504 H518 0.950 . S
C505 C504 1.297 . S
C505 C506 1.479 . S
C505 H519 0.950 1_545 S
C506 C505 1.479 . S
C506 C507 1.375 1_545 S
C506 C512 1.404 . S
C507 C506 1.375 1_565 S
C507 C508 1.369 . S
C507 H520 0.950 . S
C508 C507 1.369 . S
C508 C509 1.392 1_565 S
C508 H521 0.951 . S
C509 C508 1.392 1_545 S
C509 C511 1.384 . S
H510 C512 0.949 . S
C511 C509 1.384 . S
C511 C512 1.385 . S
C511 H513 0.950 . S
C512 C506 1.404 . S
C512 H510 0.949 . S
C512 C511 1.385 . S
H513 C511 0.950 . S
H514 C498 0.951 . S
H515 C500 0.951 . S
H516 C502 0.951 . S
H517 C503 0.950 . S
H518 C504 0.950 . S
H519 C505 0.950 1_565 S
H520 C507 0.950 . S
H521 C508 0.951 . S
C522 C523 1.386 . S
C522 C524 1.383 . S
C522 H538 0.951 . S
C523 C522 1.386 . S
C523 C527 1.383 . S
C524 C522 1.383 . S
C524 C525 1.402 . S
C524 H539 0.951 . S
C525 C524 1.402 . S
C525 C526 1.375 . S
C525 C528 1.481 . S
C526 C525 1.375 . S
C526 C527 1.367 . S
C526 H540 0.951 . S
C527 C523 1.383 . S
C527 C526 1.367 . S
C527 H541 0.950 . S
C528 C525 1.481 . S
C528 C529 1.297 . S
C528 H542 0.950 . S
C529 C528 1.297 . S
C529 C530 1.479 . S
C529 H543 0.950 . S
C530 C529 1.479 . S
C530 C531 1.375 . S
C530 C536 1.404 . S
C531 C530 1.375 . S
C531 C532 1.369 . S
C531 H544 0.950 . S
C532 C531 1.369 . S
C532 C533 1.392 . S
C532 H545 0.951 . S
C533 C532 1.392 . S
C533 C535 1.384 . S
H534 C536 0.949 . S
C535 C533 1.384 . S
C535 C536 1.385 . S
C535 H537 0.950 . S
C536 C530 1.404 . S
C536 H534 0.949 . S
C536 C535 1.385 . S
H537 C535 0.950 . S
H538 C522 0.951 . S
H539 C524 0.951 . S
H540 C526 0.951 . S
H541 C527 0.950 . S
H542 C528 0.950 . S
H543 C529 0.950 . S
H544 C531 0.950 . S
H545 C532 0.951 . S
C546 C547 1.386 . S
C546 C548 1.383 . S
C546 H562 0.951 . S
C547 C546 1.386 . S
C547 C551 1.383 1_545 S
C548 C546 1.383 . S
C548 C549 1.402 . S
C548 H563 0.951 . S
C549 C548 1.402 . S
C549 C550 1.375 1_545 S
C549 C552 1.481 1_545 S
C550 C549 1.375 1_565 S
C550 C551 1.367 . S
C550 H564 0.951 . S
C551 C547 1.383 1_565 S
C551 C550 1.367 . S
C551 H565 0.950 . S
C552 C549 1.481 1_565 S
C552 C553 1.291 1_565 S
C552 H566 0.957 . S
C553 C552 1.291 1_545 S
C553 C554 1.479 . S
C553 H567 0.950 . S
C554 C553 1.479 . S
C554 C555 1.375 . S
C554 C560 1.404 1_545 S
C555 C554 1.375 . S
C555 C556 1.369 . S
C555 H568 0.950 . S
C556 C555 1.369 . S
C556 C557 1.392 . S
C556 H569 0.951 . S
C557 C556 1.392 . S
C557 C559 1.384 1_545 S
H558 C560 0.949 . S
C559 C557 1.384 1_565 S
C559 C560 1.385 . S
C559 H561 0.950 . S
C560 C554 1.404 1_565 S
C560 H558 0.949 . S
C560 C559 1.385 . S
H561 C559 0.950 . S
H562 C546 0.951 . S
H563 C548 0.951 . S
H564 C550 0.951 . S
H565 C551 0.950 . S
H566 C552 0.957 . S
H567 C553 0.950 . S
H568 C555 0.950 . S
H569 C556 0.951 . S
C570 C571 1.386 . S
C570 C572 1.383 . S
C570 H586 0.951 . S
C571 C570 1.386 . S
C571 C575 1.383 . S
C572 C570 1.383 . S
C572 C573 1.402 . S
C572 H587 0.951 . S
C573 C572 1.402 . S
C573 C574 1.375 . S
C573 C576 1.481 . S
C574 C573 1.375 . S
C574 C575 1.367 . S
C574 H588 0.951 . S
C575 C571 1.383 . S
C575 C574 1.367 . S
C575 H589 0.950 . S
C576 C573 1.481 . S
C576 C577 1.297 . S
C576 H590 0.950 . S
C577 C576 1.297 . S
C577 C578 1.479 1_556 S
C577 H591 0.950 . S
C578 C577 1.479 1_554 S
C578 C579 1.375 . S
C578 C584 1.404 . S
C579 C578 1.375 . S
C579 C580 1.369 . S
C579 H592 0.950 . S
C580 C579 1.369 . S
C580 C581 1.392 . S
C580 H593 0.951 . S
C581 C580 1.392 . S
C581 C583 1.384 . S
H582 C584 0.949 . S
C583 C581 1.384 . S
C583 C584 1.385 . S
C583 H585 0.950 . S
C584 C578 1.404 . S
C584 H582 0.949 . S
C584 C583 1.385 . S
H585 C583 0.950 . S
H586 C570 0.951 . S
H587 C572 0.951 . S
H588 C574 0.951 . S
H589 C575 0.950 . S
H590 C576 0.950 . S
H591 C577 0.950 . S
H592 C579 0.950 . S
H593 C580 0.951 . S
C594 C595 1.386 . S
C594 C596 1.383 . S
C594 H610 0.951 . S
C595 C594 1.386 . S
C595 C599 1.383 1_455 S
C596 C594 1.383 . S
C596 C597 1.402 1_455 S
C596 H611 0.951 . S
C597 C596 1.402 1_655 S
C597 C598 1.375 . S
C597 C600 1.481 . S
C598 C597 1.375 . S
C598 C599 1.367 . S
C598 H612 0.951 . S
C599 C595 1.383 1_655 S
C599 C598 1.367 . S
C599 H613 0.950 . S
C600 C597 1.481 . S
C600 C601 1.297 1_655 S
C600 H614 0.950 . S
C601 C600 1.297 1_455 S
C601 C602 1.476 1_455 S
C601 H615 0.950 . S
C602 C601 1.476 1_655 S
C602 C603 1.359 1_655 S
C602 C608 1.421 . S
C603 C602 1.359 1_455 S
C603 C604 1.369 . S
C603 H616 0.950 . S
C604 C603 1.369 . S
C604 C605 1.392 1_455 S
C604 H617 0.951 . S
C605 C604 1.392 1_655 S
C605 C607 1.384 . S
H606 C608 0.949 . S
C607 C605 1.384 . S
C607 C608 1.385 . S
C607 H609 0.950 . S
C608 C602 1.421 . S
C608 H606 0.949 . S
C608 C607 1.385 . S
H609 C607 0.950 . S
H610 C594 0.951 . S
H611 C596 0.951 . S
H612 C598 0.951 . S
H613 C599 0.950 . S
H614 C600 0.950 . S
H615 C601 0.950 . S
H616 C603 0.950 . S
H617 C604 0.951 . S
C187 C7 0.648 . S
C197 C180 0.574 . S
C211 C51 2.056 . S
C221 C158 1.698 . S
C235 C87 1.014 . S
C245 C172 1.005 . S
C259 C16 0.369 . S
C269 C183 0.408 . S
C293 C161 1.753 . S
C283 C42 1.833 . S
C317 C169 1.294 . S
C307 C96 1.393 . S
C331 C47 1.368 . S
C341 C136 1.039 . S
C355 C91 3.276 . S
C365 C147 2.920 . S
C379 C2 2.116 . S
C389 C125 1.876 . S
C413 C139 1.059 . S
C403 C56 1.045 . S
C437 C150 2.796 . S
C427 C82 2.844 . S
C451 C11 1.760 . S
C461 C128 1.662 . S
C485 C149 1.580 . S
C475 C19 1.664 . S
C499 C50 1.431 . S
C509 C127 1.425 . S
C523 C99 1.533 . S
C533 C138 1.501 . S
C557 C171 1.486 . S
C547 C59 1.446 . S
C581 C182 1.273 . S
C571 C90 1.275 . S
C595 C10 1.446 . S
C605 C160 1.342 . S
