# Generated by pormake.
# Topology anh, (6,3)-cn, num edge types: 1
# Building blocks:
#     Node 0, Type 0, BuildingBlock: MIFKUJ_clean_sbu_0, # of connection points: 6
#     Node 1, Type 0, BuildingBlock: MIFKUJ_clean_sbu_0, # of connection points: 6
#     Node 2, Type 0, BuildingBlock: MIFKUJ_clean_sbu_0, # of connection points: 6
#     Node 3, Type 1, BuildingBlock: WUSLED_clean_sbu_0, # of connection points: 3
#     Node 4, Type 1, BuildingBlock: WUSLED_clean_sbu_0, # of connection points: 3
#     Node 5, Type 1, BuildingBlock: WUSLED_clean_sbu_0, # of connection points: 3
#     Node 6, Type 1, BuildingBlock: WUSLED_clean_sbu_0, # of connection points: 3
#     Node 7, Type 1, BuildingBlock: WUSLED_clean_sbu_0, # of connection points: 3
#     Node 8, Type 1, BuildingBlock: WUSLED_clean_sbu_0, # of connection points: 3
#     Edge 9, Type (0, 1), BuildingBlock: MIFKUJ_clean_linker_0, # of connection points: 2
#     Edge 10, Type (0, 1), BuildingBlock: MIFKUJ_clean_linker_0, # of connection points: 2
#     Edge 11, Type (0, 1), BuildingBlock: MIFKUJ_clean_linker_0, # of connection points: 2
#     Edge 12, Type (0, 1), BuildingBlock: MIFKUJ_clean_linker_0, # of connection points: 2
#     Edge 13, Type (0, 1), BuildingBlock: MIFKUJ_clean_linker_0, # of connection points: 2
#     Edge 14, Type (0, 1), BuildingBlock: MIFKUJ_clean_linker_0, # of connection points: 2
#     Edge 15, Type (0, 1), BuildingBlock: MIFKUJ_clean_linker_0, # of connection points: 2
#     Edge 16, Type (0, 1), BuildingBlock: MIFKUJ_clean_linker_0, # of connection points: 2
#     Edge 17, Type (0, 1), BuildingBlock: MIFKUJ_clean_linker_0, # of connection points: 2
#     Edge 18, Type (0, 1), BuildingBlock: MIFKUJ_clean_linker_0, # of connection points: 2
#     Edge 19, Type (0, 1), BuildingBlock: MIFKUJ_clean_linker_0, # of connection points: 2
#     Edge 20, Type (0, 1), BuildingBlock: MIFKUJ_clean_linker_0, # of connection points: 2
#     Edge 21, Type (0, 1), BuildingBlock: MIFKUJ_clean_linker_0, # of connection points: 2
#     Edge 22, Type (0, 1), BuildingBlock: MIFKUJ_clean_linker_0, # of connection points: 2
#     Edge 23, Type (0, 1), BuildingBlock: MIFKUJ_clean_linker_0, # of connection points: 2
#     Edge 24, Type (0, 1), BuildingBlock: MIFKUJ_clean_linker_0, # of connection points: 2
#     Edge 25, Type (0, 1), BuildingBlock: MIFKUJ_clean_linker_0, # of connection points: 2
#     Edge 26, Type (0, 1), BuildingBlock: MIFKUJ_clean_linker_0, # of connection points: 2
# Relax obj value: 0.128
# Max RMSD: 0.179
# Mean RMSD: 0.135
data_MOF--net-anh--node1-MIFKUJ_clean_sbu_0--node2-WUSLED_clean_sbu_0--edge1-MIFKUJ_clean_linker_0
_symmetry_space_group_name_H-M    P1
_symmetry_Int_Tables_number       1
_symmetry_cell_setting            triclinic
loop_
_symmetry_equiv_pos_as_xyz
'x, y, z'
_cell_length_a     48.439371
_cell_length_b     48.390731
_cell_length_c     83.992447
_cell_angle_alpha  93.495525
_cell_angle_beta   90.917127
_cell_angle_gamma 119.84643
loop_
_atom_site_label
_atom_site_type_symbol
_atom_site_fract_x
_atom_site_fract_y
_atom_site_fract_z
_atom_type_partial_charge
Zn0 Zn 0.04895 0.54415 0.16551 0.0
Zn1 Zn 0.95917 0.48204 0.16267 0.0
C2 C 0.10166 0.53393 0.1702 0.0
O3 O 0.10168 0.54682 0.18443 0.0
C4 C 0.92208 0.50548 0.14786 0.0
O5 O 0.92134 0.48596 0.13606 0.0
O6 O 0.07743 0.59146 0.1705 0.0
O7 O 0.0212 0.53767 0.14572 0.0
O8 O 0.98686 0.4858 0.14437 0.0
C9 C 0.09289 0.60929 0.15962 0.0
O10 O 0.08831 0.59682 0.14481 0.0
O11 O 0.07993 0.5288 0.15977 0.0
C12 C 0.89799 0.43355 0.16935 0.0
O13 O 0.90037 0.45829 0.17799 0.0
O14 O 0.92139 0.43716 0.16126 0.0
O15 O 0.97861 0.48874 0.18476 0.0
O16 O 0.02968 0.52651 0.18628 0.0
O17 O 0.93927 0.51007 0.16045 0.0
C18 C 1.00109 0.51192 0.13775 0.0
C19 C 0.0048 0.5063 0.19274 0.0
Zn20 Zn 0.5801 0.06863 0.50268 0.0
Zn21 Zn 0.5272 0.96689 0.49787 0.0
C22 C 0.63991 0.12236 0.51286 0.0
O23 O 0.62169 0.12476 0.52364 0.0
C24 C 0.46852 0.91503 0.50684 0.0
O25 O 0.4883 0.91358 0.51719 0.0
O26 O 0.5624 0.09859 0.5031 0.0
O27 O 0.56511 0.04173 0.48186 0.0
O28 O 0.53743 0.98894 0.47739 0.0
C29 C 0.57297 0.12002 0.4932 0.0
O30 O 0.59245 0.11978 0.48256 0.0
O31 O 0.62778 0.09824 0.50267 0.0
C32 C 0.56147 0.93446 0.50804 0.0
O33 O 0.57022 0.95427 0.52093 0.0
O34 O 0.54478 0.93673 0.49691 0.0
O35 O 0.54132 0.99356 0.51899 0.0
O36 O 0.56943 0.04651 0.52304 0.0
O37 O 0.47947 0.93737 0.49744 0.0
C38 C 0.55161 0.01669 0.47233 0.0
C39 C 0.55491 0.01896 0.52831 0.0
Zn40 Zn 0.5627 0.52111 0.83112 0.0
Zn41 Zn 0.50042 0.55015 0.83243 0.0
C42 C 0.54437 0.45636 0.83494 0.0
O43 O 0.55571 0.46942 0.84946 0.0
C44 C 0.50704 0.60505 0.81897 0.0
O45 O 0.48177 0.582 0.81087 0.0
O46 O 0.60973 0.53641 0.83236 0.0
O47 O 0.55455 0.54446 0.81419 0.0
O48 O 0.50283 0.52629 0.81237 0.0
C49 C 0.6229 0.53261 0.82009 0.0
O50 O 0.60588 0.52058 0.80654 0.0
O51 O 0.54288 0.47368 0.82452 0.0
C52 C 0.44999 0.55475 0.84567 0.0
O53 O 0.47496 0.57797 0.85388 0.0
O54 O 0.45423 0.53725 0.83522 0.0
O55 O 0.51567 0.54355 0.85356 0.0
O56 O 0.55114 0.52721 0.85341 0.0
O57 O 0.52174 0.59757 0.82899 0.0
C58 C 0.52832 0.53126 0.80593 0.0
C59 C 0.53345 0.5355 0.86085 0.0
C60 C 0.55468 0.08352 0.19558 0.0
C61 C 0.57127 0.11056 0.20642 0.0
C62 C 0.60898 0.13857 0.18641 0.0
C63 C 0.598 0.13785 0.20185 0.0
C64 C 0.59267 0.1113 0.17563 0.0
C65 C 0.56558 0.08399 0.18017 0.0
U66 U 0.51211 0.03353 0.22897 0.0
O67 O 0.46216 0.01118 0.23559 0.0
O68 O 0.48456 0.98173 0.23108 0.0
C69 C 0.45831 0.98226 0.23426 0.0
C70 C 0.52672 0.05472 0.20062 0.0
C71 C 0.4286 0.95732 0.22582 0.0
C72 C 0.39966 0.91818 0.20347 0.0
C73 C 0.42814 0.94366 0.2105 0.0
C74 C 0.37182 0.92062 0.22675 0.0
C75 C 0.37129 0.90604 0.21167 0.0
C76 C 0.40019 0.94593 0.23375 0.0
C77 C 0.55217 0.06106 0.2705 0.0
C78 C 0.52317 0.03945 0.29416 0.0
C79 C 0.58093 0.0698 0.29593 0.0
C80 C 0.58098 0.07408 0.27962 0.0
C81 C 0.55201 0.05255 0.30338 0.0
C82 C 0.52325 0.04352 0.27783 0.0
C83 C 0.5525 0.06533 0.25333 0.0
O84 O 0.53267 0.03301 0.2058 0.0
O85 O 0.50794 0.06026 0.20977 0.0
O86 O 0.53161 0.07276 0.24791 0.0
O87 O 0.554 0.04326 0.2441 0.0
H88 H 0.56363 0.11055 0.21847 0.0
H89 H 0.61042 0.15827 0.2105 0.0
H90 H 0.60065 0.11126 0.16366 0.0
H91 H 0.55323 0.06324 0.1717 0.0
H92 H 0.40008 0.90736 0.19187 0.0
H93 H 0.44983 0.95218 0.20413 0.0
H94 H 0.3503 0.91228 0.23325 0.0
H95 H 0.40005 0.95627 0.24555 0.0
H96 H 0.50055 0.02571 0.29954 0.0
H97 H 0.60349 0.08037 0.30277 0.0
H98 H 0.6035 0.08757 0.27411 0.0
H99 H 0.50075 0.03294 0.27093 0.0
C100 C 0.57306 0.59082 0.52995 0.0
C101 C 0.57182 0.61135 0.54208 0.0
C102 C 0.57663 0.64864 0.52266 0.0
C103 C 0.57355 0.63992 0.53848 0.0
C104 C 0.57776 0.62789 0.5105 0.0
C105 C 0.57602 0.59919 0.51414 0.0
U106 U 0.56638 0.53785 0.56193 0.0
O107 O 0.53784 0.48598 0.56369 0.0
O108 O 0.59008 0.51023 0.56671 0.0
C109 C 0.56306 0.48293 0.56602 0.0
C110 C 0.5712 0.56085 0.53403 0.0
C111 C 0.56266 0.45564 0.55717 0.0
C112 C 0.56168 0.42606 0.53252 0.0
C113 C 0.5629 0.45304 0.54045 0.0
C114 C 0.5602 0.40448 0.55799 0.0
C115 C 0.56003 0.40134 0.54123 0.0
C116 C 0.56148 0.43133 0.56585 0.0
C117 C 0.56152 0.56586 0.60434 0.0
C118 C 0.56151 0.53595 0.62652 0.0
C119 C 0.55159 0.58015 0.63094 0.0
C120 C 0.55493 0.58533 0.61472 0.0
C121 C 0.55483 0.55538 0.63704 0.0
C122 C 0.56475 0.5411 0.6103 0.0
C123 C 0.56433 0.57107 0.58728 0.0
O124 O 0.59593 0.56456 0.54261 0.0
O125 O 0.54381 0.54 0.53946 0.0
O126 O 0.53899 0.55123 0.57813 0.0
O127 O 0.5911 0.5756 0.58137 0.0
H128 H 0.5694 0.60519 0.55437 0.0
H129 H 0.57202 0.65499 0.5481 0.0
H130 H 0.58037 0.63401 0.49821 0.0
H131 H 0.57706 0.5836 0.50464 0.0
H132 H 0.56144 0.42426 0.5196 0.0
H133 H 0.56378 0.47168 0.53358 0.0
H134 H 0.55959 0.38623 0.56508 0.0
H135 H 0.56142 0.43306 0.57878 0.0
H136 H 0.56452 0.51693 0.63084 0.0
H137 H 0.54595 0.59523 0.63866 0.0
H138 H 0.55214 0.6044 0.61027 0.0
H139 H 0.56976 0.52578 0.60239 0.0
C140 C 0.97055 0.53174 0.85843 0.0
C141 C 0.94201 0.51588 0.86629 0.0
C142 C 0.91648 0.53505 0.84829 0.0
C143 C 0.91523 0.51733 0.86121 0.0
C144 C 0.94496 0.5504 0.84023 0.0
C145 C 0.97179 0.54877 0.84529 0.0
U146 U 0.01643 0.52963 0.89413 0.0
O147 O 0.04395 0.50565 0.89835 0.0
O148 O 0.06711 0.55796 0.90221 0.0
C149 C 0.07063 0.5327 0.90193 0.0
C150 C 0.99952 0.53268 0.86482 0.0
C151 C 0.09924 0.53583 0.89454 0.0
C152 C 0.12653 0.52891 0.87191 0.0
C153 C 0.09912 0.52704 0.87828 0.0
C154 C 0.15433 0.54883 0.89792 0.0
C155 C 0.15443 0.53974 0.8817 0.0
C156 C 0.12703 0.54689 0.90424 0.0
C157 C 0.97799 0.52215 0.93408 0.0
C158 C 0.00701 0.53388 0.95973 0.0
C159 C 0.94925 0.50609 0.95831 0.0
C160 C 0.94919 0.50754 0.94174 0.0
C161 C 0.97817 0.51943 0.96749 0.0
C162 C 0.00692 0.53509 0.94314 0.0
C163 C 0.97747 0.5239 0.91668 0.0
O164 O 0.01817 0.5582 0.87435 0.0
O165 O 0.99516 0.50601 0.87036 0.0
O166 O 0.97555 0.49928 0.90814 0.0
O167 O 0.99831 0.55151 0.91159 0.0
H168 H 0.94057 0.50284 0.87657 0.0
H169 H 0.89358 0.50475 0.86751 0.0
H170 H 0.94686 0.56452 0.83036 0.0
H171 H 0.99372 0.56147 0.8392 0.0
H172 H 0.12593 0.52199 0.85934 0.0
H173 H 0.07783 0.51849 0.87059 0.0
H174 H 0.17517 0.55674 0.90586 0.0
H175 H 0.12748 0.55361 0.91684 0.0
H176 H 0.02963 0.54396 0.96646 0.0
H177 H 0.92668 0.49501 0.96398 0.0
H178 H 0.92666 0.4974 0.93491 0.0
H179 H 0.02942 0.54623 0.9374 0.0
C180 C 0.98549 0.46013 0.47171 0.0
C181 C 0.96394 0.43738 0.45995 0.0
C182 C 0.93182 0.40387 0.48046 0.0
C183 C 0.93738 0.40954 0.46427 0.0
C184 C 0.9535 0.42685 0.49222 0.0
C185 C 0.98015 0.45475 0.48786 0.0
U186 U 0.03159 0.50954 0.43871 0.0
O187 O 0.05539 0.56117 0.43584 0.0
O188 O 0.08283 0.53618 0.43461 0.0
C189 C 0.08351 0.56366 0.43441 0.0
C190 C 0.01336 0.48934 0.467 0.0
C191 C 0.11042 0.59119 0.44337 0.0
C192 C 0.14214 0.61879 0.4679 0.0
C193 C 0.11575 0.5922 0.45991 0.0
C194 C 0.15772 0.64337 0.44285 0.0
C195 C 0.16343 0.64472 0.45943 0.0
C196 C 0.13149 0.61691 0.43494 0.0
C197 C 0.99828 0.47697 0.39612 0.0
C198 C 0.0285 0.50072 0.37308 0.0
C199 C 0.97253 0.46058 0.36952 0.0
C200 C 0.97109 0.45817 0.38602 0.0
C201 C 1.00129 0.48181 0.36283 0.0
C202 C 0.02698 0.49839 0.38959 0.0
C203 C 0.99631 0.47419 0.41343 0.0
O204 O 0.03419 0.48462 0.45923 0.0
O205 O 0.0067 0.50945 0.46041 0.0
O206 O 0.99115 0.49518 0.42148 0.0
O207 O 0.01838 0.47006 0.42035 0.0
H208 H 0.96763 0.44123 0.4474 0.0
H209 H 0.92095 0.39265 0.45492 0.0
H210 H 0.95008 0.4231 0.50478 0.0
H211 H 0.99659 0.47207 0.49709 0.0
H212 H 0.14572 0.61917 0.48069 0.0
H213 H 0.09963 0.57249 0.4666 0.0
H214 H 0.17388 0.66253 0.43589 0.0
H215 H 0.12779 0.61643 0.42214 0.0
H216 H 0.0511 0.51704 0.36833 0.0
H217 H 0.951 0.44606 0.36204 0.0
H218 H 0.94869 0.44168 0.3909 0.0
H219 H 0.04821 0.51319 0.39725 0.0
C220 C 0.54956 0.97792 0.80688 0.0
C221 C 0.57558 0.9737 0.80326 0.0
C222 C 0.54793 0.91984 0.81217 0.0
C223 C 0.57479 0.94505 0.80592 0.0
C224 C 0.52234 0.92442 0.81623 0.0
C225 C 0.52322 0.95318 0.81369 0.0
U226 U 0.54692 0.02812 0.77492 0.0
O227 O 0.52012 0.05323 0.77162 0.0
O228 O 0.57252 0.07994 0.77219 0.0
C229 C 0.54608 0.08124 0.77118 0.0
C230 C 0.54869 0.00688 0.80265 0.0
C231 C 0.54648 0.10932 0.77945 0.0
C232 C 0.52367 0.13344 0.79724 0.0
C233 C 0.52534 0.10655 0.79134 0.0
C234 C 0.56479 0.16617 0.77979 0.0
C235 C 0.5429 0.16342 0.79125 0.0
C236 C 0.56652 0.13944 0.77397 0.0
C237 C 0.54585 0.99621 0.73204 0.0
C238 C 0.54626 0.02466 0.70914 0.0
C239 C 0.54446 0.97372 0.70524 0.0
C240 C 0.54477 0.97178 0.72176 0.0
C241 C 0.54524 1.00019 0.69872 0.0
C242 C 0.54654 0.02266 0.72568 0.0
C243 C 0.54644 0.99381 0.74935 0.0
O244 O 0.57424 0.02896 0.7963 0.0
O245 O 0.522 1.00148 0.79538 0.0
O246 O 0.52046 0.98889 0.75633 0.0
O247 O 0.57272 0.01549 0.75731 0.0
H248 H 0.59629 0.99216 0.79797 0.0
H249 H 0.59478 0.94223 0.80252 0.0
H250 H 0.50148 0.90562 0.82127 0.0
H251 H 0.50291 0.95578 0.81668 0.0
H252 H 0.50648 0.1305 0.80602 0.0
H253 H 0.50949 0.08355 0.79573 0.0
H254 H 0.58035 0.18897 0.77513 0.0
H255 H 0.58292 0.14215 0.76476 0.0
H256 H 0.54652 0.04517 0.70449 0.0
H257 H 0.54411 0.9547 0.69757 0.0
H258 H 0.54433 0.95125 0.72651 0.0
H259 H 0.5473 0.04171 0.7335 0.0
C260 C 0.57756 0.52387 0.13794 0.0
C261 C 0.58554 0.50501 0.12777 0.0
C262 C 0.63789 0.52807 0.14157 0.0
C263 C 0.61517 0.50692 0.12964 0.0
C264 C 0.6297 0.54667 0.15187 0.0
C265 C 0.59984 0.54455 0.15007 0.0
U266 U 0.51954 0.52603 0.10869 0.0
O267 O 0.46732 0.49764 0.10467 0.0
O268 O 0.49098 0.54994 0.10903 0.0
C269 C 0.46381 0.52289 0.10654 0.0
C270 C 0.54708 0.52357 0.13522 0.0
C271 C 0.43598 0.51934 0.11522 0.0
C272 C 0.41109 0.54068 0.13335 0.0
C273 C 0.43856 0.54199 0.12735 0.0
C274 C 0.37818 0.49358 0.11558 0.0
C275 C 0.38057 0.51692 0.12721 0.0
C276 C 0.40553 0.49482 0.10965 0.0
C277 C 0.54509 0.533 0.06538 0.0
C278 C 0.51098 0.51668 0.04111 0.0
C279 C 0.5678 0.55288 0.04017 0.0
C280 C 0.57151 0.55174 0.05659 0.0
C281 C 0.53755 0.53512 0.03222 0.0
C282 C 0.51469 0.51576 0.05759 0.0
C283 C 0.55008 0.53124 0.08252 0.0
O284 O 0.54984 0.55032 0.13067 0.0
O285 O 0.5243 0.49798 0.12707 0.0
O286 O 0.53121 0.50373 0.08833 0.0
O287 O 0.55459 0.55603 0.0919 0.0
H288 H 0.56904 0.489 0.1182 0.0
H289 H 0.62022 0.49173 0.12168 0.0
H290 H 0.64664 0.56348 0.16109 0.0
H291 H 0.59439 0.55955 0.15796 0.0
H292 H 0.41377 0.55911 0.14226 0.0
H293 H 0.46171 0.56135 0.1318 0.0
H294 H 0.35508 0.47465 0.11078 0.0
H295 H 0.40284 0.47722 0.10022 0.0
H296 H 0.48736 0.50302 0.03532 0.0
H297 H 0.58875 0.567 0.03361 0.0
H298 H 0.59515 0.56518 0.06241 0.0
H299 H 0.49391 0.50132 0.06419 0.0
H300 H 0.14849 0.53793 0.19039 0.0
H301 H 0.19459 0.53279 0.18352 0.0
H302 H 0.16197 0.51299 0.13386 0.0
H303 H 0.11529 0.51743 0.1407 0.0
H304 H 0.18472 0.47527 0.14172 0.0
H305 H 0.22173 0.58769 0.14873 0.0
H306 H 0.22984 0.63749 0.16297 0.0
H307 H 0.28333 0.62658 0.20089 0.0
H308 H 0.27515 0.57646 0.18697 0.0
H309 H 0.32993 0.50746 0.10814 0.0
H310 H 0.28206 0.50829 0.11597 0.0
H311 H 0.317 0.5285 0.16528 0.0
H312 H 0.36533 0.528 0.15745 0.0
H313 H 0.29287 0.56521 0.15808 0.0
H314 H 0.25668 0.45292 0.15031 0.0
H315 H 0.24856 0.40354 0.1356 0.0
H316 H 0.19361 0.41471 0.09854 0.0
H317 H 0.20176 0.46441 0.11293 0.0
C318 C 0.15095 0.53227 0.178 0.0
C319 C 0.12826 0.5283 0.16608 0.0
C320 C 0.17746 0.52949 0.17408 0.0
C321 C 0.18215 0.52312 0.15812 0.0
C322 C 0.15898 0.51806 0.14625 0.0
C323 C 0.13229 0.52063 0.15018 0.0
C324 C 0.2115 0.52233 0.15381 0.0
C325 C 0.20837 0.4951 0.14514 0.0
C326 C 0.24242 0.5479 0.15854 0.0
C327 C 0.24757 0.57816 0.16688 0.0
C328 C 0.23503 0.59579 0.16016 0.0
C329 C 0.23967 0.62409 0.16816 0.0
C330 C 0.25702 0.63515 0.18284 0.0
C331 C 0.26985 0.61797 0.18953 0.0
C332 C 0.26525 0.58963 0.18158 0.0
C333 C 0.32731 0.51171 0.12068 0.0
C334 C 0.35135 0.51732 0.13219 0.0
C335 C 0.29987 0.51218 0.12515 0.0
C336 C 0.29555 0.51789 0.14126 0.0
C337 C 0.31969 0.52393 0.15278 0.0
C338 C 0.34733 0.52367 0.14829 0.0
C339 C 0.26613 0.51813 0.146 0.0
C340 C 0.26924 0.5453 0.15473 0.0
C341 C 0.23519 0.49255 0.14126 0.0
C342 C 0.23007 0.46254 0.13264 0.0
C343 C 0.24305 0.44496 0.13897 0.0
C344 C 0.23841 0.4169 0.1307 0.0
C345 C 0.22064 0.40603 0.11613 0.0
C346 C 0.20739 0.42317 0.10982 0.0
C347 C 0.21198 0.45127 0.11804 0.0
H348 H 0.21709 0.3843 0.10974 0.0
H349 H 0.26058 0.65706 0.18902 0.0
H350 H 0.68386 0.12659 0.49148 0.0
H351 H 0.73535 0.17359 0.48732 0.0
H352 H 0.72084 0.2266 0.52624 0.0
H353 H 0.66939 0.17995 0.53041 0.0
H354 H 0.73814 0.25941 0.49988 0.0
H355 H 0.77497 0.20203 0.53031 0.0
H356 H 0.77987 0.15552 0.53666 0.0
H357 H 0.82121 0.15662 0.4917 0.0
H358 H 0.81615 0.20289 0.48498 0.0
H359 H 0.89199 0.39747 0.50458 0.0
H360 H 0.84426 0.34888 0.5113 0.0
H361 H 0.85897 0.29476 0.47302 0.0
H362 H 0.90725 0.34301 0.46656 0.0
H363 H 0.84184 0.26219 0.49921 0.0
H364 H 0.80437 0.31911 0.46882 0.0
H365 H 0.79834 0.3648 0.46213 0.0
H366 H 0.75712 0.364 0.5071 0.0
H367 H 0.76337 0.31861 0.51417 0.0
C368 C 0.69182 0.14812 0.49929 0.0
C369 C 0.6725 0.14947 0.51129 0.0
C370 C 0.72129 0.17495 0.49692 0.0
C371 C 0.73201 0.20359 0.50652 0.0
C372 C 0.71304 0.20478 0.51869 0.0
C373 C 0.68367 0.17799 0.5211 0.0
C374 C 0.76221 0.23281 0.50339 0.0
C375 C 0.76093 0.26023 0.50007 0.0
C376 C 0.79174 0.2335 0.50305 0.0
C377 C 0.79489 0.20573 0.50708 0.0
C378 C 0.78486 0.19219 0.52172 0.0
C379 C 0.78772 0.1659 0.5254 0.0
C380 C 0.80077 0.15307 0.51457 0.0
C381 C 0.81107 0.16656 0.50006 0.0
C382 C 0.80824 0.19283 0.49632 0.0
C383 C 0.8853 0.37516 0.49771 0.0
C384 C 0.90336 0.37419 0.48496 0.0
C385 C 0.85783 0.34745 0.50148 0.0
C386 C 0.84777 0.31824 0.49252 0.0
C387 C 0.86618 0.31704 0.48005 0.0
C388 C 0.89362 0.34472 0.47628 0.0
C389 C 0.81784 0.289 0.49598 0.0
C390 C 0.81911 0.26151 0.49923 0.0
C391 C 0.78824 0.28822 0.49629 0.0
C392 C 0.78473 0.31571 0.49211 0.0
C393 C 0.79433 0.32889 0.47735 0.0
C394 C 0.79082 0.3547 0.47348 0.0
C395 C 0.77747 0.36738 0.48421 0.0
C396 C 0.76756 0.35423 0.49883 0.0
C397 C 0.77108 0.32846 0.50277 0.0
H398 H 0.77472 0.38733 0.48118 0.0
H399 H 0.80296 0.13272 0.51744 0.0
H400 H 0.47175 0.62658 0.80426 0.0
H401 H 0.48334 0.68138 0.80323 0.0
H402 H 0.57332 0.7153 0.82929 0.0
H403 H 0.56114 0.65988 0.83094 0.0
H404 H 0.54668 0.74686 0.84064 0.0
H405 H 0.56756 0.72317 0.78794 0.0
H406 H 0.55741 0.69214 0.76198 0.0
H407 H 0.47517 0.70127 0.75219 0.0
H408 H 0.48455 0.73198 0.77819 0.0
H409 H 0.59447 0.90837 0.82355 0.0
H410 H 0.59184 0.8566 0.82472 0.0
H411 H 0.49473 0.80867 0.80533 0.0
H412 H 0.49731 0.86024 0.80393 0.0
H413 H 0.53142 0.78702 0.79019 0.0
H414 H 0.51033 0.80826 0.8444 0.0
H415 H 0.52252 0.84013 0.87024 0.0
H416 H 0.60917 0.83725 0.87657 0.0
H417 H 0.59769 0.80571 0.85065 0.0
C418 C 0.49419 0.64563 0.80967 0.0
C419 C 0.51564 0.6388 0.81759 0.0
C420 C 0.50088 0.6771 0.80899 0.0
C421 C 0.52954 0.70271 0.81589 0.0
C422 C 0.55111 0.69602 0.8238 0.0
C423 C 0.5442 0.66435 0.82469 0.0
C424 C 0.53614 0.7362 0.81523 0.0
C425 C 0.54395 0.75581 0.82954 0.0
C426 C 0.53226 0.74797 0.80081 0.0
C427 C 0.52665 0.72971 0.78508 0.0
C428 C 0.5472 0.7184 0.7803 0.0
C429 C 0.54159 0.70088 0.76557 0.0
C430 C 0.51563 0.69469 0.75546 0.0
C431 C 0.49526 0.70607 0.76004 0.0
C432 C 0.50074 0.72358 0.77476 0.0
C433 C 0.57256 0.88679 0.81954 0.0
C434 C 0.54606 0.88844 0.81369 0.0
C435 C 0.57104 0.85722 0.8203 0.0
C436 C 0.54303 0.82874 0.81518 0.0
C437 C 0.51657 0.83033 0.80936 0.0
C438 C 0.51799 0.85982 0.8087 0.0
C439 C 0.54129 0.79722 0.81559 0.0
C440 C 0.53446 0.77808 0.80123 0.0
C441 C 0.5465 0.78609 0.82991 0.0
C442 C 0.55332 0.80494 0.84551 0.0
C443 C 0.53211 0.81466 0.85124 0.0
C444 C 0.53887 0.83261 0.86591 0.0
C445 C 0.56665 0.8408 0.87502 0.0
C446 C 0.58769 0.83095 0.86949 0.0
C447 C 0.58106 0.81301 0.85482 0.0
H448 H 0.57184 0.8547 0.88638 0.0
H449 H 0.51132 0.6811 0.74406 0.0
H450 H 0.88721 0.50577 0.12207 0.0
H451 H 0.84311 0.51675 0.12212 0.0
H452 H 0.85908 0.54079 0.17299 0.0
H453 H 0.90331 0.52986 0.17304 0.0
H454 H 0.7967 0.49683 0.16437 0.0
H455 H 0.87597 0.59833 0.14793 0.0
H456 H 0.91877 0.6346 0.13138 0.0
H457 H 0.85478 0.59601 0.08972 0.0
H458 H 0.8117 0.55915 0.10598 0.0
H459 H 0.67458 0.53702 0.16891 0.0
H460 H 0.72651 0.54026 0.171 0.0
H461 H 0.72537 0.52726 0.11968 0.0
H462 H 0.67448 0.52588 0.11744 0.0
H463 H 0.78267 0.56942 0.13017 0.0
H464 H 0.70584 0.46507 0.1447 0.0
H465 H 0.66225 0.42579 0.15987 0.0
H466 H 0.72049 0.46594 0.20338 0.0
H467 H 0.76431 0.50576 0.18848 0.0
C468 C 0.88173 0.51396 0.13323 0.0
C469 C 0.89878 0.51691 0.14755 0.0
C470 C 0.85653 0.52029 0.13324 0.0
C471 C 0.84778 0.52965 0.14756 0.0
C472 C 0.86541 0.53361 0.1618 0.0
C473 C 0.89083 0.52755 0.16178 0.0
C474 C 0.81888 0.53304 0.1478 0.0
C475 C 0.79387 0.51318 0.15714 0.0
C476 C 0.81478 0.55361 0.13797 0.0
C477 C 0.84065 0.57582 0.12817 0.0
C478 C 0.87108 0.5974 0.13522 0.0
C479 C 0.89539 0.6181 0.12589 0.0
C480 C 0.88949 0.61761 0.10951 0.0
C481 C 0.8593 0.59638 0.10242 0.0
C482 C 0.83492 0.57561 0.11169 0.0
C483 C 0.68555 0.53532 0.15804 0.0
C484 C 0.67 0.53083 0.143 0.0
C485 C 0.71516 0.53682 0.15927 0.0
C486 C 0.72973 0.53342 0.14551 0.0
C487 C 0.71465 0.52977 0.13049 0.0
C488 C 0.68524 0.52857 0.12925 0.0
C489 C 0.7603 0.53301 0.14667 0.0
C490 C 0.7856 0.55334 0.13756 0.0
C491 C 0.76453 0.51249 0.15652 0.0
C492 C 0.73821 0.48862 0.16551 0.0
C493 C 0.70925 0.46569 0.15752 0.0
C494 C 0.68452 0.4433 0.16606 0.0
C495 C 0.68856 0.44344 0.18258 0.0
C496 C 0.71737 0.46591 0.19059 0.0
C497 C 0.74217 0.48838 0.1821 0.0
H498 H 0.66939 0.42607 0.18918 0.0
H499 H 0.9083 0.63373 0.10232 0.0
H500 H 0.44015 0.86028 0.52237 0.0
H501 H 0.38623 0.81484 0.51743 0.0
H502 H 0.36665 0.86478 0.48214 0.0
H503 H 0.42066 0.91049 0.487 0.0
H504 H 0.31573 0.83217 0.50186 0.0
H505 H 0.38715 0.81143 0.47027 0.0
H506 H 0.43445 0.8057 0.46636 0.0
H507 H 0.39956 0.73032 0.49805 0.0
H508 H 0.35223 0.73595 0.50234 0.0
H509 H 0.18761 0.70782 0.45438 0.0
H510 H 0.23718 0.75346 0.46567 0.0
H511 H 0.25318 0.69166 0.49467 0.0
H512 H 0.2041 0.64548 0.48285 0.0
H513 H 0.30553 0.72926 0.48078 0.0
H514 H 0.23253 0.74603 0.51114 0.0
H515 H 0.18545 0.75157 0.51616 0.0
H516 H 0.22268 0.83332 0.48854 0.0
H517 H 0.26981 0.82801 0.48315 0.0
C518 C 0.42431 0.86182 0.51368 0.0
C519 C 0.43482 0.88897 0.50499 0.0
C520 C 0.39351 0.83575 0.51085 0.0
C521 C 0.37259 0.83629 0.49929 0.0
C522 C 0.38247 0.86387 0.49109 0.0
C523 C 0.41337 0.88993 0.49385 0.0
C524 C 0.341 0.80753 0.49517 0.0
C525 C 0.31342 0.80971 0.49711 0.0
C526 C 0.33805 0.77799 0.48947 0.0
C527 C 0.36633 0.77436 0.48676 0.0
C528 C 0.38968 0.79381 0.4765 0.0
C529 C 0.41648 0.79055 0.4742 0.0
C530 C 0.42006 0.76773 0.48199 0.0
C531 C 0.39678 0.74803 0.49205 0.0
C532 C 0.36996 0.75123 0.49441 0.0
C533 C 0.20164 0.70387 0.46316 0.0
C534 C 0.19194 0.6729 0.46761 0.0
C535 C 0.22985 0.73011 0.46976 0.0
C536 C 0.24886 0.72613 0.48116 0.0
C537 C 0.23889 0.69536 0.48593 0.0
C538 C 0.21067 0.66901 0.47926 0.0
C539 C 0.28 0.75383 0.48728 0.0
C540 C 0.30762 0.75152 0.48569 0.0
C541 C 0.28293 0.78315 0.49345 0.0
C542 C 0.2546 0.78645 0.49663 0.0
C543 C 0.23057 0.76504 0.50602 0.0
C544 C 0.20389 0.76817 0.50896 0.0
C545 C 0.20104 0.79274 0.50264 0.0
C546 C 0.22491 0.81428 0.49341 0.0
C547 C 0.25163 0.81125 0.49043 0.0
H548 H 0.18037 0.79513 0.50493 0.0
H549 H 0.44083 0.76526 0.48021 0.0
H550 H 0.53655 0.4111 0.85502 0.0
H551 H 0.53154 0.35901 0.84812 0.0
H552 H 0.53289 0.37494 0.79809 0.0
H553 H 0.53709 0.42691 0.80492 0.0
H554 H 0.49146 0.31393 0.80251 0.0
H555 H 0.59981 0.38903 0.82013 0.0
H556 H 0.64288 0.4293 0.83883 0.0
H557 H 0.61664 0.36041 0.87374 0.0
H558 H 0.57292 0.31996 0.85543 0.0
H559 H 0.54132 0.2067 0.77238 0.0
H560 H 0.53724 0.25377 0.78052 0.0
H561 H 0.53186 0.23088 0.82961 0.0
H562 H 0.53657 0.18384 0.82154 0.0
H563 H 0.57352 0.29393 0.82656 0.0
H564 H 0.46596 0.21857 0.80887 0.0
H565 H 0.42274 0.17826 0.7903 0.0
H566 H 0.44796 0.24726 0.75549 0.0
H567 H 0.49165 0.28789 0.77376 0.0
C568 C 0.5354 0.4034 0.84253 0.0
C569 C 0.53747 0.42329 0.83053 0.0
C570 C 0.53269 0.37362 0.8386 0.0
C571 C 0.53256 0.36329 0.8226 0.0
C572 C 0.53311 0.38244 0.81053 0.0
C573 C 0.5355 0.41216 0.81445 0.0
C574 C 0.53313 0.33317 0.81851 0.0
C575 C 0.50962 0.30973 0.80764 0.0
C576 C 0.55638 0.32727 0.82548 0.0
C577 C 0.58288 0.35154 0.83645 0.0
C578 C 0.60308 0.38254 0.83184 0.0
C579 C 0.62762 0.40538 0.84236 0.0
C580 C 0.63249 0.39741 0.85745 0.0
C581 C 0.61283 0.36657 0.86205 0.0
C582 C 0.58814 0.34368 0.85162 0.0
C583 C 0.53944 0.21172 0.78493 0.0
C584 C 0.53945 0.19156 0.79633 0.0
C585 C 0.53678 0.23851 0.78955 0.0
C586 C 0.53394 0.24575 0.80567 0.0
C587 C 0.53392 0.22571 0.8171 0.0
C588 C 0.53642 0.19874 0.81247 0.0
C589 C 0.53193 0.27478 0.81054 0.0
C590 C 0.55525 0.29806 0.82152 0.0
C591 C 0.50856 0.28055 0.80366 0.0
C592 C 0.48227 0.2562 0.79264 0.0
C593 C 0.46246 0.22508 0.7972 0.0
C594 C 0.43785 0.20219 0.78674 0.0
C595 C 0.43266 0.21017 0.77171 0.0
C596 C 0.45203 0.2411 0.76713 0.0
C597 C 0.4767 0.26408 0.77754 0.0
H598 H 0.41358 0.19241 0.76363 0.0
H599 H 0.65152 0.41513 0.86556 0.0
H600 H 0.59698 0.92254 0.52932 0.0
H601 H 0.60289 0.87519 0.52915 0.0
H602 H 0.54563 0.83753 0.48496 0.0
H603 H 0.53946 0.88466 0.48505 0.0
H604 H 0.52532 0.79389 0.50703 0.0
H605 H 0.62466 0.86471 0.48522 0.0
H606 H 0.67611 0.91444 0.48408 0.0
H607 H 0.70825 0.89855 0.52873 0.0
H608 H 0.6568 0.84892 0.53025 0.0
H609 H 0.54764 0.65955 0.49738 0.0
H610 H 0.54827 0.70916 0.49237 0.0
H611 H 0.60913 0.7559 0.5349 0.0
H612 H 0.60958 0.70686 0.53965 0.0
H613 H 0.62805 0.7949 0.51157 0.0
H614 H 0.52839 0.72643 0.53435 0.0
H615 H 0.47644 0.67771 0.53641 0.0
H616 H 0.44431 0.69021 0.49088 0.0
H617 H 0.49631 0.7387 0.48841 0.0
C618 C 0.58596 0.90438 0.51946 0.0
C619 C 0.56772 0.90739 0.50721 0.0
C620 C 0.58946 0.87737 0.51935 0.0
C621 C 0.57483 0.8529 0.507 0.0
C622 C 0.55714 0.85613 0.4946 0.0
C623 C 0.55374 0.88317 0.49466 0.0
C624 C 0.57642 0.82311 0.5075 0.0
C625 C 0.54777 0.79401 0.50771 0.0
C626 C 0.60573 0.82343 0.50881 0.0
C627 C 0.63675 0.85322 0.50791 0.0
C628 C 0.6426 0.87194 0.49486 0.0
C629 C 0.67178 0.90009 0.49413 0.0
C630 C 0.69541 0.90969 0.50634 0.0
C631 C 0.68992 0.8911 0.51929 0.0
C632 C 0.66076 0.86294 0.52008 0.0
C633 C 0.56156 0.68053 0.50552 0.0
C634 C 0.57833 0.67914 0.519 0.0
C635 C 0.56165 0.70879 0.50273 0.0
C636 C 0.57834 0.73613 0.5134 0.0
C637 C 0.59594 0.73509 0.52655 0.0
C638 C 0.59593 0.70692 0.52932 0.0
C639 C 0.57691 0.76564 0.51118 0.0
C640 C 0.60558 0.79471 0.5107 0.0
C641 C 0.54758 0.76534 0.50971 0.0
C642 C 0.51643 0.73595 0.51109 0.0
C643 C 0.51039 0.71859 0.52469 0.0
C644 C 0.48091 0.69104 0.52594 0.0
C645 C 0.45714 0.68079 0.51375 0.0
C646 C 0.46278 0.69811 0.50029 0.0
C647 C 0.49227 0.72561 0.49895 0.0
H648 H 0.43431 0.6595 0.51476 0.0
H649 H 0.71799 0.93149 0.50575 0.0
H650 H 0.66086 0.53469 0.79588 0.0
H651 H 0.71392 0.54045 0.79825 0.0
H652 H 0.71203 0.54826 0.84963 0.0
H653 H 0.65958 0.54363 0.84734 0.0
H654 H 0.76908 0.58904 0.84074 0.0
H655 H 0.69281 0.47681 0.82654 0.0
H656 H 0.65085 0.43197 0.80918 0.0
H657 H 0.71387 0.4569 0.77058 0.0
H658 H 0.75598 0.50233 0.78756 0.0
H659 H 0.87651 0.54321 0.86815 0.0
H660 H 0.82974 0.54703 0.86091 0.0
H661 H 0.84674 0.53979 0.81098 0.0
H662 H 0.89303 0.53445 0.81814 0.0
H663 H 0.78533 0.5029 0.81588 0.0
H664 H 0.86294 0.61163 0.83015 0.0
H665 H 0.90547 0.65722 0.84682 0.0
H666 H 0.84122 0.63993 0.88448 0.0
H667 H 0.7984 0.59394 0.86812 0.0
C668 C 0.6719 0.53793 0.80768 0.0
C669 C 0.65595 0.53854 0.82143 0.0
C670 C 0.70216 0.54106 0.80901 0.0
C671 C 0.71675 0.54419 0.82412 0.0
C672 C 0.70126 0.54581 0.83784 0.0
C673 C 0.67122 0.54311 0.83652 0.0
C674 C 0.74771 0.54491 0.8258 0.0
C675 C 0.77253 0.57007 0.8354 0.0
C676 C 0.75268 0.52075 0.81838 0.0
C677 C 0.72743 0.49317 0.80827 0.0
C678 C 0.69764 0.47285 0.81432 0.0
C679 C 0.67385 0.44733 0.80456 0.0
C680 C 0.67969 0.44161 0.78881 0.0
C681 C 0.70936 0.46138 0.78278 0.0
C682 C 0.73319 0.48704 0.79246 0.0
C683 C 0.87021 0.5421 0.85561 0.0
C684 C 0.88849 0.53834 0.84373 0.0
C685 C 0.84365 0.54474 0.85149 0.0
C686 C 0.83497 0.5442 0.8354 0.0
C687 C 0.85311 0.54045 0.82347 0.0
C688 C 0.87969 0.53765 0.82759 0.0
C689 C 0.80636 0.54658 0.83117 0.0
C690 C 0.78202 0.52206 0.82108 0.0
C691 C 0.80186 0.5714 0.83808 0.0
C692 C 0.8275 0.59918 0.84793 0.0
C693 C 0.85793 0.61741 0.84202 0.0
C694 C 0.88208 0.64335 0.85141 0.0
C695 C 0.87606 0.65143 0.86671 0.0
C696 C 0.84585 0.63363 0.87263 0.0
C697 C 0.82161 0.60765 0.86329 0.0
H698 H 0.8948 0.67151 0.87396 0.0
H699 H 0.66123 0.42183 0.78129 0.0
H700 H 0.11734 0.63827 0.1894 0.0
H701 H 0.16225 0.69174 0.19626 0.0
H702 H 0.17058 0.70983 0.14639 0.0
H703 H 0.12613 0.65576 0.13938 0.0
H704 H 0.22677 0.72822 0.1595 0.0
H705 H 0.14167 0.74627 0.17344 0.0
H706 H 0.09227 0.736 0.18618 0.0
H707 H 0.13755 0.7483 0.23248 0.0
H708 H 0.18711 0.75822 0.22002 0.0
H709 H 0.34649 0.89168 0.18065 0.0
H710 H 0.29718 0.84424 0.16988 0.0
H711 H 0.27962 0.8086 0.21666 0.0
H712 H 0.32873 0.85556 0.22743 0.0
H713 H 0.22636 0.80295 0.20251 0.0
H714 H 0.30924 0.77916 0.18796 0.0
H715 H 0.35848 0.78928 0.17508 0.0
H716 H 0.31659 0.78838 0.12947 0.0
H717 H 0.26722 0.77864 0.14213 0.0
C718 C 0.12843 0.65373 0.17989 0.0
C719 C 0.11813 0.64277 0.16384 0.0
C720 C 0.15407 0.68441 0.18384 0.0
C721 C 0.16958 0.70505 0.17187 0.0
C722 C 0.15896 0.69437 0.15584 0.0
C723 C 0.1335 0.6635 0.15185 0.0
C724 C 0.19796 0.73702 0.17608 0.0
C725 C 0.22647 0.74484 0.16868 0.0
C726 C 0.19779 0.75857 0.18822 0.0
C727 C 0.16806 0.75279 0.19578 0.0
C728 C 0.14104 0.74658 0.18634 0.0
C729 C 0.11302 0.74085 0.19351 0.0
C730 C 0.11176 0.74144 0.21013 0.0
C731 C 0.13856 0.74784 0.21961 0.0
C732 C 0.16664 0.75357 0.2125 0.0
C733 C 0.3322 0.87361 0.1886 0.0
C734 C 0.34147 0.87747 0.20491 0.0
C735 C 0.30402 0.84658 0.18244 0.0
C736 C 0.28478 0.82285 0.19247 0.0
C737 C 0.29396 0.82673 0.20873 0.0
C738 C 0.32202 0.85365 0.21488 0.0
C739 C 0.25513 0.79372 0.18615 0.0
C740 C 0.22643 0.78648 0.19317 0.0
C741 C 0.25508 0.77279 0.17362 0.0
C742 C 0.2847 0.77855 0.16601 0.0
C743 C 0.31063 0.78138 0.17521 0.0
C744 C 0.33854 0.78699 0.16794 0.0
C745 C 0.3407 0.78957 0.15147 0.0
C746 C 0.31491 0.78644 0.14222 0.0
C747 C 0.28696 0.78085 0.14944 0.0
H748 H 0.36232 0.79392 0.14587 0.0
H749 H 0.09004 0.73698 0.21566 0.0
H750 H 0.59913 0.1736 0.47677 0.0
H751 H 0.59423 0.22121 0.48172 0.0
H752 H 0.52932 0.17626 0.5187 0.0
H753 H 0.53402 0.12841 0.51384 0.0
H754 H 0.51066 0.20977 0.4996 0.0
H755 H 0.60504 0.22669 0.52876 0.0
H756 H 0.65723 0.22977 0.53197 0.0
H757 H 0.69651 0.30329 0.49928 0.0
H758 H 0.64441 0.30033 0.4957 0.0
H759 H 0.52214 0.33942 0.54809 0.0
H760 H 0.52214 0.29203 0.53647 0.0
H761 H 0.59285 0.34947 0.50406 0.0
H762 H 0.59374 0.39742 0.51607 0.0
H763 H 0.60896 0.31086 0.5179 0.0
H764 H 0.51558 0.2974 0.49059 0.0
H765 H 0.4635 0.29463 0.48776 0.0
H766 H 0.42225 0.21497 0.51679 0.0
H767 H 0.4742 0.21753 0.51999 0.0
C768 C 0.58348 0.17362 0.48583 0.0
C769 C 0.56712 0.14727 0.49499 0.0
C770 C 0.58081 0.20092 0.48867 0.0
C771 C 0.56173 0.20238 0.5007 0.0
C772 C 0.54422 0.1756 0.50938 0.0
C773 C 0.547 0.14832 0.5066 0.0
C774 C 0.56124 0.23235 0.5048 0.0
C775 C 0.53207 0.23185 0.50372 0.0
C776 C 0.58939 0.26131 0.50974 0.0
C777 C 0.62072 0.26304 0.51183 0.0
C778 C 0.62472 0.2433 0.52213 0.0
C779 C 0.6543 0.24507 0.52405 0.0
C780 C 0.68016 0.2667 0.51583 0.0
C781 C 0.67647 0.28656 0.50565 0.0
C782 C 0.64692 0.28485 0.50367 0.0
C783 C 0.53771 0.34202 0.53849 0.0
C784 C 0.55811 0.37225 0.53308 0.0
C785 C 0.53742 0.31482 0.53172 0.0
C786 C 0.55726 0.3171 0.51927 0.0
C787 C 0.57726 0.34714 0.51362 0.0
C788 C 0.57757 0.37446 0.5204 0.0
C789 C 0.55826 0.28832 0.51288 0.0
C790 C 0.58756 0.28897 0.51357 0.0
C791 C 0.53022 0.25952 0.50756 0.0
C792 C 0.49888 0.25782 0.50563 0.0
C793 C 0.49547 0.27944 0.49647 0.0
C794 C 0.46595 0.27788 0.49478 0.0
C795 C 0.4396 0.25468 0.50211 0.0
C796 C 0.44269 0.23294 0.51112 0.0
C797 C 0.47216 0.2344 0.51286 0.0
H798 H 0.41677 0.25351 0.50079 0.0
H799 H 0.70307 0.26819 0.51743 0.0
H800 H 0.43547 0.59359 0.86401 0.0
H801 H 0.38319 0.58742 0.8682 0.0
H802 H 0.33927 0.50005 0.83744 0.0
H803 H 0.39203 0.50653 0.83282 0.0
H804 H 0.31252 0.53599 0.83164 0.0
H805 H 0.33628 0.49769 0.87789 0.0
H806 H 0.36908 0.49913 0.90099 0.0
H807 H 0.37109 0.58345 0.92178 0.0
H808 H 0.33868 0.58281 0.89866 0.0
H809 H 0.15805 0.49546 0.86111 0.0
H810 H 0.20626 0.49521 0.85289 0.0
H811 H 0.26437 0.58581 0.87993 0.0
H812 H 0.2165 0.58647 0.88799 0.0
H813 H 0.28071 0.54148 0.88708 0.0
H814 H 0.25932 0.58091 0.83965 0.0
H815 H 0.22678 0.57906 0.8163 0.0
H816 H 0.21928 0.49072 0.79784 0.0
H817 H 0.25144 0.49182 0.82122 0.0
C818 C 0.41476 0.57297 0.85814 0.0
C819 C 0.41791 0.55038 0.84819 0.0
C820 C 0.38481 0.56943 0.86059 0.0
C821 C 0.35722 0.54297 0.85337 0.0
C822 C 0.36023 0.52058 0.84319 0.0
C823 C 0.39036 0.52424 0.84062 0.0
C824 C 0.32542 0.53897 0.85661 0.0
C825 C 0.30527 0.5366 0.84375 0.0
C826 C 0.3161 0.5401 0.87242 0.0
C827 C 0.33522 0.54031 0.88648 0.0
C828 C 0.34386 0.51665 0.88734 0.0
C829 C 0.36239 0.51732 0.90045 0.0
C830 C 0.37223 0.54141 0.91284 0.0
C831 C 0.36347 0.56482 0.91217 0.0
C832 C 0.34498 0.56429 0.89907 0.0
C833 C 0.18111 0.51562 0.86504 0.0
C834 C 0.18342 0.54086 0.87532 0.0
C835 C 0.20862 0.51539 0.86037 0.0
C836 C 0.23889 0.54045 0.86585 0.0
C837 C 0.24124 0.56611 0.87568 0.0
C838 C 0.21384 0.56639 0.88031 0.0
C839 C 0.2682 0.53936 0.86214 0.0
C840 C 0.28782 0.54059 0.87496 0.0
C841 C 0.27682 0.53695 0.84631 0.0
C842 C 0.25746 0.53625 0.83228 0.0
C843 C 0.25048 0.56093 0.83069 0.0
C844 C 0.23216 0.56005 0.81743 0.0
C845 C 0.22088 0.53473 0.80562 0.0
C846 C 0.22798 0.51028 0.80702 0.0
C847 C 0.24627 0.51103 0.82026 0.0
H848 H 0.20672 0.5341 0.79536 0.0
H849 H 0.38661 0.54195 0.92297 0.0
H850 H 0.84022 0.42219 0.17897 0.0
H851 H 0.79158 0.37083 0.17982 0.0
H852 H 0.83989 0.32256 0.16067 0.0
H853 H 0.88866 0.37433 0.15926 0.0
H854 H 0.7806 0.29571 0.14758 0.0
H855 H 0.82772 0.32721 0.20125 0.0
H856 H 0.85047 0.36335 0.22579 0.0
H857 H 0.76275 0.36392 0.23114 0.0
H858 H 0.73965 0.32824 0.20652 0.0
H859 H 0.66073 0.14294 0.1715 0.0
H860 H 0.71017 0.1918 0.16656 0.0
H861 H 0.67098 0.24871 0.18608 0.0
H862 H 0.62193 0.20009 0.19125 0.0
H863 H 0.72795 0.26934 0.19904 0.0
H864 H 0.68132 0.24094 0.14541 0.0
H865 H 0.65743 0.20579 0.12067 0.0
H866 H 0.74242 0.20001 0.11509 0.0
H867 H 0.76667 0.23481 0.13992 0.0
C868 C 0.84055 0.40068 0.1749 0.0
C869 C 0.86838 0.40226 0.16921 0.0
C870 C 0.81271 0.37129 0.17545 0.0
C871 C 0.81226 0.34276 0.17067 0.0
C872 C 0.83975 0.34427 0.16452 0.0
C873 C 0.8676 0.37382 0.16375 0.0
C874 C 0.7832 0.31148 0.17239 0.0
C875 C 0.76933 0.2897 0.15889 0.0
C876 C 0.76813 0.30389 0.18707 0.0
C877 C 0.78202 0.32519 0.20197 0.0
C878 C 0.81335 0.3352 0.20761 0.0
C879 C 0.8263 0.3556 0.22154 0.0
C880 C 0.80806 0.36593 0.23 0.0
C881 C 0.77684 0.35589 0.22457 0.0
C882 C 0.76381 0.33557 0.21064 0.0
C883 C 0.66256 0.1659 0.17449 0.0
C884 C 0.63761 0.16777 0.18185 0.0
C885 C 0.69078 0.1938 0.17165 0.0
C886 C 0.69429 0.22397 0.17592 0.0
C887 C 0.66893 0.22573 0.18278 0.0
C888 C 0.64092 0.19796 0.18574 0.0
C889 C 0.72492 0.25381 0.17417 0.0
C890 C 0.73924 0.27525 0.18773 0.0
C891 C 0.7402 0.2611 0.15954 0.0
C892 C 0.72567 0.24019 0.14462 0.0
C893 C 0.69481 0.23195 0.13898 0.0
C894 C 0.68123 0.21214 0.12493 0.0
C895 C 0.69836 0.2006 0.11634 0.0
C896 C 0.72916 0.20892 0.12176 0.0
C897 C 0.74284 0.22871 0.13582 0.0
H898 H 0.68781 0.18527 0.10546 0.0
H899 H 0.81802 0.38165 0.24079 0.0
H900 H 0.02934 0.56279 0.11939 0.0
H901 H 0.02172 0.5628 0.09061 0.0
H902 H 0.9533 0.4619 0.08785 0.0
H903 H 0.96108 0.46151 0.11665 0.0
H904 H 0.99506 0.47577 0.06493 0.0
H905 H 0.92878 0.51595 0.08451 0.0
H906 H 0.91575 0.5511 0.10129 0.0
H907 H 0.98745 0.63303 0.07973 0.0
H908 H 1.00121 0.59843 0.06295 0.0
H909 H 0.94105 0.46865 0.98468 0.0
H910 H 0.94179 0.46674 0.01374 0.0
H911 H 0.01625 0.56559 0.01911 0.0
H912 H 0.0154 0.56776 0.99005 0.0
H913 H 0.96817 0.55096 0.04065 0.0
H914 H 0.03572 0.51006 0.02217 0.0
H915 H 0.04864 0.47443 0.00574 0.0
H916 H 0.97289 0.39268 0.02557 0.0
H917 H 0.95923 0.42783 0.04196 0.0
C918 C 0.01258 0.54058 0.1127 0.0
C919 C 0.99587 0.51212 0.12034 0.0
C920 C 0.00813 0.54068 0.09624 0.0
C921 C 0.9867 0.51241 0.08711 0.0
C922 C 0.96993 0.48398 0.09469 0.0
C923 C 0.97439 0.48383 0.11115 0.0
C924 C 0.98263 0.5124 0.06957 0.0
C925 C 0.98863 0.49182 0.05963 0.0
C926 C 0.97479 0.53375 0.06267 0.0
C927 C 0.96622 0.5546 0.07256 0.0
C928 C 0.94191 0.54148 0.08341 0.0
C929 C 0.93437 0.5613 0.09292 0.0
C930 C 0.95084 0.59427 0.09162 0.0
C931 C 0.97474 0.60748 0.08074 0.0
C932 C 0.98239 0.58777 0.07121 0.0
C933 C 0.95738 0.49004 0.99206 0.0
C934 C 0.97826 0.51832 0.9851 0.0
C935 C 0.95788 0.48887 0.00864 0.0
C936 C 0.9792 0.51598 0.01855 0.0
C937 C 0.99963 0.54442 0.01166 0.0
C938 C 0.99931 0.54554 0.99508 0.0
C939 C 0.98077 0.51446 0.03608 0.0
C940 C 0.97434 0.53476 0.046 0.0
C941 C 0.988 0.4927 0.04298 0.0
C942 C 0.99623 0.47155 0.03316 0.0
C943 C 0.02164 0.48447 0.02292 0.0
C944 C 0.02913 0.46436 0.01364 0.0
C945 C 0.01153 0.4313 0.01458 0.0
C946 C 0.98646 0.41829 0.02484 0.0
C947 C 0.97884 0.43829 0.03413 0.0
H948 H 0.01738 0.41578 0.00739 0.0
H949 H 0.9451 0.6096 0.09904 0.0
H950 H 0.57499 0.07186 0.45718 0.0
H951 H 0.57469 0.07745 0.42853 0.0
H952 H 0.5299 0.97513 0.41926 0.0
H953 H 0.52946 0.96921 0.44795 0.0
H954 H 0.60189 0.06357 0.40495 0.0
H955 H 0.48005 0.95159 0.38602 0.0
H956 H 0.42796 0.91804 0.39732 0.0
H957 H 0.4428 0.99735 0.4294 0.0
H958 H 0.49476 0.03147 0.41815 0.0
H959 H 0.58895 0.03569 0.32058 0.0
H960 H 0.58879 0.02909 0.34924 0.0
H961 H 0.5149 0.05374 0.35396 0.0
H962 H 0.51464 0.05985 0.32528 0.0
H963 H 0.50199 0.00532 0.37072 0.0
H964 H 0.59385 0.10779 0.36529 0.0
H965 H 0.64496 0.14596 0.35452 0.0
H966 H 0.6883 0.09426 0.37215 0.0
H967 H 0.63731 0.05551 0.38284 0.0
C968 C 0.56504 0.05049 0.44908 0.0
C969 C 0.55208 0.02006 0.4549 0.0
C970 C 0.56499 0.05376 0.43268 0.0
C971 C 0.55201 0.02671 0.42175 0.0
C972 C 0.53958 0.99631 0.42748 0.0
C973 C 0.53945 0.99299 0.4439 0.0
C974 C 0.55138 0.03041 0.40436 0.0
C975 C 0.58006 0.05077 0.39746 0.0
C976 C 0.52282 0.01416 0.39463 0.0
C977 C 0.49144 0.99395 0.40136 0.0
C978 C 0.47214 0.96188 0.39545 0.0
C979 C 0.44265 0.94277 0.40185 0.0
C980 C 0.43213 0.95552 0.41411 0.0
C981 C 0.45103 0.98746 0.41995 0.0
C982 C 0.48052 0.00668 0.41358 0.0
C983 C 0.5728 0.03984 0.32776 0.0
C984 C 0.55188 0.04839 0.32072 0.0
C985 C 0.57272 0.03607 0.34413 0.0
C986 C 0.55209 0.04129 0.35379 0.0
C987 C 0.53097 0.04951 0.34674 0.0
C988 C 0.53083 0.05299 0.33036 0.0
C989 C 0.55255 0.0383 0.37127 0.0
C990 C 0.52385 0.01801 0.37819 0.0
C991 C 0.58097 0.05525 0.38109 0.0
C992 C 0.61169 0.07858 0.37473 0.0
C993 C 0.61422 0.10443 0.36677 0.0
C994 C 0.64318 0.12619 0.36069 0.0
C995 C 0.66983 0.12249 0.36261 0.0
C996 C 0.66761 0.09707 0.37065 0.0
C997 C 0.6387 0.07522 0.37673 0.0
H998 H 0.69223 0.13936 0.3579 0.0
H999 H 0.4093 0.94068 0.41905 0.0
H1000 H 0.47747 0.50747 0.78416 0.0
H1001 H 0.47868 0.50545 0.75503 0.0
H1002 H 0.58081 0.54654 0.75868 0.0
H1003 H 0.57985 0.54835 0.78772 0.0
H1004 H 0.50706 0.55388 0.73655 0.0
H1005 H 0.60485 0.51967 0.72664 0.0
H1006 H 0.62509 0.48787 0.73907 0.0
H1007 H 0.5336 0.42901 0.75781 0.0
H1008 H 0.51267 0.46013 0.7453 0.0
H1009 H 0.57662 0.60001 0.66265 0.0
H1010 H 0.56881 0.59073 0.69091 0.0
H1011 H 0.51722 0.48893 0.6788 0.0
H1012 H 0.52448 0.49797 0.65045 0.0
H1013 H 0.55954 0.50541 0.70443 0.0
H1014 H 0.47687 0.52603 0.68799 0.0
H1015 H 0.45423 0.5559 0.6757 0.0
H1016 H 0.50954 0.63645 0.70949 0.0
H1017 H 0.53292 0.60725 0.72182 0.0
C1018 C 0.50017 0.51581 0.77877 0.0
C1019 C 0.52857 0.5281 0.78829 0.0
C1020 C 0.5008 0.51468 0.76212 0.0
C1021 C 0.52979 0.52562 0.75469 0.0
C1022 C 0.5581 0.53748 0.76415 0.0
C1023 C 0.5575 0.53858 0.78078 0.0
C1024 C 0.53071 0.52621 0.73708 0.0
C1025 C 0.5184 0.54315 0.72952 0.0
C1026 C 0.54516 0.51186 0.72789 0.0
C1027 C 0.55728 0.49243 0.73512 0.0
C1028 C 0.58899 0.49981 0.73332 0.0
C1029 C 0.6006 0.48193 0.74041 0.0
C1030 C 0.58067 0.45649 0.74926 0.0
C1031 C 0.54904 0.44878 0.75099 0.0
C1032 C 0.53731 0.46656 0.74392 0.0
C1033 C 0.56338 0.57564 0.66597 0.0
C1034 C 0.55099 0.54974 0.65427 0.0
C1035 C 0.55905 0.57038 0.68213 0.0
C1036 C 0.54217 0.53915 0.68692 0.0
C1037 C 0.53036 0.51322 0.67534 0.0
C1038 C 0.53462 0.51844 0.65915 0.0
C1039 C 0.53652 0.53368 0.70402 0.0
C1040 C 0.548 0.51591 0.71146 0.0
C1041 C 0.52094 0.54692 0.7131 0.0
C1042 C 0.50686 0.56454 0.70574 0.0
C1043 C 0.48441 0.55021 0.69272 0.0
C1044 C 0.47141 0.56701 0.68575 0.0
C1045 C 0.4805 0.59808 0.69179 0.0
C1046 C 0.50256 0.6124 0.70482 0.0
C1047 C 0.51567 0.59572 0.7118 0.0
H1048 H 0.4704 0.61104 0.68638 0.0
H1049 H 0.58972 0.44272 0.75477 0.0
H1050 H 0.5866 0.06697 0.55197 0.0
H1051 H 0.58446 0.06292 0.5808 0.0
H1052 H 0.51872 0.96159 0.57328 0.0
H1053 H 0.52061 0.96533 0.54436 0.0
H1054 H 0.49995 0.99153 0.59624 0.0
H1055 H 0.59381 0.98649 0.58415 0.0
H1056 H 0.646 0.00436 0.57265 0.0
H1057 H 0.68605 0.09275 0.60199 0.0
H1058 H 0.63394 0.0756 0.61352 0.0
H1059 H 0.50984 0.95243 0.67547 0.0
H1060 H 0.51125 0.95553 0.64654 0.0
H1061 H 0.58141 0.05583 0.65324 0.0
H1062 H 0.58089 0.05267 0.6822 0.0
H1063 H 0.5977 0.02586 0.63054 0.0
H1064 H 0.50415 0.03145 0.64254 0.0
H1065 H 0.45195 0.01419 0.65393 0.0
H1066 H 0.41131 0.92556 0.62475 0.0
H1067 H 0.46341 0.94211 0.61334 0.0
C1068 C 0.57167 0.04378 0.5564 0.0
C1069 C 0.5538 0.01646 0.54582 0.0
C1070 C 0.57058 0.04151 0.5729 0.0
C1071 C 0.55161 0.01192 0.57916 0.0
C1072 C 0.53352 0.98465 0.56867 0.0
C1073 C 0.53474 0.98684 0.55215 0.0
C1074 C 0.55056 0.00957 0.59667 0.0
C1075 C 0.52122 0.99859 0.60374 0.0
C1076 C 0.57847 0.01954 0.60644 0.0
C1077 C 0.60988 0.02988 0.59958 0.0
C1078 C 0.61367 0.00985 0.58806 0.0
C1079 C 0.64326 0.01983 0.58155 0.0
C1080 C 0.66931 0.04971 0.58655 0.0
C1081 C 0.66584 0.06964 0.59811 0.0
C1082 C 0.63629 0.05978 0.60465 0.0
C1083 C 0.52571 0.97511 0.67079 0.0
C1084 C 0.54526 0.00231 0.68115 0.0
C1085 C 0.52627 0.97692 0.65425 0.0
C1086 C 0.5462 0.00599 0.64773 0.0
C1087 C 0.56577 0.03317 0.65802 0.0
C1088 C 0.56524 0.0314 0.67457 0.0
C1089 C 0.54707 0.00789 0.63016 0.0
C1090 C 0.57639 0.01878 0.62307 0.0
C1091 C 0.51914 0.9979 0.62038 0.0
C1092 C 0.48777 0.98789 0.6272 0.0
C1093 C 0.48415 0.00816 0.63865 0.0
C1094 C 0.45457 0.99853 0.64509 0.0
C1095 C 0.42835 0.96876 0.6401 0.0
C1096 C 0.43165 0.94859 0.62862 0.0
C1097 C 0.46119 0.9581 0.62215 0.0
H1098 H 0.40546 0.96135 0.64509 0.0
H1099 H 0.6922 0.05739 0.5815 0.0
H1100 H 0.56336 0.51413 0.88044 0.0
H1101 H 0.56191 0.51274 0.90942 0.0
H1102 H 0.50211 0.55545 0.91031 0.0
H1103 H 0.50284 0.55633 0.88127 0.0
H1104 H 0.58215 0.5578 0.93266 0.0
H1105 H 0.45103 0.5269 0.94136 0.0
H1106 H 0.39846 0.49733 0.92687 0.0
H1107 H 0.42909 0.44069 0.89939 0.0
H1108 H 0.48152 0.46919 0.91406 0.0
H1109 H 0.56422 0.58634 0.01407 0.0
H1110 H 0.56161 0.5857 0.98494 0.0
H1111 H 0.50103 0.48317 0.98152 0.0
H1112 H 0.50325 0.48373 0.01067 0.0
H1113 H 0.48076 0.50802 0.96039 0.0
H1114 H 0.58093 0.51777 0.9756 0.0
H1115 H 0.63306 0.54118 0.99037 0.0
H1116 H 0.66391 0.63009 0.96946 0.0
H1117 H 0.61176 0.60734 0.95473 0.0
C1118 C 0.54986 0.52323 0.88677 0.0
C1119 C 0.53314 0.53526 0.87849 0.0
C1120 C 0.54912 0.52247 0.90336 0.0
C1121 C 0.53166 0.5337 0.91203 0.0
C1122 C 0.5153 0.54615 0.90385 0.0
C1123 C 0.51587 0.54676 0.88724 0.0
C1124 C 0.53089 0.53266 0.92966 0.0
C1125 C 0.55995 0.54695 0.93871 0.0
C1126 C 0.50194 0.51798 0.93755 0.0
C1127 C 0.47041 0.50055 0.92867 0.0
C1128 C 0.44654 0.50809 0.93225 0.0
C1129 C 0.41675 0.4915 0.92401 0.0
C1130 C 0.41052 0.46735 0.91211 0.0
C1131 C 0.434 0.45954 0.90854 0.0
C1132 C 0.46377 0.47589 0.91683 0.0
C1133 C 0.5503 0.56368 0.0071 0.0
C1134 C 0.53411 0.53506 0.01464 0.0
C1135 C 0.54883 0.56334 0.99046 0.0
C1136 C 0.53155 0.53432 0.98104 0.0
C1137 C 0.51452 0.50583 0.98855 0.0
C1138 C 0.51576 0.50619 0.0052 0.0
C1139 C 0.53198 0.53358 0.96335 0.0
C1140 C 0.5029 0.51898 0.95431 0.0
C1141 C 0.56088 0.54722 0.95541 0.0
C1142 C 0.59233 0.56094 0.96418 0.0
C1143 C 0.59875 0.54238 0.97424 0.0
C1144 C 0.62831 0.55552 0.98259 0.0
C1145 C 0.65176 0.58712 0.98088 0.0
C1146 C 0.64571 0.60563 0.97078 0.0
C1147 C 0.61616 0.59262 0.96242 0.0
H1148 H 0.67463 0.59725 0.98736 0.0
H1149 H 0.38745 0.45459 0.90572 0.0
H1150 H 0.96934 0.45337 0.2087 0.0
H1151 H 0.97061 0.44856 0.23743 0.0
H1152 H 0.04329 0.54803 0.24477 0.0
H1153 H 0.04349 0.55233 0.21589 0.0
H1154 H 0.05665 0.51687 0.26386 0.0
H1155 H 0.95944 0.51749 0.25112 0.0
H1156 H 0.90776 0.49874 0.23657 0.0
H1157 H 0.87217 0.4055 0.25343 0.0
H1158 H 0.92367 0.42359 0.26789 0.0
H1159 H 0.03342 0.53573 0.34667 0.0
H1160 H 0.03558 0.53941 0.31777 0.0
H1161 H 0.97435 0.43726 0.31026 0.0
H1162 H 0.97255 0.43323 0.33912 0.0
H1163 H 0.95524 0.46977 0.29158 0.0
H1164 H 0.05235 0.46999 0.30469 0.0
H1165 H 0.10401 0.48895 0.31925 0.0
H1166 H 0.13968 0.58182 0.30196 0.0
H1167 H 0.08805 0.56353 0.28746 0.0
C1168 C 0.98566 0.47417 0.21645 0.0
C1169 C 0.00615 0.50329 0.21009 0.0
C1170 C 0.98623 0.47147 0.2329 0.0
C1171 C 0.00643 0.49816 0.24338 0.0
C1172 C 0.02737 0.52712 0.23698 0.0
C1173 C 0.02743 0.52959 0.22048 0.0
C1174 C 0.00564 0.49597 0.26099 0.0
C1175 C 0.03448 0.507 0.26992 0.0
C1176 C 0.9767 0.48248 0.26895 0.0
C1177 C 0.94549 0.47183 0.26049 0.0
C1178 C 0.9406 0.49296 0.25167 0.0
C1179 C 0.91133 0.48244 0.24343 0.0
C1180 C 0.88669 0.45092 0.24403 0.0
C1181 C 0.89122 0.4299 0.25294 0.0
C1182 C 0.92044 0.44028 0.26118 0.0
C1183 C 0.02074 0.51398 0.33889 0.0
C1184 C 0.00282 0.48417 0.34525 0.0
C1185 C 0.02193 0.51615 0.32237 0.0
C1186 C 0.00529 0.48857 0.31188 0.0
C1187 C 0.98729 0.45883 0.31815 0.0
C1188 C 0.98618 0.45661 0.33466 0.0
C1189 C 0.00618 0.49076 0.29435 0.0
C1190 C 0.97736 0.47974 0.28547 0.0
C1191 C 0.03512 0.50447 0.28647 0.0
C1192 C 0.06623 0.51547 0.29512 0.0
C1193 C 0.07112 0.49453 0.30409 0.0
C1194 C 0.10042 0.50514 0.31232 0.0
C1195 C 0.12509 0.53659 0.31157 0.0
C1196 C 0.12054 0.55747 0.30255 0.0
C1197 C 0.09128 0.54699 0.29432 0.0
H1198 H 0.14775 0.54477 0.31794 0.0
H1199 H 0.86407 0.44281 0.23762 0.0
loop_
_geom_bond_atom_site_label_1
_geom_bond_atom_site_label_2
_geom_bond_distance
_geom_bond_site_symmetry_2
_ccdc_geom_bond_type
Zn0 O6 1.969 . S
Zn0 O7 1.965 . S
Zn0 O11 2.024 . S
Zn0 O16 1.969 . S
Zn1 O8 1.969 . S
Zn1 O14 1.969 . S
Zn1 O15 1.965 . S
Zn1 O17 2.024 . S
C2 O3 1.229 . S
C2 O11 1.058 . S
O3 C2 1.229 . S
C4 O5 1.229 . S
C4 O17 1.058 . S
O5 C4 1.229 . S
O6 Zn0 1.969 . S
O6 C9 1.267 . S
O7 Zn0 1.965 . S
O7 C18 1.260 1_455 S
O8 Zn1 1.969 . S
O8 C18 1.258 . S
C9 O6 1.267 . S
C9 O10 1.228 . S
O10 C9 1.228 . S
O11 Zn0 2.024 . S
O11 C2 1.058 . S
C12 O13 1.228 . S
C12 O14 1.267 . S
O13 C12 1.228 . S
O14 Zn1 1.969 . S
O14 C12 1.267 . S
O15 Zn1 1.965 . S
O15 C19 1.260 1_655 S
O16 Zn0 1.969 . S
O16 C19 1.258 . S
O17 Zn1 2.024 . S
O17 C4 1.058 . S
C18 O7 1.260 1_655 S
C18 O8 1.258 . S
C19 O15 1.260 1_455 S
C19 O16 1.258 . S
Zn20 O26 1.969 . S
Zn20 O27 1.965 . S
Zn20 O31 2.024 . S
Zn20 O36 1.969 . S
Zn21 O28 1.969 . S
Zn21 O34 1.969 . S
Zn21 O35 1.969 . S
Zn21 O37 2.024 . S
C22 O23 1.229 . S
C22 O31 1.058 . S
O23 C22 1.229 . S
C24 O25 1.229 . S
C24 O37 1.058 . S
O25 C24 1.229 . S
O26 Zn20 1.969 . S
O26 C29 1.267 . S
O27 Zn20 1.965 . S
O27 C38 1.260 . S
O28 Zn21 1.969 . S
O28 C38 1.258 1_565 S
C29 O26 1.267 . S
C29 O30 1.228 . S
O30 C29 1.228 . S
O31 Zn20 2.024 . S
O31 C22 1.058 . S
C32 O33 1.228 . S
C32 O34 1.267 . S
O33 C32 1.228 . S
O34 Zn21 1.969 . S
O34 C32 1.267 . S
O35 Zn21 1.969 . S
O35 C39 1.254 1_565 S
O36 Zn20 1.969 . S
O36 C39 1.258 . S
O37 Zn21 2.024 . S
O37 C24 1.058 . S
C38 O27 1.260 . S
C38 O28 1.258 1_545 S
C39 O35 1.254 1_545 S
C39 O36 1.258 . S
Zn40 O46 1.969 . S
Zn40 O47 1.965 . S
Zn40 O51 2.024 . S
Zn40 O56 1.969 . S
Zn41 O48 1.969 . S
Zn41 O54 1.969 . S
Zn41 O55 1.965 . S
Zn41 O57 2.024 . S
C42 O43 1.229 . S
C42 O51 1.058 . S
O43 C42 1.229 . S
C44 O45 1.229 . S
C44 O57 1.058 . S
O45 C44 1.229 . S
O46 Zn40 1.969 . S
O46 C49 1.267 . S
O47 Zn40 1.965 . S
O47 C58 1.260 . S
O48 Zn41 1.969 . S
O48 C58 1.258 . S
C49 O46 1.267 . S
C49 O50 1.228 . S
O50 C49 1.228 . S
O51 Zn40 2.024 . S
O51 C42 1.058 . S
C52 O53 1.228 . S
C52 O54 1.267 . S
O53 C52 1.228 . S
O54 Zn41 1.969 . S
O54 C52 1.267 . S
O55 Zn41 1.965 . S
O55 C59 1.260 . S
O56 Zn40 1.969 . S
O56 C59 1.258 . S
O57 Zn41 2.024 . S
O57 C44 1.058 . S
C58 O47 1.260 . S
C58 O48 1.258 . S
C59 O55 1.260 . S
C59 O56 1.258 . S
C60 C61 1.264 . S
C60 C65 1.479 . S
C60 C70 1.465 . S
C61 C60 1.264 . S
C61 C63 1.339 . S
C61 H88 0.931 . S
C62 C63 1.395 . S
C62 C64 1.320 . S
C63 C61 1.339 . S
C63 C62 1.395 . S
C63 H89 0.929 . S
C64 C62 1.320 . S
C64 C65 1.405 . S
C64 H90 0.930 . S
C65 C60 1.479 . S
C65 C64 1.405 . S
C65 H91 0.931 . S
U66 O67 2.454 . S
U66 O68 2.458 1_545 S
U66 C69 2.984 1_545 S
U66 C70 2.847 . S
U66 C83 2.882 . S
U66 O84 2.441 . S
U66 O85 2.420 . S
U66 O86 2.455 . S
U66 O87 2.449 . S
O67 U66 2.454 . S
O67 C69 1.353 1_545 S
O68 U66 2.458 1_565 S
O68 C69 1.286 . S
C69 U66 2.984 1_565 S
C69 O67 1.353 1_565 S
C69 O68 1.286 . S
C69 C71 1.363 . S
C70 C60 1.465 . S
C70 U66 2.847 . S
C70 O84 1.249 . S
C70 O85 1.202 . S
C71 C69 1.363 . S
C71 C73 1.408 . S
C71 C76 1.342 . S
C72 C73 1.310 . S
C72 C75 1.461 . S
C72 H92 0.932 . S
C73 C71 1.408 . S
C73 C72 1.310 . S
C73 H93 0.930 . S
C74 C75 1.474 . S
C74 C76 1.285 . S
C74 H94 0.929 . S
C75 C72 1.461 . S
C75 C74 1.474 . S
C76 C71 1.342 . S
C76 C74 1.285 . S
C76 H95 0.930 . S
C77 C80 1.424 . S
C77 C82 1.245 . S
C77 C83 1.428 . S
C78 C81 1.260 . S
C78 C82 1.477 . S
C78 H96 0.932 . S
C79 C80 1.384 . S
C79 C81 1.479 . S
C79 H97 0.929 . S
C80 C77 1.424 . S
C80 C79 1.384 . S
C80 H98 0.928 . S
C81 C78 1.260 . S
C81 C79 1.479 . S
C82 C77 1.245 . S
C82 C78 1.477 . S
C82 H99 0.932 1_545 S
C83 U66 2.882 . S
C83 C77 1.428 . S
C83 O86 1.301 . S
C83 O87 1.282 . S
O84 U66 2.441 . S
O84 C70 1.249 . S
O85 U66 2.420 . S
O85 C70 1.202 . S
O86 U66 2.455 . S
O86 C83 1.301 . S
O87 U66 2.449 . S
O87 C83 1.282 . S
H88 C61 0.931 . S
H89 C63 0.929 . S
H90 C64 0.930 . S
H91 C65 0.931 . S
H92 C72 0.932 . S
H93 C73 0.930 . S
H94 C74 0.929 . S
H95 C76 0.930 . S
H96 C78 0.932 . S
H97 C79 0.929 . S
H98 C80 0.928 . S
H99 C82 0.932 1_565 S
C100 C101 1.264 . S
C100 C105 1.479 . S
C100 C110 1.465 . S
C101 C100 1.264 . S
C101 C103 1.339 . S
C101 H128 0.931 . S
C102 C103 1.395 . S
C102 C104 1.320 . S
C103 C101 1.339 . S
C103 C102 1.395 . S
C103 H129 0.929 . S
C104 C102 1.320 . S
C104 C105 1.405 . S
C104 H130 0.930 . S
C105 C100 1.479 . S
C105 C104 1.405 . S
C105 H131 0.931 . S
U106 O107 2.454 . S
U106 O108 2.458 . S
U106 C109 2.984 . S
U106 C110 2.847 . S
U106 C123 2.882 . S
U106 O124 2.441 . S
U106 O125 2.420 . S
U106 O126 2.455 . S
U106 O127 2.449 . S
O107 U106 2.454 . S
O107 C109 1.353 . S
O108 U106 2.458 . S
O108 C109 1.286 . S
C109 U106 2.984 . S
C109 O107 1.353 . S
C109 O108 1.286 . S
C109 C111 1.363 . S
C110 C100 1.465 . S
C110 U106 2.847 . S
C110 O124 1.249 . S
C110 O125 1.202 . S
C111 C109 1.363 . S
C111 C113 1.408 . S
C111 C116 1.342 . S
C112 C113 1.310 . S
C112 C115 1.461 . S
C112 H132 0.932 . S
C113 C111 1.408 . S
C113 C112 1.310 . S
C113 H133 0.930 . S
C114 C115 1.474 . S
C114 C116 1.285 . S
C114 H134 0.929 . S
C115 C112 1.461 . S
C115 C114 1.474 . S
C116 C111 1.342 . S
C116 C114 1.285 . S
C116 H135 0.930 . S
C117 C120 1.424 . S
C117 C122 1.245 . S
C117 C123 1.428 . S
C118 C121 1.260 . S
C118 C122 1.477 . S
C118 H136 0.932 . S
C119 C120 1.384 . S
C119 C121 1.479 . S
C119 H137 0.929 . S
C120 C117 1.424 . S
C120 C119 1.384 . S
C120 H138 0.928 . S
C121 C118 1.260 . S
C121 C119 1.479 . S
C122 C117 1.245 . S
C122 C118 1.477 . S
C122 H139 0.932 . S
C123 U106 2.882 . S
C123 C117 1.428 . S
C123 O126 1.301 . S
C123 O127 1.282 . S
O124 U106 2.441 . S
O124 C110 1.249 . S
O125 U106 2.420 . S
O125 C110 1.202 . S
O126 U106 2.455 . S
O126 C123 1.301 . S
O127 U106 2.449 . S
O127 C123 1.282 . S
H128 C101 0.931 . S
H129 C103 0.929 . S
H130 C104 0.930 . S
H131 C105 0.931 . S
H132 C112 0.932 . S
H133 C113 0.930 . S
H134 C114 0.929 . S
H135 C116 0.930 . S
H136 C118 0.932 . S
H137 C119 0.929 . S
H138 C120 0.928 . S
H139 C122 0.932 . S
C140 C141 1.264 . S
C140 C145 1.479 . S
C140 C150 1.465 . S
C141 C140 1.264 . S
C141 C143 1.339 . S
C141 H168 0.931 . S
C142 C143 1.395 . S
C142 C144 1.320 . S
C143 C141 1.339 . S
C143 C142 1.395 . S
C143 H169 0.929 . S
C144 C142 1.320 . S
C144 C145 1.405 . S
C144 H170 0.930 . S
C145 C140 1.479 . S
C145 C144 1.405 . S
C145 H171 0.931 . S
U146 O147 2.454 . S
U146 O148 2.458 . S
U146 C149 2.984 . S
U146 C150 2.847 1_455 S
U146 C163 2.882 . S
U146 O164 2.441 . S
U146 O165 2.420 1_455 S
U146 O166 2.455 . S
U146 O167 2.449 . S
O147 U146 2.454 . S
O147 C149 1.353 . S
O148 U146 2.458 . S
O148 C149 1.286 . S
C149 U146 2.984 . S
C149 O147 1.353 . S
C149 O148 1.286 . S
C149 C151 1.363 . S
C150 C140 1.465 . S
C150 U146 2.847 1_655 S
C150 O164 1.249 1_655 S
C150 O165 1.202 . S
C151 C149 1.363 . S
C151 C153 1.408 . S
C151 C156 1.342 . S
C152 C153 1.310 . S
C152 C155 1.461 . S
C152 H172 0.932 . S
C153 C151 1.408 . S
C153 C152 1.310 . S
C153 H173 0.930 . S
C154 C155 1.474 . S
C154 C156 1.285 . S
C154 H174 0.929 . S
C155 C152 1.461 . S
C155 C154 1.474 . S
C156 C151 1.342 . S
C156 C154 1.285 . S
C156 H175 0.930 . S
C157 C160 1.424 . S
C157 C162 1.245 . S
C157 C163 1.428 . S
C158 C161 1.260 . S
C158 C162 1.477 . S
C158 H176 0.932 . S
C159 C160 1.384 . S
C159 C161 1.479 . S
C159 H177 0.929 1_455 S
C160 C157 1.424 . S
C160 C159 1.384 . S
C160 H178 0.928 1_455 S
C161 C158 1.260 . S
C161 C159 1.479 . S
C162 C157 1.245 . S
C162 C158 1.477 . S
C162 H179 0.932 . S
C163 U146 2.882 . S
C163 C157 1.428 . S
C163 O166 1.301 . S
C163 O167 1.282 . S
O164 U146 2.441 . S
O164 C150 1.249 1_455 S
O165 U146 2.420 1_655 S
O165 C150 1.202 . S
O166 U146 2.455 . S
O166 C163 1.301 . S
O167 U146 2.449 . S
O167 C163 1.282 . S
H168 C141 0.931 . S
H169 C143 0.929 . S
H170 C144 0.930 . S
H171 C145 0.931 . S
H172 C152 0.932 . S
H173 C153 0.930 . S
H174 C154 0.929 . S
H175 C156 0.930 . S
H176 C158 0.932 . S
H177 C159 0.929 1_655 S
H178 C160 0.928 1_655 S
H179 C162 0.932 . S
C180 C181 1.264 . S
C180 C185 1.479 . S
C180 C190 1.465 . S
C181 C180 1.264 . S
C181 C183 1.339 . S
C181 H208 0.931 . S
C182 C183 1.395 . S
C182 C184 1.320 . S
C183 C181 1.339 . S
C183 C182 1.395 . S
C183 H209 0.929 . S
C184 C182 1.320 . S
C184 C185 1.405 . S
C184 H210 0.930 . S
C185 C180 1.479 . S
C185 C184 1.405 . S
C185 H211 0.931 . S
U186 O187 2.454 . S
U186 O188 2.458 . S
U186 C189 2.984 . S
U186 C190 2.847 1_455 S
U186 C203 2.882 . S
U186 O204 2.441 1_455 S
U186 O205 2.420 1_455 S
U186 O206 2.455 . S
U186 O207 2.449 1_455 S
O187 U186 2.454 . S
O187 C189 1.353 . S
O188 U186 2.458 . S
O188 C189 1.286 . S
C189 U186 2.984 . S
C189 O187 1.353 . S
C189 O188 1.286 . S
C189 C191 1.363 . S
C190 C180 1.465 . S
C190 U186 2.847 1_655 S
C190 O204 1.249 . S
C190 O205 1.202 . S
C191 C189 1.363 . S
C191 C193 1.408 . S
C191 C196 1.342 . S
C192 C193 1.310 . S
C192 C195 1.461 . S
C192 H212 0.932 . S
C193 C191 1.408 . S
C193 C192 1.310 . S
C193 H213 0.930 . S
C194 C195 1.474 . S
C194 C196 1.285 . S
C194 H214 0.929 . S
C195 C192 1.461 . S
C195 C194 1.474 . S
C196 C191 1.342 . S
C196 C194 1.285 . S
C196 H215 0.930 . S
C197 C200 1.424 1_455 S
C197 C202 1.245 . S
C197 C203 1.428 . S
C198 C201 1.260 . S
C198 C202 1.477 . S
C198 H216 0.932 . S
C199 C200 1.384 . S
C199 C201 1.479 1_655 S
C199 H217 0.929 . S
C200 C197 1.424 1_655 S
C200 C199 1.384 . S
C200 H218 0.928 . S
C201 C198 1.260 . S
C201 C199 1.479 1_455 S
C202 C197 1.245 . S
C202 C198 1.477 . S
C202 H219 0.932 . S
C203 U186 2.882 . S
C203 C197 1.428 . S
C203 O206 1.301 . S
C203 O207 1.282 1_455 S
O204 U186 2.441 1_655 S
O204 C190 1.249 . S
O205 U186 2.420 1_655 S
O205 C190 1.202 . S
O206 U186 2.455 . S
O206 C203 1.301 . S
O207 U186 2.449 1_655 S
O207 C203 1.282 1_655 S
H208 C181 0.931 . S
H209 C183 0.929 . S
H210 C184 0.930 . S
H211 C185 0.931 . S
H212 C192 0.932 . S
H213 C193 0.930 . S
H214 C194 0.929 . S
H215 C196 0.930 . S
H216 C198 0.932 . S
H217 C199 0.929 . S
H218 C200 0.928 . S
H219 C202 0.932 . S
C220 C221 1.264 . S
C220 C225 1.479 . S
C220 C230 1.465 . S
C221 C220 1.264 . S
C221 C223 1.339 . S
C221 H248 0.931 . S
C222 C223 1.395 . S
C222 C224 1.320 . S
C223 C221 1.339 . S
C223 C222 1.395 . S
C223 H249 0.929 . S
C224 C222 1.320 . S
C224 C225 1.405 . S
C224 H250 0.930 . S
C225 C220 1.479 . S
C225 C224 1.405 . S
C225 H251 0.931 . S
U226 O227 2.454 . S
U226 O228 2.458 . S
U226 C229 2.984 . S
U226 C230 2.847 1_545 S
U226 C243 2.882 . S
U226 O244 2.441 1_545 S
U226 O245 2.420 1_545 S
U226 O246 2.455 . S
U226 O247 2.449 1_545 S
O227 U226 2.454 . S
O227 C229 1.353 . S
O228 U226 2.458 . S
O228 C229 1.286 . S
C229 U226 2.984 . S
C229 O227 1.353 . S
C229 O228 1.286 . S
C229 C231 1.363 . S
C230 C220 1.465 . S
C230 U226 2.847 1_565 S
C230 O244 1.249 . S
C230 O245 1.202 . S
C231 C229 1.363 . S
C231 C233 1.408 . S
C231 C236 1.342 . S
C232 C233 1.310 . S
C232 C235 1.461 . S
C232 H252 0.932 . S
C233 C231 1.408 . S
C233 C232 1.310 . S
C233 H253 0.930 . S
C234 C235 1.474 . S
C234 C236 1.285 . S
C234 H254 0.929 . S
C235 C232 1.461 . S
C235 C234 1.474 . S
C236 C231 1.342 . S
C236 C234 1.285 . S
C236 H255 0.930 . S
C237 C240 1.424 1_545 S
C237 C242 1.245 . S
C237 C243 1.428 . S
C238 C241 1.260 . S
C238 C242 1.477 . S
C238 H256 0.932 . S
C239 C240 1.384 . S
C239 C241 1.479 1_565 S
C239 H257 0.929 . S
C240 C237 1.424 1_565 S
C240 C239 1.384 . S
C240 H258 0.928 . S
C241 C238 1.260 . S
C241 C239 1.479 1_545 S
C242 C237 1.245 . S
C242 C238 1.477 . S
C242 H259 0.932 . S
C243 U226 2.882 . S
C243 C237 1.428 . S
C243 O246 1.301 . S
C243 O247 1.282 1_545 S
O244 U226 2.441 1_565 S
O244 C230 1.249 . S
O245 U226 2.420 1_565 S
O245 C230 1.202 . S
O246 U226 2.455 . S
O246 C243 1.301 . S
O247 U226 2.449 1_565 S
O247 C243 1.282 1_565 S
H248 C221 0.931 . S
H249 C223 0.929 . S
H250 C224 0.930 . S
H251 C225 0.931 . S
H252 C232 0.932 . S
H253 C233 0.930 . S
H254 C234 0.929 . S
H255 C236 0.930 . S
H256 C238 0.932 . S
H257 C239 0.929 . S
H258 C240 0.928 . S
H259 C242 0.932 . S
C260 C261 1.264 . S
C260 C265 1.479 . S
C260 C270 1.465 . S
C261 C260 1.264 . S
C261 C263 1.339 . S
C261 H288 0.931 . S
C262 C263 1.395 . S
C262 C264 1.320 . S
C263 C261 1.339 . S
C263 C262 1.395 . S
C263 H289 0.929 . S
C264 C262 1.320 . S
C264 C265 1.405 . S
C264 H290 0.930 . S
C265 C260 1.479 . S
C265 C264 1.405 . S
C265 H291 0.931 . S
U266 O267 2.454 . S
U266 O268 2.458 . S
U266 C269 2.984 . S
U266 C270 2.847 . S
U266 C283 2.882 . S
U266 O284 2.441 . S
U266 O285 2.420 . S
U266 O286 2.455 . S
U266 O287 2.449 . S
O267 U266 2.454 . S
O267 C269 1.353 . S
O268 U266 2.458 . S
O268 C269 1.286 . S
C269 U266 2.984 . S
C269 O267 1.353 . S
C269 O268 1.286 . S
C269 C271 1.363 . S
C270 C260 1.465 . S
C270 U266 2.847 . S
C270 O284 1.249 . S
C270 O285 1.202 . S
C271 C269 1.363 . S
C271 C273 1.408 . S
C271 C276 1.342 . S
C272 C273 1.310 . S
C272 C275 1.461 . S
C272 H292 0.932 . S
C273 C271 1.408 . S
C273 C272 1.310 . S
C273 H293 0.930 . S
C274 C275 1.474 . S
C274 C276 1.285 . S
C274 H294 0.929 . S
C275 C272 1.461 . S
C275 C274 1.474 . S
C276 C271 1.342 . S
C276 C274 1.285 . S
C276 H295 0.930 . S
C277 C280 1.424 . S
C277 C282 1.245 . S
C277 C283 1.428 . S
C278 C281 1.260 . S
C278 C282 1.477 . S
C278 H296 0.932 . S
C279 C280 1.384 . S
C279 C281 1.479 . S
C279 H297 0.929 . S
C280 C277 1.424 . S
C280 C279 1.384 . S
C280 H298 0.928 . S
C281 C278 1.260 . S
C281 C279 1.479 . S
C282 C277 1.245 . S
C282 C278 1.477 . S
C282 H299 0.932 . S
C283 U266 2.882 . S
C283 C277 1.428 . S
C283 O286 1.301 . S
C283 O287 1.282 . S
O284 U266 2.441 . S
O284 C270 1.249 . S
O285 U266 2.420 . S
O285 C270 1.202 . S
O286 U266 2.455 . S
O286 C283 1.301 . S
O287 U266 2.449 . S
O287 C283 1.282 . S
H288 C261 0.931 . S
H289 C263 0.929 . S
H290 C264 0.930 . S
H291 C265 0.931 . S
H292 C272 0.932 . S
H293 C273 0.930 . S
H294 C274 0.929 . S
H295 C276 0.930 . S
H296 C278 0.932 . S
H297 C279 0.929 . S
H298 C280 0.928 . S
H299 C282 0.932 . S
H300 C318 0.951 . S
H301 C320 0.951 . S
H302 C322 0.950 . S
H303 C323 0.950 . S
H304 C325 0.950 . S
H305 C328 0.950 . S
H306 C329 0.950 . S
H307 C331 0.950 . S
H308 C332 0.950 . S
H309 C333 0.951 . S
H310 C335 0.951 . S
H311 C337 0.950 . S
H312 C338 0.950 . S
H313 C340 0.950 . S
H314 C343 0.950 . S
H315 C344 0.950 . S
H316 C346 0.950 . S
H317 C347 0.950 . S
C318 H300 0.951 . S
C318 C319 1.366 . S
C318 C320 1.388 . S
C319 C318 1.366 . S
C319 C323 1.385 . S
C320 H301 0.951 . S
C320 C318 1.388 . S
C320 C321 1.366 . S
C321 C320 1.366 . S
C321 C322 1.414 . S
C321 C324 1.499 . S
C322 H302 0.950 . S
C322 C321 1.414 . S
C322 C323 1.374 . S
C323 H303 0.950 . S
C323 C319 1.385 . S
C323 C322 1.374 . S
C324 C321 1.499 . S
C324 C325 1.373 . S
C324 C326 1.389 . S
C325 H304 0.950 . S
C325 C324 1.373 . S
C325 C341 1.377 . S
C326 C324 1.389 . S
C326 C327 1.524 . S
C326 C340 1.377 . S
C327 C326 1.524 . S
C327 C328 1.397 . S
C327 C332 1.363 . S
C328 H305 0.950 . S
C328 C327 1.397 . S
C328 C329 1.334 . S
C329 H306 0.950 . S
C329 C328 1.334 . S
C329 C330 1.287 . S
C330 C329 1.287 . S
C330 C331 1.524 . S
C330 H349 0.913 . S
C331 H307 0.950 . S
C331 C330 1.524 . S
C331 C332 1.415 . S
C332 H308 0.950 . S
C332 C327 1.363 . S
C332 C331 1.415 . S
C333 H309 0.951 . S
C333 C334 1.366 . S
C333 C335 1.388 . S
C334 C333 1.366 . S
C334 C338 1.385 . S
C335 H310 0.951 . S
C335 C333 1.388 . S
C335 C336 1.366 . S
C336 C335 1.366 . S
C336 C337 1.414 . S
C336 C339 1.499 . S
C337 H311 0.950 . S
C337 C336 1.414 . S
C337 C338 1.374 . S
C338 H312 0.950 . S
C338 C334 1.385 . S
C338 C337 1.374 . S
C339 C336 1.499 . S
C339 C340 1.373 . S
C339 C341 1.389 . S
C340 H313 0.950 . S
C340 C326 1.377 . S
C340 C339 1.373 . S
C341 C325 1.377 . S
C341 C339 1.389 . S
C341 C342 1.524 . S
C342 C341 1.524 . S
C342 C343 1.397 . S
C342 C347 1.363 . S
C343 H314 0.950 . S
C343 C342 1.397 . S
C343 C344 1.334 . S
C344 H315 0.950 . S
C344 C343 1.334 . S
C344 C345 1.287 . S
C345 C344 1.287 . S
C345 C346 1.524 . S
C345 H348 0.999 . S
C346 H316 0.950 . S
C346 C345 1.524 . S
C346 C347 1.415 . S
C347 H317 0.950 . S
C347 C342 1.363 . S
C347 C346 1.415 . S
H348 C345 0.999 . S
H349 C330 0.913 . S
H350 C368 0.951 . S
H351 C370 0.951 . S
H352 C372 0.950 . S
H353 C373 0.950 . S
H354 C375 0.950 . S
H355 C378 0.950 . S
H356 C379 0.950 . S
H357 C381 0.950 . S
H358 C382 0.950 . S
H359 C383 0.951 . S
H360 C385 0.951 . S
H361 C387 0.950 . S
H362 C388 0.950 . S
H363 C390 0.950 . S
H364 C393 0.950 . S
H365 C394 0.950 . S
H366 C396 0.950 . S
H367 C397 0.950 . S
C368 H350 0.951 . S
C368 C369 1.366 . S
C368 C370 1.388 . S
C369 C368 1.366 . S
C369 C373 1.385 . S
C370 H351 0.951 . S
C370 C368 1.388 . S
C370 C371 1.366 . S
C371 C370 1.366 . S
C371 C372 1.414 . S
C371 C374 1.499 . S
C372 H352 0.950 . S
C372 C371 1.414 . S
C372 C373 1.374 . S
C373 H353 0.950 . S
C373 C369 1.385 . S
C373 C372 1.374 . S
C374 C371 1.499 . S
C374 C375 1.373 . S
C374 C376 1.389 . S
C375 H354 0.950 . S
C375 C374 1.373 . S
C375 C391 1.377 . S
C376 C374 1.389 . S
C376 C377 1.524 . S
C376 C390 1.377 . S
C377 C376 1.524 . S
C377 C378 1.397 . S
C377 C382 1.363 . S
C378 H355 0.950 . S
C378 C377 1.397 . S
C378 C379 1.334 . S
C379 H356 0.950 . S
C379 C378 1.334 . S
C379 C380 1.287 . S
C380 C379 1.287 . S
C380 C381 1.524 . S
C380 H399 0.913 . S
C381 H357 0.950 . S
C381 C380 1.524 . S
C381 C382 1.415 . S
C382 H358 0.950 . S
C382 C377 1.363 . S
C382 C381 1.415 . S
C383 H359 0.951 . S
C383 C384 1.366 . S
C383 C385 1.388 . S
C384 C383 1.366 . S
C384 C388 1.385 . S
C385 H360 0.951 . S
C385 C383 1.388 . S
C385 C386 1.366 . S
C386 C385 1.366 . S
C386 C387 1.414 . S
C386 C389 1.499 . S
C387 H361 0.950 . S
C387 C386 1.414 . S
C387 C388 1.374 . S
C388 H362 0.950 . S
C388 C384 1.385 . S
C388 C387 1.374 . S
C389 C386 1.499 . S
C389 C390 1.373 . S
C389 C391 1.389 . S
C390 H363 0.950 . S
C390 C376 1.377 . S
C390 C389 1.373 . S
C391 C375 1.377 . S
C391 C389 1.389 . S
C391 C392 1.524 . S
C392 C391 1.524 . S
C392 C393 1.397 . S
C392 C397 1.363 . S
C393 H364 0.950 . S
C393 C392 1.397 . S
C393 C394 1.334 . S
C394 H365 0.950 . S
C394 C393 1.334 . S
C394 C395 1.287 . S
C395 C394 1.287 . S
C395 C396 1.524 . S
C395 H398 0.999 . S
C396 H366 0.950 . S
C396 C395 1.524 . S
C396 C397 1.415 . S
C397 H367 0.950 . S
C397 C392 1.363 . S
C397 C396 1.415 . S
H398 C395 0.999 . S
H399 C380 0.913 . S
H400 C418 0.951 . S
H401 C420 0.951 . S
H402 C422 0.950 . S
H403 C423 0.950 . S
H404 C425 0.950 . S
H405 C428 0.950 . S
H406 C429 0.950 . S
H407 C431 0.950 . S
H408 C432 0.950 . S
H409 C433 0.951 . S
H410 C435 0.951 . S
H411 C437 0.950 . S
H412 C438 0.950 . S
H413 C440 0.950 . S
H414 C443 0.950 . S
H415 C444 0.950 . S
H416 C446 0.950 . S
H417 C447 0.950 . S
C418 H400 0.951 . S
C418 C419 1.366 . S
C418 C420 1.388 . S
C419 C418 1.366 . S
C419 C423 1.385 . S
C420 H401 0.951 . S
C420 C418 1.388 . S
C420 C421 1.366 . S
C421 C420 1.366 . S
C421 C422 1.414 . S
C421 C424 1.499 . S
C422 H402 0.950 . S
C422 C421 1.414 . S
C422 C423 1.374 . S
C423 H403 0.950 . S
C423 C419 1.385 . S
C423 C422 1.374 . S
C424 C421 1.499 . S
C424 C425 1.373 . S
C424 C426 1.389 . S
C425 H404 0.950 . S
C425 C424 1.373 . S
C425 C441 1.377 . S
C426 C424 1.389 . S
C426 C427 1.524 . S
C426 C440 1.377 . S
C427 C426 1.524 . S
C427 C428 1.397 . S
C427 C432 1.363 . S
C428 H405 0.950 . S
C428 C427 1.397 . S
C428 C429 1.334 . S
C429 H406 0.950 . S
C429 C428 1.334 . S
C429 C430 1.287 . S
C430 C429 1.287 . S
C430 C431 1.524 . S
C430 H449 0.913 . S
C431 H407 0.950 . S
C431 C430 1.524 . S
C431 C432 1.415 . S
C432 H408 0.950 . S
C432 C427 1.363 . S
C432 C431 1.415 . S
C433 H409 0.951 . S
C433 C434 1.366 . S
C433 C435 1.388 . S
C434 C433 1.366 . S
C434 C438 1.385 . S
C435 H410 0.951 . S
C435 C433 1.388 . S
C435 C436 1.366 . S
C436 C435 1.366 . S
C436 C437 1.414 . S
C436 C439 1.499 . S
C437 H411 0.950 . S
C437 C436 1.414 . S
C437 C438 1.374 . S
C438 H412 0.950 . S
C438 C434 1.385 . S
C438 C437 1.374 . S
C439 C436 1.499 . S
C439 C440 1.373 . S
C439 C441 1.389 . S
C440 H413 0.950 . S
C440 C426 1.377 . S
C440 C439 1.373 . S
C441 C425 1.377 . S
C441 C439 1.389 . S
C441 C442 1.524 . S
C442 C441 1.524 . S
C442 C443 1.397 . S
C442 C447 1.363 . S
C443 H414 0.950 . S
C443 C442 1.397 . S
C443 C444 1.334 . S
C444 H415 0.950 . S
C444 C443 1.334 . S
C444 C445 1.287 . S
C445 C444 1.287 . S
C445 C446 1.524 . S
C445 H448 0.999 . S
C446 H416 0.950 . S
C446 C445 1.524 . S
C446 C447 1.415 . S
C447 H417 0.950 . S
C447 C442 1.363 . S
C447 C446 1.415 . S
H448 C445 0.999 . S
H449 C430 0.913 . S
H450 C468 0.951 . S
H451 C470 0.951 . S
H452 C472 0.950 . S
H453 C473 0.950 . S
H454 C475 0.950 . S
H455 C478 0.950 . S
H456 C479 0.950 . S
H457 C481 0.950 . S
H458 C482 0.950 . S
H459 C483 0.951 . S
H460 C485 0.951 . S
H461 C487 0.950 . S
H462 C488 0.950 . S
H463 C490 0.950 . S
H464 C493 0.950 . S
H465 C494 0.950 . S
H466 C496 0.950 . S
H467 C497 0.950 . S
C468 H450 0.951 . S
C468 C469 1.366 . S
C468 C470 1.388 . S
C469 C468 1.366 . S
C469 C473 1.385 . S
C470 H451 0.951 . S
C470 C468 1.388 . S
C470 C471 1.366 . S
C471 C470 1.366 . S
C471 C472 1.414 . S
C471 C474 1.499 . S
C472 H452 0.950 . S
C472 C471 1.414 . S
C472 C473 1.374 . S
C473 H453 0.950 . S
C473 C469 1.385 . S
C473 C472 1.374 . S
C474 C471 1.499 . S
C474 C475 1.373 . S
C474 C476 1.389 . S
C475 H454 0.950 . S
C475 C474 1.373 . S
C475 C491 1.377 . S
C476 C474 1.389 . S
C476 C477 1.524 . S
C476 C490 1.377 . S
C477 C476 1.524 . S
C477 C478 1.397 . S
C477 C482 1.363 . S
C478 H455 0.950 . S
C478 C477 1.397 . S
C478 C479 1.334 . S
C479 H456 0.950 . S
C479 C478 1.334 . S
C479 C480 1.287 . S
C480 C479 1.287 . S
C480 C481 1.524 . S
C480 H499 0.913 . S
C481 H457 0.950 . S
C481 C480 1.524 . S
C481 C482 1.415 . S
C482 H458 0.950 . S
C482 C477 1.363 . S
C482 C481 1.415 . S
C483 H459 0.951 . S
C483 C484 1.366 . S
C483 C485 1.388 . S
C484 C483 1.366 . S
C484 C488 1.385 . S
C485 H460 0.951 . S
C485 C483 1.388 . S
C485 C486 1.366 . S
C486 C485 1.366 . S
C486 C487 1.414 . S
C486 C489 1.499 . S
C487 H461 0.950 . S
C487 C486 1.414 . S
C487 C488 1.374 . S
C488 H462 0.950 . S
C488 C484 1.385 . S
C488 C487 1.374 . S
C489 C486 1.499 . S
C489 C490 1.373 . S
C489 C491 1.389 . S
C490 H463 0.950 . S
C490 C476 1.377 . S
C490 C489 1.373 . S
C491 C475 1.377 . S
C491 C489 1.389 . S
C491 C492 1.524 . S
C492 C491 1.524 . S
C492 C493 1.397 . S
C492 C497 1.363 . S
C493 H464 0.950 . S
C493 C492 1.397 . S
C493 C494 1.334 . S
C494 H465 0.950 . S
C494 C493 1.334 . S
C494 C495 1.287 . S
C495 C494 1.287 . S
C495 C496 1.524 . S
C495 H498 0.999 . S
C496 H466 0.950 . S
C496 C495 1.524 . S
C496 C497 1.415 . S
C497 H467 0.950 . S
C497 C492 1.363 . S
C497 C496 1.415 . S
H498 C495 0.999 . S
H499 C480 0.913 . S
H500 C518 0.951 . S
H501 C520 0.951 . S
H502 C522 0.950 . S
H503 C523 0.950 . S
H504 C525 0.950 . S
H505 C528 0.950 . S
H506 C529 0.950 . S
H507 C531 0.950 . S
H508 C532 0.950 . S
H509 C533 0.951 . S
H510 C535 0.951 . S
H511 C537 0.950 . S
H512 C538 0.950 . S
H513 C540 0.950 . S
H514 C543 0.950 . S
H515 C544 0.950 . S
H516 C546 0.950 . S
H517 C547 0.950 . S
C518 H500 0.951 . S
C518 C519 1.366 . S
C518 C520 1.388 . S
C519 C518 1.366 . S
C519 C523 1.385 . S
C520 H501 0.951 . S
C520 C518 1.388 . S
C520 C521 1.366 . S
C521 C520 1.366 . S
C521 C522 1.414 . S
C521 C524 1.499 . S
C522 H502 0.950 . S
C522 C521 1.414 . S
C522 C523 1.374 . S
C523 H503 0.950 . S
C523 C519 1.385 . S
C523 C522 1.374 . S
C524 C521 1.499 . S
C524 C525 1.373 . S
C524 C526 1.389 . S
C525 H504 0.950 . S
C525 C524 1.373 . S
C525 C541 1.377 . S
C526 C524 1.389 . S
C526 C527 1.524 . S
C526 C540 1.377 . S
C527 C526 1.524 . S
C527 C528 1.397 . S
C527 C532 1.363 . S
C528 H505 0.950 . S
C528 C527 1.397 . S
C528 C529 1.334 . S
C529 H506 0.950 . S
C529 C528 1.334 . S
C529 C530 1.287 . S
C530 C529 1.287 . S
C530 C531 1.524 . S
C530 H549 0.913 . S
C531 H507 0.950 . S
C531 C530 1.524 . S
C531 C532 1.415 . S
C532 H508 0.950 . S
C532 C527 1.363 . S
C532 C531 1.415 . S
C533 H509 0.951 . S
C533 C534 1.366 . S
C533 C535 1.388 . S
C534 C533 1.366 . S
C534 C538 1.385 . S
C535 H510 0.951 . S
C535 C533 1.388 . S
C535 C536 1.366 . S
C536 C535 1.366 . S
C536 C537 1.414 . S
C536 C539 1.499 . S
C537 H511 0.950 . S
C537 C536 1.414 . S
C537 C538 1.374 . S
C538 H512 0.950 . S
C538 C534 1.385 . S
C538 C537 1.374 . S
C539 C536 1.499 . S
C539 C540 1.373 . S
C539 C541 1.389 . S
C540 H513 0.950 . S
C540 C526 1.377 . S
C540 C539 1.373 . S
C541 C525 1.377 . S
C541 C539 1.389 . S
C541 C542 1.524 . S
C542 C541 1.524 . S
C542 C543 1.397 . S
C542 C547 1.363 . S
C543 H514 0.950 . S
C543 C542 1.397 . S
C543 C544 1.334 . S
C544 H515 0.950 . S
C544 C543 1.334 . S
C544 C545 1.287 . S
C545 C544 1.287 . S
C545 C546 1.524 . S
C545 H548 0.999 . S
C546 H516 0.950 . S
C546 C545 1.524 . S
C546 C547 1.415 . S
C547 H517 0.950 . S
C547 C542 1.363 . S
C547 C546 1.415 . S
H548 C545 0.999 . S
H549 C530 0.913 . S
H550 C568 0.951 . S
H551 C570 0.951 . S
H552 C572 0.950 . S
H553 C573 0.950 . S
H554 C575 0.950 . S
H555 C578 0.950 . S
H556 C579 0.950 . S
H557 C581 0.950 . S
H558 C582 0.950 . S
H559 C583 0.951 . S
H560 C585 0.951 . S
H561 C587 0.950 . S
H562 C588 0.950 . S
H563 C590 0.950 . S
H564 C593 0.950 . S
H565 C594 0.950 . S
H566 C596 0.950 . S
H567 C597 0.950 . S
C568 H550 0.951 . S
C568 C569 1.366 . S
C568 C570 1.388 . S
C569 C568 1.366 . S
C569 C573 1.385 . S
C570 H551 0.951 . S
C570 C568 1.388 . S
C570 C571 1.366 . S
C571 C570 1.366 . S
C571 C572 1.414 . S
C571 C574 1.499 . S
C572 H552 0.950 . S
C572 C571 1.414 . S
C572 C573 1.374 . S
C573 H553 0.950 . S
C573 C569 1.385 . S
C573 C572 1.374 . S
C574 C571 1.499 . S
C574 C575 1.373 . S
C574 C576 1.389 . S
C575 H554 0.950 . S
C575 C574 1.373 . S
C575 C591 1.377 . S
C576 C574 1.389 . S
C576 C577 1.524 . S
C576 C590 1.377 . S
C577 C576 1.524 . S
C577 C578 1.397 . S
C577 C582 1.363 . S
C578 H555 0.950 . S
C578 C577 1.397 . S
C578 C579 1.334 . S
C579 H556 0.950 . S
C579 C578 1.334 . S
C579 C580 1.287 . S
C580 C579 1.287 . S
C580 C581 1.524 . S
C580 H599 0.913 . S
C581 H557 0.950 . S
C581 C580 1.524 . S
C581 C582 1.415 . S
C582 H558 0.950 . S
C582 C577 1.363 . S
C582 C581 1.415 . S
C583 H559 0.951 . S
C583 C584 1.366 . S
C583 C585 1.388 . S
C584 C583 1.366 . S
C584 C588 1.385 . S
C585 H560 0.951 . S
C585 C583 1.388 . S
C585 C586 1.366 . S
C586 C585 1.366 . S
C586 C587 1.414 . S
C586 C589 1.499 . S
C587 H561 0.950 . S
C587 C586 1.414 . S
C587 C588 1.374 . S
C588 H562 0.950 . S
C588 C584 1.385 . S
C588 C587 1.374 . S
C589 C586 1.499 . S
C589 C590 1.373 . S
C589 C591 1.389 . S
C590 H563 0.950 . S
C590 C576 1.377 . S
C590 C589 1.373 . S
C591 C575 1.377 . S
C591 C589 1.389 . S
C591 C592 1.524 . S
C592 C591 1.524 . S
C592 C593 1.397 . S
C592 C597 1.363 . S
C593 H564 0.950 . S
C593 C592 1.397 . S
C593 C594 1.334 . S
C594 H565 0.950 . S
C594 C593 1.334 . S
C594 C595 1.287 . S
C595 C594 1.287 . S
C595 C596 1.524 . S
C595 H598 0.999 . S
C596 H566 0.950 . S
C596 C595 1.524 . S
C596 C597 1.415 . S
C597 H567 0.950 . S
C597 C592 1.363 . S
C597 C596 1.415 . S
H598 C595 0.999 . S
H599 C580 0.913 . S
H600 C618 0.951 . S
H601 C620 0.951 . S
H602 C622 0.950 . S
H603 C623 0.950 . S
H604 C625 0.950 . S
H605 C628 0.950 . S
H606 C629 0.950 . S
H607 C631 0.950 . S
H608 C632 0.950 . S
H609 C633 0.951 . S
H610 C635 0.951 . S
H611 C637 0.950 . S
H612 C638 0.950 . S
H613 C640 0.950 . S
H614 C643 0.950 . S
H615 C644 0.950 . S
H616 C646 0.950 . S
H617 C647 0.950 . S
C618 H600 0.951 . S
C618 C619 1.366 . S
C618 C620 1.388 . S
C619 C618 1.366 . S
C619 C623 1.385 . S
C620 H601 0.951 . S
C620 C618 1.388 . S
C620 C621 1.366 . S
C621 C620 1.366 . S
C621 C622 1.414 . S
C621 C624 1.499 . S
C622 H602 0.950 . S
C622 C621 1.414 . S
C622 C623 1.374 . S
C623 H603 0.950 . S
C623 C619 1.385 . S
C623 C622 1.374 . S
C624 C621 1.499 . S
C624 C625 1.373 . S
C624 C626 1.389 . S
C625 H604 0.950 . S
C625 C624 1.373 . S
C625 C641 1.377 . S
C626 C624 1.389 . S
C626 C627 1.524 . S
C626 C640 1.377 . S
C627 C626 1.524 . S
C627 C628 1.397 . S
C627 C632 1.363 . S
C628 H605 0.950 . S
C628 C627 1.397 . S
C628 C629 1.334 . S
C629 H606 0.950 . S
C629 C628 1.334 . S
C629 C630 1.287 . S
C630 C629 1.287 . S
C630 C631 1.524 . S
C630 H649 0.913 . S
C631 H607 0.950 . S
C631 C630 1.524 . S
C631 C632 1.415 . S
C632 H608 0.950 . S
C632 C627 1.363 . S
C632 C631 1.415 . S
C633 H609 0.951 . S
C633 C634 1.366 . S
C633 C635 1.388 . S
C634 C633 1.366 . S
C634 C638 1.385 . S
C635 H610 0.951 . S
C635 C633 1.388 . S
C635 C636 1.366 . S
C636 C635 1.366 . S
C636 C637 1.414 . S
C636 C639 1.499 . S
C637 H611 0.950 . S
C637 C636 1.414 . S
C637 C638 1.374 . S
C638 H612 0.950 . S
C638 C634 1.385 . S
C638 C637 1.374 . S
C639 C636 1.499 . S
C639 C640 1.373 . S
C639 C641 1.389 . S
C640 H613 0.950 . S
C640 C626 1.377 . S
C640 C639 1.373 . S
C641 C625 1.377 . S
C641 C639 1.389 . S
C641 C642 1.524 . S
C642 C641 1.524 . S
C642 C643 1.397 . S
C642 C647 1.363 . S
C643 H614 0.950 . S
C643 C642 1.397 . S
C643 C644 1.334 . S
C644 H615 0.950 . S
C644 C643 1.334 . S
C644 C645 1.287 . S
C645 C644 1.287 . S
C645 C646 1.524 . S
C645 H648 0.999 . S
C646 H616 0.950 . S
C646 C645 1.524 . S
C646 C647 1.415 . S
C647 H617 0.950 . S
C647 C642 1.363 . S
C647 C646 1.415 . S
H648 C645 0.999 . S
H649 C630 0.913 . S
H650 C668 0.951 . S
H651 C670 0.951 . S
H652 C672 0.950 . S
H653 C673 0.950 . S
H654 C675 0.950 . S
H655 C678 0.950 . S
H656 C679 0.950 . S
H657 C681 0.950 . S
H658 C682 0.950 . S
H659 C683 0.951 . S
H660 C685 0.951 . S
H661 C687 0.950 . S
H662 C688 0.950 . S
H663 C690 0.950 . S
H664 C693 0.950 . S
H665 C694 0.950 . S
H666 C696 0.950 . S
H667 C697 0.950 . S
C668 H650 0.951 . S
C668 C669 1.366 . S
C668 C670 1.388 . S
C669 C668 1.366 . S
C669 C673 1.385 . S
C670 H651 0.951 . S
C670 C668 1.388 . S
C670 C671 1.366 . S
C671 C670 1.366 . S
C671 C672 1.414 . S
C671 C674 1.499 . S
C672 H652 0.950 . S
C672 C671 1.414 . S
C672 C673 1.374 . S
C673 H653 0.950 . S
C673 C669 1.385 . S
C673 C672 1.374 . S
C674 C671 1.499 . S
C674 C675 1.373 . S
C674 C676 1.389 . S
C675 H654 0.950 . S
C675 C674 1.373 . S
C675 C691 1.377 . S
C676 C674 1.389 . S
C676 C677 1.524 . S
C676 C690 1.377 . S
C677 C676 1.524 . S
C677 C678 1.397 . S
C677 C682 1.363 . S
C678 H655 0.950 . S
C678 C677 1.397 . S
C678 C679 1.334 . S
C679 H656 0.950 . S
C679 C678 1.334 . S
C679 C680 1.287 . S
C680 C679 1.287 . S
C680 C681 1.524 . S
C680 H699 0.913 . S
C681 H657 0.950 . S
C681 C680 1.524 . S
C681 C682 1.415 . S
C682 H658 0.950 . S
C682 C677 1.363 . S
C682 C681 1.415 . S
C683 H659 0.951 . S
C683 C684 1.366 . S
C683 C685 1.388 . S
C684 C683 1.366 . S
C684 C688 1.385 . S
C685 H660 0.951 . S
C685 C683 1.388 . S
C685 C686 1.366 . S
C686 C685 1.366 . S
C686 C687 1.414 . S
C686 C689 1.499 . S
C687 H661 0.950 . S
C687 C686 1.414 . S
C687 C688 1.374 . S
C688 H662 0.950 . S
C688 C684 1.385 . S
C688 C687 1.374 . S
C689 C686 1.499 . S
C689 C690 1.373 . S
C689 C691 1.389 . S
C690 H663 0.950 . S
C690 C676 1.377 . S
C690 C689 1.373 . S
C691 C675 1.377 . S
C691 C689 1.389 . S
C691 C692 1.524 . S
C692 C691 1.524 . S
C692 C693 1.397 . S
C692 C697 1.363 . S
C693 H664 0.950 . S
C693 C692 1.397 . S
C693 C694 1.334 . S
C694 H665 0.950 . S
C694 C693 1.334 . S
C694 C695 1.287 . S
C695 C694 1.287 . S
C695 C696 1.524 . S
C695 H698 0.999 . S
C696 H666 0.950 . S
C696 C695 1.524 . S
C696 C697 1.415 . S
C697 H667 0.950 . S
C697 C692 1.363 . S
C697 C696 1.415 . S
H698 C695 0.999 . S
H699 C680 0.913 . S
H700 C718 0.951 . S
H701 C720 0.951 . S
H702 C722 0.950 . S
H703 C723 0.950 . S
H704 C725 0.950 . S
H705 C728 0.950 . S
H706 C729 0.950 . S
H707 C731 0.950 . S
H708 C732 0.950 . S
H709 C733 0.951 . S
H710 C735 0.951 . S
H711 C737 0.950 . S
H712 C738 0.950 . S
H713 C740 0.950 . S
H714 C743 0.950 . S
H715 C744 0.950 . S
H716 C746 0.950 . S
H717 C747 0.950 . S
C718 H700 0.951 . S
C718 C719 1.366 . S
C718 C720 1.388 . S
C719 C718 1.366 . S
C719 C723 1.385 . S
C720 H701 0.951 . S
C720 C718 1.388 . S
C720 C721 1.366 . S
C721 C720 1.366 . S
C721 C722 1.414 . S
C721 C724 1.499 . S
C722 H702 0.950 . S
C722 C721 1.414 . S
C722 C723 1.374 . S
C723 H703 0.950 . S
C723 C719 1.385 . S
C723 C722 1.374 . S
C724 C721 1.499 . S
C724 C725 1.373 . S
C724 C726 1.389 . S
C725 H704 0.950 . S
C725 C724 1.373 . S
C725 C741 1.377 . S
C726 C724 1.389 . S
C726 C727 1.524 . S
C726 C740 1.377 . S
C727 C726 1.524 . S
C727 C728 1.397 . S
C727 C732 1.363 . S
C728 H705 0.950 . S
C728 C727 1.397 . S
C728 C729 1.334 . S
C729 H706 0.950 . S
C729 C728 1.334 . S
C729 C730 1.287 . S
C730 C729 1.287 . S
C730 C731 1.524 . S
C730 H749 0.913 . S
C731 H707 0.950 . S
C731 C730 1.524 . S
C731 C732 1.415 . S
C732 H708 0.950 . S
C732 C727 1.363 . S
C732 C731 1.415 . S
C733 H709 0.951 . S
C733 C734 1.366 . S
C733 C735 1.388 . S
C734 C733 1.366 . S
C734 C738 1.385 . S
C735 H710 0.951 . S
C735 C733 1.388 . S
C735 C736 1.366 . S
C736 C735 1.366 . S
C736 C737 1.414 . S
C736 C739 1.499 . S
C737 H711 0.950 . S
C737 C736 1.414 . S
C737 C738 1.374 . S
C738 H712 0.950 . S
C738 C734 1.385 . S
C738 C737 1.374 . S
C739 C736 1.499 . S
C739 C740 1.373 . S
C739 C741 1.389 . S
C740 H713 0.950 . S
C740 C726 1.377 . S
C740 C739 1.373 . S
C741 C725 1.377 . S
C741 C739 1.389 . S
C741 C742 1.524 . S
C742 C741 1.524 . S
C742 C743 1.397 . S
C742 C747 1.363 . S
C743 H714 0.950 . S
C743 C742 1.397 . S
C743 C744 1.334 . S
C744 H715 0.950 . S
C744 C743 1.334 . S
C744 C745 1.287 . S
C745 C744 1.287 . S
C745 C746 1.524 . S
C745 H748 0.999 . S
C746 H716 0.950 . S
C746 C745 1.524 . S
C746 C747 1.415 . S
C747 H717 0.950 . S
C747 C742 1.363 . S
C747 C746 1.415 . S
H748 C745 0.999 . S
H749 C730 0.913 . S
H750 C768 0.951 . S
H751 C770 0.951 . S
H752 C772 0.950 . S
H753 C773 0.950 . S
H754 C775 0.950 . S
H755 C778 0.950 . S
H756 C779 0.950 . S
H757 C781 0.950 . S
H758 C782 0.950 . S
H759 C783 0.951 . S
H760 C785 0.951 . S
H761 C787 0.950 . S
H762 C788 0.950 . S
H763 C790 0.950 . S
H764 C793 0.950 . S
H765 C794 0.950 . S
H766 C796 0.950 . S
H767 C797 0.950 . S
C768 H750 0.951 . S
C768 C769 1.366 . S
C768 C770 1.388 . S
C769 C768 1.366 . S
C769 C773 1.385 . S
C770 H751 0.951 . S
C770 C768 1.388 . S
C770 C771 1.366 . S
C771 C770 1.366 . S
C771 C772 1.414 . S
C771 C774 1.499 . S
C772 H752 0.950 . S
C772 C771 1.414 . S
C772 C773 1.374 . S
C773 H753 0.950 . S
C773 C769 1.385 . S
C773 C772 1.374 . S
C774 C771 1.499 . S
C774 C775 1.373 . S
C774 C776 1.389 . S
C775 H754 0.950 . S
C775 C774 1.373 . S
C775 C791 1.377 . S
C776 C774 1.389 . S
C776 C777 1.524 . S
C776 C790 1.377 . S
C777 C776 1.524 . S
C777 C778 1.397 . S
C777 C782 1.363 . S
C778 H755 0.950 . S
C778 C777 1.397 . S
C778 C779 1.334 . S
C779 H756 0.950 . S
C779 C778 1.334 . S
C779 C780 1.287 . S
C780 C779 1.287 . S
C780 C781 1.524 . S
C780 H799 0.913 . S
C781 H757 0.950 . S
C781 C780 1.524 . S
C781 C782 1.415 . S
C782 H758 0.950 . S
C782 C777 1.363 . S
C782 C781 1.415 . S
C783 H759 0.951 . S
C783 C784 1.366 . S
C783 C785 1.388 . S
C784 C783 1.366 . S
C784 C788 1.385 . S
C785 H760 0.951 . S
C785 C783 1.388 . S
C785 C786 1.366 . S
C786 C785 1.366 . S
C786 C787 1.414 . S
C786 C789 1.499 . S
C787 H761 0.950 . S
C787 C786 1.414 . S
C787 C788 1.374 . S
C788 H762 0.950 . S
C788 C784 1.385 . S
C788 C787 1.374 . S
C789 C786 1.499 . S
C789 C790 1.373 . S
C789 C791 1.389 . S
C790 H763 0.950 . S
C790 C776 1.377 . S
C790 C789 1.373 . S
C791 C775 1.377 . S
C791 C789 1.389 . S
C791 C792 1.524 . S
C792 C791 1.524 . S
C792 C793 1.397 . S
C792 C797 1.363 . S
C793 H764 0.950 . S
C793 C792 1.397 . S
C793 C794 1.334 . S
C794 H765 0.950 . S
C794 C793 1.334 . S
C794 C795 1.287 . S
C795 C794 1.287 . S
C795 C796 1.524 . S
C795 H798 0.999 . S
C796 H766 0.950 . S
C796 C795 1.524 . S
C796 C797 1.415 . S
C797 H767 0.950 . S
C797 C792 1.363 . S
C797 C796 1.415 . S
H798 C795 0.999 . S
H799 C780 0.913 . S
H800 C818 0.951 . S
H801 C820 0.951 . S
H802 C822 0.950 . S
H803 C823 0.950 . S
H804 C825 0.950 . S
H805 C828 0.950 . S
H806 C829 0.950 . S
H807 C831 0.950 . S
H808 C832 0.950 . S
H809 C833 0.951 . S
H810 C835 0.951 . S
H811 C837 0.950 . S
H812 C838 0.950 . S
H813 C840 0.950 . S
H814 C843 0.950 . S
H815 C844 0.950 . S
H816 C846 0.950 . S
H817 C847 0.950 . S
C818 H800 0.951 . S
C818 C819 1.366 . S
C818 C820 1.388 . S
C819 C818 1.366 . S
C819 C823 1.385 . S
C820 H801 0.951 . S
C820 C818 1.388 . S
C820 C821 1.366 . S
C821 C820 1.366 . S
C821 C822 1.414 . S
C821 C824 1.499 . S
C822 H802 0.950 . S
C822 C821 1.414 . S
C822 C823 1.374 . S
C823 H803 0.950 . S
C823 C819 1.385 . S
C823 C822 1.374 . S
C824 C821 1.499 . S
C824 C825 1.373 . S
C824 C826 1.389 . S
C825 H804 0.950 . S
C825 C824 1.373 . S
C825 C841 1.377 . S
C826 C824 1.389 . S
C826 C827 1.524 . S
C826 C840 1.377 . S
C827 C826 1.524 . S
C827 C828 1.397 . S
C827 C832 1.363 . S
C828 H805 0.950 . S
C828 C827 1.397 . S
C828 C829 1.334 . S
C829 H806 0.950 . S
C829 C828 1.334 . S
C829 C830 1.287 . S
C830 C829 1.287 . S
C830 C831 1.524 . S
C830 H849 0.913 . S
C831 H807 0.950 . S
C831 C830 1.524 . S
C831 C832 1.415 . S
C832 H808 0.950 . S
C832 C827 1.363 . S
C832 C831 1.415 . S
C833 H809 0.951 . S
C833 C834 1.366 . S
C833 C835 1.388 . S
C834 C833 1.366 . S
C834 C838 1.385 . S
C835 H810 0.951 . S
C835 C833 1.388 . S
C835 C836 1.366 . S
C836 C835 1.366 . S
C836 C837 1.414 . S
C836 C839 1.499 . S
C837 H811 0.950 . S
C837 C836 1.414 . S
C837 C838 1.374 . S
C838 H812 0.950 . S
C838 C834 1.385 . S
C838 C837 1.374 . S
C839 C836 1.499 . S
C839 C840 1.373 . S
C839 C841 1.389 . S
C840 H813 0.950 . S
C840 C826 1.377 . S
C840 C839 1.373 . S
C841 C825 1.377 . S
C841 C839 1.389 . S
C841 C842 1.524 . S
C842 C841 1.524 . S
C842 C843 1.397 . S
C842 C847 1.363 . S
C843 H814 0.950 . S
C843 C842 1.397 . S
C843 C844 1.334 . S
C844 H815 0.950 . S
C844 C843 1.334 . S
C844 C845 1.287 . S
C845 C844 1.287 . S
C845 C846 1.524 . S
C845 H848 0.999 . S
C846 H816 0.950 . S
C846 C845 1.524 . S
C846 C847 1.415 . S
C847 H817 0.950 . S
C847 C842 1.363 . S
C847 C846 1.415 . S
H848 C845 0.999 . S
H849 C830 0.913 . S
H850 C868 0.951 . S
H851 C870 0.951 . S
H852 C872 0.950 . S
H853 C873 0.950 . S
H854 C875 0.950 . S
H855 C878 0.950 . S
H856 C879 0.950 . S
H857 C881 0.950 . S
H858 C882 0.950 . S
H859 C883 0.951 . S
H860 C885 0.951 . S
H861 C887 0.950 . S
H862 C888 0.950 . S
H863 C890 0.950 . S
H864 C893 0.950 . S
H865 C894 0.950 . S
H866 C896 0.950 . S
H867 C897 0.950 . S
C868 H850 0.951 . S
C868 C869 1.366 . S
C868 C870 1.388 . S
C869 C868 1.366 . S
C869 C873 1.385 . S
C870 H851 0.951 . S
C870 C868 1.388 . S
C870 C871 1.366 . S
C871 C870 1.366 . S
C871 C872 1.414 . S
C871 C874 1.499 . S
C872 H852 0.950 . S
C872 C871 1.414 . S
C872 C873 1.374 . S
C873 H853 0.950 . S
C873 C869 1.385 . S
C873 C872 1.374 . S
C874 C871 1.499 . S
C874 C875 1.373 . S
C874 C876 1.389 . S
C875 H854 0.950 . S
C875 C874 1.373 . S
C875 C891 1.377 . S
C876 C874 1.389 . S
C876 C877 1.524 . S
C876 C890 1.377 . S
C877 C876 1.524 . S
C877 C878 1.397 . S
C877 C882 1.363 . S
C878 H855 0.950 . S
C878 C877 1.397 . S
C878 C879 1.334 . S
C879 H856 0.950 . S
C879 C878 1.334 . S
C879 C880 1.287 . S
C880 C879 1.287 . S
C880 C881 1.524 . S
C880 H899 0.913 . S
C881 H857 0.950 . S
C881 C880 1.524 . S
C881 C882 1.415 . S
C882 H858 0.950 . S
C882 C877 1.363 . S
C882 C881 1.415 . S
C883 H859 0.951 . S
C883 C884 1.366 . S
C883 C885 1.388 . S
C884 C883 1.366 . S
C884 C888 1.385 . S
C885 H860 0.951 . S
C885 C883 1.388 . S
C885 C886 1.366 . S
C886 C885 1.366 . S
C886 C887 1.414 . S
C886 C889 1.499 . S
C887 H861 0.950 . S
C887 C886 1.414 . S
C887 C888 1.374 . S
C888 H862 0.950 . S
C888 C884 1.385 . S
C888 C887 1.374 . S
C889 C886 1.499 . S
C889 C890 1.373 . S
C889 C891 1.389 . S
C890 H863 0.950 . S
C890 C876 1.377 . S
C890 C889 1.373 . S
C891 C875 1.377 . S
C891 C889 1.389 . S
C891 C892 1.524 . S
C892 C891 1.524 . S
C892 C893 1.397 . S
C892 C897 1.363 . S
C893 H864 0.950 . S
C893 C892 1.397 . S
C893 C894 1.334 . S
C894 H865 0.950 . S
C894 C893 1.334 . S
C894 C895 1.287 . S
C895 C894 1.287 . S
C895 C896 1.524 . S
C895 H898 0.999 . S
C896 H866 0.950 . S
C896 C895 1.524 . S
C896 C897 1.415 . S
C897 H867 0.950 . S
C897 C892 1.363 . S
C897 C896 1.415 . S
H898 C895 0.999 . S
H899 C880 0.913 . S
H900 C918 0.951 . S
H901 C920 0.951 . S
H902 C922 0.950 . S
H903 C923 0.950 . S
H904 C925 0.950 . S
H905 C928 0.950 . S
H906 C929 0.950 . S
H907 C931 0.950 . S
H908 C932 0.950 . S
H909 C933 0.951 1_655 S
H910 C935 0.951 1_655 S
H911 C937 0.950 . S
H912 C938 0.950 1_556 S
H913 C940 0.950 . S
H914 C943 0.950 . S
H915 C944 0.950 . S
H916 C946 0.950 . S
H917 C947 0.950 . S
C918 H900 0.951 . S
C918 C919 1.366 . S
C918 C920 1.388 . S
C919 C918 1.366 . S
C919 C923 1.385 1_455 S
C920 H901 0.951 . S
C920 C918 1.388 . S
C920 C921 1.366 . S
C921 C920 1.366 . S
C921 C922 1.414 1_455 S
C921 C924 1.499 . S
C922 H902 0.950 . S
C922 C921 1.414 1_655 S
C922 C923 1.374 . S
C923 H903 0.950 . S
C923 C919 1.385 1_655 S
C923 C922 1.374 . S
C924 C921 1.499 . S
C924 C925 1.373 . S
C924 C926 1.389 . S
C925 H904 0.950 . S
C925 C924 1.373 . S
C925 C941 1.377 . S
C926 C924 1.389 . S
C926 C927 1.524 . S
C926 C940 1.377 . S
C927 C926 1.524 . S
C927 C928 1.397 1_455 S
C927 C932 1.363 . S
C928 H905 0.950 . S
C928 C927 1.397 1_655 S
C928 C929 1.334 . S
C929 H906 0.950 . S
C929 C928 1.334 . S
C929 C930 1.287 1_655 S
C930 C929 1.287 1_455 S
C930 C931 1.524 . S
C930 H949 0.913 . S
C931 H907 0.950 . S
C931 C930 1.524 . S
C931 C932 1.415 . S
C932 H908 0.950 . S
C932 C927 1.363 . S
C932 C931 1.415 . S
C933 H909 0.951 1_455 S
C933 C934 1.366 . S
C933 C935 1.388 1_556 S
C934 C933 1.366 . S
C934 C938 1.385 1_556 S
C935 H910 0.951 1_455 S
C935 C933 1.388 1_554 S
C935 C936 1.366 . S
C936 C935 1.366 . S
C936 C937 1.414 . S
C936 C939 1.499 . S
C937 H911 0.950 . S
C937 C936 1.414 . S
C937 C938 1.374 . S
C938 H912 0.950 1_554 S
C938 C934 1.385 1_554 S
C938 C937 1.374 . S
C939 C936 1.499 . S
C939 C940 1.373 . S
C939 C941 1.389 . S
C940 H913 0.950 . S
C940 C926 1.377 . S
C940 C939 1.373 . S
C941 C925 1.377 . S
C941 C939 1.389 . S
C941 C942 1.524 . S
C942 C941 1.524 . S
C942 C943 1.397 . S
C942 C947 1.363 1_455 S
C943 H914 0.950 . S
C943 C942 1.397 . S
C943 C944 1.334 . S
C944 H915 0.950 . S
C944 C943 1.334 . S
C944 C945 1.287 . S
C945 C944 1.287 . S
C945 C946 1.524 1_455 S
C945 H948 0.999 . S
C946 H916 0.950 . S
C946 C945 1.524 1_655 S
C946 C947 1.415 . S
C947 H917 0.950 . S
C947 C942 1.363 1_655 S
C947 C946 1.415 . S
H948 C945 0.999 . S
H949 C930 0.913 . S
H950 C968 0.951 . S
H951 C970 0.951 . S
H952 C972 0.928 1_565 S
H953 C973 0.950 1_565 S
H954 C975 0.950 . S
H955 C978 0.950 . S
H956 C979 0.950 . S
H957 C981 0.950 . S
H958 C982 0.950 . S
H959 C983 0.951 . S
H960 C985 0.951 . S
H961 C987 0.950 . S
H962 C988 0.950 . S
H963 C990 0.950 . S
H964 C993 0.950 . S
H965 C994 0.950 . S
H966 C996 0.950 . S
H967 C997 0.950 . S
C968 H950 0.951 . S
C968 C969 1.366 . S
C968 C970 1.388 . S
C969 C968 1.366 . S
C969 C973 1.385 . S
C970 H951 0.951 . S
C970 C968 1.388 . S
C970 C971 1.366 . S
C971 C970 1.366 . S
C971 C972 1.414 . S
C971 C974 1.499 . S
C972 H952 0.928 1_545 S
C972 C971 1.414 . S
C972 C973 1.374 . S
C973 H953 0.950 1_545 S
C973 C969 1.385 . S
C973 C972 1.374 . S
C974 C971 1.499 . S
C974 C975 1.373 . S
C974 C976 1.389 . S
C975 H954 0.950 . S
C975 C974 1.373 . S
C975 C991 1.377 . S
C976 C974 1.389 . S
C976 C977 1.524 1_545 S
C976 C990 1.377 . S
C977 C976 1.524 1_565 S
C977 C978 1.397 . S
C977 C982 1.363 1_565 S
C978 H955 0.950 . S
C978 C977 1.397 . S
C978 C979 1.334 . S
C979 H956 0.950 . S
C979 C978 1.334 . S
C979 C980 1.287 . S
C980 C979 1.287 . S
C980 C981 1.524 . S
C980 H999 0.913 . S
C981 H957 0.950 . S
C981 C980 1.524 . S
C981 C982 1.415 1_565 S
C982 H958 0.950 . S
C982 C977 1.363 1_545 S
C982 C981 1.415 1_545 S
C983 H959 0.951 . S
C983 C984 1.366 . S
C983 C985 1.388 . S
C984 C983 1.366 . S
C984 C988 1.385 . S
C985 H960 0.951 . S
C985 C983 1.388 . S
C985 C986 1.366 . S
C986 C985 1.366 . S
C986 C987 1.414 . S
C986 C989 1.499 . S
C987 H961 0.950 . S
C987 C986 1.414 . S
C987 C988 1.374 . S
C988 H962 0.950 . S
C988 C984 1.385 . S
C988 C987 1.374 . S
C989 C986 1.499 . S
C989 C990 1.373 . S
C989 C991 1.389 . S
C990 H963 0.950 . S
C990 C976 1.377 . S
C990 C989 1.373 . S
C991 C975 1.377 . S
C991 C989 1.389 . S
C991 C992 1.524 . S
C992 C991 1.524 . S
C992 C993 1.397 . S
C992 C997 1.363 . S
C993 H964 0.950 . S
C993 C992 1.397 . S
C993 C994 1.334 . S
C994 H965 0.950 . S
C994 C993 1.334 . S
C994 C995 1.287 . S
C995 C994 1.287 . S
C995 C996 1.524 . S
C995 H998 0.999 . S
C996 H966 0.950 . S
C996 C995 1.524 . S
C996 C997 1.415 . S
C997 H967 0.950 . S
C997 C992 1.363 . S
C997 C996 1.415 . S
H998 C995 0.999 . S
H999 C980 0.913 . S
H1000 C1018 0.951 . S
H1001 C1020 0.951 . S
H1002 C1022 0.950 . S
H1003 C1023 0.950 . S
H1004 C1025 0.950 . S
H1005 C1028 0.950 . S
H1006 C1029 0.950 . S
H1007 C1031 0.950 . S
H1008 C1032 0.950 . S
H1009 C1033 0.951 . S
H1010 C1035 0.951 . S
H1011 C1037 0.950 . S
H1012 C1038 0.950 . S
H1013 C1040 0.950 . S
H1014 C1043 0.950 . S
H1015 C1044 0.950 . S
H1016 C1046 0.950 . S
H1017 C1047 0.950 . S
C1018 H1000 0.951 . S
C1018 C1019 1.366 . S
C1018 C1020 1.388 . S
C1019 C1018 1.366 . S
C1019 C1023 1.385 . S
C1020 H1001 0.951 . S
C1020 C1018 1.388 . S
C1020 C1021 1.366 . S
C1021 C1020 1.366 . S
C1021 C1022 1.414 . S
C1021 C1024 1.499 . S
C1022 H1002 0.950 . S
C1022 C1021 1.414 . S
C1022 C1023 1.374 . S
C1023 H1003 0.950 . S
C1023 C1019 1.385 . S
C1023 C1022 1.374 . S
C1024 C1021 1.499 . S
C1024 C1025 1.373 . S
C1024 C1026 1.389 . S
C1025 H1004 0.950 . S
C1025 C1024 1.373 . S
C1025 C1041 1.377 . S
C1026 C1024 1.389 . S
C1026 C1027 1.524 . S
C1026 C1040 1.377 . S
C1027 C1026 1.524 . S
C1027 C1028 1.397 . S
C1027 C1032 1.363 . S
C1028 H1005 0.950 . S
C1028 C1027 1.397 . S
C1028 C1029 1.334 . S
C1029 H1006 0.950 . S
C1029 C1028 1.334 . S
C1029 C1030 1.287 . S
C1030 C1029 1.287 . S
C1030 C1031 1.524 . S
C1030 H1049 0.913 . S
C1031 H1007 0.950 . S
C1031 C1030 1.524 . S
C1031 C1032 1.415 . S
C1032 H1008 0.950 . S
C1032 C1027 1.363 . S
C1032 C1031 1.415 . S
C1033 H1009 0.951 . S
C1033 C1034 1.366 . S
C1033 C1035 1.388 . S
C1034 C1033 1.366 . S
C1034 C1038 1.385 . S
C1035 H1010 0.951 . S
C1035 C1033 1.388 . S
C1035 C1036 1.366 . S
C1036 C1035 1.366 . S
C1036 C1037 1.414 . S
C1036 C1039 1.499 . S
C1037 H1011 0.950 . S
C1037 C1036 1.414 . S
C1037 C1038 1.374 . S
C1038 H1012 0.950 . S
C1038 C1034 1.385 . S
C1038 C1037 1.374 . S
C1039 C1036 1.499 . S
C1039 C1040 1.373 . S
C1039 C1041 1.389 . S
C1040 H1013 0.950 . S
C1040 C1026 1.377 . S
C1040 C1039 1.373 . S
C1041 C1025 1.377 . S
C1041 C1039 1.389 . S
C1041 C1042 1.524 . S
C1042 C1041 1.524 . S
C1042 C1043 1.397 . S
C1042 C1047 1.363 . S
C1043 H1014 0.950 . S
C1043 C1042 1.397 . S
C1043 C1044 1.334 . S
C1044 H1015 0.950 . S
C1044 C1043 1.334 . S
C1044 C1045 1.287 . S
C1045 C1044 1.287 . S
C1045 C1046 1.524 . S
C1045 H1048 0.999 . S
C1046 H1016 0.950 . S
C1046 C1045 1.524 . S
C1046 C1047 1.415 . S
C1047 H1017 0.950 . S
C1047 C1042 1.363 . S
C1047 C1046 1.415 . S
H1048 C1045 0.999 . S
H1049 C1030 0.913 . S
H1050 C1068 0.951 . S
H1051 C1070 0.951 . S
H1052 C1072 0.950 . S
H1053 C1073 0.950 . S
H1054 C1075 0.950 . S
H1055 C1078 0.950 . S
H1056 C1079 0.950 . S
H1057 C1081 0.950 . S
H1058 C1082 0.950 . S
H1059 C1083 0.951 . S
H1060 C1085 0.951 . S
H1061 C1087 0.950 . S
H1062 C1088 0.950 . S
H1063 C1090 0.950 . S
H1064 C1093 0.950 . S
H1065 C1094 0.950 . S
H1066 C1096 0.950 . S
H1067 C1097 0.950 1_565 S
C1068 H1050 0.951 . S
C1068 C1069 1.366 . S
C1068 C1070 1.388 . S
C1069 C1068 1.366 . S
C1069 C1073 1.385 1_545 S
C1070 H1051 0.951 . S
C1070 C1068 1.388 . S
C1070 C1071 1.366 . S
C1071 C1070 1.366 . S
C1071 C1072 1.414 1_545 S
C1071 C1074 1.499 . S
C1072 H1052 0.950 . S
C1072 C1071 1.414 1_565 S
C1072 C1073 1.374 . S
C1073 H1053 0.950 . S
C1073 C1069 1.385 1_565 S
C1073 C1072 1.374 . S
C1074 C1071 1.499 . S
C1074 C1075 1.373 . S
C1074 C1076 1.389 . S
C1075 H1054 0.950 . S
C1075 C1074 1.373 . S
C1075 C1091 1.377 . S
C1076 C1074 1.389 . S
C1076 C1077 1.524 . S
C1076 C1090 1.377 . S
C1077 C1076 1.524 . S
C1077 C1078 1.397 1_545 S
C1077 C1082 1.363 . S
C1078 H1055 0.950 . S
C1078 C1077 1.397 1_565 S
C1078 C1079 1.334 . S
C1079 H1056 0.950 . S
C1079 C1078 1.334 . S
C1079 C1080 1.287 . S
C1080 C1079 1.287 . S
C1080 C1081 1.524 1_565 S
C1080 H1099 0.913 . S
C1081 H1057 0.950 . S
C1081 C1080 1.524 1_545 S
C1081 C1082 1.415 . S
C1082 H1058 0.950 . S
C1082 C1077 1.363 . S
C1082 C1081 1.415 . S
C1083 H1059 0.951 . S
C1083 C1084 1.366 1_565 S
C1083 C1085 1.388 . S
C1084 C1083 1.366 1_545 S
C1084 C1088 1.385 . S
C1085 H1060 0.951 . S
C1085 C1083 1.388 . S
C1085 C1086 1.366 1_565 S
C1086 C1085 1.366 1_545 S
C1086 C1087 1.414 . S
C1086 C1089 1.499 . S
C1087 H1061 0.950 . S
C1087 C1086 1.414 . S
C1087 C1088 1.374 . S
C1088 H1062 0.950 . S
C1088 C1084 1.385 . S
C1088 C1087 1.374 . S
C1089 C1086 1.499 . S
C1089 C1090 1.373 . S
C1089 C1091 1.389 . S
C1090 H1063 0.950 . S
C1090 C1076 1.377 . S
C1090 C1089 1.373 . S
C1091 C1075 1.377 . S
C1091 C1089 1.389 . S
C1091 C1092 1.524 . S
C1092 C1091 1.524 . S
C1092 C1093 1.397 . S
C1092 C1097 1.363 . S
C1093 H1064 0.950 . S
C1093 C1092 1.397 . S
C1093 C1094 1.334 . S
C1094 H1065 0.950 . S
C1094 C1093 1.334 . S
C1094 C1095 1.287 . S
C1095 C1094 1.287 . S
C1095 C1096 1.524 . S
C1095 H1098 0.999 . S
C1096 H1066 0.950 . S
C1096 C1095 1.524 . S
C1096 C1097 1.415 . S
C1097 H1067 0.950 1_545 S
C1097 C1092 1.363 . S
C1097 C1096 1.415 . S
H1098 C1095 0.999 . S
H1099 C1080 0.913 . S
H1100 C1118 0.951 . S
H1101 C1120 0.951 . S
H1102 C1122 0.950 . S
H1103 C1123 0.950 . S
H1104 C1125 0.950 . S
H1105 C1128 0.950 . S
H1106 C1129 0.950 . S
H1107 C1131 0.950 . S
H1108 C1132 0.950 . S
H1109 C1133 0.951 . S
H1110 C1135 0.951 . S
H1111 C1137 0.950 . S
H1112 C1138 0.950 1_554 S
H1113 C1140 0.950 . S
H1114 C1143 0.950 . S
H1115 C1144 0.950 . S
H1116 C1146 0.950 . S
H1117 C1147 0.950 . S
C1118 H1100 0.951 . S
C1118 C1119 1.366 . S
C1118 C1120 1.388 . S
C1119 C1118 1.366 . S
C1119 C1123 1.385 . S
C1120 H1101 0.951 . S
C1120 C1118 1.388 . S
C1120 C1121 1.366 . S
C1121 C1120 1.366 . S
C1121 C1122 1.414 . S
C1121 C1124 1.499 . S
C1122 H1102 0.950 . S
C1122 C1121 1.414 . S
C1122 C1123 1.374 . S
C1123 H1103 0.950 . S
C1123 C1119 1.385 . S
C1123 C1122 1.374 . S
C1124 C1121 1.499 . S
C1124 C1125 1.373 . S
C1124 C1126 1.389 . S
C1125 H1104 0.950 . S
C1125 C1124 1.373 . S
C1125 C1141 1.377 . S
C1126 C1124 1.389 . S
C1126 C1127 1.524 . S
C1126 C1140 1.377 . S
C1127 C1126 1.524 . S
C1127 C1128 1.397 . S
C1127 C1132 1.363 . S
C1128 H1105 0.950 . S
C1128 C1127 1.397 . S
C1128 C1129 1.334 . S
C1129 H1106 0.950 . S
C1129 C1128 1.334 . S
C1129 C1130 1.287 . S
C1130 C1129 1.287 . S
C1130 C1131 1.524 . S
C1130 H1149 0.913 . S
C1131 H1107 0.950 . S
C1131 C1130 1.524 . S
C1131 C1132 1.415 . S
C1132 H1108 0.950 . S
C1132 C1127 1.363 . S
C1132 C1131 1.415 . S
C1133 H1109 0.951 . S
C1133 C1134 1.366 . S
C1133 C1135 1.388 1_554 S
C1134 C1133 1.366 . S
C1134 C1138 1.385 1_554 S
C1135 H1110 0.951 . S
C1135 C1133 1.388 1_556 S
C1135 C1136 1.366 . S
C1136 C1135 1.366 . S
C1136 C1137 1.414 . S
C1136 C1139 1.499 . S
C1137 H1111 0.950 . S
C1137 C1136 1.414 . S
C1137 C1138 1.374 . S
C1138 H1112 0.950 1_556 S
C1138 C1134 1.385 1_556 S
C1138 C1137 1.374 . S
C1139 C1136 1.499 . S
C1139 C1140 1.373 . S
C1139 C1141 1.389 . S
C1140 H1113 0.950 . S
C1140 C1126 1.377 . S
C1140 C1139 1.373 . S
C1141 C1125 1.377 . S
C1141 C1139 1.389 . S
C1141 C1142 1.524 . S
C1142 C1141 1.524 . S
C1142 C1143 1.397 . S
C1142 C1147 1.363 . S
C1143 H1114 0.950 . S
C1143 C1142 1.397 . S
C1143 C1144 1.334 . S
C1144 H1115 0.950 . S
C1144 C1143 1.334 . S
C1144 C1145 1.287 . S
C1145 C1144 1.287 . S
C1145 C1146 1.524 . S
C1145 H1148 0.999 . S
C1146 H1116 0.950 . S
C1146 C1145 1.524 . S
C1146 C1147 1.415 . S
C1147 H1117 0.950 . S
C1147 C1142 1.363 . S
C1147 C1146 1.415 . S
H1148 C1145 0.999 . S
H1149 C1130 0.913 . S
H1150 C1168 0.951 . S
H1151 C1170 0.951 . S
H1152 C1172 0.950 . S
H1153 C1173 0.950 . S
H1154 C1175 0.950 . S
H1155 C1178 0.950 . S
H1156 C1179 0.950 . S
H1157 C1181 0.950 . S
H1158 C1182 0.950 . S
H1159 C1183 0.951 . S
H1160 C1185 0.951 . S
H1161 C1187 0.950 . S
H1162 C1188 0.950 . S
H1163 C1190 0.950 . S
H1164 C1193 0.950 . S
H1165 C1194 0.950 . S
H1166 C1196 0.950 . S
H1167 C1197 0.950 . S
C1168 H1150 0.951 . S
C1168 C1169 1.368 1_655 S
C1168 C1170 1.388 . S
C1169 C1168 1.368 1_455 S
C1169 C1173 1.383 . S
C1170 H1151 0.951 . S
C1170 C1168 1.388 . S
C1170 C1171 1.370 1_655 S
C1171 C1170 1.370 1_455 S
C1171 C1172 1.411 . S
C1171 C1174 1.500 . S
C1172 H1152 0.950 . S
C1172 C1171 1.411 . S
C1172 C1173 1.374 . S
C1173 H1153 0.950 . S
C1173 C1169 1.383 . S
C1173 C1172 1.374 . S
C1174 C1171 1.500 . S
C1174 C1175 1.373 . S
C1174 C1176 1.389 1_455 S
C1175 H1154 0.950 . S
C1175 C1174 1.373 . S
C1175 C1191 1.377 . S
C1176 C1174 1.389 1_655 S
C1176 C1177 1.524 . S
C1176 C1190 1.377 . S
C1177 C1176 1.524 . S
C1177 C1178 1.397 . S
C1177 C1182 1.363 . S
C1178 H1155 0.950 . S
C1178 C1177 1.397 . S
C1178 C1179 1.334 . S
C1179 H1156 0.950 . S
C1179 C1178 1.334 . S
C1179 C1180 1.287 . S
C1180 C1179 1.287 . S
C1180 C1181 1.524 . S
C1180 H1199 0.913 . S
C1181 H1157 0.950 . S
C1181 C1180 1.524 . S
C1181 C1182 1.415 . S
C1182 H1158 0.950 . S
C1182 C1177 1.363 . S
C1182 C1181 1.415 . S
C1183 H1159 0.951 . S
C1183 C1184 1.366 . S
C1183 C1185 1.388 . S
C1184 C1183 1.366 . S
C1184 C1188 1.385 1_455 S
C1185 H1160 0.951 . S
C1185 C1183 1.388 . S
C1185 C1186 1.366 . S
C1186 C1185 1.366 . S
C1186 C1187 1.414 1_455 S
C1186 C1189 1.499 . S
C1187 H1161 0.950 . S
C1187 C1186 1.414 1_655 S
C1187 C1188 1.374 . S
C1188 H1162 0.950 . S
C1188 C1184 1.385 1_655 S
C1188 C1187 1.374 . S
C1189 C1186 1.499 . S
C1189 C1190 1.373 1_455 S
C1189 C1191 1.389 . S
C1190 H1163 0.950 . S
C1190 C1176 1.377 . S
C1190 C1189 1.373 1_655 S
C1191 C1175 1.377 . S
C1191 C1189 1.389 . S
C1191 C1192 1.524 . S
C1192 C1191 1.524 . S
C1192 C1193 1.397 . S
C1192 C1197 1.363 . S
C1193 H1164 0.950 . S
C1193 C1192 1.397 . S
C1193 C1194 1.334 . S
C1194 H1165 0.950 . S
C1194 C1193 1.334 . S
C1194 C1195 1.287 . S
C1195 C1194 1.287 . S
C1195 C1196 1.524 . S
C1195 H1198 0.999 . S
C1196 H1166 0.950 . S
C1196 C1195 1.524 . S
C1196 C1197 1.415 . S
C1197 H1167 0.950 . S
C1197 C1192 1.363 . S
C1197 C1196 1.415 . S
H1198 C1195 0.999 . S
H1199 C1180 0.913 . S
C319 C2 1.305 . S
C334 C275 1.369 . S
C369 C22 1.254 . S
C384 C182 1.338 . S
C419 C44 1.332 . S
C434 C222 1.406 . S
C469 C4 1.539 . S
C484 C262 1.622 . S
C534 C195 1.667 . S
C519 C24 1.612 . S
C584 C235 1.576 . S
C569 C42 1.508 . S
C619 C32 1.299 . S
C634 C102 1.307 . S
C669 C49 1.222 . S
C684 C142 1.225 . S
C719 C9 1.235 . S
C734 C75 1.238 . S
C784 C115 1.219 . S
C769 C29 1.197 . S
C834 C155 1.287 . S
C819 C52 1.255 . S
C869 C12 1.227 . S
C884 C62 1.267 . S
C934 C161 1.423 . S
C919 C18 1.429 1_455 S
C969 C38 1.430 . S
C984 C81 1.442 . S
C1019 C58 1.422 . S
C1034 C121 1.427 . S
C1084 C241 1.493 . S
C1069 C39 1.487 . S
C1134 C281 1.477 . S
C1119 C59 1.463 . S
C1169 C19 1.472 . S
C1184 C201 1.487 . S
