# Generated by pormake.
# Topology ocu, (6,8)-cn, num edge types: 1
# Building blocks:
#     Node 0, Type 0, BuildingBlock: JUFBIX_clean_sbu_0, # of connection points: 6
#     Node 1, Type 0, BuildingBlock: JUFBIX_clean_sbu_0, # of connection points: 6
#     Node 2, Type 0, BuildingBlock: JUFBIX_clean_sbu_0, # of connection points: 6
#     Node 3, Type 0, BuildingBlock: JUFBIX_clean_sbu_0, # of connection points: 6
#     Node 4, Type 0, BuildingBlock: JUFBIX_clean_sbu_0, # of connection points: 6
#     Node 5, Type 0, BuildingBlock: JUFBIX_clean_sbu_0, # of connection points: 6
#     Node 6, Type 0, BuildingBlock: JUFBIX_clean_sbu_0, # of connection points: 6
#     Node 7, Type 0, BuildingBlock: JUFBIX_clean_sbu_0, # of connection points: 6
#     Node 8, Type 1, BuildingBlock: AJUNOK_clean_sbu_0, # of connection points: 8
#     Node 9, Type 1, BuildingBlock: AJUNOK_clean_sbu_0, # of connection points: 8
#     Node 10, Type 1, BuildingBlock: AJUNOK_clean_sbu_0, # of connection points: 8
#     Node 11, Type 1, BuildingBlock: AJUNOK_clean_sbu_0, # of connection points: 8
#     Node 12, Type 1, BuildingBlock: AJUNOK_clean_sbu_0, # of connection points: 8
#     Node 13, Type 1, BuildingBlock: AJUNOK_clean_sbu_0, # of connection points: 8
#     Edge 14, Type (0, 1), BuildingBlock: XIVTED_clean_linker_0, # of connection points: 2
#     Edge 15, Type (0, 1), BuildingBlock: XIVTED_clean_linker_0, # of connection points: 2
#     Edge 16, Type (0, 1), BuildingBlock: XIVTED_clean_linker_0, # of connection points: 2
#     Edge 17, Type (0, 1), BuildingBlock: XIVTED_clean_linker_0, # of connection points: 2
#     Edge 18, Type (0, 1), BuildingBlock: XIVTED_clean_linker_0, # of connection points: 2
#     Edge 19, Type (0, 1), BuildingBlock: XIVTED_clean_linker_0, # of connection points: 2
#     Edge 20, Type (0, 1), BuildingBlock: XIVTED_clean_linker_0, # of connection points: 2
#     Edge 21, Type (0, 1), BuildingBlock: XIVTED_clean_linker_0, # of connection points: 2
#     Edge 22, Type (0, 1), BuildingBlock: XIVTED_clean_linker_0, # of connection points: 2
#     Edge 23, Type (0, 1), BuildingBlock: XIVTED_clean_linker_0, # of connection points: 2
#     Edge 24, Type (0, 1), BuildingBlock: XIVTED_clean_linker_0, # of connection points: 2
#     Edge 25, Type (0, 1), BuildingBlock: XIVTED_clean_linker_0, # of connection points: 2
#     Edge 26, Type (0, 1), BuildingBlock: XIVTED_clean_linker_0, # of connection points: 2
#     Edge 27, Type (0, 1), BuildingBlock: XIVTED_clean_linker_0, # of connection points: 2
#     Edge 28, Type (0, 1), BuildingBlock: XIVTED_clean_linker_0, # of connection points: 2
#     Edge 29, Type (0, 1), BuildingBlock: XIVTED_clean_linker_0, # of connection points: 2
#     Edge 30, Type (0, 1), BuildingBlock: XIVTED_clean_linker_0, # of connection points: 2
#     Edge 31, Type (0, 1), BuildingBlock: XIVTED_clean_linker_0, # of connection points: 2
#     Edge 32, Type (0, 1), BuildingBlock: XIVTED_clean_linker_0, # of connection points: 2
#     Edge 33, Type (0, 1), BuildingBlock: XIVTED_clean_linker_0, # of connection points: 2
#     Edge 34, Type (0, 1), BuildingBlock: XIVTED_clean_linker_0, # of connection points: 2
#     Edge 35, Type (0, 1), BuildingBlock: XIVTED_clean_linker_0, # of connection points: 2
#     Edge 36, Type (0, 1), BuildingBlock: XIVTED_clean_linker_0, # of connection points: 2
#     Edge 37, Type (0, 1), BuildingBlock: XIVTED_clean_linker_0, # of connection points: 2
#     Edge 38, Type (0, 1), BuildingBlock: XIVTED_clean_linker_0, # of connection points: 2
#     Edge 39, Type (0, 1), BuildingBlock: XIVTED_clean_linker_0, # of connection points: 2
#     Edge 40, Type (0, 1), BuildingBlock: XIVTED_clean_linker_0, # of connection points: 2
#     Edge 41, Type (0, 1), BuildingBlock: XIVTED_clean_linker_0, # of connection points: 2
#     Edge 42, Type (0, 1), BuildingBlock: XIVTED_clean_linker_0, # of connection points: 2
#     Edge 43, Type (0, 1), BuildingBlock: XIVTED_clean_linker_0, # of connection points: 2
#     Edge 44, Type (0, 1), BuildingBlock: XIVTED_clean_linker_0, # of connection points: 2
#     Edge 45, Type (0, 1), BuildingBlock: XIVTED_clean_linker_0, # of connection points: 2
#     Edge 46, Type (0, 1), BuildingBlock: XIVTED_clean_linker_0, # of connection points: 2
#     Edge 47, Type (0, 1), BuildingBlock: XIVTED_clean_linker_0, # of connection points: 2
#     Edge 48, Type (0, 1), BuildingBlock: XIVTED_clean_linker_0, # of connection points: 2
#     Edge 49, Type (0, 1), BuildingBlock: XIVTED_clean_linker_0, # of connection points: 2
#     Edge 50, Type (0, 1), BuildingBlock: XIVTED_clean_linker_0, # of connection points: 2
#     Edge 51, Type (0, 1), BuildingBlock: XIVTED_clean_linker_0, # of connection points: 2
#     Edge 52, Type (0, 1), BuildingBlock: XIVTED_clean_linker_0, # of connection points: 2
#     Edge 53, Type (0, 1), BuildingBlock: XIVTED_clean_linker_0, # of connection points: 2
#     Edge 54, Type (0, 1), BuildingBlock: XIVTED_clean_linker_0, # of connection points: 2
#     Edge 55, Type (0, 1), BuildingBlock: XIVTED_clean_linker_0, # of connection points: 2
#     Edge 56, Type (0, 1), BuildingBlock: XIVTED_clean_linker_0, # of connection points: 2
#     Edge 57, Type (0, 1), BuildingBlock: XIVTED_clean_linker_0, # of connection points: 2
#     Edge 58, Type (0, 1), BuildingBlock: XIVTED_clean_linker_0, # of connection points: 2
#     Edge 59, Type (0, 1), BuildingBlock: XIVTED_clean_linker_0, # of connection points: 2
#     Edge 60, Type (0, 1), BuildingBlock: XIVTED_clean_linker_0, # of connection points: 2
#     Edge 61, Type (0, 1), BuildingBlock: XIVTED_clean_linker_0, # of connection points: 2
# Relax obj value: 0.263
# Max RMSD: 0.343
# Mean RMSD: 0.231
data_MOF--net-ocu--node1-JUFBIX_clean_sbu_0--node2-AJUNOK_clean_sbu_0--edge1-XIVTED_clean_linker_0
_symmetry_space_group_name_H-M    P1
_symmetry_Int_Tables_number       1
_symmetry_cell_setting            triclinic
loop_
_symmetry_equiv_pos_as_xyz
'x, y, z'
_cell_length_a     42.007491
_cell_length_b     42.444983
_cell_length_c     35.953138
_cell_angle_alpha  99.953892
_cell_angle_beta   99.619093
_cell_angle_gamma 100.66663
loop_
_atom_site_label
_atom_site_type_symbol
_atom_site_fract_x
_atom_site_fract_y
_atom_site_fract_z
_atom_type_partial_charge
Co0 Co 0.24252 0.24189 0.24499 0.0
C1 C 0.24046 0.2928 0.30508 0.0
Co2 Co 0.28716 0.28194 0.26131 0.0
C3 C 0.19105 0.19559 0.25891 0.0
C4 C 0.18597 0.19247 0.19817 0.0
N5 N 0.20498 0.20887 0.23263 0.0
N6 N 0.16422 0.17142 0.24264 0.0
C7 C 0.16064 0.16937 0.20429 0.0
H8 H 0.20031 0.20404 0.28967 0.0
H9 H 0.19029 0.19695 0.17052 0.0
C10 C 0.28855 0.23047 0.20119 0.0
N11 N 0.32564 0.31479 0.27428 0.0
C12 C 0.32938 0.34665 0.27208 0.0
C13 C 0.35672 0.31069 0.28458 0.0
N14 N 0.36161 0.36247 0.27975 0.0
C15 C 0.37876 0.33979 0.288 0.0
C16 C 0.29234 0.23094 0.29961 0.0
O17 O 0.25978 0.21926 0.20621 0.0
O18 O 0.30476 0.25833 0.22128 0.0
O19 O 0.30696 0.25907 0.2966 0.0
O20 O 0.26303 0.21902 0.28043 0.0
O21 O 0.26936 0.30495 0.30083 0.0
H22 H 0.36318 0.28754 0.28715 0.0
H23 H 0.30882 0.35753 0.26314 0.0
O24 O 0.22509 0.26501 0.28436 0.0
O25 O 0.22234 0.26441 0.20966 0.0
O26 O 0.2665 0.30458 0.22578 0.0
C27 C 0.23712 0.29251 0.2066 0.0
H28 H 0.14141 0.15232 0.18236 0.0
H29 H 0.4054 0.34305 0.2929 0.0
Co30 Co 0.75867 0.25081 0.2223 0.0
C31 C 0.77454 0.30865 0.27734 0.0
Co32 Co 0.72588 0.25263 0.26411 0.0
C33 C 0.78358 0.24986 0.15206 0.0
C34 C 0.82009 0.24619 0.19934 0.0
N35 N 0.78825 0.24838 0.18972 0.0
N36 N 0.8113 0.24909 0.13796 0.0
C37 C 0.83421 0.24652 0.16769 0.0
H38 H 0.76073 0.25289 0.13562 0.0
H39 H 0.83296 0.24612 0.22798 0.0
C40 C 0.71059 0.19469 0.20912 0.0
N41 N 0.69626 0.25477 0.2966 0.0
C42 C 0.70126 0.2546 0.33462 0.0
C43 C 0.66383 0.25454 0.2863 0.0
N44 N 0.67318 0.25387 0.34832 0.0
C45 C 0.64969 0.25412 0.31792 0.0
C46 C 0.70569 0.27656 0.19739 0.0
O47 O 0.73461 0.20881 0.19648 0.0
O48 O 0.70219 0.2097 0.23845 0.0
O49 O 0.69901 0.27093 0.22907 0.0
O50 O 0.7319 0.26994 0.18807 0.0
O51 O 0.7499 0.29523 0.28965 0.0
H52 H 0.65069 0.25276 0.25723 0.0
H53 H 0.72467 0.25342 0.35158 0.0
O54 O 0.78286 0.29314 0.24829 0.0
O55 O 0.78483 0.23152 0.25678 0.0
O56 O 0.75287 0.23411 0.29872 0.0
C57 C 0.77829 0.22615 0.28861 0.0
H58 H 0.86017 0.24772 0.1676 0.0
H59 H 0.62348 0.25115 0.31761 0.0
Co60 Co 0.75443 0.73396 0.29222 0.0
C61 C 0.79693 0.77721 0.26187 0.0
Co62 Co 0.73608 0.7393 0.23286 0.0
C63 C 0.78241 0.70903 0.35744 0.0
C64 C 0.78287 0.76014 0.37216 0.0
N65 N 0.77299 0.73374 0.34264 0.0
N66 N 0.79791 0.71902 0.39493 0.0
C67 C 0.79809 0.75117 0.40428 0.0
H68 H 0.77951 0.68463 0.34045 0.0
H69 H 0.78033 0.78472 0.37017 0.0
C70 C 0.69381 0.69514 0.26279 0.0
N71 N 0.71767 0.74087 0.18295 0.0
C72 C 0.70971 0.76751 0.17168 0.0
C73 C 0.70374 0.71584 0.15251 0.0
N74 N 0.69027 0.76013 0.13621 0.0
C75 C 0.68676 0.72768 0.12364 0.0
C76 C 0.77321 0.69146 0.23629 0.0
O77 O 0.71659 0.70195 0.29287 0.0
O78 O 0.69792 0.70843 0.23436 0.0
O79 O 0.75624 0.705 0.21371 0.0
O80 O 0.77555 0.70016 0.27254 0.0
O81 O 0.77434 0.77024 0.23169 0.0
H82 H 0.70352 0.69032 0.15255 0.0
H83 H 0.71562 0.79158 0.19043 0.0
O84 O 0.79216 0.76511 0.29091 0.0
O85 O 0.73318 0.76796 0.31122 0.0
O86 O 0.71613 0.77369 0.25255 0.0
C87 C 0.71764 0.78234 0.28846 0.0
H88 H 0.80923 0.76731 0.432 0.0
H89 H 0.67036 0.71312 0.09735 0.0
Co90 Co 0.23428 0.76424 0.24897 0.0
C91 C 0.29333 0.77291 0.30372 0.0
Co92 Co 0.26348 0.72717 0.23793 0.0
C93 C 0.20845 0.80968 0.29602 0.0
C94 C 0.20322 0.8178 0.23836 0.0
N95 N 0.2131 0.79752 0.2607 0.0
N96 N 0.19657 0.83705 0.29687 0.0
C97 C 0.19311 0.84231 0.26067 0.0
H98 H 0.21527 0.79958 0.32111 0.0
H99 H 0.20449 0.81559 0.20824 0.0
C100 C 0.20475 0.71914 0.18299 0.0
N101 N 0.28471 0.69348 0.22671 0.0
C102 C 0.28398 0.67575 0.1915 0.0
C103 C 0.29949 0.67785 0.25187 0.0
N104 N 0.29705 0.64925 0.19361 0.0
C105 C 0.30711 0.65063 0.2316 0.0
C106 C 0.21596 0.71134 0.28287 0.0
O107 O 0.20124 0.74531 0.20347 0.0
O108 O 0.22953 0.70732 0.19371 0.0
O109 O 0.23947 0.70219 0.26885 0.0
O110 O 0.20888 0.73823 0.27726 0.0
O111 O 0.29752 0.74757 0.28223 0.0
H112 H 0.30301 0.6849 0.28291 0.0
H113 H 0.27232 0.68114 0.16485 0.0
O114 O 0.26729 0.78332 0.29448 0.0
O115 O 0.25967 0.7901 0.2206 0.0
O116 O 0.2873 0.75213 0.20706 0.0
C117 C 0.28154 0.78012 0.20402 0.0
H118 H 0.18426 0.86257 0.25117 0.0
H119 H 0.31849 0.63288 0.24394 0.0
Co120 Co 0.26427 0.74927 0.72218 0.0
C121 C 0.27745 0.80612 0.77847 0.0
Co122 Co 0.23114 0.74819 0.76385 0.0
C123 C 0.28724 0.75068 0.65118 0.0
C124 C 0.3264 0.75199 0.69823 0.0
N125 N 0.29349 0.74981 0.68899 0.0
N126 N 0.31496 0.75381 0.63662 0.0
C127 C 0.33961 0.75435 0.66615 0.0
H128 H 0.26308 0.7506 0.63498 0.0
H129 H 0.34034 0.75371 0.72691 0.0
C130 C 0.21777 0.69132 0.70761 0.0
N131 N 0.20182 0.74777 0.79743 0.0
C132 C 0.20606 0.74121 0.83319 0.0
C133 C 0.17078 0.7529 0.79056 0.0
N134 N 0.17897 0.7419 0.84861 0.0
C135 C 0.15681 0.74938 0.82181 0.0
C136 C 0.20932 0.77319 0.69869 0.0
O137 O 0.24169 0.70644 0.6955 0.0
O138 O 0.20892 0.70538 0.73715 0.0
O139 O 0.20268 0.76638 0.72996 0.0
O140 O 0.23574 0.76749 0.68917 0.0
O141 O 0.25356 0.79089 0.79047 0.0
H142 H 0.15823 0.75759 0.76402 0.0
H143 H 0.2282 0.73515 0.84741 0.0
O144 O 0.28645 0.79215 0.74898 0.0
O145 O 0.2928 0.73137 0.75555 0.0
O146 O 0.26021 0.73005 0.79692 0.0
C147 C 0.28673 0.72483 0.7871 0.0
H148 H 0.36572 0.75902 0.66554 0.0
H149 H 0.13144 0.75003 0.82348 0.0
Co150 Co 0.25573 0.24379 0.76935 0.0
C151 C 0.30675 0.29891 0.78352 0.0
Co152 Co 0.2584 0.26775 0.71987 0.0
C153 C 0.25932 0.19236 0.80946 0.0
C154 C 0.26096 0.23718 0.84821 0.0
N155 N 0.25579 0.22331 0.81047 0.0
N156 N 0.26889 0.18675 0.84499 0.0
C157 C 0.26911 0.21476 0.86953 0.0
H158 H 0.2581 0.17536 0.78287 0.0
H159 H 0.26232 0.26284 0.85942 0.0
C160 C 0.20644 0.21358 0.70676 0.0
N161 N 0.25799 0.28774 0.67783 0.0
C162 C 0.24783 0.31564 0.67481 0.0
C163 C 0.25769 0.27325 0.64124 0.0
N164 N 0.23892 0.31811 0.6378 0.0
C165 C 0.24597 0.29188 0.61659 0.0
C166 C 0.29455 0.22003 0.71867 0.0
O167 O 0.21847 0.21207 0.74102 0.0
O168 O 0.22051 0.23582 0.69169 0.0
O169 O 0.28621 0.24119 0.70032 0.0
O170 O 0.2844 0.21766 0.74963 0.0
O171 O 0.29589 0.29988 0.7486 0.0
H172 H 0.26167 0.24883 0.63254 0.0
H173 H 0.24321 0.33201 0.6989 0.0
O174 O 0.29296 0.27597 0.79782 0.0
O175 O 0.22733 0.2697 0.78864 0.0
O176 O 0.23023 0.29401 0.74002 0.0
C177 C 0.21927 0.29102 0.77036 0.0
H178 H 0.27844 0.22017 0.9004 0.0
H179 H 0.23883 0.28432 0.58547 0.0
Co180 Co 0.73555 0.26732 0.75528 0.0
C181 C 0.79501 0.27038 0.80644 0.0
Co182 Co 0.76263 0.22962 0.73828 0.0
C183 C 0.71043 0.30906 0.80817 0.0
C184 C 0.70747 0.32402 0.75398 0.0
N185 N 0.71597 0.30071 0.77231 0.0
N186 N 0.69915 0.33681 0.8131 0.0
C187 C 0.69723 0.34644 0.77918 0.0
H188 H 0.71589 0.2958 0.83077 0.0
H189 H 0.70944 0.32511 0.7246 0.0
C190 C 0.70297 0.22627 0.68733 0.0
N191 N 0.7819 0.19604 0.72117 0.0
C192 C 0.78486 0.18619 0.68449 0.0
C193 C 0.79099 0.1731 0.73978 0.0
N194 N 0.79486 0.15775 0.67923 0.0
C195 C 0.79889 0.14935 0.71389 0.0
C196 C 0.71683 0.21126 0.78418 0.0
O197 O 0.70048 0.25126 0.71089 0.0
O198 O 0.72787 0.21373 0.69446 0.0
O199 O 0.73837 0.20193 0.76646 0.0
O200 O 0.71134 0.23959 0.78308 0.0
O201 O 0.79782 0.24583 0.78242 0.0
H202 H 0.79056 0.17297 0.76975 0.0
H203 H 0.77805 0.19871 0.66157 0.0
O204 O 0.77006 0.28294 0.79955 0.0
O205 O 0.76022 0.29522 0.72738 0.0
O206 O 0.78652 0.25707 0.71 0.0
C207 C 0.7814 0.28558 0.7092 0.0
H208 H 0.68911 0.36814 0.77315 0.0
H209 H 0.8066 0.12746 0.71991 0.0
Co210 Co 0.72222 0.71987 0.73138 0.0
C211 C 0.71524 0.76528 0.79424 0.0
Co212 Co 0.76523 0.76137 0.754 0.0
C213 C 0.68686 0.65314 0.71326 0.0
C214 C 0.65405 0.68553 0.70598 0.0
N215 N 0.68635 0.6848 0.71369 0.0
N216 N 0.65628 0.63416 0.70853 0.0
C217 C 0.63555 0.65451 0.70279 0.0
H218 H 0.70955 0.64488 0.7201 0.0
H219 H 0.64465 0.70763 0.70656 0.0
C220 C 0.77243 0.71605 0.69115 0.0
N221 N 0.80161 0.79631 0.77165 0.0
C222 C 0.80361 0.82715 0.76612 0.0
C223 C 0.83314 0.79478 0.78498 0.0
N224 N 0.83518 0.84428 0.77276 0.0
C225 C 0.85374 0.82416 0.78576 0.0
C226 C 0.77145 0.70836 0.78728 0.0
O227 O 0.74331 0.70208 0.69261 0.0
O228 O 0.78642 0.74298 0.71476 0.0
O229 O 0.78527 0.73764 0.78771 0.0
O230 O 0.74316 0.69603 0.76556 0.0
O231 O 0.74434 0.77922 0.79266 0.0
H232 H 0.84113 0.77277 0.78987 0.0
H233 H 0.78254 0.83589 0.75374 0.0
O234 O 0.70108 0.73833 0.77069 0.0
O235 O 0.70181 0.74347 0.69789 0.0
O236 O 0.74403 0.78507 0.71971 0.0
C237 C 0.71548 0.77286 0.69847 0.0
H238 H 0.60914 0.64864 0.70153 0.0
H239 H 0.88047 0.82855 0.79038 0.0
Cd240 Cd 0.97554 0.95944 0.5287 0.0
Cd241 Cd -0.00238 0.0282 0.45225 0.0
C242 C 0.04842 0.94133 0.5412 0.0
N243 N 0.0155 0.92763 0.5294 0.0
C244 C 0.02499 0.87499 0.53661 0.0
C245 C 0.0588 0.88876 0.55155 0.0
C246 C 0.0707 0.92215 0.5522 0.0
C247 C 0.00369 0.89498 0.52582 0.0
H248 H 0.0571 0.9675 0.54466 0.0
H249 H 0.97733 0.88487 0.51706 0.0
C250 C 0.95702 0.94565 0.42485 0.0
C251 C 0.92621 0.03925 0.42263 0.0
C252 C 0.90313 0.05721 0.41104 0.0
C253 C 0.90812 0.09045 0.42855 0.0
C254 C 0.93501 0.10414 0.45965 0.0
C255 C 0.95742 0.0851 0.47064 0.0
N256 N 0.95302 0.05357 0.45137 0.0
H257 H 0.92397 0.01457 0.40685 0.0
H258 H 0.9797 0.09625 0.49227 0.0
C259 C 0.03846 0.97487 0.42708 0.0
N260 N 0.04139 0.00154 0.45544 0.0
C261 C 0.09551 -0.00316 0.48411 0.0
C262 C 0.09217 0.96848 0.45607 0.0
C263 C 0.06336 0.95752 0.42729 0.0
C264 C 0.0695 0.01314 0.4833 0.0
H265 H 0.01726 0.96744 0.40352 0.0
H266 H 0.07212 0.0354 0.5044 0.0
C267 C 0.02297 0.03304 0.55421 0.0
C268 C 0.94187 0.93391 0.58246 0.0
N269 N 0.94029 0.99455 0.51627 0.0
C270 C 0.9441 0.02152 0.54455 0.0
C271 C 0.92222 0.04217 0.54205 0.0
C272 C 0.89485 0.03404 0.51132 0.0
C273 C 0.89044 0.00544 0.48317 0.0
C274 C 0.91384 0.98597 0.48606 0.0
C275 C 0.02813 0.06647 0.40653 0.0
O276 O 0.96108 0.93786 0.45784 0.0
O277 O 0.96525 0.97498 0.42074 0.0
O278 O 0.01402 0.03117 0.51855 0.0
O279 O 0.01539 0.00771 0.56769 0.0
O280 O 0.92994 0.92357 0.54658 0.0
O281 O 0.96938 0.95425 0.59207 0.0
O282 O 0.03486 0.07568 0.44311 0.0
O283 O 0.00671 0.04002 0.39185 0.0
H284 H 0.963 0.0262 0.57033 0.0
H285 H 0.90983 0.96323 0.46535 0.0
H286 H 0.0148 0.8493 0.53503 0.0
H287 H 0.0965 0.93386 0.56373 0.0
H288 H 0.88271 0.0458 0.38695 0.0
H289 H 0.93992 0.12982 0.47347 0.0
H290 H 0.11801 0.00638 0.50593 0.0
H291 H 0.06075 0.93651 0.40418 0.0
H292 H 0.9254 0.06308 0.56546 0.0
H293 H 0.86884 -0.00208 0.45986 0.0
Cd294 Cd 0.45786 0.97351 0.03485 0.0
Cd295 Cd 0.53981 0.01631 0.95201 0.0
C296 C 0.50717 0.93797 0.0791 0.0
N297 N 0.49412 0.93961 0.04252 0.0
C298 C 0.52229 0.89981 0.01646 0.0
C299 C 0.53599 0.89748 0.05401 0.0
C300 C 0.52856 0.91728 0.08555 0.0
C301 C 0.50111 0.92116 0.01135 0.0
H302 H 0.50092 0.95285 0.10326 0.0
H303 H 0.48975 0.92262 0.98261 0.0
C304 C 0.46247 0.97341 0.93339 0.0
C305 C 0.49025 0.04839 0.90251 0.0
C306 C 0.46379 0.0628 0.89264 0.0
C307 C 0.44848 0.07621 0.92157 0.0
C308 C 0.4609 0.07542 0.96011 0.0
C309 C 0.48708 0.06013 0.9686 0.0
N310 N 0.50064 0.04656 0.93976 0.0
H311 H 0.50153 0.03718 0.88025 0.0
H312 H 0.49609 0.05845 -0.00199 0.0
C313 C 0.54414 0.93883 0.9316 0.0
N314 N 0.5628 0.96998 0.94207 0.0
C315 C 0.61171 0.95053 0.93439 0.0
C316 C 0.59309 0.91806 0.92244 0.0
C317 C 0.55889 0.91236 0.92185 0.0
C318 C 0.59603 0.97614 0.9442 0.0
H319 H 0.51772 0.93453 0.92982 0.0
H320 H 0.61022 0.00118 0.95227 0.0
C321 C 0.53502 0.01656 0.05351 0.0
C322 C 0.41108 0.93008 0.06493 0.0
N323 N 0.43832 0.02126 0.05223 0.0
C324 C 0.44186 0.03243 0.09083 0.0
C325 C 0.42729 0.05788 0.10464 0.0
C326 C 0.40934 0.07237 0.0785 0.0
C327 C 0.4071 0.06132 0.03883 0.0
C328 C 0.42163 0.03528 0.02615 0.0
C329 C 0.58648 0.05973 0.92165 0.0
O330 O 0.46918 0.97765 0.96996 0.0
O331 O 0.48546 0.98281 0.91592 0.0
O332 O 0.52864 0.0122 0.01693 0.0
O333 O 0.51212 0.00635 0.07065 0.0
O334 O 0.41019 0.92547 0.02868 0.0
O335 O 0.43245 0.95459 0.08583 0.0
O336 O 0.5845 0.06655 0.9571 0.0
O337 O 0.56801 0.03296 0.90163 0.0
H338 H 0.45511 0.02077 0.11095 0.0
H339 H 0.41872 0.02561 0.99559 0.0
H340 H 0.52716 0.88475 0.9914 0.0
H341 H 0.53912 0.91677 0.11501 0.0
H342 H 0.45479 0.06239 0.86249 0.0
H343 H 0.45035 0.08619 0.98337 0.0
H344 H 0.63797 0.95642 0.93472 0.0
H345 H 0.54354 0.88779 0.91341 0.0
H346 H 0.42949 0.06578 0.13545 0.0
H347 H 0.39299 0.07174 0.01803 0.0
Cd348 Cd 0.98238 0.47445 0.05995 0.0
Cd349 Cd 0.01496 0.5171 0.93728 0.0
C350 C 0.05665 0.47151 0.10608 0.0
N351 N 0.029 0.4535 0.08051 0.0
C352 C 0.05169 0.40559 0.07666 0.0
C353 C 0.08066 0.42328 0.10325 0.0
C354 C 0.08297 0.45691 0.11764 0.0
C355 C 0.02645 0.42129 0.0653 0.0
H356 H 0.0583 0.49718 0.11762 0.0
H357 H 0.00435 0.40753 0.04473 0.0
C358 C 0.96586 0.45236 0.95586 0.0
C359 C 0.95325 0.52936 0.876 0.0
C360 C 0.92833 0.54521 0.86324 0.0
C361 C 0.91954 0.56902 0.88963 0.0
C362 C 0.93532 0.57525 0.92867 0.0
C363 C 0.95989 0.55879 0.94015 0.0
N364 N 0.9687 0.53675 0.91382 0.0
H365 H 0.961 0.51199 0.85558 0.0
H366 H 0.97278 0.5643 0.96999 0.0
C367 C 0.02635 0.45337 0.8779 0.0
N368 N 0.0425 0.48313 0.90047 0.0
C369 C 0.09443 0.47311 0.88806 0.0
C370 C 0.0786 0.44178 0.86609 0.0
C371 C 0.04405 0.43209 0.86073 0.0
C372 C 0.07589 0.49334 0.90526 0.0
H373 H -0.0002 0.44568 0.87362 0.0
H374 H 0.08842 0.51692 0.92325 0.0
C375 C 0.02944 0.53865 0.04058 0.0
C376 C 0.93573 0.41713 0.05698 0.0
N377 N 0.95553 0.51013 0.0941 0.0
C378 C 0.94597 0.50448 0.12712 0.0
C379 C 0.92699 0.52403 0.14486 0.0
C380 C 0.91764 0.54957 0.12837 0.0
C381 C 0.92859 0.55516 0.09469 0.0
C382 C 0.94742 0.535 0.07791 0.0
C383 C 0.05974 0.57725 0.94489 0.0
O384 O 0.97747 0.46846 0.9901 0.0
O385 O 0.97479 0.46429 0.92824 0.0
O386 O 0.01748 0.52139 0.0069 0.0
O387 O 0.02107 0.52799 0.06926 0.0
O388 O 0.93135 0.4347 0.03216 0.0
O389 O 0.96068 0.42768 0.08479 0.0
O390 O 0.06612 0.55737 0.96627 0.0
O391 O 0.03326 0.56836 0.91912 0.0
H392 H 0.95234 0.48425 0.13912 0.0
H393 H 0.95505 0.53877 0.05142 0.0
H394 H 0.04796 0.37959 0.06514 0.0
H395 H 0.10487 0.47195 0.13755 0.0
H396 H 0.91705 0.53985 0.83283 0.0
H397 H 0.92908 0.59304 0.95012 0.0
H398 H 0.12106 0.48147 0.89307 0.0
H399 H 0.03088 0.40827 0.84352 0.0
H400 H 0.91882 0.51848 0.17048 0.0
H401 H 0.92251 0.5748 0.0812 0.0
Cd402 Cd 0.48197 0.47372 0.04208 0.0
Cd403 Cd 0.53075 0.54729 0.96137 0.0
C404 C 0.54466 0.44329 0.0473 0.0
N405 N 0.51132 0.43209 0.03688 0.0
C406 C 0.51701 0.37741 0.03927 0.0
C407 C 0.55153 0.38862 0.05202 0.0
C408 C 0.56535 0.42189 0.05465 0.0
C409 C 0.49719 0.39975 0.03197 0.0
H410 H 0.555 0.46931 0.05238 0.0
H411 H 0.47052 0.39163 0.02469 0.0
C412 C 0.47033 0.49032 0.95174 0.0
C413 C 0.50172 0.59988 0.9224 0.0
C414 C 0.48007 0.61893 0.90997 0.0
C415 C 0.4536 0.62282 0.92839 0.0
C416 C 0.45021 0.60755 0.95977 0.0
C417 C 0.47251 0.58848 0.9712 0.0
N418 N 0.49748 0.5849 0.95223 0.0
H419 H 0.52122 0.59596 0.90716 0.0
H420 H 0.46931 0.57575 0.99436 0.0
C421 C 0.54555 0.47545 0.95587 0.0
N422 N 0.55585 0.50593 0.97885 0.0
C423 C 0.60514 0.49215 0.00879 0.0
C424 C 0.59587 0.46115 0.98394 0.0
C425 C 0.56495 0.45239 0.95844 0.0
C426 C 0.58475 0.51442 0.00549 0.0
H427 H 0.52374 0.46982 0.93316 0.0
H428 H 0.59337 0.53927 0.02198 0.0
C429 C 0.53913 0.55559 0.06061 0.0
C430 C 0.46262 0.47498 0.11331 0.0
N431 N 0.42832 0.47727 0.01728 0.0
C432 C 0.42734 0.50909 0.01767 0.0
C433 C 0.39762 0.51905 0.01592 0.0
C434 C 0.36863 0.49623 0.01533 0.0
C435 C 0.36974 0.4629 0.01156 0.0
C436 C 0.40022 0.45381 0.01251 0.0
C437 C 0.56854 0.5538 0.90439 0.0
O438 O 0.48694 0.49501 0.98575 0.0
O439 O 0.48011 0.50928 0.93065 0.0
O440 O 0.54565 0.56792 0.03201 0.0
O441 O 0.51981 0.52766 0.05559 0.0
O442 O 0.44764 0.45418 0.08279 0.0
O443 O 0.48869 0.49513 0.11181 0.0
O444 O 0.57789 0.57374 0.93699 0.0
O445 O 0.54184 0.53263 0.89908 0.0
H446 H 0.45018 0.52732 0.02301 0.0
H447 H 0.40182 0.42877 0.01325 0.0
H448 H 0.5053 0.35193 0.03663 0.0
H449 H 0.59165 0.43185 0.06495 0.0
H450 H 0.48337 0.62936 0.88508 0.0
H451 H 0.43036 0.60994 0.97503 0.0
H452 H 0.62894 0.4999 0.02857 0.0
H453 H 0.55726 0.42916 0.93788 0.0
H454 H 0.39826 0.54505 0.01971 0.0
H455 H 0.3479 0.44463 0.0112 0.0
Cd456 Cd 0.95802 0.47546 0.53489 0.0
Cd457 Cd 0.03802 0.52225 0.45622 0.0
C458 C 0.00367 0.4337 0.57168 0.0
N459 N 0.99567 0.44226 0.53724 0.0
C460 C 0.03644 0.41714 0.51276 0.0
C461 C 0.04576 0.40873 0.54844 0.0
C462 C 0.02883 0.41697 0.578 0.0
C463 C 0.01103 0.43398 0.5077 0.0
H464 H 0.99129 0.44104 0.59473 0.0
H465 H 0.00426 0.44107 0.48056 0.0
C466 C 0.9622 0.47732 0.43351 0.0
C467 C 0.98268 0.55955 0.43573 0.0
C468 C 0.95722 0.5759 0.43839 0.0
C469 C 0.95394 0.59175 0.47465 0.0
C470 C 0.97746 0.59212 0.50748 0.0
C471 C 0.00248 0.57491 0.50352 0.0
N472 N 0.00391 0.55833 0.46807 0.0
H473 H 0.98493 0.54687 0.40783 0.0
H474 H 0.02016 0.57425 0.52876 0.0
C475 C 0.05226 0.45278 0.41726 0.0
N476 N 0.06492 0.47829 0.44794 0.0
C477 C 0.11441 0.45832 0.46175 0.0
C478 C 0.10258 0.43241 0.42926 0.0
C479 C 0.07064 0.42941 0.40749 0.0
C480 C 0.09512 0.4811 0.47056 0.0
H481 H 0.0285 0.45139 0.39923 0.0
H482 H 0.10484 0.50182 0.4945 0.0
C483 C 0.0344 0.51736 0.55641 0.0
C484 C 0.91153 0.43364 0.56755 0.0
N485 N 0.93611 0.52265 0.54334 0.0
C486 C 0.94857 0.54613 0.5761 0.0
C487 C 0.9324 0.5715 0.58548 0.0
C488 C 0.90288 0.57261 0.56114 0.0
C489 C 0.89135 0.54863 0.52675 0.0
C490 C 0.90844 0.52381 0.51836 0.0
C491 C 0.07993 0.56679 0.42211 0.0
O492 O 0.96863 0.48134 0.47006 0.0
O493 O 0.9851 0.48814 0.4166 0.0
O494 O 0.02678 0.51386 0.51998 0.0
O495 O 0.0121 0.50664 0.57411 0.0
O496 O 0.91176 0.42692 0.53159 0.0
O497 O 0.93174 0.45956 0.58719 0.0
O498 O 0.08857 0.56503 0.45734 0.0
O499 O 0.05258 0.54817 0.40349 0.0
H500 H 0.97021 0.54431 0.59592 0.0
H501 H 0.8988 0.50462 0.49274 0.0
H502 H 0.04877 0.41102 0.4892 0.0
H503 H 0.03567 0.41157 0.60623 0.0
H504 H 0.94012 0.57602 0.41229 0.0
H505 H 0.9759 0.60468 0.5358 0.0
H506 H 0.13865 0.46142 0.47971 0.0
H507 H 0.06058 0.4102 0.38192 0.0
H508 H 0.94202 0.58897 0.61261 0.0
H509 H 0.86888 0.54853 0.50692 0.0
Cd510 Cd 0.47888 0.97225 0.54868 0.0
Cd511 Cd 0.52067 0.02407 0.44109 0.0
C512 C 0.51102 0.92985 0.60548 0.0
N513 N 0.51999 0.95157 0.58338 0.0
C514 C 0.57433 0.94048 0.59042 0.0
C515 C 0.56535 0.91679 0.61195 0.0
C516 C 0.53341 0.91218 0.62018 0.0
C517 C 0.55108 0.95749 0.57614 0.0
H518 H 0.48597 0.92515 0.61024 0.0
H519 H 0.55735 0.97427 0.55767 0.0
C520 C 0.46895 0.95866 0.44599 0.0
C521 C 0.4682 0.04654 0.38008 0.0
C522 C 0.44493 0.06401 0.36725 0.0
C523 C 0.42694 0.07772 0.39292 0.0
C524 C 0.43184 0.07223 0.43067 0.0
C525 C 0.45586 0.05512 0.44252 0.0
N526 N 0.47388 0.04327 0.41745 0.0
H527 H 0.48301 0.03709 0.36078 0.0
H528 H 0.46128 0.05267 0.47221 0.0
C529 C 0.54174 0.97005 0.37887 0.0
N530 N 0.55239 0.98942 0.41481 0.0
C531 C 0.60079 0.96726 0.42462 0.0
C532 C 0.59032 0.94655 0.38779 0.0
C533 C 0.56038 0.94832 0.36474 0.0
C534 C 0.58133 0.98851 0.43761 0.0
H535 H 0.5185 0.97111 0.36139 0.0
H536 H 0.58916 0.00418 0.46611 0.0
C537 C 0.53184 0.03878 0.54479 0.0
C538 C 0.42826 0.9147 0.53511 0.0
N539 N 0.45081 0.01 0.57712 0.0
C540 C 0.44118 0.00839 0.61117 0.0
C541 C 0.42461 0.03144 0.62712 0.0
C542 C 0.41827 0.05674 0.60818 0.0
C543 C 0.42909 0.05793 0.57334 0.0
C544 C 0.44517 0.03417 0.55824 0.0
C545 C 0.56264 0.0841 0.44175 0.0
O546 O 0.47906 0.9741 0.48077 0.0
O547 O 0.47997 0.97135 0.41986 0.0
O548 O 0.52192 0.02467 0.50958 0.0
O549 O 0.52091 0.02469 0.56997 0.0
O550 O 0.45419 0.91456 0.52136 0.0
O551 O 0.42612 0.9416 0.55537 0.0
O552 O 0.56517 0.07127 0.47116 0.0
O553 O 0.54194 0.06797 0.41145 0.0
H554 H 0.44616 0.98905 0.6258 0.0
H555 H 0.45345 0.03509 0.53149 0.0
H556 H 0.59846 0.94459 0.58293 0.0
H557 H 0.5255 0.89448 0.63701 0.0
H558 H 0.44171 0.06762 0.33786 0.0
H559 H 0.41863 0.08266 0.45138 0.0
H560 H 0.62386 0.96721 0.44324 0.0
H561 H 0.55103 0.93258 0.33641 0.0
H562 H 0.41646 0.02909 0.65372 0.0
H563 H 0.42558 0.07722 0.55797 0.0
H564 H 0.09878 0.14191 0.21911 0.0
H565 H 0.08479 0.1141 0.42918 0.0
H566 H 0.18282 0.15876 0.31318 0.0
H567 H 0.01249 0.05849 0.3283 0.0
H568 H 0.1175 0.13873 0.38724 0.0
H569 H 0.06351 0.11641 0.25865 0.0
C570 C 0.10985 0.14001 0.24783 0.0
C571 C 0.14365 0.1531 0.26319 0.0
C572 C 0.0944 0.12119 0.37435 0.0
C573 C 0.10363 0.1249 0.30842 0.0
C574 C 0.07564 0.10738 0.39823 0.0
C575 C 0.04609 0.08415 0.38206 0.0
C576 C 0.0833 0.11191 0.33416 0.0
C577 C 0.03532 0.0762 0.34179 0.0
C578 C 0.08974 0.1257 0.27037 0.0
C579 C 0.15674 0.15002 0.30061 0.0
N580 N 0.054 0.09008 0.31907 0.0
N581 N 0.13664 0.13656 0.32208 0.0
H582 H 0.82807 0.19827 0.26861 0.0
H583 H 0.87746 0.13633 0.46331 0.0
H584 H 0.77583 0.21451 0.36147 0.0
H585 H 0.89473 0.09302 0.35287 0.0
H586 H 0.84628 0.17159 0.43131 0.0
H587 H 0.85988 0.16682 0.30451 0.0
C588 C 0.82341 0.19545 0.29673 0.0
C589 C 0.79906 0.20895 0.31192 0.0
C590 C 0.85683 0.15421 0.41423 0.0
C591 C 0.83562 0.17273 0.35334 0.0
C592 C 0.87461 0.13422 0.43242 0.0
C593 C 0.88832 0.1115 0.41059 0.0
C594 C 0.85354 0.15187 0.37422 0.0
C595 C 0.88408 0.10978 0.3707 0.0
C596 C 0.84152 0.17731 0.31715 0.0
C597 C 0.79425 0.20439 0.34859 0.0
N598 N 0.86728 0.12975 0.35391 0.0
N599 N 0.8124 0.18662 0.36813 0.0
H600 H 0.80905 0.83711 0.24244 0.0
H601 H 0.93975 0.95398 0.35093 0.0
H602 H 0.85692 0.76647 0.28809 0.0
H603 H 0.94373 0.87909 0.41804 0.0
H604 H 0.91178 0.91166 0.29393 0.0
H605 H 0.85975 0.87922 0.26918 0.0
C606 C 0.83083 0.83026 0.25661 0.0
C607 C 0.82888 0.79891 0.26441 0.0
C608 C 0.91883 0.90452 0.32109 0.0
C609 C 0.88657 0.84637 0.29507 0.0
C610 C 0.93479 0.92862 0.35371 0.0
C611 C 0.94284 0.92009 0.38969 0.0
C612 C 0.91075 0.87179 0.32467 0.0
C613 C 0.9369 0.88687 0.39125 0.0
C614 C 0.85989 0.85424 0.27186 0.0
C615 C 0.85748 0.79088 0.28269 0.0
N616 N 0.92082 0.86396 0.35925 0.0
N617 N 0.885 0.81472 0.29835 0.0
H618 H 0.17423 0.81647 0.35672 0.0
H619 H 0.15255 0.99467 0.44414 0.0
H620 H 0.20533 0.90307 0.313 0.0
H621 H 0.09284 0.90499 0.45802 0.0
H622 H 0.18883 0.96302 0.41534 0.0
H623 H 0.16002 0.85056 0.41103 0.0
C624 C 0.17849 0.84273 0.35892 0.0
C625 C 0.19032 0.85703 0.33011 0.0
C626 C 0.16839 0.95041 0.42582 0.0
C627 C 0.17459 0.89598 0.39201 0.0
C628 C 0.14799 0.96845 0.44259 0.0
C629 C 0.11968 0.95213 0.45281 0.0
C630 C 0.16015 0.91604 0.41943 0.0
C631 C 0.11442 0.91819 0.45001 0.0
C632 C 0.17046 0.86211 0.38984 0.0
C633 C 0.19546 0.89111 0.33418 0.0
N634 N 0.13416 0.90108 0.43284 0.0
N635 N 0.1873 0.90947 0.36445 0.0
H636 H 0.22104 0.80105 0.63736 0.0
H637 H 0.04335 0.84639 0.59836 0.0
H638 H 0.14673 0.78019 0.70467 0.0
H639 H 0.12389 0.88747 0.54847 0.0
H640 H 0.07931 0.81675 0.6318 0.0
H641 H 0.18439 0.82791 0.5994 0.0
C642 C 0.19698 0.80196 0.64406 0.0
C643 C 0.18702 0.78841 0.6744 0.0
C644 C 0.08916 0.83212 0.61344 0.0
C645 C 0.14495 0.81899 0.63093 0.0
C646 C 0.0685 0.84885 0.59396 0.0
C647 C 0.08048 0.86935 0.57024 0.0
C648 C 0.12218 0.83567 0.60926 0.0
C649 C 0.11362 0.87209 0.56657 0.0
C650 C 0.17614 0.81739 0.62245 0.0
C651 C 0.15558 0.7904 0.68176 0.0
N652 N 0.13331 0.85541 0.58582 0.0
N653 N 0.13572 0.80532 0.66019 0.0
H654 H 0.17488 0.20844 0.63226 0.0
H655 H 0.04421 0.04645 0.63233 0.0
H656 H 0.16798 0.16635 0.73255 0.0
H657 H 0.05028 0.08836 0.5318 0.0
H658 H 0.08439 0.09459 0.6716 0.0
H659 H 0.12475 0.16857 0.5968 0.0
C660 C 0.16278 0.19086 0.64683 0.0
C661 C 0.17587 0.1903 0.68517 0.0
C662 C 0.07681 0.09335 0.64099 0.0
C663 C 0.11857 0.14485 0.64495 0.0
C664 C 0.05396 0.06585 0.61858 0.0
C665 C 0.04467 0.06312 0.5787 0.0
C666 C 0.09063 0.11804 0.62323 0.0
C667 C 0.05735 0.08924 0.56241 0.0
C668 C 0.1341 0.16821 0.62664 0.0
C669 C 0.15901 0.1673 0.70282 0.0
N670 N 0.08009 0.11548 0.5847 0.0
N671 N 0.13133 0.14532 0.68246 0.0
H672 H 0.78015 0.09196 0.65435 0.0
H673 H 0.90151 0.09988 0.51896 0.0
H674 H 0.81882 0.18272 0.62282 0.0
H675 H 0.83035 0.01075 0.51217 0.0
H676 H 0.86555 0.13145 0.54725 0.0
H677 H 0.79267 0.0617 0.59625 0.0
C678 C 0.79108 0.10542 0.63494 0.0
C679 C 0.79919 0.13974 0.64357 0.0
C680 C 0.85707 0.10508 0.53826 0.0
C681 C 0.81347 0.1056 0.57728 0.0
C682 C 0.87751 0.0871 0.52168 0.0
C683 C 0.86887 0.05278 0.51348 0.0
C684 C 0.82851 0.08842 0.5479 0.0
C685 C 0.83784 0.03725 0.5183 0.0
C686 C 0.7978 0.08823 0.60156 0.0
C687 C 0.81252 0.15621 0.61718 0.0
N688 N 0.81914 0.05517 0.53644 0.0
N689 N 0.81995 0.13897 0.58556 0.0
H690 H 0.89506 0.88682 0.79132 0.0
H691 H 0.87743 0.90146 0.57297 0.0
H692 H 0.80225 0.85929 0.70849 0.0
H693 H 0.96596 0.9467 0.6597 0.0
H694 H 0.84828 0.88939 0.62403 0.0
H695 H 0.9201 0.91552 0.74638 0.0
C696 C 0.87975 0.8875 0.7642 0.0
C697 C 0.84681 0.86971 0.75333 0.0
C698 C 0.87404 0.90219 0.63188 0.0
C699 C 0.87521 0.90186 0.70169 0.0
C700 C 0.89072 0.90868 0.60273 0.0
C701 C 0.92414 0.92475 0.61219 0.0
C702 C 0.89109 0.91155 0.6706 0.0
C703 C 0.94018 0.93405 0.65119 0.0
C704 C 0.89404 0.90375 0.73849 0.0
C705 C 0.82784 0.8721 0.7182 0.0
N706 N 0.92355 0.92709 0.67899 0.0
N707 N 0.84255 0.88714 0.69326 0.0
H708 H 0.26496 0.16562 0.16848 0.0
H709 H 0.41471 0.13562 0.06783 0.0
H710 H 0.34819 0.24555 0.17814 0.0
H711 H 0.36227 0.06482 0.12146 0.0
H712 H 0.3844 0.17606 0.09407 0.0
H713 H 0.29371 0.12809 0.1356 0.0
C714 C 0.28908 0.17548 0.16316 0.0
C715 C 0.30423 0.20891 0.17634 0.0
C716 C 0.3796 0.15162 0.09993 0.0
C717 C 0.33723 0.16571 0.13844 0.0
C718 C 0.3967 0.12862 0.08492 0.0
C719 C 0.39099 0.09702 0.09276 0.0
C720 C 0.35609 0.14248 0.12187 0.0
C721 C 0.3675 0.08902 0.11503 0.0
C722 C 0.30553 0.1539 0.14458 0.0
C723 C 0.33563 0.22 0.16858 0.0
N724 N 0.35075 0.11151 0.12857 0.0
N725 N 0.35117 0.19841 0.15011 0.0
H726 H 0.78177 0.28916 0.09902 0.0
H727 H 0.95318 0.3639 0.0787 0.0
H728 H 0.85787 0.23347 0.09887 0.0
H729 H 0.86963 0.39676 0.0239 0.0
H730 H 0.91686 0.31159 0.0767 0.0
H731 H 0.80825 0.32221 0.05915 0.0
C732 C 0.80335 0.28298 0.08941 0.0
C733 C 0.81862 0.25954 0.10379 0.0
C734 C 0.90639 0.32991 0.06444 0.0
C735 C 0.84941 0.29784 0.05911 0.0
C736 C 0.92707 0.35994 0.06614 0.0
C737 C 0.91403 0.38485 0.05265 0.0
C738 C 0.87222 0.32516 0.05033 0.0
C739 C 0.88033 0.37826 0.03544 0.0
C740 C 0.81857 0.30203 0.06667 0.0
C741 C 0.84623 0.25237 0.0898 0.0
N742 N 0.86027 0.34925 0.03574 0.0
N743 N 0.86145 0.2722 0.06926 0.0
H744 H 0.65851 0.79758 0.178 0.0
H745 H 0.58426 0.88151 0.01549 0.0
H746 H 0.67224 0.76656 0.0622 0.0
H747 H 0.53565 0.85963 0.1078 0.0
H748 H 0.62205 0.84588 0.03231 0.0
H749 H 0.62023 0.82949 0.15433 0.0
C750 C 0.65378 0.79795 0.14757 0.0
C751 C 0.66878 0.77987 0.12199 0.0
C752 C 0.60286 0.84885 0.04849 0.0
C753 C 0.62449 0.81582 0.09455 0.0
C754 C 0.58131 0.86902 0.03895 0.0
C755 C 0.55724 0.87407 0.06085 0.0
C756 C 0.60036 0.83421 0.0803 0.0
C757 C 0.5545 0.85734 0.09095 0.0
C758 C 0.63163 0.81579 0.13401 0.0
C759 C 0.66109 0.78039 0.08264 0.0
N760 N 0.57607 0.83852 0.10007 0.0
N761 N 0.63947 0.79838 0.06995 0.0
H762 H 0.21268 0.67464 0.12295 0.0
H763 H 0.01874 0.60042 0.05632 0.0
H764 H 0.13915 0.72159 0.16513 0.0
H765 H 0.0949 0.54673 0.04198 0.0
H766 H 0.06157 0.65162 0.07854 0.0
H767 H 0.16891 0.63579 0.07448 0.0
C768 C 0.1873 0.67705 0.12164 0.0
C769 C 0.17936 0.7007 0.14883 0.0
C770 C 0.06881 0.62873 0.06966 0.0
C771 C 0.12913 0.65594 0.09387 0.0
C772 C 0.04447 0.59968 0.05704 0.0
C773 C 0.05362 0.56972 0.04729 0.0
C774 C 0.10234 0.62746 0.07282 0.0
C775 C 0.08708 0.56957 0.04911 0.0
C776 C 0.16234 0.65487 0.09395 0.0
C777 C 0.14622 0.70331 0.14512 0.0
N778 N 0.11028 0.59801 0.06184 0.0
N779 N 0.12214 0.68065 0.11869 0.0
H780 H 0.2771 0.8363 0.85209 0.0
H781 H 0.43827 0.97042 0.85753 0.0
H782 H 0.31988 0.8506 0.75348 0.0
H783 H 0.41018 0.94133 0.95878 0.0
H784 H 0.38495 0.93886 0.81902 0.0
H785 H 0.31543 0.88646 0.89038 0.0
C786 C 0.29415 0.85031 0.83832 0.0
C787 C 0.29608 0.83887 0.79992 0.0
C788 C 0.39031 0.93959 0.84973 0.0
C789 C 0.33967 0.896 0.84334 0.0
C790 C 0.42081 0.95741 0.87168 0.0
C791 C 0.42905 0.95735 0.91109 0.0
C792 C 0.36806 0.92132 0.86725 0.0
C793 C 0.40507 0.94116 0.92824 0.0
C794 C 0.31598 0.87887 0.86018 0.0
C795 C 0.31822 0.85813 0.78332 0.0
N796 N 0.37579 0.92322 0.90604 0.0
N797 N 0.33947 0.88555 0.80528 0.0
H798 H 0.18023 0.28322 0.8236 0.0
H799 H 0.12842 0.45513 0.82705 0.0
H800 H 0.2091 0.34755 0.74852 0.0
H801 H 0.07374 0.37702 0.86897 0.0
H802 H 0.16215 0.41798 0.80314 0.0
H803 H 0.1448 0.31928 0.84582 0.0
C804 C 0.17916 0.30492 0.81182 0.0
C805 C 0.19764 0.31237 0.78413 0.0
C806 C 0.14266 0.40893 0.8174 0.0
C807 C 0.15743 0.35377 0.80962 0.0
C808 C 0.12353 0.43013 0.83117 0.0
C809 C 0.09824 0.41911 0.84995 0.0
C810 C 0.13685 0.37657 0.82297 0.0
C811 C 0.09279 0.38641 0.85431 0.0
C812 C 0.15884 0.32539 0.82439 0.0
C813 C 0.1952 0.34076 0.76977 0.0
N814 N 0.11211 0.36634 0.84119 0.0
N815 N 0.17565 0.36051 0.78285 0.0
H816 H 0.68199 0.22806 0.84024 0.0
H817 H 0.60817 0.04402 0.85465 0.0
H818 H 0.70975 0.14464 0.77777 0.0
H819 H 0.61375 0.12626 0.94642 0.0
H820 H 0.64065 0.08071 0.82242 0.0
H821 H 0.65215 0.19175 0.87548 0.0
C822 C 0.68178 0.20212 0.83383 0.0
C823 C 0.6985 0.18948 0.80587 0.0
C824 C 0.63496 0.09077 0.84971 0.0
C825 C 0.66393 0.1476 0.84601 0.0
C826 C 0.61634 0.0698 0.86817 0.0
C827 C 0.6082 0.08194 0.90348 0.0
C828 C 0.64514 0.12448 0.86607 0.0
C829 C 0.61957 0.1157 0.91943 0.0
C830 C 0.66484 0.18142 0.85413 0.0
C831 C 0.69737 0.1556 0.79905 0.0
N832 N 0.63712 0.13579 0.90047 0.0
N833 N 0.68023 0.1359 0.81866 0.0
H834 H 0.82879 0.72862 0.84208 0.0
H835 H 0.86069 0.54792 0.83616 0.0
H836 H 0.75745 0.64135 0.77826 0.0
H837 H 0.92364 0.63484 0.91273 0.0
H838 H 0.82242 0.5813 0.81433 0.0
H839 H 0.86325 0.69429 0.86902 0.0
C840 C 0.82012 0.70221 0.83412 0.0
C841 C 0.79009 0.68787 0.80789 0.0
C842 C 0.84451 0.59299 0.83611 0.0
C843 C 0.82985 0.64828 0.83818 0.0
C844 C 0.86647 0.57398 0.8484 0.0
C845 C 0.89542 0.58852 0.87646 0.0
C846 C 0.85168 0.62686 0.85168 0.0
C847 C 0.90144 0.62241 0.8915 0.0
C848 C 0.83989 0.68259 0.84944 0.0
C849 C 0.78026 0.65348 0.79857 0.0
N850 N 0.8799 0.64037 0.87882 0.0
N851 N 0.80023 0.63486 0.81339 0.0
H852 H 0.18359 0.27143 0.14647 0.0
H853 H 0.12481 0.43765 0.17362 0.0
H854 H 0.24704 0.35931 0.22045 0.0
H855 H 0.09869 0.36995 0.06297 0.0
H856 H 0.16637 0.40774 0.19497 0.0
H857 H 0.14821 0.30504 0.11872 0.0
C858 C 0.19035 0.29783 0.15642 0.0
C859 C 0.21844 0.31264 0.18557 0.0
C860 C 0.15157 0.39967 0.16595 0.0
C861 C 0.17755 0.351 0.1549 0.0
C862 C 0.12785 0.41685 0.15352 0.0
C863 C 0.1076 0.40641 0.11631 0.0
C864 C 0.15473 0.37139 0.14145 0.0
C865 C 0.11271 0.37863 0.09224 0.0
C866 C 0.17016 0.31695 0.14064 0.0
C867 C 0.22585 0.34694 0.1977 0.0
N868 N 0.13537 0.36191 0.10538 0.0
N869 N 0.20523 0.36493 0.18277 0.0
H870 H 0.13507 0.75821 0.89155 0.0
H871 H 0.12711 0.59378 0.97028 0.0
H872 H 0.20623 0.69739 0.88174 0.0
H873 H 0.04346 0.63293 0.92879 0.0
H874 H 0.16437 0.64417 0.965 0.0
H875 H 0.11127 0.72554 0.93392 0.0
C876 C 0.14616 0.73847 0.89901 0.0
C877 C 0.17175 0.72966 0.88186 0.0
C878 C 0.13784 0.64191 0.958 0.0
C879 C 0.14491 0.69251 0.93034 0.0
C880 C 0.11665 0.61328 0.96089 0.0
C881 C 0.08234 0.60902 0.94873 0.0
C882 C 0.12435 0.66638 0.94363 0.0
C883 C 0.06986 0.63501 0.93734 0.0
C884 C 0.13268 0.71997 0.92328 0.0
C885 C 0.18606 0.70466 0.89365 0.0
N886 N 0.09088 0.66249 0.93467 0.0
N887 N 0.17188 0.68636 0.91649 0.0
H888 H 0.29884 0.15073 0.79678 0.0
H889 H 0.39301 0.07196 0.95299 0.0
H890 H 0.28212 0.16751 0.91334 0.0
H891 H 0.43692 0.1116 0.86587 0.0
H892 H 0.3444 0.09439 0.93413 0.0
H893 H 0.33966 0.12025 0.81573 0.0
C894 C 0.30302 0.14756 0.82621 0.0
C895 C 0.28729 0.16255 0.85375 0.0
C896 C 0.36479 0.09802 0.9193 0.0
C897 C 0.33464 0.12755 0.87549 0.0
C898 C 0.39264 0.08566 0.9303 0.0
C899 C 0.41922 0.09011 0.91122 0.0
C900 C 0.3633 0.11409 0.8884 0.0
C901 C 0.41689 0.10707 0.88102 0.0
C902 C 0.32673 0.1303 0.83702 0.0
C903 C 0.29417 0.15706 0.89142 0.0
N904 N 0.38932 0.11825 0.8704 0.0
N905 N 0.31771 0.14022 0.9014 0.0
H906 H 0.78775 0.30021 0.87669 0.0
H907 H 0.90139 0.44126 0.9611 0.0
H908 H 0.86207 0.27812 0.81315 0.0
H909 H 0.97658 0.39239 0.92804 0.0
H910 H 0.86026 0.39004 0.93686 0.0
H911 H 0.83075 0.33863 0.92661 0.0
C912 C 0.81329 0.3033 0.87354 0.0
C913 C 0.82139 0.28674 0.84038 0.0
C914 C 0.88583 0.38982 0.93611 0.0
C915 C 0.87045 0.33221 0.89599 0.0
C916 C 0.90928 0.41925 0.94986 0.0
C917 C 0.9423 0.42061 0.94727 0.0
C918 C 0.8954 0.36169 0.91862 0.0
C919 C 0.95128 0.39195 0.93102 0.0
C920 C 0.8378 0.32558 0.90177 0.0
C921 C 0.85482 0.29083 0.83809 0.0
N922 N 0.92785 0.36368 0.91682 0.0
N923 N 0.87811 0.31379 0.86511 0.0
H924 H 0.74051 0.81644 0.85609 0.0
H925 H 0.5671 0.86388 0.86329 0.0
H926 H 0.64812 0.75452 0.78976 0.0
H927 H 0.65584 0.91004 0.94938 0.0
H928 H 0.59562 0.82271 0.83713 0.0
H929 H 0.70969 0.85018 0.8916 0.0
C930 C 0.71371 0.80964 0.84939 0.0
C931 C 0.69688 0.7826 0.81986 0.0
C932 C 0.60873 0.84167 0.86198 0.0
C933 C 0.66136 0.82159 0.85999 0.0
C934 C 0.59239 0.86517 0.87717 0.0
C935 C 0.60908 0.89086 0.90852 0.0
C936 C 0.64216 0.84394 0.87793 0.0
C937 C 0.64209 0.89128 0.92467 0.0
C938 C 0.69611 0.82896 0.86966 0.0
C939 C 0.66212 0.77503 0.81241 0.0
N940 N 0.65759 0.86845 0.90897 0.0
N941 N 0.64551 0.79468 0.83197 0.0
H942 H 0.77182 0.66655 0.1604 0.0
H943 H 0.91762 0.57198 0.20513 0.0
H944 H 0.81803 0.66298 0.27579 0.0
H945 H 0.86734 0.57261 0.09034 0.0
H946 H 0.88108 0.60443 0.23178 0.0
H947 H 0.80609 0.63125 0.13454 0.0
C948 C 0.789 0.65815 0.18036 0.0
C949 C 0.792 0.6678 0.2204 0.0
C950 C 0.87806 0.59744 0.20076 0.0
C951 C 0.8317 0.62742 0.19081 0.0
C952 C 0.89885 0.57876 0.18548 0.0
C953 C 0.89577 0.56955 0.14533 0.0
C954 C 0.85392 0.60702 0.17579 0.0
C955 C 0.87117 0.57954 0.12143 0.0
C956 C 0.80866 0.63801 0.16552 0.0
C957 C 0.81479 0.65611 0.24474 0.0
N958 N 0.8513 0.59768 0.137 0.0
N959 N 0.83387 0.63667 0.22957 0.0
H960 H 0.31595 0.7622 0.14761 0.0
H961 H 0.39248 0.94524 0.13375 0.0
H962 H 0.28919 0.8464 0.20976 0.0
H963 H 0.38083 0.86433 0.03815 0.0
H964 H 0.36029 0.90857 0.16619 0.0
H965 H 0.34554 0.79805 0.11146 0.0
C966 C 0.31636 0.78818 0.15376 0.0
C967 C 0.3 0.80123 0.18185 0.0
C968 C 0.36457 0.8988 0.13802 0.0
C969 C 0.33418 0.84246 0.14087 0.0
C970 C 0.383 0.91974 0.11944 0.0
C971 C 0.3893 0.90796 0.083 0.0
C972 C 0.35283 0.86542 0.12065 0.0
C973 C 0.37636 0.87457 0.06603 0.0
C974 C 0.3331 0.80859 0.13296 0.0
C975 C 0.3013 0.83514 0.18837 0.0
N976 N 0.35908 0.85441 0.08515 0.0
N977 N 0.31826 0.8545 0.16839 0.0
H978 H 0.66806 0.1517 0.23607 0.0
H979 H 0.58825 0.04664 0.02787 0.0
H980 H 0.71178 0.16197 0.13714 0.0
H981 H 0.55675 0.02569 0.13102 0.0
H982 H 0.63925 0.08241 0.06796 0.0
H983 H 0.63295 0.09947 0.19971 0.0
C984 C 0.67038 0.14282 0.20674 0.0
C985 C 0.69209 0.16152 0.18916 0.0
C986 C 0.62139 0.06959 0.08178 0.0
C987 C 0.65187 0.10204 0.14724 0.0
C988 C 0.59223 0.04934 0.05891 0.0
C989 C 0.56778 0.0343 0.07631 0.0
C990 C 0.62579 0.07491 0.12219 0.0
C991 C 0.57451 0.03777 0.11651 0.0
C992 C 0.65051 0.1129 0.18604 0.0
C993 C 0.69482 0.14854 0.15148 0.0
N994 N 0.60264 0.05819 0.13815 0.0
N995 N 0.6744 0.11985 0.13144 0.0
H996 H 0.69878 0.60892 0.7558 0.0
H997 H 0.63091 0.58906 0.90805 0.0
H998 H 0.59642 0.59195 0.69793 0.0
H999 H 0.54741 0.52153 0.8296 0.0
H1000 H 0.6581 0.59433 0.85382 0.0
H1001 H 0.682 0.57692 0.80136 0.0
C1002 C 0.6728 0.598 0.7518 0.0
C1003 C 0.64869 0.60525 0.72429 0.0
C1004 C 0.63429 0.57752 0.84864 0.0
C1005 C 0.62957 0.56897 0.77725 0.0
C1006 C 0.61859 0.57499 0.87951 0.0
C1007 C 0.58678 0.55529 0.8731 0.0
C1008 C 0.61777 0.56051 0.81119 0.0
C1009 C 0.57188 0.5373 0.83566 0.0
C1010 C 0.66329 0.57989 0.77836 0.0
C1011 C 0.61567 0.58869 0.72005 0.0
N1012 N 0.58721 0.54092 0.80589 0.0
N1013 N 0.60688 0.57206 0.7471 0.0
H1014 H 0.27652 0.69207 0.84539 0.0
H1015 H 0.46527 0.67808 0.89825 0.0
H1016 H 0.35173 0.72774 0.78511 0.0
H1017 H 0.38594 0.61023 0.92403 0.0
H1018 H 0.4246 0.70425 0.86671 0.0
H1019 H 0.31707 0.66916 0.884 0.0
C1020 C 0.30154 0.69524 0.84042 0.0
C1021 C 0.3107 0.71166 0.81181 0.0
C1022 C 0.4161 0.68372 0.87944 0.0
C1023 C 0.3571 0.68606 0.85608 0.0
C1024 C 0.43932 0.66861 0.89736 0.0
C1025 C 0.42915 0.64141 0.91336 0.0
C1026 C 0.38229 0.67198 0.87778 0.0
C1027 C 0.3951 0.63114 0.9123 0.0
C1028 C 0.32458 0.68211 0.86235 0.0
C1029 C 0.34345 0.71505 0.80658 0.0
N1030 N 0.37287 0.64633 0.89463 0.0
N1031 N 0.36542 0.70248 0.82854 0.0
H1032 H 0.32957 0.35921 0.7694 0.0
H1033 H 0.46065 0.4285 0.96649 0.0
H1034 H 0.34155 0.30063 0.85562 0.0
H1035 H 0.41689 0.48949 0.89804 0.0
H1036 H 0.41965 0.38028 0.92681 0.0
H1037 H 0.36664 0.40616 0.81487 0.0
C1038 C 0.34034 0.35612 0.79774 0.0
C1039 C 0.33244 0.32605 0.8088 0.0
C1040 C 0.41875 0.40432 0.92098 0.0
C1041 C 0.37451 0.37976 0.86116 0.0
C1042 C 0.44188 0.43174 0.94375 0.0
C1043 C 0.44207 0.46272 0.93513 0.0
C1044 C 0.39632 0.40821 0.8893 0.0
C1045 C 0.41765 0.46584 0.90521 0.0
C1046 C 0.36117 0.38302 0.82385 0.0
C1047 C 0.34696 0.32349 0.84602 0.0
N1048 N 0.396 0.43885 0.88302 0.0
N1049 N 0.3674 0.35005 0.87095 0.0
H1050 H 0.6692 0.30857 0.86373 0.0
H1051 H 0.66029 0.48269 0.98048 0.0
H1052 H 0.71239 0.40196 0.84142 0.0
H1053 H 0.58728 0.3941 0.97173 0.0
H1054 H 0.69411 0.45013 0.94924 0.0
H1055 H 0.65242 0.33728 0.92018 0.0
C1056 C 0.67555 0.33511 0.87118 0.0
C1057 C 0.6916 0.35311 0.84779 0.0
C1058 C 0.67109 0.43774 0.95508 0.0
C1059 C 0.67328 0.38579 0.91212 0.0
C1060 C 0.6519 0.45625 0.97339 0.0
C1061 C 0.62054 0.44109 0.97792 0.0
C1062 C 0.65877 0.40395 0.9412 0.0
C1063 C 0.61097 0.40675 0.96784 0.0
C1064 C 0.66605 0.35139 0.90324 0.0
C1065 C 0.6994 0.38736 0.8584 0.0
N1066 N 0.62972 0.38929 0.94912 0.0
N1067 N 0.69001 0.40264 0.88974 0.0
H1068 H 0.71621 0.30256 0.13415 0.0
H1069 H 0.53621 0.34344 0.09576 0.0
H1070 H 0.64282 0.28201 0.20271 0.0
H1071 H 0.61528 0.38544 0.0443 0.0
H1072 H 0.57286 0.31339 0.12737 0.0
H1073 H 0.67782 0.32667 0.09432 0.0
C1074 C 0.69204 0.30297 0.14074 0.0
C1075 C 0.68284 0.29043 0.17202 0.0
C1076 C 0.58217 0.32897 0.10891 0.0
C1077 C 0.63878 0.31759 0.12641 0.0
C1078 C 0.56108 0.34589 0.09043 0.0
C1079 C 0.57256 0.36707 0.0672 0.0
C1080 C 0.61512 0.33308 0.10424 0.0
C1081 C 0.6054 0.36964 0.06219 0.0
C1082 C 0.67018 0.31676 0.11804 0.0
C1083 C 0.65116 0.29158 0.17915 0.0
N1084 N 0.62556 0.35297 0.08067 0.0
N1085 N 0.63036 0.30486 0.15658 0.0
H1086 H 0.63015 0.70133 0.25127 0.0
H1087 H 0.60366 0.58604 0.08087 0.0
H1088 H 0.69097 0.63045 0.25813 0.0
H1089 H 0.51681 0.56179 0.12855 0.0
H1090 H 0.63562 0.61166 0.1458 0.0
H1091 H 0.58431 0.65797 0.21139 0.0
C1092 C 0.63314 0.67622 0.24624 0.0
C1093 C 0.6642 0.66923 0.25753 0.0
C1094 C 0.60963 0.6003 0.14197 0.0
C1095 C 0.61288 0.62042 0.21099 0.0
C1096 C 0.59135 0.58617 0.10507 0.0
C1097 C 0.55767 0.57192 0.0996 0.0
C1098 C 0.59397 0.60103 0.17346 0.0
C1099 C 0.54286 0.5725 0.13193 0.0
C1100 C 0.60707 0.65157 0.22349 0.0
C1101 C 0.66726 0.6366 0.24981 0.0
N1102 N 0.56103 0.5876 0.16778 0.0
N1103 N 0.64229 0.6135 0.22545 0.0
H1104 H 0.29851 0.65408 0.11953 0.0
H1105 H 0.33487 0.47693 0.06898 0.0
H1106 H 0.2958 0.58532 0.19505 0.0
H1107 H 0.34075 0.54561 0.99346 0.0
H1108 H 0.30619 0.51064 0.10731 0.0
H1109 H 0.30195 0.61059 0.06712 0.0
C1110 C 0.29829 0.62977 0.12501 0.0
C1111 C 0.29752 0.62351 0.16197 0.0
C1112 C 0.31301 0.518 0.08182 0.0
C1113 C 0.30143 0.57359 0.10211 0.0
C1114 C 0.32896 0.49841 0.05947 0.0
C1115 C 0.34088 0.50886 0.02841 0.0
C1116 C 0.3093 0.54835 0.07326 0.0
C1117 C 0.33264 0.5371 0.01776 0.0
C1118 C 0.30023 0.60492 0.09505 0.0
C1119 C 0.29732 0.59152 0.16737 0.0
N1120 N 0.31811 0.55636 0.04075 0.0
N1121 N 0.29958 0.56786 0.13789 0.0
H1122 H 0.42461 0.39948 0.30439 0.0
H1123 H 0.39896 0.47144 0.11777 0.0
H1124 H 0.32993 0.39662 0.23349 0.0
H1125 H 0.49509 0.47822 0.18717 0.0
H1126 H 0.37344 0.45848 0.17081 0.0
H1127 H 0.45036 0.44166 0.27365 0.0
C1128 C 0.40908 0.408 0.28286 0.0
C1129 C 0.37519 0.39324 0.27037 0.0
C1130 C 0.40017 0.46344 0.175 0.0
C1131 C 0.40451 0.44176 0.23542 0.0
C1132 C 0.4147 0.47085 0.14471 0.0
C1133 C 0.44899 0.47529 0.14821 0.0
C1134 C 0.42003 0.45934 0.20857 0.0
C1135 C 0.46847 0.47468 0.18355 0.0
C1136 C 0.42383 0.43226 0.26549 0.0
C1137 C 0.35619 0.40644 0.24361 0.0
N1138 N 0.45361 0.46589 0.21222 0.0
N1139 N 0.37124 0.42936 0.22646 0.0
H1140 H 0.83786 0.73424 0.6869 0.0
H1141 H 0.83523 0.5629 0.5508 0.0
H1142 H 0.74966 0.65854 0.63734 0.0
H1143 H 0.92457 0.63724 0.60008 0.0
H1144 H 0.80304 0.60038 0.57657 0.0
H1145 H 0.86936 0.70189 0.65028 0.0
C1146 C 0.82499 0.71108 0.6679 0.0
C1147 C 0.79102 0.6991 0.66535 0.0
C1148 C 0.82967 0.60865 0.58155 0.0
C1149 C 0.82706 0.66175 0.62358 0.0
C1150 C 0.84814 0.58729 0.56648 0.0
C1151 C 0.88285 0.5967 0.57336 0.0
C1152 C 0.84585 0.63979 0.60394 0.0
C1153 C 0.89798 0.62858 0.5946 0.0
C1154 C 0.84304 0.69254 0.6471 0.0
C1155 C 0.77578 0.6688 0.64036 0.0
N1156 N 0.87944 0.64885 0.60935 0.0
N1157 N 0.79391 0.65114 0.62073 0.0
H1158 H 0.27865 0.78949 0.59841 0.0
H1159 H 0.43245 0.85129 0.50953 0.0
H1160 H 0.36181 0.74345 0.59548 0.0
H1161 H 0.36572 0.90956 0.54851 0.0
H1162 H 0.39416 0.80187 0.51465 0.0
H1163 H 0.29721 0.82143 0.55286 0.0
C1164 C 0.30017 0.78519 0.58718 0.0
C1165 C 0.31943 0.76458 0.60171 0.0
C1166 C 0.38759 0.82543 0.52115 0.0
C1167 C 0.34102 0.80154 0.55026 0.0
C1168 C 0.40942 0.85361 0.51835 0.0
C1169 C 0.40271 0.88456 0.53002 0.0
C1170 C 0.35892 0.82841 0.53543 0.0
C1171 C 0.37227 0.88619 0.54043 0.0
C1172 C 0.31087 0.80364 0.56133 0.0
C1173 C 0.34696 0.75994 0.58589 0.0
N1174 N 0.35172 0.85853 0.54352 0.0
N1175 N 0.35746 0.77891 0.56167 0.0
H1176 H 0.23152 0.34201 0.57228 0.0
H1177 H 0.04961 0.35984 0.58788 0.0
H1178 H 0.1884 0.33052 0.67133 0.0
H1179 H 0.10555 0.42078 0.52595 0.0
H1180 H 0.09835 0.33888 0.60813 0.0
H1181 H 0.18378 0.36354 0.54577 0.0
C1182 C 0.21237 0.34456 0.58862 0.0
C1183 C 0.21412 0.33496 0.62422 0.0
C1184 C 0.0999 0.35676 0.58997 0.0
C1185 C 0.15969 0.35817 0.59392 0.0
C1186 C 0.07214 0.36874 0.57844 0.0
C1187 C 0.07375 0.39258 0.5559 0.0
C1188 C 0.12944 0.36837 0.57856 0.0
C1189 C 0.10331 0.40243 0.54341 0.0
C1190 C 0.18528 0.35665 0.57354 0.0
C1191 C 0.18858 0.33829 0.64426 0.0
N1192 N 0.13025 0.39039 0.55515 0.0
N1193 N 0.16232 0.34929 0.62863 0.0
H1194 H 0.70805 0.18846 0.6204 0.0
H1195 H 0.51864 0.09556 0.57946 0.0
H1196 H 0.63636 0.22343 0.68011 0.0
H1197 H 0.59592 0.05499 0.53786 0.0
H1198 H 0.55781 0.14888 0.6037 0.0
H1199 H 0.66336 0.14762 0.57542 0.0
C1200 C 0.68274 0.18797 0.62349 0.0
C1201 C 0.67587 0.20877 0.65451 0.0
C1202 C 0.56607 0.12847 0.58873 0.0
C1203 C 0.62474 0.16148 0.60388 0.0
C1204 C 0.54383 0.09815 0.5751 0.0
C1205 C 0.55429 0.07123 0.55661 0.0
C1206 C 0.59902 0.1316 0.58418 0.0
C1207 C 0.58703 0.07542 0.55174 0.0
C1208 C 0.65726 0.16454 0.59793 0.0
C1209 C 0.64268 0.20756 0.65681 0.0
N1210 N 0.6083 0.10503 0.56558 0.0
N1211 N 0.61832 0.18369 0.63234 0.0
H1212 H 0.81724 0.35085 0.24989 0.0
H1213 H 0.909 0.44812 0.45974 0.0
H1214 H 0.77791 0.33998 0.35156 0.0
H1215 H 0.94047 0.46648 0.35566 0.0
H1216 H 0.85643 0.4148 0.42059 0.0
H1217 H 0.85728 0.39979 0.28726 0.0
C1218 C 0.81684 0.35902 0.28005 0.0
C1219 C 0.79486 0.34097 0.29797 0.0
C1220 C 0.87468 0.42643 0.40635 0.0
C1221 C 0.84094 0.3966 0.34111 0.0
C1222 C 0.90476 0.4453 0.42867 0.0
C1223 C 0.92943 0.4593 0.4108 0.0
C1224 C 0.86947 0.42138 0.36593 0.0
C1225 C 0.92243 0.45544 0.37056 0.0
C1226 C 0.83965 0.38702 0.30138 0.0
C1227 C 0.79484 0.35299 0.33684 0.0
N1228 N 0.89327 0.43648 0.34945 0.0
N1229 N 0.81806 0.37974 0.35739 0.0
H1230 H 0.68456 0.81938 0.24754 0.0
H1231 H 0.62506 0.91055 0.42925 0.0
H1232 H 0.71173 0.80394 0.36309 0.0
H1233 H 0.60111 0.92854 0.31435 0.0
H1234 H 0.6575 0.87213 0.40584 0.0
H1235 H 0.65447 0.85987 0.27167 0.0
C1236 C 0.68425 0.82452 0.27802 0.0
C1237 C 0.70058 0.80803 0.30325 0.0
C1238 C 0.64519 0.88451 0.38575 0.0
C1239 C 0.66606 0.85455 0.3312 0.0
C1240 C 0.62678 0.90667 0.39915 0.0
C1241 C 0.61026 0.92301 0.37382 0.0
C1242 C 0.64717 0.87844 0.34663 0.0
C1243 C 0.61298 0.9163 0.33492 0.0
C1244 C 0.66705 0.84771 0.29181 0.0
C1245 C 0.69946 0.81595 0.34254 0.0
N1246 N 0.63103 0.89458 0.32258 0.0
N1247 N 0.68242 0.83854 0.35525 0.0
H1248 H 0.23548 0.66552 0.32192 0.0
H1249 H 0.05862 0.59323 0.36092 0.0
H1250 H 0.15263 0.70996 0.29417 0.0
H1251 H 0.14758 0.59177 0.43958 0.0
H1252 H 0.09188 0.62927 0.32852 0.0
H1253 H 0.20321 0.63163 0.35767 0.0
C1254 C 0.21051 0.66814 0.32327 0.0
C1255 C 0.19683 0.69074 0.305 0.0
C1256 C 0.10413 0.62114 0.35292 0.0
C1257 C 0.15952 0.65148 0.34531 0.0
C1258 C 0.08518 0.60046 0.37139 0.0
C1259 C 0.10027 0.58944 0.40315 0.0
C1260 C 0.13868 0.63032 0.36547 0.0
C1261 C 0.13485 0.59978 0.41539 0.0
C1262 C 0.19218 0.64888 0.34383 0.0
C1263 C 0.1643 0.69304 0.30789 0.0
N1264 N 0.15291 0.61928 0.39628 0.0
N1265 N 0.14669 0.67345 0.3272 0.0
H1266 H 0.35869 0.24429 0.32984 0.0
H1267 H 0.36237 0.07618 0.39955 0.0
H1268 H 0.2691 0.17062 0.31548 0.0
H1269 H 0.44325 0.13033 0.36066 0.0
H1270 H 0.32831 0.11454 0.38065 0.0
H1271 H 0.3907 0.20724 0.3547 0.0
C1272 C 0.34562 0.22054 0.33248 0.0
C1273 C 0.31108 0.21056 0.32035 0.0
C1274 C 0.35351 0.1179 0.37628 0.0
C1275 C 0.34782 0.16791 0.3488 0.0
C1276 C 0.3729 0.09615 0.38709 0.0
C1277 C 0.40553 0.10001 0.38133 0.0
C1278 C 0.36721 0.1441 0.3606 0.0
C1279 C 0.41807 0.12626 0.36513 0.0
C1280 C 0.364 0.1993 0.34641 0.0
C1281 C 0.29567 0.17933 0.32441 0.0
N1282 N 0.399 0.14739 0.35558 0.0
N1283 N 0.31416 0.15904 0.33825 0.0
H1284 H 0.73426 0.83859 0.69854 0.0
H1285 H 0.55 0.85082 0.60989 0.0
H1286 H 0.65188 0.75527 0.65666 0.0
H1287 H 0.633 0.93386 0.63933 0.0
H1288 H 0.58749 0.81581 0.62728 0.0
H1289 H 0.69858 0.87394 0.67589 0.0
C1290 C 0.70886 0.82761 0.68406 0.0
C1291 C 0.69612 0.79383 0.67957 0.0
C1292 C 0.5976 0.84168 0.62995 0.0
C1293 C 0.65497 0.8343 0.65417 0.0
C1294 C 0.57609 0.86181 0.62036 0.0
C1295 C 0.58823 0.89549 0.62341 0.0
C1296 C 0.63166 0.85517 0.64289 0.0
C1297 C 0.6225 0.90804 0.63632 0.0
C1298 C 0.68845 0.84786 0.67132 0.0
C1299 C 0.6629 0.7811 0.66077 0.0
N1300 N 0.64297 0.88793 0.64573 0.0
N1301 N 0.6435 0.80134 0.6491 0.0
H1302 H 0.70625 0.21783 0.39026 0.0
H1303 H 0.54059 0.1299 0.40768 0.0
H1304 H 0.62476 0.26672 0.38572 0.0
H1305 H 0.6263 0.11354 0.47979 0.0
H1306 H 0.57225 0.18333 0.4049 0.0
H1307 H 0.68206 0.18494 0.43188 0.0
C1308 C 0.68395 0.22263 0.39917 0.0
C1309 C 0.66661 0.24401 0.38308 0.0
C1310 C 0.58408 0.16843 0.42199 0.0
C1311 C 0.63858 0.20592 0.42979 0.0
C1312 C 0.56614 0.13777 0.42307 0.0
C1313 C 0.58126 0.11721 0.4431 0.0
C1314 C 0.61772 0.17807 0.43994 0.0
C1315 C 0.61411 0.12869 0.46345 0.0
C1316 C 0.67009 0.20371 0.42294 0.0
C1317 C 0.63807 0.24941 0.39617 0.0
N1318 N 0.6317 0.15814 0.46043 0.0
N1319 N 0.62426 0.22964 0.41772 0.0
H1320 H 0.85116 0.74243 0.45436 0.0
H1321 H 0.88903 0.56616 0.4428 0.0
H1322 H 0.78416 0.6531 0.38831 0.0
H1323 H 0.9559 0.65435 0.51143 0.0
H1324 H 0.84528 0.59637 0.43469 0.0
H1325 H 0.88443 0.70998 0.48669 0.0
C1326 C 0.84302 0.71601 0.44714 0.0
C1327 C 0.8151 0.70043 0.41799 0.0
C1328 C 0.86931 0.60911 0.45208 0.0
C1329 C 0.85342 0.66315 0.4546 0.0
C1330 C 0.89426 0.59188 0.45666 0.0
C1331 C 0.92615 0.60809 0.47708 0.0
C1332 C 0.87657 0.64298 0.46729 0.0
C1333 C 0.93162 0.64114 0.49518 0.0
C1334 C 0.86215 0.69747 0.46557 0.0
C1335 C 0.80595 0.6661 0.40983 0.0
N1336 N 0.9072 0.65778 0.48913 0.0
N1337 N 0.82532 0.64861 0.42765 0.0
H1338 H 0.35632 0.76387 0.32645 0.0
H1339 H 0.47833 0.90312 0.40376 0.0
H1340 H 0.29072 0.82704 0.35581 0.0
H1341 H 0.4081 0.94116 0.46306 0.0
H1342 H 0.43811 0.85122 0.37898 0.0
H1343 H 0.40223 0.80321 0.37174 0.0
C1344 C 0.35152 0.78588 0.34264 0.0
C1345 C 0.31984 0.79269 0.33633 0.0
C1346 C 0.4316 0.87028 0.39842 0.0
C1347 C 0.37249 0.8385 0.38713 0.0
C1348 C 0.45455 0.90009 0.41221 0.0
C1349 C 0.44642 0.92613 0.43556 0.0
C1350 C 0.39998 0.86675 0.40748 0.0
C1351 C 0.41526 0.92139 0.44536 0.0
C1352 C 0.37786 0.8086 0.36821 0.0
C1353 C 0.31492 0.82119 0.3589 0.0
N1354 N 0.39296 0.89239 0.43082 0.0
N1355 N 0.34103 0.84325 0.3828 0.0
H1356 H 0.26228 0.35602 0.34782 0.0
H1357 H 0.08501 0.36605 0.39814 0.0
H1358 H 0.17836 0.27389 0.31893 0.0
H1359 H 0.16934 0.44784 0.43043 0.0
H1360 H 0.11986 0.33118 0.37239 0.0
H1361 H 0.23001 0.38909 0.38225 0.0
C1362 C 0.23726 0.34477 0.34914 0.0
C1363 C 0.22306 0.31207 0.33032 0.0
C1364 C 0.13083 0.3567 0.38538 0.0
C1365 C 0.18577 0.34999 0.36932 0.0
C1366 C 0.11086 0.3767 0.39997 0.0
C1367 C 0.12411 0.41007 0.41645 0.0
C1368 C 0.16439 0.37006 0.38703 0.0
C1369 C 0.15801 0.42224 0.41844 0.0
C1370 C 0.21878 0.36373 0.36868 0.0
C1371 C 0.19041 0.29897 0.3329 0.0
N1372 N 0.17685 0.40235 0.4037 0.0
N1373 N 0.17287 0.31798 0.35172 0.0
H1374 H 0.3285 0.1822 0.7572 0.0
H1375 H 0.37491 0.0871 0.56893 0.0
H1376 H 0.30592 0.20614 0.64532 0.0
H1377 H 0.42047 0.08331 0.68461 0.0
H1378 H 0.34647 0.12792 0.5959 0.0
H1379 H 0.35904 0.14286 0.7307 0.0
C1380 C 0.32997 0.17917 0.72706 0.0
C1381 C 0.31455 0.19742 0.70344 0.0
C1382 C 0.36276 0.11819 0.61536 0.0
C1383 C 0.34939 0.15235 0.67282 0.0
C1384 C 0.37925 0.09494 0.59999 0.0
C1385 C 0.40041 0.08158 0.62439 0.0
C1386 C 0.36703 0.12807 0.65553 0.0
C1387 C 0.40412 0.09235 0.66448 0.0
C1388 C 0.34752 0.15681 0.71198 0.0
C1389 C 0.31753 0.19271 0.66464 0.0
N1390 N 0.38756 0.11483 0.67873 0.0
N1391 N 0.33441 0.1705 0.6505 0.0
H1392 H 0.81418 0.26775 0.65146 0.0
H1393 H 0.89306 0.45029 0.63655 0.0
H1394 H 0.79034 0.35254 0.71623 0.0
H1395 H 0.88113 0.36781 0.54278 0.0
H1396 H 0.86051 0.41462 0.66989 0.0
H1397 H 0.84386 0.30334 0.61539 0.0
C1398 C 0.81523 0.29385 0.65822 0.0
C1399 C 0.79964 0.30706 0.68707 0.0
C1400 C 0.86483 0.40431 0.64194 0.0
C1401 C 0.83409 0.34816 0.64596 0.0
C1402 C 0.88349 0.42468 0.62283 0.0
C1403 C 0.88986 0.41217 0.58662 0.0
C1404 C 0.85288 0.37078 0.6253 0.0
C1405 C 0.87672 0.37866 0.57046 0.0
C1406 C 0.83208 0.31415 0.63744 0.0
C1407 C 0.80183 0.34114 0.69426 0.0
N1408 N 0.85922 0.35912 0.59003 0.0
N1409 N 0.81891 0.36044 0.67419 0.0
H1410 H 0.21679 0.66108 0.63353 0.0
H1411 H 0.06011 0.52234 0.63247 0.0
H1412 H 0.17629 0.64679 0.73362 0.0
H1413 H 0.0844 0.552 0.52985 0.0
H1414 H 0.11259 0.55683 0.66996 0.0
H1415 H 0.17857 0.61045 0.59614 0.0
C1416 C 0.20025 0.647 0.64778 0.0
C1417 C 0.19901 0.6585 0.68641 0.0
C1418 C 0.1066 0.55554 0.63917 0.0
C1419 C 0.15554 0.60082 0.64403 0.0
C1420 C 0.0766 0.53599 0.61778 0.0
C1421 C 0.06754 0.53513 0.57823 0.0
C1422 C 0.12756 0.57455 0.62091 0.0
C1423 C 0.09022 0.55252 0.56046 0.0
C1424 C 0.17846 0.61818 0.62644 0.0
C1425 C 0.17745 0.63918 0.70363 0.0
N1426 N 0.11905 0.57198 0.58207 0.0
N1427 N 0.15629 0.61146 0.6822 0.0
loop_
_geom_bond_atom_site_label_1
_geom_bond_atom_site_label_2
_geom_bond_distance
_geom_bond_site_symmetry_2
_ccdc_geom_bond_type
Co0 N5 2.057 . S
Co0 O17 2.021 . S
Co0 O20 2.062 . S
Co0 O24 2.117 . S
Co0 O25 2.020 . S
C1 O21 1.259 . S
C1 O24 1.258 . S
Co2 N11 2.057 . S
Co2 O18 2.117 . S
Co2 O19 2.020 . S
Co2 O21 2.021 . S
Co2 O26 2.062 . S
C3 N5 1.316 . S
C3 N6 1.347 . S
C3 H8 0.931 . S
C4 N5 1.375 . S
C4 C7 1.350 . S
C4 H9 0.930 . S
N5 Co0 2.057 . S
N5 C3 1.316 . S
N5 C4 1.375 . S
N6 C3 1.347 . S
N6 C7 1.373 . S
C7 C4 1.350 . S
C7 N6 1.373 . S
C7 H28 0.931 . S
H8 C3 0.931 . S
H9 C4 0.930 . S
C10 O17 1.259 . S
C10 O18 1.258 . S
N11 Co2 2.057 . S
N11 C12 1.316 . S
N11 C13 1.375 . S
C12 N11 1.316 . S
C12 N14 1.347 . S
C12 H23 0.931 . S
C13 N11 1.375 . S
C13 C15 1.350 . S
C13 H22 0.930 . S
N14 C12 1.347 . S
N14 C15 1.373 . S
C15 C13 1.350 . S
C15 N14 1.373 . S
C15 H29 0.931 . S
C16 O19 1.256 . S
C16 O20 1.255 . S
O17 Co0 2.021 . S
O17 C10 1.259 . S
O18 Co2 2.117 . S
O18 C10 1.258 . S
O19 Co2 2.020 . S
O19 C16 1.256 . S
O20 Co0 2.062 . S
O20 C16 1.255 . S
O21 C1 1.259 . S
O21 Co2 2.021 . S
H22 C13 0.930 . S
H23 C12 0.931 . S
O24 Co0 2.117 . S
O24 C1 1.258 . S
O25 Co0 2.020 . S
O25 C27 1.256 . S
O26 Co2 2.062 . S
O26 C27 1.255 . S
C27 O25 1.256 . S
C27 O26 1.255 . S
H28 C7 0.931 . S
H29 C15 0.931 . S
Co30 N35 2.057 . S
Co30 O47 2.021 . S
Co30 O50 2.062 . S
Co30 O54 2.117 . S
Co30 O55 2.020 . S
C31 O51 1.259 . S
C31 O54 1.258 . S
Co32 N41 2.057 . S
Co32 O48 2.117 . S
Co32 O49 2.020 . S
Co32 O51 2.021 . S
Co32 O56 2.062 . S
C33 N35 1.316 . S
C33 N36 1.347 . S
C33 H38 0.931 . S
C34 N35 1.375 . S
C34 C37 1.350 . S
C34 H39 0.930 . S
N35 Co30 2.057 . S
N35 C33 1.316 . S
N35 C34 1.375 . S
N36 C33 1.347 . S
N36 C37 1.373 . S
C37 C34 1.350 . S
C37 N36 1.373 . S
C37 H58 0.931 . S
H38 C33 0.931 . S
H39 C34 0.930 . S
C40 O47 1.259 . S
C40 O48 1.258 . S
N41 Co32 2.057 . S
N41 C42 1.316 . S
N41 C43 1.375 . S
C42 N41 1.316 . S
C42 N44 1.347 . S
C42 H53 0.931 . S
C43 N41 1.375 . S
C43 C45 1.350 . S
C43 H52 0.930 . S
N44 C42 1.347 . S
N44 C45 1.373 . S
C45 C43 1.350 . S
C45 N44 1.373 . S
C45 H59 0.931 . S
C46 O49 1.256 . S
C46 O50 1.255 . S
O47 Co30 2.021 . S
O47 C40 1.259 . S
O48 Co32 2.117 . S
O48 C40 1.258 . S
O49 Co32 2.020 . S
O49 C46 1.256 . S
O50 Co30 2.062 . S
O50 C46 1.255 . S
O51 C31 1.259 . S
O51 Co32 2.021 . S
H52 C43 0.930 . S
H53 C42 0.931 . S
O54 Co30 2.117 . S
O54 C31 1.258 . S
O55 Co30 2.020 . S
O55 C57 1.256 . S
O56 Co32 2.062 . S
O56 C57 1.255 . S
C57 O55 1.256 . S
C57 O56 1.255 . S
H58 C37 0.931 . S
H59 C45 0.931 . S
Co60 N65 2.057 . S
Co60 O77 2.021 . S
Co60 O80 2.062 . S
Co60 O84 2.117 . S
Co60 O85 2.020 . S
C61 O81 1.259 . S
C61 O84 1.258 . S
Co62 N71 2.057 . S
Co62 O78 2.117 . S
Co62 O79 2.020 . S
Co62 O81 2.021 . S
Co62 O86 2.062 . S
C63 N65 1.316 . S
C63 N66 1.347 . S
C63 H68 0.931 . S
C64 N65 1.375 . S
C64 C67 1.350 . S
C64 H69 0.930 . S
N65 Co60 2.057 . S
N65 C63 1.316 . S
N65 C64 1.375 . S
N66 C63 1.347 . S
N66 C67 1.373 . S
C67 C64 1.350 . S
C67 N66 1.373 . S
C67 H88 0.931 . S
H68 C63 0.931 . S
H69 C64 0.930 . S
C70 O77 1.259 . S
C70 O78 1.258 . S
N71 Co62 2.057 . S
N71 C72 1.316 . S
N71 C73 1.375 . S
C72 N71 1.316 . S
C72 N74 1.347 . S
C72 H83 0.931 . S
C73 N71 1.375 . S
C73 C75 1.350 . S
C73 H82 0.930 . S
N74 C72 1.347 . S
N74 C75 1.373 . S
C75 C73 1.350 . S
C75 N74 1.373 . S
C75 H89 0.931 . S
C76 O79 1.256 . S
C76 O80 1.255 . S
O77 Co60 2.021 . S
O77 C70 1.259 . S
O78 Co62 2.117 . S
O78 C70 1.258 . S
O79 Co62 2.020 . S
O79 C76 1.256 . S
O80 Co60 2.062 . S
O80 C76 1.255 . S
O81 C61 1.259 . S
O81 Co62 2.021 . S
H82 C73 0.930 . S
H83 C72 0.931 . S
O84 Co60 2.117 . S
O84 C61 1.258 . S
O85 Co60 2.020 . S
O85 C87 1.256 . S
O86 Co62 2.062 . S
O86 C87 1.255 . S
C87 O85 1.256 . S
C87 O86 1.255 . S
H88 C67 0.931 . S
H89 C75 0.931 . S
Co90 N95 2.057 . S
Co90 O107 2.021 . S
Co90 O110 2.062 . S
Co90 O114 2.117 . S
Co90 O115 2.020 . S
C91 O111 1.259 . S
C91 O114 1.258 . S
Co92 N101 2.057 . S
Co92 O108 2.117 . S
Co92 O109 2.020 . S
Co92 O111 2.021 . S
Co92 O116 2.062 . S
C93 N95 1.316 . S
C93 N96 1.347 . S
C93 H98 0.931 . S
C94 N95 1.375 . S
C94 C97 1.350 . S
C94 H99 0.930 . S
N95 Co90 2.057 . S
N95 C93 1.316 . S
N95 C94 1.375 . S
N96 C93 1.347 . S
N96 C97 1.373 . S
C97 C94 1.350 . S
C97 N96 1.373 . S
C97 H118 0.931 . S
H98 C93 0.931 . S
H99 C94 0.930 . S
C100 O107 1.259 . S
C100 O108 1.258 . S
N101 Co92 2.057 . S
N101 C102 1.316 . S
N101 C103 1.375 . S
C102 N101 1.316 . S
C102 N104 1.347 . S
C102 H113 0.931 . S
C103 N101 1.375 . S
C103 C105 1.350 . S
C103 H112 0.930 . S
N104 C102 1.347 . S
N104 C105 1.373 . S
C105 C103 1.350 . S
C105 N104 1.373 . S
C105 H119 0.931 . S
C106 O109 1.256 . S
C106 O110 1.255 . S
O107 Co90 2.021 . S
O107 C100 1.259 . S
O108 Co92 2.117 . S
O108 C100 1.258 . S
O109 Co92 2.020 . S
O109 C106 1.256 . S
O110 Co90 2.062 . S
O110 C106 1.255 . S
O111 C91 1.259 . S
O111 Co92 2.021 . S
H112 C103 0.930 . S
H113 C102 0.931 . S
O114 Co90 2.117 . S
O114 C91 1.258 . S
O115 Co90 2.020 . S
O115 C117 1.256 . S
O116 Co92 2.062 . S
O116 C117 1.255 . S
C117 O115 1.256 . S
C117 O116 1.255 . S
H118 C97 0.931 . S
H119 C105 0.931 . S
Co120 N125 2.057 . S
Co120 O137 2.021 . S
Co120 O140 2.062 . S
Co120 O144 2.117 . S
Co120 O145 2.020 . S
C121 O141 1.259 . S
C121 O144 1.258 . S
Co122 N131 2.057 . S
Co122 O138 2.117 . S
Co122 O139 2.020 . S
Co122 O141 2.021 . S
Co122 O146 2.062 . S
C123 N125 1.316 . S
C123 N126 1.347 . S
C123 H128 0.931 . S
C124 N125 1.375 . S
C124 C127 1.350 . S
C124 H129 0.930 . S
N125 Co120 2.057 . S
N125 C123 1.316 . S
N125 C124 1.375 . S
N126 C123 1.347 . S
N126 C127 1.373 . S
C127 C124 1.350 . S
C127 N126 1.373 . S
C127 H148 0.931 . S
H128 C123 0.931 . S
H129 C124 0.930 . S
C130 O137 1.259 . S
C130 O138 1.258 . S
N131 Co122 2.057 . S
N131 C132 1.316 . S
N131 C133 1.375 . S
C132 N131 1.316 . S
C132 N134 1.347 . S
C132 H143 0.931 . S
C133 N131 1.375 . S
C133 C135 1.350 . S
C133 H142 0.930 . S
N134 C132 1.347 . S
N134 C135 1.373 . S
C135 C133 1.350 . S
C135 N134 1.373 . S
C135 H149 0.931 . S
C136 O139 1.256 . S
C136 O140 1.255 . S
O137 Co120 2.021 . S
O137 C130 1.259 . S
O138 Co122 2.117 . S
O138 C130 1.258 . S
O139 Co122 2.020 . S
O139 C136 1.256 . S
O140 Co120 2.062 . S
O140 C136 1.255 . S
O141 C121 1.259 . S
O141 Co122 2.021 . S
H142 C133 0.930 . S
H143 C132 0.931 . S
O144 Co120 2.117 . S
O144 C121 1.258 . S
O145 Co120 2.020 . S
O145 C147 1.256 . S
O146 Co122 2.062 . S
O146 C147 1.255 . S
C147 O145 1.256 . S
C147 O146 1.255 . S
H148 C127 0.931 . S
H149 C135 0.931 . S
Co150 N155 2.057 . S
Co150 O167 2.021 . S
Co150 O170 2.062 . S
Co150 O174 2.117 . S
Co150 O175 2.020 . S
C151 O171 1.259 . S
C151 O174 1.258 . S
Co152 N161 2.057 . S
Co152 O168 2.117 . S
Co152 O169 2.020 . S
Co152 O171 2.021 . S
Co152 O176 2.062 . S
C153 N155 1.316 . S
C153 N156 1.347 . S
C153 H158 0.931 . S
C154 N155 1.375 . S
C154 C157 1.350 . S
C154 H159 0.930 . S
N155 Co150 2.057 . S
N155 C153 1.316 . S
N155 C154 1.375 . S
N156 C153 1.347 . S
N156 C157 1.373 . S
C157 C154 1.350 . S
C157 N156 1.373 . S
C157 H178 0.931 . S
H158 C153 0.931 . S
H159 C154 0.930 . S
C160 O167 1.259 . S
C160 O168 1.258 . S
N161 Co152 2.057 . S
N161 C162 1.316 . S
N161 C163 1.375 . S
C162 N161 1.316 . S
C162 N164 1.347 . S
C162 H173 0.931 . S
C163 N161 1.375 . S
C163 C165 1.350 . S
C163 H172 0.930 . S
N164 C162 1.347 . S
N164 C165 1.373 . S
C165 C163 1.350 . S
C165 N164 1.373 . S
C165 H179 0.931 . S
C166 O169 1.256 . S
C166 O170 1.255 . S
O167 Co150 2.021 . S
O167 C160 1.259 . S
O168 Co152 2.117 . S
O168 C160 1.258 . S
O169 Co152 2.020 . S
O169 C166 1.256 . S
O170 Co150 2.062 . S
O170 C166 1.255 . S
O171 C151 1.259 . S
O171 Co152 2.021 . S
H172 C163 0.930 . S
H173 C162 0.931 . S
O174 Co150 2.117 . S
O174 C151 1.258 . S
O175 Co150 2.020 . S
O175 C177 1.256 . S
O176 Co152 2.062 . S
O176 C177 1.255 . S
C177 O175 1.256 . S
C177 O176 1.255 . S
H178 C157 0.931 . S
H179 C165 0.931 . S
Co180 N185 2.057 . S
Co180 O197 2.021 . S
Co180 O200 2.062 . S
Co180 O204 2.117 . S
Co180 O205 2.020 . S
C181 O201 1.259 . S
C181 O204 1.258 . S
Co182 N191 2.057 . S
Co182 O198 2.117 . S
Co182 O199 2.020 . S
Co182 O201 2.021 . S
Co182 O206 2.062 . S
C183 N185 1.316 . S
C183 N186 1.347 . S
C183 H188 0.931 . S
C184 N185 1.375 . S
C184 C187 1.350 . S
C184 H189 0.930 . S
N185 Co180 2.057 . S
N185 C183 1.316 . S
N185 C184 1.375 . S
N186 C183 1.347 . S
N186 C187 1.373 . S
C187 C184 1.350 . S
C187 N186 1.373 . S
C187 H208 0.931 . S
H188 C183 0.931 . S
H189 C184 0.930 . S
C190 O197 1.259 . S
C190 O198 1.258 . S
N191 Co182 2.057 . S
N191 C192 1.316 . S
N191 C193 1.375 . S
C192 N191 1.316 . S
C192 N194 1.347 . S
C192 H203 0.931 . S
C193 N191 1.375 . S
C193 C195 1.350 . S
C193 H202 0.930 . S
N194 C192 1.347 . S
N194 C195 1.373 . S
C195 C193 1.350 . S
C195 N194 1.373 . S
C195 H209 0.931 . S
C196 O199 1.256 . S
C196 O200 1.255 . S
O197 Co180 2.021 . S
O197 C190 1.259 . S
O198 Co182 2.117 . S
O198 C190 1.258 . S
O199 Co182 2.020 . S
O199 C196 1.256 . S
O200 Co180 2.062 . S
O200 C196 1.255 . S
O201 C181 1.259 . S
O201 Co182 2.021 . S
H202 C193 0.930 . S
H203 C192 0.931 . S
O204 Co180 2.117 . S
O204 C181 1.258 . S
O205 Co180 2.020 . S
O205 C207 1.256 . S
O206 Co182 2.062 . S
O206 C207 1.255 . S
C207 O205 1.256 . S
C207 O206 1.255 . S
H208 C187 0.931 . S
H209 C195 0.931 . S
Co210 N215 2.057 . S
Co210 O227 2.021 . S
Co210 O230 2.062 . S
Co210 O234 2.117 . S
Co210 O235 2.020 . S
C211 O231 1.259 . S
C211 O234 1.258 . S
Co212 N221 2.057 . S
Co212 O228 2.117 . S
Co212 O229 2.020 . S
Co212 O231 2.021 . S
Co212 O236 2.062 . S
C213 N215 1.316 . S
C213 N216 1.347 . S
C213 H218 0.931 . S
C214 N215 1.375 . S
C214 C217 1.350 . S
C214 H219 0.930 . S
N215 Co210 2.057 . S
N215 C213 1.316 . S
N215 C214 1.375 . S
N216 C213 1.347 . S
N216 C217 1.373 . S
C217 C214 1.350 . S
C217 N216 1.373 . S
C217 H238 0.931 . S
H218 C213 0.931 . S
H219 C214 0.930 . S
C220 O227 1.259 . S
C220 O228 1.258 . S
N221 Co212 2.057 . S
N221 C222 1.316 . S
N221 C223 1.375 . S
C222 N221 1.316 . S
C222 N224 1.347 . S
C222 H233 0.931 . S
C223 N221 1.375 . S
C223 C225 1.350 . S
C223 H232 0.930 . S
N224 C222 1.347 . S
N224 C225 1.373 . S
C225 C223 1.350 . S
C225 N224 1.373 . S
C225 H239 0.931 . S
C226 O229 1.256 . S
C226 O230 1.255 . S
O227 Co210 2.021 . S
O227 C220 1.259 . S
O228 Co212 2.117 . S
O228 C220 1.258 . S
O229 Co212 2.020 . S
O229 C226 1.256 . S
O230 Co210 2.062 . S
O230 C226 1.255 . S
O231 C211 1.259 . S
O231 Co212 2.021 . S
H232 C223 0.930 . S
H233 C222 0.931 . S
O234 Co210 2.117 . S
O234 C211 1.258 . S
O235 Co210 2.020 . S
O235 C237 1.256 . S
O236 Co212 2.062 . S
O236 C237 1.255 . S
C237 O235 1.256 . S
C237 O236 1.255 . S
H238 C217 0.931 . S
H239 C225 0.931 . S
Cd240 N243 2.334 1_655 S
Cd240 N269 2.304 1_565 S
Cd240 O276 2.268 . S
Cd240 O279 2.273 1_665 S
Cd240 O280 2.417 . S
Cd240 O281 2.330 . S
Cd241 N256 2.304 1_455 S
Cd241 N260 2.334 1_545 S
Cd241 O277 2.273 1_445 S
Cd241 O278 2.268 . S
Cd241 O282 2.417 . S
Cd241 O283 2.330 . S
C242 N243 1.332 . S
C242 C246 1.381 . S
C242 H248 0.931 . S
N243 Cd240 2.334 1_455 S
N243 C242 1.332 . S
N243 C247 1.328 . S
C244 C245 1.396 . S
C244 C247 1.378 . S
C244 H286 0.931 . S
C245 C244 1.396 . S
C245 C246 1.382 . S
C246 C242 1.381 . S
C246 C245 1.382 . S
C246 H287 0.930 . S
C247 N243 1.328 . S
C247 C244 1.378 . S
C247 H249 0.930 1_455 S
H248 C242 0.931 . S
H249 C247 0.930 1_655 S
C250 O276 1.238 . S
C250 O277 1.253 . S
C251 C252 1.379 . S
C251 N256 1.337 . S
C251 H257 0.929 . S
C252 C251 1.379 . S
C252 C253 1.380 . S
C252 H288 0.929 . S
C253 C252 1.380 . S
C253 C254 1.399 . S
C254 C253 1.399 . S
C254 C255 1.376 . S
C254 H289 0.931 . S
C255 C254 1.376 . S
C255 N256 1.338 . S
C255 H258 0.930 1_655 S
N256 Cd241 2.304 1_655 S
N256 C251 1.337 . S
N256 C255 1.338 . S
H257 C251 0.929 . S
H258 C255 0.930 1_455 S
C259 N260 1.332 . S
C259 C263 1.381 . S
C259 H265 0.931 . S
N260 Cd241 2.334 1_565 S
N260 C259 1.332 . S
N260 C264 1.328 . S
C261 C262 1.396 . S
C261 C264 1.378 . S
C261 H290 0.931 . S
C262 C261 1.396 . S
C262 C263 1.382 . S
C263 C259 1.381 . S
C263 C262 1.382 . S
C263 H291 0.930 . S
C264 N260 1.328 . S
C264 C261 1.378 . S
C264 H266 0.930 1_565 S
H265 C259 0.931 . S
H266 C264 0.930 1_545 S
C267 O278 1.238 . S
C267 O279 1.253 . S
C268 O280 1.239 . S
C268 O281 1.230 . S
N269 Cd240 2.304 1_545 S
N269 C270 1.337 . S
N269 C274 1.338 . S
C270 N269 1.337 . S
C270 C271 1.379 . S
C270 H284 0.929 . S
C271 C270 1.379 . S
C271 C272 1.380 . S
C271 H292 0.929 . S
C272 C271 1.380 . S
C272 C273 1.399 . S
C273 C272 1.399 . S
C273 C274 1.376 . S
C273 H293 0.931 . S
C274 N269 1.338 . S
C274 C273 1.376 . S
C274 H285 0.930 1_545 S
C275 O282 1.239 . S
C275 O283 1.230 . S
O276 Cd240 2.268 . S
O276 C250 1.238 . S
O277 Cd241 2.273 1_665 S
O277 C250 1.253 . S
O278 Cd241 2.268 . S
O278 C267 1.238 . S
O279 Cd240 2.273 1_445 S
O279 C267 1.253 . S
O280 Cd240 2.417 . S
O280 C268 1.239 . S
O281 Cd240 2.330 . S
O281 C268 1.230 . S
O282 Cd241 2.417 . S
O282 C275 1.239 . S
O283 Cd241 2.330 . S
O283 C275 1.230 . S
H284 C270 0.929 . S
H285 C274 0.930 1_565 S
H286 C244 0.931 . S
H287 C246 0.930 . S
H288 C252 0.929 . S
H289 C254 0.931 . S
H290 C261 0.931 . S
H291 C263 0.930 . S
H292 C271 0.929 . S
H293 C273 0.931 . S
Cd294 N297 2.334 . S
Cd294 N323 2.304 1_565 S
Cd294 O330 2.268 1_554 S
Cd294 O333 2.273 1_565 S
Cd294 O334 2.417 . S
Cd294 O335 2.330 . S
Cd295 N310 2.304 . S
Cd295 N314 2.334 1_545 S
Cd295 O331 2.273 1_545 S
Cd295 O332 2.268 1_556 S
Cd295 O336 2.417 . S
Cd295 O337 2.330 . S
C296 N297 1.332 . S
C296 C300 1.381 . S
C296 H302 0.931 . S
N297 Cd294 2.334 . S
N297 C296 1.332 . S
N297 C301 1.328 . S
C298 C299 1.396 . S
C298 C301 1.378 . S
C298 H340 0.931 1_554 S
C299 C298 1.396 . S
C299 C300 1.382 . S
C300 C296 1.381 . S
C300 C299 1.382 . S
C300 H341 0.930 . S
C301 N297 1.328 . S
C301 C298 1.378 . S
C301 H303 0.930 1_554 S
H302 C296 0.931 . S
H303 C301 0.930 1_556 S
C304 O330 1.238 . S
C304 O331 1.253 . S
C305 C306 1.379 . S
C305 N310 1.337 . S
C305 H311 0.929 . S
C306 C305 1.379 . S
C306 C307 1.380 . S
C306 H342 0.929 . S
C307 C306 1.380 . S
C307 C308 1.399 . S
C308 C307 1.399 . S
C308 C309 1.376 . S
C308 H343 0.931 1_556 S
C309 C308 1.376 . S
C309 N310 1.338 . S
C309 H312 0.930 1_556 S
N310 Cd295 2.304 . S
N310 C305 1.337 . S
N310 C309 1.338 . S
H311 C305 0.929 . S
H312 C309 0.930 1_554 S
C313 N314 1.332 . S
C313 C317 1.381 . S
C313 H319 0.931 . S
N314 Cd295 2.334 1_565 S
N314 C313 1.332 . S
N314 C318 1.328 . S
C315 C316 1.396 . S
C315 C318 1.378 . S
C315 H344 0.931 1_556 S
C316 C315 1.396 . S
C316 C317 1.382 . S
C317 C313 1.381 . S
C317 C316 1.382 . S
C317 H345 0.930 . S
C318 N314 1.328 . S
C318 C315 1.378 . S
C318 H320 0.930 1_566 S
H319 C313 0.931 . S
H320 C318 0.930 1_544 S
C321 O332 1.238 . S
C321 O333 1.253 . S
C322 O334 1.239 . S
C322 O335 1.230 . S
N323 Cd294 2.304 1_545 S
N323 C324 1.337 . S
N323 C328 1.338 . S
C324 N323 1.337 . S
C324 C325 1.379 . S
C324 H338 0.929 . S
C325 C324 1.379 . S
C325 C326 1.380 . S
C325 H346 0.929 . S
C326 C325 1.380 . S
C326 C327 1.399 . S
C327 C326 1.399 . S
C327 C328 1.376 . S
C327 H347 0.931 1_554 S
C328 N323 1.338 . S
C328 C327 1.376 . S
C328 H339 0.930 1_544 S
C329 O336 1.239 . S
C329 O337 1.230 . S
O330 Cd294 2.268 1_556 S
O330 C304 1.238 . S
O331 Cd295 2.273 1_565 S
O331 C304 1.253 . S
O332 Cd295 2.268 1_554 S
O332 C321 1.238 . S
O333 Cd294 2.273 1_545 S
O333 C321 1.253 . S
O334 Cd294 2.417 . S
O334 C322 1.239 . S
O335 Cd294 2.330 . S
O335 C322 1.230 . S
O336 Cd295 2.417 . S
O336 C329 1.239 . S
O337 Cd295 2.330 . S
O337 C329 1.230 . S
H338 C324 0.929 . S
H339 C328 0.930 1_566 S
H340 C298 0.931 1_556 S
H341 C300 0.930 . S
H342 C306 0.929 . S
H343 C308 0.931 1_554 S
H344 C315 0.931 1_554 S
H345 C317 0.930 . S
H346 C325 0.929 . S
H347 C327 0.931 1_556 S
Cd348 N351 2.334 1_655 S
Cd348 N377 2.304 . S
Cd348 O384 2.268 1_554 S
Cd348 O387 2.273 1_655 S
Cd348 O388 2.417 . S
Cd348 O389 2.330 . S
Cd349 N364 2.304 1_455 S
Cd349 N368 2.334 . S
Cd349 O385 2.273 1_455 S
Cd349 O386 2.268 1_556 S
Cd349 O390 2.417 . S
Cd349 O391 2.330 . S
C350 N351 1.332 . S
C350 C354 1.381 . S
C350 H356 0.931 . S
N351 Cd348 2.334 1_455 S
N351 C350 1.332 . S
N351 C355 1.328 . S
C352 C353 1.396 . S
C352 C355 1.378 . S
C352 H394 0.931 1_554 S
C353 C352 1.396 . S
C353 C354 1.382 . S
C354 C350 1.381 . S
C354 C353 1.382 . S
C354 H395 0.930 . S
C355 N351 1.328 . S
C355 C352 1.378 . S
C355 H357 0.930 1_454 S
H356 C350 0.931 . S
H357 C355 0.930 1_656 S
C358 O384 1.238 . S
C358 O385 1.253 . S
C359 C360 1.379 . S
C359 N364 1.337 . S
C359 H365 0.929 . S
C360 C359 1.379 . S
C360 C361 1.380 . S
C360 H396 0.929 . S
C361 C360 1.380 . S
C361 C362 1.399 . S
C362 C361 1.399 . S
C362 C363 1.376 . S
C362 H397 0.931 1_556 S
C363 C362 1.376 . S
C363 N364 1.338 . S
C363 H366 0.930 1_656 S
N364 Cd349 2.304 1_655 S
N364 C359 1.337 . S
N364 C363 1.338 . S
H365 C359 0.929 . S
H366 C363 0.930 1_454 S
C367 N368 1.332 . S
C367 C371 1.381 . S
C367 H373 0.931 . S
N368 Cd349 2.334 . S
N368 C367 1.332 . S
N368 C372 1.328 . S
C369 C370 1.396 . S
C369 C372 1.378 . S
C369 H398 0.931 1_556 S
C370 C369 1.396 . S
C370 C371 1.382 . S
C371 C367 1.381 . S
C371 C370 1.382 . S
C371 H399 0.930 . S
C372 N368 1.328 . S
C372 C369 1.378 . S
C372 H374 0.930 1_556 S
H373 C367 0.931 . S
H374 C372 0.930 1_554 S
C375 O386 1.238 . S
C375 O387 1.253 . S
C376 O388 1.239 . S
C376 O389 1.230 . S
N377 Cd348 2.304 . S
N377 C378 1.337 . S
N377 C382 1.338 . S
C378 N377 1.337 . S
C378 C379 1.379 . S
C378 H392 0.929 . S
C379 C378 1.379 . S
C379 C380 1.380 . S
C379 H400 0.929 . S
C380 C379 1.380 . S
C380 C381 1.399 . S
C381 C380 1.399 . S
C381 C382 1.376 . S
C381 H401 0.931 1_554 S
C382 N377 1.338 . S
C382 C381 1.376 . S
C382 H393 0.930 1_554 S
C383 O390 1.239 . S
C383 O391 1.230 . S
O384 Cd348 2.268 1_556 S
O384 C358 1.238 . S
O385 Cd349 2.273 1_655 S
O385 C358 1.253 . S
O386 Cd349 2.268 1_554 S
O386 C375 1.238 . S
O387 Cd348 2.273 1_455 S
O387 C375 1.253 . S
O388 Cd348 2.417 . S
O388 C376 1.239 . S
O389 Cd348 2.330 . S
O389 C376 1.230 . S
O390 Cd349 2.417 . S
O390 C383 1.239 . S
O391 Cd349 2.330 . S
O391 C383 1.230 . S
H392 C378 0.929 . S
H393 C382 0.930 1_556 S
H394 C352 0.931 1_556 S
H395 C354 0.930 . S
H396 C360 0.929 . S
H397 C362 0.931 1_554 S
H398 C369 0.931 1_554 S
H399 C371 0.930 . S
H400 C379 0.929 . S
H401 C381 0.931 1_556 S
Cd402 N405 2.334 . S
Cd402 N431 2.304 . S
Cd402 O438 2.268 1_554 S
Cd402 O441 2.273 . S
Cd402 O442 2.417 . S
Cd402 O443 2.330 . S
Cd403 N418 2.304 . S
Cd403 N422 2.334 . S
Cd403 O439 2.273 . S
Cd403 O440 2.268 1_556 S
Cd403 O444 2.417 . S
Cd403 O445 2.330 . S
C404 N405 1.332 . S
C404 C408 1.381 . S
C404 H410 0.931 . S
N405 Cd402 2.334 . S
N405 C404 1.332 . S
N405 C409 1.328 . S
C406 C407 1.396 . S
C406 C409 1.378 . S
C406 H448 0.931 1_554 S
C407 C406 1.396 . S
C407 C408 1.382 . S
C408 C404 1.381 . S
C408 C407 1.382 . S
C408 H449 0.930 . S
C409 N405 1.328 . S
C409 C406 1.378 . S
C409 H411 0.930 1_554 S
H410 C404 0.931 . S
H411 C409 0.930 1_556 S
C412 O438 1.238 . S
C412 O439 1.253 . S
C413 C414 1.379 . S
C413 N418 1.337 . S
C413 H419 0.929 . S
C414 C413 1.379 . S
C414 C415 1.380 . S
C414 H450 0.929 . S
C415 C414 1.380 . S
C415 C416 1.399 . S
C416 C415 1.399 . S
C416 C417 1.376 . S
C416 H451 0.931 1_556 S
C417 C416 1.376 . S
C417 N418 1.338 . S
C417 H420 0.930 1_556 S
N418 Cd403 2.304 . S
N418 C413 1.337 . S
N418 C417 1.338 . S
H419 C413 0.929 . S
H420 C417 0.930 1_554 S
C421 N422 1.332 . S
C421 C425 1.381 . S
C421 H427 0.931 . S
N422 Cd403 2.334 . S
N422 C421 1.332 . S
N422 C426 1.328 . S
C423 C424 1.396 . S
C423 C426 1.378 . S
C423 H452 0.931 1_556 S
C424 C423 1.396 . S
C424 C425 1.382 . S
C425 C421 1.381 . S
C425 C424 1.382 . S
C425 H453 0.930 . S
C426 N422 1.328 . S
C426 C423 1.378 . S
C426 H428 0.930 1_556 S
H427 C421 0.931 . S
H428 C426 0.930 1_554 S
C429 O440 1.238 . S
C429 O441 1.253 . S
C430 O442 1.239 . S
C430 O443 1.230 . S
N431 Cd402 2.304 . S
N431 C432 1.337 . S
N431 C436 1.338 . S
C432 N431 1.337 . S
C432 C433 1.379 . S
C432 H446 0.929 . S
C433 C432 1.379 . S
C433 C434 1.380 . S
C433 H454 0.929 . S
C434 C433 1.380 . S
C434 C435 1.399 . S
C435 C434 1.399 . S
C435 C436 1.376 . S
C435 H455 0.931 1_554 S
C436 N431 1.338 . S
C436 C435 1.376 . S
C436 H447 0.930 1_554 S
C437 O444 1.239 . S
C437 O445 1.230 . S
O438 Cd402 2.268 1_556 S
O438 C412 1.238 . S
O439 Cd403 2.273 . S
O439 C412 1.253 . S
O440 Cd403 2.268 1_554 S
O440 C429 1.238 . S
O441 Cd402 2.273 . S
O441 C429 1.253 . S
O442 Cd402 2.417 . S
O442 C430 1.239 . S
O443 Cd402 2.330 . S
O443 C430 1.230 . S
O444 Cd403 2.417 . S
O444 C437 1.239 . S
O445 Cd403 2.330 . S
O445 C437 1.230 . S
H446 C432 0.929 . S
H447 C436 0.930 1_556 S
H448 C406 0.931 1_556 S
H449 C408 0.930 . S
H450 C414 0.929 . S
H451 C416 0.931 1_554 S
H452 C423 0.931 1_554 S
H453 C425 0.930 . S
H454 C433 0.929 . S
H455 C435 0.931 1_556 S
Cd456 N459 2.334 1_655 S
Cd456 N485 2.304 . S
Cd456 O492 2.268 . S
Cd456 O495 2.273 1_655 S
Cd456 O496 2.417 . S
Cd456 O497 2.330 . S
Cd457 N472 2.304 1_455 S
Cd457 N476 2.334 . S
Cd457 O493 2.273 1_455 S
Cd457 O494 2.268 . S
Cd457 O498 2.417 . S
Cd457 O499 2.330 . S
C458 N459 1.332 . S
C458 C462 1.381 . S
C458 H464 0.931 . S
N459 Cd456 2.334 1_455 S
N459 C458 1.332 . S
N459 C463 1.328 . S
C460 C461 1.396 . S
C460 C463 1.378 . S
C460 H502 0.931 . S
C461 C460 1.396 . S
C461 C462 1.382 . S
C462 C458 1.381 . S
C462 C461 1.382 . S
C462 H503 0.930 . S
C463 N459 1.328 . S
C463 C460 1.378 . S
C463 H465 0.930 1_455 S
H464 C458 0.931 . S
H465 C463 0.930 1_655 S
C466 O492 1.238 . S
C466 O493 1.253 . S
C467 C468 1.379 . S
C467 N472 1.337 . S
C467 H473 0.929 . S
C468 C467 1.379 . S
C468 C469 1.380 . S
C468 H504 0.929 . S
C469 C468 1.380 . S
C469 C470 1.399 . S
C470 C469 1.399 . S
C470 C471 1.376 . S
C470 H505 0.931 . S
C471 C470 1.376 . S
C471 N472 1.338 . S
C471 H474 0.930 1_655 S
N472 Cd457 2.304 1_655 S
N472 C467 1.337 . S
N472 C471 1.338 . S
H473 C467 0.929 . S
H474 C471 0.930 1_455 S
C475 N476 1.332 . S
C475 C479 1.381 . S
C475 H481 0.931 . S
N476 Cd457 2.334 . S
N476 C475 1.332 . S
N476 C480 1.328 . S
C477 C478 1.396 . S
C477 C480 1.378 . S
C477 H506 0.931 . S
C478 C477 1.396 . S
C478 C479 1.382 . S
C479 C475 1.381 . S
C479 C478 1.382 . S
C479 H507 0.930 . S
C480 N476 1.328 . S
C480 C477 1.378 . S
C480 H482 0.930 . S
H481 C475 0.931 . S
H482 C480 0.930 . S
C483 O494 1.238 . S
C483 O495 1.253 . S
C484 O496 1.239 . S
C484 O497 1.230 . S
N485 Cd456 2.304 . S
N485 C486 1.337 . S
N485 C490 1.338 . S
C486 N485 1.337 . S
C486 C487 1.379 . S
C486 H500 0.929 . S
C487 C486 1.379 . S
C487 C488 1.380 . S
C487 H508 0.929 . S
C488 C487 1.380 . S
C488 C489 1.399 . S
C489 C488 1.399 . S
C489 C490 1.376 . S
C489 H509 0.931 . S
C490 N485 1.338 . S
C490 C489 1.376 . S
C490 H501 0.930 . S
C491 O498 1.239 . S
C491 O499 1.230 . S
O492 Cd456 2.268 . S
O492 C466 1.238 . S
O493 Cd457 2.273 1_655 S
O493 C466 1.253 . S
O494 Cd457 2.268 . S
O494 C483 1.238 . S
O495 Cd456 2.273 1_455 S
O495 C483 1.253 . S
O496 Cd456 2.417 . S
O496 C484 1.239 . S
O497 Cd456 2.330 . S
O497 C484 1.230 . S
O498 Cd457 2.417 . S
O498 C491 1.239 . S
O499 Cd457 2.330 . S
O499 C491 1.230 . S
H500 C486 0.929 . S
H501 C490 0.930 . S
H502 C460 0.931 . S
H503 C462 0.930 . S
H504 C468 0.929 . S
H505 C470 0.931 . S
H506 C477 0.931 . S
H507 C479 0.930 . S
H508 C487 0.929 . S
H509 C489 0.931 . S
Cd510 N513 2.334 . S
Cd510 N539 2.304 1_565 S
Cd510 O546 2.268 . S
Cd510 O549 2.273 1_565 S
Cd510 O550 2.417 . S
Cd510 O551 2.330 . S
Cd511 N526 2.304 . S
Cd511 N530 2.334 1_545 S
Cd511 O547 2.273 1_545 S
Cd511 O548 2.268 . S
Cd511 O552 2.417 . S
Cd511 O553 2.330 . S
C512 N513 1.332 . S
C512 C516 1.381 . S
C512 H518 0.931 . S
N513 Cd510 2.334 . S
N513 C512 1.332 . S
N513 C517 1.328 . S
C514 C515 1.396 . S
C514 C517 1.378 . S
C514 H556 0.931 . S
C515 C514 1.396 . S
C515 C516 1.382 . S
C516 C512 1.381 . S
C516 C515 1.382 . S
C516 H557 0.930 . S
C517 N513 1.328 . S
C517 C514 1.378 . S
C517 H519 0.930 . S
H518 C512 0.931 . S
H519 C517 0.930 . S
C520 O546 1.238 . S
C520 O547 1.253 . S
C521 C522 1.379 . S
C521 N526 1.337 . S
C521 H527 0.929 . S
C522 C521 1.379 . S
C522 C523 1.380 . S
C522 H558 0.929 . S
C523 C522 1.380 . S
C523 C524 1.399 . S
C524 C523 1.399 . S
C524 C525 1.376 . S
C524 H559 0.931 . S
C525 C524 1.376 . S
C525 N526 1.338 . S
C525 H528 0.930 . S
N526 Cd511 2.304 . S
N526 C521 1.337 . S
N526 C525 1.338 . S
H527 C521 0.929 . S
H528 C525 0.930 . S
C529 N530 1.332 . S
C529 C533 1.381 . S
C529 H535 0.931 . S
N530 Cd511 2.334 1_565 S
N530 C529 1.332 . S
N530 C534 1.328 . S
C531 C532 1.396 . S
C531 C534 1.378 . S
C531 H560 0.931 . S
C532 C531 1.396 . S
C532 C533 1.382 . S
C533 C529 1.381 . S
C533 C532 1.382 . S
C533 H561 0.930 . S
C534 N530 1.328 . S
C534 C531 1.378 . S
C534 H536 0.930 1_565 S
H535 C529 0.931 . S
H536 C534 0.930 1_545 S
C537 O548 1.238 . S
C537 O549 1.253 . S
C538 O550 1.239 . S
C538 O551 1.230 . S
N539 Cd510 2.304 1_545 S
N539 C540 1.337 . S
N539 C544 1.338 . S
C540 N539 1.337 . S
C540 C541 1.379 . S
C540 H554 0.929 . S
C541 C540 1.379 . S
C541 C542 1.380 . S
C541 H562 0.929 . S
C542 C541 1.380 . S
C542 C543 1.399 . S
C543 C542 1.399 . S
C543 C544 1.376 . S
C543 H563 0.931 . S
C544 N539 1.338 . S
C544 C543 1.376 . S
C544 H555 0.930 1_545 S
C545 O552 1.239 . S
C545 O553 1.230 . S
O546 Cd510 2.268 . S
O546 C520 1.238 . S
O547 Cd511 2.273 1_565 S
O547 C520 1.253 . S
O548 Cd511 2.268 . S
O548 C537 1.238 . S
O549 Cd510 2.273 1_545 S
O549 C537 1.253 . S
O550 Cd510 2.417 . S
O550 C538 1.239 . S
O551 Cd510 2.330 . S
O551 C538 1.230 . S
O552 Cd511 2.417 . S
O552 C545 1.239 . S
O553 Cd511 2.330 . S
O553 C545 1.230 . S
H554 C540 0.929 . S
H555 C544 0.930 1_565 S
H556 C514 0.931 . S
H557 C516 0.930 . S
H558 C522 0.929 . S
H559 C524 0.931 . S
H560 C531 0.931 . S
H561 C533 0.930 . S
H562 C541 0.929 . S
H563 C543 0.931 . S
H564 C570 0.930 . S
H565 C574 0.930 . S
H566 C579 0.929 . S
H567 C577 0.929 . S
H568 C572 0.929 . S
H569 C578 0.929 . S
C570 H564 0.930 . S
C570 C571 1.367 . S
C570 C578 1.378 . S
C571 C570 1.367 . S
C571 C579 1.433 . S
C572 H568 0.929 . S
C572 C574 1.378 . S
C572 C576 1.350 . S
C573 C576 1.463 . S
C573 C578 1.350 . S
C573 N581 1.427 . S
C574 H565 0.930 . S
C574 C572 1.378 . S
C574 C575 1.367 . S
C575 C574 1.367 . S
C575 C577 1.433 . S
C576 C572 1.350 . S
C576 C573 1.463 . S
C576 N580 1.427 . S
C577 H567 0.929 . S
C577 C575 1.433 . S
C577 N580 1.384 . S
C578 H569 0.929 . S
C578 C570 1.378 . S
C578 C573 1.350 . S
C579 H566 0.929 . S
C579 C571 1.433 . S
C579 N581 1.384 . S
N580 C576 1.427 . S
N580 C577 1.384 . S
N581 C573 1.427 . S
N581 C579 1.384 . S
H582 C588 0.930 . S
H583 C592 0.930 . S
H584 C597 0.929 . S
H585 C595 0.929 . S
H586 C590 0.929 . S
H587 C596 0.929 . S
C588 H582 0.930 . S
C588 C589 1.367 . S
C588 C596 1.378 . S
C589 C588 1.367 . S
C589 C597 1.433 . S
C590 H586 0.929 . S
C590 C592 1.378 . S
C590 C594 1.350 . S
C591 C594 1.463 . S
C591 C596 1.350 . S
C591 N599 1.427 . S
C592 H583 0.930 . S
C592 C590 1.378 . S
C592 C593 1.367 . S
C593 C592 1.367 . S
C593 C595 1.433 . S
C594 C590 1.350 . S
C594 C591 1.463 . S
C594 N598 1.427 . S
C595 H585 0.929 . S
C595 C593 1.433 . S
C595 N598 1.384 . S
C596 H587 0.929 . S
C596 C588 1.378 . S
C596 C591 1.350 . S
C597 H584 0.929 . S
C597 C589 1.433 . S
C597 N599 1.384 . S
N598 C594 1.427 . S
N598 C595 1.384 . S
N599 C591 1.427 . S
N599 C597 1.384 . S
H600 C606 0.930 . S
H601 C610 0.930 . S
H602 C615 0.929 . S
H603 C613 0.929 . S
H604 C608 0.929 . S
H605 C614 0.929 . S
C606 H600 0.930 . S
C606 C607 1.367 . S
C606 C614 1.378 . S
C607 C606 1.367 . S
C607 C615 1.433 . S
C608 H604 0.929 . S
C608 C610 1.378 . S
C608 C612 1.350 . S
C609 C612 1.463 . S
C609 C614 1.350 . S
C609 N617 1.427 . S
C610 H601 0.930 . S
C610 C608 1.378 . S
C610 C611 1.367 . S
C611 C610 1.367 . S
C611 C613 1.433 . S
C612 C608 1.350 . S
C612 C609 1.463 . S
C612 N616 1.427 . S
C613 H603 0.929 . S
C613 C611 1.433 . S
C613 N616 1.384 . S
C614 H605 0.929 . S
C614 C606 1.378 . S
C614 C609 1.350 . S
C615 H602 0.929 . S
C615 C607 1.433 . S
C615 N617 1.384 . S
N616 C612 1.427 . S
N616 C613 1.384 . S
N617 C609 1.427 . S
N617 C615 1.384 . S
H618 C624 0.930 . S
H619 C628 0.930 . S
H620 C633 0.929 . S
H621 C631 0.929 . S
H622 C626 0.929 . S
H623 C632 0.929 . S
C624 H618 0.930 . S
C624 C625 1.367 . S
C624 C632 1.378 . S
C625 C624 1.367 . S
C625 C633 1.433 . S
C626 H622 0.929 . S
C626 C628 1.378 . S
C626 C630 1.350 . S
C627 C630 1.463 . S
C627 C632 1.350 . S
C627 N635 1.427 . S
C628 H619 0.930 . S
C628 C626 1.378 . S
C628 C629 1.367 . S
C629 C628 1.367 . S
C629 C631 1.433 . S
C630 C626 1.350 . S
C630 C627 1.463 . S
C630 N634 1.427 . S
C631 H621 0.929 . S
C631 C629 1.433 . S
C631 N634 1.384 . S
C632 H623 0.929 . S
C632 C624 1.378 . S
C632 C627 1.350 . S
C633 H620 0.929 . S
C633 C625 1.433 . S
C633 N635 1.384 . S
N634 C630 1.427 . S
N634 C631 1.384 . S
N635 C627 1.427 . S
N635 C633 1.384 . S
H636 C642 0.930 . S
H637 C646 0.930 . S
H638 C651 0.929 . S
H639 C649 0.929 . S
H640 C644 0.929 . S
H641 C650 0.929 . S
C642 H636 0.930 . S
C642 C643 1.367 . S
C642 C650 1.378 . S
C643 C642 1.367 . S
C643 C651 1.433 . S
C644 H640 0.929 . S
C644 C646 1.378 . S
C644 C648 1.350 . S
C645 C648 1.463 . S
C645 C650 1.350 . S
C645 N653 1.427 . S
C646 H637 0.930 . S
C646 C644 1.378 . S
C646 C647 1.367 . S
C647 C646 1.367 . S
C647 C649 1.433 . S
C648 C644 1.350 . S
C648 C645 1.463 . S
C648 N652 1.427 . S
C649 H639 0.929 . S
C649 C647 1.433 . S
C649 N652 1.384 . S
C650 H641 0.929 . S
C650 C642 1.378 . S
C650 C645 1.350 . S
C651 H638 0.929 . S
C651 C643 1.433 . S
C651 N653 1.384 . S
N652 C648 1.427 . S
N652 C649 1.384 . S
N653 C645 1.427 . S
N653 C651 1.384 . S
H654 C660 0.930 . S
H655 C664 0.930 . S
H656 C669 0.929 . S
H657 C667 0.929 . S
H658 C662 0.929 . S
H659 C668 0.929 . S
C660 H654 0.930 . S
C660 C661 1.367 . S
C660 C668 1.378 . S
C661 C660 1.367 . S
C661 C669 1.433 . S
C662 H658 0.929 . S
C662 C664 1.378 . S
C662 C666 1.350 . S
C663 C666 1.463 . S
C663 C668 1.350 . S
C663 N671 1.427 . S
C664 H655 0.930 . S
C664 C662 1.378 . S
C664 C665 1.367 . S
C665 C664 1.367 . S
C665 C667 1.433 . S
C666 C662 1.350 . S
C666 C663 1.463 . S
C666 N670 1.427 . S
C667 H657 0.929 . S
C667 C665 1.433 . S
C667 N670 1.384 . S
C668 H659 0.929 . S
C668 C660 1.378 . S
C668 C663 1.350 . S
C669 H656 0.929 . S
C669 C661 1.433 . S
C669 N671 1.384 . S
N670 C666 1.427 . S
N670 C667 1.384 . S
N671 C663 1.427 . S
N671 C669 1.384 . S
H672 C678 0.930 . S
H673 C682 0.930 . S
H674 C687 0.929 . S
H675 C685 0.929 . S
H676 C680 0.929 . S
H677 C686 0.929 . S
C678 H672 0.930 . S
C678 C679 1.367 . S
C678 C686 1.378 . S
C679 C678 1.367 . S
C679 C687 1.433 . S
C680 H676 0.929 . S
C680 C682 1.378 . S
C680 C684 1.350 . S
C681 C684 1.463 . S
C681 C686 1.350 . S
C681 N689 1.427 . S
C682 H673 0.930 . S
C682 C680 1.378 . S
C682 C683 1.367 . S
C683 C682 1.367 . S
C683 C685 1.433 . S
C684 C680 1.350 . S
C684 C681 1.463 . S
C684 N688 1.427 . S
C685 H675 0.929 . S
C685 C683 1.433 . S
C685 N688 1.384 . S
C686 H677 0.929 . S
C686 C678 1.378 . S
C686 C681 1.350 . S
C687 H674 0.929 . S
C687 C679 1.433 . S
C687 N689 1.384 . S
N688 C684 1.427 . S
N688 C685 1.384 . S
N689 C681 1.427 . S
N689 C687 1.384 . S
H690 C696 0.930 . S
H691 C700 0.930 . S
H692 C705 0.929 . S
H693 C703 0.929 . S
H694 C698 0.929 . S
H695 C704 0.929 . S
C696 H690 0.930 . S
C696 C697 1.367 . S
C696 C704 1.378 . S
C697 C696 1.367 . S
C697 C705 1.433 . S
C698 H694 0.929 . S
C698 C700 1.378 . S
C698 C702 1.350 . S
C699 C702 1.463 . S
C699 C704 1.350 . S
C699 N707 1.427 . S
C700 H691 0.930 . S
C700 C698 1.378 . S
C700 C701 1.367 . S
C701 C700 1.367 . S
C701 C703 1.433 . S
C702 C698 1.350 . S
C702 C699 1.463 . S
C702 N706 1.427 . S
C703 H693 0.929 . S
C703 C701 1.433 . S
C703 N706 1.384 . S
C704 H695 0.929 . S
C704 C696 1.378 . S
C704 C699 1.350 . S
C705 H692 0.929 . S
C705 C697 1.433 . S
C705 N707 1.384 . S
N706 C702 1.427 . S
N706 C703 1.384 . S
N707 C699 1.427 . S
N707 C705 1.384 . S
H708 C714 0.930 . S
H709 C718 0.930 . S
H710 C723 0.929 . S
H711 C721 0.929 . S
H712 C716 0.929 . S
H713 C722 0.929 . S
C714 H708 0.930 . S
C714 C715 1.367 . S
C714 C722 1.378 . S
C715 C714 1.367 . S
C715 C723 1.433 . S
C716 H712 0.929 . S
C716 C718 1.378 . S
C716 C720 1.350 . S
C717 C720 1.463 . S
C717 C722 1.350 . S
C717 N725 1.427 . S
C718 H709 0.930 . S
C718 C716 1.378 . S
C718 C719 1.367 . S
C719 C718 1.367 . S
C719 C721 1.433 . S
C720 C716 1.350 . S
C720 C717 1.463 . S
C720 N724 1.427 . S
C721 H711 0.929 . S
C721 C719 1.433 . S
C721 N724 1.384 . S
C722 H713 0.929 . S
C722 C714 1.378 . S
C722 C717 1.350 . S
C723 H710 0.929 . S
C723 C715 1.433 . S
C723 N725 1.384 . S
N724 C720 1.427 . S
N724 C721 1.384 . S
N725 C717 1.427 . S
N725 C723 1.384 . S
H726 C732 0.930 . S
H727 C736 0.930 . S
H728 C741 0.929 . S
H729 C739 0.929 . S
H730 C734 0.929 . S
H731 C740 0.929 . S
C732 H726 0.930 . S
C732 C733 1.367 . S
C732 C740 1.378 . S
C733 C732 1.367 . S
C733 C741 1.433 . S
C734 H730 0.929 . S
C734 C736 1.378 . S
C734 C738 1.350 . S
C735 C738 1.463 . S
C735 C740 1.350 . S
C735 N743 1.427 . S
C736 H727 0.930 . S
C736 C734 1.378 . S
C736 C737 1.367 . S
C737 C736 1.367 . S
C737 C739 1.433 . S
C738 C734 1.350 . S
C738 C735 1.463 . S
C738 N742 1.427 . S
C739 H729 0.929 . S
C739 C737 1.433 . S
C739 N742 1.384 . S
C740 H731 0.929 . S
C740 C732 1.378 . S
C740 C735 1.350 . S
C741 H728 0.929 . S
C741 C733 1.433 . S
C741 N743 1.384 . S
N742 C738 1.427 . S
N742 C739 1.384 . S
N743 C735 1.427 . S
N743 C741 1.384 . S
H744 C750 0.930 . S
H745 C754 0.930 1_556 S
H746 C759 0.929 . S
H747 C757 0.929 . S
H748 C752 0.929 . S
H749 C758 0.929 . S
C750 H744 0.930 . S
C750 C751 1.367 . S
C750 C758 1.378 . S
C751 C750 1.367 . S
C751 C759 1.433 . S
C752 H748 0.929 . S
C752 C754 1.378 . S
C752 C756 1.350 . S
C753 C756 1.463 . S
C753 C758 1.350 . S
C753 N761 1.427 . S
C754 H745 0.930 1_554 S
C754 C752 1.378 . S
C754 C755 1.367 . S
C755 C754 1.367 . S
C755 C757 1.433 . S
C756 C752 1.350 . S
C756 C753 1.463 . S
C756 N760 1.427 . S
C757 H747 0.929 . S
C757 C755 1.433 . S
C757 N760 1.384 . S
C758 H749 0.929 . S
C758 C750 1.378 . S
C758 C753 1.350 . S
C759 H746 0.929 . S
C759 C751 1.433 . S
C759 N761 1.384 . S
N760 C756 1.427 . S
N760 C757 1.384 . S
N761 C753 1.427 . S
N761 C759 1.384 . S
H762 C768 0.930 . S
H763 C772 0.930 . S
H764 C777 0.929 . S
H765 C775 0.929 . S
H766 C770 0.929 . S
H767 C776 0.929 . S
C768 H762 0.930 . S
C768 C769 1.367 . S
C768 C776 1.378 . S
C769 C768 1.367 . S
C769 C777 1.433 . S
C770 H766 0.929 . S
C770 C772 1.378 . S
C770 C774 1.350 . S
C771 C774 1.463 . S
C771 C776 1.350 . S
C771 N779 1.427 . S
C772 H763 0.930 . S
C772 C770 1.378 . S
C772 C773 1.367 . S
C773 C772 1.367 . S
C773 C775 1.433 . S
C774 C770 1.350 . S
C774 C771 1.463 . S
C774 N778 1.427 . S
C775 H765 0.929 . S
C775 C773 1.433 . S
C775 N778 1.384 . S
C776 H767 0.929 . S
C776 C768 1.378 . S
C776 C771 1.350 . S
C777 H764 0.929 . S
C777 C769 1.433 . S
C777 N779 1.384 . S
N778 C774 1.427 . S
N778 C775 1.384 . S
N779 C771 1.427 . S
N779 C777 1.384 . S
H780 C786 0.930 . S
H781 C790 0.930 . S
H782 C795 0.929 . S
H783 C793 0.929 . S
H784 C788 0.929 . S
H785 C794 0.929 . S
C786 H780 0.930 . S
C786 C787 1.367 . S
C786 C794 1.378 . S
C787 C786 1.367 . S
C787 C795 1.433 . S
C788 H784 0.929 . S
C788 C790 1.378 . S
C788 C792 1.350 . S
C789 C792 1.463 . S
C789 C794 1.350 . S
C789 N797 1.427 . S
C790 H781 0.930 . S
C790 C788 1.378 . S
C790 C791 1.367 . S
C791 C790 1.367 . S
C791 C793 1.433 . S
C792 C788 1.350 . S
C792 C789 1.463 . S
C792 N796 1.427 . S
C793 H783 0.929 . S
C793 C791 1.433 . S
C793 N796 1.384 . S
C794 H785 0.929 . S
C794 C786 1.378 . S
C794 C789 1.350 . S
C795 H782 0.929 . S
C795 C787 1.433 . S
C795 N797 1.384 . S
N796 C792 1.427 . S
N796 C793 1.384 . S
N797 C789 1.427 . S
N797 C795 1.384 . S
H798 C804 0.930 . S
H799 C808 0.930 . S
H800 C813 0.929 . S
H801 C811 0.929 . S
H802 C806 0.929 . S
H803 C812 0.929 . S
C804 H798 0.930 . S
C804 C805 1.367 . S
C804 C812 1.378 . S
C805 C804 1.367 . S
C805 C813 1.433 . S
C806 H802 0.929 . S
C806 C808 1.378 . S
C806 C810 1.350 . S
C807 C810 1.463 . S
C807 C812 1.350 . S
C807 N815 1.427 . S
C808 H799 0.930 . S
C808 C806 1.378 . S
C808 C809 1.367 . S
C809 C808 1.367 . S
C809 C811 1.433 . S
C810 C806 1.350 . S
C810 C807 1.463 . S
C810 N814 1.427 . S
C811 H801 0.929 . S
C811 C809 1.433 . S
C811 N814 1.384 . S
C812 H803 0.929 . S
C812 C804 1.378 . S
C812 C807 1.350 . S
C813 H800 0.929 . S
C813 C805 1.433 . S
C813 N815 1.384 . S
N814 C810 1.427 . S
N814 C811 1.384 . S
N815 C807 1.427 . S
N815 C813 1.384 . S
H816 C822 0.930 . S
H817 C826 0.930 . S
H818 C831 0.929 . S
H819 C829 0.929 . S
H820 C824 0.929 . S
H821 C830 0.929 . S
C822 H816 0.930 . S
C822 C823 1.367 . S
C822 C830 1.378 . S
C823 C822 1.367 . S
C823 C831 1.433 . S
C824 H820 0.929 . S
C824 C826 1.378 . S
C824 C828 1.350 . S
C825 C828 1.463 . S
C825 C830 1.350 . S
C825 N833 1.427 . S
C826 H817 0.930 . S
C826 C824 1.378 . S
C826 C827 1.367 . S
C827 C826 1.367 . S
C827 C829 1.433 . S
C828 C824 1.350 . S
C828 C825 1.463 . S
C828 N832 1.427 . S
C829 H819 0.929 . S
C829 C827 1.433 . S
C829 N832 1.384 . S
C830 H821 0.929 . S
C830 C822 1.378 . S
C830 C825 1.350 . S
C831 H818 0.929 . S
C831 C823 1.433 . S
C831 N833 1.384 . S
N832 C828 1.427 . S
N832 C829 1.384 . S
N833 C825 1.427 . S
N833 C831 1.384 . S
H834 C840 0.930 . S
H835 C844 0.930 . S
H836 C849 0.929 . S
H837 C847 0.929 . S
H838 C842 0.929 . S
H839 C848 0.929 . S
C840 H834 0.930 . S
C840 C841 1.367 . S
C840 C848 1.378 . S
C841 C840 1.367 . S
C841 C849 1.433 . S
C842 H838 0.929 . S
C842 C844 1.378 . S
C842 C846 1.350 . S
C843 C846 1.463 . S
C843 C848 1.350 . S
C843 N851 1.427 . S
C844 H835 0.930 . S
C844 C842 1.378 . S
C844 C845 1.367 . S
C845 C844 1.367 . S
C845 C847 1.433 . S
C846 C842 1.350 . S
C846 C843 1.463 . S
C846 N850 1.427 . S
C847 H837 0.929 . S
C847 C845 1.433 . S
C847 N850 1.384 . S
C848 H839 0.929 . S
C848 C840 1.378 . S
C848 C843 1.350 . S
C849 H836 0.929 . S
C849 C841 1.433 . S
C849 N851 1.384 . S
N850 C846 1.427 . S
N850 C847 1.384 . S
N851 C843 1.427 . S
N851 C849 1.384 . S
H852 C858 0.930 . S
H853 C862 0.930 . S
H854 C867 0.929 . S
H855 C865 0.929 . S
H856 C860 0.929 . S
H857 C866 0.929 . S
C858 H852 0.930 . S
C858 C859 1.367 . S
C858 C866 1.378 . S
C859 C858 1.367 . S
C859 C867 1.433 . S
C860 H856 0.929 . S
C860 C862 1.378 . S
C860 C864 1.350 . S
C861 C864 1.463 . S
C861 C866 1.350 . S
C861 N869 1.427 . S
C862 H853 0.930 . S
C862 C860 1.378 . S
C862 C863 1.367 . S
C863 C862 1.367 . S
C863 C865 1.433 . S
C864 C860 1.350 . S
C864 C861 1.463 . S
C864 N868 1.427 . S
C865 H855 0.929 . S
C865 C863 1.433 . S
C865 N868 1.384 . S
C866 H857 0.929 . S
C866 C858 1.378 . S
C866 C861 1.350 . S
C867 H854 0.929 . S
C867 C859 1.433 . S
C867 N869 1.384 . S
N868 C864 1.427 . S
N868 C865 1.384 . S
N869 C861 1.427 . S
N869 C867 1.384 . S
H870 C876 0.930 . S
H871 C880 0.930 . S
H872 C885 0.929 . S
H873 C883 0.929 . S
H874 C878 0.929 . S
H875 C884 0.929 . S
C876 H870 0.930 . S
C876 C877 1.367 . S
C876 C884 1.378 . S
C877 C876 1.367 . S
C877 C885 1.433 . S
C878 H874 0.929 . S
C878 C880 1.378 . S
C878 C882 1.350 . S
C879 C882 1.463 . S
C879 C884 1.350 . S
C879 N887 1.427 . S
C880 H871 0.930 . S
C880 C878 1.378 . S
C880 C881 1.367 . S
C881 C880 1.367 . S
C881 C883 1.433 . S
C882 C878 1.350 . S
C882 C879 1.463 . S
C882 N886 1.427 . S
C883 H873 0.929 . S
C883 C881 1.433 . S
C883 N886 1.384 . S
C884 H875 0.929 . S
C884 C876 1.378 . S
C884 C879 1.350 . S
C885 H872 0.929 . S
C885 C877 1.433 . S
C885 N887 1.384 . S
N886 C882 1.427 . S
N886 C883 1.384 . S
N887 C879 1.427 . S
N887 C885 1.384 . S
H888 C894 0.930 . S
H889 C898 0.930 . S
H890 C903 0.929 . S
H891 C901 0.929 . S
H892 C896 0.929 . S
H893 C902 0.929 . S
C894 H888 0.930 . S
C894 C895 1.367 . S
C894 C902 1.378 . S
C895 C894 1.367 . S
C895 C903 1.433 . S
C896 H892 0.929 . S
C896 C898 1.378 . S
C896 C900 1.350 . S
C897 C900 1.463 . S
C897 C902 1.350 . S
C897 N905 1.427 . S
C898 H889 0.930 . S
C898 C896 1.378 . S
C898 C899 1.367 . S
C899 C898 1.367 . S
C899 C901 1.433 . S
C900 C896 1.350 . S
C900 C897 1.463 . S
C900 N904 1.427 . S
C901 H891 0.929 . S
C901 C899 1.433 . S
C901 N904 1.384 . S
C902 H893 0.929 . S
C902 C894 1.378 . S
C902 C897 1.350 . S
C903 H890 0.929 . S
C903 C895 1.433 . S
C903 N905 1.384 . S
N904 C900 1.427 . S
N904 C901 1.384 . S
N905 C897 1.427 . S
N905 C903 1.384 . S
H906 C912 0.930 . S
H907 C916 0.930 . S
H908 C921 0.929 . S
H909 C919 0.929 . S
H910 C914 0.929 . S
H911 C920 0.929 . S
C912 H906 0.930 . S
C912 C913 1.367 . S
C912 C920 1.378 . S
C913 C912 1.367 . S
C913 C921 1.433 . S
C914 H910 0.929 . S
C914 C916 1.378 . S
C914 C918 1.350 . S
C915 C918 1.463 . S
C915 C920 1.350 . S
C915 N923 1.427 . S
C916 H907 0.930 . S
C916 C914 1.378 . S
C916 C917 1.367 . S
C917 C916 1.367 . S
C917 C919 1.433 . S
C918 C914 1.350 . S
C918 C915 1.463 . S
C918 N922 1.427 . S
C919 H909 0.929 . S
C919 C917 1.433 . S
C919 N922 1.384 . S
C920 H911 0.929 . S
C920 C912 1.378 . S
C920 C915 1.350 . S
C921 H908 0.929 . S
C921 C913 1.433 . S
C921 N923 1.384 . S
N922 C918 1.427 . S
N922 C919 1.384 . S
N923 C915 1.427 . S
N923 C921 1.384 . S
H924 C930 0.930 . S
H925 C934 0.930 . S
H926 C939 0.929 . S
H927 C937 0.929 . S
H928 C932 0.929 . S
H929 C938 0.929 . S
C930 H924 0.930 . S
C930 C931 1.367 . S
C930 C938 1.378 . S
C931 C930 1.367 . S
C931 C939 1.433 . S
C932 H928 0.929 . S
C932 C934 1.378 . S
C932 C936 1.350 . S
C933 C936 1.463 . S
C933 C938 1.350 . S
C933 N941 1.427 . S
C934 H925 0.930 . S
C934 C932 1.378 . S
C934 C935 1.367 . S
C935 C934 1.367 . S
C935 C937 1.433 . S
C936 C932 1.350 . S
C936 C933 1.463 . S
C936 N940 1.427 . S
C937 H927 0.929 . S
C937 C935 1.433 . S
C937 N940 1.384 . S
C938 H929 0.929 . S
C938 C930 1.378 . S
C938 C933 1.350 . S
C939 H926 0.929 . S
C939 C931 1.433 . S
C939 N941 1.384 . S
N940 C936 1.427 . S
N940 C937 1.384 . S
N941 C933 1.427 . S
N941 C939 1.384 . S
H942 C948 0.930 . S
H943 C952 0.930 . S
H944 C957 0.929 . S
H945 C955 0.929 . S
H946 C950 0.929 . S
H947 C956 0.929 . S
C948 H942 0.930 . S
C948 C949 1.367 . S
C948 C956 1.378 . S
C949 C948 1.367 . S
C949 C957 1.433 . S
C950 H946 0.929 . S
C950 C952 1.378 . S
C950 C954 1.350 . S
C951 C954 1.463 . S
C951 C956 1.350 . S
C951 N959 1.427 . S
C952 H943 0.930 . S
C952 C950 1.378 . S
C952 C953 1.367 . S
C953 C952 1.367 . S
C953 C955 1.433 . S
C954 C950 1.350 . S
C954 C951 1.463 . S
C954 N958 1.427 . S
C955 H945 0.929 . S
C955 C953 1.433 . S
C955 N958 1.384 . S
C956 H947 0.929 . S
C956 C948 1.378 . S
C956 C951 1.350 . S
C957 H944 0.929 . S
C957 C949 1.433 . S
C957 N959 1.384 . S
N958 C954 1.427 . S
N958 C955 1.384 . S
N959 C951 1.427 . S
N959 C957 1.384 . S
H960 C966 0.930 . S
H961 C970 0.930 . S
H962 C975 0.929 . S
H963 C973 0.929 . S
H964 C968 0.929 . S
H965 C974 0.929 . S
C966 H960 0.930 . S
C966 C967 1.367 . S
C966 C974 1.378 . S
C967 C966 1.367 . S
C967 C975 1.433 . S
C968 H964 0.929 . S
C968 C970 1.378 . S
C968 C972 1.350 . S
C969 C972 1.463 . S
C969 C974 1.350 . S
C969 N977 1.427 . S
C970 H961 0.930 . S
C970 C968 1.378 . S
C970 C971 1.367 . S
C971 C970 1.367 . S
C971 C973 1.433 . S
C972 C968 1.350 . S
C972 C969 1.463 . S
C972 N976 1.427 . S
C973 H963 0.929 . S
C973 C971 1.433 . S
C973 N976 1.384 . S
C974 H965 0.929 . S
C974 C966 1.378 . S
C974 C969 1.350 . S
C975 H962 0.929 . S
C975 C967 1.433 . S
C975 N977 1.384 . S
N976 C972 1.427 . S
N976 C973 1.384 . S
N977 C969 1.427 . S
N977 C975 1.384 . S
H978 C984 0.930 . S
H979 C988 0.930 . S
H980 C993 0.929 . S
H981 C991 0.929 . S
H982 C986 0.929 . S
H983 C992 0.929 . S
C984 H978 0.930 . S
C984 C985 1.367 . S
C984 C992 1.378 . S
C985 C984 1.367 . S
C985 C993 1.433 . S
C986 H982 0.929 . S
C986 C988 1.378 . S
C986 C990 1.350 . S
C987 C990 1.463 . S
C987 C992 1.350 . S
C987 N995 1.427 . S
C988 H979 0.930 . S
C988 C986 1.378 . S
C988 C989 1.367 . S
C989 C988 1.367 . S
C989 C991 1.433 . S
C990 C986 1.350 . S
C990 C987 1.463 . S
C990 N994 1.427 . S
C991 H981 0.929 . S
C991 C989 1.433 . S
C991 N994 1.384 . S
C992 H983 0.929 . S
C992 C984 1.378 . S
C992 C987 1.350 . S
C993 H980 0.929 . S
C993 C985 1.433 . S
C993 N995 1.384 . S
N994 C990 1.427 . S
N994 C991 1.384 . S
N995 C987 1.427 . S
N995 C993 1.384 . S
H996 C1002 0.930 . S
H997 C1006 0.930 . S
H998 C1011 0.929 . S
H999 C1009 0.929 . S
H1000 C1004 0.929 . S
H1001 C1010 0.929 . S
C1002 H996 0.930 . S
C1002 C1003 1.367 . S
C1002 C1010 1.378 . S
C1003 C1002 1.367 . S
C1003 C1011 1.433 . S
C1004 H1000 0.929 . S
C1004 C1006 1.378 . S
C1004 C1008 1.350 . S
C1005 C1008 1.463 . S
C1005 C1010 1.350 . S
C1005 N1013 1.427 . S
C1006 H997 0.930 . S
C1006 C1004 1.378 . S
C1006 C1007 1.367 . S
C1007 C1006 1.367 . S
C1007 C1009 1.433 . S
C1008 C1004 1.350 . S
C1008 C1005 1.463 . S
C1008 N1012 1.427 . S
C1009 H999 0.929 . S
C1009 C1007 1.433 . S
C1009 N1012 1.384 . S
C1010 H1001 0.929 . S
C1010 C1002 1.378 . S
C1010 C1005 1.350 . S
C1011 H998 0.929 . S
C1011 C1003 1.433 . S
C1011 N1013 1.384 . S
N1012 C1008 1.427 . S
N1012 C1009 1.384 . S
N1013 C1005 1.427 . S
N1013 C1011 1.384 . S
H1014 C1020 0.930 . S
H1015 C1024 0.930 . S
H1016 C1029 0.929 . S
H1017 C1027 0.929 . S
H1018 C1022 0.929 . S
H1019 C1028 0.929 . S
C1020 H1014 0.930 . S
C1020 C1021 1.367 . S
C1020 C1028 1.378 . S
C1021 C1020 1.367 . S
C1021 C1029 1.433 . S
C1022 H1018 0.929 . S
C1022 C1024 1.378 . S
C1022 C1026 1.350 . S
C1023 C1026 1.463 . S
C1023 C1028 1.350 . S
C1023 N1031 1.427 . S
C1024 H1015 0.930 . S
C1024 C1022 1.378 . S
C1024 C1025 1.367 . S
C1025 C1024 1.367 . S
C1025 C1027 1.433 . S
C1026 C1022 1.350 . S
C1026 C1023 1.463 . S
C1026 N1030 1.427 . S
C1027 H1017 0.929 . S
C1027 C1025 1.433 . S
C1027 N1030 1.384 . S
C1028 H1019 0.929 . S
C1028 C1020 1.378 . S
C1028 C1023 1.350 . S
C1029 H1016 0.929 . S
C1029 C1021 1.433 . S
C1029 N1031 1.384 . S
N1030 C1026 1.427 . S
N1030 C1027 1.384 . S
N1031 C1023 1.427 . S
N1031 C1029 1.384 . S
H1032 C1038 0.930 . S
H1033 C1042 0.930 . S
H1034 C1047 0.929 . S
H1035 C1045 0.929 . S
H1036 C1040 0.929 . S
H1037 C1046 0.929 . S
C1038 H1032 0.930 . S
C1038 C1039 1.367 . S
C1038 C1046 1.378 . S
C1039 C1038 1.367 . S
C1039 C1047 1.433 . S
C1040 H1036 0.929 . S
C1040 C1042 1.378 . S
C1040 C1044 1.350 . S
C1041 C1044 1.463 . S
C1041 C1046 1.350 . S
C1041 N1049 1.427 . S
C1042 H1033 0.930 . S
C1042 C1040 1.378 . S
C1042 C1043 1.367 . S
C1043 C1042 1.367 . S
C1043 C1045 1.433 . S
C1044 C1040 1.350 . S
C1044 C1041 1.463 . S
C1044 N1048 1.427 . S
C1045 H1035 0.929 . S
C1045 C1043 1.433 . S
C1045 N1048 1.384 . S
C1046 H1037 0.929 . S
C1046 C1038 1.378 . S
C1046 C1041 1.350 . S
C1047 H1034 0.929 . S
C1047 C1039 1.433 . S
C1047 N1049 1.384 . S
N1048 C1044 1.427 . S
N1048 C1045 1.384 . S
N1049 C1041 1.427 . S
N1049 C1047 1.384 . S
H1050 C1056 0.930 . S
H1051 C1060 0.930 . S
H1052 C1065 0.929 . S
H1053 C1063 0.929 . S
H1054 C1058 0.929 . S
H1055 C1064 0.929 . S
C1056 H1050 0.930 . S
C1056 C1057 1.367 . S
C1056 C1064 1.378 . S
C1057 C1056 1.367 . S
C1057 C1065 1.433 . S
C1058 H1054 0.929 . S
C1058 C1060 1.378 . S
C1058 C1062 1.350 . S
C1059 C1062 1.463 . S
C1059 C1064 1.350 . S
C1059 N1067 1.427 . S
C1060 H1051 0.930 . S
C1060 C1058 1.378 . S
C1060 C1061 1.367 . S
C1061 C1060 1.367 . S
C1061 C1063 1.433 . S
C1062 C1058 1.350 . S
C1062 C1059 1.463 . S
C1062 N1066 1.427 . S
C1063 H1053 0.929 . S
C1063 C1061 1.433 . S
C1063 N1066 1.384 . S
C1064 H1055 0.929 . S
C1064 C1056 1.378 . S
C1064 C1059 1.350 . S
C1065 H1052 0.929 . S
C1065 C1057 1.433 . S
C1065 N1067 1.384 . S
N1066 C1062 1.427 . S
N1066 C1063 1.384 . S
N1067 C1059 1.427 . S
N1067 C1065 1.384 . S
H1068 C1074 0.930 . S
H1069 C1078 0.930 . S
H1070 C1083 0.929 . S
H1071 C1081 0.929 . S
H1072 C1076 0.929 . S
H1073 C1082 0.929 . S
C1074 H1068 0.930 . S
C1074 C1075 1.367 . S
C1074 C1082 1.378 . S
C1075 C1074 1.367 . S
C1075 C1083 1.433 . S
C1076 H1072 0.929 . S
C1076 C1078 1.378 . S
C1076 C1080 1.350 . S
C1077 C1080 1.463 . S
C1077 C1082 1.350 . S
C1077 N1085 1.427 . S
C1078 H1069 0.930 . S
C1078 C1076 1.378 . S
C1078 C1079 1.367 . S
C1079 C1078 1.367 . S
C1079 C1081 1.433 . S
C1080 C1076 1.350 . S
C1080 C1077 1.463 . S
C1080 N1084 1.427 . S
C1081 H1071 0.929 . S
C1081 C1079 1.433 . S
C1081 N1084 1.384 . S
C1082 H1073 0.929 . S
C1082 C1074 1.378 . S
C1082 C1077 1.350 . S
C1083 H1070 0.929 . S
C1083 C1075 1.433 . S
C1083 N1085 1.384 . S
N1084 C1080 1.427 . S
N1084 C1081 1.384 . S
N1085 C1077 1.427 . S
N1085 C1083 1.384 . S
H1086 C1092 0.930 . S
H1087 C1096 0.930 . S
H1088 C1101 0.929 . S
H1089 C1099 0.929 . S
H1090 C1094 0.929 . S
H1091 C1100 0.929 . S
C1092 H1086 0.930 . S
C1092 C1093 1.367 . S
C1092 C1100 1.378 . S
C1093 C1092 1.367 . S
C1093 C1101 1.433 . S
C1094 H1090 0.929 . S
C1094 C1096 1.378 . S
C1094 C1098 1.350 . S
C1095 C1098 1.463 . S
C1095 C1100 1.350 . S
C1095 N1103 1.427 . S
C1096 H1087 0.930 . S
C1096 C1094 1.378 . S
C1096 C1097 1.367 . S
C1097 C1096 1.367 . S
C1097 C1099 1.433 . S
C1098 C1094 1.350 . S
C1098 C1095 1.463 . S
C1098 N1102 1.427 . S
C1099 H1089 0.929 . S
C1099 C1097 1.433 . S
C1099 N1102 1.384 . S
C1100 H1091 0.929 . S
C1100 C1092 1.378 . S
C1100 C1095 1.350 . S
C1101 H1088 0.929 . S
C1101 C1093 1.433 . S
C1101 N1103 1.384 . S
N1102 C1098 1.427 . S
N1102 C1099 1.384 . S
N1103 C1095 1.427 . S
N1103 C1101 1.384 . S
H1104 C1110 0.930 . S
H1105 C1114 0.930 . S
H1106 C1119 0.929 . S
H1107 C1117 0.929 . S
H1108 C1112 0.929 . S
H1109 C1118 0.929 . S
C1110 H1104 0.930 . S
C1110 C1111 1.367 . S
C1110 C1118 1.378 . S
C1111 C1110 1.367 . S
C1111 C1119 1.433 . S
C1112 H1108 0.929 . S
C1112 C1114 1.378 . S
C1112 C1116 1.350 . S
C1113 C1116 1.463 . S
C1113 C1118 1.350 . S
C1113 N1121 1.427 . S
C1114 H1105 0.930 . S
C1114 C1112 1.378 . S
C1114 C1115 1.367 . S
C1115 C1114 1.367 . S
C1115 C1117 1.433 . S
C1116 C1112 1.350 . S
C1116 C1113 1.463 . S
C1116 N1120 1.427 . S
C1117 H1107 0.929 . S
C1117 C1115 1.433 . S
C1117 N1120 1.384 . S
C1118 H1109 0.929 . S
C1118 C1110 1.378 . S
C1118 C1113 1.350 . S
C1119 H1106 0.929 . S
C1119 C1111 1.433 . S
C1119 N1121 1.384 . S
N1120 C1116 1.427 . S
N1120 C1117 1.384 . S
N1121 C1113 1.427 . S
N1121 C1119 1.384 . S
H1122 C1128 0.930 . S
H1123 C1132 0.930 . S
H1124 C1137 0.929 . S
H1125 C1135 0.929 . S
H1126 C1130 0.929 . S
H1127 C1136 0.929 . S
C1128 H1122 0.930 . S
C1128 C1129 1.367 . S
C1128 C1136 1.378 . S
C1129 C1128 1.367 . S
C1129 C1137 1.433 . S
C1130 H1126 0.929 . S
C1130 C1132 1.378 . S
C1130 C1134 1.350 . S
C1131 C1134 1.463 . S
C1131 C1136 1.350 . S
C1131 N1139 1.427 . S
C1132 H1123 0.930 . S
C1132 C1130 1.378 . S
C1132 C1133 1.367 . S
C1133 C1132 1.367 . S
C1133 C1135 1.433 . S
C1134 C1130 1.350 . S
C1134 C1131 1.463 . S
C1134 N1138 1.427 . S
C1135 H1125 0.929 . S
C1135 C1133 1.433 . S
C1135 N1138 1.384 . S
C1136 H1127 0.929 . S
C1136 C1128 1.378 . S
C1136 C1131 1.350 . S
C1137 H1124 0.929 . S
C1137 C1129 1.433 . S
C1137 N1139 1.384 . S
N1138 C1134 1.427 . S
N1138 C1135 1.384 . S
N1139 C1131 1.427 . S
N1139 C1137 1.384 . S
H1140 C1146 0.930 . S
H1141 C1150 0.930 . S
H1142 C1155 0.929 . S
H1143 C1153 0.929 . S
H1144 C1148 0.929 . S
H1145 C1154 0.929 . S
C1146 H1140 0.930 . S
C1146 C1147 1.367 . S
C1146 C1154 1.378 . S
C1147 C1146 1.367 . S
C1147 C1155 1.433 . S
C1148 H1144 0.929 . S
C1148 C1150 1.378 . S
C1148 C1152 1.350 . S
C1149 C1152 1.463 . S
C1149 C1154 1.350 . S
C1149 N1157 1.427 . S
C1150 H1141 0.930 . S
C1150 C1148 1.378 . S
C1150 C1151 1.367 . S
C1151 C1150 1.367 . S
C1151 C1153 1.433 . S
C1152 C1148 1.350 . S
C1152 C1149 1.463 . S
C1152 N1156 1.427 . S
C1153 H1143 0.929 . S
C1153 C1151 1.433 . S
C1153 N1156 1.384 . S
C1154 H1145 0.929 . S
C1154 C1146 1.378 . S
C1154 C1149 1.350 . S
C1155 H1142 0.929 . S
C1155 C1147 1.433 . S
C1155 N1157 1.384 . S
N1156 C1152 1.427 . S
N1156 C1153 1.384 . S
N1157 C1149 1.427 . S
N1157 C1155 1.384 . S
H1158 C1164 0.930 . S
H1159 C1168 0.930 . S
H1160 C1173 0.929 . S
H1161 C1171 0.929 . S
H1162 C1166 0.929 . S
H1163 C1172 0.929 . S
C1164 H1158 0.930 . S
C1164 C1165 1.367 . S
C1164 C1172 1.378 . S
C1165 C1164 1.367 . S
C1165 C1173 1.433 . S
C1166 H1162 0.929 . S
C1166 C1168 1.378 . S
C1166 C1170 1.350 . S
C1167 C1170 1.463 . S
C1167 C1172 1.350 . S
C1167 N1175 1.427 . S
C1168 H1159 0.930 . S
C1168 C1166 1.378 . S
C1168 C1169 1.367 . S
C1169 C1168 1.367 . S
C1169 C1171 1.433 . S
C1170 C1166 1.350 . S
C1170 C1167 1.463 . S
C1170 N1174 1.427 . S
C1171 H1161 0.929 . S
C1171 C1169 1.433 . S
C1171 N1174 1.384 . S
C1172 H1163 0.929 . S
C1172 C1164 1.378 . S
C1172 C1167 1.350 . S
C1173 H1160 0.929 . S
C1173 C1165 1.433 . S
C1173 N1175 1.384 . S
N1174 C1170 1.427 . S
N1174 C1171 1.384 . S
N1175 C1167 1.427 . S
N1175 C1173 1.384 . S
H1176 C1182 0.930 . S
H1177 C1186 0.930 . S
H1178 C1191 0.929 . S
H1179 C1189 0.929 . S
H1180 C1184 0.929 . S
H1181 C1190 0.929 . S
C1182 H1176 0.930 . S
C1182 C1183 1.367 . S
C1182 C1190 1.378 . S
C1183 C1182 1.367 . S
C1183 C1191 1.433 . S
C1184 H1180 0.929 . S
C1184 C1186 1.378 . S
C1184 C1188 1.350 . S
C1185 C1188 1.463 . S
C1185 C1190 1.350 . S
C1185 N1193 1.427 . S
C1186 H1177 0.930 . S
C1186 C1184 1.378 . S
C1186 C1187 1.367 . S
C1187 C1186 1.367 . S
C1187 C1189 1.433 . S
C1188 C1184 1.350 . S
C1188 C1185 1.463 . S
C1188 N1192 1.427 . S
C1189 H1179 0.929 . S
C1189 C1187 1.433 . S
C1189 N1192 1.384 . S
C1190 H1181 0.929 . S
C1190 C1182 1.378 . S
C1190 C1185 1.350 . S
C1191 H1178 0.929 . S
C1191 C1183 1.433 . S
C1191 N1193 1.384 . S
N1192 C1188 1.427 . S
N1192 C1189 1.384 . S
N1193 C1185 1.427 . S
N1193 C1191 1.384 . S
H1194 C1200 0.930 . S
H1195 C1204 0.930 . S
H1196 C1209 0.929 . S
H1197 C1207 0.929 . S
H1198 C1202 0.929 . S
H1199 C1208 0.929 . S
C1200 H1194 0.930 . S
C1200 C1201 1.367 . S
C1200 C1208 1.378 . S
C1201 C1200 1.367 . S
C1201 C1209 1.433 . S
C1202 H1198 0.929 . S
C1202 C1204 1.378 . S
C1202 C1206 1.350 . S
C1203 C1206 1.463 . S
C1203 C1208 1.350 . S
C1203 N1211 1.427 . S
C1204 H1195 0.930 . S
C1204 C1202 1.378 . S
C1204 C1205 1.367 . S
C1205 C1204 1.367 . S
C1205 C1207 1.433 . S
C1206 C1202 1.350 . S
C1206 C1203 1.463 . S
C1206 N1210 1.427 . S
C1207 H1197 0.929 . S
C1207 C1205 1.433 . S
C1207 N1210 1.384 . S
C1208 H1199 0.929 . S
C1208 C1200 1.378 . S
C1208 C1203 1.350 . S
C1209 H1196 0.929 . S
C1209 C1201 1.433 . S
C1209 N1211 1.384 . S
N1210 C1206 1.427 . S
N1210 C1207 1.384 . S
N1211 C1203 1.427 . S
N1211 C1209 1.384 . S
H1212 C1218 0.930 . S
H1213 C1222 0.930 . S
H1214 C1227 0.929 . S
H1215 C1225 0.929 . S
H1216 C1220 0.929 . S
H1217 C1226 0.929 . S
C1218 H1212 0.930 . S
C1218 C1219 1.367 . S
C1218 C1226 1.378 . S
C1219 C1218 1.367 . S
C1219 C1227 1.433 . S
C1220 H1216 0.929 . S
C1220 C1222 1.378 . S
C1220 C1224 1.350 . S
C1221 C1224 1.463 . S
C1221 C1226 1.350 . S
C1221 N1229 1.427 . S
C1222 H1213 0.930 . S
C1222 C1220 1.378 . S
C1222 C1223 1.367 . S
C1223 C1222 1.367 . S
C1223 C1225 1.433 . S
C1224 C1220 1.350 . S
C1224 C1221 1.463 . S
C1224 N1228 1.427 . S
C1225 H1215 0.929 . S
C1225 C1223 1.433 . S
C1225 N1228 1.384 . S
C1226 H1217 0.929 . S
C1226 C1218 1.378 . S
C1226 C1221 1.350 . S
C1227 H1214 0.929 . S
C1227 C1219 1.433 . S
C1227 N1229 1.384 . S
N1228 C1224 1.427 . S
N1228 C1225 1.384 . S
N1229 C1221 1.427 . S
N1229 C1227 1.384 . S
H1230 C1236 0.930 . S
H1231 C1240 0.930 . S
H1232 C1245 0.929 . S
H1233 C1243 0.929 . S
H1234 C1238 0.929 . S
H1235 C1244 0.929 . S
C1236 H1230 0.930 . S
C1236 C1237 1.367 . S
C1236 C1244 1.378 . S
C1237 C1236 1.367 . S
C1237 C1245 1.433 . S
C1238 H1234 0.929 . S
C1238 C1240 1.378 . S
C1238 C1242 1.350 . S
C1239 C1242 1.463 . S
C1239 C1244 1.350 . S
C1239 N1247 1.427 . S
C1240 H1231 0.930 . S
C1240 C1238 1.378 . S
C1240 C1241 1.367 . S
C1241 C1240 1.367 . S
C1241 C1243 1.433 . S
C1242 C1238 1.350 . S
C1242 C1239 1.463 . S
C1242 N1246 1.427 . S
C1243 H1233 0.929 . S
C1243 C1241 1.433 . S
C1243 N1246 1.384 . S
C1244 H1235 0.929 . S
C1244 C1236 1.378 . S
C1244 C1239 1.350 . S
C1245 H1232 0.929 . S
C1245 C1237 1.433 . S
C1245 N1247 1.384 . S
N1246 C1242 1.427 . S
N1246 C1243 1.384 . S
N1247 C1239 1.427 . S
N1247 C1245 1.384 . S
H1248 C1254 0.930 . S
H1249 C1258 0.930 . S
H1250 C1263 0.929 . S
H1251 C1261 0.929 . S
H1252 C1256 0.929 . S
H1253 C1262 0.929 . S
C1254 H1248 0.930 . S
C1254 C1255 1.367 . S
C1254 C1262 1.378 . S
C1255 C1254 1.367 . S
C1255 C1263 1.433 . S
C1256 H1252 0.929 . S
C1256 C1258 1.378 . S
C1256 C1260 1.350 . S
C1257 C1260 1.463 . S
C1257 C1262 1.350 . S
C1257 N1265 1.427 . S
C1258 H1249 0.930 . S
C1258 C1256 1.378 . S
C1258 C1259 1.367 . S
C1259 C1258 1.367 . S
C1259 C1261 1.433 . S
C1260 C1256 1.350 . S
C1260 C1257 1.463 . S
C1260 N1264 1.427 . S
C1261 H1251 0.929 . S
C1261 C1259 1.433 . S
C1261 N1264 1.384 . S
C1262 H1253 0.929 . S
C1262 C1254 1.378 . S
C1262 C1257 1.350 . S
C1263 H1250 0.929 . S
C1263 C1255 1.433 . S
C1263 N1265 1.384 . S
N1264 C1260 1.427 . S
N1264 C1261 1.384 . S
N1265 C1257 1.427 . S
N1265 C1263 1.384 . S
H1266 C1272 0.930 . S
H1267 C1276 0.930 . S
H1268 C1281 0.929 . S
H1269 C1279 0.929 . S
H1270 C1274 0.929 . S
H1271 C1280 0.929 . S
C1272 H1266 0.930 . S
C1272 C1273 1.367 . S
C1272 C1280 1.378 . S
C1273 C1272 1.367 . S
C1273 C1281 1.433 . S
C1274 H1270 0.929 . S
C1274 C1276 1.378 . S
C1274 C1278 1.350 . S
C1275 C1278 1.463 . S
C1275 C1280 1.350 . S
C1275 N1283 1.427 . S
C1276 H1267 0.930 . S
C1276 C1274 1.378 . S
C1276 C1277 1.367 . S
C1277 C1276 1.367 . S
C1277 C1279 1.433 . S
C1278 C1274 1.350 . S
C1278 C1275 1.463 . S
C1278 N1282 1.427 . S
C1279 H1269 0.929 . S
C1279 C1277 1.433 . S
C1279 N1282 1.384 . S
C1280 H1271 0.929 . S
C1280 C1272 1.378 . S
C1280 C1275 1.350 . S
C1281 H1268 0.929 . S
C1281 C1273 1.433 . S
C1281 N1283 1.384 . S
N1282 C1278 1.427 . S
N1282 C1279 1.384 . S
N1283 C1275 1.427 . S
N1283 C1281 1.384 . S
H1284 C1290 0.930 . S
H1285 C1294 0.930 . S
H1286 C1299 0.929 . S
H1287 C1297 0.929 . S
H1288 C1292 0.929 . S
H1289 C1298 0.929 . S
C1290 H1284 0.930 . S
C1290 C1291 1.367 . S
C1290 C1298 1.378 . S
C1291 C1290 1.367 . S
C1291 C1299 1.433 . S
C1292 H1288 0.929 . S
C1292 C1294 1.378 . S
C1292 C1296 1.350 . S
C1293 C1296 1.463 . S
C1293 C1298 1.350 . S
C1293 N1301 1.427 . S
C1294 H1285 0.930 . S
C1294 C1292 1.378 . S
C1294 C1295 1.367 . S
C1295 C1294 1.367 . S
C1295 C1297 1.433 . S
C1296 C1292 1.350 . S
C1296 C1293 1.463 . S
C1296 N1300 1.427 . S
C1297 H1287 0.929 . S
C1297 C1295 1.433 . S
C1297 N1300 1.384 . S
C1298 H1289 0.929 . S
C1298 C1290 1.378 . S
C1298 C1293 1.350 . S
C1299 H1286 0.929 . S
C1299 C1291 1.433 . S
C1299 N1301 1.384 . S
N1300 C1296 1.427 . S
N1300 C1297 1.384 . S
N1301 C1293 1.427 . S
N1301 C1299 1.384 . S
H1302 C1308 0.930 . S
H1303 C1312 0.930 . S
H1304 C1317 0.929 . S
H1305 C1315 0.929 . S
H1306 C1310 0.929 . S
H1307 C1316 0.929 . S
C1308 H1302 0.930 . S
C1308 C1309 1.367 . S
C1308 C1316 1.378 . S
C1309 C1308 1.367 . S
C1309 C1317 1.433 . S
C1310 H1306 0.929 . S
C1310 C1312 1.378 . S
C1310 C1314 1.350 . S
C1311 C1314 1.463 . S
C1311 C1316 1.350 . S
C1311 N1319 1.427 . S
C1312 H1303 0.930 . S
C1312 C1310 1.378 . S
C1312 C1313 1.367 . S
C1313 C1312 1.367 . S
C1313 C1315 1.433 . S
C1314 C1310 1.350 . S
C1314 C1311 1.463 . S
C1314 N1318 1.427 . S
C1315 H1305 0.929 . S
C1315 C1313 1.433 . S
C1315 N1318 1.384 . S
C1316 H1307 0.929 . S
C1316 C1308 1.378 . S
C1316 C1311 1.350 . S
C1317 H1304 0.929 . S
C1317 C1309 1.433 . S
C1317 N1319 1.384 . S
N1318 C1314 1.427 . S
N1318 C1315 1.384 . S
N1319 C1311 1.427 . S
N1319 C1317 1.384 . S
H1320 C1326 0.930 . S
H1321 C1330 0.930 . S
H1322 C1335 0.929 . S
H1323 C1333 0.929 . S
H1324 C1328 0.929 . S
H1325 C1334 0.929 . S
C1326 H1320 0.930 . S
C1326 C1327 1.367 . S
C1326 C1334 1.378 . S
C1327 C1326 1.367 . S
C1327 C1335 1.433 . S
C1328 H1324 0.929 . S
C1328 C1330 1.378 . S
C1328 C1332 1.350 . S
C1329 C1332 1.463 . S
C1329 C1334 1.350 . S
C1329 N1337 1.427 . S
C1330 H1321 0.930 . S
C1330 C1328 1.378 . S
C1330 C1331 1.367 . S
C1331 C1330 1.367 . S
C1331 C1333 1.433 . S
C1332 C1328 1.350 . S
C1332 C1329 1.463 . S
C1332 N1336 1.427 . S
C1333 H1323 0.929 . S
C1333 C1331 1.433 . S
C1333 N1336 1.384 . S
C1334 H1325 0.929 . S
C1334 C1326 1.378 . S
C1334 C1329 1.350 . S
C1335 H1322 0.929 . S
C1335 C1327 1.433 . S
C1335 N1337 1.384 . S
N1336 C1332 1.427 . S
N1336 C1333 1.384 . S
N1337 C1329 1.427 . S
N1337 C1335 1.384 . S
H1338 C1344 0.930 . S
H1339 C1348 0.930 . S
H1340 C1353 0.929 . S
H1341 C1351 0.929 . S
H1342 C1346 0.929 . S
H1343 C1352 0.929 . S
C1344 H1338 0.930 . S
C1344 C1345 1.367 . S
C1344 C1352 1.378 . S
C1345 C1344 1.367 . S
C1345 C1353 1.433 . S
C1346 H1342 0.929 . S
C1346 C1348 1.378 . S
C1346 C1350 1.350 . S
C1347 C1350 1.463 . S
C1347 C1352 1.350 . S
C1347 N1355 1.427 . S
C1348 H1339 0.930 . S
C1348 C1346 1.378 . S
C1348 C1349 1.367 . S
C1349 C1348 1.367 . S
C1349 C1351 1.433 . S
C1350 C1346 1.350 . S
C1350 C1347 1.463 . S
C1350 N1354 1.427 . S
C1351 H1341 0.929 . S
C1351 C1349 1.433 . S
C1351 N1354 1.384 . S
C1352 H1343 0.929 . S
C1352 C1344 1.378 . S
C1352 C1347 1.350 . S
C1353 H1340 0.929 . S
C1353 C1345 1.433 . S
C1353 N1355 1.384 . S
N1354 C1350 1.427 . S
N1354 C1351 1.384 . S
N1355 C1347 1.427 . S
N1355 C1353 1.384 . S
H1356 C1362 0.930 . S
H1357 C1366 0.930 . S
H1358 C1371 0.929 . S
H1359 C1369 0.929 . S
H1360 C1364 0.929 . S
H1361 C1370 0.929 . S
C1362 H1356 0.930 . S
C1362 C1363 1.367 . S
C1362 C1370 1.378 . S
C1363 C1362 1.367 . S
C1363 C1371 1.433 . S
C1364 H1360 0.929 . S
C1364 C1366 1.378 . S
C1364 C1368 1.350 . S
C1365 C1368 1.463 . S
C1365 C1370 1.350 . S
C1365 N1373 1.427 . S
C1366 H1357 0.930 . S
C1366 C1364 1.378 . S
C1366 C1367 1.367 . S
C1367 C1366 1.367 . S
C1367 C1369 1.433 . S
C1368 C1364 1.350 . S
C1368 C1365 1.463 . S
C1368 N1372 1.427 . S
C1369 H1359 0.929 . S
C1369 C1367 1.433 . S
C1369 N1372 1.384 . S
C1370 H1361 0.929 . S
C1370 C1362 1.378 . S
C1370 C1365 1.350 . S
C1371 H1358 0.929 . S
C1371 C1363 1.433 . S
C1371 N1373 1.384 . S
N1372 C1368 1.427 . S
N1372 C1369 1.384 . S
N1373 C1365 1.427 . S
N1373 C1371 1.384 . S
H1374 C1380 0.930 . S
H1375 C1384 0.930 . S
H1376 C1389 0.929 . S
H1377 C1387 0.929 . S
H1378 C1382 0.929 . S
H1379 C1388 0.929 . S
C1380 H1374 0.930 . S
C1380 C1381 1.367 . S
C1380 C1388 1.378 . S
C1381 C1380 1.367 . S
C1381 C1389 1.433 . S
C1382 H1378 0.929 . S
C1382 C1384 1.378 . S
C1382 C1386 1.350 . S
C1383 C1386 1.463 . S
C1383 C1388 1.350 . S
C1383 N1391 1.427 . S
C1384 H1375 0.930 . S
C1384 C1382 1.378 . S
C1384 C1385 1.367 . S
C1385 C1384 1.367 . S
C1385 C1387 1.433 . S
C1386 C1382 1.350 . S
C1386 C1383 1.463 . S
C1386 N1390 1.427 . S
C1387 H1377 0.929 . S
C1387 C1385 1.433 . S
C1387 N1390 1.384 . S
C1388 H1379 0.929 . S
C1388 C1380 1.378 . S
C1388 C1383 1.350 . S
C1389 H1376 0.929 . S
C1389 C1381 1.433 . S
C1389 N1391 1.384 . S
N1390 C1386 1.427 . S
N1390 C1387 1.384 . S
N1391 C1383 1.427 . S
N1391 C1389 1.384 . S
H1392 C1398 0.930 . S
H1393 C1402 0.930 . S
H1394 C1407 0.929 . S
H1395 C1405 0.929 . S
H1396 C1400 0.929 . S
H1397 C1406 0.929 . S
C1398 H1392 0.930 . S
C1398 C1399 1.367 . S
C1398 C1406 1.378 . S
C1399 C1398 1.367 . S
C1399 C1407 1.433 . S
C1400 H1396 0.929 . S
C1400 C1402 1.378 . S
C1400 C1404 1.350 . S
C1401 C1404 1.463 . S
C1401 C1406 1.350 . S
C1401 N1409 1.427 . S
C1402 H1393 0.930 . S
C1402 C1400 1.378 . S
C1402 C1403 1.367 . S
C1403 C1402 1.367 . S
C1403 C1405 1.433 . S
C1404 C1400 1.350 . S
C1404 C1401 1.463 . S
C1404 N1408 1.427 . S
C1405 H1395 0.929 . S
C1405 C1403 1.433 . S
C1405 N1408 1.384 . S
C1406 H1397 0.929 . S
C1406 C1398 1.378 . S
C1406 C1401 1.350 . S
C1407 H1394 0.929 . S
C1407 C1399 1.433 . S
C1407 N1409 1.384 . S
N1408 C1404 1.427 . S
N1408 C1405 1.384 . S
N1409 C1401 1.427 . S
N1409 C1407 1.384 . S
H1410 C1416 0.930 . S
H1411 C1420 0.930 . S
H1412 C1425 0.929 . S
H1413 C1423 0.929 . S
H1414 C1418 0.929 . S
H1415 C1424 0.929 . S
C1416 H1410 0.930 . S
C1416 C1417 1.367 . S
C1416 C1424 1.378 . S
C1417 C1416 1.367 . S
C1417 C1425 1.433 . S
C1418 H1414 0.929 . S
C1418 C1420 1.378 . S
C1418 C1422 1.350 . S
C1419 C1422 1.463 . S
C1419 C1424 1.350 . S
C1419 N1427 1.427 . S
C1420 H1411 0.930 . S
C1420 C1418 1.378 . S
C1420 C1421 1.367 . S
C1421 C1420 1.367 . S
C1421 C1423 1.433 . S
C1422 C1418 1.350 . S
C1422 C1419 1.463 . S
C1422 N1426 1.427 . S
C1423 H1413 0.929 . S
C1423 C1421 1.433 . S
C1423 N1426 1.384 . S
C1424 H1415 0.929 . S
C1424 C1416 1.378 . S
C1424 C1419 1.350 . S
C1425 H1412 0.929 . S
C1425 C1417 1.433 . S
C1425 N1427 1.384 . S
N1426 C1422 1.427 . S
N1426 C1423 1.384 . S
N1427 C1419 1.427 . S
N1427 C1425 1.384 . S
C575 C275 0.669 . S
C571 N6 0.695 . S
C593 C253 2.134 . S
C589 C57 2.215 . S
C611 C250 0.755 . S
C607 C61 0.760 . S
C625 N96 0.841 . S
C629 C262 0.826 . S
C643 C136 2.212 . S
C647 C245 2.126 . S
C665 C267 0.756 . S
C661 C160 0.760 . S
C679 N194 0.843 . S
C683 C272 0.856 . S
C697 N224 0.700 . S
C701 C268 0.670 . S
C719 C326 2.107 . S
C715 C10 2.168 . S
C733 N36 0.838 . S
C737 C376 0.858 . S
C755 C299 0.847 . S
C751 N74 0.831 . S
C773 C375 0.807 . S
C769 C100 0.803 . S
C787 C121 0.825 . S
C791 C304 0.820 . S
C809 C370 2.062 . S
C805 C177 2.127 . S
C823 C196 2.060 . S
C827 C329 2.074 . S
C841 C226 2.208 . S
C845 C361 2.154 . S
C859 C27 2.212 . S
C863 C353 2.156 . S
C877 N134 0.828 . S
C881 C383 0.860 . S
C899 C307 0.856 . S
C895 N156 0.831 . S
C917 C358 0.822 . S
C913 C181 0.824 . S
C931 C211 2.176 . S
C935 C316 2.100 . S
C949 C76 2.135 . S
C953 C380 2.076 . S
C971 C322 2.084 . S
C967 C117 2.071 . S
C985 C40 0.826 . S
C989 C321 0.835 . S
C1003 N216 0.713 . S
C1007 C437 0.672 . S
C1021 C147 2.209 . S
C1025 C415 2.121 . S
C1043 C412 0.763 . S
C1039 C151 0.761 . S
C1061 C424 0.830 . S
C1057 N186 0.847 . S
C1075 C46 2.212 . S
C1079 C407 2.126 . S
C1097 C429 0.765 . S
C1093 C70 0.762 . S
C1111 N104 0.834 . S
C1115 C434 0.828 . S
C1129 N14 0.698 . S
C1133 C430 0.670 . S
C1147 C220 2.169 . S
C1151 C488 2.097 . S
C1169 C538 0.835 . S
C1165 N126 0.798 . S
C1183 N164 0.833 . S
C1187 C461 0.826 . S
C1201 C190 0.807 . S
C1205 C537 0.806 . S
C1223 C466 0.825 . S
C1219 C31 0.817 . S
C1237 C87 2.123 . S
C1241 C532 2.070 . S
C1259 C491 2.075 . S
C1255 C106 2.063 . S
C1277 C523 2.162 . S
C1273 C16 2.203 . S
C1295 C515 2.156 . S
C1291 C237 2.212 . S
C1309 N44 0.846 . S
C1313 C545 0.869 . S
C1327 N66 0.820 . S
C1331 C469 0.844 . S
C1349 C520 0.820 . S
C1345 C91 0.813 . S
C1363 C1 2.176 . S
C1367 C478 2.104 . S
C1381 C166 2.139 . S
C1385 C542 2.084 . S
C1403 C484 2.081 . S
C1399 C207 2.066 . S
C1421 C483 0.832 . S
C1417 C130 0.836 . S
