# Generated by pormake.
# Topology gar, (4,6)-cn, num edge types: 1
# Building blocks:
#     Node 0, Type 0, BuildingBlock: CEKHIL_clean_sbu_0, # of connection points: 4
#     Node 1, Type 0, BuildingBlock: CEKHIL_clean_sbu_0, # of connection points: 4
#     Node 2, Type 0, BuildingBlock: CEKHIL_clean_sbu_0, # of connection points: 4
#     Node 3, Type 0, BuildingBlock: CEKHIL_clean_sbu_0, # of connection points: 4
#     Node 4, Type 0, BuildingBlock: CEKHIL_clean_sbu_0, # of connection points: 4
#     Node 5, Type 0, BuildingBlock: CEKHIL_clean_sbu_0, # of connection points: 4
#     Node 6, Type 0, BuildingBlock: CEKHIL_clean_sbu_0, # of connection points: 4
#     Node 7, Type 0, BuildingBlock: CEKHIL_clean_sbu_0, # of connection points: 4
#     Node 8, Type 0, BuildingBlock: CEKHIL_clean_sbu_0, # of connection points: 4
#     Node 9, Type 0, BuildingBlock: CEKHIL_clean_sbu_0, # of connection points: 4
#     Node 10, Type 0, BuildingBlock: CEKHIL_clean_sbu_0, # of connection points: 4
#     Node 11, Type 0, BuildingBlock: CEKHIL_clean_sbu_0, # of connection points: 4
#     Node 12, Type 0, BuildingBlock: CEKHIL_clean_sbu_0, # of connection points: 4
#     Node 13, Type 0, BuildingBlock: CEKHIL_clean_sbu_0, # of connection points: 4
#     Node 14, Type 0, BuildingBlock: CEKHIL_clean_sbu_0, # of connection points: 4
#     Node 15, Type 0, BuildingBlock: CEKHIL_clean_sbu_0, # of connection points: 4
#     Node 16, Type 0, BuildingBlock: CEKHIL_clean_sbu_0, # of connection points: 4
#     Node 17, Type 0, BuildingBlock: CEKHIL_clean_sbu_0, # of connection points: 4
#     Node 18, Type 0, BuildingBlock: CEKHIL_clean_sbu_0, # of connection points: 4
#     Node 19, Type 0, BuildingBlock: CEKHIL_clean_sbu_0, # of connection points: 4
#     Node 20, Type 0, BuildingBlock: CEKHIL_clean_sbu_0, # of connection points: 4
#     Node 21, Type 0, BuildingBlock: CEKHIL_clean_sbu_0, # of connection points: 4
#     Node 22, Type 0, BuildingBlock: CEKHIL_clean_sbu_0, # of connection points: 4
#     Node 23, Type 0, BuildingBlock: CEKHIL_clean_sbu_0, # of connection points: 4
#     Node 24, Type 1, BuildingBlock: CUKXOW_clean_sbu_0, # of connection points: 6
#     Node 25, Type 1, BuildingBlock: CUKXOW_clean_sbu_0, # of connection points: 6
#     Node 26, Type 1, BuildingBlock: CUKXOW_clean_sbu_0, # of connection points: 6
#     Node 27, Type 1, BuildingBlock: CUKXOW_clean_sbu_0, # of connection points: 6
#     Node 28, Type 1, BuildingBlock: CUKXOW_clean_sbu_0, # of connection points: 6
#     Node 29, Type 1, BuildingBlock: CUKXOW_clean_sbu_0, # of connection points: 6
#     Node 30, Type 1, BuildingBlock: CUKXOW_clean_sbu_0, # of connection points: 6
#     Node 31, Type 1, BuildingBlock: CUKXOW_clean_sbu_0, # of connection points: 6
#     Node 32, Type 1, BuildingBlock: CUKXOW_clean_sbu_0, # of connection points: 6
#     Node 33, Type 1, BuildingBlock: CUKXOW_clean_sbu_0, # of connection points: 6
#     Node 34, Type 1, BuildingBlock: CUKXOW_clean_sbu_0, # of connection points: 6
#     Node 35, Type 1, BuildingBlock: CUKXOW_clean_sbu_0, # of connection points: 6
#     Node 36, Type 1, BuildingBlock: CUKXOW_clean_sbu_0, # of connection points: 6
#     Node 37, Type 1, BuildingBlock: CUKXOW_clean_sbu_0, # of connection points: 6
#     Node 38, Type 1, BuildingBlock: CUKXOW_clean_sbu_0, # of connection points: 6
#     Node 39, Type 1, BuildingBlock: CUKXOW_clean_sbu_0, # of connection points: 6
#     Edge 40, Type (0, 1), BuildingBlock: XUDNAN_clean_linker_2, # of connection points: 2
#     Edge 41, Type (0, 1), BuildingBlock: XUDNAN_clean_linker_2, # of connection points: 2
#     Edge 42, Type (0, 1), BuildingBlock: XUDNAN_clean_linker_2, # of connection points: 2
#     Edge 43, Type (0, 1), BuildingBlock: XUDNAN_clean_linker_2, # of connection points: 2
#     Edge 44, Type (0, 1), BuildingBlock: XUDNAN_clean_linker_2, # of connection points: 2
#     Edge 45, Type (0, 1), BuildingBlock: XUDNAN_clean_linker_2, # of connection points: 2
#     Edge 46, Type (0, 1), BuildingBlock: XUDNAN_clean_linker_2, # of connection points: 2
#     Edge 47, Type (0, 1), BuildingBlock: XUDNAN_clean_linker_2, # of connection points: 2
#     Edge 48, Type (0, 1), BuildingBlock: XUDNAN_clean_linker_2, # of connection points: 2
#     Edge 49, Type (0, 1), BuildingBlock: XUDNAN_clean_linker_2, # of connection points: 2
#     Edge 50, Type (0, 1), BuildingBlock: XUDNAN_clean_linker_2, # of connection points: 2
#     Edge 51, Type (0, 1), BuildingBlock: XUDNAN_clean_linker_2, # of connection points: 2
#     Edge 52, Type (0, 1), BuildingBlock: XUDNAN_clean_linker_2, # of connection points: 2
#     Edge 53, Type (0, 1), BuildingBlock: XUDNAN_clean_linker_2, # of connection points: 2
#     Edge 54, Type (0, 1), BuildingBlock: XUDNAN_clean_linker_2, # of connection points: 2
#     Edge 55, Type (0, 1), BuildingBlock: XUDNAN_clean_linker_2, # of connection points: 2
#     Edge 56, Type (0, 1), BuildingBlock: XUDNAN_clean_linker_2, # of connection points: 2
#     Edge 57, Type (0, 1), BuildingBlock: XUDNAN_clean_linker_2, # of connection points: 2
#     Edge 58, Type (0, 1), BuildingBlock: XUDNAN_clean_linker_2, # of connection points: 2
#     Edge 59, Type (0, 1), BuildingBlock: XUDNAN_clean_linker_2, # of connection points: 2
#     Edge 60, Type (0, 1), BuildingBlock: XUDNAN_clean_linker_2, # of connection points: 2
#     Edge 61, Type (0, 1), BuildingBlock: XUDNAN_clean_linker_2, # of connection points: 2
#     Edge 62, Type (0, 1), BuildingBlock: XUDNAN_clean_linker_2, # of connection points: 2
#     Edge 63, Type (0, 1), BuildingBlock: XUDNAN_clean_linker_2, # of connection points: 2
#     Edge 64, Type (0, 1), BuildingBlock: XUDNAN_clean_linker_2, # of connection points: 2
#     Edge 65, Type (0, 1), BuildingBlock: XUDNAN_clean_linker_2, # of connection points: 2
#     Edge 66, Type (0, 1), BuildingBlock: XUDNAN_clean_linker_2, # of connection points: 2
#     Edge 67, Type (0, 1), BuildingBlock: XUDNAN_clean_linker_2, # of connection points: 2
#     Edge 68, Type (0, 1), BuildingBlock: XUDNAN_clean_linker_2, # of connection points: 2
#     Edge 69, Type (0, 1), BuildingBlock: XUDNAN_clean_linker_2, # of connection points: 2
#     Edge 70, Type (0, 1), BuildingBlock: XUDNAN_clean_linker_2, # of connection points: 2
#     Edge 71, Type (0, 1), BuildingBlock: XUDNAN_clean_linker_2, # of connection points: 2
#     Edge 72, Type (0, 1), BuildingBlock: XUDNAN_clean_linker_2, # of connection points: 2
#     Edge 73, Type (0, 1), BuildingBlock: XUDNAN_clean_linker_2, # of connection points: 2
#     Edge 74, Type (0, 1), BuildingBlock: XUDNAN_clean_linker_2, # of connection points: 2
#     Edge 75, Type (0, 1), BuildingBlock: XUDNAN_clean_linker_2, # of connection points: 2
#     Edge 76, Type (0, 1), BuildingBlock: XUDNAN_clean_linker_2, # of connection points: 2
#     Edge 77, Type (0, 1), BuildingBlock: XUDNAN_clean_linker_2, # of connection points: 2
#     Edge 78, Type (0, 1), BuildingBlock: XUDNAN_clean_linker_2, # of connection points: 2
#     Edge 79, Type (0, 1), BuildingBlock: XUDNAN_clean_linker_2, # of connection points: 2
#     Edge 80, Type (0, 1), BuildingBlock: XUDNAN_clean_linker_2, # of connection points: 2
#     Edge 81, Type (0, 1), BuildingBlock: XUDNAN_clean_linker_2, # of connection points: 2
#     Edge 82, Type (0, 1), BuildingBlock: XUDNAN_clean_linker_2, # of connection points: 2
#     Edge 83, Type (0, 1), BuildingBlock: XUDNAN_clean_linker_2, # of connection points: 2
#     Edge 84, Type (0, 1), BuildingBlock: XUDNAN_clean_linker_2, # of connection points: 2
#     Edge 85, Type (0, 1), BuildingBlock: XUDNAN_clean_linker_2, # of connection points: 2
#     Edge 86, Type (0, 1), BuildingBlock: XUDNAN_clean_linker_2, # of connection points: 2
#     Edge 87, Type (0, 1), BuildingBlock: XUDNAN_clean_linker_2, # of connection points: 2
#     Edge 88, Type (0, 1), BuildingBlock: XUDNAN_clean_linker_2, # of connection points: 2
#     Edge 89, Type (0, 1), BuildingBlock: XUDNAN_clean_linker_2, # of connection points: 2
#     Edge 90, Type (0, 1), BuildingBlock: XUDNAN_clean_linker_2, # of connection points: 2
#     Edge 91, Type (0, 1), BuildingBlock: XUDNAN_clean_linker_2, # of connection points: 2
#     Edge 92, Type (0, 1), BuildingBlock: XUDNAN_clean_linker_2, # of connection points: 2
#     Edge 93, Type (0, 1), BuildingBlock: XUDNAN_clean_linker_2, # of connection points: 2
#     Edge 94, Type (0, 1), BuildingBlock: XUDNAN_clean_linker_2, # of connection points: 2
#     Edge 95, Type (0, 1), BuildingBlock: XUDNAN_clean_linker_2, # of connection points: 2
#     Edge 96, Type (0, 1), BuildingBlock: XUDNAN_clean_linker_2, # of connection points: 2
#     Edge 97, Type (0, 1), BuildingBlock: XUDNAN_clean_linker_2, # of connection points: 2
#     Edge 98, Type (0, 1), BuildingBlock: XUDNAN_clean_linker_2, # of connection points: 2
#     Edge 99, Type (0, 1), BuildingBlock: XUDNAN_clean_linker_2, # of connection points: 2
#     Edge 100, Type (0, 1), BuildingBlock: XUDNAN_clean_linker_2, # of connection points: 2
#     Edge 101, Type (0, 1), BuildingBlock: XUDNAN_clean_linker_2, # of connection points: 2
#     Edge 102, Type (0, 1), BuildingBlock: XUDNAN_clean_linker_2, # of connection points: 2
#     Edge 103, Type (0, 1), BuildingBlock: XUDNAN_clean_linker_2, # of connection points: 2
#     Edge 104, Type (0, 1), BuildingBlock: XUDNAN_clean_linker_2, # of connection points: 2
#     Edge 105, Type (0, 1), BuildingBlock: XUDNAN_clean_linker_2, # of connection points: 2
#     Edge 106, Type (0, 1), BuildingBlock: XUDNAN_clean_linker_2, # of connection points: 2
#     Edge 107, Type (0, 1), BuildingBlock: XUDNAN_clean_linker_2, # of connection points: 2
#     Edge 108, Type (0, 1), BuildingBlock: XUDNAN_clean_linker_2, # of connection points: 2
#     Edge 109, Type (0, 1), BuildingBlock: XUDNAN_clean_linker_2, # of connection points: 2
#     Edge 110, Type (0, 1), BuildingBlock: XUDNAN_clean_linker_2, # of connection points: 2
#     Edge 111, Type (0, 1), BuildingBlock: XUDNAN_clean_linker_2, # of connection points: 2
#     Edge 112, Type (0, 1), BuildingBlock: XUDNAN_clean_linker_2, # of connection points: 2
#     Edge 113, Type (0, 1), BuildingBlock: XUDNAN_clean_linker_2, # of connection points: 2
#     Edge 114, Type (0, 1), BuildingBlock: XUDNAN_clean_linker_2, # of connection points: 2
#     Edge 115, Type (0, 1), BuildingBlock: XUDNAN_clean_linker_2, # of connection points: 2
#     Edge 116, Type (0, 1), BuildingBlock: XUDNAN_clean_linker_2, # of connection points: 2
#     Edge 117, Type (0, 1), BuildingBlock: XUDNAN_clean_linker_2, # of connection points: 2
#     Edge 118, Type (0, 1), BuildingBlock: XUDNAN_clean_linker_2, # of connection points: 2
#     Edge 119, Type (0, 1), BuildingBlock: XUDNAN_clean_linker_2, # of connection points: 2
#     Edge 120, Type (0, 1), BuildingBlock: XUDNAN_clean_linker_2, # of connection points: 2
#     Edge 121, Type (0, 1), BuildingBlock: XUDNAN_clean_linker_2, # of connection points: 2
#     Edge 122, Type (0, 1), BuildingBlock: XUDNAN_clean_linker_2, # of connection points: 2
#     Edge 123, Type (0, 1), BuildingBlock: XUDNAN_clean_linker_2, # of connection points: 2
#     Edge 124, Type (0, 1), BuildingBlock: XUDNAN_clean_linker_2, # of connection points: 2
#     Edge 125, Type (0, 1), BuildingBlock: XUDNAN_clean_linker_2, # of connection points: 2
#     Edge 126, Type (0, 1), BuildingBlock: XUDNAN_clean_linker_2, # of connection points: 2
#     Edge 127, Type (0, 1), BuildingBlock: XUDNAN_clean_linker_2, # of connection points: 2
#     Edge 128, Type (0, 1), BuildingBlock: XUDNAN_clean_linker_2, # of connection points: 2
#     Edge 129, Type (0, 1), BuildingBlock: XUDNAN_clean_linker_2, # of connection points: 2
#     Edge 130, Type (0, 1), BuildingBlock: XUDNAN_clean_linker_2, # of connection points: 2
#     Edge 131, Type (0, 1), BuildingBlock: XUDNAN_clean_linker_2, # of connection points: 2
#     Edge 132, Type (0, 1), BuildingBlock: XUDNAN_clean_linker_2, # of connection points: 2
#     Edge 133, Type (0, 1), BuildingBlock: XUDNAN_clean_linker_2, # of connection points: 2
#     Edge 134, Type (0, 1), BuildingBlock: XUDNAN_clean_linker_2, # of connection points: 2
#     Edge 135, Type (0, 1), BuildingBlock: XUDNAN_clean_linker_2, # of connection points: 2
# Relax obj value: 0.109
# Max RMSD: 0.223
# Mean RMSD: 0.120
data_MOF--net-gar--node1-CEKHIL_clean_sbu_0--node2-CUKXOW_clean_sbu_0--edge1-XUDNAN_clean_linker_2
_symmetry_space_group_name_H-M    P1
_symmetry_Int_Tables_number       1
_symmetry_cell_setting            triclinic
loop_
_symmetry_equiv_pos_as_xyz
'x, y, z'
_cell_length_a     55.347777
_cell_length_b     53.251639
_cell_length_c     52.960531
_cell_angle_alpha  93.753044
_cell_angle_beta   95.064859
_cell_angle_gamma 98.592394
loop_
_atom_site_label
_atom_site_type_symbol
_atom_site_fract_x
_atom_site_fract_y
_atom_site_fract_z
_atom_type_partial_charge
Co0 Co 0.03878 0.27755 0.41451 0.0
O1 O 0.07136 0.2734 0.40692 0.0
O2 O 0.03765 0.26255 0.38024 0.0
C3 C 0.04928 0.31742 0.43252 0.0
O4 O 1.00246 0.27953 0.41406 0.0
Co5 Co 0.02325 0.28851 0.46837 0.0
O6 O 0.99546 0.30127 0.44968 0.0
C7 C 0.03033 0.23637 0.45064 0.0
C8 C 0.06133 0.26417 0.38445 0.0
C9 C 0.98896 0.29202 0.42694 0.0
O10 O 0.03425 0.2432 0.42834 0.0
O11 O 0.02648 0.25154 0.46911 0.0
O12 O 0.04511 0.31343 0.40793 0.0
O13 O 0.04796 0.29752 0.44526 0.0
Co14 Co 1.00175 0.79825 0.60887 0.0
O15 O 0.96613 0.79501 0.60356 0.0
O16 O 0.98796 0.78845 0.63909 0.0
C17 C 0.01046 0.83489 0.5905 0.0
O18 O 0.03682 0.80057 0.6239 0.0
Co19 Co 0.03928 0.80079 0.56862 0.0
O20 O 0.06569 0.808 0.59723 0.0
C21 C 1.00747 0.75221 0.57556 0.0
C22 C 0.96668 0.78882 0.627 0.0
C23 C 0.05937 0.8051 0.61951 0.0
O24 O 1.00033 0.76159 0.59615 0.0
O25 O 0.02098 0.7654 0.56126 0.0
O26 O 1.00431 0.8354 0.61371 0.0
O27 O 1.00988 0.81272 0.57909 0.0
Co28 Co 0.53848 0.78159 0.92114 0.0
O29 O 0.57118 0.77344 0.91873 0.0
O30 O 0.54234 0.77219 0.88656 0.0
C31 C 0.54851 0.81746 0.94691 0.0
O32 O 0.50429 0.78977 0.91416 0.0
Co33 Co 0.51153 0.78357 0.96964 0.0
O34 O 0.48578 0.79779 0.94913 0.0
C35 C 0.51917 0.73413 0.94609 0.0
C36 C 0.56437 0.76888 0.89444 0.0
C37 C 0.48662 0.79716 0.92518 0.0
O38 O 0.52638 0.74505 0.92656 0.0
O39 O 0.51385 0.74625 0.96599 0.0
O40 O 0.55102 0.81782 0.92273 0.0
O41 O 0.54217 0.79527 0.95505 0.0
Co42 Co 0.50719 0.30323 0.12116 0.0
O43 O 0.47282 0.30202 0.1254 0.0
O44 O 0.50078 0.29234 0.1542 0.0
C45 C 0.51213 0.3415 0.10519 0.0
O46 O 0.54397 0.30337 0.12526 0.0
Co47 Co 0.5296 0.30738 0.06963 0.0
O48 O 0.56121 0.31769 0.09115 0.0
C49 C 0.50531 0.25734 0.0837 0.0
C50 C 0.47818 0.29531 0.14814 0.0
C51 C 0.56287 0.31155 0.114 0.0
O52 O 0.50124 0.26693 0.1056 0.0
O53 O 0.51533 0.27036 0.06684 0.0
O54 O 0.51293 0.34005 0.12964 0.0
O55 O 0.50708 0.32025 0.0913 0.0
Co56 Co 0.99503 0.77469 0.16729 0.0
O57 O 0.9595 0.76927 0.16037 0.0
O58 O 0.97912 0.76881 0.19837 0.0
C59 C 1.00064 0.80939 0.14431 0.0
O60 O 0.03128 0.78041 0.18277 0.0
Co61 Co 0.03049 0.77437 0.12479 0.0
O62 O 0.05733 0.78371 0.15237 0.0
C63 C 1.00368 0.72566 0.13909 0.0
C64 C 0.95828 0.76739 0.18454 0.0
C65 C 0.05322 0.7839 0.17564 0.0
O66 O 0.99546 0.73678 0.15835 0.0
O67 O 0.01609 0.73762 0.12312 0.0
O68 O 0.99548 0.81185 0.16773 0.0
O69 O 1.0016 0.78648 0.13562 0.0
Co70 Co 0.54047 0.80743 0.3737 0.0
O71 O 0.57644 0.81279 0.3748 0.0
O72 O 0.55088 0.79423 0.34238 0.0
C73 C 0.53695 0.84711 0.38987 0.0
O74 O 0.50327 0.79895 0.36322 0.0
Co75 Co 0.51009 0.81202 0.41987 0.0
O76 O 0.48151 0.81145 0.39422 0.0
C77 C 0.53631 0.76781 0.41212 0.0
C78 C 0.57342 0.80221 0.35165 0.0
C79 C 0.48278 0.80291 0.37143 0.0
O80 O 0.54075 0.77387 0.38955 0.0
O81 O 0.52629 0.78172 0.42746 0.0
O82 O 0.54006 0.84301 0.36596 0.0
O83 O 0.53752 0.82782 0.40321 0.0
Co84 Co 0.49932 0.28085 0.66193 0.0
O85 O 0.46426 0.27455 0.65229 0.0
O86 O 0.48108 0.27318 0.6913 0.0
C87 C 0.505 0.31599 0.63969 0.0
O88 O 0.53476 0.28725 0.67982 0.0
Co89 Co 0.53847 0.28392 0.62306 0.0
O90 O 0.56222 0.29852 0.65217 0.0
C91 C 0.51225 0.23356 0.63478 0.0
C92 C 0.46112 0.27171 0.67597 0.0
C93 C 0.55696 0.29523 0.67475 0.0
O94 O 0.50147 0.24361 0.65272 0.0
O95 O 0.52609 0.24654 0.6206 0.0
O96 O 0.49841 0.31783 0.66262 0.0
O97 O 0.50771 0.29351 0.63124 0.0
Co98 Co 0.03682 0.3016 0.8721 0.0
O99 O 0.07216 0.30828 0.88034 0.0
O100 O 0.05394 0.29074 0.84343 0.0
C101 C 0.0302 0.34032 0.88839 0.0
O102 O 1.00073 0.29265 0.85588 0.0
Co103 Co 1.00072 0.30176 0.9139 0.0
O104 O 0.97467 0.29816 0.88538 0.0
C105 C 0.02777 0.25846 0.90672 0.0
C106 C 0.07441 0.29876 0.85765 0.0
C107 C 0.97873 0.29286 0.8625 0.0
O108 O 0.03596 0.26711 0.88641 0.0
O109 O 0.01483 0.27019 0.92092 0.0
O110 O 0.03682 0.3375 0.86553 0.0
O111 O 0.02918 0.32032 0.90092 0.0
Co112 Co 0.40664 0.08368 0.25902 0.0
O113 O 0.41104 0.12051 0.2564 0.0
O114 O 0.37744 0.09377 0.24241 0.0
C115 C 0.42081 0.08482 0.30112 0.0
O116 O 0.39279 0.04611 0.25916 0.0
Co117 Co 0.44742 0.05185 0.2716 0.0
O118 O 0.42038 0.02397 0.27658 0.0
C119 C 0.44096 0.06903 0.2197 0.0
C120 C 0.3883 0.11718 0.24646 0.0
C121 C 0.39853 0.02557 0.26783 0.0
O122 O 0.42103 0.07737 0.22511 0.0
O123 O 0.45505 0.06028 0.23632 0.0
O124 O 0.39876 0.08884 0.294 0.0
O125 O 0.43451 0.0823 0.28277 0.0
Co126 Co 0.2723 0.13872 0.48626 0.0
O127 O 0.30601 0.14831 0.50118 0.0
O128 O 0.28229 0.11151 0.50461 0.0
C129 C 0.27913 0.15218 0.44751 0.0
O130 O 0.23795 0.12032 0.47407 0.0
Co131 Co 0.23821 0.17407 0.46277 0.0
O132 O 0.21382 0.14318 0.45225 0.0
C133 C 0.24901 0.17484 0.51902 0.0
C134 C 0.3036 0.12564 0.50939 0.0
C135 C 0.21758 0.12242 0.46133 0.0
O136 O 0.25986 0.15504 0.51721 0.0
O137 O 0.2414 0.18582 0.49972 0.0
O138 O 0.28418 0.13006 0.45333 0.0
O139 O 0.27106 0.16547 0.46517 0.0
Co140 Co 0.16634 0.0092 0.81215 0.0
O141 O 0.15829 0.9724 0.80611 0.0
O142 O 0.19405 0.99511 0.80063 0.0
C143 C 0.15063 0.01155 0.85015 0.0
O144 O 0.18257 0.04663 0.81612 0.0
Co145 Co 0.12849 0.04594 0.81885 0.0
O146 O 0.15687 0.07363 0.8263 0.0
C147 C 0.13302 0.02113 0.76791 0.0
C148 C 0.18052 0.97291 0.79979 0.0
C149 C 0.17814 0.06932 0.82178 0.0
O150 O 0.15278 0.01299 0.77625 0.0
O151 O 0.12001 0.03261 0.78232 0.0
O152 O 0.17257 0.00593 0.84873 0.0
O153 O 0.13866 0.0145 0.82884 0.0
Co154 Co 0.22568 0.90148 0.02946 0.0
O155 O 0.19035 0.90164 0.03301 0.0
O156 O 0.21988 0.9335 0.04526 0.0
C157 C 0.22249 0.88483 0.98793 0.0
O158 O 0.26245 0.91227 0.0277 0.0
Co159 Co 0.25169 0.85509 0.01961 0.0
O160 O 0.28129 0.87997 0.01479 0.0
C161 C 0.23696 0.86536 0.07098 0.0
C162 C 0.19653 0.92516 0.0426 0.0
C163 C 0.28151 0.90358 0.0207 0.0
O164 O 0.23149 0.88708 0.06444 0.0
O165 O 0.24304 0.84887 0.05503 0.0
O166 O 0.22027 0.90844 0.9936 0.0
O167 O 0.22401 0.87126 0.00727 0.0
Co168 Co 0.2617 0.43771 0.03094 0.0
O169 O 0.22699 0.43683 0.02272 0.0
O170 O 0.25235 0.4694 0.04317 0.0
C171 C 0.26875 0.42229 0.99217 0.0
O172 O 0.29838 0.44688 0.0415 0.0
Co173 Co 0.2874 0.3896 0.02737 0.0
O174 O 0.31816 0.41445 0.03093 0.0
C175 C 0.25968 0.40017 0.07144 0.0
C176 C 0.23037 0.46011 0.0329 0.0
C177 C 0.31825 0.43754 0.03898 0.0
O178 O 0.25586 0.42196 0.06408 0.0
O179 O 0.2702 0.38446 0.05864 0.0
O180 O 0.2676 0.44636 0.99646 0.0
O181 O 0.26418 0.40828 0.01063 0.0
Co182 Co 0.81707 0.16856 0.00532 0.0
O183 O 0.85299 0.16898 0.00603 0.0
O184 O 0.82653 0.13684 0.01542 0.0
C185 C 0.8118 0.18468 0.96612 0.0
O186 O 0.78013 0.15709 0.00575 0.0
Co187 Co 0.78689 0.21238 1.00101 0.0
O188 O 0.75664 0.18649 0.99637 0.0
C189 C 0.81103 0.20369 0.05182 0.0
C190 C 0.849 0.14538 0.01176 0.0
C191 C 0.75888 0.16389 1.00146 0.0
O192 O 0.8194 0.18394 0.04236 0.0
O193 O 0.79929 0.21767 0.03802 0.0
O194 O 0.81389 0.1609 0.96818 0.0
O195 O 0.81398 0.19836 0.9875 0.0
Co196 Co 0.12926 0.48482 0.28656 0.0
O197 O 0.12516 0.44777 0.28529 0.0
O198 O 0.15877 0.47214 0.27692 0.0
C199 C 0.11363 0.49024 0.32499 0.0
O200 O 0.14222 0.52304 0.28732 0.0
Co201 Co 0.08667 0.51625 0.28854 0.0
O202 O 0.11336 0.54499 0.30034 0.0
C203 C 0.09541 0.49143 0.239 0.0
C204 C 0.14772 0.44934 0.2797 0.0
C205 C 0.13529 0.54392 0.29534 0.0
O206 O 0.11509 0.48417 0.24934 0.0
O207 O 0.08107 0.50271 0.25189 0.0
O208 O 0.13625 0.48668 0.32385 0.0
O209 O 0.10082 0.4888 0.30322 0.0
Co210 Co 0.75712 0.93184 0.54052 0.0
O211 O 0.72256 0.93128 0.53097 0.0
O212 O 0.74903 0.96559 0.54576 0.0
C213 C 0.76404 0.90833 0.50583 0.0
O214 O 0.79393 0.94096 0.55086 0.0
Co215 Co 0.78047 0.88283 0.54905 0.0
O216 O 0.81221 0.90607 0.55366 0.0
C217 C 0.75019 0.90245 0.58675 0.0
C218 C 0.72682 0.95577 0.53664 0.0
C219 C 0.81307 0.93014 0.55462 0.0
O220 O 0.75027 0.92364 0.57629 0.0
O221 O 0.75899 0.88345 0.57732 0.0
O222 O 0.76325 0.93251 0.50471 0.0
O223 O 0.75892 0.89899 0.52688 0.0
Co224 Co 0.87235 0.06334 0.25556 0.0
O225 O 0.88008 0.09989 0.2607 0.0
O226 O 0.84575 0.07953 0.23999 0.0
C227 C 0.88311 0.05811 0.29691 0.0
O228 O 0.85705 0.02543 0.24823 0.0
Co229 Co 0.91161 0.02877 0.26685 0.0
O230 O 0.88387 1.00051 0.26265 0.0
C231 C 0.91152 0.0564 0.22004 0.0
C232 C 0.85842 0.10106 0.24986 0.0
C233 C 0.86267 1.00335 0.25299 0.0
O234 O 0.89057 0.06337 0.22364 0.0
O235 O 0.92325 0.04464 0.23617 0.0
O236 O 0.86136 0.06285 0.28969 0.0
O237 O 0.89784 0.05775 0.27944 0.0
Co238 Co 0.31179 0.66807 0.50801 0.0
O239 O 0.34786 0.66964 0.50783 0.0
O240 O 0.32196 0.63506 0.51174 0.0
C241 C 0.30542 0.69147 0.47321 0.0
O242 O 0.27493 0.65544 0.50768 0.0
Co243 Co 0.28094 0.7119 0.51273 0.0
O244 O 0.2512 0.68582 0.50445 0.0
C245 C 0.3055 0.69508 0.55971 0.0
C246 C 0.34437 0.64505 0.50942 0.0
C247 C 0.25363 0.66251 0.50545 0.0
O248 O 0.31409 0.67712 0.54698 0.0
O249 O 0.29364 0.71103 0.54903 0.0
O250 O 0.30831 0.66771 0.47008 0.0
O251 O 0.30785 0.70043 0.49664 0.0
Co252 Co 0.36997 0.56282 0.74809 0.0
O253 O 0.37954 0.59907 0.75611 0.0
O254 O 0.34222 0.58053 0.7409 0.0
C255 C 0.38842 0.5515 0.78433 0.0
O256 O 0.35223 0.52595 0.73968 0.0
Co257 Co 0.408 0.5254 0.74315 0.0
O258 O 0.3793 0.49835 0.74247 0.0
C259 C 0.3997 0.55982 0.70282 0.0
C260 C 0.35682 0.60128 0.74968 0.0
C261 C 0.35737 0.50304 0.7397 0.0
O262 O 0.3805 0.56607 0.71233 0.0
O263 O 0.41379 0.54584 0.71351 0.0
O264 O 0.36699 0.55869 0.78437 0.0
O265 O 0.39843 0.55311 0.76336 0.0
Co266 Co 0.62635 0.98247 0.78298 0.0
O267 O 0.62351 0.94552 0.78214 0.0
O268 O 0.65607 0.97072 0.7725 0.0
C269 C 0.61177 0.98799 0.8221 0.0
O270 O 0.63799 0.02084 0.78313 0.0
Co271 Co 0.58242 0.01198 0.78575 0.0
O272 O 0.60848 0.04155 0.79668 0.0
C273 C 0.59139 0.98836 0.73577 0.0
C274 C 0.64588 0.94775 0.77587 0.0
C275 C 0.6304 0.04134 0.79118 0.0
O276 O 0.61123 0.98122 0.74594 0.0
O277 O 0.57692 0.9992 0.74889 0.0
O278 O 0.63442 0.98497 0.82019 0.0
O279 O 0.59825 0.98571 0.80066 0.0
Co280 Co 0.78234 0.64104 0.98098 0.0
O281 O 0.81569 0.6381 0.99335 0.0
O282 O 0.78368 0.6072 0.99056 0.0
C283 C 0.79163 0.66191 0.94664 0.0
O284 O 0.74593 0.63509 0.96964 0.0
Co285 Co 0.76181 0.69168 0.97429 0.0
O286 O 0.73047 0.67021 0.95993 0.0
C287 C 0.77424 0.67519 0.02553 0.0
C288 C 0.80697 0.61456 0.99666 0.0
C289 C 0.72801 0.64629 0.96188 0.0
O290 O 0.77571 0.65265 0.01613 0.0
O291 O 0.7715 0.6938 0.01193 0.0
O292 O 0.79046 0.63727 0.94571 0.0
O293 O 0.78851 0.673 0.96816 0.0
Co294 Co 0.90711 0.5832 0.76106 0.0
O295 O 0.91349 0.62013 0.76112 0.0
O296 O 0.8791 0.59624 0.74459 0.0
C297 C 0.92033 0.58156 0.80316 0.0
O298 O 0.89162 0.5458 0.75932 0.0
Co299 Co 0.94686 0.54953 0.77217 0.0
O300 O 0.91891 0.52199 0.77466 0.0
C301 C 0.94108 0.56857 0.72111 0.0
C302 C 0.89112 0.61897 0.75073 0.0
C303 C 0.89711 0.5246 0.76665 0.0
O304 O 0.9218 0.57792 0.72709 0.0
O305 O 0.95459 0.55849 0.7372 0.0
O306 O 0.89874 0.58686 0.79607 0.0
O307 O 0.93423 0.57954 0.78492 0.0
Co308 Co 0.71903 0.39642 0.52258 0.0
O309 O 0.68332 0.39277 0.52329 0.0
O310 O 0.70892 0.42761 0.53683 0.0
C311 C 0.71892 0.3798 0.48136 0.0
O312 O 0.75595 0.40941 0.52413 0.0
Co313 Co 0.74844 0.35194 0.514 0.0
O314 O 0.77562 0.37911 0.50782 0.0
C315 C 0.73054 0.36114 0.56455 0.0
C316 C 0.68629 0.41647 0.53233 0.0
C317 C 0.77526 0.40205 0.51604 0.0
O318 O 0.72356 0.38216 0.55771 0.0
O319 O 0.73883 0.34571 0.54913 0.0
O320 O 0.71527 0.40305 0.4864 0.0
O321 O 0.7204 0.36664 0.50093 0.0
Co322 Co 0.65978 0.50345 0.3021 0.0
O323 O 0.65501 0.46653 0.30021 0.0
O324 O 0.68896 0.49096 0.29212 0.0
C325 C 0.64385 0.50805 0.33987 0.0
O326 O 0.67286 0.54156 0.30307 0.0
Co327 Co 0.61789 0.53584 0.30379 0.0
O328 O 0.64416 0.56585 0.31089 0.0
C329 C 0.62536 0.50774 0.2558 0.0
C330 C 0.67734 0.4682 0.29398 0.0
C331 C 0.66623 0.5635 0.30752 0.0
O332 O 0.64609 0.5028 0.26549 0.0
O333 O 0.61058 0.51858 0.26844 0.0
O334 O 0.66649 0.50437 0.33908 0.0
O335 O 0.63132 0.50764 0.31807 0.0
Tb336 Tb 0.03553 0.06632 0.02483 0.0
C337 C 0.04114 0.02127 0.9854 0.0
Tb338 Tb 0.01305 0.01036 0.03382 0.0
O339 O 0.07437 0.06349 0.03792 0.0
O340 O 0.0474 0.03292 0.03663 0.0
O341 O 0.03756 0.04533 0.98831 0.0
C342 C 1.00623 0.96462 0.05236 0.0
O343 O 0.03553 1.00486 1.00263 0.0
C344 C 0.98201 0.03791 0.01101 0.0
C345 C 0.01108 0.05591 0.07609 0.0
O346 O 0.99978 0.96928 0.02915 0.0
O347 O 0.01627 0.98574 0.06517 0.0
O348 O 0.97974 0.01312 0.00866 0.0
O349 O 1.00004 0.0453 0.0273 0.0
O350 O 1.00888 0.03085 0.07015 0.0
O351 O 0.01981 0.07336 0.0608 0.0
C352 C 0.03854 0.11056 1.00376 0.0
O353 O 0.05242 0.10614 0.02363 0.0
O354 O 0.02282 0.09029 0.99615 0.0
C355 C 0.07022 0.03931 0.04151 0.0
Tb356 Tb 0.27267 0.81405 0.28428 0.0
C357 C 0.3144 0.77831 0.28555 0.0
Tb358 Tb 0.25853 0.75373 0.27107 0.0
O359 O 0.2695 0.81326 0.32581 0.0
O360 O 0.26335 0.78086 0.30216 0.0
O361 O 0.3084 0.80141 0.28314 0.0
C362 C 0.24102 0.70716 0.28362 0.0
O363 O 0.29815 0.75683 0.28223 0.0
C364 C 0.2606 0.78184 0.23142 0.0
C365 C 0.21715 0.78978 0.26675 0.0
O366 O 0.25306 0.71172 0.2638 0.0
O367 O 0.23937 0.72861 0.29592 0.0
O368 O 0.24943 0.7583 0.23031 0.0
O369 O 0.27259 0.78676 0.25317 0.0
O370 O 0.22255 0.76636 0.26835 0.0
O371 O 0.2337 0.81089 0.27076 0.0
C372 C 0.29089 0.86316 0.28131 0.0
O373 O 0.26904 0.85218 0.27202 0.0
O374 O 0.30208 0.84663 0.2925 0.0
C375 C 0.26496 0.7885 0.32525 0.0
Tb376 Tb 0.53666 0.04144 0.50739 0.0
C377 C 0.52973 0.01447 0.56015 0.0
Tb378 Tb 0.4852 0.02803 0.5253 0.0
O379 O 0.53806 0.08229 0.51724 0.0
O380 O 0.51684 0.05518 0.53609 0.0
O381 O 0.54402 0.02191 0.54217 0.0
C382 C 0.44245 0.03652 0.54161 0.0
O383 O 0.5059 0.01618 0.5584 0.0
C384 C 0.50061 0.99194 0.49771 0.0
C385 C 0.49261 0.05546 0.47314 0.0
O386 O 0.44485 0.02294 0.52094 0.0
O387 O 0.46404 0.04405 0.55349 0.0
O388 O 0.48488 0.98713 0.51444 0.0
O389 O 0.50451 0.01553 0.49593 0.0
O390 O 0.47979 0.05208 0.49323 0.0
O391 O 0.51519 0.0496 0.47298 0.0
C392 C 0.58054 0.03275 0.49508 0.0
O393 O 0.5612 0.01568 0.49504 0.0
O394 O 0.57486 0.05507 0.50108 0.0
C395 C 0.52115 0.07859 0.5328 0.0
Tb396 Tb 0.28078 0.29321 0.7952 0.0
C397 C 0.27179 0.33251 0.75463 0.0
Tb398 Tb 0.25781 0.27377 0.74004 0.0
O399 O 0.31431 0.27706 0.78846 0.0
O400 O 0.29321 0.28871 0.75847 0.0
O401 O 0.27145 0.32764 0.77886 0.0
C402 C 0.25239 0.25536 0.69164 0.0
O403 O 0.27043 0.3142 0.73601 0.0
C404 C 0.22303 0.28098 0.77044 0.0
C405 C 0.2614 0.23509 0.783 0.0
O406 O 0.24244 0.27416 0.70079 0.0
O407 O 0.26559 0.24691 0.70977 0.0
O408 O 0.21851 0.27277 0.7466 0.0
O409 O 0.246 0.28428 0.77501 0.0
O410 O 0.26149 0.23856 0.75834 0.0
O411 O 0.26547 0.25415 0.80111 0.0
C412 C 0.29294 0.31986 0.84 0.0
O413 O 0.27633 0.29966 0.83569 0.0
O414 O 0.30297 0.32457 0.81928 0.0
C415 C 0.31136 0.27763 0.76389 0.0
Tb416 Tb 1.00496 0.03627 0.49836 0.0
C417 C 0.97478 0.02681 0.54633 0.0
Tb418 Tb 0.0333 0.03544 0.5518 0.0
O419 O 0.01564 0.9991 0.4866 0.0
O420 O 0.01184 0.00971 0.52426 0.0
O421 O 0.97437 0.0324 0.52213 0.0
C422 C 0.05401 0.02275 0.59529 0.0
O423 O 0.99547 0.02607 0.56101 0.0
C424 C 0.03345 0.08029 0.53436 0.0
C425 C 0.06212 0.03979 0.50316 0.0
O426 O 0.0409 0.041 0.5931 0.0
O427 O 0.05529 0.01156 0.573 0.0
O428 O 0.05097 0.07477 0.54992 0.0
O429 O 0.01634 0.0617 0.53107 0.0
O430 O 0.06095 0.03032 0.52571 0.0
O431 O 0.04296 0.04722 0.49052 0.0
C432 C 0.97804 0.04847 0.45824 0.0
O433 O 0.99562 0.06381 0.47177 0.0
O434 O 0.97566 0.02624 0.46728 0.0
C435 C 0.01842 0.99303 0.50996 0.0
Tb436 Tb 0.29422 0.79262 0.78804 0.0
C437 C 0.25172 0.80458 0.82038 0.0
Tb438 Tb 0.24128 0.77888 0.7632 0.0
O439 O 0.29216 0.83346 0.7906 0.0
O440 O 0.27037 0.80929 0.76266 0.0
O441 O 0.27432 0.79875 0.82142 0.0
C442 C 0.19767 0.78101 0.73871 0.0
O443 O 0.23668 0.80081 0.79889 0.0
C444 C 0.26054 0.73965 0.77887 0.0
C445 C 0.28445 0.76545 0.73172 0.0
O446 O 0.2012 0.77563 0.76222 0.0
O447 O 0.2185 0.78481 0.72917 0.0
O448 O 0.2415 0.73769 0.76228 0.0
O449 O 0.26485 0.76238 0.78851 0.0
O450 O 0.26167 0.77083 0.73065 0.0
O451 O 0.29977 0.77047 0.75292 0.0
C452 C 0.33933 0.79558 0.81082 0.0
O453 O 0.33385 0.80484 0.78935 0.0
O454 O 0.31954 0.78426 0.8191 0.0
C455 C 0.27404 0.83176 0.77305 0.0
Tb456 Tb 0.49361 0.02121 0.00989 0.0
C457 C 0.5342 0.98696 0.01653 0.0
Tb458 Tb 0.54841 0.0467 0.02316 0.0
O459 O 0.50018 0.00771 0.9711 0.0
O460 O 0.5229 0.03875 0.99014 0.0
O461 O 0.51122 0.98911 0.02033 0.0
C462 C 0.59585 0.06648 0.02132 0.0
O463 O 0.55102 0.00672 0.0133 0.0
C464 C 0.52202 0.04402 0.06271 0.0
C465 C 0.50715 0.08098 0.02144 0.0
O466 O 0.58787 0.04695 0.03349 0.0
O467 O 0.5771 0.07481 0.0102 0.0
O468 O 0.54288 0.05889 0.06265 0.0
O469 O 0.51924 0.02913 0.04272 0.0
O470 O 0.53032 0.07967 0.01755 0.0
O471 O 0.49028 0.06049 0.02161 0.0
C472 C 0.44584 1.0019 0.0098 0.0
O473 O 0.45444 0.02222 0.99912 0.0
O474 O 0.46414 0.99256 0.02055 0.0
C475 C 0.52066 0.02309 0.97074 0.0
Tb476 Tb 0.23929 0.26773 0.26314 0.0
C477 C 0.28089 0.25728 0.30321 0.0
Tb478 Tb 0.29282 0.29371 0.26002 0.0
O479 O 0.24842 0.22932 0.25366 0.0
O480 O 0.26922 0.2613 0.24254 0.0
O481 O 0.2576 0.26025 0.29908 0.0
C482 C 0.33917 0.30327 0.24858 0.0
O483 O 0.29783 0.26651 0.28861 0.0
C484 C 0.26377 0.32423 0.27842 0.0
C485 C 0.25151 0.30179 0.21892 0.0
O486 O 0.31976 0.30492 0.23369 0.0
O487 O 0.33261 0.29674 0.2705 0.0
O488 O 0.28438 0.33231 0.26945 0.0
O489 O 0.26291 0.30062 0.28039 0.0
O490 O 0.27416 0.29654 0.22285 0.0
O491 O 0.23442 0.29444 0.23412 0.0
C492 C 0.19442 0.25729 0.27792 0.0
O493 O 0.21453 0.26481 0.29245 0.0
O494 O 0.19928 0.25561 0.25427 0.0
C495 C 0.26867 0.23776 0.24417 0.0
Tb496 Tb 0.51326 0.52936 0.98523 0.0
C497 C 0.48412 0.52085 0.03241 0.0
Tb498 Tb 0.54307 0.53473 0.03782 0.0
O499 O 0.50546 0.48807 0.98812 0.0
O500 O 0.5381 0.50914 0.0052 0.0
O501 O 0.48276 0.52564 0.00817 0.0
C502 C 0.56166 0.52043 0.08193 0.0
O503 O 0.50521 0.52201 0.04694 0.0
C504 C 0.53156 0.57756 0.02263 0.0
C505 C 0.57029 0.54815 0.98987 0.0
O506 O 0.54223 0.50892 0.06814 0.0
O507 O 0.57069 0.54048 0.07111 0.0
O508 O 0.5496 0.57636 0.03979 0.0
O509 O 0.51938 0.55558 0.01784 0.0
O510 O 0.57241 0.53817 0.01228 0.0
O511 O 0.54861 0.54939 0.97758 0.0
C512 C 0.491 0.53241 0.93916 0.0
O513 O 0.50626 0.51693 0.94492 0.0
O514 O 0.48856 0.54669 0.95932 0.0
C515 C 0.52552 0.48732 1.0025 0.0
Tb516 Tb 0.79912 0.29262 0.28523 0.0
C517 C 0.75343 0.30061 0.31557 0.0
Tb518 Tb 0.74784 0.28654 0.25527 0.0
O519 O 0.80004 0.33317 0.29426 0.0
O520 O 0.77871 0.31531 0.26264 0.0
O521 O 0.77624 0.29499 0.3172 0.0
C522 C 0.71005 0.29931 0.22714 0.0
O523 O 0.73981 0.29981 0.29334 0.0
C524 C 0.76336 0.24359 0.26585 0.0
C525 C 0.79258 0.27421 0.22588 0.0
O526 O 0.7327 0.3101 0.22802 0.0
O527 O 0.70833 0.28117 0.24259 0.0
O528 O 0.74719 0.24533 0.2469 0.0
O529 O 0.76746 0.26463 0.27916 0.0
O530 O 0.77045 0.28118 0.2241 0.0
O531 O 0.80632 0.27543 0.24804 0.0
C532 C 0.84314 0.2921 0.30957 0.0
O533 O 0.83814 0.30751 0.29259 0.0
O534 O 0.82342 0.27644 0.31248 0.0
C535 C 0.78298 0.33594 0.2768 0.0
Tb536 Tb 0.98918 0.51532 0.50882 0.0
C537 C 0.03133 0.48253 0.51248 0.0
Tb538 Tb 0.04359 0.54286 0.5225 0.0
O539 O 0.99667 0.50225 0.47022 0.0
O540 O 0.01819 0.53403 0.48973 0.0
O541 O 1.00764 0.48279 0.51442 0.0
C542 C 0.09095 0.56328 0.52154 0.0
O543 O 0.04793 0.50335 0.51287 0.0
C544 C 0.01662 0.54054 0.56121 0.0
C545 C 1.00093 0.57542 0.5152 0.0
O546 O 0.08304 0.54304 0.53268 0.0
O547 O 0.07219 0.57203 0.511 0.0
O548 O 0.03718 0.55589 0.56122 0.0
O549 O 0.0146 0.52471 0.5419 0.0
O550 O 0.02466 0.57463 0.51373 0.0
O551 O 0.98419 0.55483 0.51521 0.0
C552 C 0.94256 0.49479 0.51297 0.0
O553 O 0.96067 0.49689 0.53065 0.0
O554 O 0.95061 0.50426 0.4927 0.0
C555 C 0.01662 0.51865 0.47017 0.0
Tb556 Tb 0.7723 0.79167 0.29819 0.0
C557 C 0.77661 0.83025 0.25571 0.0
Tb558 Tb 0.75908 0.77152 0.24122 0.0
O559 O 0.81178 0.7995 0.29176 0.0
O560 O 0.78803 0.77124 0.26981 0.0
O561 O 0.77209 0.82686 0.27953 0.0
C562 C 0.76048 0.74705 0.19626 0.0
O563 O 0.77599 0.81109 0.23809 0.0
C564 C 0.72001 0.78541 0.26083 0.0
C565 C 0.75268 0.73357 0.28446 0.0
O566 O 0.773 0.76937 0.20374 0.0
O567 O 0.74694 0.73909 0.21371 0.0
O568 O 0.72036 0.77728 0.23721 0.0
O569 O 0.74144 0.78602 0.27124 0.0
O570 O 0.75848 0.73675 0.26097 0.0
O571 O 0.75365 0.75294 0.30185 0.0
C572 C 0.77246 0.80893 0.34632 0.0
O573 O 0.78369 0.79048 0.33866 0.0
O574 O 0.76102 0.81733 0.32698 0.0
C575 C 0.80956 0.78318 0.27203 0.0
Tb576 Tb 0.77546 0.3101 0.77683 0.0
C577 C 0.81313 0.27134 0.77421 0.0
Tb578 Tb 0.75551 0.25135 0.76541 0.0
O579 O 0.78824 0.30521 0.81699 0.0
O580 O 0.76147 0.27885 0.79678 0.0
O581 O 0.80895 0.29478 0.77041 0.0
C582 C 0.73406 0.20523 0.77604 0.0
O583 O 0.79524 0.2517 0.77521 0.0
C584 C 0.75554 0.27824 0.72481 0.0
C585 C 0.71821 0.29111 0.76434 0.0
O586 O 0.74914 0.20916 0.75853 0.0
O587 O 0.73154 0.22698 0.78707 0.0
O588 O 0.74322 0.25541 0.7251 0.0
O589 O 0.76955 0.28262 0.74533 0.0
O590 O 0.72173 0.26749 0.76813 0.0
O591 O 0.73654 0.31036 0.76417 0.0
C592 C 0.79287 0.35934 0.77394 0.0
O593 O 0.77385 0.35081 0.78548 0.0
O594 O 0.80173 0.34023 0.76396 0.0
C595 C 0.77569 0.28258 0.81712 0.0
Tb596 Tb 0.74094 0.76861 0.77035 0.0
C597 C 0.78748 0.77421 0.81097 0.0
Tb598 Tb 0.79155 0.79174 0.7553 0.0
O599 O 0.75064 0.73007 0.76812 0.0
O600 O 0.76714 0.75704 0.74665 0.0
O601 O 0.7632 0.77147 0.80669 0.0
C602 C 0.83498 0.79153 0.73727 0.0
O603 O 0.80236 0.78116 0.79344 0.0
C604 C 0.76512 0.8257 0.77205 0.0
C605 C 0.74502 0.7949 0.71977 0.0
O606 O 0.82436 0.77453 0.75078 0.0
O607 O 0.82154 0.8094 0.73465 0.0
O608 O 0.78336 0.83123 0.75835 0.0
O609 O 0.76541 0.80328 0.77844 0.0
O610 O 0.76734 0.78856 0.72033 0.0
O611 O 0.73103 0.79026 0.7385 0.0
C612 C 0.69778 0.75918 0.78894 0.0
O613 O 0.70125 0.75434 0.76524 0.0
O614 O 0.71829 0.76936 0.80161 0.0
C615 C 0.76793 0.73476 0.75332 0.0
Tb616 Tb 0.53288 0.56676 0.51791 0.0
C617 C 0.53875 0.52182 0.47904 0.0
Tb618 Tb 0.50766 0.51192 0.52441 0.0
O619 O 0.57088 0.55758 0.52503 0.0
O620 O 0.54146 0.53503 0.53684 0.0
O621 O 0.53407 0.54546 0.48129 0.0
C622 C 0.49735 0.46612 0.5425 0.0
O623 O 0.53288 0.50566 0.49621 0.0
C624 C 0.47926 0.5406 0.49873 0.0
C625 C 0.50174 0.55701 0.56531 0.0
O626 O 0.49724 0.47039 0.51865 0.0
O627 O 0.50278 0.48766 0.55606 0.0
O628 O 0.47642 0.51578 0.49643 0.0
O629 O 0.4964 0.54712 0.5161 0.0
O630 O 0.4991 0.53204 0.55883 0.0
O631 O 0.51384 0.5745 0.55196 0.0
C632 C 0.53888 0.61034 0.49599 0.0
O633 O 0.54678 0.60792 0.5196 0.0
O634 O 0.52738 0.58867 0.48551 0.0
C635 C 0.564 0.5359 0.53429 0.0
Tb636 Tb 0.03644 0.53927 0.01033 0.0
C637 C 0.03127 0.51182 0.06296 0.0
Tb638 Tb 0.98603 0.52148 0.02725 0.0
O639 O 0.03392 0.57946 0.01967 0.0
O640 O 0.01553 0.55086 0.03919 0.0
O641 O 0.04505 0.51943 0.04465 0.0
C642 C 0.94122 0.5244 0.0411 0.0
O643 O 1.00729 0.51263 0.06134 0.0
C644 C 1.00455 0.48712 1.00045 0.0
C645 C 0.99136 0.54916 0.97477 0.0
O646 O 0.94671 0.50645 0.02586 0.0
O647 O 0.96111 0.53991 0.04905 0.0
O648 O 0.98968 0.48147 0.01773 0.0
O649 O 1.00645 0.51064 0.99787 0.0
O650 O 0.97807 0.54327 0.99404 0.0
O651 O 0.01496 0.5465 0.97553 0.0
C652 C 0.08175 0.5352 0.99886 0.0
O653 O 0.07465 0.55609 0.00732 0.0
O654 O 0.06307 0.51709 0.99593 0.0
C655 C 0.01766 0.57426 0.03567 0.0
H656 H 0.9969 0.21757 0.91909 0.0
H657 H 0.07381 0.24676 0.91587 0.0
H658 H 0.08535 0.21137 0.94024 0.0
H659 H 1.00078 0.19929 0.98032 0.0
H660 H 0.97894 0.1704 0.97424 0.0
H661 H 0.97671 0.19635 0.95454 0.0
H662 H 0.97884 0.1667 0.91425 0.0
H663 H 0.98047 0.14048 0.93386 0.0
H664 H 1.00385 0.14866 0.91286 0.0
H665 H 0.08793 0.17688 0.97087 0.0
H666 H 0.08171 0.14074 0.99808 0.0
H667 H 1.0032 0.1317 0.97749 0.0
C668 C 0.01614 0.21595 0.92283 0.0
C669 C 0.03454 0.23459 0.91553 0.0
C670 C 0.05954 0.23231 0.921 0.0
C671 C 0.06621 0.21244 0.935 0.0
C672 C 0.04758 0.19482 0.94277 0.0
C673 C 0.02305 0.19592 0.93615 0.0
C674 C 1.00657 0.17489 0.94707 0.0
C675 C 0.98977 0.18591 0.96511 0.0
C676 C 0.99155 0.1566 0.92574 0.0
C677 C 0.02559 0.16217 0.96148 0.0
C678 C 0.04914 0.17415 0.95909 0.0
C679 C 0.06961 0.16701 0.97239 0.0
C680 C 0.06592 0.14669 0.98797 0.0
C681 C 0.04203 0.13353 0.98966 0.0
C682 C 0.02167 0.14139 0.97628 0.0
H683 H 0.09377 0.76108 0.17285 0.0
H684 H 0.06207 0.81357 0.22119 0.0
H685 H 0.10062 0.82105 0.25044 0.0
H686 H 0.12525 0.73284 0.22459 0.0
H687 H 0.15107 0.72885 0.20705 0.0
H688 H 0.12111 0.72798 0.19037 0.0
H689 H 0.13888 0.76401 0.16343 0.0
H690 H 0.1688 0.76499 0.18018 0.0
H691 H 0.155 0.79355 0.17928 0.0
H692 H 0.14507 0.82559 0.272 0.0
H693 H 0.18825 0.82215 0.28691 0.0
H694 H 0.18841 0.76332 0.22651 0.0
C695 C 0.09488 0.77405 0.1897 0.0
C696 C 0.07502 0.78691 0.19472 0.0
C697 C 0.07705 0.80348 0.21708 0.0
C698 C 0.09892 0.80792 0.23367 0.0
C699 C 0.11835 0.79517 0.22792 0.0
C700 C 0.11623 0.77814 0.2067 0.0
C701 C 0.1393 0.76621 0.20498 0.0
C702 C 0.13385 0.73725 0.20687 0.0
C703 C 0.15118 0.77259 0.18051 0.0
C704 C 0.15502 0.77943 0.22831 0.0
C705 C 0.14284 0.79638 0.24116 0.0
C706 C 0.15451 0.812 0.26232 0.0
C707 C 0.17903 0.81001 0.27062 0.0
C708 C 0.19141 0.79214 0.25816 0.0
C709 C 0.17914 0.7767 0.23678 0.0
H710 H 0.52013 0.85596 0.43615 0.0
H711 H 0.54229 0.89373 0.36984 0.0
H712 H 0.53558 0.93489 0.39053 0.0
H713 H 0.47179 0.8926 0.44849 0.0
H714 H 0.47768 0.89302 0.48255 0.0
H715 H 0.48431 0.86676 0.4625 0.0
H716 H 0.52926 0.87441 0.48321 0.0
H717 H 0.52281 0.90077 0.50324 0.0
H718 H 0.54752 0.90543 0.4832 0.0
H719 H 0.52838 0.97203 0.41941 0.0
H720 H 0.51803 1.00215 0.45253 0.0
H721 H 0.49836 0.93985 0.49939 0.0
C722 C 0.52348 0.87284 0.42587 0.0
C723 C 0.53181 0.87166 0.40135 0.0
C724 C 0.53587 0.89419 0.38858 0.0
C725 C 0.53217 0.91764 0.40023 0.0
C726 C 0.52416 0.91812 0.42451 0.0
C727 C 0.51959 0.89626 0.43706 0.0
C728 C 0.51073 0.90184 0.46287 0.0
C729 C 0.48457 0.88772 0.46417 0.0
C730 C 0.52865 0.89522 0.4844 0.0
C731 C 0.51113 0.93036 0.46301 0.0
C732 C 0.51917 0.93936 0.44078 0.0
C733 C 0.52187 0.96514 0.43676 0.0
C734 C 0.516 0.98212 0.45577 0.0
C735 C 0.50726 0.97333 0.47851 0.0
C736 C 0.50481 0.94707 0.48213 0.0
H737 H 0.44726 0.26737 0.72508 0.0
H738 H 0.41788 0.27103 0.64687 0.0
H739 H 0.37657 0.27094 0.66067 0.0
H740 H 0.39326 0.22538 0.74351 0.0
H741 H 0.39542 0.24117 0.77497 0.0
H742 H 0.42274 0.2402 0.75898 0.0
H743 H 0.43288 0.28942 0.76499 0.0
H744 H 0.40558 0.29053 0.78091 0.0
H745 H 0.41038 0.30827 0.75346 0.0
H746 H 0.339 0.27454 0.68299 0.0
H747 H 0.30725 0.27863 0.71228 0.0
H748 H 0.3592 0.26989 0.77611 0.0
C749 C 0.43207 0.26776 0.71083 0.0
C750 C 0.436 0.26917 0.6848 0.0
C751 C 0.41554 0.26987 0.66687 0.0
C752 C 0.39189 0.26986 0.67453 0.0
C753 C 0.3887 0.26888 0.70025 0.0
C754 C 0.40812 0.26753 0.71816 0.0
C755 C 0.39952 0.2671 0.74468 0.0
C756 C 0.40294 0.24196 0.75621 0.0
C757 C 0.41289 0.29021 0.76203 0.0
C758 C 0.37241 0.26888 0.73887 0.0
C759 C 0.36664 0.26996 0.71309 0.0
C760 C 0.3432 0.27319 0.70316 0.0
C761 C 0.3252 0.27538 0.71995 0.0
C762 C 0.33045 0.27394 0.74641 0.0
C763 C 0.35443 0.27051 0.75591 0.0
H764 H 1.00821 0.885 0.60511 0.0
H765 H 0.03105 0.836 0.5459 0.0
H766 H 0.04066 0.87262 0.5208 0.0
H767 H 0.97748 0.92028 0.56522 0.0
H768 H 0.98631 0.95054 0.5835 0.0
H769 H 0.9852 0.92149 0.59913 0.0
H770 H 0.03069 0.93487 0.61766 0.0
H771 H 0.03169 0.96411 0.6022 0.0
H772 H 0.05385 0.94332 0.5965 0.0
H773 H 0.04169 0.9126 0.49897 0.0
H774 H 0.03554 0.95438 0.48333 0.0
H775 H 0.01285 0.97721 0.55662 0.0
C776 C 0.01591 0.8822 0.58723 0.0
C777 C 0.01894 0.85773 0.57754 0.0
C778 C 0.0286 0.85462 0.5538 0.0
C779 C 0.03425 0.87532 0.53936 0.0
C780 C 0.03035 0.89909 0.54899 0.0
C781 C 0.02168 0.90276 0.5725 0.0
C782 C 0.01697 0.92981 0.5773 0.0
C783 C 0.98989 0.93055 0.58152 0.0
C784 C 0.03435 0.94385 0.59974 0.0
C785 C 0.02324 0.94021 0.55238 0.0
C786 C 0.03125 0.92238 0.5364 0.0
C787 C 0.036 0.92702 0.5115 0.0
C788 C 0.03236 0.95061 0.50271 0.0
C789 C 0.02404 0.96891 0.51888 0.0
C790 C 0.01975 0.9637 0.54402 0.0
H791 H 0.43707 0.78487 0.92745 0.0
H792 H 0.49191 0.82521 0.8849 0.0
H793 H 0.4595 0.83173 0.85204 0.0
H794 H 0.40282 0.75073 0.87549 0.0
H795 H 0.37305 0.7517 0.8865 0.0
H796 H 0.39968 0.75391 0.9091 0.0
H797 H 0.39052 0.79661 0.92955 0.0
H798 H 0.36355 0.7943 0.9073 0.0
H799 H 0.38661 0.82232 0.90982 0.0
H800 H 0.42242 0.82951 0.82163 0.0
H801 H 0.38189 0.82056 0.79633 0.0
H802 H 0.35122 0.78051 0.85779 0.0
C803 C 0.44202 0.79587 0.91167 0.0
C804 C 0.46678 0.80482 0.90868 0.0
C805 C 0.4729 0.81838 0.88744 0.0
C806 C 0.45467 0.82219 0.86874 0.0
C807 C 0.43047 0.81222 0.87159 0.0
C808 C 0.42401 0.79955 0.8926 0.0
C809 C 0.39694 0.78874 0.8898 0.0
C810 C 0.39291 0.75954 0.89025 0.0
C811 C 0.38362 0.80125 0.91034 0.0
C812 C 0.38946 0.79671 0.86371 0.0
C813 C 0.40902 0.81045 0.85366 0.0
C814 C 0.40684 0.81905 0.82938 0.0
C815 C 0.38388 0.81375 0.81511 0.0
C816 C 0.36364 0.79987 0.82519 0.0
C817 C 0.36649 0.79118 0.8497 0.0
H818 H 0.5373 0.22789 0.06804 0.0
H819 H 0.46204 0.2249 0.08571 0.0
H820 H 0.45341 0.17893 0.07041 0.0
H821 H 0.52701 0.18819 0.0119 0.0
H822 H 0.55344 0.17263 0.01819 0.0
H823 H 0.55367 0.20461 0.03158 0.0
H824 H 0.56342 0.19075 0.07695 0.0
H825 H 0.56371 0.15882 0.06362 0.0
H826 H 0.54387 0.16436 0.08794 0.0
H827 H 0.45323 0.13362 0.05068 0.0
H828 H 0.46216 0.09238 0.0326 0.0
H829 H 0.53801 0.12648 0.02899 0.0
C830 C 0.51906 0.21743 0.06891 0.0
C831 C 0.50025 0.22964 0.07786 0.0
C832 C 0.47665 0.21559 0.079 0.0
C833 C 0.47162 0.18963 0.07023 0.0
C834 C 0.49056 0.17823 0.06091 0.0
C835 C 0.51393 0.19165 0.06073 0.0
C836 C 0.53129 0.1752 0.05028 0.0
C837 C 0.54196 0.1858 0.02658 0.0
C838 C 0.55178 0.1721 0.07093 0.0
C839 C 0.5139 0.15056 0.04363 0.0
C840 C 0.49052 0.15251 0.04999 0.0
C841 C 0.4715 0.13191 0.04573 0.0
C842 C 0.47673 0.1086 0.0353 0.0
C843 C 0.50077 0.10618 0.0292 0.0
C844 C 0.51938 0.12764 0.03316 0.0
H845 H 0.11011 0.26118 0.38959 0.0
H846 H 0.04669 0.25228 0.33362 0.0
H847 H 0.07328 0.24536 0.2994 0.0
H848 H 0.15057 0.29658 0.35464 0.0
H849 H 0.17689 0.28239 0.36524 0.0
H850 H 0.15236 0.2835 0.38518 0.0
H851 H 0.14744 0.23444 0.38715 0.0
H852 H 0.17208 0.23323 0.36724 0.0
H853 H 0.14253 0.21408 0.35802 0.0
H854 H 0.1083 0.24414 0.27086 0.0
H855 H 0.14802 0.24789 0.25162 0.0
H856 H 0.18691 0.2569 0.3272 0.0
C857 C 0.1017 0.2573 0.3702 0.0
C858 C 0.07639 0.25725 0.36423 0.0
C859 C 0.06609 0.25227 0.3386 0.0
C860 C 0.08103 0.24831 0.31905 0.0
C861 C 0.10611 0.24908 0.32555 0.0
C862 C 0.11625 0.25319 0.3506 0.0
C863 C 0.14379 0.25476 0.35271 0.0
C864 C 0.15664 0.28086 0.36516 0.0
C865 C 0.15193 0.23282 0.36713 0.0
C866 C 0.14771 0.25166 0.32492 0.0
C867 C 0.12589 0.24818 0.3094 0.0
C868 C 0.12547 0.24646 0.28288 0.0
C869 C 0.148 0.24861 0.2721 0.0
C870 C 0.17037 0.2526 0.28796 0.0
C871 C 0.17005 0.25371 0.31458 0.0
H872 H 0.94534 0.03079 0.20054 0.0
H873 H 0.90496 0.09305 0.18596 0.0
H874 H 0.92851 0.10222 0.14878 0.0
H875 H 1.00358 0.06094 0.18494 0.0
H876 H 0.01145 0.03191 0.17077 0.0
H877 H 0.99149 0.03068 0.19589 0.0
H878 H 0.95803 0.99979 0.16706 0.0
H879 H 0.97804 1.00058 0.14206 0.0
H880 H 0.94769 0.00872 0.13616 0.0
H881 H 0.95821 0.10458 0.11335 0.0
H882 H 0.98648 0.09668 0.08097 0.0
H883 H 1.00581 0.03229 0.11984 0.0
C884 C 0.94132 0.04645 0.18966 0.0
C885 C 0.92338 0.06137 0.19635 0.0
C886 C 0.91857 0.08135 0.1812 0.0
C887 C 0.93201 0.08678 0.1602 0.0
C888 C 0.95003 0.07197 0.15464 0.0
C889 C 0.95437 0.052 0.16887 0.0
C890 C 0.97406 0.03827 0.15896 0.0
C891 C 0.99647 0.0406 0.17883 0.0
C892 C 0.96383 0.01019 0.15055 0.0
C893 C 0.98008 0.05332 0.13656 0.0
C894 C 0.96642 0.07298 0.13449 0.0
C895 C 0.96896 0.08927 0.11495 0.0
C896 C 0.98526 0.0848 0.09678 0.0
C897 C 0.99848 0.064 0.09805 0.0
C898 C 0.9961 0.04845 0.1185 0.0
H899 H 0.30395 0.68358 0.41958 0.0
H900 H 0.28637 0.73515 0.47986 0.0
H901 H 0.27106 0.76186 0.44835 0.0
H902 H 0.32614 0.73381 0.38061 0.0
H903 H 0.31422 0.71665 0.35056 0.0
H904 H 0.32217 0.69949 0.37751 0.0
H905 H 0.2782 0.67372 0.37271 0.0
H906 H 0.27037 0.69085 0.34568 0.0
H907 H 0.25218 0.69046 0.37231 0.0
H908 H 0.25902 0.78463 0.41177 0.0
H909 H 0.25333 0.804 0.3712 0.0
H910 H 0.27926 0.74059 0.33203 0.0
C911 C 0.29658 0.70032 0.42605 0.0
C912 C 0.29607 0.70676 0.45255 0.0
C913 C 0.28677 0.72925 0.46 0.0
C914 C 0.27794 0.74475 0.44211 0.0
C915 C 0.27865 0.73802 0.41642 0.0
C916 C 0.28792 0.71655 0.40817 0.0
C917 C 0.28789 0.71518 0.37918 0.0
C918 C 0.31417 0.71635 0.37152 0.0
C919 C 0.27116 0.69111 0.36674 0.0
C920 C 0.27731 0.73923 0.37275 0.0
C921 C 0.27197 0.75181 0.39472 0.0
C922 C 0.26294 0.77486 0.3944 0.0
C923 C 0.2597 0.78572 0.37118 0.0
C924 C 0.26533 0.77372 0.34829 0.0
C925 C 0.27404 0.74989 0.34905 0.0
H926 H 0.5485 0.99587 0.70902 0.0
H927 H 0.62055 0.97668 0.698 0.0
H928 H 0.61164 0.97854 0.65149 0.0
H929 H 0.51566 0.96064 0.65102 0.0
H930 H 0.49643 0.98466 0.64574 0.0
H931 H 0.50782 0.97961 0.67765 0.0
H932 H 0.52678 0.02731 0.68514 0.0
H933 H 0.51559 0.03248 0.65326 0.0
H934 H 0.54783 0.04091 0.66377 0.0
H935 H 0.59583 0.98658 0.6061 0.0
H936 H 0.57448 0.99813 0.5666 0.0
H937 H 0.51249 0.01147 0.60756 0.0
C938 C 0.56237 0.99161 0.69692 0.0
C939 C 0.58531 0.98602 0.70744 0.0
C940 C 0.6028 0.98077 0.69061 0.0
C941 C 0.5979 0.98188 0.66411 0.0
C942 C 0.57532 0.98807 0.65456 0.0
C943 C 0.55776 0.99258 0.67053 0.0
C944 C 0.53532 0.99985 0.65583 0.0
C945 C 0.51246 0.98 0.65767 0.0
C946 C 0.53115 0.02673 0.66505 0.0
C947 C 0.54305 0.9992 0.62904 0.0
C948 C 0.56617 0.99232 0.62866 0.0
C949 C 0.57763 0.99167 0.60625 0.0
C950 C 0.56532 0.99835 0.58384 0.0
C951 C 0.54162 1.00556 0.58374 0.0
C952 C 0.53035 1.00567 0.60675 0.0
H953 H 0.25844 0.37306 0.97312 0.0
H954 H 0.29648 0.44705 0.95819 0.0
H955 H 0.31035 0.42766 0.91921 0.0
H956 H 0.3018 0.3346 0.95006 0.0
H957 H 0.27818 0.30933 0.93594 0.0
H958 H 0.27285 0.32871 0.96347 0.0
H959 H 0.23377 0.34024 0.93911 0.0
H960 H 0.23884 0.32072 0.91164 0.0
H961 H 0.23599 0.35373 0.9089 0.0
H962 H 0.3195 0.40002 0.88181 0.0
H963 H 0.31921 0.36765 0.84611 0.0
H964 H 0.27324 0.31241 0.88486 0.0
C965 C 0.26986 0.38514 0.96174 0.0
C966 C 0.27661 0.41146 0.9686 0.0
C967 C 0.29115 0.42682 0.95311 0.0
C968 C 0.29923 0.41595 0.93112 0.0
C969 C 0.29233 0.38982 0.92495 0.0
C970 C 0.27768 0.37471 0.93964 0.0
C971 C 0.27125 0.34758 0.92796 0.0
C972 C 0.28165 0.32896 0.9454 0.0
C973 C 0.24331 0.34015 0.92152 0.0
C974 C 0.28441 0.34976 0.90421 0.0
C975 C 0.29682 0.37415 0.90303 0.0
C976 C 0.3099 0.38087 0.88256 0.0
C977 C 0.30971 0.36234 0.86246 0.0
C978 C 0.29624 0.33762 0.86289 0.0
C979 C 0.28383 0.33115 0.88421 0.0
H980 H 0.88511 0.02286 0.33214 0.0
H981 H 0.90553 0.10264 0.32033 0.0
H982 H 0.92984 0.10965 0.36234 0.0
H983 H 0.88191 0.03279 0.40294 0.0
H984 H 0.89429 1.00402 0.40875 0.0
H985 H 0.87586 0.00606 0.37935 0.0
H986 H 0.91112 0.99414 0.35414 0.0
H987 H 0.92976 0.99241 0.38338 0.0
H988 H 0.94117 0.01314 0.36006 0.0
H989 H 0.95655 0.10664 0.40181 0.0
H990 H 0.98126 0.09458 0.43896 0.0
H991 H 0.94212 0.01734 0.42705 0.0
C992 C 0.89404 0.0419 0.33895 0.0
C993 C 0.89328 0.06239 0.32353 0.0
C994 C 0.90571 0.08693 0.33234 0.0
C995 C 0.91955 0.09104 0.35605 0.0
C996 C 0.92053 0.07038 0.37072 0.0
C997 C 0.90778 0.04637 0.36279 0.0
C998 C 0.91319 0.02722 0.38164 0.0
C999 C 0.88993 0.01692 0.3939 0.0
C1000 C 0.92449 1.00545 0.36904 0.0
C1001 C 0.93172 0.04399 0.40074 0.0
C1002 C 0.93556 0.06884 0.3941 0.0
C1003 C 0.95321 0.08743 0.40763 0.0
C1004 C 0.96712 0.08048 0.42868 0.0
C1005 C 0.96313 0.05532 0.43611 0.0
C1006 C 0.94519 0.03686 0.42199 0.0
H1007 H 0.26915 0.70437 0.58807 0.0
H1008 H 0.34557 0.69426 0.59572 0.0
H1009 H 0.34844 0.70904 0.64172 0.0
H1010 H 0.27593 0.7612 0.62483 0.0
H1011 H 0.24725 0.75464 0.63864 0.0
H1012 H 0.2505 0.73975 0.60791 0.0
H1013 H 0.23798 0.69509 0.62381 0.0
H1014 H 0.23422 0.7099 0.6545 0.0
H1015 H 0.2543 0.68633 0.65207 0.0
H1016 H 0.34296 0.72981 0.68699 0.0
H1017 H 0.32994 0.75162 0.72509 0.0
H1018 H 0.25734 0.74885 0.68581 0.0
C1019 C 0.28641 0.70457 0.59952 0.0
C1020 C 0.30711 0.69785 0.5882 0.0
C1021 C 0.32934 0.69875 0.60392 0.0
C1022 C 0.33112 0.70739 0.63006 0.0
C1023 C 0.31048 0.71489 0.64026 0.0
C1024 C 0.28844 0.71313 0.62533 0.0
C1025 C 0.26918 0.72361 0.63985 0.0
C1026 C 0.2602 0.74613 0.62704 0.0
C1027 C 0.24765 0.70247 0.64273 0.0
C1028 C 0.28381 0.73233 0.66525 0.0
C1029 C 0.30753 0.72696 0.66539 0.0
C1030 C 0.32438 0.73389 0.68688 0.0
C1031 C 0.3168 0.74644 0.7085 0.0
C1032 C 0.2926 0.75233 0.70863 0.0
C1033 C 0.27601 0.74492 0.68655 0.0
H1034 H 0.56383 0.98215 0.83455 0.0
H1035 H 0.63873 0.01038 0.86585 0.0
H1036 H 0.62378 0.0232 0.90673 0.0
H1037 H 0.53449 0.02979 0.86611 0.0
H1038 H 0.50798 0.00768 0.87199 0.0
H1039 H 0.52449 1.00147 0.84501 0.0
H1040 H 0.53016 0.95755 0.86051 0.0
H1041 H 0.51407 0.96353 0.88787 0.0
H1042 H 0.54467 0.95566 0.892 0.0
H1043 H 0.60019 0.03415 0.94436 0.0
H1044 H 0.57052 0.03903 0.97594 0.0
H1045 H 0.51118 1.00145 0.92152 0.0
C1046 C 0.57708 0.99112 0.84999 0.0
C1047 C 0.60253 0.99539 0.84684 0.0
C1048 C 0.61921 0.00687 0.8677 0.0
C1049 C 0.61085 0.01429 0.89102 0.0
C1050 C 0.58568 0.00981 0.89352 0.0
C1051 C 0.56906 0.99819 0.87363 0.0
C1052 C 0.54308 0.99461 0.88161 0.0
C1053 C 0.52654 0.00926 0.8652 0.0
C1054 C 0.53236 0.96615 0.88043 0.0
C1055 C 0.5476 0.00631 0.90893 0.0
C1056 C 0.57229 0.01517 0.91537 0.0
C1057 C 0.58084 0.02723 0.93941 0.0
C1058 C 0.56381 0.03021 0.95725 0.0
C1059 C 0.53848 0.02103 0.95129 0.0
C1060 C 0.53042 0.00877 0.92674 0.0
H1061 H 0.28992 0.38218 0.10525 0.0
H1062 H 0.21624 0.40022 0.09366 0.0
H1063 H 0.2056 0.37863 0.13248 0.0
H1064 H 0.27416 0.3215 0.12089 0.0
H1065 H 0.29999 0.32183 0.14423 0.0
H1066 H 0.3026 0.34234 0.11868 0.0
H1067 H 0.31526 0.38195 0.15095 0.0
H1068 H 0.31327 0.36141 0.17664 0.0
H1069 H 0.29602 0.38756 0.17583 0.0
H1070 H 0.20273 0.35007 0.1707 0.0
H1071 H 0.20854 0.32036 0.20426 0.0
H1072 H 0.28387 0.32108 0.18702 0.0
C1073 C 0.27172 0.38222 0.11129 0.0
C1074 C 0.25389 0.39284 0.09675 0.0
C1075 C 0.2302 0.39243 0.10494 0.0
C1076 C 0.22403 0.38009 0.12681 0.0
C1077 C 0.2419 0.36867 0.14013 0.0
C1078 C 0.2654 0.37011 0.13274 0.0
C1079 C 0.28099 0.35495 0.14857 0.0
C1080 C 0.28993 0.33392 0.1321 0.0
C1081 C 0.30266 0.37252 0.16391 0.0
C1082 C 0.26247 0.34391 0.1656 0.0
C1083 C 0.24009 0.35214 0.16095 0.0
C1084 C 0.22026 0.34368 0.17449 0.0
C1085 C 0.22364 0.32664 0.19334 0.0
C1086 C 0.24656 0.31811 0.19811 0.0
C1087 C 0.26601 0.32694 0.18388 0.0
H1088 H 0.14498 0.91932 0.03106 0.0
H1089 H 0.20769 0.97213 0.06745 0.0
H1090 H 0.18132 1.00463 0.07379 0.0
H1091 H 0.11587 0.96434 0.99769 0.0
H1092 H 0.08514 0.94998 1.00268 0.0
H1093 H 0.10929 0.93094 1.00267 0.0
H1094 H 0.09812 0.91786 0.04728 0.0
H1095 H 0.07511 0.93854 0.04723 0.0
H1096 H 0.0994 0.94226 0.07283 0.0
H1097 H 0.15022 0.03329 0.07259 0.0
H1098 H 0.11517 0.05628 0.06534 0.0
H1099 H 0.07006 0.98643 0.03163 0.0
C1100 C 0.153 0.93754 0.04086 0.0
C1101 C 0.17867 0.94292 0.04873 0.0
C1102 C 0.18829 0.96725 0.06115 0.0
C1103 C 0.17338 0.98599 0.06492 0.0
C1104 C 0.14849 0.9804 0.0565 0.0
C1105 C 0.13813 0.95672 0.04504 0.0
C1106 C 0.11081 0.95649 0.03711 0.0
C1107 C 0.10495 0.9501 0.00831 0.0
C1108 C 0.09492 0.93766 0.052 0.0
C1109 C 0.10788 0.98402 0.0449 0.0
C1110 C 0.12997 0.9972 0.05629 0.0
C1111 C 0.13273 0.02308 0.06405 0.0
C1112 C 0.11263 0.03602 0.05985 0.0
C1113 C 0.08968 0.02333 0.04816 0.0
C1114 C 0.08719 0.99672 0.04094 0.0
H1115 H 0.71126 0.6075 0.98959 0.0
H1116 H 0.6886 0.65185 0.92844 0.0
H1117 H 0.64635 0.62781 0.92617 0.0
H1118 H 0.67153 0.54685 0.96874 0.0
H1119 H 0.66513 0.54046 1.00069 0.0
H1120 H 0.69407 0.55868 0.99515 0.0
H1121 H 0.68625 0.59553 0.0263 0.0
H1122 H 0.65734 0.57746 0.03193 0.0
H1123 H 0.65836 0.60897 0.02112 0.0
H1124 H 0.60663 0.60024 0.9319 0.0
H1125 H 0.57119 0.57468 0.94748 0.0
H1126 H 0.61924 0.55057 0.00751 0.0
C1127 C 0.69754 0.6117 0.97526 0.0
C1128 C 0.70321 0.63111 0.95875 0.0
C1129 C 0.68461 0.63682 0.94098 0.0
C1130 C 0.66067 0.62321 0.93954 0.0
C1131 C 0.65567 0.60433 0.95628 0.0
C1132 C 0.67353 0.59878 0.974 0.0
C1133 C 0.66291 0.57961 0.99161 0.0
C1134 C 0.67408 0.55493 0.98887 0.0
C1135 C 0.66642 0.59109 0.01937 0.0
C1136 C 0.63614 0.57533 0.9812 0.0
C1137 C 0.63249 0.58942 0.96054 0.0
C1138 C 0.6093 0.58907 0.94798 0.0
C1139 C 0.58926 0.57436 0.95703 0.0
C1140 C 0.59234 0.56052 0.97883 0.0
C1141 C 0.61623 0.56077 0.99078 0.0
H1142 H 0.69124 0.43907 0.25384 0.0
H1143 H 0.69362 0.44834 0.33602 0.0
H1144 H 0.71914 0.41426 0.33966 0.0
H1145 H 0.68807 0.36794 0.2505 0.0
H1146 H 0.70669 0.36764 0.22428 0.0
H1147 H 0.6874 0.39179 0.22789 0.0
H1148 H 0.72555 0.42647 0.22719 0.0
H1149 H 0.74476 0.4022 0.22399 0.0
H1150 H 0.75193 0.42671 0.24983 0.0
H1151 H 0.7485 0.3849 0.33513 0.0
H1152 H 0.77588 0.35527 0.32317 0.0
H1153 H 0.75214 0.359 0.24327 0.0
C1154 C 0.69692 0.43353 0.27249 0.0
C1155 C 0.69059 0.4462 0.29476 0.0
C1156 C 0.69828 0.43871 0.31886 0.0
C1157 C 0.71278 0.41945 0.32108 0.0
C1158 C 0.71904 0.40749 0.29894 0.0
C1159 C 0.71102 0.4137 0.27504 0.0
C1160 C 0.72068 0.39744 0.25456 0.0
C1161 C 0.69942 0.38018 0.23836 0.0
C1162 C 0.73668 0.41421 0.23791 0.0
C1163 C 0.736 0.38184 0.27079 0.0
C1164 C 0.73479 0.38838 0.29631 0.0
C1165 C 0.749 0.37897 0.31526 0.0
C1166 C 0.76458 0.36208 0.30815 0.0
C1167 C 0.76549 0.35381 0.28228 0.0
C1168 C 0.75103 0.36399 0.26323 0.0
H1169 H 0.81159 0.40573 0.48353 0.0
H1170 H 0.79161 0.43935 0.55401 0.0
H1171 H 0.83183 0.46747 0.56024 0.0
H1172 H 0.87462 0.40609 0.50232 0.0
H1173 H 0.88521 0.41504 0.47247 0.0
H1174 H 0.85472 0.39786 0.4732 0.0
H1175 H 0.83638 0.43333 0.45046 0.0
H1176 H 0.86685 0.45059 0.44953 0.0
H1177 H 0.8439 0.46586 0.46386 0.0
H1178 H 0.87586 0.48833 0.56119 0.0
H1179 H 0.91866 0.50497 0.5539 0.0
H1180 H 0.90879 0.46192 0.48044 0.0
C1181 C 0.81565 0.41919 0.50014 0.0
C1182 C 0.79854 0.42031 0.51838 0.0
C1183 C 0.80439 0.43828 0.53977 0.0
C1184 C 0.82723 0.45424 0.54351 0.0
C1185 C 0.84382 0.45247 0.52536 0.0
C1186 C 0.83813 0.43582 0.5038 0.0
C1187 C 0.8591 0.43816 0.48698 0.0
C1188 C 0.86899 0.41278 0.48356 0.0
C1189 C 0.85107 0.44755 0.46118 0.0
C1190 C 0.87771 0.45825 0.50277 0.0
C1191 C 0.86859 0.46599 0.525 0.0
C1192 C 0.88299 0.48284 0.54361 0.0
C1193 C 0.90726 0.49213 0.53937 0.0
C1194 C 0.91674 0.48506 0.51647 0.0
C1195 C 0.90172 0.46806 0.49784 0.0
H1196 H 0.33982 0.11748 0.2522 0.0
H1197 H 0.4052 0.16584 0.23424 0.0
H1198 H 0.38147 0.20171 0.23011 0.0
H1199 H 0.29474 0.14216 0.21187 0.0
H1200 H 0.27251 0.14059 0.23485 0.0
H1201 H 0.29433 0.11866 0.23491 0.0
H1202 H 0.30882 0.13305 0.28223 0.0
H1203 H 0.28708 0.15507 0.28232 0.0
H1204 H 0.31919 0.16636 0.2915 0.0
H1205 H 0.34947 0.23216 0.22693 0.0
H1206 H 0.31375 0.25498 0.22875 0.0
H1207 H 0.27064 0.18771 0.25285 0.0
C1208 C 0.34908 0.13553 0.24703 0.0
C1209 C 0.37428 0.13873 0.243 0.0
C1210 C 0.38588 0.16288 0.23711 0.0
C1211 C 0.37251 0.18333 0.23473 0.0
C1212 C 0.34766 0.17952 0.23889 0.0
C1213 C 0.33619 0.15627 0.2453 0.0
C1214 C 0.3098 0.15745 0.25044 0.0
C1215 C 0.29178 0.1386 0.23191 0.0
C1216 C 0.30601 0.1527 0.27827 0.0
C1217 C 0.3079 0.18481 0.24534 0.0
C1218 C 0.32988 0.19725 0.23856 0.0
C1219 C 0.33233 0.22258 0.2325 0.0
C1220 C 0.31197 0.23549 0.23368 0.0
C1221 C 0.28952 0.22335 0.24129 0.0
C1222 C 0.28755 0.19759 0.24703 0.0
H1223 H 0.3153 0.0792 0.49745 0.0
H1224 H 0.33954 0.14846 0.54632 0.0
H1225 H 0.3751 0.12979 0.56466 0.0
H1226 H 0.33553 0.03314 0.53981 0.0
H1227 H 0.34593 0.01457 0.51443 0.0
H1228 H 0.32076 0.03188 0.50792 0.0
H1229 H 0.34387 0.05517 0.47351 0.0
H1230 H 0.36889 0.03772 0.47972 0.0
H1231 H 0.37457 0.07205 0.48187 0.0
H1232 H 0.40838 0.1036 0.57668 0.0
H1233 H 0.44043 0.07598 0.57625 0.0
H1234 H 0.39639 0.02592 0.51602 0.0
C1235 C 0.32787 0.09019 0.5124 0.0
C1236 C 0.32459 0.11498 0.52097 0.0
C1237 C 0.34176 0.12931 0.5398 0.0
C1238 C 0.36183 0.11878 0.55037 0.0
C1239 C 0.36458 0.09417 0.54147 0.0
C1240 C 0.3483 0.0803 0.52252 0.0
C1241 C 0.35693 0.05573 0.51391 0.0
C1242 C 0.3387 0.03245 0.51935 0.0
C1243 C 0.36133 0.05516 0.48558 0.0
C1244 C 0.38078 0.05796 0.53081 0.0
C1245 C 0.38454 0.07993 0.54705 0.0
C1246 C 0.40558 0.08637 0.56405 0.0
C1247 C 0.42365 0.07051 0.56372 0.0
C1248 C 0.42088 0.0489 0.54604 0.0
C1249 C 0.39886 0.04219 0.5299 0.0
H1250 H 0.66109 0.6136 0.31983 0.0
H1251 H 0.71282 0.56659 0.293 0.0
H1252 H 0.7419 0.60525 0.28786 0.0
H1253 H 0.67158 0.66124 0.27767 0.0
H1254 H 0.66926 0.68748 0.30016 0.0
H1255 H 0.6532 0.65618 0.30389 0.0
H1256 H 0.67471 0.65782 0.34956 0.0
H1257 H 0.69084 0.68919 0.34596 0.0
H1258 H 0.70777 0.66412 0.35463 0.0
H1259 H 0.76319 0.64847 0.2806 0.0
H1260 H 0.77646 0.69382 0.27424 0.0
H1261 H 0.71269 0.71365 0.30814 0.0
C1262 C 0.67869 0.61139 0.31327 0.0
C1263 C 0.68458 0.5869 0.30685 0.0
C1264 C 0.70781 0.585 0.29818 0.0
C1265 C 0.7245 0.6069 0.29518 0.0
C1266 C 0.71795 0.63066 0.30124 0.0
C1267 C 0.69574 0.6331 0.3104 0.0
C1268 C 0.69291 0.66098 0.31457 0.0
C1269 C 0.6704 0.6668 0.29808 0.0
C1270 C 0.69148 0.66846 0.34286 0.0
C1271 C 0.71669 0.67377 0.30564 0.0
C1272 C 0.73084 0.65586 0.29804 0.0
C1273 C 0.75257 0.6627 0.28702 0.0
C1274 C 0.75995 0.68847 0.28345 0.0
C1275 C 0.74587 0.70716 0.29121 0.0
C1276 C 0.72415 0.69976 0.30279 0.0
H1277 H 0.90082 0.47372 0.76191 0.0
H1278 H 0.84848 0.52581 0.77145 0.0
H1279 H 0.81571 0.48927 0.77413 0.0
H1280 H 0.85841 0.42511 0.722 0.0
H1281 H 0.87121 0.39917 0.73545 0.0
H1282 H 0.89033 0.42948 0.7342 0.0
H1283 H 0.902 0.43142 0.78286 0.0
H1284 H 0.88282 0.4012 0.78427 0.0
H1285 H 0.87803 0.42861 0.80393 0.0
H1286 H 0.78931 0.44676 0.77898 0.0
H1287 H 0.77068 0.40163 0.78106 0.0
H1288 H 0.8396 0.37766 0.76503 0.0
C1289 C 0.88244 0.47743 0.76445 0.0
C1290 C 0.87721 0.50261 0.76657 0.0
C1291 C 0.85287 0.50666 0.76965 0.0
C1292 C 0.83417 0.48604 0.77131 0.0
C1293 C 0.83999 0.46145 0.7694 0.0
C1294 C 0.86346 0.45706 0.76561 0.0
C1295 C 0.86486 0.42883 0.76364 0.0
C1296 C 0.87159 0.42014 0.73725 0.0
C1297 C 0.883 0.42213 0.78494 0.0
C1298 C 0.83863 0.418 0.76732 0.0
C1299 C 0.82458 0.43709 0.77087 0.0
C1300 C 0.80007 0.43166 0.77588 0.0
C1301 C 0.78965 0.40605 0.77712 0.0
C1302 C 0.80366 0.38629 0.77296 0.0
C1303 C 0.82839 0.39242 0.76793 0.0
H1304 H 1.00558 0.86162 0.1566 0.0
H1305 H 0.99978 0.80447 0.09305 0.0
H1306 H 1.00009 0.83784 0.06318 0.0
H1307 H 0.96775 0.90251 0.12677 0.0
H1308 H 0.98654 0.93186 0.13986 0.0
H1309 H 0.986 0.9036 0.15687 0.0
H1310 H 0.03332 0.90762 0.15791 0.0
H1311 H 0.03399 0.93601 0.14107 0.0
H1312 H 0.04744 0.9096 0.12855 0.0
H1313 H 0.9984 0.87637 0.03979 0.0
H1314 H 0.99939 0.91921 0.02426 0.0
H1315 H 1.00918 0.95264 0.10213 0.0
C1316 C 1.00453 0.85623 0.13642 0.0
C1317 C 1.00257 0.83039 0.12721 0.0
C1318 C 1.00134 0.82409 0.10064 0.0
C1319 C 1.00141 0.84291 0.08344 0.0
C1320 C 1.00306 0.8681 0.093 0.0
C1321 C 1.005 0.87496 0.11883 0.0
C1322 C 1.00717 0.90367 0.1238 0.0
C1323 C 0.98558 0.91082 0.13764 0.0
C1324 C 0.03196 0.91488 0.13871 0.0
C1325 C 1.00581 0.91166 0.09675 0.0
C1326 C 1.00319 0.89073 0.07934 0.0
C1327 C 1.00068 0.89297 0.0532 0.0
C1328 C 1.00115 0.91733 0.04456 0.0
C1329 C 1.00444 0.93911 0.06199 0.0
C1330 C 1.00679 0.93623 0.08842 0.0
H1331 H 0.93122 0.27625 0.87157 0.0
H1332 H 0.97607 0.29505 0.81024 0.0
H1333 H 0.93854 0.28739 0.77972 0.0
H1334 H 0.8869 0.22562 0.83513 0.0
H1335 H 0.86146 0.23419 0.85104 0.0
H1336 H 0.89194 0.23957 0.86748 0.0
H1337 H 0.88854 0.28717 0.87683 0.0
H1338 H 0.85815 0.28193 0.86037 0.0
H1339 H 0.88139 0.30592 0.85083 0.0
H1340 H 0.89507 0.28264 0.75693 0.0
H1341 H 0.85044 0.27905 0.74384 0.0
H1342 H 0.83456 0.26021 0.8195 0.0
C1343 C 0.93329 0.27854 0.85167 0.0
C1344 C 0.95675 0.28639 0.84336 0.0
C1345 C 0.95844 0.28898 0.8171 0.0
C1346 C 0.93717 0.28468 0.79964 0.0
C1347 C 0.91434 0.27732 0.80861 0.0
C1348 C 0.91237 0.27397 0.83403 0.0
C1349 C 0.88574 0.26667 0.83912 0.0
C1350 C 0.88126 0.23992 0.84876 0.0
C1351 C 0.87801 0.28661 0.85789 0.0
C1352 C 0.87285 0.26697 0.81269 0.0
C1353 C 0.88962 0.27322 0.79532 0.0
C1354 C 0.88188 0.27705 0.77023 0.0
C1355 C 0.85652 0.27486 0.7629 0.0
C1356 C 0.83912 0.26836 0.78037 0.0
C1357 C 0.84746 0.26402 0.80546 0.0
H1358 H 0.54701 0.20451 0.62589 0.0
H1359 H 0.46844 0.20105 0.62668 0.0
H1360 H 0.4619 0.15849 0.60281 0.0
H1361 H 0.54656 0.18117 0.5652 0.0
H1362 H 0.57118 0.16278 0.56998 0.0
H1363 H 0.57004 0.19008 0.59141 0.0
H1364 H 0.57067 0.16248 0.62988 0.0
H1365 H 0.57254 0.13511 0.60867 0.0
H1366 H 0.54842 0.134 0.6295 0.0
H1367 H 0.46423 0.12081 0.57144 0.0
H1368 H 0.47526 0.08808 0.54093 0.0
H1369 H 0.55237 0.11572 0.56211 0.0
C1370 C 0.52848 0.19423 0.62204 0.0
C1371 C 0.50821 0.20577 0.6284 0.0
C1372 C 0.48418 0.1922 0.6225 0.0
C1373 C 0.48035 0.16817 0.60872 0.0
C1374 C 0.50078 0.15796 0.60144 0.0
C1375 C 0.52442 0.17032 0.60852 0.0
C1376 C 0.54325 0.15653 0.59677 0.0
C1377 C 0.55865 0.17367 0.57984 0.0
C1378 C 0.55969 0.14642 0.61744 0.0
C1379 C 0.52654 0.13498 0.58108 0.0
C1380 C 0.50211 0.13599 0.58407 0.0
C1381 C 0.4833 0.11922 0.56982 0.0
C1382 C 0.48969 0.10056 0.55271 0.0
C1383 C 0.51458 0.09876 0.55011 0.0
C1384 C 0.53318 0.11643 0.56419 0.0
H1385 H 0.62374 0.8028 0.36563 0.0
H1386 H 0.5695 0.79883 0.30041 0.0
H1387 H 0.60173 0.79712 0.27172 0.0
H1388 H 0.67474 0.84082 0.33842 0.0
H1389 H 0.69791 0.82347 0.35133 0.0
H1390 H 0.67108 0.82594 0.36774 0.0
H1391 H 0.66142 0.77678 0.36674 0.0
H1392 H 0.6883 0.77423 0.35045 0.0
H1393 H 0.65866 0.75801 0.33674 0.0
H1394 H 0.63826 0.79557 0.24962 0.0
H1395 H 0.67783 0.79042 0.23429 0.0
H1396 H 0.71078 0.79307 0.31214 0.0
C1397 C 0.61879 0.80174 0.34531 0.0
C1398 C 0.59394 0.80105 0.33532 0.0
C1399 C 0.58822 0.7993 0.30861 0.0
C1400 C 0.60647 0.79847 0.29208 0.0
C1401 C 0.6306 0.79911 0.30234 0.0
C1402 C 0.63697 0.80041 0.32825 0.0
C1403 C 0.66439 0.79929 0.33367 0.0
C1404 C 0.67782 0.82384 0.34868 0.0
C1405 C 0.66842 0.77567 0.34773 0.0
C1406 C 0.67217 0.79711 0.30673 0.0
C1407 C 0.65221 0.79738 0.28917 0.0
C1408 C 0.65405 0.79533 0.26315 0.0
C1409 C 0.67671 0.79242 0.25463 0.0
C1410 C 0.69751 0.79139 0.27191 0.0
C1411 C 0.6953 0.79408 0.29845 0.0
H1412 H 0.99794 0.20335 0.47291 0.0
H1413 H 0.06833 0.21158 0.44185 0.0
H1414 H 0.07604 0.17079 0.45839 0.0
H1415 H 0.01511 0.1771 0.52914 0.0
H1416 H 0.9872 0.15476 0.52902 0.0
H1417 H 0.98674 0.18385 0.51363 0.0
H1418 H 0.9673 0.15768 0.47294 0.0
H1419 H 0.96909 0.12754 0.48609 0.0
H1420 H 0.98341 0.13509 0.45762 0.0
H1421 H 0.0796 0.13563 0.4865 0.0
H1422 H 0.07449 0.09941 0.5135 0.0
H1423 H 0.99911 0.10976 0.52052 0.0
C1424 C 0.01466 0.19613 0.46912 0.0
C1425 C 0.0326 0.21028 0.45621 0.0
C1426 C 0.05436 0.20065 0.45153 0.0
C1427 C 0.05893 0.1777 0.46098 0.0
C1428 C 0.04119 0.16449 0.47434 0.0
C1429 C 0.01916 0.17288 0.4777 0.0
C1430 C 1.00317 0.15491 0.49261 0.0
C1431 C 0.99775 0.16847 0.51758 0.0
C1432 C 0.97932 0.14305 0.47637 0.0
C1433 C 0.01997 0.13544 0.49766 0.0
C1434 C 0.04206 0.14179 0.48753 0.0
C1435 C 0.06199 0.12931 0.49317 0.0
C1436 C 0.05903 0.10913 0.5088 0.0
C1437 C 0.03621 0.10155 0.51823 0.0
C1438 C 0.01642 0.11477 0.51261 0.0
H1439 H 0.57488 0.2879 0.15669 0.0
H1440 H 0.60618 0.33903 0.10331 0.0
H1441 H 0.6469 0.34244 0.12763 0.0
H1442 H 0.6111 0.31839 0.21332 0.0
H1443 H 0.61446 0.28886 0.22704 0.0
H1444 H 0.58763 0.29092 0.20587 0.0
H1445 H 0.59643 0.25276 0.17704 0.0
H1446 H 0.62323 0.25052 0.19815 0.0
H1447 H 0.62597 0.25412 0.16487 0.0
H1448 H 0.6838 0.34057 0.15764 0.0
H1449 H 0.71549 0.3315 0.18992 0.0
H1450 H 0.66058 0.28055 0.22331 0.0
C1451 C 0.59026 0.29993 0.15015 0.0
C1452 C 0.58736 0.31331 0.12815 0.0
C1453 C 0.60801 0.32857 0.12006 0.0
C1454 C 0.63115 0.33071 0.1338 0.0
C1455 C 0.63332 0.31733 0.15544 0.0
C1456 C 0.61351 0.30207 0.16347 0.0
C1457 C 0.62098 0.28902 0.18686 0.0
C1458 C 0.60775 0.2973 0.20962 0.0
C1459 C 0.61638 0.25988 0.18139 0.0
C1460 C 0.64816 0.29933 0.19075 0.0
C1461 C 0.65479 0.31579 0.1725 0.0
C1462 C 0.67885 0.32772 0.172 0.0
C1463 C 0.69668 0.32246 0.19044 0.0
C1464 C 0.6904 0.30538 0.20908 0.0
C1465 C 0.66581 0.29374 0.2093 0.0
H1466 H 0.56191 0.86673 0.93518 0.0
H1467 H 0.53681 0.82144 0.9958 0.0
H1468 H 0.53479 0.86071 0.02232 0.0
H1469 H 0.59929 0.91977 0.97717 0.0
H1470 H 0.59097 0.94355 0.95675 0.0
H1471 H 0.5928 0.91195 0.94337 0.0
H1472 H 0.54816 0.90808 0.92255 0.0
H1473 H 0.54603 0.93944 0.93611 0.0
H1474 H 0.52393 0.91264 0.9422 0.0
H1475 H 0.52971 0.90391 0.03963 0.0
H1476 H 0.52449 0.94902 0.04767 0.0
H1477 H 0.55582 0.96685 0.97764 0.0
C1478 C 0.55642 0.86512 0.95421 0.0
C1479 C 0.54949 0.84106 0.96344 0.0
C1480 C 0.54224 0.83968 0.98835 0.0
C1481 C 0.54109 0.86187 1.0036 0.0
C1482 C 0.54763 0.88529 0.9938 0.0
C1483 C 0.55545 0.88712 0.96981 0.0
C1484 C 0.56019 0.91462 0.96337 0.0
C1485 C 0.58744 0.92296 0.95998 0.0
C1486 C 0.54358 0.91893 0.93966 0.0
C1487 C 0.55307 0.92783 0.98716 0.0
C1488 C 0.54588 0.91054 1.00448 0.0
C1489 C 0.53594 0.91777 0.02661 0.0
C1490 C 0.53301 0.94331 0.03102 0.0
C1491 C 0.5404 0.96122 0.01359 0.0
C1492 C 0.55093 0.95353 0.99166 0.0
H1493 H 0.92795 0.81528 0.63065 0.0
H1494 H 0.95737 0.7487 0.65469 0.0
H1495 H 0.92595 0.74174 0.68478 0.0
H1496 H 0.91782 0.83852 0.69098 0.0
H1497 H 0.8895 0.84999 0.682 0.0
H1498 H 0.91161 0.84795 0.65927 0.0
H1499 H 0.87877 0.81941 0.62773 0.0
H1500 H 0.85638 0.82185 0.65014 0.0
H1501 H 0.86188 0.79096 0.63814 0.0
H1502 H 0.89504 0.74439 0.71514 0.0
H1503 H 0.86292 0.75418 0.74196 0.0
H1504 H 0.85357 0.81989 0.69983 0.0
C1505 C 0.92703 0.79872 0.64157 0.0
C1506 C 0.94465 0.7822 0.64017 0.0
C1507 C 0.94371 0.76129 0.65538 0.0
C1508 C 0.92604 0.75725 0.67256 0.0
C1509 C 0.90954 0.77443 0.67438 0.0
C1510 C 0.90957 0.79458 0.65914 0.0
C1511 C 0.89081 0.81115 0.66639 0.0
C1512 C 0.90319 0.83852 0.67518 0.0
C1513 C 0.87077 0.81081 0.64428 0.0
C1514 C 0.8807 0.79742 0.68834 0.0
C1515 C 0.89176 0.77625 0.69248 0.0
C1516 C 0.88602 0.76075 0.71196 0.0
C1517 C 0.86794 0.76659 0.72722 0.0
C1518 C 0.85597 0.78786 0.72302 0.0
C1519 C 0.86263 0.80364 0.70353 0.0
H1520 H 0.11707 0.04105 0.86442 0.0
H1521 H 0.15573 0.98029 0.88843 0.0
H1522 H 0.13005 0.97464 0.92429 0.0
H1523 H 0.11216 0.06796 0.92909 0.0
H1524 H 0.08244 0.07671 0.92063 0.0
H1525 H 0.10403 0.07583 0.89717 0.0
H1526 H 0.0714 0.04478 0.86763 0.0
H1527 H 0.04989 0.04515 0.89121 0.0
H1528 H 0.05777 0.01532 0.87909 0.0
H1529 H 0.0972 0.97278 0.95452 0.0
H1530 H 0.06601 0.98087 0.98326 0.0
H1531 H 0.05135 0.04569 0.94222 0.0
C1532 C 0.12033 0.02682 0.87749 0.0
C1533 C 0.13831 0.01105 0.87375 0.0
C1534 C 0.14219 0.99269 0.89118 0.0
C1535 C 0.12753 0.98919 0.9114 0.0
C1536 C 0.10948 1.0046 0.91416 0.0
C1537 C 0.10633 0.02357 0.89815 0.0
C1538 C 0.08633 0.03824 0.90594 0.0
C1539 C 0.09688 0.06635 0.91367 0.0
C1540 C 0.0651 0.03571 0.8847 0.0
C1541 C 0.07848 0.02434 0.92866 0.0
C1542 C 0.09173 1.00468 0.93273 0.0
C1543 C 0.08709 0.98846 0.95188 0.0
C1544 C 0.06918 0.99308 0.968 0.0
C1545 C 0.05641 0.01406 0.96525 0.0
C1546 C 0.06088 0.02958 0.94495 0.0
H1547 H 0.72273 0.3135 0.58207 0.0
H1548 H 0.74048 0.39343 0.60852 0.0
H1549 H 0.74812 0.38141 0.65273 0.0
H1550 H 0.69134 0.29331 0.63778 0.0
H1551 H 0.70251 0.26319 0.63715 0.0
H1552 H 0.69727 0.27815 0.60803 0.0
H1553 H 0.74203 0.27654 0.59854 0.0
H1554 H 0.74763 0.26156 0.62753 0.0
H1555 H 0.76692 0.29061 0.62182 0.0
H1556 H 0.75863 0.35955 0.69394 0.0
H1557 H 0.76541 0.3308 0.72795 0.0
H1558 H 0.73791 0.26543 0.67484 0.0
C1559 C 0.72776 0.32855 0.59721 0.0
C1560 C 0.73091 0.35451 0.59169 0.0
C1561 C 0.7376 0.37348 0.61217 0.0
C1562 C 0.74218 0.36677 0.63737 0.0
C1563 C 0.73954 0.34095 0.642 0.0
C1564 C 0.73189 0.32218 0.62246 0.0
C1565 C 0.73039 0.29581 0.63221 0.0
C1566 C 0.7038 0.28179 0.62858 0.0
C1567 C 0.74778 0.28022 0.61925 0.0
C1568 C 0.73903 0.3025 0.6602 0.0
C1569 C 0.74441 0.32862 0.66553 0.0
C1570 C 0.7541 0.33912 0.68988 0.0
C1571 C 0.75813 0.32262 0.70913 0.0
C1572 C 0.75226 0.29583 0.70422 0.0
C1573 C 0.74244 0.28582 0.67935 0.0
H1574 H 0.46369 0.06962 0.32274 0.0
H1575 H 0.39638 0.09568 0.34178 0.0
H1576 H 0.40849 0.09282 0.3872 0.0
H1577 H 0.4646 0.02408 0.37036 0.0
H1578 H 0.49747 0.02994 0.37771 0.0
H1579 H 0.48415 0.03479 0.34647 0.0
H1580 H 0.50703 0.08119 0.35089 0.0
H1581 H 0.52036 0.0765 0.3822 0.0
H1582 H 0.50307 0.10227 0.37775 0.0
H1583 H 0.42698 0.08659 0.43055 0.0
H1584 H 0.4502 0.07599 0.46916 0.0
H1585 H 0.50603 0.05339 0.42361 0.0
C1586 C 0.4516 0.07485 0.3365 0.0
C1587 C 0.42904 0.08299 0.32852 0.0
C1588 C 0.4137 0.08941 0.34722 0.0
C1589 C 0.42045 0.08791 0.37318 0.0
C1590 C 0.44267 0.07985 0.38044 0.0
C1591 C 0.45804 0.07331 0.36273 0.0
C1592 C 0.48057 0.06452 0.37591 0.0
C1593 C 0.48176 0.03668 0.36708 0.0
C1594 C 0.50416 0.08218 0.37142 0.0
C1595 C 0.47536 0.06711 0.40367 0.0
C1596 C 0.4534 0.07609 0.40573 0.0
C1597 C 0.44425 0.07962 0.42918 0.0
C1598 C 0.45765 0.07352 0.45109 0.0
C1599 C 0.4801 0.06394 0.44967 0.0
C1600 C 0.48913 0.06097 0.42552 0.0
H1601 H 0.78875 0.72046 0.05362 0.0
H1602 H 0.76014 0.64085 0.05968 0.0
H1603 H 0.75607 0.65034 0.10531 0.0
H1604 H 0.82317 0.73144 0.11793 0.0
H1605 H 0.81632 0.76339 0.12216 0.0
H1606 H 0.81935 0.7497 0.09077 0.0
H1607 H 0.77603 0.75906 0.07546 0.0
H1608 H 0.77272 0.77246 0.10679 0.0
H1609 H 0.75013 0.74666 0.09181 0.0
H1610 H 0.74986 0.66949 0.14805 0.0
H1611 H 0.74584 0.69624 0.18683 0.0
H1612 H 0.78056 0.76302 0.15359 0.0
C1613 C 0.78201 0.70494 0.06466 0.0
C1614 C 0.77463 0.67996 0.05323 0.0
C1615 C 0.766 0.6601 0.0682 0.0
C1616 C 0.76359 0.66532 0.09406 0.0
C1617 C 0.77038 0.69034 0.10458 0.0
C1618 C 0.77987 0.70973 0.09049 0.0
C1619 C 0.78495 0.73514 0.10608 0.0
C1620 C 0.81259 0.74552 0.10943 0.0
C1621 C 0.77006 0.75445 0.09433 0.0
C1622 C 0.77588 0.72719 0.13087 0.0
C1623 C 0.76761 0.70125 0.1296 0.0
C1624 C 0.75672 0.68971 0.14947 0.0
C1625 C 0.75436 0.70506 0.17129 0.0
C1626 C 0.763 0.73157 0.17304 0.0
C1627 C 0.77407 0.74273 0.15271 0.0
H1628 H 0.09818 0.04381 0.74255 0.0
H1629 H 0.14837 0.98966 0.7311 0.0
H1630 H 0.13247 0.98269 0.68555 0.0
H1631 H 0.04737 0.01082 0.70062 0.0
H1632 H 0.03841 0.03968 0.68952 0.0
H1633 H 0.05355 0.03993 0.72109 0.0
H1634 H 0.08721 0.07633 0.71125 0.0
H1635 H 0.07211 0.07631 0.67972 0.0
H1636 H 0.10391 0.07216 0.68393 0.0
H1637 H 0.11042 0.98172 0.64103 0.0
H1638 H 0.08623 0.98887 0.60122 0.0
H1639 H 0.05146 0.04408 0.64286 0.0
C1640 C 0.10587 0.03039 0.73059 0.0
C1641 C 0.12448 0.0172 0.74045 0.0
C1642 C 0.13414 1.00003 0.72396 0.0
C1643 C 0.12514 0.99587 0.69811 0.0
C1644 C 0.10661 0.0091 0.68914 0.0
C1645 C 0.09724 0.02613 0.70491 0.0
C1646 C 0.07788 0.03852 0.69071 0.0
C1647 C 0.05282 0.03182 0.70111 0.0
C1648 C 0.08576 0.06754 0.69145 0.0
C1649 C 0.07782 0.02593 0.66433 0.0
C1650 C 0.09433 0.00884 0.66376 0.0
C1651 C 0.09748 0.99507 0.6413 0.0
C1652 C 0.08366 0.9992 0.61884 0.0
C1653 C 0.0671 0.01704 0.6191 0.0
C1654 C 0.06401 0.03032 0.64217 0.0
H1655 H 0.75024 0.34754 0.4641 0.0
H1656 H 0.69152 0.3882 0.43855 0.0
H1657 H 0.69261 0.37029 0.39446 0.0
H1658 H 0.78407 0.35929 0.40885 0.0
H1659 H 0.79489 0.32898 0.40786 0.0
H1660 H 0.78855 0.34364 0.43769 0.0
H1661 H 0.7588 0.30289 0.44467 0.0
H1662 H 0.7649 0.28821 0.41474 0.0
H1663 H 0.73379 0.29083 0.42076 0.0
H1664 H 0.69857 0.3465 0.35351 0.0
H1665 H 0.7129 0.32409 0.31712 0.0
H1666 H 0.77141 0.30209 0.36703 0.0
C1667 C 0.73754 0.35252 0.4492 0.0
C1668 C 0.72049 0.36905 0.45487 0.0
C1669 C 0.7046 0.37554 0.43473 0.0
C1670 C 0.70504 0.36535 0.40962 0.0
C1671 C 0.72192 0.34909 0.40464 0.0
C1672 C 0.73829 0.34312 0.42372 0.0
C1673 C 0.75574 0.32665 0.41266 0.0
C1674 C 0.7824 0.34047 0.41703 0.0
C1675 C 0.75315 0.3006 0.42388 0.0
C1676 C 0.74636 0.32398 0.38449 0.0
C1677 C 0.72656 0.33677 0.38051 0.0
C1678 C 0.71417 0.3366 0.35642 0.0
C1679 C 0.72245 0.32355 0.33578 0.0
C1680 C 0.74343 0.31118 0.33887 0.0
C1681 C 0.75538 0.3113 0.3638 0.0
H1682 H 0.48702 0.07696 0.20346 0.0
H1683 H 0.41019 0.05658 0.17539 0.0
H1684 H 0.42204 0.04744 0.13197 0.0
H1685 H 0.50572 0.10846 0.14669 0.0
H1686 H 0.5352 0.09782 0.1491 0.0
H1687 H 0.52026 0.10338 0.17736 0.0
H1688 H 0.5234 0.05736 0.18885 0.0
H1689 H 0.53801 0.05154 0.16045 0.0
H1690 H 0.51048 0.03092 0.16627 0.0
H1691 H 0.44348 0.03606 0.09188 0.0
H1692 H 0.47155 0.03023 0.05864 0.0
H1693 H 0.53383 0.06175 0.11248 0.0
C1694 C 0.47264 0.07098 0.18809 0.0
C1695 C 0.44761 0.06753 0.1929 0.0
C1696 C 0.42943 0.05966 0.1722 0.0
C1697 C 0.43605 0.05421 0.14749 0.0
C1698 C 0.46096 0.05723 0.14355 0.0
C1699 C 0.47891 0.06609 0.16326 0.0
C1700 C 0.50435 0.06826 0.15415 0.0
C1701 C 0.51713 0.09614 0.15699 0.0
C1702 C 0.51997 0.05099 0.16827 0.0
C1703 C 0.49808 0.05873 0.12635 0.0
C1704 C 0.47298 0.05213 0.12056 0.0
C1705 C 0.4631 0.04157 0.09626 0.0
C1706 C 0.47919 0.03811 0.07748 0.0
C1707 C 0.50488 0.04558 0.08285 0.0
C1708 C 0.51427 0.05601 0.10768 0.0
H1709 H 0.76439 0.69656 0.92977 0.0
H1710 H 0.82818 0.66179 0.91506 0.0
H1711 H 0.83812 0.69259 0.88273 0.0
H1712 H 0.74693 0.70557 0.8646 0.0
H1713 H 0.73561 0.73486 0.87239 0.0
H1714 H 0.73515 0.71093 0.89483 0.0
H1715 H 0.76001 0.7447 0.92865 0.0
H1716 H 0.76123 0.76848 0.9059 0.0
H1717 H 0.78924 0.76147 0.92198 0.0
H1718 H 0.84141 0.72866 0.85305 0.0
H1719 H 0.83221 0.75851 0.82103 0.0
H1720 H 0.76465 0.76712 0.8541 0.0
C1721 C 0.78037 0.69538 0.91962 0.0
C1722 C 0.7956 0.677 0.92474 0.0
C1723 C 0.81622 0.6757 0.91105 0.0
C1724 C 0.82216 0.69331 0.89302 0.0
C1725 C 0.80708 0.71177 0.88889 0.0
C1726 C 0.78621 0.71236 0.90132 0.0
C1727 C 0.77172 0.73242 0.89199 0.0
C1728 C 0.74584 0.72022 0.88024 0.0
C1729 C 0.77049 0.75298 0.91341 0.0
C1730 C 0.78752 0.74294 0.87208 0.0
C1731 C 0.80822 0.73137 0.87104 0.0
C1732 C 0.82519 0.73772 0.85364 0.0
C1733 C 0.81996 0.75497 0.83569 0.0
C1734 C 0.79748 0.76477 0.83477 0.0
C1735 C 0.78189 0.75979 0.85416 0.0
H1736 H 0.9007 0.15295 0.02386 0.0
H1737 H 0.83831 0.09597 0.99459 0.0
H1738 H 0.86573 0.06422 0.98915 0.0
H1739 H 0.9457 0.13074 0.9842 0.0
H1740 H 0.97055 0.13589 0.00928 0.0
H1741 H 0.94647 0.15522 0.00958 0.0
H1742 H 0.93799 0.14214 0.0548 0.0
H1743 H 0.96244 0.12335 0.05424 0.0
H1744 H 0.93214 0.10877 0.06017 0.0
H1745 H 0.89913 0.03834 0.98553 0.0
H1746 H 0.93637 0.01815 0.98892 0.0
H1747 H 0.97851 0.08914 0.02387 0.0
C1748 C 0.89291 0.13382 0.01622 0.0
C1749 C 0.86714 0.12714 0.00955 0.0
C1750 C 0.8578 0.10172 0.99997 0.0
C1751 C 0.8733 0.08346 0.99664 0.0
C1752 C 0.8984 0.09046 1.00335 0.0
C1753 C 0.90827 0.11485 0.01336 0.0
C1754 C 0.93591 0.11641 0.0204 0.0
C1755 C 0.95051 0.13571 1.00494 0.0
C1756 C 0.94249 0.12305 0.04912 0.0
C1757 C 0.93982 0.08921 0.01268 0.0
C1758 C 0.91785 0.07483 1.00252 0.0
C1759 C 0.91642 0.04937 0.99361 0.0
C1760 C 0.93779 0.03804 0.99555 0.0
C1761 C 0.96051 0.05185 0.00668 0.0
C1762 C 0.9615 0.07798 0.01516 0.0
H1763 H 0.3643 0.42417 0.04069 0.0
H1764 H 0.32637 0.48936 0.05046 0.0
H1765 H 0.36624 0.51786 0.05666 0.0
H1766 H 0.41808 0.44902 0.08675 0.0
H1767 H 0.43933 0.43635 0.06756 0.0
H1768 H 0.40829 0.41997 0.06666 0.0
H1769 H 0.40186 0.42139 0.01826 0.0
H1770 H 0.43259 0.43777 0.01752 0.0
H1771 H 0.40699 0.45154 1.0044 0.0
H1772 H 0.4095 0.53958 0.05512 0.0
H1773 H 0.45268 0.55242 0.04636 0.0
H1774 H 0.46254 0.47327 0.03951 0.0
C1775 C 0.36432 0.44438 0.04464 0.0
C1776 C 0.34215 0.45447 0.04509 0.0
C1777 C 0.34309 0.4811 0.05013 0.0
C1778 C 0.36567 0.49747 0.05377 0.0
C1779 C 0.38716 0.4869 0.0527 0.0
C1780 C 0.38665 0.46094 0.04849 0.0
C1781 C 0.41209 0.45451 0.04612 0.0
C1782 C 0.4199 0.43903 0.06807 0.0
C1783 C 0.41345 0.44047 0.02004 0.0
C1784 C 0.42694 0.48096 0.0485 0.0
C1785 C 0.41227 0.49943 0.05263 0.0
C1786 C 0.42132 0.52533 0.05267 0.0
C1787 C 0.4458 0.53247 0.04777 0.0
C1788 C 0.46085 0.51379 0.04318 0.0
C1789 C 0.45151 0.48782 0.04405 0.0
H1790 H 0.31549 0.61753 0.72739 0.0
H1791 H 0.37676 0.63947 0.78543 0.0
H1792 H 0.35905 0.67738 0.79922 0.0
H1793 H 0.3109 0.68399 0.71213 0.0
H1794 H 0.27794 0.67763 0.70611 0.0
H1795 H 0.29582 0.65266 0.69989 0.0
H1796 H 0.27084 0.62402 0.72921 0.0
H1797 H 0.25283 0.64877 0.73563 0.0
H1798 H 0.26887 0.63575 0.76157 0.0
H1799 H 0.33223 0.71031 0.80988 0.0
H1800 H 0.30099 0.73892 0.81258 0.0
H1801 H 0.25927 0.69809 0.74541 0.0
C1802 C 0.32533 0.63055 0.74273 0.0
C1803 C 0.34749 0.62553 0.75537 0.0
C1804 C 0.35986 0.64302 0.77534 0.0
C1805 C 0.34988 0.66456 0.78341 0.0
C1806 C 0.32777 0.66871 0.77094 0.0
C1807 C 0.31594 0.65256 0.7506 0.0
C1808 C 0.29255 0.66164 0.74031 0.0
C1809 C 0.29441 0.66944 0.713 0.0
C1810 C 0.26994 0.64133 0.74178 0.0
C1811 C 0.29257 0.68468 0.75873 0.0
C1812 C 0.31304 0.68848 0.77625 0.0
C1813 C 0.31645 0.7079 0.79585 0.0
C1814 C 0.29875 0.7242 0.79719 0.0
C1815 C 0.27814 0.72123 0.7789 0.0
C1816 C 0.27495 0.70098 0.75963 0.0
H1817 H 0.20463 0.66796 0.49674 0.0
H1818 H 0.25214 0.61296 0.5171 0.0
H1819 H 0.21585 0.58171 0.52279 0.0
H1820 H 0.16098 0.65229 0.54063 0.0
H1821 H 0.13462 0.65591 0.51943 0.0
H1822 H 0.16421 0.67385 0.51584 0.0
H1823 H 0.16112 0.65559 0.46892 0.0
H1824 H 0.13141 0.63774 0.47231 0.0
H1825 H 0.15546 0.62156 0.46157 0.0
H1826 H 0.1746 0.5573 0.52944 0.0
H1827 H 0.131 0.54036 0.53294 0.0
H1828 H 0.1098 0.61003 0.50643 0.0
C1829 C 0.20742 0.64926 0.50212 0.0
C1830 C 0.23141 0.64305 0.50646 0.0
C1831 C 0.23409 0.61829 0.51352 0.0
C1832 C 0.21354 0.60036 0.51691 0.0
C1833 C 0.19027 0.60724 0.51291 0.0
C1834 C 0.18705 0.63096 0.50533 0.0
C1835 C 0.15998 0.63348 0.50236 0.0
C1836 C 0.15464 0.65517 0.52066 0.0
C1837 C 0.1515 0.63731 0.47464 0.0
C1838 C 0.14856 0.60764 0.50985 0.0
C1839 C 0.1664 0.59285 0.51599 0.0
C1840 C 0.16047 0.56862 0.52442 0.0
C1841 C 0.13567 0.55918 0.52645 0.0
C1842 C 0.11706 0.57381 0.51986 0.0
C1843 C 0.12365 0.59834 0.51141 0.0
H1844 H 0.68794 0.94163 0.75222 0.0
H1845 H 0.63581 0.90403 0.79953 0.0
H1846 H 0.66037 0.8692 0.80346 0.0
H1847 H 0.69871 0.88127 0.71871 0.0
H1848 H 0.73064 0.89265 0.71633 0.0
H1849 H 0.70896 0.91475 0.71648 0.0
H1850 H 0.7349 0.94148 0.75478 0.0
H1851 H 0.75678 0.91963 0.75468 0.0
H1852 H 0.74256 0.92626 0.78321 0.0
H1853 H 0.69246 0.84018 0.80559 0.0
H1854 H 0.72735 0.81669 0.8017 0.0
H1855 H 0.75745 0.87009 0.75003 0.0
C1856 C 0.68158 0.92591 0.76318 0.0
C1857 C 0.65985 0.92571 0.77564 0.0
C1858 C 0.6522 0.90468 0.78969 0.0
C1859 C 0.66614 0.88479 0.79214 0.0
C1860 C 0.68758 0.88572 0.77999 0.0
C1861 C 0.69503 0.90543 0.76531 0.0
C1862 C 0.71855 0.90128 0.75374 0.0
C1863 C 0.71393 0.89727 0.72459 0.0
C1864 C 0.73943 0.92349 0.76211 0.0
C1865 C 0.72366 0.87683 0.76513 0.0
C1866 C 0.70549 0.8682 0.78018 0.0
C1867 C 0.70652 0.84654 0.79346 0.0
C1868 C 0.72639 0.83317 0.79106 0.0
C1869 C 0.74496 0.84113 0.77528 0.0
C1870 C 0.74354 0.86341 0.76223 0.0
H1871 H 0.67847 0.94045 0.51879 0.0
H1872 H 0.73258 0.00782 0.5411 0.0
H1873 H 0.70187 0.03508 0.52865 0.0
H1874 H 0.6483 0.96459 0.46427 0.0
H1875 H 0.61802 0.94977 0.47001 0.0
H1876 H 0.64442 0.9354 0.47994 0.0
H1877 H 0.6324 0.93618 0.52621 0.0
H1878 H 0.60577 0.95008 0.51624 0.0
H1879 H 0.62746 0.96582 0.54187 0.0
H1880 H 0.66499 0.05506 0.5145 0.0
H1881 H 0.62361 0.06606 0.50374 0.0
H1882 H 0.59391 0.98569 0.49051 0.0
C1883 C 0.68386 0.96094 0.5211 0.0
C1884 C 0.70792 0.97202 0.53089 0.0
C1885 C 0.71422 0.99891 0.5337 0.0
C1886 C 0.69696 0.01456 0.52651 0.0
C1887 C 0.67349 1.00302 0.51655 0.0
C1888 C 0.66685 0.97683 0.51409 0.0
C1889 C 0.64014 0.96924 0.50394 0.0
C1890 C 0.63758 0.95384 0.478 0.0
C1891 C 0.62559 0.95447 0.52322 0.0
C1892 C 0.63273 0.99526 0.50133 0.0
C1893 C 0.65228 0.01451 0.50844 0.0
C1894 C 0.64958 0.04015 0.50871 0.0
C1895 C 0.62608 0.04624 0.50243 0.0
C1896 C 0.6057 0.02673 0.49611 0.0
C1897 C 0.60926 1.001 0.49489 0.0
H1898 H 0.35811 0.45471 0.71927 0.0
H1899 H 0.31204 0.50098 0.75744 0.0
H1900 H 0.28213 0.46221 0.7614 0.0
H1901 H 0.30668 0.4081 0.68445 0.0
H1902 H 0.32368 0.38198 0.688 0.0
H1903 H 0.33971 0.41366 0.68557 0.0
H1904 H 0.36592 0.41091 0.72802 0.0
H1905 H 0.34991 0.37938 0.73067 0.0
H1906 H 0.35077 0.40383 0.75608 0.0
H1907 H 0.26141 0.41755 0.76792 0.0
H1908 H 0.24929 0.37142 0.77221 0.0
H1909 H 0.30682 0.35458 0.72646 0.0
C1910 C 0.3414 0.45678 0.72787 0.0
C1911 C 0.33735 0.48089 0.738 0.0
C1912 C 0.31536 0.48277 0.74927 0.0
C1913 C 0.29834 0.46082 0.75169 0.0
C1914 C 0.30329 0.43722 0.74218 0.0
C1915 C 0.32404 0.43517 0.72997 0.0
C1916 C 0.32576 0.40756 0.72246 0.0
C1917 C 0.32384 0.40253 0.69339 0.0
C1918 C 0.34949 0.39999 0.73507 0.0
C1919 C 0.30325 0.39423 0.73322 0.0
C1920 C 0.29052 0.41165 0.74459 0.0
C1921 C 0.27076 0.4038 0.75838 0.0
C1922 C 0.26401 0.3776 0.76075 0.0
C1923 C 0.27665 0.35952 0.749 0.0
C1924 C 0.29624 0.36798 0.73474 0.0
H1925 H 0.16852 0.56353 0.26289 0.0
H1926 H 0.14176 0.57849 0.33604 0.0
H1927 H 0.16955 0.61968 0.34238 0.0
H1928 H 0.23278 0.59564 0.27933 0.0
H1929 H 0.23473 0.60893 0.249 0.0
H1930 H 0.21512 0.57909 0.25131 0.0
H1931 H 0.178 0.59748 0.23081 0.0
H1932 H 0.19748 0.62731 0.22842 0.0
H1933 H 0.17025 0.62662 0.24485 0.0
H1934 H 0.19792 0.65971 0.34019 0.0
H1935 H 0.22293 0.69842 0.32831 0.0
H1936 H 0.23078 0.66005 0.2553 0.0
C1937 C 0.16898 0.57532 0.28043 0.0
C1938 C 0.15327 0.56774 0.2992 0.0
C1939 C 0.15376 0.58392 0.32156 0.0
C1940 C 0.16955 0.60728 0.32536 0.0
C1941 C 0.18459 0.61442 0.30645 0.0
C1942 C 0.18435 0.59912 0.28429 0.0
C1943 C 0.20072 0.61265 0.26607 0.0
C1944 C 0.22211 0.59821 0.26114 0.0
C1945 C 0.18571 0.61623 0.24106 0.0
C1946 C 0.20983 0.63805 0.28132 0.0
C1947 C 0.20053 0.63831 0.30472 0.0
C1948 C 0.2054 0.65969 0.32199 0.0
C1949 C 0.21965 0.68164 0.31501 0.0
C1950 C 0.22888 0.68228 0.29091 0.0
C1951 C 0.22425 0.66001 0.27398 0.0
H1952 H 0.53579 0.75242 0.46045 0.0
H1953 H 0.54973 0.72762 0.38403 0.0
H1954 H 0.55595 0.68572 0.39879 0.0
H1955 H 0.58004 0.71825 0.49472 0.0
H1956 H 0.56016 0.71082 0.51929 0.0
H1957 H 0.55914 0.73957 0.50331 0.0
H1958 H 0.5124 0.72604 0.49111 0.0
H1959 H 0.51327 0.69729 0.50697 0.0
H1960 H 0.50136 0.69551 0.47401 0.0
H1961 H 0.55549 0.64532 0.42038 0.0
H1962 H 0.55034 0.60952 0.44773 0.0
H1963 H 0.53864 0.66093 0.5108 0.0
C1964 C 0.54047 0.73837 0.44681 0.0
C1965 C 0.5422 0.74335 0.42099 0.0
C1966 C 0.54837 0.72433 0.40388 0.0
C1967 C 0.55196 0.70048 0.41209 0.0
C1968 C 0.54962 0.69612 0.43754 0.0
C1969 C 0.54426 0.71461 0.4547 0.0
C1970 C 0.54151 0.70471 0.48069 0.0
C1971 C 0.56141 0.7192 0.50068 0.0
C1972 C 0.5156 0.70596 0.48864 0.0
C1973 C 0.5455 0.67743 0.47532 0.0
C1974 C 0.5502 0.67295 0.45029 0.0
C1975 C 0.55235 0.64873 0.44011 0.0
C1976 C 0.54932 0.62854 0.45576 0.0
C1977 C 0.5445 0.63269 0.48138 0.0
C1978 C 0.54299 0.65749 0.49146 0.0
H1979 H 0.60491 0.31714 0.67212 0.0
H1980 H 0.55702 0.27859 0.72297 0.0
H1981 H 0.5931 0.27742 0.75369 0.0
H1982 H 0.65279 0.2823 0.68153 0.0
H1983 H 0.67722 0.30858 0.6805 0.0
H1984 H 0.64757 0.3091 0.66382 0.0
H1985 H 0.64515 0.35233 0.68811 0.0
H1986 H 0.67494 0.35197 0.70471 0.0
H1987 H 0.64905 0.35525 0.72239 0.0
H1988 H 0.63494 0.27472 0.77581 0.0
H1989 H 0.67876 0.27352 0.78892 0.0
H1990 H 0.69952 0.31593 0.72509 0.0
C1991 C 0.60184 0.30893 0.68996 0.0
C1992 C 0.57793 0.29799 0.69507 0.0
C1993 C 0.57498 0.2873 0.71861 0.0
C1994 C 0.59543 0.28648 0.73618 0.0
C1995 C 0.61876 0.29677 0.73016 0.0
C1996 C 0.62202 0.30815 0.70776 0.0
C1997 C 0.64911 0.31666 0.70522 0.0
C1998 C 0.65712 0.30335 0.68136 0.0
C1999 C 0.6549 0.34579 0.70511 0.0
C2000 C 0.66067 0.3076 0.72933 0.0
C2001 C 0.64283 0.29619 0.74347 0.0
C2002 C 0.64901 0.28419 0.76523 0.0
C2003 C 0.67394 0.28359 0.77255 0.0
C2004 C 0.69249 0.29523 0.75843 0.0
C2005 C 0.68574 0.30772 0.73676 0.0
H2006 H 0.01302 0.34944 0.93456 0.0
H2007 H 0.03926 0.38743 0.86992 0.0
H2008 H 0.03622 0.42913 0.89194 0.0
H2009 H 0.96917 0.39144 0.94889 0.0
H2010 H 0.9749 0.39024 0.9828 0.0
H2011 H 0.97878 0.36355 0.96166 0.0
H2012 H 0.02345 0.36596 0.98208 0.0
H2013 H 0.01979 0.39281 1.00311 0.0
H2014 H 0.04449 0.3954 0.98294 0.0
H2015 H 0.03207 0.4668 0.92196 0.0
H2016 H 0.02389 0.49741 0.95598 0.0
H2017 H 0.99933 0.43488 1.00079 0.0
C2018 C 0.01794 0.36651 0.92491 0.0
C2019 C 0.0264 0.36518 0.90047 0.0
C2020 C 0.03265 0.38797 0.88856 0.0
C2021 C 0.03108 0.41174 0.90098 0.0
C2022 C 0.02307 0.41239 0.92525 0.0
C2023 C 0.01633 0.39035 0.93697 0.0
C2024 C 1.00817 0.39625 0.96303 0.0
C2025 C 0.98115 0.38468 0.96415 0.0
C2026 C 0.02498 0.38706 0.98403 0.0
C2027 C 0.01146 0.42509 0.96425 0.0
C2028 C 0.02024 0.43402 0.94232 0.0
C2029 C 0.02507 0.45999 0.93913 0.0
C2030 C 0.02046 0.47725 0.95863 0.0
C2031 C 0.01095 0.46853 0.98104 0.0
C2032 C 1.00657 0.44209 0.98388 0.0
H2033 H 0.94667 0.79165 0.22861 0.0
H2034 H 0.91527 0.73864 0.16442 0.0
H2035 H 0.8744 0.73613 0.18049 0.0
H2036 H 0.90841 0.76534 0.27616 0.0
H2037 H 0.90514 0.79604 0.29072 0.0
H2038 H 0.93228 0.79222 0.27535 0.0
H2039 H 0.92454 0.82846 0.2468 0.0
H2040 H 0.89732 0.83231 0.26201 0.0
H2041 H 0.89543 0.82627 0.22796 0.0
H2042 H 0.83703 0.73856 0.20403 0.0
H2043 H 0.80519 0.74841 0.23124 0.0
H2044 H 0.85912 0.80365 0.27791 0.0
C2045 C 0.93123 0.77918 0.21824 0.0
C2046 C 0.93423 0.76488 0.1955 0.0
C2047 C 0.91344 0.74948 0.18199 0.0
C2048 C 0.89016 0.74795 0.191 0.0
C2049 C 0.88772 0.76242 0.21331 0.0
C2050 C 0.90761 0.77801 0.22662 0.0
C2051 C 0.89952 0.79286 0.24912 0.0
C2052 C 0.91209 0.78621 0.27433 0.0
C2053 C 0.90451 0.82168 0.2463 0.0
C2054 C 0.87208 0.78297 0.24653 0.0
C2055 C 0.86578 0.76521 0.22588 0.0
C2056 C 0.84174 0.75273 0.22 0.0
C2057 C 0.82368 0.75861 0.23547 0.0
C2058 C 0.8294 0.77729 0.2563 0.0
C2059 C 0.85404 0.78955 0.2619 0.0
H2060 H 0.48876 0.35646 0.06336 0.0
H2061 H 0.55041 0.37989 0.12049 0.0
H2062 H 0.56314 0.41825 0.09758 0.0
H2063 H 0.51726 0.37845 0.00864 0.0
H2064 H 0.49025 0.3896 0.99487 0.0
H2065 H 0.48719 0.36331 0.01471 0.0
H2066 H 0.46167 0.3873 0.04436 0.0
H2067 H 0.4643 0.41316 0.02408 0.0
H2068 H 0.47424 0.41913 0.05759 0.0
H2069 H 0.57029 0.45225 0.06604 0.0
H2070 H 0.56596 0.48463 0.03515 0.0
H2071 H 0.49619 0.4414 1.00294 0.0
C2072 C 0.50495 0.36971 0.07099 0.0
C2073 C 0.51876 0.36542 0.09346 0.0
C2074 C 0.53961 0.38314 0.10328 0.0
C2075 C 0.54709 0.4047 0.09025 0.0
C2076 C 0.53321 0.40821 0.06779 0.0
C2077 C 0.51223 0.3915 0.05866 0.0
C2078 C 0.49919 0.40065 0.03555 0.0
C2079 C 0.49844 0.38188 0.01206 0.0
C2080 C 0.47328 0.40534 0.04072 0.0
C2081 C 0.51595 0.4253 0.03312 0.0
C2082 C 0.53593 0.42892 0.05134 0.0
C2083 C 0.55443 0.44987 0.0521 0.0
C2084 C 0.55179 0.46815 0.03456 0.0
C2085 C 0.53026 0.46595 0.01751 0.0
C2086 C 0.51257 0.44382 0.01621 0.0
H2087 H 0.95382 0.25674 0.40006 0.0
H2088 H 0.97228 0.33709 0.42441 0.0
H2089 H 0.9365 0.34588 0.39676 0.0
H2090 H 0.93417 0.2618 0.33665 0.0
H2091 H 0.9086 0.23617 0.33415 0.0
H2092 H 0.93474 0.23587 0.35683 0.0
H2093 H 0.90658 0.23229 0.39342 0.0
H2094 H 0.88026 0.23209 0.37077 0.0
H2095 H 0.88621 0.25531 0.39779 0.0
H2096 H 0.90289 0.34629 0.36209 0.0
H2097 H 0.86784 0.33781 0.32881 0.0
H2098 H 0.86786 0.25654 0.33076 0.0
C2099 C 0.94991 0.27607 0.39991 0.0
C2100 C 0.96557 0.29638 0.41417 0.0
C2101 C 0.96019 0.32144 0.41367 0.0
C2102 C 0.94009 0.32655 0.39795 0.0
C2103 C 0.92531 0.30619 0.38352 0.0
C2104 C 0.92947 0.28135 0.38497 0.0
C2105 C 0.91056 0.26294 0.36775 0.0
C2106 C 0.92276 0.24835 0.34766 0.0
C2107 C 0.89497 0.24458 0.38337 0.0
C2108 C 0.89559 0.28141 0.35577 0.0
C2109 C 0.90469 0.30629 0.36487 0.0
C2110 C 0.89524 0.3269 0.35523 0.0
C2111 C 0.87555 0.32191 0.33621 0.0
C2112 C 0.8653 0.29657 0.32752 0.0
C2113 C 0.87537 0.27606 0.33739 0.0
H2114 H 0.03031 0.72389 0.5437 0.0
H2115 H 0.96882 0.71883 0.58964 0.0
H2116 H 0.95707 0.67316 0.57454 0.0
H2117 H 1.0009 0.68093 0.49012 0.0
H2118 H 0.02845 0.6676 0.48565 0.0
H2119 H 0.03059 0.70012 0.49849 0.0
H2120 H 0.0579 0.69075 0.5381 0.0
H2121 H 0.05611 0.65837 0.52522 0.0
H2122 H 0.04697 0.66485 0.55652 0.0
H2123 H 0.95336 0.6277 0.55531 0.0
H2124 H 0.96069 0.58559 0.5381 0.0
H2125 H 0.02522 0.62163 0.50575 0.0
C2126 C 0.01415 0.71335 0.5504 0.0
C2127 C 1.00029 0.7249 0.56763 0.0
C2128 C 0.97965 0.71027 0.57639 0.0
C2129 C 0.97275 0.68446 0.56775 0.0
C2130 C 0.98676 0.67378 0.5505 0.0
C2131 C 1.00719 0.68779 0.54219 0.0
C2132 C 0.02046 0.67167 0.52533 0.0
C2133 C 0.02006 0.68062 0.4983 0.0
C2134 C 0.04691 0.67139 0.537 0.0
C2135 C 1.00459 0.64615 0.52575 0.0
C2136 C 0.98497 0.64775 0.53995 0.0
C2137 C 0.96851 0.62627 0.54397 0.0
C2138 C 0.97275 0.60247 0.53397 0.0
C2139 C 0.9935 0.60045 0.52052 0.0
C2140 C 1.00913 0.62265 0.5158 0.0
H2141 H 0.61437 0.77131 0.90142 0.0
H2142 H 0.55114 0.74907 0.84571 0.0
H2143 H 0.5784 0.73983 0.81313 0.0
H2144 H 0.65122 0.8042 0.86122 0.0
H2145 H 0.67959 0.79482 0.87375 0.0
H2146 H 0.65507 0.79607 0.8937 0.0
H2147 H 0.6556 0.74887 0.90282 0.0
H2148 H 0.68026 0.74753 0.88293 0.0
H2149 H 0.6524 0.72484 0.87663 0.0
H2150 H 0.61256 0.73744 0.78545 0.0
H2151 H 0.65154 0.74215 0.76512 0.0
H2152 H 0.69196 0.76629 0.83877 0.0
C2153 C 0.60628 0.76388 0.88254 0.0
C2154 C 0.58072 0.76084 0.87608 0.0
C2155 C 0.57075 0.75156 0.85105 0.0
C2156 C 0.58604 0.74614 0.83242 0.0
C2157 C 0.61125 0.74999 0.83917 0.0
C2158 C 0.62131 0.75851 0.86366 0.0
C2159 C 0.64903 0.7632 0.86539 0.0
C2160 C 0.65931 0.79123 0.87401 0.0
C2161 C 0.65996 0.74502 0.88298 0.0
C2162 C 0.65288 0.75679 0.83795 0.0
C2163 C 0.63092 0.74885 0.82314 0.0
C2164 C 0.62992 0.74327 0.7969 0.0
C2165 C 0.65204 0.74603 0.7855 0.0
C2166 C 0.67455 0.75452 0.80044 0.0
C2167 C 0.67493 0.75964 0.82694 0.0
H2168 H 0.40287 0.52826 0.66252 0.0
H2169 H 0.41485 0.60808 0.68889 0.0
H2170 H 0.44063 0.61781 0.65355 0.0
H2171 H 0.46112 0.52529 0.65317 0.0
H2172 H 0.45534 0.50281 0.62555 0.0
H2173 H 0.43284 0.50309 0.64796 0.0
H2174 H 0.39961 0.50978 0.61243 0.0
H2175 H 0.42179 0.50855 0.58961 0.0
H2176 H 0.40576 0.53553 0.59229 0.0
H2177 H 0.47083 0.61686 0.61834 0.0
H2178 H 0.49928 0.60561 0.58705 0.0
H2179 H 0.46858 0.52582 0.58839 0.0
C2180 C 0.40978 0.54797 0.65994 0.0
C2181 C 0.40634 0.56753 0.67783 0.0
C2182 C 0.41659 0.59299 0.67475 0.0
C2183 C 0.4315 0.59858 0.65492 0.0
C2184 C 0.43589 0.57844 0.63849 0.0
C2185 C 0.42487 0.55367 0.64069 0.0
C2186 C 0.43463 0.53481 0.62331 0.0
C2187 C 0.44669 0.51538 0.63841 0.0
C2188 C 0.41423 0.52139 0.60321 0.0
C2189 C 0.45346 0.55258 0.61149 0.0
C2190 C 0.45384 0.57774 0.61991 0.0
C2191 C 0.47047 0.59717 0.61158 0.0
C2192 C 0.48675 0.59062 0.594 0.0
C2193 C 0.48655 0.5648 0.5854 0.0
C2194 C 0.46965 0.54578 0.59456 0.0
H2195 H 0.81153 0.23506 0.95552 0.0
H2196 H 0.79827 0.15796 0.91977 0.0
H2197 H 0.78783 0.17452 0.87834 0.0
H2198 H 0.76323 0.25904 0.91896 0.0
H2199 H 0.78088 0.28994 0.91646 0.0
H2200 H 0.7874 0.27219 0.9434 0.0
H2201 H 0.83272 0.27536 0.93363 0.0
H2202 H 0.82638 0.29303 0.90658 0.0
H2203 H 0.83958 0.26425 0.90257 0.0
H2204 H 0.77874 0.19944 0.84045 0.0
H2205 H 0.77236 0.23062 0.8093 0.0
H2206 H 0.791 0.29211 0.86853 0.0
C2207 C 0.80641 0.22165 0.93898 0.0
C2208 C 0.80566 0.19507 0.94108 0.0
C2209 C 0.79901 0.17831 0.91882 0.0
C2210 C 0.79303 0.18758 0.89513 0.0
C2211 C 0.79392 0.21379 0.89372 0.0
C2212 C 0.80059 0.23064 0.91502 0.0
C2213 C 0.8004 0.25798 0.90809 0.0
C2214 C 0.78187 0.27052 0.92259 0.0
C2215 C 0.82631 0.27358 0.91301 0.0
C2216 C 0.79214 0.25383 0.87972 0.0
C2217 C 0.78858 0.22816 0.87188 0.0
C2218 C 0.78113 0.21952 0.84657 0.0
C2219 C 0.77701 0.23743 0.82892 0.0
C2220 C 0.78 0.26381 0.83635 0.0
C2221 C 0.78812 0.27205 0.86217 0.0
H2222 H 0.05203 0.49723 0.21227 0.0
H2223 H 0.12476 0.4799 0.20139 0.0
H2224 H 0.11541 0.48052 0.15478 0.0
H2225 H 0.01966 0.46001 0.15522 0.0
H2226 H 0.99959 0.48318 0.14943 0.0
H2227 H 0.01146 0.47922 0.18147 0.0
H2228 H 0.02914 0.52732 0.18772 0.0
H2229 H 0.01745 0.53141 0.15571 0.0
H2230 H 0.04965 0.54096 0.16588 0.0
H2231 H 0.09898 0.48723 0.10921 0.0
H2232 H 0.07681 0.49725 0.06946 0.0
H2233 H 0.01456 0.50935 0.11052 0.0
C2234 C 0.06598 0.49316 0.20018 0.0
C2235 C 0.08923 0.48846 0.21073 0.0
C2236 C 0.10679 0.48333 0.19395 0.0
C2237 C 0.10164 0.48375 0.1674 0.0
C2238 C 0.07873 0.48907 0.1578 0.0
C2239 C 0.06111 0.4934 0.17376 0.0
C2240 C 0.03825 0.49962 0.15898 0.0
C2241 C 0.01592 0.47929 0.16142 0.0
C2242 C 0.03335 0.52642 0.16759 0.0
C2243 C 0.0458 0.4986 0.13215 0.0
C2244 C 0.06921 0.49246 0.13181 0.0
C2245 C 0.08055 0.49172 0.10932 0.0
C2246 C 0.06778 0.49751 0.08678 0.0
C2247 C 0.04377 0.5039 0.08667 0.0
C2248 C 0.03266 0.50413 0.10975 0.0
H2249 H 0.75439 0.91285 0.45502 0.0
H2250 H 0.78679 0.8667 0.50917 0.0
H2251 H 0.7937 0.83672 0.47402 0.0
H2252 H 0.72151 0.86071 0.4152 0.0
H2253 H 0.7255 0.87551 0.3859 0.0
H2254 H 0.72534 0.89492 0.415 0.0
H2255 H 0.768 0.91992 0.40857 0.0
H2256 H 0.76817 0.90077 0.37927 0.0
H2257 H 0.79318 0.90276 0.4039 0.0
H2258 H 0.79578 0.81098 0.43326 0.0
H2259 H 0.79228 0.79094 0.38927 0.0
H2260 H 0.75629 0.85244 0.36213 0.0
C2261 C 0.76342 0.89673 0.45934 0.0
C2262 C 0.77033 0.89214 0.48466 0.0
C2263 C 0.78147 0.87053 0.48982 0.0
C2264 C 0.78549 0.85342 0.47 0.0
C2265 C 0.77797 0.8581 0.44523 0.0
C2266 C 0.76711 0.87917 0.4398 0.0
C2267 C 0.75925 0.87881 0.41167 0.0
C2268 C 0.73124 0.8774 0.40667 0.0
C2269 C 0.77298 0.90194 0.40018 0.0
C2270 C 0.76737 0.85429 0.40222 0.0
C2271 C 0.77829 0.84272 0.42183 0.0
C2272 C 0.78728 0.81985 0.41771 0.0
C2273 C 0.78518 0.80859 0.39278 0.0
C2274 C 0.77396 0.82016 0.37254 0.0
C2275 C 0.76485 0.84318 0.37737 0.0
H2276 H 0.39186 0.56957 0.83447 0.0
H2277 H 0.4146 0.51262 0.78325 0.0
H2278 H 0.44175 0.50049 0.8181 0.0
H2279 H 0.45014 0.59081 0.86605 0.0
H2280 H 0.4404 0.59598 0.8973 0.0
H2281 H 0.41978 0.59811 0.86954 0.0
H2282 H 0.38706 0.56408 0.88501 0.0
H2283 H 0.40744 0.56217 0.91307 0.0
H2284 H 0.39523 0.53378 0.8928 0.0
H2285 H 0.4692 0.49726 0.85632 0.0
H2286 H 0.49435 0.50134 0.89755 0.0
H2287 H 0.45536 0.56102 0.92488 0.0
C2288 C 0.40198 0.554 0.83095 0.0
C2289 C 0.401 0.54177 0.80633 0.0
C2290 C 0.41504 0.52209 0.80202 0.0
C2291 C 0.43051 0.51506 0.8217 0.0
C2292 C 0.43184 0.52805 0.84554 0.0
C2293 C 0.41789 0.54697 0.85043 0.0
C2294 C 0.42437 0.55909 0.8774 0.0
C2295 C 0.43426 0.58769 0.87756 0.0
C2296 C 0.4022 0.55449 0.89299 0.0
C2297 C 0.4444 0.54431 0.88657 0.0
C2298 C 0.44824 0.52643 0.86785 0.0
C2299 C 0.46623 0.51097 0.87128 0.0
C2300 C 0.48051 0.51353 0.89468 0.0
C2301 C 0.47673 0.53145 0.91428 0.0
C2302 C 0.45855 0.54714 0.91015 0.0
H2303 H 0.78365 0.23368 0.07713 0.0
H2304 H 0.8429 0.18983 0.09076 0.0
H2305 H 0.84582 0.20372 0.13693 0.0
H2306 H 0.80669 0.28673 0.1215 0.0
H2307 H 0.77679 0.29066 0.13064 0.0
H2308 H 0.77981 0.27718 0.09922 0.0
H2309 H 0.74898 0.23719 0.10628 0.0
H2310 H 0.74576 0.25062 0.13766 0.0
H2311 H 0.75468 0.21953 0.13352 0.0
H2312 H 0.84207 0.22439 0.1827 0.0
H2313 H 0.83052 0.24612 0.2217 0.0
H2314 H 0.77329 0.27516 0.17632 0.0
C2315 C 0.79746 0.22697 0.08962 0.0
C2316 C 0.81329 0.2108 0.07998 0.0
C2317 C 0.83062 0.20226 0.09746 0.0
C2318 C 0.83241 0.21015 0.12375 0.0
C2319 C 0.81659 0.22639 0.1324 0.0
C2320 C 0.7993 0.23441 0.11567 0.0
C2321 C 0.7839 0.25124 0.12925 0.0
C2322 C 0.787 0.27804 0.11958 0.0
C2323 C 0.75672 0.2389 0.12651 0.0
C2324 C 0.79525 0.25184 0.15639 0.0
C2325 C 0.81415 0.23752 0.15802 0.0
C2326 C 0.82726 0.23557 0.18143 0.0
C2327 C 0.82067 0.24817 0.20354 0.0
C2328 C 0.80107 0.26263 0.20227 0.0
C2329 C 0.7884 0.26441 0.17818 0.0
H2330 H 0.06516 0.48404 0.33516 0.0
H2331 H 0.13907 0.51115 0.37011 0.0
H2332 H 0.12238 0.52243 0.41049 0.0
H2333 H 0.03447 0.53059 0.3674 0.0
H2334 H 1.00762 0.50797 0.37115 0.0
H2335 H 0.02532 0.50332 0.34475 0.0
H2336 H 0.03006 0.45856 0.35814 0.0
H2337 H 0.01314 0.46287 0.38523 0.0
H2338 H 0.04374 0.45497 0.38955 0.0
H2339 H 0.09718 0.53198 0.44707 0.0
H2340 H 0.06619 0.53517 0.47749 0.0
H2341 H 1.00888 0.49883 0.42023 0.0
C2342 C 0.07782 0.49249 0.35128 0.0
C2343 C 0.10348 0.49688 0.34936 0.0
C2344 C 0.1194 0.5076 0.37106 0.0
C2345 C 0.11005 0.51416 0.39408 0.0
C2346 C 0.08468 0.50955 0.39536 0.0
C2347 C 0.0688 0.49868 0.37459 0.0
C2348 C 0.04242 0.49453 0.38136 0.0
C2349 C 0.02652 0.51003 0.3652 0.0
C2350 C 0.03169 0.46604 0.37841 0.0
C2351 C 0.04588 0.50484 0.40913 0.0
C2352 C 0.07037 0.51378 0.41671 0.0
C2353 C 0.07799 0.52495 0.44126 0.0
C2354 C 0.06022 0.52694 0.45845 0.0
C2355 C 0.03511 0.51753 0.45136 0.0
C2356 C 0.02796 0.50619 0.42631 0.0
H2357 H 0.77949 0.90236 0.62913 0.0
H2358 H 0.70318 0.89162 0.59932 0.0
H2359 H 0.69194 0.86728 0.63597 0.0
H2360 H 0.77995 0.84345 0.63928 0.0
H2361 H 0.8009 0.84729 0.66781 0.0
H2362 H 0.80238 0.87188 0.64621 0.0
H2363 H 0.79648 0.90515 0.68188 0.0
H2364 H 0.79558 0.88095 0.70421 0.0
H2365 H 0.77082 0.89927 0.70051 0.0
H2366 H 0.69061 0.83591 0.67034 0.0
H2367 H 0.69933 0.80247 0.69902 0.0
H2368 H 0.77719 0.83075 0.70175 0.0
C2369 C 0.76026 0.89647 0.63145 0.0
C2370 C 0.74207 0.89951 0.61211 0.0
C2371 C 0.71718 0.89028 0.6146 0.0
C2372 C 0.71073 0.8762 0.63523 0.0
C2373 C 0.72946 0.87155 0.65296 0.0
C2374 C 0.75377 0.88186 0.65143 0.0
C2375 C 0.77104 0.87016 0.66921 0.0
C2376 C 0.78962 0.85745 0.65475 0.0
C2377 C 0.78424 0.89006 0.6902 0.0
C2378 C 0.75291 0.8506 0.67982 0.0
C2379 C 0.72896 0.85208 0.67101 0.0
C2380 C 0.70931 0.83481 0.67752 0.0
C2381 C 0.71439 0.81573 0.69351 0.0
C2382 C 0.73894 0.81361 0.70189 0.0
C2383 C 0.75825 0.83146 0.69508 0.0
H2384 H 0.68551 0.46847 0.53303 0.0
H2385 H 0.63852 0.39651 0.53793 0.0
H2386 H 0.6029 0.41927 0.54126 0.0
H2387 H 0.65508 0.50772 0.57581 0.0
H2388 H 0.65853 0.53472 0.55689 0.0
H2389 H 0.68063 0.51305 0.5569 0.0
H2390 H 0.67295 0.50598 0.50797 0.0
H2391 H 0.65053 0.52726 0.50759 0.0
H2392 H 0.64224 0.49514 0.49323 0.0
H2393 H 0.57197 0.45041 0.54439 0.0
H2394 H 0.54821 0.48617 0.54294 0.0
H2395 H 0.61415 0.53774 0.53238 0.0
C2396 C 0.66779 0.45752 0.53518 0.0
C2397 C 0.66501 0.43057 0.53559 0.0
C2398 C 0.64129 0.41706 0.53777 0.0
C2399 C 0.6209 0.4299 0.53971 0.0
C2400 C 0.62423 0.45639 0.53908 0.0
C2401 C 0.64708 0.47004 0.53662 0.0
C2402 C 0.64541 0.49821 0.5349 0.0
C2403 C 0.66083 0.51438 0.55747 0.0
C2404 C 0.65324 0.50718 0.50941 0.0
C2405 C 0.61807 0.4983 0.53656 0.0
C2406 C 0.60627 0.47403 0.53943 0.0
C2407 C 0.58111 0.46941 0.54197 0.0
C2408 C 0.56767 0.48991 0.54119 0.0
C2409 C 0.57907 0.51482 0.53734 0.0
C2410 C 0.60476 0.51896 0.53522 0.0
H2411 H 0.16947 0.12087 0.44186 0.0
H2412 H 0.21845 0.07626 0.48096 0.0
H2413 H 0.18295 0.0456 0.48954 0.0
H2414 H 0.12557 0.1176 0.48211 0.0
H2415 H 0.09985 0.11403 0.45797 0.0
H2416 H 0.12942 0.12921 0.45122 0.0
H2417 H 0.12569 0.0963 0.41182 0.0
H2418 H 0.09648 0.08097 0.42017 0.0
H2419 H 0.12101 0.06271 0.4163 0.0
H2420 H 0.14314 0.02575 0.50243 0.0
H2421 H 0.10144 0.01609 0.51574 0.0
H2422 H 0.07735 0.07209 0.46731 0.0
C2423 C 0.17278 0.10413 0.45136 0.0
C2424 C 0.19682 0.10115 0.46083 0.0
C2425 C 0.20029 0.0791 0.47347 0.0
C2426 C 0.18019 0.06146 0.47842 0.0
C2427 C 0.15669 0.06572 0.47011 0.0
C2428 C 0.15286 0.08616 0.45628 0.0
C2429 C 0.12567 0.0876 0.45165 0.0
C2430 C 0.11986 0.11368 0.4614 0.0
C2431 C 0.11669 0.08153 0.4233 0.0
C2432 C 0.11512 0.06648 0.46726 0.0
C2433 C 0.13329 0.05362 0.47711 0.0
C2434 C 0.12862 0.03517 0.49428 0.0
C2435 C 0.1049 0.02996 0.50189 0.0
C2436 C 0.08611 0.04323 0.49247 0.0
C2437 C 0.09121 0.06125 0.47443 0.0
H2438 H 0.22525 0.96051 0.8152 0.0
H2439 H 0.15747 0.93229 0.76792 0.0
H2440 H 0.1745 0.8936 0.7542 0.0
H2441 H 0.26749 0.93731 0.77568 0.0
H2442 H 0.2867 0.92811 0.80166 0.0
H2443 H 0.26952 0.95384 0.8068 0.0
H2444 H 0.24934 0.93094 0.84304 0.0
H2445 H 0.26623 0.90493 0.83805 0.0
H2446 H 0.23322 0.89884 0.83671 0.0
H2447 H 0.20066 0.85921 0.74365 0.0
H2448 H 0.23095 0.8295 0.7421 0.0
H2449 H 0.27913 0.87782 0.80033 0.0
C2450 C 0.21407 0.94618 0.80188 0.0
C2451 C 0.1902 0.9494 0.7923 0.0
C2452 C 0.17584 0.9301 0.77537 0.0
C2453 C 0.18541 0.90817 0.76743 0.0
C2454 C 0.20913 0.90559 0.77713 0.0
C2455 C 0.22304 0.92385 0.79443 0.0
C2456 C 0.24734 0.91584 0.80327 0.0
C2457 C 0.26904 0.93491 0.79644 0.0
C2458 C 0.24914 0.91243 0.83197 0.0
C2459 C 0.24523 0.89051 0.78783 0.0
C2460 C 0.22321 0.88502 0.77263 0.0
C2461 C 0.2177 0.86311 0.75593 0.0
C2462 C 0.2349 0.84616 0.75526 0.0
C2463 C 0.25698 0.85079 0.77157 0.0
C2464 C 0.26226 0.87351 0.78778 0.0
H2465 H 0.33005 0.896 0.02643 0.0
H2466 H 0.28389 0.95311 0.00979 0.0
H2467 H 0.32067 0.9841 1.00468 0.0
H2468 H 0.37874 0.93995 0.06374 0.0
H2469 H 0.40301 0.92427 0.05279 0.0
H2470 H 0.37302 0.90625 0.05446 0.0
H2471 H 0.37109 0.89069 0.00684 0.0
H2472 H 0.40105 0.90871 0.00501 0.0
H2473 H 0.3754 0.91376 0.98355 0.0
H2474 H 0.36236 0.00851 0.99954 0.0
H2475 H 0.40633 0.02568 0.99849 0.0
H2476 H 0.426 0.95413 0.02151 0.0
C2477 C 0.32772 0.91502 0.02168 0.0
C2478 C 0.30403 0.92208 0.01841 0.0
C2479 C 0.30181 0.94726 0.0125 0.0
C2480 C 0.3226 0.965 0.00944 0.0
C2481 C 0.34565 0.95747 0.01276 0.0
C2482 C 0.3484 0.9332 0.0191 0.0
C2483 C 0.37538 0.93039 0.02254 0.0
C2484 C 0.38298 0.92489 0.05002 0.0
C2485 C 0.38105 0.90966 1.00334 0.0
C2486 C 0.3873 0.95672 0.01681 0.0
C2487 C 0.36979 0.97196 0.01098 0.0
C2488 C 0.37624 0.99681 1.00428 0.0
C2489 C 0.40124 0.0064 1.00368 0.0
C2490 C 0.41953 0.99132 0.01006 0.0
C2491 C 0.4124 0.96617 0.01675 0.0
H2492 H 0.86048 0.63829 0.71423 0.0
H2493 H 0.89106 0.64928 0.79315 0.0
H2494 H 0.86455 0.68159 0.80134 0.0
H2495 H 0.85687 0.70819 0.70932 0.0
H2496 H 0.82894 0.70209 0.68818 0.0
H2497 H 0.85076 0.6801 0.68748 0.0
H2498 H 0.81707 0.64314 0.69528 0.0
H2499 H 0.79497 0.66475 0.69586 0.0
H2500 H 0.79985 0.64596 0.72241 0.0
H2501 H 0.8286 0.70405 0.80321 0.0
H2502 H 0.79239 0.7254 0.79667 0.0
H2503 H 0.79049 0.7105 0.71536 0.0
C2504 C 0.86197 0.64804 0.73303 0.0
C2505 C 0.87795 0.64131 0.75311 0.0
C2506 C 0.87925 0.65431 0.77747 0.0
C2507 C 0.86413 0.6726 0.78235 0.0
C2508 C 0.8483 0.67851 0.76244 0.0
C2509 C 0.84769 0.66743 0.73802 0.0
C2510 C 0.82917 0.67809 0.7202 0.0
C2511 C 0.84221 0.69301 0.70009 0.0
C2512 C 0.80908 0.65671 0.7077 0.0
C2513 C 0.81877 0.69589 0.73871 0.0
C2514 C 0.82988 0.69524 0.76304 0.0
C2515 C 0.82091 0.70624 0.78412 0.0
C2516 C 0.80057 0.71878 0.78027 0.0
C2517 C 0.79011 0.7219 0.7556 0.0
C2518 C 0.79919 0.70998 0.7344 0.0
H2519 H 0.85352 0.62552 0.02128 0.0
H2520 H 0.79563 0.56288 0.99409 0.0
H2521 H 0.82206 0.5322 0.00856 0.0
H2522 H 0.90239 0.59711 1.00253 0.0
H2523 H 0.92346 0.60964 0.02988 0.0
H2524 H 0.89908 0.62661 0.01966 0.0
H2525 H 0.88394 0.62561 0.06462 0.0
H2526 H 0.90826 0.60842 0.07488 0.0
H2527 H 0.87678 0.59549 0.07812 0.0
H2528 H 0.85673 0.50844 0.01983 0.0
H2529 H 0.89688 0.4938 0.02844 0.0
H2530 H 0.93055 0.57145 0.05245 0.0
C2531 C 0.84633 0.60536 0.01872 0.0
C2532 C 0.8226 0.59655 0.00654 0.0
C2533 C 0.81377 0.57004 1.00345 0.0
C2534 C 0.8286 0.55246 0.01169 0.0
C2535 C 0.85201 0.56171 0.02346 0.0
C2536 C 0.86074 0.58755 0.02726 0.0
C2537 C 0.88706 0.59244 0.0391 0.0
C2538 C 0.90398 0.60731 0.02176 0.0
C2539 C 0.88912 0.60631 0.06577 0.0
C2540 C 0.892 0.56534 0.04046 0.0
C2541 C 0.87156 0.54784 0.0314 0.0
C2542 C 0.87268 0.52185 0.02769 0.0
C2543 C 0.89547 0.51368 0.03267 0.0
C2544 C 0.91658 0.53144 0.04153 0.0
C2545 C 0.91455 0.55737 0.04636 0.0
H2546 H 0.17857 0.11985 0.83754 0.0
H2547 H 0.22096 0.06922 0.79946 0.0
H2548 H 0.24914 0.10639 0.78853 0.0
H2549 H 0.18131 0.16559 0.79409 0.0
H2550 H 0.18459 0.19283 0.8169 0.0
H2551 H 0.16937 0.1624 0.82451 0.0
H2552 H 0.19961 0.16432 0.86506 0.0
H2553 H 0.21481 0.19495 0.8577 0.0
H2554 H 0.23221 0.16931 0.86249 0.0
H2555 H 0.26843 0.14878 0.77551 0.0
H2556 H 0.28045 0.1936 0.76598 0.0
H2557 H 0.228 0.21713 0.81514 0.0
C2558 C 0.19414 0.11653 0.82748 0.0
C2559 C 0.19747 0.09148 0.81941 0.0
C2560 C 0.21802 0.0881 0.80608 0.0
C2561 C 0.23414 0.10915 0.79967 0.0
C2562 C 0.22982 0.13354 0.80714 0.0
C2563 C 0.21064 0.13735 0.82124 0.0
C2564 C 0.20946 0.16555 0.82597 0.0
C2565 C 0.18472 0.17195 0.81469 0.0
C2566 C 0.21432 0.17403 0.8545 0.0
C2567 C 0.23041 0.17695 0.81157 0.0
C2568 C 0.24187 0.15813 0.80077 0.0
C2569 C 0.26007 0.16372 0.78445 0.0
C2570 C 0.26672 0.18917 0.77906 0.0
C2571 C 0.25553 0.20874 0.79029 0.0
C2572 C 0.23736 0.20255 0.80697 0.0
H2573 H 0.40127 0.97939 0.28807 0.0
H2574 H 0.35091 0.02101 0.24673 0.0
H2575 H 0.31783 0.98446 0.24632 0.0
H2576 H 0.37817 0.91767 0.25578 0.0
H2577 H 0.38196 0.90081 0.28393 0.0
H2578 H 0.4018 0.93029 0.28095 0.0
H2579 H 0.38952 0.9489 0.32357 0.0
H2580 H 0.36959 0.91948 0.32659 0.0
H2581 H 0.35752 0.94912 0.32748 0.0
H2582 H 0.29003 0.94306 0.24986 0.0
H2583 H 0.26993 0.89975 0.25732 0.0
H2584 H 0.33796 0.88547 0.29685 0.0
C2585 C 0.38332 0.98083 0.27886 0.0
C2586 C 0.37882 1.00318 0.2674 0.0
C2587 C 0.35495 1.00419 0.25567 0.0
C2588 C 0.33596 0.9835 0.25533 0.0
C2589 C 0.34099 0.96185 0.26685 0.0
C2590 C 0.36408 0.96035 0.27842 0.0
C2591 C 0.36458 0.93486 0.28946 0.0
C2592 C 0.3827 0.92004 0.27676 0.0
C2593 C 0.37066 0.93831 0.3185 0.0
C2594 C 0.33823 0.92228 0.28222 0.0
C2595 C 0.32491 0.93815 0.26917 0.0
C2596 C 0.30025 0.93051 0.26017 0.0
C2597 C 0.28897 0.90594 0.26451 0.0
C2598 C 0.30234 0.88942 0.27779 0.0
C2599 C 0.32723 0.89781 0.28681 0.0
H2600 H 0.49941 0.36667 0.6498 0.0
H2601 H 0.51297 0.31215 0.59001 0.0
H2602 H 0.51075 0.34409 0.55897 0.0
H2603 H 0.45704 0.39716 0.61239 0.0
H2604 H 0.46862 0.42897 0.62626 0.0
H2605 H 0.47145 0.40204 0.64458 0.0
H2606 H 0.51851 0.41633 0.65263 0.0
H2607 H 0.51574 0.44349 0.63462 0.0
H2608 H 0.53619 0.42172 0.62594 0.0
H2609 H 0.50461 0.38026 0.53357 0.0
H2610 H 0.50057 0.42148 0.51616 0.0
H2611 H 0.49345 0.45431 0.59181 0.0
C2612 C 0.50216 0.36162 0.63024 0.0
C2613 C 0.50623 0.33682 0.62239 0.0
C2614 C 0.50978 0.33095 0.59659 0.0
C2615 C 0.50846 0.34894 0.57869 0.0
C2616 C 0.50387 0.37294 0.58682 0.0
C2617 C 0.50125 0.3796 0.612 0.0
C2618 C 0.49715 0.40714 0.61547 0.0
C2619 C 0.47207 0.40892 0.62525 0.0
C2620 C 0.51815 0.42311 0.63321 0.0
C2621 C 0.49767 0.41463 0.58831 0.0
C2622 C 0.50127 0.39444 0.5721 0.0
C2623 C 0.50196 0.39632 0.54605 0.0
C2624 C 0.49948 0.41972 0.53631 0.0
C2625 C 0.49668 0.44095 0.55264 0.0
C2626 C 0.49554 0.4383 0.57893 0.0
H2627 H 0.44174 0.82629 0.3701 0.0
H2628 H 0.47121 0.76348 0.33429 0.0
H2629 H 0.43146 0.74983 0.30809 0.0
H2630 H 0.38074 0.79478 0.37264 0.0
H2631 H 0.36644 0.82196 0.36498 0.0
H2632 H 0.39711 0.82657 0.38082 0.0
H2633 H 0.41282 0.85382 0.34506 0.0
H2634 H 0.38216 0.84936 0.32918 0.0
H2635 H 0.40706 0.84071 0.31245 0.0
H2636 H 0.38645 0.74111 0.28824 0.0
H2637 H 0.34275 0.74163 0.27289 0.0
H2638 H 0.34474 0.81244 0.31886 0.0
C2639 C 0.43986 0.80972 0.35665 0.0
C2640 C 0.45955 0.79585 0.35435 0.0
C2641 C 0.45642 0.77446 0.33632 0.0
C2642 C 0.43385 0.76649 0.32145 0.0
C2643 C 0.41468 0.78043 0.32438 0.0
C2644 C 0.41769 0.80192 0.34121 0.0
C2645 C 0.39459 0.8141 0.34026 0.0
C2646 C 0.38411 0.81435 0.36622 0.0
C2647 C 0.39946 0.84109 0.3312 0.0
C2648 C 0.37798 0.79595 0.3206 0.0
C2649 C 0.38968 0.77641 0.31185 0.0
C2650 C 0.3773 0.75659 0.29467 0.0
C2651 C 0.35248 0.75696 0.28608 0.0
C2652 C 0.3405 0.7773 0.29426 0.0
C2653 C 0.35356 0.79694 0.31175 0.0
H2654 H 0.03762 0.69449 0.13635 0.0
H2655 H 0.9594 0.69541 0.12566 0.0
H2656 H 0.95368 0.65367 0.10042 0.0
H2657 H 0.04444 0.67378 0.07698 0.0
H2658 H 0.06703 0.65346 0.08406 0.0
H2659 H 0.06458 0.67986 0.10612 0.0
H2660 H 0.05796 0.6498 0.14221 0.0
H2661 H 0.06119 0.62326 0.12049 0.0
H2662 H 0.0342 0.62235 0.13734 0.0
H2663 H 0.95813 0.61704 0.06867 0.0
H2664 H 0.9715 0.58556 0.03841 0.0
H2665 H 0.04669 0.60768 0.07109 0.0
C2666 C 0.01915 0.68511 0.12996 0.0
C2667 C 0.99884 0.69773 0.13357 0.0
C2668 C 0.97503 0.6856 0.1239 0.0
C2669 C 0.97172 0.66205 0.10925 0.0
C2670 C 0.99239 0.65082 0.10477 0.0
C2671 C 0.0156 0.66165 0.11548 0.0
C2672 C 0.03512 0.64726 0.10594 0.0
C2673 C 0.05388 0.66464 0.09248 0.0
C2674 C 0.04786 0.63493 0.1278 0.0
C2675 C 0.01949 0.6273 0.08728 0.0
C2676 C 0.99485 0.62951 0.08694 0.0
C2677 C 0.97722 0.61455 0.06953 0.0
C2678 C 0.9849 0.59659 0.05255 0.0
C2679 C 1.00988 0.59355 0.05324 0.0
C2680 C 0.02738 0.60929 0.07063 0.0
H2681 H 0.08618 0.281 0.81039 0.0
H2682 H 0.11906 0.31357 0.88501 0.0
H2683 H 0.16032 0.3122 0.87132 0.0
H2684 H 0.13042 0.23827 0.80011 0.0
H2685 H 0.13059 0.24273 0.76668 0.0
H2686 H 0.10351 0.24594 0.7824 0.0
H2687 H 0.10408 0.29129 0.76726 0.0
H2688 H 0.13116 0.2882 0.75152 0.0
H2689 H 0.13137 0.31463 0.77466 0.0
H2690 H 0.19867 0.30779 0.84925 0.0
H2691 H 0.23031 0.30065 0.82037 0.0
H2692 H 0.173 0.27095 0.76022 0.0
C2693 C 0.10205 0.28778 0.82387 0.0
C2694 C 0.0992 0.2974 0.84886 0.0
C2695 C 0.12058 0.30611 0.8658 0.0
C2696 C 0.1442 0.30541 0.85819 0.0
C2697 C 0.1464 0.29591 0.83348 0.0
C2698 C 0.12589 0.28722 0.81655 0.0
C2699 C 0.13341 0.27813 0.79101 0.0
C2700 C 0.12392 0.24957 0.78469 0.0
C2701 C 0.12448 0.29402 0.76987 0.0
C2702 C 0.16125 0.28316 0.79619 0.0
C2703 C 0.1684 0.29337 0.82083 0.0
C2704 C 0.19322 0.29972 0.82993 0.0
C2705 C 0.21112 0.29556 0.81344 0.0
C2706 C 0.20423 0.28515 0.78811 0.0
C2707 C 0.1789 0.27891 0.77951 0.0
H2708 H 0.48624 0.69627 0.96243 0.0
H2709 H 0.55778 0.71199 0.93438 0.0
H2710 H 0.5669 0.67028 0.94658 0.0
H2711 H 0.50124 0.66804 0.01449 0.0
H2712 H 0.47554 0.64259 0.01251 0.0
H2713 H 0.47232 0.67138 0.99752 0.0
H2714 H 0.4586 0.64558 0.95412 0.0
H2715 H 0.46124 0.61652 0.9691 0.0
H2716 H 0.47757 0.62383 0.94187 0.0
H2717 H 0.57273 0.63505 0.97308 0.0
H2718 H 0.57116 0.60104 1.00248 0.0
H2719 H 0.49341 0.60164 0.00619 0.0
C2720 C 0.50335 0.69033 0.95793 0.0
C2721 C 0.52134 0.70712 0.94748 0.0
C2722 C 0.5437 0.69915 0.94209 0.0
C2723 C 0.54906 0.67556 0.94902 0.0
C2724 C 0.53143 0.65983 0.96033 0.0
C2725 C 0.50857 0.66627 0.96372 0.0
C2726 C 0.49346 0.64617 0.97733 0.0
C2727 C 0.48517 0.65775 1.00191 0.0
C2728 C 0.47141 0.6322 0.95954 0.0
C2729 C 0.5122 0.62873 0.983 0.0
C2730 C 0.53401 0.63714 0.97309 0.0
C2731 C 0.55541 0.62729 0.97969 0.0
C2732 C 0.55438 0.60803 0.99641 0.0
C2733 C 0.53192 0.598 0.00538 0.0
C2734 C 0.51051 0.60833 0.99852 0.0
H2735 H 0.10907 0.80426 0.61877 0.0
H2736 H 0.05171 0.80548 0.66966 0.0
H2737 H 0.08105 0.80027 0.70577 0.0
H2738 H 0.13721 0.75686 0.64701 0.0
H2739 H 0.16827 0.77103 0.64343 0.0
H2740 H 0.14341 0.77696 0.62149 0.0
H2741 H 0.15618 0.82566 0.63181 0.0
H2742 H 0.18131 0.81987 0.65354 0.0
H2743 H 0.15925 0.83876 0.66441 0.0
H2744 H 0.11533 0.79127 0.7359 0.0
H2745 H 0.15395 0.78262 0.75858 0.0
H2746 H 0.18908 0.78812 0.68866 0.0
C2747 C 0.1028 0.80392 0.63757 0.0
C2748 C 0.07805 0.80517 0.64128 0.0
C2749 C 0.07055 0.80443 0.66621 0.0
C2750 C 0.08706 0.80148 0.68693 0.0
C2751 C 0.1111 0.79952 0.68252 0.0
C2752 C 0.1191 0.80105 0.65857 0.0
C2753 C 0.1458 0.79769 0.65902 0.0
C2754 C 0.14883 0.77424 0.64172 0.0
C2755 C 0.16156 0.82194 0.65177 0.0
C2756 C 0.15129 0.79354 0.68681 0.0
C2757 C 0.13104 0.79467 0.70005 0.0
C2758 C 0.13143 0.79059 0.72583 0.0
C2759 C 0.15331 0.78554 0.7385 0.0
C2760 C 0.1743 0.78474 0.7253 0.0
C2761 C 0.17323 0.78872 0.69918 0.0
H2762 H 0.02425 0.3565 0.42192 0.0
H2763 H 0.08098 0.33465 0.4739 0.0
H2764 H 0.08432 0.37587 0.49941 0.0
H2765 H 0.04784 0.42558 0.426 0.0
H2766 H 0.01748 0.43407 0.42532 0.0
H2767 H 0.02206 0.40455 0.40919 0.0
H2768 H 0.98953 0.38063 0.43436 0.0
H2769 H 0.98533 0.40948 0.45179 0.0
H2770 H 0.99365 0.3832 0.46866 0.0
H2771 H 0.08094 0.4193 0.51955 0.0
H2772 H 0.06854 0.4603 0.53455 0.0
H2773 H 0.01115 0.45104 0.472 0.0
C2774 C 0.03781 0.3608 0.43827 0.0
C2775 C 0.05277 0.34289 0.4458 0.0
C2776 C 0.06964 0.34848 0.46782 0.0
C2777 C 0.07167 0.37177 0.48235 0.0
C2778 C 0.05636 0.38896 0.47476 0.0
C2779 C 0.03962 0.38369 0.45334 0.0
C2780 C 0.02378 0.40436 0.45067 0.0
C2781 C 0.02805 0.41794 0.42635 0.0
C2782 C 0.99646 0.39376 0.45146 0.0
C2783 C 0.03388 0.4217 0.47414 0.0
C2784 C 0.05306 0.41288 0.48749 0.0
C2785 C 0.0658 0.4263 0.50939 0.0
C2786 C 0.05866 0.4494 0.51781 0.0
C2787 C 0.0386 0.45814 0.50471 0.0
C2788 C 0.02614 0.44419 0.48267 0.0
H2789 H 0.43143 0.30622 0.14232 0.0
H2790 H 0.4841 0.28087 0.19676 0.0
H2791 H 0.45483 0.28152 0.2294 0.0
H2792 H 0.40947 0.3494 0.1855 0.0
H2793 H 0.37809 0.34238 0.17149 0.0
H2794 H 0.40278 0.33897 0.1522 0.0
H2795 H 0.38377 0.29193 0.13887 0.0
H2796 H 0.35883 0.29539 0.15781 0.0
H2797 H 0.37694 0.2704 0.16309 0.0
H2798 H 0.41956 0.28565 0.25635 0.0
H2799 H 0.38051 0.29087 0.27431 0.0
H2800 H 0.35222 0.31448 0.20213 0.0
C2801 C 0.43673 0.30052 0.16101 0.0
C2802 C 0.45999 0.29341 0.16699 0.0
C2803 C 0.46631 0.2863 0.19175 0.0
C2804 C 0.44986 0.2867 0.21043 0.0
C2805 C 0.42723 0.29432 0.20404 0.0
C2806 C 0.42064 0.30094 0.17985 0.0
C2807 C 0.39537 0.3086 0.17778 0.0
C2808 C 0.39652 0.3365 0.17137 0.0
C2809 C 0.37769 0.29049 0.15824 0.0
C2810 C 0.38876 0.30528 0.20456 0.0
C2811 C 0.40731 0.29705 0.21951 0.0
C2812 C 0.40496 0.29219 0.24484 0.0
C2813 C 0.38285 0.29535 0.25493 0.0
C2814 C 0.36357 0.30329 0.23964 0.0
C2815 C 0.36679 0.30864 0.21433 0.0
H2816 H 0.60085 0.52582 0.34788 0.0
H2817 H 0.66007 0.49316 0.38593 0.0
H2818 H 0.63838 0.49134 0.42481 0.0
H2819 H 0.5901 0.56592 0.4024 0.0
H2820 H 0.55729 0.56132 0.39462 0.0
H2821 H 0.57726 0.55954 0.36971 0.0
H2822 H 0.55404 0.5145 0.35418 0.0
H2823 H 0.53419 0.51602 0.37925 0.0
H2824 H 0.55139 0.48998 0.37612 0.0
H2825 H 0.60827 0.48905 0.45783 0.0
H2826 H 0.57631 0.49481 0.4863 0.0
H2827 H 0.53896 0.53401 0.42916 0.0
C2828 C 0.60933 0.51848 0.36448 0.0
C2829 C 0.63211 0.5095 0.36388 0.0
C2830 C 0.64269 0.50018 0.386 0.0
C2831 C 0.63041 0.4989 0.40808 0.0
C2832 C 0.60774 0.50738 0.40787 0.0
C2833 C 0.59755 0.51755 0.38687 0.0
C2834 C 0.57338 0.52619 0.392 0.0
C2835 C 0.57459 0.55495 0.38954 0.0
C2836 C 0.55199 0.51075 0.37433 0.0
C2837 C 0.57178 0.51968 0.41932 0.0
C2838 C 0.59141 0.50807 0.42776 0.0
C2839 C 0.59315 0.49866 0.45166 0.0
C2840 C 0.57481 0.50191 0.46766 0.0
C2841 C 0.55539 0.51522 0.46011 0.0
C2842 C 0.55377 0.52402 0.4355 0.0
H2843 H 0.22296 0.81915 0.09006 0.0
H2844 H 0.2558 0.89711 0.1136 0.0
H2845 H 0.26523 0.88478 0.15738 0.0
H2846 H 0.19503 0.80667 0.15043 0.0
H2847 H 0.20014 0.77399 0.14829 0.0
H2848 H 0.19504 0.78987 0.11974 0.0
H2849 H 0.23597 0.77833 0.10554 0.0
H2850 H 0.24132 0.76313 0.13444 0.0
H2851 H 0.26402 0.78831 0.12603 0.0
H2852 H 0.27612 0.86174 0.19766 0.0
H2853 H 0.28117 0.83234 0.23149 0.0
H2854 H 0.23682 0.77074 0.18317 0.0
C2855 C 0.23165 0.83378 0.10457 0.0
C2856 C 0.23851 0.85922 0.0983 0.0
C2857 C 0.25002 0.87765 0.11789 0.0
C2858 C 0.25564 0.87071 0.14281 0.0
C2859 C 0.24916 0.84531 0.14817 0.0
C2860 C 0.23678 0.8273 0.12968 0.0
C2861 C 0.23159 0.80134 0.14023 0.0
C2862 C 0.2038 0.79246 0.13964 0.0
C2863 C 0.24397 0.78162 0.12569 0.0
C2864 C 0.24347 0.80728 0.16738 0.0
C2865 C 0.2538 0.83268 0.17158 0.0
C2866 C 0.26739 0.84205 0.19469 0.0
C2867 C 0.27004 0.82525 0.21398 0.0
C2868 C 0.25868 0.79945 0.21055 0.0
C2869 C 0.24535 0.79047 0.18674 0.0
H2870 H 0.96393 0.56783 0.82491 0.0
H2871 H 0.89399 0.58786 0.84343 0.0
H2872 H 0.90536 0.5832 0.88864 0.0
H2873 H 0.96693 0.5202 0.87054 0.0
H2874 H 0.9996 0.52821 0.8788 0.0
H2875 H 0.98641 0.53349 0.84763 0.0
H2876 H 1.00629 0.58092 0.85429 0.0
H2877 H 0.01947 0.57579 0.88553 0.0
H2878 H 1.00034 0.60013 0.88169 0.0
H2879 H 0.92351 0.57608 0.93182 0.0
H2880 H 0.94702 0.56582 0.97038 0.0
H2881 H 1.00593 0.55011 0.92563 0.0
C2882 C 0.95106 0.57127 0.83851 0.0
C2883 C 0.92799 0.57829 0.83042 0.0
C2884 C 0.91171 0.58249 0.84893 0.0
C2885 C 0.91802 0.57993 0.87478 0.0
C2886 C 0.94078 0.57309 0.88215 0.0
C2887 C 0.95709 0.56872 0.86464 0.0
C2888 C 0.98021 0.56115 0.87793 0.0
C2889 C 0.98347 0.53416 0.86814 0.0
C2890 C 1.00292 0.58067 0.87466 0.0
C2891 C 0.97425 0.56194 0.90552 0.0
C2892 C 0.95139 0.56894 0.90738 0.0
C2893 C 0.94146 0.57062 0.9306 0.0
C2894 C 0.95503 0.56471 0.95248 0.0
C2895 C 0.97845 0.55719 0.95128 0.0
C2896 C 0.98824 0.55606 0.92737 0.0
H2897 H 0.27242 0.17002 0.56684 0.0
H2898 H 0.2156 0.20583 0.52804 0.0
H2899 H 0.21014 0.22897 0.56803 0.0
H2900 H 0.24292 0.16399 0.62683 0.0
H2901 H 0.27169 0.17098 0.6466 0.0
H2902 H 0.27048 0.15557 0.61507 0.0
H2903 H 0.3042 0.19119 0.60399 0.0
H2904 H 0.30537 0.20682 0.63538 0.0
H2905 H 0.29955 0.22397 0.60782 0.0
H2906 H 0.21242 0.25083 0.61032 0.0
H2907 H 0.22055 0.26842 0.65495 0.0
H2908 H 0.27494 0.21862 0.66832 0.0
C2909 C 0.25856 0.18238 0.56692 0.0
C2910 C 0.24459 0.18618 0.54417 0.0
C2911 C 0.22677 0.20273 0.54506 0.0
C2912 C 0.22342 0.21598 0.56773 0.0
C2913 C 0.23785 0.21243 0.58958 0.0
C2914 C 0.25488 0.19589 0.58962 0.0
C2915 C 0.26825 0.19633 0.61601 0.0
C2916 C 0.26301 0.17016 0.62676 0.0
C2917 C 0.29599 0.20511 0.61577 0.0
C2918 C 0.25634 0.21606 0.63041 0.0
C2919 C 0.23885 0.22498 0.61465 0.0
C2920 C 0.22585 0.24384 0.62301 0.0
C2921 C 0.23066 0.25378 0.64834 0.0
C2922 C 0.24823 0.24477 0.66499 0.0
C2923 C 0.26127 0.22567 0.65594 0.0
H2924 H 0.64023 0.53454 0.21661 0.0
H2925 H 0.59241 0.46756 0.2348 0.0
H2926 H 0.57428 0.46051 0.18998 0.0
H2927 H 0.59711 0.558 0.17885 0.0
H2928 H 0.61686 0.57019 0.15568 0.0
H2929 H 0.62964 0.56715 0.18753 0.0
H2930 H 0.65983 0.53903 0.17024 0.0
H2931 H 0.64734 0.54225 0.1382 0.0
H2932 H 0.64806 0.51103 0.14923 0.0
H2933 H 0.55785 0.46397 0.14532 0.0
H2934 H 0.54369 0.47778 0.10375 0.0
H2935 H 0.60127 0.54352 0.11446 0.0
C2936 C 0.62662 0.51787 0.21076 0.0
C2937 C 0.61801 0.50114 0.22867 0.0
C2938 C 0.59948 0.48013 0.22098 0.0
C2939 C 0.58915 0.47603 0.19565 0.0
C2940 C 0.59755 0.49324 0.17842 0.0
C2941 C 0.61598 0.51367 0.18557 0.0
C2942 C 0.6197 0.53091 0.16411 0.0
C2943 C 0.61557 0.55816 0.17203 0.0
C2944 C 0.64525 0.53079 0.1549 0.0
C2945 C 0.5997 0.51768 0.14424 0.0
C2946 C 0.58751 0.49569 0.15271 0.0
C2947 C 0.56745 0.48095 0.13835 0.0
C2948 C 0.55948 0.48901 0.11484 0.0
C2949 C 0.57141 0.51171 0.10603 0.0
C2950 C 0.59196 0.52601 0.12075 0.0
H2951 H 0.24777 0.84697 0.9697 0.0
H2952 H 0.20013 0.90019 0.94509 0.0
H2953 H 0.20144 0.88457 0.90033 0.0
H2954 H 0.2864 0.85547 0.91792 0.0
H2955 H 0.29124 0.82272 0.91495 0.0
H2956 H 0.28552 0.83694 0.94522 0.0
H2957 H 0.24888 0.80101 0.94744 0.0
H2958 H 0.25447 0.78672 0.91714 0.0
H2959 H 0.22465 0.79498 0.92171 0.0
H2960 H 0.20677 0.86226 0.858 0.0
H2961 H 0.21914 0.83831 0.82107 0.0
H2962 H 0.26638 0.80163 0.87174 0.0
C2963 C 0.23745 0.85514 0.95487 0.0
C2964 C 0.22352 0.87465 0.96104 0.0
C2965 C 0.21079 0.88521 0.94096 0.0
C2966 C 0.21139 0.87639 0.91541 0.0
C2967 C 0.22524 0.85722 0.90993 0.0
C2968 C 0.23837 0.84696 0.92904 0.0
C2969 C 0.25293 0.82759 0.91767 0.0
C2970 C 0.28067 0.8362 0.92434 0.0
C2971 C 0.24474 0.801 0.92652 0.0
C2972 C 0.2457 0.82836 0.88929 0.0
C2973 C 0.22945 0.84539 0.88535 0.0
C2974 C 0.2196 0.849 0.86091 0.0
C2975 C 0.22664 0.83513 0.83998 0.0
C2976 C 0.24368 0.81792 0.84331 0.0
C2977 C 0.25337 0.81464 0.86845 0.0
H2978 H 0.98641 0.56647 0.70459 0.0
H2979 H 0.91047 0.56677 0.67654 0.0
H2980 H 0.9208 0.55829 0.6324 0.0
H2981 H 0.01332 0.59787 0.65198 0.0
H2982 H 0.03813 0.57944 0.65257 0.0
H2983 H 0.02449 0.58633 0.68136 0.0
H2984 H 0.01578 0.53803 0.68737 0.0
H2985 H 0.029 0.53097 0.65836 0.0
H2986 H 0.99809 0.51663 0.66237 0.0
H2987 H 0.93986 0.54679 0.59078 0.0
H2988 H 0.96618 0.53901 0.55654 0.0
H2989 H 0.02955 0.5476 0.61223 0.0
C2990 C 0.97193 0.56509 0.68918 0.0
C2991 C 0.94755 0.56732 0.69419 0.0
C2992 C 0.9293 0.56541 0.67331 0.0
C2993 C 0.935 0.56037 0.64815 0.0
C2994 C 0.95913 0.5576 0.64402 0.0
C2995 C 0.97737 0.56042 0.66403 0.0
C2996 C 1.00195 0.55696 0.65478 0.0
C2997 C 0.02056 0.58162 0.66051 0.0
C2998 C 0.01177 0.5343 0.66642 0.0
C2999 C 0.99478 0.55139 0.62643 0.0
C3000 C 0.96997 0.55159 0.6205 0.0
C3001 C 0.95926 0.54655 0.5954 0.0
C3002 C 0.97431 0.54166 0.576 0.0
C3003 C 0.99983 0.54187 0.58167 0.0
C3004 C 0.01003 0.5469 0.60729 0.0
H3005 H 0.25445 0.18711 0.42688 0.0
H3006 H 0.31062 0.14093 0.41216 0.0
H3007 H 0.31861 0.1636 0.37338 0.0
H3008 H 0.23104 0.1897 0.36087 0.0
H3009 H 0.2251 0.22186 0.36656 0.0
H3010 H 0.22351 0.20068 0.3917 0.0
H3011 H 0.25511 0.23373 0.42041 0.0
H3012 H 0.25723 0.25475 0.39517 0.0
H3013 H 0.28456 0.24466 0.40956 0.0
H3014 H 0.32175 0.19444 0.33736 0.0
H3015 H 0.31651 0.22626 0.30582 0.0
H3016 H 0.25805 0.25078 0.34593 0.0
C3017 C 0.26823 0.18144 0.41539 0.0
C3018 C 0.28196 0.16232 0.42248 0.0
C3019 C 0.29977 0.15543 0.40686 0.0
C3020 C 0.30452 0.16833 0.38497 0.0
C3021 C 0.29107 0.18776 0.379 0.0
C3022 C 0.27297 0.19385 0.39363 0.0
C3023 C 0.26097 0.21535 0.38365 0.0
C3024 C 0.23354 0.20635 0.37518 0.0
C3025 C 0.26471 0.23848 0.40338 0.0
C3026 C 0.27535 0.22087 0.36124 0.0
C3027 C 0.29272 0.20494 0.35872 0.0
C3028 C 0.30817 0.20693 0.33921 0.0
C3029 C 0.30528 0.22523 0.32158 0.0
C3030 C 0.28702 0.24108 0.32364 0.0
C3031 C 0.27221 0.23897 0.34393 0.0
H3032 H 0.39552 0.65131 0.52517 0.0
H3033 H 0.3357 0.59953 0.48241 0.0
H3034 H 0.36401 0.56953 0.47298 0.0
H3035 H 0.44442 0.63814 0.48596 0.0
H3036 H 0.46732 0.63846 0.51243 0.0
H3037 H 0.44301 0.65728 0.515 0.0
H3038 H 0.43072 0.63514 0.55514 0.0
H3039 H 0.45518 0.61652 0.55271 0.0
H3040 H 0.42411 0.60084 0.55359 0.0
H3041 H 0.39813 0.54443 0.46777 0.0
H3042 H 0.4354 0.52407 0.4706 0.0
H3043 H 0.47431 0.58944 0.51847 0.0
C3044 C 0.38851 0.63376 0.51365 0.0
C3045 C 0.36316 0.62801 0.50438 0.0
C3046 C 0.35483 0.60453 0.48979 0.0
C3047 C 0.37086 0.5873 0.48419 0.0
C3048 C 0.39551 0.5933 0.49359 0.0
C3049 C 0.40438 0.61576 0.50832 0.0
C3050 C 0.43158 0.61636 0.51722 0.0
C3051 C 0.44752 0.6389 0.50704 0.0
C3052 C 0.43563 0.61727 0.54639 0.0
C3053 C 0.4364 0.59093 0.50503 0.0
C3054 C 0.41528 0.57816 0.4913 0.0
C3055 C 0.41478 0.55428 0.4785 0.0
C3056 C 0.43615 0.54283 0.48013 0.0
C3057 C 0.45798 0.55498 0.49462 0.0
C3058 C 0.45807 0.57962 0.507 0.0
H3059 H 0.83272 0.96995 0.5291 0.0
H3060 H 0.84792 0.92557 0.5927 0.0
H3061 H 0.8895 0.95081 0.60143 0.0
H3062 H 0.89021 0.97027 0.50663 0.0
H3063 H 0.89268 1.00187 0.49582 0.0
H3064 H 0.86291 0.98344 0.49728 0.0
H3065 H 0.85091 0.01994 0.52607 0.0
H3066 H 0.88079 0.03844 0.52479 0.0
H3067 H 0.86992 0.03165 0.55509 0.0
H3068 H 0.92998 0.9784 0.6014 0.0
H3069 H 0.96828 1.00252 0.58974 0.0
H3070 H 0.92795 0.02727 0.5242 0.0
C3071 C 0.84467 0.96608 0.54523 0.0
C3072 C 0.83718 0.94623 0.56056 0.0
C3073 C 0.85342 0.94091 0.58094 0.0
C3074 C 0.87694 0.95524 0.58612 0.0
C3075 C 0.88398 0.97455 0.57049 0.0
C3076 C 0.86846 0.9798 0.55025 0.0
C3077 C 0.88162 0.99922 0.53444 0.0
C3078 C 0.88188 0.98802 0.50693 0.0
C3079 C 0.87012 0.02377 0.53515 0.0
C3080 C 0.90709 1.00362 0.54861 0.0
C3081 C 0.90786 0.98968 0.5697 0.0
C3082 C 0.92958 0.98961 0.58509 0.0
C3083 C 0.95127 1.00349 0.57831 0.0
C3084 C 0.95119 0.0169 0.55605 0.0
C3085 C 0.92863 0.01744 0.54145 0.0
H3086 H 0.82098 0.11932 0.22055 0.0
H3087 H 0.87057 0.13593 0.28985 0.0
H3088 H 0.85092 0.17282 0.30148 0.0
H3089 H 0.82221 0.18711 0.20886 0.0
H3090 H 0.79052 0.1832 0.19595 0.0
H3091 H 0.80777 0.15724 0.1924 0.0
H3092 H 0.77549 0.12783 0.21374 0.0
H3093 H 0.7578 0.15341 0.21723 0.0
H3094 H 0.76742 0.13773 0.24469 0.0
H3095 H 0.82358 0.20504 0.30835 0.0
H3096 H 0.79445 0.23589 0.30619 0.0
H3097 H 0.76569 0.2037 0.23032 0.0
C3098 C 0.82778 0.13091 0.238 0.0
C3099 C 0.84736 0.12462 0.25428 0.0
C3100 C 0.8558 0.14037 0.27692 0.0
C3101 C 0.84462 0.16134 0.28385 0.0
C3102 C 0.82526 0.16689 0.26772 0.0
C3103 C 0.81725 0.15265 0.24493 0.0
C3104 C 0.79678 0.16392 0.23071 0.0
C3105 C 0.80479 0.17343 0.20548 0.0
C3106 C 0.77296 0.14456 0.22634 0.0
C3107 C 0.7942 0.18608 0.24946 0.0
C3108 C 0.81068 0.18715 0.27078 0.0
C3109 C 0.81108 0.20491 0.29142 0.0
C3110 C 0.79468 0.22256 0.28996 0.0
C3111 C 0.77858 0.22293 0.26781 0.0
C3112 C 0.77806 0.20412 0.24742 0.0
H3113 H 0.70971 0.16848 0.99067 0.0
H3114 H 0.7573 0.11663 0.01929 0.0
H3115 H 0.72104 0.08633 0.02693 0.0
H3116 H 0.66457 0.15707 0.03447 0.0
H3117 H 0.63871 0.15831 0.01163 0.0
H3118 H 0.66835 0.17593 0.00762 0.0
H3119 H 0.66684 0.1533 0.96257 0.0
H3120 H 0.63713 0.13571 0.9664 0.0
H3121 H 0.66182 0.11898 0.95857 0.0
H3122 H 0.67977 0.06237 0.03379 0.0
H3123 H 0.63609 0.04538 0.03674 0.0
H3124 H 0.61467 0.11143 1.0023 0.0
C3125 C 0.71253 0.15068 0.99837 0.0
C3126 C 0.73656 0.1451 1.00437 0.0
C3127 C 0.73925 0.12149 0.01442 0.0
C3128 C 0.7187 0.10409 0.01891 0.0
C3129 C 0.69539 0.1103 0.01309 0.0
C3130 C 0.69213 0.13288 1.00278 0.0
C3131 C 0.66497 0.13477 0.99823 0.0
C3132 C 0.6588 0.15789 0.01392 0.0
C3133 C 0.65724 0.13574 0.96975 0.0
C3134 C 0.65356 0.1099 0.00789 0.0
C3135 C 0.67148 0.09613 0.01646 0.0
C3136 C 0.66557 0.0729 0.02694 0.0
C3137 C 0.64072 0.06342 0.02861 0.0
C3138 C 0.62201 0.07701 0.01968 0.0
C3139 C 0.62859 0.10054 0.00914 0.0
H3140 H 0.19287 0.4447 0.26224 0.0
H3141 H 0.13252 0.40262 0.29643 0.0
H3142 H 0.15525 0.36624 0.29957 0.0
H3143 H 0.20773 0.38868 0.22493 0.0
H3144 H 0.24027 0.40003 0.22905 0.0
H3145 H 0.21887 0.42244 0.22856 0.0
H3146 H 0.2392 0.44325 0.27243 0.0
H3147 H 0.26049 0.42077 0.27311 0.0
H3148 H 0.2416 0.42376 0.29885 0.0
H3149 H 0.18609 0.33539 0.30217 0.0
H3150 H 0.22099 0.3115 0.30046 0.0
H3151 H 0.26045 0.37181 0.26217 0.0
C3152 C 0.18432 0.42772 0.27011 0.0
C3153 C 0.16079 0.42665 0.2791 0.0
C3154 C 0.15037 0.40399 0.28928 0.0
C3155 C 0.16322 0.38319 0.29124 0.0
C3156 C 0.18646 0.38499 0.2826 0.0
C3157 C 0.19677 0.40652 0.27183 0.0
C3158 C 0.22201 0.40342 0.2639 0.0
C3159 C 0.22222 0.40366 0.23489 0.0
C3160 C 0.242 0.42402 0.27791 0.0
C3161 C 0.22455 0.37716 0.27254 0.0
C3162 C 0.20382 0.36685 0.28326 0.0
C3163 C 0.20219 0.34314 0.29335 0.0
C3164 C 0.22205 0.32952 0.29214 0.0
C3165 C 0.24325 0.33933 0.28069 0.0
C3166 C 0.24446 0.36363 0.27094 0.0
H3167 H 0.18294 0.44542 0.01218 0.0
H3168 H 0.2338 0.51106 0.04701 0.0
H3169 H 0.20221 0.53854 0.03847 0.0
H3170 H 0.15498 0.47699 0.9623 0.0
H3171 H 0.12462 0.4597 0.96384 0.0
H3172 H 0.15119 0.44516 0.97262 0.0
H3173 H 0.13611 0.43728 0.01686 0.0
H3174 H 0.10928 0.45129 0.00795 0.0
H3175 H 0.12889 0.46364 0.0364 0.0
H3176 H 0.16482 0.5588 0.02604 0.0
H3177 H 0.12327 0.56923 0.01485 0.0
H3178 H 0.09759 0.49029 0.9878 0.0
C3179 C 0.18742 0.46554 0.01818 0.0
C3180 C 0.21081 0.47611 0.03027 0.0
C3181 C 0.21593 0.50253 0.03781 0.0
C3182 C 0.19819 0.51832 0.03287 0.0
C3183 C 0.17547 0.50736 0.02038 0.0
C3184 C 0.16997 0.48152 0.01342 0.0
C3185 C 0.14398 0.47429 1.00095 0.0
C3186 C 0.14369 0.46339 0.97328 0.0
C3187 C 0.12867 0.45553 0.01647 0.0
C3188 C 0.13562 0.50007 1.00213 0.0
C3189 C 0.15408 0.51898 0.01318 0.0
C3190 C 0.15027 0.54418 0.01722 0.0
C3191 C 0.1267 0.54997 0.01065 0.0
C3192 C 0.10738 0.5306 1.0003 0.0
C3193 C 0.11214 0.50555 0.99536 0.0
H3194 H 0.87119 0.95472 0.24252 0.0
H3195 H 0.81234 0.99875 0.25245 0.0
H3196 H 0.78262 0.95866 0.24971 0.0
H3197 H 0.83467 0.90341 0.19772 0.0
H3198 H 0.85031 0.87927 0.21112 0.0
H3199 H 0.86618 0.9114 0.21117 0.0
H3200 H 0.87648 0.91292 0.25998 0.0
H3201 H 0.86061 0.8809 0.26006 0.0
H3202 H 0.85193 0.90619 0.27995 0.0
H3203 H 0.76076 0.91351 0.25251 0.0
H3204 H 0.74808 0.86749 0.25705 0.0
H3205 H 0.82063 0.85301 0.2423 0.0
C3206 C 0.85196 0.95599 0.24363 0.0
C3207 C 0.84407 0.97992 0.24772 0.0
C3208 C 0.81877 0.9807 0.24909 0.0
C3209 C 0.80179 0.958 0.24763 0.0
C3210 C 0.81034 0.93471 0.24426 0.0
C3211 C 0.83481 0.93362 0.24181 0.0
C3212 C 0.83962 0.90628 0.23941 0.0
C3213 C 0.8482 0.89971 0.2133 0.0
C3214 C 0.85825 0.90129 0.26115 0.0
C3215 C 0.81421 0.89206 0.24181 0.0
C3216 C 0.79753 0.90878 0.24457 0.0
C3217 C 0.77349 0.90026 0.24964 0.0
C3218 C 0.76643 0.87413 0.25217 0.0
C3219 C 0.78318 0.85678 0.24922 0.0
C3220 C 0.80725 0.86583 0.24364 0.0
H3221 H 0.66494 0.05998 0.75956 0.0
H3222 H 0.63384 0.07809 0.82962 0.0
H3223 H 0.66022 0.12007 0.83474 0.0
H3224 H 0.7279 0.09461 0.77816 0.0
H3225 H 0.73127 0.10608 0.7472 0.0
H3226 H 0.71211 0.07613 0.75019 0.0
H3227 H 0.67544 0.09207 0.72581 0.0
H3228 H 0.69446 0.12203 0.72274 0.0
H3229 H 0.66609 0.12145 0.73715 0.0
H3230 H 0.68757 0.16025 0.83162 0.0
H3231 H 0.7128 0.19849 0.81923 0.0
H3232 H 0.72603 0.1569 0.74981 0.0
C3233 C 0.66413 0.07267 0.77619 0.0
C3234 C 0.64755 0.06575 0.7944 0.0
C3235 C 0.64644 0.08303 0.81555 0.0
C3236 C 0.66144 0.10685 0.81866 0.0
C3237 C 0.67732 0.1133 0.8003 0.0
C3238 C 0.67873 0.09691 0.77935 0.0
C3239 C 0.69593 0.10974 0.76145 0.0
C3240 C 0.71812 0.09581 0.75912 0.0
C3241 C 0.68215 0.11142 0.73524 0.0
C3242 C 0.70361 0.13598 0.77548 0.0
C3243 C 0.69283 0.13727 0.79802 0.0
C3244 C 0.6962 0.15947 0.81409 0.0
C3245 C 0.71056 0.18114 0.8068 0.0
C3246 C 0.72137 0.18073 0.78354 0.0
C3247 C 0.7182 0.15768 0.76781 0.0
loop_
_geom_bond_atom_site_label_1
_geom_bond_atom_site_label_2
_geom_bond_distance
_geom_bond_site_symmetry_2
_ccdc_geom_bond_type
Co0 O1 2.216 . S
Co0 O2 2.091 . S
Co0 O4 2.004 1_455 S
Co0 O10 2.021 . S
Co0 O12 2.137 . S
Co0 O13 2.244 . S
O1 Co0 2.216 . S
O1 C8 1.247 . S
O2 Co0 2.091 . S
O2 C8 1.261 . S
C3 O12 1.247 . S
C3 O13 1.272 . S
O4 Co0 2.004 1_655 S
O4 C9 1.259 . S
Co5 O6 2.061 . S
Co5 O11 2.052 1_655 S
Co5 O13 2.135 1_655 S
O6 Co5 2.061 . S
O6 C9 1.235 . S
C7 O10 1.238 . S
C7 O11 1.241 . S
C8 O1 1.247 . S
C8 O2 1.261 . S
C9 O4 1.259 . S
C9 O6 1.235 . S
O10 Co0 2.021 . S
O10 C7 1.238 . S
O11 Co5 2.052 1_455 S
O11 C7 1.241 . S
O12 Co0 2.137 . S
O12 C3 1.247 . S
O13 Co0 2.244 . S
O13 C3 1.272 . S
O13 Co5 2.135 1_455 S
Co14 O15 2.216 . S
Co14 O16 2.091 . S
Co14 O18 2.004 1_655 S
Co14 O24 2.021 . S
Co14 O26 2.137 . S
Co14 O27 2.244 1_655 S
O15 Co14 2.216 . S
O15 C22 1.247 . S
O16 Co14 2.091 . S
O16 C22 1.261 . S
C17 O26 1.247 1_455 S
C17 O27 1.272 . S
O18 Co14 2.004 1_455 S
O18 C23 1.259 . S
Co19 O20 2.061 . S
Co19 O25 2.052 . S
Co19 O27 2.135 . S
O20 Co19 2.061 . S
O20 C23 1.235 . S
C21 O24 1.254 . S
C21 O25 1.220 1_655 S
C22 O15 1.247 . S
C22 O16 1.261 . S
C23 O18 1.259 . S
C23 O20 1.235 . S
O24 Co14 2.021 . S
O24 C21 1.254 . S
O25 Co19 2.052 . S
O25 C21 1.220 1_455 S
O26 Co14 2.137 . S
O26 C17 1.247 1_655 S
O27 Co14 2.244 1_455 S
O27 C17 1.272 . S
O27 Co19 2.135 . S
Co28 O29 2.216 . S
Co28 O30 2.091 . S
Co28 O32 2.004 . S
Co28 O38 2.021 . S
Co28 O40 2.137 . S
Co28 O41 2.244 . S
O29 Co28 2.216 . S
O29 C36 1.247 . S
O30 Co28 2.091 . S
O30 C36 1.261 . S
C31 O40 1.247 . S
C31 O41 1.272 . S
O32 Co28 2.004 . S
O32 C37 1.259 . S
Co33 O34 2.061 . S
Co33 O39 2.052 . S
Co33 O41 2.135 . S
O34 Co33 2.061 . S
O34 C37 1.235 . S
C35 O38 1.238 . S
C35 O39 1.241 . S
C36 O29 1.247 . S
C36 O30 1.261 . S
C37 O32 1.259 . S
C37 O34 1.235 . S
O38 Co28 2.021 . S
O38 C35 1.238 . S
O39 Co33 2.052 . S
O39 C35 1.241 . S
O40 Co28 2.137 . S
O40 C31 1.247 . S
O41 Co28 2.244 . S
O41 C31 1.272 . S
O41 Co33 2.135 . S
Co42 O43 2.216 . S
Co42 O44 2.091 . S
Co42 O46 2.004 . S
Co42 O52 2.021 . S
Co42 O54 2.137 . S
Co42 O55 2.244 . S
O43 Co42 2.216 . S
O43 C50 1.247 . S
O44 Co42 2.091 . S
O44 C50 1.261 . S
C45 O54 1.247 . S
C45 O55 1.272 . S
O46 Co42 2.004 . S
O46 C51 1.259 . S
Co47 O48 2.061 . S
Co47 O53 2.052 . S
Co47 O55 2.135 . S
O48 Co47 2.061 . S
O48 C51 1.235 . S
C49 O52 1.238 . S
C49 O53 1.241 . S
C50 O43 1.247 . S
C50 O44 1.261 . S
C51 O46 1.259 . S
C51 O48 1.235 . S
O52 Co42 2.021 . S
O52 C49 1.238 . S
O53 Co47 2.052 . S
O53 C49 1.241 . S
O54 Co42 2.137 . S
O54 C45 1.247 . S
O55 Co42 2.244 . S
O55 C45 1.272 . S
O55 Co47 2.135 . S
Co56 O57 2.216 1_455 S
Co56 O58 2.091 1_455 S
Co56 O60 2.004 . S
Co56 O66 2.021 . S
Co56 O68 2.137 . S
Co56 O69 2.244 . S
O57 Co56 2.216 1_655 S
O57 C64 1.247 . S
O58 Co56 2.091 1_655 S
O58 C64 1.261 . S
C59 O68 1.247 . S
C59 O69 1.272 . S
O60 Co56 2.004 . S
O60 C65 1.259 . S
Co61 O62 2.061 . S
Co61 O67 2.052 . S
Co61 O69 2.135 . S
O62 Co61 2.061 . S
O62 C65 1.235 . S
C63 O66 1.238 . S
C63 O67 1.241 . S
C64 O57 1.247 . S
C64 O58 1.261 . S
C65 O60 1.259 . S
C65 O62 1.235 . S
O66 Co56 2.021 . S
O66 C63 1.238 . S
O67 Co61 2.052 . S
O67 C63 1.241 . S
O68 Co56 2.137 . S
O68 C59 1.247 . S
O69 Co56 2.244 . S
O69 C59 1.272 . S
O69 Co61 2.135 . S
Co70 O71 2.216 . S
Co70 O72 2.091 . S
Co70 O74 2.004 . S
Co70 O80 2.021 . S
Co70 O82 2.137 . S
Co70 O83 2.244 . S
O71 Co70 2.216 . S
O71 C78 1.247 . S
O72 Co70 2.091 . S
O72 C78 1.261 . S
C73 O82 1.247 . S
C73 O83 1.272 . S
O74 Co70 2.004 . S
O74 C79 1.259 . S
Co75 O76 2.061 . S
Co75 O81 2.052 . S
Co75 O83 2.135 . S
O76 Co75 2.061 . S
O76 C79 1.235 . S
C77 O80 1.238 . S
C77 O81 1.241 . S
C78 O71 1.247 . S
C78 O72 1.261 . S
C79 O74 1.259 . S
C79 O76 1.235 . S
O80 Co70 2.021 . S
O80 C77 1.238 . S
O81 Co75 2.052 . S
O81 C77 1.241 . S
O82 Co70 2.137 . S
O82 C73 1.247 . S
O83 Co70 2.244 . S
O83 C73 1.272 . S
O83 Co75 2.135 . S
Co84 O85 2.216 . S
Co84 O86 2.091 . S
Co84 O88 2.004 . S
Co84 O94 2.021 . S
Co84 O96 2.137 . S
Co84 O97 2.244 . S
O85 Co84 2.216 . S
O85 C92 1.247 . S
O86 Co84 2.091 . S
O86 C92 1.261 . S
C87 O96 1.247 . S
C87 O97 1.272 . S
O88 Co84 2.004 . S
O88 C93 1.259 . S
Co89 O90 2.061 . S
Co89 O95 2.052 . S
Co89 O97 2.135 . S
O90 Co89 2.061 . S
O90 C93 1.235 . S
C91 O94 1.238 . S
C91 O95 1.241 . S
C92 O85 1.247 . S
C92 O86 1.261 . S
C93 O88 1.259 . S
C93 O90 1.235 . S
O94 Co84 2.021 . S
O94 C91 1.238 . S
O95 Co89 2.052 . S
O95 C91 1.241 . S
O96 Co84 2.137 . S
O96 C87 1.247 . S
O97 Co84 2.244 . S
O97 C87 1.272 . S
O97 Co89 2.135 . S
Co98 O99 2.216 . S
Co98 O100 2.091 . S
Co98 O102 2.004 1_455 S
Co98 O108 2.021 . S
Co98 O110 2.137 . S
Co98 O111 2.244 . S
O99 Co98 2.216 . S
O99 C106 1.247 . S
O100 Co98 2.091 . S
O100 C106 1.261 . S
C101 O110 1.247 . S
C101 O111 1.272 . S
O102 Co98 2.004 1_655 S
O102 C107 1.259 . S
Co103 O104 2.061 . S
Co103 O109 2.052 . S
Co103 O111 2.135 1_655 S
O104 Co103 2.061 . S
O104 C107 1.235 . S
C105 O108 1.238 . S
C105 O109 1.241 1_455 S
C106 O99 1.247 . S
C106 O100 1.261 . S
C107 O102 1.259 . S
C107 O104 1.235 . S
O108 Co98 2.021 . S
O108 C105 1.238 . S
O109 Co103 2.052 . S
O109 C105 1.241 1_655 S
O110 Co98 2.137 . S
O110 C101 1.247 . S
O111 Co98 2.244 . S
O111 C101 1.272 . S
O111 Co103 2.135 1_455 S
Co112 O113 2.216 . S
Co112 O114 2.091 . S
Co112 O116 2.004 . S
Co112 O122 2.021 . S
Co112 O124 2.137 . S
Co112 O125 2.244 . S
O113 Co112 2.216 . S
O113 C120 1.247 . S
O114 Co112 2.091 . S
O114 C120 1.261 . S
C115 O124 1.247 . S
C115 O125 1.272 . S
O116 Co112 2.004 . S
O116 C121 1.259 1_545 S
Co117 O118 2.061 1_545 S
Co117 O123 2.052 . S
Co117 O125 2.135 . S
O118 Co117 2.061 1_565 S
O118 C121 1.235 . S
C119 O122 1.238 . S
C119 O123 1.241 . S
C120 O113 1.247 . S
C120 O114 1.261 . S
C121 O116 1.259 1_565 S
C121 O118 1.235 . S
O122 Co112 2.021 . S
O122 C119 1.238 . S
O123 Co117 2.052 . S
O123 C119 1.241 . S
O124 Co112 2.137 . S
O124 C115 1.247 . S
O125 Co112 2.244 . S
O125 C115 1.272 . S
O125 Co117 2.135 . S
Co126 O127 2.216 . S
Co126 O128 2.091 . S
Co126 O130 2.004 . S
Co126 O136 2.021 . S
Co126 O138 2.137 . S
Co126 O139 2.244 . S
O127 Co126 2.216 . S
O127 C134 1.247 . S
O128 Co126 2.091 . S
O128 C134 1.261 . S
C129 O138 1.247 . S
C129 O139 1.272 . S
O130 Co126 2.004 . S
O130 C135 1.259 . S
Co131 O132 2.061 . S
Co131 O137 2.052 . S
Co131 O139 2.135 . S
O132 Co131 2.061 . S
O132 C135 1.235 . S
C133 O136 1.238 . S
C133 O137 1.241 . S
C134 O127 1.247 . S
C134 O128 1.261 . S
C135 O130 1.259 . S
C135 O132 1.235 . S
O136 Co126 2.021 . S
O136 C133 1.238 . S
O137 Co131 2.052 . S
O137 C133 1.241 . S
O138 Co126 2.137 . S
O138 C129 1.247 . S
O139 Co126 2.244 . S
O139 C129 1.272 . S
O139 Co131 2.135 . S
Co140 O141 2.216 . S
Co140 O142 2.091 . S
Co140 O144 2.004 1_565 S
Co140 O150 2.021 . S
Co140 O152 2.137 . S
Co140 O153 2.244 1_565 S
O141 Co140 2.216 . S
O141 C148 1.247 . S
O142 Co140 2.091 . S
O142 C148 1.261 . S
C143 O152 1.241 1_545 S
C143 O153 1.276 . S
O144 Co140 2.004 1_545 S
O144 C149 1.259 . S
Co145 O146 2.061 . S
Co145 O151 2.052 . S
Co145 O153 2.135 . S
O146 Co145 2.061 . S
O146 C149 1.235 . S
C147 O150 1.236 . S
C147 O151 1.244 1_565 S
C148 O141 1.247 . S
C148 O142 1.261 . S
C149 O144 1.259 . S
C149 O146 1.235 . S
O150 Co140 2.021 . S
O150 C147 1.236 . S
O151 Co145 2.052 . S
O151 C147 1.244 1_545 S
O152 Co140 2.137 . S
O152 C143 1.241 1_565 S
O153 Co140 2.244 1_545 S
O153 C143 1.276 . S
O153 Co145 2.135 . S
Co154 O155 2.216 . S
Co154 O156 2.091 . S
Co154 O158 2.004 . S
Co154 O164 2.021 . S
Co154 O166 2.137 1_554 S
Co154 O167 2.244 . S
O155 Co154 2.216 . S
O155 C162 1.247 . S
O156 Co154 2.091 . S
O156 C162 1.261 . S
C157 O166 1.247 . S
C157 O167 1.272 1_556 S
O158 Co154 2.004 . S
O158 C163 1.259 . S
Co159 O160 2.061 . S
Co159 O165 2.052 . S
Co159 O167 2.135 . S
O160 Co159 2.061 . S
O160 C163 1.235 . S
C161 O164 1.238 . S
C161 O165 1.241 . S
C162 O155 1.247 . S
C162 O156 1.261 . S
C163 O158 1.259 . S
C163 O160 1.235 . S
O164 Co154 2.021 . S
O164 C161 1.238 . S
O165 Co159 2.052 . S
O165 C161 1.241 . S
O166 Co154 2.137 1_556 S
O166 C157 1.247 . S
O167 Co154 2.244 . S
O167 C157 1.272 1_554 S
O167 Co159 2.135 . S
Co168 O169 2.216 . S
Co168 O170 2.091 . S
Co168 O172 2.004 . S
Co168 O178 2.021 . S
Co168 O180 2.137 1_554 S
Co168 O181 2.244 . S
O169 Co168 2.216 . S
O169 C176 1.247 . S
O170 Co168 2.091 . S
O170 C176 1.261 . S
C171 O180 1.247 . S
C171 O181 1.272 1_556 S
O172 Co168 2.004 . S
O172 C177 1.259 . S
Co173 O174 2.061 . S
Co173 O179 2.052 . S
Co173 O181 2.135 . S
O174 Co173 2.061 . S
O174 C177 1.235 . S
C175 O178 1.238 . S
C175 O179 1.241 . S
C176 O169 1.247 . S
C176 O170 1.261 . S
C177 O172 1.259 . S
C177 O174 1.235 . S
O178 Co168 2.021 . S
O178 C175 1.238 . S
O179 Co173 2.052 . S
O179 C175 1.241 . S
O180 Co168 2.137 1_556 S
O180 C171 1.247 . S
O181 Co168 2.244 . S
O181 C171 1.272 1_554 S
O181 Co173 2.135 . S
Co182 O183 2.216 1_556 S
Co182 O184 2.091 . S
Co182 O186 2.004 . S
Co182 O192 2.021 1_556 S
Co182 O194 2.137 . S
Co182 O195 2.244 . S
O183 Co182 2.216 1_554 S
O183 C190 1.248 . S
O184 Co182 2.091 . S
O184 C190 1.261 1_556 S
C185 O194 1.247 . S
C185 O195 1.272 . S
O186 Co182 2.004 . S
O186 C191 1.259 . S
Co187 O188 2.061 . S
Co187 O193 2.044 1_556 S
Co187 O195 2.140 . S
O188 Co187 2.061 . S
O188 C191 1.235 . S
C189 O192 1.238 . S
C189 O193 1.241 . S
C190 O183 1.248 . S
C190 O184 1.261 1_554 S
C191 O186 1.259 . S
C191 O188 1.235 . S
O192 Co182 2.021 1_554 S
O192 C189 1.238 . S
O193 Co187 2.044 1_554 S
O193 C189 1.241 . S
O194 Co182 2.137 . S
O194 C185 1.247 . S
O195 Co182 2.244 . S
O195 C185 1.272 . S
O195 Co187 2.140 . S
Co196 O197 2.216 . S
Co196 O198 2.091 . S
Co196 O200 2.004 . S
Co196 O206 2.021 . S
Co196 O208 2.137 . S
Co196 O209 2.244 . S
O197 Co196 2.216 . S
O197 C204 1.247 . S
O198 Co196 2.091 . S
O198 C204 1.261 . S
C199 O208 1.247 . S
C199 O209 1.272 . S
O200 Co196 2.004 . S
O200 C205 1.259 . S
Co201 O202 2.061 . S
Co201 O207 2.052 . S
Co201 O209 2.135 . S
O202 Co201 2.061 . S
O202 C205 1.235 . S
C203 O206 1.238 . S
C203 O207 1.241 . S
C204 O197 1.247 . S
C204 O198 1.261 . S
C205 O200 1.259 . S
C205 O202 1.235 . S
O206 Co196 2.021 . S
O206 C203 1.238 . S
O207 Co201 2.052 . S
O207 C203 1.241 . S
O208 Co196 2.137 . S
O208 C199 1.247 . S
O209 Co196 2.244 . S
O209 C199 1.272 . S
O209 Co201 2.135 . S
Co210 O211 2.216 . S
Co210 O212 2.091 . S
Co210 O214 2.004 . S
Co210 O220 2.021 . S
Co210 O222 2.137 . S
Co210 O223 2.244 . S
O211 Co210 2.216 . S
O211 C218 1.247 . S
O212 Co210 2.091 . S
O212 C218 1.261 . S
C213 O222 1.247 . S
C213 O223 1.272 . S
O214 Co210 2.004 . S
O214 C219 1.259 . S
Co215 O216 2.061 . S
Co215 O221 2.052 . S
Co215 O223 2.135 . S
O216 Co215 2.061 . S
O216 C219 1.235 . S
C217 O220 1.238 . S
C217 O221 1.241 . S
C218 O211 1.247 . S
C218 O212 1.261 . S
C219 O214 1.259 . S
C219 O216 1.235 . S
O220 Co210 2.021 . S
O220 C217 1.238 . S
O221 Co215 2.052 . S
O221 C217 1.241 . S
O222 Co210 2.137 . S
O222 C213 1.247 . S
O223 Co210 2.244 . S
O223 C213 1.272 . S
O223 Co215 2.135 . S
Co224 O225 2.216 . S
Co224 O226 2.091 . S
Co224 O228 2.004 . S
Co224 O234 2.021 . S
Co224 O236 2.137 . S
Co224 O237 2.244 . S
O225 Co224 2.216 . S
O225 C232 1.247 . S
O226 Co224 2.091 . S
O226 C232 1.261 . S
C227 O236 1.247 . S
C227 O237 1.272 . S
O228 Co224 2.004 . S
O228 C233 1.259 . S
Co229 O230 2.061 . S
Co229 O235 2.052 . S
Co229 O237 2.135 . S
O230 Co229 2.061 . S
O230 C233 1.235 . S
C231 O234 1.238 . S
C231 O235 1.241 . S
C232 O225 1.247 . S
C232 O226 1.261 . S
C233 O228 1.259 . S
C233 O230 1.235 . S
O234 Co224 2.021 . S
O234 C231 1.238 . S
O235 Co229 2.052 . S
O235 C231 1.241 . S
O236 Co224 2.137 . S
O236 C227 1.247 . S
O237 Co224 2.244 . S
O237 C227 1.272 . S
O237 Co229 2.135 . S
Co238 O239 2.216 . S
Co238 O240 2.091 . S
Co238 O242 2.004 . S
Co238 O248 2.021 . S
Co238 O250 2.137 . S
Co238 O251 2.244 . S
O239 Co238 2.216 . S
O239 C246 1.247 . S
O240 Co238 2.091 . S
O240 C246 1.261 . S
C241 O250 1.247 . S
C241 O251 1.272 . S
O242 Co238 2.004 . S
O242 C247 1.259 . S
Co243 O244 2.061 . S
Co243 O249 2.052 . S
Co243 O251 2.135 . S
O244 Co243 2.061 . S
O244 C247 1.235 . S
C245 O248 1.238 . S
C245 O249 1.241 . S
C246 O239 1.247 . S
C246 O240 1.261 . S
C247 O242 1.259 . S
C247 O244 1.235 . S
O248 Co238 2.021 . S
O248 C245 1.238 . S
O249 Co243 2.052 . S
O249 C245 1.241 . S
O250 Co238 2.137 . S
O250 C241 1.247 . S
O251 Co238 2.244 . S
O251 C241 1.272 . S
O251 Co243 2.135 . S
Co252 O253 2.216 . S
Co252 O254 2.091 . S
Co252 O256 2.004 . S
Co252 O262 2.021 . S
Co252 O264 2.137 . S
Co252 O265 2.244 . S
O253 Co252 2.216 . S
O253 C260 1.247 . S
O254 Co252 2.091 . S
O254 C260 1.261 . S
C255 O264 1.247 . S
C255 O265 1.272 . S
O256 Co252 2.004 . S
O256 C261 1.259 . S
Co257 O258 2.061 . S
Co257 O263 2.052 . S
Co257 O265 2.135 . S
O258 Co257 2.061 . S
O258 C261 1.235 . S
C259 O262 1.238 . S
C259 O263 1.241 . S
C260 O253 1.247 . S
C260 O254 1.261 . S
C261 O256 1.259 . S
C261 O258 1.235 . S
O262 Co252 2.021 . S
O262 C259 1.238 . S
O263 Co257 2.052 . S
O263 C259 1.241 . S
O264 Co252 2.137 . S
O264 C255 1.247 . S
O265 Co252 2.244 . S
O265 C255 1.272 . S
O265 Co257 2.135 . S
Co266 O267 2.216 1_545 S
Co266 O268 2.091 1_545 S
Co266 O270 2.004 . S
Co266 O276 2.021 . S
Co266 O278 2.137 . S
Co266 O279 2.244 . S
O267 Co266 2.216 1_565 S
O267 C274 1.247 . S
O268 Co266 2.091 1_565 S
O268 C274 1.261 . S
C269 O278 1.247 . S
C269 O279 1.272 . S
O270 Co266 2.004 . S
O270 C275 1.259 . S
Co271 O272 2.061 . S
Co271 O277 2.052 . S
Co271 O279 2.135 . S
O272 Co271 2.061 . S
O272 C275 1.235 . S
C273 O276 1.238 . S
C273 O277 1.241 . S
C274 O267 1.247 . S
C274 O268 1.261 . S
C275 O270 1.259 . S
C275 O272 1.235 . S
O276 Co266 2.021 . S
O276 C273 1.238 . S
O277 Co271 2.052 . S
O277 C273 1.241 . S
O278 Co266 2.137 . S
O278 C269 1.247 . S
O279 Co266 2.244 . S
O279 C269 1.272 . S
O279 Co271 2.135 . S
Co280 O281 2.216 1_556 S
Co280 O282 2.091 1_556 S
Co280 O284 2.004 . S
Co280 O290 2.021 1_556 S
Co280 O292 2.137 . S
Co280 O293 2.244 . S
O281 Co280 2.216 1_554 S
O281 C288 1.247 . S
O282 Co280 2.091 1_554 S
O282 C288 1.261 . S
C283 O292 1.247 . S
C283 O293 1.272 . S
O284 Co280 2.004 . S
O284 C289 1.259 . S
Co285 O286 2.065 . S
Co285 O291 2.084 . S
Co285 O293 2.111 1_554 S
O286 Co285 2.065 . S
O286 C289 1.234 1_554 S
C287 O290 1.238 . S
C287 O291 1.241 . S
C288 O281 1.247 . S
C288 O282 1.261 . S
C289 O284 1.259 . S
C289 O286 1.234 1_556 S
O290 Co280 2.021 1_554 S
O290 C287 1.238 . S
O291 Co285 2.084 . S
O291 C287 1.241 . S
O292 Co280 2.137 . S
O292 C283 1.247 . S
O293 Co280 2.244 . S
O293 C283 1.272 . S
O293 Co285 2.111 1_556 S
Co294 O295 2.216 . S
Co294 O296 2.091 . S
Co294 O298 2.004 . S
Co294 O304 2.021 . S
Co294 O306 2.137 . S
Co294 O307 2.244 . S
O295 Co294 2.216 . S
O295 C302 1.247 . S
O296 Co294 2.091 . S
O296 C302 1.261 . S
C297 O306 1.247 . S
C297 O307 1.272 . S
O298 Co294 2.004 . S
O298 C303 1.259 . S
Co299 O300 2.061 . S
Co299 O305 2.052 . S
Co299 O307 2.135 . S
O300 Co299 2.061 . S
O300 C303 1.235 . S
C301 O304 1.238 . S
C301 O305 1.241 . S
C302 O295 1.247 . S
C302 O296 1.261 . S
C303 O298 1.259 . S
C303 O300 1.235 . S
O304 Co294 2.021 . S
O304 C301 1.238 . S
O305 Co299 2.052 . S
O305 C301 1.241 . S
O306 Co294 2.137 . S
O306 C297 1.247 . S
O307 Co294 2.244 . S
O307 C297 1.272 . S
O307 Co299 2.135 . S
Co308 O309 2.216 . S
Co308 O310 2.091 . S
Co308 O312 2.004 . S
Co308 O318 2.021 . S
Co308 O320 2.137 . S
Co308 O321 2.244 . S
O309 Co308 2.216 . S
O309 C316 1.247 . S
O310 Co308 2.091 . S
O310 C316 1.261 . S
C311 O320 1.247 . S
C311 O321 1.272 . S
O312 Co308 2.004 . S
O312 C317 1.259 . S
Co313 O314 2.061 . S
Co313 O319 2.052 . S
Co313 O321 2.135 . S
O314 Co313 2.061 . S
O314 C317 1.235 . S
C315 O318 1.238 . S
C315 O319 1.241 . S
C316 O309 1.247 . S
C316 O310 1.261 . S
C317 O312 1.259 . S
C317 O314 1.235 . S
O318 Co308 2.021 . S
O318 C315 1.238 . S
O319 Co313 2.052 . S
O319 C315 1.241 . S
O320 Co308 2.137 . S
O320 C311 1.247 . S
O321 Co308 2.244 . S
O321 C311 1.272 . S
O321 Co313 2.135 . S
Co322 O323 2.216 . S
Co322 O324 2.091 . S
Co322 O326 2.004 . S
Co322 O332 2.021 . S
Co322 O334 2.137 . S
Co322 O335 2.244 . S
O323 Co322 2.216 . S
O323 C330 1.247 . S
O324 Co322 2.091 . S
O324 C330 1.261 . S
C325 O334 1.247 . S
C325 O335 1.272 . S
O326 Co322 2.004 . S
O326 C331 1.259 . S
Co327 O328 2.061 . S
Co327 O333 2.052 . S
Co327 O335 2.135 . S
O328 Co327 2.061 . S
O328 C331 1.235 . S
C329 O332 1.238 . S
C329 O333 1.241 . S
C330 O323 1.247 . S
C330 O324 1.261 . S
C331 O326 1.259 . S
C331 O328 1.235 . S
O332 Co322 2.021 . S
O332 C329 1.238 . S
O333 Co327 2.052 . S
O333 C329 1.241 . S
O334 Co322 2.137 . S
O334 C325 1.247 . S
O335 Co322 2.244 . S
O335 C325 1.272 . S
O335 Co327 2.135 . S
Tb336 O339 2.453 . S
Tb336 O340 2.596 . S
Tb336 O341 2.374 1_554 S
Tb336 O349 2.343 1_455 S
Tb336 O351 2.353 . S
Tb336 O353 2.427 . S
Tb336 O354 2.513 1_554 S
C337 O341 1.251 . S
C337 O343 1.263 . S
Tb338 O340 2.343 1_665 S
Tb338 O343 2.353 1_664 S
Tb338 O346 2.427 1_655 S
Tb338 O347 2.513 1_655 S
Tb338 O348 2.453 1_564 S
Tb338 O349 2.596 1_565 S
Tb338 O350 2.374 1_565 S
O339 Tb336 2.453 . S
O339 C355 1.245 . S
O340 Tb336 2.596 . S
O340 Tb338 2.343 1_445 S
O340 C355 1.259 . S
O341 Tb336 2.374 1_556 S
O341 C337 1.251 . S
C342 O346 1.275 . S
C342 O347 1.246 . S
O343 C337 1.263 . S
O343 Tb338 2.353 1_446 S
C344 O348 1.245 1_554 S
C344 O349 1.259 . S
C345 O350 1.250 . S
C345 O351 1.263 1_655 S
O346 Tb338 2.427 1_455 S
O346 C342 1.275 . S
O347 Tb338 2.513 1_455 S
O347 C342 1.246 . S
O348 Tb338 2.453 1_546 S
O348 C344 1.245 1_556 S
O349 Tb336 2.343 1_655 S
O349 Tb338 2.596 1_545 S
O349 C344 1.259 . S
O350 Tb338 2.374 1_545 S
O350 C345 1.250 . S
O351 Tb336 2.353 . S
O351 C345 1.263 1_455 S
C352 O353 1.298 . S
C352 O354 1.230 1_554 S
O353 Tb336 2.427 . S
O353 C352 1.298 . S
O354 Tb336 2.513 1_556 S
O354 C352 1.230 1_556 S
C355 O339 1.245 . S
C355 O340 1.259 . S
Tb356 O359 2.453 . S
Tb356 O360 2.596 . S
Tb356 O361 2.374 . S
Tb356 O369 2.343 . S
Tb356 O371 2.353 . S
Tb356 O373 2.427 . S
Tb356 O374 2.513 . S
C357 O361 1.251 . S
C357 O363 1.263 . S
Tb358 O360 2.343 . S
Tb358 O363 2.353 . S
Tb358 O366 2.427 . S
Tb358 O367 2.513 . S
Tb358 O368 2.453 . S
Tb358 O369 2.596 . S
Tb358 O370 2.374 . S
O359 Tb356 2.453 . S
O359 C375 1.245 . S
O360 Tb356 2.596 . S
O360 Tb358 2.343 . S
O360 C375 1.259 . S
O361 Tb356 2.374 . S
O361 C357 1.251 . S
C362 O366 1.275 . S
C362 O367 1.246 . S
O363 C357 1.263 . S
O363 Tb358 2.353 . S
C364 O368 1.245 . S
C364 O369 1.259 . S
C365 O370 1.250 . S
C365 O371 1.263 . S
O366 Tb358 2.427 . S
O366 C362 1.275 . S
O367 Tb358 2.513 . S
O367 C362 1.246 . S
O368 Tb358 2.453 . S
O368 C364 1.245 . S
O369 Tb356 2.343 . S
O369 Tb358 2.596 . S
O369 C364 1.259 . S
O370 Tb358 2.374 . S
O370 C365 1.250 . S
O371 Tb356 2.353 . S
O371 C365 1.263 . S
C372 O373 1.275 . S
C372 O374 1.246 . S
O373 Tb356 2.427 . S
O373 C372 1.275 . S
O374 Tb356 2.513 . S
O374 C372 1.246 . S
C375 O359 1.245 . S
C375 O360 1.259 . S
Tb376 O379 2.453 . S
Tb376 O380 2.596 . S
Tb376 O381 2.374 . S
Tb376 O389 2.343 . S
Tb376 O391 2.353 . S
Tb376 O393 2.427 . S
Tb376 O394 2.513 . S
C377 O381 1.251 . S
C377 O383 1.263 . S
Tb378 O380 2.343 . S
Tb378 O383 2.353 . S
Tb378 O386 2.427 . S
Tb378 O387 2.513 . S
Tb378 O388 2.453 1_545 S
Tb378 O389 2.596 . S
Tb378 O390 2.374 . S
O379 Tb376 2.453 . S
O379 C395 1.245 . S
O380 Tb376 2.596 . S
O380 Tb378 2.343 . S
O380 C395 1.259 . S
O381 Tb376 2.374 . S
O381 C377 1.251 . S
C382 O386 1.275 . S
C382 O387 1.246 . S
O383 C377 1.263 . S
O383 Tb378 2.353 . S
C384 O388 1.245 . S
C384 O389 1.259 1_565 S
C385 O390 1.250 . S
C385 O391 1.263 . S
O386 Tb378 2.427 . S
O386 C382 1.275 . S
O387 Tb378 2.513 . S
O387 C382 1.246 . S
O388 Tb378 2.453 1_565 S
O388 C384 1.245 . S
O389 Tb376 2.343 . S
O389 Tb378 2.596 . S
O389 C384 1.259 1_545 S
O390 Tb378 2.374 . S
O390 C385 1.250 . S
O391 Tb376 2.353 . S
O391 C385 1.263 . S
C392 O393 1.282 . S
C392 O394 1.247 . S
O393 Tb376 2.427 . S
O393 C392 1.282 . S
O394 Tb376 2.513 . S
O394 C392 1.247 . S
C395 O379 1.245 . S
C395 O380 1.259 . S
Tb396 O399 2.453 . S
Tb396 O400 2.596 . S
Tb396 O401 2.374 . S
Tb396 O409 2.343 . S
Tb396 O411 2.353 . S
Tb396 O413 2.427 . S
Tb396 O414 2.513 . S
C397 O401 1.251 . S
C397 O403 1.263 . S
Tb398 O400 2.343 . S
Tb398 O403 2.353 . S
Tb398 O406 2.427 . S
Tb398 O407 2.513 . S
Tb398 O408 2.453 . S
Tb398 O409 2.596 . S
Tb398 O410 2.374 . S
O399 Tb396 2.453 . S
O399 C415 1.245 . S
O400 Tb396 2.596 . S
O400 Tb398 2.343 . S
O400 C415 1.259 . S
O401 Tb396 2.374 . S
O401 C397 1.251 . S
C402 O406 1.275 . S
C402 O407 1.246 . S
O403 C397 1.263 . S
O403 Tb398 2.353 . S
C404 O408 1.245 . S
C404 O409 1.259 . S
C405 O410 1.250 . S
C405 O411 1.263 . S
O406 Tb398 2.427 . S
O406 C402 1.275 . S
O407 Tb398 2.513 . S
O407 C402 1.246 . S
O408 Tb398 2.453 . S
O408 C404 1.245 . S
O409 Tb396 2.343 . S
O409 Tb398 2.596 . S
O409 C404 1.259 . S
O410 Tb398 2.374 . S
O410 C405 1.250 . S
O411 Tb396 2.353 . S
O411 C405 1.263 . S
C412 O413 1.275 . S
C412 O414 1.246 . S
O413 Tb396 2.427 . S
O413 C412 1.275 . S
O414 Tb396 2.513 . S
O414 C412 1.246 . S
C415 O399 1.245 . S
C415 O400 1.259 . S
Tb416 O419 2.453 1_545 S
Tb416 O420 2.596 . S
Tb416 O421 2.374 1_455 S
Tb416 O429 2.343 . S
Tb416 O431 2.353 . S
Tb416 O433 2.427 . S
Tb416 O434 2.513 1_455 S
C417 O421 1.251 . S
C417 O423 1.263 . S
Tb418 O420 2.343 . S
Tb418 O423 2.353 1_455 S
Tb418 O426 2.427 . S
Tb418 O427 2.513 . S
Tb418 O428 2.453 . S
Tb418 O429 2.596 . S
Tb418 O430 2.374 . S
O419 Tb416 2.453 1_565 S
O419 C435 1.245 . S
O420 Tb416 2.596 . S
O420 Tb418 2.343 . S
O420 C435 1.259 1_545 S
O421 Tb416 2.374 1_655 S
O421 C417 1.251 . S
C422 O426 1.275 . S
C422 O427 1.246 . S
O423 C417 1.263 . S
O423 Tb418 2.353 1_655 S
C424 O428 1.245 . S
C424 O429 1.259 . S
C425 O430 1.250 . S
C425 O431 1.263 . S
O426 Tb418 2.427 . S
O426 C422 1.275 . S
O427 Tb418 2.513 . S
O427 C422 1.246 . S
O428 Tb418 2.453 . S
O428 C424 1.245 . S
O429 Tb416 2.343 . S
O429 Tb418 2.596 . S
O429 C424 1.259 . S
O430 Tb418 2.374 . S
O430 C425 1.250 . S
O431 Tb416 2.353 . S
O431 C425 1.263 . S
C432 O433 1.275 1_655 S
C432 O434 1.246 . S
O433 Tb416 2.427 . S
O433 C432 1.275 1_455 S
O434 Tb416 2.513 1_655 S
O434 C432 1.246 . S
C435 O419 1.245 . S
C435 O420 1.259 1_565 S
Tb436 O439 2.453 . S
Tb436 O440 2.596 . S
Tb436 O441 2.374 . S
Tb436 O449 2.343 . S
Tb436 O451 2.353 . S
Tb436 O453 2.427 . S
Tb436 O454 2.513 . S
C437 O441 1.251 . S
C437 O443 1.263 . S
Tb438 O440 2.343 . S
Tb438 O443 2.353 . S
Tb438 O446 2.427 . S
Tb438 O447 2.513 . S
Tb438 O448 2.453 . S
Tb438 O449 2.596 . S
Tb438 O450 2.374 . S
O439 Tb436 2.453 . S
O439 C455 1.245 . S
O440 Tb436 2.596 . S
O440 Tb438 2.343 . S
O440 C455 1.259 . S
O441 Tb436 2.374 . S
O441 C437 1.251 . S
C442 O446 1.275 . S
C442 O447 1.246 . S
O443 C437 1.263 . S
O443 Tb438 2.353 . S
C444 O448 1.245 . S
C444 O449 1.259 . S
C445 O450 1.250 . S
C445 O451 1.263 . S
O446 Tb438 2.427 . S
O446 C442 1.275 . S
O447 Tb438 2.513 . S
O447 C442 1.246 . S
O448 Tb438 2.453 . S
O448 C444 1.245 . S
O449 Tb436 2.343 . S
O449 Tb438 2.596 . S
O449 C444 1.259 . S
O450 Tb438 2.374 . S
O450 C445 1.250 . S
O451 Tb436 2.353 . S
O451 C445 1.263 . S
C452 O453 1.275 . S
C452 O454 1.246 . S
O453 Tb436 2.427 . S
O453 C452 1.275 . S
O454 Tb436 2.513 . S
O454 C452 1.246 . S
C455 O439 1.245 . S
C455 O440 1.259 . S
Tb456 O459 2.453 . S
Tb456 O460 2.596 . S
Tb456 O461 2.374 1_545 S
Tb456 O469 2.343 1_556 S
Tb456 O471 2.353 1_556 S
Tb456 O473 2.427 1_556 S
Tb456 O474 2.513 1_546 S
C457 O461 1.251 . S
C457 O463 1.263 1_556 S
Tb458 O460 2.343 1_554 S
Tb458 O463 2.353 1_545 S
Tb458 O466 2.427 . S
Tb458 O467 2.513 . S
Tb458 O468 2.453 . S
Tb458 O469 2.596 . S
Tb458 O470 2.374 . S
O459 Tb456 2.453 . S
O459 C475 1.245 . S
O460 Tb456 2.596 . S
O460 Tb458 2.343 1_556 S
O460 C475 1.259 . S
O461 Tb456 2.374 1_565 S
O461 C457 1.251 . S
C462 O466 1.275 . S
C462 O467 1.246 . S
O463 C457 1.263 1_554 S
O463 Tb458 2.353 1_565 S
C464 O468 1.245 . S
C464 O469 1.259 . S
C465 O470 1.250 . S
C465 O471 1.263 . S
O466 Tb458 2.427 . S
O466 C462 1.275 . S
O467 Tb458 2.513 . S
O467 C462 1.246 . S
O468 Tb458 2.453 . S
O468 C464 1.245 . S
O469 Tb456 2.343 1_554 S
O469 Tb458 2.596 . S
O469 C464 1.259 . S
O470 Tb458 2.374 . S
O470 C465 1.250 . S
O471 Tb456 2.353 1_554 S
O471 C465 1.263 . S
C472 O473 1.275 . S
C472 O474 1.246 1_545 S
O473 Tb456 2.427 1_554 S
O473 C472 1.275 . S
O474 Tb456 2.513 1_564 S
O474 C472 1.246 1_565 S
C475 O459 1.245 . S
C475 O460 1.259 . S
Tb476 O479 2.453 . S
Tb476 O480 2.596 . S
Tb476 O481 2.374 . S
Tb476 O489 2.343 . S
Tb476 O491 2.353 . S
Tb476 O493 2.427 . S
Tb476 O494 2.513 . S
C477 O481 1.251 . S
C477 O483 1.263 . S
Tb478 O480 2.343 . S
Tb478 O483 2.353 . S
Tb478 O486 2.427 . S
Tb478 O487 2.513 . S
Tb478 O488 2.453 . S
Tb478 O489 2.596 . S
Tb478 O490 2.374 . S
O479 Tb476 2.453 . S
O479 C495 1.245 . S
O480 Tb476 2.596 . S
O480 Tb478 2.343 . S
O480 C495 1.259 . S
O481 Tb476 2.374 . S
O481 C477 1.251 . S
C482 O486 1.275 . S
C482 O487 1.246 . S
O483 C477 1.263 . S
O483 Tb478 2.353 . S
C484 O488 1.245 . S
C484 O489 1.259 . S
C485 O490 1.250 . S
C485 O491 1.263 . S
O486 Tb478 2.427 . S
O486 C482 1.275 . S
O487 Tb478 2.513 . S
O487 C482 1.246 . S
O488 Tb478 2.453 . S
O488 C484 1.245 . S
O489 Tb476 2.343 . S
O489 Tb478 2.596 . S
O489 C484 1.259 . S
O490 Tb478 2.374 . S
O490 C485 1.250 . S
O491 Tb476 2.353 . S
O491 C485 1.263 . S
C492 O493 1.275 . S
C492 O494 1.246 . S
O493 Tb476 2.427 . S
O493 C492 1.275 . S
O494 Tb476 2.513 . S
O494 C492 1.246 . S
C495 O479 1.245 . S
C495 O480 1.259 . S
Tb496 O499 2.453 1_556 S
Tb496 O500 2.596 1_556 S
Tb496 O501 2.396 . S
Tb496 O509 2.343 . S
Tb496 O511 2.353 . S
Tb496 O513 2.427 . S
Tb496 O514 2.513 . S
C497 O501 1.212 1_554 S
C497 O503 1.263 . S
Tb498 O500 2.343 . S
Tb498 O503 2.353 . S
Tb498 O506 2.427 . S
Tb498 O507 2.513 . S
Tb498 O508 2.453 . S
Tb498 O509 2.596 1_554 S
Tb498 O510 2.374 . S
O499 Tb496 2.453 1_554 S
O499 C515 1.245 . S
O500 Tb496 2.596 1_554 S
O500 Tb498 2.343 . S
O500 C515 1.259 . S
O501 Tb496 2.396 . S
O501 C497 1.212 1_556 S
C502 O506 1.275 . S
C502 O507 1.246 . S
O503 C497 1.263 . S
O503 Tb498 2.353 . S
C504 O508 1.287 . S
C504 O509 1.257 1_554 S
C505 O510 1.250 . S
C505 O511 1.263 1_554 S
O506 Tb498 2.427 . S
O506 C502 1.275 . S
O507 Tb498 2.513 . S
O507 C502 1.246 . S
O508 Tb498 2.453 . S
O508 C504 1.287 . S
O509 Tb496 2.343 . S
O509 Tb498 2.596 1_556 S
O509 C504 1.257 1_556 S
O510 Tb498 2.374 . S
O510 C505 1.250 . S
O511 Tb496 2.353 . S
O511 C505 1.263 1_556 S
C512 O513 1.275 . S
C512 O514 1.246 . S
O513 Tb496 2.427 . S
O513 C512 1.275 . S
O514 Tb496 2.513 . S
O514 C512 1.246 . S
C515 O499 1.245 . S
C515 O500 1.259 . S
Tb516 O519 2.453 . S
Tb516 O520 2.596 . S
Tb516 O521 2.374 . S
Tb516 O529 2.343 . S
Tb516 O531 2.353 . S
Tb516 O533 2.427 . S
Tb516 O534 2.513 . S
C517 O521 1.251 . S
C517 O523 1.263 . S
Tb518 O520 2.343 . S
Tb518 O523 2.353 . S
Tb518 O526 2.427 . S
Tb518 O527 2.513 . S
Tb518 O528 2.453 . S
Tb518 O529 2.596 . S
Tb518 O530 2.374 . S
O519 Tb516 2.453 . S
O519 C535 1.245 . S
O520 Tb516 2.596 . S
O520 Tb518 2.343 . S
O520 C535 1.259 . S
O521 Tb516 2.374 . S
O521 C517 1.251 . S
C522 O526 1.275 . S
C522 O527 1.246 . S
O523 C517 1.263 . S
O523 Tb518 2.353 . S
C524 O528 1.245 . S
C524 O529 1.259 . S
C525 O530 1.250 . S
C525 O531 1.263 . S
O526 Tb518 2.427 . S
O526 C522 1.275 . S
O527 Tb518 2.513 . S
O527 C522 1.246 . S
O528 Tb518 2.453 . S
O528 C524 1.245 . S
O529 Tb516 2.343 . S
O529 Tb518 2.596 . S
O529 C524 1.259 . S
O530 Tb518 2.374 . S
O530 C525 1.250 . S
O531 Tb516 2.353 . S
O531 C525 1.263 . S
C532 O533 1.275 . S
C532 O534 1.246 . S
O533 Tb516 2.427 . S
O533 C532 1.275 . S
O534 Tb516 2.513 . S
O534 C532 1.246 . S
C535 O519 1.245 . S
C535 O520 1.259 . S
Tb536 O539 2.461 . S
Tb536 O540 2.596 1_655 S
Tb536 O541 2.374 . S
Tb536 O549 2.343 . S
Tb536 O551 2.353 . S
Tb536 O553 2.427 . S
Tb536 O554 2.513 . S
C537 O541 1.251 1_455 S
C537 O543 1.263 . S
Tb538 O540 2.343 . S
Tb538 O543 2.353 . S
Tb538 O546 2.427 . S
Tb538 O547 2.513 . S
Tb538 O548 2.453 . S
Tb538 O549 2.596 1_455 S
Tb538 O550 2.374 . S
O539 Tb536 2.461 . S
O539 C555 1.233 1_655 S
O540 Tb536 2.596 1_455 S
O540 Tb538 2.343 . S
O540 C555 1.259 . S
O541 Tb536 2.374 . S
O541 C537 1.251 1_655 S
C542 O546 1.275 . S
C542 O547 1.246 . S
O543 C537 1.263 . S
O543 Tb538 2.353 . S
C544 O548 1.245 1_655 S
C544 O549 1.259 . S
C545 O550 1.250 . S
C545 O551 1.263 1_455 S
O546 Tb538 2.427 . S
O546 C542 1.275 . S
O547 Tb538 2.513 . S
O547 C542 1.246 . S
O548 Tb538 2.453 . S
O548 C544 1.245 1_455 S
O549 Tb536 2.343 . S
O549 Tb538 2.596 1_655 S
O549 C544 1.259 . S
O550 Tb538 2.374 . S
O550 C545 1.250 . S
O551 Tb536 2.353 . S
O551 C545 1.263 1_655 S
C552 O553 1.275 . S
C552 O554 1.246 . S
O553 Tb536 2.427 . S
O553 C552 1.275 . S
O554 Tb536 2.513 . S
O554 C552 1.246 . S
C555 O539 1.233 1_455 S
C555 O540 1.259 . S
Tb556 O559 2.453 . S
Tb556 O560 2.596 . S
Tb556 O561 2.374 . S
Tb556 O569 2.343 . S
Tb556 O571 2.353 . S
Tb556 O573 2.427 . S
Tb556 O574 2.513 . S
C557 O561 1.251 . S
C557 O563 1.263 . S
Tb558 O560 2.343 . S
Tb558 O563 2.353 . S
Tb558 O566 2.427 . S
Tb558 O567 2.513 . S
Tb558 O568 2.453 . S
Tb558 O569 2.596 . S
Tb558 O570 2.374 . S
O559 Tb556 2.453 . S
O559 C575 1.245 . S
O560 Tb556 2.596 . S
O560 Tb558 2.343 . S
O560 C575 1.259 . S
O561 Tb556 2.374 . S
O561 C557 1.251 . S
C562 O566 1.275 . S
C562 O567 1.246 . S
O563 C557 1.263 . S
O563 Tb558 2.353 . S
C564 O568 1.245 . S
C564 O569 1.259 . S
C565 O570 1.250 . S
C565 O571 1.263 . S
O566 Tb558 2.427 . S
O566 C562 1.275 . S
O567 Tb558 2.513 . S
O567 C562 1.246 . S
O568 Tb558 2.453 . S
O568 C564 1.245 . S
O569 Tb556 2.343 . S
O569 Tb558 2.596 . S
O569 C564 1.259 . S
O570 Tb558 2.374 . S
O570 C565 1.250 . S
O571 Tb556 2.353 . S
O571 C565 1.263 . S
C572 O573 1.275 . S
C572 O574 1.246 . S
O573 Tb556 2.427 . S
O573 C572 1.275 . S
O574 Tb556 2.513 . S
O574 C572 1.246 . S
C575 O559 1.245 . S
C575 O560 1.259 . S
Tb576 O579 2.453 . S
Tb576 O580 2.596 . S
Tb576 O581 2.374 . S
Tb576 O589 2.343 . S
Tb576 O591 2.353 . S
Tb576 O593 2.427 . S
Tb576 O594 2.513 . S
C577 O581 1.251 . S
C577 O583 1.263 . S
Tb578 O580 2.343 . S
Tb578 O583 2.353 . S
Tb578 O586 2.427 . S
Tb578 O587 2.513 . S
Tb578 O588 2.453 . S
Tb578 O589 2.596 . S
Tb578 O590 2.374 . S
O579 Tb576 2.453 . S
O579 C595 1.245 . S
O580 Tb576 2.596 . S
O580 Tb578 2.343 . S
O580 C595 1.259 . S
O581 Tb576 2.374 . S
O581 C577 1.251 . S
C582 O586 1.275 . S
C582 O587 1.246 . S
O583 C577 1.263 . S
O583 Tb578 2.353 . S
C584 O588 1.245 . S
C584 O589 1.259 . S
C585 O590 1.250 . S
C585 O591 1.263 . S
O586 Tb578 2.427 . S
O586 C582 1.275 . S
O587 Tb578 2.513 . S
O587 C582 1.246 . S
O588 Tb578 2.453 . S
O588 C584 1.245 . S
O589 Tb576 2.343 . S
O589 Tb578 2.596 . S
O589 C584 1.259 . S
O590 Tb578 2.374 . S
O590 C585 1.250 . S
O591 Tb576 2.353 . S
O591 C585 1.263 . S
C592 O593 1.275 . S
C592 O594 1.246 . S
O593 Tb576 2.427 . S
O593 C592 1.275 . S
O594 Tb576 2.513 . S
O594 C592 1.246 . S
C595 O579 1.245 . S
C595 O580 1.259 . S
Tb596 O599 2.453 . S
Tb596 O600 2.596 . S
Tb596 O601 2.374 . S
Tb596 O609 2.343 . S
Tb596 O611 2.353 . S
Tb596 O613 2.427 . S
Tb596 O614 2.513 . S
C597 O601 1.251 . S
C597 O603 1.263 . S
Tb598 O600 2.343 . S
Tb598 O603 2.353 . S
Tb598 O606 2.427 . S
Tb598 O607 2.513 . S
Tb598 O608 2.453 . S
Tb598 O609 2.596 . S
Tb598 O610 2.374 . S
O599 Tb596 2.453 . S
O599 C615 1.245 . S
O600 Tb596 2.596 . S
O600 Tb598 2.343 . S
O600 C615 1.259 . S
O601 Tb596 2.374 . S
O601 C597 1.251 . S
C602 O606 1.275 . S
C602 O607 1.246 . S
O603 C597 1.263 . S
O603 Tb598 2.353 . S
C604 O608 1.245 . S
C604 O609 1.259 . S
C605 O610 1.250 . S
C605 O611 1.263 . S
O606 Tb598 2.427 . S
O606 C602 1.275 . S
O607 Tb598 2.513 . S
O607 C602 1.246 . S
O608 Tb598 2.453 . S
O608 C604 1.245 . S
O609 Tb596 2.343 . S
O609 Tb598 2.596 . S
O609 C604 1.259 . S
O610 Tb598 2.374 . S
O610 C605 1.250 . S
O611 Tb596 2.353 . S
O611 C605 1.263 . S
C612 O613 1.275 . S
C612 O614 1.246 . S
O613 Tb596 2.427 . S
O613 C612 1.275 . S
O614 Tb596 2.513 . S
O614 C612 1.246 . S
C615 O599 1.245 . S
C615 O600 1.259 . S
Tb616 O619 2.453 . S
Tb616 O620 2.596 . S
Tb616 O621 2.374 . S
Tb616 O629 2.343 . S
Tb616 O631 2.353 . S
Tb616 O633 2.427 . S
Tb616 O634 2.513 . S
C617 O621 1.251 . S
C617 O623 1.263 . S
Tb618 O620 2.343 . S
Tb618 O623 2.353 . S
Tb618 O626 2.427 . S
Tb618 O627 2.513 . S
Tb618 O628 2.453 . S
Tb618 O629 2.596 . S
Tb618 O630 2.374 . S
O619 Tb616 2.453 . S
O619 C635 1.245 . S
O620 Tb616 2.596 . S
O620 Tb618 2.343 . S
O620 C635 1.259 . S
O621 Tb616 2.374 . S
O621 C617 1.251 . S
C622 O626 1.275 . S
C622 O627 1.246 . S
O623 C617 1.263 . S
O623 Tb618 2.353 . S
C624 O628 1.245 . S
C624 O629 1.259 . S
C625 O630 1.250 . S
C625 O631 1.263 . S
O626 Tb618 2.427 . S
O626 C622 1.275 . S
O627 Tb618 2.513 . S
O627 C622 1.246 . S
O628 Tb618 2.453 . S
O628 C624 1.245 . S
O629 Tb616 2.343 . S
O629 Tb618 2.596 . S
O629 C624 1.259 . S
O630 Tb618 2.374 . S
O630 C625 1.250 . S
O631 Tb616 2.353 . S
O631 C625 1.263 . S
C632 O633 1.275 . S
C632 O634 1.246 . S
O633 Tb616 2.427 . S
O633 C632 1.275 . S
O634 Tb616 2.513 . S
O634 C632 1.246 . S
C635 O619 1.245 . S
C635 O620 1.259 . S
Tb636 O639 2.453 . S
Tb636 O640 2.596 . S
Tb636 O641 2.374 . S
Tb636 O649 2.343 . S
Tb636 O651 2.353 1_554 S
Tb636 O653 2.427 1_554 S
Tb636 O654 2.513 . S
C637 O641 1.251 . S
C637 O643 1.263 1_455 S
Tb638 O640 2.343 1_655 S
Tb638 O643 2.353 . S
Tb638 O646 2.427 . S
Tb638 O647 2.513 . S
Tb638 O648 2.453 . S
Tb638 O649 2.596 1_655 S
Tb638 O650 2.374 1_554 S
O639 Tb636 2.453 . S
O639 C655 1.245 . S
O640 Tb636 2.596 . S
O640 Tb638 2.343 1_455 S
O640 C655 1.259 . S
O641 Tb636 2.374 . S
O641 C637 1.251 . S
C642 O646 1.275 . S
C642 O647 1.246 . S
O643 C637 1.263 1_655 S
O643 Tb638 2.353 . S
C644 O648 1.286 1_556 S
C644 O649 1.240 1_656 S
C645 O650 1.250 . S
C645 O651 1.263 1_655 S
O646 Tb638 2.427 . S
O646 C642 1.275 . S
O647 Tb638 2.513 . S
O647 C642 1.246 . S
O648 Tb638 2.453 . S
O648 C644 1.286 1_554 S
O649 Tb636 2.343 . S
O649 Tb638 2.596 1_455 S
O649 C644 1.240 1_454 S
O650 Tb638 2.374 1_556 S
O650 C645 1.250 . S
O651 Tb636 2.353 1_556 S
O651 C645 1.263 1_455 S
C652 O653 1.284 . S
C652 O654 1.233 1_556 S
O653 Tb636 2.427 1_556 S
O653 C652 1.284 . S
O654 Tb636 2.513 . S
O654 C652 1.233 1_554 S
C655 O639 1.245 . S
C655 O640 1.259 . S
H656 C668 0.930 . S
H657 C670 0.930 . S
H658 C671 0.930 . S
H659 C675 0.959 . S
H660 C675 0.959 . S
H661 C675 0.961 . S
H662 C676 0.960 . S
H663 C676 0.961 . S
H664 C676 0.959 . S
H665 C679 0.929 . S
H666 C680 0.931 1_554 S
H667 C682 0.930 . S
C668 H656 0.930 . S
C668 C669 1.399 1_655 S
C668 C673 1.399 . S
C669 C668 1.399 1_455 S
C669 C670 1.376 . S
C670 H657 0.930 . S
C670 C669 1.376 . S
C670 C671 1.388 . S
C671 H658 0.930 . S
C671 C670 1.388 . S
C671 C672 1.390 . S
C672 C671 1.390 . S
C672 C673 1.394 1_455 S
C672 C678 1.465 . S
C673 C668 1.399 . S
C673 C672 1.394 1_655 S
C673 C674 1.516 . S
C674 C673 1.516 . S
C674 C675 1.502 . S
C674 C676 1.561 . S
C674 C677 1.526 . S
C675 H659 0.959 . S
C675 H660 0.959 . S
C675 H661 0.961 . S
C675 C674 1.502 . S
C676 H662 0.960 . S
C676 H663 0.961 . S
C676 H664 0.959 . S
C676 C674 1.561 . S
C677 C674 1.526 . S
C677 C678 1.396 1_655 S
C677 C682 1.390 . S
C678 C672 1.465 . S
C678 C677 1.396 1_455 S
C678 C679 1.399 . S
C679 H665 0.929 . S
C679 C678 1.399 . S
C679 C680 1.385 . S
C680 H666 0.931 1_556 S
C680 C679 1.385 . S
C680 C681 1.389 . S
C681 C680 1.389 . S
C681 C682 1.387 1_455 S
C682 H667 0.930 . S
C682 C677 1.390 . S
C682 C681 1.387 1_655 S
H683 C695 0.930 . S
H684 C697 0.930 . S
H685 C698 0.930 . S
H686 C702 0.959 . S
H687 C702 0.959 . S
H688 C702 0.961 . S
H689 C703 0.960 . S
H690 C703 0.961 . S
H691 C703 0.959 . S
H692 C706 0.929 . S
H693 C707 0.931 . S
H694 C709 0.930 . S
C695 H683 0.930 . S
C695 C696 1.399 . S
C695 C700 1.399 . S
C696 C695 1.399 . S
C696 C697 1.376 . S
C697 H684 0.930 . S
C697 C696 1.376 . S
C697 C698 1.388 . S
C698 H685 0.930 . S
C698 C697 1.388 . S
C698 C699 1.390 . S
C699 C698 1.390 . S
C699 C700 1.394 . S
C699 C705 1.465 . S
C700 C695 1.399 . S
C700 C699 1.394 . S
C700 C701 1.516 . S
C701 C700 1.516 . S
C701 C702 1.502 . S
C701 C703 1.561 . S
C701 C704 1.526 . S
C702 H686 0.959 . S
C702 H687 0.959 . S
C702 H688 0.961 . S
C702 C701 1.502 . S
C703 H689 0.960 . S
C703 H690 0.961 . S
C703 H691 0.959 . S
C703 C701 1.561 . S
C704 C701 1.526 . S
C704 C705 1.396 . S
C704 C709 1.390 . S
C705 C699 1.465 . S
C705 C704 1.396 . S
C705 C706 1.399 . S
C706 H692 0.929 . S
C706 C705 1.399 . S
C706 C707 1.385 . S
C707 H693 0.931 . S
C707 C706 1.385 . S
C707 C708 1.389 . S
C708 C707 1.389 . S
C708 C709 1.387 . S
C709 H694 0.930 . S
C709 C704 1.390 . S
C709 C708 1.387 . S
H710 C722 0.930 . S
H711 C724 0.930 . S
H712 C725 0.930 . S
H713 C729 0.959 . S
H714 C729 0.959 . S
H715 C729 0.961 . S
H716 C730 0.960 . S
H717 C730 0.961 . S
H718 C730 0.959 . S
H719 C733 0.929 . S
H720 C734 0.931 . S
H721 C736 0.930 . S
C722 H710 0.930 . S
C722 C723 1.399 . S
C722 C727 1.399 . S
C723 C722 1.399 . S
C723 C724 1.376 . S
C724 H711 0.930 . S
C724 C723 1.376 . S
C724 C725 1.388 . S
C725 H712 0.930 . S
C725 C724 1.388 . S
C725 C726 1.390 . S
C726 C725 1.390 . S
C726 C727 1.394 . S
C726 C732 1.465 . S
C727 C722 1.399 . S
C727 C726 1.394 . S
C727 C728 1.516 . S
C728 C727 1.516 . S
C728 C729 1.502 . S
C728 C730 1.561 . S
C728 C731 1.526 . S
C729 H713 0.959 . S
C729 H714 0.959 . S
C729 H715 0.961 . S
C729 C728 1.502 . S
C730 H716 0.960 . S
C730 H717 0.961 . S
C730 H718 0.959 . S
C730 C728 1.561 . S
C731 C728 1.526 . S
C731 C732 1.396 . S
C731 C736 1.390 . S
C732 C726 1.465 . S
C732 C731 1.396 . S
C732 C733 1.399 . S
C733 H719 0.929 . S
C733 C732 1.399 . S
C733 C734 1.385 . S
C734 H720 0.931 . S
C734 C733 1.385 . S
C734 C735 1.389 . S
C735 C734 1.389 . S
C735 C736 1.387 . S
C736 H721 0.930 . S
C736 C731 1.390 . S
C736 C735 1.387 . S
H737 C749 0.930 . S
H738 C751 0.930 . S
H739 C752 0.930 . S
H740 C756 0.959 . S
H741 C756 0.959 . S
H742 C756 0.961 . S
H743 C757 0.960 . S
H744 C757 0.961 . S
H745 C757 0.959 . S
H746 C760 0.929 . S
H747 C761 0.931 . S
H748 C763 0.930 . S
C749 H737 0.930 . S
C749 C750 1.399 . S
C749 C754 1.399 . S
C750 C749 1.399 . S
C750 C751 1.376 . S
C751 H738 0.930 . S
C751 C750 1.376 . S
C751 C752 1.388 . S
C752 H739 0.930 . S
C752 C751 1.388 . S
C752 C753 1.390 . S
C753 C752 1.390 . S
C753 C754 1.394 . S
C753 C759 1.465 . S
C754 C749 1.399 . S
C754 C753 1.394 . S
C754 C755 1.516 . S
C755 C754 1.516 . S
C755 C756 1.502 . S
C755 C757 1.561 . S
C755 C758 1.526 . S
C756 H740 0.959 . S
C756 H741 0.959 . S
C756 H742 0.961 . S
C756 C755 1.502 . S
C757 H743 0.960 . S
C757 H744 0.961 . S
C757 H745 0.959 . S
C757 C755 1.561 . S
C758 C755 1.526 . S
C758 C759 1.396 . S
C758 C763 1.390 . S
C759 C753 1.465 . S
C759 C758 1.396 . S
C759 C760 1.399 . S
C760 H746 0.929 . S
C760 C759 1.399 . S
C760 C761 1.385 . S
C761 H747 0.931 . S
C761 C760 1.385 . S
C761 C762 1.389 . S
C762 C761 1.389 . S
C762 C763 1.387 . S
C763 H748 0.930 . S
C763 C758 1.390 . S
C763 C762 1.387 . S
H764 C776 0.927 . S
H765 C778 0.930 . S
H766 C779 0.930 . S
H767 C783 0.959 . S
H768 C783 0.959 . S
H769 C783 0.961 . S
H770 C784 0.960 . S
H771 C784 0.961 . S
H772 C784 0.959 . S
H773 C787 0.929 . S
H774 C788 0.931 . S
H775 C790 0.930 1_655 S
C776 H764 0.927 . S
C776 C777 1.401 1_655 S
C776 C781 1.399 1_655 S
C777 C776 1.401 1_455 S
C777 C778 1.376 . S
C778 H765 0.930 . S
C778 C777 1.376 . S
C778 C779 1.388 . S
C779 H766 0.930 . S
C779 C778 1.388 . S
C779 C780 1.390 . S
C780 C779 1.390 . S
C780 C781 1.394 . S
C780 C786 1.465 . S
C781 C776 1.399 1_455 S
C781 C780 1.394 . S
C781 C782 1.508 1_455 S
C782 C781 1.508 1_655 S
C782 C783 1.525 . S
C782 C784 1.551 1_655 S
C782 C785 1.519 1_655 S
C783 H767 0.959 . S
C783 H768 0.959 . S
C783 H769 0.961 . S
C783 C782 1.525 . S
C784 H770 0.960 . S
C784 H771 0.961 . S
C784 H772 0.959 . S
C784 C782 1.551 1_455 S
C785 C782 1.519 1_455 S
C785 C786 1.396 . S
C785 C790 1.390 . S
C786 C780 1.465 . S
C786 C785 1.396 . S
C786 C787 1.399 . S
C787 H773 0.929 . S
C787 C786 1.399 . S
C787 C788 1.385 . S
C788 H774 0.931 . S
C788 C787 1.385 . S
C788 C789 1.389 . S
C789 C788 1.389 . S
C789 C790 1.387 . S
C790 H775 0.930 1_455 S
C790 C785 1.390 . S
C790 C789 1.387 . S
H791 C803 0.930 . S
H792 C805 0.930 . S
H793 C806 0.930 . S
H794 C810 0.959 . S
H795 C810 0.959 . S
H796 C810 0.961 . S
H797 C811 0.960 . S
H798 C811 0.961 . S
H799 C811 0.959 . S
H800 C814 0.929 . S
H801 C815 0.931 . S
H802 C817 0.930 . S
C803 H791 0.930 . S
C803 C804 1.399 . S
C803 C808 1.399 . S
C804 C803 1.399 . S
C804 C805 1.376 . S
C805 H792 0.930 . S
C805 C804 1.376 . S
C805 C806 1.388 . S
C806 H793 0.930 . S
C806 C805 1.388 . S
C806 C807 1.390 . S
C807 C806 1.390 . S
C807 C808 1.394 . S
C807 C813 1.465 . S
C808 C803 1.399 . S
C808 C807 1.394 . S
C808 C809 1.516 . S
C809 C808 1.516 . S
C809 C810 1.502 . S
C809 C811 1.561 . S
C809 C812 1.526 . S
C810 H794 0.959 . S
C810 H795 0.959 . S
C810 H796 0.961 . S
C810 C809 1.502 . S
C811 H797 0.960 . S
C811 H798 0.961 . S
C811 H799 0.959 . S
C811 C809 1.561 . S
C812 C809 1.526 . S
C812 C813 1.396 . S
C812 C817 1.390 . S
C813 C807 1.465 . S
C813 C812 1.396 . S
C813 C814 1.399 . S
C814 H800 0.929 . S
C814 C813 1.399 . S
C814 C815 1.385 . S
C815 H801 0.931 . S
C815 C814 1.385 . S
C815 C816 1.389 . S
C816 C815 1.389 . S
C816 C817 1.387 . S
C817 H802 0.930 . S
C817 C812 1.390 . S
C817 C816 1.387 . S
H818 C830 0.930 . S
H819 C832 0.930 . S
H820 C833 0.930 . S
H821 C837 0.959 . S
H822 C837 0.959 . S
H823 C837 0.961 . S
H824 C838 0.960 . S
H825 C838 0.961 . S
H826 C838 0.959 . S
H827 C841 0.929 . S
H828 C842 0.931 . S
H829 C844 0.930 . S
C830 H818 0.930 . S
C830 C831 1.399 . S
C830 C835 1.399 . S
C831 C830 1.399 . S
C831 C832 1.376 . S
C832 H819 0.930 . S
C832 C831 1.376 . S
C832 C833 1.388 . S
C833 H820 0.930 . S
C833 C832 1.388 . S
C833 C834 1.390 . S
C834 C833 1.390 . S
C834 C835 1.394 . S
C834 C840 1.465 . S
C835 C830 1.399 . S
C835 C834 1.394 . S
C835 C836 1.516 . S
C836 C835 1.516 . S
C836 C837 1.502 . S
C836 C838 1.561 . S
C836 C839 1.526 . S
C837 H821 0.959 . S
C837 H822 0.959 . S
C837 H823 0.961 . S
C837 C836 1.502 . S
C838 H824 0.960 . S
C838 H825 0.961 . S
C838 H826 0.959 . S
C838 C836 1.561 . S
C839 C836 1.526 . S
C839 C840 1.396 . S
C839 C844 1.390 . S
C840 C834 1.465 . S
C840 C839 1.396 . S
C840 C841 1.399 . S
C841 H827 0.929 . S
C841 C840 1.399 . S
C841 C842 1.385 . S
C842 H828 0.931 . S
C842 C841 1.385 . S
C842 C843 1.389 . S
C843 C842 1.389 . S
C843 C844 1.387 . S
C844 H829 0.930 . S
C844 C839 1.390 . S
C844 C843 1.387 . S
H845 C857 0.930 . S
H846 C859 0.930 . S
H847 C860 0.930 . S
H848 C864 0.959 . S
H849 C864 0.959 . S
H850 C864 0.961 . S
H851 C865 0.960 . S
H852 C865 0.961 . S
H853 C865 0.959 . S
H854 C868 0.929 . S
H855 C869 0.931 . S
H856 C871 0.930 . S
C857 H845 0.930 . S
C857 C858 1.399 . S
C857 C862 1.399 . S
C858 C857 1.399 . S
C858 C859 1.376 . S
C859 H846 0.930 . S
C859 C858 1.376 . S
C859 C860 1.388 . S
C860 H847 0.930 . S
C860 C859 1.388 . S
C860 C861 1.390 . S
C861 C860 1.390 . S
C861 C862 1.394 . S
C861 C867 1.465 . S
C862 C857 1.399 . S
C862 C861 1.394 . S
C862 C863 1.516 . S
C863 C862 1.516 . S
C863 C864 1.502 . S
C863 C865 1.561 . S
C863 C866 1.526 . S
C864 H848 0.959 . S
C864 H849 0.959 . S
C864 H850 0.961 . S
C864 C863 1.502 . S
C865 H851 0.960 . S
C865 H852 0.961 . S
C865 H853 0.959 . S
C865 C863 1.561 . S
C866 C863 1.526 . S
C866 C867 1.396 . S
C866 C871 1.390 . S
C867 C861 1.465 . S
C867 C866 1.396 . S
C867 C868 1.399 . S
C868 H854 0.929 . S
C868 C867 1.399 . S
C868 C869 1.385 . S
C869 H855 0.931 . S
C869 C868 1.385 . S
C869 C870 1.389 . S
C870 C869 1.389 . S
C870 C871 1.387 . S
C871 H856 0.930 . S
C871 C866 1.390 . S
C871 C870 1.387 . S
H872 C884 0.930 . S
H873 C886 0.930 . S
H874 C887 0.930 . S
H875 C891 0.959 . S
H876 C891 0.959 . S
H877 C891 0.961 . S
H878 C892 0.960 . S
H879 C892 0.961 . S
H880 C892 0.959 . S
H881 C895 0.929 . S
H882 C896 0.931 . S
H883 C898 0.930 . S
C884 H872 0.930 . S
C884 C885 1.399 . S
C884 C889 1.399 . S
C885 C884 1.399 . S
C885 C886 1.376 . S
C886 H873 0.930 . S
C886 C885 1.376 . S
C886 C887 1.388 . S
C887 H874 0.930 . S
C887 C886 1.388 . S
C887 C888 1.390 . S
C888 C887 1.390 . S
C888 C889 1.394 . S
C888 C894 1.465 . S
C889 C884 1.399 . S
C889 C888 1.394 . S
C889 C890 1.516 . S
C890 C889 1.516 . S
C890 C891 1.502 . S
C890 C892 1.561 . S
C890 C893 1.526 . S
C891 H875 0.959 . S
C891 H876 0.959 . S
C891 H877 0.961 . S
C891 C890 1.502 . S
C892 H878 0.960 . S
C892 H879 0.961 . S
C892 H880 0.959 . S
C892 C890 1.561 . S
C893 C890 1.526 . S
C893 C894 1.396 . S
C893 C898 1.390 . S
C894 C888 1.465 . S
C894 C893 1.396 . S
C894 C895 1.399 . S
C895 H881 0.929 . S
C895 C894 1.399 . S
C895 C896 1.385 . S
C896 H882 0.931 . S
C896 C895 1.385 . S
C896 C897 1.389 . S
C897 C896 1.389 . S
C897 C898 1.387 . S
C898 H883 0.930 . S
C898 C893 1.390 . S
C898 C897 1.387 . S
H899 C911 0.930 . S
H900 C913 0.930 . S
H901 C914 0.930 . S
H902 C918 0.959 . S
H903 C918 0.959 . S
H904 C918 0.961 . S
H905 C919 0.960 . S
H906 C919 0.961 . S
H907 C919 0.959 . S
H908 C922 0.929 . S
H909 C923 0.931 . S
H910 C925 0.930 . S
C911 H899 0.930 . S
C911 C912 1.399 . S
C911 C916 1.399 . S
C912 C911 1.399 . S
C912 C913 1.376 . S
C913 H900 0.930 . S
C913 C912 1.376 . S
C913 C914 1.388 . S
C914 H901 0.930 . S
C914 C913 1.388 . S
C914 C915 1.390 . S
C915 C914 1.390 . S
C915 C916 1.394 . S
C915 C921 1.465 . S
C916 C911 1.399 . S
C916 C915 1.394 . S
C916 C917 1.516 . S
C917 C916 1.516 . S
C917 C918 1.502 . S
C917 C919 1.561 . S
C917 C920 1.526 . S
C918 H902 0.959 . S
C918 H903 0.959 . S
C918 H904 0.961 . S
C918 C917 1.502 . S
C919 H905 0.960 . S
C919 H906 0.961 . S
C919 H907 0.959 . S
C919 C917 1.561 . S
C920 C917 1.526 . S
C920 C921 1.396 . S
C920 C925 1.390 . S
C921 C915 1.465 . S
C921 C920 1.396 . S
C921 C922 1.399 . S
C922 H908 0.929 . S
C922 C921 1.399 . S
C922 C923 1.385 . S
C923 H909 0.931 . S
C923 C922 1.385 . S
C923 C924 1.389 . S
C924 C923 1.389 . S
C924 C925 1.387 . S
C925 H910 0.930 . S
C925 C920 1.390 . S
C925 C924 1.387 . S
H926 C938 0.930 . S
H927 C940 0.930 . S
H928 C941 0.930 . S
H929 C945 0.959 . S
H930 C945 0.959 . S
H931 C945 0.961 . S
H932 C946 0.960 . S
H933 C946 0.961 . S
H934 C946 0.959 . S
H935 C949 0.929 . S
H936 C950 0.931 . S
H937 C952 0.930 1_565 S
C938 H926 0.930 . S
C938 C939 1.399 1_565 S
C938 C943 1.399 1_565 S
C939 C938 1.399 1_545 S
C939 C940 1.376 . S
C940 H927 0.930 . S
C940 C939 1.376 . S
C940 C941 1.388 . S
C941 H928 0.930 . S
C941 C940 1.388 . S
C941 C942 1.390 . S
C942 C941 1.390 . S
C942 C943 1.394 . S
C942 C948 1.465 . S
C943 C938 1.399 1_545 S
C943 C942 1.394 . S
C943 C944 1.516 1_545 S
C944 C943 1.516 1_565 S
C944 C945 1.502 . S
C944 C946 1.561 . S
C944 C947 1.526 1_565 S
C945 H929 0.959 . S
C945 H930 0.959 . S
C945 H931 0.961 . S
C945 C944 1.502 . S
C946 H932 0.960 . S
C946 H933 0.961 . S
C946 H934 0.959 . S
C946 C944 1.561 . S
C947 C944 1.526 1_545 S
C947 C948 1.396 . S
C947 C952 1.390 . S
C948 C942 1.465 . S
C948 C947 1.396 . S
C948 C949 1.399 . S
C949 H935 0.929 . S
C949 C948 1.399 . S
C949 C950 1.385 . S
C950 H936 0.931 . S
C950 C949 1.385 . S
C950 C951 1.389 . S
C951 C950 1.389 . S
C951 C952 1.387 . S
C952 H937 0.930 1_545 S
C952 C947 1.390 . S
C952 C951 1.387 . S
H953 C965 0.930 . S
H954 C967 0.930 . S
H955 C968 0.930 . S
H956 C972 0.959 . S
H957 C972 0.959 . S
H958 C972 0.961 . S
H959 C973 0.960 . S
H960 C973 0.961 . S
H961 C973 0.959 . S
H962 C976 0.929 . S
H963 C977 0.931 . S
H964 C979 0.930 . S
C965 H953 0.930 . S
C965 C966 1.399 . S
C965 C970 1.399 . S
C966 C965 1.399 . S
C966 C967 1.376 . S
C967 H954 0.930 . S
C967 C966 1.376 . S
C967 C968 1.388 . S
C968 H955 0.930 . S
C968 C967 1.388 . S
C968 C969 1.390 . S
C969 C968 1.390 . S
C969 C970 1.394 . S
C969 C975 1.465 . S
C970 C965 1.399 . S
C970 C969 1.394 . S
C970 C971 1.516 . S
C971 C970 1.516 . S
C971 C972 1.502 . S
C971 C973 1.561 . S
C971 C974 1.526 . S
C972 H956 0.959 . S
C972 H957 0.959 . S
C972 H958 0.961 . S
C972 C971 1.502 . S
C973 H959 0.960 . S
C973 H960 0.961 . S
C973 H961 0.959 . S
C973 C971 1.561 . S
C974 C971 1.526 . S
C974 C975 1.396 . S
C974 C979 1.390 . S
C975 C969 1.465 . S
C975 C974 1.396 . S
C975 C976 1.399 . S
C976 H962 0.929 . S
C976 C975 1.399 . S
C976 C977 1.385 . S
C977 H963 0.931 . S
C977 C976 1.385 . S
C977 C978 1.389 . S
C978 C977 1.389 . S
C978 C979 1.387 . S
C979 H964 0.930 . S
C979 C974 1.390 . S
C979 C978 1.387 . S
H980 C992 0.930 . S
H981 C994 0.930 . S
H982 C995 0.930 . S
H983 C999 0.959 . S
H984 C999 0.933 1_565 S
H985 C999 0.961 . S
H986 C1000 0.960 . S
H987 C1000 0.961 . S
H988 C1000 0.959 1_545 S
H989 C1003 0.929 . S
H990 C1004 0.931 1_455 S
H991 C1006 0.930 . S
C992 H980 0.930 . S
C992 C993 1.399 . S
C992 C997 1.399 . S
C993 C992 1.399 . S
C993 C994 1.376 . S
C994 H981 0.930 . S
C994 C993 1.376 . S
C994 C995 1.388 . S
C995 H982 0.930 . S
C995 C994 1.388 . S
C995 C996 1.390 . S
C996 C995 1.390 . S
C996 C997 1.394 . S
C996 C1002 1.465 . S
C997 C992 1.399 . S
C997 C996 1.394 . S
C997 C998 1.516 . S
C998 C997 1.516 . S
C998 C999 1.502 . S
C998 C1000 1.561 1_545 S
C998 C1001 1.526 . S
C999 H983 0.959 . S
C999 H984 0.933 1_545 S
C999 H985 0.961 . S
C999 C998 1.502 . S
C1000 H986 0.960 . S
C1000 H987 0.961 . S
C1000 H988 0.959 1_565 S
C1000 C998 1.561 1_565 S
C1001 C998 1.526 . S
C1001 C1002 1.396 . S
C1001 C1006 1.390 . S
C1002 C996 1.465 . S
C1002 C1001 1.396 . S
C1002 C1003 1.399 . S
C1003 H989 0.929 . S
C1003 C1002 1.399 . S
C1003 C1004 1.385 . S
C1004 H990 0.931 1_655 S
C1004 C1003 1.385 . S
C1004 C1005 1.389 . S
C1005 C1004 1.389 . S
C1005 C1006 1.387 . S
C1006 H991 0.930 . S
C1006 C1001 1.390 . S
C1006 C1005 1.387 . S
H1007 C1019 0.930 . S
H1008 C1021 0.930 . S
H1009 C1022 0.930 . S
H1010 C1026 0.959 . S
H1011 C1026 0.959 . S
H1012 C1026 0.961 . S
H1013 C1027 0.960 . S
H1014 C1027 0.961 . S
H1015 C1027 0.959 . S
H1016 C1030 0.929 . S
H1017 C1031 0.931 . S
H1018 C1033 0.930 . S
C1019 H1007 0.930 . S
C1019 C1020 1.399 . S
C1019 C1024 1.399 . S
C1020 C1019 1.399 . S
C1020 C1021 1.376 . S
C1021 H1008 0.930 . S
C1021 C1020 1.376 . S
C1021 C1022 1.388 . S
C1022 H1009 0.930 . S
C1022 C1021 1.388 . S
C1022 C1023 1.390 . S
C1023 C1022 1.390 . S
C1023 C1024 1.394 . S
C1023 C1029 1.465 . S
C1024 C1019 1.399 . S
C1024 C1023 1.394 . S
C1024 C1025 1.516 . S
C1025 C1024 1.516 . S
C1025 C1026 1.502 . S
C1025 C1027 1.561 . S
C1025 C1028 1.526 . S
C1026 H1010 0.959 . S
C1026 H1011 0.959 . S
C1026 H1012 0.961 . S
C1026 C1025 1.502 . S
C1027 H1013 0.960 . S
C1027 H1014 0.961 . S
C1027 H1015 0.959 . S
C1027 C1025 1.561 . S
C1028 C1025 1.526 . S
C1028 C1029 1.396 . S
C1028 C1033 1.390 . S
C1029 C1023 1.465 . S
C1029 C1028 1.396 . S
C1029 C1030 1.399 . S
C1030 H1016 0.929 . S
C1030 C1029 1.399 . S
C1030 C1031 1.385 . S
C1031 H1017 0.931 . S
C1031 C1030 1.385 . S
C1031 C1032 1.389 . S
C1032 C1031 1.389 . S
C1032 C1033 1.387 . S
C1033 H1018 0.930 . S
C1033 C1028 1.390 . S
C1033 C1032 1.387 . S
H1034 C1046 0.930 1_565 S
H1035 C1048 0.930 . S
H1036 C1049 0.930 . S
H1037 C1053 0.959 . S
H1038 C1053 0.959 . S
H1039 C1053 0.961 . S
H1040 C1054 0.960 . S
H1041 C1054 0.961 . S
H1042 C1054 0.959 . S
H1043 C1057 0.929 . S
H1044 C1058 0.931 . S
H1045 C1060 0.930 . S
C1046 H1034 0.930 1_545 S
C1046 C1047 1.399 . S
C1046 C1051 1.399 . S
C1047 C1046 1.399 . S
C1047 C1048 1.376 . S
C1048 H1035 0.930 . S
C1048 C1047 1.376 . S
C1048 C1049 1.388 . S
C1049 H1036 0.930 . S
C1049 C1048 1.388 . S
C1049 C1050 1.390 . S
C1050 C1049 1.390 . S
C1050 C1051 1.394 . S
C1050 C1056 1.465 . S
C1051 C1046 1.399 . S
C1051 C1050 1.394 . S
C1051 C1052 1.516 . S
C1052 C1051 1.516 . S
C1052 C1053 1.502 . S
C1052 C1054 1.561 1_545 S
C1052 C1055 1.526 . S
C1053 H1037 0.959 . S
C1053 H1038 0.959 . S
C1053 H1039 0.961 . S
C1053 C1052 1.502 . S
C1054 H1040 0.960 . S
C1054 H1041 0.961 . S
C1054 H1042 0.959 . S
C1054 C1052 1.561 1_565 S
C1055 C1052 1.526 . S
C1055 C1056 1.396 . S
C1055 C1060 1.390 . S
C1056 C1050 1.465 . S
C1056 C1055 1.396 . S
C1056 C1057 1.399 . S
C1057 H1043 0.929 . S
C1057 C1056 1.399 . S
C1057 C1058 1.385 . S
C1058 H1044 0.931 . S
C1058 C1057 1.385 . S
C1058 C1059 1.389 . S
C1059 C1058 1.389 . S
C1059 C1060 1.387 . S
C1060 H1045 0.930 . S
C1060 C1055 1.390 . S
C1060 C1059 1.387 . S
H1061 C1073 0.930 . S
H1062 C1075 0.930 . S
H1063 C1076 0.930 . S
H1064 C1080 0.959 . S
H1065 C1080 0.959 . S
H1066 C1080 0.961 . S
H1067 C1081 0.960 . S
H1068 C1081 0.961 . S
H1069 C1081 0.959 . S
H1070 C1084 0.929 . S
H1071 C1085 0.931 . S
H1072 C1087 0.930 . S
C1073 H1061 0.930 . S
C1073 C1074 1.399 . S
C1073 C1078 1.399 . S
C1074 C1073 1.399 . S
C1074 C1075 1.376 . S
C1075 H1062 0.930 . S
C1075 C1074 1.376 . S
C1075 C1076 1.388 . S
C1076 H1063 0.930 . S
C1076 C1075 1.388 . S
C1076 C1077 1.390 . S
C1077 C1076 1.390 . S
C1077 C1078 1.394 . S
C1077 C1083 1.465 . S
C1078 C1073 1.399 . S
C1078 C1077 1.394 . S
C1078 C1079 1.516 . S
C1079 C1078 1.516 . S
C1079 C1080 1.502 . S
C1079 C1081 1.561 . S
C1079 C1082 1.526 . S
C1080 H1064 0.959 . S
C1080 H1065 0.959 . S
C1080 H1066 0.961 . S
C1080 C1079 1.502 . S
C1081 H1067 0.960 . S
C1081 H1068 0.961 . S
C1081 H1069 0.959 . S
C1081 C1079 1.561 . S
C1082 C1079 1.526 . S
C1082 C1083 1.396 . S
C1082 C1087 1.390 . S
C1083 C1077 1.465 . S
C1083 C1082 1.396 . S
C1083 C1084 1.399 . S
C1084 H1070 0.929 . S
C1084 C1083 1.399 . S
C1084 C1085 1.385 . S
C1085 H1071 0.931 . S
C1085 C1084 1.385 . S
C1085 C1086 1.389 . S
C1086 C1085 1.389 . S
C1086 C1087 1.387 . S
C1087 H1072 0.930 . S
C1087 C1082 1.390 . S
C1087 C1086 1.387 . S
H1088 C1100 0.930 . S
H1089 C1102 0.930 . S
H1090 C1103 0.930 1_556 S
H1091 C1107 0.959 . S
H1092 C1107 0.959 . S
H1093 C1107 0.961 . S
H1094 C1108 0.960 . S
H1095 C1108 0.961 . S
H1096 C1108 0.959 . S
H1097 C1111 0.929 1_556 S
H1098 C1112 0.931 . S
H1099 C1114 0.930 . S
C1100 H1088 0.930 . S
C1100 C1101 1.399 . S
C1100 C1105 1.399 . S
C1101 C1100 1.399 . S
C1101 C1102 1.376 . S
C1102 H1089 0.930 . S
C1102 C1101 1.376 . S
C1102 C1103 1.388 . S
C1103 H1090 0.930 1_554 S
C1103 C1102 1.388 . S
C1103 C1104 1.390 . S
C1104 C1103 1.390 . S
C1104 C1105 1.394 . S
C1104 C1110 1.465 . S
C1105 C1100 1.399 . S
C1105 C1104 1.394 . S
C1105 C1106 1.516 . S
C1106 C1105 1.516 . S
C1106 C1107 1.502 . S
C1106 C1108 1.561 . S
C1106 C1109 1.526 . S
C1107 H1091 0.959 . S
C1107 H1092 0.959 . S
C1107 H1093 0.961 . S
C1107 C1106 1.502 . S
C1108 H1094 0.960 . S
C1108 H1095 0.961 . S
C1108 H1096 0.959 . S
C1108 C1106 1.561 . S
C1109 C1106 1.526 . S
C1109 C1110 1.396 . S
C1109 C1114 1.390 . S
C1110 C1104 1.465 . S
C1110 C1109 1.396 . S
C1110 C1111 1.399 1_565 S
C1111 H1097 0.929 1_554 S
C1111 C1110 1.399 1_545 S
C1111 C1112 1.385 . S
C1112 H1098 0.931 . S
C1112 C1111 1.385 . S
C1112 C1113 1.389 . S
C1113 C1112 1.389 . S
C1113 C1114 1.387 1_545 S
C1114 H1099 0.930 . S
C1114 C1109 1.390 . S
C1114 C1113 1.387 1_565 S
H1115 C1127 0.930 . S
H1116 C1129 0.930 . S
H1117 C1130 0.930 . S
H1118 C1134 0.959 . S
H1119 C1134 0.959 . S
H1120 C1134 0.961 . S
H1121 C1135 0.960 . S
H1122 C1135 0.961 . S
H1123 C1135 0.959 . S
H1124 C1138 0.929 . S
H1125 C1139 0.931 . S
H1126 C1141 0.930 . S
C1127 H1115 0.930 . S
C1127 C1128 1.399 1_554 S
C1127 C1132 1.399 . S
C1128 C1127 1.399 1_556 S
C1128 C1129 1.376 . S
C1129 H1116 0.930 . S
C1129 C1128 1.376 . S
C1129 C1130 1.388 . S
C1130 H1117 0.930 . S
C1130 C1129 1.388 . S
C1130 C1131 1.390 . S
C1131 C1130 1.390 . S
C1131 C1132 1.394 1_556 S
C1131 C1137 1.465 . S
C1132 C1127 1.399 . S
C1132 C1131 1.394 1_554 S
C1132 C1133 1.516 . S
C1133 C1132 1.516 . S
C1133 C1134 1.502 . S
C1133 C1135 1.561 . S
C1133 C1136 1.526 . S
C1134 H1118 0.959 . S
C1134 H1119 0.959 . S
C1134 H1120 0.961 . S
C1134 C1133 1.502 . S
C1135 H1121 0.960 . S
C1135 H1122 0.961 . S
C1135 H1123 0.959 . S
C1135 C1133 1.561 . S
C1136 C1133 1.526 . S
C1136 C1137 1.396 1_554 S
C1136 C1141 1.390 . S
C1137 C1131 1.465 . S
C1137 C1136 1.396 1_556 S
C1137 C1138 1.399 . S
C1138 H1124 0.929 . S
C1138 C1137 1.399 . S
C1138 C1139 1.385 . S
C1139 H1125 0.931 . S
C1139 C1138 1.385 . S
C1139 C1140 1.389 . S
C1140 C1139 1.389 . S
C1140 C1141 1.387 1_556 S
C1141 H1126 0.930 . S
C1141 C1136 1.390 . S
C1141 C1140 1.387 1_554 S
H1142 C1154 0.930 . S
H1143 C1156 0.930 . S
H1144 C1157 0.930 . S
H1145 C1161 0.959 . S
H1146 C1161 0.959 . S
H1147 C1161 0.961 . S
H1148 C1162 0.960 . S
H1149 C1162 0.961 . S
H1150 C1162 0.959 . S
H1151 C1165 0.929 . S
H1152 C1166 0.931 . S
H1153 C1168 0.930 . S
C1154 H1142 0.930 . S
C1154 C1155 1.399 . S
C1154 C1159 1.399 . S
C1155 C1154 1.399 . S
C1155 C1156 1.376 . S
C1156 H1143 0.930 . S
C1156 C1155 1.376 . S
C1156 C1157 1.388 . S
C1157 H1144 0.930 . S
C1157 C1156 1.388 . S
C1157 C1158 1.390 . S
C1158 C1157 1.390 . S
C1158 C1159 1.394 . S
C1158 C1164 1.465 . S
C1159 C1154 1.399 . S
C1159 C1158 1.394 . S
C1159 C1160 1.516 . S
C1160 C1159 1.516 . S
C1160 C1161 1.502 . S
C1160 C1162 1.561 . S
C1160 C1163 1.526 . S
C1161 H1145 0.959 . S
C1161 H1146 0.959 . S
C1161 H1147 0.961 . S
C1161 C1160 1.502 . S
C1162 H1148 0.960 . S
C1162 H1149 0.961 . S
C1162 H1150 0.959 . S
C1162 C1160 1.561 . S
C1163 C1160 1.526 . S
C1163 C1164 1.396 . S
C1163 C1168 1.390 . S
C1164 C1158 1.465 . S
C1164 C1163 1.396 . S
C1164 C1165 1.399 . S
C1165 H1151 0.929 . S
C1165 C1164 1.399 . S
C1165 C1166 1.385 . S
C1166 H1152 0.931 . S
C1166 C1165 1.385 . S
C1166 C1167 1.389 . S
C1167 C1166 1.389 . S
C1167 C1168 1.387 . S
C1168 H1153 0.930 . S
C1168 C1163 1.390 . S
C1168 C1167 1.387 . S
H1169 C1181 0.930 . S
H1170 C1183 0.930 . S
H1171 C1184 0.930 . S
H1172 C1188 0.959 . S
H1173 C1188 0.959 . S
H1174 C1188 0.961 . S
H1175 C1189 0.960 . S
H1176 C1189 0.961 . S
H1177 C1189 0.959 . S
H1178 C1192 0.929 . S
H1179 C1193 0.931 . S
H1180 C1195 0.930 . S
C1181 H1169 0.930 . S
C1181 C1182 1.399 . S
C1181 C1186 1.399 . S
C1182 C1181 1.399 . S
C1182 C1183 1.376 . S
C1183 H1170 0.930 . S
C1183 C1182 1.376 . S
C1183 C1184 1.388 . S
C1184 H1171 0.930 . S
C1184 C1183 1.388 . S
C1184 C1185 1.390 . S
C1185 C1184 1.390 . S
C1185 C1186 1.394 . S
C1185 C1191 1.465 . S
C1186 C1181 1.399 . S
C1186 C1185 1.394 . S
C1186 C1187 1.516 . S
C1187 C1186 1.516 . S
C1187 C1188 1.502 . S
C1187 C1189 1.561 . S
C1187 C1190 1.526 . S
C1188 H1172 0.959 . S
C1188 H1173 0.959 . S
C1188 H1174 0.961 . S
C1188 C1187 1.502 . S
C1189 H1175 0.960 . S
C1189 H1176 0.961 . S
C1189 H1177 0.959 . S
C1189 C1187 1.561 . S
C1190 C1187 1.526 . S
C1190 C1191 1.396 . S
C1190 C1195 1.390 . S
C1191 C1185 1.465 . S
C1191 C1190 1.396 . S
C1191 C1192 1.399 . S
C1192 H1178 0.929 . S
C1192 C1191 1.399 . S
C1192 C1193 1.385 . S
C1193 H1179 0.931 . S
C1193 C1192 1.385 . S
C1193 C1194 1.389 . S
C1194 C1193 1.389 . S
C1194 C1195 1.387 . S
C1195 H1180 0.930 . S
C1195 C1190 1.390 . S
C1195 C1194 1.387 . S
H1196 C1208 0.930 . S
H1197 C1210 0.930 . S
H1198 C1211 0.930 . S
H1199 C1215 0.959 . S
H1200 C1215 0.959 . S
H1201 C1215 0.961 . S
H1202 C1216 0.960 . S
H1203 C1216 0.961 . S
H1204 C1216 0.959 . S
H1205 C1219 0.929 . S
H1206 C1220 0.931 . S
H1207 C1222 0.930 . S
C1208 H1196 0.930 . S
C1208 C1209 1.399 . S
C1208 C1213 1.399 . S
C1209 C1208 1.399 . S
C1209 C1210 1.376 . S
C1210 H1197 0.930 . S
C1210 C1209 1.376 . S
C1210 C1211 1.388 . S
C1211 H1198 0.930 . S
C1211 C1210 1.388 . S
C1211 C1212 1.390 . S
C1212 C1211 1.390 . S
C1212 C1213 1.394 . S
C1212 C1218 1.465 . S
C1213 C1208 1.399 . S
C1213 C1212 1.394 . S
C1213 C1214 1.516 . S
C1214 C1213 1.516 . S
C1214 C1215 1.502 . S
C1214 C1216 1.561 . S
C1214 C1217 1.526 . S
C1215 H1199 0.959 . S
C1215 H1200 0.959 . S
C1215 H1201 0.961 . S
C1215 C1214 1.502 . S
C1216 H1202 0.960 . S
C1216 H1203 0.961 . S
C1216 H1204 0.959 . S
C1216 C1214 1.561 . S
C1217 C1214 1.526 . S
C1217 C1218 1.396 . S
C1217 C1222 1.390 . S
C1218 C1212 1.465 . S
C1218 C1217 1.396 . S
C1218 C1219 1.399 . S
C1219 H1205 0.929 . S
C1219 C1218 1.399 . S
C1219 C1220 1.385 . S
C1220 H1206 0.931 . S
C1220 C1219 1.385 . S
C1220 C1221 1.389 . S
C1221 C1220 1.389 . S
C1221 C1222 1.387 . S
C1222 H1207 0.930 . S
C1222 C1217 1.390 . S
C1222 C1221 1.387 . S
H1223 C1235 0.930 . S
H1224 C1237 0.930 . S
H1225 C1238 0.930 . S
H1226 C1242 0.959 . S
H1227 C1242 0.959 . S
H1228 C1242 0.961 . S
H1229 C1243 0.960 . S
H1230 C1243 0.961 . S
H1231 C1243 0.959 . S
H1232 C1246 0.929 . S
H1233 C1247 0.931 . S
H1234 C1249 0.930 . S
C1235 H1223 0.930 . S
C1235 C1236 1.399 . S
C1235 C1240 1.399 . S
C1236 C1235 1.399 . S
C1236 C1237 1.376 . S
C1237 H1224 0.930 . S
C1237 C1236 1.376 . S
C1237 C1238 1.388 . S
C1238 H1225 0.930 . S
C1238 C1237 1.388 . S
C1238 C1239 1.390 . S
C1239 C1238 1.390 . S
C1239 C1240 1.394 . S
C1239 C1245 1.465 . S
C1240 C1235 1.399 . S
C1240 C1239 1.394 . S
C1240 C1241 1.516 . S
C1241 C1240 1.516 . S
C1241 C1242 1.502 . S
C1241 C1243 1.561 . S
C1241 C1244 1.526 . S
C1242 H1226 0.959 . S
C1242 H1227 0.959 . S
C1242 H1228 0.961 . S
C1242 C1241 1.502 . S
C1243 H1229 0.960 . S
C1243 H1230 0.961 . S
C1243 H1231 0.959 . S
C1243 C1241 1.561 . S
C1244 C1241 1.526 . S
C1244 C1245 1.396 . S
C1244 C1249 1.390 . S
C1245 C1239 1.465 . S
C1245 C1244 1.396 . S
C1245 C1246 1.399 . S
C1246 H1232 0.929 . S
C1246 C1245 1.399 . S
C1246 C1247 1.385 . S
C1247 H1233 0.931 . S
C1247 C1246 1.385 . S
C1247 C1248 1.389 . S
C1248 C1247 1.389 . S
C1248 C1249 1.387 . S
C1249 H1234 0.930 . S
C1249 C1244 1.390 . S
C1249 C1248 1.387 . S
H1250 C1262 0.930 . S
H1251 C1264 0.930 . S
H1252 C1265 0.930 . S
H1253 C1269 0.959 . S
H1254 C1269 0.959 . S
H1255 C1269 0.961 . S
H1256 C1270 0.960 . S
H1257 C1270 0.961 . S
H1258 C1270 0.959 . S
H1259 C1273 0.929 . S
H1260 C1274 0.931 . S
H1261 C1276 0.930 . S
C1262 H1250 0.930 . S
C1262 C1263 1.399 . S
C1262 C1267 1.399 . S
C1263 C1262 1.399 . S
C1263 C1264 1.376 . S
C1264 H1251 0.930 . S
C1264 C1263 1.376 . S
C1264 C1265 1.388 . S
C1265 H1252 0.930 . S
C1265 C1264 1.388 . S
C1265 C1266 1.390 . S
C1266 C1265 1.390 . S
C1266 C1267 1.394 . S
C1266 C1272 1.465 . S
C1267 C1262 1.399 . S
C1267 C1266 1.394 . S
C1267 C1268 1.516 . S
C1268 C1267 1.516 . S
C1268 C1269 1.502 . S
C1268 C1270 1.561 . S
C1268 C1271 1.526 . S
C1269 H1253 0.959 . S
C1269 H1254 0.959 . S
C1269 H1255 0.961 . S
C1269 C1268 1.502 . S
C1270 H1256 0.960 . S
C1270 H1257 0.961 . S
C1270 H1258 0.959 . S
C1270 C1268 1.561 . S
C1271 C1268 1.526 . S
C1271 C1272 1.396 . S
C1271 C1276 1.390 . S
C1272 C1266 1.465 . S
C1272 C1271 1.396 . S
C1272 C1273 1.399 . S
C1273 H1259 0.929 . S
C1273 C1272 1.399 . S
C1273 C1274 1.385 . S
C1274 H1260 0.931 . S
C1274 C1273 1.385 . S
C1274 C1275 1.389 . S
C1275 C1274 1.389 . S
C1275 C1276 1.387 . S
C1276 H1261 0.930 . S
C1276 C1271 1.390 . S
C1276 C1275 1.387 . S
H1277 C1289 0.930 . S
H1278 C1291 0.930 . S
H1279 C1292 0.930 . S
H1280 C1296 0.959 . S
H1281 C1296 0.959 . S
H1282 C1296 0.961 . S
H1283 C1297 0.960 . S
H1284 C1297 0.961 . S
H1285 C1297 0.959 . S
H1286 C1300 0.929 . S
H1287 C1301 0.931 . S
H1288 C1303 0.930 . S
C1289 H1277 0.930 . S
C1289 C1290 1.399 . S
C1289 C1294 1.399 . S
C1290 C1289 1.399 . S
C1290 C1291 1.376 . S
C1291 H1278 0.930 . S
C1291 C1290 1.376 . S
C1291 C1292 1.388 . S
C1292 H1279 0.930 . S
C1292 C1291 1.388 . S
C1292 C1293 1.390 . S
C1293 C1292 1.390 . S
C1293 C1294 1.394 . S
C1293 C1299 1.465 . S
C1294 C1289 1.399 . S
C1294 C1293 1.394 . S
C1294 C1295 1.516 . S
C1295 C1294 1.516 . S
C1295 C1296 1.502 . S
C1295 C1297 1.561 . S
C1295 C1298 1.526 . S
C1296 H1280 0.959 . S
C1296 H1281 0.959 . S
C1296 H1282 0.961 . S
C1296 C1295 1.502 . S
C1297 H1283 0.960 . S
C1297 H1284 0.961 . S
C1297 H1285 0.959 . S
C1297 C1295 1.561 . S
C1298 C1295 1.526 . S
C1298 C1299 1.396 . S
C1298 C1303 1.390 . S
C1299 C1293 1.465 . S
C1299 C1298 1.396 . S
C1299 C1300 1.399 . S
C1300 H1286 0.929 . S
C1300 C1299 1.399 . S
C1300 C1301 1.385 . S
C1301 H1287 0.931 . S
C1301 C1300 1.385 . S
C1301 C1302 1.389 . S
C1302 C1301 1.389 . S
C1302 C1303 1.387 . S
C1303 H1288 0.930 . S
C1303 C1298 1.390 . S
C1303 C1302 1.387 . S
H1304 C1316 0.930 . S
H1305 C1318 0.930 . S
H1306 C1319 0.930 . S
H1307 C1323 0.959 . S
H1308 C1323 0.959 . S
H1309 C1323 0.961 . S
H1310 C1324 0.960 . S
H1311 C1324 0.961 . S
H1312 C1324 0.959 . S
H1313 C1327 0.929 . S
H1314 C1328 0.931 . S
H1315 C1330 0.930 . S
C1316 H1304 0.930 . S
C1316 C1317 1.399 . S
C1316 C1321 1.399 . S
C1317 C1316 1.399 . S
C1317 C1318 1.376 . S
C1318 H1305 0.930 . S
C1318 C1317 1.376 . S
C1318 C1319 1.388 . S
C1319 H1306 0.930 . S
C1319 C1318 1.388 . S
C1319 C1320 1.390 . S
C1320 C1319 1.390 . S
C1320 C1321 1.394 . S
C1320 C1326 1.465 . S
C1321 C1316 1.399 . S
C1321 C1320 1.394 . S
C1321 C1322 1.516 . S
C1322 C1321 1.516 . S
C1322 C1323 1.502 1_455 S
C1322 C1324 1.561 . S
C1322 C1325 1.526 . S
C1323 H1307 0.959 . S
C1323 H1308 0.959 . S
C1323 H1309 0.961 . S
C1323 C1322 1.502 1_655 S
C1324 H1310 0.960 . S
C1324 H1311 0.961 . S
C1324 H1312 0.959 . S
C1324 C1322 1.561 . S
C1325 C1322 1.526 . S
C1325 C1326 1.396 . S
C1325 C1330 1.390 . S
C1326 C1320 1.465 . S
C1326 C1325 1.396 . S
C1326 C1327 1.399 . S
C1327 H1313 0.929 . S
C1327 C1326 1.399 . S
C1327 C1328 1.385 . S
C1328 H1314 0.931 . S
C1328 C1327 1.385 . S
C1328 C1329 1.389 . S
C1329 C1328 1.389 . S
C1329 C1330 1.387 . S
C1330 H1315 0.930 . S
C1330 C1325 1.390 . S
C1330 C1329 1.387 . S
H1331 C1343 0.930 . S
H1332 C1345 0.930 . S
H1333 C1346 0.930 . S
H1334 C1350 0.959 . S
H1335 C1350 0.959 . S
H1336 C1350 0.961 . S
H1337 C1351 0.960 . S
H1338 C1351 0.961 . S
H1339 C1351 0.959 . S
H1340 C1354 0.929 . S
H1341 C1355 0.931 . S
H1342 C1357 0.930 . S
C1343 H1331 0.930 . S
C1343 C1344 1.399 . S
C1343 C1348 1.399 . S
C1344 C1343 1.399 . S
C1344 C1345 1.376 . S
C1345 H1332 0.930 . S
C1345 C1344 1.376 . S
C1345 C1346 1.388 . S
C1346 H1333 0.930 . S
C1346 C1345 1.388 . S
C1346 C1347 1.390 . S
C1347 C1346 1.390 . S
C1347 C1348 1.394 . S
C1347 C1353 1.465 . S
C1348 C1343 1.399 . S
C1348 C1347 1.394 . S
C1348 C1349 1.516 . S
C1349 C1348 1.516 . S
C1349 C1350 1.502 . S
C1349 C1351 1.561 . S
C1349 C1352 1.526 . S
C1350 H1334 0.959 . S
C1350 H1335 0.959 . S
C1350 H1336 0.961 . S
C1350 C1349 1.502 . S
C1351 H1337 0.960 . S
C1351 H1338 0.961 . S
C1351 H1339 0.959 . S
C1351 C1349 1.561 . S
C1352 C1349 1.526 . S
C1352 C1353 1.396 . S
C1352 C1357 1.390 . S
C1353 C1347 1.465 . S
C1353 C1352 1.396 . S
C1353 C1354 1.399 . S
C1354 H1340 0.929 . S
C1354 C1353 1.399 . S
C1354 C1355 1.385 . S
C1355 H1341 0.931 . S
C1355 C1354 1.385 . S
C1355 C1356 1.389 . S
C1356 C1355 1.389 . S
C1356 C1357 1.387 . S
C1357 H1342 0.930 . S
C1357 C1352 1.390 . S
C1357 C1356 1.387 . S
H1358 C1370 0.930 . S
H1359 C1372 0.930 . S
H1360 C1373 0.930 . S
H1361 C1377 0.959 . S
H1362 C1377 0.959 . S
H1363 C1377 0.961 . S
H1364 C1378 0.960 . S
H1365 C1378 0.961 . S
H1366 C1378 0.959 . S
H1367 C1381 0.929 . S
H1368 C1382 0.931 . S
H1369 C1384 0.930 . S
C1370 H1358 0.930 . S
C1370 C1371 1.399 . S
C1370 C1375 1.399 . S
C1371 C1370 1.399 . S
C1371 C1372 1.376 . S
C1372 H1359 0.930 . S
C1372 C1371 1.376 . S
C1372 C1373 1.388 . S
C1373 H1360 0.930 . S
C1373 C1372 1.388 . S
C1373 C1374 1.390 . S
C1374 C1373 1.390 . S
C1374 C1375 1.394 . S
C1374 C1380 1.465 . S
C1375 C1370 1.399 . S
C1375 C1374 1.394 . S
C1375 C1376 1.516 . S
C1376 C1375 1.516 . S
C1376 C1377 1.502 . S
C1376 C1378 1.561 . S
C1376 C1379 1.526 . S
C1377 H1361 0.959 . S
C1377 H1362 0.959 . S
C1377 H1363 0.961 . S
C1377 C1376 1.502 . S
C1378 H1364 0.960 . S
C1378 H1365 0.961 . S
C1378 H1366 0.959 . S
C1378 C1376 1.561 . S
C1379 C1376 1.526 . S
C1379 C1380 1.396 . S
C1379 C1384 1.390 . S
C1380 C1374 1.465 . S
C1380 C1379 1.396 . S
C1380 C1381 1.399 . S
C1381 H1367 0.929 . S
C1381 C1380 1.399 . S
C1381 C1382 1.385 . S
C1382 H1368 0.931 . S
C1382 C1381 1.385 . S
C1382 C1383 1.389 . S
C1383 C1382 1.389 . S
C1383 C1384 1.387 . S
C1384 H1369 0.930 . S
C1384 C1379 1.390 . S
C1384 C1383 1.387 . S
H1385 C1397 0.930 . S
H1386 C1399 0.930 . S
H1387 C1400 0.930 . S
H1388 C1404 0.959 . S
H1389 C1404 0.959 . S
H1390 C1404 0.961 . S
H1391 C1405 0.960 . S
H1392 C1405 0.961 . S
H1393 C1405 0.959 . S
H1394 C1408 0.929 . S
H1395 C1409 0.931 . S
H1396 C1411 0.930 . S
C1397 H1385 0.930 . S
C1397 C1398 1.399 . S
C1397 C1402 1.399 . S
C1398 C1397 1.399 . S
C1398 C1399 1.376 . S
C1399 H1386 0.930 . S
C1399 C1398 1.376 . S
C1399 C1400 1.388 . S
C1400 H1387 0.930 . S
C1400 C1399 1.388 . S
C1400 C1401 1.390 . S
C1401 C1400 1.390 . S
C1401 C1402 1.394 . S
C1401 C1407 1.465 . S
C1402 C1397 1.399 . S
C1402 C1401 1.394 . S
C1402 C1403 1.516 . S
C1403 C1402 1.516 . S
C1403 C1404 1.502 . S
C1403 C1405 1.561 . S
C1403 C1406 1.526 . S
C1404 H1388 0.959 . S
C1404 H1389 0.959 . S
C1404 H1390 0.961 . S
C1404 C1403 1.502 . S
C1405 H1391 0.960 . S
C1405 H1392 0.961 . S
C1405 H1393 0.959 . S
C1405 C1403 1.561 . S
C1406 C1403 1.526 . S
C1406 C1407 1.396 . S
C1406 C1411 1.390 . S
C1407 C1401 1.465 . S
C1407 C1406 1.396 . S
C1407 C1408 1.399 . S
C1408 H1394 0.929 . S
C1408 C1407 1.399 . S
C1408 C1409 1.385 . S
C1409 H1395 0.931 . S
C1409 C1408 1.385 . S
C1409 C1410 1.389 . S
C1410 C1409 1.389 . S
C1410 C1411 1.387 . S
C1411 H1396 0.930 . S
C1411 C1406 1.390 . S
C1411 C1410 1.387 . S
H1412 C1424 0.936 . S
H1413 C1426 0.930 . S
H1414 C1427 0.930 . S
H1415 C1431 0.959 . S
H1416 C1431 0.959 . S
H1417 C1431 0.961 . S
H1418 C1432 0.960 . S
H1419 C1432 0.961 . S
H1420 C1432 0.959 . S
H1421 C1435 0.929 . S
H1422 C1436 0.931 . S
H1423 C1438 0.930 1_655 S
C1424 H1412 0.936 . S
C1424 C1425 1.399 . S
C1424 C1429 1.399 . S
C1425 C1424 1.399 . S
C1425 C1426 1.376 . S
C1426 H1413 0.930 . S
C1426 C1425 1.376 . S
C1426 C1427 1.388 . S
C1427 H1414 0.930 . S
C1427 C1426 1.388 . S
C1427 C1428 1.390 . S
C1428 C1427 1.390 . S
C1428 C1429 1.394 . S
C1428 C1434 1.465 . S
C1429 C1424 1.399 . S
C1429 C1428 1.394 . S
C1429 C1430 1.516 . S
C1430 C1429 1.516 . S
C1430 C1431 1.502 1_455 S
C1430 C1432 1.561 . S
C1430 C1433 1.526 . S
C1431 H1415 0.959 . S
C1431 H1416 0.959 . S
C1431 H1417 0.961 . S
C1431 C1430 1.502 1_655 S
C1432 H1418 0.960 . S
C1432 H1419 0.961 . S
C1432 H1420 0.959 . S
C1432 C1430 1.561 . S
C1433 C1430 1.526 . S
C1433 C1434 1.396 . S
C1433 C1438 1.390 . S
C1434 C1428 1.465 . S
C1434 C1433 1.396 . S
C1434 C1435 1.399 . S
C1435 H1421 0.929 . S
C1435 C1434 1.399 . S
C1435 C1436 1.385 . S
C1436 H1422 0.931 . S
C1436 C1435 1.385 . S
C1436 C1437 1.389 . S
C1437 C1436 1.389 . S
C1437 C1438 1.387 . S
C1438 H1423 0.930 1_455 S
C1438 C1433 1.390 . S
C1438 C1437 1.387 . S
H1439 C1451 0.930 . S
H1440 C1453 0.930 . S
H1441 C1454 0.930 . S
H1442 C1458 0.959 . S
H1443 C1458 0.959 . S
H1444 C1458 0.961 . S
H1445 C1459 0.960 . S
H1446 C1459 0.961 . S
H1447 C1459 0.959 . S
H1448 C1462 0.929 . S
H1449 C1463 0.931 . S
H1450 C1465 0.930 . S
C1451 H1439 0.930 . S
C1451 C1452 1.399 . S
C1451 C1456 1.399 . S
C1452 C1451 1.399 . S
C1452 C1453 1.376 . S
C1453 H1440 0.930 . S
C1453 C1452 1.376 . S
C1453 C1454 1.388 . S
C1454 H1441 0.930 . S
C1454 C1453 1.388 . S
C1454 C1455 1.390 . S
C1455 C1454 1.390 . S
C1455 C1456 1.394 . S
C1455 C1461 1.465 . S
C1456 C1451 1.399 . S
C1456 C1455 1.394 . S
C1456 C1457 1.516 . S
C1457 C1456 1.516 . S
C1457 C1458 1.502 . S
C1457 C1459 1.561 . S
C1457 C1460 1.526 . S
C1458 H1442 0.959 . S
C1458 H1443 0.959 . S
C1458 H1444 0.961 . S
C1458 C1457 1.502 . S
C1459 H1445 0.960 . S
C1459 H1446 0.961 . S
C1459 H1447 0.959 . S
C1459 C1457 1.561 . S
C1460 C1457 1.526 . S
C1460 C1461 1.396 . S
C1460 C1465 1.390 . S
C1461 C1455 1.465 . S
C1461 C1460 1.396 . S
C1461 C1462 1.399 . S
C1462 H1448 0.929 . S
C1462 C1461 1.399 . S
C1462 C1463 1.385 . S
C1463 H1449 0.931 . S
C1463 C1462 1.385 . S
C1463 C1464 1.389 . S
C1464 C1463 1.389 . S
C1464 C1465 1.387 . S
C1465 H1450 0.930 . S
C1465 C1460 1.390 . S
C1465 C1464 1.387 . S
H1466 C1478 0.930 . S
H1467 C1480 0.930 . S
H1468 C1481 0.930 . S
H1469 C1485 0.959 . S
H1470 C1485 0.959 . S
H1471 C1485 0.961 . S
H1472 C1486 0.960 . S
H1473 C1486 0.961 . S
H1474 C1486 0.959 . S
H1475 C1489 0.929 1_554 S
H1476 C1490 0.931 . S
H1477 C1492 0.930 . S
C1478 H1466 0.930 . S
C1478 C1479 1.399 . S
C1478 C1483 1.399 . S
C1479 C1478 1.399 . S
C1479 C1480 1.376 . S
C1480 H1467 0.930 . S
C1480 C1479 1.376 . S
C1480 C1481 1.388 . S
C1481 H1468 0.930 . S
C1481 C1480 1.388 . S
C1481 C1482 1.390 . S
C1482 C1481 1.390 . S
C1482 C1483 1.394 . S
C1482 C1488 1.465 . S
C1483 C1478 1.399 . S
C1483 C1482 1.394 . S
C1483 C1484 1.516 . S
C1484 C1483 1.516 . S
C1484 C1485 1.502 . S
C1484 C1486 1.561 . S
C1484 C1487 1.526 . S
C1485 H1469 0.959 . S
C1485 H1470 0.959 . S
C1485 H1471 0.961 . S
C1485 C1484 1.502 . S
C1486 H1472 0.960 . S
C1486 H1473 0.961 . S
C1486 H1474 0.959 . S
C1486 C1484 1.561 . S
C1487 C1484 1.526 . S
C1487 C1488 1.396 . S
C1487 C1492 1.390 . S
C1488 C1482 1.465 . S
C1488 C1487 1.396 . S
C1488 C1489 1.399 . S
C1489 H1475 0.929 1_556 S
C1489 C1488 1.399 . S
C1489 C1490 1.385 1_556 S
C1490 H1476 0.931 . S
C1490 C1489 1.385 1_554 S
C1490 C1491 1.389 1_554 S
C1491 C1490 1.389 1_556 S
C1491 C1492 1.387 . S
C1492 H1477 0.930 . S
C1492 C1487 1.390 . S
C1492 C1491 1.387 . S
H1493 C1505 0.930 . S
H1494 C1507 0.930 . S
H1495 C1508 0.930 . S
H1496 C1512 0.959 . S
H1497 C1512 0.959 . S
H1498 C1512 0.961 . S
H1499 C1513 0.960 . S
H1500 C1513 0.961 . S
H1501 C1513 0.959 . S
H1502 C1516 0.929 . S
H1503 C1517 0.931 . S
H1504 C1519 0.930 . S
C1505 H1493 0.930 . S
C1505 C1506 1.399 . S
C1505 C1510 1.399 . S
C1506 C1505 1.399 . S
C1506 C1507 1.376 . S
C1507 H1494 0.930 . S
C1507 C1506 1.376 . S
C1507 C1508 1.388 . S
C1508 H1495 0.930 . S
C1508 C1507 1.388 . S
C1508 C1509 1.390 . S
C1509 C1508 1.390 . S
C1509 C1510 1.394 . S
C1509 C1515 1.465 . S
C1510 C1505 1.399 . S
C1510 C1509 1.394 . S
C1510 C1511 1.516 . S
C1511 C1510 1.516 . S
C1511 C1512 1.502 . S
C1511 C1513 1.561 . S
C1511 C1514 1.526 . S
C1512 H1496 0.959 . S
C1512 H1497 0.959 . S
C1512 H1498 0.961 . S
C1512 C1511 1.502 . S
C1513 H1499 0.960 . S
C1513 H1500 0.961 . S
C1513 H1501 0.959 . S
C1513 C1511 1.561 . S
C1514 C1511 1.526 . S
C1514 C1515 1.396 . S
C1514 C1519 1.390 . S
C1515 C1509 1.465 . S
C1515 C1514 1.396 . S
C1515 C1516 1.399 . S
C1516 H1502 0.929 . S
C1516 C1515 1.399 . S
C1516 C1517 1.385 . S
C1517 H1503 0.931 . S
C1517 C1516 1.385 . S
C1517 C1518 1.389 . S
C1518 C1517 1.389 . S
C1518 C1519 1.387 . S
C1519 H1504 0.930 . S
C1519 C1514 1.390 . S
C1519 C1518 1.387 . S
H1520 C1532 0.930 . S
H1521 C1534 0.930 . S
H1522 C1535 0.930 . S
H1523 C1539 0.959 . S
H1524 C1539 0.959 . S
H1525 C1539 0.961 . S
H1526 C1540 0.960 . S
H1527 C1540 0.961 . S
H1528 C1540 0.959 . S
H1529 C1543 0.929 . S
H1530 C1544 0.931 . S
H1531 C1546 0.930 . S
C1532 H1520 0.930 . S
C1532 C1533 1.399 1_565 S
C1532 C1537 1.399 . S
C1533 C1532 1.399 1_545 S
C1533 C1534 1.376 . S
C1534 H1521 0.930 . S
C1534 C1533 1.376 . S
C1534 C1535 1.388 . S
C1535 H1522 0.930 . S
C1535 C1534 1.388 . S
C1535 C1536 1.390 . S
C1536 C1535 1.390 . S
C1536 C1537 1.394 1_545 S
C1536 C1542 1.465 . S
C1537 C1532 1.399 . S
C1537 C1536 1.394 1_565 S
C1537 C1538 1.516 . S
C1538 C1537 1.516 . S
C1538 C1539 1.502 . S
C1538 C1540 1.561 . S
C1538 C1541 1.526 . S
C1539 H1523 0.959 . S
C1539 H1524 0.959 . S
C1539 H1525 0.961 . S
C1539 C1538 1.502 . S
C1540 H1526 0.960 . S
C1540 H1527 0.961 . S
C1540 H1528 0.959 . S
C1540 C1538 1.561 . S
C1541 C1538 1.526 . S
C1541 C1542 1.396 1_565 S
C1541 C1546 1.390 . S
C1542 C1536 1.465 . S
C1542 C1541 1.396 1_545 S
C1542 C1543 1.399 . S
C1543 H1529 0.929 . S
C1543 C1542 1.399 . S
C1543 C1544 1.385 . S
C1544 H1530 0.931 . S
C1544 C1543 1.385 . S
C1544 C1545 1.389 . S
C1545 C1544 1.389 . S
C1545 C1546 1.387 1_545 S
C1546 H1531 0.930 . S
C1546 C1541 1.390 . S
C1546 C1545 1.387 1_565 S
H1547 C1559 0.930 . S
H1548 C1561 0.930 . S
H1549 C1562 0.930 . S
H1550 C1566 0.959 . S
H1551 C1566 0.959 . S
H1552 C1566 0.961 . S
H1553 C1567 0.960 . S
H1554 C1567 0.961 . S
H1555 C1567 0.959 . S
H1556 C1570 0.929 . S
H1557 C1571 0.931 . S
H1558 C1573 0.930 . S
C1559 H1547 0.930 . S
C1559 C1560 1.399 . S
C1559 C1564 1.399 . S
C1560 C1559 1.399 . S
C1560 C1561 1.376 . S
C1561 H1548 0.930 . S
C1561 C1560 1.376 . S
C1561 C1562 1.388 . S
C1562 H1549 0.930 . S
C1562 C1561 1.388 . S
C1562 C1563 1.390 . S
C1563 C1562 1.390 . S
C1563 C1564 1.394 . S
C1563 C1569 1.465 . S
C1564 C1559 1.399 . S
C1564 C1563 1.394 . S
C1564 C1565 1.516 . S
C1565 C1564 1.516 . S
C1565 C1566 1.502 . S
C1565 C1567 1.561 . S
C1565 C1568 1.526 . S
C1566 H1550 0.959 . S
C1566 H1551 0.959 . S
C1566 H1552 0.961 . S
C1566 C1565 1.502 . S
C1567 H1553 0.960 . S
C1567 H1554 0.961 . S
C1567 H1555 0.959 . S
C1567 C1565 1.561 . S
C1568 C1565 1.526 . S
C1568 C1569 1.396 . S
C1568 C1573 1.390 . S
C1569 C1563 1.465 . S
C1569 C1568 1.396 . S
C1569 C1570 1.399 . S
C1570 H1556 0.929 . S
C1570 C1569 1.399 . S
C1570 C1571 1.385 . S
C1571 H1557 0.931 . S
C1571 C1570 1.385 . S
C1571 C1572 1.389 . S
C1572 C1571 1.389 . S
C1572 C1573 1.387 . S
C1573 H1558 0.930 . S
C1573 C1568 1.390 . S
C1573 C1572 1.387 . S
H1574 C1586 0.930 . S
H1575 C1588 0.930 . S
H1576 C1589 0.930 1_565 S
H1577 C1593 0.959 . S
H1578 C1593 0.959 . S
H1579 C1593 0.961 . S
H1580 C1594 0.960 . S
H1581 C1594 0.961 . S
H1582 C1594 0.959 . S
H1583 C1597 0.929 1_565 S
H1584 C1598 0.931 1_565 S
H1585 C1600 0.930 . S
C1586 H1574 0.930 . S
C1586 C1587 1.399 . S
C1586 C1591 1.399 . S
C1587 C1586 1.399 . S
C1587 C1588 1.376 . S
C1588 H1575 0.930 . S
C1588 C1587 1.376 . S
C1588 C1589 1.388 . S
C1589 H1576 0.930 1_545 S
C1589 C1588 1.388 . S
C1589 C1590 1.390 . S
C1590 C1589 1.390 . S
C1590 C1591 1.394 . S
C1590 C1596 1.465 . S
C1591 C1586 1.399 . S
C1591 C1590 1.394 . S
C1591 C1592 1.516 . S
C1592 C1591 1.516 . S
C1592 C1593 1.502 . S
C1592 C1594 1.561 . S
C1592 C1595 1.526 . S
C1593 H1577 0.959 . S
C1593 H1578 0.959 . S
C1593 H1579 0.961 . S
C1593 C1592 1.502 . S
C1594 H1580 0.960 . S
C1594 H1581 0.961 . S
C1594 H1582 0.959 . S
C1594 C1592 1.561 . S
C1595 C1592 1.526 . S
C1595 C1596 1.396 . S
C1595 C1600 1.390 . S
C1596 C1590 1.465 . S
C1596 C1595 1.396 . S
C1596 C1597 1.399 . S
C1597 H1583 0.929 1_545 S
C1597 C1596 1.399 . S
C1597 C1598 1.385 . S
C1598 H1584 0.931 1_545 S
C1598 C1597 1.385 . S
C1598 C1599 1.389 . S
C1599 C1598 1.389 . S
C1599 C1600 1.387 . S
C1600 H1585 0.930 . S
C1600 C1595 1.390 . S
C1600 C1599 1.387 . S
H1601 C1613 0.930 . S
H1602 C1615 0.930 . S
H1603 C1616 0.930 . S
H1604 C1620 0.959 . S
H1605 C1620 0.959 . S
H1606 C1620 0.961 . S
H1607 C1621 0.960 . S
H1608 C1621 0.961 . S
H1609 C1621 0.959 . S
H1610 C1624 0.929 . S
H1611 C1625 0.931 . S
H1612 C1627 0.930 . S
C1613 H1601 0.930 . S
C1613 C1614 1.399 . S
C1613 C1618 1.399 . S
C1614 C1613 1.399 . S
C1614 C1615 1.376 . S
C1615 H1602 0.930 . S
C1615 C1614 1.376 . S
C1615 C1616 1.388 . S
C1616 H1603 0.930 . S
C1616 C1615 1.388 . S
C1616 C1617 1.390 . S
C1617 C1616 1.390 . S
C1617 C1618 1.394 . S
C1617 C1623 1.465 . S
C1618 C1613 1.399 . S
C1618 C1617 1.394 . S
C1618 C1619 1.516 . S
C1619 C1618 1.516 . S
C1619 C1620 1.502 . S
C1619 C1621 1.561 . S
C1619 C1622 1.526 . S
C1620 H1604 0.959 . S
C1620 H1605 0.959 . S
C1620 H1606 0.961 . S
C1620 C1619 1.502 . S
C1621 H1607 0.960 . S
C1621 H1608 0.961 . S
C1621 H1609 0.959 . S
C1621 C1619 1.561 . S
C1622 C1619 1.526 . S
C1622 C1623 1.396 . S
C1622 C1627 1.390 . S
C1623 C1617 1.465 . S
C1623 C1622 1.396 . S
C1623 C1624 1.399 . S
C1624 H1610 0.929 . S
C1624 C1623 1.399 . S
C1624 C1625 1.385 . S
C1625 H1611 0.931 . S
C1625 C1624 1.385 . S
C1625 C1626 1.389 . S
C1626 C1625 1.389 . S
C1626 C1627 1.387 . S
C1627 H1612 0.930 . S
C1627 C1622 1.390 . S
C1627 C1626 1.387 . S
H1628 C1640 0.930 . S
H1629 C1642 0.930 . S
H1630 C1643 0.930 . S
H1631 C1647 0.959 . S
H1632 C1647 0.959 . S
H1633 C1647 0.961 . S
H1634 C1648 0.960 . S
H1635 C1648 0.961 . S
H1636 C1648 0.959 . S
H1637 C1651 0.929 . S
H1638 C1652 0.931 . S
H1639 C1654 0.930 . S
C1640 H1628 0.930 . S
C1640 C1641 1.399 1_545 S
C1640 C1645 1.399 . S
C1641 C1640 1.399 1_565 S
C1641 C1642 1.376 . S
C1642 H1629 0.930 . S
C1642 C1641 1.376 . S
C1642 C1643 1.388 . S
C1643 H1630 0.930 . S
C1643 C1642 1.388 . S
C1643 C1644 1.390 . S
C1644 C1643 1.390 . S
C1644 C1645 1.394 1_565 S
C1644 C1650 1.465 . S
C1645 C1640 1.399 . S
C1645 C1644 1.394 1_545 S
C1645 C1646 1.516 . S
C1646 C1645 1.516 . S
C1646 C1647 1.502 . S
C1646 C1648 1.561 . S
C1646 C1649 1.526 . S
C1647 H1631 0.959 . S
C1647 H1632 0.959 . S
C1647 H1633 0.961 . S
C1647 C1646 1.502 . S
C1648 H1634 0.960 . S
C1648 H1635 0.961 . S
C1648 H1636 0.959 . S
C1648 C1646 1.561 . S
C1649 C1646 1.526 . S
C1649 C1650 1.396 1_545 S
C1649 C1654 1.390 . S
C1650 C1644 1.465 . S
C1650 C1649 1.396 1_565 S
C1650 C1651 1.399 . S
C1651 H1637 0.929 . S
C1651 C1650 1.399 . S
C1651 C1652 1.385 . S
C1652 H1638 0.931 . S
C1652 C1651 1.385 . S
C1652 C1653 1.389 1_565 S
C1653 C1652 1.389 1_545 S
C1653 C1654 1.387 . S
C1654 H1639 0.930 . S
C1654 C1649 1.390 . S
C1654 C1653 1.387 . S
H1655 C1667 0.930 . S
H1656 C1669 0.930 . S
H1657 C1670 0.930 . S
H1658 C1674 0.959 . S
H1659 C1674 0.959 . S
H1660 C1674 0.961 . S
H1661 C1675 0.960 . S
H1662 C1675 0.961 . S
H1663 C1675 0.959 . S
H1664 C1678 0.929 . S
H1665 C1679 0.931 . S
H1666 C1681 0.930 . S
C1667 H1655 0.930 . S
C1667 C1668 1.399 . S
C1667 C1672 1.399 . S
C1668 C1667 1.399 . S
C1668 C1669 1.376 . S
C1669 H1656 0.930 . S
C1669 C1668 1.376 . S
C1669 C1670 1.388 . S
C1670 H1657 0.930 . S
C1670 C1669 1.388 . S
C1670 C1671 1.390 . S
C1671 C1670 1.390 . S
C1671 C1672 1.394 . S
C1671 C1677 1.465 . S
C1672 C1667 1.399 . S
C1672 C1671 1.394 . S
C1672 C1673 1.516 . S
C1673 C1672 1.516 . S
C1673 C1674 1.502 . S
C1673 C1675 1.561 . S
C1673 C1676 1.526 . S
C1674 H1658 0.959 . S
C1674 H1659 0.959 . S
C1674 H1660 0.961 . S
C1674 C1673 1.502 . S
C1675 H1661 0.960 . S
C1675 H1662 0.961 . S
C1675 H1663 0.959 . S
C1675 C1673 1.561 . S
C1676 C1673 1.526 . S
C1676 C1677 1.396 . S
C1676 C1681 1.390 . S
C1677 C1671 1.465 . S
C1677 C1676 1.396 . S
C1677 C1678 1.399 . S
C1678 H1664 0.929 . S
C1678 C1677 1.399 . S
C1678 C1679 1.385 . S
C1679 H1665 0.931 . S
C1679 C1678 1.385 . S
C1679 C1680 1.389 . S
C1680 C1679 1.389 . S
C1680 C1681 1.387 . S
C1681 H1666 0.930 . S
C1681 C1676 1.390 . S
C1681 C1680 1.387 . S
H1682 C1694 0.930 . S
H1683 C1696 0.930 . S
H1684 C1697 0.930 . S
H1685 C1701 0.959 . S
H1686 C1701 0.959 1_565 S
H1687 C1701 0.961 . S
H1688 C1702 0.960 . S
H1689 C1702 0.961 . S
H1690 C1702 0.959 . S
H1691 C1705 0.929 . S
H1692 C1706 0.931 . S
H1693 C1708 0.930 . S
C1694 H1682 0.930 . S
C1694 C1695 1.399 . S
C1694 C1699 1.399 . S
C1695 C1694 1.399 . S
C1695 C1696 1.376 . S
C1696 H1683 0.930 . S
C1696 C1695 1.376 . S
C1696 C1697 1.388 . S
C1697 H1684 0.930 . S
C1697 C1696 1.388 . S
C1697 C1698 1.390 . S
C1698 C1697 1.390 . S
C1698 C1699 1.394 . S
C1698 C1704 1.465 . S
C1699 C1694 1.399 . S
C1699 C1698 1.394 . S
C1699 C1700 1.516 . S
C1700 C1699 1.516 . S
C1700 C1701 1.502 . S
C1700 C1702 1.561 1_545 S
C1700 C1703 1.526 . S
C1701 H1685 0.959 . S
C1701 H1686 0.959 1_545 S
C1701 H1687 0.961 . S
C1701 C1700 1.502 . S
C1702 H1688 0.960 . S
C1702 H1689 0.961 . S
C1702 H1690 0.959 . S
C1702 C1700 1.561 1_565 S
C1703 C1700 1.526 . S
C1703 C1704 1.396 . S
C1703 C1708 1.390 . S
C1704 C1698 1.465 . S
C1704 C1703 1.396 . S
C1704 C1705 1.399 . S
C1705 H1691 0.929 . S
C1705 C1704 1.399 . S
C1705 C1706 1.385 . S
C1706 H1692 0.931 . S
C1706 C1705 1.385 . S
C1706 C1707 1.389 . S
C1707 C1706 1.389 . S
C1707 C1708 1.387 . S
C1708 H1693 0.930 . S
C1708 C1703 1.390 . S
C1708 C1707 1.387 . S
H1709 C1721 0.930 . S
H1710 C1723 0.930 . S
H1711 C1724 0.930 . S
H1712 C1728 0.959 . S
H1713 C1728 0.959 . S
H1714 C1728 0.961 . S
H1715 C1729 0.960 . S
H1716 C1729 0.961 . S
H1717 C1729 0.959 . S
H1718 C1732 0.929 . S
H1719 C1733 0.931 . S
H1720 C1735 0.930 . S
C1721 H1709 0.930 . S
C1721 C1722 1.399 . S
C1721 C1726 1.399 . S
C1722 C1721 1.399 . S
C1722 C1723 1.376 . S
C1723 H1710 0.930 . S
C1723 C1722 1.376 . S
C1723 C1724 1.388 . S
C1724 H1711 0.930 . S
C1724 C1723 1.388 . S
C1724 C1725 1.390 . S
C1725 C1724 1.390 . S
C1725 C1726 1.394 . S
C1725 C1731 1.465 . S
C1726 C1721 1.399 . S
C1726 C1725 1.394 . S
C1726 C1727 1.516 . S
C1727 C1726 1.516 . S
C1727 C1728 1.502 . S
C1727 C1729 1.561 . S
C1727 C1730 1.526 . S
C1728 H1712 0.959 . S
C1728 H1713 0.959 . S
C1728 H1714 0.961 . S
C1728 C1727 1.502 . S
C1729 H1715 0.960 . S
C1729 H1716 0.961 . S
C1729 H1717 0.959 . S
C1729 C1727 1.561 . S
C1730 C1727 1.526 . S
C1730 C1731 1.396 . S
C1730 C1735 1.390 . S
C1731 C1725 1.465 . S
C1731 C1730 1.396 . S
C1731 C1732 1.399 . S
C1732 H1718 0.929 . S
C1732 C1731 1.399 . S
C1732 C1733 1.385 . S
C1733 H1719 0.931 . S
C1733 C1732 1.385 . S
C1733 C1734 1.389 . S
C1734 C1733 1.389 . S
C1734 C1735 1.387 . S
C1735 H1720 0.930 . S
C1735 C1730 1.390 . S
C1735 C1734 1.387 . S
H1736 C1748 0.930 . S
H1737 C1750 0.930 . S
H1738 C1751 0.930 . S
H1739 C1755 0.959 . S
H1740 C1755 0.959 . S
H1741 C1755 0.961 . S
H1742 C1756 0.960 . S
H1743 C1756 0.961 . S
H1744 C1756 0.959 . S
H1745 C1759 0.929 . S
H1746 C1760 0.931 . S
H1747 C1762 0.930 . S
C1748 H1736 0.930 . S
C1748 C1749 1.424 . S
C1748 C1753 1.399 . S
C1749 C1748 1.424 . S
C1749 C1750 1.345 1_554 S
C1750 H1737 0.930 . S
C1750 C1749 1.345 1_556 S
C1750 C1751 1.388 . S
C1751 H1738 0.930 . S
C1751 C1750 1.388 . S
C1751 C1752 1.390 . S
C1752 C1751 1.390 . S
C1752 C1753 1.394 1_556 S
C1752 C1758 1.465 . S
C1753 C1748 1.399 . S
C1753 C1752 1.394 1_554 S
C1753 C1754 1.516 . S
C1754 C1753 1.516 . S
C1754 C1755 1.502 . S
C1754 C1756 1.561 . S
C1754 C1757 1.526 . S
C1755 H1739 0.959 . S
C1755 H1740 0.959 . S
C1755 H1741 0.961 . S
C1755 C1754 1.502 . S
C1756 H1742 0.960 . S
C1756 H1743 0.961 . S
C1756 H1744 0.959 . S
C1756 C1754 1.561 . S
C1757 C1754 1.526 . S
C1757 C1758 1.396 1_554 S
C1757 C1762 1.390 . S
C1758 C1752 1.465 . S
C1758 C1757 1.396 1_556 S
C1758 C1759 1.399 . S
C1759 H1745 0.929 . S
C1759 C1758 1.399 . S
C1759 C1760 1.385 . S
C1760 H1746 0.931 . S
C1760 C1759 1.385 . S
C1760 C1761 1.387 . S
C1761 C1760 1.387 . S
C1761 C1762 1.389 1_556 S
C1762 H1747 0.930 . S
C1762 C1757 1.390 . S
C1762 C1761 1.389 1_554 S
H1763 C1775 0.930 . S
H1764 C1777 0.930 . S
H1765 C1778 0.933 . S
H1766 C1782 0.959 . S
H1767 C1782 0.959 . S
H1768 C1782 0.961 . S
H1769 C1783 0.960 . S
H1770 C1783 0.961 . S
H1771 C1783 0.959 . S
H1772 C1786 0.929 1_556 S
H1773 C1787 0.931 . S
H1774 C1789 0.930 . S
C1775 H1763 0.930 . S
C1775 C1776 1.399 . S
C1775 C1780 1.399 . S
C1776 C1775 1.399 . S
C1776 C1777 1.376 . S
C1777 H1764 0.930 . S
C1777 C1776 1.376 . S
C1777 C1778 1.388 . S
C1778 H1765 0.933 . S
C1778 C1777 1.388 . S
C1778 C1779 1.390 . S
C1779 C1778 1.390 . S
C1779 C1780 1.394 . S
C1779 C1785 1.465 . S
C1780 C1775 1.399 . S
C1780 C1779 1.394 . S
C1780 C1781 1.516 . S
C1781 C1780 1.516 . S
C1781 C1782 1.502 . S
C1781 C1783 1.561 . S
C1781 C1784 1.526 . S
C1782 H1766 0.959 . S
C1782 H1767 0.959 . S
C1782 H1768 0.961 . S
C1782 C1781 1.502 . S
C1783 H1769 0.960 . S
C1783 H1770 0.961 . S
C1783 H1771 0.959 . S
C1783 C1781 1.561 . S
C1784 C1781 1.526 . S
C1784 C1785 1.396 . S
C1784 C1789 1.390 . S
C1785 C1779 1.465 . S
C1785 C1784 1.396 . S
C1785 C1786 1.399 . S
C1786 H1772 0.929 1_554 S
C1786 C1785 1.399 . S
C1786 C1787 1.385 . S
C1787 H1773 0.931 . S
C1787 C1786 1.385 . S
C1787 C1788 1.389 . S
C1788 C1787 1.389 . S
C1788 C1789 1.387 . S
C1789 H1774 0.930 . S
C1789 C1784 1.390 . S
C1789 C1788 1.387 . S
H1790 C1802 0.930 . S
H1791 C1804 0.930 . S
H1792 C1805 0.930 . S
H1793 C1809 0.959 . S
H1794 C1809 0.959 . S
H1795 C1809 0.961 . S
H1796 C1810 0.960 . S
H1797 C1810 0.961 . S
H1798 C1810 0.959 . S
H1799 C1813 0.929 . S
H1800 C1814 0.931 . S
H1801 C1816 0.930 . S
C1802 H1790 0.930 . S
C1802 C1803 1.399 . S
C1802 C1807 1.399 . S
C1803 C1802 1.399 . S
C1803 C1804 1.376 . S
C1804 H1791 0.930 . S
C1804 C1803 1.376 . S
C1804 C1805 1.388 . S
C1805 H1792 0.930 . S
C1805 C1804 1.388 . S
C1805 C1806 1.390 . S
C1806 C1805 1.390 . S
C1806 C1807 1.394 . S
C1806 C1812 1.465 . S
C1807 C1802 1.399 . S
C1807 C1806 1.394 . S
C1807 C1808 1.516 . S
C1808 C1807 1.516 . S
C1808 C1809 1.502 . S
C1808 C1810 1.561 . S
C1808 C1811 1.526 . S
C1809 H1793 0.959 . S
C1809 H1794 0.959 . S
C1809 H1795 0.961 . S
C1809 C1808 1.502 . S
C1810 H1796 0.960 . S
C1810 H1797 0.961 . S
C1810 H1798 0.959 . S
C1810 C1808 1.561 . S
C1811 C1808 1.526 . S
C1811 C1812 1.396 . S
C1811 C1816 1.390 . S
C1812 C1806 1.465 . S
C1812 C1811 1.396 . S
C1812 C1813 1.399 . S
C1813 H1799 0.929 . S
C1813 C1812 1.399 . S
C1813 C1814 1.385 . S
C1814 H1800 0.931 . S
C1814 C1813 1.385 . S
C1814 C1815 1.389 . S
C1815 C1814 1.389 . S
C1815 C1816 1.387 . S
C1816 H1801 0.930 . S
C1816 C1811 1.390 . S
C1816 C1815 1.387 . S
H1817 C1829 0.930 . S
H1818 C1831 0.930 . S
H1819 C1832 0.930 . S
H1820 C1836 0.959 . S
H1821 C1836 0.959 . S
H1822 C1836 0.961 . S
H1823 C1837 0.960 . S
H1824 C1837 0.961 . S
H1825 C1837 0.959 . S
H1826 C1840 0.929 . S
H1827 C1841 0.931 . S
H1828 C1843 0.930 . S
C1829 H1817 0.930 . S
C1829 C1830 1.399 . S
C1829 C1834 1.399 . S
C1830 C1829 1.399 . S
C1830 C1831 1.376 . S
C1831 H1818 0.930 . S
C1831 C1830 1.376 . S
C1831 C1832 1.388 . S
C1832 H1819 0.930 . S
C1832 C1831 1.388 . S
C1832 C1833 1.390 . S
C1833 C1832 1.390 . S
C1833 C1834 1.394 . S
C1833 C1839 1.465 . S
C1834 C1829 1.399 . S
C1834 C1833 1.394 . S
C1834 C1835 1.516 . S
C1835 C1834 1.516 . S
C1835 C1836 1.502 . S
C1835 C1837 1.561 . S
C1835 C1838 1.526 . S
C1836 H1820 0.959 . S
C1836 H1821 0.959 . S
C1836 H1822 0.961 . S
C1836 C1835 1.502 . S
C1837 H1823 0.960 . S
C1837 H1824 0.961 . S
C1837 H1825 0.959 . S
C1837 C1835 1.561 . S
C1838 C1835 1.526 . S
C1838 C1839 1.396 . S
C1838 C1843 1.390 . S
C1839 C1833 1.465 . S
C1839 C1838 1.396 . S
C1839 C1840 1.399 . S
C1840 H1826 0.929 . S
C1840 C1839 1.399 . S
C1840 C1841 1.385 . S
C1841 H1827 0.931 . S
C1841 C1840 1.385 . S
C1841 C1842 1.389 . S
C1842 C1841 1.389 . S
C1842 C1843 1.387 . S
C1843 H1828 0.930 . S
C1843 C1838 1.390 . S
C1843 C1842 1.387 . S
H1844 C1856 0.930 . S
H1845 C1858 0.930 . S
H1846 C1859 0.930 . S
H1847 C1863 0.959 . S
H1848 C1863 0.959 . S
H1849 C1863 0.961 . S
H1850 C1864 0.960 . S
H1851 C1864 0.961 . S
H1852 C1864 0.959 . S
H1853 C1867 0.929 . S
H1854 C1868 0.931 . S
H1855 C1870 0.930 . S
C1856 H1844 0.930 . S
C1856 C1857 1.399 . S
C1856 C1861 1.399 . S
C1857 C1856 1.399 . S
C1857 C1858 1.376 . S
C1858 H1845 0.930 . S
C1858 C1857 1.376 . S
C1858 C1859 1.388 . S
C1859 H1846 0.930 . S
C1859 C1858 1.388 . S
C1859 C1860 1.390 . S
C1860 C1859 1.390 . S
C1860 C1861 1.394 . S
C1860 C1866 1.465 . S
C1861 C1856 1.399 . S
C1861 C1860 1.394 . S
C1861 C1862 1.516 . S
C1862 C1861 1.516 . S
C1862 C1863 1.502 . S
C1862 C1864 1.561 . S
C1862 C1865 1.526 . S
C1863 H1847 0.959 . S
C1863 H1848 0.959 . S
C1863 H1849 0.961 . S
C1863 C1862 1.502 . S
C1864 H1850 0.960 . S
C1864 H1851 0.961 . S
C1864 H1852 0.959 . S
C1864 C1862 1.561 . S
C1865 C1862 1.526 . S
C1865 C1866 1.396 . S
C1865 C1870 1.390 . S
C1866 C1860 1.465 . S
C1866 C1865 1.396 . S
C1866 C1867 1.399 . S
C1867 H1853 0.929 . S
C1867 C1866 1.399 . S
C1867 C1868 1.385 . S
C1868 H1854 0.931 . S
C1868 C1867 1.385 . S
C1868 C1869 1.389 . S
C1869 C1868 1.389 . S
C1869 C1870 1.387 . S
C1870 H1855 0.930 . S
C1870 C1865 1.390 . S
C1870 C1869 1.387 . S
H1871 C1883 0.930 . S
H1872 C1885 0.930 . S
H1873 C1886 0.930 . S
H1874 C1890 0.959 . S
H1875 C1890 0.959 . S
H1876 C1890 0.961 . S
H1877 C1891 0.960 . S
H1878 C1891 0.961 . S
H1879 C1891 0.959 . S
H1880 C1894 0.929 . S
H1881 C1895 0.931 . S
H1882 C1897 0.930 . S
C1883 H1871 0.930 . S
C1883 C1884 1.399 . S
C1883 C1888 1.399 . S
C1884 C1883 1.399 . S
C1884 C1885 1.376 . S
C1885 H1872 0.930 . S
C1885 C1884 1.376 . S
C1885 C1886 1.388 . S
C1886 H1873 0.930 . S
C1886 C1885 1.388 . S
C1886 C1887 1.390 . S
C1887 C1886 1.390 . S
C1887 C1888 1.394 . S
C1887 C1893 1.465 . S
C1888 C1883 1.399 . S
C1888 C1887 1.394 . S
C1888 C1889 1.516 . S
C1889 C1888 1.516 . S
C1889 C1890 1.502 . S
C1889 C1891 1.561 . S
C1889 C1892 1.526 . S
C1890 H1874 0.959 . S
C1890 H1875 0.959 . S
C1890 H1876 0.961 . S
C1890 C1889 1.502 . S
C1891 H1877 0.960 . S
C1891 H1878 0.961 . S
C1891 H1879 0.959 . S
C1891 C1889 1.561 . S
C1892 C1889 1.526 . S
C1892 C1893 1.396 . S
C1892 C1897 1.390 . S
C1893 C1887 1.465 . S
C1893 C1892 1.396 . S
C1893 C1894 1.399 . S
C1894 H1880 0.929 . S
C1894 C1893 1.399 . S
C1894 C1895 1.385 . S
C1895 H1881 0.931 . S
C1895 C1894 1.385 . S
C1895 C1896 1.389 . S
C1896 C1895 1.389 . S
C1896 C1897 1.387 . S
C1897 H1882 0.930 . S
C1897 C1892 1.390 . S
C1897 C1896 1.387 . S
H1898 C1910 0.930 . S
H1899 C1912 0.930 . S
H1900 C1913 0.930 . S
H1901 C1917 0.959 . S
H1902 C1917 0.959 . S
H1903 C1917 0.961 . S
H1904 C1918 0.960 . S
H1905 C1918 0.961 . S
H1906 C1918 0.959 . S
H1907 C1921 0.929 . S
H1908 C1922 0.931 . S
H1909 C1924 0.930 . S
C1910 H1898 0.930 . S
C1910 C1911 1.399 . S
C1910 C1915 1.399 . S
C1911 C1910 1.399 . S
C1911 C1912 1.376 . S
C1912 H1899 0.930 . S
C1912 C1911 1.376 . S
C1912 C1913 1.388 . S
C1913 H1900 0.930 . S
C1913 C1912 1.388 . S
C1913 C1914 1.390 . S
C1914 C1913 1.390 . S
C1914 C1915 1.394 . S
C1914 C1920 1.465 . S
C1915 C1910 1.399 . S
C1915 C1914 1.394 . S
C1915 C1916 1.516 . S
C1916 C1915 1.516 . S
C1916 C1917 1.502 . S
C1916 C1918 1.561 . S
C1916 C1919 1.526 . S
C1917 H1901 0.959 . S
C1917 H1902 0.959 . S
C1917 H1903 0.961 . S
C1917 C1916 1.502 . S
C1918 H1904 0.960 . S
C1918 H1905 0.961 . S
C1918 H1906 0.959 . S
C1918 C1916 1.561 . S
C1919 C1916 1.526 . S
C1919 C1920 1.396 . S
C1919 C1924 1.390 . S
C1920 C1914 1.465 . S
C1920 C1919 1.396 . S
C1920 C1921 1.399 . S
C1921 H1907 0.929 . S
C1921 C1920 1.399 . S
C1921 C1922 1.385 . S
C1922 H1908 0.931 . S
C1922 C1921 1.385 . S
C1922 C1923 1.389 . S
C1923 C1922 1.389 . S
C1923 C1924 1.387 . S
C1924 H1909 0.930 . S
C1924 C1919 1.390 . S
C1924 C1923 1.387 . S
H1925 C1937 0.930 . S
H1926 C1939 0.930 . S
H1927 C1940 0.930 . S
H1928 C1944 0.959 . S
H1929 C1944 0.959 . S
H1930 C1944 0.961 . S
H1931 C1945 0.960 . S
H1932 C1945 0.961 . S
H1933 C1945 0.959 . S
H1934 C1948 0.929 . S
H1935 C1949 0.931 . S
H1936 C1951 0.930 . S
C1937 H1925 0.930 . S
C1937 C1938 1.399 . S
C1937 C1942 1.399 . S
C1938 C1937 1.399 . S
C1938 C1939 1.376 . S
C1939 H1926 0.930 . S
C1939 C1938 1.376 . S
C1939 C1940 1.388 . S
C1940 H1927 0.930 . S
C1940 C1939 1.388 . S
C1940 C1941 1.390 . S
C1941 C1940 1.390 . S
C1941 C1942 1.394 . S
C1941 C1947 1.465 . S
C1942 C1937 1.399 . S
C1942 C1941 1.394 . S
C1942 C1943 1.516 . S
C1943 C1942 1.516 . S
C1943 C1944 1.502 . S
C1943 C1945 1.561 . S
C1943 C1946 1.526 . S
C1944 H1928 0.959 . S
C1944 H1929 0.959 . S
C1944 H1930 0.961 . S
C1944 C1943 1.502 . S
C1945 H1931 0.960 . S
C1945 H1932 0.961 . S
C1945 H1933 0.959 . S
C1945 C1943 1.561 . S
C1946 C1943 1.526 . S
C1946 C1947 1.396 . S
C1946 C1951 1.390 . S
C1947 C1941 1.465 . S
C1947 C1946 1.396 . S
C1947 C1948 1.399 . S
C1948 H1934 0.929 . S
C1948 C1947 1.399 . S
C1948 C1949 1.385 . S
C1949 H1935 0.931 . S
C1949 C1948 1.385 . S
C1949 C1950 1.389 . S
C1950 C1949 1.389 . S
C1950 C1951 1.387 . S
C1951 H1936 0.930 . S
C1951 C1946 1.390 . S
C1951 C1950 1.387 . S
H1952 C1964 0.930 . S
H1953 C1966 0.930 . S
H1954 C1967 0.930 . S
H1955 C1971 0.959 . S
H1956 C1971 0.959 . S
H1957 C1971 0.961 . S
H1958 C1972 0.960 . S
H1959 C1972 0.961 . S
H1960 C1972 0.959 . S
H1961 C1975 0.929 . S
H1962 C1976 0.931 . S
H1963 C1978 0.930 . S
C1964 H1952 0.930 . S
C1964 C1965 1.399 . S
C1964 C1969 1.399 . S
C1965 C1964 1.399 . S
C1965 C1966 1.376 . S
C1966 H1953 0.930 . S
C1966 C1965 1.376 . S
C1966 C1967 1.388 . S
C1967 H1954 0.930 . S
C1967 C1966 1.388 . S
C1967 C1968 1.390 . S
C1968 C1967 1.390 . S
C1968 C1969 1.394 . S
C1968 C1974 1.465 . S
C1969 C1964 1.399 . S
C1969 C1968 1.394 . S
C1969 C1970 1.516 . S
C1970 C1969 1.516 . S
C1970 C1971 1.502 . S
C1970 C1972 1.561 . S
C1970 C1973 1.526 . S
C1971 H1955 0.959 . S
C1971 H1956 0.959 . S
C1971 H1957 0.961 . S
C1971 C1970 1.502 . S
C1972 H1958 0.960 . S
C1972 H1959 0.961 . S
C1972 H1960 0.959 . S
C1972 C1970 1.561 . S
C1973 C1970 1.526 . S
C1973 C1974 1.396 . S
C1973 C1978 1.390 . S
C1974 C1968 1.465 . S
C1974 C1973 1.396 . S
C1974 C1975 1.399 . S
C1975 H1961 0.929 . S
C1975 C1974 1.399 . S
C1975 C1976 1.385 . S
C1976 H1962 0.931 . S
C1976 C1975 1.385 . S
C1976 C1977 1.389 . S
C1977 C1976 1.389 . S
C1977 C1978 1.387 . S
C1978 H1963 0.930 . S
C1978 C1973 1.390 . S
C1978 C1977 1.387 . S
H1979 C1991 0.930 . S
H1980 C1993 0.930 . S
H1981 C1994 0.930 . S
H1982 C1998 0.959 . S
H1983 C1998 0.959 . S
H1984 C1998 0.961 . S
H1985 C1999 0.960 . S
H1986 C1999 0.961 . S
H1987 C1999 0.959 . S
H1988 C2002 0.929 . S
H1989 C2003 0.931 . S
H1990 C2005 0.930 . S
C1991 H1979 0.930 . S
C1991 C1992 1.399 . S
C1991 C1996 1.399 . S
C1992 C1991 1.399 . S
C1992 C1993 1.376 . S
C1993 H1980 0.930 . S
C1993 C1992 1.376 . S
C1993 C1994 1.388 . S
C1994 H1981 0.930 . S
C1994 C1993 1.388 . S
C1994 C1995 1.390 . S
C1995 C1994 1.390 . S
C1995 C1996 1.394 . S
C1995 C2001 1.465 . S
C1996 C1991 1.399 . S
C1996 C1995 1.394 . S
C1996 C1997 1.516 . S
C1997 C1996 1.516 . S
C1997 C1998 1.502 . S
C1997 C1999 1.561 . S
C1997 C2000 1.526 . S
C1998 H1982 0.959 . S
C1998 H1983 0.959 . S
C1998 H1984 0.961 . S
C1998 C1997 1.502 . S
C1999 H1985 0.960 . S
C1999 H1986 0.961 . S
C1999 H1987 0.959 . S
C1999 C1997 1.561 . S
C2000 C1997 1.526 . S
C2000 C2001 1.396 . S
C2000 C2005 1.390 . S
C2001 C1995 1.465 . S
C2001 C2000 1.396 . S
C2001 C2002 1.399 . S
C2002 H1988 0.929 . S
C2002 C2001 1.399 . S
C2002 C2003 1.385 . S
C2003 H1989 0.931 . S
C2003 C2002 1.385 . S
C2003 C2004 1.389 . S
C2004 C2003 1.389 . S
C2004 C2005 1.387 . S
C2005 H1990 0.930 . S
C2005 C2000 1.390 . S
C2005 C2004 1.387 . S
H2006 C2018 0.930 . S
H2007 C2020 0.930 . S
H2008 C2021 0.930 . S
H2009 C2025 0.959 . S
H2010 C2025 0.959 1_554 S
H2011 C2025 0.961 . S
H2012 C2026 0.960 . S
H2013 C2026 0.961 1_554 S
H2014 C2026 0.959 . S
H2015 C2029 0.929 . S
H2016 C2030 0.931 . S
H2017 C2032 0.930 1_554 S
C2018 H2006 0.930 . S
C2018 C2019 1.399 . S
C2018 C2023 1.399 . S
C2019 C2018 1.399 . S
C2019 C2020 1.376 . S
C2020 H2007 0.930 . S
C2020 C2019 1.376 . S
C2020 C2021 1.388 . S
C2021 H2008 0.930 . S
C2021 C2020 1.388 . S
C2021 C2022 1.390 . S
C2022 C2021 1.390 . S
C2022 C2023 1.394 . S
C2022 C2028 1.465 . S
C2023 C2018 1.399 . S
C2023 C2022 1.394 . S
C2023 C2024 1.516 . S
C2024 C2023 1.516 . S
C2024 C2025 1.502 1_455 S
C2024 C2026 1.561 . S
C2024 C2027 1.526 . S
C2025 H2009 0.959 . S
C2025 H2010 0.959 1_556 S
C2025 H2011 0.961 . S
C2025 C2024 1.502 1_655 S
C2026 H2012 0.960 . S
C2026 H2013 0.961 1_556 S
C2026 H2014 0.959 . S
C2026 C2024 1.561 . S
C2027 C2024 1.526 . S
C2027 C2028 1.396 . S
C2027 C2032 1.390 . S
C2028 C2022 1.465 . S
C2028 C2027 1.396 . S
C2028 C2029 1.399 . S
C2029 H2015 0.929 . S
C2029 C2028 1.399 . S
C2029 C2030 1.385 . S
C2030 H2016 0.931 . S
C2030 C2029 1.385 . S
C2030 C2031 1.389 . S
C2031 C2030 1.389 . S
C2031 C2032 1.387 . S
C2032 H2017 0.930 1_556 S
C2032 C2027 1.390 . S
C2032 C2031 1.387 . S
H2033 C2045 0.930 . S
H2034 C2047 0.930 . S
H2035 C2048 0.930 . S
H2036 C2052 0.959 . S
H2037 C2052 0.959 . S
H2038 C2052 0.961 . S
H2039 C2053 0.960 . S
H2040 C2053 0.961 . S
H2041 C2053 0.959 . S
H2042 C2056 0.929 . S
H2043 C2057 0.931 . S
H2044 C2059 0.930 . S
C2045 H2033 0.930 . S
C2045 C2046 1.399 . S
C2045 C2050 1.399 . S
C2046 C2045 1.399 . S
C2046 C2047 1.376 . S
C2047 H2034 0.930 . S
C2047 C2046 1.376 . S
C2047 C2048 1.388 . S
C2048 H2035 0.930 . S
C2048 C2047 1.388 . S
C2048 C2049 1.390 . S
C2049 C2048 1.390 . S
C2049 C2050 1.394 . S
C2049 C2055 1.465 . S
C2050 C2045 1.399 . S
C2050 C2049 1.394 . S
C2050 C2051 1.516 . S
C2051 C2050 1.516 . S
C2051 C2052 1.502 . S
C2051 C2053 1.561 . S
C2051 C2054 1.526 . S
C2052 H2036 0.959 . S
C2052 H2037 0.959 . S
C2052 H2038 0.961 . S
C2052 C2051 1.502 . S
C2053 H2039 0.960 . S
C2053 H2040 0.961 . S
C2053 H2041 0.959 . S
C2053 C2051 1.561 . S
C2054 C2051 1.526 . S
C2054 C2055 1.396 . S
C2054 C2059 1.390 . S
C2055 C2049 1.465 . S
C2055 C2054 1.396 . S
C2055 C2056 1.399 . S
C2056 H2042 0.929 . S
C2056 C2055 1.399 . S
C2056 C2057 1.385 . S
C2057 H2043 0.931 . S
C2057 C2056 1.385 . S
C2057 C2058 1.389 . S
C2058 C2057 1.389 . S
C2058 C2059 1.387 . S
C2059 H2044 0.930 . S
C2059 C2054 1.390 . S
C2059 C2058 1.387 . S
H2060 C2072 0.930 . S
H2061 C2074 0.930 . S
H2062 C2075 0.930 . S
H2063 C2079 0.959 . S
H2064 C2079 0.959 . S
H2065 C2079 0.961 . S
H2066 C2080 0.960 . S
H2067 C2080 0.961 . S
H2068 C2080 0.959 . S
H2069 C2083 0.929 . S
H2070 C2084 0.931 . S
H2071 C2086 0.930 . S
C2072 H2060 0.930 . S
C2072 C2073 1.399 . S
C2072 C2077 1.399 . S
C2073 C2072 1.399 . S
C2073 C2074 1.376 . S
C2074 H2061 0.930 . S
C2074 C2073 1.376 . S
C2074 C2075 1.388 . S
C2075 H2062 0.930 . S
C2075 C2074 1.388 . S
C2075 C2076 1.390 . S
C2076 C2075 1.390 . S
C2076 C2077 1.394 . S
C2076 C2082 1.465 . S
C2077 C2072 1.399 . S
C2077 C2076 1.394 . S
C2077 C2078 1.516 . S
C2078 C2077 1.516 . S
C2078 C2079 1.502 . S
C2078 C2080 1.561 . S
C2078 C2081 1.526 . S
C2079 H2063 0.959 . S
C2079 H2064 0.959 . S
C2079 H2065 0.961 . S
C2079 C2078 1.502 . S
C2080 H2066 0.960 . S
C2080 H2067 0.961 . S
C2080 H2068 0.959 . S
C2080 C2078 1.561 . S
C2081 C2078 1.526 . S
C2081 C2082 1.396 . S
C2081 C2086 1.390 . S
C2082 C2076 1.465 . S
C2082 C2081 1.396 . S
C2082 C2083 1.399 . S
C2083 H2069 0.929 . S
C2083 C2082 1.399 . S
C2083 C2084 1.385 . S
C2084 H2070 0.931 . S
C2084 C2083 1.385 . S
C2084 C2085 1.389 . S
C2085 C2084 1.389 . S
C2085 C2086 1.387 . S
C2086 H2071 0.930 . S
C2086 C2081 1.390 . S
C2086 C2085 1.387 . S
H2087 C2099 0.930 . S
H2088 C2101 0.930 . S
H2089 C2102 0.930 . S
H2090 C2106 0.959 . S
H2091 C2106 0.959 . S
H2092 C2106 0.961 . S
H2093 C2107 0.960 . S
H2094 C2107 0.961 . S
H2095 C2107 0.959 . S
H2096 C2110 0.929 . S
H2097 C2111 0.931 . S
H2098 C2113 0.930 . S
C2099 H2087 0.930 . S
C2099 C2100 1.399 . S
C2099 C2104 1.399 . S
C2100 C2099 1.399 . S
C2100 C2101 1.376 . S
C2101 H2088 0.930 . S
C2101 C2100 1.376 . S
C2101 C2102 1.388 . S
C2102 H2089 0.930 . S
C2102 C2101 1.388 . S
C2102 C2103 1.390 . S
C2103 C2102 1.390 . S
C2103 C2104 1.394 . S
C2103 C2109 1.465 . S
C2104 C2099 1.399 . S
C2104 C2103 1.394 . S
C2104 C2105 1.516 . S
C2105 C2104 1.516 . S
C2105 C2106 1.502 . S
C2105 C2107 1.561 . S
C2105 C2108 1.526 . S
C2106 H2090 0.959 . S
C2106 H2091 0.959 . S
C2106 H2092 0.961 . S
C2106 C2105 1.502 . S
C2107 H2093 0.960 . S
C2107 H2094 0.961 . S
C2107 H2095 0.959 . S
C2107 C2105 1.561 . S
C2108 C2105 1.526 . S
C2108 C2109 1.396 . S
C2108 C2113 1.390 . S
C2109 C2103 1.465 . S
C2109 C2108 1.396 . S
C2109 C2110 1.399 . S
C2110 H2096 0.929 . S
C2110 C2109 1.399 . S
C2110 C2111 1.385 . S
C2111 H2097 0.931 . S
C2111 C2110 1.385 . S
C2111 C2112 1.389 . S
C2112 C2111 1.389 . S
C2112 C2113 1.387 . S
C2113 H2098 0.930 . S
C2113 C2108 1.390 . S
C2113 C2112 1.387 . S
H2114 C2126 0.930 . S
H2115 C2128 0.930 . S
H2116 C2129 0.930 . S
H2117 C2133 0.959 . S
H2118 C2133 0.959 . S
H2119 C2133 0.961 . S
H2120 C2134 0.953 1_655 S
H2121 C2134 0.961 1_655 S
H2122 C2134 0.959 . S
H2123 C2137 0.929 . S
H2124 C2138 0.931 . S
H2125 C2140 0.930 . S
C2126 H2114 0.930 . S
C2126 C2127 1.399 . S
C2126 C2131 1.399 . S
C2127 C2126 1.399 . S
C2127 C2128 1.376 1_655 S
C2128 H2115 0.930 . S
C2128 C2127 1.376 1_455 S
C2128 C2129 1.388 . S
C2129 H2116 0.930 . S
C2129 C2128 1.388 . S
C2129 C2130 1.390 . S
C2130 C2129 1.390 . S
C2130 C2131 1.394 1_455 S
C2130 C2136 1.465 . S
C2131 C2126 1.399 . S
C2131 C2130 1.394 1_655 S
C2131 C2132 1.516 . S
C2132 C2131 1.516 . S
C2132 C2133 1.502 . S
C2132 C2134 1.561 1_655 S
C2132 C2135 1.526 . S
C2133 H2117 0.959 . S
C2133 H2118 0.959 . S
C2133 H2119 0.961 . S
C2133 C2132 1.502 . S
C2134 H2120 0.953 1_455 S
C2134 H2121 0.961 1_455 S
C2134 H2122 0.959 . S
C2134 C2132 1.561 1_455 S
C2135 C2132 1.526 . S
C2135 C2136 1.396 1_655 S
C2135 C2140 1.390 . S
C2136 C2130 1.465 . S
C2136 C2135 1.396 1_455 S
C2136 C2137 1.399 . S
C2137 H2123 0.929 . S
C2137 C2136 1.399 . S
C2137 C2138 1.385 . S
C2138 H2124 0.931 . S
C2138 C2137 1.385 . S
C2138 C2139 1.387 1_455 S
C2139 C2138 1.387 1_655 S
C2139 C2140 1.390 . S
C2140 H2125 0.930 . S
C2140 C2135 1.390 . S
C2140 C2139 1.390 . S
H2141 C2153 0.930 . S
H2142 C2155 0.930 . S
H2143 C2156 0.930 . S
H2144 C2160 0.959 . S
H2145 C2160 0.959 . S
H2146 C2160 0.961 . S
H2147 C2161 0.960 . S
H2148 C2161 0.961 . S
H2149 C2161 0.959 . S
H2150 C2164 0.929 . S
H2151 C2165 0.931 . S
H2152 C2167 0.930 . S
C2153 H2141 0.930 . S
C2153 C2154 1.399 . S
C2153 C2158 1.399 . S
C2154 C2153 1.399 . S
C2154 C2155 1.376 . S
C2155 H2142 0.930 . S
C2155 C2154 1.376 . S
C2155 C2156 1.388 . S
C2156 H2143 0.930 . S
C2156 C2155 1.388 . S
C2156 C2157 1.390 . S
C2157 C2156 1.390 . S
C2157 C2158 1.394 . S
C2157 C2163 1.465 . S
C2158 C2153 1.399 . S
C2158 C2157 1.394 . S
C2158 C2159 1.516 . S
C2159 C2158 1.516 . S
C2159 C2160 1.502 . S
C2159 C2161 1.561 . S
C2159 C2162 1.526 . S
C2160 H2144 0.959 . S
C2160 H2145 0.959 . S
C2160 H2146 0.961 . S
C2160 C2159 1.502 . S
C2161 H2147 0.960 . S
C2161 H2148 0.961 . S
C2161 H2149 0.959 . S
C2161 C2159 1.561 . S
C2162 C2159 1.526 . S
C2162 C2163 1.396 . S
C2162 C2167 1.390 . S
C2163 C2157 1.465 . S
C2163 C2162 1.396 . S
C2163 C2164 1.399 . S
C2164 H2150 0.929 . S
C2164 C2163 1.399 . S
C2164 C2165 1.385 . S
C2165 H2151 0.931 . S
C2165 C2164 1.385 . S
C2165 C2166 1.389 . S
C2166 C2165 1.389 . S
C2166 C2167 1.387 . S
C2167 H2152 0.930 . S
C2167 C2162 1.390 . S
C2167 C2166 1.387 . S
H2168 C2180 0.930 . S
H2169 C2182 0.930 . S
H2170 C2183 0.930 . S
H2171 C2187 0.959 . S
H2172 C2187 0.959 . S
H2173 C2187 0.961 . S
H2174 C2188 0.960 . S
H2175 C2188 0.961 . S
H2176 C2188 0.959 . S
H2177 C2191 0.929 . S
H2178 C2192 0.931 . S
H2179 C2194 0.930 . S
C2180 H2168 0.930 . S
C2180 C2181 1.399 . S
C2180 C2185 1.399 . S
C2181 C2180 1.399 . S
C2181 C2182 1.376 . S
C2182 H2169 0.930 . S
C2182 C2181 1.376 . S
C2182 C2183 1.388 . S
C2183 H2170 0.930 . S
C2183 C2182 1.388 . S
C2183 C2184 1.390 . S
C2184 C2183 1.390 . S
C2184 C2185 1.394 . S
C2184 C2190 1.465 . S
C2185 C2180 1.399 . S
C2185 C2184 1.394 . S
C2185 C2186 1.516 . S
C2186 C2185 1.516 . S
C2186 C2187 1.502 . S
C2186 C2188 1.561 . S
C2186 C2189 1.526 . S
C2187 H2171 0.959 . S
C2187 H2172 0.959 . S
C2187 H2173 0.961 . S
C2187 C2186 1.502 . S
C2188 H2174 0.960 . S
C2188 H2175 0.961 . S
C2188 H2176 0.959 . S
C2188 C2186 1.561 . S
C2189 C2186 1.526 . S
C2189 C2190 1.396 . S
C2189 C2194 1.390 . S
C2190 C2184 1.465 . S
C2190 C2189 1.396 . S
C2190 C2191 1.399 . S
C2191 H2177 0.929 . S
C2191 C2190 1.399 . S
C2191 C2192 1.385 . S
C2192 H2178 0.931 . S
C2192 C2191 1.385 . S
C2192 C2193 1.389 . S
C2193 C2192 1.389 . S
C2193 C2194 1.387 . S
C2194 H2179 0.930 . S
C2194 C2189 1.390 . S
C2194 C2193 1.387 . S
H2195 C2207 0.930 . S
H2196 C2209 0.930 . S
H2197 C2210 0.930 . S
H2198 C2214 0.959 . S
H2199 C2214 0.959 . S
H2200 C2214 0.961 . S
H2201 C2215 0.960 . S
H2202 C2215 0.961 . S
H2203 C2215 0.959 . S
H2204 C2218 0.929 . S
H2205 C2219 0.931 . S
H2206 C2221 0.930 . S
C2207 H2195 0.930 . S
C2207 C2208 1.399 . S
C2207 C2212 1.399 . S
C2208 C2207 1.399 . S
C2208 C2209 1.376 . S
C2209 H2196 0.930 . S
C2209 C2208 1.376 . S
C2209 C2210 1.388 . S
C2210 H2197 0.930 . S
C2210 C2209 1.388 . S
C2210 C2211 1.390 . S
C2211 C2210 1.390 . S
C2211 C2212 1.394 . S
C2211 C2217 1.465 . S
C2212 C2207 1.399 . S
C2212 C2211 1.394 . S
C2212 C2213 1.516 . S
C2213 C2212 1.516 . S
C2213 C2214 1.502 . S
C2213 C2215 1.561 . S
C2213 C2216 1.526 . S
C2214 H2198 0.959 . S
C2214 H2199 0.959 . S
C2214 H2200 0.961 . S
C2214 C2213 1.502 . S
C2215 H2201 0.960 . S
C2215 H2202 0.961 . S
C2215 H2203 0.959 . S
C2215 C2213 1.561 . S
C2216 C2213 1.526 . S
C2216 C2217 1.396 . S
C2216 C2221 1.390 . S
C2217 C2211 1.465 . S
C2217 C2216 1.396 . S
C2217 C2218 1.399 . S
C2218 H2204 0.929 . S
C2218 C2217 1.399 . S
C2218 C2219 1.385 . S
C2219 H2205 0.931 . S
C2219 C2218 1.385 . S
C2219 C2220 1.389 . S
C2220 C2219 1.389 . S
C2220 C2221 1.387 . S
C2221 H2206 0.930 . S
C2221 C2216 1.390 . S
C2221 C2220 1.387 . S
H2222 C2234 0.930 . S
H2223 C2236 0.930 . S
H2224 C2237 0.930 . S
H2225 C2241 0.959 . S
H2226 C2241 0.959 . S
H2227 C2241 0.961 . S
H2228 C2242 0.960 . S
H2229 C2242 0.961 . S
H2230 C2242 0.959 . S
H2231 C2245 0.929 . S
H2232 C2246 0.931 . S
H2233 C2248 0.930 . S
C2234 H2222 0.930 . S
C2234 C2235 1.399 . S
C2234 C2239 1.399 . S
C2235 C2234 1.399 . S
C2235 C2236 1.376 . S
C2236 H2223 0.930 . S
C2236 C2235 1.376 . S
C2236 C2237 1.388 . S
C2237 H2224 0.930 . S
C2237 C2236 1.388 . S
C2237 C2238 1.390 . S
C2238 C2237 1.390 . S
C2238 C2239 1.394 . S
C2238 C2244 1.465 . S
C2239 C2234 1.399 . S
C2239 C2238 1.394 . S
C2239 C2240 1.516 . S
C2240 C2239 1.516 . S
C2240 C2241 1.502 . S
C2240 C2242 1.561 . S
C2240 C2243 1.526 . S
C2241 H2225 0.959 . S
C2241 H2226 0.959 . S
C2241 H2227 0.961 . S
C2241 C2240 1.502 . S
C2242 H2228 0.960 . S
C2242 H2229 0.961 . S
C2242 H2230 0.959 . S
C2242 C2240 1.561 . S
C2243 C2240 1.526 . S
C2243 C2244 1.396 . S
C2243 C2248 1.390 . S
C2244 C2238 1.465 . S
C2244 C2243 1.396 . S
C2244 C2245 1.399 . S
C2245 H2231 0.929 . S
C2245 C2244 1.399 . S
C2245 C2246 1.385 . S
C2246 H2232 0.931 . S
C2246 C2245 1.385 . S
C2246 C2247 1.389 . S
C2247 C2246 1.389 . S
C2247 C2248 1.387 . S
C2248 H2233 0.930 . S
C2248 C2243 1.390 . S
C2248 C2247 1.387 . S
H2249 C2261 0.930 . S
H2250 C2263 0.930 . S
H2251 C2264 0.930 . S
H2252 C2268 0.959 . S
H2253 C2268 0.959 . S
H2254 C2268 0.961 . S
H2255 C2269 0.960 . S
H2256 C2269 0.961 . S
H2257 C2269 0.959 . S
H2258 C2272 0.929 . S
H2259 C2273 0.931 . S
H2260 C2275 0.930 . S
C2261 H2249 0.930 . S
C2261 C2262 1.399 . S
C2261 C2266 1.399 . S
C2262 C2261 1.399 . S
C2262 C2263 1.376 . S
C2263 H2250 0.930 . S
C2263 C2262 1.376 . S
C2263 C2264 1.388 . S
C2264 H2251 0.930 . S
C2264 C2263 1.388 . S
C2264 C2265 1.390 . S
C2265 C2264 1.390 . S
C2265 C2266 1.394 . S
C2265 C2271 1.465 . S
C2266 C2261 1.399 . S
C2266 C2265 1.394 . S
C2266 C2267 1.516 . S
C2267 C2266 1.516 . S
C2267 C2268 1.502 . S
C2267 C2269 1.561 . S
C2267 C2270 1.526 . S
C2268 H2252 0.959 . S
C2268 H2253 0.959 . S
C2268 H2254 0.961 . S
C2268 C2267 1.502 . S
C2269 H2255 0.960 . S
C2269 H2256 0.961 . S
C2269 H2257 0.959 . S
C2269 C2267 1.561 . S
C2270 C2267 1.526 . S
C2270 C2271 1.396 . S
C2270 C2275 1.390 . S
C2271 C2265 1.465 . S
C2271 C2270 1.396 . S
C2271 C2272 1.399 . S
C2272 H2258 0.929 . S
C2272 C2271 1.399 . S
C2272 C2273 1.385 . S
C2273 H2259 0.931 . S
C2273 C2272 1.385 . S
C2273 C2274 1.389 . S
C2274 C2273 1.389 . S
C2274 C2275 1.387 . S
C2275 H2260 0.930 . S
C2275 C2270 1.390 . S
C2275 C2274 1.387 . S
H2276 C2288 0.930 . S
H2277 C2290 0.930 . S
H2278 C2291 0.930 . S
H2279 C2295 0.959 . S
H2280 C2295 0.959 . S
H2281 C2295 0.961 . S
H2282 C2296 0.960 . S
H2283 C2296 0.961 . S
H2284 C2296 0.959 . S
H2285 C2299 0.929 . S
H2286 C2300 0.931 . S
H2287 C2302 0.930 . S
C2288 H2276 0.930 . S
C2288 C2289 1.399 . S
C2288 C2293 1.399 . S
C2289 C2288 1.399 . S
C2289 C2290 1.376 . S
C2290 H2277 0.930 . S
C2290 C2289 1.376 . S
C2290 C2291 1.388 . S
C2291 H2278 0.930 . S
C2291 C2290 1.388 . S
C2291 C2292 1.390 . S
C2292 C2291 1.390 . S
C2292 C2293 1.394 . S
C2292 C2298 1.465 . S
C2293 C2288 1.399 . S
C2293 C2292 1.394 . S
C2293 C2294 1.516 . S
C2294 C2293 1.516 . S
C2294 C2295 1.502 . S
C2294 C2296 1.561 . S
C2294 C2297 1.526 . S
C2295 H2279 0.959 . S
C2295 H2280 0.959 . S
C2295 H2281 0.961 . S
C2295 C2294 1.502 . S
C2296 H2282 0.960 . S
C2296 H2283 0.961 . S
C2296 H2284 0.959 . S
C2296 C2294 1.561 . S
C2297 C2294 1.526 . S
C2297 C2298 1.396 . S
C2297 C2302 1.390 . S
C2298 C2292 1.465 . S
C2298 C2297 1.396 . S
C2298 C2299 1.399 . S
C2299 H2285 0.929 . S
C2299 C2298 1.399 . S
C2299 C2300 1.385 . S
C2300 H2286 0.931 . S
C2300 C2299 1.385 . S
C2300 C2301 1.389 . S
C2301 C2300 1.389 . S
C2301 C2302 1.387 . S
C2302 H2287 0.930 . S
C2302 C2297 1.390 . S
C2302 C2301 1.387 . S
H2303 C2315 0.930 . S
H2304 C2317 0.930 . S
H2305 C2318 0.930 . S
H2306 C2322 0.959 . S
H2307 C2322 0.959 . S
H2308 C2322 0.961 . S
H2309 C2323 0.960 . S
H2310 C2323 0.961 . S
H2311 C2323 0.959 . S
H2312 C2326 0.929 . S
H2313 C2327 0.931 . S
H2314 C2329 0.930 . S
C2315 H2303 0.930 . S
C2315 C2316 1.399 . S
C2315 C2320 1.399 . S
C2316 C2315 1.399 . S
C2316 C2317 1.376 . S
C2317 H2304 0.930 . S
C2317 C2316 1.376 . S
C2317 C2318 1.388 . S
C2318 H2305 0.930 . S
C2318 C2317 1.388 . S
C2318 C2319 1.390 . S
C2319 C2318 1.390 . S
C2319 C2320 1.394 . S
C2319 C2325 1.465 . S
C2320 C2315 1.399 . S
C2320 C2319 1.394 . S
C2320 C2321 1.516 . S
C2321 C2320 1.516 . S
C2321 C2322 1.502 . S
C2321 C2323 1.561 . S
C2321 C2324 1.526 . S
C2322 H2306 0.959 . S
C2322 H2307 0.959 . S
C2322 H2308 0.961 . S
C2322 C2321 1.502 . S
C2323 H2309 0.960 . S
C2323 H2310 0.961 . S
C2323 H2311 0.959 . S
C2323 C2321 1.561 . S
C2324 C2321 1.526 . S
C2324 C2325 1.396 . S
C2324 C2329 1.390 . S
C2325 C2319 1.465 . S
C2325 C2324 1.396 . S
C2325 C2326 1.399 . S
C2326 H2312 0.929 . S
C2326 C2325 1.399 . S
C2326 C2327 1.385 . S
C2327 H2313 0.931 . S
C2327 C2326 1.385 . S
C2327 C2328 1.389 . S
C2328 C2327 1.389 . S
C2328 C2329 1.387 . S
C2329 H2314 0.930 . S
C2329 C2324 1.390 . S
C2329 C2328 1.387 . S
H2330 C2342 0.930 . S
H2331 C2344 0.930 . S
H2332 C2345 0.930 . S
H2333 C2349 0.959 . S
H2334 C2349 0.959 . S
H2335 C2349 0.961 . S
H2336 C2350 0.960 . S
H2337 C2350 0.961 . S
H2338 C2350 0.959 . S
H2339 C2353 0.929 . S
H2340 C2354 0.931 . S
H2341 C2356 0.930 . S
C2342 H2330 0.930 . S
C2342 C2343 1.399 . S
C2342 C2347 1.399 . S
C2343 C2342 1.399 . S
C2343 C2344 1.376 . S
C2344 H2331 0.930 . S
C2344 C2343 1.376 . S
C2344 C2345 1.388 . S
C2345 H2332 0.930 . S
C2345 C2344 1.388 . S
C2345 C2346 1.390 . S
C2346 C2345 1.390 . S
C2346 C2347 1.394 . S
C2346 C2352 1.465 . S
C2347 C2342 1.399 . S
C2347 C2346 1.394 . S
C2347 C2348 1.516 . S
C2348 C2347 1.516 . S
C2348 C2349 1.502 . S
C2348 C2350 1.561 . S
C2348 C2351 1.526 . S
C2349 H2333 0.959 . S
C2349 H2334 0.959 . S
C2349 H2335 0.961 . S
C2349 C2348 1.502 . S
C2350 H2336 0.960 . S
C2350 H2337 0.961 . S
C2350 H2338 0.959 . S
C2350 C2348 1.561 . S
C2351 C2348 1.526 . S
C2351 C2352 1.396 . S
C2351 C2356 1.390 . S
C2352 C2346 1.465 . S
C2352 C2351 1.396 . S
C2352 C2353 1.399 . S
C2353 H2339 0.929 . S
C2353 C2352 1.399 . S
C2353 C2354 1.385 . S
C2354 H2340 0.931 . S
C2354 C2353 1.385 . S
C2354 C2355 1.389 . S
C2355 C2354 1.389 . S
C2355 C2356 1.387 . S
C2356 H2341 0.930 . S
C2356 C2351 1.390 . S
C2356 C2355 1.387 . S
H2357 C2369 0.930 . S
H2358 C2371 0.930 . S
H2359 C2372 0.930 . S
H2360 C2376 0.959 . S
H2361 C2376 0.959 . S
H2362 C2376 0.961 . S
H2363 C2377 0.960 . S
H2364 C2377 0.961 . S
H2365 C2377 0.959 . S
H2366 C2380 0.929 . S
H2367 C2381 0.931 . S
H2368 C2383 0.930 . S
C2369 H2357 0.930 . S
C2369 C2370 1.399 . S
C2369 C2374 1.399 . S
C2370 C2369 1.399 . S
C2370 C2371 1.376 . S
C2371 H2358 0.930 . S
C2371 C2370 1.376 . S
C2371 C2372 1.388 . S
C2372 H2359 0.930 . S
C2372 C2371 1.388 . S
C2372 C2373 1.390 . S
C2373 C2372 1.390 . S
C2373 C2374 1.394 . S
C2373 C2379 1.465 . S
C2374 C2369 1.399 . S
C2374 C2373 1.394 . S
C2374 C2375 1.516 . S
C2375 C2374 1.516 . S
C2375 C2376 1.502 . S
C2375 C2377 1.561 . S
C2375 C2378 1.526 . S
C2376 H2360 0.959 . S
C2376 H2361 0.959 . S
C2376 H2362 0.961 . S
C2376 C2375 1.502 . S
C2377 H2363 0.960 . S
C2377 H2364 0.961 . S
C2377 H2365 0.959 . S
C2377 C2375 1.561 . S
C2378 C2375 1.526 . S
C2378 C2379 1.396 . S
C2378 C2383 1.390 . S
C2379 C2373 1.465 . S
C2379 C2378 1.396 . S
C2379 C2380 1.399 . S
C2380 H2366 0.929 . S
C2380 C2379 1.399 . S
C2380 C2381 1.385 . S
C2381 H2367 0.931 . S
C2381 C2380 1.385 . S
C2381 C2382 1.389 . S
C2382 C2381 1.389 . S
C2382 C2383 1.387 . S
C2383 H2368 0.930 . S
C2383 C2378 1.390 . S
C2383 C2382 1.387 . S
H2384 C2396 0.930 . S
H2385 C2398 0.930 . S
H2386 C2399 0.930 . S
H2387 C2403 0.959 . S
H2388 C2403 0.959 . S
H2389 C2403 0.961 . S
H2390 C2404 0.960 . S
H2391 C2404 0.961 . S
H2392 C2404 0.959 . S
H2393 C2407 0.929 . S
H2394 C2408 0.931 . S
H2395 C2410 0.930 . S
C2396 H2384 0.930 . S
C2396 C2397 1.399 . S
C2396 C2401 1.399 . S
C2397 C2396 1.399 . S
C2397 C2398 1.376 . S
C2398 H2385 0.930 . S
C2398 C2397 1.376 . S
C2398 C2399 1.388 . S
C2399 H2386 0.930 . S
C2399 C2398 1.388 . S
C2399 C2400 1.390 . S
C2400 C2399 1.390 . S
C2400 C2401 1.394 . S
C2400 C2406 1.465 . S
C2401 C2396 1.399 . S
C2401 C2400 1.394 . S
C2401 C2402 1.516 . S
C2402 C2401 1.516 . S
C2402 C2403 1.502 . S
C2402 C2404 1.561 . S
C2402 C2405 1.526 . S
C2403 H2387 0.959 . S
C2403 H2388 0.959 . S
C2403 H2389 0.961 . S
C2403 C2402 1.502 . S
C2404 H2390 0.960 . S
C2404 H2391 0.961 . S
C2404 H2392 0.959 . S
C2404 C2402 1.561 . S
C2405 C2402 1.526 . S
C2405 C2406 1.396 . S
C2405 C2410 1.390 . S
C2406 C2400 1.465 . S
C2406 C2405 1.396 . S
C2406 C2407 1.399 . S
C2407 H2393 0.929 . S
C2407 C2406 1.399 . S
C2407 C2408 1.385 . S
C2408 H2394 0.931 . S
C2408 C2407 1.385 . S
C2408 C2409 1.389 . S
C2409 C2408 1.389 . S
C2409 C2410 1.387 . S
C2410 H2395 0.930 . S
C2410 C2405 1.390 . S
C2410 C2409 1.387 . S
H2411 C2423 0.930 . S
H2412 C2425 0.930 . S
H2413 C2426 0.930 . S
H2414 C2430 0.959 . S
H2415 C2430 0.959 . S
H2416 C2430 0.961 . S
H2417 C2431 0.960 . S
H2418 C2431 0.961 . S
H2419 C2431 0.959 . S
H2420 C2434 0.929 . S
H2421 C2435 0.931 . S
H2422 C2437 0.930 . S
C2423 H2411 0.930 . S
C2423 C2424 1.399 . S
C2423 C2428 1.399 . S
C2424 C2423 1.399 . S
C2424 C2425 1.376 . S
C2425 H2412 0.930 . S
C2425 C2424 1.376 . S
C2425 C2426 1.388 . S
C2426 H2413 0.930 . S
C2426 C2425 1.388 . S
C2426 C2427 1.390 . S
C2427 C2426 1.390 . S
C2427 C2428 1.394 . S
C2427 C2433 1.465 . S
C2428 C2423 1.399 . S
C2428 C2427 1.394 . S
C2428 C2429 1.516 . S
C2429 C2428 1.516 . S
C2429 C2430 1.502 . S
C2429 C2431 1.561 . S
C2429 C2432 1.526 . S
C2430 H2414 0.959 . S
C2430 H2415 0.959 . S
C2430 H2416 0.961 . S
C2430 C2429 1.502 . S
C2431 H2417 0.960 . S
C2431 H2418 0.961 . S
C2431 H2419 0.959 . S
C2431 C2429 1.561 . S
C2432 C2429 1.526 . S
C2432 C2433 1.396 . S
C2432 C2437 1.390 . S
C2433 C2427 1.465 . S
C2433 C2432 1.396 . S
C2433 C2434 1.399 . S
C2434 H2420 0.929 . S
C2434 C2433 1.399 . S
C2434 C2435 1.385 . S
C2435 H2421 0.931 . S
C2435 C2434 1.385 . S
C2435 C2436 1.389 . S
C2436 C2435 1.389 . S
C2436 C2437 1.387 . S
C2437 H2422 0.930 . S
C2437 C2432 1.390 . S
C2437 C2436 1.387 . S
H2438 C2450 0.930 . S
H2439 C2452 0.930 . S
H2440 C2453 0.930 . S
H2441 C2457 0.959 . S
H2442 C2457 0.959 . S
H2443 C2457 0.961 . S
H2444 C2458 0.960 . S
H2445 C2458 0.961 . S
H2446 C2458 0.959 . S
H2447 C2461 0.929 . S
H2448 C2462 0.931 . S
H2449 C2464 0.930 . S
C2450 H2438 0.930 . S
C2450 C2451 1.399 . S
C2450 C2455 1.399 . S
C2451 C2450 1.399 . S
C2451 C2452 1.376 . S
C2452 H2439 0.930 . S
C2452 C2451 1.376 . S
C2452 C2453 1.388 . S
C2453 H2440 0.930 . S
C2453 C2452 1.388 . S
C2453 C2454 1.390 . S
C2454 C2453 1.390 . S
C2454 C2455 1.394 . S
C2454 C2460 1.465 . S
C2455 C2450 1.399 . S
C2455 C2454 1.394 . S
C2455 C2456 1.516 . S
C2456 C2455 1.516 . S
C2456 C2457 1.502 . S
C2456 C2458 1.561 . S
C2456 C2459 1.526 . S
C2457 H2441 0.959 . S
C2457 H2442 0.959 . S
C2457 H2443 0.961 . S
C2457 C2456 1.502 . S
C2458 H2444 0.960 . S
C2458 H2445 0.961 . S
C2458 H2446 0.959 . S
C2458 C2456 1.561 . S
C2459 C2456 1.526 . S
C2459 C2460 1.396 . S
C2459 C2464 1.390 . S
C2460 C2454 1.465 . S
C2460 C2459 1.396 . S
C2460 C2461 1.399 . S
C2461 H2447 0.929 . S
C2461 C2460 1.399 . S
C2461 C2462 1.385 . S
C2462 H2448 0.931 . S
C2462 C2461 1.385 . S
C2462 C2463 1.389 . S
C2463 C2462 1.389 . S
C2463 C2464 1.387 . S
C2464 H2449 0.930 . S
C2464 C2459 1.390 . S
C2464 C2463 1.387 . S
H2465 C2477 0.930 . S
H2466 C2479 0.930 . S
H2467 C2480 0.930 . S
H2468 C2484 0.959 . S
H2469 C2484 0.959 . S
H2470 C2484 0.961 . S
H2471 C2485 0.960 . S
H2472 C2485 0.961 . S
H2473 C2485 0.959 1_565 S
H2474 C2488 0.929 . S
H2475 C2489 0.931 . S
H2476 C2491 0.930 . S
C2477 H2465 0.930 . S
C2477 C2478 1.399 . S
C2477 C2482 1.399 . S
C2478 C2477 1.399 . S
C2478 C2479 1.376 . S
C2479 H2466 0.930 . S
C2479 C2478 1.376 . S
C2479 C2480 1.388 . S
C2480 H2467 0.930 . S
C2480 C2479 1.388 . S
C2480 C2481 1.390 . S
C2481 C2480 1.390 . S
C2481 C2482 1.394 . S
C2481 C2487 1.465 . S
C2482 C2477 1.399 . S
C2482 C2481 1.394 . S
C2482 C2483 1.516 . S
C2483 C2482 1.516 . S
C2483 C2484 1.502 1_565 S
C2483 C2485 1.561 1_565 S
C2483 C2486 1.526 . S
C2484 H2468 0.959 . S
C2484 H2469 0.959 . S
C2484 H2470 0.961 . S
C2484 C2483 1.502 1_545 S
C2485 H2471 0.960 . S
C2485 H2472 0.961 . S
C2485 H2473 0.959 1_545 S
C2485 C2483 1.561 1_545 S
C2486 C2483 1.526 . S
C2486 C2487 1.396 . S
C2486 C2491 1.390 1_565 S
C2487 C2481 1.465 . S
C2487 C2486 1.396 . S
C2487 C2488 1.399 . S
C2488 H2474 0.929 . S
C2488 C2487 1.399 . S
C2488 C2489 1.385 . S
C2489 H2475 0.931 . S
C2489 C2488 1.385 . S
C2489 C2490 1.411 . S
C2490 C2489 1.411 . S
C2490 C2491 1.377 1_565 S
C2491 H2476 0.930 . S
C2491 C2486 1.390 1_545 S
C2491 C2490 1.377 1_545 S
H2492 C2504 0.930 . S
H2493 C2506 0.930 . S
H2494 C2507 0.930 . S
H2495 C2511 0.959 . S
H2496 C2511 0.959 . S
H2497 C2511 0.961 . S
H2498 C2512 0.960 . S
H2499 C2512 0.961 . S
H2500 C2512 0.959 . S
H2501 C2515 0.929 . S
H2502 C2516 0.931 . S
H2503 C2518 0.930 . S
C2504 H2492 0.930 . S
C2504 C2505 1.399 . S
C2504 C2509 1.399 . S
C2505 C2504 1.399 . S
C2505 C2506 1.376 . S
C2506 H2493 0.930 . S
C2506 C2505 1.376 . S
C2506 C2507 1.388 . S
C2507 H2494 0.930 . S
C2507 C2506 1.388 . S
C2507 C2508 1.390 . S
C2508 C2507 1.390 . S
C2508 C2509 1.394 . S
C2508 C2514 1.465 . S
C2509 C2504 1.399 . S
C2509 C2508 1.394 . S
C2509 C2510 1.516 . S
C2510 C2509 1.516 . S
C2510 C2511 1.502 . S
C2510 C2512 1.561 . S
C2510 C2513 1.526 . S
C2511 H2495 0.959 . S
C2511 H2496 0.959 . S
C2511 H2497 0.961 . S
C2511 C2510 1.502 . S
C2512 H2498 0.960 . S
C2512 H2499 0.961 . S
C2512 H2500 0.959 . S
C2512 C2510 1.561 . S
C2513 C2510 1.526 . S
C2513 C2514 1.396 . S
C2513 C2518 1.390 . S
C2514 C2508 1.465 . S
C2514 C2513 1.396 . S
C2514 C2515 1.399 . S
C2515 H2501 0.929 . S
C2515 C2514 1.399 . S
C2515 C2516 1.385 . S
C2516 H2502 0.931 . S
C2516 C2515 1.385 . S
C2516 C2517 1.389 . S
C2517 C2516 1.389 . S
C2517 C2518 1.387 . S
C2518 H2503 0.930 . S
C2518 C2513 1.390 . S
C2518 C2517 1.387 . S
H2519 C2531 0.930 . S
H2520 C2533 0.930 . S
H2521 C2534 0.930 . S
H2522 C2538 0.959 . S
H2523 C2538 0.959 . S
H2524 C2538 0.961 . S
H2525 C2539 0.960 . S
H2526 C2539 0.961 . S
H2527 C2539 0.959 . S
H2528 C2542 0.929 . S
H2529 C2543 0.931 1_556 S
H2530 C2545 0.930 . S
C2531 H2519 0.930 . S
C2531 C2532 1.399 . S
C2531 C2536 1.399 . S
C2532 C2531 1.399 . S
C2532 C2533 1.376 1_554 S
C2533 H2520 0.930 . S
C2533 C2532 1.376 1_556 S
C2533 C2534 1.388 . S
C2534 H2521 0.930 . S
C2534 C2533 1.388 . S
C2534 C2535 1.390 1_556 S
C2535 C2534 1.390 1_554 S
C2535 C2536 1.394 . S
C2535 C2541 1.465 . S
C2536 C2531 1.399 . S
C2536 C2535 1.394 . S
C2536 C2537 1.516 . S
C2537 C2536 1.516 . S
C2537 C2538 1.502 . S
C2537 C2539 1.561 . S
C2537 C2540 1.526 . S
C2538 H2522 0.959 . S
C2538 H2523 0.959 . S
C2538 H2524 0.961 . S
C2538 C2537 1.502 . S
C2539 H2525 0.960 . S
C2539 H2526 0.961 . S
C2539 H2527 0.959 . S
C2539 C2537 1.561 . S
C2540 C2537 1.526 . S
C2540 C2541 1.396 . S
C2540 C2545 1.390 . S
C2541 C2535 1.465 . S
C2541 C2540 1.396 . S
C2541 C2542 1.399 1_554 S
C2542 H2528 0.929 . S
C2542 C2541 1.399 1_556 S
C2542 C2543 1.385 1_556 S
C2543 H2529 0.931 1_554 S
C2543 C2542 1.385 1_554 S
C2543 C2544 1.389 . S
C2544 C2543 1.389 . S
C2544 C2545 1.387 . S
C2545 H2530 0.930 . S
C2545 C2540 1.390 . S
C2545 C2544 1.387 . S
H2546 C2558 0.930 . S
H2547 C2560 0.930 . S
H2548 C2561 0.930 . S
H2549 C2565 0.959 . S
H2550 C2565 0.959 . S
H2551 C2565 0.961 . S
H2552 C2566 0.960 . S
H2553 C2566 0.961 . S
H2554 C2566 0.959 . S
H2555 C2569 0.929 . S
H2556 C2570 0.931 . S
H2557 C2572 0.930 . S
C2558 H2546 0.930 . S
C2558 C2559 1.399 . S
C2558 C2563 1.399 . S
C2559 C2558 1.399 . S
C2559 C2560 1.376 . S
C2560 H2547 0.930 . S
C2560 C2559 1.376 . S
C2560 C2561 1.388 . S
C2561 H2548 0.930 . S
C2561 C2560 1.388 . S
C2561 C2562 1.390 . S
C2562 C2561 1.390 . S
C2562 C2563 1.394 . S
C2562 C2568 1.465 . S
C2563 C2558 1.399 . S
C2563 C2562 1.394 . S
C2563 C2564 1.516 . S
C2564 C2563 1.516 . S
C2564 C2565 1.502 . S
C2564 C2566 1.561 . S
C2564 C2567 1.526 . S
C2565 H2549 0.959 . S
C2565 H2550 0.959 . S
C2565 H2551 0.961 . S
C2565 C2564 1.502 . S
C2566 H2552 0.960 . S
C2566 H2553 0.961 . S
C2566 H2554 0.959 . S
C2566 C2564 1.561 . S
C2567 C2564 1.526 . S
C2567 C2568 1.396 . S
C2567 C2572 1.390 . S
C2568 C2562 1.465 . S
C2568 C2567 1.396 . S
C2568 C2569 1.399 . S
C2569 H2555 0.929 . S
C2569 C2568 1.399 . S
C2569 C2570 1.385 . S
C2570 H2556 0.931 . S
C2570 C2569 1.385 . S
C2570 C2571 1.389 . S
C2571 C2570 1.389 . S
C2571 C2572 1.387 . S
C2572 H2557 0.930 . S
C2572 C2567 1.390 . S
C2572 C2571 1.387 . S
H2573 C2585 0.930 . S
H2574 C2587 0.930 . S
H2575 C2588 0.930 . S
H2576 C2592 0.959 . S
H2577 C2592 0.959 . S
H2578 C2592 0.961 . S
H2579 C2593 0.960 . S
H2580 C2593 0.961 . S
H2581 C2593 0.959 . S
H2582 C2596 0.929 . S
H2583 C2597 0.931 . S
H2584 C2599 0.930 . S
C2585 H2573 0.930 . S
C2585 C2586 1.399 . S
C2585 C2590 1.399 . S
C2586 C2585 1.399 . S
C2586 C2587 1.376 . S
C2587 H2574 0.930 . S
C2587 C2586 1.376 . S
C2587 C2588 1.388 . S
C2588 H2575 0.930 . S
C2588 C2587 1.388 . S
C2588 C2589 1.390 . S
C2589 C2588 1.390 . S
C2589 C2590 1.394 . S
C2589 C2595 1.465 . S
C2590 C2585 1.399 . S
C2590 C2589 1.394 . S
C2590 C2591 1.516 . S
C2591 C2590 1.516 . S
C2591 C2592 1.502 . S
C2591 C2593 1.561 . S
C2591 C2594 1.526 . S
C2592 H2576 0.959 . S
C2592 H2577 0.959 . S
C2592 H2578 0.961 . S
C2592 C2591 1.502 . S
C2593 H2579 0.960 . S
C2593 H2580 0.961 . S
C2593 H2581 0.959 . S
C2593 C2591 1.561 . S
C2594 C2591 1.526 . S
C2594 C2595 1.396 . S
C2594 C2599 1.390 . S
C2595 C2589 1.465 . S
C2595 C2594 1.396 . S
C2595 C2596 1.399 . S
C2596 H2582 0.929 . S
C2596 C2595 1.399 . S
C2596 C2597 1.385 . S
C2597 H2583 0.931 . S
C2597 C2596 1.385 . S
C2597 C2598 1.389 . S
C2598 C2597 1.389 . S
C2598 C2599 1.387 . S
C2599 H2584 0.930 . S
C2599 C2594 1.390 . S
C2599 C2598 1.387 . S
H2600 C2612 0.930 . S
H2601 C2614 0.930 . S
H2602 C2615 0.930 . S
H2603 C2619 0.959 . S
H2604 C2619 0.959 . S
H2605 C2619 0.961 . S
H2606 C2620 0.960 . S
H2607 C2620 0.961 . S
H2608 C2620 0.959 . S
H2609 C2623 0.929 . S
H2610 C2624 0.931 . S
H2611 C2626 0.930 . S
C2612 H2600 0.930 . S
C2612 C2613 1.399 . S
C2612 C2617 1.399 . S
C2613 C2612 1.399 . S
C2613 C2614 1.376 . S
C2614 H2601 0.930 . S
C2614 C2613 1.376 . S
C2614 C2615 1.388 . S
C2615 H2602 0.930 . S
C2615 C2614 1.388 . S
C2615 C2616 1.390 . S
C2616 C2615 1.390 . S
C2616 C2617 1.394 . S
C2616 C2622 1.465 . S
C2617 C2612 1.399 . S
C2617 C2616 1.394 . S
C2617 C2618 1.516 . S
C2618 C2617 1.516 . S
C2618 C2619 1.502 . S
C2618 C2620 1.561 . S
C2618 C2621 1.526 . S
C2619 H2603 0.959 . S
C2619 H2604 0.959 . S
C2619 H2605 0.961 . S
C2619 C2618 1.502 . S
C2620 H2606 0.960 . S
C2620 H2607 0.961 . S
C2620 H2608 0.959 . S
C2620 C2618 1.561 . S
C2621 C2618 1.526 . S
C2621 C2622 1.396 . S
C2621 C2626 1.390 . S
C2622 C2616 1.465 . S
C2622 C2621 1.396 . S
C2622 C2623 1.399 . S
C2623 H2609 0.929 . S
C2623 C2622 1.399 . S
C2623 C2624 1.385 . S
C2624 H2610 0.931 . S
C2624 C2623 1.385 . S
C2624 C2625 1.389 . S
C2625 C2624 1.389 . S
C2625 C2626 1.387 . S
C2626 H2611 0.930 . S
C2626 C2621 1.390 . S
C2626 C2625 1.387 . S
H2627 C2639 0.930 . S
H2628 C2641 0.930 . S
H2629 C2642 0.930 . S
H2630 C2646 0.959 . S
H2631 C2646 0.959 . S
H2632 C2646 0.961 . S
H2633 C2647 0.960 . S
H2634 C2647 0.961 . S
H2635 C2647 0.959 . S
H2636 C2650 0.929 . S
H2637 C2651 0.931 . S
H2638 C2653 0.930 . S
C2639 H2627 0.930 . S
C2639 C2640 1.399 . S
C2639 C2644 1.399 . S
C2640 C2639 1.399 . S
C2640 C2641 1.376 . S
C2641 H2628 0.930 . S
C2641 C2640 1.376 . S
C2641 C2642 1.388 . S
C2642 H2629 0.930 . S
C2642 C2641 1.388 . S
C2642 C2643 1.390 . S
C2643 C2642 1.390 . S
C2643 C2644 1.394 . S
C2643 C2649 1.465 . S
C2644 C2639 1.399 . S
C2644 C2643 1.394 . S
C2644 C2645 1.516 . S
C2645 C2644 1.516 . S
C2645 C2646 1.502 . S
C2645 C2647 1.561 . S
C2645 C2648 1.526 . S
C2646 H2630 0.959 . S
C2646 H2631 0.959 . S
C2646 H2632 0.961 . S
C2646 C2645 1.502 . S
C2647 H2633 0.960 . S
C2647 H2634 0.961 . S
C2647 H2635 0.959 . S
C2647 C2645 1.561 . S
C2648 C2645 1.526 . S
C2648 C2649 1.396 . S
C2648 C2653 1.390 . S
C2649 C2643 1.465 . S
C2649 C2648 1.396 . S
C2649 C2650 1.399 . S
C2650 H2636 0.929 . S
C2650 C2649 1.399 . S
C2650 C2651 1.385 . S
C2651 H2637 0.931 . S
C2651 C2650 1.385 . S
C2651 C2652 1.389 . S
C2652 C2651 1.389 . S
C2652 C2653 1.387 . S
C2653 H2638 0.930 . S
C2653 C2648 1.390 . S
C2653 C2652 1.387 . S
H2654 C2666 0.930 . S
H2655 C2668 0.930 . S
H2656 C2669 0.930 . S
H2657 C2673 0.959 . S
H2658 C2673 0.959 . S
H2659 C2673 0.961 . S
H2660 C2674 0.960 . S
H2661 C2674 0.961 . S
H2662 C2674 0.959 . S
H2663 C2677 0.929 1_655 S
H2664 C2678 0.931 . S
H2665 C2680 0.930 . S
C2666 H2654 0.930 . S
C2666 C2667 1.399 . S
C2666 C2671 1.399 . S
C2667 C2666 1.399 . S
C2667 C2668 1.376 1_455 S
C2668 H2655 0.930 . S
C2668 C2667 1.376 1_655 S
C2668 C2669 1.388 . S
C2669 H2656 0.930 . S
C2669 C2668 1.388 . S
C2669 C2670 1.389 1_655 S
C2670 C2669 1.389 1_455 S
C2670 C2671 1.394 . S
C2670 C2676 1.466 . S
C2671 C2666 1.399 . S
C2671 C2670 1.394 . S
C2671 C2672 1.516 . S
C2672 C2671 1.516 . S
C2672 C2673 1.502 . S
C2672 C2674 1.561 1_455 S
C2672 C2675 1.526 . S
C2673 H2657 0.959 . S
C2673 H2658 0.959 . S
C2673 H2659 0.961 . S
C2673 C2672 1.502 . S
C2674 H2660 0.960 . S
C2674 H2661 0.961 . S
C2674 H2662 0.959 . S
C2674 C2672 1.561 1_655 S
C2675 C2672 1.526 . S
C2675 C2676 1.396 . S
C2675 C2680 1.390 . S
C2676 C2670 1.466 . S
C2676 C2675 1.396 . S
C2676 C2677 1.399 . S
C2677 H2663 0.929 1_455 S
C2677 C2676 1.399 . S
C2677 C2678 1.385 . S
C2678 H2664 0.931 . S
C2678 C2677 1.385 . S
C2678 C2679 1.389 . S
C2679 C2678 1.389 . S
C2679 C2680 1.387 . S
C2680 H2665 0.930 . S
C2680 C2675 1.390 . S
C2680 C2679 1.387 . S
H2681 C2693 0.930 . S
H2682 C2695 0.930 . S
H2683 C2696 0.930 . S
H2684 C2700 0.959 . S
H2685 C2700 0.959 . S
H2686 C2700 0.961 . S
H2687 C2701 0.960 . S
H2688 C2701 0.961 . S
H2689 C2701 0.959 . S
H2690 C2704 0.929 . S
H2691 C2705 0.931 . S
H2692 C2707 0.930 . S
C2693 H2681 0.930 . S
C2693 C2694 1.399 . S
C2693 C2698 1.399 . S
C2694 C2693 1.399 . S
C2694 C2695 1.376 . S
C2695 H2682 0.930 . S
C2695 C2694 1.376 . S
C2695 C2696 1.388 . S
C2696 H2683 0.930 . S
C2696 C2695 1.388 . S
C2696 C2697 1.390 . S
C2697 C2696 1.390 . S
C2697 C2698 1.394 . S
C2697 C2703 1.465 . S
C2698 C2693 1.399 . S
C2698 C2697 1.394 . S
C2698 C2699 1.516 . S
C2699 C2698 1.516 . S
C2699 C2700 1.502 . S
C2699 C2701 1.561 . S
C2699 C2702 1.526 . S
C2700 H2684 0.959 . S
C2700 H2685 0.959 . S
C2700 H2686 0.961 . S
C2700 C2699 1.502 . S
C2701 H2687 0.960 . S
C2701 H2688 0.961 . S
C2701 H2689 0.959 . S
C2701 C2699 1.561 . S
C2702 C2699 1.526 . S
C2702 C2703 1.396 . S
C2702 C2707 1.390 . S
C2703 C2697 1.465 . S
C2703 C2702 1.396 . S
C2703 C2704 1.399 . S
C2704 H2690 0.929 . S
C2704 C2703 1.399 . S
C2704 C2705 1.385 . S
C2705 H2691 0.931 . S
C2705 C2704 1.385 . S
C2705 C2706 1.389 . S
C2706 C2705 1.389 . S
C2706 C2707 1.387 . S
C2707 H2692 0.930 . S
C2707 C2702 1.390 . S
C2707 C2706 1.387 . S
H2708 C2720 0.930 . S
H2709 C2722 0.930 . S
H2710 C2723 0.930 . S
H2711 C2727 0.959 . S
H2712 C2727 0.959 . S
H2713 C2727 0.961 . S
H2714 C2728 0.960 . S
H2715 C2728 0.961 . S
H2716 C2728 0.959 . S
H2717 C2731 0.929 . S
H2718 C2732 0.931 1_554 S
H2719 C2734 0.930 . S
C2720 H2708 0.930 . S
C2720 C2721 1.399 . S
C2720 C2725 1.399 . S
C2721 C2720 1.399 . S
C2721 C2722 1.376 . S
C2722 H2709 0.930 . S
C2722 C2721 1.376 . S
C2722 C2723 1.388 . S
C2723 H2710 0.930 . S
C2723 C2722 1.388 . S
C2723 C2724 1.390 . S
C2724 C2723 1.390 . S
C2724 C2725 1.394 . S
C2724 C2730 1.465 . S
C2725 C2720 1.399 . S
C2725 C2724 1.394 . S
C2725 C2726 1.516 . S
C2726 C2725 1.516 . S
C2726 C2727 1.502 . S
C2726 C2728 1.561 . S
C2726 C2729 1.526 . S
C2727 H2711 0.959 . S
C2727 H2712 0.959 . S
C2727 H2713 0.961 . S
C2727 C2726 1.502 . S
C2728 H2714 0.960 . S
C2728 H2715 0.961 . S
C2728 H2716 0.959 . S
C2728 C2726 1.561 . S
C2729 C2726 1.526 . S
C2729 C2730 1.396 . S
C2729 C2734 1.390 . S
C2730 C2724 1.465 . S
C2730 C2729 1.396 . S
C2730 C2731 1.399 . S
C2731 H2717 0.929 . S
C2731 C2730 1.399 . S
C2731 C2732 1.385 . S
C2732 H2718 0.931 1_556 S
C2732 C2731 1.385 . S
C2732 C2733 1.389 . S
C2733 C2732 1.389 . S
C2733 C2734 1.387 . S
C2734 H2719 0.930 . S
C2734 C2729 1.390 . S
C2734 C2733 1.387 . S
H2735 C2747 0.930 . S
H2736 C2749 0.930 . S
H2737 C2750 0.930 . S
H2738 C2754 0.959 . S
H2739 C2754 0.959 . S
H2740 C2754 0.961 . S
H2741 C2755 0.960 . S
H2742 C2755 0.961 . S
H2743 C2755 0.959 . S
H2744 C2758 0.929 . S
H2745 C2759 0.931 . S
H2746 C2761 0.930 . S
C2747 H2735 0.930 . S
C2747 C2748 1.399 . S
C2747 C2752 1.399 . S
C2748 C2747 1.399 . S
C2748 C2749 1.376 . S
C2749 H2736 0.930 . S
C2749 C2748 1.376 . S
C2749 C2750 1.388 . S
C2750 H2737 0.930 . S
C2750 C2749 1.388 . S
C2750 C2751 1.390 . S
C2751 C2750 1.390 . S
C2751 C2752 1.394 . S
C2751 C2757 1.465 . S
C2752 C2747 1.399 . S
C2752 C2751 1.394 . S
C2752 C2753 1.516 . S
C2753 C2752 1.516 . S
C2753 C2754 1.502 . S
C2753 C2755 1.561 . S
C2753 C2756 1.526 . S
C2754 H2738 0.959 . S
C2754 H2739 0.959 . S
C2754 H2740 0.961 . S
C2754 C2753 1.502 . S
C2755 H2741 0.960 . S
C2755 H2742 0.961 . S
C2755 H2743 0.959 . S
C2755 C2753 1.561 . S
C2756 C2753 1.526 . S
C2756 C2757 1.396 . S
C2756 C2761 1.390 . S
C2757 C2751 1.465 . S
C2757 C2756 1.396 . S
C2757 C2758 1.399 . S
C2758 H2744 0.929 . S
C2758 C2757 1.399 . S
C2758 C2759 1.385 . S
C2759 H2745 0.931 . S
C2759 C2758 1.385 . S
C2759 C2760 1.389 . S
C2760 C2759 1.389 . S
C2760 C2761 1.387 . S
C2761 H2746 0.930 . S
C2761 C2756 1.390 . S
C2761 C2760 1.387 . S
H2762 C2774 0.930 . S
H2763 C2776 0.930 . S
H2764 C2777 0.930 . S
H2765 C2781 0.959 . S
H2766 C2781 0.959 . S
H2767 C2781 0.961 . S
H2768 C2782 0.960 . S
H2769 C2782 0.961 . S
H2770 C2782 0.959 . S
H2771 C2785 0.929 . S
H2772 C2786 0.931 . S
H2773 C2788 0.930 . S
C2774 H2762 0.930 . S
C2774 C2775 1.399 . S
C2774 C2779 1.399 . S
C2775 C2774 1.399 . S
C2775 C2776 1.376 . S
C2776 H2763 0.930 . S
C2776 C2775 1.376 . S
C2776 C2777 1.388 . S
C2777 H2764 0.930 . S
C2777 C2776 1.388 . S
C2777 C2778 1.390 . S
C2778 C2777 1.390 . S
C2778 C2779 1.394 . S
C2778 C2784 1.465 . S
C2779 C2774 1.399 . S
C2779 C2778 1.394 . S
C2779 C2780 1.516 . S
C2780 C2779 1.516 . S
C2780 C2781 1.502 . S
C2780 C2782 1.561 1_455 S
C2780 C2783 1.526 . S
C2781 H2765 0.959 . S
C2781 H2766 0.959 . S
C2781 H2767 0.961 . S
C2781 C2780 1.502 . S
C2782 H2768 0.960 . S
C2782 H2769 0.961 . S
C2782 H2770 0.959 . S
C2782 C2780 1.561 1_655 S
C2783 C2780 1.526 . S
C2783 C2784 1.396 . S
C2783 C2788 1.390 . S
C2784 C2778 1.465 . S
C2784 C2783 1.396 . S
C2784 C2785 1.399 . S
C2785 H2771 0.929 . S
C2785 C2784 1.399 . S
C2785 C2786 1.385 . S
C2786 H2772 0.931 . S
C2786 C2785 1.385 . S
C2786 C2787 1.389 . S
C2787 C2786 1.389 . S
C2787 C2788 1.387 . S
C2788 H2773 0.930 . S
C2788 C2783 1.390 . S
C2788 C2787 1.387 . S
H2789 C2801 0.930 . S
H2790 C2803 0.930 . S
H2791 C2804 0.930 . S
H2792 C2808 0.959 . S
H2793 C2808 0.959 . S
H2794 C2808 0.961 . S
H2795 C2809 0.960 . S
H2796 C2809 0.961 . S
H2797 C2809 0.959 . S
H2798 C2812 0.929 . S
H2799 C2813 0.931 . S
H2800 C2815 0.930 . S
C2801 H2789 0.930 . S
C2801 C2802 1.399 . S
C2801 C2806 1.399 . S
C2802 C2801 1.399 . S
C2802 C2803 1.376 . S
C2803 H2790 0.930 . S
C2803 C2802 1.376 . S
C2803 C2804 1.388 . S
C2804 H2791 0.930 . S
C2804 C2803 1.388 . S
C2804 C2805 1.390 . S
C2805 C2804 1.390 . S
C2805 C2806 1.394 . S
C2805 C2811 1.465 . S
C2806 C2801 1.399 . S
C2806 C2805 1.394 . S
C2806 C2807 1.516 . S
C2807 C2806 1.516 . S
C2807 C2808 1.502 . S
C2807 C2809 1.561 . S
C2807 C2810 1.526 . S
C2808 H2792 0.959 . S
C2808 H2793 0.959 . S
C2808 H2794 0.961 . S
C2808 C2807 1.502 . S
C2809 H2795 0.960 . S
C2809 H2796 0.961 . S
C2809 H2797 0.959 . S
C2809 C2807 1.561 . S
C2810 C2807 1.526 . S
C2810 C2811 1.396 . S
C2810 C2815 1.390 . S
C2811 C2805 1.465 . S
C2811 C2810 1.396 . S
C2811 C2812 1.399 . S
C2812 H2798 0.929 . S
C2812 C2811 1.399 . S
C2812 C2813 1.385 . S
C2813 H2799 0.931 . S
C2813 C2812 1.385 . S
C2813 C2814 1.389 . S
C2814 C2813 1.389 . S
C2814 C2815 1.387 . S
C2815 H2800 0.930 . S
C2815 C2810 1.390 . S
C2815 C2814 1.387 . S
H2816 C2828 0.930 . S
H2817 C2830 0.930 . S
H2818 C2831 0.930 . S
H2819 C2835 0.959 . S
H2820 C2835 0.959 . S
H2821 C2835 0.961 . S
H2822 C2836 0.960 . S
H2823 C2836 0.961 . S
H2824 C2836 0.959 . S
H2825 C2839 0.929 . S
H2826 C2840 0.931 . S
H2827 C2842 0.930 . S
C2828 H2816 0.930 . S
C2828 C2829 1.399 . S
C2828 C2833 1.399 . S
C2829 C2828 1.399 . S
C2829 C2830 1.376 . S
C2830 H2817 0.930 . S
C2830 C2829 1.376 . S
C2830 C2831 1.388 . S
C2831 H2818 0.930 . S
C2831 C2830 1.388 . S
C2831 C2832 1.390 . S
C2832 C2831 1.390 . S
C2832 C2833 1.394 . S
C2832 C2838 1.465 . S
C2833 C2828 1.399 . S
C2833 C2832 1.394 . S
C2833 C2834 1.516 . S
C2834 C2833 1.516 . S
C2834 C2835 1.502 . S
C2834 C2836 1.561 . S
C2834 C2837 1.526 . S
C2835 H2819 0.959 . S
C2835 H2820 0.959 . S
C2835 H2821 0.961 . S
C2835 C2834 1.502 . S
C2836 H2822 0.960 . S
C2836 H2823 0.961 . S
C2836 H2824 0.959 . S
C2836 C2834 1.561 . S
C2837 C2834 1.526 . S
C2837 C2838 1.396 . S
C2837 C2842 1.390 . S
C2838 C2832 1.465 . S
C2838 C2837 1.396 . S
C2838 C2839 1.399 . S
C2839 H2825 0.929 . S
C2839 C2838 1.399 . S
C2839 C2840 1.385 . S
C2840 H2826 0.931 . S
C2840 C2839 1.385 . S
C2840 C2841 1.389 . S
C2841 C2840 1.389 . S
C2841 C2842 1.387 . S
C2842 H2827 0.930 . S
C2842 C2837 1.390 . S
C2842 C2841 1.387 . S
H2843 C2855 0.930 . S
H2844 C2857 0.930 . S
H2845 C2858 0.930 . S
H2846 C2862 0.959 . S
H2847 C2862 0.959 . S
H2848 C2862 0.961 . S
H2849 C2863 0.960 . S
H2850 C2863 0.961 . S
H2851 C2863 0.959 . S
H2852 C2866 0.929 . S
H2853 C2867 0.931 . S
H2854 C2869 0.930 . S
C2855 H2843 0.930 . S
C2855 C2856 1.399 . S
C2855 C2860 1.399 . S
C2856 C2855 1.399 . S
C2856 C2857 1.376 . S
C2857 H2844 0.930 . S
C2857 C2856 1.376 . S
C2857 C2858 1.388 . S
C2858 H2845 0.930 . S
C2858 C2857 1.388 . S
C2858 C2859 1.390 . S
C2859 C2858 1.390 . S
C2859 C2860 1.394 . S
C2859 C2865 1.465 . S
C2860 C2855 1.399 . S
C2860 C2859 1.394 . S
C2860 C2861 1.516 . S
C2861 C2860 1.516 . S
C2861 C2862 1.502 . S
C2861 C2863 1.561 . S
C2861 C2864 1.526 . S
C2862 H2846 0.959 . S
C2862 H2847 0.959 . S
C2862 H2848 0.961 . S
C2862 C2861 1.502 . S
C2863 H2849 0.960 . S
C2863 H2850 0.961 . S
C2863 H2851 0.959 . S
C2863 C2861 1.561 . S
C2864 C2861 1.526 . S
C2864 C2865 1.396 . S
C2864 C2869 1.390 . S
C2865 C2859 1.465 . S
C2865 C2864 1.396 . S
C2865 C2866 1.399 . S
C2866 H2852 0.929 . S
C2866 C2865 1.399 . S
C2866 C2867 1.385 . S
C2867 H2853 0.931 . S
C2867 C2866 1.385 . S
C2867 C2868 1.389 . S
C2868 C2867 1.389 . S
C2868 C2869 1.387 . S
C2869 H2854 0.930 . S
C2869 C2864 1.390 . S
C2869 C2868 1.387 . S
H2870 C2882 0.930 . S
H2871 C2884 0.930 . S
H2872 C2885 0.930 . S
H2873 C2889 0.959 . S
H2874 C2889 0.959 . S
H2875 C2889 0.958 1_655 S
H2876 C2890 0.960 . S
H2877 C2890 0.961 . S
H2878 C2890 0.959 . S
H2879 C2893 0.929 . S
H2880 C2894 0.931 . S
H2881 C2896 0.930 1_455 S
C2882 H2870 0.930 . S
C2882 C2883 1.399 . S
C2882 C2887 1.399 . S
C2883 C2882 1.399 . S
C2883 C2884 1.376 . S
C2884 H2871 0.930 . S
C2884 C2883 1.376 . S
C2884 C2885 1.388 . S
C2885 H2872 0.930 . S
C2885 C2884 1.388 . S
C2885 C2886 1.390 . S
C2886 C2885 1.390 . S
C2886 C2887 1.394 . S
C2886 C2892 1.465 . S
C2887 C2882 1.399 . S
C2887 C2886 1.394 . S
C2887 C2888 1.516 . S
C2888 C2887 1.516 . S
C2888 C2889 1.502 1_655 S
C2888 C2890 1.561 . S
C2888 C2891 1.526 . S
C2889 H2873 0.959 . S
C2889 H2874 0.959 . S
C2889 H2875 0.958 1_455 S
C2889 C2888 1.502 1_455 S
C2890 H2876 0.960 . S
C2890 H2877 0.961 . S
C2890 H2878 0.959 . S
C2890 C2888 1.561 . S
C2891 C2888 1.526 . S
C2891 C2892 1.396 . S
C2891 C2896 1.390 . S
C2892 C2886 1.465 . S
C2892 C2891 1.396 . S
C2892 C2893 1.399 . S
C2893 H2879 0.929 . S
C2893 C2892 1.399 . S
C2893 C2894 1.385 . S
C2894 H2880 0.931 . S
C2894 C2893 1.385 . S
C2894 C2895 1.389 . S
C2895 C2894 1.389 . S
C2895 C2896 1.387 . S
C2896 H2881 0.930 1_655 S
C2896 C2891 1.390 . S
C2896 C2895 1.387 . S
H2897 C2909 0.930 . S
H2898 C2911 0.930 . S
H2899 C2912 0.930 . S
H2900 C2916 0.959 . S
H2901 C2916 0.959 . S
H2902 C2916 0.961 . S
H2903 C2917 0.960 . S
H2904 C2917 0.961 . S
H2905 C2917 0.959 . S
H2906 C2920 0.929 . S
H2907 C2921 0.931 . S
H2908 C2923 0.930 . S
C2909 H2897 0.930 . S
C2909 C2910 1.399 . S
C2909 C2914 1.399 . S
C2910 C2909 1.399 . S
C2910 C2911 1.376 . S
C2911 H2898 0.930 . S
C2911 C2910 1.376 . S
C2911 C2912 1.388 . S
C2912 H2899 0.930 . S
C2912 C2911 1.388 . S
C2912 C2913 1.390 . S
C2913 C2912 1.390 . S
C2913 C2914 1.394 . S
C2913 C2919 1.465 . S
C2914 C2909 1.399 . S
C2914 C2913 1.394 . S
C2914 C2915 1.516 . S
C2915 C2914 1.516 . S
C2915 C2916 1.502 . S
C2915 C2917 1.561 . S
C2915 C2918 1.526 . S
C2916 H2900 0.959 . S
C2916 H2901 0.959 . S
C2916 H2902 0.961 . S
C2916 C2915 1.502 . S
C2917 H2903 0.960 . S
C2917 H2904 0.961 . S
C2917 H2905 0.959 . S
C2917 C2915 1.561 . S
C2918 C2915 1.526 . S
C2918 C2919 1.396 . S
C2918 C2923 1.390 . S
C2919 C2913 1.465 . S
C2919 C2918 1.396 . S
C2919 C2920 1.399 . S
C2920 H2906 0.929 . S
C2920 C2919 1.399 . S
C2920 C2921 1.385 . S
C2921 H2907 0.931 . S
C2921 C2920 1.385 . S
C2921 C2922 1.389 . S
C2922 C2921 1.389 . S
C2922 C2923 1.387 . S
C2923 H2908 0.930 . S
C2923 C2918 1.390 . S
C2923 C2922 1.387 . S
H2924 C2936 0.930 . S
H2925 C2938 0.930 . S
H2926 C2939 0.930 . S
H2927 C2943 0.959 . S
H2928 C2943 0.959 . S
H2929 C2943 0.961 . S
H2930 C2944 0.960 . S
H2931 C2944 0.961 . S
H2932 C2944 0.959 . S
H2933 C2947 0.929 . S
H2934 C2948 0.931 . S
H2935 C2950 0.930 . S
C2936 H2924 0.930 . S
C2936 C2937 1.399 . S
C2936 C2941 1.399 . S
C2937 C2936 1.399 . S
C2937 C2938 1.376 . S
C2938 H2925 0.930 . S
C2938 C2937 1.376 . S
C2938 C2939 1.388 . S
C2939 H2926 0.930 . S
C2939 C2938 1.388 . S
C2939 C2940 1.390 . S
C2940 C2939 1.390 . S
C2940 C2941 1.394 . S
C2940 C2946 1.465 . S
C2941 C2936 1.399 . S
C2941 C2940 1.394 . S
C2941 C2942 1.516 . S
C2942 C2941 1.516 . S
C2942 C2943 1.502 . S
C2942 C2944 1.561 . S
C2942 C2945 1.526 . S
C2943 H2927 0.959 . S
C2943 H2928 0.959 . S
C2943 H2929 0.961 . S
C2943 C2942 1.502 . S
C2944 H2930 0.960 . S
C2944 H2931 0.961 . S
C2944 H2932 0.959 . S
C2944 C2942 1.561 . S
C2945 C2942 1.526 . S
C2945 C2946 1.396 . S
C2945 C2950 1.390 . S
C2946 C2940 1.465 . S
C2946 C2945 1.396 . S
C2946 C2947 1.399 . S
C2947 H2933 0.929 . S
C2947 C2946 1.399 . S
C2947 C2948 1.385 . S
C2948 H2934 0.931 . S
C2948 C2947 1.385 . S
C2948 C2949 1.389 . S
C2949 C2948 1.389 . S
C2949 C2950 1.387 . S
C2950 H2935 0.930 . S
C2950 C2945 1.390 . S
C2950 C2949 1.387 . S
H2951 C2963 0.930 . S
H2952 C2965 0.930 . S
H2953 C2966 0.930 . S
H2954 C2970 0.959 . S
H2955 C2970 0.959 . S
H2956 C2970 0.961 . S
H2957 C2971 0.960 . S
H2958 C2971 0.961 . S
H2959 C2971 0.959 . S
H2960 C2974 0.929 . S
H2961 C2975 0.931 . S
H2962 C2977 0.930 . S
C2963 H2951 0.930 . S
C2963 C2964 1.399 . S
C2963 C2968 1.399 . S
C2964 C2963 1.399 . S
C2964 C2965 1.376 . S
C2965 H2952 0.930 . S
C2965 C2964 1.376 . S
C2965 C2966 1.388 . S
C2966 H2953 0.930 . S
C2966 C2965 1.388 . S
C2966 C2967 1.390 . S
C2967 C2966 1.390 . S
C2967 C2968 1.394 . S
C2967 C2973 1.465 . S
C2968 C2963 1.399 . S
C2968 C2967 1.394 . S
C2968 C2969 1.516 . S
C2969 C2968 1.516 . S
C2969 C2970 1.502 . S
C2969 C2971 1.561 . S
C2969 C2972 1.526 . S
C2970 H2954 0.959 . S
C2970 H2955 0.959 . S
C2970 H2956 0.961 . S
C2970 C2969 1.502 . S
C2971 H2957 0.960 . S
C2971 H2958 0.961 . S
C2971 H2959 0.959 . S
C2971 C2969 1.561 . S
C2972 C2969 1.526 . S
C2972 C2973 1.396 . S
C2972 C2977 1.390 . S
C2973 C2967 1.465 . S
C2973 C2972 1.396 . S
C2973 C2974 1.399 . S
C2974 H2960 0.929 . S
C2974 C2973 1.399 . S
C2974 C2975 1.385 . S
C2975 H2961 0.931 . S
C2975 C2974 1.385 . S
C2975 C2976 1.389 . S
C2976 C2975 1.389 . S
C2976 C2977 1.387 . S
C2977 H2962 0.930 . S
C2977 C2972 1.390 . S
C2977 C2976 1.387 . S
H2978 C2990 0.930 . S
H2979 C2992 0.930 . S
H2980 C2993 0.930 . S
H2981 C2997 0.959 . S
H2982 C2997 0.959 . S
H2983 C2997 0.961 . S
H2984 C2998 0.960 . S
H2985 C2998 0.961 . S
H2986 C2998 0.959 . S
H2987 C3001 0.929 . S
H2988 C3002 0.931 . S
H2989 C3004 0.930 . S
C2990 H2978 0.930 . S
C2990 C2991 1.399 . S
C2990 C2995 1.399 . S
C2991 C2990 1.399 . S
C2991 C2992 1.376 . S
C2992 H2979 0.930 . S
C2992 C2991 1.376 . S
C2992 C2993 1.388 . S
C2993 H2980 0.930 . S
C2993 C2992 1.388 . S
C2993 C2994 1.390 . S
C2994 C2993 1.390 . S
C2994 C2995 1.394 . S
C2994 C3000 1.465 . S
C2995 C2990 1.399 . S
C2995 C2994 1.394 . S
C2995 C2996 1.516 . S
C2996 C2995 1.516 . S
C2996 C2997 1.502 . S
C2996 C2998 1.561 . S
C2996 C2999 1.526 . S
C2997 H2981 0.959 . S
C2997 H2982 0.959 . S
C2997 H2983 0.961 . S
C2997 C2996 1.502 . S
C2998 H2984 0.960 . S
C2998 H2985 0.961 . S
C2998 H2986 0.959 . S
C2998 C2996 1.561 . S
C2999 C2996 1.526 . S
C2999 C3000 1.396 . S
C2999 C3004 1.390 . S
C3000 C2994 1.465 . S
C3000 C2999 1.396 . S
C3000 C3001 1.399 . S
C3001 H2987 0.929 . S
C3001 C3000 1.399 . S
C3001 C3002 1.385 . S
C3002 H2988 0.931 . S
C3002 C3001 1.385 . S
C3002 C3003 1.389 . S
C3003 C3002 1.389 . S
C3003 C3004 1.387 . S
C3004 H2989 0.930 . S
C3004 C2999 1.390 . S
C3004 C3003 1.387 . S
H3005 C3017 0.930 . S
H3006 C3019 0.930 . S
H3007 C3020 0.930 . S
H3008 C3024 0.959 . S
H3009 C3024 0.959 . S
H3010 C3024 0.961 . S
H3011 C3025 0.960 . S
H3012 C3025 0.961 . S
H3013 C3025 0.959 . S
H3014 C3028 0.929 . S
H3015 C3029 0.931 . S
H3016 C3031 0.930 . S
C3017 H3005 0.930 . S
C3017 C3018 1.399 . S
C3017 C3022 1.399 . S
C3018 C3017 1.399 . S
C3018 C3019 1.376 . S
C3019 H3006 0.930 . S
C3019 C3018 1.376 . S
C3019 C3020 1.388 . S
C3020 H3007 0.930 . S
C3020 C3019 1.388 . S
C3020 C3021 1.390 . S
C3021 C3020 1.390 . S
C3021 C3022 1.394 . S
C3021 C3027 1.465 . S
C3022 C3017 1.399 . S
C3022 C3021 1.394 . S
C3022 C3023 1.516 . S
C3023 C3022 1.516 . S
C3023 C3024 1.502 . S
C3023 C3025 1.561 . S
C3023 C3026 1.526 . S
C3024 H3008 0.959 . S
C3024 H3009 0.959 . S
C3024 H3010 0.961 . S
C3024 C3023 1.502 . S
C3025 H3011 0.960 . S
C3025 H3012 0.961 . S
C3025 H3013 0.959 . S
C3025 C3023 1.561 . S
C3026 C3023 1.526 . S
C3026 C3027 1.396 . S
C3026 C3031 1.390 . S
C3027 C3021 1.465 . S
C3027 C3026 1.396 . S
C3027 C3028 1.399 . S
C3028 H3014 0.929 . S
C3028 C3027 1.399 . S
C3028 C3029 1.385 . S
C3029 H3015 0.931 . S
C3029 C3028 1.385 . S
C3029 C3030 1.389 . S
C3030 C3029 1.389 . S
C3030 C3031 1.387 . S
C3031 H3016 0.930 . S
C3031 C3026 1.390 . S
C3031 C3030 1.387 . S
H3032 C3044 0.930 . S
H3033 C3046 0.930 . S
H3034 C3047 0.930 . S
H3035 C3051 0.959 . S
H3036 C3051 0.959 . S
H3037 C3051 0.961 . S
H3038 C3052 0.960 . S
H3039 C3052 0.961 . S
H3040 C3052 0.959 . S
H3041 C3055 0.929 . S
H3042 C3056 0.931 . S
H3043 C3058 0.930 . S
C3044 H3032 0.930 . S
C3044 C3045 1.399 . S
C3044 C3049 1.399 . S
C3045 C3044 1.399 . S
C3045 C3046 1.376 . S
C3046 H3033 0.930 . S
C3046 C3045 1.376 . S
C3046 C3047 1.388 . S
C3047 H3034 0.930 . S
C3047 C3046 1.388 . S
C3047 C3048 1.390 . S
C3048 C3047 1.390 . S
C3048 C3049 1.394 . S
C3048 C3054 1.465 . S
C3049 C3044 1.399 . S
C3049 C3048 1.394 . S
C3049 C3050 1.516 . S
C3050 C3049 1.516 . S
C3050 C3051 1.502 . S
C3050 C3052 1.561 . S
C3050 C3053 1.526 . S
C3051 H3035 0.959 . S
C3051 H3036 0.959 . S
C3051 H3037 0.961 . S
C3051 C3050 1.502 . S
C3052 H3038 0.960 . S
C3052 H3039 0.961 . S
C3052 H3040 0.959 . S
C3052 C3050 1.561 . S
C3053 C3050 1.526 . S
C3053 C3054 1.396 . S
C3053 C3058 1.390 . S
C3054 C3048 1.465 . S
C3054 C3053 1.396 . S
C3054 C3055 1.399 . S
C3055 H3041 0.929 . S
C3055 C3054 1.399 . S
C3055 C3056 1.385 . S
C3056 H3042 0.931 . S
C3056 C3055 1.385 . S
C3056 C3057 1.389 . S
C3057 C3056 1.389 . S
C3057 C3058 1.387 . S
C3058 H3043 0.930 . S
C3058 C3053 1.390 . S
C3058 C3057 1.387 . S
H3059 C3071 0.930 . S
H3060 C3073 0.930 . S
H3061 C3074 0.930 . S
H3062 C3078 0.959 . S
H3063 C3078 0.959 . S
H3064 C3078 0.961 . S
H3065 C3079 0.960 . S
H3066 C3079 0.961 1_545 S
H3067 C3079 0.959 . S
H3068 C3082 0.929 . S
H3069 C3083 0.931 . S
H3070 C3085 0.930 1_545 S
C3071 H3059 0.930 . S
C3071 C3072 1.399 . S
C3071 C3076 1.399 . S
C3072 C3071 1.399 . S
C3072 C3073 1.376 . S
C3073 H3060 0.930 . S
C3073 C3072 1.376 . S
C3073 C3074 1.388 . S
C3074 H3061 0.930 . S
C3074 C3073 1.388 . S
C3074 C3075 1.390 . S
C3075 C3074 1.390 . S
C3075 C3076 1.394 . S
C3075 C3081 1.465 . S
C3076 C3071 1.399 . S
C3076 C3075 1.394 . S
C3076 C3077 1.516 . S
C3077 C3076 1.516 . S
C3077 C3078 1.502 1_565 S
C3077 C3079 1.561 . S
C3077 C3080 1.526 . S
C3078 H3062 0.959 . S
C3078 H3063 0.959 . S
C3078 H3064 0.961 . S
C3078 C3077 1.502 1_545 S
C3079 H3065 0.960 . S
C3079 H3066 0.961 1_565 S
C3079 H3067 0.959 . S
C3079 C3077 1.561 . S
C3080 C3077 1.526 . S
C3080 C3081 1.396 . S
C3080 C3085 1.390 . S
C3081 C3075 1.465 . S
C3081 C3080 1.396 . S
C3081 C3082 1.399 . S
C3082 H3068 0.929 . S
C3082 C3081 1.399 . S
C3082 C3083 1.385 . S
C3083 H3069 0.931 . S
C3083 C3082 1.385 . S
C3083 C3084 1.389 . S
C3084 C3083 1.389 . S
C3084 C3085 1.387 . S
C3085 H3070 0.930 1_565 S
C3085 C3080 1.390 . S
C3085 C3084 1.387 . S
H3086 C3098 0.930 . S
H3087 C3100 0.930 . S
H3088 C3101 0.930 . S
H3089 C3105 0.959 . S
H3090 C3105 0.959 . S
H3091 C3105 0.961 . S
H3092 C3106 0.960 . S
H3093 C3106 0.961 . S
H3094 C3106 0.959 . S
H3095 C3109 0.929 . S
H3096 C3110 0.931 . S
H3097 C3112 0.930 . S
C3098 H3086 0.930 . S
C3098 C3099 1.399 . S
C3098 C3103 1.399 . S
C3099 C3098 1.399 . S
C3099 C3100 1.376 . S
C3100 H3087 0.930 . S
C3100 C3099 1.376 . S
C3100 C3101 1.388 . S
C3101 H3088 0.930 . S
C3101 C3100 1.388 . S
C3101 C3102 1.390 . S
C3102 C3101 1.390 . S
C3102 C3103 1.394 . S
C3102 C3108 1.465 . S
C3103 C3098 1.399 . S
C3103 C3102 1.394 . S
C3103 C3104 1.516 . S
C3104 C3103 1.516 . S
C3104 C3105 1.502 . S
C3104 C3106 1.561 . S
C3104 C3107 1.526 . S
C3105 H3089 0.959 . S
C3105 H3090 0.959 . S
C3105 H3091 0.961 . S
C3105 C3104 1.502 . S
C3106 H3092 0.960 . S
C3106 H3093 0.961 . S
C3106 H3094 0.959 . S
C3106 C3104 1.561 . S
C3107 C3104 1.526 . S
C3107 C3108 1.396 . S
C3107 C3112 1.390 . S
C3108 C3102 1.465 . S
C3108 C3107 1.396 . S
C3108 C3109 1.399 . S
C3109 H3095 0.929 . S
C3109 C3108 1.399 . S
C3109 C3110 1.385 . S
C3110 H3096 0.931 . S
C3110 C3109 1.385 . S
C3110 C3111 1.389 . S
C3111 C3110 1.389 . S
C3111 C3112 1.387 . S
C3112 H3097 0.930 . S
C3112 C3107 1.390 . S
C3112 C3111 1.387 . S
H3113 C3125 0.930 . S
H3114 C3127 0.930 . S
H3115 C3128 0.930 . S
H3116 C3132 0.959 . S
H3117 C3132 0.959 . S
H3118 C3132 0.961 . S
H3119 C3133 0.960 . S
H3120 C3133 0.961 . S
H3121 C3133 0.959 . S
H3122 C3136 0.929 . S
H3123 C3137 0.931 . S
H3124 C3139 0.930 . S
C3125 H3113 0.930 . S
C3125 C3126 1.399 . S
C3125 C3130 1.399 . S
C3126 C3125 1.399 . S
C3126 C3127 1.376 1_556 S
C3127 H3114 0.930 . S
C3127 C3126 1.376 1_554 S
C3127 C3128 1.388 . S
C3128 H3115 0.930 . S
C3128 C3127 1.388 . S
C3128 C3129 1.390 . S
C3129 C3128 1.390 . S
C3129 C3130 1.394 1_554 S
C3129 C3135 1.465 . S
C3130 C3125 1.399 . S
C3130 C3129 1.394 1_556 S
C3130 C3131 1.516 . S
C3131 C3130 1.516 . S
C3131 C3132 1.502 . S
C3131 C3133 1.561 . S
C3131 C3134 1.526 . S
C3132 H3116 0.959 . S
C3132 H3117 0.959 . S
C3132 H3118 0.961 . S
C3132 C3131 1.502 . S
C3133 H3119 0.960 . S
C3133 H3120 0.961 . S
C3133 H3121 0.959 . S
C3133 C3131 1.561 . S
C3134 C3131 1.526 . S
C3134 C3135 1.396 1_556 S
C3134 C3139 1.390 . S
C3135 C3129 1.465 . S
C3135 C3134 1.396 1_554 S
C3135 C3136 1.399 . S
C3136 H3122 0.929 . S
C3136 C3135 1.399 . S
C3136 C3137 1.385 . S
C3137 H3123 0.931 . S
C3137 C3136 1.385 . S
C3137 C3138 1.389 . S
C3138 C3137 1.389 . S
C3138 C3139 1.387 1_554 S
C3139 H3124 0.930 . S
C3139 C3134 1.390 . S
C3139 C3138 1.387 1_556 S
H3140 C3152 0.930 . S
H3141 C3154 0.930 . S
H3142 C3155 0.930 . S
H3143 C3159 0.959 . S
H3144 C3159 0.959 . S
H3145 C3159 0.961 . S
H3146 C3160 0.960 . S
H3147 C3160 0.961 . S
H3148 C3160 0.959 . S
H3149 C3163 0.929 . S
H3150 C3164 0.931 . S
H3151 C3166 0.930 . S
C3152 H3140 0.930 . S
C3152 C3153 1.399 . S
C3152 C3157 1.399 . S
C3153 C3152 1.399 . S
C3153 C3154 1.376 . S
C3154 H3141 0.930 . S
C3154 C3153 1.376 . S
C3154 C3155 1.388 . S
C3155 H3142 0.930 . S
C3155 C3154 1.388 . S
C3155 C3156 1.390 . S
C3156 C3155 1.390 . S
C3156 C3157 1.394 . S
C3156 C3162 1.465 . S
C3157 C3152 1.399 . S
C3157 C3156 1.394 . S
C3157 C3158 1.516 . S
C3158 C3157 1.516 . S
C3158 C3159 1.502 . S
C3158 C3160 1.561 . S
C3158 C3161 1.526 . S
C3159 H3143 0.959 . S
C3159 H3144 0.959 . S
C3159 H3145 0.961 . S
C3159 C3158 1.502 . S
C3160 H3146 0.960 . S
C3160 H3147 0.961 . S
C3160 H3148 0.959 . S
C3160 C3158 1.561 . S
C3161 C3158 1.526 . S
C3161 C3162 1.396 . S
C3161 C3166 1.390 . S
C3162 C3156 1.465 . S
C3162 C3161 1.396 . S
C3162 C3163 1.399 . S
C3163 H3149 0.929 . S
C3163 C3162 1.399 . S
C3163 C3164 1.385 . S
C3164 H3150 0.931 . S
C3164 C3163 1.385 . S
C3164 C3165 1.389 . S
C3165 C3164 1.389 . S
C3165 C3166 1.387 . S
C3166 H3151 0.930 . S
C3166 C3161 1.390 . S
C3166 C3165 1.387 . S
H3167 C3179 0.930 1_556 S
H3168 C3181 0.930 . S
H3169 C3182 0.930 . S
H3170 C3186 0.959 . S
H3171 C3186 0.959 . S
H3172 C3186 0.961 . S
H3173 C3187 0.960 . S
H3174 C3187 0.961 . S
H3175 C3187 0.959 . S
H3176 C3190 0.929 . S
H3177 C3191 0.931 . S
H3178 C3193 0.930 . S
C3179 H3167 0.930 1_554 S
C3179 C3180 1.399 . S
C3179 C3184 1.399 . S
C3180 C3179 1.399 . S
C3180 C3181 1.376 . S
C3181 H3168 0.930 . S
C3181 C3180 1.376 . S
C3181 C3182 1.388 . S
C3182 H3169 0.930 . S
C3182 C3181 1.388 . S
C3182 C3183 1.390 . S
C3183 C3182 1.390 . S
C3183 C3184 1.394 . S
C3183 C3189 1.465 . S
C3184 C3179 1.399 . S
C3184 C3183 1.394 . S
C3184 C3185 1.516 1_554 S
C3185 C3184 1.516 1_556 S
C3185 C3186 1.502 . S
C3185 C3187 1.561 . S
C3185 C3188 1.526 . S
C3186 H3170 0.959 . S
C3186 H3171 0.959 . S
C3186 H3172 0.961 . S
C3186 C3185 1.502 . S
C3187 H3173 0.960 . S
C3187 H3174 0.961 . S
C3187 H3175 0.959 . S
C3187 C3185 1.561 . S
C3188 C3185 1.526 . S
C3188 C3189 1.396 1_556 S
C3188 C3193 1.390 . S
C3189 C3183 1.465 . S
C3189 C3188 1.396 1_554 S
C3189 C3190 1.399 . S
C3190 H3176 0.929 . S
C3190 C3189 1.399 . S
C3190 C3191 1.385 . S
C3191 H3177 0.931 . S
C3191 C3190 1.385 . S
C3191 C3192 1.380 1_554 S
C3192 C3191 1.380 1_556 S
C3192 C3193 1.392 . S
C3193 H3178 0.930 . S
C3193 C3188 1.390 . S
C3193 C3192 1.392 . S
H3194 C3206 0.930 . S
H3195 C3208 0.930 . S
H3196 C3209 0.930 . S
H3197 C3213 0.959 . S
H3198 C3213 0.959 . S
H3199 C3213 0.961 . S
H3200 C3214 0.960 . S
H3201 C3214 0.961 . S
H3202 C3214 0.959 . S
H3203 C3217 0.929 . S
H3204 C3218 0.931 . S
H3205 C3220 0.930 . S
C3206 H3194 0.930 . S
C3206 C3207 1.399 . S
C3206 C3211 1.399 . S
C3207 C3206 1.399 . S
C3207 C3208 1.376 . S
C3208 H3195 0.930 . S
C3208 C3207 1.376 . S
C3208 C3209 1.388 . S
C3209 H3196 0.930 . S
C3209 C3208 1.388 . S
C3209 C3210 1.390 . S
C3210 C3209 1.390 . S
C3210 C3211 1.394 . S
C3210 C3216 1.465 . S
C3211 C3206 1.399 . S
C3211 C3210 1.394 . S
C3211 C3212 1.516 . S
C3212 C3211 1.516 . S
C3212 C3213 1.502 . S
C3212 C3214 1.561 . S
C3212 C3215 1.526 . S
C3213 H3197 0.959 . S
C3213 H3198 0.959 . S
C3213 H3199 0.961 . S
C3213 C3212 1.502 . S
C3214 H3200 0.960 . S
C3214 H3201 0.961 . S
C3214 H3202 0.959 . S
C3214 C3212 1.561 . S
C3215 C3212 1.526 . S
C3215 C3216 1.396 . S
C3215 C3220 1.390 . S
C3216 C3210 1.465 . S
C3216 C3215 1.396 . S
C3216 C3217 1.399 . S
C3217 H3203 0.929 . S
C3217 C3216 1.399 . S
C3217 C3218 1.385 . S
C3218 H3204 0.931 . S
C3218 C3217 1.385 . S
C3218 C3219 1.389 . S
C3219 C3218 1.389 . S
C3219 C3220 1.387 . S
C3220 H3205 0.930 . S
C3220 C3215 1.390 . S
C3220 C3219 1.387 . S
H3221 C3233 0.930 . S
H3222 C3235 0.930 . S
H3223 C3236 0.930 . S
H3224 C3240 0.959 . S
H3225 C3240 0.959 . S
H3226 C3240 0.961 . S
H3227 C3241 0.960 . S
H3228 C3241 0.961 . S
H3229 C3241 0.959 . S
H3230 C3244 0.929 . S
H3231 C3245 0.931 . S
H3232 C3247 0.930 . S
C3233 H3221 0.930 . S
C3233 C3234 1.399 . S
C3233 C3238 1.399 . S
C3234 C3233 1.399 . S
C3234 C3235 1.376 . S
C3235 H3222 0.930 . S
C3235 C3234 1.376 . S
C3235 C3236 1.388 . S
C3236 H3223 0.930 . S
C3236 C3235 1.388 . S
C3236 C3237 1.390 . S
C3237 C3236 1.390 . S
C3237 C3238 1.394 . S
C3237 C3243 1.465 . S
C3238 C3233 1.399 . S
C3238 C3237 1.394 . S
C3238 C3239 1.516 . S
C3239 C3238 1.516 . S
C3239 C3240 1.502 . S
C3239 C3241 1.561 . S
C3239 C3242 1.526 . S
C3240 H3224 0.959 . S
C3240 H3225 0.959 . S
C3240 H3226 0.961 . S
C3240 C3239 1.502 . S
C3241 H3227 0.960 . S
C3241 H3228 0.961 . S
C3241 H3229 0.959 . S
C3241 C3239 1.561 . S
C3242 C3239 1.526 . S
C3242 C3243 1.396 . S
C3242 C3247 1.390 . S
C3243 C3237 1.465 . S
C3243 C3242 1.396 . S
C3243 C3244 1.399 . S
C3244 H3230 0.929 . S
C3244 C3243 1.399 . S
C3244 C3245 1.385 . S
C3245 H3231 0.931 . S
C3245 C3244 1.385 . S
C3245 C3246 1.389 . S
C3246 C3245 1.389 . S
C3246 C3247 1.387 . S
C3247 H3232 0.930 . S
C3247 C3242 1.390 . S
C3247 C3246 1.387 . S
C669 C105 1.264 . S
C681 C352 1.208 1_556 S
C696 C65 1.334 . S
C708 C365 1.353 . S
C723 C73 1.365 . S
C735 C384 1.359 . S
C762 C415 1.889 . S
C750 C92 1.922 . S
C777 C17 1.789 . S
C789 C435 1.733 . S
C816 C452 0.921 . S
C804 C37 0.915 . S
C843 C465 1.506 . S
C831 C49 1.458 . S
C858 C8 1.000 . S
C870 C492 1.055 . S
C897 C345 1.198 . S
C885 C231 1.150 . S
C912 C241 1.460 . S
C924 C375 1.433 . S
C951 C377 1.704 . S
C939 C273 1.632 . S
C978 C412 0.852 . S
C966 C171 0.874 . S
C993 C227 1.143 . S
C1005 C432 1.151 . S
C1032 C445 1.767 . S
C1020 C245 1.705 . S
C1059 C475 1.324 . S
C1047 C269 1.315 . S
C1086 C485 1.214 . S
C1074 C175 1.206 . S
C1113 C355 1.577 . S
C1101 C162 1.601 . S
C1128 C289 1.777 . S
C1140 C505 1.786 1_556 S
C1167 C535 1.606 . S
C1155 C330 1.610 . S
C1194 C552 1.174 . S
C1182 C317 1.199 . S
C1209 C120 1.900 . S
C1221 C495 1.889 . S
C1236 C134 1.287 . S
C1248 C382 1.211 . S
C1263 C331 1.810 . S
C1275 C565 1.787 . S
C1302 C592 0.921 . S
C1290 C303 0.963 . S
C1329 C342 1.290 . S
C1317 C59 1.297 . S
C1356 C577 1.324 . S
C1344 C107 1.357 . S
C1371 C91 1.330 . S
C1383 C395 1.359 . S
C1398 C78 1.968 . S
C1410 C564 1.903 . S
C1437 C424 1.763 . S
C1425 C7 1.779 . S
C1452 C51 0.885 . S
C1464 C522 0.872 . S
C1491 C457 1.506 . S
C1479 C31 1.521 . S
C1518 C602 1.048 . S
C1506 C22 1.066 . S
C1545 C337 1.231 . S
C1533 C143 1.265 . S
C1572 C584 1.510 . S
C1560 C315 1.440 . S
C1587 C115 1.741 . S
C1599 C385 1.712 . S
C1614 C287 0.878 . S
C1626 C562 0.873 . S
C1641 C147 1.179 . S
C1653 C422 1.180 . S
C1680 C517 1.794 . S
C1668 C311 1.791 . S
C1695 C119 1.342 . S
C1707 C464 1.339 . S
C1722 C283 1.234 . S
C1734 C597 1.241 . S
C1749 C190 1.635 . S
C1761 C344 1.613 1_556 S
C1776 C177 1.798 . S
C1788 C497 1.779 . S
C1803 C260 1.661 . S
C1815 C444 1.646 . S
C1830 C247 1.231 . S
C1842 C542 1.188 . S
C1869 C604 1.892 . S
C1857 C274 1.903 . S
C1884 C218 1.308 . S
C1896 C392 1.207 1_565 S
C1923 C397 1.823 . S
C1911 C261 1.812 . S
C1950 C362 1.014 . S
C1938 C205 1.027 . S
C1965 C77 1.266 . S
C1977 C632 1.214 . S
C2004 C585 1.301 . S
C1992 C93 1.353 . S
C2019 C101 1.363 . S
C2031 C644 1.340 1_455 S
C2046 C64 1.933 . S
C2058 C575 1.920 . S
C2073 C45 1.784 . S
C2085 C515 1.772 . S
C2112 C532 0.831 . S
C2100 C9 0.853 . S
C2139 C545 1.489 1_655 S
C2127 C21 1.441 . S
C2166 C612 1.053 . S
C2154 C36 1.003 . S
C2193 C625 1.251 . S
C2181 C259 1.246 . S
C2208 C185 1.469 . S
C2220 C595 1.476 . S
C2247 C637 1.706 . S
C2235 C203 1.634 . S
C2274 C572 0.868 . S
C2262 C213 0.862 . S
C2301 C512 1.088 . S
C2289 C255 1.108 . S
C2316 C189 1.715 . S
C2328 C525 1.767 . S
C2355 C555 1.313 . S
C2343 C199 1.308 . S
C2370 C217 1.216 . S
C2382 C605 1.223 . S
C2409 C635 1.616 . S
C2397 C316 1.631 . S
C2424 C135 1.781 . S
C2436 C425 1.752 . S
C2463 C455 1.628 . S
C2451 C148 1.624 . S
C2490 C472 1.157 1_565 S
C2478 C163 1.192 . S
C2517 C615 1.874 . S
C2505 C302 1.863 . S
C2532 C288 1.264 . S
C2544 C642 1.186 . S
C2571 C405 1.786 . S
C2559 C149 1.808 . S
C2598 C372 1.005 . S
C2586 C121 1.009 . S
C2613 C87 1.301 . S
C2625 C622 1.297 . S
C2652 C357 1.369 . S
C2640 C79 1.380 . S
C2667 C63 1.345 . S
C2679 C655 1.369 . S
C2694 C106 1.977 . S
C2706 C404 1.942 . S
C2721 C35 1.787 . S
C2733 C504 1.739 1_556 S
C2760 C442 0.883 . S
C2748 C23 0.910 . S
C2775 C3 1.522 . S
C2787 C537 1.508 . S
C2802 C50 1.069 . S
C2814 C482 1.038 . S
C2841 C617 1.227 . S
C2829 C325 1.263 . S
C2856 C161 1.436 . S
C2868 C364 1.509 . S
C2895 C645 1.704 . S
C2883 C297 1.742 . S
C2910 C133 0.923 . S
C2922 C402 0.944 . S
C2937 C329 1.071 . S
C2949 C502 1.143 . S
C2976 C437 1.794 . S
C2964 C157 1.791 . S
C2991 C301 1.346 . S
C3003 C544 1.329 . S
C3030 C477 1.252 . S
C3018 C129 1.239 . S
C3057 C624 1.597 . S
C3045 C246 1.642 . S
C3084 C417 1.799 1_565 S
C3072 C219 1.787 . S
C3099 C232 1.609 . S
C3111 C524 1.638 . S
C3138 C462 1.209 . S
C3126 C191 1.248 . S
C3153 C204 1.901 . S
C3165 C484 1.890 . S
C3180 C176 1.307 . S
C3192 C652 1.210 . S
C3219 C557 1.827 . S
C3207 C233 1.813 1_565 S
C3246 C582 0.999 . S
C3234 C275 1.024 . S
