# Generated by pormake.
# Topology iac, (4,6)-cn, num edge types: 1
# Building blocks:
#     Node 0, Type 0, BuildingBlock: CEKHIL_clean_sbu_0, # of connection points: 4
#     Node 1, Type 0, BuildingBlock: CEKHIL_clean_sbu_0, # of connection points: 4
#     Node 2, Type 0, BuildingBlock: CEKHIL_clean_sbu_0, # of connection points: 4
#     Node 3, Type 0, BuildingBlock: CEKHIL_clean_sbu_0, # of connection points: 4
#     Node 4, Type 0, BuildingBlock: CEKHIL_clean_sbu_0, # of connection points: 4
#     Node 5, Type 0, BuildingBlock: CEKHIL_clean_sbu_0, # of connection points: 4
#     Node 6, Type 0, BuildingBlock: CEKHIL_clean_sbu_0, # of connection points: 4
#     Node 7, Type 0, BuildingBlock: CEKHIL_clean_sbu_0, # of connection points: 4
#     Node 8, Type 0, BuildingBlock: CEKHIL_clean_sbu_0, # of connection points: 4
#     Node 9, Type 0, BuildingBlock: CEKHIL_clean_sbu_0, # of connection points: 4
#     Node 10, Type 0, BuildingBlock: CEKHIL_clean_sbu_0, # of connection points: 4
#     Node 11, Type 0, BuildingBlock: CEKHIL_clean_sbu_0, # of connection points: 4
#     Node 12, Type 0, BuildingBlock: CEKHIL_clean_sbu_0, # of connection points: 4
#     Node 13, Type 0, BuildingBlock: CEKHIL_clean_sbu_0, # of connection points: 4
#     Node 14, Type 0, BuildingBlock: CEKHIL_clean_sbu_0, # of connection points: 4
#     Node 15, Type 0, BuildingBlock: CEKHIL_clean_sbu_0, # of connection points: 4
#     Node 16, Type 0, BuildingBlock: CEKHIL_clean_sbu_0, # of connection points: 4
#     Node 17, Type 0, BuildingBlock: CEKHIL_clean_sbu_0, # of connection points: 4
#     Node 18, Type 0, BuildingBlock: CEKHIL_clean_sbu_0, # of connection points: 4
#     Node 19, Type 0, BuildingBlock: CEKHIL_clean_sbu_0, # of connection points: 4
#     Node 20, Type 0, BuildingBlock: CEKHIL_clean_sbu_0, # of connection points: 4
#     Node 21, Type 0, BuildingBlock: CEKHIL_clean_sbu_0, # of connection points: 4
#     Node 22, Type 0, BuildingBlock: CEKHIL_clean_sbu_0, # of connection points: 4
#     Node 23, Type 0, BuildingBlock: CEKHIL_clean_sbu_0, # of connection points: 4
#     Node 24, Type 1, BuildingBlock: VOLQOD_clean_sbu_1, # of connection points: 6
#     Node 25, Type 1, BuildingBlock: VOLQOD_clean_sbu_1, # of connection points: 6
#     Node 26, Type 1, BuildingBlock: VOLQOD_clean_sbu_1, # of connection points: 6
#     Node 27, Type 1, BuildingBlock: VOLQOD_clean_sbu_1, # of connection points: 6
#     Node 28, Type 1, BuildingBlock: VOLQOD_clean_sbu_1, # of connection points: 6
#     Node 29, Type 1, BuildingBlock: VOLQOD_clean_sbu_1, # of connection points: 6
#     Node 30, Type 1, BuildingBlock: VOLQOD_clean_sbu_1, # of connection points: 6
#     Node 31, Type 1, BuildingBlock: VOLQOD_clean_sbu_1, # of connection points: 6
#     Node 32, Type 1, BuildingBlock: VOLQOD_clean_sbu_1, # of connection points: 6
#     Node 33, Type 1, BuildingBlock: VOLQOD_clean_sbu_1, # of connection points: 6
#     Node 34, Type 1, BuildingBlock: VOLQOD_clean_sbu_1, # of connection points: 6
#     Node 35, Type 1, BuildingBlock: VOLQOD_clean_sbu_1, # of connection points: 6
#     Node 36, Type 1, BuildingBlock: VOLQOD_clean_sbu_1, # of connection points: 6
#     Node 37, Type 1, BuildingBlock: VOLQOD_clean_sbu_1, # of connection points: 6
#     Node 38, Type 1, BuildingBlock: VOLQOD_clean_sbu_1, # of connection points: 6
#     Node 39, Type 1, BuildingBlock: VOLQOD_clean_sbu_1, # of connection points: 6
#     Edge 40, Type (0, 1), BuildingBlock: ZUJKAS_clean_linker_0, # of connection points: 2
#     Edge 41, Type (0, 1), BuildingBlock: ZUJKAS_clean_linker_0, # of connection points: 2
#     Edge 42, Type (0, 1), BuildingBlock: ZUJKAS_clean_linker_0, # of connection points: 2
#     Edge 43, Type (0, 1), BuildingBlock: ZUJKAS_clean_linker_0, # of connection points: 2
#     Edge 44, Type (0, 1), BuildingBlock: ZUJKAS_clean_linker_0, # of connection points: 2
#     Edge 45, Type (0, 1), BuildingBlock: ZUJKAS_clean_linker_0, # of connection points: 2
#     Edge 46, Type (0, 1), BuildingBlock: ZUJKAS_clean_linker_0, # of connection points: 2
#     Edge 47, Type (0, 1), BuildingBlock: ZUJKAS_clean_linker_0, # of connection points: 2
#     Edge 48, Type (0, 1), BuildingBlock: ZUJKAS_clean_linker_0, # of connection points: 2
#     Edge 49, Type (0, 1), BuildingBlock: ZUJKAS_clean_linker_0, # of connection points: 2
#     Edge 50, Type (0, 1), BuildingBlock: ZUJKAS_clean_linker_0, # of connection points: 2
#     Edge 51, Type (0, 1), BuildingBlock: ZUJKAS_clean_linker_0, # of connection points: 2
#     Edge 52, Type (0, 1), BuildingBlock: ZUJKAS_clean_linker_0, # of connection points: 2
#     Edge 53, Type (0, 1), BuildingBlock: ZUJKAS_clean_linker_0, # of connection points: 2
#     Edge 54, Type (0, 1), BuildingBlock: ZUJKAS_clean_linker_0, # of connection points: 2
#     Edge 55, Type (0, 1), BuildingBlock: ZUJKAS_clean_linker_0, # of connection points: 2
#     Edge 56, Type (0, 1), BuildingBlock: ZUJKAS_clean_linker_0, # of connection points: 2
#     Edge 57, Type (0, 1), BuildingBlock: ZUJKAS_clean_linker_0, # of connection points: 2
#     Edge 58, Type (0, 1), BuildingBlock: ZUJKAS_clean_linker_0, # of connection points: 2
#     Edge 59, Type (0, 1), BuildingBlock: ZUJKAS_clean_linker_0, # of connection points: 2
#     Edge 60, Type (0, 1), BuildingBlock: ZUJKAS_clean_linker_0, # of connection points: 2
#     Edge 61, Type (0, 1), BuildingBlock: ZUJKAS_clean_linker_0, # of connection points: 2
#     Edge 62, Type (0, 1), BuildingBlock: ZUJKAS_clean_linker_0, # of connection points: 2
#     Edge 63, Type (0, 1), BuildingBlock: ZUJKAS_clean_linker_0, # of connection points: 2
#     Edge 64, Type (0, 1), BuildingBlock: ZUJKAS_clean_linker_0, # of connection points: 2
#     Edge 65, Type (0, 1), BuildingBlock: ZUJKAS_clean_linker_0, # of connection points: 2
#     Edge 66, Type (0, 1), BuildingBlock: ZUJKAS_clean_linker_0, # of connection points: 2
#     Edge 67, Type (0, 1), BuildingBlock: ZUJKAS_clean_linker_0, # of connection points: 2
#     Edge 68, Type (0, 1), BuildingBlock: ZUJKAS_clean_linker_0, # of connection points: 2
#     Edge 69, Type (0, 1), BuildingBlock: ZUJKAS_clean_linker_0, # of connection points: 2
#     Edge 70, Type (0, 1), BuildingBlock: ZUJKAS_clean_linker_0, # of connection points: 2
#     Edge 71, Type (0, 1), BuildingBlock: ZUJKAS_clean_linker_0, # of connection points: 2
#     Edge 72, Type (0, 1), BuildingBlock: ZUJKAS_clean_linker_0, # of connection points: 2
#     Edge 73, Type (0, 1), BuildingBlock: ZUJKAS_clean_linker_0, # of connection points: 2
#     Edge 74, Type (0, 1), BuildingBlock: ZUJKAS_clean_linker_0, # of connection points: 2
#     Edge 75, Type (0, 1), BuildingBlock: ZUJKAS_clean_linker_0, # of connection points: 2
#     Edge 76, Type (0, 1), BuildingBlock: ZUJKAS_clean_linker_0, # of connection points: 2
#     Edge 77, Type (0, 1), BuildingBlock: ZUJKAS_clean_linker_0, # of connection points: 2
#     Edge 78, Type (0, 1), BuildingBlock: ZUJKAS_clean_linker_0, # of connection points: 2
#     Edge 79, Type (0, 1), BuildingBlock: ZUJKAS_clean_linker_0, # of connection points: 2
#     Edge 80, Type (0, 1), BuildingBlock: ZUJKAS_clean_linker_0, # of connection points: 2
#     Edge 81, Type (0, 1), BuildingBlock: ZUJKAS_clean_linker_0, # of connection points: 2
#     Edge 82, Type (0, 1), BuildingBlock: ZUJKAS_clean_linker_0, # of connection points: 2
#     Edge 83, Type (0, 1), BuildingBlock: ZUJKAS_clean_linker_0, # of connection points: 2
#     Edge 84, Type (0, 1), BuildingBlock: ZUJKAS_clean_linker_0, # of connection points: 2
#     Edge 85, Type (0, 1), BuildingBlock: ZUJKAS_clean_linker_0, # of connection points: 2
#     Edge 86, Type (0, 1), BuildingBlock: ZUJKAS_clean_linker_0, # of connection points: 2
#     Edge 87, Type (0, 1), BuildingBlock: ZUJKAS_clean_linker_0, # of connection points: 2
#     Edge 88, Type (0, 1), BuildingBlock: ZUJKAS_clean_linker_0, # of connection points: 2
#     Edge 89, Type (0, 1), BuildingBlock: ZUJKAS_clean_linker_0, # of connection points: 2
#     Edge 90, Type (0, 1), BuildingBlock: ZUJKAS_clean_linker_0, # of connection points: 2
#     Edge 91, Type (0, 1), BuildingBlock: ZUJKAS_clean_linker_0, # of connection points: 2
#     Edge 92, Type (0, 1), BuildingBlock: ZUJKAS_clean_linker_0, # of connection points: 2
#     Edge 93, Type (0, 1), BuildingBlock: ZUJKAS_clean_linker_0, # of connection points: 2
#     Edge 94, Type (0, 1), BuildingBlock: ZUJKAS_clean_linker_0, # of connection points: 2
#     Edge 95, Type (0, 1), BuildingBlock: ZUJKAS_clean_linker_0, # of connection points: 2
#     Edge 96, Type (0, 1), BuildingBlock: ZUJKAS_clean_linker_0, # of connection points: 2
#     Edge 97, Type (0, 1), BuildingBlock: ZUJKAS_clean_linker_0, # of connection points: 2
#     Edge 98, Type (0, 1), BuildingBlock: ZUJKAS_clean_linker_0, # of connection points: 2
#     Edge 99, Type (0, 1), BuildingBlock: ZUJKAS_clean_linker_0, # of connection points: 2
#     Edge 100, Type (0, 1), BuildingBlock: ZUJKAS_clean_linker_0, # of connection points: 2
#     Edge 101, Type (0, 1), BuildingBlock: ZUJKAS_clean_linker_0, # of connection points: 2
#     Edge 102, Type (0, 1), BuildingBlock: ZUJKAS_clean_linker_0, # of connection points: 2
#     Edge 103, Type (0, 1), BuildingBlock: ZUJKAS_clean_linker_0, # of connection points: 2
#     Edge 104, Type (0, 1), BuildingBlock: ZUJKAS_clean_linker_0, # of connection points: 2
#     Edge 105, Type (0, 1), BuildingBlock: ZUJKAS_clean_linker_0, # of connection points: 2
#     Edge 106, Type (0, 1), BuildingBlock: ZUJKAS_clean_linker_0, # of connection points: 2
#     Edge 107, Type (0, 1), BuildingBlock: ZUJKAS_clean_linker_0, # of connection points: 2
#     Edge 108, Type (0, 1), BuildingBlock: ZUJKAS_clean_linker_0, # of connection points: 2
#     Edge 109, Type (0, 1), BuildingBlock: ZUJKAS_clean_linker_0, # of connection points: 2
#     Edge 110, Type (0, 1), BuildingBlock: ZUJKAS_clean_linker_0, # of connection points: 2
#     Edge 111, Type (0, 1), BuildingBlock: ZUJKAS_clean_linker_0, # of connection points: 2
#     Edge 112, Type (0, 1), BuildingBlock: ZUJKAS_clean_linker_0, # of connection points: 2
#     Edge 113, Type (0, 1), BuildingBlock: ZUJKAS_clean_linker_0, # of connection points: 2
#     Edge 114, Type (0, 1), BuildingBlock: ZUJKAS_clean_linker_0, # of connection points: 2
#     Edge 115, Type (0, 1), BuildingBlock: ZUJKAS_clean_linker_0, # of connection points: 2
#     Edge 116, Type (0, 1), BuildingBlock: ZUJKAS_clean_linker_0, # of connection points: 2
#     Edge 117, Type (0, 1), BuildingBlock: ZUJKAS_clean_linker_0, # of connection points: 2
#     Edge 118, Type (0, 1), BuildingBlock: ZUJKAS_clean_linker_0, # of connection points: 2
#     Edge 119, Type (0, 1), BuildingBlock: ZUJKAS_clean_linker_0, # of connection points: 2
#     Edge 120, Type (0, 1), BuildingBlock: ZUJKAS_clean_linker_0, # of connection points: 2
#     Edge 121, Type (0, 1), BuildingBlock: ZUJKAS_clean_linker_0, # of connection points: 2
#     Edge 122, Type (0, 1), BuildingBlock: ZUJKAS_clean_linker_0, # of connection points: 2
#     Edge 123, Type (0, 1), BuildingBlock: ZUJKAS_clean_linker_0, # of connection points: 2
#     Edge 124, Type (0, 1), BuildingBlock: ZUJKAS_clean_linker_0, # of connection points: 2
#     Edge 125, Type (0, 1), BuildingBlock: ZUJKAS_clean_linker_0, # of connection points: 2
#     Edge 126, Type (0, 1), BuildingBlock: ZUJKAS_clean_linker_0, # of connection points: 2
#     Edge 127, Type (0, 1), BuildingBlock: ZUJKAS_clean_linker_0, # of connection points: 2
#     Edge 128, Type (0, 1), BuildingBlock: ZUJKAS_clean_linker_0, # of connection points: 2
#     Edge 129, Type (0, 1), BuildingBlock: ZUJKAS_clean_linker_0, # of connection points: 2
#     Edge 130, Type (0, 1), BuildingBlock: ZUJKAS_clean_linker_0, # of connection points: 2
#     Edge 131, Type (0, 1), BuildingBlock: ZUJKAS_clean_linker_0, # of connection points: 2
#     Edge 132, Type (0, 1), BuildingBlock: ZUJKAS_clean_linker_0, # of connection points: 2
#     Edge 133, Type (0, 1), BuildingBlock: ZUJKAS_clean_linker_0, # of connection points: 2
#     Edge 134, Type (0, 1), BuildingBlock: ZUJKAS_clean_linker_0, # of connection points: 2
#     Edge 135, Type (0, 1), BuildingBlock: ZUJKAS_clean_linker_0, # of connection points: 2
# Relax obj value: 0.303
# Max RMSD: 0.289
# Mean RMSD: 0.141
data_MOF--net-iac--node1-CEKHIL_clean_sbu_0--node2-VOLQOD_clean_sbu_1--edge1-ZUJKAS_clean_linker_0
_symmetry_space_group_name_H-M    P1
_symmetry_Int_Tables_number       1
_symmetry_cell_setting            triclinic
loop_
_symmetry_equiv_pos_as_xyz
'x, y, z'
_cell_length_a     70.5676
_cell_length_b     69.747658
_cell_length_c     68.852013
_cell_angle_alpha  90.077259
_cell_angle_beta   90.256194
_cell_angle_gamma 90.693264
loop_
_atom_site_label
_atom_site_type_symbol
_atom_site_fract_x
_atom_site_fract_y
_atom_site_fract_z
_atom_type_partial_charge
Co0 Co 0.99122 0.2698 0.14244 0.0
O1 O 0.96526 0.26941 0.1501 0.0
O2 O 0.9875 0.2504 0.16203 0.0
C3 C 0.99613 0.30147 0.14253 0.0
O4 O 0.01952 0.2669 0.13838 0.0
Co5 Co 0.002 0.2872 0.10253 0.0
O6 O 0.02814 0.28545 0.11312 0.0
C7 C 0.98372 0.2495 0.10363 0.0
C8 C 0.96975 0.25526 0.16139 0.0
C9 C 0.03222 0.27499 0.12769 0.0
O10 O 0.9853 0.25 0.12217 0.0
O11 O 0.98856 0.26352 0.09268 0.0
O12 O 0.99658 0.29198 0.15878 0.0
O13 O 0.99007 0.29199 0.12751 0.0
Co14 Co 0.01796 0.76177 0.38339 0.0
O15 O 0.04388 0.75785 0.37608 0.0
O16 O 0.01884 0.74472 0.3614 0.0
C17 C 0.01943 0.79364 0.38731 0.0
O18 O 0.98943 0.76289 0.3859 0.0
Co19 Co 0.00678 0.77737 0.42388 0.0
O20 O 0.98127 0.78045 0.41182 0.0
C21 C 0.02129 0.73821 0.42011 0.0
C22 C 0.03716 0.74653 0.36262 0.0
C23 C 0.97705 0.7717 0.39609 0.0
O24 O 0.01943 0.73934 0.40157 0.0
O25 O 0.01861 0.7524 0.43155 0.0
O26 O 0.0174 0.78643 0.36997 0.0
O27 O 0.02244 0.78151 0.40109 0.0
Co28 Co 0.49594 0.765 0.62866 0.0
O29 O 0.46928 0.76369 0.62364 0.0
O30 O 0.48295 0.75672 0.65181 0.0
C31 C 0.50159 0.79351 0.61507 0.0
O32 O 0.52296 0.76554 0.63906 0.0
Co33 Co 0.52342 0.76412 0.5937 0.0
O34 O 0.54231 0.77156 0.61384 0.0
C35 C 0.50379 0.72883 0.60525 0.0
C36 C 0.46753 0.7579 0.64145 0.0
C37 C 0.53936 0.76973 0.63201 0.0
O38 O 0.49821 0.73762 0.6205 0.0
O39 O 0.51297 0.73719 0.59162 0.0
O40 O 0.49477 0.79242 0.63254 0.0
O41 O 0.50242 0.77751 0.60556 0.0
Co42 Co 0.51102 0.25776 0.88786 0.0
O43 O 0.53786 0.2539 0.88979 0.0
O44 O 0.51927 0.24307 0.86592 0.0
C45 C 0.5106 0.28903 0.895 0.0
O46 O 0.48331 0.2592 0.8806 0.0
Co47 Co 0.48744 0.26886 0.92397 0.0
O48 O 0.4665 0.27219 0.9048 0.0
C49 C 0.50532 0.23129 0.92146 0.0
C50 C 0.53605 0.24425 0.87371 0.0
C51 C 0.46787 0.26595 0.88745 0.0
O52 O 0.50676 0.23371 0.90307 0.0
O53 O 0.49978 0.24448 0.93299 0.0
O54 O 0.51476 0.28349 0.87749 0.0
O55 O 0.50907 0.27561 0.90784 0.0
Co56 Co 0.13466 0.01036 0.27328 0.0
O57 O 0.13014 0.98315 0.27103 0.0
O58 O 0.15664 -0.00169 0.26257 0.0
C59 C 0.12321 0.01363 0.30343 0.0
O60 O 0.14528 0.03756 0.27424 0.0
Co61 Co 0.10242 0.03976 0.27888 0.0
O62 O 0.12337 0.05785 0.28536 0.0
C63 C 0.10697 0.01972 0.2414 0.0
C64 C 0.14722 0.98227 0.26409 0.0
C65 C 0.14037 0.05409 0.28068 0.0
O66 O 0.12352 0.01403 0.2466 0.0
O67 O 0.09589 0.02879 0.25276 0.0
O68 O 0.1404 0.00758 0.30094 0.0
O69 O 0.11328 0.01596 0.28787 0.0
Co70 Co 0.26856 0.89382 0.49931 0.0
O71 O 0.24301 0.88481 0.50286 0.0
O72 O 0.25305 0.91485 0.50727 0.0
C73 C 0.27315 0.87826 0.47128 0.0
O74 O 0.29316 0.90871 0.4963 0.0
Co75 Co 0.30246 0.86637 0.49873 0.0
O76 O 0.31717 0.88903 0.48962 0.0
C77 C 0.28186 0.87335 0.53508 0.0
C78 C 0.23927 0.90232 0.50784 0.0
C79 C 0.31041 0.90579 0.49134 0.0
O80 O 0.27416 0.88797 0.52717 0.0
O81 O 0.29247 0.86183 0.52571 0.0
O82 O 0.26477 0.89478 0.47129 0.0
O83 O 0.27743 0.87132 0.48809 0.0
Co84 Co 0.3563 -0.00254 0.78555 0.0
O85 O 0.35303 0.02467 0.78602 0.0
O86 O 0.33752 0.00454 0.76646 0.0
C87 C 0.35599 0.99331 0.81771 0.0
O88 O 0.35514 0.96857 0.78177 0.0
Co89 Co 0.39196 0.97885 0.80368 0.0
O90 O 0.37713 0.95467 0.80061 0.0
C91 C 0.3952 8e-05 0.76694 0.0
C92 C 0.34066 0.02208 0.77223 0.0
C93 C 0.36257 0.95368 0.78961 0.0
O94 O 0.37701 0.00063 0.76569 0.0
O95 O 0.40393 0.99339 0.78174 0.0
O96 O 0.34002 0.99437 0.80833 0.0
O97 O 0.37119 0.99633 0.8078 0.0
Co98 Co 0.25559 0.13875 0.99543 0.0
O99 O 0.28221 0.14388 0.9925 0.0
O100 O 0.26974 0.1165 0.00308 0.0
C101 C 0.24642 0.15053 0.9667 0.0
O102 O 0.22896 0.12796 -0.00061 0.0
Co103 Co 0.22706 0.17224 -0.00287 0.0
O104 O 0.20806 0.15136 0.99354 0.0
C105 C 0.25256 0.16523 0.03019 0.0
C106 C 0.28479 0.12654 -0.00129 0.0
C107 C 0.21194 0.1338 0.99654 0.0
O108 O 0.25692 0.14898 0.02274 0.0
O109 O 0.24206 0.17738 0.02147 0.0
O110 O 0.2532 0.13332 0.96779 0.0
O111 O 0.24728 0.16061 0.98245 0.0
Co112 Co 0.74793 0.39048 -0.00281 0.0
O113 O 0.7217 0.39422 0.00299 0.0
O114 O 0.74563 0.41101 0.01578 0.0
C115 C 0.74454 0.38859 0.96492 0.0
O116 O 0.77649 0.3914 0.99431 0.0
Co117 Co 0.76233 0.3535 0.97714 0.0
O118 O 0.78673 0.36779 0.97493 0.0
C119 C 0.75022 0.35249 0.01812 0.0
C120 C 0.72747 0.40783 0.01457 0.0
C121 C 0.78963 0.38309 0.98469 0.0
O122 O 0.7495 0.37091 0.01855 0.0
O123 O 0.75351 0.34292 0.00264 0.0
O124 O 0.74566 0.40532 0.97323 0.0
O125 O 0.74402 0.37397 0.97635 0.0
Co126 Co 0.8657 0.50971 0.28058 0.0
O127 O 0.8646 0.53713 0.27902 0.0
O128 O 0.84642 0.51685 0.26217 0.0
C129 C 0.86692 0.5077 0.31293 0.0
O130 O 0.862 0.48092 0.27884 0.0
Co131 Co 0.90033 0.48888 0.29818 0.0
O132 O 0.88337 0.46591 0.29747 0.0
C133 C 0.90351 0.50792 0.26015 0.0
C134 C 0.85127 0.53447 0.26618 0.0
C135 C 0.86835 0.46578 0.28712 0.0
O136 O 0.8854 0.50975 0.25956 0.0
O137 O 0.91233 0.50142 0.27499 0.0
O138 O 0.85059 0.50949 0.30433 0.0
O139 O 0.88171 0.50876 0.30204 0.0
Co140 Co 0.73882 0.62148 0.48536 0.0
O141 O 0.7658 0.62317 0.4825 0.0
O142 O 0.7504 0.59959 0.49749 0.0
C143 C 0.73126 0.62901 0.45468 0.0
O144 O 0.71122 0.61454 0.4904 0.0
Co145 Co 0.71387 0.65751 0.47977 0.0
O146 O 0.69271 0.63854 0.48012 0.0
C147 C 0.73801 0.65403 0.51452 0.0
C148 C 0.76647 0.60719 0.4921 0.0
C149 C 0.69486 0.62153 0.48641 0.0
O150 O 0.74093 0.63634 0.51035 0.0
O151 O 0.72889 0.66534 0.50333 0.0
O152 O 0.73599 0.61154 0.45896 0.0
O153 O 0.73312 0.64142 0.46849 0.0
Co154 Co 0.63746 0.52108 0.77659 0.0
O155 O 0.63424 0.4936 0.77637 0.0
O156 O 0.66019 0.50938 0.76727 0.0
C157 C 0.62514 0.52643 0.80606 0.0
O158 O 0.64679 0.5487 0.77549 0.0
Co159 Co 0.6038 0.54915 0.7783 0.0
O160 O 0.62362 0.5689 0.78362 0.0
C161 C 0.6107 0.5267 0.74278 0.0
C162 C 0.65136 0.49309 0.76946 0.0
C163 C 0.64095 0.56551 0.77998 0.0
O164 O 0.62705 0.522 0.74939 0.0
O165 O 0.59875 0.53635 0.75262 0.0
O166 O 0.64261 0.5209 0.80446 0.0
O167 O 0.61542 0.52688 0.79014 0.0
Co168 Co 0.00925 0.75333 0.90042 0.0
O169 O 0.03512 0.74819 0.90749 0.0
O170 O 0.02033 0.7369 0.88132 0.0
C171 C 0.01167 0.78497 0.90577 0.0
O172 O 0.98373 0.75608 0.88723 0.0
Co173 Co 0.97977 0.77094 0.92809 0.0
O174 O 0.96412 0.7745 0.90442 0.0
C175 C 0.98927 0.72979 0.93123 0.0
C176 C 0.03599 0.73887 0.89116 0.0
C177 C 0.96819 0.76527 0.88906 0.0
O178 O -0.00024 0.73087 0.916 0.0
O179 O 0.98124 0.74431 0.93889 0.0
O180 O 0.01742 0.77775 0.88947 0.0
O181 O 0.00552 0.77291 0.91856 0.0
Co182 Co 0.98871 0.25155 0.63077 0.0
O183 O 0.9632 0.24245 0.62746 0.0
O184 O 0.98133 0.23685 0.6532 0.0
C185 C 0.98317 0.28182 0.6219 0.0
O186 O 0.01516 0.25902 0.63966 0.0
Co187 Co 0.01222 0.2668 0.59606 0.0
O188 O 0.03017 0.27581 0.61645 0.0
C189 C 0.00771 0.22508 0.60185 0.0
C190 C 0.96487 0.23519 0.64473 0.0
C191 C 0.02929 0.26913 0.63364 0.0
O192 O -0.00132 0.22816 0.61768 0.0
O193 O 0.01334 0.2385 0.59049 0.0
O194 O 0.97954 0.27617 0.63946 0.0
O195 O 0.98841 0.26868 0.60983 0.0
Co196 Co 0.514 0.26904 0.37485 0.0
O197 O 0.53867 0.25849 0.37126 0.0
O198 O 0.51403 0.25351 0.35167 0.0
C199 C 0.52443 0.29895 0.381 0.0
O200 O 0.48684 0.27792 0.37316 0.0
Co201 Co 0.50143 0.28777 0.41366 0.0
O202 O 0.47761 0.29398 0.39976 0.0
C203 C 0.50445 0.24559 0.41022 0.0
C204 C 0.53192 0.251 0.35537 0.0
C205 C 0.47455 0.28746 0.38274 0.0
O206 O 0.50635 0.24662 0.39165 0.0
O207 O 0.50427 0.26029 0.42137 0.0
O208 O 0.52239 0.29319 0.36316 0.0
O209 O 0.52117 0.28636 0.39429 0.0
Co210 Co 0.49505 0.77168 0.15023 0.0
O211 O 0.46892 0.76481 0.15312 0.0
O212 O 0.49091 0.76162 0.17602 0.0
C213 C 0.48963 0.80041 0.13695 0.0
O214 O 0.52322 0.77774 0.15248 0.0
Co215 Co 0.51192 0.77872 0.10917 0.0
O216 O 0.53493 0.78701 0.12359 0.0
C217 C 0.50386 0.73925 0.12257 0.0
C218 C 0.47323 0.75993 0.17074 0.0
C219 C 0.53682 0.78402 0.14174 0.0
O220 O 0.50039 0.74545 0.13976 0.0
O221 O 0.50718 0.75032 0.10812 0.0
O222 O 0.48936 0.79837 0.15568 0.0
O223 O 0.49175 0.78492 0.12694 0.0
Co224 Co 0.87699 0.0236 0.76755 0.0
O225 O 0.89011 0.04785 0.76497 0.0
O226 O 0.86576 0.03814 0.74694 0.0
C227 C 0.87468 0.02569 0.80003 0.0
O228 O 0.85895 0.00086 0.76598 0.0
Co229 Co 0.89186 0.98921 0.79086 0.0
O230 O 0.8666 0.97722 0.78639 0.0
C231 C 0.90686 -0.00291 0.75152 0.0
C232 C 0.87749 0.05184 0.75183 0.0
C233 C 0.85555 0.98451 0.77382 0.0
O234 O 0.89484 0.01066 0.74917 0.0
O235 O 0.90878 0.98792 0.76751 0.0
O236 O 0.86259 0.03433 0.78893 0.0
O237 O 0.88812 0.01669 0.79133 0.0
Co238 Co 0.76854 0.12638 0.4977 0.0
O239 O 0.79298 0.1367 0.50483 0.0
O240 O 0.77982 0.11035 0.51707 0.0
C241 C 0.77336 0.1296 0.4657 0.0
O242 O 0.74452 0.11069 0.49402 0.0
Co243 Co 0.73821 0.14874 0.47515 0.0
O244 O 0.72338 0.12444 0.47432 0.0
C245 C 0.74483 0.15675 0.51684 0.0
C246 C 0.79438 0.1219 0.51616 0.0
C247 C 0.72864 0.1105 0.48488 0.0
O248 O 0.75603 0.14237 0.51798 0.0
O249 O 0.73748 0.16245 0.50086 0.0
O250 O 0.77966 0.11468 0.47484 0.0
O251 O 0.76488 0.14225 0.47616 0.0
Co252 Co 0.60612 0.98654 0.27403 0.0
O253 O 0.60254 0.95918 0.27575 0.0
O254 O 0.62605 0.97399 0.26035 0.0
C255 C 0.60113 0.99242 0.3056 0.0
O256 O 0.6155 0.01365 0.26963 0.0
Co257 Co 0.57514 0.01608 0.2837 0.0
O258 O 0.59549 0.03578 0.28073 0.0
C259 C 0.57465 0.99617 0.2457 0.0
C260 C 0.61833 0.95802 0.26618 0.0
C261 C 0.61116 0.03114 0.27304 0.0
O262 O 0.59038 0.98793 0.24978 0.0
O263 O 0.56569 0.00663 0.2578 0.0
O264 O 0.61757 0.98662 0.29975 0.0
O265 O 0.58794 0.99323 0.29255 0.0
Co266 Co 0.74572 0.86101 0.00209 0.0
O267 O 0.71976 0.85232 0.00103 0.0
O268 O 0.7309 0.87519 0.02046 0.0
C269 C 0.7493 0.86347 0.96977 0.0
O270 O 0.7709 0.87456 0.0069 0.0
Co271 Co 0.77852 0.83805 0.98359 0.0
O272 O 0.79423 0.86107 0.98977 0.0
C273 C 0.76322 0.82649 0.02182 0.0
C274 C 0.71638 0.86556 0.01379 0.0
C275 C 0.78818 0.87405 0.00113 0.0
O276 O 0.75227 0.84113 0.02209 0.0
O277 O 0.77348 0.82207 0.00722 0.0
O278 O 0.74137 0.87718 0.97944 0.0
O279 O 0.75351 0.84834 0.97959 0.0
Co280 Co 0.26582 0.6412 0.99093 0.0
O281 O 0.29267 0.64391 0.9949 0.0
O282 O 0.27387 0.6236 0.01069 0.0
C283 C 0.26723 0.64039 0.95844 0.0
O284 O 0.23809 0.63345 0.99046 0.0
Co285 Co 0.24195 0.67132 0.9691 0.0
O286 O 0.221 0.65219 0.97077 0.0
C287 C 0.25402 0.67863 0.00959 0.0
C288 C 0.29092 0.63001 0.00733 0.0
C289 C 0.22249 0.63775 0.98194 0.0
O290 O 0.26079 0.66163 0.01072 0.0
O291 O 0.24714 0.68563 0.99392 0.0
O292 O 0.2703 0.62498 0.96847 0.0
O293 O 0.26465 0.65594 0.96828 0.0
Co294 Co 0.11722 0.49515 0.77821 0.0
O295 O 0.1139 0.4677 0.77728 0.0
O296 O 0.13582 0.48434 0.76135 0.0
C297 C 0.11483 0.49685 0.81073 0.0
O298 O 0.1261 0.52266 0.77554 0.0
Co299 Co 0.08792 0.52341 0.79405 0.0
O300 O 0.10672 0.5441 0.78884 0.0
C301 C 0.08286 0.50672 0.75479 0.0
C302 C 0.12865 0.46776 0.76603 0.0
C303 C 0.12177 0.53998 0.77971 0.0
O304 O 0.09911 0.49863 0.75597 0.0
O305 O 0.07539 0.51587 0.7689 0.0
O306 O 0.13087 0.49262 0.80268 0.0
O307 O 0.10071 0.49942 0.79905 0.0
Co308 Co 0.23387 0.36301 0.49413 0.0
O309 O 0.20783 0.35475 0.49641 0.0
O310 O 0.2224 0.37551 0.51592 0.0
C311 C 0.23216 0.36825 0.46197 0.0
O312 O 0.25962 0.376 0.49648 0.0
Co313 Co 0.26368 0.34286 0.46871 0.0
O314 O 0.28098 0.3644 0.47571 0.0
C315 C 0.25368 0.3269 0.50724 0.0
C316 C 0.20677 0.3669 0.51069 0.0
C317 C 0.27625 0.37609 0.48901 0.0
O318 O 0.24285 0.34122 0.51076 0.0
O319 O 0.26202 0.3244 0.49096 0.0
O320 O 0.22631 0.38113 0.4741 0.0
O321 O 0.23804 0.35243 0.46948 0.0
Co322 Co 0.39874 0.51964 0.26869 0.0
O323 O 0.40422 0.54602 0.26207 0.0
O324 O 0.38149 0.52797 0.24893 0.0
C325 C 0.39986 0.5239 0.30106 0.0
O326 O 0.38756 0.49304 0.27177 0.0
Co327 Co 0.42535 0.49311 0.29216 0.0
O328 O 0.40431 0.47396 0.29137 0.0
C329 C 0.43101 0.4983 0.24978 0.0
C330 C 0.38963 0.54469 0.25049 0.0
C331 C 0.38999 0.47707 0.28057 0.0
O332 O 0.41682 0.50969 0.24863 0.0
O333 O 0.43704 0.49119 0.26576 0.0
O334 O 0.38472 0.52827 0.29132 0.0
O335 O 0.41417 0.51835 0.29094 0.0
O336 O 0.98956 0.05557 0.02121 0.0
Zn337 Zn 0.9973 0.03426 0.00409 0.0
O338 O 0.99171 0.00999 0.01715 0.0
Zn339 Zn 0.01513 0.99592 0.02062 0.0
Zn340 Zn 0.97925 0.01417 0.04235 0.0
Zn341 Zn 0.97518 0.99503 0.00062 0.0
O342 O 0.01609 0.97231 0.00399 0.0
O343 O 0.98762 0.97177 0.99027 0.0
O344 O 0.02531 0.03772 -0.00095 0.0
O345 O 0.03749 0.01189 0.01284 0.0
O346 O 0.01905 0.98905 0.04851 0.0
O347 O 0.99556 0.00353 0.06389 0.0
O348 O 0.95324 0.00109 0.04352 0.0
O349 O 0.98225 0.03776 0.97929 0.0
O350 O 0.9517 0.98753 0.01434 0.0
O351 O 0.96677 0.00998 0.97787 0.0
C352 C 0.98119 0.05731 0.03742 0.0
C353 C 0.00396 0.96466 0.99257 0.0
C354 C 0.0106 0.99357 0.06412 0.0
C355 C 0.03956 0.02778 0.00403 0.0
C356 C 0.94446 0.991 0.03082 0.0
C357 C 0.97044 0.02648 0.97101 0.0
O358 O 0.97608 0.04269 0.0473 0.0
O359 O 0.22981 0.72756 0.21324 0.0
Zn360 Zn 0.23108 0.72288 0.24206 0.0
O361 O 0.24196 0.7455 0.25501 0.0
Zn362 Zn 0.26259 0.73735 0.27156 0.0
Zn363 Zn 0.25138 0.76438 0.23617 0.0
Zn364 Zn 0.223 0.75734 0.27108 0.0
O365 O 0.26014 0.74686 0.29871 0.0
O366 O 0.23206 0.76083 0.29859 0.0
O367 O 0.24781 0.69987 0.24609 0.0
O368 O 0.26674 0.70908 0.27026 0.0
O369 O 0.28681 0.74856 0.26233 0.0
O370 O 0.27999 0.76748 0.2375 0.0
O371 O 0.23907 0.79017 0.2396 0.0
O372 O 0.20446 0.71684 0.25164 0.0
O373 O 0.21716 0.78371 0.26172 0.0
O374 O 0.19907 0.74203 0.27058 0.0
C375 C 0.23596 0.74103 0.20238 0.0
C376 C 0.2473 0.75625 0.30726 0.0
C377 C 0.29199 0.76002 0.24902 0.0
C378 C 0.26096 0.69636 0.25828 0.0
C379 C 0.22501 0.79525 0.24984 0.0
C380 C 0.19359 0.72644 0.26261 0.0
O381 O 0.24464 0.7556 0.20937 0.0
O382 O 0.51518 0.98833 0.543 0.0
Zn383 Zn 0.50958 0.01272 0.52937 0.0
O384 O 0.51497 0.03473 0.54584 0.0
Zn385 Zn 0.49123 0.04779 0.55147 0.0
Zn386 Zn 0.52778 0.02617 0.56948 0.0
Zn387 Zn 0.53169 0.05231 0.53232 0.0
O388 O 0.49045 0.07417 0.53933 0.0
O389 O 0.51909 0.07682 0.52636 0.0
O390 O 0.48235 0.01145 0.52158 0.0
O391 O 0.46886 0.0338 0.53961 0.0
O392 O 0.48756 0.04921 0.58041 0.0
O393 O 0.51286 0.03473 0.59277 0.0
O394 O 0.55476 0.03613 0.57098 0.0
O395 O 0.52543 0.01303 0.50545 0.0
O396 O 0.55537 0.05758 0.5472 0.0
O397 O 0.54012 0.04128 0.50693 0.0
C398 C 0.52356 0.9843 0.55881 0.0
C399 C 0.50278 0.08355 0.52967 0.0
C400 C 0.49721 0.04344 0.59494 0.0
C401 C 0.46769 0.02019 0.52731 0.0
C402 C 0.56326 0.04926 0.56145 0.0
C403 C 0.53678 0.02543 0.49837 0.0
O404 O 0.52955 -0.00269 0.57034 0.0
O405 O 0.25037 0.25329 0.78542 0.0
Zn406 Zn 0.26242 0.26749 0.76332 0.0
O407 O 0.25922 0.25333 0.7391 0.0
Zn408 Zn 0.28347 0.24357 0.72995 0.0
Zn409 Zn 0.24111 0.23225 0.7431 0.0
Zn410 Zn 0.24951 0.27075 0.71981 0.0
O411 O 0.28991 0.25309 0.70305 0.0
O412 O 0.26656 0.27332 0.69711 0.0
O413 O 0.28991 0.26998 0.76986 0.0
O414 O 0.30454 0.25158 0.74835 0.0
O415 O 0.28229 0.21487 0.7278 0.0
O416 O 0.25251 0.20712 0.73522 0.0
O417 O 0.21702 0.23638 0.72808 0.0
O418 O 0.25088 0.29386 0.76218 0.0
O419 O 0.22412 0.262 0.71035 0.0
O420 O 0.24512 0.29667 0.73067 0.0
C421 C 0.23929 0.23881 0.78638 0.0
C422 C 0.28185 0.26527 0.69215 0.0
C423 C 0.26907 0.20245 0.72981 0.0
C424 C 0.30493 0.26251 0.76323 0.0
C425 C 0.21262 0.24872 0.71528 0.0
C426 C 0.24527 0.30365 0.74771 0.0
O427 O 0.23415 0.22964 0.77123 0.0
O428 O 0.00869 0.00869 0.48324 0.0
Zn429 Zn 0.99274 0.99674 0.50444 0.0
O430 O 0.00788 0.99251 0.52802 0.0
Zn431 Zn 0.00894 0.96513 0.53474 0.0
Zn432 Zn 0.03316 0.00308 0.52432 0.0
Zn433 Zn 0.99683 0.00609 0.54934 0.0
O434 O 0.99553 0.95908 0.56016 0.0
O435 O 0.9865 0.98823 0.56895 0.0
O436 O 0.98403 0.97149 0.49339 0.0
O437 O 0.99675 0.94977 0.513 0.0
O438 O 0.03615 0.95652 0.53714 0.0
O439 O 0.05214 0.98275 0.5282 0.0
O440 O 0.03927 0.02506 0.54219 0.0
O441 O 0.97045 0.01417 0.50941 0.0
O442 O 0.01487 0.02431 0.56226 0.0
O443 O 0.97551 0.02193 0.54028 0.0
C444 C 0.02599 0.01407 0.48267 0.0
C445 C 0.987 0.97026 0.57177 0.0
C446 C 0.05164 0.9653 0.53345 0.0
C447 C 0.98728 0.9541 0.49782 0.0
C448 C 0.0308 0.03126 0.55714 0.0
C449 C 0.9662 0.02365 0.52458 0.0
O450 O 0.03673 0.01262 0.49742 0.0
O451 O 0.28065 0.7299 0.72893 0.0
Zn452 Zn 0.26077 0.73624 0.74796 0.0
O453 O 0.23619 0.73675 0.73509 0.0
Zn454 Zn 0.22451 0.76182 0.73923 0.0
Zn455 Zn 0.23887 0.7306 0.70732 0.0
Zn456 Zn 0.22033 0.71749 0.74674 0.0
O457 O 0.20071 0.76027 0.75597 0.0
O458 O 0.19926 0.72892 0.76108 0.0
O459 O 0.26795 0.76191 0.75939 0.0
O460 O 0.24302 0.77977 0.7524 0.0
O461 O 0.21909 0.77411 0.7134 0.0
O462 O 0.23037 0.75332 0.69191 0.0
O463 O 0.2232 0.70719 0.69904 0.0
O464 O 0.2624 0.71561 0.76804 0.0
O465 O 0.20879 0.70066 0.7269 0.0
O466 O 0.23443 0.70099 0.76538 0.0
C467 C 0.28125 0.72606 0.71091 0.0
C468 C 0.19276 0.74561 0.76359 0.0
C469 C 0.22277 0.76932 0.69596 0.0
C470 C 0.25956 0.77797 0.7596 0.0
C471 C 0.21122 0.69758 0.70894 0.0
C472 C 0.25095 0.70221 0.77272 0.0
O473 O 0.26634 0.72591 0.7004 0.0
O474 O 0.53674 0.01936 0.03381 0.0
Zn475 Zn 0.53371 0.01332 0.00542 0.0
O476 O 0.50768 0.0059 -0.00065 0.0
Zn477 Zn 0.50677 0.97895 0.99207 0.0
Zn478 Zn 0.49181 0.01019 0.02208 0.0
Zn479 Zn 0.49836 0.02112 0.97783 0.0
O480 O 0.49251 0.97486 0.96721 0.0
O481 O 0.48817 0.00441 0.95631 0.0
O482 O 0.5515 0.99174 2e-05 0.0
O483 O 0.53283 0.96754 0.99074 0.0
O484 O 0.49241 0.96402 0.01185 0.0
O485 O 0.48011 0.98566 0.03162 0.0
O486 O 0.47112 0.02874 0.01677 0.0
O487 O 0.54156 0.03662 0.9902 0.0
O488 O 0.47613 0.03707 0.98614 0.0
O489 O 0.5184 0.03946 0.96842 0.0
C490 C 0.52487 0.0219 0.0474 0.0
C491 C 0.48604 0.98633 0.95454 0.0
C492 C 0.48216 0.96835 0.0263 0.0
C493 C 0.54924 0.97439 0.99463 0.0
C494 C 0.46672 0.03842 0.00181 0.0
C495 C 0.53434 0.04482 0.97546 0.0
O496 O 0.50716 0.01978 0.04452 0.0
O497 O 0.21426 0.26735 0.23278 0.0
Zn498 Zn 0.23199 0.26585 0.25529 0.0
O499 O 0.2573 0.27366 0.24686 0.0
Zn500 Zn 0.27478 0.2522 0.25015 0.0
Zn501 Zn 0.25706 0.28245 0.21976 0.0
Zn502 Zn 0.26529 0.29486 0.26289 0.0
O503 O 0.29601 0.25921 0.26879 0.0
O504 O 0.28803 0.28837 0.27871 0.0
O505 O 0.23166 0.23874 0.26482 0.0
O506 O 0.26123 0.22899 0.26099 0.0
O507 O 0.28536 0.24396 0.2242 0.0
O508 O 0.27242 0.26466 0.20368 0.0
O509 O 0.26819 0.30929 0.21623 0.0
O510 O 0.22121 0.28295 0.27622 0.0
O511 O 0.2725 0.31725 0.24715 0.0
O512 O 0.24473 0.30407 0.27985 0.0
C513 C 0.21508 0.27419 0.21567 0.0
C514 C 0.299 0.27405 0.27925 0.0
C515 C 0.28286 0.25026 0.20702 0.0
C516 C 0.24417 0.2258 0.26612 0.0
C517 C 0.27317 0.32132 0.22924 0.0
C518 C 0.22814 0.29813 0.28381 0.0
O519 O 0.23039 0.28136 0.20892 0.0
O520 O 0.50821 0.5229 0.98019 0.0
Zn521 Zn 0.49364 0.50661 -0.00071 0.0
O522 O 0.50737 0.50513 0.02394 0.0
Zn523 Zn 0.51692 0.47934 0.0282 0.0
Zn524 Zn 0.52834 0.52357 0.02408 0.0
Zn525 Zn 0.4904 0.51139 0.04474 0.0
O526 O 0.50691 0.46732 0.05293 0.0
O527 O 0.4898 0.49113 0.06479 0.0
O528 O 0.49194 0.48049 0.98681 0.0
O529 O 0.5102 0.46245 0.00559 0.0
O530 O 0.54516 0.48012 0.03163 0.0
O531 O 0.55247 0.51116 0.0326 0.0
O532 O 0.52356 0.54568 0.04197 0.0
O533 O 0.46712 0.51693 0.00291 0.0
O534 O 0.49809 0.53574 0.05796 0.0
O535 O 0.46429 0.5157 0.03498 0.0
C536 C 0.52378 0.5323 0.98133 0.0
C537 C 0.49653 0.4744 0.0661 0.0
C538 C 0.55718 0.49368 0.03413 0.0
C539 C 0.49989 0.4646 0.99052 0.0
C540 C 0.51117 0.54808 0.05509 0.0
C541 C 0.45724 0.5187 0.01826 0.0
O542 O 0.53293 0.5336 -0.00274 0.0
O543 O 0.79752 0.23438 0.24155 0.0
Zn544 Zn 0.77745 0.24404 0.25891 0.0
O545 O 0.75266 0.23821 0.24815 0.0
Zn546 Zn 0.73921 0.26187 0.24282 0.0
Zn547 Zn 0.75515 0.22255 0.22455 0.0
Zn548 Zn 0.73873 0.22423 0.2675 0.0
O549 O 0.71268 0.26119 0.25395 0.0
O550 O 0.71487 0.23707 0.27479 0.0
O551 O 0.78091 0.27217 0.26317 0.0
O552 O 0.75383 0.28491 0.25324 0.0
O553 O 0.73676 0.26517 0.21413 0.0
O554 O 0.7468 0.23787 0.20126 0.0
O555 O 0.73968 0.19785 0.22612 0.0
O556 O 0.78226 0.23051 0.28411 0.0
O557 O 0.73071 0.19908 0.25692 0.0
O558 O 0.754 0.21828 0.29091 0.0
C559 C 0.79785 0.2222 0.2278 0.0
C560 C 0.70561 0.25074 0.26731 0.0
C561 C 0.74004 0.25464 0.19943 0.0
C562 C 0.77039 0.28665 0.26057 0.0
C563 C 0.73139 0.1904 0.24073 0.0
C564 C 0.77135 0.22096 0.29518 0.0
O565 O 0.78261 0.21544 0.22034 0.0
O566 O 0.02455 0.52423 0.5491 0.0
Zn567 Zn 0.02334 0.51809 0.52055 0.0
O568 O -0.00168 0.5081 0.51338 0.0
Zn569 Zn 0.00037 0.48202 0.50358 0.0
Zn570 Zn 0.9817 0.50833 0.536 0.0
Zn571 Zn 0.98751 0.5238 0.49311 0.0
O572 O 0.98639 0.47818 0.47836 0.0
O573 O 0.98035 0.50815 0.46983 0.0
O574 O 0.04331 0.49831 0.5154 0.0
O575 O 0.02757 0.4742 0.50135 0.0
O576 O 0.98872 0.46368 0.52223 0.0
O577 O 0.97479 0.48164 0.54446 0.0
O578 O 0.95776 0.52266 0.53088 0.0
O579 O 0.02966 0.5423 0.50574 0.0
O580 O 0.96286 0.53516 0.50173 0.0
O581 O 0.00523 0.54503 0.48546 0.0
C582 C 0.01204 0.52471 0.56236 0.0
C583 C 0.97965 0.49022 0.46641 0.0
C584 C 0.97893 0.4653 0.53758 0.0
C585 C 0.04299 0.48177 0.5075 0.0
C586 C 0.95247 0.53294 0.51665 0.0
C587 C 0.02119 0.55092 0.49197 0.0
O588 O 0.99491 0.51986 0.55895 0.0
O589 O 0.74709 0.74671 0.2954 0.0
Zn590 Zn 0.76211 0.76762 0.28228 0.0
O591 O 0.76477 0.76185 0.25495 0.0
Zn592 Zn 0.79046 0.75484 0.24884 0.0
Zn593 Zn 0.74787 0.74102 0.24713 0.0
Zn594 Zn 0.75851 0.7848 0.24107 0.0
O595 O 0.79915 0.76804 0.22436 0.0
O596 O 0.77708 0.79006 0.22003 0.0
O597 O 0.78795 0.76967 0.29481 0.0
O598 O 0.80776 0.76114 0.27135 0.0
O599 O 0.79164 0.72671 0.24294 0.0
O600 O 0.76201 0.71964 0.23426 0.0
O601 O 0.7266 0.75037 0.2302 0.0
O602 O 0.74861 0.79272 0.28602 0.0
O603 O 0.73304 0.78157 0.22839 0.0
O604 O 0.75599 0.80745 0.2585 0.0
C605 C 0.73748 0.73248 0.28889 0.0
C606 C 0.79227 0.78194 0.21477 0.0
C607 C 0.7794 0.71514 0.23572 0.0
C608 C 0.8047 0.76672 0.2887 0.0
C609 C 0.72233 0.7672 0.2247 0.0
C610 C 0.74916 0.80777 0.27556 0.0
O611 O 0.73636 0.72897 0.27077 0.0
O612 O 0.72827 0.23417 0.71491 0.0
Zn613 Zn 0.73412 0.23669 0.74339 0.0
O614 O 0.74338 0.26237 0.74882 0.0
Zn615 Zn 0.76578 0.26069 0.76508 0.0
Zn616 Zn 0.74933 0.27627 0.72517 0.0
Zn617 Zn 0.72408 0.27634 0.76188 0.0
O618 O 0.76451 0.27848 0.78797 0.0
O619 O 0.73488 0.28869 0.78574 0.0
O620 O 0.75405 0.2177 0.75052 0.0
O621 O 0.77179 0.23337 0.7722 0.0
O622 O 0.78836 0.26815 0.74973 0.0
O623 O 0.77758 0.27719 0.72091 0.0
O624 O 0.73834 0.30295 0.72531 0.0
O625 O 0.7104 0.2304 0.75854 0.0
O626 O 0.71466 0.29811 0.7459 0.0
O627 O 0.70248 0.25931 0.76917 0.0
C628 C 0.73036 0.24553 0.70058 0.0
C629 C 0.751 0.28876 0.79411 0.0
C630 C 0.79128 0.27363 0.7324 0.0
C631 C 0.76743 0.21805 0.76301 0.0
C632 C 0.72305 0.30841 0.73328 0.0
C633 C 0.6991 0.24143 0.76742 0.0
O634 O 0.73795 0.26208 0.70263 0.0
O635 O 0.72381 0.77936 0.7391 0.0
Zn636 Zn 0.74868 0.77475 0.75235 0.0
O637 O 0.7696 0.77727 0.73408 0.0
Zn638 Zn 0.78292 0.75293 0.73238 0.0
Zn639 Zn 0.76003 0.78531 0.70877 0.0
Zn640 Zn 0.78723 0.79675 0.74305 0.0
O641 O 0.80918 0.75467 0.74419 0.0
O642 O 0.81203 0.78573 0.75063 0.0
O643 O 0.74666 0.748 0.76287 0.0
O644 O 0.76872 0.73219 0.74675 0.0
O645 O 0.78484 0.74474 0.70449 0.0
O646 O 0.76913 0.76711 0.68823 0.0
O647 O 0.76834 0.81242 0.70203 0.0
O648 O 0.75117 0.79362 0.77429 0.0
O649 O 0.79155 0.81713 0.72341 0.0
O650 O 0.77713 0.81012 0.76649 0.0
C651 C 0.71912 0.78281 0.7216 0.0
C652 C 0.81878 0.76892 0.75062 0.0
C653 C 0.77866 0.75169 0.6886 0.0
C654 C 0.75501 0.73245 0.75871 0.0
C655 C 0.78207 0.82248 0.7087 0.0
C656 C 0.76298 0.80721 0.77752 0.0
O657 O 0.73155 0.78495 0.7084 0.0
O658 O 0.47311 0.53514 0.54393 0.0
Zn659 Zn 0.48133 0.51584 0.52467 0.0
O660 O 0.47994 0.49065 0.53657 0.0
Zn661 Zn 0.50466 0.47856 0.53555 0.0
Zn662 Zn 0.47061 0.49183 0.5633 0.0
Zn663 Zn 0.46251 0.47567 0.52132 0.0
O664 O 0.50541 0.45688 0.51617 0.0
O665 O 0.47627 0.45792 0.50399 0.0
O666 O 0.50801 0.52288 0.51706 0.0
O667 O 0.52425 0.49746 0.52643 0.0
O668 O 0.51313 0.47042 0.56206 0.0
O669 O 0.4907 0.48165 0.58145 0.0
O670 O 0.44632 0.47596 0.56655 0.0
O671 O 0.46401 0.51846 0.50157 0.0
O672 O 0.44498 0.46089 0.53808 0.0
O673 O 0.44677 0.4918 0.50371 0.0
C674 C 0.46751 0.53498 0.56146 0.0
C675 C 0.49301 0.45142 0.5038 0.0
C676 C 0.50655 0.47339 0.57899 0.0
C677 C 0.52365 0.5142 0.51916 0.0
C678 C 0.439 0.46334 0.55528 0.0
C679 C 0.45001 0.5081 0.49611 0.0
O680 O 0.46594 0.51944 0.57108 0.0
O681 O 0.0227 0.4638 0.04748 0.0
Zn682 Zn 0.01009 0.47775 0.02584 0.0
O683 O 0.00933 0.50493 0.03177 0.0
Zn684 Zn 0.98377 0.51277 0.03774 0.0
Zn685 Zn 0.02614 0.51096 0.05368 0.0
Zn686 Zn 0.01712 0.51826 0.00871 0.0
O687 O 0.97637 0.53642 0.02286 0.0
O688 O -0.00163 0.53751 -2e-05 0.0
O689 O 0.98357 0.46736 0.02208 0.0
O690 O 0.96536 0.49167 0.03084 0.0
O691 O 0.98165 0.51928 0.06589 0.0
O692 O 0.01157 0.5232 0.0755 0.0
O693 O 0.04816 0.52785 0.04526 0.0
O694 O 0.02479 0.47235 0.00142 0.0
O695 O 0.04121 0.53235 0.01411 0.0
O696 O 0.02284 0.50061 0.98688 0.0
C697 C 0.03301 0.46901 0.06181 0.0
C698 C 0.98329 0.54383 0.00754 0.0
C699 C 0.99383 0.52412 0.07875 0.0
C700 C 0.96725 0.47456 0.02468 0.0
C701 C 0.05203 0.53505 0.02871 0.0
C702 C 0.02717 0.48298 0.98663 0.0
O703 O 0.03621 0.48665 0.06551 0.0
H704 H 0.98996 0.23636 0.06672 0.0
H705 H 0.98429 0.20365 0.05481 0.0
H706 H 0.95786 0.18857 0.10912 0.0
H707 H 0.96332 0.22109 0.1211 0.0
H708 H 0.00105 0.17263 0.07647 0.0
H709 H 0.92315 0.16287 0.06725 0.0
H710 H 0.93461 0.18619 0.06683 0.0
H711 H 0.93096 0.17405 0.0895 0.0
C712 C 0.98246 0.22623 0.0759 0.0
C713 C 0.97728 0.23121 0.0949 0.0
C714 C 0.97926 0.20758 0.0691 0.0
C715 C 0.97059 0.19381 0.08109 0.0
C716 C 0.96433 0.19908 0.09958 0.0
H717 H 0.96618 0.06832 0.07255 0.0
H718 H 0.9623 0.10131 0.08445 0.0
C719 C 0.96762 0.21763 0.10643 0.0
C720 C 0.97057 0.17341 0.07546 0.0
H721 H 0.94195 0.13495 0.06489 0.0
C722 C 0.98814 0.16441 0.07385 0.0
C723 C 0.95366 0.16273 0.07249 0.0
C724 C 0.93448 0.17192 0.07396 0.0
C725 C 0.98929 0.14495 0.06915 0.0
C726 C 0.97243 0.13437 0.06566 0.0
C727 C 0.9548 0.14321 0.06764 0.0
C728 C 0.97315 0.11456 0.0583 0.0
C729 C 0.00854 0.13584 0.0679 0.0
C730 C 0.98013 0.11132 0.03963 0.0
C731 C 0.9824 0.09271 0.03287 0.0
C732 C 0.97766 0.0769 0.04464 0.0
C733 C 0.97004 0.08019 0.06318 0.0
C734 C 0.96777 0.09896 0.06997 0.0
H735 H 0.0196 0.14452 0.07551 0.0
H736 H 0.00824 0.1212 0.07424 0.0
H737 H 0.01266 0.13457 0.05241 0.0
H738 H 0.98418 0.12325 0.0304 0.0
H739 H 0.98814 0.09078 0.01844 0.0
H740 H 0.02737 0.72208 0.33292 0.0
H741 H 0.04884 0.70496 0.31117 0.0
H742 H 0.09686 0.72995 0.34132 0.0
H743 H 0.07568 0.74679 0.36309 0.0
H744 H 0.07379 0.72089 0.28643 0.0
H745 H 0.11331 0.67496 0.33666 0.0
H746 H 0.09084 0.68534 0.3431 0.0
H747 H 0.11266 0.69871 0.34652 0.0
C748 C 0.04252 0.72373 0.33501 0.0
C749 C 0.04986 0.73582 0.34967 0.0
C750 C 0.05474 0.71386 0.32266 0.0
C751 C 0.07444 0.71578 0.32494 0.0
C752 C 0.08172 0.72773 0.33968 0.0
H753 H 0.16363 0.74892 0.26982 0.0
H754 H 0.13193 0.73913 0.27935 0.0
C755 C 0.06957 0.73758 0.35197 0.0
C756 C 0.08766 0.70741 0.31072 0.0
H757 H 0.13207 0.68886 0.30951 0.0
C758 C 0.08622 0.71322 0.29128 0.0
C759 C 0.1036 0.69681 0.31676 0.0
C760 C 0.10504 0.68841 0.33687 0.0
C761 C 0.10153 0.71121 0.27858 0.0
C762 C 0.11867 0.70356 0.28569 0.0
C763 C 0.11906 0.69515 0.30418 0.0
C764 C 0.137 0.70868 0.27665 0.0
C765 C 0.09982 0.71881 0.25817 0.0
C766 C 0.15052 0.69478 0.27204 0.0
C767 C 0.16887 0.70042 0.2665 0.0
C768 C 0.17393 0.71997 0.26607 0.0
C769 C 0.16017 0.73374 0.27016 0.0
C770 C 0.14194 0.72816 0.27536 0.0
H771 H 0.08515 0.71673 0.25255 0.0
H772 H 0.10293 0.73445 0.25821 0.0
H773 H 0.10986 0.71168 0.24819 0.0
H774 H 0.14704 0.67966 0.27328 0.0
H775 H 0.17928 0.68954 0.26346 0.0
H776 H 0.52694 0.79939 0.58551 0.0
H777 H 0.54002 0.83035 0.57459 0.0
H778 H 0.5047 0.85951 0.61598 0.0
H779 H 0.49244 0.82888 0.62745 0.0
H780 H 0.5247 0.8596 0.5581 0.0
H781 H 0.55366 0.88546 0.62752 0.0
H782 H 0.54622 0.86083 0.62413 0.0
H783 H 0.52942 0.87878 0.63139 0.0
C784 C 0.52212 0.81246 0.5923 0.0
C785 C 0.50885 0.81182 0.60743 0.0
C786 C 0.52963 0.83008 0.58613 0.0
C787 C 0.52382 0.84722 0.59493 0.0
C788 C 0.51006 0.84648 0.60956 0.0
H789 H 0.50025 0.95441 0.55006 0.0
H790 H 0.50496 0.92065 0.55732 0.0
C791 C 0.50286 0.82897 0.61594 0.0
C792 C 0.53085 0.86611 0.58812 0.0
H793 H 0.54202 0.91058 0.60547 0.0
C794 C 0.52898 0.87065 0.56837 0.0
C795 C 0.53723 0.8804 0.6013 0.0
C796 C 0.54197 0.87599 0.6222 0.0
C797 C 0.53139 0.88954 0.56185 0.0
C798 C 0.53489 0.90432 0.57559 0.0
C799 C 0.53873 0.89942 0.59496 0.0
C800 C 0.53259 0.92485 0.5707 0.0
C801 C 0.52972 0.89343 0.54036 0.0
C802 C 0.54601 0.93868 0.5768 0.0
C803 C 0.54292 0.95815 0.57336 0.0
C804 C 0.52653 0.96401 0.5635 0.0
C805 C 0.51313 0.95021 0.55747 0.0
C806 C 0.51596 0.93087 0.56136 0.0
H807 H 0.53536 0.88125 0.53182 0.0
H808 H 0.51454 0.89488 0.5364 0.0
H809 H 0.53747 0.90671 0.53612 0.0
H810 H 0.55883 0.93442 0.58425 0.0
H811 H 0.5535 0.96857 0.57805 0.0
H812 H 0.43302 0.28162 0.89454 0.0
H813 H 0.40572 0.28246 0.87242 0.0
H814 H 0.43777 0.25275 0.82881 0.0
H815 H 0.46498 0.25168 0.85063 0.0
H816 H 0.4047 0.29845 0.83283 0.0
H817 H 0.38829 0.22033 0.83582 0.0
H818 H 0.40267 0.2324 0.85395 0.0
H819 H 0.41257 0.22649 0.83075 0.0
C820 C 0.43423 0.27518 0.88028 0.0
C821 C 0.45116 0.26647 0.87442 0.0
C822 C 0.41866 0.27575 0.86767 0.0
C823 C 0.41976 0.26748 0.84914 0.0
C824 C 0.43663 0.25896 0.84318 0.0
H825 H 0.33994 0.24801 0.75494 0.0
H826 H 0.36878 0.25098 0.77462 0.0
C827 C 0.45217 0.25843 0.85569 0.0
C828 C 0.40333 0.26775 0.83586 0.0
H829 H 0.37158 0.23849 0.81252 0.0
C830 C 0.39736 0.28539 0.82842 0.0
C831 C 0.39398 0.25063 0.83011 0.0
C832 C 0.39956 0.23137 0.83816 0.0
C833 C 0.38234 0.28633 0.81506 0.0
C834 C 0.37292 0.2692 0.80937 0.0
C835 C 0.37894 0.25157 0.81682 0.0
C836 C 0.35619 0.26918 0.7964 0.0
C837 C 0.37691 0.30558 0.80692 0.0
C838 C 0.33967 0.27856 0.80209 0.0
C839 C 0.32322 0.27694 0.79089 0.0
C840 C 0.32293 0.26573 0.77388 0.0
C841 C 0.33967 0.25674 0.76795 0.0
C842 C 0.35616 0.25841 0.77916 0.0
H843 H 0.38874 0.31617 0.80815 0.0
H844 H 0.37262 0.30438 0.79142 0.0
H845 H 0.36473 0.31121 0.81522 0.0
H846 H 0.33929 0.28659 0.81556 0.0
H847 H 0.31059 0.28403 0.79594 0.0
H848 H 0.03151 0.81378 0.4185 0.0
H849 H 0.02006 0.84472 0.42975 0.0
H850 H 0.98466 0.84921 0.3788 0.0
H851 H 0.99633 0.81807 0.36721 0.0
H852 H 0.0166 0.8842 0.40457 0.0
H853 H 0.95197 0.84865 0.43475 0.0
H854 H 0.97351 0.83518 0.43228 0.0
H855 H 0.96089 0.84256 0.41099 0.0
C856 C 0.02159 0.82152 0.40948 0.0
C857 C 0.01479 0.81361 0.39201 0.0
C858 C 0.01507 0.83916 0.41592 0.0
C859 C 0.0015 0.84908 0.40512 0.0
C860 C 0.99519 0.84167 0.38724 0.0
H861 H 0.97291 0.95841 0.46105 0.0
H862 H 0.9715 0.93409 0.43545 0.0
C863 C 0.00192 0.82401 0.38063 0.0
C864 C 0.99324 0.8664 0.41371 0.0
H865 H 0.96027 0.87919 0.44727 0.0
C866 C 0.00393 0.88344 0.41341 0.0
C867 C 0.97683 0.86509 0.42532 0.0
C868 C 0.96501 0.84694 0.42595 0.0
C869 C -0.00067 0.89887 0.42551 0.0
C870 C 0.98362 0.89709 0.43813 0.0
C871 C 0.97224 0.88048 0.4375 0.0
C872 C 0.98074 0.911 0.45399 0.0
C873 C 0.01212 0.91638 0.42584 0.0
C874 C 0.98551 0.90579 0.47305 0.0
C875 C 0.98637 0.91961 0.48772 0.0
C876 C 0.98242 0.93888 0.48356 0.0
C877 C 0.97616 0.94373 0.46475 0.0
C878 C 0.97539 0.92988 0.45006 0.0
H879 H 0.02473 0.9147 0.41641 0.0
H880 H 0.0041 0.92901 0.42072 0.0
H881 H 0.01701 0.9194 0.4409 0.0
H882 H 0.98965 0.89124 0.47633 0.0
H883 H 0.9911 0.91534 0.50204 0.0
H884 H 0.43361 0.76007 0.62283 0.0
H885 H 0.40255 0.75026 0.63494 0.0
H886 H 0.42799 0.73252 0.68898 0.0
H887 H 0.45926 0.74256 0.67704 0.0
H888 H 0.39004 0.71375 0.6482 0.0
H889 H 0.38634 0.77015 0.70528 0.0
H890 H 0.4034 0.7711 0.68584 0.0
H891 H 0.40699 0.75534 0.7061 0.0
C892 C 0.43263 0.75415 0.63733 0.0
C893 C 0.44883 0.75223 0.64908 0.0
C894 C 0.41489 0.74847 0.64416 0.0
C895 C 0.41303 0.74082 0.66286 0.0
C896 C 0.42918 0.73864 0.67458 0.0
H897 H 0.313 0.71431 0.72947 0.0
H898 H 0.34522 0.71434 0.7169 0.0
C899 C 0.44698 0.74437 0.66776 0.0
C900 C 0.39404 0.73555 0.67009 0.0
H901 H 0.36088 0.74815 0.70339 0.0
C902 C 0.38364 0.72117 0.66033 0.0
C903 C 0.38581 0.74537 0.68583 0.0
C904 C 0.3961 0.76146 0.69631 0.0
C905 C 0.36513 0.7163 0.66598 0.0
C906 C 0.35686 0.72628 0.68158 0.0
C907 C 0.36736 0.74048 0.69147 0.0
C908 C 0.33715 0.72274 0.68782 0.0
C909 C 0.35464 0.70049 0.65534 0.0
C910 C 0.32189 0.72688 0.67541 0.0
C911 C 0.30336 0.72679 0.68254 0.0
C912 C 0.29998 0.72284 0.70223 0.0
C913 C 0.31521 0.71764 0.71428 0.0
C914 C 0.33362 0.71758 0.70713 0.0
H915 H 0.36448 0.69103 0.64733 0.0
H916 H 0.34614 0.69161 0.66555 0.0
H917 H 0.34479 0.70692 0.64464 0.0
H918 H 0.3244 0.73121 0.66053 0.0
H919 H 0.29189 0.73092 0.67298 0.0
H920 H 0.50573 0.19692 0.90293 0.0
H921 H 0.51883 0.16692 0.9148 0.0
H922 H 0.53345 0.19424 0.96922 0.0
H923 H 0.51962 0.22421 0.95765 0.0
H924 H 0.55471 0.15911 0.92556 0.0
H925 H 0.50572 0.14717 0.9877 0.0
H926 H 0.50145 0.16515 0.96947 0.0
H927 H 0.51878 0.1694 0.98826 0.0
C928 C 0.51148 0.19646 0.91754 0.0
C929 C 0.51148 0.21281 0.92946 0.0
C930 C 0.51908 0.17937 0.92425 0.0
C931 C 0.52703 0.17833 0.94292 0.0
C932 C 0.52705 0.19462 0.95491 0.0
H933 H 0.5578 0.06937 0.9953 0.0
H934 H 0.56325 0.1032 0.98763 0.0
C935 C 0.51912 0.2117 0.94831 0.0
C936 C 0.53518 0.16003 0.94955 0.0
H937 H 0.5283 0.12361 0.9818 0.0
C938 C 0.54912 0.15144 0.93802 0.0
C939 C 0.52799 0.15014 0.96591 0.0
C940 C 0.51257 0.15832 0.97849 0.0
C941 C 0.55526 0.13277 0.94178 0.0
C942 C 0.54732 0.12258 0.95748 0.0
C943 C 0.53442 0.13162 0.96982 0.0
C944 C 0.54945 0.10169 0.95957 0.0
C945 C 0.5696 0.12377 0.92852 0.0
C946 C 0.5406 0.08958 0.94592 0.0
C947 C 0.53722 0.07035 0.95034 0.0
C948 C 0.54273 0.06297 0.96845 0.0
C949 C 0.5534 0.07465 0.98121 0.0
C950 C 0.55653 0.09398 0.97688 0.0
H951 H 0.57824 0.13483 0.92089 0.0
H952 H 0.57918 0.1142 0.93676 0.0
H953 H 0.56205 0.11501 0.91738 0.0
H954 H 0.5348 0.09535 0.93258 0.0
H955 H 0.52908 0.06164 0.94019 0.0
H956 H 0.06319 0.29112 0.10993 0.0
H957 H 0.09604 0.29073 0.12124 0.0
H958 H 0.07984 0.25436 0.1691 0.0
H959 H 0.04693 0.25467 0.15805 0.0
H960 H 0.09966 0.28996 0.17869 0.0
H961 H 0.13642 0.24714 0.12216 0.0
H962 H 0.1209 0.2658 0.11397 0.0
H963 H 0.11117 0.24523 0.12614 0.0
C964 C 0.06662 0.28275 0.12268 0.0
C965 C 0.05238 0.27298 0.13314 0.0
C966 C 0.08543 0.2825 0.12904 0.0
C967 C 0.09029 0.27241 0.14588 0.0
C968 C 0.07629 0.26215 0.156 0.0
H969 H 0.18164 0.25626 0.22397 0.0
H970 H 0.15227 0.25693 0.20536 0.0
C971 C 0.0575 0.26236 0.14966 0.0
C972 C 0.10957 0.27396 0.15406 0.0
H973 H 0.15535 0.26032 0.14736 0.0
C974 C 0.11186 0.28355 0.17183 0.0
C975 C 0.12541 0.26582 0.14483 0.0
C976 C 0.12348 0.2553 0.12577 0.0
C977 C 0.12959 0.28485 0.18091 0.0
C978 C 0.1453 0.27601 0.17214 0.0
C979 C 0.14319 0.26701 0.15401 0.0
C980 C 0.1636 0.27477 0.18241 0.0
C981 C 0.13133 0.29554 0.19993 0.0
C982 C 0.17984 0.28407 0.17525 0.0
C983 C 0.1968 0.28368 0.18584 0.0
C984 C 0.19766 0.27393 0.2037 0.0
C985 C 0.18144 0.26412 0.21041 0.0
C986 C 0.16462 0.26448 0.19982 0.0
H987 H 0.11961 0.30587 0.20184 0.0
H988 H 0.13068 0.28513 0.21209 0.0
H989 H 0.14505 0.30347 0.20091 0.0
H990 H 0.17927 0.29198 0.16173 0.0
H991 H 0.20907 0.29129 0.18025 0.0
H992 H 0.07409 0.03137 0.22446 0.0
H993 H 0.06009 0.02011 0.19412 0.0
H994 H 0.10877 0.98488 0.18363 0.0
H995 H 0.12308 0.99603 0.21425 0.0
H996 H 0.09473 0.00816 0.15087 0.0
H997 H 0.03854 0.96439 0.18606 0.0
H998 H 0.04087 0.98826 0.19569 0.0
H999 H 0.06005 0.97175 0.1985 0.0
C1000 C 0.08195 0.02129 0.21574 0.0
C1001 C 0.09967 0.01448 0.2219 0.0
C1002 C 0.07384 0.01479 0.19846 0.0
C1003 C 0.08323 0.00136 0.18697 0.0
C1004 C 0.10126 0.99509 0.19252 0.0
H1005 H 0.04133 0.97079 0.07048 0.0
H1006 H 0.05968 0.96805 0.10052 0.0
C1007 C 0.10942 0.00155 0.20994 0.0
C1008 C 0.07403 0.99429 0.16904 0.0
H1009 H 0.03313 0.97309 0.15279 0.0
C1010 C 0.08148 0.00011 0.15115 0.0
C1011 C 0.0568 0.98378 0.16963 0.0
C1012 C 0.04865 0.97651 0.1885 0.0
C1013 C 0.07141 0.99688 0.13383 0.0
C1014 C 0.05363 0.98726 0.13453 0.0
C1015 C 0.04673 0.98048 0.15234 0.0
C1016 C 0.04113 0.98606 0.1173 0.0
C1017 C 0.07927 0.0049 0.11512 0.0
C1018 C 0.02406 0.99615 0.11719 0.0
C1019 C 0.01342 -0.00239 0.10014 0.0
C1020 C 0.01976 0.98905 0.08289 0.0
C1021 C 0.03619 0.97779 0.08345 0.0
C1022 C 0.04675 0.97626 0.10056 0.0
H1023 H 0.09145 0.01485 0.11768 0.0
H1024 H 0.08422 0.99295 0.10587 0.0
H1025 H 0.06815 0.01268 0.10697 0.0
H1026 H 0.01944 0.00371 0.13005 0.0
H1027 H 0.0008 0.00629 0.10026 0.0
H1028 H 0.27657 0.83976 0.4696 0.0
H1029 H 0.27527 0.81947 0.44097 0.0
H1030 H 0.27271 0.86963 0.40439 0.0
H1031 H 0.27272 0.89012 0.4334 0.0
H1032 H 0.24782 0.84574 0.39289 0.0
H1033 H 0.313 0.80434 0.40251 0.0
H1034 H 0.29894 0.80184 0.42394 0.0
H1035 H 0.30813 0.82515 0.41713 0.0
C1036 C 0.27605 0.84652 0.45545 0.0
C1037 C 0.27481 0.86651 0.45366 0.0
C1038 C 0.27549 0.83487 0.43904 0.0
C1039 C 0.27439 0.84298 0.42045 0.0
C1040 C 0.27369 0.86304 0.41859 0.0
H1041 H 0.28183 0.76817 0.31986 0.0
H1042 H 0.28864 0.78951 0.34705 0.0
C1043 C 0.27375 0.87473 0.43511 0.0
C1044 C 0.27217 0.83034 0.40324 0.0
H1045 H 0.28824 0.78889 0.38327 0.0
C1046 C 0.25688 0.8335 0.39058 0.0
C1047 C 0.28416 0.81456 0.39993 0.0
C1048 C 0.30208 0.81145 0.4115 0.0
C1049 C 0.25286 0.82097 0.37514 0.0
C1050 C 0.2638 0.8042 0.37297 0.0
C1051 C 0.27949 0.80142 0.38522 0.0
C1052 C 0.25975 0.78981 0.35759 0.0
C1053 C 0.23721 0.82618 0.36116 0.0
C1054 C 0.2414 0.78215 0.35488 0.0
C1055 C 0.23735 0.77033 0.33896 0.0
C1056 C 0.25179 0.76533 0.32603 0.0
C1057 C 0.27044 0.77166 0.32971 0.0
C1058 C 0.27434 0.78395 0.34522 0.0
H1059 H 0.23488 0.84191 0.36093 0.0
H1060 H 0.24041 0.82142 0.34615 0.0
H1061 H 0.22377 0.81923 0.36587 0.0
H1062 H 0.23007 0.78578 0.36472 0.0
H1063 H 0.22289 0.76552 0.33646 0.0
H1064 H 0.38263 0.01642 0.73307 0.0
H1065 H 0.4018 0.02752 0.70566 0.0
H1066 H 0.45271 0.01176 0.73623 0.0
H1067 H 0.43382 0.00048 0.7636 0.0
H1068 H 0.43308 0.05568 0.70477 0.0
H1069 H 0.45426 0.9819 0.68392 0.0
H1070 H 0.43453 0.98649 0.6998 0.0
H1071 H 0.45838 0.98833 0.70889 0.0
C1072 C 0.3979 0.0153 0.73399 0.0
C1073 C 0.40665 0.00734 0.75048 0.0
C1074 C 0.40881 0.02174 0.71836 0.0
C1075 C 0.4286 0.02024 0.71891 0.0
C1076 C 0.43742 0.01278 0.73548 0.0
H1077 H 0.51376 0.03382 0.62956 0.0
H1078 H 0.49836 0.03131 0.66116 0.0
C1079 C 0.42656 0.00636 0.75111 0.0
C1080 C 0.44003 0.02584 0.70189 0.0
H1081 H 0.46806 0.00743 0.66645 0.0
C1082 C 0.44077 0.04519 0.69636 0.0
C1083 C 0.45004 0.01207 0.69108 0.0
C1084 C 0.44921 0.991 0.69606 0.0
C1085 C 0.45143 0.05116 0.68025 0.0
C1086 C 0.46126 0.03733 0.66928 0.0
C1087 C 0.46063 0.01803 0.67498 0.0
C1088 C 0.47144 0.04217 0.65117 0.0
C1089 C 0.45224 0.0722 0.67523 0.0
C1090 C 0.46153 0.04956 0.63521 0.0
C1091 C 0.47029 0.05109 0.61713 0.0
C1092 C 0.48907 0.04501 0.61464 0.0
C1093 C 0.49926 0.03854 0.63092 0.0
C1094 C 0.49049 0.0371 0.64901 0.0
H1095 H 0.44909 0.08128 0.68806 0.0
H1096 H 0.46637 0.07639 0.66948 0.0
H1097 H 0.44145 0.07522 0.66391 0.0
H1098 H 0.4467 0.05318 0.63645 0.0
H1099 H 0.46201 0.05611 0.60491 0.0
H1100 H 0.21901 0.1774 0.96258 0.0
H1101 H 0.20751 0.19149 0.93227 0.0
H1102 H 0.24624 0.15621 0.89999 0.0
H1103 H 0.25657 0.14115 0.93007 0.0
H1104 H 0.22448 0.21282 0.90944 0.0
H1105 H 0.20285 0.15101 0.86497 0.0
H1106 H 0.20759 0.1486 0.89061 0.0
H1107 H 0.22653 0.14682 0.87312 0.0
C1108 C 0.22471 0.1724 0.94893 0.0
C1109 C 0.23861 0.1582 0.94855 0.0
C1110 C 0.21814 0.18043 0.93163 0.0
C1111 C 0.2257 0.1747 0.91371 0.0
C1112 C 0.23955 0.16038 0.91344 0.0
H1113 H 0.2577 0.24378 0.82072 0.0
H1114 H 0.24987 0.22948 0.85188 0.0
C1115 C 0.24567 0.15193 0.93067 0.0
C1116 C 0.22096 0.18518 0.89561 0.0
H1117 H 0.21574 0.17866 0.84681 0.0
C1118 C 0.22206 0.20531 0.89584 0.0
C1119 C 0.21713 0.17563 0.87783 0.0
C1120 C 0.21323 0.15434 0.87673 0.0
C1121 C 0.22109 0.21596 0.87864 0.0
C1122 C 0.21998 0.20618 0.86065 0.0
C1123 C 0.21716 0.18621 0.86053 0.0
C1124 C 0.22369 0.21604 0.84195 0.0
C1125 C 0.22161 0.23755 0.88003 0.0
C1126 C 0.21198 0.21275 0.8257 0.0
C1127 C 0.21681 0.22044 0.80762 0.0
C1128 C 0.2333 0.23175 0.80558 0.0
C1129 C 0.24474 0.23539 0.82193 0.0
C1130 C 0.24015 0.22736 0.83983 0.0
H1131 H 0.21429 0.24246 0.89337 0.0
H1132 H 0.23656 0.24259 0.88107 0.0
H1133 H 0.21481 0.24436 0.86725 0.0
H1134 H 0.19929 0.20395 0.82692 0.0
H1135 H 0.20775 0.21742 0.79522 0.0
H1136 H 0.13782 0.00473 0.33919 0.0
H1137 H 0.12233 0.00908 0.37078 0.0
H1138 H 0.07518 0.03626 0.34237 0.0
H1139 H 0.09038 0.03196 0.31098 0.0
H1140 H 0.08906 0.05427 0.37896 0.0
H1141 H 0.07311 0.97593 0.38293 0.0
H1142 H 0.09737 0.9829 0.37863 0.0
H1143 H 0.07967 0.98764 0.36053 0.0
C1144 C 0.12428 0.01185 0.33976 0.0
C1145 C 0.11521 0.01783 0.32266 0.0
C1146 C 0.11547 0.01429 0.35774 0.0
C1147 C 0.0976 0.02285 0.35876 0.0
C1148 C 0.08898 0.02963 0.34181 0.0
H1149 H 0.01119 0.01004 0.44605 0.0
H1150 H 0.02794 0.01496 0.41536 0.0
C1151 C 0.09767 0.02708 0.3239 0.0
C1152 C 0.08706 0.02349 0.37716 0.0
H1153 H 0.06262 0.99506 0.4088 0.0
C1154 C 0.08335 0.04136 0.38561 0.0
C1155 C 0.07938 0.0066 0.38544 0.0
C1156 C 0.08241 0.98715 0.37642 0.0
C1157 C 0.07222 0.04275 0.40238 0.0
C1158 C 0.06473 0.02583 0.41077 0.0
C1159 C 0.06837 0.00799 0.40223 0.0
C1160 C 0.05358 0.02604 0.42883 0.0
C1161 C 0.06828 0.06225 0.41084 0.0
C1162 C 0.06237 0.03109 0.44641 0.0
C1163 C 0.0529 0.02824 0.46391 0.0
C1164 C 0.0345 0.02024 0.46411 0.0
C1165 C 0.02532 0.01625 0.44638 0.0
C1166 C 0.03487 0.01901 0.42886 0.0
H1167 H 0.07135 0.07392 0.40031 0.0
H1168 H 0.05327 0.06323 0.41549 0.0
H1169 H 0.0774 0.06456 0.42383 0.0
H1170 H 0.0769 0.03628 0.44666 0.0
H1171 H 0.06033 0.03155 0.47733 0.0
H1172 H 0.29421 0.84346 0.55734 0.0
H1173 H 0.2806 0.83225 0.58789 0.0
H1174 H 0.24344 0.88084 0.58896 0.0
H1175 H 0.25681 0.89221 0.55836 0.0
H1176 H 0.27512 0.85043 0.62578 0.0
H1177 H 0.2081 0.83213 0.58638 0.0
H1178 H 0.23001 0.83704 0.57381 0.0
H1179 H 0.21701 0.85633 0.58441 0.0
C1180 C 0.28341 0.85199 0.56422 0.0
C1181 C 0.27643 0.86858 0.55524 0.0
C1182 C 0.27566 0.84557 0.58168 0.0
C1183 C 0.26083 0.85558 0.59039 0.0
C1184 C 0.25471 0.87282 0.58223 0.0
H1185 H 0.21756 0.80798 0.69983 0.0
H1186 H 0.22299 0.83228 0.67478 0.0
C1187 C 0.26246 0.8793 0.56479 0.0
C1188 C 0.25085 0.84699 0.60706 0.0
H1189 H 0.2105 0.82224 0.61885 0.0
C1190 C 0.26086 0.84458 0.62448 0.0
C1191 C 0.2323 0.8393 0.60508 0.0
C1192 C 0.22117 0.84116 0.58642 0.0
C1193 C 0.25306 0.83396 0.63981 0.0
C1194 C 0.23475 0.82574 0.6376 0.0
C1195 C 0.22444 0.82879 0.62047 0.0
C1196 C 0.2274 0.81171 0.65177 0.0
C1197 C 0.2649 0.83062 0.65778 0.0
C1198 C 0.22701 0.79223 0.64674 0.0
C1199 C 0.22392 0.77834 0.66094 0.0
C1200 C 0.22112 0.78374 0.68038 0.0
C1201 C 0.21976 0.80334 0.685 0.0
C1202 C 0.22295 0.81725 0.67076 0.0
H1203 H 0.27966 0.83608 0.65616 0.0
H1204 H 0.25839 0.83803 0.67032 0.0
H1205 H 0.26535 0.81507 0.66121 0.0
H1206 H 0.23033 0.78774 0.63208 0.0
H1207 H 0.22486 0.76337 0.65687 0.0
H1208 H 0.35093 0.95738 0.83191 0.0
H1209 H 0.36617 0.94547 0.8616 0.0
H1210 H 0.38117 0.00358 0.87759 0.0
H1211 H 0.3664 0.01527 0.84792 0.0
H1212 H 0.40473 0.95284 0.86292 0.0
H1213 H 0.3724 0.9792 0.93047 0.0
H1214 H 0.35911 0.97666 0.90807 0.0
H1215 H 0.37335 -0.00215 0.91259 0.0
C1216 C 0.35661 0.96758 0.84235 0.0
C1217 C 0.3575 0.98719 0.8379 0.0
C1218 C 0.36534 0.96079 0.85923 0.0
C1219 C 0.37468 0.97365 0.87186 0.0
C1220 C 0.37369 0.99343 0.86832 0.0
H1221 H 0.47242 0.00523 0.92282 0.0
H1222 H 0.44498 0.99584 0.90308 0.0
C1223 C 0.36527 0.00014 0.85136 0.0
C1224 C 0.38916 0.96683 0.8857 0.0
H1225 H 0.40732 0.97793 0.9303 0.0
C1226 C 0.40503 0.9576 0.87792 0.0
C1227 C 0.38955 0.97306 0.90522 0.0
C1228 C 0.37257 0.98207 0.9146 0.0
C1229 C 0.42197 0.9564 0.88852 0.0
C1230 C 0.42289 0.9645 0.90725 0.0
C1231 C 0.40652 0.97191 0.91577 0.0
C1232 C 0.44118 0.96825 0.91692 0.0
C1233 C 0.43926 0.948 0.87914 0.0
C1234 C 0.44843 0.95543 0.93059 0.0
C1235 C 0.46427 0.96065 0.94176 0.0
C1236 C 0.47279 0.9789 0.93957 0.0
C1237 C 0.46615 0.99113 0.92491 0.0
C1238 C 0.45046 0.98582 0.91367 0.0
H1239 H 0.43567 0.94004 0.8656 0.0
H1240 H 0.44941 0.95974 0.87555 0.0
H1241 H 0.44646 0.93817 0.8894 0.0
H1242 H 0.44137 0.94181 0.9332 0.0
H1243 H 0.46898 0.95091 0.95298 0.0
H1244 H 0.27441 0.14311 0.05427 0.0
H1245 H 0.28817 0.15227 0.08575 0.0
H1246 H 0.26269 0.20792 0.08112 0.0
H1247 H 0.24882 0.19905 0.04982 0.0
H1248 H 0.30638 0.20375 0.09152 0.0
H1249 H 0.25386 0.16389 0.13699 0.0
H1250 H 0.26398 0.15289 0.11575 0.0
H1251 H 0.2475 0.17204 0.11297 0.0
C1252 C 0.27167 0.15729 0.05996 0.0
C1253 C 0.26044 0.17033 0.04951 0.0
C1254 C 0.27958 0.16246 0.0779 0.0
C1255 C 0.27644 0.18074 0.08559 0.0
C1256 C 0.26529 0.19376 0.07528 0.0
H1257 H 0.28515 0.26236 0.16956 0.0
H1258 H 0.29 0.24266 0.14098 0.0
C1259 C 0.25732 0.18861 0.05744 0.0
C1260 C 0.28437 0.18651 0.10457 0.0
H1261 H 0.27331 0.1867 0.15264 0.0
C1262 C 0.29949 0.19972 0.105 0.0
C1263 C 0.27551 0.18095 0.12203 0.0
C1264 C 0.25929 0.16666 0.12212 0.0
C1265 C 0.30517 0.20854 0.12242 0.0
C1266 C 0.29511 0.20434 0.13965 0.0
C1267 C 0.28101 0.18995 0.13942 0.0
C1268 C 0.29647 0.21683 0.15702 0.0
C1269 C 0.3214 0.2228 0.12204 0.0
C1270 C 0.29871 0.20897 0.17565 0.0
C1271 C 0.29573 0.22025 0.19216 0.0
C1272 C 0.29021 0.23947 0.19022 0.0
C1273 C 0.28928 0.24758 0.17157 0.0
C1274 C 0.29228 0.23635 0.15516 0.0
H1275 H 0.33201 0.21872 0.11095 0.0
H1276 H 0.31594 0.23711 0.118 0.0
H1277 H 0.32857 0.22393 0.1364 0.0
H1278 H 0.30179 0.1939 0.17739 0.0
H1279 H 0.29653 0.21358 0.20633 0.0
H1280 H 0.17481 0.14028 0.98785 0.0
H1281 H 0.14864 0.11722 0.98745 0.0
H1282 H 0.18665 0.07221 0.00435 0.0
H1283 H 0.21316 0.09528 0.00489 0.0
H1284 H 0.14621 0.08146 0.96484 0.0
H1285 H 0.1424 0.0712 0.04507 0.0
H1286 H 0.15429 0.09167 0.03441 0.0
H1287 H 0.16502 0.06852 0.03343 0.0
C1288 C 0.1777 0.12551 0.99156 0.0
C1289 C 0.19611 0.11967 0.99652 0.0
C1290 C 0.16271 0.11234 0.99124 0.0
C1291 C 0.16575 0.0931 0.99596 0.0
C1292 C 0.18405 0.08708 0.00082 0.0
H1293 H 0.07307 0.0104 0.01275 0.0
H1294 H 0.10507 0.02348 0.00886 0.0
C1295 C 0.19915 0.10028 0.00109 0.0
C1296 C 0.14949 0.07961 0.99589 0.0
H1297 H 0.11863 0.05654 0.0261 0.0
C1298 C 0.14028 0.07577 0.97819 0.0
C1299 C 0.14195 0.07215 0.01333 0.0
C1300 C 0.15129 0.07609 0.03271 0.0
C1301 C 0.12329 0.06517 0.97753 0.0
C1302 C 0.11517 0.05865 0.99508 0.0
C1303 C 0.12488 0.06167 0.01268 0.0
C1304 C 0.09596 0.04999 0.99574 0.0
C1305 C 0.11407 0.06125 0.95809 0.0
C1306 C 0.08025 0.06059 0.98962 0.0
C1307 C 0.06191 0.05319 0.99181 0.0
C1308 C 0.05897 0.0351 0.00033 0.0
C1309 C 0.0748 0.02438 0.00613 0.0
C1310 C 0.09312 0.03181 0.00392 0.0
H1311 H 0.12464 0.06163 0.94617 0.0
H1312 H 0.10672 0.04708 0.95794 0.0
H1313 H 0.10345 0.07248 0.9551 0.0
H1314 H 0.08213 0.07485 0.98367 0.0
H1315 H 0.05006 0.06184 0.98726 0.0
H1316 H 0.73294 0.4436 0.03014 0.0
H1317 H 0.70854 0.46443 0.04388 0.0
H1318 H 0.66694 0.41915 0.0365 0.0
H1319 H 0.691 0.39849 0.02267 0.0
H1320 H 0.67601 0.47378 0.0212 0.0
H1321 H 0.65512 0.44088 0.09092 0.0
H1322 H 0.67799 0.43701 0.07991 0.0
H1323 H 0.65756 0.42331 0.07205 0.0
C1324 C 0.71867 0.438 0.03188 0.0
C1325 C 0.71376 0.41952 0.02524 0.0
C1326 C 0.70481 0.44987 0.03975 0.0
C1327 C 0.68606 0.44319 0.04146 0.0
C1328 C 0.68143 0.42442 0.03569 0.0
H1329 H 0.57294 0.4582 0.03535 0.0
H1330 H 0.60597 0.45036 0.04132 0.0
C1331 C 0.69514 0.4127 0.0276 0.0
C1332 C 0.67057 0.45632 0.04636 0.0
H1333 H 0.63023 0.45755 0.07327 0.0
C1334 C 0.66624 0.47077 0.03297 0.0
C1335 C 0.658 0.45233 0.06176 0.0
C1336 C 0.6625 0.43765 0.07709 0.0
C1337 C 0.64864 0.47986 0.03329 0.0
C1338 C 0.63531 0.47453 0.04765 0.0
C1339 C 0.64043 0.46147 0.06219 0.0
C1340 C 0.61516 0.47975 0.04587 0.0
C1341 C 0.6438 0.49372 0.01724 0.0
C1342 C 0.60936 0.49888 0.04672 0.0
C1343 C 0.59044 0.50347 0.04309 0.0
C1344 C 0.57705 0.48894 0.03873 0.0
C1345 C 0.58287 0.46975 0.03857 0.0
C1346 C 0.60173 0.46522 0.04209 0.0
H1347 H 0.6549 0.49436 0.00586 0.0
H1348 H 0.63012 0.48958 0.01028 0.0
H1349 H 0.64226 0.50831 0.02342 0.0
H1350 H 0.61949 0.51026 0.04989 0.0
H1351 H 0.58637 0.51838 0.04353 0.0
H1352 H 0.87737 0.42999 0.30061 0.0
H1353 H 0.85891 0.40028 0.29676 0.0
H1354 H 0.81607 0.43091 0.26501 0.0
H1355 H 0.83445 0.46053 0.26841 0.0
H1356 H 0.82192 0.39213 0.30901 0.0
H1357 H 0.82796 0.38637 0.2288 0.0
H1358 H 0.84282 0.40229 0.24306 0.0
H1359 H 0.81892 0.40885 0.23717 0.0
C1360 C 0.86409 0.43039 0.29268 0.0
C1361 C 0.85751 0.44763 0.28466 0.0
C1362 C 0.85355 0.41342 0.29055 0.0
C1363 C 0.83629 0.41339 0.28035 0.0
C1364 C 0.82956 0.43057 0.27256 0.0
H1365 H 0.75571 0.32174 0.25123 0.0
H1366 H 0.77011 0.35334 0.25744 0.0
C1367 C 0.84009 0.4475 0.2746 0.0
C1368 C 0.82516 0.39543 0.2781 0.0
H1369 H 0.80714 0.36436 0.24422 0.0
C1370 C 0.8187 0.38602 0.29486 0.0
C1371 C 0.82092 0.38759 0.25959 0.0
C1372 C 0.82814 0.39668 0.24112 0.0
C1373 C 0.80805 0.36895 0.2936 0.0
C1374 C 0.80398 0.36105 0.27512 0.0
C1375 C 0.8102 0.37058 0.25836 0.0
C1376 C 0.79441 0.34223 0.27283 0.0
C1377 C 0.80115 0.35955 0.31202 0.0
C1378 C 0.80333 0.32563 0.27946 0.0
C1379 C 0.79524 0.30764 0.27589 0.0
C1380 C 0.77805 0.30588 0.26555 0.0
C1381 C 0.76891 0.3226 0.25929 0.0
C1382 C 0.77711 0.34064 0.26279 0.0
H1383 H 0.80099 0.36982 0.32437 0.0
H1384 H 0.78667 0.35341 0.31004 0.0
H1385 H 0.81079 0.34769 0.31591 0.0
H1386 H 0.81685 0.32657 0.28694 0.0
H1387 H 0.80266 0.29508 0.28095 0.0
H1388 H 0.77279 0.57221 0.50885 0.0
H1389 H 0.80358 0.55814 0.51692 0.0
H1390 H 0.83208 0.60848 0.49467 0.0
H1391 H 0.80159 0.62258 0.48655 0.0
H1392 H 0.83432 0.55156 0.48962 0.0
H1393 H 0.85496 0.60032 0.55007 0.0
H1394 H 0.83071 0.59725 0.54197 0.0
H1395 H 0.8468 0.61234 0.52858 0.0
C1396 C 0.78563 0.58028 0.50575 0.0
C1397 C 0.78481 0.59848 0.49707 0.0
C1398 C 0.80315 0.57224 0.51038 0.0
C1399 C 0.82 0.58243 0.50663 0.0
C1400 C 0.81919 0.60057 0.49797 0.0
H1401 H 0.93467 0.55185 0.48714 0.0
H1402 H 0.90198 0.56288 0.48628 0.0
C1403 C 0.80176 0.60853 0.49322 0.0
C1404 C 0.8386 0.57391 0.51084 0.0
H1405 H 0.87969 0.58171 0.5361 0.0
C1406 C 0.84417 0.55796 0.49996 0.0
C1407 C 0.85129 0.58223 0.52447 0.0
C1408 C 0.84563 0.59888 0.5371 0.0
C1409 C 0.86251 0.55064 0.50171 0.0
C1410 C 0.87554 0.55965 0.51454 0.0
C1411 C 0.86968 0.57501 0.52611 0.0
C1412 C 0.89553 0.55375 0.51555 0.0
C1413 C 0.86791 0.53349 0.48963 0.0
C1414 C 0.90282 0.54558 0.53255 0.0
C1415 C 0.92154 0.53927 0.53313 0.0
C1416 C 0.93327 0.54122 0.51675 0.0
C1417 C 0.92604 0.55009 0.49999 0.0
C1418 C 0.90733 0.55628 0.49941 0.0
H1419 H 0.85523 0.52546 0.48429 0.0
H1420 H 0.87611 0.53843 0.47683 0.0
H1421 H 0.87695 0.52359 0.49811 0.0
H1422 H 0.89391 0.54368 0.54519 0.0
H1423 H 0.92668 0.53257 0.54629 0.0
H1424 H 0.17816 0.0521 0.27181 0.0
H1425 H 0.20198 0.07779 0.27407 0.0
H1426 H 0.15955 0.11635 0.29547 0.0
H1427 H 0.13573 0.09085 0.29353 0.0
H1428 H 0.20124 0.11182 0.25441 0.0
H1429 H 0.20299 0.12579 0.33339 0.0
H1430 H 0.19282 0.10412 0.32312 0.0
H1431 H 0.17922 0.12579 0.32405 0.0
C1432 C 0.17391 0.066 0.27717 0.0
C1433 C 0.15499 0.06941 0.28245 0.0
C1434 C 0.18757 0.08063 0.2785 0.0
C1435 C 0.1826 0.09884 0.28529 0.0
C1436 C 0.1638 0.10225 0.29069 0.0
H1437 H 0.20996 0.21463 0.28086 0.0
H1438 H 0.19896 0.18204 0.2875 0.0
C1439 C 0.15014 0.08768 0.28937 0.0
C1440 C 0.1965 0.11488 0.28511 0.0
H1441 H 0.21333 0.15202 0.31276 0.0
C1442 C 0.2043 0.12038 0.26723 0.0
C1443 C 0.20054 0.1259 0.30191 0.0
C1444 C 0.1936 0.11997 0.32173 0.0
C1445 C 0.21482 0.13746 0.26541 0.0
C1446 C 0.21774 0.14914 0.28198 0.0
C1447 C 0.21096 0.14304 0.30009 0.0
C1448 C 0.22557 0.16879 0.28025 0.0
C1449 C 0.22164 0.14351 0.24557 0.0
C1450 C 0.24436 0.17211 0.27451 0.0
C1451 C 0.25073 0.19078 0.27065 0.0
C1452 C 0.23835 0.20636 0.27245 0.0
C1453 C 0.21982 0.20297 0.27916 0.0
C1454 C 0.21352 0.18436 0.28304 0.0
H1455 H 0.21606 0.134 0.23386 0.0
H1456 H 0.21731 0.15845 0.24243 0.0
H1457 H 0.23735 0.14309 0.24522 0.0
H1458 H 0.25391 0.16023 0.2725 0.0
H1459 H 0.26512 0.1929 0.26561 0.0
H1460 H 0.30257 0.94342 0.49872 0.0
H1461 H 0.32485 0.97048 0.49894 0.0
H1462 H 0.36927 0.93342 0.47914 0.0
H1463 H 0.34717 0.90626 0.4788 0.0
H1464 H 0.35668 0.96946 0.52307 0.0
H1465 H 0.37768 0.98243 0.44688 0.0
H1466 H 0.356 0.96996 0.45336 0.0
H1467 H 0.37819 0.9575 0.45329 0.0
C1468 C 0.31698 0.94106 0.49402 0.0
C1469 C 0.32316 0.9226 0.48896 0.0
C1470 C 0.32965 0.95658 0.4941 0.0
C1471 C 0.3486 0.95396 0.48886 0.0
C1472 C 0.35458 0.9358 0.48286 0.0
H1473 H 0.45956 0.98861 0.50536 0.0
H1474 H 0.42855 0.97705 0.4947 0.0
C1475 C 0.34197 0.92024 0.48287 0.0
C1476 C 0.36282 0.96925 0.49248 0.0
H1477 H 0.40028 0.9924 0.47156 0.0
C1478 C 0.36596 0.97493 0.51179 0.0
C1479 C 0.37477 0.9763 0.47768 0.0
C1480 C 0.37139 0.97139 0.4566 0.0
C1481 C 0.38178 0.98616 0.51695 0.0
C1482 C 0.39448 0.9922 0.50227 0.0
C1483 C 0.39054 0.98768 0.48278 0.0
C1484 C 0.41317 0.00071 0.50715 0.0
C1485 C 0.38552 0.99018 0.53819 0.0
C1486 C 0.41482 0.01807 0.51738 0.0
C1487 C 0.43258 0.02462 0.52377 0.0
C1488 C 0.44895 0.01402 0.51978 0.0
C1489 C 0.44726 -0.00291 0.50877 0.0
C1490 C 0.42954 0.9905 0.50257 0.0
H1491 H 0.37602 0.98168 0.54781 0.0
H1492 H 0.40043 0.98692 0.54204 0.0
H1493 H 0.38314 0.00559 0.54119 0.0
H1494 H 0.40236 0.02633 0.52074 0.0
H1495 H 0.43346 0.03785 0.532 0.0
H1496 H 0.81882 0.5344 0.24423 0.0
H1497 H 0.80348 0.56225 0.22937 0.0
H1498 H 0.84827 0.59902 0.25129 0.0
H1499 H 0.86353 0.5715 0.26623 0.0
H1500 H 0.79223 0.59557 0.25203 0.0
H1501 H 0.84205 0.61456 0.19302 0.0
H1502 H 0.84057 0.5908 0.20345 0.0
H1503 H 0.85359 0.60956 0.21574 0.0
C1504 C 0.82546 0.54841 0.24569 0.0
C1505 C 0.84231 0.55084 0.25645 0.0
C1506 C 0.81673 0.56423 0.23716 0.0
C1507 C 0.82495 0.58255 0.23899 0.0
C1508 C 0.84193 0.5849 0.24941 0.0
H1509 H 0.81433 0.69939 0.24026 0.0
H1510 H 0.82283 0.66593 0.23606 0.0
C1511 C 0.85052 0.5692 0.25809 0.0
C1512 C 0.81509 0.59969 0.23187 0.0
H1513 H 0.82269 0.64017 0.20521 0.0
C1514 C 0.7985 0.60516 0.24139 0.0
C1515 C 0.82341 0.61202 0.21799 0.0
C1516 C 0.8408 0.60638 0.20681 0.0
C1517 C 0.79094 0.62346 0.23871 0.0
C1518 C 0.80004 0.63635 0.22578 0.0
C1519 C 0.81579 0.63027 0.21514 0.0
C1520 C 0.79523 0.65691 0.22541 0.0
C1521 C 0.77426 0.62936 0.25092 0.0
C1522 C 0.77706 0.66304 0.22016 0.0
C1523 C 0.77206 0.68221 0.22275 0.0
C1524 C 0.78523 0.69552 0.23045 0.0
C1525 C 0.80378 0.68951 0.23445 0.0
C1526 C 0.8087 0.67039 0.23198 0.0
H1527 H 0.77091 0.61872 0.26243 0.0
H1528 H 0.77707 0.64347 0.25792 0.0
H1529 H 0.76156 0.63076 0.24149 0.0
H1530 H 0.76659 0.6529 0.21468 0.0
H1531 H 0.75771 0.68642 0.2193 0.0
H1532 H 0.63617 0.45699 0.77189 0.0
H1533 H 0.65025 0.42705 0.76074 0.0
H1534 H 0.69986 0.45824 0.74156 0.0
H1535 H 0.68604 0.4882 0.75292 0.0
H1536 H 0.66218 0.4176 0.72272 0.0
H1537 H 0.72168 0.41578 0.77601 0.0
H1538 H 0.70155 0.4312 0.77901 0.0
H1539 H 0.71983 0.4374 0.762 0.0
C1540 C 0.65014 0.45746 0.76544 0.0
C1541 C 0.66006 0.47491 0.7634 0.0
C1542 C 0.65811 0.44037 0.75901 0.0
C1543 C 0.67615 0.44045 0.7505 0.0
C1544 C 0.68606 0.45786 0.74837 0.0
H1545 H 0.74215 0.33958 0.71857 0.0
H1546 H 0.73128 0.37287 0.71833 0.0
C1547 C 0.67812 0.47495 0.75483 0.0
C1548 C 0.68443 0.42226 0.74378 0.0
H1549 H 0.72 0.39083 0.75303 0.0
C1550 C 0.6749 0.41179 0.72923 0.0
C1551 C 0.70112 0.41485 0.75221 0.0
C1552 C 0.71161 0.42527 0.76828 0.0
C1553 C 0.68137 0.39381 0.7232 0.0
C1554 C 0.69763 0.38609 0.73214 0.0
C1555 C 0.70759 0.39689 0.74613 0.0
C1556 C 0.70325 0.36598 0.72905 0.0
C1557 C 0.6706 0.38312 0.70753 0.0
C1558 C 0.69095 0.35115 0.73483 0.0
C1559 C 0.69711 0.33225 0.73509 0.0
C1560 C 0.71571 0.32781 0.7296 0.0
C1561 C 0.72771 0.34256 0.72278 0.0
C1562 C 0.72155 0.36155 0.72269 0.0
H1563 H 0.66257 0.39308 0.69808 0.0
H1564 H 0.68029 0.37458 0.69836 0.0
H1565 H 0.66025 0.37315 0.71439 0.0
H1566 H 0.6769 0.35429 0.74014 0.0
H1567 H 0.68752 0.32121 0.74037 0.0
H1568 H 0.03 0.81278 0.88474 0.0
H1569 H 0.03601 0.84616 0.89473 0.0
H1570 H 0.00369 0.83645 0.94691 0.0
H1571 H -0.00217 0.80332 0.93725 0.0
H1572 H 0.0106 0.87588 0.90404 0.0
H1573 H 0.05511 0.85678 0.96707 0.0
H1574 H 0.04991 0.84016 0.94755 0.0
H1575 H 0.03327 0.84335 0.96702 0.0
C1576 C 0.02408 0.81787 0.89826 0.0
C1577 C 0.01362 0.80547 0.91035 0.0
C1578 C 0.02759 0.83684 0.90395 0.0
C1579 C 0.02073 0.84348 0.92178 0.0
C1580 C 0.00956 0.83136 0.93336 0.0
H1581 H 0.98021 0.94088 0.9724 0.0
H1582 H 0.98864 0.9137 0.95218 0.0
C1583 C 0.0061 0.81249 0.92775 0.0
C1584 C 0.02475 0.86315 0.92854 0.0
H1585 H 0.03857 0.88708 0.96941 0.0
C1586 C 0.01715 0.87849 0.9181 0.0
C1587 C 0.03385 0.86656 0.94656 0.0
C1588 C 0.04369 0.85084 0.95758 0.0
C1589 C 0.01668 0.8969 0.92622 0.0
C1590 C 0.02355 0.89973 0.94537 0.0
C1591 C 0.03294 0.88481 0.95489 0.0
C1592 C 0.0189 0.91698 0.95674 0.0
C1593 C 0.00816 0.91293 0.91452 0.0
C1594 C 0.03307 0.92733 0.96673 0.0
C1595 C 0.02824 0.94267 0.97872 0.0
C1596 C 0.00917 0.94786 0.98084 0.0
C1597 C 0.99504 0.93735 0.97093 0.0
C1598 C -0.00014 0.92196 0.95914 0.0
H1599 H 0.01071 0.9108 0.89875 0.0
H1600 H 0.99259 0.91296 0.91672 0.0
H1601 H 0.01406 0.92713 0.91891 0.0
H1602 H 0.04783 0.92349 0.9653 0.0
H1603 H 0.03944 0.95057 0.98612 0.0
H1604 H 0.92995 0.22687 0.62995 0.0
H1605 H 0.90024 0.2292 0.64779 0.0
H1606 H 0.93132 0.23383 0.70165 0.0
H1607 H 0.96119 0.23142 0.68396 0.0
H1608 H 0.88678 0.21169 0.69417 0.0
H1609 H 0.90234 0.28856 0.67727 0.0
H1610 H 0.9082 0.27019 0.65992 0.0
H1611 H 0.92117 0.27196 0.68228 0.0
C1612 C 0.93046 0.22755 0.64566 0.0
C1613 C 0.94784 0.22938 0.65556 0.0
C1614 C 0.91348 0.22885 0.65581 0.0
C1615 C 0.91376 0.23194 0.6759 0.0
C1616 C 0.93096 0.23143 0.6861 0.0
H1617 H 0.82345 0.2658 0.75287 0.0
H1618 H 0.85396 0.25647 0.73959 0.0
C1619 C 0.94799 0.23002 0.67597 0.0
C1620 C 0.89681 0.23955 0.68532 0.0
H1621 H 0.87348 0.28149 0.69269 0.0
C1622 C 0.88386 0.22692 0.69401 0.0
C1623 C 0.89319 0.25944 0.68488 0.0
C1624 C 0.9069 0.27345 0.67564 0.0
C1625 C 0.86706 0.23377 0.70217 0.0
C1626 C 0.86342 0.25367 0.70166 0.0
C1627 C 0.87644 0.26627 0.69303 0.0
C1628 C 0.84592 0.26159 0.70974 0.0
C1629 C 0.85313 0.21969 0.71091 0.0
C1630 C 0.83178 0.26848 0.69731 0.0
C1631 C 0.81427 0.27386 0.70481 0.0
C1632 C 0.81077 0.27245 0.72484 0.0
C1633 C 0.82559 0.26691 0.73734 0.0
C1634 C 0.843 0.26146 0.72982 0.0
H1635 H 0.85622 0.2047 0.70661 0.0
H1636 H 0.85391 0.22069 0.72699 0.0
H1637 H 0.83842 0.22307 0.70641 0.0
H1638 H 0.83398 0.26882 0.68175 0.0
H1639 H 0.80319 0.27808 0.69481 0.0
H1640 H 0.51239 0.23645 0.44751 0.0
H1641 H 0.5052 0.20667 0.46434 0.0
H1642 H 0.48215 0.18246 0.41146 0.0
H1643 H 0.48971 0.21244 0.39421 0.0
H1644 H 0.46943 0.18949 0.46904 0.0
H1645 H 0.51988 0.14199 0.43024 0.0
H1646 H 0.52149 0.16776 0.42848 0.0
H1647 H 0.50291 0.15495 0.41597 0.0
C1648 C 0.5059 0.22478 0.43936 0.0
C1649 C 0.5016 0.22677 0.41954 0.0
C1650 C 0.50172 0.2078 0.44904 0.0
C1651 C 0.49307 0.19244 0.43918 0.0
C1652 C 0.48897 0.19415 0.41928 0.0
H1653 H 0.46772 0.09418 0.51675 0.0
H1654 H 0.46104 0.11997 0.49356 0.0
C1655 C 0.49334 0.21121 0.40945 0.0
C1656 C 0.48875 0.17479 0.45019 0.0
H1657 H 0.50563 0.12996 0.45837 0.0
C1658 C 0.47699 0.17627 0.46653 0.0
C1659 C 0.49862 0.15764 0.44674 0.0
C1660 C 0.51152 0.15537 0.42948 0.0
C1661 C 0.47605 0.16159 0.4804 0.0
C1662 C 0.48694 0.145 0.47759 0.0
C1663 C 0.49743 0.14286 0.46046 0.0
C1664 C 0.48986 0.1309 0.49323 0.0
C1665 C 0.46459 0.16449 0.49859 0.0
C1666 C 0.50811 0.12894 0.50104 0.0
C1667 C 0.51196 0.1143 0.5141 0.0
C1668 C 0.49759 0.10138 0.51968 0.0
C1669 C 0.479 0.1041 0.51286 0.0
C1670 C 0.47518 0.11873 0.49956 0.0
H1671 H 0.45865 0.17915 0.49948 0.0
H1672 H 0.45266 0.15399 0.49884 0.0
H1673 H 0.47349 0.16196 0.51166 0.0
H1674 H 0.51958 0.13834 0.49644 0.0
H1675 H 0.5264 0.11256 0.51918 0.0
H1676 H 0.57066 0.78448 0.12281 0.0
H1677 H 0.60225 0.78356 0.13715 0.0
H1678 H 0.57809 0.78798 0.19441 0.0
H1679 H 0.54624 0.78805 0.18018 0.0
H1680 H 0.62302 0.80671 0.15887 0.0
H1681 H 0.60805 0.73996 0.20002 0.0
H1682 H 0.59179 0.74932 0.18225 0.0
H1683 H 0.59262 0.75918 0.20643 0.0
C1684 C 0.57203 0.78543 0.13846 0.0
C1685 C 0.55593 0.7861 0.15039 0.0
C1686 C 0.59013 0.78489 0.14663 0.0
C1687 C 0.59251 0.78521 0.16687 0.0
C1688 C 0.57654 0.78708 0.17879 0.0
H1689 H 0.70258 0.80045 0.22268 0.0
H1690 H 0.67131 0.80525 0.20838 0.0
C1691 C 0.55837 0.78728 0.17063 0.0
C1692 C 0.61169 0.78299 0.17533 0.0
H1693 H 0.63764 0.75523 0.20605 0.0
C1694 C 0.62624 0.79543 0.16917 0.0
C1695 C 0.61594 0.76802 0.18845 0.0
C1696 C 0.60133 0.75323 0.19452 0.0
C1697 C 0.64493 0.79336 0.1758 0.0
C1698 C 0.64902 0.77887 0.1895 0.0
C1699 C 0.63447 0.76642 0.19564 0.0
C1700 C 0.66828 0.77618 0.19763 0.0
C1701 C 0.66014 0.80637 0.16756 0.0
C1702 C 0.67678 0.75808 0.19685 0.0
C1703 C 0.69447 0.75517 0.20544 0.0
C1704 C 0.70406 0.77037 0.21477 0.0
C1705 C 0.69565 0.78853 0.21532 0.0
C1706 C 0.67781 0.79134 0.20705 0.0
H1707 H 0.65597 0.8121 0.15313 0.0
H1708 H 0.66237 0.81876 0.17746 0.0
H1709 H 0.67378 0.79876 0.16601 0.0
H1710 H 0.66964 0.74615 0.18971 0.0
H1711 H 0.70062 0.74102 0.2048 0.0
H1712 H 0.02991 0.21192 0.57209 0.0
H1713 H 0.03868 0.17864 0.56556 0.0
H1714 H 0.00576 0.15988 0.61475 0.0
H1715 H 0.99675 0.19281 0.62133 0.0
H1716 H 0.05714 0.15133 0.59222 0.0
H1717 H 0.9853 0.12835 0.56765 0.0
H1718 H 0.99264 0.15322 0.56874 0.0
H1719 H 0.9857 0.14082 0.59049 0.0
C1720 C 0.02442 0.2007 0.58144 0.0
C1721 C 0.01252 0.20504 0.59716 0.0
C1722 C 0.02956 0.18175 0.57775 0.0
C1723 C 0.02276 0.16693 0.58964 0.0
C1724 C 0.01098 0.17118 0.60534 0.0
H1725 H 0.02036 0.04527 0.5924 0.0
H1726 H 0.02295 0.07868 0.6027 0.0
C1727 C 0.00586 0.19003 0.60904 0.0
C1728 C 0.02755 0.14683 0.5856 0.0
H1729 H 0.00727 0.10372 0.57423 0.0
C1730 C 0.04633 0.14088 0.58814 0.0
C1731 C 0.01336 0.13339 0.58022 0.0
C1732 C 0.99314 0.13924 0.57642 0.0
C1733 C 0.05116 0.1215 0.58606 0.0
C1734 C 0.03682 0.10802 0.58125 0.0
C1735 C 0.01816 0.11412 0.57827 0.0
C1736 C 0.04054 0.08745 0.57857 0.0
C1737 C 0.07135 0.11548 0.58942 0.0
C1738 C 0.05053 0.0812 0.56223 0.0
C1739 C 0.04915 0.06206 0.55634 0.0
C1740 C 0.03749 0.0491 0.56657 0.0
C1741 C 0.02924 0.055 0.5841 0.0
C1742 C 0.03074 0.07406 0.59003 0.0
H1743 H 0.07988 0.12689 0.59674 0.0
H1744 H 0.07179 0.10225 0.59836 0.0
H1745 H 0.07802 0.11227 0.57524 0.0
H1746 H 0.05798 0.0914 0.55309 0.0
H1747 H 0.0557 0.05795 0.54278 0.0
H1748 H 0.5666 0.23595 0.36178 0.0
H1749 H 0.59153 0.23216 0.33766 0.0
H1750 H 0.55199 0.24582 0.29194 0.0
H1751 H 0.5268 0.24946 0.31608 0.0
H1752 H 0.59499 0.21116 0.29864 0.0
H1753 H 0.5934 0.29115 0.29627 0.0
H1754 H 0.58259 0.27807 0.31601 0.0
H1755 H 0.5719 0.27747 0.29235 0.0
C1756 C 0.56305 0.23748 0.34653 0.0
C1757 C 0.54488 0.2432 0.34077 0.0
C1758 C 0.57727 0.2353 0.33279 0.0
C1759 C 0.57357 0.239 0.31314 0.0
C1760 C 0.55505 0.243 0.3071 0.0
H1761 H 0.67685 0.2672 0.24643 0.0
H1762 H 0.64275 0.26436 0.25313 0.0
C1763 C 0.54069 0.24497 0.32087 0.0
C1764 C 0.58979 0.24146 0.29994 0.0
H1765 H 0.62072 0.27625 0.28476 0.0
C1766 C 0.6004 0.22534 0.29508 0.0
C1767 C 0.59669 0.26001 0.29525 0.0
C1768 C 0.58566 0.27776 0.30021 0.0
C1769 C 0.61842 0.22736 0.28681 0.0
C1770 C 0.62609 0.24597 0.28391 0.0
C1771 C 0.61482 0.26203 0.28721 0.0
C1772 C 0.64649 0.24899 0.28012 0.0
C1773 C 0.62941 0.20956 0.28205 0.0
C1774 C 0.65974 0.24222 0.29361 0.0
C1775 C 0.67904 0.24388 0.28992 0.0
C1776 C 0.68551 0.25254 0.27273 0.0
C1777 C 0.67226 0.26049 0.25981 0.0
C1778 C 0.65282 0.25873 0.26351 0.0
H1779 H 0.61973 0.19732 0.27861 0.0
H1780 H 0.63904 0.21198 0.26955 0.0
H1781 H 0.63808 0.20547 0.29485 0.0
H1782 H 0.65511 0.23526 0.30686 0.0
H1783 H 0.6889 0.23782 0.30027 0.0
H1784 H 0.49076 0.80806 0.09833 0.0
H1785 H 0.48555 0.83882 0.08245 0.0
H1786 H 0.4771 0.8656 0.13819 0.0
H1787 H 0.48224 0.83472 0.15432 0.0
H1788 H 0.44892 0.87408 0.10675 0.0
H1789 H 0.52425 0.88487 0.0859 0.0
H1790 H 0.51463 0.86161 0.07998 0.0
H1791 H 0.517 0.86865 0.105 0.0
C1792 C 0.48786 0.82048 0.10724 0.0
C1793 C 0.48701 0.81908 0.12755 0.0
C1794 C 0.48488 0.838 0.09815 0.0
C1795 C 0.48107 0.85435 0.10923 0.0
C1796 C 0.48004 0.85304 0.12949 0.0
H1797 H 0.47104 0.97024 0.06424 0.0
H1798 H 0.46664 0.94295 0.08616 0.0
C1799 C 0.48307 0.83547 0.13864 0.0
C1800 C 0.47853 0.87283 0.09941 0.0
H1801 H 0.50158 0.90439 0.06991 0.0
C1802 C 0.46043 0.88095 0.09889 0.0
C1803 C 0.49367 0.88163 0.08936 0.0
C1804 C 0.51354 0.87387 0.09018 0.0
C1805 C 0.4569 0.8973 0.08764 0.0
C1806 C 0.47188 0.90549 0.07687 0.0
C1807 C 0.49011 0.89782 0.07809 0.0
C1808 C 0.46916 0.92162 0.06353 0.0
C1809 C 0.43719 0.90531 0.08664 0.0
C1810 C 0.47129 0.91849 0.04357 0.0
C1811 C 0.47396 0.93394 0.03108 0.0
C1812 C 0.47459 0.95273 0.03844 0.0
C1813 C 0.47064 0.9559 0.05818 0.0
C1814 C 0.46807 0.94037 0.07072 0.0
H1815 H 0.4268 0.89645 0.09486 0.0
H1816 H 0.43729 0.92007 0.09271 0.0
H1817 H 0.43248 0.90625 0.07127 0.0
H1818 H 0.4722 0.90404 0.03786 0.0
H1819 H 0.47674 0.93109 0.01589 0.0
H1820 H 0.9709 0.74497 0.85521 0.0
H1821 H 0.94772 0.74274 0.82891 0.0
H1822 H 0.91106 0.78127 0.85966 0.0
H1823 H 0.93403 0.78341 0.88628 0.0
H1824 H 0.89278 0.74815 0.84551 0.0
H1825 H 0.93584 0.78395 0.78831 0.0
H1826 H 0.94698 0.76415 0.80029 0.0
H1827 H 0.9418 0.7855 0.81379 0.0
C1828 C 0.95796 0.75308 0.8564 0.0
C1829 C 0.95434 0.76442 0.87288 0.0
C1830 C 0.94478 0.75183 0.84128 0.0
C1831 C 0.92783 0.76202 0.84227 0.0
C1832 C 0.92413 0.77334 0.85864 0.0
H1833 H 0.84421 0.79631 0.76229 0.0
H1834 H 0.87216 0.79197 0.78256 0.0
C1835 C 0.93728 0.77457 0.87382 0.0
C1836 C 0.91367 0.76054 0.82647 0.0
H1837 H 0.90596 0.77144 0.77881 0.0
C1838 C 0.89566 0.75311 0.83088 0.0
C1839 C 0.91757 0.76708 0.80745 0.0
C1840 C 0.93654 0.77577 0.80213 0.0
C1841 C 0.88121 0.75245 0.81687 0.0
C1842 C 0.88505 0.75909 0.79787 0.0
C1843 C 0.9032 0.76613 0.79334 0.0
C1844 C 0.86978 0.76103 0.7833 0.0
C1845 C 0.86172 0.74548 0.82275 0.0
C1846 C 0.85963 0.74498 0.7764 0.0
C1847 C 0.8435 0.7474 0.76481 0.0
C1848 C 0.83738 0.76592 0.75999 0.0
C1849 C 0.84839 0.78185 0.76591 0.0
C1850 C 0.86443 0.77941 0.77744 0.0
H1851 H 0.86035 0.74411 0.83876 0.0
H1852 H 0.85068 0.75541 0.81742 0.0
H1853 H 0.85892 0.73118 0.8162 0.0
H1854 H 0.86378 0.73065 0.78054 0.0
H1855 H 0.8354 0.73483 0.76039 0.0
H1856 H 0.88901 0.0024 0.82763 0.0
H1857 H 0.89808 0.01153 0.86072 0.0
H1858 H 0.87401 0.06744 0.85218 0.0
H1859 H 0.86434 0.05816 0.81909 0.0
H1860 H 0.91796 0.06138 0.86155 0.0
H1861 H 0.86617 0.02868 0.9125 0.0
H1862 H 0.87184 0.01439 0.89156 0.0
H1863 H 0.85975 0.03668 0.88837 0.0
C1864 C 0.88508 0.01639 0.83305 0.0
C1865 C 0.876 0.02958 0.82094 0.0
C1866 C 0.89024 0.02158 0.85189 0.0
C1867 C 0.88665 0.04011 0.85875 0.0
C1868 C 0.8767 0.05302 0.84709 0.0
H1869 H 0.96213 0.06322 0.9597 0.0
H1870 H 0.94001 0.07254 0.93372 0.0
C1871 C 0.87114 0.04767 0.8283 0.0
C1872 C 0.89587 0.04635 0.87693 0.0
H1873 H 0.89785 0.03373 0.92458 0.0
C1874 C 0.91336 0.05601 0.87556 0.0
C1875 C 0.88968 0.03929 0.895 0.0
C1876 C 0.87075 0.02929 0.89709 0.0
C1877 C 0.92581 0.05692 0.89148 0.0
C1878 C 0.92035 0.04816 0.9091 0.0
C1879 C 0.90201 0.04034 0.91096 0.0
C1880 C 0.9344 0.04342 0.92421 0.0
C1881 C 0.94536 0.06548 0.88884 0.0
C1882 C 0.9387 0.02409 0.92714 0.0
C1883 C 0.95112 0.01878 0.94183 0.0
C1884 C 0.95958 0.03272 0.95388 0.0
C1885 C 0.9559 0.05221 0.95048 0.0
C1886 C 0.94325 0.05754 0.93575 0.0
H1887 H 0.94774 0.07066 0.87378 0.0
H1888 H 0.94737 0.07775 0.89894 0.0
H1889 H 0.95628 0.05468 0.89239 0.0
H1890 H 0.93217 0.01301 0.9182 0.0
H1891 H 0.95377 0.00366 0.94401 0.0
H1892 H 0.75755 0.14921 0.55354 0.0
H1893 H 0.75032 0.16654 0.5833 0.0
H1894 H 0.71467 0.20507 0.55112 0.0
H1895 H 0.72164 0.18774 0.52113 0.0
H1896 H 0.75785 0.20641 0.58914 0.0
H1897 H 0.68158 0.18702 0.59795 0.0
H1898 H 0.69731 0.17343 0.58271 0.0
H1899 H 0.68872 0.19619 0.57464 0.0
C1900 C 0.74808 0.16129 0.55272 0.0
C1901 C 0.74019 0.16709 0.53492 0.0
C1902 C 0.74396 0.17114 0.56976 0.0
C1903 C 0.73184 0.1869 0.56934 0.0
C1904 C 0.72383 0.19273 0.5517 0.0
H1905 H 0.73076 0.26632 0.66696 0.0
H1906 H 0.72798 0.2539 0.63387 0.0
C1907 C 0.72794 0.18287 0.53459 0.0
C1908 C 0.72853 0.19774 0.58734 0.0
H1909 H 0.69514 0.20779 0.62146 0.0
C1910 C 0.74412 0.20688 0.59616 0.0
C1911 C 0.71059 0.19815 0.59636 0.0
C1912 C 0.69356 0.18809 0.58757 0.0
C1913 C 0.74239 0.21612 0.61408 0.0
C1914 C 0.72447 0.21647 0.62319 0.0
C1915 C 0.70877 0.20761 0.61424 0.0
C1916 C 0.72236 0.22467 0.64276 0.0
C1917 C 0.75989 0.22476 0.62349 0.0
C1918 C 0.71913 0.21244 0.65857 0.0
C1919 C 0.72065 0.21946 0.67749 0.0
C1920 C 0.72548 0.23881 0.68083 0.0
C1921 C 0.7273 0.25128 0.66488 0.0
C1922 C 0.7257 0.24425 0.64598 0.0
H1923 H 0.7731 0.22011 0.61625 0.0
H1924 H 0.75924 0.24063 0.62259 0.0
H1925 H 0.76067 0.22077 0.63908 0.0
H1926 H 0.7165 0.19727 0.65627 0.0
H1927 H 0.71902 0.20951 0.68945 0.0
H1928 H 0.62269 0.98326 0.33712 0.0
H1929 H 0.61449 0.98766 0.37137 0.0
H1930 H 0.56325 0.01644 0.35432 0.0
H1931 H 0.57102 0.0115 0.32017 0.0
H1932 H 0.60791 0.0187 0.39393 0.0
H1933 H 0.543 0.97374 0.38818 0.0
H1934 H 0.5605 0.97479 0.3692 0.0
H1935 H 0.54282 0.99311 0.37108 0.0
C1936 C 0.60974 0.99062 0.34072 0.0
C1937 C 0.59734 0.99682 0.32607 0.0
C1938 C 0.60508 0.99311 0.36024 0.0
C1939 C 0.58804 0.00193 0.36531 0.0
C1940 C 0.57619 0.00907 0.35067 0.0
H1941 H 0.55279 0.05101 0.4732 0.0
H1942 H 0.5672 0.0441 0.44182 0.0
C1943 C 0.58069 0.00636 0.33119 0.0
C1944 C 0.58237 0.00339 0.38586 0.0
H1945 H 0.54575 0.99355 0.41647 0.0
C1946 C 0.59441 0.01305 0.39896 0.0
C1947 C 0.56499 0.99552 0.39246 0.0
C1948 C 0.5522 0.98352 0.37954 0.0
C1949 C 0.58914 0.0158 0.41837 0.0
C1950 C 0.57112 0.00919 0.42456 0.0
C1951 C 0.55945 -0.00115 0.41164 0.0
C1952 C 0.56368 0.01329 0.44415 0.0
C1953 C 0.60297 0.02562 0.432 0.0
C1954 C 0.55647 -0.00169 0.45564 0.0
C1955 C 0.54778 0.00227 0.47332 0.0
C1956 C 0.54632 0.02127 0.47989 0.0
C1957 C 0.55386 0.03622 0.46855 0.0
C1958 C 0.56227 0.03228 0.45072 0.0
H1959 H 0.61782 0.02367 0.42717 0.0
H1960 H 0.60016 0.04124 0.43214 0.0
H1961 H 0.60159 0.02008 0.44705 0.0
H1962 H 0.55734 0.98357 0.45079 0.0
H1963 H 0.54221 0.99044 0.48182 0.0
H1964 H 0.74564 0.83161 0.05684 0.0
H1965 H 0.7558 0.81889 0.08821 0.0
H1966 H 0.79817 0.78496 0.05985 0.0
H1967 H 0.78815 0.79738 0.02836 0.0
H1968 H 0.76362 0.77589 0.10116 0.0
H1969 H 0.82458 0.82753 0.09871 0.0
H1970 H 0.80307 0.83166 0.08511 0.0
H1971 H 0.81889 0.81319 0.07761 0.0
C1972 C 0.75681 0.8211 0.05716 0.0
C1973 C 0.76625 0.81576 0.04008 0.0
C1974 C 0.76259 0.81387 0.0751 0.0
C1975 C 0.77787 0.80127 0.0762 0.0
C1976 C 0.78644 0.79481 0.05917 0.0
H1977 H 0.81156 0.75818 0.19053 0.0
H1978 H 0.81338 0.76151 0.15518 0.0
C1979 C 0.78062 0.80193 0.04121 0.0
C1980 C 0.78586 0.79636 0.0953 0.0
H1981 H 0.81967 0.81082 0.12793 0.0
C1982 C 0.77609 0.78317 0.10695 0.0
C1983 C 0.80208 0.80605 0.10263 0.0
C1984 C 0.81284 0.82047 0.09048 0.0
C1985 C 0.78173 0.77995 0.12619 0.0
C1986 C 0.79754 0.79019 0.13379 0.0
C1987 C 0.80772 0.80287 0.12189 0.0
C1988 C 0.80166 0.79 0.15477 0.0
C1989 C 0.77012 0.76646 0.13863 0.0
C1990 C 0.79565 0.80544 0.16612 0.0
C1991 C 0.79452 0.80359 0.18622 0.0
C1992 C 0.7995 0.78629 0.19521 0.0
C1993 C 0.80764 0.77169 0.18399 0.0
C1994 C 0.80859 0.7735 0.16381 0.0
H1995 H 0.7573 0.76093 0.13094 0.0
H1996 H 0.7789 0.75407 0.14295 0.0
H1997 H 0.7656 0.77384 0.15212 0.0
H1998 H 0.79031 0.81832 0.15932 0.0
H1999 H 0.78834 0.81511 0.19454 0.0
H2000 H 0.90297 0.00819 0.71363 0.0
H2001 H 0.9187 0.99472 0.68529 0.0
H2002 H 0.95129 0.95769 0.72234 0.0
H2003 H 0.9356 0.97096 0.75092 0.0
H2004 H 0.9714 0.98032 0.69003 0.0
H2005 H 0.90912 0.93646 0.66684 0.0
H2006 H 0.904 0.96069 0.67391 0.0
H2007 H 0.91285 0.94417 0.69166 0.0
C2008 C 0.91359 -0.00268 0.71585 0.0
C2009 C 0.91791 0.99059 0.73457 0.0
C2010 C 0.92247 0.98956 0.69962 0.0
C2011 C 0.93584 0.97502 0.70182 0.0
C2012 C 0.94082 0.96878 0.72044 0.0
H2013 H 9e-05 0.94297 0.59694 0.0
H2014 H 0.98839 0.93733 0.63015 0.0
C2015 C 0.93186 0.97643 0.73671 0.0
C2016 C 0.94452 0.96652 0.68445 0.0
H2017 H 0.93272 0.94279 0.64273 0.0
C2018 C 0.96321 0.97166 0.67985 0.0
C2019 C 0.93374 0.95511 0.67142 0.0
C2020 C 0.91385 0.9486 0.67621 0.0
C2021 C 0.97087 0.96711 0.66167 0.0
C2022 C 0.95955 0.95692 0.64802 0.0
C2023 C 0.94137 0.9505 0.65328 0.0
C2024 C 0.96468 0.95655 0.62727 0.0
C2025 C 0.99036 0.97463 0.65657 0.0
C2026 C 0.95463 0.96837 0.61455 0.0
C2027 C 0.96126 0.97162 0.59585 0.0
C2028 C 0.97794 0.96293 0.58947 0.0
C2029 C 0.98714 0.94974 0.60158 0.0
C2030 C 0.98057 0.94663 0.62051 0.0
H2031 H 0.99669 0.98356 0.66837 0.0
H2032 H -9e-05 0.96242 0.65376 0.0
H2033 H 0.9897 0.98339 0.64313 0.0
H2034 H 0.94233 0.97612 0.6195 0.0
H2035 H 0.95389 0.98177 0.58671 0.0
H2036 H 0.79823 0.11031 0.44241 0.0
H2037 H 0.81074 0.12125 0.41094 0.0
H2038 H 0.77395 0.17014 0.41299 0.0
H2039 H 0.76142 0.15942 0.44402 0.0
H2040 H 0.78947 0.13025 0.37534 0.0
H2041 H 0.82837 0.19311 0.40449 0.0
H2042 H 0.82236 0.17243 0.41918 0.0
H2043 H 0.80526 0.19099 0.4151 0.0
C2044 C 0.79269 0.12325 0.43597 0.0
C2045 C 0.77897 0.13412 0.44568 0.0
C2046 C 0.79996 0.12953 0.41816 0.0
C2047 C 0.79368 0.14678 0.41011 0.0
C2048 C 0.77936 0.15708 0.41935 0.0
H2049 H 0.75176 0.20109 0.32259 0.0
H2050 H 0.76452 0.18057 0.34778 0.0
C2051 C 0.77208 0.15083 0.43697 0.0
C2052 C 0.80103 0.15412 0.39157 0.0
H2053 H 0.8136 0.19733 0.37231 0.0
C2054 C 0.79552 0.1446 0.37451 0.0
C2055 C 0.80939 0.1726 0.3905 0.0
C2056 C 0.81688 0.18278 0.40833 0.0
C2057 C 0.79552 0.15429 0.35672 0.0
C2058 C 0.80089 0.17389 0.35631 0.0
C2059 C 0.80911 0.1824 0.37278 0.0
C2060 C 0.7939 0.18656 0.34087 0.0
C2061 C 0.78808 0.14409 0.33889 0.0
C2062 C 0.80626 0.19751 0.32937 0.0
C2063 C 0.79897 0.20948 0.31493 0.0
C2064 C 0.77925 0.21071 0.31203 0.0
C2065 C 0.76701 0.20036 0.32428 0.0
C2066 C 0.77427 0.18844 0.33855 0.0
H2067 H 0.79118 0.12852 0.33954 0.0
H2068 H 0.77246 0.14565 0.33813 0.0
H2069 H 0.79434 0.1502 0.32544 0.0
H2070 H 0.82146 0.1965 0.33131 0.0
H2071 H 0.80876 0.21729 0.30571 0.0
H2072 H 0.59319 0.98247 0.21384 0.0
H2073 H 0.58493 0.98795 0.17986 0.0
H2074 H 0.53276 0.01438 0.19731 0.0
H2075 H 0.54097 0.0093 0.23139 0.0
H2076 H 0.55413 0.97785 0.15657 0.0
H2077 H 0.55965 0.05678 0.16641 0.0
H2078 H 0.568 0.04005 0.1844 0.0
H2079 H 0.54315 0.04519 0.18249 0.0
C2080 C 0.57979 0.98915 0.2105 0.0
C2081 C 0.56788 0.99574 0.22536 0.0
C2082 C 0.57515 0.99232 0.19106 0.0
C2083 C 0.55854 0.00207 0.1862 0.0
C2084 C 0.54592 0.00733 0.20087 0.0
H2085 H 0.50414 0.03157 0.07924 0.0
H2086 H 0.51389 0.02871 0.11319 0.0
C2087 C 0.55058 0.00426 0.22032 0.0
C2088 C 0.55478 0.00734 0.16581 0.0
H2089 H 0.54812 0.04569 0.13585 0.0
C2090 C 0.55292 0.99266 0.152 0.0
C2091 C 0.55339 0.02673 0.15996 0.0
C2092 C 0.55633 0.04312 0.17404 0.0
C2093 C 0.5492 0.99685 0.13247 0.0
C2094 C 0.54749 0.01619 0.12672 0.0
C2095 C 0.54949 0.0309 0.14045 0.0
C2096 C 0.54277 0.0212 0.10654 0.0
C2097 C 0.54671 0.9806 0.11816 0.0
C2098 C 0.55612 0.01878 0.09176 0.0
C2099 C 0.55065 0.02049 0.07235 0.0
C2100 C 0.53172 0.02449 0.06752 0.0
C2101 C 0.51878 0.02831 0.08248 0.0
C2102 C 0.5243 0.0267 0.10187 0.0
H2103 H 0.5459 0.96641 0.12545 0.0
H2104 H 0.53363 0.98257 0.10939 0.0
H2105 H 0.5589 0.98055 0.10802 0.0
H2106 H 0.5705 0.01467 0.09524 0.0
H2107 H 0.56097 0.01751 0.06117 0.0
H2108 H 0.74157 0.89321 0.94507 0.0
H2109 H 0.74522 0.89345 0.90961 0.0
H2110 H 0.76794 0.83633 0.91186 0.0
H2111 H 0.76479 0.83615 0.94702 0.0
H2112 H 0.78746 0.8603 0.88682 0.0
H2113 H 0.70943 0.86268 0.87408 0.0
H2114 H 0.72009 0.88186 0.88795 0.0
H2115 H 0.71934 0.85804 0.89778 0.0
C2116 C 0.74752 0.88082 0.93796 0.0
C2117 C 0.75275 0.86459 0.94874 0.0
C2118 C 0.74951 0.88095 0.91775 0.0
C2119 C 0.7566 0.86481 0.90815 0.0
C2120 C 0.76244 0.84894 0.91902 0.0
H2121 H 0.74117 0.80009 0.80934 0.0
H2122 H 0.73948 0.81913 0.83901 0.0
C2123 C 0.76057 0.84883 0.93911 0.0
C2124 C 0.75719 0.86356 0.88675 0.0
H2125 H 0.72856 0.85564 0.84745 0.0
C2126 C 0.77466 0.85968 0.87804 0.0
C2127 C 0.7404 0.86275 0.87548 0.0
C2128 C 0.7212 0.86644 0.88422 0.0
C2129 C 0.77567 0.85347 0.85872 0.0
C2130 C 0.75875 0.85168 0.84772 0.0
C2131 C 0.74146 0.85703 0.85599 0.0
C2132 C 0.75835 0.84164 0.82881 0.0
C2133 C 0.79463 0.84744 0.85083 0.0
C2134 C 0.76914 0.84824 0.81308 0.0
C2135 C 0.77041 0.83719 0.79621 0.0
C2136 C 0.76059 0.81956 0.79472 0.0
C2137 C 0.74895 0.81355 0.81009 0.0
C2138 C 0.74792 0.82446 0.82701 0.0
H2139 H 0.8056 0.84646 0.8624 0.0
H2140 H 0.79342 0.8333 0.84348 0.0
H2141 H 0.7996 0.85813 0.84002 0.0
H2142 H 0.77693 0.86168 0.81401 0.0
H2143 H 0.77924 0.84235 0.78445 0.0
H2144 H 0.82607 0.8775 0.99335 0.0
H2145 H 0.84876 0.90017 0.00755 0.0
H2146 H 0.80422 0.92567 0.04118 0.0
H2147 H 0.78124 0.90316 0.02689 0.0
H2148 H 0.8269 0.95243 0.02312 0.0
H2149 H 0.87114 0.9003 0.06229 0.0
H2150 H 0.86782 0.89336 0.0374 0.0
H2151 H 0.84768 0.89437 0.05333 0.0
C2152 C 0.82103 0.88789 0.00376 0.0
C2153 C 0.80181 0.88843 0.009 0.0
C2154 C 0.83408 0.90072 0.01203 0.0
C2155 C 0.82824 0.91425 0.0258 0.0
C2156 C 0.80904 0.91515 0.03079 0.0
H2157 H 0.92791 0.98147 0.06578 0.0
H2158 H 0.89672 0.96578 0.07032 0.0
C2159 C 0.79593 0.9023 0.02252 0.0
C2160 C 0.84219 0.92809 0.03397 0.0
H2161 H 0.88679 0.93025 0.05316 0.0
C2162 C 0.83978 0.94767 0.03016 0.0
C2163 C 0.85875 0.92196 0.04368 0.0
C2164 C 0.86141 0.90136 0.04962 0.0
C2165 C 0.85439 0.96097 0.03397 0.0
C2166 C 0.87183 0.95442 0.04147 0.0
C2167 C 0.87347 0.93522 0.04718 0.0
C2168 C 0.88938 0.96607 0.03976 0.0
C2169 C 0.85141 0.98174 0.02889 0.0
C2170 C 0.89547 0.97132 0.02116 0.0
C2171 C 0.91313 0.97991 0.01855 0.0
C2172 C 0.92517 0.9835 0.03449 0.0
C2173 C 0.91886 0.97891 0.05327 0.0
C2174 C 0.90111 0.96999 0.05587 0.0
H2175 H 0.83627 0.98564 0.0304 0.0
H2176 H 0.86016 0.99139 0.03824 0.0
H2177 H 0.85547 0.98415 0.01352 0.0
H2178 H 0.88687 0.96803 0.00849 0.0
H2179 H 0.91752 0.98341 0.0039 0.0
H2180 H 0.32801 0.63997 0.00224 0.0
H2181 H 0.35537 0.61943 0.00739 0.0
H2182 H 0.31925 0.57639 0.03343 0.0
H2183 H 0.29171 0.5968 0.02826 0.0
H2184 H 0.37112 0.59986 0.04087 0.0
H2185 H 0.34217 0.55088 0.9838 0.0
H2186 H 0.3335 0.57487 0.98734 0.0
H2187 H 0.32666 0.55607 0.00374 0.0
C2188 C 0.32594 0.62633 0.00948 0.0
C2189 C 0.3077 0.61986 0.0146 0.0
C2190 C 0.34157 0.61462 0.01238 0.0
C2191 C 0.33917 0.59629 0.02038 0.0
C2192 C 0.32125 0.5904 0.02693 0.0
H2193 H 0.43087 0.51893 0.04701 0.0
H2194 H 0.40114 0.53638 0.04741 0.0
C2195 C 0.30559 0.60213 0.02408 0.0
C2196 C 0.35514 0.58286 0.02032 0.0
H2197 H 0.3712 0.54231 -0.00168 0.0
C2198 C 0.37113 0.58719 0.0317 0.0
C2199 C 0.35512 0.56659 0.00803 0.0
C2200 C 0.33854 0.56181 0.99489 0.0
C2201 C 0.38718 0.57557 0.03117 0.0
C2202 C 0.38706 0.55914 0.01908 0.0
C2203 C 0.3711 0.55485 0.00765 0.0
C2204 C 0.40365 0.54656 0.01788 0.0
C2205 C 0.40432 0.58119 0.04318 0.0
C2206 C 0.41432 0.54574 0.00076 0.0
C2207 C 0.43133 0.53568 0.0004 0.0
C2208 C 0.43784 0.52635 0.0172 0.0
C2209 C 0.42639 0.52619 0.03389 0.0
C2210 C 0.40943 0.53619 0.0342 0.0
H2211 H 0.40359 0.59624 0.0484 0.0
H2212 H 0.40519 0.57168 0.05605 0.0
H2213 H 0.41753 0.57949 0.03467 0.0
H2214 H 0.40992 0.55358 0.98797 0.0
H2215 H 0.4398 0.53603 0.98733 0.0
H2216 H 0.15606 0.53665 0.76191 0.0
H2217 H 0.17236 0.5607 0.74226 0.0
H2218 H 0.13019 0.6023 0.7574 0.0
H2219 H 0.1135 0.57822 0.77695 0.0
H2220 H 0.1376 0.59813 0.71614 0.0
H2221 H 0.20347 0.60805 0.76004 0.0
H2222 H 0.19696 0.58375 0.75405 0.0
H2223 H 0.18217 0.5974 0.76994 0.0
C2224 C 0.15037 0.551 0.76138 0.0
C2225 C 0.13342 0.55549 0.77101 0.0
C2226 C 0.15974 0.56471 0.75012 0.0
C2227 C 0.15244 0.58321 0.74839 0.0
C2228 C 0.13597 0.58802 0.75854 0.0
H2229 H 0.17357 0.69163 0.70899 0.0
H2230 H 0.15869 0.66013 0.71102 0.0
C2231 C 0.12656 0.5743 0.76985 0.0
C2232 C 0.16165 0.5974 0.7355 0.0
H2233 H 0.20125 0.62537 0.73101 0.0
C2234 C 0.15159 0.60402 0.71925 0.0
C2235 C 0.18002 0.60471 0.73943 0.0
C2236 C 0.1913 0.59826 0.75686 0.0
C2237 C 0.15917 0.61835 0.70718 0.0
C2238 C 0.17712 0.62642 0.71172 0.0
C2239 C 0.18756 0.61904 0.72739 0.0
C2240 C 0.18392 0.64464 0.70303 0.0
C2241 C 0.14772 0.62497 0.68997 0.0
C2242 C 0.20276 0.64655 0.69667 0.0
C2243 C 0.21129 0.66473 0.69543 0.0
C2244 C 0.20106 0.68101 0.70075 0.0
C2245 C 0.18162 0.67923 0.7046 0.0
C2246 C 0.17309 0.66116 0.70574 0.0
H2247 H 0.13892 0.61303 0.68395 0.0
H2248 H 0.13795 0.6364 0.6947 0.0
H2249 H 0.15693 0.63078 0.67828 0.0
H2250 H 0.21137 0.63397 0.6946 0.0
H2251 H 0.22638 0.66579 0.69275 0.0
H2252 H 0.20026 0.3951 0.53723 0.0
H2253 H 0.17092 0.41296 0.54078 0.0
H2254 H 0.14229 0.37317 0.50232 0.0
H2255 H 0.17153 0.35516 0.49873 0.0
H2256 H 0.15589 0.42912 0.50618 0.0
H2257 H 0.10221 0.38437 0.54442 0.0
H2258 H 0.12739 0.3804 0.5467 0.0
H2259 H 0.1148 0.37235 0.52541 0.0
C2260 C 0.18756 0.38972 0.53009 0.0
C2261 C 0.18826 0.37385 0.5175 0.0
C2262 C 0.17082 0.39999 0.5321 0.0
C2263 C 0.1545 0.39441 0.52176 0.0
C2264 C 0.15469 0.37758 0.5106 0.0
H2265 H 0.04827 0.4467 0.49059 0.0
H2266 H 0.07589 0.42611 0.49368 0.0
C2267 C 0.17144 0.36731 0.50854 0.0
C2268 C 0.13842 0.40771 0.52011 0.0
H2269 H 0.09093 0.41186 0.52771 0.0
C2270 C 0.1417 0.42546 0.51107 0.0
C2271 C 0.11995 0.40272 0.52625 0.0
C2272 C 0.11582 0.38399 0.53639 0.0
C2273 C 0.12691 0.43825 0.50763 0.0
C2274 C 0.10841 0.43331 0.5138 0.0
C2275 C 0.10514 0.41559 0.52296 0.0
C2276 C 0.09224 0.44635 0.51095 0.0
C2277 C 0.13113 0.45666 0.49688 0.0
C2278 C 0.09239 0.46465 0.51943 0.0
C2279 C 0.07671 0.47654 0.51754 0.0
C2280 C 0.06047 0.47024 0.50734 0.0
C2281 C 0.06054 0.45203 0.49852 0.0
C2282 C 0.07627 0.44019 0.50035 0.0
H2283 H 0.1445 0.45577 0.48848 0.0
H2284 H 0.11943 0.46027 0.48674 0.0
H2285 H 0.13276 0.46854 0.50751 0.0
H2286 H 0.10443 0.46954 0.52797 0.0
H2287 H 0.07709 0.4904 0.52466 0.0
H2288 H 0.83086 0.99406 0.74473 0.0
H2289 H 0.80925 0.97254 0.72722 0.0
H2290 H 0.82308 0.92678 0.76668 0.0
H2291 H 0.84467 0.94813 0.78436 0.0
H2292 H 0.82258 0.94031 0.70874 0.0
H2293 H 0.76584 0.92015 0.76005 0.0
H2294 H 0.78053 0.94134 0.76334 0.0
H2295 H 0.78881 0.91823 0.77108 0.0
C2296 C 0.82897 0.97955 0.75004 0.0
C2297 C 0.83968 0.97276 0.76587 0.0
C2298 C 0.81659 0.96729 0.73997 0.0
C2299 C 0.81449 0.94813 0.74571 0.0
C2300 C 0.82423 0.94163 0.76222 0.0
H2301 H 0.81559 0.84137 0.70548 0.0
H2302 H 0.81986 0.87601 0.70707 0.0
C2303 C 0.83667 0.95385 0.77226 0.0
C2304 C 0.80437 0.93417 0.7331 0.0
H2305 H 0.77353 0.89637 0.73546 0.0
C2306 C 0.81144 0.93102 0.71433 0.0
C2307 C 0.78961 0.92233 0.74021 0.0
C2308 C 0.78062 0.92582 0.75971 0.0
C2309 C 0.80547 0.91511 0.70333 0.0
C2310 C 0.79228 0.90204 0.71141 0.0
C2311 C 0.78378 0.90633 0.72929 0.0
C2312 C 0.79001 0.88227 0.70389 0.0
C2313 C 0.81415 0.91184 0.68365 0.0
C2314 C 0.77191 0.87429 0.70063 0.0
C2315 C 0.76948 0.85437 0.69953 0.0
C2316 C 0.7851 0.84232 0.70213 0.0
C2317 C 0.80336 0.8504 0.70337 0.0
C2318 C 0.8058 0.87023 0.7042 0.0
H2319 H 0.81779 0.92569 0.67655 0.0
H2320 H 0.82747 0.90372 0.68543 0.0
H2321 H 0.80444 0.90353 0.67399 0.0
H2322 H 0.75955 0.88334 0.70051 0.0
H2323 H 0.75523 0.84845 0.69878 0.0
H2324 H 0.73447 0.07914 0.50781 0.0
H2325 H 0.71005 0.05987 0.52371 0.0
H2326 H 0.66703 0.08801 0.48991 0.0
H2327 H 0.69128 0.10753 0.47396 0.0
H2328 H 0.6828 0.08099 0.5454 0.0
H2329 H 0.64859 0.03124 0.49264 0.0
H2330 H 0.67235 0.0407 0.48942 0.0
H2331 H 0.65219 0.05511 0.48349 0.0
C2332 C 0.71987 0.08086 0.50325 0.0
C2333 C 0.7148 0.09519 0.48987 0.0
C2334 C 0.70596 0.06978 0.51239 0.0
C2335 C 0.6868 0.07259 0.50802 0.0
C2336 C 0.68179 0.08551 0.49331 0.0
H2337 H 0.58288 0.08269 0.55771 0.0
H2338 H 0.61656 0.08557 0.55007 0.0
C2339 C 0.6957 0.0967 0.48424 0.0
C2340 C 0.67202 0.06476 0.52097 0.0
H2341 H 0.63014 0.04 0.52056 0.0
C2342 C 0.67151 0.07161 0.54016 0.0
C2343 C 0.65742 0.05251 0.51409 0.0
C2344 C 0.65769 0.0443 0.49382 0.0
C2345 C 0.656 0.06764 0.5522 0.0
C2346 C 0.64078 0.05653 0.54483 0.0
C2347 C 0.64192 0.04851 0.52616 0.0
C2348 C 0.62237 0.05555 0.55481 0.0
C2349 C 0.65552 0.07611 0.57234 0.0
C2350 C 0.61481 0.03789 0.56091 0.0
C2351 C 0.59562 0.0363 0.56568 0.0
C2352 C 0.58378 0.05226 0.56383 0.0
C2353 C 0.59177 0.07023 0.55934 0.0
C2354 C 0.61098 0.07187 0.55497 0.0
H2355 H 0.66995 0.08008 0.5776 0.0
H2356 H 0.64683 0.08926 0.57212 0.0
H2357 H 0.64895 0.06587 0.58274 0.0
H2358 H 0.62342 0.02514 0.56071 0.0
H2359 H 0.58972 0.02224 0.56884 0.0
H2360 H 0.15979 0.464 0.74324 0.0
H2361 H 0.1795 0.43565 0.7399 0.0
H2362 H 0.14017 0.40312 0.77496 0.0
H2363 H 0.12025 0.43141 0.7783 0.0
H2364 H 0.19567 0.41697 0.77306 0.0
H2365 H 0.15106 0.36787 0.72777 0.0
H2366 H 0.1472 0.39341 0.72878 0.0
H2367 H 0.13967 0.37834 0.74848 0.0
C2368 C 0.1551 0.45071 0.74989 0.0
C2369 C 0.13851 0.44992 0.76108 0.0
C2370 C 0.16642 0.43458 0.74804 0.0
C2371 C 0.16126 0.41739 0.7572 0.0
C2372 C 0.14425 0.41626 0.76762 0.0
H2373 H 0.23404 0.32006 0.78198 0.0
H2374 H 0.21459 0.34874 0.78561 0.0
C2375 C 0.1329 0.43241 0.7695 0.0
C2376 C 0.1744 0.40112 0.75697 0.0
H2377 H 0.17953 0.35539 0.7405 0.0
C2378 C 0.19218 0.40347 0.76596 0.0
C2379 C 0.1697 0.38363 0.7477 0.0
C2380 C 0.15094 0.3806 0.73749 0.0
C2381 C 0.20552 0.38874 0.7658 0.0
C2382 C 0.20082 0.37127 0.75651 0.0
C2383 C 0.18299 0.36886 0.74765 0.0
C2384 C 0.21446 0.35552 0.75495 0.0
C2385 C 0.22466 0.39205 0.77513 0.0
C2386 C 0.22106 0.35021 0.7366 0.0
C2387 C 0.23211 0.33395 0.73448 0.0
C2388 C 0.23665 0.32261 0.75068 0.0
C2389 C 0.23084 0.32854 0.76924 0.0
C2390 C 0.21973 0.34488 0.77134 0.0
H2391 H 0.22714 0.40737 0.77892 0.0
H2392 H 0.2256 0.38345 0.78864 0.0
H2393 H 0.23611 0.3873 0.76528 0.0
H2394 H 0.21716 0.35834 0.72382 0.0
H2395 H 0.23646 0.32987 0.71999 0.0
H2396 H 0.36137 0.54599 0.22345 0.0
H2397 H 0.33974 0.57259 0.21817 0.0
H2398 H 0.37387 0.60826 0.25617 0.0
H2399 H 0.39578 0.58194 0.26107 0.0
H2400 H 0.31963 0.58559 0.24789 0.0
H2401 H 0.35897 0.64665 0.21578 0.0
H2402 H 0.36793 0.62251 0.21532 0.0
H2403 H 0.37113 0.63734 0.23656 0.0
C2404 C 0.36466 0.55974 0.23008 0.0
C2405 C 0.38018 0.56185 0.2428 0.0
C2406 C 0.35225 0.57491 0.2271 0.0
C2407 C 0.35514 0.59242 0.23678 0.0
C2408 C 0.3715 0.59503 0.24823 0.0
H2409 H 0.29128 0.68533 0.2802 0.0
H2410 H 0.31274 0.65898 0.27363 0.0
C2411 C 0.38403 0.57991 0.25107 0.0
C2412 C 0.33975 0.60668 0.2375 0.0
H2413 H 0.33077 0.65451 0.23389 0.0
C2414 C 0.32195 0.6006 0.24443 0.0
C2415 C 0.34281 0.62627 0.23309 0.0
C2416 C 0.3612 0.63353 0.22459 0.0
C2417 C 0.30743 0.61371 0.24789 0.0
C2418 C 0.31081 0.63334 0.24428 0.0
C2419 C 0.32834 0.63939 0.23676 0.0
C2420 C 0.29668 0.648 0.24914 0.0
C2421 C 0.28885 0.60667 0.25616 0.0
C2422 C 0.28029 0.65015 0.23782 0.0
C2423 C 0.26791 0.66523 0.24152 0.0
C2424 C 0.27181 0.67839 0.25659 0.0
C2425 C 0.28781 0.67551 0.26847 0.0
C2426 C 0.30017 0.66052 0.2647 0.0
H2427 H 0.28922 0.59123 0.26011 0.0
H2428 H 0.28519 0.61512 0.26927 0.0
H2429 H 0.27741 0.60874 0.24528 0.0
H2430 H 0.27743 0.64059 0.22572 0.0
H2431 H 0.25577 0.66704 0.23205 0.0
H2432 H 0.51297 0.7037 0.57605 0.0
H2433 H 0.50368 0.66981 0.57346 0.0
H2434 H 0.4745 0.67346 0.62819 0.0
H2435 H 0.48346 0.70715 0.63094 0.0
H2436 H 0.51103 0.6393 0.60109 0.0
H2437 H 0.43412 0.65221 0.58934 0.0
H2438 H 0.45192 0.67073 0.58607 0.0
H2439 H 0.44484 0.66378 0.61008 0.0
C2440 C 0.5046 0.6973 0.58754 0.0
C2441 C 0.49892 0.70819 0.60363 0.0
C2442 C 0.49933 0.67797 0.58605 0.0
C2443 C 0.48823 0.66931 0.60054 0.0
C2444 C 0.48282 0.68001 0.61674 0.0
H2445 H 0.47181 0.54407 0.59998 0.0
H2446 H 0.47413 0.5766 0.61363 0.0
C2447 C 0.48807 0.69926 0.61828 0.0
C2448 C 0.48231 0.64905 0.59871 0.0
H2449 H 0.4438 0.62002 0.59068 0.0
C2450 C 0.49633 0.635 0.599 0.0
C2451 C 0.4631 0.64366 0.59604 0.0
C2452 C 0.44758 0.65834 0.59521 0.0
C2453 C 0.4917 0.61562 0.5961 0.0
C2454 C 0.47252 0.61024 0.59306 0.0
C2455 C 0.45843 0.62424 0.59332 0.0
C2456 C 0.46735 0.59072 0.58655 0.0
C2457 C 0.50744 0.60117 0.59532 0.0
C2458 C 0.46176 0.58805 0.56719 0.0
C2459 C 0.46045 0.56966 0.55943 0.0
C2460 C 0.4646 0.55363 0.57094 0.0
C2461 C 0.46855 0.55621 0.59081 0.0
C2462 C 0.47 0.57473 0.59857 0.0
H2463 H 0.52169 0.6081 0.59547 0.0
H2464 H 0.5064 0.59151 0.60807 0.0
H2465 H 0.5061 0.59221 0.58202 0.0
H2466 H 0.45958 0.60024 0.55773 0.0
H2467 H 0.45716 0.56805 0.54412 0.0
H2468 H 0.56675 0.22913 0.89177 0.0
H2469 H 0.59533 0.21667 0.87638 0.0
H2470 H 0.57091 0.22743 0.81988 0.0
H2471 H 0.54189 0.23861 0.83524 0.0
H2472 H 0.59275 0.19639 0.81874 0.0
H2473 H 0.63145 0.25602 0.85634 0.0
H2474 H 0.62095 0.23843 0.87203 0.0
H2475 H 0.60608 0.25353 0.85742 0.0
C2476 C 0.56747 0.22855 0.87607 0.0
C2477 C 0.55242 0.23518 0.86461 0.0
C2478 C 0.58375 0.22146 0.8673 0.0
C2479 C 0.58547 0.22167 0.847 0.0
C2480 C 0.56993 0.2272 0.83558 0.0
H2481 H 0.666 0.2597 0.77233 0.0
H2482 H 0.63909 0.2493 0.79184 0.0
C2483 C 0.55343 0.23372 0.84434 0.0
C2484 C 0.60397 0.21855 0.83754 0.0
H2485 H 0.64771 0.23925 0.83268 0.0
C2486 C 0.60493 0.20548 0.822 0.0
C2487 C 0.61984 0.2305 0.84183 0.0
C2488 C 0.61957 0.24551 0.85769 0.0
C2489 C 0.62083 0.20503 0.80982 0.0
C2490 C 0.63611 0.21772 0.81356 0.0
C2491 C 0.63583 0.22957 0.82998 0.0
C2492 C 0.6509 0.22172 0.79906 0.0
C2493 C 0.62071 0.1921 0.79226 0.0
C2494 C 0.6661 0.20928 0.79617 0.0
C2495 C 0.68151 0.21515 0.78476 0.0
C2496 C 0.68188 0.2336 0.77655 0.0
C2497 C 0.66615 0.2455 0.77869 0.0
C2498 C 0.65077 0.23956 0.78976 0.0
H2499 H 0.6077 0.183 0.79142 0.0
H2500 H 0.62172 0.20089 0.77886 0.0
H2501 H 0.63326 0.18266 0.79269 0.0
H2502 H 0.66645 0.19551 0.80342 0.0
H2503 H 0.69354 0.20576 0.78333 0.0
H2504 H 0.00253 0.32145 0.10932 0.0
H2505 H 0.0194 0.35193 0.10586 0.0
H2506 H 0.0271 0.35525 0.16794 0.0
H2507 H 0.01039 0.32434 0.17159 0.0
H2508 H 0.01085 0.38928 0.14669 0.0
H2509 H 0.07808 0.36306 0.11607 0.0
H2510 H 0.05749 0.35124 0.10605 0.0
H2511 H 0.06293 0.34853 0.13144 0.0
C2512 C 0.00782 0.32859 0.12226 0.0
C2513 C 0.0052 0.3205 0.14071 0.0
C2514 C 0.01759 0.34591 0.12025 0.0
C2515 C 0.0248 0.35552 0.13663 0.0
C2516 C 0.02186 0.3478 0.15515 0.0
H2517 H 0.04656 0.47369 0.09902 0.0
H2518 H 0.05179 0.44823 0.12296 0.0
C2519 C 0.01224 0.33027 0.15718 0.0
C2520 C 0.03414 0.3743 0.13393 0.0
H2521 H 0.06814 0.39468 0.10548 0.0
C2522 C 0.02379 0.39072 0.13834 0.0
C2523 C 0.05112 0.37597 0.12329 0.0
C2524 C 0.06317 0.35876 0.11909 0.0
C2525 C 0.02861 0.40848 0.13009 0.0
C2526 C 0.04433 0.40966 0.1174 0.0
C2527 C 0.05604 0.3937 0.11511 0.0
C2528 C 0.04567 0.42511 0.10282 0.0
C2529 C 0.01559 0.42523 0.13318 0.0
C2530 C 0.0416 0.42043 0.08342 0.0
C2531 C 0.03869 0.4348 0.0698 0.0
C2532 C 0.03981 0.45417 0.07532 0.0
C2533 C 0.04546 0.45887 0.09439 0.0
C2534 C 0.04838 0.44438 0.10809 0.0
H2535 H 0.00336 0.42149 0.14262 0.0
H2536 H 0.02359 0.43721 0.14011 0.0
H2537 H 0.01006 0.43038 0.11902 0.0
H2538 H 0.03947 0.40562 0.07905 0.0
H2539 H 0.03463 0.4307 0.05517 0.0
H2540 H 0.9628 0.75284 0.36447 0.0
H2541 H 0.93094 0.75422 0.35109 0.0
H2542 H 0.91427 0.79199 0.39745 0.0
H2543 H 0.9465 0.79101 0.41094 0.0
H2544 H 0.89655 0.74386 0.36829 0.0
H2545 H 0.89892 0.82116 0.34787 0.0
H2546 H 0.92 0.80809 0.35416 0.0
H2547 H 0.90394 0.81542 0.37281 0.0
C2548 C 0.95244 0.76145 0.37193 0.0
C2549 C 0.95727 0.77187 0.38879 0.0
C2550 C 0.93418 0.76219 0.36425 0.0
C2551 C 0.92033 0.77335 0.37317 0.0
C2552 C 0.92488 0.78351 0.3902 0.0
H2553 H 0.80454 0.78191 0.32548 0.0
H2554 H 0.83132 0.78461 0.34819 0.0
C2555 C 0.94325 0.78282 0.39795 0.0
C2556 C 0.90125 0.77416 0.36425 0.0
H2557 H 0.87192 0.80332 0.33837 0.0
C2558 C 0.89102 0.75692 0.362 0.0
C2559 C 0.89412 0.79124 0.35606 0.0
C2560 C 0.9048 0.81005 0.35767 0.0
C2561 C 0.87421 0.75614 0.35111 0.0
C2562 C 0.86755 0.773 0.34225 0.0
C2563 C 0.87719 0.79045 0.34525 0.0
C2564 C 0.85154 0.77232 0.32842 0.0
C2565 C 0.86397 0.73718 0.34858 0.0
C2566 C 0.85427 0.76478 0.30978 0.0
C2567 C 0.83912 0.76329 0.29677 0.0
C2568 C 0.82093 0.76924 0.30221 0.0
C2569 C 0.81835 0.77712 0.32086 0.0
C2570 C 0.83359 0.77872 0.33384 0.0
H2571 H 0.86897 0.72627 0.3591 0.0
H2572 H 0.84846 0.739 0.35036 0.0
H2573 H 0.86645 0.73172 0.33366 0.0
H2574 H 0.86812 0.75986 0.3054 0.0
H2575 H 0.84164 0.75718 0.28256 0.0
H2576 H 0.49837 0.30305 0.92948 0.0
H2577 H 0.49208 0.33629 0.93782 0.0
H2578 H 0.50691 0.35382 0.87973 0.0
H2579 H 0.51335 0.32034 0.8712 0.0
H2580 H 0.52551 0.37455 0.90867 0.0
H2581 H 0.44863 0.37182 0.92319 0.0
H2582 H 0.46071 0.3528 0.9354 0.0
H2583 H 0.46051 0.3536 0.90925 0.0
C2584 C 0.50012 0.31391 0.91839 0.0
C2585 C 0.50637 0.30912 0.89969 0.0
C2586 C 0.49633 0.33289 0.92312 0.0
C2587 C 0.49863 0.34742 0.90926 0.0
C2588 C 0.5048 0.34273 0.89052 0.0
H2589 H 0.47792 0.46268 0.95751 0.0
H2590 H 0.47652 0.43653 0.93365 0.0
C2591 C 0.50854 0.32365 0.88572 0.0
C2592 C 0.4964 0.36759 0.91524 0.0
H2593 H 0.46671 0.39641 0.94072 0.0
C2594 C 0.51251 0.37956 0.9152 0.0
C2595 C 0.47935 0.37422 0.92344 0.0
C2596 C 0.46127 0.36249 0.92264 0.0
C2597 C 0.51249 0.39727 0.9248 0.0
C2598 C 0.49603 0.40293 0.9348 0.0
C2599 C 0.4794 0.39183 0.93328 0.0
C2600 C 0.49663 0.41883 0.94892 0.0
C2601 C 0.53036 0.40937 0.92499 0.0
C2602 C 0.50802 0.41719 0.96554 0.0
C2603 C 0.50875 0.43191 0.97921 0.0
C2604 C 0.49808 0.44859 0.97652 0.0
C2605 C 0.48636 0.45004 0.95998 0.0
C2606 C 0.48556 0.43518 0.94633 0.0
H2607 H 0.5394 0.40622 0.91224 0.0
H2608 H 0.52703 0.42489 0.92505 0.0
H2609 H 0.53864 0.40613 0.93831 0.0
H2610 H 0.51636 0.40447 0.96795 0.0
H2611 H 0.51789 0.43027 0.99177 0.0
H2612 H 0.97193 0.21861 0.17564 0.0
H2613 H 0.94511 0.19811 0.18582 0.0
H2614 H 0.90724 0.24557 0.17786 0.0
H2615 H 0.93361 0.26589 0.16768 0.0
H2616 H 0.91751 0.20276 0.21598 0.0
H2617 H 0.88384 0.20248 0.14376 0.0
H2618 H 0.9087 0.20812 0.14735 0.0
H2619 H 0.89108 0.22642 0.15011 0.0
C2620 C 0.9579 0.22468 0.1764 0.0
C2621 C 0.95477 0.24378 0.17075 0.0
C2622 C 0.94264 0.21293 0.18202 0.0
C2623 C 0.9242 0.22021 0.18192 0.0
C2624 C 0.92132 0.23955 0.1774 0.0
H2625 H 0.83239 0.23584 0.23895 0.0
H2626 H 0.86319 0.22574 0.22807 0.0
C2627 C 0.93642 0.2512 0.17178 0.0
C2628 C 0.90757 0.20823 0.1869 0.0
H2629 H 0.8619 0.20322 0.17163 0.0
C2630 C 0.90548 0.2021 0.20614 0.0
C2631 C 0.89211 0.20654 0.17386 0.0
C2632 C 0.89414 0.21103 0.15255 0.0
C2633 C 0.88751 0.19725 0.21337 0.0
C2634 C 0.87147 0.19922 0.20114 0.0
C2635 C 0.8741 0.20225 0.1812 0.0
C2636 C 0.85251 0.20311 0.20924 0.0
C2637 C 0.88573 0.19158 0.2344 0.0
C2638 C 0.83605 0.19427 0.20172 0.0
C2639 C 0.81814 0.20037 0.20768 0.0
C2640 C 0.8165 0.21547 0.22113 0.0
C2641 C 0.83306 0.22411 0.22866 0.0
C2642 C 0.85079 0.21809 0.22269 0.0
H2643 H 0.89775 0.18236 0.23877 0.0
H2644 H 0.88639 0.20464 0.24363 0.0
H2645 H 0.87221 0.18379 0.23725 0.0
H2646 H 0.83706 0.18294 0.19101 0.0
H2647 H 0.80563 0.19339 0.20167 0.0
H2648 H 0.01858 0.70299 0.40299 0.0
H2649 H 0.02579 0.67198 0.41739 0.0
H2650 H 0.04381 0.70009 0.4703 0.0
H2651 H 0.03596 0.73121 0.45625 0.0
H2652 H 0.05786 0.65648 0.43162 0.0
H2653 H 0.00438 0.66317 0.49034 0.0
H2654 H 0.00561 0.67968 0.47026 0.0
H2655 H 0.02218 0.68175 0.4901 0.0
C2656 C 0.02408 0.7026 0.41769 0.0
C2657 C 0.02644 0.71953 0.42859 0.0
C2658 C 0.02826 0.68487 0.42588 0.0
C2659 C 0.03504 0.68371 0.44502 0.0
C2660 C 0.03814 0.70063 0.45568 0.0
H2661 H 0.04532 0.57614 0.51022 0.0
H2662 H 0.05374 0.60866 0.49947 0.0
C2663 C 0.03368 0.71839 0.44761 0.0
C2664 C 0.0381 0.66466 0.45385 0.0
H2665 H 0.02163 0.63466 0.48924 0.0
C2666 C 0.05011 0.65178 0.44436 0.0
C2667 C 0.02797 0.65857 0.4705 0.0
C2668 C 0.01418 0.67142 0.48083 0.0
C2669 C 0.05168 0.63274 0.45062 0.0
C2670 C 0.04106 0.62655 0.4668 0.0
C2671 C 0.02986 0.63963 0.47692 0.0
C2672 C 0.03916 0.60611 0.47188 0.0
C2673 C 0.06418 0.61918 0.43961 0.0
C2674 C 0.02844 0.59397 0.45975 0.0
C2675 C 0.02338 0.5756 0.46593 0.0
C2676 C 0.0291 0.56903 0.48429 0.0
C2677 C 0.04081 0.58081 0.49595 0.0
C2678 C 0.04562 0.59935 0.48986 0.0
H2679 H 0.07473 0.627 0.43057 0.0
H2680 H 0.07176 0.60953 0.44974 0.0
H2681 H 0.05524 0.61013 0.42985 0.0
H2682 H 0.02312 0.59909 0.44593 0.0
H2683 H 0.01442 0.56681 0.45661 0.0
H2684 H 0.57521 0.78115 0.62256 0.0
H2685 H 0.60239 0.78522 0.64405 0.0
H2686 H 0.56806 0.76908 0.69318 0.0
H2687 H 0.54053 0.76475 0.67165 0.0
H2688 H 0.6059 0.80986 0.67766 0.0
H2689 H 0.61426 0.7322 0.69453 0.0
H2690 H 0.60031 0.74025 0.67413 0.0
H2691 H 0.59142 0.74275 0.69835 0.0
C2692 C 0.57333 0.77841 0.63791 0.0
C2693 C 0.55567 0.77248 0.64535 0.0
C2694 C 0.58889 0.78083 0.65018 0.0
C2695 C 0.58721 0.77732 0.67012 0.0
C2696 C 0.56962 0.77166 0.67776 0.0
H2697 H 0.68852 0.77487 0.74471 0.0
H2698 H 0.65499 0.7753 0.73549 0.0
C2699 C 0.55393 0.76924 0.66544 0.0
C2700 C 0.60419 0.7794 0.68255 0.0
H2701 H 0.63829 0.75325 0.70521 0.0
C2702 C 0.61285 0.79756 0.684 0.0
C2703 C 0.6131 0.7633 0.69084 0.0
C2704 C 0.60444 0.74347 0.68939 0.0
C2705 C 0.63068 0.79991 0.69276 0.0
C2706 C 0.64013 0.78364 0.69995 0.0
C2707 C 0.63097 0.76567 0.69959 0.0
C2708 C 0.6602 0.78459 0.70603 0.0
C2709 C 0.63948 0.81971 0.69378 0.0
C2710 C 0.67415 0.78954 0.69243 0.0
C2711 C 0.69328 0.78923 0.69757 0.0
C2712 C 0.69881 0.7839 0.71642 0.0
C2713 C 0.68475 0.77912 0.73009 0.0
C2714 C 0.66559 0.77935 0.72488 0.0
H2715 H 0.62852 0.831 0.69331 0.0
H2716 H 0.64807 0.82157 0.70722 0.0
H2717 H 0.64894 0.82183 0.68111 0.0
H2718 H 0.67026 0.79324 0.67767 0.0
H2719 H 0.70372 0.79296 0.68668 0.0
H2720 H 0.62481 0.496 0.72304 0.0
H2721 H 0.61192 0.48136 0.69331 0.0
H2722 H 0.57019 0.52584 0.68957 0.0
H2723 H 0.58275 0.54047 0.71931 0.0
H2724 H 0.56954 0.47035 0.69029 0.0
H2725 H 0.59649 0.52032 0.63369 0.0
H2726 H 0.6083 0.51711 0.6568 0.0
H2727 H 0.58733 0.53135 0.65529 0.0
C2728 C 0.61312 0.50288 0.71568 0.0
C2729 C 0.60476 0.51939 0.72352 0.0
C2730 C 0.60575 0.49444 0.69879 0.0
C2731 C 0.59019 0.50259 0.68934 0.0
C2732 C 0.5823 0.51945 0.69667 0.0
H2733 H 0.49791 0.47779 0.61745 0.0
H2734 H 0.52035 0.47975 0.64446 0.0
C2735 C 0.58947 0.52775 0.71366 0.0
C2736 C 0.58118 0.49297 0.67255 0.0
H2737 H 0.57061 0.49984 0.62477 0.0
C2738 C 0.57002 0.47652 0.67585 0.0
C2739 C 0.58202 0.50102 0.65379 0.0
C2740 C 0.59429 0.51836 0.64953 0.0
C2741 C 0.55872 0.46857 0.661 0.0
C2742 C 0.5586 0.47739 0.64255 0.0
C2743 C 0.57069 0.49313 0.63898 0.0
C2744 C 0.54472 0.472 0.62731 0.0
C2745 C 0.5466 0.45115 0.66529 0.0
C2746 C 0.55092 0.4665 0.60885 0.0
C2747 C 0.53813 0.46535 0.59335 0.0
C2748 C 0.51895 0.47001 0.59602 0.0
C2749 C 0.51257 0.47418 0.61486 0.0
C2750 C 0.52537 0.4752 0.63036 0.0
H2751 H 0.55231 0.4429 0.67777 0.0
H2752 H 0.5321 0.4558 0.66909 0.0
H2753 H 0.54556 0.44155 0.65243 0.0
H2754 H 0.56583 0.46405 0.60622 0.0
H2755 H 0.54355 0.46203 0.57905 0.0
H2756 H 0.73094 0.35873 0.94442 0.0
H2757 H 0.73855 0.35016 0.91109 0.0
H2758 H 0.7708 0.40269 0.90475 0.0
H2759 H 0.76298 0.41157 0.93848 0.0
H2760 H 0.7433 0.38711 0.87075 0.0
H2761 H 0.79751 0.33752 0.89911 0.0
H2762 H 0.7758 0.33702 0.91265 0.0
H2763 H 0.79001 0.35859 0.91222 0.0
C2764 C 0.73936 0.36864 0.93584 0.0
C2765 C 0.74651 0.38571 0.94395 0.0
C2766 C 0.74371 0.36373 0.91686 0.0
C2767 C 0.75545 0.37568 0.90573 0.0
C2768 C 0.76177 0.39332 0.91329 0.0
H2769 H 0.78512 0.30244 0.8076 0.0
H2770 H 0.79037 0.32788 0.83167 0.0
C2771 C 0.75724 0.39838 0.93242 0.0
C2772 C 0.76176 0.36851 0.88679 0.0
H2773 H 0.78261 0.32861 0.86868 0.0
C2774 C 0.75241 0.37471 0.87002 0.0
C2775 C 0.77397 0.35264 0.88588 0.0
C2776 C 0.78507 0.34613 0.9034 0.0
C2777 C 0.75339 0.36409 0.85276 0.0
C2778 C 0.76348 0.34666 0.85267 0.0
C2779 C 0.77457 0.34177 0.86883 0.0
C2780 C 0.76055 0.33204 0.83735 0.0
C2781 C 0.74286 0.37117 0.83511 0.0
C2782 C 0.74211 0.32551 0.83309 0.0
C2783 C 0.73907 0.31107 0.81941 0.0
C2784 C 0.75445 0.30258 0.80998 0.0
C2785 C 0.77298 0.30865 0.81473 0.0
C2786 C 0.776 0.32329 0.8283 0.0
H2787 H 0.74282 0.3871 0.83473 0.0
H2788 H 0.74919 0.36579 0.82145 0.0
H2789 H 0.72787 0.36621 0.83582 0.0
H2790 H 0.73001 0.33144 0.84051 0.0
H2791 H 0.72464 0.3066 0.81618 0.0
H2792 H 0.94212 0.50875 0.25649 0.0
H2793 H 0.96055 0.51744 0.22785 0.0
H2794 H 0.90894 0.52815 0.1961 0.0
H2795 H 0.89033 0.51986 0.22474 0.0
H2796 H 0.95927 0.49914 0.19315 0.0
H2797 H 0.94059 0.57535 0.1831 0.0
H2798 H 0.93596 0.56254 0.2054 0.0
H2799 H 0.9201 0.55999 0.18499 0.0
C2800 C 0.93464 0.5131 0.24348 0.0
C2801 C 0.91471 0.51354 0.24291 0.0
C2802 C 0.94523 0.51813 0.22716 0.0
C2803 C 0.93612 0.52376 0.20999 0.0
C2804 C 0.91626 0.52433 0.20938 0.0
H2805 H 0.95743 0.53045 0.09009 0.0
H2806 H 0.94577 0.53339 0.12323 0.0
C2807 C 0.90564 0.51939 0.22572 0.0
C2808 C 0.94727 0.52736 0.19222 0.0
H2809 H 0.95412 0.55945 0.15546 0.0
C2810 C 0.95844 0.51245 0.18508 0.0
C2811 C 0.94615 0.54477 0.18178 0.0
C2812 C 0.9352 0.56164 0.18931 0.0
C2813 C 0.96775 0.51408 0.16723 0.0
C2814 C 0.96602 0.53119 0.15642 0.0
C2815 C 0.95541 0.54638 0.16386 0.0
C2816 C 0.97357 0.53268 0.13654 0.0
C2817 C 0.97856 0.49711 0.1596 0.0
C2818 C 0.99312 0.53206 0.1331 0.0
C2819 C -0.00012 0.53032 0.11414 0.0
C2820 C 0.98713 0.52916 0.09839 0.0
C2821 C 0.96763 0.53109 0.10189 0.0
C2822 C 0.96092 0.53286 0.12081 0.0
H2823 H 0.97594 0.48395 0.16831 0.0
H2824 H 0.9746 0.49411 0.14426 0.0
H2825 H 0.99397 0.50043 0.16009 0.0
H2826 H 0.00309 0.53214 0.14511 0.0
H2827 H 0.015 0.529 0.11193 0.0
H2828 H 0.71967 0.66423 0.44358 0.0
H2829 H 0.7109 0.67464 0.41119 0.0
H2830 H 0.71747 0.61697 0.38966 0.0
H2831 H 0.72674 0.60642 0.42233 0.0
H2832 H 0.73747 0.64214 0.36911 0.0
H2833 H 0.66556 0.67065 0.37629 0.0
H2834 H 0.68017 0.68031 0.39533 0.0
H2835 H 0.67567 0.65481 0.3942 0.0
C2836 C 0.71893 0.65365 0.43206 0.0
C2837 C 0.72402 0.63454 0.43543 0.0
C2838 C 0.71364 0.65958 0.41356 0.0
C2839 C 0.71309 0.6465 0.39807 0.0
C2840 C 0.71755 0.62723 0.40149 0.0
H2841 H 0.72201 0.69709 0.28107 0.0
H2842 H 0.71149 0.67302 0.30466 0.0
C2843 C 0.72291 0.62125 0.4201 0.0
C2844 C 0.7108 0.65389 0.37809 0.0
H2845 H 0.68626 0.68758 0.35278 0.0
C2846 C 0.72592 0.65152 0.36518 0.0
C2847 C 0.69567 0.66602 0.37292 0.0
C2848 C 0.67827 0.66789 0.38539 0.0
C2849 C 0.72731 0.66254 0.34824 0.0
C2850 C 0.71316 0.67614 0.34419 0.0
C2851 C 0.69718 0.67725 0.35612 0.0
C2852 C 0.71641 0.69125 0.32963 0.0
C2853 C 0.74469 0.66081 0.33568 0.0
C2854 C 0.72209 0.70954 0.33596 0.0
C2855 C 0.72822 0.72326 0.32263 0.0
C2856 C 0.72866 0.71891 0.30271 0.0
C2857 C 0.72189 0.70088 0.29633 0.0
C2858 C 0.71587 0.68711 0.30973 0.0
H2859 H 0.75478 0.65005 0.34135 0.0
H2860 H 0.7404 0.65653 0.32075 0.0
H2861 H 0.75212 0.6749 0.3347 0.0
H2862 H 0.72262 0.71291 0.35133 0.0
H2863 H 0.73319 0.73704 0.328 0.0
H2864 H 0.59024 0.5414 0.81182 0.0
H2865 H 0.5751 0.5486 0.84268 0.0
H2866 H 0.62562 0.53171 0.87337 0.0
H2867 H 0.64094 0.52431 0.84237 0.0
H2868 H 0.59263 0.51327 0.88575 0.0
H2869 H 0.58217 0.59184 0.88252 0.0
H2870 H 0.57409 0.57945 0.8611 0.0
H2871 H 0.59889 0.57957 0.86723 0.0
C2872 C 0.59826 0.53947 0.8251 0.0
C2873 C 0.61675 0.53221 0.82471 0.0
C2874 C 0.58963 0.54377 0.84272 0.0
C2875 C 0.59934 0.54098 0.86026 0.0
C2876 C 0.61798 0.53414 0.85993 0.0
H2877 H 0.55683 0.55298 0.97795 0.0
H2878 H 0.57521 0.55801 0.94833 0.0
C2879 C 0.62668 0.52989 0.84226 0.0
C2880 C 0.58921 0.54314 0.87886 0.0
H2881 H 0.56331 0.57451 0.90578 0.0
C2882 C 0.58646 0.52672 0.89027 0.0
C2883 C 0.58117 0.56072 0.88467 0.0
C2884 C 0.58436 0.57895 0.87334 0.0
C2885 C 0.57529 0.52724 0.90701 0.0
C2886 C 0.56661 0.54459 0.91236 0.0
C2887 C 0.56985 0.56121 0.9014 0.0
C2888 C 0.55403 0.54534 0.92935 0.0
C2889 C 0.57253 0.50915 0.91873 0.0
C2890 C 0.53577 0.53729 0.92821 0.0
C2891 C 0.5252 0.53439 0.94507 0.0
C2892 C 0.53284 0.53937 0.96332 0.0
C2893 C 0.55058 0.54883 0.96416 0.0
C2894 C 0.5611 0.55178 0.94726 0.0
H2895 H 0.58225 0.4976 0.91412 0.0
H2896 H 0.57489 0.51213 0.93441 0.0
H2897 H 0.55772 0.50388 0.91693 0.0
H2898 H 0.53015 0.53227 0.91442 0.0
H2899 H 0.51158 0.52715 0.94386 0.0
H2900 H 0.74032 0.36654 0.05387 0.0
H2901 H 0.73607 0.34836 0.08397 0.0
H2902 H 0.74886 0.29599 0.05367 0.0
H2903 H 0.75326 0.31387 0.02361 0.0
H2904 H 0.71049 0.31495 0.09083 0.0
H2905 H 0.78716 0.29941 0.10021 0.0
H2906 H 0.77874 0.31841 0.08474 0.0
H2907 H 0.7772 0.29393 0.07674 0.0
C2908 C 0.74226 0.35117 0.05359 0.0
C2909 C 0.74729 0.34169 0.03634 0.0
C2910 C 0.73975 0.34082 0.07077 0.0
C2911 C 0.74235 0.32094 0.07096 0.0
C2912 C 0.74702 0.31139 0.05377 0.0
H2913 H 0.74707 0.23769 0.1643 0.0
H2914 H 0.74519 0.25255 0.1322 0.0
C2915 C 0.74949 0.32166 0.03662 0.0
C2916 C 0.74051 0.3101 0.0892 0.0
H2917 H 0.76603 0.28466 0.1222 0.0
C2918 C 0.72259 0.30831 0.09775 0.0
C2919 C 0.75636 0.30144 0.098 0.0
C2920 C 0.776 0.30345 0.08959 0.0
C2921 C 0.72007 0.29788 0.11496 0.0
C2922 C 0.73597 0.28939 0.12389 0.0
C2923 C 0.75386 0.29108 0.11521 0.0
C2924 C 0.73474 0.27962 0.14285 0.0
C2925 C 0.70041 0.29585 0.1233 0.0
C2926 C 0.7293 0.2899 0.15937 0.0
C2927 C 0.73032 0.28148 0.17768 0.0
C2928 C 0.737 0.26267 0.17983 0.0
C2929 C 0.74188 0.2522 0.16316 0.0
C2930 C 0.74082 0.26065 0.14482 0.0
H2931 H 0.68934 0.29799 0.11201 0.0
H2932 H 0.69824 0.28153 0.13 0.0
H2933 H 0.69847 0.30691 0.1347 0.0
H2934 H 0.72497 0.3047 0.1582 0.0
H2935 H 0.72646 0.28998 0.1902 0.0
H2936 H 0.8878 0.52601 0.33977 0.0
H2937 H 0.89891 0.51277 0.37051 0.0
H2938 H 0.86361 0.46254 0.36169 0.0
H2939 H 0.85205 0.47614 0.33083 0.0
H2940 H 0.8786 0.49443 0.40596 0.0
H2941 H 0.92295 0.44714 0.35965 0.0
H2942 H 0.91294 0.4686 0.34946 0.0
H2943 H 0.89772 0.44884 0.35577 0.0
C2944 C 0.88183 0.51253 0.34482 0.0
C2945 C 0.869 0.50213 0.33325 0.0
C2946 C 0.88818 0.50496 0.3623 0.0
C2947 C 0.8821 0.48669 0.36823 0.0
C2948 C 0.86833 0.47672 0.35731 0.0
H2949 H 0.96164 0.45544 0.46227 0.0
H2950 H 0.9358 0.4479 0.43938 0.0
C2951 C 0.86167 0.48452 0.33986 0.0
C2952 C 0.89256 0.47757 0.38423 0.0
H2953 H 0.93481 0.45513 0.39075 0.0
C2954 C 0.89042 0.48509 0.40295 0.0
C2955 C 0.90799 0.46546 0.38014 0.0
C2956 C 0.91067 0.45694 0.3602 0.0
C2957 C 0.90442 0.48243 0.41714 0.0
C2958 C 0.92092 0.47224 0.41228 0.0
C2959 C 0.9221 0.46297 0.39429 0.0
C2960 C 0.9383 0.47475 0.42393 0.0
C2961 C 0.90242 0.4921 0.43662 0.0
C2962 C 0.94863 0.49192 0.42208 0.0
C2963 C 0.96327 0.49628 0.43501 0.0
C2964 C 0.96785 0.48347 0.44998 0.0
C2965 C 0.95848 0.46554 0.45081 0.0
C2966 C 0.94367 0.46124 0.43786 0.0
H2967 H 0.88745 0.49581 0.43967 0.0
H2968 H 0.90775 0.48272 0.44842 0.0
H2969 H 0.91102 0.50553 0.43677 0.0
H2970 H 0.94468 0.50242 0.41124 0.0
H2971 H 0.9703 0.51014 0.43395 0.0
H2972 H 0.75974 0.63556 0.54171 0.0
H2973 H 0.77313 0.64901 0.57171 0.0
H2974 H 0.7475 0.70338 0.55893 0.0
H2975 H 0.73417 0.69027 0.52897 0.0
H2976 H 0.78722 0.70497 0.5702 0.0
H2977 H 0.74188 0.66257 0.621 0.0
H2978 H 0.75472 0.64971 0.60272 0.0
H2979 H 0.73586 0.66526 0.59565 0.0
C2980 C 0.75687 0.65036 0.54531 0.0
C2981 C 0.74579 0.66181 0.53295 0.0
C2982 C 0.76454 0.65799 0.56245 0.0
C2983 C 0.76119 0.67712 0.56749 0.0
C2984 C 0.75024 0.68858 0.5552 0.0
H2985 H 0.76902 0.76267 0.65184 0.0
H2986 H 0.76938 0.74315 0.62249 0.0
C2987 C 0.74258 0.68101 0.53812 0.0
C2988 C 0.76884 0.68545 0.58565 0.0
H2989 H 0.76168 0.6863 0.63456 0.0
C2990 C 0.78187 0.70073 0.58433 0.0
C2991 C 0.76195 0.67971 0.604 0.0
C2992 C 0.74775 0.66349 0.60608 0.0
C2993 C 0.78758 0.71103 0.60088 0.0
C2994 C 0.77976 0.70607 0.61907 0.0
C2995 C 0.76761 0.69006 0.62054 0.0
C2996 C 0.78211 0.71855 0.63629 0.0
C2997 C 0.80157 0.72739 0.59868 0.0
C2998 C 0.78913 0.71116 0.65379 0.0
C2999 C 0.78885 0.72227 0.67068 0.0
C3000 C 0.7813 0.74087 0.67036 0.0
C3001 C 0.77491 0.74842 0.65262 0.0
C3002 C 0.77526 0.73733 0.63577 0.0
H3003 H 0.81082 0.72526 0.58586 0.0
H3004 H 0.79372 0.74091 0.59646 0.0
H3005 H 0.81062 0.72904 0.61183 0.0
H3006 H 0.79433 0.69662 0.65448 0.0
H3007 H 0.79387 0.71601 0.68411 0.0
H3008 H 0.65782 0.63156 0.48135 0.0
H3009 H 0.62964 0.61151 0.48595 0.0
H3010 H 0.66477 0.56385 0.50194 0.0
H3011 H 0.69314 0.58384 0.49766 0.0
H3012 H 0.61982 0.57687 0.46722 0.0
H3013 H 0.62717 0.56767 0.54712 0.0
H3014 H 0.64027 0.58572 0.53384 0.0
H3015 H 0.64755 0.56113 0.53316 0.0
C3016 C 0.65962 0.61684 0.48592 0.0
C3017 C 0.67777 0.60936 0.48927 0.0
C3018 C 0.64348 0.6054 0.48849 0.0
C3019 C 0.64516 0.58631 0.4945 0.0
C3020 C 0.6632 0.57868 0.49764 0.0
H3021 H 0.55954 0.50005 0.52168 0.0
H3022 H 0.58927 0.51665 0.51419 0.0
C3023 C 0.67939 0.59012 0.49512 0.0
C3024 C 0.62793 0.57443 0.4973 0.0
H3025 H 0.60217 0.55068 0.5317 0.0
C3026 C 0.61594 0.57111 0.4813 0.0
C3027 C 0.623 0.56694 0.51569 0.0
C3028 C 0.63506 0.57063 0.5335 0.0
C3029 C 0.59908 0.56045 0.4832 0.0
C3030 C 0.59402 0.55322 0.50165 0.0
C3031 C 0.60615 0.55627 0.51758 0.0
C3032 C 0.57594 0.54286 0.50492 0.0
C3033 C 0.58693 0.55687 0.46545 0.0
C3034 C 0.55863 0.55217 0.50217 0.0
C3035 C 0.54158 0.54275 0.50643 0.0
C3036 C 0.54158 0.52389 0.51364 0.0
C3037 C 0.559 0.51456 0.51616 0.0
C3038 C 0.57602 0.524 0.51189 0.0
H3039 H 0.5951 0.55885 0.45183 0.0
H3040 H 0.58077 0.54214 0.4656 0.0
H3041 H 0.57508 0.56719 0.46531 0.0
H3042 H 0.55832 0.56687 0.49715 0.0
H3043 H 0.52844 0.55037 0.5044 0.0
H3044 H 0.20577 0.88687 0.49595 0.0
H3045 H 0.17403 0.8961 0.50616 0.0
H3046 H 0.1985 0.93719 0.5463 0.0
H3047 H 0.23026 0.92887 0.53507 0.0
H3048 H 0.15518 0.89538 0.53878 0.0
H3049 H 0.165 0.97136 0.51633 0.0
H3050 H 0.18219 0.95331 0.51089 0.0
H3051 H 0.18132 0.9639 0.53475 0.0
C3052 C 0.20431 0.89796 0.50686 0.0
C3053 C 0.2203 0.9075 0.51445 0.0
C3054 C 0.18622 0.90313 0.51279 0.0
C3055 C 0.18386 0.91763 0.52672 0.0
C3056 C 0.19994 0.92644 0.53507 0.0
H3057 H 0.06635 0.94351 0.56278 0.0
H3058 H 0.09871 0.93073 0.56432 0.0
C3059 C 0.21804 0.92167 0.5287 0.0
C3060 C 0.16453 0.92402 0.53159 0.0
H3061 H 0.13578 0.96287 0.52999 0.0
C3062 C 0.1509 0.91015 0.53693 0.0
C3063 C 0.15903 0.94331 0.52915 0.0
C3064 C 0.17259 0.95879 0.5223 0.0
C3065 C 0.13173 0.91487 0.53892 0.0
C3066 C 0.12625 0.93409 0.53617 0.0
C3067 C 0.14006 0.94812 0.532 0.0
C3068 C 0.10619 0.93989 0.53524 0.0
C3069 C 0.11745 0.8991 0.5429 0.0
C3070 C 0.09973 0.94919 0.51846 0.0
C3071 C 0.08168 0.95686 0.51782 0.0
C3072 C 0.06957 0.955 0.53378 0.0
C3073 C 0.07551 0.94487 0.55026 0.0
C3074 C 0.0939 0.93755 0.5511 0.0
H3075 H 0.12344 0.88465 0.54041 0.0
H3076 H 0.11293 0.89993 0.55829 0.0
H3077 H 0.10469 0.90068 0.53357 0.0
H3078 H 0.10892 0.95103 0.50601 0.0
H3079 H 0.07728 0.96458 0.50495 0.0
H3080 H 0.32887 0.94611 0.77115 0.0
H3081 H 0.31228 0.91528 0.76843 0.0
H3082 H 0.3581 0.88764 0.79856 0.0
H3083 H 0.3749 0.91842 0.80145 0.0
H3084 H 0.34346 0.86894 0.76247 0.0
H3085 H 0.28784 0.88665 0.81632 0.0
H3086 H 0.29211 0.90431 0.79778 0.0
H3087 H 0.31032 0.89928 0.81527 0.0
C3088 C 0.33554 0.93349 0.7771 0.0
C3089 C 0.35322 0.93478 0.78658 0.0
C3090 C 0.32596 0.91592 0.77562 0.0
C3091 C 0.33389 0.89932 0.78355 0.0
C3092 C 0.35174 0.90037 0.79249 0.0
H3093 H 0.29435 0.77994 0.77746 0.0
H3094 H 0.31284 0.80885 0.78528 0.0
C3095 C 0.3613 0.91797 0.79409 0.0
C3096 C 0.32345 0.88088 0.78246 0.0
H3097 H 0.28332 0.85806 0.79813 0.0
C3098 C 0.3304 0.86643 0.77037 0.0
C3099 C 0.30644 0.87779 0.79281 0.0
C3100 C 0.29874 0.89274 0.80641 0.0
C3101 C 0.32037 0.8491 0.76778 0.0
C3102 C 0.30321 0.84606 0.77798 0.0
C3103 C 0.29649 0.86042 0.79038 0.0
C3104 C 0.29149 0.82852 0.77512 0.0
C3105 C 0.32785 0.83458 0.75355 0.0
C3106 C 0.273 0.83003 0.76778 0.0
C3107 C 0.2623 0.81358 0.76355 0.0
C3108 C 0.26991 0.79527 0.76656 0.0
C3109 C 0.28812 0.79381 0.7748 0.0
C3110 C 0.29877 0.81031 0.77914 0.0
H3111 H 0.33849 0.84103 0.74357 0.0
H3112 H 0.33483 0.82287 0.76167 0.0
H3113 H 0.31617 0.8282 0.74473 0.0
H3114 H 0.26707 0.84397 0.7647 0.0
H3115 H 0.24832 0.81527 0.75727 0.0
H3116 H 0.31828 0.14484 0.99132 0.0
H3117 H 0.35008 0.1314 0.99252 0.0
H3118 H 0.32668 0.0771 0.01115 0.0
H3119 H 0.29472 0.09038 0.00983 0.0
H3120 H 0.36983 0.11427 0.02393 0.0
H3121 H 0.35788 0.06403 0.96225 0.0
H3122 H 0.34228 0.08373 0.9673 0.0
H3123 H 0.34079 0.06213 0.98143 0.0
C3124 C 0.31988 0.13004 0.99571 0.0
C3125 C 0.304 0.1186 0.00033 0.0
C3126 C 0.33806 0.12242 0.99642 0.0
C3127 C 0.34064 0.10322 0.00166 0.0
C3128 C 0.32489 0.09187 0.00676 0.0
H3129 H 0.4429 0.04411 0.03244 0.0
H3130 H 0.41317 0.06157 0.03245 0.0
C3131 C 0.30668 0.09949 0.00608 0.0
C3132 C 0.35984 0.09505 0.00152 0.0
H3133 H 0.38675 0.06105 0.97962 0.0
C3134 C 0.37359 0.10267 0.01423 0.0
C3135 C 0.36471 0.08015 0.98859 0.0
C3136 C 0.35072 0.07211 0.97398 0.0
C3137 C 0.39206 0.09545 0.01465 0.0
C3138 C 0.39673 0.08011 0.00219 0.0
C3139 C 0.38307 0.07277 0.98921 0.0
C3140 C 0.41554 0.07104 0.00264 0.0
C3141 C 0.40645 0.10442 0.02827 0.0
C3142 C 0.42667 0.07051 0.98582 0.0
C3143 C 0.44364 0.06043 0.9857 0.0
C3144 C 0.4497 0.05057 0.00238 0.0
C3145 C 0.4387 0.05155 0.01935 0.0
C3146 C 0.42174 0.06163 0.01944 0.0
H3147 H 0.40229 0.11908 0.03275 0.0
H3148 H 0.40754 0.0955 0.04156 0.0
H3149 H 0.42067 0.1052 0.02145 0.0
H3150 H 0.42204 0.07764 0.97269 0.0
H3151 H 0.45176 0.05997 0.97239 0.0
H3152 H 0.63467 0.60319 0.78906 0.0
H3153 H 0.65775 0.62963 0.78916 0.0
H3154 H 0.70189 0.5906 0.77297 0.0
H3155 H 0.679 0.56406 0.77266 0.0
H3156 H 0.69369 0.63366 0.81055 0.0
H3157 H 0.70198 0.63273 0.73016 0.0
H3158 H 0.68231 0.62108 0.74219 0.0
H3159 H 0.70526 0.61028 0.74246 0.0
C3160 C 0.64928 0.60019 0.78553 0.0
C3161 C 0.65492 0.58151 0.78064 0.0
C3162 C 0.66245 0.6153 0.78569 0.0
C3163 C 0.68142 0.61203 0.78089 0.0
C3164 C 0.68723 0.5934 0.77648 0.0
H3165 H 0.76934 0.69641 0.75402 0.0
H3166 H 0.754 0.66598 0.76252 0.0
C3167 C 0.6741 0.57827 0.77633 0.0
C3168 C 0.69496 0.62829 0.77978 0.0
H3169 H 0.72023 0.65531 0.74757 0.0
C3170 C 0.69961 0.63838 0.79683 0.0
C3171 C 0.7027 0.63425 0.76186 0.0
C3172 C 0.69776 0.62416 0.74306 0.0
C3173 C 0.71173 0.65447 0.79638 0.0
C3174 C 0.719 0.6608 0.77834 0.0
C3175 C 0.71471 0.65038 0.7614 0.0
C3176 C 0.72982 0.679 0.77628 0.0
C3177 C 0.71665 0.6645 0.81519 0.0
C3178 C 0.7215 0.6964 0.78155 0.0
C3179 C 0.73025 0.71381 0.77681 0.0
C3180 C 0.74738 0.71414 0.76643 0.0
C3181 C 0.75612 0.69668 0.76194 0.0
C3182 C 0.74739 0.67926 0.7668 0.0
H3183 H 0.71553 0.65455 0.82773 0.0
H3184 H 0.73121 0.6707 0.81485 0.0
H3185 H 0.70652 0.67631 0.81761 0.0
H3186 H 0.70774 0.69656 0.78845 0.0
H3187 H 0.72309 0.72697 0.78046 0.0
H3188 H 0.80018 0.41797 -0.00065 0.0
H3189 H 0.83209 0.43137 0.00231 0.0
H3190 H 0.8549 0.38099 0.97511 0.0
H3191 H 0.82286 0.36727 0.97209 0.0
H3192 H 0.87259 0.39253 0.01129 0.0
H3193 H 0.86711 0.45269 0.95908 0.0
H3194 H 0.84779 0.45128 0.97593 0.0
H3195 H 0.85111 0.43227 0.95867 0.0
C3196 C 0.81192 0.40972 0.99386 0.0
C3197 C 0.80896 0.39151 0.98552 0.0
C3198 C 0.83014 0.41749 0.99545 0.0
C3199 C 0.84575 0.40725 0.98871 0.0
C3200 C 0.84294 0.38913 0.98026 0.0
H3201 H 0.96533 0.43896 0.0078 0.0
H3202 H 0.9368 0.42114 -0.00211 0.0
C3203 C 0.82465 0.38135 0.97854 0.0
C3204 C 0.86503 0.41519 0.99163 0.0
H3205 H 0.8925 0.45459 0.9822 0.0
C3206 C 0.87715 0.40593 0.00471 0.0
C3207 C 0.8708 0.43265 0.98299 0.0
C3208 C 0.8586 0.44274 0.96824 0.0
C3209 C 0.89456 0.41426 0.01021 0.0
C3210 C 0.9 0.4321 0.00213 0.0
C3211 C 0.88819 0.44095 0.98845 0.0
C3212 C 0.91734 0.44245 0.00847 0.0
C3213 C 0.90654 0.40439 0.02531 0.0
C3214 C 0.91579 0.46038 0.0175 0.0
C3215 C 0.932 0.47064 0.02308 0.0
C3216 C 0.9501 0.46316 0.01967 0.0
C3217 C 0.9516 0.44507 0.01075 0.0
C3218 C 0.93533 0.43484 0.00513 0.0
H3219 H 0.89857 0.3928 0.03289 0.0
H3220 H 0.91898 0.39791 0.01816 0.0
H3221 H 0.91186 0.41484 0.03629 0.0
H3222 H 0.90199 0.46648 0.02018 0.0
H3223 H 0.93031 0.48451 0.0299 0.0
H3224 H 0.32167 0.02346 0.73741 0.0
H3225 H 0.30842 0.05204 0.72178 0.0
H3226 H 0.32473 0.08609 0.77161 0.0
H3227 H 0.33837 0.05798 0.78691 0.0
H3228 H 0.28077 0.07697 0.73209 0.0
H3229 H 0.34912 0.1157 0.72794 0.0
H3230 H 0.34757 0.09043 0.7334 0.0
H3231 H 0.34494 0.10802 0.75239 0.0
C3232 C 0.32235 0.03707 0.74499 0.0
C3233 C 0.33123 0.03859 0.76325 0.0
C3234 C 0.31483 0.05334 0.73605 0.0
C3235 C 0.31609 0.07126 0.74532 0.0
C3236 C 0.32418 0.07253 0.76392 0.0
H3237 H 0.25306 0.17165 0.74784 0.0
H3238 H 0.26333 0.13845 0.74622 0.0
C3239 C 0.33185 0.05642 0.77271 0.0
C3240 C 0.30888 0.08881 0.73596 0.0
H3241 H 0.32113 0.13556 0.72863 0.0
C3242 C 0.28963 0.08973 0.7309 0.0
C3243 C 0.32058 0.10525 0.73372 0.0
C3244 C 0.34175 0.10472 0.73694 0.0
C3245 C 0.28146 0.10713 0.72528 0.0
C3246 C 0.29273 0.12407 0.7254 0.0
C3247 C 0.3123 0.12272 0.72886 0.0
C3248 C 0.28451 0.14352 0.72402 0.0
C3249 C 0.2608 0.10715 0.71957 0.0
C3250 C 0.29312 0.1576 0.71232 0.0
C3251 C 0.28773 0.17674 0.71379 0.0
C3252 C 0.27337 0.18207 0.72671 0.0
C3253 C 0.26405 0.16787 0.73763 0.0
C3254 C 0.26978 0.14882 0.73653 0.0
H3255 H 0.25673 0.09345 0.71232 0.0
H3256 H 0.25201 0.10842 0.73282 0.0
H3257 H 0.25748 0.11919 0.70964 0.0
H3258 H 0.30454 0.15391 0.7026 0.0
H3259 H 0.29504 0.18742 0.70511 0.0
H3260 H 0.13037 0.94683 0.2642 0.0
H3261 H 0.14532 0.916 0.25772 0.0
H3262 H 0.19819 0.94506 0.24551 0.0
H3263 H 0.1834 0.97599 0.25198 0.0
H3264 H 0.1669 0.90271 0.22299 0.0
H3265 H 0.20854 0.90697 0.29187 0.0
H3266 H 0.18791 0.92145 0.28758 0.0
H3267 H 0.20988 0.92732 0.27587 0.0
C3268 C 0.14514 0.94668 0.25999 0.0
C3269 C 0.15577 0.9638 0.25877 0.0
C3270 C 0.15361 0.92908 0.25622 0.0
C3271 C 0.17285 0.92834 0.25131 0.0
C3272 C 0.18335 0.94541 0.24944 0.0
H3273 H 0.23562 0.82355 0.22421 0.0
H3274 H 0.22368 0.85644 0.22266 0.0
C3275 C 0.17487 0.96303 0.25312 0.0
C3276 C 0.18212 0.9096 0.2493 0.0
H3277 H 0.21232 0.87942 0.27263 0.0
C3278 C 0.17699 0.89764 0.23369 0.0
C3279 C 0.19513 0.9031 0.26343 0.0
C3280 C 0.20067 0.91526 0.28074 0.0
C3281 C 0.18444 0.87914 0.23197 0.0
C3282 C 0.19724 0.87259 0.24624 0.0
C3283 C 0.20258 0.88465 0.26167 0.0
C3284 C 0.20404 0.85269 0.2464 0.0
C3285 C 0.17814 0.86643 0.21537 0.0
C3286 C 0.19691 0.83989 0.26029 0.0
C3287 C 0.20361 0.82121 0.26121 0.0
C3288 C 0.21771 0.815 0.24834 0.0
C3289 C 0.22478 0.82789 0.23434 0.0
C3290 C 0.21796 0.84662 0.23337 0.0
H3291 H 0.16699 0.87316 0.20632 0.0
H3292 H 0.19048 0.86326 0.206 0.0
H3293 H 0.17262 0.85256 0.22105 0.0
H3294 H 0.18619 0.84441 0.27048 0.0
H3295 H 0.19784 0.81171 0.27218 0.0
H3296 H 0.51135 0.33078 0.36253 0.0
H3297 H 0.51034 0.36324 0.37645 0.0
H3298 H 0.54343 0.34428 0.42548 0.0
H3299 H 0.54411 0.31198 0.41191 0.0
H3300 H 0.49291 0.36392 0.41482 0.0
H3301 H 0.56339 0.39998 0.41471 0.0
H3302 H 0.5564 0.38219 0.39683 0.0
H3303 H 0.5638 0.3749 0.42068 0.0
C3304 C 0.51899 0.33382 0.37589 0.0
C3305 C 0.52769 0.31904 0.38631 0.0
C3306 C 0.51844 0.35229 0.38378 0.0
C3307 C 0.52699 0.35611 0.40185 0.0
C3308 C 0.53708 0.34168 0.41134 0.0
H3309 H 0.5217 0.42533 0.50315 0.0
H3310 H 0.52995 0.40392 0.47625 0.0
C3311 C 0.53731 0.32323 0.40369 0.0
C3312 C 0.52199 0.37333 0.41298 0.0
H3313 H 0.54144 0.41021 0.43909 0.0
C3314 C 0.50336 0.37439 0.41979 0.0
C3315 C 0.53583 0.38656 0.41966 0.0
C3316 C 0.55597 0.386 0.41249 0.0
C3317 C 0.49838 0.38766 0.43407 0.0
C3318 C 0.51233 0.4007 0.44114 0.0
C3319 C 0.5308 0.40018 0.43366 0.0
C3320 C 0.50812 0.41437 0.45689 0.0
C3321 C 0.47858 0.3867 0.4423 0.0
C3322 C 0.49336 0.42746 0.45475 0.0
C3323 C 0.48834 0.43925 0.47017 0.0
C3324 C 0.49835 0.43854 0.48785 0.0
C3325 C 0.51367 0.42602 0.48973 0.0
C3326 C 0.51844 0.4139 0.47437 0.0
H3327 H 0.47153 0.37269 0.43922 0.0
H3328 H 0.47872 0.38899 0.45826 0.0
H3329 H 0.46987 0.39805 0.43553 0.0
H3330 H 0.48559 0.42844 0.44119 0.0
H3331 H 0.47676 0.4491 0.46814 0.0
H3332 H 0.4728 0.76561 0.20998 0.0
H3333 H 0.4447 0.76411 0.23092 0.0
H3334 H 0.4115 0.74204 0.18293 0.0
H3335 H 0.43928 0.74372 0.16202 0.0
H3336 H 0.41138 0.78607 0.21939 0.0
H3337 H 0.39492 0.70892 0.23044 0.0
H3338 H 0.41843 0.71769 0.2246 0.0
H3339 H 0.40081 0.71501 0.20583 0.0
C3340 C 0.45964 0.75985 0.20414 0.0
C3341 C 0.4581 0.75483 0.18443 0.0
C3342 C 0.44364 0.75909 0.21605 0.0
C3343 C 0.42613 0.75288 0.20843 0.0
C3344 C 0.42496 0.74663 0.18912 0.0
H3345 H 0.30996 0.77747 0.21836 0.0
H3346 H 0.34406 0.77788 0.21186 0.0
C3347 C 0.4408 0.74765 0.17718 0.0
C3348 C 0.4085 0.75528 0.21951 0.0
H3349 H 0.36907 0.73071 0.23408 0.0
C3350 C 0.40226 0.77399 0.22304 0.0
C3351 C 0.39673 0.73947 0.2242 0.0
C3352 C 0.4031 0.71912 0.22124 0.0
C3353 C 0.384 0.77732 0.23014 0.0
C3354 C 0.37179 0.76153 0.23364 0.0
C3355 C 0.37846 0.7428 0.2312 0.0
C3356 C 0.3517 0.76398 0.23883 0.0
C3357 C 0.37775 0.79767 0.2334 0.0
C3358 C 0.34484 0.75626 0.25621 0.0
C3359 C 0.32546 0.75595 0.25993 0.0
C3360 C 0.31254 0.76322 0.24622 0.0
C3361 C 0.31954 0.77182 0.22922 0.0
C3362 C 0.33901 0.77212 0.22552 0.0
H3363 H 0.39006 0.80763 0.23505 0.0
H3364 H 0.3693 0.80242 0.22069 0.0
H3365 H 0.36871 0.79872 0.24651 0.0
H3366 H 0.35445 0.74988 0.26662 0.0
H3367 H 0.32058 0.74936 0.27326 0.0
H3368 H 0.96311 0.72056 0.95893 0.0
H3369 H 0.95683 0.68912 0.97326 0.0
H3370 H 0.00087 0.66463 0.93824 0.0
H3371 H 0.0073 0.69603 0.92361 0.0
H3372 H 0.95034 0.65042 0.94741 0.0
H3373 H 0.00945 0.65396 0.00135 0.0
H3374 H -0.00183 0.67525 0.99215 0.0
H3375 H 0.01399 0.66211 0.97695 0.0
C3376 C 0.97154 0.70854 0.95426 0.0
C3377 C 0.98576 0.71082 0.94013 0.0
C3378 C 0.96784 0.6906 0.96242 0.0
C3379 C 0.97839 0.67474 0.95673 0.0
C3380 C 0.99261 0.67685 0.94272 0.0
H3381 H 0.98486 0.55608 0.97017 0.0
H3382 H 0.97841 0.58841 0.95848 0.0
C3383 C 0.99625 0.69476 0.93442 0.0
C3384 C 0.97472 0.65592 0.96559 0.0
H3385 H 0.99277 0.62452 -0.00156 0.0
C3386 C 0.95945 0.64476 0.95871 0.0
C3387 C 0.98657 0.64886 0.98041 0.0
C3388 C 0.00295 0.66062 0.98831 0.0
C3389 C 0.95621 0.62618 0.96582 0.0
C3390 C 0.96852 0.61884 0.98012 0.0
C3391 C 0.9833 0.63034 0.98755 0.0
C3392 C 0.96786 0.59859 0.98603 0.0
C3393 C 0.93997 0.61432 0.95782 0.0
C3394 C 0.96345 0.59358 0.00521 0.0
C3395 C 0.96691 0.57503 0.01188 0.0
C3396 C 0.97526 0.56152 -0.00048 0.0
C3397 C 0.97848 0.56627 0.97999 0.0
C3398 C 0.97473 0.58467 0.97327 0.0
H3399 H 0.92959 0.62326 0.94983 0.0
H3400 H 0.94557 0.60343 0.94765 0.0
H3401 H 0.93254 0.6066 0.96971 0.0
H3402 H 0.95831 0.60428 0.01525 0.0
H3403 H 0.96442 0.57175 0.02704 0.0
H3404 H 0.03475 0.25296 0.66935 0.0
H3405 H 0.06453 0.25109 0.68737 0.0
H3406 H 0.09183 0.28708 0.64471 0.0
H3407 H 0.06215 0.28915 0.62656 0.0
H3408 H 0.09667 0.23503 0.66897 0.0
H3409 H 0.11179 0.3082 0.69724 0.0
H3410 H 0.08825 0.30019 0.69033 0.0
H3411 H 0.10498 0.30741 0.67207 0.0
C3412 C 0.04695 0.26088 0.664 0.0
C3413 C 0.04613 0.27102 0.64636 0.0
C3414 C 0.06393 0.25977 0.67434 0.0
C3415 C 0.08027 0.26898 0.66736 0.0
C3416 C 0.07926 0.28009 0.65044 0.0
H3417 H 0.19985 0.26938 0.68443 0.0
H3418 H 0.16711 0.27291 0.67364 0.0
C3419 C 0.0623 0.28115 0.64004 0.0
C3420 C 0.09884 0.26502 0.67624 0.0
H3421 H 0.13776 0.28657 0.69647 0.0
C3422 C 0.1056 0.24621 0.67525 0.0
C3423 C 0.11036 0.27971 0.68428 0.0
C3424 C 0.10345 0.3 0.68623 0.0
C3425 C 0.12399 0.24181 0.68137 0.0
C3426 C 0.1357 0.25659 0.689 0.0
C3427 C 0.12873 0.27531 0.69051 0.0
C3428 C 0.15551 0.25317 0.69482 0.0
C3429 C 0.131 0.2216 0.67886 0.0
C3430 C 0.15978 0.24063 0.71009 0.0
C3431 C 0.17853 0.23842 0.71619 0.0
C3432 C 0.19321 0.24894 0.70726 0.0
C3433 C 0.18886 0.26111 0.69164 0.0
C3434 C 0.17018 0.2632 0.6855 0.0
H3435 H 0.12189 0.21315 0.66871 0.0
H3436 H 0.14576 0.22162 0.67334 0.0
H3437 H 0.13088 0.21425 0.69314 0.0
H3438 H 0.14859 0.233 0.71765 0.0
H3439 H 0.1814 0.22907 0.72837 0.0
H3440 H 0.49442 0.71057 0.14815 0.0
H3441 H 0.49532 0.6759 0.14234 0.0
H3442 H 0.5152 0.68598 0.08411 0.0
H3443 H 0.51439 0.7205 0.08958 0.0
H3444 H 0.4773 0.65802 0.09751 0.0
H3445 H 0.55069 0.64525 0.12444 0.0
H3446 H 0.53542 0.66255 0.13583 0.0
H3447 H 0.5453 0.66753 0.11243 0.0
C3448 C 0.49903 0.70543 0.13411 0.0
C3449 C 0.50432 0.71832 0.11931 0.0
C3450 C 0.49953 0.68566 0.13087 0.0
C3451 C 0.50539 0.67861 0.11286 0.0
C3452 C 0.51068 0.69133 0.09811 0.0
H3453 H 0.53365 0.57985 0.05006 0.0
H3454 H 0.53179 0.61032 0.0674 0.0
C3455 C 0.51016 0.71103 0.10128 0.0
C3456 C 0.50568 0.65793 0.10898 0.0
H3457 H 0.53559 0.62001 0.10719 0.0
C3458 C 0.48985 0.6495 0.09993 0.0
C3459 C 0.5222 0.64718 0.1121 0.0
C3460 C 0.53944 0.65595 0.12178 0.0
C3461 C 0.49041 0.63062 0.09304 0.0
C3462 C 0.50719 0.61998 0.0956 0.0
C3463 C 0.52277 0.62824 0.10535 0.0
C3464 C 0.50938 0.60093 0.08666 0.0
C3465 C 0.47347 0.6226 0.08213 0.0
C3466 C 0.49772 0.5855 0.09215 0.0
C3467 C 0.49863 0.56812 0.08218 0.0
C3468 C 0.51136 0.56588 0.06669 0.0
C3469 C 0.52364 0.58113 0.06186 0.0
C3470 C 0.52264 0.59853 0.07177 0.0
H3471 H 0.46317 0.63391 0.07826 0.0
H3472 H 0.47799 0.61531 0.0686 0.0
H3473 H 0.46608 0.61186 0.09134 0.0
H3474 H 0.48764 0.58704 0.10385 0.0
H3475 H 0.48912 0.55657 0.08641 0.0
H3476 H 0.04212 0.72039 0.85693 0.0
H3477 H 0.071 0.72211 0.83757 0.0
H3478 H 0.10003 0.75111 0.8846 0.0
H3479 H 0.07125 0.74929 0.90419 0.0
H3480 H 0.08653 0.75917 0.82842 0.0
H3481 H 0.13905 0.7119 0.86448 0.0
H3482 H 0.11384 0.70926 0.86827 0.0
H3483 H 0.12675 0.72847 0.87983 0.0
C3484 C 0.05481 0.72656 0.86341 0.0
C3485 C 0.05438 0.73484 0.88202 0.0
C3486 C 0.07126 0.72764 0.85229 0.0
C3487 C 0.08753 0.73688 0.85963 0.0
C3488 C 0.08762 0.74381 0.87875 0.0
H3489 H 0.18033 0.77749 0.78333 0.0
H3490 H 0.15478 0.77828 0.8076 0.0
C3491 C 0.07117 0.7427 0.88993 0.0
C3492 C 0.10358 0.74098 0.84654 0.0
H3493 H 0.14961 0.72986 0.83753 0.0
C3494 C 0.10038 0.75289 0.83045 0.0
C3495 C 0.1216 0.73286 0.84941 0.0
C3496 C 0.1256 0.7198 0.86634 0.0
C3497 C 0.11463 0.7564 0.81673 0.0
C3498 C 0.13247 0.74787 0.81933 0.0
C3499 C 0.13587 0.73647 0.83575 0.0
C3500 C 0.14694 0.74838 0.80395 0.0
C3501 C 0.11032 0.76846 0.79912 0.0
C3502 C 0.15058 0.73148 0.79378 0.0
C3503 C 0.16495 0.731 0.78007 0.0
C3504 C 0.17607 0.74743 0.77627 0.0
C3505 C 0.17193 0.76465 0.78592 0.0
C3506 C 0.15744 0.7651 0.79978 0.0
H3507 H 0.09524 0.77284 0.79855 0.0
H3508 H 0.11938 0.78157 0.79935 0.0
H3509 H 0.11365 0.76039 0.78567 0.0
H3510 H 0.14248 0.71851 0.7967 0.0
H3511 H 0.16761 0.71754 0.77274 0.0
H3512 H 0.99304 0.29793 0.58736 0.0
H3513 H 0.99015 0.33155 0.57794 0.0
H3514 H 0.96693 0.34493 0.63412 0.0
H3515 H 0.96977 0.31126 0.64372 0.0
H3516 H 0.9462 0.3594 0.60029 0.0
H3517 H 0.02305 0.37714 0.59951 0.0
H3518 H 0.01693 0.35547 0.58667 0.0
H3519 H 0.01339 0.35677 0.61248 0.0
C3520 C 0.98739 0.30803 0.59773 0.0
C3521 C 0.98169 0.30205 0.61627 0.0
C3522 C 0.98582 0.3272 0.59236 0.0
C3523 C 0.97853 0.34062 0.60546 0.0
C3524 C 0.97268 0.3347 0.62392 0.0
H3525 H 0.96654 0.4625 0.57517 0.0
H3526 H 0.96382 0.43308 0.59452 0.0
C3527 C 0.97434 0.31553 0.62935 0.0
C3528 C 0.9767 0.36074 0.59948 0.0
H3529 H 0.00265 0.39839 0.58212 0.0
C3530 C 0.95849 0.36814 0.59667 0.0
C3531 C 0.99283 0.37203 0.59501 0.0
C3532 C 0.01267 0.36505 0.59874 0.0
C3533 C 0.95602 0.3862 0.58816 0.0
C3534 C 0.97215 0.39688 0.58252 0.0
C3535 C 0.99034 0.38997 0.58641 0.0
C3536 C 0.97067 0.41426 0.57065 0.0
C3537 C 0.93631 0.39337 0.58423 0.0
C3538 C 0.97496 0.41314 0.55087 0.0
C3539 C 0.97656 0.42976 0.53984 0.0
C3540 C 0.97397 0.4478 0.54848 0.0
C3541 C 0.96858 0.4488 0.56811 0.0
C3542 C 0.96703 0.43207 0.57918 0.0
H3543 H 0.92519 0.38331 0.58958 0.0
H3544 H 0.93446 0.40751 0.59136 0.0
H3545 H 0.93431 0.39547 0.56837 0.0
H3546 H 0.97781 0.39942 0.54414 0.0
H3547 H 0.98058 0.42849 0.52473 0.0
H3548 H 0.44045 0.28497 0.40096 0.0
H3549 H 0.40921 0.28236 0.38543 0.0
H3550 H 0.43486 0.29244 0.32951 0.0
H3551 H 0.46616 0.2939 0.34486 0.0
H3552 H 0.38719 0.30383 0.3647 0.0
H3553 H 0.40869 0.2428 0.31894 0.0
H3554 H 0.42363 0.25228 0.33804 0.0
H3555 H 0.42343 0.26337 0.31439 0.0
C3556 C 0.43933 0.28686 0.38538 0.0
C3557 C 0.45563 0.28941 0.37402 0.0
C3558 C 0.42152 0.28529 0.37652 0.0
C3559 C 0.41978 0.28655 0.35623 0.0
C3560 C 0.43595 0.29063 0.34509 0.0
H3561 H 0.31803 0.30616 0.29078 0.0
H3562 H 0.34649 0.30828 0.31084 0.0
C3563 C 0.45377 0.29169 0.35387 0.0
C3564 C 0.4012 0.28316 0.34664 0.0
H3565 H 0.37986 0.25819 0.30979 0.0
C3566 C 0.38553 0.29371 0.35282 0.0
C3567 C 0.39886 0.26951 0.33154 0.0
C3568 C 0.41451 0.2562 0.32551 0.0
C3569 C 0.36776 0.29153 0.3438 0.0
C3570 C 0.36586 0.27905 0.32764 0.0
C3571 C 0.38136 0.26799 0.32197 0.0
C3572 C 0.3482 0.2777 0.31594 0.0
C3573 C 0.35124 0.30245 0.35192 0.0
C3574 C 0.34009 0.25973 0.31137 0.0
C3575 C 0.32413 0.25844 0.29933 0.0
C3576 C 0.31586 0.27512 0.29192 0.0
C3577 C 0.32394 0.29307 0.29656 0.0
C3578 C 0.34011 0.29432 0.30819 0.0
H3579 H 0.35314 0.30522 0.36772 0.0
H3580 H 0.35035 0.31656 0.34458 0.0
H3581 H 0.33764 0.29455 0.34971 0.0
H3582 H 0.34618 0.24669 0.31705 0.0
H3583 H 0.31815 0.24443 0.29599 0.0
H3584 H 0.42947 0.51411 0.32414 0.0
H3585 H 0.43062 0.5136 0.35952 0.0
H3586 H 0.37298 0.53329 0.36189 0.0
H3587 H 0.3717 0.53397 0.32622 0.0
H3588 H 0.39946 0.55267 0.3879 0.0
H3589 H 0.4024 0.47357 0.39355 0.0
H3590 H 0.41947 0.48325 0.37686 0.0
H3591 H 0.39457 0.48566 0.3718 0.0
C3592 C 0.41701 0.51831 0.33214 0.0
C3593 C 0.40044 0.52393 0.32244 0.0
C3594 C 0.41768 0.51795 0.35235 0.0
C3595 C 0.40179 0.52312 0.36322 0.0
C3596 C 0.38532 0.52913 0.35366 0.0
H3597 H 0.41545 0.49376 0.48507 0.0
H3598 H 0.39858 0.50003 0.45474 0.0
C3599 C 0.38462 0.52947 0.33335 0.0
C3600 C 0.40271 0.52218 0.38459 0.0
H3601 H 0.41365 0.49144 0.42118 0.0
C3602 C 0.40219 0.53927 0.39532 0.0
C3603 C 0.40587 0.50463 0.39421 0.0
C3604 C 0.40542 0.4857 0.38354 0.0
C3605 C 0.40609 0.5394 0.41533 0.0
C3606 C 0.41092 0.52203 0.42461 0.0
C3607 C 0.41011 0.5048 0.41406 0.0
C3608 C 0.4187 0.52139 0.44459 0.0
C3609 C 0.40538 0.55816 0.42621 0.0
C3610 C 0.43532 0.53173 0.4492 0.0
C3611 C 0.44491 0.52829 0.4666 0.0
C3612 C 0.43823 0.51418 0.4795 0.0
C3613 C 0.42104 0.5046 0.47534 0.0
C3614 C 0.41135 0.5082 0.45805 0.0
H3615 H 0.39503 0.56802 0.41942 0.0
H3616 H 0.40148 0.55597 0.44166 0.0
H3617 H 0.41953 0.56525 0.42565 0.0
H3618 H 0.44154 0.5416 0.43885 0.0
H3619 H 0.45815 0.53586 0.46937 0.0
H3620 H 0.23522 0.71232 0.01516 0.0
H3621 H 0.23107 0.72959 0.04575 0.0
H3622 H 0.26585 0.68824 0.07519 0.0
H3623 H 0.27023 0.67094 0.04479 0.0
H3624 H 0.21447 0.7133 0.07925 0.0
H3625 H 0.28725 0.74031 0.09393 0.0
H3626 H 0.27946 0.73264 0.07009 0.0
H3627 H 0.28651 0.71525 0.0879 0.0
C3628 C 0.24227 0.70706 0.02806 0.0
C3629 C 0.25304 0.69021 0.02753 0.0
C3630 C 0.23983 0.71694 0.04551 0.0
C3631 C 0.24832 0.71027 0.0626 0.0
C3632 C 0.25947 0.69378 0.06204 0.0
H3633 H 0.22313 0.71003 0.18158 0.0
H3634 H 0.22357 0.70597 0.1464 0.0
C3635 C 0.26185 0.68385 0.04467 0.0
C3636 C 0.2444 0.71951 0.08139 0.0
H3637 H 0.26649 0.73792 0.12145 0.0
C3638 C 0.22576 0.71904 0.08838 0.0
C3639 C 0.25911 0.72723 0.09308 0.0
C3640 C 0.27918 0.72909 0.0858 0.0
C3641 C 0.22163 0.725 0.10733 0.0
C3642 C 0.23661 0.73128 0.11954 0.0
C3643 C 0.25505 0.7329 0.1121 0.0
C3644 C 0.23391 0.73472 0.1405 0.0
C3645 C 0.20137 0.72413 0.1142 0.0
C3646 C 0.23965 0.75221 0.14882 0.0
C3647 C 0.23964 0.7545 0.16894 0.0
C3648 C 0.23397 0.73929 0.18109 0.0
C3649 C 0.22753 0.72204 0.17265 0.0
C3650 C 0.22763 0.71974 0.15252 0.0
H3651 H 0.19128 0.72535 0.10184 0.0
H3652 H 0.19869 0.71011 0.12134 0.0
H3653 H 0.19846 0.7357 0.12483 0.0
H3654 H 0.24464 0.76389 0.13976 0.0
H3655 H 0.24458 0.76803 0.17498 0.0
H3656 H 0.13787 0.4795 0.83745 0.0
H3657 H 0.12874 0.46916 0.87027 0.0
H3658 H 0.07505 0.4973 0.86354 0.0
H3659 H 0.08394 0.50763 0.83098 0.0
H3660 H 0.11239 0.49258 0.90456 0.0
H3661 H 0.06445 0.4373 0.8727 0.0
H3662 H 0.0844 0.44744 0.85971 0.0
H3663 H 0.0626 0.46042 0.86141 0.0
C3664 C 0.12432 0.48385 0.84319 0.0
C3665 C 0.1115 0.49418 0.83164 0.0
C3666 C 0.11911 0.47784 0.86183 0.0
C3667 C 0.1011 0.48213 0.86898 0.0
C3668 C 0.08889 0.4936 0.85802 0.0
H3669 H 0.02252 0.49464 0.9495 0.0
H3670 H 0.04315 0.48782 0.92207 0.0
C3671 C 0.09403 0.49956 0.83949 0.0
C3672 C 0.09423 0.47413 0.88746 0.0
H3673 H 0.05677 0.44829 0.905 0.0
C3674 C 0.10069 0.48235 0.90487 0.0
C3675 C 0.0791 0.46067 0.88768 0.0
C3676 C 0.07232 0.45078 0.86938 0.0
C3677 C 0.09103 0.47892 0.92231 0.0
C3678 C 0.07467 0.46702 0.92209 0.0
C3679 C 0.06935 0.45739 0.90504 0.0
C3680 C 0.06079 0.46803 0.93792 0.0
C3681 C 0.09721 0.48943 0.94047 0.0
C3682 C 0.06354 0.4585 0.95559 0.0
C3683 C 0.05158 0.4622 0.97129 0.0
C3684 C 0.03703 0.47569 0.96942 0.0
C3685 C 0.0337 0.48427 0.95133 0.0
C3686 C 0.04543 0.48038 0.93568 0.0
H3687 H 0.11068 0.49757 0.93839 0.0
H3688 H 0.08603 0.49961 0.94489 0.0
H3689 H 0.09913 0.47907 0.95252 0.0
H3690 H 0.07537 0.44891 0.95747 0.0
H3691 H 0.05448 0.45551 0.98516 0.0
H3692 H 0.28253 0.30114 0.50869 0.0
H3693 H 0.29354 0.28336 0.53702 0.0
H3694 H 0.24707 0.30521 0.57054 0.0
H3695 H 0.23597 0.32327 0.54237 0.0
H3696 H 0.30279 0.30453 0.57336 0.0
H3697 H 0.24991 0.24576 0.58278 0.0
H3698 H 0.25432 0.25716 0.55963 0.0
H3699 H 0.23996 0.2688 0.57749 0.0
C3700 C 0.27436 0.30186 0.52194 0.0
C3701 C 0.2584 0.31374 0.52331 0.0
C3702 C 0.28073 0.2917 0.53809 0.0
C3703 C 0.27104 0.29294 0.55572 0.0
C3704 C 0.25458 0.30394 0.55691 0.0
H3705 H 0.28062 0.29865 0.67229 0.0
H3706 H 0.28474 0.30275 0.63738 0.0
C3707 C 0.24831 0.3143 0.54084 0.0
C3708 C 0.27917 0.28465 0.57352 0.0
H3709 H 0.26803 0.25486 0.61099 0.0
C3710 C 0.29552 0.29331 0.58142 0.0
C3711 C 0.26976 0.26989 0.58378 0.0
C3712 C 0.25259 0.2597 0.57545 0.0
C3713 C 0.30175 0.28869 0.60017 0.0
C3714 C 0.29134 0.27514 0.61111 0.0
C3715 C 0.27599 0.26528 0.60253 0.0
C3716 C 0.29368 0.2736 0.63232 0.0
C3717 C 0.31877 0.29909 0.60856 0.0
C3718 C 0.2979 0.25598 0.64105 0.0
C3719 C 0.29577 0.25368 0.66111 0.0
C3720 C 0.28893 0.26884 0.67244 0.0
C3721 C 0.28591 0.28677 0.66382 0.0
C3722 C 0.28836 0.28915 0.64392 0.0
H3723 H 0.32841 0.30429 0.59694 0.0
H3724 H 0.31393 0.31174 0.6169 0.0
H3725 H 0.32679 0.28969 0.61859 0.0
H3726 H 0.30181 0.24379 0.63223 0.0
H3727 H 0.29801 0.23968 0.66744 0.0
H3728 H 0.43221 0.51591 0.21426 0.0
H3729 H 0.44417 0.5025 0.18389 0.0
H3730 H 0.45957 0.45063 0.21389 0.0
H3731 H 0.44864 0.46432 0.24436 0.0
H3732 H 0.48581 0.45898 0.19006 0.0
H3733 H 0.4184 0.46424 0.14998 0.0
H3734 H 0.42529 0.48753 0.15863 0.0
H3735 H 0.41997 0.46866 0.17576 0.0
C3736 C 0.43829 0.50173 0.21436 0.0
C3737 C 0.43951 0.4912 0.23166 0.0
C3738 C 0.44488 0.49396 0.19698 0.0
C3739 C 0.45221 0.47529 0.19649 0.0
C3740 C 0.45384 0.46497 0.21386 0.0
H3741 H 0.4716 0.44576 0.07554 0.0
H3742 H 0.4619 0.4375 0.10879 0.0
C3743 C 0.44766 0.47288 0.23128 0.0
C3744 C 0.45871 0.46681 0.17797 0.0
H3745 H 0.44677 0.46273 0.13019 0.0
C3746 C 0.47713 0.45943 0.17704 0.0
C3747 C 0.44718 0.46652 0.16112 0.0
C3748 C 0.42654 0.47194 0.1615 0.0
C3749 C 0.48486 0.45346 0.15935 0.0
C3750 C 0.47417 0.45565 0.14209 0.0
C3751 C 0.45518 0.46132 0.14332 0.0
C3752 C 0.48313 0.45566 0.12266 0.0
C3753 C 0.50458 0.44535 0.15934 0.0
C3754 C 0.49877 0.46787 0.11945 0.0
C3755 C 0.50441 0.47226 0.10064 0.0
C3756 C 0.49442 0.46469 0.08473 0.0
C3757 C 0.47968 0.4514 0.08773 0.0
C3758 C 0.4741 0.44682 0.10666 0.0
H3759 H 0.50694 0.43652 0.17253 0.0
H3760 H 0.50717 0.43638 0.14631 0.0
H3761 H 0.5151 0.4573 0.15972 0.0
H3762 H 0.5056 0.47541 0.13137 0.0
H3763 H 0.51557 0.48286 0.09851 0.0
H3764 H 0.27907 0.61183 0.93424 0.0
H3765 H 0.2833 0.61387 0.8989 0.0
H3766 H 0.26126 0.6713 0.89957 0.0
H3767 H 0.25734 0.66953 0.93464 0.0
H3768 H 0.25778 0.62099 0.86867 0.0
H3769 H 0.31242 0.67794 0.87271 0.0
H3770 H 0.30582 0.6636 0.8935 0.0
H3771 H 0.2923 0.68441 0.88699 0.0
C3772 C 0.27505 0.62483 0.92677 0.0
C3773 C 0.26809 0.64062 0.93714 0.0
C3774 C 0.27753 0.62597 0.90667 0.0
C3775 C 0.27309 0.64292 0.89682 0.0
C3776 C 0.26531 0.65831 0.90706 0.0
H3777 H 0.22802 0.68167 0.79669 0.0
H3778 H 0.23754 0.66148 0.82366 0.0
C3779 C 0.26295 0.65723 0.92706 0.0
C3780 C 0.27619 0.64489 0.87577 0.0
H3781 H 0.29262 0.67787 0.84354 0.0
C3782 C 0.26581 0.63309 0.863 0.0
C3783 C 0.2873 0.66014 0.86834 0.0
C3784 C 0.30027 0.67208 0.88113 0.0
C3785 C 0.2645 0.6376 0.84321 0.0
C3786 C 0.27328 0.65464 0.83636 0.0
C3787 C 0.28549 0.66503 0.84876 0.0
C3788 C 0.26767 0.66378 0.81785 0.0
C3789 C 0.2531 0.62449 0.83007 0.0
C3790 C 0.2814 0.67214 0.8057 0.0
C3791 C 0.27597 0.68435 0.79068 0.0
C3792 C 0.25671 0.68812 0.7874 0.0
C3793 C 0.24296 0.67892 0.79884 0.0
C3794 C 0.2484 0.6671 0.81411 0.0
H3795 H 0.25505 0.60929 0.83435 0.0
H3796 H 0.23782 0.62768 0.83163 0.0
H3797 H 0.25717 0.6262 0.81461 0.0
H3798 H 0.29635 0.6699 0.80838 0.0
H3799 H 0.28683 0.69113 0.78189 0.0
H3800 H 0.05 0.52504 0.74554 0.0
H3801 H 0.03613 0.52916 0.71333 0.0
H3802 H 0.07961 0.49388 0.68861 0.0
H3803 H 0.09371 0.4896 0.7208 0.0
H3804 H 0.05763 0.54561 0.68085 0.0
H3805 H 0.02801 0.47268 0.66617 0.0
H3806 H 0.03316 0.48121 0.69044 0.0
H3807 H 0.05206 0.47376 0.67491 0.0
C3808 C 0.0565 0.51788 0.73335 0.0
C3809 C 0.07305 0.50704 0.73577 0.0
C3810 C 0.04856 0.52033 0.71496 0.0
C3811 C 0.05688 0.51182 0.69872 0.0
C3812 C 0.07295 0.50042 0.70108 0.0
H3813 H 0.0477 0.53294 0.5762 0.0
H3814 H 0.058 0.53252 0.61016 0.0
C3815 C 0.08098 0.49802 0.71947 0.0
C3816 C 0.04938 0.5158 0.67917 0.0
H3817 H 0.02793 0.49474 0.64005 0.0
C3818 C 0.05105 0.53454 0.67191 0.0
C3819 C 0.04075 0.50131 0.66774 0.0
C3820 C 0.03821 0.48111 0.67519 0.0
C3821 C 0.04457 0.5391 0.65323 0.0
C3822 C 0.0363 0.52451 0.64166 0.0
C3823 C 0.03434 0.50586 0.64905 0.0
C3824 C 0.02981 0.52807 0.62165 0.0
C3825 C 0.04651 0.55941 0.64596 0.0
C3826 C 0.01053 0.5262 0.61707 0.0
C3827 C 0.00458 0.52648 0.59774 0.0
C3828 C 0.01788 0.52838 0.58268 0.0
C3829 C 0.0371 0.53141 0.58744 0.0
C3830 C 0.04302 0.53121 0.60682 0.0
H3831 H 0.04999 0.56964 0.65787 0.0
H3832 H 0.05803 0.56017 0.63505 0.0
H3833 H 0.03321 0.56397 0.63873 0.0
H3834 H 0.00018 0.52376 0.62841 0.0
H3835 H 0.98967 0.5242 0.59462 0.0
H3836 H 0.25107 0.34929 0.43399 0.0
H3837 H 0.24284 0.34725 0.39961 0.0
H3838 H 0.19807 0.38796 0.40802 0.0
H3839 H 0.20645 0.39027 0.44267 0.0
H3840 H 0.18726 0.35095 0.39037 0.0
H3841 H 0.24805 0.38574 0.35361 0.0
H3842 H 0.25537 0.37022 0.37294 0.0
H3843 H 0.24165 0.39111 0.37842 0.0
C3844 C 0.23979 0.35817 0.42843 0.0
C3845 C 0.22939 0.36993 0.4409 0.0
C3846 C 0.23513 0.35705 0.40881 0.0
C3847 C 0.21994 0.36755 0.40134 0.0
C3848 C 0.20993 0.37988 0.41357 0.0
H3849 H 0.21987 0.33557 0.28085 0.0
H3850 H 0.20972 0.35653 0.30721 0.0
C3851 C 0.21479 0.38125 0.43326 0.0
C3852 C 0.21368 0.36381 0.38124 0.0
H3853 H 0.23239 0.35989 0.33608 0.0
C3854 C 0.19677 0.35339 0.37826 0.0
C3855 C 0.22591 0.36733 0.36549 0.0
C3856 C 0.24368 0.3794 0.36771 0.0
C3857 C 0.19278 0.3447 0.36028 0.0
C3858 C 0.20622 0.34629 0.34518 0.0
C3859 C 0.22211 0.35842 0.34767 0.0
C3860 C 0.20593 0.33353 0.32796 0.0
C3861 C 0.17465 0.33325 0.35796 0.0
C3862 C 0.20608 0.3135 0.33052 0.0
C3863 C 0.21146 0.30148 0.31529 0.0
C3864 C 0.21714 0.30943 0.29756 0.0
C3865 C 0.2155 0.32922 0.2945 0.0
C3866 C 0.20971 0.34117 0.30952 0.0
H3867 H 0.16308 0.33973 0.36656 0.0
H3868 H 0.17012 0.3323 0.34253 0.0
H3869 H 0.17682 0.31853 0.36359 0.0
H3870 H 0.20373 0.30725 0.3447 0.0
H3871 H 0.2129 0.28626 0.31796 0.0
H3872 H 0.2712 0.40474 0.51564 0.0
H3873 H 0.29575 0.42153 0.5345 0.0
H3874 H 0.33897 0.39216 0.50245 0.0
H3875 H 0.31463 0.37527 0.48345 0.0
H3876 H 0.33804 0.39037 0.54811 0.0
H3877 H 0.33738 0.46308 0.51444 0.0
H3878 H 0.31536 0.45066 0.5194 0.0
H3879 H 0.33058 0.44201 0.50067 0.0
C3880 C 0.28593 0.40206 0.51234 0.0
C3881 C 0.29094 0.38857 0.49806 0.0
C3882 C 0.2999 0.41165 0.52318 0.0
C3883 C 0.31906 0.40793 0.51989 0.0
C3884 C 0.32418 0.39511 0.50517 0.0
H3885 H 0.43027 0.42657 0.54661 0.0
H3886 H 0.39855 0.41268 0.54508 0.0
C3887 C 0.31025 0.38558 0.49425 0.0
C3888 C 0.33389 0.41664 0.53234 0.0
H3889 H 0.36125 0.45689 0.53733 0.0
C3890 C 0.34297 0.40502 0.54604 0.0
C3891 C 0.33993 0.43581 0.52981 0.0
C3892 C 0.33041 0.44874 0.51529 0.0
C3893 C 0.35873 0.41181 0.55656 0.0
C3894 C 0.36575 0.43052 0.55292 0.0
C3895 C 0.35582 0.44255 0.54018 0.0
C3896 C 0.385 0.43668 0.55911 0.0
C3897 C 0.36806 0.39867 0.571 0.0
C3898 C 0.3881 0.45453 0.56815 0.0
C3899 C 0.4064 0.46251 0.56909 0.0
C3900 C 0.42164 0.45282 0.56067 0.0
C3901 C 0.41873 0.43426 0.55326 0.0
C3902 C 0.40058 0.42627 0.55248 0.0
H3903 H 0.35748 0.38882 0.57771 0.0
H3904 H 0.37859 0.38971 0.56336 0.0
H3905 H 0.37546 0.40686 0.58268 0.0
H3906 H 0.37623 0.46285 0.57322 0.0
H3907 H 0.40828 0.47694 0.57467 0.0
H3908 H 0.80324 0.08841 0.53403 0.0
H3909 H 0.83495 0.07648 0.54013 0.0
H3910 H 0.85886 0.13133 0.52377 0.0
H3911 H 0.82706 0.14322 0.517 0.0
H3912 H 0.87296 0.10338 0.50252 0.0
H3913 H 0.87649 0.08163 0.57947 0.0
H3914 H 0.85585 0.0715 0.56798 0.0
H3915 H 0.85822 0.09716 0.57033 0.0
C3916 C 0.81518 0.09815 0.53233 0.0
C3917 C 0.81271 0.11667 0.52482 0.0
C3918 C 0.83334 0.09133 0.53595 0.0
C3919 C 0.84928 0.10304 0.53248 0.0
C3920 C 0.84673 0.12207 0.52652 0.0
H3921 H 0.9605 0.05326 0.54938 0.0
H3922 H 0.9335 0.07461 0.55066 0.0
C3923 C 0.82856 0.12885 0.52271 0.0
C3924 C 0.86833 0.09448 0.53214 0.0
H3925 H 0.89768 0.06519 0.55756 0.0
C3926 C 0.87855 0.09533 0.5147 0.0
C3927 C 0.87568 0.08412 0.54804 0.0
C3928 C 0.86605 0.08373 0.56756 0.0
C3929 C 0.89554 0.08541 0.51245 0.0
C3930 C 0.90216 0.07392 0.52788 0.0
C3931 C 0.8924 0.07376 0.54561 0.0
C3932 C 0.91908 0.0618 0.52597 0.0
C3933 C 0.90616 0.08732 0.49356 0.0
C3934 C 0.92 0.04758 0.51153 0.0
C3935 C 0.93559 0.03543 0.5106 0.0
C3936 C 0.95025 0.03711 0.52437 0.0
C3937 C 0.94934 0.0515 0.53866 0.0
C3938 C 0.93393 0.06374 0.53942 0.0
H3939 H 0.90268 0.10091 0.48601 0.0
H3940 H 0.92172 0.08687 0.49593 0.0
H3941 H 0.90202 0.07529 0.4838 0.0
H3942 H 0.90846 0.04556 0.50129 0.0
H3943 H 0.93587 0.02438 0.49954 0.0
H3944 H 0.6101 0.06978 0.28061 0.0
H3945 H 0.63215 0.09452 0.269 0.0
H3946 H 0.66406 0.05152 0.23868 0.0
H3947 H 0.64252 0.02672 0.25056 0.0
H3948 H 0.68677 0.07479 0.25878 0.0
H3949 H 0.63686 0.11819 0.21565 0.0
H3950 H 0.62883 0.11499 0.24012 0.0
H3951 H 0.63086 0.09449 0.22436 0.0
C3952 C 0.62179 0.06561 0.27145 0.0
C3953 C 0.62453 0.04628 0.26655 0.0
C3954 C 0.63426 0.07977 0.26465 0.0
C3955 C 0.64948 0.07488 0.25261 0.0
C3956 C 0.65231 0.05561 0.24781 0.0
H3957 H 0.71986 0.17068 0.20795 0.0
H3958 H 0.70189 0.14019 0.20696 0.0
C3959 C 0.63999 0.04145 0.25471 0.0
C3960 C 0.66318 0.08969 0.24605 0.0
H3961 H 0.66626 0.13386 0.22502 0.0
C3962 C 0.68233 0.08754 0.25107 0.0
C3963 C 0.65749 0.10609 0.23557 0.0
C3964 C 0.63742 0.10849 0.22842 0.0
C3965 C 0.69569 0.10198 0.24711 0.0
C3966 C 0.68964 0.11912 0.23825 0.0
C3967 C 0.6708 0.12073 0.23197 0.0
C3968 C 0.70182 0.13646 0.23816 0.0
C3969 C 0.71606 0.09904 0.25304 0.0
C3970 C 0.70759 0.14431 0.25598 0.0
C3971 C 0.71765 0.16153 0.25659 0.0
C3972 C 0.72209 0.17139 0.23937 0.0
C3973 C 0.7167 0.16333 0.22142 0.0
C3974 C 0.70644 0.146 0.22084 0.0
H3975 H 0.71963 0.08356 0.25314 0.0
H3976 H 0.72596 0.10671 0.24316 0.0
H3977 H 0.71826 0.10465 0.26798 0.0
H3978 H 0.70382 0.13738 0.26952 0.0
H3979 H 0.72165 0.16729 0.27066 0.0
H3980 H 0.68351 0.84987 -0.00048 0.0
H3981 H 0.6526 0.86536 -0.00168 0.0
H3982 H 0.67413 0.91126 0.03442 0.0
H3983 H 0.7051 0.89594 0.03577 0.0
H3984 H 0.62745 0.8872 0.0336 0.0
H3985 H 0.66023 0.92854 0.97285 0.0
H3986 H 0.66751 0.90448 0.97867 0.0
H3987 H 0.6741 0.92398 0.99437 0.0
C3988 C 0.68152 0.86293 0.00774 0.0
C3989 C 0.69681 0.87183 0.01752 0.0
C3990 C 0.66385 0.87173 0.00703 0.0
C3991 C 0.66126 0.88947 0.01614 0.0
C3992 C 0.67596 0.89754 0.02732 0.0
H3993 H 0.58603 0.98377 0.00323 0.0
H3994 H 0.61244 0.96199 0.00779 0.0
C3995 C 0.69363 0.88875 0.02808 0.0
C3996 C 0.64438 0.90088 0.01162 0.0
H3997 H 0.6294 0.93691 0.98207 0.0
C3998 C 0.62774 0.898 0.02229 0.0
C3999 C 0.64498 0.91489 -0.00317 0.0
C4000 C 0.6626 0.91824 0.98489 0.0
C4001 C 0.61168 0.90924 0.01883 0.0
C4002 C 0.61233 0.92339 0.0041 0.0
C4003 C 0.62895 0.92601 0.99328 0.0
C4004 C 0.59633 0.93641 0.00037 0.0
C4005 C 0.5944 0.90632 0.03135 0.0
C4006 C 0.57867 0.92928 0.99409 0.0
C4007 C 0.56348 0.94171 0.99144 0.0
C4008 C 0.56576 0.9615 0.99494 0.0
C4009 C 0.58373 0.96863 0.00044 0.0
C4010 C 0.59885 0.9562 0.0031 0.0
H4011 H 0.59764 0.89792 0.04463 0.0
H4012 H 0.5884 0.92031 0.03576 0.0
H4013 H 0.58339 0.89837 0.02294 0.0
H4014 H 0.57657 0.91409 0.99146 0.0
H4015 H 0.54986 0.93574 0.98712 0.0
H4016 H 0.39522 0.43845 0.28521 0.0
H4017 H 0.375 0.41255 0.27236 0.0
H4018 H 0.33447 0.45407 0.25256 0.0
H4019 H 0.3546 0.47998 0.26504 0.0
H4020 H 0.33815 0.40199 0.27985 0.0
H4021 H 0.34574 0.42426 0.20299 0.0
H4022 H 0.36074 0.43366 0.22216 0.0
H4023 H 0.33737 0.44307 0.21844 0.0
C4024 C 0.38187 0.44204 0.27837 0.0
C4025 C 0.37659 0.46126 0.27597 0.0
C4026 C 0.37042 0.42725 0.27092 0.0
C4027 C 0.35356 0.43148 0.26099 0.0
C4028 C 0.34774 0.45056 0.2596 0.0
H4029 H 0.26032 0.35572 0.24032 0.0
H4030 H 0.28009 0.38447 0.24441 0.0
C4031 C 0.35918 0.46532 0.26693 0.0
C4032 C 0.34188 0.41598 0.25226 0.0
H4033 H 0.32164 0.40076 0.20965 0.0
C4034 C 0.33466 0.40165 0.26449 0.0
C4035 C 0.33758 0.41544 0.23214 0.0
C4036 C 0.34592 0.42982 0.21812 0.0
C4037 C 0.32273 0.38711 0.25727 0.0
C4038 C 0.31765 0.38715 0.23736 0.0
C4039 C 0.32535 0.40105 0.22495 0.0
C4040 C 0.30424 0.37269 0.22954 0.0
C4041 C 0.31558 0.37182 0.27101 0.0
C4042 C 0.31086 0.35728 0.21845 0.0
C4043 C 0.29942 0.34095 0.21578 0.0
C4044 C 0.2814 0.34001 0.22429 0.0
C4045 C 0.27411 0.35629 0.23346 0.0
C4046 C 0.28542 0.37261 0.23594 0.0
H4047 H 0.32406 0.3714 0.28464 0.0
H4048 H 0.30067 0.37485 0.27491 0.0
H4049 H 0.31593 0.35745 0.26406 0.0
H4050 H 0.32539 0.35717 0.21343 0.0
H4051 H 0.3054 0.32839 0.20899 0.0
H4052 H 0.18561 0.64489 0.97181 0.0
H4053 H 0.15734 0.62682 0.98168 0.0
H4054 H 0.19233 0.58648 0.01229 0.0
H4055 H 0.22068 0.60428 0.00245 0.0
H4056 H 0.1633 0.56972 0.98856 0.0
H4057 H 0.13626 0.62601 0.03807 0.0
H4058 H 0.14172 0.63409 0.01393 0.0
H4059 H 0.16041 0.62583 0.02949 0.0
C4060 C 0.18733 0.63211 0.98053 0.0
C4061 C 0.20541 0.62611 0.98645 0.0
C4062 C 0.17116 0.62191 0.98627 0.0
C4063 C 0.17282 0.60558 -0.00201 0.0
C4064 C 0.19082 0.59918 0.00338 0.0
H4065 H 0.07945 0.54451 0.05574 0.0
H4066 H 0.10969 0.56124 0.04975 0.0
C4067 C 0.20698 0.60938 -0.00228 0.0
C4068 C 0.15576 0.59505 0.00453 0.0
H4069 H 0.11548 0.59966 0.0313 0.0
C4070 C 0.1529 0.57619 -0.00199 0.0
C4071 C 0.14244 0.60349 0.01711 0.0
C4072 C 0.14537 0.62341 0.02524 0.0
C4073 C 0.13661 0.56575 0.00317 0.0
C4074 C 0.12289 0.5745 0.01502 0.0
C4075 C 0.12606 0.5931 0.02214 0.0
C4076 C 0.10457 0.56499 0.019 0.0
C4077 C 0.13408 0.5455 0.99576 0.0
C4078 C 0.09168 0.56206 0.00376 0.0
C4079 C 0.0745 0.55268 0.00709 0.0
C4080 C 0.06984 0.54603 0.02579 0.0
C4081 C 0.08264 0.5494 0.04118 0.0
C4082 C 0.09988 0.55892 0.03781 0.0
H4083 H 0.14771 0.53934 0.99091 0.0
H4084 H 0.12789 0.5361 0.00715 0.0
H4085 H 0.1242 0.54551 0.98318 0.0
H4086 H 0.095 0.56693 0.98921 0.0
H4087 H 0.06499 0.55043 0.99489 0.0
H4088 H 0.65051 0.95126 0.24578 0.0
H4089 H 0.67183 0.92424 0.24999 0.0
H4090 H 0.63193 0.89745 0.28904 0.0
H4091 H 0.61036 0.9243 0.2847 0.0
H4092 H 0.68666 0.91592 0.28692 0.0
H4093 H 0.64918 0.85273 0.25479 0.0
H4094 H 0.64288 0.87708 0.24897 0.0
H4095 H 0.63561 0.86665 0.27161 0.0
C4096 C 0.64602 0.93936 0.25482 0.0
C4097 C 0.62883 0.93993 0.26501 0.0
C4098 C 0.65825 0.92399 0.25727 0.0
C4099 C 0.65345 0.90894 0.26987 0.0
C4100 C 0.63577 0.90884 0.27908 0.0
H4101 H 0.72097 0.81006 0.30252 0.0
H4102 H 0.69808 0.83598 0.30548 0.0
C4103 C 0.62347 0.9242 0.27658 0.0
C4104 C 0.66778 0.89447 0.27481 0.0
H4105 H 0.67776 0.84689 0.27164 0.0
C4106 C 0.68472 0.90081 0.28363 0.0
C4107 C 0.66503 0.87479 0.27073 0.0
C4108 C 0.64727 0.86734 0.26087 0.0
C4109 C 0.69921 0.88798 0.28812 0.0
C4110 C 0.6967 0.8684 0.2835 0.0
C4111 C 0.67953 0.86195 0.27527 0.0
C4112 C 0.71237 0.85466 0.28505 0.0
C4113 C 0.71713 0.89549 0.2976 0.0
C4114 C 0.72828 0.85697 0.27313 0.0
C4115 C 0.74132 0.84223 0.27138 0.0
C4116 C 0.7386 0.82492 0.28147 0.0
C4117 C 0.72349 0.82326 0.29462 0.0
C4118 C 0.71034 0.83799 0.29626 0.0
H4119 H 0.71468 0.90921 0.30536 0.0
H4120 H 0.72293 0.88492 0.30804 0.0
H4121 H 0.72795 0.8982 0.28624 0.0
H4122 H 0.72995 0.86963 0.26418 0.0
H4123 H 0.75286 0.84394 0.26117 0.0
H4124 H 0.89296 0.0844 0.7677 0.0
H4125 H 0.87771 0.11569 0.76842 0.0
H4126 H 0.83658 0.09591 0.72627 0.0
H4127 H 0.85161 0.06457 0.72547 0.0
H4128 H 0.86156 0.14456 0.73747 0.0
H4129 H 0.81001 0.1032 0.78237 0.0
H4130 H 0.83383 0.0951 0.77802 0.0
H4131 H 0.81614 0.09283 0.75933 0.0
C4132 C 0.88117 0.08694 0.75794 0.0
C4133 C 0.87323 0.0719 0.74681 0.0
C4134 C 0.87245 0.10483 0.75844 0.0
C4135 C 0.85585 0.10786 0.7477 0.0
C4136 C 0.84931 0.09368 0.73479 0.0
H4137 H 0.76133 0.18242 0.74758 0.0
H4138 H 0.78389 0.1563 0.74555 0.0
C4139 C 0.85796 0.07581 0.73431 0.0
C4140 C 0.84365 0.12425 0.75232 0.0
H4141 H 0.80202 0.13505 0.7746 0.0
C4142 C 0.8486 0.1426 0.74569 0.0
C4143 C 0.8269 0.12153 0.76324 0.0
C4144 C 0.82138 0.10215 0.77132 0.0
C4145 C 0.83672 0.15829 0.74903 0.0
C4146 C 0.81969 0.15544 0.75952 0.0
C4147 C 0.81507 0.13715 0.76657 0.0
C4148 C 0.80579 0.17092 0.76217 0.0
C4149 C 0.84208 0.17758 0.74069 0.0
C4150 C 0.81039 0.18748 0.77286 0.0
C4151 C 0.79746 0.20247 0.77412 0.0
C4152 C 0.77974 0.20109 0.76472 0.0
C4153 C 0.77487 0.18402 0.75491 0.0
C4154 C 0.78777 0.16908 0.75369 0.0
H4155 H 0.85378 0.17651 0.73001 0.0
H4156 H 0.82969 0.18424 0.73348 0.0
H4157 H 0.84685 0.18725 0.75259 0.0
H4158 H 0.82409 0.18896 0.77988 0.0
H4159 H 0.80167 0.21541 0.78181 0.0
loop_
_geom_bond_atom_site_label_1
_geom_bond_atom_site_label_2
_geom_bond_distance
_geom_bond_site_symmetry_2
_ccdc_geom_bond_type
Co0 O1 2.216 1_455 S
Co0 O2 2.091 1_455 S
Co0 O4 2.004 . S
Co0 O10 2.021 . S
Co0 O12 2.135 1_455 S
Co0 O13 2.244 . S
O1 Co0 2.216 1_655 S
O1 C8 1.247 . S
O2 Co0 2.091 1_655 S
O2 C8 1.261 . S
C3 O12 1.233 1_455 S
C3 O13 1.272 . S
O4 Co0 2.004 . S
O4 C9 1.259 . S
Co5 O6 2.061 . S
Co5 O11 2.052 . S
Co5 O13 2.135 . S
O6 Co5 2.061 . S
O6 C9 1.235 . S
C7 O10 1.238 . S
C7 O11 1.241 . S
C8 O1 1.247 . S
C8 O2 1.261 . S
C9 O4 1.259 . S
C9 O6 1.235 . S
O10 Co0 2.021 . S
O10 C7 1.238 . S
O11 Co5 2.052 . S
O11 C7 1.241 . S
O12 Co0 2.135 1_655 S
O12 C3 1.233 1_655 S
O13 Co0 2.244 . S
O13 C3 1.272 . S
O13 Co5 2.135 . S
Co14 O15 2.216 . S
Co14 O16 2.091 . S
Co14 O18 2.004 1_455 S
Co14 O24 2.021 . S
Co14 O26 2.137 . S
Co14 O27 2.255 . S
O15 Co14 2.216 . S
O15 C22 1.247 . S
O16 Co14 2.091 . S
O16 C22 1.261 . S
C17 O26 1.247 . S
C17 O27 1.282 . S
O18 Co14 2.004 1_655 S
O18 C23 1.259 . S
Co19 O20 2.061 . S
Co19 O25 2.052 . S
Co19 O27 2.106 1_655 S
O20 Co19 2.061 . S
O20 C23 1.235 . S
C21 O24 1.238 . S
C21 O25 1.241 1_455 S
C22 O15 1.247 . S
C22 O16 1.261 . S
C23 O18 1.259 . S
C23 O20 1.235 . S
O24 Co14 2.021 . S
O24 C21 1.238 . S
O25 Co19 2.052 . S
O25 C21 1.241 1_655 S
O26 Co14 2.137 . S
O26 C17 1.247 . S
O27 Co14 2.255 . S
O27 C17 1.282 . S
O27 Co19 2.106 1_455 S
Co28 O29 2.216 . S
Co28 O30 2.091 . S
Co28 O32 2.004 . S
Co28 O38 2.021 . S
Co28 O40 2.137 . S
Co28 O41 2.244 . S
O29 Co28 2.216 . S
O29 C36 1.247 . S
O30 Co28 2.091 . S
O30 C36 1.261 . S
C31 O40 1.247 . S
C31 O41 1.272 . S
O32 Co28 2.004 . S
O32 C37 1.259 . S
Co33 O34 2.061 . S
Co33 O39 2.052 . S
Co33 O41 2.135 . S
O34 Co33 2.061 . S
O34 C37 1.235 . S
C35 O38 1.238 . S
C35 O39 1.241 . S
C36 O29 1.247 . S
C36 O30 1.261 . S
C37 O32 1.259 . S
C37 O34 1.235 . S
O38 Co28 2.021 . S
O38 C35 1.238 . S
O39 Co33 2.052 . S
O39 C35 1.241 . S
O40 Co28 2.137 . S
O40 C31 1.247 . S
O41 Co28 2.244 . S
O41 C31 1.272 . S
O41 Co33 2.135 . S
Co42 O43 2.216 . S
Co42 O44 2.091 . S
Co42 O46 2.004 . S
Co42 O52 2.021 . S
Co42 O54 2.137 . S
Co42 O55 2.244 . S
O43 Co42 2.216 . S
O43 C50 1.247 . S
O44 Co42 2.091 . S
O44 C50 1.261 . S
C45 O54 1.247 . S
C45 O55 1.272 . S
O46 Co42 2.004 . S
O46 C51 1.259 . S
Co47 O48 2.061 . S
Co47 O53 2.052 . S
Co47 O55 2.135 . S
O48 Co47 2.061 . S
O48 C51 1.235 . S
C49 O52 1.238 . S
C49 O53 1.241 . S
C50 O43 1.247 . S
C50 O44 1.261 . S
C51 O46 1.259 . S
C51 O48 1.235 . S
O52 Co42 2.021 . S
O52 C49 1.238 . S
O53 Co47 2.052 . S
O53 C49 1.241 . S
O54 Co42 2.137 . S
O54 C45 1.247 . S
O55 Co42 2.244 . S
O55 C45 1.272 . S
O55 Co47 2.135 . S
Co56 O57 2.216 1_545 S
Co56 O58 2.091 1_545 S
Co56 O60 2.004 . S
Co56 O66 2.021 . S
Co56 O68 2.137 . S
Co56 O69 2.244 . S
O57 Co56 2.216 1_565 S
O57 C64 1.247 . S
O58 Co56 2.091 1_565 S
O58 C64 1.261 . S
C59 O68 1.247 . S
C59 O69 1.272 . S
O60 Co56 2.004 . S
O60 C65 1.259 . S
Co61 O62 2.061 . S
Co61 O67 2.052 . S
Co61 O69 2.135 . S
O62 Co61 2.061 . S
O62 C65 1.235 . S
C63 O66 1.238 . S
C63 O67 1.241 . S
C64 O57 1.247 . S
C64 O58 1.261 . S
C65 O60 1.259 . S
C65 O62 1.235 . S
O66 Co56 2.021 . S
O66 C63 1.238 . S
O67 Co61 2.052 . S
O67 C63 1.241 . S
O68 Co56 2.137 . S
O68 C59 1.247 . S
O69 Co56 2.244 . S
O69 C59 1.272 . S
O69 Co61 2.135 . S
Co70 O71 2.216 . S
Co70 O72 2.091 . S
Co70 O74 2.004 . S
Co70 O80 2.021 . S
Co70 O82 2.137 . S
Co70 O83 2.244 . S
O71 Co70 2.216 . S
O71 C78 1.247 . S
O72 Co70 2.091 . S
O72 C78 1.261 . S
C73 O82 1.247 . S
C73 O83 1.272 . S
O74 Co70 2.004 . S
O74 C79 1.259 . S
Co75 O76 2.061 . S
Co75 O81 2.052 . S
Co75 O83 2.135 . S
O76 Co75 2.061 . S
O76 C79 1.235 . S
C77 O80 1.238 . S
C77 O81 1.241 . S
C78 O71 1.247 . S
C78 O72 1.261 . S
C79 O74 1.259 . S
C79 O76 1.235 . S
O80 Co70 2.021 . S
O80 C77 1.238 . S
O81 Co75 2.052 . S
O81 C77 1.241 . S
O82 Co70 2.137 . S
O82 C73 1.247 . S
O83 Co70 2.244 . S
O83 C73 1.272 . S
O83 Co75 2.135 . S
Co84 O85 2.216 . S
Co84 O86 2.091 . S
Co84 O88 2.004 1_545 S
Co84 O94 2.021 . S
Co84 O96 2.137 . S
Co84 O97 2.244 1_545 S
O85 Co84 2.216 . S
O85 C92 1.247 . S
O86 Co84 2.091 . S
O86 C92 1.261 . S
C87 O96 1.263 . S
C87 O97 1.261 1_545 S
O88 Co84 2.004 1_565 S
O88 C93 1.259 . S
Co89 O90 2.061 . S
Co89 O95 2.052 . S
Co89 O97 2.135 . S
O90 Co89 2.061 . S
O90 C93 1.235 . S
C91 O94 1.238 1_565 S
C91 O95 1.241 . S
C92 O85 1.247 . S
C92 O86 1.261 . S
C93 O88 1.259 . S
C93 O90 1.235 . S
O94 Co84 2.021 . S
O94 C91 1.238 1_545 S
O95 Co89 2.052 . S
O95 C91 1.241 . S
O96 Co84 2.137 . S
O96 C87 1.263 . S
O97 Co84 2.244 1_565 S
O97 C87 1.261 1_565 S
O97 Co89 2.135 . S
Co98 O99 2.216 . S
Co98 O100 2.091 . S
Co98 O102 2.004 . S
Co98 O108 2.021 . S
Co98 O110 2.137 1_554 S
Co98 O111 2.244 1_554 S
O99 Co98 2.216 . S
O99 C106 1.247 . S
O100 Co98 2.091 . S
O100 C106 1.261 . S
C101 O110 1.247 . S
C101 O111 1.272 . S
O102 Co98 2.004 . S
O102 C107 1.259 . S
Co103 O104 2.061 . S
Co103 O109 2.052 . S
Co103 O111 2.135 1_554 S
O104 Co103 2.061 . S
O104 C107 1.235 . S
C105 O108 1.238 . S
C105 O109 1.241 . S
C106 O99 1.247 . S
C106 O100 1.261 . S
C107 O102 1.259 . S
C107 O104 1.235 . S
O108 Co98 2.021 . S
O108 C105 1.238 . S
O109 Co103 2.052 . S
O109 C105 1.241 . S
O110 Co98 2.137 1_556 S
O110 C101 1.247 . S
O111 Co98 2.244 1_556 S
O111 C101 1.272 . S
O111 Co103 2.135 1_556 S
Co112 O113 2.216 . S
Co112 O114 2.091 . S
Co112 O116 2.004 . S
Co112 O122 2.021 . S
Co112 O124 2.137 1_554 S
Co112 O125 2.244 1_554 S
O113 Co112 2.216 . S
O113 C120 1.247 . S
O114 Co112 2.091 . S
O114 C120 1.261 . S
C115 O124 1.247 . S
C115 O125 1.272 . S
O116 Co112 2.004 . S
O116 C121 1.259 . S
Co117 O118 2.061 . S
Co117 O123 2.052 . S
Co117 O125 2.135 1_554 S
O118 Co117 2.061 . S
O118 C121 1.235 . S
C119 O122 1.238 . S
C119 O123 1.241 . S
C120 O113 1.247 . S
C120 O114 1.261 . S
C121 O116 1.259 . S
C121 O118 1.235 . S
O122 Co112 2.021 . S
O122 C119 1.238 . S
O123 Co117 2.052 . S
O123 C119 1.241 . S
O124 Co112 2.137 1_556 S
O124 C115 1.247 . S
O125 Co112 2.244 1_556 S
O125 C115 1.272 . S
O125 Co117 2.135 1_556 S
Co126 O127 2.216 . S
Co126 O128 2.091 . S
Co126 O130 2.004 . S
Co126 O136 2.021 . S
Co126 O138 2.137 . S
Co126 O139 2.244 . S
O127 Co126 2.216 . S
O127 C134 1.247 . S
O128 Co126 2.091 . S
O128 C134 1.261 . S
C129 O138 1.247 . S
C129 O139 1.272 . S
O130 Co126 2.004 . S
O130 C135 1.259 . S
Co131 O132 2.061 . S
Co131 O137 2.052 . S
Co131 O139 2.135 . S
O132 Co131 2.061 . S
O132 C135 1.235 . S
C133 O136 1.238 . S
C133 O137 1.241 . S
C134 O127 1.247 . S
C134 O128 1.261 . S
C135 O130 1.259 . S
C135 O132 1.235 . S
O136 Co126 2.021 . S
O136 C133 1.238 . S
O137 Co131 2.052 . S
O137 C133 1.241 . S
O138 Co126 2.137 . S
O138 C129 1.247 . S
O139 Co126 2.244 . S
O139 C129 1.272 . S
O139 Co131 2.135 . S
Co140 O141 2.216 . S
Co140 O142 2.091 . S
Co140 O144 2.004 . S
Co140 O150 2.021 . S
Co140 O152 2.137 . S
Co140 O153 2.244 . S
O141 Co140 2.216 . S
O141 C148 1.247 . S
O142 Co140 2.091 . S
O142 C148 1.261 . S
C143 O152 1.247 . S
C143 O153 1.272 . S
O144 Co140 2.004 . S
O144 C149 1.259 . S
Co145 O146 2.061 . S
Co145 O151 2.052 . S
Co145 O153 2.135 . S
O146 Co145 2.061 . S
O146 C149 1.235 . S
C147 O150 1.238 . S
C147 O151 1.241 . S
C148 O141 1.247 . S
C148 O142 1.261 . S
C149 O144 1.259 . S
C149 O146 1.235 . S
O150 Co140 2.021 . S
O150 C147 1.238 . S
O151 Co145 2.052 . S
O151 C147 1.241 . S
O152 Co140 2.137 . S
O152 C143 1.247 . S
O153 Co140 2.244 . S
O153 C143 1.272 . S
O153 Co145 2.135 . S
Co154 O155 2.216 . S
Co154 O156 2.091 . S
Co154 O158 2.004 . S
Co154 O164 2.021 . S
Co154 O166 2.137 . S
Co154 O167 2.244 . S
O155 Co154 2.216 . S
O155 C162 1.247 . S
O156 Co154 2.091 . S
O156 C162 1.261 . S
C157 O166 1.247 . S
C157 O167 1.272 . S
O158 Co154 2.004 . S
O158 C163 1.259 . S
Co159 O160 2.061 . S
Co159 O165 2.052 . S
Co159 O167 2.135 . S
O160 Co159 2.061 . S
O160 C163 1.235 . S
C161 O164 1.238 . S
C161 O165 1.241 . S
C162 O155 1.247 . S
C162 O156 1.261 . S
C163 O158 1.259 . S
C163 O160 1.235 . S
O164 Co154 2.021 . S
O164 C161 1.238 . S
O165 Co159 2.052 . S
O165 C161 1.241 . S
O166 Co154 2.137 . S
O166 C157 1.247 . S
O167 Co154 2.244 . S
O167 C157 1.272 . S
O167 Co159 2.135 . S
Co168 O169 2.216 . S
Co168 O170 2.091 . S
Co168 O172 2.004 1_455 S
Co168 O178 2.021 . S
Co168 O180 2.137 . S
Co168 O181 2.245 1_455 S
O169 Co168 2.216 . S
O169 C176 1.247 . S
O170 Co168 2.091 . S
O170 C176 1.261 . S
C171 O180 1.247 . S
C171 O181 1.272 1_455 S
O172 Co168 2.004 1_655 S
O172 C177 1.259 . S
Co173 O174 2.061 . S
Co173 O179 2.052 . S
Co173 O181 2.132 . S
O174 Co173 2.061 . S
O174 C177 1.235 . S
C175 O178 1.238 . S
C175 O179 1.241 1_455 S
C176 O169 1.247 . S
C176 O170 1.261 . S
C177 O172 1.259 . S
C177 O174 1.235 . S
O178 Co168 2.021 . S
O178 C175 1.238 . S
O179 Co173 2.052 . S
O179 C175 1.241 1_655 S
O180 Co168 2.137 . S
O180 C171 1.247 . S
O181 Co168 2.245 1_655 S
O181 C171 1.272 1_655 S
O181 Co173 2.132 . S
Co182 O183 2.216 1_455 S
Co182 O184 2.091 1_455 S
Co182 O186 2.004 . S
Co182 O192 2.021 . S
Co182 O194 2.137 . S
Co182 O195 2.244 . S
O183 Co182 2.216 1_655 S
O183 C190 1.247 . S
O184 Co182 2.091 1_655 S
O184 C190 1.261 . S
C185 O194 1.246 . S
C185 O195 1.272 . S
O186 Co182 2.004 . S
O186 C191 1.259 . S
Co187 O188 2.061 . S
Co187 O193 2.052 . S
Co187 O195 2.135 . S
O188 Co187 2.061 . S
O188 C191 1.235 . S
C189 O192 1.238 . S
C189 O193 1.241 . S
C190 O183 1.247 . S
C190 O184 1.261 . S
C191 O186 1.259 . S
C191 O188 1.235 . S
O192 Co182 2.021 . S
O192 C189 1.238 . S
O193 Co187 2.052 . S
O193 C189 1.241 . S
O194 Co182 2.137 . S
O194 C185 1.246 . S
O195 Co182 2.244 . S
O195 C185 1.272 . S
O195 Co187 2.135 . S
Co196 O197 2.216 . S
Co196 O198 2.091 . S
Co196 O200 2.004 . S
Co196 O206 2.021 . S
Co196 O208 2.137 . S
Co196 O209 2.244 . S
O197 Co196 2.216 . S
O197 C204 1.247 . S
O198 Co196 2.091 . S
O198 C204 1.261 . S
C199 O208 1.247 . S
C199 O209 1.272 . S
O200 Co196 2.004 . S
O200 C205 1.259 . S
Co201 O202 2.061 . S
Co201 O207 2.052 . S
Co201 O209 2.135 . S
O202 Co201 2.061 . S
O202 C205 1.235 . S
C203 O206 1.238 . S
C203 O207 1.241 . S
C204 O197 1.247 . S
C204 O198 1.261 . S
C205 O200 1.259 . S
C205 O202 1.235 . S
O206 Co196 2.021 . S
O206 C203 1.238 . S
O207 Co201 2.052 . S
O207 C203 1.241 . S
O208 Co196 2.137 . S
O208 C199 1.247 . S
O209 Co196 2.244 . S
O209 C199 1.272 . S
O209 Co201 2.135 . S
Co210 O211 2.216 . S
Co210 O212 2.091 . S
Co210 O214 2.004 . S
Co210 O220 2.021 . S
Co210 O222 2.137 . S
Co210 O223 2.244 . S
O211 Co210 2.216 . S
O211 C218 1.247 . S
O212 Co210 2.091 . S
O212 C218 1.261 . S
C213 O222 1.247 . S
C213 O223 1.272 . S
O214 Co210 2.004 . S
O214 C219 1.259 . S
Co215 O216 2.061 . S
Co215 O221 2.052 . S
Co215 O223 2.135 . S
O216 Co215 2.061 . S
O216 C219 1.235 . S
C217 O220 1.238 . S
C217 O221 1.241 . S
C218 O211 1.247 . S
C218 O212 1.261 . S
C219 O214 1.259 . S
C219 O216 1.235 . S
O220 Co210 2.021 . S
O220 C217 1.238 . S
O221 Co215 2.052 . S
O221 C217 1.241 . S
O222 Co210 2.137 . S
O222 C213 1.247 . S
O223 Co210 2.244 . S
O223 C213 1.272 . S
O223 Co215 2.135 . S
Co224 O225 2.216 . S
Co224 O226 2.091 . S
Co224 O228 2.004 1_545 S
Co224 O234 2.021 . S
Co224 O236 2.137 . S
Co224 O237 2.244 . S
O225 Co224 2.216 . S
O225 C232 1.247 . S
O226 Co224 2.091 . S
O226 C232 1.261 . S
C227 O236 1.247 . S
C227 O237 1.272 . S
O228 Co224 2.004 1_565 S
O228 C233 1.259 . S
Co229 O230 2.061 . S
Co229 O235 2.052 1_565 S
Co229 O237 2.135 1_565 S
O230 Co229 2.061 . S
O230 C233 1.235 . S
C231 O234 1.238 . S
C231 O235 1.241 . S
C232 O225 1.247 . S
C232 O226 1.261 . S
C233 O228 1.259 . S
C233 O230 1.235 . S
O234 Co224 2.021 . S
O234 C231 1.238 . S
O235 Co229 2.052 1_545 S
O235 C231 1.241 . S
O236 Co224 2.137 . S
O236 C227 1.247 . S
O237 Co224 2.244 . S
O237 C227 1.272 . S
O237 Co229 2.135 1_545 S
Co238 O239 2.216 . S
Co238 O240 2.091 . S
Co238 O242 2.004 . S
Co238 O248 2.021 . S
Co238 O250 2.137 . S
Co238 O251 2.244 . S
O239 Co238 2.216 . S
O239 C246 1.247 . S
O240 Co238 2.091 . S
O240 C246 1.261 . S
C241 O250 1.247 . S
C241 O251 1.272 . S
O242 Co238 2.004 . S
O242 C247 1.259 . S
Co243 O244 2.061 . S
Co243 O249 2.052 . S
Co243 O251 2.135 . S
O244 Co243 2.061 . S
O244 C247 1.235 . S
C245 O248 1.238 . S
C245 O249 1.241 . S
C246 O239 1.247 . S
C246 O240 1.261 . S
C247 O242 1.259 . S
C247 O244 1.235 . S
O248 Co238 2.021 . S
O248 C245 1.238 . S
O249 Co243 2.052 . S
O249 C245 1.241 . S
O250 Co238 2.137 . S
O250 C241 1.247 . S
O251 Co238 2.244 . S
O251 C241 1.272 . S
O251 Co243 2.135 . S
Co252 O253 2.216 . S
Co252 O254 2.091 . S
Co252 O256 2.004 1_565 S
Co252 O262 2.021 . S
Co252 O264 2.137 . S
Co252 O265 2.244 1_565 S
O253 Co252 2.216 . S
O253 C260 1.247 . S
O254 Co252 2.091 . S
O254 C260 1.261 . S
C255 O264 1.227 1_545 S
C255 O265 1.289 . S
O256 Co252 2.004 1_545 S
O256 C261 1.259 . S
Co257 O258 2.061 . S
Co257 O263 2.052 . S
Co257 O265 2.135 . S
O258 Co257 2.061 . S
O258 C261 1.235 . S
C259 O262 1.238 1_545 S
C259 O263 1.241 . S
C260 O253 1.247 . S
C260 O254 1.261 . S
C261 O256 1.259 . S
C261 O258 1.235 . S
O262 Co252 2.021 . S
O262 C259 1.238 1_565 S
O263 Co257 2.052 . S
O263 C259 1.241 . S
O264 Co252 2.137 . S
O264 C255 1.227 1_565 S
O265 Co252 2.244 1_545 S
O265 C255 1.289 . S
O265 Co257 2.135 . S
Co266 O267 2.217 . S
Co266 O268 2.095 . S
Co266 O270 2.004 . S
Co266 O276 2.048 . S
Co266 O278 2.109 1_554 S
Co266 O279 2.231 1_554 S
O267 Co266 2.217 . S
O267 C274 1.247 . S
O268 Co266 2.095 . S
O268 C274 1.261 . S
C269 O278 1.247 . S
C269 O279 1.272 . S
O270 Co266 2.004 . S
O270 C275 1.263 . S
Co271 O272 2.061 . S
Co271 O277 2.052 . S
Co271 O279 2.135 1_554 S
O272 Co271 2.061 . S
O272 C275 1.235 . S
C273 O276 1.238 . S
C273 O277 1.241 . S
C274 O267 1.247 . S
C274 O268 1.261 . S
C275 O270 1.263 . S
C275 O272 1.235 . S
O276 Co266 2.048 . S
O276 C273 1.238 . S
O277 Co271 2.052 . S
O277 C273 1.241 . S
O278 Co266 2.109 1_556 S
O278 C269 1.247 . S
O279 Co266 2.231 1_556 S
O279 C269 1.272 . S
O279 Co271 2.135 1_556 S
Co280 O281 2.215 1_556 S
Co280 O282 2.092 1_556 S
Co280 O284 2.005 . S
Co280 O290 2.026 1_556 S
Co280 O292 2.132 . S
Co280 O293 2.241 . S
O281 Co280 2.215 1_554 S
O281 C288 1.255 . S
O282 Co280 2.092 1_554 S
O282 C288 1.261 . S
C283 O292 1.247 . S
C283 O293 1.272 . S
O284 Co280 2.005 . S
O284 C289 1.258 1_556 S
Co285 O286 2.061 . S
Co285 O291 2.052 . S
Co285 O293 2.135 1_554 S
O286 Co285 2.061 . S
O286 C289 1.235 . S
C287 O290 1.238 . S
C287 O291 1.241 . S
C288 O281 1.255 . S
C288 O282 1.261 . S
C289 O284 1.258 1_554 S
C289 O286 1.235 . S
O290 Co280 2.026 1_554 S
O290 C287 1.238 . S
O291 Co285 2.052 . S
O291 C287 1.241 . S
O292 Co280 2.132 . S
O292 C283 1.247 . S
O293 Co280 2.241 . S
O293 C283 1.272 . S
O293 Co285 2.135 1_556 S
Co294 O295 2.216 . S
Co294 O296 2.091 . S
Co294 O298 2.004 . S
Co294 O304 2.021 . S
Co294 O306 2.137 . S
Co294 O307 2.244 . S
O295 Co294 2.216 . S
O295 C302 1.247 . S
O296 Co294 2.091 . S
O296 C302 1.261 . S
C297 O306 1.247 . S
C297 O307 1.272 . S
O298 Co294 2.004 . S
O298 C303 1.259 . S
Co299 O300 2.061 . S
Co299 O305 2.052 . S
Co299 O307 2.135 . S
O300 Co299 2.061 . S
O300 C303 1.235 . S
C301 O304 1.238 . S
C301 O305 1.241 . S
C302 O295 1.247 . S
C302 O296 1.261 . S
C303 O298 1.259 . S
C303 O300 1.235 . S
O304 Co294 2.021 . S
O304 C301 1.238 . S
O305 Co299 2.052 . S
O305 C301 1.241 . S
O306 Co294 2.137 . S
O306 C297 1.247 . S
O307 Co294 2.244 . S
O307 C297 1.272 . S
O307 Co299 2.135 . S
Co308 O309 2.216 . S
Co308 O310 2.091 . S
Co308 O312 2.004 . S
Co308 O318 2.021 . S
Co308 O320 2.137 . S
Co308 O321 2.244 . S
O309 Co308 2.216 . S
O309 C316 1.247 . S
O310 Co308 2.091 . S
O310 C316 1.261 . S
C311 O320 1.247 . S
C311 O321 1.272 . S
O312 Co308 2.004 . S
O312 C317 1.259 . S
Co313 O314 2.061 . S
Co313 O319 2.052 . S
Co313 O321 2.135 . S
O314 Co313 2.061 . S
O314 C317 1.235 . S
C315 O318 1.238 . S
C315 O319 1.241 . S
C316 O309 1.247 . S
C316 O310 1.261 . S
C317 O312 1.259 . S
C317 O314 1.235 . S
O318 Co308 2.021 . S
O318 C315 1.238 . S
O319 Co313 2.052 . S
O319 C315 1.241 . S
O320 Co308 2.137 . S
O320 C311 1.247 . S
O321 Co308 2.244 . S
O321 C311 1.272 . S
O321 Co313 2.135 . S
Co322 O323 2.216 . S
Co322 O324 2.091 . S
Co322 O326 2.004 . S
Co322 O332 2.021 . S
Co322 O334 2.137 . S
Co322 O335 2.244 . S
O323 Co322 2.216 . S
O323 C330 1.247 . S
O324 Co322 2.091 . S
O324 C330 1.261 . S
C325 O334 1.247 . S
C325 O335 1.272 . S
O326 Co322 2.004 . S
O326 C331 1.259 . S
Co327 O328 2.061 . S
Co327 O333 2.052 . S
Co327 O335 2.135 . S
O328 Co327 2.061 . S
O328 C331 1.235 . S
C329 O332 1.238 . S
C329 O333 1.241 . S
C330 O323 1.247 . S
C330 O324 1.261 . S
C331 O326 1.259 . S
C331 O328 1.235 . S
O332 Co322 2.021 . S
O332 C329 1.238 . S
O333 Co327 2.052 . S
O333 C329 1.241 . S
O334 Co322 2.137 . S
O334 C325 1.247 . S
O335 Co322 2.244 . S
O335 C325 1.272 . S
O335 Co327 2.135 . S
O336 Zn337 1.953 . S
O336 C352 1.225 1_455 S
Zn337 O336 1.953 . S
Zn337 O338 1.959 . S
Zn337 O344 1.919 . S
Zn337 O349 1.924 1_454 S
O338 Zn337 1.959 . S
O338 Zn339 1.946 1_545 S
O338 Zn340 1.932 1_455 S
O338 Zn341 1.930 1_444 S
Zn339 O338 1.946 1_565 S
Zn339 O342 1.933 . S
Zn339 O345 1.941 1_565 S
Zn339 O346 1.965 . S
Zn340 O338 1.932 1_655 S
Zn340 O347 1.938 . S
Zn340 O348 1.906 1_545 S
Zn340 O358 1.953 . S
Zn341 O338 1.930 1_666 S
Zn341 O343 1.932 . S
Zn341 O350 1.977 1_556 S
Zn341 O351 1.910 1_565 S
O342 Zn339 1.933 . S
O342 C353 1.256 . S
O343 Zn341 1.932 . S
O343 C353 1.291 1_656 S
O344 Zn337 1.919 . S
O344 C355 1.253 . S
O345 Zn339 1.941 1_545 S
O345 C355 1.283 . S
O346 Zn339 1.965 . S
O346 C354 1.303 1_565 S
O347 Zn340 1.938 . S
O347 C354 1.247 1_655 S
O348 Zn340 1.906 1_565 S
O348 C356 1.304 . S
O349 Zn337 1.924 1_656 S
O349 C357 1.311 . S
O350 Zn341 1.977 1_554 S
O350 C356 1.272 . S
O351 Zn341 1.910 1_545 S
O351 C357 1.231 . S
C352 O336 1.225 1_655 S
C352 O358 1.298 . S
C353 O342 1.256 . S
C353 O343 1.291 1_454 S
C354 O346 1.303 1_545 S
C354 O347 1.247 1_455 S
C355 O344 1.253 . S
C355 O345 1.283 . S
C356 O348 1.304 . S
C356 O350 1.272 . S
C357 O349 1.311 . S
C357 O351 1.231 . S
O358 Zn340 1.953 . S
O358 C352 1.298 . S
O359 Zn360 1.953 . S
O359 C375 1.225 . S
Zn360 O359 1.953 . S
Zn360 O361 1.949 . S
Zn360 O367 1.919 . S
Zn360 O372 1.924 . S
O361 Zn360 1.949 . S
O361 Zn362 1.923 . S
O361 Zn363 1.950 . S
O361 Zn364 1.945 . S
Zn362 O361 1.923 . S
Zn362 O365 1.933 . S
Zn362 O368 1.941 . S
Zn362 O369 1.965 . S
Zn363 O361 1.950 . S
Zn363 O370 1.938 . S
Zn363 O371 1.906 . S
Zn363 O381 1.953 . S
Zn364 O361 1.945 . S
Zn364 O366 1.932 . S
Zn364 O373 1.977 . S
Zn364 O374 1.910 . S
O365 Zn362 1.933 . S
O365 C376 1.226 . S
O366 Zn364 1.932 . S
O366 C376 1.307 . S
O367 Zn360 1.919 . S
O367 C378 1.253 . S
O368 Zn362 1.941 . S
O368 C378 1.283 . S
O369 Zn362 1.965 . S
O369 C377 1.303 . S
O370 Zn363 1.938 . S
O370 C377 1.247 . S
O371 Zn363 1.906 . S
O371 C379 1.304 . S
O372 Zn360 1.924 . S
O372 C380 1.311 . S
O373 Zn364 1.977 . S
O373 C379 1.272 . S
O374 Zn364 1.910 . S
O374 C380 1.231 . S
C375 O359 1.225 . S
C375 O381 1.298 . S
C376 O365 1.226 . S
C376 O366 1.307 . S
C377 O369 1.303 . S
C377 O370 1.247 . S
C378 O367 1.253 . S
C378 O368 1.283 . S
C379 O371 1.304 . S
C379 O373 1.272 . S
C380 O372 1.311 . S
C380 O374 1.231 . S
O381 Zn363 1.953 . S
O381 C375 1.298 . S
O382 Zn383 1.953 . S
O382 C398 1.225 . S
Zn383 O382 1.953 . S
Zn383 O384 1.949 1_565 S
Zn383 O390 1.919 . S
Zn383 O395 1.924 . S
O384 Zn383 1.949 1_545 S
O384 Zn385 1.923 . S
O384 Zn386 1.950 . S
O384 Zn387 1.945 . S
Zn385 O384 1.923 . S
Zn385 O388 1.933 . S
Zn385 O391 1.941 . S
Zn385 O392 1.965 . S
Zn386 O384 1.950 . S
Zn386 O393 1.938 . S
Zn386 O394 1.906 . S
Zn386 O404 1.953 1_545 S
Zn387 O384 1.945 . S
Zn387 O389 1.932 . S
Zn387 O396 1.977 . S
Zn387 O397 1.910 . S
O388 Zn385 1.933 . S
O388 C399 1.226 . S
O389 Zn387 1.932 . S
O389 C399 1.307 . S
O390 Zn383 1.919 . S
O390 C401 1.253 1_565 S
O391 Zn385 1.941 . S
O391 C401 1.283 . S
O392 Zn385 1.965 . S
O392 C400 1.303 . S
O393 Zn386 1.938 . S
O393 C400 1.247 . S
O394 Zn386 1.906 . S
O394 C402 1.304 . S
O395 Zn383 1.924 . S
O395 C403 1.311 . S
O396 Zn387 1.977 . S
O396 C402 1.272 . S
O397 Zn387 1.910 . S
O397 C403 1.231 1_545 S
C398 O382 1.225 . S
C398 O404 1.298 . S
C399 O388 1.226 . S
C399 O389 1.307 . S
C400 O392 1.303 . S
C400 O393 1.247 . S
C401 O390 1.253 1_545 S
C401 O391 1.283 . S
C402 O394 1.304 . S
C402 O396 1.272 . S
C403 O395 1.311 . S
C403 O397 1.231 1_565 S
O404 Zn386 1.953 1_565 S
O404 C398 1.298 . S
O405 Zn406 1.953 . S
O405 C421 1.225 . S
Zn406 O405 1.953 . S
Zn406 O407 1.949 . S
Zn406 O413 1.919 . S
Zn406 O418 1.924 . S
O407 Zn406 1.949 . S
O407 Zn408 1.923 . S
O407 Zn409 1.950 . S
O407 Zn410 1.945 . S
Zn408 O407 1.923 . S
Zn408 O411 1.933 . S
Zn408 O414 1.941 . S
Zn408 O415 1.965 . S
Zn409 O407 1.950 . S
Zn409 O416 1.938 . S
Zn409 O417 1.906 . S
Zn409 O427 1.953 . S
Zn410 O407 1.945 . S
Zn410 O412 1.932 . S
Zn410 O419 1.977 . S
Zn410 O420 1.910 . S
O411 Zn408 1.933 . S
O411 C422 1.226 . S
O412 Zn410 1.932 . S
O412 C422 1.307 . S
O413 Zn406 1.919 . S
O413 C424 1.253 . S
O414 Zn408 1.941 . S
O414 C424 1.283 . S
O415 Zn408 1.965 . S
O415 C423 1.303 . S
O416 Zn409 1.938 . S
O416 C423 1.247 . S
O417 Zn409 1.906 . S
O417 C425 1.304 . S
O418 Zn406 1.924 . S
O418 C426 1.311 . S
O419 Zn410 1.977 . S
O419 C425 1.272 . S
O420 Zn410 1.910 . S
O420 C426 1.231 . S
C421 O405 1.225 . S
C421 O427 1.298 . S
C422 O411 1.226 . S
C422 O412 1.307 . S
C423 O415 1.303 . S
C423 O416 1.247 . S
C424 O413 1.253 . S
C424 O414 1.283 . S
C425 O417 1.304 . S
C425 O419 1.272 . S
C426 O418 1.311 . S
C426 O420 1.231 . S
O427 Zn409 1.953 . S
O427 C421 1.298 . S
O428 Zn429 1.953 1_455 S
O428 C444 1.225 . S
Zn429 O428 1.953 1_655 S
Zn429 O430 1.949 1_655 S
Zn429 O436 1.919 1_545 S
Zn429 O441 1.924 . S
O430 Zn429 1.949 1_455 S
O430 Zn431 1.923 1_545 S
O430 Zn432 1.950 . S
O430 Zn433 1.945 1_455 S
Zn431 O430 1.923 1_565 S
Zn431 O434 1.933 . S
Zn431 O437 1.941 . S
Zn431 O438 1.965 . S
Zn432 O430 1.950 . S
Zn432 O439 1.938 . S
Zn432 O440 1.906 . S
Zn432 O450 1.953 . S
Zn433 O430 1.945 1_655 S
Zn433 O435 1.932 . S
Zn433 O442 1.977 1_655 S
Zn433 O443 1.910 . S
O434 Zn431 1.933 . S
O434 C445 1.207 1_465 S
O435 Zn433 1.932 . S
O435 C445 1.336 . S
O436 Zn429 1.919 1_565 S
O436 C447 1.268 . S
O437 Zn431 1.941 . S
O437 C447 1.246 1_455 S
O438 Zn431 1.965 . S
O438 C446 1.277 1_565 S
O439 Zn432 1.938 . S
O439 C446 1.297 . S
O440 Zn432 1.906 . S
O440 C448 1.304 . S
O441 Zn429 1.924 . S
O441 C449 1.311 . S
O442 Zn433 1.977 1_455 S
O442 C448 1.272 . S
O443 Zn433 1.910 . S
O443 C449 1.231 . S
C444 O428 1.225 . S
C444 O450 1.298 . S
C445 O434 1.207 1_645 S
C445 O435 1.336 . S
C446 O438 1.277 1_545 S
C446 O439 1.297 . S
C447 O436 1.268 . S
C447 O437 1.246 1_655 S
C448 O440 1.304 . S
C448 O442 1.272 . S
C449 O441 1.311 . S
C449 O443 1.231 . S
O450 Zn432 1.953 . S
O450 C444 1.298 . S
O451 Zn452 1.953 . S
O451 C467 1.225 . S
Zn452 O451 1.953 . S
Zn452 O453 1.949 . S
Zn452 O459 1.919 . S
Zn452 O464 1.924 . S
O453 Zn452 1.949 . S
O453 Zn454 1.923 . S
O453 Zn455 1.950 . S
O453 Zn456 1.945 . S
Zn454 O453 1.923 . S
Zn454 O457 1.933 . S
Zn454 O460 1.941 . S
Zn454 O461 1.965 . S
Zn455 O453 1.950 . S
Zn455 O462 1.938 . S
Zn455 O463 1.906 . S
Zn455 O473 1.953 . S
Zn456 O453 1.945 . S
Zn456 O458 1.932 . S
Zn456 O465 1.977 . S
Zn456 O466 1.910 . S
O457 Zn454 1.933 . S
O457 C468 1.226 . S
O458 Zn456 1.932 . S
O458 C468 1.307 . S
O459 Zn452 1.919 . S
O459 C470 1.253 . S
O460 Zn454 1.941 . S
O460 C470 1.283 . S
O461 Zn454 1.965 . S
O461 C469 1.303 . S
O462 Zn455 1.938 . S
O462 C469 1.247 . S
O463 Zn455 1.906 . S
O463 C471 1.304 . S
O464 Zn452 1.924 . S
O464 C472 1.311 . S
O465 Zn456 1.977 . S
O465 C471 1.272 . S
O466 Zn456 1.910 . S
O466 C472 1.231 . S
C467 O451 1.225 . S
C467 O473 1.298 . S
C468 O457 1.226 . S
C468 O458 1.307 . S
C469 O461 1.303 . S
C469 O462 1.247 . S
C470 O459 1.253 . S
C470 O460 1.283 . S
C471 O463 1.304 . S
C471 O465 1.272 . S
C472 O464 1.311 . S
C472 O466 1.231 . S
O473 Zn455 1.953 . S
O473 C467 1.298 . S
O474 Zn475 1.953 . S
O474 C490 1.225 . S
Zn475 O474 1.953 . S
Zn475 O476 1.949 . S
Zn475 O482 1.929 . S
Zn475 O487 1.924 . S
O476 Zn475 1.949 . S
O476 Zn477 1.923 1_545 S
O476 Zn478 1.950 . S
O476 Zn479 1.945 1_554 S
Zn477 O476 1.923 1_565 S
Zn477 O480 1.933 1_554 S
Zn477 O483 1.948 . S
Zn477 O484 1.965 . S
Zn478 O476 1.950 . S
Zn478 O485 1.938 1_545 S
Zn478 O486 1.906 . S
Zn478 O496 1.953 . S
Zn479 O476 1.945 1_556 S
Zn479 O481 1.932 . S
Zn479 O488 1.977 1_556 S
Zn479 O489 1.910 . S
O480 Zn477 1.933 1_556 S
O480 C491 1.226 . S
O481 Zn479 1.932 . S
O481 C491 1.307 1_545 S
O482 Zn475 1.929 . S
O482 C493 1.234 1_544 S
O483 Zn477 1.948 . S
O483 C493 1.281 1_554 S
O484 Zn477 1.965 . S
O484 C492 1.303 . S
O485 Zn478 1.938 1_565 S
O485 C492 1.247 . S
O486 Zn478 1.906 . S
O486 C494 1.304 . S
O487 Zn475 1.924 . S
O487 C495 1.311 . S
O488 Zn479 1.977 1_554 S
O488 C494 1.272 . S
O489 Zn479 1.910 . S
O489 C495 1.231 1_556 S
C490 O474 1.225 . S
C490 O496 1.298 . S
C491 O480 1.226 . S
C491 O481 1.307 1_565 S
C492 O484 1.303 . S
C492 O485 1.247 . S
C493 O482 1.234 1_566 S
C493 O483 1.281 1_556 S
C494 O486 1.304 . S
C494 O488 1.272 . S
C495 O487 1.311 . S
C495 O489 1.231 1_554 S
O496 Zn478 1.953 . S
O496 C490 1.298 . S
O497 Zn498 1.953 . S
O497 C513 1.225 . S
Zn498 O497 1.953 . S
Zn498 O499 1.949 . S
Zn498 O505 1.919 . S
Zn498 O510 1.924 . S
O499 Zn498 1.949 . S
O499 Zn500 1.923 . S
O499 Zn501 1.950 . S
O499 Zn502 1.945 . S
Zn500 O499 1.923 . S
Zn500 O503 1.933 . S
Zn500 O506 1.941 . S
Zn500 O507 1.965 . S
Zn501 O499 1.950 . S
Zn501 O508 1.938 . S
Zn501 O509 1.906 . S
Zn501 O519 1.953 . S
Zn502 O499 1.945 . S
Zn502 O504 1.932 . S
Zn502 O511 1.977 . S
Zn502 O512 1.910 . S
O503 Zn500 1.933 . S
O503 C514 1.226 . S
O504 Zn502 1.932 . S
O504 C514 1.307 . S
O505 Zn498 1.919 . S
O505 C516 1.253 . S
O506 Zn500 1.941 . S
O506 C516 1.283 . S
O507 Zn500 1.965 . S
O507 C515 1.303 . S
O508 Zn501 1.938 . S
O508 C515 1.247 . S
O509 Zn501 1.906 . S
O509 C517 1.304 . S
O510 Zn498 1.924 . S
O510 C518 1.311 . S
O511 Zn502 1.977 . S
O511 C517 1.272 . S
O512 Zn502 1.910 . S
O512 C518 1.231 . S
C513 O497 1.225 . S
C513 O519 1.298 . S
C514 O503 1.226 . S
C514 O504 1.307 . S
C515 O507 1.303 . S
C515 O508 1.247 . S
C516 O505 1.253 . S
C516 O506 1.283 . S
C517 O509 1.304 . S
C517 O511 1.272 . S
C518 O510 1.311 . S
C518 O512 1.231 . S
O519 Zn501 1.953 . S
O519 C513 1.298 . S
O520 Zn521 1.953 . S
O520 C536 1.225 . S
Zn521 O520 1.953 . S
Zn521 O522 1.949 1_556 S
Zn521 O528 1.919 . S
Zn521 O533 1.924 . S
O522 Zn521 1.949 1_554 S
O522 Zn523 1.923 . S
O522 Zn524 1.950 . S
O522 Zn525 1.945 . S
Zn523 O522 1.923 . S
Zn523 O526 1.933 . S
Zn523 O529 1.941 . S
Zn523 O530 1.965 . S
Zn524 O522 1.950 . S
Zn524 O531 1.938 . S
Zn524 O532 1.906 . S
Zn524 O542 1.953 1_554 S
Zn525 O522 1.945 . S
Zn525 O527 1.932 . S
Zn525 O534 1.977 . S
Zn525 O535 1.910 . S
O526 Zn523 1.933 . S
O526 C537 1.226 . S
O527 Zn525 1.932 . S
O527 C537 1.307 . S
O528 Zn521 1.919 . S
O528 C539 1.253 1_556 S
O529 Zn523 1.941 . S
O529 C539 1.283 . S
O530 Zn523 1.965 . S
O530 C538 1.303 . S
O531 Zn524 1.938 . S
O531 C538 1.247 . S
O532 Zn524 1.906 . S
O532 C540 1.304 . S
O533 Zn521 1.924 . S
O533 C541 1.311 . S
O534 Zn525 1.977 . S
O534 C540 1.272 . S
O535 Zn525 1.910 . S
O535 C541 1.231 1_554 S
C536 O520 1.225 . S
C536 O542 1.298 . S
C537 O526 1.226 . S
C537 O527 1.307 . S
C538 O530 1.303 . S
C538 O531 1.247 . S
C539 O528 1.253 1_554 S
C539 O529 1.283 . S
C540 O532 1.304 . S
C540 O534 1.272 . S
C541 O533 1.311 . S
C541 O535 1.231 1_556 S
O542 Zn524 1.953 1_556 S
O542 C536 1.298 . S
O543 Zn544 1.953 . S
O543 C559 1.225 . S
Zn544 O543 1.953 . S
Zn544 O545 1.949 . S
Zn544 O551 1.919 . S
Zn544 O556 1.924 . S
O545 Zn544 1.949 . S
O545 Zn546 1.923 . S
O545 Zn547 1.950 . S
O545 Zn548 1.945 . S
Zn546 O545 1.923 . S
Zn546 O549 1.933 . S
Zn546 O552 1.941 . S
Zn546 O553 1.965 . S
Zn547 O545 1.950 . S
Zn547 O554 1.938 . S
Zn547 O555 1.906 . S
Zn547 O565 1.953 . S
Zn548 O545 1.945 . S
Zn548 O550 1.932 . S
Zn548 O557 1.977 . S
Zn548 O558 1.910 . S
O549 Zn546 1.933 . S
O549 C560 1.226 . S
O550 Zn548 1.932 . S
O550 C560 1.307 . S
O551 Zn544 1.919 . S
O551 C562 1.253 . S
O552 Zn546 1.941 . S
O552 C562 1.283 . S
O553 Zn546 1.965 . S
O553 C561 1.303 . S
O554 Zn547 1.938 . S
O554 C561 1.247 . S
O555 Zn547 1.906 . S
O555 C563 1.304 . S
O556 Zn544 1.924 . S
O556 C564 1.311 . S
O557 Zn548 1.977 . S
O557 C563 1.272 . S
O558 Zn548 1.910 . S
O558 C564 1.231 . S
C559 O543 1.225 . S
C559 O565 1.298 . S
C560 O549 1.226 . S
C560 O550 1.307 . S
C561 O553 1.303 . S
C561 O554 1.247 . S
C562 O551 1.253 . S
C562 O552 1.283 . S
C563 O555 1.304 . S
C563 O557 1.272 . S
C564 O556 1.311 . S
C564 O558 1.231 . S
O565 Zn547 1.953 . S
O565 C559 1.298 . S
O566 Zn567 1.953 . S
O566 C582 1.225 . S
Zn567 O566 1.953 . S
Zn567 O568 1.966 . S
Zn567 O574 1.919 . S
Zn567 O579 1.924 . S
O568 Zn567 1.966 . S
O568 Zn569 1.924 . S
O568 Zn570 1.940 1_455 S
O568 Zn571 1.936 1_455 S
Zn569 O568 1.924 . S
Zn569 O572 1.933 1_455 S
Zn569 O575 1.941 . S
Zn569 O576 1.965 1_455 S
Zn570 O568 1.940 1_655 S
Zn570 O577 1.938 . S
Zn570 O578 1.906 . S
Zn570 O588 1.927 1_655 S
Zn571 O568 1.936 1_655 S
Zn571 O573 1.932 . S
Zn571 O580 1.977 . S
Zn571 O581 1.889 1_655 S
O572 Zn569 1.933 1_655 S
O572 C583 1.226 . S
O573 Zn571 1.932 . S
O573 C583 1.307 . S
O574 Zn567 1.919 . S
O574 C585 1.253 . S
O575 Zn569 1.941 . S
O575 C585 1.283 . S
O576 Zn569 1.965 1_655 S
O576 C584 1.303 . S
O577 Zn570 1.938 . S
O577 C584 1.247 . S
O578 Zn570 1.906 . S
O578 C586 1.304 . S
O579 Zn567 1.924 . S
O579 C587 1.311 . S
O580 Zn571 1.977 . S
O580 C586 1.272 . S
O581 Zn571 1.889 1_455 S
O581 C587 1.272 . S
C582 O566 1.225 . S
C582 O588 1.349 . S
C583 O572 1.226 . S
C583 O573 1.307 . S
C584 O576 1.303 . S
C584 O577 1.247 . S
C585 O574 1.253 . S
C585 O575 1.283 . S
C586 O578 1.304 . S
C586 O580 1.272 . S
C587 O579 1.311 . S
C587 O581 1.272 . S
O588 Zn570 1.927 1_455 S
O588 C582 1.349 . S
O589 Zn590 1.953 . S
O589 C605 1.225 . S
Zn590 O589 1.953 . S
Zn590 O591 1.949 . S
Zn590 O597 1.919 . S
Zn590 O602 1.924 . S
O591 Zn590 1.949 . S
O591 Zn592 1.923 . S
O591 Zn593 1.950 . S
O591 Zn594 1.945 . S
Zn592 O591 1.923 . S
Zn592 O595 1.933 . S
Zn592 O598 1.941 . S
Zn592 O599 1.965 . S
Zn593 O591 1.950 . S
Zn593 O600 1.938 . S
Zn593 O601 1.906 . S
Zn593 O611 1.953 . S
Zn594 O591 1.945 . S
Zn594 O596 1.932 . S
Zn594 O603 1.977 . S
Zn594 O604 1.910 . S
O595 Zn592 1.933 . S
O595 C606 1.226 . S
O596 Zn594 1.932 . S
O596 C606 1.307 . S
O597 Zn590 1.919 . S
O597 C608 1.253 . S
O598 Zn592 1.941 . S
O598 C608 1.283 . S
O599 Zn592 1.965 . S
O599 C607 1.303 . S
O600 Zn593 1.938 . S
O600 C607 1.247 . S
O601 Zn593 1.906 . S
O601 C609 1.304 . S
O602 Zn590 1.924 . S
O602 C610 1.311 . S
O603 Zn594 1.977 . S
O603 C609 1.272 . S
O604 Zn594 1.910 . S
O604 C610 1.231 . S
C605 O589 1.225 . S
C605 O611 1.298 . S
C606 O595 1.226 . S
C606 O596 1.307 . S
C607 O599 1.303 . S
C607 O600 1.247 . S
C608 O597 1.253 . S
C608 O598 1.283 . S
C609 O601 1.304 . S
C609 O603 1.272 . S
C610 O602 1.311 . S
C610 O604 1.231 . S
O611 Zn593 1.953 . S
O611 C605 1.298 . S
O612 Zn613 1.953 . S
O612 C628 1.225 . S
Zn613 O612 1.953 . S
Zn613 O614 1.949 . S
Zn613 O620 1.919 . S
Zn613 O625 1.924 . S
O614 Zn613 1.949 . S
O614 Zn615 1.923 . S
O614 Zn616 1.950 . S
O614 Zn617 1.945 . S
Zn615 O614 1.923 . S
Zn615 O618 1.933 . S
Zn615 O621 1.941 . S
Zn615 O622 1.965 . S
Zn616 O614 1.950 . S
Zn616 O623 1.938 . S
Zn616 O624 1.906 . S
Zn616 O634 1.953 . S
Zn617 O614 1.945 . S
Zn617 O619 1.932 . S
Zn617 O626 1.977 . S
Zn617 O627 1.910 . S
O618 Zn615 1.933 . S
O618 C629 1.226 . S
O619 Zn617 1.932 . S
O619 C629 1.307 . S
O620 Zn613 1.919 . S
O620 C631 1.253 . S
O621 Zn615 1.941 . S
O621 C631 1.283 . S
O622 Zn615 1.965 . S
O622 C630 1.303 . S
O623 Zn616 1.938 . S
O623 C630 1.247 . S
O624 Zn616 1.906 . S
O624 C632 1.304 . S
O625 Zn613 1.924 . S
O625 C633 1.311 . S
O626 Zn617 1.977 . S
O626 C632 1.272 . S
O627 Zn617 1.910 . S
O627 C633 1.231 . S
C628 O612 1.225 . S
C628 O634 1.298 . S
C629 O618 1.226 . S
C629 O619 1.307 . S
C630 O622 1.303 . S
C630 O623 1.247 . S
C631 O620 1.253 . S
C631 O621 1.283 . S
C632 O624 1.304 . S
C632 O626 1.272 . S
C633 O625 1.311 . S
C633 O627 1.231 . S
O634 Zn616 1.953 . S
O634 C628 1.298 . S
O635 Zn636 1.953 . S
O635 C651 1.225 . S
Zn636 O635 1.953 . S
Zn636 O637 1.949 . S
Zn636 O643 1.919 . S
Zn636 O648 1.924 . S
O637 Zn636 1.949 . S
O637 Zn638 1.923 . S
O637 Zn639 1.950 . S
O637 Zn640 1.945 . S
Zn638 O637 1.923 . S
Zn638 O641 1.933 . S
Zn638 O644 1.941 . S
Zn638 O645 1.965 . S
Zn639 O637 1.950 . S
Zn639 O646 1.938 . S
Zn639 O647 1.906 . S
Zn639 O657 1.953 . S
Zn640 O637 1.945 . S
Zn640 O642 1.932 . S
Zn640 O649 1.977 . S
Zn640 O650 1.910 . S
O641 Zn638 1.933 . S
O641 C652 1.226 . S
O642 Zn640 1.932 . S
O642 C652 1.307 . S
O643 Zn636 1.919 . S
O643 C654 1.253 . S
O644 Zn638 1.941 . S
O644 C654 1.283 . S
O645 Zn638 1.965 . S
O645 C653 1.303 . S
O646 Zn639 1.938 . S
O646 C653 1.247 . S
O647 Zn639 1.906 . S
O647 C655 1.304 . S
O648 Zn636 1.924 . S
O648 C656 1.311 . S
O649 Zn640 1.977 . S
O649 C655 1.272 . S
O650 Zn640 1.910 . S
O650 C656 1.231 . S
C651 O635 1.225 . S
C651 O657 1.298 . S
C652 O641 1.226 . S
C652 O642 1.307 . S
C653 O645 1.303 . S
C653 O646 1.247 . S
C654 O643 1.253 . S
C654 O644 1.283 . S
C655 O647 1.304 . S
C655 O649 1.272 . S
C656 O648 1.311 . S
C656 O650 1.231 . S
O657 Zn639 1.953 . S
O657 C651 1.298 . S
O658 Zn659 1.953 . S
O658 C674 1.225 . S
Zn659 O658 1.953 . S
Zn659 O660 1.949 . S
Zn659 O666 1.919 . S
Zn659 O671 1.924 . S
O660 Zn659 1.949 . S
O660 Zn661 1.923 . S
O660 Zn662 1.950 . S
O660 Zn663 1.945 . S
Zn661 O660 1.923 . S
Zn661 O664 1.933 . S
Zn661 O667 1.941 . S
Zn661 O668 1.965 . S
Zn662 O660 1.950 . S
Zn662 O669 1.938 . S
Zn662 O670 1.906 . S
Zn662 O680 1.953 . S
Zn663 O660 1.945 . S
Zn663 O665 1.932 . S
Zn663 O672 1.977 . S
Zn663 O673 1.910 . S
O664 Zn661 1.933 . S
O664 C675 1.226 . S
O665 Zn663 1.932 . S
O665 C675 1.307 . S
O666 Zn659 1.919 . S
O666 C677 1.253 . S
O667 Zn661 1.941 . S
O667 C677 1.283 . S
O668 Zn661 1.965 . S
O668 C676 1.303 . S
O669 Zn662 1.938 . S
O669 C676 1.247 . S
O670 Zn662 1.906 . S
O670 C678 1.304 . S
O671 Zn659 1.924 . S
O671 C679 1.311 . S
O672 Zn663 1.977 . S
O672 C678 1.272 . S
O673 Zn663 1.910 . S
O673 C679 1.231 . S
C674 O658 1.225 . S
C674 O680 1.298 . S
C675 O664 1.226 . S
C675 O665 1.307 . S
C676 O668 1.303 . S
C676 O669 1.247 . S
C677 O666 1.253 . S
C677 O667 1.283 . S
C678 O670 1.304 . S
C678 O672 1.272 . S
C679 O671 1.311 . S
C679 O673 1.231 . S
O680 Zn662 1.953 . S
O680 C674 1.298 . S
O681 Zn682 1.951 1_455 S
O681 C697 1.225 . S
Zn682 O681 1.951 1_655 S
Zn682 O683 1.946 1_655 S
Zn682 O689 1.927 . S
Zn682 O694 1.920 1_654 S
O683 Zn682 1.946 1_455 S
O683 Zn684 1.923 1_455 S
O683 Zn685 1.950 . S
O683 Zn686 1.945 1_554 S
Zn684 O683 1.923 1_655 S
Zn684 O687 1.933 . S
Zn684 O690 1.941 . S
Zn684 O691 1.965 . S
Zn685 O683 1.950 . S
Zn685 O692 1.938 . S
Zn685 O693 1.906 . S
Zn685 O703 1.953 . S
Zn686 O683 1.945 1_556 S
Zn686 O688 1.932 . S
Zn686 O695 1.977 1_556 S
Zn686 O696 1.910 . S
O687 Zn684 1.933 . S
O687 C698 1.237 . S
O688 Zn686 1.932 . S
O688 C698 1.301 1_456 S
O689 Zn682 1.927 . S
O689 C700 1.253 . S
O690 Zn684 1.941 . S
O690 C700 1.283 . S
O691 Zn684 1.965 . S
O691 C699 1.303 . S
O692 Zn685 1.938 . S
O692 C699 1.247 1_455 S
O693 Zn685 1.906 . S
O693 C701 1.304 . S
O694 Zn682 1.920 1_456 S
O694 C702 1.311 . S
O695 Zn686 1.977 1_554 S
O695 C701 1.272 . S
O696 Zn686 1.910 . S
O696 C702 1.231 . S
C697 O681 1.225 . S
C697 O703 1.298 . S
C698 O687 1.237 . S
C698 O688 1.301 1_654 S
C699 O691 1.303 . S
C699 O692 1.247 1_655 S
C700 O689 1.253 . S
C700 O690 1.283 . S
C701 O693 1.304 . S
C701 O695 1.272 . S
C702 O694 1.311 . S
C702 O696 1.231 . S
O703 Zn685 1.953 . S
O703 C697 1.298 . S
H704 C712 0.929 . S
H705 C714 0.930 . S
H706 C716 0.930 . S
H707 C719 0.929 . S
H708 C722 0.930 . S
H709 C724 0.960 . S
H710 C724 0.960 . S
H711 C724 0.960 . S
C712 H704 0.929 . S
C712 C713 1.377 . S
C712 C714 1.384 . S
C713 C712 1.377 . S
C713 C719 1.390 1_455 S
C714 H705 0.930 . S
C714 C712 1.384 . S
C714 C715 1.380 . S
C715 C714 1.380 . S
C715 C716 1.393 1_455 S
C715 C720 1.489 1_455 S
C716 H706 0.930 . S
C716 C715 1.393 1_655 S
C716 C719 1.386 . S
H717 C733 0.930 . S
H718 C734 0.931 . S
C719 H707 0.929 . S
C719 C713 1.390 1_655 S
C719 C716 1.386 . S
C720 C715 1.489 1_655 S
C720 C722 1.395 1_655 S
C720 C723 1.403 . S
H721 C727 0.930 . S
C722 H708 0.930 . S
C722 C720 1.395 1_455 S
C722 C725 1.403 . S
C723 C720 1.403 . S
C723 C724 1.524 . S
C723 C727 1.400 . S
C724 H709 0.960 . S
C724 H710 0.960 . S
C724 H711 0.960 . S
C724 C723 1.524 . S
C725 C722 1.403 . S
C725 C726 1.392 1_455 S
C725 C729 1.495 . S
C726 C725 1.392 1_655 S
C726 C727 1.385 . S
C726 C728 1.478 . S
C727 H721 0.930 . S
C727 C723 1.400 . S
C727 C726 1.385 . S
C728 C726 1.478 . S
C728 C730 1.379 1_655 S
C728 C734 1.383 . S
C729 C725 1.495 . S
C729 H735 0.959 . S
C729 H736 0.961 . S
C729 H737 0.960 . S
C730 C728 1.379 1_455 S
C730 C731 1.393 1_455 S
C730 H738 0.934 . S
C731 C730 1.393 1_655 S
C731 C732 1.383 . S
C731 H739 0.930 . S
C732 C731 1.383 . S
C732 C733 1.377 . S
C733 H717 0.930 . S
C733 C732 1.377 . S
C733 C734 1.379 . S
C734 H718 0.931 . S
C734 C728 1.383 . S
C734 C733 1.379 . S
H735 C729 0.959 . S
H736 C729 0.961 . S
H737 C729 0.960 . S
H738 C730 0.934 . S
H739 C731 0.930 . S
H740 C748 0.929 . S
H741 C750 0.930 . S
H742 C752 0.930 . S
H743 C755 0.929 . S
H744 C758 0.930 . S
H745 C760 0.960 . S
H746 C760 0.960 . S
H747 C760 0.960 . S
C748 H740 0.929 . S
C748 C749 1.377 . S
C748 C750 1.384 . S
C749 C748 1.377 . S
C749 C755 1.390 . S
C750 H741 0.930 . S
C750 C748 1.384 . S
C750 C751 1.372 . S
C751 C750 1.372 . S
C751 C752 1.400 . S
C751 C756 1.490 . S
C752 H742 0.930 . S
C752 C751 1.400 . S
C752 C755 1.386 . S
H753 C769 0.930 . S
H754 C770 0.931 . S
C755 H743 0.929 . S
C755 C749 1.390 . S
C755 C752 1.386 . S
C756 C751 1.490 . S
C756 C758 1.395 . S
C756 C759 1.403 . S
H757 C763 0.930 . S
C758 H744 0.930 . S
C758 C756 1.395 . S
C758 C761 1.403 . S
C759 C756 1.403 . S
C759 C760 1.524 . S
C759 C763 1.400 . S
C760 H745 0.960 . S
C760 H746 0.960 . S
C760 H747 0.960 . S
C760 C759 1.524 . S
C761 C758 1.403 . S
C761 C762 1.392 . S
C761 C765 1.495 . S
C762 C761 1.392 . S
C762 C763 1.385 . S
C762 C764 1.478 . S
C763 H757 0.930 . S
C763 C759 1.400 . S
C763 C762 1.385 . S
C764 C762 1.478 . S
C764 C766 1.381 . S
C764 C770 1.383 . S
C765 C761 1.495 . S
C765 H771 0.959 . S
C765 H772 0.961 . S
C765 H773 0.960 . S
C766 C764 1.381 . S
C766 C767 1.394 . S
C766 H774 0.930 . S
C767 C766 1.394 . S
C767 C768 1.383 . S
C767 H775 0.929 . S
C768 C767 1.383 . S
C768 C769 1.377 . S
C769 H753 0.930 . S
C769 C768 1.377 . S
C769 C770 1.379 . S
C770 H754 0.931 . S
C770 C764 1.383 . S
C770 C769 1.379 . S
H771 C765 0.959 . S
H772 C765 0.961 . S
H773 C765 0.960 . S
H774 C766 0.930 . S
H775 C767 0.929 . S
H776 C784 0.929 . S
H777 C786 0.930 . S
H778 C788 0.930 . S
H779 C791 0.929 . S
H780 C794 0.930 . S
H781 C796 0.960 . S
H782 C796 0.960 . S
H783 C796 0.960 . S
C784 H776 0.929 . S
C784 C785 1.377 . S
C784 C786 1.384 . S
C785 C784 1.377 . S
C785 C791 1.390 . S
C786 H777 0.930 . S
C786 C784 1.384 . S
C786 C787 1.372 . S
C787 C786 1.372 . S
C787 C788 1.400 . S
C787 C792 1.490 . S
C788 H778 0.930 . S
C788 C787 1.400 . S
C788 C791 1.386 . S
H789 C805 0.930 . S
H790 C806 0.931 . S
C791 H779 0.929 . S
C791 C785 1.390 . S
C791 C788 1.386 . S
C792 C787 1.490 . S
C792 C794 1.395 . S
C792 C795 1.403 . S
H793 C799 0.930 . S
C794 H780 0.930 . S
C794 C792 1.395 . S
C794 C797 1.403 . S
C795 C792 1.403 . S
C795 C796 1.524 . S
C795 C799 1.400 . S
C796 H781 0.960 . S
C796 H782 0.960 . S
C796 H783 0.960 . S
C796 C795 1.524 . S
C797 C794 1.403 . S
C797 C798 1.392 . S
C797 C801 1.495 . S
C798 C797 1.392 . S
C798 C799 1.385 . S
C798 C800 1.478 . S
C799 H793 0.930 . S
C799 C795 1.400 . S
C799 C798 1.385 . S
C800 C798 1.478 . S
C800 C802 1.381 . S
C800 C806 1.383 . S
C801 C797 1.495 . S
C801 H807 0.959 . S
C801 H808 0.961 . S
C801 H809 0.960 . S
C802 C800 1.381 . S
C802 C803 1.394 . S
C802 H810 0.930 . S
C803 C802 1.394 . S
C803 C804 1.383 . S
C803 H811 0.929 . S
C804 C803 1.383 . S
C804 C805 1.377 . S
C805 H789 0.930 . S
C805 C804 1.377 . S
C805 C806 1.379 . S
C806 H790 0.931 . S
C806 C800 1.383 . S
C806 C805 1.379 . S
H807 C801 0.959 . S
H808 C801 0.961 . S
H809 C801 0.960 . S
H810 C802 0.930 . S
H811 C803 0.929 . S
H812 C820 0.929 . S
H813 C822 0.930 . S
H814 C824 0.930 . S
H815 C827 0.929 . S
H816 C830 0.930 . S
H817 C832 0.960 . S
H818 C832 0.960 . S
H819 C832 0.960 . S
C820 H812 0.929 . S
C820 C821 1.377 . S
C820 C822 1.384 . S
C821 C820 1.377 . S
C821 C827 1.390 . S
C822 H813 0.930 . S
C822 C820 1.384 . S
C822 C823 1.372 . S
C823 C822 1.372 . S
C823 C824 1.400 . S
C823 C828 1.490 . S
C824 H814 0.930 . S
C824 C823 1.400 . S
C824 C827 1.386 . S
H825 C841 0.930 . S
H826 C842 0.931 . S
C827 H815 0.929 . S
C827 C821 1.390 . S
C827 C824 1.386 . S
C828 C823 1.490 . S
C828 C830 1.395 . S
C828 C831 1.403 . S
H829 C835 0.930 . S
C830 H816 0.930 . S
C830 C828 1.395 . S
C830 C833 1.403 . S
C831 C828 1.403 . S
C831 C832 1.524 . S
C831 C835 1.400 . S
C832 H817 0.960 . S
C832 H818 0.960 . S
C832 H819 0.960 . S
C832 C831 1.524 . S
C833 C830 1.403 . S
C833 C834 1.392 . S
C833 C837 1.495 . S
C834 C833 1.392 . S
C834 C835 1.385 . S
C834 C836 1.478 . S
C835 H829 0.930 . S
C835 C831 1.400 . S
C835 C834 1.385 . S
C836 C834 1.478 . S
C836 C838 1.381 . S
C836 C842 1.383 . S
C837 C833 1.495 . S
C837 H843 0.959 . S
C837 H844 0.961 . S
C837 H845 0.960 . S
C838 C836 1.381 . S
C838 C839 1.394 . S
C838 H846 0.930 . S
C839 C838 1.394 . S
C839 C840 1.383 . S
C839 H847 0.929 . S
C840 C839 1.383 . S
C840 C841 1.377 . S
C841 H825 0.930 . S
C841 C840 1.377 . S
C841 C842 1.379 . S
C842 H826 0.931 . S
C842 C836 1.383 . S
C842 C841 1.379 . S
H843 C837 0.959 . S
H844 C837 0.961 . S
H845 C837 0.960 . S
H846 C838 0.930 . S
H847 C839 0.929 . S
H848 C856 0.929 . S
H849 C858 0.930 . S
H850 C860 0.930 . S
H851 C863 0.929 . S
H852 C866 0.930 . S
H853 C868 0.960 . S
H854 C868 0.960 . S
H855 C868 0.960 . S
C856 H848 0.929 . S
C856 C857 1.377 . S
C856 C858 1.384 . S
C857 C856 1.377 . S
C857 C863 1.390 1_455 S
C858 H849 0.930 . S
C858 C856 1.384 . S
C858 C859 1.372 . S
C859 C858 1.372 . S
C859 C860 1.400 1_455 S
C859 C864 1.490 . S
C860 H850 0.930 . S
C860 C859 1.400 1_655 S
C860 C863 1.386 . S
H861 C877 0.930 . S
H862 C878 0.931 . S
C863 H851 0.929 . S
C863 C857 1.390 1_655 S
C863 C860 1.386 . S
C864 C859 1.490 . S
C864 C866 1.395 . S
C864 C867 1.403 1_455 S
H865 C871 0.930 . S
C866 H852 0.930 . S
C866 C864 1.395 . S
C866 C869 1.403 . S
C867 C864 1.403 1_655 S
C867 C868 1.524 . S
C867 C871 1.400 . S
C868 H853 0.960 . S
C868 H854 0.960 . S
C868 H855 0.960 . S
C868 C867 1.524 . S
C869 C866 1.403 . S
C869 C870 1.392 . S
C869 C873 1.495 . S
C870 C869 1.392 . S
C870 C871 1.385 1_455 S
C870 C872 1.478 . S
C871 H865 0.930 . S
C871 C867 1.400 . S
C871 C870 1.385 1_655 S
C872 C870 1.478 . S
C872 C874 1.387 . S
C872 C878 1.376 1_455 S
C873 C869 1.495 . S
C873 H879 0.959 . S
C873 H880 0.961 . S
C873 H881 0.960 . S
C874 C872 1.387 . S
C874 C875 1.394 . S
C874 H882 0.930 . S
C875 C874 1.394 . S
C875 C876 1.383 1_455 S
C875 H883 0.929 . S
C876 C875 1.383 1_655 S
C876 C877 1.377 . S
C877 H861 0.930 . S
C877 C876 1.377 . S
C877 C878 1.379 . S
C878 H862 0.931 . S
C878 C872 1.376 1_655 S
C878 C877 1.379 . S
H879 C873 0.959 . S
H880 C873 0.961 . S
H881 C873 0.960 . S
H882 C874 0.930 . S
H883 C875 0.929 . S
H884 C892 0.929 . S
H885 C894 0.930 . S
H886 C896 0.930 . S
H887 C899 0.929 . S
H888 C902 0.930 . S
H889 C904 0.960 . S
H890 C904 0.960 . S
H891 C904 0.960 . S
C892 H884 0.929 . S
C892 C893 1.377 . S
C892 C894 1.384 . S
C893 C892 1.377 . S
C893 C899 1.390 . S
C894 H885 0.930 . S
C894 C892 1.384 . S
C894 C895 1.372 . S
C895 C894 1.372 . S
C895 C896 1.400 . S
C895 C900 1.490 . S
C896 H886 0.930 . S
C896 C895 1.400 . S
C896 C899 1.386 . S
H897 C913 0.930 . S
H898 C914 0.931 . S
C899 H887 0.929 . S
C899 C893 1.390 . S
C899 C896 1.386 . S
C900 C895 1.490 . S
C900 C902 1.395 . S
C900 C903 1.403 . S
H901 C907 0.930 . S
C902 H888 0.930 . S
C902 C900 1.395 . S
C902 C905 1.403 . S
C903 C900 1.403 . S
C903 C904 1.524 . S
C903 C907 1.400 . S
C904 H889 0.960 . S
C904 H890 0.960 . S
C904 H891 0.960 . S
C904 C903 1.524 . S
C905 C902 1.403 . S
C905 C906 1.392 . S
C905 C909 1.495 . S
C906 C905 1.392 . S
C906 C907 1.385 . S
C906 C908 1.478 . S
C907 H901 0.930 . S
C907 C903 1.400 . S
C907 C906 1.385 . S
C908 C906 1.478 . S
C908 C910 1.381 . S
C908 C914 1.383 . S
C909 C905 1.495 . S
C909 H915 0.959 . S
C909 H916 0.961 . S
C909 H917 0.960 . S
C910 C908 1.381 . S
C910 C911 1.394 . S
C910 H918 0.930 . S
C911 C910 1.394 . S
C911 C912 1.383 . S
C911 H919 0.929 . S
C912 C911 1.383 . S
C912 C913 1.377 . S
C913 H897 0.930 . S
C913 C912 1.377 . S
C913 C914 1.379 . S
C914 H898 0.931 . S
C914 C908 1.383 . S
C914 C913 1.379 . S
H915 C909 0.959 . S
H916 C909 0.961 . S
H917 C909 0.960 . S
H918 C910 0.930 . S
H919 C911 0.929 . S
H920 C928 0.929 . S
H921 C930 0.930 . S
H922 C932 0.930 . S
H923 C935 0.929 . S
H924 C938 0.930 . S
H925 C940 0.960 . S
H926 C940 0.960 . S
H927 C940 0.960 . S
C928 H920 0.929 . S
C928 C929 1.377 . S
C928 C930 1.384 . S
C929 C928 1.377 . S
C929 C935 1.390 . S
C930 H921 0.930 . S
C930 C928 1.384 . S
C930 C931 1.372 . S
C931 C930 1.372 . S
C931 C932 1.400 . S
C931 C936 1.490 . S
C932 H922 0.930 . S
C932 C931 1.400 . S
C932 C935 1.386 . S
H933 C949 0.930 . S
H934 C950 0.931 1_554 S
C935 H923 0.929 . S
C935 C929 1.390 . S
C935 C932 1.386 . S
C936 C931 1.490 . S
C936 C938 1.395 . S
C936 C939 1.403 . S
H937 C943 0.930 . S
C938 H924 0.930 . S
C938 C936 1.395 . S
C938 C941 1.403 . S
C939 C936 1.403 . S
C939 C940 1.524 . S
C939 C943 1.400 . S
C940 H925 0.960 . S
C940 H926 0.960 . S
C940 H927 0.960 . S
C940 C939 1.524 . S
C941 C938 1.403 . S
C941 C942 1.392 . S
C941 C945 1.495 . S
C942 C941 1.392 . S
C942 C943 1.385 . S
C942 C944 1.478 . S
C943 H937 0.930 . S
C943 C939 1.400 . S
C943 C942 1.385 . S
C944 C942 1.478 . S
C944 C946 1.381 . S
C944 C950 1.383 . S
C945 C941 1.495 . S
C945 H951 0.959 . S
C945 H952 0.961 . S
C945 H953 0.960 . S
C946 C944 1.381 . S
C946 C947 1.394 . S
C946 H954 0.930 . S
C947 C946 1.394 . S
C947 C948 1.383 1_556 S
C947 H955 0.929 . S
C948 C947 1.383 1_554 S
C948 C949 1.377 . S
C949 H933 0.930 . S
C949 C948 1.377 . S
C949 C950 1.379 1_554 S
C950 H934 0.931 1_556 S
C950 C944 1.383 . S
C950 C949 1.379 1_556 S
H951 C945 0.959 . S
H952 C945 0.961 . S
H953 C945 0.960 . S
H954 C946 0.930 . S
H955 C947 0.929 . S
H956 C964 0.929 . S
H957 C966 0.930 . S
H958 C968 0.930 . S
H959 C971 0.929 . S
H960 C974 0.930 . S
H961 C976 0.960 . S
H962 C976 0.960 . S
H963 C976 0.960 . S
C964 H956 0.929 . S
C964 C965 1.377 . S
C964 C966 1.384 . S
C965 C964 1.377 . S
C965 C971 1.390 . S
C966 H957 0.930 . S
C966 C964 1.384 . S
C966 C967 1.372 . S
C967 C966 1.372 . S
C967 C968 1.400 . S
C967 C972 1.490 . S
C968 H958 0.930 . S
C968 C967 1.400 . S
C968 C971 1.386 . S
H969 C985 0.930 . S
H970 C986 0.931 . S
C971 H959 0.929 . S
C971 C965 1.390 . S
C971 C968 1.386 . S
C972 C967 1.490 . S
C972 C974 1.395 . S
C972 C975 1.403 . S
H973 C979 0.930 . S
C974 H960 0.930 . S
C974 C972 1.395 . S
C974 C977 1.403 . S
C975 C972 1.403 . S
C975 C976 1.524 . S
C975 C979 1.400 . S
C976 H961 0.960 . S
C976 H962 0.960 . S
C976 H963 0.960 . S
C976 C975 1.524 . S
C977 C974 1.403 . S
C977 C978 1.392 . S
C977 C981 1.495 . S
C978 C977 1.392 . S
C978 C979 1.385 . S
C978 C980 1.478 . S
C979 H973 0.930 . S
C979 C975 1.400 . S
C979 C978 1.385 . S
C980 C978 1.478 . S
C980 C982 1.381 . S
C980 C986 1.383 . S
C981 C977 1.495 . S
C981 H987 0.959 . S
C981 H988 0.961 . S
C981 H989 0.960 . S
C982 C980 1.381 . S
C982 C983 1.394 . S
C982 H990 0.930 . S
C983 C982 1.394 . S
C983 C984 1.383 . S
C983 H991 0.929 . S
C984 C983 1.383 . S
C984 C985 1.377 . S
C985 H969 0.930 . S
C985 C984 1.377 . S
C985 C986 1.379 . S
C986 H970 0.931 . S
C986 C980 1.383 . S
C986 C985 1.379 . S
H987 C981 0.959 . S
H988 C981 0.961 . S
H989 C981 0.960 . S
H990 C982 0.930 . S
H991 C983 0.929 . S
H992 C1000 0.929 . S
H993 C1002 0.930 . S
H994 C1004 0.930 1_565 S
H995 C1007 0.929 1_565 S
H996 C1010 0.930 . S
H997 C1012 0.960 . S
H998 C1012 0.960 . S
H999 C1012 0.960 . S
C1000 H992 0.929 . S
C1000 C1001 1.377 . S
C1000 C1002 1.384 . S
C1001 C1000 1.377 . S
C1001 C1007 1.390 . S
C1002 H993 0.930 . S
C1002 C1000 1.384 . S
C1002 C1003 1.372 . S
C1003 C1002 1.372 . S
C1003 C1004 1.400 . S
C1003 C1008 1.490 . S
C1004 H994 0.930 1_545 S
C1004 C1003 1.400 . S
C1004 C1007 1.386 . S
H1005 C1021 0.930 . S
H1006 C1022 0.931 . S
C1007 H995 0.929 1_545 S
C1007 C1001 1.390 . S
C1007 C1004 1.386 . S
C1008 C1003 1.490 . S
C1008 C1010 1.395 . S
C1008 C1011 1.403 . S
H1009 C1015 0.930 . S
C1010 H996 0.930 . S
C1010 C1008 1.395 . S
C1010 C1013 1.403 . S
C1011 C1008 1.403 . S
C1011 C1012 1.524 . S
C1011 C1015 1.400 . S
C1012 H997 0.960 . S
C1012 H998 0.960 . S
C1012 H999 0.960 . S
C1012 C1011 1.524 . S
C1013 C1010 1.403 . S
C1013 C1014 1.392 . S
C1013 C1017 1.495 . S
C1014 C1013 1.392 . S
C1014 C1015 1.385 . S
C1014 C1016 1.478 . S
C1015 H1009 0.930 . S
C1015 C1011 1.400 . S
C1015 C1014 1.385 . S
C1016 C1014 1.478 . S
C1016 C1018 1.381 . S
C1016 C1022 1.383 1_545 S
C1017 C1013 1.495 . S
C1017 H1023 0.959 . S
C1017 H1024 0.961 1_545 S
C1017 H1025 0.960 . S
C1018 C1016 1.381 . S
C1018 C1019 1.394 . S
C1018 H1026 0.930 . S
C1019 C1018 1.394 . S
C1019 C1020 1.383 . S
C1019 H1027 0.929 . S
C1020 C1019 1.383 . S
C1020 C1021 1.377 1_545 S
C1021 H1005 0.930 . S
C1021 C1020 1.377 1_565 S
C1021 C1022 1.379 . S
C1022 H1006 0.931 . S
C1022 C1016 1.383 1_565 S
C1022 C1021 1.379 . S
H1023 C1017 0.959 . S
H1024 C1017 0.961 1_565 S
H1025 C1017 0.960 . S
H1026 C1018 0.930 . S
H1027 C1019 0.929 . S
H1028 C1036 0.929 . S
H1029 C1038 0.930 . S
H1030 C1040 0.930 . S
H1031 C1043 0.929 . S
H1032 C1046 0.930 . S
H1033 C1048 0.960 . S
H1034 C1048 0.960 . S
H1035 C1048 0.960 . S
C1036 H1028 0.929 . S
C1036 C1037 1.377 . S
C1036 C1038 1.384 . S
C1037 C1036 1.377 . S
C1037 C1043 1.390 . S
C1038 H1029 0.930 . S
C1038 C1036 1.384 . S
C1038 C1039 1.372 . S
C1039 C1038 1.372 . S
C1039 C1040 1.400 . S
C1039 C1044 1.490 . S
C1040 H1030 0.930 . S
C1040 C1039 1.400 . S
C1040 C1043 1.386 . S
H1041 C1057 0.930 . S
H1042 C1058 0.931 . S
C1043 H1031 0.929 . S
C1043 C1037 1.390 . S
C1043 C1040 1.386 . S
C1044 C1039 1.490 . S
C1044 C1046 1.395 . S
C1044 C1047 1.403 . S
H1045 C1051 0.930 . S
C1046 H1032 0.930 . S
C1046 C1044 1.395 . S
C1046 C1049 1.403 . S
C1047 C1044 1.403 . S
C1047 C1048 1.524 . S
C1047 C1051 1.400 . S
C1048 H1033 0.960 . S
C1048 H1034 0.960 . S
C1048 H1035 0.960 . S
C1048 C1047 1.524 . S
C1049 C1046 1.403 . S
C1049 C1050 1.392 . S
C1049 C1053 1.495 . S
C1050 C1049 1.392 . S
C1050 C1051 1.385 . S
C1050 C1052 1.478 . S
C1051 H1045 0.930 . S
C1051 C1047 1.400 . S
C1051 C1050 1.385 . S
C1052 C1050 1.478 . S
C1052 C1054 1.381 . S
C1052 C1058 1.383 . S
C1053 C1049 1.495 . S
C1053 H1059 0.959 . S
C1053 H1060 0.961 . S
C1053 H1061 0.960 . S
C1054 C1052 1.381 . S
C1054 C1055 1.394 . S
C1054 H1062 0.930 . S
C1055 C1054 1.394 . S
C1055 C1056 1.383 . S
C1055 H1063 0.929 . S
C1056 C1055 1.383 . S
C1056 C1057 1.377 . S
C1057 H1041 0.930 . S
C1057 C1056 1.377 . S
C1057 C1058 1.379 . S
C1058 H1042 0.931 . S
C1058 C1052 1.383 . S
C1058 C1057 1.379 . S
H1059 C1053 0.959 . S
H1060 C1053 0.961 . S
H1061 C1053 0.960 . S
H1062 C1054 0.930 . S
H1063 C1055 0.929 . S
H1064 C1072 0.929 . S
H1065 C1074 0.930 . S
H1066 C1076 0.930 . S
H1067 C1079 0.929 . S
H1068 C1082 0.930 . S
H1069 C1084 0.960 . S
H1070 C1084 0.960 . S
H1071 C1084 0.960 . S
C1072 H1064 0.929 . S
C1072 C1073 1.377 . S
C1072 C1074 1.384 . S
C1073 C1072 1.377 . S
C1073 C1079 1.390 1_545 S
C1074 H1065 0.930 . S
C1074 C1072 1.384 . S
C1074 C1075 1.372 . S
C1075 C1074 1.372 . S
C1075 C1076 1.400 1_545 S
C1075 C1080 1.490 . S
C1076 H1066 0.930 . S
C1076 C1075 1.400 1_565 S
C1076 C1079 1.386 . S
H1077 C1093 0.930 . S
H1078 C1094 0.931 . S
C1079 H1067 0.929 . S
C1079 C1073 1.390 1_565 S
C1079 C1076 1.386 . S
C1080 C1075 1.490 . S
C1080 C1082 1.395 . S
C1080 C1083 1.406 1_545 S
H1081 C1087 0.930 1_565 S
C1082 H1068 0.930 . S
C1082 C1080 1.395 . S
C1082 C1085 1.403 . S
C1083 C1080 1.406 1_565 S
C1083 C1084 1.520 . S
C1083 C1087 1.401 1_565 S
C1084 H1069 0.960 . S
C1084 H1070 0.960 . S
C1084 H1071 0.960 . S
C1084 C1083 1.520 . S
C1085 C1082 1.403 . S
C1085 C1086 1.392 . S
C1085 C1089 1.495 . S
C1086 C1085 1.392 . S
C1086 C1087 1.385 . S
C1086 C1088 1.478 . S
C1087 H1081 0.930 1_545 S
C1087 C1083 1.401 1_545 S
C1087 C1086 1.385 . S
C1088 C1086 1.478 . S
C1088 C1090 1.381 . S
C1088 C1094 1.383 1_545 S
C1089 C1085 1.495 . S
C1089 H1095 0.959 . S
C1089 H1096 0.961 . S
C1089 H1097 0.960 . S
C1090 C1088 1.381 . S
C1090 C1091 1.394 . S
C1090 H1098 0.930 . S
C1091 C1090 1.394 . S
C1091 C1092 1.383 . S
C1091 H1099 0.929 . S
C1092 C1091 1.383 . S
C1092 C1093 1.377 1_545 S
C1093 H1077 0.930 . S
C1093 C1092 1.377 1_565 S
C1093 C1094 1.379 . S
C1094 H1078 0.931 . S
C1094 C1088 1.383 1_565 S
C1094 C1093 1.379 . S
H1095 C1089 0.959 . S
H1096 C1089 0.961 . S
H1097 C1089 0.960 . S
H1098 C1090 0.930 . S
H1099 C1091 0.929 . S
H1100 C1108 0.929 . S
H1101 C1110 0.930 . S
H1102 C1112 0.930 . S
H1103 C1115 0.929 . S
H1104 C1118 0.930 . S
H1105 C1120 0.960 . S
H1106 C1120 0.960 . S
H1107 C1120 0.960 . S
C1108 H1100 0.929 . S
C1108 C1109 1.377 . S
C1108 C1110 1.384 . S
C1109 C1108 1.377 . S
C1109 C1115 1.390 . S
C1110 H1101 0.930 . S
C1110 C1108 1.384 . S
C1110 C1111 1.372 . S
C1111 C1110 1.372 . S
C1111 C1112 1.400 . S
C1111 C1116 1.490 . S
C1112 H1102 0.930 . S
C1112 C1111 1.400 . S
C1112 C1115 1.386 . S
H1113 C1129 0.930 . S
H1114 C1130 0.931 . S
C1115 H1103 0.929 . S
C1115 C1109 1.390 . S
C1115 C1112 1.386 . S
C1116 C1111 1.490 . S
C1116 C1118 1.395 . S
C1116 C1119 1.403 . S
H1117 C1123 0.930 . S
C1118 H1104 0.930 . S
C1118 C1116 1.395 . S
C1118 C1121 1.403 . S
C1119 C1116 1.403 . S
C1119 C1120 1.524 . S
C1119 C1123 1.400 . S
C1120 H1105 0.960 . S
C1120 H1106 0.960 . S
C1120 H1107 0.960 . S
C1120 C1119 1.524 . S
C1121 C1118 1.403 . S
C1121 C1122 1.392 . S
C1121 C1125 1.495 . S
C1122 C1121 1.392 . S
C1122 C1123 1.385 . S
C1122 C1124 1.478 . S
C1123 H1117 0.930 . S
C1123 C1119 1.400 . S
C1123 C1122 1.385 . S
C1124 C1122 1.478 . S
C1124 C1126 1.381 . S
C1124 C1130 1.383 . S
C1125 C1121 1.495 . S
C1125 H1131 0.959 . S
C1125 H1132 0.961 . S
C1125 H1133 0.960 . S
C1126 C1124 1.381 . S
C1126 C1127 1.394 . S
C1126 H1134 0.930 . S
C1127 C1126 1.394 . S
C1127 C1128 1.383 . S
C1127 H1135 0.929 . S
C1128 C1127 1.383 . S
C1128 C1129 1.377 . S
C1129 H1113 0.930 . S
C1129 C1128 1.377 . S
C1129 C1130 1.379 . S
C1130 H1114 0.931 . S
C1130 C1124 1.383 . S
C1130 C1129 1.379 . S
H1131 C1125 0.959 . S
H1132 C1125 0.961 . S
H1133 C1125 0.960 . S
H1134 C1126 0.930 . S
H1135 C1127 0.929 . S
H1136 C1144 0.929 . S
H1137 C1146 0.930 . S
H1138 C1148 0.930 . S
H1139 C1151 0.929 . S
H1140 C1154 0.930 . S
H1141 C1156 0.960 . S
H1142 C1156 0.960 . S
H1143 C1156 0.960 . S
C1144 H1136 0.929 . S
C1144 C1145 1.377 . S
C1144 C1146 1.384 . S
C1145 C1144 1.377 . S
C1145 C1151 1.390 . S
C1146 H1137 0.930 . S
C1146 C1144 1.384 . S
C1146 C1147 1.372 . S
C1147 C1146 1.372 . S
C1147 C1148 1.400 . S
C1147 C1152 1.490 . S
C1148 H1138 0.930 . S
C1148 C1147 1.400 . S
C1148 C1151 1.386 . S
H1149 C1165 0.930 . S
H1150 C1166 0.931 . S
C1151 H1139 0.929 . S
C1151 C1145 1.390 . S
C1151 C1148 1.386 . S
C1152 C1147 1.490 . S
C1152 C1154 1.395 . S
C1152 C1155 1.403 . S
H1153 C1159 0.953 . S
C1154 H1140 0.930 . S
C1154 C1152 1.395 . S
C1154 C1157 1.403 . S
C1155 C1152 1.403 . S
C1155 C1156 1.524 1_545 S
C1155 C1159 1.400 . S
C1156 H1141 0.960 . S
C1156 H1142 0.960 . S
C1156 H1143 0.960 . S
C1156 C1155 1.524 1_565 S
C1157 C1154 1.403 . S
C1157 C1158 1.392 . S
C1157 C1161 1.495 . S
C1158 C1157 1.392 . S
C1158 C1159 1.385 . S
C1158 C1160 1.478 . S
C1159 H1153 0.953 . S
C1159 C1155 1.400 . S
C1159 C1158 1.385 . S
C1160 C1158 1.478 . S
C1160 C1162 1.381 . S
C1160 C1166 1.383 . S
C1161 C1157 1.495 . S
C1161 H1167 0.959 . S
C1161 H1168 0.961 . S
C1161 H1169 0.960 . S
C1162 C1160 1.381 . S
C1162 C1163 1.394 . S
C1162 H1170 0.930 . S
C1163 C1162 1.394 . S
C1163 C1164 1.383 . S
C1163 H1171 0.929 . S
C1164 C1163 1.383 . S
C1164 C1165 1.377 . S
C1165 H1149 0.930 . S
C1165 C1164 1.377 . S
C1165 C1166 1.379 . S
C1166 H1150 0.931 . S
C1166 C1160 1.383 . S
C1166 C1165 1.379 . S
H1167 C1161 0.959 . S
H1168 C1161 0.961 . S
H1169 C1161 0.960 . S
H1170 C1162 0.930 . S
H1171 C1163 0.929 . S
H1172 C1180 0.929 . S
H1173 C1182 0.930 . S
H1174 C1184 0.930 . S
H1175 C1187 0.929 . S
H1176 C1190 0.930 . S
H1177 C1192 0.960 . S
H1178 C1192 0.960 . S
H1179 C1192 0.960 . S
C1180 H1172 0.929 . S
C1180 C1181 1.377 . S
C1180 C1182 1.384 . S
C1181 C1180 1.377 . S
C1181 C1187 1.390 . S
C1182 H1173 0.930 . S
C1182 C1180 1.384 . S
C1182 C1183 1.372 . S
C1183 C1182 1.372 . S
C1183 C1184 1.400 . S
C1183 C1188 1.490 . S
C1184 H1174 0.930 . S
C1184 C1183 1.400 . S
C1184 C1187 1.386 . S
H1185 C1201 0.930 . S
H1186 C1202 0.931 . S
C1187 H1175 0.929 . S
C1187 C1181 1.390 . S
C1187 C1184 1.386 . S
C1188 C1183 1.490 . S
C1188 C1190 1.395 . S
C1188 C1191 1.403 . S
H1189 C1195 0.930 . S
C1190 H1176 0.930 . S
C1190 C1188 1.395 . S
C1190 C1193 1.403 . S
C1191 C1188 1.403 . S
C1191 C1192 1.524 . S
C1191 C1195 1.400 . S
C1192 H1177 0.960 . S
C1192 H1178 0.960 . S
C1192 H1179 0.960 . S
C1192 C1191 1.524 . S
C1193 C1190 1.403 . S
C1193 C1194 1.392 . S
C1193 C1197 1.495 . S
C1194 C1193 1.392 . S
C1194 C1195 1.385 . S
C1194 C1196 1.478 . S
C1195 H1189 0.930 . S
C1195 C1191 1.400 . S
C1195 C1194 1.385 . S
C1196 C1194 1.478 . S
C1196 C1198 1.381 . S
C1196 C1202 1.383 . S
C1197 C1193 1.495 . S
C1197 H1203 0.959 . S
C1197 H1204 0.961 . S
C1197 H1205 0.960 . S
C1198 C1196 1.381 . S
C1198 C1199 1.394 . S
C1198 H1206 0.930 . S
C1199 C1198 1.394 . S
C1199 C1200 1.383 . S
C1199 H1207 0.929 . S
C1200 C1199 1.383 . S
C1200 C1201 1.377 . S
C1201 H1185 0.930 . S
C1201 C1200 1.377 . S
C1201 C1202 1.379 . S
C1202 H1186 0.931 . S
C1202 C1196 1.383 . S
C1202 C1201 1.379 . S
H1203 C1197 0.959 . S
H1204 C1197 0.961 . S
H1205 C1197 0.960 . S
H1206 C1198 0.930 . S
H1207 C1199 0.929 . S
H1208 C1216 0.929 . S
H1209 C1218 0.930 . S
H1210 C1220 0.930 . S
H1211 C1223 0.929 . S
H1212 C1226 0.930 . S
H1213 C1228 0.960 . S
H1214 C1228 0.960 1_565 S
H1215 C1228 0.960 . S
C1216 H1208 0.929 . S
C1216 C1217 1.390 . S
C1216 C1218 1.384 . S
C1217 C1216 1.390 . S
C1217 C1223 1.378 1_565 S
C1218 H1209 0.930 . S
C1218 C1216 1.384 . S
C1218 C1219 1.372 . S
C1219 C1218 1.372 . S
C1219 C1220 1.400 1_565 S
C1219 C1224 1.490 . S
C1220 H1210 0.930 . S
C1220 C1219 1.400 1_545 S
C1220 C1223 1.386 . S
H1221 C1237 0.930 . S
H1222 C1238 0.931 . S
C1223 H1211 0.929 . S
C1223 C1217 1.378 1_545 S
C1223 C1220 1.386 . S
C1224 C1219 1.490 . S
C1224 C1226 1.395 . S
C1224 C1227 1.403 . S
H1225 C1231 0.930 1_545 S
C1226 H1212 0.930 . S
C1226 C1224 1.395 . S
C1226 C1229 1.403 . S
C1227 C1224 1.403 . S
C1227 C1228 1.524 1_565 S
C1227 C1231 1.400 . S
C1228 H1213 0.960 . S
C1228 H1214 0.960 1_545 S
C1228 H1215 0.960 . S
C1228 C1227 1.524 1_545 S
C1229 C1226 1.403 . S
C1229 C1230 1.392 . S
C1229 C1233 1.495 . S
C1230 C1229 1.392 . S
C1230 C1231 1.385 . S
C1230 C1232 1.478 . S
C1231 H1225 0.930 1_565 S
C1231 C1227 1.400 . S
C1231 C1230 1.385 . S
C1232 C1230 1.478 . S
C1232 C1234 1.381 . S
C1232 C1238 1.383 1_565 S
C1233 C1229 1.495 . S
C1233 H1239 0.959 . S
C1233 H1240 0.961 . S
C1233 H1241 0.960 . S
C1234 C1232 1.381 . S
C1234 C1235 1.394 . S
C1234 H1242 0.930 . S
C1235 C1234 1.394 . S
C1235 C1236 1.383 . S
C1235 H1243 0.929 . S
C1236 C1235 1.383 . S
C1236 C1237 1.377 1_565 S
C1237 H1221 0.930 . S
C1237 C1236 1.377 1_545 S
C1237 C1238 1.379 . S
C1238 H1222 0.931 . S
C1238 C1232 1.383 1_545 S
C1238 C1237 1.379 . S
H1239 C1233 0.959 . S
H1240 C1233 0.961 . S
H1241 C1233 0.960 . S
H1242 C1234 0.930 . S
H1243 C1235 0.929 . S
H1244 C1252 0.929 . S
H1245 C1254 0.930 . S
H1246 C1256 0.930 . S
H1247 C1259 0.929 . S
H1248 C1262 0.930 . S
H1249 C1264 0.960 . S
H1250 C1264 0.960 . S
H1251 C1264 0.960 . S
C1252 H1244 0.929 . S
C1252 C1253 1.377 . S
C1252 C1254 1.384 . S
C1253 C1252 1.377 . S
C1253 C1259 1.390 . S
C1254 H1245 0.930 . S
C1254 C1252 1.384 . S
C1254 C1255 1.372 . S
C1255 C1254 1.372 . S
C1255 C1256 1.400 . S
C1255 C1260 1.490 . S
C1256 H1246 0.930 . S
C1256 C1255 1.400 . S
C1256 C1259 1.386 . S
H1257 C1273 0.930 . S
H1258 C1274 0.931 . S
C1259 H1247 0.929 . S
C1259 C1253 1.390 . S
C1259 C1256 1.386 . S
C1260 C1255 1.490 . S
C1260 C1262 1.395 . S
C1260 C1263 1.403 . S
H1261 C1267 0.930 . S
C1262 H1248 0.930 . S
C1262 C1260 1.395 . S
C1262 C1265 1.403 . S
C1263 C1260 1.403 . S
C1263 C1264 1.524 . S
C1263 C1267 1.400 . S
C1264 H1249 0.960 . S
C1264 H1250 0.960 . S
C1264 H1251 0.960 . S
C1264 C1263 1.524 . S
C1265 C1262 1.403 . S
C1265 C1266 1.392 . S
C1265 C1269 1.495 . S
C1266 C1265 1.392 . S
C1266 C1267 1.385 . S
C1266 C1268 1.478 . S
C1267 H1261 0.930 . S
C1267 C1263 1.400 . S
C1267 C1266 1.385 . S
C1268 C1266 1.478 . S
C1268 C1270 1.381 . S
C1268 C1274 1.383 . S
C1269 C1265 1.495 . S
C1269 H1275 0.959 . S
C1269 H1276 0.961 . S
C1269 H1277 0.960 . S
C1270 C1268 1.381 . S
C1270 C1271 1.394 . S
C1270 H1278 0.930 . S
C1271 C1270 1.394 . S
C1271 C1272 1.383 . S
C1271 H1279 0.929 . S
C1272 C1271 1.383 . S
C1272 C1273 1.377 . S
C1273 H1257 0.930 . S
C1273 C1272 1.377 . S
C1273 C1274 1.379 . S
C1274 H1258 0.931 . S
C1274 C1268 1.383 . S
C1274 C1273 1.379 . S
H1275 C1269 0.959 . S
H1276 C1269 0.961 . S
H1277 C1269 0.960 . S
H1278 C1270 0.930 . S
H1279 C1271 0.929 . S
H1280 C1288 0.929 . S
H1281 C1290 0.930 . S
H1282 C1292 0.912 1_556 S
H1283 C1295 0.929 1_556 S
H1284 C1298 0.930 . S
H1285 C1300 0.960 . S
H1286 C1300 0.960 . S
H1287 C1300 0.960 . S
C1288 H1280 0.929 . S
C1288 C1289 1.377 . S
C1288 C1290 1.384 . S
C1289 C1288 1.377 . S
C1289 C1295 1.390 . S
C1290 H1281 0.930 . S
C1290 C1288 1.384 . S
C1290 C1291 1.372 . S
C1291 C1290 1.372 . S
C1291 C1292 1.419 . S
C1291 C1296 1.490 . S
C1292 H1282 0.912 1_554 S
C1292 C1291 1.419 . S
C1292 C1295 1.388 . S
H1293 C1309 0.978 . S
H1294 C1310 0.931 . S
C1295 H1283 0.929 1_554 S
C1295 C1289 1.390 . S
C1295 C1292 1.388 . S
C1296 C1291 1.490 . S
C1296 C1298 1.395 1_554 S
C1296 C1299 1.403 . S
H1297 C1303 0.930 . S
C1298 H1284 0.930 . S
C1298 C1296 1.395 1_556 S
C1298 C1301 1.403 . S
C1299 C1296 1.403 . S
C1299 C1300 1.524 . S
C1299 C1303 1.400 . S
C1300 H1285 0.960 . S
C1300 H1286 0.960 . S
C1300 H1287 0.960 . S
C1300 C1299 1.524 . S
C1301 C1298 1.403 . S
C1301 C1302 1.392 1_556 S
C1301 C1305 1.495 . S
C1302 C1301 1.392 1_554 S
C1302 C1303 1.385 . S
C1302 C1304 1.478 . S
C1303 H1297 0.930 . S
C1303 C1299 1.400 . S
C1303 C1302 1.385 . S
C1304 C1302 1.478 . S
C1304 C1306 1.381 . S
C1304 C1310 1.383 1_554 S
C1305 C1301 1.495 . S
C1305 H1311 0.959 . S
C1305 H1312 0.961 . S
C1305 H1313 0.960 . S
C1306 C1304 1.381 . S
C1306 C1307 1.394 . S
C1306 H1314 0.930 . S
C1307 C1306 1.394 . S
C1307 C1308 1.383 . S
C1307 H1315 0.929 . S
C1308 C1307 1.383 . S
C1308 C1309 1.377 1_554 S
C1309 H1293 0.978 . S
C1309 C1308 1.377 1_556 S
C1309 C1310 1.379 . S
C1310 H1294 0.931 . S
C1310 C1304 1.383 1_556 S
C1310 C1309 1.379 . S
H1311 C1305 0.959 . S
H1312 C1305 0.961 . S
H1313 C1305 0.960 . S
H1314 C1306 0.930 . S
H1315 C1307 0.929 . S
H1316 C1324 0.929 . S
H1317 C1326 0.930 . S
H1318 C1328 0.932 1_556 S
H1319 C1331 0.929 . S
H1320 C1334 0.930 . S
H1321 C1336 0.960 . S
H1322 C1336 0.960 . S
H1323 C1336 0.960 . S
C1324 H1316 0.929 . S
C1324 C1325 1.377 . S
C1324 C1326 1.384 . S
C1325 C1324 1.377 . S
C1325 C1331 1.390 1_554 S
C1326 H1317 0.930 . S
C1326 C1324 1.384 . S
C1326 C1327 1.372 . S
C1327 C1326 1.372 . S
C1327 C1328 1.398 . S
C1327 C1332 1.490 . S
C1328 H1318 0.932 1_554 S
C1328 C1327 1.398 . S
C1328 C1331 1.386 1_554 S
H1329 C1345 0.930 1_556 S
H1330 C1346 0.931 1_556 S
C1331 H1319 0.929 . S
C1331 C1325 1.390 1_556 S
C1331 C1328 1.386 1_556 S
C1332 C1327 1.490 . S
C1332 C1334 1.395 . S
C1332 C1335 1.403 . S
H1333 C1339 0.930 . S
C1334 H1320 0.930 . S
C1334 C1332 1.395 . S
C1334 C1337 1.403 . S
C1335 C1332 1.403 . S
C1335 C1336 1.524 . S
C1335 C1339 1.400 . S
C1336 H1321 0.960 . S
C1336 H1322 0.960 . S
C1336 H1323 0.960 . S
C1336 C1335 1.524 . S
C1337 C1334 1.403 . S
C1337 C1338 1.392 . S
C1337 C1341 1.495 . S
C1338 C1337 1.392 . S
C1338 C1339 1.385 . S
C1338 C1340 1.478 . S
C1339 H1333 0.930 . S
C1339 C1335 1.400 . S
C1339 C1338 1.385 . S
C1340 C1338 1.478 . S
C1340 C1342 1.381 . S
C1340 C1346 1.383 . S
C1341 C1337 1.495 . S
C1341 H1347 0.958 . S
C1341 H1348 0.961 1_554 S
C1341 H1349 0.960 . S
C1342 C1340 1.381 . S
C1342 C1343 1.394 . S
C1342 H1350 0.930 . S
C1343 C1342 1.394 . S
C1343 C1344 1.383 . S
C1343 H1351 0.929 . S
C1344 C1343 1.383 . S
C1344 C1345 1.377 . S
C1345 H1329 0.930 1_554 S
C1345 C1344 1.377 . S
C1345 C1346 1.379 . S
C1346 H1330 0.931 1_554 S
C1346 C1340 1.383 . S
C1346 C1345 1.379 . S
H1347 C1341 0.958 . S
H1348 C1341 0.961 1_556 S
H1349 C1341 0.960 . S
H1350 C1342 0.930 . S
H1351 C1343 0.929 . S
H1352 C1360 0.929 . S
H1353 C1362 0.930 . S
H1354 C1364 0.930 . S
H1355 C1367 0.929 . S
H1356 C1370 0.930 . S
H1357 C1372 0.960 . S
H1358 C1372 0.960 . S
H1359 C1372 0.960 . S
C1360 H1352 0.929 . S
C1360 C1361 1.377 . S
C1360 C1362 1.384 . S
C1361 C1360 1.377 . S
C1361 C1367 1.390 . S
C1362 H1353 0.930 . S
C1362 C1360 1.384 . S
C1362 C1363 1.372 . S
C1363 C1362 1.372 . S
C1363 C1364 1.400 . S
C1363 C1368 1.490 . S
C1364 H1354 0.930 . S
C1364 C1363 1.400 . S
C1364 C1367 1.386 . S
H1365 C1381 0.930 . S
H1366 C1382 0.931 . S
C1367 H1355 0.929 . S
C1367 C1361 1.390 . S
C1367 C1364 1.386 . S
C1368 C1363 1.490 . S
C1368 C1370 1.395 . S
C1368 C1371 1.403 . S
H1369 C1375 0.930 . S
C1370 H1356 0.930 . S
C1370 C1368 1.395 . S
C1370 C1373 1.403 . S
C1371 C1368 1.403 . S
C1371 C1372 1.524 . S
C1371 C1375 1.400 . S
C1372 H1357 0.960 . S
C1372 H1358 0.960 . S
C1372 H1359 0.960 . S
C1372 C1371 1.524 . S
C1373 C1370 1.403 . S
C1373 C1374 1.392 . S
C1373 C1377 1.495 . S
C1374 C1373 1.392 . S
C1374 C1375 1.385 . S
C1374 C1376 1.478 . S
C1375 H1369 0.930 . S
C1375 C1371 1.400 . S
C1375 C1374 1.385 . S
C1376 C1374 1.478 . S
C1376 C1378 1.381 . S
C1376 C1382 1.383 . S
C1377 C1373 1.495 . S
C1377 H1383 0.959 . S
C1377 H1384 0.961 . S
C1377 H1385 0.960 . S
C1378 C1376 1.381 . S
C1378 C1379 1.394 . S
C1378 H1386 0.930 . S
C1379 C1378 1.394 . S
C1379 C1380 1.383 . S
C1379 H1387 0.929 . S
C1380 C1379 1.383 . S
C1380 C1381 1.377 . S
C1381 H1365 0.930 . S
C1381 C1380 1.377 . S
C1381 C1382 1.379 . S
C1382 H1366 0.931 . S
C1382 C1376 1.383 . S
C1382 C1381 1.379 . S
H1383 C1377 0.959 . S
H1384 C1377 0.961 . S
H1385 C1377 0.960 . S
H1386 C1378 0.930 . S
H1387 C1379 0.929 . S
H1388 C1396 0.929 . S
H1389 C1398 0.930 . S
H1390 C1400 0.930 . S
H1391 C1403 0.929 . S
H1392 C1406 0.930 . S
H1393 C1408 0.960 . S
H1394 C1408 0.960 . S
H1395 C1408 0.960 . S
C1396 H1388 0.929 . S
C1396 C1397 1.377 . S
C1396 C1398 1.384 . S
C1397 C1396 1.377 . S
C1397 C1403 1.390 . S
C1398 H1389 0.930 . S
C1398 C1396 1.384 . S
C1398 C1399 1.372 . S
C1399 C1398 1.372 . S
C1399 C1400 1.400 . S
C1399 C1404 1.490 . S
C1400 H1390 0.930 . S
C1400 C1399 1.400 . S
C1400 C1403 1.386 . S
H1401 C1417 0.930 . S
H1402 C1418 0.931 . S
C1403 H1391 0.929 . S
C1403 C1397 1.390 . S
C1403 C1400 1.386 . S
C1404 C1399 1.490 . S
C1404 C1406 1.395 . S
C1404 C1407 1.403 . S
H1405 C1411 0.930 . S
C1406 H1392 0.930 . S
C1406 C1404 1.395 . S
C1406 C1409 1.403 . S
C1407 C1404 1.403 . S
C1407 C1408 1.524 . S
C1407 C1411 1.400 . S
C1408 H1393 0.960 . S
C1408 H1394 0.960 . S
C1408 H1395 0.960 . S
C1408 C1407 1.524 . S
C1409 C1406 1.403 . S
C1409 C1410 1.392 . S
C1409 C1413 1.495 . S
C1410 C1409 1.392 . S
C1410 C1411 1.385 . S
C1410 C1412 1.478 . S
C1411 H1405 0.930 . S
C1411 C1407 1.400 . S
C1411 C1410 1.385 . S
C1412 C1410 1.478 . S
C1412 C1414 1.381 . S
C1412 C1418 1.383 . S
C1413 C1409 1.495 . S
C1413 H1419 0.959 . S
C1413 H1420 0.961 . S
C1413 H1421 0.960 . S
C1414 C1412 1.381 . S
C1414 C1415 1.394 . S
C1414 H1422 0.930 . S
C1415 C1414 1.394 . S
C1415 C1416 1.383 . S
C1415 H1423 0.929 . S
C1416 C1415 1.383 . S
C1416 C1417 1.377 . S
C1417 H1401 0.930 . S
C1417 C1416 1.377 . S
C1417 C1418 1.379 . S
C1418 H1402 0.931 . S
C1418 C1412 1.383 . S
C1418 C1417 1.379 . S
H1419 C1413 0.959 . S
H1420 C1413 0.961 . S
H1421 C1413 0.960 . S
H1422 C1414 0.930 . S
H1423 C1415 0.929 . S
H1424 C1432 0.929 . S
H1425 C1434 0.930 . S
H1426 C1436 0.930 . S
H1427 C1439 0.929 . S
H1428 C1442 0.930 . S
H1429 C1444 0.960 . S
H1430 C1444 0.960 . S
H1431 C1444 0.960 . S
C1432 H1424 0.929 . S
C1432 C1433 1.377 . S
C1432 C1434 1.384 . S
C1433 C1432 1.377 . S
C1433 C1439 1.390 . S
C1434 H1425 0.930 . S
C1434 C1432 1.384 . S
C1434 C1435 1.372 . S
C1435 C1434 1.372 . S
C1435 C1436 1.400 . S
C1435 C1440 1.490 . S
C1436 H1426 0.930 . S
C1436 C1435 1.400 . S
C1436 C1439 1.386 . S
H1437 C1453 0.930 . S
H1438 C1454 0.931 . S
C1439 H1427 0.929 . S
C1439 C1433 1.390 . S
C1439 C1436 1.386 . S
C1440 C1435 1.490 . S
C1440 C1442 1.395 . S
C1440 C1443 1.403 . S
H1441 C1447 0.930 . S
C1442 H1428 0.930 . S
C1442 C1440 1.395 . S
C1442 C1445 1.403 . S
C1443 C1440 1.403 . S
C1443 C1444 1.524 . S
C1443 C1447 1.400 . S
C1444 H1429 0.960 . S
C1444 H1430 0.960 . S
C1444 H1431 0.960 . S
C1444 C1443 1.524 . S
C1445 C1442 1.403 . S
C1445 C1446 1.392 . S
C1445 C1449 1.495 . S
C1446 C1445 1.392 . S
C1446 C1447 1.385 . S
C1446 C1448 1.478 . S
C1447 H1441 0.930 . S
C1447 C1443 1.400 . S
C1447 C1446 1.385 . S
C1448 C1446 1.478 . S
C1448 C1450 1.381 . S
C1448 C1454 1.383 . S
C1449 C1445 1.495 . S
C1449 H1455 0.959 . S
C1449 H1456 0.961 . S
C1449 H1457 0.960 . S
C1450 C1448 1.381 . S
C1450 C1451 1.394 . S
C1450 H1458 0.930 . S
C1451 C1450 1.394 . S
C1451 C1452 1.383 . S
C1451 H1459 0.929 . S
C1452 C1451 1.383 . S
C1452 C1453 1.377 . S
C1453 H1437 0.930 . S
C1453 C1452 1.377 . S
C1453 C1454 1.379 . S
C1454 H1438 0.931 . S
C1454 C1448 1.383 . S
C1454 C1453 1.379 . S
H1455 C1449 0.959 . S
H1456 C1449 0.961 . S
H1457 C1449 0.960 . S
H1458 C1450 0.930 . S
H1459 C1451 0.929 . S
H1460 C1468 0.929 . S
H1461 C1470 0.930 . S
H1462 C1472 0.930 . S
H1463 C1475 0.929 . S
H1464 C1478 0.930 . S
H1465 C1480 0.960 . S
H1466 C1480 0.960 . S
H1467 C1480 0.960 . S
C1468 H1460 0.929 . S
C1468 C1469 1.377 . S
C1468 C1470 1.384 . S
C1469 C1468 1.377 . S
C1469 C1475 1.390 . S
C1470 H1461 0.930 . S
C1470 C1468 1.384 . S
C1470 C1471 1.372 . S
C1471 C1470 1.372 . S
C1471 C1472 1.400 . S
C1471 C1476 1.490 . S
C1472 H1462 0.930 . S
C1472 C1471 1.400 . S
C1472 C1475 1.386 . S
H1473 C1489 0.930 . S
H1474 C1490 0.931 . S
C1475 H1463 0.929 . S
C1475 C1469 1.390 . S
C1475 C1472 1.386 . S
C1476 C1471 1.490 . S
C1476 C1478 1.395 . S
C1476 C1479 1.403 . S
H1477 C1483 0.930 . S
C1478 H1464 0.930 . S
C1478 C1476 1.395 . S
C1478 C1481 1.403 . S
C1479 C1476 1.403 . S
C1479 C1480 1.524 . S
C1479 C1483 1.400 . S
C1480 H1465 0.960 . S
C1480 H1466 0.960 . S
C1480 H1467 0.960 . S
C1480 C1479 1.524 . S
C1481 C1478 1.403 . S
C1481 C1482 1.392 . S
C1481 C1485 1.495 . S
C1482 C1481 1.392 . S
C1482 C1483 1.385 . S
C1482 C1484 1.478 . S
C1483 H1477 0.930 . S
C1483 C1479 1.400 . S
C1483 C1482 1.385 . S
C1484 C1482 1.478 . S
C1484 C1486 1.381 . S
C1484 C1490 1.383 . S
C1485 C1481 1.495 . S
C1485 H1491 0.959 . S
C1485 H1492 0.961 . S
C1485 H1493 0.960 . S
C1486 C1484 1.381 . S
C1486 C1487 1.394 1_565 S
C1486 H1494 0.930 1_565 S
C1487 C1486 1.394 1_545 S
C1487 C1488 1.399 . S
C1487 H1495 0.929 . S
C1488 C1487 1.399 . S
C1488 C1489 1.345 1_545 S
C1489 H1473 0.930 . S
C1489 C1488 1.345 1_565 S
C1489 C1490 1.379 . S
C1490 H1474 0.931 . S
C1490 C1484 1.383 . S
C1490 C1489 1.379 . S
H1491 C1485 0.959 . S
H1492 C1485 0.961 . S
H1493 C1485 0.960 . S
H1494 C1486 0.930 1_545 S
H1495 C1487 0.929 . S
H1496 C1504 0.929 . S
H1497 C1506 0.930 . S
H1498 C1508 0.930 . S
H1499 C1511 0.929 . S
H1500 C1514 0.930 . S
H1501 C1516 0.960 . S
H1502 C1516 0.960 . S
H1503 C1516 0.960 . S
C1504 H1496 0.929 . S
C1504 C1505 1.377 . S
C1504 C1506 1.384 . S
C1505 C1504 1.377 . S
C1505 C1511 1.390 . S
C1506 H1497 0.930 . S
C1506 C1504 1.384 . S
C1506 C1507 1.372 . S
C1507 C1506 1.372 . S
C1507 C1508 1.400 . S
C1507 C1512 1.490 . S
C1508 H1498 0.930 . S
C1508 C1507 1.400 . S
C1508 C1511 1.386 . S
H1509 C1525 0.930 . S
H1510 C1526 0.931 . S
C1511 H1499 0.929 . S
C1511 C1505 1.390 . S
C1511 C1508 1.386 . S
C1512 C1507 1.490 . S
C1512 C1514 1.395 . S
C1512 C1515 1.403 . S
H1513 C1519 0.930 . S
C1514 H1500 0.930 . S
C1514 C1512 1.395 . S
C1514 C1517 1.403 . S
C1515 C1512 1.403 . S
C1515 C1516 1.524 . S
C1515 C1519 1.400 . S
C1516 H1501 0.960 . S
C1516 H1502 0.960 . S
C1516 H1503 0.960 . S
C1516 C1515 1.524 . S
C1517 C1514 1.403 . S
C1517 C1518 1.392 . S
C1517 C1521 1.495 . S
C1518 C1517 1.392 . S
C1518 C1519 1.385 . S
C1518 C1520 1.478 . S
C1519 H1513 0.930 . S
C1519 C1515 1.400 . S
C1519 C1518 1.385 . S
C1520 C1518 1.478 . S
C1520 C1522 1.381 . S
C1520 C1526 1.383 . S
C1521 C1517 1.495 . S
C1521 H1527 0.959 . S
C1521 H1528 0.961 . S
C1521 H1529 0.960 . S
C1522 C1520 1.381 . S
C1522 C1523 1.394 . S
C1522 H1530 0.930 . S
C1523 C1522 1.394 . S
C1523 C1524 1.383 . S
C1523 H1531 0.929 . S
C1524 C1523 1.383 . S
C1524 C1525 1.377 . S
C1525 H1509 0.930 . S
C1525 C1524 1.377 . S
C1525 C1526 1.379 . S
C1526 H1510 0.931 . S
C1526 C1520 1.383 . S
C1526 C1525 1.379 . S
H1527 C1521 0.959 . S
H1528 C1521 0.961 . S
H1529 C1521 0.960 . S
H1530 C1522 0.930 . S
H1531 C1523 0.929 . S
H1532 C1540 0.929 . S
H1533 C1542 0.930 . S
H1534 C1544 0.930 . S
H1535 C1547 0.929 . S
H1536 C1550 0.930 . S
H1537 C1552 0.960 . S
H1538 C1552 0.960 . S
H1539 C1552 0.960 . S
C1540 H1532 0.929 . S
C1540 C1541 1.377 . S
C1540 C1542 1.384 . S
C1541 C1540 1.377 . S
C1541 C1547 1.390 . S
C1542 H1533 0.930 . S
C1542 C1540 1.384 . S
C1542 C1543 1.372 . S
C1543 C1542 1.372 . S
C1543 C1544 1.400 . S
C1543 C1548 1.490 . S
C1544 H1534 0.930 . S
C1544 C1543 1.400 . S
C1544 C1547 1.386 . S
H1545 C1561 0.930 . S
H1546 C1562 0.931 . S
C1547 H1535 0.929 . S
C1547 C1541 1.390 . S
C1547 C1544 1.386 . S
C1548 C1543 1.490 . S
C1548 C1550 1.395 . S
C1548 C1551 1.403 . S
H1549 C1555 0.930 . S
C1550 H1536 0.930 . S
C1550 C1548 1.395 . S
C1550 C1553 1.403 . S
C1551 C1548 1.403 . S
C1551 C1552 1.524 . S
C1551 C1555 1.400 . S
C1552 H1537 0.960 . S
C1552 H1538 0.960 . S
C1552 H1539 0.960 . S
C1552 C1551 1.524 . S
C1553 C1550 1.403 . S
C1553 C1554 1.392 . S
C1553 C1557 1.495 . S
C1554 C1553 1.392 . S
C1554 C1555 1.385 . S
C1554 C1556 1.478 . S
C1555 H1549 0.930 . S
C1555 C1551 1.400 . S
C1555 C1554 1.385 . S
C1556 C1554 1.478 . S
C1556 C1558 1.381 . S
C1556 C1562 1.383 . S
C1557 C1553 1.495 . S
C1557 H1563 0.959 . S
C1557 H1564 0.961 . S
C1557 H1565 0.960 . S
C1558 C1556 1.381 . S
C1558 C1559 1.394 . S
C1558 H1566 0.930 . S
C1559 C1558 1.394 . S
C1559 C1560 1.383 . S
C1559 H1567 0.929 . S
C1560 C1559 1.383 . S
C1560 C1561 1.377 . S
C1561 H1545 0.930 . S
C1561 C1560 1.377 . S
C1561 C1562 1.379 . S
C1562 H1546 0.931 . S
C1562 C1556 1.383 . S
C1562 C1561 1.379 . S
H1563 C1557 0.959 . S
H1564 C1557 0.961 . S
H1565 C1557 0.960 . S
H1566 C1558 0.930 . S
H1567 C1559 0.929 . S
H1568 C1576 0.929 . S
H1569 C1578 0.930 . S
H1570 C1580 0.930 . S
H1571 C1583 0.929 . S
H1572 C1586 0.930 . S
H1573 C1588 0.960 . S
H1574 C1588 0.960 . S
H1575 C1588 0.960 . S
C1576 H1568 0.929 . S
C1576 C1577 1.377 . S
C1576 C1578 1.384 . S
C1577 C1576 1.377 . S
C1577 C1583 1.390 1_455 S
C1578 H1569 0.930 . S
C1578 C1576 1.384 . S
C1578 C1579 1.372 . S
C1579 C1578 1.372 . S
C1579 C1580 1.400 1_455 S
C1579 C1584 1.490 . S
C1580 H1570 0.930 . S
C1580 C1579 1.400 1_655 S
C1580 C1583 1.386 . S
H1581 C1597 0.930 . S
H1582 C1598 0.953 . S
C1583 H1571 0.929 . S
C1583 C1577 1.390 1_655 S
C1583 C1580 1.386 . S
C1584 C1579 1.490 . S
C1584 C1586 1.395 . S
C1584 C1587 1.396 1_455 S
H1585 C1591 0.930 1_655 S
C1586 H1572 0.930 . S
C1586 C1584 1.395 . S
C1586 C1589 1.403 . S
C1587 C1584 1.396 1_655 S
C1587 C1588 1.532 . S
C1587 C1591 1.399 1_655 S
C1588 H1573 0.960 . S
C1588 H1574 0.960 . S
C1588 H1575 0.960 . S
C1588 C1587 1.532 . S
C1589 C1586 1.403 . S
C1589 C1590 1.392 . S
C1589 C1593 1.495 . S
C1590 C1589 1.392 . S
C1590 C1591 1.385 . S
C1590 C1592 1.478 . S
C1591 H1585 0.930 1_455 S
C1591 C1587 1.399 1_455 S
C1591 C1590 1.385 . S
C1592 C1590 1.478 . S
C1592 C1594 1.381 . S
C1592 C1598 1.362 1_455 S
C1593 C1589 1.495 . S
C1593 H1599 0.959 . S
C1593 H1600 0.961 . S
C1593 H1601 0.960 . S
C1594 C1592 1.381 . S
C1594 C1595 1.394 . S
C1594 H1602 0.930 . S
C1595 C1594 1.394 . S
C1595 C1596 1.383 . S
C1595 H1603 0.949 . S
C1596 C1595 1.383 . S
C1596 C1597 1.376 1_455 S
C1597 H1581 0.930 . S
C1597 C1596 1.376 1_655 S
C1597 C1598 1.380 . S
C1598 H1582 0.953 . S
C1598 C1592 1.362 1_655 S
C1598 C1597 1.380 . S
H1599 C1593 0.959 . S
H1600 C1593 0.961 . S
H1601 C1593 0.960 . S
H1602 C1594 0.930 . S
H1603 C1595 0.949 . S
H1604 C1612 0.929 . S
H1605 C1614 0.930 . S
H1606 C1616 0.930 . S
H1607 C1619 0.929 . S
H1608 C1622 0.930 . S
H1609 C1624 0.960 . S
H1610 C1624 0.960 . S
H1611 C1624 0.960 . S
C1612 H1604 0.929 . S
C1612 C1613 1.377 . S
C1612 C1614 1.384 . S
C1613 C1612 1.377 . S
C1613 C1619 1.390 . S
C1614 H1605 0.930 . S
C1614 C1612 1.384 . S
C1614 C1615 1.372 . S
C1615 C1614 1.372 . S
C1615 C1616 1.400 . S
C1615 C1620 1.490 . S
C1616 H1606 0.930 . S
C1616 C1615 1.400 . S
C1616 C1619 1.386 . S
H1617 C1633 0.930 . S
H1618 C1634 0.931 . S
C1619 H1607 0.929 . S
C1619 C1613 1.390 . S
C1619 C1616 1.386 . S
C1620 C1615 1.490 . S
C1620 C1622 1.395 . S
C1620 C1623 1.403 . S
H1621 C1627 0.930 . S
C1622 H1608 0.930 . S
C1622 C1620 1.395 . S
C1622 C1625 1.403 . S
C1623 C1620 1.403 . S
C1623 C1624 1.524 . S
C1623 C1627 1.400 . S
C1624 H1609 0.960 . S
C1624 H1610 0.960 . S
C1624 H1611 0.960 . S
C1624 C1623 1.524 . S
C1625 C1622 1.403 . S
C1625 C1626 1.392 . S
C1625 C1629 1.495 . S
C1626 C1625 1.392 . S
C1626 C1627 1.385 . S
C1626 C1628 1.478 . S
C1627 H1621 0.930 . S
C1627 C1623 1.400 . S
C1627 C1626 1.385 . S
C1628 C1626 1.478 . S
C1628 C1630 1.381 . S
C1628 C1634 1.383 . S
C1629 C1625 1.495 . S
C1629 H1635 0.959 . S
C1629 H1636 0.961 . S
C1629 H1637 0.960 . S
C1630 C1628 1.381 . S
C1630 C1631 1.394 . S
C1630 H1638 0.930 . S
C1631 C1630 1.394 . S
C1631 C1632 1.383 . S
C1631 H1639 0.929 . S
C1632 C1631 1.383 . S
C1632 C1633 1.377 . S
C1633 H1617 0.930 . S
C1633 C1632 1.377 . S
C1633 C1634 1.379 . S
C1634 H1618 0.931 . S
C1634 C1628 1.383 . S
C1634 C1633 1.379 . S
H1635 C1629 0.959 . S
H1636 C1629 0.961 . S
H1637 C1629 0.960 . S
H1638 C1630 0.930 . S
H1639 C1631 0.929 . S
H1640 C1648 0.929 . S
H1641 C1650 0.930 . S
H1642 C1652 0.930 . S
H1643 C1655 0.929 . S
H1644 C1658 0.930 . S
H1645 C1660 0.960 . S
H1646 C1660 0.960 . S
H1647 C1660 0.960 . S
C1648 H1640 0.929 . S
C1648 C1649 1.377 . S
C1648 C1650 1.384 . S
C1649 C1648 1.377 . S
C1649 C1655 1.390 . S
C1650 H1641 0.930 . S
C1650 C1648 1.384 . S
C1650 C1651 1.372 . S
C1651 C1650 1.372 . S
C1651 C1652 1.400 . S
C1651 C1656 1.490 . S
C1652 H1642 0.930 . S
C1652 C1651 1.400 . S
C1652 C1655 1.386 . S
H1653 C1669 0.930 . S
H1654 C1670 0.931 . S
C1655 H1643 0.929 . S
C1655 C1649 1.390 . S
C1655 C1652 1.386 . S
C1656 C1651 1.490 . S
C1656 C1658 1.395 . S
C1656 C1659 1.403 . S
H1657 C1663 0.930 . S
C1658 H1644 0.930 . S
C1658 C1656 1.395 . S
C1658 C1661 1.403 . S
C1659 C1656 1.403 . S
C1659 C1660 1.524 . S
C1659 C1663 1.400 . S
C1660 H1645 0.960 . S
C1660 H1646 0.960 . S
C1660 H1647 0.960 . S
C1660 C1659 1.524 . S
C1661 C1658 1.403 . S
C1661 C1662 1.392 . S
C1661 C1665 1.495 . S
C1662 C1661 1.392 . S
C1662 C1663 1.385 . S
C1662 C1664 1.478 . S
C1663 H1657 0.930 . S
C1663 C1659 1.400 . S
C1663 C1662 1.385 . S
C1664 C1662 1.478 . S
C1664 C1666 1.381 . S
C1664 C1670 1.383 . S
C1665 C1661 1.495 . S
C1665 H1671 0.959 . S
C1665 H1672 0.961 . S
C1665 H1673 0.960 . S
C1666 C1664 1.381 . S
C1666 C1667 1.394 . S
C1666 H1674 0.930 . S
C1667 C1666 1.394 . S
C1667 C1668 1.383 . S
C1667 H1675 0.929 . S
C1668 C1667 1.383 . S
C1668 C1669 1.377 . S
C1669 H1653 0.930 . S
C1669 C1668 1.377 . S
C1669 C1670 1.379 . S
C1670 H1654 0.931 . S
C1670 C1664 1.383 . S
C1670 C1669 1.379 . S
H1671 C1665 0.959 . S
H1672 C1665 0.961 . S
H1673 C1665 0.960 . S
H1674 C1666 0.930 . S
H1675 C1667 0.929 . S
H1676 C1684 0.929 . S
H1677 C1686 0.930 . S
H1678 C1688 0.930 . S
H1679 C1691 0.929 . S
H1680 C1694 0.930 . S
H1681 C1696 0.960 . S
H1682 C1696 0.960 . S
H1683 C1696 0.960 . S
C1684 H1676 0.929 . S
C1684 C1685 1.377 . S
C1684 C1686 1.384 . S
C1685 C1684 1.377 . S
C1685 C1691 1.390 . S
C1686 H1677 0.930 . S
C1686 C1684 1.384 . S
C1686 C1687 1.372 . S
C1687 C1686 1.372 . S
C1687 C1688 1.400 . S
C1687 C1692 1.490 . S
C1688 H1678 0.930 . S
C1688 C1687 1.400 . S
C1688 C1691 1.386 . S
H1689 C1705 0.930 . S
H1690 C1706 0.931 . S
C1691 H1679 0.929 . S
C1691 C1685 1.390 . S
C1691 C1688 1.386 . S
C1692 C1687 1.490 . S
C1692 C1694 1.395 . S
C1692 C1695 1.403 . S
H1693 C1699 0.930 . S
C1694 H1680 0.930 . S
C1694 C1692 1.395 . S
C1694 C1697 1.403 . S
C1695 C1692 1.403 . S
C1695 C1696 1.524 . S
C1695 C1699 1.400 . S
C1696 H1681 0.960 . S
C1696 H1682 0.960 . S
C1696 H1683 0.960 . S
C1696 C1695 1.524 . S
C1697 C1694 1.403 . S
C1697 C1698 1.392 . S
C1697 C1701 1.495 . S
C1698 C1697 1.392 . S
C1698 C1699 1.385 . S
C1698 C1700 1.478 . S
C1699 H1693 0.930 . S
C1699 C1695 1.400 . S
C1699 C1698 1.385 . S
C1700 C1698 1.478 . S
C1700 C1702 1.381 . S
C1700 C1706 1.383 . S
C1701 C1697 1.495 . S
C1701 H1707 0.959 . S
C1701 H1708 0.961 . S
C1701 H1709 0.960 . S
C1702 C1700 1.381 . S
C1702 C1703 1.394 . S
C1702 H1710 0.930 . S
C1703 C1702 1.394 . S
C1703 C1704 1.383 . S
C1703 H1711 0.929 . S
C1704 C1703 1.383 . S
C1704 C1705 1.377 . S
C1705 H1689 0.930 . S
C1705 C1704 1.377 . S
C1705 C1706 1.379 . S
C1706 H1690 0.931 . S
C1706 C1700 1.383 . S
C1706 C1705 1.379 . S
H1707 C1701 0.959 . S
H1708 C1701 0.961 . S
H1709 C1701 0.960 . S
H1710 C1702 0.930 . S
H1711 C1703 0.929 . S
H1712 C1720 0.929 . S
H1713 C1722 0.930 . S
H1714 C1724 0.930 . S
H1715 C1727 0.921 1_655 S
H1716 C1730 0.930 . S
H1717 C1732 0.960 . S
H1718 C1732 0.960 . S
H1719 C1732 0.960 . S
C1720 H1712 0.929 . S
C1720 C1721 1.377 . S
C1720 C1722 1.384 . S
C1721 C1720 1.377 . S
C1721 C1727 1.390 . S
C1722 H1713 0.930 . S
C1722 C1720 1.384 . S
C1722 C1723 1.372 . S
C1723 C1722 1.372 . S
C1723 C1724 1.400 . S
C1723 C1728 1.490 . S
C1724 H1714 0.930 . S
C1724 C1723 1.400 . S
C1724 C1727 1.386 . S
H1725 C1741 0.930 . S
H1726 C1742 0.931 . S
C1727 H1715 0.921 1_455 S
C1727 C1721 1.390 . S
C1727 C1724 1.386 . S
C1728 C1723 1.490 . S
C1728 C1730 1.395 . S
C1728 C1731 1.403 1_455 S
H1729 C1735 0.891 1_655 S
C1730 H1716 0.930 . S
C1730 C1728 1.395 . S
C1730 C1733 1.403 . S
C1731 C1728 1.403 1_655 S
C1731 C1732 1.524 . S
C1731 C1735 1.389 1_655 S
C1732 H1717 0.960 . S
C1732 H1718 0.960 . S
C1732 H1719 0.960 . S
C1732 C1731 1.524 . S
C1733 C1730 1.403 . S
C1733 C1734 1.392 . S
C1733 C1737 1.495 . S
C1734 C1733 1.392 . S
C1734 C1735 1.436 . S
C1734 C1736 1.478 . S
C1735 H1729 0.891 1_455 S
C1735 C1731 1.389 1_455 S
C1735 C1734 1.436 . S
C1736 C1734 1.478 . S
C1736 C1738 1.381 . S
C1736 C1742 1.383 . S
C1737 C1733 1.495 . S
C1737 H1743 0.959 . S
C1737 H1744 0.961 . S
C1737 H1745 0.960 . S
C1738 C1736 1.381 . S
C1738 C1739 1.394 . S
C1738 H1746 0.930 . S
C1739 C1738 1.394 . S
C1739 C1740 1.383 . S
C1739 H1747 0.929 . S
C1740 C1739 1.383 . S
C1740 C1741 1.377 . S
C1741 H1725 0.930 . S
C1741 C1740 1.377 . S
C1741 C1742 1.379 . S
C1742 H1726 0.931 . S
C1742 C1736 1.383 . S
C1742 C1741 1.379 . S
H1743 C1737 0.959 . S
H1744 C1737 0.961 . S
H1745 C1737 0.960 . S
H1746 C1738 0.930 . S
H1747 C1739 0.929 . S
H1748 C1756 0.929 . S
H1749 C1758 0.930 . S
H1750 C1760 0.930 . S
H1751 C1763 0.929 . S
H1752 C1766 0.930 . S
H1753 C1768 0.960 . S
H1754 C1768 0.960 . S
H1755 C1768 0.960 . S
C1756 H1748 0.929 . S
C1756 C1757 1.377 . S
C1756 C1758 1.384 . S
C1757 C1756 1.377 . S
C1757 C1763 1.390 . S
C1758 H1749 0.930 . S
C1758 C1756 1.384 . S
C1758 C1759 1.372 . S
C1759 C1758 1.372 . S
C1759 C1760 1.400 . S
C1759 C1764 1.490 . S
C1760 H1750 0.930 . S
C1760 C1759 1.400 . S
C1760 C1763 1.386 . S
H1761 C1777 0.930 . S
H1762 C1778 0.931 . S
C1763 H1751 0.929 . S
C1763 C1757 1.390 . S
C1763 C1760 1.386 . S
C1764 C1759 1.490 . S
C1764 C1766 1.395 . S
C1764 C1767 1.403 . S
H1765 C1771 0.930 . S
C1766 H1752 0.930 . S
C1766 C1764 1.395 . S
C1766 C1769 1.403 . S
C1767 C1764 1.403 . S
C1767 C1768 1.524 . S
C1767 C1771 1.400 . S
C1768 H1753 0.960 . S
C1768 H1754 0.960 . S
C1768 H1755 0.960 . S
C1768 C1767 1.524 . S
C1769 C1766 1.403 . S
C1769 C1770 1.392 . S
C1769 C1773 1.495 . S
C1770 C1769 1.392 . S
C1770 C1771 1.385 . S
C1770 C1772 1.478 . S
C1771 H1765 0.930 . S
C1771 C1767 1.400 . S
C1771 C1770 1.385 . S
C1772 C1770 1.478 . S
C1772 C1774 1.381 . S
C1772 C1778 1.383 . S
C1773 C1769 1.495 . S
C1773 H1779 0.959 . S
C1773 H1780 0.961 . S
C1773 H1781 0.960 . S
C1774 C1772 1.381 . S
C1774 C1775 1.394 . S
C1774 H1782 0.930 . S
C1775 C1774 1.394 . S
C1775 C1776 1.383 . S
C1775 H1783 0.929 . S
C1776 C1775 1.383 . S
C1776 C1777 1.377 . S
C1777 H1761 0.930 . S
C1777 C1776 1.377 . S
C1777 C1778 1.379 . S
C1778 H1762 0.931 . S
C1778 C1772 1.383 . S
C1778 C1777 1.379 . S
H1779 C1773 0.959 . S
H1780 C1773 0.961 . S
H1781 C1773 0.960 . S
H1782 C1774 0.930 . S
H1783 C1775 0.929 . S
H1784 C1792 0.929 . S
H1785 C1794 0.930 . S
H1786 C1796 0.930 . S
H1787 C1799 0.929 . S
H1788 C1802 0.930 . S
H1789 C1804 0.960 . S
H1790 C1804 0.960 . S
H1791 C1804 0.960 . S
C1792 H1784 0.929 . S
C1792 C1793 1.377 . S
C1792 C1794 1.384 . S
C1793 C1792 1.377 . S
C1793 C1799 1.390 . S
C1794 H1785 0.930 . S
C1794 C1792 1.384 . S
C1794 C1795 1.372 . S
C1795 C1794 1.372 . S
C1795 C1796 1.400 . S
C1795 C1800 1.490 . S
C1796 H1786 0.930 . S
C1796 C1795 1.400 . S
C1796 C1799 1.386 . S
H1797 C1813 0.930 . S
H1798 C1814 0.931 . S
C1799 H1787 0.929 . S
C1799 C1793 1.390 . S
C1799 C1796 1.386 . S
C1800 C1795 1.490 . S
C1800 C1802 1.395 . S
C1800 C1803 1.403 . S
H1801 C1807 0.930 . S
C1802 H1788 0.930 . S
C1802 C1800 1.395 . S
C1802 C1805 1.403 . S
C1803 C1800 1.403 . S
C1803 C1804 1.524 . S
C1803 C1807 1.400 . S
C1804 H1789 0.960 . S
C1804 H1790 0.960 . S
C1804 H1791 0.960 . S
C1804 C1803 1.524 . S
C1805 C1802 1.403 . S
C1805 C1806 1.392 . S
C1805 C1809 1.495 . S
C1806 C1805 1.392 . S
C1806 C1807 1.385 . S
C1806 C1808 1.478 . S
C1807 H1801 0.930 . S
C1807 C1803 1.400 . S
C1807 C1806 1.385 . S
C1808 C1806 1.478 . S
C1808 C1810 1.381 . S
C1808 C1814 1.383 . S
C1809 C1805 1.495 . S
C1809 H1815 0.959 . S
C1809 H1816 0.961 . S
C1809 H1817 0.960 . S
C1810 C1808 1.381 . S
C1810 C1811 1.394 . S
C1810 H1818 0.930 . S
C1811 C1810 1.394 . S
C1811 C1812 1.383 . S
C1811 H1819 0.929 . S
C1812 C1811 1.383 . S
C1812 C1813 1.377 . S
C1813 H1797 0.930 . S
C1813 C1812 1.377 . S
C1813 C1814 1.379 . S
C1814 H1798 0.931 . S
C1814 C1808 1.383 . S
C1814 C1813 1.379 . S
H1815 C1809 0.959 . S
H1816 C1809 0.961 . S
H1817 C1809 0.960 . S
H1818 C1810 0.930 . S
H1819 C1811 0.929 . S
H1820 C1828 0.929 . S
H1821 C1830 0.930 . S
H1822 C1832 0.930 . S
H1823 C1835 0.929 . S
H1824 C1838 0.930 . S
H1825 C1840 0.960 . S
H1826 C1840 0.960 . S
H1827 C1840 0.960 . S
C1828 H1820 0.929 . S
C1828 C1829 1.377 . S
C1828 C1830 1.384 . S
C1829 C1828 1.377 . S
C1829 C1835 1.390 . S
C1830 H1821 0.930 . S
C1830 C1828 1.384 . S
C1830 C1831 1.372 . S
C1831 C1830 1.372 . S
C1831 C1832 1.400 . S
C1831 C1836 1.490 . S
C1832 H1822 0.930 . S
C1832 C1831 1.400 . S
C1832 C1835 1.386 . S
H1833 C1849 0.930 . S
H1834 C1850 0.931 . S
C1835 H1823 0.929 . S
C1835 C1829 1.390 . S
C1835 C1832 1.386 . S
C1836 C1831 1.490 . S
C1836 C1838 1.395 . S
C1836 C1839 1.403 . S
H1837 C1843 0.930 . S
C1838 H1824 0.930 . S
C1838 C1836 1.395 . S
C1838 C1841 1.403 . S
C1839 C1836 1.403 . S
C1839 C1840 1.524 . S
C1839 C1843 1.400 . S
C1840 H1825 0.960 . S
C1840 H1826 0.960 . S
C1840 H1827 0.960 . S
C1840 C1839 1.524 . S
C1841 C1838 1.403 . S
C1841 C1842 1.392 . S
C1841 C1845 1.495 . S
C1842 C1841 1.392 . S
C1842 C1843 1.385 . S
C1842 C1844 1.478 . S
C1843 H1837 0.930 . S
C1843 C1839 1.400 . S
C1843 C1842 1.385 . S
C1844 C1842 1.478 . S
C1844 C1846 1.381 . S
C1844 C1850 1.383 . S
C1845 C1841 1.495 . S
C1845 H1851 0.959 . S
C1845 H1852 0.961 . S
C1845 H1853 0.960 . S
C1846 C1844 1.381 . S
C1846 C1847 1.394 . S
C1846 H1854 0.930 . S
C1847 C1846 1.394 . S
C1847 C1848 1.383 . S
C1847 H1855 0.929 . S
C1848 C1847 1.383 . S
C1848 C1849 1.377 . S
C1849 H1833 0.930 . S
C1849 C1848 1.377 . S
C1849 C1850 1.379 . S
C1850 H1834 0.931 . S
C1850 C1844 1.383 . S
C1850 C1849 1.379 . S
H1851 C1845 0.959 . S
H1852 C1845 0.961 . S
H1853 C1845 0.960 . S
H1854 C1846 0.930 . S
H1855 C1847 0.929 . S
H1856 C1864 0.929 1_565 S
H1857 C1866 0.918 1_565 S
H1858 C1868 0.930 . S
H1859 C1871 0.929 . S
H1860 C1874 0.930 . S
H1861 C1876 0.960 . S
H1862 C1876 0.961 1_565 S
H1863 C1876 0.960 . S
C1864 H1856 0.929 1_545 S
C1864 C1865 1.377 . S
C1864 C1866 1.384 . S
C1865 C1864 1.377 . S
C1865 C1871 1.390 . S
C1866 H1857 0.918 1_545 S
C1866 C1864 1.384 . S
C1866 C1867 1.372 . S
C1867 C1866 1.372 . S
C1867 C1868 1.400 . S
C1867 C1872 1.490 . S
C1868 H1858 0.930 . S
C1868 C1867 1.400 . S
C1868 C1871 1.386 . S
H1869 C1885 0.930 . S
H1870 C1886 0.931 . S
C1871 H1859 0.929 . S
C1871 C1865 1.390 . S
C1871 C1868 1.386 . S
C1872 C1867 1.490 . S
C1872 C1874 1.395 . S
C1872 C1875 1.403 . S
H1873 C1879 0.930 . S
C1874 H1860 0.930 . S
C1874 C1872 1.395 . S
C1874 C1877 1.403 . S
C1875 C1872 1.403 . S
C1875 C1876 1.524 . S
C1875 C1879 1.400 . S
C1876 H1861 0.960 . S
C1876 H1862 0.961 1_545 S
C1876 H1863 0.960 . S
C1876 C1875 1.524 . S
C1877 C1874 1.403 . S
C1877 C1878 1.392 . S
C1877 C1881 1.495 . S
C1878 C1877 1.392 . S
C1878 C1879 1.385 . S
C1878 C1880 1.478 . S
C1879 H1873 0.930 . S
C1879 C1875 1.400 . S
C1879 C1878 1.385 . S
C1880 C1878 1.478 . S
C1880 C1882 1.381 . S
C1880 C1886 1.383 . S
C1881 C1877 1.495 . S
C1881 H1887 0.959 . S
C1881 H1888 0.961 . S
C1881 H1889 0.960 . S
C1882 C1880 1.381 . S
C1882 C1883 1.394 . S
C1882 H1890 0.930 . S
C1883 C1882 1.394 . S
C1883 C1884 1.383 . S
C1883 H1891 0.929 . S
C1884 C1883 1.383 . S
C1884 C1885 1.377 . S
C1885 H1869 0.930 . S
C1885 C1884 1.377 . S
C1885 C1886 1.379 . S
C1886 H1870 0.931 . S
C1886 C1880 1.383 . S
C1886 C1885 1.379 . S
H1887 C1881 0.959 . S
H1888 C1881 0.961 . S
H1889 C1881 0.960 . S
H1890 C1882 0.930 . S
H1891 C1883 0.929 . S
H1892 C1900 0.929 . S
H1893 C1902 0.930 . S
H1894 C1904 0.930 . S
H1895 C1907 0.929 . S
H1896 C1910 0.930 . S
H1897 C1912 0.960 . S
H1898 C1912 0.960 . S
H1899 C1912 0.960 . S
C1900 H1892 0.929 . S
C1900 C1901 1.377 . S
C1900 C1902 1.384 . S
C1901 C1900 1.377 . S
C1901 C1907 1.390 . S
C1902 H1893 0.930 . S
C1902 C1900 1.384 . S
C1902 C1903 1.372 . S
C1903 C1902 1.372 . S
C1903 C1904 1.400 . S
C1903 C1908 1.490 . S
C1904 H1894 0.930 . S
C1904 C1903 1.400 . S
C1904 C1907 1.386 . S
H1905 C1921 0.930 . S
H1906 C1922 0.931 . S
C1907 H1895 0.929 . S
C1907 C1901 1.390 . S
C1907 C1904 1.386 . S
C1908 C1903 1.490 . S
C1908 C1910 1.395 . S
C1908 C1911 1.403 . S
H1909 C1915 0.930 . S
C1910 H1896 0.930 . S
C1910 C1908 1.395 . S
C1910 C1913 1.403 . S
C1911 C1908 1.403 . S
C1911 C1912 1.524 . S
C1911 C1915 1.400 . S
C1912 H1897 0.960 . S
C1912 H1898 0.960 . S
C1912 H1899 0.960 . S
C1912 C1911 1.524 . S
C1913 C1910 1.403 . S
C1913 C1914 1.392 . S
C1913 C1917 1.495 . S
C1914 C1913 1.392 . S
C1914 C1915 1.385 . S
C1914 C1916 1.478 . S
C1915 H1909 0.930 . S
C1915 C1911 1.400 . S
C1915 C1914 1.385 . S
C1916 C1914 1.478 . S
C1916 C1918 1.381 . S
C1916 C1922 1.383 . S
C1917 C1913 1.495 . S
C1917 H1923 0.959 . S
C1917 H1924 0.961 . S
C1917 H1925 0.960 . S
C1918 C1916 1.381 . S
C1918 C1919 1.394 . S
C1918 H1926 0.930 . S
C1919 C1918 1.394 . S
C1919 C1920 1.383 . S
C1919 H1927 0.929 . S
C1920 C1919 1.383 . S
C1920 C1921 1.377 . S
C1921 H1905 0.930 . S
C1921 C1920 1.377 . S
C1921 C1922 1.379 . S
C1922 H1906 0.931 . S
C1922 C1916 1.383 . S
C1922 C1921 1.379 . S
H1923 C1917 0.959 . S
H1924 C1917 0.961 . S
H1925 C1917 0.960 . S
H1926 C1918 0.930 . S
H1927 C1919 0.929 . S
H1928 C1936 0.929 . S
H1929 C1938 0.930 . S
H1930 C1940 0.930 . S
H1931 C1943 0.929 . S
H1932 C1946 0.930 . S
H1933 C1948 0.960 . S
H1934 C1948 0.960 1_565 S
H1935 C1948 0.960 . S
C1936 H1928 0.929 . S
C1936 C1937 1.377 1_565 S
C1936 C1938 1.384 . S
C1937 C1936 1.377 1_545 S
C1937 C1943 1.390 . S
C1938 H1929 0.930 . S
C1938 C1936 1.384 . S
C1938 C1939 1.372 . S
C1939 C1938 1.372 . S
C1939 C1940 1.400 1_565 S
C1939 C1944 1.490 . S
C1940 H1930 0.930 . S
C1940 C1939 1.400 1_545 S
C1940 C1943 1.386 . S
H1941 C1957 0.930 . S
H1942 C1958 0.931 . S
C1943 H1931 0.929 . S
C1943 C1937 1.390 . S
C1943 C1940 1.386 . S
C1944 C1939 1.490 . S
C1944 C1946 1.395 . S
C1944 C1947 1.402 . S
H1945 C1951 0.930 1_545 S
C1946 H1932 0.930 . S
C1946 C1944 1.395 . S
C1946 C1949 1.403 . S
C1947 C1944 1.402 . S
C1947 C1948 1.525 1_565 S
C1947 C1951 1.400 . S
C1948 H1933 0.960 . S
C1948 H1934 0.960 1_545 S
C1948 H1935 0.960 . S
C1948 C1947 1.525 1_545 S
C1949 C1946 1.403 . S
C1949 C1950 1.392 . S
C1949 C1953 1.495 . S
C1950 C1949 1.392 . S
C1950 C1951 1.385 . S
C1950 C1952 1.478 . S
C1951 H1945 0.930 1_565 S
C1951 C1947 1.400 . S
C1951 C1950 1.385 . S
C1952 C1950 1.478 . S
C1952 C1954 1.381 . S
C1952 C1958 1.383 1_565 S
C1953 C1949 1.495 . S
C1953 H1959 0.959 . S
C1953 H1960 0.961 . S
C1953 H1961 0.960 . S
C1954 C1952 1.381 . S
C1954 C1955 1.394 . S
C1954 H1962 0.930 . S
C1955 C1954 1.394 . S
C1955 C1956 1.383 . S
C1955 H1963 0.929 . S
C1956 C1955 1.383 . S
C1956 C1957 1.377 1_565 S
C1957 H1941 0.930 . S
C1957 C1956 1.377 1_545 S
C1957 C1958 1.379 . S
C1958 H1942 0.931 . S
C1958 C1952 1.383 1_545 S
C1958 C1957 1.379 . S
H1959 C1953 0.959 . S
H1960 C1953 0.961 . S
H1961 C1953 0.960 . S
H1962 C1954 0.930 . S
H1963 C1955 0.929 . S
H1964 C1972 0.929 . S
H1965 C1974 0.930 . S
H1966 C1976 0.930 . S
H1967 C1979 0.929 . S
H1968 C1982 0.930 . S
H1969 C1984 0.960 . S
H1970 C1984 0.960 . S
H1971 C1984 0.960 . S
C1972 H1964 0.929 . S
C1972 C1973 1.377 . S
C1972 C1974 1.384 . S
C1973 C1972 1.377 . S
C1973 C1979 1.390 . S
C1974 H1965 0.930 . S
C1974 C1972 1.384 . S
C1974 C1975 1.372 . S
C1975 C1974 1.372 . S
C1975 C1976 1.400 . S
C1975 C1980 1.490 . S
C1976 H1966 0.930 . S
C1976 C1975 1.400 . S
C1976 C1979 1.386 . S
H1977 C1993 0.930 . S
H1978 C1994 0.931 . S
C1979 H1967 0.929 . S
C1979 C1973 1.390 . S
C1979 C1976 1.386 . S
C1980 C1975 1.490 . S
C1980 C1982 1.395 . S
C1980 C1983 1.403 . S
H1981 C1987 0.930 . S
C1982 H1968 0.930 . S
C1982 C1980 1.395 . S
C1982 C1985 1.403 . S
C1983 C1980 1.403 . S
C1983 C1984 1.524 . S
C1983 C1987 1.400 . S
C1984 H1969 0.960 . S
C1984 H1970 0.960 . S
C1984 H1971 0.960 . S
C1984 C1983 1.524 . S
C1985 C1982 1.403 . S
C1985 C1986 1.392 . S
C1985 C1989 1.495 . S
C1986 C1985 1.392 . S
C1986 C1987 1.385 . S
C1986 C1988 1.478 . S
C1987 H1981 0.930 . S
C1987 C1983 1.400 . S
C1987 C1986 1.385 . S
C1988 C1986 1.478 . S
C1988 C1990 1.381 . S
C1988 C1994 1.383 . S
C1989 C1985 1.495 . S
C1989 H1995 0.959 . S
C1989 H1996 0.961 . S
C1989 H1997 0.960 . S
C1990 C1988 1.381 . S
C1990 C1991 1.394 . S
C1990 H1998 0.930 . S
C1991 C1990 1.394 . S
C1991 C1992 1.383 . S
C1991 H1999 0.929 . S
C1992 C1991 1.383 . S
C1992 C1993 1.377 . S
C1993 H1977 0.930 . S
C1993 C1992 1.377 . S
C1993 C1994 1.379 . S
C1994 H1978 0.931 . S
C1994 C1988 1.383 . S
C1994 C1993 1.379 . S
H1995 C1989 0.959 . S
H1996 C1989 0.961 . S
H1997 C1989 0.960 . S
H1998 C1990 0.930 . S
H1999 C1991 0.929 . S
H2000 C2008 0.929 . S
H2001 C2010 0.930 . S
H2002 C2012 0.930 . S
H2003 C2015 0.929 . S
H2004 C2018 0.930 . S
H2005 C2020 0.960 . S
H2006 C2020 0.960 . S
H2007 C2020 0.960 . S
C2008 H2000 0.929 . S
C2008 C2009 1.377 . S
C2008 C2010 1.384 . S
C2009 C2008 1.377 . S
C2009 C2015 1.390 . S
C2010 H2001 0.930 . S
C2010 C2008 1.384 . S
C2010 C2011 1.372 . S
C2011 C2010 1.372 . S
C2011 C2012 1.400 . S
C2011 C2016 1.490 . S
C2012 H2002 0.930 . S
C2012 C2011 1.400 . S
C2012 C2015 1.386 . S
H2013 C2029 0.925 1_465 S
H2014 C2030 0.931 . S
C2015 H2003 0.929 . S
C2015 C2009 1.390 . S
C2015 C2012 1.386 . S
C2016 C2011 1.490 . S
C2016 C2018 1.395 . S
C2016 C2019 1.403 1_545 S
H2017 C2023 0.930 . S
C2018 H2004 0.930 . S
C2018 C2016 1.395 . S
C2018 C2021 1.403 . S
C2019 C2016 1.403 1_565 S
C2019 C2020 1.524 . S
C2019 C2023 1.400 . S
C2020 H2005 0.960 . S
C2020 H2006 0.960 . S
C2020 H2007 0.960 . S
C2020 C2019 1.524 . S
C2021 C2018 1.403 . S
C2021 C2022 1.392 . S
C2021 C2025 1.495 . S
C2022 C2021 1.392 . S
C2022 C2023 1.385 1_545 S
C2022 C2024 1.478 . S
C2023 H2017 0.930 . S
C2023 C2019 1.400 . S
C2023 C2022 1.385 1_565 S
C2024 C2022 1.478 . S
C2024 C2026 1.381 . S
C2024 C2030 1.383 . S
C2025 C2021 1.495 . S
C2025 H2031 0.959 . S
C2025 H2032 0.961 . S
C2025 H2033 0.960 . S
C2026 C2024 1.381 . S
C2026 C2027 1.394 . S
C2026 H2034 0.930 . S
C2027 C2026 1.394 . S
C2027 C2028 1.382 . S
C2027 H2035 0.929 . S
C2028 C2027 1.382 . S
C2028 C2029 1.377 . S
C2029 H2013 0.925 1_645 S
C2029 C2028 1.377 . S
C2029 C2030 1.384 . S
C2030 H2014 0.931 . S
C2030 C2024 1.383 . S
C2030 C2029 1.384 . S
H2031 C2025 0.959 . S
H2032 C2025 0.961 . S
H2033 C2025 0.960 . S
H2034 C2026 0.930 . S
H2035 C2027 0.929 . S
H2036 C2044 0.929 . S
H2037 C2046 0.930 . S
H2038 C2048 0.930 . S
H2039 C2051 0.929 . S
H2040 C2054 0.930 . S
H2041 C2056 0.960 . S
H2042 C2056 0.960 . S
H2043 C2056 0.960 . S
C2044 H2036 0.929 . S
C2044 C2045 1.377 . S
C2044 C2046 1.384 . S
C2045 C2044 1.377 . S
C2045 C2051 1.390 . S
C2046 H2037 0.930 . S
C2046 C2044 1.384 . S
C2046 C2047 1.372 . S
C2047 C2046 1.372 . S
C2047 C2048 1.400 . S
C2047 C2052 1.490 . S
C2048 H2038 0.930 . S
C2048 C2047 1.400 . S
C2048 C2051 1.386 . S
H2049 C2065 0.930 . S
H2050 C2066 0.931 . S
C2051 H2039 0.929 . S
C2051 C2045 1.390 . S
C2051 C2048 1.386 . S
C2052 C2047 1.490 . S
C2052 C2054 1.395 . S
C2052 C2055 1.403 . S
H2053 C2059 0.930 . S
C2054 H2040 0.930 . S
C2054 C2052 1.395 . S
C2054 C2057 1.403 . S
C2055 C2052 1.403 . S
C2055 C2056 1.524 . S
C2055 C2059 1.400 . S
C2056 H2041 0.960 . S
C2056 H2042 0.960 . S
C2056 H2043 0.960 . S
C2056 C2055 1.524 . S
C2057 C2054 1.403 . S
C2057 C2058 1.392 . S
C2057 C2061 1.495 . S
C2058 C2057 1.392 . S
C2058 C2059 1.385 . S
C2058 C2060 1.478 . S
C2059 H2053 0.930 . S
C2059 C2055 1.400 . S
C2059 C2058 1.385 . S
C2060 C2058 1.478 . S
C2060 C2062 1.381 . S
C2060 C2066 1.383 . S
C2061 C2057 1.495 . S
C2061 H2067 0.959 . S
C2061 H2068 0.961 . S
C2061 H2069 0.960 . S
C2062 C2060 1.381 . S
C2062 C2063 1.394 . S
C2062 H2070 0.930 . S
C2063 C2062 1.394 . S
C2063 C2064 1.383 . S
C2063 H2071 0.929 . S
C2064 C2063 1.383 . S
C2064 C2065 1.377 . S
C2065 H2049 0.930 . S
C2065 C2064 1.377 . S
C2065 C2066 1.379 . S
C2066 H2050 0.931 . S
C2066 C2060 1.383 . S
C2066 C2065 1.379 . S
H2067 C2061 0.959 . S
H2068 C2061 0.961 . S
H2069 C2061 0.960 . S
H2070 C2062 0.930 . S
H2071 C2063 0.929 . S
H2072 C2080 0.929 . S
H2073 C2082 0.929 . S
H2074 C2084 0.930 . S
H2075 C2087 0.929 . S
H2076 C2090 0.930 . S
H2077 C2092 0.960 . S
H2078 C2092 0.960 . S
H2079 C2092 0.960 . S
C2080 H2072 0.929 . S
C2080 C2081 1.373 1_565 S
C2080 C2082 1.383 . S
C2081 C2080 1.373 1_545 S
C2081 C2087 1.400 . S
C2082 H2073 0.929 . S
C2082 C2080 1.383 . S
C2082 C2083 1.373 1_565 S
C2083 C2082 1.373 1_545 S
C2083 C2084 1.400 . S
C2083 C2088 1.490 . S
C2084 H2074 0.930 . S
C2084 C2083 1.400 . S
C2084 C2087 1.386 . S
H2085 C2101 0.930 . S
H2086 C2102 0.931 . S
C2087 H2075 0.929 . S
C2087 C2081 1.400 . S
C2087 C2084 1.386 . S
C2088 C2083 1.490 . S
C2088 C2090 1.395 1_545 S
C2088 C2091 1.403 . S
H2089 C2095 0.930 . S
C2090 H2076 0.930 . S
C2090 C2088 1.395 1_565 S
C2090 C2093 1.403 . S
C2091 C2088 1.403 . S
C2091 C2092 1.524 . S
C2091 C2095 1.400 . S
C2092 H2077 0.960 . S
C2092 H2078 0.960 . S
C2092 H2079 0.960 . S
C2092 C2091 1.524 . S
C2093 C2090 1.403 . S
C2093 C2094 1.392 1_565 S
C2093 C2097 1.495 . S
C2094 C2093 1.392 1_545 S
C2094 C2095 1.385 . S
C2094 C2096 1.478 . S
C2095 H2089 0.930 . S
C2095 C2091 1.400 . S
C2095 C2094 1.385 . S
C2096 C2094 1.478 . S
C2096 C2098 1.381 . S
C2096 C2102 1.383 . S
C2097 C2093 1.495 . S
C2097 H2103 0.959 . S
C2097 H2104 0.961 . S
C2097 H2105 0.960 . S
C2098 C2096 1.381 . S
C2098 C2099 1.394 . S
C2098 H2106 0.930 . S
C2099 C2098 1.394 . S
C2099 C2100 1.383 . S
C2099 H2107 0.929 . S
C2100 C2099 1.383 . S
C2100 C2101 1.377 . S
C2101 H2085 0.930 . S
C2101 C2100 1.377 . S
C2101 C2102 1.379 . S
C2102 H2086 0.931 . S
C2102 C2096 1.383 . S
C2102 C2101 1.379 . S
H2103 C2097 0.959 . S
H2104 C2097 0.961 . S
H2105 C2097 0.960 . S
H2106 C2098 0.930 . S
H2107 C2099 0.929 . S
H2108 C2116 0.929 . S
H2109 C2118 0.930 . S
H2110 C2120 0.930 . S
H2111 C2123 0.929 . S
H2112 C2126 0.930 . S
H2113 C2128 0.960 . S
H2114 C2128 0.960 . S
H2115 C2128 0.960 . S
C2116 H2108 0.929 . S
C2116 C2117 1.377 . S
C2116 C2118 1.384 . S
C2117 C2116 1.377 . S
C2117 C2123 1.390 . S
C2118 H2109 0.930 . S
C2118 C2116 1.384 . S
C2118 C2119 1.372 . S
C2119 C2118 1.372 . S
C2119 C2120 1.400 . S
C2119 C2124 1.490 . S
C2120 H2110 0.930 . S
C2120 C2119 1.400 . S
C2120 C2123 1.386 . S
H2121 C2137 0.930 . S
H2122 C2138 0.931 . S
C2123 H2111 0.929 . S
C2123 C2117 1.390 . S
C2123 C2120 1.386 . S
C2124 C2119 1.490 . S
C2124 C2126 1.395 . S
C2124 C2127 1.403 . S
H2125 C2131 0.930 . S
C2126 H2112 0.930 . S
C2126 C2124 1.395 . S
C2126 C2129 1.403 . S
C2127 C2124 1.403 . S
C2127 C2128 1.524 . S
C2127 C2131 1.400 . S
C2128 H2113 0.960 . S
C2128 H2114 0.960 . S
C2128 H2115 0.960 . S
C2128 C2127 1.524 . S
C2129 C2126 1.403 . S
C2129 C2130 1.392 . S
C2129 C2133 1.495 . S
C2130 C2129 1.392 . S
C2130 C2131 1.385 . S
C2130 C2132 1.478 . S
C2131 H2125 0.930 . S
C2131 C2127 1.400 . S
C2131 C2130 1.385 . S
C2132 C2130 1.478 . S
C2132 C2134 1.381 . S
C2132 C2138 1.383 . S
C2133 C2129 1.495 . S
C2133 H2139 0.959 . S
C2133 H2140 0.961 . S
C2133 H2141 0.960 . S
C2134 C2132 1.381 . S
C2134 C2135 1.394 . S
C2134 H2142 0.930 . S
C2135 C2134 1.394 . S
C2135 C2136 1.383 . S
C2135 H2143 0.929 . S
C2136 C2135 1.383 . S
C2136 C2137 1.377 . S
C2137 H2121 0.930 . S
C2137 C2136 1.377 . S
C2137 C2138 1.379 . S
C2138 H2122 0.931 . S
C2138 C2132 1.383 . S
C2138 C2137 1.379 . S
H2139 C2133 0.959 . S
H2140 C2133 0.961 . S
H2141 C2133 0.960 . S
H2142 C2134 0.930 . S
H2143 C2135 0.929 . S
H2144 C2152 0.929 . S
H2145 C2154 0.930 . S
H2146 C2156 0.930 . S
H2147 C2159 0.929 . S
H2148 C2162 0.930 1_556 S
H2149 C2164 0.960 . S
H2150 C2164 0.960 . S
H2151 C2164 0.960 . S
C2152 H2144 0.929 . S
C2152 C2153 1.377 1_556 S
C2152 C2154 1.384 . S
C2153 C2152 1.377 1_554 S
C2153 C2159 1.390 . S
C2154 H2145 0.930 . S
C2154 C2152 1.384 . S
C2154 C2155 1.372 1_556 S
C2155 C2154 1.372 1_554 S
C2155 C2156 1.400 . S
C2155 C2160 1.490 . S
C2156 H2146 0.930 . S
C2156 C2155 1.400 . S
C2156 C2159 1.386 . S
H2157 C2173 0.930 . S
H2158 C2174 0.931 . S
C2159 H2147 0.929 . S
C2159 C2153 1.390 . S
C2159 C2156 1.386 . S
C2160 C2155 1.490 . S
C2160 C2162 1.395 . S
C2160 C2163 1.403 . S
H2161 C2167 0.930 . S
C2162 H2148 0.930 1_554 S
C2162 C2160 1.395 . S
C2162 C2165 1.403 . S
C2163 C2160 1.403 . S
C2163 C2164 1.524 . S
C2163 C2167 1.400 . S
C2164 H2149 0.960 . S
C2164 H2150 0.960 . S
C2164 H2151 0.960 . S
C2164 C2163 1.524 . S
C2165 C2162 1.403 . S
C2165 C2166 1.392 . S
C2165 C2169 1.495 1_554 S
C2166 C2165 1.392 . S
C2166 C2167 1.385 . S
C2166 C2168 1.478 . S
C2167 H2161 0.930 . S
C2167 C2163 1.400 . S
C2167 C2166 1.385 . S
C2168 C2166 1.478 . S
C2168 C2170 1.381 . S
C2168 C2174 1.383 . S
C2169 C2165 1.495 1_556 S
C2169 H2175 0.959 . S
C2169 H2176 0.961 1_556 S
C2169 H2177 0.960 . S
C2170 C2168 1.381 . S
C2170 C2171 1.394 . S
C2170 H2178 0.930 1_554 S
C2171 C2170 1.394 . S
C2171 C2172 1.383 . S
C2171 H2179 0.930 1_554 S
C2172 C2171 1.383 . S
C2172 C2173 1.377 . S
C2173 H2157 0.930 . S
C2173 C2172 1.377 . S
C2173 C2174 1.379 . S
C2174 H2158 0.931 . S
C2174 C2168 1.383 . S
C2174 C2173 1.379 . S
H2175 C2169 0.959 . S
H2176 C2169 0.961 1_554 S
H2177 C2169 0.960 . S
H2178 C2170 0.930 1_556 S
H2179 C2171 0.930 1_556 S
H2180 C2188 0.929 . S
H2181 C2190 0.930 . S
H2182 C2192 0.930 . S
H2183 C2195 0.929 . S
H2184 C2198 0.930 . S
H2185 C2200 0.960 . S
H2186 C2200 0.960 . S
H2187 C2200 0.960 . S
C2188 H2180 0.929 . S
C2188 C2189 1.377 1_556 S
C2188 C2190 1.384 . S
C2189 C2188 1.377 1_554 S
C2189 C2195 1.390 . S
C2190 H2181 0.930 . S
C2190 C2188 1.384 . S
C2190 C2191 1.375 . S
C2191 C2190 1.375 . S
C2191 C2192 1.396 1_556 S
C2191 C2196 1.490 . S
C2192 H2182 0.930 . S
C2192 C2191 1.396 1_554 S
C2192 C2195 1.386 . S
H2193 C2209 0.930 . S
H2194 C2210 0.931 . S
C2195 H2183 0.929 . S
C2195 C2189 1.390 . S
C2195 C2192 1.386 . S
C2196 C2191 1.490 . S
C2196 C2198 1.395 1_556 S
C2196 C2199 1.403 . S
H2197 C2203 0.930 . S
C2198 H2184 0.930 . S
C2198 C2196 1.395 1_554 S
C2198 C2201 1.403 . S
C2199 C2196 1.403 . S
C2199 C2200 1.524 . S
C2199 C2203 1.400 . S
C2200 H2185 0.960 . S
C2200 H2186 0.960 . S
C2200 H2187 0.960 . S
C2200 C2199 1.524 . S
C2201 C2198 1.403 . S
C2201 C2202 1.392 1_554 S
C2201 C2205 1.495 . S
C2202 C2201 1.392 1_556 S
C2202 C2203 1.385 . S
C2202 C2204 1.478 . S
C2203 H2197 0.930 . S
C2203 C2199 1.400 . S
C2203 C2202 1.385 . S
C2204 C2202 1.478 . S
C2204 C2206 1.381 . S
C2204 C2210 1.383 1_556 S
C2205 C2201 1.495 . S
C2205 H2211 0.959 . S
C2205 H2212 0.961 . S
C2205 H2213 0.960 . S
C2206 C2204 1.381 . S
C2206 C2207 1.394 . S
C2206 H2214 0.930 . S
C2207 C2206 1.394 . S
C2207 C2208 1.383 . S
C2207 H2215 0.929 . S
C2208 C2207 1.383 . S
C2208 C2209 1.377 1_556 S
C2209 H2193 0.930 . S
C2209 C2208 1.377 1_554 S
C2209 C2210 1.379 . S
C2210 H2194 0.931 . S
C2210 C2204 1.383 1_554 S
C2210 C2209 1.379 . S
H2211 C2205 0.959 . S
H2212 C2205 0.961 . S
H2213 C2205 0.960 . S
H2214 C2206 0.930 . S
H2215 C2207 0.929 . S
H2216 C2224 0.929 . S
H2217 C2226 0.930 . S
H2218 C2228 0.930 . S
H2219 C2231 0.929 . S
H2220 C2234 0.930 . S
H2221 C2236 0.960 . S
H2222 C2236 0.960 . S
H2223 C2236 0.960 . S
C2224 H2216 0.929 . S
C2224 C2225 1.377 . S
C2224 C2226 1.384 . S
C2225 C2224 1.377 . S
C2225 C2231 1.390 . S
C2226 H2217 0.930 . S
C2226 C2224 1.384 . S
C2226 C2227 1.372 . S
C2227 C2226 1.372 . S
C2227 C2228 1.400 . S
C2227 C2232 1.490 . S
C2228 H2218 0.930 . S
C2228 C2227 1.400 . S
C2228 C2231 1.386 . S
H2229 C2245 0.930 . S
H2230 C2246 0.931 . S
C2231 H2219 0.929 . S
C2231 C2225 1.390 . S
C2231 C2228 1.386 . S
C2232 C2227 1.490 . S
C2232 C2234 1.395 . S
C2232 C2235 1.403 . S
H2233 C2239 0.930 . S
C2234 H2220 0.930 . S
C2234 C2232 1.395 . S
C2234 C2237 1.403 . S
C2235 C2232 1.403 . S
C2235 C2236 1.524 . S
C2235 C2239 1.400 . S
C2236 H2221 0.960 . S
C2236 H2222 0.960 . S
C2236 H2223 0.960 . S
C2236 C2235 1.524 . S
C2237 C2234 1.403 . S
C2237 C2238 1.392 . S
C2237 C2241 1.495 . S
C2238 C2237 1.392 . S
C2238 C2239 1.385 . S
C2238 C2240 1.478 . S
C2239 H2233 0.930 . S
C2239 C2235 1.400 . S
C2239 C2238 1.385 . S
C2240 C2238 1.478 . S
C2240 C2242 1.381 . S
C2240 C2246 1.383 . S
C2241 C2237 1.495 . S
C2241 H2247 0.959 . S
C2241 H2248 0.961 . S
C2241 H2249 0.960 . S
C2242 C2240 1.381 . S
C2242 C2243 1.394 . S
C2242 H2250 0.930 . S
C2243 C2242 1.394 . S
C2243 C2244 1.383 . S
C2243 H2251 0.929 . S
C2244 C2243 1.383 . S
C2244 C2245 1.377 . S
C2245 H2229 0.930 . S
C2245 C2244 1.377 . S
C2245 C2246 1.379 . S
C2246 H2230 0.931 . S
C2246 C2240 1.383 . S
C2246 C2245 1.379 . S
H2247 C2241 0.959 . S
H2248 C2241 0.961 . S
H2249 C2241 0.960 . S
H2250 C2242 0.930 . S
H2251 C2243 0.929 . S
H2252 C2260 0.929 . S
H2253 C2262 0.930 . S
H2254 C2264 0.930 . S
H2255 C2267 0.929 . S
H2256 C2270 0.930 . S
H2257 C2272 0.960 . S
H2258 C2272 0.960 . S
H2259 C2272 0.960 . S
C2260 H2252 0.929 . S
C2260 C2261 1.377 . S
C2260 C2262 1.384 . S
C2261 C2260 1.377 . S
C2261 C2267 1.390 . S
C2262 H2253 0.930 . S
C2262 C2260 1.384 . S
C2262 C2263 1.372 . S
C2263 C2262 1.372 . S
C2263 C2264 1.400 . S
C2263 C2268 1.490 . S
C2264 H2254 0.930 . S
C2264 C2263 1.400 . S
C2264 C2267 1.386 . S
H2265 C2281 0.930 . S
H2266 C2282 0.931 . S
C2267 H2255 0.929 . S
C2267 C2261 1.390 . S
C2267 C2264 1.386 . S
C2268 C2263 1.490 . S
C2268 C2270 1.395 . S
C2268 C2271 1.403 . S
H2269 C2275 0.930 . S
C2270 H2256 0.930 . S
C2270 C2268 1.395 . S
C2270 C2273 1.403 . S
C2271 C2268 1.403 . S
C2271 C2272 1.524 . S
C2271 C2275 1.400 . S
C2272 H2257 0.960 . S
C2272 H2258 0.960 . S
C2272 H2259 0.960 . S
C2272 C2271 1.524 . S
C2273 C2270 1.403 . S
C2273 C2274 1.392 . S
C2273 C2277 1.495 . S
C2274 C2273 1.392 . S
C2274 C2275 1.385 . S
C2274 C2276 1.478 . S
C2275 H2269 0.930 . S
C2275 C2271 1.400 . S
C2275 C2274 1.385 . S
C2276 C2274 1.478 . S
C2276 C2278 1.381 . S
C2276 C2282 1.383 . S
C2277 C2273 1.495 . S
C2277 H2283 0.959 . S
C2277 H2284 0.961 . S
C2277 H2285 0.960 . S
C2278 C2276 1.381 . S
C2278 C2279 1.394 . S
C2278 H2286 0.930 . S
C2279 C2278 1.394 . S
C2279 C2280 1.383 . S
C2279 H2287 0.929 . S
C2280 C2279 1.383 . S
C2280 C2281 1.377 . S
C2281 H2265 0.930 . S
C2281 C2280 1.377 . S
C2281 C2282 1.379 . S
C2282 H2266 0.931 . S
C2282 C2276 1.383 . S
C2282 C2281 1.379 . S
H2283 C2277 0.959 . S
H2284 C2277 0.961 . S
H2285 C2277 0.960 . S
H2286 C2278 0.930 . S
H2287 C2279 0.929 . S
H2288 C2296 0.929 . S
H2289 C2298 0.930 . S
H2290 C2300 0.930 . S
H2291 C2303 0.929 . S
H2292 C2306 0.930 . S
H2293 C2308 0.960 . S
H2294 C2308 0.960 . S
H2295 C2308 0.960 . S
C2296 H2288 0.929 . S
C2296 C2297 1.377 . S
C2296 C2298 1.384 . S
C2297 C2296 1.377 . S
C2297 C2303 1.390 . S
C2298 H2289 0.930 . S
C2298 C2296 1.384 . S
C2298 C2299 1.372 . S
C2299 C2298 1.372 . S
C2299 C2300 1.400 . S
C2299 C2304 1.490 . S
C2300 H2290 0.930 . S
C2300 C2299 1.400 . S
C2300 C2303 1.386 . S
H2301 C2317 0.930 . S
H2302 C2318 0.931 . S
C2303 H2291 0.929 . S
C2303 C2297 1.390 . S
C2303 C2300 1.386 . S
C2304 C2299 1.490 . S
C2304 C2306 1.395 . S
C2304 C2307 1.403 . S
H2305 C2311 0.930 . S
C2306 H2292 0.930 . S
C2306 C2304 1.395 . S
C2306 C2309 1.403 . S
C2307 C2304 1.403 . S
C2307 C2308 1.524 . S
C2307 C2311 1.400 . S
C2308 H2293 0.960 . S
C2308 H2294 0.960 . S
C2308 H2295 0.960 . S
C2308 C2307 1.524 . S
C2309 C2306 1.403 . S
C2309 C2310 1.392 . S
C2309 C2313 1.495 . S
C2310 C2309 1.392 . S
C2310 C2311 1.385 . S
C2310 C2312 1.478 . S
C2311 H2305 0.930 . S
C2311 C2307 1.400 . S
C2311 C2310 1.385 . S
C2312 C2310 1.478 . S
C2312 C2314 1.381 . S
C2312 C2318 1.383 . S
C2313 C2309 1.495 . S
C2313 H2319 0.959 . S
C2313 H2320 0.961 . S
C2313 H2321 0.960 . S
C2314 C2312 1.381 . S
C2314 C2315 1.394 . S
C2314 H2322 0.930 . S
C2315 C2314 1.394 . S
C2315 C2316 1.383 . S
C2315 H2323 0.929 . S
C2316 C2315 1.383 . S
C2316 C2317 1.377 . S
C2317 H2301 0.930 . S
C2317 C2316 1.377 . S
C2317 C2318 1.379 . S
C2318 H2302 0.931 . S
C2318 C2312 1.383 . S
C2318 C2317 1.379 . S
H2319 C2313 0.959 . S
H2320 C2313 0.961 . S
H2321 C2313 0.960 . S
H2322 C2314 0.930 . S
H2323 C2315 0.929 . S
H2324 C2332 0.929 . S
H2325 C2334 0.930 . S
H2326 C2336 0.930 . S
H2327 C2339 0.929 . S
H2328 C2342 0.930 . S
H2329 C2344 0.960 . S
H2330 C2344 0.960 . S
H2331 C2344 0.960 . S
C2332 H2324 0.929 . S
C2332 C2333 1.377 . S
C2332 C2334 1.384 . S
C2333 C2332 1.377 . S
C2333 C2339 1.390 . S
C2334 H2325 0.930 . S
C2334 C2332 1.384 . S
C2334 C2335 1.372 . S
C2335 C2334 1.372 . S
C2335 C2336 1.400 . S
C2335 C2340 1.490 . S
C2336 H2326 0.930 . S
C2336 C2335 1.400 . S
C2336 C2339 1.386 . S
H2337 C2353 0.930 . S
H2338 C2354 0.931 . S
C2339 H2327 0.929 . S
C2339 C2333 1.390 . S
C2339 C2336 1.386 . S
C2340 C2335 1.490 . S
C2340 C2342 1.395 . S
C2340 C2343 1.403 . S
H2341 C2347 0.930 . S
C2342 H2328 0.930 . S
C2342 C2340 1.395 . S
C2342 C2345 1.403 . S
C2343 C2340 1.403 . S
C2343 C2344 1.524 . S
C2343 C2347 1.400 . S
C2344 H2329 0.960 . S
C2344 H2330 0.960 . S
C2344 H2331 0.960 . S
C2344 C2343 1.524 . S
C2345 C2342 1.403 . S
C2345 C2346 1.392 . S
C2345 C2349 1.495 . S
C2346 C2345 1.392 . S
C2346 C2347 1.385 . S
C2346 C2348 1.478 . S
C2347 H2341 0.930 . S
C2347 C2343 1.400 . S
C2347 C2346 1.385 . S
C2348 C2346 1.478 . S
C2348 C2350 1.381 . S
C2348 C2354 1.383 . S
C2349 C2345 1.495 . S
C2349 H2355 0.959 . S
C2349 H2356 0.961 . S
C2349 H2357 0.960 . S
C2350 C2348 1.381 . S
C2350 C2351 1.394 . S
C2350 H2358 0.930 . S
C2351 C2350 1.394 . S
C2351 C2352 1.383 . S
C2351 H2359 0.929 . S
C2352 C2351 1.383 . S
C2352 C2353 1.377 . S
C2353 H2337 0.930 . S
C2353 C2352 1.377 . S
C2353 C2354 1.379 . S
C2354 H2338 0.931 . S
C2354 C2348 1.383 . S
C2354 C2353 1.379 . S
H2355 C2349 0.959 . S
H2356 C2349 0.961 . S
H2357 C2349 0.960 . S
H2358 C2350 0.930 . S
H2359 C2351 0.929 . S
H2360 C2368 0.929 . S
H2361 C2370 0.930 . S
H2362 C2372 0.930 . S
H2363 C2375 0.929 . S
H2364 C2378 0.930 . S
H2365 C2380 0.960 . S
H2366 C2380 0.960 . S
H2367 C2380 0.960 . S
C2368 H2360 0.929 . S
C2368 C2369 1.377 . S
C2368 C2370 1.384 . S
C2369 C2368 1.377 . S
C2369 C2375 1.390 . S
C2370 H2361 0.930 . S
C2370 C2368 1.384 . S
C2370 C2371 1.372 . S
C2371 C2370 1.372 . S
C2371 C2372 1.400 . S
C2371 C2376 1.490 . S
C2372 H2362 0.930 . S
C2372 C2371 1.400 . S
C2372 C2375 1.386 . S
H2373 C2389 0.930 . S
H2374 C2390 0.931 . S
C2375 H2363 0.929 . S
C2375 C2369 1.390 . S
C2375 C2372 1.386 . S
C2376 C2371 1.490 . S
C2376 C2378 1.395 . S
C2376 C2379 1.403 . S
H2377 C2383 0.930 . S
C2378 H2364 0.930 . S
C2378 C2376 1.395 . S
C2378 C2381 1.403 . S
C2379 C2376 1.403 . S
C2379 C2380 1.524 . S
C2379 C2383 1.400 . S
C2380 H2365 0.960 . S
C2380 H2366 0.960 . S
C2380 H2367 0.960 . S
C2380 C2379 1.524 . S
C2381 C2378 1.403 . S
C2381 C2382 1.392 . S
C2381 C2385 1.495 . S
C2382 C2381 1.392 . S
C2382 C2383 1.385 . S
C2382 C2384 1.478 . S
C2383 H2377 0.930 . S
C2383 C2379 1.400 . S
C2383 C2382 1.385 . S
C2384 C2382 1.478 . S
C2384 C2386 1.381 . S
C2384 C2390 1.383 . S
C2385 C2381 1.495 . S
C2385 H2391 0.959 . S
C2385 H2392 0.961 . S
C2385 H2393 0.960 . S
C2386 C2384 1.381 . S
C2386 C2387 1.394 . S
C2386 H2394 0.930 . S
C2387 C2386 1.394 . S
C2387 C2388 1.383 . S
C2387 H2395 0.929 . S
C2388 C2387 1.383 . S
C2388 C2389 1.377 . S
C2389 H2373 0.930 . S
C2389 C2388 1.377 . S
C2389 C2390 1.379 . S
C2390 H2374 0.931 . S
C2390 C2384 1.383 . S
C2390 C2389 1.379 . S
H2391 C2385 0.959 . S
H2392 C2385 0.961 . S
H2393 C2385 0.960 . S
H2394 C2386 0.930 . S
H2395 C2387 0.929 . S
H2396 C2404 0.929 . S
H2397 C2406 0.930 . S
H2398 C2408 0.930 . S
H2399 C2411 0.929 . S
H2400 C2414 0.930 . S
H2401 C2416 0.960 . S
H2402 C2416 0.960 . S
H2403 C2416 0.960 . S
C2404 H2396 0.929 . S
C2404 C2405 1.377 . S
C2404 C2406 1.384 . S
C2405 C2404 1.377 . S
C2405 C2411 1.390 . S
C2406 H2397 0.930 . S
C2406 C2404 1.384 . S
C2406 C2407 1.372 . S
C2407 C2406 1.372 . S
C2407 C2408 1.400 . S
C2407 C2412 1.490 . S
C2408 H2398 0.930 . S
C2408 C2407 1.400 . S
C2408 C2411 1.386 . S
H2409 C2425 0.930 . S
H2410 C2426 0.931 . S
C2411 H2399 0.929 . S
C2411 C2405 1.390 . S
C2411 C2408 1.386 . S
C2412 C2407 1.490 . S
C2412 C2414 1.395 . S
C2412 C2415 1.403 . S
H2413 C2419 0.930 . S
C2414 H2400 0.930 . S
C2414 C2412 1.395 . S
C2414 C2417 1.403 . S
C2415 C2412 1.403 . S
C2415 C2416 1.524 . S
C2415 C2419 1.400 . S
C2416 H2401 0.960 . S
C2416 H2402 0.960 . S
C2416 H2403 0.960 . S
C2416 C2415 1.524 . S
C2417 C2414 1.403 . S
C2417 C2418 1.392 . S
C2417 C2421 1.495 . S
C2418 C2417 1.392 . S
C2418 C2419 1.385 . S
C2418 C2420 1.478 . S
C2419 H2413 0.930 . S
C2419 C2415 1.400 . S
C2419 C2418 1.385 . S
C2420 C2418 1.478 . S
C2420 C2422 1.381 . S
C2420 C2426 1.383 . S
C2421 C2417 1.495 . S
C2421 H2427 0.959 . S
C2421 H2428 0.961 . S
C2421 H2429 0.960 . S
C2422 C2420 1.381 . S
C2422 C2423 1.394 . S
C2422 H2430 0.930 . S
C2423 C2422 1.394 . S
C2423 C2424 1.383 . S
C2423 H2431 0.929 . S
C2424 C2423 1.383 . S
C2424 C2425 1.377 . S
C2425 H2409 0.930 . S
C2425 C2424 1.377 . S
C2425 C2426 1.379 . S
C2426 H2410 0.931 . S
C2426 C2420 1.383 . S
C2426 C2425 1.379 . S
H2427 C2421 0.959 . S
H2428 C2421 0.961 . S
H2429 C2421 0.960 . S
H2430 C2422 0.930 . S
H2431 C2423 0.929 . S
H2432 C2440 0.929 . S
H2433 C2442 0.930 . S
H2434 C2444 0.930 . S
H2435 C2447 0.929 . S
H2436 C2450 0.930 . S
H2437 C2452 0.960 . S
H2438 C2452 0.960 . S
H2439 C2452 0.960 . S
C2440 H2432 0.929 . S
C2440 C2441 1.377 . S
C2440 C2442 1.384 . S
C2441 C2440 1.377 . S
C2441 C2447 1.390 . S
C2442 H2433 0.930 . S
C2442 C2440 1.384 . S
C2442 C2443 1.372 . S
C2443 C2442 1.372 . S
C2443 C2444 1.400 . S
C2443 C2448 1.490 . S
C2444 H2434 0.930 . S
C2444 C2443 1.400 . S
C2444 C2447 1.386 . S
H2445 C2461 0.930 . S
H2446 C2462 0.931 . S
C2447 H2435 0.929 . S
C2447 C2441 1.390 . S
C2447 C2444 1.386 . S
C2448 C2443 1.490 . S
C2448 C2450 1.395 . S
C2448 C2451 1.403 . S
H2449 C2455 0.930 . S
C2450 H2436 0.930 . S
C2450 C2448 1.395 . S
C2450 C2453 1.403 . S
C2451 C2448 1.403 . S
C2451 C2452 1.524 . S
C2451 C2455 1.400 . S
C2452 H2437 0.960 . S
C2452 H2438 0.960 . S
C2452 H2439 0.960 . S
C2452 C2451 1.524 . S
C2453 C2450 1.403 . S
C2453 C2454 1.392 . S
C2453 C2457 1.495 . S
C2454 C2453 1.392 . S
C2454 C2455 1.385 . S
C2454 C2456 1.478 . S
C2455 H2449 0.930 . S
C2455 C2451 1.400 . S
C2455 C2454 1.385 . S
C2456 C2454 1.478 . S
C2456 C2458 1.381 . S
C2456 C2462 1.383 . S
C2457 C2453 1.495 . S
C2457 H2463 0.959 . S
C2457 H2464 0.961 . S
C2457 H2465 0.960 . S
C2458 C2456 1.381 . S
C2458 C2459 1.394 . S
C2458 H2466 0.930 . S
C2459 C2458 1.394 . S
C2459 C2460 1.383 . S
C2459 H2467 0.929 . S
C2460 C2459 1.383 . S
C2460 C2461 1.377 . S
C2461 H2445 0.930 . S
C2461 C2460 1.377 . S
C2461 C2462 1.379 . S
C2462 H2446 0.931 . S
C2462 C2456 1.383 . S
C2462 C2461 1.379 . S
H2463 C2457 0.959 . S
H2464 C2457 0.961 . S
H2465 C2457 0.960 . S
H2466 C2458 0.930 . S
H2467 C2459 0.929 . S
H2468 C2476 0.929 . S
H2469 C2478 0.930 . S
H2470 C2480 0.930 . S
H2471 C2483 0.929 . S
H2472 C2486 0.930 . S
H2473 C2488 0.960 . S
H2474 C2488 0.960 . S
H2475 C2488 0.960 . S
C2476 H2468 0.929 . S
C2476 C2477 1.377 . S
C2476 C2478 1.384 . S
C2477 C2476 1.377 . S
C2477 C2483 1.390 . S
C2478 H2469 0.930 . S
C2478 C2476 1.384 . S
C2478 C2479 1.372 . S
C2479 C2478 1.372 . S
C2479 C2480 1.400 . S
C2479 C2484 1.490 . S
C2480 H2470 0.930 . S
C2480 C2479 1.400 . S
C2480 C2483 1.386 . S
H2481 C2497 0.930 . S
H2482 C2498 0.931 . S
C2483 H2471 0.929 . S
C2483 C2477 1.390 . S
C2483 C2480 1.386 . S
C2484 C2479 1.490 . S
C2484 C2486 1.395 . S
C2484 C2487 1.403 . S
H2485 C2491 0.930 . S
C2486 H2472 0.930 . S
C2486 C2484 1.395 . S
C2486 C2489 1.403 . S
C2487 C2484 1.403 . S
C2487 C2488 1.524 . S
C2487 C2491 1.400 . S
C2488 H2473 0.960 . S
C2488 H2474 0.960 . S
C2488 H2475 0.960 . S
C2488 C2487 1.524 . S
C2489 C2486 1.403 . S
C2489 C2490 1.392 . S
C2489 C2493 1.495 . S
C2490 C2489 1.392 . S
C2490 C2491 1.385 . S
C2490 C2492 1.478 . S
C2491 H2485 0.930 . S
C2491 C2487 1.400 . S
C2491 C2490 1.385 . S
C2492 C2490 1.478 . S
C2492 C2494 1.381 . S
C2492 C2498 1.383 . S
C2493 C2489 1.495 . S
C2493 H2499 0.959 . S
C2493 H2500 0.961 . S
C2493 H2501 0.960 . S
C2494 C2492 1.381 . S
C2494 C2495 1.394 . S
C2494 H2502 0.930 . S
C2495 C2494 1.394 . S
C2495 C2496 1.383 . S
C2495 H2503 0.929 . S
C2496 C2495 1.383 . S
C2496 C2497 1.377 . S
C2497 H2481 0.930 . S
C2497 C2496 1.377 . S
C2497 C2498 1.379 . S
C2498 H2482 0.931 . S
C2498 C2492 1.383 . S
C2498 C2497 1.379 . S
H2499 C2493 0.959 . S
H2500 C2493 0.961 . S
H2501 C2493 0.960 . S
H2502 C2494 0.930 . S
H2503 C2495 0.929 . S
H2504 C2512 0.929 . S
H2505 C2514 0.930 . S
H2506 C2516 0.930 . S
H2507 C2519 0.929 . S
H2508 C2522 0.930 . S
H2509 C2524 0.960 . S
H2510 C2524 0.960 . S
H2511 C2524 0.960 . S
C2512 H2504 0.929 . S
C2512 C2513 1.377 1_655 S
C2512 C2514 1.384 . S
C2513 C2512 1.377 1_455 S
C2513 C2519 1.390 . S
C2514 H2505 0.930 . S
C2514 C2512 1.384 . S
C2514 C2515 1.372 1_655 S
C2515 C2514 1.372 1_455 S
C2515 C2516 1.400 . S
C2515 C2520 1.490 . S
C2516 H2506 0.930 . S
C2516 C2515 1.400 . S
C2516 C2519 1.386 . S
H2517 C2533 0.930 . S
H2518 C2534 0.931 . S
C2519 H2507 0.929 . S
C2519 C2513 1.390 . S
C2519 C2516 1.386 . S
C2520 C2515 1.490 . S
C2520 C2522 1.395 1_455 S
C2520 C2523 1.403 . S
H2521 C2527 0.930 . S
C2522 H2508 0.930 . S
C2522 C2520 1.395 1_655 S
C2522 C2525 1.405 . S
C2523 C2520 1.403 . S
C2523 C2524 1.524 . S
C2523 C2527 1.400 . S
C2524 H2509 0.960 . S
C2524 H2510 0.960 . S
C2524 H2511 0.960 . S
C2524 C2523 1.524 . S
C2525 C2522 1.405 . S
C2525 C2526 1.372 1_655 S
C2525 C2529 1.514 . S
C2526 C2525 1.372 1_455 S
C2526 C2527 1.385 . S
C2526 C2528 1.478 . S
C2527 H2521 0.930 . S
C2527 C2523 1.400 . S
C2527 C2526 1.385 . S
C2528 C2526 1.478 . S
C2528 C2530 1.381 . S
C2528 C2534 1.383 . S
C2529 C2525 1.514 . S
C2529 H2535 0.959 . S
C2529 H2536 0.961 . S
C2529 H2537 0.960 . S
C2530 C2528 1.381 . S
C2530 C2531 1.394 . S
C2530 H2538 0.930 1_455 S
C2531 C2530 1.394 . S
C2531 C2532 1.383 . S
C2531 H2539 0.929 1_455 S
C2532 C2531 1.383 . S
C2532 C2533 1.377 . S
C2533 H2517 0.930 . S
C2533 C2532 1.377 . S
C2533 C2534 1.379 . S
C2534 H2518 0.931 . S
C2534 C2528 1.383 . S
C2534 C2533 1.379 . S
H2535 C2529 0.959 . S
H2536 C2529 0.961 . S
H2537 C2529 0.960 . S
H2538 C2530 0.930 1_655 S
H2539 C2531 0.929 1_655 S
H2540 C2548 0.929 . S
H2541 C2550 0.930 . S
H2542 C2552 0.930 . S
H2543 C2555 0.929 . S
H2544 C2558 0.930 . S
H2545 C2560 0.960 . S
H2546 C2560 0.960 . S
H2547 C2560 0.960 . S
C2548 H2540 0.929 . S
C2548 C2549 1.377 . S
C2548 C2550 1.384 . S
C2549 C2548 1.377 . S
C2549 C2555 1.390 . S
C2550 H2541 0.930 . S
C2550 C2548 1.384 . S
C2550 C2551 1.372 . S
C2551 C2550 1.372 . S
C2551 C2552 1.400 . S
C2551 C2556 1.490 . S
C2552 H2542 0.930 . S
C2552 C2551 1.400 . S
C2552 C2555 1.386 . S
H2553 C2569 0.930 . S
H2554 C2570 0.931 . S
C2555 H2543 0.929 . S
C2555 C2549 1.390 . S
C2555 C2552 1.386 . S
C2556 C2551 1.490 . S
C2556 C2558 1.395 . S
C2556 C2559 1.403 . S
H2557 C2563 0.930 . S
C2558 H2544 0.930 . S
C2558 C2556 1.395 . S
C2558 C2561 1.403 . S
C2559 C2556 1.403 . S
C2559 C2560 1.524 . S
C2559 C2563 1.400 . S
C2560 H2545 0.960 . S
C2560 H2546 0.960 . S
C2560 H2547 0.960 . S
C2560 C2559 1.524 . S
C2561 C2558 1.403 . S
C2561 C2562 1.392 . S
C2561 C2565 1.495 . S
C2562 C2561 1.392 . S
C2562 C2563 1.385 . S
C2562 C2564 1.478 . S
C2563 H2557 0.930 . S
C2563 C2559 1.400 . S
C2563 C2562 1.385 . S
C2564 C2562 1.478 . S
C2564 C2566 1.381 . S
C2564 C2570 1.383 . S
C2565 C2561 1.495 . S
C2565 H2571 0.959 . S
C2565 H2572 0.961 . S
C2565 H2573 0.960 . S
C2566 C2564 1.381 . S
C2566 C2567 1.394 . S
C2566 H2574 0.930 . S
C2567 C2566 1.394 . S
C2567 C2568 1.383 . S
C2567 H2575 0.929 . S
C2568 C2567 1.383 . S
C2568 C2569 1.377 . S
C2569 H2553 0.930 . S
C2569 C2568 1.377 . S
C2569 C2570 1.379 . S
C2570 H2554 0.931 . S
C2570 C2564 1.383 . S
C2570 C2569 1.379 . S
H2571 C2565 0.959 . S
H2572 C2565 0.961 . S
H2573 C2565 0.960 . S
H2574 C2566 0.930 . S
H2575 C2567 0.929 . S
H2576 C2584 0.929 . S
H2577 C2586 0.930 . S
H2578 C2588 0.930 . S
H2579 C2591 0.929 . S
H2580 C2594 0.930 . S
H2581 C2596 0.960 . S
H2582 C2596 0.960 . S
H2583 C2596 0.960 . S
C2584 H2576 0.929 . S
C2584 C2585 1.377 . S
C2584 C2586 1.384 . S
C2585 C2584 1.377 . S
C2585 C2591 1.390 . S
C2586 H2577 0.930 . S
C2586 C2584 1.384 . S
C2586 C2587 1.372 . S
C2587 C2586 1.372 . S
C2587 C2588 1.400 . S
C2587 C2592 1.490 . S
C2588 H2578 0.930 . S
C2588 C2587 1.400 . S
C2588 C2591 1.386 . S
H2589 C2605 0.930 . S
H2590 C2606 0.931 . S
C2591 H2579 0.929 . S
C2591 C2585 1.390 . S
C2591 C2588 1.386 . S
C2592 C2587 1.490 . S
C2592 C2594 1.395 . S
C2592 C2595 1.403 . S
H2593 C2599 0.930 . S
C2594 H2580 0.930 . S
C2594 C2592 1.395 . S
C2594 C2597 1.403 . S
C2595 C2592 1.403 . S
C2595 C2596 1.524 . S
C2595 C2599 1.400 . S
C2596 H2581 0.960 . S
C2596 H2582 0.960 . S
C2596 H2583 0.960 . S
C2596 C2595 1.524 . S
C2597 C2594 1.403 . S
C2597 C2598 1.392 . S
C2597 C2601 1.495 . S
C2598 C2597 1.392 . S
C2598 C2599 1.385 . S
C2598 C2600 1.478 . S
C2599 H2593 0.930 . S
C2599 C2595 1.400 . S
C2599 C2598 1.385 . S
C2600 C2598 1.478 . S
C2600 C2602 1.381 . S
C2600 C2606 1.383 . S
C2601 C2597 1.495 . S
C2601 H2607 0.959 . S
C2601 H2608 0.961 . S
C2601 H2609 0.960 . S
C2602 C2600 1.381 . S
C2602 C2603 1.394 . S
C2602 H2610 0.930 . S
C2603 C2602 1.394 . S
C2603 C2604 1.382 . S
C2603 H2611 0.929 . S
C2604 C2603 1.382 . S
C2604 C2605 1.375 . S
C2605 H2589 0.930 . S
C2605 C2604 1.375 . S
C2605 C2606 1.379 . S
C2606 H2590 0.931 . S
C2606 C2600 1.383 . S
C2606 C2605 1.379 . S
H2607 C2601 0.959 . S
H2608 C2601 0.961 . S
H2609 C2601 0.960 . S
H2610 C2602 0.930 . S
H2611 C2603 0.929 . S
H2612 C2620 0.929 . S
H2613 C2622 0.930 . S
H2614 C2624 0.930 . S
H2615 C2627 0.929 . S
H2616 C2630 0.930 . S
H2617 C2632 0.960 . S
H2618 C2632 0.960 . S
H2619 C2632 0.960 . S
C2620 H2612 0.929 . S
C2620 C2621 1.377 . S
C2620 C2622 1.384 . S
C2621 C2620 1.377 . S
C2621 C2627 1.390 . S
C2622 H2613 0.930 . S
C2622 C2620 1.384 . S
C2622 C2623 1.372 . S
C2623 C2622 1.372 . S
C2623 C2624 1.400 . S
C2623 C2628 1.490 . S
C2624 H2614 0.930 . S
C2624 C2623 1.400 . S
C2624 C2627 1.386 . S
H2625 C2641 0.930 . S
H2626 C2642 0.931 . S
C2627 H2615 0.929 . S
C2627 C2621 1.390 . S
C2627 C2624 1.386 . S
C2628 C2623 1.490 . S
C2628 C2630 1.395 . S
C2628 C2631 1.403 . S
H2629 C2635 0.930 . S
C2630 H2616 0.930 . S
C2630 C2628 1.395 . S
C2630 C2633 1.403 . S
C2631 C2628 1.403 . S
C2631 C2632 1.524 . S
C2631 C2635 1.400 . S
C2632 H2617 0.960 . S
C2632 H2618 0.960 . S
C2632 H2619 0.960 . S
C2632 C2631 1.524 . S
C2633 C2630 1.403 . S
C2633 C2634 1.392 . S
C2633 C2637 1.495 . S
C2634 C2633 1.392 . S
C2634 C2635 1.385 . S
C2634 C2636 1.478 . S
C2635 H2629 0.930 . S
C2635 C2631 1.400 . S
C2635 C2634 1.385 . S
C2636 C2634 1.478 . S
C2636 C2638 1.381 . S
C2636 C2642 1.383 . S
C2637 C2633 1.495 . S
C2637 H2643 0.959 . S
C2637 H2644 0.961 . S
C2637 H2645 0.960 . S
C2638 C2636 1.381 . S
C2638 C2639 1.394 . S
C2638 H2646 0.930 . S
C2639 C2638 1.394 . S
C2639 C2640 1.383 . S
C2639 H2647 0.929 . S
C2640 C2639 1.383 . S
C2640 C2641 1.377 . S
C2641 H2625 0.930 . S
C2641 C2640 1.377 . S
C2641 C2642 1.379 . S
C2642 H2626 0.931 . S
C2642 C2636 1.383 . S
C2642 C2641 1.379 . S
H2643 C2637 0.959 . S
H2644 C2637 0.961 . S
H2645 C2637 0.960 . S
H2646 C2638 0.930 . S
H2647 C2639 0.929 . S
H2648 C2656 0.929 1_655 S
H2649 C2658 0.930 1_655 S
H2650 C2660 0.930 . S
H2651 C2663 0.929 . S
H2652 C2666 0.930 . S
H2653 C2668 0.960 . S
H2654 C2668 0.960 . S
H2655 C2668 0.960 . S
C2656 H2648 0.929 1_455 S
C2656 C2657 1.377 . S
C2656 C2658 1.384 . S
C2657 C2656 1.377 . S
C2657 C2663 1.390 . S
C2658 H2649 0.930 1_455 S
C2658 C2656 1.384 . S
C2658 C2659 1.372 . S
C2659 C2658 1.372 . S
C2659 C2660 1.400 . S
C2659 C2664 1.490 . S
C2660 H2650 0.930 . S
C2660 C2659 1.400 . S
C2660 C2663 1.386 . S
H2661 C2677 0.930 . S
H2662 C2678 0.931 . S
C2663 H2651 0.929 . S
C2663 C2657 1.390 . S
C2663 C2660 1.386 . S
C2664 C2659 1.490 . S
C2664 C2666 1.395 . S
C2664 C2667 1.404 1_455 S
H2665 C2671 0.930 1_655 S
C2666 H2652 0.930 . S
C2666 C2664 1.395 . S
C2666 C2669 1.403 . S
C2667 C2664 1.404 1_655 S
C2667 C2668 1.522 . S
C2667 C2671 1.400 1_655 S
C2668 H2653 0.960 . S
C2668 H2654 0.960 . S
C2668 H2655 0.960 . S
C2668 C2667 1.522 . S
C2669 C2666 1.403 . S
C2669 C2670 1.392 . S
C2669 C2673 1.495 . S
C2670 C2669 1.392 . S
C2670 C2671 1.385 . S
C2670 C2672 1.478 . S
C2671 H2665 0.930 1_455 S
C2671 C2667 1.400 1_455 S
C2671 C2670 1.385 . S
C2672 C2670 1.478 . S
C2672 C2674 1.381 . S
C2672 C2678 1.383 . S
C2673 C2669 1.495 . S
C2673 H2679 0.959 . S
C2673 H2680 0.961 . S
C2673 H2681 0.960 . S
C2674 C2672 1.381 . S
C2674 C2675 1.394 . S
C2674 H2682 0.930 . S
C2675 C2674 1.394 . S
C2675 C2676 1.383 . S
C2675 H2683 0.929 . S
C2676 C2675 1.383 . S
C2676 C2677 1.377 . S
C2677 H2661 0.930 . S
C2677 C2676 1.377 . S
C2677 C2678 1.379 . S
C2678 H2662 0.931 . S
C2678 C2672 1.383 . S
C2678 C2677 1.379 . S
H2679 C2673 0.959 . S
H2680 C2673 0.961 . S
H2681 C2673 0.960 . S
H2682 C2674 0.930 . S
H2683 C2675 0.929 . S
H2684 C2692 0.929 . S
H2685 C2694 0.930 . S
H2686 C2696 0.930 . S
H2687 C2699 0.929 . S
H2688 C2702 0.930 . S
H2689 C2704 0.960 . S
H2690 C2704 0.960 . S
H2691 C2704 0.960 . S
C2692 H2684 0.929 . S
C2692 C2693 1.377 . S
C2692 C2694 1.384 . S
C2693 C2692 1.377 . S
C2693 C2699 1.390 . S
C2694 H2685 0.930 . S
C2694 C2692 1.384 . S
C2694 C2695 1.372 . S
C2695 C2694 1.372 . S
C2695 C2696 1.400 . S
C2695 C2700 1.490 . S
C2696 H2686 0.930 . S
C2696 C2695 1.400 . S
C2696 C2699 1.386 . S
H2697 C2713 0.930 . S
H2698 C2714 0.931 . S
C2699 H2687 0.929 . S
C2699 C2693 1.390 . S
C2699 C2696 1.386 . S
C2700 C2695 1.490 . S
C2700 C2702 1.395 . S
C2700 C2703 1.403 . S
H2701 C2707 0.930 . S
C2702 H2688 0.930 . S
C2702 C2700 1.395 . S
C2702 C2705 1.403 . S
C2703 C2700 1.403 . S
C2703 C2704 1.524 . S
C2703 C2707 1.400 . S
C2704 H2689 0.960 . S
C2704 H2690 0.960 . S
C2704 H2691 0.960 . S
C2704 C2703 1.524 . S
C2705 C2702 1.403 . S
C2705 C2706 1.392 . S
C2705 C2709 1.495 . S
C2706 C2705 1.392 . S
C2706 C2707 1.385 . S
C2706 C2708 1.478 . S
C2707 H2701 0.930 . S
C2707 C2703 1.400 . S
C2707 C2706 1.385 . S
C2708 C2706 1.478 . S
C2708 C2710 1.381 . S
C2708 C2714 1.383 . S
C2709 C2705 1.495 . S
C2709 H2715 0.959 . S
C2709 H2716 0.961 . S
C2709 H2717 0.960 . S
C2710 C2708 1.381 . S
C2710 C2711 1.394 . S
C2710 H2718 0.930 . S
C2711 C2710 1.394 . S
C2711 C2712 1.383 . S
C2711 H2719 0.929 . S
C2712 C2711 1.383 . S
C2712 C2713 1.377 . S
C2713 H2697 0.930 . S
C2713 C2712 1.377 . S
C2713 C2714 1.379 . S
C2714 H2698 0.931 . S
C2714 C2708 1.383 . S
C2714 C2713 1.379 . S
H2715 C2709 0.959 . S
H2716 C2709 0.961 . S
H2717 C2709 0.960 . S
H2718 C2710 0.930 . S
H2719 C2711 0.929 . S
H2720 C2728 0.929 . S
H2721 C2730 0.930 . S
H2722 C2732 0.930 . S
H2723 C2735 0.929 . S
H2724 C2738 0.930 . S
H2725 C2740 0.960 . S
H2726 C2740 0.960 . S
H2727 C2740 0.960 . S
C2728 H2720 0.929 . S
C2728 C2729 1.377 . S
C2728 C2730 1.384 . S
C2729 C2728 1.377 . S
C2729 C2735 1.390 . S
C2730 H2721 0.930 . S
C2730 C2728 1.384 . S
C2730 C2731 1.372 . S
C2731 C2730 1.372 . S
C2731 C2732 1.400 . S
C2731 C2736 1.490 . S
C2732 H2722 0.930 . S
C2732 C2731 1.400 . S
C2732 C2735 1.386 . S
H2733 C2749 0.930 . S
H2734 C2750 0.931 . S
C2735 H2723 0.929 . S
C2735 C2729 1.390 . S
C2735 C2732 1.386 . S
C2736 C2731 1.490 . S
C2736 C2738 1.395 . S
C2736 C2739 1.403 . S
H2737 C2743 0.930 . S
C2738 H2724 0.930 . S
C2738 C2736 1.395 . S
C2738 C2741 1.403 . S
C2739 C2736 1.403 . S
C2739 C2740 1.524 . S
C2739 C2743 1.400 . S
C2740 H2725 0.960 . S
C2740 H2726 0.960 . S
C2740 H2727 0.960 . S
C2740 C2739 1.524 . S
C2741 C2738 1.403 . S
C2741 C2742 1.392 . S
C2741 C2745 1.495 . S
C2742 C2741 1.392 . S
C2742 C2743 1.385 . S
C2742 C2744 1.478 . S
C2743 H2737 0.930 . S
C2743 C2739 1.400 . S
C2743 C2742 1.385 . S
C2744 C2742 1.478 . S
C2744 C2746 1.381 . S
C2744 C2750 1.383 . S
C2745 C2741 1.495 . S
C2745 H2751 0.959 . S
C2745 H2752 0.961 . S
C2745 H2753 0.960 . S
C2746 C2744 1.381 . S
C2746 C2747 1.394 . S
C2746 H2754 0.930 . S
C2747 C2746 1.394 . S
C2747 C2748 1.383 . S
C2747 H2755 0.929 . S
C2748 C2747 1.383 . S
C2748 C2749 1.377 . S
C2749 H2733 0.930 . S
C2749 C2748 1.377 . S
C2749 C2750 1.379 . S
C2750 H2734 0.931 . S
C2750 C2744 1.383 . S
C2750 C2749 1.379 . S
H2751 C2745 0.959 . S
H2752 C2745 0.961 . S
H2753 C2745 0.960 . S
H2754 C2746 0.930 . S
H2755 C2747 0.929 . S
H2756 C2764 0.929 . S
H2757 C2766 0.930 . S
H2758 C2768 0.930 . S
H2759 C2771 0.929 . S
H2760 C2774 0.930 . S
H2761 C2776 0.960 . S
H2762 C2776 0.960 . S
H2763 C2776 0.960 . S
C2764 H2756 0.929 . S
C2764 C2765 1.377 . S
C2764 C2766 1.384 . S
C2765 C2764 1.377 . S
C2765 C2771 1.390 . S
C2766 H2757 0.930 . S
C2766 C2764 1.384 . S
C2766 C2767 1.372 . S
C2767 C2766 1.372 . S
C2767 C2768 1.400 . S
C2767 C2772 1.490 . S
C2768 H2758 0.930 . S
C2768 C2767 1.400 . S
C2768 C2771 1.386 . S
H2769 C2785 0.930 . S
H2770 C2786 0.931 . S
C2771 H2759 0.929 . S
C2771 C2765 1.390 . S
C2771 C2768 1.386 . S
C2772 C2767 1.490 . S
C2772 C2774 1.395 . S
C2772 C2775 1.403 . S
H2773 C2779 0.930 . S
C2774 H2760 0.930 . S
C2774 C2772 1.395 . S
C2774 C2777 1.403 . S
C2775 C2772 1.403 . S
C2775 C2776 1.524 . S
C2775 C2779 1.400 . S
C2776 H2761 0.960 . S
C2776 H2762 0.960 . S
C2776 H2763 0.960 . S
C2776 C2775 1.524 . S
C2777 C2774 1.403 . S
C2777 C2778 1.392 . S
C2777 C2781 1.495 . S
C2778 C2777 1.392 . S
C2778 C2779 1.385 . S
C2778 C2780 1.478 . S
C2779 H2773 0.930 . S
C2779 C2775 1.400 . S
C2779 C2778 1.385 . S
C2780 C2778 1.478 . S
C2780 C2782 1.381 . S
C2780 C2786 1.383 . S
C2781 C2777 1.495 . S
C2781 H2787 0.959 . S
C2781 H2788 0.961 . S
C2781 H2789 0.960 . S
C2782 C2780 1.381 . S
C2782 C2783 1.394 . S
C2782 H2790 0.930 . S
C2783 C2782 1.394 . S
C2783 C2784 1.383 . S
C2783 H2791 0.929 . S
C2784 C2783 1.383 . S
C2784 C2785 1.377 . S
C2785 H2769 0.930 . S
C2785 C2784 1.377 . S
C2785 C2786 1.379 . S
C2786 H2770 0.931 . S
C2786 C2780 1.383 . S
C2786 C2785 1.379 . S
H2787 C2781 0.959 . S
H2788 C2781 0.961 . S
H2789 C2781 0.960 . S
H2790 C2782 0.930 . S
H2791 C2783 0.929 . S
H2792 C2800 0.929 . S
H2793 C2802 0.930 . S
H2794 C2804 0.930 . S
H2795 C2807 0.929 . S
H2796 C2810 0.930 . S
H2797 C2812 0.960 . S
H2798 C2812 0.960 . S
H2799 C2812 0.960 . S
C2800 H2792 0.929 . S
C2800 C2801 1.377 . S
C2800 C2802 1.384 . S
C2801 C2800 1.377 . S
C2801 C2807 1.390 . S
C2802 H2793 0.930 . S
C2802 C2800 1.384 . S
C2802 C2803 1.372 . S
C2803 C2802 1.372 . S
C2803 C2804 1.400 . S
C2803 C2808 1.490 . S
C2804 H2794 0.930 . S
C2804 C2803 1.400 . S
C2804 C2807 1.386 . S
H2805 C2821 0.930 . S
H2806 C2822 0.931 . S
C2807 H2795 0.929 . S
C2807 C2801 1.390 . S
C2807 C2804 1.386 . S
C2808 C2803 1.490 . S
C2808 C2810 1.395 . S
C2808 C2811 1.403 . S
H2809 C2815 0.930 . S
C2810 H2796 0.930 . S
C2810 C2808 1.395 . S
C2810 C2813 1.403 . S
C2811 C2808 1.403 . S
C2811 C2812 1.524 . S
C2811 C2815 1.400 . S
C2812 H2797 0.960 . S
C2812 H2798 0.960 . S
C2812 H2799 0.960 . S
C2812 C2811 1.524 . S
C2813 C2810 1.403 . S
C2813 C2814 1.392 . S
C2813 C2817 1.495 . S
C2814 C2813 1.392 . S
C2814 C2815 1.385 . S
C2814 C2816 1.478 . S
C2815 H2809 0.930 . S
C2815 C2811 1.400 . S
C2815 C2814 1.385 . S
C2816 C2814 1.478 . S
C2816 C2818 1.381 . S
C2816 C2822 1.383 . S
C2817 C2813 1.495 . S
C2817 H2823 0.959 . S
C2817 H2824 0.961 . S
C2817 H2825 0.960 . S
C2818 C2816 1.381 . S
C2818 C2819 1.394 . S
C2818 H2826 0.930 . S
C2819 C2818 1.394 . S
C2819 C2820 1.383 . S
C2819 H2827 0.929 1_655 S
C2820 C2819 1.383 . S
C2820 C2821 1.377 . S
C2821 H2805 0.930 . S
C2821 C2820 1.377 . S
C2821 C2822 1.379 . S
C2822 H2806 0.931 . S
C2822 C2816 1.383 . S
C2822 C2821 1.379 . S
H2823 C2817 0.959 . S
H2824 C2817 0.961 . S
H2825 C2817 0.960 . S
H2826 C2818 0.930 . S
H2827 C2819 0.929 1_455 S
H2828 C2836 0.929 . S
H2829 C2838 0.930 . S
H2830 C2840 0.930 . S
H2831 C2843 0.929 . S
H2832 C2846 0.930 . S
H2833 C2848 0.960 . S
H2834 C2848 0.960 . S
H2835 C2848 0.960 . S
C2836 H2828 0.929 . S
C2836 C2837 1.377 . S
C2836 C2838 1.384 . S
C2837 C2836 1.377 . S
C2837 C2843 1.390 . S
C2838 H2829 0.930 . S
C2838 C2836 1.384 . S
C2838 C2839 1.372 . S
C2839 C2838 1.372 . S
C2839 C2840 1.400 . S
C2839 C2844 1.490 . S
C2840 H2830 0.930 . S
C2840 C2839 1.400 . S
C2840 C2843 1.386 . S
H2841 C2857 0.930 . S
H2842 C2858 0.931 . S
C2843 H2831 0.929 . S
C2843 C2837 1.390 . S
C2843 C2840 1.386 . S
C2844 C2839 1.490 . S
C2844 C2846 1.395 . S
C2844 C2847 1.403 . S
H2845 C2851 0.930 . S
C2846 H2832 0.930 . S
C2846 C2844 1.395 . S
C2846 C2849 1.403 . S
C2847 C2844 1.403 . S
C2847 C2848 1.524 . S
C2847 C2851 1.400 . S
C2848 H2833 0.960 . S
C2848 H2834 0.960 . S
C2848 H2835 0.960 . S
C2848 C2847 1.524 . S
C2849 C2846 1.403 . S
C2849 C2850 1.392 . S
C2849 C2853 1.495 . S
C2850 C2849 1.392 . S
C2850 C2851 1.385 . S
C2850 C2852 1.478 . S
C2851 H2845 0.930 . S
C2851 C2847 1.400 . S
C2851 C2850 1.385 . S
C2852 C2850 1.478 . S
C2852 C2854 1.381 . S
C2852 C2858 1.383 . S
C2853 C2849 1.495 . S
C2853 H2859 0.959 . S
C2853 H2860 0.961 . S
C2853 H2861 0.960 . S
C2854 C2852 1.381 . S
C2854 C2855 1.394 . S
C2854 H2862 0.930 . S
C2855 C2854 1.394 . S
C2855 C2856 1.383 . S
C2855 H2863 0.929 . S
C2856 C2855 1.383 . S
C2856 C2857 1.377 . S
C2857 H2841 0.930 . S
C2857 C2856 1.377 . S
C2857 C2858 1.379 . S
C2858 H2842 0.931 . S
C2858 C2852 1.383 . S
C2858 C2857 1.379 . S
H2859 C2853 0.959 . S
H2860 C2853 0.961 . S
H2861 C2853 0.960 . S
H2862 C2854 0.930 . S
H2863 C2855 0.929 . S
H2864 C2872 0.929 . S
H2865 C2874 0.930 . S
H2866 C2876 0.930 . S
H2867 C2879 0.929 . S
H2868 C2882 0.930 . S
H2869 C2884 0.960 . S
H2870 C2884 0.960 . S
H2871 C2884 0.960 . S
C2872 H2864 0.929 . S
C2872 C2873 1.377 . S
C2872 C2874 1.384 . S
C2873 C2872 1.377 . S
C2873 C2879 1.390 . S
C2874 H2865 0.930 . S
C2874 C2872 1.384 . S
C2874 C2875 1.372 . S
C2875 C2874 1.372 . S
C2875 C2876 1.400 . S
C2875 C2880 1.490 . S
C2876 H2866 0.930 . S
C2876 C2875 1.400 . S
C2876 C2879 1.386 . S
H2877 C2893 0.930 . S
H2878 C2894 0.931 . S
C2879 H2867 0.929 . S
C2879 C2873 1.390 . S
C2879 C2876 1.386 . S
C2880 C2875 1.490 . S
C2880 C2882 1.395 . S
C2880 C2883 1.403 . S
H2881 C2887 0.930 . S
C2882 H2868 0.930 . S
C2882 C2880 1.395 . S
C2882 C2885 1.403 . S
C2883 C2880 1.403 . S
C2883 C2884 1.524 . S
C2883 C2887 1.400 . S
C2884 H2869 0.960 . S
C2884 H2870 0.960 . S
C2884 H2871 0.960 . S
C2884 C2883 1.524 . S
C2885 C2882 1.403 . S
C2885 C2886 1.392 . S
C2885 C2889 1.495 . S
C2886 C2885 1.392 . S
C2886 C2887 1.385 . S
C2886 C2888 1.478 . S
C2887 H2881 0.930 . S
C2887 C2883 1.400 . S
C2887 C2886 1.385 . S
C2888 C2886 1.478 . S
C2888 C2890 1.381 . S
C2888 C2894 1.383 . S
C2889 C2885 1.495 . S
C2889 H2895 0.959 . S
C2889 H2896 0.961 . S
C2889 H2897 0.960 . S
C2890 C2888 1.381 . S
C2890 C2891 1.394 . S
C2890 H2898 0.930 . S
C2891 C2890 1.394 . S
C2891 C2892 1.383 . S
C2891 H2899 0.929 . S
C2892 C2891 1.383 . S
C2892 C2893 1.377 . S
C2893 H2877 0.930 . S
C2893 C2892 1.377 . S
C2893 C2894 1.379 . S
C2894 H2878 0.931 . S
C2894 C2888 1.383 . S
C2894 C2893 1.379 . S
H2895 C2889 0.959 . S
H2896 C2889 0.961 . S
H2897 C2889 0.960 . S
H2898 C2890 0.930 . S
H2899 C2891 0.929 . S
H2900 C2908 0.929 . S
H2901 C2910 0.930 . S
H2902 C2912 0.930 . S
H2903 C2915 0.929 . S
H2904 C2918 0.930 . S
H2905 C2920 0.960 . S
H2906 C2920 0.960 . S
H2907 C2920 0.960 . S
C2908 H2900 0.929 . S
C2908 C2909 1.377 . S
C2908 C2910 1.384 . S
C2909 C2908 1.377 . S
C2909 C2915 1.390 . S
C2910 H2901 0.930 . S
C2910 C2908 1.384 . S
C2910 C2911 1.372 . S
C2911 C2910 1.372 . S
C2911 C2912 1.400 . S
C2911 C2916 1.490 . S
C2912 H2902 0.930 . S
C2912 C2911 1.400 . S
C2912 C2915 1.386 . S
H2913 C2929 0.930 . S
H2914 C2930 0.931 . S
C2915 H2903 0.929 . S
C2915 C2909 1.390 . S
C2915 C2912 1.386 . S
C2916 C2911 1.490 . S
C2916 C2918 1.395 . S
C2916 C2919 1.403 . S
H2917 C2923 0.930 . S
C2918 H2904 0.930 . S
C2918 C2916 1.395 . S
C2918 C2921 1.403 . S
C2919 C2916 1.403 . S
C2919 C2920 1.524 . S
C2919 C2923 1.400 . S
C2920 H2905 0.960 . S
C2920 H2906 0.960 . S
C2920 H2907 0.960 . S
C2920 C2919 1.524 . S
C2921 C2918 1.403 . S
C2921 C2922 1.392 . S
C2921 C2925 1.495 . S
C2922 C2921 1.392 . S
C2922 C2923 1.385 . S
C2922 C2924 1.478 . S
C2923 H2917 0.930 . S
C2923 C2919 1.400 . S
C2923 C2922 1.385 . S
C2924 C2922 1.478 . S
C2924 C2926 1.381 . S
C2924 C2930 1.383 . S
C2925 C2921 1.495 . S
C2925 H2931 0.959 . S
C2925 H2932 0.961 . S
C2925 H2933 0.960 . S
C2926 C2924 1.381 . S
C2926 C2927 1.394 . S
C2926 H2934 0.930 . S
C2927 C2926 1.394 . S
C2927 C2928 1.383 . S
C2927 H2935 0.929 . S
C2928 C2927 1.383 . S
C2928 C2929 1.377 . S
C2929 H2913 0.930 . S
C2929 C2928 1.377 . S
C2929 C2930 1.379 . S
C2930 H2914 0.931 . S
C2930 C2924 1.383 . S
C2930 C2929 1.379 . S
H2931 C2925 0.959 . S
H2932 C2925 0.961 . S
H2933 C2925 0.960 . S
H2934 C2926 0.930 . S
H2935 C2927 0.929 . S
H2936 C2944 0.929 . S
H2937 C2946 0.930 . S
H2938 C2948 0.930 . S
H2939 C2951 0.929 . S
H2940 C2954 0.930 . S
H2941 C2956 0.960 . S
H2942 C2956 0.960 . S
H2943 C2956 0.960 . S
C2944 H2936 0.929 . S
C2944 C2945 1.377 . S
C2944 C2946 1.384 . S
C2945 C2944 1.377 . S
C2945 C2951 1.390 . S
C2946 H2937 0.930 . S
C2946 C2944 1.384 . S
C2946 C2947 1.372 . S
C2947 C2946 1.372 . S
C2947 C2948 1.400 . S
C2947 C2952 1.490 . S
C2948 H2938 0.930 . S
C2948 C2947 1.400 . S
C2948 C2951 1.386 . S
H2949 C2965 0.930 . S
H2950 C2966 0.931 . S
C2951 H2939 0.929 . S
C2951 C2945 1.390 . S
C2951 C2948 1.386 . S
C2952 C2947 1.490 . S
C2952 C2954 1.395 . S
C2952 C2955 1.403 . S
H2953 C2959 0.930 . S
C2954 H2940 0.930 . S
C2954 C2952 1.395 . S
C2954 C2957 1.403 . S
C2955 C2952 1.403 . S
C2955 C2956 1.524 . S
C2955 C2959 1.400 . S
C2956 H2941 0.960 . S
C2956 H2942 0.960 . S
C2956 H2943 0.960 . S
C2956 C2955 1.524 . S
C2957 C2954 1.403 . S
C2957 C2958 1.392 . S
C2957 C2961 1.495 . S
C2958 C2957 1.392 . S
C2958 C2959 1.385 . S
C2958 C2960 1.478 . S
C2959 H2953 0.930 . S
C2959 C2955 1.400 . S
C2959 C2958 1.385 . S
C2960 C2958 1.478 . S
C2960 C2962 1.381 . S
C2960 C2966 1.383 . S
C2961 C2957 1.495 . S
C2961 H2967 0.959 . S
C2961 H2968 0.961 . S
C2961 H2969 0.960 . S
C2962 C2960 1.381 . S
C2962 C2963 1.394 . S
C2962 H2970 0.930 . S
C2963 C2962 1.394 . S
C2963 C2964 1.383 . S
C2963 H2971 0.929 . S
C2964 C2963 1.383 . S
C2964 C2965 1.377 . S
C2965 H2949 0.930 . S
C2965 C2964 1.377 . S
C2965 C2966 1.379 . S
C2966 H2950 0.931 . S
C2966 C2960 1.383 . S
C2966 C2965 1.379 . S
H2967 C2961 0.959 . S
H2968 C2961 0.961 . S
H2969 C2961 0.960 . S
H2970 C2962 0.930 . S
H2971 C2963 0.929 . S
H2972 C2980 0.929 . S
H2973 C2982 0.930 . S
H2974 C2984 0.930 . S
H2975 C2987 0.929 . S
H2976 C2990 0.930 . S
H2977 C2992 0.960 . S
H2978 C2992 0.960 . S
H2979 C2992 0.960 . S
C2980 H2972 0.929 . S
C2980 C2981 1.377 . S
C2980 C2982 1.384 . S
C2981 C2980 1.377 . S
C2981 C2987 1.390 . S
C2982 H2973 0.930 . S
C2982 C2980 1.384 . S
C2982 C2983 1.372 . S
C2983 C2982 1.372 . S
C2983 C2984 1.400 . S
C2983 C2988 1.490 . S
C2984 H2974 0.930 . S
C2984 C2983 1.400 . S
C2984 C2987 1.386 . S
H2985 C3001 0.930 . S
H2986 C3002 0.931 . S
C2987 H2975 0.929 . S
C2987 C2981 1.390 . S
C2987 C2984 1.386 . S
C2988 C2983 1.490 . S
C2988 C2990 1.395 . S
C2988 C2991 1.403 . S
H2989 C2995 0.930 . S
C2990 H2976 0.930 . S
C2990 C2988 1.395 . S
C2990 C2993 1.403 . S
C2991 C2988 1.403 . S
C2991 C2992 1.524 . S
C2991 C2995 1.400 . S
C2992 H2977 0.960 . S
C2992 H2978 0.960 . S
C2992 H2979 0.960 . S
C2992 C2991 1.524 . S
C2993 C2990 1.403 . S
C2993 C2994 1.392 . S
C2993 C2997 1.495 . S
C2994 C2993 1.392 . S
C2994 C2995 1.385 . S
C2994 C2996 1.478 . S
C2995 H2989 0.930 . S
C2995 C2991 1.400 . S
C2995 C2994 1.385 . S
C2996 C2994 1.478 . S
C2996 C2998 1.381 . S
C2996 C3002 1.383 . S
C2997 C2993 1.495 . S
C2997 H3003 0.959 . S
C2997 H3004 0.961 . S
C2997 H3005 0.960 . S
C2998 C2996 1.381 . S
C2998 C2999 1.394 . S
C2998 H3006 0.930 . S
C2999 C2998 1.394 . S
C2999 C3000 1.383 . S
C2999 H3007 0.929 . S
C3000 C2999 1.383 . S
C3000 C3001 1.377 . S
C3001 H2985 0.930 . S
C3001 C3000 1.377 . S
C3001 C3002 1.379 . S
C3002 H2986 0.931 . S
C3002 C2996 1.383 . S
C3002 C3001 1.379 . S
H3003 C2997 0.959 . S
H3004 C2997 0.961 . S
H3005 C2997 0.960 . S
H3006 C2998 0.930 . S
H3007 C2999 0.929 . S
H3008 C3016 0.929 . S
H3009 C3018 0.930 . S
H3010 C3020 0.930 . S
H3011 C3023 0.929 . S
H3012 C3026 0.930 . S
H3013 C3028 0.960 . S
H3014 C3028 0.960 . S
H3015 C3028 0.960 . S
C3016 H3008 0.929 . S
C3016 C3017 1.377 . S
C3016 C3018 1.384 . S
C3017 C3016 1.377 . S
C3017 C3023 1.390 . S
C3018 H3009 0.930 . S
C3018 C3016 1.384 . S
C3018 C3019 1.372 . S
C3019 C3018 1.372 . S
C3019 C3020 1.400 . S
C3019 C3024 1.490 . S
C3020 H3010 0.930 . S
C3020 C3019 1.400 . S
C3020 C3023 1.386 . S
H3021 C3037 0.930 . S
H3022 C3038 0.931 . S
C3023 H3011 0.929 . S
C3023 C3017 1.390 . S
C3023 C3020 1.386 . S
C3024 C3019 1.490 . S
C3024 C3026 1.395 . S
C3024 C3027 1.403 . S
H3025 C3031 0.930 . S
C3026 H3012 0.930 . S
C3026 C3024 1.395 . S
C3026 C3029 1.403 . S
C3027 C3024 1.403 . S
C3027 C3028 1.524 . S
C3027 C3031 1.400 . S
C3028 H3013 0.960 . S
C3028 H3014 0.960 . S
C3028 H3015 0.960 . S
C3028 C3027 1.524 . S
C3029 C3026 1.403 . S
C3029 C3030 1.392 . S
C3029 C3033 1.495 . S
C3030 C3029 1.392 . S
C3030 C3031 1.385 . S
C3030 C3032 1.478 . S
C3031 H3025 0.930 . S
C3031 C3027 1.400 . S
C3031 C3030 1.385 . S
C3032 C3030 1.478 . S
C3032 C3034 1.381 . S
C3032 C3038 1.383 . S
C3033 C3029 1.495 . S
C3033 H3039 0.959 . S
C3033 H3040 0.961 . S
C3033 H3041 0.960 . S
C3034 C3032 1.381 . S
C3034 C3035 1.394 . S
C3034 H3042 0.930 . S
C3035 C3034 1.394 . S
C3035 C3036 1.383 . S
C3035 H3043 0.929 . S
C3036 C3035 1.383 . S
C3036 C3037 1.377 . S
C3037 H3021 0.930 . S
C3037 C3036 1.377 . S
C3037 C3038 1.379 . S
C3038 H3022 0.931 . S
C3038 C3032 1.383 . S
C3038 C3037 1.379 . S
H3039 C3033 0.959 . S
H3040 C3033 0.961 . S
H3041 C3033 0.960 . S
H3042 C3034 0.930 . S
H3043 C3035 0.929 . S
H3044 C3052 0.929 . S
H3045 C3054 0.930 . S
H3046 C3056 0.930 . S
H3047 C3059 0.929 . S
H3048 C3062 0.930 . S
H3049 C3064 0.960 . S
H3050 C3064 0.960 . S
H3051 C3064 0.960 . S
C3052 H3044 0.929 . S
C3052 C3053 1.377 . S
C3052 C3054 1.384 . S
C3053 C3052 1.377 . S
C3053 C3059 1.390 . S
C3054 H3045 0.930 . S
C3054 C3052 1.384 . S
C3054 C3055 1.372 . S
C3055 C3054 1.372 . S
C3055 C3056 1.400 . S
C3055 C3060 1.490 . S
C3056 H3046 0.930 . S
C3056 C3055 1.400 . S
C3056 C3059 1.386 . S
H3057 C3073 0.930 1_545 S
H3058 C3074 0.931 . S
C3059 H3047 0.929 . S
C3059 C3053 1.390 . S
C3059 C3056 1.386 . S
C3060 C3055 1.490 . S
C3060 C3062 1.395 . S
C3060 C3063 1.403 . S
H3061 C3067 0.930 . S
C3062 H3048 0.930 . S
C3062 C3060 1.395 . S
C3062 C3065 1.403 . S
C3063 C3060 1.403 . S
C3063 C3064 1.524 . S
C3063 C3067 1.400 . S
C3064 H3049 0.960 . S
C3064 H3050 0.960 . S
C3064 H3051 0.960 . S
C3064 C3063 1.524 . S
C3065 C3062 1.403 . S
C3065 C3066 1.392 . S
C3065 C3069 1.495 . S
C3066 C3065 1.392 . S
C3066 C3067 1.385 . S
C3066 C3068 1.478 . S
C3067 H3061 0.930 . S
C3067 C3063 1.400 . S
C3067 C3066 1.385 . S
C3068 C3066 1.478 . S
C3068 C3070 1.381 . S
C3068 C3074 1.383 . S
C3069 C3065 1.495 . S
C3069 H3075 0.959 . S
C3069 H3076 0.961 . S
C3069 H3077 0.960 . S
C3070 C3068 1.381 . S
C3070 C3071 1.394 . S
C3070 H3078 0.930 . S
C3071 C3070 1.394 . S
C3071 C3072 1.383 . S
C3071 H3079 0.929 . S
C3072 C3071 1.383 . S
C3072 C3073 1.377 . S
C3073 H3057 0.930 1_565 S
C3073 C3072 1.377 . S
C3073 C3074 1.379 . S
C3074 H3058 0.931 . S
C3074 C3068 1.383 . S
C3074 C3073 1.379 . S
H3075 C3069 0.959 . S
H3076 C3069 0.961 . S
H3077 C3069 0.960 . S
H3078 C3070 0.930 . S
H3079 C3071 0.929 . S
H3080 C3088 0.929 . S
H3081 C3090 0.930 . S
H3082 C3092 0.930 . S
H3083 C3095 0.929 . S
H3084 C3098 0.930 . S
H3085 C3100 0.960 . S
H3086 C3100 0.960 . S
H3087 C3100 0.960 . S
C3088 H3080 0.929 . S
C3088 C3089 1.377 . S
C3088 C3090 1.384 . S
C3089 C3088 1.377 . S
C3089 C3095 1.390 . S
C3090 H3081 0.930 . S
C3090 C3088 1.384 . S
C3090 C3091 1.372 . S
C3091 C3090 1.372 . S
C3091 C3092 1.400 . S
C3091 C3096 1.490 . S
C3092 H3082 0.930 . S
C3092 C3091 1.400 . S
C3092 C3095 1.386 . S
H3093 C3109 0.930 . S
H3094 C3110 0.931 . S
C3095 H3083 0.929 . S
C3095 C3089 1.390 . S
C3095 C3092 1.386 . S
C3096 C3091 1.490 . S
C3096 C3098 1.395 . S
C3096 C3099 1.403 . S
H3097 C3103 0.930 . S
C3098 H3084 0.930 . S
C3098 C3096 1.395 . S
C3098 C3101 1.403 . S
C3099 C3096 1.403 . S
C3099 C3100 1.524 . S
C3099 C3103 1.400 . S
C3100 H3085 0.960 . S
C3100 H3086 0.960 . S
C3100 H3087 0.960 . S
C3100 C3099 1.524 . S
C3101 C3098 1.403 . S
C3101 C3102 1.392 . S
C3101 C3105 1.495 . S
C3102 C3101 1.392 . S
C3102 C3103 1.385 . S
C3102 C3104 1.478 . S
C3103 H3097 0.930 . S
C3103 C3099 1.400 . S
C3103 C3102 1.385 . S
C3104 C3102 1.478 . S
C3104 C3106 1.381 . S
C3104 C3110 1.383 . S
C3105 C3101 1.495 . S
C3105 H3111 0.959 . S
C3105 H3112 0.961 . S
C3105 H3113 0.960 . S
C3106 C3104 1.381 . S
C3106 C3107 1.394 . S
C3106 H3114 0.930 . S
C3107 C3106 1.394 . S
C3107 C3108 1.383 . S
C3107 H3115 0.929 . S
C3108 C3107 1.383 . S
C3108 C3109 1.377 . S
C3109 H3093 0.930 . S
C3109 C3108 1.377 . S
C3109 C3110 1.379 . S
C3110 H3094 0.931 . S
C3110 C3104 1.383 . S
C3110 C3109 1.379 . S
H3111 C3105 0.959 . S
H3112 C3105 0.961 . S
H3113 C3105 0.960 . S
H3114 C3106 0.930 . S
H3115 C3107 0.929 . S
H3116 C3124 0.929 . S
H3117 C3126 0.930 . S
H3118 C3128 0.930 . S
H3119 C3131 0.929 . S
H3120 C3134 0.930 . S
H3121 C3136 0.960 . S
H3122 C3136 0.960 1_556 S
H3123 C3136 0.960 . S
C3124 H3116 0.929 . S
C3124 C3125 1.377 1_556 S
C3124 C3126 1.384 . S
C3125 C3124 1.377 1_554 S
C3125 C3131 1.390 . S
C3126 H3117 0.930 . S
C3126 C3124 1.384 . S
C3126 C3127 1.372 1_556 S
C3127 C3126 1.372 1_554 S
C3127 C3128 1.400 . S
C3127 C3132 1.490 . S
C3128 H3118 0.930 . S
C3128 C3127 1.400 . S
C3128 C3131 1.386 . S
H3129 C3145 0.930 . S
H3130 C3146 0.931 . S
C3131 H3119 0.929 . S
C3131 C3125 1.390 . S
C3131 C3128 1.386 . S
C3132 C3127 1.490 . S
C3132 C3134 1.395 . S
C3132 C3135 1.403 . S
H3133 C3139 0.930 . S
C3134 H3120 0.930 . S
C3134 C3132 1.395 . S
C3134 C3137 1.403 . S
C3135 C3132 1.403 . S
C3135 C3136 1.524 . S
C3135 C3139 1.400 . S
C3136 H3121 0.960 . S
C3136 H3122 0.960 1_554 S
C3136 H3123 0.960 . S
C3136 C3135 1.524 . S
C3137 C3134 1.403 . S
C3137 C3138 1.392 . S
C3137 C3141 1.495 . S
C3138 C3137 1.392 . S
C3138 C3139 1.385 . S
C3138 C3140 1.478 . S
C3139 H3133 0.930 . S
C3139 C3135 1.400 . S
C3139 C3138 1.385 . S
C3140 C3138 1.478 . S
C3140 C3142 1.381 . S
C3140 C3146 1.383 . S
C3141 C3137 1.495 . S
C3141 H3147 0.959 . S
C3141 H3148 0.961 . S
C3141 H3149 0.960 . S
C3142 C3140 1.381 . S
C3142 C3143 1.394 . S
C3142 H3150 0.930 1_554 S
C3143 C3142 1.394 . S
C3143 C3144 1.383 . S
C3143 H3151 0.929 1_554 S
C3144 C3143 1.383 . S
C3144 C3145 1.377 . S
C3145 H3129 0.930 . S
C3145 C3144 1.377 . S
C3145 C3146 1.379 . S
C3146 H3130 0.931 . S
C3146 C3140 1.383 . S
C3146 C3145 1.379 . S
H3147 C3141 0.959 . S
H3148 C3141 0.961 . S
H3149 C3141 0.960 . S
H3150 C3142 0.930 1_556 S
H3151 C3143 0.929 1_556 S
H3152 C3160 0.929 . S
H3153 C3162 0.930 . S
H3154 C3164 0.930 . S
H3155 C3167 0.929 . S
H3156 C3170 0.930 . S
H3157 C3172 0.960 . S
H3158 C3172 0.960 . S
H3159 C3172 0.960 . S
C3160 H3152 0.929 . S
C3160 C3161 1.377 . S
C3160 C3162 1.384 . S
C3161 C3160 1.377 . S
C3161 C3167 1.390 . S
C3162 H3153 0.930 . S
C3162 C3160 1.384 . S
C3162 C3163 1.372 . S
C3163 C3162 1.372 . S
C3163 C3164 1.400 . S
C3163 C3168 1.490 . S
C3164 H3154 0.930 . S
C3164 C3163 1.400 . S
C3164 C3167 1.386 . S
H3165 C3181 0.930 . S
H3166 C3182 0.931 . S
C3167 H3155 0.929 . S
C3167 C3161 1.390 . S
C3167 C3164 1.386 . S
C3168 C3163 1.490 . S
C3168 C3170 1.395 . S
C3168 C3171 1.403 . S
H3169 C3175 0.930 . S
C3170 H3156 0.930 . S
C3170 C3168 1.395 . S
C3170 C3173 1.403 . S
C3171 C3168 1.403 . S
C3171 C3172 1.524 . S
C3171 C3175 1.400 . S
C3172 H3157 0.960 . S
C3172 H3158 0.960 . S
C3172 H3159 0.960 . S
C3172 C3171 1.524 . S
C3173 C3170 1.403 . S
C3173 C3174 1.392 . S
C3173 C3177 1.495 . S
C3174 C3173 1.392 . S
C3174 C3175 1.385 . S
C3174 C3176 1.478 . S
C3175 H3169 0.930 . S
C3175 C3171 1.400 . S
C3175 C3174 1.385 . S
C3176 C3174 1.478 . S
C3176 C3178 1.381 . S
C3176 C3182 1.383 . S
C3177 C3173 1.495 . S
C3177 H3183 0.959 . S
C3177 H3184 0.961 . S
C3177 H3185 0.960 . S
C3178 C3176 1.381 . S
C3178 C3179 1.394 . S
C3178 H3186 0.930 . S
C3179 C3178 1.394 . S
C3179 C3180 1.383 . S
C3179 H3187 0.929 . S
C3180 C3179 1.383 . S
C3180 C3181 1.377 . S
C3181 H3165 0.930 . S
C3181 C3180 1.377 . S
C3181 C3182 1.379 . S
C3182 H3166 0.931 . S
C3182 C3176 1.383 . S
C3182 C3181 1.379 . S
H3183 C3177 0.959 . S
H3184 C3177 0.961 . S
H3185 C3177 0.960 . S
H3186 C3178 0.930 . S
H3187 C3179 0.929 . S
H3188 C3196 0.929 . S
H3189 C3198 0.930 . S
H3190 C3200 0.930 . S
H3191 C3203 0.929 . S
H3192 C3206 0.930 . S
H3193 C3208 0.960 . S
H3194 C3208 0.960 . S
H3195 C3208 0.960 . S
C3196 H3188 0.929 . S
C3196 C3197 1.377 . S
C3196 C3198 1.384 . S
C3197 C3196 1.377 . S
C3197 C3203 1.390 1_554 S
C3198 H3189 0.930 . S
C3198 C3196 1.384 . S
C3198 C3199 1.372 . S
C3199 C3198 1.372 . S
C3199 C3200 1.400 1_554 S
C3199 C3204 1.490 . S
C3200 H3190 0.930 . S
C3200 C3199 1.400 1_556 S
C3200 C3203 1.386 . S
H3201 C3217 0.930 . S
H3202 C3218 0.931 . S
C3203 H3191 0.929 . S
C3203 C3197 1.390 1_556 S
C3203 C3200 1.386 . S
C3204 C3199 1.490 . S
C3204 C3206 1.395 . S
C3204 C3207 1.403 1_554 S
H3205 C3211 0.930 . S
C3206 H3192 0.930 . S
C3206 C3204 1.395 . S
C3206 C3209 1.403 . S
C3207 C3204 1.403 1_556 S
C3207 C3208 1.524 . S
C3207 C3211 1.400 . S
C3208 H3193 0.960 . S
C3208 H3194 0.960 . S
C3208 H3195 0.960 . S
C3208 C3207 1.524 . S
C3209 C3206 1.403 . S
C3209 C3210 1.392 . S
C3209 C3213 1.495 . S
C3210 C3209 1.392 . S
C3210 C3211 1.385 1_554 S
C3210 C3212 1.478 . S
C3211 H3205 0.930 . S
C3211 C3207 1.400 . S
C3211 C3210 1.385 1_556 S
C3212 C3210 1.478 . S
C3212 C3214 1.381 . S
C3212 C3218 1.383 1_554 S
C3213 C3209 1.495 . S
C3213 H3219 0.959 . S
C3213 H3220 0.961 . S
C3213 H3221 0.960 . S
C3214 C3212 1.381 . S
C3214 C3215 1.394 . S
C3214 H3222 0.930 . S
C3215 C3214 1.394 . S
C3215 C3216 1.383 . S
C3215 H3223 0.929 . S
C3216 C3215 1.383 . S
C3216 C3217 1.377 1_554 S
C3217 H3201 0.930 . S
C3217 C3216 1.377 1_556 S
C3217 C3218 1.379 . S
C3218 H3202 0.931 . S
C3218 C3212 1.383 1_556 S
C3218 C3217 1.379 . S
H3219 C3213 0.959 . S
H3220 C3213 0.961 . S
H3221 C3213 0.960 . S
H3222 C3214 0.930 . S
H3223 C3215 0.929 . S
H3224 C3232 0.929 . S
H3225 C3234 0.930 . S
H3226 C3236 0.930 . S
H3227 C3239 0.929 . S
H3228 C3242 0.930 . S
H3229 C3244 0.960 . S
H3230 C3244 0.960 . S
H3231 C3244 0.960 . S
C3232 H3224 0.929 . S
C3232 C3233 1.377 . S
C3232 C3234 1.384 . S
C3233 C3232 1.377 . S
C3233 C3239 1.390 . S
C3234 H3225 0.930 . S
C3234 C3232 1.384 . S
C3234 C3235 1.372 . S
C3235 C3234 1.372 . S
C3235 C3236 1.400 . S
C3235 C3240 1.490 . S
C3236 H3226 0.930 . S
C3236 C3235 1.400 . S
C3236 C3239 1.386 . S
H3237 C3253 0.930 . S
H3238 C3254 0.931 . S
C3239 H3227 0.929 . S
C3239 C3233 1.390 . S
C3239 C3236 1.386 . S
C3240 C3235 1.490 . S
C3240 C3242 1.395 . S
C3240 C3243 1.403 . S
H3241 C3247 0.930 . S
C3242 H3228 0.930 . S
C3242 C3240 1.395 . S
C3242 C3245 1.403 . S
C3243 C3240 1.403 . S
C3243 C3244 1.524 . S
C3243 C3247 1.400 . S
C3244 H3229 0.960 . S
C3244 H3230 0.960 . S
C3244 H3231 0.960 . S
C3244 C3243 1.524 . S
C3245 C3242 1.403 . S
C3245 C3246 1.392 . S
C3245 C3249 1.495 . S
C3246 C3245 1.392 . S
C3246 C3247 1.385 . S
C3246 C3248 1.478 . S
C3247 H3241 0.930 . S
C3247 C3243 1.400 . S
C3247 C3246 1.385 . S
C3248 C3246 1.478 . S
C3248 C3250 1.381 . S
C3248 C3254 1.383 . S
C3249 C3245 1.495 . S
C3249 H3255 0.959 . S
C3249 H3256 0.961 . S
C3249 H3257 0.960 . S
C3250 C3248 1.381 . S
C3250 C3251 1.394 . S
C3250 H3258 0.930 . S
C3251 C3250 1.394 . S
C3251 C3252 1.383 . S
C3251 H3259 0.929 . S
C3252 C3251 1.383 . S
C3252 C3253 1.377 . S
C3253 H3237 0.930 . S
C3253 C3252 1.377 . S
C3253 C3254 1.379 . S
C3254 H3238 0.931 . S
C3254 C3248 1.383 . S
C3254 C3253 1.379 . S
H3255 C3249 0.959 . S
H3256 C3249 0.961 . S
H3257 C3249 0.960 . S
H3258 C3250 0.930 . S
H3259 C3251 0.929 . S
H3260 C3268 0.929 . S
H3261 C3270 0.930 . S
H3262 C3272 0.930 . S
H3263 C3275 0.929 . S
H3264 C3278 0.930 . S
H3265 C3280 0.960 . S
H3266 C3280 0.960 . S
H3267 C3280 0.960 . S
C3268 H3260 0.929 . S
C3268 C3269 1.377 . S
C3268 C3270 1.384 . S
C3269 C3268 1.377 . S
C3269 C3275 1.390 . S
C3270 H3261 0.930 . S
C3270 C3268 1.384 . S
C3270 C3271 1.372 . S
C3271 C3270 1.372 . S
C3271 C3272 1.400 . S
C3271 C3276 1.490 . S
C3272 H3262 0.930 . S
C3272 C3271 1.400 . S
C3272 C3275 1.386 . S
H3273 C3289 0.930 . S
H3274 C3290 0.931 . S
C3275 H3263 0.929 . S
C3275 C3269 1.390 . S
C3275 C3272 1.386 . S
C3276 C3271 1.490 . S
C3276 C3278 1.395 . S
C3276 C3279 1.403 . S
H3277 C3283 0.930 . S
C3278 H3264 0.930 . S
C3278 C3276 1.395 . S
C3278 C3281 1.403 . S
C3279 C3276 1.403 . S
C3279 C3280 1.524 . S
C3279 C3283 1.400 . S
C3280 H3265 0.960 . S
C3280 H3266 0.960 . S
C3280 H3267 0.960 . S
C3280 C3279 1.524 . S
C3281 C3278 1.403 . S
C3281 C3282 1.392 . S
C3281 C3285 1.495 . S
C3282 C3281 1.392 . S
C3282 C3283 1.385 . S
C3282 C3284 1.478 . S
C3283 H3277 0.930 . S
C3283 C3279 1.400 . S
C3283 C3282 1.385 . S
C3284 C3282 1.478 . S
C3284 C3286 1.381 . S
C3284 C3290 1.383 . S
C3285 C3281 1.495 . S
C3285 H3291 0.959 . S
C3285 H3292 0.961 . S
C3285 H3293 0.960 . S
C3286 C3284 1.381 . S
C3286 C3287 1.394 . S
C3286 H3294 0.930 . S
C3287 C3286 1.394 . S
C3287 C3288 1.383 . S
C3287 H3295 0.929 . S
C3288 C3287 1.383 . S
C3288 C3289 1.377 . S
C3289 H3273 0.930 . S
C3289 C3288 1.377 . S
C3289 C3290 1.379 . S
C3290 H3274 0.931 . S
C3290 C3284 1.383 . S
C3290 C3289 1.379 . S
H3291 C3285 0.959 . S
H3292 C3285 0.961 . S
H3293 C3285 0.960 . S
H3294 C3286 0.930 . S
H3295 C3287 0.929 . S
H3296 C3304 0.929 . S
H3297 C3306 0.930 . S
H3298 C3308 0.930 . S
H3299 C3311 0.929 . S
H3300 C3314 0.930 . S
H3301 C3316 0.960 . S
H3302 C3316 0.960 . S
H3303 C3316 0.960 . S
C3304 H3296 0.929 . S
C3304 C3305 1.377 . S
C3304 C3306 1.384 . S
C3305 C3304 1.377 . S
C3305 C3311 1.390 . S
C3306 H3297 0.930 . S
C3306 C3304 1.384 . S
C3306 C3307 1.372 . S
C3307 C3306 1.372 . S
C3307 C3308 1.400 . S
C3307 C3312 1.490 . S
C3308 H3298 0.930 . S
C3308 C3307 1.400 . S
C3308 C3311 1.386 . S
H3309 C3325 0.930 . S
H3310 C3326 0.931 . S
C3311 H3299 0.929 . S
C3311 C3305 1.390 . S
C3311 C3308 1.386 . S
C3312 C3307 1.490 . S
C3312 C3314 1.395 . S
C3312 C3315 1.403 . S
H3313 C3319 0.930 . S
C3314 H3300 0.930 . S
C3314 C3312 1.395 . S
C3314 C3317 1.403 . S
C3315 C3312 1.403 . S
C3315 C3316 1.524 . S
C3315 C3319 1.400 . S
C3316 H3301 0.960 . S
C3316 H3302 0.960 . S
C3316 H3303 0.960 . S
C3316 C3315 1.524 . S
C3317 C3314 1.403 . S
C3317 C3318 1.392 . S
C3317 C3321 1.495 . S
C3318 C3317 1.392 . S
C3318 C3319 1.385 . S
C3318 C3320 1.478 . S
C3319 H3313 0.930 . S
C3319 C3315 1.400 . S
C3319 C3318 1.385 . S
C3320 C3318 1.478 . S
C3320 C3322 1.381 . S
C3320 C3326 1.383 . S
C3321 C3317 1.495 . S
C3321 H3327 0.959 . S
C3321 H3328 0.961 . S
C3321 H3329 0.960 . S
C3322 C3320 1.381 . S
C3322 C3323 1.394 . S
C3322 H3330 0.930 . S
C3323 C3322 1.394 . S
C3323 C3324 1.383 . S
C3323 H3331 0.929 . S
C3324 C3323 1.383 . S
C3324 C3325 1.377 . S
C3325 H3309 0.930 . S
C3325 C3324 1.377 . S
C3325 C3326 1.379 . S
C3326 H3310 0.931 . S
C3326 C3320 1.383 . S
C3326 C3325 1.379 . S
H3327 C3321 0.959 . S
H3328 C3321 0.961 . S
H3329 C3321 0.960 . S
H3330 C3322 0.930 . S
H3331 C3323 0.929 . S
H3332 C3340 0.929 . S
H3333 C3342 0.930 . S
H3334 C3344 0.930 . S
H3335 C3347 0.929 . S
H3336 C3350 0.930 . S
H3337 C3352 0.960 . S
H3338 C3352 0.960 . S
H3339 C3352 0.960 . S
C3340 H3332 0.929 . S
C3340 C3341 1.377 . S
C3340 C3342 1.384 . S
C3341 C3340 1.377 . S
C3341 C3347 1.390 . S
C3342 H3333 0.930 . S
C3342 C3340 1.384 . S
C3342 C3343 1.372 . S
C3343 C3342 1.372 . S
C3343 C3344 1.400 . S
C3343 C3348 1.490 . S
C3344 H3334 0.930 . S
C3344 C3343 1.400 . S
C3344 C3347 1.386 . S
H3345 C3361 0.930 . S
H3346 C3362 0.931 . S
C3347 H3335 0.929 . S
C3347 C3341 1.390 . S
C3347 C3344 1.386 . S
C3348 C3343 1.490 . S
C3348 C3350 1.395 . S
C3348 C3351 1.403 . S
H3349 C3355 0.930 . S
C3350 H3336 0.930 . S
C3350 C3348 1.395 . S
C3350 C3353 1.403 . S
C3351 C3348 1.403 . S
C3351 C3352 1.524 . S
C3351 C3355 1.400 . S
C3352 H3337 0.960 . S
C3352 H3338 0.960 . S
C3352 H3339 0.960 . S
C3352 C3351 1.524 . S
C3353 C3350 1.403 . S
C3353 C3354 1.392 . S
C3353 C3357 1.495 . S
C3354 C3353 1.392 . S
C3354 C3355 1.385 . S
C3354 C3356 1.478 . S
C3355 H3349 0.930 . S
C3355 C3351 1.400 . S
C3355 C3354 1.385 . S
C3356 C3354 1.478 . S
C3356 C3358 1.381 . S
C3356 C3362 1.383 . S
C3357 C3353 1.495 . S
C3357 H3363 0.959 . S
C3357 H3364 0.961 . S
C3357 H3365 0.960 . S
C3358 C3356 1.381 . S
C3358 C3359 1.394 . S
C3358 H3366 0.930 . S
C3359 C3358 1.394 . S
C3359 C3360 1.383 . S
C3359 H3367 0.929 . S
C3360 C3359 1.383 . S
C3360 C3361 1.377 . S
C3361 H3345 0.930 . S
C3361 C3360 1.377 . S
C3361 C3362 1.379 . S
C3362 H3346 0.931 . S
C3362 C3356 1.383 . S
C3362 C3361 1.379 . S
H3363 C3357 0.959 . S
H3364 C3357 0.961 . S
H3365 C3357 0.960 . S
H3366 C3358 0.930 . S
H3367 C3359 0.929 . S
H3368 C3376 0.929 . S
H3369 C3378 0.930 . S
H3370 C3380 0.930 . S
H3371 C3383 0.929 . S
H3372 C3386 0.930 . S
H3373 C3388 0.960 . S
H3374 C3388 0.960 . S
H3375 C3388 0.960 . S
C3376 H3368 0.929 . S
C3376 C3377 1.377 1_655 S
C3376 C3378 1.384 . S
C3377 C3376 1.377 1_455 S
C3377 C3383 1.390 . S
C3378 H3369 0.930 . S
C3378 C3376 1.384 . S
C3378 C3379 1.372 1_655 S
C3379 C3378 1.372 1_455 S
C3379 C3380 1.400 . S
C3379 C3384 1.490 . S
C3380 H3370 0.930 . S
C3380 C3379 1.400 . S
C3380 C3383 1.386 . S
H3381 C3397 0.930 1_455 S
H3382 C3398 0.931 1_455 S
C3383 H3371 0.929 . S
C3383 C3377 1.390 . S
C3383 C3380 1.386 . S
C3384 C3379 1.490 . S
C3384 C3386 1.394 1_455 S
C3384 C3387 1.404 . S
H3385 C3391 0.930 . S
C3386 H3372 0.930 . S
C3386 C3384 1.394 1_655 S
C3386 C3389 1.403 . S
C3387 C3384 1.404 . S
C3387 C3388 1.524 . S
C3387 C3391 1.400 . S
C3388 H3373 0.960 . S
C3388 H3374 0.960 . S
C3388 H3375 0.960 . S
C3388 C3387 1.524 . S
C3389 C3386 1.403 . S
C3389 C3390 1.392 . S
C3389 C3393 1.495 . S
C3390 C3389 1.392 . S
C3390 C3391 1.385 1_655 S
C3390 C3392 1.478 . S
C3391 H3385 0.930 . S
C3391 C3387 1.400 . S
C3391 C3390 1.385 1_455 S
C3392 C3390 1.478 . S
C3392 C3394 1.381 . S
C3392 C3398 1.383 . S
C3393 C3389 1.495 . S
C3393 H3399 0.959 . S
C3393 H3400 0.961 . S
C3393 H3401 0.960 . S
C3394 C3392 1.381 . S
C3394 C3395 1.394 1_556 S
C3394 H3402 0.937 . S
C3395 C3394 1.394 1_554 S
C3395 C3396 1.383 1_554 S
C3395 H3403 0.929 . S
C3396 C3395 1.383 1_556 S
C3396 C3397 1.377 . S
C3397 H3381 0.930 1_655 S
C3397 C3396 1.377 . S
C3397 C3398 1.379 . S
C3398 H3382 0.931 1_655 S
C3398 C3392 1.383 . S
C3398 C3397 1.379 . S
H3399 C3393 0.959 . S
H3400 C3393 0.961 . S
H3401 C3393 0.960 . S
H3402 C3394 0.937 . S
H3403 C3395 0.929 . S
H3404 C3412 0.929 . S
H3405 C3414 0.930 . S
H3406 C3416 0.930 . S
H3407 C3419 0.929 . S
H3408 C3422 0.930 . S
H3409 C3424 0.960 . S
H3410 C3424 0.960 . S
H3411 C3424 0.960 . S
C3412 H3404 0.929 . S
C3412 C3413 1.377 . S
C3412 C3414 1.384 . S
C3413 C3412 1.377 . S
C3413 C3419 1.390 . S
C3414 H3405 0.930 . S
C3414 C3412 1.384 . S
C3414 C3415 1.372 . S
C3415 C3414 1.372 . S
C3415 C3416 1.400 . S
C3415 C3420 1.490 . S
C3416 H3406 0.930 . S
C3416 C3415 1.400 . S
C3416 C3419 1.386 . S
H3417 C3433 0.930 . S
H3418 C3434 0.931 . S
C3419 H3407 0.929 . S
C3419 C3413 1.390 . S
C3419 C3416 1.386 . S
C3420 C3415 1.490 . S
C3420 C3422 1.395 . S
C3420 C3423 1.403 . S
H3421 C3427 0.930 . S
C3422 H3408 0.930 . S
C3422 C3420 1.395 . S
C3422 C3425 1.403 . S
C3423 C3420 1.403 . S
C3423 C3424 1.524 . S
C3423 C3427 1.400 . S
C3424 H3409 0.960 . S
C3424 H3410 0.960 . S
C3424 H3411 0.960 . S
C3424 C3423 1.524 . S
C3425 C3422 1.403 . S
C3425 C3426 1.392 . S
C3425 C3429 1.495 . S
C3426 C3425 1.392 . S
C3426 C3427 1.385 . S
C3426 C3428 1.478 . S
C3427 H3421 0.930 . S
C3427 C3423 1.400 . S
C3427 C3426 1.385 . S
C3428 C3426 1.478 . S
C3428 C3430 1.381 . S
C3428 C3434 1.383 . S
C3429 C3425 1.495 . S
C3429 H3435 0.959 . S
C3429 H3436 0.961 . S
C3429 H3437 0.960 . S
C3430 C3428 1.381 . S
C3430 C3431 1.394 . S
C3430 H3438 0.930 . S
C3431 C3430 1.394 . S
C3431 C3432 1.383 . S
C3431 H3439 0.929 . S
C3432 C3431 1.383 . S
C3432 C3433 1.377 . S
C3433 H3417 0.930 . S
C3433 C3432 1.377 . S
C3433 C3434 1.379 . S
C3434 H3418 0.931 . S
C3434 C3428 1.383 . S
C3434 C3433 1.379 . S
H3435 C3429 0.959 . S
H3436 C3429 0.961 . S
H3437 C3429 0.960 . S
H3438 C3430 0.930 . S
H3439 C3431 0.929 . S
H3440 C3448 0.929 . S
H3441 C3450 0.930 . S
H3442 C3452 0.930 . S
H3443 C3455 0.929 . S
H3444 C3458 0.930 . S
H3445 C3460 0.960 . S
H3446 C3460 0.960 . S
H3447 C3460 0.960 . S
C3448 H3440 0.929 . S
C3448 C3449 1.377 . S
C3448 C3450 1.384 . S
C3449 C3448 1.377 . S
C3449 C3455 1.390 . S
C3450 H3441 0.930 . S
C3450 C3448 1.384 . S
C3450 C3451 1.372 . S
C3451 C3450 1.372 . S
C3451 C3452 1.400 . S
C3451 C3456 1.490 . S
C3452 H3442 0.930 . S
C3452 C3451 1.400 . S
C3452 C3455 1.386 . S
H3453 C3469 0.930 . S
H3454 C3470 0.931 . S
C3455 H3443 0.929 . S
C3455 C3449 1.390 . S
C3455 C3452 1.386 . S
C3456 C3451 1.490 . S
C3456 C3458 1.395 . S
C3456 C3459 1.403 . S
H3457 C3463 0.930 . S
C3458 H3444 0.930 . S
C3458 C3456 1.395 . S
C3458 C3461 1.403 . S
C3459 C3456 1.403 . S
C3459 C3460 1.524 . S
C3459 C3463 1.400 . S
C3460 H3445 0.960 . S
C3460 H3446 0.960 . S
C3460 H3447 0.960 . S
C3460 C3459 1.524 . S
C3461 C3458 1.403 . S
C3461 C3462 1.392 . S
C3461 C3465 1.495 . S
C3462 C3461 1.392 . S
C3462 C3463 1.385 . S
C3462 C3464 1.478 . S
C3463 H3457 0.930 . S
C3463 C3459 1.400 . S
C3463 C3462 1.385 . S
C3464 C3462 1.478 . S
C3464 C3466 1.381 . S
C3464 C3470 1.383 . S
C3465 C3461 1.495 . S
C3465 H3471 0.959 . S
C3465 H3472 0.961 . S
C3465 H3473 0.960 . S
C3466 C3464 1.381 . S
C3466 C3467 1.394 . S
C3466 H3474 0.930 . S
C3467 C3466 1.394 . S
C3467 C3468 1.383 . S
C3467 H3475 0.929 . S
C3468 C3467 1.383 . S
C3468 C3469 1.377 . S
C3469 H3453 0.930 . S
C3469 C3468 1.377 . S
C3469 C3470 1.379 . S
C3470 H3454 0.931 . S
C3470 C3464 1.383 . S
C3470 C3469 1.379 . S
H3471 C3465 0.959 . S
H3472 C3465 0.961 . S
H3473 C3465 0.960 . S
H3474 C3466 0.930 . S
H3475 C3467 0.929 . S
H3476 C3484 0.929 . S
H3477 C3486 0.930 . S
H3478 C3488 0.930 . S
H3479 C3491 0.929 . S
H3480 C3494 0.930 . S
H3481 C3496 0.960 . S
H3482 C3496 0.960 . S
H3483 C3496 0.960 . S
C3484 H3476 0.929 . S
C3484 C3485 1.377 . S
C3484 C3486 1.384 . S
C3485 C3484 1.377 . S
C3485 C3491 1.390 . S
C3486 H3477 0.930 . S
C3486 C3484 1.384 . S
C3486 C3487 1.372 . S
C3487 C3486 1.372 . S
C3487 C3488 1.400 . S
C3487 C3492 1.490 . S
C3488 H3478 0.930 . S
C3488 C3487 1.400 . S
C3488 C3491 1.386 . S
H3489 C3505 0.930 . S
H3490 C3506 0.931 . S
C3491 H3479 0.929 . S
C3491 C3485 1.390 . S
C3491 C3488 1.386 . S
C3492 C3487 1.490 . S
C3492 C3494 1.395 . S
C3492 C3495 1.403 . S
H3493 C3499 0.930 . S
C3494 H3480 0.930 . S
C3494 C3492 1.395 . S
C3494 C3497 1.403 . S
C3495 C3492 1.403 . S
C3495 C3496 1.524 . S
C3495 C3499 1.400 . S
C3496 H3481 0.960 . S
C3496 H3482 0.960 . S
C3496 H3483 0.960 . S
C3496 C3495 1.524 . S
C3497 C3494 1.403 . S
C3497 C3498 1.392 . S
C3497 C3501 1.495 . S
C3498 C3497 1.392 . S
C3498 C3499 1.385 . S
C3498 C3500 1.478 . S
C3499 H3493 0.930 . S
C3499 C3495 1.400 . S
C3499 C3498 1.385 . S
C3500 C3498 1.478 . S
C3500 C3502 1.381 . S
C3500 C3506 1.383 . S
C3501 C3497 1.495 . S
C3501 H3507 0.959 . S
C3501 H3508 0.961 . S
C3501 H3509 0.960 . S
C3502 C3500 1.381 . S
C3502 C3503 1.394 . S
C3502 H3510 0.930 . S
C3503 C3502 1.394 . S
C3503 C3504 1.383 . S
C3503 H3511 0.929 . S
C3504 C3503 1.383 . S
C3504 C3505 1.377 . S
C3505 H3489 0.930 . S
C3505 C3504 1.377 . S
C3505 C3506 1.379 . S
C3506 H3490 0.931 . S
C3506 C3500 1.383 . S
C3506 C3505 1.379 . S
H3507 C3501 0.959 . S
H3508 C3501 0.961 . S
H3509 C3501 0.960 . S
H3510 C3502 0.930 . S
H3511 C3503 0.929 . S
H3512 C3520 0.929 . S
H3513 C3522 0.930 . S
H3514 C3524 0.930 . S
H3515 C3527 0.929 . S
H3516 C3530 0.930 . S
H3517 C3532 0.960 . S
H3518 C3532 0.960 . S
H3519 C3532 0.960 . S
C3520 H3512 0.929 . S
C3520 C3521 1.377 1_655 S
C3520 C3522 1.384 . S
C3521 C3520 1.377 1_455 S
C3521 C3527 1.390 . S
C3522 H3513 0.930 . S
C3522 C3520 1.384 . S
C3522 C3523 1.372 1_655 S
C3523 C3522 1.372 1_455 S
C3523 C3524 1.400 . S
C3523 C3528 1.488 1_455 S
C3524 H3514 0.930 . S
C3524 C3523 1.400 . S
C3524 C3527 1.386 . S
H3525 C3541 0.930 . S
H3526 C3542 0.931 . S
C3527 H3515 0.929 . S
C3527 C3521 1.390 . S
C3527 C3524 1.386 . S
C3528 C3523 1.488 1_655 S
C3528 C3530 1.408 . S
C3528 C3531 1.392 1_655 S
H3529 C3535 0.930 . S
C3530 H3516 0.930 . S
C3530 C3528 1.408 . S
C3530 C3533 1.403 . S
C3531 C3528 1.392 1_455 S
C3531 C3532 1.524 . S
C3531 C3535 1.400 . S
C3532 H3517 0.960 . S
C3532 H3518 0.960 . S
C3532 H3519 0.960 . S
C3532 C3531 1.524 . S
C3533 C3530 1.403 . S
C3533 C3534 1.392 . S
C3533 C3537 1.495 . S
C3534 C3533 1.392 . S
C3534 C3535 1.385 1_655 S
C3534 C3536 1.478 . S
C3535 H3529 0.930 . S
C3535 C3531 1.400 . S
C3535 C3534 1.385 1_455 S
C3536 C3534 1.478 . S
C3536 C3538 1.381 . S
C3536 C3542 1.383 1_655 S
C3537 C3533 1.495 . S
C3537 H3543 0.959 . S
C3537 H3544 0.961 . S
C3537 H3545 0.960 . S
C3538 C3536 1.381 . S
C3538 C3539 1.394 . S
C3538 H3546 0.930 . S
C3539 C3538 1.394 . S
C3539 C3540 1.383 . S
C3539 H3547 0.929 . S
C3540 C3539 1.383 . S
C3540 C3541 1.377 1_655 S
C3541 H3525 0.930 . S
C3541 C3540 1.377 1_455 S
C3541 C3542 1.379 . S
C3542 H3526 0.931 . S
C3542 C3536 1.383 1_455 S
C3542 C3541 1.379 . S
H3543 C3537 0.959 . S
H3544 C3537 0.961 . S
H3545 C3537 0.960 . S
H3546 C3538 0.930 . S
H3547 C3539 0.929 . S
H3548 C3556 0.929 . S
H3549 C3558 0.930 . S
H3550 C3560 0.930 . S
H3551 C3563 0.929 . S
H3552 C3566 0.930 . S
H3553 C3568 0.960 . S
H3554 C3568 0.960 . S
H3555 C3568 0.960 . S
C3556 H3548 0.929 . S
C3556 C3557 1.377 . S
C3556 C3558 1.384 . S
C3557 C3556 1.377 . S
C3557 C3563 1.390 . S
C3558 H3549 0.930 . S
C3558 C3556 1.384 . S
C3558 C3559 1.372 . S
C3559 C3558 1.372 . S
C3559 C3560 1.400 . S
C3559 C3564 1.490 . S
C3560 H3550 0.930 . S
C3560 C3559 1.400 . S
C3560 C3563 1.386 . S
H3561 C3577 0.930 . S
H3562 C3578 0.931 . S
C3563 H3551 0.929 . S
C3563 C3557 1.390 . S
C3563 C3560 1.386 . S
C3564 C3559 1.490 . S
C3564 C3566 1.395 . S
C3564 C3567 1.403 . S
H3565 C3571 0.930 . S
C3566 H3552 0.930 . S
C3566 C3564 1.395 . S
C3566 C3569 1.403 . S
C3567 C3564 1.403 . S
C3567 C3568 1.524 . S
C3567 C3571 1.400 . S
C3568 H3553 0.960 . S
C3568 H3554 0.960 . S
C3568 H3555 0.960 . S
C3568 C3567 1.524 . S
C3569 C3566 1.403 . S
C3569 C3570 1.392 . S
C3569 C3573 1.495 . S
C3570 C3569 1.392 . S
C3570 C3571 1.385 . S
C3570 C3572 1.478 . S
C3571 H3565 0.930 . S
C3571 C3567 1.400 . S
C3571 C3570 1.385 . S
C3572 C3570 1.478 . S
C3572 C3574 1.381 . S
C3572 C3578 1.383 . S
C3573 C3569 1.495 . S
C3573 H3579 0.959 . S
C3573 H3580 0.961 . S
C3573 H3581 0.960 . S
C3574 C3572 1.381 . S
C3574 C3575 1.394 . S
C3574 H3582 0.930 . S
C3575 C3574 1.394 . S
C3575 C3576 1.383 . S
C3575 H3583 0.929 . S
C3576 C3575 1.383 . S
C3576 C3577 1.377 . S
C3577 H3561 0.930 . S
C3577 C3576 1.377 . S
C3577 C3578 1.379 . S
C3578 H3562 0.931 . S
C3578 C3572 1.383 . S
C3578 C3577 1.379 . S
H3579 C3573 0.959 . S
H3580 C3573 0.961 . S
H3581 C3573 0.960 . S
H3582 C3574 0.930 . S
H3583 C3575 0.929 . S
H3584 C3592 0.929 . S
H3585 C3594 0.930 . S
H3586 C3596 0.930 . S
H3587 C3599 0.929 . S
H3588 C3602 0.930 . S
H3589 C3604 0.960 . S
H3590 C3604 0.960 . S
H3591 C3604 0.960 . S
C3592 H3584 0.929 . S
C3592 C3593 1.377 . S
C3592 C3594 1.384 . S
C3593 C3592 1.377 . S
C3593 C3599 1.390 . S
C3594 H3585 0.930 . S
C3594 C3592 1.384 . S
C3594 C3595 1.372 . S
C3595 C3594 1.372 . S
C3595 C3596 1.400 . S
C3595 C3600 1.490 . S
C3596 H3586 0.930 . S
C3596 C3595 1.400 . S
C3596 C3599 1.386 . S
H3597 C3613 0.930 . S
H3598 C3614 0.931 . S
C3599 H3587 0.929 . S
C3599 C3593 1.390 . S
C3599 C3596 1.386 . S
C3600 C3595 1.490 . S
C3600 C3602 1.395 . S
C3600 C3603 1.403 . S
H3601 C3607 0.930 . S
C3602 H3588 0.930 . S
C3602 C3600 1.395 . S
C3602 C3605 1.403 . S
C3603 C3600 1.403 . S
C3603 C3604 1.524 . S
C3603 C3607 1.400 . S
C3604 H3589 0.960 . S
C3604 H3590 0.960 . S
C3604 H3591 0.960 . S
C3604 C3603 1.524 . S
C3605 C3602 1.403 . S
C3605 C3606 1.392 . S
C3605 C3609 1.495 . S
C3606 C3605 1.392 . S
C3606 C3607 1.385 . S
C3606 C3608 1.478 . S
C3607 H3601 0.930 . S
C3607 C3603 1.400 . S
C3607 C3606 1.385 . S
C3608 C3606 1.478 . S
C3608 C3610 1.381 . S
C3608 C3614 1.383 . S
C3609 C3605 1.495 . S
C3609 H3615 0.959 . S
C3609 H3616 0.961 . S
C3609 H3617 0.960 . S
C3610 C3608 1.381 . S
C3610 C3611 1.394 . S
C3610 H3618 0.930 . S
C3611 C3610 1.394 . S
C3611 C3612 1.383 . S
C3611 H3619 0.929 . S
C3612 C3611 1.383 . S
C3612 C3613 1.377 . S
C3613 H3597 0.930 . S
C3613 C3612 1.377 . S
C3613 C3614 1.379 . S
C3614 H3598 0.931 . S
C3614 C3608 1.383 . S
C3614 C3613 1.379 . S
H3615 C3609 0.959 . S
H3616 C3609 0.961 . S
H3617 C3609 0.960 . S
H3618 C3610 0.930 . S
H3619 C3611 0.929 . S
H3620 C3628 0.929 . S
H3621 C3630 0.930 . S
H3622 C3632 0.930 . S
H3623 C3635 0.929 . S
H3624 C3638 0.930 . S
H3625 C3640 0.960 . S
H3626 C3640 0.960 . S
H3627 C3640 0.960 . S
C3628 H3620 0.929 . S
C3628 C3629 1.377 . S
C3628 C3630 1.384 . S
C3629 C3628 1.377 . S
C3629 C3635 1.390 . S
C3630 H3621 0.930 . S
C3630 C3628 1.384 . S
C3630 C3631 1.372 . S
C3631 C3630 1.372 . S
C3631 C3632 1.400 . S
C3631 C3636 1.490 . S
C3632 H3622 0.930 . S
C3632 C3631 1.400 . S
C3632 C3635 1.386 . S
H3633 C3649 0.930 . S
H3634 C3650 0.931 . S
C3635 H3623 0.929 . S
C3635 C3629 1.390 . S
C3635 C3632 1.386 . S
C3636 C3631 1.490 . S
C3636 C3638 1.395 . S
C3636 C3639 1.403 . S
H3637 C3643 0.930 . S
C3638 H3624 0.930 . S
C3638 C3636 1.395 . S
C3638 C3641 1.403 . S
C3639 C3636 1.403 . S
C3639 C3640 1.524 . S
C3639 C3643 1.400 . S
C3640 H3625 0.960 . S
C3640 H3626 0.960 . S
C3640 H3627 0.960 . S
C3640 C3639 1.524 . S
C3641 C3638 1.403 . S
C3641 C3642 1.392 . S
C3641 C3645 1.495 . S
C3642 C3641 1.392 . S
C3642 C3643 1.385 . S
C3642 C3644 1.478 . S
C3643 H3637 0.930 . S
C3643 C3639 1.400 . S
C3643 C3642 1.385 . S
C3644 C3642 1.478 . S
C3644 C3646 1.381 . S
C3644 C3650 1.383 . S
C3645 C3641 1.495 . S
C3645 H3651 0.959 . S
C3645 H3652 0.961 . S
C3645 H3653 0.960 . S
C3646 C3644 1.381 . S
C3646 C3647 1.394 . S
C3646 H3654 0.930 . S
C3647 C3646 1.394 . S
C3647 C3648 1.383 . S
C3647 H3655 0.929 . S
C3648 C3647 1.383 . S
C3648 C3649 1.377 . S
C3649 H3633 0.930 . S
C3649 C3648 1.377 . S
C3649 C3650 1.379 . S
C3650 H3634 0.931 . S
C3650 C3644 1.383 . S
C3650 C3649 1.379 . S
H3651 C3645 0.959 . S
H3652 C3645 0.961 . S
H3653 C3645 0.960 . S
H3654 C3646 0.930 . S
H3655 C3647 0.929 . S
H3656 C3664 0.929 . S
H3657 C3666 0.930 . S
H3658 C3668 0.930 . S
H3659 C3671 0.929 . S
H3660 C3674 0.930 . S
H3661 C3676 0.960 . S
H3662 C3676 0.960 . S
H3663 C3676 0.960 . S
C3664 H3656 0.929 . S
C3664 C3665 1.377 . S
C3664 C3666 1.384 . S
C3665 C3664 1.377 . S
C3665 C3671 1.390 . S
C3666 H3657 0.930 . S
C3666 C3664 1.384 . S
C3666 C3667 1.372 . S
C3667 C3666 1.372 . S
C3667 C3668 1.400 . S
C3667 C3672 1.490 . S
C3668 H3658 0.930 . S
C3668 C3667 1.400 . S
C3668 C3671 1.386 . S
H3669 C3685 0.930 . S
H3670 C3686 0.931 . S
C3671 H3659 0.929 . S
C3671 C3665 1.390 . S
C3671 C3668 1.386 . S
C3672 C3667 1.490 . S
C3672 C3674 1.395 . S
C3672 C3675 1.403 . S
H3673 C3679 0.930 . S
C3674 H3660 0.930 . S
C3674 C3672 1.395 . S
C3674 C3677 1.403 . S
C3675 C3672 1.403 . S
C3675 C3676 1.524 . S
C3675 C3679 1.400 . S
C3676 H3661 0.960 . S
C3676 H3662 0.960 . S
C3676 H3663 0.960 . S
C3676 C3675 1.524 . S
C3677 C3674 1.403 . S
C3677 C3678 1.392 . S
C3677 C3681 1.495 . S
C3678 C3677 1.392 . S
C3678 C3679 1.385 . S
C3678 C3680 1.478 . S
C3679 H3673 0.930 . S
C3679 C3675 1.400 . S
C3679 C3678 1.385 . S
C3680 C3678 1.478 . S
C3680 C3682 1.381 . S
C3680 C3686 1.383 . S
C3681 C3677 1.495 . S
C3681 H3687 0.959 . S
C3681 H3688 0.961 . S
C3681 H3689 0.960 . S
C3682 C3680 1.381 . S
C3682 C3683 1.394 . S
C3682 H3690 0.930 . S
C3683 C3682 1.394 . S
C3683 C3684 1.383 . S
C3683 H3691 0.929 . S
C3684 C3683 1.383 . S
C3684 C3685 1.377 . S
C3685 H3669 0.930 . S
C3685 C3684 1.377 . S
C3685 C3686 1.379 . S
C3686 H3670 0.931 . S
C3686 C3680 1.383 . S
C3686 C3685 1.379 . S
H3687 C3681 0.959 . S
H3688 C3681 0.961 . S
H3689 C3681 0.960 . S
H3690 C3682 0.930 . S
H3691 C3683 0.929 . S
H3692 C3700 0.929 . S
H3693 C3702 0.930 . S
H3694 C3704 0.930 . S
H3695 C3707 0.929 . S
H3696 C3710 0.930 . S
H3697 C3712 0.960 . S
H3698 C3712 0.960 . S
H3699 C3712 0.960 . S
C3700 H3692 0.929 . S
C3700 C3701 1.377 . S
C3700 C3702 1.384 . S
C3701 C3700 1.377 . S
C3701 C3707 1.390 . S
C3702 H3693 0.930 . S
C3702 C3700 1.384 . S
C3702 C3703 1.372 . S
C3703 C3702 1.372 . S
C3703 C3704 1.400 . S
C3703 C3708 1.490 . S
C3704 H3694 0.930 . S
C3704 C3703 1.400 . S
C3704 C3707 1.386 . S
H3705 C3721 0.930 . S
H3706 C3722 0.931 . S
C3707 H3695 0.929 . S
C3707 C3701 1.390 . S
C3707 C3704 1.386 . S
C3708 C3703 1.490 . S
C3708 C3710 1.395 . S
C3708 C3711 1.403 . S
H3709 C3715 0.930 . S
C3710 H3696 0.930 . S
C3710 C3708 1.395 . S
C3710 C3713 1.403 . S
C3711 C3708 1.403 . S
C3711 C3712 1.524 . S
C3711 C3715 1.400 . S
C3712 H3697 0.960 . S
C3712 H3698 0.960 . S
C3712 H3699 0.960 . S
C3712 C3711 1.524 . S
C3713 C3710 1.403 . S
C3713 C3714 1.392 . S
C3713 C3717 1.495 . S
C3714 C3713 1.392 . S
C3714 C3715 1.385 . S
C3714 C3716 1.478 . S
C3715 H3709 0.930 . S
C3715 C3711 1.400 . S
C3715 C3714 1.385 . S
C3716 C3714 1.478 . S
C3716 C3718 1.381 . S
C3716 C3722 1.383 . S
C3717 C3713 1.495 . S
C3717 H3723 0.959 . S
C3717 H3724 0.961 . S
C3717 H3725 0.960 . S
C3718 C3716 1.381 . S
C3718 C3719 1.394 . S
C3718 H3726 0.930 . S
C3719 C3718 1.394 . S
C3719 C3720 1.383 . S
C3719 H3727 0.929 . S
C3720 C3719 1.383 . S
C3720 C3721 1.377 . S
C3721 H3705 0.930 . S
C3721 C3720 1.377 . S
C3721 C3722 1.379 . S
C3722 H3706 0.931 . S
C3722 C3716 1.383 . S
C3722 C3721 1.379 . S
H3723 C3717 0.959 . S
H3724 C3717 0.961 . S
H3725 C3717 0.960 . S
H3726 C3718 0.930 . S
H3727 C3719 0.929 . S
H3728 C3736 0.929 . S
H3729 C3738 0.930 . S
H3730 C3740 0.930 . S
H3731 C3743 0.929 . S
H3732 C3746 0.930 . S
H3733 C3748 0.960 . S
H3734 C3748 0.960 . S
H3735 C3748 0.960 . S
C3736 H3728 0.929 . S
C3736 C3737 1.377 . S
C3736 C3738 1.384 . S
C3737 C3736 1.377 . S
C3737 C3743 1.390 . S
C3738 H3729 0.930 . S
C3738 C3736 1.384 . S
C3738 C3739 1.372 . S
C3739 C3738 1.372 . S
C3739 C3740 1.400 . S
C3739 C3744 1.490 . S
C3740 H3730 0.930 . S
C3740 C3739 1.400 . S
C3740 C3743 1.386 . S
H3741 C3757 0.930 . S
H3742 C3758 0.931 . S
C3743 H3731 0.929 . S
C3743 C3737 1.390 . S
C3743 C3740 1.386 . S
C3744 C3739 1.490 . S
C3744 C3746 1.395 . S
C3744 C3747 1.403 . S
H3745 C3751 0.930 . S
C3746 H3732 0.930 . S
C3746 C3744 1.395 . S
C3746 C3749 1.403 . S
C3747 C3744 1.403 . S
C3747 C3748 1.524 . S
C3747 C3751 1.400 . S
C3748 H3733 0.960 . S
C3748 H3734 0.960 . S
C3748 H3735 0.960 . S
C3748 C3747 1.524 . S
C3749 C3746 1.403 . S
C3749 C3750 1.392 . S
C3749 C3753 1.495 . S
C3750 C3749 1.392 . S
C3750 C3751 1.385 . S
C3750 C3752 1.478 . S
C3751 H3745 0.930 . S
C3751 C3747 1.400 . S
C3751 C3750 1.385 . S
C3752 C3750 1.478 . S
C3752 C3754 1.381 . S
C3752 C3758 1.383 . S
C3753 C3749 1.495 . S
C3753 H3759 0.959 . S
C3753 H3760 0.961 . S
C3753 H3761 0.960 . S
C3754 C3752 1.381 . S
C3754 C3755 1.394 . S
C3754 H3762 0.930 . S
C3755 C3754 1.394 . S
C3755 C3756 1.383 . S
C3755 H3763 0.929 . S
C3756 C3755 1.383 . S
C3756 C3757 1.377 . S
C3757 H3741 0.930 . S
C3757 C3756 1.377 . S
C3757 C3758 1.379 . S
C3758 H3742 0.931 . S
C3758 C3752 1.383 . S
C3758 C3757 1.379 . S
H3759 C3753 0.959 . S
H3760 C3753 0.961 . S
H3761 C3753 0.960 . S
H3762 C3754 0.930 . S
H3763 C3755 0.929 . S
H3764 C3772 0.929 . S
H3765 C3774 0.930 . S
H3766 C3776 0.930 . S
H3767 C3779 0.929 . S
H3768 C3782 0.930 . S
H3769 C3784 0.960 . S
H3770 C3784 0.960 . S
H3771 C3784 0.960 . S
C3772 H3764 0.929 . S
C3772 C3773 1.377 . S
C3772 C3774 1.384 . S
C3773 C3772 1.377 . S
C3773 C3779 1.390 . S
C3774 H3765 0.930 . S
C3774 C3772 1.384 . S
C3774 C3775 1.372 . S
C3775 C3774 1.372 . S
C3775 C3776 1.400 . S
C3775 C3780 1.490 . S
C3776 H3766 0.930 . S
C3776 C3775 1.400 . S
C3776 C3779 1.386 . S
H3777 C3793 0.930 . S
H3778 C3794 0.931 . S
C3779 H3767 0.929 . S
C3779 C3773 1.390 . S
C3779 C3776 1.386 . S
C3780 C3775 1.490 . S
C3780 C3782 1.395 . S
C3780 C3783 1.403 . S
H3781 C3787 0.930 . S
C3782 H3768 0.930 . S
C3782 C3780 1.395 . S
C3782 C3785 1.403 . S
C3783 C3780 1.403 . S
C3783 C3784 1.524 . S
C3783 C3787 1.400 . S
C3784 H3769 0.960 . S
C3784 H3770 0.960 . S
C3784 H3771 0.960 . S
C3784 C3783 1.524 . S
C3785 C3782 1.403 . S
C3785 C3786 1.392 . S
C3785 C3789 1.495 . S
C3786 C3785 1.392 . S
C3786 C3787 1.385 . S
C3786 C3788 1.478 . S
C3787 H3781 0.930 . S
C3787 C3783 1.400 . S
C3787 C3786 1.385 . S
C3788 C3786 1.478 . S
C3788 C3790 1.381 . S
C3788 C3794 1.383 . S
C3789 C3785 1.495 . S
C3789 H3795 0.959 . S
C3789 H3796 0.961 . S
C3789 H3797 0.960 . S
C3790 C3788 1.381 . S
C3790 C3791 1.394 . S
C3790 H3798 0.930 . S
C3791 C3790 1.394 . S
C3791 C3792 1.383 . S
C3791 H3799 0.929 . S
C3792 C3791 1.383 . S
C3792 C3793 1.377 . S
C3793 H3777 0.930 . S
C3793 C3792 1.377 . S
C3793 C3794 1.379 . S
C3794 H3778 0.931 . S
C3794 C3788 1.383 . S
C3794 C3793 1.379 . S
H3795 C3789 0.959 . S
H3796 C3789 0.961 . S
H3797 C3789 0.960 . S
H3798 C3790 0.930 . S
H3799 C3791 0.929 . S
H3800 C3808 0.929 . S
H3801 C3810 0.930 . S
H3802 C3812 0.930 . S
H3803 C3815 0.929 . S
H3804 C3818 0.930 . S
H3805 C3820 0.960 . S
H3806 C3820 0.960 . S
H3807 C3820 0.960 . S
C3808 H3800 0.929 . S
C3808 C3809 1.377 . S
C3808 C3810 1.384 . S
C3809 C3808 1.377 . S
C3809 C3815 1.390 . S
C3810 H3801 0.930 . S
C3810 C3808 1.384 . S
C3810 C3811 1.372 . S
C3811 C3810 1.372 . S
C3811 C3812 1.400 . S
C3811 C3816 1.490 . S
C3812 H3802 0.930 . S
C3812 C3811 1.400 . S
C3812 C3815 1.386 . S
H3813 C3829 0.930 . S
H3814 C3830 0.931 . S
C3815 H3803 0.929 . S
C3815 C3809 1.390 . S
C3815 C3812 1.386 . S
C3816 C3811 1.490 . S
C3816 C3818 1.395 . S
C3816 C3819 1.403 . S
H3817 C3823 0.930 . S
C3818 H3804 0.930 . S
C3818 C3816 1.395 . S
C3818 C3821 1.403 . S
C3819 C3816 1.403 . S
C3819 C3820 1.524 . S
C3819 C3823 1.400 . S
C3820 H3805 0.960 . S
C3820 H3806 0.960 . S
C3820 H3807 0.960 . S
C3820 C3819 1.524 . S
C3821 C3818 1.403 . S
C3821 C3822 1.392 . S
C3821 C3825 1.495 . S
C3822 C3821 1.392 . S
C3822 C3823 1.385 . S
C3822 C3824 1.478 . S
C3823 H3817 0.930 . S
C3823 C3819 1.400 . S
C3823 C3822 1.385 . S
C3824 C3822 1.478 . S
C3824 C3826 1.381 . S
C3824 C3830 1.383 . S
C3825 C3821 1.495 . S
C3825 H3831 0.959 . S
C3825 H3832 0.961 . S
C3825 H3833 0.960 . S
C3826 C3824 1.381 . S
C3826 C3827 1.394 . S
C3826 H3834 0.930 . S
C3827 C3826 1.394 . S
C3827 C3828 1.383 . S
C3827 H3835 0.929 . S
C3828 C3827 1.383 . S
C3828 C3829 1.377 . S
C3829 H3813 0.930 . S
C3829 C3828 1.377 . S
C3829 C3830 1.379 . S
C3830 H3814 0.931 . S
C3830 C3824 1.383 . S
C3830 C3829 1.379 . S
H3831 C3825 0.959 . S
H3832 C3825 0.961 . S
H3833 C3825 0.960 . S
H3834 C3826 0.930 . S
H3835 C3827 0.929 . S
H3836 C3844 0.929 . S
H3837 C3846 0.930 . S
H3838 C3848 0.930 . S
H3839 C3851 0.929 . S
H3840 C3854 0.930 . S
H3841 C3856 0.960 . S
H3842 C3856 0.960 . S
H3843 C3856 0.960 . S
C3844 H3836 0.929 . S
C3844 C3845 1.377 . S
C3844 C3846 1.384 . S
C3845 C3844 1.377 . S
C3845 C3851 1.390 . S
C3846 H3837 0.930 . S
C3846 C3844 1.384 . S
C3846 C3847 1.372 . S
C3847 C3846 1.372 . S
C3847 C3848 1.400 . S
C3847 C3852 1.490 . S
C3848 H3838 0.930 . S
C3848 C3847 1.400 . S
C3848 C3851 1.386 . S
H3849 C3865 0.930 . S
H3850 C3866 0.931 . S
C3851 H3839 0.929 . S
C3851 C3845 1.390 . S
C3851 C3848 1.386 . S
C3852 C3847 1.490 . S
C3852 C3854 1.395 . S
C3852 C3855 1.403 . S
H3853 C3859 0.930 . S
C3854 H3840 0.930 . S
C3854 C3852 1.395 . S
C3854 C3857 1.403 . S
C3855 C3852 1.403 . S
C3855 C3856 1.524 . S
C3855 C3859 1.400 . S
C3856 H3841 0.960 . S
C3856 H3842 0.960 . S
C3856 H3843 0.960 . S
C3856 C3855 1.524 . S
C3857 C3854 1.403 . S
C3857 C3858 1.392 . S
C3857 C3861 1.495 . S
C3858 C3857 1.392 . S
C3858 C3859 1.385 . S
C3858 C3860 1.478 . S
C3859 H3853 0.930 . S
C3859 C3855 1.400 . S
C3859 C3858 1.385 . S
C3860 C3858 1.478 . S
C3860 C3862 1.381 . S
C3860 C3866 1.383 . S
C3861 C3857 1.495 . S
C3861 H3867 0.959 . S
C3861 H3868 0.961 . S
C3861 H3869 0.960 . S
C3862 C3860 1.381 . S
C3862 C3863 1.394 . S
C3862 H3870 0.930 . S
C3863 C3862 1.394 . S
C3863 C3864 1.383 . S
C3863 H3871 0.929 . S
C3864 C3863 1.383 . S
C3864 C3865 1.377 . S
C3865 H3849 0.930 . S
C3865 C3864 1.377 . S
C3865 C3866 1.379 . S
C3866 H3850 0.931 . S
C3866 C3860 1.383 . S
C3866 C3865 1.379 . S
H3867 C3861 0.959 . S
H3868 C3861 0.961 . S
H3869 C3861 0.960 . S
H3870 C3862 0.930 . S
H3871 C3863 0.929 . S
H3872 C3880 0.929 . S
H3873 C3882 0.930 . S
H3874 C3884 0.930 . S
H3875 C3887 0.929 . S
H3876 C3890 0.930 . S
H3877 C3892 0.960 . S
H3878 C3892 0.960 . S
H3879 C3892 0.960 . S
C3880 H3872 0.929 . S
C3880 C3881 1.377 . S
C3880 C3882 1.384 . S
C3881 C3880 1.377 . S
C3881 C3887 1.390 . S
C3882 H3873 0.930 . S
C3882 C3880 1.384 . S
C3882 C3883 1.372 . S
C3883 C3882 1.372 . S
C3883 C3884 1.400 . S
C3883 C3888 1.490 . S
C3884 H3874 0.930 . S
C3884 C3883 1.400 . S
C3884 C3887 1.386 . S
H3885 C3901 0.930 . S
H3886 C3902 0.931 . S
C3887 H3875 0.929 . S
C3887 C3881 1.390 . S
C3887 C3884 1.386 . S
C3888 C3883 1.490 . S
C3888 C3890 1.395 . S
C3888 C3891 1.403 . S
H3889 C3895 0.930 . S
C3890 H3876 0.930 . S
C3890 C3888 1.395 . S
C3890 C3893 1.403 . S
C3891 C3888 1.403 . S
C3891 C3892 1.524 . S
C3891 C3895 1.400 . S
C3892 H3877 0.960 . S
C3892 H3878 0.960 . S
C3892 H3879 0.960 . S
C3892 C3891 1.524 . S
C3893 C3890 1.403 . S
C3893 C3894 1.392 . S
C3893 C3897 1.495 . S
C3894 C3893 1.392 . S
C3894 C3895 1.385 . S
C3894 C3896 1.478 . S
C3895 H3889 0.930 . S
C3895 C3891 1.400 . S
C3895 C3894 1.385 . S
C3896 C3894 1.478 . S
C3896 C3898 1.381 . S
C3896 C3902 1.383 . S
C3897 C3893 1.495 . S
C3897 H3903 0.959 . S
C3897 H3904 0.961 . S
C3897 H3905 0.960 . S
C3898 C3896 1.381 . S
C3898 C3899 1.394 . S
C3898 H3906 0.930 . S
C3899 C3898 1.394 . S
C3899 C3900 1.383 . S
C3899 H3907 0.929 . S
C3900 C3899 1.383 . S
C3900 C3901 1.377 . S
C3901 H3885 0.930 . S
C3901 C3900 1.377 . S
C3901 C3902 1.379 . S
C3902 H3886 0.931 . S
C3902 C3896 1.383 . S
C3902 C3901 1.379 . S
H3903 C3897 0.959 . S
H3904 C3897 0.961 . S
H3905 C3897 0.960 . S
H3906 C3898 0.930 . S
H3907 C3899 0.929 . S
H3908 C3916 0.929 . S
H3909 C3918 0.930 . S
H3910 C3920 0.930 . S
H3911 C3923 0.929 . S
H3912 C3926 0.930 . S
H3913 C3928 0.960 . S
H3914 C3928 0.960 . S
H3915 C3928 0.960 . S
C3916 H3908 0.929 . S
C3916 C3917 1.377 . S
C3916 C3918 1.384 . S
C3917 C3916 1.377 . S
C3917 C3923 1.390 . S
C3918 H3909 0.930 . S
C3918 C3916 1.384 . S
C3918 C3919 1.372 . S
C3919 C3918 1.372 . S
C3919 C3920 1.400 . S
C3919 C3924 1.490 . S
C3920 H3910 0.930 . S
C3920 C3919 1.400 . S
C3920 C3923 1.386 . S
H3921 C3937 0.930 . S
H3922 C3938 0.931 . S
C3923 H3911 0.929 . S
C3923 C3917 1.390 . S
C3923 C3920 1.386 . S
C3924 C3919 1.490 . S
C3924 C3926 1.395 . S
C3924 C3927 1.403 . S
H3925 C3931 0.930 . S
C3926 H3912 0.930 . S
C3926 C3924 1.395 . S
C3926 C3929 1.403 . S
C3927 C3924 1.403 . S
C3927 C3928 1.524 . S
C3927 C3931 1.400 . S
C3928 H3913 0.960 . S
C3928 H3914 0.960 . S
C3928 H3915 0.960 . S
C3928 C3927 1.524 . S
C3929 C3926 1.403 . S
C3929 C3930 1.392 . S
C3929 C3933 1.495 . S
C3930 C3929 1.392 . S
C3930 C3931 1.385 . S
C3930 C3932 1.478 . S
C3931 H3925 0.930 . S
C3931 C3927 1.400 . S
C3931 C3930 1.385 . S
C3932 C3930 1.478 . S
C3932 C3934 1.381 . S
C3932 C3938 1.383 . S
C3933 C3929 1.495 . S
C3933 H3939 0.959 . S
C3933 H3940 0.961 . S
C3933 H3941 0.960 . S
C3934 C3932 1.381 . S
C3934 C3935 1.394 . S
C3934 H3942 0.930 . S
C3935 C3934 1.394 . S
C3935 C3936 1.383 . S
C3935 H3943 0.929 . S
C3936 C3935 1.383 . S
C3936 C3937 1.377 . S
C3937 H3921 0.930 . S
C3937 C3936 1.377 . S
C3937 C3938 1.379 . S
C3938 H3922 0.931 . S
C3938 C3932 1.383 . S
C3938 C3937 1.379 . S
H3939 C3933 0.959 . S
H3940 C3933 0.961 . S
H3941 C3933 0.960 . S
H3942 C3934 0.930 . S
H3943 C3935 0.929 . S
H3944 C3952 0.929 . S
H3945 C3954 0.930 . S
H3946 C3956 0.930 . S
H3947 C3959 0.929 . S
H3948 C3962 0.930 . S
H3949 C3964 0.960 . S
H3950 C3964 0.960 . S
H3951 C3964 0.960 . S
C3952 H3944 0.929 . S
C3952 C3953 1.377 . S
C3952 C3954 1.384 . S
C3953 C3952 1.377 . S
C3953 C3959 1.390 . S
C3954 H3945 0.930 . S
C3954 C3952 1.384 . S
C3954 C3955 1.372 . S
C3955 C3954 1.372 . S
C3955 C3956 1.400 . S
C3955 C3960 1.490 . S
C3956 H3946 0.930 . S
C3956 C3955 1.400 . S
C3956 C3959 1.386 . S
H3957 C3973 0.930 . S
H3958 C3974 0.931 . S
C3959 H3947 0.929 . S
C3959 C3953 1.390 . S
C3959 C3956 1.386 . S
C3960 C3955 1.490 . S
C3960 C3962 1.395 . S
C3960 C3963 1.403 . S
H3961 C3967 0.930 . S
C3962 H3948 0.930 . S
C3962 C3960 1.395 . S
C3962 C3965 1.403 . S
C3963 C3960 1.403 . S
C3963 C3964 1.524 . S
C3963 C3967 1.400 . S
C3964 H3949 0.960 . S
C3964 H3950 0.960 . S
C3964 H3951 0.960 . S
C3964 C3963 1.524 . S
C3965 C3962 1.403 . S
C3965 C3966 1.392 . S
C3965 C3969 1.495 . S
C3966 C3965 1.392 . S
C3966 C3967 1.385 . S
C3966 C3968 1.478 . S
C3967 H3961 0.930 . S
C3967 C3963 1.400 . S
C3967 C3966 1.385 . S
C3968 C3966 1.478 . S
C3968 C3970 1.381 . S
C3968 C3974 1.383 . S
C3969 C3965 1.495 . S
C3969 H3975 0.959 . S
C3969 H3976 0.961 . S
C3969 H3977 0.960 . S
C3970 C3968 1.381 . S
C3970 C3971 1.394 . S
C3970 H3978 0.930 . S
C3971 C3970 1.394 . S
C3971 C3972 1.383 . S
C3971 H3979 0.929 . S
C3972 C3971 1.383 . S
C3972 C3973 1.377 . S
C3973 H3957 0.930 . S
C3973 C3972 1.377 . S
C3973 C3974 1.379 . S
C3974 H3958 0.931 . S
C3974 C3968 1.383 . S
C3974 C3973 1.379 . S
H3975 C3969 0.959 . S
H3976 C3969 0.961 . S
H3977 C3969 0.960 . S
H3978 C3970 0.930 . S
H3979 C3971 0.929 . S
H3980 C3988 0.929 . S
H3981 C3990 0.930 . S
H3982 C3992 0.930 . S
H3983 C3995 0.929 . S
H3984 C3998 0.930 . S
H3985 C4000 0.960 . S
H3986 C4000 0.960 . S
H3987 C4000 0.960 . S
C3988 H3980 0.929 . S
C3988 C3989 1.377 1_556 S
C3988 C3990 1.384 . S
C3989 C3988 1.377 1_554 S
C3989 C3995 1.390 . S
C3990 H3981 0.930 . S
C3990 C3988 1.384 . S
C3990 C3991 1.362 1_556 S
C3991 C3990 1.362 1_554 S
C3991 C3992 1.411 . S
C3991 C3996 1.488 1_554 S
C3992 H3982 0.930 . S
C3992 C3991 1.411 . S
C3992 C3995 1.386 . S
H3993 C4009 0.930 . S
H3994 C4010 0.931 . S
C3995 H3983 0.929 . S
C3995 C3989 1.390 . S
C3995 C3992 1.386 . S
C3996 C3991 1.488 1_556 S
C3996 C3998 1.379 1_556 S
C3996 C3999 1.421 . S
H3997 C4003 0.930 . S
C3998 H3984 0.930 . S
C3998 C3996 1.379 1_554 S
C3998 C4001 1.403 . S
C3999 C3996 1.421 . S
C3999 C4000 1.524 . S
C3999 C4003 1.400 . S
C4000 H3985 0.960 . S
C4000 H3986 0.960 . S
C4000 H3987 0.960 . S
C4000 C3999 1.524 . S
C4001 C3998 1.403 . S
C4001 C4002 1.392 1_554 S
C4001 C4005 1.495 . S
C4002 C4001 1.392 1_556 S
C4002 C4003 1.385 . S
C4002 C4004 1.478 . S
C4003 H3997 0.930 . S
C4003 C3999 1.400 . S
C4003 C4002 1.385 . S
C4004 C4002 1.478 . S
C4004 C4006 1.381 . S
C4004 C4010 1.383 1_556 S
C4005 C4001 1.495 . S
C4005 H4011 0.959 . S
C4005 H4012 0.961 . S
C4005 H4013 0.960 . S
C4006 C4004 1.381 . S
C4006 C4007 1.394 . S
C4006 H4014 0.930 . S
C4007 C4006 1.394 . S
C4007 C4008 1.383 . S
C4007 H4015 0.929 . S
C4008 C4007 1.383 . S
C4008 C4009 1.377 1_556 S
C4009 H3993 0.930 . S
C4009 C4008 1.377 1_554 S
C4009 C4010 1.379 . S
C4010 H3994 0.931 . S
C4010 C4004 1.383 1_554 S
C4010 C4009 1.379 . S
H4011 C4005 0.959 . S
H4012 C4005 0.961 . S
H4013 C4005 0.960 . S
H4014 C4006 0.930 . S
H4015 C4007 0.929 . S
H4016 C4024 0.929 . S
H4017 C4026 0.930 . S
H4018 C4028 0.930 . S
H4019 C4031 0.929 . S
H4020 C4034 0.930 . S
H4021 C4036 0.960 . S
H4022 C4036 0.960 . S
H4023 C4036 0.960 . S
C4024 H4016 0.929 . S
C4024 C4025 1.377 . S
C4024 C4026 1.384 . S
C4025 C4024 1.377 . S
C4025 C4031 1.390 . S
C4026 H4017 0.930 . S
C4026 C4024 1.384 . S
C4026 C4027 1.372 . S
C4027 C4026 1.372 . S
C4027 C4028 1.400 . S
C4027 C4032 1.490 . S
C4028 H4018 0.930 . S
C4028 C4027 1.400 . S
C4028 C4031 1.386 . S
H4029 C4045 0.930 . S
H4030 C4046 0.931 . S
C4031 H4019 0.929 . S
C4031 C4025 1.390 . S
C4031 C4028 1.386 . S
C4032 C4027 1.490 . S
C4032 C4034 1.395 . S
C4032 C4035 1.403 . S
H4033 C4039 0.930 . S
C4034 H4020 0.930 . S
C4034 C4032 1.395 . S
C4034 C4037 1.403 . S
C4035 C4032 1.403 . S
C4035 C4036 1.524 . S
C4035 C4039 1.400 . S
C4036 H4021 0.960 . S
C4036 H4022 0.960 . S
C4036 H4023 0.960 . S
C4036 C4035 1.524 . S
C4037 C4034 1.403 . S
C4037 C4038 1.392 . S
C4037 C4041 1.495 . S
C4038 C4037 1.392 . S
C4038 C4039 1.385 . S
C4038 C4040 1.478 . S
C4039 H4033 0.930 . S
C4039 C4035 1.400 . S
C4039 C4038 1.385 . S
C4040 C4038 1.478 . S
C4040 C4042 1.381 . S
C4040 C4046 1.383 . S
C4041 C4037 1.495 . S
C4041 H4047 0.959 . S
C4041 H4048 0.961 . S
C4041 H4049 0.960 . S
C4042 C4040 1.381 . S
C4042 C4043 1.394 . S
C4042 H4050 0.930 . S
C4043 C4042 1.394 . S
C4043 C4044 1.383 . S
C4043 H4051 0.929 . S
C4044 C4043 1.383 . S
C4044 C4045 1.377 . S
C4045 H4029 0.930 . S
C4045 C4044 1.377 . S
C4045 C4046 1.379 . S
C4046 H4030 0.931 . S
C4046 C4040 1.383 . S
C4046 C4045 1.379 . S
H4047 C4041 0.959 . S
H4048 C4041 0.961 . S
H4049 C4041 0.960 . S
H4050 C4042 0.930 . S
H4051 C4043 0.929 . S
H4052 C4060 0.929 . S
H4053 C4062 0.930 . S
H4054 C4064 0.930 . S
H4055 C4067 0.929 . S
H4056 C4070 0.917 1_556 S
H4057 C4072 0.960 . S
H4058 C4072 0.960 . S
H4059 C4072 0.960 . S
C4060 H4052 0.929 . S
C4060 C4061 1.377 1_556 S
C4060 C4062 1.384 . S
C4061 C4060 1.377 1_554 S
C4061 C4067 1.390 . S
C4062 H4053 0.930 . S
C4062 C4060 1.384 . S
C4062 C4063 1.372 1_556 S
C4063 C4062 1.372 1_554 S
C4063 C4064 1.400 . S
C4063 C4068 1.490 . S
C4064 H4054 0.930 . S
C4064 C4063 1.400 . S
C4064 C4067 1.386 . S
H4065 C4081 0.930 . S
H4066 C4082 0.931 . S
C4067 H4055 0.929 . S
C4067 C4061 1.390 . S
C4067 C4064 1.386 . S
C4068 C4063 1.490 . S
C4068 C4070 1.406 . S
C4068 C4071 1.403 . S
H4069 C4075 0.930 . S
C4070 H4056 0.917 1_554 S
C4070 C4068 1.406 . S
C4070 C4073 1.405 . S
C4071 C4068 1.403 . S
C4071 C4072 1.524 . S
C4071 C4075 1.400 . S
C4072 H4057 0.960 . S
C4072 H4058 0.960 . S
C4072 H4059 0.960 . S
C4072 C4071 1.524 . S
C4073 C4070 1.405 . S
C4073 C4074 1.392 . S
C4073 C4077 1.495 1_554 S
C4074 C4073 1.392 . S
C4074 C4075 1.385 . S
C4074 C4076 1.478 . S
C4075 H4069 0.930 . S
C4075 C4071 1.400 . S
C4075 C4074 1.385 . S
C4076 C4074 1.478 . S
C4076 C4078 1.381 . S
C4076 C4082 1.383 . S
C4077 C4073 1.495 1_556 S
C4077 H4083 0.959 . S
C4077 H4084 0.961 . S
C4077 H4085 0.960 . S
C4078 C4076 1.381 . S
C4078 C4079 1.394 . S
C4078 H4086 0.930 1_554 S
C4079 C4078 1.394 . S
C4079 C4080 1.383 . S
C4079 H4087 0.929 . S
C4080 C4079 1.383 . S
C4080 C4081 1.377 . S
C4081 H4065 0.930 . S
C4081 C4080 1.377 . S
C4081 C4082 1.379 . S
C4082 H4066 0.931 . S
C4082 C4076 1.383 . S
C4082 C4081 1.379 . S
H4083 C4077 0.959 . S
H4084 C4077 0.961 . S
H4085 C4077 0.960 . S
H4086 C4078 0.930 1_556 S
H4087 C4079 0.929 . S
H4088 C4096 0.929 . S
H4089 C4098 0.930 . S
H4090 C4100 0.930 . S
H4091 C4103 0.929 . S
H4092 C4106 0.930 . S
H4093 C4108 0.960 . S
H4094 C4108 0.960 . S
H4095 C4108 0.960 . S
C4096 H4088 0.929 . S
C4096 C4097 1.377 . S
C4096 C4098 1.384 . S
C4097 C4096 1.377 . S
C4097 C4103 1.390 . S
C4098 H4089 0.930 . S
C4098 C4096 1.384 . S
C4098 C4099 1.372 . S
C4099 C4098 1.372 . S
C4099 C4100 1.400 . S
C4099 C4104 1.490 . S
C4100 H4090 0.930 . S
C4100 C4099 1.400 . S
C4100 C4103 1.386 . S
H4101 C4117 0.930 . S
H4102 C4118 0.931 . S
C4103 H4091 0.929 . S
C4103 C4097 1.390 . S
C4103 C4100 1.386 . S
C4104 C4099 1.490 . S
C4104 C4106 1.395 . S
C4104 C4107 1.403 . S
H4105 C4111 0.930 . S
C4106 H4092 0.930 . S
C4106 C4104 1.395 . S
C4106 C4109 1.403 . S
C4107 C4104 1.403 . S
C4107 C4108 1.524 . S
C4107 C4111 1.400 . S
C4108 H4093 0.960 . S
C4108 H4094 0.960 . S
C4108 H4095 0.960 . S
C4108 C4107 1.524 . S
C4109 C4106 1.403 . S
C4109 C4110 1.392 . S
C4109 C4113 1.495 . S
C4110 C4109 1.392 . S
C4110 C4111 1.385 . S
C4110 C4112 1.478 . S
C4111 H4105 0.930 . S
C4111 C4107 1.400 . S
C4111 C4110 1.385 . S
C4112 C4110 1.478 . S
C4112 C4114 1.381 . S
C4112 C4118 1.383 . S
C4113 C4109 1.495 . S
C4113 H4119 0.959 . S
C4113 H4120 0.961 . S
C4113 H4121 0.960 . S
C4114 C4112 1.381 . S
C4114 C4115 1.394 . S
C4114 H4122 0.930 . S
C4115 C4114 1.394 . S
C4115 C4116 1.383 . S
C4115 H4123 0.929 . S
C4116 C4115 1.383 . S
C4116 C4117 1.377 . S
C4117 H4101 0.930 . S
C4117 C4116 1.377 . S
C4117 C4118 1.379 . S
C4118 H4102 0.931 . S
C4118 C4112 1.383 . S
C4118 C4117 1.379 . S
H4119 C4113 0.959 . S
H4120 C4113 0.961 . S
H4121 C4113 0.960 . S
H4122 C4114 0.930 . S
H4123 C4115 0.929 . S
H4124 C4132 0.929 . S
H4125 C4134 0.930 . S
H4126 C4136 0.930 . S
H4127 C4139 0.929 . S
H4128 C4142 0.930 . S
H4129 C4144 0.960 . S
H4130 C4144 0.960 . S
H4131 C4144 0.960 . S
C4132 H4124 0.929 . S
C4132 C4133 1.377 . S
C4132 C4134 1.384 . S
C4133 C4132 1.377 . S
C4133 C4139 1.390 . S
C4134 H4125 0.930 . S
C4134 C4132 1.384 . S
C4134 C4135 1.372 . S
C4135 C4134 1.372 . S
C4135 C4136 1.400 . S
C4135 C4140 1.490 . S
C4136 H4126 0.930 . S
C4136 C4135 1.400 . S
C4136 C4139 1.386 . S
H4137 C4153 0.930 . S
H4138 C4154 0.931 . S
C4139 H4127 0.929 . S
C4139 C4133 1.390 . S
C4139 C4136 1.386 . S
C4140 C4135 1.490 . S
C4140 C4142 1.395 . S
C4140 C4143 1.403 . S
H4141 C4147 0.930 . S
C4142 H4128 0.930 . S
C4142 C4140 1.395 . S
C4142 C4145 1.403 . S
C4143 C4140 1.403 . S
C4143 C4144 1.524 . S
C4143 C4147 1.400 . S
C4144 H4129 0.960 . S
C4144 H4130 0.960 . S
C4144 H4131 0.960 . S
C4144 C4143 1.524 . S
C4145 C4142 1.403 . S
C4145 C4146 1.392 . S
C4145 C4149 1.495 . S
C4146 C4145 1.392 . S
C4146 C4147 1.385 . S
C4146 C4148 1.478 . S
C4147 H4141 0.930 . S
C4147 C4143 1.400 . S
C4147 C4146 1.385 . S
C4148 C4146 1.478 . S
C4148 C4150 1.381 . S
C4148 C4154 1.383 . S
C4149 C4145 1.495 . S
C4149 H4155 0.959 . S
C4149 H4156 0.961 . S
C4149 H4157 0.960 . S
C4150 C4148 1.381 . S
C4150 C4151 1.394 . S
C4150 H4158 0.930 . S
C4151 C4150 1.394 . S
C4151 C4152 1.383 . S
C4151 H4159 0.929 . S
C4152 C4151 1.383 . S
C4152 C4153 1.377 . S
C4153 H4137 0.930 . S
C4153 C4152 1.377 . S
C4153 C4154 1.379 . S
C4154 H4138 0.931 . S
C4154 C4148 1.383 . S
C4154 C4153 1.379 . S
H4155 C4149 0.959 . S
H4156 C4149 0.961 . S
H4157 C4149 0.960 . S
H4158 C4150 0.930 . S
H4159 C4151 0.929 . S
C732 C352 1.020 . S
C713 C7 1.049 . S
C749 C22 1.297 . S
C768 C380 1.252 . S
C785 C31 1.061 . S
C804 C398 1.049 . S
C840 C424 1.301 . S
C821 C51 1.378 . S
C857 C17 1.407 . S
C876 C447 1.252 . S
C912 C467 1.003 . S
C893 C36 0.997 . S
C948 C495 1.295 . S
C929 C49 1.348 . S
C965 C9 1.031 . S
C984 C513 1.032 . S
C1001 C63 1.308 . S
C1020 C354 1.330 . S
C1037 C73 0.967 . S
C1056 C376 0.953 . S
C1092 C400 1.352 . S
C1073 C91 1.334 1_545 S
C1128 C421 1.017 . S
C1109 C101 1.016 . S
C1145 C59 1.032 . S
C1164 C444 1.037 . S
C1200 C469 1.343 . S
C1181 C77 1.312 . S
C1236 C491 0.974 . S
C1217 C87 0.960 1_565 S
C1272 C515 1.341 . S
C1253 C105 1.319 . S
C1308 C355 0.841 . S
C1289 C107 0.875 . S
C1344 C538 1.081 . S
C1325 C120 1.082 . S
C1361 C135 0.870 . S
C1380 C562 0.844 . S
C1416 C586 1.060 . S
C1397 C148 1.053 . S
C1433 C65 0.828 . S
C1452 C516 0.855 . S
C1488 C401 0.820 . S
C1469 C79 0.912 . S
C1505 C134 1.026 . S
C1524 C607 1.036 . S
C1560 C632 0.961 . S
C1541 C162 1.009 . S
C1577 C171 1.046 . S
C1596 C353 1.024 1_556 S
C1632 C630 0.873 . S
C1613 C190 0.879 . S
C1649 C203 1.042 . S
C1668 C399 1.053 . S
C1685 C219 0.850 . S
C1704 C609 0.866 . S
C1740 C448 0.887 . S
C1721 C189 0.866 . S
C1776 C560 0.956 . S
C1757 C204 0.990 . S
C1812 C492 0.931 . S
C1793 C213 0.939 . S
C1848 C652 1.013 . S
C1829 C177 1.027 . S
C1884 C357 0.770 . S
C1865 C227 0.774 . S
C1901 C245 1.201 . S
C1920 C628 1.204 . S
C1956 C403 0.809 . S
C1937 C255 0.784 . S
C1973 C273 1.181 . S
C1992 C606 1.185 . S
C2009 C231 1.197 . S
C2028 C445 1.185 . S
C2045 C241 0.768 . S
C2064 C564 0.729 . S
C2100 C490 1.192 . S
C2081 C259 1.210 . S
C2117 C269 0.767 . S
C2136 C656 0.726 . S
C2153 C275 1.259 . S
C2172 C356 1.197 . S
C2189 C288 1.088 . S
C2208 C541 1.026 . S
C2225 C303 1.225 . S
C2244 C471 1.216 . S
C2261 C316 1.102 . S
C2280 C585 1.017 . S
C2316 C655 1.210 . S
C2297 C233 1.217 . S
C2352 C402 1.263 . S
C2333 C247 1.272 . S
C2388 C426 0.966 . S
C2369 C302 1.047 . S
C2424 C378 1.023 . S
C2405 C330 1.059 . S
C2441 C35 1.048 . S
C2460 C674 1.020 . S
C2496 C633 1.245 . S
C2477 C50 1.299 . S
C2532 C697 1.024 . S
C2513 C3 1.063 . S
C2549 C23 1.378 . S
C2568 C608 1.271 . S
C2585 C45 1.407 . S
C2604 C539 1.249 1_556 S
C2640 C559 0.995 . S
C2621 C8 0.997 . S
C2676 C587 1.271 . S
C2657 C21 1.345 . S
C2712 C651 1.043 . S
C2693 C37 1.031 . S
C2748 C676 1.331 . S
C2729 C161 1.317 . S
C2765 C115 0.967 . S
C2784 C629 0.931 . S
C2801 C133 1.328 . S
C2820 C699 1.362 . S
C2856 C605 0.975 . S
C2837 C143 1.015 . S
C2892 C536 0.989 . S
C2873 C157 1.031 . S
C2909 C119 1.318 . S
C2928 C561 1.331 . S
C2964 C583 0.929 . S
C2945 C129 0.962 . S
C2981 C147 1.318 . S
C3000 C653 1.344 . S
C3036 C677 0.827 . S
C3017 C149 0.876 . S
C3072 C446 1.046 1_565 S
C3053 C78 1.082 . S
C3108 C470 0.772 . S
C3089 C93 0.873 . S
C3125 C106 1.053 . S
C3144 C494 1.004 . S
C3180 C654 0.862 . S
C3161 C163 0.829 . S
C3197 C121 0.913 . S
C3216 C700 0.805 . S
C3252 C423 1.019 . S
C3233 C92 1.030 . S
C3288 C379 0.959 . S
C3269 C64 1.009 . S
C3305 C199 1.046 . S
C3324 C675 1.017 . S
C3360 C377 0.883 . S
C3341 C218 0.874 . S
C3396 C698 1.062 1_556 S
C3377 C175 1.033 . S
C3413 C191 0.851 . S
C3432 C425 0.836 . S
C3449 C217 0.861 . S
C3468 C540 0.846 . S
C3485 C176 0.991 . S
C3504 C468 0.993 . S
C3521 C185 0.938 . S
C3540 C584 0.939 . S
C3557 C205 1.027 . S
C3576 C514 1.007 . S
C3612 C679 0.820 . S
C3593 C325 0.771 . S
C3629 C287 1.204 . S
C3648 C375 1.231 . S
C3684 C702 0.764 . S
C3665 C297 0.778 . S
C3701 C315 1.183 . S
C3720 C422 1.215 . S
C3737 C329 1.205 . S
C3756 C537 1.206 . S
C3792 C472 0.810 . S
C3773 C283 0.770 . S
C3809 C301 1.210 . S
C3828 C582 1.229 . S
C3864 C518 0.814 . S
C3845 C311 0.774 . S
C3900 C678 1.251 . S
C3881 C317 1.262 . S
C3936 C449 1.057 . S
C3917 C246 1.092 . S
C3953 C261 1.220 . S
C3972 C563 1.151 . S
C4008 C493 0.994 . S
C3989 C274 1.097 . S
C4044 C517 1.184 . S
C4025 C331 1.213 . S
C4061 C289 1.267 . S
C4080 C701 1.203 . S
C4116 C610 1.007 . S
C4097 C260 1.053 . S
C4152 C631 0.980 . S
C4133 C232 1.054 . S
