# Generated by pormake.
# Topology cor, (4,6)-cn, num edge types: 1
# Building blocks:
#     Node 0, Type 0, BuildingBlock: CEKHIL_clean_sbu_0, # of connection points: 4
#     Node 1, Type 0, BuildingBlock: CEKHIL_clean_sbu_0, # of connection points: 4
#     Node 2, Type 0, BuildingBlock: CEKHIL_clean_sbu_0, # of connection points: 4
#     Node 3, Type 0, BuildingBlock: CEKHIL_clean_sbu_0, # of connection points: 4
#     Node 4, Type 0, BuildingBlock: CEKHIL_clean_sbu_0, # of connection points: 4
#     Node 5, Type 0, BuildingBlock: CEKHIL_clean_sbu_0, # of connection points: 4
#     Node 6, Type 0, BuildingBlock: CEKHIL_clean_sbu_0, # of connection points: 4
#     Node 7, Type 0, BuildingBlock: CEKHIL_clean_sbu_0, # of connection points: 4
#     Node 8, Type 0, BuildingBlock: CEKHIL_clean_sbu_0, # of connection points: 4
#     Node 9, Type 0, BuildingBlock: CEKHIL_clean_sbu_0, # of connection points: 4
#     Node 10, Type 0, BuildingBlock: CEKHIL_clean_sbu_0, # of connection points: 4
#     Node 11, Type 0, BuildingBlock: CEKHIL_clean_sbu_0, # of connection points: 4
#     Node 12, Type 0, BuildingBlock: CEKHIL_clean_sbu_0, # of connection points: 4
#     Node 13, Type 0, BuildingBlock: CEKHIL_clean_sbu_0, # of connection points: 4
#     Node 14, Type 0, BuildingBlock: CEKHIL_clean_sbu_0, # of connection points: 4
#     Node 15, Type 0, BuildingBlock: CEKHIL_clean_sbu_0, # of connection points: 4
#     Node 16, Type 0, BuildingBlock: CEKHIL_clean_sbu_0, # of connection points: 4
#     Node 17, Type 0, BuildingBlock: CEKHIL_clean_sbu_0, # of connection points: 4
#     Node 18, Type 1, BuildingBlock: MIDCAF_clean_sbu_0, # of connection points: 6
#     Node 19, Type 1, BuildingBlock: MIDCAF_clean_sbu_0, # of connection points: 6
#     Node 20, Type 1, BuildingBlock: MIDCAF_clean_sbu_0, # of connection points: 6
#     Node 21, Type 1, BuildingBlock: MIDCAF_clean_sbu_0, # of connection points: 6
#     Node 22, Type 1, BuildingBlock: MIDCAF_clean_sbu_0, # of connection points: 6
#     Node 23, Type 1, BuildingBlock: MIDCAF_clean_sbu_0, # of connection points: 6
#     Node 24, Type 1, BuildingBlock: MIDCAF_clean_sbu_0, # of connection points: 6
#     Node 25, Type 1, BuildingBlock: MIDCAF_clean_sbu_0, # of connection points: 6
#     Node 26, Type 1, BuildingBlock: MIDCAF_clean_sbu_0, # of connection points: 6
#     Node 27, Type 1, BuildingBlock: MIDCAF_clean_sbu_0, # of connection points: 6
#     Node 28, Type 1, BuildingBlock: MIDCAF_clean_sbu_0, # of connection points: 6
#     Node 29, Type 1, BuildingBlock: MIDCAF_clean_sbu_0, # of connection points: 6
#     Edge 30, Type (0, 1), BuildingBlock: XIVTED_clean_linker_0, # of connection points: 2
#     Edge 31, Type (0, 1), BuildingBlock: XIVTED_clean_linker_0, # of connection points: 2
#     Edge 32, Type (0, 1), BuildingBlock: XIVTED_clean_linker_0, # of connection points: 2
#     Edge 33, Type (0, 1), BuildingBlock: XIVTED_clean_linker_0, # of connection points: 2
#     Edge 34, Type (0, 1), BuildingBlock: XIVTED_clean_linker_0, # of connection points: 2
#     Edge 35, Type (0, 1), BuildingBlock: XIVTED_clean_linker_0, # of connection points: 2
#     Edge 36, Type (0, 1), BuildingBlock: XIVTED_clean_linker_0, # of connection points: 2
#     Edge 37, Type (0, 1), BuildingBlock: XIVTED_clean_linker_0, # of connection points: 2
#     Edge 38, Type (0, 1), BuildingBlock: XIVTED_clean_linker_0, # of connection points: 2
#     Edge 39, Type (0, 1), BuildingBlock: XIVTED_clean_linker_0, # of connection points: 2
#     Edge 40, Type (0, 1), BuildingBlock: XIVTED_clean_linker_0, # of connection points: 2
#     Edge 41, Type (0, 1), BuildingBlock: XIVTED_clean_linker_0, # of connection points: 2
#     Edge 42, Type (0, 1), BuildingBlock: XIVTED_clean_linker_0, # of connection points: 2
#     Edge 43, Type (0, 1), BuildingBlock: XIVTED_clean_linker_0, # of connection points: 2
#     Edge 44, Type (0, 1), BuildingBlock: XIVTED_clean_linker_0, # of connection points: 2
#     Edge 45, Type (0, 1), BuildingBlock: XIVTED_clean_linker_0, # of connection points: 2
#     Edge 46, Type (0, 1), BuildingBlock: XIVTED_clean_linker_0, # of connection points: 2
#     Edge 47, Type (0, 1), BuildingBlock: XIVTED_clean_linker_0, # of connection points: 2
#     Edge 48, Type (0, 1), BuildingBlock: XIVTED_clean_linker_0, # of connection points: 2
#     Edge 49, Type (0, 1), BuildingBlock: XIVTED_clean_linker_0, # of connection points: 2
#     Edge 50, Type (0, 1), BuildingBlock: XIVTED_clean_linker_0, # of connection points: 2
#     Edge 51, Type (0, 1), BuildingBlock: XIVTED_clean_linker_0, # of connection points: 2
#     Edge 52, Type (0, 1), BuildingBlock: XIVTED_clean_linker_0, # of connection points: 2
#     Edge 53, Type (0, 1), BuildingBlock: XIVTED_clean_linker_0, # of connection points: 2
#     Edge 54, Type (0, 1), BuildingBlock: XIVTED_clean_linker_0, # of connection points: 2
#     Edge 55, Type (0, 1), BuildingBlock: XIVTED_clean_linker_0, # of connection points: 2
#     Edge 56, Type (0, 1), BuildingBlock: XIVTED_clean_linker_0, # of connection points: 2
#     Edge 57, Type (0, 1), BuildingBlock: XIVTED_clean_linker_0, # of connection points: 2
#     Edge 58, Type (0, 1), BuildingBlock: XIVTED_clean_linker_0, # of connection points: 2
#     Edge 59, Type (0, 1), BuildingBlock: XIVTED_clean_linker_0, # of connection points: 2
#     Edge 60, Type (0, 1), BuildingBlock: XIVTED_clean_linker_0, # of connection points: 2
#     Edge 61, Type (0, 1), BuildingBlock: XIVTED_clean_linker_0, # of connection points: 2
#     Edge 62, Type (0, 1), BuildingBlock: XIVTED_clean_linker_0, # of connection points: 2
#     Edge 63, Type (0, 1), BuildingBlock: XIVTED_clean_linker_0, # of connection points: 2
#     Edge 64, Type (0, 1), BuildingBlock: XIVTED_clean_linker_0, # of connection points: 2
#     Edge 65, Type (0, 1), BuildingBlock: XIVTED_clean_linker_0, # of connection points: 2
#     Edge 66, Type (0, 1), BuildingBlock: XIVTED_clean_linker_0, # of connection points: 2
#     Edge 67, Type (0, 1), BuildingBlock: XIVTED_clean_linker_0, # of connection points: 2
#     Edge 68, Type (0, 1), BuildingBlock: XIVTED_clean_linker_0, # of connection points: 2
#     Edge 69, Type (0, 1), BuildingBlock: XIVTED_clean_linker_0, # of connection points: 2
#     Edge 70, Type (0, 1), BuildingBlock: XIVTED_clean_linker_0, # of connection points: 2
#     Edge 71, Type (0, 1), BuildingBlock: XIVTED_clean_linker_0, # of connection points: 2
#     Edge 72, Type (0, 1), BuildingBlock: XIVTED_clean_linker_0, # of connection points: 2
#     Edge 73, Type (0, 1), BuildingBlock: XIVTED_clean_linker_0, # of connection points: 2
#     Edge 74, Type (0, 1), BuildingBlock: XIVTED_clean_linker_0, # of connection points: 2
#     Edge 75, Type (0, 1), BuildingBlock: XIVTED_clean_linker_0, # of connection points: 2
#     Edge 76, Type (0, 1), BuildingBlock: XIVTED_clean_linker_0, # of connection points: 2
#     Edge 77, Type (0, 1), BuildingBlock: XIVTED_clean_linker_0, # of connection points: 2
#     Edge 78, Type (0, 1), BuildingBlock: XIVTED_clean_linker_0, # of connection points: 2
#     Edge 79, Type (0, 1), BuildingBlock: XIVTED_clean_linker_0, # of connection points: 2
#     Edge 80, Type (0, 1), BuildingBlock: XIVTED_clean_linker_0, # of connection points: 2
#     Edge 81, Type (0, 1), BuildingBlock: XIVTED_clean_linker_0, # of connection points: 2
#     Edge 82, Type (0, 1), BuildingBlock: XIVTED_clean_linker_0, # of connection points: 2
#     Edge 83, Type (0, 1), BuildingBlock: XIVTED_clean_linker_0, # of connection points: 2
#     Edge 84, Type (0, 1), BuildingBlock: XIVTED_clean_linker_0, # of connection points: 2
#     Edge 85, Type (0, 1), BuildingBlock: XIVTED_clean_linker_0, # of connection points: 2
#     Edge 86, Type (0, 1), BuildingBlock: XIVTED_clean_linker_0, # of connection points: 2
#     Edge 87, Type (0, 1), BuildingBlock: XIVTED_clean_linker_0, # of connection points: 2
#     Edge 88, Type (0, 1), BuildingBlock: XIVTED_clean_linker_0, # of connection points: 2
#     Edge 89, Type (0, 1), BuildingBlock: XIVTED_clean_linker_0, # of connection points: 2
#     Edge 90, Type (0, 1), BuildingBlock: XIVTED_clean_linker_0, # of connection points: 2
#     Edge 91, Type (0, 1), BuildingBlock: XIVTED_clean_linker_0, # of connection points: 2
#     Edge 92, Type (0, 1), BuildingBlock: XIVTED_clean_linker_0, # of connection points: 2
#     Edge 93, Type (0, 1), BuildingBlock: XIVTED_clean_linker_0, # of connection points: 2
#     Edge 94, Type (0, 1), BuildingBlock: XIVTED_clean_linker_0, # of connection points: 2
#     Edge 95, Type (0, 1), BuildingBlock: XIVTED_clean_linker_0, # of connection points: 2
#     Edge 96, Type (0, 1), BuildingBlock: XIVTED_clean_linker_0, # of connection points: 2
#     Edge 97, Type (0, 1), BuildingBlock: XIVTED_clean_linker_0, # of connection points: 2
#     Edge 98, Type (0, 1), BuildingBlock: XIVTED_clean_linker_0, # of connection points: 2
#     Edge 99, Type (0, 1), BuildingBlock: XIVTED_clean_linker_0, # of connection points: 2
#     Edge 100, Type (0, 1), BuildingBlock: XIVTED_clean_linker_0, # of connection points: 2
#     Edge 101, Type (0, 1), BuildingBlock: XIVTED_clean_linker_0, # of connection points: 2
# Relax obj value: 0.113
# Max RMSD: 0.161
# Mean RMSD: 0.107
data_MOF--net-cor--node1-CEKHIL_clean_sbu_0--node2-MIDCAF_clean_sbu_0--edge1-XIVTED_clean_linker_0
_symmetry_space_group_name_H-M    P1
_symmetry_Int_Tables_number       1
_symmetry_cell_setting            triclinic
loop_
_symmetry_equiv_pos_as_xyz
'x, y, z'
_cell_length_a     38.518651
_cell_length_b     38.366333
_cell_length_c     101.01978
_cell_angle_alpha  90.72368
_cell_angle_beta   89.599775
_cell_angle_gamma 120.74384
loop_
_atom_site_label
_atom_site_type_symbol
_atom_site_fract_x
_atom_site_fract_y
_atom_site_fract_z
_atom_type_partial_charge
Co0 Co 0.73714 0.02597 0.25595 0.0
O1 O 0.7067 0.04362 0.24584 0.0
O2 O 0.764 0.08452 0.25631 0.0
C3 C 0.68472 0.97513 0.26708 0.0
O4 O 0.77672 0.0193 0.26752 0.0
Co5 Co 0.72392 0.94023 0.25107 0.0
O6 O 0.76255 0.95479 0.26596 0.0
C7 C 0.76468 0.00236 0.23082 0.0
C8 C 0.73533 0.08045 0.24853 0.0
C9 C 0.7828 0.99053 0.27087 0.0
O10 O 0.76806 0.029 0.23938 0.0
O11 O 0.74454 0.96424 0.23308 0.0
O12 O 0.70068 0.01249 0.27122 0.0
O13 O 0.69796 0.97063 0.25579 0.0
Co14 Co 0.99856 0.7204 0.26001 0.0
O15 O 0.02031 0.69668 0.27177 0.0
O16 O 0.05671 0.75497 0.26148 0.0
C17 C 0.95698 0.66403 0.24816 0.0
O18 O 0.98794 0.75393 0.24675 0.0
Co19 Co 0.90723 0.69282 0.25929 0.0
O20 O 0.9216 0.72089 0.24199 0.0
C21 C 0.95772 0.74313 0.28164 0.0
C22 C 0.05567 0.72821 0.2695 0.0
C23 C 0.95792 0.74831 0.23953 0.0
O24 O 0.98989 0.74867 0.27567 0.0
O25 O 0.92204 0.71986 0.27711 0.0
O26 O 0.99534 0.68461 0.24533 0.0
O27 O 0.94651 0.6757 0.25867 0.0
Co28 Co 0.31058 0.31858 0.25303 0.0
O29 O 0.35779 0.34408 0.24182 0.0
O30 O 0.34095 0.29153 0.25475 0.0
C31 C 0.31488 0.37478 0.26195 0.0
O32 O 0.26567 0.28521 0.26626 0.0
Co33 Co 0.23768 0.32965 0.24786 0.0
O34 O 0.21819 0.30264 0.26526 0.0
C35 C 0.25629 0.28249 0.22904 0.0
C36 C 0.36538 0.31667 0.24593 0.0
C37 C 0.23365 0.28399 0.27076 0.0
O38 O 0.27954 0.28111 0.23782 0.0
O39 O 0.23928 0.3035 0.23064 0.0
O40 O 0.33676 0.36085 0.26665 0.0
O41 O 0.29541 0.35742 0.25119 0.0
Co42 Co 0.30638 0.01921 0.75801 0.0
O43 O 0.33228 0.00103 0.77009 0.0
O44 O 0.27971 0.9605 0.75754 0.0
C45 C 0.3621 0.07026 0.74854 0.0
O46 O 0.27306 0.02779 0.74407 0.0
Co47 Co 0.31835 0.10486 0.76215 0.0
O48 O 0.29392 0.09437 0.74418 0.0
C49 C 0.26841 0.04076 0.78092 0.0
C50 C 0.30518 0.9643 0.76667 0.0
C51 C 0.27409 0.05903 0.73896 0.0
O52 O 0.26885 0.01508 0.77273 0.0
O53 O 0.28935 0.07912 0.77915 0.0
O54 O 0.34826 0.03304 0.74459 0.0
O55 O 0.34523 0.07436 0.75908 0.0
Co56 Co 0.02384 0.31078 0.75324 0.0
O57 O 0.00084 0.33408 0.74213 0.0
O58 O 0.96545 0.27959 0.75446 0.0
C59 C 0.07275 0.3681 0.76275 0.0
O60 O 0.03796 0.27959 0.76635 0.0
Co61 Co 0.11184 0.33147 0.7478 0.0
O62 O 0.10529 0.30601 0.76535 0.0
C63 C 0.04795 0.28119 0.72883 0.0
C64 C 0.96574 0.30467 0.74583 0.0
C65 C 0.07113 0.28368 0.7709 0.0
O66 O 0.02172 0.276 0.73773 0.0
O67 O 0.0859 0.30543 0.73044 0.0
O68 O 0.03595 0.35129 0.76723 0.0
O69 O 0.07705 0.35294 0.75182 0.0
Co70 Co 0.72954 0.72334 0.75442 0.0
O71 O 0.68255 0.69898 0.7657 0.0
O72 O 0.69923 0.7502 0.75214 0.0
C73 C 0.72493 0.66643 0.74615 0.0
O74 O 0.77392 0.75507 0.74089 0.0
Co75 Co 0.80254 0.71249 0.75979 0.0
O76 O 0.81945 0.73505 0.74168 0.0
C77 C 0.78433 0.76093 0.77819 0.0
C78 C 0.67469 0.72567 0.76106 0.0
C79 C 0.80426 0.75375 0.73603 0.0
O80 O 0.76116 0.76214 0.76933 0.0
O81 O 0.80104 0.73957 0.7768 0.0
O82 O 0.70288 0.67985 0.74122 0.0
O83 O 0.74467 0.68475 0.75677 0.0
Co84 Co 0.39716 0.34583 0.58732 0.0
O85 O 0.37429 0.36487 0.57438 0.0
O86 O 0.42513 0.40452 0.58769 0.0
C87 C 0.33934 0.29627 0.59629 0.0
O88 O 0.42733 0.33673 0.60216 0.0
Co89 Co 0.38272 0.25871 0.58463 0.0
O90 O 0.40497 0.2699 0.60292 0.0
C91 C 0.43793 0.32128 0.56618 0.0
C92 C 0.40114 0.40135 0.57814 0.0
C93 C 0.42487 0.30563 0.60786 0.0
O94 O 0.43662 0.34811 0.57358 0.0
O95 O 0.41557 0.28312 0.56813 0.0
O96 O 0.35367 0.33385 0.59989 0.0
O97 O 0.35717 0.29092 0.58625 0.0
Co98 Co 0.68193 0.059 0.58598 0.0
O99 O 0.70116 0.03111 0.59676 0.0
O100 O 0.74045 0.08764 0.58584 0.0
C101 C 0.63258 0.00434 0.57508 0.0
O102 O 0.67322 0.09573 0.57359 0.0
Co103 Co 0.59465 0.04271 0.58937 0.0
O104 O 0.60655 0.07261 0.57242 0.0
C105 C 0.65528 0.08731 0.61013 0.0
C106 C 0.73748 0.06003 0.59389 0.0
C107 C 0.64264 0.09547 0.56834 0.0
O108 O 0.68314 0.09125 0.60211 0.0
O109 O 0.6176 0.06594 0.60734 0.0
O110 O 0.66991 0.02076 0.57115 0.0
O111 O 0.62742 0.01856 0.58607 0.0
Co112 Co 0.97729 0.64011 0.58876 0.0
O113 O 0.02058 0.6626 0.57597 0.0
O114 O 0.00756 0.61257 0.58959 0.0
C115 C 0.98549 0.6985 0.59713 0.0
O116 O 0.9365 0.61035 0.60354 0.0
Co117 Co 0.90462 0.65351 0.58578 0.0
O118 O 0.89158 0.63135 0.60402 0.0
C119 C 0.91536 0.60105 0.5669 0.0
C120 C 0.02933 0.63595 0.57997 0.0
C121 C 0.90724 0.61228 0.6091 0.0
O122 O 0.94065 0.60002 0.5749 0.0
O123 O 0.90058 0.62396 0.56877 0.0
O124 O 0.00839 0.68503 0.60125 0.0
O125 O 0.96274 0.67922 0.58715 0.0
Co126 Co 0.97486 0.35267 0.08816 0.0
O127 O 0.99972 0.33209 0.09969 0.0
O128 O 0.94732 0.29412 0.08669 0.0
C129 C 0.03118 0.40438 0.07922 0.0
O130 O 0.94247 0.36369 0.07462 0.0
Co131 Co 0.98803 0.43832 0.09352 0.0
O132 O 0.96425 0.43042 0.07552 0.0
C133 C 0.93733 0.37235 0.11164 0.0
C134 C 0.97233 0.29609 0.09569 0.0
C135 C 0.94421 0.39568 0.06991 0.0
O136 O 0.93727 0.3473 0.10306 0.0
O137 O 0.95878 0.41087 0.1103 0.0
O138 O 0.01691 0.3676 0.07473 0.0
O139 O 0.01431 0.40748 0.08992 0.0
Co140 Co 0.69247 0.65411 0.08884 0.0
O141 O 0.67008 0.67926 0.07827 0.0
O142 O 0.63397 0.62179 0.08913 0.0
C143 C 0.73927 0.70932 0.10003 0.0
O144 O 0.70569 0.62043 0.10114 0.0
Co145 Co 0.78167 0.67789 0.08407 0.0
O146 O 0.77318 0.64751 0.10071 0.0
C147 C 0.7207 0.62939 0.06406 0.0
C148 C 0.63478 0.64863 0.08117 0.0
C149 C 0.73846 0.6235 0.10565 0.0
O150 O 0.69315 0.62312 0.07258 0.0
O151 O 0.75834 0.6537 0.06627 0.0
O152 O 0.70173 0.69086 0.10383 0.0
O153 O 0.74565 0.6974 0.08874 0.0
Co154 Co 0.39034 0.0605 0.08948 0.0
O155 O 0.34446 0.03471 0.10123 0.0
O156 O 0.35889 0.08652 0.08823 0.0
C157 C 0.38631 0.00464 0.08049 0.0
O158 O 0.43341 0.09382 0.07571 0.0
Co159 Co 0.46484 0.05103 0.09348 0.0
O160 O 0.48059 0.07586 0.07562 0.0
C161 C 0.44609 0.09646 0.11298 0.0
C162 C 0.33565 0.06138 0.09726 0.0
C163 C 0.46427 0.09423 0.07049 0.0
O164 O 0.42274 0.09858 0.1044 0.0
O165 O 0.46301 0.0755 0.11102 0.0
O166 O 0.3632 0.01753 0.0761 0.0
O167 O 0.40675 0.02274 0.09101 0.0
Co168 Co 0.06291 0.69017 0.92063 0.0
O169 O 0.03798 0.70961 0.90863 0.0
O170 O 0.09007 0.74877 0.92158 0.0
C171 C 0.00648 0.63913 0.92981 0.0
O172 O 0.09535 0.68066 0.93459 0.0
Co173 Co 0.05041 0.60442 0.91644 0.0
O174 O 0.0742 0.61407 0.93449 0.0
C175 C 0.10239 0.66902 0.89803 0.0
C176 C 0.06501 0.74596 0.91246 0.0
C177 C 0.09407 0.64939 0.93972 0.0
O178 O 0.10096 0.69459 0.90603 0.0
O179 O 0.08144 0.63063 0.89977 0.0
O180 O 0.02072 0.67628 0.9339 0.0
O181 O 0.0235 0.63504 0.9193 0.0
Co182 Co 0.34282 0.3935 0.92284 0.0
O183 O 0.36317 0.36618 0.93338 0.0
O184 O 0.40119 0.42227 0.92205 0.0
C185 C 0.29242 0.3388 0.91241 0.0
O186 O 0.33281 0.42952 0.91061 0.0
Co187 Co 0.25609 0.37772 0.92732 0.0
O188 O 0.26609 0.40653 0.91021 0.0
C189 C 0.31888 0.42284 0.94737 0.0
C190 C 0.39912 0.39518 0.93016 0.0
C191 C 0.30171 0.42897 0.90568 0.0
O192 O 0.34572 0.42644 0.93896 0.0
O193 O 0.2809 0.40146 0.94506 0.0
O194 O 0.32934 0.35473 0.9081 0.0
O195 O 0.28841 0.3533 0.92353 0.0
Co196 Co 0.63584 0.98281 0.92098 0.0
O197 O 0.67954 0.00594 0.90832 0.0
O198 O 0.66636 0.9556 0.92182 0.0
C199 C 0.6431 0.04053 0.9296 0.0
O200 O 0.59494 0.95236 0.93565 0.0
Co201 Co 0.56242 0.99478 0.91798 0.0
O202 O 0.54952 0.97267 0.93622 0.0
C203 C 0.57381 0.94288 0.89905 0.0
C204 C 0.68834 0.97928 0.9123 0.0
C205 C 0.56557 0.95393 0.94127 0.0
O206 O 0.59985 0.94293 0.90697 0.0
O207 O 0.55798 0.96482 0.90101 0.0
O208 O 0.6663 0.02732 0.93363 0.0
O209 O 0.62069 0.02158 0.9195 0.0
Co210 Co 0.64024 0.6809 0.419 0.0
O211 O 0.66124 0.65722 0.43075 0.0
O212 O 0.60616 0.622 0.41861 0.0
C213 C 0.69916 0.72561 0.40932 0.0
O214 O 0.6113 0.69681 0.4054 0.0
Co215 Co 0.66841 0.77181 0.42368 0.0
O216 O 0.64213 0.76503 0.40624 0.0
C217 C 0.61374 0.71145 0.44273 0.0
C218 C 0.63074 0.62218 0.42746 0.0
C219 C 0.61755 0.73095 0.40082 0.0
O220 O 0.60712 0.68354 0.43419 0.0
O221 O 0.64025 0.74883 0.44096 0.0
O222 O 0.67957 0.68809 0.40524 0.0
O223 O 0.68512 0.73299 0.41995 0.0
Co224 Co 0.3582 0.98164 0.42189 0.0
O225 O 0.34475 0.01406 0.41117 0.0
O226 O 0.30102 0.96222 0.42334 0.0
C227 C 0.41347 0.03255 0.43152 0.0
O228 O 0.36219 0.94288 0.43466 0.0
Co229 Co 0.43831 0.98286 0.4166 0.0
O230 O 0.42659 0.9571 0.4343 0.0
C231 C 0.37162 0.94286 0.39752 0.0
C232 C 0.30782 0.99099 0.41515 0.0
C233 C 0.39148 0.93992 0.43952 0.0
O234 O 0.34787 0.94448 0.4062 0.0
O235 O 0.4098 0.95976 0.39928 0.0
O236 O 0.37786 0.02227 0.43605 0.0
O237 O 0.41404 0.01527 0.42053 0.0
Co238 Co 0.05675 0.39261 0.41809 0.0
O239 O 0.01211 0.37195 0.43026 0.0
O240 O 0.03547 0.42864 0.41887 0.0
C241 C 0.0392 0.33465 0.40701 0.0
O242 O 0.10096 0.42198 0.4042 0.0
Co243 Co 0.11771 0.36295 0.42012 0.0
O244 O 0.13653 0.39031 0.40277 0.0
C245 C 0.11551 0.41533 0.44106 0.0
C246 C 0.01 0.40381 0.42755 0.0
C247 C 0.12716 0.41549 0.39841 0.0
O248 O 0.09443 0.42359 0.43329 0.0
O249 O 0.12509 0.38874 0.43814 0.0
O250 O 0.02234 0.35553 0.40412 0.0
O251 O 0.06144 0.34646 0.41754 0.0
Zn252 Zn 0.00731 0.01068 0.12931 0.0
Zn253 Zn 0.02796 0.05367 0.17754 0.0
Zn254 Zn 0.01678 0.026 0.15461 0.0
C255 C 0.99419 0.96878 0.17951 0.0
C256 C 0.10375 0.08845 0.16812 0.0
O257 O 0.98674 0.05668 0.14541 0.0
O258 O 0.98126 0.04129 0.12408 0.0
C259 C 0.96612 0.93622 0.14291 0.0
O260 O 0.99238 0.96992 0.16679 0.0
O261 O 0.00847 0.00131 0.18614 0.0
O262 O 0.08558 0.09013 0.17828 0.0
O263 O 0.0837 0.06565 0.1582 0.0
O264 O 0.97378 0.95157 0.13152 0.0
O265 O 0.98023 0.95896 0.1533 0.0
O266 O 0.07766 0.04952 0.14537 0.0
O267 O 0.06421 0.03344 0.12416 0.0
C268 C 0.08958 0.04883 0.13344 0.0
O269 O 0.97891 0.05393 0.15929 0.0
O270 O 0.99444 0.07779 0.17973 0.0
C271 C 0.97665 0.06028 0.13355 0.0
C272 C 0.97332 0.07108 0.16952 0.0
Zn273 Zn 0.06096 0.01236 0.34441 0.0
Zn274 Zn 0.01319 0.03327 0.38226 0.0
Zn275 Zn 0.02668 0.02237 0.36016 0.0
C276 C 0.02029 0.0976 0.366 0.0
C277 C 0.94463 0.96095 0.37277 0.0
O278 O 0.99494 0.95855 0.35371 0.0
O279 O 0.05351 0.9619 0.35288 0.0
C280 C 0.09566 0.09225 0.34456 0.0
O281 O 0.02265 0.07644 0.3564 0.0
O282 O 0.01885 0.08671 0.37786 0.0
O283 O 0.95702 0.98564 0.38243 0.0
O284 O 0.96777 0.96733 0.36277 0.0
O285 O 0.10991 0.06904 0.34556 0.0
O286 O 0.05846 0.07835 0.34785 0.0
O287 O 0.01344 0.04996 0.34342 0.0
O288 O 0.0162 0.00397 0.33113 0.0
C289 C 0.00224 0.02731 0.33289 0.0
O290 O 0.07909 0.0297 0.36989 0.0
O291 O 0.05902 0.02916 0.39029 0.0
C292 C 0.0153 0.9405 0.35258 0.0
C293 C 0.08454 0.02928 0.38229 0.0
Zn294 Zn 0.01206 0.0214 0.88381 0.0
Zn295 Zn 0.00613 0.00978 0.8332 0.0
Zn296 Zn 0.0093 0.01631 0.85808 0.0
C297 C 0.04371 0.09153 0.83765 0.0
C298 C 0.92712 0.96754 0.84058 0.0
O299 O 0.03958 0.9837 0.86551 0.0
O300 O 0.03926 0.99065 0.88726 0.0
C301 C 0.05557 0.10069 0.87459 0.0
O302 O 0.03627 0.07875 0.84967 0.0
O303 O 0.03517 0.06688 0.82816 0.0
O304 O 0.94801 0.98057 0.83021 0.0
O305 O 0.94442 0.97709 0.85202 0.0
O306 O 0.04442 0.08106 0.88524 0.0
O307 O 0.04464 0.08191 0.86335 0.0
O308 O 0.94588 0.9876 0.86562 0.0
O309 O 0.9536 0.99452 0.88735 0.0
C310 C 0.93076 0.98288 0.87736 0.0
O311 O 0.04634 0.98958 0.85165 0.0
O312 O 0.03444 0.97992 0.83017 0.0
C313 C 0.04763 0.97651 0.8772 0.0
C314 C 0.05219 0.97772 0.84028 0.0
Zn315 Zn 0.00234 0.01656 0.6723 0.0
Zn316 Zn 0.02139 0.01864 0.62522 0.0
Zn317 Zn 0.0152 0.01859 0.65037 0.0
C318 C 0.98544 0.93797 0.63276 0.0
C319 C 0.10023 0.06515 0.63552 0.0
O320 O 0.99091 0.05911 0.65498 0.0
O321 O 0.01228 0.0712 0.67563 0.0
C322 C 0.94589 0.94473 0.66575 0.0
O323 O 0.98841 0.95431 0.64422 0.0
O324 O 0.99744 0.95964 0.62254 0.0
O325 O 0.08091 0.05331 0.62476 0.0
O326 O 0.08134 0.0545 0.64667 0.0
O327 O 0.94527 0.97218 0.67253 0.0
O328 O 0.97478 0.95469 0.65735 0.0
O329 O 0.07478 0.04205 0.6602 0.0
O330 O 0.0446 0.00426 0.67755 0.0
C331 C 0.07647 0.02518 0.67094 0.0
O332 O 0.98118 0.04655 0.64184 0.0
O333 O 0.98835 0.04243 0.62024 0.0
C334 C 0.99849 0.07998 0.66578 0.0
C335 C 0.97333 0.05166 0.62983 0.0
Zn336 Zn 0.69787 0.36979 0.52581 0.0
Zn337 Zn 0.68619 0.35163 0.45521 0.0
Zn338 Zn 0.6892 0.35712 0.47977 0.0
C339 C 0.76825 0.39739 0.46156 0.0
C340 C 0.64945 0.2723 0.46515 0.0
O341 O 0.65236 0.3806 0.48809 0.0
O342 O 0.67921 0.37613 0.50643 0.0
C343 C 0.75317 0.39952 0.49963 0.0
O344 O 0.7531 0.3907 0.4733 0.0
O345 O 0.74519 0.38442 0.4516 0.0
O346 O 0.6593 0.29143 0.45438 0.0
O347 O 0.65832 0.2917 0.47625 0.0
O348 O 0.71981 0.37936 0.50589 0.0
O349 O 0.75139 0.39651 0.487 0.0
O350 O 0.66686 0.29837 0.49 0.0
O351 O 0.68317 0.33759 0.50737 0.0
C352 C 0.67104 0.30217 0.5026 0.0
O353 O 0.65441 0.38623 0.47406 0.0
O354 O 0.65307 0.37721 0.45239 0.0
C355 C 0.65368 0.38295 0.50075 0.0
C356 C 0.64402 0.39099 0.46242 0.0
Zn357 Zn 0.68278 0.34448 0.71841 0.0
Zn358 Zn 0.6933 0.3443 0.67123 0.0
Zn359 Zn 0.68631 0.34371 0.69328 0.0
C360 C 0.6227 0.34038 0.67447 0.0
C361 C 0.75554 0.41409 0.67704 0.0
O362 O 0.71808 0.31283 0.70072 0.0
O363 O 0.71389 0.31791 0.72243 0.0
C364 C 0.6028 0.30026 0.70948 0.0
O365 O 0.62571 0.3224 0.68471 0.0
O366 O 0.65355 0.36127 0.66742 0.0
O367 O 0.75157 0.38516 0.66988 0.0
O368 O 0.72891 0.40686 0.68608 0.0
O369 O 0.62334 0.31213 0.71999 0.0
O370 O 0.62058 0.30995 0.69812 0.0
O371 O 0.71671 0.40857 0.69927 0.0
O372 O 0.70961 0.40381 0.72102 0.0
C373 C 0.72149 0.42534 0.71076 0.0
O374 O 0.70756 0.30141 0.68743 0.0
O375 O 0.67734 0.28738 0.66804 0.0
C376 C 0.72648 0.30707 0.71255 0.0
C377 C 0.69446 0.2789 0.67695 0.0
Zn378 Zn 0.68967 0.35702 0.21561 0.0
Zn379 Zn 0.67487 0.33707 0.1649 0.0
Zn380 Zn 0.68232 0.34718 0.18996 0.0
C381 C 0.71271 0.41938 0.16837 0.0
C382 C 0.59723 0.29673 0.17424 0.0
O383 O 0.71221 0.31422 0.19739 0.0
O384 O 0.7155 0.32504 0.21902 0.0
C385 C 0.73313 0.43396 0.20474 0.0
O386 O 0.70847 0.40811 0.18055 0.0
O387 O 0.70147 0.39359 0.15911 0.0
O388 O 0.6162 0.30623 0.16343 0.0
O389 O 0.61652 0.30881 0.1853 0.0
O390 O 0.72399 0.41657 0.2158 0.0
O391 O 0.71958 0.41323 0.19394 0.0
O392 O 0.6206 0.32116 0.19869 0.0
O393 O 0.63205 0.33276 0.22018 0.0
C394 C 0.60755 0.31937 0.21061 0.0
O395 O 0.7176 0.31869 0.18342 0.0
O396 O 0.7043 0.30827 0.16202 0.0
C397 C 0.7216 0.3086 0.20909 0.0
C398 C 0.72264 0.30635 0.17202 0.0
Zn399 Zn 0.67687 0.36312 0.00665 0.0
Zn400 Zn 0.68526 0.3594 0.9596 0.0
Zn401 Zn 0.6826 0.36151 0.98462 0.0
C402 C 0.64824 0.27903 0.9679 0.0
C403 C 0.76549 0.40551 0.96804 0.0
O404 O 0.66107 0.40391 0.98996 0.0
O405 O 0.69305 0.42042 0.00905 0.0
C406 C 0.61516 0.29237 1.00167 0.0
O407 O 0.65282 0.29626 0.9793 0.0
O408 O 0.65979 0.30004 0.95753 0.0
O409 O 0.74451 0.39298 0.95762 0.0
O410 O 0.74821 0.39595 0.97948 0.0
O411 O 0.61875 0.32198 0.00837 0.0
O412 O 0.64145 0.299 0.99257 0.0
O413 O 0.7439 0.38412 0.99295 0.0
O414 O 0.717 0.34679 0.01062 0.0
C415 C 0.74744 0.36705 1.00335 0.0
O416 O 0.64851 0.39009 0.97694 0.0
O417 O 0.65224 0.38367 0.95528 0.0
C418 C 0.67522 0.42783 1.00009 0.0
C419 C 0.63911 0.3943 0.96506 0.0
Zn420 Zn 0.38249 0.71571 0.85697 0.0
Zn421 Zn 0.34699 0.68786 0.79233 0.0
Zn422 Zn 0.35755 0.69073 0.81706 0.0
C423 C 0.42875 0.72151 0.79444 0.0
C424 C 0.30435 0.60759 0.80145 0.0
O425 O 0.33095 0.71992 0.83031 0.0
O426 O 0.34625 0.73797 0.85205 0.0
C427 C 0.42891 0.73045 0.83222 0.0
O428 O 0.41742 0.71691 0.80668 0.0
O429 O 0.40299 0.71217 0.78537 0.0
O430 O 0.31238 0.62817 0.79103 0.0
O431 O 0.31881 0.62521 0.81266 0.0
O432 O 0.39827 0.70785 0.83902 0.0
O433 O 0.42338 0.72706 0.81979 0.0
O434 O 0.33165 0.62953 0.82592 0.0
O435 O 0.35805 0.67211 0.84202 0.0
C436 C 0.33982 0.63526 0.83825 0.0
O437 O 0.32783 0.72614 0.81494 0.0
O438 O 0.32078 0.72088 0.79321 0.0
C439 C 0.327 0.7354 0.84139 0.0
C440 C 0.31624 0.73444 0.80415 0.0
Zn441 Zn 0.34924 0.68611 0.05158 0.0
Zn442 Zn 0.3658 0.68669 1.0044 0.0
Zn443 Zn 0.35473 0.68569 0.02643 0.0
C444 C 0.29267 0.6797 0.00635 0.0
C445 C 0.42424 0.75814 0.01065 0.0
O446 O 0.38776 0.65677 0.03475 0.0
O447 O 0.38175 0.66161 0.05638 0.0
C448 C 0.27006 0.64003 0.04168 0.0
O449 O 0.29486 0.66284 0.01702 0.0
O450 O 0.32416 0.70025 0.99953 0.0
O451 O 0.42329 0.73002 1.00379 0.0
O452 O 0.39608 0.74925 0.01926 0.0
O453 O 0.28972 0.65197 0.05237 0.0
O454 O 0.28868 0.65049 0.03047 0.0
O455 O 0.38286 0.7503 0.0324 0.0
O456 O 0.37399 0.74527 0.05409 0.0
C457 C 0.38621 0.76684 0.04385 0.0
O458 O 0.37772 0.64421 0.02163 0.0
O459 O 0.35397 0.63122 1.00126 0.0
C460 C 0.39584 0.6516 0.04671 0.0
C461 C 0.36849 0.62259 0.01095 0.0
Zn462 Zn 0.35404 0.68111 0.54959 0.0
Zn463 Zn 0.34386 0.66506 0.50249 0.0
Zn464 Zn 0.34858 0.67317 0.52456 0.0
C465 C 0.34909 0.73593 0.50545 0.0
C466 C 0.27585 0.60207 0.50962 0.0
O467 O 0.38057 0.64168 0.53139 0.0
O468 O 0.3797 0.64877 0.55312 0.0
C469 C 0.39721 0.75964 0.53943 0.0
O470 O 0.36826 0.73316 0.51542 0.0
O471 O 0.32645 0.70448 0.49873 0.0
O472 O 0.30308 0.60696 0.50159 0.0
O473 O 0.28422 0.62881 0.51883 0.0
O474 O 0.38828 0.74095 0.55027 0.0
O475 O 0.3838 0.73987 0.52843 0.0
O476 O 0.28516 0.64346 0.53196 0.0
O477 O 0.2957 0.65607 0.55343 0.0
C478 C 0.27154 0.64162 0.54379 0.0
O479 O 0.38994 0.65172 0.518 0.0
O480 O 0.39992 0.68029 0.49848 0.0
C481 C 0.38822 0.63445 0.54314 0.0
C482 C 0.41036 0.66417 0.50717 0.0
Zn483 Zn 0.35068 0.69856 0.29175 0.0
Zn484 Zn 0.34305 0.69207 0.34273 0.0
Zn485 Zn 0.34793 0.69406 0.3176 0.0
C486 C 0.42415 0.72522 0.33759 0.0
C487 C 0.29951 0.61227 0.33493 0.0
O488 O 0.31171 0.72168 0.31071 0.0
O489 O 0.31594 0.72196 0.28887 0.0
C490 C 0.43077 0.74397 0.30077 0.0
O491 O 0.41082 0.72022 0.32561 0.0
O492 O 0.40033 0.71662 0.34724 0.0
O493 O 0.30998 0.6338 0.34529 0.0
O494 O 0.31096 0.62883 0.32347 0.0
O495 O 0.41005 0.73407 0.29029 0.0
O496 O 0.41328 0.7311 0.31208 0.0
O497 O 0.32051 0.63089 0.30992 0.0
O498 O 0.327 0.63974 0.28825 0.0
C499 C 0.31635 0.6164 0.29806 0.0
O500 O 0.32014 0.73013 0.32435 0.0
O501 O 0.31707 0.72364 0.3461 0.0
C502 C 0.30183 0.72868 0.29927 0.0
C503 C 0.31103 0.73817 0.33586 0.0
H504 H 0.28145 0.22901 0.2224 0.0
H505 H 0.1597 0.07598 0.17949 0.0
H506 H 0.21383 0.28133 0.2072 0.0
H507 H 0.14516 0.16434 0.15843 0.0
H508 H 0.21371 0.13005 0.19242 0.0
H509 H 0.26365 0.18603 0.2026 0.0
C510 C 0.26283 0.23148 0.21492 0.0
C511 C 0.24812 0.25807 0.2167 0.0
C512 C 0.2005 0.13825 0.18453 0.0
C513 C 0.22733 0.20858 0.194 0.0
C514 C 0.1699 0.10713 0.17694 0.0
C515 C 0.14761 0.11577 0.16805 0.0
C516 C 0.20843 0.17813 0.18316 0.0
C517 C 0.16153 0.1565 0.16528 0.0
C518 C 0.2526 0.20679 0.2036 0.0
C519 C 0.22505 0.26064 0.20647 0.0
N520 N 0.18994 0.18615 0.1732 0.0
N521 N 0.2151 0.23596 0.19567 0.0
H522 H 0.76143 0.95685 0.20909 0.0
H523 H 0.96612 0.1308 0.18164 0.0
H524 H 0.81829 0.08058 0.22336 0.0
H525 H 0.89697 0.01492 0.16199 0.0
H526 H 0.90557 0.11827 0.19356 0.0
H527 H 0.80386 0.98048 0.18935 0.0
C528 C 0.78254 0.98903 0.20804 0.0
C529 C 0.78689 0.01661 0.21809 0.0
C530 C 0.90313 0.09604 0.18633 0.0
C531 C 0.83568 0.04394 0.19542 0.0
C532 C 0.93766 0.10351 0.17938 0.0
C533 C 0.93659 0.07353 0.17102 0.0
C534 C 0.86767 0.05792 0.18511 0.0
C535 C 0.89906 0.03869 0.16844 0.0
C536 C 0.80661 0.00257 0.19668 0.0
C537 C 0.81431 0.05804 0.21601 0.0
N538 N 0.8663 0.03114 0.17582 0.0
N539 N 0.8381 0.07032 0.20504 0.0
H540 H 0.91311 0.73401 0.21694 0.0
H541 H 0.98982 0.9607 0.20613 0.0
H542 H 0.01816 0.82751 0.23744 0.0
H543 H 0.97379 0.89147 0.17025 0.0
H544 H 0.98285 0.90477 0.21901 0.0
H545 H 0.92064 0.78436 0.2005 0.0
C546 C 0.93798 0.76498 0.2179 0.0
C547 C 0.96489 0.77675 0.22865 0.0
C548 C 0.98072 0.90175 0.20832 0.0
C549 C 0.97301 0.83399 0.2101 0.0
C550 C 0.98448 0.9336 0.20088 0.0
C551 C 0.98309 0.93128 0.18696 0.0
C552 C 0.97461 0.86654 0.20197 0.0
C553 C 0.97527 0.89472 0.18092 0.0
C554 C 0.94231 0.79344 0.20849 0.0
C555 C 0.99673 0.8171 0.22936 0.0
N556 N 0.97127 0.86352 0.18849 0.0
N557 N 0.99938 0.84443 0.22037 0.0
H558 H 0.1611 0.26615 0.28195 0.0
H559 H 0.17652 0.13391 0.33969 0.0
H560 H 0.26188 0.24807 0.28741 0.0
H561 H 0.06759 0.13564 0.33156 0.0
H562 H 0.21186 0.18555 0.32295 0.0
H563 H 0.12962 0.22659 0.30188 0.0
C564 C 0.1767 0.25398 0.28733 0.0
C565 C 0.21414 0.26023 0.28288 0.0
C566 C 0.18036 0.17507 0.32491 0.0
C567 C 0.17831 0.21523 0.30582 0.0
C568 C 0.16019 0.14574 0.33454 0.0
C569 C 0.11888 0.13002 0.33691 0.0
C570 C 0.15911 0.18879 0.31748 0.0
C571 C 0.09941 0.14679 0.33002 0.0
C572 C 0.15869 0.23145 0.29874 0.0
C573 C 0.23289 0.2438 0.29034 0.0
N574 N 0.11956 0.17488 0.32046 0.0
N575 N 0.21476 0.22206 0.30139 0.0
H576 H 0.82596 0.0572 0.28742 0.0
H577 H 0.97565 0.98276 0.31018 0.0
H578 H 0.81565 0.94362 0.27574 0.0
H579 H 0.96362 0.07165 0.33317 0.0
H580 H 0.92391 0.97666 0.29516 0.0
H581 H 0.88178 0.07015 0.30234 0.0
C582 C 0.83531 0.03501 0.28798 0.0
C583 C 0.81589 -0.00081 0.28029 0.0
C584 C 0.93257 0.99766 0.30345 0.0
C585 C 0.87992 0.01416 0.29715 0.0
C586 C 0.9624 0.00138 0.31203 0.0
C587 C 0.97397 0.02762 0.32304 0.0
C588 C 0.91389 0.0204 0.30576 0.0
C589 C 0.95557 0.05097 0.32482 0.0
C590 C 0.86709 0.04243 0.2965 0.0
C591 C 0.82936 0.97156 0.28146 0.0
N592 N 0.92626 0.04673 0.31628 0.0
N593 N 0.8605 0.97974 0.28963 0.0
H594 H 0.90004 0.7533 0.29404 0.0
H595 H 0.04822 0.89234 0.35177 0.0
H596 H 0.02368 0.78255 0.29808 0.0
H597 H 0.94193 0.895 0.34024 0.0
H598 H 0.02969 0.8363 0.33624 0.0
H599 H 0.90707 0.79131 0.31439 0.0
C600 C 0.92863 0.76745 0.29924 0.0
C601 C 0.96153 0.76505 0.29423 0.0
C602 C 0.00999 0.84859 0.3373 0.0
C603 C 0.9694 0.80822 0.31766 0.0
C604 C 0.02029 0.88033 0.34626 0.0
C605 C 0.997 0.89892 0.3471 0.0
C606 C 0.97607 0.83525 0.32917 0.0
C607 C 0.96094 0.8818 0.33983 0.0
C608 C 0.93251 0.7891 0.31087 0.0
C609 C 0.9977 0.78398 0.30146 0.0
N610 N 0.95193 0.85134 0.33096 0.0
N611 N 0.0007 0.80488 0.31279 0.0
H612 H 0.81803 0.75553 0.80131 0.0
H613 H 0.86872 0.96936 0.82629 0.0
H614 H 0.76879 0.82231 0.78322 0.0
H615 H 0.89288 0.89028 0.8492 0.0
H616 H 0.8193 0.9111 0.8133 0.0
H617 H 0.83577 0.79943 0.82081 0.0
C618 C 0.81077 0.77934 0.80144 0.0
C619 C 0.79268 0.78575 0.79045 0.0
C620 C 0.8342 0.90605 0.82147 0.0
C621 C 0.81287 0.83626 0.81288 0.0
C622 C 0.86192 0.93931 0.82906 0.0
C623 C 0.88514 0.93457 0.83871 0.0
C624 C 0.83053 0.86811 0.8234 0.0
C625 C 0.87559 0.89515 0.84181 0.0
C626 C 0.82057 0.8042 0.81267 0.0
C627 C 0.78326 0.81658 0.79136 0.0
N628 N 0.85003 0.86352 0.83386 0.0
N629 N 0.7941 0.8411 0.80227 0.0
H630 H 0.20958 0.96214 0.78594 0.0
H631 H 0.12863 0.02333 0.84976 0.0
H632 H 0.26594 0.08292 0.8028 0.0
H633 H 0.05413 0.92102 0.82436 0.0
H634 H 0.18848 0.03381 0.8376 0.0
H635 H 0.16188 0.93741 0.80441 0.0
C636 C 0.21225 0.98346 0.79357 0.0
C637 C 0.2414 0.02493 0.79263 0.0
C638 C 0.15916 0.0082 0.83499 0.0
C639 C 0.18713 0.99646 0.81394 0.0
C640 C 0.12507 0.00175 0.84208 0.0
C641 C 0.08645 0.97157 0.83791 0.0
C642 C 0.15434 0.98388 0.82383 0.0
C643 C 0.08346 0.94482 0.82779 0.0
C644 C 0.18505 0.96921 0.80414 0.0
C645 C 0.24355 0.05088 0.80295 0.0
N646 N 0.11689 0.95206 0.82091 0.0
N647 N 0.21656 0.03628 0.81311 0.0
H648 H 0.13401 0.28088 0.78219 0.0
H649 H 0.00054 0.12915 0.83963 0.0
H650 H 0.0072 0.23812 0.78779 0.0
H651 H 0.11438 0.14606 0.82618 0.0
H652 H 0.00979 0.18401 0.82503 0.0
H653 H 0.13303 0.24499 0.802 0.0
C654 C 0.10587 0.26402 0.78757 0.0
C655 C 0.07041 0.26212 0.78313 0.0
C656 C 0.03335 0.1766 0.8256 0.0
C657 C 0.0694 0.22109 0.80605 0.0
C658 C 0.02847 0.1459 0.83411 0.0
C659 C 0.057 0.13355 0.83416 0.0
C660 C 0.06709 0.19495 0.81716 0.0
C661 C 0.092 0.15516 0.82651 0.0
C662 C 0.10546 0.24362 0.79895 0.0
C663 C 0.03512 0.24003 0.7907 0.0
N664 N 0.09585 0.18448 0.81819 0.0
N665 N 0.03545 0.22018 0.80175 0.0
H666 H 0.8714 0.7627 0.72304 0.0
H667 H 0.86522 0.90875 0.66915 0.0
H668 H 0.77671 0.79091 0.71969 0.0
H669 H 0.96427 0.88756 0.67271 0.0
H670 H 0.82547 0.85286 0.68419 0.0
H671 H 0.90017 0.79787 0.70221 0.0
C672 C 0.85655 0.77616 0.71794 0.0
C673 C 0.82186 0.77434 0.72329 0.0
C674 C 0.85549 0.85958 0.68146 0.0
C675 C 0.85445 0.8142 0.69931 0.0
C676 C 0.87794 0.8911 0.6727 0.0
C677 C 0.91799 0.90267 0.66975 0.0
C678 C 0.87358 0.84008 0.68754 0.0
C679 C 0.93334 0.87929 0.67472 0.0
C680 C 0.87291 0.79604 0.70599 0.0
C681 C 0.80378 0.79198 0.7161 0.0
N682 N 0.91144 0.84965 0.68366 0.0
N683 N 0.82041 0.81133 0.70456 0.0
H684 H 0.27637 0.11894 0.72377 0.0
H685 H 0.08746 0.96572 0.67993 0.0
H686 H 0.21924 0.98866 0.72588 0.0
H687 H 0.14962 0.09524 0.67505 0.0
H688 H 0.14131 0.97363 0.69449 0.0
H689 H 0.23559 0.11117 0.70437 0.0
C690 C 0.25535 0.08861 0.72015 0.0
C691 C 0.25093 0.05433 0.72666 0.0
C692 C 0.1438 0.00039 0.69007 0.0
C693 C 0.20404 0.04536 0.70426 0.0
C694 C 0.11319 0.99584 0.68166 0.0
C695 C 0.1142 0.0299 0.6763 0.0
C696 C 0.17539 0.03944 0.69342 0.0
C697 C 0.14795 0.06823 0.67892 0.0
C698 C 0.23219 0.08428 0.70899 0.0
C699 C 0.22354 0.01597 0.72131 0.0
N700 N 0.17692 0.07206 0.68752 0.0
N701 N 0.20091 0.01255 0.71053 0.0
H702 H 0.97111 0.22049 0.72226 0.0
H703 H 0.04999 0.1577 0.65887 0.0
H704 H 0.09242 0.28814 0.70666 0.0
H705 H 0.93565 0.08009 0.67773 0.0
H706 H 0.05654 0.21538 0.67165 0.0
H707 H 0.95017 0.17815 0.70225 0.0
C708 C 0.99331 0.2267 0.71461 0.0
C709 C 0.03388 0.25733 0.71633 0.0
C710 C 0.02926 0.18606 0.67265 0.0
C711 C 0.00988 0.2092 0.69331 0.0
C712 C 0.02519 0.15333 0.66516 0.0
C713 C 0.99224 0.11434 0.66729 0.0
C714 C 0.00035 0.17931 0.68243 0.0
C715 C 0.9614 0.1099 0.6758 0.0
C716 C 0.98124 0.20261 0.70314 0.0
C717 C 0.06104 0.26434 0.70593 0.0
N718 N 0.96662 0.14183 0.68332 0.0
N719 N 0.04866 0.24017 0.69496 0.0
H720 H 0.88733 0.61156 0.54343 0.0
H721 H 0.77816 0.38541 0.5228 0.0
H722 H 0.91222 0.52844 0.56376 0.0
H723 H 0.80981 0.47754 0.49347 0.0
H724 H 0.82843 0.43658 0.53779 0.0
H725 H 0.85926 0.56339 0.52491 0.0
C726 C 0.88712 0.58327 0.54395 0.0
C727 C 0.90157 0.57368 0.55522 0.0
C728 C 0.82521 0.44549 0.52796 0.0
C729 C 0.86936 0.51849 0.53412 0.0
C730 C 0.79663 0.41633 0.51941 0.0
C731 C 0.79004 0.42751 0.50695 0.0
C732 C 0.84626 0.48628 0.52416 0.0
C733 C 0.81433 0.46787 0.503 0.0
C734 C 0.87147 0.55601 0.53333 0.0
C735 C 0.90113 0.53688 0.55529 0.0
N736 N 0.84077 0.49617 0.51174 0.0
N737 N 0.88449 0.51021 0.54501 0.0
H738 H 0.43426 0.28114 0.54312 0.0
H739 H 0.66247 0.41621 0.52532 0.0
H740 H 0.50961 0.39324 0.56437 0.0
H741 H 0.57431 0.35284 0.4946 0.0
H742 H 0.60811 0.40658 0.54035 0.0
H743 H 0.48588 0.30361 0.52573 0.0
C744 C 0.46157 0.31052 0.5441 0.0
C745 C 0.46777 0.33525 0.55525 0.0
C746 C 0.60075 0.39552 0.53024 0.0
C747 C 0.52694 0.36084 0.5355 0.0
C748 C 0.63171 0.40108 0.52167 0.0
C749 C 0.62276 0.38538 0.50872 0.0
C750 C 0.56049 0.37296 0.52596 0.0
C751 C 0.58242 0.36568 0.50449 0.0
C752 C 0.49082 0.32342 0.53414 0.0
C753 C 0.5036 0.3732 0.55595 0.0
N754 N 0.55258 0.3592 0.51319 0.0
N755 N 0.53215 0.38456 0.54633 0.0
H756 H 0.71058 0.16874 0.56312 0.0
H757 H 0.62501 0.2191 0.49887 0.0
H758 H 0.5897 0.08724 0.54889 0.0
H759 H 0.70851 0.31091 0.52607 0.0
H760 H 0.61926 0.16662 0.51408 0.0
H761 H 0.7185 0.2177 0.54623 0.0
C762 C 0.6859 0.16094 0.55636 0.0
C763 C 0.64931 0.12401 0.5575 0.0
C764 C 0.63879 0.19833 0.51666 0.0
C765 C 0.65833 0.17964 0.53809 0.0
C766 C 0.64206 0.22819 0.508 0.0
C767 C 0.66671 0.26938 0.51131 0.0
C768 C 0.66127 0.20994 0.52847 0.0
C769 C 0.68852 0.27954 0.52322 0.0
C770 C 0.69036 0.18894 0.54678 0.0
C771 C 0.61827 0.11557 0.54846 0.0
N772 N 0.68547 0.2501 0.53132 0.0
N773 N 0.62349 0.14312 0.53912 0.0
H774 H 0.84575 0.60924 0.62398 0.0
H775 H 0.83376 0.44021 0.6716 0.0
H776 H 0.93055 0.5672 0.62346 0.0
H777 H 0.74716 0.47953 0.67245 0.0
H778 H 0.87742 0.49716 0.6574 0.0
H779 H 0.81607 0.57113 0.64422 0.0
C780 C 0.85833 0.59218 0.62813 0.0
C781 C 0.8904 0.59099 0.62182 0.0
C782 C 0.84938 0.4941 0.66092 0.0
C783 C 0.85651 0.5474 0.64515 0.0
C784 C 0.8247 0.46186 0.66917 0.0
C785 C 0.78688 0.45526 0.67315 0.0
C786 C 0.83574 0.51946 0.65637 0.0
C787 C 0.77627 0.48383 0.66965 0.0
C788 C 0.84141 0.57056 0.63975 0.0
C789 C 0.90559 0.5687 0.62782 0.0
N790 N 0.80019 0.51425 0.66118 0.0
N791 N 0.88829 0.54755 0.63905 0.0
H792 H 0.47585 0.37687 0.62105 0.0
H793 H 0.54852 0.27054 0.67262 0.0
H794 H 0.42393 0.24722 0.62355 0.0
H795 H 0.61064 0.39893 0.66521 0.0
H796 H 0.49235 0.26168 0.65867 0.0
H797 H 0.51572 0.38545 0.64082 0.0
C798 C 0.47257 0.35017 0.62578 0.0
C799 C 0.44699 0.31132 0.62044 0.0
C800 C 0.51788 0.29191 0.66037 0.0
C801 C 0.49258 0.32095 0.64316 0.0
C802 C 0.54962 0.29695 0.66845 0.0
C803 C 0.5842 0.33543 0.66992 0.0
C804 C 0.52098 0.32566 0.65386 0.0
C805 C 0.58452 0.3687 0.66419 0.0
C806 C 0.49532 0.35508 0.63711 0.0
C807 C 0.44373 0.27785 0.62715 0.0
N808 N 0.55369 0.36301 0.65629 0.0
N809 N 0.46655 0.28345 0.63807 0.0
H810 H 0.73088 0.14683 0.61842 0.0
H811 H 0.64035 0.19987 0.68119 0.0
H812 H 0.60676 0.07768 0.63139 0.0
H813 H 0.75867 0.28038 0.66532 0.0
H814 H 0.63564 0.14492 0.66732 0.0
H815 H 0.74797 0.18668 0.63898 0.0
C816 C 0.70728 0.1397 0.62562 0.0
C817 C 0.6671 0.10939 0.62301 0.0
C818 C 0.66328 0.17419 0.66717 0.0
C819 C 0.68663 0.15462 0.64663 0.0
C820 C 0.66623 0.20532 0.67529 0.0
C821 C 0.70004 0.24442 0.67441 0.0
C822 C 0.69407 0.18265 0.65796 0.0
C823 C 0.7323 0.25038 0.66634 0.0
C824 C 0.71712 0.16241 0.63738 0.0
C825 C 0.63796 0.10127 0.63282 0.0
N826 N 0.72819 0.22005 0.65816 0.0
N827 N 0.64823 0.12398 0.6441 0.0
H828 H 0.47915 0.08774 0.13569 0.0
H829 H 0.53769 0.30161 0.16187 0.0
H830 H 0.43131 0.15773 0.11909 0.0
H831 H 0.56155 0.2201 0.18344 0.0
H832 H 0.48444 0.24406 0.14963 0.0
H833 H 0.49796 0.12993 0.15562 0.0
C834 C 0.47241 0.11189 0.13625 0.0
C835 C 0.45456 0.11984 0.12554 0.0
C836 C 0.50013 0.23835 0.15739 0.0
C837 C 0.476 0.16839 0.14844 0.0
C838 C 0.53007 0.27123 0.16455 0.0
C839 C 0.55432 0.26548 0.17349 0.0
C840 C 0.49532 0.1998 0.15901 0.0
C841 C 0.54359 0.2257 0.17654 0.0
C842 C 0.48279 0.13576 0.14772 0.0
C843 C 0.44567 0.15092 0.127 0.0
N844 N 0.51585 0.19438 0.16895 0.0
N845 N 0.45719 0.17454 0.13812 0.0
H846 H 0.87767 0.29357 0.11609 0.0
H847 H 0.79943 0.35161 0.18128 0.0
H848 H 0.93596 0.41288 0.13411 0.0
H849 H 0.72405 0.25001 0.15575 0.0
H850 H 0.85881 0.36253 0.16874 0.0
H851 H 0.83038 0.26779 0.13466 0.0
C852 C 0.88084 0.31433 0.12399 0.0
C853 C 0.91043 0.35573 0.12337 0.0
C854 C 0.82941 0.33697 0.16617 0.0
C855 C 0.85662 0.32606 0.14479 0.0
C856 C 0.79559 0.33026 0.17349 0.0
C857 C 0.75681 0.30018 0.16941 0.0
C858 C 0.82419 0.31306 0.15486 0.0
C859 C 0.75349 0.27374 0.15912 0.0
C860 C 0.85387 0.29949 0.13462 0.0
C861 C 0.91322 0.38094 0.13402 0.0
N862 N 0.78665 0.28128 0.15201 0.0
N863 N 0.88646 0.36579 0.14423 0.0
H864 H 0.67354 0.57534 0.1218 0.0
H865 H 0.7826 0.47318 0.15631 0.0
H866 H 0.79957 0.61534 0.11578 0.0
H867 H 0.66986 0.45721 0.17057 0.0
H868 H 0.79191 0.52982 0.14281 0.0
H869 H 0.67222 0.53425 0.14042 0.0
C870 C 0.7009 0.57556 0.12438 0.0
C871 C 0.73656 0.59855 0.11707 0.0
C872 C 0.76564 0.5148 0.14916 0.0
C873 C 0.73534 0.55183 0.13842 0.0
C874 C 0.76069 0.48287 0.157 0.0
C875 C 0.72582 0.46118 0.16468 0.0
C876 C 0.73479 0.52413 0.14869 0.0
C877 C 0.69755 0.47387 0.16494 0.0
C878 C 0.70022 0.55237 0.13508 0.0
C879 C 0.77123 0.59795 0.121 0.0
N880 N 0.70219 0.50401 0.15682 0.0
N881 N 0.76961 0.57475 0.13129 0.0
H882 H 0.43733 0.13549 0.05583 0.0
H883 H 0.62505 0.2276 0.006 0.0
H884 H 0.5301 0.10398 0.05643 0.0
H885 H 0.5379 0.26607 0.00867 0.0
H886 H 0.58288 0.1713 0.02096 0.0
H887 H 0.46706 0.17392 0.03569 0.0
C888 C 0.46392 0.13656 0.05174 0.0
C889 C 0.48152 0.11689 0.05801 0.0
C890 C 0.57248 0.19145 0.01799 0.0
C891 C 0.51575 0.16088 0.03478 0.0
C892 C 0.59624 0.22316 0.0093 0.0
C893 C 0.5849 0.25147 0.00619 0.0
C894 C 0.5373 0.18827 0.02351 0.0
C895 C 0.54769 0.24488 0.01089 0.0
C896 C 0.48082 0.15841 0.04017 0.0
C897 C 0.51571 0.11903 0.05207 0.0
N898 N 0.52554 0.21437 0.01946 0.0
N899 N 0.53189 0.14091 0.04086 0.0
H900 H 0.94602 0.4572 0.05577 0.0
H901 H 0.76093 0.30734 0.01014 0.0
H902 H 0.8915 0.32697 0.05577 0.0
H903 H 0.81969 0.43734 0.00764 0.0
H904 H 0.81566 0.31463 0.02413 0.0
H905 H 0.90638 0.45134 0.03625 0.0
C906 C 0.92583 0.42731 0.05166 0.0
C907 C 0.92172 0.39242 0.05761 0.0
C908 C 0.81727 0.34167 0.02032 0.0
C909 C 0.87625 0.38563 0.03509 0.0
C910 C 0.78622 0.33748 0.01221 0.0
C911 C 0.78599 0.3718 0.00775 0.0
C912 C 0.84793 0.38056 0.02427 0.0
C913 C 0.81905 0.41016 0.01082 0.0
C914 C 0.90334 0.42406 0.04043 0.0
C915 C 0.89544 0.35468 0.05166 0.0
N916 N 0.84838 0.41357 0.01914 0.0
N917 N 0.87346 0.35229 0.04083 0.0
H918 H 0.76756 0.64128 0.04211 0.0
H919 H 0.61073 0.42835 0.01072 0.0
H920 H 0.64629 0.5651 0.05689 0.0
H921 H 0.73103 0.5063 0.99587 0.0
H922 H 0.61659 0.48509 0.02393 0.0
H923 H 0.74935 0.5992 0.02218 0.0
C924 C 0.73699 0.61583 0.04115 0.0
C925 C 0.7087 0.60626 0.05137 0.0
C926 C 0.6412 0.4903 0.01742 0.0
C927 C 0.68757 0.5577 0.02845 0.0
C928 C 0.63753 0.45808 0.0097 0.0
C929 C 0.67036 0.46294 1.00217 0.0
C930 C 0.67825 0.52726 0.01772 0.0
C931 C 0.70492 0.5016 1.00147 0.0
C932 C 0.72652 0.59189 0.0297 0.0
C933 C 0.66932 0.57333 0.04939 0.0
N934 N 0.70834 0.53209 0.00938 0.0
N935 N 0.66011 0.54987 0.03826 0.0
H936 H 0.53439 0.94561 0.87695 0.0
H937 H 0.47058 0.72638 0.8528 0.0
H938 H 0.58413 0.87821 0.89426 0.0
H939 H 0.46393 0.81127 0.82699 0.0
H940 H 0.51526 0.78235 0.86755 0.0
H941 H 0.50991 0.8979 0.85826 0.0
C942 C 0.54031 0.92088 0.87681 0.0
C943 C 0.56085 0.91558 0.88731 0.0
C944 C 0.505 0.78902 0.8585 0.0
C945 C 0.5329 0.86092 0.86592 0.0
C946 C 0.47975 0.75714 0.85006 0.0
C947 C 0.46408 0.76452 0.83867 0.0
C948 C 0.51347 0.82839 0.85575 0.0
C949 C 0.47599 0.80463 0.83562 0.0
C950 C 0.52664 0.89388 0.86607 0.0
C951 C 0.56816 0.88332 0.88647 0.0
N952 N 0.49935 0.83512 0.84429 0.0
N953 N 0.55367 0.85687 0.87606 0.0
H954 H 0.16156 0.74777 0.89327 0.0
H955 H 0.25102 0.68656 0.83171 0.0
H956 H 0.10774 0.62692 0.87662 0.0
H957 H 0.32134 0.79173 0.85654 0.0
H958 H 0.1897 0.67498 0.84306 0.0
H959 H 0.21154 0.77257 0.87545 0.0
C960 C 0.15991 0.72645 0.88581 0.0
C961 C 0.13074 0.68495 0.88663 0.0
C962 C 0.21842 0.70134 0.84574 0.0
C963 C 0.18772 0.71348 0.86606 0.0
C964 C 0.2534 0.70841 0.83909 0.0
C965 C 0.29138 0.73981 0.84335 0.0
C966 C 0.2216 0.72617 0.85656 0.0
C967 C 0.29264 0.7669 0.85307 0.0
C968 C 0.18844 0.74073 0.87561 0.0
C969 C 0.13003 0.65899 0.87655 0.0
N970 N 0.25836 0.75901 0.85954 0.0
N971 N 0.15828 0.67362 0.86676 0.0
H972 H 0.24603 0.42095 0.88726 0.0
H973 H 0.37817 0.64508 0.86151 0.0
H974 H 0.37022 0.49983 0.89895 0.0
H975 H 0.28725 0.55224 0.83621 0.0
H976 H 0.3697 0.5932 0.87697 0.0
H977 H 0.25507 0.46911 0.86989 0.0
C978 C 0.27521 0.44832 0.88616 0.0
C979 C 0.30739 0.45652 0.89464 0.0
C980 C 0.35162 0.58407 0.86804 0.0
C981 C 0.3176 0.51172 0.87493 0.0
C982 C 0.35615 0.6137 0.85924 0.0
C983 C 0.33319 0.60297 0.84757 0.0
C984 C 0.32333 0.54326 0.86537 0.0
C985 C 0.30548 0.56174 0.84511 0.0
C986 C 0.28034 0.47559 0.87621 0.0
C987 C 0.34461 0.49224 0.89267 0.0
N988 N 0.30098 0.53326 0.85403 0.0
N989 N 0.34852 0.51875 0.88314 0.0
H990 H 0.50221 0.9478 0.95588 0.0
H991 H 0.50381 0.79 0.00577 0.0
H992 H 0.59241 0.91276 0.95609 0.0
H993 H 0.40968 0.81914 0.0052 0.0
H994 H 0.54435 0.8467 0.99108 0.0
H995 H 0.4745 0.91086 0.97646 0.0
C996 C 0.51636 0.93251 0.96026 0.0
C997 C 0.54941 0.93294 0.95407 0.0
C998 C 0.51529 0.84149 0.9944 0.0
C999 C 0.51787 0.89083 0.97779 0.0
C1000 C 0.49239 0.80944 1.00293 0.0
C1001 C 0.45339 0.79993 0.00664 0.0
C1002 C 0.49871 0.8637 0.9893 0.0
C1003 C 0.43975 0.82571 1.00261 0.0
C1004 C 0.50057 0.91157 0.97207 0.0
C1005 C 0.56662 0.91291 0.96035 0.0
N1006 N 0.46202 0.85593 0.99388 0.0
N1007 N 0.55047 0.89246 0.97177 0.0
H1008 H 0.14651 0.71987 0.95306 0.0
H1009 H 0.21828 0.61011 1.00383 0.0
H1010 H 0.09428 0.59003 0.95459 0.0
H1011 H 0.28208 0.73867 0.99665 0.0
H1012 H 0.163 0.60226 0.98957 0.0
H1013 H 0.18741 0.72714 0.97244 0.0
C1014 C 0.14341 0.69285 0.95749 0.0
C1015 C 0.11731 0.65434 0.952 0.0
C1016 C 0.18874 0.63228 0.99137 0.0
C1017 C 0.16407 0.66246 0.9743 0.0
C1018 C 0.21996 0.63676 0.99962 0.0
C1019 C 0.25469 0.67503 1.00131 0.0
C1020 C 0.19246 0.6664 0.98492 0.0
C1021 C 0.2558 0.7086 0.9955 0.0
C1022 C 0.16676 0.69702 0.96859 0.0
C1023 C 0.1144 0.62043 0.95832 0.0
N1024 N 0.22542 0.70348 0.98747 0.0
N1025 N 0.1377 0.6253 0.96905 0.0
H1026 H 0.39599 0.48039 0.95491 0.0
H1027 H 0.31518 0.54498 0.01741 0.0
H1028 H 0.27286 0.41651 0.96906 0.0
H1029 H 0.43114 0.62122 0.99931 0.0
H1030 H 0.30807 0.48708 1.00463 0.0
H1031 H 0.41626 0.52187 0.97511 0.0
C1032 C 0.37325 0.47475 0.9623 0.0
C1033 C 0.33243 0.44553 0.9601 0.0
C1034 C 0.33579 0.51611 1.0038 0.0
C1035 C 0.35562 0.49267 0.98333 0.0
C1036 C 0.34015 0.54895 0.01129 0.0
C1037 C 0.37381 0.58766 0.00938 0.0
C1038 C 0.36511 0.52246 0.99424 0.0
C1039 C 0.40487 0.59162 1.00108 0.0
C1040 C 0.38492 0.49837 0.97386 0.0
C1041 C 0.3045 0.43925 0.97016 0.0
N1042 N 0.39939 0.5596 0.99354 0.0
N1043 N 0.31654 0.46293 0.98124 0.0
H1044 H 0.15174 0.40028 0.4617 0.0
H1045 H 0.21335 0.60661 0.49933 0.0
H1046 H 0.11077 0.48107 0.44987 0.0
H1047 H 0.24873 0.52213 0.5115 0.0
H1048 H 0.16341 0.55476 0.4843 0.0
H1049 H 0.17721 0.43884 0.48226 0.0
C1050 C 0.14801 0.42611 0.46341 0.0
C1051 C 0.12966 0.43777 0.45387 0.0
C1052 C 0.18104 0.547 0.4906 0.0
C1053 C 0.15884 0.48228 0.47758 0.0
C1054 C 0.20896 0.57636 0.49939 0.0
C1055 C 0.23493 0.56843 0.50669 0.0
C1056 C 0.17957 0.50974 0.48909 0.0
C1057 C 0.22896 0.52922 0.5061 0.0
C1058 C 0.16236 0.44802 0.47524 0.0
C1059 C 0.12515 0.47118 0.45683 0.0
N1060 N 0.20255 0.50163 0.49723 0.0
N1061 N 0.14009 0.49254 0.46833 0.0
H1062 H 0.62331 0.75938 0.46439 0.0
H1063 H 0.41091 0.601 0.49514 0.0
H1064 H 0.54815 0.63738 0.44927 0.0
H1065 H 0.48872 0.72112 0.51088 0.0
H1066 H 0.46682 0.60804 0.48143 0.0
H1067 H 0.58011 0.74151 0.48388 0.0
C1068 C 0.5978 0.72875 0.46517 0.0
C1069 C 0.589 0.70009 0.455 0.0
C1070 C 0.47219 0.63239 0.48821 0.0
C1071 C 0.53923 0.67932 0.47744 0.0
C1072 C 0.44045 0.62803 0.4962 0.0
C1073 C 0.44557 0.66036 0.50423 0.0
C1074 C 0.50891 0.66967 0.48811 0.0
C1075 C 0.48391 0.69533 0.50494 0.0
C1076 C 0.57322 0.71848 0.47637 0.0
C1077 C 0.55586 0.66068 0.45674 0.0
N1078 N 0.51394 0.6994 0.49678 0.0
N1079 N 0.53191 0.65163 0.46764 0.0
H1080 H 0.31977 0.8899 0.45233 0.0
H1081 H 0.41995 0.80925 0.5037 0.0
H1082 H 0.4478 0.93487 0.4545 0.0
H1083 H 0.29241 0.7498 0.49551 0.0
H1084 H 0.43077 0.86588 0.48963 0.0
H1085 H 0.30953 0.84786 0.47165 0.0
C1086 C 0.34575 0.89113 0.45688 0.0
C1087 C 0.38461 0.9155 0.4516 0.0
C1088 C 0.40032 0.84081 0.49116 0.0
C1089 C 0.37313 0.86764 0.47383 0.0
C1090 C 0.39415 0.80881 0.49931 0.0
C1091 C 0.35532 0.77483 0.50063 0.0
C1092 C 0.36733 0.83865 0.48443 0.0
C1093 C 0.32289 0.77541 0.49462 0.0
C1094 C 0.3399 0.86717 0.46794 0.0
C1095 C 0.41717 0.91608 0.45806 0.0
N1096 N 0.32965 0.80652 0.48667 0.0
N1097 N 0.41067 0.89233 0.46875 0.0
H1098 H 0.11057 0.46493 0.38353 0.0
H1099 H 0.21956 0.57226 0.32926 0.0
H1100 H 0.1896 0.41609 0.38506 0.0
H1101 H 0.31295 0.55662 0.34612 0.0
H1102 H 0.16917 0.5151 0.34234 0.0
H1103 H 0.14583 0.50215 0.36366 0.0
C1104 C 0.13507 0.46172 0.37963 0.0
C1105 C 0.14732 0.43762 0.38611 0.0
C1106 C 0.20056 0.52359 0.34301 0.0
C1107 C 0.18726 0.47932 0.36306 0.0
C1108 C 0.22916 0.55544 0.33524 0.0
C1109 C 0.27032 0.56899 0.33666 0.0
C1110 C 0.2136 0.50564 0.35227 0.0
C1111 C 0.28139 0.54684 0.34474 0.0
C1112 C 0.15484 0.4825 0.36812 0.0
C1113 C 0.17916 0.43447 0.38051 0.0
N1114 N 0.25328 0.51668 0.35243 0.0
N1115 N 0.19831 0.45548 0.36945 0.0
H1116 H 0.62172 0.79747 0.38965 0.0
H1117 H 0.45379 0.67516 0.33435 0.0
H1118 H 0.56305 0.66749 0.38462 0.0
H1119 H 0.48412 0.79252 0.34972 0.0
H1120 H 0.50723 0.67724 0.34811 0.0
H1121 H 0.58396 0.80012 0.37096 0.0
C1122 C 0.601 0.76932 0.38461 0.0
C1123 C 0.5953 0.732 0.38894 0.0
C1124 C 0.50303 0.70308 0.34815 0.0
C1125 C 0.55187 0.73523 0.36721 0.0
C1126 C 0.47315 0.70229 0.3401 0.0
C1127 C 0.46512 0.73408 0.34075 0.0
C1128 C 0.52512 0.73607 0.35681 0.0
C1129 C 0.48991 0.7678 0.34876 0.0
C1130 C 0.57946 0.77101 0.37387 0.0
C1131 C 0.56818 0.69686 0.38178 0.0
N1132 N 0.51854 0.76777 0.35655 0.0
N1133 N 0.54728 0.6993 0.37131 0.0
H1134 H 0.29233 0.88569 0.39243 0.0
H1135 H 0.35205 0.81461 0.32622 0.0
H1136 H 0.41058 0.94611 0.37437 0.0
H1137 H 0.25194 0.73598 0.35127 0.0
H1138 H 0.35956 0.8733 0.33867 0.0
H1139 H 0.26571 0.84133 0.37289 0.0
C1140 C 0.3126 0.89007 0.38429 0.0
C1141 C 0.354 0.919 0.38519 0.0
C1142 C 0.33492 0.8433 0.34111 0.0
C1143 C 0.32352 0.86882 0.36276 0.0
C1144 C 0.33019 0.80986 0.33385 0.0
C1145 C 0.30179 0.77055 0.33792 0.0
C1146 C 0.3108 0.83701 0.35236 0.0
C1147 C 0.2745 0.76595 0.34797 0.0
C1148 C 0.29732 0.86482 0.37314 0.0
C1149 C 0.37867 0.92358 0.37426 0.0
N1150 N 0.28027 0.79875 0.35508 0.0
N1151 N 0.36316 0.89846 0.36357 0.0
H1152 H 0.30319 0.10608 0.08878 0.0
H1153 H 0.14495 0.04248 0.14861 0.0
H1154 H 0.29301 0.02496 0.11976 0.0
H1155 H 0.13008 0.08461 0.11089 0.0
H1156 H 0.2093 0.05068 0.14071 0.0
H1157 H 0.24856 0.11163 0.09914 0.0
C1158 C 0.28947 0.08944 0.09776 0.0
C1159 C 0.3023 0.0646 0.10332 0.0
C1160 C 0.19218 0.05874 0.13427 0.0
C1161 C 0.2403 0.0714 0.11536 0.0
C1162 C 0.15579 0.05452 0.13883 0.0
C1163 C 0.13216 0.0626 0.13033 0.0
C1164 C 0.20505 0.07168 0.12124 0.0
C1165 C 0.1473 0.07773 0.1177 0.0
C1166 C 0.25839 0.09272 0.10369 0.0
C1167 C 0.28367 0.04402 0.11505 0.0
N1168 N 0.18262 0.08155 0.11351 0.0
N1169 N 0.25358 0.04785 0.12068 0.0
H1170 H 0.92328 0.21646 0.08812 0.0
H1171 H 0.99537 0.13017 0.14717 0.0
H1172 H 0.01144 0.29196 0.11753 0.0
H1173 H 0.93326 0.06031 0.11234 0.0
H1174 H 0.98949 0.18663 0.13882 0.0
H1175 H 0.91658 0.15638 0.09889 0.0
C1176 C 0.94124 0.22041 0.09682 0.0
C1177 C 0.96829 0.25932 0.10184 0.0
C1178 C 0.9766 0.15869 0.13311 0.0
C1179 C 0.96027 0.19074 0.11435 0.0
C1180 C 0.97948 0.12625 0.13796 0.0
C1181 C 0.96498 0.09054 0.13041 0.0
C1182 C 0.95887 0.15526 0.12067 0.0
C1183 C 0.94517 0.08743 0.11843 0.0
C1184 C 0.93731 0.18612 0.10299 0.0
C1185 C 0.99055 0.26259 0.11323 0.0
N1186 N 0.943 0.11945 0.11389 0.0
N1187 N 0.98606 0.22881 0.11909 0.0
H1188 H 0.81967 0.73873 0.09637 0.0
H1189 H 0.89213 0.89939 0.15473 0.0
H1190 H 0.73561 0.74269 0.12391 0.0
H1191 H 0.97141 0.8756 0.13114 0.0
H1192 H 0.83423 0.83584 0.14646 0.0
H1193 H 0.87508 0.78393 0.11085 0.0
C1194 C 0.81281 0.74909 0.10549 0.0
C1195 C 0.77291 0.73715 0.10886 0.0
C1196 C 0.86441 0.84377 0.14345 0.0
C1197 C 0.83666 0.78946 0.12561 0.0
C1198 C 0.89751 0.87968 0.14836 0.0
C1199 C 0.93643 0.8926 0.14355 0.0
C1200 C 0.87065 0.82117 0.13364 0.0
C1201 C 0.94178 0.86656 0.13507 0.0
C1202 C 0.84455 0.77477 0.11384 0.0
C1203 C 0.76599 0.75143 0.12088 0.0
N1204 N 0.90922 0.83256 0.13016 0.0
N1205 N 0.79761 0.77728 0.12876 0.0
H1206 H 0.9834 0.29266 0.38761 0.0
H1207 H 0.08983 0.16947 0.36498 0.0
H1208 H 0.0904 0.30509 0.40566 0.0
H1209 H 0.96058 0.11524 0.36451 0.0
H1210 H 0.09653 0.2337 0.37246 0.0
H1211 H 0.98041 0.23984 0.37277 0.0
C1212 C 0.00639 0.28451 0.38838 0.0
C1213 C 0.03701 0.303 0.39796 0.0
C1214 C 0.06678 0.20814 0.37025 0.0
C1215 C 0.03448 0.24397 0.38078 0.0
C1216 C 0.063 0.1718 0.36577 0.0
C1217 C 0.02464 0.13738 0.36403 0.0
C1218 C 0.0319 0.20989 0.37295 0.0
C1219 C 0.99067 0.14142 0.36558 0.0
C1220 C 0.00472 0.25458 0.3799 0.0
C1221 C 0.06611 0.29144 0.39851 0.0
N1222 N 0.995 0.17696 0.37014 0.0
N1223 N 0.0642 0.26276 0.39002 0.0
H1224 H 0.74229 0.719 0.38856 0.0
H1225 H 0.87848 0.95986 0.3819 0.0
H1226 H 0.73247 0.80684 0.41288 0.0
H1227 H 0.91841 0.88099 0.36639 0.0
H1228 H 0.81504 0.90087 0.38858 0.0
H1229 H 0.79883 0.77511 0.37657 0.0
C1230 C 0.75187 0.75 0.39133 0.0
C1231 C 0.73282 0.75833 0.40178 0.0
C1232 C 0.83734 0.89623 0.38358 0.0
C1233 C 0.79649 0.82211 0.38803 0.0
C1234 C 0.87344 0.92991 0.37968 0.0
C1235 C 0.90371 0.92516 0.3737 0.0
C1236 C 0.83147 0.8573 0.38168 0.0
C1237 C 0.89564 0.88576 0.37095 0.0
C1238 C 0.78401 0.78186 0.38449 0.0
C1239 C 0.74631 0.79892 0.40496 0.0
N1240 N 0.86034 0.85309 0.37518 0.0
N1241 N 0.77716 0.82916 0.39811 0.0
H1242 H 0.31034 0.03546 0.39395 0.0
H1243 H 0.09443 0.00948 0.40729 0.0
H1244 H 0.23141 0.96063 0.42521 0.0
H1245 H 0.15202 0.04096 0.36895 0.0
H1246 H 0.14877 0.0002 0.41536 0.0
H1247 H 0.25666 0.04597 0.38594 0.0
C1248 C 0.28171 0.0213 0.39915 0.0
C1249 C 0.27528 0.99713 0.41027 0.0
C1250 C 0.14952 0.00919 0.40519 0.0
C1251 C 0.21394 0.00937 0.4012 0.0
C1252 C 0.11868 0.01478 0.40059 0.0
C1253 C 0.11869 0.02607 0.38741 0.0
C1254 C 0.18098 0.01546 0.39663 0.0
C1255 C 0.15079 0.03221 0.37917 0.0
C1256 C 0.25109 0.02721 0.39453 0.0
C1257 C 0.23757 0.97939 0.41658 0.0
N1258 N 0.18076 0.02698 0.38393 0.0
N1259 N 0.20835 0.98608 0.412 0.0
H1260 H 0.73158 0.01702 0.89 0.0
H1261 H 0.88364 0.93676 0.89758 0.0
H1262 H 0.71785 0.93075 0.9196 0.0
H1263 H 0.88104 -0.00058 0.86283 0.0
H1264 H 0.81998 0.93 0.90487 0.0
H1265 H 0.78447 0.00906 0.87938 0.0
C1266 C 0.7397 0.99642 0.89428 0.0
C1267 C 0.72053 0.97483 0.9058 0.0
C1268 C 0.83277 0.94454 0.89552 0.0
C1269 C 0.78095 0.9654 0.89363 0.0
C1270 C 0.869 0.94815 0.8913 0.0
C1271 C 0.88763 0.96877 0.87961 0.0
C1272 C 0.81538 0.96251 0.88814 0.0
C1273 C 0.86753 0.98312 0.87188 0.0
C1274 C 0.7697 0.99165 0.88814 0.0
C1275 C 0.732 0.94824 0.9108 0.0
N1276 N 0.83284 0.98046 0.87642 0.0
N1277 N 0.76166 0.94454 0.90476 0.0
H1278 H 0.11327 0.82585 0.91976 0.0
H1279 H 0.03194 0.9092 0.8625 0.0
H1280 H 0.02458 0.74877 0.89071 0.0
H1281 H 0.09443 0.97792 0.89744 0.0
H1282 H 0.04157 0.85392 0.8699 0.0
H1283 H 0.11756 0.88508 0.90921 0.0
C1284 C 0.09474 0.82137 0.91116 0.0
C1285 C 0.06816 0.78225 0.90622 0.0
C1286 C 0.05377 0.88143 0.87582 0.0
C1287 C 0.07333 0.84995 0.89397 0.0
C1288 C 0.04872 0.91315 0.87151 0.0
C1289 C 0.06212 0.94801 0.87943 0.0
C1290 C 0.07269 0.88491 0.88804 0.0
C1291 C 0.0833 0.95137 0.8911 0.0
C1292 C 0.09728 0.8552 0.90512 0.0
C1293 C 0.04513 0.77833 0.89496 0.0
N1294 N 0.08761 0.92013 0.8951 0.0
N1295 N 0.04817 0.81171 0.88924 0.0
H1296 H 0.21356 0.3114 0.91805 0.0
H1297 H 0.12512 0.14468 0.86023 0.0
H1298 H 0.2896 0.29964 0.88895 0.0
H1299 H 0.0553 0.15475 0.89196 0.0
H1300 H 0.1838 0.20957 0.86743 0.0
H1301 H 0.15434 0.26191 0.90584 0.0
C1302 C 0.21787 0.29845 0.90904 0.0
C1303 C 0.25668 0.30939 0.90461 0.0
C1304 C 0.15533 0.19804 0.8726 0.0
C1305 C 0.18839 0.25198 0.8905 0.0
C1306 C 0.12174 0.16135 0.86838 0.0
C1307 C 0.08554 0.14438 0.8756 0.0
C1308 C 0.15229 0.21767 0.88403 0.0
C1309 C 0.0828 0.16676 0.88619 0.0
C1310 C 0.18388 0.27016 0.90202 0.0
C1311 C 0.26019 0.29176 0.89278 0.0
N1312 N 0.11581 0.20192 0.89017 0.0
N1313 N 0.22641 0.26353 0.88619 0.0
H1314 H 0.02315 0.73985 0.6201 0.0
H1315 H 0.93431 0.88607 0.61425 0.0
H1316 H 0.93693 0.72776 0.59065 0.0
H1317 H 0.00867 0.89323 0.64704 0.0
H1318 H 0.92822 0.82214 0.60735 0.0
H1319 H 0.01429 0.79179 0.6315 0.0
C1320 C 0.00237 0.74806 0.61605 0.0
C1321 C 0.9811 0.72981 0.60432 0.0
C1322 C 0.94529 0.83709 0.61621 0.0
C1323 C 0.97045 0.78857 0.61735 0.0
C1324 C 0.94842 0.87342 0.6202 0.0
C1325 C 0.97204 0.89476 0.63118 0.0
C1326 C 0.96689 0.8225 0.62304 0.0
C1327 C 0.98998 0.87737 0.63855 0.0
C1328 C 0.99709 0.77744 0.62261 0.0
C1329 C 0.95423 0.74121 0.59959 0.0
N1330 N 0.98779 0.84256 0.63417 0.0
N1331 N 0.94989 0.76992 0.60606 0.0
H1332 H 0.29996 0.29906 0.61868 0.0
H1333 H 0.15466 0.05895 0.62022 0.0
H1334 H 0.30898 0.21529 0.59203 0.0
H1335 H 0.14335 0.13942 0.64766 0.0
H1336 H 0.21883 0.11542 0.61256 0.0
H1337 H 0.24869 0.24147 0.63143 0.0
C1338 C 0.29121 0.26857 0.61552 0.0
C1339 C 0.30844 0.26196 0.60417 0.0
C1340 C 0.20294 0.1208 0.62046 0.0
C1341 C 0.25016 0.19597 0.6188 0.0
C1342 C 0.16654 0.08839 0.62496 0.0
C1343 C 0.14385 0.09463 0.63459 0.0
C1344 C 0.21639 0.16004 0.62542 0.0
C1345 C 0.16022 0.13339 0.64029 0.0
C1346 C 0.26211 0.23573 0.62285 0.0
C1347 C 0.29626 0.22185 0.60062 0.0
N1348 N 0.19518 0.16493 0.63542 0.0
N1349 N 0.26779 0.19048 0.60785 0.0
H1350 H 0.73957 0.01652 0.61481 0.0
H1351 H 0.97343 0.09498 0.60872 0.0
H1352 H 0.81743 0.10981 0.58744 0.0
H1353 H 0.90468 0.0346 0.64358 0.0
H1354 H 0.91723 0.10161 0.6009 0.0
H1355 H 0.79917 0.02166 0.62529 0.0
C1356 C 0.7692 0.03802 0.61097 0.0
C1357 C 0.77347 0.06254 0.60015 0.0
C1358 C 0.91458 0.08753 0.61037 0.0
C1359 C 0.84191 0.06864 0.61215 0.0
C1360 C 0.94675 0.08388 0.61487 0.0
C1361 C 0.94368 0.06415 0.62681 0.0
C1362 C 0.87857 0.07047 0.61769 0.0
C1363 C 0.90837 0.05023 0.63436 0.0
C1364 C 0.80324 0.04117 0.61704 0.0
C1365 C 0.81267 0.09016 0.59571 0.0
N1366 N 0.87685 0.05296 0.62955 0.0
N1367 N 0.84532 0.0922 0.60164 0.0
H1368 H 0.96777 0.36872 0.45008 0.0
H1369 H 0.81292 0.44155 0.44054 0.0
H1370 H 0.98532 0.45672 0.42061 0.0
H1371 H 0.82197 0.39 0.47712 0.0
H1372 H 0.87872 0.45235 0.43383 0.0
H1373 H 0.91636 0.37883 0.46067 0.0
C1374 C 0.96088 0.3903 0.44586 0.0
C1375 C 0.98043 0.41152 0.43434 0.0
C1376 C 0.86684 0.43955 0.44346 0.0
C1377 C 0.92152 0.42322 0.44642 0.0
C1378 C 0.82934 0.43351 0.44732 0.0
C1379 C 0.81188 0.41449 0.45934 0.0
C1380 C 0.88655 0.42554 0.45155 0.0
C1381 C 0.83438 0.40472 0.46776 0.0
C1382 C 0.93176 0.39632 0.45199 0.0
C1383 C 0.97073 0.43952 0.42942 0.0
N1384 N 0.87019 0.40946 0.46356 0.0
N1385 N 0.94149 0.44412 0.43537 0.0
H1386 H 0.66493 0.61802 0.45035 0.0
H1387 H 0.59639 0.38671 0.44193 0.0
H1388 H 0.5815 0.542 0.41992 0.0
H1389 H 0.65478 0.45641 0.47715 0.0
H1390 H 0.5847 0.44039 0.43474 0.0
H1391 H 0.6575 0.55797 0.46098 0.0
C1392 C 0.64492 0.58859 0.4459 0.0
C1393 C 0.62421 0.58509 0.43411 0.0
C1394 C 0.5993 0.44366 0.44417 0.0
C1395 C 0.61557 0.51584 0.44631 0.0
C1396 C 0.60584 0.41292 0.44832 0.0
C1397 C 0.62697 0.4173 0.4601 0.0
C1398 C 0.61466 0.47946 0.45173 0.0
C1399 C 0.63841 0.45179 0.46801 0.0
C1400 C 0.64047 0.55423 0.45206 0.0
C1401 C 0.59825 0.5461 0.42894 0.0
N1402 N 0.63286 0.48196 0.46354 0.0
N1403 N 0.59509 0.51299 0.43498 0.0
H1404 H 0.49088 0.0553 0.42478 0.0
H1405 H 0.58487 0.22565 0.48102 0.0
H1406 H 0.42079 0.07171 0.45508 0.0
H1407 H 0.65072 0.21961 0.44725 0.0
H1408 H 0.52865 0.15793 0.47534 0.0
H1409 H 0.55262 0.1046 0.43622 0.0
C1410 C 0.48848 0.06912 0.43389 0.0
C1411 C 0.45074 0.06009 0.43886 0.0
C1412 C 0.55584 0.17096 0.46938 0.0
C1413 C 0.52124 0.11643 0.45202 0.0
C1414 C 0.58813 0.20933 0.47274 0.0
C1415 C 0.62221 0.22812 0.46452 0.0
C1416 C 0.55785 0.15163 0.45773 0.0
C1417 C 0.62468 0.20615 0.45375 0.0
C1418 C 0.52374 0.09713 0.44045 0.0
C1419 C 0.44936 0.07836 0.4508 0.0
N1420 N 0.59263 0.16929 0.45053 0.0
N1421 N 0.48417 0.10609 0.45691 0.0
H1422 H 0.77349 0.63799 0.75378 0.0
H1423 H 0.70499 0.47332 0.69532 0.0
H1424 H 0.69148 0.62589 0.72275 0.0
H1425 H 0.76906 0.47523 0.73039 0.0
H1426 H 0.7124 0.53846 0.7023 0.0
H1427 H 0.78328 0.58693 0.7427 0.0
C1428 C 0.75753 0.62459 0.74461 0.0
C1429 C 0.73118 0.63581 0.73928 0.0
C1430 C 0.72561 0.52502 0.7083 0.0
C1431 C 0.74236 0.57717 0.72647 0.0
C1432 C 0.72186 0.48819 0.70423 0.0
C1433 C 0.73621 0.46892 0.71237 0.0
C1434 C 0.74408 0.54251 0.7205 0.0
C1435 C 0.75733 0.48905 0.7239 0.0
C1436 C 0.76325 0.59549 0.73825 0.0
C1437 C 0.7117 0.61773 0.72728 0.0
N1438 N 0.76023 0.52447 0.72769 0.0
N1439 N 0.71743 0.58902 0.72131 0.0
H1440 H 0.39117 0.15046 0.75381 0.0
H1441 H 0.55541 0.22956 0.69565 0.0
H1442 H 0.4013 0.07058 0.72566 0.0
H1443 H 0.552 0.30449 0.72716 0.0
H1444 H 0.49026 0.1731 0.70337 0.0
H1445 H 0.44213 0.20861 0.74146 0.0
C1446 C 0.40409 0.14513 0.745 0.0
C1447 C 0.39235 0.10559 0.74087 0.0
C1448 C 0.50333 0.20221 0.70839 0.0
C1449 C 0.45087 0.17227 0.72659 0.0
C1450 C 0.54017 0.23455 0.70386 0.0
C1451 C 0.55905 0.27154 0.71085 0.0
C1452 C 0.48546 0.20724 0.7199 0.0
C1453 C 0.53846 0.27631 0.72156 0.0
C1454 C 0.43313 0.1784 0.73791 0.0
C1455 C 0.40981 0.10059 0.72928 0.0
N1456 N 0.5031 0.24445 0.72585 0.0
N1457 N 0.43846 0.13355 0.7226 0.0
H1458 H 0.95913 0.3414 0.72386 0.0
H1459 H 0.72761 0.26444 0.73368 0.0
H1460 H 0.88712 0.25436 0.75373 0.0
H1461 H 0.79097 0.31904 0.69743 0.0
H1462 H 0.78398 0.25691 0.74066 0.0
H1463 H 0.89754 0.33231 0.71383 0.0
C1464 C 0.93032 0.32038 0.72833 0.0
C1465 C 0.92829 0.29895 0.73976 0.0
C1466 C 0.7853 0.26978 0.73106 0.0
C1467 C 0.8575 0.28829 0.72825 0.0
C1468 C 0.75305 0.27394 0.72704 0.0
C1469 C 0.75482 0.29267 0.715 0.0
C1470 C 0.82 0.28529 0.72312 0.0
C1471 C 0.78841 0.3044 0.70678 0.0
C1472 C 0.89512 0.31494 0.72251 0.0
C1473 C 0.89008 0.27172 0.74499 0.0
N1474 N 0.82012 0.30131 0.71112 0.0
N1475 N 0.8562 0.2675 0.73928 0.0
H1476 H 0.39485 0.26938 0.25454 0.0
H1477 H 0.55503 0.3301 0.19541 0.0
H1478 H 0.41008 0.35305 0.22376 0.0
H1479 H 0.56433 0.2815 0.23259 0.0
H1480 H 0.49172 0.32455 0.20314 0.0
H1481 H 0.44823 0.26134 0.24435 0.0
C1482 C 0.40945 0.2861 0.24565 0.0
C1483 C 0.39835 0.31232 0.24009 0.0
C1484 C 0.50733 0.31445 0.20949 0.0
C1485 C 0.45891 0.30266 0.22823 0.0
C1486 C 0.54311 0.31711 0.20502 0.0
C1487 C 0.56497 0.30646 0.21342 0.0
C1488 C 0.49327 0.30059 0.22236 0.0
C1489 C 0.54848 0.2903 0.22585 0.0
C1490 C 0.4398 0.28139 0.23981 0.0
C1491 C 0.41806 0.33293 0.22848 0.0
N1492 N 0.51382 0.28814 0.22998 0.0
N1493 N 0.44738 0.32766 0.22293 0.0
H1494 H 0.78759 0.16131 0.25352 0.0
H1495 H 0.69859 0.23658 0.19619 0.0
H1496 H 0.68817 0.07992 0.22829 0.0
H1497 H 0.77246 0.31286 0.22835 0.0
H1498 H 0.70583 0.18094 0.20481 0.0
H1499 H 0.79181 0.21891 0.24183 0.0
C1500 C 0.76656 0.15554 0.24556 0.0
C1501 C 0.73716 0.11574 0.242 0.0
C1502 C 0.72103 0.21012 0.20983 0.0
C1503 C 0.74235 0.18151 0.22839 0.0
C1504 C 0.71737 0.24199 0.2048 0.0
C1505 C 0.73474 0.27921 0.21163 0.0
C1506 C 0.74256 0.21584 0.22164 0.0
C1507 C 0.75835 0.28449 0.22285 0.0
C1508 C 0.7691 0.18842 0.23885 0.0
C1509 C 0.71098 0.1101 0.23149 0.0
N1510 N 0.76127 0.2531 0.22756 0.0
N1511 N 0.71419 0.14259 0.22506 0.0
H1512 H 0.96629 0.63455 0.22398 0.0
H1513 H 0.72683 0.49407 0.21643 0.0
H1514 H 0.87595 0.62711 0.25124 0.0
H1515 H 0.80879 0.47079 0.19421 0.0
H1516 H 0.78386 0.55826 0.22417 0.0
H1517 H 0.91154 0.58636 0.20913 0.0
C1518 C 0.93514 0.62301 0.22681 0.0
C1519 C 0.92573 0.63478 0.2389 0.0
C1520 C 0.78949 0.5397 0.21734 0.0
C1521 C 0.86354 0.58107 0.22191 0.0
C1522 C 0.75684 0.50341 0.21277 0.0
C1523 C 0.76334 0.47739 0.20472 0.0
C1524 C 0.82902 0.54942 0.21414 0.0
C1525 C 0.80277 0.4904 0.20038 0.0
C1526 C 0.90403 0.59583 0.21831 0.0
C1527 C 0.88489 0.61912 0.24205 0.0
N1528 N 0.83446 0.5252 0.20542 0.0
N1529 N 0.85554 0.59327 0.23364 0.0
H1530 H 0.59198 0.06755 0.92396 0.0
H1531 H 0.67046 0.23344 0.98222 0.0
H1532 H 0.68168 0.08217 0.9524 0.0
H1533 H 0.59575 0.22716 0.94965 0.0
H1534 H 0.6635 0.16892 0.97465 0.0
H1535 H 0.58314 0.11758 0.9361 0.0
C1536 C 0.60988 0.08131 0.93278 0.0
C1537 C 0.63801 0.07102 0.93707 0.0
C1538 C 0.64784 0.1812 0.96937 0.0
C1539 C 0.62796 0.12865 0.95111 0.0
C1540 C 0.65133 0.21764 0.97379 0.0
C1541 C 0.63377 0.2355 0.96648 0.0
C1542 C 0.62642 0.16274 0.95764 0.0
C1543 C 0.60987 0.21434 0.95551 0.0
C1544 C 0.60469 0.10984 0.93976 0.0
C1545 C 0.66 0.0896 0.94867 0.0
N1546 N 0.60728 0.17937 0.95135 0.0
N1547 N 0.65476 0.11782 0.95525 0.0
H1548 H 0.9688 0.63938 0.95294 0.0
H1549 H 0.81617 0.40064 0.95046 0.0
H1550 H 0.97441 0.55855 0.92408 0.0
H1551 H 0.81258 0.47762 0.98119 0.0
H1552 H 0.88053 0.45691 0.94284 0.0
H1553 H 0.91685 0.58047 0.965 0.0
C1554 C 0.95918 0.60924 0.94915 0.0
C1555 C 0.97563 0.60389 0.93739 0.0
C1556 C 0.86626 0.46151 0.95142 0.0
C1557 C 0.91642 0.53633 0.95121 0.0
C1558 C 0.82968 0.42921 0.95585 0.0
C1559 C 0.80909 0.43459 0.96644 0.0
C1560 C 0.88208 0.49987 0.95743 0.0
C1561 C 0.8277 0.47223 0.97303 0.0
C1562 C 0.92967 0.57562 0.95609 0.0
C1563 C 0.96231 0.56416 0.93303 0.0
N1564 N 0.86281 0.50378 0.96825 0.0
N1565 N 0.93337 0.53201 0.93988 0.0
H1566 H 0.40332 0.35294 0.9511 0.0
H1567 H 0.63819 0.43814 0.9443 0.0
H1568 H 0.47841 0.4463 0.92333 0.0
H1569 H 0.57114 0.37646 0.97926 0.0
H1570 H 0.58081 0.44314 0.93675 0.0
H1571 H 0.46411 0.36055 0.96146 0.0
C1572 C 0.43259 0.37494 0.94714 0.0
C1573 C 0.43575 0.39877 0.93624 0.0
C1574 C 0.57881 0.42919 0.9462 0.0
C1575 C 0.50553 0.40778 0.94813 0.0
C1576 C 0.61166 0.42654 0.95055 0.0
C1577 C 0.60936 0.40683 0.96242 0.0
C1578 C 0.54291 0.41113 0.9536 0.0
C1579 C 0.57422 0.39213 0.9701 0.0
C1580 C 0.4673 0.37953 0.95315 0.0
C1581 C 0.47452 0.42712 0.93165 0.0
N1582 N 0.54201 0.39385 0.96543 0.0
N1583 N 0.50784 0.43059 0.93754 0.0
H1584 H 0.64194 0.76783 0.75047 0.0
H1585 H 0.4845 0.71636 0.80972 0.0
H1586 H 0.63071 0.69264 0.78355 0.0
H1587 H 0.46731 0.75011 0.77077 0.0
H1588 H 0.54755 0.72188 0.80208 0.0
H1589 H 0.58605 0.77409 0.75947 0.0
C1590 C 0.62774 0.75268 0.75962 0.0
C1591 C 0.64069 0.72935 0.76621 0.0
C1592 C 0.53017 0.72855 0.79527 0.0
C1593 C 0.57741 0.73702 0.77665 0.0
C1594 C 0.49439 0.72583 0.79965 0.0
C1595 C 0.47042 0.73251 0.79084 0.0
C1596 C 0.54228 0.73847 0.78204 0.0
C1597 C 0.48468 0.74437 0.77787 0.0
C1598 C 0.59593 0.75631 0.76475 0.0
C1599 C 0.62137 0.71054 0.77807 0.0
N1600 N 0.51957 0.74677 0.77384 0.0
N1601 N 0.59076 0.71485 0.78293 0.0
H1602 H 0.25061 0.88341 0.76239 0.0
H1603 H 0.34777 0.80809 0.81686 0.0
H1604 H 0.35157 0.96451 0.78713 0.0
H1605 H 0.25599 0.7291 0.78902 0.0
H1606 H 0.34058 0.8647 0.80921 0.0
H1607 H 0.24507 0.82585 0.77446 0.0
C1608 C 0.27168 0.88913 0.77033 0.0
C1609 C 0.3019 0.92886 0.77362 0.0
C1610 C 0.32134 0.83476 0.805 0.0
C1611 C 0.29545 0.86304 0.78765 0.0
C1612 C 0.32499 0.80234 0.80953 0.0
C1613 C 0.30254 0.76399 0.80351 0.0
C1614 C 0.29499 0.82852 0.79444 0.0
C1615 C 0.27396 0.75831 0.79387 0.0
C1616 C 0.26838 0.85625 0.77729 0.0
C1617 C 0.32806 0.93439 0.78414 0.0
N1618 N 0.2714 0.79026 0.78951 0.0
N1619 N 0.32435 0.90192 0.79072 0.0
H1620 H 0.15197 0.39886 0.75676 0.0
H1621 H 0.23514 0.56161 0.81565 0.0
H1622 H 0.07417 0.40537 0.7864 0.0
H1623 H 0.30729 0.5557 0.78391 0.0
H1624 H 0.17794 0.49608 0.80816 0.0
H1625 H 0.21048 0.44856 0.76922 0.0
C1626 C 0.14716 0.41076 0.76592 0.0
C1627 C 0.10809 0.3983 0.77046 0.0
C1628 C 0.20663 0.50863 0.80307 0.0
C1629 C 0.17538 0.45576 0.78485 0.0
C1630 C 0.23934 0.54566 0.80745 0.0
C1631 C 0.27566 0.56384 0.80031 0.0
C1632 C 0.21074 0.49007 0.79154 0.0
C1633 C 0.2796 0.54256 0.78962 0.0
C1634 C 0.18069 0.43911 0.77309 0.0
C1635 C 0.10382 0.41454 0.78248 0.0
N1636 N 0.24741 0.50708 0.78546 0.0
N1637 N 0.13713 0.44283 0.78921 0.0
H1638 H 0.43772 0.97871 0.08697 0.0
H1639 H 0.36669 0.81317 0.02876 0.0
H1640 H 0.35067 0.96329 0.05733 0.0
H1641 H 0.43486 0.81774 0.06305 0.0
H1642 H 0.37295 0.87774 0.03589 0.0
H1643 H 0.44808 0.92883 0.07539 0.0
C1644 C 0.42076 0.96485 0.07799 0.0
C1645 C 0.39285 0.97479 0.07321 0.0
C1646 C 0.38732 0.86503 0.04167 0.0
C1647 C 0.40463 0.91733 0.05984 0.0
C1648 C 0.38422 0.82856 0.03751 0.0
C1649 C 0.40011 0.81022 0.0454 0.0
C1650 C 0.40674 0.8831 0.0537 0.0
C1651 C 0.42201 0.83089 0.05675 0.0
C1652 C 0.42681 0.93639 0.07135 0.0
C1653 C 0.37213 0.95611 0.06144 0.0
N1654 N 0.42431 0.86596 0.06063 0.0
N1655 N 0.37817 0.92795 0.05519 0.0
H1656 H 0.05977 0.48402 0.08528 0.0
H1657 H 0.22531 0.56924 0.0276 0.0
H1658 H 0.07082 0.40692 0.05619 0.0
H1659 H 0.21701 0.64205 0.05887 0.0
H1660 H 0.16072 0.51123 0.03498 0.0
H1661 H 0.11018 0.54334 0.07328 0.0
C1662 C 0.0728 0.47955 0.07635 0.0
C1663 C 0.06143 0.44044 0.07183 0.0
C1664 C 0.17257 0.5402 0.04001 0.0
C1665 C 0.11938 0.50849 0.05795 0.0
C1666 C 0.20909 0.57341 0.03567 0.0
C1667 C 0.22646 0.61029 0.0427 0.0
C1668 C 0.15354 0.54423 0.0514 0.0
C1669 C 0.20465 0.614 0.05324 0.0
C1670 C 0.10152 0.5135 0.06944 0.0
C1671 C 0.07905 0.43656 0.0601 0.0
N1672 N 0.16968 0.5813 0.05737 0.0
N1673 N 0.10741 0.47017 0.05362 0.0
H1674 H 0.62968 0.68887 0.0599 0.0
H1675 H 0.39722 0.60994 0.06811 0.0
H1676 H 0.55557 0.5968 0.08817 0.0
H1677 H 0.46199 0.66541 0.03215 0.0
H1678 H 0.45375 0.60311 0.07545 0.0
H1679 H 0.5687 0.68102 0.04971 0.0
C1680 C 0.60054 0.66701 0.06398 0.0
C1681 C 0.59773 0.64373 0.075 0.0
C1682 C 0.45536 0.61607 0.06584 0.0
C1683 C 0.52768 0.63456 0.06333 0.0
C1684 C 0.42304 0.61987 0.06162 0.0
C1685 C 0.42505 0.63847 0.04953 0.0
C1686 C 0.49041 0.63187 0.05806 0.0
C1687 C 0.45919 0.65079 0.04152 0.0
C1688 C 0.56571 0.6623 0.05807 0.0
C1689 C 0.55913 0.61553 0.07975 0.0
N1690 N 0.49093 0.64803 0.04605 0.0
N1691 N 0.52563 0.61206 0.07398 0.0
H1692 H 0.0706 0.67197 0.55724 0.0
H1693 H 0.22766 0.59838 0.56494 0.0
H1694 H 0.0604 0.58887 0.58751 0.0
H1695 H 0.21887 0.65403 0.52932 0.0
H1696 H 0.16398 0.59077 0.57264 0.0
H1697 H 0.1234 0.66421 0.54649 0.0
C1698 C 0.07948 0.65209 0.56164 0.0
C1699 C 0.06132 0.63135 0.57339 0.0
C1700 C 0.17541 0.60391 0.56302 0.0
C1701 C 0.12171 0.6222 0.56106 0.0
C1702 C 0.21165 0.60801 0.55858 0.0
C1703 C 0.22851 0.62689 0.54649 0.0
C1704 C 0.15624 0.61969 0.55547 0.0
C1705 C 0.20672 0.63907 0.53866 0.0
C1706 C 0.10942 0.64743 0.55542 0.0
C1707 C 0.07374 0.60567 0.57853 0.0
N1708 N 0.17205 0.63602 0.54341 0.0
N1709 N 0.1034 0.60212 0.57241 0.0
H1710 H 0.36198 0.40317 0.5559 0.0
H1711 H 0.43613 0.63718 0.5632 0.0
H1712 H 0.44898 0.48159 0.58514 0.0
H1713 H 0.37128 0.56604 0.52893 0.0
H1714 H 0.44537 0.58203 0.57043 0.0
H1715 H 0.36727 0.46265 0.54529 0.0
C1716 C 0.38226 0.43293 0.56009 0.0
C1717 C 0.40478 0.43736 0.57152 0.0
C1718 C 0.42975 0.57861 0.5612 0.0
C1719 C 0.41106 0.5057 0.55937 0.0
C1720 C 0.42464 0.61021 0.55703 0.0
C1721 C 0.40273 0.60605 0.54548 0.0
C1722 C 0.41207 0.54211 0.55393 0.0
C1723 C 0.38848 0.5705 0.53787 0.0
C1724 C 0.38546 0.46691 0.55396 0.0
C1725 C 0.43084 0.4767 0.57641 0.0
N1726 N 0.39271 0.53951 0.54236 0.0
N1727 N 0.43298 0.50927 0.57038 0.0
H1728 H 0.63264 0.96493 0.55201 0.0
H1729 H 0.39382 0.81561 0.55499 0.0
H1730 H 0.5528 0.97401 0.58016 0.0
H1731 H 0.46854 0.80205 0.52593 0.0
H1732 H 0.45097 0.88142 0.5614 0.0
H1733 H 0.57326 0.91172 0.54006 0.0
C1734 C 0.6027 0.95597 0.55562 0.0
C1735 C 0.59771 0.97362 0.5672 0.0
C1736 C 0.45493 0.86465 0.55342 0.0
C1737 C 0.52983 0.91324 0.55354 0.0
C1738 C 0.42208 0.82726 0.54966 0.0
C1739 C 0.42654 0.80357 0.53991 0.0
C1740 C 0.49298 0.8781 0.54765 0.0
C1741 C 0.46389 0.81972 0.53342 0.0
C1742 C 0.56885 0.92572 0.54878 0.0
C1743 C 0.55824 0.96106 0.57138 0.0
N1744 N 0.49604 0.85569 0.5376 0.0
N1745 N 0.52601 0.93161 0.56462 0.0
H1746 H 0.34766 0.41308 0.28571 0.0
H1747 H 0.27191 0.56952 0.27738 0.0
H1748 H 0.26979 0.4072 0.25418 0.0
H1749 H 0.33339 0.56671 0.31248 0.0
H1750 H 0.26539 0.50577 0.26999 0.0
H1751 H 0.33945 0.466 0.29662 0.0
C1752 C 0.32876 0.42282 0.2811 0.0
C1753 C 0.30975 0.40603 0.26894 0.0
C1754 C 0.27974 0.51856 0.27942 0.0
C1755 C 0.30003 0.46626 0.28138 0.0
C1756 C 0.28323 0.55488 0.28368 0.0
C1757 C 0.30338 0.57345 0.29551 0.0
C1758 C 0.29732 0.50095 0.2869 0.0
C1759 C 0.31752 0.55325 0.3033 0.0
C1760 C 0.32391 0.45285 0.28737 0.0
C1761 C 0.28533 0.41951 0.26348 0.0
N1762 N 0.31494 0.5184 0.29873 0.0
N1763 N 0.28144 0.44895 0.26968 0.0
H1764 H 0.64626 0.97519 0.29021 0.0
H1765 H 0.48101 0.74029 0.28277 0.0
H1766 H 0.65009 0.89484 0.26075 0.0
H1767 H 0.47943 0.81357 0.31516 0.0
H1768 H 0.54787 0.79515 0.27651 0.0
H1769 H 0.5897 0.91629 0.30104 0.0
C1770 C 0.63548 0.94518 0.28609 0.0
C1771 C 0.65268 0.94001 0.27446 0.0
C1772 C 0.53345 0.79926 0.28514 0.0
C1773 C 0.5881 0.87255 0.28681 0.0
C1774 C 0.49534 0.76772 0.28878 0.0
C1775 C 0.47474 0.77244 0.29949 0.0
C1776 C 0.55095 0.83641 0.29205 0.0
C1777 C 0.49451 0.80869 0.30689 0.0
C1778 C 0.60325 0.91157 0.29229 0.0
C1779 C 0.6376 0.90042 0.26961 0.0
N1780 N 0.53128 0.83968 0.30288 0.0
N1781 N 0.60612 0.86841 0.27573 0.0
H1782 H 0.06188 0.68386 0.28951 0.0
H1783 H 0.29751 0.77581 0.28022 0.0
H1784 H 0.13456 0.78403 0.26361 0.0
H1785 H 0.23352 0.7048 0.31426 0.0
H1786 H 0.2387 0.78071 0.27443 0.0
H1787 H 0.1238 0.69098 0.29888 0.0
C1788 C 0.09084 0.70745 0.28582 0.0
C1789 C 0.09295 0.7332 0.27567 0.0
C1790 C 0.23762 0.76464 0.28331 0.0
C1791 C 0.16405 0.74143 0.28635 0.0
C1792 C 0.27132 0.76201 0.28666 0.0
C1793 C 0.27045 0.73987 0.29774 0.0
C1794 C 0.2022 0.74417 0.2909 0.0
C1795 C 0.23559 0.72241 0.30568 0.0
C1796 C 0.1262 0.71164 0.29123 0.0
C1797 C 0.13139 0.76339 0.27137 0.0
N1798 N 0.20256 0.72426 0.30197 0.0
N1799 N 0.1653 0.76637 0.27662 0.0
loop_
_geom_bond_atom_site_label_1
_geom_bond_atom_site_label_2
_geom_bond_distance
_geom_bond_site_symmetry_2
_ccdc_geom_bond_type
Co0 O1 2.216 . S
Co0 O2 2.091 . S
Co0 O4 2.004 . S
Co0 O10 2.021 . S
Co0 O12 2.137 . S
Co0 O13 2.244 1_545 S
O1 Co0 2.216 . S
O1 C8 1.247 . S
O2 Co0 2.091 . S
O2 C8 1.261 . S
C3 O12 1.247 1_565 S
C3 O13 1.272 . S
O4 Co0 2.004 . S
O4 C9 1.259 . S
Co5 O6 2.061 . S
Co5 O11 2.052 . S
Co5 O13 2.135 . S
O6 Co5 2.061 . S
O6 C9 1.235 1_565 S
C7 O10 1.238 . S
C7 O11 1.241 1_545 S
C8 O1 1.247 . S
C8 O2 1.261 . S
C9 O4 1.259 . S
C9 O6 1.235 1_545 S
O10 Co0 2.021 . S
O10 C7 1.238 . S
O11 Co5 2.052 . S
O11 C7 1.241 1_565 S
O12 Co0 2.137 . S
O12 C3 1.247 1_545 S
O13 Co0 2.244 1_565 S
O13 C3 1.272 . S
O13 Co5 2.135 . S
Co14 O15 2.216 . S
Co14 O16 2.091 . S
Co14 O18 2.004 . S
Co14 O24 2.021 . S
Co14 O26 2.137 . S
Co14 O27 2.244 1_455 S
O15 Co14 2.216 . S
O15 C22 1.247 . S
O16 Co14 2.091 . S
O16 C22 1.261 . S
C17 O26 1.221 1_655 S
C17 O27 1.272 . S
O18 Co14 2.004 . S
O18 C23 1.259 . S
Co19 O20 2.061 . S
Co19 O25 2.052 . S
Co19 O27 2.135 . S
O20 Co19 2.061 . S
O20 C23 1.235 1_655 S
C21 O24 1.238 . S
C21 O25 1.241 1_455 S
C22 O15 1.247 . S
C22 O16 1.261 . S
C23 O18 1.259 . S
C23 O20 1.235 1_455 S
O24 Co14 2.021 . S
O24 C21 1.238 . S
O25 Co19 2.052 . S
O25 C21 1.241 1_655 S
O26 Co14 2.137 . S
O26 C17 1.221 1_455 S
O27 Co14 2.244 1_655 S
O27 C17 1.272 . S
O27 Co19 2.135 . S
Co28 O29 2.216 . S
Co28 O30 2.091 . S
Co28 O32 2.004 . S
Co28 O38 2.021 . S
Co28 O40 2.137 . S
Co28 O41 2.244 . S
O29 Co28 2.216 . S
O29 C36 1.247 . S
O30 Co28 2.091 . S
O30 C36 1.261 . S
C31 O40 1.247 . S
C31 O41 1.272 . S
O32 Co28 2.004 . S
O32 C37 1.259 . S
Co33 O34 2.061 . S
Co33 O39 2.052 . S
Co33 O41 2.135 . S
O34 Co33 2.061 . S
O34 C37 1.235 . S
C35 O38 1.238 . S
C35 O39 1.241 . S
C36 O29 1.247 . S
C36 O30 1.261 . S
C37 O32 1.259 . S
C37 O34 1.235 . S
O38 Co28 2.021 . S
O38 C35 1.238 . S
O39 Co33 2.052 . S
O39 C35 1.241 . S
O40 Co28 2.137 . S
O40 C31 1.247 . S
O41 Co28 2.244 . S
O41 C31 1.272 . S
O41 Co33 2.135 . S
Co42 O43 2.210 1_545 S
Co42 O44 2.091 1_545 S
Co42 O46 2.004 . S
Co42 O52 2.021 . S
Co42 O54 2.137 . S
Co42 O55 2.244 . S
O43 Co42 2.210 1_565 S
O43 C50 1.256 . S
O44 Co42 2.091 1_565 S
O44 C50 1.261 . S
C45 O54 1.247 . S
C45 O55 1.272 . S
O46 Co42 2.004 . S
O46 C51 1.259 . S
Co47 O48 2.061 . S
Co47 O53 2.052 . S
Co47 O55 2.135 . S
O48 Co47 2.061 . S
O48 C51 1.235 . S
C49 O52 1.238 . S
C49 O53 1.241 . S
C50 O43 1.256 . S
C50 O44 1.261 . S
C51 O46 1.259 . S
C51 O48 1.235 . S
O52 Co42 2.021 . S
O52 C49 1.238 . S
O53 Co47 2.052 . S
O53 C49 1.241 . S
O54 Co42 2.137 . S
O54 C45 1.247 . S
O55 Co42 2.244 . S
O55 C45 1.272 . S
O55 Co47 2.135 . S
Co56 O57 2.216 1_455 S
Co56 O58 2.091 1_455 S
Co56 O60 2.010 1_455 S
Co56 O66 2.021 . S
Co56 O68 2.137 . S
Co56 O69 2.244 . S
O57 Co56 2.216 1_655 S
O57 C64 1.247 . S
O58 Co56 2.091 1_655 S
O58 C64 1.261 . S
C59 O68 1.247 . S
C59 O69 1.272 . S
O60 Co56 2.010 1_655 S
O60 C65 1.236 1_655 S
Co61 O62 2.061 . S
Co61 O67 2.052 . S
Co61 O69 2.135 . S
O62 Co61 2.061 . S
O62 C65 1.235 . S
C63 O66 1.238 . S
C63 O67 1.241 . S
C64 O57 1.247 . S
C64 O58 1.261 . S
C65 O60 1.236 1_455 S
C65 O62 1.235 . S
O66 Co56 2.021 . S
O66 C63 1.238 . S
O67 Co61 2.052 . S
O67 C63 1.241 . S
O68 Co56 2.137 . S
O68 C59 1.247 . S
O69 Co56 2.244 . S
O69 C59 1.272 . S
O69 Co61 2.135 . S
Co70 O71 2.216 . S
Co70 O72 2.091 . S
Co70 O74 2.004 . S
Co70 O80 2.021 . S
Co70 O82 2.137 . S
Co70 O83 2.244 . S
O71 Co70 2.216 . S
O71 C78 1.247 . S
O72 Co70 2.091 . S
O72 C78 1.261 . S
C73 O82 1.247 . S
C73 O83 1.272 . S
O74 Co70 2.004 . S
O74 C79 1.259 . S
Co75 O76 2.061 . S
Co75 O81 2.052 . S
Co75 O83 2.135 . S
O76 Co75 2.061 . S
O76 C79 1.235 . S
C77 O80 1.238 . S
C77 O81 1.241 . S
C78 O71 1.247 . S
C78 O72 1.261 . S
C79 O74 1.259 . S
C79 O76 1.235 . S
O80 Co70 2.021 . S
O80 C77 1.238 . S
O81 Co75 2.052 . S
O81 C77 1.241 . S
O82 Co70 2.137 . S
O82 C73 1.247 . S
O83 Co70 2.244 . S
O83 C73 1.272 . S
O83 Co75 2.135 . S
Co84 O85 2.216 . S
Co84 O86 2.091 . S
Co84 O88 2.004 . S
Co84 O94 2.021 . S
Co84 O96 2.137 . S
Co84 O97 2.244 . S
O85 Co84 2.216 . S
O85 C92 1.247 . S
O86 Co84 2.091 . S
O86 C92 1.261 . S
C87 O96 1.247 . S
C87 O97 1.272 . S
O88 Co84 2.004 . S
O88 C93 1.259 . S
Co89 O90 2.061 . S
Co89 O95 2.052 . S
Co89 O97 2.135 . S
O90 Co89 2.061 . S
O90 C93 1.235 . S
C91 O94 1.238 . S
C91 O95 1.241 . S
C92 O85 1.247 . S
C92 O86 1.261 . S
C93 O88 1.259 . S
C93 O90 1.235 . S
O94 Co84 2.021 . S
O94 C91 1.238 . S
O95 Co89 2.052 . S
O95 C91 1.241 . S
O96 Co84 2.137 . S
O96 C87 1.247 . S
O97 Co84 2.244 . S
O97 C87 1.272 . S
O97 Co89 2.135 . S
Co98 O99 2.216 . S
Co98 O100 2.091 . S
Co98 O102 2.004 . S
Co98 O108 2.021 . S
Co98 O110 2.137 . S
Co98 O111 2.244 . S
O99 Co98 2.216 . S
O99 C106 1.247 . S
O100 Co98 2.091 . S
O100 C106 1.261 . S
C101 O110 1.247 . S
C101 O111 1.272 . S
O102 Co98 2.004 . S
O102 C107 1.259 . S
Co103 O104 2.061 . S
Co103 O109 2.052 . S
Co103 O111 2.135 . S
O104 Co103 2.061 . S
O104 C107 1.235 . S
C105 O108 1.238 . S
C105 O109 1.241 . S
C106 O99 1.247 . S
C106 O100 1.261 . S
C107 O102 1.259 . S
C107 O104 1.235 . S
O108 Co98 2.021 . S
O108 C105 1.238 . S
O109 Co103 2.052 . S
O109 C105 1.241 . S
O110 Co98 2.137 . S
O110 C101 1.247 . S
O111 Co98 2.244 . S
O111 C101 1.272 . S
O111 Co103 2.135 . S
Co112 O113 2.216 1_655 S
Co112 O114 2.091 1_655 S
Co112 O116 2.004 . S
Co112 O122 2.021 . S
Co112 O124 2.137 1_655 S
Co112 O125 2.244 . S
O113 Co112 2.216 1_455 S
O113 C120 1.247 . S
O114 Co112 2.091 1_455 S
O114 C120 1.261 . S
C115 O124 1.247 1_655 S
C115 O125 1.272 . S
O116 Co112 2.004 . S
O116 C121 1.259 . S
Co117 O118 2.061 . S
Co117 O123 2.052 . S
Co117 O125 2.135 . S
O118 Co117 2.061 . S
O118 C121 1.235 . S
C119 O122 1.238 . S
C119 O123 1.241 . S
C120 O113 1.247 . S
C120 O114 1.261 . S
C121 O116 1.259 . S
C121 O118 1.235 . S
O122 Co112 2.021 . S
O122 C119 1.238 . S
O123 Co117 2.052 . S
O123 C119 1.241 . S
O124 Co112 2.137 1_455 S
O124 C115 1.247 1_455 S
O125 Co112 2.244 . S
O125 C115 1.272 . S
O125 Co117 2.135 . S
Co126 O127 2.205 1_655 S
Co126 O128 2.091 . S
Co126 O130 2.004 . S
Co126 O136 2.021 . S
Co126 O138 2.137 1_655 S
Co126 O139 2.244 1_655 S
O127 Co126 2.205 1_455 S
O127 C134 1.247 1_455 S
O128 Co126 2.091 . S
O128 C134 1.261 . S
C129 O138 1.247 . S
C129 O139 1.272 . S
O130 Co126 2.004 . S
O130 C135 1.259 . S
Co131 O132 2.061 . S
Co131 O137 2.052 . S
Co131 O139 2.135 1_655 S
O132 Co131 2.061 . S
O132 C135 1.235 . S
C133 O136 1.238 . S
C133 O137 1.241 . S
C134 O127 1.247 1_655 S
C134 O128 1.261 . S
C135 O130 1.259 . S
C135 O132 1.235 . S
O136 Co126 2.021 . S
O136 C133 1.238 . S
O137 Co131 2.052 . S
O137 C133 1.241 . S
O138 Co126 2.137 1_455 S
O138 C129 1.247 . S
O139 Co126 2.244 1_455 S
O139 C129 1.272 . S
O139 Co131 2.135 1_455 S
Co140 O141 2.216 . S
Co140 O142 2.091 . S
Co140 O144 2.004 . S
Co140 O150 2.021 . S
Co140 O152 2.137 . S
Co140 O153 2.244 . S
O141 Co140 2.216 . S
O141 C148 1.247 . S
O142 Co140 2.091 . S
O142 C148 1.261 . S
C143 O152 1.247 . S
C143 O153 1.272 . S
O144 Co140 2.004 . S
O144 C149 1.259 . S
Co145 O146 2.061 . S
Co145 O151 2.052 . S
Co145 O153 2.135 . S
O146 Co145 2.061 . S
O146 C149 1.235 . S
C147 O150 1.238 . S
C147 O151 1.241 . S
C148 O141 1.247 . S
C148 O142 1.261 . S
C149 O144 1.259 . S
C149 O146 1.235 . S
O150 Co140 2.021 . S
O150 C147 1.238 . S
O151 Co145 2.052 . S
O151 C147 1.241 . S
O152 Co140 2.137 . S
O152 C143 1.247 . S
O153 Co140 2.244 . S
O153 C143 1.272 . S
O153 Co145 2.135 . S
Co154 O155 2.216 . S
Co154 O156 2.091 . S
Co154 O158 2.004 . S
Co154 O164 2.021 . S
Co154 O166 2.137 . S
Co154 O167 2.244 . S
O155 Co154 2.216 . S
O155 C162 1.247 . S
O156 Co154 2.091 . S
O156 C162 1.261 . S
C157 O166 1.247 . S
C157 O167 1.272 . S
O158 Co154 2.004 . S
O158 C163 1.259 . S
Co159 O160 2.061 . S
Co159 O165 2.052 . S
Co159 O167 2.135 . S
O160 Co159 2.061 . S
O160 C163 1.235 . S
C161 O164 1.238 . S
C161 O165 1.241 . S
C162 O155 1.247 . S
C162 O156 1.261 . S
C163 O158 1.259 . S
C163 O160 1.235 . S
O164 Co154 2.021 . S
O164 C161 1.238 . S
O165 Co159 2.052 . S
O165 C161 1.241 . S
O166 Co154 2.137 . S
O166 C157 1.247 . S
O167 Co154 2.244 . S
O167 C157 1.272 . S
O167 Co159 2.135 . S
Co168 O169 2.216 . S
Co168 O170 2.091 . S
Co168 O172 2.004 . S
Co168 O178 2.021 . S
Co168 O180 2.137 . S
Co168 O181 2.244 . S
O169 Co168 2.216 . S
O169 C176 1.247 . S
O170 Co168 2.091 . S
O170 C176 1.261 . S
C171 O180 1.247 . S
C171 O181 1.272 . S
O172 Co168 2.004 . S
O172 C177 1.259 . S
Co173 O174 2.061 . S
Co173 O179 2.052 . S
Co173 O181 2.135 . S
O174 Co173 2.061 . S
O174 C177 1.235 . S
C175 O178 1.238 . S
C175 O179 1.241 . S
C176 O169 1.247 . S
C176 O170 1.261 . S
C177 O172 1.259 . S
C177 O174 1.235 . S
O178 Co168 2.021 . S
O178 C175 1.238 . S
O179 Co173 2.052 . S
O179 C175 1.241 . S
O180 Co168 2.137 . S
O180 C171 1.247 . S
O181 Co168 2.244 . S
O181 C171 1.272 . S
O181 Co173 2.135 . S
Co182 O183 2.216 . S
Co182 O184 2.091 . S
Co182 O186 2.004 . S
Co182 O192 2.021 . S
Co182 O194 2.137 . S
Co182 O195 2.244 . S
O183 Co182 2.216 . S
O183 C190 1.247 . S
O184 Co182 2.091 . S
O184 C190 1.261 . S
C185 O194 1.247 . S
C185 O195 1.272 . S
O186 Co182 2.004 . S
O186 C191 1.259 . S
Co187 O188 2.061 . S
Co187 O193 2.052 . S
Co187 O195 2.135 . S
O188 Co187 2.061 . S
O188 C191 1.235 . S
C189 O192 1.238 . S
C189 O193 1.241 . S
C190 O183 1.247 . S
C190 O184 1.261 . S
C191 O186 1.259 . S
C191 O188 1.235 . S
O192 Co182 2.021 . S
O192 C189 1.238 . S
O193 Co187 2.052 . S
O193 C189 1.241 . S
O194 Co182 2.137 . S
O194 C185 1.247 . S
O195 Co182 2.244 . S
O195 C185 1.272 . S
O195 Co187 2.135 . S
Co196 O197 2.216 1_565 S
Co196 O198 2.091 . S
Co196 O200 2.004 . S
Co196 O206 2.021 . S
Co196 O208 2.137 1_565 S
Co196 O209 2.244 1_565 S
O197 Co196 2.216 1_545 S
O197 C204 1.247 1_545 S
O198 Co196 2.091 . S
O198 C204 1.261 . S
C199 O208 1.247 . S
C199 O209 1.272 . S
O200 Co196 2.004 . S
O200 C205 1.259 . S
Co201 O202 2.061 . S
Co201 O207 2.052 . S
Co201 O209 2.135 1_565 S
O202 Co201 2.061 . S
O202 C205 1.235 . S
C203 O206 1.238 . S
C203 O207 1.241 . S
C204 O197 1.247 1_565 S
C204 O198 1.261 . S
C205 O200 1.259 . S
C205 O202 1.235 . S
O206 Co196 2.021 . S
O206 C203 1.238 . S
O207 Co201 2.052 . S
O207 C203 1.241 . S
O208 Co196 2.137 1_545 S
O208 C199 1.247 . S
O209 Co196 2.244 1_545 S
O209 C199 1.272 . S
O209 Co201 2.135 1_545 S
Co210 O211 2.216 . S
Co210 O212 2.091 . S
Co210 O214 2.004 . S
Co210 O220 2.021 . S
Co210 O222 2.137 . S
Co210 O223 2.244 . S
O211 Co210 2.216 . S
O211 C218 1.247 . S
O212 Co210 2.091 . S
O212 C218 1.261 . S
C213 O222 1.247 . S
C213 O223 1.272 . S
O214 Co210 2.004 . S
O214 C219 1.259 . S
Co215 O216 2.061 . S
Co215 O221 2.052 . S
Co215 O223 2.135 . S
O216 Co215 2.061 . S
O216 C219 1.235 . S
C217 O220 1.238 . S
C217 O221 1.241 . S
C218 O211 1.247 . S
C218 O212 1.261 . S
C219 O214 1.259 . S
C219 O216 1.235 . S
O220 Co210 2.021 . S
O220 C217 1.238 . S
O221 Co215 2.052 . S
O221 C217 1.241 . S
O222 Co210 2.137 . S
O222 C213 1.247 . S
O223 Co210 2.244 . S
O223 C213 1.272 . S
O223 Co215 2.135 . S
Co224 O225 2.216 1_565 S
Co224 O226 2.091 . S
Co224 O228 2.004 . S
Co224 O234 2.021 . S
Co224 O236 2.137 1_565 S
Co224 O237 2.244 1_565 S
O225 Co224 2.216 1_545 S
O225 C232 1.247 1_545 S
O226 Co224 2.091 . S
O226 C232 1.261 . S
C227 O236 1.247 . S
C227 O237 1.272 . S
O228 Co224 2.004 . S
O228 C233 1.259 . S
Co229 O230 2.061 . S
Co229 O235 2.052 . S
Co229 O237 2.135 1_565 S
O230 Co229 2.061 . S
O230 C233 1.235 . S
C231 O234 1.238 . S
C231 O235 1.241 . S
C232 O225 1.247 1_565 S
C232 O226 1.261 . S
C233 O228 1.259 . S
C233 O230 1.235 . S
O234 Co224 2.021 . S
O234 C231 1.238 . S
O235 Co229 2.052 . S
O235 C231 1.241 . S
O236 Co224 2.137 1_545 S
O236 C227 1.247 . S
O237 Co224 2.244 1_545 S
O237 C227 1.272 . S
O237 Co229 2.135 1_545 S
Co238 O239 2.216 . S
Co238 O240 2.091 . S
Co238 O242 2.004 . S
Co238 O248 2.021 . S
Co238 O250 2.137 . S
Co238 O251 2.244 . S
O239 Co238 2.216 . S
O239 C246 1.247 1_455 S
O240 Co238 2.091 . S
O240 C246 1.261 1_455 S
C241 O250 1.247 . S
C241 O251 1.272 . S
O242 Co238 2.004 . S
O242 C247 1.259 . S
Co243 O244 2.061 . S
Co243 O249 2.052 . S
Co243 O251 2.135 . S
O244 Co243 2.061 . S
O244 C247 1.235 . S
C245 O248 1.238 . S
C245 O249 1.241 . S
C246 O239 1.247 1_655 S
C246 O240 1.261 1_655 S
C247 O242 1.259 . S
C247 O244 1.235 . S
O248 Co238 2.021 . S
O248 C245 1.238 . S
O249 Co243 2.052 . S
O249 C245 1.241 . S
O250 Co238 2.137 . S
O250 C241 1.247 . S
O251 Co238 2.244 . S
O251 C241 1.272 . S
O251 Co243 2.135 . S
Zn252 O258 1.920 1_455 S
Zn252 O264 1.898 1_445 S
Zn252 O267 1.905 . S
Zn253 O261 1.905 1_445 S
Zn253 O262 1.898 . S
Zn253 O270 1.920 1_455 S
Zn254 O257 2.080 . S
Zn254 O260 2.114 1_545 S
Zn254 O263 2.120 . S
Zn254 O265 2.120 1_445 S
Zn254 O266 2.114 . S
Zn254 O269 2.080 1_455 S
C255 O260 1.166 . S
C255 O261 1.182 1_455 S
C256 O262 1.167 . S
C256 O263 1.299 . S
O257 Zn254 2.080 . S
O257 C271 1.305 1_455 S
O258 Zn252 1.920 1_655 S
O258 C271 1.234 . S
C259 O264 1.167 . S
C259 O265 1.299 . S
O260 Zn254 2.114 1_565 S
O260 C255 1.166 . S
O261 Zn253 1.905 1_665 S
O261 C255 1.182 1_655 S
O262 Zn253 1.898 . S
O262 C256 1.167 . S
O263 Zn254 2.120 . S
O263 C256 1.299 . S
O264 Zn252 1.898 1_665 S
O264 C259 1.167 . S
O265 Zn254 2.120 1_665 S
O265 C259 1.299 . S
O266 Zn254 2.114 . S
O266 C268 1.166 . S
O267 Zn252 1.905 . S
O267 C268 1.182 . S
C268 O266 1.166 . S
C268 O267 1.182 . S
O269 Zn254 2.080 1_655 S
O269 C272 1.305 . S
O270 Zn253 1.920 1_655 S
O270 C272 1.234 . S
C271 O257 1.305 1_655 S
C271 O258 1.234 . S
C272 O269 1.305 . S
C272 O270 1.234 . S
Zn273 O279 1.920 1_545 S
Zn273 O285 1.898 . S
Zn273 O288 1.905 1_455 S
Zn274 O282 1.905 . S
Zn274 O283 1.898 1_445 S
Zn274 O291 1.920 1_545 S
Zn275 O278 2.080 1_545 S
Zn275 O281 2.114 . S
Zn275 O284 2.120 1_445 S
Zn275 O286 2.120 . S
Zn275 O287 2.114 1_455 S
Zn275 O290 2.080 . S
C276 O281 1.166 . S
C276 O282 1.182 . S
C277 O283 1.167 . S
C277 O284 1.299 . S
O278 Zn275 2.080 1_565 S
O278 C292 1.305 . S
O279 Zn273 1.920 1_565 S
O279 C292 1.234 . S
C280 O285 1.167 . S
C280 O286 1.299 . S
O281 Zn275 2.114 . S
O281 C276 1.166 . S
O282 Zn274 1.905 . S
O282 C276 1.182 . S
O283 Zn274 1.898 1_665 S
O283 C277 1.167 . S
O284 Zn275 2.120 1_665 S
O284 C277 1.299 . S
O285 Zn273 1.898 . S
O285 C280 1.167 . S
O286 Zn275 2.120 . S
O286 C280 1.299 . S
O287 Zn275 2.114 1_655 S
O287 C289 1.166 . S
O288 Zn273 1.905 1_655 S
O288 C289 1.182 . S
C289 O287 1.166 . S
C289 O288 1.182 . S
O290 Zn275 2.080 . S
O290 C293 1.305 . S
O291 Zn274 1.920 1_565 S
O291 C293 1.234 1_565 S
C292 O278 1.305 . S
C292 O279 1.234 . S
C293 O290 1.305 . S
C293 O291 1.234 1_545 S
Zn294 O300 1.920 1_545 S
Zn294 O306 1.898 . S
Zn294 O309 1.903 1_455 S
Zn295 O303 1.905 . S
Zn295 O304 1.898 1_445 S
Zn295 O312 1.920 . S
Zn296 O299 2.080 1_545 S
Zn296 O302 2.114 . S
Zn296 O305 2.120 1_445 S
Zn296 O307 2.120 . S
Zn296 O308 2.114 1_455 S
Zn296 O311 2.080 . S
C297 O302 1.166 . S
C297 O303 1.182 . S
C298 O304 1.167 . S
C298 O305 1.299 . S
O299 Zn296 2.080 1_565 S
O299 C313 1.305 . S
O300 Zn294 1.920 1_565 S
O300 C313 1.234 . S
C301 O306 1.167 . S
C301 O307 1.299 . S
O302 Zn296 2.114 . S
O302 C297 1.166 . S
O303 Zn295 1.905 . S
O303 C297 1.182 . S
O304 Zn295 1.898 1_665 S
O304 C298 1.167 . S
O305 Zn296 2.120 1_665 S
O305 C298 1.299 . S
O306 Zn294 1.898 . S
O306 C301 1.167 . S
O307 Zn296 2.120 . S
O307 C301 1.299 . S
O308 Zn296 2.114 1_655 S
O308 C310 1.166 . S
O309 Zn294 1.903 1_655 S
O309 C310 1.187 . S
C310 O308 1.166 . S
C310 O309 1.187 . S
O311 Zn296 2.080 . S
O311 C314 1.305 . S
O312 Zn295 1.920 . S
O312 C314 1.234 . S
C313 O299 1.305 . S
C313 O300 1.234 . S
C314 O311 1.305 . S
C314 O312 1.234 . S
Zn315 O321 1.920 . S
Zn315 O327 1.898 1_445 S
Zn315 O330 1.905 . S
Zn316 O324 1.905 1_445 S
Zn316 O325 1.898 . S
Zn316 O333 1.920 1_455 S
Zn317 O320 2.080 . S
Zn317 O323 2.114 1_545 S
Zn317 O326 2.120 . S
Zn317 O328 2.120 1_445 S
Zn317 O329 2.114 . S
Zn317 O332 2.080 1_455 S
C318 O323 1.166 . S
C318 O324 1.182 1_455 S
C319 O325 1.167 . S
C319 O326 1.299 . S
O320 Zn317 2.080 . S
O320 C334 1.305 . S
O321 Zn315 1.920 . S
O321 C334 1.234 . S
C322 O327 1.167 . S
C322 O328 1.299 . S
O323 Zn317 2.114 1_565 S
O323 C318 1.166 . S
O324 Zn316 1.905 1_665 S
O324 C318 1.182 1_655 S
O325 Zn316 1.898 . S
O325 C319 1.167 . S
O326 Zn317 2.120 . S
O326 C319 1.299 . S
O327 Zn315 1.898 1_665 S
O327 C322 1.167 . S
O328 Zn317 2.120 1_665 S
O328 C322 1.299 . S
O329 Zn317 2.114 . S
O329 C331 1.166 . S
O330 Zn315 1.905 . S
O330 C331 1.182 . S
C331 O329 1.166 . S
C331 O330 1.182 . S
O332 Zn317 2.080 1_655 S
O332 C335 1.305 . S
O333 Zn316 1.920 1_655 S
O333 C335 1.234 . S
C334 O320 1.305 . S
C334 O321 1.234 . S
C335 O332 1.305 . S
C335 O333 1.234 . S
Zn336 O342 1.920 . S
Zn336 O348 1.898 . S
Zn336 O351 1.905 . S
Zn337 O345 1.905 . S
Zn337 O346 1.898 . S
Zn337 O354 1.920 . S
Zn338 O341 2.080 . S
Zn338 O344 2.114 . S
Zn338 O347 2.120 . S
Zn338 O349 2.120 . S
Zn338 O350 2.114 . S
Zn338 O353 2.080 . S
C339 O344 1.166 . S
C339 O345 1.182 . S
C340 O346 1.167 . S
C340 O347 1.299 . S
O341 Zn338 2.080 . S
O341 C355 1.305 . S
O342 Zn336 1.920 . S
O342 C355 1.234 . S
C343 O348 1.167 . S
C343 O349 1.299 . S
O344 Zn338 2.114 . S
O344 C339 1.166 . S
O345 Zn337 1.905 . S
O345 C339 1.182 . S
O346 Zn337 1.898 . S
O346 C340 1.167 . S
O347 Zn338 2.120 . S
O347 C340 1.299 . S
O348 Zn336 1.898 . S
O348 C343 1.167 . S
O349 Zn338 2.120 . S
O349 C343 1.299 . S
O350 Zn338 2.114 . S
O350 C352 1.166 . S
O351 Zn336 1.905 . S
O351 C352 1.182 . S
C352 O350 1.166 . S
C352 O351 1.182 . S
O353 Zn338 2.080 . S
O353 C356 1.305 . S
O354 Zn337 1.920 . S
O354 C356 1.234 . S
C355 O341 1.305 . S
C355 O342 1.234 . S
C356 O353 1.305 . S
C356 O354 1.234 . S
Zn357 O363 1.920 . S
Zn357 O369 1.898 . S
Zn357 O372 1.905 . S
Zn358 O366 1.905 . S
Zn358 O367 1.898 . S
Zn358 O375 1.920 . S
Zn359 O362 2.080 . S
Zn359 O365 2.114 . S
Zn359 O368 2.120 . S
Zn359 O370 2.120 . S
Zn359 O371 2.114 . S
Zn359 O374 2.080 . S
C360 O365 1.166 . S
C360 O366 1.182 . S
C361 O367 1.167 . S
C361 O368 1.299 . S
O362 Zn359 2.080 . S
O362 C376 1.305 . S
O363 Zn357 1.920 . S
O363 C376 1.234 . S
C364 O369 1.167 . S
C364 O370 1.299 . S
O365 Zn359 2.114 . S
O365 C360 1.166 . S
O366 Zn358 1.905 . S
O366 C360 1.182 . S
O367 Zn358 1.898 . S
O367 C361 1.167 . S
O368 Zn359 2.120 . S
O368 C361 1.299 . S
O369 Zn357 1.898 . S
O369 C364 1.167 . S
O370 Zn359 2.120 . S
O370 C364 1.299 . S
O371 Zn359 2.114 . S
O371 C373 1.166 . S
O372 Zn357 1.905 . S
O372 C373 1.182 . S
C373 O371 1.166 . S
C373 O372 1.182 . S
O374 Zn359 2.080 . S
O374 C377 1.305 . S
O375 Zn358 1.920 . S
O375 C377 1.234 . S
C376 O362 1.305 . S
C376 O363 1.234 . S
C377 O374 1.305 . S
C377 O375 1.234 . S
Zn378 O384 1.920 . S
Zn378 O390 1.898 . S
Zn378 O393 1.905 . S
Zn379 O387 1.905 . S
Zn379 O388 1.898 . S
Zn379 O396 1.920 . S
Zn380 O383 2.080 . S
Zn380 O386 2.114 . S
Zn380 O389 2.120 . S
Zn380 O391 2.120 . S
Zn380 O392 2.114 . S
Zn380 O395 2.080 . S
C381 O386 1.166 . S
C381 O387 1.182 . S
C382 O388 1.167 . S
C382 O389 1.299 . S
O383 Zn380 2.080 . S
O383 C397 1.305 . S
O384 Zn378 1.920 . S
O384 C397 1.234 . S
C385 O390 1.167 . S
C385 O391 1.299 . S
O386 Zn380 2.114 . S
O386 C381 1.166 . S
O387 Zn379 1.905 . S
O387 C381 1.182 . S
O388 Zn379 1.898 . S
O388 C382 1.167 . S
O389 Zn380 2.120 . S
O389 C382 1.299 . S
O390 Zn378 1.898 . S
O390 C385 1.167 . S
O391 Zn380 2.120 . S
O391 C385 1.299 . S
O392 Zn380 2.114 . S
O392 C394 1.166 . S
O393 Zn378 1.905 . S
O393 C394 1.182 . S
C394 O392 1.166 . S
C394 O393 1.182 . S
O395 Zn380 2.080 . S
O395 C398 1.305 . S
O396 Zn379 1.920 . S
O396 C398 1.234 . S
C397 O383 1.305 . S
C397 O384 1.234 . S
C398 O395 1.305 . S
C398 O396 1.234 . S
Zn399 O405 1.920 . S
Zn399 O411 1.898 . S
Zn399 O414 1.905 . S
Zn400 O408 1.905 . S
Zn400 O409 1.898 . S
Zn400 O417 1.920 . S
Zn401 O404 2.080 . S
Zn401 O407 2.114 . S
Zn401 O410 2.120 . S
Zn401 O412 2.120 . S
Zn401 O413 2.114 . S
Zn401 O416 2.080 . S
C402 O407 1.166 . S
C402 O408 1.182 . S
C403 O409 1.167 . S
C403 O410 1.299 . S
O404 Zn401 2.080 . S
O404 C418 1.305 1_556 S
O405 Zn399 1.920 . S
O405 C418 1.234 . S
C406 O411 1.167 . S
C406 O412 1.299 1_554 S
O407 Zn401 2.114 . S
O407 C402 1.166 . S
O408 Zn400 1.905 . S
O408 C402 1.182 . S
O409 Zn400 1.898 . S
O409 C403 1.167 . S
O410 Zn401 2.120 . S
O410 C403 1.299 . S
O411 Zn399 1.898 . S
O411 C406 1.167 . S
O412 Zn401 2.120 . S
O412 C406 1.299 1_556 S
O413 Zn401 2.114 . S
O413 C415 1.166 1_556 S
O414 Zn399 1.905 . S
O414 C415 1.182 . S
C415 O413 1.166 1_554 S
C415 O414 1.182 . S
O416 Zn401 2.080 . S
O416 C419 1.305 . S
O417 Zn400 1.920 . S
O417 C419 1.234 . S
C418 O404 1.305 1_554 S
C418 O405 1.234 . S
C419 O416 1.305 . S
C419 O417 1.234 . S
Zn420 O426 1.920 . S
Zn420 O432 1.898 . S
Zn420 O435 1.905 . S
Zn421 O429 1.905 . S
Zn421 O430 1.898 . S
Zn421 O438 1.920 . S
Zn422 O425 2.080 . S
Zn422 O428 2.114 . S
Zn422 O431 2.120 . S
Zn422 O433 2.120 . S
Zn422 O434 2.114 . S
Zn422 O437 2.080 . S
C423 O428 1.166 . S
C423 O429 1.182 . S
C424 O430 1.167 . S
C424 O431 1.299 . S
O425 Zn422 2.080 . S
O425 C439 1.305 . S
O426 Zn420 1.920 . S
O426 C439 1.234 . S
C427 O432 1.167 . S
C427 O433 1.299 . S
O428 Zn422 2.114 . S
O428 C423 1.166 . S
O429 Zn421 1.905 . S
O429 C423 1.182 . S
O430 Zn421 1.898 . S
O430 C424 1.167 . S
O431 Zn422 2.120 . S
O431 C424 1.299 . S
O432 Zn420 1.898 . S
O432 C427 1.167 . S
O433 Zn422 2.120 . S
O433 C427 1.299 . S
O434 Zn422 2.114 . S
O434 C436 1.166 . S
O435 Zn420 1.905 . S
O435 C436 1.182 . S
C436 O434 1.166 . S
C436 O435 1.182 . S
O437 Zn422 2.080 . S
O437 C440 1.305 . S
O438 Zn421 1.920 . S
O438 C440 1.234 . S
C439 O425 1.305 . S
C439 O426 1.234 . S
C440 O437 1.305 . S
C440 O438 1.234 . S
Zn441 O447 1.920 . S
Zn441 O453 1.898 . S
Zn441 O456 1.905 . S
Zn442 O450 1.905 . S
Zn442 O451 1.898 . S
Zn442 O459 1.920 . S
Zn443 O446 2.080 . S
Zn443 O449 2.114 . S
Zn443 O452 2.120 . S
Zn443 O454 2.120 . S
Zn443 O455 2.114 . S
Zn443 O458 2.080 . S
C444 O449 1.166 1_556 S
C444 O450 1.182 . S
C445 O451 1.167 . S
C445 O452 1.299 1_556 S
O446 Zn443 2.080 . S
O446 C460 1.305 . S
O447 Zn441 1.920 . S
O447 C460 1.234 . S
C448 O453 1.167 . S
C448 O454 1.299 . S
O449 Zn443 2.114 . S
O449 C444 1.166 1_554 S
O450 Zn442 1.905 . S
O450 C444 1.182 . S
O451 Zn442 1.898 . S
O451 C445 1.167 . S
O452 Zn443 2.120 . S
O452 C445 1.299 1_554 S
O453 Zn441 1.898 . S
O453 C448 1.167 . S
O454 Zn443 2.120 . S
O454 C448 1.299 . S
O455 Zn443 2.114 . S
O455 C457 1.166 . S
O456 Zn441 1.905 . S
O456 C457 1.182 . S
C457 O455 1.166 . S
C457 O456 1.182 . S
O458 Zn443 2.080 . S
O458 C461 1.305 1_554 S
O459 Zn442 1.920 . S
O459 C461 1.234 . S
C460 O446 1.305 . S
C460 O447 1.234 . S
C461 O458 1.305 1_556 S
C461 O459 1.234 . S
Zn462 O468 1.920 . S
Zn462 O474 1.898 . S
Zn462 O477 1.905 . S
Zn463 O471 1.905 . S
Zn463 O472 1.898 . S
Zn463 O480 1.920 . S
Zn464 O467 2.080 . S
Zn464 O470 2.114 . S
Zn464 O473 2.120 . S
Zn464 O475 2.120 . S
Zn464 O476 2.114 . S
Zn464 O479 2.080 . S
C465 O470 1.166 . S
C465 O471 1.182 . S
C466 O472 1.167 . S
C466 O473 1.299 . S
O467 Zn464 2.080 . S
O467 C481 1.305 . S
O468 Zn462 1.920 . S
O468 C481 1.234 . S
C469 O474 1.167 . S
C469 O475 1.299 . S
O470 Zn464 2.114 . S
O470 C465 1.166 . S
O471 Zn463 1.905 . S
O471 C465 1.182 . S
O472 Zn463 1.898 . S
O472 C466 1.167 . S
O473 Zn464 2.120 . S
O473 C466 1.299 . S
O474 Zn462 1.898 . S
O474 C469 1.167 . S
O475 Zn464 2.120 . S
O475 C469 1.299 . S
O476 Zn464 2.114 . S
O476 C478 1.166 . S
O477 Zn462 1.905 . S
O477 C478 1.182 . S
C478 O476 1.166 . S
C478 O477 1.182 . S
O479 Zn464 2.080 . S
O479 C482 1.305 . S
O480 Zn463 1.920 . S
O480 C482 1.234 . S
C481 O467 1.305 . S
C481 O468 1.234 . S
C482 O479 1.305 . S
C482 O480 1.234 . S
Zn483 O489 1.920 . S
Zn483 O495 1.898 . S
Zn483 O498 1.905 . S
Zn484 O492 1.905 . S
Zn484 O493 1.898 . S
Zn484 O501 1.920 . S
Zn485 O488 2.080 . S
Zn485 O491 2.114 . S
Zn485 O494 2.120 . S
Zn485 O496 2.120 . S
Zn485 O497 2.114 . S
Zn485 O500 2.080 . S
C486 O491 1.166 . S
C486 O492 1.182 . S
C487 O493 1.167 . S
C487 O494 1.299 . S
O488 Zn485 2.080 . S
O488 C502 1.305 . S
O489 Zn483 1.920 . S
O489 C502 1.234 . S
C490 O495 1.167 . S
C490 O496 1.299 . S
O491 Zn485 2.114 . S
O491 C486 1.166 . S
O492 Zn484 1.905 . S
O492 C486 1.182 . S
O493 Zn484 1.898 . S
O493 C487 1.167 . S
O494 Zn485 2.120 . S
O494 C487 1.299 . S
O495 Zn483 1.898 . S
O495 C490 1.167 . S
O496 Zn485 2.120 . S
O496 C490 1.299 . S
O497 Zn485 2.114 . S
O497 C499 1.166 . S
O498 Zn483 1.905 . S
O498 C499 1.182 . S
C499 O497 1.166 . S
C499 O498 1.182 . S
O500 Zn485 2.080 . S
O500 C503 1.305 . S
O501 Zn484 1.920 . S
O501 C503 1.234 . S
C502 O488 1.305 . S
C502 O489 1.234 . S
C503 O500 1.305 . S
C503 O501 1.234 . S
H504 C510 0.930 . S
H505 C514 0.930 . S
H506 C519 0.929 . S
H507 C517 0.929 . S
H508 C512 0.929 . S
H509 C518 0.929 . S
C510 H504 0.930 . S
C510 C511 1.367 . S
C510 C518 1.378 . S
C511 C510 1.367 . S
C511 C519 1.433 . S
C512 H508 0.929 . S
C512 C514 1.378 . S
C512 C516 1.350 . S
C513 C516 1.463 . S
C513 C518 1.350 . S
C513 N521 1.427 . S
C514 H505 0.930 . S
C514 C512 1.378 . S
C514 C515 1.367 . S
C515 C514 1.367 . S
C515 C517 1.433 . S
C516 C512 1.350 . S
C516 C513 1.463 . S
C516 N520 1.427 . S
C517 H507 0.929 . S
C517 C515 1.433 . S
C517 N520 1.384 . S
C518 H509 0.929 . S
C518 C510 1.378 . S
C518 C513 1.350 . S
C519 H506 0.929 . S
C519 C511 1.433 . S
C519 N521 1.384 . S
N520 C516 1.427 . S
N520 C517 1.384 . S
N521 C513 1.427 . S
N521 C519 1.384 . S
H522 C528 0.930 . S
H523 C532 0.930 . S
H524 C537 0.929 . S
H525 C535 0.929 1_565 S
H526 C530 0.929 . S
H527 C536 0.929 . S
C528 H522 0.930 . S
C528 C529 1.367 1_565 S
C528 C536 1.378 . S
C529 C528 1.367 1_545 S
C529 C537 1.433 . S
C530 H526 0.929 . S
C530 C532 1.378 . S
C530 C534 1.350 . S
C531 C534 1.463 . S
C531 C536 1.350 1_545 S
C531 N539 1.427 . S
C532 H523 0.930 . S
C532 C530 1.378 . S
C532 C533 1.367 . S
C533 C532 1.367 . S
C533 C535 1.433 . S
C534 C530 1.350 . S
C534 C531 1.463 . S
C534 N538 1.427 1_545 S
C535 H525 0.929 1_545 S
C535 C533 1.433 . S
C535 N538 1.384 1_545 S
C536 H527 0.929 . S
C536 C528 1.378 . S
C536 C531 1.350 1_565 S
C537 H524 0.929 . S
C537 C529 1.433 . S
C537 N539 1.384 . S
N538 C534 1.427 1_565 S
N538 C535 1.384 1_565 S
N539 C531 1.427 . S
N539 C537 1.384 . S
H540 C546 0.931 . S
H541 C550 0.930 . S
H542 C555 0.929 . S
H543 C553 0.929 . S
H544 C548 0.929 . S
H545 C554 0.929 . S
C546 H540 0.931 . S
C546 C547 1.367 1_655 S
C546 C554 1.377 . S
C547 C546 1.367 1_455 S
C547 C555 1.433 . S
C548 H544 0.929 . S
C548 C550 1.378 . S
C548 C552 1.350 . S
C549 C552 1.463 . S
C549 C554 1.350 1_455 S
C549 N557 1.427 . S
C550 H541 0.930 . S
C550 C548 1.378 . S
C550 C551 1.373 . S
C551 C550 1.373 . S
C551 C553 1.437 1_455 S
C552 C548 1.350 . S
C552 C549 1.463 . S
C552 N556 1.427 1_455 S
C553 H543 0.929 . S
C553 C551 1.437 1_655 S
C553 N556 1.384 . S
C554 H545 0.929 . S
C554 C546 1.377 . S
C554 C549 1.350 1_655 S
C555 H542 0.929 . S
C555 C547 1.433 . S
C555 N557 1.384 . S
N556 C552 1.427 1_655 S
N556 C553 1.384 . S
N557 C549 1.427 . S
N557 C555 1.384 . S
H558 C564 0.930 . S
H559 C568 0.930 . S
H560 C573 0.929 . S
H561 C571 0.929 . S
H562 C566 0.929 . S
H563 C572 0.929 . S
C564 H558 0.930 . S
C564 C565 1.367 . S
C564 C572 1.378 . S
C565 C564 1.367 . S
C565 C573 1.433 . S
C566 H562 0.929 . S
C566 C568 1.378 . S
C566 C570 1.350 . S
C567 C570 1.463 . S
C567 C572 1.350 . S
C567 N575 1.427 . S
C568 H559 0.930 . S
C568 C566 1.378 . S
C568 C569 1.367 . S
C569 C568 1.367 . S
C569 C571 1.433 . S
C570 C566 1.350 . S
C570 C567 1.463 . S
C570 N574 1.427 . S
C571 H561 0.929 . S
C571 C569 1.433 . S
C571 N574 1.384 . S
C572 H563 0.929 . S
C572 C564 1.378 . S
C572 C567 1.350 . S
C573 H560 0.929 . S
C573 C565 1.433 . S
C573 N575 1.384 . S
N574 C570 1.427 . S
N574 C571 1.384 . S
N575 C567 1.427 . S
N575 C573 1.384 . S
H576 C582 0.930 . S
H577 C586 0.930 . S
H578 C591 0.929 . S
H579 C589 0.929 . S
H580 C584 0.929 . S
H581 C590 0.929 . S
C582 H576 0.930 . S
C582 C583 1.367 . S
C582 C590 1.378 . S
C583 C582 1.367 . S
C583 C591 1.433 1_545 S
C584 H580 0.929 . S
C584 C586 1.378 . S
C584 C588 1.350 1_565 S
C585 C588 1.463 . S
C585 C590 1.350 . S
C585 N593 1.427 1_545 S
C586 H577 0.930 . S
C586 C584 1.378 . S
C586 C587 1.367 1_565 S
C587 C586 1.367 1_545 S
C587 C589 1.433 . S
C588 C584 1.350 1_545 S
C588 C585 1.463 . S
C588 N592 1.427 . S
C589 H579 0.929 . S
C589 C587 1.433 . S
C589 N592 1.384 . S
C590 H581 0.929 . S
C590 C582 1.378 . S
C590 C585 1.350 . S
C591 H578 0.929 . S
C591 C583 1.433 1_565 S
C591 N593 1.384 . S
N592 C588 1.427 . S
N592 C589 1.384 . S
N593 C585 1.427 1_565 S
N593 C591 1.384 . S
H594 C600 0.930 . S
H595 C604 0.930 . S
H596 C609 0.929 . S
H597 C607 0.929 1_655 S
H598 C602 0.929 . S
H599 C608 0.929 . S
C600 H594 0.930 . S
C600 C601 1.367 1_655 S
C600 C608 1.378 . S
C601 C600 1.367 1_455 S
C601 C609 1.433 . S
C602 H598 0.929 . S
C602 C604 1.378 . S
C602 C606 1.350 . S
C603 C606 1.463 . S
C603 C608 1.350 1_455 S
C603 N611 1.427 . S
C604 H595 0.930 . S
C604 C602 1.378 . S
C604 C605 1.367 . S
C605 C604 1.367 . S
C605 C607 1.433 . S
C606 C602 1.350 . S
C606 C603 1.463 . S
C606 N610 1.427 . S
C607 H597 0.929 1_455 S
C607 C605 1.433 . S
C607 N610 1.384 . S
C608 H599 0.929 . S
C608 C600 1.378 . S
C608 C603 1.350 1_655 S
C609 H596 0.929 . S
C609 C601 1.433 . S
C609 N611 1.384 . S
N610 C606 1.427 . S
N610 C607 1.384 . S
N611 C603 1.427 . S
N611 C609 1.384 . S
H612 C618 0.930 . S
H613 C622 0.930 . S
H614 C627 0.929 . S
H615 C625 0.929 . S
H616 C620 0.929 . S
H617 C626 0.929 . S
C618 H612 0.930 . S
C618 C619 1.367 . S
C618 C626 1.378 . S
C619 C618 1.367 . S
C619 C627 1.433 . S
C620 H616 0.929 . S
C620 C622 1.378 . S
C620 C624 1.350 . S
C621 C624 1.463 . S
C621 C626 1.350 . S
C621 N629 1.427 . S
C622 H613 0.930 . S
C622 C620 1.378 . S
C622 C623 1.367 . S
C623 C622 1.367 . S
C623 C625 1.433 . S
C624 C620 1.350 . S
C624 C621 1.463 . S
C624 N628 1.427 . S
C625 H615 0.929 . S
C625 C623 1.433 . S
C625 N628 1.384 . S
C626 H617 0.929 . S
C626 C618 1.378 . S
C626 C621 1.350 . S
C627 H614 0.929 . S
C627 C619 1.433 . S
C627 N629 1.384 . S
N628 C624 1.427 . S
N628 C625 1.384 . S
N629 C621 1.427 . S
N629 C627 1.384 . S
H630 C636 0.930 . S
H631 C640 0.930 . S
H632 C645 0.929 . S
H633 C643 0.929 . S
H634 C638 0.929 . S
H635 C644 0.929 . S
C636 H630 0.930 . S
C636 C637 1.367 1_565 S
C636 C644 1.378 . S
C637 C636 1.367 1_545 S
C637 C645 1.433 . S
C638 H634 0.929 . S
C638 C640 1.378 . S
C638 C642 1.350 . S
C639 C642 1.463 . S
C639 C644 1.350 1_545 S
C639 N647 1.427 . S
C640 H631 0.930 . S
C640 C638 1.378 . S
C640 C641 1.367 . S
C641 C640 1.367 . S
C641 C643 1.433 1_545 S
C642 C638 1.350 . S
C642 C639 1.463 . S
C642 N646 1.427 1_545 S
C643 H633 0.929 . S
C643 C641 1.433 1_565 S
C643 N646 1.384 . S
C644 H635 0.929 . S
C644 C636 1.378 . S
C644 C639 1.350 1_565 S
C645 H632 0.929 . S
C645 C637 1.433 . S
C645 N647 1.384 . S
N646 C642 1.427 1_565 S
N646 C643 1.384 . S
N647 C639 1.427 . S
N647 C645 1.384 . S
H648 C654 0.930 . S
H649 C658 0.935 . S
H650 C663 0.929 . S
H651 C661 0.929 . S
H652 C656 0.929 . S
H653 C662 0.929 . S
C654 H648 0.930 . S
C654 C655 1.367 . S
C654 C662 1.378 . S
C655 C654 1.367 . S
C655 C663 1.433 1_455 S
C656 H652 0.929 . S
C656 C658 1.384 . S
C656 C660 1.350 1_655 S
C657 C660 1.463 . S
C657 C662 1.350 . S
C657 N665 1.427 1_455 S
C658 H649 0.935 . S
C658 C656 1.384 . S
C658 C659 1.357 1_655 S
C659 C658 1.357 1_455 S
C659 C661 1.433 . S
C660 C656 1.350 1_455 S
C660 C657 1.463 . S
C660 N664 1.427 . S
C661 H651 0.929 . S
C661 C659 1.433 . S
C661 N664 1.384 . S
C662 H653 0.929 . S
C662 C654 1.378 . S
C662 C657 1.350 . S
C663 H650 0.929 . S
C663 C655 1.433 1_655 S
C663 N665 1.384 . S
N664 C660 1.427 . S
N664 C661 1.384 . S
N665 C657 1.427 1_655 S
N665 C663 1.384 . S
H666 C672 0.930 . S
H667 C676 0.930 . S
H668 C681 0.929 . S
H669 C679 0.929 . S
H670 C674 0.929 . S
H671 C680 0.929 . S
C672 H666 0.930 . S
C672 C673 1.367 . S
C672 C680 1.378 . S
C673 C672 1.367 . S
C673 C681 1.433 . S
C674 H670 0.929 . S
C674 C676 1.378 . S
C674 C678 1.350 . S
C675 C678 1.463 . S
C675 C680 1.350 . S
C675 N683 1.427 . S
C676 H667 0.930 . S
C676 C674 1.378 . S
C676 C677 1.367 . S
C677 C676 1.367 . S
C677 C679 1.433 . S
C678 C674 1.350 . S
C678 C675 1.463 . S
C678 N682 1.427 . S
C679 H669 0.929 . S
C679 C677 1.433 . S
C679 N682 1.384 . S
C680 H671 0.929 . S
C680 C672 1.378 . S
C680 C675 1.350 . S
C681 H668 0.929 . S
C681 C673 1.433 . S
C681 N683 1.384 . S
N682 C678 1.427 . S
N682 C679 1.384 . S
N683 C675 1.427 . S
N683 C681 1.384 . S
H684 C690 0.930 . S
H685 C694 0.930 . S
H686 C699 0.929 . S
H687 C697 0.929 . S
H688 C692 0.929 . S
H689 C698 0.929 . S
C690 H684 0.930 . S
C690 C691 1.367 . S
C690 C698 1.378 . S
C691 C690 1.367 . S
C691 C699 1.433 1_545 S
C692 H688 0.929 . S
C692 C694 1.377 . S
C692 C696 1.350 1_565 S
C693 C696 1.463 . S
C693 C698 1.350 . S
C693 N701 1.427 1_545 S
C694 H685 0.930 . S
C694 C692 1.377 . S
C694 C695 1.368 1_565 S
C695 C694 1.368 1_545 S
C695 C697 1.433 . S
C696 C692 1.350 1_545 S
C696 C693 1.463 . S
C696 N700 1.427 . S
C697 H687 0.929 . S
C697 C695 1.433 . S
C697 N700 1.384 . S
C698 H689 0.929 . S
C698 C690 1.378 . S
C698 C693 1.350 . S
C699 H686 0.929 . S
C699 C691 1.433 1_565 S
C699 N701 1.384 . S
N700 C696 1.427 . S
N700 C697 1.384 . S
N701 C693 1.427 1_565 S
N701 C699 1.384 . S
H702 C708 0.930 . S
H703 C712 0.930 . S
H704 C717 0.929 . S
H705 C715 0.929 . S
H706 C710 0.929 . S
H707 C716 0.929 . S
C708 H702 0.930 . S
C708 C709 1.367 1_655 S
C708 C716 1.378 . S
C709 C708 1.367 1_455 S
C709 C717 1.433 . S
C710 H706 0.929 . S
C710 C712 1.378 . S
C710 C714 1.350 . S
C711 C714 1.463 . S
C711 C716 1.350 1_455 S
C711 N719 1.427 . S
C712 H703 0.930 . S
C712 C710 1.378 . S
C712 C713 1.367 . S
C713 C712 1.367 . S
C713 C715 1.433 1_455 S
C714 C710 1.350 . S
C714 C711 1.463 . S
C714 N718 1.427 1_455 S
C715 H705 0.929 . S
C715 C713 1.433 1_655 S
C715 N718 1.384 . S
C716 H707 0.929 . S
C716 C708 1.378 . S
C716 C711 1.350 1_655 S
C717 H704 0.929 . S
C717 C709 1.433 . S
C717 N719 1.384 . S
N718 C714 1.427 1_655 S
N718 C715 1.384 . S
N719 C711 1.427 . S
N719 C717 1.384 . S
H720 C726 0.930 . S
H721 C730 0.930 . S
H722 C735 0.929 . S
H723 C733 0.929 . S
H724 C728 0.929 . S
H725 C734 0.929 . S
C726 H720 0.930 . S
C726 C727 1.367 . S
C726 C734 1.378 . S
C727 C726 1.367 . S
C727 C735 1.433 . S
C728 H724 0.929 . S
C728 C730 1.378 . S
C728 C732 1.350 . S
C729 C732 1.463 . S
C729 C734 1.350 . S
C729 N737 1.427 . S
C730 H721 0.930 . S
C730 C728 1.378 . S
C730 C731 1.367 . S
C731 C730 1.367 . S
C731 C733 1.433 . S
C732 C728 1.350 . S
C732 C729 1.463 . S
C732 N736 1.427 . S
C733 H723 0.929 . S
C733 C731 1.433 . S
C733 N736 1.384 . S
C734 H725 0.929 . S
C734 C726 1.378 . S
C734 C729 1.350 . S
C735 H722 0.929 . S
C735 C727 1.433 . S
C735 N737 1.384 . S
N736 C732 1.427 . S
N736 C733 1.384 . S
N737 C729 1.427 . S
N737 C735 1.384 . S
H738 C744 0.930 . S
H739 C748 0.930 . S
H740 C753 0.929 . S
H741 C751 0.929 . S
H742 C746 0.929 . S
H743 C752 0.929 . S
C744 H738 0.930 . S
C744 C745 1.367 . S
C744 C752 1.378 . S
C745 C744 1.367 . S
C745 C753 1.433 . S
C746 H742 0.929 . S
C746 C748 1.378 . S
C746 C750 1.350 . S
C747 C750 1.463 . S
C747 C752 1.350 . S
C747 N755 1.427 . S
C748 H739 0.930 . S
C748 C746 1.378 . S
C748 C749 1.367 . S
C749 C748 1.367 . S
C749 C751 1.433 . S
C750 C746 1.350 . S
C750 C747 1.463 . S
C750 N754 1.427 . S
C751 H741 0.929 . S
C751 C749 1.433 . S
C751 N754 1.384 . S
C752 H743 0.929 . S
C752 C744 1.378 . S
C752 C747 1.350 . S
C753 H740 0.929 . S
C753 C745 1.433 . S
C753 N755 1.384 . S
N754 C750 1.427 . S
N754 C751 1.384 . S
N755 C747 1.427 . S
N755 C753 1.384 . S
H756 C762 0.930 . S
H757 C766 0.930 . S
H758 C771 0.929 . S
H759 C769 0.929 . S
H760 C764 0.929 . S
H761 C770 0.929 . S
C762 H756 0.930 . S
C762 C763 1.367 . S
C762 C770 1.378 . S
C763 C762 1.367 . S
C763 C771 1.433 . S
C764 H760 0.929 . S
C764 C766 1.378 . S
C764 C768 1.350 . S
C765 C768 1.463 . S
C765 C770 1.350 . S
C765 N773 1.427 . S
C766 H757 0.930 . S
C766 C764 1.378 . S
C766 C767 1.367 . S
C767 C766 1.367 . S
C767 C769 1.433 . S
C768 C764 1.350 . S
C768 C765 1.463 . S
C768 N772 1.427 . S
C769 H759 0.929 . S
C769 C767 1.433 . S
C769 N772 1.384 . S
C770 H761 0.929 . S
C770 C762 1.378 . S
C770 C765 1.350 . S
C771 H758 0.929 . S
C771 C763 1.433 . S
C771 N773 1.384 . S
N772 C768 1.427 . S
N772 C769 1.384 . S
N773 C765 1.427 . S
N773 C771 1.384 . S
H774 C780 0.930 . S
H775 C784 0.930 . S
H776 C789 0.929 . S
H777 C787 0.929 . S
H778 C782 0.929 . S
H779 C788 0.929 . S
C780 H774 0.930 . S
C780 C781 1.367 . S
C780 C788 1.378 . S
C781 C780 1.367 . S
C781 C789 1.433 . S
C782 H778 0.929 . S
C782 C784 1.378 . S
C782 C786 1.350 . S
C783 C786 1.463 . S
C783 C788 1.350 . S
C783 N791 1.427 . S
C784 H775 0.930 . S
C784 C782 1.378 . S
C784 C785 1.367 . S
C785 C784 1.367 . S
C785 C787 1.433 . S
C786 C782 1.350 . S
C786 C783 1.463 . S
C786 N790 1.427 . S
C787 H777 0.929 . S
C787 C785 1.433 . S
C787 N790 1.384 . S
C788 H779 0.929 . S
C788 C780 1.378 . S
C788 C783 1.350 . S
C789 H776 0.929 . S
C789 C781 1.433 . S
C789 N791 1.384 . S
N790 C786 1.427 . S
N790 C787 1.384 . S
N791 C783 1.427 . S
N791 C789 1.384 . S
H792 C798 0.930 . S
H793 C802 0.930 . S
H794 C807 0.929 . S
H795 C805 0.929 . S
H796 C800 0.929 . S
H797 C806 0.929 . S
C798 H792 0.930 . S
C798 C799 1.367 . S
C798 C806 1.378 . S
C799 C798 1.367 . S
C799 C807 1.433 . S
C800 H796 0.929 . S
C800 C802 1.378 . S
C800 C804 1.350 . S
C801 C804 1.463 . S
C801 C806 1.350 . S
C801 N809 1.427 . S
C802 H793 0.930 . S
C802 C800 1.378 . S
C802 C803 1.367 . S
C803 C802 1.367 . S
C803 C805 1.433 . S
C804 C800 1.350 . S
C804 C801 1.463 . S
C804 N808 1.427 . S
C805 H795 0.929 . S
C805 C803 1.433 . S
C805 N808 1.384 . S
C806 H797 0.929 . S
C806 C798 1.378 . S
C806 C801 1.350 . S
C807 H794 0.929 . S
C807 C799 1.433 . S
C807 N809 1.384 . S
N808 C804 1.427 . S
N808 C805 1.384 . S
N809 C801 1.427 . S
N809 C807 1.384 . S
H810 C816 0.930 . S
H811 C820 0.930 . S
H812 C825 0.929 . S
H813 C823 0.929 . S
H814 C818 0.929 . S
H815 C824 0.929 . S
C816 H810 0.930 . S
C816 C817 1.367 . S
C816 C824 1.378 . S
C817 C816 1.367 . S
C817 C825 1.433 . S
C818 H814 0.929 . S
C818 C820 1.378 . S
C818 C822 1.350 . S
C819 C822 1.463 . S
C819 C824 1.350 . S
C819 N827 1.427 . S
C820 H811 0.930 . S
C820 C818 1.378 . S
C820 C821 1.367 . S
C821 C820 1.367 . S
C821 C823 1.433 . S
C822 C818 1.350 . S
C822 C819 1.463 . S
C822 N826 1.427 . S
C823 H813 0.929 . S
C823 C821 1.433 . S
C823 N826 1.384 . S
C824 H815 0.929 . S
C824 C816 1.378 . S
C824 C819 1.350 . S
C825 H812 0.929 . S
C825 C817 1.433 . S
C825 N827 1.384 . S
N826 C822 1.427 . S
N826 C823 1.384 . S
N827 C819 1.427 . S
N827 C825 1.384 . S
H828 C834 0.930 . S
H829 C838 0.930 . S
H830 C843 0.929 . S
H831 C841 0.929 . S
H832 C836 0.929 . S
H833 C842 0.929 . S
C834 H828 0.930 . S
C834 C835 1.367 . S
C834 C842 1.378 . S
C835 C834 1.367 . S
C835 C843 1.433 . S
C836 H832 0.929 . S
C836 C838 1.378 . S
C836 C840 1.350 . S
C837 C840 1.463 . S
C837 C842 1.350 . S
C837 N845 1.427 . S
C838 H829 0.930 . S
C838 C836 1.378 . S
C838 C839 1.367 . S
C839 C838 1.367 . S
C839 C841 1.433 . S
C840 C836 1.350 . S
C840 C837 1.463 . S
C840 N844 1.427 . S
C841 H831 0.929 . S
C841 C839 1.433 . S
C841 N844 1.384 . S
C842 H833 0.929 . S
C842 C834 1.378 . S
C842 C837 1.350 . S
C843 H830 0.929 . S
C843 C835 1.433 . S
C843 N845 1.384 . S
N844 C840 1.427 . S
N844 C841 1.384 . S
N845 C837 1.427 . S
N845 C843 1.384 . S
H846 C852 0.930 . S
H847 C856 0.930 . S
H848 C861 0.929 . S
H849 C859 0.929 . S
H850 C854 0.929 . S
H851 C860 0.929 . S
C852 H846 0.930 . S
C852 C853 1.367 . S
C852 C860 1.378 . S
C853 C852 1.367 . S
C853 C861 1.433 . S
C854 H850 0.929 . S
C854 C856 1.378 . S
C854 C858 1.350 . S
C855 C858 1.463 . S
C855 C860 1.350 . S
C855 N863 1.427 . S
C856 H847 0.930 . S
C856 C854 1.378 . S
C856 C857 1.367 . S
C857 C856 1.367 . S
C857 C859 1.433 . S
C858 C854 1.350 . S
C858 C855 1.463 . S
C858 N862 1.427 . S
C859 H849 0.929 . S
C859 C857 1.433 . S
C859 N862 1.384 . S
C860 H851 0.929 . S
C860 C852 1.378 . S
C860 C855 1.350 . S
C861 H848 0.929 . S
C861 C853 1.433 . S
C861 N863 1.384 . S
N862 C858 1.427 . S
N862 C859 1.384 . S
N863 C855 1.427 . S
N863 C861 1.384 . S
H864 C870 0.930 . S
H865 C874 0.930 . S
H866 C879 0.929 . S
H867 C877 0.929 . S
H868 C872 0.929 . S
H869 C878 0.929 . S
C870 H864 0.930 . S
C870 C871 1.367 . S
C870 C878 1.378 . S
C871 C870 1.367 . S
C871 C879 1.433 . S
C872 H868 0.929 . S
C872 C874 1.378 . S
C872 C876 1.350 . S
C873 C876 1.463 . S
C873 C878 1.350 . S
C873 N881 1.427 . S
C874 H865 0.930 . S
C874 C872 1.378 . S
C874 C875 1.367 . S
C875 C874 1.367 . S
C875 C877 1.433 . S
C876 C872 1.350 . S
C876 C873 1.463 . S
C876 N880 1.427 . S
C877 H867 0.929 . S
C877 C875 1.433 . S
C877 N880 1.384 . S
C878 H869 0.929 . S
C878 C870 1.378 . S
C878 C873 1.350 . S
C879 H866 0.929 . S
C879 C871 1.433 . S
C879 N881 1.384 . S
N880 C876 1.427 . S
N880 C877 1.384 . S
N881 C873 1.427 . S
N881 C879 1.384 . S
H882 C888 0.930 . S
H883 C892 0.930 1_556 S
H884 C897 0.929 . S
H885 C895 0.929 . S
H886 C890 0.929 . S
H887 C896 0.929 . S
C888 H882 0.930 . S
C888 C889 1.367 . S
C888 C896 1.378 . S
C889 C888 1.367 . S
C889 C897 1.433 . S
C890 H886 0.929 . S
C890 C892 1.378 . S
C890 C894 1.350 . S
C891 C894 1.463 . S
C891 C896 1.350 . S
C891 N899 1.427 . S
C892 H883 0.930 1_554 S
C892 C890 1.378 . S
C892 C893 1.367 . S
C893 C892 1.367 . S
C893 C895 1.433 . S
C894 C890 1.350 . S
C894 C891 1.463 . S
C894 N898 1.427 . S
C895 H885 0.929 . S
C895 C893 1.433 . S
C895 N898 1.384 . S
C896 H887 0.929 . S
C896 C888 1.378 . S
C896 C891 1.350 . S
C897 H884 0.929 . S
C897 C889 1.433 . S
C897 N899 1.384 . S
N898 C894 1.427 . S
N898 C895 1.384 . S
N899 C891 1.427 . S
N899 C897 1.384 . S
H900 C906 0.930 . S
H901 C910 0.930 . S
H902 C915 0.929 . S
H903 C913 0.929 . S
H904 C908 0.929 . S
H905 C914 0.929 . S
C906 H900 0.930 . S
C906 C907 1.367 . S
C906 C914 1.378 . S
C907 C906 1.367 . S
C907 C915 1.433 . S
C908 H904 0.929 . S
C908 C910 1.378 . S
C908 C912 1.350 . S
C909 C912 1.463 . S
C909 C914 1.350 . S
C909 N917 1.427 . S
C910 H901 0.930 . S
C910 C908 1.378 . S
C910 C911 1.367 . S
C911 C910 1.367 . S
C911 C913 1.433 . S
C912 C908 1.350 . S
C912 C909 1.463 . S
C912 N916 1.427 . S
C913 H903 0.929 . S
C913 C911 1.433 . S
C913 N916 1.384 . S
C914 H905 0.929 . S
C914 C906 1.378 . S
C914 C909 1.350 . S
C915 H902 0.929 . S
C915 C907 1.433 . S
C915 N917 1.384 . S
N916 C912 1.427 . S
N916 C913 1.384 . S
N917 C909 1.427 . S
N917 C915 1.384 . S
H918 C924 0.930 . S
H919 C928 0.930 . S
H920 C933 0.929 . S
H921 C931 0.929 . S
H922 C926 0.929 . S
H923 C932 0.929 . S
C924 H918 0.930 . S
C924 C925 1.367 . S
C924 C932 1.378 . S
C925 C924 1.367 . S
C925 C933 1.433 . S
C926 H922 0.929 . S
C926 C928 1.378 . S
C926 C930 1.350 . S
C927 C930 1.463 . S
C927 C932 1.350 . S
C927 N935 1.427 . S
C928 H919 0.930 . S
C928 C926 1.378 . S
C928 C929 1.367 . S
C929 C928 1.367 . S
C929 C931 1.433 . S
C930 C926 1.350 . S
C930 C927 1.463 . S
C930 N934 1.427 . S
C931 H921 0.929 . S
C931 C929 1.433 . S
C931 N934 1.384 . S
C932 H923 0.929 . S
C932 C924 1.378 . S
C932 C927 1.350 . S
C933 H920 0.929 . S
C933 C925 1.433 . S
C933 N935 1.384 . S
N934 C930 1.427 . S
N934 C931 1.384 . S
N935 C927 1.427 . S
N935 C933 1.384 . S
H936 C942 0.930 . S
H937 C946 0.930 . S
H938 C951 0.929 . S
H939 C949 0.929 . S
H940 C944 0.929 . S
H941 C950 0.929 . S
C942 H936 0.930 . S
C942 C943 1.367 . S
C942 C950 1.378 . S
C943 C942 1.367 . S
C943 C951 1.433 . S
C944 H940 0.929 . S
C944 C946 1.378 . S
C944 C948 1.350 . S
C945 C948 1.463 . S
C945 C950 1.350 . S
C945 N953 1.427 . S
C946 H937 0.930 . S
C946 C944 1.378 . S
C946 C947 1.367 . S
C947 C946 1.367 . S
C947 C949 1.433 . S
C948 C944 1.350 . S
C948 C945 1.463 . S
C948 N952 1.427 . S
C949 H939 0.929 . S
C949 C947 1.433 . S
C949 N952 1.384 . S
C950 H941 0.929 . S
C950 C942 1.378 . S
C950 C945 1.350 . S
C951 H938 0.929 . S
C951 C943 1.433 . S
C951 N953 1.384 . S
N952 C948 1.427 . S
N952 C949 1.384 . S
N953 C945 1.427 . S
N953 C951 1.384 . S
H954 C960 0.930 . S
H955 C964 0.930 . S
H956 C969 0.929 . S
H957 C967 0.929 . S
H958 C962 0.929 . S
H959 C968 0.929 . S
C960 H954 0.930 . S
C960 C961 1.367 . S
C960 C968 1.378 . S
C961 C960 1.367 . S
C961 C969 1.433 . S
C962 H958 0.929 . S
C962 C964 1.378 . S
C962 C966 1.350 . S
C963 C966 1.463 . S
C963 C968 1.350 . S
C963 N971 1.427 . S
C964 H955 0.930 . S
C964 C962 1.378 . S
C964 C965 1.367 . S
C965 C964 1.367 . S
C965 C967 1.433 . S
C966 C962 1.350 . S
C966 C963 1.463 . S
C966 N970 1.427 . S
C967 H957 0.929 . S
C967 C965 1.433 . S
C967 N970 1.384 . S
C968 H959 0.929 . S
C968 C960 1.378 . S
C968 C963 1.350 . S
C969 H956 0.929 . S
C969 C961 1.433 . S
C969 N971 1.384 . S
N970 C966 1.427 . S
N970 C967 1.384 . S
N971 C963 1.427 . S
N971 C969 1.384 . S
H972 C978 0.930 . S
H973 C982 0.930 . S
H974 C987 0.929 . S
H975 C985 0.929 . S
H976 C980 0.929 . S
H977 C986 0.929 . S
C978 H972 0.930 . S
C978 C979 1.367 . S
C978 C986 1.378 . S
C979 C978 1.367 . S
C979 C987 1.433 . S
C980 H976 0.929 . S
C980 C982 1.378 . S
C980 C984 1.350 . S
C981 C984 1.463 . S
C981 C986 1.350 . S
C981 N989 1.427 . S
C982 H973 0.930 . S
C982 C980 1.378 . S
C982 C983 1.367 . S
C983 C982 1.367 . S
C983 C985 1.433 . S
C984 C980 1.350 . S
C984 C981 1.463 . S
C984 N988 1.427 . S
C985 H975 0.929 . S
C985 C983 1.433 . S
C985 N988 1.384 . S
C986 H977 0.929 . S
C986 C978 1.378 . S
C986 C981 1.350 . S
C987 H974 0.929 . S
C987 C979 1.433 . S
C987 N989 1.384 . S
N988 C984 1.427 . S
N988 C985 1.384 . S
N989 C981 1.427 . S
N989 C987 1.384 . S
H990 C996 0.930 . S
H991 C1000 0.930 . S
H992 C1005 0.929 . S
H993 C1003 0.929 1_554 S
H994 C998 0.929 . S
H995 C1004 0.929 . S
C996 H990 0.930 . S
C996 C997 1.367 . S
C996 C1004 1.378 . S
C997 C996 1.367 . S
C997 C1005 1.433 . S
C998 H994 0.929 . S
C998 C1000 1.378 . S
C998 C1002 1.350 . S
C999 C1002 1.463 . S
C999 C1004 1.350 . S
C999 N1007 1.427 . S
C1000 H991 0.930 . S
C1000 C998 1.378 . S
C1000 C1001 1.367 . S
C1001 C1000 1.367 . S
C1001 C1003 1.433 . S
C1002 C998 1.350 . S
C1002 C999 1.463 . S
C1002 N1006 1.427 . S
C1003 H993 0.929 1_556 S
C1003 C1001 1.433 . S
C1003 N1006 1.384 . S
C1004 H995 0.929 . S
C1004 C996 1.378 . S
C1004 C999 1.350 . S
C1005 H992 0.929 . S
C1005 C997 1.433 . S
C1005 N1007 1.384 . S
N1006 C1002 1.427 . S
N1006 C1003 1.384 . S
N1007 C999 1.427 . S
N1007 C1005 1.384 . S
H1008 C1014 0.930 . S
H1009 C1018 0.930 . S
H1010 C1023 0.929 . S
H1011 C1021 0.929 . S
H1012 C1016 0.929 . S
H1013 C1022 0.929 . S
C1014 H1008 0.930 . S
C1014 C1015 1.367 . S
C1014 C1022 1.378 . S
C1015 C1014 1.367 . S
C1015 C1023 1.433 . S
C1016 H1012 0.929 . S
C1016 C1018 1.378 . S
C1016 C1020 1.350 . S
C1017 C1020 1.463 . S
C1017 C1022 1.350 . S
C1017 N1025 1.427 . S
C1018 H1009 0.930 . S
C1018 C1016 1.378 . S
C1018 C1019 1.367 . S
C1019 C1018 1.367 . S
C1019 C1021 1.433 . S
C1020 C1016 1.350 . S
C1020 C1017 1.463 . S
C1020 N1024 1.427 . S
C1021 H1011 0.929 . S
C1021 C1019 1.433 . S
C1021 N1024 1.384 . S
C1022 H1013 0.929 . S
C1022 C1014 1.378 . S
C1022 C1017 1.350 . S
C1023 H1010 0.929 . S
C1023 C1015 1.433 . S
C1023 N1025 1.384 . S
N1024 C1020 1.427 . S
N1024 C1021 1.384 . S
N1025 C1017 1.427 . S
N1025 C1023 1.384 . S
H1026 C1032 0.930 . S
H1027 C1036 0.930 . S
H1028 C1041 0.929 . S
H1029 C1039 0.929 1_554 S
H1030 C1034 0.929 . S
H1031 C1040 0.929 . S
C1032 H1026 0.930 . S
C1032 C1033 1.367 . S
C1032 C1040 1.378 . S
C1033 C1032 1.367 . S
C1033 C1041 1.433 . S
C1034 H1030 0.929 . S
C1034 C1036 1.378 . S
C1034 C1038 1.350 . S
C1035 C1038 1.463 . S
C1035 C1040 1.350 . S
C1035 N1043 1.427 . S
C1036 H1027 0.930 . S
C1036 C1034 1.378 . S
C1036 C1037 1.367 . S
C1037 C1036 1.367 . S
C1037 C1039 1.433 . S
C1038 C1034 1.350 . S
C1038 C1035 1.463 . S
C1038 N1042 1.427 . S
C1039 H1029 0.929 1_556 S
C1039 C1037 1.433 . S
C1039 N1042 1.384 . S
C1040 H1031 0.929 . S
C1040 C1032 1.378 . S
C1040 C1035 1.350 . S
C1041 H1028 0.929 . S
C1041 C1033 1.433 . S
C1041 N1043 1.384 . S
N1042 C1038 1.427 . S
N1042 C1039 1.384 . S
N1043 C1035 1.427 . S
N1043 C1041 1.384 . S
H1044 C1050 0.930 . S
H1045 C1054 0.930 . S
H1046 C1059 0.929 . S
H1047 C1057 0.929 . S
H1048 C1052 0.929 . S
H1049 C1058 0.929 . S
C1050 H1044 0.930 . S
C1050 C1051 1.367 . S
C1050 C1058 1.378 . S
C1051 C1050 1.367 . S
C1051 C1059 1.433 . S
C1052 H1048 0.929 . S
C1052 C1054 1.378 . S
C1052 C1056 1.350 . S
C1053 C1056 1.463 . S
C1053 C1058 1.350 . S
C1053 N1061 1.427 . S
C1054 H1045 0.930 . S
C1054 C1052 1.378 . S
C1054 C1055 1.367 . S
C1055 C1054 1.367 . S
C1055 C1057 1.433 . S
C1056 C1052 1.350 . S
C1056 C1053 1.463 . S
C1056 N1060 1.427 . S
C1057 H1047 0.929 . S
C1057 C1055 1.433 . S
C1057 N1060 1.384 . S
C1058 H1049 0.929 . S
C1058 C1050 1.378 . S
C1058 C1053 1.350 . S
C1059 H1046 0.929 . S
C1059 C1051 1.433 . S
C1059 N1061 1.384 . S
N1060 C1056 1.427 . S
N1060 C1057 1.384 . S
N1061 C1053 1.427 . S
N1061 C1059 1.384 . S
H1062 C1068 0.930 . S
H1063 C1072 0.930 . S
H1064 C1077 0.929 . S
H1065 C1075 0.929 . S
H1066 C1070 0.929 . S
H1067 C1076 0.929 . S
C1068 H1062 0.930 . S
C1068 C1069 1.367 . S
C1068 C1076 1.378 . S
C1069 C1068 1.367 . S
C1069 C1077 1.433 . S
C1070 H1066 0.929 . S
C1070 C1072 1.378 . S
C1070 C1074 1.350 . S
C1071 C1074 1.463 . S
C1071 C1076 1.350 . S
C1071 N1079 1.427 . S
C1072 H1063 0.930 . S
C1072 C1070 1.378 . S
C1072 C1073 1.367 . S
C1073 C1072 1.367 . S
C1073 C1075 1.433 . S
C1074 C1070 1.350 . S
C1074 C1071 1.463 . S
C1074 N1078 1.427 . S
C1075 H1065 0.929 . S
C1075 C1073 1.433 . S
C1075 N1078 1.384 . S
C1076 H1067 0.929 . S
C1076 C1068 1.378 . S
C1076 C1071 1.350 . S
C1077 H1064 0.929 . S
C1077 C1069 1.433 . S
C1077 N1079 1.384 . S
N1078 C1074 1.427 . S
N1078 C1075 1.384 . S
N1079 C1071 1.427 . S
N1079 C1077 1.384 . S
H1080 C1086 0.930 . S
H1081 C1090 0.930 . S
H1082 C1095 0.929 . S
H1083 C1093 0.929 . S
H1084 C1088 0.929 . S
H1085 C1094 0.929 . S
C1086 H1080 0.930 . S
C1086 C1087 1.367 . S
C1086 C1094 1.378 . S
C1087 C1086 1.367 . S
C1087 C1095 1.433 . S
C1088 H1084 0.929 . S
C1088 C1090 1.378 . S
C1088 C1092 1.350 . S
C1089 C1092 1.463 . S
C1089 C1094 1.350 . S
C1089 N1097 1.427 . S
C1090 H1081 0.930 . S
C1090 C1088 1.378 . S
C1090 C1091 1.367 . S
C1091 C1090 1.367 . S
C1091 C1093 1.433 . S
C1092 C1088 1.350 . S
C1092 C1089 1.463 . S
C1092 N1096 1.427 . S
C1093 H1083 0.929 . S
C1093 C1091 1.433 . S
C1093 N1096 1.384 . S
C1094 H1085 0.929 . S
C1094 C1086 1.378 . S
C1094 C1089 1.350 . S
C1095 H1082 0.929 . S
C1095 C1087 1.433 . S
C1095 N1097 1.384 . S
N1096 C1092 1.427 . S
N1096 C1093 1.384 . S
N1097 C1089 1.427 . S
N1097 C1095 1.384 . S
H1098 C1104 0.930 . S
H1099 C1108 0.930 . S
H1100 C1113 0.929 . S
H1101 C1111 0.929 . S
H1102 C1106 0.929 . S
H1103 C1112 0.929 . S
C1104 H1098 0.930 . S
C1104 C1105 1.367 . S
C1104 C1112 1.378 . S
C1105 C1104 1.367 . S
C1105 C1113 1.433 . S
C1106 H1102 0.929 . S
C1106 C1108 1.378 . S
C1106 C1110 1.350 . S
C1107 C1110 1.463 . S
C1107 C1112 1.350 . S
C1107 N1115 1.427 . S
C1108 H1099 0.930 . S
C1108 C1106 1.378 . S
C1108 C1109 1.367 . S
C1109 C1108 1.367 . S
C1109 C1111 1.433 . S
C1110 C1106 1.350 . S
C1110 C1107 1.463 . S
C1110 N1114 1.427 . S
C1111 H1101 0.929 . S
C1111 C1109 1.433 . S
C1111 N1114 1.384 . S
C1112 H1103 0.929 . S
C1112 C1104 1.378 . S
C1112 C1107 1.350 . S
C1113 H1100 0.929 . S
C1113 C1105 1.433 . S
C1113 N1115 1.384 . S
N1114 C1110 1.427 . S
N1114 C1111 1.384 . S
N1115 C1107 1.427 . S
N1115 C1113 1.384 . S
H1116 C1122 0.930 . S
H1117 C1126 0.930 . S
H1118 C1131 0.929 . S
H1119 C1129 0.929 . S
H1120 C1124 0.929 . S
H1121 C1130 0.929 . S
C1122 H1116 0.930 . S
C1122 C1123 1.367 . S
C1122 C1130 1.378 . S
C1123 C1122 1.367 . S
C1123 C1131 1.433 . S
C1124 H1120 0.929 . S
C1124 C1126 1.378 . S
C1124 C1128 1.350 . S
C1125 C1128 1.463 . S
C1125 C1130 1.350 . S
C1125 N1133 1.427 . S
C1126 H1117 0.930 . S
C1126 C1124 1.378 . S
C1126 C1127 1.367 . S
C1127 C1126 1.367 . S
C1127 C1129 1.433 . S
C1128 C1124 1.350 . S
C1128 C1125 1.463 . S
C1128 N1132 1.427 . S
C1129 H1119 0.929 . S
C1129 C1127 1.433 . S
C1129 N1132 1.384 . S
C1130 H1121 0.929 . S
C1130 C1122 1.378 . S
C1130 C1125 1.350 . S
C1131 H1118 0.929 . S
C1131 C1123 1.433 . S
C1131 N1133 1.384 . S
N1132 C1128 1.427 . S
N1132 C1129 1.384 . S
N1133 C1125 1.427 . S
N1133 C1131 1.384 . S
H1134 C1140 0.930 . S
H1135 C1144 0.930 . S
H1136 C1149 0.929 . S
H1137 C1147 0.929 . S
H1138 C1142 0.929 . S
H1139 C1148 0.929 . S
C1140 H1134 0.930 . S
C1140 C1141 1.367 . S
C1140 C1148 1.378 . S
C1141 C1140 1.367 . S
C1141 C1149 1.433 . S
C1142 H1138 0.929 . S
C1142 C1144 1.378 . S
C1142 C1146 1.350 . S
C1143 C1146 1.463 . S
C1143 C1148 1.350 . S
C1143 N1151 1.427 . S
C1144 H1135 0.930 . S
C1144 C1142 1.378 . S
C1144 C1145 1.367 . S
C1145 C1144 1.367 . S
C1145 C1147 1.433 . S
C1146 C1142 1.350 . S
C1146 C1143 1.463 . S
C1146 N1150 1.427 . S
C1147 H1137 0.929 . S
C1147 C1145 1.433 . S
C1147 N1150 1.384 . S
C1148 H1139 0.929 . S
C1148 C1140 1.378 . S
C1148 C1143 1.350 . S
C1149 H1136 0.929 . S
C1149 C1141 1.433 . S
C1149 N1151 1.384 . S
N1150 C1146 1.427 . S
N1150 C1147 1.384 . S
N1151 C1143 1.427 . S
N1151 C1149 1.384 . S
H1152 C1158 0.930 . S
H1153 C1162 0.930 . S
H1154 C1167 0.929 . S
H1155 C1165 0.929 . S
H1156 C1160 0.929 . S
H1157 C1166 0.929 . S
C1158 H1152 0.930 . S
C1158 C1159 1.367 . S
C1158 C1166 1.378 . S
C1159 C1158 1.367 . S
C1159 C1167 1.433 . S
C1160 H1156 0.929 . S
C1160 C1162 1.378 . S
C1160 C1164 1.350 . S
C1161 C1164 1.463 . S
C1161 C1166 1.350 . S
C1161 N1169 1.427 . S
C1162 H1153 0.930 . S
C1162 C1160 1.378 . S
C1162 C1163 1.367 . S
C1163 C1162 1.367 . S
C1163 C1165 1.433 . S
C1164 C1160 1.350 . S
C1164 C1161 1.463 . S
C1164 N1168 1.427 . S
C1165 H1155 0.929 . S
C1165 C1163 1.433 . S
C1165 N1168 1.384 . S
C1166 H1157 0.929 . S
C1166 C1158 1.378 . S
C1166 C1161 1.350 . S
C1167 H1154 0.929 . S
C1167 C1159 1.433 . S
C1167 N1169 1.384 . S
N1168 C1164 1.427 . S
N1168 C1165 1.384 . S
N1169 C1161 1.427 . S
N1169 C1167 1.384 . S
H1170 C1176 0.927 1_455 S
H1171 C1180 0.930 . S
H1172 C1185 0.929 . S
H1173 C1183 0.952 . S
H1174 C1178 0.929 . S
H1175 C1184 0.923 1_455 S
C1176 H1170 0.927 1_655 S
C1176 C1177 1.382 . S
C1176 C1184 1.371 . S
C1177 C1176 1.382 . S
C1177 C1185 1.433 . S
C1178 H1174 0.929 . S
C1178 C1180 1.378 . S
C1178 C1182 1.350 . S
C1179 C1182 1.463 . S
C1179 C1184 1.352 . S
C1179 N1187 1.427 . S
C1180 H1171 0.930 . S
C1180 C1178 1.378 . S
C1180 C1181 1.367 . S
C1181 C1180 1.367 . S
C1181 C1183 1.427 1_655 S
C1182 C1178 1.350 . S
C1182 C1179 1.463 . S
C1182 N1186 1.418 1_655 S
C1183 H1173 0.952 . S
C1183 C1181 1.427 1_455 S
C1183 N1186 1.374 . S
C1184 H1175 0.923 1_655 S
C1184 C1176 1.371 . S
C1184 C1179 1.352 . S
C1185 H1172 0.929 . S
C1185 C1177 1.433 . S
C1185 N1187 1.384 . S
N1186 C1182 1.418 1_455 S
N1186 C1183 1.374 . S
N1187 C1179 1.427 . S
N1187 C1185 1.384 . S
H1188 C1194 0.930 . S
H1189 C1198 0.930 . S
H1190 C1203 0.929 . S
H1191 C1201 0.929 . S
H1192 C1196 0.929 . S
H1193 C1202 0.929 . S
C1194 H1188 0.930 . S
C1194 C1195 1.367 . S
C1194 C1202 1.378 . S
C1195 C1194 1.367 . S
C1195 C1203 1.433 . S
C1196 H1192 0.929 . S
C1196 C1198 1.378 . S
C1196 C1200 1.350 . S
C1197 C1200 1.463 . S
C1197 C1202 1.350 . S
C1197 N1205 1.427 . S
C1198 H1189 0.930 . S
C1198 C1196 1.378 . S
C1198 C1199 1.367 . S
C1199 C1198 1.367 . S
C1199 C1201 1.433 . S
C1200 C1196 1.350 . S
C1200 C1197 1.463 . S
C1200 N1204 1.427 . S
C1201 H1191 0.929 . S
C1201 C1199 1.433 . S
C1201 N1204 1.384 . S
C1202 H1193 0.929 . S
C1202 C1194 1.378 . S
C1202 C1197 1.350 . S
C1203 H1190 0.929 . S
C1203 C1195 1.433 . S
C1203 N1205 1.384 . S
N1204 C1200 1.427 . S
N1204 C1201 1.384 . S
N1205 C1197 1.427 . S
N1205 C1203 1.384 . S
H1206 C1212 0.930 . S
H1207 C1216 0.930 . S
H1208 C1221 0.929 . S
H1209 C1219 0.929 . S
H1210 C1214 0.929 . S
H1211 C1220 0.929 . S
C1212 H1206 0.930 . S
C1212 C1213 1.367 . S
C1212 C1220 1.378 . S
C1213 C1212 1.367 . S
C1213 C1221 1.433 . S
C1214 H1210 0.929 . S
C1214 C1216 1.378 . S
C1214 C1218 1.350 . S
C1215 C1218 1.463 . S
C1215 C1220 1.350 . S
C1215 N1223 1.427 . S
C1216 H1207 0.930 . S
C1216 C1214 1.378 . S
C1216 C1217 1.367 . S
C1217 C1216 1.367 . S
C1217 C1219 1.433 . S
C1218 C1214 1.350 . S
C1218 C1215 1.463 . S
C1218 N1222 1.427 . S
C1219 H1209 0.929 . S
C1219 C1217 1.433 . S
C1219 N1222 1.384 . S
C1220 H1211 0.929 . S
C1220 C1212 1.378 . S
C1220 C1215 1.350 . S
C1221 H1208 0.929 . S
C1221 C1213 1.433 . S
C1221 N1223 1.384 . S
N1222 C1218 1.427 . S
N1222 C1219 1.384 . S
N1223 C1215 1.427 . S
N1223 C1221 1.384 . S
H1224 C1230 0.930 . S
H1225 C1234 0.930 . S
H1226 C1239 0.929 . S
H1227 C1237 0.929 . S
H1228 C1232 0.929 . S
H1229 C1238 0.929 . S
C1230 H1224 0.930 . S
C1230 C1231 1.367 . S
C1230 C1238 1.378 . S
C1231 C1230 1.367 . S
C1231 C1239 1.433 . S
C1232 H1228 0.929 . S
C1232 C1234 1.378 . S
C1232 C1236 1.350 . S
C1233 C1236 1.463 . S
C1233 C1238 1.350 . S
C1233 N1241 1.427 . S
C1234 H1225 0.930 . S
C1234 C1232 1.378 . S
C1234 C1235 1.367 . S
C1235 C1234 1.367 . S
C1235 C1237 1.433 . S
C1236 C1232 1.350 . S
C1236 C1233 1.463 . S
C1236 N1240 1.427 . S
C1237 H1227 0.929 . S
C1237 C1235 1.433 . S
C1237 N1240 1.384 . S
C1238 H1229 0.929 . S
C1238 C1230 1.378 . S
C1238 C1233 1.350 . S
C1239 H1226 0.929 . S
C1239 C1231 1.433 . S
C1239 N1241 1.384 . S
N1240 C1236 1.427 . S
N1240 C1237 1.384 . S
N1241 C1233 1.427 . S
N1241 C1239 1.384 . S
H1242 C1248 0.930 . S
H1243 C1252 0.930 . S
H1244 C1257 0.929 . S
H1245 C1255 0.929 . S
H1246 C1250 0.929 . S
H1247 C1256 0.929 . S
C1248 H1242 0.930 . S
C1248 C1249 1.367 1_545 S
C1248 C1256 1.378 . S
C1249 C1248 1.367 1_565 S
C1249 C1257 1.433 . S
C1250 H1246 0.929 . S
C1250 C1252 1.378 . S
C1250 C1254 1.350 . S
C1251 C1254 1.463 . S
C1251 C1256 1.350 1_565 S
C1251 N1259 1.427 . S
C1252 H1243 0.930 . S
C1252 C1250 1.378 . S
C1252 C1253 1.367 . S
C1253 C1252 1.367 . S
C1253 C1255 1.433 1_565 S
C1254 C1250 1.350 . S
C1254 C1251 1.463 . S
C1254 N1258 1.427 1_565 S
C1255 H1245 0.929 . S
C1255 C1253 1.433 1_545 S
C1255 N1258 1.384 . S
C1256 H1247 0.929 . S
C1256 C1248 1.378 . S
C1256 C1251 1.350 1_545 S
C1257 H1244 0.929 . S
C1257 C1249 1.433 . S
C1257 N1259 1.384 . S
N1258 C1254 1.427 1_545 S
N1258 C1255 1.384 . S
N1259 C1251 1.427 . S
N1259 C1257 1.384 . S
H1260 C1266 0.930 . S
H1261 C1270 0.930 . S
H1262 C1275 0.929 . S
H1263 C1273 0.929 . S
H1264 C1268 0.929 . S
H1265 C1274 0.929 . S
C1266 H1260 0.930 . S
C1266 C1267 1.367 1_545 S
C1266 C1274 1.378 . S
C1267 C1266 1.367 1_565 S
C1267 C1275 1.433 . S
C1268 H1264 0.929 . S
C1268 C1270 1.378 . S
C1268 C1272 1.350 . S
C1269 C1272 1.463 . S
C1269 C1274 1.350 1_565 S
C1269 N1277 1.427 . S
C1270 H1261 0.930 . S
C1270 C1268 1.378 . S
C1270 C1271 1.367 . S
C1271 C1270 1.367 . S
C1271 C1273 1.433 1_565 S
C1272 C1268 1.350 . S
C1272 C1269 1.463 . S
C1272 N1276 1.427 1_565 S
C1273 H1263 0.929 . S
C1273 C1271 1.433 1_545 S
C1273 N1276 1.384 . S
C1274 H1265 0.929 . S
C1274 C1266 1.378 . S
C1274 C1269 1.350 1_545 S
C1275 H1262 0.929 . S
C1275 C1267 1.433 . S
C1275 N1277 1.384 . S
N1276 C1272 1.427 1_545 S
N1276 C1273 1.384 . S
N1277 C1269 1.427 . S
N1277 C1275 1.384 . S
H1278 C1284 0.930 . S
H1279 C1288 0.930 . S
H1280 C1293 0.929 . S
H1281 C1291 0.929 . S
H1282 C1286 0.929 . S
H1283 C1292 0.929 . S
C1284 H1278 0.930 . S
C1284 C1285 1.367 . S
C1284 C1292 1.378 . S
C1285 C1284 1.367 . S
C1285 C1293 1.433 . S
C1286 H1282 0.929 . S
C1286 C1288 1.378 . S
C1286 C1290 1.350 . S
C1287 C1290 1.463 . S
C1287 C1292 1.350 . S
C1287 N1295 1.427 . S
C1288 H1279 0.930 . S
C1288 C1286 1.378 . S
C1288 C1289 1.367 . S
C1289 C1288 1.367 . S
C1289 C1291 1.433 . S
C1290 C1286 1.350 . S
C1290 C1287 1.463 . S
C1290 N1294 1.427 . S
C1291 H1281 0.929 . S
C1291 C1289 1.433 . S
C1291 N1294 1.384 . S
C1292 H1283 0.929 . S
C1292 C1284 1.378 . S
C1292 C1287 1.350 . S
C1293 H1280 0.929 . S
C1293 C1285 1.433 . S
C1293 N1295 1.384 . S
N1294 C1290 1.427 . S
N1294 C1291 1.384 . S
N1295 C1287 1.427 . S
N1295 C1293 1.384 . S
H1296 C1302 0.930 . S
H1297 C1306 0.930 . S
H1298 C1311 0.929 . S
H1299 C1309 0.929 . S
H1300 C1304 0.929 . S
H1301 C1310 0.929 . S
C1302 H1296 0.930 . S
C1302 C1303 1.367 . S
C1302 C1310 1.378 . S
C1303 C1302 1.367 . S
C1303 C1311 1.433 . S
C1304 H1300 0.929 . S
C1304 C1306 1.378 . S
C1304 C1308 1.350 . S
C1305 C1308 1.463 . S
C1305 C1310 1.350 . S
C1305 N1313 1.427 . S
C1306 H1297 0.930 . S
C1306 C1304 1.378 . S
C1306 C1307 1.367 . S
C1307 C1306 1.367 . S
C1307 C1309 1.433 . S
C1308 C1304 1.350 . S
C1308 C1305 1.463 . S
C1308 N1312 1.427 . S
C1309 H1299 0.929 . S
C1309 C1307 1.433 . S
C1309 N1312 1.384 . S
C1310 H1301 0.929 . S
C1310 C1302 1.378 . S
C1310 C1305 1.350 . S
C1311 H1298 0.929 . S
C1311 C1303 1.433 . S
C1311 N1313 1.384 . S
N1312 C1308 1.427 . S
N1312 C1309 1.384 . S
N1313 C1305 1.427 . S
N1313 C1311 1.384 . S
H1314 C1320 0.916 1_455 S
H1315 C1324 0.930 . S
H1316 C1329 0.929 . S
H1317 C1327 0.929 . S
H1318 C1322 0.929 . S
H1319 C1328 0.932 . S
C1320 H1314 0.916 1_655 S
C1320 C1321 1.372 . S
C1320 C1328 1.396 1_655 S
C1321 C1320 1.372 . S
C1321 C1329 1.433 . S
C1322 H1318 0.929 . S
C1322 C1324 1.378 . S
C1322 C1326 1.350 . S
C1323 C1326 1.463 . S
C1323 C1328 1.338 1_655 S
C1323 N1331 1.427 . S
C1324 H1315 0.930 . S
C1324 C1322 1.378 . S
C1324 C1325 1.367 . S
C1325 C1324 1.367 . S
C1325 C1327 1.433 1_655 S
C1326 C1322 1.350 . S
C1326 C1323 1.463 . S
C1326 N1330 1.427 1_655 S
C1327 H1317 0.929 . S
C1327 C1325 1.433 1_455 S
C1327 N1330 1.384 . S
C1328 H1319 0.932 . S
C1328 C1320 1.396 1_455 S
C1328 C1323 1.338 1_455 S
C1329 H1316 0.929 . S
C1329 C1321 1.433 . S
C1329 N1331 1.384 . S
N1330 C1326 1.427 1_455 S
N1330 C1327 1.384 . S
N1331 C1323 1.427 . S
N1331 C1329 1.384 . S
H1332 C1338 0.930 . S
H1333 C1342 0.930 . S
H1334 C1347 0.929 . S
H1335 C1345 0.929 . S
H1336 C1340 0.929 . S
H1337 C1346 0.929 . S
C1338 H1332 0.930 . S
C1338 C1339 1.367 . S
C1338 C1346 1.378 . S
C1339 C1338 1.367 . S
C1339 C1347 1.433 . S
C1340 H1336 0.929 . S
C1340 C1342 1.378 . S
C1340 C1344 1.350 . S
C1341 C1344 1.463 . S
C1341 C1346 1.350 . S
C1341 N1349 1.427 . S
C1342 H1333 0.930 . S
C1342 C1340 1.378 . S
C1342 C1343 1.367 . S
C1343 C1342 1.367 . S
C1343 C1345 1.433 . S
C1344 C1340 1.350 . S
C1344 C1341 1.463 . S
C1344 N1348 1.427 . S
C1345 H1335 0.929 . S
C1345 C1343 1.433 . S
C1345 N1348 1.384 . S
C1346 H1337 0.929 . S
C1346 C1338 1.378 . S
C1346 C1341 1.350 . S
C1347 H1334 0.929 . S
C1347 C1339 1.433 . S
C1347 N1349 1.384 . S
N1348 C1344 1.427 . S
N1348 C1345 1.384 . S
N1349 C1341 1.427 . S
N1349 C1347 1.384 . S
H1350 C1356 0.930 1_565 S
H1351 C1360 0.930 . S
H1352 C1365 0.929 . S
H1353 C1363 0.929 1_565 S
H1354 C1358 0.929 . S
H1355 C1364 0.929 1_565 S
C1356 H1350 0.930 1_545 S
C1356 C1357 1.367 . S
C1356 C1364 1.378 . S
C1357 C1356 1.367 . S
C1357 C1365 1.433 . S
C1358 H1354 0.929 . S
C1358 C1360 1.378 . S
C1358 C1362 1.350 . S
C1359 C1362 1.463 . S
C1359 C1364 1.350 . S
C1359 N1367 1.427 . S
C1360 H1351 0.930 . S
C1360 C1358 1.378 . S
C1360 C1361 1.367 . S
C1361 C1360 1.367 . S
C1361 C1363 1.433 . S
C1362 C1358 1.350 . S
C1362 C1359 1.463 . S
C1362 N1366 1.427 . S
C1363 H1353 0.929 1_545 S
C1363 C1361 1.433 . S
C1363 N1366 1.384 . S
C1364 H1355 0.929 1_545 S
C1364 C1356 1.378 . S
C1364 C1359 1.350 . S
C1365 H1352 0.929 . S
C1365 C1357 1.433 . S
C1365 N1367 1.384 . S
N1366 C1362 1.427 . S
N1366 C1363 1.384 . S
N1367 C1359 1.427 . S
N1367 C1365 1.384 . S
H1368 C1374 0.930 . S
H1369 C1378 0.930 . S
H1370 C1383 0.929 . S
H1371 C1381 0.929 . S
H1372 C1376 0.929 . S
H1373 C1382 0.929 . S
C1374 H1368 0.930 . S
C1374 C1375 1.367 . S
C1374 C1382 1.378 . S
C1375 C1374 1.367 . S
C1375 C1383 1.433 . S
C1376 H1372 0.929 . S
C1376 C1378 1.378 . S
C1376 C1380 1.350 . S
C1377 C1380 1.463 . S
C1377 C1382 1.350 . S
C1377 N1385 1.427 . S
C1378 H1369 0.930 . S
C1378 C1376 1.378 . S
C1378 C1379 1.367 . S
C1379 C1378 1.367 . S
C1379 C1381 1.433 . S
C1380 C1376 1.350 . S
C1380 C1377 1.463 . S
C1380 N1384 1.427 . S
C1381 H1371 0.929 . S
C1381 C1379 1.433 . S
C1381 N1384 1.384 . S
C1382 H1373 0.929 . S
C1382 C1374 1.378 . S
C1382 C1377 1.350 . S
C1383 H1370 0.929 . S
C1383 C1375 1.433 . S
C1383 N1385 1.384 . S
N1384 C1380 1.427 . S
N1384 C1381 1.384 . S
N1385 C1377 1.427 . S
N1385 C1383 1.384 . S
H1386 C1392 0.930 . S
H1387 C1396 0.930 . S
H1388 C1401 0.929 . S
H1389 C1399 0.929 . S
H1390 C1394 0.929 . S
H1391 C1400 0.929 . S
C1392 H1386 0.930 . S
C1392 C1393 1.367 . S
C1392 C1400 1.378 . S
C1393 C1392 1.367 . S
C1393 C1401 1.433 . S
C1394 H1390 0.929 . S
C1394 C1396 1.378 . S
C1394 C1398 1.350 . S
C1395 C1398 1.463 . S
C1395 C1400 1.350 . S
C1395 N1403 1.427 . S
C1396 H1387 0.930 . S
C1396 C1394 1.378 . S
C1396 C1397 1.367 . S
C1397 C1396 1.367 . S
C1397 C1399 1.433 . S
C1398 C1394 1.350 . S
C1398 C1395 1.463 . S
C1398 N1402 1.427 . S
C1399 H1389 0.929 . S
C1399 C1397 1.433 . S
C1399 N1402 1.384 . S
C1400 H1391 0.929 . S
C1400 C1392 1.378 . S
C1400 C1395 1.350 . S
C1401 H1388 0.929 . S
C1401 C1393 1.433 . S
C1401 N1403 1.384 . S
N1402 C1398 1.427 . S
N1402 C1399 1.384 . S
N1403 C1395 1.427 . S
N1403 C1401 1.384 . S
H1404 C1410 0.930 . S
H1405 C1414 0.930 . S
H1406 C1419 0.929 . S
H1407 C1417 0.929 . S
H1408 C1412 0.929 . S
H1409 C1418 0.929 . S
C1410 H1404 0.930 . S
C1410 C1411 1.367 . S
C1410 C1418 1.378 . S
C1411 C1410 1.367 . S
C1411 C1419 1.433 . S
C1412 H1408 0.929 . S
C1412 C1414 1.378 . S
C1412 C1416 1.350 . S
C1413 C1416 1.463 . S
C1413 C1418 1.350 . S
C1413 N1421 1.427 . S
C1414 H1405 0.930 . S
C1414 C1412 1.378 . S
C1414 C1415 1.367 . S
C1415 C1414 1.367 . S
C1415 C1417 1.433 . S
C1416 C1412 1.350 . S
C1416 C1413 1.463 . S
C1416 N1420 1.427 . S
C1417 H1407 0.929 . S
C1417 C1415 1.433 . S
C1417 N1420 1.384 . S
C1418 H1409 0.929 . S
C1418 C1410 1.378 . S
C1418 C1413 1.350 . S
C1419 H1406 0.929 . S
C1419 C1411 1.433 . S
C1419 N1421 1.384 . S
N1420 C1416 1.427 . S
N1420 C1417 1.384 . S
N1421 C1413 1.427 . S
N1421 C1419 1.384 . S
H1422 C1428 0.930 . S
H1423 C1432 0.930 . S
H1424 C1437 0.929 . S
H1425 C1435 0.929 . S
H1426 C1430 0.929 . S
H1427 C1436 0.929 . S
C1428 H1422 0.930 . S
C1428 C1429 1.367 . S
C1428 C1436 1.378 . S
C1429 C1428 1.367 . S
C1429 C1437 1.433 . S
C1430 H1426 0.929 . S
C1430 C1432 1.378 . S
C1430 C1434 1.350 . S
C1431 C1434 1.463 . S
C1431 C1436 1.350 . S
C1431 N1439 1.427 . S
C1432 H1423 0.930 . S
C1432 C1430 1.378 . S
C1432 C1433 1.367 . S
C1433 C1432 1.367 . S
C1433 C1435 1.433 . S
C1434 C1430 1.350 . S
C1434 C1431 1.463 . S
C1434 N1438 1.427 . S
C1435 H1425 0.929 . S
C1435 C1433 1.433 . S
C1435 N1438 1.384 . S
C1436 H1427 0.929 . S
C1436 C1428 1.378 . S
C1436 C1431 1.350 . S
C1437 H1424 0.929 . S
C1437 C1429 1.433 . S
C1437 N1439 1.384 . S
N1438 C1434 1.427 . S
N1438 C1435 1.384 . S
N1439 C1431 1.427 . S
N1439 C1437 1.384 . S
H1440 C1446 0.930 . S
H1441 C1450 0.930 . S
H1442 C1455 0.929 . S
H1443 C1453 0.929 . S
H1444 C1448 0.929 . S
H1445 C1454 0.929 . S
C1446 H1440 0.930 . S
C1446 C1447 1.367 . S
C1446 C1454 1.378 . S
C1447 C1446 1.367 . S
C1447 C1455 1.433 . S
C1448 H1444 0.929 . S
C1448 C1450 1.378 . S
C1448 C1452 1.350 . S
C1449 C1452 1.463 . S
C1449 C1454 1.350 . S
C1449 N1457 1.427 . S
C1450 H1441 0.930 . S
C1450 C1448 1.378 . S
C1450 C1451 1.367 . S
C1451 C1450 1.367 . S
C1451 C1453 1.433 . S
C1452 C1448 1.350 . S
C1452 C1449 1.463 . S
C1452 N1456 1.427 . S
C1453 H1443 0.929 . S
C1453 C1451 1.433 . S
C1453 N1456 1.384 . S
C1454 H1445 0.929 . S
C1454 C1446 1.378 . S
C1454 C1449 1.350 . S
C1455 H1442 0.929 . S
C1455 C1447 1.433 . S
C1455 N1457 1.384 . S
N1456 C1452 1.427 . S
N1456 C1453 1.384 . S
N1457 C1449 1.427 . S
N1457 C1455 1.384 . S
H1458 C1464 0.930 . S
H1459 C1468 0.930 . S
H1460 C1473 0.929 . S
H1461 C1471 0.929 . S
H1462 C1466 0.929 . S
H1463 C1472 0.929 . S
C1464 H1458 0.930 . S
C1464 C1465 1.367 . S
C1464 C1472 1.378 . S
C1465 C1464 1.367 . S
C1465 C1473 1.433 . S
C1466 H1462 0.929 . S
C1466 C1468 1.378 . S
C1466 C1470 1.350 . S
C1467 C1470 1.463 . S
C1467 C1472 1.350 . S
C1467 N1475 1.427 . S
C1468 H1459 0.930 . S
C1468 C1466 1.378 . S
C1468 C1469 1.367 . S
C1469 C1468 1.367 . S
C1469 C1471 1.433 . S
C1470 C1466 1.350 . S
C1470 C1467 1.463 . S
C1470 N1474 1.427 . S
C1471 H1461 0.929 . S
C1471 C1469 1.433 . S
C1471 N1474 1.384 . S
C1472 H1463 0.929 . S
C1472 C1464 1.378 . S
C1472 C1467 1.350 . S
C1473 H1460 0.929 . S
C1473 C1465 1.433 . S
C1473 N1475 1.384 . S
N1474 C1470 1.427 . S
N1474 C1471 1.384 . S
N1475 C1467 1.427 . S
N1475 C1473 1.384 . S
H1476 C1482 0.930 . S
H1477 C1486 0.930 . S
H1478 C1491 0.929 . S
H1479 C1489 0.929 . S
H1480 C1484 0.929 . S
H1481 C1490 0.929 . S
C1482 H1476 0.930 . S
C1482 C1483 1.367 . S
C1482 C1490 1.378 . S
C1483 C1482 1.367 . S
C1483 C1491 1.433 . S
C1484 H1480 0.929 . S
C1484 C1486 1.378 . S
C1484 C1488 1.350 . S
C1485 C1488 1.463 . S
C1485 C1490 1.350 . S
C1485 N1493 1.427 . S
C1486 H1477 0.930 . S
C1486 C1484 1.378 . S
C1486 C1487 1.367 . S
C1487 C1486 1.367 . S
C1487 C1489 1.433 . S
C1488 C1484 1.350 . S
C1488 C1485 1.463 . S
C1488 N1492 1.427 . S
C1489 H1479 0.929 . S
C1489 C1487 1.433 . S
C1489 N1492 1.384 . S
C1490 H1481 0.929 . S
C1490 C1482 1.378 . S
C1490 C1485 1.350 . S
C1491 H1478 0.929 . S
C1491 C1483 1.433 . S
C1491 N1493 1.384 . S
N1492 C1488 1.427 . S
N1492 C1489 1.384 . S
N1493 C1485 1.427 . S
N1493 C1491 1.384 . S
H1494 C1500 0.930 . S
H1495 C1504 0.930 . S
H1496 C1509 0.929 . S
H1497 C1507 0.929 . S
H1498 C1502 0.929 . S
H1499 C1508 0.929 . S
C1500 H1494 0.930 . S
C1500 C1501 1.367 . S
C1500 C1508 1.378 . S
C1501 C1500 1.367 . S
C1501 C1509 1.433 . S
C1502 H1498 0.929 . S
C1502 C1504 1.378 . S
C1502 C1506 1.350 . S
C1503 C1506 1.463 . S
C1503 C1508 1.350 . S
C1503 N1511 1.427 . S
C1504 H1495 0.930 . S
C1504 C1502 1.378 . S
C1504 C1505 1.367 . S
C1505 C1504 1.367 . S
C1505 C1507 1.433 . S
C1506 C1502 1.350 . S
C1506 C1503 1.463 . S
C1506 N1510 1.427 . S
C1507 H1497 0.929 . S
C1507 C1505 1.433 . S
C1507 N1510 1.384 . S
C1508 H1499 0.929 . S
C1508 C1500 1.378 . S
C1508 C1503 1.350 . S
C1509 H1496 0.929 . S
C1509 C1501 1.433 . S
C1509 N1511 1.384 . S
N1510 C1506 1.427 . S
N1510 C1507 1.384 . S
N1511 C1503 1.427 . S
N1511 C1509 1.384 . S
H1512 C1518 0.930 . S
H1513 C1522 0.930 . S
H1514 C1527 0.929 . S
H1515 C1525 0.929 . S
H1516 C1520 0.929 . S
H1517 C1526 0.929 . S
C1518 H1512 0.930 . S
C1518 C1519 1.367 . S
C1518 C1526 1.378 . S
C1519 C1518 1.367 . S
C1519 C1527 1.433 . S
C1520 H1516 0.929 . S
C1520 C1522 1.378 . S
C1520 C1524 1.350 . S
C1521 C1524 1.463 . S
C1521 C1526 1.350 . S
C1521 N1529 1.427 . S
C1522 H1513 0.930 . S
C1522 C1520 1.378 . S
C1522 C1523 1.367 . S
C1523 C1522 1.367 . S
C1523 C1525 1.433 . S
C1524 C1520 1.350 . S
C1524 C1521 1.463 . S
C1524 N1528 1.427 . S
C1525 H1515 0.929 . S
C1525 C1523 1.433 . S
C1525 N1528 1.384 . S
C1526 H1517 0.929 . S
C1526 C1518 1.378 . S
C1526 C1521 1.350 . S
C1527 H1514 0.929 . S
C1527 C1519 1.433 . S
C1527 N1529 1.384 . S
N1528 C1524 1.427 . S
N1528 C1525 1.384 . S
N1529 C1521 1.427 . S
N1529 C1527 1.384 . S
H1530 C1536 0.930 . S
H1531 C1540 0.930 . S
H1532 C1545 0.929 . S
H1533 C1543 0.929 . S
H1534 C1538 0.929 . S
H1535 C1544 0.929 . S
C1536 H1530 0.930 . S
C1536 C1537 1.367 . S
C1536 C1544 1.378 . S
C1537 C1536 1.367 . S
C1537 C1545 1.433 . S
C1538 H1534 0.929 . S
C1538 C1540 1.378 . S
C1538 C1542 1.350 . S
C1539 C1542 1.463 . S
C1539 C1544 1.350 . S
C1539 N1547 1.427 . S
C1540 H1531 0.930 . S
C1540 C1538 1.378 . S
C1540 C1541 1.367 . S
C1541 C1540 1.367 . S
C1541 C1543 1.433 . S
C1542 C1538 1.350 . S
C1542 C1539 1.463 . S
C1542 N1546 1.427 . S
C1543 H1533 0.929 . S
C1543 C1541 1.433 . S
C1543 N1546 1.384 . S
C1544 H1535 0.929 . S
C1544 C1536 1.378 . S
C1544 C1539 1.350 . S
C1545 H1532 0.929 . S
C1545 C1537 1.433 . S
C1545 N1547 1.384 . S
N1546 C1542 1.427 . S
N1546 C1543 1.384 . S
N1547 C1539 1.427 . S
N1547 C1545 1.384 . S
H1548 C1554 0.930 . S
H1549 C1558 0.930 . S
H1550 C1563 0.929 . S
H1551 C1561 0.929 . S
H1552 C1556 0.929 . S
H1553 C1562 0.929 . S
C1554 H1548 0.930 . S
C1554 C1555 1.367 . S
C1554 C1562 1.378 . S
C1555 C1554 1.367 . S
C1555 C1563 1.433 . S
C1556 H1552 0.929 . S
C1556 C1558 1.378 . S
C1556 C1560 1.350 . S
C1557 C1560 1.463 . S
C1557 C1562 1.350 . S
C1557 N1565 1.427 . S
C1558 H1549 0.930 . S
C1558 C1556 1.378 . S
C1558 C1559 1.367 . S
C1559 C1558 1.367 . S
C1559 C1561 1.433 . S
C1560 C1556 1.350 . S
C1560 C1557 1.463 . S
C1560 N1564 1.427 . S
C1561 H1551 0.929 . S
C1561 C1559 1.433 . S
C1561 N1564 1.384 . S
C1562 H1553 0.929 . S
C1562 C1554 1.378 . S
C1562 C1557 1.350 . S
C1563 H1550 0.929 . S
C1563 C1555 1.433 . S
C1563 N1565 1.384 . S
N1564 C1560 1.427 . S
N1564 C1561 1.384 . S
N1565 C1557 1.427 . S
N1565 C1563 1.384 . S
H1566 C1572 0.930 . S
H1567 C1576 0.930 . S
H1568 C1581 0.929 . S
H1569 C1579 0.929 . S
H1570 C1574 0.929 . S
H1571 C1580 0.929 . S
C1572 H1566 0.930 . S
C1572 C1573 1.367 . S
C1572 C1580 1.378 . S
C1573 C1572 1.367 . S
C1573 C1581 1.433 . S
C1574 H1570 0.929 . S
C1574 C1576 1.378 . S
C1574 C1578 1.350 . S
C1575 C1578 1.463 . S
C1575 C1580 1.350 . S
C1575 N1583 1.427 . S
C1576 H1567 0.930 . S
C1576 C1574 1.378 . S
C1576 C1577 1.367 . S
C1577 C1576 1.367 . S
C1577 C1579 1.433 . S
C1578 C1574 1.350 . S
C1578 C1575 1.463 . S
C1578 N1582 1.427 . S
C1579 H1569 0.929 . S
C1579 C1577 1.433 . S
C1579 N1582 1.384 . S
C1580 H1571 0.929 . S
C1580 C1572 1.378 . S
C1580 C1575 1.350 . S
C1581 H1568 0.929 . S
C1581 C1573 1.433 . S
C1581 N1583 1.384 . S
N1582 C1578 1.427 . S
N1582 C1579 1.384 . S
N1583 C1575 1.427 . S
N1583 C1581 1.384 . S
H1584 C1590 0.930 . S
H1585 C1594 0.930 . S
H1586 C1599 0.929 . S
H1587 C1597 0.929 . S
H1588 C1592 0.929 . S
H1589 C1598 0.929 . S
C1590 H1584 0.930 . S
C1590 C1591 1.367 . S
C1590 C1598 1.378 . S
C1591 C1590 1.367 . S
C1591 C1599 1.433 . S
C1592 H1588 0.929 . S
C1592 C1594 1.378 . S
C1592 C1596 1.350 . S
C1593 C1596 1.463 . S
C1593 C1598 1.350 . S
C1593 N1601 1.427 . S
C1594 H1585 0.930 . S
C1594 C1592 1.378 . S
C1594 C1595 1.367 . S
C1595 C1594 1.367 . S
C1595 C1597 1.433 . S
C1596 C1592 1.350 . S
C1596 C1593 1.463 . S
C1596 N1600 1.427 . S
C1597 H1587 0.929 . S
C1597 C1595 1.433 . S
C1597 N1600 1.384 . S
C1598 H1589 0.929 . S
C1598 C1590 1.378 . S
C1598 C1593 1.350 . S
C1599 H1586 0.929 . S
C1599 C1591 1.433 . S
C1599 N1601 1.384 . S
N1600 C1596 1.427 . S
N1600 C1597 1.384 . S
N1601 C1593 1.427 . S
N1601 C1599 1.384 . S
H1602 C1608 0.930 . S
H1603 C1612 0.930 . S
H1604 C1617 0.929 . S
H1605 C1615 0.929 . S
H1606 C1610 0.929 . S
H1607 C1616 0.929 . S
C1608 H1602 0.930 . S
C1608 C1609 1.367 . S
C1608 C1616 1.378 . S
C1609 C1608 1.367 . S
C1609 C1617 1.433 . S
C1610 H1606 0.929 . S
C1610 C1612 1.378 . S
C1610 C1614 1.350 . S
C1611 C1614 1.463 . S
C1611 C1616 1.350 . S
C1611 N1619 1.427 . S
C1612 H1603 0.930 . S
C1612 C1610 1.378 . S
C1612 C1613 1.367 . S
C1613 C1612 1.367 . S
C1613 C1615 1.433 . S
C1614 C1610 1.350 . S
C1614 C1611 1.463 . S
C1614 N1618 1.427 . S
C1615 H1605 0.929 . S
C1615 C1613 1.433 . S
C1615 N1618 1.384 . S
C1616 H1607 0.929 . S
C1616 C1608 1.378 . S
C1616 C1611 1.350 . S
C1617 H1604 0.929 . S
C1617 C1609 1.433 . S
C1617 N1619 1.384 . S
N1618 C1614 1.427 . S
N1618 C1615 1.384 . S
N1619 C1611 1.427 . S
N1619 C1617 1.384 . S
H1620 C1626 0.930 . S
H1621 C1630 0.930 . S
H1622 C1635 0.929 . S
H1623 C1633 0.929 . S
H1624 C1628 0.929 . S
H1625 C1634 0.929 . S
C1626 H1620 0.930 . S
C1626 C1627 1.367 . S
C1626 C1634 1.378 . S
C1627 C1626 1.367 . S
C1627 C1635 1.433 . S
C1628 H1624 0.929 . S
C1628 C1630 1.378 . S
C1628 C1632 1.350 . S
C1629 C1632 1.463 . S
C1629 C1634 1.350 . S
C1629 N1637 1.427 . S
C1630 H1621 0.930 . S
C1630 C1628 1.378 . S
C1630 C1631 1.367 . S
C1631 C1630 1.367 . S
C1631 C1633 1.433 . S
C1632 C1628 1.350 . S
C1632 C1629 1.463 . S
C1632 N1636 1.427 . S
C1633 H1623 0.929 . S
C1633 C1631 1.433 . S
C1633 N1636 1.384 . S
C1634 H1625 0.929 . S
C1634 C1626 1.378 . S
C1634 C1629 1.350 . S
C1635 H1622 0.929 . S
C1635 C1627 1.433 . S
C1635 N1637 1.384 . S
N1636 C1632 1.427 . S
N1636 C1633 1.384 . S
N1637 C1629 1.427 . S
N1637 C1635 1.384 . S
H1638 C1644 0.930 . S
H1639 C1648 0.930 . S
H1640 C1653 0.929 . S
H1641 C1651 0.929 . S
H1642 C1646 0.929 . S
H1643 C1652 0.929 . S
C1644 H1638 0.930 . S
C1644 C1645 1.367 . S
C1644 C1652 1.378 . S
C1645 C1644 1.367 . S
C1645 C1653 1.433 . S
C1646 H1642 0.929 . S
C1646 C1648 1.378 . S
C1646 C1650 1.350 . S
C1647 C1650 1.463 . S
C1647 C1652 1.350 . S
C1647 N1655 1.427 . S
C1648 H1639 0.930 . S
C1648 C1646 1.378 . S
C1648 C1649 1.367 . S
C1649 C1648 1.367 . S
C1649 C1651 1.433 . S
C1650 C1646 1.350 . S
C1650 C1647 1.463 . S
C1650 N1654 1.427 . S
C1651 H1641 0.929 . S
C1651 C1649 1.433 . S
C1651 N1654 1.384 . S
C1652 H1643 0.929 . S
C1652 C1644 1.378 . S
C1652 C1647 1.350 . S
C1653 H1640 0.929 . S
C1653 C1645 1.433 . S
C1653 N1655 1.384 . S
N1654 C1650 1.427 . S
N1654 C1651 1.384 . S
N1655 C1647 1.427 . S
N1655 C1653 1.384 . S
H1656 C1662 0.930 . S
H1657 C1666 0.930 . S
H1658 C1671 0.929 . S
H1659 C1669 0.929 . S
H1660 C1664 0.929 . S
H1661 C1670 0.929 . S
C1662 H1656 0.930 . S
C1662 C1663 1.367 . S
C1662 C1670 1.378 . S
C1663 C1662 1.367 . S
C1663 C1671 1.433 . S
C1664 H1660 0.929 . S
C1664 C1666 1.378 . S
C1664 C1668 1.350 . S
C1665 C1668 1.463 . S
C1665 C1670 1.350 . S
C1665 N1673 1.427 . S
C1666 H1657 0.930 . S
C1666 C1664 1.378 . S
C1666 C1667 1.367 . S
C1667 C1666 1.367 . S
C1667 C1669 1.433 . S
C1668 C1664 1.350 . S
C1668 C1665 1.463 . S
C1668 N1672 1.427 . S
C1669 H1659 0.929 . S
C1669 C1667 1.433 . S
C1669 N1672 1.384 . S
C1670 H1661 0.929 . S
C1670 C1662 1.378 . S
C1670 C1665 1.350 . S
C1671 H1658 0.929 . S
C1671 C1663 1.433 . S
C1671 N1673 1.384 . S
N1672 C1668 1.427 . S
N1672 C1669 1.384 . S
N1673 C1665 1.427 . S
N1673 C1671 1.384 . S
H1674 C1680 0.930 . S
H1675 C1684 0.930 . S
H1676 C1689 0.929 . S
H1677 C1687 0.929 . S
H1678 C1682 0.929 . S
H1679 C1688 0.929 . S
C1680 H1674 0.930 . S
C1680 C1681 1.367 . S
C1680 C1688 1.378 . S
C1681 C1680 1.367 . S
C1681 C1689 1.433 . S
C1682 H1678 0.929 . S
C1682 C1684 1.378 . S
C1682 C1686 1.350 . S
C1683 C1686 1.463 . S
C1683 C1688 1.350 . S
C1683 N1691 1.427 . S
C1684 H1675 0.930 . S
C1684 C1682 1.378 . S
C1684 C1685 1.367 . S
C1685 C1684 1.367 . S
C1685 C1687 1.433 . S
C1686 C1682 1.350 . S
C1686 C1683 1.463 . S
C1686 N1690 1.427 . S
C1687 H1677 0.929 . S
C1687 C1685 1.433 . S
C1687 N1690 1.384 . S
C1688 H1679 0.929 . S
C1688 C1680 1.378 . S
C1688 C1683 1.350 . S
C1689 H1676 0.929 . S
C1689 C1681 1.433 . S
C1689 N1691 1.384 . S
N1690 C1686 1.427 . S
N1690 C1687 1.384 . S
N1691 C1683 1.427 . S
N1691 C1689 1.384 . S
H1692 C1698 0.930 . S
H1693 C1702 0.930 . S
H1694 C1707 0.929 . S
H1695 C1705 0.929 . S
H1696 C1700 0.929 . S
H1697 C1706 0.929 . S
C1698 H1692 0.930 . S
C1698 C1699 1.367 . S
C1698 C1706 1.378 . S
C1699 C1698 1.367 . S
C1699 C1707 1.433 . S
C1700 H1696 0.929 . S
C1700 C1702 1.378 . S
C1700 C1704 1.350 . S
C1701 C1704 1.463 . S
C1701 C1706 1.350 . S
C1701 N1709 1.427 . S
C1702 H1693 0.930 . S
C1702 C1700 1.378 . S
C1702 C1703 1.367 . S
C1703 C1702 1.367 . S
C1703 C1705 1.433 . S
C1704 C1700 1.350 . S
C1704 C1701 1.463 . S
C1704 N1708 1.427 . S
C1705 H1695 0.929 . S
C1705 C1703 1.433 . S
C1705 N1708 1.384 . S
C1706 H1697 0.929 . S
C1706 C1698 1.378 . S
C1706 C1701 1.350 . S
C1707 H1694 0.929 . S
C1707 C1699 1.433 . S
C1707 N1709 1.384 . S
N1708 C1704 1.427 . S
N1708 C1705 1.384 . S
N1709 C1701 1.427 . S
N1709 C1707 1.384 . S
H1710 C1716 0.930 . S
H1711 C1720 0.930 . S
H1712 C1725 0.929 . S
H1713 C1723 0.929 . S
H1714 C1718 0.929 . S
H1715 C1724 0.929 . S
C1716 H1710 0.930 . S
C1716 C1717 1.367 . S
C1716 C1724 1.378 . S
C1717 C1716 1.367 . S
C1717 C1725 1.433 . S
C1718 H1714 0.929 . S
C1718 C1720 1.378 . S
C1718 C1722 1.350 . S
C1719 C1722 1.463 . S
C1719 C1724 1.350 . S
C1719 N1727 1.427 . S
C1720 H1711 0.930 . S
C1720 C1718 1.378 . S
C1720 C1721 1.367 . S
C1721 C1720 1.367 . S
C1721 C1723 1.433 . S
C1722 C1718 1.350 . S
C1722 C1719 1.463 . S
C1722 N1726 1.427 . S
C1723 H1713 0.929 . S
C1723 C1721 1.433 . S
C1723 N1726 1.384 . S
C1724 H1715 0.929 . S
C1724 C1716 1.378 . S
C1724 C1719 1.350 . S
C1725 H1712 0.929 . S
C1725 C1717 1.433 . S
C1725 N1727 1.384 . S
N1726 C1722 1.427 . S
N1726 C1723 1.384 . S
N1727 C1719 1.427 . S
N1727 C1725 1.384 . S
H1728 C1734 0.930 . S
H1729 C1738 0.930 . S
H1730 C1743 0.929 . S
H1731 C1741 0.929 . S
H1732 C1736 0.929 . S
H1733 C1742 0.929 . S
C1734 H1728 0.930 . S
C1734 C1735 1.367 . S
C1734 C1742 1.378 . S
C1735 C1734 1.367 . S
C1735 C1743 1.433 . S
C1736 H1732 0.929 . S
C1736 C1738 1.378 . S
C1736 C1740 1.350 . S
C1737 C1740 1.463 . S
C1737 C1742 1.350 . S
C1737 N1745 1.427 . S
C1738 H1729 0.930 . S
C1738 C1736 1.378 . S
C1738 C1739 1.367 . S
C1739 C1738 1.367 . S
C1739 C1741 1.433 . S
C1740 C1736 1.350 . S
C1740 C1737 1.463 . S
C1740 N1744 1.427 . S
C1741 H1731 0.929 . S
C1741 C1739 1.433 . S
C1741 N1744 1.384 . S
C1742 H1733 0.929 . S
C1742 C1734 1.378 . S
C1742 C1737 1.350 . S
C1743 H1730 0.929 . S
C1743 C1735 1.433 . S
C1743 N1745 1.384 . S
N1744 C1740 1.427 . S
N1744 C1741 1.384 . S
N1745 C1737 1.427 . S
N1745 C1743 1.384 . S
H1746 C1752 0.930 . S
H1747 C1756 0.930 . S
H1748 C1761 0.929 . S
H1749 C1759 0.929 . S
H1750 C1754 0.929 . S
H1751 C1760 0.929 . S
C1752 H1746 0.930 . S
C1752 C1753 1.367 . S
C1752 C1760 1.378 . S
C1753 C1752 1.367 . S
C1753 C1761 1.433 . S
C1754 H1750 0.929 . S
C1754 C1756 1.378 . S
C1754 C1758 1.350 . S
C1755 C1758 1.463 . S
C1755 C1760 1.350 . S
C1755 N1763 1.427 . S
C1756 H1747 0.930 . S
C1756 C1754 1.378 . S
C1756 C1757 1.367 . S
C1757 C1756 1.367 . S
C1757 C1759 1.433 . S
C1758 C1754 1.350 . S
C1758 C1755 1.463 . S
C1758 N1762 1.427 . S
C1759 H1749 0.929 . S
C1759 C1757 1.433 . S
C1759 N1762 1.384 . S
C1760 H1751 0.929 . S
C1760 C1752 1.378 . S
C1760 C1755 1.350 . S
C1761 H1748 0.929 . S
C1761 C1753 1.433 . S
C1761 N1763 1.384 . S
N1762 C1758 1.427 . S
N1762 C1759 1.384 . S
N1763 C1755 1.427 . S
N1763 C1761 1.384 . S
H1764 C1770 0.930 . S
H1765 C1774 0.930 . S
H1766 C1779 0.929 . S
H1767 C1777 0.929 . S
H1768 C1772 0.929 . S
H1769 C1778 0.929 . S
C1770 H1764 0.930 . S
C1770 C1771 1.367 . S
C1770 C1778 1.378 . S
C1771 C1770 1.367 . S
C1771 C1779 1.433 . S
C1772 H1768 0.929 . S
C1772 C1774 1.378 . S
C1772 C1776 1.350 . S
C1773 C1776 1.463 . S
C1773 C1778 1.350 . S
C1773 N1781 1.427 . S
C1774 H1765 0.930 . S
C1774 C1772 1.378 . S
C1774 C1775 1.367 . S
C1775 C1774 1.367 . S
C1775 C1777 1.433 . S
C1776 C1772 1.350 . S
C1776 C1773 1.463 . S
C1776 N1780 1.427 . S
C1777 H1767 0.929 . S
C1777 C1775 1.433 . S
C1777 N1780 1.384 . S
C1778 H1769 0.929 . S
C1778 C1770 1.378 . S
C1778 C1773 1.350 . S
C1779 H1766 0.929 . S
C1779 C1771 1.433 . S
C1779 N1781 1.384 . S
N1780 C1776 1.427 . S
N1780 C1777 1.384 . S
N1781 C1773 1.427 . S
N1781 C1779 1.384 . S
H1782 C1788 0.930 . S
H1783 C1792 0.930 . S
H1784 C1797 0.929 . S
H1785 C1795 0.929 . S
H1786 C1790 0.929 . S
H1787 C1796 0.929 . S
C1788 H1782 0.930 . S
C1788 C1789 1.367 . S
C1788 C1796 1.378 . S
C1789 C1788 1.367 . S
C1789 C1797 1.433 . S
C1790 H1786 0.929 . S
C1790 C1792 1.378 . S
C1790 C1794 1.350 . S
C1791 C1794 1.463 . S
C1791 C1796 1.350 . S
C1791 N1799 1.427 . S
C1792 H1783 0.930 . S
C1792 C1790 1.378 . S
C1792 C1793 1.367 . S
C1793 C1792 1.367 . S
C1793 C1795 1.433 . S
C1794 C1790 1.350 . S
C1794 C1791 1.463 . S
C1794 N1798 1.427 . S
C1795 H1785 0.929 . S
C1795 C1793 1.433 . S
C1795 N1798 1.384 . S
C1796 H1787 0.929 . S
C1796 C1788 1.378 . S
C1796 C1791 1.350 . S
C1797 H1784 0.929 . S
C1797 C1789 1.433 . S
C1797 N1799 1.384 . S
N1798 C1794 1.427 . S
N1798 C1795 1.384 . S
N1799 C1791 1.427 . S
N1799 C1797 1.384 . S
C511 C35 1.293 . S
C515 C256 1.104 . S
C529 C7 1.285 . S
C533 C272 1.118 . S
C551 C255 1.103 . S
C547 C23 1.274 . S
C569 C280 1.115 . S
C565 C37 1.259 . S
C583 C9 1.298 . S
C587 C289 1.143 . S
C605 C292 1.138 . S
C601 C21 1.278 . S
C619 C77 1.284 . S
C623 C298 1.128 . S
C641 C314 1.109 . S
C637 C49 1.290 . S
C659 C297 1.117 . S
C655 C65 1.270 . S
C673 C79 1.263 . S
C677 C322 1.091 . S
C695 C331 1.132 . S
C691 C51 1.286 . S
C713 C334 1.124 . S
C709 C63 1.284 . S
C731 C343 1.106 . S
C727 C119 1.291 . S
C749 C355 1.109 . S
C745 C91 1.289 . S
C767 C352 1.141 . S
C763 C107 1.279 . S
C781 C121 1.262 . S
C785 C361 1.091 . S
C803 C360 1.137 . S
C799 C93 1.298 . S
C817 C105 1.280 . S
C821 C377 1.134 . S
C839 C382 1.123 . S
C835 C161 1.285 . S
C857 C398 1.119 . S
C853 C133 1.288 . S
C871 C149 1.279 . S
C875 C381 1.140 . S
C893 C406 1.124 . S
C889 C163 1.266 . S
C911 C415 1.129 . S
C907 C135 1.287 . S
C925 C147 1.279 . S
C929 C418 1.130 . S
C943 C203 1.282 . S
C947 C427 1.133 . S
C965 C439 1.137 . S
C961 C175 1.281 . S
C983 C436 1.113 . S
C979 C191 1.273 . S
C997 C205 1.265 . S
C1001 C445 1.090 . S
C1019 C444 1.141 . S
C1015 C177 1.298 . S
C1033 C189 1.288 . S
C1037 C461 1.106 . S
C1055 C466 1.132 . S
C1051 C245 1.283 . S
C1073 C482 1.124 . S
C1069 C217 1.284 . S
C1087 C233 1.281 . S
C1091 C465 1.125 . S
C1109 C487 1.124 . S
C1105 C247 1.264 . S
C1127 C486 1.130 . S
C1123 C219 1.287 . S
C1145 C503 1.131 . S
C1141 C231 1.281 . S
C1163 C268 1.503 . S
C1159 C162 1.598 . S
C1177 C134 1.601 . S
C1181 C271 1.503 . S
C1199 C259 1.441 . S
C1195 C143 1.562 . S
C1213 C241 1.604 . S
C1217 C276 1.500 . S
C1231 C213 1.599 . S
C1235 C277 1.480 . S
C1253 C293 1.508 1_565 S
C1249 C232 1.614 . S
C1271 C310 1.508 1_565 S
C1267 C204 1.602 . S
C1289 C313 1.499 . S
C1285 C176 1.599 . S
C1303 C185 1.565 . S
C1307 C301 1.457 . S
C1325 C318 1.497 1_655 S
C1321 C115 1.603 . S
C1339 C87 1.600 . S
C1343 C319 1.491 . S
C1357 C106 1.613 . S
C1361 C335 1.520 . S
C1375 C246 1.602 . S
C1379 C339 1.500 . S
C1393 C218 1.600 . S
C1397 C356 1.484 . S
C1415 C340 1.456 . S
C1411 C227 1.565 . S
C1433 C373 1.498 . S
C1429 C73 1.603 . S
C1451 C364 1.476 . S
C1447 C45 1.597 . S
C1465 C64 1.614 . S
C1469 C376 1.515 . S
C1487 C394 1.494 . S
C1483 C36 1.597 . S
C1505 C397 1.503 . S
C1501 C8 1.601 . S
C1519 C17 1.563 . S
C1523 C385 1.443 . S
C1541 C402 1.513 . S
C1537 C199 1.606 . S
C1559 C403 1.493 . S
C1555 C171 1.601 1_655 S
C1577 C419 1.520 . S
C1573 C190 1.613 . S
C1595 C423 1.497 . S
C1591 C78 1.597 . S
C1613 C440 1.494 . S
C1609 C50 1.598 . S
C1627 C59 1.566 . S
C1631 C424 1.460 . S
C1645 C157 1.606 1_565 S
C1649 C457 1.512 . S
C1663 C129 1.599 . S
C1667 C448 1.484 . S
C1685 C460 1.510 . S
C1681 C148 1.614 . S
C1699 C120 1.602 . S
C1703 C478 1.496 . S
C1717 C92 1.602 . S
C1721 C481 1.503 . S
C1739 C469 1.446 . S
C1735 C101 1.563 1_565 S
C1757 C499 1.496 . S
C1753 C31 1.603 . S
C1775 C490 1.494 . S
C1771 C3 1.601 . S
C1789 C22 1.613 . S
C1793 C502 1.520 . S
