# Generated by pormake.
# Topology ssa, (4,4)-cn, num edge types: 1
# Building blocks:
#     Node 0, Type 0, BuildingBlock: KOZSID_clean_sbu_0, # of connection points: 4
#     Node 1, Type 0, BuildingBlock: KOZSID_clean_sbu_0, # of connection points: 4
#     Node 2, Type 0, BuildingBlock: KOZSID_clean_sbu_0, # of connection points: 4
#     Node 3, Type 0, BuildingBlock: KOZSID_clean_sbu_0, # of connection points: 4
#     Node 4, Type 0, BuildingBlock: KOZSID_clean_sbu_0, # of connection points: 4
#     Node 5, Type 0, BuildingBlock: KOZSID_clean_sbu_0, # of connection points: 4
#     Node 6, Type 1, BuildingBlock: MUDLON_clean_sbu_0, # of connection points: 4
#     Node 7, Type 1, BuildingBlock: MUDLON_clean_sbu_0, # of connection points: 4
#     Node 8, Type 1, BuildingBlock: MUDLON_clean_sbu_0, # of connection points: 4
#     Node 9, Type 1, BuildingBlock: MUDLON_clean_sbu_0, # of connection points: 4
#     Node 10, Type 1, BuildingBlock: MUDLON_clean_sbu_0, # of connection points: 4
#     Node 11, Type 1, BuildingBlock: MUDLON_clean_sbu_0, # of connection points: 4
#     Edge 12, Type (0, 1), BuildingBlock: XUDNAN_clean_linker_2, # of connection points: 2
#     Edge 13, Type (0, 1), BuildingBlock: XUDNAN_clean_linker_2, # of connection points: 2
#     Edge 14, Type (0, 1), BuildingBlock: XUDNAN_clean_linker_2, # of connection points: 2
#     Edge 15, Type (0, 1), BuildingBlock: XUDNAN_clean_linker_2, # of connection points: 2
#     Edge 16, Type (0, 1), BuildingBlock: XUDNAN_clean_linker_2, # of connection points: 2
#     Edge 17, Type (0, 1), BuildingBlock: XUDNAN_clean_linker_2, # of connection points: 2
#     Edge 18, Type (0, 1), BuildingBlock: XUDNAN_clean_linker_2, # of connection points: 2
#     Edge 19, Type (0, 1), BuildingBlock: XUDNAN_clean_linker_2, # of connection points: 2
#     Edge 20, Type (0, 1), BuildingBlock: XUDNAN_clean_linker_2, # of connection points: 2
#     Edge 21, Type (0, 1), BuildingBlock: XUDNAN_clean_linker_2, # of connection points: 2
#     Edge 22, Type (0, 1), BuildingBlock: XUDNAN_clean_linker_2, # of connection points: 2
#     Edge 23, Type (0, 1), BuildingBlock: XUDNAN_clean_linker_2, # of connection points: 2
#     Edge 24, Type (0, 1), BuildingBlock: XUDNAN_clean_linker_2, # of connection points: 2
#     Edge 25, Type (0, 1), BuildingBlock: XUDNAN_clean_linker_2, # of connection points: 2
#     Edge 26, Type (0, 1), BuildingBlock: XUDNAN_clean_linker_2, # of connection points: 2
#     Edge 27, Type (0, 1), BuildingBlock: XUDNAN_clean_linker_2, # of connection points: 2
#     Edge 28, Type (0, 1), BuildingBlock: XUDNAN_clean_linker_2, # of connection points: 2
#     Edge 29, Type (0, 1), BuildingBlock: XUDNAN_clean_linker_2, # of connection points: 2
#     Edge 30, Type (0, 1), BuildingBlock: XUDNAN_clean_linker_2, # of connection points: 2
#     Edge 31, Type (0, 1), BuildingBlock: XUDNAN_clean_linker_2, # of connection points: 2
#     Edge 32, Type (0, 1), BuildingBlock: XUDNAN_clean_linker_2, # of connection points: 2
#     Edge 33, Type (0, 1), BuildingBlock: XUDNAN_clean_linker_2, # of connection points: 2
#     Edge 34, Type (0, 1), BuildingBlock: XUDNAN_clean_linker_2, # of connection points: 2
#     Edge 35, Type (0, 1), BuildingBlock: XUDNAN_clean_linker_2, # of connection points: 2
# Relax obj value: 0.015
# Max RMSD: 0.035
# Mean RMSD: 0.022
data_MOF--net-ssa--node1-KOZSID_clean_sbu_0--node2-MUDLON_clean_sbu_0--edge1-XUDNAN_clean_linker_2
_symmetry_space_group_name_H-M    P1
_symmetry_Int_Tables_number       1
_symmetry_cell_setting            triclinic
loop_
_symmetry_equiv_pos_as_xyz
'x, y, z'
_cell_length_a     47.669511
_cell_length_b     49.07541
_cell_length_c     45.119223
_cell_angle_alpha  87.27925
_cell_angle_beta   90.416271
_cell_angle_gamma 122.94051
loop_
_atom_site_label
_atom_site_type_symbol
_atom_site_fract_x
_atom_site_fract_y
_atom_site_fract_z
_atom_type_partial_charge
C0 C 0.95902 0.49799 0.00915 0.0
C1 C 0.92904 0.49227 0.02013 0.0
C2 C 0.92093 0.47242 0.04511 0.0
C3 C 0.94638 0.4673 0.04808 0.0
N4 N 0.97061 0.48313 0.02678 0.0
Co5 Co 0.01154 0.48151 0.0223 0.0
N6 N 0.99759 0.44932 0.05712 0.0
C7 C 0.96904 0.43573 0.0736 0.0
C8 C 0.96722 0.41601 0.09706 0.0
C9 C 0.99668 0.41762 0.09595 0.0
C10 C 0.01484 0.43833 0.07174 0.0
N11 N 0.05268 0.48021 0.01817 0.0
C12 C 0.06506 0.46693 0.03692 0.0
C13 C 0.09579 0.47376 0.02692 0.0
C14 C 0.10352 0.49269 1.00131 0.0
C15 C 0.07716 0.4963 0.99714 0.0
N16 N 0.02523 0.51345 0.98729 0.0
C17 C 0.05322 0.52608 0.97017 0.0
C18 C 0.05494 0.54562 0.94659 0.0
C19 C 0.02605 0.54504 0.94837 0.0
C20 C 0.00832 0.52519 0.97315 0.0
N21 N 0.03648 0.5177 0.04974 0.0
C22 C 0.07739 0.56163 0.09287 0.0
C23 C 0.08881 0.56572 0.06355 0.0
C24 C 0.06814 0.54366 0.04253 0.0
C25 C 0.04432 0.53657 0.09965 0.0
C26 C 0.02429 0.51545 0.07781 0.0
N27 N 0.98688 0.44504 0.99495 0.0
C28 C 0.98352 0.42012 0.94866 0.0
C29 C 0.9512 0.39379 0.9559 0.0
C30 C 0.93703 0.39371 0.98295 0.0
C31 C 0.95498 0.41938 1.00181 0.0
C32 C 1.00086 0.44507 0.96844 0.0
H33 H 0.9424 0.41793 0.02178 0.0
H34 H 0.02558 0.46407 0.96176 0.0
H35 H 0.07878 0.54747 0.02086 0.0
H36 H 0.99934 0.49685 0.08443 0.0
C37 C 0.9466 0.44537 0.06883 0.0
C38 C 0.97468 0.51662 0.98127 0.0
C39 C 0.04936 0.44896 0.065 0.0
C40 C 0.07625 0.51727 0.97566 0.0
H41 H 0.91414 0.50087 0.01061 0.0
H42 H 0.89853 0.46198 0.05884 0.0
H43 H 0.94764 0.40343 0.11395 0.0
H44 H 0.0045 0.40603 0.11193 0.0
H45 H 0.11143 0.46662 0.03756 0.0
H46 H 0.12634 0.50373 0.98807 0.0
H47 H 0.07432 0.55787 0.9295 0.0
H48 H 0.01849 0.55707 0.93265 0.0
H49 H 0.11412 0.58501 0.0571 0.0
H50 H 0.03399 0.53303 0.12185 0.0
H51 H 0.99571 0.42117 0.92808 0.0
H52 H 0.91189 0.37405 0.98945 0.0
C53 C 0.55286 0.00815 0.58412 0.0
C54 C 0.55289 0.99279 0.61073 0.0
C55 C 0.52267 0.9639 0.61331 0.0
C56 C 0.50596 0.9632 0.58821 0.0
N57 N 0.52382 0.98976 0.56955 0.0
Co58 Co 0.5084 0.99904 0.53103 0.0
N59 N 0.46355 0.95722 0.53547 0.0
C60 C 0.45176 0.93563 0.55908 0.0
C61 C 0.42117 0.90792 0.55451 0.0
C62 C 0.41348 0.91164 0.52598 0.0
C63 C 0.43996 0.94145 0.51479 0.0
N64 N 0.49311 0.00782 0.49219 0.0
C65 C 0.46675 0.98704 0.47559 0.0
C66 C 0.46707 0.00155 0.44833 0.0
C67 C 0.49506 0.0323 0.44736 0.0
C68 C 0.51027 0.03476 0.47389 0.0
N69 N 0.55322 0.04103 0.52661 0.0
C70 C 0.56353 0.06393 0.50414 0.0
C71 C 0.59493 0.09086 0.50771 0.0
C72 C 0.60518 0.08508 0.53425 0.0
C73 C 0.57931 0.05482 0.5454 0.0
N74 N 0.52493 0.97601 0.50927 0.0
C75 C 0.53123 0.9362 0.47041 0.0
C76 C 0.5447 0.96909 0.46275 0.0
C77 C 0.54163 0.98852 0.48253 0.0
C78 C 0.51772 0.92465 0.49909 0.0
C79 C 0.5152 0.94493 0.51814 0.0
N80 N 0.49119 0.02195 0.55271 0.0
C81 C 0.48521 0.06772 0.55676 0.0
C82 C 0.47013 0.05624 0.58491 0.0
C83 C 0.46522 0.02699 0.59641 0.0
C84 C 0.47556 0.01031 0.58003 0.0
C85 C 0.49553 0.05046 0.54128 0.0
H86 H 0.47077 0.98817 0.59016 0.0
H87 H 0.50732 0.06099 0.52026 0.0
H88 H 0.55134 0.01313 0.47514 0.0
H89 H 0.50375 0.93446 0.5394 0.0
C90 C 0.47264 0.93922 0.58258 0.0
C91 C 0.5804 0.04078 0.57436 0.0
C92 C 0.44304 0.95262 0.48372 0.0
C93 C 0.54275 0.05985 0.48043 0.0
H94 H 0.57243 0.00191 0.62696 0.0
H95 H 0.51358 0.94601 0.63172 0.0
H96 H 0.40731 0.88651 0.56932 0.0
H97 H 0.39176 0.89379 0.51419 0.0
H98 H 0.44993 0.99064 0.43034 0.0
H99 H 0.5044 0.04992 0.42871 0.0
H100 H 0.60851 0.11241 0.49303 0.0
H101 H 0.62877 0.10153 0.54452 0.0
H102 H 0.55598 0.97946 0.44101 0.0
H103 H 0.50818 0.89975 0.50657 0.0
H104 H 0.4898 0.0904 0.54692 0.0
H105 H 0.45318 0.01678 0.61794 0.0
C106 C 0.5485 0.53322 0.96194 0.0
C107 C 0.5614 0.55541 0.93778 0.0
C108 C 0.54163 0.56758 0.93467 0.0
C109 C 0.51791 0.55211 0.95703 0.0
N110 N 0.52211 0.53174 0.9749 0.0
Co111 Co 0.491 0.5008 0.00726 0.0
N112 N 0.45873 0.51442 0.99983 0.0
C113 C 0.46176 0.5369 0.97927 0.0
C114 C 0.43753 0.54369 0.98186 0.0
C115 C 0.41869 0.52538 0.00623 0.0
C116 C 0.43262 0.50848 0.01702 0.0
N117 N 0.4593 0.46893 0.03883 0.0
C118 C 0.43247 0.46676 0.05164 0.0
C119 C 0.41859 0.44287 0.07448 0.0
C120 C 0.43792 0.43015 0.07662 0.0
C121 C 0.46247 0.44696 0.05513 0.0
N122 N 0.52401 0.48822 0.01551 0.0
C123 C 0.5219 0.46727 0.03732 0.0
C124 C 0.54718 0.4618 0.03598 0.0
C125 C 0.56591 0.47952 0.01134 0.0
C126 C 0.55091 0.49484 0.99906 0.0
N127 N 0.51242 0.53472 0.0371 0.0
C128 C 0.52407 0.57698 0.08259 0.0
C129 C 0.51956 0.5467 0.08904 0.0
C130 C 0.51444 0.52636 0.0661 0.0
C131 C 0.52616 0.58709 0.05274 0.0
C132 C 0.5205 0.56578 0.03048 0.0
N133 N 0.46911 0.46677 0.97749 0.0
C134 C 0.45661 0.41591 0.95878 0.0
C135 C 0.44477 0.42154 0.9322 0.0
C136 C 0.44415 0.44976 0.92942 0.0
C137 C 0.45654 0.47189 0.95193 0.0
C138 C 0.46799 0.43828 0.98103 0.0
H139 H 0.45615 0.49323 0.94785 0.0
H140 H 0.4765 0.43228 1.00064 0.0
H141 H 0.51048 0.50332 0.07252 0.0
H142 H 0.5211 0.57437 0.0082 0.0
C143 C 0.48956 0.55355 0.95995 0.0
C144 C 0.55989 0.5117 0.96986 0.0
C145 C 0.42251 0.48975 0.04527 0.0
C146 C 0.49236 0.44797 0.05424 0.0
H147 H 0.5819 0.56089 0.92311 0.0
H148 H 0.54317 0.58423 0.91716 0.0
H149 H 0.43508 0.56128 0.9687 0.0
H150 H 0.39813 0.52562 0.01593 0.0
H151 H 0.398 0.43661 0.08932 0.0
H152 H 0.43602 0.4128 0.09354 0.0
H153 H 0.54998 0.44477 0.0497 0.0
H154 H 0.58685 0.47942 1.00244 0.0
H155 H 0.51903 0.53828 0.11179 0.0
H156 H 0.53019 0.61058 0.04656 0.0
H157 H 0.4581 0.39477 0.96233 0.0
H158 H 0.43436 0.45511 0.90985 0.0
C159 C 0.94602 0.45886 0.51808 0.0
C160 C 0.91714 0.43274 0.507 0.0
C161 C 0.91165 0.44363 0.48052 0.0
C162 C 0.93736 0.47568 0.47701 0.0
N163 N 0.95954 0.48553 0.49918 0.0
Co164 Co 0.99838 0.53087 0.50519 0.0
N165 N 0.98511 0.54903 0.47118 0.0
C166 C 0.95797 0.53242 0.45411 0.0
C167 C 0.95649 0.55124 0.43146 0.0
C168 C 0.98473 0.58148 0.43384 0.0
C169 C 1.00187 0.57929 0.45783 0.0
N170 N 0.03763 0.57606 0.51096 0.0
C171 C 0.04958 0.60358 0.49344 0.0
C172 C 0.07926 0.6293 0.50393 0.0
C173 C 0.08679 0.61743 0.52858 0.0
C174 C 0.06142 0.58526 0.53168 0.0
N175 N 0.01089 0.5127 0.5398 0.0
C176 C 0.03785 0.52903 0.55712 0.0
C177 C 0.03739 0.51076 0.58133 0.0
C178 C 0.00776 0.48142 0.58 0.0
C179 C 0.99193 0.48359 0.55497 0.0
N180 N 0.02677 0.5248 0.47744 0.0
C181 C 0.07139 0.5267 0.43522 0.0
C182 C 0.0804 0.53331 0.46478 0.0
C183 C 0.05791 0.53217 0.48533 0.0
C184 C 0.03899 0.5173 0.42755 0.0
C185 C 0.01715 0.5161 0.4489 0.0
N186 N 0.97021 0.53687 0.53285 0.0
C187 C 0.96126 0.54746 0.58249 0.0
C188 C 0.92674 0.53078 0.57838 0.0
C189 C 0.91486 0.51997 0.55011 0.0
C190 C 0.93693 0.52355 0.52773 0.0
C191 C 0.98239 0.55049 0.55952 0.0
H192 H 0.92631 0.51406 0.50687 0.0
H193 H 0.00827 0.56247 0.56435 0.0
H194 H 0.06673 0.53822 0.50724 0.0
H195 H 0.99289 0.50878 0.44152 0.0
C196 C 0.93723 0.49847 0.45722 0.0
C197 C 0.95756 0.45879 0.54809 0.0
C198 C 0.03533 0.60566 0.46535 0.0
C199 C 0.06042 0.5626 0.55244 0.0
H200 H 0.90064 0.40895 0.51776 0.0
H201 H 0.8899 0.43056 0.46685 0.0
H202 H 0.93812 0.54346 0.41423 0.0
H203 H 0.99267 0.60242 0.41885 0.0
H204 H 0.09454 0.65376 0.49411 0.0
H205 H 0.10887 0.63036 0.54189 0.0
H206 H 0.0553 0.51858 0.59896 0.0
H207 H 0.99797 0.46132 0.59638 0.0
H208 H 0.10517 0.54052 0.47189 0.0
H209 H 0.0305 0.51103 0.4051 0.0
H210 H 0.97193 0.55657 0.60383 0.0
H211 H 0.88851 0.508 0.54542 0.0
C212 C 0.48009 0.02215 0.07854 0.0
C213 C 0.47767 0.03267 0.10593 0.0
C214 C 0.50875 0.05869 0.11191 0.0
C215 C 0.52848 0.06268 0.08805 0.0
N216 N 0.51171 0.04134 0.06693 0.0
Co217 Co 0.53244 0.0378 0.03017 0.0
N218 N 0.57467 0.08077 0.0348 0.0
C219 C 0.58408 0.09792 0.05936 0.0
C220 C 0.61216 0.12854 0.05475 0.0
C221 C 0.62097 0.13084 0.02548 0.0
C222 C 0.59813 0.10104 0.01385 0.0
N223 N 0.55335 0.03396 0.99406 0.0
C224 C 0.58021 0.05718 0.97767 0.0
C225 C 0.58742 0.04368 0.95492 0.0
C226 C 0.56362 0.01098 0.95677 0.0
C227 C 0.54354 0.0063 0.98068 0.0
N228 N 0.4901 0.99509 0.02479 0.0
C229 C 0.48579 0.97275 1.00583 0.0
C230 C 0.45367 0.94602 1.006 0.0
C231 C 0.43681 0.9514 0.02691 0.0
C232 C 0.45981 0.98101 0.03874 0.0
N233 N 0.51504 0.05964 0.00633 0.0
C234 C 0.49889 0.09632 0.96927 0.0
C235 C 0.4961 0.06838 0.95935 0.0
C236 C 0.50373 0.05007 0.97838 0.0
C237 C 0.50855 0.10481 0.99844 0.0
C238 C 0.51681 0.08635 0.0165 0.0
N239 N 0.55035 0.01623 0.05392 0.0
C240 C 0.54156 0.97534 0.09104 0.0
C241 C 0.57424 0.9832 0.08681 0.0
C242 C 0.59516 0.00866 0.06622 0.0
C243 C 0.58269 0.02481 0.04993 0.0
C244 C 0.53025 0.99203 0.07453 0.0
H245 H 0.59911 0.04401 0.03392 0.0
H246 H 0.5051 0.98512 0.07853 0.0
H247 H 0.50151 0.02877 0.9701 0.0
H248 H 0.52573 0.09447 0.03832 0.0
C249 C 0.56201 0.08775 0.08361 0.0
C250 C 0.45364 0.9909 0.06704 0.0
C251 C 0.59952 0.09195 0.98339 0.0
C252 C 0.5119 0.97851 0.98706 0.0
H253 H 0.45615 0.02203 0.12076 0.0
H254 H 0.5161 0.07291 0.1314 0.0
H255 H 0.62338 0.14784 0.07015 0.0
H256 H 0.64123 0.15253 0.01417 0.0
H257 H 0.60742 0.05619 0.9384 0.0
H258 H 0.56029 0.99313 0.9415 0.0
H259 H 0.44376 0.92497 0.99274 0.0
H260 H 0.41107 0.9345 0.03407 0.0
H261 H 0.48835 0.0609 0.93696 0.0
H262 H 0.51107 0.12634 0.00684 0.0
H263 H 0.52468 0.9564 0.10721 0.0
H264 H 0.62066 0.01559 0.06227 0.0
C265 C 0.54976 0.596 0.50468 0.0
C266 C 0.53876 0.61603 0.51162 0.0
C267 C 0.50992 0.59729 0.5283 0.0
C268 C 0.50497 0.567 0.53085 0.0
N269 N 0.52935 0.56571 0.51734 0.0
Co270 Co 0.53106 0.52631 0.51527 0.0
N271 N 0.49728 0.50334 0.54776 0.0
C272 C 0.47575 0.51071 0.55752 0.0
C273 C 0.45686 0.49107 0.58163 0.0
C274 C 0.46748 0.47034 0.58736 0.0
C275 C 0.49231 0.47863 0.56638 0.0
N276 N 0.53209 0.48665 0.51319 0.0
C277 C 0.52363 0.46304 0.53452 0.0
C278 C 0.52935 0.44003 0.52489 0.0
C279 C 0.54209 0.44997 0.4964 0.0
C280 C 0.54343 0.47839 0.49036 0.0
N281 N 0.56521 0.54907 0.48285 0.0
C282 C 0.57435 0.5347 0.46384 0.0
C283 C 0.59764 0.55613 0.44295 0.0
C284 C 0.60304 0.58573 0.44873 0.0
C285 C 0.5826 0.58075 0.47295 0.0
N286 N 0.56635 0.5429 0.54502 0.0
C287 C 0.60934 0.55614 0.59326 0.0
C288 C 0.61293 0.54349 0.56723 0.0
C289 C 0.59166 0.53762 0.54329 0.0
C290 C 0.58502 0.56397 0.59341 0.0
C291 C 0.56369 0.5568 0.56949 0.0
N292 N 0.49525 0.50935 0.48585 0.0
C293 C 0.4427 0.46549 0.46784 0.0
C294 C 0.443 0.48605 0.44492 0.0
C295 C 0.47026 0.5184 0.44287 0.0
C296 C 0.49604 0.52941 0.46327 0.0
C297 C 0.46887 0.47761 0.4881 0.0
H298 H 0.51657 0.55427 0.46068 0.0
H299 H 0.46765 0.46132 0.50574 0.0
H300 H 0.59472 0.52735 0.52393 0.0
H301 H 0.54416 0.56141 0.57144 0.0
C302 C 0.47998 0.54041 0.54835 0.0
C303 C 0.57614 0.60525 0.4822 0.0
C304 C 0.51031 0.46239 0.5638 0.0
C305 C 0.56249 0.50159 0.46761 0.0
H306 H 0.54973 0.64123 0.50433 0.0
H307 H 0.49457 0.60494 0.53761 0.0
H308 H 0.43913 0.493 0.59474 0.0
H309 H 0.4585 0.45172 0.60514 0.0
H310 H 0.52556 0.41884 0.53733 0.0
H311 H 0.55154 0.43905 0.48267 0.0
H312 H 0.60924 0.55087 0.42551 0.0
H313 H 0.61912 0.60813 0.43571 0.0
H314 H 0.63109 0.53688 0.56556 0.0
H315 H 0.58175 0.575 0.61216 0.0
H316 H 0.42212 0.4403 0.47043 0.0
H317 H 0.47199 0.53512 0.42529 0.0
Mg318 Mg 0.25335 0.49409 0.25897 0.0
C319 C 0.18948 0.44014 0.22271 0.0
O320 O 0.19494 0.41745 0.23114 0.0
C321 C 0.28089 0.45459 0.29112 0.0
O322 O 0.27776 0.4414 0.26566 0.0
C323 C 0.22974 0.51416 0.30861 0.0
O324 O 0.22848 0.4883 0.31976 0.0
O325 O 0.24233 0.52518 0.28262 0.0
O326 O 0.20804 0.46859 0.23212 0.0
O327 O 0.29348 0.51636 0.22518 0.0
C328 C 0.28974 0.49548 0.20713 0.0
O329 O 0.26367 0.46559 0.21095 0.0
O330 O 0.27055 0.47346 0.29379 0.0
Mg331 Mg 0.77536 0.24544 0.7525 0.0
C332 C 0.75587 0.18705 0.71129 0.0
O333 O 0.7866 0.19436 0.71453 0.0
C334 C 0.81569 0.24213 0.80293 0.0
O335 O 0.7865 0.21558 0.80976 0.0
C336 C 0.71639 0.21073 0.79638 0.0
O337 O 0.7045 0.1886 0.77646 0.0
O338 O 0.74311 0.2383 0.79032 0.0
O339 O 0.74647 0.20309 0.72474 0.0
O340 O 0.79428 0.28892 0.72275 0.0
C341 C 0.81068 0.28977 0.70013 0.0
O342 O 0.81316 0.26478 0.69636 0.0
O343 O 0.81974 0.25641 0.77752 0.0
Mg344 Mg 0.57311 0.7837 0.27238 0.0
C345 C 0.57963 0.8258 0.22271 0.0
O346 O 0.54834 0.80106 0.22423 0.0
C347 C 0.57757 0.74512 0.31857 0.0
O348 O 0.54604 0.73191 0.31169 0.0
C349 C 0.56305 0.82264 0.31259 0.0
O350 O 0.59482 0.84049 0.30455 0.0
O351 O 0.54464 0.79503 0.30141 0.0
O352 O 0.59987 0.82612 0.24148 0.0
O353 O 0.54567 0.74112 0.24528 0.0
C354 C 0.56202 0.74106 0.22307 0.0
O355 O 0.59243 0.76646 0.21759 0.0
O356 O 0.59949 0.77101 0.30403 0.0
Mg357 Mg 0.77021 0.52837 0.80342 0.0
C358 C 0.75828 0.55908 0.74759 0.0
O359 O 0.77353 0.54711 0.7346 0.0
C360 C 0.81581 0.52556 0.84567 0.0
O361 O 0.79383 0.49545 0.83896 0.0
C362 C 0.69727 0.49172 0.82286 0.0
O363 O 0.69358 0.49408 0.79416 0.0
O364 O 0.72607 0.50076 0.83251 0.0
O365 O 0.75735 0.55853 0.77593 0.0
O366 O 0.78106 0.50318 0.77136 0.0
C367 C 0.81126 0.52114 0.76192 0.0
O368 O 0.83077 0.54919 0.77396 0.0
O369 O 0.81283 0.54803 0.83384 0.0
Mg370 Mg 0.26082 0.78116 0.27247 0.0
C371 C 0.22929 0.73463 0.22464 0.0
O372 O 0.23047 0.76069 0.21418 0.0
C373 C 0.30096 0.81961 0.32191 0.0
O374 O 0.28272 0.83119 0.31376 0.0
C375 C 0.2039 0.74228 0.31093 0.0
O376 O 0.21954 0.72724 0.30797 0.0
O377 O 0.21566 0.76966 0.29681 0.0
O378 O 0.24247 0.73575 0.24967 0.0
O379 O 0.2874 0.8187 0.23666 0.0
C380 C 0.29052 0.84437 0.22494 0.0
O381 O 0.27292 0.85522 0.2354 0.0
O382 O 0.29765 0.79602 0.30796 0.0
Mg383 Mg 0.44728 0.24185 0.75714 0.0
C384 C 0.43997 0.18373 0.72843 0.0
O385 O 0.45791 0.18584 0.75144 0.0
C386 C 0.40628 0.25348 0.79948 0.0
O387 O 0.40997 0.2334 0.81676 0.0
C388 C 0.48791 0.22832 0.80505 0.0
O389 O 0.51156 0.23724 0.78494 0.0
O390 O 0.46249 0.22924 0.79845 0.0
O391 O 0.42931 0.20259 0.72606 0.0
O392 O 0.48328 0.2861 0.73147 0.0
C393 C 0.46944 0.28804 0.7079 0.0
O394 O 0.43921 0.26345 0.70238 0.0
O395 O 0.41418 0.25666 0.77204 0.0
H396 H 0.09535 0.48936 0.10473 0.0
H397 H 0.04532 0.39156 0.07429 0.0
H398 H 0.07462 0.37795 0.11199 0.0
H399 H 0.17499 0.49891 0.11952 0.0
H400 H 0.18242 0.52169 0.15207 0.0
H401 H 0.15767 0.52345 0.12261 0.0
H402 H 0.10906 0.50529 0.16006 0.0
H403 H 0.1335 0.50324 0.18966 0.0
H404 H 0.09277 0.46812 0.18249 0.0
H405 H 0.10925 0.37512 0.15362 0.0
H406 H 0.14772 0.38364 0.19441 0.0
H407 H 0.17509 0.48348 0.19786 0.0
C408 C 0.09085 0.46519 0.106 0.0
C409 C 0.06825 0.44141 0.08673 0.0
C410 C 0.06267 0.40998 0.08893 0.0
C411 C 0.07912 0.40209 0.11028 0.0
C412 C 0.10108 0.42595 0.12926 0.0
C413 C 0.10707 0.45692 0.12723 0.0
C414 C 0.13187 0.47809 0.15023 0.0
C415 C 0.16362 0.50725 0.1352 0.0
C416 C 0.11583 0.48933 0.1719 0.0
C417 C 0.13892 0.45425 0.16551 0.0
C418 C 0.12088 0.42429 0.15315 0.0
C419 C 0.12349 0.39849 0.16346 0.0
C420 C 0.14538 0.40354 0.18674 0.0
C421 C 0.16449 0.43417 0.19954 0.0
C422 C 0.16083 0.45968 0.18877 0.0
H423 H 0.58993 0.08406 0.61587 0.0
H424 H 0.63691 0.03965 0.57603 0.0
H425 H 0.68639 0.07107 0.60753 0.0
H426 H 0.66445 0.16363 0.62126 0.0
H427 H 0.65264 0.17087 0.65646 0.0
H428 H 0.62088 0.14439 0.63131 0.0
H429 H 0.59442 0.09818 0.67246 0.0
H430 H 0.62613 0.12449 0.69775 0.0
H431 H 0.61984 0.08574 0.69055 0.0
H432 H 0.73114 0.10823 0.64291 0.0
H433 H 0.76794 0.14833 0.67893 0.0
H434 H 0.69176 0.16868 0.69619 0.0
C435 C 0.61068 0.08099 0.61397 0.0
C436 C 0.60984 0.05951 0.59368 0.0
C437 C 0.63728 0.05601 0.59156 0.0
C438 C 0.66538 0.07372 0.60934 0.0
C439 C 0.66558 0.09481 0.6292 0.0
C440 C 0.63893 0.0985 0.63163 0.0
C441 C 0.64562 0.12303 0.65446 0.0
C442 C 0.64592 0.15221 0.64 0.0
C443 C 0.61998 0.10689 0.68034 0.0
C444 C 0.68027 0.13275 0.66436 0.0
C445 C 0.69128 0.11611 0.64957 0.0
C446 C 0.72269 0.1213 0.65467 0.0
C447 C 0.74346 0.14417 0.67524 0.0
C448 C 0.73289 0.16175 0.69058 0.0
C449 C 0.70067 0.15565 0.68503 0.0
H450 H 0.56601 0.64308 0.08842 0.0
H451 H 0.48222 0.55554 0.13131 0.0
H452 H 0.48075 0.58802 0.17073 0.0
H453 H 0.60714 0.68039 0.15533 0.0
H454 H 0.6213 0.721 0.14137 0.0
H455 H 0.61483 0.69088 0.1161 0.0
H456 H 0.5744 0.70085 0.08603 0.0
H457 H 0.58061 0.7309 0.11133 0.0
H458 H 0.53897 0.69696 0.10465 0.0
H459 H 0.48847 0.63059 0.20572 0.0
H460 H 0.50734 0.679 0.23487 0.0
H461 H 0.58684 0.73817 0.16966 0.0
C462 C 0.54728 0.63079 0.10605 0.0
C463 C 0.52426 0.59674 0.10677 0.0
C464 C 0.50037 0.58154 0.13044 0.0
C465 C 0.49917 0.59982 0.15284 0.0
C466 C 0.52221 0.63334 0.15146 0.0
C467 C 0.54599 0.64863 0.12879 0.0
C468 C 0.56864 0.68478 0.13299 0.0
C469 C 0.60513 0.69484 0.13668 0.0
C470 C 0.56545 0.70453 0.10722 0.0
C471 C 0.55404 0.68742 0.16163 0.0
C472 C 0.52704 0.65758 0.1718 0.0
C473 C 0.50961 0.65408 0.19794 0.0
C474 C 0.52042 0.68172 0.21431 0.0
C475 C 0.54859 0.71238 0.20463 0.0
C476 C 0.56526 0.71511 0.17776 0.0
H477 H 0.93542 0.56912 0.62456 0.0
H478 H 0.86551 0.47437 0.59044 0.0
H479 H 0.82823 0.46045 0.63407 0.0
H480 H 0.92621 0.54088 0.70087 0.0
H481 H 0.93019 0.57666 0.71472 0.0
H482 H 0.95056 0.5794 0.68023 0.0
H483 H 0.92037 0.60398 0.65327 0.0
H484 H 0.90011 0.60152 0.68771 0.0
H485 H 0.87541 0.58238 0.65576 0.0
H486 H 0.79815 0.45738 0.68215 0.0
H487 H 0.77868 0.46589 0.72964 0.0
H488 H 0.87063 0.56112 0.73247 0.0
C489 C 0.91237 0.54537 0.62621 0.0
C490 C 0.90338 0.523 0.60384 0.0
C491 C 0.87269 0.49229 0.60689 0.0
C492 C 0.85146 0.484 0.63177 0.0
C493 C 0.86133 0.50657 0.65353 0.0
C494 C 0.89112 0.5366 0.65093 0.0
C495 C 0.89636 0.55647 0.67741 0.0
C496 C 0.92768 0.56377 0.6943 0.0
C497 C 0.89815 0.58794 0.66796 0.0
C498 C 0.86478 0.53307 0.69529 0.0
C499 C 0.84475 0.5044 0.68126 0.0
C500 C 0.81378 0.47968 0.6934 0.0
C501 C 0.80295 0.48466 0.72039 0.0
C502 C 0.82317 0.51404 0.73491 0.0
C503 C 0.85461 0.53821 0.72219 0.0
H504 H 0.40031 0.9855 0.09812 0.0
H505 H 0.45249 0.93675 0.08579 0.0
H506 H 0.41519 0.89389 0.12286 0.0
H507 H 0.3899 0.96982 0.17737 0.0
H508 H 0.34901 0.96356 0.17922 0.0
H509 H 0.37826 0.98972 0.15003 0.0
H510 H 0.3348 0.95564 0.11068 0.0
H511 H 0.3054 0.92935 0.13975 0.0
H512 H 0.31667 0.91241 0.1111 0.0
H513 H 0.37394 0.85698 0.16139 0.0
H514 H 0.33163 0.82825 0.20122 0.0
H515 H 0.30594 0.9007 0.19209 0.0
C516 C 0.40365 0.96567 0.1032 0.0
C517 C 0.42933 0.9645 0.08889 0.0
C518 C 0.43302 0.93822 0.09624 0.0
C519 C 0.41191 0.91368 0.11732 0.0
C520 C 0.38721 0.9157 0.13124 0.0
C521 C 0.38294 0.94099 0.12471 0.0
C522 C 0.35522 0.93771 0.14422 0.0
C523 C 0.36892 0.96694 0.16388 0.0
C524 C 0.3263 0.93352 0.1253 0.0
C525 C 0.34477 0.90669 0.16265 0.0
C526 C 0.36354 0.89446 0.15447 0.0
C527 C 0.35904 0.86627 0.16804 0.0
C528 C 0.33482 0.8501 0.19074 0.0
C529 C 0.31528 0.86209 0.20002 0.0
C530 C 0.32036 0.89083 0.18559 0.0
H531 H 0.46715 0.39707 0.57306 0.0
H532 H 0.55348 0.48099 0.60959 0.0
H533 H 0.55489 0.44548 0.64996 0.0
H534 H 0.42716 0.35537 0.64246 0.0
H535 H 0.41192 0.31565 0.62922 0.0
H536 H 0.41848 0.34801 0.60368 0.0
H537 H 0.45745 0.33937 0.57125 0.0
H538 H 0.45126 0.30717 0.59686 0.0
H539 H 0.49297 0.34126 0.58777 0.0
H540 H 0.5459 0.39961 0.6866 0.0
H541 H 0.52584 0.34864 0.71713 0.0
H542 H 0.44604 0.29572 0.65512 0.0
C543 C 0.48622 0.40781 0.58968 0.0
C544 C 0.51021 0.44148 0.58854 0.0
C545 C 0.53491 0.45507 0.61042 0.0
C546 C 0.53594 0.43511 0.63324 0.0
C547 C 0.51207 0.40173 0.63366 0.0
C548 C 0.48761 0.38828 0.61245 0.0
C549 C 0.46457 0.35192 0.61786 0.0
C550 C 0.4284 0.34218 0.62366 0.0
C551 C 0.46671 0.33387 0.59189 0.0
C552 C 0.47961 0.34689 0.64555 0.0
C553 C 0.50709 0.37576 0.65436 0.0
C554 C 0.52447 0.37687 0.67982 0.0
C555 C 0.51301 0.34781 0.69696 0.0
C556 C 0.48441 0.31817 0.68854 0.0
C557 C 0.46802 0.3179 0.66222 0.0
H558 H 0.5792 0.94783 0.42881 0.0
H559 H 0.4793 0.87375 0.46153 0.0
H560 H 0.47546 0.83703 0.42392 0.0
H561 H 0.56335 0.93198 0.35119 0.0
H562 H 0.60396 0.93919 0.34339 0.0
H563 H 0.59869 0.9597 0.37281 0.0
H564 H 0.62358 0.93699 0.41016 0.0
H565 H 0.62905 0.91654 0.38083 0.0
H566 H 0.60535 0.89374 0.41393 0.0
H567 H 0.48261 0.80812 0.38208 0.0
H568 H 0.50141 0.78916 0.34131 0.0
H569 H 0.59633 0.88229 0.33641 0.0
C570 C 0.55643 0.92396 0.428 0.0
C571 C 0.5296 0.91376 0.44826 0.0
C572 C 0.50042 0.88209 0.44658 0.0
C573 C 0.49787 0.86108 0.42511 0.0
C574 C 0.52475 0.87196 0.40545 0.0
C575 C 0.55353 0.90262 0.40682 0.0
C576 C 0.57908 0.90826 0.38349 0.0
C577 C 0.58671 0.93645 0.36142 0.0
C578 C 0.61115 0.91422 0.39797 0.0
C579 C 0.56028 0.87597 0.36888 0.0
C580 C 0.52889 0.85536 0.38167 0.0
C581 C 0.50715 0.8241 0.37189 0.0
C582 C 0.51799 0.81355 0.34867 0.0
C583 C 0.55032 0.83416 0.33562 0.0
C584 C 0.57145 0.86585 0.34584 0.0
H585 H 0.6239 0.52556 0.96463 0.0
H586 H 0.52793 0.47701 0.92199 0.0
H587 H 0.55129 0.46224 0.88146 0.0
H588 H 0.674 0.55931 0.89927 0.0
H589 H 0.70646 0.55364 0.91214 0.0
H590 H 0.68151 0.55853 0.93843 0.0
H591 H 0.66515 0.50405 0.96582 0.0
H592 H 0.69 0.49893 0.9395 0.0
H593 H 0.6464 0.4676 0.94544 0.0
H594 H 0.58638 0.45647 0.84388 0.0
H595 H 0.63041 0.46022 0.81196 0.0
H596 H 0.70308 0.51037 0.88017 0.0
C597 C 0.6078 0.51137 0.94695 0.0
C598 C 0.57412 0.50206 0.94639 0.0
C599 C 0.5538 0.48414 0.92271 0.0
C600 C 0.56681 0.47559 0.89973 0.0
C601 C 0.60017 0.48503 0.90088 0.0
C602 C 0.62037 0.50243 0.92394 0.0
C603 C 0.65569 0.51068 0.91929 0.0
C604 C 0.68089 0.54773 0.91715 0.0
C605 C 0.66484 0.49433 0.94398 0.0
C606 C 0.65242 0.49581 0.88974 0.0
C607 C 0.62016 0.48103 0.87955 0.0
C608 C 0.6116 0.46753 0.85185 0.0
C609 C 0.63676 0.46974 0.83387 0.0
C610 C 0.67007 0.48514 0.8437 0.0
C611 C 0.67771 0.49774 0.87229 0.0
H612 H 0.06846 0.5996 0.42022 0.0
H613 H 0.05138 0.6685 0.45889 0.0
H614 H 0.08962 0.71103 0.42084 0.0
H615 H 0.15506 0.6544 0.40448 0.0
H616 H 0.15378 0.63572 0.37061 0.0
H617 H 0.12382 0.61209 0.40012 0.0
H618 H 0.07517 0.59685 0.36245 0.0
H619 H 0.10666 0.62062 0.33394 0.0
H620 H 0.07525 0.62917 0.34186 0.0
H621 H 0.1323 0.7466 0.37881 0.0
H622 H 0.17684 0.77191 0.33944 0.0
H623 H 0.16534 0.67884 0.3299 0.0
C624 C 0.07257 0.6236 0.42035 0.0
C625 C 0.05711 0.63103 0.44216 0.0
C626 C 0.0631 0.66259 0.44211 0.0
C627 C 0.08465 0.68674 0.4206 0.0
C628 C 0.09984 0.67876 0.39933 0.0
C629 C 0.09398 0.64787 0.39915 0.0
C630 C 0.11439 0.64564 0.37506 0.0
C631 C 0.13817 0.63642 0.38834 0.0
C632 C 0.09153 0.62164 0.35196 0.0
C633 C 0.13334 0.68024 0.36208 0.0
C634 C 0.12438 0.69902 0.37593 0.0
C635 C 0.13933 0.73201 0.36775 0.0
C636 C 0.16447 0.74618 0.3453 0.0
C637 C 0.1746 0.72741 0.33162 0.0
C638 C 0.15827 0.69394 0.33993 0.0
H639 H 0.53051 0.12514 0.91619 0.0
H640 H 0.45524 0.11536 0.97696 0.0
H641 H 0.44601 0.15068 0.94266 0.0
H642 H 0.56414 0.21305 0.89281 0.0
H643 H 0.57482 0.20502 0.85744 0.0
H644 H 0.57356 0.18253 0.89084 0.0
H645 H 0.53115 0.12964 0.85974 0.0
H646 H 0.53192 0.15576 0.82997 0.0
H647 H 0.49282 0.12523 0.84799 0.0
H648 H 0.44357 0.18509 0.90027 0.0
H649 H 0.44817 0.21601 0.85381 0.0
H650 H 0.52705 0.20511 0.82183 0.0
C651 C 0.51199 0.13038 0.92212 0.0
C652 C 0.49324 0.11734 0.94892 0.0
C653 C 0.46971 0.12513 0.95641 0.0
C654 C 0.46437 0.14514 0.93711 0.0
C655 C 0.48328 0.15763 0.91076 0.0
C656 C 0.50684 0.1508 0.90344 0.0
C657 C 0.52436 0.16777 0.87416 0.0
C658 C 0.56144 0.19361 0.87899 0.0
C659 C 0.51981 0.14316 0.85164 0.0
C660 C 0.50573 0.1837 0.86522 0.0
C661 C 0.48249 0.17802 0.88685 0.0
C662 C 0.46185 0.18983 0.88332 0.0
C663 C 0.46468 0.20738 0.85681 0.0
C664 C 0.48801 0.21302 0.83413 0.0
C665 C 0.50918 0.20147 0.83877 0.0
H666 H 0.41164 0.51612 0.42313 0.0
H667 H 0.41246 0.42866 0.41658 0.0
H668 H 0.369 0.40962 0.37846 0.0
H669 H 0.3218 0.47752 0.41365 0.0
H670 H 0.32659 0.51182 0.39226 0.0
H671 H 0.35691 0.51799 0.4197 0.0
H672 H 0.40434 0.54796 0.37978 0.0
H673 H 0.3742 0.54196 0.35226 0.0
H674 H 0.40163 0.52798 0.34637 0.0
H675 H 0.3283 0.40213 0.33804 0.0
H676 H 0.29193 0.4056 0.30068 0.0
H677 H 0.31551 0.4966 0.33523 0.0
C678 C 0.40262 0.49291 0.41374 0.0
C679 C 0.41557 0.47389 0.42292 0.0
C680 C 0.40278 0.44352 0.4102 0.0
C681 C 0.37815 0.43256 0.38842 0.0
C682 C 0.36614 0.45201 0.37974 0.0
C683 C 0.37774 0.48142 0.39223 0.0
C684 C 0.36092 0.49783 0.37884 0.0
C685 C 0.34033 0.5015 0.40253 0.0
C686 C 0.38682 0.53088 0.3634 0.0
C687 C 0.33844 0.47336 0.35651 0.0
C688 C 0.34189 0.44714 0.3573 0.0
C689 C 0.32508 0.42233 0.33756 0.0
C690 C 0.30446 0.42451 0.31638 0.0
C691 C 0.30041 0.45108 0.31523 0.0
C692 C 0.31744 0.47558 0.3359 0.0
H693 H 0.94301 0.39632 0.89526 0.0
H694 H 0.9167 0.32883 0.97142 0.0
H695 H 0.88391 0.28271 0.93929 0.0
H696 H 0.86352 0.35243 0.86202 0.0
H697 H 0.87962 0.36167 0.82436 0.0
H698 H 0.90331 0.38928 0.85281 0.0
H699 H 0.95405 0.38579 0.83974 0.0
H700 H 0.93039 0.35796 0.81133 0.0
H701 H 0.94905 0.34662 0.84018 0.0
H702 H 0.85133 0.24395 0.89977 0.0
H703 H 0.81882 0.21535 0.85623 0.0
H704 H 0.86562 0.30735 0.80501 0.0
C705 C 0.93079 0.3718 0.90504 0.0
C706 C 0.93254 0.3662 0.93591 0.0
C707 C 0.91558 0.33375 0.94793 0.0
C708 C 0.89707 0.30737 0.9298 0.0
C709 C 0.8956 0.31369 0.89957 0.0
C710 C 0.91187 0.34508 0.88724 0.0
C711 C 0.90433 0.34509 0.85443 0.0
C712 C 0.88664 0.36318 0.84804 0.0
C713 C 0.93637 0.35973 0.83529 0.0
C714 C 0.88098 0.30884 0.85036 0.0
C715 C 0.87658 0.2912 0.87666 0.0
C716 C 0.85487 0.25748 0.87898 0.0
C717 C 0.83653 0.24141 0.85405 0.0
C718 C 0.83987 0.25892 0.827 0.0
C719 C 0.86301 0.29309 0.82509 0.0
H720 H 0.91943 0.47576 0.9496 0.0
H721 H 0.98668 0.57727 0.96761 0.0
H722 H 0.954 0.59154 0.93469 0.0
H723 H 0.90627 0.48794 0.8724 0.0
H724 H 0.86284 0.45517 0.87385 0.0
H725 H 0.89198 0.4536 0.89834 0.0
H726 H 0.85503 0.44628 0.9437 0.0
H727 H 0.8258 0.44788 0.91937 0.0
H728 H 0.84414 0.47566 0.94883 0.0
H729 H 0.91256 0.59407 0.89941 0.0
H730 H 0.86699 0.58457 0.86571 0.0
H731 H 0.82731 0.48119 0.87182 0.0
C732 C 0.92728 0.50099 0.94644 0.0
C733 C 0.95567 0.52551 0.96084 0.0
C734 C 0.96514 0.55824 0.95647 0.0
C735 C 0.94669 0.56649 0.93789 0.0
C736 C 0.91872 0.5417 0.92392 0.0
C737 C 0.90913 0.50959 0.92803 0.0
C738 C 0.87802 0.48739 0.91084 0.0
C739 C 0.88522 0.47001 0.88747 0.0
C740 C 0.84904 0.46286 0.93195 0.0
C741 C 0.87147 0.5119 0.89641 0.0
C742 C 0.89514 0.54313 0.90411 0.0
C743 C 0.89393 0.56966 0.89329 0.0
C744 C 0.86794 0.56406 0.87416 0.0
C745 C 0.84343 0.53217 0.86604 0.0
C746 C 0.8455 0.50593 0.87749 0.0
H747 H 0.39126 0.94511 0.44994 0.0
H748 H 0.45287 0.90621 0.46572 0.0
H749 H 0.42312 0.8668 0.42661 0.0
H750 H 0.31458 0.86908 0.43576 0.0
H751 H 0.30189 0.88682 0.40711 0.0
H752 H 0.32771 0.9111 0.43666 0.0
H753 H 0.37178 0.95333 0.39806 0.0
H754 H 0.3461 0.92921 0.3684 0.0
H755 H 0.38876 0.94017 0.37075 0.0
H756 H 0.38613 0.83185 0.38454 0.0
H757 H 0.34618 0.80531 0.34391 0.0
H758 H 0.30982 0.86823 0.35597 0.0
C759 C 0.39841 0.92827 0.44506 0.0
C760 C 0.42447 0.92871 0.46053 0.0
C761 C 0.43301 0.90617 0.45389 0.0
C762 C 0.41625 0.88378 0.43175 0.0
C763 C 0.39084 0.88416 0.41654 0.0
C764 C 0.38199 0.90587 0.42299 0.0
C765 C 0.35423 0.90175 0.40327 0.0
C766 C 0.32274 0.89158 0.42181 0.0
C767 C 0.36593 0.93297 0.38398 0.0
C768 C 0.34878 0.87441 0.38467 0.0
C769 C 0.37 0.86444 0.3926 0.0
C770 C 0.3694 0.83951 0.37822 0.0
C771 C 0.34661 0.82453 0.35516 0.0
C772 C 0.32478 0.83458 0.34662 0.0
C773 C 0.32607 0.85984 0.3618 0.0
H774 H 0.41683 0.35487 0.93554 0.0
H775 H 0.44998 0.43659 0.8719 0.0
H776 H 0.43491 0.39999 0.83104 0.0
H777 H 0.45344 0.32116 0.89655 0.0
H778 H 0.42098 0.27954 0.90634 0.0
H779 H 0.42939 0.31111 0.93055 0.0
H780 H 0.36732 0.29327 0.92812 0.0
H781 H 0.35882 0.2618 0.9036 0.0
H782 H 0.34907 0.29147 0.89255 0.0
H783 H 0.42041 0.35541 0.79667 0.0
H784 H 0.41343 0.30825 0.7722 0.0
H785 H 0.39348 0.25649 0.85804 0.0
C786 C 0.42092 0.36529 0.9131 0.0
C787 C 0.43425 0.39888 0.90733 0.0
C788 C 0.43888 0.41097 0.87733 0.0
C789 C 0.43054 0.39032 0.85378 0.0
C790 C 0.41778 0.35754 0.86036 0.0
C791 C 0.4133 0.34516 0.88931 0.0
C792 C 0.4025 0.3098 0.89041 0.0
C793 C 0.42811 0.30515 0.90692 0.0
C794 C 0.36733 0.28779 0.90451 0.0
C795 C 0.40239 0.30446 0.85758 0.0
C796 C 0.41059 0.33209 0.84059 0.0
C797 C 0.41369 0.33354 0.80975 0.0
C798 C 0.40952 0.30651 0.79601 0.0
C799 C 0.40281 0.27852 0.81312 0.0
C800 C 0.39824 0.2773 0.84424 0.0
H801 H 0.11503 0.50653 0.43982 0.0
H802 H 0.08265 0.55469 0.37903 0.0
H803 H 0.12412 0.5622 0.3415 0.0
H804 H 0.20355 0.55472 0.41885 0.0
H805 H 0.20762 0.52027 0.42189 0.0
H806 H 0.17723 0.52105 0.44472 0.0
H807 H 0.13015 0.46614 0.4249 0.0
H808 H 0.16041 0.46506 0.40227 0.0
H809 H 0.12456 0.4622 0.38543 0.0
H810 H 0.16855 0.56301 0.30998 0.0
H811 H 0.20747 0.55193 0.28559 0.0
H812 H 0.20914 0.50169 0.3667 0.0
C813 C 0.11696 0.51902 0.41875 0.0
C814 C 0.09587 0.53041 0.41248 0.0
C815 C 0.09859 0.54584 0.38432 0.0
C816 C 0.12223 0.5504 0.36294 0.0
C817 C 0.14278 0.53902 0.3699 0.0
C818 C 0.14007 0.52331 0.39703 0.0
C819 C 0.16329 0.51122 0.39825 0.0
C820 C 0.18947 0.52782 0.42236 0.0
C821 C 0.14341 0.47395 0.40298 0.0
C822 C 0.17922 0.52222 0.36748 0.0
C823 C 0.16751 0.53868 0.35158 0.0
C824 C 0.178 0.55028 0.32229 0.0
C825 C 0.20027 0.54405 0.30866 0.0
C826 C 0.21141 0.52601 0.32423 0.0
C827 C 0.20121 0.51567 0.35421 0.0
H828 H 0.58432 0.09797 0.9259 0.0
H829 H 0.66793 0.13669 0.9853 0.0
H830 H 0.70527 0.17562 0.94535 0.0
H831 H 0.63346 0.09693 0.86631 0.0
H832 H 0.61177 0.1045 0.83751 0.0
H833 H 0.59035 0.08371 0.87199 0.0
H834 H 0.57628 0.1276 0.881 0.0
H835 H 0.59546 0.14574 0.84505 0.0
H836 H 0.60996 0.16993 0.87713 0.0
H837 H 0.733 0.21196 0.89856 0.0
H838 H 0.75173 0.23425 0.84711 0.0
H839 H 0.6527 0.16389 0.81593 0.0
C840 C 0.6104 0.11508 0.93062 0.0
C841 C 0.62262 0.11596 0.95948 0.0
C842 C 0.65729 0.1374 0.96425 0.0
C843 C 0.67887 0.15921 0.94145 0.0
C844 C 0.66583 0.15807 0.91345 0.0
C845 C 0.63264 0.1357 0.90771 0.0
C846 C 0.62593 0.13618 0.87484 0.0
C847 C 0.61472 0.10338 0.8619 0.0
C848 C 0.60027 0.14535 0.86916 0.0
C849 C 0.66025 0.16298 0.86308 0.0
C850 C 0.68277 0.1758 0.8858 0.0
C851 C 0.71565 0.20184 0.88057 0.0
C852 C 0.72596 0.21457 0.85129 0.0
C853 C 0.70368 0.2008 0.82748 0.0
C854 C 0.67032 0.17486 0.83364 0.0
H855 H 0.5336 0.60817 0.4441 0.0
H856 H 0.637 0.66254 0.47041 0.0
H857 H 0.65 0.70535 0.43099 0.0
H858 H 0.54869 0.62415 0.36661 0.0
H859 H 0.51295 0.62698 0.36027 0.0
H860 H 0.51243 0.60192 0.39099 0.0
H861 H 0.4995 0.63317 0.42742 0.0
H862 H 0.49971 0.6582 0.39681 0.0
H863 H 0.52667 0.67681 0.42773 0.0
H864 H 0.65077 0.74155 0.38679 0.0
H865 H 0.63902 0.7677 0.34425 0.0
H866 H 0.53486 0.68782 0.34882 0.0
C867 C 0.55892 0.62924 0.44176 0.0
C868 C 0.58432 0.63238 0.46029 0.0
C869 C 0.61724 0.66006 0.45646 0.0
C870 C 0.62477 0.68431 0.43413 0.0
C871 C 0.59902 0.68032 0.416 0.0
C872 C 0.56673 0.65344 0.41982 0.0
C873 C 0.54336 0.65428 0.39762 0.0
C874 C 0.5285 0.62511 0.37769 0.0
C875 C 0.51569 0.65572 0.41334 0.0
C876 C 0.56743 0.68581 0.38045 0.0
C877 C 0.59947 0.70065 0.39117 0.0
C878 C 0.62572 0.7301 0.37834 0.0
C879 C 0.61888 0.74475 0.35415 0.0
C880 C 0.58604 0.72989 0.34319 0.0
C881 C 0.56026 0.69998 0.3566 0.0
H882 H 0.4796 0.06869 0.64412 0.0
H883 H 0.43837 0.08626 0.56496 0.0
H884 H 0.42284 0.11809 0.59363 0.0
H885 H 0.41799 0.06086 0.69698 0.0
H886 H 0.44839 0.0816 0.7252 0.0
H887 H 0.4547 0.05896 0.69872 0.0
H888 H 0.51253 0.11026 0.68368 0.0
H889 H 0.50645 0.133 0.71016 0.0
H890 H 0.51537 0.14728 0.67173 0.0
H891 H 0.41308 0.14943 0.63118 0.0
H892 H 0.41271 0.17964 0.67344 0.0
H893 H 0.4606 0.14144 0.72761 0.0
C894 C 0.46685 0.07881 0.6329 0.0
C895 C 0.46004 0.0748 0.60229 0.0
C896 C 0.44401 0.08913 0.58833 0.0
C897 C 0.43491 0.10709 0.60448 0.0
C898 C 0.44206 0.11062 0.63461 0.0
C899 C 0.45781 0.09697 0.64863 0.0
C900 C 0.46416 0.1056 0.68084 0.0
C901 C 0.44517 0.07492 0.70166 0.0
C902 C 0.50186 0.1252 0.68695 0.0
C903 C 0.4497 0.12637 0.68277 0.0
C904 C 0.43683 0.12883 0.65598 0.0
C905 C 0.42294 0.14751 0.6523 0.0
C906 C 0.42273 0.16452 0.67647 0.0
C907 C 0.43649 0.16289 0.70394 0.0
C908 C 0.44967 0.14312 0.70704 0.0
H909 H 0.35934 0.45202 0.06961 0.0
H910 H 0.45147 0.54647 0.07346 0.0
H911 H 0.42724 0.56026 0.11415 0.0
H912 H 0.3027 0.47762 0.08522 0.0
H913 H 0.27448 0.44118 0.10748 0.0
H914 H 0.29878 0.43992 0.07782 0.0
H915 H 0.32302 0.41622 0.11483 0.0
H916 H 0.29875 0.41734 0.14456 0.0
H917 H 0.34345 0.43772 0.14754 0.0
H918 H 0.39283 0.56222 0.15633 0.0
H919 H 0.35167 0.55206 0.19577 0.0
H920 H 0.28308 0.45597 0.16367 0.0
C921 C 0.37431 0.47555 0.07912 0.0
C922 C 0.40732 0.49809 0.06892 0.0
C923 C 0.42618 0.52887 0.08137 0.0
C924 C 0.41261 0.53687 0.10438 0.0
C925 C 0.38009 0.5138 0.11448 0.0
C926 C 0.36121 0.48379 0.10214 0.0
C927 C 0.32735 0.46287 0.11741 0.0
C928 C 0.29917 0.45495 0.09568 0.0
C929 C 0.3229 0.43171 0.13195 0.0
C930 C 0.33013 0.48559 0.14044 0.0
C931 C 0.36059 0.51494 0.13842 0.0
C932 C 0.36881 0.53936 0.15799 0.0
C933 C 0.34532 0.53343 0.18028 0.0
C934 C 0.31416 0.50326 0.18285 0.0
C935 C 0.30662 0.47933 0.1624 0.0
H936 H 0.92898 0.39329 0.55992 0.0
H937 H 0.93313 0.47719 0.59158 0.0
H938 H 0.89345 0.443 0.63273 0.0
H939 H 0.84097 0.33394 0.57767 0.0
H940 H 0.84773 0.3023 0.58913 0.0
H941 H 0.87506 0.33326 0.56155 0.0
H942 H 0.92633 0.3475 0.59344 0.0
H943 H 0.89918 0.31657 0.62107 0.0
H944 H 0.92725 0.3579 0.63138 0.0
H945 H 0.85378 0.39902 0.67123 0.0
H946 H 0.81996 0.35004 0.70481 0.0
H947 H 0.84293 0.29535 0.6481 0.0
C948 C 0.92116 0.40424 0.5754 0.0
C949 C 0.93348 0.43768 0.57246 0.0
C950 C 0.92342 0.45149 0.59338 0.0
C951 C 0.90096 0.43225 0.61676 0.0
C952 C 0.88901 0.3992 0.61905 0.0
C953 C 0.89891 0.38536 0.59898 0.0
C954 C 0.88348 0.34958 0.60699 0.0
C955 C 0.86044 0.32853 0.58237 0.0
C956 C 0.91068 0.34249 0.61362 0.0
C957 C 0.86363 0.34548 0.63481 0.0
C958 C 0.86685 0.37425 0.64133 0.0
C959 C 0.85104 0.37634 0.66628 0.0
C960 C 0.83181 0.34838 0.6852 0.0
C961 C 0.82873 0.3188 0.67919 0.0
C962 C 0.84469 0.31751 0.65343 0.0
H963 H 0.53976 0.91753 0.09763 0.0
H964 H 0.63396 0.00638 0.11528 0.0
H965 H 0.64906 0.9749 0.14874 0.0
H966 H 0.52255 0.88483 0.16981 0.0
H967 H 0.50352 0.84328 0.15992 0.0
H968 H 0.50271 0.87217 0.13451 0.0
H969 H 0.53103 0.85911 0.09364 0.0
H970 H 0.53184 0.83002 0.11895 0.0
H971 H 0.57001 0.86252 0.10107 0.0
H972 H 0.65048 0.93345 0.18486 0.0
H973 H 0.63815 0.88687 0.21903 0.0
H974 H 0.54269 0.82664 0.17701 0.0
C975 C 0.56379 0.93038 0.10823 0.0
C976 C 0.58565 0.96442 0.10394 0.0
C977 C 0.61696 0.98025 0.11803 0.0
C978 C 0.62567 0.96256 0.13714 0.0
C979 C 0.60294 0.92907 0.1416 0.0
C980 C 0.57276 0.9132 0.12724 0.0
C981 C 0.55151 0.87762 0.13709 0.0
C982 C 0.51812 0.86899 0.15117 0.0
C983 C 0.54578 0.85605 0.11114 0.0
C984 C 0.57394 0.87595 0.15991 0.0
C985 C 0.6037 0.90566 0.1621 0.0
C986 C 0.62742 0.91001 0.183 0.0
C987 C 0.62025 0.88345 0.2023 0.0
C988 C 0.58949 0.8531 0.20069 0.0
C989 C 0.5665 0.84943 0.17882 0.0
H990 H 0.67328 0.5672 0.59713 0.0
H991 H 0.59081 0.55193 0.65207 0.0
H992 H 0.623 0.55795 0.69663 0.0
H993 H 0.69041 0.51813 0.64489 0.0
H994 H 0.73497 0.54291 0.6381 0.0
H995 H 0.70706 0.54125 0.6101 0.0
H996 H 0.73772 0.604 0.60894 0.0
H997 H 0.76553 0.6058 0.6372 0.0
H998 H 0.74166 0.62375 0.64283 0.0
H999 H 0.66345 0.56387 0.73613 0.0
H1000 H 0.70586 0.56262 0.76693 0.0
H1001 H 0.75992 0.56935 0.68705 0.0
C1002 C 0.66175 0.56507 0.6184 0.0
C1003 C 0.62945 0.55988 0.62046 0.0
C1004 C 0.61584 0.55723 0.64921 0.0
C1005 C 0.6339 0.56035 0.67494 0.0
C1006 C 0.66555 0.56562 0.67198 0.0
C1007 C 0.67917 0.56747 0.64446 0.0
C1008 C 0.71249 0.5705 0.64759 0.0
C1009 C 0.71114 0.54147 0.6344 0.0
C1010 C 0.74104 0.60295 0.63329 0.0
C1011 C 0.71523 0.5697 0.68114 0.0
C1012 C 0.68817 0.56747 0.69479 0.0
C1013 C 0.68481 0.56571 0.72566 0.0
C1014 C 0.70919 0.56525 0.74302 0.0
C1015 C 0.73639 0.56604 0.72952 0.0
C1016 C 0.73961 0.56894 0.69813 0.0
H1017 H 0.11971 0.62836 0.09085 0.0
H1018 H 0.0863 0.54215 0.14805 0.0
H1019 H 0.12429 0.57642 0.18706 0.0
H1020 H 0.20651 0.67392 0.11286 0.0
H1021 H 0.20973 0.71229 0.11151 0.0
H1022 H 0.18119 0.68079 0.08767 0.0
H1023 H 0.13217 0.68329 0.10855 0.0
H1024 H 0.16058 0.71489 0.13229 0.0
H1025 H 0.12415 0.67834 0.14806 0.0
H1026 H 0.16614 0.62099 0.22035 0.0
H1027 H 0.20438 0.67168 0.24589 0.0
H1028 H 0.20879 0.72836 0.16722 0.0
C1029 C 0.1206 0.6167 0.11151 0.0
C1030 C 0.10007 0.58255 0.11638 0.0
C1031 C 0.10162 0.56828 0.14391 0.0
C1032 C 0.12329 0.58754 0.16612 0.0
C1033 C 0.14317 0.62117 0.16064 0.0
C1034 C 0.14177 0.63562 0.13406 0.0
C1035 C 0.16442 0.67233 0.1342 0.0
C1036 C 0.1921 0.6856 0.11013 0.0
C1037 C 0.14411 0.68813 0.13057 0.0
C1038 C 0.17862 0.67635 0.16503 0.0
C1039 C 0.16644 0.6466 0.17988 0.0
C1040 C 0.17586 0.64439 0.20886 0.0
C1041 C 0.19774 0.67332 0.22317 0.0
C1042 C 0.20967 0.70404 0.20862 0.0
C1043 C 0.20019 0.70531 0.17902 0.0
loop_
_geom_bond_atom_site_label_1
_geom_bond_atom_site_label_2
_geom_bond_distance
_geom_bond_site_symmetry_2
_ccdc_geom_bond_type
C0 C1 1.443 . S
C0 N4 1.376 1_556 S
C0 C38 1.389 . S
C1 C0 1.443 . S
C1 C2 1.340 1_556 S
C1 H41 0.951 . S
C2 C1 1.340 1_554 S
C2 C3 1.439 . S
C2 H42 0.950 . S
C3 C2 1.439 . S
C3 N4 1.374 . S
C3 C37 1.395 . S
N4 C0 1.376 1_554 S
N4 C3 1.374 . S
N4 Co5 2.008 1_655 S
Co5 N4 2.008 1_455 S
Co5 N6 1.994 . S
Co5 N11 2.008 . S
Co5 N16 1.995 1_554 S
Co5 N21 2.282 . S
Co5 N27 2.282 1_454 S
N6 Co5 1.994 . S
N6 C7 1.363 1_455 S
N6 C10 1.398 . S
C7 N6 1.363 1_655 S
C7 C8 1.446 . S
C7 C37 1.391 . S
C8 C7 1.446 . S
C8 C9 1.339 1_655 S
C8 H43 0.949 . S
C9 C8 1.339 1_455 S
C9 C10 1.439 . S
C9 H44 0.950 . S
C10 N6 1.398 . S
C10 C9 1.439 . S
C10 C39 1.392 . S
N11 Co5 2.008 . S
N11 C12 1.376 . S
N11 C15 1.374 1_554 S
C12 N11 1.376 . S
C12 C13 1.443 . S
C12 C39 1.389 . S
C13 C12 1.443 . S
C13 C14 1.340 . S
C13 H45 0.951 . S
C14 C13 1.340 . S
C14 C15 1.439 1_554 S
C14 H46 0.950 1_554 S
C15 N11 1.374 1_556 S
C15 C14 1.439 1_556 S
C15 C40 1.395 . S
N16 Co5 1.995 1_556 S
N16 C17 1.376 . S
N16 C20 1.383 . S
C17 N16 1.376 . S
C17 C18 1.446 . S
C17 C40 1.391 . S
C18 C17 1.446 . S
C18 C19 1.339 . S
C18 H47 0.949 . S
C19 C18 1.339 . S
C19 C20 1.439 . S
C19 H48 0.950 . S
C20 N16 1.383 . S
C20 C19 1.439 . S
C20 C38 1.392 1_455 S
N21 Co5 2.282 . S
N21 C24 1.332 . S
N21 C26 1.332 . S
C22 C23 1.386 . S
C22 C25 1.388 . S
C23 C22 1.386 . S
C23 C24 1.382 . S
C23 H49 0.950 . S
C24 N21 1.332 . S
C24 C23 1.382 . S
C24 H35 0.952 . S
C25 C22 1.388 . S
C25 C26 1.382 . S
C25 H50 0.950 . S
C26 N21 1.332 . S
C26 C25 1.382 . S
C26 H36 0.948 . S
N27 Co5 2.282 1_656 S
N27 C31 1.332 . S
N27 C32 1.332 1_655 S
C28 C29 1.388 . S
C28 C32 1.382 1_655 S
C28 H51 0.950 . S
C29 C28 1.388 . S
C29 C30 1.386 . S
C30 C29 1.386 . S
C30 C31 1.382 . S
C30 H52 0.950 . S
C31 N27 1.332 . S
C31 C30 1.382 . S
C31 H33 0.952 1_556 S
C32 N27 1.332 1_455 S
C32 C28 1.382 1_455 S
C32 H34 0.948 . S
H33 C31 0.952 1_554 S
H34 C32 0.948 . S
H35 C24 0.952 . S
H36 C26 0.948 . S
C37 C3 1.395 . S
C37 C7 1.391 . S
C38 C0 1.389 . S
C38 C20 1.392 1_655 S
C39 C10 1.392 . S
C39 C12 1.389 . S
C40 C15 1.395 . S
C40 C17 1.391 . S
H41 C1 0.951 . S
H42 C2 0.950 . S
H43 C8 0.949 . S
H44 C9 0.950 . S
H45 C13 0.951 . S
H46 C14 0.950 1_556 S
H47 C18 0.949 . S
H48 C19 0.950 . S
H49 C23 0.950 . S
H50 C25 0.950 . S
H51 C28 0.950 . S
H52 C30 0.950 . S
C53 C54 1.443 . S
C53 N57 1.376 . S
C53 C91 1.389 . S
C54 C53 1.443 . S
C54 C55 1.340 1_545 S
C54 H94 0.951 . S
C55 C54 1.340 1_565 S
C55 C56 1.439 . S
C55 H95 0.950 . S
C56 C55 1.439 . S
C56 N57 1.374 1_565 S
C56 C90 1.395 . S
N57 C53 1.376 . S
N57 C56 1.374 1_545 S
N57 Co58 2.008 . S
Co58 N57 2.008 . S
Co58 N59 1.995 1_545 S
Co58 N64 2.008 . S
Co58 N69 1.995 . S
Co58 N74 2.282 1_545 S
Co58 N80 2.282 . S
N59 Co58 1.995 1_565 S
N59 C60 1.376 . S
N59 C63 1.383 . S
C60 N59 1.376 . S
C60 C61 1.446 . S
C60 C90 1.391 . S
C61 C60 1.446 . S
C61 C62 1.339 . S
C61 H96 0.949 . S
C62 C61 1.339 . S
C62 C63 1.439 . S
C62 H97 0.950 . S
C63 N59 1.383 . S
C63 C62 1.439 . S
C63 C92 1.392 . S
N64 Co58 2.008 . S
N64 C65 1.376 . S
N64 C68 1.374 . S
C65 N64 1.376 . S
C65 C66 1.443 . S
C65 C92 1.389 1_545 S
C66 C65 1.443 . S
C66 C67 1.340 . S
C66 H98 0.951 . S
C67 C66 1.340 . S
C67 C68 1.439 . S
C67 H99 0.950 . S
C68 N64 1.374 . S
C68 C67 1.439 . S
C68 C93 1.395 . S
N69 Co58 1.995 . S
N69 C70 1.376 . S
N69 C73 1.383 . S
C70 N69 1.376 . S
C70 C71 1.446 . S
C70 C93 1.391 . S
C71 C70 1.446 . S
C71 C72 1.339 . S
C71 H100 0.949 . S
C72 C71 1.339 . S
C72 C73 1.439 . S
C72 H101 0.950 . S
C73 N69 1.383 . S
C73 C72 1.439 . S
C73 C91 1.392 . S
N74 Co58 2.282 1_565 S
N74 C77 1.332 1_565 S
N74 C79 1.332 . S
C75 C76 1.386 . S
C75 C78 1.388 . S
C76 C75 1.386 . S
C76 C77 1.382 1_565 S
C76 H102 0.950 1_565 S
C77 N74 1.332 1_545 S
C77 C76 1.382 1_545 S
C77 H88 0.952 . S
C78 C75 1.388 . S
C78 C79 1.382 . S
C78 H103 0.950 . S
C79 N74 1.332 . S
C79 C78 1.382 . S
C79 H89 0.948 . S
N80 Co58 2.282 . S
N80 C84 1.332 . S
N80 C85 1.332 . S
C81 C82 1.388 . S
C81 C85 1.382 . S
C81 H104 0.950 . S
C82 C81 1.388 . S
C82 C83 1.386 . S
C83 C82 1.386 . S
C83 C84 1.382 . S
C83 H105 0.950 . S
C84 N80 1.332 . S
C84 C83 1.382 . S
C84 H86 0.927 1_545 S
C85 N80 1.332 . S
C85 C81 1.382 . S
C85 H87 0.948 . S
H86 C84 0.927 1_565 S
H87 C85 0.948 . S
H88 C77 0.952 . S
H89 C79 0.948 . S
C90 C56 1.395 . S
C90 C60 1.391 . S
C91 C53 1.389 . S
C91 C73 1.392 . S
C92 C63 1.392 . S
C92 C65 1.389 1_565 S
C93 C68 1.395 . S
C93 C70 1.391 . S
H94 C54 0.951 . S
H95 C55 0.950 . S
H96 C61 0.949 . S
H97 C62 0.950 . S
H98 C66 0.951 . S
H99 C67 0.950 . S
H100 C71 0.949 . S
H101 C72 0.950 . S
H102 C76 0.950 1_545 S
H103 C78 0.950 . S
H104 C81 0.950 . S
H105 C83 0.950 . S
C106 C107 1.443 . S
C106 N110 1.376 . S
C106 C144 1.389 . S
C107 C106 1.443 . S
C107 C108 1.340 . S
C107 H147 0.951 . S
C108 C107 1.340 . S
C108 C109 1.439 . S
C108 H148 0.950 . S
C109 C108 1.439 . S
C109 N110 1.374 . S
C109 C143 1.395 . S
N110 C106 1.376 . S
N110 C109 1.374 . S
N110 Co111 2.008 1_556 S
Co111 N110 2.008 1_554 S
Co111 N112 1.995 . S
Co111 N117 2.008 . S
Co111 N122 1.995 . S
Co111 N127 2.282 . S
Co111 N133 2.282 1_554 S
N112 Co111 1.995 . S
N112 C113 1.376 1_554 S
N112 C116 1.383 . S
C113 N112 1.376 1_556 S
C113 C114 1.446 . S
C113 C143 1.391 . S
C114 C113 1.446 . S
C114 C115 1.339 1_556 S
C114 H149 0.949 . S
C115 C114 1.339 1_554 S
C115 C116 1.439 . S
C115 H150 0.950 . S
C116 N112 1.383 . S
C116 C115 1.439 . S
C116 C145 1.392 . S
N117 Co111 2.008 . S
N117 C118 1.376 . S
N117 C121 1.374 . S
C118 N117 1.376 . S
C118 C119 1.443 . S
C118 C145 1.389 . S
C119 C118 1.443 . S
C119 C120 1.340 . S
C119 H151 0.951 . S
C120 C119 1.340 . S
C120 C121 1.439 . S
C120 H152 0.950 . S
C121 N117 1.374 . S
C121 C120 1.439 . S
C121 C146 1.395 . S
N122 Co111 1.995 . S
N122 C123 1.376 . S
N122 C126 1.383 1_554 S
C123 N122 1.376 . S
C123 C124 1.446 . S
C123 C146 1.391 . S
C124 C123 1.446 . S
C124 C125 1.327 1_554 S
C124 H153 0.949 . S
C125 C124 1.327 1_556 S
C125 C126 1.442 . S
C125 H154 0.957 . S
C126 N122 1.383 1_556 S
C126 C125 1.442 . S
C126 C144 1.392 . S
N127 Co111 2.282 . S
N127 C130 1.332 . S
N127 C132 1.332 . S
C128 C129 1.386 . S
C128 C131 1.388 . S
C129 C128 1.386 . S
C129 C130 1.382 . S
C129 H155 0.950 . S
C130 N127 1.332 . S
C130 C129 1.382 . S
C130 H141 0.952 . S
C131 C128 1.388 . S
C131 C132 1.382 . S
C131 H156 0.950 . S
C132 N127 1.332 . S
C132 C131 1.382 . S
C132 H142 0.948 . S
N133 Co111 2.282 1_556 S
N133 C137 1.332 . S
N133 C138 1.332 . S
C134 C135 1.388 . S
C134 C138 1.382 . S
C134 H157 0.950 . S
C135 C134 1.388 . S
C135 C136 1.386 . S
C136 C135 1.386 . S
C136 C137 1.382 . S
C136 H158 0.950 . S
C137 N133 1.332 . S
C137 C136 1.382 . S
C137 H139 0.952 . S
C138 N133 1.332 . S
C138 C134 1.382 . S
C138 H140 0.973 . S
H139 C137 0.952 . S
H140 C138 0.973 . S
H141 C130 0.952 . S
H142 C132 0.948 . S
C143 C109 1.395 . S
C143 C113 1.391 . S
C144 C106 1.389 . S
C144 C126 1.392 . S
C145 C116 1.392 . S
C145 C118 1.389 . S
C146 C121 1.395 . S
C146 C123 1.391 . S
H147 C107 0.951 . S
H148 C108 0.950 . S
H149 C114 0.949 . S
H150 C115 0.950 . S
H151 C119 0.951 . S
H152 C120 0.950 . S
H153 C124 0.949 . S
H154 C125 0.957 . S
H155 C129 0.950 . S
H156 C131 0.950 . S
H157 C134 0.950 . S
H158 C136 0.950 . S
C159 C160 1.443 . S
C159 N163 1.376 . S
C159 C197 1.389 . S
C160 C159 1.443 . S
C160 C161 1.340 . S
C160 H200 0.951 . S
C161 C160 1.340 . S
C161 C162 1.439 . S
C161 H201 0.950 . S
C162 C161 1.439 . S
C162 N163 1.374 . S
C162 C196 1.395 . S
N163 C159 1.376 . S
N163 C162 1.374 . S
N163 Co164 2.008 1_655 S
Co164 N163 2.008 1_455 S
Co164 N165 1.995 1_455 S
Co164 N170 2.008 . S
Co164 N175 1.995 . S
Co164 N180 2.282 . S
Co164 N186 2.282 1_455 S
N165 Co164 1.995 1_655 S
N165 C166 1.376 . S
N165 C169 1.383 1_655 S
C166 N165 1.376 . S
C166 C167 1.446 . S
C166 C196 1.391 . S
C167 C166 1.446 . S
C167 C168 1.339 . S
C167 H202 0.949 . S
C168 C167 1.339 . S
C168 C169 1.439 1_655 S
C168 H203 0.950 1_655 S
C169 N165 1.383 1_455 S
C169 C168 1.439 1_455 S
C169 C198 1.392 . S
N170 Co164 2.008 . S
N170 C171 1.376 . S
N170 C174 1.374 . S
C171 N170 1.376 . S
C171 C172 1.443 . S
C171 C198 1.389 . S
C172 C171 1.443 . S
C172 C173 1.340 . S
C172 H204 0.951 . S
C173 C172 1.340 . S
C173 C174 1.439 . S
C173 H205 0.950 . S
C174 N170 1.374 . S
C174 C173 1.439 . S
C174 C199 1.395 . S
N175 Co164 1.995 . S
N175 C176 1.376 . S
N175 C179 1.383 1_455 S
C176 N175 1.376 . S
C176 C177 1.446 . S
C176 C199 1.391 . S
C177 C176 1.446 . S
C177 C178 1.339 . S
C177 H206 0.949 . S
C178 C177 1.339 . S
C178 C179 1.439 1_455 S
C178 H207 0.950 . S
C179 N175 1.383 1_655 S
C179 C178 1.439 1_655 S
C179 C197 1.392 . S
N180 Co164 2.282 . S
N180 C183 1.332 . S
N180 C185 1.332 . S
C181 C182 1.386 . S
C181 C184 1.388 . S
C182 C181 1.386 . S
C182 C183 1.382 . S
C182 H208 0.950 . S
C183 N180 1.332 . S
C183 C182 1.382 . S
C183 H194 0.952 . S
C184 C181 1.388 . S
C184 C185 1.382 . S
C184 H209 0.950 . S
C185 N180 1.332 . S
C185 C184 1.382 . S
C185 H195 0.948 1_455 S
N186 Co164 2.282 1_655 S
N186 C190 1.332 . S
N186 C191 1.332 . S
C187 C188 1.388 . S
C187 C191 1.382 . S
C187 H210 0.950 . S
C188 C187 1.388 . S
C188 C189 1.386 . S
C189 C188 1.386 . S
C189 C190 1.382 . S
C189 H211 0.950 . S
C190 N186 1.332 . S
C190 C189 1.382 . S
C190 H192 0.952 . S
C191 N186 1.332 . S
C191 C187 1.382 . S
C191 H193 0.948 1_655 S
H192 C190 0.952 . S
H193 C191 0.948 1_455 S
H194 C183 0.952 . S
H195 C185 0.948 1_655 S
C196 C162 1.395 . S
C196 C166 1.391 . S
C197 C159 1.389 . S
C197 C179 1.392 . S
C198 C169 1.392 . S
C198 C171 1.389 . S
C199 C174 1.395 . S
C199 C176 1.391 . S
H200 C160 0.951 . S
H201 C161 0.950 . S
H202 C167 0.949 . S
H203 C168 0.950 1_455 S
H204 C172 0.951 . S
H205 C173 0.950 . S
H206 C177 0.949 . S
H207 C178 0.950 . S
H208 C182 0.950 . S
H209 C184 0.950 . S
H210 C187 0.950 . S
H211 C189 0.950 . S
C212 C213 1.443 1_565 S
C212 N216 1.376 1_565 S
C212 C250 1.389 . S
C213 C212 1.443 1_545 S
C213 C214 1.340 . S
C213 H253 0.951 1_545 S
C214 C213 1.340 . S
C214 C215 1.439 . S
C214 H254 0.950 . S
C215 C214 1.439 . S
C215 N216 1.374 . S
C215 C249 1.395 . S
N216 C212 1.376 1_545 S
N216 C215 1.374 . S
N216 Co217 2.023 . S
Co217 N216 2.023 . S
Co217 N218 2.010 . S
Co217 N223 1.994 1_544 S
Co217 N228 1.980 1_545 S
Co217 N233 2.306 1_554 S
Co217 N239 2.259 1_545 S
N218 Co217 2.010 . S
N218 C219 1.376 . S
N218 C222 1.383 1_554 S
C219 N218 1.376 . S
C219 C220 1.446 . S
C219 C249 1.391 . S
C220 C219 1.446 . S
C220 C221 1.339 1_554 S
C220 H255 0.949 . S
C221 C220 1.339 1_556 S
C221 C222 1.439 . S
C221 H256 0.950 . S
C222 N218 1.383 1_556 S
C222 C221 1.439 . S
C222 C251 1.392 . S
N223 Co217 1.994 1_566 S
N223 C224 1.376 1_565 S
N223 C227 1.374 . S
C224 N223 1.376 1_545 S
C224 C225 1.443 1_545 S
C224 C251 1.389 . S
C225 C224 1.443 1_565 S
C225 C226 1.340 . S
C225 H257 0.951 1_565 S
C226 C225 1.340 . S
C226 C227 1.439 . S
C226 H258 0.950 . S
C227 N223 1.374 . S
C227 C226 1.439 . S
C227 C252 1.395 . S
N228 Co217 1.980 1_565 S
N228 C229 1.376 1_554 S
N228 C232 1.383 . S
C229 N228 1.376 1_556 S
C229 C230 1.446 1_556 S
C229 C252 1.391 . S
C230 C229 1.446 1_554 S
C230 C231 1.339 . S
C230 H259 0.949 1_554 S
C231 C230 1.339 . S
C231 C232 1.439 . S
C231 H260 0.950 . S
C232 N228 1.383 . S
C232 C231 1.439 . S
C232 C250 1.392 . S
N233 Co217 2.306 1_556 S
N233 C236 1.332 . S
N233 C238 1.332 . S
C234 C235 1.386 . S
C234 C237 1.388 . S
C235 C234 1.386 . S
C235 C236 1.382 . S
C235 H261 0.950 . S
C236 N233 1.332 . S
C236 C235 1.382 . S
C236 H247 0.952 1_545 S
C237 C234 1.388 . S
C237 C238 1.382 . S
C237 H262 0.950 . S
C238 N233 1.332 . S
C238 C237 1.382 . S
C238 H248 0.948 . S
N239 Co217 2.259 1_565 S
N239 C243 1.332 . S
N239 C244 1.332 . S
C240 C241 1.388 . S
C240 C244 1.382 . S
C240 H263 0.950 . S
C241 C240 1.388 . S
C241 C242 1.386 . S
C242 C241 1.386 . S
C242 C243 1.382 . S
C242 H264 0.950 . S
C243 N239 1.332 . S
C243 C242 1.382 . S
C243 H245 0.952 1_565 S
C244 N239 1.332 . S
C244 C240 1.382 . S
C244 H246 0.948 . S
H245 C243 0.952 1_545 S
H246 C244 0.948 . S
H247 C236 0.952 1_565 S
H248 C238 0.948 . S
C249 C215 1.395 . S
C249 C219 1.391 . S
C250 C212 1.389 . S
C250 C232 1.392 . S
C251 C222 1.392 . S
C251 C224 1.389 . S
C252 C227 1.395 . S
C252 C229 1.391 . S
H253 C213 0.951 1_565 S
H254 C214 0.950 . S
H255 C220 0.949 . S
H256 C221 0.950 . S
H257 C225 0.951 1_545 S
H258 C226 0.950 . S
H259 C230 0.949 1_556 S
H260 C231 0.950 . S
H261 C235 0.950 . S
H262 C237 0.950 . S
H263 C240 0.950 . S
H264 C242 0.950 . S
C265 C266 1.443 . S
C265 N269 1.376 . S
C265 C303 1.389 . S
C266 C265 1.443 . S
C266 C267 1.340 . S
C266 H306 0.951 . S
C267 C266 1.340 . S
C267 C268 1.439 . S
C267 H307 0.950 . S
C268 C267 1.439 . S
C268 N269 1.374 . S
C268 C302 1.395 . S
N269 C265 1.376 . S
N269 C268 1.374 . S
N269 Co270 2.008 . S
Co270 N269 2.008 . S
Co270 N271 1.995 . S
Co270 N276 2.008 . S
Co270 N281 1.995 . S
Co270 N286 2.282 . S
Co270 N292 2.282 . S
N271 Co270 1.995 . S
N271 C272 1.376 . S
N271 C275 1.383 . S
C272 N271 1.376 . S
C272 C273 1.446 . S
C272 C302 1.391 . S
C273 C272 1.446 . S
C273 C274 1.339 . S
C273 H308 0.949 . S
C274 C273 1.339 . S
C274 C275 1.439 . S
C274 H309 0.950 . S
C275 N271 1.383 . S
C275 C274 1.439 . S
C275 C304 1.392 . S
N276 Co270 2.008 . S
N276 C277 1.376 . S
N276 C280 1.374 . S
C277 N276 1.376 . S
C277 C278 1.443 . S
C277 C304 1.389 . S
C278 C277 1.443 . S
C278 C279 1.340 . S
C278 H310 0.951 . S
C279 C278 1.340 . S
C279 C280 1.439 . S
C279 H311 0.950 . S
C280 N276 1.374 . S
C280 C279 1.439 . S
C280 C305 1.395 . S
N281 Co270 1.995 . S
N281 C282 1.376 . S
N281 C285 1.383 . S
C282 N281 1.376 . S
C282 C283 1.446 . S
C282 C305 1.391 . S
C283 C282 1.446 . S
C283 C284 1.339 . S
C283 H312 0.949 . S
C284 C283 1.339 . S
C284 C285 1.439 . S
C284 H313 0.950 . S
C285 N281 1.383 . S
C285 C284 1.439 . S
C285 C303 1.392 . S
N286 Co270 2.282 . S
N286 C289 1.332 . S
N286 C291 1.332 . S
C287 C288 1.386 . S
C287 C290 1.388 . S
C288 C287 1.386 . S
C288 C289 1.382 . S
C288 H314 0.950 . S
C289 N286 1.332 . S
C289 C288 1.382 . S
C289 H300 0.952 . S
C290 C287 1.388 . S
C290 C291 1.382 . S
C290 H315 0.950 . S
C291 N286 1.332 . S
C291 C290 1.382 . S
C291 H301 0.948 . S
N292 Co270 2.282 . S
N292 C296 1.332 . S
N292 C297 1.332 . S
C293 C294 1.388 . S
C293 C297 1.382 . S
C293 H316 0.950 . S
C294 C293 1.388 . S
C294 C295 1.386 . S
C295 C294 1.386 . S
C295 C296 1.382 . S
C295 H317 0.950 . S
C296 N292 1.332 . S
C296 C295 1.382 . S
C296 H298 0.952 . S
C297 N292 1.332 . S
C297 C293 1.382 . S
C297 H299 0.948 . S
H298 C296 0.952 . S
H299 C297 0.948 . S
H300 C289 0.952 . S
H301 C291 0.948 . S
C302 C268 1.395 . S
C302 C272 1.391 . S
C303 C265 1.389 . S
C303 C285 1.392 . S
C304 C275 1.392 . S
C304 C277 1.389 . S
C305 C280 1.395 . S
C305 C282 1.391 . S
H306 C266 0.951 . S
H307 C267 0.950 . S
H308 C273 0.949 . S
H309 C274 0.950 . S
H310 C278 0.951 . S
H311 C279 0.950 . S
H312 C283 0.949 . S
H313 C284 0.950 . S
H314 C288 0.950 . S
H315 C290 0.950 . S
H316 C293 0.950 . S
H317 C295 0.950 . S
Mg318 O325 2.141 . S
Mg318 O326 2.048 . S
Mg318 O327 2.048 . S
Mg318 O330 2.141 . S
C319 O320 1.313 . S
C319 O326 1.195 . S
O320 C319 1.313 . S
C321 O322 1.245 . S
C321 O330 1.289 . S
O322 C321 1.245 . S
C323 O324 1.245 . S
C323 O325 1.289 . S
O324 C323 1.245 . S
O325 Mg318 2.141 . S
O325 C323 1.289 . S
O326 Mg318 2.048 . S
O326 C319 1.195 . S
O327 Mg318 2.048 . S
O327 C328 1.195 . S
C328 O327 1.195 . S
C328 O329 1.313 . S
O329 C328 1.313 . S
O330 Mg318 2.141 . S
O330 C321 1.289 . S
Mg331 O338 2.141 . S
Mg331 O339 2.048 . S
Mg331 O340 2.048 . S
Mg331 O343 2.141 . S
C332 O333 1.313 . S
C332 O339 1.195 . S
O333 C332 1.313 . S
C334 O335 1.245 . S
C334 O343 1.289 . S
O335 C334 1.245 . S
C336 O337 1.245 . S
C336 O338 1.289 . S
O337 C336 1.245 . S
O338 Mg331 2.141 . S
O338 C336 1.289 . S
O339 Mg331 2.048 . S
O339 C332 1.195 . S
O340 Mg331 2.048 . S
O340 C341 1.195 . S
C341 O340 1.195 . S
C341 O342 1.313 . S
O342 C341 1.313 . S
O343 Mg331 2.141 . S
O343 C334 1.289 . S
Mg344 O351 2.141 . S
Mg344 O352 2.048 . S
Mg344 O353 2.048 . S
Mg344 O356 2.141 . S
C345 O346 1.313 . S
C345 O352 1.195 . S
O346 C345 1.313 . S
C347 O348 1.245 . S
C347 O356 1.289 . S
O348 C347 1.245 . S
C349 O350 1.245 . S
C349 O351 1.289 . S
O350 C349 1.245 . S
O351 Mg344 2.141 . S
O351 C349 1.289 . S
O352 Mg344 2.048 . S
O352 C345 1.195 . S
O353 Mg344 2.048 . S
O353 C354 1.195 . S
C354 O353 1.195 . S
C354 O355 1.313 . S
O355 C354 1.313 . S
O356 Mg344 2.141 . S
O356 C347 1.289 . S
Mg357 O364 2.141 . S
Mg357 O365 2.048 . S
Mg357 O366 2.048 . S
Mg357 O369 2.141 . S
C358 O359 1.313 . S
C358 O365 1.195 . S
O359 C358 1.313 . S
C360 O361 1.245 . S
C360 O369 1.289 . S
O361 C360 1.245 . S
C362 O363 1.245 . S
C362 O364 1.289 . S
O363 C362 1.245 . S
O364 Mg357 2.141 . S
O364 C362 1.289 . S
O365 Mg357 2.048 . S
O365 C358 1.195 . S
O366 Mg357 2.048 . S
O366 C367 1.195 . S
C367 O366 1.195 . S
C367 O368 1.313 . S
O368 C367 1.313 . S
O369 Mg357 2.141 . S
O369 C360 1.289 . S
Mg370 O377 2.141 . S
Mg370 O378 2.048 . S
Mg370 O379 2.048 . S
Mg370 O382 2.141 . S
C371 O372 1.313 . S
C371 O378 1.195 . S
O372 C371 1.313 . S
C373 O374 1.245 . S
C373 O382 1.289 . S
O374 C373 1.245 . S
C375 O376 1.245 . S
C375 O377 1.289 . S
O376 C375 1.245 . S
O377 Mg370 2.141 . S
O377 C375 1.289 . S
O378 Mg370 2.048 . S
O378 C371 1.195 . S
O379 Mg370 2.048 . S
O379 C380 1.195 . S
C380 O379 1.195 . S
C380 O381 1.313 . S
O381 C380 1.313 . S
O382 Mg370 2.141 . S
O382 C373 1.289 . S
Mg383 O390 2.141 . S
Mg383 O391 2.048 . S
Mg383 O392 2.048 . S
Mg383 O395 2.141 . S
C384 O385 1.313 . S
C384 O391 1.195 . S
O385 C384 1.313 . S
C386 O387 1.245 . S
C386 O395 1.289 . S
O387 C386 1.245 . S
C388 O389 1.245 . S
C388 O390 1.289 . S
O389 C388 1.245 . S
O390 Mg383 2.141 . S
O390 C388 1.289 . S
O391 Mg383 2.048 . S
O391 C384 1.195 . S
O392 Mg383 2.048 . S
O392 C393 1.195 . S
C393 O392 1.195 . S
C393 O394 1.313 . S
O394 C393 1.313 . S
O395 Mg383 2.141 . S
O395 C386 1.289 . S
H396 C408 0.930 . S
H397 C410 0.930 . S
H398 C411 0.930 . S
H399 C415 0.959 . S
H400 C415 0.959 . S
H401 C415 0.961 . S
H402 C416 0.960 . S
H403 C416 0.961 . S
H404 C416 0.959 . S
H405 C419 0.929 . S
H406 C420 0.931 . S
H407 C422 0.930 . S
C408 H396 0.930 . S
C408 C409 1.399 . S
C408 C413 1.399 . S
C409 C408 1.399 . S
C409 C410 1.376 . S
C410 H397 0.930 . S
C410 C409 1.376 . S
C410 C411 1.388 . S
C411 H398 0.930 . S
C411 C410 1.388 . S
C411 C412 1.390 . S
C412 C411 1.390 . S
C412 C413 1.394 . S
C412 C418 1.465 . S
C413 C408 1.399 . S
C413 C412 1.394 . S
C413 C414 1.516 . S
C414 C413 1.516 . S
C414 C415 1.502 . S
C414 C416 1.561 . S
C414 C417 1.526 . S
C415 H399 0.959 . S
C415 H400 0.959 . S
C415 H401 0.961 . S
C415 C414 1.502 . S
C416 H402 0.960 . S
C416 H403 0.961 . S
C416 H404 0.959 . S
C416 C414 1.561 . S
C417 C414 1.526 . S
C417 C418 1.396 . S
C417 C422 1.390 . S
C418 C412 1.465 . S
C418 C417 1.396 . S
C418 C419 1.399 . S
C419 H405 0.929 . S
C419 C418 1.399 . S
C419 C420 1.385 . S
C420 H406 0.931 . S
C420 C419 1.385 . S
C420 C421 1.389 . S
C421 C420 1.389 . S
C421 C422 1.387 . S
C422 H407 0.930 . S
C422 C417 1.390 . S
C422 C421 1.387 . S
H423 C435 0.930 . S
H424 C437 0.930 . S
H425 C438 0.930 . S
H426 C442 0.959 . S
H427 C442 0.959 . S
H428 C442 0.961 . S
H429 C443 0.960 . S
H430 C443 0.961 . S
H431 C443 0.959 . S
H432 C446 0.929 . S
H433 C447 0.931 . S
H434 C449 0.930 . S
C435 H423 0.930 . S
C435 C436 1.399 . S
C435 C440 1.399 . S
C436 C435 1.399 . S
C436 C437 1.376 . S
C437 H424 0.930 . S
C437 C436 1.376 . S
C437 C438 1.388 . S
C438 H425 0.930 . S
C438 C437 1.388 . S
C438 C439 1.390 . S
C439 C438 1.390 . S
C439 C440 1.394 . S
C439 C445 1.465 . S
C440 C435 1.399 . S
C440 C439 1.394 . S
C440 C441 1.516 . S
C441 C440 1.516 . S
C441 C442 1.502 . S
C441 C443 1.561 . S
C441 C444 1.526 . S
C442 H426 0.959 . S
C442 H427 0.959 . S
C442 H428 0.961 . S
C442 C441 1.502 . S
C443 H429 0.960 . S
C443 H430 0.961 . S
C443 H431 0.959 . S
C443 C441 1.561 . S
C444 C441 1.526 . S
C444 C445 1.396 . S
C444 C449 1.390 . S
C445 C439 1.465 . S
C445 C444 1.396 . S
C445 C446 1.399 . S
C446 H432 0.929 . S
C446 C445 1.399 . S
C446 C447 1.385 . S
C447 H433 0.931 . S
C447 C446 1.385 . S
C447 C448 1.389 . S
C448 C447 1.389 . S
C448 C449 1.387 . S
C449 H434 0.930 . S
C449 C444 1.390 . S
C449 C448 1.387 . S
H450 C462 0.930 . S
H451 C464 0.930 . S
H452 C465 0.930 . S
H453 C469 0.959 . S
H454 C469 0.959 . S
H455 C469 0.961 . S
H456 C470 0.960 . S
H457 C470 0.961 . S
H458 C470 0.959 . S
H459 C473 0.929 . S
H460 C474 0.931 . S
H461 C476 0.930 . S
C462 H450 0.930 . S
C462 C463 1.399 . S
C462 C467 1.399 . S
C463 C462 1.399 . S
C463 C464 1.376 . S
C464 H451 0.930 . S
C464 C463 1.376 . S
C464 C465 1.388 . S
C465 H452 0.930 . S
C465 C464 1.388 . S
C465 C466 1.390 . S
C466 C465 1.390 . S
C466 C467 1.394 . S
C466 C472 1.465 . S
C467 C462 1.399 . S
C467 C466 1.394 . S
C467 C468 1.516 . S
C468 C467 1.516 . S
C468 C469 1.502 . S
C468 C470 1.561 . S
C468 C471 1.526 . S
C469 H453 0.959 . S
C469 H454 0.959 . S
C469 H455 0.961 . S
C469 C468 1.502 . S
C470 H456 0.960 . S
C470 H457 0.961 . S
C470 H458 0.959 . S
C470 C468 1.561 . S
C471 C468 1.526 . S
C471 C472 1.396 . S
C471 C476 1.390 . S
C472 C466 1.465 . S
C472 C471 1.396 . S
C472 C473 1.399 . S
C473 H459 0.929 . S
C473 C472 1.399 . S
C473 C474 1.385 . S
C474 H460 0.931 . S
C474 C473 1.385 . S
C474 C475 1.389 . S
C475 C474 1.389 . S
C475 C476 1.387 . S
C476 H461 0.930 . S
C476 C471 1.390 . S
C476 C475 1.387 . S
H477 C489 0.930 . S
H478 C491 0.930 . S
H479 C492 0.930 . S
H480 C496 0.959 . S
H481 C496 0.959 . S
H482 C496 0.961 . S
H483 C497 0.960 . S
H484 C497 0.961 . S
H485 C497 0.959 . S
H486 C500 0.929 . S
H487 C501 0.931 . S
H488 C503 0.930 . S
C489 H477 0.930 . S
C489 C490 1.399 . S
C489 C494 1.399 . S
C490 C489 1.399 . S
C490 C491 1.376 . S
C491 H478 0.930 . S
C491 C490 1.376 . S
C491 C492 1.388 . S
C492 H479 0.930 . S
C492 C491 1.388 . S
C492 C493 1.390 . S
C493 C492 1.390 . S
C493 C494 1.394 . S
C493 C499 1.465 . S
C494 C489 1.399 . S
C494 C493 1.394 . S
C494 C495 1.516 . S
C495 C494 1.516 . S
C495 C496 1.502 . S
C495 C497 1.561 . S
C495 C498 1.526 . S
C496 H480 0.959 . S
C496 H481 0.959 . S
C496 H482 0.961 . S
C496 C495 1.502 . S
C497 H483 0.960 . S
C497 H484 0.961 . S
C497 H485 0.959 . S
C497 C495 1.561 . S
C498 C495 1.526 . S
C498 C499 1.396 . S
C498 C503 1.390 . S
C499 C493 1.465 . S
C499 C498 1.396 . S
C499 C500 1.399 . S
C500 H486 0.929 . S
C500 C499 1.399 . S
C500 C501 1.385 . S
C501 H487 0.931 . S
C501 C500 1.385 . S
C501 C502 1.389 . S
C502 C501 1.389 . S
C502 C503 1.387 . S
C503 H488 0.930 . S
C503 C498 1.390 . S
C503 C502 1.387 . S
H504 C516 0.930 . S
H505 C518 0.930 . S
H506 C519 0.930 . S
H507 C523 0.959 . S
H508 C523 0.959 . S
H509 C523 0.961 . S
H510 C524 0.960 . S
H511 C524 0.961 . S
H512 C524 0.959 . S
H513 C527 0.929 . S
H514 C528 0.931 . S
H515 C530 0.930 . S
C516 H504 0.930 . S
C516 C517 1.399 . S
C516 C521 1.399 . S
C517 C516 1.399 . S
C517 C518 1.376 . S
C518 H505 0.930 . S
C518 C517 1.376 . S
C518 C519 1.388 . S
C519 H506 0.930 . S
C519 C518 1.388 . S
C519 C520 1.390 . S
C520 C519 1.390 . S
C520 C521 1.394 . S
C520 C526 1.465 . S
C521 C516 1.399 . S
C521 C520 1.394 . S
C521 C522 1.516 . S
C522 C521 1.516 . S
C522 C523 1.502 . S
C522 C524 1.561 . S
C522 C525 1.526 . S
C523 H507 0.959 . S
C523 H508 0.959 . S
C523 H509 0.961 . S
C523 C522 1.502 . S
C524 H510 0.960 . S
C524 H511 0.961 . S
C524 H512 0.959 . S
C524 C522 1.561 . S
C525 C522 1.526 . S
C525 C526 1.396 . S
C525 C530 1.390 . S
C526 C520 1.465 . S
C526 C525 1.396 . S
C526 C527 1.399 . S
C527 H513 0.929 . S
C527 C526 1.399 . S
C527 C528 1.385 . S
C528 H514 0.931 . S
C528 C527 1.385 . S
C528 C529 1.389 . S
C529 C528 1.389 . S
C529 C530 1.387 . S
C530 H515 0.930 . S
C530 C525 1.390 . S
C530 C529 1.387 . S
H531 C543 0.930 . S
H532 C545 0.930 . S
H533 C546 0.930 . S
H534 C550 0.959 . S
H535 C550 0.959 . S
H536 C550 0.961 . S
H537 C551 0.960 . S
H538 C551 0.961 . S
H539 C551 0.959 . S
H540 C554 0.929 . S
H541 C555 0.931 . S
H542 C557 0.930 . S
C543 H531 0.930 . S
C543 C544 1.399 . S
C543 C548 1.399 . S
C544 C543 1.399 . S
C544 C545 1.376 . S
C545 H532 0.930 . S
C545 C544 1.376 . S
C545 C546 1.388 . S
C546 H533 0.930 . S
C546 C545 1.388 . S
C546 C547 1.390 . S
C547 C546 1.390 . S
C547 C548 1.394 . S
C547 C553 1.465 . S
C548 C543 1.399 . S
C548 C547 1.394 . S
C548 C549 1.516 . S
C549 C548 1.516 . S
C549 C550 1.502 . S
C549 C551 1.561 . S
C549 C552 1.526 . S
C550 H534 0.959 . S
C550 H535 0.959 . S
C550 H536 0.961 . S
C550 C549 1.502 . S
C551 H537 0.960 . S
C551 H538 0.961 . S
C551 H539 0.959 . S
C551 C549 1.561 . S
C552 C549 1.526 . S
C552 C553 1.396 . S
C552 C557 1.390 . S
C553 C547 1.465 . S
C553 C552 1.396 . S
C553 C554 1.399 . S
C554 H540 0.929 . S
C554 C553 1.399 . S
C554 C555 1.385 . S
C555 H541 0.931 . S
C555 C554 1.385 . S
C555 C556 1.389 . S
C556 C555 1.389 . S
C556 C557 1.387 . S
C557 H542 0.930 . S
C557 C552 1.390 . S
C557 C556 1.387 . S
H558 C570 0.930 . S
H559 C572 0.930 . S
H560 C573 0.930 . S
H561 C577 0.959 . S
H562 C577 0.959 . S
H563 C577 0.961 . S
H564 C578 0.960 . S
H565 C578 0.961 . S
H566 C578 0.959 . S
H567 C581 0.929 . S
H568 C582 0.931 . S
H569 C584 0.930 . S
C570 H558 0.930 . S
C570 C571 1.399 . S
C570 C575 1.399 . S
C571 C570 1.399 . S
C571 C572 1.376 . S
C572 H559 0.930 . S
C572 C571 1.376 . S
C572 C573 1.388 . S
C573 H560 0.930 . S
C573 C572 1.388 . S
C573 C574 1.390 . S
C574 C573 1.390 . S
C574 C575 1.394 . S
C574 C580 1.465 . S
C575 C570 1.399 . S
C575 C574 1.394 . S
C575 C576 1.516 . S
C576 C575 1.516 . S
C576 C577 1.502 . S
C576 C578 1.561 . S
C576 C579 1.526 . S
C577 H561 0.959 . S
C577 H562 0.959 . S
C577 H563 0.961 . S
C577 C576 1.502 . S
C578 H564 0.960 . S
C578 H565 0.961 . S
C578 H566 0.959 . S
C578 C576 1.561 . S
C579 C576 1.526 . S
C579 C580 1.396 . S
C579 C584 1.390 . S
C580 C574 1.465 . S
C580 C579 1.396 . S
C580 C581 1.399 . S
C581 H567 0.929 . S
C581 C580 1.399 . S
C581 C582 1.385 . S
C582 H568 0.931 . S
C582 C581 1.385 . S
C582 C583 1.389 . S
C583 C582 1.389 . S
C583 C584 1.387 . S
C584 H569 0.930 . S
C584 C579 1.390 . S
C584 C583 1.387 . S
H585 C597 0.930 . S
H586 C599 0.930 . S
H587 C600 0.930 . S
H588 C604 0.959 . S
H589 C604 0.959 . S
H590 C604 0.961 . S
H591 C605 0.960 . S
H592 C605 0.961 . S
H593 C605 0.959 . S
H594 C608 0.929 . S
H595 C609 0.931 . S
H596 C611 0.930 . S
C597 H585 0.930 . S
C597 C598 1.399 . S
C597 C602 1.399 . S
C598 C597 1.399 . S
C598 C599 1.376 . S
C599 H586 0.930 . S
C599 C598 1.376 . S
C599 C600 1.388 . S
C600 H587 0.930 . S
C600 C599 1.388 . S
C600 C601 1.390 . S
C601 C600 1.390 . S
C601 C602 1.394 . S
C601 C607 1.465 . S
C602 C597 1.399 . S
C602 C601 1.394 . S
C602 C603 1.516 . S
C603 C602 1.516 . S
C603 C604 1.502 . S
C603 C605 1.561 . S
C603 C606 1.526 . S
C604 H588 0.959 . S
C604 H589 0.959 . S
C604 H590 0.961 . S
C604 C603 1.502 . S
C605 H591 0.960 . S
C605 H592 0.961 . S
C605 H593 0.959 . S
C605 C603 1.561 . S
C606 C603 1.526 . S
C606 C607 1.396 . S
C606 C611 1.390 . S
C607 C601 1.465 . S
C607 C606 1.396 . S
C607 C608 1.399 . S
C608 H594 0.929 . S
C608 C607 1.399 . S
C608 C609 1.385 . S
C609 H595 0.931 . S
C609 C608 1.385 . S
C609 C610 1.389 . S
C610 C609 1.389 . S
C610 C611 1.387 . S
C611 H596 0.930 . S
C611 C606 1.390 . S
C611 C610 1.387 . S
H612 C624 0.930 . S
H613 C626 0.930 . S
H614 C627 0.930 . S
H615 C631 0.959 . S
H616 C631 0.959 . S
H617 C631 0.961 . S
H618 C632 0.960 . S
H619 C632 0.961 . S
H620 C632 0.959 . S
H621 C635 0.929 . S
H622 C636 0.931 . S
H623 C638 0.930 . S
C624 H612 0.930 . S
C624 C625 1.399 . S
C624 C629 1.399 . S
C625 C624 1.399 . S
C625 C626 1.376 . S
C626 H613 0.930 . S
C626 C625 1.376 . S
C626 C627 1.388 . S
C627 H614 0.930 . S
C627 C626 1.388 . S
C627 C628 1.390 . S
C628 C627 1.390 . S
C628 C629 1.394 . S
C628 C634 1.465 . S
C629 C624 1.399 . S
C629 C628 1.394 . S
C629 C630 1.516 . S
C630 C629 1.516 . S
C630 C631 1.502 . S
C630 C632 1.561 . S
C630 C633 1.526 . S
C631 H615 0.959 . S
C631 H616 0.959 . S
C631 H617 0.961 . S
C631 C630 1.502 . S
C632 H618 0.960 . S
C632 H619 0.961 . S
C632 H620 0.959 . S
C632 C630 1.561 . S
C633 C630 1.526 . S
C633 C634 1.396 . S
C633 C638 1.390 . S
C634 C628 1.465 . S
C634 C633 1.396 . S
C634 C635 1.399 . S
C635 H621 0.929 . S
C635 C634 1.399 . S
C635 C636 1.385 . S
C636 H622 0.931 . S
C636 C635 1.385 . S
C636 C637 1.389 . S
C637 C636 1.389 . S
C637 C638 1.387 . S
C638 H623 0.930 . S
C638 C633 1.390 . S
C638 C637 1.387 . S
H639 C651 0.930 . S
H640 C653 0.930 . S
H641 C654 0.930 . S
H642 C658 0.959 . S
H643 C658 0.959 . S
H644 C658 0.961 . S
H645 C659 0.960 . S
H646 C659 0.961 . S
H647 C659 0.959 . S
H648 C662 0.929 . S
H649 C663 0.931 . S
H650 C665 0.930 . S
C651 H639 0.930 . S
C651 C652 1.399 . S
C651 C656 1.399 . S
C652 C651 1.399 . S
C652 C653 1.376 . S
C653 H640 0.930 . S
C653 C652 1.376 . S
C653 C654 1.388 . S
C654 H641 0.930 . S
C654 C653 1.388 . S
C654 C655 1.390 . S
C655 C654 1.390 . S
C655 C656 1.394 . S
C655 C661 1.465 . S
C656 C651 1.399 . S
C656 C655 1.394 . S
C656 C657 1.516 . S
C657 C656 1.516 . S
C657 C658 1.502 . S
C657 C659 1.561 . S
C657 C660 1.526 . S
C658 H642 0.959 . S
C658 H643 0.959 . S
C658 H644 0.961 . S
C658 C657 1.502 . S
C659 H645 0.960 . S
C659 H646 0.961 . S
C659 H647 0.959 . S
C659 C657 1.561 . S
C660 C657 1.526 . S
C660 C661 1.396 . S
C660 C665 1.390 . S
C661 C655 1.465 . S
C661 C660 1.396 . S
C661 C662 1.399 . S
C662 H648 0.929 . S
C662 C661 1.399 . S
C662 C663 1.385 . S
C663 H649 0.931 . S
C663 C662 1.385 . S
C663 C664 1.389 . S
C664 C663 1.389 . S
C664 C665 1.387 . S
C665 H650 0.930 . S
C665 C660 1.390 . S
C665 C664 1.387 . S
H666 C678 0.930 . S
H667 C680 0.930 . S
H668 C681 0.930 . S
H669 C685 0.959 . S
H670 C685 0.959 . S
H671 C685 0.961 . S
H672 C686 0.960 . S
H673 C686 0.961 . S
H674 C686 0.959 . S
H675 C689 0.929 . S
H676 C690 0.931 . S
H677 C692 0.930 . S
C678 H666 0.930 . S
C678 C679 1.399 . S
C678 C683 1.399 . S
C679 C678 1.399 . S
C679 C680 1.376 . S
C680 H667 0.930 . S
C680 C679 1.376 . S
C680 C681 1.388 . S
C681 H668 0.930 . S
C681 C680 1.388 . S
C681 C682 1.390 . S
C682 C681 1.390 . S
C682 C683 1.394 . S
C682 C688 1.465 . S
C683 C678 1.399 . S
C683 C682 1.394 . S
C683 C684 1.516 . S
C684 C683 1.516 . S
C684 C685 1.502 . S
C684 C686 1.561 . S
C684 C687 1.526 . S
C685 H669 0.959 . S
C685 H670 0.959 . S
C685 H671 0.961 . S
C685 C684 1.502 . S
C686 H672 0.960 . S
C686 H673 0.961 . S
C686 H674 0.959 . S
C686 C684 1.561 . S
C687 C684 1.526 . S
C687 C688 1.396 . S
C687 C692 1.390 . S
C688 C682 1.465 . S
C688 C687 1.396 . S
C688 C689 1.399 . S
C689 H675 0.929 . S
C689 C688 1.399 . S
C689 C690 1.385 . S
C690 H676 0.931 . S
C690 C689 1.385 . S
C690 C691 1.389 . S
C691 C690 1.389 . S
C691 C692 1.387 . S
C692 H677 0.930 . S
C692 C687 1.390 . S
C692 C691 1.387 . S
H693 C705 0.930 . S
H694 C707 0.930 . S
H695 C708 0.930 . S
H696 C712 0.959 . S
H697 C712 0.959 . S
H698 C712 0.961 . S
H699 C713 0.960 . S
H700 C713 0.961 . S
H701 C713 0.959 . S
H702 C716 0.929 . S
H703 C717 0.931 . S
H704 C719 0.930 . S
C705 H693 0.930 . S
C705 C706 1.399 . S
C705 C710 1.399 . S
C706 C705 1.399 . S
C706 C707 1.376 . S
C707 H694 0.930 . S
C707 C706 1.376 . S
C707 C708 1.388 . S
C708 H695 0.930 . S
C708 C707 1.388 . S
C708 C709 1.390 . S
C709 C708 1.390 . S
C709 C710 1.394 . S
C709 C715 1.465 . S
C710 C705 1.399 . S
C710 C709 1.394 . S
C710 C711 1.516 . S
C711 C710 1.516 . S
C711 C712 1.502 . S
C711 C713 1.561 . S
C711 C714 1.526 . S
C712 H696 0.959 . S
C712 H697 0.959 . S
C712 H698 0.961 . S
C712 C711 1.502 . S
C713 H699 0.960 . S
C713 H700 0.961 . S
C713 H701 0.959 . S
C713 C711 1.561 . S
C714 C711 1.526 . S
C714 C715 1.396 . S
C714 C719 1.390 . S
C715 C709 1.465 . S
C715 C714 1.396 . S
C715 C716 1.399 . S
C716 H702 0.929 . S
C716 C715 1.399 . S
C716 C717 1.385 . S
C717 H703 0.931 . S
C717 C716 1.385 . S
C717 C718 1.389 . S
C718 C717 1.389 . S
C718 C719 1.387 . S
C719 H704 0.930 . S
C719 C714 1.390 . S
C719 C718 1.387 . S
H720 C732 0.930 . S
H721 C734 0.930 . S
H722 C735 0.930 . S
H723 C739 0.959 . S
H724 C739 0.959 . S
H725 C739 0.961 . S
H726 C740 0.960 . S
H727 C740 0.961 . S
H728 C740 0.959 . S
H729 C743 0.929 . S
H730 C744 0.931 . S
H731 C746 0.930 . S
C732 H720 0.930 . S
C732 C733 1.399 . S
C732 C737 1.399 . S
C733 C732 1.399 . S
C733 C734 1.376 . S
C734 H721 0.930 . S
C734 C733 1.376 . S
C734 C735 1.388 . S
C735 H722 0.930 . S
C735 C734 1.388 . S
C735 C736 1.390 . S
C736 C735 1.390 . S
C736 C737 1.394 . S
C736 C742 1.465 . S
C737 C732 1.399 . S
C737 C736 1.394 . S
C737 C738 1.516 . S
C738 C737 1.516 . S
C738 C739 1.502 . S
C738 C740 1.561 . S
C738 C741 1.526 . S
C739 H723 0.959 . S
C739 H724 0.959 . S
C739 H725 0.961 . S
C739 C738 1.502 . S
C740 H726 0.960 . S
C740 H727 0.961 . S
C740 H728 0.959 . S
C740 C738 1.561 . S
C741 C738 1.526 . S
C741 C742 1.396 . S
C741 C746 1.390 . S
C742 C736 1.465 . S
C742 C741 1.396 . S
C742 C743 1.399 . S
C743 H729 0.929 . S
C743 C742 1.399 . S
C743 C744 1.385 . S
C744 H730 0.931 . S
C744 C743 1.385 . S
C744 C745 1.389 . S
C745 C744 1.389 . S
C745 C746 1.387 . S
C746 H731 0.930 . S
C746 C741 1.390 . S
C746 C745 1.387 . S
H747 C759 0.930 . S
H748 C761 0.930 . S
H749 C762 0.930 . S
H750 C766 0.959 . S
H751 C766 0.959 . S
H752 C766 0.961 . S
H753 C767 0.960 . S
H754 C767 0.961 . S
H755 C767 0.959 . S
H756 C770 0.929 . S
H757 C771 0.931 . S
H758 C773 0.930 . S
C759 H747 0.930 . S
C759 C760 1.399 . S
C759 C764 1.399 . S
C760 C759 1.399 . S
C760 C761 1.376 . S
C761 H748 0.930 . S
C761 C760 1.376 . S
C761 C762 1.388 . S
C762 H749 0.930 . S
C762 C761 1.388 . S
C762 C763 1.390 . S
C763 C762 1.390 . S
C763 C764 1.394 . S
C763 C769 1.465 . S
C764 C759 1.399 . S
C764 C763 1.394 . S
C764 C765 1.516 . S
C765 C764 1.516 . S
C765 C766 1.502 . S
C765 C767 1.561 . S
C765 C768 1.526 . S
C766 H750 0.959 . S
C766 H751 0.959 . S
C766 H752 0.961 . S
C766 C765 1.502 . S
C767 H753 0.960 . S
C767 H754 0.961 . S
C767 H755 0.959 . S
C767 C765 1.561 . S
C768 C765 1.526 . S
C768 C769 1.396 . S
C768 C773 1.390 . S
C769 C763 1.465 . S
C769 C768 1.396 . S
C769 C770 1.399 . S
C770 H756 0.929 . S
C770 C769 1.399 . S
C770 C771 1.385 . S
C771 H757 0.931 . S
C771 C770 1.385 . S
C771 C772 1.389 . S
C772 C771 1.389 . S
C772 C773 1.387 . S
C773 H758 0.930 . S
C773 C768 1.390 . S
C773 C772 1.387 . S
H774 C786 0.930 . S
H775 C788 0.930 . S
H776 C789 0.930 . S
H777 C793 0.959 . S
H778 C793 0.959 . S
H779 C793 0.961 . S
H780 C794 0.960 . S
H781 C794 0.961 . S
H782 C794 0.959 . S
H783 C797 0.929 . S
H784 C798 0.931 . S
H785 C800 0.930 . S
C786 H774 0.930 . S
C786 C787 1.399 . S
C786 C791 1.399 . S
C787 C786 1.399 . S
C787 C788 1.376 . S
C788 H775 0.930 . S
C788 C787 1.376 . S
C788 C789 1.388 . S
C789 H776 0.930 . S
C789 C788 1.388 . S
C789 C790 1.390 . S
C790 C789 1.390 . S
C790 C791 1.394 . S
C790 C796 1.465 . S
C791 C786 1.399 . S
C791 C790 1.394 . S
C791 C792 1.516 . S
C792 C791 1.516 . S
C792 C793 1.502 . S
C792 C794 1.561 . S
C792 C795 1.526 . S
C793 H777 0.959 . S
C793 H778 0.959 . S
C793 H779 0.961 . S
C793 C792 1.502 . S
C794 H780 0.960 . S
C794 H781 0.961 . S
C794 H782 0.959 . S
C794 C792 1.561 . S
C795 C792 1.526 . S
C795 C796 1.396 . S
C795 C800 1.390 . S
C796 C790 1.465 . S
C796 C795 1.396 . S
C796 C797 1.399 . S
C797 H783 0.929 . S
C797 C796 1.399 . S
C797 C798 1.385 . S
C798 H784 0.931 . S
C798 C797 1.385 . S
C798 C799 1.389 . S
C799 C798 1.389 . S
C799 C800 1.387 . S
C800 H785 0.930 . S
C800 C795 1.390 . S
C800 C799 1.387 . S
H801 C813 0.930 . S
H802 C815 0.930 . S
H803 C816 0.930 . S
H804 C820 0.959 . S
H805 C820 0.959 . S
H806 C820 0.961 . S
H807 C821 0.960 . S
H808 C821 0.961 . S
H809 C821 0.959 . S
H810 C824 0.929 . S
H811 C825 0.931 . S
H812 C827 0.930 . S
C813 H801 0.930 . S
C813 C814 1.399 . S
C813 C818 1.399 . S
C814 C813 1.399 . S
C814 C815 1.376 . S
C815 H802 0.930 . S
C815 C814 1.376 . S
C815 C816 1.388 . S
C816 H803 0.930 . S
C816 C815 1.388 . S
C816 C817 1.390 . S
C817 C816 1.390 . S
C817 C818 1.394 . S
C817 C823 1.465 . S
C818 C813 1.399 . S
C818 C817 1.394 . S
C818 C819 1.516 . S
C819 C818 1.516 . S
C819 C820 1.502 . S
C819 C821 1.561 . S
C819 C822 1.526 . S
C820 H804 0.959 . S
C820 H805 0.959 . S
C820 H806 0.961 . S
C820 C819 1.502 . S
C821 H807 0.960 . S
C821 H808 0.961 . S
C821 H809 0.959 . S
C821 C819 1.561 . S
C822 C819 1.526 . S
C822 C823 1.396 . S
C822 C827 1.390 . S
C823 C817 1.465 . S
C823 C822 1.396 . S
C823 C824 1.399 . S
C824 H810 0.929 . S
C824 C823 1.399 . S
C824 C825 1.385 . S
C825 H811 0.931 . S
C825 C824 1.385 . S
C825 C826 1.389 . S
C826 C825 1.389 . S
C826 C827 1.387 . S
C827 H812 0.930 . S
C827 C822 1.390 . S
C827 C826 1.387 . S
H828 C840 0.930 . S
H829 C842 0.930 . S
H830 C843 0.930 . S
H831 C847 0.959 . S
H832 C847 0.959 . S
H833 C847 0.961 . S
H834 C848 0.960 . S
H835 C848 0.961 . S
H836 C848 0.959 . S
H837 C851 0.929 . S
H838 C852 0.931 . S
H839 C854 0.930 . S
C840 H828 0.930 . S
C840 C841 1.399 . S
C840 C845 1.399 . S
C841 C840 1.399 . S
C841 C842 1.376 . S
C842 H829 0.930 . S
C842 C841 1.376 . S
C842 C843 1.388 . S
C843 H830 0.930 . S
C843 C842 1.388 . S
C843 C844 1.390 . S
C844 C843 1.390 . S
C844 C845 1.394 . S
C844 C850 1.465 . S
C845 C840 1.399 . S
C845 C844 1.394 . S
C845 C846 1.516 . S
C846 C845 1.516 . S
C846 C847 1.502 . S
C846 C848 1.561 . S
C846 C849 1.526 . S
C847 H831 0.959 . S
C847 H832 0.959 . S
C847 H833 0.961 . S
C847 C846 1.502 . S
C848 H834 0.960 . S
C848 H835 0.961 . S
C848 H836 0.959 . S
C848 C846 1.561 . S
C849 C846 1.526 . S
C849 C850 1.396 . S
C849 C854 1.390 . S
C850 C844 1.465 . S
C850 C849 1.396 . S
C850 C851 1.399 . S
C851 H837 0.929 . S
C851 C850 1.399 . S
C851 C852 1.385 . S
C852 H838 0.931 . S
C852 C851 1.385 . S
C852 C853 1.389 . S
C853 C852 1.389 . S
C853 C854 1.387 . S
C854 H839 0.930 . S
C854 C849 1.390 . S
C854 C853 1.387 . S
H855 C867 0.930 . S
H856 C869 0.930 . S
H857 C870 0.930 . S
H858 C874 0.959 . S
H859 C874 0.959 . S
H860 C874 0.961 . S
H861 C875 0.960 . S
H862 C875 0.961 . S
H863 C875 0.959 . S
H864 C878 0.929 . S
H865 C879 0.931 . S
H866 C881 0.930 . S
C867 H855 0.930 . S
C867 C868 1.399 . S
C867 C872 1.399 . S
C868 C867 1.399 . S
C868 C869 1.376 . S
C869 H856 0.930 . S
C869 C868 1.376 . S
C869 C870 1.388 . S
C870 H857 0.930 . S
C870 C869 1.388 . S
C870 C871 1.390 . S
C871 C870 1.390 . S
C871 C872 1.394 . S
C871 C877 1.465 . S
C872 C867 1.399 . S
C872 C871 1.394 . S
C872 C873 1.516 . S
C873 C872 1.516 . S
C873 C874 1.502 . S
C873 C875 1.561 . S
C873 C876 1.526 . S
C874 H858 0.959 . S
C874 H859 0.959 . S
C874 H860 0.961 . S
C874 C873 1.502 . S
C875 H861 0.960 . S
C875 H862 0.961 . S
C875 H863 0.959 . S
C875 C873 1.561 . S
C876 C873 1.526 . S
C876 C877 1.396 . S
C876 C881 1.390 . S
C877 C871 1.465 . S
C877 C876 1.396 . S
C877 C878 1.399 . S
C878 H864 0.929 . S
C878 C877 1.399 . S
C878 C879 1.385 . S
C879 H865 0.931 . S
C879 C878 1.385 . S
C879 C880 1.389 . S
C880 C879 1.389 . S
C880 C881 1.387 . S
C881 H866 0.930 . S
C881 C876 1.390 . S
C881 C880 1.387 . S
H882 C894 0.930 . S
H883 C896 0.930 . S
H884 C897 0.930 . S
H885 C901 0.959 . S
H886 C901 0.959 . S
H887 C901 0.961 . S
H888 C902 0.960 . S
H889 C902 0.961 . S
H890 C902 0.959 . S
H891 C905 0.929 . S
H892 C906 0.931 . S
H893 C908 0.930 . S
C894 H882 0.930 . S
C894 C895 1.399 . S
C894 C899 1.399 . S
C895 C894 1.399 . S
C895 C896 1.376 . S
C896 H883 0.930 . S
C896 C895 1.376 . S
C896 C897 1.388 . S
C897 H884 0.930 . S
C897 C896 1.388 . S
C897 C898 1.390 . S
C898 C897 1.390 . S
C898 C899 1.394 . S
C898 C904 1.465 . S
C899 C894 1.399 . S
C899 C898 1.394 . S
C899 C900 1.516 . S
C900 C899 1.516 . S
C900 C901 1.502 . S
C900 C902 1.561 . S
C900 C903 1.526 . S
C901 H885 0.959 . S
C901 H886 0.959 . S
C901 H887 0.961 . S
C901 C900 1.502 . S
C902 H888 0.960 . S
C902 H889 0.961 . S
C902 H890 0.959 . S
C902 C900 1.561 . S
C903 C900 1.526 . S
C903 C904 1.396 . S
C903 C908 1.390 . S
C904 C898 1.465 . S
C904 C903 1.396 . S
C904 C905 1.399 . S
C905 H891 0.929 . S
C905 C904 1.399 . S
C905 C906 1.385 . S
C906 H892 0.931 . S
C906 C905 1.385 . S
C906 C907 1.389 . S
C907 C906 1.389 . S
C907 C908 1.387 . S
C908 H893 0.930 . S
C908 C903 1.390 . S
C908 C907 1.387 . S
H909 C921 0.930 . S
H910 C923 0.930 . S
H911 C924 0.930 . S
H912 C928 0.959 . S
H913 C928 0.959 . S
H914 C928 0.961 . S
H915 C929 0.960 . S
H916 C929 0.961 . S
H917 C929 0.959 . S
H918 C932 0.929 . S
H919 C933 0.931 . S
H920 C935 0.930 . S
C921 H909 0.930 . S
C921 C922 1.399 . S
C921 C926 1.399 . S
C922 C921 1.399 . S
C922 C923 1.376 . S
C923 H910 0.930 . S
C923 C922 1.376 . S
C923 C924 1.388 . S
C924 H911 0.930 . S
C924 C923 1.388 . S
C924 C925 1.390 . S
C925 C924 1.390 . S
C925 C926 1.394 . S
C925 C931 1.465 . S
C926 C921 1.399 . S
C926 C925 1.394 . S
C926 C927 1.516 . S
C927 C926 1.516 . S
C927 C928 1.502 . S
C927 C929 1.561 . S
C927 C930 1.526 . S
C928 H912 0.959 . S
C928 H913 0.959 . S
C928 H914 0.961 . S
C928 C927 1.502 . S
C929 H915 0.960 . S
C929 H916 0.961 . S
C929 H917 0.959 . S
C929 C927 1.561 . S
C930 C927 1.526 . S
C930 C931 1.396 . S
C930 C935 1.390 . S
C931 C925 1.465 . S
C931 C930 1.396 . S
C931 C932 1.399 . S
C932 H918 0.929 . S
C932 C931 1.399 . S
C932 C933 1.385 . S
C933 H919 0.931 . S
C933 C932 1.385 . S
C933 C934 1.389 . S
C934 C933 1.389 . S
C934 C935 1.387 . S
C935 H920 0.930 . S
C935 C930 1.390 . S
C935 C934 1.387 . S
H936 C948 0.930 . S
H937 C950 0.930 . S
H938 C951 0.930 . S
H939 C955 0.959 . S
H940 C955 0.959 . S
H941 C955 0.961 . S
H942 C956 0.960 . S
H943 C956 0.961 . S
H944 C956 0.959 . S
H945 C959 0.929 . S
H946 C960 0.931 . S
H947 C962 0.930 . S
C948 H936 0.930 . S
C948 C949 1.399 . S
C948 C953 1.399 . S
C949 C948 1.399 . S
C949 C950 1.376 . S
C950 H937 0.930 . S
C950 C949 1.376 . S
C950 C951 1.388 . S
C951 H938 0.930 . S
C951 C950 1.388 . S
C951 C952 1.390 . S
C952 C951 1.390 . S
C952 C953 1.394 . S
C952 C958 1.465 . S
C953 C948 1.399 . S
C953 C952 1.394 . S
C953 C954 1.516 . S
C954 C953 1.516 . S
C954 C955 1.502 . S
C954 C956 1.561 . S
C954 C957 1.526 . S
C955 H939 0.959 . S
C955 H940 0.959 . S
C955 H941 0.961 . S
C955 C954 1.502 . S
C956 H942 0.960 . S
C956 H943 0.961 . S
C956 H944 0.959 . S
C956 C954 1.561 . S
C957 C954 1.526 . S
C957 C958 1.396 . S
C957 C962 1.390 . S
C958 C952 1.465 . S
C958 C957 1.396 . S
C958 C959 1.399 . S
C959 H945 0.929 . S
C959 C958 1.399 . S
C959 C960 1.385 . S
C960 H946 0.931 . S
C960 C959 1.385 . S
C960 C961 1.389 . S
C961 C960 1.389 . S
C961 C962 1.387 . S
C962 H947 0.930 . S
C962 C957 1.390 . S
C962 C961 1.387 . S
H963 C975 0.930 . S
H964 C977 0.930 . S
H965 C978 0.930 . S
H966 C982 0.959 . S
H967 C982 0.959 . S
H968 C982 0.961 . S
H969 C983 0.960 . S
H970 C983 0.961 . S
H971 C983 0.959 . S
H972 C986 0.929 . S
H973 C987 0.931 . S
H974 C989 0.930 . S
C975 H963 0.930 . S
C975 C976 1.399 . S
C975 C980 1.399 . S
C976 C975 1.399 . S
C976 C977 1.376 . S
C977 H964 0.930 . S
C977 C976 1.376 . S
C977 C978 1.388 . S
C978 H965 0.930 . S
C978 C977 1.388 . S
C978 C979 1.390 . S
C979 C978 1.390 . S
C979 C980 1.394 . S
C979 C985 1.465 . S
C980 C975 1.399 . S
C980 C979 1.394 . S
C980 C981 1.516 . S
C981 C980 1.516 . S
C981 C982 1.502 . S
C981 C983 1.561 . S
C981 C984 1.526 . S
C982 H966 0.959 . S
C982 H967 0.959 . S
C982 H968 0.961 . S
C982 C981 1.502 . S
C983 H969 0.960 . S
C983 H970 0.961 . S
C983 H971 0.959 . S
C983 C981 1.561 . S
C984 C981 1.526 . S
C984 C985 1.396 . S
C984 C989 1.390 . S
C985 C979 1.465 . S
C985 C984 1.396 . S
C985 C986 1.399 . S
C986 H972 0.929 . S
C986 C985 1.399 . S
C986 C987 1.385 . S
C987 H973 0.931 . S
C987 C986 1.385 . S
C987 C988 1.389 . S
C988 C987 1.389 . S
C988 C989 1.387 . S
C989 H974 0.930 . S
C989 C984 1.390 . S
C989 C988 1.387 . S
H990 C1002 0.930 . S
H991 C1004 0.930 . S
H992 C1005 0.930 . S
H993 C1009 0.959 . S
H994 C1009 0.959 . S
H995 C1009 0.961 . S
H996 C1010 0.960 . S
H997 C1010 0.961 . S
H998 C1010 0.959 . S
H999 C1013 0.929 . S
H1000 C1014 0.931 . S
H1001 C1016 0.930 . S
C1002 H990 0.930 . S
C1002 C1003 1.399 . S
C1002 C1007 1.399 . S
C1003 C1002 1.399 . S
C1003 C1004 1.376 . S
C1004 H991 0.930 . S
C1004 C1003 1.376 . S
C1004 C1005 1.388 . S
C1005 H992 0.930 . S
C1005 C1004 1.388 . S
C1005 C1006 1.390 . S
C1006 C1005 1.390 . S
C1006 C1007 1.394 . S
C1006 C1012 1.465 . S
C1007 C1002 1.399 . S
C1007 C1006 1.394 . S
C1007 C1008 1.516 . S
C1008 C1007 1.516 . S
C1008 C1009 1.502 . S
C1008 C1010 1.561 . S
C1008 C1011 1.526 . S
C1009 H993 0.959 . S
C1009 H994 0.959 . S
C1009 H995 0.961 . S
C1009 C1008 1.502 . S
C1010 H996 0.960 . S
C1010 H997 0.961 . S
C1010 H998 0.959 . S
C1010 C1008 1.561 . S
C1011 C1008 1.526 . S
C1011 C1012 1.396 . S
C1011 C1016 1.390 . S
C1012 C1006 1.465 . S
C1012 C1011 1.396 . S
C1012 C1013 1.399 . S
C1013 H999 0.929 . S
C1013 C1012 1.399 . S
C1013 C1014 1.385 . S
C1014 H1000 0.931 . S
C1014 C1013 1.385 . S
C1014 C1015 1.389 . S
C1015 C1014 1.389 . S
C1015 C1016 1.387 . S
C1016 H1001 0.930 . S
C1016 C1011 1.390 . S
C1016 C1015 1.387 . S
H1017 C1029 0.930 . S
H1018 C1031 0.930 . S
H1019 C1032 0.930 . S
H1020 C1036 0.959 . S
H1021 C1036 0.959 . S
H1022 C1036 0.961 . S
H1023 C1037 0.960 . S
H1024 C1037 0.961 . S
H1025 C1037 0.959 . S
H1026 C1040 0.929 . S
H1027 C1041 0.931 . S
H1028 C1043 0.930 . S
C1029 H1017 0.930 . S
C1029 C1030 1.399 . S
C1029 C1034 1.399 . S
C1030 C1029 1.399 . S
C1030 C1031 1.376 . S
C1031 H1018 0.930 . S
C1031 C1030 1.376 . S
C1031 C1032 1.388 . S
C1032 H1019 0.930 . S
C1032 C1031 1.388 . S
C1032 C1033 1.390 . S
C1033 C1032 1.390 . S
C1033 C1034 1.394 . S
C1033 C1039 1.465 . S
C1034 C1029 1.399 . S
C1034 C1033 1.394 . S
C1034 C1035 1.516 . S
C1035 C1034 1.516 . S
C1035 C1036 1.502 . S
C1035 C1037 1.561 . S
C1035 C1038 1.526 . S
C1036 H1020 0.959 . S
C1036 H1021 0.959 . S
C1036 H1022 0.961 . S
C1036 C1035 1.502 . S
C1037 H1023 0.960 . S
C1037 H1024 0.961 . S
C1037 H1025 0.959 . S
C1037 C1035 1.561 . S
C1038 C1035 1.526 . S
C1038 C1039 1.396 . S
C1038 C1043 1.390 . S
C1039 C1033 1.465 . S
C1039 C1038 1.396 . S
C1039 C1040 1.399 . S
C1040 H1026 0.929 . S
C1040 C1039 1.399 . S
C1040 C1041 1.385 . S
C1041 H1027 0.931 . S
C1041 C1040 1.385 . S
C1041 C1042 1.389 . S
C1042 C1041 1.389 . S
C1042 C1043 1.387 . S
C1043 H1028 0.930 . S
C1043 C1038 1.390 . S
C1043 C1042 1.387 . S
C409 C39 1.712 . S
C421 C319 1.729 . S
C436 C91 1.735 . S
C448 C332 1.734 . S
C475 C354 1.507 . S
C463 C128 1.584 . S
C502 C367 1.461 . S
C490 C188 1.555 . S
C529 C380 1.600 . S
C517 C250 1.677 . S
C556 C393 1.597 . S
C544 C304 1.697 . S
C571 C75 1.579 . S
C583 C349 1.475 . S
C598 C144 1.708 . S
C610 C362 1.597 . S
C637 C375 1.633 . S
C625 C198 1.658 . S
C664 C388 1.487 . S
C652 C234 1.505 . S
C679 C294 1.525 . S
C691 C321 1.537 . S
C718 C334 1.567 . S
C706 C29 1.555 . S
C745 C360 1.677 . S
C733 C38 1.704 . S
C760 C92 1.741 . S
C772 C373 1.637 . S
C799 C386 1.491 . S
C787 C135 1.578 . S
C814 C181 1.545 . S
C826 C323 1.541 . S
C841 C251 1.667 . S
C853 C336 1.666 . S
C868 C303 1.674 . S
C880 C347 1.628 . S
C895 C82 1.583 . S
C907 C384 1.539 . S
C934 C328 1.706 . S
C922 C145 1.708 . S
C949 C197 1.673 . S
C961 C341 1.676 . S
C976 C241 1.513 . S
C988 C345 1.484 . S
C1003 C287 1.535 . S
C1015 C358 1.471 . S
C1030 C22 1.557 . S
C1042 C371 1.538 . S
