# Generated by pormake.
# Topology myd, (4,6)-cn, num edge types: 1
# Building blocks:
#     Node 0, Type 0, BuildingBlock: NAWXER_clean_sbu_0, # of connection points: 4
#     Node 1, Type 0, BuildingBlock: NAWXER_clean_sbu_0, # of connection points: 4
#     Node 2, Type 0, BuildingBlock: NAWXER_clean_sbu_0, # of connection points: 4
#     Node 3, Type 0, BuildingBlock: NAWXER_clean_sbu_0, # of connection points: 4
#     Node 4, Type 0, BuildingBlock: NAWXER_clean_sbu_0, # of connection points: 4
#     Node 5, Type 0, BuildingBlock: NAWXER_clean_sbu_0, # of connection points: 4
#     Node 6, Type 0, BuildingBlock: NAWXER_clean_sbu_0, # of connection points: 4
#     Node 7, Type 0, BuildingBlock: NAWXER_clean_sbu_0, # of connection points: 4
#     Node 8, Type 0, BuildingBlock: NAWXER_clean_sbu_0, # of connection points: 4
#     Node 9, Type 0, BuildingBlock: NAWXER_clean_sbu_0, # of connection points: 4
#     Node 10, Type 0, BuildingBlock: NAWXER_clean_sbu_0, # of connection points: 4
#     Node 11, Type 0, BuildingBlock: NAWXER_clean_sbu_0, # of connection points: 4
#     Node 12, Type 1, BuildingBlock: MIDCAF_clean_sbu_0, # of connection points: 6
#     Node 13, Type 1, BuildingBlock: MIDCAF_clean_sbu_0, # of connection points: 6
#     Node 14, Type 1, BuildingBlock: MIDCAF_clean_sbu_0, # of connection points: 6
#     Node 15, Type 1, BuildingBlock: MIDCAF_clean_sbu_0, # of connection points: 6
#     Node 16, Type 1, BuildingBlock: MIDCAF_clean_sbu_0, # of connection points: 6
#     Node 17, Type 1, BuildingBlock: MIDCAF_clean_sbu_0, # of connection points: 6
#     Node 18, Type 1, BuildingBlock: MIDCAF_clean_sbu_0, # of connection points: 6
#     Node 19, Type 1, BuildingBlock: MIDCAF_clean_sbu_0, # of connection points: 6
#     Edge 20, Type (0, 1), BuildingBlock: UVAHIK_clean_linker_0, # of connection points: 2
#     Edge 21, Type (0, 1), BuildingBlock: UVAHIK_clean_linker_0, # of connection points: 2
#     Edge 22, Type (0, 1), BuildingBlock: UVAHIK_clean_linker_0, # of connection points: 2
#     Edge 23, Type (0, 1), BuildingBlock: UVAHIK_clean_linker_0, # of connection points: 2
#     Edge 24, Type (0, 1), BuildingBlock: UVAHIK_clean_linker_0, # of connection points: 2
#     Edge 25, Type (0, 1), BuildingBlock: UVAHIK_clean_linker_0, # of connection points: 2
#     Edge 26, Type (0, 1), BuildingBlock: UVAHIK_clean_linker_0, # of connection points: 2
#     Edge 27, Type (0, 1), BuildingBlock: UVAHIK_clean_linker_0, # of connection points: 2
#     Edge 28, Type (0, 1), BuildingBlock: UVAHIK_clean_linker_0, # of connection points: 2
#     Edge 29, Type (0, 1), BuildingBlock: UVAHIK_clean_linker_0, # of connection points: 2
#     Edge 30, Type (0, 1), BuildingBlock: UVAHIK_clean_linker_0, # of connection points: 2
#     Edge 31, Type (0, 1), BuildingBlock: UVAHIK_clean_linker_0, # of connection points: 2
#     Edge 32, Type (0, 1), BuildingBlock: UVAHIK_clean_linker_0, # of connection points: 2
#     Edge 33, Type (0, 1), BuildingBlock: UVAHIK_clean_linker_0, # of connection points: 2
#     Edge 34, Type (0, 1), BuildingBlock: UVAHIK_clean_linker_0, # of connection points: 2
#     Edge 35, Type (0, 1), BuildingBlock: UVAHIK_clean_linker_0, # of connection points: 2
#     Edge 36, Type (0, 1), BuildingBlock: UVAHIK_clean_linker_0, # of connection points: 2
#     Edge 37, Type (0, 1), BuildingBlock: UVAHIK_clean_linker_0, # of connection points: 2
#     Edge 38, Type (0, 1), BuildingBlock: UVAHIK_clean_linker_0, # of connection points: 2
#     Edge 39, Type (0, 1), BuildingBlock: UVAHIK_clean_linker_0, # of connection points: 2
#     Edge 40, Type (0, 1), BuildingBlock: UVAHIK_clean_linker_0, # of connection points: 2
#     Edge 41, Type (0, 1), BuildingBlock: UVAHIK_clean_linker_0, # of connection points: 2
#     Edge 42, Type (0, 1), BuildingBlock: UVAHIK_clean_linker_0, # of connection points: 2
#     Edge 43, Type (0, 1), BuildingBlock: UVAHIK_clean_linker_0, # of connection points: 2
#     Edge 44, Type (0, 1), BuildingBlock: UVAHIK_clean_linker_0, # of connection points: 2
#     Edge 45, Type (0, 1), BuildingBlock: UVAHIK_clean_linker_0, # of connection points: 2
#     Edge 46, Type (0, 1), BuildingBlock: UVAHIK_clean_linker_0, # of connection points: 2
#     Edge 47, Type (0, 1), BuildingBlock: UVAHIK_clean_linker_0, # of connection points: 2
#     Edge 48, Type (0, 1), BuildingBlock: UVAHIK_clean_linker_0, # of connection points: 2
#     Edge 49, Type (0, 1), BuildingBlock: UVAHIK_clean_linker_0, # of connection points: 2
#     Edge 50, Type (0, 1), BuildingBlock: UVAHIK_clean_linker_0, # of connection points: 2
#     Edge 51, Type (0, 1), BuildingBlock: UVAHIK_clean_linker_0, # of connection points: 2
#     Edge 52, Type (0, 1), BuildingBlock: UVAHIK_clean_linker_0, # of connection points: 2
#     Edge 53, Type (0, 1), BuildingBlock: UVAHIK_clean_linker_0, # of connection points: 2
#     Edge 54, Type (0, 1), BuildingBlock: UVAHIK_clean_linker_0, # of connection points: 2
#     Edge 55, Type (0, 1), BuildingBlock: UVAHIK_clean_linker_0, # of connection points: 2
#     Edge 56, Type (0, 1), BuildingBlock: UVAHIK_clean_linker_0, # of connection points: 2
#     Edge 57, Type (0, 1), BuildingBlock: UVAHIK_clean_linker_0, # of connection points: 2
#     Edge 58, Type (0, 1), BuildingBlock: UVAHIK_clean_linker_0, # of connection points: 2
#     Edge 59, Type (0, 1), BuildingBlock: UVAHIK_clean_linker_0, # of connection points: 2
#     Edge 60, Type (0, 1), BuildingBlock: UVAHIK_clean_linker_0, # of connection points: 2
#     Edge 61, Type (0, 1), BuildingBlock: UVAHIK_clean_linker_0, # of connection points: 2
#     Edge 62, Type (0, 1), BuildingBlock: UVAHIK_clean_linker_0, # of connection points: 2
#     Edge 63, Type (0, 1), BuildingBlock: UVAHIK_clean_linker_0, # of connection points: 2
#     Edge 64, Type (0, 1), BuildingBlock: UVAHIK_clean_linker_0, # of connection points: 2
#     Edge 65, Type (0, 1), BuildingBlock: UVAHIK_clean_linker_0, # of connection points: 2
#     Edge 66, Type (0, 1), BuildingBlock: UVAHIK_clean_linker_0, # of connection points: 2
#     Edge 67, Type (0, 1), BuildingBlock: UVAHIK_clean_linker_0, # of connection points: 2
# Relax obj value: 0.163
# Max RMSD: 0.104
# Mean RMSD: 0.094
data_MOF--net-myd--node1-NAWXER_clean_sbu_0--node2-MIDCAF_clean_sbu_0--edge1-UVAHIK_clean_linker_0
_symmetry_space_group_name_H-M    P1
_symmetry_Int_Tables_number       1
_symmetry_cell_setting            triclinic
loop_
_symmetry_equiv_pos_as_xyz
'x, y, z'
_cell_length_a     57.965971
_cell_length_b     57.971288
_cell_length_c     57.835328
_cell_angle_alpha  90.047454
_cell_angle_beta   90.046673
_cell_angle_gamma 90.2964
loop_
_atom_site_label
_atom_site_type_symbol
_atom_site_fract_x
_atom_site_fract_y
_atom_site_fract_z
_atom_type_partial_charge
C0 C 0.96095 0.2196 0.24381 0.0
C1 C 0.97023 0.27986 0.30198 0.0
O2 O 0.98204 0.22214 0.25015 0.0
Zn3 Zn 0.00144 0.24337 0.27402 0.0
O4 O 0.94544 0.23191 0.25311 0.0
Zn5 Zn 0.96565 0.24886 0.27367 0.0
O6 O 0.98561 0.26942 0.24949 0.0
O7 O 0.02209 0.25944 0.2534 0.0
O8 O 0.95182 0.27207 0.2929 0.0
O9 O 0.98963 0.27065 0.29667 0.0
O10 O 0.01492 0.22102 0.2943 0.0
O11 O 0.9771 0.22262 0.29778 0.0
C12 C 0.00684 0.27161 0.24351 0.0
C13 C 0.99648 0.21369 0.30363 0.0
C14 C 0.98957 0.78312 0.26209 0.0
C15 C 0.98932 0.72512 0.20122 0.0
O16 O 0.00988 0.77912 0.25427 0.0
Zn17 Zn 0.0256 0.75788 0.22802 0.0
O18 O 0.97231 0.7729 0.25311 0.0
Zn19 Zn 0.98944 0.75533 0.23067 0.0
O20 O 0.00905 0.73241 0.25265 0.0
O21 O 0.04604 0.73943 0.24655 0.0
O22 O 0.97231 0.73414 0.21158 0.0
O23 O 0.00981 0.73249 0.20553 0.0
O24 O 0.03955 0.7801 0.20763 0.0
O25 O 0.00159 0.78172 0.20732 0.0
C26 C 0.03034 0.72826 0.25708 0.0
C27 C 0.02118 0.78942 0.20033 0.0
C28 C 0.30765 0.99215 0.2254 0.0
C29 C 0.25684 0.98438 0.29369 0.0
O30 O 0.2999 0.97314 0.23338 0.0
Zn31 Zn 0.28218 0.98612 0.2592 0.0
O32 O 0.30209 0.01119 0.23511 0.0
Zn33 Zn 0.28152 0.02355 0.26293 0.0
O34 O 0.30432 0.03846 0.28281 0.0
O35 O 0.30816 1.00061 0.2808 0.0
O36 O 0.2622 0.00497 0.28776 0.0
O37 O 0.26454 0.96749 0.28191 0.0
O38 O 0.2557 0.00304 0.24082 0.0
O39 O 0.25713 0.04062 0.24718 0.0
C40 C 0.31487 0.02016 0.28875 0.0
C41 C 0.24772 0.02328 0.23739 0.0
C42 C 0.74346 0.48032 0.2293 0.0
C43 C 0.68491 0.49609 0.28858 0.0
O44 O 0.73448 0.46528 0.24266 0.0
Zn45 Zn 0.71269 0.48636 0.25757 0.0
O46 O 0.73664 0.50125 0.23013 0.0
Zn47 Zn 0.71343 0.52252 0.2489 0.0
O48 O 0.73625 0.54289 0.26354 0.0
O49 O 0.737 0.50689 0.27613 0.0
O50 O 0.69146 0.51404 0.27737 0.0
O51 O 0.69208 0.47634 0.28232 0.0
O52 O 0.69063 0.49557 0.22945 0.0
O53 O 0.69295 0.53319 0.2244 0.0
C54 C 0.74471 0.5276 0.27686 0.0
C55 C 0.68472 0.51372 0.2183 0.0
C56 C 0.22082 0.32021 0.9947 0.0
C57 C 0.2848 0.26718 0.97966 0.0
O58 O 0.22909 0.31503 0.97501 0.0
Zn59 Zn 0.25341 0.2945 0.98553 0.0
O60 O 0.22982 0.31158 0.01298 0.0
Zn61 Zn 0.2567 0.28855 0.02243 0.0
O62 O 0.27848 0.30735 0.03994 0.0
O63 O 0.27713 0.31673 0.00289 0.0
O64 O 0.28 0.27026 1.00101 0.0
O65 O 0.27349 0.27781 0.96408 0.0
O66 O 0.23486 0.26578 0.99854 0.0
O67 O 0.2398 0.26256 0.03625 0.0
C68 C 0.28542 0.31983 0.0232 0.0
C69 C 0.23116 0.25495 0.01744 0.0
C70 C 0.22447 0.75286 0.49907 0.0
C71 C 0.28948 0.69949 0.5086 0.0
O72 O 0.23225 0.74458 0.48007 0.0
Zn73 Zn 0.25831 0.72147 0.46808 0.0
O74 O 0.23375 0.74692 0.5181 0.0
Zn75 Zn 0.25663 0.72607 0.50473 0.0
O76 O 0.27901 0.74968 0.48672 0.0
O77 O 0.27716 0.74215 0.44934 0.0
O78 O 0.27829 0.70968 0.52449 0.0
O79 O 0.28355 0.70249 0.48744 0.0
O80 O 0.2397 0.69758 0.45339 0.0
O81 O 0.23478 0.69921 0.49115 0.0
C82 C 0.28524 0.75417 0.46592 0.0
C83 C 0.22967 0.69022 0.47151 0.0
C84 C 0.72365 0.81506 0.50906 0.0
C85 C 0.77927 0.7519 0.5009 0.0
O86 O 0.73068 0.80652 0.49005 0.0
Zn87 Zn 0.75342 0.78525 0.50276 0.0
O88 O 0.7332 0.80884 0.52805 0.0
Zn89 Zn 0.75919 0.78578 0.53986 0.0
O90 O 0.78463 0.80519 0.55127 0.0
O91 O 0.78141 0.80652 0.51335 0.0
O92 O 0.77682 0.75987 0.52135 0.0
O93 O 0.76927 0.76179 0.48398 0.0
O94 O 0.73181 0.76306 0.52281 0.0
O95 O 0.74128 0.76507 0.55985 0.0
C96 C 0.7919 0.81263 0.53188 0.0
C97 C 0.72885 0.75651 0.54373 0.0
C98 C 0.4802 0.79107 0.7642 0.0
C99 C 0.50065 0.72497 0.81257 0.0
O100 O 0.46586 0.77714 0.77346 0.0
Zn101 Zn 0.48891 0.75902 0.78992 0.0
O102 O 0.50182 0.78903 0.76816 0.0
Zn103 Zn 0.52514 0.7672 0.78629 0.0
O104 O 0.54235 0.7547 0.75988 0.0
O105 O 0.50543 0.74499 0.76047 0.0
O106 O 0.51815 0.73685 0.80595 0.0
O107 O 0.48046 0.73177 0.80745 0.0
O108 O 0.50185 0.78291 0.81477 0.0
O109 O 0.53884 0.78918 0.80778 0.0
C110 C 0.52511 0.74466 0.75051 0.0
C111 C 0.52083 0.79326 0.81963 0.0
C112 C 0.51913 0.22317 0.76299 0.0
C113 C 0.51294 0.282 0.70313 0.0
O114 O 0.49814 0.22607 0.75651 0.0
Zn115 Zn 0.47978 0.24731 0.7316 0.0
O116 O 0.53516 0.23445 0.75309 0.0
Zn117 Zn 0.51569 0.25103 0.73188 0.0
O118 O 0.49694 0.27298 0.75577 0.0
O119 O 0.45995 0.26454 0.75206 0.0
O120 O 0.53077 0.273 0.71202 0.0
O121 O 0.49296 0.27402 0.70864 0.0
O122 O 0.4651 0.22488 0.71174 0.0
O123 O 0.50296 0.2239 0.70918 0.0
C124 C 0.47587 0.27614 0.76181 0.0
C125 C 0.48311 0.2158 0.70334 0.0
C126 C 0.76315 0.53471 0.72734 0.0
C127 C 0.82162 0.517 0.78594 0.0
O128 O 0.77232 0.54937 0.74101 0.0
Zn129 Zn 0.79388 0.52769 0.75524 0.0
O130 O 0.76978 0.5137 0.72759 0.0
Zn131 Zn 0.79282 0.49174 0.7457 0.0
O132 O 0.76977 0.47127 0.75995 0.0
O133 O 0.76928 0.50702 0.77321 0.0
O134 O 0.81499 0.49938 0.77423 0.0
O135 O 0.81443 0.53692 0.78028 0.0
O136 O 0.81583 0.51898 0.72682 0.0
O137 O 0.81312 0.48151 0.72086 0.0
C138 C 0.76133 0.4864 0.7735 0.0
C139 C 0.82153 0.50103 0.71522 0.0
C140 C 0.24065 0.9856 0.72373 0.0
C141 C 0.18819 0.00474 0.78719 0.0
O142 O 0.22878 0.97098 0.73515 0.0
Zn143 Zn 0.21364 0.99385 0.75477 0.0
O144 O 0.23932 0.00711 0.72839 0.0
Zn145 Zn 0.22234 0.02994 0.75152 0.0
O146 O 0.24893 0.04208 0.76862 0.0
O147 O 0.24294 0.00485 0.77395 0.0
O148 O 0.1982 0.02243 0.77836 0.0
O149 O 0.19196 0.98488 0.7787 0.0
O150 O 0.19357 0.01243 0.73006 0.0
O151 O 0.20571 0.04865 0.72921 0.0
C152 C 0.25496 0.02303 0.77772 0.0
C153 C 0.19245 0.03281 0.72157 0.0
C154 C 0.7178 0.19175 0.01573 0.0
C155 C 0.77857 0.25028 0.02375 0.0
O156 O 0.72518 0.20021 0.03469 0.0
Zn157 Zn 0.7485 0.2205 0.02145 0.0
O158 O 0.72685 0.19823 0.99658 0.0
Zn159 Zn 0.75289 0.22115 0.98417 0.0
O160 O 0.77511 0.20046 0.97005 0.0
O161 O 0.77339 0.19715 0.00806 0.0
O162 O 0.77475 0.24365 0.00301 0.0
O163 O 0.76701 0.24163 0.04037 0.0
O164 O 0.72778 0.24444 0.00358 0.0
O165 O 0.73537 0.24367 0.96614 0.0
C166 C 0.7821 0.19103 0.98865 0.0
C167 C 0.72424 0.25203 0.98315 0.0
Zn168 Zn 0.04499 0.07983 0.06347 0.0
Zn169 Zn 0.0123 0.01358 0.01728 0.0
Zn170 Zn 0.03107 0.04498 0.04163 0.0
C171 C 0.05222 0.02538 0.99416 0.0
C172 C 0.02108 0.99438 0.06042 0.0
O173 O 0.0021 0.06918 0.05219 0.0
O174 O 0.01891 0.10049 0.06625 0.0
C175 C 0.0729 0.07853 0.02569 0.0
O176 O 0.05091 0.04229 0.00865 0.0
O177 O 0.03853 0.00847 0.99594 0.0
O178 O 0.00761 0.99174 0.04343 0.0
O179 O 0.03366 0.01272 0.06197 0.0
O180 O 0.07004 0.09027 0.04375 0.0
O181 O 0.05985 0.06097 0.02137 0.0
O182 O 0.04641 0.03064 0.07346 0.0
O183 O 0.05413 0.06323 0.09182 0.0
C184 C 0.05427 0.04147 0.09128 0.0
O185 O 0.99488 0.05437 0.03404 0.0
O186 O 0.98562 0.03122 0.00506 0.0
C187 C 0.00077 0.08957 0.06124 0.0
C188 C 0.9809 0.04821 0.01779 0.0
Zn189 Zn 0.98867 0.4967 0.02182 0.0
Zn190 Zn 0.95007 0.44098 0.07008 0.0
Zn191 Zn 0.96695 0.46821 0.04636 0.0
C192 C 0.94815 0.47586 0.09799 0.0
C193 C 0.91904 0.44441 0.0361 0.0
O194 O 0.00285 0.45555 0.04146 0.0
O195 O 0.01511 0.47713 0.01248 0.0
C196 C 0.97911 0.5192 0.06302 0.0
O197 O 0.95144 0.4847 0.07776 0.0
O198 O 0.95302 0.45494 0.10117 0.0
O199 O 0.91842 0.44125 0.05762 0.0
O200 O 0.93746 0.45284 0.02686 0.0
O201 O 0.99322 0.5202 0.04641 0.0
O202 O 0.9657 0.50155 0.06507 0.0
O203 O 0.94828 0.47007 0.01261 0.0
O204 O 0.9639 0.50202 0.99881 0.0
C205 C 0.94884 0.48627 0.99734 0.0
O206 O 0.99182 0.44069 0.058 0.0
O207 O 0.9676 0.41228 0.06528 0.0
C208 C 0.01813 0.46031 0.02595 0.0
C209 C 0.98808 0.41946 0.0638 0.0
Zn210 Zn 0.01204 0.99407 0.49981 0.0
Zn211 Zn 0.05329 0.97106 0.43754 0.0
Zn212 Zn 0.0385 0.9748 0.47379 0.0
C213 C 0.05819 0.92847 0.46096 0.0
C214 C 0.01221 0.9505 0.43489 0.0
O215 O 0.02643 0.00261 0.453 0.0
O216 O 0.00228 0.01911 0.47692 0.0
C217 C 0.05805 0.99278 0.51957 0.0
O218 O 0.03994 0.93691 0.47052 0.0
O219 O 0.06901 0.9407 0.44637 0.0
O220 O 0.02131 0.96677 0.42331 0.0
O221 O 0.01896 0.94731 0.45591 0.0
O222 O 0.03765 0.99986 0.52268 0.0
O223 O 0.06327 0.98216 0.5009 0.0
O224 O 0.01524 0.9455 0.48241 0.0
O225 O 0.99262 0.96567 0.50565 0.0
C226 C 0.9979 0.94662 0.4964 0.0
O227 O 0.07582 0.97921 0.47489 0.0
O228 O 0.07295 0.99953 0.44307 0.0
C229 C 0.0121 0.01858 0.45736 0.0
C230 C 0.08531 0.99231 0.45966 0.0
Zn231 Zn 0.95674 0.5667 0.43286 0.0
Zn232 Zn 0.99715 0.50942 0.48132 0.0
Zn233 Zn 0.97342 0.53785 0.45624 0.0
C234 C 0.98164 0.48587 0.44118 0.0
C235 C 0.02773 0.5438 0.47101 0.0
O236 O 0.94597 0.55443 0.47737 0.0
O237 O 0.92672 0.56956 0.44826 0.0
C238 C 0.95073 0.52995 0.40636 0.0
O239 O 0.96944 0.50421 0.43882 0.0
O240 O 0.99646 0.48469 0.4572 0.0
O241 O 0.02602 0.5279 0.4858 0.0
O242 O 0.01045 0.54862 0.4578 0.0
O243 O 0.95548 0.55086 0.40263 0.0
O244 O 0.9553 0.52124 0.42636 0.0
O245 O 0.99894 0.56397 0.44259 0.0
O246 O 0.97717 0.59393 0.43445 0.0
C247 C 0.99693 0.58514 0.4359 0.0
O248 O 0.95683 0.53732 0.49118 0.0
O249 O 0.97439 0.50749 0.507 0.0
C250 C 0.92803 0.56484 0.46946 0.0
C251 C 0.95888 0.5227 0.50787 0.0
Zn252 Zn 0.43772 0.93493 0.55168 0.0
Zn253 Zn 0.49163 0.99076 0.51986 0.0
Zn254 Zn 0.46393 0.96287 0.53746 0.0
C255 C 0.45606 0.98711 0.48879 0.0
C256 C 0.47805 0.01138 0.56046 0.0
O257 O 0.48297 0.93298 0.55254 0.0
O258 O 0.4559 0.90629 0.55147 0.0
C259 C 0.41881 0.94062 0.51125 0.0
O260 O 0.45232 0.96934 0.50166 0.0
O261 O 0.47137 0.00161 0.49442 0.0
O262 O 0.49525 0.01134 0.54707 0.0
O263 O 0.46241 0.99557 0.55831 0.0
O264 O 0.41099 0.93529 0.53083 0.0
O265 O 0.43894 0.95025 0.50978 0.0
O266 O 0.44562 0.97944 0.56686 0.0
O267 O 0.43238 0.9475 0.58277 0.0
C268 C 0.43529 0.96902 0.58363 0.0
O269 O 0.49865 0.94668 0.53828 0.0
O270 O 0.51639 0.96832 0.51242 0.0
C271 C 0.47634 0.91202 0.5563 0.0
C272 C 0.51611 0.95057 0.52506 0.0
Zn273 Zn 0.51446 0.51578 0.52602 0.0
Zn274 Zn 0.56422 0.56249 0.57206 0.0
Zn275 Zn 0.54143 0.54078 0.5503 0.0
C276 C 0.55736 0.53156 0.60169 0.0
C277 C 0.59289 0.55549 0.54012 0.0
O278 O 0.50761 0.55893 0.5489 0.0
O279 O 0.48895 0.53857 0.52254 0.0
C280 C 0.52509 0.48991 0.56555 0.0
O281 O 0.55445 0.52228 0.5816 0.0
O282 O 0.55437 0.553 0.60365 0.0
O283 O 0.59508 0.55184 0.5615 0.0
O284 O 0.57261 0.55327 0.53109 0.0
O285 O 0.5109 0.49028 0.54895 0.0
O286 O 0.53926 0.50689 0.56836 0.0
O287 O 0.5586 0.53792 0.51617 0.0
O288 O 0.53657 0.51132 0.49992 0.0
C289 C 0.55432 0.52407 0.49928 0.0
O290 O 0.52367 0.57283 0.56218 0.0
O291 O 0.5552 0.59396 0.56213 0.0
C292 C 0.48979 0.5558 0.53592 0.0
C293 C 0.53358 0.59275 0.564 0.0
Zn294 Zn 0.51333 0.49583 0.98069 0.0
Zn295 Zn 0.55486 0.43463 0.93643 0.0
Zn296 Zn 0.53749 0.46471 0.95877 0.0
C297 C 0.58463 0.44156 0.97257 0.0
C298 C 0.51514 0.41481 0.94292 0.0
O299 O 0.53801 0.49642 0.93719 0.0
O300 O 0.51188 0.51787 0.95474 0.0
C301 C 0.55267 0.48612 0.00786 0.0
O302 O 0.56689 0.45255 0.98005 0.0
O303 O 0.58482 0.43391 0.95219 0.0
O304 O 0.53515 0.40713 0.93964 0.0
O305 O 0.51259 0.43603 0.9493 0.0
O306 O 0.53662 0.50065 0.00573 0.0
O307 O 0.55513 0.47003 0.99264 0.0
O308 O 0.50211 0.45126 0.96521 0.0
O309 O 0.48507 0.47745 0.98707 0.0
C310 C 0.48464 0.45804 0.97717 0.0
O311 O 0.55287 0.47951 0.92631 0.0
O312 O 0.55609 0.44807 0.9052 0.0
C313 C 0.52545 0.51467 0.93801 0.0
C314 C 0.55833 0.46962 0.90706 0.0
Zn315 Zn 0.48329 0.01511 0.00153 0.0
Zn316 Zn 0.44609 0.06699 0.94329 0.0
Zn317 Zn 0.46256 0.04311 0.97129 0.0
C318 C 0.48338 0.09094 0.95122 0.0
C319 C 0.44894 0.02911 0.91919 0.0
O320 O 0.4415 0.0438 0.00348 0.0
O321 O 0.4611 0.02106 0.02708 0.0
C322 C 0.51477 0.05033 0.98991 0.0
O323 O 0.48731 0.07077 0.95979 0.0
O324 O 0.46297 0.09647 0.94633 0.0
O325 O 0.45147 0.05009 0.9141 0.0
O326 O 0.45122 0.02278 0.94045 0.0
O327 O 0.51337 0.03201 0.00166 0.0
O328 O 0.49755 0.05698 0.97753 0.0
O329 O 0.46418 0.00829 0.95596 0.0
O330 O 0.48024 0.98633 0.98271 0.0
C331 C 0.47165 0.98855 0.96275 0.0
O332 O 0.43124 0.05883 0.98679 0.0
O333 O 0.41378 0.06696 0.95406 0.0
C334 C 0.44405 0.034 0.02331 0.0
C335 C 0.41328 0.06597 0.97582 0.0
C336 C 0.97808 0.18864 0.33399 0.0
C337 C 0.99728 0.19417 0.32018 0.0
C338 C 0.97864 0.16959 0.34886 0.0
C339 C 0.00618 0.11348 0.35631 0.0
H340 H 0.98854 0.11884 0.42071 0.0
C341 C 0.02343 0.0404 0.42171 0.0
C342 C 0.00816 0.03725 0.44031 0.0
C343 C 0.02093 0.0591 0.40667 0.0
C344 C 0.99312 0.11685 0.40268 0.0
H345 H 0.03213 0.18404 0.31121 0.0
H346 H 0.0329 0.15064 0.33686 0.0
H347 H 0.98625 0.15247 0.3955 0.0
H348 H 0.97772 0.05082 0.45717 0.0
H349 H 0.97276 0.08289 0.43043 0.0
H350 H 0.01258 0.07786 0.36311 0.0
C351 C 0.01747 0.16109 0.33622 0.0
C352 C 0.99191 0.13621 0.38828 0.0
C353 C 0.01706 0.18031 0.32166 0.0
C354 C 0.98989 0.05285 0.4431 0.0
C355 C 0.98718 0.07138 0.42785 0.0
C356 C 0.00707 0.09404 0.37058 0.0
C357 C 0.99825 0.15547 0.34991 0.0
C358 C 0.99867 0.13477 0.36502 0.0
C359 C 0.00286 0.07498 0.4096 0.0
C360 C 0.0008 0.09548 0.39406 0.0
H361 H 0.96258 0.19898 0.33326 0.0
H362 H 0.96354 0.16559 0.35917 0.0
H363 H 0.01119 0.11181 0.33834 0.0
H364 H 0.0378 0.02881 0.41915 0.0
H365 H 0.03362 0.0614 0.39314 0.0
C366 C 0.94906 0.31283 0.3204 0.0
C367 C 0.96951 0.30016 0.31759 0.0
C368 C 0.9488 0.3328 0.33403 0.0
C369 C 0.98037 0.36252 0.38087 0.0
H370 H 0.95149 0.41792 0.35722 0.0
C371 C 0.99743 0.45039 0.42288 0.0
C372 C 0.979 0.46583 0.42546 0.0
C373 C 0.995 0.43049 0.40952 0.0
C374 C 0.95936 0.40253 0.36423 0.0
H375 H 0.00563 0.29839 0.32726 0.0
H376 H 0.00511 0.33306 0.35111 0.0
H377 H 0.94932 0.38212 0.33491 0.0
H378 H 0.94359 0.47244 0.41598 0.0
H379 H 0.93916 0.43751 0.39249 0.0
H380 H 0.99039 0.3827 0.41016 0.0
C381 C 0.98925 0.32752 0.34283 0.0
C382 C 0.95812 0.38202 0.35144 0.0
C383 C 0.98957 0.30769 0.32907 0.0
C384 C 0.95817 0.46111 0.41395 0.0
C385 C 0.95566 0.44103 0.40059 0.0
C386 C 0.9815 0.38292 0.39368 0.0
C387 C 0.96891 0.34041 0.34534 0.0
C388 C 0.96892 0.36187 0.35948 0.0
C389 C 0.97398 0.4253 0.39852 0.0
C390 C 0.97136 0.40331 0.38536 0.0
H391 H 0.93331 0.30755 0.31176 0.0
H392 H 0.93281 0.34223 0.33581 0.0
H393 H 0.98847 0.34719 0.38776 0.0
H394 H 0.01383 0.45361 0.43131 0.0
H395 H 0.00968 0.41912 0.40786 0.0
C396 C 0.04358 0.82044 0.17981 0.0
C397 C 0.02231 0.80985 0.18497 0.0
C398 C 0.04444 0.84061 0.16656 0.0
C399 C 0.01076 0.87472 0.12474 0.0
H400 H 0.04959 0.92573 0.14461 0.0
C401 C 0.00173 0.96384 0.08353 0.0
C402 C 0.02201 0.97592 0.07794 0.0
C403 C 0.0025 0.94436 0.09762 0.0
C404 C 0.03885 0.91156 0.13869 0.0
H405 H 0.98529 0.81203 0.17994 0.0
H406 H 0.98681 0.84711 0.15683 0.0
H407 H 0.04986 0.88953 0.1663 0.0
H408 H 0.05895 0.9771 0.08263 0.0
H409 H 0.06048 0.943 0.10753 0.0
H410 H 0.9998 0.89651 0.09712 0.0
C411 C 0.00285 0.83975 0.16291 0.0
C412 C 0.03902 0.89082 0.1511 0.0
C413 C 0.00197 0.81967 0.17624 0.0
C414 C 0.04304 0.96854 0.0873 0.0
C415 C 0.04388 0.94888 0.10137 0.0
C416 C 0.01065 0.89536 0.11233 0.0
C417 C 0.02407 0.85056 0.15806 0.0
C418 C 0.02478 0.87225 0.14438 0.0
C419 C 0.02364 0.93626 0.10624 0.0
C420 C 0.02447 0.91415 0.11929 0.0
H421 H 0.05958 0.81335 0.18628 0.0
H422 H 0.06107 0.84839 0.1629 0.0
H423 H 0.99994 0.86061 0.11884 0.0
H424 H 0.98524 0.96922 0.07658 0.0
H425 H 0.98651 0.9354 0.10145 0.0
C426 C 0.96418 0.69414 0.18393 0.0
C427 C 0.98579 0.70522 0.18547 0.0
C428 C 0.96139 0.67427 0.17042 0.0
C429 C 0.98776 0.64206 0.12224 0.0
H430 H 0.95657 0.58876 0.14838 0.0
C431 C 0.99802 0.55295 0.08181 0.0
C432 C 0.97843 0.53878 0.07944 0.0
C433 C 0.99729 0.57292 0.09519 0.0
C434 C 0.96505 0.60358 0.14072 0.0
H435 H 0.02127 0.70432 0.17362 0.0
H436 H 0.01637 0.66984 0.15003 0.0
H437 H 0.95789 0.62503 0.17007 0.0
H438 H 0.94281 0.53427 0.08963 0.0
H439 H 0.94142 0.56939 0.11325 0.0
H440 H 0.99504 0.6208 0.09299 0.0
C441 C 0.00155 0.67655 0.15918 0.0
C442 C 0.9658 0.62435 0.15313 0.0
C443 C 0.00438 0.69628 0.17279 0.0
C444 C 0.95824 0.54465 0.09144 0.0
C445 C 0.95745 0.56482 0.10486 0.0
C446 C 0.98694 0.62141 0.10985 0.0
C447 C 0.98009 0.66518 0.158 0.0
C448 C 0.97755 0.64368 0.14418 0.0
C449 C 0.97687 0.57944 0.10644 0.0
C450 C 0.976 0.60177 0.11912 0.0
H451 H 0.9495 0.70054 0.19352 0.0
H452 H 0.9446 0.66602 0.16968 0.0
H453 H 0.99652 0.65677 0.11466 0.0
H454 H 0.01396 0.54877 0.07301 0.0
H455 H 0.01275 0.58341 0.09652 0.0
C456 C 0.3404 0.00975 0.20391 0.0
C457 C 0.32263 0.9932 0.20473 0.0
C458 C 0.35295 0.01335 0.18363 0.0
C459 C 0.34839 0.01217 0.12145 0.0
H460 H 0.41522 0.0128 0.12236 0.0
C461 C 0.40445 0.02689 0.03881 0.0
C462 C 0.4267 0.03608 0.0418 0.0
C463 C 0.39034 0.02255 0.05806 0.0
C464 C 0.39656 0.01323 0.12177 0.0
H465 H 0.30404 0.96737 0.18499 0.0
H466 H 0.32579 0.97413 0.14898 0.0
H467 H 0.39408 0.00182 0.15693 0.0
H468 H 0.45105 0.04958 0.06674 0.0
H469 H 0.42601 0.04379 0.10002 0.0
H470 H 0.35075 0.02449 0.08659 0.0
C471 C 0.33011 0.98403 0.16429 0.0
C472 C 0.38447 0.0066 0.1416 0.0
C473 C 0.31787 0.98 0.18488 0.0
C474 C 0.4339 0.04254 0.06402 0.0
C475 C 0.41966 0.03876 0.08314 0.0
C476 C 0.3605 0.01923 0.10164 0.0
C477 C 0.34767 0.00088 0.16347 0.0
C478 C 0.36029 0.00612 0.14172 0.0
C479 C 0.39812 0.02764 0.08064 0.0
C480 C 0.38482 0.02009 0.10157 0.0
H481 H 0.34434 0.02024 0.21893 0.0
H482 H 0.36631 0.02649 0.18347 0.0
H483 H 0.3297 0.01218 0.12117 0.0
H484 H 0.39871 0.0214 0.02183 0.0
H485 H 0.37396 0.01393 0.05528 0.0
C486 C 0.66397 0.48922 0.18914 0.0
C487 C 0.66994 0.51132 0.19739 0.0
C488 C 0.65164 0.4865 0.16853 0.0
C489 C 0.61284 0.51638 0.12819 0.0
H490 H 0.63322 0.47017 0.08426 0.0
C491 C 0.5724 0.51038 0.03757 0.0
C492 C 0.56845 0.48845 0.02794 0.0
C493 C 0.5856 0.51299 0.05761 0.0
C494 C 0.62708 0.48295 0.09642 0.0
H495 H 0.6671 0.54795 0.19049 0.0
H496 H 0.64523 0.54319 0.15453 0.0
H497 H 0.65396 0.47528 0.12067 0.0
H498 H 0.57527 0.45206 0.03181 0.0
H499 H 0.59825 0.45642 0.06712 0.0
H500 H 0.58573 0.52382 0.10433 0.0
C501 C 0.6502 0.52796 0.16412 0.0
C502 C 0.63902 0.48592 0.1173 0.0
C503 C 0.66275 0.53069 0.1847 0.0
C504 C 0.57843 0.46917 0.03858 0.0
C505 C 0.59152 0.47174 0.05887 0.0
C506 C 0.60079 0.51329 0.10744 0.0
C507 C 0.64475 0.5058 0.15565 0.0
C508 C 0.63209 0.50272 0.13341 0.0
C509 C 0.595 0.4937 0.06886 0.0
C510 C 0.60779 0.49662 0.09116 0.0
H511 H 0.66919 0.47387 0.19839 0.0
H512 H 0.64745 0.46922 0.16269 0.0
H513 H 0.60683 0.52922 0.14037 0.0
H514 H 0.56513 0.52564 0.02966 0.0
H515 H 0.58835 0.53023 0.06433 0.0
C516 C 0.33812 0.03992 0.31993 0.0
C517 C 0.33356 0.02041 0.30621 0.0
C518 C 0.35364 0.03854 0.3385 0.0
C519 C 0.39889 1.00066 0.36446 0.0
H520 H 0.37952 0.02887 0.42201 0.0
C521 C 0.43474 0.97341 0.45362 0.0
C522 C 0.44207 0.99151 0.46798 0.0
C523 C 0.42234 0.97807 0.43339 0.0
C524 C 0.3852 0.02103 0.406 0.0
H525 H 0.34265 0.98455 0.30047 0.0
H526 H 0.36894 0.98205 0.33272 0.0
H527 H 0.35774 0.03623 0.38667 0.0
H528 H 0.44209 0.0286 0.47278 0.0
H529 H 0.42017 0.03673 0.43767 0.0
H530 H 0.42587 0.98482 0.38409 0.0
C531 C 0.36095 0.99853 0.3292 0.0
C532 C 0.37286 0.02538 0.3857 0.0
C533 C 0.34563 0.99993 0.31072 0.0
C534 C 0.43661 0.01431 0.46196 0.0
C535 C 0.42398 0.01897 0.44198 0.0
C536 C 0.41103 0.99608 0.3848 0.0
C537 C 0.36485 0.01764 0.34364 0.0
C538 C 0.37938 0.01502 0.36471 0.0
C539 C 0.41689 0.00092 0.42739 0.0
C540 C 0.40417 0.00604 0.40579 0.0
H541 H 0.32913 0.05596 0.31687 0.0
H542 H 0.35652 0.05371 0.34907 0.0
H543 H 0.40472 0.99275 0.34855 0.0
H544 H 0.43921 0.95579 0.45764 0.0
H545 H 0.41699 0.96384 0.42245 0.0
C546 C 0.66129 0.47998 0.32153 0.0
C547 C 0.67074 0.49901 0.30979 0.0
C548 C 0.64919 0.48305 0.3423 0.0
C549 C 0.621 0.52845 0.37871 0.0
H550 H 0.62618 0.48204 0.42661 0.0
C551 C 0.58398 0.54038 0.47168 0.0
C552 C 0.57007 0.52193 0.47919 0.0
C553 C 0.59751 0.53819 0.45166 0.0
C554 C 0.62457 0.49515 0.41338 0.0
H555 H 0.67487 0.53624 0.31083 0.0
H556 H 0.65457 0.54148 0.34704 0.0
H557 H 0.64653 0.47681 0.39013 0.0
H558 H 0.56007 0.48651 0.47204 0.0
H559 H 0.58384 0.48263 0.43764 0.0
H560 H 0.59928 0.54689 0.40232 0.0
C561 C 0.65583 0.5242 0.34006 0.0
C562 C 0.63608 0.49207 0.39234 0.0
C563 C 0.66764 0.52116 0.31923 0.0
C564 C 0.5705 0.50112 0.46668 0.0
C565 C 0.58424 0.49881 0.44703 0.0
C566 C 0.60974 0.53165 0.39989 0.0
C567 C 0.64648 0.50521 0.352 0.0
C568 C 0.63431 0.50857 0.37458 0.0
C569 C 0.59772 0.51736 0.43911 0.0
C570 C 0.6112 0.51492 0.41736 0.0
H571 H 0.66331 0.46269 0.31474 0.0
H572 H 0.6419 0.46801 0.3507 0.0
H573 H 0.61884 0.5414 0.36542 0.0
H574 H 0.58386 0.55665 0.48084 0.0
H575 H 0.60781 0.55276 0.44599 0.0
C576 C 0.18929 0.34471 0.97754 0.0
C577 C 0.20046 0.33546 0.99701 0.0
C578 C 0.16954 0.35833 0.98016 0.0
C579 C 0.12243 0.37027 0.02159 0.0
H580 H 0.11423 0.4262 0.98593 0.0
C581 C 0.04988 0.43552 0.04162 0.0
C582 C 0.0387 0.44568 0.02274 0.0
C583 C 0.06948 0.4219 0.03828 0.0
C584 C 0.11609 0.41048 0.99584 0.0
H585 H 0.19977 0.3337 0.03452 0.0
H586 H 0.1657 0.35742 0.03899 0.0
H587 H 0.14855 0.40277 0.97996 0.0
H588 H 0.0393 0.44984 0.98552 0.0
H589 H 0.07327 0.42597 0.97955 0.0
H590 H 0.08999 0.3779 0.03745 0.0
C591 C 0.17192 0.3539 0.0217 0.0
C592 C 0.13579 0.39705 0.9924 0.0
C593 C 0.1916 0.3404 0.0191 0.0
C594 C 0.04761 0.44221 1.00043 0.0
C595 C 0.06714 0.42861 0.99704 0.0
C596 C 0.10272 0.38366 0.025 0.0
C597 C 0.16052 0.3629 0.00229 0.0
C598 C 0.13925 0.37685 0.00532 0.0
C599 C 0.07836 0.41828 0.01591 0.0
C600 C 0.09933 0.40398 0.01222 0.0
H601 H 0.19564 0.34122 0.96029 0.0
H602 H 0.16107 0.36491 0.96485 0.0
H603 H 0.12437 0.35461 0.03158 0.0
H604 H 0.04392 0.43875 0.05899 0.0
H605 H 0.07795 0.41462 0.05327 0.0
C606 C 0.19978 0.66537 0.49053 0.0
C607 C 0.2109 0.67269 0.47018 0.0
C608 C 0.18066 0.65065 0.48954 0.0
C609 C 0.14904 0.60904 0.45276 0.0
H610 H 0.09777 0.62492 0.49268 0.0
C611 C 0.06046 0.56149 0.44892 0.0
C612 C 0.04912 0.55769 0.46998 0.0
C613 C 0.08036 0.57529 0.44798 0.0
C614 C 0.112 0.62003 0.48162 0.0
H615 H 0.21096 0.66955 0.43281 0.0
H616 H 0.17744 0.64369 0.43112 0.0
H617 H 0.13236 0.64885 0.49272 0.0
H618 H 0.05021 0.56409 0.50681 0.0
H619 H 0.08521 0.58769 0.50546 0.0
H620 H 0.12867 0.58004 0.44182 0.0
C621 C 0.18366 0.64939 0.44784 0.0
C622 C 0.13186 0.63379 0.48162 0.0
C623 C 0.20284 0.66424 0.44882 0.0
C624 C 0.05849 0.56709 0.49028 0.0
C625 C 0.07841 0.58077 0.48943 0.0
C626 C 0.12914 0.59516 0.45282 0.0
C627 C 0.17208 0.64279 0.4682 0.0
C628 C 0.15072 0.62837 0.46738 0.0
C629 C 0.08949 0.58529 0.46823 0.0
C630 C 0.11044 0.60036 0.46743 0.0
H631 H 0.20555 0.67136 0.50731 0.0
H632 H 0.17246 0.64555 0.50558 0.0
H633 H 0.16331 0.60431 0.4417 0.0
H634 H 0.05415 0.55343 0.43328 0.0
H635 H 0.0884 0.5783 0.43136 0.0
C636 C 0.82757 0.83134 0.54906 0.0
C637 C 0.81316 0.827 0.52994 0.0
C638 C 0.84846 0.84345 0.54629 0.0
C639 C 0.87908 0.88266 0.50537 0.0
H640 H 0.93439 0.8621 0.53677 0.0
C641 C 0.96752 0.9203 0.48109 0.0
C642 C 0.98171 0.92717 0.4995 0.0
C643 C 0.94834 0.90607 0.48499 0.0
C644 C 0.91907 0.86813 0.52797 0.0
H645 H 0.80941 0.83235 0.49297 0.0
H646 H 0.84548 0.85302 0.4882 0.0
H647 H 0.89759 0.84257 0.54416 0.0
H648 H 0.9871 0.92472 0.53641 0.0
H649 H 0.95366 0.89968 0.54335 0.0
H650 H 0.90039 0.90812 0.48915 0.0
C651 C 0.84068 0.84743 0.5054 0.0
C652 C 0.89794 0.85701 0.53229 0.0
C653 C 0.81995 0.8354 0.50815 0.0
C654 C 0.97676 0.91907 0.52183 0.0
C655 C 0.95758 0.90479 0.52578 0.0
C656 C 0.90013 0.89366 0.50101 0.0
C657 C 0.85532 0.85156 0.52436 0.0
C658 C 0.87768 0.86403 0.5209 0.0
C659 C 0.94271 0.8987 0.5075 0.0
C660 C 0.92046 0.88647 0.51209 0.0
H661 H 0.82292 0.82506 0.56607 0.0
H662 H 0.85919 0.84651 0.56132 0.0
H663 H 0.86381 0.8889 0.49664 0.0
H664 H 0.9702 0.92732 0.464 0.0
H665 H 0.93736 0.90161 0.47047 0.0
C666 C 0.31938 0.6841 0.53637 0.0
C667 C 0.30987 0.68496 0.51399 0.0
C668 C 0.33952 0.67143 0.5407 0.0
C669 C 0.38992 0.64664 0.50979 0.0
H670 H 0.39783 0.60955 0.56496 0.0
C671 C 0.45737 0.57489 0.51511 0.0
C672 C 0.47053 0.57257 0.53539 0.0
C673 C 0.4389 0.59021 0.51415 0.0
C674 C 0.396 0.62009 0.54962 0.0
H675 H 0.31373 0.67245 0.47883 0.0
H676 H 0.34826 0.65024 0.48641 0.0
H677 H 0.36297 0.63282 0.56031 0.0
H678 H 0.47408 0.58401 0.57079 0.0
H679 H 0.44165 0.61111 0.56918 0.0
H680 H 0.42259 0.63357 0.49882 0.0
C681 C 0.34062 0.65976 0.50056 0.0
C682 C 0.37602 0.63342 0.54694 0.0
C683 C 0.32064 0.67241 0.49624 0.0
C684 C 0.46462 0.58586 0.55481 0.0
C685 C 0.44588 0.60111 0.55395 0.0
C686 C 0.40973 0.63328 0.51241 0.0
C687 C 0.35058 0.65935 0.52274 0.0
C688 C 0.37252 0.64651 0.52674 0.0
C689 C 0.43287 0.60352 0.53353 0.0
C690 C 0.41284 0.61948 0.53213 0.0
H691 H 0.31155 0.69359 0.55044 0.0
H692 H 0.34673 0.67158 0.55797 0.0
H693 H 0.38817 0.65697 0.4943 0.0
H694 H 0.46141 0.56488 0.49982 0.0
H695 H 0.42906 0.59135 0.49827 0.0
C696 C 0.52693 0.69508 0.82917 0.0
C697 C 0.50437 0.70277 0.82472 0.0
C698 C 0.53077 0.67351 0.83916 0.0
C699 C 0.50268 0.61681 0.8486 0.0
H700 H 0.54989 0.60929 0.89552 0.0
C701 C 0.50425 0.5411 0.91216 0.0
C702 C 0.52544 0.53189 0.91928 0.0
C703 C 0.50351 0.55994 0.89726 0.0
C704 C 0.53696 0.61099 0.88211 0.0
H705 H 0.46812 0.69389 0.82776 0.0
H706 H 0.4748 0.65635 0.8456 0.0
H707 H 0.54442 0.64689 0.87748 0.0
H708 H 0.56249 0.53476 0.9161 0.0
H709 H 0.56133 0.56799 0.88974 0.0
H710 H 0.49484 0.58104 0.85369 0.0
C711 C 0.48956 0.66689 0.84094 0.0
C712 C 0.53374 0.63258 0.87182 0.0
C713 C 0.48571 0.6885 0.83091 0.0
C714 C 0.54597 0.5413 0.91049 0.0
C715 C 0.54526 0.56046 0.89569 0.0
C716 C 0.50587 0.59526 0.85892 0.0
C717 C 0.51216 0.65904 0.845 0.0
C718 C 0.5163 0.63584 0.85521 0.0
C719 C 0.52398 0.57025 0.88929 0.0
C720 C 0.52277 0.5922 0.87608 0.0
H721 H 0.54175 0.70556 0.82456 0.0
H722 H 0.54839 0.66796 0.84182 0.0
H723 H 0.48946 0.61857 0.83549 0.0
H724 H 0.48816 0.53417 0.91879 0.0
H725 H 0.48685 0.56717 0.89295 0.0
C726 C 0.53096 0.83312 0.83271 0.0
C727 C 0.52035 0.81177 0.83712 0.0
C728 C 0.52608 0.85227 0.84664 0.0
C729 C 0.48103 0.87247 0.88817 0.0
H730 H 0.52342 0.92366 0.89702 0.0
C731 C 0.47018 0.94619 0.95522 0.0
C732 C 0.47258 0.96876 0.94671 0.0
C733 C 0.47459 0.92725 0.94097 0.0
C734 C 0.51138 0.90952 0.89448 0.0
H735 H 0.49776 0.79313 0.86035 0.0
H736 H 0.49054 0.82588 0.88562 0.0
H737 H 0.53609 0.88957 0.87583 0.0
H738 H 0.48132 0.98926 0.91662 0.0
H739 H 0.48949 0.95601 0.89176 0.0
H740 H 0.45674 0.89224 0.90783 0.0
C741 C 0.50168 0.82839 0.87081 0.0
C742 C 0.51858 0.88997 0.88229 0.0
C743 C 0.50609 0.80947 0.85656 0.0
C744 C 0.4789 0.97205 0.92349 0.0
C745 C 0.48384 0.95308 0.90937 0.0
C746 C 0.47404 0.8918 0.90076 0.0
C747 C 0.51084 0.85032 0.86554 0.0
C748 C 0.50351 0.87111 0.87895 0.0
C749 C 0.48205 0.93054 0.91812 0.0
C750 C 0.48912 0.9105 0.90398 0.0
H751 H 0.54175 0.83542 0.81758 0.0
H752 H 0.53337 0.8688 0.84179 0.0
H753 H 0.4686 0.85873 0.88548 0.0
H754 H 0.46546 0.94321 0.9731 0.0
H755 H 0.47317 0.91002 0.94811 0.0
C756 C 0.4958 0.31177 0.67662 0.0
C757 C 0.51519 0.30247 0.68778 0.0
C758 C 0.49779 0.33184 0.66326 0.0
C759 C 0.53396 0.38388 0.65553 0.0
H760 H 0.50251 0.38825 0.59657 0.0
C761 C 0.54431 0.46306 0.59402 0.0
C762 C 0.52475 0.46973 0.58137 0.0
C763 C 0.54397 0.44282 0.60737 0.0
C764 C 0.51117 0.38751 0.61315 0.0
H765 H 0.55197 0.30699 0.69343 0.0
H766 H 0.55535 0.34196 0.6702 0.0
H767 H 0.50017 0.35262 0.61867 0.0
H768 H 0.48918 0.46085 0.57363 0.0
H769 H 0.48834 0.42626 0.59716 0.0
H770 H 0.54464 0.41893 0.65019 0.0
C771 C 0.53859 0.33379 0.67187 0.0
C772 C 0.50986 0.36699 0.62579 0.0
C773 C 0.53666 0.31362 0.68505 0.0
C774 C 0.50467 0.4561 0.58292 0.0
C775 C 0.50425 0.43609 0.59633 0.0
C776 C 0.53513 0.40452 0.64294 0.0
C777 C 0.51917 0.34322 0.66089 0.0
C778 C 0.52111 0.36494 0.6472 0.0
C779 C 0.52398 0.42887 0.60843 0.0
C780 C 0.52357 0.4067 0.62164 0.0
H781 H 0.479 0.3037 0.67838 0.0
H782 H 0.48244 0.33875 0.65519 0.0
H783 H 0.54266 0.38294 0.67208 0.0
H784 H 0.5601 0.47298 0.59293 0.0
H785 H 0.55957 0.43777 0.61628 0.0
C786 C 0.50112 0.18469 0.67907 0.0
C787 C 0.48123 0.19529 0.68792 0.0
C788 C 0.49941 0.16475 0.66548 0.0
C789 C 0.46037 0.11562 0.65165 0.0
H790 H 0.50128 0.10838 0.59923 0.0
C791 C 0.45531 0.03849 0.58598 0.0
C792 C 0.47654 0.03007 0.57798 0.0
C793 C 0.45452 0.0582 0.60018 0.0
C794 C 0.48987 0.10997 0.61396 0.0
H795 H 0.44386 0.19318 0.68918 0.0
H796 H 0.4409 0.15855 0.66531 0.0
H797 H 0.50256 0.14381 0.62171 0.0
H798 H 0.51364 0.03493 0.57967 0.0
H799 H 0.51231 0.06868 0.60445 0.0
H800 H 0.44774 0.0816 0.64377 0.0
C801 C 0.45786 0.16552 0.6691 0.0
C802 C 0.49062 0.13035 0.62688 0.0
C803 C 0.45957 0.18551 0.68266 0.0
C804 C 0.49694 0.04112 0.58527 0.0
C805 C 0.49618 0.06061 0.59939 0.0
C806 C 0.45961 0.09515 0.63867 0.0
C807 C 0.47776 0.15482 0.66038 0.0
C808 C 0.4761 0.13338 0.64608 0.0
C809 C 0.47499 0.06983 0.60656 0.0
C810 C 0.47461 0.09194 0.61985 0.0
H811 H 0.51809 0.19163 0.68285 0.0
H812 H 0.51514 0.15684 0.65934 0.0
H813 H 0.44904 0.11727 0.66643 0.0
H814 H 0.43933 0.03059 0.58037 0.0
H815 H 0.43788 0.06485 0.60535 0.0
C816 C 0.84386 0.48448 0.68168 0.0
C817 C 0.83636 0.5037 0.69438 0.0
C818 C 0.85653 0.48739 0.66122 0.0
C819 C 0.89057 0.5311 0.62769 0.0
H820 H 0.88002 0.48836 0.57717 0.0
C821 C 0.93204 0.54223 0.53623 0.0
C822 C 0.94266 0.52222 0.52773 0.0
C823 C 0.91782 0.54117 0.5559 0.0
C824 C 0.88318 0.50043 0.59113 0.0
H825 H 0.83651 0.54114 0.69545 0.0
H826 H 0.85799 0.54619 0.6598 0.0
H827 H 0.85849 0.48382 0.61305 0.0
H828 H 0.94624 0.48534 0.53287 0.0
H829 H 0.92148 0.48347 0.56667 0.0
H830 H 0.91518 0.54777 0.60548 0.0
C831 C 0.85459 0.5288 0.66576 0.0
C832 C 0.87096 0.49773 0.61182 0.0
C833 C 0.84212 0.52588 0.68626 0.0
C834 C 0.93839 0.50112 0.53899 0.0
C835 C 0.92404 0.5 0.5583 0.0
C836 C 0.90265 0.53392 0.60687 0.0
C837 C 0.86187 0.50963 0.65282 0.0
C838 C 0.87465 0.51284 0.63054 0.0
C839 C 0.9137 0.51998 0.56715 0.0
C840 C 0.89932 0.51843 0.58846 0.0
H841 H 0.83979 0.46715 0.68743 0.0
H842 H 0.86219 0.47217 0.65203 0.0
H843 H 0.89416 0.54295 0.64173 0.0
H844 H 0.93526 0.55874 0.52812 0.0
H845 H 0.91004 0.55687 0.5623 0.0
C846 C 0.18653 0.04783 0.68148 0.0
C847 C 0.17778 0.0364 0.70105 0.0
C848 C 0.17469 0.04669 0.66035 0.0
C849 C 0.11831 0.03641 0.6341 0.0
H850 H 0.15023 0.00614 0.58362 0.0
C851 C 0.06696 0.99505 0.5613 0.0
C852 C 0.07485 0.99654 0.53842 0.0
C853 C 0.08108 0.00152 0.57967 0.0
C854 C 0.14116 0.015 0.59733 0.0
H855 H 0.14948 0.0158 0.71427 0.0
H856 H 0.12825 0.01481 0.67775 0.0
H857 H 0.1715 0.01709 0.61864 0.0
H858 H 0.10408 0.00511 0.51676 0.0
H859 H 0.12898 0.01715 0.54916 0.0
H860 H 0.08806 0.0346 0.61315 0.0
C861 C 0.14436 0.02434 0.67861 0.0
C862 C 0.15335 0.02125 0.61737 0.0
C863 C 0.15644 0.02496 0.6995 0.0
C864 C 0.09765 0.00374 0.53429 0.0
C865 C 0.11182 0.01065 0.55284 0.0
C866 C 0.10624 0.03052 0.61404 0.0
C867 C 0.15366 0.03463 0.65869 0.0
C868 C 0.14184 0.03141 0.63617 0.0
C869 C 0.10342 0.01019 0.57574 0.0
C870 C 0.11728 0.01899 0.59569 0.0
H871 H 0.20317 0.05639 0.68216 0.0
H872 H 0.18216 0.05479 0.64521 0.0
H873 H 0.10911 0.04446 0.64825 0.0
H874 H 0.04956 0.9892 0.565 0.0
H875 H 0.07426 1.00001 0.59703 0.0
C876 C 0.84168 0.491 0.814 0.0
C877 C 0.83575 0.51348 0.80708 0.0
C878 C 0.85297 0.48712 0.83499 0.0
C879 C 0.86374 0.51439 0.89204 0.0
H880 H 0.91036 0.46699 0.89785 0.0
C881 C 0.92612 0.50914 0.96911 0.0
C882 C 0.93204 0.48744 0.97809 0.0
C883 C 0.91233 0.51098 0.94945 0.0
C884 C 0.8971 0.48002 0.8966 0.0
H885 H 0.83774 0.54959 0.81664 0.0
H886 H 0.85797 0.5429 0.85308 0.0
H887 H 0.89193 0.47361 0.8605 0.0
H888 H 0.92787 0.45061 0.97366 0.0
H889 H 0.90356 0.45374 0.93895 0.0
H890 H 0.86934 0.52114 0.92803 0.0
C891 C 0.85341 0.52818 0.84244 0.0
C892 C 0.88656 0.48389 0.87516 0.0
C893 C 0.842 0.53207 0.82143 0.0
C894 C 0.92331 0.46752 0.9673 0.0
C895 C 0.90965 0.46935 0.94731 0.0
C896 C 0.87436 0.5106 0.91342 0.0
C897 C 0.85876 0.50562 0.84965 0.0
C898 C 0.86988 0.50129 0.87254 0.0
C899 C 0.90424 0.49114 0.93804 0.0
C900 C 0.89134 0.49354 0.9159 0.0
H901 H 0.83707 0.47621 0.80348 0.0
H902 H 0.85653 0.46951 0.84001 0.0
H903 H 0.8506 0.52755 0.89087 0.0
H904 H 0.93256 0.52483 0.97708 0.0
H905 H 0.90874 0.528 0.94267 0.0
C906 C 0.16908 0.02987 0.81671 0.0
C907 C 0.17355 0.00766 0.80802 0.0
C908 C 0.15678 0.03282 0.83727 0.0
C909 C 0.14117 0.00223 0.89095 0.0
H910 H 0.09525 0.05026 0.89725 0.0
C911 C 0.07611 0.00389 0.96571 0.0
C912 C 0.06938 0.02514 0.97521 0.0
C913 C 0.09056 0.00303 0.94648 0.0
C914 C 0.1083 0.03702 0.89592 0.0
H915 H 0.16806 0.97112 0.81396 0.0
H916 H 0.14638 0.97627 0.84978 0.0
H917 H 0.11589 0.04581 0.86075 0.0
H918 H 0.07262 0.0622 0.97194 0.0
H919 H 0.09843 0.06078 0.93839 0.0
H920 H 0.13352 0.99332 0.92602 0.0
C921 C 0.1527 0.99141 0.84079 0.0
C922 C 0.12007 0.0344 0.87495 0.0
C923 C 0.16496 0.98846 0.82015 0.0
C924 C 0.07788 0.04559 0.9653 0.0
C925 C 0.09237 0.04475 0.94589 0.0
C926 C 0.12946 0.00488 0.91189 0.0
C927 C 0.14867 0.01364 0.84972 0.0
C928 C 0.13644 0.01679 0.87213 0.0
C929 C 0.09867 0.02341 0.93611 0.0
C930 C 0.11265 0.0221 0.91456 0.0
H931 H 0.17544 0.04508 0.80785 0.0
H932 H 0.15416 0.05016 0.84372 0.0
H933 H 0.15404 0.98882 0.88954 0.0
H934 H 0.06985 0.98779 0.97293 0.0
H935 H 0.09473 0.98632 0.93927 0.0
C936 C 0.69236 0.8385 0.48992 0.0
C937 C 0.70319 0.83038 0.51006 0.0
C938 C 0.67204 0.85149 0.49137 0.0
C939 C 0.63571 0.88447 0.53348 0.0
H940 H 0.58812 0.87555 0.48716 0.0
C941 C 0.54341 0.92194 0.54291 0.0
C942 C 0.53577 0.93443 0.52361 0.0
C943 C 0.56326 0.90825 0.54143 0.0
C944 C 0.60129 0.87823 0.50021 0.0
H945 H 0.70107 0.8297 0.54755 0.0
H946 H 0.66572 0.85149 0.55001 0.0
H947 H 0.62441 0.85466 0.48384 0.0
H948 H 0.54241 0.94181 0.48746 0.0
H949 H 0.57662 0.91772 0.4848 0.0
H950 H 0.61227 0.90773 0.55002 0.0
C951 C 0.67305 0.8485 0.53306 0.0
C952 C 0.6222 0.86641 0.49822 0.0
C953 C 0.69339 0.83581 0.53162 0.0
C954 C 0.54792 0.93243 0.50267 0.0
C955 C 0.56744 0.91852 0.50109 0.0
C956 C 0.61469 0.89604 0.53562 0.0
C957 C 0.66195 0.85645 0.51299 0.0
C958 C 0.63977 0.8694 0.51479 0.0
C959 C 0.57554 0.90653 0.5205 0.0
C960 C 0.5973 0.89313 0.51896 0.0
H961 H 0.69945 0.83465 0.47303 0.0
H962 H 0.66425 0.85761 0.47552 0.0
H963 H 0.6489 0.88765 0.54637 0.0
H964 H 0.5346 0.92342 0.55929 0.0
H965 H 0.56909 0.89912 0.55667 0.0
C966 C 0.68422 0.17126 0.03446 0.0
C967 C 0.69831 0.17514 0.01507 0.0
C968 C 0.66483 0.15679 0.03278 0.0
C969 C 0.61713 0.13836 0.01856 0.0
H970 H 0.62032 0.0818 0.98283 0.0
C971 C 0.53549 0.08841 0.98941 0.0
C972 C 0.53613 0.06429 0.99136 0.0
C973 C 0.55554 0.10158 0.99257 0.0
C974 C 0.61915 0.09745 0.99299 0.0
H975 H 0.70344 0.16636 0.97892 0.0
H976 H 0.66989 0.1414 0.97607 0.0
H977 H 0.65525 0.10439 0.98949 0.0
H978 H 0.55819 0.03501 0.99827 0.0
H979 H 0.59309 0.05792 0.00398 0.0
H980 H 0.58101 0.13127 0.0222 0.0
C981 C 0.67377 0.14934 0.99259 0.0
C982 C 0.63914 0.11049 0.99666 0.0
C983 C 0.69296 0.16381 0.99422 0.0
C984 C 0.55721 0.05358 0.99647 0.0
C985 C 0.57723 0.0667 0.99963 0.0
C986 C 0.59709 0.12532 0.01484 0.0
C987 C 0.65934 0.1458 0.01175 0.0
C988 C 0.63834 0.13119 0.00932 0.0
C989 C 0.57661 0.09087 0.99788 0.0
C990 C 0.59786 0.10477 0.0019 0.0
H991 H 0.68786 0.17977 0.05075 0.0
H992 H 0.65412 0.15423 0.04791 0.0
H993 H 0.61591 0.15433 0.0282 0.0
H994 H 0.51938 0.09719 0.98628 0.0
H995 H 0.55452 0.12016 0.99096 0.0
C996 C 0.32543 0.3292 0.03627 0.0
C997 C 0.30473 0.33622 0.02584 0.0
C998 C 0.3455 0.34254 0.03373 0.0
C999 C 0.36838 0.39968 0.02134 0.0
H1000 H 0.41661 0.36939 0.98637 0.0
C1001 C 0.44225 0.45266 0.98169 0.0
C1002 C 0.46433 0.44296 0.98057 0.0
C1003 C 0.42317 0.43914 0.98766 0.0
C1004 C 0.40361 0.37809 0.99652 0.0
H1005 H 0.28831 0.36303 0.00577 0.0
H1006 H 0.32307 0.38694 0.00241 0.0
H1007 H 0.38303 0.34731 0.9992 0.0
H1008 H 0.4839 0.41155 0.98475 0.0
H1009 H 0.45079 0.38796 0.99598 0.0
H1010 H 0.38888 0.43027 0.01939 0.0
C1011 C 0.32388 0.37103 0.01219 0.0
C1012 C 0.38434 0.36539 0.00382 0.0
C1013 C 0.30403 0.35742 0.01417 0.0
C1014 C 0.46696 0.41934 0.98507 0.0
C1015 C 0.44791 0.40585 0.99154 0.0
C1016 C 0.38783 0.41227 0.0145 0.0
C1017 C 0.34494 0.36334 0.02128 0.0
C1018 C 0.36642 0.37617 0.01597 0.0
C1019 C 0.42577 0.41566 0.99333 0.0
C1020 C 0.40555 0.4018 0.00157 0.0
H1021 H 0.32646 0.3127 0.04497 0.0
H1022 H 0.36158 0.33632 0.04088 0.0
H1023 H 0.35478 0.40832 0.03077 0.0
H1024 H 0.43978 0.47083 0.97817 0.0
H1025 H 0.4064 0.44725 0.98804 0.0
C1026 C 0.81315 0.16831 0.96847 0.0
C1027 C 0.80073 0.17364 0.98862 0.0
C1028 C 0.83167 0.15286 0.96936 0.0
C1029 C 0.85762 0.10739 0.00641 0.0
H1030 H 0.91465 0.12414 0.97557 0.0
C1031 C 0.94509 0.06775 0.03122 0.0
C1032 C 0.95982 0.06145 0.01316 0.0
C1033 C 0.92507 0.0803 0.02669 0.0
C1034 C 0.89876 0.1191 0.98406 0.0
H1035 H 0.79774 0.16653 0.02538 0.0
H1036 H 0.82985 0.14013 0.02692 0.0
H1037 H 0.88021 0.14752 0.96962 0.0
H1038 H 0.9652 0.06265 0.97613 0.0
H1039 H 0.93015 0.08463 0.96807 0.0
H1040 H 0.87631 0.07933 0.02131 0.0
C1041 C 0.82525 0.14751 0.01036 0.0
C1042 C 0.87901 0.13243 0.98059 0.0
C1043 C 0.80688 0.16285 0.00948 0.0
C1044 C 0.95411 0.06751 0.99038 0.0
C1045 C 0.93418 0.08019 0.9858 0.0
C1046 C 0.87736 0.09417 0.00998 0.0
C1047 C 0.838 0.14241 0.99039 0.0
C1048 C 0.85831 0.12695 0.99203 0.0
C1049 C 0.91944 0.0867 0.00391 0.0
C1050 C 0.89822 0.10008 0.99912 0.0
H1051 H 0.80884 0.17633 0.95213 0.0
H1052 H 0.84106 0.14913 0.95362 0.0
H1053 H 0.84184 0.10241 0.01513 0.0
H1054 H 0.94875 0.06244 0.04873 0.0
H1055 H 0.91408 0.08512 0.04102 0.0
C1056 C 0.97163 0.1866 0.2183 0.0
C1057 C 0.95515 0.20283 0.22534 0.0
C1058 C 0.96698 0.17151 0.20008 0.0
C1059 C 0.93358 0.16651 0.14694 0.0
H1060 H 0.95834 0.10456 0.14838 0.0
C1061 C 0.96612 0.08529 0.08595 0.0
C1062 C 0.97905 0.09881 0.07052 0.0
C1063 C 0.95217 0.09581 0.1026 0.0
C1064 C 0.95069 0.12154 0.14762 0.0
H1065 H 0.92065 0.21568 0.21897 0.0
H1066 H 0.91261 0.18929 0.18674 0.0
H1067 H 0.95587 0.12663 0.18388 0.0
H1068 H 0.98561 0.13355 0.05856 0.0
H1069 H 0.96174 0.15195 0.08758 0.0
H1070 H 0.92911 0.16165 0.11046 0.0
C1071 C 0.92911 0.18831 0.19548 0.0
C1072 C 0.94961 0.13434 0.16803 0.0
C1073 C 0.93369 0.20333 0.21396 0.0
C1074 C 0.97563 0.12275 0.07017 0.0
C1075 C 0.96188 0.13329 0.0869 0.0
C1076 C 0.93461 0.15365 0.12644 0.0
C1077 C 0.94578 0.1723 0.18829 0.0
C1078 C 0.94206 0.15731 0.16775 0.0
C1079 C 0.95132 0.12003 0.10435 0.0
C1080 C 0.94417 0.13137 0.12636 0.0
H1081 H 0.98831 0.18571 0.22669 0.0
H1082 H 0.98037 0.15968 0.19474 0.0
H1083 H 0.92759 0.18416 0.14617 0.0
H1084 H 0.96872 0.06681 0.08682 0.0
H1085 H 0.9438 0.08504 0.11541 0.0
C1086 C 0.9975 0.30503 0.21801 0.0
C1087 C 0.01325 0.28808 0.22501 0.0
C1088 C 0.00301 0.32026 0.20017 0.0
C1089 C 0.03709 0.32568 0.14775 0.0
H1090 H 0.01929 0.38983 0.15295 0.0
C1091 C 0.02022 0.41498 0.09173 0.0
C1092 C 0.00611 0.4052 0.07456 0.0
C1093 C 0.03068 0.40098 0.10836 0.0
C1094 C 0.02493 0.37214 0.15121 0.0
H1095 H 0.04723 0.27387 0.2188 0.0
H1096 H 0.05672 0.30042 0.18715 0.0
H1097 H 0.0182 0.36527 0.18692 0.0
H1098 H 0.99357 0.37314 0.05995 0.0
H1099 H 0.01157 0.34869 0.08894 0.0
H1100 H 0.0429 0.33239 0.11173 0.0
C1101 C 0.04017 0.3019 0.19568 0.0
C1102 C 0.024 0.35799 0.17069 0.0
C1103 C 0.03476 0.2868 0.21383 0.0
C1104 C 0.0046 0.38108 0.07287 0.0
C1105 C 0.01495 0.36707 0.08953 0.0
C1106 C 0.03791 0.33985 0.12815 0.0
C1107 C 0.02433 0.3188 0.18871 0.0
C1108 C 0.02928 0.33444 0.169 0.0
C1109 C 0.02689 0.37698 0.10829 0.0
C1110 C 0.03111 0.36309 0.12951 0.0
H1111 H 0.9808 0.30652 0.22627 0.0
H1112 H 0.99032 0.33289 0.19496 0.0
H1113 H 0.04126 0.30757 0.14596 0.0
H1114 H 0.02126 0.43353 0.0938 0.0
H1115 H 0.04011 0.40912 0.12236 0.0
C1116 C 0.00615 0.8092 0.29225 0.0
C1117 C 0.98665 0.79907 0.28187 0.0
C1118 C 0.00382 0.82369 0.31132 0.0
C1119 C 0.99575 0.8421 0.35924 0.0
H1120 H 0.95127 0.89181 0.359 0.0
C1121 C 0.99872 0.90968 0.43066 0.0
C1122 C 0.99897 0.93249 0.42246 0.0
C1123 C 0.99091 0.8917 0.41655 0.0
C1124 C 0.96371 0.87794 0.35938 0.0
H1125 H 0.94932 0.79648 0.28329 0.0
H1126 H 0.94528 0.82202 0.3168 0.0
H1127 H 0.95105 0.86348 0.32764 0.0
H1128 H 0.98981 0.95451 0.39365 0.0
H1129 H 0.9768 0.92316 0.36882 0.0
H1130 H 0.00934 0.85705 0.39009 0.0
C1131 C 0.96236 0.81867 0.31003 0.0
C1132 C 0.96345 0.86162 0.34152 0.0
C1133 C 0.96469 0.80402 0.2909 0.0
C1134 C 0.98981 0.93711 0.40046 0.0
C1135 C 0.98219 0.91911 0.38627 0.0
C1136 C 0.99604 0.85836 0.37701 0.0
C1137 C 0.98195 0.82848 0.32056 0.0
C1138 C 0.97995 0.84394 0.34092 0.0
C1139 C 0.98353 0.89609 0.3938 0.0
C1140 C 0.98043 0.87685 0.37701 0.0
H1141 H 0.02332 0.80587 0.28572 0.0
H1142 H 0.01923 0.83136 0.31873 0.0
H1143 H 0.00843 0.82844 0.35948 0.0
H1144 H 0.00582 0.90551 0.44747 0.0
H1145 H 0.99176 0.87421 0.42306 0.0
C1146 C 0.01959 0.69463 0.28166 0.0
C1147 C 0.03624 0.71089 0.27479 0.0
C1148 C 0.02436 0.67894 0.29923 0.0
C1149 C 0.05763 0.67209 0.35166 0.0
H1150 H 0.03474 0.60934 0.34678 0.0
C1151 C 0.02945 0.58598 0.40814 0.0
C1152 C 0.01619 0.59749 0.42478 0.0
C1153 C 0.04221 0.59845 0.39189 0.0
C1154 C 0.04185 0.62657 0.34848 0.0
H1155 H 0.0711 0.72332 0.28076 0.0
H1156 H 0.07931 0.69592 0.31202 0.0
H1157 H 0.03686 0.63324 0.31247 0.0
H1158 H 0.00698 0.6309 0.43852 0.0
H1159 H 0.02861 0.65278 0.40982 0.0
H1160 H 0.0617 0.66567 0.38794 0.0
C1161 C 0.06264 0.69534 0.30357 0.0
C1162 C 0.04277 0.64036 0.32877 0.0
C1163 C 0.05796 0.71091 0.28566 0.0
C1164 C 0.01736 0.62164 0.42605 0.0
C1165 C 0.02986 0.63415 0.4096 0.0
C1166 C 0.05667 0.65826 0.37148 0.0
C1167 C 0.04583 0.67925 0.31053 0.0
C1168 C 0.04973 0.66352 0.33032 0.0
C1169 C 0.04132 0.62269 0.39151 0.0
C1170 C 0.04788 0.63562 0.37026 0.0
H1171 H 0.00271 0.69414 0.2736 0.0
H1172 H 0.01094 0.66697 0.30446 0.0
H1173 H 0.06309 0.68992 0.35333 0.0
H1174 H 0.02814 0.56744 0.4062 0.0
H1175 H 0.05114 0.58908 0.37842 0.0
C1176 C 0.22466 0.00947 0.20402 0.0
C1177 C 0.22757 0.02553 0.22201 0.0
C1178 C 0.20463 0.00929 0.19074 0.0
C1179 C 0.14369 0.02304 0.19281 0.0
H1180 H 0.14734 0.01991 0.12595 0.0
C1181 C 0.06661 0.03893 0.13218 0.0
C1182 C 0.0671 0.02969 0.10974 0.0
C1183 C 0.08427 0.03415 0.14784 0.0
C1184 C 0.14592 0.02018 0.14462 0.0
H1185 H 0.21202 0.05425 0.24006 0.0
H1186 H 0.17644 0.05377 0.21677 0.0
H1187 H 0.18255 0.02263 0.14861 0.0
H1188 H 0.0855 0.00702 0.08656 0.0
H1189 H 0.11551 0.99727 0.11438 0.0
H1190 H 0.10704 0.0203 0.18888 0.0
C1191 C 0.18987 0.04139 0.21304 0.0
C1192 C 0.16615 0.02204 0.15757 0.0
C1193 C 0.21023 0.04183 0.22616 0.0
C1194 C 0.08427 0.01376 0.10398 0.0
C1195 C 0.10182 0.00872 0.11976 0.0
C1196 C 0.12339 0.02089 0.17985 0.0
C1197 C 0.18687 0.02496 0.19534 0.0
C1198 C 0.16524 0.02366 0.18175 0.0
C1199 C 0.10277 0.01995 0.14136 0.0
C1200 C 0.12424 0.0196 0.15554 0.0
H1201 H 0.2378 0.99673 0.20042 0.0
H1202 H 0.20274 0.99639 0.1773 0.0
H1203 H 0.14257 0.02387 0.21149 0.0
H1204 H 0.05365 0.05147 0.13693 0.0
H1205 H 0.08436 0.04321 0.16421 0.0
C1206 C 0.76497 0.48694 0.19295 0.0
C1207 C 0.76317 0.47519 0.21409 0.0
C1208 C 0.78567 0.48716 0.18069 0.0
C1209 C 0.84784 0.48413 0.19053 0.0
H1210 H 0.85079 0.48075 0.12367 0.0
C1211 C 0.93258 0.47865 0.13793 0.0
C1212 C 0.93251 0.48664 0.11498 0.0
C1213 C 0.91289 0.48064 0.15172 0.0
C1214 C 0.85024 0.48224 0.14232 0.0
H1215 H 0.78127 0.4537 0.23865 0.0
H1216 H 0.81779 0.454 0.21707 0.0
H1217 H 0.81429 0.4737 0.14319 0.0
H1218 H 0.91257 0.50514 0.08936 0.0
H1219 H 0.8787 0.50973 0.11378 0.0
H1220 H 0.88383 0.49279 0.18963 0.0
C1221 C 0.80308 0.46307 0.21004 0.0
C1222 C 0.82933 0.47794 0.15352 0.0
C1223 C 0.78214 0.46258 0.2222 0.0
C1224 C 0.91337 0.49912 0.10707 0.0
C1225 C 0.89371 0.50125 0.12091 0.0
C1226 C 0.86881 0.48854 0.1793 0.0
C1227 C 0.8052 0.47588 0.18945 0.0
C1228 C 0.82785 0.47886 0.17774 0.0
C1229 C 0.89275 0.49076 0.14285 0.0
C1230 C 0.87027 0.48772 0.15502 0.0
H1231 H 0.75063 0.49695 0.18643 0.0
H1232 H 0.78673 0.49731 0.16501 0.0
H1233 H 0.84716 0.48536 0.2092 0.0
H1234 H 0.94705 0.46884 0.14445 0.0
H1235 H 0.91287 0.47241 0.16852 0.0
C1236 C 0.23892 0.95989 0.32549 0.0
C1237 C 0.24219 0.98136 0.3146 0.0
C1238 C 0.22613 0.95835 0.34616 0.0
C1239 C 0.20512 0.99546 0.39448 0.0
H1240 H 0.15721 0.94931 0.40228 0.0
C1241 C 0.12102 0.0103 0.44399 0.0
C1242 C 0.11049 0.99189 0.45578 0.0
C1243 C 0.14203 0.0072 0.43258 0.0
C1244 C 0.17086 0.96204 0.40065 0.0
H1245 H 0.23378 0.01782 0.31656 0.0
H1246 H 0.21169 0.01504 0.35172 0.0
H1247 H 0.18405 0.94625 0.36982 0.0
H1248 H 0.11454 0.95627 0.46631 0.0
H1249 H 0.15123 0.95078 0.44613 0.0
H1250 H 0.19115 0.01195 0.42451 0.0
C1251 C 0.21939 0.99947 0.34492 0.0
C1252 C 0.18623 0.96028 0.38201 0.0
C1253 C 0.23198 0.00099 0.32451 0.0
C1254 C 0.1224 0.97089 0.45765 0.0
C1255 C 0.14324 0.96763 0.44581 0.0
C1256 C 0.1897 0.9973 0.41295 0.0
C1257 C 0.21654 0.97826 0.35628 0.0
C1258 C 0.20299 0.97747 0.37821 0.0
C1259 C 0.15277 0.98549 0.43237 0.0
C1260 C 0.17191 0.98104 0.41582 0.0
H1261 H 0.24655 0.94445 0.31833 0.0
H1262 H 0.22414 0.94171 0.35443 0.0
H1263 H 0.21822 0.0087 0.39243 0.0
H1264 H 0.11209 0.02656 0.44203 0.0
H1265 H 0.14883 0.02129 0.42231 0.0
C1266 C 0.76611 0.52054 0.31321 0.0
C1267 C 0.76471 0.53216 0.29197 0.0
C1268 C 0.78683 0.51981 0.32544 0.0
C1269 C 0.84896 0.52069 0.3155 0.0
H1270 H 0.85259 0.52598 0.38221 0.0
C1271 C 0.9344 0.52576 0.36687 0.0
C1272 C 0.93441 0.51882 0.39015 0.0
C1273 C 0.91444 0.52367 0.35345 0.0
C1274 C 0.85184 0.52392 0.36361 0.0
H1275 H 0.78357 0.55286 0.26718 0.0
H1276 H 0.82015 0.55162 0.28868 0.0
H1277 H 0.8162 0.5334 0.36269 0.0
H1278 H 0.91423 0.50218 0.41692 0.0
H1279 H 0.87981 0.49731 0.39316 0.0
H1280 H 0.88457 0.51102 0.31642 0.0
C1281 C 0.8051 0.54308 0.29582 0.0
C1282 C 0.83099 0.52845 0.35241 0.0
C1283 C 0.78414 0.5441 0.2837 0.0
C1284 C 0.91494 0.5073 0.39892 0.0
C1285 C 0.895 0.50505 0.38544 0.0
C1286 C 0.86983 0.51599 0.32673 0.0
C1287 C 0.80676 0.53042 0.31653 0.0
C1288 C 0.8293 0.52693 0.32824 0.0
C1289 C 0.89408 0.5145 0.36303 0.0
C1290 C 0.87155 0.51756 0.35096 0.0
H1291 H 0.75139 0.51104 0.31984 0.0
H1292 H 0.78754 0.50982 0.34124 0.0
H1293 H 0.84808 0.51896 0.29687 0.0
H1294 H 0.94913 0.53487 0.35972 0.0
H1295 H 0.91448 0.53113 0.33629 0.0
C1296 C 0.21763 0.22108 0.99484 0.0
C1297 C 0.21846 0.2328 0.01613 0.0
C1298 C 0.20523 0.20061 0.99245 0.0
C1299 C 0.17655 0.15349 0.02508 0.0
H1300 H 0.14095 0.14716 0.96855 0.0
C1301 C 0.08885 0.10613 0.99787 0.0
C1302 C 0.09174 0.08575 0.01051 0.0
C1303 C 0.1078 0.12024 0.99296 0.0
C1304 C 0.15087 0.14857 0.98438 0.0
H1305 H 0.20748 0.23181 0.05187 0.0
H1306 H 0.18493 0.19609 0.04759 0.0
H1307 H 0.16623 0.18034 0.97369 0.0
H1308 H 0.11664 0.06271 0.02582 0.0
H1309 H 0.15005 0.08693 0.01656 0.0
H1310 H 0.16008 0.12242 0.03634 0.0
C1311 C 0.19429 0.20268 0.03278 0.0
C1312 C 0.16553 0.16754 0.98729 0.0
C1313 C 0.20706 0.22319 0.03526 0.0
C1314 C 0.1141 0.07821 0.01568 0.0
C1315 C 0.13312 0.09231 0.01079 0.0
C1316 C 0.16178 0.13456 0.02221 0.0
C1317 C 0.19299 0.19134 0.01121 0.0
C1318 C 0.17831 0.17044 0.00783 0.0
C1319 C 0.12996 0.11419 1.00078 0.0
C1320 C 0.14843 0.13208 0.00199 0.0
H1321 H 0.22668 0.22772 0.97983 0.0
H1322 H 0.20519 0.19208 0.97578 0.0
H1323 H 0.18638 0.15499 0.04096 0.0
H1324 H 0.07167 0.11247 0.99417 0.0
H1325 H 0.10463 0.13694 0.98527 0.0
C1326 C 0.19604 0.77581 0.47645 0.0
C1327 C 0.20486 0.76925 0.49811 0.0
C1328 C 0.17806 0.79156 0.47478 0.0
C1329 C 0.12949 0.81827 0.50496 0.0
H1330 H 0.13853 0.86582 0.4587 0.0
C1331 C 0.06872 0.89772 0.4894 0.0
C1332 C 0.06702 0.90529 0.4664 0.0
C1333 C 0.08308 0.87909 0.49503 0.0
C1334 C 0.13552 0.8525 0.47148 0.0
H1335 H 0.2011 0.77375 0.53514 0.0
H1336 H 0.16934 0.80161 0.53215 0.0
H1337 H 0.16893 0.83818 0.46598 0.0
H1338 H 0.07687 0.89808 0.43105 0.0
H1339 H 0.10095 0.8652 0.44061 0.0
H1340 H 0.0958 0.83276 0.51023 0.0
C1341 C 0.17655 0.79436 0.5165 0.0
C1342 C 0.15304 0.83671 0.47574 0.0
C1343 C 0.19479 0.77854 0.51819 0.0
C1344 C 0.07805 0.89269 0.44894 0.0
C1345 C 0.09205 0.87401 0.45448 0.0
C1346 C 0.11177 0.83417 0.50063 0.0
C1347 C 0.16828 0.80127 0.4947 0.0
C1348 C 0.15012 0.81913 0.49217 0.0
C1349 C 0.09574 0.86775 0.47767 0.0
C1350 C 0.11445 0.85116 0.48344 0.0
H1351 H 0.20314 0.76893 0.46057 0.0
H1352 H 0.17183 0.79621 0.45775 0.0
H1353 H 0.12677 0.80487 0.51773 0.0
H1354 H 0.06052 0.90732 0.50319 0.0
H1355 H 0.08549 0.87464 0.51305 0.0
C1356 C 0.80286 0.7236 0.47757 0.0
C1357 C 0.79229 0.73017 0.49836 0.0
C1358 C 0.81617 0.70342 0.47665 0.0
C1359 C 0.84747 0.66321 0.5156 0.0
H1360 H 0.84769 0.62303 0.4621 0.0
C1361 C 0.88716 0.57155 0.47861 0.0
C1362 C 0.91042 0.57503 0.48442 0.0
C1363 C 0.87066 0.58799 0.48448 0.0
C1364 C 0.84754 0.63383 0.47738 0.0
H1365 H 0.78613 0.72005 0.53402 0.0
H1366 H 0.80854 0.68512 0.53221 0.0
H1367 H 0.8233 0.65709 0.46215 0.0
H1368 H 0.9345 0.59718 0.50252 0.0
H1369 H 0.90581 0.62599 0.51286 0.0
H1370 H 0.87145 0.63981 0.53097 0.0
C1371 C 0.80748 0.69574 0.51686 0.0
C1372 C 0.83385 0.65361 0.4772 0.0
C1373 C 0.7945 0.71581 0.51783 0.0
C1374 C 0.91655 0.59389 0.49833 0.0
C1375 C 0.90009 0.61052 0.50402 0.0
C1376 C 0.86107 0.64338 0.51583 0.0
C1377 C 0.81887 0.68947 0.49645 0.0
C1378 C 0.83367 0.66857 0.49629 0.0
C1379 C 0.87724 0.6084 0.49593 0.0
C1380 C 0.86135 0.62847 0.4967 0.0
H1381 H 0.80138 0.7343 0.46231 0.0
H1382 H 0.82479 0.69907 0.46064 0.0
H1383 H 0.84803 0.67451 0.5305 0.0
H1384 H 0.88213 0.55722 0.46763 0.0
H1385 H 0.85309 0.5855 0.47858 0.0
C1386 C 0.30201 0.7855 0.44064 0.0
C1387 C 0.30159 0.77347 0.46176 0.0
C1388 C 0.31638 0.80489 0.43784 0.0
C1389 C 0.36856 0.83296 0.46141 0.0
H1390 H 0.34024 0.89115 0.44498 0.0
C1391 C 0.38258 0.93 0.49093 0.0
C1392 C 0.4068 0.93071 0.49101 0.0
C1393 C 0.37075 0.91319 0.47817 0.0
C1394 C 0.3485 0.875 0.44929 0.0
H1395 H 0.31646 0.77183 0.49613 0.0
H1396 H 0.34174 0.80507 0.49106 0.0
H1397 H 0.3181 0.85519 0.44126 0.0
H1398 H 0.43757 0.91582 0.47617 0.0
H1399 H 0.41694 0.88667 0.4535 0.0
H1400 H 0.39846 0.85258 0.47062 0.0
C1401 C 0.33092 0.79972 0.47673 0.0
C1402 C 0.33586 0.85441 0.44704 0.0
C1403 C 0.31632 0.78074 0.47967 0.0
C1404 C 0.41888 0.91594 0.47612 0.0
C1405 C 0.40705 0.899 0.46343 0.0
C1406 C 0.38123 0.85343 0.46344 0.0
C1407 C 0.33096 0.81218 0.45591 0.0
C1408 C 0.34551 0.83329 0.45391 0.0
C1409 C 0.38295 0.89657 0.46542 0.0
C1410 C 0.37111 0.87482 0.45819 0.0
H1411 H 0.29075 0.78036 0.42657 0.0
H1412 H 0.31608 0.81419 0.42161 0.0
H1413 H 0.3765 0.81691 0.46665 0.0
H1414 H 0.37288 0.94101 0.50249 0.0
H1415 H 0.35222 0.91185 0.48022 0.0
C1416 C 0.50656 0.73564 0.71309 0.0
C1417 C 0.5262 0.73426 0.72727 0.0
C1418 C 0.50556 0.72391 0.69213 0.0
C1419 C 0.53997 0.69279 0.64836 0.0
H1420 H 0.48194 0.66089 0.6373 0.0
C1421 C 0.50876 0.60921 0.59457 0.0
C1422 C 0.52197 0.61264 0.57455 0.0
C1423 C 0.50541 0.62733 0.61014 0.0
C1424 C 0.49821 0.66974 0.64007 0.0
H1425 H 0.5607 0.72052 0.73017 0.0
H1426 H 0.55884 0.69929 0.69338 0.0
H1427 H 0.48612 0.68563 0.67106 0.0
H1428 H 0.54014 0.63799 0.5539 0.0
H1429 H 0.53372 0.66986 0.58073 0.0
H1430 H 0.5524 0.67598 0.61794 0.0
C1431 C 0.54428 0.70974 0.69848 0.0
C1432 C 0.50059 0.68409 0.65934 0.0
C1433 C 0.54538 0.72181 0.71953 0.0
C1434 C 0.52972 0.63498 0.56916 0.0
C1435 C 0.52635 0.65312 0.58469 0.0
C1436 C 0.5376 0.6784 0.62908 0.0
C1437 C 0.52407 0.71022 0.68487 0.0
C1438 C 0.52156 0.69564 0.66384 0.0
C1439 C 0.5153 0.64916 0.60595 0.0
C1440 C 0.51676 0.6665 0.62485 0.0
H1441 H 0.49167 0.74556 0.71841 0.0
H1442 H 0.49003 0.72525 0.68179 0.0
H1443 H 0.55626 0.70158 0.65121 0.0
H1444 H 0.50322 0.59204 0.59952 0.0
H1445 H 0.49693 0.62362 0.6264 0.0
C1446 C 0.4614 0.79864 0.72641 0.0
C1447 C 0.47354 0.80703 0.74568 0.0
C1448 C 0.4624 0.81049 0.70535 0.0
C1449 C 0.47877 0.86553 0.67744 0.0
H1450 H 0.49796 0.82651 0.62651 0.0
C1451 C 0.50078 0.90693 0.59119 0.0
C1452 C 0.48893 0.89693 0.57247 0.0
C1453 C 0.50354 0.89463 0.6118 0.0
C1454 C 0.49252 0.83765 0.64049 0.0
H1455 H 0.49462 0.83506 0.75878 0.0
H1456 H 0.49564 0.85621 0.72236 0.0
H1457 H 0.48851 0.80921 0.66381 0.0
H1458 H 0.4737 0.8653 0.55945 0.0
H1459 H 0.4783 0.84396 0.59521 0.0
H1460 H 0.48218 0.89391 0.65419 0.0
C1461 C 0.48555 0.84046 0.72332 0.0
C1462 C 0.48695 0.82771 0.66181 0.0
C1463 C 0.48484 0.82846 0.7442 0.0
C1464 C 0.48284 0.87346 0.57364 0.0
C1465 C 0.48543 0.86123 0.59426 0.0
C1466 C 0.48413 0.87545 0.6561 0.0
C1467 C 0.47527 0.83105 0.70341 0.0
C1468 C 0.47993 0.84155 0.68048 0.0
C1469 C 0.4944 0.87219 0.61405 0.0
C1470 C 0.49104 0.86165 0.6373 0.0
H1471 H 0.45298 0.78192 0.72701 0.0
H1472 H 0.45408 0.80302 0.69031 0.0
H1473 H 0.47335 0.8766 0.6915 0.0
H1474 H 0.50555 0.92502 0.59093 0.0
H1475 H 0.51123 0.90334 0.6265 0.0
C1476 C 0.48665 0.30971 0.78677 0.0
C1477 C 0.47052 0.29261 0.78064 0.0
C1478 C 0.48253 0.32437 0.80547 0.0
C1479 C 0.4642 0.36017 0.83912 0.0
H1480 H 0.45291 0.33026 0.89801 0.0
C1481 C 0.47798 0.41131 0.92147 0.0
C1482 C 0.49554 0.40079 0.93441 0.0
C1483 C 0.46516 0.39833 0.9055 0.0
C1484 C 0.45567 0.33894 0.88166 0.0
H1485 H 0.43723 0.27765 0.78915 0.0
H1486 H 0.43028 0.30306 0.82235 0.0
H1487 H 0.45039 0.30783 0.8622 0.0
H1488 H 0.51105 0.36814 0.9435 0.0
H1489 H 0.48852 0.3455 0.91617 0.0
H1490 H 0.47079 0.39093 0.85844 0.0
C1491 C 0.446 0.30518 0.81244 0.0
C1492 C 0.45415 0.32612 0.86116 0.0
C1493 C 0.44994 0.29073 0.79341 0.0
C1494 C 0.49771 0.37669 0.93361 0.0
C1495 C 0.48474 0.3637 0.9179 0.0
C1496 C 0.46549 0.37302 0.85953 0.0
C1497 C 0.46233 0.32207 0.81872 0.0
C1498 C 0.45933 0.33643 0.83978 0.0
C1499 C 0.46949 0.37463 0.90255 0.0
C1500 C 0.46216 0.36236 0.88113 0.0
H1501 H 0.50264 0.31163 0.77726 0.0
H1502 H 0.49557 0.33702 0.81006 0.0
H1503 H 0.46805 0.36861 0.82285 0.0
H1504 H 0.47591 0.42987 0.92177 0.0
H1505 H 0.45322 0.40715 0.89417 0.0
C1506 C 0.50818 0.19079 0.7894 0.0
C1507 C 0.52431 0.20763 0.78261 0.0
C1508 C 0.51221 0.1771 0.80884 0.0
C1509 C 0.5401 0.17831 0.86483 0.0
H1510 H 0.52513 0.11304 0.86499 0.0
C1511 C 0.52003 0.09532 0.92922 0.0
C1512 C 0.50203 0.10554 0.94174 0.0
C1513 C 0.53198 0.10807 0.91246 0.0
C1514 C 0.52993 0.13113 0.86526 0.0
H1515 H 0.55748 0.22313 0.79074 0.0
H1516 H 0.56423 0.19945 0.82519 0.0
H1517 H 0.52726 0.13379 0.82841 0.0
H1518 H 0.48461 0.13766 0.94906 0.0
H1519 H 0.50575 0.16001 0.92041 0.0
H1520 H 0.5414 0.17589 0.90183 0.0
C1521 C 0.54861 0.19677 0.81524 0.0
C1522 C 0.53088 0.14305 0.84429 0.0
C1523 C 0.54477 0.21022 0.79549 0.0
C1524 C 0.49839 0.12937 0.93958 0.0
C1525 C 0.51054 0.14218 0.92312 0.0
C1526 C 0.53887 0.16642 0.88587 0.0
C1527 C 0.53229 0.18016 0.82217 0.0
C1528 C 0.53525 0.16689 0.84391 0.0
C1529 C 0.52634 0.1313 0.90832 0.0
C1530 C 0.53307 0.14283 0.88635 0.0
H1531 H 0.49228 0.18835 0.77983 0.0
H1532 H 0.4992 0.16461 0.81392 0.0
H1533 H 0.54345 0.19671 0.86504 0.0
H1534 H 0.52314 0.07695 0.93052 0.0
H1535 H 0.54432 0.09932 0.90152 0.0
C1536 C 0.741 0.52902 0.69128 0.0
C1537 C 0.74313 0.54018 0.71271 0.0
C1538 C 0.71983 0.52814 0.67989 0.0
C1539 C 0.65804 0.52812 0.69292 0.0
H1540 H 0.65206 0.52957 0.62619 0.0
C1541 C 0.57192 0.52961 0.642 0.0
C1542 C 0.57199 0.5206 0.61941 0.0
C1543 C 0.59166 0.52827 0.65582 0.0
C1544 C 0.6535 0.52864 0.64484 0.0
H1545 H 0.72519 0.56025 0.73857 0.0
H1546 H 0.68789 0.55901 0.71841 0.0
H1547 H 0.68885 0.53927 0.64395 0.0
H1548 H 0.59166 0.50048 0.59482 0.0
H1549 H 0.62564 0.49724 0.61929 0.0
H1550 H 0.62247 0.51767 0.6937 0.0
C1551 C 0.70266 0.55078 0.71053 0.0
C1552 C 0.67457 0.53444 0.65502 0.0
C1553 C 0.72404 0.55185 0.72187 0.0
C1554 C 0.59089 0.50736 0.61222 0.0
C1555 C 0.61061 0.50596 0.62607 0.0
C1556 C 0.63686 0.52236 0.6827 0.0
C1557 C 0.7002 0.53826 0.68977 0.0
C1558 C 0.67717 0.53411 0.67917 0.0
C1559 C 0.61174 0.51781 0.64729 0.0
C1560 C 0.63441 0.52237 0.65851 0.0
H1561 H 0.75544 0.5197 0.68399 0.0
H1562 H 0.71858 0.51822 0.66405 0.0
H1563 H 0.65957 0.52734 0.71157 0.0
H1564 H 0.55759 0.53996 0.64795 0.0
H1565 H 0.59188 0.53744 0.67214 0.0
C1566 C 0.27568 0.96379 0.71216 0.0
C1567 C 0.2577 0.97878 0.7063 0.0
C1568 C 0.2958 0.96333 0.69876 0.0
C1569 C 0.32119 0.98156 0.64284 0.0
H1570 H 0.37752 0.98875 0.67844 0.0
C1571 C 0.40573 0.99722 0.59564 0.0
C1572 C 0.42281 0.98137 0.60188 0.0
C1573 C 0.38704 0.00116 0.6104 0.0
C1574 C 0.36196 0.98673 0.66825 0.0
H1575 H 0.24569 0.00377 0.68131 0.0
H1576 H 0.28033 0.0025 0.6576 0.0
H1577 H 0.34089 0.98253 0.69839 0.0
H1578 H 0.43534 0.95923 0.62919 0.0
H1579 H 0.40301 0.96613 0.65495 0.0
H1580 H 0.34212 0.98536 0.61271 0.0
C1581 C 0.27915 0.99118 0.67244 0.0
C1582 C 0.34101 0.98294 0.67966 0.0
C1583 C 0.25926 0.99183 0.68594 0.0
C1584 C 0.42244 0.97173 0.62414 0.0
C1585 C 0.40381 0.97563 0.63885 0.0
C1586 C 0.3421 0.98525 0.63143 0.0
C1587 C 0.29802 0.97768 0.67923 0.0
C1588 C 0.32042 0.98025 0.66706 0.0
C1589 C 0.38517 0.9892 0.63151 0.0
C1590 C 0.36277 0.98784 0.64398 0.0
H1591 H 0.27499 0.95392 0.72805 0.0
H1592 H 0.31 0.95254 0.70421 0.0
H1593 H 0.30563 0.97943 0.63265 0.0
H1594 H 0.40539 0.0045 0.5784 0.0
H1595 H 0.37319 0.01216 0.60448 0.0
C1596 C 0.72294 0.46746 0.78107 0.0
C1597 C 0.74119 0.48171 0.78845 0.0
C1598 C 0.70195 0.46728 0.79319 0.0
C1599 C 0.67533 0.48312 0.84928 0.0
H1600 H 0.61913 0.48974 0.81354 0.0
C1601 C 0.59006 0.49661 0.89628 0.0
C1602 C 0.5725 0.48135 0.88935 0.0
C1603 C 0.60917 0.5005 0.88198 0.0
C1604 C 0.63465 0.48782 0.82378 0.0
H1605 H 0.75231 0.50589 0.81486 0.0
H1606 H 0.71616 0.50525 0.83607 0.0
H1607 H 0.65606 0.48522 0.79365 0.0
H1608 H 0.55984 0.46027 0.86108 0.0
H1609 H 0.59299 0.46695 0.83622 0.0
H1610 H 0.65415 0.48532 0.87937 0.0
C1611 C 0.71781 0.4943 0.82099 0.0
C1612 C 0.65579 0.48507 0.81237 0.0
C1613 C 0.73855 0.49468 0.80881 0.0
C1614 C 0.57312 0.47219 0.86684 0.0
C1615 C 0.59222 0.476 0.85258 0.0
C1616 C 0.65427 0.48579 0.86066 0.0
C1617 C 0.69904 0.48109 0.81304 0.0
C1618 C 0.67638 0.4827 0.82501 0.0
C1619 C 0.6111 0.48909 0.86054 0.0
C1620 C 0.63362 0.48821 0.8481 0.0
H1621 H 0.72443 0.45752 0.76528 0.0
H1622 H 0.68787 0.45672 0.78679 0.0
H1623 H 0.69083 0.48108 0.85954 0.0
H1624 H 0.5903 0.5036 0.91365 0.0
H1625 H 0.62316 0.51117 0.8884 0.0
C1626 C 0.28853 0.03998 0.79987 0.0
C1627 C 0.27658 0.02074 0.79117 0.0
C1628 C 0.30913 0.03707 0.81225 0.0
C1629 C 0.34325 0.99225 0.84342 0.0
H1630 H 0.39202 0.03778 0.838 0.0
C1631 C 0.4409 0.01844 0.87847 0.0
C1632 C 0.43718 0.01436 0.90209 0.0
C1633 C 0.42373 0.01318 0.86233 0.0
C1634 C 0.37885 0.02454 0.83939 0.0
H1635 H 0.2772 0.98337 0.78812 0.0
H1636 H 0.31307 0.97844 0.80882 0.0
H1637 H 0.35706 0.04222 0.8155 0.0
H1638 H 0.4141 0.99878 0.92705 0.0
H1639 H 0.3839 0.99015 0.8992 0.0
H1640 H 0.3653 0.97428 0.86692 0.0
C1641 C 0.30636 0.99574 0.80691 0.0
C1642 C 0.3585 0.02741 0.8268 0.0
C1643 C 0.28574 0.99862 0.79488 0.0
C1644 C 0.41743 0.00205 0.90891 0.0
C1645 C 0.40001 0.99722 0.89285 0.0
C1646 C 0.36373 0.98922 0.85582 0.0
C1647 C 0.31832 0.01486 0.81588 0.0
C1648 C 0.34028 0.01149 0.82887 0.0
C1649 C 0.40234 0.00421 0.86963 0.0
C1650 C 0.38172 0.0055 0.85424 0.0
H1651 H 0.2819 0.05722 0.7973 0.0
H1652 H 0.3177 0.05221 0.81918 0.0
H1653 H 0.32954 0.9797 0.84569 0.0
H1654 H 0.45612 0.02776 0.87277 0.0
H1655 H 0.42653 0.0179 0.84444 0.0
C1656 C 0.71914 0.7179 0.56055 0.0
C1657 C 0.71258 0.73727 0.54763 0.0
C1658 C 0.70653 0.69723 0.55874 0.0
C1659 C 0.65092 0.67229 0.5387 0.0
H1660 H 0.68687 0.6173 0.52682 0.0
C1661 C 0.60436 0.58873 0.51542 0.0
C1662 C 0.61093 0.56988 0.52914 0.0
C1663 C 0.61879 0.60809 0.5136 0.0
C1664 C 0.67656 0.63246 0.53018 0.0
H1665 H 0.68714 0.75082 0.52388 0.0
H1666 H 0.66489 0.7152 0.52121 0.0
H1667 H 0.7065 0.65361 0.5359 0.0
H1668 H 0.63892 0.55521 0.54901 0.0
H1669 H 0.66398 0.58876 0.54589 0.0
H1670 H 0.62101 0.65129 0.53342 0.0
C1671 C 0.6797 0.71572 0.53263 0.0
C1672 C 0.68782 0.65324 0.53556 0.0
C1673 C 0.69241 0.73616 0.5342 0.0
C1674 C 0.63339 0.5695 0.53832 0.0
C1675 C 0.64776 0.58886 0.53661 0.0
C1676 C 0.63969 0.65156 0.53344 0.0
C1677 C 0.68703 0.69578 0.54423 0.0
C1678 C 0.67511 0.67339 0.53988 0.0
C1679 C 0.64 0.60895 0.5255 0.0
C1680 C 0.65232 0.63134 0.52908 0.0
H1681 H 0.73486 0.71821 0.57069 0.0
H1682 H 0.71244 0.68221 0.5681 0.0
H1683 H 0.64062 0.68745 0.54213 0.0
H1684 H 0.58712 0.58969 0.50827 0.0
H1685 H 0.61257 0.62302 0.50429 0.0
C1686 C 0.71398 0.29065 0.96681 0.0
C1687 C 0.70836 0.2716 0.9807 0.0
C1688 C 0.70162 0.31126 0.96905 0.0
C1689 C 0.64713 0.33536 0.99124 0.0
H1690 H 0.68211 0.39222 0.99779 0.0
C1691 C 0.59778 0.41729 0.00483 0.0
C1692 C 0.60321 0.43355 0.98773 0.0
C1693 C 0.61368 0.40016 0.01057 0.0
C1694 C 0.67211 0.37648 0.99605 0.0
H1695 H 0.68485 0.25854 0.00675 0.0
H1696 H 0.66308 0.29408 0.01026 0.0
H1697 H 0.70229 0.35598 0.99038 0.0
H1698 H 0.6303 0.44694 0.96578 0.0
H1699 H 0.65795 0.41723 0.97559 0.0
H1700 H 0.61695 0.3556 0.99616 0.0
C1701 C 0.67698 0.29335 0.99778 0.0
C1702 C 0.68365 0.35579 0.9916 0.0
C1703 C 0.68943 0.27298 0.99574 0.0
C1704 C 0.62584 0.43464 0.97917 0.0
C1705 C 0.64166 0.41744 0.98472 0.0
C1706 C 0.63562 0.35597 0.99558 0.0
C1707 C 0.68332 0.31292 0.98496 0.0
C1708 C 0.67123 0.33505 0.989 0.0
C1709 C 0.63503 0.39897 0.99902 0.0
C1710 C 0.64791 0.37685 0.9979 0.0
H1711 H 0.72873 0.29007 0.95533 0.0
H1712 H 0.70667 0.32603 0.95873 0.0
H1713 H 0.63707 0.3197 0.98912 0.0
H1714 H 0.58033 0.41582 0.01137 0.0
H1715 H 0.60832 0.38652 0.02221 0.0
C1716 C 0.29524 0.23058 0.95975 0.0
C1717 C 0.30149 0.24894 0.97432 0.0
C1718 C 0.30716 0.20964 0.96096 0.0
C1719 C 0.35983 0.18164 0.98428 0.0
H1720 H 0.32017 0.12779 0.98949 0.0
C1721 C 0.40007 0.09492 0.00442 0.0
C1722 C 0.39454 0.07854 0.98739 0.0
C1723 C 0.38604 0.11428 0.00745 0.0
C1724 C 0.33147 0.14267 0.9881 0.0
H1725 H 0.32591 0.26063 1.00018 0.0
H1726 H 0.34699 0.22452 0.00191 0.0
H1727 H 0.30331 0.16538 0.98099 0.0
H1728 H 0.36839 0.06739 0.96303 0.0
H1729 H 0.34383 0.10072 0.96852 0.0
H1730 H 0.388 0.15902 0.99105 0.0
C1731 C 0.33297 0.22602 0.98962 0.0
C1732 C 0.32185 0.16416 0.98298 0.0
C1733 C 0.32097 0.24677 0.98857 0.0
C1734 C 0.37307 0.07988 0.9762 0.0
C1735 C 0.35902 0.0991 0.97929 0.0
C1736 C 0.36943 0.1602 0.98938 0.0
C1737 C 0.3256 0.20689 0.9766 0.0
C1738 C 0.33594 0.18387 0.98088 0.0
C1739 C 0.36622 0.1173 0.99368 0.0
C1740 C 0.35541 0.1404 0.99124 0.0
H1741 H 0.28001 0.23172 0.94896 0.0
H1742 H 0.30132 0.19529 0.95044 0.0
H1743 H 0.37118 0.19645 0.98263 0.0
H1744 H 0.41652 0.0943 0.01329 0.0
H1745 H 0.3917 0.12776 0.01917 0.0
C1746 C 0.81408 0.27108 0.01214 0.0
C1747 C 0.79506 0.26939 0.02708 0.0
C1748 C 0.82703 0.29135 0.01095 0.0
C1749 C 0.82104 0.35348 0.01896 0.0
H1750 H 0.88775 0.3539 0.01446 0.0
C1751 C 0.87809 0.4336 0.03162 0.0
C1752 C 0.90053 0.43353 0.02248 0.0
C1753 C 0.8628 0.4156 0.02668 0.0
C1754 C 0.86908 0.3541 0.01507 0.0
H1755 H 0.77515 0.28715 0.05318 0.0
H1756 H 0.79801 0.32291 0.05119 0.0
H1757 H 0.86746 0.31764 0.02054 0.0
H1758 H 0.92357 0.41641 0.99867 0.0
H1759 H 0.89648 0.38546 0.9891 0.0
H1760 H 0.82268 0.39002 0.01358 0.0
C1761 C 0.80277 0.30847 0.04034 0.0
C1762 C 0.85748 0.3333 0.01885 0.0
C1763 C 0.78993 0.28795 0.04176 0.0
C1764 C 0.90627 0.41705 0.00572 0.0
C1765 C 0.89091 0.39903 1.00067 0.0
C1766 C 0.83265 0.37434 0.01502 0.0
C1767 C 0.82109 0.31051 0.02449 0.0
C1768 C 0.83337 0.33277 0.02106 0.0
C1769 C 0.8697 0.39724 0.01244 0.0
C1770 C 0.85686 0.37494 0.01325 0.0
H1771 H 0.8183 0.25702 1.00055 0.0
H1772 H 0.84096 0.2924 0.99851 0.0
H1773 H 0.80239 0.35353 0.02012 0.0
H1774 H 0.87333 0.44612 0.04469 0.0
H1775 H 0.84663 0.41493 0.03602 0.0
loop_
_geom_bond_atom_site_label_1
_geom_bond_atom_site_label_2
_geom_bond_distance
_geom_bond_site_symmetry_2
_ccdc_geom_bond_type
C0 O2 1.247 . S
C0 O4 1.258 1_455 S
C1 O8 1.247 . S
C1 O9 1.258 1_655 S
O2 C0 1.247 . S
O2 Zn3 2.028 . S
Zn3 O2 2.028 . S
Zn3 O7 2.035 . S
Zn3 O9 2.035 . S
Zn3 O10 2.028 . S
O4 C0 1.258 1_655 S
O4 Zn5 2.035 . S
Zn5 O4 2.035 . S
Zn5 O6 2.028 . S
Zn5 O8 2.028 . S
Zn5 O11 2.035 . S
O6 Zn5 2.028 . S
O6 C12 1.247 . S
O7 Zn3 2.035 . S
O7 C12 1.258 1_455 S
O8 C1 1.247 . S
O8 Zn5 2.028 . S
O9 C1 1.258 1_455 S
O9 Zn3 2.035 . S
O10 Zn3 2.028 . S
O10 C13 1.247 . S
O11 Zn5 2.035 . S
O11 C13 1.258 1_655 S
C12 O6 1.247 . S
C12 O7 1.258 1_655 S
C13 O10 1.247 . S
C13 O11 1.258 1_455 S
C14 O16 1.247 . S
C14 O18 1.258 1_455 S
C15 O22 1.247 . S
C15 O23 1.258 1_655 S
O16 C14 1.247 . S
O16 Zn17 2.028 . S
Zn17 O16 2.028 . S
Zn17 O21 2.035 . S
Zn17 O23 2.035 . S
Zn17 O24 2.028 . S
O18 C14 1.258 1_655 S
O18 Zn19 2.035 . S
Zn19 O18 2.035 . S
Zn19 O20 2.028 . S
Zn19 O22 2.028 . S
Zn19 O25 2.035 . S
O20 Zn19 2.028 . S
O20 C26 1.247 . S
O21 Zn17 2.035 . S
O21 C26 1.258 1_455 S
O22 C15 1.247 . S
O22 Zn19 2.028 . S
O23 C15 1.258 1_455 S
O23 Zn17 2.035 . S
O24 Zn17 2.028 . S
O24 C27 1.247 . S
O25 Zn19 2.035 . S
O25 C27 1.258 1_655 S
C26 O20 1.247 . S
C26 O21 1.258 1_655 S
C27 O24 1.247 . S
C27 O25 1.258 1_455 S
C28 O30 1.247 1_545 S
C28 O32 1.258 . S
C29 O36 1.249 . S
C29 O37 1.256 1_545 S
O30 C28 1.247 1_565 S
O30 Zn31 2.028 . S
Zn31 O30 2.028 . S
Zn31 O35 2.035 . S
Zn31 O37 2.035 . S
Zn31 O38 2.028 . S
O32 C28 1.258 . S
O32 Zn33 2.035 . S
Zn33 O32 2.035 . S
Zn33 O34 2.028 . S
Zn33 O36 2.028 . S
Zn33 O39 2.035 . S
O34 Zn33 2.028 . S
O34 C40 1.244 . S
O35 Zn31 2.035 . S
O35 C40 1.260 1_565 S
O36 C29 1.249 . S
O36 Zn33 2.028 . S
O37 C29 1.256 1_565 S
O37 Zn31 2.035 . S
O38 Zn31 2.028 . S
O38 C41 1.247 1_565 S
O39 Zn33 2.035 . S
O39 C41 1.258 . S
C40 O34 1.244 . S
C40 O35 1.260 1_545 S
C41 O38 1.247 1_545 S
C41 O39 1.258 . S
C42 O44 1.247 . S
C42 O46 1.258 . S
C43 O50 1.247 . S
C43 O51 1.258 . S
O44 C42 1.247 . S
O44 Zn45 2.028 . S
Zn45 O44 2.028 . S
Zn45 O49 2.035 . S
Zn45 O51 2.035 . S
Zn45 O52 2.028 . S
O46 C42 1.258 . S
O46 Zn47 2.035 . S
Zn47 O46 2.035 . S
Zn47 O48 2.028 . S
Zn47 O50 2.028 . S
Zn47 O53 2.035 . S
O48 Zn47 2.028 . S
O48 C54 1.247 . S
O49 Zn45 2.035 . S
O49 C54 1.258 . S
O50 C43 1.247 . S
O50 Zn47 2.028 . S
O51 C43 1.258 . S
O51 Zn45 2.035 . S
O52 Zn45 2.028 . S
O52 C55 1.247 . S
O53 Zn47 2.035 . S
O53 C55 1.258 . S
C54 O48 1.247 . S
C54 O49 1.258 . S
C55 O52 1.247 . S
C55 O53 1.258 . S
C56 O58 1.247 1_554 S
C56 O60 1.258 . S
C57 O64 1.247 1_556 S
C57 O65 1.258 . S
O58 C56 1.247 1_556 S
O58 Zn59 2.028 . S
Zn59 O58 2.028 . S
Zn59 O63 2.035 . S
Zn59 O65 2.035 . S
Zn59 O66 2.028 . S
O60 C56 1.258 . S
O60 Zn61 2.035 . S
Zn61 O60 2.035 . S
Zn61 O62 2.028 . S
Zn61 O64 2.028 . S
Zn61 O67 2.035 . S
O62 Zn61 2.028 . S
O62 C68 1.247 1_554 S
O63 Zn59 2.035 . S
O63 C68 1.258 . S
O64 C57 1.247 1_554 S
O64 Zn61 2.028 . S
O65 C57 1.258 . S
O65 Zn59 2.035 . S
O66 Zn59 2.028 . S
O66 C69 1.247 1_556 S
O67 Zn61 2.035 . S
O67 C69 1.258 . S
C68 O62 1.247 1_556 S
C68 O63 1.258 . S
C69 O66 1.247 1_554 S
C69 O67 1.258 . S
C70 O72 1.247 . S
C70 O74 1.258 . S
C71 O78 1.247 . S
C71 O79 1.258 . S
O72 C70 1.247 . S
O72 Zn73 2.028 . S
Zn73 O72 2.028 . S
Zn73 O77 2.035 . S
Zn73 O79 2.035 . S
Zn73 O80 2.028 . S
O74 C70 1.258 . S
O74 Zn75 2.035 . S
Zn75 O74 2.035 . S
Zn75 O76 2.028 . S
Zn75 O78 2.028 . S
Zn75 O81 2.035 . S
O76 Zn75 2.028 . S
O76 C82 1.247 . S
O77 Zn73 2.035 . S
O77 C82 1.258 . S
O78 C71 1.247 . S
O78 Zn75 2.028 . S
O79 C71 1.258 . S
O79 Zn73 2.035 . S
O80 Zn73 2.028 . S
O80 C83 1.247 . S
O81 Zn75 2.035 . S
O81 C83 1.258 . S
C82 O76 1.247 . S
C82 O77 1.258 . S
C83 O80 1.247 . S
C83 O81 1.258 . S
C84 O86 1.247 . S
C84 O88 1.258 . S
C85 O92 1.247 . S
C85 O93 1.258 . S
O86 C84 1.247 . S
O86 Zn87 2.028 . S
Zn87 O86 2.028 . S
Zn87 O91 2.035 . S
Zn87 O93 2.035 . S
Zn87 O94 2.028 . S
O88 C84 1.258 . S
O88 Zn89 2.035 . S
Zn89 O88 2.035 . S
Zn89 O90 2.028 . S
Zn89 O92 2.028 . S
Zn89 O95 2.035 . S
O90 Zn89 2.028 . S
O90 C96 1.247 . S
O91 Zn87 2.035 . S
O91 C96 1.258 . S
O92 C85 1.247 . S
O92 Zn89 2.028 . S
O93 C85 1.258 . S
O93 Zn87 2.035 . S
O94 Zn87 2.028 . S
O94 C97 1.247 . S
O95 Zn89 2.035 . S
O95 C97 1.258 . S
C96 O90 1.247 . S
C96 O91 1.258 . S
C97 O94 1.247 . S
C97 O95 1.258 . S
C98 O100 1.247 . S
C98 O102 1.258 . S
C99 O106 1.247 . S
C99 O107 1.258 . S
O100 C98 1.247 . S
O100 Zn101 2.028 . S
Zn101 O100 2.028 . S
Zn101 O105 2.035 . S
Zn101 O107 2.035 . S
Zn101 O108 2.028 . S
O102 C98 1.258 . S
O102 Zn103 2.035 . S
Zn103 O102 2.035 . S
Zn103 O104 2.028 . S
Zn103 O106 2.028 . S
Zn103 O109 2.035 . S
O104 Zn103 2.028 . S
O104 C110 1.247 . S
O105 Zn101 2.035 . S
O105 C110 1.258 . S
O106 C99 1.247 . S
O106 Zn103 2.028 . S
O107 C99 1.258 . S
O107 Zn101 2.035 . S
O108 Zn101 2.028 . S
O108 C111 1.247 . S
O109 Zn103 2.035 . S
O109 C111 1.258 . S
C110 O104 1.247 . S
C110 O105 1.258 . S
C111 O108 1.247 . S
C111 O109 1.258 . S
C112 O114 1.247 . S
C112 O116 1.258 . S
C113 O120 1.247 . S
C113 O121 1.258 . S
O114 C112 1.247 . S
O114 Zn115 2.028 . S
Zn115 O114 2.028 . S
Zn115 O119 2.035 . S
Zn115 O121 2.035 . S
Zn115 O122 2.028 . S
O116 C112 1.258 . S
O116 Zn117 2.035 . S
Zn117 O116 2.035 . S
Zn117 O118 2.028 . S
Zn117 O120 2.028 . S
Zn117 O123 2.035 . S
O118 Zn117 2.028 . S
O118 C124 1.247 . S
O119 Zn115 2.035 . S
O119 C124 1.258 . S
O120 C113 1.247 . S
O120 Zn117 2.028 . S
O121 C113 1.258 . S
O121 Zn115 2.035 . S
O122 Zn115 2.028 . S
O122 C125 1.247 . S
O123 Zn117 2.035 . S
O123 C125 1.258 . S
C124 O118 1.247 . S
C124 O119 1.258 . S
C125 O122 1.247 . S
C125 O123 1.258 . S
C126 O128 1.247 . S
C126 O130 1.258 . S
C127 O134 1.247 . S
C127 O135 1.258 . S
O128 C126 1.247 . S
O128 Zn129 2.028 . S
Zn129 O128 2.028 . S
Zn129 O133 2.035 . S
Zn129 O135 2.035 . S
Zn129 O136 2.028 . S
O130 C126 1.258 . S
O130 Zn131 2.035 . S
Zn131 O130 2.035 . S
Zn131 O132 2.028 . S
Zn131 O134 2.028 . S
Zn131 O137 2.035 . S
O132 Zn131 2.028 . S
O132 C138 1.247 . S
O133 Zn129 2.035 . S
O133 C138 1.258 . S
O134 C127 1.247 . S
O134 Zn131 2.028 . S
O135 C127 1.258 . S
O135 Zn129 2.035 . S
O136 Zn129 2.028 . S
O136 C139 1.247 . S
O137 Zn131 2.035 . S
O137 C139 1.258 . S
C138 O132 1.247 . S
C138 O133 1.258 . S
C139 O136 1.247 . S
C139 O137 1.258 . S
C140 O142 1.247 . S
C140 O144 1.258 1_565 S
C141 O148 1.247 . S
C141 O149 1.258 1_545 S
O142 C140 1.247 . S
O142 Zn143 2.028 . S
Zn143 O142 2.028 . S
Zn143 O147 2.035 . S
Zn143 O149 2.035 . S
Zn143 O150 2.028 . S
O144 C140 1.258 1_545 S
O144 Zn145 2.035 . S
Zn145 O144 2.035 . S
Zn145 O146 2.028 . S
Zn145 O148 2.028 . S
Zn145 O151 2.035 . S
O146 Zn145 2.028 . S
O146 C152 1.247 . S
O147 Zn143 2.035 . S
O147 C152 1.258 1_565 S
O148 C141 1.247 . S
O148 Zn145 2.028 . S
O149 C141 1.258 1_565 S
O149 Zn143 2.035 . S
O150 Zn143 2.028 . S
O150 C153 1.247 . S
O151 Zn145 2.035 . S
O151 C153 1.258 1_545 S
C152 O146 1.247 . S
C152 O147 1.258 1_545 S
C153 O150 1.247 . S
C153 O151 1.258 1_565 S
C154 O156 1.247 1_556 S
C154 O158 1.258 . S
C155 O162 1.247 1_554 S
C155 O163 1.258 . S
O156 C154 1.247 1_554 S
O156 Zn157 2.028 . S
Zn157 O156 2.028 . S
Zn157 O161 2.035 . S
Zn157 O163 2.035 . S
Zn157 O164 2.028 . S
O158 C154 1.258 . S
O158 Zn159 2.035 . S
Zn159 O158 2.035 . S
Zn159 O160 2.028 . S
Zn159 O162 2.028 . S
Zn159 O165 2.035 . S
O160 Zn159 2.028 . S
O160 C166 1.247 1_556 S
O161 Zn157 2.035 . S
O161 C166 1.258 . S
O162 C155 1.247 1_556 S
O162 Zn159 2.028 . S
O163 C155 1.258 . S
O163 Zn157 2.035 . S
O164 Zn157 2.028 . S
O164 C167 1.247 1_554 S
O165 Zn159 2.035 . S
O165 C167 1.258 . S
C166 O160 1.247 1_554 S
C166 O161 1.258 . S
C167 O164 1.247 1_556 S
C167 O165 1.258 . S
Zn168 O174 1.920 . S
Zn168 O180 1.898 . S
Zn168 O183 1.905 . S
Zn169 O177 1.905 1_554 S
Zn169 O178 1.898 1_545 S
Zn169 O186 1.920 1_455 S
Zn170 O173 2.080 . S
Zn170 O176 2.114 . S
Zn170 O179 2.120 . S
Zn170 O181 2.120 . S
Zn170 O182 2.114 . S
Zn170 O185 2.080 . S
C171 O176 1.166 . S
C171 O177 1.182 1_554 S
C172 O178 1.167 1_545 S
C172 O179 1.299 . S
O173 Zn170 2.080 . S
O173 C187 1.305 . S
O174 Zn168 1.920 . S
O174 C187 1.234 . S
C175 O180 1.167 . S
C175 O181 1.299 . S
O176 Zn170 2.114 . S
O176 C171 1.166 . S
O177 Zn169 1.905 1_556 S
O177 C171 1.182 1_556 S
O178 Zn169 1.898 1_565 S
O178 C172 1.167 1_565 S
O179 Zn170 2.120 . S
O179 C172 1.299 . S
O180 Zn168 1.898 . S
O180 C175 1.167 . S
O181 Zn170 2.120 . S
O181 C175 1.299 . S
O182 Zn170 2.114 . S
O182 C184 1.166 . S
O183 Zn168 1.905 . S
O183 C184 1.182 . S
C184 O182 1.166 . S
C184 O183 1.182 . S
O185 Zn170 2.080 . S
O185 C188 1.305 1_455 S
O186 Zn169 1.920 1_655 S
O186 C188 1.234 . S
C187 O173 1.305 . S
C187 O174 1.234 . S
C188 O185 1.305 1_655 S
C188 O186 1.234 . S
Zn189 O195 1.920 1_655 S
Zn189 O201 1.898 . S
Zn189 O204 1.905 1_554 S
Zn190 O198 1.905 . S
Zn190 O199 1.898 . S
Zn190 O207 1.920 . S
Zn191 O194 2.080 . S
Zn191 O197 2.114 . S
Zn191 O200 2.120 . S
Zn191 O202 2.120 . S
Zn191 O203 2.114 . S
Zn191 O206 2.080 . S
C192 O197 1.166 . S
C192 O198 1.182 . S
C193 O199 1.167 . S
C193 O200 1.299 . S
O194 Zn191 2.080 . S
O194 C208 1.305 1_655 S
O195 Zn189 1.920 1_455 S
O195 C208 1.234 . S
C196 O201 1.167 . S
C196 O202 1.299 . S
O197 Zn191 2.114 . S
O197 C192 1.166 . S
O198 Zn190 1.905 . S
O198 C192 1.182 . S
O199 Zn190 1.898 . S
O199 C193 1.167 . S
O200 Zn191 2.120 . S
O200 C193 1.299 . S
O201 Zn189 1.898 . S
O201 C196 1.167 . S
O202 Zn191 2.120 . S
O202 C196 1.299 . S
O203 Zn191 2.114 . S
O203 C205 1.166 . S
O204 Zn189 1.905 1_556 S
O204 C205 1.182 1_556 S
C205 O203 1.166 . S
C205 O204 1.182 1_554 S
O206 Zn191 2.080 . S
O206 C209 1.305 . S
O207 Zn190 1.920 . S
O207 C209 1.234 . S
C208 O194 1.305 1_455 S
C208 O195 1.234 . S
C209 O206 1.305 . S
C209 O207 1.234 . S
Zn210 O216 1.920 1_565 S
Zn210 O222 1.898 . S
Zn210 O225 1.905 1_455 S
Zn211 O219 1.905 . S
Zn211 O220 1.898 . S
Zn211 O228 1.920 . S
Zn212 O215 2.080 . S
Zn212 O218 2.114 . S
Zn212 O221 2.120 . S
Zn212 O223 2.120 . S
Zn212 O224 2.114 . S
Zn212 O227 2.080 . S
C213 O218 1.166 . S
C213 O219 1.182 . S
C214 O220 1.167 . S
C214 O221 1.299 . S
O215 Zn212 2.080 . S
O215 C229 1.305 1_565 S
O216 Zn210 1.920 1_545 S
O216 C229 1.234 . S
C217 O222 1.167 . S
C217 O223 1.299 . S
O218 Zn212 2.114 . S
O218 C213 1.166 . S
O219 Zn211 1.905 . S
O219 C213 1.182 . S
O220 Zn211 1.898 . S
O220 C214 1.167 . S
O221 Zn212 2.120 . S
O221 C214 1.299 . S
O222 Zn210 1.898 . S
O222 C217 1.167 . S
O223 Zn212 2.120 . S
O223 C217 1.299 . S
O224 Zn212 2.114 . S
O224 C226 1.200 . S
O225 Zn210 1.905 1_655 S
O225 C226 1.168 1_655 S
C226 O224 1.200 . S
C226 O225 1.168 1_455 S
O227 Zn212 2.080 . S
O227 C230 1.305 . S
O228 Zn211 1.920 . S
O228 C230 1.234 . S
C229 O215 1.305 1_545 S
C229 O216 1.234 . S
C230 O227 1.305 . S
C230 O228 1.234 . S
Zn231 O237 1.920 . S
Zn231 O243 1.898 . S
Zn231 O246 1.905 . S
Zn232 O240 1.905 . S
Zn232 O241 1.898 1_655 S
Zn232 O249 1.920 . S
Zn233 O236 2.080 . S
Zn233 O239 2.114 . S
Zn233 O242 2.120 . S
Zn233 O244 2.120 . S
Zn233 O245 2.114 . S
Zn233 O248 2.080 . S
C234 O239 1.166 . S
C234 O240 1.182 . S
C235 O241 1.167 . S
C235 O242 1.299 1_455 S
O236 Zn233 2.080 . S
O236 C250 1.305 . S
O237 Zn231 1.920 . S
O237 C250 1.234 . S
C238 O243 1.167 . S
C238 O244 1.299 . S
O239 Zn233 2.114 . S
O239 C234 1.166 . S
O240 Zn232 1.905 . S
O240 C234 1.182 . S
O241 Zn232 1.898 1_455 S
O241 C235 1.167 . S
O242 Zn233 2.120 . S
O242 C235 1.299 1_655 S
O243 Zn231 1.898 . S
O243 C238 1.167 . S
O244 Zn233 2.120 . S
O244 C238 1.299 . S
O245 Zn233 2.114 . S
O245 C247 1.166 . S
O246 Zn231 1.905 . S
O246 C247 1.182 . S
C247 O245 1.166 . S
C247 O246 1.182 . S
O248 Zn233 2.080 . S
O248 C251 1.305 . S
O249 Zn232 1.920 . S
O249 C251 1.234 . S
C250 O236 1.305 . S
C250 O237 1.234 . S
C251 O248 1.305 . S
C251 O249 1.234 . S
Zn252 O258 1.920 . S
Zn252 O264 1.898 . S
Zn252 O267 1.905 . S
Zn253 O261 1.905 . S
Zn253 O262 1.898 1_565 S
Zn253 O270 1.920 . S
Zn254 O257 2.080 . S
Zn254 O260 2.114 . S
Zn254 O263 2.120 . S
Zn254 O265 2.120 . S
Zn254 O266 2.114 . S
Zn254 O269 2.080 . S
C255 O260 1.166 . S
C255 O261 1.182 . S
C256 O262 1.167 . S
C256 O263 1.299 1_545 S
O257 Zn254 2.080 . S
O257 C271 1.305 . S
O258 Zn252 1.920 . S
O258 C271 1.234 . S
C259 O264 1.167 . S
C259 O265 1.299 . S
O260 Zn254 2.114 . S
O260 C255 1.166 . S
O261 Zn253 1.905 . S
O261 C255 1.182 . S
O262 Zn253 1.898 1_545 S
O262 C256 1.167 . S
O263 Zn254 2.120 . S
O263 C256 1.299 1_565 S
O264 Zn252 1.898 . S
O264 C259 1.167 . S
O265 Zn254 2.120 . S
O265 C259 1.299 . S
O266 Zn254 2.114 . S
O266 C268 1.166 . S
O267 Zn252 1.905 . S
O267 C268 1.182 . S
C268 O266 1.166 . S
C268 O267 1.182 . S
O269 Zn254 2.080 . S
O269 C272 1.305 . S
O270 Zn253 1.920 . S
O270 C272 1.234 . S
C271 O257 1.305 . S
C271 O258 1.234 . S
C272 O269 1.305 . S
C272 O270 1.234 . S
Zn273 O279 1.920 . S
Zn273 O285 1.898 . S
Zn273 O288 1.905 . S
Zn274 O282 1.905 . S
Zn274 O283 1.898 . S
Zn274 O291 1.920 . S
Zn275 O278 2.080 . S
Zn275 O281 2.114 . S
Zn275 O284 2.120 . S
Zn275 O286 2.120 . S
Zn275 O287 2.114 . S
Zn275 O290 2.080 . S
C276 O281 1.166 . S
C276 O282 1.182 . S
C277 O283 1.167 . S
C277 O284 1.299 . S
O278 Zn275 2.080 . S
O278 C292 1.305 . S
O279 Zn273 1.920 . S
O279 C292 1.234 . S
C280 O285 1.167 . S
C280 O286 1.299 . S
O281 Zn275 2.114 . S
O281 C276 1.166 . S
O282 Zn274 1.905 . S
O282 C276 1.182 . S
O283 Zn274 1.898 . S
O283 C277 1.167 . S
O284 Zn275 2.120 . S
O284 C277 1.299 . S
O285 Zn273 1.898 . S
O285 C280 1.167 . S
O286 Zn275 2.120 . S
O286 C280 1.299 . S
O287 Zn275 2.114 . S
O287 C289 1.166 . S
O288 Zn273 1.905 . S
O288 C289 1.182 . S
C289 O287 1.166 . S
C289 O288 1.182 . S
O290 Zn275 2.080 . S
O290 C293 1.305 . S
O291 Zn274 1.920 . S
O291 C293 1.234 . S
C292 O278 1.305 . S
C292 O279 1.234 . S
C293 O290 1.305 . S
C293 O291 1.234 . S
Zn294 O300 1.920 . S
Zn294 O306 1.898 1_556 S
Zn294 O309 1.905 . S
Zn295 O303 1.905 . S
Zn295 O304 1.898 . S
Zn295 O312 1.920 . S
Zn296 O299 2.080 . S
Zn296 O302 2.114 . S
Zn296 O305 2.120 . S
Zn296 O307 2.120 . S
Zn296 O308 2.114 . S
Zn296 O311 2.080 . S
C297 O302 1.166 . S
C297 O303 1.182 . S
C298 O304 1.167 . S
C298 O305 1.299 . S
O299 Zn296 2.080 . S
O299 C313 1.305 . S
O300 Zn294 1.920 . S
O300 C313 1.234 . S
C301 O306 1.167 . S
C301 O307 1.299 1_554 S
O302 Zn296 2.114 . S
O302 C297 1.166 . S
O303 Zn295 1.905 . S
O303 C297 1.182 . S
O304 Zn295 1.898 . S
O304 C298 1.167 . S
O305 Zn296 2.120 . S
O305 C298 1.299 . S
O306 Zn294 1.898 1_554 S
O306 C301 1.167 . S
O307 Zn296 2.120 . S
O307 C301 1.299 1_556 S
O308 Zn296 2.114 . S
O308 C310 1.166 . S
O309 Zn294 1.905 . S
O309 C310 1.182 . S
C310 O308 1.166 . S
C310 O309 1.182 . S
O311 Zn296 2.080 . S
O311 C314 1.305 . S
O312 Zn295 1.920 . S
O312 C314 1.234 . S
C313 O299 1.305 . S
C313 O300 1.234 . S
C314 O311 1.305 . S
C314 O312 1.234 . S
Zn315 O321 1.920 1_556 S
Zn315 O327 1.898 . S
Zn315 O330 1.905 1_545 S
Zn316 O324 1.905 . S
Zn316 O325 1.898 . S
Zn316 O333 1.920 . S
Zn317 O320 2.080 . S
Zn317 O323 2.114 . S
Zn317 O326 2.120 . S
Zn317 O328 2.120 . S
Zn317 O329 2.114 . S
Zn317 O332 2.080 . S
C318 O323 1.166 . S
C318 O324 1.182 . S
C319 O325 1.167 . S
C319 O326 1.299 . S
O320 Zn317 2.080 . S
O320 C334 1.305 1_556 S
O321 Zn315 1.920 1_554 S
O321 C334 1.234 . S
C322 O327 1.167 . S
C322 O328 1.299 . S
O323 Zn317 2.114 . S
O323 C318 1.166 . S
O324 Zn316 1.905 . S
O324 C318 1.182 . S
O325 Zn316 1.898 . S
O325 C319 1.167 . S
O326 Zn317 2.120 . S
O326 C319 1.299 . S
O327 Zn315 1.898 . S
O327 C322 1.167 . S
O328 Zn317 2.120 . S
O328 C322 1.299 . S
O329 Zn317 2.114 . S
O329 C331 1.166 . S
O330 Zn315 1.905 1_565 S
O330 C331 1.182 1_565 S
C331 O329 1.166 . S
C331 O330 1.182 1_545 S
O332 Zn317 2.080 . S
O332 C335 1.305 . S
O333 Zn316 1.920 . S
O333 C335 1.234 . S
C334 O320 1.305 1_554 S
C334 O321 1.234 . S
C335 O332 1.305 . S
C335 O333 1.234 . S
C336 C337 1.349 . S
C336 C338 1.327 . S
C336 H361 0.950 1_455 S
C337 C336 1.349 . S
C337 C353 1.349 . S
C338 C336 1.327 . S
C338 C357 1.429 . S
C338 H362 0.950 1_455 S
C339 C356 1.574 . S
C339 C358 1.368 . S
C339 H363 0.949 . S
H340 C344 0.949 . S
C341 C342 1.349 . S
C341 C343 1.327 . S
C341 H364 0.950 . S
C342 C341 1.349 . S
C342 C354 1.349 . S
C343 C341 1.327 . S
C343 C359 1.429 . S
C343 H365 0.950 . S
C344 H340 0.949 . S
C344 C352 1.574 . S
C344 C360 1.368 . S
H345 C353 0.950 . S
H346 C351 0.950 . S
H347 C352 0.949 1_655 S
H348 C354 0.950 . S
H349 C355 0.950 . S
H350 C356 0.949 . S
C351 H346 0.950 . S
C351 C353 1.327 . S
C351 C357 1.429 . S
C352 C344 1.574 . S
C352 H347 0.949 1_455 S
C352 C358 1.368 . S
C353 C337 1.349 . S
C353 H345 0.950 . S
C353 C351 1.327 . S
C354 C342 1.349 . S
C354 H348 0.950 . S
C354 C355 1.327 . S
C355 H349 0.950 . S
C355 C354 1.327 . S
C355 C359 1.429 . S
C356 C339 1.574 . S
C356 H350 0.949 . S
C356 C360 1.368 . S
C357 C338 1.429 . S
C357 C351 1.429 . S
C357 C358 1.523 . S
C358 C339 1.368 . S
C358 C352 1.368 . S
C358 C357 1.523 . S
C359 C343 1.429 . S
C359 C355 1.429 . S
C359 C360 1.523 . S
C360 C344 1.368 . S
C360 C356 1.368 . S
C360 C359 1.523 . S
H361 C336 0.950 1_655 S
H362 C338 0.950 1_655 S
H363 C339 0.949 . S
H364 C341 0.950 . S
H365 C343 0.950 . S
C366 C367 1.349 . S
C366 C368 1.327 . S
C366 H391 0.950 . S
C367 C366 1.349 . S
C367 C383 1.349 1_655 S
C368 C366 1.327 . S
C368 C387 1.429 . S
C368 H392 0.950 . S
C369 C386 1.574 1_455 S
C369 C388 1.368 1_455 S
C369 H393 0.949 . S
H370 C374 0.949 . S
C371 C372 1.349 . S
C371 C373 1.327 . S
C371 H394 0.917 1_655 S
C372 C371 1.349 . S
C372 C384 1.349 . S
C373 C371 1.327 . S
C373 C389 1.429 . S
C373 H395 0.950 1_655 S
C374 H370 0.949 . S
C374 C382 1.574 . S
C374 C390 1.368 . S
H375 C383 0.950 . S
H376 C381 0.950 . S
H377 C382 0.949 . S
H378 C384 0.950 . S
H379 C385 0.950 . S
H380 C386 0.949 1_455 S
C381 H376 0.950 . S
C381 C383 1.327 . S
C381 C387 1.429 1_455 S
C382 C374 1.574 . S
C382 H377 0.949 . S
C382 C388 1.368 . S
C383 C367 1.349 1_455 S
C383 H375 0.950 . S
C383 C381 1.327 . S
C384 C372 1.349 . S
C384 H378 0.950 . S
C384 C385 1.327 . S
C385 H379 0.950 . S
C385 C384 1.327 . S
C385 C389 1.429 . S
C386 C369 1.574 1_655 S
C386 H380 0.949 1_655 S
C386 C390 1.368 . S
C387 C368 1.429 . S
C387 C381 1.429 1_655 S
C387 C388 1.523 . S
C388 C369 1.368 1_655 S
C388 C382 1.368 . S
C388 C387 1.523 . S
C389 C373 1.429 . S
C389 C385 1.429 . S
C389 C390 1.523 . S
C390 C374 1.368 . S
C390 C386 1.368 . S
C390 C389 1.523 . S
H391 C366 0.950 . S
H392 C368 0.950 . S
H393 C369 0.949 . S
H394 C371 0.917 1_455 S
H395 C373 0.950 1_455 S
C396 C397 1.349 . S
C396 C398 1.327 . S
C396 H421 0.950 . S
C397 C396 1.349 . S
C397 C413 1.364 . S
C398 C396 1.327 . S
C398 C417 1.429 . S
C398 H422 0.950 . S
C399 C416 1.574 . S
C399 C418 1.368 . S
C399 H423 0.948 1_455 S
H400 C404 0.949 . S
C401 C402 1.349 . S
C401 C403 1.327 . S
C401 H424 0.950 . S
C402 C401 1.349 . S
C402 C414 1.349 . S
C403 C401 1.327 . S
C403 C419 1.429 . S
C403 H425 0.950 . S
C404 H400 0.949 . S
C404 C412 1.574 . S
C404 C420 1.368 . S
H405 C413 0.931 1_655 S
H406 C411 0.950 1_655 S
H407 C412 0.949 . S
H408 C414 0.950 . S
H409 C415 0.950 . S
H410 C416 0.949 . S
C411 H406 0.950 1_455 S
C411 C413 1.331 . S
C411 C417 1.429 . S
C412 C404 1.574 . S
C412 H407 0.949 . S
C412 C418 1.368 . S
C413 C397 1.364 . S
C413 H405 0.931 1_455 S
C413 C411 1.331 . S
C414 C402 1.349 . S
C414 H408 0.950 . S
C414 C415 1.327 . S
C415 H409 0.950 . S
C415 C414 1.327 . S
C415 C419 1.429 . S
C416 C399 1.574 . S
C416 H410 0.949 . S
C416 C420 1.368 . S
C417 C398 1.429 . S
C417 C411 1.429 . S
C417 C418 1.523 . S
C418 C399 1.368 . S
C418 C412 1.368 . S
C418 C417 1.523 . S
C419 C403 1.429 . S
C419 C415 1.429 . S
C419 C420 1.523 . S
C420 C404 1.368 . S
C420 C416 1.368 . S
C420 C419 1.523 . S
H421 C396 0.950 . S
H422 C398 0.950 . S
H423 C399 0.948 1_655 S
H424 C401 0.950 . S
H425 C403 0.950 . S
C426 C427 1.349 . S
C426 C428 1.327 . S
C426 H451 0.950 . S
C427 C426 1.349 . S
C427 C443 1.349 1_655 S
C428 C426 1.327 . S
C428 C447 1.429 . S
C428 H452 0.950 . S
C429 C446 1.574 . S
C429 C448 1.368 . S
C429 H453 0.949 1_655 S
H430 C434 0.949 . S
C431 C432 1.349 . S
C431 C433 1.327 . S
C431 H454 0.950 . S
C432 C431 1.349 . S
C432 C444 1.349 . S
C433 C431 1.327 . S
C433 C449 1.429 . S
C433 H455 0.950 . S
C434 H430 0.949 . S
C434 C442 1.574 . S
C434 C450 1.368 . S
H435 C443 0.950 . S
H436 C441 0.948 . S
H437 C442 0.949 . S
H438 C444 0.950 . S
H439 C445 0.950 . S
H440 C446 0.932 1_455 S
C441 H436 0.948 . S
C441 C443 1.327 . S
C441 C447 1.431 1_455 S
C442 C434 1.574 . S
C442 H437 0.949 . S
C442 C448 1.368 . S
C443 C427 1.349 1_455 S
C443 H435 0.950 . S
C443 C441 1.327 . S
C444 C432 1.349 . S
C444 H438 0.950 . S
C444 C445 1.327 . S
C445 H439 0.950 . S
C445 C444 1.327 . S
C445 C449 1.429 . S
C446 C429 1.574 . S
C446 H440 0.932 1_655 S
C446 C450 1.368 . S
C447 C428 1.429 . S
C447 C441 1.431 1_655 S
C447 C448 1.523 . S
C448 C429 1.368 . S
C448 C442 1.368 . S
C448 C447 1.523 . S
C449 C433 1.429 . S
C449 C445 1.429 . S
C449 C450 1.523 . S
C450 C434 1.368 . S
C450 C446 1.368 . S
C450 C449 1.523 . S
H451 C426 0.950 . S
H452 C428 0.950 . S
H453 C429 0.949 1_455 S
H454 C431 0.950 . S
H455 C433 0.950 . S
C456 C457 1.349 . S
C456 C458 1.327 . S
C456 H481 0.950 . S
C457 C456 1.349 . S
C457 C473 1.373 . S
C458 C456 1.327 . S
C458 C477 1.429 . S
C458 H482 0.950 . S
C459 C476 1.574 . S
C459 C478 1.368 . S
C459 H483 0.949 1_545 S
H460 C464 0.949 . S
C461 C462 1.349 . S
C461 C463 1.327 . S
C461 H484 0.950 . S
C462 C461 1.349 . S
C462 C474 1.349 . S
C463 C461 1.327 . S
C463 C479 1.429 . S
C463 H485 0.950 . S
C464 H460 0.949 . S
C464 C472 1.574 . S
C464 C480 1.368 . S
H465 C473 0.923 1_565 S
H466 C471 0.950 1_565 S
H467 C472 0.949 . S
H468 C474 0.950 . S
H469 C475 0.950 . S
H470 C476 0.949 1_565 S
C471 H466 0.950 1_545 S
C471 C473 1.330 . S
C471 C477 1.429 . S
C472 C464 1.574 . S
C472 H467 0.949 . S
C472 C478 1.368 . S
C473 C457 1.373 . S
C473 H465 0.923 1_545 S
C473 C471 1.330 . S
C474 C462 1.349 . S
C474 H468 0.950 . S
C474 C475 1.327 . S
C475 H469 0.950 . S
C475 C474 1.327 . S
C475 C479 1.429 . S
C476 C459 1.574 . S
C476 H470 0.949 1_545 S
C476 C480 1.368 . S
C477 C458 1.429 . S
C477 C471 1.429 . S
C477 C478 1.523 . S
C478 C459 1.368 . S
C478 C472 1.368 . S
C478 C477 1.523 . S
C479 C463 1.429 . S
C479 C475 1.429 . S
C479 C480 1.523 . S
C480 C464 1.368 . S
C480 C476 1.368 . S
C480 C479 1.523 . S
H481 C456 0.950 . S
H482 C458 0.950 . S
H483 C459 0.949 1_565 S
H484 C461 0.950 . S
H485 C463 0.950 . S
C486 C487 1.349 . S
C486 C488 1.327 . S
C486 H511 0.950 . S
C487 C486 1.349 . S
C487 C503 1.349 . S
C488 C486 1.327 . S
C488 C507 1.429 . S
C488 H512 0.950 . S
C489 C506 1.574 . S
C489 C508 1.368 . S
C489 H513 0.949 . S
H490 C494 0.949 . S
C491 C492 1.349 . S
C491 C493 1.327 . S
C491 H514 0.950 . S
C492 C491 1.349 . S
C492 C504 1.349 . S
C493 C491 1.327 . S
C493 C509 1.429 . S
C493 H515 0.950 . S
C494 H490 0.949 . S
C494 C502 1.574 . S
C494 C510 1.368 . S
H495 C503 0.950 . S
H496 C501 0.950 . S
H497 C502 0.949 . S
H498 C504 0.950 . S
H499 C505 0.950 . S
H500 C506 0.949 . S
C501 H496 0.950 . S
C501 C503 1.327 . S
C501 C507 1.429 . S
C502 C494 1.574 . S
C502 H497 0.949 . S
C502 C508 1.368 . S
C503 C487 1.349 . S
C503 H495 0.950 . S
C503 C501 1.327 . S
C504 C492 1.349 . S
C504 H498 0.950 . S
C504 C505 1.327 . S
C505 H499 0.950 . S
C505 C504 1.327 . S
C505 C509 1.429 . S
C506 C489 1.574 . S
C506 H500 0.949 . S
C506 C510 1.368 . S
C507 C488 1.429 . S
C507 C501 1.429 . S
C507 C508 1.523 . S
C508 C489 1.368 . S
C508 C502 1.368 . S
C508 C507 1.523 . S
C509 C493 1.429 . S
C509 C505 1.429 . S
C509 C510 1.523 . S
C510 C494 1.368 . S
C510 C506 1.368 . S
C510 C509 1.523 . S
H511 C486 0.950 . S
H512 C488 0.950 . S
H513 C489 0.949 . S
H514 C491 0.950 . S
H515 C493 0.950 . S
C516 C517 1.349 1_545 S
C516 C518 1.327 . S
C516 H541 0.950 . S
C517 C516 1.349 1_565 S
C517 C533 1.349 . S
C518 C516 1.327 . S
C518 C537 1.429 1_545 S
C518 H542 0.950 . S
C519 C536 1.574 . S
C519 C538 1.368 . S
C519 H543 0.949 . S
H520 C524 0.940 1_545 S
C521 C522 1.349 . S
C521 C523 1.327 . S
C521 H544 0.950 . S
C522 C521 1.349 . S
C522 C534 1.349 . S
C523 C521 1.327 . S
C523 C539 1.429 . S
C523 H545 0.950 . S
C524 H520 0.940 1_565 S
C524 C532 1.572 1_565 S
C524 C540 1.381 . S
H525 C533 0.950 . S
H526 C531 0.950 . S
H527 C532 0.949 . S
H528 C534 0.959 . S
H529 C535 0.950 1_545 S
H530 C536 0.949 . S
C531 H526 0.950 . S
C531 C533 1.327 . S
C531 C537 1.429 . S
C532 C524 1.572 1_545 S
C532 H527 0.949 . S
C532 C538 1.368 1_545 S
C533 C517 1.349 . S
C533 H525 0.950 . S
C533 C531 1.327 . S
C534 C522 1.349 . S
C534 H528 0.959 . S
C534 C535 1.327 . S
C535 H529 0.950 1_565 S
C535 C534 1.327 . S
C535 C539 1.429 . S
C536 C519 1.574 . S
C536 H530 0.949 . S
C536 C540 1.368 . S
C537 C518 1.429 1_565 S
C537 C531 1.429 . S
C537 C538 1.523 . S
C538 C519 1.368 . S
C538 C532 1.368 1_565 S
C538 C537 1.523 . S
C539 C523 1.429 . S
C539 C535 1.429 . S
C539 C540 1.523 . S
C540 C524 1.381 . S
C540 C536 1.368 . S
C540 C539 1.523 . S
H541 C516 0.950 . S
H542 C518 0.950 . S
H543 C519 0.949 . S
H544 C521 0.950 . S
H545 C523 0.950 . S
C546 C547 1.349 . S
C546 C548 1.327 . S
C546 H571 0.950 . S
C547 C546 1.349 . S
C547 C563 1.349 . S
C548 C546 1.327 . S
C548 C567 1.429 . S
C548 H572 0.950 . S
C549 C566 1.574 . S
C549 C568 1.368 . S
C549 H573 0.949 . S
H550 C554 0.949 . S
C551 C552 1.349 . S
C551 C553 1.327 . S
C551 H574 0.950 . S
C552 C551 1.349 . S
C552 C564 1.349 . S
C553 C551 1.327 . S
C553 C569 1.429 . S
C553 H575 0.950 . S
C554 H550 0.949 . S
C554 C562 1.574 . S
C554 C570 1.368 . S
H555 C563 0.950 . S
H556 C561 0.950 . S
H557 C562 0.949 . S
H558 C564 0.950 . S
H559 C565 0.950 . S
H560 C566 0.949 . S
C561 H556 0.950 . S
C561 C563 1.327 . S
C561 C567 1.429 . S
C562 C554 1.574 . S
C562 H557 0.949 . S
C562 C568 1.368 . S
C563 C547 1.349 . S
C563 H555 0.950 . S
C563 C561 1.327 . S
C564 C552 1.349 . S
C564 H558 0.950 . S
C564 C565 1.327 . S
C565 H559 0.950 . S
C565 C564 1.327 . S
C565 C569 1.429 . S
C566 C549 1.574 . S
C566 H560 0.949 . S
C566 C570 1.368 . S
C567 C548 1.429 . S
C567 C561 1.429 . S
C567 C568 1.523 . S
C568 C549 1.368 . S
C568 C562 1.368 . S
C568 C567 1.523 . S
C569 C553 1.429 . S
C569 C565 1.429 . S
C569 C570 1.523 . S
C570 C554 1.368 . S
C570 C566 1.368 . S
C570 C569 1.523 . S
H571 C546 0.950 . S
H572 C548 0.950 . S
H573 C549 0.949 . S
H574 C551 0.950 . S
H575 C553 0.950 . S
C576 C577 1.349 1_556 S
C576 C578 1.327 . S
C576 H601 0.950 . S
C577 C576 1.349 1_554 S
C577 C593 1.349 . S
C578 C576 1.327 . S
C578 C597 1.429 1_556 S
C578 H602 0.950 . S
C579 C596 1.574 . S
C579 C598 1.368 . S
C579 H603 0.949 . S
H580 C584 0.949 1_556 S
C581 C582 1.349 . S
C581 C583 1.327 . S
C581 H604 0.950 . S
C582 C581 1.349 . S
C582 C594 1.349 . S
C583 C581 1.327 . S
C583 C599 1.429 . S
C583 H605 0.950 . S
C584 H580 0.949 1_554 S
C584 C592 1.574 . S
C584 C600 1.368 . S
H585 C593 0.950 . S
H586 C591 0.950 . S
H587 C592 0.949 1_556 S
H588 C594 0.957 . S
H589 C595 0.950 1_556 S
H590 C596 0.949 . S
C591 H586 0.950 . S
C591 C593 1.327 . S
C591 C597 1.429 . S
C592 C584 1.574 . S
C592 H587 0.949 1_554 S
C592 C598 1.368 . S
C593 C577 1.349 . S
C593 H585 0.950 . S
C593 C591 1.327 . S
C594 C582 1.349 . S
C594 H588 0.957 . S
C594 C595 1.327 . S
C595 H589 0.950 1_554 S
C595 C594 1.327 . S
C595 C599 1.429 . S
C596 C579 1.574 . S
C596 H590 0.949 . S
C596 C600 1.368 . S
C597 C578 1.429 1_554 S
C597 C591 1.429 . S
C597 C598 1.523 . S
C598 C579 1.368 . S
C598 C592 1.368 . S
C598 C597 1.523 . S
C599 C583 1.429 . S
C599 C595 1.429 . S
C599 C600 1.523 . S
C600 C584 1.368 . S
C600 C596 1.368 . S
C600 C599 1.523 . S
H601 C576 0.950 . S
H602 C578 0.950 . S
H603 C579 0.949 . S
H604 C581 0.950 . S
H605 C583 0.950 . S
C606 C607 1.349 . S
C606 C608 1.327 . S
C606 H631 0.950 . S
C607 C606 1.349 . S
C607 C623 1.349 . S
C608 C606 1.327 . S
C608 C627 1.429 . S
C608 H632 0.950 . S
C609 C626 1.574 . S
C609 C628 1.368 . S
C609 H633 0.949 . S
H610 C614 0.949 . S
C611 C612 1.349 . S
C611 C613 1.327 . S
C611 H634 0.950 . S
C612 C611 1.349 . S
C612 C624 1.349 . S
C613 C611 1.327 . S
C613 C629 1.429 . S
C613 H635 0.950 . S
C614 H610 0.949 . S
C614 C622 1.574 . S
C614 C630 1.368 . S
H615 C623 0.950 . S
H616 C621 0.950 . S
H617 C622 0.949 . S
H618 C624 0.950 . S
H619 C625 0.950 . S
H620 C626 0.949 . S
C621 H616 0.950 . S
C621 C623 1.327 . S
C621 C627 1.429 . S
C622 C614 1.574 . S
C622 H617 0.949 . S
C622 C628 1.368 . S
C623 C607 1.349 . S
C623 H615 0.950 . S
C623 C621 1.327 . S
C624 C612 1.349 . S
C624 H618 0.950 . S
C624 C625 1.327 . S
C625 H619 0.950 . S
C625 C624 1.327 . S
C625 C629 1.429 . S
C626 C609 1.574 . S
C626 H620 0.949 . S
C626 C630 1.368 . S
C627 C608 1.429 . S
C627 C621 1.429 . S
C627 C628 1.523 . S
C628 C609 1.368 . S
C628 C622 1.368 . S
C628 C627 1.523 . S
C629 C613 1.429 . S
C629 C625 1.429 . S
C629 C630 1.523 . S
C630 C614 1.368 . S
C630 C626 1.368 . S
C630 C629 1.523 . S
H631 C606 0.950 . S
H632 C608 0.950 . S
H633 C609 0.949 . S
H634 C611 0.950 . S
H635 C613 0.950 . S
C636 C637 1.349 . S
C636 C638 1.327 . S
C636 H661 0.950 . S
C637 C636 1.349 . S
C637 C653 1.349 . S
C638 C636 1.327 . S
C638 C657 1.429 . S
C638 H662 0.950 . S
C639 C656 1.574 . S
C639 C658 1.368 . S
C639 H663 0.949 . S
H640 C644 0.949 . S
C641 C642 1.349 . S
C641 C643 1.327 . S
C641 H664 0.950 . S
C642 C641 1.349 . S
C642 C654 1.349 . S
C643 C641 1.327 . S
C643 C659 1.429 . S
C643 H665 0.950 . S
C644 H640 0.949 . S
C644 C652 1.574 . S
C644 C660 1.368 . S
H645 C653 0.950 . S
H646 C651 0.950 . S
H647 C652 0.949 . S
H648 C654 0.950 . S
H649 C655 0.950 . S
H650 C656 0.949 . S
C651 H646 0.950 . S
C651 C653 1.327 . S
C651 C657 1.429 . S
C652 C644 1.574 . S
C652 H647 0.949 . S
C652 C658 1.368 . S
C653 C637 1.349 . S
C653 H645 0.950 . S
C653 C651 1.327 . S
C654 C642 1.349 . S
C654 H648 0.950 . S
C654 C655 1.327 . S
C655 H649 0.950 . S
C655 C654 1.327 . S
C655 C659 1.429 . S
C656 C639 1.574 . S
C656 H650 0.949 . S
C656 C660 1.368 . S
C657 C638 1.429 . S
C657 C651 1.429 . S
C657 C658 1.523 . S
C658 C639 1.368 . S
C658 C652 1.368 . S
C658 C657 1.523 . S
C659 C643 1.429 . S
C659 C655 1.429 . S
C659 C660 1.523 . S
C660 C644 1.368 . S
C660 C656 1.368 . S
C660 C659 1.523 . S
H661 C636 0.950 . S
H662 C638 0.950 . S
H663 C639 0.949 . S
H664 C641 0.950 . S
H665 C643 0.950 . S
C666 C667 1.349 . S
C666 C668 1.327 . S
C666 H691 0.950 . S
C667 C666 1.349 . S
C667 C683 1.349 . S
C668 C666 1.327 . S
C668 C687 1.429 . S
C668 H692 0.950 . S
C669 C686 1.574 . S
C669 C688 1.368 . S
C669 H693 0.949 . S
H670 C674 0.949 . S
C671 C672 1.349 . S
C671 C673 1.327 . S
C671 H694 0.950 . S
C672 C671 1.349 . S
C672 C684 1.349 . S
C673 C671 1.327 . S
C673 C689 1.429 . S
C673 H695 0.950 . S
C674 H670 0.949 . S
C674 C682 1.574 . S
C674 C690 1.368 . S
H675 C683 0.950 . S
H676 C681 0.950 . S
H677 C682 0.949 . S
H678 C684 0.950 . S
H679 C685 0.950 . S
H680 C686 0.949 . S
C681 H676 0.950 . S
C681 C683 1.327 . S
C681 C687 1.429 . S
C682 C674 1.574 . S
C682 H677 0.949 . S
C682 C688 1.368 . S
C683 C667 1.349 . S
C683 H675 0.950 . S
C683 C681 1.327 . S
C684 C672 1.349 . S
C684 H678 0.950 . S
C684 C685 1.327 . S
C685 H679 0.950 . S
C685 C684 1.327 . S
C685 C689 1.429 . S
C686 C669 1.574 . S
C686 H680 0.949 . S
C686 C690 1.368 . S
C687 C668 1.429 . S
C687 C681 1.429 . S
C687 C688 1.523 . S
C688 C669 1.368 . S
C688 C682 1.368 . S
C688 C687 1.523 . S
C689 C673 1.429 . S
C689 C685 1.429 . S
C689 C690 1.523 . S
C690 C674 1.368 . S
C690 C686 1.368 . S
C690 C689 1.523 . S
H691 C666 0.950 . S
H692 C668 0.950 . S
H693 C669 0.949 . S
H694 C671 0.950 . S
H695 C673 0.950 . S
C696 C697 1.349 . S
C696 C698 1.327 . S
C696 H721 0.950 . S
C697 C696 1.349 . S
C697 C713 1.349 . S
C698 C696 1.327 . S
C698 C717 1.429 . S
C698 H722 0.950 . S
C699 C716 1.574 . S
C699 C718 1.368 . S
C699 H723 0.949 . S
H700 C704 0.949 . S
C701 C702 1.349 . S
C701 C703 1.327 . S
C701 H724 0.950 . S
C702 C701 1.349 . S
C702 C714 1.349 . S
C703 C701 1.327 . S
C703 C719 1.429 . S
C703 H725 0.950 . S
C704 H700 0.949 . S
C704 C712 1.574 . S
C704 C720 1.368 . S
H705 C713 0.950 . S
H706 C711 0.950 . S
H707 C712 0.949 . S
H708 C714 0.950 . S
H709 C715 0.950 . S
H710 C716 0.949 . S
C711 H706 0.950 . S
C711 C713 1.327 . S
C711 C717 1.429 . S
C712 C704 1.574 . S
C712 H707 0.949 . S
C712 C718 1.368 . S
C713 C697 1.349 . S
C713 H705 0.950 . S
C713 C711 1.327 . S
C714 C702 1.349 . S
C714 H708 0.950 . S
C714 C715 1.327 . S
C715 H709 0.950 . S
C715 C714 1.327 . S
C715 C719 1.429 . S
C716 C699 1.574 . S
C716 H710 0.949 . S
C716 C720 1.368 . S
C717 C698 1.429 . S
C717 C711 1.429 . S
C717 C718 1.523 . S
C718 C699 1.368 . S
C718 C712 1.368 . S
C718 C717 1.523 . S
C719 C703 1.429 . S
C719 C715 1.429 . S
C719 C720 1.523 . S
C720 C704 1.368 . S
C720 C716 1.368 . S
C720 C719 1.523 . S
H721 C696 0.950 . S
H722 C698 0.950 . S
H723 C699 0.949 . S
H724 C701 0.950 . S
H725 C703 0.950 . S
C726 C727 1.349 . S
C726 C728 1.327 . S
C726 H751 0.950 . S
C727 C726 1.349 . S
C727 C743 1.349 . S
C728 C726 1.327 . S
C728 C747 1.429 . S
C728 H752 0.950 . S
C729 C746 1.574 . S
C729 C748 1.368 . S
C729 H753 0.949 . S
H730 C734 0.949 . S
C731 C732 1.349 . S
C731 C733 1.327 . S
C731 H754 0.950 . S
C732 C731 1.349 . S
C732 C744 1.349 . S
C733 C731 1.327 . S
C733 C749 1.429 . S
C733 H755 0.950 . S
C734 H730 0.949 . S
C734 C742 1.574 . S
C734 C750 1.368 . S
H735 C743 0.950 . S
H736 C741 0.950 . S
H737 C742 0.949 . S
H738 C744 0.950 . S
H739 C745 0.950 . S
H740 C746 0.949 . S
C741 H736 0.950 . S
C741 C743 1.327 . S
C741 C747 1.429 . S
C742 C734 1.574 . S
C742 H737 0.949 . S
C742 C748 1.368 . S
C743 C727 1.349 . S
C743 H735 0.950 . S
C743 C741 1.327 . S
C744 C732 1.349 . S
C744 H738 0.950 . S
C744 C745 1.327 . S
C745 H739 0.950 . S
C745 C744 1.327 . S
C745 C749 1.429 . S
C746 C729 1.574 . S
C746 H740 0.949 . S
C746 C750 1.368 . S
C747 C728 1.429 . S
C747 C741 1.429 . S
C747 C748 1.523 . S
C748 C729 1.368 . S
C748 C742 1.368 . S
C748 C747 1.523 . S
C749 C733 1.429 . S
C749 C745 1.429 . S
C749 C750 1.523 . S
C750 C734 1.368 . S
C750 C746 1.368 . S
C750 C749 1.523 . S
H751 C726 0.950 . S
H752 C728 0.950 . S
H753 C729 0.949 . S
H754 C731 0.950 . S
H755 C733 0.950 . S
C756 C757 1.349 . S
C756 C758 1.327 . S
C756 H781 0.950 . S
C757 C756 1.349 . S
C757 C773 1.349 . S
C758 C756 1.327 . S
C758 C777 1.429 . S
C758 H782 0.950 . S
C759 C776 1.574 . S
C759 C778 1.368 . S
C759 H783 0.949 . S
H760 C764 0.949 . S
C761 C762 1.349 . S
C761 C763 1.327 . S
C761 H784 0.950 . S
C762 C761 1.349 . S
C762 C774 1.349 . S
C763 C761 1.327 . S
C763 C779 1.429 . S
C763 H785 0.950 . S
C764 H760 0.949 . S
C764 C772 1.574 . S
C764 C780 1.368 . S
H765 C773 0.950 . S
H766 C771 0.950 . S
H767 C772 0.949 . S
H768 C774 0.950 . S
H769 C775 0.950 . S
H770 C776 0.949 . S
C771 H766 0.950 . S
C771 C773 1.327 . S
C771 C777 1.429 . S
C772 C764 1.574 . S
C772 H767 0.949 . S
C772 C778 1.368 . S
C773 C757 1.349 . S
C773 H765 0.950 . S
C773 C771 1.327 . S
C774 C762 1.349 . S
C774 H768 0.950 . S
C774 C775 1.327 . S
C775 H769 0.950 . S
C775 C774 1.327 . S
C775 C779 1.429 . S
C776 C759 1.574 . S
C776 H770 0.949 . S
C776 C780 1.368 . S
C777 C758 1.429 . S
C777 C771 1.429 . S
C777 C778 1.523 . S
C778 C759 1.368 . S
C778 C772 1.368 . S
C778 C777 1.523 . S
C779 C763 1.429 . S
C779 C775 1.429 . S
C779 C780 1.523 . S
C780 C764 1.368 . S
C780 C776 1.368 . S
C780 C779 1.523 . S
H781 C756 0.950 . S
H782 C758 0.950 . S
H783 C759 0.949 . S
H784 C761 0.950 . S
H785 C763 0.950 . S
C786 C787 1.349 . S
C786 C788 1.327 . S
C786 H811 0.950 . S
C787 C786 1.349 . S
C787 C803 1.349 . S
C788 C786 1.327 . S
C788 C807 1.429 . S
C788 H812 0.950 . S
C789 C806 1.574 . S
C789 C808 1.368 . S
C789 H813 0.949 . S
H790 C794 0.949 . S
C791 C792 1.349 . S
C791 C793 1.327 . S
C791 H814 0.950 . S
C792 C791 1.349 . S
C792 C804 1.349 . S
C793 C791 1.327 . S
C793 C809 1.429 . S
C793 H815 0.950 . S
C794 H790 0.949 . S
C794 C802 1.574 . S
C794 C810 1.368 . S
H795 C803 0.950 . S
H796 C801 0.950 . S
H797 C802 0.949 . S
H798 C804 0.950 . S
H799 C805 0.950 . S
H800 C806 0.949 . S
C801 H796 0.950 . S
C801 C803 1.327 . S
C801 C807 1.429 . S
C802 C794 1.574 . S
C802 H797 0.949 . S
C802 C808 1.368 . S
C803 C787 1.349 . S
C803 H795 0.950 . S
C803 C801 1.327 . S
C804 C792 1.349 . S
C804 H798 0.950 . S
C804 C805 1.327 . S
C805 H799 0.950 . S
C805 C804 1.327 . S
C805 C809 1.429 . S
C806 C789 1.574 . S
C806 H800 0.949 . S
C806 C810 1.368 . S
C807 C788 1.429 . S
C807 C801 1.429 . S
C807 C808 1.523 . S
C808 C789 1.368 . S
C808 C802 1.368 . S
C808 C807 1.523 . S
C809 C793 1.429 . S
C809 C805 1.429 . S
C809 C810 1.523 . S
C810 C794 1.368 . S
C810 C806 1.368 . S
C810 C809 1.523 . S
H811 C786 0.950 . S
H812 C788 0.950 . S
H813 C789 0.949 . S
H814 C791 0.950 . S
H815 C793 0.950 . S
C816 C817 1.349 . S
C816 C818 1.327 . S
C816 H841 0.950 . S
C817 C816 1.349 . S
C817 C833 1.349 . S
C818 C816 1.327 . S
C818 C837 1.429 . S
C818 H842 0.950 . S
C819 C836 1.574 . S
C819 C838 1.368 . S
C819 H843 0.949 . S
H820 C824 0.949 . S
C821 C822 1.349 . S
C821 C823 1.327 . S
C821 H844 0.950 . S
C822 C821 1.349 . S
C822 C834 1.349 . S
C823 C821 1.327 . S
C823 C839 1.429 . S
C823 H845 0.950 . S
C824 H820 0.949 . S
C824 C832 1.574 . S
C824 C840 1.368 . S
H825 C833 0.950 . S
H826 C831 0.950 . S
H827 C832 0.949 . S
H828 C834 0.950 . S
H829 C835 0.950 . S
H830 C836 0.949 . S
C831 H826 0.950 . S
C831 C833 1.327 . S
C831 C837 1.429 . S
C832 C824 1.574 . S
C832 H827 0.949 . S
C832 C838 1.368 . S
C833 C817 1.349 . S
C833 H825 0.950 . S
C833 C831 1.327 . S
C834 C822 1.349 . S
C834 H828 0.950 . S
C834 C835 1.327 . S
C835 H829 0.950 . S
C835 C834 1.327 . S
C835 C839 1.429 . S
C836 C819 1.574 . S
C836 H830 0.949 . S
C836 C840 1.368 . S
C837 C818 1.429 . S
C837 C831 1.429 . S
C837 C838 1.523 . S
C838 C819 1.368 . S
C838 C832 1.368 . S
C838 C837 1.523 . S
C839 C823 1.429 . S
C839 C835 1.429 . S
C839 C840 1.523 . S
C840 C824 1.368 . S
C840 C836 1.368 . S
C840 C839 1.523 . S
H841 C816 0.950 . S
H842 C818 0.950 . S
H843 C819 0.949 . S
H844 C821 0.950 . S
H845 C823 0.950 . S
C846 C847 1.349 1_545 S
C846 C848 1.327 . S
C846 H871 0.950 . S
C847 C846 1.349 1_565 S
C847 C863 1.349 . S
C848 C846 1.327 . S
C848 C867 1.429 1_545 S
C848 H872 0.950 . S
C849 C866 1.574 . S
C849 C868 1.368 . S
C849 H873 0.949 . S
H850 C854 0.949 1_545 S
C851 C852 1.349 . S
C851 C853 1.327 . S
C851 H874 0.950 . S
C852 C851 1.349 . S
C852 C864 1.349 . S
C853 C851 1.327 . S
C853 C869 1.429 . S
C853 H875 0.950 . S
C854 H850 0.949 1_565 S
C854 C862 1.574 . S
C854 C870 1.368 . S
H855 C863 0.950 . S
H856 C861 0.950 . S
H857 C862 0.947 1_545 S
H858 C864 0.958 . S
H859 C865 0.950 1_545 S
H860 C866 0.949 . S
C861 H856 0.950 . S
C861 C863 1.327 . S
C861 C867 1.429 . S
C862 C854 1.574 . S
C862 H857 0.947 1_565 S
C862 C868 1.370 . S
C863 C847 1.349 . S
C863 H855 0.950 . S
C863 C861 1.327 . S
C864 C852 1.349 . S
C864 H858 0.958 . S
C864 C865 1.327 . S
C865 H859 0.950 1_565 S
C865 C864 1.327 . S
C865 C869 1.429 . S
C866 C849 1.574 . S
C866 H860 0.949 . S
C866 C870 1.368 . S
C867 C848 1.429 1_565 S
C867 C861 1.429 . S
C867 C868 1.523 . S
C868 C849 1.368 . S
C868 C862 1.370 . S
C868 C867 1.523 . S
C869 C853 1.429 . S
C869 C865 1.429 . S
C869 C870 1.523 . S
C870 C854 1.368 . S
C870 C866 1.368 . S
C870 C869 1.523 . S
H871 C846 0.950 . S
H872 C848 0.950 . S
H873 C849 0.949 . S
H874 C851 0.950 . S
H875 C853 0.950 . S
C876 C877 1.349 . S
C876 C878 1.327 . S
C876 H901 0.950 . S
C877 C876 1.349 . S
C877 C893 1.349 . S
C878 C876 1.327 . S
C878 C897 1.429 . S
C878 H902 0.950 . S
C879 C896 1.574 . S
C879 C898 1.368 . S
C879 H903 0.949 . S
H880 C884 0.949 . S
C881 C882 1.349 . S
C881 C883 1.327 . S
C881 H904 0.950 . S
C882 C881 1.349 . S
C882 C894 1.349 . S
C883 C881 1.327 . S
C883 C899 1.429 . S
C883 H905 0.950 . S
C884 H880 0.949 . S
C884 C892 1.574 . S
C884 C900 1.368 . S
H885 C893 0.950 . S
H886 C891 0.950 . S
H887 C892 0.949 . S
H888 C894 0.950 . S
H889 C895 0.950 . S
H890 C896 0.949 . S
C891 H886 0.950 . S
C891 C893 1.327 . S
C891 C897 1.429 . S
C892 C884 1.574 . S
C892 H887 0.949 . S
C892 C898 1.368 . S
C893 C877 1.349 . S
C893 H885 0.950 . S
C893 C891 1.327 . S
C894 C882 1.349 . S
C894 H888 0.950 . S
C894 C895 1.327 . S
C895 H889 0.950 . S
C895 C894 1.327 . S
C895 C899 1.429 . S
C896 C879 1.574 . S
C896 H890 0.949 . S
C896 C900 1.368 . S
C897 C878 1.429 . S
C897 C891 1.429 . S
C897 C898 1.523 . S
C898 C879 1.368 . S
C898 C892 1.368 . S
C898 C897 1.523 . S
C899 C883 1.429 . S
C899 C895 1.429 . S
C899 C900 1.523 . S
C900 C884 1.368 . S
C900 C896 1.368 . S
C900 C899 1.523 . S
H901 C876 0.950 . S
H902 C878 0.950 . S
H903 C879 0.949 . S
H904 C881 0.950 . S
H905 C883 0.950 . S
C906 C907 1.349 . S
C906 C908 1.327 . S
C906 H931 0.950 . S
C907 C906 1.349 . S
C907 C923 1.325 1_545 S
C908 C906 1.327 . S
C908 C927 1.429 . S
C908 H932 0.950 . S
C909 C926 1.574 . S
C909 C928 1.368 . S
C909 H933 0.949 1_545 S
H910 C914 0.949 . S
C911 C912 1.349 . S
C911 C913 1.327 . S
C911 H934 0.950 . S
C912 C911 1.349 . S
C912 C924 1.349 . S
C913 C911 1.327 . S
C913 C929 1.429 . S
C913 H935 0.950 . S
C914 H910 0.949 . S
C914 C922 1.574 . S
C914 C930 1.368 . S
H915 C923 0.982 . S
H916 C921 0.950 1_565 S
H917 C922 0.949 . S
H918 C924 0.950 . S
H919 C925 0.950 . S
H920 C926 0.949 . S
C921 H916 0.950 1_545 S
C921 C923 1.323 1_545 S
C921 C927 1.429 . S
C922 C914 1.574 . S
C922 H917 0.949 . S
C922 C928 1.368 . S
C923 C907 1.325 1_565 S
C923 H915 0.982 . S
C923 C921 1.323 1_565 S
C924 C912 1.349 . S
C924 H918 0.950 . S
C924 C925 1.327 . S
C925 H919 0.950 . S
C925 C924 1.327 . S
C925 C929 1.429 . S
C926 C909 1.574 . S
C926 H920 0.949 . S
C926 C930 1.368 . S
C927 C908 1.429 . S
C927 C921 1.429 . S
C927 C928 1.523 . S
C928 C909 1.368 . S
C928 C922 1.368 . S
C928 C927 1.523 . S
C929 C913 1.429 . S
C929 C925 1.429 . S
C929 C930 1.523 . S
C930 C914 1.368 . S
C930 C926 1.368 . S
C930 C929 1.523 . S
H931 C906 0.950 . S
H932 C908 0.950 . S
H933 C909 0.949 1_565 S
H934 C911 0.950 . S
H935 C913 0.950 . S
C936 C937 1.349 . S
C936 C938 1.327 . S
C936 H961 0.950 . S
C937 C936 1.349 . S
C937 C953 1.349 . S
C938 C936 1.327 . S
C938 C957 1.429 . S
C938 H962 0.950 . S
C939 C956 1.574 . S
C939 C958 1.368 . S
C939 H963 0.949 . S
H940 C944 0.949 . S
C941 C942 1.349 . S
C941 C943 1.327 . S
C941 H964 0.950 . S
C942 C941 1.349 . S
C942 C954 1.349 . S
C943 C941 1.327 . S
C943 C959 1.429 . S
C943 H965 0.950 . S
C944 H940 0.949 . S
C944 C952 1.574 . S
C944 C960 1.368 . S
H945 C953 0.950 . S
H946 C951 0.950 . S
H947 C952 0.949 . S
H948 C954 0.950 . S
H949 C955 0.950 . S
H950 C956 0.949 . S
C951 H946 0.950 . S
C951 C953 1.327 . S
C951 C957 1.429 . S
C952 C944 1.574 . S
C952 H947 0.949 . S
C952 C958 1.368 . S
C953 C937 1.349 . S
C953 H945 0.950 . S
C953 C951 1.327 . S
C954 C942 1.349 . S
C954 H948 0.950 . S
C954 C955 1.327 . S
C955 H949 0.950 . S
C955 C954 1.327 . S
C955 C959 1.429 . S
C956 C939 1.574 . S
C956 H950 0.949 . S
C956 C960 1.368 . S
C957 C938 1.429 . S
C957 C951 1.429 . S
C957 C958 1.523 . S
C958 C939 1.368 . S
C958 C952 1.368 . S
C958 C957 1.523 . S
C959 C943 1.429 . S
C959 C955 1.429 . S
C959 C960 1.523 . S
C960 C944 1.368 . S
C960 C956 1.368 . S
C960 C959 1.523 . S
H961 C936 0.950 . S
H962 C938 0.950 . S
H963 C939 0.949 . S
H964 C941 0.950 . S
H965 C943 0.950 . S
C966 C967 1.346 . S
C966 C968 1.327 . S
C966 H991 0.953 1_556 S
C967 C966 1.346 . S
C967 C983 1.349 . S
C968 C966 1.327 . S
C968 C987 1.429 . S
C968 H992 0.950 1_556 S
C969 C986 1.574 . S
C969 C988 1.368 . S
C969 H993 0.949 . S
H970 C974 0.949 . S
C971 C972 1.349 . S
C971 C973 1.327 . S
C971 H994 0.950 . S
C972 C971 1.349 . S
C972 C984 1.349 . S
C973 C971 1.327 . S
C973 C989 1.429 . S
C973 H995 0.950 . S
C974 H970 0.949 . S
C974 C982 1.574 . S
C974 C990 1.368 . S
H975 C983 0.950 . S
H976 C981 0.950 . S
H977 C982 0.949 1_554 S
H978 C984 0.950 . S
H979 C985 0.950 . S
H980 C986 0.949 . S
C981 H976 0.950 . S
C981 C983 1.327 . S
C981 C987 1.429 . S
C982 C974 1.574 . S
C982 H977 0.949 1_556 S
C982 C988 1.368 . S
C983 C967 1.349 . S
C983 H975 0.950 . S
C983 C981 1.327 . S
C984 C972 1.349 . S
C984 H978 0.950 . S
C984 C985 1.327 . S
C985 H979 0.950 . S
C985 C984 1.327 . S
C985 C989 1.429 . S
C986 C969 1.574 . S
C986 H980 0.949 . S
C986 C990 1.368 . S
C987 C968 1.429 . S
C987 C981 1.429 . S
C987 C988 1.523 . S
C988 C969 1.368 . S
C988 C982 1.368 . S
C988 C987 1.523 . S
C989 C973 1.429 . S
C989 C985 1.429 . S
C989 C990 1.523 . S
C990 C974 1.368 . S
C990 C986 1.368 . S
C990 C989 1.523 . S
H991 C966 0.953 1_554 S
H992 C968 0.950 1_554 S
H993 C969 0.949 . S
H994 C971 0.950 . S
H995 C973 0.950 . S
C996 C997 1.341 1_554 S
C996 C998 1.324 1_554 S
C996 H1021 0.961 . S
C997 C996 1.341 1_556 S
C997 C1013 1.349 . S
C998 C996 1.324 1_556 S
C998 C1017 1.429 . S
C998 H1022 0.950 1_556 S
C999 C1016 1.574 . S
C999 C1018 1.368 . S
C999 H1023 0.949 . S
H1000 C1004 0.949 . S
C1001 C1002 1.349 . S
C1001 C1003 1.327 . S
C1001 H1024 0.950 . S
C1002 C1001 1.349 . S
C1002 C1014 1.349 . S
C1003 C1001 1.327 . S
C1003 C1019 1.429 . S
C1003 H1025 0.950 . S
C1004 H1000 0.949 . S
C1004 C1012 1.574 . S
C1004 C1020 1.368 . S
H1005 C1013 0.950 . S
H1006 C1011 0.950 . S
H1007 C1012 0.965 . S
H1008 C1014 0.950 . S
H1009 C1015 0.950 . S
H1010 C1016 0.949 . S
C1011 H1006 0.950 . S
C1011 C1013 1.327 . S
C1011 C1017 1.429 . S
C1012 C1004 1.574 . S
C1012 H1007 0.965 . S
C1012 C1018 1.368 . S
C1013 C997 1.349 . S
C1013 H1005 0.950 . S
C1013 C1011 1.327 . S
C1014 C1002 1.349 . S
C1014 H1008 0.950 . S
C1014 C1015 1.327 . S
C1015 H1009 0.950 . S
C1015 C1014 1.327 . S
C1015 C1019 1.429 . S
C1016 C999 1.574 . S
C1016 H1010 0.949 . S
C1016 C1020 1.368 . S
C1017 C998 1.429 . S
C1017 C1011 1.429 . S
C1017 C1018 1.523 . S
C1018 C999 1.368 . S
C1018 C1012 1.368 . S
C1018 C1017 1.523 . S
C1019 C1003 1.429 . S
C1019 C1015 1.429 . S
C1019 C1020 1.523 . S
C1020 C1004 1.368 . S
C1020 C1016 1.368 . S
C1020 C1019 1.523 . S
H1021 C996 0.961 . S
H1022 C998 0.950 1_554 S
H1023 C999 0.949 . S
H1024 C1001 0.950 . S
H1025 C1003 0.950 . S
C1026 C1027 1.349 1_556 S
C1026 C1028 1.327 . S
C1026 H1051 0.950 . S
C1027 C1026 1.349 1_554 S
C1027 C1043 1.349 . S
C1028 C1026 1.327 . S
C1028 C1047 1.429 1_556 S
C1028 H1052 0.950 . S
C1029 C1046 1.574 . S
C1029 C1048 1.368 . S
C1029 H1053 0.949 . S
H1030 C1034 0.949 1_556 S
C1031 C1032 1.349 . S
C1031 C1033 1.327 . S
C1031 H1054 0.950 . S
C1032 C1031 1.349 . S
C1032 C1044 1.349 . S
C1033 C1031 1.327 . S
C1033 C1049 1.429 . S
C1033 H1055 0.950 . S
C1034 H1030 0.949 1_554 S
C1034 C1042 1.574 . S
C1034 C1050 1.368 . S
H1035 C1043 0.950 . S
H1036 C1041 0.950 . S
H1037 C1042 0.949 1_556 S
H1038 C1044 0.950 . S
H1039 C1045 0.950 1_556 S
H1040 C1046 0.949 . S
C1041 H1036 0.950 . S
C1041 C1043 1.327 . S
C1041 C1047 1.429 . S
C1042 C1034 1.574 . S
C1042 H1037 0.949 1_554 S
C1042 C1048 1.368 . S
C1043 C1027 1.349 . S
C1043 H1035 0.950 . S
C1043 C1041 1.327 . S
C1044 C1032 1.349 . S
C1044 H1038 0.950 . S
C1044 C1045 1.327 . S
C1045 H1039 0.950 1_554 S
C1045 C1044 1.327 . S
C1045 C1049 1.429 . S
C1046 C1029 1.574 . S
C1046 H1040 0.949 . S
C1046 C1050 1.368 . S
C1047 C1028 1.429 1_554 S
C1047 C1041 1.429 . S
C1047 C1048 1.523 . S
C1048 C1029 1.368 . S
C1048 C1042 1.368 . S
C1048 C1047 1.523 . S
C1049 C1033 1.429 . S
C1049 C1045 1.429 . S
C1049 C1050 1.523 . S
C1050 C1034 1.368 . S
C1050 C1046 1.368 . S
C1050 C1049 1.523 . S
H1051 C1026 0.950 . S
H1052 C1028 0.950 . S
H1053 C1029 0.949 . S
H1054 C1031 0.950 . S
H1055 C1033 0.950 . S
C1056 C1057 1.349 . S
C1056 C1058 1.327 . S
C1056 H1081 0.950 . S
C1057 C1056 1.349 . S
C1057 C1073 1.349 . S
C1058 C1056 1.327 . S
C1058 C1077 1.429 . S
C1058 H1082 0.950 . S
C1059 C1076 1.574 . S
C1059 C1078 1.368 . S
C1059 H1083 0.949 . S
H1060 C1064 0.949 . S
C1061 C1062 1.349 . S
C1061 C1063 1.327 . S
C1061 H1084 0.950 . S
C1062 C1061 1.349 . S
C1062 C1074 1.349 . S
C1063 C1061 1.327 . S
C1063 C1079 1.429 . S
C1063 H1085 0.950 . S
C1064 H1060 0.949 . S
C1064 C1072 1.574 . S
C1064 C1080 1.368 . S
H1065 C1073 0.950 1_655 S
H1066 C1071 0.950 1_655 S
H1067 C1072 0.949 . S
H1068 C1074 0.950 . S
H1069 C1075 0.950 . S
H1070 C1076 0.949 . S
C1071 H1066 0.950 1_455 S
C1071 C1073 1.327 . S
C1071 C1077 1.429 . S
C1072 C1064 1.574 . S
C1072 H1067 0.949 . S
C1072 C1078 1.368 . S
C1073 C1057 1.349 . S
C1073 H1065 0.950 1_455 S
C1073 C1071 1.327 . S
C1074 C1062 1.349 . S
C1074 H1068 0.950 . S
C1074 C1075 1.327 . S
C1075 H1069 0.950 . S
C1075 C1074 1.327 . S
C1075 C1079 1.429 . S
C1076 C1059 1.574 . S
C1076 H1070 0.949 . S
C1076 C1080 1.368 . S
C1077 C1058 1.429 . S
C1077 C1071 1.429 . S
C1077 C1078 1.523 . S
C1078 C1059 1.368 . S
C1078 C1072 1.368 . S
C1078 C1077 1.523 . S
C1079 C1063 1.429 . S
C1079 C1075 1.429 . S
C1079 C1080 1.523 . S
C1080 C1064 1.368 . S
C1080 C1076 1.368 . S
C1080 C1079 1.523 . S
H1081 C1056 0.950 . S
H1082 C1058 0.950 . S
H1083 C1059 0.949 . S
H1084 C1061 0.950 . S
H1085 C1063 0.950 . S
C1086 C1087 1.349 . S
C1086 C1088 1.327 . S
C1086 H1111 0.950 . S
C1087 C1086 1.349 . S
C1087 C1103 1.349 1_655 S
C1088 C1086 1.327 . S
C1088 C1107 1.429 . S
C1088 H1112 0.950 . S
C1089 C1106 1.574 1_455 S
C1089 C1108 1.368 1_455 S
C1089 H1113 0.949 . S
H1090 C1094 0.949 . S
C1091 C1092 1.349 . S
C1091 C1093 1.327 . S
C1091 H1114 0.950 1_655 S
C1092 C1091 1.349 . S
C1092 C1104 1.349 . S
C1093 C1091 1.327 . S
C1093 C1109 1.429 . S
C1093 H1115 0.950 1_655 S
C1094 H1090 0.949 . S
C1094 C1102 1.574 . S
C1094 C1110 1.368 . S
H1095 C1103 0.950 . S
H1096 C1101 0.950 . S
H1097 C1102 0.949 . S
H1098 C1104 0.950 . S
H1099 C1105 0.950 . S
H1100 C1106 0.951 1_455 S
C1101 H1096 0.950 . S
C1101 C1103 1.327 . S
C1101 C1107 1.429 1_455 S
C1102 C1094 1.574 . S
C1102 H1097 0.949 . S
C1102 C1108 1.368 . S
C1103 C1087 1.349 1_455 S
C1103 H1095 0.950 . S
C1103 C1101 1.327 . S
C1104 C1092 1.349 . S
C1104 H1098 0.950 . S
C1104 C1105 1.327 . S
C1105 H1099 0.950 . S
C1105 C1104 1.327 . S
C1105 C1109 1.429 . S
C1106 C1089 1.574 1_655 S
C1106 H1100 0.951 1_655 S
C1106 C1110 1.366 . S
C1107 C1088 1.429 . S
C1107 C1101 1.429 1_655 S
C1107 C1108 1.523 . S
C1108 C1089 1.368 1_655 S
C1108 C1102 1.368 . S
C1108 C1107 1.523 . S
C1109 C1093 1.429 . S
C1109 C1105 1.429 . S
C1109 C1110 1.523 . S
C1110 C1094 1.368 . S
C1110 C1106 1.366 . S
C1110 C1109 1.523 . S
H1111 C1086 0.950 . S
H1112 C1088 0.950 . S
H1113 C1089 0.949 . S
H1114 C1091 0.950 1_455 S
H1115 C1093 0.950 1_455 S
C1116 C1117 1.349 . S
C1116 C1118 1.327 . S
C1116 H1141 0.950 . S
C1117 C1116 1.349 . S
C1117 C1133 1.349 . S
C1118 C1116 1.327 . S
C1118 C1137 1.429 . S
C1118 H1142 0.950 . S
C1119 C1136 1.574 . S
C1119 C1138 1.368 . S
C1119 H1143 0.949 . S
H1120 C1124 0.949 . S
C1121 C1122 1.349 . S
C1121 C1123 1.327 . S
C1121 H1144 0.950 . S
C1122 C1121 1.349 . S
C1122 C1134 1.349 . S
C1123 C1121 1.327 . S
C1123 C1139 1.429 . S
C1123 H1145 0.950 . S
C1124 H1120 0.949 . S
C1124 C1132 1.574 . S
C1124 C1140 1.368 . S
H1125 C1133 0.950 . S
H1126 C1131 0.950 . S
H1127 C1132 0.949 . S
H1128 C1134 0.950 . S
H1129 C1135 0.950 . S
H1130 C1136 0.949 . S
C1131 H1126 0.950 . S
C1131 C1133 1.327 . S
C1131 C1137 1.429 . S
C1132 C1124 1.574 . S
C1132 H1127 0.949 . S
C1132 C1138 1.368 . S
C1133 C1117 1.349 . S
C1133 H1125 0.950 . S
C1133 C1131 1.327 . S
C1134 C1122 1.349 . S
C1134 H1128 0.950 . S
C1134 C1135 1.327 . S
C1135 H1129 0.950 . S
C1135 C1134 1.327 . S
C1135 C1139 1.429 . S
C1136 C1119 1.574 . S
C1136 H1130 0.949 . S
C1136 C1140 1.368 . S
C1137 C1118 1.429 . S
C1137 C1131 1.429 . S
C1137 C1138 1.523 . S
C1138 C1119 1.368 . S
C1138 C1132 1.368 . S
C1138 C1137 1.523 . S
C1139 C1123 1.429 . S
C1139 C1135 1.429 . S
C1139 C1140 1.523 . S
C1140 C1124 1.368 . S
C1140 C1136 1.368 . S
C1140 C1139 1.523 . S
H1141 C1116 0.950 . S
H1142 C1118 0.950 . S
H1143 C1119 0.949 . S
H1144 C1121 0.950 . S
H1145 C1123 0.950 . S
C1146 C1147 1.349 . S
C1146 C1148 1.327 . S
C1146 H1171 0.950 . S
C1147 C1146 1.349 . S
C1147 C1163 1.349 1_655 S
C1148 C1146 1.327 . S
C1148 C1167 1.429 . S
C1148 H1172 0.950 . S
C1149 C1166 1.574 . S
C1149 C1168 1.368 . S
C1149 H1173 0.949 1_655 S
H1150 C1154 0.949 . S
C1151 C1152 1.349 . S
C1151 C1153 1.327 . S
C1151 H1174 0.950 . S
C1152 C1151 1.349 . S
C1152 C1164 1.349 . S
C1153 C1151 1.327 . S
C1153 C1169 1.429 . S
C1153 H1175 0.950 . S
C1154 H1150 0.949 . S
C1154 C1162 1.574 . S
C1154 C1170 1.368 . S
H1155 C1163 0.950 . S
H1156 C1161 0.947 . S
H1157 C1162 0.949 . S
H1158 C1164 0.950 . S
H1159 C1165 0.950 . S
H1160 C1166 0.949 1_455 S
C1161 H1156 0.947 . S
C1161 C1163 1.327 . S
C1161 C1167 1.431 1_455 S
C1162 C1154 1.574 . S
C1162 H1157 0.949 . S
C1162 C1168 1.368 . S
C1163 C1147 1.349 1_455 S
C1163 H1155 0.950 . S
C1163 C1161 1.327 . S
C1164 C1152 1.349 . S
C1164 H1158 0.950 . S
C1164 C1165 1.327 . S
C1165 H1159 0.950 . S
C1165 C1164 1.327 . S
C1165 C1169 1.429 . S
C1166 C1149 1.574 . S
C1166 H1160 0.949 1_655 S
C1166 C1170 1.368 . S
C1167 C1148 1.429 . S
C1167 C1161 1.431 1_655 S
C1167 C1168 1.523 . S
C1168 C1149 1.368 . S
C1168 C1162 1.368 . S
C1168 C1167 1.523 . S
C1169 C1153 1.429 . S
C1169 C1165 1.429 . S
C1169 C1170 1.523 . S
C1170 C1154 1.368 . S
C1170 C1166 1.368 . S
C1170 C1169 1.523 . S
H1171 C1146 0.950 . S
H1172 C1148 0.950 . S
H1173 C1149 0.949 1_455 S
H1174 C1151 0.950 . S
H1175 C1153 0.950 . S
C1176 C1177 1.349 . S
C1176 C1178 1.327 . S
C1176 H1201 0.950 . S
C1177 C1176 1.349 . S
C1177 C1193 1.315 1_545 S
C1178 C1176 1.327 . S
C1178 C1197 1.429 . S
C1178 H1202 0.950 . S
C1179 C1196 1.574 . S
C1179 C1198 1.368 . S
C1179 H1203 0.949 1_545 S
H1180 C1184 0.949 . S
C1181 C1182 1.349 . S
C1181 C1183 1.327 . S
C1181 H1204 0.975 . S
C1182 C1181 1.349 . S
C1182 C1194 1.349 . S
C1183 C1181 1.327 . S
C1183 C1199 1.429 . S
C1183 H1205 0.950 1_545 S
C1184 H1180 0.949 . S
C1184 C1192 1.574 . S
C1184 C1200 1.368 . S
H1185 C1193 0.988 . S
H1186 C1191 0.938 1_565 S
H1187 C1192 0.949 . S
H1188 C1194 0.950 . S
H1189 C1195 0.950 . S
H1190 C1196 0.949 1_565 S
C1191 H1186 0.938 1_545 S
C1191 C1193 1.325 1_545 S
C1191 C1197 1.441 . S
C1192 C1184 1.574 . S
C1192 H1187 0.949 . S
C1192 C1198 1.368 . S
C1193 C1177 1.315 1_565 S
C1193 H1185 0.988 . S
C1193 C1191 1.325 1_565 S
C1194 C1182 1.349 . S
C1194 H1188 0.950 . S
C1194 C1195 1.327 . S
C1195 H1189 0.950 . S
C1195 C1194 1.327 . S
C1195 C1199 1.429 . S
C1196 C1179 1.574 . S
C1196 H1190 0.949 1_545 S
C1196 C1200 1.368 . S
C1197 C1178 1.429 . S
C1197 C1191 1.441 . S
C1197 C1198 1.523 . S
C1198 C1179 1.368 . S
C1198 C1192 1.368 . S
C1198 C1197 1.523 . S
C1199 C1183 1.429 . S
C1199 C1195 1.429 . S
C1199 C1200 1.523 . S
C1200 C1184 1.368 . S
C1200 C1196 1.368 . S
C1200 C1199 1.523 . S
H1201 C1176 0.950 . S
H1202 C1178 0.950 . S
H1203 C1179 0.949 1_565 S
H1204 C1181 0.975 . S
H1205 C1183 0.950 1_565 S
C1206 C1207 1.349 . S
C1206 C1208 1.327 . S
C1206 H1231 0.950 . S
C1207 C1206 1.349 . S
C1207 C1223 1.349 . S
C1208 C1206 1.327 . S
C1208 C1227 1.429 . S
C1208 H1232 0.950 . S
C1209 C1226 1.574 . S
C1209 C1228 1.368 . S
C1209 H1233 0.949 . S
H1210 C1214 0.949 . S
C1211 C1212 1.349 . S
C1211 C1213 1.327 . S
C1211 H1234 0.950 . S
C1212 C1211 1.349 . S
C1212 C1224 1.349 . S
C1213 C1211 1.327 . S
C1213 C1229 1.429 . S
C1213 H1235 0.950 . S
C1214 H1210 0.949 . S
C1214 C1222 1.574 . S
C1214 C1230 1.368 . S
H1215 C1223 0.950 . S
H1216 C1221 0.950 . S
H1217 C1222 0.949 . S
H1218 C1224 0.950 . S
H1219 C1225 0.950 . S
H1220 C1226 0.949 . S
C1221 H1216 0.950 . S
C1221 C1223 1.327 . S
C1221 C1227 1.429 . S
C1222 C1214 1.574 . S
C1222 H1217 0.949 . S
C1222 C1228 1.368 . S
C1223 C1207 1.349 . S
C1223 H1215 0.950 . S
C1223 C1221 1.327 . S
C1224 C1212 1.349 . S
C1224 H1218 0.950 . S
C1224 C1225 1.327 . S
C1225 H1219 0.950 . S
C1225 C1224 1.327 . S
C1225 C1229 1.429 . S
C1226 C1209 1.574 . S
C1226 H1220 0.949 . S
C1226 C1230 1.368 . S
C1227 C1208 1.429 . S
C1227 C1221 1.429 . S
C1227 C1228 1.523 . S
C1228 C1209 1.368 . S
C1228 C1222 1.368 . S
C1228 C1227 1.523 . S
C1229 C1213 1.429 . S
C1229 C1225 1.429 . S
C1229 C1230 1.523 . S
C1230 C1214 1.368 . S
C1230 C1226 1.368 . S
C1230 C1229 1.523 . S
H1231 C1206 0.950 . S
H1232 C1208 0.950 . S
H1233 C1209 0.949 . S
H1234 C1211 0.950 . S
H1235 C1213 0.950 . S
C1236 C1237 1.349 . S
C1236 C1238 1.327 . S
C1236 H1261 0.950 . S
C1237 C1236 1.349 . S
C1237 C1253 1.349 1_565 S
C1238 C1236 1.327 . S
C1238 C1257 1.429 . S
C1238 H1262 0.950 . S
C1239 C1256 1.574 . S
C1239 C1258 1.368 1_545 S
C1239 H1263 0.949 . S
H1240 C1244 0.949 . S
C1241 C1242 1.336 1_545 S
C1241 C1243 1.329 . S
C1241 H1264 0.962 . S
C1242 C1241 1.336 1_565 S
C1242 C1254 1.349 . S
C1243 C1241 1.329 . S
C1243 C1259 1.429 1_545 S
C1243 H1265 0.950 . S
C1244 H1240 0.949 . S
C1244 C1252 1.574 . S
C1244 C1260 1.368 . S
H1245 C1253 0.950 . S
H1246 C1251 0.950 . S
H1247 C1252 0.949 . S
H1248 C1254 0.950 . S
H1249 C1255 0.950 . S
H1250 C1256 0.949 . S
C1251 H1246 0.950 . S
C1251 C1253 1.327 . S
C1251 C1257 1.429 1_545 S
C1252 C1244 1.574 . S
C1252 H1247 0.949 . S
C1252 C1258 1.368 . S
C1253 C1237 1.349 1_545 S
C1253 H1245 0.950 . S
C1253 C1251 1.327 . S
C1254 C1242 1.349 . S
C1254 H1248 0.950 . S
C1254 C1255 1.327 . S
C1255 H1249 0.950 . S
C1255 C1254 1.327 . S
C1255 C1259 1.429 . S
C1256 C1239 1.574 . S
C1256 H1250 0.949 . S
C1256 C1260 1.368 1_545 S
C1257 C1238 1.429 . S
C1257 C1251 1.429 1_565 S
C1257 C1258 1.523 . S
C1258 C1239 1.368 1_565 S
C1258 C1252 1.368 . S
C1258 C1257 1.523 . S
C1259 C1243 1.429 1_565 S
C1259 C1255 1.429 . S
C1259 C1260 1.523 . S
C1260 C1244 1.368 . S
C1260 C1256 1.368 1_565 S
C1260 C1259 1.523 . S
H1261 C1236 0.950 . S
H1262 C1238 0.950 . S
H1263 C1239 0.949 . S
H1264 C1241 0.962 . S
H1265 C1243 0.950 . S
C1266 C1267 1.349 . S
C1266 C1268 1.327 . S
C1266 H1291 0.950 . S
C1267 C1266 1.349 . S
C1267 C1283 1.349 . S
C1268 C1266 1.327 . S
C1268 C1287 1.429 . S
C1268 H1292 0.950 . S
C1269 C1286 1.574 . S
C1269 C1288 1.368 . S
C1269 H1293 0.949 . S
H1270 C1274 0.949 . S
C1271 C1272 1.349 . S
C1271 C1273 1.327 . S
C1271 H1294 0.950 . S
C1272 C1271 1.349 . S
C1272 C1284 1.349 . S
C1273 C1271 1.327 . S
C1273 C1289 1.429 . S
C1273 H1295 0.950 . S
C1274 H1270 0.949 . S
C1274 C1282 1.574 . S
C1274 C1290 1.368 . S
H1275 C1283 0.950 . S
H1276 C1281 0.950 . S
H1277 C1282 0.949 . S
H1278 C1284 0.950 . S
H1279 C1285 0.950 . S
H1280 C1286 0.949 . S
C1281 H1276 0.950 . S
C1281 C1283 1.327 . S
C1281 C1287 1.429 . S
C1282 C1274 1.574 . S
C1282 H1277 0.949 . S
C1282 C1288 1.368 . S
C1283 C1267 1.349 . S
C1283 H1275 0.950 . S
C1283 C1281 1.327 . S
C1284 C1272 1.349 . S
C1284 H1278 0.950 . S
C1284 C1285 1.327 . S
C1285 H1279 0.950 . S
C1285 C1284 1.327 . S
C1285 C1289 1.429 . S
C1286 C1269 1.574 . S
C1286 H1280 0.949 . S
C1286 C1290 1.368 . S
C1287 C1268 1.429 . S
C1287 C1281 1.429 . S
C1287 C1288 1.523 . S
C1288 C1269 1.368 . S
C1288 C1282 1.368 . S
C1288 C1287 1.523 . S
C1289 C1273 1.429 . S
C1289 C1285 1.429 . S
C1289 C1290 1.523 . S
C1290 C1274 1.368 . S
C1290 C1286 1.368 . S
C1290 C1289 1.523 . S
H1291 C1266 0.950 . S
H1292 C1268 0.950 . S
H1293 C1269 0.949 . S
H1294 C1271 0.950 . S
H1295 C1273 0.950 . S
C1296 C1297 1.349 1_556 S
C1296 C1298 1.327 . S
C1296 H1321 0.950 . S
C1297 C1296 1.349 1_554 S
C1297 C1313 1.349 . S
C1298 C1296 1.327 . S
C1298 C1317 1.429 1_556 S
C1298 H1322 0.950 . S
C1299 C1316 1.574 . S
C1299 C1318 1.368 . S
C1299 H1323 0.949 . S
H1300 C1304 0.949 1_556 S
C1301 C1302 1.349 . S
C1301 C1303 1.327 . S
C1301 H1324 0.950 . S
C1302 C1301 1.349 . S
C1302 C1314 1.349 . S
C1303 C1301 1.327 . S
C1303 C1319 1.429 . S
C1303 H1325 0.950 . S
C1304 H1300 0.949 1_554 S
C1304 C1312 1.574 . S
C1304 C1320 1.368 . S
H1305 C1313 0.950 . S
H1306 C1311 0.950 . S
H1307 C1312 0.949 1_556 S
H1308 C1314 0.933 1_556 S
H1309 C1315 0.950 1_556 S
H1310 C1316 0.949 . S
C1311 H1306 0.950 . S
C1311 C1313 1.327 . S
C1311 C1317 1.429 . S
C1312 C1304 1.574 . S
C1312 H1307 0.949 1_554 S
C1312 C1318 1.368 . S
C1313 C1297 1.349 . S
C1313 H1305 0.950 . S
C1313 C1311 1.327 . S
C1314 C1302 1.349 . S
C1314 H1308 0.933 1_554 S
C1314 C1315 1.327 . S
C1315 H1309 0.950 1_554 S
C1315 C1314 1.327 . S
C1315 C1319 1.429 . S
C1316 C1299 1.574 . S
C1316 H1310 0.949 . S
C1316 C1320 1.368 . S
C1317 C1298 1.429 1_554 S
C1317 C1311 1.429 . S
C1317 C1318 1.523 . S
C1318 C1299 1.368 . S
C1318 C1312 1.368 . S
C1318 C1317 1.523 . S
C1319 C1303 1.429 . S
C1319 C1315 1.429 . S
C1319 C1320 1.523 . S
C1320 C1304 1.368 . S
C1320 C1316 1.368 . S
C1320 C1319 1.523 . S
H1321 C1296 0.950 . S
H1322 C1298 0.950 . S
H1323 C1299 0.949 . S
H1324 C1301 0.950 . S
H1325 C1303 0.950 . S
C1326 C1327 1.349 . S
C1326 C1328 1.327 . S
C1326 H1351 0.950 . S
C1327 C1326 1.349 . S
C1327 C1343 1.349 . S
C1328 C1326 1.327 . S
C1328 C1347 1.429 . S
C1328 H1352 0.950 . S
C1329 C1346 1.574 . S
C1329 C1348 1.368 . S
C1329 H1353 0.949 . S
H1330 C1334 0.949 . S
C1331 C1332 1.349 . S
C1331 C1333 1.327 . S
C1331 H1354 0.950 . S
C1332 C1331 1.349 . S
C1332 C1344 1.349 . S
C1333 C1331 1.327 . S
C1333 C1349 1.429 . S
C1333 H1355 0.950 . S
C1334 H1330 0.949 . S
C1334 C1342 1.574 . S
C1334 C1350 1.368 . S
H1335 C1343 0.950 . S
H1336 C1341 0.950 . S
H1337 C1342 0.949 . S
H1338 C1344 0.950 . S
H1339 C1345 0.950 . S
H1340 C1346 0.949 . S
C1341 H1336 0.950 . S
C1341 C1343 1.327 . S
C1341 C1347 1.429 . S
C1342 C1334 1.574 . S
C1342 H1337 0.949 . S
C1342 C1348 1.368 . S
C1343 C1327 1.349 . S
C1343 H1335 0.950 . S
C1343 C1341 1.327 . S
C1344 C1332 1.349 . S
C1344 H1338 0.950 . S
C1344 C1345 1.327 . S
C1345 H1339 0.950 . S
C1345 C1344 1.327 . S
C1345 C1349 1.429 . S
C1346 C1329 1.574 . S
C1346 H1340 0.949 . S
C1346 C1350 1.368 . S
C1347 C1328 1.429 . S
C1347 C1341 1.429 . S
C1347 C1348 1.523 . S
C1348 C1329 1.368 . S
C1348 C1342 1.368 . S
C1348 C1347 1.523 . S
C1349 C1333 1.429 . S
C1349 C1345 1.429 . S
C1349 C1350 1.523 . S
C1350 C1334 1.368 . S
C1350 C1346 1.368 . S
C1350 C1349 1.523 . S
H1351 C1326 0.950 . S
H1352 C1328 0.950 . S
H1353 C1329 0.949 . S
H1354 C1331 0.950 . S
H1355 C1333 0.950 . S
C1356 C1357 1.349 . S
C1356 C1358 1.327 . S
C1356 H1381 0.950 . S
C1357 C1356 1.349 . S
C1357 C1373 1.349 . S
C1358 C1356 1.327 . S
C1358 C1377 1.429 . S
C1358 H1382 0.950 . S
C1359 C1376 1.574 . S
C1359 C1378 1.368 . S
C1359 H1383 0.949 . S
H1360 C1364 0.949 . S
C1361 C1362 1.349 . S
C1361 C1363 1.327 . S
C1361 H1384 0.950 . S
C1362 C1361 1.349 . S
C1362 C1374 1.349 . S
C1363 C1361 1.327 . S
C1363 C1379 1.429 . S
C1363 H1385 0.950 . S
C1364 H1360 0.949 . S
C1364 C1372 1.574 . S
C1364 C1380 1.368 . S
H1365 C1373 0.950 . S
H1366 C1371 0.950 . S
H1367 C1372 0.949 . S
H1368 C1374 0.950 . S
H1369 C1375 0.950 . S
H1370 C1376 0.949 . S
C1371 H1366 0.950 . S
C1371 C1373 1.327 . S
C1371 C1377 1.429 . S
C1372 C1364 1.574 . S
C1372 H1367 0.949 . S
C1372 C1378 1.368 . S
C1373 C1357 1.349 . S
C1373 H1365 0.950 . S
C1373 C1371 1.327 . S
C1374 C1362 1.349 . S
C1374 H1368 0.950 . S
C1374 C1375 1.327 . S
C1375 H1369 0.950 . S
C1375 C1374 1.327 . S
C1375 C1379 1.429 . S
C1376 C1359 1.574 . S
C1376 H1370 0.949 . S
C1376 C1380 1.368 . S
C1377 C1358 1.429 . S
C1377 C1371 1.429 . S
C1377 C1378 1.523 . S
C1378 C1359 1.368 . S
C1378 C1372 1.368 . S
C1378 C1377 1.523 . S
C1379 C1363 1.429 . S
C1379 C1375 1.429 . S
C1379 C1380 1.523 . S
C1380 C1364 1.368 . S
C1380 C1376 1.368 . S
C1380 C1379 1.523 . S
H1381 C1356 0.950 . S
H1382 C1358 0.950 . S
H1383 C1359 0.949 . S
H1384 C1361 0.950 . S
H1385 C1363 0.950 . S
C1386 C1387 1.349 . S
C1386 C1388 1.327 . S
C1386 H1411 0.950 . S
C1387 C1386 1.349 . S
C1387 C1403 1.349 . S
C1388 C1386 1.327 . S
C1388 C1407 1.429 . S
C1388 H1412 0.950 . S
C1389 C1406 1.574 . S
C1389 C1408 1.368 . S
C1389 H1413 0.949 . S
H1390 C1394 0.949 . S
C1391 C1392 1.349 . S
C1391 C1393 1.327 . S
C1391 H1414 0.950 . S
C1392 C1391 1.349 . S
C1392 C1404 1.349 . S
C1393 C1391 1.327 . S
C1393 C1409 1.429 . S
C1393 H1415 0.950 . S
C1394 H1390 0.949 . S
C1394 C1402 1.574 . S
C1394 C1410 1.368 . S
H1395 C1403 0.950 . S
H1396 C1401 0.950 . S
H1397 C1402 0.949 . S
H1398 C1404 0.950 . S
H1399 C1405 0.950 . S
H1400 C1406 0.949 . S
C1401 H1396 0.950 . S
C1401 C1403 1.327 . S
C1401 C1407 1.429 . S
C1402 C1394 1.574 . S
C1402 H1397 0.949 . S
C1402 C1408 1.368 . S
C1403 C1387 1.349 . S
C1403 H1395 0.950 . S
C1403 C1401 1.327 . S
C1404 C1392 1.349 . S
C1404 H1398 0.950 . S
C1404 C1405 1.327 . S
C1405 H1399 0.950 . S
C1405 C1404 1.327 . S
C1405 C1409 1.429 . S
C1406 C1389 1.574 . S
C1406 H1400 0.949 . S
C1406 C1410 1.368 . S
C1407 C1388 1.429 . S
C1407 C1401 1.429 . S
C1407 C1408 1.523 . S
C1408 C1389 1.368 . S
C1408 C1402 1.368 . S
C1408 C1407 1.523 . S
C1409 C1393 1.429 . S
C1409 C1405 1.429 . S
C1409 C1410 1.523 . S
C1410 C1394 1.368 . S
C1410 C1406 1.368 . S
C1410 C1409 1.523 . S
H1411 C1386 0.950 . S
H1412 C1388 0.950 . S
H1413 C1389 0.949 . S
H1414 C1391 0.950 . S
H1415 C1393 0.950 . S
C1416 C1417 1.349 . S
C1416 C1418 1.327 . S
C1416 H1441 0.950 . S
C1417 C1416 1.349 . S
C1417 C1433 1.349 . S
C1418 C1416 1.327 . S
C1418 C1437 1.429 . S
C1418 H1442 0.950 . S
C1419 C1436 1.574 . S
C1419 C1438 1.368 . S
C1419 H1443 0.949 . S
H1420 C1424 0.949 . S
C1421 C1422 1.349 . S
C1421 C1423 1.327 . S
C1421 H1444 0.950 . S
C1422 C1421 1.349 . S
C1422 C1434 1.349 . S
C1423 C1421 1.327 . S
C1423 C1439 1.429 . S
C1423 H1445 0.950 . S
C1424 H1420 0.949 . S
C1424 C1432 1.574 . S
C1424 C1440 1.368 . S
H1425 C1433 0.950 . S
H1426 C1431 0.950 . S
H1427 C1432 0.949 . S
H1428 C1434 0.950 . S
H1429 C1435 0.950 . S
H1430 C1436 0.949 . S
C1431 H1426 0.950 . S
C1431 C1433 1.327 . S
C1431 C1437 1.429 . S
C1432 C1424 1.574 . S
C1432 H1427 0.949 . S
C1432 C1438 1.368 . S
C1433 C1417 1.349 . S
C1433 H1425 0.950 . S
C1433 C1431 1.327 . S
C1434 C1422 1.349 . S
C1434 H1428 0.950 . S
C1434 C1435 1.327 . S
C1435 H1429 0.950 . S
C1435 C1434 1.327 . S
C1435 C1439 1.429 . S
C1436 C1419 1.574 . S
C1436 H1430 0.949 . S
C1436 C1440 1.368 . S
C1437 C1418 1.429 . S
C1437 C1431 1.429 . S
C1437 C1438 1.523 . S
C1438 C1419 1.368 . S
C1438 C1432 1.368 . S
C1438 C1437 1.523 . S
C1439 C1423 1.429 . S
C1439 C1435 1.429 . S
C1439 C1440 1.523 . S
C1440 C1424 1.368 . S
C1440 C1436 1.368 . S
C1440 C1439 1.523 . S
H1441 C1416 0.950 . S
H1442 C1418 0.950 . S
H1443 C1419 0.949 . S
H1444 C1421 0.950 . S
H1445 C1423 0.950 . S
C1446 C1447 1.349 . S
C1446 C1448 1.327 . S
C1446 H1471 0.950 . S
C1447 C1446 1.349 . S
C1447 C1463 1.349 . S
C1448 C1446 1.327 . S
C1448 C1467 1.429 . S
C1448 H1472 0.950 . S
C1449 C1466 1.574 . S
C1449 C1468 1.368 . S
C1449 H1473 0.949 . S
H1450 C1454 0.949 . S
C1451 C1452 1.349 . S
C1451 C1453 1.327 . S
C1451 H1474 0.950 . S
C1452 C1451 1.349 . S
C1452 C1464 1.349 . S
C1453 C1451 1.327 . S
C1453 C1469 1.429 . S
C1453 H1475 0.950 . S
C1454 H1450 0.949 . S
C1454 C1462 1.574 . S
C1454 C1470 1.368 . S
H1455 C1463 0.950 . S
H1456 C1461 0.950 . S
H1457 C1462 0.949 . S
H1458 C1464 0.950 . S
H1459 C1465 0.950 . S
H1460 C1466 0.949 . S
C1461 H1456 0.950 . S
C1461 C1463 1.327 . S
C1461 C1467 1.429 . S
C1462 C1454 1.574 . S
C1462 H1457 0.949 . S
C1462 C1468 1.368 . S
C1463 C1447 1.349 . S
C1463 H1455 0.950 . S
C1463 C1461 1.327 . S
C1464 C1452 1.349 . S
C1464 H1458 0.950 . S
C1464 C1465 1.327 . S
C1465 H1459 0.950 . S
C1465 C1464 1.327 . S
C1465 C1469 1.429 . S
C1466 C1449 1.574 . S
C1466 H1460 0.949 . S
C1466 C1470 1.368 . S
C1467 C1448 1.429 . S
C1467 C1461 1.429 . S
C1467 C1468 1.523 . S
C1468 C1449 1.368 . S
C1468 C1462 1.368 . S
C1468 C1467 1.523 . S
C1469 C1453 1.429 . S
C1469 C1465 1.429 . S
C1469 C1470 1.523 . S
C1470 C1454 1.368 . S
C1470 C1466 1.368 . S
C1470 C1469 1.523 . S
H1471 C1446 0.950 . S
H1472 C1448 0.950 . S
H1473 C1449 0.949 . S
H1474 C1451 0.950 . S
H1475 C1453 0.950 . S
C1476 C1477 1.349 . S
C1476 C1478 1.327 . S
C1476 H1501 0.950 . S
C1477 C1476 1.349 . S
C1477 C1493 1.349 . S
C1478 C1476 1.327 . S
C1478 C1497 1.429 . S
C1478 H1502 0.950 . S
C1479 C1496 1.574 . S
C1479 C1498 1.368 . S
C1479 H1503 0.949 . S
H1480 C1484 0.949 . S
C1481 C1482 1.349 . S
C1481 C1483 1.327 . S
C1481 H1504 0.950 . S
C1482 C1481 1.349 . S
C1482 C1494 1.349 . S
C1483 C1481 1.327 . S
C1483 C1499 1.429 . S
C1483 H1505 0.950 . S
C1484 H1480 0.949 . S
C1484 C1492 1.574 . S
C1484 C1500 1.368 . S
H1485 C1493 0.950 . S
H1486 C1491 0.950 . S
H1487 C1492 0.949 . S
H1488 C1494 0.950 . S
H1489 C1495 0.950 . S
H1490 C1496 0.949 . S
C1491 H1486 0.950 . S
C1491 C1493 1.327 . S
C1491 C1497 1.429 . S
C1492 C1484 1.574 . S
C1492 H1487 0.949 . S
C1492 C1498 1.368 . S
C1493 C1477 1.349 . S
C1493 H1485 0.950 . S
C1493 C1491 1.327 . S
C1494 C1482 1.349 . S
C1494 H1488 0.950 . S
C1494 C1495 1.327 . S
C1495 H1489 0.950 . S
C1495 C1494 1.327 . S
C1495 C1499 1.429 . S
C1496 C1479 1.574 . S
C1496 H1490 0.949 . S
C1496 C1500 1.368 . S
C1497 C1478 1.429 . S
C1497 C1491 1.429 . S
C1497 C1498 1.523 . S
C1498 C1479 1.368 . S
C1498 C1492 1.368 . S
C1498 C1497 1.523 . S
C1499 C1483 1.429 . S
C1499 C1495 1.429 . S
C1499 C1500 1.523 . S
C1500 C1484 1.368 . S
C1500 C1496 1.368 . S
C1500 C1499 1.523 . S
H1501 C1476 0.950 . S
H1502 C1478 0.950 . S
H1503 C1479 0.949 . S
H1504 C1481 0.950 . S
H1505 C1483 0.950 . S
C1506 C1507 1.349 . S
C1506 C1508 1.327 . S
C1506 H1531 0.950 . S
C1507 C1506 1.349 . S
C1507 C1523 1.349 . S
C1508 C1506 1.327 . S
C1508 C1527 1.429 . S
C1508 H1532 0.950 . S
C1509 C1526 1.574 . S
C1509 C1528 1.368 . S
C1509 H1533 0.949 . S
H1510 C1514 0.949 . S
C1511 C1512 1.349 . S
C1511 C1513 1.327 . S
C1511 H1534 0.950 . S
C1512 C1511 1.349 . S
C1512 C1524 1.349 . S
C1513 C1511 1.327 . S
C1513 C1529 1.429 . S
C1513 H1535 0.950 . S
C1514 H1510 0.949 . S
C1514 C1522 1.574 . S
C1514 C1530 1.368 . S
H1515 C1523 0.950 . S
H1516 C1521 0.950 . S
H1517 C1522 0.949 . S
H1518 C1524 0.950 . S
H1519 C1525 0.950 . S
H1520 C1526 0.949 . S
C1521 H1516 0.950 . S
C1521 C1523 1.327 . S
C1521 C1527 1.429 . S
C1522 C1514 1.574 . S
C1522 H1517 0.949 . S
C1522 C1528 1.368 . S
C1523 C1507 1.349 . S
C1523 H1515 0.950 . S
C1523 C1521 1.327 . S
C1524 C1512 1.349 . S
C1524 H1518 0.950 . S
C1524 C1525 1.327 . S
C1525 H1519 0.950 . S
C1525 C1524 1.327 . S
C1525 C1529 1.429 . S
C1526 C1509 1.574 . S
C1526 H1520 0.949 . S
C1526 C1530 1.368 . S
C1527 C1508 1.429 . S
C1527 C1521 1.429 . S
C1527 C1528 1.523 . S
C1528 C1509 1.368 . S
C1528 C1522 1.368 . S
C1528 C1527 1.523 . S
C1529 C1513 1.429 . S
C1529 C1525 1.429 . S
C1529 C1530 1.523 . S
C1530 C1514 1.368 . S
C1530 C1526 1.368 . S
C1530 C1529 1.523 . S
H1531 C1506 0.950 . S
H1532 C1508 0.950 . S
H1533 C1509 0.949 . S
H1534 C1511 0.950 . S
H1535 C1513 0.950 . S
C1536 C1537 1.349 . S
C1536 C1538 1.327 . S
C1536 H1561 0.950 . S
C1537 C1536 1.349 . S
C1537 C1553 1.349 . S
C1538 C1536 1.327 . S
C1538 C1557 1.429 . S
C1538 H1562 0.950 . S
C1539 C1556 1.574 . S
C1539 C1558 1.368 . S
C1539 H1563 0.949 . S
H1540 C1544 0.949 . S
C1541 C1542 1.349 . S
C1541 C1543 1.327 . S
C1541 H1564 0.950 . S
C1542 C1541 1.349 . S
C1542 C1554 1.349 . S
C1543 C1541 1.327 . S
C1543 C1559 1.429 . S
C1543 H1565 0.950 . S
C1544 H1540 0.949 . S
C1544 C1552 1.574 . S
C1544 C1560 1.368 . S
H1545 C1553 0.950 . S
H1546 C1551 0.950 . S
H1547 C1552 0.949 . S
H1548 C1554 0.950 . S
H1549 C1555 0.950 . S
H1550 C1556 0.949 . S
C1551 H1546 0.950 . S
C1551 C1553 1.327 . S
C1551 C1557 1.429 . S
C1552 C1544 1.574 . S
C1552 H1547 0.949 . S
C1552 C1558 1.368 . S
C1553 C1537 1.349 . S
C1553 H1545 0.950 . S
C1553 C1551 1.327 . S
C1554 C1542 1.349 . S
C1554 H1548 0.950 . S
C1554 C1555 1.327 . S
C1555 H1549 0.950 . S
C1555 C1554 1.327 . S
C1555 C1559 1.429 . S
C1556 C1539 1.574 . S
C1556 H1550 0.949 . S
C1556 C1560 1.368 . S
C1557 C1538 1.429 . S
C1557 C1551 1.429 . S
C1557 C1558 1.523 . S
C1558 C1539 1.368 . S
C1558 C1552 1.368 . S
C1558 C1557 1.523 . S
C1559 C1543 1.429 . S
C1559 C1555 1.429 . S
C1559 C1560 1.523 . S
C1560 C1544 1.368 . S
C1560 C1556 1.368 . S
C1560 C1559 1.523 . S
H1561 C1536 0.950 . S
H1562 C1538 0.950 . S
H1563 C1539 0.949 . S
H1564 C1541 0.950 . S
H1565 C1543 0.950 . S
C1566 C1567 1.349 1_545 S
C1566 C1568 1.327 . S
C1566 H1591 0.950 . S
C1567 C1566 1.349 1_565 S
C1567 C1583 1.349 . S
C1568 C1566 1.327 . S
C1568 C1587 1.429 1_545 S
C1568 H1592 0.950 . S
C1569 C1586 1.574 . S
C1569 C1588 1.368 . S
C1569 H1593 0.949 . S
H1570 C1574 0.931 1_545 S
C1571 C1572 1.349 . S
C1571 C1573 1.327 . S
C1571 H1594 0.950 . S
C1572 C1571 1.349 . S
C1572 C1584 1.349 . S
C1573 C1571 1.327 . S
C1573 C1589 1.429 . S
C1573 H1595 0.950 . S
C1574 H1570 0.931 1_565 S
C1574 C1582 1.572 1_565 S
C1574 C1590 1.392 . S
H1575 C1583 0.950 . S
H1576 C1581 0.950 . S
H1577 C1582 0.949 . S
H1578 C1584 0.950 1_545 S
H1579 C1585 0.950 1_545 S
H1580 C1586 0.949 . S
C1581 H1576 0.950 . S
C1581 C1583 1.327 . S
C1581 C1587 1.429 . S
C1582 C1574 1.572 1_545 S
C1582 H1577 0.949 . S
C1582 C1588 1.368 1_545 S
C1583 C1567 1.349 . S
C1583 H1575 0.950 . S
C1583 C1581 1.327 . S
C1584 C1572 1.349 . S
C1584 H1578 0.950 1_565 S
C1584 C1585 1.327 . S
C1585 H1579 0.950 1_565 S
C1585 C1584 1.327 . S
C1585 C1589 1.429 . S
C1586 C1569 1.574 . S
C1586 H1580 0.949 . S
C1586 C1590 1.368 . S
C1587 C1568 1.429 1_565 S
C1587 C1581 1.429 . S
C1587 C1588 1.523 . S
C1588 C1569 1.368 . S
C1588 C1582 1.368 1_565 S
C1588 C1587 1.523 . S
C1589 C1573 1.429 . S
C1589 C1585 1.429 . S
C1589 C1590 1.523 . S
C1590 C1574 1.392 . S
C1590 C1586 1.368 . S
C1590 C1589 1.523 . S
H1591 C1566 0.950 . S
H1592 C1568 0.950 . S
H1593 C1569 0.949 . S
H1594 C1571 0.950 . S
H1595 C1573 0.950 . S
C1596 C1597 1.349 . S
C1596 C1598 1.327 . S
C1596 H1621 0.950 . S
C1597 C1596 1.349 . S
C1597 C1613 1.349 . S
C1598 C1596 1.327 . S
C1598 C1617 1.429 . S
C1598 H1622 0.950 . S
C1599 C1616 1.574 . S
C1599 C1618 1.368 . S
C1599 H1623 0.949 . S
H1600 C1604 0.949 . S
C1601 C1602 1.349 . S
C1601 C1603 1.327 . S
C1601 H1624 0.950 . S
C1602 C1601 1.349 . S
C1602 C1614 1.349 . S
C1603 C1601 1.327 . S
C1603 C1619 1.429 . S
C1603 H1625 0.950 . S
C1604 H1600 0.949 . S
C1604 C1612 1.574 . S
C1604 C1620 1.368 . S
H1605 C1613 0.950 . S
H1606 C1611 0.950 . S
H1607 C1612 0.949 . S
H1608 C1614 0.950 . S
H1609 C1615 0.950 . S
H1610 C1616 0.949 . S
C1611 H1606 0.950 . S
C1611 C1613 1.327 . S
C1611 C1617 1.429 . S
C1612 C1604 1.574 . S
C1612 H1607 0.949 . S
C1612 C1618 1.368 . S
C1613 C1597 1.349 . S
C1613 H1605 0.950 . S
C1613 C1611 1.327 . S
C1614 C1602 1.349 . S
C1614 H1608 0.950 . S
C1614 C1615 1.327 . S
C1615 H1609 0.950 . S
C1615 C1614 1.327 . S
C1615 C1619 1.429 . S
C1616 C1599 1.574 . S
C1616 H1610 0.949 . S
C1616 C1620 1.368 . S
C1617 C1598 1.429 . S
C1617 C1611 1.429 . S
C1617 C1618 1.523 . S
C1618 C1599 1.368 . S
C1618 C1612 1.368 . S
C1618 C1617 1.523 . S
C1619 C1603 1.429 . S
C1619 C1615 1.429 . S
C1619 C1620 1.523 . S
C1620 C1604 1.368 . S
C1620 C1616 1.368 . S
C1620 C1619 1.523 . S
H1621 C1596 0.950 . S
H1622 C1598 0.950 . S
H1623 C1599 0.949 . S
H1624 C1601 0.950 . S
H1625 C1603 0.950 . S
C1626 C1627 1.349 . S
C1626 C1628 1.327 . S
C1626 H1651 0.950 . S
C1627 C1626 1.349 . S
C1627 C1643 1.349 1_545 S
C1628 C1626 1.327 . S
C1628 C1647 1.429 . S
C1628 H1652 0.950 . S
C1629 C1646 1.570 1_565 S
C1629 C1648 1.368 1_565 S
C1629 H1653 0.949 . S
H1630 C1634 0.949 . S
C1631 C1632 1.349 . S
C1631 C1633 1.327 . S
C1631 H1654 0.950 1_545 S
C1632 C1631 1.349 . S
C1632 C1644 1.349 . S
C1633 C1631 1.327 . S
C1633 C1649 1.429 . S
C1633 H1655 0.950 1_545 S
C1634 H1630 0.949 . S
C1634 C1642 1.574 . S
C1634 C1650 1.368 . S
H1635 C1643 0.950 . S
H1636 C1641 0.950 . S
H1637 C1642 0.949 . S
H1638 C1644 0.950 . S
H1639 C1645 0.950 . S
H1640 C1646 0.918 1_565 S
C1641 H1636 0.950 . S
C1641 C1643 1.327 . S
C1641 C1647 1.429 1_565 S
C1642 C1634 1.574 . S
C1642 H1637 0.949 . S
C1642 C1648 1.368 . S
C1643 C1627 1.349 1_565 S
C1643 H1635 0.950 . S
C1643 C1641 1.327 . S
C1644 C1632 1.349 . S
C1644 H1638 0.950 . S
C1644 C1645 1.327 . S
C1645 H1639 0.950 . S
C1645 C1644 1.327 . S
C1645 C1649 1.429 . S
C1646 C1629 1.570 1_545 S
C1646 H1640 0.918 1_545 S
C1646 C1650 1.408 . S
C1647 C1628 1.429 . S
C1647 C1641 1.429 1_545 S
C1647 C1648 1.523 . S
C1648 C1629 1.368 1_545 S
C1648 C1642 1.368 . S
C1648 C1647 1.523 . S
C1649 C1633 1.429 . S
C1649 C1645 1.429 . S
C1649 C1650 1.523 . S
C1650 C1634 1.368 . S
C1650 C1646 1.408 . S
C1650 C1649 1.523 . S
H1651 C1626 0.950 . S
H1652 C1628 0.950 . S
H1653 C1629 0.949 . S
H1654 C1631 0.950 1_565 S
H1655 C1633 0.950 1_565 S
C1656 C1657 1.349 . S
C1656 C1658 1.327 . S
C1656 H1681 0.950 . S
C1657 C1656 1.349 . S
C1657 C1673 1.349 . S
C1658 C1656 1.327 . S
C1658 C1677 1.429 . S
C1658 H1682 0.950 . S
C1659 C1676 1.574 . S
C1659 C1678 1.368 . S
C1659 H1683 0.949 . S
H1660 C1664 0.949 . S
C1661 C1662 1.349 . S
C1661 C1663 1.327 . S
C1661 H1684 0.950 . S
C1662 C1661 1.349 . S
C1662 C1674 1.349 . S
C1663 C1661 1.327 . S
C1663 C1679 1.429 . S
C1663 H1685 0.950 . S
C1664 H1660 0.949 . S
C1664 C1672 1.574 . S
C1664 C1680 1.368 . S
H1665 C1673 0.950 . S
H1666 C1671 0.950 . S
H1667 C1672 0.949 . S
H1668 C1674 0.950 . S
H1669 C1675 0.950 . S
H1670 C1676 0.949 . S
C1671 H1666 0.950 . S
C1671 C1673 1.327 . S
C1671 C1677 1.429 . S
C1672 C1664 1.574 . S
C1672 H1667 0.949 . S
C1672 C1678 1.368 . S
C1673 C1657 1.349 . S
C1673 H1665 0.950 . S
C1673 C1671 1.327 . S
C1674 C1662 1.349 . S
C1674 H1668 0.950 . S
C1674 C1675 1.327 . S
C1675 H1669 0.950 . S
C1675 C1674 1.327 . S
C1675 C1679 1.429 . S
C1676 C1659 1.574 . S
C1676 H1670 0.949 . S
C1676 C1680 1.368 . S
C1677 C1658 1.429 . S
C1677 C1671 1.429 . S
C1677 C1678 1.523 . S
C1678 C1659 1.368 . S
C1678 C1672 1.368 . S
C1678 C1677 1.523 . S
C1679 C1663 1.429 . S
C1679 C1675 1.429 . S
C1679 C1680 1.523 . S
C1680 C1664 1.368 . S
C1680 C1676 1.368 . S
C1680 C1679 1.523 . S
H1681 C1656 0.950 . S
H1682 C1658 0.950 . S
H1683 C1659 0.949 . S
H1684 C1661 0.950 . S
H1685 C1663 0.950 . S
C1686 C1687 1.349 1_554 S
C1686 C1688 1.327 . S
C1686 H1711 0.950 . S
C1687 C1686 1.349 1_556 S
C1687 C1703 1.349 . S
C1688 C1686 1.327 . S
C1688 C1707 1.429 1_554 S
C1688 H1712 0.950 . S
C1689 C1706 1.574 . S
C1689 C1708 1.368 . S
C1689 H1713 0.949 . S
H1690 C1694 0.956 . S
C1691 C1692 1.349 . S
C1691 C1693 1.327 . S
C1691 H1714 0.950 . S
C1692 C1691 1.349 . S
C1692 C1704 1.349 . S
C1693 C1691 1.327 . S
C1693 C1709 1.429 . S
C1693 H1715 0.950 . S
C1694 H1690 0.956 . S
C1694 C1702 1.575 . S
C1694 C1710 1.359 1_554 S
H1695 C1703 0.950 . S
H1696 C1701 0.950 . S
H1697 C1702 0.949 . S
H1698 C1704 0.950 1_554 S
H1699 C1705 0.950 1_554 S
H1700 C1706 0.949 . S
C1701 H1696 0.950 . S
C1701 C1703 1.327 . S
C1701 C1707 1.429 . S
C1702 C1694 1.575 . S
C1702 H1697 0.949 . S
C1702 C1708 1.368 1_554 S
C1703 C1687 1.349 . S
C1703 H1695 0.950 . S
C1703 C1701 1.327 . S
C1704 C1692 1.349 . S
C1704 H1698 0.950 1_556 S
C1704 C1705 1.327 . S
C1705 H1699 0.950 1_556 S
C1705 C1704 1.327 . S
C1705 C1709 1.429 . S
C1706 C1689 1.574 . S
C1706 H1700 0.949 . S
C1706 C1710 1.368 . S
C1707 C1688 1.429 1_556 S
C1707 C1701 1.429 . S
C1707 C1708 1.523 . S
C1708 C1689 1.368 . S
C1708 C1702 1.368 1_556 S
C1708 C1707 1.523 . S
C1709 C1693 1.429 . S
C1709 C1705 1.429 . S
C1709 C1710 1.523 . S
C1710 C1694 1.359 1_556 S
C1710 C1706 1.368 . S
C1710 C1709 1.523 . S
H1711 C1686 0.950 . S
H1712 C1688 0.950 . S
H1713 C1689 0.949 . S
H1714 C1691 0.950 . S
H1715 C1693 0.950 . S
C1716 C1717 1.349 1_554 S
C1716 C1718 1.327 . S
C1716 H1741 0.950 . S
C1717 C1716 1.349 1_556 S
C1717 C1733 1.349 . S
C1718 C1716 1.327 . S
C1718 C1737 1.429 1_554 S
C1718 H1742 0.950 . S
C1719 C1736 1.574 . S
C1719 C1738 1.368 . S
C1719 H1743 0.949 . S
H1720 C1724 0.949 . S
C1721 C1722 1.349 . S
C1721 C1723 1.327 . S
C1721 H1744 0.950 . S
C1722 C1721 1.349 . S
C1722 C1734 1.349 . S
C1723 C1721 1.327 . S
C1723 C1739 1.429 . S
C1723 H1745 0.950 . S
C1724 H1720 0.949 . S
C1724 C1732 1.574 . S
C1724 C1740 1.368 1_554 S
H1725 C1733 0.950 . S
H1726 C1731 0.950 . S
H1727 C1732 0.949 . S
H1728 C1734 0.950 1_554 S
H1729 C1735 0.950 1_554 S
H1730 C1736 0.949 . S
C1731 H1726 0.950 . S
C1731 C1733 1.327 . S
C1731 C1737 1.429 . S
C1732 C1724 1.574 . S
C1732 H1727 0.949 . S
C1732 C1738 1.368 1_554 S
C1733 C1717 1.349 . S
C1733 H1725 0.950 . S
C1733 C1731 1.327 . S
C1734 C1722 1.349 . S
C1734 H1728 0.950 1_556 S
C1734 C1735 1.327 . S
C1735 H1729 0.950 1_556 S
C1735 C1734 1.327 . S
C1735 C1739 1.429 . S
C1736 C1719 1.574 . S
C1736 H1730 0.949 . S
C1736 C1740 1.368 . S
C1737 C1718 1.429 1_556 S
C1737 C1731 1.429 . S
C1737 C1738 1.523 . S
C1738 C1719 1.368 . S
C1738 C1732 1.368 1_556 S
C1738 C1737 1.523 . S
C1739 C1723 1.429 . S
C1739 C1735 1.429 . S
C1739 C1740 1.523 . S
C1740 C1724 1.368 1_556 S
C1740 C1736 1.368 . S
C1740 C1739 1.523 . S
H1741 C1716 0.950 . S
H1742 C1718 0.950 . S
H1743 C1719 0.949 . S
H1744 C1721 0.950 . S
H1745 C1723 0.950 . S
C1746 C1747 1.349 . S
C1746 C1748 1.327 . S
C1746 H1771 0.950 . S
C1747 C1746 1.349 . S
C1747 C1763 1.349 1_554 S
C1748 C1746 1.327 . S
C1748 C1767 1.429 . S
C1748 H1772 0.950 . S
C1749 C1766 1.574 1_556 S
C1749 C1768 1.370 1_556 S
C1749 H1773 0.947 . S
H1750 C1754 0.949 . S
C1751 C1752 1.349 . S
C1751 C1753 1.327 . S
C1751 H1774 0.963 . S
C1752 C1751 1.349 . S
C1752 C1764 1.349 . S
C1753 C1751 1.327 . S
C1753 C1769 1.429 . S
C1753 H1775 0.950 1_554 S
C1754 H1750 0.949 . S
C1754 C1762 1.574 . S
C1754 C1770 1.368 . S
H1755 C1763 0.950 . S
H1756 C1761 0.950 . S
H1757 C1762 0.949 . S
H1758 C1764 0.950 . S
H1759 C1765 0.950 . S
H1760 C1766 0.949 1_556 S
C1761 H1756 0.950 . S
C1761 C1763 1.327 . S
C1761 C1767 1.429 1_556 S
C1762 C1754 1.574 . S
C1762 H1757 0.949 . S
C1762 C1768 1.368 . S
C1763 C1747 1.349 1_556 S
C1763 H1755 0.950 . S
C1763 C1761 1.327 . S
C1764 C1752 1.349 . S
C1764 H1758 0.950 . S
C1764 C1765 1.327 . S
C1765 H1759 0.950 . S
C1765 C1764 1.327 . S
C1765 C1769 1.429 . S
C1766 C1749 1.574 1_554 S
C1766 H1760 0.949 1_554 S
C1766 C1770 1.368 . S
C1767 C1748 1.429 . S
C1767 C1761 1.429 1_554 S
C1767 C1768 1.523 . S
C1768 C1749 1.370 1_554 S
C1768 C1762 1.368 . S
C1768 C1767 1.523 . S
C1769 C1753 1.429 . S
C1769 C1765 1.429 . S
C1769 C1770 1.523 . S
C1770 C1754 1.368 . S
C1770 C1766 1.368 . S
C1770 C1769 1.523 . S
H1771 C1746 0.950 . S
H1772 C1748 0.950 . S
H1773 C1749 0.947 . S
H1774 C1751 0.963 . S
H1775 C1753 0.950 1_556 S
C337 C13 1.600 . S
C342 C229 1.542 . S
C372 C234 1.559 . S
C367 C1 1.616 . S
C402 C172 1.553 1_565 S
C397 C27 1.618 . S
C427 C15 1.568 . S
C432 C196 1.505 . S
C457 C28 1.581 . S
C462 C334 1.526 . S
C487 C55 1.578 . S
C492 C301 1.517 . S
C522 C255 1.564 . S
C517 C40 1.622 1_565 S
C547 C43 1.643 . S
C552 C289 1.584 . S
C582 C208 1.564 . S
C577 C56 1.621 . S
C612 C235 1.507 . S
C607 C83 1.568 . S
C637 C96 1.611 . S
C642 C226 1.526 1_655 S
C667 C71 1.618 . S
C672 C292 1.557 . S
C702 C313 1.542 . S
C697 C99 1.600 . S
C732 C331 1.559 1_565 S
C727 C111 1.616 . S
C757 C113 1.618 . S
C762 C280 1.553 . S
C792 C256 1.505 . S
C787 C125 1.568 . S
C817 C139 1.582 . S
C822 C251 1.526 . S
C847 C153 1.578 . S
C852 C217 1.516 . S
C882 C205 1.564 1_556 S
C877 C127 1.622 . S
C907 C141 1.643 . S
C912 C171 1.584 1_556 S
C942 C272 1.564 . S
C937 C84 1.621 . S
C972 C322 1.507 . S
C967 C154 1.568 . S
C997 C68 1.611 . S
C1002 C310 1.554 . S
C1027 C166 1.618 . S
C1032 C188 1.557 . S
C1062 C187 1.036 . S
C1057 C0 1.196 . S
C1087 C12 1.183 . S
C1092 C209 1.028 . S
C1122 C214 1.034 . S
C1117 C14 1.197 . S
C1152 C247 1.076 . S
C1147 C26 1.238 . S
C1177 C41 1.229 . S
C1182 C184 1.067 . S
C1207 C42 1.244 . S
C1212 C192 1.079 . S
C1242 C230 1.029 . S
C1237 C29 1.183 1_565 S
C1267 C54 1.184 . S
C1272 C238 1.026 . S
C1297 C69 1.190 . S
C1302 C175 1.026 . S
C1332 C213 1.070 . S
C1327 C70 1.232 . S
C1357 C85 1.184 . S
C1362 C250 1.030 . S
C1387 C82 1.184 . S
C1392 C259 1.026 . S
C1422 C293 1.036 . S
C1417 C110 1.196 . S
C1447 C98 1.183 . S
C1452 C271 1.028 . S
C1477 C124 1.198 . S
C1482 C298 1.034 . S
C1507 C112 1.237 . S
C1512 C318 1.076 . S
C1537 C126 1.229 . S
C1542 C276 1.067 . S
C1572 C268 1.079 . S
C1567 C140 1.245 . S
C1597 C138 1.184 . S
C1602 C314 1.029 . S
C1632 C319 1.026 . S
C1627 C152 1.183 . S
C1662 C277 1.026 . S
C1657 C97 1.190 . S
C1692 C297 1.070 . S
C1687 C167 1.233 . S
C1722 C335 1.030 . S
C1717 C57 1.184 . S
C1747 C155 1.184 . S
C1752 C193 1.021 . S
