# Generated by pormake.
# Topology gar, (4,6)-cn, num edge types: 1
# Building blocks:
#     Node 0, Type 0, BuildingBlock: UXUYUI_clean_sbu_0, # of connection points: 4
#     Node 1, Type 0, BuildingBlock: UXUYUI_clean_sbu_0, # of connection points: 4
#     Node 2, Type 0, BuildingBlock: UXUYUI_clean_sbu_0, # of connection points: 4
#     Node 3, Type 0, BuildingBlock: UXUYUI_clean_sbu_0, # of connection points: 4
#     Node 4, Type 0, BuildingBlock: UXUYUI_clean_sbu_0, # of connection points: 4
#     Node 5, Type 0, BuildingBlock: UXUYUI_clean_sbu_0, # of connection points: 4
#     Node 6, Type 0, BuildingBlock: UXUYUI_clean_sbu_0, # of connection points: 4
#     Node 7, Type 0, BuildingBlock: UXUYUI_clean_sbu_0, # of connection points: 4
#     Node 8, Type 0, BuildingBlock: UXUYUI_clean_sbu_0, # of connection points: 4
#     Node 9, Type 0, BuildingBlock: UXUYUI_clean_sbu_0, # of connection points: 4
#     Node 10, Type 0, BuildingBlock: UXUYUI_clean_sbu_0, # of connection points: 4
#     Node 11, Type 0, BuildingBlock: UXUYUI_clean_sbu_0, # of connection points: 4
#     Node 12, Type 0, BuildingBlock: UXUYUI_clean_sbu_0, # of connection points: 4
#     Node 13, Type 0, BuildingBlock: UXUYUI_clean_sbu_0, # of connection points: 4
#     Node 14, Type 0, BuildingBlock: UXUYUI_clean_sbu_0, # of connection points: 4
#     Node 15, Type 0, BuildingBlock: UXUYUI_clean_sbu_0, # of connection points: 4
#     Node 16, Type 0, BuildingBlock: UXUYUI_clean_sbu_0, # of connection points: 4
#     Node 17, Type 0, BuildingBlock: UXUYUI_clean_sbu_0, # of connection points: 4
#     Node 18, Type 0, BuildingBlock: UXUYUI_clean_sbu_0, # of connection points: 4
#     Node 19, Type 0, BuildingBlock: UXUYUI_clean_sbu_0, # of connection points: 4
#     Node 20, Type 0, BuildingBlock: UXUYUI_clean_sbu_0, # of connection points: 4
#     Node 21, Type 0, BuildingBlock: UXUYUI_clean_sbu_0, # of connection points: 4
#     Node 22, Type 0, BuildingBlock: UXUYUI_clean_sbu_0, # of connection points: 4
#     Node 23, Type 0, BuildingBlock: UXUYUI_clean_sbu_0, # of connection points: 4
#     Node 24, Type 1, BuildingBlock: KUMBUR_clean_sbu_0, # of connection points: 6
#     Node 25, Type 1, BuildingBlock: KUMBUR_clean_sbu_0, # of connection points: 6
#     Node 26, Type 1, BuildingBlock: KUMBUR_clean_sbu_0, # of connection points: 6
#     Node 27, Type 1, BuildingBlock: KUMBUR_clean_sbu_0, # of connection points: 6
#     Node 28, Type 1, BuildingBlock: KUMBUR_clean_sbu_0, # of connection points: 6
#     Node 29, Type 1, BuildingBlock: KUMBUR_clean_sbu_0, # of connection points: 6
#     Node 30, Type 1, BuildingBlock: KUMBUR_clean_sbu_0, # of connection points: 6
#     Node 31, Type 1, BuildingBlock: KUMBUR_clean_sbu_0, # of connection points: 6
#     Node 32, Type 1, BuildingBlock: KUMBUR_clean_sbu_0, # of connection points: 6
#     Node 33, Type 1, BuildingBlock: KUMBUR_clean_sbu_0, # of connection points: 6
#     Node 34, Type 1, BuildingBlock: KUMBUR_clean_sbu_0, # of connection points: 6
#     Node 35, Type 1, BuildingBlock: KUMBUR_clean_sbu_0, # of connection points: 6
#     Node 36, Type 1, BuildingBlock: KUMBUR_clean_sbu_0, # of connection points: 6
#     Node 37, Type 1, BuildingBlock: KUMBUR_clean_sbu_0, # of connection points: 6
#     Node 38, Type 1, BuildingBlock: KUMBUR_clean_sbu_0, # of connection points: 6
#     Node 39, Type 1, BuildingBlock: KUMBUR_clean_sbu_0, # of connection points: 6
#     Edge 40, Type (0, 1), BuildingBlock: ZUJKAS_clean_linker_0, # of connection points: 2
#     Edge 41, Type (0, 1), BuildingBlock: ZUJKAS_clean_linker_0, # of connection points: 2
#     Edge 42, Type (0, 1), BuildingBlock: ZUJKAS_clean_linker_0, # of connection points: 2
#     Edge 43, Type (0, 1), BuildingBlock: ZUJKAS_clean_linker_0, # of connection points: 2
#     Edge 44, Type (0, 1), BuildingBlock: ZUJKAS_clean_linker_0, # of connection points: 2
#     Edge 45, Type (0, 1), BuildingBlock: ZUJKAS_clean_linker_0, # of connection points: 2
#     Edge 46, Type (0, 1), BuildingBlock: ZUJKAS_clean_linker_0, # of connection points: 2
#     Edge 47, Type (0, 1), BuildingBlock: ZUJKAS_clean_linker_0, # of connection points: 2
#     Edge 48, Type (0, 1), BuildingBlock: ZUJKAS_clean_linker_0, # of connection points: 2
#     Edge 49, Type (0, 1), BuildingBlock: ZUJKAS_clean_linker_0, # of connection points: 2
#     Edge 50, Type (0, 1), BuildingBlock: ZUJKAS_clean_linker_0, # of connection points: 2
#     Edge 51, Type (0, 1), BuildingBlock: ZUJKAS_clean_linker_0, # of connection points: 2
#     Edge 52, Type (0, 1), BuildingBlock: ZUJKAS_clean_linker_0, # of connection points: 2
#     Edge 53, Type (0, 1), BuildingBlock: ZUJKAS_clean_linker_0, # of connection points: 2
#     Edge 54, Type (0, 1), BuildingBlock: ZUJKAS_clean_linker_0, # of connection points: 2
#     Edge 55, Type (0, 1), BuildingBlock: ZUJKAS_clean_linker_0, # of connection points: 2
#     Edge 56, Type (0, 1), BuildingBlock: ZUJKAS_clean_linker_0, # of connection points: 2
#     Edge 57, Type (0, 1), BuildingBlock: ZUJKAS_clean_linker_0, # of connection points: 2
#     Edge 58, Type (0, 1), BuildingBlock: ZUJKAS_clean_linker_0, # of connection points: 2
#     Edge 59, Type (0, 1), BuildingBlock: ZUJKAS_clean_linker_0, # of connection points: 2
#     Edge 60, Type (0, 1), BuildingBlock: ZUJKAS_clean_linker_0, # of connection points: 2
#     Edge 61, Type (0, 1), BuildingBlock: ZUJKAS_clean_linker_0, # of connection points: 2
#     Edge 62, Type (0, 1), BuildingBlock: ZUJKAS_clean_linker_0, # of connection points: 2
#     Edge 63, Type (0, 1), BuildingBlock: ZUJKAS_clean_linker_0, # of connection points: 2
#     Edge 64, Type (0, 1), BuildingBlock: ZUJKAS_clean_linker_0, # of connection points: 2
#     Edge 65, Type (0, 1), BuildingBlock: ZUJKAS_clean_linker_0, # of connection points: 2
#     Edge 66, Type (0, 1), BuildingBlock: ZUJKAS_clean_linker_0, # of connection points: 2
#     Edge 67, Type (0, 1), BuildingBlock: ZUJKAS_clean_linker_0, # of connection points: 2
#     Edge 68, Type (0, 1), BuildingBlock: ZUJKAS_clean_linker_0, # of connection points: 2
#     Edge 69, Type (0, 1), BuildingBlock: ZUJKAS_clean_linker_0, # of connection points: 2
#     Edge 70, Type (0, 1), BuildingBlock: ZUJKAS_clean_linker_0, # of connection points: 2
#     Edge 71, Type (0, 1), BuildingBlock: ZUJKAS_clean_linker_0, # of connection points: 2
#     Edge 72, Type (0, 1), BuildingBlock: ZUJKAS_clean_linker_0, # of connection points: 2
#     Edge 73, Type (0, 1), BuildingBlock: ZUJKAS_clean_linker_0, # of connection points: 2
#     Edge 74, Type (0, 1), BuildingBlock: ZUJKAS_clean_linker_0, # of connection points: 2
#     Edge 75, Type (0, 1), BuildingBlock: ZUJKAS_clean_linker_0, # of connection points: 2
#     Edge 76, Type (0, 1), BuildingBlock: ZUJKAS_clean_linker_0, # of connection points: 2
#     Edge 77, Type (0, 1), BuildingBlock: ZUJKAS_clean_linker_0, # of connection points: 2
#     Edge 78, Type (0, 1), BuildingBlock: ZUJKAS_clean_linker_0, # of connection points: 2
#     Edge 79, Type (0, 1), BuildingBlock: ZUJKAS_clean_linker_0, # of connection points: 2
#     Edge 80, Type (0, 1), BuildingBlock: ZUJKAS_clean_linker_0, # of connection points: 2
#     Edge 81, Type (0, 1), BuildingBlock: ZUJKAS_clean_linker_0, # of connection points: 2
#     Edge 82, Type (0, 1), BuildingBlock: ZUJKAS_clean_linker_0, # of connection points: 2
#     Edge 83, Type (0, 1), BuildingBlock: ZUJKAS_clean_linker_0, # of connection points: 2
#     Edge 84, Type (0, 1), BuildingBlock: ZUJKAS_clean_linker_0, # of connection points: 2
#     Edge 85, Type (0, 1), BuildingBlock: ZUJKAS_clean_linker_0, # of connection points: 2
#     Edge 86, Type (0, 1), BuildingBlock: ZUJKAS_clean_linker_0, # of connection points: 2
#     Edge 87, Type (0, 1), BuildingBlock: ZUJKAS_clean_linker_0, # of connection points: 2
#     Edge 88, Type (0, 1), BuildingBlock: ZUJKAS_clean_linker_0, # of connection points: 2
#     Edge 89, Type (0, 1), BuildingBlock: ZUJKAS_clean_linker_0, # of connection points: 2
#     Edge 90, Type (0, 1), BuildingBlock: ZUJKAS_clean_linker_0, # of connection points: 2
#     Edge 91, Type (0, 1), BuildingBlock: ZUJKAS_clean_linker_0, # of connection points: 2
#     Edge 92, Type (0, 1), BuildingBlock: ZUJKAS_clean_linker_0, # of connection points: 2
#     Edge 93, Type (0, 1), BuildingBlock: ZUJKAS_clean_linker_0, # of connection points: 2
#     Edge 94, Type (0, 1), BuildingBlock: ZUJKAS_clean_linker_0, # of connection points: 2
#     Edge 95, Type (0, 1), BuildingBlock: ZUJKAS_clean_linker_0, # of connection points: 2
#     Edge 96, Type (0, 1), BuildingBlock: ZUJKAS_clean_linker_0, # of connection points: 2
#     Edge 97, Type (0, 1), BuildingBlock: ZUJKAS_clean_linker_0, # of connection points: 2
#     Edge 98, Type (0, 1), BuildingBlock: ZUJKAS_clean_linker_0, # of connection points: 2
#     Edge 99, Type (0, 1), BuildingBlock: ZUJKAS_clean_linker_0, # of connection points: 2
#     Edge 100, Type (0, 1), BuildingBlock: ZUJKAS_clean_linker_0, # of connection points: 2
#     Edge 101, Type (0, 1), BuildingBlock: ZUJKAS_clean_linker_0, # of connection points: 2
#     Edge 102, Type (0, 1), BuildingBlock: ZUJKAS_clean_linker_0, # of connection points: 2
#     Edge 103, Type (0, 1), BuildingBlock: ZUJKAS_clean_linker_0, # of connection points: 2
#     Edge 104, Type (0, 1), BuildingBlock: ZUJKAS_clean_linker_0, # of connection points: 2
#     Edge 105, Type (0, 1), BuildingBlock: ZUJKAS_clean_linker_0, # of connection points: 2
#     Edge 106, Type (0, 1), BuildingBlock: ZUJKAS_clean_linker_0, # of connection points: 2
#     Edge 107, Type (0, 1), BuildingBlock: ZUJKAS_clean_linker_0, # of connection points: 2
#     Edge 108, Type (0, 1), BuildingBlock: ZUJKAS_clean_linker_0, # of connection points: 2
#     Edge 109, Type (0, 1), BuildingBlock: ZUJKAS_clean_linker_0, # of connection points: 2
#     Edge 110, Type (0, 1), BuildingBlock: ZUJKAS_clean_linker_0, # of connection points: 2
#     Edge 111, Type (0, 1), BuildingBlock: ZUJKAS_clean_linker_0, # of connection points: 2
#     Edge 112, Type (0, 1), BuildingBlock: ZUJKAS_clean_linker_0, # of connection points: 2
#     Edge 113, Type (0, 1), BuildingBlock: ZUJKAS_clean_linker_0, # of connection points: 2
#     Edge 114, Type (0, 1), BuildingBlock: ZUJKAS_clean_linker_0, # of connection points: 2
#     Edge 115, Type (0, 1), BuildingBlock: ZUJKAS_clean_linker_0, # of connection points: 2
#     Edge 116, Type (0, 1), BuildingBlock: ZUJKAS_clean_linker_0, # of connection points: 2
#     Edge 117, Type (0, 1), BuildingBlock: ZUJKAS_clean_linker_0, # of connection points: 2
#     Edge 118, Type (0, 1), BuildingBlock: ZUJKAS_clean_linker_0, # of connection points: 2
#     Edge 119, Type (0, 1), BuildingBlock: ZUJKAS_clean_linker_0, # of connection points: 2
#     Edge 120, Type (0, 1), BuildingBlock: ZUJKAS_clean_linker_0, # of connection points: 2
#     Edge 121, Type (0, 1), BuildingBlock: ZUJKAS_clean_linker_0, # of connection points: 2
#     Edge 122, Type (0, 1), BuildingBlock: ZUJKAS_clean_linker_0, # of connection points: 2
#     Edge 123, Type (0, 1), BuildingBlock: ZUJKAS_clean_linker_0, # of connection points: 2
#     Edge 124, Type (0, 1), BuildingBlock: ZUJKAS_clean_linker_0, # of connection points: 2
#     Edge 125, Type (0, 1), BuildingBlock: ZUJKAS_clean_linker_0, # of connection points: 2
#     Edge 126, Type (0, 1), BuildingBlock: ZUJKAS_clean_linker_0, # of connection points: 2
#     Edge 127, Type (0, 1), BuildingBlock: ZUJKAS_clean_linker_0, # of connection points: 2
#     Edge 128, Type (0, 1), BuildingBlock: ZUJKAS_clean_linker_0, # of connection points: 2
#     Edge 129, Type (0, 1), BuildingBlock: ZUJKAS_clean_linker_0, # of connection points: 2
#     Edge 130, Type (0, 1), BuildingBlock: ZUJKAS_clean_linker_0, # of connection points: 2
#     Edge 131, Type (0, 1), BuildingBlock: ZUJKAS_clean_linker_0, # of connection points: 2
#     Edge 132, Type (0, 1), BuildingBlock: ZUJKAS_clean_linker_0, # of connection points: 2
#     Edge 133, Type (0, 1), BuildingBlock: ZUJKAS_clean_linker_0, # of connection points: 2
#     Edge 134, Type (0, 1), BuildingBlock: ZUJKAS_clean_linker_0, # of connection points: 2
#     Edge 135, Type (0, 1), BuildingBlock: ZUJKAS_clean_linker_0, # of connection points: 2
# Relax obj value: 0.137
# Max RMSD: 0.299
# Mean RMSD: 0.194
data_MOF--net-gar--node1-UXUYUI_clean_sbu_0--node2-KUMBUR_clean_sbu_0--edge1-ZUJKAS_clean_linker_0
_symmetry_space_group_name_H-M    P1
_symmetry_Int_Tables_number       1
_symmetry_cell_setting            triclinic
loop_
_symmetry_equiv_pos_as_xyz
'x, y, z'
_cell_length_a     88.752251
_cell_length_b     84.697231
_cell_length_c     84.629382
_cell_angle_alpha  99.783796
_cell_angle_beta   92.814037
_cell_angle_gamma 101.92265
loop_
_atom_site_label
_atom_site_type_symbol
_atom_site_fract_x
_atom_site_fract_y
_atom_site_fract_z
_atom_type_partial_charge
Li0 Li 0.0707 0.3113 0.37979 0.0
Li1 Li 0.08973 0.32654 0.40209 0.0
Li2 Li 0.09707 0.31004 0.37828 0.0
Li3 Li 0.08273 0.29632 0.3982 0.0
C4 C 0.08244 0.33987 0.3714 0.0
N5 N 0.06947 0.36003 0.35496 0.0
C6 C 0.07986 0.35472 0.37961 0.0
C7 C 0.07855 0.33536 0.3548 0.0
C8 C 0.07327 0.36473 0.37109 0.0
C9 C 0.07195 0.34568 0.34671 0.0
C10 C 0.06167 0.31233 0.41675 0.0
C11 C 0.06161 0.31245 0.44525 0.0
N12 N 0.04626 0.31241 0.44432 0.0
C13 C 0.0459 0.31225 0.41605 0.0
C14 C 0.06962 0.31244 0.43144 0.0
C15 C 0.03831 0.31232 0.43013 0.0
C16 C 0.04567 0.29939 0.35583 0.0
N17 N 0.05194 0.31167 0.36838 0.0
C18 C 0.0316 0.32554 0.36453 0.0
C19 C 0.0451 0.32446 0.37301 0.0
C20 C 0.02493 0.31312 0.35141 0.0
C21 C 0.03201 0.29982 0.34716 0.0
H22 H 0.0513 0.28929 0.35254 0.0
H23 H 0.05023 0.33389 0.38323 0.0
C24 C 0.11014 0.35594 0.41723 0.0
N25 N 0.09567 0.3466 0.41705 0.0
C26 C 0.11419 0.37174 0.42647 0.0
C27 C 0.08833 0.36803 0.43508 0.0
C28 C 0.08483 0.35231 0.42577 0.0
C29 C 0.10312 0.37808 0.43534 0.0
H30 H 0.11832 0.35146 0.40962 0.0
H31 H 0.07319 0.34507 0.42483 0.0
C32 C 0.08365 0.28094 0.36225 0.0
N33 N 0.09455 0.26099 0.33822 0.0
C34 C 0.0892 0.26749 0.36567 0.0
C35 C 0.0835 0.28415 0.34659 0.0
C36 C 0.09468 0.25756 0.35335 0.0
C37 C 0.08911 0.27395 0.33462 0.0
C38 C 0.11664 0.31625 0.41126 0.0
C39 C 0.13019 0.32421 0.40565 0.0
C40 C 0.11677 0.31387 0.42721 0.0
C41 C 0.14357 0.32993 0.41619 0.0
C42 C 0.13038 0.31978 0.43737 0.0
N43 N 0.14338 0.32764 0.4317 0.0
C44 C 0.11655 0.32171 0.35587 0.0
C45 C 0.12221 0.29849 0.36512 0.0
C46 C 0.12928 0.32283 0.34681 0.0
N47 N 0.11332 0.30971 0.36478 0.0
C48 C 0.13501 0.29908 0.35616 0.0
C49 C 0.13879 0.31151 0.34701 0.0
H50 H 0.10953 0.33072 0.35617 0.0
H51 H 0.11954 0.28931 0.37262 0.0
C52 C 0.06494 0.27212 0.41268 0.0
N53 N 0.0795 0.27844 0.40925 0.0
C54 C 0.06234 0.25977 0.42185 0.0
C55 C 0.0897 0.26011 0.42314 0.0
C56 C 0.09179 0.27259 0.41406 0.0
C57 C 0.07485 0.25375 0.42736 0.0
H58 H 0.05537 0.27689 0.40851 0.0
H59 H 0.10323 0.27781 0.41105 0.0
O60 O 0.08881 0.32985 0.37955 0.0
O61 O 0.06927 0.31245 0.40309 0.0
O62 O 0.07846 0.29094 0.3742 0.0
O63 O 0.10348 0.31036 0.40107 0.0
H64 H 0.08285 0.35847 0.39243 0.0
H65 H 0.08048 0.32392 0.34825 0.0
H66 H 0.07116 0.37622 0.3773 0.0
H67 H 0.06879 0.34228 0.33389 0.0
H68 H 0.06761 0.31254 0.45671 0.0
H69 H 0.0396 0.31219 0.40475 0.0
H70 H 0.08183 0.3126 0.43217 0.0
H71 H 0.02611 0.31231 0.42978 0.0
H72 H 0.02632 0.33585 0.36829 0.0
H73 H 0.02718 0.29004 0.3371 0.0
H74 H 0.1257 0.37906 0.42627 0.0
H75 H 0.07926 0.37256 0.44129 0.0
H76 H 0.08937 0.26482 0.37773 0.0
H77 H 0.07923 0.2945 0.34376 0.0
H78 H 0.09909 0.24716 0.35583 0.0
H79 H 0.08917 0.27636 0.32247 0.0
H80 H 0.13034 0.32613 0.39335 0.0
H81 H 0.10652 0.30743 0.43169 0.0
H82 H 0.15409 0.33622 0.41203 0.0
H83 H 0.13063 0.31807 0.44976 0.0
H84 H 0.13193 0.33276 0.34015 0.0
H85 H 0.14195 0.29001 0.35652 0.0
H86 H 0.05069 0.25501 0.42466 0.0
H87 H 0.09964 0.25585 0.42723 0.0
Li88 Li 0.00832 0.78448 0.64362 0.0
Li89 Li 0.02161 0.77056 0.66137 0.0
Li90 Li 1.00112 0.75514 0.64048 0.0
Li91 Li 0.9949 0.77179 0.66472 0.0
C92 C 0.03078 0.77478 0.62703 0.0
N93 N 0.04947 0.78888 0.60573 0.0
C94 C 0.04614 0.78264 0.632 0.0
C95 C 0.02496 0.77395 0.61119 0.0
C96 C 0.0554 0.78971 0.62105 0.0
C97 C 0.03457 0.78121 0.60062 0.0
C98 C 0.01183 0.80121 0.68069 0.0
C99 C 0.01002 0.80765 0.7093 0.0
N100 N 0.009 0.82317 0.70792 0.0
C101 C 0.0107 0.81719 0.67952 0.0
C102 C 0.01149 0.79638 0.69568 0.0
C103 C 0.00932 0.82813 0.69345 0.0
C104 C 0.99905 0.80462 0.62316 0.0
N105 N 0.01101 0.80256 0.63269 0.0
C106 C 0.02784 0.8256 0.62546 0.0
C107 C 0.02512 0.81295 0.63429 0.0
C108 C 0.01581 0.82779 0.61523 0.0
C109 C 1.00119 0.8173 0.61432 0.0
H110 H 0.9879 0.79631 0.62227 0.0
H111 H 0.03432 0.81123 0.64223 0.0
C112 C 0.04833 0.75841 0.6658 0.0
N113 N 0.04084 0.77019 0.67205 0.0
C114 C 0.06222 0.75723 0.67347 0.0
C115 C 0.06072 0.78069 0.69357 0.0
C116 C 0.0468 0.78135 0.68555 0.0
C117 C 0.06858 0.76842 0.68761 0.0
H118 H 0.04342 0.74985 0.6549 0.0
H119 H 0.04079 0.7908 0.69009 0.0
C120 C 0.9748 0.76233 0.63183 0.0
N121 N 0.94996 0.74408 0.61104 0.0
C122 C 0.96121 0.75515 0.6379 0.0
C123 C 0.97572 0.76037 0.61519 0.0
C124 C 0.94879 0.74593 0.62718 0.0
C125 C 0.96305 0.75105 0.60488 0.0
C126 C 0.01057 0.74212 0.67042 0.0
C127 C 0.01529 0.72898 0.66117 0.0
C128 C 0.01306 0.74485 0.68719 0.0
C129 C 0.02256 0.71887 0.66888 0.0
C130 C 0.02039 0.73447 0.69444 0.0
N131 N 0.02496 0.72181 0.68521 0.0
C132 C 1.00299 0.73014 0.61448 0.0
C133 C 0.98185 0.72408 0.63017 0.0
C134 C 0.99957 0.71404 0.60597 0.0
N135 N 0.99431 0.73471 0.62649 0.0
C136 C 0.97791 0.70792 0.62184 0.0
C137 C 0.9871 0.70256 0.60989 0.0
H138 H 0.01308 0.73873 0.61214 0.0
H139 H 0.97542 0.72797 0.64008 0.0
C140 C 0.97261 0.78522 0.68255 0.0
N141 N 0.9794 0.77219 0.67927 0.0
C142 C 0.95993 0.7843 0.69177 0.0
C143 C 0.96158 0.75663 0.69407 0.0
C144 C 0.97425 0.75812 0.6849 0.0
C145 C 0.9541 0.76974 0.69745 0.0
H146 H 0.9768 0.79616 0.67766 0.0
H147 H 0.97961 0.74779 0.68175 0.0
O148 O 0.0215 0.7679 0.6376 0.0
O149 O 0.01362 0.79049 0.66725 0.0
O150 O 0.98716 0.77124 0.64212 0.0
O151 O 1.00366 0.75234 0.66311 0.0
H152 H 0.05083 0.78341 0.64422 0.0
H153 H 0.01311 0.76787 0.60713 0.0
H154 H 0.06729 0.79591 0.62475 0.0
H155 H 0.03019 0.78075 0.58836 0.0
H156 H 0.00972 0.80407 0.72098 0.0
H157 H 0.01102 0.82113 0.668 0.0
H158 H 0.01236 0.78406 0.69676 0.0
H159 H 0.00853 0.84057 0.69275 0.0
H160 H 0.03922 0.83359 0.62662 0.0
H161 H 0.99164 0.81862 0.60654 0.0
H162 H 0.06776 0.74747 0.66851 0.0
H163 H 0.06533 0.78978 0.70424 0.0
H164 H 0.96029 0.75658 0.65073 0.0
H165 H 0.98613 0.76589 0.6103 0.0
H166 H 0.93822 0.74024 0.63171 0.0
H167 H 0.96363 0.74936 0.59198 0.0
H168 H 0.01358 0.72673 0.64819 0.0
H169 H 0.00942 0.7549 0.69453 0.0
H170 H 0.02636 0.70873 0.66186 0.0
H171 H 0.02245 0.73649 0.7074 0.0
H172 H 0.00721 0.71043 0.59712 0.0
H173 H 0.96812 0.69955 0.62517 0.0
H174 H 0.95463 0.79478 0.69422 0.0
H175 H 0.95733 0.74507 0.6979 0.0
Li176 Li 0.57174 0.81119 0.88032 0.0
Li177 Li 0.5922 0.8251 0.90094 0.0
Li178 Li 0.59878 0.81 0.8768 0.0
Li179 Li 0.58534 0.79558 0.89774 0.0
C180 C 0.58638 0.8374 0.86716 0.0
N181 N 0.57991 0.85393 0.84308 0.0
C182 C 0.58443 0.85353 0.87105 0.0
C183 C 0.58514 0.82972 0.85104 0.0
C184 C 0.58113 0.86166 0.8587 0.0
C185 C 0.58184 0.83827 0.83904 0.0
C186 C 0.56514 0.81963 0.91572 0.0
C187 C 0.55574 0.82264 0.94208 0.0
N188 N 0.55177 0.83683 0.93982 0.0
C189 C 0.56095 0.83422 0.91365 0.0
C190 C 0.56253 0.81377 0.93004 0.0
C191 C 0.55422 0.84275 0.92598 0.0
C192 C 0.5433 0.79687 0.86184 0.0
N193 N 0.55245 0.81133 0.86953 0.0
C194 C 0.5343 0.82622 0.86127 0.0
C195 C 0.54814 0.82582 0.86954 0.0
C196 C 0.5247 0.81154 0.85301 0.0
C197 C 0.52926 0.79668 0.85347 0.0
H198 H 0.54695 0.7855 0.86212 0.0
H199 H 0.55544 0.83713 0.87591 0.0
C200 C 0.60792 0.85739 0.90864 0.0
N201 N 0.59966 0.84535 0.91546 0.0
C202 C 0.61164 0.87355 0.9169 0.0
C203 C 0.59945 0.8644 0.93965 0.0
C204 C 0.59618 0.84834 0.931 0.0
C205 C 0.60666 0.87735 0.93231 0.0
H206 H 0.61101 0.85454 0.89644 0.0
H207 H 0.59016 0.83846 0.93641 0.0
C208 C 0.58115 0.77924 0.86119 0.0
N209 N 0.58317 0.75479 0.83576 0.0
C210 C 0.5869 0.7657 0.86397 0.0
C211 C 0.57621 0.78024 0.84552 0.0
C212 C 0.58788 0.75349 0.85093 0.0
C213 C 0.5774 0.76779 0.83282 0.0
C214 C 0.617 0.81757 0.91156 0.0
C215 C 0.63027 0.82843 0.90865 0.0
C216 C 0.6144 0.81548 0.9273 0.0
C217 C 0.64074 0.83713 0.92162 0.0
C218 C 0.62515 0.8244 0.93994 0.0
N219 N 0.63798 0.83495 0.93686 0.0
C220 C 0.62187 0.82628 0.86091 0.0
C221 C 0.61895 0.79741 0.85451 0.0
C222 C 0.63426 0.82863 0.85143 0.0
N223 N 0.61447 0.81088 0.86225 0.0
C224 C 0.63133 0.79919 0.84491 0.0
C225 C 0.63926 0.81498 0.8434 0.0
H226 H 0.61835 0.83681 0.86751 0.0
H227 H 0.61326 0.78533 0.85614 0.0
C228 C 0.56805 0.77095 0.91182 0.0
N229 N 0.58253 0.77725 0.90816 0.0
C230 C 0.56554 0.75822 0.92056 0.0
C231 C 0.59284 0.75839 0.92118 0.0
C232 C 0.59483 0.77119 0.91248 0.0
C233 C 0.57805 0.75185 0.92551 0.0
H234 H 0.55852 0.77612 0.90827 0.0
H235 H 0.60622 0.77647 0.90937 0.0
O236 O 0.58945 0.82921 0.87914 0.0
O237 O 0.57183 0.81115 0.90384 0.0
O238 O 0.58 0.79124 0.8738 0.0
O239 O 0.60642 0.80928 0.8991 0.0
H240 H 0.58524 0.85962 0.88348 0.0
H241 H 0.58678 0.81732 0.84783 0.0
H242 H 0.5795 0.87411 0.86153 0.0
H243 H 0.58083 0.83247 0.8265 0.0
H244 H 0.55366 0.81827 0.95324 0.0
H245 H 0.56323 0.83911 0.90281 0.0
H246 H 0.56579 0.80255 0.93188 0.0
H247 H 0.55104 0.85413 0.92459 0.0
H248 H 0.53108 0.8379 0.86147 0.0
H249 H 0.5222 0.7851 0.84722 0.0
H250 H 0.61766 0.88306 0.91097 0.0
H251 H 0.59543 0.8667 0.95153 0.0
H252 H 0.59067 0.76469 0.87604 0.0
H253 H 0.57141 0.79045 0.84321 0.0
H254 H 0.59239 0.74298 0.85288 0.0
H255 H 0.57368 0.76843 0.82062 0.0
H256 H 0.63239 0.83022 0.89652 0.0
H257 H 0.6041 0.80721 0.92974 0.0
H258 H 0.65103 0.84564 0.91957 0.0
H259 H 0.62326 0.82298 0.9522 0.0
H260 H 0.63997 0.84101 0.85057 0.0
H261 H 0.635 0.78833 0.83922 0.0
H262 H 0.55398 0.75378 0.92381 0.0
H263 H 0.60278 0.75373 0.92452 0.0
Li264 Li 0.50741 0.28733 0.14739 0.0
Li265 Li 0.52048 0.27327 0.1656 0.0
Li266 Li 0.50177 0.25678 0.14299 0.0
Li267 Li 0.49356 0.27157 0.16698 0.0
C268 C 0.53246 0.26987 0.13192 0.0
N269 N 0.55447 0.26391 0.11102 0.0
C270 C 0.54404 0.26206 0.1363 0.0
C271 C 0.53211 0.27465 0.11691 0.0
C272 C 0.55505 0.25916 0.12556 0.0
C273 C 0.54333 0.27152 0.10651 0.0
C274 C 0.52087 0.30252 0.1827 0.0
C275 C 0.53461 0.3096 0.20913 0.0
N276 N 0.54328 0.32323 0.20494 0.0
C277 C 0.5298 0.31669 0.17873 0.0
C278 C 0.52318 0.29903 0.19809 0.0
C279 C 0.5411 0.32698 0.19011 0.0
C280 C 0.49736 0.3109 0.13149 0.0
N281 N 0.50979 0.30546 0.13659 0.0
C282 C 0.52691 0.32525 0.12514 0.0
C283 C 0.52437 0.31238 0.13369 0.0
C284 C 0.5143 0.33099 0.11945 0.0
C285 C 0.49936 0.32371 0.12278 0.0
H286 H 0.48589 0.30518 0.13401 0.0
H287 H 0.53403 0.30777 0.13789 0.0
C288 C 0.54056 0.2613 0.18466 0.0
N289 N 0.53971 0.27389 0.17686 0.0
C290 C 0.5546 0.26033 0.19211 0.0
C291 C 0.56668 0.28541 0.18353 0.0
C292 C 0.55237 0.28585 0.17615 0.0
C293 C 0.56792 0.27239 0.19147 0.0
H294 H 0.53042 0.25178 0.18476 0.0
H295 H 0.55143 0.29549 0.16951 0.0
C296 C 0.47763 0.26832 0.13012 0.0
N297 N 0.45895 0.26149 0.10164 0.0
C298 C 0.46158 0.26391 0.13023 0.0
C299 C 0.48419 0.26928 0.11555 0.0
C300 C 0.45233 0.26049 0.11569 0.0
C301 C 0.47456 0.26579 0.10127 0.0
C302 C 0.49689 0.24365 0.17524 0.0
C303 C 0.48684 0.22867 0.16878 0.0
C304 C 0.499 0.2489 0.19194 0.0
C305 C 0.47883 0.21936 0.17909 0.0
C306 C 0.49076 0.23927 0.20185 0.0
N307 N 0.48091 0.22482 0.19528 0.0
C308 C 0.50791 0.23124 0.11954 0.0
C309 C 0.48165 0.22839 0.125 0.0
C310 C 0.5046 0.21588 0.10956 0.0
N311 N 0.49655 0.2371 0.1272 0.0
C312 C 0.47785 0.21279 0.1153 0.0
C313 C 0.48949 0.2063 0.10764 0.0
H314 H 0.51968 0.23808 0.12166 0.0
H315 H 0.47286 0.2332 0.13143 0.0
C316 C 0.47827 0.28073 0.19476 0.0
N317 N 0.47714 0.27024 0.18047 0.0
C318 C 0.46623 0.27904 0.2048 0.0
C319 C 0.45214 0.25588 0.18514 0.0
C320 C 0.46443 0.25801 0.17552 0.0
C321 C 0.45293 0.2665 0.19998 0.0
H322 H 0.48852 0.29036 0.19836 0.0
H323 H 0.46396 0.24977 0.16416 0.0
O324 O 0.52159 0.27287 0.14229 0.0
O325 O 0.50988 0.29218 0.17163 0.0
O326 O 0.48687 0.27139 0.1442 0.0
O327 O 0.50467 0.25308 0.16531 0.0
H328 H 0.54439 0.25805 0.14774 0.0
H329 H 0.5233 0.28075 0.11329 0.0
H330 H 0.56403 0.25308 0.12878 0.0
H331 H 0.54318 0.27515 0.09486 0.0
H332 H 0.5366 0.30696 0.22102 0.0
H333 H 0.52803 0.31975 0.167 0.0
H334 H 0.5163 0.28823 0.20145 0.0
H335 H 0.54814 0.33794 0.18715 0.0
H336 H 0.53859 0.33036 0.12266 0.0
H337 H 0.48935 0.32787 0.11872 0.0
H338 H 0.55504 0.25016 0.19822 0.0
H339 H 0.57673 0.29482 0.18259 0.0
H340 H 0.45631 0.26311 0.14141 0.0
H341 H 0.49658 0.27257 0.11528 0.0
H342 H 0.43988 0.25703 0.11559 0.0
H343 H 0.47948 0.26645 0.0899 0.0
H344 H 0.48524 0.22423 0.15596 0.0
H345 H 0.50684 0.26034 0.19718 0.0
H346 H 0.47096 0.20778 0.17422 0.0
H347 H 0.49219 0.24328 0.21478 0.0
H348 H 0.51397 0.21118 0.10412 0.0
H349 H 0.46607 0.20571 0.11413 0.0
H350 H 0.46721 0.2876 0.21606 0.0
H351 H 0.44219 0.24592 0.18108 0.0
Li352 Li 0.07584 0.82673 0.1111 0.0
Li353 Li 0.09051 0.81496 0.13083 0.0
Li354 Li 0.07301 0.79601 0.10749 0.0
Li355 Li 0.06151 0.81063 0.13066 0.0
C356 C 0.10108 0.81805 0.09541 0.0
N357 N 0.11942 0.82755 0.07177 0.0
C358 C 0.11552 0.82871 0.09963 0.0
C359 C 0.09603 0.81207 0.07918 0.0
C360 C 0.12461 0.8334 0.08749 0.0
C361 C 0.10546 0.81706 0.0674 0.0
C362 C 0.08694 0.84558 0.14434 0.0
C363 C 0.09469 0.86459 0.16942 0.0
N364 N 0.10646 0.87305 0.16243 0.0
C365 C 0.09911 0.85442 0.1374 0.0
C366 C 0.08469 0.85065 0.16047 0.0
C367 C 0.10885 0.86829 0.14674 0.0
C368 C 0.0604 0.84964 0.10015 0.0
N369 N 0.07445 0.84553 0.10037 0.0
C370 C 0.0844 0.86781 0.0868 0.0
C371 C 0.08638 0.85436 0.09382 0.0
C372 C 0.06999 0.87239 0.08643 0.0
C373 C 0.05791 0.86295 0.09325 0.0
H374 H 0.05105 0.84261 0.10548 0.0
H375 H 0.09751 0.85113 0.0941 0.0
C376 C 0.12083 0.80954 0.1355 0.0
N377 N 0.11003 0.81618 0.14352 0.0
C378 C 0.13468 0.80856 0.14363 0.0
C379 C 0.12625 0.82128 0.1683 0.0
C380 C 0.11255 0.8221 0.15966 0.0
C381 C 0.13758 0.81428 0.16036 0.0
H382 H 0.11859 0.80471 0.12273 0.0
H383 H 0.10381 0.82714 0.16595 0.0
C384 C 0.04684 0.80318 0.09346 0.0
N385 N 0.02718 0.79142 0.06574 0.0
C386 C 0.03231 0.79317 0.09403 0.0
C387 C 0.05132 0.80736 0.07885 0.0
C388 C 0.02255 0.7873 0.07986 0.0
C389 C 0.04123 0.80126 0.06495 0.0
C390 C 0.07189 0.78615 0.143 0.0
C391 C 0.06652 0.76912 0.13994 0.0
C392 C 0.07399 0.7948 0.15883 0.0
C393 C 0.06339 0.76098 0.15284 0.0
C394 C 0.07073 0.78622 0.1714 0.0
N395 N 0.06555 0.76963 0.16817 0.0
C396 C 0.08387 0.7703 0.08812 0.0
C397 C 0.05721 0.76363 0.09182 0.0
C398 C 0.08331 0.75415 0.08037 0.0
N399 N 0.07095 0.77472 0.09376 0.0
C400 C 0.05611 0.74738 0.08407 0.0
C401 C 0.06933 0.74231 0.07844 0.0
H402 H 0.09477 0.77918 0.09014 0.0
H403 H 0.04721 0.76718 0.09693 0.0
C404 C 0.03981 0.82221 0.15129 0.0
N405 N 0.04352 0.80852 0.14298 0.0
C406 C 0.02629 0.82104 0.15935 0.0
C407 C 0.02062 0.7917 0.15026 0.0
C408 C 0.03423 0.79343 0.14236 0.0
C409 C 0.01636 0.80563 0.15887 0.0
H410 H 0.04721 0.83411 0.15141 0.0
H411 H 0.03728 0.78271 0.13552 0.0
O412 O 0.09206 0.81325 0.10712 0.0
O413 O 0.07744 0.83182 0.13548 0.0
O414 O 0.05653 0.80902 0.1072 0.0
O415 O 0.07477 0.79434 0.13052 0.0
H416 H 0.11963 0.83337 0.11215 0.0
H417 H 0.085 0.80357 0.07573 0.0
H418 H 0.13578 0.84171 0.09058 0.0
H419 H 0.10169 0.81256 0.05479 0.0
H420 H 0.09311 0.86866 0.18193 0.0
H421 H 0.10106 0.85055 0.12496 0.0
H422 H 0.07538 0.84382 0.16604 0.0
H423 H 0.11834 0.87525 0.14154 0.0
H424 H 0.09408 0.87447 0.0816 0.0
H425 H 0.04666 0.866 0.0936 0.0
H426 H 0.14303 0.80334 0.13678 0.0
H427 H 0.12769 0.82568 0.18118 0.0
H428 H 0.02865 0.78991 0.10529 0.0
H429 H 0.06242 0.81531 0.07826 0.0
H430 H 0.0113 0.77947 0.0801 0.0
H431 H 0.04455 0.80437 0.05355 0.0
H432 H 0.06476 0.76228 0.12772 0.0
H433 H 0.07791 0.80802 0.16134 0.0
H434 H 0.05923 0.7478 0.15067 0.0
H435 H 0.07227 0.79275 0.18372 0.0
H436 H 0.0938 0.75091 0.07617 0.0
H437 H 0.04514 0.73869 0.08317 0.0
H438 H 0.02348 0.83219 0.16556 0.0
H439 H 0.01354 0.77952 0.14965 0.0
Li440 Li 0.5224 0.7867 0.43504 0.0
Li441 Li 0.50502 0.76826 0.41169 0.0
Li442 Li 0.52085 0.75631 0.43208 0.0
Li443 Li 0.53404 0.77168 0.41249 0.0
C444 C 0.49458 0.77166 0.44756 0.0
N445 N 0.47578 0.77767 0.47195 0.0
C446 C 0.48172 0.77828 0.4448 0.0
C447 C 0.49768 0.76776 0.46261 0.0
C448 C 0.47242 0.78134 0.45732 0.0
C449 C 0.48809 0.77098 0.47481 0.0
C450 C 0.5238 0.79531 0.39877 0.0
C451 C 0.52283 0.79308 0.36995 0.0
N452 N 0.52904 0.80945 0.37191 0.0
C453 C 0.5302 0.81209 0.40052 0.0
C454 C 0.52008 0.78569 0.38339 0.0
C455 C 0.53274 0.81902 0.38678 0.0
C456 C 0.53753 0.81727 0.45598 0.0
N457 N 0.52388 0.8081 0.44831 0.0
C458 C 0.51167 0.83078 0.45529 0.0
C459 C 0.5111 0.81458 0.44786 0.0
C460 C 0.52566 0.84073 0.46304 0.0
C461 C 0.53865 0.83362 0.46352 0.0
H462 H 0.54772 0.81214 0.45571 0.0
H463 H 0.50055 0.80737 0.44115 0.0
C464 C 0.47577 0.75385 0.3914 0.0
N465 N 0.48588 0.76776 0.39897 0.0
C466 C 0.4622 0.75481 0.38261 0.0
C467 C 0.46972 0.78432 0.38948 0.0
C468 C 0.48301 0.78279 0.39817 0.0
C469 C 0.45894 0.77025 0.38153 0.0
H470 H 0.47816 0.74198 0.39224 0.0
H471 H 0.49112 0.79372 0.40434 0.0
C472 C 0.54822 0.77619 0.45016 0.0
N473 N 0.56563 0.77871 0.47881 0.0
C474 C 0.56339 0.77399 0.45007 0.0
C475 C 0.54195 0.77983 0.46481 0.0
C476 C 0.57199 0.77526 0.46468 0.0
C477 C 0.55092 0.78102 0.47917 0.0
C478 C 0.52187 0.73862 0.39765 0.0
C479 C 0.53474 0.73276 0.40215 0.0
C480 C 0.51362 0.73201 0.38268 0.0
C481 C 0.53913 0.72029 0.39157 0.0
C482 C 0.51838 0.71955 0.37245 0.0
N483 N 0.53092 0.714 0.37707 0.0
C484 C 0.50846 0.72778 0.44664 0.0
C485 C 0.53561 0.73418 0.44619 0.0
C486 C 0.50926 0.71405 0.45375 0.0
N487 N 0.52154 0.73755 0.44294 0.0
C488 C 0.53694 0.7207 0.45332 0.0
C489 C 0.52368 0.7102 0.45712 0.0
H490 H 0.49734 0.73049 0.44388 0.0
H491 H 0.5459 0.74184 0.44303 0.0
C492 C 0.56499 0.78464 0.40703 0.0
N493 N 0.55191 0.77385 0.39988 0.0
C494 C 0.57866 0.78649 0.39925 0.0
C495 C 0.56525 0.76618 0.37676 0.0
C496 C 0.55176 0.76492 0.38486 0.0
C497 C 0.57899 0.77703 0.38398 0.0
H498 H 0.56484 0.79173 0.41891 0.0
H499 H 0.54121 0.75671 0.37914 0.0
O500 O 0.50372 0.76844 0.4354 0.0
O501 O 0.52118 0.78833 0.41206 0.0
O502 O 0.53964 0.77493 0.43595 0.0
O503 O 0.51743 0.75088 0.40775 0.0
H504 H 0.479 0.7811 0.43314 0.0
H505 H 0.5073 0.76217 0.46482 0.0
H506 H 0.46251 0.78659 0.4554 0.0
H507 H 0.4904 0.76809 0.48654 0.0
H508 H 0.52003 0.7858 0.35797 0.0
H509 H 0.53312 0.81966 0.41238 0.0
H510 H 0.51516 0.77266 0.38188 0.0
H511 H 0.53765 0.832 0.38793 0.0
H512 H 0.50128 0.83554 0.45468 0.0
H513 H 0.54977 0.84079 0.46904 0.0
H514 H 0.45425 0.74355 0.37693 0.0
H515 H 0.46806 0.79652 0.38888 0.0
H516 H 0.56842 0.77118 0.43881 0.0
H517 H 0.53036 0.78194 0.46509 0.0
H518 H 0.58372 0.77349 0.46479 0.0
H519 H 0.54621 0.78384 0.49061 0.0
H520 H 0.5414 0.73796 0.41356 0.0
H521 H 0.50368 0.73651 0.37901 0.0
H522 H 0.5491 0.71566 0.39486 0.0
H523 H 0.51211 0.71431 0.36082 0.0
H524 H 0.49863 0.70634 0.45621 0.0
H525 H 0.54837 0.71861 0.45585 0.0
H526 H 0.58897 0.79498 0.4053 0.0
H527 H 0.56489 0.75884 0.36489 0.0
Li528 Li 0.57557 0.32505 0.61071 0.0
Li529 Li 0.59036 0.31364 0.63074 0.0
Li530 Li 0.57245 0.29431 0.60762 0.0
Li531 Li 0.56143 0.30956 0.63064 0.0
C532 C 0.6018 0.31746 0.59675 0.0
N533 N 0.62236 0.32996 0.57619 0.0
C534 C 0.61352 0.33133 0.6025 0.0
C535 C 0.60058 0.30985 0.5806 0.0
C536 C 0.62379 0.3375 0.59189 0.0
C537 C 0.61108 0.31638 0.57038 0.0
C538 C 0.58641 0.34384 0.64513 0.0
C539 C 0.59549 0.35849 0.67201 0.0
N540 N 0.60456 0.37051 0.66576 0.0
C541 C 0.59583 0.35632 0.63896 0.0
C542 C 0.58621 0.34491 0.66177 0.0
C543 C 0.60492 0.36972 0.6496 0.0
C544 C 0.56689 0.35491 0.60734 0.0
N545 N 0.57463 0.34386 0.59984 0.0
C546 C 0.57937 0.35967 0.57874 0.0
C547 C 0.58077 0.34601 0.5857 0.0
C548 C 0.57155 0.37138 0.58631 0.0
C549 C 0.56525 0.36871 0.60084 0.0
H550 H 0.56192 0.35297 0.61846 0.0
H551 H 0.58673 0.33714 0.57968 0.0
C552 C 0.61245 0.2994 0.64508 0.0
N553 N 0.6099 0.31437 0.64339 0.0
C554 C 0.62613 0.29797 0.65322 0.0
C555 C 0.6346 0.3274 0.6579 0.0
C556 C 0.62073 0.32828 0.64959 0.0
C557 C 0.63756 0.31206 0.65977 0.0
H558 H 0.60386 0.28844 0.63997 0.0
H559 H 0.6188 0.34008 0.64793 0.0
C560 C 0.54746 0.30267 0.59261 0.0
N561 N 0.53004 0.2928 0.56331 0.0
C562 C 0.53168 0.29569 0.59196 0.0
C563 C 0.55439 0.30462 0.5784 0.0
C564 C 0.52306 0.29077 0.57701 0.0
C565 C 0.54538 0.29956 0.5637 0.0
C566 C 0.56958 0.2846 0.64254 0.0
C567 C 0.56078 0.26856 0.63838 0.0
C568 C 0.57314 0.29192 0.65874 0.0
C569 C 0.55559 0.26009 0.65057 0.0
C570 C 0.56773 0.28305 0.67057 0.0
N571 N 0.55914 0.26745 0.66627 0.0
C572 C 0.58357 0.2679 0.59061 0.0
C573 C 0.55627 0.26267 0.58983 0.0
C574 C 0.58299 0.25174 0.58291 0.0
N575 N 0.57035 0.27301 0.59405 0.0
C576 C 0.55516 0.2464 0.58209 0.0
C577 C 0.56865 0.24059 0.57878 0.0
H578 H 0.59464 0.27623 0.59433 0.0
H579 H 0.54592 0.26683 0.59307 0.0
C580 C 0.54125 0.32105 0.65358 0.0
N581 N 0.54345 0.30782 0.64308 0.0
C582 C 0.52779 0.32014 0.66175 0.0
C583 C 0.51908 0.29196 0.64831 0.0
C584 C 0.53265 0.29345 0.64034 0.0
C585 C 0.51636 0.30545 0.65916 0.0
H586 H 0.54982 0.33246 0.65538 0.0
H587 H 0.53448 0.28315 0.63176 0.0
O588 O 0.59159 0.31128 0.6069 0.0
O589 O 0.57733 0.3307 0.63494 0.0
O590 O 0.55609 0.30732 0.60711 0.0
O591 O 0.57461 0.29314 0.6308 0.0
H592 H 0.61465 0.33729 0.615 0.0
H593 H 0.59158 0.29906 0.57599 0.0
H594 H 0.6329 0.34827 0.59614 0.0
H595 H 0.61025 0.31066 0.55783 0.0
H596 H 0.59546 0.35949 0.68492 0.0
H597 H 0.59621 0.35564 0.62612 0.0
H598 H 0.57896 0.33534 0.66672 0.0
H599 H 0.61228 0.37945 0.645 0.0
H600 H 0.58457 0.36111 0.56762 0.0
H601 H 0.55886 0.37709 0.60708 0.0
H602 H 0.62764 0.28586 0.65445 0.0
H603 H 0.64306 0.33864 0.66249 0.0
H604 H 0.52617 0.29404 0.60288 0.0
H605 H 0.56661 0.30988 0.57873 0.0
H606 H 0.51084 0.28533 0.5763 0.0
H607 H 0.5506 0.30098 0.55259 0.0
H608 H 0.55793 0.26275 0.62587 0.0
H609 H 0.57996 0.30434 0.66211 0.0
H610 H 0.54873 0.24768 0.64754 0.0
H611 H 0.57035 0.28856 0.68317 0.0
H612 H 0.59371 0.24798 0.58047 0.0
H613 H 0.54385 0.23826 0.57939 0.0
H614 H 0.52623 0.33099 0.66972 0.0
H615 H 0.51083 0.2803 0.64599 0.0
Li616 Li 0.02203 0.28799 0.93434 0.0
Li617 Li 0.00531 0.26906 0.91174 0.0
Li618 Li 0.0204 0.25749 0.93191 0.0
Li619 Li 0.0343 0.27193 0.91181 0.0
C620 C 0.99654 0.2737 0.94901 0.0
N621 N 0.98251 0.2813 0.97686 0.0
C622 C 0.98232 0.27829 0.94827 0.0
C623 C 1.00356 0.27282 0.96387 0.0
C624 C 0.97542 0.28214 0.9625 0.0
C625 C 0.9963 0.27676 0.97783 0.0
C626 C 0.01856 0.29544 0.8981 0.0
C627 C 0.01485 0.29338 0.86936 0.0
N628 N 0.01138 0.30847 0.87166 0.0
C629 C 0.01498 0.31092 0.90021 0.0
C630 C 0.01852 0.28657 0.88258 0.0
C631 C 0.01137 0.3173 0.88667 0.0
C632 C 0.03757 0.31924 0.95342 0.0
N633 N 0.0236 0.30968 0.94712 0.0
C634 C 0.01134 0.33217 0.95506 0.0
C635 C 0.01061 0.31585 0.94782 0.0
C636 C 0.02562 0.34245 0.96156 0.0
C637 C 0.03883 0.33563 0.96084 0.0
H638 H 0.04786 0.31432 0.95227 0.0
H639 H 0.99973 0.30829 0.94214 0.0
C640 C 0.9785 0.25491 0.888 0.0
N641 N 0.98603 0.26816 0.89906 0.0
C642 C 0.96475 0.25537 0.87923 0.0
C643 C 0.9668 0.2831 0.89325 0.0
C644 C 0.98035 0.28203 0.90183 0.0
C645 C 0.95865 0.26965 0.88173 0.0
H646 H 0.98312 0.24395 0.886 0.0
H647 H 0.98645 0.29241 0.91072 0.0
C648 C 0.05003 0.27651 0.94772 0.0
N649 N 0.07224 0.2777 0.97221 0.0
C650 C 0.06286 0.26971 0.94445 0.0
C651 C 0.04859 0.2841 0.96343 0.0
C652 C 0.07393 0.27038 0.957 0.0
C653 C 0.05992 0.28453 0.97565 0.0
C654 C 0.02337 0.23808 0.90123 0.0
C655 C 0.03674 0.23538 0.90875 0.0
C656 C 0.01609 0.22725 0.88736 0.0
C657 C 0.0426 0.22183 0.90228 0.0
C658 C 0.02232 0.21384 0.88124 0.0
N659 N 0.03534 0.21143 0.88876 0.0
C660 C 0.01236 0.22346 0.93563 0.0
C661 C 0.0289 0.24039 0.95739 0.0
C662 C 0.01311 0.20943 0.94219 0.0
N663 N 0.0204 0.23862 0.94309 0.0
C664 C 0.02992 0.22672 0.96441 0.0
C665 C 0.02212 0.21085 0.95675 0.0
H666 H 0.00553 0.22216 0.92435 0.0
H667 H 0.03513 0.25237 0.96338 0.0
C668 C 0.06531 0.28484 0.90611 0.0
N669 N 0.05233 0.27358 0.89948 0.0
C670 C 0.07892 0.28642 0.89821 0.0
C671 C 0.06562 0.26487 0.87667 0.0
C672 C 0.05225 0.26375 0.88496 0.0
C673 C 0.0793 0.27631 0.88326 0.0
H674 H 0.06512 0.2926 0.91763 0.0
H675 H 0.04182 0.25493 0.87981 0.0
O676 O 1.00347 0.26993 0.93521 0.0
O677 O 0.02183 0.28886 0.91118 0.0
O678 O 0.03913 0.27611 0.93557 0.0
O679 O 0.01749 0.25133 0.90731 0.0
H680 H 0.97669 0.27894 0.93683 0.0
H681 H 0.01449 0.26915 0.96462 0.0
H682 H 0.96444 0.28578 0.96212 0.0
H683 H 1.00163 0.27617 0.98943 0.0
H684 H 0.01473 0.28665 0.85727 0.0
H685 H 0.01491 0.3179 0.91217 0.0
H686 H 0.02116 0.2745 0.88079 0.0
H687 H 0.00853 0.32926 0.8881 0.0
H688 H 1.00087 0.33684 0.95492 0.0
H689 H 0.0501 0.34293 0.96575 0.0
H690 H 0.9589 0.24454 0.87073 0.0
H691 H 0.96294 0.29452 0.89553 0.0
H692 H 0.06432 0.26403 0.93233 0.0
H693 H 0.03878 0.2895 0.96618 0.0
H694 H 0.0839 0.26512 0.95465 0.0
H695 H 0.0589 0.29028 0.98786 0.0
H696 H 0.04247 0.24364 0.9195 0.0
H697 H 0.00576 0.22922 0.88136 0.0
H698 H 0.05293 0.21958 0.90799 0.0
H699 H 0.01682 0.20536 0.8705 0.0
H700 H 0.00664 0.19758 0.93589 0.0
H701 H 0.03711 0.22859 0.97556 0.0
H702 H 0.08897 0.29564 0.90373 0.0
H703 H 0.06527 0.25664 0.86531 0.0
Li704 Li 0.41642 0.05202 0.30761 0.0
Li705 Li 0.39357 0.03526 0.29021 0.0
Li706 Li 0.41394 0.05271 0.27883 0.0
Li707 Li 0.39633 0.06402 0.29696 0.0
C708 C 0.42372 0.02295 0.29273 0.0
N709 N 0.44041 1.00067 0.30031 0.0
C710 C 0.41637 0.00902 0.29842 0.0
C711 C 0.43954 0.02548 0.29078 0.0
C712 C 0.42501 0.99792 0.30221 0.0
C713 C 0.44778 0.0141 0.29473 0.0
C714 C 0.38612 0.05489 0.32347 0.0
C715 C 0.36219 0.06128 0.33197 0.0
N716 N 0.36966 0.06951 0.34636 0.0
C717 C 0.39355 0.06333 0.33837 0.0
C718 C 0.3703 0.05375 0.32026 0.0
C719 C 0.38503 0.07066 0.34978 0.0
C720 C 0.43925 0.06946 0.33175 0.0
N721 N 0.43084 0.05414 0.32552 0.0
C722 C 0.44329 0.04283 0.34513 0.0
C723 C 0.43243 0.04097 0.3321 0.0
C724 C 0.45237 0.05848 0.35162 0.0
C725 C 0.45019 0.07192 0.34481 0.0
H726 H 0.43734 0.07985 0.32672 0.0
H727 H 0.42521 0.02904 0.32736 0.0
C728 C 0.38237 1.0046 0.27156 0.0
N729 N 0.37998 0.01451 0.28516 0.0
C730 C 0.37318 0.98889 0.26697 0.0
C731 C 0.35932 0.99378 0.29061 0.0
C732 C 0.3687 0.00954 0.29465 0.0
C733 C 0.36164 0.98317 0.27669 0.0
H734 H 0.39155 0.00891 0.26437 0.0
H735 H 0.36722 0.01767 0.30549 0.0
C736 C 0.43209 0.0816 0.29414 0.0
N737 N 0.45846 0.10184 0.28694 0.0
C738 C 0.43155 0.09714 0.29098 0.0
C739 C 0.44603 0.07638 0.29374 0.0
C740 C 0.44502 0.10719 0.28734 0.0
C741 C 0.45923 0.08678 0.29005 0.0
C742 C 0.38022 0.04115 0.26387 0.0
C743 C 0.38417 0.03474 0.24868 0.0
C744 C 0.36482 0.03752 0.26748 0.0
C745 C 0.37266 0.02459 0.23744 0.0
C746 C 0.35366 0.02729 0.25592 0.0
N747 N 0.35778 0.02109 0.24127 0.0
C748 C 0.42932 0.03975 0.25399 0.0
C749 C 0.42854 0.06755 0.2539 0.0
C750 C 0.4378 0.03923 0.24059 0.0
N751 N 0.42507 0.0538 0.26046 0.0
C752 C 0.43715 0.06763 0.24051 0.0
C753 C 0.44191 0.05332 0.23375 0.0
H754 H 0.4261 0.0289 0.25924 0.0
H755 H 0.42466 0.07844 0.25905 0.0
C756 C 0.39048 0.09317 0.31494 0.0
N757 N 0.38602 0.08141 0.30152 0.0
C758 C 0.38315 0.10634 0.31789 0.0
C759 C 0.36695 0.09501 0.29306 0.0
C760 C 0.37447 0.08203 0.2907 0.0
C761 C 0.37132 0.10748 0.30675 0.0
H762 H 0.39986 0.09242 0.32323 0.0
H763 H 0.37138 0.07268 0.27999 0.0
O764 O 0.41543 0.03388 0.28875 0.0
O765 O 0.39429 0.04775 0.31211 0.0
O766 O 0.41899 0.07151 0.29752 0.0
O767 O 0.39138 0.05087 0.27514 0.0
H768 H 0.40418 0.00689 0.30012 0.0
H769 H 0.44539 0.03606 0.2862 0.0
H770 H 0.41949 0.98714 0.3067 0.0
H771 H 0.46003 0.01592 0.29331 0.0
H772 H 0.34996 0.0606 0.3296 0.0
H773 H 0.40578 0.06427 0.34107 0.0
H774 H 0.36438 0.04727 0.30878 0.0
H775 H 0.39063 0.07728 0.36134 0.0
H776 H 0.4446 0.03213 0.35002 0.0
H777 H 0.45664 0.08425 0.34971 0.0
H778 H 0.37524 0.98123 0.25604 0.0
H779 H 0.35073 0.98978 0.29858 0.0
H780 H 0.42083 0.10134 0.29125 0.0
H781 H 0.44662 0.06441 0.29624 0.0
H782 H 0.44478 0.11924 0.2848 0.0
H783 H 0.47009 0.08288 0.28965 0.0
H784 H 0.396 0.03747 0.24564 0.0
H785 H 0.36157 0.04236 0.27918 0.0
H786 H 0.37557 0.01946 0.22568 0.0
H787 H 0.34173 0.02426 0.25861 0.0
H788 H 0.44135 0.028 0.23583 0.0
H789 H 0.43995 0.07868 0.23544 0.0
H790 H 0.38687 0.11562 0.32862 0.0
H791 H 0.35824 0.09556 0.28388 0.0
Li792 Li 0.29656 0.20372 0.52545 0.0
Li793 Li 0.3091 0.18128 0.51017 0.0
Li794 Li 0.29728 0.19887 0.49617 0.0
Li795 Li 0.27999 0.17835 0.5073 0.0
C796 C 0.32394 0.21866 0.50763 0.0
N797 N 0.34094 0.24461 0.49583 0.0
C798 C 0.33595 0.21629 0.49804 0.0
C799 C 0.32068 0.23425 0.51137 0.0
C800 C 0.34438 0.22956 0.49215 0.0
C801 C 0.32937 0.2472 0.50524 0.0
C802 C 0.29073 0.16766 0.53553 0.0
C803 C 0.28506 0.13877 0.53647 0.0
N804 N 0.28463 0.14245 0.5527 0.0
C805 C 0.29018 0.17118 0.5522 0.0
C806 C 0.28815 0.15136 0.52756 0.0
C807 C 0.28711 0.15825 0.56068 0.0
C808 C 0.28276 0.21922 0.55105 0.0
N809 N 0.29664 0.21779 0.54557 0.0
C810 C 0.30993 0.23389 0.57019 0.0
C811 C 0.31012 0.22501 0.55469 0.0
C812 C 0.29572 0.23531 0.57636 0.0
C813 C 0.28203 0.22806 0.56641 0.0
H814 H 0.27222 0.21318 0.54359 0.0
H815 H 0.32099 0.22346 0.5501 0.0
C816 C 0.33416 0.16829 0.49857 0.0
N817 N 0.32571 0.17011 0.51147 0.0
C818 C 0.34662 0.16055 0.49899 0.0
C819 C 0.34151 0.15669 0.526 0.0
C820 C 0.32919 0.16458 0.52508 0.0
C821 C 0.35047 0.15458 0.51284 0.0
H822 H 0.3313 0.17301 0.48798 0.0
H823 H 0.32246 0.16633 0.53528 0.0
C824 C 0.26993 0.21166 0.50583 0.0
N825 N 0.25042 0.23188 0.49973 0.0
C826 C 0.25616 0.20522 0.496 0.0
C827 C 0.27365 0.22834 0.51278 0.0
C828 C 0.24649 0.21566 0.493 0.0
C829 C 0.26367 0.23837 0.50949 0.0
C830 C 0.28977 0.16874 0.47478 0.0
C831 C 0.27659 0.17253 0.46802 0.0
C832 C 0.29824 0.15936 0.4651 0.0
C833 C 0.27213 0.16695 0.45163 0.0
C834 C 0.29339 0.15398 0.44876 0.0
N835 N 0.28055 0.15787 0.44241 0.0
C836 C 0.30926 0.20352 0.46654 0.0
C837 C 0.29232 0.22102 0.47454 0.0
C838 C 0.31096 0.20935 0.45209 0.0
N839 N 0.29984 0.20916 0.47733 0.0
C840 C 0.29371 0.22723 0.46026 0.0
C841 C 0.30296 0.22124 0.44867 0.0
H842 H 0.31535 0.1943 0.46908 0.0
H843 H 0.28506 0.22559 0.48321 0.0
C844 C 0.24988 0.16896 0.51587 0.0
N845 N 0.26013 0.16389 0.50583 0.0
C846 C 0.23487 0.15955 0.51519 0.0
C847 C 0.24123 0.13971 0.49397 0.0
C848 C 0.25616 0.14953 0.49506 0.0
C849 C 0.23028 0.14473 0.50406 0.0
H850 H 0.25337 0.18042 0.52434 0.0
H851 H 0.26453 0.14576 0.48721 0.0
O852 O 0.31536 0.20579 0.51328 0.0
O853 O 0.29399 0.18016 0.52711 0.0
O854 O 0.27948 0.20162 0.50905 0.0
O855 O 0.29452 0.17439 0.49073 0.0
H856 H 0.33864 0.2043 0.49508 0.0
H857 H 0.3115 0.23629 0.51888 0.0
H858 H 0.35365 0.22789 0.48464 0.0
H859 H 0.32693 0.25932 0.50797 0.0
H860 H 0.28304 0.12609 0.53048 0.0
H861 H 0.29222 0.18377 0.55851 0.0
H862 H 0.28858 0.14848 0.51464 0.0
H863 H 0.28672 0.16077 0.5736 0.0
H864 H 0.32077 0.23903 0.57747 0.0
H865 H 0.27083 0.22899 0.5705 0.0
H866 H 0.3533 0.15948 0.48865 0.0
H867 H 0.34386 0.15214 0.53686 0.0
H868 H 0.2529 0.19229 0.49083 0.0
H869 H 0.28415 0.23349 0.52058 0.0
H870 H 0.23583 0.21085 0.48536 0.0
H871 H 0.26644 0.25131 0.5147 0.0
H872 H 0.26998 0.17984 0.47534 0.0
H873 H 0.30845 0.15627 0.47016 0.0
H874 H 0.26199 0.16987 0.44622 0.0
H875 H 0.29985 0.14673 0.44112 0.0
H876 H 0.31845 0.20458 0.44368 0.0
H877 H 0.28723 0.23631 0.45815 0.0
H878 H 0.22697 0.1638 0.52342 0.0
H879 H 0.23822 0.12848 0.4851 0.0
Li880 Li 0.18013 0.03199 0.77127 0.0
Li881 Li 0.15743 0.01488 0.78443 0.0
Li882 Li 0.1772 0.99846 0.7678 0.0
Li883 Li 0.15772 0.01247 0.75273 0.0
C884 C 0.18941 0.0241 0.80215 0.0
N885 N 0.20685 0.03858 0.83081 0.0
C886 C 0.18522 0.03706 0.81223 0.0
C887 C 0.20244 0.01849 0.8066 0.0
C888 C 0.19419 0.04421 0.82669 0.0
C889 C 0.21112 0.02599 0.82115 0.0
C890 C 0.14705 0.04126 0.77127 0.0
C891 C 0.12115 0.0447 0.76574 0.0
N892 N 0.1254 0.06052 0.77369 0.0
C893 C 0.15119 0.05754 0.77937 0.0
C894 C 0.13194 0.03475 0.76439 0.0
C895 C 0.14006 0.06709 0.78046 0.0
C896 C 0.18981 0.06338 0.76147 0.0
N897 N 0.19344 0.05488 0.77291 0.0
C898 C 0.21279 0.07885 0.78569 0.0
C899 C 0.20481 0.06238 0.78488 0.0
C900 C 0.2092 0.08805 0.77408 0.0
C901 C 0.19751 0.07979 0.76178 0.0
H902 H 0.18073 0.05745 0.75205 0.0
H903 H 0.20765 0.05571 0.79403 0.0
C904 C 0.15041 0.0099 0.81797 0.0
N905 N 0.14569 0.0164 0.80533 0.0
C906 C 0.1434 0.0114 0.83274 0.0
C907 C 0.12649 0.02621 0.82174 0.0
C908 C 0.13383 0.02445 0.80717 0.0
C909 C 0.13116 0.01974 0.83509 0.0
H910 H 0.15982 1.00357 0.81671 0.0
H911 H 0.13003 0.02978 0.79737 0.0
C912 C 0.18413 0.01143 0.73614 0.0
N913 N 0.19 0.00545 0.70419 0.0
C914 C 0.17883 0.99578 0.72682 0.0
C915 C 0.19245 0.02404 0.72926 0.0
C916 C 0.1819 0.99301 0.71067 0.0
C917 C 0.19529 0.02077 0.71307 0.0
C918 C 0.14016 0.98327 0.75972 0.0
C919 C 0.141 0.96953 0.74832 0.0
C920 C 0.12577 0.98594 0.76402 0.0
C921 C 0.12733 0.95867 0.74131 0.0
C922 C 0.11237 0.97479 0.75674 0.0
N923 N 0.11342 0.9615 0.74563 0.0
C924 C 0.1864 0.96905 0.77909 0.0
C925 C 0.19897 0.97553 0.75653 0.0
C926 C 0.19401 0.95581 0.7795 0.0
N927 N 0.18884 0.97883 0.76771 0.0
C928 C 0.2068 0.96239 0.75651 0.0
C929 C 0.20455 0.95202 0.76811 0.0
H930 H 0.17844 0.97143 0.78802 0.0
H931 H 0.20114 0.98315 0.74749 0.0
C932 C 0.15207 0.02538 0.72289 0.0
N933 N 0.14572 0.01315 0.73083 0.0
C934 C 0.14505 0.02737 0.70812 0.0
C935 C 0.12455 1.00449 0.70955 0.0
C936 C 0.13206 1.00279 0.72426 0.0
C937 C 0.13095 0.01692 0.70097 0.0
H938 H 0.16269 0.03386 0.72808 0.0
H939 H 0.1268 0.99314 0.73039 0.0
O940 O 0.18078 0.01694 0.78797 0.0
O941 O 0.15776 0.03172 0.7701 0.0
O942 O 0.18114 0.01439 0.75192 0.0
O943 O 0.15337 0.99408 0.76666 0.0
H944 H 0.17517 0.04156 0.80888 0.0
H945 H 0.2058 0.00845 0.79889 0.0
H946 H 0.1911 0.05426 0.83463 0.0
H947 H 0.22125 0.02179 0.82476 0.0
H948 H 0.10939 0.03983 0.7605 0.0
H949 H 0.16286 0.06273 0.78478 0.0
H950 H 0.12856 0.02214 0.75813 0.0
H951 H 0.14308 0.07972 0.7867 0.0
H952 H 0.22146 0.0844 0.7956 0.0
H953 H 0.1943 0.08587 0.75229 0.0
H954 H 0.14756 0.00587 0.84222 0.0
H955 H 0.11738 0.03297 0.82255 0.0
H956 H 0.17237 0.98592 0.73201 0.0
H957 H 0.19665 0.03622 0.73635 0.0
H958 H 0.17784 0.98096 0.70329 0.0
H959 H 0.20171 0.0304 0.70757 0.0
H960 H 0.15208 0.9673 0.74493 0.0
H961 H 0.12497 0.99653 0.77286 0.0
H962 H 0.12778 0.94799 0.73244 0.0
H963 H 0.10114 0.97669 0.75991 0.0
H964 H 0.19135 0.94846 0.78869 0.0
H965 H 0.21479 0.96064 0.74747 0.0
H966 H 0.1506 0.03738 0.70254 0.0
H967 H 0.11384 0.99589 0.70485 0.0
Li968 Li 0.29162 0.93541 0.02033 0.0
Li969 Li 0.30417 0.91986 0.03699 0.0
Li970 Li 0.31967 0.94302 0.02686 0.0
Li971 Li 0.3084 0.91679 0.00933 0.0
C972 C 0.30608 0.9551 0.05511 0.0
N973 N 0.31225 0.97913 0.08255 0.0
C974 C 0.31247 0.95192 0.06937 0.0
C975 C 0.30267 0.97046 0.05489 0.0
C976 C 0.31554 0.96424 0.08309 0.0
C977 C 0.30593 0.98246 0.06886 0.0
C978 C 0.27839 0.89937 0.02423 0.0
C979 C 0.27259 0.87291 0.0322 0.0
N980 N 0.25886 0.87585 0.037 0.0
C981 C 0.26419 0.9021 0.02914 0.0
C982 C 0.28259 0.88462 0.02566 0.0
C983 C 0.25449 0.89006 0.0356 0.0
C984 C 0.26933 0.94702 1.00262 0.0
N985 N 0.27435 0.94449 0.01723 0.0
C986 C 0.25639 0.95846 0.03026 0.0
C987 C 0.26792 0.94964 0.03085 0.0
C988 C 0.25141 0.96195 0.01549 0.0
C989 C 0.25773 0.9558 1.00146 0.0
H990 H 0.27466 0.9427 0.99199 0.0
H991 H 0.27206 0.94724 0.04224 0.0
C992 C 0.31395 0.90249 0.05921 0.0
N993 N 0.30224 0.90947 0.05507 0.0
C994 C 0.31363 0.89542 0.07291 0.0
C995 C 0.28906 0.90268 0.07775 0.0
C996 C 0.28995 0.90979 0.06401 0.0
C997 C 0.30111 0.89555 0.0824 0.0
H998 H 0.32368 0.90265 0.05203 0.0
H999 H 0.28097 0.91577 0.06059 0.0
C1000 C 0.30821 0.95184 0.99745 0.0
N1001 N 0.30875 0.97766 0.98133 0.0
C1002 C 0.30962 0.94959 0.9809 0.0
C1003 C 0.30709 0.9672 0.00582 0.0
C1004 C 0.30988 0.96281 0.97296 0.0
C1005 C 0.30736 0.9801 0.99745 0.0
C1006 C 0.33524 0.91337 0.02185 0.0
C1007 C 0.34926 0.92228 0.01805 0.0
C1008 C 0.33243 0.89623 0.01927 0.0
C1009 C 0.36015 0.91386 0.0115 0.0
C1010 C 0.3436 0.88827 0.01267 0.0
N1011 N 0.35711 0.89717 0.00895 0.0
C1012 C 0.34387 0.96628 0.0464 0.0
C1013 C 0.34364 0.96638 0.01841 0.0
C1014 C 0.3578 0.9779 0.0493 0.0
N1015 N 0.33715 0.96072 0.03114 0.0
C1016 C 0.35755 0.97795 0.02073 0.0
C1017 C 0.36498 0.98357 0.0363 0.0
H1018 H 0.3389 0.9611 0.05623 0.0
H1019 H 0.33856 0.96122 0.00631 0.0
C1020 C 0.29995 0.88834 0.98578 0.0
N1021 N 0.31116 0.90213 0.99078 0.0
C1022 C 0.3013 0.8773 0.97198 0.0
C1023 C 0.32586 0.89474 0.96891 0.0
C1024 C 0.32389 0.90561 0.98262 0.0
C1025 C 0.31437 0.88048 0.96341 0.0
H1026 H 0.28985 0.88602 0.99237 0.0
H1027 H 0.33245 0.91686 0.98671 0.0
O1028 O 0.30276 0.94309 0.04161 0.0
O1029 O 0.28811 0.91108 0.01805 0.0
O1030 O 0.30821 0.93907 0.00541 0.0
O1031 O 0.32438 0.92139 0.02815 0.0
H1032 H 0.31526 0.94016 0.06981 0.0
H1033 H 0.29745 0.97309 0.0441 0.0
H1034 H 0.32058 0.96197 0.09416 0.0
H1035 H 0.30337 0.9944 0.06883 0.0
H1036 H 0.27574 0.86149 0.03349 0.0
H1037 H 0.26074 0.91342 0.02805 0.0
H1038 H 0.29353 0.88232 0.0219 0.0
H1039 H 0.24349 0.89203 0.03952 0.0
H1040 H 0.25155 0.96269 0.04129 0.0
H1041 H 0.25415 0.95824 0.98986 0.0
H1042 H 0.32307 0.88991 0.07605 0.0
H1043 H 0.2793 0.90313 0.08489 0.0
H1044 H 0.31059 0.93777 0.97428 0.0
H1045 H 0.30615 0.96914 0.01864 0.0
H1046 H 0.31101 0.96127 0.96015 0.0
H1047 H 0.30651 0.99207 0.00377 0.0
H1048 H 0.35172 0.93553 0.02007 0.0
H1049 H 0.32167 0.88915 0.02218 0.0
H1050 H 0.37102 0.92059 0.00843 0.0
H1051 H 0.34152 0.87501 0.0105 0.0
H1052 H 0.36324 0.98183 0.06148 0.0
H1053 H 0.36291 0.98156 0.0103 0.0
H1054 H 0.2922 0.86643 0.96801 0.0
H1055 H 0.33597 0.89766 0.9624 0.0
Li1056 Li 0.28592 0.40269 0.03234 0.0
Li1057 Li 0.29671 0.38374 0.0455 0.0
Li1058 Li 0.31453 0.40598 0.03515 0.0
Li1059 Li 0.29716 0.38122 0.01588 0.0
C1060 C 0.29837 0.41775 0.06579 0.0
N1061 N 0.29421 0.43813 0.0936 0.0
C1062 C 0.28801 0.41178 0.07642 0.0
C1063 C 0.30665 0.43404 0.0693 0.0
C1064 C 0.28608 0.42229 0.09043 0.0
C1065 C 0.30436 0.44417 0.08342 0.0
C1066 C 0.26548 0.36858 0.03017 0.0
C1067 C 0.24776 0.3422 0.02391 0.0
N1068 N 0.23767 0.34825 0.03356 0.0
C1069 C 0.25495 0.37456 0.04002 0.0
C1070 C 0.26187 0.3523 0.02201 0.0
C1071 C 0.24094 0.36407 0.04158 0.0
C1072 C 0.25928 0.4098 0.01782 0.0
N1073 N 0.26907 0.41401 0.03149 0.0
C1074 C 0.2542 0.43293 0.04315 0.0
C1075 C 0.26676 0.4254 0.04403 0.0
C1076 C 0.24404 0.42895 0.02912 0.0
C1077 C 0.24676 0.4173 0.01629 0.0
H1078 H 0.26119 0.40055 0.00809 0.0
H1079 H 0.27458 0.42871 0.05477 0.0
C1080 C 0.30798 0.37637 0.07438 0.0
N1081 N 0.29549 0.37215 0.06332 0.0
C1082 C 0.30797 0.3691 0.08804 0.0
C1083 C 0.28213 0.35349 0.07892 0.0
C1084 C 0.28276 0.3608 0.06529 0.0
C1085 C 0.29484 0.35764 0.09051 0.0
H1086 H 0.3179 0.38555 0.07266 0.0
H1087 H 0.27298 0.35746 0.05644 0.0
C1088 C 0.29662 0.41708 0.00814 0.0
N1089 N 0.28706 0.44079 0.99395 0.0
C1090 C 0.28906 0.41291 0.99266 0.0
C1091 C 0.29941 0.4333 0.0164 0.0
C1092 C 0.2843 0.42508 0.98569 0.0
C1093 C 0.29446 0.44511 0.00902 0.0
C1094 C 0.31996 0.36915 0.03627 0.0
C1095 C 0.33422 0.37199 0.04522 0.0
C1096 C 0.31106 0.35317 0.03188 0.0
C1097 C 0.33934 0.35871 0.04969 0.0
C1098 C 0.31659 0.34023 0.03659 0.0
N1099 N 0.33049 0.34325 0.04532 0.0
C1100 C 0.34382 0.4229 0.05145 0.0
C1101 C 0.3392 0.42724 0.02487 0.0
C1102 C 0.35886 0.43247 0.05262 0.0
N1103 N 0.33441 0.4204 0.03767 0.0
C1104 C 0.35409 0.4369 0.02553 0.0
C1105 C 0.36426 0.43946 0.03945 0.0
H1106 H 0.33974 0.41715 0.06138 0.0
H1107 H 0.33152 0.42496 0.01402 0.0
C1108 C 0.28352 0.36248 0.9855 0.0
N1109 N 0.29662 0.36719 0.99568 0.0
C1110 C 0.28362 0.35322 0.97016 0.0
C1111 C 0.31061 0.35362 0.97624 0.0
C1112 C 0.30998 0.36285 0.99143 0.0
C1113 C 0.29738 0.34887 0.96526 0.0
H1114 H 0.2731 0.36626 0.98916 0.0
H1115 H 0.32025 0.36685 0.99975 0.0
O1116 O 0.30052 0.40771 0.05207 0.0
O1117 O 0.27921 0.37861 0.02839 0.0
O1118 O 0.30109 0.4053 0.0153 0.0
O1119 O 0.31462 0.38198 0.03201 0.0
H1120 H 0.28149 0.3992 0.07383 0.0
H1121 H 0.31471 0.43881 0.06117 0.0
H1122 H 0.27809 0.41786 0.09877 0.0
H1123 H 0.31065 0.45682 0.08628 0.0
H1124 H 0.24482 0.32956 0.0177 0.0
H1125 H 0.25761 0.38711 0.04648 0.0
H1126 H 0.26993 0.34752 0.01435 0.0
H1127 H 0.23267 0.3685 0.04917 0.0
H1128 H 0.25257 0.44196 0.05326 0.0
H1129 H 0.23913 0.41381 0.0053 0.0
H1130 H 0.31796 0.37271 0.09677 0.0
H1131 H 0.27184 0.3446 0.08035 0.0
H1132 H 0.2868 0.40038 0.98615 0.0
H1133 H 0.30521 0.43667 0.02843 0.0
H1134 H 0.27838 0.42204 0.97373 0.0
H1135 H 0.29646 0.4577 0.01528 0.0
H1136 H 0.3412 0.38431 0.04874 0.0
H1137 H 0.29995 0.35082 0.02502 0.0
H1138 H 0.35035 0.36071 0.05664 0.0
H1139 H 0.30981 0.3278 0.03333 0.0
H1140 H 0.36632 0.43396 0.06353 0.0
H1141 H 0.35761 0.44223 0.01518 0.0
H1142 H 0.2732 0.35003 0.96204 0.0
H1143 H 0.3214 0.35039 0.97307 0.0
Li1144 Li 0.79073 0.1596 0.03531 0.0
Li1145 Li 0.80533 0.14006 0.02051 0.0
Li1146 Li 0.78773 0.15424 0.00587 0.0
Li1147 Li 0.77735 0.13271 0.0204 0.0
C1148 C 0.81808 0.17793 0.02658 0.0
N1149 N 0.84012 0.20585 0.03982 0.0
C1150 C 0.83124 0.17672 0.03566 0.0
C1151 C 0.81632 0.19333 0.02393 0.0
C1152 C 0.8422 0.19098 0.04233 0.0
C1153 C 0.82753 0.2073 0.03082 0.0
C1154 C 0.79137 0.12819 0.0504 0.0
C1155 C 0.79498 0.10406 0.06033 0.0
N1156 N 0.78753 0.10855 0.07347 0.0
C1157 C 0.7838 0.13262 0.06402 0.0
C1158 C 0.79705 0.11383 0.04854 0.0
C1159 C 0.78195 0.1225 0.07554 0.0
C1160 C 0.77685 0.17871 0.05829 0.0
N1161 N 0.79064 0.17523 0.05439 0.0
C1162 C 0.80361 0.19381 0.07785 0.0
C1163 C 0.80384 0.18223 0.06405 0.0
C1164 C 0.7896 0.19807 0.08181 0.0
C1165 C 0.77608 0.19028 0.07189 0.0
H1166 H 0.76634 0.17238 0.05098 0.0
H1167 H 0.81453 0.1787 0.06119 0.0
C1168 C 0.82763 0.1259 0.00509 0.0
N1169 N 0.82356 0.13178 0.01984 0.0
C1170 C 0.84034 0.11859 0.00372 0.0
C1171 C 0.84454 0.12373 0.03276 0.0
C1172 C 0.83175 0.13097 0.03357 0.0
C1173 C 0.84891 0.1173 0.01767 0.0
H1174 H 0.82079 0.12661 0.9944 0.0
H1175 H 0.8282 0.13575 0.04514 0.0
C1176 C 0.76273 0.16507 0.01865 0.0
N1177 N 0.7453 0.1876 0.01364 0.0
C1178 C 0.74673 0.16 0.01503 0.0
C1179 C 0.76981 0.18162 0.0199 0.0
C1180 C 0.73813 0.17157 0.01249 0.0
C1181 C 0.76082 0.19282 0.01728 0.0
C1182 C 0.78284 0.11598 0.99287 0.0
C1183 C 0.77297 0.11471 0.97911 0.0
C1184 C 0.78531 0.10178 0.9979 0.0
C1185 C 0.76556 0.09916 0.97069 0.0
C1186 C 0.77768 0.08645 0.98915 0.0
N1187 N 0.76804 0.08548 0.97585 0.0
C1188 C 0.79729 0.17407 0.98328 0.0
C1189 C 0.77049 0.16188 0.98044 0.0
C1190 C 0.79531 0.18302 0.97124 0.0
N1191 N 0.78491 0.16404 0.98783 0.0
C1192 C 0.76795 0.1707 0.96844 0.0
C1193 C 0.78043 0.18163 0.9639 0.0
H1194 H 0.80863 0.17547 0.98934 0.0
H1195 H 0.76089 0.15363 0.98419 0.0
C1196 C 0.75687 0.10567 0.03088 0.0
N1197 N 0.75939 0.11572 0.01989 0.0
C1198 C 0.74209 0.09634 0.03164 0.0
C1199 C 0.73311 0.10676 0.00889 0.0
C1200 C 0.74802 0.11594 0.00864 0.0
C1201 C 0.72989 0.09732 0.02093 0.0
H1202 H 0.76599 0.10542 0.0396 0.0
H1203 H 0.75032 0.12407 1.00007 0.0
O1204 O 0.80721 0.16408 0.01999 0.0
O1205 O 0.79338 0.13799 0.03908 0.0
O1206 O 0.7714 0.15387 0.02092 0.0
O1207 O 0.79001 0.13108 1.0014 0.0
H1208 H 0.83287 0.16493 0.03775 0.0
H1209 H 0.80651 0.19454 0.01652 0.0
H1210 H 0.85235 0.19021 0.04954 0.0
H1211 H 0.82626 0.21929 0.02893 0.0
H1212 H 0.79925 0.09287 0.05902 0.0
H1213 H 0.77937 0.14372 0.06565 0.0
H1214 H 0.80284 0.11017 0.03802 0.0
H1215 H 0.77608 0.12574 0.08612 0.0
H1216 H 0.81428 0.19943 0.08529 0.0
H1217 H 0.76498 0.19284 0.0748 0.0
H1218 H 0.84313 0.11358 0.99186 0.0
H1219 H 0.85091 0.12312 0.04381 0.0
H1220 H 0.74096 0.14731 0.01422 0.0
H1221 H 0.78209 0.18576 0.02298 0.0
H1222 H 0.72575 0.1678 0.00963 0.0
H1223 H 0.76619 0.20566 0.01818 0.0
H1224 H 0.77098 0.12561 0.97505 0.0
H1225 H 0.79296 0.10259 0.00851 0.0
H1226 H 0.75783 0.09798 0.96006 0.0
H1227 H 0.77941 0.07534 0.99294 0.0
H1228 H 0.80521 0.19141 0.96814 0.0
H1229 H 0.75635 0.16914 0.96291 0.0
H1230 H 0.74008 0.08902 0.04097 0.0
H1231 H 0.72402 0.10801 1.00049 0.0
Li1232 Li 0.19679 0.54847 0.24842 0.0
Li1233 Li 0.17497 0.5337 0.26071 0.0
Li1234 Li 0.19149 0.51828 0.24347 0.0
Li1235 Li 0.17327 0.53176 0.23215 0.0
C1236 C 0.20818 0.53678 0.27675 0.0
N1237 N 0.23041 0.5424 0.30234 0.0
C1238 C 0.20547 0.54439 0.29202 0.0
C1239 C 0.22215 0.53184 0.27457 0.0
C1240 C 0.21687 0.54719 0.30478 0.0
C1241 C 0.23325 0.53483 0.28763 0.0
C1242 C 0.16799 0.56315 0.25648 0.0
C1243 C 0.14477 0.57073 0.26587 0.0
N1244 N 0.15318 0.5859 0.27268 0.0
C1245 C 0.17639 0.57884 0.26352 0.0
C1246 C 0.15203 0.55907 0.25761 0.0
C1247 C 0.16869 0.59015 0.27168 0.0
C1248 C 0.21704 0.57419 0.2382 0.0
N1249 N 0.21257 0.56771 0.25129 0.0
C1250 C 0.23001 0.58958 0.26881 0.0
C1251 C 0.21881 0.57504 0.26639 0.0
C1252 C 0.23468 0.59674 0.25557 0.0
C1253 C 0.22822 0.58876 0.24006 0.0
H1254 H 0.21168 0.56822 0.22635 0.0
H1255 H 0.21476 0.56994 0.27662 0.0
C1256 C 0.15638 0.51819 0.28146 0.0
N1257 N 0.16393 0.53319 0.27913 0.0
C1258 C 0.14749 0.51685 0.29449 0.0
C1259 C 0.15449 0.54642 0.30252 0.0
C1260 C 0.1635 0.54715 0.28957 0.0
C1261 C 0.1463 0.53114 0.30495 0.0
H1262 H 0.15718 0.50727 0.27311 0.0
H1263 H 0.1701 0.55886 0.28784 0.0
C1264 C 0.20835 0.53246 0.21989 0.0
N1265 N 0.23509 0.53157 0.2047 0.0
C1266 C 0.20767 0.52855 0.20312 0.0
C1267 C 0.22263 0.53601 0.22893 0.0
C1268 C 0.22132 0.52814 0.19566 0.0
C1269 C 0.23602 0.53548 0.22104 0.0
C1270 C 0.15573 0.50363 0.23603 0.0
C1271 C 0.15662 0.48997 0.22456 0.0
C1272 C 0.14137 0.50737 0.23884 0.0
C1273 C 0.14307 0.48038 0.21586 0.0
C1274 C 0.1281 0.49749 0.22989 0.0
N1275 N 0.12922 0.48433 0.21867 0.0
C1276 C 0.20194 0.49454 0.25602 0.0
C1277 C 0.20755 0.49436 0.22887 0.0
C1278 C 0.21107 0.48329 0.25755 0.0
N1279 N 0.20089 0.50028 0.24208 0.0
C1280 C 0.21679 0.483 0.22984 0.0
C1281 C 0.21905 0.47786 0.24452 0.0
H1282 H 0.19632 0.49939 0.26623 0.0
H1283 H 0.20627 0.49893 0.21784 0.0
C1284 C 0.14886 0.53913 0.21437 0.0
N1285 N 0.1595 0.52966 0.21396 0.0
C1286 C 0.13767 0.53657 0.20155 0.0
C1287 C 0.14896 0.51491 0.18789 0.0
C1288 C 0.15993 0.51791 0.20101 0.0
C1289 C 0.13755 0.52422 0.18815 0.0
H1290 H 0.14893 0.54852 0.22472 0.0
H1291 H 0.16862 0.51064 0.20104 0.0
O1292 O 0.19704 0.53382 0.26416 0.0
O1293 O 0.17534 0.55197 0.24833 0.0
O1294 O 0.19506 0.53289 0.22732 0.0
O1295 O 0.16889 0.51334 0.24444 0.0
H1296 H 0.19477 0.54829 0.29398 0.0
H1297 H 0.2244 0.52562 0.26297 0.0
H1298 H 0.21494 0.55318 0.31662 0.0
H1299 H 0.2441 0.53107 0.28609 0.0
H1300 H 0.13245 0.5677 0.2669 0.0
H1301 H 0.1887 0.58229 0.26266 0.0
H1302 H 0.14534 0.54699 0.25233 0.0
H1303 H 0.17506 0.60233 0.2772 0.0
H1304 H 0.23472 0.59535 0.28096 0.0
H1305 H 0.23129 0.59406 0.22957 0.0
H1306 H 0.14134 0.50488 0.29618 0.0
H1307 H 0.15398 0.55764 0.31062 0.0
H1308 H 0.1967 0.52584 0.19594 0.0
H1309 H 0.22337 0.53932 0.24188 0.0
H1310 H 0.22096 0.5251 0.18269 0.0
H1311 H 0.24715 0.53821 0.2279 0.0
H1312 H 0.16767 0.48692 0.22228 0.0
H1313 H 0.1405 0.51781 0.24779 0.0
H1314 H 0.14357 0.46983 0.20685 0.0
H1315 H 0.11691 0.5003 0.23187 0.0
H1316 H 0.21234 0.47935 0.26897 0.0
H1317 H 0.22275 0.47902 0.21953 0.0
H1318 H 0.12904 0.54397 0.20226 0.0
H1319 H 0.14945 0.50549 0.17765 0.0
Li1320 Li 0.78679 0.90197 0.53275 0.0
Li1321 Li 0.79806 0.88315 0.54606 0.0
Li1322 Li 0.81542 0.90588 0.53538 0.0
Li1323 Li 0.7985 0.88104 0.51631 0.0
C1324 C 0.80042 0.91832 0.56576 0.0
N1325 N 0.79857 0.94105 0.59274 0.0
C1326 C 0.79197 0.91342 0.57826 0.0
C1327 C 0.808 0.93473 0.56698 0.0
C1328 C 0.79117 0.92511 0.59181 0.0
C1329 C 0.8069 0.94604 0.58072 0.0
C1330 C 0.7667 0.86824 0.53135 0.0
C1331 C 0.74802 0.84248 0.52572 0.0
N1332 N 0.73867 0.84906 0.53598 0.0
C1333 C 0.75693 0.87477 0.54183 0.0
C1334 C 0.76223 0.85199 0.52319 0.0
C1335 C 0.74279 0.86486 0.54401 0.0
C1336 C 0.75989 0.90925 0.51854 0.0
N1337 N 0.76966 0.91305 0.53221 0.0
C1338 C 0.75491 0.93189 0.54431 0.0
C1339 C 0.76729 0.92408 0.54502 0.0
C1340 C 0.74485 0.92859 0.5302 0.0
C1341 C 0.74751 0.917 0.5172 0.0
H1342 H 0.76181 0.90026 0.50857 0.0
H1343 H 0.7749 0.92684 0.55588 0.0
C1344 C 0.81082 0.87517 0.57376 0.0
N1345 N 0.7975 0.87172 0.56395 0.0
C1346 C 0.81149 0.86831 0.58763 0.0
C1347 C 0.78471 0.85446 0.58115 0.0
C1348 C 0.7846 0.86144 0.56731 0.0
C1349 C 0.79827 0.85793 0.59158 0.0
H1350 H 0.82088 0.88348 0.57092 0.0
H1351 H 0.77414 0.85874 0.55941 0.0
C1352 C 0.7964 0.9158 0.50782 0.0
N1353 N 0.78482 0.93745 0.49224 0.0
C1354 C 0.78919 0.91054 0.49222 0.0
C1355 C 0.79782 0.93208 0.51549 0.0
C1356 C 0.7834 0.92168 0.48454 0.0
C1357 C 0.79185 0.94283 0.50742 0.0
C1358 C 0.82096 0.868 0.53391 0.0
C1359 C 0.83621 0.86895 0.53962 0.0
C1360 C 0.81073 0.85272 0.52971 0.0
C1361 C 0.84103 0.85451 0.54098 0.0
C1362 C 0.81599 0.83856 0.53125 0.0
N1363 N 0.8309 0.83974 0.5368 0.0
C1364 C 0.84575 0.92011 0.55018 0.0
C1365 C 0.8389 0.93047 0.52719 0.0
C1366 C 0.86077 0.92975 0.55143 0.0
N1367 N 0.83524 0.92055 0.53811 0.0
C1368 C 0.85373 0.94035 0.52802 0.0
C1369 C 0.86501 0.93993 0.54013 0.0
H1370 H 0.84257 0.91196 0.5586 0.0
H1371 H 0.8304 0.93047 0.5176 0.0
C1372 C 0.7848 0.86137 0.48627 0.0
N1373 N 0.79816 0.86713 0.49597 0.0
C1374 C 0.78488 0.85226 0.47085 0.0
C1375 C 0.81241 0.85493 0.47583 0.0
C1376 C 0.8118 0.864 0.49111 0.0
C1377 C 0.79887 0.8491 0.46534 0.0
H1378 H 0.77414 0.86421 0.49037 0.0
H1379 H 0.82228 0.86884 0.49902 0.0
O1380 O 0.8014 0.90708 0.55245 0.0
O1381 O 0.7805 0.87772 0.52886 0.0
O1382 O 0.80189 0.90502 0.51564 0.0
O1383 O 0.81599 0.88201 0.53266 0.0
H1384 H 0.78605 0.90075 0.57747 0.0
H1385 H 0.81463 0.93867 0.5574 0.0
H1386 H 0.78465 0.92153 0.60158 0.0
H1387 H 0.81266 0.9588 0.58183 0.0
H1388 H 0.74442 0.82987 0.51951 0.0
H1389 H 0.76027 0.88729 0.54833 0.0
H1390 H 0.76968 0.84678 0.51501 0.0
H1391 H 0.73511 0.86972 0.5521 0.0
H1392 H 0.75323 0.94036 0.55485 0.0
H1393 H 0.7403 0.91409 0.50596 0.0
H1394 H 0.82215 0.87147 0.5954 0.0
H1395 H 0.7743 0.84638 0.58363 0.0
H1396 H 0.78801 0.89797 0.48614 0.0
H1397 H 0.80331 0.93629 0.52761 0.0
H1398 H 0.77774 0.91778 0.47248 0.0
H1399 H 0.79277 0.95544 0.51323 0.0
H1400 H 0.84423 0.88073 0.54298 0.0
H1401 H 0.79886 0.85182 0.52536 0.0
H1402 H 0.85281 0.85504 0.54537 0.0
H1403 H 0.80821 0.82664 0.52806 0.0
H1404 H 0.86908 0.92883 0.56085 0.0
H1405 H 0.85633 0.94816 0.51919 0.0
H1406 H 0.77419 0.84825 0.46313 0.0
H1407 H 0.82342 0.85264 0.47223 0.0
Li1408 Li 0.93821 0.07102 0.29001 0.0
Li1409 Li 0.9146 0.05176 0.27103 0.0
Li1410 Li 0.93619 0.06961 0.25825 0.0
Li1411 Li 0.91736 0.08531 0.27397 0.0
C1412 C 0.94904 0.04427 0.26862 0.0
N1413 N 0.97312 0.02868 0.26234 0.0
C1414 C 0.94671 0.02728 0.26757 0.0
C1415 C 0.96361 0.05334 0.2665 0.0
C1416 C 0.95903 0.01963 0.26439 0.0
C1417 C 0.97563 0.04523 0.26332 0.0
C1418 C 0.90545 0.06655 0.30259 0.0
C1419 C 0.88253 0.0694 0.31596 0.0
N1420 N 0.88628 0.06008 0.32651 0.0
C1421 C 0.90908 0.05699 0.31354 0.0
C1422 C 0.89209 0.07283 0.30378 0.0
C1423 C 0.89923 0.05386 0.32557 0.0
C1424 C 0.94743 0.07884 0.32627 0.0
N1425 N 0.95052 0.07052 0.31188 0.0
C1426 C 0.96832 0.05877 0.32683 0.0
C1427 C 0.9609 0.06062 0.31217 0.0
C1428 C 0.96523 0.06701 0.34194 0.0
C1429 C 0.95454 0.07726 0.34122 0.0
H1430 H 0.93912 0.08657 0.3263 0.0
H1431 H 0.96333 0.05373 0.30099 0.0
C1432 C 0.90368 0.01667 0.25758 0.0
N1433 N 0.90101 0.02883 0.2692 0.0
C1434 C 0.89602 1.00011 0.25664 0.0
C1435 C 0.88248 0.00851 0.27936 0.0
C1436 C 0.8904 0.02493 0.27986 0.0
C1437 C 0.88528 0.99558 0.26774 0.0
H1438 H 0.9121 0.01973 0.24914 0.0
H1439 H 0.8882 0.03448 0.28907 0.0
C1440 C 0.95264 0.10194 0.27336 0.0
N1441 N 0.97582 0.12635 0.26645 0.0
C1442 C 0.94903 0.11338 0.26451 0.0
C1443 C 0.96799 0.10298 0.27884 0.0
C1444 C 0.96094 0.12561 0.2611 0.0
C1445 C 0.97956 0.1154 0.27517 0.0
C1446 C 0.90973 0.06554 0.23841 0.0
C1447 C 0.91415 0.07951 0.23158 0.0
C1448 C 0.90252 0.0506 0.22864 0.0
C1449 C 0.91134 0.07828 0.21498 0.0
C1450 C 0.89988 0.04989 0.2121 0.0
N1451 N 0.90432 0.06362 0.20567 0.0
C1452 C 0.94325 0.05437 0.22537 0.0
C1453 C 0.95946 0.08042 0.23404 0.0
C1454 C 0.95005 0.05262 0.21048 0.0
N1455 N 0.94781 0.06819 0.237 0.0
C1456 C 0.96664 0.07911 0.21933 0.0
C1457 C 0.96205 0.06507 0.20698 0.0
H1458 H 0.93418 0.04451 0.22757 0.0
H1459 H 0.9633 0.0914 0.24302 0.0
C1460 C 0.90847 0.11825 0.28698 0.0
N1461 N 0.90552 0.10491 0.27468 0.0
C1462 C 0.90076 0.13151 0.28717 0.0
C1463 C 0.88683 0.11762 0.2621 0.0
C1464 C 0.89477 0.10462 0.26238 0.0
C1465 C 0.8896 0.13163 0.2746 0.0
H1466 H 0.91691 0.11875 0.29682 0.0
H1467 H 0.89228 0.09425 0.25252 0.0
O1468 O 0.93712 0.052 0.27157 0.0
O1469 O 0.91497 0.06989 0.29083 0.0
O1470 O 0.94117 0.08991 0.27684 0.0
O1471 O 0.91258 0.06645 0.25459 0.0
H1472 H 0.93554 0.0201 0.2693 0.0
H1473 H 0.96557 0.06649 0.26724 0.0
H1474 H 0.95741 0.00649 0.26355 0.0
H1475 H 0.98696 0.05209 0.26162 0.0
H1476 H 0.87215 0.07417 0.31703 0.0
H1477 H 0.91933 0.05195 0.3127 0.0
H1478 H 0.88916 0.08028 0.29538 0.0
H1479 H 0.90188 0.04647 0.33413 0.0
H1480 H 0.97615 0.05049 0.32624 0.0
H1481 H 0.95164 0.08418 0.35218 0.0
H1482 H 0.89855 0.99094 0.2472 0.0
H1483 H 0.87452 0.00599 0.28836 0.0
H1484 H 0.93718 0.11279 0.26032 0.0
H1485 H 0.97092 0.09429 0.28584 0.0
H1486 H 0.95834 0.13452 0.25422 0.0
H1487 H 0.9915 0.11634 0.27927 0.0
H1488 H 0.9198 0.09114 0.239 0.0
H1489 H 0.89903 0.03969 0.23378 0.0
H1490 H 0.91476 0.08897 0.2095 0.0
H1491 H 0.89431 0.03841 0.20437 0.0
H1492 H 0.94598 0.04134 0.20185 0.0
H1493 H 0.97562 0.08931 0.21764 0.0
H1494 H 0.90351 0.14154 0.29736 0.0
H1495 H 0.87871 0.11666 0.25185 0.0
Li1496 Li 0.28596 0.6612 0.53395 0.0
Li1497 Li 0.30355 0.64406 0.52053 0.0
Li1498 Li 0.28808 0.65891 0.50531 0.0
Li1499 Li 0.27579 0.63526 0.51614 0.0
C1500 C 0.31375 0.68137 0.51807 0.0
N1501 N 0.33142 0.70765 0.50732 0.0
C1502 C 0.32833 0.68051 0.51293 0.0
C1503 C 0.30821 0.69564 0.5179 0.0
C1504 C 0.33708 0.69393 0.50751 0.0
C1505 C 0.3173 0.70877 0.51236 0.0
C1506 C 0.28574 0.62611 0.5447 0.0
C1507 C 0.28933 0.59952 0.54862 0.0
N1508 N 0.27982 0.59994 0.56073 0.0
C1509 C 0.27608 0.62632 0.55725 0.0
C1510 C 0.29247 0.61263 0.54037 0.0
C1511 C 0.27319 0.61295 0.56518 0.0
C1512 C 0.27068 0.67185 0.56099 0.0
N1513 N 0.28334 0.67566 0.55282 0.0
C1514 C 0.29245 0.70082 0.57144 0.0
C1515 C 0.29417 0.68978 0.55776 0.0
C1516 C 0.27946 0.69724 0.58011 0.0
C1517 C 0.26844 0.68257 0.57466 0.0
H1518 H 0.26229 0.66051 0.55689 0.0
H1519 H 0.30424 0.6924 0.55117 0.0
C1520 C 0.32821 0.63246 0.508 0.0
N1521 N 0.32217 0.63703 0.52204 0.0
C1522 C 0.34101 0.62533 0.50797 0.0
C1523 C 0.3413 0.62809 0.53693 0.0
C1524 C 0.32857 0.63537 0.53642 0.0
C1525 C 0.34749 0.62276 0.52253 0.0
H1526 H 0.32276 0.63389 0.49677 0.0
H1527 H 0.32342 0.63911 0.54737 0.0
C1528 C 0.25791 0.66344 0.52237 0.0
N1529 N 0.23499 0.67847 0.53449 0.0
C1530 C 0.2449 0.65423 0.52781 0.0
C1531 C 0.25922 0.68027 0.52303 0.0
C1532 C 0.23344 0.66206 0.5339 0.0
C1533 C 0.24753 0.68765 0.52923 0.0
C1534 C 0.28519 0.62252 0.4885 0.0
C1535 C 0.277 0.62364 0.47436 0.0
C1536 C 0.28702 0.6072 0.49126 0.0
C1537 C 0.27054 0.60932 0.46328 0.0
C1538 C 0.28038 0.59316 0.4799 0.0
N1539 N 0.27233 0.59451 0.46627 0.0
C1540 C 0.29933 0.67455 0.47953 0.0
C1541 C 0.27273 0.67222 0.48335 0.0
C1542 C 0.29801 0.68322 0.46709 0.0
N1543 N 0.28687 0.6697 0.48765 0.0
C1544 C 0.27084 0.68068 0.47092 0.0
C1545 C 0.28364 0.68653 0.46281 0.0
H1546 H 0.31032 0.67185 0.48282 0.0
H1547 H 0.26291 0.66778 0.48967 0.0
C1548 C 0.25414 0.6052 0.51929 0.0
N1549 N 0.25818 0.61767 0.51104 0.0
C1550 C 0.23915 0.59558 0.51689 0.0
C1551 C 0.2334 0.61063 0.49634 0.0
C1552 C 0.24839 0.62005 0.49927 0.0
C1553 C 0.22838 0.59885 0.50586 0.0
H1554 H 0.26206 0.60329 0.52842 0.0
H1555 H 0.25189 0.6301 0.49295 0.0
O1556 O 0.30501 0.66834 0.52336 0.0
O1557 O 0.2888 0.63917 0.53692 0.0
O1558 O 0.26926 0.65601 0.51633 0.0
O1559 O 0.29135 0.63636 0.49961 0.0
H1560 H 0.33281 0.66958 0.51306 0.0
H1561 H 0.29698 0.69651 0.52191 0.0
H1562 H 0.34836 0.69342 0.50343 0.0
H1563 H 0.31312 0.71986 0.51207 0.0
H1564 H 0.29441 0.58899 0.54535 0.0
H1565 H 0.27083 0.63665 0.56083 0.0
H1566 H 0.29993 0.61219 0.53066 0.0
H1567 H 0.26568 0.61292 0.57487 0.0
H1568 H 0.3014 0.71181 0.57539 0.0
H1569 H 0.25819 0.67938 0.58089 0.0
H1570 H 0.34534 0.6212 0.4966 0.0
H1571 H 0.34606 0.62637 0.54839 0.0
H1572 H 0.24373 0.64123 0.52758 0.0
H1573 H 0.26917 0.68757 0.51881 0.0
H1574 H 0.22335 0.65509 0.53821 0.0
H1575 H 0.24843 0.70068 0.52986 0.0
H1576 H 0.27551 0.63543 0.47203 0.0
H1577 H 0.29342 0.60615 0.5021 0.0
H1578 H 0.26407 0.60998 0.45233 0.0
H1579 H 0.28161 0.5812 0.48192 0.0
H1580 H 0.30809 0.68733 0.46091 0.0
H1581 H 0.25958 0.68301 0.46801 0.0
H1582 H 0.23573 0.58663 0.5245 0.0
H1583 H 0.22551 0.61332 0.4875 0.0
Li1584 Li 0.4154 0.55205 0.77113 0.0
Li1585 Li 0.43817 0.5711 0.78948 0.0
Li1586 Li 0.41739 0.5852 0.77367 0.0
Li1587 Li 0.43674 0.56997 0.75783 0.0
C1588 C 0.40488 0.5633 0.8007 0.0
N1589 N 0.38423 0.54973 0.82065 0.0
C1590 C 0.4079 0.55068 0.80822 0.0
C1591 C 0.39136 0.56901 0.80328 0.0
C1592 C 0.39731 0.54398 0.81827 0.0
C1593 C 0.38106 0.562 0.81343 0.0
C1594 C 0.44863 0.54399 0.77516 0.0
C1595 C 0.47434 0.53879 0.77468 0.0
N1596 N 0.47033 0.52721 0.78395 0.0
C1597 C 0.44479 0.53209 0.78474 0.0
C1598 C 0.46354 0.54746 0.77016 0.0
C1599 C 0.45592 0.52372 0.78904 0.0
C1600 C 0.40855 0.51628 0.76276 0.0
N1601 N 0.40207 0.52896 0.76913 0.0
C1602 C 0.37968 0.50917 0.77411 0.0
C1603 C 0.38772 0.52557 0.77457 0.0
C1604 C 0.38633 0.49582 0.76805 0.0
C1605 C 0.40099 0.49977 0.7622 0.0
H1606 H 0.41982 0.51893 0.75827 0.0
H1607 H 0.38252 0.53557 0.77959 0.0
C1608 C 0.44367 0.57351 0.82558 0.0
N1609 N 0.45056 0.57107 0.8115 0.0
C1610 C 0.45071 0.57178 0.84048 0.0
C1611 C 0.47228 0.56545 0.82684 0.0
C1612 C 0.46487 0.56739 0.8122 0.0
C1613 C 0.46527 0.56742 0.84154 0.0
H1614 H 0.43247 0.57664 0.82535 0.0
H1615 H 0.47062 0.56562 0.8013 0.0
C1616 C 0.40907 0.56714 0.73882 0.0
N1617 N 0.40049 0.56872 0.70743 0.0
C1618 C 0.41135 0.5823 0.73384 0.0
C1619 C 0.40246 0.55278 0.72788 0.0
C1620 C 0.40695 0.58284 0.7179 0.0
C1621 C 0.39817 0.55384 0.71205 0.0
C1622 C 0.45356 0.60017 0.77138 0.0
C1623 C 0.45123 0.613 0.7638 0.0
C1624 C 0.4684 0.59731 0.77349 0.0
C1625 C 0.46389 0.62278 0.75838 0.0
C1626 C 0.48075 0.60736 0.7679 0.0
N1627 N 0.47825 0.61977 0.76052 0.0
C1628 C 0.41135 0.61986 0.78359 0.0
C1629 C 0.39187 0.60264 0.76501 0.0
C1630 C 0.40376 0.63319 0.78375 0.0
N1631 N 0.40547 0.60471 0.77429 0.0
C1632 C 0.38395 0.61567 0.76478 0.0
C1633 C 0.3897 0.63154 0.77422 0.0
H1634 H 0.42209 0.62177 0.79099 0.0
H1635 H 0.38706 0.59081 0.75749 0.0
C1636 C 0.45337 0.55535 0.73052 0.0
N1637 N 0.44812 0.56909 0.73652 0.0
C1638 C 0.46061 0.55387 0.71589 0.0
C1639 C 0.45663 0.58036 0.71294 0.0
C1640 C 0.44971 0.58148 0.72781 0.0
C1641 C 0.46238 0.56641 0.70658 0.0
H1642 H 0.45177 0.54522 0.73696 0.0
H1643 H 0.44542 0.59231 0.7322 0.0
O1644 O 0.41506 0.56994 0.79075 0.0
O1645 O 0.43793 0.55238 0.7709 0.0
O1646 O 0.41313 0.56642 0.75442 0.0
O1647 O 0.44131 0.59027 0.77648 0.0
H1648 H 0.41829 0.54608 0.80627 0.0
H1649 H 0.38886 0.57876 0.79749 0.0
H1650 H 0.39949 0.53419 0.82416 0.0
H1651 H 0.37055 0.56629 0.81556 0.0
H1652 H 0.48592 0.54136 0.7709 0.0
H1653 H 0.43336 0.52937 0.78887 0.0
H1654 H 0.46682 0.55689 0.76304 0.0
H1655 H 0.45311 0.51447 0.79645 0.0
H1656 H 0.36849 0.50704 0.77887 0.0
H1657 H 0.40664 0.49016 0.7571 0.0
H1658 H 0.44463 0.57396 0.85113 0.0
H1659 H 0.48335 0.56202 0.82642 0.0
H1660 H 0.41651 0.59351 0.74219 0.0
H1661 H 0.40059 0.54096 0.73161 0.0
H1662 H 0.40867 0.59448 0.71386 0.0
H1663 H 0.39298 0.54284 0.70344 0.0
H1664 H 0.43977 0.6153 0.76203 0.0
H1665 H 0.47034 0.58739 0.77933 0.0
H1666 H 0.46228 0.63273 0.75244 0.0
H1667 H 0.49231 0.60527 0.7694 0.0
H1668 H 0.40898 0.64473 0.79155 0.0
H1669 H 0.37344 0.61322 0.75692 0.0
H1670 H 0.46446 0.54268 0.7117 0.0
H1671 H 0.4576 0.59052 0.70657 0.0
Li1672 Li 0.68121 0.03285 0.76178 0.0
Li1673 Li 0.70307 0.04703 0.7497 0.0
Li1674 Li 0.67947 0.03135 0.73236 0.0
Li1675 Li 0.69768 0.01792 0.74421 0.0
C1676 C 0.67068 0.0601 0.75104 0.0
N1677 N 0.64818 0.0784 0.75384 0.0
C1678 C 0.6748 0.0771 0.75635 0.0
C1679 C 0.65512 0.05246 0.74698 0.0
C1680 C 0.66326 0.08612 0.75775 0.0
C1681 C 0.64392 0.0619 0.7485 0.0
C1682 C 0.71484 0.04105 0.77682 0.0
C1683 C 0.74198 0.05137 0.78513 0.0
N1684 N 0.73831 0.05968 0.79911 0.0
C1685 C 0.71133 0.04956 0.79134 0.0
C1686 C 0.73027 0.04182 0.77374 0.0
C1687 C 0.72337 0.05894 0.80243 0.0
C1688 C 0.66748 0.01866 0.78639 0.0
N1689 N 0.66999 0.03259 0.78004 0.0
C1690 C 0.65543 0.0452 0.79937 0.0
C1691 C 0.66448 0.04587 0.78645 0.0
C1692 C 0.65235 0.03086 0.80592 0.0
C1693 C 0.65867 0.01754 0.79953 0.0
H1694 H 0.67217 0.00836 0.78107 0.0
H1695 H 0.66706 0.05698 0.78156 0.0
C1696 C 0.73048 0.06909 0.74455 0.0
N1697 N 0.71854 0.06641 0.75391 0.0
C1698 C 0.74167 0.08371 0.74823 0.0
C1699 C 0.72812 0.09223 0.77121 0.0
C1700 C 0.71719 0.07755 0.76703 0.0
C1701 C 0.74047 0.09552 0.76167 0.0
H1702 H 0.7312 0.05998 0.73417 0.0
H1703 H 0.70751 0.07504 0.77419 0.0
C1704 C 0.66145 1.00178 0.74254 0.0
N1705 N 0.63411 0.97834 0.73877 0.0
C1706 C 0.66089 0.98575 0.73464 0.0
C1707 C 0.64813 0.0058 0.74874 0.0
C1708 C 0.64696 0.9741 0.73278 0.0
C1709 C 0.63442 0.99381 0.74666 0.0
C1710 C 0.70949 0.02497 0.71725 0.0
C1711 C 0.70239 0.01764 0.7019 0.0
C1712 C 0.72475 0.02419 0.72125 0.0
C1713 C 0.71065 0.00942 0.69085 0.0
C1714 C 0.73261 0.01584 0.70987 0.0
N1715 N 0.72545 0.00869 0.69504 0.0
C1716 C 0.6635 0.04415 0.70979 0.0
C1717 C 0.65755 0.01512 0.70666 0.0
C1718 C 0.6523 0.0435 0.69742 0.0
N1719 N 0.66562 0.03009 0.71437 0.0
C1720 C 0.64626 0.01388 0.69423 0.0
C1721 C 0.64339 0.02821 0.68962 0.0
H1722 H 0.67031 0.05588 0.71596 0.0
H1723 H 0.65979 1.00414 0.71025 0.0
C1724 C 0.71381 0.99642 0.75457 0.0
N1725 N 0.70589 0.99893 0.74144 0.0
C1726 C 0.71929 0.98212 0.75402 0.0
C1727 C 0.70871 0.97338 0.72624 0.0
C1728 C 0.70325 0.98782 0.72741 0.0
C1729 C 0.71659 0.97035 0.73978 0.0
H1730 H 0.71558 0.00537 0.76561 0.0
H1731 H 0.69659 0.98997 0.71726 0.0
O1732 O 0.68189 0.0511 0.74973 0.0
O1733 O 0.70321 0.03211 0.76565 0.0
O1734 O 0.67509 0.01328 0.74457 0.0
O1735 O 0.70159 0.03306 0.72821 0.0
H1736 H 0.68678 0.08329 0.75937 0.0
H1737 H 0.65173 0.03943 0.74243 0.0
H1738 H 0.66629 0.09927 0.76191 0.0
H1739 H 0.63184 0.05612 0.74537 0.0
H1740 H 0.75397 0.05221 0.78284 0.0
H1741 H 0.69945 0.04908 0.79394 0.0
H1742 H 0.73317 0.03526 0.76259 0.0
H1743 H 0.72083 0.0657 0.81366 0.0
H1744 H 0.65095 0.0558 0.80427 0.0
H1745 H 0.65653 0.00633 0.80439 0.0
H1746 H 0.75103 0.08586 0.74058 0.0
H1747 H 0.72659 0.10116 0.78146 0.0
H1748 H 0.67108 0.98234 0.72988 0.0
H1749 H 0.64835 0.01795 0.7553 0.0
H1750 H 0.64636 0.96168 0.7266 0.0
H1751 H 0.62404 0.99678 0.7514 0.0
H1752 H 0.69062 0.01823 0.69858 0.0
H1753 H 0.73041 0.02983 0.73307 0.0
H1754 H 0.70529 1.00363 0.67895 0.0
H1755 H 0.74439 0.01503 0.71284 0.0
H1756 H 0.65067 0.05481 0.69397 0.0
H1757 H 0.63966 1.00185 0.6885 0.0
H1758 H 0.72545 0.98019 0.76465 0.0
H1759 H 0.70636 0.96447 0.71513 0.0
Li1760 Li 0.79731 0.70279 0.02634 0.0
Li1761 Li 0.80887 0.68115 0.01105 0.0
Li1762 Li 0.79652 0.6999 0.99656 0.0
Li1763 Li 0.78037 0.67791 0.00832 0.0
C1764 C 0.82574 0.71971 0.01687 0.0
N1765 N 0.84777 0.74864 0.02529 0.0
C1766 C 0.84002 0.71978 0.02466 0.0
C1767 C 0.82274 0.73428 0.01317 0.0
C1768 C 0.85099 0.73456 0.02887 0.0
C1769 C 0.83401 0.7488 0.01758 0.0
C1770 C 0.79558 0.66666 0.03578 0.0
C1771 C 0.79317 0.63775 0.03559 0.0
N1772 N 0.79827 0.64121 0.05148 0.0
C1773 C 0.80076 0.66994 0.05211 0.0
C1774 C 0.79172 0.65046 0.02744 0.0
C1775 C 0.80205 0.6569 0.05983 0.0
C1776 C 0.78491 0.72017 0.05208 0.0
N1777 N 0.79839 0.71717 0.04663 0.0
C1778 C 0.81244 0.73235 0.07128 0.0
C1779 C 0.81202 0.72305 0.05586 0.0
C1780 C 0.79866 0.73549 0.07734 0.0
C1781 C 0.78478 0.72939 0.06741 0.0
H1782 H 0.77416 0.715 0.04469 0.0
H1783 H 0.82253 0.72016 0.05147 0.0
C1784 C 0.8303 0.66328 0.99737 0.0
N1785 N 0.82573 0.67026 0.01148 0.0
C1786 C 0.84271 0.65542 0.99734 0.0
C1787 C 0.84558 0.66223 0.02639 0.0
C1788 C 0.83318 0.67003 0.02583 0.0
C1789 C 0.85053 0.65474 0.01201 0.0
H1790 H 0.82437 0.66391 0.98609 0.0
H1791 H 0.82952 0.67593 0.03688 0.0
C1792 C 0.77087 0.71275 0.00905 0.0
N1793 N 0.75358 0.73577 0.00558 0.0
C1794 C 0.75563 0.70773 1.00214 0.0
C1795 C 0.77728 0.72945 0.01436 0.0
C1796 C 0.74709 0.71957 1.00044 0.0
C1797 C 0.76836 0.7409 0.01246 0.0
C1798 C 0.78855 0.66341 0.97831 0.0
C1799 C 0.78106 0.66693 0.96484 0.0
C1800 C 0.79007 0.64735 0.97853 0.0
C1801 C 0.77496 0.65423 0.95189 0.0
C1802 C 0.78382 0.63499 0.96533 0.0
N1803 N 0.77645 0.63865 0.95241 0.0
C1804 C 0.81174 0.71283 0.97163 0.0
C1805 C 0.78575 0.7156 0.97211 0.0
C1806 C 0.81334 0.71974 0.95774 0.0
N1807 N 0.79809 0.71086 0.97847 0.0
C1808 C 0.78687 0.7227 0.95835 0.0
C1809 C 0.80076 0.72473 0.9509 0.0
H1810 H 0.82134 0.7088 0.97683 0.0
H1811 H 0.77488 0.7135 0.97739 0.0
C1812 C 0.75531 0.65757 0.01963 0.0
N1813 N 0.76047 0.66318 0.00631 0.0
C1814 C 0.74052 0.64766 0.01905 0.0
C1815 C 0.73643 0.64969 0.99111 0.0
C1816 C 0.75134 0.65951 0.99222 0.0
C1817 C 0.73081 0.64365 0.00466 0.0
H1818 H 0.76253 0.66109 0.03086 0.0
H1819 H 0.75544 0.66455 0.98194 0.0
O1820 O 0.81497 0.70531 0.01248 0.0
O1821 O 0.79415 0.67927 0.02807 0.0
O1822 O 0.77938 0.7013 0.01075 0.0
O1823 O 0.79482 0.67573 0.99098 0.0
H1824 H 0.84256 0.70855 0.02746 0.0
H1825 H 0.81189 0.73436 0.00682 0.0
H1826 H 0.86206 0.73483 0.03497 0.0
H1827 H 0.83183 0.76018 0.01482 0.0
H1828 H 0.79021 0.62515 0.02929 0.0
H1829 H 0.80374 0.68244 0.05872 0.0
H1830 H 0.78751 0.64774 0.01487 0.0
H1831 H 0.80606 0.65924 0.07246 0.0
H1832 H 0.82342 0.73686 0.07843 0.0
H1833 H 0.77383 0.73118 0.07165 0.0
H1834 H 0.84624 0.65011 0.98594 0.0
H1835 H 0.85109 0.6619 0.03799 0.0
H1836 H 0.75048 0.69484 0.99804 0.0
H1837 H 0.78895 0.73351 0.02 0.0
H1838 H 0.73531 0.71587 0.99503 0.0
H1839 H 0.77317 0.75387 0.0165 0.0
H1840 H 0.77986 0.67931 0.96444 0.0
H1841 H 0.79613 0.64447 0.9887 0.0
H1842 H 0.76905 0.65676 0.94143 0.0
H1843 H 0.7849 0.6225 0.96534 0.0
H1844 H 0.82427 0.72114 0.95242 0.0
H1845 H 0.7768 0.72608 0.95332 0.0
H1846 H 0.73657 0.64361 0.02989 0.0
H1847 H 0.72937 0.64691 0.97977 0.0
Li1848 Li 0.89119 0.53431 0.79381 0.0
Li1849 Li 0.91535 0.55036 0.80936 0.0
Li1850 Li 0.8957 0.56332 0.79954 0.0
Li1851 Li 0.9115 0.55029 0.78069 0.0
C1852 C 0.88672 0.55665 0.82675 0.0
N1853 N 0.87263 0.57499 0.84923 0.0
C1854 C 0.89549 0.56702 0.84013 0.0
C1855 C 0.87078 0.55554 0.82483 0.0
C1856 C 0.88815 0.5762 0.85136 0.0
C1857 C 0.86388 0.56495 0.83631 0.0
C1858 C 0.92157 0.52122 0.79473 0.0
C1859 C 0.94662 0.51464 0.79762 0.0
N1860 N 0.93994 0.50047 0.80239 0.0
C1861 C 0.91494 0.50655 0.7996 0.0
C1862 C 0.93752 0.52526 0.79365 0.0
C1863 C 0.92443 0.49623 0.80344 0.0
C1864 C 0.87717 0.50323 0.77692 0.0
N1865 N 0.8767 0.51407 0.79061 0.0
C1866 C 0.85636 0.49505 0.79914 0.0
C1867 C 0.86661 0.51034 0.80168 0.0
C1868 C 0.85656 0.48364 0.78506 0.0
C1869 C 0.86706 0.48792 0.77382 0.0
H1870 H 0.88558 0.50645 0.76853 0.0
H1871 H 0.86668 0.51913 0.81257 0.0
C1872 C 0.94055 0.56643 0.83139 0.0
N1873 N 0.93051 0.55177 0.82631 0.0
C1874 C 0.95232 0.56804 0.84345 0.0
C1875 C 0.94297 0.5395 0.84507 0.0
C1876 C 0.93125 0.53852 0.83313 0.0
C1877 C 0.95375 0.55441 0.85034 0.0
H1878 H 0.93937 0.57692 0.82614 0.0
H1879 H 0.9228 0.52716 0.82926 0.0
C1880 C 0.87761 0.53963 0.76723 0.0
N1881 N 0.85479 0.51933 0.74518 0.0
C1882 C 0.88123 0.53315 0.75192 0.0
C1883 C 0.86235 0.5359 0.77126 0.0
C1884 C 0.86953 0.52289 0.74095 0.0
C1885 C 0.851 0.52557 0.75997 0.0
C1886 C 0.92997 0.5798 0.79333 0.0
C1887 C 0.92727 0.59399 0.78843 0.0
C1888 C 0.94466 0.57629 0.79262 0.0
C1889 C 0.93932 0.60441 0.7828 0.0
C1890 C 0.9564 0.587 0.7869 0.0
N1891 N 0.95351 0.60072 0.78215 0.0
C1892 C 0.89512 0.59564 0.81395 0.0
C1893 C 0.87229 0.58092 0.79784 0.0
C1894 C 0.88919 0.60981 0.81662 0.0
N1895 N 0.88674 0.58172 0.80443 0.0
C1896 C 0.86582 0.59468 0.80039 0.0
C1897 C 0.87444 0.60943 0.8096 0.0
H1898 H 0.90659 0.59584 0.81907 0.0
H1899 H 0.86594 0.56971 0.79028 0.0
C1900 C 0.92698 0.53655 0.75617 0.0
N1901 N 0.9219 0.55036 0.76168 0.0
C1902 C 0.93528 0.5356 0.74266 0.0
C1903 C 0.93257 0.56296 0.74032 0.0
C1904 C 0.92419 0.56333 0.75389 0.0
C1905 C 0.93828 0.54896 0.73463 0.0
H1906 H 0.92462 0.52623 0.76229 0.0
H1907 H 0.91957 0.57395 0.75821 0.0
O1908 O 0.89374 0.54783 0.81546 0.0
O1909 O 0.91246 0.53145 0.79085 0.0
O1910 O 0.88895 0.54954 0.77821 0.0
O1911 O 0.91832 0.56945 0.79889 0.0
H1912 H 0.90784 0.56805 0.84176 0.0
H1913 H 0.86385 0.5477 0.81445 0.0
H1914 H 0.89479 0.58431 0.86176 0.0
H1915 H 0.85157 0.56431 0.83492 0.0
H1916 H 0.95899 0.51765 0.79688 0.0
H1917 H 0.90263 0.50322 0.80055 0.0
H1918 H 0.94283 0.53648 0.78976 0.0
H1919 H 0.91947 0.48488 0.80728 0.0
H1920 H 0.84846 0.49214 0.80811 0.0
H1921 H 0.86781 0.47932 0.763 0.0
H1922 H 0.96009 0.57989 0.84745 0.0
H1923 H 0.94363 0.52864 0.84998 0.0
H1924 H 0.89293 0.53593 0.74853 0.0
H1925 H 0.85936 0.54064 0.78311 0.0
H1926 H 0.87219 0.51774 0.72909 0.0
H1927 H 0.83918 0.52245 0.76299 0.0
H1928 H 0.91595 0.59685 0.78881 0.0
H1929 H 0.94698 0.56542 0.79645 0.0
H1930 H 0.93738 0.6154 0.77892 0.0
H1931 H 0.96781 0.58441 0.78625 0.0
H1932 H 0.89616 0.621 0.82376 0.0
H1933 H 0.8545 0.59401 0.79456 0.0
H1934 H 0.93956 0.52462 0.73874 0.0
H1935 H 0.93446 0.57342 0.7343 0.0
Li1936 Li 0.80514 0.42504 0.53232 0.0
Li1937 Li 0.79126 0.4414 0.51736 0.0
Li1938 Li 0.80836 0.42466 0.50397 0.0
Li1939 Li 0.81869 0.44913 0.52327 0.0
C1940 C 0.7784 0.40353 0.51504 0.0
N1941 N 0.75662 0.37577 0.51749 0.0
C1942 C 0.76423 0.40498 0.52097 0.0
C1943 C 0.78138 0.38796 0.5101 0.0
C1944 C 0.7534 0.3908 0.5222 0.0
C1945 C 0.77026 0.37407 0.5115 0.0
C1946 C 0.80833 0.46145 0.55007 0.0
C1947 C 0.8131 0.49081 0.55858 0.0
N1948 N 0.82064 0.48946 0.57251 0.0
C1949 C 0.81604 0.46033 0.56449 0.0
C1950 C 0.80676 0.47678 0.54709 0.0
C1951 C 0.82222 0.47464 0.57568 0.0
C1952 C 0.81903 0.4146 0.55719 0.0
N1953 N 0.80497 0.4139 0.54969 0.0
C1954 C 0.79221 0.40072 0.56963 0.0
C1955 C 0.79165 0.40722 0.5556 0.0
C1956 C 0.80661 0.40138 0.57768 0.0
C1957 C 0.82014 0.40831 0.57123 0.0
H1958 H 0.82941 0.42064 0.55262 0.0
H1959 H 0.78063 0.40738 0.54975 0.0
C1960 C 0.76703 0.45174 0.50194 0.0
N1961 N 0.77306 0.44901 0.51603 0.0
C1962 C 0.75396 0.4585 0.50171 0.0
C1963 C 0.75355 0.45908 0.53039 0.0
C1964 C 0.76659 0.45237 0.53007 0.0
C1965 C 0.74718 0.4624 0.51612 0.0
H1966 H 0.77254 0.44894 0.491 0.0
H1967 H 0.77176 0.4501 0.54107 0.0
C1968 C 0.83368 0.4168 0.51985 0.0
N1969 N 0.85241 0.39438 0.5154 0.0
C1970 C 0.84945 0.4221 0.51833 0.0
C1971 C 0.82748 0.40014 0.51932 0.0
C1972 C 0.85871 0.41057 0.51603 0.0
C1973 C 0.83712 0.38899 0.517 0.0
C1974 C 0.81644 0.45301 0.49096 0.0
C1975 C 0.83147 0.45036 0.4909 0.0
C1976 C 0.81116 0.46124 0.47957 0.0
C1977 C 0.84099 0.456 0.47945 0.0
C1978 C 0.82102 0.46668 0.4683 0.0
N1979 N 0.83561 0.46397 0.46848 0.0
C1980 C 0.79738 0.40195 0.476 0.0
C1981 C 0.82475 0.40879 0.48013 0.0
C1982 C 0.79796 0.3904 0.46232 0.0
N1983 N 0.81065 0.41067 0.4847 0.0
C1984 C 0.82587 0.39732 0.46658 0.0
C1985 C 0.81234 0.38787 0.45758 0.0
H1986 H 0.78634 0.40377 0.47988 0.0
H1987 H 0.83515 0.41604 0.48703 0.0
C1988 C 0.8462 0.46299 0.54056 0.0
N1989 N 0.83617 0.46626 0.52959 0.0
C1990 C 0.86127 0.47216 0.5433 0.0
C1991 C 0.85501 0.48879 0.52437 0.0
C1992 C 0.8399 0.47941 0.5222 0.0
C1993 C 0.86606 0.48451 0.53434 0.0
H1994 H 0.8428 0.45245 0.54627 0.0
H1995 H 0.83157 0.48178 0.51365 0.0
O1996 O 0.78905 0.41729 0.51358 0.0
O1997 O 0.80245 0.44762 0.53884 0.0
O1998 O 0.82442 0.42794 0.52191 0.0
O1999 O 0.80694 0.44784 0.50218 0.0
H2000 H 0.76166 0.41692 0.5247 0.0
H2001 H 0.79209 0.38656 0.50506 0.0
H2002 H 0.74243 0.39175 0.52688 0.0
H2003 H 0.77243 0.36195 0.50776 0.0
H2004 H 0.81205 0.50278 0.55641 0.0
H2005 H 0.81733 0.44854 0.56698 0.0
H2006 H 0.80082 0.47782 0.53595 0.0
H2007 H 0.82828 0.47397 0.58687 0.0
H2008 H 0.78151 0.39542 0.57422 0.0
H2009 H 0.83145 0.4094 0.57726 0.0
H2010 H 0.74932 0.46081 0.49045 0.0
H2011 H 0.74886 0.46218 0.5418 0.0
H2012 H 0.85445 0.43497 0.51877 0.0
H2013 H 0.81539 0.3959 0.52079 0.0
H2014 H 0.87091 0.41448 0.51473 0.0
H2015 H 0.83247 0.37604 0.51651 0.0
H2016 H 0.83585 0.44425 0.49974 0.0
H2017 H 0.79957 0.46344 0.47949 0.0
H2018 H 0.85266 0.45408 0.47934 0.0
H2019 H 0.81709 0.47308 0.45943 0.0
H2020 H 0.78726 0.38329 0.45573 0.0
H2021 H 0.83718 0.39593 0.46312 0.0
H2022 H 0.86941 0.46875 0.55135 0.0
H2023 H 0.85828 0.49824 0.51726 0.0
Li2024 Li 0.65619 0.51382 0.28472 0.0
Li2025 Li 0.67912 0.53115 0.27157 0.0
Li2026 Li 0.65633 0.51176 0.25269 0.0
Li2027 Li 0.67624 0.49815 0.26771 0.0
C2028 C 0.64478 0.53917 0.27 0.0
N2029 N 0.62098 0.55551 0.26875 0.0
C2030 C 0.64792 0.55631 0.27337 0.0
C2031 C 0.62956 0.53033 0.26593 0.0
C2032 C 0.63572 0.56435 0.27271 0.0
C2033 C 0.61768 0.53881 0.26536 0.0
C2034 C 0.68948 0.52288 0.3015 0.0
C2035 C 0.71349 0.52533 0.31727 0.0
N2036 N 0.70936 0.53659 0.32874 0.0
C2037 C 0.68544 0.53444 0.31344 0.0
C2038 C 0.70358 0.51825 0.30339 0.0
C2039 C 0.69567 0.54125 0.32712 0.0
C2040 C 0.64763 0.50574 0.31704 0.0
N2041 N 0.64462 0.51484 0.30582 0.0
C2042 C 0.62756 0.52647 0.32397 0.0
C2043 C 0.63469 0.52511 0.30925 0.0
C2044 C 0.63046 0.5173 0.33589 0.0
C2045 C 0.64076 0.50677 0.33192 0.0
H2046 H 0.65563 0.49775 0.3146 0.0
H2047 H 0.6323 0.53253 0.30062 0.0
C2048 C 0.70069 0.55847 0.26122 0.0
N2049 N 0.69262 0.55413 0.27372 0.0
C2050 C 0.70875 0.57482 0.26165 0.0
C2051 C 0.70007 0.5824 0.28772 0.0
C2052 C 0.69231 0.56587 0.28688 0.0
C2053 C 0.70846 0.58729 0.27496 0.0
H2054 H 0.70054 0.54933 0.25058 0.0
H2055 H 0.68565 0.56255 0.29664 0.0
C2056 C 0.64012 0.48148 0.2589 0.0
N2057 N 0.61535 0.45779 0.24313 0.0
C2058 C 0.64248 0.46944 0.24637 0.0
C2059 C 0.62522 0.48142 0.26353 0.0
C2060 C 0.62978 0.45758 0.23851 0.0
C2061 C 0.61283 0.46935 0.25538 0.0
C2062 C 0.68622 0.50806 0.23837 0.0
C2063 C 0.67748 0.49568 0.22641 0.0
C2064 C 0.70188 0.51404 0.23685 0.0
C2065 C 0.68454 0.48954 0.21302 0.0
C2066 C 0.70852 0.50757 0.22328 0.0
N2067 N 0.69979 0.49556 0.21175 0.0
C2068 C 0.6521 0.52165 0.22084 0.0
C2069 C 0.629 0.50503 0.22627 0.0
C2070 C 0.64506 0.52357 0.20604 0.0
N2071 N 0.64418 0.51245 0.23084 0.0
C2072 C 0.62146 0.50674 0.21156 0.0
C2073 C 0.62938 0.51616 0.20092 0.0
H2074 H 0.66404 0.52776 0.22438 0.0
H2075 H 0.62252 0.49778 0.23405 0.0
C2076 C 0.6857 0.46885 0.27902 0.0
N2077 N 0.68796 0.47843 0.26745 0.0
C2078 C 0.69328 0.4556 0.27948 0.0
C2079 C 0.7057 0.46171 0.25616 0.0
C2080 C 0.69789 0.47485 0.25612 0.0
C2081 C 0.70364 0.45156 0.26797 0.0
H2082 H 0.6779 0.47142 0.28807 0.0
H2083 H 0.69995 0.48222 0.24689 0.0
O2084 O 0.65653 0.53105 0.27069 0.0
O2085 O 0.67958 0.51598 0.2881 0.0
O2086 O 0.65235 0.4933 0.2666 0.0
O2087 O 0.67952 0.51414 0.2516 0.0
H2088 H 0.65965 0.56333 0.27651 0.0
H2089 H 0.62697 0.51706 0.26325 0.0
H2090 H 0.63796 0.57762 0.27533 0.0
H2091 H 0.60585 0.53213 0.26224 0.0
H2092 H 0.72445 0.52187 0.31892 0.0
H2093 H 0.67454 0.53812 0.31212 0.0
H2094 H 0.70682 0.50925 0.29425 0.0
H2095 H 0.69272 0.55023 0.33646 0.0
H2096 H 0.61968 0.53466 0.32582 0.0
H2097 H 0.64388 0.4995 0.34039 0.0
H2098 H 0.71473 0.57773 0.25132 0.0
H2099 H 0.69945 0.59129 0.29835 0.0
H2100 H 0.65398 0.46926 0.24276 0.0
H2101 H 0.62325 0.4906 0.27332 0.0
H2102 H 0.63141 0.4482 0.22875 0.0
H2103 H 0.60121 0.46917 0.25878 0.0
H2104 H 0.66536 0.4909 0.22743 0.0
H2105 H 0.70886 0.52344 0.24613 0.0
H2106 H 0.67791 0.47998 0.20365 0.0
H2107 H 0.72063 0.51206 0.22195 0.0
H2108 H 0.65192 0.53121 0.19882 0.0
H2109 H 0.60949 0.50051 0.20852 0.0
H2110 H 0.69076 0.44843 0.28883 0.0
H2111 H 0.71353 0.45977 0.24699 0.0
Tb2112 Tb 0.02814 0.03147 0.01107 0.0
C2113 C 0.07175 0.08592 0.05495 0.0
C2114 C 0.07504 0.10756 0.03929 0.0
C2115 C 0.07776 0.11446 0.06851 0.0
C2116 C 0.07159 0.09075 0.04025 0.0
C2117 C 0.07535 0.09768 0.06928 0.0
C2118 C 0.07762 0.11939 0.05351 0.0
C2119 C 0.07621 0.07558 0.08372 0.0
N2120 N 0.0698 0.06965 0.05508 0.0
C2121 C 0.07279 0.06441 0.06914 0.0
C2122 C 0.0772 0.09227 0.08384 0.0
Tb2123 Tb 0.06448 0.05227 0.03059 0.0
N2124 N 0.06942 0.07895 0.02687 0.0
C2125 C 0.07182 0.08314 0.01215 0.0
C2126 C 0.07661 0.11191 0.02414 0.0
C2127 C 0.07533 0.09963 0.01055 0.0
H2128 H 0.07226 0.05157 0.06918 0.0
H2129 H 0.07707 0.10279 0.99882 0.0
H2130 H 0.08011 0.13237 0.05305 0.0
H2131 H 0.07816 0.07131 0.09484 0.0
H2132 H 0.07079 0.0738 1.00153 0.0
H2133 H 0.97392 0.0176 0.03721 0.0
H2134 H 0.07935 0.12468 0.02287 0.0
H2135 H 0.04859 0.00673 0.9912 0.0
H2136 H 0.9957 0.03529 0.02701 0.0
H2137 H 0.04817 0.97729 0.98549 0.0
H2138 H 0.08038 0.1237 0.07939 0.0
H2139 H 0.97383 0.98827 0.03671 0.0
H2140 H 0.98611 0.96428 0.02799 0.0
H2141 H 0.08001 0.10092 0.09512 0.0
H2142 H 0.00613 0.95322 0.01343 0.0
N2143 N 0.00818 0.01638 0.02183 0.0
C2144 C 0.99579 0.02253 0.02696 0.0
C2145 C 0.98345 0.99601 0.03239 0.0
C2146 C 0.99547 0.98947 0.02572 0.0
C2147 C 0.98345 0.01255 0.03268 0.0
C2148 C 0.00766 1.00008 0.02021 0.0
H2149 H 0.02884 0.95788 0.99684 0.0
N2150 N 0.02963 1.0044 0.00582 0.0
C2151 C 0.03984 0.98178 0.99296 0.0
C2152 C 0.01873 0.99385 0.01182 0.0
C2153 C 0.03999 0.99857 0.99622 0.0
C2154 C 0.02898 0.97087 0.99948 0.0
C2155 C 0.01818 0.97683 0.00899 0.0
O2156 O 0.01778 0.01946 0.988 0.0
O2157 O 0.04526 0.05433 0.01504 0.0
O2158 O 0.04703 0.05586 0.04863 0.0
O2159 O 0.02512 0.03555 0.03759 0.0
O2160 O 0.02298 0.05538 0.01971 0.0
O2161 O 0.01121 0.04103 0.99999 0.0
O2162 O 0.08203 0.04066 0.03735 0.0
O2163 O 0.04971 0.02828 0.02139 0.0
O2164 O 0.04379 0.03391 0.99132 0.0
O2165 O 0.06815 0.04502 0.00467 0.0
O2166 O 0.0604 0.03261 0.04441 0.0
O2167 O 0.08703 0.06036 0.02428 0.0
C2168 C 0.03651 0.06424 0.01905 0.0
C2169 C 0.99139 0.02088 0.98407 0.0
C2170 C 0.9642 0.02239 0.98483 0.0
C2171 C 0.97997 0.02965 0.98863 0.0
C2172 C 0.95989 0.00619 0.97625 0.0
C2173 C 0.98683 1.00468 0.97552 0.0
C2174 C 0.97117 0.99741 0.97167 0.0
C2175 C 0.033 0.04676 0.04995 0.0
C2176 C 0.00795 0.02888 0.9879 0.0
C2177 C 0.00664 0.9663 0.01532 0.0
C2178 C 0.99527 0.97261 0.02366 0.0
C2179 C 0.05126 0.0218 0.03379 0.0
C2180 C 0.10763 0.05605 0.04039 0.0
C2181 C 0.11937 0.04776 0.03637 0.0
C2182 C 0.13408 0.05284 0.04481 0.0
C2183 C 0.1369 0.06661 0.05734 0.0
C2184 C 0.11059 0.06983 0.0528 0.0
C2185 C 0.1252 0.07505 0.06126 0.0
C2186 C 0.05904 0.03869 0.99117 0.0
C2187 C 0.09262 0.04997 0.03106 0.0
H2188 H 0.98333 0.04227 0.99493 0.0
H2189 H 0.94782 1.00027 0.9732 0.0
H2190 H 0.99535 0.99765 0.97174 0.0
H2191 H 0.96775 0.98493 0.96508 0.0
H2192 H 0.11703 0.03741 0.02643 0.0
H2193 H 0.14806 0.07075 0.06421 0.0
H2194 H 0.10173 0.07657 0.05587 0.0
H2195 H 0.12746 0.08565 0.07089 0.0
Tb2196 Tb 0.30635 0.77907 0.2507 0.0
C2197 C 0.27192 0.82626 0.28931 0.0
C2198 C 0.28919 0.853 0.29604 0.0
C2199 C 0.26142 0.85085 0.29368 0.0
C2200 C 0.28672 0.83576 0.29195 0.0
C2201 C 0.25906 0.83366 0.29041 0.0
C2202 C 0.27647 0.86051 0.29653 0.0
C2203 C 0.24257 0.80657 0.28644 0.0
N2204 N 0.27015 0.80968 0.2864 0.0
C2205 C 0.25568 0.79981 0.28568 0.0
C2206 C 0.24424 0.82356 0.28864 0.0
Tb2207 Tb 0.29252 0.79991 0.28601 0.0
N2208 N 0.29869 0.82805 0.29144 0.0
C2209 C 0.31347 0.83692 0.29583 0.0
C2210 C 0.30431 0.86213 0.30008 0.0
C2211 C 0.31649 0.85403 0.30016 0.0
H2212 H 0.25408 0.78666 0.28406 0.0
H2213 H 0.32822 0.86095 0.30351 0.0
H2214 H 0.27814 0.87375 0.29949 0.0
H2215 H 0.23117 0.79865 0.2854 0.0
H2216 H 0.32302 0.83087 0.296 0.0
H2217 H 0.24743 0.74207 0.23086 0.0
H2218 H 0.30665 0.87538 0.30349 0.0
H2219 H 0.33811 0.76526 0.25758 0.0
H2220 H 0.26586 0.76505 0.24641 0.0
H2221 H 0.34739 0.74001 0.25078 0.0
H2222 H 0.25169 0.85677 0.29445 0.0
H2223 H 0.25601 0.71758 0.2177 0.0
H2224 H 0.27723 0.70245 0.21417 0.0
H2225 H 0.23407 0.82876 0.28935 0.0
H2226 H 0.30422 0.70139 0.22075 0.0
N2227 N 0.28618 0.75633 0.23959 0.0
C2228 C 0.27051 0.75568 0.23942 0.0
C2229 C 0.26449 0.72827 0.2238 0.0
C2230 C 0.28009 0.72792 0.2257 0.0
C2231 C 0.25964 0.74208 0.2311 0.0
C2232 C 0.2907 0.7422 0.23384 0.0
H2233 H 0.33018 0.71507 0.23493 0.0
N2234 N 0.31508 0.75494 0.24676 0.0
C2235 C 0.33557 0.74016 0.24711 0.0
C2236 C 0.30568 0.74145 0.23774 0.0
C2237 C 0.33006 0.75449 0.25116 0.0
C2238 C 0.32589 0.72617 0.23809 0.0
C2239 C 0.31075 0.72667 0.23326 0.0
O2240 O 0.32995 0.78851 0.24956 0.0
O2241 O 0.30781 0.80201 0.26714 0.0
O2242 O 0.27748 0.80164 0.26485 0.0
O2243 O 0.28521 0.78629 0.2417 0.0
O2244 O 0.30649 0.80221 0.24262 0.0
O2245 O 0.31515 0.77678 0.22794 0.0
O2246 O 0.28506 0.78728 0.30458 0.0
O2247 O 0.29669 0.77744 0.27279 0.0
O2248 O 0.31962 0.77742 0.27312 0.0
O2249 O 0.31762 0.80104 0.29026 0.0
O2250 O 0.27662 0.77566 0.28362 0.0
O2251 O 0.30145 0.81026 0.30992 0.0
C2252 C 0.30819 0.81118 0.25674 0.0
C2253 C 0.33713 0.79782 0.22597 0.0
C2254 C 0.33725 0.8186 0.20924 0.0
C2255 C 0.32916 0.80579 0.2162 0.0
C2256 C 0.35346 0.82325 0.21211 0.0
C2257 C 0.35327 0.80264 0.22869 0.0
C2258 C 0.36138 0.81529 0.22178 0.0
C2259 C 0.27578 0.79515 0.24914 0.0
C2260 C 0.32901 0.78481 0.23394 0.0
C2261 C 0.30051 0.71279 0.22437 0.0
C2262 C 0.28519 0.71343 0.22055 0.0
C2263 C 0.28491 0.76744 0.27506 0.0
C2264 C 0.2846 0.80348 0.32971 0.0
C2265 C 0.28379 0.79415 0.34187 0.0
C2266 C 0.27529 0.79752 0.3551 0.0
C2267 C 0.26741 0.81038 0.35596 0.0
C2268 C 0.27688 0.81645 0.33076 0.0
C2269 C 0.2683 0.81985 0.34386 0.0
C2270 C 0.32479 0.78886 0.28613 0.0
C2271 C 0.29297 0.79867 0.31583 0.0
H2272 H 0.31668 0.80218 0.21418 0.0
H2273 H 0.36006 0.83283 0.20666 0.0
H2274 H 0.35961 0.79664 0.23623 0.0
H2275 H 0.37384 0.81892 0.2239 0.0
H2276 H 0.28956 0.78395 0.34083 0.0
H2277 H 0.26075 0.81321 0.36605 0.0
H2278 H 0.2774 0.82384 0.3215 0.0
H2279 H 0.26229 0.82982 0.34461 0.0
Tb2280 Tb 0.56675 0.04434 0.51325 0.0
C2281 C 0.50942 0.01035 0.54294 0.0
C2282 C 0.49821 0.98639 0.52281 0.0
C2283 C 0.49416 0.98616 0.55096 0.0
C2284 C 0.50735 1.00246 0.52715 0.0
C2285 C 0.50244 1.00254 0.55501 0.0
C2286 C 0.49204 0.97809 0.53486 0.0
C2287 C 0.5105 0.02832 0.57357 0.0
N2288 N 0.5171 0.02627 0.5462 0.0
C2289 C 0.5172 0.03551 0.56116 0.0
C2290 C 0.50334 0.01167 0.57057 0.0
Tb2291 Tb 0.52753 0.03722 0.52515 0.0
N2292 N 0.51314 0.0111 0.51589 0.0
C2293 C 0.50924 1.0047 0.49989 0.0
C2294 C 0.49491 0.9795 0.50648 0.0
C2295 C 0.50034 0.98875 0.49497 0.0
H2296 H 0.5227 0.04838 0.56369 0.0
H2297 H 0.49759 0.98366 0.48228 0.0
H2298 H 0.48515 0.96567 0.53179 0.0
H2299 H 0.5109 0.03562 0.58546 0.0
H2300 H 0.51321 0.01164 0.49078 0.0
H2301 H 0.59842 0.09565 0.55768 0.0
H2302 H 0.48773 0.9673 0.50264 0.0
H2303 H 0.56834 0.03582 0.47374 0.0
H2304 H 0.58224 0.06808 0.5483 0.0
H2305 H 0.57849 0.05035 0.45228 0.0
H2306 H 0.48885 0.97986 0.56008 0.0
H2307 H 0.60773 0.11321 0.53808 0.0
H2308 H 0.60904 0.11663 0.50921 0.0
H2309 H 0.49808 0.00615 0.58018 0.0
H2310 H 0.60354 0.10432 0.48043 0.0
N2311 N 0.58168 0.06995 0.52345 0.0
C2312 C 0.58603 0.07552 0.53951 0.0
C2313 C 0.60038 0.10116 0.53386 0.0
C2314 C 0.59644 0.09517 0.51742 0.0
C2315 C 0.59525 0.09124 0.54494 0.0
C2316 C 0.5871 0.07927 0.51256 0.0
H2317 H 0.59236 0.07948 0.45906 0.0
N2318 N 0.57592 0.05667 0.49249 0.0
C2319 C 0.58008 0.05673 0.46466 0.0
C2320 C 0.58407 0.0724 0.49647 0.0
C2321 C 0.57437 0.04852 0.47687 0.0
C2322 C 0.58786 0.07318 0.46853 0.0
C2323 C 0.59019 0.08115 0.48464 0.0
O2324 O 0.57941 0.02739 0.50276 0.0
O2325 O 0.54612 0.02651 0.51572 0.0
O2326 O 0.54088 0.02807 0.54258 0.0
O2327 O 0.56584 0.04167 0.53863 0.0
O2328 O 0.55723 0.02198 0.49552 0.0
O2329 O 0.5866 0.04176 0.52638 0.0
O2330 O 0.51499 0.0551 0.5336 0.0
O2331 O 0.54841 0.05488 0.52318 0.0
O2332 O 0.55304 0.0549 0.49749 0.0
O2333 O 0.52882 0.0388 0.49952 0.0
O2334 O 0.53683 0.05971 0.54287 0.0
O2335 O 0.50792 0.03883 0.51095 0.0
C2336 C 0.54593 0.01596 0.50318 0.0
C2337 C 0.60608 0.03341 0.51099 0.0
C2338 C 0.63017 0.02364 0.50907 0.0
C2339 C 0.61484 0.02177 0.51344 0.0
C2340 C 0.6366 0.03741 0.50245 0.0
C2341 C 0.61282 0.04706 0.50447 0.0
C2342 C 0.628 0.04904 0.50024 0.0
C2343 C 0.55593 0.03305 0.5469 0.0
C2344 C 0.58985 0.03097 0.51491 0.0
C2345 C 0.59885 0.09731 0.48933 0.0
C2346 C 0.60199 0.10432 0.50571 0.0
C2347 C 0.54861 0.06542 0.53572 0.0
C2348 C 0.48834 0.04823 0.52537 0.0
C2349 C 0.47996 0.06037 0.52366 0.0
C2350 C 0.46468 0.05866 0.52811 0.0
C2351 C 0.45791 0.0446 0.53413 0.0
C2352 C 0.48122 0.03423 0.53116 0.0
C2353 C 0.46611 0.03246 0.53554 0.0
C2354 C 0.53836 0.04886 0.49221 0.0
C2355 C 0.50457 0.05044 0.52144 0.0
H2356 H 0.60966 0.01116 0.51844 0.0
H2357 H 0.64839 0.0393 0.49914 0.0
H2358 H 0.60638 0.05617 0.5026 0.0
H2359 H 0.6331 0.05962 0.49521 0.0
H2360 H 0.48538 0.07122 0.51915 0.0
H2361 H 0.44614 0.04289 0.53751 0.0
H2362 H 0.4873 0.02466 0.53232 0.0
H2363 H 0.46073 0.02162 0.54005 0.0
Tb2364 Tb 0.27884 0.29667 0.76877 0.0
C2365 C 0.32912 0.26863 0.79895 0.0
C2366 C 0.33927 0.28868 0.82292 0.0
C2367 C 0.33972 0.25999 0.82226 0.0
C2368 C 0.33193 0.28454 0.80715 0.0
C2369 C 0.33342 0.25621 0.80617 0.0
C2370 C 0.34266 0.27623 0.83064 0.0
C2371 C 0.32693 0.23794 0.78044 0.0
N2372 N 0.32343 0.26566 0.78334 0.0
C2373 C 0.32294 0.25072 0.77382 0.0
C2374 C 0.33194 0.24061 0.79677 0.0
Tb2375 Tb 0.31667 0.28712 0.77349 0.0
N2376 N 0.32879 0.29618 0.79908 0.0
C2377 C 0.33395 0.31244 0.80577 0.0
C2378 C 0.34371 0.30525 0.83011 0.0
C2379 C 0.34122 0.31719 0.8214 0.0
H2380 H 0.31896 0.24849 0.76121 0.0
H2381 H 0.34493 0.33007 0.82671 0.0
H2382 H 0.34808 0.27914 0.84284 0.0
H2383 H 0.32611 0.22604 0.77295 0.0
H2384 H 0.33218 0.32195 0.79937 0.0
H2385 H 0.25077 0.25497 0.71479 0.0
H2386 H 0.34959 0.30897 0.84209 0.0
H2387 H 0.27609 0.33496 0.78218 0.0
H2388 H 0.2636 0.26245 0.74214 0.0
H2389 H 0.26864 0.35771 0.77125 0.0
H2390 H 0.34292 0.25059 0.82812 0.0
H2391 H 0.24592 0.27656 0.70015 0.0
H2392 H 0.24736 0.30651 0.70021 0.0
H2393 H 0.33513 0.23072 0.80185 0.0
H2394 H 0.25232 0.33474 0.71567 0.0
N2395 N 0.26691 0.28829 0.74307 0.0
C2396 C 0.26178 0.27213 0.73602 0.0
C2397 C 0.25191 0.27998 0.7121 0.0
C2398 C 0.25634 0.29644 0.71966 0.0
C2399 C 0.25448 0.26777 0.72039 0.0
C2400 C 0.26374 0.30019 0.7354 0.0
H2401 H 0.25983 0.35388 0.74238 0.0
N2402 N 0.27207 0.31847 0.75961 0.0
C2403 C 0.26807 0.34605 0.76341 0.0
C2404 C 0.26647 0.31594 0.744 0.0
C2405 C 0.27227 0.3331 0.76956 0.0
C2406 C 0.26319 0.34387 0.7471 0.0
C2407 C 0.26198 0.32855 0.73724 0.0
O2408 O 0.26452 0.30386 0.78667 0.0
O2409 O 0.29718 0.29369 0.78506 0.0
O2410 O 0.29995 0.26648 0.78025 0.0
O2411 O 0.27678 0.26981 0.76827 0.0
O2412 O 0.28702 0.31308 0.7917 0.0
O2413 O 0.2574 0.28094 0.7704 0.0
O2414 O 0.3311 0.27907 0.7561 0.0
O2415 O 0.29833 0.29002 0.75718 0.0
O2416 O 0.29542 0.31752 0.76225 0.0
O2417 O 0.31877 0.31394 0.77361 0.0
O2418 O 0.30845 0.27058 0.75063 0.0
O2419 O 0.3378 0.30287 0.77098 0.0
C2420 C 0.29723 0.30566 0.79621 0.0
C2421 C 0.23761 0.29403 0.77999 0.0
C2422 C 0.21159 0.29337 0.78911 0.0
C2423 C 0.22675 0.2907 0.79138 0.0
C2424 C 0.20778 0.29982 0.77553 0.0
C2425 C 0.23323 0.30014 0.7665 0.0
C2426 C 0.21848 0.30313 0.76437 0.0
C2427 C 0.2851 0.26077 0.77489 0.0
C2428 C 0.2534 0.29101 0.78201 0.0
C2429 C 0.25567 0.32518 0.72117 0.0
C2430 C 0.25283 0.30911 0.71238 0.0
C2431 C 0.29831 0.27805 0.74604 0.0
C2432 C 0.35798 0.28995 0.76228 0.0
C2433 C 0.36853 0.29255 0.75046 0.0
C2434 C 0.384 0.29098 0.75312 0.0
C2435 C 0.38851 0.28641 0.76756 0.0
C2436 C 0.36295 0.28548 0.77654 0.0
C2437 C 0.37807 0.28365 0.7791 0.0
C2438 C 0.31035 0.32309 0.76731 0.0
C2439 C 0.34197 0.29228 0.75998 0.0
H2440 H 0.22998 0.28577 0.80174 0.0
H2441 H 0.19647 0.30243 0.77355 0.0
H2442 H 0.24117 0.30257 0.75755 0.0
H2443 H 0.21531 0.30798 0.75395 0.0
H2444 H 0.36483 0.29614 0.73946 0.0
H2445 H 0.40018 0.28484 0.7699 0.0
H2446 H 0.35518 0.28353 0.78577 0.0
H2447 H 0.38174 0.28016 0.79014 0.0
Tb2448 Tb 0.04434 0.06059 0.5323 0.0
C2449 C 0.06585 0.01448 0.47876 0.0
C2450 C 0.04546 0.00815 0.45717 0.0
C2451 C 0.07181 0.0075 0.45103 0.0
C2452 C 0.05057 0.01289 0.47368 0.0
C2453 C 0.07665 0.01151 0.46755 0.0
C2454 C 0.05622 0.00582 0.44585 0.0
C2455 C 0.09584 0.01535 0.48987 0.0
N2456 N 0.06998 0.01819 0.49481 0.0
C2457 C 0.08468 0.01809 0.50051 0.0
C2458 C 0.09186 0.01223 0.47331 0.0
Tb2459 Tb 0.05097 0.02306 0.51131 0.0
N2460 N 0.04056 0.0151 0.48502 0.0
C2461 C 0.025 0.01149 0.48063 0.0
C2462 C 0.02965 0.00539 0.4526 0.0
C2463 C 0.01935 0.00684 0.46441 0.0
H2464 H 0.08805 0.02052 0.51324 0.0
H2465 H 0.00706 1.00444 0.46105 0.0
H2466 H 0.05255 1.00232 0.4331 0.0
H2467 H 0.10751 0.01565 0.49447 0.0
H2468 H 0.01679 0.01257 0.48951 0.0
H2469 H 0.08813 0.07937 0.58269 0.0
H2470 H 0.02525 1.00177 0.44004 0.0
H2471 H 0.00731 0.06332 0.53037 0.0
H2472 H 0.07845 0.07137 0.5542 0.0
H2473 H 0.98779 0.06802 0.54912 0.0
H2474 H 0.07994 0.0053 0.44222 0.0
H2475 H 0.06986 0.08165 0.60366 0.0
H2476 H 0.0425 0.08055 0.61058 0.0
H2477 H 0.10051 0.01004 0.46509 0.0
H2478 H 0.01511 0.07758 0.60142 0.0
N2479 N 0.05466 0.06841 0.55865 0.0
C2480 C 0.07022 0.07223 0.56307 0.0
C2481 C 0.06549 0.07798 0.59111 0.0
C2482 C 0.04967 0.07502 0.58651 0.0
C2483 C 0.07583 0.0768 0.5793 0.0
C2484 C 0.04461 0.07038 0.56999 0.0
H2485 H 0.99465 0.07321 0.5785 0.0
N2486 N 0.02529 0.06536 0.54882 0.0
C2487 C 0.99943 0.06822 0.55373 0.0
C2488 C 0.02935 0.06885 0.56488 0.0
C2489 C 0.01063 0.06558 0.54311 0.0
C2490 C 1.00333 0.0711 0.5703 0.0
C2491 C 0.01851 0.07169 0.57608 0.0
O2492 O 0.03712 0.07955 0.52298 0.0
O2493 O 0.04376 0.0455 0.50836 0.0
O2494 O 0.06816 0.04241 0.50416 0.0
O2495 O 0.06859 0.0626 0.52656 0.0
O2496 O 0.02607 0.05689 0.51263 0.0
O2497 O 0.05985 0.08352 0.53513 0.0
O2498 O 0.05806 1.00432 0.52111 0.0
O2499 O 0.05156 0.03819 0.53516 0.0
O2500 O 0.02724 0.0412 0.53952 0.0
O2501 O 0.02673 0.02107 0.51707 0.0
O2502 O 0.06928 0.02682 0.53102 0.0
O2503 O 0.03563 0.99996 0.50824 0.0
C2504 C 0.03141 0.04785 0.50152 0.0
C2505 C 0.04878 0.10663 0.53519 0.0
C2506 C 0.04936 0.13471 0.53158 0.0
C2507 C 0.05097 0.11868 0.52557 0.0
C2508 C 0.04573 0.13855 0.54759 0.0
C2509 C 0.04512 0.11057 0.55109 0.0
C2510 C 0.04365 0.12652 0.55725 0.0
C2511 C 0.07492 0.05636 0.51375 0.0
C2512 C 0.05005 0.09004 0.52796 0.0
C2513 C 0.02328 0.07549 0.59261 0.0
C2514 C 0.03886 0.07716 0.59783 0.0
C2515 C 0.06392 0.03594 0.54205 0.0
C2516 C 0.04683 0.97705 0.50919 0.0
C2517 C 0.04317 0.96493 0.5186 0.0
C2518 C 0.04562 0.94904 0.51349 0.0
C2519 C 0.05144 0.9454 0.49842 0.0
C2520 C 0.05261 0.97326 0.49424 0.0
C2521 C 0.05482 0.95743 0.48886 0.0
C2522 C 0.0205 0.02721 0.52998 0.0
C2523 C 0.04528 0.99368 0.51592 0.0
H2524 H 0.05403 0.11552 0.51336 0.0
H2525 H 0.04427 0.15073 0.55256 0.0
H2526 H 0.04337 0.10138 0.55866 0.0
H2527 H 0.04078 0.12956 0.56952 0.0
H2528 H 0.03846 0.96801 0.53001 0.0
H2529 H 0.05369 0.93338 0.49414 0.0
H2530 H 0.05554 0.98252 0.48686 0.0
H2531 H 0.05938 0.95453 0.47735 0.0
Tb2532 Tb 0.31325 0.80522 0.76698 0.0
C2533 C 0.27658 0.75523 0.80194 0.0
C2534 C 0.28121 0.72898 0.78952 0.0
C2535 C 0.27544 0.73344 0.8175 0.0
C2536 C 0.28035 0.74528 0.78879 0.0
C2537 C 0.27391 0.74942 0.81643 0.0
C2538 C 0.27904 0.72321 0.80404 0.0
C2539 C 0.26742 0.77518 0.8273 0.0
N2540 N 0.27503 0.77048 0.80032 0.0
C2541 C 0.27 0.7803 0.81261 0.0
C2542 C 0.2695 0.75972 0.82927 0.0
Tb2543 Tb 0.28017 0.77802 0.77596 0.0
N2544 N 0.28224 0.75128 0.77497 0.0
C2545 C 0.28411 0.74116 0.76112 0.0
C2546 C 0.28373 0.71881 0.77553 0.0
C2547 C 0.28506 0.7249 0.76123 0.0
H2548 H 0.26843 0.79233 0.81135 0.0
H2549 H 0.28682 0.71708 0.75027 0.0
H2550 H 0.27981 0.71078 0.80489 0.0
H2551 H 0.26382 0.78317 0.8371 0.0
H2552 H 0.2852 0.74556 0.74993 0.0
H2553 H 0.30489 0.86592 0.79112 0.0
H2554 H 0.28427 0.70615 0.77554 0.0
H2555 H 0.32751 0.79142 0.73284 0.0
H2556 H 0.30741 0.83783 0.79221 0.0
H2557 H 0.33366 0.80067 0.7075 0.0
H2558 H 0.27353 0.72877 0.82855 0.0
H2559 H 0.30755 0.87639 0.76561 0.0
H2560 H 0.31375 0.8718 0.73674 0.0
H2561 H 0.26741 0.75575 0.84064 0.0
H2562 H 0.32182 0.85409 0.71399 0.0
N2563 N 0.31096 0.83184 0.76736 0.0
C2564 C 0.30863 0.84206 0.78095 0.0
C2565 C 0.30864 0.86395 0.76599 0.0
C2566 C 0.31202 0.85384 0.75239 0.0
C2567 C 0.30718 0.8581 0.78041 0.0
C2568 C 0.31324 0.83771 0.75353 0.0
H2569 H 0.32955 0.82765 0.70308 0.0
N2570 N 0.3196 0.81281 0.74291 0.0
C2571 C 0.32917 0.80844 0.71677 0.0
C2572 C 0.31784 0.82788 0.74086 0.0
C2573 C 0.32566 0.80325 0.73126 0.0
C2574 C 0.32679 0.82365 0.7143 0.0
C2575 C 0.32125 0.83369 0.7265 0.0
O2576 O 0.33643 0.80309 0.76656 0.0
O2577 O 0.30479 0.7811 0.77345 0.0
O2578 O 0.29653 0.78455 0.79727 0.0
O2579 O 0.30891 0.80991 0.79257 0.0
O2580 O 0.3205 0.78228 0.75712 0.0
O2581 O 0.32966 0.82089 0.78458 0.0
O2582 O 0.25697 0.77962 0.77794 0.0
O2583 O 0.2885 0.80204 0.76929 0.0
O2584 O 0.29772 0.79827 0.74505 0.0
O2585 O 0.28396 0.77354 0.75023 0.0
O2586 O 0.27299 0.80097 0.7859 0.0
O2587 O 0.2633 0.76293 0.75848 0.0
C2588 C 0.31266 0.77226 0.76502 0.0
C2589 C 0.35523 0.82701 0.77709 0.0
C2590 C 0.38334 0.83512 0.78126 0.0
C2591 C 0.36944 0.82399 0.78221 0.0
C2592 C 0.38283 0.84939 0.77503 0.0
C2593 C 0.35487 0.84123 0.77082 0.0
C2594 C 0.36865 0.85236 0.76979 0.0
C2595 C 0.30501 0.79945 0.80239 0.0
C2596 C 0.3411 0.8151 0.77869 0.0
C2597 C 0.31938 0.84944 0.72497 0.0
C2598 C 0.31476 0.85951 0.7379 0.0
C2599 C 0.28063 0.81086 0.77774 0.0
C2600 C 0.23813 0.75585 0.76679 0.0
C2601 C 0.22372 0.75828 0.76149 0.0
C2602 C 0.2101 0.74664 0.76223 0.0
C2603 C 0.21109 0.73249 0.76848 0.0
C2604 C 0.23895 0.74172 0.77304 0.0
C2605 C 0.22545 0.73011 0.7739 0.0
C2606 C 0.28857 0.78363 0.74021 0.0
C2607 C 0.25201 0.7682 0.76535 0.0
H2608 H 0.36962 0.81308 0.78727 0.0
H2609 H 0.39337 0.85815 0.77409 0.0
H2610 H 0.34402 0.84379 0.76684 0.0
H2611 H 0.36834 0.86334 0.76496 0.0
H2612 H 0.22318 0.76912 0.75644 0.0
H2613 H 0.20078 0.72335 0.76927 0.0
H2614 H 0.24993 0.73958 0.77713 0.0
H2615 H 0.22613 0.71921 0.77872 0.0
Tb2616 Tb 0.5511 0.03483 0.03925 0.0
C2617 C 0.51161 0.06141 0.99251 0.0
C2618 C 0.49206 0.03737 0.98069 0.0
C2619 C 0.4862 0.06443 0.98317 0.0
C2620 C 0.50708 0.04466 0.98797 0.0
C2621 C 0.50141 0.07159 0.98977 0.0
C2622 C 0.48152 0.04732 0.97866 0.0
C2623 C 0.52255 0.09501 0.9986 0.0
N2624 N 0.5264 0.06776 0.99869 0.0
C2625 C 0.53222 0.08434 1.00097 0.0
C2626 C 0.507 0.08862 0.99321 0.0
Tb2627 Tb 0.54141 0.0495 1.00271 0.0
N2628 N 0.51769 0.03559 0.99002 0.0
C2629 C 0.51429 0.01911 0.98386 0.0
C2630 C 0.48825 0.02038 0.9753 0.0
C2631 C 0.4995 0.01124 0.97668 0.0
H2632 H 0.54424 0.08937 0.0051 0.0
H2633 H 0.49679 0.99813 0.97223 0.0
H2634 H 0.46988 0.04195 0.97323 0.0
H2635 H 0.5271 0.10814 1.00089 0.0
H2636 H 0.52275 0.01177 0.98482 0.0
H2637 H 0.59234 0.08589 0.07518 0.0
H2638 H 0.47682 0.01427 0.96969 0.0
H2639 H 0.55081 0.99504 0.03171 0.0
H2640 H 0.56727 0.07193 0.06047 0.0
H2641 H 0.56933 0.97723 0.03417 0.0
H2642 H 0.47813 0.07202 0.98111 0.0
H2643 H 0.61341 0.07095 0.0766 0.0
H2644 H 0.62224 0.04435 0.0703 0.0
H2645 H 0.49955 0.09688 0.99128 0.0
H2646 H 0.61599 0.01472 0.05912 0.0
N2647 N 0.57391 0.04912 0.05337 0.0
C2648 C 0.57622 0.06511 0.06105 0.0
C2649 C 0.60236 0.06468 0.07018 0.0
C2650 C 0.59967 0.0481 0.06301 0.0
C2651 C 0.59048 0.07313 0.06944 0.0
C2652 C 0.58509 0.04055 0.05477 0.0
H2653 H 0.59619 0.9895 0.0458 0.0
N2654 N 0.5672 0.01718 0.04139 0.0
C2655 C 0.57296 0.99037 0.03821 0.0
C2656 C 0.58162 0.02398 0.04854 0.0
C2657 C 0.56249 1.00047 0.03688 0.0
C2658 C 0.58812 0.99735 0.04474 0.0
C2659 C 0.59255 0.01433 0.05026 0.0
O2660 O 0.53859 0.01793 0.0519 0.0
O2661 O 0.53377 0.0359 0.02118 0.0
O2662 O 0.53172 0.06369 0.02182 0.0
O2663 O 0.54315 0.05805 0.04539 0.0
O2664 O 0.53196 0.01422 0.02871 0.0
O2665 O 0.546 0.04369 0.06262 0.0
O2666 O 0.55631 0.06378 0.9895 0.0
O2667 O 0.55836 0.04917 0.02142 0.0
O2668 O 0.56352 0.0245 0.02015 0.0
O2669 O 0.54781 0.02532 0.99758 0.0
O2670 O 0.56093 0.07014 0.01248 0.0
O2671 O 0.54477 0.03889 0.97917 0.0
C2672 C 0.52512 0.02192 0.01978 0.0
C2673 C 0.54417 0.02473 0.08013 0.0
C2674 C 0.5405 0.0257 0.10859 0.0
C2675 C 0.5365 0.02941 0.09359 0.0
C2676 C 0.55232 0.01709 0.10991 0.0
C2677 C 0.55596 0.01616 0.0816 0.0
C2678 C 0.56 0.01238 0.09645 0.0
C2679 C 0.53491 0.06628 0.03761 0.0
C2680 C 0.53952 0.02904 0.06483 0.0
C2681 C 0.60735 0.02188 0.05781 0.0
C2682 C 0.61091 0.03874 0.06417 0.0
C2683 C 0.56698 0.06317 0.02275 0.0
C2684 C 0.55073 0.05747 0.96143 0.0
C2685 C 0.56016 0.05404 0.94916 0.0
C2686 C 0.55857 0.0596 0.93457 0.0
C2687 C 0.54705 0.06842 0.93235 0.0
C2688 C 0.5392 0.06612 0.95902 0.0
C2689 C 0.53738 0.07155 0.94451 0.0
C2690 C 0.55874 0.01972 0.00473 0.0
C2691 C 0.55372 0.05233 0.97673 0.0
H2692 H 0.5272 0.03576 0.09228 0.0
H2693 H 0.55571 0.01414 0.12133 0.0
H2694 H 0.56198 0.01233 0.07136 0.0
H2695 H 0.56911 0.00578 0.09754 0.0
H2696 H 0.56876 0.04697 0.95105 0.0
H2697 H 0.54564 0.07307 0.92135 0.0
H2698 H 0.53172 0.06879 0.9683 0.0
H2699 H 0.52856 0.07834 0.94273 0.0
Tb2700 Tb 0.30732 0.30357 0.27593 0.0
C2701 C 0.24622 0.25822 0.26181 0.0
C2702 C 0.24056 0.23617 0.27699 0.0
C2703 C 0.21968 0.2474 0.26715 0.0
C2704 C 0.25121 0.24729 0.27008 0.0
C2705 C 0.23029 0.2581 0.25993 0.0
C2706 C 0.22483 0.23658 0.27581 0.0
C2707 C 0.2363 0.27896 0.24374 0.0
N2708 N 0.25685 0.26847 0.25507 0.0
C2709 C 0.25197 0.2789 0.24616 0.0
C2710 C 0.22541 0.26841 0.25051 0.0
Tb2711 Tb 0.28204 0.26521 0.25805 0.0
N2712 N 0.26637 0.24678 0.27041 0.0
C2713 C 0.27137 0.23446 0.27633 0.0
C2714 C 0.24593 0.2245 0.28427 0.0
C2715 C 0.26138 0.2235 0.28373 0.0
H2716 H 0.25985 0.28768 0.24108 0.0
H2717 H 0.26557 0.21415 0.2888 0.0
H2718 H 0.21649 0.2282 0.28109 0.0
H2719 H 0.23264 0.28721 0.23665 0.0
H2720 H 0.28318 0.23325 0.27553 0.0
H2721 H 0.35274 0.3002 0.23618 0.0
H2722 H 0.23813 0.21582 0.28977 0.0
H2723 H 0.30898 0.31754 0.31493 0.0
H2724 H 0.32594 0.29813 0.24299 0.0
H2725 H 0.3285 0.32514 0.33834 0.0
H2726 H 0.20743 0.24721 0.26588 0.0
H2727 H 0.37404 0.30657 0.25774 0.0
H2728 H 0.3825 0.31256 0.28741 0.0
H2729 H 0.21325 0.26823 0.24827 0.0
H2730 H 0.3758 0.31875 0.31537 0.0
N2731 N 0.33171 0.30312 0.26839 0.0
C2732 C 0.335 0.30096 0.25264 0.0
C2733 C 0.36223 0.3055 0.26087 0.0
C2734 C 0.35885 0.30789 0.27696 0.0
C2735 C 0.35025 0.30204 0.24866 0.0
C2736 C 0.3433 0.30678 0.28032 0.0
H2737 H 0.35566 0.32355 0.33453 0.0
N2738 N 0.32462 0.31031 0.29831 0.0
C2739 C 0.33176 0.32081 0.32649 0.0
C2740 C 0.33958 0.31028 0.2959 0.0
C2741 C 0.32072 0.31639 0.31323 0.0
C2742 C 0.34707 0.31987 0.32429 0.0
C2743 C 0.35123 0.31496 0.30878 0.0
O2744 O 0.30112 0.32576 0.28541 0.0
O2745 O 0.28359 0.29043 0.26845 0.0
O2746 O 0.28302 0.28067 0.23981 0.0
O2747 O 0.30192 0.30408 0.25057 0.0
O2748 O 0.28827 0.30534 0.29089 0.0
O2749 O 0.31607 0.32455 0.26625 0.0
O2750 O 0.28924 0.25941 0.23489 0.0
O2751 O 0.30553 0.27931 0.26211 0.0
O2752 O 0.30714 0.28801 0.29423 0.0
O2753 O 0.28625 0.26572 0.28435 0.0
O2754 O 0.30148 0.25541 0.2656 0.0
O2755 O 0.27339 0.24151 0.24419 0.0
C2756 C 0.27762 0.2954 0.28108 0.0
C2757 C 0.31819 0.35033 0.28288 0.0
C2758 C 0.3211 0.37973 0.28448 0.0
C2759 C 0.31351 0.36357 0.27788 0.0
C2760 C 0.33352 0.38259 0.29628 0.0
C2761 C 0.33083 0.35319 0.29439 0.0
C2762 C 0.33844 0.36931 0.30108 0.0
C2763 C 0.29207 0.29488 0.23875 0.0
C2764 C 0.30926 0.33386 0.2759 0.0
C2765 C 0.36668 0.3153 0.30564 0.0
C2766 C 0.3705 0.31181 0.28973 0.0
C2767 C 0.31204 0.26839 0.26601 0.0
C2768 C 0.29162 0.23241 0.22738 0.0
C2769 C 0.29811 0.22458 0.23845 0.0
C2770 C 0.30884 0.215 0.23383 0.0
C2771 C 0.31265 0.21286 0.21779 0.0
C2772 C 0.29553 0.23018 0.21143 0.0
C2773 C 0.30593 0.22035 0.20665 0.0
C2774 C 0.29697 0.2746 0.29586 0.0
C2775 C 0.28205 0.24421 0.23262 0.0
H2776 H 0.30363 0.36128 0.26907 0.0
H2777 H 0.33941 0.395 0.30165 0.0
H2778 H 0.33475 0.3431 0.29825 0.0
H2779 H 0.34811 0.37153 0.31007 0.0
H2780 H 0.29489 0.22598 0.25069 0.0
H2781 H 0.32098 0.20563 0.21392 0.0
H2782 H 0.29075 0.23629 0.20277 0.0
H2783 H 0.30899 0.21874 0.19434 0.0
Tb2784 Tb 0.54365 0.55926 0.03115 0.0
C2785 C 0.56682 0.51315 0.97904 0.0
C2786 C 0.54766 0.50873 0.95652 0.0
C2787 C 0.57403 0.50678 0.9517 0.0
C2788 C 0.55196 0.51271 0.97323 0.0
C2789 C 0.57794 0.50968 0.96839 0.0
C2790 C 0.55889 0.50632 0.94577 0.0
C2791 C 0.59524 0.51017 0.99145 0.0
N2792 N 0.57003 0.51575 0.99523 0.0
C2793 C 0.58383 0.51358 1.00152 0.0
C2794 C 0.5924 0.50853 0.97482 0.0
Tb2795 Tb 0.55063 0.5217 0.01073 0.0
N2796 N 0.54143 0.51473 0.98403 0.0
C2797 C 0.52603 0.51121 0.97887 0.0
C2798 C 0.53207 0.5065 0.95117 0.0
C2799 C 0.52117 0.50739 0.96243 0.0
H2800 H 0.58627 0.51459 0.01428 0.0
H2801 H 0.50901 0.50518 0.95846 0.0
H2802 H 0.55586 0.50347 0.93289 0.0
H2803 H 0.60622 0.50879 0.99653 0.0
H2804 H 0.51741 0.51181 0.98736 0.0
H2805 H 0.58879 0.57916 0.08024 0.0
H2806 H 0.52828 0.50347 0.93844 0.0
H2807 H 0.50649 0.561 0.0303 0.0
H2808 H 0.57839 0.57109 0.05197 0.0
H2809 H 0.48733 0.56521 0.04974 0.0
H2810 H 0.58245 0.50429 0.94332 0.0
H2811 H 0.5711 0.58082 0.10185 0.0
H2812 H 0.54392 0.5793 0.10963 0.0
H2813 H 0.60124 0.50583 0.96705 0.0
H2814 H 0.51624 0.57565 0.10131 0.0
N2815 N 0.55475 0.56756 0.05718 0.0
C2816 C 0.57039 0.57173 0.06112 0.0
C2817 C 0.5664 0.57722 0.08939 0.0
C2818 C 0.55048 0.57399 0.08527 0.0
C2819 C 0.57642 0.57635 0.07723 0.0
C2820 C 0.54498 0.56928 0.06886 0.0
H2821 H 0.49506 0.57066 0.07897 0.0
N2822 N 0.52502 0.56365 0.04827 0.0
C2823 C 0.49916 0.56578 0.05399 0.0
C2824 C 0.52954 0.56729 0.06424 0.0
C2825 C 0.51012 0.56344 0.04299 0.0
C2826 C 0.50355 0.5688 0.07048 0.0
C2827 C 0.51896 0.56984 0.0758 0.0
O2828 O 0.5352 0.57794 0.02257 0.0
O2829 O 0.54334 0.54413 0.00733 0.0
O2830 O 0.56905 0.54027 0.00429 0.0
O2831 O 0.56774 0.56202 0.02476 0.0
O2832 O 0.52529 0.55512 0.01155 0.0
O2833 O 0.55866 0.58236 0.03306 0.0
O2834 O 0.55487 0.50356 0.02351 0.0
O2835 O 0.55106 0.5371 0.03446 0.0
O2836 O 0.5269 0.5396 0.03844 0.0
O2837 O 0.52624 0.51991 0.01568 0.0
O2838 O 0.56908 0.52616 0.03037 0.0
O2839 O 0.53653 0.49783 0.00468 0.0
C2840 C 0.53093 0.54635 1.00046 0.0
C2841 C 0.54724 0.60529 0.03379 0.0
C2842 C 0.54952 0.63375 0.03058 0.0
C2843 C 0.55073 0.61759 0.02455 0.0
C2844 C 0.54472 0.63742 0.04612 0.0
C2845 C 0.54258 0.6091 0.0493 0.0
C2846 C 0.54134 0.62515 0.05542 0.0
C2847 C 0.57482 0.55506 0.01292 0.0
C2848 C 0.54821 0.5886 0.02657 0.0
C2849 C 0.5242 0.57378 0.09222 0.0
C2850 C 0.53995 0.57585 0.09695 0.0
C2851 C 0.56364 0.5353 0.04134 0.0
C2852 C 0.54809 0.47626 0.01006 0.0
C2853 C 0.54443 0.46424 0.01961 0.0
C2854 C 0.54916 0.44931 0.01596 0.0
C2855 C 0.55762 0.4465 1.00255 0.0
C2856 C 0.55629 0.47319 0.99653 0.0
C2857 C 0.56104 0.45835 0.99283 0.0
C2858 C 0.52003 0.52582 0.02869 0.0
C2859 C 0.54401 0.49215 0.0152 0.0
H2860 H 0.55409 0.61446 0.01245 0.0
H2861 H 0.54374 0.64977 0.05113 0.0
H2862 H 0.53983 0.59973 0.05658 0.0
H2863 H 0.53771 0.62809 0.0674 0.0
H2864 H 0.5382 0.4667 0.03015 0.0
H2865 H 0.5614 0.43507 0.99951 0.0
H2866 H 0.55912 0.48225 0.98894 0.0
H2867 H 0.56746 0.45606 0.98244 0.0
Tb2868 Tb 0.81352 0.30546 0.26678 0.0
C2869 C 0.77553 0.25439 0.29991 0.0
C2870 C 0.78123 0.22853 0.28784 0.0
C2871 C 0.77393 0.23243 0.3153 0.0
C2872 C 0.78008 0.24474 0.28704 0.0
C2873 C 0.77222 0.24833 0.31416 0.0
C2874 C 0.77842 0.22253 0.30215 0.0
C2875 C 0.76491 0.27374 0.32466 0.0
N2876 N 0.77396 0.26963 0.29826 0.0
C2877 C 0.76823 0.27916 0.31024 0.0
C2878 C 0.76703 0.25831 0.32669 0.0
Tb2879 Tb 0.78026 0.27764 0.27435 0.0
N2880 N 0.78257 0.25098 0.27342 0.0
C2881 C 0.78525 0.24111 0.25975 0.0
C2882 C 0.78478 0.21871 0.27412 0.0
C2883 C 0.78659 0.22497 0.25995 0.0
H2884 H 0.76662 0.29116 0.30897 0.0
H2885 H 0.78909 0.21741 0.24918 0.0
H2886 H 0.77937 0.21016 0.30306 0.0
H2887 H 0.76074 0.2815 0.33422 0.0
H2888 H 0.78678 0.24569 0.24868 0.0
H2889 H 0.80525 0.36595 0.29167 0.0
H2890 H 0.78582 0.20621 0.27424 0.0
H2891 H 0.82739 0.29171 0.23235 0.0
H2892 H 0.80694 0.3375 0.29218 0.0
H2893 H 0.83377 0.30134 0.20721 0.0
H2894 H 0.77152 0.22756 0.32618 0.0
H2895 H 0.80922 0.37718 0.26669 0.0
H2896 H 0.81555 0.37301 0.23788 0.0
H2897 H 0.7644 0.25413 0.33786 0.0
H2898 H 0.82341 0.35544 0.21489 0.0
N2899 N 0.81124 0.33209 0.26748 0.0
C2900 C 0.80862 0.34204 0.28111 0.0
C2901 C 0.80978 0.36454 0.26677 0.0
C2902 C 0.81315 0.35458 0.25306 0.0
C2903 C 0.80764 0.35828 0.28091 0.0
C2904 C 0.81396 0.33828 0.25388 0.0
H2905 H 0.83042 0.32876 0.20342 0.0
N2906 N 0.82004 0.31331 0.24286 0.0
C2907 C 0.8295 0.30913 0.21665 0.0
C2908 C 0.8186 0.32857 0.24112 0.0
C2909 C 0.82588 0.30374 0.23102 0.0
C2910 C 0.82755 0.32459 0.21453 0.0
C2911 C 0.82223 0.33462 0.22693 0.0
O2912 O 0.83693 0.30419 0.26638 0.0
O2913 O 0.80508 0.28112 0.27275 0.0
O2914 O 0.79573 0.28402 0.2963 0.0
O2915 O 0.80859 0.30948 0.29219 0.0
O2916 O 0.82137 0.28285 0.25706 0.0
O2917 O 0.82943 0.32082 0.28503 0.0
O2918 O 0.75694 0.27916 0.2749 0.0
O2919 O 0.7887 0.30198 0.2684 0.0
O2920 O 0.79813 0.29905 0.24477 0.0
O2921 O 0.78512 0.27364 0.24888 0.0
O2922 O 0.77253 0.30029 0.28423 0.0
O2923 O 0.76415 0.26225 0.25628 0.0
C2924 C 0.81338 0.27258 0.26461 0.0
C2925 C 0.85504 0.32837 0.27796 0.0
C2926 C 0.8831 0.33725 0.28212 0.0
C2927 C 0.86948 0.32543 0.28237 0.0
C2928 C 0.88208 0.35209 0.27725 0.0
C2929 C 0.85418 0.3432 0.27309 0.0
C2930 C 0.86768 0.35498 0.2727 0.0
C2931 C 0.80429 0.29883 0.30175 0.0
C2932 C 0.84118 0.3158 0.27894 0.0
C2933 C 0.82076 0.35058 0.22573 0.0
C2934 C 0.81626 0.36057 0.2388 0.0
C2935 C 0.78048 0.31055 0.27664 0.0
C2936 C 0.73854 0.25518 0.26349 0.0
C2937 C 0.72425 0.25804 0.25841 0.0
C2938 C 0.71047 0.24656 0.25898 0.0
C2939 C 0.7112 0.23211 0.26478 0.0
C2940 C 0.73911 0.24075 0.26929 0.0
C2941 C 0.72546 0.22928 0.26994 0.0
C2942 C 0.78958 0.28424 0.2393 0.0
C2943 C 0.75253 0.26752 0.26239 0.0
H2944 H 0.87007 0.31405 0.28638 0.0
H2945 H 0.8924 0.36139 0.27689 0.0
H2946 H 0.84316 0.34577 0.26974 0.0
H2947 H 0.86697 0.36642 0.26895 0.0
H2948 H 0.72392 0.26911 0.2537 0.0
H2949 H 0.70076 0.22308 0.26545 0.0
H2950 H 0.75002 0.23829 0.2732 0.0
H2951 H 0.72594 0.21814 0.27442 0.0
Tb2952 Tb 0.05057 0.53159 0.54027 0.0
C2953 C 0.01479 0.5609 0.49299 0.0
C2954 C 0.9984 0.53652 0.47694 0.0
C2955 C 0.9897 0.56219 0.48102 0.0
C2956 C 0.01224 0.54447 0.48648 0.0
C2957 C 1.00377 0.57011 0.48999 0.0
C2958 C 0.98701 0.54539 0.47452 0.0
C2959 C 0.02204 0.59449 0.50347 0.0
N2960 N 0.02849 0.56805 0.50155 0.0
C2961 C 0.03259 0.58479 0.50602 0.0
C2962 C 0.00744 0.58708 0.49565 0.0
Tb2963 Tb 0.04499 0.55125 0.50571 0.0
N2964 N 0.02354 0.53639 0.48914 0.0
C2965 C 0.02206 0.52044 0.48153 0.0
C2966 C 0.99655 0.52002 0.46986 0.0
C2967 C 0.00854 0.51202 0.47198 0.0
H2968 H 0.04396 0.59059 0.51188 0.0
H2969 H 0.00734 0.4993 0.46635 0.0
H2970 H 0.97625 0.53947 0.46735 0.0
H2971 H 0.0252 0.60766 0.50747 0.0
H2972 H 0.03098 0.5138 0.48307 0.0
H2973 H 0.09195 0.58119 0.57824 0.0
H2974 H 0.98608 0.51345 0.46249 0.0
H2975 H 0.04884 0.49153 0.53415 0.0
H2976 H 0.06696 0.56795 0.56315 0.0
H2977 H 0.06654 0.47293 0.53693 0.0
H2978 H 0.981 0.569 0.47873 0.0
H2979 H 0.11254 0.56564 0.57974 0.0
H2980 H 0.12072 0.53868 0.57338 0.0
H2981 H 0.9993 0.59461 0.4936 0.0
H2982 H 0.11385 0.50909 0.56195 0.0
N2983 N 0.07316 0.54495 0.55564 0.0
C2984 C 0.07566 0.56084 0.5637 0.0
C2985 C 0.10151 0.55968 0.57309 0.0
C2986 C 0.09855 0.54315 0.56573 0.0
C2987 C 0.08991 0.56848 0.5723 0.0
C2988 C 0.08403 0.53605 0.55715 0.0
H2989 H 0.09356 0.48437 0.54846 0.0
N2990 N 0.06589 0.5133 0.54327 0.0
C2991 C 0.07061 0.48605 0.54073 0.0
C2992 C 0.08028 0.5196 0.55064 0.0
C2993 C 0.06062 0.49661 0.5392 0.0
C2994 C 0.08585 0.49256 0.54721 0.0
C2995 C 0.09076 0.5095 0.55263 0.0
O2996 O 0.03614 0.51417 0.55097 0.0
O2997 O 0.03525 0.5354 0.5216 0.0
O2998 O 0.03384 0.56334 0.52501 0.0
O2999 O 0.04307 0.55479 0.54793 0.0
O3000 O 0.03132 0.51259 0.52716 0.0
O3001 O 0.04401 0.53926 0.56331 0.0
O3002 O 0.05969 0.56995 0.49693 0.0
O3003 O 0.06036 0.54735 0.52431 0.0
O3004 O 0.06101 0.51883 0.52081 0.0
O3005 O 0.05374 0.52885 0.49799 0.0
O3006 O 0.06354 0.57048 0.51964 0.0
O3007 O 0.05256 0.54548 0.48272 0.0
C3008 C 0.02617 0.52159 0.51832 0.0
C3009 C 0.03972 0.51907 0.5794 0.0
C3010 C 0.03395 0.51861 0.60716 0.0
C3011 C 0.03109 0.52312 0.59226 0.0
C3012 C 0.04564 0.50997 0.60904 0.0
C3013 C 0.05135 0.51042 0.58142 0.0
C3014 C 0.05426 0.50587 0.59619 0.0
C3015 C 0.0358 0.56422 0.54075 0.0
C3016 C 0.03657 0.52457 0.5643 0.0
C3017 C 0.10554 0.51659 0.56047 0.0
C3018 C 0.10944 0.53341 0.567 0.0
C3019 C 0.06922 0.56129 0.52787 0.0
C3020 C 0.05821 0.56744 0.46859 0.0
C3021 C 0.06505 0.56128 0.45504 0.0
C3022 C 0.06503 0.56833 0.44118 0.0
C3023 C 0.0575 0.58137 0.44086 0.0
C3024 C 0.05078 0.58048 0.46813 0.0
C3025 C 0.05033 0.5873 0.45425 0.0
C3026 C 0.05994 0.51863 0.50515 0.0
C3027 C 0.06002 0.56054 0.48316 0.0
H3028 H 0.02231 0.53008 0.59074 0.0
H3029 H 0.048 0.50624 0.62037 0.0
H3030 H 0.05821 0.50722 0.57172 0.0
H3031 H 0.06323 0.49919 0.59768 0.0
H3032 H 0.07056 0.55105 0.45544 0.0
H3033 H 0.05744 0.58723 0.43045 0.0
H3034 H 0.04555 0.58559 0.47846 0.0
H3035 H 0.04467 0.59743 0.45399 0.0
Tb3036 Tb 0.77802 0.7956 0.26908 0.0
C3037 C 0.82992 0.77088 0.29953 0.0
C3038 C 0.83929 0.79229 0.32266 0.0
C3039 C 0.84096 0.76423 0.32378 0.0
C3040 C 0.83205 0.787 0.30688 0.0
C3041 C 0.83493 0.75939 0.30761 0.0
C3042 C 0.84314 0.78071 0.33131 0.0
C3043 C 0.83021 0.74017 0.28241 0.0
N3044 N 0.82461 0.76694 0.2838 0.0
C3045 C 0.82557 0.75212 0.27494 0.0
C3046 C 0.83459 0.7437 0.29892 0.0
Tb3047 Tb 0.81634 0.78683 0.27249 0.0
N3048 N 0.82852 0.79777 0.2979 0.0
C3049 C 0.83331 0.8143 0.30363 0.0
C3050 C 0.84325 0.80912 0.32889 0.0
C3051 C 0.8405 0.82017 0.31921 0.0
H3052 H 0.82205 0.74924 0.26218 0.0
H3053 H 0.8439 0.83325 0.32375 0.0
H3054 H 0.84847 0.78449 0.34354 0.0
H3055 H 0.83039 0.72827 0.27543 0.0
H3056 H 0.83134 0.8232 0.29654 0.0
H3057 H 0.75031 0.75048 0.21703 0.0
H3058 H 0.84903 0.81372 0.34085 0.0
H3059 H 0.77241 0.833 0.28066 0.0
H3060 H 0.76337 0.75984 0.24415 0.0
H3061 H 0.76398 0.85451 0.26829 0.0
H3062 H 0.84465 0.75554 0.3303 0.0
H3063 H 0.74455 0.77057 0.20093 0.0
H3064 H 0.74511 0.80001 0.19912 0.0
H3065 H 0.83834 0.7345 0.30466 0.0
H3066 H 0.74913 0.82873 0.21311 0.0
N3067 N 0.7659 0.78539 0.24358 0.0
C3068 C 0.76117 0.76894 0.23742 0.0
C3069 C 0.75065 0.77487 0.21277 0.0
C3070 C 0.75469 0.7916 0.21941 0.0
C3071 C 0.75371 0.76349 0.2219 0.0
C3072 C 0.7622 0.79647 0.2351 0.0
H3073 H 0.7558 0.84914 0.23915 0.0
N3074 N 0.76991 0.816 0.25856 0.0
C3075 C 0.76418 0.84279 0.26095 0.0
C3076 C 0.76443 0.81248 0.24287 0.0
C3077 C 0.76891 0.83056 0.26791 0.0
C3078 C 0.75966 0.83974 0.24448 0.0
C3079 C 0.75926 0.82425 0.23532 0.0
O3080 O 0.76444 0.80319 0.28756 0.0
O3081 O 0.7969 0.79277 0.28485 0.0
O3082 O 0.80043 0.76464 0.27757 0.0
O3083 O 0.77611 0.7691 0.27005 0.0
O3084 O 0.78684 0.81239 0.29151 0.0
O3085 O 0.75649 0.78037 0.27135 0.0
O3086 O 0.83076 0.77829 0.25529 0.0
O3087 O 0.79742 0.7895 0.25681 0.0
O3088 O 0.79375 0.81768 0.26367 0.0
O3089 O 0.81811 0.81327 0.27118 0.0
O3090 O 0.80773 0.77023 0.24979 0.0
O3091 O 0.8369 0.80277 0.26871 0.0
C3092 C 0.79708 0.80492 0.29591 0.0
C3093 C 0.7374 0.79411 0.28182 0.0
C3094 C 0.71273 0.79619 0.29308 0.0
C3095 C 0.72739 0.79213 0.29419 0.0
C3096 C 0.70827 0.8021 0.27942 0.0
C3097 C 0.73242 0.79971 0.26822 0.0
C3098 C 0.71801 0.80375 0.26709 0.0
C3099 C 0.78516 0.75951 0.27434 0.0
C3100 C 0.75303 0.79059 0.28319 0.0
C3101 C 0.75296 0.81982 0.21923 0.0
C3102 C 0.75065 0.80347 0.21127 0.0
C3103 C 0.79735 0.77761 0.24554 0.0
C3104 C 0.85751 0.79025 0.26089 0.0
C3105 C 0.86789 0.79244 0.24885 0.0
C3106 C 0.8836 0.79189 0.25182 0.0
C3107 C 0.88857 0.78873 0.26678 0.0
C3108 C 0.8629 0.78718 0.27567 0.0
C3109 C 0.87829 0.78633 0.27854 0.0
C3110 C 0.80902 0.82282 0.26688 0.0
C3111 C 0.84129 0.79182 0.25832 0.0
H3112 H 0.73106 0.78768 0.3047 0.0
H3113 H 0.69707 0.80519 0.27815 0.0
H3114 H 0.73964 0.80094 0.25844 0.0
H3115 H 0.71434 0.80812 0.25655 0.0
H3116 H 0.86388 0.79499 0.23744 0.0
H3117 H 0.90047 0.78805 0.26938 0.0
H3118 H 0.85528 0.78562 0.28509 0.0
H3119 H 0.8823 0.78394 0.29 0.0
Tb3120 Tb 0.80788 0.28003 0.75128 0.0
C3121 C 0.7727 0.32619 0.7909 0.0
C3122 C 0.79187 0.35111 0.801 0.0
C3123 C 0.76491 0.35232 0.79648 0.0
C3124 C 0.78788 0.33399 0.79543 0.0
C3125 C 0.76095 0.33516 0.79174 0.0
C3126 C 0.78036 0.36029 0.80112 0.0
C3127 C 0.74222 0.30941 0.78487 0.0
N3128 N 0.76937 0.3096 0.78668 0.0
C3129 C 0.75429 0.30107 0.78437 0.0
C3130 C 0.74556 0.32655 0.78835 0.0
Tb3131 Tb 0.78991 0.29697 0.78579 0.0
N3132 N 0.79859 0.32465 0.79523 0.0
C3133 C 0.81344 0.33164 0.80156 0.0
C3134 C 0.8072 0.35839 0.80675 0.0
C3135 C 0.81798 0.34858 0.8072 0.0
H3136 H 0.75158 0.28782 0.78163 0.0
H3137 H 0.82983 0.35404 0.81186 0.0
H3138 H 0.78323 0.37348 0.80519 0.0
H3139 H 0.73034 0.30261 0.78258 0.0
H3140 H 0.82201 0.32436 0.80199 0.0
H3141 H 0.76509 0.22579 0.72361 0.0
H3142 H 0.81075 0.37149 0.81119 0.0
H3143 H 0.84589 0.28662 0.75783 0.0
H3144 H 0.77423 0.2548 0.73597 0.0
H3145 H 0.86605 0.27033 0.75513 0.0
H3146 H 0.75608 0.35947 0.79705 0.0
H3147 H 0.78331 0.2072 0.72105 0.0
H3148 H 0.81053 0.20355 0.72465 0.0
H3149 H 0.73619 0.33298 0.78883 0.0
H3150 H 0.83787 0.21546 0.73386 0.0
N3151 N 0.79746 0.25282 0.74135 0.0
C3152 C 0.78238 0.24693 0.73523 0.0
C3153 C 0.7874 0.21995 0.72673 0.0
C3154 C 0.80294 0.22617 0.73233 0.0
C3155 C 0.7771 0.23041 0.72812 0.0
C3156 C 0.80764 0.24282 0.73979 0.0
H3157 H 0.85866 0.24031 0.74537 0.0
N3158 N 0.82722 0.26585 0.75086 0.0
C3159 C 0.85399 0.2643 0.75228 0.0
C3160 C 0.82303 0.24954 0.74478 0.0
C3161 C 0.84255 0.27348 0.75383 0.0
C3162 C 0.84977 0.24736 0.74681 0.0
C3163 C 0.83418 0.23983 0.7426 0.0
O3164 O 0.82359 0.29189 0.7369 0.0
O3165 O 0.80298 0.3014 0.76575 0.0
O3166 O 0.77718 0.30141 0.76474 0.0
O3167 O 0.78441 0.28349 0.74363 0.0
O3168 O 0.82443 0.30379 0.75771 0.0
O3169 O 0.80148 0.27546 0.72634 0.0
O3170 O 0.77679 0.28385 0.80124 0.0
O3171 O 0.79463 0.27567 0.77104 0.0
O3172 O 0.81969 0.27512 0.77265 0.0
O3173 O 0.81424 0.29559 0.79226 0.0
O3174 O 0.77327 0.27329 0.779 0.0
O3175 O 0.79835 0.30084 0.81012 0.0
C3176 C 0.8154 0.3116 0.76562 0.0
C3177 C 0.81853 0.28741 0.70805 0.0
C3178 C 0.824 0.30618 0.68936 0.0
C3179 C 0.81987 0.3031 0.70449 0.0
C3180 C 0.82734 0.29342 0.67803 0.0
C3181 C 0.82168 0.27471 0.69668 0.0
C3182 C 0.82621 0.27778 0.68173 0.0
C3183 C 0.77523 0.29329 0.74965 0.0
C3184 C 0.81461 0.28463 0.72396 0.0
C3185 C 0.82949 0.22313 0.73563 0.0
C3186 C 0.81394 0.21636 0.73035 0.0
C3187 C 0.78218 0.26547 0.77091 0.0
C3188 C 0.77934 0.29644 0.82843 0.0
C3189 C 0.77934 0.28757 0.84092 0.0
C3190 C 0.77192 0.2917 0.85481 0.0
C3191 C 0.76445 0.30489 0.85607 0.0
C3192 C 0.77206 0.30975 0.82988 0.0
C3193 C 0.76464 0.31394 0.84368 0.0
C3194 C 0.82257 0.28462 0.78711 0.0
C3195 C 0.78635 0.29086 0.81378 0.0
H3196 H 0.81753 0.31287 0.71347 0.0
H3197 H 0.83039 0.2954 0.66617 0.0
H3198 H 0.82084 0.26254 0.69946 0.0
H3199 H 0.8287 0.26799 0.67294 0.0
H3200 H 0.78481 0.27714 0.83965 0.0
H3201 H 0.75862 0.30828 0.86667 0.0
H3202 H 0.77197 0.31677 0.82038 0.0
H3203 H 0.75895 0.32417 0.84473 0.0
Tb3204 Tb 0.81201 0.81132 0.78182 0.0
C3205 C 0.7489 0.77603 0.76001 0.0
C3206 C 0.7354 0.75753 0.77609 0.0
C3207 C 0.72102 0.77252 0.76124 0.0
C3208 C 0.74924 0.76524 0.7704 0.0
C3209 C 0.73469 0.77963 0.75513 0.0
C3210 C 0.72134 0.76133 0.77155 0.0
C3211 C 0.74804 0.79542 0.73702 0.0
N3212 N 0.76228 0.78219 0.75389 0.0
C3213 C 0.76179 0.79149 0.74213 0.0
C3214 C 0.73446 0.78967 0.7437 0.0
Tb3215 Tb 0.78433 0.77407 0.76261 0.0
N3216 N 0.76289 0.76126 0.77387 0.0
C3217 C 0.76309 0.7486 0.7821 0.0
C3218 C 0.73595 0.74571 0.78565 0.0
C3219 C 0.74985 0.74108 0.7885 0.0
H3220 H 0.77178 0.79631 0.73644 0.0
H3221 H 0.75032 0.73147 0.79534 0.0
H3222 H 0.71064 0.75558 0.77585 0.0
H3223 H 0.74797 0.80296 0.7279 0.0
H3224 H 0.77359 0.74428 0.78379 0.0
H3225 H 0.83893 0.85973 0.75127 0.0
H3226 H 0.72561 0.73964 0.79035 0.0
H3227 H 0.82905 0.78849 0.80436 0.0
H3228 H 0.81786 0.84381 0.76383 0.0
H3229 H 0.85457 0.78431 0.81028 0.0
H3230 H 0.71007 0.77522 0.75769 0.0
H3231 H 0.86488 0.85336 0.75235 0.0
H3232 H 0.88278 0.83764 0.76308 0.0
H3233 H 0.72381 0.79269 0.73966 0.0
H3234 H 0.88716 0.81782 0.7799 0.0
N3235 N 0.83128 0.82748 0.77065 0.0
C3236 C 0.82905 0.84062 0.76398 0.0
C3237 C 0.85557 0.84611 0.75758 0.0
C3238 C 0.85819 0.83373 0.76569 0.0
C3239 C 0.84097 0.84976 0.75697 0.0
C3240 C 0.84566 0.82456 0.77224 0.0
H3241 H 0.87684 0.79845 0.79805 0.0
N3242 N 0.8357 0.80513 0.78802 0.0
C3243 C 0.8529 0.79243 0.80208 0.0
C3244 C 0.84802 0.81323 0.78147 0.0
C3245 C 0.83817 0.79507 0.7986 0.0
C3246 C 0.86541 0.80032 0.79504 0.0
C3247 C 0.86311 0.81086 0.7846 0.0
O3248 O 0.80709 0.8179 0.80588 0.0
O3249 O 0.78821 0.79857 0.77634 0.0
O3250 O 0.79309 0.78764 0.74386 0.0
O3251 O 0.80952 0.81248 0.75619 0.0
O3252 O 0.7933 0.82254 0.77432 0.0
O3253 O 0.81921 0.83595 0.79363 0.0
O3254 O 0.78551 0.76488 0.738 0.0
O3255 O 0.80825 0.78678 0.76792 0.0
O3256 O 0.80657 0.79579 0.7998 0.0
O3257 O 0.78689 0.77315 0.7883 0.0
O3258 O 0.80296 0.76262 0.76982 0.0
O3259 O 0.77836 0.74861 0.75431 0.0
C3260 C 0.78207 0.81007 0.77371 0.0
C3261 C 0.80149 0.84403 0.8116 0.0
C3262 C 0.78391 0.86124 0.80529 0.0
C3263 C 0.7951 0.85221 0.80077 0.0
C3264 C 0.77952 0.86244 0.82113 0.0
C3265 C 0.79694 0.8453 0.8273 0.0
C3266 C 0.78607 0.85456 0.83205 0.0
C3267 C 0.80202 0.80214 0.74342 0.0
C3268 C 0.81222 0.83344 0.80635 0.0
C3269 C 0.87552 0.81948 0.77763 0.0
C3270 C 0.87304 0.83079 0.76807 0.0
C3271 C 0.81421 0.77509 0.77042 0.0
C3272 C 0.79421 0.74006 0.73444 0.0
C3273 C 0.80045 0.73104 0.74458 0.0
C3274 C 0.81173 0.72231 0.73956 0.0
C3275 C 0.81676 0.72266 0.7241 0.0
C3276 C 0.7993 0.74015 0.71901 0.0
C3277 C 0.81053 0.7315 0.71391 0.0
C3278 C 0.79641 0.78217 0.80053 0.0
C3279 C 0.78281 0.74974 0.7401 0.0
H3280 H 0.79858 0.85122 0.78865 0.0
H3281 H 0.77117 0.86958 0.82515 0.0
H3282 H 0.80169 0.83903 0.83582 0.0
H3283 H 0.78262 0.85555 0.84421 0.0
H3284 H 0.79675 0.73104 0.75658 0.0
H3285 H 0.8253 0.71589 0.71977 0.0
H3286 H 0.79467 0.747 0.71098 0.0
H3287 H 0.8144 0.73163 0.70199 0.0
Tb3288 Tb 0.52869 0.52793 0.5117 0.0
C3289 C 0.57226 0.5875 0.55433 0.0
C3290 C 0.57756 0.60842 0.53801 0.0
C3291 C 0.57922 0.6163 0.5671 0.0
C3292 C 0.57292 0.59178 0.5394 0.0
C3293 C 0.57574 0.59966 0.56841 0.0
C3294 C 0.58021 0.62068 0.5519 0.0
C3295 C 0.57425 0.57806 0.5839 0.0
N3296 N 0.56951 0.57132 0.55504 0.0
C3297 C 0.5711 0.56649 0.56959 0.0
C3298 C 0.57636 0.59473 0.58333 0.0
Tb3299 Tb 0.5644 0.55306 0.53096 0.0
N3300 N 0.5706 0.57955 0.52633 0.0
C3301 C 0.57389 0.58323 0.51155 0.0
C3302 C 0.5803 0.61219 0.52283 0.0
C3303 C 0.57853 0.59953 0.50955 0.0
H3304 H 0.5695 0.55366 0.5703 0.0
H3305 H 0.58087 0.60229 0.49777 0.0
H3306 H 0.58358 0.63354 0.55104 0.0
H3307 H 0.57509 0.5741 0.59536 0.0
H3308 H 0.57278 0.57373 0.50108 0.0
H3309 H 0.51329 0.4779 0.54413 0.0
H3310 H 0.58436 0.62477 0.52136 0.0
H3311 H 0.52224 0.52789 0.47259 0.0
H3312 H 0.52069 0.50667 0.54117 0.0
H3313 H 0.51629 0.50781 0.44732 0.0
H3314 H 0.58179 0.62584 0.57776 0.0
H3315 H 0.51006 0.45575 0.52026 0.0
H3316 H 0.51035 0.44751 0.49044 0.0
H3317 H 0.57897 0.60368 0.59442 0.0
H3318 H 0.51131 0.4557 0.4639 0.0
N3319 N 0.52275 0.50127 0.51589 0.0
C3320 C 0.51965 0.4973 0.5306 0.0
C3321 C 0.51378 0.46843 0.51895 0.0
C3322 C 0.51614 0.47249 0.50382 0.0
C3323 C 0.51541 0.48089 0.53239 0.0
C3324 C 0.52043 0.48922 0.50266 0.0
H3325 H 0.51312 0.47818 0.44769 0.0
N3326 N 0.52315 0.51 0.48742 0.0
C3327 C 0.51759 0.50367 0.45863 0.0
C3328 C 0.5207 0.49377 0.48784 0.0
C3329 C 0.52098 0.51505 0.47307 0.0
C3330 C 0.51589 0.48698 0.45887 0.0
C3331 C 0.51708 0.4818 0.47363 0.0
O3332 O 0.50983 0.53555 0.50167 0.0
O3333 O 0.54228 0.55284 0.51935 0.0
O3334 O 0.54648 0.5582 0.5475 0.0
O3335 O 0.52727 0.53467 0.53841 0.0
O3336 O 0.53021 0.54719 0.49727 0.0
O3337 O 0.50785 0.52435 0.52269 0.0
O3338 O 0.58349 0.5467 0.54205 0.0
O3339 O 0.55086 0.52813 0.52337 0.0
O3340 O 0.54629 0.52308 0.49464 0.0
O3341 O 0.566 0.54609 0.5043 0.0
O3342 O 0.56294 0.53387 0.54545 0.0
O3343 O 0.58505 0.55557 0.51966 0.0
C3344 C 0.53915 0.55886 0.50717 0.0
C3345 C 0.48516 0.52106 0.50566 0.0
C3346 C 0.45806 0.52146 0.50039 0.0
C3347 C 0.47328 0.52961 0.50602 0.0
C3348 C 0.45485 0.5045 0.49435 0.0
C3349 C 0.4819 0.50415 0.49949 0.0
C3350 C 0.46677 0.49592 0.49384 0.0
C3351 C 0.5336 0.54778 0.54969 0.0
C3352 C 0.5007 0.53024 0.51205 0.0
C3353 C 0.51397 0.46509 0.47467 0.0
C3354 C 0.51344 0.46043 0.48977 0.0
C3355 C 0.55405 0.52214 0.53557 0.0
C3356 C 0.60794 0.56077 0.53675 0.0
C3357 C 0.62011 0.55264 0.5368 0.0
C3358 C 0.63534 0.56145 0.54126 0.0
C3359 C 0.6383 0.57861 0.54584 0.0
C3360 C 0.61094 0.57789 0.54147 0.0
C3361 C 0.62609 0.58676 0.54604 0.0
C3362 C 0.55942 0.53332 0.49275 0.0
C3363 C 0.59243 0.55096 0.5311 0.0
H3364 H 0.47586 0.54264 0.51104 0.0
H3365 H 0.44319 0.49793 0.48992 0.0
H3366 H 0.49096 0.49734 0.49916 0.0
H3367 H 0.46426 0.48287 0.48911 0.0
H3368 H 0.61775 0.53942 0.53287 0.0
H3369 H 0.64999 0.58566 0.54928 0.0
H3370 H 0.60169 0.5844 0.54144 0.0
H3371 H 0.62839 0.59999 0.54961 0.0
Tb3372 Tb 0.06765 0.54629 0.01401 0.0
C3373 C 0.01056 0.51093 0.04233 0.0
C3374 C 0.99882 0.48738 0.02193 0.0
C3375 C 0.99598 0.4863 0.05017 0.0
C3376 C 0.00788 0.50347 0.02639 0.0
C3377 C 0.00441 0.5026 0.05443 0.0
C3378 C 0.99317 0.4787 0.03393 0.0
C3379 C 0.01424 0.52754 0.07378 0.0
N3380 N 0.01855 0.52674 0.04586 0.0
C3381 C 0.02 0.53531 0.06132 0.0
C3382 C 0.00655 0.51105 0.07036 0.0
Tb3383 Tb 0.02795 0.53833 0.02468 0.0
N3384 N 0.01338 0.51237 0.01521 0.0
C3385 C 0.00934 0.50618 0.9992 0.0
C3386 C 0.99529 0.48073 0.00556 0.0
C3387 C 1.00045 0.49024 0.99415 0.0
H3388 H 0.02596 0.54803 0.0642 0.0
H3389 H 0.99759 0.48531 0.98145 0.0
H3390 H 0.98631 0.46627 0.03075 0.0
H3391 H 0.01574 0.53428 0.08603 0.0
H3392 H 0.01324 0.51328 0.99018 0.0
H3393 H 0.09699 0.59942 0.05771 0.0
H3394 H 0.9883 0.46844 1.00164 0.0
H3395 H 0.07068 0.53671 0.97475 0.0
H3396 H 0.08221 0.57108 0.04871 0.0
H3397 H 0.08098 0.55074 0.95307 0.0
H3398 H 0.99125 0.47962 0.05929 0.0
H3399 H 0.10561 0.61682 0.03774 0.0
H3400 H 0.10787 0.61918 0.00865 0.0
H3401 H 1.00203 0.50509 0.08002 0.0
H3402 H 0.10361 0.60586 0.98007 0.0
N3403 N 0.08193 0.57232 0.02374 0.0
C3404 C 0.08589 0.5784 0.03978 0.0
C3405 C 0.09909 0.60434 0.03368 0.0
C3406 C 0.09587 0.59771 0.01727 0.0
C3407 C 0.09429 0.59454 0.04498 0.0
C3408 C 0.08727 0.58144 0.01267 0.0
H3409 H 0.09382 0.58021 0.95922 0.0
N3410 N 0.07726 0.5581 0.99307 0.0
C3411 C 0.0821 0.55747 0.96529 0.0
C3412 C 0.08487 0.57404 0.99671 0.0
C3413 C 0.0763 0.54954 0.97765 0.0
C3414 C 0.0893 0.57411 0.9688 0.0
C3415 C 0.09098 0.58256 0.98472 0.0
O3416 O 0.08096 0.52948 0.00483 0.0
O3417 O 0.04683 0.52831 0.01534 0.0
O3418 O 0.04141 0.52786 0.04071 0.0
O3419 O 0.06582 0.54409 0.03948 0.0
O3420 O 0.05923 0.52352 0.99628 0.0
O3421 O 0.08706 0.54442 0.02837 0.0
O3422 O 0.0148 0.55527 0.03395 0.0
O3423 O 0.04872 0.5564 0.02319 0.0
O3424 O 0.05412 0.55615 0.99744 0.0
O3425 O 0.02964 0.5402 0.99913 0.0
O3426 O 0.0366 0.56086 0.04255 0.0
O3427 O 0.00851 0.54029 0.01044 0.0
C3428 C 0.04723 0.51768 1.00306 0.0
C3429 C 0.10736 0.53635 0.01418 0.0
C3430 C 0.13199 0.52751 0.01419 0.0
C3431 C 0.11634 0.52524 0.01761 0.0
C3432 C 0.13834 0.54106 0.00716 0.0
C3433 C 0.11407 0.54982 0.0074 0.0
C3434 C 0.12946 0.55212 0.00388 0.0
C3435 C 0.056 0.53387 0.04639 0.0
C3436 C 0.09094 0.53357 0.01741 0.0
C3437 C 0.09895 0.59903 0.98911 0.0
C3438 C 0.10137 0.60661 0.00537 0.0
C3439 C 0.04845 0.56686 0.03566 0.0
C3440 C 0.98835 0.54832 0.02491 0.0
C3441 C 0.97973 0.56025 0.02323 0.0
C3442 C 0.96428 0.55802 0.0272 0.0
C3443 C 0.95758 0.5436 0.03269 0.0
C3444 C 0.98136 0.53403 0.03031 0.0
C3445 C 0.96607 0.5317 0.03416 0.0
C3446 C 0.03957 0.54985 0.99176 0.0
C3447 C 0.00471 0.55114 0.02147 0.0
H3448 H 0.11116 0.51495 0.02305 0.0
H3449 H 0.15016 0.54304 0.00396 0.0
H3450 H 0.10743 0.55851 0.00473 0.0
H3451 H 0.13452 0.56248 0.9985 0.0
H3452 H 0.98513 0.57137 0.01915 0.0
H3453 H 0.94568 0.54144 0.03566 0.0
H3454 H 0.98771 0.5247 0.03158 0.0
H3455 H 0.96077 0.52063 0.03833 0.0
H3456 H 0.02399 0.18018 0.94076 0.0
H3457 H 0.02679 0.15612 0.95212 0.0
H3458 H 0.02713 0.18358 0.99995 0.0
H3459 H 0.0239 0.20757 0.9887 0.0
H3460 H 0.05048 0.15249 0.9731 0.0
H3461 H 0.99496 0.14187 1.00116 0.0
H3462 H 0.99874 0.15519 0.9866 0.0
H3463 H 0.00669 0.16223 0.00715 0.0
C3464 C 0.0244 0.18109 0.95369 0.0
C3465 C 0.0236 0.19594 0.96373 0.0
C3466 C 0.02613 0.16729 0.9602 0.0
C3467 C 0.02696 0.16783 0.97693 0.0
C3468 C 0.02623 0.18264 0.98701 0.0
H3469 H 0.03486 0.09385 0.03684 0.0
H3470 H 0.03369 0.1194 0.02711 0.0
C3471 C 0.02455 0.19647 0.98052 0.0
C3472 C 0.02906 0.15309 0.98377 0.0
H3473 H 0.01256 0.1256 0.00673 0.0
C3474 C 0.04214 0.14657 0.98039 0.0
C3475 C 0.01832 0.14539 0.99348 0.0
C3476 C 1.00381 0.15141 0.99723 0.0
C3477 C 0.04484 0.13281 0.98651 0.0
C3478 C 0.03396 0.12489 0.996 0.0
C3479 C 0.02095 0.13152 0.99949 0.0
C3480 C 0.03567 0.1096 1.00212 0.0
C3481 C 0.05966 0.1273 0.98328 0.0
C3482 C 0.0371 0.09539 0.99144 0.0
C3483 C 0.03797 0.08089 0.99706 0.0
C3484 C 0.03741 0.08016 0.0135 0.0
C3485 C 0.0357 0.0942 0.02417 0.0
C3486 C 0.03496 0.10877 0.01857 0.0
H3487 H 0.06843 0.137 0.97947 0.0
H3488 H 0.0646 0.12398 0.99421 0.0
H3489 H 0.05734 0.11636 0.97349 0.0
H3490 H 0.03709 0.09534 0.97865 0.0
H3491 H 0.03876 0.07008 0.98848 0.0
H3492 H 0.15462 0.83507 0.18701 0.0
H3493 H 0.17809 0.83209 0.20159 0.0
H3494 H 0.17737 0.78698 0.16891 0.0
H3495 H 0.15373 0.78955 0.15453 0.0
H3496 H 0.1831 0.80568 0.21701 0.0
H3497 H 0.22176 0.81381 0.16805 0.0
H3498 H 0.20332 0.81969 0.16808 0.0
H3499 H 0.20416 0.79849 0.16241 0.0
C3500 C 0.15931 0.82441 0.18294 0.0
C3501 C 0.15213 0.81263 0.16939 0.0
C3502 C 0.17286 0.82279 0.19128 0.0
C3503 C 0.17973 0.80944 0.18625 0.0
C3504 C 0.17256 0.7976 0.17287 0.0
H3505 H 0.26253 0.77842 0.21913 0.0
H3506 H 0.23938 0.78182 0.20426 0.0
C3507 C 0.15898 0.79914 0.16458 0.0
C3508 C 0.19417 0.8077 0.19518 0.0
H3509 H 0.23201 0.80579 0.19104 0.0
C3510 C 0.19381 0.80579 0.21135 0.0
C3511 C 0.20818 0.80769 0.18783 0.0
C3512 C 0.20951 0.81016 0.17068 0.0
C3513 C 0.20687 0.80357 0.22021 0.0
C3514 C 0.22098 0.80374 0.21292 0.0
C3515 C 0.22131 0.80565 0.19673 0.0
C3516 C 0.23545 0.80197 0.22186 0.0
C3517 C 0.20521 0.80051 0.23716 0.0
C3518 C 0.24141 0.81241 0.23657 0.0
C3519 C 0.25458 0.81036 0.24519 0.0
C3520 C 0.26238 0.79797 0.2393 0.0
C3521 C 0.25682 0.78801 0.22421 0.0
C3522 C 0.24353 0.78995 0.21564 0.0
H3523 H 0.19296 0.79559 0.23906 0.0
H3524 H 0.21218 0.79173 0.24004 0.0
H3525 H 0.20925 0.81228 0.24576 0.0
H3526 H 0.23589 0.82221 0.24144 0.0
H3527 H 0.25868 0.81862 0.25646 0.0
H3528 H 0.51127 0.86239 0.45078 0.0
H3529 H 0.51367 0.89158 0.46105 0.0
H3530 H 0.54536 0.8892 0.50036 0.0
H3531 H 0.54281 0.85977 0.49036 0.0
H3532 H 0.50793 0.90861 0.49167 0.0
H3533 H 0.5694 0.92586 0.47862 0.0
H3534 H 0.55716 0.9061 0.47017 0.0
H3535 H 0.56493 0.91035 0.49081 0.0
C3536 C 0.51857 0.86792 0.46177 0.0
C3537 C 0.52683 0.85857 0.46971 0.0
C3538 C 0.51999 0.8847 0.46759 0.0
C3539 C 0.5298 0.89266 0.4814 0.0
C3540 C 0.53789 0.88339 0.48954 0.0
H3541 H 0.54014 0.99713 0.52684 0.0
H3542 H 0.53512 0.96698 0.52318 0.0
C3543 C 0.53644 0.86655 0.48376 0.0
C3544 C 0.53179 0.91073 0.48687 0.0
H3545 H 0.55783 0.94728 0.48991 0.0
C3546 C 0.51889 0.91706 0.4915 0.0
C3547 C 0.54605 0.92178 0.48647 0.0
C3548 C 0.56019 0.91578 0.48115 0.0
C3549 C 0.51985 0.9341 0.49554 0.0
C3550 C 0.53403 0.94511 0.49487 0.0
C3551 C 0.54698 0.9388 0.49052 0.0
C3552 C 0.53541 0.96321 0.49727 0.0
C3553 C 0.50555 0.94031 0.4997 0.0
C3554 C 0.537 0.97107 0.48395 0.0
C3555 C 0.53968 0.98818 0.48599 0.0
C3556 C 0.54082 0.99786 0.50141 0.0
C3557 C 0.53895 0.99 0.51478 0.0
C3558 C 0.53617 0.97278 0.51271 0.0
H3559 H 0.4954 0.93018 0.49986 0.0
H3560 H 0.50768 0.94848 0.51168 0.0
H3561 H 0.50279 0.94765 0.4907 0.0
H3562 H 0.53651 0.96395 0.47194 0.0
H3563 H 0.54124 0.9939 0.4755 0.0
H3564 H 0.48687 0.28812 0.64753 0.0
H3565 H 0.46311 0.28622 0.66125 0.0
H3566 H 0.48849 0.31825 0.70341 0.0
H3567 H 0.51234 0.32001 0.68995 0.0
H3568 H 0.45563 0.27487 0.68934 0.0
H3569 H 0.4527 0.34029 0.69599 0.0
H3570 H 0.46524 0.33131 0.68273 0.0
H3571 H 0.47087 0.33746 0.70397 0.0
C3572 C 0.4875 0.29468 0.65977 0.0
C3573 C 0.50169 0.30428 0.66753 0.0
C3574 C 0.47381 0.29366 0.66758 0.0
C3575 C 0.47386 0.30231 0.6833 0.0
C3576 C 0.48799 0.31177 0.69115 0.0
H3577 H 0.41343 0.3095 0.75914 0.0
H3578 H 0.43389 0.31209 0.74083 0.0
C3579 C 0.50169 0.31277 0.68338 0.0
C3580 C 0.45929 0.30112 0.6917 0.0
H3581 H 0.43624 0.32423 0.71161 0.0
C3582 C 0.45129 0.28565 0.69403 0.0
C3583 C 0.4535 0.31513 0.69779 0.0
C3584 C 0.46092 0.33197 0.69487 0.0
C3585 C 0.43814 0.28392 0.70285 0.0
C3586 C 0.43265 0.298 0.70937 0.0
C3587 C 0.44042 0.31341 0.70667 0.0
C3588 C 0.41961 0.29715 0.72 0.0
C3589 C 0.43061 0.26709 0.70571 0.0
C3590 C 0.40452 0.28828 0.71436 0.0
C3591 C 0.39269 0.28683 0.72487 0.0
C3592 C 0.39575 0.29414 0.74126 0.0
C3593 C 0.41071 0.30353 0.74666 0.0
C3594 C 0.42243 0.30507 0.73617 0.0
H3595 H 0.43792 0.25803 0.70252 0.0
H3596 H 0.42819 0.26756 0.71851 0.0
H3597 H 0.41944 0.26267 0.69821 0.0
H3598 H 0.40195 0.28227 0.70187 0.0
H3599 H 0.38133 0.27949 0.72032 0.0
H3600 H 0.03914 0.83384 0.59594 0.0
H3601 H 0.04372 0.85482 0.57908 0.0
H3602 H 1.00359 0.87196 0.59536 0.0
H3603 H 0.99868 0.85054 0.61183 0.0
H3604 H 0.00417 0.87036 0.56404 0.0
H3605 H 0.06202 0.90268 0.59302 0.0
H3606 H 0.06138 0.8814 0.58568 0.0
H3607 H 0.04959 0.88718 0.60148 0.0
C3608 C 0.03139 0.84219 0.596 0.0
C3609 C 0.01864 0.84069 0.60526 0.0
C3610 C 0.03404 0.85422 0.58643 0.0
C3611 C 0.02422 0.86524 0.58623 0.0
C3612 C 0.01138 0.86366 0.59539 0.0
H3613 H 0.05012 0.95398 0.54642 0.0
H3614 H 0.04374 0.93398 0.56388 0.0
C3615 C 0.00858 0.85145 0.60478 0.0
C3616 C 0.02712 0.8781 0.57614 0.0
H3617 H 0.05503 0.90894 0.56752 0.0
C3618 C 0.01525 0.87889 0.56489 0.0
C3619 C 0.04147 0.88946 0.57745 0.0
C3620 C 0.05427 0.89027 0.59019 0.0
C3621 C 0.01745 0.89046 0.55467 0.0
C3622 C 0.03212 0.90115 0.55531 0.0
C3623 C 0.04386 0.90059 0.56681 0.0
C3624 C 0.0355 0.91327 0.54446 0.0
C3625 C 0.00392 0.89132 0.54357 0.0
C3626 C 0.03315 0.90833 0.52766 0.0
C3627 C 0.0364 0.91987 0.51757 0.0
C3628 C 0.04237 0.93657 0.52408 0.0
C3629 C 0.04513 0.94135 0.54092 0.0
C3630 C 0.04164 0.92987 0.55097 0.0
H3631 H 0.99273 0.88628 0.54811 0.0
H3632 H 0.00413 0.90414 0.5421 0.0
H3633 H 0.00442 0.88385 0.53157 0.0
H3634 H 0.02885 0.89553 0.5223 0.0
H3635 H 0.03406 0.91571 0.50469 0.0
H3636 H 0.49627 0.79126 0.85261 0.0
H3637 H 0.47186 0.79287 0.83874 0.0
H3638 H 0.49559 0.83438 0.81969 0.0
H3639 H 0.52001 0.83268 0.83324 0.0
H3640 H 0.45807 0.82059 0.84352 0.0
H3641 H 0.47018 0.80353 0.77991 0.0
H3642 H 0.48114 0.79906 0.79652 0.0
H3643 H 0.48504 0.81934 0.79181 0.0
C3644 C 0.49631 0.80055 0.84525 0.0
C3645 C 0.51004 0.81186 0.84402 0.0
C3646 C 0.48237 0.8015 0.83741 0.0
C3647 C 0.48199 0.81363 0.82807 0.0
C3648 C 0.4957 0.82477 0.82665 0.0
H3649 H 0.40724 0.85669 0.8002 0.0
H3650 H 0.43107 0.85079 0.8113 0.0
C3651 C 0.5096 0.82389 0.83453 0.0
C3652 C 0.46715 0.81532 0.82054 0.0
H3653 H 0.44845 0.81576 0.78445 0.0
C3654 C 0.45589 0.8194 0.8306 0.0
C3655 C 0.46432 0.8136 0.80369 0.0
C3656 C 0.47574 0.80849 0.79231 0.0
C3657 C 0.44205 0.82235 0.82425 0.0
C3658 C 0.43953 0.82136 0.80745 0.0
C3659 C 0.45055 0.81672 0.79735 0.0
C3660 C 0.42549 0.82509 0.80017 0.0
C3661 C 0.43022 0.82648 0.83555 0.0
C3662 C 0.41475 0.8127 0.78988 0.0
C3663 C 0.40119 0.81604 0.78348 0.0
C3664 C 0.39822 0.83189 0.78716 0.0
C3665 C 0.40926 0.8444 0.79708 0.0
C3666 C 0.42278 0.84102 0.80355 0.0
H3667 H 0.43226 0.82303 0.84744 0.0
H3668 H 0.43087 0.83991 0.83753 0.0
H3669 H 0.41835 0.82015 0.83032 0.0
H3670 H 0.41672 0.80036 0.78705 0.0
H3671 H 0.39299 0.80621 0.7757 0.0
H3672 H 0.49862 0.19492 0.07842 0.0
H3673 H 0.49877 0.16647 0.06707 0.0
H3674 H 0.47423 0.15032 0.10623 0.0
H3675 H 0.47426 0.17891 0.1178 0.0
H3676 H 0.50177 0.14057 0.10331 0.0
H3677 H 0.46827 0.12541 0.04402 0.0
H3678 H 0.48146 0.14496 0.04647 0.0
H3679 H 0.46604 0.14213 0.05949 0.0
C3680 C 0.4929 0.18526 0.08437 0.0
C3681 C 0.4865 0.18909 0.099 0.0
C3682 C 0.49285 0.169 0.07781 0.0
C3683 C 0.48637 0.15627 0.08573 0.0
C3684 C 0.47916 0.15996 0.09986 0.0
H3685 H 0.51722 0.06236 0.06259 0.0
H3686 H 0.50247 0.08178 0.07571 0.0
C3687 C 0.47912 0.17627 0.1064 0.0
C3688 C 0.48941 0.13973 0.08052 0.0
H3689 H 0.48937 0.11135 0.04674 0.0
C3690 C 0.4987 0.13386 0.09108 0.0
C3691 C 0.48531 0.131 0.06461 0.0
C3692 C 0.47458 0.13612 0.05307 0.0
C3693 C 0.50524 0.12039 0.08568 0.0
C3694 C 0.50218 0.11254 0.06938 0.0
C3695 C 0.49184 0.11755 0.0592 0.0
C3696 C 0.51112 0.10069 0.06208 0.0
C3697 C 0.51627 0.11547 0.09709 0.0
C3698 C 0.52084 0.10495 0.05019 0.0
C3699 C 0.52915 0.09396 0.04276 0.0
C3700 C 0.5279 0.07854 0.0471 0.0
C3701 C 0.51851 0.07436 0.05929 0.0
C3702 C 0.51006 0.08536 0.06669 0.0
H3703 H 0.51902 0.12429 0.1087 0.0
H3704 H 0.511 0.10321 0.09968 0.0
H3705 H 0.52722 0.11458 0.09156 0.0
H3706 H 0.52193 0.11678 0.04658 0.0
H3707 H 0.53652 0.09748 0.03357 0.0
H3708 H 0.16716 0.30749 0.35717 0.0
H3709 H 0.19004 0.30874 0.34229 0.0
H3710 H 0.16554 0.32095 0.30236 0.0
H3711 H 0.14226 0.319 0.31695 0.0
H3712 H 0.17973 0.29633 0.29291 0.0
H3713 H 0.22133 0.34675 0.33231 0.0
H3714 H 0.21242 0.33188 0.34368 0.0
H3715 H 0.20076 0.34326 0.33412 0.0
C3716 C 0.16659 0.31039 0.3452 0.0
C3717 C 0.15286 0.31301 0.33818 0.0
C3718 C 0.17978 0.31141 0.33684 0.0
C3719 C 0.17958 0.3153 0.32138 0.0
C3720 C 0.16596 0.31815 0.31438 0.0
H3721 H 0.26219 0.31486 0.26782 0.0
H3722 H 0.23698 0.32057 0.2747 0.0
C3723 C 0.15271 0.31706 0.32273 0.0
C3724 C 0.19314 0.31466 0.31206 0.0
H3725 H 0.23247 0.32659 0.31541 0.0
C3726 C 0.19123 0.30323 0.29762 0.0
C3727 C 0.2081 0.32385 0.3181 0.0
C3728 C 0.21074 0.33725 0.33282 0.0
C3729 C 0.20403 0.29984 0.28977 0.0
C3730 C 0.21901 0.30793 0.29661 0.0
C3731 C 0.22091 0.32019 0.31039 0.0
C3732 C 0.23288 0.3029 0.29053 0.0
C3733 C 0.2016 0.28715 0.27461 0.0
C3734 C 0.23865 0.29094 0.29704 0.0
C3735 C 0.25297 0.28773 0.29319 0.0
C3736 C 0.26144 0.29616 0.28249 0.0
C3737 C 0.2555 0.30785 0.27569 0.0
C3738 C 0.24122 0.31116 0.27963 0.0
H3739 H 0.18921 0.28286 0.27009 0.0
H3740 H 0.20812 0.29237 0.26514 0.0
H3741 H 0.20615 0.27647 0.27702 0.0
H3742 H 0.23238 0.28462 0.30563 0.0
H3743 H 0.25765 0.27905 0.29892 0.0
H3744 H 0.94952 0.04765 0.17629 0.0
H3745 H 0.9616 0.04476 0.15088 0.0
H3746 H 1.0038 0.07644 0.1745 0.0
H3747 H 0.99205 0.07885 0.20005 0.0
H3748 H 0.97249 0.06362 0.13084 0.0
H3749 H 0.02298 0.04188 0.15204 0.0
H3750 H 0.00713 0.04376 0.16423 0.0
H3751 H 0.02215 0.06149 0.16349 0.0
C3752 C 0.96147 0.05385 0.17632 0.0
C3753 C 0.9696 0.06342 0.19081 0.0
C3754 C 0.96844 0.05227 0.1615 0.0
C3755 C 0.98396 0.06002 0.1603 0.0
C3756 C 0.99203 0.0698 0.17468 0.0
H3757 H 0.04304 0.07028 0.07798 0.0
H3758 H 0.03172 0.07331 0.10397 0.0
C3759 C 0.98508 0.0714 0.18951 0.0
C3760 C 0.99146 0.05814 0.14414 0.0
H3761 H 0.02381 0.0496 0.12625 0.0
C3762 C 0.98367 0.06044 0.12998 0.0
C3763 C 0.00616 0.05394 0.14238 0.0
C3764 C 0.01502 0.04995 0.15629 0.0
C3765 C 0.99006 0.05902 0.11475 0.0
C3766 C 0.00479 0.05504 0.11309 0.0
C3767 C 0.01261 0.05276 0.12718 0.0
C3768 C 0.01205 0.05298 0.09689 0.0
C3769 C 0.98105 0.06218 0.10049 0.0
C3770 C 0.00522 0.0404 0.08379 0.0
C3771 C 0.01197 0.03838 0.06888 0.0
C3772 C 0.02579 0.049 0.06616 0.0
C3773 C 0.03259 0.06163 0.0793 0.0
C3774 C 0.02599 0.06346 0.09434 0.0
H3775 H 0.97162 0.06845 0.10417 0.0
H3776 H 0.98879 0.0698 0.09343 0.0
H3777 H 0.97582 0.0503 0.09248 0.0
H3778 H 0.99466 0.03186 0.08514 0.0
H3779 H 0.00634 0.02828 0.0595 0.0
H3780 H 0.26076 0.68088 0.43839 0.0
H3781 H 0.25709 0.69904 0.41949 0.0
H3782 H 0.29903 0.73321 0.44076 0.0
H3783 H 0.30273 0.71523 0.45975 0.0
H3784 H 0.26875 0.74545 0.43709 0.0
H3785 H 0.28633 0.7103 0.38178 0.0
H3786 H 0.27366 0.69936 0.39423 0.0
H3787 H 0.29331 0.70858 0.4017 0.0
C3788 C 0.26922 0.69224 0.43897 0.0
C3789 C 0.28204 0.69667 0.4505 0.0
C3790 C 0.26713 0.70253 0.42817 0.0
C3791 C 0.2778 0.71738 0.42882 0.0
C3792 C 0.29071 0.72174 0.44013 0.0
H3793 H 0.29931 0.78845 0.36954 0.0
H3794 H 0.29812 0.7688 0.38773 0.0
C3795 C 0.29287 0.71142 0.45085 0.0
C3796 C 0.27538 0.72868 0.418 0.0
H3797 H 0.27946 0.7353 0.37969 0.0
C3798 C 0.27092 0.74322 0.42449 0.0
C3799 C 0.27826 0.72559 0.40165 0.0
C3800 C 0.28321 0.71016 0.39432 0.0
C3801 C 0.26963 0.75504 0.41505 0.0
C3802 C 0.27286 0.75213 0.39877 0.0
C3803 C 0.27695 0.7374 0.3922 0.0
C3804 C 0.27334 0.76476 0.38867 0.0
C3805 C 0.2654 0.77081 0.42262 0.0
C3806 C 0.25978 0.76915 0.38345 0.0
C3807 C 0.26043 0.7804 0.37302 0.0
C3808 C 0.27462 0.78726 0.36765 0.0
C3809 C 0.2882 0.78319 0.37335 0.0
C3810 C 0.28754 0.772 0.38372 0.0
H3811 H 0.26528 0.77206 0.4359 0.0
H3812 H 0.27367 0.78154 0.41986 0.0
H3813 H 0.25372 0.77111 0.41752 0.0
H3814 H 0.2487 0.76354 0.38707 0.0
H3815 H 0.24979 0.78321 0.36866 0.0
H3816 H 0.62228 0.04749 0.68907 0.0
H3817 H 0.60297 0.0466 0.66709 0.0
H3818 H 0.61775 0.00588 0.63915 0.0
H3819 H 0.63708 0.00671 0.66099 0.0
H3820 H 0.60962 0.05166 0.63735 0.0
H3821 H 0.57091 0.99059 0.63297 0.0
H3822 H 0.58415 1.00034 0.65045 0.0
H3823 H 0.59086 0.98939 0.63302 0.0
C3824 C 0.62136 0.03831 0.67825 0.0
C3825 C 0.63121 0.0272 0.6767 0.0
C3826 C 0.61024 0.03773 0.6658 0.0
C3827 C 0.60876 0.02598 0.65165 0.0
C3828 C 0.61841 0.01472 0.65017 0.0
H3829 H 0.58616 0.03526 0.55624 0.0
H3830 H 0.59721 0.03269 0.58222 0.0
C3831 C 0.6295 0.01528 0.66262 0.0
C3832 C 0.59839 0.02662 0.63772 0.0
H3833 H 0.57072 1.00286 0.60918 0.0
C3834 C 0.60092 0.04108 0.63135 0.0
C3835 C 0.58689 0.01291 0.63008 0.0
C3836 C 0.58291 0.99749 0.63709 0.0
C3837 C 0.59285 0.04192 0.61702 0.0
C3838 C 0.58228 0.02775 0.60864 0.0
C3839 C 0.57905 0.01359 0.61549 0.0
C3840 C 0.57522 0.02727 0.59236 0.0
C3841 C 0.59591 0.05793 0.6109 0.0
C3842 C 0.55912 0.02381 0.58906 0.0
C3843 C 0.55269 0.02484 0.57395 0.0
C3844 C 0.56229 0.02968 0.56212 0.0
C3845 C 0.57838 0.03205 0.56521 0.0
C3846 C 0.58476 0.03067 0.58011 0.0
H3847 H 0.60001 0.06856 0.62091 0.0
H3848 H 0.60512 0.0579 0.60249 0.0
H3849 H 0.5854 0.05974 0.60442 0.0
H3850 H 0.55156 0.0208 0.59828 0.0
H3851 H 0.54029 0.02231 0.57176 0.0
H3852 H 0.32066 0.35494 0.94564 0.0
H3853 H 0.32119 0.3425 0.91751 0.0
H3854 H 0.27648 0.31109 0.91864 0.0
H3855 H 0.27586 0.3235 0.9469 0.0
H3856 H 0.31873 0.31001 0.90096 0.0
H3857 H 0.26964 0.33661 0.88285 0.0
H3858 H 0.27986 0.34278 0.90262 0.0
H3859 H 0.26596 0.3236 0.89756 0.0
C3860 C 0.31104 0.34518 0.94003 0.0
C3861 C 0.29816 0.34031 0.94852 0.0
C3862 C 0.31136 0.3381 0.92392 0.0
C3863 C 0.2988 0.32601 0.91592 0.0
C3864 C 0.28619 0.3206 0.92451 0.0
H3865 H 0.29678 0.28052 0.81315 0.0
H3866 H 0.29797 0.28318 0.84265 0.0
C3867 C 0.28583 0.32774 0.94064 0.0
C3868 C 0.29855 0.32006 0.89833 0.0
H3869 H 0.28055 0.3217 0.86226 0.0
C3870 C 0.31028 0.31235 0.89246 0.0
C3871 C 0.2876 0.32331 0.8873 0.0
C3872 C 0.27511 0.33213 0.89282 0.0
C3873 C 0.31154 0.30816 0.87583 0.0
C3874 C 0.30078 0.31175 0.86485 0.0
C3875 C 0.28878 0.31895 0.87073 0.0
C3876 C 0.30244 0.30975 0.8473 0.0
C3877 C 0.32483 0.30083 0.8701 0.0
C3878 C 0.30478 0.32375 0.84017 0.0
C3879 C 0.30397 0.32224 0.82349 0.0
C3880 C 0.30106 0.30672 0.81355 0.0
C3881 C 0.2994 0.29265 0.8206 0.0
C3882 C 0.30007 0.29416 0.83742 0.0
H3883 H 0.3328 0.29979 0.88022 0.0
H3884 H 0.32037 0.28841 0.86274 0.0
H3885 H 0.33145 0.30856 0.86235 0.0
H3886 H 0.30659 0.33588 0.84755 0.0
H3887 H 0.30513 0.33324 0.8183 0.0
H3888 H 0.99416 0.0599 0.34887 0.0
H3889 H 0.00585 0.05576 0.37428 0.0
H3890 H 0.96591 0.06513 0.39787 0.0
H3891 H 0.95399 0.06891 0.3725 0.0
H3892 H 0.01516 0.07496 0.40427 0.0
H3893 H 0.96899 0.02308 0.41266 0.0
H3894 H 0.97018 0.03057 0.39394 0.0
H3895 H 0.96195 0.04106 0.41054 0.0
C3896 C 0.98765 0.06094 0.35933 0.0
C3897 C 0.97282 0.06472 0.35807 0.0
C3898 C 0.99452 0.05865 0.37411 0.0
C3899 C 0.98689 0.05977 0.38842 0.0
C3900 C 0.97219 0.06374 0.38725 0.0
H3901 H 1.00274 0.04809 0.48923 0.0
H3902 H 0.9934 0.0508 0.4625 0.0
C3903 C 0.96536 0.06615 0.37252 0.0
C3904 C 0.99423 0.05692 0.40436 0.0
H3905 H 0.98765 0.03455 0.43478 0.0
C3906 C 0.0091 0.06603 0.41084 0.0
C3907 C 0.98669 0.0453 0.41337 0.0
C3908 C 0.97114 0.03431 0.40724 0.0
C3909 C 0.01615 0.06439 0.4259 0.0
C3910 C 0.00855 0.05282 0.435 0.0
C3911 C 0.99379 0.04351 0.4283 0.0
C3912 C 0.015 0.05075 0.45173 0.0
C3913 C 0.03149 0.07573 0.43216 0.0
C3914 C 0.03049 0.04946 0.45543 0.0
C3915 C 0.03604 0.04807 0.4712 0.0
C3916 C 0.02622 0.04745 0.48385 0.0
C3917 C 0.01077 0.04834 0.47998 0.0
C3918 C 0.00532 0.04989 0.46444 0.0
H3919 H 0.03353 0.08684 0.42653 0.0
H3920 H 0.0322 0.07973 0.44541 0.0
H3921 H 0.0409 0.06921 0.42918 0.0
H3922 H 0.03841 0.04948 0.44612 0.0
H3923 H 0.04806 0.0477 0.47349 0.0
H3924 H 0.26954 0.6885 0.60804 0.0
H3925 H 0.26893 0.70649 0.63364 0.0
H3926 H 0.28594 0.74888 0.61247 0.0
H3927 H 0.28609 0.73095 0.58652 0.0
H3928 H 0.29653 0.72813 0.64941 0.0
H3929 H 0.25001 0.76125 0.63852 0.0
H3930 H 0.25107 0.74203 0.62601 0.0
H3931 H 0.26421 0.76064 0.62408 0.0
C3932 C 0.27276 0.70165 0.60866 0.0
C3933 C 0.27789 0.70829 0.59524 0.0
C3934 C 0.27248 0.7119 0.62333 0.0
C3935 C 0.27728 0.72897 0.62486 0.0
C3936 C 0.28199 0.73573 0.61143 0.0
H3937 H 0.29445 0.80051 0.71537 0.0
H3938 H 0.29152 0.78883 0.68655 0.0
C3939 C 0.28224 0.72547 0.59669 0.0
C3940 C 0.27879 0.73939 0.64096 0.0
H3941 H 0.26361 0.76818 0.66436 0.0
C3942 C 0.28938 0.73695 0.65266 0.0
C3943 C 0.26958 0.75099 0.64503 0.0
C3944 C 0.25799 0.7539 0.63282 0.0
C3945 C 0.29075 0.74551 0.66849 0.0
C3946 C 0.28109 0.75659 0.67276 0.0
C3947 C 0.2709 0.75956 0.66096 0.0
C3948 C 0.28092 0.7643 0.68969 0.0
C3949 C 0.30237 0.74246 0.68062 0.0
C3950 C 0.27543 0.75445 0.7008 0.0
C3951 C 0.2773 0.76097 0.7172 0.0
C3952 C 0.2847 0.77748 0.72277 0.0
C3953 C 0.28915 0.78763 0.71149 0.0
C3954 C 0.28734 0.78104 0.69503 0.0
H3955 H 0.31132 0.73673 0.67469 0.0
H3956 H 0.30817 0.7541 0.68874 0.0
H3957 H 0.2963 0.73402 0.68811 0.0
H3958 H 0.27025 0.74153 0.69681 0.0
H3959 H 0.27345 0.75285 0.72549 0.0
H3960 H 0.65909 0.0232 0.83508 0.0
H3961 H 0.64356 0.02484 0.85837 0.0
H3962 H 0.60807 0.03817 0.83002 0.0
H3963 H 0.62357 0.03678 0.80687 0.0
H3964 H 0.63202 0.05762 0.86902 0.0
H3965 H 0.587 0.99957 0.85535 0.0
H3966 H 0.60608 1.00122 0.84829 0.0
H3967 H 0.59212 0.01008 0.83892 0.0
C3968 C 0.64784 0.02618 0.83381 0.0
C3969 C 0.64247 0.02996 0.81933 0.0
C3970 C 0.63905 0.02712 0.84705 0.0
C3971 C 0.62471 0.03151 0.84575 0.0
C3972 C 0.61908 0.03462 0.83111 0.0
H3973 H 0.55135 0.05178 0.90191 0.0
H3974 H 0.56839 0.04524 0.88114 0.0
C3975 C 0.62793 0.03392 0.81798 0.0
C3976 C 0.61621 0.03455 0.86 0.0
H3977 H 0.58286 0.02031 0.87622 0.0
C3978 C 0.62137 0.04941 0.87082 0.0
C3979 C 0.60231 0.02383 0.862 0.0
C3980 C 0.59651 0.0077 0.85061 0.0
C3981 C 0.61259 0.05422 0.88332 0.0
C3982 C 0.59851 0.04358 0.88526 0.0
C3983 C 0.59362 0.02845 0.87467 0.0
C3984 C 0.58844 0.04807 0.89788 0.0
C3985 C 0.61812 0.07096 0.89381 0.0
C3986 C 0.59409 0.0519 0.91413 0.0
C3987 C 0.58452 0.05611 0.92597 0.0
C3988 C 0.56895 0.0561 0.92183 0.0
C3989 C 0.56331 0.05216 0.90552 0.0
C3990 C 0.57299 0.04823 0.89365 0.0
H3991 H 0.62646 0.07925 0.88787 0.0
H3992 H 0.60832 0.07687 0.89685 0.0
H3993 H 0.62412 0.06964 0.90517 0.0
H3994 H 0.60588 0.05152 0.91769 0.0
H3995 H 0.58935 0.05934 0.93839 0.0
H3996 H 0.3162 0.34313 0.10318 0.0
H3997 H 0.31512 0.33104 0.12756 0.0
H3998 H 0.27148 0.34451 0.13594 0.0
H3999 H 0.27224 0.35591 0.11123 0.0
H4000 H 0.31547 0.34379 0.15752 0.0
H4001 H 0.2603 0.29812 0.14149 0.0
H4002 H 0.26975 0.30927 0.12707 0.0
H4003 H 0.25771 0.31842 0.1408 0.0
C4004 C 0.30634 0.34338 0.1102 0.0
C4005 C 0.29424 0.35031 0.10527 0.0
C4006 C 0.30571 0.33647 0.12412 0.0
C4007 C 0.29305 0.33651 0.13348 0.0
C4008 C 0.28111 0.34376 0.12869 0.0
H4009 H 0.29792 0.32661 0.23425 0.0
H4010 H 0.29775 0.33649 0.20876 0.0
C4011 C 0.2816 0.35039 0.11462 0.0
C4012 C 0.29269 0.32962 0.14857 0.0
H4013 H 0.26994 0.304 0.16926 0.0
C4014 C 0.30555 0.33498 0.16 0.0
C4015 C 0.27989 0.31788 0.15178 0.0
C4016 C 0.26622 0.31046 0.13955 0.0
C4017 C 0.30588 0.32919 0.17459 0.0
C4018 C 0.2927 0.31822 0.17822 0.0
C4019 C 0.27995 0.3126 0.16666 0.0
C4020 C 0.29197 0.31225 0.19382 0.0
C4021 C 0.32055 0.33463 0.18573 0.0
C4022 C 0.28789 0.29535 0.19405 0.0
C4023 C 0.28749 0.28969 0.20867 0.0
C4024 C 0.29137 0.30082 0.22333 0.0
C4025 C 0.29511 0.31773 0.22312 0.0
C4026 C 0.29516 0.32339 0.20853 0.0
H4027 H 0.3308 0.33821 0.17904 0.0
H4028 H 0.31973 0.34555 0.1947 0.0
H4029 H 0.3225 0.3248 0.19223 0.0
H4030 H 0.28527 0.28648 0.1829 0.0
H4031 H 0.28458 0.27658 0.20846 0.0
H4032 H 0.25139 0.99057 0.03558 0.0
H4033 H 0.23104 0.00617 0.03705 0.0
H4034 H 0.20536 0.97262 0.99588 0.0
H4035 H 0.22569 0.95674 0.9944 0.0
H4036 H 0.20965 0.01323 1.001 0.0
H4037 H 0.18522 0.97906 0.04798 0.0
H4038 H 0.20593 0.98581 0.04888 0.0
H4039 H 0.19596 0.97035 0.03245 0.0
C4040 C 0.24146 0.98656 0.02677 0.0
C4041 C 0.23995 0.97231 0.01504 0.0
C4042 C 0.22995 0.99555 0.02755 0.0
C4043 C 0.21679 0.99044 0.01661 0.0
C4044 C 0.21554 0.97671 0.00436 0.0
H4045 H 0.13072 0.01963 0.0361 0.0
H4046 H 0.15028 1.00456 0.02722 0.0
C4047 C 0.22711 0.96769 0.00354 0.0
C4048 C 0.20378 0.9986 0.01915 0.0
H4049 H 0.17505 1.00178 0.04393 0.0
C4050 C 0.20194 0.01068 0.01025 0.0
C4051 C 0.19377 0.99505 0.03113 0.0
C4052 C 0.19517 0.98181 0.04066 0.0
C4053 C 0.19041 0.01966 0.01332 0.0
C4054 C 0.18082 0.01663 0.02586 0.0
C4055 C 0.18248 1.00419 0.03442 0.0
C4056 C 0.16893 0.0261 0.03039 0.0
C4057 C 0.18856 0.03217 1.00305 0.0
C4058 C 0.17296 0.04323 0.03531 0.0
C4059 C 0.1617 0.05196 0.04014 0.0
C4060 C 0.14627 0.04367 0.04034 0.0
C4061 C 0.14241 0.02646 0.03575 0.0
C4062 C 0.1536 0.0178 0.03076 0.0
H4063 H 0.19334 0.02949 0.99125 0.0
H4064 H 0.17622 0.03259 1.00089 0.0
H4065 H 0.19497 0.04449 0.00932 0.0
H4066 H 0.18482 0.04984 0.03556 0.0
H4067 H 0.16506 0.0652 0.04351 0.0
H4068 H 0.70433 0.64853 0.99002 0.0
H4069 H 0.67782 0.63306 0.99018 0.0
H4070 H 0.69442 0.60083 0.01786 0.0
H4071 H 0.72093 0.61632 0.01786 0.0
H4072 H 0.66353 0.60123 0.97918 0.0
H4073 H 0.66235 0.61606 0.04537 0.0
H4074 H 0.67761 0.62621 0.03491 0.0
H4075 H 0.67779 0.60623 0.03944 0.0
C4076 C 0.70236 0.63806 0.99603 0.0
C4077 C 0.71476 0.63374 0.00404 0.0
C4078 C 0.68718 0.62926 0.99615 0.0
C4079 C 0.68407 0.61597 0.00429 0.0
C4080 C 0.69647 0.6113 0.01186 0.0
H4081 H 0.59584 0.54422 0.99323 0.0
H4082 H 0.62221 0.55851 0.99075 0.0
C4083 C 0.71163 0.62016 0.01183 0.0
C4084 C 0.66786 0.6071 0.00499 0.0
H4085 H 0.64131 0.59585 0.03112 0.0
C4086 C 0.65863 0.6001 0.99053 0.0
C4087 C 0.66137 0.60587 0.0198 0.0
C4088 C 0.67023 0.61413 0.03575 0.0
C4089 C 0.64317 0.59175 0.99047 0.0
C4090 C 0.63687 0.58993 0.0053 0.0
C4091 C 0.6461 0.59707 0.01974 0.0
C4092 C 0.62064 0.58114 0.00629 0.0
C4093 C 0.63368 0.5854 0.97451 0.0
C4094 C 0.61098 0.58882 0.01616 0.0
C4095 C 0.5961 0.58041 0.01809 0.0
C4096 C 0.59038 0.56412 0.01006 0.0
C4097 C 0.59988 0.5566 0.99979 0.0
C4098 C 0.61494 0.56491 0.99815 0.0
H4099 H 0.63844 0.59219 0.96508 0.0
H4100 H 0.63393 0.57229 0.97048 0.0
H4101 H 0.62147 0.58639 0.97545 0.0
H4102 H 0.61502 0.60134 0.02254 0.0
H4103 H 0.58914 0.58673 0.026 0.0
H4104 H 0.71603 0.43291 0.24293 0.0
H4105 H 0.72922 0.41032 0.2436 0.0
H4106 H 0.72429 0.41411 0.29431 0.0
H4107 H 0.71122 0.43671 0.29382 0.0
H4108 H 0.7553 0.40553 0.25723 0.0
H4109 H 0.70871 0.36595 0.28234 0.0
H4110 H 0.70597 0.38427 0.27551 0.0
H4111 H 0.71533 0.38556 0.29522 0.0
C4112 C 0.71772 0.42916 0.25437 0.0
C4113 C 0.71209 0.43715 0.26829 0.0
C4114 C 0.72536 0.41592 0.2547 0.0
C4115 C 0.72775 0.40972 0.26893 0.0
C4116 C 0.72239 0.41784 0.2829 0.0
H4117 H 0.76864 0.33072 0.29886 0.0
H4118 H 0.75696 0.35397 0.29631 0.0
C4119 C 0.71477 0.43107 0.28259 0.0
C4120 C 0.73587 0.39512 0.2692 0.0
H4121 H 0.73276 0.35786 0.28172 0.0
C4122 C 0.75021 0.39511 0.26253 0.0
C4123 C 0.72967 0.38108 0.276 0.0
C4124 C 0.71401 0.37907 0.28252 0.0
C4125 C 0.75846 0.38225 0.26295 0.0
C4126 C 0.75232 0.3683 0.26992 0.0
C4127 C 0.73789 0.36826 0.27639 0.0
C4128 C 0.76067 0.35402 0.27124 0.0
C4129 C 0.77411 0.38422 0.25645 0.0
C4130 C 0.76716 0.34556 0.25817 0.0
C4131 C 0.77415 0.33201 0.25971 0.0
C4132 C 0.77499 0.32623 0.27441 0.0
C4133 C 0.76854 0.33469 0.28735 0.0
C4134 C 0.76165 0.34814 0.28585 0.0
H4135 H 0.77921 0.39726 0.25604 0.0
H4136 H 0.78221 0.37958 0.26393 0.0
H4137 H 0.77291 0.37714 0.244 0.0
H4138 H 0.76643 0.34906 0.2465 0.0
H4139 H 0.7785 0.32577 0.24923 0.0
H4140 H 0.88777 0.46633 0.53097 0.0
H4141 H 0.91484 0.47524 0.52684 0.0
H4142 H 0.90921 0.52503 0.52987 0.0
H4143 H 0.88173 0.5161 0.53406 0.0
H4144 H 0.92494 0.51361 0.50332 0.0
H4145 H 0.94954 0.50149 0.56032 0.0
H4146 H 0.93544 0.48414 0.54968 0.0
H4147 H 0.92964 0.50297 0.55726 0.0
C4148 C 0.89232 0.47926 0.53118 0.0
C4149 C 0.88272 0.49061 0.53319 0.0
C4150 C 0.90779 0.48431 0.52873 0.0
C4151 C 0.91402 0.5008 0.52835 0.0
C4152 C 0.90454 0.51224 0.53026 0.0
H4153 H 0.00869 0.54478 0.52213 0.0
H4154 H 0.98077 0.54013 0.52084 0.0
C4155 C 0.88893 0.50716 0.53267 0.0
C4156 C 0.93038 0.50569 0.52541 0.0
H4157 H 0.96641 0.5033 0.53914 0.0
C4158 C 0.93407 0.51158 0.51122 0.0
C4159 C 0.94219 0.50306 0.53582 0.0
C4160 C 0.93903 0.49773 0.5517 0.0
C4161 C 0.94932 0.5143 0.50688 0.0
C4162 C 0.9609 0.51089 0.51693 0.0
C4163 C 0.9573 0.50547 0.53131 0.0
C4164 C 0.97717 0.51383 0.5135 0.0
C4165 C 0.95301 0.52054 0.49155 0.0
C4166 C 0.98428 0.50055 0.5094 0.0
C4167 C 1.00036 0.50323 0.50988 0.0
C4168 C 0.00942 0.51919 0.51457 0.0
C4169 C 1.00213 0.53245 0.51804 0.0
C4170 C 0.98612 0.52981 0.51732 0.0
H4171 H 0.94241 0.52058 0.48402 0.0
H4172 H 0.96007 0.53327 0.49459 0.0
H4173 H 0.95997 0.51289 0.48442 0.0
H4174 H 0.97744 0.4881 0.50668 0.0
H4175 H 0.00575 0.49281 0.50738 0.0
H4176 H 0.34131 0.10884 0.29915 0.0
H4177 H 0.33209 0.13303 0.29474 0.0
H4178 H 0.37619 0.1639 0.31454 0.0
H4179 H 0.38591 0.13965 0.31793 0.0
H4180 H 0.3291 0.16321 0.31052 0.0
H4181 H 0.37515 0.16939 0.26801 0.0
H4182 H 0.3706 0.1519 0.27778 0.0
H4183 H 0.38162 0.17122 0.2888 0.0
C4184 C 0.34904 0.12078 0.3027 0.0
C4185 C 0.36452 0.12223 0.30833 0.0
C4186 C 0.34367 0.13463 0.30037 0.0
C4187 C 0.35363 0.15019 0.30385 0.0
C4188 C 0.36847 0.15192 0.31138 0.0
H4189 H 0.32044 0.22888 0.26482 0.0
H4190 H 0.33205 0.21583 0.28464 0.0
C4191 C 0.37395 0.13803 0.31346 0.0
C4192 C 0.3492 0.1638 0.29717 0.0
H4193 H 0.35685 0.18534 0.26679 0.0
C4194 C 0.33533 0.16837 0.30122 0.0
C4195 C 0.3573 0.17034 0.28489 0.0
C4196 C 0.37192 0.16542 0.27948 0.0
C4197 C 0.32895 0.17864 0.29271 0.0
C4198 C 0.33674 0.1845 0.28 0.0
C4199 C 0.35101 0.18077 0.27661 0.0
C4200 C 0.32933 0.19248 0.26856 0.0
C4201 C 0.31348 0.1823 0.29656 0.0
C4202 C 0.32417 0.18366 0.25301 0.0
C4203 C 0.31757 0.191 0.24172 0.0
C4204 C 0.31605 0.20733 0.2458 0.0
C4205 C 0.32129 0.21619 0.26142 0.0
C4206 C 0.32791 0.2088 0.27274 0.0
H4207 H 0.30867 0.17632 0.30649 0.0
H4208 H 0.31467 0.19576 0.30009 0.0
H4209 H 0.30514 0.17802 0.2857 0.0
H4210 H 0.32524 0.17104 0.24962 0.0
H4211 H 0.31348 0.18383 0.22987 0.0
H4212 H 0.37136 0.15668 0.53862 0.0
H4213 H 0.39225 0.14194 0.54005 0.0
H4214 H 0.38079 0.11905 0.49024 0.0
H4215 H 0.35959 0.13337 0.48872 0.0
H4216 H 0.38411 0.10019 0.52365 0.0
H4217 H 0.43268 0.14467 0.50546 0.0
H4218 H 0.41803 0.15187 0.517 0.0
H4219 H 0.41318 0.14177 0.49647 0.0
C4220 C 0.37319 0.14846 0.52796 0.0
C4221 C 0.36367 0.14618 0.51357 0.0
C4222 C 0.38523 0.14016 0.52878 0.0
C4223 C 0.38808 0.12951 0.51523 0.0
C4224 C 0.37883 0.12734 0.50079 0.0
H4225 H 0.45953 0.07211 0.5016 0.0
H4226 H 0.44138 0.08988 0.49814 0.0
C4227 C 0.36675 0.13561 0.49995 0.0
C4228 C 0.40012 0.11988 0.51647 0.0
H4229 H 0.43841 0.12067 0.51263 0.0
C4230 C 0.39599 0.10463 0.52124 0.0
C4231 C 0.4155 0.12565 0.5131 0.0
C4232 C 0.42026 0.14189 0.5077 0.0
C4233 C 0.40689 0.095 0.52288 0.0
C4234 C 0.42248 0.10099 0.52006 0.0
C4235 C 0.42653 0.11614 0.51495 0.0
C4236 C 0.43466 0.09167 0.52252 0.0
C4237 C 0.4015 0.07836 0.52734 0.0
C4238 C 0.43739 0.08731 0.53752 0.0
C4239 C 0.44759 0.07709 0.53945 0.0
C4240 C 0.45552 0.07124 0.52651 0.0
C4241 C 0.45357 0.07645 0.51178 0.0
C4242 C 0.44319 0.08656 0.50979 0.0
H4243 H 0.38887 0.07363 0.52431 0.0
H4244 H 0.40765 0.06926 0.52111 0.0
H4245 H 0.40386 0.07939 0.54052 0.0
H4246 H 0.43134 0.09151 0.54766 0.0
H4247 H 0.44905 0.07347 0.55101 0.0
H4248 H 0.73627 0.59986 0.26313 0.0
H4249 H 0.749 0.62853 0.26371 0.0
H4250 H 0.71147 0.64436 0.28757 0.0
H4251 H 0.69891 0.61578 0.28737 0.0
H4252 H 0.74322 0.6525 0.25107 0.0
H4253 H 0.74516 0.67442 0.31656 0.0
H4254 H 0.73947 0.65294 0.30773 0.0
H4255 H 0.72571 0.66594 0.30799 0.0
C4256 C 0.73067 0.60939 0.26856 0.0
C4257 C 0.71648 0.60516 0.27535 0.0
C4258 C 0.73805 0.62596 0.26891 0.0
C4259 C 0.73158 0.63907 0.27604 0.0
C4260 C 0.71724 0.63484 0.28252 0.0
H4261 H 0.75488 0.74676 0.27949 0.0
H4262 H 0.74222 0.71817 0.27997 0.0
C4263 C 0.70994 0.61828 0.28232 0.0
C4264 C 0.73959 0.65694 0.27627 0.0
H4265 H 0.75096 0.69513 0.30051 0.0
C4266 C 0.74496 0.6617 0.26198 0.0
C4267 C 0.74212 0.66935 0.29039 0.0
C4268 C 0.73796 0.66539 0.30656 0.0
C4269 C 0.75231 0.67814 0.26136 0.0
C4270 C 0.75455 0.69053 0.27538 0.0
C4271 C 0.74922 0.68585 0.28966 0.0
C4272 C 0.7625 0.70827 0.27544 0.0
C4273 C 0.75741 0.68225 0.24553 0.0
C4274 C 0.77829 0.71265 0.27294 0.0
C4275 C 0.78565 0.72913 0.27287 0.0
C4276 C 0.77751 0.7419 0.27517 0.0
C4277 C 0.76168 0.73746 0.27768 0.0
C4278 C 0.75437 0.721 0.27798 0.0
H4279 H 0.75231 0.67225 0.23523 0.0
H4280 H 0.75413 0.69376 0.24347 0.0
H4281 H 0.77018 0.68425 0.24584 0.0
H4282 H 0.785 0.70328 0.27103 0.0
H4283 H 0.79765 0.73173 0.27056 0.0
H4284 H 0.83951 0.46621 0.75753 0.0
H4285 H 0.82682 0.43704 0.75223 0.0
H4286 H 0.83946 0.43403 0.80135 0.0
H4287 H 0.85197 0.46314 0.80673 0.0
H4288 H 0.84252 0.41356 0.75384 0.0
H4289 H 0.79582 0.4068 0.79467 0.0
H4290 H 0.80488 0.42645 0.79006 0.0
H4291 H 0.81383 0.41807 0.80532 0.0
C4292 C 0.83929 0.45936 0.76726 0.0
C4293 C 0.84676 0.46688 0.78252 0.0
C4294 C 0.832 0.44275 0.76425 0.0
C4295 C 0.83206 0.43341 0.77643 0.0
C4296 C 0.83891 0.44109 0.79188 0.0
H4297 H 0.84146 0.33534 0.7728 0.0
H4298 H 0.84415 0.36488 0.77362 0.0
C4299 C 0.84611 0.45772 0.79493 0.0
C4300 C 0.82696 0.41533 0.77254 0.0
H4301 H 0.80556 0.3825 0.78555 0.0
C4302 C 0.83425 0.40677 0.76062 0.0
C4303 C 0.81601 0.40648 0.7812 0.0
C4304 C 0.80707 0.41495 0.7934 0.0
C4305 C 0.83157 0.38961 0.75779 0.0
C4306 C 0.82159 0.38085 0.76736 0.0
C4307 C 0.81352 0.38931 0.77854 0.0
C4308 C 0.81998 0.36303 0.76651 0.0
C4309 C 0.8396 0.38102 0.74472 0.0
C4310 C 0.80549 0.35232 0.76246 0.0
C4311 C 0.80396 0.33554 0.7621 0.0
C4312 C 0.81682 0.32928 0.76614 0.0
C4313 C 0.83137 0.33996 0.76986 0.0
C4314 C 0.83291 0.35675 0.77023 0.0
H4315 H 0.84285 0.38871 0.73549 0.0
H4316 H 0.85036 0.37862 0.75012 0.0
H4317 H 0.83215 0.36909 0.73869 0.0
H4318 H 0.7954 0.35695 0.75953 0.0
H4319 H 0.79272 0.32753 0.75863 0.0
H4320 H 0.0906 0.90192 0.08699 0.0
H4321 H 0.08639 0.92578 0.07613 0.0
H4322 H 0.03966 0.9004 0.05918 0.0
H4323 H 0.04394 0.87623 0.06947 0.0
H4324 H 0.05313 0.91723 0.03683 0.0
H4325 H 0.06242 0.95862 0.09627 0.0
H4326 H 0.07848 0.94935 0.09152 0.0
H4327 H 0.06018 0.93669 0.0942 0.0
C4328 C 0.07945 0.90126 0.08081 0.0
C4329 C 0.0676 0.887 0.07932 0.0
C4330 C 0.07699 0.91508 0.07475 0.0
C4331 C 0.06257 0.91517 0.06708 0.0
C4332 C 0.05085 0.90083 0.06516 0.0
H4333 H 0.03253 1.00447 0.05222 0.0
H4334 H 0.03408 0.97778 0.05913 0.0
C4335 C 0.0533 0.88699 0.07122 0.0
C4336 C 0.05967 0.93018 0.06117 0.0
H4337 H 0.06036 0.97108 0.07339 0.0
C4338 C 0.05473 0.92899 0.04485 0.0
C4339 C 0.06141 0.94558 0.07159 0.0
C4340 C 0.06576 0.94767 0.0894 0.0
C4341 C 0.05184 0.94271 0.03869 0.0
C4342 C 0.05408 0.9582 0.04902 0.0
C4343 C 0.05874 0.95931 0.06537 0.0
C4344 C 0.05173 0.97343 0.0432 0.0
C4345 C 0.04594 0.94043 0.02127 0.0
C4346 C 0.06095 0.97996 0.03177 0.0
C4347 C 0.05996 0.9952 0.02775 0.0
C4348 C 0.04954 1.00415 0.03481 0.0
C4349 C 0.04022 0.99756 0.0461 0.0
C4350 C 0.04121 0.98235 0.05015 0.0
H4351 H 0.04193 0.92725 0.01571 0.0
H4352 H 0.03622 0.94668 0.02017 0.0
H4353 H 0.05531 0.94599 0.0144 0.0
H4354 H 0.06948 0.97368 0.02653 0.0
H4355 H 0.06785 1.00034 0.01964 0.0
H4356 H 0.93634 0.28672 0.89176 0.0
H4357 H 0.91325 0.28923 0.87633 0.0
H4358 H 0.9239 0.25701 0.83537 0.0
H4359 H 0.94744 0.25491 0.85041 0.0
H4360 H 0.91226 0.30004 0.84388 0.0
H4361 H 0.87737 0.23748 0.84408 0.0
H4362 H 0.89335 0.24731 0.85893 0.0
H4363 H 0.89699 0.23903 0.83889 0.0
C4364 C 0.93399 0.28028 0.87941 0.0
C4365 C 0.94402 0.27064 0.87244 0.0
C4366 C 0.92063 0.28166 0.87063 0.0
C4367 C 0.91674 0.27325 0.8547 0.0
C4368 C 0.92655 0.26349 0.8477 0.0
H4369 H 0.83935 0.2606 0.7831 0.0
H4370 H 0.86206 0.25869 0.79945 0.0
C4371 C 0.94002 0.26223 0.85641 0.0
C4372 C 0.90259 0.27493 0.84534 0.0
H4373 H 0.8666 0.25387 0.82877 0.0
C4374 C 0.90224 0.28998 0.84061 0.0
C4375 C 0.88955 0.2618 0.841 0.0
C4376 C 0.88917 0.24548 0.84603 0.0
C4377 C 0.8894 0.29212 0.83136 0.0
C4378 C 0.87622 0.27901 0.82711 0.0
C4379 C 0.87658 0.26398 0.83198 0.0
C4380 C 0.86216 0.28038 0.81721 0.0
C4381 C 0.89037 0.30826 0.82575 0.0
C4382 C 0.85426 0.29304 0.82172 0.0
C4383 C 0.84137 0.29439 0.8121 0.0
C4384 C 0.8359 0.28298 0.79781 0.0
C4385 C 0.84344 0.26995 0.7937 0.0
C4386 C 0.85641 0.26873 0.80319 0.0
H4387 H 0.90256 0.31491 0.82577 0.0
H4388 H 0.88463 0.30644 0.81342 0.0
H4389 H 0.88456 0.3162 0.83405 0.0
H4390 H 0.85803 0.30191 0.83272 0.0
H4391 H 0.83576 0.30445 0.81583 0.0
H4392 H 0.5476 0.2199 0.5553 0.0
H4393 H 0.54558 0.19058 0.54532 0.0
H4394 H 0.58572 0.19168 0.57662 0.0
H4395 H 0.58781 0.22091 0.58671 0.0
H4396 H 0.58595 0.17327 0.54592 0.0
H4397 H 0.5297 0.1549 0.57114 0.0
H4398 H 0.52995 0.16925 0.55772 0.0
H4399 H 0.54164 0.17534 0.57661 0.0
C4400 C 0.55598 0.21392 0.56012 0.0
C4401 C 0.56783 0.22287 0.57191 0.0
C4402 C 0.55481 0.19712 0.55437 0.0
C4403 C 0.56537 0.1888 0.56036 0.0
C4404 C 0.57744 0.19778 0.57178 0.0
H4405 H 0.55529 0.08646 0.56398 0.0
H4406 H 0.56057 0.11647 0.56871 0.0
C4407 C 0.57864 0.21456 0.57751 0.0
C4408 C 0.56359 0.17068 0.5552 0.0
H4409 H 0.53946 0.13375 0.55608 0.0
C4410 C 0.57573 0.16463 0.54801 0.0
C4411 C 0.55035 0.15935 0.55813 0.0
C4412 C 0.53721 0.16497 0.56644 0.0
C4413 C 0.57497 0.14762 0.54372 0.0
C4414 C 0.56173 0.13634 0.54666 0.0
C4415 C 0.54957 0.1424 0.55373 0.0
C4416 C 0.56054 0.11822 0.54351 0.0
C4417 C 0.58861 0.14177 0.53684 0.0
C4418 C 0.55902 0.10912 0.52775 0.0
C4419 C 0.55601 0.09186 0.52502 0.0
C4420 C 0.55459 0.08345 0.53803 0.0
C4421 C 0.55655 0.09262 0.55375 0.0
C4422 C 0.55952 0.10977 0.55646 0.0
H4423 H 0.59845 0.1521 0.53623 0.0
H4424 H 0.59253 0.13367 0.54442 0.0
H4425 H 0.58518 0.13449 0.52454 0.0
H4426 H 0.55948 0.11531 0.51753 0.0
H4427 H 0.55411 0.08515 0.51277 0.0
H4428 H 0.59972 0.80497 0.3807 0.0
H4429 H 0.62344 0.80712 0.36681 0.0
H4430 H 0.61546 0.7543 0.35539 0.0
H4431 H 0.59148 0.75213 0.36876 0.0
H4432 H 0.64964 0.79799 0.37151 0.0
H4433 H 0.62215 0.76421 0.31176 0.0
H4434 H 0.61099 0.77036 0.32801 0.0
H4435 H 0.61865 0.75216 0.32722 0.0
C4436 C 0.60301 0.79381 0.37518 0.0
C4437 C 0.59359 0.77838 0.37569 0.0
C4438 C 0.6166 0.79505 0.36723 0.0
C4439 C 0.62119 0.78089 0.35967 0.0
C4440 C 0.612 0.76545 0.36058 0.0
H4441 H 0.70192 0.76868 0.30583 0.0
H4442 H 0.68069 0.76444 0.3234 0.0
C4443 C 0.59829 0.76421 0.36831 0.0
C4444 C 0.63561 0.78234 0.351 0.0
H4445 H 0.64956 0.77076 0.31478 0.0
C4446 C 0.64957 0.79203 0.3591 0.0
C4447 C 0.63566 0.77462 0.33474 0.0
C4448 C 0.62104 0.7649 0.32487 0.0
C4449 C 0.66342 0.79418 0.35146 0.0
C4450 C 0.66342 0.78643 0.33528 0.0
C4451 C 0.64959 0.77656 0.32724 0.0
C4452 C 0.67736 0.78932 0.32609 0.0
C4453 C 0.67801 0.80471 0.36074 0.0
C4454 C 0.68267 0.80473 0.32192 0.0
C4455 C 0.69466 0.80712 0.31182 0.0
C4456 C 0.70172 0.79418 0.30574 0.0
C4457 C 0.69684 0.77892 0.31046 0.0
C4458 C 0.68465 0.77647 0.32041 0.0
H4459 H 0.67693 0.8069 0.37392 0.0
H4460 H 0.688 0.79891 0.35829 0.0
H4461 H 0.68049 0.81678 0.35683 0.0
H4462 H 0.67714 0.81478 0.32598 0.0
H4463 H 0.69814 0.819 0.30838 0.0
H4464 H 0.05781 0.25351 0.45325 0.0
H4465 H 0.05391 0.23325 0.47089 0.0
H4466 H 0.0823 0.20554 0.44287 0.0
H4467 H 0.08646 0.22598 0.4253 0.0
H4468 H 0.04064 0.201 0.46395 0.0
H4469 H 0.10167 0.20964 0.48806 0.0
H4470 H 0.09528 0.22369 0.4768 0.0
H4471 H 0.09876 0.20455 0.4665 0.0
C4472 C 0.06319 0.24307 0.45082 0.0
C4473 C 0.07245 0.24132 0.43791 0.0
C4474 C 0.061 0.23154 0.46094 0.0
C4475 C 0.06799 0.21801 0.45835 0.0
C4476 C 0.0771 0.2161 0.44534 0.0
H4477 H 0.03966 0.13044 0.49962 0.0
H4478 H 0.04432 0.15049 0.48188 0.0
C4479 C 0.07942 0.22774 0.43528 0.0
C4480 C 0.06534 0.20575 0.46908 0.0
H4481 H 0.08367 0.18743 0.49487 0.0
C4482 C 0.05005 0.19806 0.47075 0.0
C4483 C 0.07762 0.20207 0.47807 0.0
C4484 C 0.09425 0.21052 0.47742 0.0
C4485 C 0.04668 0.18675 0.4811 0.0
C4486 C 0.05897 0.18273 0.48975 0.0
C4487 C 0.07427 0.19048 0.48816 0.0
C4488 C 0.05621 0.17056 0.50055 0.0
C4489 C 0.02997 0.1795 0.48291 0.0
C4490 C 0.06169 0.17506 0.51689 0.0
C4491 C 0.0593 0.16352 0.52704 0.0
C4492 C 0.05143 0.14723 0.52102 0.0
C4493 C 0.04592 0.14282 0.50464 0.0
C4494 C 0.0484 0.15432 0.4945 0.0
H4495 H 0.02221 0.18725 0.47928 0.0
H4496 H 0.02647 0.16723 0.47504 0.0
H4497 H 0.02822 0.178 0.49552 0.0
H4498 H 0.06783 0.18752 0.52178 0.0
H4499 H 0.06389 0.16728 0.53952 0.0
H4500 H 0.57971 0.2449 0.18897 0.0
H4501 H 0.60433 0.24213 0.2012 0.0
H4502 H 0.61524 0.29378 0.22176 0.0
H4503 H 0.59041 0.29661 0.20976 0.0
H4504 H 0.63487 0.25966 0.19685 0.0
H4505 H 0.62039 0.2702 0.26051 0.0
H4506 H 0.60579 0.26492 0.24372 0.0
H4507 H 0.61747 0.28536 0.24882 0.0
C4508 C 0.58728 0.25564 0.19622 0.0
C4509 C 0.58307 0.27094 0.19856 0.0
C4510 C 0.60137 0.25406 0.2031 0.0
C4511 C 0.61147 0.2677 0.21252 0.0
C4512 C 0.60747 0.28306 0.2147 0.0
H4513 H 0.70039 0.27523 0.26484 0.0
H4514 H 0.67657 0.28085 0.25349 0.0
C4515 C 0.59337 0.28468 0.20774 0.0
C4516 C 0.62624 0.26571 0.21992 0.0
H4517 H 0.64539 0.26597 0.25598 0.0
C4518 C 0.63721 0.26107 0.20977 0.0
C4519 C 0.62921 0.26762 0.23678 0.0
C4520 C 0.61759 0.27219 0.24816 0.0
C4521 C 0.65113 0.25824 0.21605 0.0
C4522 C 0.65396 0.25978 0.23289 0.0
C4523 C 0.64311 0.26473 0.24307 0.0
C4524 C 0.66808 0.25617 0.24014 0.0
C4525 C 0.66276 0.25381 0.20461 0.0
C4526 C 0.67098 0.24032 0.23668 0.0
C4527 C 0.68459 0.23708 0.2431 0.0
C4528 C 0.6955 0.24963 0.25313 0.0
C4529 C 0.69231 0.26537 0.25696 0.0
C4530 C 0.67869 0.26859 0.25055 0.0
H4531 H 0.66068 0.25727 0.19274 0.0
H4532 H 0.67473 0.25993 0.20968 0.0
H4533 H 0.66184 0.24034 0.20262 0.0
H4534 H 0.66278 0.2305 0.22888 0.0
H4535 H 0.68675 0.22487 0.23986 0.0
H4536 H 0.60136 0.9018 0.91702 0.0
H4537 H 0.59761 0.92868 0.92919 0.0
H4538 H 0.60805 0.9189 0.9764 0.0
H4539 H 0.61225 0.89193 0.96428 0.0
H4540 H 0.57874 0.92633 0.97109 0.0
H4541 H 0.6255 0.97244 0.95288 0.0
H4542 H 0.61599 0.95623 0.93676 0.0
H4543 H 0.62704 0.95151 0.95301 0.0
C4544 C 0.60347 0.90554 0.92996 0.0
C4545 C 0.60709 0.89465 0.93968 0.0
C4546 C 0.60128 0.92094 0.93689 0.0
C4547 C 0.60266 0.92579 0.95365 0.0
C4548 C 0.607 0.91535 0.9634 0.0
H4549 H 0.58659 0.01301 0.01215 0.0
H4550 H 0.59767 0.99093 0.99859 0.0
C4551 C 0.60929 0.89993 0.95648 0.0
C4552 C 0.59746 0.94063 0.96089 0.0
H4553 H 0.60375 0.98212 0.96303 0.0
C4554 C 0.58427 0.93854 0.96944 0.0
C4555 C 0.6047 0.9565 0.95862 0.0
C4556 C 0.61918 0.95939 0.94994 0.0
C4557 C 0.57794 0.95191 0.9756 0.0
C4558 C 0.58494 0.96769 0.97298 0.0
C4559 C 0.59831 0.96989 0.96471 0.0
C4560 C 0.57898 0.98214 0.97977 0.0
C4561 C 0.56391 0.94914 0.98499 0.0
C4562 C 0.56494 0.98464 0.97339 0.0
C4563 C 0.55851 0.99731 0.98113 0.0
C4564 C 0.566 0.00744 0.99541 0.0
C4565 C 0.5804 0.00526 1.0013 0.0
C4566 C 0.58683 0.99273 0.99353 0.0
H4567 H 0.56111 0.93654 0.98772 0.0
H4568 H 0.56576 0.95814 0.99648 0.0
H4569 H 0.55379 0.95103 0.97789 0.0
H4570 H 0.55879 0.97652 0.96271 0.0
H4571 H 0.54745 0.99876 0.9763 0.0
H4572 H 0.94781 0.75425 0.72313 0.0
H4573 H 0.92378 0.75013 0.73638 0.0
H4574 H 0.90439 0.7774 0.70504 0.0
H4575 H 0.92799 0.78087 0.69124 0.0
H4576 H 0.91031 0.77223 0.75294 0.0
H4577 H 0.86993 0.73744 0.70118 0.0
H4578 H 0.89064 0.74065 0.70068 0.0
H4579 H 0.88067 0.75617 0.69646 0.0
C4580 C 0.93834 0.75916 0.7189 0.0
C4581 C 0.93982 0.76785 0.70607 0.0
C4582 C 0.92464 0.75684 0.72653 0.0
C4583 C 0.91216 0.76311 0.72145 0.0
C4584 C 0.91371 0.77203 0.70886 0.0
H4585 H 0.83182 0.7915 0.75039 0.0
H4586 H 0.85603 0.7864 0.7403 0.0
C4587 C 0.92734 0.77428 0.70118 0.0
C4588 C 0.89783 0.76129 0.72989 0.0
H4589 H 0.85849 0.75186 0.72312 0.0
C4590 C 0.89898 0.76736 0.7465 0.0
C4591 C 0.88304 0.7548 0.72153 0.0
C4592 C 0.881 0.74672 0.70401 0.0
C4593 C 0.88575 0.76818 0.75473 0.0
C4594 C 0.87104 0.7631 0.74604 0.0
C4595 C 0.86983 0.75605 0.72967 0.0
C4596 C 0.85694 0.76657 0.75315 0.0
C4597 C 0.88777 0.7758 0.77232 0.0
C4598 C 0.84943 0.75703 0.76367 0.0
C4599 C 0.83567 0.76008 0.76962 0.0
C4600 C 0.82931 0.77273 0.76516 0.0
C4601 C 0.83672 0.78203 0.75441 0.0
C4602 C 0.85049 0.77906 0.74857 0.0
H4603 H 0.89905 0.77499 0.77807 0.0
H4604 H 0.88756 0.78896 0.77339 0.0
H4605 H 0.87839 0.76995 0.779 0.0
H4606 H 0.85413 0.74715 0.7671 0.0
H4607 H 0.82992 0.75249 0.77759 0.0
H4608 H 0.14364 0.02134 0.86659 0.0
H4609 H 0.13142 0.02426 0.89191 0.0
H4610 H 0.08902 0.02639 0.86629 0.0
H4611 H 0.10095 0.02292 0.84087 0.0
H4612 H 0.11929 0.0479 0.90881 0.0
H4613 H 0.07131 0.99328 0.89266 0.0
H4614 H 0.08733 0.99688 0.88046 0.0
H4615 H 0.07176 0.00737 0.87901 0.0
C4616 C 0.13163 0.02215 0.86612 0.0
C4617 C 0.1235 0.0217 0.85113 0.0
C4618 C 0.12459 0.02399 0.88087 0.0
C4619 C 0.10899 0.02529 0.88146 0.0
C4620 C 0.10089 0.02503 0.86657 0.0
H4621 H 0.04524 0.03354 0.95982 0.0
H4622 H 0.05721 0.03102 0.93422 0.0
C4623 C 0.10792 0.02325 0.85182 0.0
C4624 C 0.10146 0.02725 0.89753 0.0
H4625 H 0.07025 0.01124 0.91709 0.0
C4626 C 0.10859 0.03977 0.91054 0.0
C4627 C 0.08734 0.01692 0.90026 0.0
C4628 C 0.07903 1.00276 0.88743 0.0
C4629 C 0.10207 0.04245 0.92561 0.0
C4630 C 0.08805 0.03196 0.92846 0.0
C4631 C 0.08091 0.01944 0.91539 0.0
C4632 C 0.0806 0.03372 0.94464 0.0
C4633 C 0.11016 0.05707 0.93807 0.0
C4634 C 0.08929 0.0359 0.95965 0.0
C4635 C 0.08241 0.03768 0.97447 0.0
C4636 C 0.06638 0.0369 0.9751 0.0
C4637 C 0.05758 0.03427 0.96012 0.0
C4638 C 0.06452 0.03278 0.94528 0.0
H4639 H 0.11702 0.06678 0.93239 0.0
H4640 H 0.10182 0.06249 0.94539 0.0
H4641 H 0.11832 0.05316 0.94617 0.0
H4642 H 0.10151 0.03602 0.96 0.0
H4643 H 0.08973 0.03942 0.98553 0.0
H4644 H 0.82667 0.38365 0.58705 0.0
H4645 H 0.82872 0.37422 0.61263 0.0
H4646 H 0.79088 0.39588 0.62845 0.0
H4647 H 0.78892 0.40574 0.60297 0.0
H4648 H 0.83164 0.39513 0.64702 0.0
H4649 H 0.77939 0.34424 0.62933 0.0
H4650 H 0.7902 0.35335 0.6144 0.0
H4651 H 0.77856 0.36467 0.62649 0.0
C4652 C 0.8189 0.38659 0.59604 0.0
C4653 C 0.80761 0.39539 0.59302 0.0
C4654 C 0.8201 0.38122 0.61061 0.0
C4655 C 0.80999 0.38448 0.62232 0.0
C4656 C 0.79876 0.39332 0.61946 0.0
H4657 H 0.80219 0.32422 0.69569 0.0
H4658 H 0.79912 0.34828 0.68465 0.0
C4659 C 0.79757 0.39876 0.60488 0.0
C4660 C 0.81074 0.37759 0.63705 0.0
H4661 H 0.79499 0.34384 0.65223 0.0
C4662 C 0.82348 0.38411 0.64844 0.0
C4663 C 0.79997 0.36336 0.63878 0.0
C4664 C 0.78624 0.35587 0.62664 0.0
C4665 C 0.82619 0.37612 0.66116 0.0
C4666 C 0.81604 0.36118 0.66217 0.0
C4667 C 0.80272 0.35535 0.65142 0.0
C4668 C 0.82006 0.34997 0.67241 0.0
C4669 C 0.84012 0.38341 0.67303 0.0
C4670 C 0.83313 0.34333 0.66957 0.0
C4671 C 0.83493 0.32959 0.67586 0.0
C4672 C 0.82363 0.32226 0.68499 0.0
C4673 C 0.81114 0.32967 0.68877 0.0
C4674 C 0.80936 0.34341 0.6825 0.0
H4675 H 0.84323 0.39699 0.6743 0.0
H4676 H 0.83808 0.38021 0.68506 0.0
H4677 H 0.85014 0.37854 0.66861 0.0
H4678 H 0.84137 0.34802 0.66155 0.0
H4679 H 0.84478 0.32426 0.67297 0.0
H4680 H 0.48146 0.07828 0.35707 0.0
H4681 H 0.49982 0.0825 0.3808 0.0
H4682 H 0.46738 0.04808 0.40144 0.0
H4683 H 0.4488 0.04423 0.37816 0.0
H4684 H 0.48071 0.07839 0.4226 0.0
H4685 H 0.5249 0.04902 0.39196 0.0
H4686 H 0.51872 0.06506 0.38364 0.0
H4687 H 0.50539 0.04584 0.38293 0.0
C4688 C 0.47822 0.0717 0.36673 0.0
C4689 C 0.46371 0.06085 0.36572 0.0
C4690 C 0.48877 0.07402 0.38017 0.0
C4691 C 0.48497 0.06548 0.39274 0.0
C4692 C 0.4705 0.05473 0.3918 0.0
H4693 H 0.51014 0.03597 0.47583 0.0
H4694 H 0.49946 0.04366 0.45199 0.0
C4695 C 0.45997 0.05243 0.37843 0.0
C4696 C 0.49585 0.06762 0.40706 0.0
H4697 H 0.52825 0.05616 0.42015 0.0
C4698 C 0.49127 0.07383 0.42206 0.0
C4699 C 0.50968 0.06181 0.40625 0.0
C4700 C 0.51502 0.05497 0.39038 0.0
C4701 C 0.49965 0.07344 0.43637 0.0
C4702 C 0.51282 0.0665 0.43558 0.0
C4703 C 0.51809 0.06142 0.42061 0.0
C4704 C 0.51973 0.06215 0.44996 0.0
C4705 C 0.49398 0.07971 0.45224 0.0
C4706 C 0.53481 0.06982 0.45645 0.0
C4707 C 0.541 0.06549 0.4702 0.0
C4708 C 0.53222 0.05328 0.47744 0.0
C4709 C 0.51721 0.04547 0.47065 0.0
C4710 C 0.51105 0.04987 0.45704 0.0
H4711 H 0.4867 0.08872 0.45099 0.0
H4712 H 0.48683 0.06925 0.45668 0.0
H4713 H 0.5038 0.08558 0.46142 0.0
H4714 H 0.54167 0.07928 0.45103 0.0
H4715 H 0.55253 0.07186 0.47525 0.0
H4716 H 0.78155 0.75797 0.08867 0.0
H4717 H 0.78014 0.77058 0.11669 0.0
H4718 H 0.8139 0.74512 0.13218 0.0
H4719 H 0.8153 0.73242 0.10434 0.0
H4720 H 0.77096 0.75502 0.14123 0.0
H4721 H 0.83071 0.79131 0.15701 0.0
H4722 H 0.82295 0.78309 0.13643 0.0
H4723 H 0.83037 0.77033 0.14848 0.0
C4724 C 0.78873 0.75512 0.09804 0.0
C4725 C 0.79858 0.7442 0.0942 0.0
C4726 C 0.78797 0.76241 0.11404 0.0
C4727 C 0.79711 0.75903 0.12654 0.0
C4728 C 0.80706 0.7483 0.12273 0.0
H4729 H 0.79013 0.7505 0.22266 0.0
H4730 H 0.78791 0.74872 0.19348 0.0
C4731 C 0.80784 0.74101 0.10676 0.0
C4732 C 0.79541 0.7656 0.14365 0.0
H4733 H 0.81621 0.78456 0.17932 0.0
C4734 C 0.78081 0.76171 0.1495 0.0
C4735 C 0.80817 0.77467 0.15443 0.0
C4736 C 0.82389 0.78025 0.14873 0.0
C4737 C 0.7789 0.76563 0.16598 0.0
C4738 C 0.79188 0.77353 0.17689 0.0
C4739 C 0.80627 0.77839 0.17094 0.0
C4740 C 0.79122 0.77492 0.19454 0.0
C4741 C 0.76303 0.76131 0.17173 0.0
C4742 C 0.79376 0.79027 0.20485 0.0
C4743 C 0.7949 0.79129 0.22162 0.0
C4744 C 0.79362 0.77697 0.22821 0.0
C4745 C 0.7909 0.76168 0.21784 0.0
C4746 C 0.78959 0.76065 0.2012 0.0
H4747 H 0.75387 0.7568 0.16159 0.0
H4748 H 0.76259 0.75166 0.17917 0.0
H4749 H 0.76055 0.77233 0.17935 0.0
H4750 H 0.79525 0.80143 0.19992 0.0
H4751 H 0.79737 0.80325 0.22938 0.0
H4752 H 0.09946 0.01072 0.69017 0.0
H4753 H 0.08733 0.01427 0.66466 0.0
H4754 H 0.13223 0.03194 0.64937 0.0
H4755 H 0.14443 0.0282 0.6746 0.0
H4756 H 0.08695 0.04105 0.64948 0.0
H4757 H 0.11386 0.99766 0.6102 0.0
H4758 H 0.11441 0.99876 0.63171 0.0
H4759 H 0.12774 0.01348 0.62328 0.0
C4760 C 0.10689 0.01521 0.68139 0.0
C4761 C 0.12317 0.01904 0.68491 0.0
C4762 C 0.09982 0.01738 0.66665 0.0
C4763 C 0.10864 0.02322 0.65452 0.0
C4764 C 0.12487 0.02714 0.65805 0.0
H4765 H 0.09317 0.03964 0.55517 0.0
H4766 H 0.10274 0.03725 0.58198 0.0
C4767 C 0.13194 0.02513 0.67281 0.0
C4768 C 0.10103 0.02523 0.63838 0.0
H4769 H 0.10088 0.01431 0.5972 0.0
C4770 C 0.08999 0.03509 0.63808 0.0
C4771 C 0.10469 0.01761 0.62314 0.0
C4772 C 0.1157 0.00615 0.62201 0.0
C4773 C 0.08316 0.03797 0.62343 0.0
C4774 C 0.08693 0.03044 0.60815 0.0
C4775 C 0.09779 0.02035 0.60854 0.0
C4776 C 0.08046 0.03318 0.59171 0.0
C4777 C 0.07242 0.04969 0.62464 0.0
C4778 C 0.0645 0.03208 0.58747 0.0
C4779 C 0.05892 0.03382 0.57184 0.0
C4780 C 0.06907 0.03657 0.55974 0.0
C4781 C 0.0849 0.03774 0.56404 0.0
C4782 C 0.09045 0.03621 0.57956 0.0
H4783 H 0.07442 0.05817 0.63646 0.0
H4784 H 0.07387 0.05711 0.61499 0.0
H4785 H 0.0603 0.04259 0.62344 0.0
H4786 H 0.05615 0.02929 0.59603 0.0
H4787 H 0.04662 0.0324 0.56908 0.0
H4788 H 0.83047 0.36523 0.4546 0.0
H4789 H 0.83169 0.34467 0.43076 0.0
H4790 H 0.79745 0.36215 0.40465 0.0
H4791 H 0.7961 0.38255 0.42837 0.0
H4792 H 0.79178 0.32796 0.4011 0.0
H4793 H 0.85236 0.35483 0.39025 0.0
H4794 H 0.84917 0.34955 0.4097 0.0
H4795 H 0.84148 0.36592 0.40385 0.0
C4796 C 0.82329 0.36471 0.44372 0.0
C4797 C 0.8132 0.37548 0.44328 0.0
C4798 C 0.82399 0.35298 0.43016 0.0
C4799 C 0.81474 0.35201 0.41596 0.0
C4800 C 0.80462 0.36268 0.41556 0.0
H4801 H 0.81529 0.33004 0.31793 0.0
H4802 H 0.81945 0.33944 0.34688 0.0
C4803 C 0.80384 0.3743 0.42909 0.0
C4804 C 0.8156 0.34017 0.40125 0.0
H4805 H 0.83829 0.33331 0.37058 0.0
C4806 C 0.80201 0.32886 0.3945 0.0
C4807 C 0.82902 0.34144 0.39281 0.0
C4808 C 0.84384 0.35363 0.3994 0.0
C4809 C 0.80111 0.31961 0.37896 0.0
C4810 C 0.81431 0.32151 0.37017 0.0
C4811 C 0.82823 0.33191 0.37742 0.0
C4812 C 0.81321 0.31513 0.3527 0.0
C4813 C 0.78574 0.30887 0.37168 0.0
C4814 C 0.80862 0.29828 0.34636 0.0
C4815 C 0.80601 0.29285 0.32971 0.0
C4816 C 0.80812 0.30421 0.31923 0.0
C4817 C 0.81346 0.32098 0.32565 0.0
C4818 C 0.81592 0.32637 0.34221 0.0
H4819 H 0.77616 0.31085 0.37921 0.0
H4820 H 0.78289 0.31126 0.3595 0.0
H4821 H 0.78638 0.29578 0.37044 0.0
H4822 H 0.80678 0.28939 0.35426 0.0
H4823 H 0.80217 0.27982 0.32507 0.0
H4824 H 0.46703 0.07642 0.2294 0.0
H4825 H 0.48419 0.07459 0.20764 0.0
H4826 H 0.45578 0.02751 0.18554 0.0
H4827 H 0.43843 0.0294 0.20701 0.0
H4828 H 0.50041 0.04905 0.20052 0.0
H4829 H 0.46223 0.05263 0.1479 0.0
H4830 H 0.45825 0.05925 0.16841 0.0
H4831 H 0.45378 0.03779 0.15958 0.0
C4832 C 0.46427 0.06586 0.2197 0.0
C4833 C 0.45143 0.05304 0.21989 0.0
C4834 C 0.47411 0.06479 0.20737 0.0
C4835 C 0.47114 0.05098 0.19497 0.0
C4836 C 0.45812 0.03837 0.1949 0.0
H4837 H 0.52986 0.00756 0.13118 0.0
H4838 H 0.51405 0.01496 0.153 0.0
C4839 C 0.44832 0.0394 0.20723 0.0
C4840 C 0.48223 0.04913 0.18272 0.0
H4841 H 0.48533 0.04328 0.14224 0.0
C4842 C 0.49719 0.04796 0.18779 0.0
C4843 C 0.47797 0.04779 0.16616 0.0
C4844 C 0.46222 0.04957 0.16015 0.0
C4845 C 0.5079 0.04498 0.17663 0.0
C4846 C 0.50343 0.04302 0.16005 0.0
C4847 C 0.48864 0.04468 0.155 0.0
C4848 C 0.51387 0.03902 0.14767 0.0
C4849 C 0.52388 0.04392 0.18263 0.0
C4850 C 0.51895 0.05014 0.13755 0.0
C4851 C 0.52804 0.046 0.12518 0.0
C4852 C 0.53204 0.03059 0.12261 0.0
C4853 C 0.52715 0.0196 0.133 0.0
C4854 C 0.5181 0.02378 0.14542 0.0
H4855 H 0.5266 0.04934 0.19562 0.0
H4856 H 0.52464 0.03084 0.18095 0.0
H4857 H 0.53276 0.0503 0.1757 0.0
H4858 H 0.51578 0.06196 0.13915 0.0
H4859 H 0.53181 0.05482 0.11751 0.0
H4860 H 0.79015 0.75108 0.94382 0.0
H4861 H 0.79036 0.76093 0.91819 0.0
H4862 H 0.81387 0.72347 0.89809 0.0
H4863 H 0.81365 0.71344 0.92365 0.0
H4864 H 0.82237 0.76672 0.89689 0.0
H4865 H 0.76763 0.7225 0.87098 0.0
H4866 H 0.77095 0.73056 0.89234 0.0
H4867 H 0.78176 0.7163 0.88326 0.0
C4868 C 0.79539 0.74495 0.93396 0.0
C4869 C 0.80184 0.73144 0.93575 0.0
C4870 C 0.79556 0.75064 0.91938 0.0
C4871 C 0.80209 0.74288 0.90631 0.0
C4872 C 0.80882 0.72962 0.9081 0.0
H4873 H 0.79433 0.75078 0.80517 0.0
H4874 H 0.79626 0.74134 0.83084 0.0
C4875 C 0.80873 0.72397 0.92271 0.0
C4876 C 0.80135 0.74828 0.89062 0.0
H4877 H 0.77908 0.74107 0.85504 0.0
C4878 C 0.81295 0.76115 0.88769 0.0
C4879 C 0.78913 0.74081 0.87867 0.0
C4880 C 0.77659 0.72676 0.88132 0.0
C4881 C 0.81264 0.76679 0.873 0.0
C4882 C 0.80011 0.75967 0.86115 0.0
C4883 C 0.78862 0.74663 0.86411 0.0
C4884 C 0.79871 0.76544 0.84558 0.0
C4885 C 0.82596 0.78003 0.87024 0.0
C4886 C 0.7991 0.78206 0.84525 0.0
C4887 C 0.79819 0.78747 0.83058 0.0
C4888 C 0.79638 0.77629 0.81597 0.0
C4889 C 0.79544 0.7596 0.81627 0.0
C4890 C 0.79666 0.75423 0.83094 0.0
H4891 H 0.83658 0.78027 0.87788 0.0
H4892 H 0.8286 0.7783 0.85745 0.0
H4893 H 0.82293 0.79217 0.8735 0.0
H4894 H 0.80013 0.79088 0.85634 0.0
H4895 H 0.79881 0.80039 0.83067 0.0
H4896 H 0.87117 0.11941 0.99641 0.0
H4897 H 0.89117 0.10343 0.9928 0.0
H4898 H 0.87639 0.08015 0.03263 0.0
H4899 H 0.85604 0.09571 0.03602 0.0
H4900 H 0.9157 0.10106 0.01402 0.0
H4901 H 0.87364 0.04139 0.99518 0.0
H4902 H 0.86815 0.06088 0.99621 0.0
H4903 H 0.87104 0.05303 0.01429 0.0
C4904 C 0.87214 0.11085 0.00437 0.0
C4905 C 0.86191 0.1087 0.0164 0.0
C4906 C 0.88364 0.10182 1.00236 0.0
C4907 C 0.88509 0.09043 0.01228 0.0
C4908 C 0.87529 0.08868 0.02468 0.0
H4909 H 0.96261 0.04128 0.01403 0.0
H4910 H 0.94353 0.05777 0.02153 0.0
C4911 C 0.86377 0.09772 0.0267 0.0
C4912 C 0.89661 0.08011 0.0093 0.0
H4913 H 0.90006 0.04049 0.99765 0.0
C4914 C 0.91232 0.08781 0.01049 0.0
C4915 C 0.8921 0.06286 0.00451 0.0
C4916 C 0.87532 0.05401 1.00231 0.0
C4917 C 0.92368 0.07871 0.007 0.0
C4918 C 0.91919 0.06142 1.00243 0.0
C4919 C 0.90347 0.05373 1.00127 0.0
C4920 C 0.93055 0.05113 0.99816 0.0
C4921 C 0.94033 0.08774 0.00776 0.0
C4922 C 0.92928 0.0415 0.98271 0.0
C4923 C 0.94006 0.03197 0.97846 0.0
C4924 C 0.95233 0.0319 0.98958 0.0
C4925 C 0.95341 0.04131 0.00514 0.0
C4926 C 0.94256 0.05076 0.00942 0.0
H4927 H 0.94134 0.10099 0.00753 0.0
H4928 H 0.94651 0.08672 0.01914 0.0
H4929 H 0.9462 0.08234 0.99757 0.0
H4930 H 0.92007 0.04158 0.97386 0.0
H4931 H 0.93901 0.02495 0.96635 0.0
H4932 H 0.38373 0.43871 0.01536 0.0
H4933 H 0.41011 0.45454 0.01584 0.0
H4934 H 0.40818 0.4774 0.06505 0.0
H4935 H 0.38163 0.46168 0.06465 0.0
H4936 H 0.42037 0.48868 0.02158 0.0
H4937 H 0.44857 0.46094 0.06673 0.0
H4938 H 0.42954 0.45165 0.05684 0.0
H4939 H 0.43216 0.469 0.07298 0.0
C4940 C 0.38883 0.44718 0.02628 0.0
C4941 C 0.38049 0.44895 0.03995 0.0
C4942 C 0.40397 0.45615 0.02655 0.0
C4943 C 0.41119 0.46703 0.04052 0.0
C4944 C 0.40295 0.46884 0.05423 0.0
H4945 H 0.50437 0.531 0.05568 0.0
H4946 H 0.4778 0.51774 0.05947 0.0
C4947 C 0.38777 0.45985 0.05397 0.0
C4948 C 0.42717 0.47675 0.04043 0.0
H4949 H 0.46432 0.48258 0.05688 0.0
C4950 C 0.42997 0.48738 0.02934 0.0
C4951 C 0.43968 0.4751 0.05061 0.0
C4952 C 0.43744 0.46347 0.06239 0.0
C4953 C 0.44492 0.49628 0.02803 0.0
C4954 C 0.45747 0.49433 0.03792 0.0
C4955 C 0.45466 0.48404 0.04932 0.0
C4956 C 0.47366 0.50218 0.03592 0.0
C4957 C 0.4472 0.5077 0.01605 0.0
C4958 C 0.48021 0.4976 0.02156 0.0
C4959 C 0.49532 0.50513 0.01936 0.0
C4960 C 0.50423 0.51744 0.03147 0.0
C4961 C 0.49776 0.52175 0.04602 0.0
C4962 C 0.48261 0.51414 0.04824 0.0
H4963 H 0.43622 0.51101 0.01243 0.0
H4964 H 0.45589 0.51914 0.02108 0.0
H4965 H 0.45149 0.50154 0.00508 0.0
H4966 H 0.47359 0.48821 0.01201 0.0
H4967 H 0.49991 0.5014 0.00804 0.0
H4968 H 0.35833 0.63114 0.76598 0.0
H4969 H 0.34542 0.65389 0.76522 0.0
H4970 H 0.38824 0.68837 0.78222 0.0
H4971 H 0.40141 0.66582 0.78225 0.0
H4972 H 0.33817 0.67775 0.78522 0.0
H4973 H 0.37765 0.70995 0.74691 0.0
H4974 H 0.37866 0.68979 0.75041 0.0
H4975 H 0.38773 0.70779 0.765 0.0
C4976 C 0.36526 0.64349 0.76933 0.0
C4977 C 0.38131 0.64602 0.77404 0.0
C4978 C 0.35765 0.65675 0.76904 0.0
C4979 C 0.36559 0.67341 0.77331 0.0
C4980 C 0.38153 0.67598 0.77832 0.0
H4981 H 0.31539 0.7577 0.79274 0.0
H4982 H 0.32746 0.73441 0.79551 0.0
C4983 C 0.38916 0.66274 0.77859 0.0
C4984 C 0.35729 0.68781 0.77264 0.0
H4985 H 0.35988 0.72453 0.75916 0.0
C4986 C 0.34303 0.68792 0.77948 0.0
C4987 C 0.36305 0.70139 0.76501 0.0
C4988 C 0.37751 0.7022 0.75627 0.0
C4989 C 0.3348 0.70079 0.7791 0.0
C4990 C 0.34081 0.7146 0.77188 0.0
C4991 C 0.35498 0.71437 0.76492 0.0
C4992 C 0.33244 0.72885 0.77055 0.0
C4993 C 0.31935 0.69905 0.786 0.0
C4994 C 0.33099 0.73434 0.7558 0.0
C4995 C 0.32408 0.74777 0.75426 0.0
C4996 C 0.31807 0.75657 0.76732 0.0
C4997 C 0.31936 0.75117 0.78218 0.0
C4998 C 0.32637 0.73763 0.78374 0.0
H4999 H 0.31427 0.68608 0.78672 0.0
H5000 H 0.32083 0.70637 0.79838 0.0
H5001 H 0.31109 0.70358 0.77861 0.0
H5002 H 0.33533 0.72825 0.74524 0.0
H5003 H 0.32363 0.75146 0.74263 0.0
H5004 H 0.2137 0.56744 0.50805 0.0
H5005 H 0.18631 0.55793 0.5121 0.0
H5006 H 0.17842 0.60601 0.5094 0.0
H5007 H 0.20545 0.61555 0.50549 0.0
H5008 H 0.17089 0.57103 0.53754 0.0
H5009 H 0.14342 0.57585 0.47892 0.0
H5010 H 0.16366 0.57565 0.4819 0.0
H5011 H 0.15709 0.59436 0.48777 0.0
C5012 C 0.20603 0.57586 0.5081 0.0
C5013 C 0.21167 0.59216 0.50623 0.0
C5014 C 0.19046 0.57044 0.5104 0.0
C5015 C 0.18037 0.58123 0.51079 0.0
C5016 C 0.18594 0.59739 0.5087 0.0
H5017 H 0.09024 0.59007 0.53693 0.0
H5018 H 0.11833 0.5944 0.53523 0.0
C5019 C 0.20141 0.60279 0.50639 0.0
C5020 C 0.16422 0.57621 0.51444 0.0
H5021 H 0.12734 0.57598 0.50098 0.0
C5022 C 0.16132 0.57186 0.52948 0.0
C5023 C 0.15181 0.57727 0.50383 0.0
C5024 C 0.15413 0.58087 0.48714 0.0
C5025 C 0.14631 0.56922 0.53444 0.0
C5026 C 0.13413 0.57116 0.52415 0.0
C5027 C 0.13691 0.57493 0.50894 0.0
C5028 C 0.11814 0.56855 0.52848 0.0
C5029 C 0.14346 0.56468 0.55068 0.0
C5030 C 0.10905 0.55263 0.5255 0.0
C5031 C 0.09315 0.5502 0.5262 0.0
C5032 C 0.08613 0.56361 0.53021 0.0
C5033 C 0.09542 0.57953 0.53402 0.0
C5034 C 0.11138 0.582 0.5331 0.0
H5035 H 0.15436 0.56476 0.55777 0.0
H5036 H 0.13731 0.57334 0.55764 0.0
H5037 H 0.13588 0.55222 0.54902 0.0
H5038 H 0.11412 0.54217 0.52168 0.0
H5039 H 0.0864 0.53785 0.52285 0.0
H5040 H 0.71041 0.94963 0.76079 0.0
H5041 H 0.72168 0.92603 0.76298 0.0
H5042 H 0.7455 0.93247 0.72053 0.0
H5043 H 0.73412 0.95625 0.71824 0.0
H5044 H 0.72386 0.89515 0.7384 0.0
H5045 H 0.77883 0.94071 0.76119 0.0
H5046 H 0.76058 0.94694 0.76094 0.0
H5047 H 0.76878 0.94145 0.7424 0.0
C5048 C 0.71784 0.94583 0.75177 0.0
C5049 C 0.72162 0.9548 0.73949 0.0
C5050 C 0.72415 0.93231 0.75295 0.0
C5051 C 0.73441 0.92763 0.74194 0.0
C5052 C 0.73755 0.93596 0.72909 0.0
H5053 H 0.79778 0.87582 0.78152 0.0
H5054 H 0.78602 0.88827 0.76168 0.0
C5055 C 0.73109 0.94947 0.72781 0.0
C5056 C 0.74325 0.91558 0.74556 0.0
H5057 H 0.77633 0.91437 0.76693 0.0
C5058 C 0.7355 0.89916 0.74427 0.0
C5059 C 0.75845 0.9209 0.75305 0.0
C5060 C 0.76724 0.93845 0.75456 0.0
C5061 C 0.74229 0.88808 0.75116 0.0
C5062 C 0.7569 0.89383 0.76006 0.0
C5063 C 0.76507 0.90996 0.76026 0.0
C5064 C 0.76335 0.88407 0.77057 0.0
C5065 C 0.73356 0.87047 0.74908 0.0
C5066 C 0.75451 0.87742 0.78215 0.0
C5067 C 0.76109 0.8698 0.79325 0.0
C5068 C 0.77678 0.8691 0.79332 0.0
C5069 C 0.78559 0.87581 0.7817 0.0
C5070 C 0.77891 0.88306 0.77037 0.0
H5071 H 0.72652 0.86662 0.7373 0.0
H5072 H 0.74147 0.86199 0.74984 0.0
H5073 H 0.72547 0.8693 0.75863 0.0
H5074 H 0.74262 0.87851 0.78295 0.0
H5075 H 0.75387 0.86454 0.80183 0.0
H5076 H 0.74408 0.96023 0.54414 0.0
H5077 H 0.72309 0.97448 0.54228 0.0
H5078 H 0.69554 0.93187 0.51065 0.0
H5079 H 0.71604 0.91703 0.51342 0.0
H5080 H 0.71139 0.9835 0.5177 0.0
H5081 H 0.66385 0.94217 0.54011 0.0
H5082 H 0.68363 0.94004 0.54204 0.0
H5083 H 0.67177 0.93164 0.52342 0.0
C5084 C 0.73344 0.95364 0.53711 0.0
C5085 C 0.73187 0.93733 0.52903 0.0
C5086 C 0.72144 0.96193 0.53593 0.0
C5087 C 0.70755 0.95423 0.52653 0.0
C5088 C 0.70594 0.938 0.51834 0.0
H5089 H 0.64729 0.00942 0.48729 0.0
H5090 H 0.66515 0.99184 0.4917 0.0
C5091 C 0.71786 0.9296 0.5197 0.0
C5092 C 0.69526 0.96361 0.52455 0.0
H5093 H 0.65663 0.96254 0.52665 0.0
C5094 C 0.69945 0.97891 0.51977 0.0
C5095 C 0.67965 0.95784 0.52746 0.0
C5096 C 0.67448 0.94211 0.53371 0.0
C5097 C 0.68855 0.98842 0.51758 0.0
C5098 C 0.67282 0.98227 0.51966 0.0
C5099 C 0.66863 0.96715 0.52479 0.0
C5100 C 0.66067 0.99145 0.51656 0.0
C5101 C 0.69412 0.00514 0.51334 0.0
C5102 C 0.65148 0.99634 0.52875 0.0
C5103 C 0.64105 0.00624 0.52617 0.0
C5104 C 0.63967 0.01147 0.51135 0.0
C5105 C 0.64831 0.00586 0.49893 0.0
C5106 C 0.65858 0.99586 0.50146 0.0
H5107 H 0.70664 0.01001 0.51703 0.0
H5108 H 0.6924 1.00417 0.50011 0.0
H5109 H 0.68763 0.0141 0.51918 0.0
H5110 H 0.65278 0.99299 0.54046 0.0
H5111 H 0.63455 0.01037 0.53596 0.0
H5112 H 0.35499 0.481 0.76244 0.0
H5113 H 0.34224 0.4523 0.76218 0.0
H5114 H 0.38635 0.44114 0.77295 0.0
H5115 H 0.39916 0.46975 0.77338 0.0
H5116 H 0.34655 0.42239 0.7427 0.0
H5117 H 0.36037 0.42238 0.80728 0.0
H5118 H 0.36186 0.44111 0.7994 0.0
H5119 H 0.37668 0.42956 0.79663 0.0
C5120 C 0.36204 0.47254 0.76491 0.0
C5121 C 0.37826 0.47803 0.76795 0.0
C5122 C 0.35468 0.45597 0.76466 0.0
C5123 C 0.36317 0.4443 0.76772 0.0
C5124 C 0.37934 0.44973 0.77075 0.0
H5125 H 0.34019 0.34015 0.77825 0.0
H5126 H 0.35248 0.36864 0.77762 0.0
C5127 C 0.38673 0.46622 0.77083 0.0
C5128 C 0.35524 0.42651 0.76753 0.0
H5129 H 0.34901 0.39674 0.79095 0.0
C5130 C 0.34705 0.41683 0.75329 0.0
C5131 C 0.35586 0.41893 0.78122 0.0
C5132 C 0.36404 0.42851 0.79706 0.0
C5133 C 0.33991 0.39999 0.75224 0.0
C5134 C 0.34032 0.39241 0.76602 0.0
C5135 C 0.3485 0.40219 0.78028 0.0
C5136 C 0.33261 0.37449 0.76595 0.0
C5137 C 0.33256 0.39041 0.73606 0.0
C5138 C 0.31714 0.36768 0.75966 0.0
C5139 C 0.31012 0.3511 0.75971 0.0
C5140 C 0.31807 0.34071 0.76652 0.0
C5141 C 0.3335 0.34754 0.77292 0.0
C5142 C 0.3406 0.36405 0.77263 0.0
H5143 H 0.33773 0.39601 0.72607 0.0
H5144 H 0.33384 0.37748 0.73433 0.0
H5145 H 0.32007 0.39051 0.73516 0.0
H5146 H 0.3103 0.37523 0.75483 0.0
H5147 H 0.29839 0.34646 0.75438 0.0
H5148 H 0.23359 0.62315 0.27834 0.0
H5149 H 0.24843 0.65114 0.28079 0.0
H5150 H 0.27376 0.6359 0.24084 0.0
H5151 H 0.25882 0.6076 0.23827 0.0
H5152 H 0.28013 0.6657 0.28519 0.0
H5153 H 0.25275 0.67043 0.2259 0.0
H5154 H 0.24579 0.65349 0.2359 0.0
H5155 H 0.26343 0.6546 0.22621 0.0
C5156 C 0.24256 0.62562 0.2703 0.0
C5157 C 0.24501 0.61321 0.25806 0.0
C5158 C 0.251 0.64164 0.27169 0.0
C5159 C 0.26203 0.64556 0.26088 0.0
C5160 C 0.2651 0.6331 0.24912 0.0
H5161 H 0.30754 0.75008 0.27702 0.0
H5162 H 0.30443 0.72039 0.27206 0.0
C5163 C 0.25657 0.617 0.24767 0.0
C5164 C 0.26915 0.66299 0.26134 0.0
H5165 H 0.26664 0.6947 0.24209 0.0
C5166 C 0.2775 0.67206 0.27566 0.0
C5167 C 0.26554 0.67115 0.24887 0.0
C5168 C 0.25632 0.66201 0.23336 0.0
C5169 C 0.28157 0.68924 0.27824 0.0
C5170 C 0.27737 0.69741 0.26603 0.0
C5171 C 0.26981 0.6883 0.25137 0.0
C5172 C 0.27946 0.71539 0.2687 0.0
C5173 C 0.28945 0.6985 0.29435 0.0
C5174 C 0.26646 0.72239 0.2683 0.0
C5175 C 0.26826 0.7394 0.27073 0.0
C5176 C 0.28309 0.74957 0.27317 0.0
C5177 C 0.29603 0.74256 0.27424 0.0
C5178 C 0.29426 0.72557 0.27173 0.0
H5179 H 0.28905 0.69047 0.30349 0.0
H5180 H 0.30177 0.70364 0.29297 0.0
H5181 H 0.28401 0.70888 0.29892 0.0
H5182 H 0.25492 0.71468 0.26613 0.0
H5183 H 0.2581 0.74459 0.27027 0.0
H5184 H 0.54436 0.69008 0.45113 0.0
H5185 H 0.5468 0.66622 0.46283 0.0
H5186 H 0.50831 0.67193 0.49069 0.0
H5187 H 0.50596 0.69615 0.47932 0.0
H5188 H 0.55214 0.66333 0.49541 0.0
H5189 H 0.49605 0.62351 0.46764 0.0
H5190 H 0.50471 0.6421 0.46078 0.0
H5191 H 0.49512 0.64321 0.479 0.0
C5192 C 0.53648 0.68648 0.45989 0.0
C5193 C 0.52496 0.69528 0.46422 0.0
C5194 C 0.53785 0.67269 0.46652 0.0
C5195 C 0.52767 0.66707 0.47758 0.0
C5196 C 0.51617 0.67578 0.482 0.0
H5197 H 0.53828 0.58633 0.53039 0.0
H5198 H 0.53592 0.61368 0.52529 0.0
C5199 C 0.51482 0.68967 0.47541 0.0
C5200 C 0.52922 0.65214 0.48435 0.0
H5201 H 0.51123 0.61224 0.48443 0.0
C5202 C 0.5431 0.65223 0.49318 0.0
C5203 C 0.51752 0.63754 0.48137 0.0
C5204 C 0.50253 0.63642 0.47159 0.0
C5205 C 0.54563 0.63818 0.49888 0.0
C5206 C 0.53406 0.62351 0.49567 0.0
C5207 C 0.52008 0.62349 0.48706 0.0
C5208 C 0.53681 0.60761 0.49949 0.0
C5209 C 0.56101 0.63878 0.50752 0.0
C5210 C 0.53831 0.59515 0.48683 0.0
C5211 C 0.53982 0.57975 0.48974 0.0
C5212 C 0.53991 0.57625 0.50541 0.0
C5213 C 0.53863 0.58875 0.51824 0.0
C5214 C 0.53719 0.60434 0.5153 0.0
H5215 H 0.56884 0.65111 0.5092 0.0
H5216 H 0.55927 0.6354 0.51951 0.0
H5217 H 0.56667 0.62971 0.50048 0.0
H5218 H 0.53804 0.59727 0.47455 0.0
H5219 H 0.5406 0.57036 0.47957 0.0
H5220 H 0.6548 0.28857 0.65237 0.0
H5221 H 0.6783 0.28565 0.6669 0.0
H5222 H 0.67802 0.32962 0.70093 0.0
H5223 H 0.65427 0.33239 0.68672 0.0
H5224 H 0.7076 0.30617 0.67388 0.0
H5225 H 0.68106 0.2969 0.73048 0.0
H5226 H 0.66966 0.29579 0.71191 0.0
H5227 H 0.67875 0.3154 0.72392 0.0
C5228 C 0.65959 0.29756 0.66304 0.0
C5229 C 0.65238 0.31065 0.66838 0.0
C5230 C 0.67317 0.29593 0.6713 0.0
C5231 C 0.67992 0.30723 0.68524 0.0
C5232 C 0.67296 0.32051 0.69042 0.0
H5233 H 0.75863 0.31736 0.75486 0.0
H5234 H 0.73624 0.32046 0.7388 0.0
C5235 C 0.65941 0.32219 0.68214 0.0
C5236 C 0.69416 0.30511 0.69431 0.0
H5237 H 0.70824 0.30013 0.73115 0.0
C5238 C 0.7077 0.30478 0.68638 0.0
C5239 C 0.69442 0.30325 0.71065 0.0
C5240 C 0.68017 0.30269 0.71974 0.0
C5241 C 0.72148 0.30309 0.6944 0.0
C5242 C 0.72175 0.30128 0.71077 0.0
C5243 C 0.70817 0.30152 0.71864 0.0
C5244 C 0.73599 0.29949 0.72013 0.0
C5245 C 0.73576 0.30376 0.68535 0.0
C5246 C 0.74356 0.28664 0.71515 0.0
C5247 C 0.75648 0.28476 0.72444 0.0
C5248 C 0.76207 0.29559 0.73907 0.0
C5249 C 0.75458 0.30855 0.74387 0.0
C5250 C 0.74173 0.31041 0.73461 0.0
H5251 H 0.7349 0.30969 0.6747 0.0
H5252 H 0.74626 0.31058 0.69323 0.0
H5253 H 0.73718 0.29107 0.68103 0.0
H5254 H 0.73927 0.2778 0.70423 0.0
H5255 H 0.76186 0.27461 0.72034 0.0
H5256 H 0.04896 0.36874 0.95919 0.0
H5257 H 0.05048 0.39786 0.96913 0.0
H5258 H 0.0064 0.38619 0.98853 0.0
H5259 H 0.00488 0.35691 0.97892 0.0
H5260 H 0.00868 0.41135 0.97034 0.0
H5261 H 0.05906 0.42392 0.01548 0.0
H5262 H 0.06251 0.41385 0.99597 0.0
H5263 H 0.04828 0.40338 0.00724 0.0
C5264 C 0.0397 0.37225 0.96586 0.0
C5265 C 0.02683 0.3603 0.96827 0.0
C5266 C 0.04059 0.38899 0.97152 0.0
C5267 C 0.02865 0.39427 0.97978 0.0
C5268 C 0.01578 0.38244 0.98224 0.0
H5269 H 0.04104 0.49815 0.02601 0.0
H5270 H 0.03429 0.46804 0.02144 0.0
C5271 C 0.01491 0.36567 0.97664 0.0
C5272 C 0.02935 0.41216 0.98515 0.0
H5273 H 0.05173 0.4473 0.0077 0.0
C5274 C 0.01801 0.41918 0.97864 0.0
C5275 C 0.04137 0.4224 0.99618 0.0
C5276 C 0.05342 0.41551 0.00426 0.0
C5277 C 0.01874 0.43619 0.98229 0.0
C5278 C 0.03124 0.44657 0.99263 0.0
C5279 C 0.0422 0.43944 0.99969 0.0
C5280 C 0.03373 0.46487 0.99547 0.0
C5281 C 0.00612 0.44285 0.97492 0.0
C5282 C 0.03559 0.47321 0.98246 0.0
C5283 C 0.0393 0.49039 0.98506 0.0
C5284 C 0.04116 0.49968 1.00072 0.0
C5285 C 0.03921 0.49139 0.01379 0.0
C5286 C 0.03549 0.47414 0.01118 0.0
H5287 H 0.99513 0.43344 0.97222 0.0
H5288 H 0.00399 0.45379 0.98297 0.0
H5289 H 0.00963 0.44648 0.96341 0.0
H5290 H 0.03472 0.46644 0.97027 0.0
H5291 H 0.04108 0.49645 0.9748 0.0
H5292 H 0.01098 0.82322 0.18778 0.0
H5293 H 0.98695 0.82081 0.20103 0.0
H5294 H 0.96417 0.78233 0.16203 0.0
H5295 H 0.98809 0.78473 0.14861 0.0
H5296 H 0.95808 0.82487 0.19091 0.0
H5297 H 0.95402 0.76109 0.20097 0.0
H5298 H 0.97138 0.77314 0.19513 0.0
H5299 H 0.95544 0.76349 0.18038 0.0
C5300 C 1.00086 0.81429 0.18192 0.0
C5301 C 1.00163 0.80411 0.16709 0.0
C5302 C 0.9871 0.81288 0.18958 0.0
C5303 C 0.97373 0.80121 0.18271 0.0
C5304 C 0.97437 0.79117 0.16783 0.0
H5305 H 0.88193 0.77687 0.22003 0.0
H5306 H 0.90267 0.77937 0.20168 0.0
C5307 C 0.98813 0.79256 0.16015 0.0
C5308 C 0.95915 0.79973 0.19108 0.0
H5309 H 0.9331 0.77332 0.20819 0.0
C5310 C 0.95263 0.81358 0.19465 0.0
C5311 C 0.95189 0.78498 0.19593 0.0
C5312 C 0.95858 0.76985 0.19305 0.0
C5313 C 0.93921 0.81311 0.20297 0.0
C5314 C 0.93216 0.79847 0.2081 0.0
C5315 C 0.93844 0.78452 0.20421 0.0
C5316 C 0.91902 0.79777 0.21857 0.0
C5317 C 0.93265 0.8283 0.20618 0.0
C5318 C 0.92122 0.80732 0.23412 0.0
C5319 C 0.90947 0.80584 0.24458 0.0
C5320 C 0.89516 0.7948 0.23978 0.0
C5321 C 0.89275 0.78559 0.22403 0.0
C5322 C 0.90463 0.78695 0.21358 0.0
H5323 H 0.9366 0.83678 0.1978 0.0
H5324 H 0.91982 0.82506 0.20505 0.0
H5325 H 0.9366 0.83494 0.21864 0.0
H5326 H 0.93224 0.81559 0.23838 0.0
H5327 H 0.9117 0.81311 0.25662 0.0
H5328 H 0.53671 0.35932 0.12483 0.0
H5329 H 0.5419 0.37994 0.10753 0.0
H5330 H 0.50288 0.35297 0.07466 0.0
H5331 H 0.49763 0.33222 0.09182 0.0
H5332 H 0.53616 0.36302 0.06263 0.0
H5333 H 0.51183 0.41274 0.09694 0.0
H5334 H 0.52268 0.40165 0.10792 0.0
H5335 H 0.50434 0.39131 0.09743 0.0
C5336 C 0.5292 0.35781 0.11395 0.0
C5337 C 0.51678 0.34413 0.10966 0.0
C5338 C 0.53214 0.36963 0.10415 0.0
C5339 C 0.52274 0.36793 0.0899 0.0
C5340 C 0.5102 0.35447 0.08568 0.0
H5341 H 0.52101 0.4371 0.02567 0.0
H5342 H 0.51478 0.41698 0.04332 0.0
C5343 C 0.50718 0.3427 0.09553 0.0
C5344 C 0.52649 0.37979 0.07899 0.0
H5345 H 0.52456 0.41848 0.0741 0.0
C5346 C 0.53363 0.37515 0.06507 0.0
C5347 C 0.52304 0.39549 0.08225 0.0
C5348 C 0.51498 0.40071 0.0969 0.0
C5349 C 0.53751 0.38591 0.05425 0.0
C5350 C 0.53436 0.40181 0.05764 0.0
C5351 C 0.52706 0.40634 0.07156 0.0
C5352 C 0.53823 0.41382 0.04678 0.0
C5353 C 0.54464 0.37997 0.03916 0.0
C5354 C 0.5535 0.41881 0.04292 0.0
C5355 C 0.55702 0.4301 0.03264 0.0
C5356 C 0.54539 0.43687 0.02634 0.0
C5357 C 0.53018 0.43207 0.0304 0.0
C5358 C 0.52663 0.42061 0.04048 0.0
H5359 H 0.54217 0.36634 0.03614 0.0
H5360 H 0.54035 0.38468 0.02873 0.0
H5361 H 0.55738 0.38443 0.04106 0.0
H5362 H 0.56273 0.41411 0.048 0.0
H5363 H 0.56889 0.43384 0.02991 0.0
H5364 H 0.99865 0.28917 0.34307 0.0
H5365 H 0.97441 0.29135 0.32918 0.0
H5366 H 0.9947 0.34129 0.32547 0.0
H5367 H 0.01891 0.33924 0.33942 0.0
H5368 H 0.9576 0.31869 0.34127 0.0
H5369 H 0.97436 0.31544 0.27848 0.0
H5370 H 0.98366 0.30664 0.29325 0.0
H5371 H 0.98806 0.32843 0.29417 0.0
C5372 C 0.99796 0.30053 0.33911 0.0
C5373 C 0.01059 0.31406 0.34232 0.0
C5374 C 0.98415 0.30177 0.33125 0.0
C5375 C 0.98289 0.31644 0.32625 0.0
C5376 C 0.99556 0.32984 0.32916 0.0
H5377 H 0.90625 0.35821 0.30251 0.0
H5378 H 0.93046 0.35242 0.31276 0.0
C5379 C 0.00929 0.32869 0.33718 0.0
C5380 C 0.96807 0.31815 0.31884 0.0
H5381 H 0.95051 0.32295 0.28372 0.0
C5382 C 0.95597 0.31951 0.32867 0.0
C5383 C 0.96605 0.3191 0.3024 0.0
C5384 C 0.97865 0.31723 0.29135 0.0
C5385 C 0.94198 0.32229 0.32255 0.0
C5386 C 0.94015 0.32381 0.30623 0.0
C5387 C 0.95207 0.32193 0.29627 0.0
C5388 C 0.92594 0.32753 0.2994 0.0
C5389 C 0.92926 0.32364 0.33356 0.0
C5390 C 0.91565 0.31555 0.28824 0.0
C5391 C 0.90184 0.31882 0.28237 0.0
C5392 C 0.89821 0.33418 0.28746 0.0
C5393 C 0.9088 0.34632 0.29829 0.0
C5394 C 0.92255 0.343 0.30424 0.0
H5395 H 0.93133 0.31901 0.34481 0.0
H5396 H 0.92859 0.33672 0.33686 0.0
H5397 H 0.91791 0.31668 0.32738 0.0
H5398 H 0.91815 0.30358 0.28434 0.0
H5399 H 0.89396 0.3093 0.27391 0.0
H5400 H 0.99059 0.68866 0.57894 0.0
H5401 H 0.9922 0.66036 0.56919 0.0
H5402 H 0.97982 0.64782 0.61487 0.0
H5403 H 0.97913 0.67632 0.62507 0.0
H5404 H 0.00555 0.63923 0.60743 0.0
H5405 H 0.96382 0.61673 0.55397 0.0
H5406 H 0.97574 0.63608 0.55226 0.0
H5407 H 0.96314 0.63493 0.56832 0.0
C5408 C 0.98801 0.67985 0.58686 0.0
C5409 C 0.98491 0.68485 0.60285 0.0
C5410 C 0.98867 0.66357 0.58117 0.0
C5411 C 0.98594 0.65188 0.59123 0.0
C5412 C 0.98186 0.6566 0.60686 0.0
H5413 H 0.01804 0.55879 0.56549 0.0
H5414 H 1.00335 0.57765 0.57982 0.0
C5415 C 0.98136 0.67292 0.61263 0.0
C5416 C 0.98975 0.63564 0.58628 0.0
H5417 H 0.98684 0.60483 0.55384 0.0
C5418 C 1.00109 0.63141 0.59593 0.0
C5419 C 0.98387 0.62536 0.57134 0.0
C5420 C 0.97084 0.62845 0.561 0.0
C5421 C 0.00767 0.61803 0.59041 0.0
C5422 C 1.00277 0.60873 0.57488 0.0
C5423 C 0.99063 0.61214 0.56573 0.0
C5424 C 0.01172 0.59729 0.56697 0.0
C5425 C 0.02062 0.61464 0.60063 0.0
C5426 C 0.02142 0.60232 0.55538 0.0
C5427 C 0.02983 0.59175 0.54741 0.0
C5428 C 0.02856 0.57593 0.55079 0.0
C5429 C 0.01923 0.57102 0.56279 0.0
C5430 C 0.01078 0.58167 0.57084 0.0
H5431 H 0.02318 0.62315 0.61243 0.0
H5432 H 0.0175 0.60186 0.60282 0.0
H5433 H 0.03127 0.61579 0.59415 0.0
H5434 H 0.02245 0.61445 0.55246 0.0
H5435 H 0.03733 0.59597 0.53862 0.0
H5436 H 0.66636 0.83785 0.85186 0.0
H5437 H 0.69019 0.83984 0.83837 0.0
H5438 H 0.66787 0.79902 0.80131 0.0
H5439 H 0.64387 0.79703 0.81463 0.0
H5440 H 0.69487 0.79499 0.81674 0.0
H5441 H 0.70447 0.85504 0.79666 0.0
H5442 H 0.7003 0.85578 0.81731 0.0
H5443 H 0.68581 0.84474 0.8015 0.0
C5444 C 0.66637 0.82957 0.84061 0.0
C5445 C 0.65322 0.81722 0.83435 0.0
C5446 C 0.68001 0.83076 0.83289 0.0
C5447 C 0.68073 0.81971 0.81875 0.0
C5448 C 0.6675 0.80773 0.81218 0.0
H5449 H 0.75989 0.82383 0.76158 0.0
H5450 H 0.73525 0.82623 0.77264 0.0
C5451 C 0.65385 0.80652 0.81987 0.0
C5452 C 0.69573 0.81927 0.81199 0.0
H5453 H 0.72565 0.8418 0.79608 0.0
C5454 C 0.70155 0.80514 0.81204 0.0
C5455 C 0.7044 0.83257 0.80598 0.0
C5456 C 0.69841 0.84786 0.8052 0.0
C5457 C 0.71584 0.80384 0.80627 0.0
C5458 C 0.72481 0.81728 0.80051 0.0
C5459 C 0.71888 0.83146 0.80043 0.0
C5460 C 0.74011 0.81673 0.79417 0.0
C5461 C 0.72084 0.78789 0.80647 0.0
C5462 C 0.75137 0.81125 0.80273 0.0
C5463 C 0.76477 0.80866 0.79579 0.0
C5464 C 0.76769 0.81257 0.78062 0.0
C5465 C 0.75741 0.81991 0.77288 0.0
C5466 C 0.74349 0.82153 0.77936 0.0
H5467 H 0.71073 0.77735 0.80461 0.0
H5468 H 0.72876 0.78546 0.79715 0.0
H5469 H 0.72684 0.78842 0.81844 0.0
H5470 H 0.74961 0.8085 0.81462 0.0
H5471 H 0.77298 0.80383 0.80241 0.0
H5472 H 0.45504 0.57704 0.67818 0.0
H5473 H 0.46668 0.57391 0.65246 0.0
H5474 H 0.49932 0.54986 0.67249 0.0
H5475 H 0.48731 0.55237 0.69791 0.0
H5476 H 0.4915 0.58399 0.64056 0.0
H5477 H 0.48898 0.51756 0.63295 0.0
H5478 H 0.47988 0.52804 0.64882 0.0
H5479 H 0.50025 0.52826 0.65119 0.0
C5480 C 0.46467 0.57102 0.6772 0.0
C5481 C 0.46992 0.56483 0.69049 0.0
C5482 C 0.47143 0.56919 0.66226 0.0
C5483 C 0.48387 0.56117 0.6598 0.0
C5484 C 0.48941 0.55546 0.67328 0.0
H5485 H 0.54125 0.57377 0.57599 0.0
H5486 H 0.53015 0.577 0.60195 0.0
C5487 C 0.48251 0.55704 0.68812 0.0
C5488 C 0.49109 0.55916 0.64347 0.0
H5489 H 0.50442 0.5318 0.61544 0.0
C5490 C 0.49422 0.57248 0.63517 0.0
C5491 C 0.49462 0.54418 0.63569 0.0
C5492 C 0.49061 0.52866 0.64252 0.0
C5493 C 0.50074 0.5714 0.62 0.0
C5494 C 0.50494 0.55666 0.61261 0.0
C5495 C 0.5016 0.54327 0.62079 0.0
C5496 C 0.5123 0.55465 0.59637 0.0
C5497 C 0.50248 0.58609 0.61183 0.0
C5498 C 0.50679 0.5407 0.58412 0.0
C5499 C 0.51352 0.53861 0.56921 0.0
C5500 C 0.52618 0.55033 0.56572 0.0
C5501 C 0.53171 0.56428 0.57795 0.0
C5502 C 0.52507 0.56629 0.59294 0.0
H5503 H 0.49425 0.59388 0.61593 0.0
H5504 H 0.51434 0.59375 0.61494 0.0
H5505 H 0.50049 0.58234 0.59855 0.0
H5506 H 0.49709 0.53132 0.586 0.0
H5507 H 0.50874 0.52764 0.56037 0.0
H5508 H 0.79736 0.18815 0.93873 0.0
H5509 H 0.79412 0.20716 0.9206 0.0
H5510 H 0.75472 0.21796 0.9446 0.0
H5511 H 0.7579 0.19907 0.96284 0.0
H5512 H 0.76397 0.2072 0.90035 0.0
H5513 H 0.78862 0.26311 0.94655 0.0
H5514 H 0.793 0.2434 0.94765 0.0
H5515 H 0.7744 0.2471 0.9523 0.0
C5516 C 0.78799 0.19455 0.9401 0.0
C5517 C 0.77789 0.19217 0.95219 0.0
C5518 C 0.78612 0.20531 0.92972 0.0
C5519 C 0.77425 0.21396 0.9314 0.0
C5520 C 0.76397 0.21139 0.94322 0.0
H5521 H 0.74704 0.27787 0.8694 0.0
H5522 H 0.74667 0.25914 0.88869 0.0
C5523 C 0.76575 0.20054 0.95352 0.0
C5524 C 0.77291 0.22603 0.92104 0.0
H5525 H 0.78024 0.26719 0.92098 0.0
C5526 C 0.76741 0.22032 0.90484 0.0
C5527 C 0.77753 0.24307 0.92703 0.0
C5528 C 0.78381 0.24966 0.94431 0.0
C5529 C 0.76643 0.23133 0.89438 0.0
C5530 C 0.77109 0.24837 0.90036 0.0
C5531 C 0.77655 0.25408 0.91656 0.0
C5532 C 0.77129 0.26039 0.88963 0.0
C5533 C 0.76078 0.22477 0.87693 0.0
C5534 C 0.7853 0.26742 0.88414 0.0
C5535 C 0.78554 0.278 0.87316 0.0
C5536 C 0.77178 0.28182 0.86763 0.0
C5537 C 0.75781 0.27521 0.8736 0.0
C5538 C 0.75757 0.26448 0.8845 0.0
H5539 H 0.75867 0.21116 0.87393 0.0
H5540 H 0.74984 0.22855 0.87417 0.0
H5541 H 0.76937 0.23006 0.86907 0.0
H5542 H 0.79599 0.26439 0.88806 0.0
H5543 H 0.79646 0.28303 0.86881 0.0
H5544 H 0.12661 0.54707 0.17457 0.0
H5545 H 0.10774 0.54227 0.15141 0.0
H5546 H 0.10315 0.48999 0.14715 0.0
H5547 H 0.12186 0.49465 0.17067 0.0
H5548 H 0.11007 0.50284 0.11865 0.0
H5549 H 0.06036 0.52364 0.14576 0.0
H5550 H 0.0785 0.53771 0.15256 0.0
H5551 H 0.07508 0.51743 0.15731 0.0
C5552 C 0.12135 0.53453 0.16896 0.0
C5553 C 0.1257 0.52123 0.17444 0.0
C5554 C 0.11054 0.53182 0.15576 0.0
C5555 C 0.1039 0.51578 0.14782 0.0
C5556 C 0.10809 0.50244 0.15328 0.0
H5557 H 0.0409 0.51065 0.06246 0.0
H5558 H 0.05067 0.50261 0.08677 0.0
C5559 C 0.11886 0.50514 0.16657 0.0
C5560 C 0.09383 0.51329 0.13286 0.0
H5561 H 0.06239 0.52478 0.11754 0.0
C5562 C 0.09942 0.50721 0.11838 0.0
C5563 C 0.07988 0.51883 0.13262 0.0
C5564 C 0.073 0.52462 0.14792 0.0
C5565 C 0.09207 0.50786 0.10356 0.0
C5566 C 0.07895 0.51485 0.10338 0.0
C5567 C 0.07259 0.5196 0.1178 0.0
C5568 C 0.07295 0.5193 0.08863 0.0
C5569 C 0.09883 0.50184 0.08826 0.0
C5570 C 0.08221 0.53154 0.08194 0.0
C5571 C 0.07664 0.53633 0.06827 0.0
C5572 C 0.06168 0.52897 0.06106 0.0
C5573 C 0.0524 0.51671 0.06784 0.0
C5574 C 0.05797 0.512 0.08164 0.0
H5575 H 0.10584 0.49272 0.09003 0.0
H5576 H 0.08959 0.4962 0.07839 0.0
H5577 H 0.1065 0.5124 0.08448 0.0
H5578 H 0.09372 0.53749 0.08742 0.0
H5579 H 0.08408 0.54583 0.06341 0.0
H5580 H 0.8212 0.8563 0.44484 0.0
H5581 H 0.82145 0.84371 0.41672 0.0
H5582 H 0.77823 0.81027 0.41927 0.0
H5583 H 0.77794 0.82272 0.44757 0.0
H5584 H 0.82001 0.81074 0.40064 0.0
H5585 H 0.76907 0.83483 0.38307 0.0
H5586 H 0.7798 0.84189 0.40254 0.0
H5587 H 0.76651 0.82228 0.39827 0.0
C5588 C 0.81187 0.84607 0.43956 0.0
C5589 C 0.79949 0.84061 0.4485 0.0
C5590 C 0.81202 0.8389 0.42344 0.0
C5591 C 0.79979 0.82616 0.41584 0.0
C5592 C 0.78769 0.82025 0.42483 0.0
H5593 H 0.79701 0.77989 0.313 0.0
H5594 H 0.79838 0.78266 0.34255 0.0
C5595 C 0.78751 0.82743 0.44099 0.0
C5596 C 0.79932 0.81998 0.39827 0.0
H5597 H 0.78027 0.82044 0.36237 0.0
C5598 C 0.81121 0.81263 0.39225 0.0
C5599 C 0.7879 0.82261 0.38735 0.0
C5600 C 0.77514 0.83094 0.39304 0.0
C5601 C 0.81218 0.80822 0.37557 0.0
C5602 C 0.80098 0.81127 0.36471 0.0
C5603 C 0.78883 0.8181 0.37075 0.0
C5604 C 0.80238 0.80921 0.34709 0.0
C5605 C 0.82558 0.80119 0.36966 0.0
C5606 C 0.80439 0.82315 0.3399 0.0
C5607 C 0.80352 0.82158 0.32321 0.0
C5608 C 0.80086 0.80604 0.3133 0.0
C5609 C 0.79944 0.79203 0.32042 0.0
C5610 C 0.8002 0.79361 0.33726 0.0
H5611 H 0.83386 0.80053 0.37968 0.0
H5612 H 0.82125 0.78864 0.36253 0.0
H5613 H 0.83183 0.80886 0.36163 0.0
H5614 H 0.80604 0.83528 0.34724 0.0
H5615 H 0.80447 0.83254 0.31799 0.0
H5616 H 0.49664 0.56991 0.8514 0.0
H5617 H 0.50835 0.56523 0.87648 0.0
H5618 H 0.4635 0.55536 0.89442 0.0
H5619 H 0.4516 0.55911 0.86917 0.0
H5620 H 0.51209 0.57878 0.907 0.0
H5621 H 0.47665 0.5169 0.90592 0.0
H5622 H 0.47613 0.5271 0.88894 0.0
H5623 H 0.46478 0.53157 0.90556 0.0
C5624 C 0.48906 0.56645 0.86044 0.0
C5625 C 0.47286 0.56486 0.85758 0.0
C5626 C 0.49594 0.56389 0.87511 0.0
C5627 C 0.48703 0.55947 0.88774 0.0
C5628 C 0.47092 0.5582 0.88506 0.0
H5629 H 0.5019 0.54375 0.98724 0.0
H5630 H 0.49268 0.54659 0.96042 0.0
C5631 C 0.46403 0.5607 0.8704 0.0
C5632 C 0.49451 0.55651 0.9036 0.0
H5633 H 0.49122 0.53006 0.93077 0.0
C5634 C 0.50751 0.568 0.91202 0.0
C5635 C 0.48897 0.54247 0.91063 0.0
C5636 C 0.47598 0.52873 0.90222 0.0
C5637 C 0.5145 0.56624 0.92705 0.0
C5638 C 0.50871 0.55238 0.93424 0.0
C5639 C 0.49588 0.54078 0.92569 0.0
C5640 C 0.51502 0.55009 0.95087 0.0
C5641 C 0.52774 0.57969 0.93541 0.0
C5642 C 0.53087 0.55064 0.95509 0.0
C5643 C 0.53627 0.54886 0.97076 0.0
C5644 C 0.52601 0.54632 0.98282 0.0
C5645 C 0.51025 0.54553 0.97844 0.0
C5646 C 0.50489 0.54719 0.9629 0.0
H5647 H 0.52829 0.59125 0.93069 0.0
H5648 H 0.52676 0.58228 0.94858 0.0
H5649 H 0.53877 0.57576 0.93337 0.0
H5650 H 0.53915 0.55243 0.94625 0.0
H5651 H 0.5485 0.54975 0.9735 0.0
H5652 H 0.80357 0.20021 0.11175 0.0
H5653 H 0.80165 0.21934 0.13627 0.0
H5654 H 0.77229 0.24224 0.1097 0.0
H5655 H 0.77408 0.22302 0.08505 0.0
H5656 H 0.80962 0.25362 0.14309 0.0
H5657 H 0.74671 0.22985 0.14656 0.0
H5658 H 0.758 0.2189 0.13335 0.0
H5659 H 0.75223 0.23664 0.12826 0.0
C5660 C 0.79683 0.20943 0.11108 0.0
C5661 C 0.78894 0.21011 0.09651 0.0
C5662 C 0.79571 0.22031 0.1251 0.0
C5663 C 0.7867 0.23207 0.1248 0.0
C5664 C 0.77907 0.23305 0.11021 0.0
H5665 H 0.79351 0.30286 0.21568 0.0
H5666 H 0.79127 0.29286 0.18657 0.0
C5667 C 0.78011 0.22209 0.09617 0.0
C5668 C 0.78521 0.243 0.13996 0.0
H5669 H 0.75982 0.25031 0.16788 0.0
C5670 C 0.79871 0.25312 0.14844 0.0
C5671 C 0.77093 0.24224 0.14683 0.0
C5672 C 0.75613 0.23126 0.13839 0.0
C5673 C 0.79847 0.2619 0.164 0.0
C5674 C 0.78427 0.26071 0.17109 0.0
C5675 C 0.77065 0.25123 0.1623 0.0
C5676 C 0.78373 0.26728 0.18832 0.0
C5677 C 0.81354 0.27154 0.1731 0.0
C5678 C 0.77957 0.25627 0.19881 0.0
C5679 C 0.78084 0.2619 0.21537 0.0
C5680 C 0.78636 0.27867 0.22174 0.0
C5681 C 0.78961 0.28981 0.21114 0.0
C5682 C 0.78831 0.28415 0.19453 0.0
H5683 H 0.82372 0.26902 0.16682 0.0
H5684 H 0.81385 0.28487 0.1744 0.0
H5685 H 0.81459 0.26863 0.18536 0.0
H5686 H 0.77594 0.2432 0.19421 0.0
H5687 H 0.77806 0.253 0.22315 0.0
H5688 H 0.14879 0.51539 0.33009 0.0
H5689 H 0.13409 0.51702 0.35404 0.0
H5690 H 0.10713 0.54665 0.3335 0.0
H5691 H 0.12195 0.54535 0.3098 0.0
H5692 H 0.13175 0.55415 0.37088 0.0
H5693 H 0.0775 0.50628 0.35332 0.0
H5694 H 0.09572 0.50397 0.34557 0.0
H5695 H 0.08538 0.51781 0.33843 0.0
C5696 C 0.13952 0.52196 0.33065 0.0
C5697 C 0.13644 0.53032 0.31831 0.0
C5698 C 0.13118 0.52287 0.34423 0.0
C5699 C 0.11953 0.53183 0.34533 0.0
C5700 C 0.11601 0.53956 0.33268 0.0
H5701 H 0.05643 0.56468 0.40897 0.0
H5702 H 0.07041 0.55504 0.38641 0.0
C5703 C 0.12448 0.53888 0.31927 0.0
C5704 C 0.11224 0.53497 0.36038 0.0
H5705 H 0.07816 0.5258 0.37713 0.0
C5706 C 0.12012 0.54784 0.37246 0.0
C5707 C 0.09707 0.52676 0.36206 0.0
C5708 C 0.08835 0.51285 0.34922 0.0
C5709 C 0.11292 0.55326 0.38604 0.0
C5710 C 0.09759 0.5452 0.3877 0.0
C5711 C 0.0899 0.53194 0.37579 0.0
C5712 C 0.08911 0.55078 0.40138 0.0
C5713 C 0.12153 0.56808 0.39802 0.0
C5714 C 0.09498 0.55148 0.41721 0.0
C5715 C 0.08728 0.55741 0.43009 0.0
C5716 C 0.0733 0.56232 0.42739 0.0
C5717 C 0.06728 0.56126 0.41148 0.0
C5718 C 0.07515 0.55558 0.39858 0.0
H5719 H 0.13121 0.57539 0.39274 0.0
H5720 H 0.1137 0.5762 0.40246 0.0
H5721 H 0.1265 0.56394 0.40847 0.0
H5722 H 0.10558 0.54752 0.41961 0.0
H5723 H 0.09241 0.5583 0.44217 0.0
H5724 H 0.8208 0.8446 0.60401 0.0
H5725 H 0.82151 0.834 0.62915 0.0
H5726 H 0.77737 0.84564 0.63865 0.0
H5727 H 0.77648 0.856 0.61342 0.0
H5728 H 0.82202 0.8494 0.65951 0.0
H5729 H 0.76973 0.79905 0.64593 0.0
H5730 H 0.77825 0.8097 0.6307 0.0
H5731 H 0.76582 0.81863 0.64404 0.0
C5732 C 0.81122 0.84486 0.61144 0.0
C5733 C 0.79854 0.85107 0.60666 0.0
C5734 C 0.81162 0.83875 0.62579 0.0
C5735 C 0.79938 0.83875 0.63571 0.0
C5736 C 0.78676 0.84506 0.63102 0.0
H5737 H 0.80497 0.83323 0.73742 0.0
H5738 H 0.80481 0.84189 0.71136 0.0
C5739 C 0.78628 0.85103 0.6166 0.0
C5740 C 0.80017 0.83277 0.65125 0.0
H5741 H 0.78062 0.80609 0.67319 0.0
C5742 C 0.813 0.83985 0.66245 0.0
C5743 C 0.78852 0.82016 0.65506 0.0
C5744 C 0.77489 0.81132 0.64324 0.0
C5745 C 0.8144 0.8349 0.67739 0.0
C5746 C 0.80244 0.82277 0.68147 0.0
C5747 C 0.78973 0.81548 0.67016 0.0
C5748 C 0.80285 0.81752 0.6974 0.0
C5749 C 0.82884 0.84253 0.68851 0.0
C5750 C 0.80135 0.80086 0.69832 0.0
C5751 C 0.80132 0.79586 0.71328 0.0
C5752 C 0.8029 0.80745 0.72762 0.0
C5753 C 0.80433 0.82409 0.72666 0.0
C5754 C 0.80418 0.82905 0.71172 0.0
H5755 H 0.83864 0.84748 0.6818 0.0
H5756 H 0.82661 0.8529 0.69733 0.0
H5757 H 0.83234 0.83351 0.69524 0.0
H5758 H 0.8002 0.7917 0.68746 0.0
H5759 H 0.80008 0.78293 0.71362 0.0
H5760 H 0.74375 0.48771 0.50113 0.0
H5761 H 0.72414 0.50417 0.50499 0.0
H5762 H 0.70199 0.47317 0.53644 0.0
H5763 H 0.72144 0.4565 0.53251 0.0
H5764 H 0.69066 0.49538 0.5006 0.0
H5765 H 0.71389 0.52019 0.56424 0.0
H5766 H 0.72453 0.50976 0.54979 0.0
H5767 H 0.70904 0.49818 0.55875 0.0
C5768 C 0.73451 0.48417 0.50858 0.0
C5769 C 0.7342 0.47093 0.51666 0.0
C5770 C 0.72339 0.49363 0.51084 0.0
C5771 C 0.71187 0.49002 0.52123 0.0
C5772 C 0.71102 0.47629 0.52862 0.0
H5773 H 0.63705 0.53417 0.55358 0.0
H5774 H 0.65624 0.51722 0.54888 0.0
C5775 C 0.72211 0.46682 0.52637 0.0
C5776 C 0.70118 0.50107 0.52493 0.0
H5777 H 0.69111 0.52778 0.5554 0.0
C5778 C 0.69076 0.50252 0.51254 0.0
C5779 C 0.70147 0.51036 0.54054 0.0
C5780 C 0.7129 0.50971 0.55409 0.0
C5781 C 0.68038 0.51288 0.51545 0.0
C5782 C 0.68064 0.5221 0.53107 0.0
C5783 C 0.69105 0.52067 0.54345 0.0
C5784 C 0.66987 0.53301 0.53484 0.0
C5785 C 0.66898 0.5137 0.50195 0.0
C5786 C 0.67155 0.54769 0.52888 0.0
C5787 C 0.6607 0.55744 0.53164 0.0
C5788 C 0.648 0.55254 0.54031 0.0
C5789 C 0.6467 0.53813 0.54677 0.0
C5790 C 0.65761 0.52848 0.54412 0.0
H5791 H 0.66872 0.50397 0.49127 0.0
H5792 H 0.65717 0.51249 0.50607 0.0
H5793 H 0.67222 0.52582 0.49824 0.0
H5794 H 0.68107 0.55138 0.5218 0.0
H5795 H 0.66186 0.56842 0.52643 0.0
H5796 H 0.22082 0.11113 0.49941 0.0
H5797 H 0.19445 0.0948 0.49829 0.0
H5798 H 0.17702 0.13913 0.50585 0.0
H5799 H 0.20322 0.1555 0.50643 0.0
H5800 H 0.17446 0.09534 0.52199 0.0
H5801 H 0.14845 0.11142 0.46767 0.0
H5802 H 0.16908 0.11562 0.47263 0.0
H5803 H 0.15771 0.12906 0.4824 0.0
C5804 C 0.21136 0.11741 0.50056 0.0
C5805 C 0.2142 0.13467 0.503 0.0
C5806 C 0.19629 0.10805 0.50001 0.0
C5807 C 0.1837 0.1157 0.50175 0.0
C5808 C 0.18648 0.13291 0.50415 0.0
H5809 H 0.09444 0.08199 0.53369 0.0
H5810 H 0.12074 0.09524 0.52982 0.0
C5811 C 0.20153 0.14227 0.5047 0.0
C5812 C 0.16779 0.10579 0.50195 0.0
H5813 H 0.13082 0.09832 0.48445 0.0
C5814 C 0.16496 0.09589 0.51367 0.0
C5815 C 0.15539 0.10633 0.49099 0.0
C5816 C 0.1578 0.11605 0.4776 0.0
C5817 C 0.15002 0.08699 0.51511 0.0
C5818 C 0.13752 0.08815 0.50465 0.0
C5819 C 0.1404 0.09756 0.49255 0.0
C5820 C 0.12132 0.08019 0.5066 0.0
C5821 C 0.1477 0.07645 0.52785 0.0
C5822 C 0.11271 0.06758 0.49461 0.0
C5823 C 0.09756 0.0599 0.49678 0.0
C5824 C 0.09073 0.06479 0.51094 0.0
C5825 C 0.0993 0.07775 0.52269 0.0
C5826 C 0.11441 0.08533 0.52054 0.0
H5827 H 0.15871 0.0736 0.53208 0.0
H5828 H 0.14313 0.0831 0.53836 0.0
H5829 H 0.13921 0.06474 0.52326 0.0
H5830 H 0.11779 0.06352 0.48368 0.0
H5831 H 0.09124 0.05015 0.48737 0.0
H5832 H 0.21181 0.93673 0.79378 0.0
H5833 H 0.22488 0.91403 0.79404 0.0
H5834 H 0.23001 0.91095 0.74342 0.0
H5835 H 0.21687 0.93355 0.74298 0.0
H5836 H 0.21943 0.88262 0.78114 0.0
H5837 H 0.27315 0.90929 0.75611 0.0
H5838 H 0.25907 0.92119 0.7622 0.0
H5839 H 0.25621 0.90761 0.74295 0.0
C5840 C 0.21557 0.93133 0.78255 0.0
C5841 C 0.21301 0.93762 0.76835 0.0
C5842 C 0.22327 0.91814 0.78276 0.0
C5843 C 0.22905 0.91048 0.76885 0.0
C5844 C 0.22638 0.91659 0.75462 0.0
H5845 H 0.27746 0.82525 0.74993 0.0
H5846 H 0.26541 0.8487 0.74735 0.0
C5847 C 0.21865 0.92977 0.75438 0.0
C5848 C 0.2373 0.89601 0.76923 0.0
H5849 H 0.26986 0.88137 0.75886 0.0
C5850 C 0.2305 0.88256 0.77629 0.0
C5851 C 0.25183 0.89522 0.76288 0.0
C5852 C 0.26059 0.90915 0.75574 0.0
C5853 C 0.23736 0.86878 0.77696 0.0
C5854 C 0.252 0.86808 0.77085 0.0
C5855 C 0.25876 0.88144 0.76363 0.0
C5856 C 0.26045 0.85397 0.7723 0.0
C5857 C 0.22839 0.85476 0.78386 0.0
C5858 C 0.26256 0.8489 0.78718 0.0
C5859 C 0.26948 0.83548 0.78863 0.0
C5860 C 0.2751 0.82648 0.77542 0.0
C5861 C 0.27356 0.83178 0.76054 0.0
C5862 C 0.26651 0.84531 0.75906 0.0
H5863 H 0.21578 0.85427 0.78266 0.0
H5864 H 0.23041 0.84276 0.77783 0.0
H5865 H 0.23205 0.85656 0.79689 0.0
H5866 H 0.25875 0.85533 0.79789 0.0
H5867 H 0.27033 0.83202 0.80033 0.0
H5868 H 0.37763 0.00921 0.02185 0.0
H5869 H 0.40524 0.01944 0.0198 0.0
H5870 H 0.41637 0.98944 0.05312 0.0
H5871 H 0.38895 0.97893 0.05504 0.0
H5872 H 0.43705 0.02219 0.05571 0.0
H5873 H 0.42631 0.98348 0.99439 0.0
H5874 H 0.41448 0.99827 0.99888 0.0
H5875 H 0.41265 0.98137 0.00941 0.0
C5876 C 0.38598 0.00508 0.029 0.0
C5877 C 0.38114 0.99307 0.03838 0.0
C5878 C 0.40169 0.01095 0.02784 0.0
C5879 C 0.41269 0.0049 0.03607 0.0
C5880 C 0.40796 0.99416 0.04665 0.0
H5881 H 0.50441 0.99273 0.01583 0.0
H5882 H 0.47654 0.98859 0.01894 0.0
C5883 C 0.39228 0.98826 0.0478 0.0
C5884 C 0.42886 0.00798 0.03217 0.0
H5885 H 0.45191 0.9979 1.00268 0.0
C5886 C 0.44035 0.01702 0.0441 0.0
C5887 C 0.43299 1.00082 0.01712 0.0
C5888 C 0.42102 0.99032 0.0042 0.0
C5889 C 0.456 0.0192 0.04132 0.0
C5890 C 0.46012 0.01232 0.02613 0.0
C5891 C 0.44862 1.0032 0.01424 0.0
C5892 C 0.47636 0.01447 0.02245 0.0
C5893 C 0.46801 0.02853 0.05476 0.0
C5894 C 0.48517 0.03025 0.02281 0.0
C5895 C 0.50094 0.0326 0.02127 0.0
C5896 C 0.50813 0.01919 0.01881 0.0
C5897 C 0.49911 1.00326 0.01758 0.0
C5898 C 0.48327 1.0009 0.01934 0.0
H5899 H 0.46321 0.02927 0.06668 0.0
H5900 H 0.4781 0.02269 0.05514 0.0
H5901 H 0.47216 0.04124 0.05272 0.0
H5902 H 0.47995 0.04083 0.02487 0.0
H5903 H 0.50745 0.045 0.02256 0.0
H5904 H 0.88971 0.63842 0.80288 0.0
H5905 H 0.8784 0.66107 0.79749 0.0
H5906 H 0.83471 0.63733 0.81187 0.0
H5907 H 0.84594 0.61435 0.81685 0.0
H5908 H 0.83197 0.64268 0.78224 0.0
H5909 H 0.86455 0.70026 0.82041 0.0
H5910 H 0.87733 0.689 0.81016 0.0
H5911 H 0.86561 0.68032 0.82468 0.0
C5912 C 0.87785 0.63833 0.80546 0.0
C5913 C 0.86864 0.62464 0.81018 0.0
C5914 C 0.87141 0.65134 0.80245 0.0
C5915 C 0.85573 0.65099 0.80441 0.0
C5916 C 0.84685 0.63787 0.81033 0.0
H5917 H 0.79595 0.70398 0.75965 0.0
H5918 H 0.80612 0.68826 0.77757 0.0
C5919 C 0.85324 0.62476 0.81313 0.0
C5920 C 0.84809 0.66258 0.79754 0.0
H5921 H 0.85133 0.70306 0.79558 0.0
C5922 C 0.83599 0.6559 0.7854 0.0
C5923 C 0.85344 0.67981 0.80157 0.0
C5924 C 0.86584 0.68775 0.81504 0.0
C5925 C 0.82959 0.66589 0.77665 0.0
C5926 C 0.8353 0.68308 0.7803 0.0
C5927 C 0.84706 0.68985 0.79277 0.0
C5928 C 0.82953 0.69407 0.77081 0.0
C5929 C 0.81726 0.65787 0.76308 0.0
C5930 C 0.83948 0.70305 0.76152 0.0
C5931 C 0.83376 0.71232 0.75143 0.0
C5932 C 0.81799 0.71276 0.75048 0.0
C5933 C 0.80818 0.70405 0.76015 0.0
C5934 C 0.81393 0.69493 0.77032 0.0
H5935 H 0.8168 0.64452 0.75946 0.0
H5936 H 0.80581 0.65929 0.76706 0.0
H5937 H 0.81926 0.66373 0.75237 0.0
H5938 H 0.85159 0.70259 0.76181 0.0
H5939 H 0.84168 0.71914 0.74439 0.0
H5940 H 0.85345 0.62626 0.99255 0.0
H5941 H 0.87435 0.61161 0.99384 0.0
H5942 H 0.89788 0.64853 0.03377 0.0
H5943 H 0.87735 0.66367 0.03216 0.0
H5944 H 0.91793 0.63842 0.01141 0.0
H5945 H 0.87926 0.58508 0.02908 0.0
H5946 H 0.87271 0.59028 0.01062 0.0
H5947 H 0.87377 0.60446 0.02926 0.0
C5948 C 0.86316 0.63144 1.00146 0.0
C5949 C 0.86359 0.64611 0.01235 0.0
C5950 C 0.87504 0.62293 1.00228 0.0
C5951 C 0.88755 0.62881 0.01408 0.0
C5952 C 0.88829 0.6437 0.02463 0.0
H5953 H 0.9463 0.57043 0.04918 0.0
H5954 H 0.92892 0.58877 0.04585 0.0
C5955 C 0.87644 0.65225 0.0238 0.0
C5956 C 0.89955 0.61914 0.01582 0.0
H5957 H 0.90459 0.58233 0.02391 0.0
C5958 C 0.91505 0.62615 0.01415 0.0
C5959 C 0.8958 0.60322 0.0196 0.0
C5960 C 0.87951 0.59534 0.0224 0.0
C5961 C 0.92687 0.61762 0.01604 0.0
C5962 C 0.92304 0.60155 0.01948 0.0
C5963 C 0.90754 0.5946 0.02119 0.0
C5964 C 0.93485 0.59178 0.02187 0.0
C5965 C 0.94336 0.62604 0.01472 0.0
C5966 C 0.9442 0.58751 0.0096 0.0
C5967 C 0.95426 0.57707 0.01154 0.0
C5968 C 0.95497 0.57051 0.02569 0.0
C5969 C 0.94589 0.57514 0.03808 0.0
C5970 C 0.93596 0.58565 0.03619 0.0
H5971 H 0.9448 0.63958 0.01636 0.0
H5972 H 0.95137 0.62319 0.02379 0.0
H5973 H 0.94674 0.62165 1.00258 0.0
H5974 H 0.94333 0.59178 0.9983 0.0
H5975 H 0.961 0.57358 1.00173 0.0
H5976 H 0.1979 0.11328 0.76375 0.0
H5977 H 0.21111 0.14166 0.76419 0.0
H5978 H 0.2521 0.13296 0.78741 0.0
H5979 H 0.23927 0.10429 0.78625 0.0
H5980 H 0.22256 0.16709 0.787 0.0
H5981 H 0.27196 0.15463 0.75334 0.0
H5982 H 0.25549 0.13861 0.75485 0.0
H5983 H 0.2706 0.14563 0.77106 0.0
C5984 C 0.20984 0.11715 0.76869 0.0
C5985 C 0.21738 0.10597 0.77476 0.0
C5986 C 0.21741 0.13365 0.76908 0.0
C5987 C 0.23289 0.13976 0.77552 0.0
C5988 C 0.24037 0.12876 0.78191 0.0
H5989 H 0.29618 0.23821 0.79004 0.0
H5990 H 0.28388 0.20952 0.79033 0.0
C5991 C 0.23282 0.11222 0.78147 0.0
C5992 C 0.24092 0.1576 0.77583 0.0
H5993 H 0.2735 0.18238 0.76564 0.0
C5994 C 0.23366 0.17032 0.78223 0.0
C5995 C 0.25552 0.16224 0.76968 0.0
C5996 C 0.26379 0.14957 0.7617 0.0
C5997 C 0.24051 0.18715 0.78286 0.0
C5998 C 0.25508 0.19177 0.77673 0.0
C5999 C 0.2624 0.1791 0.77043 0.0
C6000 C 0.26274 0.20957 0.7765 0.0
C6001 C 0.23215 0.1999 0.7905 0.0
C6002 C 0.25526 0.21952 0.76852 0.0
C6003 C 0.26241 0.23598 0.76816 0.0
C6004 C 0.27739 0.24318 0.77572 0.0
C6005 C 0.28483 0.23323 0.78378 0.0
C6006 C 0.27771 0.2167 0.78404 0.0
H6007 H 0.22369 0.19491 0.79864 0.0
H6008 H 0.2404 0.21082 0.79749 0.0
H6009 H 0.22569 0.20392 0.78092 0.0
H6010 H 0.24388 0.21449 0.7623 0.0
H6011 H 0.25615 0.24301 0.76178 0.0
H6012 H 0.33088 0.97104 0.27964 0.0
H6013 H 0.31731 0.94205 0.27521 0.0
H6014 H 0.35902 0.92747 0.26061 0.0
H6015 H 0.37276 0.9561 0.26545 0.0
H6016 H 0.32246 0.91228 0.24122 0.0
H6017 H 0.33749 0.90944 0.3053 0.0
H6018 H 0.33257 0.92749 0.29962 0.0
H6019 H 0.35079 0.92261 0.29516 0.0
C6020 C 0.33713 0.96165 0.27545 0.0
C6021 C 0.3529 0.96588 0.27289 0.0
C6022 C 0.32933 0.94517 0.27278 0.0
C6023 C 0.33722 0.9328 0.26748 0.0
C6024 C 0.35277 0.93696 0.26452 0.0
H6025 H 0.33563 0.83224 0.26457 0.0
H6026 H 0.34108 0.86214 0.26632 0.0
C6027 C 0.36057 0.95334 0.26724 0.0
C6028 C 0.32989 0.91539 0.26635 0.0
H6029 H 0.32851 0.8844 0.2874 0.0
C6030 C 0.32334 0.90612 0.25136 0.0
C6031 C 0.33137 0.90759 0.27961 0.0
C6032 C 0.33839 0.91721 0.2959 0.0
C6033 C 0.31868 0.88896 0.24916 0.0
C6034 C 0.32063 0.88109 0.26235 0.0
C6035 C 0.32683 0.89049 0.27741 0.0
C6036 C 0.31725 0.86307 0.26065 0.0
C6037 C 0.3125 0.87931 0.23261 0.0
C6038 C 0.30209 0.8538 0.25682 0.0
C6039 C 0.29903 0.8368 0.25579 0.0
C6040 C 0.31099 0.82903 0.25918 0.0
C6041 C 0.32619 0.83821 0.26258 0.0
C6042 C 0.32929 0.85517 0.26345 0.0
H6043 H 0.31452 0.88697 0.22316 0.0
H6044 H 0.31796 0.86863 0.22953 0.0
H6045 H 0.29986 0.87455 0.23244 0.0
H6046 H 0.29265 0.85971 0.25476 0.0
H6047 H 0.28733 0.82981 0.25252 0.0
H6048 H 0.56717 0.3739 0.55426 0.0
H6049 H 0.56455 0.39813 0.54301 0.0
H6050 H 0.56904 0.42672 0.5909 0.0
H6051 H 0.57218 0.40283 0.60221 0.0
H6052 H 0.54298 0.41723 0.54646 0.0
H6053 H 0.60044 0.45601 0.56967 0.0
H6054 H 0.59562 0.43427 0.56983 0.0
H6055 H 0.58979 0.44855 0.58535 0.0
C6056 C 0.56784 0.38539 0.56244 0.0
C6057 C 0.56997 0.38625 0.57923 0.0
C6058 C 0.56622 0.39926 0.55595 0.0
C6059 C 0.56684 0.41447 0.56602 0.0
C6060 C 0.56883 0.41532 0.58276 0.0
H6061 H 0.55234 0.51075 0.56322 0.0
H6062 H 0.55502 0.48397 0.5685 0.0
C6063 C 0.57043 0.40149 0.58926 0.0
C6064 C 0.56505 0.42933 0.55915 0.0
H6065 H 0.58176 0.46986 0.56034 0.0
C6066 C 0.5516 0.42865 0.54928 0.0
C6067 C 0.57624 0.44435 0.56272 0.0
C6068 C 0.5914 0.44583 0.57233 0.0
C6069 C 0.54876 0.44262 0.54359 0.0
C6070 C 0.55967 0.45777 0.54771 0.0
C6071 C 0.57332 0.45832 0.55715 0.0
C6072 C 0.55664 0.47353 0.54368 0.0
C6073 C 0.53367 0.44141 0.53408 0.0
C6074 C 0.55644 0.47674 0.52783 0.0
C6075 C 0.5549 0.49225 0.52473 0.0
C6076 C 0.55337 0.50477 0.53744 0.0
C6077 C 0.5533 0.50134 0.55314 0.0
C6078 C 0.55488 0.486 0.5562 0.0
H6079 H 0.52627 0.42882 0.53198 0.0
H6080 H 0.5273 0.45003 0.54073 0.0
H6081 H 0.53585 0.44502 0.52226 0.0
H6082 H 0.55799 0.46744 0.51794 0.0
H6083 H 0.55538 0.49462 0.51257 0.0
H6084 H 0.44141 0.79361 0.38826 0.0
H6085 H 0.41877 0.79686 0.3726 0.0
H6086 H 0.42053 0.75363 0.33825 0.0
H6087 H 0.44354 0.75051 0.35354 0.0
H6088 H 0.41616 0.8004 0.33902 0.0
H6089 H 0.37503 0.74548 0.35071 0.0
H6090 H 0.39295 0.75443 0.36305 0.0
H6091 H 0.39306 0.74197 0.34367 0.0
C6092 C 0.43717 0.78483 0.3773 0.0
C6093 C 0.44454 0.7718 0.37224 0.0
C6094 C 0.42408 0.78668 0.36839 0.0
C6095 C 0.4178 0.77544 0.35428 0.0
C6096 C 0.42498 0.76234 0.34922 0.0
H6097 H 0.33852 0.76253 0.28504 0.0
H6098 H 0.36109 0.76022 0.3013 0.0
C6099 C 0.43816 0.76054 0.35806 0.0
C6100 C 0.40397 0.77765 0.34472 0.0
H6101 H 0.36613 0.75991 0.33192 0.0
C6102 C 0.4052 0.79159 0.33751 0.0
C6103 C 0.38965 0.76616 0.34269 0.0
C6104 C 0.38745 0.75121 0.35052 0.0
C6105 C 0.39269 0.79411 0.32801 0.0
C6106 C 0.37829 0.78264 0.32601 0.0
C6107 C 0.37707 0.76877 0.33338 0.0
C6108 C 0.36451 0.78445 0.31596 0.0
C6109 C 0.39526 0.80878 0.31975 0.0
C6110 C 0.35855 0.79877 0.31874 0.0
C6111 C 0.34572 0.80028 0.30911 0.0
C6112 C 0.3384 0.78743 0.29655 0.0
C6113 C 0.34409 0.77294 0.29415 0.0
C6114 C 0.35697 0.7715 0.30365 0.0
H6115 H 0.40773 0.81342 0.31854 0.0
H6116 H 0.38897 0.80575 0.30759 0.0
H6117 H 0.39097 0.81885 0.32704 0.0
H6118 H 0.36374 0.80878 0.32845 0.0
H6119 H 0.34155 0.81153 0.31151 0.0
H6120 H 0.09059 0.72383 0.08344 0.0
H6121 H 0.08873 0.6946 0.0735 0.0
H6122 H 0.04471 0.69134 0.0478 0.0
H6123 H 0.04644 0.72058 0.0578 0.0
H6124 H 0.04301 0.66734 0.06448 0.0
H6125 H 0.09488 0.669 0.03061 0.0
H6126 H 0.09943 0.67976 0.051 0.0
H6127 H 0.08752 0.68712 0.03733 0.0
C6128 C 0.08064 0.717 0.0754 0.0
C6129 C 0.06868 0.72467 0.07142 0.0
C6130 C 0.07962 0.70022 0.06967 0.0
C6131 C 0.0667 0.69069 0.05963 0.0
C6132 C 0.05484 0.69836 0.05546 0.0
H6133 H 0.05404 0.58677 0.01289 0.0
H6134 H 0.05937 0.61698 0.01785 0.0
C6135 C 0.05582 0.71511 0.06126 0.0
C6136 C 0.06497 0.67253 0.05452 0.0
H6137 H 0.08298 0.64285 0.03669 0.0
C6138 C 0.05172 0.66205 0.05829 0.0
C6139 C 0.07619 0.66547 0.04623 0.0
C6140 C 0.09023 0.67592 0.0409 0.0
C6141 C 0.04959 0.64487 0.05446 0.0
C6142 C 0.06116 0.63781 0.04692 0.0
C6143 C 0.0742 0.64822 0.04266 0.0
C6144 C 0.05992 0.61967 0.04379 0.0
C6145 C 0.03485 0.6344 0.05848 0.0
C6146 C 0.05904 0.61115 0.05668 0.0
C6147 C 0.05605 0.59399 0.05387 0.0
C6148 C 0.05419 0.58492 0.03811 0.0
C6149 C 0.05573 0.59343 0.02517 0.0
C6150 C 0.0587 0.61069 0.028 0.0
H6151 H 0.02551 0.64134 0.05995 0.0
H6152 H 0.03073 0.62332 0.04898 0.0
H6153 H 0.03705 0.63032 0.07 0.0
H6154 H 0.06021 0.61777 0.06896 0.0
H6155 H 0.05482 0.58775 0.06405 0.0
H6156 H 0.10966 0.28311 0.89612 0.0
H6157 H 0.13316 0.28628 0.88194 0.0
H6158 H 0.10548 0.27511 0.83654 0.0
H6159 H 0.082 0.27273 0.85058 0.0
H6160 H 0.14436 0.26534 0.86013 0.0
H6161 H 0.13434 0.31709 0.83207 0.0
H6162 H 0.12315 0.31021 0.8478 0.0
H6163 H 0.11842 0.29969 0.82724 0.0
C6164 C 0.10852 0.28157 0.88313 0.0
C6165 C 0.09378 0.27779 0.87459 0.0
C6166 C 0.12203 0.28325 0.87501 0.0
C6167 C 0.1212 0.28126 0.85813 0.0
C6168 C 0.10653 0.27712 0.84956 0.0
H6169 H 0.18104 0.27867 0.78157 0.0
H6170 H 0.16038 0.27577 0.79953 0.0
C6171 C 0.09303 0.27551 0.85765 0.0
C6172 C 0.1356 0.28337 0.84946 0.0
H6173 H 0.15365 0.3034 0.82137 0.0
C6174 C 0.14646 0.2738 0.85179 0.0
C6175 C 0.13854 0.29452 0.83866 0.0
C6176 C 0.12808 0.30609 0.83641 0.0
C6177 C 0.15972 0.27458 0.84313 0.0
C6178 C 0.16227 0.28525 0.83189 0.0
C6179 C 0.15165 0.29512 0.82989 0.0
C6180 C 0.17537 0.28582 0.82139 0.0
C6181 C 0.17066 0.2636 0.84564 0.0
C6182 C 0.19083 0.2922 0.82766 0.0
C6183 C 0.20279 0.29401 0.81732 0.0
C6184 C 0.19949 0.28956 0.8005 0.0
C6185 C 0.18404 0.28255 0.7944 0.0
C6186 C 0.17217 0.28081 0.80468 0.0
H6187 H 0.16591 0.25432 0.85297 0.0
H6188 H 0.17327 0.25715 0.83388 0.0
H6189 H 0.18171 0.27119 0.85194 0.0
H6190 H 0.19359 0.2963 0.8405 0.0
H6191 H 0.2145 0.29954 0.82244 0.0
H6192 H 0.55374 0.72536 0.92313 0.0
H6193 H 0.54907 0.70547 0.94114 0.0
H6194 H 0.59264 0.72873 0.96842 0.0
H6195 H 0.5971 0.74911 0.95095 0.0
H6196 H 0.56544 0.68315 0.94854 0.0
H6197 H 0.56244 0.7288 1.00303 0.0
H6198 H 0.562 0.73358 0.98305 0.0
H6199 H 0.58007 0.73338 0.99354 0.0
C6200 C 0.56228 0.72635 0.93304 0.0
C6201 C 0.57572 0.73896 0.93567 0.0
C6202 C 0.55964 0.71489 0.94325 0.0
C6203 C 0.57036 0.71582 0.9563 0.0
C6204 C 0.58405 0.72801 0.95863 0.0
H6205 H 0.57389 0.63949 0.01228 0.0
H6206 H 0.57881 0.65933 0.99424 0.0
C6207 C 0.58667 0.73952 0.94848 0.0
C6208 C 0.56718 0.70407 0.9675 0.0
H6209 H 0.56286 0.70178 0.00699 0.0
C6210 C 0.56484 0.6872 0.96131 0.0
C6211 C 0.56615 0.70938 0.98412 0.0
C6212 C 0.56764 0.72726 0.99133 0.0
C6213 C 0.56175 0.67551 0.97134 0.0
C6214 C 0.5613 0.68087 0.98806 0.0
C6215 C 0.56338 0.69771 0.9942 0.0
C6216 C 0.55858 0.66919 0.99937 0.0
C6217 C 0.55873 0.65753 0.96388 0.0
C6218 C 0.5459 0.66858 0.00872 0.0
C6219 C 0.54312 0.65733 0.01915 0.0
C6220 C 0.553 0.6465 0.02041 0.0
C6221 C 0.56592 0.64747 0.01135 0.0
C6222 C 0.56872 0.65876 1.001 0.0
H6223 H 0.55525 0.65541 0.95077 0.0
H6224 H 0.56945 0.65297 0.96548 0.0
H6225 H 0.54952 0.6502 0.96973 0.0
H6226 H 0.53798 0.6766 0.00772 0.0
H6227 H 0.53302 0.6568 0.02589 0.0
H6228 H 0.09439 0.76103 0.67434 0.0
H6229 H 0.118 0.75782 0.68831 0.0
H6230 H 0.10003 0.77073 0.73403 0.0
H6231 H 0.07606 0.77321 0.72016 0.0
H6232 H 0.13939 0.77989 0.7099 0.0
H6233 H 0.11185 0.72759 0.7378 0.0
H6234 H 0.1019 0.7345 0.72208 0.0
H6235 H 0.10379 0.74543 0.74249 0.0
C6236 C 0.09535 0.76298 0.68736 0.0
C6237 C 0.08324 0.76721 0.69611 0.0
C6238 C 0.10892 0.76128 0.69533 0.0
C6239 C 0.11066 0.76377 0.71219 0.0
C6240 C 0.09879 0.76842 0.721 0.0
H6241 H 0.1991 0.77477 0.76753 0.0
H6242 H 0.17484 0.77932 0.75606 0.0
C6243 C 0.08518 0.77004 0.71304 0.0
C6244 C 0.12495 0.7615 0.72049 0.0
H6245 H 0.1384 0.73898 0.74562 0.0
C6246 C 0.1392 0.77096 0.71772 0.0
C6247 C 0.12464 0.7497 0.73053 0.0
C6248 C 0.10975 0.7386 0.73331 0.0
C6249 C 0.15317 0.76895 0.72473 0.0
C6250 C 0.15284 0.75739 0.73506 0.0
C6251 C 0.1386 0.74793 0.73781 0.0
C6252 C 0.16719 0.75452 0.74266 0.0
C6253 C 0.16816 0.77889 0.72065 0.0
C6254 C 0.17066 0.73891 0.73942 0.0
C6255 C 0.18443 0.73624 0.74606 0.0
C6256 C 0.19499 0.74915 0.75607 0.0
C6257 C 0.19129 0.76466 0.75964 0.0
C6258 C 0.17747 0.7673 0.75307 0.0
H6259 H 0.16658 0.7839 0.70952 0.0
H6260 H 0.17261 0.7894 0.73066 0.0
H6261 H 0.17703 0.77136 0.71901 0.0
H6262 H 0.16284 0.72888 0.73145 0.0
H6263 H 0.18702 0.7242 0.743 0.0
H6264 H 0.09383 0.39073 0.46422 0.0
H6265 H 0.09416 0.41947 0.47462 0.0
H6266 H 0.12045 0.43384 0.43588 0.0
H6267 H 0.1194 0.405 0.42482 0.0
H6268 H 0.11595 0.44829 0.48435 0.0
H6269 H 0.08126 0.44986 0.42804 0.0
H6270 H 0.08507 0.43097 0.43264 0.0
H6271 H 0.10007 0.44543 0.42594 0.0
C6272 C 0.09976 0.4 0.45794 0.0
C6273 C 0.10625 0.39553 0.44348 0.0
C6274 C 0.10008 0.41643 0.46399 0.0
C6275 C 0.107 0.42873 0.45578 0.0
C6276 C 0.11474 0.42448 0.44217 0.0
H6277 H 0.07963 0.52424 0.48193 0.0
H6278 H 0.09464 0.50508 0.46866 0.0
C6279 C 0.11428 0.40799 0.43599 0.0
C6280 C 0.10451 0.44555 0.46068 0.0
H6281 H 0.08269 0.47137 0.44967 0.0
C6282 C 0.109 0.45356 0.47665 0.0
C6283 C 0.09549 0.45245 0.45056 0.0
C6284 C 0.09008 0.44425 0.43337 0.0
C6285 C 0.10375 0.46759 0.48311 0.0
C6286 C 0.09373 0.47364 0.47336 0.0
C6287 C 0.09036 0.46658 0.45705 0.0
C6288 C 0.08455 0.48523 0.48055 0.0
C6289 C 0.10822 0.4753 0.50058 0.0
C6290 C 0.07352 0.48005 0.49094 0.0
C6291 C 0.06491 0.49075 0.49824 0.0
C6292 C 0.06721 0.50683 0.49532 0.0
C6293 C 0.07768 0.51183 0.48429 0.0
C6294 C 0.08633 0.50102 0.47687 0.0
H6295 H 0.11924 0.47257 0.50497 0.0
H6296 H 0.10942 0.48882 0.50249 0.0
H6297 H 0.09906 0.47022 0.50796 0.0
H6298 H 0.07167 0.46772 0.49351 0.0
H6299 H 0.05653 0.4865 0.50629 0.0
H6300 H 0.42225 0.26051 0.19022 0.0
H6301 H 0.40049 0.25782 0.20683 0.0
H6302 H 0.43193 0.26561 0.24933 0.0
H6303 H 0.45388 0.26838 0.23271 0.0
H6304 H 0.39132 0.23564 0.22739 0.0
H6305 H 0.40637 0.3003 0.26069 0.0
H6306 H 0.41545 0.2937 0.24288 0.0
H6307 H 0.42091 0.28845 0.26171 0.0
C6308 C 0.42455 0.26152 0.20308 0.0
C6309 C 0.43978 0.26469 0.21016 0.0
C6310 C 0.41211 0.26001 0.21256 0.0
C6311 C 0.41461 0.26165 0.22931 0.0
C6312 C 0.42977 0.26458 0.23645 0.0
H6313 H 0.33597 0.27021 0.28808 0.0
H6314 H 0.36198 0.26592 0.2824 0.0
C6315 C 0.44228 0.26617 0.22695 0.0
C6316 C 0.40118 0.26058 0.23908 0.0
H6317 H 0.38294 0.28389 0.2653 0.0
C6318 C 0.38954 0.24616 0.23578 0.0
C6319 C 0.39902 0.27419 0.25027 0.0
C6320 C 0.41102 0.2901 0.25409 0.0
C6321 C 0.37536 0.24539 0.24254 0.0
C6322 C 0.37275 0.25946 0.25267 0.0
C6323 C 0.38488 0.27331 0.25717 0.0
C6324 C 0.357 0.26101 0.2565 0.0
C6325 C 0.3631 0.2297 0.23838 0.0
C6326 C 0.34576 0.25984 0.24385 0.0
C6327 C 0.33119 0.26255 0.24707 0.0
C6328 C 0.32774 0.26677 0.26299 0.0
C6329 C 0.33871 0.26745 0.27572 0.0
C6330 C 0.35342 0.26487 0.27249 0.0
H6331 H 0.36838 0.21884 0.2357 0.0
H6332 H 0.35553 0.22813 0.24832 0.0
H6333 H 0.35581 0.23003 0.22746 0.0
H6334 H 0.34837 0.25719 0.23143 0.0
H6335 H 0.32265 0.2615 0.23713 0.0
H6336 H 0.62425 0.49462 0.35679 0.0
H6337 H 0.61266 0.49719 0.38247 0.0
H6338 H 0.60765 0.5458 0.37844 0.0
H6339 H 0.61949 0.54355 0.35294 0.0
H6340 H 0.62035 0.51744 0.41192 0.0
H6341 H 0.56434 0.52708 0.38839 0.0
H6342 H 0.57812 0.52037 0.37527 0.0
H6343 H 0.58067 0.5417 0.3842 0.0
C6344 C 0.62086 0.506 0.36124 0.0
C6345 C 0.623 0.51879 0.35213 0.0
C6346 C 0.61405 0.50742 0.37616 0.0
C6347 C 0.6088 0.52161 0.38274 0.0
C6348 C 0.61103 0.53445 0.3738 0.0
H6349 H 0.58606 0.55208 0.48357 0.0
H6350 H 0.59774 0.54899 0.45785 0.0
C6351 C 0.61792 0.5331 0.35894 0.0
C6352 C 0.60129 0.523 0.39885 0.0
H6353 H 0.56882 0.53091 0.41684 0.0
C6354 C 0.60907 0.5204 0.41286 0.0
C6355 C 0.58641 0.52669 0.40059 0.0
C6356 C 0.5768 0.52897 0.38631 0.0
C6357 C 0.60276 0.52172 0.42812 0.0
C6358 C 0.58804 0.52572 0.4299 0.0
C6359 C 0.5801 0.52798 0.41586 0.0
C6360 C 0.58079 0.52749 0.44609 0.0
C6361 C 0.61184 0.51856 0.44232 0.0
C6362 C 0.56716 0.51655 0.44866 0.0
C6363 C 0.56051 0.51815 0.46366 0.0
C6364 C 0.5669 0.53103 0.47672 0.0
C6365 C 0.58055 0.54198 0.47408 0.0
C6366 C 0.58735 0.5402 0.45919 0.0
H6367 H 0.62151 0.51267 0.43861 0.0
H6368 H 0.61675 0.53039 0.45055 0.0
H6369 H 0.6042 0.51058 0.44916 0.0
H6370 H 0.5617 0.50654 0.43905 0.0
H6371 H 0.5503 0.50917 0.46499 0.0
H6372 H 0.32456 0.90069 0.10585 0.0
H6373 H 0.32511 0.8873 0.12925 0.0
H6374 H 0.27793 0.86113 0.11584 0.0
H6375 H 0.27726 0.87449 0.09226 0.0
H6376 H 0.29704 0.8828 0.15504 0.0
H6377 H 0.31297 0.829 0.11724 0.0
H6378 H 0.31895 0.84925 0.11254 0.0
H6379 H 0.29894 0.83913 0.10956 0.0
C6380 C 0.31427 0.89216 0.10794 0.0
C6381 C 0.30091 0.88849 0.09722 0.0
C6382 C 0.31457 0.88466 0.12134 0.0
C6383 C 0.30155 0.87333 0.12418 0.0
C6384 C 0.28802 0.86997 0.11381 0.0
H6385 H 0.31281 0.80446 0.18681 0.0
H6386 H 0.30053 0.81757 0.16779 0.0
C6387 C 0.28767 0.87758 0.10042 0.0
C6388 C 0.30276 0.86411 0.13724 0.0
H6389 H 0.31486 0.83046 0.14521 0.0
C6390 C 0.30068 0.87121 0.15296 0.0
C6391 C 0.30741 0.84901 0.13432 0.0
C6392 C 0.30972 0.84103 0.11753 0.0
C6393 C 0.30364 0.86375 0.16603 0.0
C6394 C 0.30919 0.84909 0.16322 0.0
C6395 C 0.3106 0.84169 0.14736 0.0
C6396 C 0.31482 0.84182 0.17645 0.0
C6397 C 0.30093 0.87172 0.18268 0.0
C6398 C 0.32675 0.85116 0.18784 0.0
C6399 C 0.33362 0.84376 0.19892 0.0
C6400 C 0.3289 0.8268 0.19861 0.0
C6401 C 0.31662 0.81757 0.18751 0.0
C6402 C 0.30964 0.82503 0.17656 0.0
H6403 H 0.2917 0.87876 0.1822 0.0
H6404 H 0.29765 0.86251 0.19051 0.0
H6405 H 0.31169 0.8805 0.18827 0.0
H6406 H 0.3312 0.86404 0.18775 0.0
H6407 H 0.34287 0.85126 0.20748 0.0
H6408 H 0.98379 0.57186 0.85273 0.0
H6409 H 0.00408 0.57441 0.87434 0.0
H6410 H 0.97239 0.54241 0.89814 0.0
H6411 H 0.95191 0.54028 0.87711 0.0
H6412 H 0.99906 0.5839 0.9117 0.0
H6413 H 0.01472 0.52407 0.89064 0.0
H6414 H 0.00678 0.53529 0.87713 0.0
H6415 H 0.99437 0.52386 0.8893 0.0
C6416 C 0.98108 0.56549 0.86265 0.0
C6417 C 0.96621 0.55581 0.86316 0.0
C6418 C 0.99271 0.56689 0.87488 0.0
C6419 C 0.98966 0.55847 0.88763 0.0
C6420 C 0.97492 0.54883 0.88821 0.0
H6421 H 0.01282 0.53452 0.97344 0.0
H6422 H 0.00422 0.53889 0.94713 0.0
C6423 C 0.96327 0.54755 0.87613 0.0
C6424 C 1.0016 0.55985 0.90076 0.0
H6425 H 0.02139 0.53611 0.91842 0.0
C6426 C 0.00437 0.57371 0.91307 0.0
C6427 C 0.00843 0.5465 0.90231 0.0
C6428 C 0.00606 0.5316 0.8891 0.0
C6429 C 0.0128 0.57395 0.9276 0.0
C6430 C 0.01862 0.56004 0.92961 0.0
C6431 C 0.01685 0.54673 0.91679 0.0
C6432 C 0.02428 0.55787 0.94557 0.0
C6433 C 0.01439 0.58846 0.94114 0.0
C6434 C 0.03838 0.56722 0.9534 0.0
C6435 C 0.04333 0.5648 0.96858 0.0
C6436 C 0.03429 0.55292 0.976 0.0
C6437 C 0.02011 0.54373 0.96809 0.0
C6438 C 0.01519 0.54615 0.95301 0.0
H6439 H 0.00821 0.59778 0.93795 0.0
H6440 H 0.00978 0.5843 0.95206 0.0
H6441 H 0.0268 0.59438 0.94419 0.0
H6442 H 0.04554 0.57628 0.94777 0.0
H6443 H 0.0542 0.57226 0.97448 0.0
H6444 H 0.31533 0.26304 0.59374 0.0
H6445 H 0.3152 0.27502 0.62219 0.0
H6446 H 0.27466 0.23819 0.62586 0.0
H6447 H 0.27483 0.22596 0.59764 0.0
H6448 H 0.27389 0.27113 0.64158 0.0
H6449 H 0.32766 0.25148 0.65851 0.0
H6450 H 0.32861 0.26351 0.64285 0.0
H6451 H 0.31651 0.24325 0.63939 0.0
C6452 C 0.3064 0.25746 0.60059 0.0
C6453 C 0.29514 0.24346 0.59334 0.0
C6454 C 0.30631 0.26438 0.61684 0.0
C6455 C 0.29498 0.25742 0.62615 0.0
C6456 C 0.28346 0.2438 0.61886 0.0
H6457 H 0.29096 0.25047 0.72385 0.0
H6458 H 0.28926 0.24789 0.69459 0.0
C6459 C 0.28356 0.23686 0.60267 0.0
C6460 C 0.29552 0.26361 0.64371 0.0
H6461 H 0.31561 0.26448 0.67942 0.0
C6462 C 0.28314 0.26997 0.64987 0.0
C6463 C 0.3075 0.26185 0.65448 0.0
C6464 C 0.3208 0.25455 0.64858 0.0
C6465 C 0.28226 0.27426 0.66656 0.0
C6466 C 0.29404 0.27208 0.6773 0.0
C6467 C 0.30664 0.26621 0.67112 0.0
C6468 C 0.29282 0.27399 0.69491 0.0
C6469 C 0.26825 0.27994 0.67264 0.0
C6470 C 0.29505 0.28954 0.70482 0.0
C6471 C 0.29593 0.29104 0.72164 0.0
C6472 C 0.29457 0.27697 0.72867 0.0
C6473 C 0.29188 0.26147 0.71869 0.0
C6474 C 0.29092 0.25998 0.702 0.0
H6475 H 0.26048 0.28181 0.66275 0.0
H6476 H 0.26171 0.27056 0.67888 0.0
H6477 H 0.27179 0.29161 0.68146 0.0
H6478 H 0.29677 0.30052 0.69958 0.0
H6479 H 0.29836 0.30315 0.72911 0.0
H6480 H 0.64225 0.52103 0.17204 0.0
H6481 H 0.63007 0.52496 0.14687 0.0
H6482 H 0.58614 0.51962 0.16703 0.0
H6483 H 0.59832 0.51614 0.19244 0.0
H6484 H 0.60869 0.50647 0.12443 0.0
H6485 H 0.58431 0.5597 0.14873 0.0
H6486 H 0.59789 0.55239 0.16065 0.0
H6487 H 0.57778 0.54218 0.15788 0.0
C6488 C 0.63002 0.52091 0.1714 0.0
C6489 C 0.62155 0.51833 0.18487 0.0
C6490 C 0.62293 0.52307 0.15669 0.0
C6491 C 0.607 0.52301 0.15463 0.0
C6492 C 0.59845 0.52025 0.16798 0.0
H6493 H 0.54646 0.53285 0.06876 0.0
H6494 H 0.5561 0.52998 0.09589 0.0
C6495 C 0.60552 0.51798 0.18268 0.0
C6496 C 0.59948 0.5253 0.13851 0.0
H6497 H 0.57694 0.54777 0.12126 0.0
C6498 C 0.60182 0.5156 0.1239 0.0
C6499 C 0.59021 0.53703 0.13721 0.0
C6500 C 0.58748 0.54854 0.15191 0.0
C6501 C 0.59529 0.51708 0.1086 0.0
C6502 C 0.58628 0.52901 0.10724 0.0
C6503 C 0.58374 0.53859 0.12185 0.0
C6504 C 0.58007 0.53201 0.09085 0.0
C6505 C 0.59787 0.50534 0.09398 0.0
C6506 C 0.59006 0.53483 0.07867 0.0
C6507 C 0.58454 0.53652 0.06321 0.0
C6508 C 0.56877 0.53586 0.05904 0.0
C6509 C 0.5587 0.53369 0.07133 0.0
C6510 C 0.56428 0.53193 0.08697 0.0
H6511 H 0.60007 0.4938 0.09724 0.0
H6512 H 0.58777 0.50215 0.08486 0.0
H6513 H 0.60818 0.51111 0.08845 0.0
H6514 H 0.6023 0.53557 0.08103 0.0
H6515 H 0.59278 0.53815 0.05427 0.0
H6516 H 0.33816 0.86571 0.95501 0.0
H6517 H 0.33977 0.84754 0.92951 0.0
H6518 H 0.29493 0.85311 0.91217 0.0
H6519 H 0.29305 0.87055 0.93778 0.0
H6520 H 0.29719 0.82224 0.90463 0.0
H6521 H 0.34971 0.86243 0.88817 0.0
H6522 H 0.35217 0.85508 0.9066 0.0
H6523 H 0.33948 0.8689 0.90511 0.0
C6524 C 0.32869 0.86296 0.9457 0.0
C6525 C 0.31549 0.86947 0.94824 0.0
C6526 C 0.32963 0.85268 0.93115 0.0
C6527 C 0.31757 0.84917 0.91883 0.0
C6528 C 0.30436 0.8556 0.92151 0.0
H6529 H 0.31231 0.83097 0.81853 0.0
H6530 H 0.317 0.84052 0.84746 0.0
C6531 C 0.30329 0.86557 0.93611 0.0
C6532 C 0.31855 0.83911 0.90295 0.0
H6533 H 0.33833 0.83878 0.86938 0.0
C6534 C 0.30625 0.82574 0.89694 0.0
C6535 C 0.33042 0.84373 0.89298 0.0
C6536 C 0.34364 0.85839 0.89844 0.0
C6537 C 0.30491 0.81754 0.88091 0.0
C6538 C 0.31658 0.82243 0.87083 0.0
C6539 C 0.32941 0.83507 0.87716 0.0
C6540 C 0.31474 0.81622 0.85324 0.0
C6541 C 0.29049 0.80452 0.87472 0.0
C6542 C 0.31214 0.79938 0.84681 0.0
C6543 C 0.3091 0.79385 0.8302 0.0
C6544 C 0.30902 0.80513 0.81979 0.0
C6545 C 0.31231 0.82199 0.82622 0.0
C6546 C 0.31504 0.82746 0.84278 0.0
H6547 H 0.28121 0.80487 0.88304 0.0
H6548 H 0.28591 0.806 0.86274 0.0
H6549 H 0.29329 0.79222 0.87346 0.0
H6550 H 0.31226 0.79051 0.85461 0.0
H6551 H 0.30677 0.78078 0.82551 0.0
H6552 H 0.93604 0.52338 0.70966 0.0
H6553 H 0.95346 0.5209 0.68833 0.0
H6554 H 0.97903 0.57034 0.70652 0.0
H6555 H 0.96172 0.57288 0.72811 0.0
H6556 H 0.97199 0.56063 0.67103 0.0
H6557 H 0.99942 0.51779 0.69935 0.0
H6558 H 0.97865 0.51245 0.69688 0.0
H6559 H 0.98832 0.53099 0.71024 0.0
C6560 C 0.94535 0.53374 0.70911 0.0
C6561 C 0.94766 0.54825 0.72066 0.0
C6562 C 0.95525 0.53231 0.69692 0.0
C6563 C 0.96761 0.54535 0.69609 0.0
C6564 C 0.96955 0.56015 0.70708 0.0
H6565 H 0.04442 0.53143 0.63857 0.0
H6566 H 0.02916 0.53967 0.66065 0.0
C6567 C 0.95963 0.56159 0.71932 0.0
C6568 C 0.97881 0.54316 0.68406 0.0
H6569 H 0.0051 0.52021 0.6726 0.0
C6570 C 0.97936 0.55193 0.6714 0.0
C6571 C 0.98853 0.53198 0.68481 0.0
C6572 C 0.98886 0.52285 0.69862 0.0
C6573 C 0.989 0.54928 0.65902 0.0
C6574 C 0.9981 0.53743 0.65932 0.0
C6575 C 0.998 0.52918 0.67235 0.0
C6576 C 0.00736 0.5329 0.64595 0.0
C6577 C 0.98932 0.55912 0.64571 0.0
C6578 C 1.00006 0.52607 0.63052 0.0
C6579 C 0.0087 0.5213 0.61796 0.0
C6580 C 0.02477 0.52315 0.62066 0.0
C6581 C 0.03203 0.52974 0.63619 0.0
C6582 C 0.02337 0.53456 0.64876 0.0
H6583 H 0.98541 0.57072 0.64959 0.0
H6584 H 1.0011 0.56215 0.64165 0.0
H6585 H 0.98138 0.5518 0.63529 0.0
H6586 H 0.98765 0.52426 0.62823 0.0
H6587 H 1.00277 0.51599 0.60616 0.0
H6588 H 0.30314 0.20292 0.41869 0.0
H6589 H 0.30358 0.21208 0.39279 0.0
H6590 H 0.30445 0.26142 0.41689 0.0
H6591 H 0.30452 0.25249 0.4429 0.0
H6592 H 0.28173 0.22604 0.37912 0.0
H6593 H 0.33933 0.26854 0.38741 0.0
H6594 H 0.33368 0.25377 0.40027 0.0
H6595 H 0.32713 0.27269 0.40321 0.0
C6596 C 0.30374 0.2158 0.41854 0.0
C6597 C 0.30385 0.22697 0.43294 0.0
C6598 C 0.30387 0.22099 0.4037 0.0
C6599 C 0.30424 0.23748 0.40289 0.0
C6600 C 0.30445 0.2487 0.41722 0.0
H6601 H 0.29938 0.29281 0.32601 0.0
H6602 H 0.30125 0.2835 0.35176 0.0
C6603 C 0.3043 0.24352 0.43208 0.0
C6604 C 0.3036 0.24274 0.38701 0.0
H6605 H 0.32281 0.26919 0.36465 0.0
C6606 C 0.29076 0.2354 0.37591 0.0
C6607 C 0.31536 0.25499 0.38285 0.0
C6608 C 0.32973 0.26287 0.39398 0.0
C6609 C 0.28917 0.24021 0.36092 0.0
C6610 C 0.30091 0.2525 0.35676 0.0
C6611 C 0.3138 0.25979 0.36784 0.0
C6612 C 0.29995 0.25811 0.34106 0.0
C6613 C 0.2747 0.23242 0.34989 0.0
C6614 C 0.29884 0.24701 0.32646 0.0
C6615 C 0.29777 0.25235 0.31175 0.0
C6616 C 0.29795 0.26889 0.31136 0.0
C6617 C 0.29936 0.28004 0.32595 0.0
C6618 C 0.30035 0.2747 0.34067 0.0
H6619 H 0.26516 0.22673 0.35653 0.0
H6620 H 0.2707 0.24157 0.34372 0.0
H6621 H 0.2772 0.22261 0.34058 0.0
H6622 H 0.29897 0.23425 0.32642 0.0
H6623 H 0.29721 0.24362 0.30071 0.0
H6624 H 0.37354 0.6269 0.50647 0.0
H6625 H 0.39236 0.60931 0.50378 0.0
H6626 H 0.368 0.57991 0.53529 0.0
H6627 H 0.34909 0.59738 0.53801 0.0
H6628 H 0.41051 0.59887 0.53186 0.0
H6629 H 0.36991 0.5494 0.48884 0.0
H6630 H 0.36829 0.57059 0.49161 0.0
H6631 H 0.36271 0.55873 0.50684 0.0
C6632 C 0.37229 0.61677 0.51292 0.0
C6633 C 0.35987 0.61345 0.52241 0.0
C6634 C 0.38304 0.6068 0.51142 0.0
C6635 C 0.38141 0.59331 0.51924 0.0
C6636 C 0.36934 0.59027 0.52914 0.0
H6637 H 0.42971 0.51312 0.51171 0.0
H6638 H 0.4107 0.53034 0.51643 0.0
C6639 C 0.35865 0.60031 0.53076 0.0
C6640 C 0.39198 0.58201 0.51649 0.0
H6641 H 0.39443 0.54461 0.49555 0.0
C6642 C 0.40704 0.58699 0.52396 0.0
C6643 C 0.38727 0.56655 0.50623 0.0
C6644 C 0.37119 0.56091 0.49781 0.0
C6645 C 0.41763 0.5768 0.52145 0.0
C6646 C 0.41305 0.56145 0.51089 0.0
C6647 C 0.39788 0.55641 0.50359 0.0
C6648 C 0.42396 0.55062 0.50705 0.0
C6649 C 0.43354 0.58246 0.53028 0.0
C6650 C 0.43737 0.55612 0.49968 0.0
C6651 C 0.44816 0.54634 0.49695 0.0
C6652 C 0.44568 0.53083 0.50143 0.0
C6653 C 0.43187 0.52499 0.50807 0.0
C6654 C 0.42107 0.53483 0.51086 0.0
H6655 H 0.43376 0.59207 0.54107 0.0
H6656 H 0.43762 0.57204 0.53414 0.0
H6657 H 0.44179 0.58778 0.52215 0.0
H6658 H 0.43958 0.56809 0.49625 0.0
H6659 H 0.4586 0.55101 0.49156 0.0
H6660 H 0.88487 0.95621 0.56664 0.0
H6661 H 0.91139 0.97203 0.56708 0.0
H6662 H 0.9083 0.96154 0.51524 0.0
H6663 H 0.882 0.94549 0.51463 0.0
H6664 H 0.93756 0.96156 0.5536 0.0
H6665 H 0.92232 0.0121 0.52658 0.0
H6666 H 0.9083 0.99798 0.53508 0.0
H6667 H 0.91407 0.99193 0.51529 0.0
C6668 C 0.88984 0.95717 0.55532 0.0
C6669 C 0.88117 0.94966 0.54059 0.0
C6670 C 0.90499 0.96629 0.55561 0.0
C6671 C 0.91173 0.9682 0.54119 0.0
C6672 C 0.90321 0.96055 0.5265 0.0
H6673 H 1.00163 1.0003 0.51105 0.0
H6674 H 0.97557 0.98657 0.51545 0.0
C6675 C 0.88812 0.95141 0.52619 0.0
C6676 C 0.92775 0.97791 0.5414 0.0
H6677 H 0.94896 0.01083 0.52809 0.0
C6678 C 0.94004 0.97244 0.5482 0.0
C6679 C 0.93098 0.99216 0.5344 0.0
C6680 C 0.91823 0.99901 0.52755 0.0
C6681 C 0.95549 0.9805 0.54763 0.0
C6682 C 0.95868 0.99438 0.54016 0.0
C6683 C 0.94642 1.00015 0.53378 0.0
C6684 C 0.97471 1.00251 0.53804 0.0
C6685 C 0.9684 0.97399 0.55463 0.0
C6686 C 0.98288 0.01598 0.5494 0.0
C6687 C 0.99788 0.02388 0.54698 0.0
C6688 C 0.00487 0.01854 0.53307 0.0
C6689 C 0.99664 0.00486 0.52186 0.0
C6690 C 0.98172 0.99696 0.52433 0.0
H6691 H 0.96402 0.9636 0.56081 0.0
H6692 H 0.97536 0.96978 0.54487 0.0
H6693 H 0.97621 0.98396 0.56335 0.0
H6694 H 0.97764 0.02041 0.56009 0.0
H6695 H 0.00394 0.03418 0.55599 0.0
H6696 H 0.89857 0.16498 0.28965 0.0
H6697 H 0.88509 0.1874 0.28944 0.0
H6698 H 0.84773 0.15451 0.25841 0.0
H6699 H 0.86077 0.1319 0.25907 0.0
H6700 H 0.87684 0.20393 0.26841 0.0
H6701 H 0.82141 0.17472 0.28846 0.0
H6702 H 0.83816 0.16579 0.28896 0.0
H6703 H 0.82605 0.16279 0.2705 0.0
C6704 C 0.88737 0.16221 0.28293 0.0
C6705 C 0.88106 0.146 0.27447 0.0
C6706 C 0.87958 0.17536 0.28271 0.0
C6707 C 0.86493 0.17313 0.27417 0.0
C6708 C 0.85868 0.15701 0.26558 0.0
H6709 H 0.82661 0.25322 0.24303 0.0
H6710 H 0.83843 0.23014 0.24596 0.0
C6711 C 0.86646 0.14387 0.26576 0.0
C6712 C 0.85661 0.18758 0.27388 0.0
H6713 H 0.82162 0.19932 0.27816 0.0
C6714 C 0.86477 0.20274 0.27062 0.0
C6715 C 0.84078 0.1868 0.27695 0.0
C6716 C 0.83111 0.17173 0.28158 0.0
C6717 C 0.85775 0.21642 0.26991 0.0
C6718 C 0.84181 0.21542 0.27236 0.0
C6719 C 0.83372 0.20046 0.27607 0.0
C6720 C 0.83347 0.22953 0.27062 0.0
C6721 C 0.86773 0.23208 0.26675 0.0
C6722 C 0.82596 0.23724 0.28324 0.0
C6723 C 0.81906 0.25083 0.28156 0.0
C6724 C 0.81898 0.25701 0.26702 0.0
C6725 C 0.82618 0.24899 0.25442 0.0
C6726 C 0.83316 0.23566 0.25613 0.0
H6727 H 0.88019 0.23272 0.26979 0.0
H6728 H 0.8661 0.23258 0.25377 0.0
H6729 H 0.86452 0.24302 0.27379 0.0
H6730 H 0.82579 0.23305 0.29463 0.0
H6731 H 0.81406 0.25667 0.29177 0.0
H6732 H 0.71668 0.09916 0.04936 0.0
H6733 H 0.68914 0.09261 0.05314 0.0
H6734 H 0.67878 0.07419 1.00219 0.0
H6735 H 0.70636 0.08078 0.99828 0.0
H6736 H 0.66347 0.09841 0.01418 0.0
H6737 H 0.65696 0.05003 0.05179 0.0
H6738 H 0.67186 0.068 0.05935 0.0
H6739 H 0.67365 0.05501 0.04072 0.0
C6740 C 0.70858 0.09322 0.03903 0.0
C6741 C 0.71365 0.09048 0.02351 0.0
C6742 C 0.69285 0.08951 0.04122 0.0
C6743 C 0.68197 0.08286 0.02796 0.0
C6744 C 0.68704 0.07934 0.01257 0.0
H6745 H 0.58657 0.04282 0.01519 0.0
H6746 H 0.61445 0.04906 0.01969 0.0
C6747 C 0.70276 0.0831 0.01035 0.0
C6748 C 0.66529 0.08118 0.02981 0.0
H6749 H 0.63508 0.06113 0.04732 0.0
C6750 C 0.65724 0.09029 0.02146 0.0
C6751 C 0.6573 0.07066 0.0394 0.0
C6752 C 0.66532 0.06024 0.04824 0.0
C6753 C 0.64129 0.08883 0.02204 0.0
C6754 C 0.63327 0.07823 0.03155 0.0
C6755 C 0.64137 0.06942 0.04024 0.0
C6756 C 0.61624 0.07441 0.03081 0.0
C6757 C 0.63305 0.09803 0.01191 0.0
C6758 C 0.60795 0.08657 0.03573 0.0
C6759 C 0.59179 0.08287 0.03333 0.0
C6760 C 0.58382 0.06688 0.02645 0.0
C6761 C 0.59222 0.05486 0.02152 0.0
C6762 C 0.60825 0.05851 0.02388 0.0
H6763 H 0.64052 0.10336 1.00312 0.0
H6764 H 0.62245 0.08982 0.0052 0.0
H6765 H 0.62953 0.10823 0.01985 0.0
H6766 H 0.61396 0.09893 0.04114 0.0
H6767 H 0.58552 0.09242 0.03687 0.0
H6768 H 0.22319 0.4501 0.22489 0.0
H6769 H 0.24262 0.43399 0.22935 0.0
H6770 H 0.26053 0.46781 0.2735 0.0
H6771 H 0.24131 0.4839 0.26917 0.0
H6772 H 0.28288 0.4564 0.2472 0.0
H6773 H 0.24161 0.409 0.27134 0.0
H6774 H 0.23575 0.41611 0.25356 0.0
H6775 H 0.23874 0.42968 0.27268 0.0
C6776 C 0.23134 0.45409 0.23548 0.0
C6777 C 0.23067 0.46808 0.2468 0.0
C6778 C 0.24237 0.44493 0.238 0.0
C6779 C 0.25289 0.44981 0.25174 0.0
C6780 C 0.25245 0.46393 0.26284 0.0
H6781 H 0.31202 0.40462 0.30367 0.0
H6782 H 0.29684 0.42325 0.29491 0.0
C6783 C 0.2414 0.47298 0.26042 0.0
C6784 C 0.26408 0.43995 0.25507 0.0
H6785 H 0.26771 0.40718 0.2722 0.0
C6786 C 0.27961 0.44553 0.25251 0.0
C6787 C 0.25964 0.42594 0.26211 0.0
C6788 C 0.24305 0.41973 0.26517 0.0
C6789 C 0.29096 0.43743 0.25701 0.0
C6790 C 0.28655 0.42358 0.26431 0.0
C6791 C 0.27098 0.41791 0.26669 0.0
C6792 C 0.29784 0.41459 0.2695 0.0
C6793 C 0.3076 0.44384 0.25432 0.0
C6794 C 0.30368 0.40398 0.25805 0.0
C6795 C 0.31226 0.39337 0.263 0.0
C6796 C 0.31514 0.39329 0.27946 0.0
C6797 C 0.3101 0.40464 0.29093 0.0
C6798 C 0.30139 0.41516 0.28595 0.0
H6799 H 0.30937 0.45584 0.25026 0.0
H6800 H 0.31511 0.44522 0.26558 0.0
H6801 H 0.31132 0.43487 0.24502 0.0
H6802 H 0.3009 0.40331 0.24531 0.0
H6803 H 0.31602 0.38467 0.25397 0.0
H6804 H 0.22248 0.43237 0.05069 0.0
H6805 H 0.20092 0.44618 0.04896 0.0
H6806 H 0.21469 0.45838 0.00354 0.0
H6807 H 0.23579 0.44395 0.00493 0.0
H6808 H 0.20042 0.47636 0.04929 0.0
H6809 H 0.16986 0.44182 0.99146 0.0
H6810 H 0.18519 0.43515 1.00144 0.0
H6811 H 0.18958 0.45036 0.98882 0.0
C6812 C 0.22078 0.43788 0.04027 0.0
C6813 C 0.23075 0.437 0.0279 0.0
C6814 C 0.20845 0.44576 0.03927 0.0
C6815 C 0.2059 0.4531 0.02596 0.0
C6816 C 0.21599 0.45236 0.01367 0.0
H6817 H 0.16268 0.53477 0.02516 0.0
H6818 H 0.17926 0.51587 0.02869 0.0
C6819 C 0.22815 0.44421 0.01452 0.0
C6820 C 0.19331 0.46234 0.02539 0.0
H6821 H 0.16407 0.46826 1.00074 0.0
C6822 C 0.19237 0.47441 0.03872 0.0
C6823 C 0.18245 0.45964 0.01181 0.0
C6824 C 0.18171 0.4459 0.99767 0.0
C6825 C 0.18141 0.48425 0.03859 0.0
C6826 C 0.17143 0.48246 0.02451 0.0
C6827 C 0.17188 0.4699 0.01145 0.0
C6828 C 0.16101 0.49394 0.02278 0.0
C6829 C 0.18061 0.49637 0.05365 0.0
C6830 C 0.1452 0.48799 0.0178 0.0
C6831 C 0.13567 0.49883 0.01533 0.0
C6832 C 0.14177 0.51588 0.01773 0.0
C6833 C 0.15756 0.52175 0.02294 0.0
C6834 C 0.16706 0.51093 0.02525 0.0
H6835 H 0.18453 0.49215 0.06457 0.0
H6836 H 0.18842 0.50831 0.05318 0.0
H6837 H 0.1687 0.49831 0.05489 0.0
H6838 H 0.14024 0.47493 0.01569 0.0
H6839 H 0.12364 0.4938 0.01113 0.0
H6840 H 0.85589 0.98254 0.27616 0.0
H6841 H 0.84352 0.95384 0.27594 0.0
H6842 H 0.88368 0.93862 0.25765 0.0
H6843 H 0.89637 0.96724 0.25836 0.0
H6844 H 0.83489 0.927 0.2519 0.0
H6845 H 0.87818 0.91379 0.2942 0.0
H6846 H 0.87794 0.9344 0.29144 0.0
H6847 H 0.88632 0.92119 0.27716 0.0
C6848 C 0.86229 0.9732 0.27228 0.0
C6849 C 0.87735 0.97764 0.26736 0.0
C6850 C 0.85506 0.9566 0.27204 0.0
C6851 C 0.86261 0.94373 0.26704 0.0
C6852 C 0.87755 0.94809 0.26194 0.0
H6853 H 0.83885 0.83557 0.26031 0.0
H6854 H 0.85127 0.86417 0.25976 0.0
C6855 C 0.88478 0.96466 0.26214 0.0
C6856 C 0.85478 0.92588 0.26688 0.0
H6857 H 0.85906 0.891 0.28071 0.0
C6858 C 0.8402 0.9192 0.25829 0.0
C6859 C 0.86152 0.91534 0.27506 0.0
C6860 C 0.87678 0.92154 0.28511 0.0
C6861 C 0.83248 0.90256 0.25736 0.0
C6862 C 0.83915 0.89203 0.26567 0.0
C6863 C 0.85375 0.89874 0.27426 0.0
C6864 C 0.83127 0.87419 0.26568 0.0
C6865 C 0.81744 0.89637 0.24692 0.0
C6866 C 0.8158 0.86977 0.26939 0.0
C6867 C 0.80858 0.85326 0.26946 0.0
C6868 C 0.81656 0.84046 0.26611 0.0
C6869 C 0.83215 0.84491 0.26281 0.0
C6870 C 0.83934 0.86141 0.26253 0.0
H6871 H 0.81663 0.90377 0.23737 0.0
H6872 H 0.81605 0.88333 0.24107 0.0
H6873 H 0.80769 0.89745 0.25445 0.0
H6874 H 0.80928 0.87914 0.27261 0.0
H6875 H 0.79686 0.85067 0.27272 0.0
H6876 H 0.75422 0.11327 0.79073 0.0
H6877 H 0.76701 0.14246 0.79646 0.0
H6878 H 0.76277 0.14386 0.74575 0.0
H6879 H 0.75008 0.11484 0.73994 0.0
H6880 H 0.79073 0.1632 0.76245 0.0
H6881 H 0.73849 0.17461 0.79251 0.0
H6882 H 0.74899 0.16123 0.80042 0.0
H6883 H 0.73904 0.15495 0.78064 0.0
C6884 C 0.75629 0.11978 0.78081 0.0
C6885 C 0.75099 0.1119 0.76492 0.0
C6886 C 0.76357 0.13639 0.7841 0.0
C6887 C 0.7655 0.1453 0.77154 0.0
C6888 C 0.76133 0.13715 0.75559 0.0
H6889 H 0.75725 0.24058 0.76159 0.0
H6890 H 0.75499 0.21159 0.76327 0.0
C6891 C 0.75413 0.12056 0.75228 0.0
C6892 C 0.77019 0.16336 0.77486 0.0
H6893 H 0.75645 0.19752 0.78821 0.0
C6894 C 0.7834 0.1708 0.76828 0.0
C6895 C 0.76049 0.17309 0.78241 0.0
C6896 C 0.7459 0.16564 0.78933 0.0
C6897 C 0.78675 0.18769 0.76825 0.0
C6898 C 0.77672 0.1974 0.77525 0.0
C6899 C 0.76401 0.19004 0.78268 0.0
C6900 C 0.7784 0.2149 0.77395 0.0
C6901 C 0.80044 0.1947 0.75983 0.0
C6902 C 0.79225 0.22637 0.7794 0.0
C6903 C 0.79366 0.24275 0.77794 0.0
C6904 C 0.78116 0.248 0.77129 0.0
C6905 C 0.76712 0.23669 0.76642 0.0
C6906 C 0.76583 0.22021 0.76748 0.0
H6907 H 0.80412 0.18509 0.7512 0.0
H6908 H 0.79762 0.20403 0.75322 0.0
H6909 H 0.81034 0.20064 0.76887 0.0
H6910 H 0.80189 0.22273 0.78501 0.0
H6911 H 0.80434 0.25133 0.78258 0.0
loop_
_geom_bond_atom_site_label_1
_geom_bond_atom_site_label_2
_geom_bond_distance
_geom_bond_site_symmetry_2
_ccdc_geom_bond_type
Li0 N17 1.990 . S
Li0 O60 1.956 . S
Li0 O61 1.970 . S
Li0 O62 1.961 . S
Li1 N25 1.990 . S
Li1 O60 1.970 . S
Li1 O61 1.956 . S
Li1 O63 1.961 . S
Li2 N47 1.990 . S
Li2 O60 1.961 . S
Li2 O62 1.956 . S
Li2 O63 1.970 . S
Li3 N53 1.990 . S
Li3 O61 1.961 . S
Li3 O62 1.970 . S
Li3 O63 1.956 . S
C4 C6 1.348 . S
C4 C7 1.356 . S
C4 O60 1.325 . S
N5 C8 1.314 . S
N5 C9 1.279 . S
C6 C4 1.348 . S
C6 C8 1.353 . S
C6 H64 0.929 . S
C7 C4 1.356 . S
C7 C9 1.358 . S
C7 H65 0.930 . S
C8 N5 1.314 . S
C8 C6 1.353 . S
C8 H66 0.930 . S
C9 N5 1.279 . S
C9 C7 1.358 . S
C9 H67 0.930 . S
C10 C13 1.348 . S
C10 C14 1.356 . S
C10 O61 1.325 . S
C11 N12 1.279 . S
C11 C14 1.358 . S
C11 H68 0.930 . S
N12 C11 1.279 . S
N12 C15 1.314 . S
C13 C10 1.348 . S
C13 C15 1.353 . S
C13 H69 0.929 . S
C14 C10 1.356 . S
C14 C11 1.358 . S
C14 H70 0.930 . S
C15 N12 1.314 . S
C15 C13 1.353 . S
C15 H71 0.930 . S
C16 N17 1.314 . S
C16 C21 1.353 . S
C16 H22 0.930 . S
N17 Li0 1.990 . S
N17 C16 1.314 . S
N17 C19 1.279 . S
C18 C19 1.358 . S
C18 C20 1.356 . S
C18 H72 0.930 . S
C19 N17 1.279 . S
C19 C18 1.358 . S
C19 H23 0.930 . S
C20 C18 1.356 . S
C20 C21 1.348 . S
C21 C16 1.353 . S
C21 C20 1.348 . S
C21 H73 0.929 . S
H22 C16 0.930 . S
H23 C19 0.930 . S
C24 N25 1.314 . S
C24 C26 1.353 . S
C24 H30 0.930 . S
N25 Li1 1.990 . S
N25 C24 1.314 . S
N25 C28 1.279 . S
C26 C24 1.353 . S
C26 C29 1.348 . S
C26 H74 0.929 . S
C27 C28 1.358 . S
C27 C29 1.356 . S
C27 H75 0.930 . S
C28 N25 1.279 . S
C28 C27 1.358 . S
C28 H31 0.930 . S
C29 C26 1.348 . S
C29 C27 1.356 . S
H30 C24 0.930 . S
H31 C28 0.930 . S
C32 C34 1.348 . S
C32 C35 1.356 . S
C32 O62 1.325 . S
N33 C36 1.314 . S
N33 C37 1.279 . S
C34 C32 1.348 . S
C34 C36 1.353 . S
C34 H76 0.929 . S
C35 C32 1.356 . S
C35 C37 1.358 . S
C35 H77 0.930 . S
C36 N33 1.314 . S
C36 C34 1.353 . S
C36 H78 0.930 . S
C37 N33 1.279 . S
C37 C35 1.358 . S
C37 H79 0.930 . S
C38 C39 1.348 . S
C38 C40 1.356 . S
C38 O63 1.325 . S
C39 C38 1.348 . S
C39 C41 1.353 . S
C39 H80 0.929 . S
C40 C38 1.356 . S
C40 C42 1.358 . S
C40 H81 0.930 . S
C41 C39 1.353 . S
C41 N43 1.314 . S
C41 H82 0.930 . S
C42 C40 1.358 . S
C42 N43 1.279 . S
C42 H83 0.930 . S
N43 C41 1.314 . S
N43 C42 1.279 . S
C44 C46 1.353 . S
C44 N47 1.314 . S
C44 H50 0.930 . S
C45 N47 1.279 . S
C45 C48 1.358 . S
C45 H51 0.930 . S
C46 C44 1.353 . S
C46 C49 1.348 . S
C46 H84 0.929 . S
N47 Li2 1.990 . S
N47 C44 1.314 . S
N47 C45 1.279 . S
C48 C45 1.358 . S
C48 C49 1.356 . S
C48 H85 0.930 . S
C49 C46 1.348 . S
C49 C48 1.356 . S
H50 C44 0.930 . S
H51 C45 0.930 . S
C52 N53 1.314 . S
C52 C54 1.353 . S
C52 H58 0.930 . S
N53 Li3 1.990 . S
N53 C52 1.314 . S
N53 C56 1.279 . S
C54 C52 1.353 . S
C54 C57 1.348 . S
C54 H86 0.929 . S
C55 C56 1.358 . S
C55 C57 1.356 . S
C55 H87 0.930 . S
C56 N53 1.279 . S
C56 C55 1.358 . S
C56 H59 0.930 . S
C57 C54 1.348 . S
C57 C55 1.356 . S
H58 C52 0.930 . S
H59 C56 0.930 . S
O60 Li0 1.956 . S
O60 Li1 1.970 . S
O60 Li2 1.961 . S
O60 C4 1.325 . S
O61 Li0 1.970 . S
O61 Li1 1.956 . S
O61 Li3 1.961 . S
O61 C10 1.325 . S
O62 Li0 1.961 . S
O62 Li2 1.956 . S
O62 Li3 1.970 . S
O62 C32 1.325 . S
O63 Li1 1.961 . S
O63 Li2 1.970 . S
O63 Li3 1.956 . S
O63 C38 1.325 . S
H64 C6 0.929 . S
H65 C7 0.930 . S
H66 C8 0.930 . S
H67 C9 0.930 . S
H68 C11 0.930 . S
H69 C13 0.929 . S
H70 C14 0.930 . S
H71 C15 0.930 . S
H72 C18 0.930 . S
H73 C21 0.929 . S
H74 C26 0.929 . S
H75 C27 0.930 . S
H76 C34 0.929 . S
H77 C35 0.930 . S
H78 C36 0.930 . S
H79 C37 0.930 . S
H80 C39 0.929 . S
H81 C40 0.930 . S
H82 C41 0.930 . S
H83 C42 0.930 . S
H84 C46 0.929 . S
H85 C48 0.930 . S
H86 C54 0.929 . S
H87 C55 0.930 . S
Li88 N105 1.990 . S
Li88 O148 1.956 . S
Li88 O149 1.970 . S
Li88 O150 1.961 1_455 S
Li89 N113 1.990 . S
Li89 O148 1.970 . S
Li89 O149 1.956 . S
Li89 O151 1.929 1_455 S
Li90 N135 1.990 . S
Li90 O148 1.961 1_655 S
Li90 O150 1.956 . S
Li90 O151 1.973 . S
Li91 N141 1.990 . S
Li91 O149 1.961 1_655 S
Li91 O150 1.970 . S
Li91 O151 2.001 . S
C92 C94 1.348 . S
C92 C95 1.356 . S
C92 O148 1.325 . S
N93 C96 1.314 . S
N93 C97 1.279 . S
C94 C92 1.348 . S
C94 C96 1.353 . S
C94 H152 0.929 . S
C95 C92 1.356 . S
C95 C97 1.358 . S
C95 H153 0.930 . S
C96 N93 1.314 . S
C96 C94 1.353 . S
C96 H154 0.930 . S
C97 N93 1.279 . S
C97 C95 1.358 . S
C97 H155 0.930 . S
C98 C101 1.348 . S
C98 C102 1.356 . S
C98 O149 1.325 . S
C99 N100 1.279 . S
C99 C102 1.358 . S
C99 H156 0.930 . S
N100 C99 1.279 . S
N100 C103 1.314 . S
C101 C98 1.348 . S
C101 C103 1.353 . S
C101 H157 0.929 . S
C102 C98 1.356 . S
C102 C99 1.358 . S
C102 H158 0.924 1_455 S
C103 N100 1.314 . S
C103 C101 1.353 . S
C103 H159 0.930 . S
C104 N105 1.314 1_655 S
C104 C109 1.353 . S
C104 H110 0.930 . S
N105 Li88 1.990 . S
N105 C104 1.314 1_455 S
N105 C107 1.279 . S
C106 C107 1.358 . S
C106 C108 1.356 . S
C106 H160 0.930 . S
C107 N105 1.279 . S
C107 C106 1.358 . S
C107 H111 0.930 . S
C108 C106 1.356 . S
C108 C109 1.348 1_455 S
C109 C104 1.353 . S
C109 C108 1.348 1_655 S
C109 H161 0.929 . S
H110 C104 0.930 . S
H111 C107 0.930 . S
C112 N113 1.314 . S
C112 C114 1.353 . S
C112 H118 0.930 . S
N113 Li89 1.990 . S
N113 C112 1.314 . S
N113 C116 1.279 . S
C114 C112 1.353 . S
C114 C117 1.348 . S
C114 H162 0.929 . S
C115 C116 1.358 . S
C115 C117 1.356 . S
C115 H163 0.930 . S
C116 N113 1.279 . S
C116 C115 1.358 . S
C116 H119 0.930 . S
C117 C114 1.348 . S
C117 C115 1.356 . S
H118 C112 0.930 . S
H119 C116 0.930 . S
C120 C122 1.348 . S
C120 C123 1.356 . S
C120 O150 1.325 . S
N121 C124 1.314 . S
N121 C125 1.279 . S
C122 C120 1.348 . S
C122 C124 1.353 . S
C122 H164 0.929 . S
C123 C120 1.356 . S
C123 C125 1.358 . S
C123 H165 0.930 . S
C124 N121 1.314 . S
C124 C122 1.353 . S
C124 H166 0.930 . S
C125 N121 1.279 . S
C125 C123 1.358 . S
C125 H167 0.930 . S
C126 C127 1.348 . S
C126 C128 1.356 1_655 S
C126 O151 1.323 . S
C127 C126 1.348 . S
C127 C129 1.353 . S
C127 H168 0.929 . S
C128 C126 1.356 1_455 S
C128 C130 1.359 . S
C128 H169 0.930 . S
C129 C127 1.353 . S
C129 N131 1.314 . S
C129 H170 0.930 . S
C130 C128 1.359 . S
C130 N131 1.280 1_455 S
C130 H171 0.929 . S
N131 C129 1.314 . S
N131 C130 1.280 1_655 S
C132 C134 1.353 . S
C132 N135 1.314 1_455 S
C132 H138 0.930 . S
C133 N135 1.279 . S
C133 C136 1.358 . S
C133 H139 0.930 . S
C134 C132 1.353 . S
C134 C137 1.348 1_455 S
C134 H172 0.929 . S
N135 Li90 1.990 . S
N135 C132 1.314 1_655 S
N135 C133 1.279 . S
C136 C133 1.358 . S
C136 C137 1.356 . S
C136 H173 0.930 . S
C137 C134 1.348 1_655 S
C137 C136 1.356 . S
H138 C132 0.930 . S
H139 C133 0.930 . S
C140 N141 1.314 . S
C140 C142 1.353 . S
C140 H146 0.930 . S
N141 Li91 1.990 . S
N141 C140 1.314 . S
N141 C144 1.279 . S
C142 C140 1.353 . S
C142 C145 1.348 . S
C142 H174 0.929 . S
C143 C144 1.358 . S
C143 C145 1.356 . S
C143 H175 0.930 . S
C144 N141 1.279 . S
C144 C143 1.358 . S
C144 H147 0.930 . S
C145 C142 1.348 . S
C145 C143 1.356 . S
H146 C140 0.930 . S
H147 C144 0.930 . S
O148 Li88 1.956 . S
O148 Li89 1.970 . S
O148 Li90 1.961 1_455 S
O148 C92 1.325 . S
O149 Li88 1.970 . S
O149 Li89 1.956 . S
O149 Li91 1.961 1_455 S
O149 C98 1.325 . S
O150 Li88 1.961 1_655 S
O150 Li90 1.956 . S
O150 Li91 1.970 . S
O150 C120 1.325 . S
O151 Li89 1.929 1_655 S
O151 Li90 1.973 . S
O151 Li91 2.001 . S
O151 C126 1.323 . S
H152 C94 0.929 . S
H153 C95 0.930 . S
H154 C96 0.930 . S
H155 C97 0.930 . S
H156 C99 0.930 . S
H157 C101 0.929 . S
H158 C102 0.924 1_655 S
H159 C103 0.930 . S
H160 C106 0.930 . S
H161 C109 0.929 . S
H162 C114 0.929 . S
H163 C115 0.930 . S
H164 C122 0.929 . S
H165 C123 0.930 . S
H166 C124 0.930 . S
H167 C125 0.930 . S
H168 C127 0.929 . S
H169 C128 0.930 . S
H170 C129 0.930 . S
H171 C130 0.929 . S
H172 C134 0.929 . S
H173 C136 0.930 . S
H174 C142 0.929 . S
H175 C143 0.930 . S
Li176 N193 1.990 . S
Li176 O236 1.956 . S
Li176 O237 1.970 . S
Li176 O238 1.961 . S
Li177 N201 1.990 . S
Li177 O236 1.970 . S
Li177 O237 1.956 . S
Li177 O239 1.961 . S
Li178 N223 1.990 . S
Li178 O236 1.961 . S
Li178 O238 1.956 . S
Li178 O239 1.970 . S
Li179 N229 1.990 . S
Li179 O237 1.961 . S
Li179 O238 1.970 . S
Li179 O239 1.956 . S
C180 C182 1.348 . S
C180 C183 1.356 . S
C180 O236 1.325 . S
N181 C184 1.314 . S
N181 C185 1.279 . S
C182 C180 1.348 . S
C182 C184 1.353 . S
C182 H240 0.929 . S
C183 C180 1.356 . S
C183 C185 1.358 . S
C183 H241 0.930 . S
C184 N181 1.314 . S
C184 C182 1.353 . S
C184 H242 0.930 . S
C185 N181 1.279 . S
C185 C183 1.358 . S
C185 H243 0.930 . S
C186 C189 1.348 . S
C186 C190 1.356 . S
C186 O237 1.325 . S
C187 N188 1.279 . S
C187 C190 1.358 . S
C187 H244 0.930 . S
N188 C187 1.279 . S
N188 C191 1.314 . S
C189 C186 1.348 . S
C189 C191 1.353 . S
C189 H245 0.929 . S
C190 C186 1.356 . S
C190 C187 1.358 . S
C190 H246 0.930 . S
C191 N188 1.314 . S
C191 C189 1.353 . S
C191 H247 0.930 . S
C192 N193 1.314 . S
C192 C197 1.353 . S
C192 H198 0.930 . S
N193 Li176 1.990 . S
N193 C192 1.314 . S
N193 C195 1.279 . S
C194 C195 1.358 . S
C194 C196 1.356 . S
C194 H248 0.930 . S
C195 N193 1.279 . S
C195 C194 1.358 . S
C195 H199 0.930 . S
C196 C194 1.356 . S
C196 C197 1.348 . S
C197 C192 1.353 . S
C197 C196 1.348 . S
C197 H249 0.929 . S
H198 C192 0.930 . S
H199 C195 0.930 . S
C200 N201 1.314 . S
C200 C202 1.353 . S
C200 H206 0.930 . S
N201 Li177 1.990 . S
N201 C200 1.314 . S
N201 C204 1.279 . S
C202 C200 1.353 . S
C202 C205 1.348 . S
C202 H250 0.929 . S
C203 C204 1.358 . S
C203 C205 1.356 . S
C203 H251 0.930 . S
C204 N201 1.279 . S
C204 C203 1.358 . S
C204 H207 0.930 . S
C205 C202 1.348 . S
C205 C203 1.356 . S
H206 C200 0.930 . S
H207 C204 0.930 . S
C208 C210 1.348 . S
C208 C211 1.356 . S
C208 O238 1.325 . S
N209 C212 1.314 . S
N209 C213 1.279 . S
C210 C208 1.348 . S
C210 C212 1.353 . S
C210 H252 0.929 . S
C211 C208 1.356 . S
C211 C213 1.358 . S
C211 H253 0.930 . S
C212 N209 1.314 . S
C212 C210 1.353 . S
C212 H254 0.930 . S
C213 N209 1.279 . S
C213 C211 1.358 . S
C213 H255 0.930 . S
C214 C215 1.348 . S
C214 C216 1.356 . S
C214 O239 1.325 . S
C215 C214 1.348 . S
C215 C217 1.353 . S
C215 H256 0.929 . S
C216 C214 1.356 . S
C216 C218 1.358 . S
C216 H257 0.930 . S
C217 C215 1.353 . S
C217 N219 1.314 . S
C217 H258 0.930 . S
C218 C216 1.358 . S
C218 N219 1.279 . S
C218 H259 0.930 . S
N219 C217 1.314 . S
N219 C218 1.279 . S
C220 C222 1.353 . S
C220 N223 1.314 . S
C220 H226 0.930 . S
C221 N223 1.279 . S
C221 C224 1.358 . S
C221 H227 0.930 . S
C222 C220 1.353 . S
C222 C225 1.348 . S
C222 H260 0.929 . S
N223 Li178 1.990 . S
N223 C220 1.314 . S
N223 C221 1.279 . S
C224 C221 1.358 . S
C224 C225 1.356 . S
C224 H261 0.930 . S
C225 C222 1.348 . S
C225 C224 1.356 . S
H226 C220 0.930 . S
H227 C221 0.930 . S
C228 N229 1.314 . S
C228 C230 1.353 . S
C228 H234 0.930 . S
N229 Li179 1.990 . S
N229 C228 1.314 . S
N229 C232 1.279 . S
C230 C228 1.353 . S
C230 C233 1.348 . S
C230 H262 0.929 . S
C231 C232 1.358 . S
C231 C233 1.356 . S
C231 H263 0.930 . S
C232 N229 1.279 . S
C232 C231 1.358 . S
C232 H235 0.930 . S
C233 C230 1.348 . S
C233 C231 1.356 . S
H234 C228 0.930 . S
H235 C232 0.930 . S
O236 Li176 1.956 . S
O236 Li177 1.970 . S
O236 Li178 1.961 . S
O236 C180 1.325 . S
O237 Li176 1.970 . S
O237 Li177 1.956 . S
O237 Li179 1.961 . S
O237 C186 1.325 . S
O238 Li176 1.961 . S
O238 Li178 1.956 . S
O238 Li179 1.970 . S
O238 C208 1.325 . S
O239 Li177 1.961 . S
O239 Li178 1.970 . S
O239 Li179 1.956 . S
O239 C214 1.325 . S
H240 C182 0.929 . S
H241 C183 0.930 . S
H242 C184 0.930 . S
H243 C185 0.930 . S
H244 C187 0.930 . S
H245 C189 0.929 . S
H246 C190 0.930 . S
H247 C191 0.930 . S
H248 C194 0.930 . S
H249 C197 0.929 . S
H250 C202 0.929 . S
H251 C203 0.930 . S
H252 C210 0.929 . S
H253 C211 0.930 . S
H254 C212 0.930 . S
H255 C213 0.930 . S
H256 C215 0.929 . S
H257 C216 0.930 . S
H258 C217 0.930 . S
H259 C218 0.930 . S
H260 C222 0.929 . S
H261 C224 0.930 . S
H262 C230 0.929 . S
H263 C231 0.930 . S
Li264 N281 1.990 . S
Li264 O324 1.956 . S
Li264 O325 1.970 . S
Li264 O326 1.961 . S
Li265 N289 1.990 . S
Li265 O324 1.970 . S
Li265 O325 1.956 . S
Li265 O327 1.961 . S
Li266 N311 1.990 . S
Li266 O324 1.961 . S
Li266 O326 1.956 . S
Li266 O327 1.970 . S
Li267 N317 1.990 . S
Li267 O325 1.961 . S
Li267 O326 1.970 . S
Li267 O327 1.956 . S
C268 C270 1.348 . S
C268 C271 1.356 . S
C268 O324 1.325 . S
N269 C272 1.314 . S
N269 C273 1.279 . S
C270 C268 1.348 . S
C270 C272 1.353 . S
C270 H328 0.929 . S
C271 C268 1.356 . S
C271 C273 1.358 . S
C271 H329 0.930 . S
C272 N269 1.314 . S
C272 C270 1.353 . S
C272 H330 0.930 . S
C273 N269 1.279 . S
C273 C271 1.358 . S
C273 H331 0.930 . S
C274 C277 1.348 . S
C274 C278 1.356 . S
C274 O325 1.325 . S
C275 N276 1.279 . S
C275 C278 1.358 . S
C275 H332 0.930 . S
N276 C275 1.279 . S
N276 C279 1.314 . S
C277 C274 1.348 . S
C277 C279 1.353 . S
C277 H333 0.929 . S
C278 C274 1.356 . S
C278 C275 1.358 . S
C278 H334 0.930 . S
C279 N276 1.314 . S
C279 C277 1.353 . S
C279 H335 0.930 . S
C280 N281 1.314 . S
C280 C285 1.353 . S
C280 H286 0.930 . S
N281 Li264 1.990 . S
N281 C280 1.314 . S
N281 C283 1.279 . S
C282 C283 1.358 . S
C282 C284 1.356 . S
C282 H336 0.930 . S
C283 N281 1.279 . S
C283 C282 1.358 . S
C283 H287 0.930 . S
C284 C282 1.356 . S
C284 C285 1.348 . S
C285 C280 1.353 . S
C285 C284 1.348 . S
C285 H337 0.929 . S
H286 C280 0.930 . S
H287 C283 0.930 . S
C288 N289 1.314 . S
C288 C290 1.353 . S
C288 H294 0.930 . S
N289 Li265 1.990 . S
N289 C288 1.314 . S
N289 C292 1.279 . S
C290 C288 1.353 . S
C290 C293 1.348 . S
C290 H338 0.929 . S
C291 C292 1.358 . S
C291 C293 1.356 . S
C291 H339 0.930 . S
C292 N289 1.279 . S
C292 C291 1.358 . S
C292 H295 0.930 . S
C293 C290 1.348 . S
C293 C291 1.356 . S
H294 C288 0.930 . S
H295 C292 0.930 . S
C296 C298 1.348 . S
C296 C299 1.356 . S
C296 O326 1.325 . S
N297 C300 1.314 . S
N297 C301 1.279 . S
C298 C296 1.348 . S
C298 C300 1.353 . S
C298 H340 0.929 . S
C299 C296 1.356 . S
C299 C301 1.358 . S
C299 H341 0.930 . S
C300 N297 1.314 . S
C300 C298 1.353 . S
C300 H342 0.930 . S
C301 N297 1.279 . S
C301 C299 1.358 . S
C301 H343 0.930 . S
C302 C303 1.348 . S
C302 C304 1.356 . S
C302 O327 1.325 . S
C303 C302 1.348 . S
C303 C305 1.353 . S
C303 H344 0.929 . S
C304 C302 1.356 . S
C304 C306 1.358 . S
C304 H345 0.930 . S
C305 C303 1.353 . S
C305 N307 1.314 . S
C305 H346 0.930 . S
C306 C304 1.358 . S
C306 N307 1.279 . S
C306 H347 0.930 . S
N307 C305 1.314 . S
N307 C306 1.279 . S
C308 C310 1.353 . S
C308 N311 1.314 . S
C308 H314 0.930 . S
C309 N311 1.279 . S
C309 C312 1.358 . S
C309 H315 0.930 . S
C310 C308 1.353 . S
C310 C313 1.348 . S
C310 H348 0.929 . S
N311 Li266 1.990 . S
N311 C308 1.314 . S
N311 C309 1.279 . S
C312 C309 1.358 . S
C312 C313 1.356 . S
C312 H349 0.930 . S
C313 C310 1.348 . S
C313 C312 1.356 . S
H314 C308 0.930 . S
H315 C309 0.930 . S
C316 N317 1.314 . S
C316 C318 1.353 . S
C316 H322 0.930 . S
N317 Li267 1.990 . S
N317 C316 1.314 . S
N317 C320 1.279 . S
C318 C316 1.353 . S
C318 C321 1.348 . S
C318 H350 0.929 . S
C319 C320 1.358 . S
C319 C321 1.356 . S
C319 H351 0.930 . S
C320 N317 1.279 . S
C320 C319 1.358 . S
C320 H323 0.930 . S
C321 C318 1.348 . S
C321 C319 1.356 . S
H322 C316 0.930 . S
H323 C320 0.930 . S
O324 Li264 1.956 . S
O324 Li265 1.970 . S
O324 Li266 1.961 . S
O324 C268 1.325 . S
O325 Li264 1.970 . S
O325 Li265 1.956 . S
O325 Li267 1.961 . S
O325 C274 1.325 . S
O326 Li264 1.961 . S
O326 Li266 1.956 . S
O326 Li267 1.970 . S
O326 C296 1.325 . S
O327 Li265 1.961 . S
O327 Li266 1.970 . S
O327 Li267 1.956 . S
O327 C302 1.325 . S
H328 C270 0.929 . S
H329 C271 0.930 . S
H330 C272 0.930 . S
H331 C273 0.930 . S
H332 C275 0.930 . S
H333 C277 0.929 . S
H334 C278 0.930 . S
H335 C279 0.930 . S
H336 C282 0.930 . S
H337 C285 0.929 . S
H338 C290 0.929 . S
H339 C291 0.930 . S
H340 C298 0.929 . S
H341 C299 0.930 . S
H342 C300 0.930 . S
H343 C301 0.930 . S
H344 C303 0.929 . S
H345 C304 0.930 . S
H346 C305 0.930 . S
H347 C306 0.930 . S
H348 C310 0.929 . S
H349 C312 0.930 . S
H350 C318 0.929 . S
H351 C319 0.930 . S
Li352 N369 1.990 . S
Li352 O412 1.956 . S
Li352 O413 1.970 . S
Li352 O414 1.961 . S
Li353 N377 1.990 . S
Li353 O412 1.970 . S
Li353 O413 1.956 . S
Li353 O415 1.961 . S
Li354 N399 1.990 . S
Li354 O412 1.961 . S
Li354 O414 1.956 . S
Li354 O415 1.970 . S
Li355 N405 1.990 . S
Li355 O413 1.961 . S
Li355 O414 1.970 . S
Li355 O415 1.956 . S
C356 C358 1.348 . S
C356 C359 1.356 . S
C356 O412 1.325 . S
N357 C360 1.314 . S
N357 C361 1.279 . S
C358 C356 1.348 . S
C358 C360 1.353 . S
C358 H416 0.929 . S
C359 C356 1.356 . S
C359 C361 1.358 . S
C359 H417 0.930 . S
C360 N357 1.314 . S
C360 C358 1.353 . S
C360 H418 0.930 . S
C361 N357 1.279 . S
C361 C359 1.358 . S
C361 H419 0.930 . S
C362 C365 1.348 . S
C362 C366 1.356 . S
C362 O413 1.325 . S
C363 N364 1.279 . S
C363 C366 1.358 . S
C363 H420 0.930 . S
N364 C363 1.279 . S
N364 C367 1.314 . S
C365 C362 1.348 . S
C365 C367 1.353 . S
C365 H421 0.929 . S
C366 C362 1.356 . S
C366 C363 1.358 . S
C366 H422 0.930 . S
C367 N364 1.314 . S
C367 C365 1.353 . S
C367 H423 0.930 . S
C368 N369 1.314 . S
C368 C373 1.353 . S
C368 H374 0.930 . S
N369 Li352 1.990 . S
N369 C368 1.314 . S
N369 C371 1.279 . S
C370 C371 1.358 . S
C370 C372 1.356 . S
C370 H424 0.930 . S
C371 N369 1.279 . S
C371 C370 1.358 . S
C371 H375 0.930 . S
C372 C370 1.356 . S
C372 C373 1.348 . S
C373 C368 1.353 . S
C373 C372 1.348 . S
C373 H425 0.929 . S
H374 C368 0.930 . S
H375 C371 0.930 . S
C376 N377 1.314 . S
C376 C378 1.353 . S
C376 H382 0.930 . S
N377 Li353 1.990 . S
N377 C376 1.314 . S
N377 C380 1.279 . S
C378 C376 1.353 . S
C378 C381 1.348 . S
C378 H426 0.929 . S
C379 C380 1.358 . S
C379 C381 1.356 . S
C379 H427 0.930 . S
C380 N377 1.279 . S
C380 C379 1.358 . S
C380 H383 0.930 . S
C381 C378 1.348 . S
C381 C379 1.356 . S
H382 C376 0.930 . S
H383 C380 0.930 . S
C384 C386 1.348 . S
C384 C387 1.356 . S
C384 O414 1.325 . S
N385 C388 1.314 . S
N385 C389 1.279 . S
C386 C384 1.348 . S
C386 C388 1.353 . S
C386 H428 0.929 . S
C387 C384 1.356 . S
C387 C389 1.358 . S
C387 H429 0.930 . S
C388 N385 1.314 . S
C388 C386 1.353 . S
C388 H430 0.930 . S
C389 N385 1.279 . S
C389 C387 1.358 . S
C389 H431 0.930 . S
C390 C391 1.348 . S
C390 C392 1.356 . S
C390 O415 1.325 . S
C391 C390 1.348 . S
C391 C393 1.353 . S
C391 H432 0.929 . S
C392 C390 1.356 . S
C392 C394 1.358 . S
C392 H433 0.930 . S
C393 C391 1.353 . S
C393 N395 1.314 . S
C393 H434 0.930 . S
C394 C392 1.358 . S
C394 N395 1.279 . S
C394 H435 0.930 . S
N395 C393 1.314 . S
N395 C394 1.279 . S
C396 C398 1.353 . S
C396 N399 1.314 . S
C396 H402 0.930 . S
C397 N399 1.279 . S
C397 C400 1.358 . S
C397 H403 0.930 . S
C398 C396 1.353 . S
C398 C401 1.348 . S
C398 H436 0.929 . S
N399 Li354 1.990 . S
N399 C396 1.314 . S
N399 C397 1.279 . S
C400 C397 1.358 . S
C400 C401 1.356 . S
C400 H437 0.930 . S
C401 C398 1.348 . S
C401 C400 1.356 . S
H402 C396 0.930 . S
H403 C397 0.930 . S
C404 N405 1.314 . S
C404 C406 1.353 . S
C404 H410 0.930 . S
N405 Li355 1.990 . S
N405 C404 1.314 . S
N405 C408 1.279 . S
C406 C404 1.353 . S
C406 C409 1.348 . S
C406 H438 0.929 . S
C407 C408 1.358 . S
C407 C409 1.356 . S
C407 H439 0.930 . S
C408 N405 1.279 . S
C408 C407 1.358 . S
C408 H411 0.930 . S
C409 C406 1.348 . S
C409 C407 1.356 . S
H410 C404 0.930 . S
H411 C408 0.930 . S
O412 Li352 1.956 . S
O412 Li353 1.970 . S
O412 Li354 1.961 . S
O412 C356 1.325 . S
O413 Li352 1.970 . S
O413 Li353 1.956 . S
O413 Li355 1.961 . S
O413 C362 1.325 . S
O414 Li352 1.961 . S
O414 Li354 1.956 . S
O414 Li355 1.970 . S
O414 C384 1.325 . S
O415 Li353 1.961 . S
O415 Li354 1.970 . S
O415 Li355 1.956 . S
O415 C390 1.325 . S
H416 C358 0.929 . S
H417 C359 0.930 . S
H418 C360 0.930 . S
H419 C361 0.930 . S
H420 C363 0.930 . S
H421 C365 0.929 . S
H422 C366 0.930 . S
H423 C367 0.930 . S
H424 C370 0.930 . S
H425 C373 0.929 . S
H426 C378 0.929 . S
H427 C379 0.930 . S
H428 C386 0.929 . S
H429 C387 0.930 . S
H430 C388 0.930 . S
H431 C389 0.930 . S
H432 C391 0.929 . S
H433 C392 0.930 . S
H434 C393 0.930 . S
H435 C394 0.930 . S
H436 C398 0.929 . S
H437 C400 0.930 . S
H438 C406 0.929 . S
H439 C407 0.930 . S
Li440 N457 1.990 . S
Li440 O500 1.956 . S
Li440 O501 1.970 . S
Li440 O502 1.961 . S
Li441 N465 1.990 . S
Li441 O500 1.970 . S
Li441 O501 1.956 . S
Li441 O503 1.961 . S
Li442 N487 1.990 . S
Li442 O500 1.961 . S
Li442 O502 1.956 . S
Li442 O503 1.970 . S
Li443 N493 1.990 . S
Li443 O501 1.961 . S
Li443 O502 1.970 . S
Li443 O503 1.956 . S
C444 C446 1.348 . S
C444 C447 1.356 . S
C444 O500 1.325 . S
N445 C448 1.314 . S
N445 C449 1.279 . S
C446 C444 1.348 . S
C446 C448 1.353 . S
C446 H504 0.929 . S
C447 C444 1.356 . S
C447 C449 1.358 . S
C447 H505 0.930 . S
C448 N445 1.314 . S
C448 C446 1.353 . S
C448 H506 0.930 . S
C449 N445 1.279 . S
C449 C447 1.358 . S
C449 H507 0.930 . S
C450 C453 1.348 . S
C450 C454 1.356 . S
C450 O501 1.325 . S
C451 N452 1.279 . S
C451 C454 1.358 . S
C451 H508 0.930 . S
N452 C451 1.279 . S
N452 C455 1.314 . S
C453 C450 1.348 . S
C453 C455 1.353 . S
C453 H509 0.929 . S
C454 C450 1.356 . S
C454 C451 1.358 . S
C454 H510 0.930 . S
C455 N452 1.314 . S
C455 C453 1.353 . S
C455 H511 0.930 . S
C456 N457 1.314 . S
C456 C461 1.353 . S
C456 H462 0.930 . S
N457 Li440 1.990 . S
N457 C456 1.314 . S
N457 C459 1.279 . S
C458 C459 1.358 . S
C458 C460 1.356 . S
C458 H512 0.930 . S
C459 N457 1.279 . S
C459 C458 1.358 . S
C459 H463 0.930 . S
C460 C458 1.356 . S
C460 C461 1.348 . S
C461 C456 1.353 . S
C461 C460 1.348 . S
C461 H513 0.929 . S
H462 C456 0.930 . S
H463 C459 0.930 . S
C464 N465 1.314 . S
C464 C466 1.353 . S
C464 H470 0.930 . S
N465 Li441 1.990 . S
N465 C464 1.314 . S
N465 C468 1.279 . S
C466 C464 1.353 . S
C466 C469 1.348 . S
C466 H514 0.929 . S
C467 C468 1.358 . S
C467 C469 1.356 . S
C467 H515 0.930 . S
C468 N465 1.279 . S
C468 C467 1.358 . S
C468 H471 0.930 . S
C469 C466 1.348 . S
C469 C467 1.356 . S
H470 C464 0.930 . S
H471 C468 0.930 . S
C472 C474 1.348 . S
C472 C475 1.356 . S
C472 O502 1.325 . S
N473 C476 1.314 . S
N473 C477 1.279 . S
C474 C472 1.348 . S
C474 C476 1.353 . S
C474 H516 0.929 . S
C475 C472 1.356 . S
C475 C477 1.358 . S
C475 H517 0.930 . S
C476 N473 1.314 . S
C476 C474 1.353 . S
C476 H518 0.930 . S
C477 N473 1.279 . S
C477 C475 1.358 . S
C477 H519 0.930 . S
C478 C479 1.348 . S
C478 C480 1.356 . S
C478 O503 1.325 . S
C479 C478 1.348 . S
C479 C481 1.353 . S
C479 H520 0.929 . S
C480 C478 1.356 . S
C480 C482 1.358 . S
C480 H521 0.930 . S
C481 C479 1.353 . S
C481 N483 1.314 . S
C481 H522 0.930 . S
C482 C480 1.358 . S
C482 N483 1.279 . S
C482 H523 0.930 . S
N483 C481 1.314 . S
N483 C482 1.279 . S
C484 C486 1.353 . S
C484 N487 1.314 . S
C484 H490 0.930 . S
C485 N487 1.279 . S
C485 C488 1.358 . S
C485 H491 0.930 . S
C486 C484 1.353 . S
C486 C489 1.348 . S
C486 H524 0.929 . S
N487 Li442 1.990 . S
N487 C484 1.314 . S
N487 C485 1.279 . S
C488 C485 1.358 . S
C488 C489 1.356 . S
C488 H525 0.930 . S
C489 C486 1.348 . S
C489 C488 1.356 . S
H490 C484 0.930 . S
H491 C485 0.930 . S
C492 N493 1.314 . S
C492 C494 1.353 . S
C492 H498 0.930 . S
N493 Li443 1.990 . S
N493 C492 1.314 . S
N493 C496 1.279 . S
C494 C492 1.353 . S
C494 C497 1.348 . S
C494 H526 0.929 . S
C495 C496 1.358 . S
C495 C497 1.356 . S
C495 H527 0.930 . S
C496 N493 1.279 . S
C496 C495 1.358 . S
C496 H499 0.930 . S
C497 C494 1.348 . S
C497 C495 1.356 . S
H498 C492 0.930 . S
H499 C496 0.930 . S
O500 Li440 1.956 . S
O500 Li441 1.970 . S
O500 Li442 1.961 . S
O500 C444 1.325 . S
O501 Li440 1.970 . S
O501 Li441 1.956 . S
O501 Li443 1.961 . S
O501 C450 1.325 . S
O502 Li440 1.961 . S
O502 Li442 1.956 . S
O502 Li443 1.970 . S
O502 C472 1.325 . S
O503 Li441 1.961 . S
O503 Li442 1.970 . S
O503 Li443 1.956 . S
O503 C478 1.325 . S
H504 C446 0.929 . S
H505 C447 0.930 . S
H506 C448 0.930 . S
H507 C449 0.930 . S
H508 C451 0.930 . S
H509 C453 0.929 . S
H510 C454 0.930 . S
H511 C455 0.930 . S
H512 C458 0.930 . S
H513 C461 0.929 . S
H514 C466 0.929 . S
H515 C467 0.930 . S
H516 C474 0.929 . S
H517 C475 0.930 . S
H518 C476 0.930 . S
H519 C477 0.930 . S
H520 C479 0.929 . S
H521 C480 0.930 . S
H522 C481 0.930 . S
H523 C482 0.930 . S
H524 C486 0.929 . S
H525 C488 0.930 . S
H526 C494 0.929 . S
H527 C495 0.930 . S
Li528 N545 1.990 . S
Li528 O588 1.956 . S
Li528 O589 1.970 . S
Li528 O590 1.961 . S
Li529 N553 1.990 . S
Li529 O588 1.970 . S
Li529 O589 1.956 . S
Li529 O591 1.961 . S
Li530 N575 1.990 . S
Li530 O588 1.961 . S
Li530 O590 1.956 . S
Li530 O591 1.970 . S
Li531 N581 1.990 . S
Li531 O589 1.961 . S
Li531 O590 1.970 . S
Li531 O591 1.956 . S
C532 C534 1.348 . S
C532 C535 1.356 . S
C532 O588 1.325 . S
N533 C536 1.314 . S
N533 C537 1.279 . S
C534 C532 1.348 . S
C534 C536 1.353 . S
C534 H592 0.929 . S
C535 C532 1.356 . S
C535 C537 1.358 . S
C535 H593 0.930 . S
C536 N533 1.314 . S
C536 C534 1.353 . S
C536 H594 0.930 . S
C537 N533 1.279 . S
C537 C535 1.358 . S
C537 H595 0.930 . S
C538 C541 1.348 . S
C538 C542 1.356 . S
C538 O589 1.325 . S
C539 N540 1.279 . S
C539 C542 1.358 . S
C539 H596 0.930 . S
N540 C539 1.279 . S
N540 C543 1.314 . S
C541 C538 1.348 . S
C541 C543 1.353 . S
C541 H597 0.929 . S
C542 C538 1.356 . S
C542 C539 1.358 . S
C542 H598 0.930 . S
C543 N540 1.314 . S
C543 C541 1.353 . S
C543 H599 0.930 . S
C544 N545 1.314 . S
C544 C549 1.353 . S
C544 H550 0.930 . S
N545 Li528 1.990 . S
N545 C544 1.314 . S
N545 C547 1.279 . S
C546 C547 1.358 . S
C546 C548 1.356 . S
C546 H600 0.930 . S
C547 N545 1.279 . S
C547 C546 1.358 . S
C547 H551 0.930 . S
C548 C546 1.356 . S
C548 C549 1.348 . S
C549 C544 1.353 . S
C549 C548 1.348 . S
C549 H601 0.929 . S
H550 C544 0.930 . S
H551 C547 0.930 . S
C552 N553 1.314 . S
C552 C554 1.353 . S
C552 H558 0.930 . S
N553 Li529 1.990 . S
N553 C552 1.314 . S
N553 C556 1.279 . S
C554 C552 1.353 . S
C554 C557 1.348 . S
C554 H602 0.929 . S
C555 C556 1.358 . S
C555 C557 1.356 . S
C555 H603 0.930 . S
C556 N553 1.279 . S
C556 C555 1.358 . S
C556 H559 0.930 . S
C557 C554 1.348 . S
C557 C555 1.356 . S
H558 C552 0.930 . S
H559 C556 0.930 . S
C560 C562 1.348 . S
C560 C563 1.356 . S
C560 O590 1.325 . S
N561 C564 1.314 . S
N561 C565 1.279 . S
C562 C560 1.348 . S
C562 C564 1.353 . S
C562 H604 0.929 . S
C563 C560 1.356 . S
C563 C565 1.358 . S
C563 H605 0.930 . S
C564 N561 1.314 . S
C564 C562 1.353 . S
C564 H606 0.930 . S
C565 N561 1.279 . S
C565 C563 1.358 . S
C565 H607 0.930 . S
C566 C567 1.348 . S
C566 C568 1.356 . S
C566 O591 1.325 . S
C567 C566 1.348 . S
C567 C569 1.353 . S
C567 H608 0.929 . S
C568 C566 1.356 . S
C568 C570 1.358 . S
C568 H609 0.930 . S
C569 C567 1.353 . S
C569 N571 1.314 . S
C569 H610 0.930 . S
C570 C568 1.358 . S
C570 N571 1.279 . S
C570 H611 0.930 . S
N571 C569 1.314 . S
N571 C570 1.279 . S
C572 C574 1.353 . S
C572 N575 1.314 . S
C572 H578 0.930 . S
C573 N575 1.279 . S
C573 C576 1.358 . S
C573 H579 0.930 . S
C574 C572 1.353 . S
C574 C577 1.348 . S
C574 H612 0.929 . S
N575 Li530 1.990 . S
N575 C572 1.314 . S
N575 C573 1.279 . S
C576 C573 1.358 . S
C576 C577 1.356 . S
C576 H613 0.930 . S
C577 C574 1.348 . S
C577 C576 1.356 . S
H578 C572 0.930 . S
H579 C573 0.930 . S
C580 N581 1.314 . S
C580 C582 1.353 . S
C580 H586 0.930 . S
N581 Li531 1.990 . S
N581 C580 1.314 . S
N581 C584 1.279 . S
C582 C580 1.353 . S
C582 C585 1.348 . S
C582 H614 0.929 . S
C583 C584 1.358 . S
C583 C585 1.356 . S
C583 H615 0.930 . S
C584 N581 1.279 . S
C584 C583 1.358 . S
C584 H587 0.930 . S
C585 C582 1.348 . S
C585 C583 1.356 . S
H586 C580 0.930 . S
H587 C584 0.930 . S
O588 Li528 1.956 . S
O588 Li529 1.970 . S
O588 Li530 1.961 . S
O588 C532 1.325 . S
O589 Li528 1.970 . S
O589 Li529 1.956 . S
O589 Li531 1.961 . S
O589 C538 1.325 . S
O590 Li528 1.961 . S
O590 Li530 1.956 . S
O590 Li531 1.970 . S
O590 C560 1.325 . S
O591 Li529 1.961 . S
O591 Li530 1.970 . S
O591 Li531 1.956 . S
O591 C566 1.325 . S
H592 C534 0.929 . S
H593 C535 0.930 . S
H594 C536 0.930 . S
H595 C537 0.930 . S
H596 C539 0.930 . S
H597 C541 0.929 . S
H598 C542 0.930 . S
H599 C543 0.930 . S
H600 C546 0.930 . S
H601 C549 0.929 . S
H602 C554 0.929 . S
H603 C555 0.930 . S
H604 C562 0.929 . S
H605 C563 0.930 . S
H606 C564 0.930 . S
H607 C565 0.930 . S
H608 C567 0.929 . S
H609 C568 0.930 . S
H610 C569 0.930 . S
H611 C570 0.930 . S
H612 C574 0.929 . S
H613 C576 0.930 . S
H614 C582 0.929 . S
H615 C583 0.930 . S
Li616 N633 1.990 . S
Li616 O676 1.973 . S
Li616 O677 1.970 . S
Li616 O678 1.961 . S
Li617 N641 1.990 1_455 S
Li617 O676 1.973 . S
Li617 O677 1.956 . S
Li617 O679 1.961 . S
Li618 N663 1.990 . S
Li618 O676 1.982 . S
Li618 O678 1.956 . S
Li618 O679 1.970 . S
Li619 N669 1.990 . S
Li619 O677 1.961 . S
Li619 O678 1.970 . S
Li619 O679 1.956 . S
C620 C622 1.348 . S
C620 C623 1.356 . S
C620 O676 1.304 1_655 S
N621 C624 1.314 . S
N621 C625 1.279 . S
C622 C620 1.348 . S
C622 C624 1.353 . S
C622 H680 0.929 . S
C623 C620 1.356 . S
C623 C625 1.358 . S
C623 H681 0.970 . S
C624 N621 1.314 . S
C624 C622 1.353 . S
C624 H682 0.930 . S
C625 N621 1.279 . S
C625 C623 1.358 . S
C625 H683 0.930 . S
C626 C629 1.348 . S
C626 C630 1.356 . S
C626 O677 1.325 . S
C627 N628 1.279 . S
C627 C630 1.358 . S
C627 H684 0.930 . S
N628 C627 1.279 . S
N628 C631 1.314 . S
C629 C626 1.348 . S
C629 C631 1.353 . S
C629 H685 0.929 . S
C630 C626 1.356 . S
C630 C627 1.358 . S
C630 H686 0.930 . S
C631 N628 1.314 . S
C631 C629 1.353 . S
C631 H687 0.930 . S
C632 N633 1.314 . S
C632 C637 1.353 . S
C632 H638 0.930 . S
N633 Li616 1.990 . S
N633 C632 1.314 . S
N633 C635 1.279 . S
C634 C635 1.358 . S
C634 C636 1.356 . S
C634 H688 0.930 . S
C635 N633 1.279 . S
C635 C634 1.358 . S
C635 H639 0.954 . S
C636 C634 1.356 . S
C636 C637 1.348 . S
C637 C632 1.353 . S
C637 C636 1.348 . S
C637 H689 0.929 . S
H638 C632 0.930 . S
H639 C635 0.954 . S
C640 N641 1.314 . S
C640 C642 1.353 . S
C640 H646 0.930 . S
N641 Li617 1.990 1_655 S
N641 C640 1.314 . S
N641 C644 1.279 . S
C642 C640 1.353 . S
C642 C645 1.348 . S
C642 H690 0.929 . S
C643 C644 1.358 . S
C643 C645 1.356 . S
C643 H691 0.930 . S
C644 N641 1.279 . S
C644 C643 1.358 . S
C644 H647 0.930 . S
C645 C642 1.348 . S
C645 C643 1.356 . S
H646 C640 0.930 . S
H647 C644 0.930 . S
C648 C650 1.348 . S
C648 C651 1.356 . S
C648 O678 1.325 . S
N649 C652 1.314 . S
N649 C653 1.279 . S
C650 C648 1.348 . S
C650 C652 1.353 . S
C650 H692 0.929 . S
C651 C648 1.356 . S
C651 C653 1.358 . S
C651 H693 0.930 . S
C652 N649 1.314 . S
C652 C650 1.353 . S
C652 H694 0.930 . S
C653 N649 1.279 . S
C653 C651 1.358 . S
C653 H695 0.930 . S
C654 C655 1.348 . S
C654 C656 1.356 . S
C654 O679 1.325 . S
C655 C654 1.348 . S
C655 C657 1.353 . S
C655 H696 0.929 . S
C656 C654 1.356 . S
C656 C658 1.358 . S
C656 H697 0.930 . S
C657 C655 1.353 . S
C657 N659 1.314 . S
C657 H698 0.930 . S
C658 C656 1.358 . S
C658 N659 1.279 . S
C658 H699 0.930 . S
N659 C657 1.314 . S
N659 C658 1.279 . S
C660 C662 1.354 1_455 S
C660 N663 1.314 . S
C660 H666 0.930 1_455 S
C661 N663 1.279 . S
C661 C664 1.358 . S
C661 H667 0.930 . S
C662 C660 1.354 1_655 S
C662 C665 1.324 1_655 S
C662 H700 0.953 . S
N663 Li618 1.990 . S
N663 C660 1.314 . S
N663 C661 1.279 . S
C664 C661 1.358 . S
C664 C665 1.356 . S
C664 H701 0.930 . S
C665 C662 1.324 1_455 S
C665 C664 1.356 . S
H666 C660 0.930 1_655 S
H667 C661 0.930 . S
C668 N669 1.314 . S
C668 C670 1.353 . S
C668 H674 0.930 . S
N669 Li619 1.990 . S
N669 C668 1.314 . S
N669 C672 1.279 . S
C670 C668 1.353 . S
C670 C673 1.348 . S
C670 H702 0.929 . S
C671 C672 1.358 . S
C671 C673 1.356 . S
C671 H703 0.930 . S
C672 N669 1.279 . S
C672 C671 1.358 . S
C672 H675 0.930 . S
C673 C670 1.348 . S
C673 C671 1.356 . S
H674 C668 0.930 . S
H675 C672 0.930 . S
O676 Li616 1.973 . S
O676 Li617 1.973 . S
O676 Li618 1.982 . S
O676 C620 1.304 1_455 S
O677 Li616 1.970 . S
O677 Li617 1.956 . S
O677 Li619 1.961 . S
O677 C626 1.325 . S
O678 Li616 1.961 . S
O678 Li618 1.956 . S
O678 Li619 1.970 . S
O678 C648 1.325 . S
O679 Li617 1.961 . S
O679 Li618 1.970 . S
O679 Li619 1.956 . S
O679 C654 1.325 . S
H680 C622 0.929 . S
H681 C623 0.970 . S
H682 C624 0.930 . S
H683 C625 0.930 . S
H684 C627 0.930 . S
H685 C629 0.929 . S
H686 C630 0.930 . S
H687 C631 0.930 . S
H688 C634 0.930 . S
H689 C637 0.929 . S
H690 C642 0.929 . S
H691 C643 0.930 . S
H692 C650 0.929 . S
H693 C651 0.930 . S
H694 C652 0.930 . S
H695 C653 0.930 . S
H696 C655 0.929 . S
H697 C656 0.930 . S
H698 C657 0.930 . S
H699 C658 0.930 . S
H700 C662 0.953 . S
H701 C664 0.930 . S
H702 C670 0.929 . S
H703 C671 0.930 . S
Li704 N721 1.990 . S
Li704 O764 1.956 . S
Li704 O765 1.970 . S
Li704 O766 1.961 . S
Li705 N729 1.990 1_545 S
Li705 O764 1.970 . S
Li705 O765 1.956 . S
Li705 O767 1.961 . S
Li706 N751 1.990 . S
Li706 O764 1.961 . S
Li706 O766 1.956 . S
Li706 O767 1.970 . S
Li707 N757 1.990 . S
Li707 O765 1.961 . S
Li707 O766 1.970 . S
Li707 O767 1.956 . S
C708 C710 1.348 1_545 S
C708 C711 1.356 . S
C708 O764 1.325 . S
N709 C712 1.314 . S
N709 C713 1.279 . S
C710 C708 1.348 1_565 S
C710 C712 1.353 . S
C710 H768 0.929 . S
C711 C708 1.356 . S
C711 C713 1.358 1_545 S
C711 H769 0.930 . S
C712 N709 1.314 . S
C712 C710 1.353 . S
C712 H770 0.930 . S
C713 N709 1.279 . S
C713 C711 1.358 1_565 S
C713 H771 0.931 . S
C714 C717 1.348 . S
C714 C718 1.356 . S
C714 O765 1.325 . S
C715 N716 1.279 . S
C715 C718 1.358 . S
C715 H772 0.930 . S
N716 C715 1.279 . S
N716 C719 1.314 . S
C717 C714 1.348 . S
C717 C719 1.353 . S
C717 H773 0.929 . S
C718 C714 1.356 . S
C718 C715 1.358 . S
C718 H774 0.930 . S
C719 N716 1.314 . S
C719 C717 1.353 . S
C719 H775 0.930 . S
C720 N721 1.314 . S
C720 C725 1.353 . S
C720 H726 0.930 . S
N721 Li704 1.990 . S
N721 C720 1.314 . S
N721 C723 1.279 . S
C722 C723 1.358 . S
C722 C724 1.356 . S
C722 H776 0.930 . S
C723 N721 1.279 . S
C723 C722 1.358 . S
C723 H727 0.930 . S
C724 C722 1.356 . S
C724 C725 1.348 . S
C725 C720 1.353 . S
C725 C724 1.348 . S
C725 H777 0.929 . S
H726 C720 0.930 . S
H727 C723 0.930 . S
C728 N729 1.314 . S
C728 C730 1.353 . S
C728 H734 0.930 . S
N729 Li705 1.990 1_565 S
N729 C728 1.314 . S
N729 C732 1.279 . S
C730 C728 1.353 . S
C730 C733 1.348 . S
C730 H778 0.929 . S
C731 C732 1.358 . S
C731 C733 1.356 . S
C731 H779 0.930 . S
C732 N729 1.279 . S
C732 C731 1.358 . S
C732 H735 0.930 . S
C733 C730 1.348 . S
C733 C731 1.356 . S
H734 C728 0.930 . S
H735 C732 0.930 . S
C736 C738 1.348 . S
C736 C739 1.356 . S
C736 O766 1.325 . S
N737 C740 1.314 . S
N737 C741 1.279 . S
C738 C736 1.348 . S
C738 C740 1.353 . S
C738 H780 0.929 . S
C739 C736 1.356 . S
C739 C741 1.358 . S
C739 H781 0.930 . S
C740 N737 1.314 . S
C740 C738 1.353 . S
C740 H782 0.930 . S
C741 N737 1.279 . S
C741 C739 1.358 . S
C741 H783 0.930 . S
C742 C743 1.348 . S
C742 C744 1.356 . S
C742 O767 1.325 . S
C743 C742 1.348 . S
C743 C745 1.353 . S
C743 H784 0.929 . S
C744 C742 1.356 . S
C744 C746 1.358 . S
C744 H785 0.930 . S
C745 C743 1.353 . S
C745 N747 1.314 . S
C745 H786 0.930 . S
C746 C744 1.358 . S
C746 N747 1.279 . S
C746 H787 0.930 . S
N747 C745 1.314 . S
N747 C746 1.279 . S
C748 C750 1.353 . S
C748 N751 1.314 . S
C748 H754 0.930 . S
C749 N751 1.279 . S
C749 C752 1.358 . S
C749 H755 0.930 . S
C750 C748 1.353 . S
C750 C753 1.348 . S
C750 H788 0.929 . S
N751 Li706 1.990 . S
N751 C748 1.314 . S
N751 C749 1.279 . S
C752 C749 1.358 . S
C752 C753 1.356 . S
C752 H789 0.930 . S
C753 C750 1.348 . S
C753 C752 1.356 . S
H754 C748 0.930 . S
H755 C749 0.930 . S
C756 N757 1.314 . S
C756 C758 1.353 . S
C756 H762 0.930 . S
N757 Li707 1.990 . S
N757 C756 1.314 . S
N757 C760 1.279 . S
C758 C756 1.353 . S
C758 C761 1.348 . S
C758 H790 0.929 . S
C759 C760 1.358 . S
C759 C761 1.356 . S
C759 H791 0.930 . S
C760 N757 1.279 . S
C760 C759 1.358 . S
C760 H763 0.930 . S
C761 C758 1.348 . S
C761 C759 1.356 . S
H762 C756 0.930 . S
H763 C760 0.930 . S
O764 Li704 1.956 . S
O764 Li705 1.970 . S
O764 Li706 1.961 . S
O764 C708 1.325 . S
O765 Li704 1.970 . S
O765 Li705 1.956 . S
O765 Li707 1.961 . S
O765 C714 1.325 . S
O766 Li704 1.961 . S
O766 Li706 1.956 . S
O766 Li707 1.970 . S
O766 C736 1.325 . S
O767 Li705 1.961 . S
O767 Li706 1.970 . S
O767 Li707 1.956 . S
O767 C742 1.325 . S
H768 C710 0.929 . S
H769 C711 0.930 . S
H770 C712 0.930 . S
H771 C713 0.931 . S
H772 C715 0.930 . S
H773 C717 0.929 . S
H774 C718 0.930 . S
H775 C719 0.930 . S
H776 C722 0.930 . S
H777 C725 0.929 . S
H778 C730 0.929 . S
H779 C731 0.930 . S
H780 C738 0.929 . S
H781 C739 0.930 . S
H782 C740 0.930 . S
H783 C741 0.930 . S
H784 C743 0.929 . S
H785 C744 0.930 . S
H786 C745 0.930 . S
H787 C746 0.930 . S
H788 C750 0.929 . S
H789 C752 0.930 . S
H790 C758 0.929 . S
H791 C759 0.930 . S
Li792 N809 1.990 . S
Li792 O852 1.956 . S
Li792 O853 1.970 . S
Li792 O854 1.961 . S
Li793 N817 1.990 . S
Li793 O852 1.970 . S
Li793 O853 1.956 . S
Li793 O855 1.961 . S
Li794 N839 1.990 . S
Li794 O852 1.961 . S
Li794 O854 1.956 . S
Li794 O855 1.970 . S
Li795 N845 1.990 . S
Li795 O853 1.961 . S
Li795 O854 1.970 . S
Li795 O855 1.956 . S
C796 C798 1.348 . S
C796 C799 1.356 . S
C796 O852 1.325 . S
N797 C800 1.314 . S
N797 C801 1.279 . S
C798 C796 1.348 . S
C798 C800 1.353 . S
C798 H856 0.929 . S
C799 C796 1.356 . S
C799 C801 1.358 . S
C799 H857 0.930 . S
C800 N797 1.314 . S
C800 C798 1.353 . S
C800 H858 0.930 . S
C801 N797 1.279 . S
C801 C799 1.358 . S
C801 H859 0.930 . S
C802 C805 1.348 . S
C802 C806 1.356 . S
C802 O853 1.325 . S
C803 N804 1.279 . S
C803 C806 1.358 . S
C803 H860 0.930 . S
N804 C803 1.279 . S
N804 C807 1.314 . S
C805 C802 1.348 . S
C805 C807 1.353 . S
C805 H861 0.929 . S
C806 C802 1.356 . S
C806 C803 1.358 . S
C806 H862 0.930 . S
C807 N804 1.314 . S
C807 C805 1.353 . S
C807 H863 0.930 . S
C808 N809 1.314 . S
C808 C813 1.353 . S
C808 H814 0.930 . S
N809 Li792 1.990 . S
N809 C808 1.314 . S
N809 C811 1.279 . S
C810 C811 1.358 . S
C810 C812 1.356 . S
C810 H864 0.930 . S
C811 N809 1.279 . S
C811 C810 1.358 . S
C811 H815 0.930 . S
C812 C810 1.356 . S
C812 C813 1.348 . S
C813 C808 1.353 . S
C813 C812 1.348 . S
C813 H865 0.929 . S
H814 C808 0.930 . S
H815 C811 0.930 . S
C816 N817 1.314 . S
C816 C818 1.353 . S
C816 H822 0.930 . S
N817 Li793 1.990 . S
N817 C816 1.314 . S
N817 C820 1.279 . S
C818 C816 1.353 . S
C818 C821 1.348 . S
C818 H866 0.929 . S
C819 C820 1.358 . S
C819 C821 1.356 . S
C819 H867 0.930 . S
C820 N817 1.279 . S
C820 C819 1.358 . S
C820 H823 0.930 . S
C821 C818 1.348 . S
C821 C819 1.356 . S
H822 C816 0.930 . S
H823 C820 0.930 . S
C824 C826 1.348 . S
C824 C827 1.356 . S
C824 O854 1.325 . S
N825 C828 1.314 . S
N825 C829 1.279 . S
C826 C824 1.348 . S
C826 C828 1.353 . S
C826 H868 0.929 . S
C827 C824 1.356 . S
C827 C829 1.358 . S
C827 H869 0.930 . S
C828 N825 1.314 . S
C828 C826 1.353 . S
C828 H870 0.930 . S
C829 N825 1.279 . S
C829 C827 1.358 . S
C829 H871 0.930 . S
C830 C831 1.348 . S
C830 C832 1.356 . S
C830 O855 1.325 . S
C831 C830 1.348 . S
C831 C833 1.353 . S
C831 H872 0.929 . S
C832 C830 1.356 . S
C832 C834 1.358 . S
C832 H873 0.930 . S
C833 C831 1.353 . S
C833 N835 1.314 . S
C833 H874 0.930 . S
C834 C832 1.358 . S
C834 N835 1.279 . S
C834 H875 0.930 . S
N835 C833 1.314 . S
N835 C834 1.279 . S
C836 C838 1.353 . S
C836 N839 1.314 . S
C836 H842 0.930 . S
C837 N839 1.279 . S
C837 C840 1.358 . S
C837 H843 0.930 . S
C838 C836 1.353 . S
C838 C841 1.348 . S
C838 H876 0.929 . S
N839 Li794 1.990 . S
N839 C836 1.314 . S
N839 C837 1.279 . S
C840 C837 1.358 . S
C840 C841 1.356 . S
C840 H877 0.930 . S
C841 C838 1.348 . S
C841 C840 1.356 . S
H842 C836 0.930 . S
H843 C837 0.930 . S
C844 N845 1.314 . S
C844 C846 1.353 . S
C844 H850 0.930 . S
N845 Li795 1.990 . S
N845 C844 1.314 . S
N845 C848 1.279 . S
C846 C844 1.353 . S
C846 C849 1.348 . S
C846 H878 0.929 . S
C847 C848 1.358 . S
C847 C849 1.356 . S
C847 H879 0.930 . S
C848 N845 1.279 . S
C848 C847 1.358 . S
C848 H851 0.930 . S
C849 C846 1.348 . S
C849 C847 1.356 . S
H850 C844 0.930 . S
H851 C848 0.930 . S
O852 Li792 1.956 . S
O852 Li793 1.970 . S
O852 Li794 1.961 . S
O852 C796 1.325 . S
O853 Li792 1.970 . S
O853 Li793 1.956 . S
O853 Li795 1.961 . S
O853 C802 1.325 . S
O854 Li792 1.961 . S
O854 Li794 1.956 . S
O854 Li795 1.970 . S
O854 C824 1.325 . S
O855 Li793 1.961 . S
O855 Li794 1.970 . S
O855 Li795 1.956 . S
O855 C830 1.325 . S
H856 C798 0.929 . S
H857 C799 0.930 . S
H858 C800 0.930 . S
H859 C801 0.930 . S
H860 C803 0.930 . S
H861 C805 0.929 . S
H862 C806 0.930 . S
H863 C807 0.930 . S
H864 C810 0.930 . S
H865 C813 0.929 . S
H866 C818 0.929 . S
H867 C819 0.930 . S
H868 C826 0.929 . S
H869 C827 0.930 . S
H870 C828 0.930 . S
H871 C829 0.930 . S
H872 C831 0.929 . S
H873 C832 0.930 . S
H874 C833 0.930 . S
H875 C834 0.930 . S
H876 C838 0.929 . S
H877 C840 0.930 . S
H878 C846 0.929 . S
H879 C847 0.930 . S
Li880 N897 1.990 . S
Li880 O940 1.956 . S
Li880 O941 1.970 . S
Li880 O942 1.983 . S
Li881 N905 1.990 . S
Li881 O940 1.967 . S
Li881 O941 1.975 . S
Li881 O943 1.944 1_545 S
Li882 N927 1.990 . S
Li882 O940 1.961 1_565 S
Li882 O942 1.927 1_565 S
Li882 O943 1.970 . S
Li883 N933 1.990 . S
Li883 O941 1.961 1_565 S
Li883 O942 1.972 1_565 S
Li883 O943 1.956 . S
C884 C886 1.348 . S
C884 C887 1.356 . S
C884 O940 1.325 . S
N885 C888 1.314 . S
N885 C889 1.279 . S
C886 C884 1.348 . S
C886 C888 1.353 . S
C886 H944 0.929 . S
C887 C884 1.356 . S
C887 C889 1.358 . S
C887 H945 0.930 . S
C888 N885 1.314 . S
C888 C886 1.353 . S
C888 H946 0.930 . S
C889 N885 1.279 . S
C889 C887 1.358 . S
C889 H947 0.930 . S
C890 C893 1.348 . S
C890 C894 1.356 . S
C890 O941 1.325 . S
C891 N892 1.279 . S
C891 C894 1.358 . S
C891 H948 0.930 . S
N892 C891 1.279 . S
N892 C895 1.314 . S
C893 C890 1.348 . S
C893 C895 1.353 . S
C893 H949 0.929 . S
C894 C890 1.356 . S
C894 C891 1.358 . S
C894 H950 0.930 . S
C895 N892 1.314 . S
C895 C893 1.353 . S
C895 H951 0.930 . S
C896 N897 1.314 . S
C896 C901 1.353 . S
C896 H902 0.930 . S
N897 Li880 1.990 . S
N897 C896 1.314 . S
N897 C899 1.279 . S
C898 C899 1.358 . S
C898 C900 1.356 . S
C898 H952 0.930 . S
C899 N897 1.279 . S
C899 C898 1.358 . S
C899 H903 0.930 . S
C900 C898 1.356 . S
C900 C901 1.348 . S
C901 C896 1.353 . S
C901 C900 1.348 . S
C901 H953 0.929 . S
H902 C896 0.930 . S
H903 C899 0.930 . S
C904 N905 1.296 1_565 S
C904 C906 1.353 . S
C904 H910 0.930 . S
N905 Li881 1.990 . S
N905 C904 1.296 1_545 S
N905 C908 1.296 . S
C906 C904 1.353 . S
C906 C909 1.350 . S
C906 H954 0.929 . S
C907 C908 1.358 . S
C907 C909 1.353 1_545 S
C907 H955 0.930 . S
C908 N905 1.296 . S
C908 C907 1.358 . S
C908 H911 0.930 . S
C909 C906 1.350 . S
C909 C907 1.353 1_565 S
H910 C904 0.930 . S
H911 C908 0.930 . S
C912 C914 1.345 1_545 S
C912 C915 1.358 . S
C912 O942 1.325 . S
N913 C916 1.320 . S
N913 C917 1.275 1_565 S
C914 C912 1.345 1_565 S
C914 C916 1.353 . S
C914 H956 0.929 . S
C915 C912 1.358 . S
C915 C917 1.358 . S
C915 H957 0.930 . S
C916 N913 1.320 . S
C916 C914 1.353 . S
C916 H958 0.930 . S
C917 N913 1.275 1_545 S
C917 C915 1.358 . S
C917 H959 0.930 . S
C918 C919 1.348 . S
C918 C920 1.356 . S
C918 O943 1.325 . S
C919 C918 1.348 . S
C919 C921 1.353 . S
C919 H960 0.929 . S
C920 C918 1.356 . S
C920 C922 1.358 . S
C920 H961 0.930 . S
C921 C919 1.353 . S
C921 N923 1.314 . S
C921 H962 0.930 . S
C922 C920 1.358 . S
C922 N923 1.279 . S
C922 H963 0.930 . S
N923 C921 1.314 . S
N923 C922 1.279 . S
C924 C926 1.353 . S
C924 N927 1.314 . S
C924 H930 0.930 . S
C925 N927 1.279 . S
C925 C928 1.358 . S
C925 H931 0.930 . S
C926 C924 1.353 . S
C926 C929 1.348 . S
C926 H964 0.929 . S
N927 Li882 1.990 . S
N927 C924 1.314 . S
N927 C925 1.279 . S
C928 C925 1.358 . S
C928 C929 1.356 . S
C928 H965 0.930 . S
C929 C926 1.348 . S
C929 C928 1.356 . S
H930 C924 0.930 . S
H931 C925 0.930 . S
C932 N933 1.314 1_545 S
C932 C934 1.353 . S
C932 H938 0.930 . S
N933 Li883 1.990 . S
N933 C932 1.314 1_565 S
N933 C936 1.279 . S
C934 C932 1.353 . S
C934 C937 1.348 1_545 S
C934 H966 0.929 . S
C935 C936 1.358 . S
C935 C937 1.356 . S
C935 H967 0.930 . S
C936 N933 1.279 . S
C936 C935 1.358 . S
C936 H939 0.930 . S
C937 C934 1.348 1_565 S
C937 C935 1.356 . S
H938 C932 0.930 . S
H939 C936 0.930 . S
O940 Li880 1.956 . S
O940 Li881 1.967 . S
O940 Li882 1.961 1_545 S
O940 C884 1.325 . S
O941 Li880 1.970 . S
O941 Li881 1.975 . S
O941 Li883 1.961 1_545 S
O941 C890 1.325 . S
O942 Li880 1.983 . S
O942 Li882 1.927 1_545 S
O942 Li883 1.972 1_545 S
O942 C912 1.325 . S
O943 Li881 1.944 1_565 S
O943 Li882 1.970 . S
O943 Li883 1.956 . S
O943 C918 1.325 . S
H944 C886 0.929 . S
H945 C887 0.930 . S
H946 C888 0.930 . S
H947 C889 0.930 . S
H948 C891 0.930 . S
H949 C893 0.929 . S
H950 C894 0.930 . S
H951 C895 0.930 . S
H952 C898 0.930 . S
H953 C901 0.929 . S
H954 C906 0.929 . S
H955 C907 0.930 . S
H956 C914 0.929 . S
H957 C915 0.930 . S
H958 C916 0.930 . S
H959 C917 0.930 . S
H960 C919 0.929 . S
H961 C920 0.930 . S
H962 C921 0.930 . S
H963 C922 0.930 . S
H964 C926 0.929 . S
H965 C928 0.930 . S
H966 C934 0.929 . S
H967 C935 0.930 . S
Li968 N985 1.990 . S
Li968 O1028 1.956 . S
Li968 O1029 1.970 . S
Li968 O1030 1.961 . S
Li969 N993 1.990 . S
Li969 O1028 1.970 . S
Li969 O1029 1.956 . S
Li969 O1031 1.961 . S
Li970 N1015 1.990 . S
Li970 O1028 1.961 . S
Li970 O1030 1.956 . S
Li970 O1031 1.970 . S
Li971 N1021 1.990 1_554 S
Li971 O1029 1.961 . S
Li971 O1030 1.970 . S
Li971 O1031 1.956 . S
C972 C974 1.348 . S
C972 C975 1.356 . S
C972 O1028 1.325 . S
N973 C976 1.314 . S
N973 C977 1.279 . S
C974 C972 1.348 . S
C974 C976 1.353 . S
C974 H1032 0.929 . S
C975 C972 1.356 . S
C975 C977 1.358 . S
C975 H1033 0.930 . S
C976 N973 1.314 . S
C976 C974 1.353 . S
C976 H1034 0.930 . S
C977 N973 1.279 . S
C977 C975 1.358 . S
C977 H1035 0.930 . S
C978 C981 1.348 . S
C978 C982 1.356 . S
C978 O1029 1.325 . S
C979 N980 1.279 . S
C979 C982 1.358 . S
C979 H1036 0.930 . S
N980 C979 1.279 . S
N980 C983 1.314 . S
C981 C978 1.348 . S
C981 C983 1.353 . S
C981 H1037 0.929 . S
C982 C978 1.356 . S
C982 C979 1.358 . S
C982 H1038 0.930 . S
C983 N980 1.314 . S
C983 C981 1.353 . S
C983 H1039 0.930 . S
C984 N985 1.314 . S
C984 C989 1.353 . S
C984 H990 0.930 1_554 S
N985 Li968 1.990 . S
N985 C984 1.314 . S
N985 C987 1.279 . S
C986 C987 1.358 . S
C986 C988 1.356 . S
C986 H1040 0.930 . S
C987 N985 1.279 . S
C987 C986 1.358 . S
C987 H991 0.930 . S
C988 C986 1.356 . S
C988 C989 1.348 . S
C989 C984 1.353 . S
C989 C988 1.348 . S
C989 H1041 0.929 1_554 S
H990 C984 0.930 1_556 S
H991 C987 0.930 . S
C992 N993 1.314 . S
C992 C994 1.353 . S
C992 H998 0.930 . S
N993 Li969 1.990 . S
N993 C992 1.314 . S
N993 C996 1.279 . S
C994 C992 1.353 . S
C994 C997 1.348 . S
C994 H1042 0.929 . S
C995 C996 1.358 . S
C995 C997 1.356 . S
C995 H1043 0.930 . S
C996 N993 1.279 . S
C996 C995 1.358 . S
C996 H999 0.930 . S
C997 C994 1.348 . S
C997 C995 1.356 . S
H998 C992 0.930 . S
H999 C996 0.930 . S
C1000 C1002 1.348 . S
C1000 C1003 1.356 . S
C1000 O1030 1.325 1_556 S
N1001 C1004 1.314 . S
N1001 C1005 1.279 . S
C1002 C1000 1.348 . S
C1002 C1004 1.353 . S
C1002 H1044 0.929 . S
C1003 C1000 1.356 . S
C1003 C1005 1.358 . S
C1003 H1045 0.930 1_556 S
C1004 N1001 1.314 . S
C1004 C1002 1.353 . S
C1004 H1046 0.930 . S
C1005 N1001 1.279 . S
C1005 C1003 1.358 . S
C1005 H1047 0.930 . S
C1006 C1007 1.348 . S
C1006 C1008 1.356 . S
C1006 O1031 1.325 . S
C1007 C1006 1.348 . S
C1007 C1009 1.353 . S
C1007 H1048 0.929 . S
C1008 C1006 1.356 . S
C1008 C1010 1.358 . S
C1008 H1049 0.930 . S
C1009 C1007 1.353 . S
C1009 N1011 1.314 . S
C1009 H1050 0.930 . S
C1010 C1008 1.358 . S
C1010 N1011 1.279 . S
C1010 H1051 0.930 . S
N1011 C1009 1.314 . S
N1011 C1010 1.279 . S
C1012 C1014 1.353 . S
C1012 N1015 1.314 . S
C1012 H1018 0.930 . S
C1013 N1015 1.279 . S
C1013 C1016 1.358 . S
C1013 H1019 0.930 . S
C1014 C1012 1.353 . S
C1014 C1017 1.348 . S
C1014 H1052 0.929 . S
N1015 Li970 1.990 . S
N1015 C1012 1.314 . S
N1015 C1013 1.279 . S
C1016 C1013 1.358 . S
C1016 C1017 1.356 . S
C1016 H1053 0.930 . S
C1017 C1014 1.348 . S
C1017 C1016 1.356 . S
H1018 C1012 0.930 . S
H1019 C1013 0.930 . S
C1020 N1021 1.314 . S
C1020 C1022 1.353 . S
C1020 H1026 0.930 . S
N1021 Li971 1.990 1_556 S
N1021 C1020 1.314 . S
N1021 C1024 1.279 . S
C1022 C1020 1.353 . S
C1022 C1025 1.348 . S
C1022 H1054 0.929 . S
C1023 C1024 1.358 . S
C1023 C1025 1.356 . S
C1023 H1055 0.930 . S
C1024 N1021 1.279 . S
C1024 C1023 1.358 . S
C1024 H1027 0.930 . S
C1025 C1022 1.348 . S
C1025 C1023 1.356 . S
H1026 C1020 0.930 . S
H1027 C1024 0.930 . S
O1028 Li968 1.956 . S
O1028 Li969 1.970 . S
O1028 Li970 1.961 . S
O1028 C972 1.325 . S
O1029 Li968 1.970 . S
O1029 Li969 1.956 . S
O1029 Li971 1.961 . S
O1029 C978 1.325 . S
O1030 Li968 1.961 . S
O1030 Li970 1.956 . S
O1030 Li971 1.970 . S
O1030 C1000 1.325 1_554 S
O1031 Li969 1.961 . S
O1031 Li970 1.970 . S
O1031 Li971 1.956 . S
O1031 C1006 1.325 . S
H1032 C974 0.929 . S
H1033 C975 0.930 . S
H1034 C976 0.930 . S
H1035 C977 0.930 . S
H1036 C979 0.930 . S
H1037 C981 0.929 . S
H1038 C982 0.930 . S
H1039 C983 0.930 . S
H1040 C986 0.930 . S
H1041 C989 0.929 1_556 S
H1042 C994 0.929 . S
H1043 C995 0.930 . S
H1044 C1002 0.929 . S
H1045 C1003 0.930 1_554 S
H1046 C1004 0.930 . S
H1047 C1005 0.930 . S
H1048 C1007 0.929 . S
H1049 C1008 0.930 . S
H1050 C1009 0.930 . S
H1051 C1010 0.930 . S
H1052 C1014 0.929 . S
H1053 C1016 0.930 . S
H1054 C1022 0.929 . S
H1055 C1023 0.930 . S
Li1056 N1073 1.990 . S
Li1056 O1116 1.956 . S
Li1056 O1117 1.970 . S
Li1056 O1118 1.961 . S
Li1057 N1081 1.990 . S
Li1057 O1116 1.970 . S
Li1057 O1117 1.956 . S
Li1057 O1119 1.961 . S
Li1058 N1103 1.990 . S
Li1058 O1116 1.961 . S
Li1058 O1118 1.956 . S
Li1058 O1119 1.970 . S
Li1059 N1109 1.990 1_554 S
Li1059 O1117 1.961 . S
Li1059 O1118 1.970 . S
Li1059 O1119 1.956 . S
C1060 C1062 1.348 . S
C1060 C1063 1.356 . S
C1060 O1116 1.325 . S
N1061 C1064 1.314 . S
N1061 C1065 1.279 . S
C1062 C1060 1.348 . S
C1062 C1064 1.353 . S
C1062 H1120 0.929 . S
C1063 C1060 1.356 . S
C1063 C1065 1.358 . S
C1063 H1121 0.930 . S
C1064 N1061 1.314 . S
C1064 C1062 1.353 . S
C1064 H1122 0.930 . S
C1065 N1061 1.279 . S
C1065 C1063 1.358 . S
C1065 H1123 0.930 . S
C1066 C1069 1.348 . S
C1066 C1070 1.356 . S
C1066 O1117 1.325 . S
C1067 N1068 1.279 . S
C1067 C1070 1.358 . S
C1067 H1124 0.930 . S
N1068 C1067 1.279 . S
N1068 C1071 1.314 . S
C1069 C1066 1.348 . S
C1069 C1071 1.353 . S
C1069 H1125 0.929 . S
C1070 C1066 1.356 . S
C1070 C1067 1.358 . S
C1070 H1126 0.930 . S
C1071 N1068 1.314 . S
C1071 C1069 1.353 . S
C1071 H1127 0.930 . S
C1072 N1073 1.314 . S
C1072 C1077 1.353 . S
C1072 H1078 0.930 . S
N1073 Li1056 1.990 . S
N1073 C1072 1.314 . S
N1073 C1075 1.279 . S
C1074 C1075 1.358 . S
C1074 C1076 1.356 . S
C1074 H1128 0.930 . S
C1075 N1073 1.279 . S
C1075 C1074 1.358 . S
C1075 H1079 0.930 . S
C1076 C1074 1.356 . S
C1076 C1077 1.348 . S
C1077 C1072 1.353 . S
C1077 C1076 1.348 . S
C1077 H1129 0.929 . S
H1078 C1072 0.930 . S
H1079 C1075 0.930 . S
C1080 N1081 1.314 . S
C1080 C1082 1.353 . S
C1080 H1086 0.930 . S
N1081 Li1057 1.990 . S
N1081 C1080 1.314 . S
N1081 C1084 1.279 . S
C1082 C1080 1.353 . S
C1082 C1085 1.348 . S
C1082 H1130 0.929 . S
C1083 C1084 1.358 . S
C1083 C1085 1.356 . S
C1083 H1131 0.930 . S
C1084 N1081 1.279 . S
C1084 C1083 1.358 . S
C1084 H1087 0.930 . S
C1085 C1082 1.348 . S
C1085 C1083 1.356 . S
H1086 C1080 0.930 . S
H1087 C1084 0.930 . S
C1088 C1090 1.348 1_554 S
C1088 C1091 1.356 . S
C1088 O1118 1.325 . S
N1089 C1092 1.314 . S
N1089 C1093 1.334 . S
C1090 C1088 1.348 1_556 S
C1090 C1092 1.353 . S
C1090 H1132 0.929 . S
C1091 C1088 1.356 . S
C1091 C1093 1.307 1_554 S
C1091 H1133 0.930 . S
C1092 N1089 1.314 . S
C1092 C1090 1.353 . S
C1092 H1134 0.930 . S
C1093 N1089 1.334 . S
C1093 C1091 1.307 1_556 S
C1093 H1135 0.929 1_556 S
C1094 C1095 1.348 . S
C1094 C1096 1.356 . S
C1094 O1119 1.325 . S
C1095 C1094 1.348 . S
C1095 C1097 1.353 . S
C1095 H1136 0.929 . S
C1096 C1094 1.356 . S
C1096 C1098 1.358 . S
C1096 H1137 0.930 . S
C1097 C1095 1.353 . S
C1097 N1099 1.314 . S
C1097 H1138 0.930 . S
C1098 C1096 1.358 . S
C1098 N1099 1.279 . S
C1098 H1139 0.930 . S
N1099 C1097 1.314 . S
N1099 C1098 1.279 . S
C1100 C1102 1.353 . S
C1100 N1103 1.314 . S
C1100 H1106 0.930 . S
C1101 N1103 1.279 . S
C1101 C1104 1.358 . S
C1101 H1107 0.930 . S
C1102 C1100 1.353 . S
C1102 C1105 1.348 . S
C1102 H1140 0.929 . S
N1103 Li1058 1.990 . S
N1103 C1100 1.314 . S
N1103 C1101 1.279 . S
C1104 C1101 1.358 . S
C1104 C1105 1.356 . S
C1104 H1141 0.930 . S
C1105 C1102 1.348 . S
C1105 C1104 1.356 . S
H1106 C1100 0.930 . S
H1107 C1101 0.930 . S
C1108 N1109 1.314 . S
C1108 C1110 1.353 . S
C1108 H1114 0.930 . S
N1109 Li1059 1.990 1_556 S
N1109 C1108 1.314 . S
N1109 C1112 1.279 . S
C1110 C1108 1.353 . S
C1110 C1113 1.348 . S
C1110 H1142 0.929 . S
C1111 C1112 1.358 . S
C1111 C1113 1.356 . S
C1111 H1143 0.930 . S
C1112 N1109 1.279 . S
C1112 C1111 1.358 . S
C1112 H1115 0.930 . S
C1113 C1110 1.348 . S
C1113 C1111 1.356 . S
H1114 C1108 0.930 . S
H1115 C1112 0.930 . S
O1116 Li1056 1.956 . S
O1116 Li1057 1.970 . S
O1116 Li1058 1.961 . S
O1116 C1060 1.325 . S
O1117 Li1056 1.970 . S
O1117 Li1057 1.956 . S
O1117 Li1059 1.961 . S
O1117 C1066 1.325 . S
O1118 Li1056 1.961 . S
O1118 Li1058 1.956 . S
O1118 Li1059 1.970 . S
O1118 C1088 1.325 . S
O1119 Li1057 1.961 . S
O1119 Li1058 1.970 . S
O1119 Li1059 1.956 . S
O1119 C1094 1.325 . S
H1120 C1062 0.929 . S
H1121 C1063 0.930 . S
H1122 C1064 0.930 . S
H1123 C1065 0.930 . S
H1124 C1067 0.930 . S
H1125 C1069 0.929 . S
H1126 C1070 0.930 . S
H1127 C1071 0.930 . S
H1128 C1074 0.930 . S
H1129 C1077 0.929 . S
H1130 C1082 0.929 . S
H1131 C1083 0.930 . S
H1132 C1090 0.929 . S
H1133 C1091 0.930 . S
H1134 C1092 0.930 . S
H1135 C1093 0.929 1_554 S
H1136 C1095 0.929 . S
H1137 C1096 0.930 . S
H1138 C1097 0.930 . S
H1139 C1098 0.930 . S
H1140 C1102 0.929 . S
H1141 C1104 0.930 . S
H1142 C1110 0.929 . S
H1143 C1111 0.930 . S
Li1144 N1161 1.990 . S
Li1144 O1204 1.956 . S
Li1144 O1205 1.970 . S
Li1144 O1206 1.961 . S
Li1145 N1169 1.990 . S
Li1145 O1204 1.970 . S
Li1145 O1205 1.956 . S
Li1145 O1207 1.905 1_554 S
Li1146 N1191 1.990 1_554 S
Li1146 O1204 1.961 . S
Li1146 O1206 1.956 . S
Li1146 O1207 1.971 1_554 S
Li1147 N1197 1.990 . S
Li1147 O1205 1.961 . S
Li1147 O1206 1.970 . S
Li1147 O1207 1.900 1_554 S
C1148 C1150 1.348 . S
C1148 C1151 1.356 . S
C1148 O1204 1.325 . S
N1149 C1152 1.314 . S
N1149 C1153 1.279 . S
C1150 C1148 1.348 . S
C1150 C1152 1.353 . S
C1150 H1208 0.929 . S
C1151 C1148 1.356 . S
C1151 C1153 1.358 . S
C1151 H1209 0.930 . S
C1152 N1149 1.314 . S
C1152 C1150 1.353 . S
C1152 H1210 0.930 . S
C1153 N1149 1.279 . S
C1153 C1151 1.358 . S
C1153 H1211 0.930 . S
C1154 C1157 1.348 . S
C1154 C1158 1.356 . S
C1154 O1205 1.325 . S
C1155 N1156 1.279 . S
C1155 C1158 1.358 . S
C1155 H1212 0.930 . S
N1156 C1155 1.279 . S
N1156 C1159 1.314 . S
C1157 C1154 1.348 . S
C1157 C1159 1.353 . S
C1157 H1213 0.929 . S
C1158 C1154 1.356 . S
C1158 C1155 1.358 . S
C1158 H1214 0.930 . S
C1159 N1156 1.314 . S
C1159 C1157 1.353 . S
C1159 H1215 0.930 . S
C1160 N1161 1.314 . S
C1160 C1165 1.353 . S
C1160 H1166 0.930 . S
N1161 Li1144 1.990 . S
N1161 C1160 1.314 . S
N1161 C1163 1.279 . S
C1162 C1163 1.358 . S
C1162 C1164 1.356 . S
C1162 H1216 0.930 . S
C1163 N1161 1.279 . S
C1163 C1162 1.358 . S
C1163 H1167 0.930 . S
C1164 C1162 1.356 . S
C1164 C1165 1.348 . S
C1165 C1160 1.353 . S
C1165 C1164 1.348 . S
C1165 H1217 0.929 . S
H1166 C1160 0.930 . S
H1167 C1163 0.930 . S
C1168 N1169 1.314 . S
C1168 C1170 1.353 . S
C1168 H1174 0.930 1_554 S
N1169 Li1145 1.990 . S
N1169 C1168 1.314 . S
N1169 C1172 1.279 . S
C1170 C1168 1.353 . S
C1170 C1173 1.348 . S
C1170 H1218 0.929 1_554 S
C1171 C1172 1.358 . S
C1171 C1173 1.356 . S
C1171 H1219 0.930 . S
C1172 N1169 1.279 . S
C1172 C1171 1.358 . S
C1172 H1175 0.930 . S
C1173 C1170 1.348 . S
C1173 C1171 1.356 . S
H1174 C1168 0.930 1_556 S
H1175 C1172 0.930 . S
C1176 C1178 1.348 . S
C1176 C1179 1.356 . S
C1176 O1206 1.325 . S
N1177 C1180 1.314 . S
N1177 C1181 1.279 . S
C1178 C1176 1.348 . S
C1178 C1180 1.353 . S
C1178 H1220 0.929 . S
C1179 C1176 1.356 . S
C1179 C1181 1.358 . S
C1179 H1221 0.930 . S
C1180 N1177 1.314 . S
C1180 C1178 1.353 . S
C1180 H1222 0.930 . S
C1181 N1177 1.279 . S
C1181 C1179 1.358 . S
C1181 H1223 0.930 . S
C1182 C1183 1.348 . S
C1182 C1184 1.356 . S
C1182 O1207 1.383 . S
C1183 C1182 1.348 . S
C1183 C1185 1.353 . S
C1183 H1224 0.929 . S
C1184 C1182 1.356 . S
C1184 C1186 1.358 . S
C1184 H1225 0.930 . S
C1185 C1183 1.353 . S
C1185 N1187 1.314 . S
C1185 H1226 0.930 . S
C1186 C1184 1.358 . S
C1186 N1187 1.279 . S
C1186 H1227 0.930 . S
N1187 C1185 1.314 . S
N1187 C1186 1.279 . S
C1188 C1190 1.353 . S
C1188 N1191 1.314 . S
C1188 H1194 0.930 . S
C1189 N1191 1.279 . S
C1189 C1192 1.358 . S
C1189 H1195 0.930 . S
C1190 C1188 1.353 . S
C1190 C1193 1.348 . S
C1190 H1228 0.929 . S
N1191 Li1146 1.990 1_556 S
N1191 C1188 1.314 . S
N1191 C1189 1.279 . S
C1192 C1189 1.358 . S
C1192 C1193 1.356 . S
C1192 H1229 0.930 . S
C1193 C1190 1.348 . S
C1193 C1192 1.356 . S
H1194 C1188 0.930 . S
H1195 C1189 0.930 . S
C1196 N1197 1.314 . S
C1196 C1198 1.353 . S
C1196 H1202 0.930 . S
N1197 Li1147 1.990 . S
N1197 C1196 1.314 . S
N1197 C1200 1.253 1_554 S
C1198 C1196 1.353 . S
C1198 C1201 1.348 . S
C1198 H1230 0.929 . S
C1199 C1200 1.358 . S
C1199 C1201 1.356 1_556 S
C1199 H1231 0.930 . S
C1200 N1197 1.253 1_556 S
C1200 C1199 1.358 . S
C1200 H1203 0.961 . S
C1201 C1198 1.348 . S
C1201 C1199 1.356 1_554 S
H1202 C1196 0.930 . S
H1203 C1200 0.961 . S
O1204 Li1144 1.956 . S
O1204 Li1145 1.970 . S
O1204 Li1146 1.961 . S
O1204 C1148 1.325 . S
O1205 Li1144 1.970 . S
O1205 Li1145 1.956 . S
O1205 Li1147 1.961 . S
O1205 C1154 1.325 . S
O1206 Li1144 1.961 . S
O1206 Li1146 1.956 . S
O1206 Li1147 1.970 . S
O1206 C1176 1.325 . S
O1207 Li1145 1.905 1_556 S
O1207 Li1146 1.971 1_556 S
O1207 Li1147 1.900 1_556 S
O1207 C1182 1.383 . S
H1208 C1150 0.929 . S
H1209 C1151 0.930 . S
H1210 C1152 0.930 . S
H1211 C1153 0.930 . S
H1212 C1155 0.930 . S
H1213 C1157 0.929 . S
H1214 C1158 0.930 . S
H1215 C1159 0.930 . S
H1216 C1162 0.930 . S
H1217 C1165 0.929 . S
H1218 C1170 0.929 1_556 S
H1219 C1171 0.930 . S
H1220 C1178 0.929 . S
H1221 C1179 0.930 . S
H1222 C1180 0.930 . S
H1223 C1181 0.930 . S
H1224 C1183 0.929 . S
H1225 C1184 0.930 . S
H1226 C1185 0.930 . S
H1227 C1186 0.930 . S
H1228 C1190 0.929 . S
H1229 C1192 0.930 . S
H1230 C1198 0.929 . S
H1231 C1199 0.930 . S
Li1232 N1249 1.990 . S
Li1232 O1292 1.956 . S
Li1232 O1293 1.970 . S
Li1232 O1294 1.961 . S
Li1233 N1257 1.990 . S
Li1233 O1292 1.970 . S
Li1233 O1293 1.956 . S
Li1233 O1295 1.961 . S
Li1234 N1279 1.990 . S
Li1234 O1292 1.961 . S
Li1234 O1294 1.956 . S
Li1234 O1295 1.970 . S
Li1235 N1285 1.990 . S
Li1235 O1293 1.961 . S
Li1235 O1294 1.970 . S
Li1235 O1295 1.956 . S
C1236 C1238 1.348 . S
C1236 C1239 1.356 . S
C1236 O1292 1.325 . S
N1237 C1240 1.314 . S
N1237 C1241 1.279 . S
C1238 C1236 1.348 . S
C1238 C1240 1.353 . S
C1238 H1296 0.929 . S
C1239 C1236 1.356 . S
C1239 C1241 1.358 . S
C1239 H1297 0.930 . S
C1240 N1237 1.314 . S
C1240 C1238 1.353 . S
C1240 H1298 0.930 . S
C1241 N1237 1.279 . S
C1241 C1239 1.358 . S
C1241 H1299 0.930 . S
C1242 C1245 1.348 . S
C1242 C1246 1.356 . S
C1242 O1293 1.325 . S
C1243 N1244 1.279 . S
C1243 C1246 1.358 . S
C1243 H1300 0.930 . S
N1244 C1243 1.279 . S
N1244 C1247 1.314 . S
C1245 C1242 1.348 . S
C1245 C1247 1.353 . S
C1245 H1301 0.929 . S
C1246 C1242 1.356 . S
C1246 C1243 1.358 . S
C1246 H1302 0.930 . S
C1247 N1244 1.314 . S
C1247 C1245 1.353 . S
C1247 H1303 0.930 . S
C1248 N1249 1.314 . S
C1248 C1253 1.353 . S
C1248 H1254 0.930 . S
N1249 Li1232 1.990 . S
N1249 C1248 1.314 . S
N1249 C1251 1.279 . S
C1250 C1251 1.358 . S
C1250 C1252 1.356 . S
C1250 H1304 0.930 . S
C1251 N1249 1.279 . S
C1251 C1250 1.358 . S
C1251 H1255 0.930 . S
C1252 C1250 1.356 . S
C1252 C1253 1.348 . S
C1253 C1248 1.353 . S
C1253 C1252 1.348 . S
C1253 H1305 0.929 . S
H1254 C1248 0.930 . S
H1255 C1251 0.930 . S
C1256 N1257 1.314 . S
C1256 C1258 1.353 . S
C1256 H1262 0.930 . S
N1257 Li1233 1.990 . S
N1257 C1256 1.314 . S
N1257 C1260 1.279 . S
C1258 C1256 1.353 . S
C1258 C1261 1.348 . S
C1258 H1306 0.929 . S
C1259 C1260 1.358 . S
C1259 C1261 1.356 . S
C1259 H1307 0.930 . S
C1260 N1257 1.279 . S
C1260 C1259 1.358 . S
C1260 H1263 0.930 . S
C1261 C1258 1.348 . S
C1261 C1259 1.356 . S
H1262 C1256 0.930 . S
H1263 C1260 0.930 . S
C1264 C1266 1.348 . S
C1264 C1267 1.356 . S
C1264 O1294 1.325 . S
N1265 C1268 1.314 . S
N1265 C1269 1.279 . S
C1266 C1264 1.348 . S
C1266 C1268 1.353 . S
C1266 H1308 0.929 . S
C1267 C1264 1.356 . S
C1267 C1269 1.358 . S
C1267 H1309 0.930 . S
C1268 N1265 1.314 . S
C1268 C1266 1.353 . S
C1268 H1310 0.930 . S
C1269 N1265 1.279 . S
C1269 C1267 1.358 . S
C1269 H1311 0.930 . S
C1270 C1271 1.348 . S
C1270 C1272 1.356 . S
C1270 O1295 1.325 . S
C1271 C1270 1.348 . S
C1271 C1273 1.353 . S
C1271 H1312 0.929 . S
C1272 C1270 1.356 . S
C1272 C1274 1.358 . S
C1272 H1313 0.930 . S
C1273 C1271 1.353 . S
C1273 N1275 1.314 . S
C1273 H1314 0.930 . S
C1274 C1272 1.358 . S
C1274 N1275 1.279 . S
C1274 H1315 0.930 . S
N1275 C1273 1.314 . S
N1275 C1274 1.279 . S
C1276 C1278 1.353 . S
C1276 N1279 1.314 . S
C1276 H1282 0.930 . S
C1277 N1279 1.279 . S
C1277 C1280 1.358 . S
C1277 H1283 0.930 . S
C1278 C1276 1.353 . S
C1278 C1281 1.348 . S
C1278 H1316 0.929 . S
N1279 Li1234 1.990 . S
N1279 C1276 1.314 . S
N1279 C1277 1.279 . S
C1280 C1277 1.358 . S
C1280 C1281 1.356 . S
C1280 H1317 0.930 . S
C1281 C1278 1.348 . S
C1281 C1280 1.356 . S
H1282 C1276 0.930 . S
H1283 C1277 0.930 . S
C1284 N1285 1.314 . S
C1284 C1286 1.353 . S
C1284 H1290 0.930 . S
N1285 Li1235 1.990 . S
N1285 C1284 1.314 . S
N1285 C1288 1.279 . S
C1286 C1284 1.353 . S
C1286 C1289 1.348 . S
C1286 H1318 0.929 . S
C1287 C1288 1.358 . S
C1287 C1289 1.356 . S
C1287 H1319 0.930 . S
C1288 N1285 1.279 . S
C1288 C1287 1.358 . S
C1288 H1291 0.930 . S
C1289 C1286 1.348 . S
C1289 C1287 1.356 . S
H1290 C1284 0.930 . S
H1291 C1288 0.930 . S
O1292 Li1232 1.956 . S
O1292 Li1233 1.970 . S
O1292 Li1234 1.961 . S
O1292 C1236 1.325 . S
O1293 Li1232 1.970 . S
O1293 Li1233 1.956 . S
O1293 Li1235 1.961 . S
O1293 C1242 1.325 . S
O1294 Li1232 1.961 . S
O1294 Li1234 1.956 . S
O1294 Li1235 1.970 . S
O1294 C1264 1.325 . S
O1295 Li1233 1.961 . S
O1295 Li1234 1.970 . S
O1295 Li1235 1.956 . S
O1295 C1270 1.325 . S
H1296 C1238 0.929 . S
H1297 C1239 0.930 . S
H1298 C1240 0.930 . S
H1299 C1241 0.930 . S
H1300 C1243 0.930 . S
H1301 C1245 0.929 . S
H1302 C1246 0.930 . S
H1303 C1247 0.930 . S
H1304 C1250 0.930 . S
H1305 C1253 0.929 . S
H1306 C1258 0.929 . S
H1307 C1259 0.930 . S
H1308 C1266 0.929 . S
H1309 C1267 0.930 . S
H1310 C1268 0.930 . S
H1311 C1269 0.930 . S
H1312 C1271 0.929 . S
H1313 C1272 0.930 . S
H1314 C1273 0.930 . S
H1315 C1274 0.930 . S
H1316 C1278 0.929 . S
H1317 C1280 0.930 . S
H1318 C1286 0.929 . S
H1319 C1287 0.930 . S
Li1320 N1337 1.990 . S
Li1320 O1380 1.956 . S
Li1320 O1381 1.970 . S
Li1320 O1382 1.961 . S
Li1321 N1345 1.990 . S
Li1321 O1380 1.970 . S
Li1321 O1381 1.956 . S
Li1321 O1383 1.961 . S
Li1322 N1367 1.990 . S
Li1322 O1380 1.961 . S
Li1322 O1382 1.956 . S
Li1322 O1383 1.970 . S
Li1323 N1373 1.990 . S
Li1323 O1381 1.961 . S
Li1323 O1382 1.970 . S
Li1323 O1383 1.956 . S
C1324 C1326 1.348 . S
C1324 C1327 1.356 . S
C1324 O1380 1.325 . S
N1325 C1328 1.314 . S
N1325 C1329 1.279 . S
C1326 C1324 1.348 . S
C1326 C1328 1.353 . S
C1326 H1384 0.929 . S
C1327 C1324 1.356 . S
C1327 C1329 1.358 . S
C1327 H1385 0.930 . S
C1328 N1325 1.314 . S
C1328 C1326 1.353 . S
C1328 H1386 0.930 . S
C1329 N1325 1.279 . S
C1329 C1327 1.358 . S
C1329 H1387 0.930 . S
C1330 C1333 1.348 . S
C1330 C1334 1.356 . S
C1330 O1381 1.325 . S
C1331 N1332 1.279 . S
C1331 C1334 1.358 . S
C1331 H1388 0.930 . S
N1332 C1331 1.279 . S
N1332 C1335 1.314 . S
C1333 C1330 1.348 . S
C1333 C1335 1.353 . S
C1333 H1389 0.929 . S
C1334 C1330 1.356 . S
C1334 C1331 1.358 . S
C1334 H1390 0.930 . S
C1335 N1332 1.314 . S
C1335 C1333 1.353 . S
C1335 H1391 0.930 . S
C1336 N1337 1.314 . S
C1336 C1341 1.353 . S
C1336 H1342 0.930 . S
N1337 Li1320 1.990 . S
N1337 C1336 1.314 . S
N1337 C1339 1.279 . S
C1338 C1339 1.358 . S
C1338 C1340 1.356 . S
C1338 H1392 0.930 . S
C1339 N1337 1.279 . S
C1339 C1338 1.358 . S
C1339 H1343 0.930 . S
C1340 C1338 1.356 . S
C1340 C1341 1.348 . S
C1341 C1336 1.353 . S
C1341 C1340 1.348 . S
C1341 H1393 0.929 . S
H1342 C1336 0.930 . S
H1343 C1339 0.930 . S
C1344 N1345 1.314 . S
C1344 C1346 1.353 . S
C1344 H1350 0.930 . S
N1345 Li1321 1.990 . S
N1345 C1344 1.314 . S
N1345 C1348 1.279 . S
C1346 C1344 1.353 . S
C1346 C1349 1.348 . S
C1346 H1394 0.929 . S
C1347 C1348 1.358 . S
C1347 C1349 1.356 . S
C1347 H1395 0.930 . S
C1348 N1345 1.279 . S
C1348 C1347 1.358 . S
C1348 H1351 0.930 . S
C1349 C1346 1.348 . S
C1349 C1347 1.356 . S
H1350 C1344 0.930 . S
H1351 C1348 0.930 . S
C1352 C1354 1.348 . S
C1352 C1355 1.356 . S
C1352 O1382 1.325 . S
N1353 C1356 1.314 . S
N1353 C1357 1.279 . S
C1354 C1352 1.348 . S
C1354 C1356 1.353 . S
C1354 H1396 0.929 . S
C1355 C1352 1.356 . S
C1355 C1357 1.358 . S
C1355 H1397 0.930 . S
C1356 N1353 1.314 . S
C1356 C1354 1.353 . S
C1356 H1398 0.930 . S
C1357 N1353 1.279 . S
C1357 C1355 1.358 . S
C1357 H1399 0.930 . S
C1358 C1359 1.348 . S
C1358 C1360 1.356 . S
C1358 O1383 1.325 . S
C1359 C1358 1.348 . S
C1359 C1361 1.353 . S
C1359 H1400 0.929 . S
C1360 C1358 1.356 . S
C1360 C1362 1.358 . S
C1360 H1401 0.930 . S
C1361 C1359 1.353 . S
C1361 N1363 1.314 . S
C1361 H1402 0.930 . S
C1362 C1360 1.358 . S
C1362 N1363 1.279 . S
C1362 H1403 0.930 . S
N1363 C1361 1.314 . S
N1363 C1362 1.279 . S
C1364 C1366 1.353 . S
C1364 N1367 1.314 . S
C1364 H1370 0.930 . S
C1365 N1367 1.279 . S
C1365 C1368 1.358 . S
C1365 H1371 0.930 . S
C1366 C1364 1.353 . S
C1366 C1369 1.348 . S
C1366 H1404 0.929 . S
N1367 Li1322 1.990 . S
N1367 C1364 1.314 . S
N1367 C1365 1.279 . S
C1368 C1365 1.358 . S
C1368 C1369 1.356 . S
C1368 H1405 0.930 . S
C1369 C1366 1.348 . S
C1369 C1368 1.356 . S
H1370 C1364 0.930 . S
H1371 C1365 0.930 . S
C1372 N1373 1.314 . S
C1372 C1374 1.353 . S
C1372 H1378 0.930 . S
N1373 Li1323 1.990 . S
N1373 C1372 1.314 . S
N1373 C1376 1.279 . S
C1374 C1372 1.353 . S
C1374 C1377 1.348 . S
C1374 H1406 0.929 . S
C1375 C1376 1.358 . S
C1375 C1377 1.356 . S
C1375 H1407 0.930 . S
C1376 N1373 1.279 . S
C1376 C1375 1.358 . S
C1376 H1379 0.930 . S
C1377 C1374 1.348 . S
C1377 C1375 1.356 . S
H1378 C1372 0.930 . S
H1379 C1376 0.930 . S
O1380 Li1320 1.956 . S
O1380 Li1321 1.970 . S
O1380 Li1322 1.961 . S
O1380 C1324 1.325 . S
O1381 Li1320 1.970 . S
O1381 Li1321 1.956 . S
O1381 Li1323 1.961 . S
O1381 C1330 1.325 . S
O1382 Li1320 1.961 . S
O1382 Li1322 1.956 . S
O1382 Li1323 1.970 . S
O1382 C1352 1.325 . S
O1383 Li1321 1.961 . S
O1383 Li1322 1.970 . S
O1383 Li1323 1.956 . S
O1383 C1358 1.325 . S
H1384 C1326 0.929 . S
H1385 C1327 0.930 . S
H1386 C1328 0.930 . S
H1387 C1329 0.930 . S
H1388 C1331 0.930 . S
H1389 C1333 0.929 . S
H1390 C1334 0.930 . S
H1391 C1335 0.930 . S
H1392 C1338 0.930 . S
H1393 C1341 0.929 . S
H1394 C1346 0.929 . S
H1395 C1347 0.930 . S
H1396 C1354 0.929 . S
H1397 C1355 0.930 . S
H1398 C1356 0.930 . S
H1399 C1357 0.930 . S
H1400 C1359 0.929 . S
H1401 C1360 0.930 . S
H1402 C1361 0.930 . S
H1403 C1362 0.930 . S
H1404 C1366 0.929 . S
H1405 C1368 0.930 . S
H1406 C1374 0.929 . S
H1407 C1375 0.930 . S
Li1408 N1425 1.990 . S
Li1408 O1468 1.956 . S
Li1408 O1469 1.970 . S
Li1408 O1470 1.961 . S
Li1409 N1433 1.990 . S
Li1409 O1468 1.970 . S
Li1409 O1469 1.956 . S
Li1409 O1471 1.961 . S
Li1410 N1455 1.990 . S
Li1410 O1468 1.961 . S
Li1410 O1470 1.956 . S
Li1410 O1471 1.970 . S
Li1411 N1461 1.990 . S
Li1411 O1469 1.961 . S
Li1411 O1470 1.970 . S
Li1411 O1471 1.956 . S
C1412 C1414 1.348 . S
C1412 C1415 1.356 . S
C1412 O1468 1.325 . S
N1413 C1416 1.314 . S
N1413 C1417 1.279 . S
C1414 C1412 1.348 . S
C1414 C1416 1.353 . S
C1414 H1472 0.929 . S
C1415 C1412 1.356 . S
C1415 C1417 1.358 . S
C1415 H1473 0.930 . S
C1416 N1413 1.314 . S
C1416 C1414 1.353 . S
C1416 H1474 0.930 . S
C1417 N1413 1.279 . S
C1417 C1415 1.358 . S
C1417 H1475 0.930 . S
C1418 C1421 1.348 . S
C1418 C1422 1.356 . S
C1418 O1469 1.325 . S
C1419 N1420 1.279 . S
C1419 C1422 1.358 . S
C1419 H1476 0.930 . S
N1420 C1419 1.279 . S
N1420 C1423 1.314 . S
C1421 C1418 1.348 . S
C1421 C1423 1.353 . S
C1421 H1477 0.929 . S
C1422 C1418 1.356 . S
C1422 C1419 1.358 . S
C1422 H1478 0.930 . S
C1423 N1420 1.314 . S
C1423 C1421 1.353 . S
C1423 H1479 0.930 . S
C1424 N1425 1.314 . S
C1424 C1429 1.353 . S
C1424 H1430 0.930 . S
N1425 Li1408 1.990 . S
N1425 C1424 1.314 . S
N1425 C1427 1.279 . S
C1426 C1427 1.358 . S
C1426 C1428 1.356 . S
C1426 H1480 0.930 . S
C1427 N1425 1.279 . S
C1427 C1426 1.358 . S
C1427 H1431 0.930 . S
C1428 C1426 1.356 . S
C1428 C1429 1.348 . S
C1429 C1424 1.353 . S
C1429 C1428 1.348 . S
C1429 H1481 0.929 . S
H1430 C1424 0.930 . S
H1431 C1427 0.930 . S
C1432 N1433 1.314 . S
C1432 C1434 1.353 . S
C1432 H1438 0.930 . S
N1433 Li1409 1.990 . S
N1433 C1432 1.314 . S
N1433 C1436 1.279 . S
C1434 C1432 1.353 . S
C1434 C1437 1.348 . S
C1434 H1482 0.929 . S
C1435 C1436 1.358 . S
C1435 C1437 1.356 . S
C1435 H1483 0.930 . S
C1436 N1433 1.279 . S
C1436 C1435 1.358 . S
C1436 H1439 0.930 . S
C1437 C1434 1.348 . S
C1437 C1435 1.356 . S
H1438 C1432 0.930 . S
H1439 C1436 0.930 . S
C1440 C1442 1.348 . S
C1440 C1443 1.356 . S
C1440 O1470 1.325 . S
N1441 C1444 1.314 . S
N1441 C1445 1.279 . S
C1442 C1440 1.348 . S
C1442 C1444 1.353 . S
C1442 H1484 0.929 . S
C1443 C1440 1.356 . S
C1443 C1445 1.358 . S
C1443 H1485 0.930 . S
C1444 N1441 1.314 . S
C1444 C1442 1.353 . S
C1444 H1486 0.930 . S
C1445 N1441 1.279 . S
C1445 C1443 1.358 . S
C1445 H1487 0.930 . S
C1446 C1447 1.348 . S
C1446 C1448 1.356 . S
C1446 O1471 1.325 . S
C1447 C1446 1.348 . S
C1447 C1449 1.353 . S
C1447 H1488 0.929 . S
C1448 C1446 1.356 . S
C1448 C1450 1.358 . S
C1448 H1489 0.930 . S
C1449 C1447 1.353 . S
C1449 N1451 1.314 . S
C1449 H1490 0.930 . S
C1450 C1448 1.358 . S
C1450 N1451 1.279 . S
C1450 H1491 0.930 . S
N1451 C1449 1.314 . S
N1451 C1450 1.279 . S
C1452 C1454 1.353 . S
C1452 N1455 1.314 . S
C1452 H1458 0.930 . S
C1453 N1455 1.279 . S
C1453 C1456 1.358 . S
C1453 H1459 0.930 . S
C1454 C1452 1.353 . S
C1454 C1457 1.348 . S
C1454 H1492 0.929 . S
N1455 Li1410 1.990 . S
N1455 C1452 1.314 . S
N1455 C1453 1.279 . S
C1456 C1453 1.358 . S
C1456 C1457 1.356 . S
C1456 H1493 0.930 . S
C1457 C1454 1.348 . S
C1457 C1456 1.356 . S
H1458 C1452 0.930 . S
H1459 C1453 0.930 . S
C1460 N1461 1.314 . S
C1460 C1462 1.353 . S
C1460 H1466 0.930 . S
N1461 Li1411 1.990 . S
N1461 C1460 1.314 . S
N1461 C1464 1.279 . S
C1462 C1460 1.353 . S
C1462 C1465 1.348 . S
C1462 H1494 0.929 . S
C1463 C1464 1.358 . S
C1463 C1465 1.356 . S
C1463 H1495 0.930 . S
C1464 N1461 1.279 . S
C1464 C1463 1.358 . S
C1464 H1467 0.930 . S
C1465 C1462 1.348 . S
C1465 C1463 1.356 . S
H1466 C1460 0.930 . S
H1467 C1464 0.930 . S
O1468 Li1408 1.956 . S
O1468 Li1409 1.970 . S
O1468 Li1410 1.961 . S
O1468 C1412 1.325 . S
O1469 Li1408 1.970 . S
O1469 Li1409 1.956 . S
O1469 Li1411 1.961 . S
O1469 C1418 1.325 . S
O1470 Li1408 1.961 . S
O1470 Li1410 1.956 . S
O1470 Li1411 1.970 . S
O1470 C1440 1.325 . S
O1471 Li1409 1.961 . S
O1471 Li1410 1.970 . S
O1471 Li1411 1.956 . S
O1471 C1446 1.325 . S
H1472 C1414 0.929 . S
H1473 C1415 0.930 . S
H1474 C1416 0.930 . S
H1475 C1417 0.930 . S
H1476 C1419 0.930 . S
H1477 C1421 0.929 . S
H1478 C1422 0.930 . S
H1479 C1423 0.930 . S
H1480 C1426 0.930 . S
H1481 C1429 0.929 . S
H1482 C1434 0.929 . S
H1483 C1435 0.930 . S
H1484 C1442 0.929 . S
H1485 C1443 0.930 . S
H1486 C1444 0.930 . S
H1487 C1445 0.930 . S
H1488 C1447 0.929 . S
H1489 C1448 0.930 . S
H1490 C1449 0.930 . S
H1491 C1450 0.930 . S
H1492 C1454 0.929 . S
H1493 C1456 0.930 . S
H1494 C1462 0.929 . S
H1495 C1463 0.930 . S
Li1496 N1513 1.990 . S
Li1496 O1556 1.956 . S
Li1496 O1557 1.970 . S
Li1496 O1558 1.961 . S
Li1497 N1521 1.990 . S
Li1497 O1556 1.970 . S
Li1497 O1557 1.956 . S
Li1497 O1559 1.961 . S
Li1498 N1543 1.990 . S
Li1498 O1556 1.961 . S
Li1498 O1558 1.956 . S
Li1498 O1559 1.970 . S
Li1499 N1549 1.990 . S
Li1499 O1557 1.961 . S
Li1499 O1558 1.970 . S
Li1499 O1559 1.956 . S
C1500 C1502 1.348 . S
C1500 C1503 1.356 . S
C1500 O1556 1.325 . S
N1501 C1504 1.314 . S
N1501 C1505 1.279 . S
C1502 C1500 1.348 . S
C1502 C1504 1.353 . S
C1502 H1560 0.929 . S
C1503 C1500 1.356 . S
C1503 C1505 1.358 . S
C1503 H1561 0.930 . S
C1504 N1501 1.314 . S
C1504 C1502 1.353 . S
C1504 H1562 0.930 . S
C1505 N1501 1.279 . S
C1505 C1503 1.358 . S
C1505 H1563 0.930 . S
C1506 C1509 1.348 . S
C1506 C1510 1.356 . S
C1506 O1557 1.325 . S
C1507 N1508 1.279 . S
C1507 C1510 1.358 . S
C1507 H1564 0.930 . S
N1508 C1507 1.279 . S
N1508 C1511 1.314 . S
C1509 C1506 1.348 . S
C1509 C1511 1.353 . S
C1509 H1565 0.929 . S
C1510 C1506 1.356 . S
C1510 C1507 1.358 . S
C1510 H1566 0.930 . S
C1511 N1508 1.314 . S
C1511 C1509 1.353 . S
C1511 H1567 0.930 . S
C1512 N1513 1.314 . S
C1512 C1517 1.353 . S
C1512 H1518 0.930 . S
N1513 Li1496 1.990 . S
N1513 C1512 1.314 . S
N1513 C1515 1.279 . S
C1514 C1515 1.358 . S
C1514 C1516 1.356 . S
C1514 H1568 0.930 . S
C1515 N1513 1.279 . S
C1515 C1514 1.358 . S
C1515 H1519 0.930 . S
C1516 C1514 1.356 . S
C1516 C1517 1.348 . S
C1517 C1512 1.353 . S
C1517 C1516 1.348 . S
C1517 H1569 0.929 . S
H1518 C1512 0.930 . S
H1519 C1515 0.930 . S
C1520 N1521 1.314 . S
C1520 C1522 1.353 . S
C1520 H1526 0.930 . S
N1521 Li1497 1.990 . S
N1521 C1520 1.314 . S
N1521 C1524 1.279 . S
C1522 C1520 1.353 . S
C1522 C1525 1.348 . S
C1522 H1570 0.929 . S
C1523 C1524 1.358 . S
C1523 C1525 1.356 . S
C1523 H1571 0.930 . S
C1524 N1521 1.279 . S
C1524 C1523 1.358 . S
C1524 H1527 0.930 . S
C1525 C1522 1.348 . S
C1525 C1523 1.356 . S
H1526 C1520 0.930 . S
H1527 C1524 0.930 . S
C1528 C1530 1.348 . S
C1528 C1531 1.356 . S
C1528 O1558 1.325 . S
N1529 C1532 1.314 . S
N1529 C1533 1.279 . S
C1530 C1528 1.348 . S
C1530 C1532 1.353 . S
C1530 H1572 0.929 . S
C1531 C1528 1.356 . S
C1531 C1533 1.358 . S
C1531 H1573 0.930 . S
C1532 N1529 1.314 . S
C1532 C1530 1.353 . S
C1532 H1574 0.930 . S
C1533 N1529 1.279 . S
C1533 C1531 1.358 . S
C1533 H1575 0.930 . S
C1534 C1535 1.348 . S
C1534 C1536 1.356 . S
C1534 O1559 1.325 . S
C1535 C1534 1.348 . S
C1535 C1537 1.353 . S
C1535 H1576 0.929 . S
C1536 C1534 1.356 . S
C1536 C1538 1.358 . S
C1536 H1577 0.930 . S
C1537 C1535 1.353 . S
C1537 N1539 1.314 . S
C1537 H1578 0.930 . S
C1538 C1536 1.358 . S
C1538 N1539 1.279 . S
C1538 H1579 0.930 . S
N1539 C1537 1.314 . S
N1539 C1538 1.279 . S
C1540 C1542 1.353 . S
C1540 N1543 1.314 . S
C1540 H1546 0.930 . S
C1541 N1543 1.279 . S
C1541 C1544 1.358 . S
C1541 H1547 0.930 . S
C1542 C1540 1.353 . S
C1542 C1545 1.348 . S
C1542 H1580 0.929 . S
N1543 Li1498 1.990 . S
N1543 C1540 1.314 . S
N1543 C1541 1.279 . S
C1544 C1541 1.358 . S
C1544 C1545 1.356 . S
C1544 H1581 0.930 . S
C1545 C1542 1.348 . S
C1545 C1544 1.356 . S
H1546 C1540 0.930 . S
H1547 C1541 0.930 . S
C1548 N1549 1.314 . S
C1548 C1550 1.353 . S
C1548 H1554 0.930 . S
N1549 Li1499 1.990 . S
N1549 C1548 1.314 . S
N1549 C1552 1.279 . S
C1550 C1548 1.353 . S
C1550 C1553 1.348 . S
C1550 H1582 0.929 . S
C1551 C1552 1.358 . S
C1551 C1553 1.356 . S
C1551 H1583 0.930 . S
C1552 N1549 1.279 . S
C1552 C1551 1.358 . S
C1552 H1555 0.930 . S
C1553 C1550 1.348 . S
C1553 C1551 1.356 . S
H1554 C1548 0.930 . S
H1555 C1552 0.930 . S
O1556 Li1496 1.956 . S
O1556 Li1497 1.970 . S
O1556 Li1498 1.961 . S
O1556 C1500 1.325 . S
O1557 Li1496 1.970 . S
O1557 Li1497 1.956 . S
O1557 Li1499 1.961 . S
O1557 C1506 1.325 . S
O1558 Li1496 1.961 . S
O1558 Li1498 1.956 . S
O1558 Li1499 1.970 . S
O1558 C1528 1.325 . S
O1559 Li1497 1.961 . S
O1559 Li1498 1.970 . S
O1559 Li1499 1.956 . S
O1559 C1534 1.325 . S
H1560 C1502 0.929 . S
H1561 C1503 0.930 . S
H1562 C1504 0.930 . S
H1563 C1505 0.930 . S
H1564 C1507 0.930 . S
H1565 C1509 0.929 . S
H1566 C1510 0.930 . S
H1567 C1511 0.930 . S
H1568 C1514 0.930 . S
H1569 C1517 0.929 . S
H1570 C1522 0.929 . S
H1571 C1523 0.930 . S
H1572 C1530 0.929 . S
H1573 C1531 0.930 . S
H1574 C1532 0.930 . S
H1575 C1533 0.930 . S
H1576 C1535 0.929 . S
H1577 C1536 0.930 . S
H1578 C1537 0.930 . S
H1579 C1538 0.930 . S
H1580 C1542 0.929 . S
H1581 C1544 0.930 . S
H1582 C1550 0.929 . S
H1583 C1551 0.930 . S
Li1584 N1601 1.990 . S
Li1584 O1644 1.956 . S
Li1584 O1645 1.970 . S
Li1584 O1646 1.961 . S
Li1585 N1609 1.990 . S
Li1585 O1644 1.970 . S
Li1585 O1645 1.956 . S
Li1585 O1647 1.961 . S
Li1586 N1631 1.990 . S
Li1586 O1644 1.961 . S
Li1586 O1646 1.956 . S
Li1586 O1647 1.970 . S
Li1587 N1637 1.990 . S
Li1587 O1645 1.961 . S
Li1587 O1646 1.970 . S
Li1587 O1647 1.956 . S
C1588 C1590 1.348 . S
C1588 C1591 1.356 . S
C1588 O1644 1.325 . S
N1589 C1592 1.314 . S
N1589 C1593 1.279 . S
C1590 C1588 1.348 . S
C1590 C1592 1.353 . S
C1590 H1648 0.929 . S
C1591 C1588 1.356 . S
C1591 C1593 1.358 . S
C1591 H1649 0.930 . S
C1592 N1589 1.314 . S
C1592 C1590 1.353 . S
C1592 H1650 0.930 . S
C1593 N1589 1.279 . S
C1593 C1591 1.358 . S
C1593 H1651 0.930 . S
C1594 C1597 1.348 . S
C1594 C1598 1.356 . S
C1594 O1645 1.325 . S
C1595 N1596 1.279 . S
C1595 C1598 1.358 . S
C1595 H1652 0.930 . S
N1596 C1595 1.279 . S
N1596 C1599 1.314 . S
C1597 C1594 1.348 . S
C1597 C1599 1.353 . S
C1597 H1653 0.929 . S
C1598 C1594 1.356 . S
C1598 C1595 1.358 . S
C1598 H1654 0.930 . S
C1599 N1596 1.314 . S
C1599 C1597 1.353 . S
C1599 H1655 0.930 . S
C1600 N1601 1.314 . S
C1600 C1605 1.353 . S
C1600 H1606 0.930 . S
N1601 Li1584 1.990 . S
N1601 C1600 1.314 . S
N1601 C1603 1.279 . S
C1602 C1603 1.358 . S
C1602 C1604 1.356 . S
C1602 H1656 0.930 . S
C1603 N1601 1.279 . S
C1603 C1602 1.358 . S
C1603 H1607 0.930 . S
C1604 C1602 1.356 . S
C1604 C1605 1.348 . S
C1605 C1600 1.353 . S
C1605 C1604 1.348 . S
C1605 H1657 0.929 . S
H1606 C1600 0.930 . S
H1607 C1603 0.930 . S
C1608 N1609 1.314 . S
C1608 C1610 1.353 . S
C1608 H1614 0.930 . S
N1609 Li1585 1.990 . S
N1609 C1608 1.314 . S
N1609 C1612 1.279 . S
C1610 C1608 1.353 . S
C1610 C1613 1.348 . S
C1610 H1658 0.929 . S
C1611 C1612 1.358 . S
C1611 C1613 1.356 . S
C1611 H1659 0.930 . S
C1612 N1609 1.279 . S
C1612 C1611 1.358 . S
C1612 H1615 0.930 . S
C1613 C1610 1.348 . S
C1613 C1611 1.356 . S
H1614 C1608 0.930 . S
H1615 C1612 0.930 . S
C1616 C1618 1.348 . S
C1616 C1619 1.356 . S
C1616 O1646 1.325 . S
N1617 C1620 1.314 . S
N1617 C1621 1.279 . S
C1618 C1616 1.348 . S
C1618 C1620 1.353 . S
C1618 H1660 0.929 . S
C1619 C1616 1.356 . S
C1619 C1621 1.358 . S
C1619 H1661 0.930 . S
C1620 N1617 1.314 . S
C1620 C1618 1.353 . S
C1620 H1662 0.930 . S
C1621 N1617 1.279 . S
C1621 C1619 1.358 . S
C1621 H1663 0.930 . S
C1622 C1623 1.348 . S
C1622 C1624 1.356 . S
C1622 O1647 1.325 . S
C1623 C1622 1.348 . S
C1623 C1625 1.353 . S
C1623 H1664 0.929 . S
C1624 C1622 1.356 . S
C1624 C1626 1.358 . S
C1624 H1665 0.930 . S
C1625 C1623 1.353 . S
C1625 N1627 1.314 . S
C1625 H1666 0.930 . S
C1626 C1624 1.358 . S
C1626 N1627 1.279 . S
C1626 H1667 0.930 . S
N1627 C1625 1.314 . S
N1627 C1626 1.279 . S
C1628 C1630 1.353 . S
C1628 N1631 1.314 . S
C1628 H1634 0.930 . S
C1629 N1631 1.279 . S
C1629 C1632 1.358 . S
C1629 H1635 0.930 . S
C1630 C1628 1.353 . S
C1630 C1633 1.348 . S
C1630 H1668 0.929 . S
N1631 Li1586 1.990 . S
N1631 C1628 1.314 . S
N1631 C1629 1.279 . S
C1632 C1629 1.358 . S
C1632 C1633 1.356 . S
C1632 H1669 0.930 . S
C1633 C1630 1.348 . S
C1633 C1632 1.356 . S
H1634 C1628 0.930 . S
H1635 C1629 0.930 . S
C1636 N1637 1.314 . S
C1636 C1638 1.353 . S
C1636 H1642 0.930 . S
N1637 Li1587 1.990 . S
N1637 C1636 1.314 . S
N1637 C1640 1.279 . S
C1638 C1636 1.353 . S
C1638 C1641 1.348 . S
C1638 H1670 0.929 . S
C1639 C1640 1.358 . S
C1639 C1641 1.356 . S
C1639 H1671 0.930 . S
C1640 N1637 1.279 . S
C1640 C1639 1.358 . S
C1640 H1643 0.930 . S
C1641 C1638 1.348 . S
C1641 C1639 1.356 . S
H1642 C1636 0.930 . S
H1643 C1640 0.930 . S
O1644 Li1584 1.956 . S
O1644 Li1585 1.970 . S
O1644 Li1586 1.961 . S
O1644 C1588 1.325 . S
O1645 Li1584 1.970 . S
O1645 Li1585 1.956 . S
O1645 Li1587 1.961 . S
O1645 C1594 1.325 . S
O1646 Li1584 1.961 . S
O1646 Li1586 1.956 . S
O1646 Li1587 1.970 . S
O1646 C1616 1.325 . S
O1647 Li1585 1.961 . S
O1647 Li1586 1.970 . S
O1647 Li1587 1.956 . S
O1647 C1622 1.325 . S
H1648 C1590 0.929 . S
H1649 C1591 0.930 . S
H1650 C1592 0.930 . S
H1651 C1593 0.930 . S
H1652 C1595 0.930 . S
H1653 C1597 0.929 . S
H1654 C1598 0.930 . S
H1655 C1599 0.930 . S
H1656 C1602 0.930 . S
H1657 C1605 0.929 . S
H1658 C1610 0.929 . S
H1659 C1611 0.930 . S
H1660 C1618 0.929 . S
H1661 C1619 0.930 . S
H1662 C1620 0.930 . S
H1663 C1621 0.930 . S
H1664 C1623 0.929 . S
H1665 C1624 0.930 . S
H1666 C1625 0.930 . S
H1667 C1626 0.930 . S
H1668 C1630 0.929 . S
H1669 C1632 0.930 . S
H1670 C1638 0.929 . S
H1671 C1639 0.930 . S
Li1672 N1689 1.990 . S
Li1672 O1732 1.956 . S
Li1672 O1733 1.970 . S
Li1672 O1734 1.961 . S
Li1673 N1697 1.990 . S
Li1673 O1732 1.970 . S
Li1673 O1733 1.956 . S
Li1673 O1735 1.961 . S
Li1674 N1719 1.990 . S
Li1674 O1732 1.961 . S
Li1674 O1734 1.956 . S
Li1674 O1735 1.970 . S
Li1675 N1725 1.990 . S
Li1675 O1733 1.961 . S
Li1675 O1734 1.970 . S
Li1675 O1735 1.956 . S
C1676 C1678 1.348 . S
C1676 C1679 1.356 . S
C1676 O1732 1.325 . S
N1677 C1680 1.314 . S
N1677 C1681 1.279 . S
C1678 C1676 1.348 . S
C1678 C1680 1.353 . S
C1678 H1736 0.929 . S
C1679 C1676 1.356 . S
C1679 C1681 1.358 . S
C1679 H1737 0.930 . S
C1680 N1677 1.314 . S
C1680 C1678 1.353 . S
C1680 H1738 0.930 . S
C1681 N1677 1.279 . S
C1681 C1679 1.358 . S
C1681 H1739 0.930 . S
C1682 C1685 1.348 . S
C1682 C1686 1.356 . S
C1682 O1733 1.325 . S
C1683 N1684 1.279 . S
C1683 C1686 1.358 . S
C1683 H1740 0.930 . S
N1684 C1683 1.279 . S
N1684 C1687 1.314 . S
C1685 C1682 1.348 . S
C1685 C1687 1.353 . S
C1685 H1741 0.929 . S
C1686 C1682 1.356 . S
C1686 C1683 1.358 . S
C1686 H1742 0.930 . S
C1687 N1684 1.314 . S
C1687 C1685 1.353 . S
C1687 H1743 0.930 . S
C1688 N1689 1.314 . S
C1688 C1693 1.353 . S
C1688 H1694 0.930 . S
N1689 Li1672 1.990 . S
N1689 C1688 1.314 . S
N1689 C1691 1.279 . S
C1690 C1691 1.358 . S
C1690 C1692 1.356 . S
C1690 H1744 0.930 . S
C1691 N1689 1.279 . S
C1691 C1690 1.358 . S
C1691 H1695 0.930 . S
C1692 C1690 1.356 . S
C1692 C1693 1.348 . S
C1693 C1688 1.353 . S
C1693 C1692 1.348 . S
C1693 H1745 0.929 . S
H1694 C1688 0.930 . S
H1695 C1691 0.930 . S
C1696 N1697 1.314 . S
C1696 C1698 1.353 . S
C1696 H1702 0.930 . S
N1697 Li1673 1.990 . S
N1697 C1696 1.314 . S
N1697 C1700 1.279 . S
C1698 C1696 1.353 . S
C1698 C1701 1.348 . S
C1698 H1746 0.929 . S
C1699 C1700 1.358 . S
C1699 C1701 1.356 . S
C1699 H1747 0.930 . S
C1700 N1697 1.279 . S
C1700 C1699 1.358 . S
C1700 H1703 0.930 . S
C1701 C1698 1.348 . S
C1701 C1699 1.356 . S
H1702 C1696 0.930 . S
H1703 C1700 0.930 . S
C1704 C1706 1.348 1_545 S
C1704 C1707 1.356 . S
C1704 O1734 1.325 . S
N1705 C1708 1.314 . S
N1705 C1709 1.279 . S
C1706 C1704 1.348 1_565 S
C1706 C1708 1.353 . S
C1706 H1748 0.929 . S
C1707 C1704 1.356 . S
C1707 C1709 1.358 1_545 S
C1707 H1749 0.930 . S
C1708 N1705 1.314 . S
C1708 C1706 1.353 . S
C1708 H1750 0.930 . S
C1709 N1705 1.279 . S
C1709 C1707 1.358 1_565 S
C1709 H1751 0.930 . S
C1710 C1711 1.348 . S
C1710 C1712 1.356 . S
C1710 O1735 1.325 . S
C1711 C1710 1.348 . S
C1711 C1713 1.353 . S
C1711 H1752 0.929 . S
C1712 C1710 1.356 . S
C1712 C1714 1.358 . S
C1712 H1753 0.930 . S
C1713 C1711 1.353 . S
C1713 N1715 1.314 . S
C1713 H1754 0.930 . S
C1714 C1712 1.358 . S
C1714 N1715 1.279 . S
C1714 H1755 0.930 . S
N1715 C1713 1.314 . S
N1715 C1714 1.279 . S
C1716 C1718 1.353 . S
C1716 N1719 1.314 . S
C1716 H1722 0.930 . S
C1717 N1719 1.279 . S
C1717 C1720 1.358 . S
C1717 H1723 0.930 . S
C1718 C1716 1.353 . S
C1718 C1721 1.348 . S
C1718 H1756 0.929 . S
N1719 Li1674 1.990 . S
N1719 C1716 1.314 . S
N1719 C1717 1.279 . S
C1720 C1717 1.358 . S
C1720 C1721 1.356 . S
C1720 H1757 0.930 . S
C1721 C1718 1.348 . S
C1721 C1720 1.356 . S
H1722 C1716 0.930 . S
H1723 C1717 0.930 . S
C1724 N1725 1.314 . S
C1724 C1726 1.353 1_545 S
C1724 H1730 0.930 . S
N1725 Li1675 1.990 . S
N1725 C1724 1.314 . S
N1725 C1728 1.279 . S
C1726 C1724 1.353 1_565 S
C1726 C1729 1.348 . S
C1726 H1758 0.929 . S
C1727 C1728 1.358 1_565 S
C1727 C1729 1.356 . S
C1727 H1759 0.930 . S
C1728 N1725 1.279 . S
C1728 C1727 1.358 1_545 S
C1728 H1731 0.930 . S
C1729 C1726 1.348 . S
C1729 C1727 1.356 . S
H1730 C1724 0.930 . S
H1731 C1728 0.930 . S
O1732 Li1672 1.956 . S
O1732 Li1673 1.970 . S
O1732 Li1674 1.961 . S
O1732 C1676 1.325 . S
O1733 Li1672 1.970 . S
O1733 Li1673 1.956 . S
O1733 Li1675 1.961 . S
O1733 C1682 1.325 . S
O1734 Li1672 1.961 . S
O1734 Li1674 1.956 . S
O1734 Li1675 1.970 . S
O1734 C1704 1.325 . S
O1735 Li1673 1.961 . S
O1735 Li1674 1.970 . S
O1735 Li1675 1.956 . S
O1735 C1710 1.325 . S
H1736 C1678 0.929 . S
H1737 C1679 0.930 . S
H1738 C1680 0.930 . S
H1739 C1681 0.930 . S
H1740 C1683 0.930 . S
H1741 C1685 0.929 . S
H1742 C1686 0.930 . S
H1743 C1687 0.930 . S
H1744 C1690 0.930 . S
H1745 C1693 0.929 . S
H1746 C1698 0.929 . S
H1747 C1699 0.930 . S
H1748 C1706 0.929 . S
H1749 C1707 0.930 . S
H1750 C1708 0.930 . S
H1751 C1709 0.930 . S
H1752 C1711 0.929 . S
H1753 C1712 0.930 . S
H1754 C1713 0.930 . S
H1755 C1714 0.930 . S
H1756 C1718 0.929 . S
H1757 C1720 0.930 . S
H1758 C1726 0.929 . S
H1759 C1727 0.930 . S
Li1760 N1777 1.990 . S
Li1760 O1820 1.956 . S
Li1760 O1821 1.970 . S
Li1760 O1822 1.961 . S
Li1761 N1785 1.990 . S
Li1761 O1820 1.972 1_556 S
Li1761 O1821 1.942 1_556 S
Li1761 O1823 1.975 . S
Li1762 N1807 1.990 . S
Li1762 O1820 1.961 1_556 S
Li1762 O1822 1.956 1_556 S
Li1762 O1823 1.970 . S
Li1763 N1813 1.990 . S
Li1763 O1821 1.961 1_556 S
Li1763 O1822 1.970 1_556 S
Li1763 O1823 1.956 . S
C1764 C1766 1.348 . S
C1764 C1767 1.356 . S
C1764 O1820 1.325 . S
N1765 C1768 1.314 . S
N1765 C1769 1.279 . S
C1766 C1764 1.348 . S
C1766 C1768 1.353 . S
C1766 H1824 0.929 . S
C1767 C1764 1.356 . S
C1767 C1769 1.358 . S
C1767 H1825 0.942 . S
C1768 N1765 1.314 . S
C1768 C1766 1.353 . S
C1768 H1826 0.930 . S
C1769 N1765 1.279 . S
C1769 C1767 1.358 . S
C1769 H1827 0.930 . S
C1770 C1773 1.348 . S
C1770 C1774 1.356 . S
C1770 O1821 1.325 . S
C1771 N1772 1.279 . S
C1771 C1774 1.358 . S
C1771 H1828 0.930 . S
N1772 C1771 1.279 . S
N1772 C1775 1.314 . S
C1773 C1770 1.348 . S
C1773 C1775 1.353 . S
C1773 H1829 0.929 . S
C1774 C1770 1.356 . S
C1774 C1771 1.358 . S
C1774 H1830 0.930 . S
C1775 N1772 1.314 . S
C1775 C1773 1.353 . S
C1775 H1831 0.930 . S
C1776 N1777 1.314 . S
C1776 C1781 1.353 . S
C1776 H1782 0.930 . S
N1777 Li1760 1.990 . S
N1777 C1776 1.314 . S
N1777 C1779 1.279 . S
C1778 C1779 1.358 . S
C1778 C1780 1.356 . S
C1778 H1832 0.930 . S
C1779 N1777 1.279 . S
C1779 C1778 1.358 . S
C1779 H1783 0.930 . S
C1780 C1778 1.356 . S
C1780 C1781 1.348 . S
C1781 C1776 1.353 . S
C1781 C1780 1.348 . S
C1781 H1833 0.929 . S
H1782 C1776 0.930 . S
H1783 C1779 0.930 . S
C1784 N1785 1.314 . S
C1784 C1786 1.353 . S
C1784 H1790 0.930 . S
N1785 Li1761 1.990 . S
N1785 C1784 1.314 . S
N1785 C1788 1.279 1_556 S
C1786 C1784 1.353 . S
C1786 C1789 1.348 . S
C1786 H1834 0.929 . S
C1787 C1788 1.358 . S
C1787 C1789 1.356 1_554 S
C1787 H1835 0.930 . S
C1788 N1785 1.279 1_554 S
C1788 C1787 1.358 . S
C1788 H1791 0.930 . S
C1789 C1786 1.348 . S
C1789 C1787 1.356 1_556 S
H1790 C1784 0.930 . S
H1791 C1788 0.930 . S
C1792 C1794 1.348 1_554 S
C1792 C1795 1.356 . S
C1792 O1822 1.325 . S
N1793 C1796 1.314 1_554 S
N1793 C1797 1.279 . S
C1794 C1792 1.348 1_556 S
C1794 C1796 1.353 . S
C1794 H1836 0.929 . S
C1795 C1792 1.356 . S
C1795 C1797 1.358 . S
C1795 H1837 0.930 . S
C1796 N1793 1.314 1_556 S
C1796 C1794 1.353 . S
C1796 H1838 0.930 . S
C1797 N1793 1.279 . S
C1797 C1795 1.358 . S
C1797 H1839 0.930 . S
C1798 C1799 1.348 . S
C1798 C1800 1.356 . S
C1798 O1823 1.325 . S
C1799 C1798 1.348 . S
C1799 C1801 1.353 . S
C1799 H1840 0.929 . S
C1800 C1798 1.356 . S
C1800 C1802 1.358 . S
C1800 H1841 0.930 . S
C1801 C1799 1.353 . S
C1801 N1803 1.314 . S
C1801 H1842 0.930 . S
C1802 C1800 1.358 . S
C1802 N1803 1.279 . S
C1802 H1843 0.930 . S
N1803 C1801 1.314 . S
N1803 C1802 1.279 . S
C1804 C1806 1.353 . S
C1804 N1807 1.314 . S
C1804 H1810 0.930 . S
C1805 N1807 1.279 . S
C1805 C1808 1.358 . S
C1805 H1811 0.930 . S
C1806 C1804 1.353 . S
C1806 C1809 1.348 . S
C1806 H1844 0.929 . S
N1807 Li1762 1.990 . S
N1807 C1804 1.314 . S
N1807 C1805 1.279 . S
C1808 C1805 1.358 . S
C1808 C1809 1.356 . S
C1808 H1845 0.930 . S
C1809 C1806 1.348 . S
C1809 C1808 1.356 . S
H1810 C1804 0.930 . S
H1811 C1805 0.930 . S
C1812 N1813 1.314 1_554 S
C1812 C1814 1.353 . S
C1812 H1818 0.930 . S
N1813 Li1763 1.990 . S
N1813 C1812 1.314 1_556 S
N1813 C1816 1.279 . S
C1814 C1812 1.353 . S
C1814 C1817 1.348 1_554 S
C1814 H1846 0.929 . S
C1815 C1816 1.358 . S
C1815 C1817 1.356 . S
C1815 H1847 0.930 . S
C1816 N1813 1.279 . S
C1816 C1815 1.358 . S
C1816 H1819 0.930 . S
C1817 C1814 1.348 1_556 S
C1817 C1815 1.356 . S
H1818 C1812 0.930 . S
H1819 C1816 0.930 . S
O1820 Li1760 1.956 . S
O1820 Li1761 1.972 1_554 S
O1820 Li1762 1.961 1_554 S
O1820 C1764 1.325 . S
O1821 Li1760 1.970 . S
O1821 Li1761 1.942 1_554 S
O1821 Li1763 1.961 1_554 S
O1821 C1770 1.325 . S
O1822 Li1760 1.961 . S
O1822 Li1762 1.956 1_554 S
O1822 Li1763 1.970 1_554 S
O1822 C1792 1.325 . S
O1823 Li1761 1.975 . S
O1823 Li1762 1.970 . S
O1823 Li1763 1.956 . S
O1823 C1798 1.325 . S
H1824 C1766 0.929 . S
H1825 C1767 0.942 . S
H1826 C1768 0.930 . S
H1827 C1769 0.930 . S
H1828 C1771 0.930 . S
H1829 C1773 0.929 . S
H1830 C1774 0.930 . S
H1831 C1775 0.930 . S
H1832 C1778 0.930 . S
H1833 C1781 0.929 . S
H1834 C1786 0.929 . S
H1835 C1787 0.930 . S
H1836 C1794 0.929 . S
H1837 C1795 0.930 . S
H1838 C1796 0.930 . S
H1839 C1797 0.930 . S
H1840 C1799 0.929 . S
H1841 C1800 0.930 . S
H1842 C1801 0.930 . S
H1843 C1802 0.930 . S
H1844 C1806 0.929 . S
H1845 C1808 0.930 . S
H1846 C1814 0.929 . S
H1847 C1815 0.930 . S
Li1848 N1865 1.990 . S
Li1848 O1908 1.956 . S
Li1848 O1909 1.970 . S
Li1848 O1910 1.961 . S
Li1849 N1873 1.990 . S
Li1849 O1908 1.970 . S
Li1849 O1909 1.956 . S
Li1849 O1911 1.961 . S
Li1850 N1895 1.990 . S
Li1850 O1908 1.961 . S
Li1850 O1910 1.956 . S
Li1850 O1911 1.970 . S
Li1851 N1901 1.990 . S
Li1851 O1909 1.961 . S
Li1851 O1910 1.970 . S
Li1851 O1911 1.956 . S
C1852 C1854 1.348 . S
C1852 C1855 1.356 . S
C1852 O1908 1.325 . S
N1853 C1856 1.314 . S
N1853 C1857 1.279 . S
C1854 C1852 1.348 . S
C1854 C1856 1.353 . S
C1854 H1912 0.929 . S
C1855 C1852 1.356 . S
C1855 C1857 1.358 . S
C1855 H1913 0.930 . S
C1856 N1853 1.314 . S
C1856 C1854 1.353 . S
C1856 H1914 0.930 . S
C1857 N1853 1.279 . S
C1857 C1855 1.358 . S
C1857 H1915 0.930 . S
C1858 C1861 1.348 . S
C1858 C1862 1.356 . S
C1858 O1909 1.325 . S
C1859 N1860 1.279 . S
C1859 C1862 1.358 . S
C1859 H1916 0.930 . S
N1860 C1859 1.279 . S
N1860 C1863 1.314 . S
C1861 C1858 1.348 . S
C1861 C1863 1.353 . S
C1861 H1917 0.929 . S
C1862 C1858 1.356 . S
C1862 C1859 1.358 . S
C1862 H1918 0.930 . S
C1863 N1860 1.314 . S
C1863 C1861 1.353 . S
C1863 H1919 0.930 . S
C1864 N1865 1.314 . S
C1864 C1869 1.353 . S
C1864 H1870 0.930 . S
N1865 Li1848 1.990 . S
N1865 C1864 1.314 . S
N1865 C1867 1.279 . S
C1866 C1867 1.358 . S
C1866 C1868 1.356 . S
C1866 H1920 0.930 . S
C1867 N1865 1.279 . S
C1867 C1866 1.358 . S
C1867 H1871 0.930 . S
C1868 C1866 1.356 . S
C1868 C1869 1.348 . S
C1869 C1864 1.353 . S
C1869 C1868 1.348 . S
C1869 H1921 0.929 . S
H1870 C1864 0.930 . S
H1871 C1867 0.930 . S
C1872 N1873 1.314 . S
C1872 C1874 1.353 . S
C1872 H1878 0.930 . S
N1873 Li1849 1.990 . S
N1873 C1872 1.314 . S
N1873 C1876 1.279 . S
C1874 C1872 1.353 . S
C1874 C1877 1.348 . S
C1874 H1922 0.929 . S
C1875 C1876 1.358 . S
C1875 C1877 1.356 . S
C1875 H1923 0.930 . S
C1876 N1873 1.279 . S
C1876 C1875 1.358 . S
C1876 H1879 0.930 . S
C1877 C1874 1.348 . S
C1877 C1875 1.356 . S
H1878 C1872 0.930 . S
H1879 C1876 0.930 . S
C1880 C1882 1.348 . S
C1880 C1883 1.356 . S
C1880 O1910 1.325 . S
N1881 C1884 1.314 . S
N1881 C1885 1.279 . S
C1882 C1880 1.348 . S
C1882 C1884 1.353 . S
C1882 H1924 0.929 . S
C1883 C1880 1.356 . S
C1883 C1885 1.358 . S
C1883 H1925 0.930 . S
C1884 N1881 1.314 . S
C1884 C1882 1.353 . S
C1884 H1926 0.930 . S
C1885 N1881 1.279 . S
C1885 C1883 1.358 . S
C1885 H1927 0.930 . S
C1886 C1887 1.348 . S
C1886 C1888 1.356 . S
C1886 O1911 1.325 . S
C1887 C1886 1.348 . S
C1887 C1889 1.353 . S
C1887 H1928 0.929 . S
C1888 C1886 1.356 . S
C1888 C1890 1.358 . S
C1888 H1929 0.930 . S
C1889 C1887 1.353 . S
C1889 N1891 1.314 . S
C1889 H1930 0.930 . S
C1890 C1888 1.358 . S
C1890 N1891 1.279 . S
C1890 H1931 0.930 . S
N1891 C1889 1.314 . S
N1891 C1890 1.279 . S
C1892 C1894 1.353 . S
C1892 N1895 1.314 . S
C1892 H1898 0.930 . S
C1893 N1895 1.279 . S
C1893 C1896 1.358 . S
C1893 H1899 0.930 . S
C1894 C1892 1.353 . S
C1894 C1897 1.348 . S
C1894 H1932 0.929 . S
N1895 Li1850 1.990 . S
N1895 C1892 1.314 . S
N1895 C1893 1.279 . S
C1896 C1893 1.358 . S
C1896 C1897 1.356 . S
C1896 H1933 0.930 . S
C1897 C1894 1.348 . S
C1897 C1896 1.356 . S
H1898 C1892 0.930 . S
H1899 C1893 0.930 . S
C1900 N1901 1.314 . S
C1900 C1902 1.353 . S
C1900 H1906 0.930 . S
N1901 Li1851 1.990 . S
N1901 C1900 1.314 . S
N1901 C1904 1.279 . S
C1902 C1900 1.353 . S
C1902 C1905 1.348 . S
C1902 H1934 0.929 . S
C1903 C1904 1.358 . S
C1903 C1905 1.356 . S
C1903 H1935 0.930 . S
C1904 N1901 1.279 . S
C1904 C1903 1.358 . S
C1904 H1907 0.930 . S
C1905 C1902 1.348 . S
C1905 C1903 1.356 . S
H1906 C1900 0.930 . S
H1907 C1904 0.930 . S
O1908 Li1848 1.956 . S
O1908 Li1849 1.970 . S
O1908 Li1850 1.961 . S
O1908 C1852 1.325 . S
O1909 Li1848 1.970 . S
O1909 Li1849 1.956 . S
O1909 Li1851 1.961 . S
O1909 C1858 1.325 . S
O1910 Li1848 1.961 . S
O1910 Li1850 1.956 . S
O1910 Li1851 1.970 . S
O1910 C1880 1.325 . S
O1911 Li1849 1.961 . S
O1911 Li1850 1.970 . S
O1911 Li1851 1.956 . S
O1911 C1886 1.325 . S
H1912 C1854 0.929 . S
H1913 C1855 0.930 . S
H1914 C1856 0.930 . S
H1915 C1857 0.930 . S
H1916 C1859 0.930 . S
H1917 C1861 0.929 . S
H1918 C1862 0.930 . S
H1919 C1863 0.930 . S
H1920 C1866 0.930 . S
H1921 C1869 0.929 . S
H1922 C1874 0.929 . S
H1923 C1875 0.930 . S
H1924 C1882 0.929 . S
H1925 C1883 0.930 . S
H1926 C1884 0.930 . S
H1927 C1885 0.930 . S
H1928 C1887 0.929 . S
H1929 C1888 0.930 . S
H1930 C1889 0.930 . S
H1931 C1890 0.930 . S
H1932 C1894 0.929 . S
H1933 C1896 0.930 . S
H1934 C1902 0.929 . S
H1935 C1903 0.930 . S
Li1936 N1953 1.990 . S
Li1936 O1996 1.956 . S
Li1936 O1997 1.970 . S
Li1936 O1998 1.961 . S
Li1937 N1961 1.990 . S
Li1937 O1996 1.970 . S
Li1937 O1997 1.956 . S
Li1937 O1999 1.961 . S
Li1938 N1983 1.990 . S
Li1938 O1996 1.961 . S
Li1938 O1998 1.956 . S
Li1938 O1999 1.970 . S
Li1939 N1989 1.990 . S
Li1939 O1997 1.961 . S
Li1939 O1998 1.970 . S
Li1939 O1999 1.956 . S
C1940 C1942 1.348 . S
C1940 C1943 1.356 . S
C1940 O1996 1.325 . S
N1941 C1944 1.314 . S
N1941 C1945 1.279 . S
C1942 C1940 1.348 . S
C1942 C1944 1.353 . S
C1942 H2000 0.929 . S
C1943 C1940 1.356 . S
C1943 C1945 1.358 . S
C1943 H2001 0.930 . S
C1944 N1941 1.314 . S
C1944 C1942 1.353 . S
C1944 H2002 0.930 . S
C1945 N1941 1.279 . S
C1945 C1943 1.358 . S
C1945 H2003 0.930 . S
C1946 C1949 1.348 . S
C1946 C1950 1.356 . S
C1946 O1997 1.325 . S
C1947 N1948 1.279 . S
C1947 C1950 1.358 . S
C1947 H2004 0.930 . S
N1948 C1947 1.279 . S
N1948 C1951 1.314 . S
C1949 C1946 1.348 . S
C1949 C1951 1.353 . S
C1949 H2005 0.929 . S
C1950 C1946 1.356 . S
C1950 C1947 1.358 . S
C1950 H2006 0.930 . S
C1951 N1948 1.314 . S
C1951 C1949 1.353 . S
C1951 H2007 0.930 . S
C1952 N1953 1.314 . S
C1952 C1957 1.353 . S
C1952 H1958 0.930 . S
N1953 Li1936 1.990 . S
N1953 C1952 1.314 . S
N1953 C1955 1.279 . S
C1954 C1955 1.358 . S
C1954 C1956 1.356 . S
C1954 H2008 0.930 . S
C1955 N1953 1.279 . S
C1955 C1954 1.358 . S
C1955 H1959 0.930 . S
C1956 C1954 1.356 . S
C1956 C1957 1.348 . S
C1957 C1952 1.353 . S
C1957 C1956 1.348 . S
C1957 H2009 0.929 . S
H1958 C1952 0.930 . S
H1959 C1955 0.930 . S
C1960 N1961 1.314 . S
C1960 C1962 1.353 . S
C1960 H1966 0.930 . S
N1961 Li1937 1.990 . S
N1961 C1960 1.314 . S
N1961 C1964 1.279 . S
C1962 C1960 1.353 . S
C1962 C1965 1.348 . S
C1962 H2010 0.929 . S
C1963 C1964 1.358 . S
C1963 C1965 1.356 . S
C1963 H2011 0.930 . S
C1964 N1961 1.279 . S
C1964 C1963 1.358 . S
C1964 H1967 0.930 . S
C1965 C1962 1.348 . S
C1965 C1963 1.356 . S
H1966 C1960 0.930 . S
H1967 C1964 0.930 . S
C1968 C1970 1.348 . S
C1968 C1971 1.356 . S
C1968 O1998 1.325 . S
N1969 C1972 1.314 . S
N1969 C1973 1.279 . S
C1970 C1968 1.348 . S
C1970 C1972 1.353 . S
C1970 H2012 0.929 . S
C1971 C1968 1.356 . S
C1971 C1973 1.358 . S
C1971 H2013 0.930 . S
C1972 N1969 1.314 . S
C1972 C1970 1.353 . S
C1972 H2014 0.930 . S
C1973 N1969 1.279 . S
C1973 C1971 1.358 . S
C1973 H2015 0.930 . S
C1974 C1975 1.348 . S
C1974 C1976 1.356 . S
C1974 O1999 1.325 . S
C1975 C1974 1.348 . S
C1975 C1977 1.353 . S
C1975 H2016 0.929 . S
C1976 C1974 1.356 . S
C1976 C1978 1.358 . S
C1976 H2017 0.930 . S
C1977 C1975 1.353 . S
C1977 N1979 1.314 . S
C1977 H2018 0.930 . S
C1978 C1976 1.358 . S
C1978 N1979 1.279 . S
C1978 H2019 0.930 . S
N1979 C1977 1.314 . S
N1979 C1978 1.279 . S
C1980 C1982 1.353 . S
C1980 N1983 1.314 . S
C1980 H1986 0.930 . S
C1981 N1983 1.279 . S
C1981 C1984 1.358 . S
C1981 H1987 0.930 . S
C1982 C1980 1.353 . S
C1982 C1985 1.348 . S
C1982 H2020 0.929 . S
N1983 Li1938 1.990 . S
N1983 C1980 1.314 . S
N1983 C1981 1.279 . S
C1984 C1981 1.358 . S
C1984 C1985 1.356 . S
C1984 H2021 0.930 . S
C1985 C1982 1.348 . S
C1985 C1984 1.356 . S
H1986 C1980 0.930 . S
H1987 C1981 0.930 . S
C1988 N1989 1.314 . S
C1988 C1990 1.353 . S
C1988 H1994 0.930 . S
N1989 Li1939 1.990 . S
N1989 C1988 1.314 . S
N1989 C1992 1.279 . S
C1990 C1988 1.353 . S
C1990 C1993 1.348 . S
C1990 H2022 0.929 . S
C1991 C1992 1.358 . S
C1991 C1993 1.356 . S
C1991 H2023 0.930 . S
C1992 N1989 1.279 . S
C1992 C1991 1.358 . S
C1992 H1995 0.930 . S
C1993 C1990 1.348 . S
C1993 C1991 1.356 . S
H1994 C1988 0.930 . S
H1995 C1992 0.930 . S
O1996 Li1936 1.956 . S
O1996 Li1937 1.970 . S
O1996 Li1938 1.961 . S
O1996 C1940 1.325 . S
O1997 Li1936 1.970 . S
O1997 Li1937 1.956 . S
O1997 Li1939 1.961 . S
O1997 C1946 1.325 . S
O1998 Li1936 1.961 . S
O1998 Li1938 1.956 . S
O1998 Li1939 1.970 . S
O1998 C1968 1.325 . S
O1999 Li1937 1.961 . S
O1999 Li1938 1.970 . S
O1999 Li1939 1.956 . S
O1999 C1974 1.325 . S
H2000 C1942 0.929 . S
H2001 C1943 0.930 . S
H2002 C1944 0.930 . S
H2003 C1945 0.930 . S
H2004 C1947 0.930 . S
H2005 C1949 0.929 . S
H2006 C1950 0.930 . S
H2007 C1951 0.930 . S
H2008 C1954 0.930 . S
H2009 C1957 0.929 . S
H2010 C1962 0.929 . S
H2011 C1963 0.930 . S
H2012 C1970 0.929 . S
H2013 C1971 0.930 . S
H2014 C1972 0.930 . S
H2015 C1973 0.930 . S
H2016 C1975 0.929 . S
H2017 C1976 0.930 . S
H2018 C1977 0.930 . S
H2019 C1978 0.930 . S
H2020 C1982 0.929 . S
H2021 C1984 0.930 . S
H2022 C1990 0.929 . S
H2023 C1991 0.930 . S
Li2024 N2041 1.990 . S
Li2024 O2084 1.956 . S
Li2024 O2085 1.970 . S
Li2024 O2086 1.961 . S
Li2025 N2049 1.990 . S
Li2025 O2084 1.970 . S
Li2025 O2085 1.956 . S
Li2025 O2087 1.961 . S
Li2026 N2071 1.990 . S
Li2026 O2084 1.961 . S
Li2026 O2086 1.956 . S
Li2026 O2087 1.970 . S
Li2027 N2077 1.990 . S
Li2027 O2085 1.961 . S
Li2027 O2086 1.970 . S
Li2027 O2087 1.956 . S
C2028 C2030 1.348 . S
C2028 C2031 1.356 . S
C2028 O2084 1.325 . S
N2029 C2032 1.314 . S
N2029 C2033 1.279 . S
C2030 C2028 1.348 . S
C2030 C2032 1.353 . S
C2030 H2088 0.929 . S
C2031 C2028 1.356 . S
C2031 C2033 1.358 . S
C2031 H2089 0.930 . S
C2032 N2029 1.314 . S
C2032 C2030 1.353 . S
C2032 H2090 0.930 . S
C2033 N2029 1.279 . S
C2033 C2031 1.358 . S
C2033 H2091 0.930 . S
C2034 C2037 1.348 . S
C2034 C2038 1.356 . S
C2034 O2085 1.325 . S
C2035 N2036 1.279 . S
C2035 C2038 1.358 . S
C2035 H2092 0.930 . S
N2036 C2035 1.279 . S
N2036 C2039 1.314 . S
C2037 C2034 1.348 . S
C2037 C2039 1.353 . S
C2037 H2093 0.929 . S
C2038 C2034 1.356 . S
C2038 C2035 1.358 . S
C2038 H2094 0.930 . S
C2039 N2036 1.314 . S
C2039 C2037 1.353 . S
C2039 H2095 0.930 . S
C2040 N2041 1.314 . S
C2040 C2045 1.353 . S
C2040 H2046 0.930 . S
N2041 Li2024 1.990 . S
N2041 C2040 1.314 . S
N2041 C2043 1.279 . S
C2042 C2043 1.358 . S
C2042 C2044 1.356 . S
C2042 H2096 0.930 . S
C2043 N2041 1.279 . S
C2043 C2042 1.358 . S
C2043 H2047 0.930 . S
C2044 C2042 1.356 . S
C2044 C2045 1.348 . S
C2045 C2040 1.353 . S
C2045 C2044 1.348 . S
C2045 H2097 0.929 . S
H2046 C2040 0.930 . S
H2047 C2043 0.930 . S
C2048 N2049 1.314 . S
C2048 C2050 1.353 . S
C2048 H2054 0.930 . S
N2049 Li2025 1.990 . S
N2049 C2048 1.314 . S
N2049 C2052 1.279 . S
C2050 C2048 1.353 . S
C2050 C2053 1.348 . S
C2050 H2098 0.929 . S
C2051 C2052 1.358 . S
C2051 C2053 1.356 . S
C2051 H2099 0.930 . S
C2052 N2049 1.279 . S
C2052 C2051 1.358 . S
C2052 H2055 0.930 . S
C2053 C2050 1.348 . S
C2053 C2051 1.356 . S
H2054 C2048 0.930 . S
H2055 C2052 0.930 . S
C2056 C2058 1.348 . S
C2056 C2059 1.356 . S
C2056 O2086 1.325 . S
N2057 C2060 1.314 . S
N2057 C2061 1.279 . S
C2058 C2056 1.348 . S
C2058 C2060 1.353 . S
C2058 H2100 0.929 . S
C2059 C2056 1.356 . S
C2059 C2061 1.358 . S
C2059 H2101 0.930 . S
C2060 N2057 1.314 . S
C2060 C2058 1.353 . S
C2060 H2102 0.930 . S
C2061 N2057 1.279 . S
C2061 C2059 1.358 . S
C2061 H2103 0.930 . S
C2062 C2063 1.348 . S
C2062 C2064 1.356 . S
C2062 O2087 1.325 . S
C2063 C2062 1.348 . S
C2063 C2065 1.353 . S
C2063 H2104 0.929 . S
C2064 C2062 1.356 . S
C2064 C2066 1.358 . S
C2064 H2105 0.930 . S
C2065 C2063 1.353 . S
C2065 N2067 1.314 . S
C2065 H2106 0.930 . S
C2066 C2064 1.358 . S
C2066 N2067 1.279 . S
C2066 H2107 0.930 . S
N2067 C2065 1.314 . S
N2067 C2066 1.279 . S
C2068 C2070 1.353 . S
C2068 N2071 1.314 . S
C2068 H2074 0.930 . S
C2069 N2071 1.279 . S
C2069 C2072 1.358 . S
C2069 H2075 0.930 . S
C2070 C2068 1.353 . S
C2070 C2073 1.348 . S
C2070 H2108 0.929 . S
N2071 Li2026 1.990 . S
N2071 C2068 1.314 . S
N2071 C2069 1.279 . S
C2072 C2069 1.358 . S
C2072 C2073 1.356 . S
C2072 H2109 0.930 . S
C2073 C2070 1.348 . S
C2073 C2072 1.356 . S
H2074 C2068 0.930 . S
H2075 C2069 0.930 . S
C2076 N2077 1.314 . S
C2076 C2078 1.353 . S
C2076 H2082 0.930 . S
N2077 Li2027 1.990 . S
N2077 C2076 1.314 . S
N2077 C2080 1.279 . S
C2078 C2076 1.353 . S
C2078 C2081 1.348 . S
C2078 H2110 0.929 . S
C2079 C2080 1.358 . S
C2079 C2081 1.356 . S
C2079 H2111 0.930 . S
C2080 N2077 1.279 . S
C2080 C2079 1.358 . S
C2080 H2083 0.930 . S
C2081 C2078 1.348 . S
C2081 C2079 1.356 . S
H2082 C2076 0.930 . S
H2083 C2080 0.930 . S
O2084 Li2024 1.956 . S
O2084 Li2025 1.970 . S
O2084 Li2026 1.961 . S
O2084 C2028 1.325 . S
O2085 Li2024 1.970 . S
O2085 Li2025 1.956 . S
O2085 Li2027 1.961 . S
O2085 C2034 1.325 . S
O2086 Li2024 1.961 . S
O2086 Li2026 1.956 . S
O2086 Li2027 1.970 . S
O2086 C2056 1.325 . S
O2087 Li2025 1.961 . S
O2087 Li2026 1.970 . S
O2087 Li2027 1.956 . S
O2087 C2062 1.325 . S
H2088 C2030 0.929 . S
H2089 C2031 0.930 . S
H2090 C2032 0.930 . S
H2091 C2033 0.930 . S
H2092 C2035 0.930 . S
H2093 C2037 0.929 . S
H2094 C2038 0.930 . S
H2095 C2039 0.930 . S
H2096 C2042 0.930 . S
H2097 C2045 0.929 . S
H2098 C2050 0.929 . S
H2099 C2051 0.930 . S
H2100 C2058 0.929 . S
H2101 C2059 0.930 . S
H2102 C2060 0.930 . S
H2103 C2061 0.930 . S
H2104 C2063 0.929 . S
H2105 C2064 0.930 . S
H2106 C2065 0.930 . S
H2107 C2066 0.930 . S
H2108 C2070 0.929 . S
H2109 C2072 0.930 . S
H2110 C2078 0.929 . S
H2111 C2079 0.930 . S
Tb2112 N2143 2.660 . S
Tb2112 N2150 2.600 1_554 S
Tb2112 O2156 2.550 1_554 S
Tb2112 O2157 2.610 . S
Tb2112 O2159 2.320 . S
Tb2112 O2160 2.552 . S
Tb2112 O2161 2.413 1_455 S
Tb2112 O2163 2.362 . S
Tb2112 O2164 2.421 1_554 S
Tb2112 C2176 2.816 1_454 S
C2113 C2116 1.432 . S
C2113 C2117 1.414 . S
C2113 N2120 1.359 . S
C2114 C2116 1.417 . S
C2114 C2118 1.432 . S
C2114 C2126 1.410 . S
C2115 C2117 1.444 . S
C2115 C2118 1.317 . S
C2115 H2138 0.929 . S
C2116 C2113 1.432 . S
C2116 C2114 1.417 . S
C2116 N2124 1.360 . S
C2117 C2113 1.414 . S
C2117 C2115 1.444 . S
C2117 C2122 1.385 . S
C2118 C2114 1.432 . S
C2118 C2115 1.317 . S
C2118 H2130 0.930 . S
C2119 C2121 1.392 . S
C2119 C2122 1.370 . S
C2119 H2131 0.931 . S
N2120 C2113 1.359 . S
N2120 C2121 1.327 . S
N2120 Tb2123 2.600 . S
C2121 C2119 1.392 . S
C2121 N2120 1.327 . S
C2121 H2128 0.930 . S
C2122 C2117 1.385 . S
C2122 C2119 1.370 . S
C2122 H2141 0.930 . S
Tb2123 N2120 2.600 . S
Tb2123 N2124 2.660 . S
Tb2123 O2157 2.362 . S
Tb2123 O2158 2.421 . S
Tb2123 O2162 2.546 . S
Tb2123 O2163 2.610 . S
Tb2123 O2165 2.332 . S
Tb2123 O2166 2.552 . S
Tb2123 O2167 2.413 . S
Tb2123 C2187 2.833 . S
N2124 C2116 1.360 . S
N2124 Tb2123 2.660 . S
N2124 C2125 1.319 . S
C2125 N2124 1.319 . S
C2125 C2127 1.399 1_554 S
C2125 H2132 0.924 1_554 S
C2126 C2114 1.410 . S
C2126 C2127 1.345 1_554 S
C2126 H2134 0.890 1_554 S
C2127 C2125 1.399 1_556 S
C2127 C2126 1.345 1_556 S
C2127 H2129 0.930 . S
H2128 C2121 0.930 . S
H2129 C2127 0.930 . S
H2130 C2118 0.930 . S
H2131 C2119 0.931 . S
H2132 C2125 0.924 1_556 S
H2133 C2147 0.930 . S
H2134 C2126 0.890 1_556 S
H2135 C2153 0.988 . S
H2136 C2144 0.930 . S
H2137 C2151 0.931 . S
H2138 C2115 0.929 . S
H2139 C2145 0.930 . S
H2140 C2178 0.930 . S
H2141 C2122 0.930 . S
H2142 C2177 0.929 . S
N2143 Tb2112 2.660 . S
N2143 C2144 1.305 . S
N2143 C2148 1.360 1_545 S
C2144 H2136 0.930 . S
C2144 N2143 1.305 . S
C2144 C2147 1.407 1_545 S
C2145 H2139 0.930 . S
C2145 C2146 1.410 . S
C2145 C2147 1.345 1_655 S
C2146 C2145 1.410 . S
C2146 C2148 1.417 1_655 S
C2146 C2178 1.432 . S
C2147 H2133 0.930 . S
C2147 C2144 1.407 1_565 S
C2147 C2145 1.345 1_455 S
C2148 N2143 1.360 1_565 S
C2148 C2146 1.417 1_455 S
C2148 C2152 1.432 1_554 S
H2149 C2154 0.930 . S
N2150 Tb2112 2.600 1_556 S
N2150 C2152 1.359 1_545 S
N2150 C2153 1.318 . S
C2151 H2137 0.931 . S
C2151 C2153 1.350 1_565 S
C2151 C2154 1.370 1_455 S
C2152 C2148 1.432 1_556 S
C2152 N2150 1.359 1_565 S
C2152 C2155 1.414 1_455 S
C2153 H2135 0.988 . S
C2153 N2150 1.318 . S
C2153 C2151 1.350 1_545 S
C2154 H2149 0.930 . S
C2154 C2151 1.370 1_655 S
C2154 C2155 1.385 . S
C2155 C2152 1.414 1_655 S
C2155 C2154 1.385 . S
C2155 C2177 1.444 . S
O2156 Tb2112 2.550 1_556 S
O2156 C2176 1.301 1_455 S
O2157 Tb2112 2.610 . S
O2157 Tb2123 2.362 . S
O2157 C2168 1.283 . S
O2158 Tb2123 2.421 . S
O2158 C2175 1.262 . S
O2159 Tb2112 2.320 . S
O2159 C2175 1.260 . S
O2160 Tb2112 2.552 . S
O2160 C2168 1.243 . S
O2161 Tb2112 2.413 1_655 S
O2161 C2176 1.189 1_554 S
O2162 Tb2123 2.546 . S
O2162 C2187 1.251 . S
O2163 Tb2112 2.362 . S
O2163 Tb2123 2.610 . S
O2163 C2179 1.283 . S
O2164 Tb2112 2.421 1_556 S
O2164 C2186 1.262 . S
O2165 Tb2123 2.332 . S
O2165 C2186 1.252 1_554 S
O2166 Tb2123 2.552 . S
O2166 C2179 1.243 . S
O2167 Tb2123 2.413 . S
O2167 C2187 1.256 . S
C2168 O2157 1.283 . S
C2168 O2160 1.243 . S
C2169 C2171 1.382 1_556 S
C2169 C2173 1.393 . S
C2169 C2176 1.515 . S
C2170 C2171 1.400 . S
C2170 C2172 1.384 1_554 S
C2171 C2169 1.382 1_554 S
C2171 C2170 1.400 . S
C2171 H2188 0.930 . S
C2172 C2170 1.384 1_556 S
C2172 C2174 1.392 . S
C2172 H2189 0.931 . S
C2173 C2169 1.393 . S
C2173 C2174 1.401 . S
C2173 H2190 0.930 . S
C2174 C2172 1.392 . S
C2174 C2173 1.401 . S
C2174 H2191 0.930 . S
C2175 O2158 1.262 . S
C2175 O2159 1.260 . S
C2176 Tb2112 2.816 1_656 S
C2176 O2156 1.301 1_655 S
C2176 O2161 1.189 1_556 S
C2176 C2169 1.515 . S
C2177 H2142 0.929 . S
C2177 C2155 1.444 . S
C2177 C2178 1.317 1_556 S
C2178 H2140 0.930 . S
C2178 C2146 1.432 . S
C2178 C2177 1.317 1_554 S
C2179 O2163 1.283 . S
C2179 O2166 1.243 . S
C2180 C2181 1.382 . S
C2180 C2184 1.393 . S
C2180 C2187 1.500 . S
C2181 C2180 1.382 . S
C2181 C2182 1.400 . S
C2181 H2192 0.930 . S
C2182 C2181 1.400 . S
C2182 C2183 1.384 . S
C2183 C2182 1.384 . S
C2183 C2185 1.392 . S
C2183 H2193 0.931 . S
C2184 C2180 1.393 . S
C2184 C2185 1.401 . S
C2184 H2194 0.930 . S
C2185 C2183 1.392 . S
C2185 C2184 1.401 . S
C2185 H2195 0.930 . S
C2186 O2164 1.262 . S
C2186 O2165 1.252 1_556 S
C2187 Tb2123 2.833 . S
C2187 O2162 1.251 . S
C2187 O2167 1.256 . S
C2187 C2180 1.500 . S
H2188 C2171 0.930 . S
H2189 C2172 0.931 . S
H2190 C2173 0.930 . S
H2191 C2174 0.930 . S
H2192 C2181 0.930 . S
H2193 C2183 0.931 . S
H2194 C2184 0.930 . S
H2195 C2185 0.930 . S
Tb2196 N2227 2.660 . S
Tb2196 N2234 2.600 . S
Tb2196 O2240 2.546 . S
Tb2196 O2241 2.610 . S
Tb2196 O2243 2.320 . S
Tb2196 O2244 2.552 . S
Tb2196 O2245 2.413 . S
Tb2196 O2247 2.362 . S
Tb2196 O2248 2.421 . S
Tb2196 C2260 2.833 . S
C2197 C2200 1.432 . S
C2197 C2201 1.414 . S
C2197 N2204 1.359 . S
C2198 C2200 1.417 . S
C2198 C2202 1.432 . S
C2198 C2210 1.410 . S
C2199 C2201 1.444 . S
C2199 C2202 1.317 . S
C2199 H2222 0.929 . S
C2200 C2197 1.432 . S
C2200 C2198 1.417 . S
C2200 N2208 1.360 . S
C2201 C2197 1.414 . S
C2201 C2199 1.444 . S
C2201 C2206 1.385 . S
C2202 C2198 1.432 . S
C2202 C2199 1.317 . S
C2202 H2214 0.930 . S
C2203 C2205 1.392 . S
C2203 C2206 1.370 . S
C2203 H2215 0.931 . S
N2204 C2197 1.359 . S
N2204 C2205 1.327 . S
N2204 Tb2207 2.600 . S
C2205 C2203 1.392 . S
C2205 N2204 1.327 . S
C2205 H2212 0.930 . S
C2206 C2201 1.385 . S
C2206 C2203 1.370 . S
C2206 H2225 0.930 . S
Tb2207 N2204 2.600 . S
Tb2207 N2208 2.660 . S
Tb2207 O2241 2.362 . S
Tb2207 O2242 2.421 . S
Tb2207 O2246 2.546 . S
Tb2207 O2247 2.610 . S
Tb2207 O2249 2.320 . S
Tb2207 O2250 2.552 . S
Tb2207 O2251 2.413 . S
Tb2207 C2271 2.833 . S
N2208 C2200 1.360 . S
N2208 Tb2207 2.660 . S
N2208 C2209 1.305 . S
C2209 N2208 1.305 . S
C2209 C2211 1.407 . S
C2209 H2216 0.930 . S
C2210 C2198 1.410 . S
C2210 C2211 1.345 . S
C2210 H2218 0.930 . S
C2211 C2209 1.407 . S
C2211 C2210 1.345 . S
C2211 H2213 0.930 . S
H2212 C2205 0.930 . S
H2213 C2211 0.930 . S
H2214 C2202 0.930 . S
H2215 C2203 0.931 . S
H2216 C2209 0.930 . S
H2217 C2231 0.930 . S
H2218 C2210 0.930 . S
H2219 C2237 0.930 . S
H2220 C2228 0.930 . S
H2221 C2235 0.931 . S
H2222 C2199 0.929 . S
H2223 C2229 0.930 . S
H2224 C2262 0.930 . S
H2225 C2206 0.930 . S
H2226 C2261 0.929 . S
N2227 Tb2196 2.660 . S
N2227 C2228 1.305 . S
N2227 C2232 1.360 . S
C2228 H2220 0.930 . S
C2228 N2227 1.305 . S
C2228 C2231 1.407 . S
C2229 H2223 0.930 . S
C2229 C2230 1.410 . S
C2229 C2231 1.345 . S
C2230 C2229 1.410 . S
C2230 C2232 1.417 . S
C2230 C2262 1.432 . S
C2231 H2217 0.930 . S
C2231 C2228 1.407 . S
C2231 C2229 1.345 . S
C2232 N2227 1.360 . S
C2232 C2230 1.417 . S
C2232 C2236 1.432 . S
H2233 C2238 0.930 . S
N2234 Tb2196 2.600 . S
N2234 C2236 1.359 . S
N2234 C2237 1.327 . S
C2235 H2221 0.931 . S
C2235 C2237 1.392 . S
C2235 C2238 1.370 . S
C2236 C2232 1.432 . S
C2236 N2234 1.359 . S
C2236 C2239 1.414 . S
C2237 H2219 0.930 . S
C2237 N2234 1.327 . S
C2237 C2235 1.392 . S
C2238 H2233 0.930 . S
C2238 C2235 1.370 . S
C2238 C2239 1.385 . S
C2239 C2236 1.414 . S
C2239 C2238 1.385 . S
C2239 C2261 1.444 . S
O2240 Tb2196 2.546 . S
O2240 C2260 1.251 . S
O2241 Tb2196 2.610 . S
O2241 Tb2207 2.362 . S
O2241 C2252 1.283 . S
O2242 Tb2207 2.421 . S
O2242 C2259 1.262 . S
O2243 Tb2196 2.320 . S
O2243 C2259 1.260 . S
O2244 Tb2196 2.552 . S
O2244 C2252 1.243 . S
O2245 Tb2196 2.413 . S
O2245 C2260 1.256 . S
O2246 Tb2207 2.546 . S
O2246 C2271 1.251 . S
O2247 Tb2196 2.362 . S
O2247 Tb2207 2.610 . S
O2247 C2263 1.283 . S
O2248 Tb2196 2.421 . S
O2248 C2270 1.262 . S
O2249 Tb2207 2.320 . S
O2249 C2270 1.260 . S
O2250 Tb2207 2.552 . S
O2250 C2263 1.243 . S
O2251 Tb2207 2.413 . S
O2251 C2271 1.256 . S
C2252 O2241 1.283 . S
C2252 O2244 1.243 . S
C2253 C2255 1.382 . S
C2253 C2257 1.393 . S
C2253 C2260 1.500 . S
C2254 C2255 1.400 . S
C2254 C2256 1.384 . S
C2255 C2253 1.382 . S
C2255 C2254 1.400 . S
C2255 H2272 0.930 . S
C2256 C2254 1.384 . S
C2256 C2258 1.392 . S
C2256 H2273 0.931 . S
C2257 C2253 1.393 . S
C2257 C2258 1.401 . S
C2257 H2274 0.930 . S
C2258 C2256 1.392 . S
C2258 C2257 1.401 . S
C2258 H2275 0.930 . S
C2259 O2242 1.262 . S
C2259 O2243 1.260 . S
C2260 Tb2196 2.833 . S
C2260 O2240 1.251 . S
C2260 O2245 1.256 . S
C2260 C2253 1.500 . S
C2261 H2226 0.929 . S
C2261 C2239 1.444 . S
C2261 C2262 1.317 . S
C2262 H2224 0.930 . S
C2262 C2230 1.432 . S
C2262 C2261 1.317 . S
C2263 O2247 1.283 . S
C2263 O2250 1.243 . S
C2264 C2265 1.382 . S
C2264 C2268 1.393 . S
C2264 C2271 1.500 . S
C2265 C2264 1.382 . S
C2265 C2266 1.400 . S
C2265 H2276 0.930 . S
C2266 C2265 1.400 . S
C2266 C2267 1.384 . S
C2267 C2266 1.384 . S
C2267 C2269 1.392 . S
C2267 H2277 0.931 . S
C2268 C2264 1.393 . S
C2268 C2269 1.401 . S
C2268 H2278 0.930 . S
C2269 C2267 1.392 . S
C2269 C2268 1.401 . S
C2269 H2279 0.930 . S
C2270 O2248 1.262 . S
C2270 O2249 1.260 . S
C2271 Tb2207 2.833 . S
C2271 O2246 1.251 . S
C2271 O2251 1.256 . S
C2271 C2264 1.500 . S
H2272 C2255 0.930 . S
H2273 C2256 0.931 . S
H2274 C2257 0.930 . S
H2275 C2258 0.930 . S
H2276 C2265 0.930 . S
H2277 C2267 0.931 . S
H2278 C2268 0.930 . S
H2279 C2269 0.930 . S
Tb2280 N2311 2.660 . S
Tb2280 N2318 2.600 . S
Tb2280 O2324 2.546 . S
Tb2280 O2325 2.610 . S
Tb2280 O2327 2.320 . S
Tb2280 O2328 2.552 . S
Tb2280 O2329 2.413 . S
Tb2280 O2331 2.362 . S
Tb2280 O2332 2.421 . S
Tb2280 C2344 2.833 . S
C2281 C2284 1.432 1_545 S
C2281 C2285 1.414 1_545 S
C2281 N2288 1.359 . S
C2282 C2284 1.417 . S
C2282 C2286 1.432 . S
C2282 C2294 1.410 . S
C2283 C2285 1.444 . S
C2283 C2286 1.317 . S
C2283 H2306 0.929 . S
C2284 C2281 1.432 1_565 S
C2284 C2282 1.417 . S
C2284 N2292 1.360 1_565 S
C2285 C2281 1.414 1_565 S
C2285 C2283 1.444 . S
C2285 C2290 1.385 . S
C2286 C2282 1.432 . S
C2286 C2283 1.317 . S
C2286 H2298 0.930 . S
C2287 C2289 1.392 . S
C2287 C2290 1.370 1_545 S
C2287 H2299 0.931 . S
N2288 C2281 1.359 . S
N2288 C2289 1.327 . S
N2288 Tb2291 2.600 . S
C2289 C2287 1.392 . S
C2289 N2288 1.327 . S
C2289 H2296 0.930 . S
C2290 C2285 1.385 . S
C2290 C2287 1.370 1_565 S
C2290 H2309 0.930 . S
Tb2291 N2288 2.600 . S
Tb2291 N2292 2.660 . S
Tb2291 O2325 2.362 . S
Tb2291 O2326 2.421 . S
Tb2291 O2330 2.546 . S
Tb2291 O2331 2.610 . S
Tb2291 O2333 2.320 . S
Tb2291 O2334 2.552 . S
Tb2291 O2335 2.413 . S
Tb2291 C2355 2.833 . S
N2292 C2284 1.360 1_545 S
N2292 Tb2291 2.660 . S
N2292 C2293 1.305 . S
C2293 N2292 1.305 . S
C2293 C2295 1.407 1_545 S
C2293 H2300 0.930 . S
C2294 C2282 1.410 . S
C2294 C2295 1.345 . S
C2294 H2302 0.930 . S
C2295 C2293 1.407 1_565 S
C2295 C2294 1.345 . S
C2295 H2297 0.930 . S
H2296 C2289 0.930 . S
H2297 C2295 0.930 . S
H2298 C2286 0.930 . S
H2299 C2287 0.931 . S
H2300 C2293 0.930 . S
H2301 C2315 0.930 . S
H2302 C2294 0.930 . S
H2303 C2321 0.930 . S
H2304 C2312 0.930 . S
H2305 C2319 0.931 . S
H2306 C2283 0.929 . S
H2307 C2313 0.930 . S
H2308 C2346 0.930 . S
H2309 C2290 0.930 . S
H2310 C2345 0.929 . S
N2311 Tb2280 2.660 . S
N2311 C2312 1.305 . S
N2311 C2316 1.360 . S
C2312 H2304 0.930 . S
C2312 N2311 1.305 . S
C2312 C2315 1.407 . S
C2313 H2307 0.930 . S
C2313 C2314 1.410 . S
C2313 C2315 1.345 . S
C2314 C2313 1.410 . S
C2314 C2316 1.417 . S
C2314 C2346 1.432 . S
C2315 H2301 0.930 . S
C2315 C2312 1.407 . S
C2315 C2313 1.345 . S
C2316 N2311 1.360 . S
C2316 C2314 1.417 . S
C2316 C2320 1.432 . S
H2317 C2322 0.930 . S
N2318 Tb2280 2.600 . S
N2318 C2320 1.359 . S
N2318 C2321 1.327 . S
C2319 H2305 0.931 . S
C2319 C2321 1.392 . S
C2319 C2322 1.370 . S
C2320 C2316 1.432 . S
C2320 N2318 1.359 . S
C2320 C2323 1.414 . S
C2321 H2303 0.930 . S
C2321 N2318 1.327 . S
C2321 C2319 1.392 . S
C2322 H2317 0.930 . S
C2322 C2319 1.370 . S
C2322 C2323 1.385 . S
C2323 C2320 1.414 . S
C2323 C2322 1.385 . S
C2323 C2345 1.444 . S
O2324 Tb2280 2.546 . S
O2324 C2344 1.251 . S
O2325 Tb2280 2.610 . S
O2325 Tb2291 2.362 . S
O2325 C2336 1.283 . S
O2326 Tb2291 2.421 . S
O2326 C2343 1.262 . S
O2327 Tb2280 2.320 . S
O2327 C2343 1.260 . S
O2328 Tb2280 2.552 . S
O2328 C2336 1.243 . S
O2329 Tb2280 2.413 . S
O2329 C2344 1.256 . S
O2330 Tb2291 2.546 . S
O2330 C2355 1.251 . S
O2331 Tb2280 2.362 . S
O2331 Tb2291 2.610 . S
O2331 C2347 1.283 . S
O2332 Tb2280 2.421 . S
O2332 C2354 1.262 . S
O2333 Tb2291 2.320 . S
O2333 C2354 1.260 . S
O2334 Tb2291 2.552 . S
O2334 C2347 1.243 . S
O2335 Tb2291 2.413 . S
O2335 C2355 1.256 . S
C2336 O2325 1.283 . S
C2336 O2328 1.243 . S
C2337 C2339 1.382 . S
C2337 C2341 1.393 . S
C2337 C2344 1.500 . S
C2338 C2339 1.400 . S
C2338 C2340 1.384 . S
C2339 C2337 1.382 . S
C2339 C2338 1.400 . S
C2339 H2356 0.930 . S
C2340 C2338 1.384 . S
C2340 C2342 1.392 . S
C2340 H2357 0.931 1_545 S
C2341 C2337 1.393 . S
C2341 C2342 1.401 . S
C2341 H2358 0.930 . S
C2342 C2340 1.392 . S
C2342 C2341 1.401 . S
C2342 H2359 0.930 . S
C2343 O2326 1.262 . S
C2343 O2327 1.260 . S
C2344 Tb2280 2.833 . S
C2344 O2324 1.251 . S
C2344 O2329 1.256 . S
C2344 C2337 1.500 . S
C2345 H2310 0.929 . S
C2345 C2323 1.444 . S
C2345 C2346 1.317 . S
C2346 H2308 0.930 . S
C2346 C2314 1.432 . S
C2346 C2345 1.317 . S
C2347 O2331 1.283 . S
C2347 O2334 1.243 . S
C2348 C2349 1.382 . S
C2348 C2352 1.393 . S
C2348 C2355 1.500 . S
C2349 C2348 1.382 . S
C2349 C2350 1.400 . S
C2349 H2360 0.930 . S
C2350 C2349 1.400 . S
C2350 C2351 1.384 . S
C2351 C2350 1.384 . S
C2351 C2353 1.392 . S
C2351 H2361 0.931 . S
C2352 C2348 1.393 . S
C2352 C2353 1.401 . S
C2352 H2362 0.930 . S
C2353 C2351 1.392 . S
C2353 C2352 1.401 . S
C2353 H2363 0.930 . S
C2354 O2332 1.262 . S
C2354 O2333 1.260 . S
C2355 Tb2291 2.833 . S
C2355 O2330 1.251 . S
C2355 O2335 1.256 . S
C2355 C2348 1.500 . S
H2356 C2339 0.930 . S
H2357 C2340 0.931 1_565 S
H2358 C2341 0.930 . S
H2359 C2342 0.930 . S
H2360 C2349 0.930 . S
H2361 C2351 0.931 . S
H2362 C2352 0.930 . S
H2363 C2353 0.930 . S
Tb2364 N2395 2.660 . S
Tb2364 N2402 2.600 . S
Tb2364 O2408 2.546 . S
Tb2364 O2409 2.610 . S
Tb2364 O2411 2.320 . S
Tb2364 O2412 2.552 . S
Tb2364 O2413 2.413 . S
Tb2364 O2415 2.362 . S
Tb2364 O2416 2.421 . S
Tb2364 C2428 2.833 . S
C2365 C2368 1.432 . S
C2365 C2369 1.414 . S
C2365 N2372 1.359 . S
C2366 C2368 1.417 . S
C2366 C2370 1.432 . S
C2366 C2378 1.410 . S
C2367 C2369 1.444 . S
C2367 C2370 1.317 . S
C2367 H2390 0.929 . S
C2368 C2365 1.432 . S
C2368 C2366 1.417 . S
C2368 N2376 1.360 . S
C2369 C2365 1.414 . S
C2369 C2367 1.444 . S
C2369 C2374 1.385 . S
C2370 C2366 1.432 . S
C2370 C2367 1.317 . S
C2370 H2382 0.930 . S
C2371 C2373 1.392 . S
C2371 C2374 1.370 . S
C2371 H2383 0.931 . S
N2372 C2365 1.359 . S
N2372 C2373 1.327 . S
N2372 Tb2375 2.600 . S
C2373 C2371 1.392 . S
C2373 N2372 1.327 . S
C2373 H2380 0.930 . S
C2374 C2369 1.385 . S
C2374 C2371 1.370 . S
C2374 H2393 0.930 . S
Tb2375 N2372 2.600 . S
Tb2375 N2376 2.660 . S
Tb2375 O2409 2.362 . S
Tb2375 O2410 2.421 . S
Tb2375 O2414 2.546 . S
Tb2375 O2415 2.610 . S
Tb2375 O2417 2.320 . S
Tb2375 O2418 2.552 . S
Tb2375 O2419 2.413 . S
Tb2375 C2439 2.833 . S
N2376 C2368 1.360 . S
N2376 Tb2375 2.660 . S
N2376 C2377 1.305 . S
C2377 N2376 1.305 . S
C2377 C2379 1.407 . S
C2377 H2384 0.930 . S
C2378 C2366 1.410 . S
C2378 C2379 1.345 . S
C2378 H2386 0.930 . S
C2379 C2377 1.407 . S
C2379 C2378 1.345 . S
C2379 H2381 0.930 . S
H2380 C2373 0.930 . S
H2381 C2379 0.930 . S
H2382 C2370 0.930 . S
H2383 C2371 0.931 . S
H2384 C2377 0.930 . S
H2385 C2399 0.930 . S
H2386 C2378 0.930 . S
H2387 C2405 0.930 . S
H2388 C2396 0.930 . S
H2389 C2403 0.931 . S
H2390 C2367 0.929 . S
H2391 C2397 0.930 . S
H2392 C2430 0.930 . S
H2393 C2374 0.930 . S
H2394 C2429 0.929 . S
N2395 Tb2364 2.660 . S
N2395 C2396 1.305 . S
N2395 C2400 1.360 . S
C2396 H2388 0.930 . S
C2396 N2395 1.305 . S
C2396 C2399 1.407 . S
C2397 H2391 0.930 . S
C2397 C2398 1.410 . S
C2397 C2399 1.345 . S
C2398 C2397 1.410 . S
C2398 C2400 1.417 . S
C2398 C2430 1.432 . S
C2399 H2385 0.930 . S
C2399 C2396 1.407 . S
C2399 C2397 1.345 . S
C2400 N2395 1.360 . S
C2400 C2398 1.417 . S
C2400 C2404 1.432 . S
H2401 C2406 0.930 . S
N2402 Tb2364 2.600 . S
N2402 C2404 1.359 . S
N2402 C2405 1.327 . S
C2403 H2389 0.931 . S
C2403 C2405 1.392 . S
C2403 C2406 1.370 . S
C2404 C2400 1.432 . S
C2404 N2402 1.359 . S
C2404 C2407 1.414 . S
C2405 H2387 0.930 . S
C2405 N2402 1.327 . S
C2405 C2403 1.392 . S
C2406 H2401 0.930 . S
C2406 C2403 1.370 . S
C2406 C2407 1.385 . S
C2407 C2404 1.414 . S
C2407 C2406 1.385 . S
C2407 C2429 1.444 . S
O2408 Tb2364 2.546 . S
O2408 C2428 1.251 . S
O2409 Tb2364 2.610 . S
O2409 Tb2375 2.362 . S
O2409 C2420 1.283 . S
O2410 Tb2375 2.421 . S
O2410 C2427 1.262 . S
O2411 Tb2364 2.320 . S
O2411 C2427 1.260 . S
O2412 Tb2364 2.552 . S
O2412 C2420 1.243 . S
O2413 Tb2364 2.413 . S
O2413 C2428 1.256 . S
O2414 Tb2375 2.546 . S
O2414 C2439 1.251 . S
O2415 Tb2364 2.362 . S
O2415 Tb2375 2.610 . S
O2415 C2431 1.283 . S
O2416 Tb2364 2.421 . S
O2416 C2438 1.262 . S
O2417 Tb2375 2.320 . S
O2417 C2438 1.260 . S
O2418 Tb2375 2.552 . S
O2418 C2431 1.243 . S
O2419 Tb2375 2.413 . S
O2419 C2439 1.256 . S
C2420 O2409 1.283 . S
C2420 O2412 1.243 . S
C2421 C2423 1.382 . S
C2421 C2425 1.393 . S
C2421 C2428 1.500 . S
C2422 C2423 1.400 . S
C2422 C2424 1.384 . S
C2423 C2421 1.382 . S
C2423 C2422 1.400 . S
C2423 H2440 0.930 . S
C2424 C2422 1.384 . S
C2424 C2426 1.392 . S
C2424 H2441 0.931 . S
C2425 C2421 1.393 . S
C2425 C2426 1.401 . S
C2425 H2442 0.930 . S
C2426 C2424 1.392 . S
C2426 C2425 1.401 . S
C2426 H2443 0.930 . S
C2427 O2410 1.262 . S
C2427 O2411 1.260 . S
C2428 Tb2364 2.833 . S
C2428 O2408 1.251 . S
C2428 O2413 1.256 . S
C2428 C2421 1.500 . S
C2429 H2394 0.929 . S
C2429 C2407 1.444 . S
C2429 C2430 1.317 . S
C2430 H2392 0.930 . S
C2430 C2398 1.432 . S
C2430 C2429 1.317 . S
C2431 O2415 1.283 . S
C2431 O2418 1.243 . S
C2432 C2433 1.382 . S
C2432 C2436 1.393 . S
C2432 C2439 1.500 . S
C2433 C2432 1.382 . S
C2433 C2434 1.400 . S
C2433 H2444 0.930 . S
C2434 C2433 1.400 . S
C2434 C2435 1.384 . S
C2435 C2434 1.384 . S
C2435 C2437 1.392 . S
C2435 H2445 0.931 . S
C2436 C2432 1.393 . S
C2436 C2437 1.401 . S
C2436 H2446 0.930 . S
C2437 C2435 1.392 . S
C2437 C2436 1.401 . S
C2437 H2447 0.930 . S
C2438 O2416 1.262 . S
C2438 O2417 1.260 . S
C2439 Tb2375 2.833 . S
C2439 O2414 1.251 . S
C2439 O2419 1.256 . S
C2439 C2432 1.500 . S
H2440 C2423 0.930 . S
H2441 C2424 0.931 . S
H2442 C2425 0.930 . S
H2443 C2426 0.930 . S
H2444 C2433 0.930 . S
H2445 C2435 0.931 . S
H2446 C2436 0.930 . S
H2447 C2437 0.930 . S
Tb2448 N2479 2.660 . S
Tb2448 N2486 2.600 . S
Tb2448 O2492 2.546 . S
Tb2448 O2493 2.610 . S
Tb2448 O2495 2.320 . S
Tb2448 O2496 2.552 . S
Tb2448 O2497 2.413 . S
Tb2448 O2499 2.362 . S
Tb2448 O2500 2.421 . S
Tb2448 C2512 2.833 . S
C2449 C2452 1.432 . S
C2449 C2453 1.414 . S
C2449 N2456 1.359 1_565 S
C2450 C2452 1.417 . S
C2450 C2454 1.432 . S
C2450 C2462 1.410 . S
C2451 C2453 1.444 . S
C2451 C2454 1.317 . S
C2451 H2474 0.929 . S
C2452 C2449 1.432 . S
C2452 C2450 1.417 . S
C2452 N2460 1.355 1_565 S
C2453 C2449 1.414 . S
C2453 C2451 1.444 . S
C2453 C2458 1.385 . S
C2454 C2450 1.432 . S
C2454 C2451 1.317 . S
C2454 H2466 0.930 . S
C2455 C2457 1.395 1_565 S
C2455 C2458 1.368 . S
C2455 H2467 0.930 1_565 S
N2456 C2449 1.359 1_545 S
N2456 C2457 1.327 . S
N2456 Tb2459 2.600 . S
C2457 C2455 1.395 1_545 S
C2457 N2456 1.327 . S
C2457 H2464 0.930 . S
C2458 C2453 1.385 . S
C2458 C2455 1.368 . S
C2458 H2477 0.930 . S
Tb2459 N2456 2.600 . S
Tb2459 N2460 2.663 . S
Tb2459 O2493 2.362 . S
Tb2459 O2494 2.421 . S
Tb2459 O2498 2.546 1_545 S
Tb2459 O2499 2.610 . S
Tb2459 O2501 2.320 . S
Tb2459 O2502 2.552 . S
Tb2459 O2503 2.413 1_545 S
Tb2459 C2523 2.833 1_545 S
N2460 C2452 1.355 1_545 S
N2460 Tb2459 2.663 . S
N2460 C2461 1.307 1_545 S
C2461 N2460 1.307 1_565 S
C2461 C2463 1.407 . S
C2461 H2468 0.930 1_565 S
C2462 C2450 1.410 . S
C2462 C2463 1.345 . S
C2462 H2470 0.930 . S
C2463 C2461 1.407 . S
C2463 C2462 1.345 . S
C2463 H2465 0.930 1_455 S
H2464 C2457 0.930 . S
H2465 C2463 0.930 1_655 S
H2466 C2454 0.930 . S
H2467 C2455 0.930 1_545 S
H2468 C2461 0.930 1_545 S
H2469 C2483 0.930 . S
H2470 C2462 0.930 . S
H2471 C2489 0.930 . S
H2472 C2480 0.930 . S
H2473 C2487 0.931 1_655 S
H2474 C2451 0.929 . S
H2475 C2481 0.930 . S
H2476 C2514 0.930 . S
H2477 C2458 0.930 . S
H2478 C2513 0.929 . S
N2479 Tb2448 2.660 . S
N2479 C2480 1.305 . S
N2479 C2484 1.360 . S
C2480 H2472 0.930 . S
C2480 N2479 1.305 . S
C2480 C2483 1.407 . S
C2481 H2475 0.930 . S
C2481 C2482 1.410 . S
C2481 C2483 1.345 . S
C2482 C2481 1.410 . S
C2482 C2484 1.417 . S
C2482 C2514 1.432 . S
C2483 H2469 0.930 . S
C2483 C2480 1.407 . S
C2483 C2481 1.345 . S
C2484 N2479 1.360 . S
C2484 C2482 1.417 . S
C2484 C2488 1.432 . S
H2485 C2490 0.930 . S
N2486 Tb2448 2.600 . S
N2486 C2488 1.359 . S
N2486 C2489 1.327 . S
C2487 H2473 0.931 1_455 S
C2487 C2489 1.392 . S
C2487 C2490 1.370 . S
C2488 C2484 1.432 . S
C2488 N2486 1.359 . S
C2488 C2491 1.414 . S
C2489 H2471 0.930 . S
C2489 N2486 1.327 . S
C2489 C2487 1.392 . S
C2490 H2485 0.930 . S
C2490 C2487 1.370 . S
C2490 C2491 1.385 . S
C2491 C2488 1.414 . S
C2491 C2490 1.385 . S
C2491 C2513 1.444 . S
O2492 Tb2448 2.546 . S
O2492 C2512 1.251 . S
O2493 Tb2448 2.610 . S
O2493 Tb2459 2.362 . S
O2493 C2504 1.283 . S
O2494 Tb2459 2.421 . S
O2494 C2511 1.262 . S
O2495 Tb2448 2.320 . S
O2495 C2511 1.260 . S
O2496 Tb2448 2.552 . S
O2496 C2504 1.243 . S
O2497 Tb2448 2.413 . S
O2497 C2512 1.256 . S
O2498 Tb2459 2.546 1_565 S
O2498 C2523 1.251 . S
O2499 Tb2448 2.362 . S
O2499 Tb2459 2.610 . S
O2499 C2515 1.283 . S
O2500 Tb2448 2.421 . S
O2500 C2522 1.262 . S
O2501 Tb2459 2.320 . S
O2501 C2522 1.260 . S
O2502 Tb2459 2.552 . S
O2502 C2515 1.243 . S
O2503 Tb2459 2.413 1_565 S
O2503 C2523 1.256 . S
C2504 O2493 1.283 . S
C2504 O2496 1.243 . S
C2505 C2507 1.382 . S
C2505 C2509 1.393 . S
C2505 C2512 1.500 . S
C2506 C2507 1.400 . S
C2506 C2508 1.384 . S
C2507 C2505 1.382 . S
C2507 C2506 1.400 . S
C2507 H2524 0.930 . S
C2508 C2506 1.384 . S
C2508 C2510 1.392 . S
C2508 H2525 0.931 . S
C2509 C2505 1.393 . S
C2509 C2510 1.401 . S
C2509 H2526 0.930 . S
C2510 C2508 1.392 . S
C2510 C2509 1.401 . S
C2510 H2527 0.930 . S
C2511 O2494 1.262 . S
C2511 O2495 1.260 . S
C2512 Tb2448 2.833 . S
C2512 O2492 1.251 . S
C2512 O2497 1.256 . S
C2512 C2505 1.500 . S
C2513 H2478 0.929 . S
C2513 C2491 1.444 . S
C2513 C2514 1.317 . S
C2514 H2476 0.930 . S
C2514 C2482 1.432 . S
C2514 C2513 1.317 . S
C2515 O2499 1.283 . S
C2515 O2502 1.243 . S
C2516 C2517 1.382 . S
C2516 C2520 1.393 . S
C2516 C2523 1.500 . S
C2517 C2516 1.382 . S
C2517 C2518 1.400 . S
C2517 H2528 0.930 . S
C2518 C2517 1.400 . S
C2518 C2519 1.384 . S
C2519 C2518 1.384 . S
C2519 C2521 1.392 . S
C2519 H2529 0.931 . S
C2520 C2516 1.393 . S
C2520 C2521 1.401 . S
C2520 H2530 0.930 . S
C2521 C2519 1.392 . S
C2521 C2520 1.401 . S
C2521 H2531 0.930 . S
C2522 O2500 1.262 . S
C2522 O2501 1.260 . S
C2523 Tb2459 2.833 1_565 S
C2523 O2498 1.251 . S
C2523 O2503 1.256 . S
C2523 C2516 1.500 . S
H2524 C2507 0.930 . S
H2525 C2508 0.931 . S
H2526 C2509 0.930 . S
H2527 C2510 0.930 . S
H2528 C2517 0.930 . S
H2529 C2519 0.931 . S
H2530 C2520 0.930 . S
H2531 C2521 0.930 . S
Tb2532 N2563 2.660 . S
Tb2532 N2570 2.600 . S
Tb2532 O2576 2.546 . S
Tb2532 O2577 2.610 . S
Tb2532 O2579 2.320 . S
Tb2532 O2580 2.552 . S
Tb2532 O2581 2.413 . S
Tb2532 O2583 2.362 . S
Tb2532 O2584 2.421 . S
Tb2532 C2596 2.833 . S
C2533 C2536 1.432 . S
C2533 C2537 1.414 . S
C2533 N2540 1.359 . S
C2534 C2536 1.417 . S
C2534 C2538 1.432 . S
C2534 C2546 1.410 . S
C2535 C2537 1.444 . S
C2535 C2538 1.317 . S
C2535 H2558 0.929 . S
C2536 C2533 1.432 . S
C2536 C2534 1.417 . S
C2536 N2544 1.360 . S
C2537 C2533 1.414 . S
C2537 C2535 1.444 . S
C2537 C2542 1.385 . S
C2538 C2534 1.432 . S
C2538 C2535 1.317 . S
C2538 H2550 0.930 . S
C2539 C2541 1.392 . S
C2539 C2542 1.370 . S
C2539 H2551 0.931 . S
N2540 C2533 1.359 . S
N2540 C2541 1.327 . S
N2540 Tb2543 2.600 . S
C2541 C2539 1.392 . S
C2541 N2540 1.327 . S
C2541 H2548 0.930 . S
C2542 C2537 1.385 . S
C2542 C2539 1.370 . S
C2542 H2561 0.930 . S
Tb2543 N2540 2.600 . S
Tb2543 N2544 2.660 . S
Tb2543 O2577 2.362 . S
Tb2543 O2578 2.421 . S
Tb2543 O2582 2.546 . S
Tb2543 O2583 2.610 . S
Tb2543 O2585 2.320 . S
Tb2543 O2586 2.552 . S
Tb2543 O2587 2.413 . S
Tb2543 C2607 2.833 . S
N2544 C2536 1.360 . S
N2544 Tb2543 2.660 . S
N2544 C2545 1.305 . S
C2545 N2544 1.305 . S
C2545 C2547 1.407 . S
C2545 H2552 0.930 . S
C2546 C2534 1.410 . S
C2546 C2547 1.345 . S
C2546 H2554 0.930 . S
C2547 C2545 1.407 . S
C2547 C2546 1.345 . S
C2547 H2549 0.930 . S
H2548 C2541 0.930 . S
H2549 C2547 0.930 . S
H2550 C2538 0.930 . S
H2551 C2539 0.931 . S
H2552 C2545 0.930 . S
H2553 C2567 0.930 . S
H2554 C2546 0.930 . S
H2555 C2573 0.930 . S
H2556 C2564 0.930 . S
H2557 C2571 0.931 . S
H2558 C2535 0.929 . S
H2559 C2565 0.930 . S
H2560 C2598 0.930 . S
H2561 C2542 0.930 . S
H2562 C2597 0.929 . S
N2563 Tb2532 2.660 . S
N2563 C2564 1.305 . S
N2563 C2568 1.360 . S
C2564 H2556 0.930 . S
C2564 N2563 1.305 . S
C2564 C2567 1.407 . S
C2565 H2559 0.930 . S
C2565 C2566 1.410 . S
C2565 C2567 1.345 . S
C2566 C2565 1.410 . S
C2566 C2568 1.417 . S
C2566 C2598 1.432 . S
C2567 H2553 0.930 . S
C2567 C2564 1.407 . S
C2567 C2565 1.345 . S
C2568 N2563 1.360 . S
C2568 C2566 1.417 . S
C2568 C2572 1.432 . S
H2569 C2574 0.930 . S
N2570 Tb2532 2.600 . S
N2570 C2572 1.359 . S
N2570 C2573 1.327 . S
C2571 H2557 0.931 . S
C2571 C2573 1.392 . S
C2571 C2574 1.370 . S
C2572 C2568 1.432 . S
C2572 N2570 1.359 . S
C2572 C2575 1.414 . S
C2573 H2555 0.930 . S
C2573 N2570 1.327 . S
C2573 C2571 1.392 . S
C2574 H2569 0.930 . S
C2574 C2571 1.370 . S
C2574 C2575 1.385 . S
C2575 C2572 1.414 . S
C2575 C2574 1.385 . S
C2575 C2597 1.444 . S
O2576 Tb2532 2.546 . S
O2576 C2596 1.251 . S
O2577 Tb2532 2.610 . S
O2577 Tb2543 2.362 . S
O2577 C2588 1.283 . S
O2578 Tb2543 2.421 . S
O2578 C2595 1.262 . S
O2579 Tb2532 2.320 . S
O2579 C2595 1.260 . S
O2580 Tb2532 2.552 . S
O2580 C2588 1.243 . S
O2581 Tb2532 2.413 . S
O2581 C2596 1.256 . S
O2582 Tb2543 2.546 . S
O2582 C2607 1.251 . S
O2583 Tb2532 2.362 . S
O2583 Tb2543 2.610 . S
O2583 C2599 1.283 . S
O2584 Tb2532 2.421 . S
O2584 C2606 1.262 . S
O2585 Tb2543 2.320 . S
O2585 C2606 1.260 . S
O2586 Tb2543 2.552 . S
O2586 C2599 1.243 . S
O2587 Tb2543 2.413 . S
O2587 C2607 1.256 . S
C2588 O2577 1.283 . S
C2588 O2580 1.243 . S
C2589 C2591 1.382 . S
C2589 C2593 1.393 . S
C2589 C2596 1.500 . S
C2590 C2591 1.400 . S
C2590 C2592 1.384 . S
C2591 C2589 1.382 . S
C2591 C2590 1.400 . S
C2591 H2608 0.930 . S
C2592 C2590 1.384 . S
C2592 C2594 1.392 . S
C2592 H2609 0.931 . S
C2593 C2589 1.393 . S
C2593 C2594 1.401 . S
C2593 H2610 0.930 . S
C2594 C2592 1.392 . S
C2594 C2593 1.401 . S
C2594 H2611 0.930 . S
C2595 O2578 1.262 . S
C2595 O2579 1.260 . S
C2596 Tb2532 2.833 . S
C2596 O2576 1.251 . S
C2596 O2581 1.256 . S
C2596 C2589 1.500 . S
C2597 H2562 0.929 . S
C2597 C2575 1.444 . S
C2597 C2598 1.317 . S
C2598 H2560 0.930 . S
C2598 C2566 1.432 . S
C2598 C2597 1.317 . S
C2599 O2583 1.283 . S
C2599 O2586 1.243 . S
C2600 C2601 1.382 . S
C2600 C2604 1.393 . S
C2600 C2607 1.500 . S
C2601 C2600 1.382 . S
C2601 C2602 1.400 . S
C2601 H2612 0.930 . S
C2602 C2601 1.400 . S
C2602 C2603 1.384 . S
C2603 C2602 1.384 . S
C2603 C2605 1.392 . S
C2603 H2613 0.931 . S
C2604 C2600 1.393 . S
C2604 C2605 1.401 . S
C2604 H2614 0.930 . S
C2605 C2603 1.392 . S
C2605 C2604 1.401 . S
C2605 H2615 0.930 . S
C2606 O2584 1.262 . S
C2606 O2585 1.260 . S
C2607 Tb2543 2.833 . S
C2607 O2582 1.251 . S
C2607 O2587 1.256 . S
C2607 C2600 1.500 . S
H2608 C2591 0.930 . S
H2609 C2592 0.931 . S
H2610 C2593 0.930 . S
H2611 C2594 0.930 . S
H2612 C2601 0.930 . S
H2613 C2603 0.931 . S
H2614 C2604 0.930 . S
H2615 C2605 0.930 . S
Tb2616 N2647 2.660 . S
Tb2616 N2654 2.600 . S
Tb2616 O2660 2.546 . S
Tb2616 O2661 2.610 . S
Tb2616 O2663 2.320 . S
Tb2616 O2664 2.552 . S
Tb2616 O2665 2.413 . S
Tb2616 O2667 2.362 . S
Tb2616 O2668 2.421 . S
Tb2616 C2680 2.833 . S
C2617 C2620 1.432 . S
C2617 C2621 1.414 . S
C2617 N2624 1.359 . S
C2618 C2620 1.417 . S
C2618 C2622 1.432 . S
C2618 C2630 1.410 . S
C2619 C2621 1.444 . S
C2619 C2622 1.317 . S
C2619 H2642 0.929 . S
C2620 C2617 1.432 . S
C2620 C2618 1.417 . S
C2620 N2628 1.360 . S
C2621 C2617 1.414 . S
C2621 C2619 1.444 . S
C2621 C2626 1.385 . S
C2622 C2618 1.432 . S
C2622 C2619 1.317 . S
C2622 H2634 0.930 . S
C2623 C2625 1.392 . S
C2623 C2626 1.370 . S
C2623 H2635 0.931 . S
N2624 C2617 1.359 . S
N2624 C2625 1.327 . S
N2624 Tb2627 2.600 . S
C2625 C2623 1.392 . S
C2625 N2624 1.327 . S
C2625 H2632 0.930 . S
C2626 C2621 1.385 . S
C2626 C2623 1.370 . S
C2626 H2645 0.930 . S
Tb2627 N2624 2.600 . S
Tb2627 N2628 2.660 . S
Tb2627 O2661 2.362 1_556 S
Tb2627 O2662 2.421 1_556 S
Tb2627 O2666 2.546 . S
Tb2627 O2667 2.610 1_556 S
Tb2627 O2669 2.320 . S
Tb2627 O2670 2.552 1_556 S
Tb2627 O2671 2.413 . S
Tb2627 C2691 2.833 . S
N2628 C2620 1.360 . S
N2628 Tb2627 2.660 . S
N2628 C2629 1.305 . S
C2629 N2628 1.305 . S
C2629 C2631 1.407 1_545 S
C2629 H2636 0.930 . S
C2630 C2618 1.410 . S
C2630 C2631 1.345 1_545 S
C2630 H2638 0.930 1_545 S
C2631 C2629 1.407 1_565 S
C2631 C2630 1.345 1_565 S
C2631 H2633 0.930 . S
H2632 C2625 0.930 . S
H2633 C2631 0.930 . S
H2634 C2622 0.930 . S
H2635 C2623 0.931 . S
H2636 C2629 0.930 . S
H2637 C2651 0.930 . S
H2638 C2630 0.930 1_565 S
H2639 C2657 0.930 1_565 S
H2640 C2648 0.930 . S
H2641 C2655 0.931 . S
H2642 C2619 0.929 . S
H2643 C2649 0.930 . S
H2644 C2682 0.930 . S
H2645 C2626 0.930 . S
H2646 C2681 0.929 . S
N2647 Tb2616 2.660 . S
N2647 C2648 1.305 . S
N2647 C2652 1.360 . S
C2648 H2640 0.930 . S
C2648 N2647 1.305 . S
C2648 C2651 1.407 . S
C2649 H2643 0.930 . S
C2649 C2650 1.410 . S
C2649 C2651 1.345 . S
C2650 C2649 1.410 . S
C2650 C2652 1.417 . S
C2650 C2682 1.432 . S
C2651 H2637 0.930 . S
C2651 C2648 1.407 . S
C2651 C2649 1.345 . S
C2652 N2647 1.360 . S
C2652 C2650 1.417 . S
C2652 C2656 1.432 . S
H2653 C2658 0.930 1_565 S
N2654 Tb2616 2.600 . S
N2654 C2656 1.359 . S
N2654 C2657 1.327 . S
C2655 H2641 0.931 . S
C2655 C2657 1.392 1_565 S
C2655 C2658 1.370 1_565 S
C2656 C2652 1.432 . S
C2656 N2654 1.359 . S
C2656 C2659 1.414 . S
C2657 H2639 0.930 1_545 S
C2657 N2654 1.327 . S
C2657 C2655 1.392 1_545 S
C2658 H2653 0.930 1_545 S
C2658 C2655 1.370 1_545 S
C2658 C2659 1.385 . S
C2659 C2656 1.414 . S
C2659 C2658 1.385 . S
C2659 C2681 1.444 . S
O2660 Tb2616 2.546 . S
O2660 C2680 1.251 . S
O2661 Tb2616 2.610 . S
O2661 Tb2627 2.362 1_554 S
O2661 C2672 1.283 . S
O2662 Tb2627 2.421 1_554 S
O2662 C2679 1.262 . S
O2663 Tb2616 2.320 . S
O2663 C2679 1.260 . S
O2664 Tb2616 2.552 . S
O2664 C2672 1.243 . S
O2665 Tb2616 2.413 . S
O2665 C2680 1.256 . S
O2666 Tb2627 2.546 . S
O2666 C2691 1.251 . S
O2667 Tb2616 2.362 . S
O2667 Tb2627 2.610 1_554 S
O2667 C2683 1.283 . S
O2668 Tb2616 2.421 . S
O2668 C2690 1.262 . S
O2669 Tb2627 2.320 . S
O2669 C2690 1.260 1_556 S
O2670 Tb2627 2.552 1_554 S
O2670 C2683 1.243 . S
O2671 Tb2627 2.413 . S
O2671 C2691 1.256 . S
C2672 O2661 1.283 . S
C2672 O2664 1.243 . S
C2673 C2675 1.382 . S
C2673 C2677 1.393 . S
C2673 C2680 1.500 . S
C2674 C2675 1.400 . S
C2674 C2676 1.384 . S
C2675 C2673 1.382 . S
C2675 C2674 1.400 . S
C2675 H2692 0.930 . S
C2676 C2674 1.384 . S
C2676 C2678 1.392 . S
C2676 H2693 0.931 . S
C2677 C2673 1.393 . S
C2677 C2678 1.401 . S
C2677 H2694 0.930 1_545 S
C2678 C2676 1.392 . S
C2678 C2677 1.401 . S
C2678 H2695 0.930 1_545 S
C2679 O2662 1.262 . S
C2679 O2663 1.260 . S
C2680 Tb2616 2.833 . S
C2680 O2660 1.251 . S
C2680 O2665 1.256 . S
C2680 C2673 1.500 . S
C2681 H2646 0.929 . S
C2681 C2659 1.444 . S
C2681 C2682 1.317 . S
C2682 H2644 0.930 . S
C2682 C2650 1.432 . S
C2682 C2681 1.317 . S
C2683 O2667 1.283 . S
C2683 O2670 1.243 . S
C2684 C2685 1.382 . S
C2684 C2688 1.393 . S
C2684 C2691 1.500 . S
C2685 C2684 1.382 . S
C2685 C2686 1.400 . S
C2685 H2696 0.930 . S
C2686 C2685 1.400 . S
C2686 C2687 1.384 . S
C2687 C2686 1.384 . S
C2687 C2689 1.392 . S
C2687 H2697 0.931 . S
C2688 C2684 1.393 . S
C2688 C2689 1.401 . S
C2688 H2698 0.930 . S
C2689 C2687 1.392 . S
C2689 C2688 1.401 . S
C2689 H2699 0.930 . S
C2690 O2668 1.262 . S
C2690 O2669 1.260 1_554 S
C2691 Tb2627 2.833 . S
C2691 O2666 1.251 . S
C2691 O2671 1.256 . S
C2691 C2684 1.500 . S
H2692 C2675 0.930 . S
H2693 C2676 0.931 . S
H2694 C2677 0.930 1_565 S
H2695 C2678 0.930 1_565 S
H2696 C2685 0.930 . S
H2697 C2687 0.931 . S
H2698 C2688 0.930 . S
H2699 C2689 0.930 . S
Tb2700 N2731 2.660 . S
Tb2700 N2738 2.600 . S
Tb2700 O2744 2.546 . S
Tb2700 O2745 2.610 . S
Tb2700 O2747 2.320 . S
Tb2700 O2748 2.552 . S
Tb2700 O2749 2.413 . S
Tb2700 O2751 2.362 . S
Tb2700 O2752 2.421 . S
Tb2700 C2764 2.833 . S
C2701 C2704 1.432 . S
C2701 C2705 1.414 . S
C2701 N2708 1.359 . S
C2702 C2704 1.417 . S
C2702 C2706 1.432 . S
C2702 C2714 1.410 . S
C2703 C2705 1.444 . S
C2703 C2706 1.317 . S
C2703 H2726 0.929 . S
C2704 C2701 1.432 . S
C2704 C2702 1.417 . S
C2704 N2712 1.360 . S
C2705 C2701 1.414 . S
C2705 C2703 1.444 . S
C2705 C2710 1.385 . S
C2706 C2702 1.432 . S
C2706 C2703 1.317 . S
C2706 H2718 0.930 . S
C2707 C2709 1.392 . S
C2707 C2710 1.370 . S
C2707 H2719 0.931 . S
N2708 C2701 1.359 . S
N2708 C2709 1.327 . S
N2708 Tb2711 2.600 . S
C2709 C2707 1.392 . S
C2709 N2708 1.327 . S
C2709 H2716 0.930 . S
C2710 C2705 1.385 . S
C2710 C2707 1.370 . S
C2710 H2729 0.930 . S
Tb2711 N2708 2.600 . S
Tb2711 N2712 2.660 . S
Tb2711 O2745 2.362 . S
Tb2711 O2746 2.421 . S
Tb2711 O2750 2.546 . S
Tb2711 O2751 2.610 . S
Tb2711 O2753 2.320 . S
Tb2711 O2754 2.552 . S
Tb2711 O2755 2.413 . S
Tb2711 C2775 2.833 . S
N2712 C2704 1.360 . S
N2712 Tb2711 2.660 . S
N2712 C2713 1.305 . S
C2713 N2712 1.305 . S
C2713 C2715 1.407 . S
C2713 H2720 0.930 . S
C2714 C2702 1.410 . S
C2714 C2715 1.345 . S
C2714 H2722 0.930 . S
C2715 C2713 1.407 . S
C2715 C2714 1.345 . S
C2715 H2717 0.930 . S
H2716 C2709 0.930 . S
H2717 C2715 0.930 . S
H2718 C2706 0.930 . S
H2719 C2707 0.931 . S
H2720 C2713 0.930 . S
H2721 C2735 0.930 . S
H2722 C2714 0.930 . S
H2723 C2741 0.930 . S
H2724 C2732 0.930 . S
H2725 C2739 0.931 . S
H2726 C2703 0.929 . S
H2727 C2733 0.930 . S
H2728 C2766 0.930 . S
H2729 C2710 0.930 . S
H2730 C2765 0.929 . S
N2731 Tb2700 2.660 . S
N2731 C2732 1.305 . S
N2731 C2736 1.360 . S
C2732 H2724 0.930 . S
C2732 N2731 1.305 . S
C2732 C2735 1.407 . S
C2733 H2727 0.930 . S
C2733 C2734 1.410 . S
C2733 C2735 1.345 . S
C2734 C2733 1.410 . S
C2734 C2736 1.417 . S
C2734 C2766 1.432 . S
C2735 H2721 0.930 . S
C2735 C2732 1.407 . S
C2735 C2733 1.345 . S
C2736 N2731 1.360 . S
C2736 C2734 1.417 . S
C2736 C2740 1.432 . S
H2737 C2742 0.930 . S
N2738 Tb2700 2.600 . S
N2738 C2740 1.359 . S
N2738 C2741 1.327 . S
C2739 H2725 0.931 . S
C2739 C2741 1.392 . S
C2739 C2742 1.370 . S
C2740 C2736 1.432 . S
C2740 N2738 1.359 . S
C2740 C2743 1.414 . S
C2741 H2723 0.930 . S
C2741 N2738 1.327 . S
C2741 C2739 1.392 . S
C2742 H2737 0.930 . S
C2742 C2739 1.370 . S
C2742 C2743 1.385 . S
C2743 C2740 1.414 . S
C2743 C2742 1.385 . S
C2743 C2765 1.444 . S
O2744 Tb2700 2.546 . S
O2744 C2764 1.251 . S
O2745 Tb2700 2.610 . S
O2745 Tb2711 2.362 . S
O2745 C2756 1.283 . S
O2746 Tb2711 2.421 . S
O2746 C2763 1.262 . S
O2747 Tb2700 2.320 . S
O2747 C2763 1.260 . S
O2748 Tb2700 2.552 . S
O2748 C2756 1.243 . S
O2749 Tb2700 2.413 . S
O2749 C2764 1.256 . S
O2750 Tb2711 2.546 . S
O2750 C2775 1.251 . S
O2751 Tb2700 2.362 . S
O2751 Tb2711 2.610 . S
O2751 C2767 1.283 . S
O2752 Tb2700 2.421 . S
O2752 C2774 1.262 . S
O2753 Tb2711 2.320 . S
O2753 C2774 1.260 . S
O2754 Tb2711 2.552 . S
O2754 C2767 1.243 . S
O2755 Tb2711 2.413 . S
O2755 C2775 1.256 . S
C2756 O2745 1.283 . S
C2756 O2748 1.243 . S
C2757 C2759 1.382 . S
C2757 C2761 1.393 . S
C2757 C2764 1.500 . S
C2758 C2759 1.400 . S
C2758 C2760 1.384 . S
C2759 C2757 1.382 . S
C2759 C2758 1.400 . S
C2759 H2776 0.930 . S
C2760 C2758 1.384 . S
C2760 C2762 1.392 . S
C2760 H2777 0.931 . S
C2761 C2757 1.393 . S
C2761 C2762 1.401 . S
C2761 H2778 0.930 . S
C2762 C2760 1.392 . S
C2762 C2761 1.401 . S
C2762 H2779 0.930 . S
C2763 O2746 1.262 . S
C2763 O2747 1.260 . S
C2764 Tb2700 2.833 . S
C2764 O2744 1.251 . S
C2764 O2749 1.256 . S
C2764 C2757 1.500 . S
C2765 H2730 0.929 . S
C2765 C2743 1.444 . S
C2765 C2766 1.317 . S
C2766 H2728 0.930 . S
C2766 C2734 1.432 . S
C2766 C2765 1.317 . S
C2767 O2751 1.283 . S
C2767 O2754 1.243 . S
C2768 C2769 1.382 . S
C2768 C2772 1.393 . S
C2768 C2775 1.500 . S
C2769 C2768 1.382 . S
C2769 C2770 1.400 . S
C2769 H2780 0.930 . S
C2770 C2769 1.400 . S
C2770 C2771 1.384 . S
C2771 C2770 1.384 . S
C2771 C2773 1.392 . S
C2771 H2781 0.931 . S
C2772 C2768 1.393 . S
C2772 C2773 1.401 . S
C2772 H2782 0.930 . S
C2773 C2771 1.392 . S
C2773 C2772 1.401 . S
C2773 H2783 0.930 . S
C2774 O2752 1.262 . S
C2774 O2753 1.260 . S
C2775 Tb2711 2.833 . S
C2775 O2750 1.251 . S
C2775 O2755 1.256 . S
C2775 C2768 1.500 . S
H2776 C2759 0.930 . S
H2777 C2760 0.931 . S
H2778 C2761 0.930 . S
H2779 C2762 0.930 . S
H2780 C2769 0.930 . S
H2781 C2771 0.931 . S
H2782 C2772 0.930 . S
H2783 C2773 0.930 . S
Tb2784 N2815 2.660 . S
Tb2784 N2822 2.600 . S
Tb2784 O2828 2.546 . S
Tb2784 O2829 2.639 . S
Tb2784 O2831 2.320 . S
Tb2784 O2832 2.552 1_554 S
Tb2784 O2833 2.413 . S
Tb2784 O2835 2.362 . S
Tb2784 O2836 2.421 . S
Tb2784 C2848 2.833 . S
C2785 C2788 1.432 . S
C2785 C2789 1.414 . S
C2785 N2792 1.359 . S
C2786 C2788 1.417 . S
C2786 C2790 1.432 . S
C2786 C2798 1.410 . S
C2787 C2789 1.444 . S
C2787 C2790 1.317 . S
C2787 H2810 0.929 . S
C2788 C2785 1.432 . S
C2788 C2786 1.417 . S
C2788 N2796 1.360 . S
C2789 C2785 1.414 . S
C2789 C2787 1.444 . S
C2789 C2794 1.385 . S
C2790 C2786 1.432 . S
C2790 C2787 1.317 . S
C2790 H2802 0.930 . S
C2791 C2793 1.392 . S
C2791 C2794 1.370 . S
C2791 H2803 0.931 . S
N2792 C2785 1.359 . S
N2792 C2793 1.327 . S
N2792 Tb2795 2.600 1_556 S
C2793 C2791 1.392 . S
C2793 N2792 1.327 . S
C2793 H2800 0.930 . S
C2794 C2789 1.385 . S
C2794 C2791 1.370 . S
C2794 H2813 0.930 . S
Tb2795 N2792 2.600 1_554 S
Tb2795 N2796 2.660 1_554 S
Tb2795 O2829 2.385 . S
Tb2795 O2830 2.421 . S
Tb2795 O2834 2.546 . S
Tb2795 O2835 2.610 . S
Tb2795 O2837 2.320 . S
Tb2795 O2838 2.552 . S
Tb2795 O2839 2.413 . S
Tb2795 C2859 2.833 . S
N2796 C2788 1.360 . S
N2796 Tb2795 2.660 1_556 S
N2796 C2797 1.305 . S
C2797 N2796 1.305 . S
C2797 C2799 1.407 . S
C2797 H2804 0.930 . S
C2798 C2786 1.410 . S
C2798 C2799 1.345 . S
C2798 H2806 0.930 . S
C2799 C2797 1.407 . S
C2799 C2798 1.345 . S
C2799 H2801 0.930 . S
H2800 C2793 0.930 . S
H2801 C2799 0.930 . S
H2802 C2790 0.930 . S
H2803 C2791 0.931 . S
H2804 C2797 0.930 . S
H2805 C2819 0.930 . S
H2806 C2798 0.930 . S
H2807 C2825 0.930 . S
H2808 C2816 0.930 . S
H2809 C2823 0.931 . S
H2810 C2787 0.929 . S
H2811 C2817 0.930 . S
H2812 C2850 0.930 . S
H2813 C2794 0.930 . S
H2814 C2849 0.929 . S
N2815 Tb2784 2.660 . S
N2815 C2816 1.305 . S
N2815 C2820 1.360 . S
C2816 H2808 0.930 . S
C2816 N2815 1.305 . S
C2816 C2819 1.407 . S
C2817 H2811 0.930 . S
C2817 C2818 1.410 . S
C2817 C2819 1.345 . S
C2818 C2817 1.410 . S
C2818 C2820 1.417 . S
C2818 C2850 1.432 . S
C2819 H2805 0.930 . S
C2819 C2816 1.407 . S
C2819 C2817 1.345 . S
C2820 N2815 1.360 . S
C2820 C2818 1.417 . S
C2820 C2824 1.432 . S
H2821 C2826 0.930 . S
N2822 Tb2784 2.600 . S
N2822 C2824 1.359 . S
N2822 C2825 1.327 . S
C2823 H2809 0.931 . S
C2823 C2825 1.392 . S
C2823 C2826 1.370 . S
C2824 C2820 1.432 . S
C2824 N2822 1.359 . S
C2824 C2827 1.414 . S
C2825 H2807 0.930 . S
C2825 N2822 1.327 . S
C2825 C2823 1.392 . S
C2826 H2821 0.930 . S
C2826 C2823 1.370 . S
C2826 C2827 1.385 . S
C2827 C2824 1.414 . S
C2827 C2826 1.385 . S
C2827 C2849 1.444 . S
O2828 Tb2784 2.546 . S
O2828 C2848 1.251 . S
O2829 Tb2784 2.639 . S
O2829 Tb2795 2.385 . S
O2829 C2840 1.250 1_554 S
O2830 Tb2795 2.421 . S
O2830 C2847 1.262 . S
O2831 Tb2784 2.320 . S
O2831 C2847 1.260 . S
O2832 Tb2784 2.552 1_556 S
O2832 C2840 1.243 . S
O2833 Tb2784 2.413 . S
O2833 C2848 1.256 . S
O2834 Tb2795 2.546 . S
O2834 C2859 1.251 . S
O2835 Tb2784 2.362 . S
O2835 Tb2795 2.610 . S
O2835 C2851 1.283 . S
O2836 Tb2784 2.421 . S
O2836 C2858 1.262 . S
O2837 Tb2795 2.320 . S
O2837 C2858 1.260 . S
O2838 Tb2795 2.552 . S
O2838 C2851 1.243 . S
O2839 Tb2795 2.413 . S
O2839 C2859 1.256 . S
C2840 O2829 1.250 1_556 S
C2840 O2832 1.243 . S
C2841 C2843 1.382 . S
C2841 C2845 1.393 . S
C2841 C2848 1.500 . S
C2842 C2843 1.429 . S
C2842 C2844 1.401 . S
C2843 C2841 1.382 . S
C2843 C2842 1.429 . S
C2843 H2860 0.930 . S
C2844 C2842 1.401 . S
C2844 C2846 1.392 . S
C2844 H2861 0.931 . S
C2845 C2841 1.393 . S
C2845 C2846 1.401 . S
C2845 H2862 0.930 . S
C2846 C2844 1.392 . S
C2846 C2845 1.401 . S
C2846 H2863 0.930 . S
C2847 O2830 1.262 . S
C2847 O2831 1.260 . S
C2848 Tb2784 2.833 . S
C2848 O2828 1.251 . S
C2848 O2833 1.256 . S
C2848 C2841 1.500 . S
C2849 H2814 0.929 . S
C2849 C2827 1.444 . S
C2849 C2850 1.317 . S
C2850 H2812 0.930 . S
C2850 C2818 1.432 . S
C2850 C2849 1.317 . S
C2851 O2835 1.283 . S
C2851 O2838 1.243 . S
C2852 C2853 1.382 . S
C2852 C2856 1.393 . S
C2852 C2859 1.500 . S
C2853 C2852 1.382 . S
C2853 C2854 1.400 . S
C2853 H2864 0.930 . S
C2854 C2853 1.400 . S
C2854 C2855 1.384 . S
C2855 C2854 1.384 . S
C2855 C2857 1.392 . S
C2855 H2865 0.931 . S
C2856 C2852 1.393 . S
C2856 C2857 1.401 . S
C2856 H2866 0.930 . S
C2857 C2855 1.392 . S
C2857 C2856 1.401 . S
C2857 H2867 0.930 . S
C2858 O2836 1.262 . S
C2858 O2837 1.260 . S
C2859 Tb2795 2.833 . S
C2859 O2834 1.251 . S
C2859 O2839 1.256 . S
C2859 C2852 1.500 . S
H2860 C2843 0.930 . S
H2861 C2844 0.931 . S
H2862 C2845 0.930 . S
H2863 C2846 0.930 . S
H2864 C2853 0.930 . S
H2865 C2855 0.931 . S
H2866 C2856 0.930 . S
H2867 C2857 0.930 . S
Tb2868 N2899 2.660 . S
Tb2868 N2906 2.600 . S
Tb2868 O2912 2.546 . S
Tb2868 O2913 2.610 . S
Tb2868 O2915 2.320 . S
Tb2868 O2916 2.552 . S
Tb2868 O2917 2.413 . S
Tb2868 O2919 2.362 . S
Tb2868 O2920 2.421 . S
Tb2868 C2932 2.833 . S
C2869 C2872 1.432 . S
C2869 C2873 1.414 . S
C2869 N2876 1.359 . S
C2870 C2872 1.417 . S
C2870 C2874 1.432 . S
C2870 C2882 1.410 . S
C2871 C2873 1.444 . S
C2871 C2874 1.317 . S
C2871 H2894 0.929 . S
C2872 C2869 1.432 . S
C2872 C2870 1.417 . S
C2872 N2880 1.360 . S
C2873 C2869 1.414 . S
C2873 C2871 1.444 . S
C2873 C2878 1.385 . S
C2874 C2870 1.432 . S
C2874 C2871 1.317 . S
C2874 H2886 0.930 . S
C2875 C2877 1.392 . S
C2875 C2878 1.370 . S
C2875 H2887 0.931 . S
N2876 C2869 1.359 . S
N2876 C2877 1.327 . S
N2876 Tb2879 2.600 . S
C2877 C2875 1.392 . S
C2877 N2876 1.327 . S
C2877 H2884 0.930 . S
C2878 C2873 1.385 . S
C2878 C2875 1.370 . S
C2878 H2897 0.930 . S
Tb2879 N2876 2.600 . S
Tb2879 N2880 2.660 . S
Tb2879 O2913 2.362 . S
Tb2879 O2914 2.421 . S
Tb2879 O2918 2.546 . S
Tb2879 O2919 2.610 . S
Tb2879 O2921 2.320 . S
Tb2879 O2922 2.552 . S
Tb2879 O2923 2.413 . S
Tb2879 C2943 2.833 . S
N2880 C2872 1.360 . S
N2880 Tb2879 2.660 . S
N2880 C2881 1.305 . S
C2881 N2880 1.305 . S
C2881 C2883 1.407 . S
C2881 H2888 0.930 . S
C2882 C2870 1.410 . S
C2882 C2883 1.345 . S
C2882 H2890 0.930 . S
C2883 C2881 1.407 . S
C2883 C2882 1.345 . S
C2883 H2885 0.930 . S
H2884 C2877 0.930 . S
H2885 C2883 0.930 . S
H2886 C2874 0.930 . S
H2887 C2875 0.931 . S
H2888 C2881 0.930 . S
H2889 C2903 0.930 . S
H2890 C2882 0.930 . S
H2891 C2909 0.930 . S
H2892 C2900 0.930 . S
H2893 C2907 0.931 . S
H2894 C2871 0.929 . S
H2895 C2901 0.930 . S
H2896 C2934 0.930 . S
H2897 C2878 0.930 . S
H2898 C2933 0.929 . S
N2899 Tb2868 2.660 . S
N2899 C2900 1.305 . S
N2899 C2904 1.360 . S
C2900 H2892 0.930 . S
C2900 N2899 1.305 . S
C2900 C2903 1.407 . S
C2901 H2895 0.930 . S
C2901 C2902 1.410 . S
C2901 C2903 1.345 . S
C2902 C2901 1.410 . S
C2902 C2904 1.417 . S
C2902 C2934 1.432 . S
C2903 H2889 0.930 . S
C2903 C2900 1.407 . S
C2903 C2901 1.345 . S
C2904 N2899 1.360 . S
C2904 C2902 1.417 . S
C2904 C2908 1.432 . S
H2905 C2910 0.930 . S
N2906 Tb2868 2.600 . S
N2906 C2908 1.359 . S
N2906 C2909 1.327 . S
C2907 H2893 0.931 . S
C2907 C2909 1.392 . S
C2907 C2910 1.370 . S
C2908 C2904 1.432 . S
C2908 N2906 1.359 . S
C2908 C2911 1.414 . S
C2909 H2891 0.930 . S
C2909 N2906 1.327 . S
C2909 C2907 1.392 . S
C2910 H2905 0.930 . S
C2910 C2907 1.370 . S
C2910 C2911 1.385 . S
C2911 C2908 1.414 . S
C2911 C2910 1.385 . S
C2911 C2933 1.444 . S
O2912 Tb2868 2.546 . S
O2912 C2932 1.251 . S
O2913 Tb2868 2.610 . S
O2913 Tb2879 2.362 . S
O2913 C2924 1.283 . S
O2914 Tb2879 2.421 . S
O2914 C2931 1.262 . S
O2915 Tb2868 2.320 . S
O2915 C2931 1.260 . S
O2916 Tb2868 2.552 . S
O2916 C2924 1.243 . S
O2917 Tb2868 2.413 . S
O2917 C2932 1.256 . S
O2918 Tb2879 2.546 . S
O2918 C2943 1.251 . S
O2919 Tb2868 2.362 . S
O2919 Tb2879 2.610 . S
O2919 C2935 1.283 . S
O2920 Tb2868 2.421 . S
O2920 C2942 1.262 . S
O2921 Tb2879 2.320 . S
O2921 C2942 1.260 . S
O2922 Tb2879 2.552 . S
O2922 C2935 1.243 . S
O2923 Tb2879 2.413 . S
O2923 C2943 1.256 . S
C2924 O2913 1.283 . S
C2924 O2916 1.243 . S
C2925 C2927 1.382 . S
C2925 C2929 1.393 . S
C2925 C2932 1.500 . S
C2926 C2927 1.400 . S
C2926 C2928 1.384 . S
C2927 C2925 1.382 . S
C2927 C2926 1.400 . S
C2927 H2944 0.930 . S
C2928 C2926 1.384 . S
C2928 C2930 1.392 . S
C2928 H2945 0.931 . S
C2929 C2925 1.393 . S
C2929 C2930 1.401 . S
C2929 H2946 0.930 . S
C2930 C2928 1.392 . S
C2930 C2929 1.401 . S
C2930 H2947 0.930 . S
C2931 O2914 1.262 . S
C2931 O2915 1.260 . S
C2932 Tb2868 2.833 . S
C2932 O2912 1.251 . S
C2932 O2917 1.256 . S
C2932 C2925 1.500 . S
C2933 H2898 0.929 . S
C2933 C2911 1.444 . S
C2933 C2934 1.317 . S
C2934 H2896 0.930 . S
C2934 C2902 1.432 . S
C2934 C2933 1.317 . S
C2935 O2919 1.283 . S
C2935 O2922 1.243 . S
C2936 C2937 1.382 . S
C2936 C2940 1.393 . S
C2936 C2943 1.500 . S
C2937 C2936 1.382 . S
C2937 C2938 1.400 . S
C2937 H2948 0.930 . S
C2938 C2937 1.400 . S
C2938 C2939 1.384 . S
C2939 C2938 1.384 . S
C2939 C2941 1.392 . S
C2939 H2949 0.931 . S
C2940 C2936 1.393 . S
C2940 C2941 1.401 . S
C2940 H2950 0.930 . S
C2941 C2939 1.392 . S
C2941 C2940 1.401 . S
C2941 H2951 0.930 . S
C2942 O2920 1.262 . S
C2942 O2921 1.260 . S
C2943 Tb2879 2.833 . S
C2943 O2918 1.251 . S
C2943 O2923 1.256 . S
C2943 C2936 1.500 . S
H2944 C2927 0.930 . S
H2945 C2928 0.931 . S
H2946 C2929 0.930 . S
H2947 C2930 0.930 . S
H2948 C2937 0.930 . S
H2949 C2939 0.931 . S
H2950 C2940 0.930 . S
H2951 C2941 0.930 . S
Tb2952 N2983 2.660 . S
Tb2952 N2990 2.600 . S
Tb2952 O2996 2.546 . S
Tb2952 O2997 2.610 . S
Tb2952 O2999 2.320 . S
Tb2952 O3000 2.552 . S
Tb2952 O3001 2.413 . S
Tb2952 O3003 2.362 . S
Tb2952 O3004 2.421 . S
Tb2952 C3016 2.833 . S
C2953 C2956 1.432 . S
C2953 C2957 1.414 1_455 S
C2953 N2960 1.359 . S
C2954 C2956 1.417 1_655 S
C2954 C2958 1.432 . S
C2954 C2966 1.410 . S
C2955 C2957 1.444 . S
C2955 C2958 1.317 . S
C2955 H2978 0.929 . S
C2956 C2953 1.432 . S
C2956 C2954 1.417 1_455 S
C2956 N2964 1.360 . S
C2957 C2953 1.414 1_655 S
C2957 C2955 1.444 . S
C2957 C2962 1.385 . S
C2958 C2954 1.432 . S
C2958 C2955 1.317 . S
C2958 H2970 0.930 . S
C2959 C2961 1.392 . S
C2959 C2962 1.370 1_455 S
C2959 H2971 0.931 . S
N2960 C2953 1.359 . S
N2960 C2961 1.327 . S
N2960 Tb2963 2.600 . S
C2961 C2959 1.392 . S
C2961 N2960 1.327 . S
C2961 H2968 0.930 . S
C2962 C2957 1.385 . S
C2962 C2959 1.370 1_655 S
C2962 H2981 0.930 . S
Tb2963 N2960 2.600 . S
Tb2963 N2964 2.660 . S
Tb2963 O2997 2.362 . S
Tb2963 O2998 2.421 . S
Tb2963 O3002 2.546 . S
Tb2963 O3003 2.610 . S
Tb2963 O3005 2.320 . S
Tb2963 O3006 2.552 . S
Tb2963 O3007 2.413 . S
Tb2963 C3027 2.833 . S
N2964 C2956 1.360 . S
N2964 Tb2963 2.660 . S
N2964 C2965 1.305 . S
C2965 N2964 1.305 . S
C2965 C2967 1.407 . S
C2965 H2972 0.930 . S
C2966 C2954 1.410 . S
C2966 C2967 1.345 1_655 S
C2966 H2974 0.930 . S
C2967 C2965 1.407 . S
C2967 C2966 1.345 1_455 S
C2967 H2969 0.926 . S
H2968 C2961 0.930 . S
H2969 C2967 0.926 . S
H2970 C2958 0.930 . S
H2971 C2959 0.931 . S
H2972 C2965 0.930 . S
H2973 C2987 0.930 . S
H2974 C2966 0.930 . S
H2975 C2993 0.930 . S
H2976 C2984 0.930 . S
H2977 C2991 0.931 . S
H2978 C2955 0.929 . S
H2979 C2985 0.930 . S
H2980 C3018 0.930 . S
H2981 C2962 0.930 . S
H2982 C3017 0.929 . S
N2983 Tb2952 2.660 . S
N2983 C2984 1.305 . S
N2983 C2988 1.360 . S
C2984 H2976 0.930 . S
C2984 N2983 1.305 . S
C2984 C2987 1.407 . S
C2985 H2979 0.930 . S
C2985 C2986 1.410 . S
C2985 C2987 1.345 . S
C2986 C2985 1.410 . S
C2986 C2988 1.417 . S
C2986 C3018 1.432 . S
C2987 H2973 0.930 . S
C2987 C2984 1.407 . S
C2987 C2985 1.345 . S
C2988 N2983 1.360 . S
C2988 C2986 1.417 . S
C2988 C2992 1.432 . S
H2989 C2994 0.930 . S
N2990 Tb2952 2.600 . S
N2990 C2992 1.359 . S
N2990 C2993 1.327 . S
C2991 H2977 0.931 . S
C2991 C2993 1.392 . S
C2991 C2994 1.370 . S
C2992 C2988 1.432 . S
C2992 N2990 1.359 . S
C2992 C2995 1.414 . S
C2993 H2975 0.930 . S
C2993 N2990 1.327 . S
C2993 C2991 1.392 . S
C2994 H2989 0.930 . S
C2994 C2991 1.370 . S
C2994 C2995 1.385 . S
C2995 C2992 1.414 . S
C2995 C2994 1.385 . S
C2995 C3017 1.444 . S
O2996 Tb2952 2.546 . S
O2996 C3016 1.251 . S
O2997 Tb2952 2.610 . S
O2997 Tb2963 2.362 . S
O2997 C3008 1.283 . S
O2998 Tb2963 2.421 . S
O2998 C3015 1.262 . S
O2999 Tb2952 2.320 . S
O2999 C3015 1.260 . S
O3000 Tb2952 2.552 . S
O3000 C3008 1.243 . S
O3001 Tb2952 2.413 . S
O3001 C3016 1.256 . S
O3002 Tb2963 2.546 . S
O3002 C3027 1.251 . S
O3003 Tb2952 2.362 . S
O3003 Tb2963 2.610 . S
O3003 C3019 1.283 . S
O3004 Tb2952 2.421 . S
O3004 C3026 1.262 . S
O3005 Tb2963 2.320 . S
O3005 C3026 1.260 . S
O3006 Tb2963 2.552 . S
O3006 C3019 1.243 . S
O3007 Tb2963 2.413 . S
O3007 C3027 1.256 . S
C3008 O2997 1.283 . S
C3008 O3000 1.243 . S
C3009 C3011 1.382 . S
C3009 C3013 1.393 . S
C3009 C3016 1.500 . S
C3010 C3011 1.400 . S
C3010 C3012 1.384 . S
C3011 C3009 1.382 . S
C3011 C3010 1.400 . S
C3011 H3028 0.930 . S
C3012 C3010 1.384 . S
C3012 C3014 1.392 . S
C3012 H3029 0.931 . S
C3013 C3009 1.393 . S
C3013 C3014 1.401 . S
C3013 H3030 0.930 . S
C3014 C3012 1.392 . S
C3014 C3013 1.401 . S
C3014 H3031 0.930 . S
C3015 O2998 1.262 . S
C3015 O2999 1.260 . S
C3016 Tb2952 2.833 . S
C3016 O2996 1.251 . S
C3016 O3001 1.256 . S
C3016 C3009 1.500 . S
C3017 H2982 0.929 . S
C3017 C2995 1.444 . S
C3017 C3018 1.317 . S
C3018 H2980 0.930 . S
C3018 C2986 1.432 . S
C3018 C3017 1.317 . S
C3019 O3003 1.283 . S
C3019 O3006 1.243 . S
C3020 C3021 1.382 . S
C3020 C3024 1.393 . S
C3020 C3027 1.500 . S
C3021 C3020 1.382 . S
C3021 C3022 1.400 . S
C3021 H3032 0.930 . S
C3022 C3021 1.400 . S
C3022 C3023 1.384 . S
C3023 C3022 1.384 . S
C3023 C3025 1.392 . S
C3023 H3033 0.931 . S
C3024 C3020 1.393 . S
C3024 C3025 1.401 . S
C3024 H3034 0.930 . S
C3025 C3023 1.392 . S
C3025 C3024 1.401 . S
C3025 H3035 0.930 . S
C3026 O3004 1.262 . S
C3026 O3005 1.260 . S
C3027 Tb2963 2.833 . S
C3027 O3002 1.251 . S
C3027 O3007 1.256 . S
C3027 C3020 1.500 . S
H3028 C3011 0.930 . S
H3029 C3012 0.931 . S
H3030 C3013 0.930 . S
H3031 C3014 0.930 . S
H3032 C3021 0.930 . S
H3033 C3023 0.931 . S
H3034 C3024 0.930 . S
H3035 C3025 0.930 . S
Tb3036 N3067 2.660 . S
Tb3036 N3074 2.600 . S
Tb3036 O3080 2.546 . S
Tb3036 O3081 2.610 . S
Tb3036 O3083 2.320 . S
Tb3036 O3084 2.552 . S
Tb3036 O3085 2.413 . S
Tb3036 O3087 2.362 . S
Tb3036 O3088 2.421 . S
Tb3036 C3100 2.833 . S
C3037 C3040 1.432 . S
C3037 C3041 1.414 . S
C3037 N3044 1.359 . S
C3038 C3040 1.417 . S
C3038 C3042 1.432 . S
C3038 C3050 1.410 . S
C3039 C3041 1.444 . S
C3039 C3042 1.317 . S
C3039 H3062 0.929 . S
C3040 C3037 1.432 . S
C3040 C3038 1.417 . S
C3040 N3048 1.360 . S
C3041 C3037 1.414 . S
C3041 C3039 1.444 . S
C3041 C3046 1.385 . S
C3042 C3038 1.432 . S
C3042 C3039 1.317 . S
C3042 H3054 0.930 . S
C3043 C3045 1.392 . S
C3043 C3046 1.370 . S
C3043 H3055 0.931 . S
N3044 C3037 1.359 . S
N3044 C3045 1.327 . S
N3044 Tb3047 2.600 . S
C3045 C3043 1.392 . S
C3045 N3044 1.327 . S
C3045 H3052 0.930 . S
C3046 C3041 1.385 . S
C3046 C3043 1.370 . S
C3046 H3065 0.930 . S
Tb3047 N3044 2.600 . S
Tb3047 N3048 2.660 . S
Tb3047 O3081 2.362 . S
Tb3047 O3082 2.421 . S
Tb3047 O3086 2.546 . S
Tb3047 O3087 2.610 . S
Tb3047 O3089 2.320 . S
Tb3047 O3090 2.552 . S
Tb3047 O3091 2.413 . S
Tb3047 C3111 2.833 . S
N3048 C3040 1.360 . S
N3048 Tb3047 2.660 . S
N3048 C3049 1.305 . S
C3049 N3048 1.305 . S
C3049 C3051 1.407 . S
C3049 H3056 0.930 . S
C3050 C3038 1.410 . S
C3050 C3051 1.345 . S
C3050 H3058 0.930 . S
C3051 C3049 1.407 . S
C3051 C3050 1.345 . S
C3051 H3053 0.930 . S
H3052 C3045 0.930 . S
H3053 C3051 0.930 . S
H3054 C3042 0.930 . S
H3055 C3043 0.931 . S
H3056 C3049 0.930 . S
H3057 C3071 0.930 . S
H3058 C3050 0.930 . S
H3059 C3077 0.930 . S
H3060 C3068 0.930 . S
H3061 C3075 0.931 . S
H3062 C3039 0.929 . S
H3063 C3069 0.930 . S
H3064 C3102 0.930 . S
H3065 C3046 0.930 . S
H3066 C3101 0.929 . S
N3067 Tb3036 2.660 . S
N3067 C3068 1.305 . S
N3067 C3072 1.360 . S
C3068 H3060 0.930 . S
C3068 N3067 1.305 . S
C3068 C3071 1.407 . S
C3069 H3063 0.930 . S
C3069 C3070 1.410 . S
C3069 C3071 1.345 . S
C3070 C3069 1.410 . S
C3070 C3072 1.417 . S
C3070 C3102 1.432 . S
C3071 H3057 0.930 . S
C3071 C3068 1.407 . S
C3071 C3069 1.345 . S
C3072 N3067 1.360 . S
C3072 C3070 1.417 . S
C3072 C3076 1.432 . S
H3073 C3078 0.930 . S
N3074 Tb3036 2.600 . S
N3074 C3076 1.359 . S
N3074 C3077 1.327 . S
C3075 H3061 0.931 . S
C3075 C3077 1.392 . S
C3075 C3078 1.370 . S
C3076 C3072 1.432 . S
C3076 N3074 1.359 . S
C3076 C3079 1.414 . S
C3077 H3059 0.930 . S
C3077 N3074 1.327 . S
C3077 C3075 1.392 . S
C3078 H3073 0.930 . S
C3078 C3075 1.370 . S
C3078 C3079 1.385 . S
C3079 C3076 1.414 . S
C3079 C3078 1.385 . S
C3079 C3101 1.444 . S
O3080 Tb3036 2.546 . S
O3080 C3100 1.251 . S
O3081 Tb3036 2.610 . S
O3081 Tb3047 2.362 . S
O3081 C3092 1.283 . S
O3082 Tb3047 2.421 . S
O3082 C3099 1.262 . S
O3083 Tb3036 2.320 . S
O3083 C3099 1.260 . S
O3084 Tb3036 2.552 . S
O3084 C3092 1.243 . S
O3085 Tb3036 2.413 . S
O3085 C3100 1.256 . S
O3086 Tb3047 2.546 . S
O3086 C3111 1.251 . S
O3087 Tb3036 2.362 . S
O3087 Tb3047 2.610 . S
O3087 C3103 1.283 . S
O3088 Tb3036 2.421 . S
O3088 C3110 1.262 . S
O3089 Tb3047 2.320 . S
O3089 C3110 1.260 . S
O3090 Tb3047 2.552 . S
O3090 C3103 1.243 . S
O3091 Tb3047 2.413 . S
O3091 C3111 1.256 . S
C3092 O3081 1.283 . S
C3092 O3084 1.243 . S
C3093 C3095 1.382 . S
C3093 C3097 1.393 . S
C3093 C3100 1.500 . S
C3094 C3095 1.400 . S
C3094 C3096 1.384 . S
C3095 C3093 1.382 . S
C3095 C3094 1.400 . S
C3095 H3112 0.930 . S
C3096 C3094 1.384 . S
C3096 C3098 1.392 . S
C3096 H3113 0.931 . S
C3097 C3093 1.393 . S
C3097 C3098 1.401 . S
C3097 H3114 0.930 . S
C3098 C3096 1.392 . S
C3098 C3097 1.401 . S
C3098 H3115 0.930 . S
C3099 O3082 1.262 . S
C3099 O3083 1.260 . S
C3100 Tb3036 2.833 . S
C3100 O3080 1.251 . S
C3100 O3085 1.256 . S
C3100 C3093 1.500 . S
C3101 H3066 0.929 . S
C3101 C3079 1.444 . S
C3101 C3102 1.317 . S
C3102 H3064 0.930 . S
C3102 C3070 1.432 . S
C3102 C3101 1.317 . S
C3103 O3087 1.283 . S
C3103 O3090 1.243 . S
C3104 C3105 1.382 . S
C3104 C3108 1.393 . S
C3104 C3111 1.500 . S
C3105 C3104 1.382 . S
C3105 C3106 1.400 . S
C3105 H3116 0.930 . S
C3106 C3105 1.400 . S
C3106 C3107 1.384 . S
C3107 C3106 1.384 . S
C3107 C3109 1.392 . S
C3107 H3117 0.931 . S
C3108 C3104 1.393 . S
C3108 C3109 1.401 . S
C3108 H3118 0.930 . S
C3109 C3107 1.392 . S
C3109 C3108 1.401 . S
C3109 H3119 0.930 . S
C3110 O3088 1.262 . S
C3110 O3089 1.260 . S
C3111 Tb3047 2.833 . S
C3111 O3086 1.251 . S
C3111 O3091 1.256 . S
C3111 C3104 1.500 . S
H3112 C3095 0.930 . S
H3113 C3096 0.931 . S
H3114 C3097 0.930 . S
H3115 C3098 0.930 . S
H3116 C3105 0.930 . S
H3117 C3107 0.931 . S
H3118 C3108 0.930 . S
H3119 C3109 0.930 . S
Tb3120 N3151 2.660 . S
Tb3120 N3158 2.600 . S
Tb3120 O3164 2.546 . S
Tb3120 O3165 2.610 . S
Tb3120 O3167 2.320 . S
Tb3120 O3168 2.552 . S
Tb3120 O3169 2.413 . S
Tb3120 O3171 2.362 . S
Tb3120 O3172 2.421 . S
Tb3120 C3184 2.833 . S
C3121 C3124 1.432 . S
C3121 C3125 1.414 . S
C3121 N3128 1.359 . S
C3122 C3124 1.417 . S
C3122 C3126 1.432 . S
C3122 C3134 1.410 . S
C3123 C3125 1.444 . S
C3123 C3126 1.317 . S
C3123 H3146 0.929 . S
C3124 C3121 1.432 . S
C3124 C3122 1.417 . S
C3124 N3132 1.360 . S
C3125 C3121 1.414 . S
C3125 C3123 1.444 . S
C3125 C3130 1.385 . S
C3126 C3122 1.432 . S
C3126 C3123 1.317 . S
C3126 H3138 0.930 . S
C3127 C3129 1.392 . S
C3127 C3130 1.370 . S
C3127 H3139 0.931 . S
N3128 C3121 1.359 . S
N3128 C3129 1.327 . S
N3128 Tb3131 2.600 . S
C3129 C3127 1.392 . S
C3129 N3128 1.327 . S
C3129 H3136 0.930 . S
C3130 C3125 1.385 . S
C3130 C3127 1.370 . S
C3130 H3149 0.930 . S
Tb3131 N3128 2.600 . S
Tb3131 N3132 2.660 . S
Tb3131 O3165 2.362 . S
Tb3131 O3166 2.421 . S
Tb3131 O3170 2.546 . S
Tb3131 O3171 2.610 . S
Tb3131 O3173 2.320 . S
Tb3131 O3174 2.552 . S
Tb3131 O3175 2.413 . S
Tb3131 C3195 2.833 . S
N3132 C3124 1.360 . S
N3132 Tb3131 2.660 . S
N3132 C3133 1.305 . S
C3133 N3132 1.305 . S
C3133 C3135 1.407 . S
C3133 H3140 0.930 . S
C3134 C3122 1.410 . S
C3134 C3135 1.345 . S
C3134 H3142 0.930 . S
C3135 C3133 1.407 . S
C3135 C3134 1.345 . S
C3135 H3137 0.930 . S
H3136 C3129 0.930 . S
H3137 C3135 0.930 . S
H3138 C3126 0.930 . S
H3139 C3127 0.931 . S
H3140 C3133 0.930 . S
H3141 C3155 0.930 . S
H3142 C3134 0.930 . S
H3143 C3161 0.930 . S
H3144 C3152 0.930 . S
H3145 C3159 0.931 . S
H3146 C3123 0.929 . S
H3147 C3153 0.930 . S
H3148 C3186 0.930 . S
H3149 C3130 0.930 . S
H3150 C3185 0.929 . S
N3151 Tb3120 2.660 . S
N3151 C3152 1.305 . S
N3151 C3156 1.360 . S
C3152 H3144 0.930 . S
C3152 N3151 1.305 . S
C3152 C3155 1.407 . S
C3153 H3147 0.930 . S
C3153 C3154 1.410 . S
C3153 C3155 1.345 . S
C3154 C3153 1.410 . S
C3154 C3156 1.417 . S
C3154 C3186 1.432 . S
C3155 H3141 0.930 . S
C3155 C3152 1.407 . S
C3155 C3153 1.345 . S
C3156 N3151 1.360 . S
C3156 C3154 1.417 . S
C3156 C3160 1.432 . S
H3157 C3162 0.930 . S
N3158 Tb3120 2.600 . S
N3158 C3160 1.359 . S
N3158 C3161 1.327 . S
C3159 H3145 0.931 . S
C3159 C3161 1.392 . S
C3159 C3162 1.370 . S
C3160 C3156 1.432 . S
C3160 N3158 1.359 . S
C3160 C3163 1.414 . S
C3161 H3143 0.930 . S
C3161 N3158 1.327 . S
C3161 C3159 1.392 . S
C3162 H3157 0.930 . S
C3162 C3159 1.370 . S
C3162 C3163 1.385 . S
C3163 C3160 1.414 . S
C3163 C3162 1.385 . S
C3163 C3185 1.444 . S
O3164 Tb3120 2.546 . S
O3164 C3184 1.251 . S
O3165 Tb3120 2.610 . S
O3165 Tb3131 2.362 . S
O3165 C3176 1.283 . S
O3166 Tb3131 2.421 . S
O3166 C3183 1.262 . S
O3167 Tb3120 2.320 . S
O3167 C3183 1.260 . S
O3168 Tb3120 2.552 . S
O3168 C3176 1.243 . S
O3169 Tb3120 2.413 . S
O3169 C3184 1.256 . S
O3170 Tb3131 2.546 . S
O3170 C3195 1.251 . S
O3171 Tb3120 2.362 . S
O3171 Tb3131 2.610 . S
O3171 C3187 1.283 . S
O3172 Tb3120 2.421 . S
O3172 C3194 1.262 . S
O3173 Tb3131 2.320 . S
O3173 C3194 1.260 . S
O3174 Tb3131 2.552 . S
O3174 C3187 1.243 . S
O3175 Tb3131 2.413 . S
O3175 C3195 1.256 . S
C3176 O3165 1.283 . S
C3176 O3168 1.243 . S
C3177 C3179 1.382 . S
C3177 C3181 1.393 . S
C3177 C3184 1.500 . S
C3178 C3179 1.400 . S
C3178 C3180 1.384 . S
C3179 C3177 1.382 . S
C3179 C3178 1.400 . S
C3179 H3196 0.930 . S
C3180 C3178 1.384 . S
C3180 C3182 1.392 . S
C3180 H3197 0.931 . S
C3181 C3177 1.393 . S
C3181 C3182 1.401 . S
C3181 H3198 0.930 . S
C3182 C3180 1.392 . S
C3182 C3181 1.401 . S
C3182 H3199 0.930 . S
C3183 O3166 1.262 . S
C3183 O3167 1.260 . S
C3184 Tb3120 2.833 . S
C3184 O3164 1.251 . S
C3184 O3169 1.256 . S
C3184 C3177 1.500 . S
C3185 H3150 0.929 . S
C3185 C3163 1.444 . S
C3185 C3186 1.317 . S
C3186 H3148 0.930 . S
C3186 C3154 1.432 . S
C3186 C3185 1.317 . S
C3187 O3171 1.283 . S
C3187 O3174 1.243 . S
C3188 C3189 1.382 . S
C3188 C3192 1.393 . S
C3188 C3195 1.500 . S
C3189 C3188 1.382 . S
C3189 C3190 1.400 . S
C3189 H3200 0.930 . S
C3190 C3189 1.400 . S
C3190 C3191 1.384 . S
C3191 C3190 1.384 . S
C3191 C3193 1.392 . S
C3191 H3201 0.931 . S
C3192 C3188 1.393 . S
C3192 C3193 1.401 . S
C3192 H3202 0.930 . S
C3193 C3191 1.392 . S
C3193 C3192 1.401 . S
C3193 H3203 0.930 . S
C3194 O3172 1.262 . S
C3194 O3173 1.260 . S
C3195 Tb3131 2.833 . S
C3195 O3170 1.251 . S
C3195 O3175 1.256 . S
C3195 C3188 1.500 . S
H3196 C3179 0.930 . S
H3197 C3180 0.931 . S
H3198 C3181 0.930 . S
H3199 C3182 0.930 . S
H3200 C3189 0.930 . S
H3201 C3191 0.931 . S
H3202 C3192 0.930 . S
H3203 C3193 0.930 . S
Tb3204 N3235 2.660 . S
Tb3204 N3242 2.600 . S
Tb3204 O3248 2.546 . S
Tb3204 O3249 2.610 . S
Tb3204 O3251 2.320 . S
Tb3204 O3252 2.552 . S
Tb3204 O3253 2.413 . S
Tb3204 O3255 2.362 . S
Tb3204 O3256 2.421 . S
Tb3204 C3268 2.833 . S
C3205 C3208 1.432 . S
C3205 C3209 1.414 . S
C3205 N3212 1.359 . S
C3206 C3208 1.417 . S
C3206 C3210 1.432 . S
C3206 C3218 1.410 . S
C3207 C3209 1.444 . S
C3207 C3210 1.317 . S
C3207 H3230 0.929 . S
C3208 C3205 1.432 . S
C3208 C3206 1.417 . S
C3208 N3216 1.360 . S
C3209 C3205 1.414 . S
C3209 C3207 1.444 . S
C3209 C3214 1.385 . S
C3210 C3206 1.432 . S
C3210 C3207 1.317 . S
C3210 H3222 0.930 . S
C3211 C3213 1.392 . S
C3211 C3214 1.370 . S
C3211 H3223 0.931 . S
N3212 C3205 1.359 . S
N3212 C3213 1.327 . S
N3212 Tb3215 2.600 . S
C3213 C3211 1.392 . S
C3213 N3212 1.327 . S
C3213 H3220 0.930 . S
C3214 C3209 1.385 . S
C3214 C3211 1.370 . S
C3214 H3233 0.930 . S
Tb3215 N3212 2.600 . S
Tb3215 N3216 2.660 . S
Tb3215 O3249 2.362 . S
Tb3215 O3250 2.421 . S
Tb3215 O3254 2.546 . S
Tb3215 O3255 2.610 . S
Tb3215 O3257 2.320 . S
Tb3215 O3258 2.552 . S
Tb3215 O3259 2.413 . S
Tb3215 C3279 2.833 . S
N3216 C3208 1.360 . S
N3216 Tb3215 2.660 . S
N3216 C3217 1.305 . S
C3217 N3216 1.305 . S
C3217 C3219 1.407 . S
C3217 H3224 0.930 . S
C3218 C3206 1.410 . S
C3218 C3219 1.345 . S
C3218 H3226 0.930 . S
C3219 C3217 1.407 . S
C3219 C3218 1.345 . S
C3219 H3221 0.930 . S
H3220 C3213 0.930 . S
H3221 C3219 0.930 . S
H3222 C3210 0.930 . S
H3223 C3211 0.931 . S
H3224 C3217 0.930 . S
H3225 C3239 0.930 . S
H3226 C3218 0.930 . S
H3227 C3245 0.930 . S
H3228 C3236 0.930 . S
H3229 C3243 0.931 . S
H3230 C3207 0.929 . S
H3231 C3237 0.930 . S
H3232 C3270 0.930 . S
H3233 C3214 0.930 . S
H3234 C3269 0.929 . S
N3235 Tb3204 2.660 . S
N3235 C3236 1.305 . S
N3235 C3240 1.360 . S
C3236 H3228 0.930 . S
C3236 N3235 1.305 . S
C3236 C3239 1.407 . S
C3237 H3231 0.930 . S
C3237 C3238 1.410 . S
C3237 C3239 1.345 . S
C3238 C3237 1.410 . S
C3238 C3240 1.417 . S
C3238 C3270 1.432 . S
C3239 H3225 0.930 . S
C3239 C3236 1.407 . S
C3239 C3237 1.345 . S
C3240 N3235 1.360 . S
C3240 C3238 1.417 . S
C3240 C3244 1.432 . S
H3241 C3246 0.930 . S
N3242 Tb3204 2.600 . S
N3242 C3244 1.359 . S
N3242 C3245 1.327 . S
C3243 H3229 0.931 . S
C3243 C3245 1.392 . S
C3243 C3246 1.370 . S
C3244 C3240 1.432 . S
C3244 N3242 1.359 . S
C3244 C3247 1.414 . S
C3245 H3227 0.930 . S
C3245 N3242 1.327 . S
C3245 C3243 1.392 . S
C3246 H3241 0.930 . S
C3246 C3243 1.370 . S
C3246 C3247 1.385 . S
C3247 C3244 1.414 . S
C3247 C3246 1.385 . S
C3247 C3269 1.444 . S
O3248 Tb3204 2.546 . S
O3248 C3268 1.251 . S
O3249 Tb3204 2.610 . S
O3249 Tb3215 2.362 . S
O3249 C3260 1.283 . S
O3250 Tb3215 2.421 . S
O3250 C3267 1.262 . S
O3251 Tb3204 2.320 . S
O3251 C3267 1.260 . S
O3252 Tb3204 2.552 . S
O3252 C3260 1.243 . S
O3253 Tb3204 2.413 . S
O3253 C3268 1.256 . S
O3254 Tb3215 2.546 . S
O3254 C3279 1.251 . S
O3255 Tb3204 2.362 . S
O3255 Tb3215 2.610 . S
O3255 C3271 1.283 . S
O3256 Tb3204 2.421 . S
O3256 C3278 1.262 . S
O3257 Tb3215 2.320 . S
O3257 C3278 1.260 . S
O3258 Tb3215 2.552 . S
O3258 C3271 1.243 . S
O3259 Tb3215 2.413 . S
O3259 C3279 1.256 . S
C3260 O3249 1.283 . S
C3260 O3252 1.243 . S
C3261 C3263 1.382 . S
C3261 C3265 1.393 . S
C3261 C3268 1.500 . S
C3262 C3263 1.400 . S
C3262 C3264 1.384 . S
C3263 C3261 1.382 . S
C3263 C3262 1.400 . S
C3263 H3280 0.930 . S
C3264 C3262 1.384 . S
C3264 C3266 1.392 . S
C3264 H3281 0.931 . S
C3265 C3261 1.393 . S
C3265 C3266 1.401 . S
C3265 H3282 0.930 . S
C3266 C3264 1.392 . S
C3266 C3265 1.401 . S
C3266 H3283 0.930 . S
C3267 O3250 1.262 . S
C3267 O3251 1.260 . S
C3268 Tb3204 2.833 . S
C3268 O3248 1.251 . S
C3268 O3253 1.256 . S
C3268 C3261 1.500 . S
C3269 H3234 0.929 . S
C3269 C3247 1.444 . S
C3269 C3270 1.317 . S
C3270 H3232 0.930 . S
C3270 C3238 1.432 . S
C3270 C3269 1.317 . S
C3271 O3255 1.283 . S
C3271 O3258 1.243 . S
C3272 C3273 1.382 . S
C3272 C3276 1.393 . S
C3272 C3279 1.500 . S
C3273 C3272 1.382 . S
C3273 C3274 1.400 . S
C3273 H3284 0.930 . S
C3274 C3273 1.400 . S
C3274 C3275 1.384 . S
C3275 C3274 1.384 . S
C3275 C3277 1.392 . S
C3275 H3285 0.931 . S
C3276 C3272 1.393 . S
C3276 C3277 1.401 . S
C3276 H3286 0.930 . S
C3277 C3275 1.392 . S
C3277 C3276 1.401 . S
C3277 H3287 0.930 . S
C3278 O3256 1.262 . S
C3278 O3257 1.260 . S
C3279 Tb3215 2.833 . S
C3279 O3254 1.251 . S
C3279 O3259 1.256 . S
C3279 C3272 1.500 . S
H3280 C3263 0.930 . S
H3281 C3264 0.931 . S
H3282 C3265 0.930 . S
H3283 C3266 0.930 . S
H3284 C3273 0.930 . S
H3285 C3275 0.931 . S
H3286 C3276 0.930 . S
H3287 C3277 0.930 . S
Tb3288 N3319 2.660 . S
Tb3288 N3326 2.600 . S
Tb3288 O3332 2.546 . S
Tb3288 O3333 2.610 . S
Tb3288 O3335 2.320 . S
Tb3288 O3336 2.552 . S
Tb3288 O3337 2.413 . S
Tb3288 O3339 2.362 . S
Tb3288 O3340 2.421 . S
Tb3288 C3352 2.833 . S
C3289 C3292 1.432 . S
C3289 C3293 1.414 . S
C3289 N3296 1.359 . S
C3290 C3292 1.417 . S
C3290 C3294 1.432 . S
C3290 C3302 1.410 . S
C3291 C3293 1.444 . S
C3291 C3294 1.317 . S
C3291 H3314 0.929 . S
C3292 C3289 1.432 . S
C3292 C3290 1.417 . S
C3292 N3300 1.360 . S
C3293 C3289 1.414 . S
C3293 C3291 1.444 . S
C3293 C3298 1.385 . S
C3294 C3290 1.432 . S
C3294 C3291 1.317 . S
C3294 H3306 0.930 . S
C3295 C3297 1.392 . S
C3295 C3298 1.370 . S
C3295 H3307 0.931 . S
N3296 C3289 1.359 . S
N3296 C3297 1.327 . S
N3296 Tb3299 2.600 . S
C3297 C3295 1.392 . S
C3297 N3296 1.327 . S
C3297 H3304 0.930 . S
C3298 C3293 1.385 . S
C3298 C3295 1.370 . S
C3298 H3317 0.930 . S
Tb3299 N3296 2.600 . S
Tb3299 N3300 2.660 . S
Tb3299 O3333 2.362 . S
Tb3299 O3334 2.421 . S
Tb3299 O3338 2.546 . S
Tb3299 O3339 2.610 . S
Tb3299 O3341 2.320 . S
Tb3299 O3342 2.552 . S
Tb3299 O3343 2.413 . S
Tb3299 C3363 2.833 . S
N3300 C3292 1.360 . S
N3300 Tb3299 2.660 . S
N3300 C3301 1.305 . S
C3301 N3300 1.305 . S
C3301 C3303 1.407 . S
C3301 H3308 0.930 . S
C3302 C3290 1.410 . S
C3302 C3303 1.345 . S
C3302 H3310 0.930 . S
C3303 C3301 1.407 . S
C3303 C3302 1.345 . S
C3303 H3305 0.930 . S
H3304 C3297 0.930 . S
H3305 C3303 0.930 . S
H3306 C3294 0.930 . S
H3307 C3295 0.931 . S
H3308 C3301 0.930 . S
H3309 C3323 0.930 . S
H3310 C3302 0.930 . S
H3311 C3329 0.930 . S
H3312 C3320 0.930 . S
H3313 C3327 0.931 . S
H3314 C3291 0.929 . S
H3315 C3321 0.930 . S
H3316 C3354 0.930 . S
H3317 C3298 0.930 . S
H3318 C3353 0.929 . S
N3319 Tb3288 2.660 . S
N3319 C3320 1.305 . S
N3319 C3324 1.360 . S
C3320 H3312 0.930 . S
C3320 N3319 1.305 . S
C3320 C3323 1.407 . S
C3321 H3315 0.930 . S
C3321 C3322 1.410 . S
C3321 C3323 1.345 . S
C3322 C3321 1.410 . S
C3322 C3324 1.417 . S
C3322 C3354 1.432 . S
C3323 H3309 0.930 . S
C3323 C3320 1.407 . S
C3323 C3321 1.345 . S
C3324 N3319 1.360 . S
C3324 C3322 1.417 . S
C3324 C3328 1.432 . S
H3325 C3330 0.930 . S
N3326 Tb3288 2.600 . S
N3326 C3328 1.359 . S
N3326 C3329 1.327 . S
C3327 H3313 0.931 . S
C3327 C3329 1.392 . S
C3327 C3330 1.370 . S
C3328 C3324 1.432 . S
C3328 N3326 1.359 . S
C3328 C3331 1.414 . S
C3329 H3311 0.930 . S
C3329 N3326 1.327 . S
C3329 C3327 1.392 . S
C3330 H3325 0.930 . S
C3330 C3327 1.370 . S
C3330 C3331 1.385 . S
C3331 C3328 1.414 . S
C3331 C3330 1.385 . S
C3331 C3353 1.444 . S
O3332 Tb3288 2.546 . S
O3332 C3352 1.251 . S
O3333 Tb3288 2.610 . S
O3333 Tb3299 2.362 . S
O3333 C3344 1.283 . S
O3334 Tb3299 2.421 . S
O3334 C3351 1.262 . S
O3335 Tb3288 2.320 . S
O3335 C3351 1.260 . S
O3336 Tb3288 2.552 . S
O3336 C3344 1.243 . S
O3337 Tb3288 2.413 . S
O3337 C3352 1.256 . S
O3338 Tb3299 2.546 . S
O3338 C3363 1.251 . S
O3339 Tb3288 2.362 . S
O3339 Tb3299 2.610 . S
O3339 C3355 1.283 . S
O3340 Tb3288 2.421 . S
O3340 C3362 1.262 . S
O3341 Tb3299 2.320 . S
O3341 C3362 1.260 . S
O3342 Tb3299 2.552 . S
O3342 C3355 1.243 . S
O3343 Tb3299 2.413 . S
O3343 C3363 1.256 . S
C3344 O3333 1.283 . S
C3344 O3336 1.243 . S
C3345 C3347 1.382 . S
C3345 C3349 1.393 . S
C3345 C3352 1.500 . S
C3346 C3347 1.400 . S
C3346 C3348 1.384 . S
C3347 C3345 1.382 . S
C3347 C3346 1.400 . S
C3347 H3364 0.930 . S
C3348 C3346 1.384 . S
C3348 C3350 1.392 . S
C3348 H3365 0.931 . S
C3349 C3345 1.393 . S
C3349 C3350 1.401 . S
C3349 H3366 0.930 . S
C3350 C3348 1.392 . S
C3350 C3349 1.401 . S
C3350 H3367 0.930 . S
C3351 O3334 1.262 . S
C3351 O3335 1.260 . S
C3352 Tb3288 2.833 . S
C3352 O3332 1.251 . S
C3352 O3337 1.256 . S
C3352 C3345 1.500 . S
C3353 H3318 0.929 . S
C3353 C3331 1.444 . S
C3353 C3354 1.317 . S
C3354 H3316 0.930 . S
C3354 C3322 1.432 . S
C3354 C3353 1.317 . S
C3355 O3339 1.283 . S
C3355 O3342 1.243 . S
C3356 C3357 1.382 . S
C3356 C3360 1.393 . S
C3356 C3363 1.500 . S
C3357 C3356 1.382 . S
C3357 C3358 1.400 . S
C3357 H3368 0.930 . S
C3358 C3357 1.400 . S
C3358 C3359 1.384 . S
C3359 C3358 1.384 . S
C3359 C3361 1.392 . S
C3359 H3369 0.931 . S
C3360 C3356 1.393 . S
C3360 C3361 1.401 . S
C3360 H3370 0.930 . S
C3361 C3359 1.392 . S
C3361 C3360 1.401 . S
C3361 H3371 0.930 . S
C3362 O3340 1.262 . S
C3362 O3341 1.260 . S
C3363 Tb3299 2.833 . S
C3363 O3338 1.251 . S
C3363 O3343 1.256 . S
C3363 C3356 1.500 . S
H3364 C3347 0.930 . S
H3365 C3348 0.931 . S
H3366 C3349 0.930 . S
H3367 C3350 0.930 . S
H3368 C3357 0.930 . S
H3369 C3359 0.931 . S
H3370 C3360 0.930 . S
H3371 C3361 0.930 . S
Tb3372 N3403 2.660 . S
Tb3372 N3410 2.600 1_554 S
Tb3372 O3416 2.546 1_554 S
Tb3372 O3417 2.610 . S
Tb3372 O3419 2.320 . S
Tb3372 O3420 2.552 . S
Tb3372 O3421 2.413 . S
Tb3372 O3423 2.362 . S
Tb3372 O3424 2.421 1_554 S
Tb3372 C3436 2.833 1_554 S
C3373 C3376 1.431 1_455 S
C3373 C3377 1.407 1_455 S
C3373 N3380 1.367 . S
C3374 C3376 1.417 . S
C3374 C3378 1.432 . S
C3374 C3386 1.410 1_554 S
C3375 C3377 1.444 . S
C3375 C3378 1.317 . S
C3375 H3398 0.929 . S
C3376 C3373 1.431 1_655 S
C3376 C3374 1.417 . S
C3376 N3384 1.360 1_655 S
C3377 C3373 1.407 1_655 S
C3377 C3375 1.444 . S
C3377 C3382 1.385 . S
C3378 C3374 1.432 . S
C3378 C3375 1.317 . S
C3378 H3390 0.930 . S
C3379 C3381 1.392 . S
C3379 C3382 1.370 1_455 S
C3379 H3391 0.931 . S
N3380 C3373 1.367 . S
N3380 C3381 1.327 . S
N3380 Tb3383 2.600 . S
C3381 C3379 1.392 . S
C3381 N3380 1.327 . S
C3381 H3388 0.930 . S
C3382 C3377 1.385 . S
C3382 C3379 1.370 1_655 S
C3382 H3401 0.930 . S
Tb3383 N3380 2.600 . S
Tb3383 N3384 2.660 . S
Tb3383 O3417 2.362 . S
Tb3383 O3418 2.421 . S
Tb3383 O3422 2.546 . S
Tb3383 O3423 2.610 . S
Tb3383 O3425 2.316 1_554 S
Tb3383 O3426 2.552 . S
Tb3383 O3427 2.346 1_455 S
Tb3383 C3447 2.833 1_455 S
N3384 C3376 1.360 1_455 S
N3384 Tb3383 2.660 . S
N3384 C3385 1.305 1_554 S
C3385 N3384 1.305 1_556 S
C3385 C3387 1.407 1_455 S
C3385 H3392 0.930 . S
C3386 C3374 1.410 1_556 S
C3386 C3387 1.345 . S
C3386 H3394 0.930 . S
C3387 C3385 1.407 1_655 S
C3387 C3386 1.345 . S
C3387 H3389 0.930 . S
H3388 C3381 0.930 . S
H3389 C3387 0.930 . S
H3390 C3378 0.930 . S
H3391 C3379 0.931 . S
H3392 C3385 0.930 . S
H3393 C3407 0.930 . S
H3394 C3386 0.930 . S
H3395 C3413 0.930 . S
H3396 C3404 0.930 . S
H3397 C3411 0.931 . S
H3398 C3375 0.929 . S
H3399 C3405 0.930 . S
H3400 C3438 0.930 . S
H3401 C3382 0.930 . S
H3402 C3437 0.929 . S
N3403 Tb3372 2.660 . S
N3403 C3404 1.305 . S
N3403 C3408 1.360 . S
C3404 H3396 0.930 . S
C3404 N3403 1.305 . S
C3404 C3407 1.407 . S
C3405 H3399 0.930 . S
C3405 C3406 1.410 . S
C3405 C3407 1.345 . S
C3406 C3405 1.410 . S
C3406 C3408 1.417 . S
C3406 C3438 1.432 . S
C3407 H3393 0.930 . S
C3407 C3404 1.407 . S
C3407 C3405 1.345 . S
C3408 N3403 1.360 . S
C3408 C3406 1.417 . S
C3408 C3412 1.432 1_554 S
H3409 C3414 0.930 . S
N3410 Tb3372 2.600 1_556 S
N3410 C3412 1.359 . S
N3410 C3413 1.327 . S
C3411 H3397 0.931 . S
C3411 C3413 1.392 . S
C3411 C3414 1.370 . S
C3412 C3408 1.432 1_556 S
C3412 N3410 1.359 . S
C3412 C3415 1.414 . S
C3413 H3395 0.930 . S
C3413 N3410 1.327 . S
C3413 C3411 1.392 . S
C3414 H3409 0.930 . S
C3414 C3411 1.370 . S
C3414 C3415 1.385 . S
C3415 C3412 1.414 . S
C3415 C3414 1.385 . S
C3415 C3437 1.444 . S
O3416 Tb3372 2.546 1_556 S
O3416 C3436 1.249 . S
O3417 Tb3372 2.610 . S
O3417 Tb3383 2.362 . S
O3417 C3428 1.283 . S
O3418 Tb3383 2.421 . S
O3418 C3435 1.262 . S
O3419 Tb3372 2.320 . S
O3419 C3435 1.260 . S
O3420 Tb3372 2.552 . S
O3420 C3428 1.243 . S
O3421 Tb3372 2.413 . S
O3421 C3436 1.258 1_554 S
O3422 Tb3383 2.546 . S
O3422 C3447 1.251 1_455 S
O3423 Tb3372 2.362 . S
O3423 Tb3383 2.610 . S
O3423 C3439 1.283 . S
O3424 Tb3372 2.421 1_556 S
O3424 C3446 1.262 . S
O3425 Tb3383 2.316 1_556 S
O3425 C3446 1.263 . S
O3426 Tb3383 2.552 . S
O3426 C3439 1.243 . S
O3427 Tb3383 2.346 1_655 S
O3427 C3447 1.276 . S
C3428 O3417 1.283 . S
C3428 O3420 1.243 . S
C3429 C3431 1.382 1_556 S
C3429 C3433 1.393 . S
C3429 C3436 1.500 . S
C3430 C3431 1.400 . S
C3430 C3432 1.384 1_554 S
C3431 C3429 1.382 1_554 S
C3431 C3430 1.400 . S
C3431 H3448 0.930 . S
C3432 C3430 1.384 1_556 S
C3432 C3434 1.392 . S
C3432 H3449 0.931 . S
C3433 C3429 1.393 . S
C3433 C3434 1.401 . S
C3433 H3450 0.930 . S
C3434 C3432 1.392 . S
C3434 C3433 1.401 . S
C3434 H3451 0.930 . S
C3435 O3418 1.262 . S
C3435 O3419 1.260 . S
C3436 Tb3372 2.833 1_556 S
C3436 O3416 1.249 . S
C3436 O3421 1.258 1_556 S
C3436 C3429 1.500 . S
C3437 H3402 0.929 . S
C3437 C3415 1.444 . S
C3437 C3438 1.317 1_556 S
C3438 H3400 0.930 . S
C3438 C3406 1.432 . S
C3438 C3437 1.317 1_554 S
C3439 O3423 1.283 . S
C3439 O3426 1.243 . S
C3440 C3441 1.382 . S
C3440 C3444 1.393 . S
C3440 C3447 1.500 . S
C3441 C3440 1.382 . S
C3441 C3442 1.400 . S
C3441 H3452 0.930 . S
C3442 C3441 1.400 . S
C3442 C3443 1.384 . S
C3443 C3442 1.384 . S
C3443 C3445 1.392 . S
C3443 H3453 0.931 . S
C3444 C3440 1.393 . S
C3444 C3445 1.401 . S
C3444 H3454 0.930 . S
C3445 C3443 1.392 . S
C3445 C3444 1.401 . S
C3445 H3455 0.930 . S
C3446 O3424 1.262 . S
C3446 O3425 1.263 . S
C3447 Tb3383 2.833 1_655 S
C3447 O3422 1.251 1_655 S
C3447 O3427 1.276 . S
C3447 C3440 1.500 . S
H3448 C3431 0.930 . S
H3449 C3432 0.931 . S
H3450 C3433 0.930 . S
H3451 C3434 0.930 . S
H3452 C3441 0.930 . S
H3453 C3443 0.931 . S
H3454 C3444 0.930 . S
H3455 C3445 0.930 . S
H3456 C3464 0.929 . S
H3457 C3466 0.930 . S
H3458 C3468 0.958 . S
H3459 C3471 0.929 1_554 S
H3460 C3474 0.930 . S
H3461 C3476 0.975 . S
H3462 C3476 0.960 1_655 S
H3463 C3476 0.960 . S
C3464 H3456 0.929 . S
C3464 C3465 1.377 . S
C3464 C3466 1.384 . S
C3465 C3464 1.377 . S
C3465 C3471 1.390 . S
C3466 H3457 0.930 . S
C3466 C3464 1.384 . S
C3466 C3467 1.372 . S
C3467 C3466 1.372 . S
C3467 C3468 1.384 1_556 S
C3467 C3472 1.490 . S
C3468 H3458 0.958 . S
C3468 C3467 1.384 1_554 S
C3468 C3471 1.375 1_554 S
H3469 C3485 0.930 . S
H3470 C3486 0.931 . S
C3471 H3459 0.929 1_556 S
C3471 C3465 1.390 . S
C3471 C3468 1.375 1_556 S
C3472 C3467 1.490 . S
C3472 C3474 1.395 . S
C3472 C3475 1.403 1_556 S
H3473 C3479 0.930 . S
C3474 H3460 0.930 . S
C3474 C3472 1.395 . S
C3474 C3477 1.403 . S
C3475 C3472 1.403 1_554 S
C3475 C3476 1.524 . S
C3475 C3479 1.400 . S
C3476 H3461 0.975 . S
C3476 H3462 0.960 1_455 S
C3476 H3463 0.960 . S
C3476 C3475 1.524 . S
C3477 C3474 1.403 . S
C3477 C3478 1.444 . S
C3477 C3481 1.495 . S
C3478 C3477 1.444 . S
C3478 C3479 1.356 1_556 S
C3478 C3480 1.455 1_556 S
C3479 H3473 0.930 . S
C3479 C3475 1.400 . S
C3479 C3478 1.356 1_554 S
C3480 C3478 1.455 1_554 S
C3480 C3482 1.381 1_554 S
C3480 C3486 1.383 . S
C3481 C3477 1.495 . S
C3481 H3487 0.959 . S
C3481 H3488 0.961 . S
C3481 H3489 0.960 . S
C3482 C3480 1.381 1_556 S
C3482 C3483 1.394 . S
C3482 H3490 0.930 . S
C3483 C3482 1.394 . S
C3483 C3484 1.383 1_556 S
C3483 H3491 0.929 . S
C3484 C3483 1.383 1_554 S
C3484 C3485 1.377 . S
C3485 H3469 0.930 . S
C3485 C3484 1.377 . S
C3485 C3486 1.379 . S
C3486 H3470 0.931 . S
C3486 C3480 1.383 . S
C3486 C3485 1.379 . S
H3487 C3481 0.959 . S
H3488 C3481 0.961 . S
H3489 C3481 0.960 . S
H3490 C3482 0.930 . S
H3491 C3483 0.929 . S
H3492 C3500 0.929 . S
H3493 C3502 0.930 . S
H3494 C3504 0.930 . S
H3495 C3507 0.929 . S
H3496 C3510 0.930 . S
H3497 C3512 0.960 . S
H3498 C3512 0.960 . S
H3499 C3512 0.960 . S
C3500 H3492 0.929 . S
C3500 C3501 1.377 . S
C3500 C3502 1.384 . S
C3501 C3500 1.377 . S
C3501 C3507 1.390 . S
C3502 H3493 0.930 . S
C3502 C3500 1.384 . S
C3502 C3503 1.372 . S
C3503 C3502 1.372 . S
C3503 C3504 1.400 . S
C3503 C3508 1.490 . S
C3504 H3494 0.930 . S
C3504 C3503 1.400 . S
C3504 C3507 1.386 . S
H3505 C3521 0.930 . S
H3506 C3522 0.931 . S
C3507 H3495 0.929 . S
C3507 C3501 1.390 . S
C3507 C3504 1.386 . S
C3508 C3503 1.490 . S
C3508 C3510 1.395 . S
C3508 C3511 1.403 . S
H3509 C3515 0.930 . S
C3510 H3496 0.930 . S
C3510 C3508 1.395 . S
C3510 C3513 1.403 . S
C3511 C3508 1.403 . S
C3511 C3512 1.524 . S
C3511 C3515 1.400 . S
C3512 H3497 0.960 . S
C3512 H3498 0.960 . S
C3512 H3499 0.960 . S
C3512 C3511 1.524 . S
C3513 C3510 1.403 . S
C3513 C3514 1.392 . S
C3513 C3517 1.495 . S
C3514 C3513 1.392 . S
C3514 C3515 1.385 . S
C3514 C3516 1.478 . S
C3515 H3509 0.930 . S
C3515 C3511 1.400 . S
C3515 C3514 1.385 . S
C3516 C3514 1.478 . S
C3516 C3518 1.381 . S
C3516 C3522 1.383 . S
C3517 C3513 1.495 . S
C3517 H3523 0.959 . S
C3517 H3524 0.961 . S
C3517 H3525 0.960 . S
C3518 C3516 1.381 . S
C3518 C3519 1.394 . S
C3518 H3526 0.930 . S
C3519 C3518 1.394 . S
C3519 C3520 1.383 . S
C3519 H3527 0.929 . S
C3520 C3519 1.383 . S
C3520 C3521 1.377 . S
C3521 H3505 0.930 . S
C3521 C3520 1.377 . S
C3521 C3522 1.379 . S
C3522 H3506 0.931 . S
C3522 C3516 1.383 . S
C3522 C3521 1.379 . S
H3523 C3517 0.959 . S
H3524 C3517 0.961 . S
H3525 C3517 0.960 . S
H3526 C3518 0.930 . S
H3527 C3519 0.929 . S
H3528 C3536 0.929 . S
H3529 C3538 0.930 . S
H3530 C3540 0.930 . S
H3531 C3543 0.929 . S
H3532 C3546 0.930 . S
H3533 C3548 0.960 . S
H3534 C3548 0.960 . S
H3535 C3548 0.960 . S
C3536 H3528 0.929 . S
C3536 C3537 1.377 . S
C3536 C3538 1.384 . S
C3537 C3536 1.377 . S
C3537 C3543 1.390 . S
C3538 H3529 0.930 . S
C3538 C3536 1.384 . S
C3538 C3539 1.372 . S
C3539 C3538 1.372 . S
C3539 C3540 1.400 . S
C3539 C3544 1.490 . S
C3540 H3530 0.930 . S
C3540 C3539 1.400 . S
C3540 C3543 1.386 . S
H3541 C3557 0.930 . S
H3542 C3558 0.931 . S
C3543 H3531 0.929 . S
C3543 C3537 1.390 . S
C3543 C3540 1.386 . S
C3544 C3539 1.490 . S
C3544 C3546 1.395 . S
C3544 C3547 1.403 . S
H3545 C3551 0.930 . S
C3546 H3532 0.930 . S
C3546 C3544 1.395 . S
C3546 C3549 1.403 . S
C3547 C3544 1.403 . S
C3547 C3548 1.524 . S
C3547 C3551 1.400 . S
C3548 H3533 0.960 . S
C3548 H3534 0.960 . S
C3548 H3535 0.960 . S
C3548 C3547 1.524 . S
C3549 C3546 1.403 . S
C3549 C3550 1.392 . S
C3549 C3553 1.495 . S
C3550 C3549 1.392 . S
C3550 C3551 1.385 . S
C3550 C3552 1.478 . S
C3551 H3545 0.930 . S
C3551 C3547 1.400 . S
C3551 C3550 1.385 . S
C3552 C3550 1.478 . S
C3552 C3554 1.381 . S
C3552 C3558 1.383 . S
C3553 C3549 1.495 . S
C3553 H3559 0.959 . S
C3553 H3560 0.961 . S
C3553 H3561 0.960 . S
C3554 C3552 1.381 . S
C3554 C3555 1.394 . S
C3554 H3562 0.930 . S
C3555 C3554 1.394 . S
C3555 C3556 1.383 . S
C3555 H3563 0.929 . S
C3556 C3555 1.383 . S
C3556 C3557 1.377 . S
C3557 H3541 0.930 . S
C3557 C3556 1.377 . S
C3557 C3558 1.379 . S
C3558 H3542 0.931 . S
C3558 C3552 1.383 . S
C3558 C3557 1.379 . S
H3559 C3553 0.959 . S
H3560 C3553 0.961 . S
H3561 C3553 0.960 . S
H3562 C3554 0.930 . S
H3563 C3555 0.929 . S
H3564 C3572 0.929 . S
H3565 C3574 0.930 . S
H3566 C3576 0.930 . S
H3567 C3579 0.929 . S
H3568 C3582 0.930 . S
H3569 C3584 0.960 . S
H3570 C3584 0.960 . S
H3571 C3584 0.960 . S
C3572 H3564 0.929 . S
C3572 C3573 1.377 . S
C3572 C3574 1.384 . S
C3573 C3572 1.377 . S
C3573 C3579 1.390 . S
C3574 H3565 0.930 . S
C3574 C3572 1.384 . S
C3574 C3575 1.372 . S
C3575 C3574 1.372 . S
C3575 C3576 1.400 . S
C3575 C3580 1.490 . S
C3576 H3566 0.930 . S
C3576 C3575 1.400 . S
C3576 C3579 1.386 . S
H3577 C3593 0.930 . S
H3578 C3594 0.931 . S
C3579 H3567 0.929 . S
C3579 C3573 1.390 . S
C3579 C3576 1.386 . S
C3580 C3575 1.490 . S
C3580 C3582 1.395 . S
C3580 C3583 1.403 . S
H3581 C3587 0.930 . S
C3582 H3568 0.930 . S
C3582 C3580 1.395 . S
C3582 C3585 1.403 . S
C3583 C3580 1.403 . S
C3583 C3584 1.524 . S
C3583 C3587 1.400 . S
C3584 H3569 0.960 . S
C3584 H3570 0.960 . S
C3584 H3571 0.960 . S
C3584 C3583 1.524 . S
C3585 C3582 1.403 . S
C3585 C3586 1.392 . S
C3585 C3589 1.495 . S
C3586 C3585 1.392 . S
C3586 C3587 1.385 . S
C3586 C3588 1.478 . S
C3587 H3581 0.930 . S
C3587 C3583 1.400 . S
C3587 C3586 1.385 . S
C3588 C3586 1.478 . S
C3588 C3590 1.381 . S
C3588 C3594 1.383 . S
C3589 C3585 1.495 . S
C3589 H3595 0.959 . S
C3589 H3596 0.961 . S
C3589 H3597 0.960 . S
C3590 C3588 1.381 . S
C3590 C3591 1.394 . S
C3590 H3598 0.930 . S
C3591 C3590 1.394 . S
C3591 C3592 1.383 . S
C3591 H3599 0.929 . S
C3592 C3591 1.383 . S
C3592 C3593 1.377 . S
C3593 H3577 0.930 . S
C3593 C3592 1.377 . S
C3593 C3594 1.379 . S
C3594 H3578 0.931 . S
C3594 C3588 1.383 . S
C3594 C3593 1.379 . S
H3595 C3589 0.959 . S
H3596 C3589 0.961 . S
H3597 C3589 0.960 . S
H3598 C3590 0.930 . S
H3599 C3591 0.929 . S
H3600 C3608 0.929 . S
H3601 C3610 0.930 . S
H3602 C3612 0.930 . S
H3603 C3615 0.928 . S
H3604 C3618 0.930 . S
H3605 C3620 0.960 . S
H3606 C3620 0.960 . S
H3607 C3620 0.960 . S
C3608 H3600 0.929 . S
C3608 C3609 1.377 . S
C3608 C3610 1.384 . S
C3609 C3608 1.377 . S
C3609 C3615 1.390 . S
C3610 H3601 0.930 . S
C3610 C3608 1.384 . S
C3610 C3611 1.372 . S
C3611 C3610 1.372 . S
C3611 C3612 1.400 . S
C3611 C3616 1.490 . S
C3612 H3602 0.930 . S
C3612 C3611 1.400 . S
C3612 C3615 1.386 . S
H3613 C3629 0.930 . S
H3614 C3630 0.931 . S
C3615 H3603 0.928 . S
C3615 C3609 1.390 . S
C3615 C3612 1.386 . S
C3616 C3611 1.490 . S
C3616 C3618 1.395 . S
C3616 C3619 1.403 . S
H3617 C3623 0.930 . S
C3618 H3604 0.930 . S
C3618 C3616 1.395 . S
C3618 C3621 1.403 . S
C3619 C3616 1.403 . S
C3619 C3620 1.524 . S
C3619 C3623 1.400 . S
C3620 H3605 0.960 . S
C3620 H3606 0.960 . S
C3620 H3607 0.960 . S
C3620 C3619 1.524 . S
C3621 C3618 1.403 . S
C3621 C3622 1.392 . S
C3621 C3625 1.495 . S
C3622 C3621 1.392 . S
C3622 C3623 1.385 . S
C3622 C3624 1.478 . S
C3623 H3617 0.930 . S
C3623 C3619 1.400 . S
C3623 C3622 1.385 . S
C3624 C3622 1.478 . S
C3624 C3626 1.381 . S
C3624 C3630 1.383 . S
C3625 C3621 1.495 . S
C3625 H3631 0.955 1_455 S
C3625 H3632 0.941 1_455 S
C3625 H3633 0.960 . S
C3626 C3624 1.381 . S
C3626 C3627 1.394 . S
C3626 H3634 0.930 . S
C3627 C3626 1.394 . S
C3627 C3628 1.383 . S
C3627 H3635 0.929 . S
C3628 C3627 1.383 . S
C3628 C3629 1.377 . S
C3629 H3613 0.930 . S
C3629 C3628 1.377 . S
C3629 C3630 1.379 . S
C3630 H3614 0.931 . S
C3630 C3624 1.383 . S
C3630 C3629 1.379 . S
H3631 C3625 0.955 1_655 S
H3632 C3625 0.941 1_655 S
H3633 C3625 0.960 . S
H3634 C3626 0.930 . S
H3635 C3627 0.929 . S
H3636 C3644 0.929 . S
H3637 C3646 0.930 . S
H3638 C3648 0.930 . S
H3639 C3651 0.929 . S
H3640 C3654 0.930 . S
H3641 C3656 0.960 . S
H3642 C3656 0.960 . S
H3643 C3656 0.960 . S
C3644 H3636 0.929 . S
C3644 C3645 1.377 . S
C3644 C3646 1.384 . S
C3645 C3644 1.377 . S
C3645 C3651 1.390 . S
C3646 H3637 0.930 . S
C3646 C3644 1.384 . S
C3646 C3647 1.372 . S
C3647 C3646 1.372 . S
C3647 C3648 1.400 . S
C3647 C3652 1.490 . S
C3648 H3638 0.930 . S
C3648 C3647 1.400 . S
C3648 C3651 1.386 . S
H3649 C3665 0.930 . S
H3650 C3666 0.931 . S
C3651 H3639 0.929 . S
C3651 C3645 1.390 . S
C3651 C3648 1.386 . S
C3652 C3647 1.490 . S
C3652 C3654 1.395 . S
C3652 C3655 1.403 . S
H3653 C3659 0.930 . S
C3654 H3640 0.930 . S
C3654 C3652 1.395 . S
C3654 C3657 1.403 . S
C3655 C3652 1.403 . S
C3655 C3656 1.524 . S
C3655 C3659 1.400 . S
C3656 H3641 0.960 . S
C3656 H3642 0.960 . S
C3656 H3643 0.960 . S
C3656 C3655 1.524 . S
C3657 C3654 1.403 . S
C3657 C3658 1.392 . S
C3657 C3661 1.495 . S
C3658 C3657 1.392 . S
C3658 C3659 1.385 . S
C3658 C3660 1.478 . S
C3659 H3653 0.930 . S
C3659 C3655 1.400 . S
C3659 C3658 1.385 . S
C3660 C3658 1.478 . S
C3660 C3662 1.381 . S
C3660 C3666 1.383 . S
C3661 C3657 1.495 . S
C3661 H3667 0.959 . S
C3661 H3668 0.961 . S
C3661 H3669 0.960 . S
C3662 C3660 1.381 . S
C3662 C3663 1.394 . S
C3662 H3670 0.930 . S
C3663 C3662 1.394 . S
C3663 C3664 1.383 . S
C3663 H3671 0.929 . S
C3664 C3663 1.383 . S
C3664 C3665 1.377 . S
C3665 H3649 0.930 . S
C3665 C3664 1.377 . S
C3665 C3666 1.379 . S
C3666 H3650 0.931 . S
C3666 C3660 1.383 . S
C3666 C3665 1.379 . S
H3667 C3661 0.959 . S
H3668 C3661 0.961 . S
H3669 C3661 0.960 . S
H3670 C3662 0.930 . S
H3671 C3663 0.929 . S
H3672 C3680 0.929 . S
H3673 C3682 0.930 . S
H3674 C3684 0.930 . S
H3675 C3687 0.929 . S
H3676 C3690 0.930 . S
H3677 C3692 0.960 . S
H3678 C3692 0.960 . S
H3679 C3692 0.960 . S
C3680 H3672 0.929 . S
C3680 C3681 1.377 . S
C3680 C3682 1.384 . S
C3681 C3680 1.377 . S
C3681 C3687 1.390 . S
C3682 H3673 0.930 . S
C3682 C3680 1.384 . S
C3682 C3683 1.372 . S
C3683 C3682 1.372 . S
C3683 C3684 1.400 . S
C3683 C3688 1.490 . S
C3684 H3674 0.930 . S
C3684 C3683 1.400 . S
C3684 C3687 1.386 . S
H3685 C3701 0.930 . S
H3686 C3702 0.931 . S
C3687 H3675 0.929 . S
C3687 C3681 1.390 . S
C3687 C3684 1.386 . S
C3688 C3683 1.490 . S
C3688 C3690 1.395 . S
C3688 C3691 1.403 . S
H3689 C3695 0.930 . S
C3690 H3676 0.930 . S
C3690 C3688 1.395 . S
C3690 C3693 1.403 . S
C3691 C3688 1.403 . S
C3691 C3692 1.524 . S
C3691 C3695 1.400 . S
C3692 H3677 0.960 . S
C3692 H3678 0.960 . S
C3692 H3679 0.960 . S
C3692 C3691 1.524 . S
C3693 C3690 1.403 . S
C3693 C3694 1.392 . S
C3693 C3697 1.495 . S
C3694 C3693 1.392 . S
C3694 C3695 1.385 . S
C3694 C3696 1.478 . S
C3695 H3689 0.930 . S
C3695 C3691 1.400 . S
C3695 C3694 1.385 . S
C3696 C3694 1.478 . S
C3696 C3698 1.381 . S
C3696 C3702 1.383 . S
C3697 C3693 1.495 . S
C3697 H3703 0.959 . S
C3697 H3704 0.961 . S
C3697 H3705 0.960 . S
C3698 C3696 1.381 . S
C3698 C3699 1.394 . S
C3698 H3706 0.930 . S
C3699 C3698 1.394 . S
C3699 C3700 1.383 . S
C3699 H3707 0.929 . S
C3700 C3699 1.383 . S
C3700 C3701 1.377 . S
C3701 H3685 0.930 . S
C3701 C3700 1.377 . S
C3701 C3702 1.379 . S
C3702 H3686 0.931 . S
C3702 C3696 1.383 . S
C3702 C3701 1.379 . S
H3703 C3697 0.959 . S
H3704 C3697 0.961 . S
H3705 C3697 0.960 . S
H3706 C3698 0.930 . S
H3707 C3699 0.929 . S
H3708 C3716 0.929 . S
H3709 C3718 0.930 . S
H3710 C3720 0.930 . S
H3711 C3723 0.929 . S
H3712 C3726 0.930 . S
H3713 C3728 0.960 . S
H3714 C3728 0.960 . S
H3715 C3728 0.960 . S
C3716 H3708 0.929 . S
C3716 C3717 1.377 . S
C3716 C3718 1.384 . S
C3717 C3716 1.377 . S
C3717 C3723 1.390 . S
C3718 H3709 0.930 . S
C3718 C3716 1.384 . S
C3718 C3719 1.372 . S
C3719 C3718 1.372 . S
C3719 C3720 1.400 . S
C3719 C3724 1.490 . S
C3720 H3710 0.930 . S
C3720 C3719 1.400 . S
C3720 C3723 1.386 . S
H3721 C3737 0.930 . S
H3722 C3738 0.931 . S
C3723 H3711 0.929 . S
C3723 C3717 1.390 . S
C3723 C3720 1.386 . S
C3724 C3719 1.490 . S
C3724 C3726 1.395 . S
C3724 C3727 1.403 . S
H3725 C3731 0.930 . S
C3726 H3712 0.930 . S
C3726 C3724 1.395 . S
C3726 C3729 1.403 . S
C3727 C3724 1.403 . S
C3727 C3728 1.524 . S
C3727 C3731 1.400 . S
C3728 H3713 0.960 . S
C3728 H3714 0.960 . S
C3728 H3715 0.960 . S
C3728 C3727 1.524 . S
C3729 C3726 1.403 . S
C3729 C3730 1.392 . S
C3729 C3733 1.495 . S
C3730 C3729 1.392 . S
C3730 C3731 1.385 . S
C3730 C3732 1.478 . S
C3731 H3725 0.930 . S
C3731 C3727 1.400 . S
C3731 C3730 1.385 . S
C3732 C3730 1.478 . S
C3732 C3734 1.381 . S
C3732 C3738 1.383 . S
C3733 C3729 1.495 . S
C3733 H3739 0.959 . S
C3733 H3740 0.961 . S
C3733 H3741 0.960 . S
C3734 C3732 1.381 . S
C3734 C3735 1.394 . S
C3734 H3742 0.930 . S
C3735 C3734 1.394 . S
C3735 C3736 1.383 . S
C3735 H3743 0.929 . S
C3736 C3735 1.383 . S
C3736 C3737 1.377 . S
C3737 H3721 0.930 . S
C3737 C3736 1.377 . S
C3737 C3738 1.379 . S
C3738 H3722 0.931 . S
C3738 C3732 1.383 . S
C3738 C3737 1.379 . S
H3739 C3733 0.959 . S
H3740 C3733 0.961 . S
H3741 C3733 0.960 . S
H3742 C3734 0.930 . S
H3743 C3735 0.929 . S
H3744 C3752 0.929 . S
H3745 C3754 0.930 . S
H3746 C3756 0.930 . S
H3747 C3759 0.902 1_455 S
H3748 C3762 0.930 . S
H3749 C3764 0.960 . S
H3750 C3764 0.960 . S
H3751 C3764 0.960 . S
C3752 H3744 0.929 . S
C3752 C3753 1.377 . S
C3752 C3754 1.384 . S
C3753 C3752 1.377 . S
C3753 C3759 1.447 . S
C3754 H3745 0.930 . S
C3754 C3752 1.384 . S
C3754 C3755 1.372 . S
C3755 C3754 1.372 . S
C3755 C3756 1.400 1_655 S
C3755 C3760 1.509 . S
C3756 H3746 0.930 . S
C3756 C3755 1.400 1_455 S
C3756 C3759 1.360 1_455 S
H3757 C3773 0.930 . S
H3758 C3774 0.931 . S
C3759 H3747 0.902 1_655 S
C3759 C3753 1.447 . S
C3759 C3756 1.360 1_655 S
C3760 C3755 1.509 . S
C3760 C3762 1.424 . S
C3760 C3763 1.356 1_655 S
H3761 C3767 0.930 . S
C3762 H3748 0.930 . S
C3762 C3760 1.424 . S
C3762 C3765 1.403 . S
C3763 C3760 1.356 1_455 S
C3763 C3764 1.524 . S
C3763 C3767 1.400 . S
C3764 H3749 0.960 . S
C3764 H3750 0.960 . S
C3764 H3751 0.960 . S
C3764 C3763 1.524 . S
C3765 C3762 1.403 . S
C3765 C3766 1.392 1_655 S
C3765 C3769 1.495 . S
C3766 C3765 1.392 1_455 S
C3766 C3767 1.385 . S
C3766 C3768 1.478 . S
C3767 H3761 0.930 . S
C3767 C3763 1.400 . S
C3767 C3766 1.385 . S
C3768 C3766 1.478 . S
C3768 C3770 1.381 . S
C3768 C3774 1.383 . S
C3769 C3765 1.495 . S
C3769 H3775 0.959 . S
C3769 H3776 0.961 . S
C3769 H3777 0.960 . S
C3770 C3768 1.381 . S
C3770 C3771 1.394 . S
C3770 H3778 0.930 1_455 S
C3771 C3770 1.394 . S
C3771 C3772 1.383 . S
C3771 H3779 0.929 . S
C3772 C3771 1.383 . S
C3772 C3773 1.377 . S
C3773 H3757 0.930 . S
C3773 C3772 1.377 . S
C3773 C3774 1.379 . S
C3774 H3758 0.931 . S
C3774 C3768 1.383 . S
C3774 C3773 1.379 . S
H3775 C3769 0.959 . S
H3776 C3769 0.961 . S
H3777 C3769 0.960 . S
H3778 C3770 0.930 1_655 S
H3779 C3771 0.929 . S
H3780 C3788 0.929 . S
H3781 C3790 0.930 . S
H3782 C3792 0.930 . S
H3783 C3795 0.929 . S
H3784 C3798 0.930 . S
H3785 C3800 0.960 . S
H3786 C3800 0.960 . S
H3787 C3800 0.960 . S
C3788 H3780 0.929 . S
C3788 C3789 1.377 . S
C3788 C3790 1.384 . S
C3789 C3788 1.377 . S
C3789 C3795 1.390 . S
C3790 H3781 0.930 . S
C3790 C3788 1.384 . S
C3790 C3791 1.372 . S
C3791 C3790 1.372 . S
C3791 C3792 1.400 . S
C3791 C3796 1.490 . S
C3792 H3782 0.930 . S
C3792 C3791 1.400 . S
C3792 C3795 1.386 . S
H3793 C3809 0.930 . S
H3794 C3810 0.931 . S
C3795 H3783 0.929 . S
C3795 C3789 1.390 . S
C3795 C3792 1.386 . S
C3796 C3791 1.490 . S
C3796 C3798 1.395 . S
C3796 C3799 1.403 . S
H3797 C3803 0.930 . S
C3798 H3784 0.930 . S
C3798 C3796 1.395 . S
C3798 C3801 1.403 . S
C3799 C3796 1.403 . S
C3799 C3800 1.524 . S
C3799 C3803 1.400 . S
C3800 H3785 0.960 . S
C3800 H3786 0.960 . S
C3800 H3787 0.960 . S
C3800 C3799 1.524 . S
C3801 C3798 1.403 . S
C3801 C3802 1.392 . S
C3801 C3805 1.495 . S
C3802 C3801 1.392 . S
C3802 C3803 1.385 . S
C3802 C3804 1.478 . S
C3803 H3797 0.930 . S
C3803 C3799 1.400 . S
C3803 C3802 1.385 . S
C3804 C3802 1.478 . S
C3804 C3806 1.381 . S
C3804 C3810 1.383 . S
C3805 C3801 1.495 . S
C3805 H3811 0.959 . S
C3805 H3812 0.961 . S
C3805 H3813 0.960 . S
C3806 C3804 1.381 . S
C3806 C3807 1.394 . S
C3806 H3814 0.930 . S
C3807 C3806 1.394 . S
C3807 C3808 1.383 . S
C3807 H3815 0.929 . S
C3808 C3807 1.383 . S
C3808 C3809 1.377 . S
C3809 H3793 0.930 . S
C3809 C3808 1.377 . S
C3809 C3810 1.379 . S
C3810 H3794 0.931 . S
C3810 C3804 1.383 . S
C3810 C3809 1.379 . S
H3811 C3805 0.959 . S
H3812 C3805 0.961 . S
H3813 C3805 0.960 . S
H3814 C3806 0.930 . S
H3815 C3807 0.929 . S
H3816 C3824 0.929 . S
H3817 C3826 0.930 . S
H3818 C3828 0.930 . S
H3819 C3831 0.929 . S
H3820 C3834 0.930 . S
H3821 C3836 0.960 . S
H3822 C3836 0.960 . S
H3823 C3836 0.916 1_565 S
C3824 H3816 0.929 . S
C3824 C3825 1.377 . S
C3824 C3826 1.384 . S
C3825 C3824 1.377 . S
C3825 C3831 1.390 . S
C3826 H3817 0.930 . S
C3826 C3824 1.384 . S
C3826 C3827 1.372 . S
C3827 C3826 1.372 . S
C3827 C3828 1.400 . S
C3827 C3832 1.490 . S
C3828 H3818 0.930 . S
C3828 C3827 1.400 . S
C3828 C3831 1.386 . S
H3829 C3845 0.930 . S
H3830 C3846 0.931 . S
C3831 H3819 0.929 . S
C3831 C3825 1.390 . S
C3831 C3828 1.386 . S
C3832 C3827 1.490 . S
C3832 C3834 1.395 . S
C3832 C3835 1.403 . S
H3833 C3839 0.930 . S
C3834 H3820 0.930 . S
C3834 C3832 1.395 . S
C3834 C3837 1.403 . S
C3835 C3832 1.403 . S
C3835 C3836 1.524 . S
C3835 C3839 1.400 . S
C3836 H3821 0.960 . S
C3836 H3822 0.960 . S
C3836 H3823 0.916 1_545 S
C3836 C3835 1.524 . S
C3837 C3834 1.403 . S
C3837 C3838 1.392 . S
C3837 C3841 1.495 . S
C3838 C3837 1.392 . S
C3838 C3839 1.385 . S
C3838 C3840 1.478 . S
C3839 H3833 0.930 . S
C3839 C3835 1.400 . S
C3839 C3838 1.385 . S
C3840 C3838 1.478 . S
C3840 C3842 1.381 . S
C3840 C3846 1.383 . S
C3841 C3837 1.495 . S
C3841 H3847 0.959 . S
C3841 H3848 0.961 . S
C3841 H3849 0.960 . S
C3842 C3840 1.381 . S
C3842 C3843 1.394 . S
C3842 H3850 0.930 . S
C3843 C3842 1.394 . S
C3843 C3844 1.383 . S
C3843 H3851 0.929 . S
C3844 C3843 1.383 . S
C3844 C3845 1.377 . S
C3845 H3829 0.930 . S
C3845 C3844 1.377 . S
C3845 C3846 1.379 . S
C3846 H3830 0.931 . S
C3846 C3840 1.383 . S
C3846 C3845 1.379 . S
H3847 C3841 0.959 . S
H3848 C3841 0.961 . S
H3849 C3841 0.960 . S
H3850 C3842 0.930 . S
H3851 C3843 0.929 . S
H3852 C3860 0.929 . S
H3853 C3862 0.930 . S
H3854 C3864 0.930 . S
H3855 C3867 0.929 . S
H3856 C3870 0.930 . S
H3857 C3872 0.960 . S
H3858 C3872 0.960 . S
H3859 C3872 0.960 . S
C3860 H3852 0.929 . S
C3860 C3861 1.377 . S
C3860 C3862 1.384 . S
C3861 C3860 1.377 . S
C3861 C3867 1.390 . S
C3862 H3853 0.930 . S
C3862 C3860 1.384 . S
C3862 C3863 1.372 . S
C3863 C3862 1.372 . S
C3863 C3864 1.400 . S
C3863 C3868 1.490 . S
C3864 H3854 0.930 . S
C3864 C3863 1.400 . S
C3864 C3867 1.386 . S
H3865 C3881 0.930 . S
H3866 C3882 0.931 . S
C3867 H3855 0.929 . S
C3867 C3861 1.390 . S
C3867 C3864 1.386 . S
C3868 C3863 1.490 . S
C3868 C3870 1.395 . S
C3868 C3871 1.403 . S
H3869 C3875 0.930 . S
C3870 H3856 0.930 . S
C3870 C3868 1.395 . S
C3870 C3873 1.403 . S
C3871 C3868 1.403 . S
C3871 C3872 1.524 . S
C3871 C3875 1.400 . S
C3872 H3857 0.960 . S
C3872 H3858 0.960 . S
C3872 H3859 0.960 . S
C3872 C3871 1.524 . S
C3873 C3870 1.403 . S
C3873 C3874 1.392 . S
C3873 C3877 1.495 . S
C3874 C3873 1.392 . S
C3874 C3875 1.385 . S
C3874 C3876 1.478 . S
C3875 H3869 0.930 . S
C3875 C3871 1.400 . S
C3875 C3874 1.385 . S
C3876 C3874 1.478 . S
C3876 C3878 1.381 . S
C3876 C3882 1.383 . S
C3877 C3873 1.495 . S
C3877 H3883 0.959 . S
C3877 H3884 0.961 . S
C3877 H3885 0.960 . S
C3878 C3876 1.381 . S
C3878 C3879 1.394 . S
C3878 H3886 0.930 . S
C3879 C3878 1.394 . S
C3879 C3880 1.383 . S
C3879 H3887 0.929 . S
C3880 C3879 1.383 . S
C3880 C3881 1.377 . S
C3881 H3865 0.930 . S
C3881 C3880 1.377 . S
C3881 C3882 1.379 . S
C3882 H3866 0.931 . S
C3882 C3876 1.383 . S
C3882 C3881 1.379 . S
H3883 C3877 0.959 . S
H3884 C3877 0.961 . S
H3885 C3877 0.960 . S
H3886 C3878 0.930 . S
H3887 C3879 0.929 . S
H3888 C3896 0.941 . S
H3889 C3898 0.930 . S
H3890 C3900 0.930 . S
H3891 C3903 0.929 . S
H3892 C3906 0.930 . S
H3893 C3908 0.960 . S
H3894 C3908 0.960 . S
H3895 C3908 0.960 . S
C3896 H3888 0.941 . S
C3896 C3897 1.377 . S
C3896 C3898 1.384 1_655 S
C3897 C3896 1.377 . S
C3897 C3903 1.390 . S
C3898 H3889 0.930 . S
C3898 C3896 1.384 1_455 S
C3898 C3899 1.389 . S
C3899 C3898 1.389 . S
C3899 C3900 1.364 1_455 S
C3899 C3904 1.511 . S
C3900 H3890 0.930 . S
C3900 C3899 1.364 1_655 S
C3900 C3903 1.386 . S
H3901 C3917 0.930 . S
H3902 C3918 0.931 . S
C3903 H3891 0.929 . S
C3903 C3897 1.390 . S
C3903 C3900 1.386 . S
C3904 C3899 1.511 . S
C3904 C3906 1.395 . S
C3904 C3907 1.403 1_455 S
H3905 C3911 0.930 1_655 S
C3906 H3892 0.930 . S
C3906 C3904 1.395 . S
C3906 C3909 1.403 . S
C3907 C3904 1.403 1_655 S
C3907 C3908 1.524 . S
C3907 C3911 1.400 1_655 S
C3908 H3893 0.960 . S
C3908 H3894 0.960 . S
C3908 H3895 0.960 . S
C3908 C3907 1.524 . S
C3909 C3906 1.403 . S
C3909 C3910 1.392 . S
C3909 C3913 1.495 . S
C3910 C3909 1.392 . S
C3910 C3911 1.385 . S
C3910 C3912 1.478 . S
C3911 H3905 0.930 1_455 S
C3911 C3907 1.400 1_455 S
C3911 C3910 1.385 . S
C3912 C3910 1.478 . S
C3912 C3914 1.381 . S
C3912 C3918 1.383 . S
C3913 C3909 1.495 . S
C3913 H3919 0.959 . S
C3913 H3920 0.961 . S
C3913 H3921 0.960 . S
C3914 C3912 1.381 . S
C3914 C3915 1.394 . S
C3914 H3922 0.930 . S
C3915 C3914 1.394 . S
C3915 C3916 1.383 . S
C3915 H3923 0.929 . S
C3916 C3915 1.383 . S
C3916 C3917 1.377 . S
C3917 H3901 0.930 . S
C3917 C3916 1.377 . S
C3917 C3918 1.379 . S
C3918 H3902 0.931 . S
C3918 C3912 1.383 . S
C3918 C3917 1.379 . S
H3919 C3913 0.959 . S
H3920 C3913 0.961 . S
H3921 C3913 0.960 . S
H3922 C3914 0.930 . S
H3923 C3915 0.929 . S
H3924 C3932 0.929 . S
H3925 C3934 0.930 . S
H3926 C3936 0.930 . S
H3927 C3939 0.929 . S
H3928 C3942 0.930 . S
H3929 C3944 0.960 . S
H3930 C3944 0.960 . S
H3931 C3944 0.960 . S
C3932 H3924 0.929 . S
C3932 C3933 1.377 . S
C3932 C3934 1.384 . S
C3933 C3932 1.377 . S
C3933 C3939 1.390 . S
C3934 H3925 0.930 . S
C3934 C3932 1.384 . S
C3934 C3935 1.372 . S
C3935 C3934 1.372 . S
C3935 C3936 1.400 . S
C3935 C3940 1.490 . S
C3936 H3926 0.930 . S
C3936 C3935 1.400 . S
C3936 C3939 1.386 . S
H3937 C3953 0.930 . S
H3938 C3954 0.931 . S
C3939 H3927 0.929 . S
C3939 C3933 1.390 . S
C3939 C3936 1.386 . S
C3940 C3935 1.490 . S
C3940 C3942 1.395 . S
C3940 C3943 1.403 . S
H3941 C3947 0.930 . S
C3942 H3928 0.930 . S
C3942 C3940 1.395 . S
C3942 C3945 1.403 . S
C3943 C3940 1.403 . S
C3943 C3944 1.524 . S
C3943 C3947 1.400 . S
C3944 H3929 0.960 . S
C3944 H3930 0.960 . S
C3944 H3931 0.960 . S
C3944 C3943 1.524 . S
C3945 C3942 1.403 . S
C3945 C3946 1.392 . S
C3945 C3949 1.495 . S
C3946 C3945 1.392 . S
C3946 C3947 1.385 . S
C3946 C3948 1.478 . S
C3947 H3941 0.930 . S
C3947 C3943 1.400 . S
C3947 C3946 1.385 . S
C3948 C3946 1.478 . S
C3948 C3950 1.381 . S
C3948 C3954 1.383 . S
C3949 C3945 1.495 . S
C3949 H3955 0.959 . S
C3949 H3956 0.961 . S
C3949 H3957 0.960 . S
C3950 C3948 1.381 . S
C3950 C3951 1.394 . S
C3950 H3958 0.930 . S
C3951 C3950 1.394 . S
C3951 C3952 1.383 . S
C3951 H3959 0.929 . S
C3952 C3951 1.383 . S
C3952 C3953 1.377 . S
C3953 H3937 0.930 . S
C3953 C3952 1.377 . S
C3953 C3954 1.379 . S
C3954 H3938 0.931 . S
C3954 C3948 1.383 . S
C3954 C3953 1.379 . S
H3955 C3949 0.959 . S
H3956 C3949 0.961 . S
H3957 C3949 0.960 . S
H3958 C3950 0.930 . S
H3959 C3951 0.929 . S
H3960 C3968 0.929 . S
H3961 C3970 0.930 . S
H3962 C3972 0.930 . S
H3963 C3975 0.929 . S
H3964 C3978 0.930 . S
H3965 C3980 0.960 . S
H3966 C3980 0.960 . S
H3967 C3980 0.960 . S
C3968 H3960 0.929 . S
C3968 C3969 1.377 . S
C3968 C3970 1.384 . S
C3969 C3968 1.377 . S
C3969 C3975 1.390 . S
C3970 H3961 0.930 . S
C3970 C3968 1.384 . S
C3970 C3971 1.372 . S
C3971 C3970 1.372 . S
C3971 C3972 1.400 . S
C3971 C3976 1.490 . S
C3972 H3962 0.930 . S
C3972 C3971 1.400 . S
C3972 C3975 1.386 . S
H3973 C3989 0.930 . S
H3974 C3990 0.931 . S
C3975 H3963 0.929 . S
C3975 C3969 1.390 . S
C3975 C3972 1.386 . S
C3976 C3971 1.490 . S
C3976 C3978 1.395 . S
C3976 C3979 1.403 . S
H3977 C3983 0.930 . S
C3978 H3964 0.930 . S
C3978 C3976 1.395 . S
C3978 C3981 1.403 . S
C3979 C3976 1.403 . S
C3979 C3980 1.524 . S
C3979 C3983 1.400 . S
C3980 H3965 0.960 . S
C3980 H3966 0.960 . S
C3980 H3967 0.960 . S
C3980 C3979 1.524 . S
C3981 C3978 1.403 . S
C3981 C3982 1.392 . S
C3981 C3985 1.495 . S
C3982 C3981 1.392 . S
C3982 C3983 1.385 . S
C3982 C3984 1.478 . S
C3983 H3977 0.930 . S
C3983 C3979 1.400 . S
C3983 C3982 1.385 . S
C3984 C3982 1.478 . S
C3984 C3986 1.381 . S
C3984 C3990 1.383 . S
C3985 C3981 1.495 . S
C3985 H3991 0.959 . S
C3985 H3992 0.961 . S
C3985 H3993 0.960 . S
C3986 C3984 1.381 . S
C3986 C3987 1.394 . S
C3986 H3994 0.930 . S
C3987 C3986 1.394 . S
C3987 C3988 1.383 . S
C3987 H3995 0.929 . S
C3988 C3987 1.383 . S
C3988 C3989 1.377 . S
C3989 H3973 0.930 . S
C3989 C3988 1.377 . S
C3989 C3990 1.379 . S
C3990 H3974 0.931 . S
C3990 C3984 1.383 . S
C3990 C3989 1.379 . S
H3991 C3985 0.959 . S
H3992 C3985 0.961 . S
H3993 C3985 0.960 . S
H3994 C3986 0.930 . S
H3995 C3987 0.929 . S
H3996 C4004 0.929 . S
H3997 C4006 0.930 . S
H3998 C4008 0.930 . S
H3999 C4011 0.929 . S
H4000 C4014 0.930 . S
H4001 C4016 0.960 . S
H4002 C4016 0.960 . S
H4003 C4016 0.960 . S
C4004 H3996 0.929 . S
C4004 C4005 1.377 . S
C4004 C4006 1.384 . S
C4005 C4004 1.377 . S
C4005 C4011 1.390 . S
C4006 H3997 0.930 . S
C4006 C4004 1.384 . S
C4006 C4007 1.372 . S
C4007 C4006 1.372 . S
C4007 C4008 1.400 . S
C4007 C4012 1.490 . S
C4008 H3998 0.930 . S
C4008 C4007 1.400 . S
C4008 C4011 1.386 . S
H4009 C4025 0.930 . S
H4010 C4026 0.931 . S
C4011 H3999 0.929 . S
C4011 C4005 1.390 . S
C4011 C4008 1.386 . S
C4012 C4007 1.490 . S
C4012 C4014 1.395 . S
C4012 C4015 1.403 . S
H4013 C4019 0.930 . S
C4014 H4000 0.930 . S
C4014 C4012 1.395 . S
C4014 C4017 1.403 . S
C4015 C4012 1.403 . S
C4015 C4016 1.524 . S
C4015 C4019 1.400 . S
C4016 H4001 0.960 . S
C4016 H4002 0.960 . S
C4016 H4003 0.960 . S
C4016 C4015 1.524 . S
C4017 C4014 1.403 . S
C4017 C4018 1.392 . S
C4017 C4021 1.495 . S
C4018 C4017 1.392 . S
C4018 C4019 1.385 . S
C4018 C4020 1.478 . S
C4019 H4013 0.930 . S
C4019 C4015 1.400 . S
C4019 C4018 1.385 . S
C4020 C4018 1.478 . S
C4020 C4022 1.381 . S
C4020 C4026 1.383 . S
C4021 C4017 1.495 . S
C4021 H4027 0.959 . S
C4021 H4028 0.961 . S
C4021 H4029 0.960 . S
C4022 C4020 1.381 . S
C4022 C4023 1.394 . S
C4022 H4030 0.930 . S
C4023 C4022 1.394 . S
C4023 C4024 1.383 . S
C4023 H4031 0.929 . S
C4024 C4023 1.383 . S
C4024 C4025 1.377 . S
C4025 H4009 0.930 . S
C4025 C4024 1.377 . S
C4025 C4026 1.379 . S
C4026 H4010 0.931 . S
C4026 C4020 1.383 . S
C4026 C4025 1.379 . S
H4027 C4021 0.959 . S
H4028 C4021 0.961 . S
H4029 C4021 0.960 . S
H4030 C4022 0.930 . S
H4031 C4023 0.929 . S
H4032 C4040 0.929 . S
H4033 C4042 0.930 . S
H4034 C4044 0.930 . S
H4035 C4047 0.929 . S
H4036 C4050 0.930 . S
H4037 C4052 0.960 . S
H4038 C4052 0.960 . S
H4039 C4052 0.960 . S
C4040 H4032 0.929 . S
C4040 C4041 1.377 . S
C4040 C4042 1.384 . S
C4041 C4040 1.377 . S
C4041 C4047 1.390 . S
C4042 H4033 0.930 . S
C4042 C4040 1.384 . S
C4042 C4043 1.372 . S
C4043 C4042 1.372 . S
C4043 C4044 1.400 . S
C4043 C4048 1.490 . S
C4044 H4034 0.930 . S
C4044 C4043 1.400 . S
C4044 C4047 1.386 . S
H4045 C4061 0.925 1_565 S
H4046 C4062 0.928 . S
C4047 H4035 0.929 . S
C4047 C4041 1.390 . S
C4047 C4044 1.386 . S
C4048 C4043 1.490 . S
C4048 C4050 1.395 1_565 S
C4048 C4051 1.403 . S
H4049 C4055 0.930 . S
C4050 H4036 0.930 . S
C4050 C4048 1.395 1_545 S
C4050 C4053 1.403 . S
C4051 C4048 1.403 . S
C4051 C4052 1.524 . S
C4051 C4055 1.400 . S
C4052 H4037 0.960 . S
C4052 H4038 0.960 . S
C4052 H4039 0.960 . S
C4052 C4051 1.524 . S
C4053 C4050 1.403 . S
C4053 C4054 1.392 . S
C4053 C4057 1.495 . S
C4054 C4053 1.392 . S
C4054 C4055 1.385 1_545 S
C4054 C4056 1.478 . S
C4055 H4049 0.930 . S
C4055 C4051 1.400 . S
C4055 C4054 1.385 1_565 S
C4056 C4054 1.478 . S
C4056 C4058 1.381 . S
C4056 C4062 1.383 1_545 S
C4057 C4053 1.495 . S
C4057 H4063 0.959 . S
C4057 H4064 0.961 . S
C4057 H4065 0.960 . S
C4058 C4056 1.381 . S
C4058 C4059 1.394 . S
C4058 H4066 0.930 . S
C4059 C4058 1.394 . S
C4059 C4060 1.383 . S
C4059 H4067 0.929 . S
C4060 C4059 1.383 . S
C4060 C4061 1.377 . S
C4061 H4045 0.925 1_545 S
C4061 C4060 1.377 . S
C4061 C4062 1.382 1_545 S
C4062 H4046 0.928 . S
C4062 C4056 1.383 1_565 S
C4062 C4061 1.382 1_565 S
H4063 C4057 0.959 . S
H4064 C4057 0.961 . S
H4065 C4057 0.960 . S
H4066 C4058 0.930 . S
H4067 C4059 0.929 . S
H4068 C4076 0.929 . S
H4069 C4078 0.930 . S
H4070 C4080 0.930 . S
H4071 C4083 0.929 . S
H4072 C4086 0.930 . S
H4073 C4088 0.960 . S
H4074 C4088 0.960 . S
H4075 C4088 0.960 . S
C4076 H4068 0.929 . S
C4076 C4077 1.377 . S
C4076 C4078 1.384 . S
C4077 C4076 1.377 . S
C4077 C4083 1.390 1_556 S
C4078 H4069 0.930 . S
C4078 C4076 1.384 . S
C4078 C4079 1.372 . S
C4079 C4078 1.372 . S
C4079 C4080 1.400 1_556 S
C4079 C4084 1.490 . S
C4080 H4070 0.930 . S
C4080 C4079 1.400 1_554 S
C4080 C4083 1.386 . S
H4081 C4097 0.930 . S
H4082 C4098 0.931 . S
C4083 H4071 0.929 . S
C4083 C4077 1.390 1_554 S
C4083 C4080 1.386 . S
C4084 C4079 1.490 . S
C4084 C4086 1.395 . S
C4084 C4087 1.403 1_556 S
H4085 C4091 0.930 . S
C4086 H4072 0.930 . S
C4086 C4084 1.395 . S
C4086 C4089 1.403 . S
C4087 C4084 1.403 1_554 S
C4087 C4088 1.524 . S
C4087 C4091 1.400 . S
C4088 H4073 0.960 . S
C4088 H4074 0.960 . S
C4088 H4075 0.960 . S
C4088 C4087 1.524 . S
C4089 C4086 1.403 . S
C4089 C4090 1.392 . S
C4089 C4093 1.495 . S
C4090 C4089 1.392 . S
C4090 C4091 1.385 1_556 S
C4090 C4092 1.478 . S
C4091 H4085 0.930 . S
C4091 C4087 1.400 . S
C4091 C4090 1.385 1_554 S
C4092 C4090 1.478 . S
C4092 C4094 1.381 . S
C4092 C4098 1.383 1_556 S
C4093 C4089 1.495 . S
C4093 H4099 0.959 . S
C4093 H4100 0.961 . S
C4093 H4101 0.960 . S
C4094 C4092 1.381 . S
C4094 C4095 1.394 . S
C4094 H4102 0.930 . S
C4095 C4094 1.394 . S
C4095 C4096 1.383 1_556 S
C4095 H4103 0.929 . S
C4096 C4095 1.383 1_554 S
C4096 C4097 1.377 . S
C4097 H4081 0.930 . S
C4097 C4096 1.377 . S
C4097 C4098 1.379 . S
C4098 H4082 0.931 . S
C4098 C4092 1.383 1_554 S
C4098 C4097 1.379 . S
H4099 C4093 0.959 . S
H4100 C4093 0.961 . S
H4101 C4093 0.960 . S
H4102 C4094 0.930 . S
H4103 C4095 0.929 . S
H4104 C4112 0.929 . S
H4105 C4114 0.930 . S
H4106 C4116 0.930 . S
H4107 C4119 0.929 . S
H4108 C4122 0.930 . S
H4109 C4124 0.960 . S
H4110 C4124 0.960 . S
H4111 C4124 0.960 . S
C4112 H4104 0.929 . S
C4112 C4113 1.377 . S
C4112 C4114 1.384 . S
C4113 C4112 1.377 . S
C4113 C4119 1.390 . S
C4114 H4105 0.930 . S
C4114 C4112 1.384 . S
C4114 C4115 1.372 . S
C4115 C4114 1.372 . S
C4115 C4116 1.400 . S
C4115 C4120 1.490 . S
C4116 H4106 0.930 . S
C4116 C4115 1.400 . S
C4116 C4119 1.386 . S
H4117 C4133 0.930 . S
H4118 C4134 0.931 . S
C4119 H4107 0.929 . S
C4119 C4113 1.390 . S
C4119 C4116 1.386 . S
C4120 C4115 1.490 . S
C4120 C4122 1.395 . S
C4120 C4123 1.403 . S
H4121 C4127 0.930 . S
C4122 H4108 0.930 . S
C4122 C4120 1.395 . S
C4122 C4125 1.403 . S
C4123 C4120 1.403 . S
C4123 C4124 1.524 . S
C4123 C4127 1.400 . S
C4124 H4109 0.960 . S
C4124 H4110 0.960 . S
C4124 H4111 0.960 . S
C4124 C4123 1.524 . S
C4125 C4122 1.403 . S
C4125 C4126 1.392 . S
C4125 C4129 1.495 . S
C4126 C4125 1.392 . S
C4126 C4127 1.385 . S
C4126 C4128 1.478 . S
C4127 H4121 0.930 . S
C4127 C4123 1.400 . S
C4127 C4126 1.385 . S
C4128 C4126 1.478 . S
C4128 C4130 1.381 . S
C4128 C4134 1.383 . S
C4129 C4125 1.495 . S
C4129 H4135 0.959 . S
C4129 H4136 0.961 . S
C4129 H4137 0.960 . S
C4130 C4128 1.381 . S
C4130 C4131 1.394 . S
C4130 H4138 0.930 . S
C4131 C4130 1.394 . S
C4131 C4132 1.383 . S
C4131 H4139 0.929 . S
C4132 C4131 1.383 . S
C4132 C4133 1.377 . S
C4133 H4117 0.930 . S
C4133 C4132 1.377 . S
C4133 C4134 1.379 . S
C4134 H4118 0.931 . S
C4134 C4128 1.383 . S
C4134 C4133 1.379 . S
H4135 C4129 0.959 . S
H4136 C4129 0.961 . S
H4137 C4129 0.960 . S
H4138 C4130 0.930 . S
H4139 C4131 0.929 . S
H4140 C4148 0.929 . S
H4141 C4150 0.930 . S
H4142 C4152 0.930 . S
H4143 C4155 0.929 . S
H4144 C4158 0.930 . S
H4145 C4160 0.960 . S
H4146 C4160 0.960 . S
H4147 C4160 0.960 . S
C4148 H4140 0.929 . S
C4148 C4149 1.377 . S
C4148 C4150 1.384 . S
C4149 C4148 1.377 . S
C4149 C4155 1.390 . S
C4150 H4141 0.930 . S
C4150 C4148 1.384 . S
C4150 C4151 1.372 . S
C4151 C4150 1.372 . S
C4151 C4152 1.400 . S
C4151 C4156 1.490 . S
C4152 H4142 0.930 . S
C4152 C4151 1.400 . S
C4152 C4155 1.386 . S
H4153 C4169 0.930 . S
H4154 C4170 0.931 . S
C4155 H4143 0.929 . S
C4155 C4149 1.390 . S
C4155 C4152 1.386 . S
C4156 C4151 1.490 . S
C4156 C4158 1.395 . S
C4156 C4159 1.403 . S
H4157 C4163 0.930 . S
C4158 H4144 0.930 . S
C4158 C4156 1.395 . S
C4158 C4161 1.403 . S
C4159 C4156 1.403 . S
C4159 C4160 1.524 . S
C4159 C4163 1.400 . S
C4160 H4145 0.960 . S
C4160 H4146 0.960 . S
C4160 H4147 0.960 . S
C4160 C4159 1.524 . S
C4161 C4158 1.403 . S
C4161 C4162 1.392 . S
C4161 C4165 1.495 . S
C4162 C4161 1.392 . S
C4162 C4163 1.385 . S
C4162 C4164 1.478 . S
C4163 H4157 0.930 . S
C4163 C4159 1.400 . S
C4163 C4162 1.385 . S
C4164 C4162 1.478 . S
C4164 C4166 1.381 . S
C4164 C4170 1.383 . S
C4165 C4161 1.495 . S
C4165 H4171 0.959 . S
C4165 H4172 0.961 . S
C4165 H4173 0.960 . S
C4166 C4164 1.381 . S
C4166 C4167 1.394 1_655 S
C4166 H4174 0.930 . S
C4167 C4166 1.394 1_455 S
C4167 C4168 1.383 . S
C4167 H4175 0.929 . S
C4168 C4167 1.383 . S
C4168 C4169 1.377 . S
C4169 H4153 0.930 . S
C4169 C4168 1.377 . S
C4169 C4170 1.379 1_455 S
C4170 H4154 0.931 . S
C4170 C4164 1.383 . S
C4170 C4169 1.379 1_655 S
H4171 C4165 0.959 . S
H4172 C4165 0.961 . S
H4173 C4165 0.960 . S
H4174 C4166 0.930 . S
H4175 C4167 0.929 . S
H4176 C4184 0.929 . S
H4177 C4186 0.930 . S
H4178 C4188 0.930 . S
H4179 C4191 0.929 . S
H4180 C4194 0.930 . S
H4181 C4196 0.960 . S
H4182 C4196 0.960 . S
H4183 C4196 0.960 . S
C4184 H4176 0.929 . S
C4184 C4185 1.377 . S
C4184 C4186 1.384 . S
C4185 C4184 1.377 . S
C4185 C4191 1.390 . S
C4186 H4177 0.930 . S
C4186 C4184 1.384 . S
C4186 C4187 1.372 . S
C4187 C4186 1.372 . S
C4187 C4188 1.400 . S
C4187 C4192 1.490 . S
C4188 H4178 0.930 . S
C4188 C4187 1.400 . S
C4188 C4191 1.386 . S
H4189 C4205 0.930 . S
H4190 C4206 0.931 . S
C4191 H4179 0.929 . S
C4191 C4185 1.390 . S
C4191 C4188 1.386 . S
C4192 C4187 1.490 . S
C4192 C4194 1.395 . S
C4192 C4195 1.403 . S
H4193 C4199 0.930 . S
C4194 H4180 0.930 . S
C4194 C4192 1.395 . S
C4194 C4197 1.403 . S
C4195 C4192 1.403 . S
C4195 C4196 1.524 . S
C4195 C4199 1.400 . S
C4196 H4181 0.960 . S
C4196 H4182 0.960 . S
C4196 H4183 0.960 . S
C4196 C4195 1.524 . S
C4197 C4194 1.403 . S
C4197 C4198 1.392 . S
C4197 C4201 1.495 . S
C4198 C4197 1.392 . S
C4198 C4199 1.385 . S
C4198 C4200 1.478 . S
C4199 H4193 0.930 . S
C4199 C4195 1.400 . S
C4199 C4198 1.385 . S
C4200 C4198 1.478 . S
C4200 C4202 1.381 . S
C4200 C4206 1.383 . S
C4201 C4197 1.495 . S
C4201 H4207 0.959 . S
C4201 H4208 0.961 . S
C4201 H4209 0.960 . S
C4202 C4200 1.381 . S
C4202 C4203 1.394 . S
C4202 H4210 0.930 . S
C4203 C4202 1.394 . S
C4203 C4204 1.383 . S
C4203 H4211 0.929 . S
C4204 C4203 1.383 . S
C4204 C4205 1.377 . S
C4205 H4189 0.930 . S
C4205 C4204 1.377 . S
C4205 C4206 1.379 . S
C4206 H4190 0.931 . S
C4206 C4200 1.383 . S
C4206 C4205 1.379 . S
H4207 C4201 0.959 . S
H4208 C4201 0.961 . S
H4209 C4201 0.960 . S
H4210 C4202 0.930 . S
H4211 C4203 0.929 . S
H4212 C4220 0.929 . S
H4213 C4222 0.930 . S
H4214 C4224 0.930 . S
H4215 C4227 0.929 . S
H4216 C4230 0.930 . S
H4217 C4232 0.960 . S
H4218 C4232 0.960 . S
H4219 C4232 0.960 . S
C4220 H4212 0.929 . S
C4220 C4221 1.377 . S
C4220 C4222 1.384 . S
C4221 C4220 1.377 . S
C4221 C4227 1.390 . S
C4222 H4213 0.930 . S
C4222 C4220 1.384 . S
C4222 C4223 1.372 . S
C4223 C4222 1.372 . S
C4223 C4224 1.400 . S
C4223 C4228 1.490 . S
C4224 H4214 0.930 . S
C4224 C4223 1.400 . S
C4224 C4227 1.386 . S
H4225 C4241 0.930 . S
H4226 C4242 0.931 . S
C4227 H4215 0.929 . S
C4227 C4221 1.390 . S
C4227 C4224 1.386 . S
C4228 C4223 1.490 . S
C4228 C4230 1.395 . S
C4228 C4231 1.403 . S
H4229 C4235 0.930 . S
C4230 H4216 0.930 . S
C4230 C4228 1.395 . S
C4230 C4233 1.403 . S
C4231 C4228 1.403 . S
C4231 C4232 1.524 . S
C4231 C4235 1.400 . S
C4232 H4217 0.960 . S
C4232 H4218 0.960 . S
C4232 H4219 0.960 . S
C4232 C4231 1.524 . S
C4233 C4230 1.403 . S
C4233 C4234 1.392 . S
C4233 C4237 1.495 . S
C4234 C4233 1.392 . S
C4234 C4235 1.385 . S
C4234 C4236 1.478 . S
C4235 H4229 0.930 . S
C4235 C4231 1.400 . S
C4235 C4234 1.385 . S
C4236 C4234 1.478 . S
C4236 C4238 1.381 . S
C4236 C4242 1.383 . S
C4237 C4233 1.495 . S
C4237 H4243 0.959 . S
C4237 H4244 0.961 . S
C4237 H4245 0.960 . S
C4238 C4236 1.381 . S
C4238 C4239 1.394 . S
C4238 H4246 0.930 . S
C4239 C4238 1.394 . S
C4239 C4240 1.383 . S
C4239 H4247 0.929 . S
C4240 C4239 1.383 . S
C4240 C4241 1.377 . S
C4241 H4225 0.930 . S
C4241 C4240 1.377 . S
C4241 C4242 1.379 . S
C4242 H4226 0.931 . S
C4242 C4236 1.383 . S
C4242 C4241 1.379 . S
H4243 C4237 0.959 . S
H4244 C4237 0.961 . S
H4245 C4237 0.960 . S
H4246 C4238 0.930 . S
H4247 C4239 0.929 . S
H4248 C4256 0.929 . S
H4249 C4258 0.930 . S
H4250 C4260 0.930 . S
H4251 C4263 0.929 . S
H4252 C4266 0.930 . S
H4253 C4268 0.960 . S
H4254 C4268 0.960 . S
H4255 C4268 0.960 . S
C4256 H4248 0.929 . S
C4256 C4257 1.377 . S
C4256 C4258 1.384 . S
C4257 C4256 1.377 . S
C4257 C4263 1.390 . S
C4258 H4249 0.930 . S
C4258 C4256 1.384 . S
C4258 C4259 1.372 . S
C4259 C4258 1.372 . S
C4259 C4260 1.400 . S
C4259 C4264 1.490 . S
C4260 H4250 0.930 . S
C4260 C4259 1.400 . S
C4260 C4263 1.386 . S
H4261 C4277 0.930 . S
H4262 C4278 0.931 . S
C4263 H4251 0.929 . S
C4263 C4257 1.390 . S
C4263 C4260 1.386 . S
C4264 C4259 1.490 . S
C4264 C4266 1.395 . S
C4264 C4267 1.403 . S
H4265 C4271 0.930 . S
C4266 H4252 0.930 . S
C4266 C4264 1.395 . S
C4266 C4269 1.403 . S
C4267 C4264 1.403 . S
C4267 C4268 1.524 . S
C4267 C4271 1.400 . S
C4268 H4253 0.960 . S
C4268 H4254 0.960 . S
C4268 H4255 0.960 . S
C4268 C4267 1.524 . S
C4269 C4266 1.403 . S
C4269 C4270 1.392 . S
C4269 C4273 1.495 . S
C4270 C4269 1.392 . S
C4270 C4271 1.385 . S
C4270 C4272 1.478 . S
C4271 H4265 0.930 . S
C4271 C4267 1.400 . S
C4271 C4270 1.385 . S
C4272 C4270 1.478 . S
C4272 C4274 1.381 . S
C4272 C4278 1.383 . S
C4273 C4269 1.495 . S
C4273 H4279 0.959 . S
C4273 H4280 0.961 . S
C4273 H4281 0.960 . S
C4274 C4272 1.381 . S
C4274 C4275 1.394 . S
C4274 H4282 0.930 . S
C4275 C4274 1.394 . S
C4275 C4276 1.383 . S
C4275 H4283 0.929 . S
C4276 C4275 1.383 . S
C4276 C4277 1.377 . S
C4277 H4261 0.930 . S
C4277 C4276 1.377 . S
C4277 C4278 1.379 . S
C4278 H4262 0.931 . S
C4278 C4272 1.383 . S
C4278 C4277 1.379 . S
H4279 C4273 0.959 . S
H4280 C4273 0.961 . S
H4281 C4273 0.960 . S
H4282 C4274 0.930 . S
H4283 C4275 0.929 . S
H4284 C4292 0.929 . S
H4285 C4294 0.930 . S
H4286 C4296 0.930 . S
H4287 C4299 0.929 . S
H4288 C4302 0.930 . S
H4289 C4304 0.960 . S
H4290 C4304 0.960 . S
H4291 C4304 0.960 . S
C4292 H4284 0.929 . S
C4292 C4293 1.377 . S
C4292 C4294 1.384 . S
C4293 C4292 1.377 . S
C4293 C4299 1.390 . S
C4294 H4285 0.930 . S
C4294 C4292 1.384 . S
C4294 C4295 1.372 . S
C4295 C4294 1.372 . S
C4295 C4296 1.400 . S
C4295 C4300 1.490 . S
C4296 H4286 0.930 . S
C4296 C4295 1.400 . S
C4296 C4299 1.386 . S
H4297 C4313 0.930 . S
H4298 C4314 0.931 . S
C4299 H4287 0.929 . S
C4299 C4293 1.390 . S
C4299 C4296 1.386 . S
C4300 C4295 1.490 . S
C4300 C4302 1.395 . S
C4300 C4303 1.403 . S
H4301 C4307 0.930 . S
C4302 H4288 0.930 . S
C4302 C4300 1.395 . S
C4302 C4305 1.403 . S
C4303 C4300 1.403 . S
C4303 C4304 1.524 . S
C4303 C4307 1.400 . S
C4304 H4289 0.960 . S
C4304 H4290 0.960 . S
C4304 H4291 0.960 . S
C4304 C4303 1.524 . S
C4305 C4302 1.403 . S
C4305 C4306 1.392 . S
C4305 C4309 1.495 . S
C4306 C4305 1.392 . S
C4306 C4307 1.385 . S
C4306 C4308 1.478 . S
C4307 H4301 0.930 . S
C4307 C4303 1.400 . S
C4307 C4306 1.385 . S
C4308 C4306 1.478 . S
C4308 C4310 1.381 . S
C4308 C4314 1.383 . S
C4309 C4305 1.495 . S
C4309 H4315 0.959 . S
C4309 H4316 0.961 . S
C4309 H4317 0.960 . S
C4310 C4308 1.381 . S
C4310 C4311 1.394 . S
C4310 H4318 0.930 . S
C4311 C4310 1.394 . S
C4311 C4312 1.383 . S
C4311 H4319 0.929 . S
C4312 C4311 1.383 . S
C4312 C4313 1.377 . S
C4313 H4297 0.930 . S
C4313 C4312 1.377 . S
C4313 C4314 1.379 . S
C4314 H4298 0.931 . S
C4314 C4308 1.383 . S
C4314 C4313 1.379 . S
H4315 C4309 0.959 . S
H4316 C4309 0.961 . S
H4317 C4309 0.960 . S
H4318 C4310 0.930 . S
H4319 C4311 0.929 . S
H4320 C4328 0.929 . S
H4321 C4330 0.930 . S
H4322 C4332 0.930 . S
H4323 C4335 0.929 . S
H4324 C4338 0.930 . S
H4325 C4340 0.960 . S
H4326 C4340 0.960 . S
H4327 C4340 0.960 . S
C4328 H4320 0.929 . S
C4328 C4329 1.377 . S
C4328 C4330 1.384 . S
C4329 C4328 1.377 . S
C4329 C4335 1.390 . S
C4330 H4321 0.930 . S
C4330 C4328 1.384 . S
C4330 C4331 1.372 . S
C4331 C4330 1.372 . S
C4331 C4332 1.400 . S
C4331 C4336 1.490 . S
C4332 H4322 0.930 . S
C4332 C4331 1.400 . S
C4332 C4335 1.386 . S
H4333 C4349 0.930 . S
H4334 C4350 0.931 . S
C4335 H4323 0.929 . S
C4335 C4329 1.390 . S
C4335 C4332 1.386 . S
C4336 C4331 1.490 . S
C4336 C4338 1.395 . S
C4336 C4339 1.403 . S
H4337 C4343 0.930 . S
C4338 H4324 0.930 . S
C4338 C4336 1.395 . S
C4338 C4341 1.403 . S
C4339 C4336 1.403 . S
C4339 C4340 1.524 . S
C4339 C4343 1.400 . S
C4340 H4325 0.960 . S
C4340 H4326 0.960 . S
C4340 H4327 0.960 . S
C4340 C4339 1.524 . S
C4341 C4338 1.403 . S
C4341 C4342 1.392 . S
C4341 C4345 1.495 . S
C4342 C4341 1.392 . S
C4342 C4343 1.385 . S
C4342 C4344 1.478 . S
C4343 H4337 0.930 . S
C4343 C4339 1.400 . S
C4343 C4342 1.385 . S
C4344 C4342 1.478 . S
C4344 C4346 1.381 . S
C4344 C4350 1.383 . S
C4345 C4341 1.495 . S
C4345 H4351 0.959 . S
C4345 H4352 0.945 1_554 S
C4345 H4353 0.960 . S
C4346 C4344 1.381 . S
C4346 C4347 1.394 . S
C4346 H4354 0.930 . S
C4347 C4346 1.394 . S
C4347 C4348 1.383 . S
C4347 H4355 0.929 1_565 S
C4348 C4347 1.383 . S
C4348 C4349 1.377 . S
C4349 H4333 0.930 . S
C4349 C4348 1.377 . S
C4349 C4350 1.379 . S
C4350 H4334 0.931 . S
C4350 C4344 1.383 . S
C4350 C4349 1.379 . S
H4351 C4345 0.959 . S
H4352 C4345 0.945 1_556 S
H4353 C4345 0.960 . S
H4354 C4346 0.930 . S
H4355 C4347 0.929 1_545 S
H4356 C4364 0.929 . S
H4357 C4366 0.930 . S
H4358 C4368 0.930 . S
H4359 C4371 0.929 . S
H4360 C4374 0.930 . S
H4361 C4376 0.960 . S
H4362 C4376 0.960 . S
H4363 C4376 0.960 . S
C4364 H4356 0.929 . S
C4364 C4365 1.377 . S
C4364 C4366 1.384 . S
C4365 C4364 1.377 . S
C4365 C4371 1.390 . S
C4366 H4357 0.930 . S
C4366 C4364 1.384 . S
C4366 C4367 1.372 . S
C4367 C4366 1.372 . S
C4367 C4368 1.400 . S
C4367 C4372 1.490 . S
C4368 H4358 0.930 . S
C4368 C4367 1.400 . S
C4368 C4371 1.386 . S
H4369 C4385 0.930 . S
H4370 C4386 0.931 . S
C4371 H4359 0.929 . S
C4371 C4365 1.390 . S
C4371 C4368 1.386 . S
C4372 C4367 1.490 . S
C4372 C4374 1.395 . S
C4372 C4375 1.403 . S
H4373 C4379 0.930 . S
C4374 H4360 0.930 . S
C4374 C4372 1.395 . S
C4374 C4377 1.403 . S
C4375 C4372 1.403 . S
C4375 C4376 1.524 . S
C4375 C4379 1.400 . S
C4376 H4361 0.960 . S
C4376 H4362 0.960 . S
C4376 H4363 0.960 . S
C4376 C4375 1.524 . S
C4377 C4374 1.403 . S
C4377 C4378 1.392 . S
C4377 C4381 1.495 . S
C4378 C4377 1.392 . S
C4378 C4379 1.385 . S
C4378 C4380 1.478 . S
C4379 H4373 0.930 . S
C4379 C4375 1.400 . S
C4379 C4378 1.385 . S
C4380 C4378 1.478 . S
C4380 C4382 1.381 . S
C4380 C4386 1.383 . S
C4381 C4377 1.495 . S
C4381 H4387 0.959 . S
C4381 H4388 0.961 . S
C4381 H4389 0.960 . S
C4382 C4380 1.381 . S
C4382 C4383 1.394 . S
C4382 H4390 0.930 . S
C4383 C4382 1.394 . S
C4383 C4384 1.383 . S
C4383 H4391 0.929 . S
C4384 C4383 1.383 . S
C4384 C4385 1.377 . S
C4385 H4369 0.930 . S
C4385 C4384 1.377 . S
C4385 C4386 1.379 . S
C4386 H4370 0.931 . S
C4386 C4380 1.383 . S
C4386 C4385 1.379 . S
H4387 C4381 0.959 . S
H4388 C4381 0.961 . S
H4389 C4381 0.960 . S
H4390 C4382 0.930 . S
H4391 C4383 0.929 . S
H4392 C4400 0.929 . S
H4393 C4402 0.930 . S
H4394 C4404 0.930 . S
H4395 C4407 0.929 . S
H4396 C4410 0.930 . S
H4397 C4412 0.960 . S
H4398 C4412 0.960 . S
H4399 C4412 0.960 . S
C4400 H4392 0.929 . S
C4400 C4401 1.377 . S
C4400 C4402 1.384 . S
C4401 C4400 1.377 . S
C4401 C4407 1.390 . S
C4402 H4393 0.930 . S
C4402 C4400 1.384 . S
C4402 C4403 1.372 . S
C4403 C4402 1.372 . S
C4403 C4404 1.400 . S
C4403 C4408 1.490 . S
C4404 H4394 0.930 . S
C4404 C4403 1.400 . S
C4404 C4407 1.386 . S
H4405 C4421 0.930 . S
H4406 C4422 0.931 . S
C4407 H4395 0.929 . S
C4407 C4401 1.390 . S
C4407 C4404 1.386 . S
C4408 C4403 1.490 . S
C4408 C4410 1.395 . S
C4408 C4411 1.403 . S
H4409 C4415 0.930 . S
C4410 H4396 0.930 . S
C4410 C4408 1.395 . S
C4410 C4413 1.403 . S
C4411 C4408 1.403 . S
C4411 C4412 1.524 . S
C4411 C4415 1.400 . S
C4412 H4397 0.960 . S
C4412 H4398 0.960 . S
C4412 H4399 0.960 . S
C4412 C4411 1.524 . S
C4413 C4410 1.403 . S
C4413 C4414 1.392 . S
C4413 C4417 1.495 . S
C4414 C4413 1.392 . S
C4414 C4415 1.385 . S
C4414 C4416 1.478 . S
C4415 H4409 0.930 . S
C4415 C4411 1.400 . S
C4415 C4414 1.385 . S
C4416 C4414 1.478 . S
C4416 C4418 1.381 . S
C4416 C4422 1.383 . S
C4417 C4413 1.495 . S
C4417 H4423 0.959 . S
C4417 H4424 0.961 . S
C4417 H4425 0.960 . S
C4418 C4416 1.381 . S
C4418 C4419 1.394 . S
C4418 H4426 0.930 . S
C4419 C4418 1.394 . S
C4419 C4420 1.383 . S
C4419 H4427 0.929 . S
C4420 C4419 1.383 . S
C4420 C4421 1.377 . S
C4421 H4405 0.930 . S
C4421 C4420 1.377 . S
C4421 C4422 1.379 . S
C4422 H4406 0.931 . S
C4422 C4416 1.383 . S
C4422 C4421 1.379 . S
H4423 C4417 0.959 . S
H4424 C4417 0.961 . S
H4425 C4417 0.960 . S
H4426 C4418 0.930 . S
H4427 C4419 0.929 . S
H4428 C4436 0.929 . S
H4429 C4438 0.930 . S
H4430 C4440 0.930 . S
H4431 C4443 0.929 . S
H4432 C4446 0.930 . S
H4433 C4448 0.960 . S
H4434 C4448 0.960 . S
H4435 C4448 0.960 . S
C4436 H4428 0.929 . S
C4436 C4437 1.377 . S
C4436 C4438 1.384 . S
C4437 C4436 1.377 . S
C4437 C4443 1.390 . S
C4438 H4429 0.930 . S
C4438 C4436 1.384 . S
C4438 C4439 1.372 . S
C4439 C4438 1.372 . S
C4439 C4440 1.400 . S
C4439 C4444 1.490 . S
C4440 H4430 0.930 . S
C4440 C4439 1.400 . S
C4440 C4443 1.386 . S
H4441 C4457 0.930 . S
H4442 C4458 0.931 . S
C4443 H4431 0.929 . S
C4443 C4437 1.390 . S
C4443 C4440 1.386 . S
C4444 C4439 1.490 . S
C4444 C4446 1.395 . S
C4444 C4447 1.403 . S
H4445 C4451 0.930 . S
C4446 H4432 0.930 . S
C4446 C4444 1.395 . S
C4446 C4449 1.403 . S
C4447 C4444 1.403 . S
C4447 C4448 1.524 . S
C4447 C4451 1.400 . S
C4448 H4433 0.960 . S
C4448 H4434 0.960 . S
C4448 H4435 0.960 . S
C4448 C4447 1.524 . S
C4449 C4446 1.403 . S
C4449 C4450 1.392 . S
C4449 C4453 1.495 . S
C4450 C4449 1.392 . S
C4450 C4451 1.385 . S
C4450 C4452 1.478 . S
C4451 H4445 0.930 . S
C4451 C4447 1.400 . S
C4451 C4450 1.385 . S
C4452 C4450 1.478 . S
C4452 C4454 1.381 . S
C4452 C4458 1.383 . S
C4453 C4449 1.495 . S
C4453 H4459 0.959 . S
C4453 H4460 0.961 . S
C4453 H4461 0.960 . S
C4454 C4452 1.381 . S
C4454 C4455 1.394 . S
C4454 H4462 0.930 . S
C4455 C4454 1.394 . S
C4455 C4456 1.383 . S
C4455 H4463 0.929 . S
C4456 C4455 1.383 . S
C4456 C4457 1.377 . S
C4457 H4441 0.930 . S
C4457 C4456 1.377 . S
C4457 C4458 1.379 . S
C4458 H4442 0.931 . S
C4458 C4452 1.383 . S
C4458 C4457 1.379 . S
H4459 C4453 0.959 . S
H4460 C4453 0.961 . S
H4461 C4453 0.960 . S
H4462 C4454 0.930 . S
H4463 C4455 0.929 . S
H4464 C4472 0.929 . S
H4465 C4474 0.930 . S
H4466 C4476 0.930 . S
H4467 C4479 0.929 . S
H4468 C4482 0.930 . S
H4469 C4484 0.960 . S
H4470 C4484 0.960 . S
H4471 C4484 0.960 . S
C4472 H4464 0.929 . S
C4472 C4473 1.377 . S
C4472 C4474 1.384 . S
C4473 C4472 1.377 . S
C4473 C4479 1.390 . S
C4474 H4465 0.930 . S
C4474 C4472 1.384 . S
C4474 C4475 1.372 . S
C4475 C4474 1.372 . S
C4475 C4476 1.400 . S
C4475 C4480 1.490 . S
C4476 H4466 0.930 . S
C4476 C4475 1.400 . S
C4476 C4479 1.386 . S
H4477 C4493 0.930 . S
H4478 C4494 0.931 . S
C4479 H4467 0.929 . S
C4479 C4473 1.390 . S
C4479 C4476 1.386 . S
C4480 C4475 1.490 . S
C4480 C4482 1.395 . S
C4480 C4483 1.403 . S
H4481 C4487 0.930 . S
C4482 H4468 0.930 . S
C4482 C4480 1.395 . S
C4482 C4485 1.403 . S
C4483 C4480 1.403 . S
C4483 C4484 1.524 . S
C4483 C4487 1.400 . S
C4484 H4469 0.960 . S
C4484 H4470 0.960 . S
C4484 H4471 0.960 . S
C4484 C4483 1.524 . S
C4485 C4482 1.403 . S
C4485 C4486 1.392 . S
C4485 C4489 1.495 . S
C4486 C4485 1.392 . S
C4486 C4487 1.385 . S
C4486 C4488 1.478 . S
C4487 H4481 0.930 . S
C4487 C4483 1.400 . S
C4487 C4486 1.385 . S
C4488 C4486 1.478 . S
C4488 C4490 1.381 . S
C4488 C4494 1.383 . S
C4489 C4485 1.495 . S
C4489 H4495 0.959 . S
C4489 H4496 0.961 . S
C4489 H4497 0.960 . S
C4490 C4488 1.381 . S
C4490 C4491 1.394 . S
C4490 H4498 0.930 . S
C4491 C4490 1.394 . S
C4491 C4492 1.383 . S
C4491 H4499 0.929 . S
C4492 C4491 1.383 . S
C4492 C4493 1.377 . S
C4493 H4477 0.930 . S
C4493 C4492 1.377 . S
C4493 C4494 1.379 . S
C4494 H4478 0.931 . S
C4494 C4488 1.383 . S
C4494 C4493 1.379 . S
H4495 C4489 0.959 . S
H4496 C4489 0.961 . S
H4497 C4489 0.960 . S
H4498 C4490 0.930 . S
H4499 C4491 0.929 . S
H4500 C4508 0.929 . S
H4501 C4510 0.930 . S
H4502 C4512 0.930 . S
H4503 C4515 0.929 . S
H4504 C4518 0.930 . S
H4505 C4520 0.960 . S
H4506 C4520 0.960 . S
H4507 C4520 0.960 . S
C4508 H4500 0.929 . S
C4508 C4509 1.377 . S
C4508 C4510 1.384 . S
C4509 C4508 1.377 . S
C4509 C4515 1.390 . S
C4510 H4501 0.930 . S
C4510 C4508 1.384 . S
C4510 C4511 1.372 . S
C4511 C4510 1.372 . S
C4511 C4512 1.400 . S
C4511 C4516 1.490 . S
C4512 H4502 0.930 . S
C4512 C4511 1.400 . S
C4512 C4515 1.386 . S
H4513 C4529 0.930 . S
H4514 C4530 0.931 . S
C4515 H4503 0.929 . S
C4515 C4509 1.390 . S
C4515 C4512 1.386 . S
C4516 C4511 1.490 . S
C4516 C4518 1.395 . S
C4516 C4519 1.403 . S
H4517 C4523 0.930 . S
C4518 H4504 0.930 . S
C4518 C4516 1.395 . S
C4518 C4521 1.403 . S
C4519 C4516 1.403 . S
C4519 C4520 1.524 . S
C4519 C4523 1.400 . S
C4520 H4505 0.960 . S
C4520 H4506 0.960 . S
C4520 H4507 0.960 . S
C4520 C4519 1.524 . S
C4521 C4518 1.403 . S
C4521 C4522 1.392 . S
C4521 C4525 1.495 . S
C4522 C4521 1.392 . S
C4522 C4523 1.385 . S
C4522 C4524 1.478 . S
C4523 H4517 0.930 . S
C4523 C4519 1.400 . S
C4523 C4522 1.385 . S
C4524 C4522 1.478 . S
C4524 C4526 1.381 . S
C4524 C4530 1.383 . S
C4525 C4521 1.495 . S
C4525 H4531 0.959 . S
C4525 H4532 0.961 . S
C4525 H4533 0.960 . S
C4526 C4524 1.381 . S
C4526 C4527 1.394 . S
C4526 H4534 0.930 . S
C4527 C4526 1.394 . S
C4527 C4528 1.383 . S
C4527 H4535 0.929 . S
C4528 C4527 1.383 . S
C4528 C4529 1.377 . S
C4529 H4513 0.930 . S
C4529 C4528 1.377 . S
C4529 C4530 1.379 . S
C4530 H4514 0.931 . S
C4530 C4524 1.383 . S
C4530 C4529 1.379 . S
H4531 C4525 0.959 . S
H4532 C4525 0.961 . S
H4533 C4525 0.960 . S
H4534 C4526 0.930 . S
H4535 C4527 0.929 . S
H4536 C4544 0.929 . S
H4537 C4546 0.930 . S
H4538 C4548 0.930 . S
H4539 C4551 0.929 . S
H4540 C4554 0.930 . S
H4541 C4556 0.960 . S
H4542 C4556 0.960 . S
H4543 C4556 0.960 . S
C4544 H4536 0.929 . S
C4544 C4545 1.377 . S
C4544 C4546 1.384 . S
C4545 C4544 1.377 . S
C4545 C4551 1.390 . S
C4546 H4537 0.930 . S
C4546 C4544 1.384 . S
C4546 C4547 1.372 . S
C4547 C4546 1.372 . S
C4547 C4548 1.400 . S
C4547 C4552 1.490 . S
C4548 H4538 0.930 . S
C4548 C4547 1.400 . S
C4548 C4551 1.386 . S
H4549 C4565 0.930 . S
H4550 C4566 0.921 1_554 S
C4551 H4539 0.929 . S
C4551 C4545 1.390 . S
C4551 C4548 1.386 . S
C4552 C4547 1.490 . S
C4552 C4554 1.395 . S
C4552 C4555 1.403 . S
H4553 C4559 0.930 . S
C4554 H4540 0.930 . S
C4554 C4552 1.395 . S
C4554 C4557 1.403 . S
C4555 C4552 1.403 . S
C4555 C4556 1.524 . S
C4555 C4559 1.400 . S
C4556 H4541 0.960 . S
C4556 H4542 0.960 . S
C4556 H4543 0.960 . S
C4556 C4555 1.524 . S
C4557 C4554 1.403 . S
C4557 C4558 1.392 . S
C4557 C4561 1.495 . S
C4558 C4557 1.392 . S
C4558 C4559 1.385 . S
C4558 C4560 1.478 . S
C4559 H4553 0.930 . S
C4559 C4555 1.400 . S
C4559 C4558 1.385 . S
C4560 C4558 1.478 . S
C4560 C4562 1.381 . S
C4560 C4566 1.404 . S
C4561 C4557 1.495 . S
C4561 H4567 0.959 . S
C4561 H4568 0.961 . S
C4561 H4569 0.960 . S
C4562 C4560 1.381 . S
C4562 C4563 1.394 . S
C4562 H4570 0.930 . S
C4563 C4562 1.394 . S
C4563 C4564 1.383 1_566 S
C4563 H4571 0.929 . S
C4564 C4563 1.383 1_544 S
C4564 C4565 1.377 . S
C4565 H4549 0.930 . S
C4565 C4564 1.377 . S
C4565 C4566 1.370 1_544 S
C4566 H4550 0.921 1_556 S
C4566 C4560 1.404 . S
C4566 C4565 1.370 1_566 S
H4567 C4561 0.959 . S
H4568 C4561 0.961 . S
H4569 C4561 0.960 . S
H4570 C4562 0.930 . S
H4571 C4563 0.929 . S
H4572 C4580 0.929 . S
H4573 C4582 0.930 . S
H4574 C4584 0.930 . S
H4575 C4587 0.929 . S
H4576 C4590 0.930 . S
H4577 C4592 0.960 . S
H4578 C4592 0.960 . S
H4579 C4592 0.960 . S
C4580 H4572 0.929 . S
C4580 C4581 1.377 . S
C4580 C4582 1.384 . S
C4581 C4580 1.377 . S
C4581 C4587 1.390 . S
C4582 H4573 0.930 . S
C4582 C4580 1.384 . S
C4582 C4583 1.372 . S
C4583 C4582 1.372 . S
C4583 C4584 1.400 . S
C4583 C4588 1.490 . S
C4584 H4574 0.930 . S
C4584 C4583 1.400 . S
C4584 C4587 1.386 . S
H4585 C4601 0.930 . S
H4586 C4602 0.931 . S
C4587 H4575 0.929 . S
C4587 C4581 1.390 . S
C4587 C4584 1.386 . S
C4588 C4583 1.490 . S
C4588 C4590 1.395 . S
C4588 C4591 1.403 . S
H4589 C4595 0.930 . S
C4590 H4576 0.930 . S
C4590 C4588 1.395 . S
C4590 C4593 1.403 . S
C4591 C4588 1.403 . S
C4591 C4592 1.524 . S
C4591 C4595 1.400 . S
C4592 H4577 0.960 . S
C4592 H4578 0.960 . S
C4592 H4579 0.960 . S
C4592 C4591 1.524 . S
C4593 C4590 1.403 . S
C4593 C4594 1.392 . S
C4593 C4597 1.495 . S
C4594 C4593 1.392 . S
C4594 C4595 1.385 . S
C4594 C4596 1.478 . S
C4595 H4589 0.930 . S
C4595 C4591 1.400 . S
C4595 C4594 1.385 . S
C4596 C4594 1.478 . S
C4596 C4598 1.381 . S
C4596 C4602 1.383 . S
C4597 C4593 1.495 . S
C4597 H4603 0.959 . S
C4597 H4604 0.961 . S
C4597 H4605 0.960 . S
C4598 C4596 1.381 . S
C4598 C4599 1.394 . S
C4598 H4606 0.930 . S
C4599 C4598 1.394 . S
C4599 C4600 1.383 . S
C4599 H4607 0.929 . S
C4600 C4599 1.383 . S
C4600 C4601 1.377 . S
C4601 H4585 0.930 . S
C4601 C4600 1.377 . S
C4601 C4602 1.379 . S
C4602 H4586 0.931 . S
C4602 C4596 1.383 . S
C4602 C4601 1.379 . S
H4603 C4597 0.959 . S
H4604 C4597 0.961 . S
H4605 C4597 0.960 . S
H4606 C4598 0.930 . S
H4607 C4599 0.929 . S
H4608 C4616 0.890 1_565 S
H4609 C4618 0.930 . S
H4610 C4620 0.930 . S
H4611 C4623 0.929 . S
H4612 C4626 0.930 . S
H4613 C4628 0.960 . S
H4614 C4628 0.960 . S
H4615 C4628 0.960 . S
C4616 H4608 0.890 1_545 S
C4616 C4617 1.400 . S
C4616 C4618 1.388 . S
C4617 C4616 1.400 . S
C4617 C4623 1.390 . S
C4618 H4609 0.930 . S
C4618 C4616 1.388 . S
C4618 C4619 1.372 . S
C4619 C4618 1.372 . S
C4619 C4620 1.400 . S
C4619 C4624 1.490 . S
C4620 H4610 0.930 . S
C4620 C4619 1.400 . S
C4620 C4623 1.386 . S
H4621 C4637 0.930 . S
H4622 C4638 0.931 . S
C4623 H4611 0.929 . S
C4623 C4617 1.390 . S
C4623 C4620 1.386 . S
C4624 C4619 1.490 . S
C4624 C4626 1.395 . S
C4624 C4627 1.403 1_545 S
H4625 C4631 0.930 1_565 S
C4626 H4612 0.930 . S
C4626 C4624 1.395 . S
C4626 C4629 1.403 . S
C4627 C4624 1.403 1_565 S
C4627 C4628 1.524 . S
C4627 C4631 1.400 1_565 S
C4628 H4613 0.960 . S
C4628 H4614 0.960 . S
C4628 H4615 0.960 . S
C4628 C4627 1.524 . S
C4629 C4626 1.403 . S
C4629 C4630 1.392 . S
C4629 C4633 1.495 . S
C4630 C4629 1.392 . S
C4630 C4631 1.385 . S
C4630 C4632 1.478 . S
C4631 H4625 0.930 1_545 S
C4631 C4627 1.400 1_545 S
C4631 C4630 1.385 . S
C4632 C4630 1.478 . S
C4632 C4634 1.381 . S
C4632 C4638 1.383 . S
C4633 C4629 1.495 . S
C4633 H4639 0.959 . S
C4633 H4640 0.961 . S
C4633 H4641 0.960 . S
C4634 C4632 1.381 . S
C4634 C4635 1.394 . S
C4634 H4642 0.930 . S
C4635 C4634 1.394 . S
C4635 C4636 1.383 . S
C4635 H4643 0.929 . S
C4636 C4635 1.383 . S
C4636 C4637 1.377 . S
C4637 H4621 0.930 . S
C4637 C4636 1.377 . S
C4637 C4638 1.379 . S
C4638 H4622 0.931 . S
C4638 C4632 1.383 . S
C4638 C4637 1.379 . S
H4639 C4633 0.959 . S
H4640 C4633 0.961 . S
H4641 C4633 0.960 . S
H4642 C4634 0.930 . S
H4643 C4635 0.929 . S
H4644 C4652 0.929 . S
H4645 C4654 0.930 . S
H4646 C4656 0.930 . S
H4647 C4659 0.929 . S
H4648 C4662 0.930 . S
H4649 C4664 0.960 . S
H4650 C4664 0.960 . S
H4651 C4664 0.960 . S
C4652 H4644 0.929 . S
C4652 C4653 1.377 . S
C4652 C4654 1.384 . S
C4653 C4652 1.377 . S
C4653 C4659 1.390 . S
C4654 H4645 0.930 . S
C4654 C4652 1.384 . S
C4654 C4655 1.372 . S
C4655 C4654 1.372 . S
C4655 C4656 1.400 . S
C4655 C4660 1.490 . S
C4656 H4646 0.930 . S
C4656 C4655 1.400 . S
C4656 C4659 1.386 . S
H4657 C4673 0.930 . S
H4658 C4674 0.931 . S
C4659 H4647 0.929 . S
C4659 C4653 1.390 . S
C4659 C4656 1.386 . S
C4660 C4655 1.490 . S
C4660 C4662 1.395 . S
C4660 C4663 1.403 . S
H4661 C4667 0.930 . S
C4662 H4648 0.930 . S
C4662 C4660 1.395 . S
C4662 C4665 1.403 . S
C4663 C4660 1.403 . S
C4663 C4664 1.524 . S
C4663 C4667 1.400 . S
C4664 H4649 0.960 . S
C4664 H4650 0.960 . S
C4664 H4651 0.960 . S
C4664 C4663 1.524 . S
C4665 C4662 1.403 . S
C4665 C4666 1.392 . S
C4665 C4669 1.495 . S
C4666 C4665 1.392 . S
C4666 C4667 1.385 . S
C4666 C4668 1.478 . S
C4667 H4661 0.930 . S
C4667 C4663 1.400 . S
C4667 C4666 1.385 . S
C4668 C4666 1.478 . S
C4668 C4670 1.381 . S
C4668 C4674 1.383 . S
C4669 C4665 1.495 . S
C4669 H4675 0.959 . S
C4669 H4676 0.961 . S
C4669 H4677 0.960 . S
C4670 C4668 1.381 . S
C4670 C4671 1.394 . S
C4670 H4678 0.930 . S
C4671 C4670 1.394 . S
C4671 C4672 1.383 . S
C4671 H4679 0.929 . S
C4672 C4671 1.383 . S
C4672 C4673 1.377 . S
C4673 H4657 0.930 . S
C4673 C4672 1.377 . S
C4673 C4674 1.379 . S
C4674 H4658 0.931 . S
C4674 C4668 1.383 . S
C4674 C4673 1.379 . S
H4675 C4669 0.959 . S
H4676 C4669 0.961 . S
H4677 C4669 0.960 . S
H4678 C4670 0.930 . S
H4679 C4671 0.929 . S
H4680 C4688 0.929 . S
H4681 C4690 0.930 . S
H4682 C4692 0.930 . S
H4683 C4695 0.929 . S
H4684 C4698 0.930 . S
H4685 C4700 0.960 . S
H4686 C4700 0.960 . S
H4687 C4700 0.960 . S
C4688 H4680 0.929 . S
C4688 C4689 1.377 . S
C4688 C4690 1.384 . S
C4689 C4688 1.377 . S
C4689 C4695 1.390 . S
C4690 H4681 0.930 . S
C4690 C4688 1.384 . S
C4690 C4691 1.372 . S
C4691 C4690 1.372 . S
C4691 C4692 1.400 . S
C4691 C4696 1.490 . S
C4692 H4682 0.930 . S
C4692 C4691 1.400 . S
C4692 C4695 1.386 . S
H4693 C4709 0.930 . S
H4694 C4710 0.931 . S
C4695 H4683 0.929 . S
C4695 C4689 1.390 . S
C4695 C4692 1.386 . S
C4696 C4691 1.490 . S
C4696 C4698 1.395 . S
C4696 C4699 1.403 . S
H4697 C4703 0.930 . S
C4698 H4684 0.930 . S
C4698 C4696 1.395 . S
C4698 C4701 1.403 . S
C4699 C4696 1.403 . S
C4699 C4700 1.524 . S
C4699 C4703 1.400 . S
C4700 H4685 0.960 . S
C4700 H4686 0.960 . S
C4700 H4687 0.960 . S
C4700 C4699 1.524 . S
C4701 C4698 1.403 . S
C4701 C4702 1.392 . S
C4701 C4705 1.495 . S
C4702 C4701 1.392 . S
C4702 C4703 1.385 . S
C4702 C4704 1.478 . S
C4703 H4697 0.930 . S
C4703 C4699 1.400 . S
C4703 C4702 1.385 . S
C4704 C4702 1.478 . S
C4704 C4706 1.381 . S
C4704 C4710 1.383 . S
C4705 C4701 1.495 . S
C4705 H4711 0.959 . S
C4705 H4712 0.961 . S
C4705 H4713 0.960 . S
C4706 C4704 1.381 . S
C4706 C4707 1.394 . S
C4706 H4714 0.930 . S
C4707 C4706 1.394 . S
C4707 C4708 1.383 . S
C4707 H4715 0.929 . S
C4708 C4707 1.383 . S
C4708 C4709 1.377 . S
C4709 H4693 0.930 . S
C4709 C4708 1.377 . S
C4709 C4710 1.379 . S
C4710 H4694 0.931 . S
C4710 C4704 1.383 . S
C4710 C4709 1.379 . S
H4711 C4705 0.959 . S
H4712 C4705 0.961 . S
H4713 C4705 0.960 . S
H4714 C4706 0.930 . S
H4715 C4707 0.929 . S
H4716 C4724 0.929 . S
H4717 C4726 0.930 . S
H4718 C4728 0.930 . S
H4719 C4731 0.929 . S
H4720 C4734 0.930 . S
H4721 C4736 0.960 . S
H4722 C4736 0.960 . S
H4723 C4736 0.960 . S
C4724 H4716 0.929 . S
C4724 C4725 1.377 . S
C4724 C4726 1.384 . S
C4725 C4724 1.377 . S
C4725 C4731 1.390 . S
C4726 H4717 0.930 . S
C4726 C4724 1.384 . S
C4726 C4727 1.372 . S
C4727 C4726 1.372 . S
C4727 C4728 1.400 . S
C4727 C4732 1.490 . S
C4728 H4718 0.930 . S
C4728 C4727 1.400 . S
C4728 C4731 1.386 . S
H4729 C4745 0.930 . S
H4730 C4746 0.931 . S
C4731 H4719 0.929 . S
C4731 C4725 1.390 . S
C4731 C4728 1.386 . S
C4732 C4727 1.490 . S
C4732 C4734 1.395 . S
C4732 C4735 1.403 . S
H4733 C4739 0.930 . S
C4734 H4720 0.930 . S
C4734 C4732 1.395 . S
C4734 C4737 1.403 . S
C4735 C4732 1.403 . S
C4735 C4736 1.524 . S
C4735 C4739 1.400 . S
C4736 H4721 0.960 . S
C4736 H4722 0.960 . S
C4736 H4723 0.960 . S
C4736 C4735 1.524 . S
C4737 C4734 1.403 . S
C4737 C4738 1.392 . S
C4737 C4741 1.495 . S
C4738 C4737 1.392 . S
C4738 C4739 1.385 . S
C4738 C4740 1.478 . S
C4739 H4733 0.930 . S
C4739 C4735 1.400 . S
C4739 C4738 1.385 . S
C4740 C4738 1.478 . S
C4740 C4742 1.381 . S
C4740 C4746 1.383 . S
C4741 C4737 1.495 . S
C4741 H4747 0.959 . S
C4741 H4748 0.961 . S
C4741 H4749 0.960 . S
C4742 C4740 1.381 . S
C4742 C4743 1.394 . S
C4742 H4750 0.930 . S
C4743 C4742 1.394 . S
C4743 C4744 1.383 . S
C4743 H4751 0.929 . S
C4744 C4743 1.383 . S
C4744 C4745 1.377 . S
C4745 H4729 0.930 . S
C4745 C4744 1.377 . S
C4745 C4746 1.379 . S
C4746 H4730 0.931 . S
C4746 C4740 1.383 . S
C4746 C4745 1.379 . S
H4747 C4741 0.959 . S
H4748 C4741 0.961 . S
H4749 C4741 0.960 . S
H4750 C4742 0.930 . S
H4751 C4743 0.929 . S
H4752 C4760 0.929 . S
H4753 C4762 0.930 . S
H4754 C4764 0.930 . S
H4755 C4767 0.929 . S
H4756 C4770 0.930 . S
H4757 C4772 0.947 1_545 S
H4758 C4772 1.034 . S
H4759 C4772 0.941 1_545 S
C4760 H4752 0.929 . S
C4760 C4761 1.377 . S
C4760 C4762 1.384 . S
C4761 C4760 1.377 . S
C4761 C4767 1.390 1_565 S
C4762 H4753 0.930 . S
C4762 C4760 1.384 . S
C4762 C4763 1.392 . S
C4763 C4762 1.392 . S
C4763 C4764 1.394 1_565 S
C4763 C4768 1.477 1_565 S
C4764 H4754 0.930 . S
C4764 C4763 1.394 1_545 S
C4764 C4767 1.386 . S
H4765 C4781 0.930 . S
H4766 C4782 0.931 . S
C4767 H4755 0.929 . S
C4767 C4761 1.390 1_545 S
C4767 C4764 1.386 . S
C4768 C4763 1.477 1_545 S
C4768 C4770 1.395 . S
C4768 C4771 1.403 . S
H4769 C4775 0.930 . S
C4770 H4756 0.930 . S
C4770 C4768 1.395 . S
C4770 C4773 1.403 . S
C4771 C4768 1.403 . S
C4771 C4772 1.488 1_545 S
C4771 C4775 1.400 . S
C4772 H4757 0.947 1_565 S
C4772 H4758 1.034 . S
C4772 H4759 0.941 1_565 S
C4772 C4771 1.488 1_565 S
C4773 C4770 1.403 . S
C4773 C4774 1.392 . S
C4773 C4777 1.495 . S
C4774 C4773 1.392 . S
C4774 C4775 1.385 . S
C4774 C4776 1.478 . S
C4775 H4769 0.930 . S
C4775 C4771 1.400 . S
C4775 C4774 1.385 . S
C4776 C4774 1.478 . S
C4776 C4778 1.381 . S
C4776 C4782 1.383 . S
C4777 C4773 1.495 . S
C4777 H4783 0.959 . S
C4777 H4784 0.961 . S
C4777 H4785 0.960 . S
C4778 C4776 1.381 . S
C4778 C4779 1.394 . S
C4778 H4786 0.930 . S
C4779 C4778 1.394 . S
C4779 C4780 1.383 . S
C4779 H4787 0.929 . S
C4780 C4779 1.383 . S
C4780 C4781 1.377 . S
C4781 H4765 0.930 . S
C4781 C4780 1.377 . S
C4781 C4782 1.379 . S
C4782 H4766 0.931 . S
C4782 C4776 1.383 . S
C4782 C4781 1.379 . S
H4783 C4777 0.959 . S
H4784 C4777 0.961 . S
H4785 C4777 0.960 . S
H4786 C4778 0.930 . S
H4787 C4779 0.929 . S
H4788 C4796 0.929 . S
H4789 C4798 0.930 . S
H4790 C4800 0.930 . S
H4791 C4803 0.929 . S
H4792 C4806 0.930 . S
H4793 C4808 0.960 . S
H4794 C4808 0.960 . S
H4795 C4808 0.960 . S
C4796 H4788 0.929 . S
C4796 C4797 1.377 . S
C4796 C4798 1.384 . S
C4797 C4796 1.377 . S
C4797 C4803 1.390 . S
C4798 H4789 0.930 . S
C4798 C4796 1.384 . S
C4798 C4799 1.372 . S
C4799 C4798 1.372 . S
C4799 C4800 1.400 . S
C4799 C4804 1.490 . S
C4800 H4790 0.930 . S
C4800 C4799 1.400 . S
C4800 C4803 1.386 . S
H4801 C4817 0.930 . S
H4802 C4818 0.931 . S
C4803 H4791 0.929 . S
C4803 C4797 1.390 . S
C4803 C4800 1.386 . S
C4804 C4799 1.490 . S
C4804 C4806 1.395 . S
C4804 C4807 1.403 . S
H4805 C4811 0.930 . S
C4806 H4792 0.930 . S
C4806 C4804 1.395 . S
C4806 C4809 1.403 . S
C4807 C4804 1.403 . S
C4807 C4808 1.524 . S
C4807 C4811 1.400 . S
C4808 H4793 0.960 . S
C4808 H4794 0.960 . S
C4808 H4795 0.960 . S
C4808 C4807 1.524 . S
C4809 C4806 1.403 . S
C4809 C4810 1.392 . S
C4809 C4813 1.495 . S
C4810 C4809 1.392 . S
C4810 C4811 1.385 . S
C4810 C4812 1.478 . S
C4811 H4805 0.930 . S
C4811 C4807 1.400 . S
C4811 C4810 1.385 . S
C4812 C4810 1.478 . S
C4812 C4814 1.381 . S
C4812 C4818 1.383 . S
C4813 C4809 1.495 . S
C4813 H4819 0.959 . S
C4813 H4820 0.961 . S
C4813 H4821 0.960 . S
C4814 C4812 1.381 . S
C4814 C4815 1.394 . S
C4814 H4822 0.930 . S
C4815 C4814 1.394 . S
C4815 C4816 1.383 . S
C4815 H4823 0.929 . S
C4816 C4815 1.383 . S
C4816 C4817 1.377 . S
C4817 H4801 0.930 . S
C4817 C4816 1.377 . S
C4817 C4818 1.379 . S
C4818 H4802 0.931 . S
C4818 C4812 1.383 . S
C4818 C4817 1.379 . S
H4819 C4813 0.959 . S
H4820 C4813 0.961 . S
H4821 C4813 0.960 . S
H4822 C4814 0.930 . S
H4823 C4815 0.929 . S
H4824 C4832 0.929 . S
H4825 C4834 0.930 . S
H4826 C4836 0.930 . S
H4827 C4839 0.929 . S
H4828 C4842 0.930 . S
H4829 C4844 0.960 . S
H4830 C4844 0.960 . S
H4831 C4844 0.960 . S
C4832 H4824 0.929 . S
C4832 C4833 1.377 . S
C4832 C4834 1.384 . S
C4833 C4832 1.377 . S
C4833 C4839 1.390 . S
C4834 H4825 0.930 . S
C4834 C4832 1.384 . S
C4834 C4835 1.372 . S
C4835 C4834 1.372 . S
C4835 C4836 1.400 . S
C4835 C4840 1.490 . S
C4836 H4826 0.930 . S
C4836 C4835 1.400 . S
C4836 C4839 1.386 . S
H4837 C4853 0.930 . S
H4838 C4854 0.931 . S
C4839 H4827 0.929 . S
C4839 C4833 1.390 . S
C4839 C4836 1.386 . S
C4840 C4835 1.490 . S
C4840 C4842 1.395 . S
C4840 C4843 1.403 . S
H4841 C4847 0.930 . S
C4842 H4828 0.930 . S
C4842 C4840 1.395 . S
C4842 C4845 1.403 . S
C4843 C4840 1.403 . S
C4843 C4844 1.524 . S
C4843 C4847 1.400 . S
C4844 H4829 0.960 . S
C4844 H4830 0.960 . S
C4844 H4831 0.960 . S
C4844 C4843 1.524 . S
C4845 C4842 1.403 . S
C4845 C4846 1.392 . S
C4845 C4849 1.495 . S
C4846 C4845 1.392 . S
C4846 C4847 1.385 . S
C4846 C4848 1.478 . S
C4847 H4841 0.930 . S
C4847 C4843 1.400 . S
C4847 C4846 1.385 . S
C4848 C4846 1.478 . S
C4848 C4850 1.381 . S
C4848 C4854 1.383 . S
C4849 C4845 1.495 . S
C4849 H4855 0.959 . S
C4849 H4856 0.961 . S
C4849 H4857 0.960 . S
C4850 C4848 1.381 . S
C4850 C4851 1.394 . S
C4850 H4858 0.930 . S
C4851 C4850 1.394 . S
C4851 C4852 1.383 . S
C4851 H4859 0.929 . S
C4852 C4851 1.383 . S
C4852 C4853 1.377 . S
C4853 H4837 0.930 . S
C4853 C4852 1.377 . S
C4853 C4854 1.379 . S
C4854 H4838 0.931 . S
C4854 C4848 1.383 . S
C4854 C4853 1.379 . S
H4855 C4849 0.959 . S
H4856 C4849 0.961 . S
H4857 C4849 0.960 . S
H4858 C4850 0.930 . S
H4859 C4851 0.929 . S
H4860 C4868 0.929 . S
H4861 C4870 0.930 . S
H4862 C4872 0.930 . S
H4863 C4875 0.929 . S
H4864 C4878 0.930 . S
H4865 C4880 0.960 . S
H4866 C4880 0.960 . S
H4867 C4880 0.960 . S
C4868 H4860 0.929 . S
C4868 C4869 1.377 . S
C4868 C4870 1.384 . S
C4869 C4868 1.377 . S
C4869 C4875 1.390 . S
C4870 H4861 0.930 . S
C4870 C4868 1.384 . S
C4870 C4871 1.372 . S
C4871 C4870 1.372 . S
C4871 C4872 1.400 . S
C4871 C4876 1.490 . S
C4872 H4862 0.930 . S
C4872 C4871 1.400 . S
C4872 C4875 1.386 . S
H4873 C4889 0.930 . S
H4874 C4890 0.931 . S
C4875 H4863 0.929 . S
C4875 C4869 1.390 . S
C4875 C4872 1.386 . S
C4876 C4871 1.490 . S
C4876 C4878 1.395 . S
C4876 C4879 1.403 . S
H4877 C4883 0.930 . S
C4878 H4864 0.930 . S
C4878 C4876 1.395 . S
C4878 C4881 1.403 . S
C4879 C4876 1.403 . S
C4879 C4880 1.524 . S
C4879 C4883 1.400 . S
C4880 H4865 0.960 . S
C4880 H4866 0.960 . S
C4880 H4867 0.960 . S
C4880 C4879 1.524 . S
C4881 C4878 1.403 . S
C4881 C4882 1.392 . S
C4881 C4885 1.495 . S
C4882 C4881 1.392 . S
C4882 C4883 1.385 . S
C4882 C4884 1.478 . S
C4883 H4877 0.930 . S
C4883 C4879 1.400 . S
C4883 C4882 1.385 . S
C4884 C4882 1.478 . S
C4884 C4886 1.381 . S
C4884 C4890 1.383 . S
C4885 C4881 1.495 . S
C4885 H4891 0.959 . S
C4885 H4892 0.961 . S
C4885 H4893 0.960 . S
C4886 C4884 1.381 . S
C4886 C4887 1.394 . S
C4886 H4894 0.930 . S
C4887 C4886 1.394 . S
C4887 C4888 1.383 . S
C4887 H4895 0.929 . S
C4888 C4887 1.383 . S
C4888 C4889 1.377 . S
C4889 H4873 0.930 . S
C4889 C4888 1.377 . S
C4889 C4890 1.379 . S
C4890 H4874 0.931 . S
C4890 C4884 1.383 . S
C4890 C4889 1.379 . S
H4891 C4885 0.959 . S
H4892 C4885 0.961 . S
H4893 C4885 0.960 . S
H4894 C4886 0.930 . S
H4895 C4887 0.929 . S
H4896 C4904 0.929 1_556 S
H4897 C4906 0.930 1_556 S
H4898 C4908 0.930 . S
H4899 C4911 0.929 . S
H4900 C4914 0.930 . S
H4901 C4916 0.960 . S
H4902 C4916 0.960 1_556 S
H4903 C4916 0.960 . S
C4904 H4896 0.929 1_554 S
C4904 C4905 1.377 . S
C4904 C4906 1.384 . S
C4905 C4904 1.377 . S
C4905 C4911 1.390 . S
C4906 H4897 0.930 1_554 S
C4906 C4904 1.384 . S
C4906 C4907 1.372 . S
C4907 C4906 1.372 . S
C4907 C4908 1.400 . S
C4907 C4912 1.490 . S
C4908 H4898 0.930 . S
C4908 C4907 1.400 . S
C4908 C4911 1.386 . S
H4909 C4925 0.930 . S
H4910 C4926 0.931 . S
C4911 H4899 0.929 . S
C4911 C4905 1.390 . S
C4911 C4908 1.386 . S
C4912 C4907 1.490 . S
C4912 C4914 1.395 . S
C4912 C4915 1.403 . S
H4913 C4919 0.930 . S
C4914 H4900 0.930 . S
C4914 C4912 1.395 . S
C4914 C4917 1.403 . S
C4915 C4912 1.403 . S
C4915 C4916 1.524 . S
C4915 C4919 1.400 . S
C4916 H4901 0.960 . S
C4916 H4902 0.960 1_554 S
C4916 H4903 0.960 . S
C4916 C4915 1.524 . S
C4917 C4914 1.403 . S
C4917 C4918 1.392 . S
C4917 C4921 1.495 . S
C4918 C4917 1.392 . S
C4918 C4919 1.385 . S
C4918 C4920 1.478 . S
C4919 H4913 0.930 . S
C4919 C4915 1.400 . S
C4919 C4918 1.385 . S
C4920 C4918 1.478 . S
C4920 C4922 1.338 1_554 S
C4920 C4926 1.383 . S
C4921 C4917 1.495 . S
C4921 H4927 0.959 . S
C4921 H4928 0.961 . S
C4921 H4929 0.960 . S
C4922 C4920 1.338 1_556 S
C4922 C4923 1.396 . S
C4922 H4930 0.974 . S
C4923 C4922 1.396 . S
C4923 C4924 1.383 1_556 S
C4923 H4931 0.929 . S
C4924 C4923 1.383 1_554 S
C4924 C4925 1.377 . S
C4925 H4909 0.930 . S
C4925 C4924 1.377 . S
C4925 C4926 1.379 . S
C4926 H4910 0.931 . S
C4926 C4920 1.383 . S
C4926 C4925 1.379 . S
H4927 C4921 0.959 . S
H4928 C4921 0.961 . S
H4929 C4921 0.960 . S
H4930 C4922 0.974 . S
H4931 C4923 0.929 . S
H4932 C4940 0.929 . S
H4933 C4942 0.930 . S
H4934 C4944 0.930 . S
H4935 C4947 0.929 . S
H4936 C4950 0.930 . S
H4937 C4952 0.960 . S
H4938 C4952 0.960 . S
H4939 C4952 0.960 . S
C4940 H4932 0.929 . S
C4940 C4941 1.377 . S
C4940 C4942 1.384 . S
C4941 C4940 1.377 . S
C4941 C4947 1.390 . S
C4942 H4933 0.930 . S
C4942 C4940 1.384 . S
C4942 C4943 1.372 . S
C4943 C4942 1.372 . S
C4943 C4944 1.400 . S
C4943 C4948 1.490 . S
C4944 H4934 0.930 . S
C4944 C4943 1.400 . S
C4944 C4947 1.386 . S
H4945 C4961 0.930 . S
H4946 C4962 0.931 . S
C4947 H4935 0.929 . S
C4947 C4941 1.390 . S
C4947 C4944 1.386 . S
C4948 C4943 1.490 . S
C4948 C4950 1.395 . S
C4948 C4951 1.403 . S
H4949 C4955 0.930 . S
C4950 H4936 0.930 . S
C4950 C4948 1.395 . S
C4950 C4953 1.403 . S
C4951 C4948 1.403 . S
C4951 C4952 1.524 . S
C4951 C4955 1.400 . S
C4952 H4937 0.960 . S
C4952 H4938 0.960 . S
C4952 H4939 0.960 . S
C4952 C4951 1.524 . S
C4953 C4950 1.403 . S
C4953 C4954 1.392 . S
C4953 C4957 1.495 . S
C4954 C4953 1.392 . S
C4954 C4955 1.385 . S
C4954 C4956 1.478 . S
C4955 H4949 0.930 . S
C4955 C4951 1.400 . S
C4955 C4954 1.385 . S
C4956 C4954 1.478 . S
C4956 C4958 1.381 . S
C4956 C4962 1.383 . S
C4957 C4953 1.495 . S
C4957 H4963 0.959 . S
C4957 H4964 0.961 . S
C4957 H4965 0.960 . S
C4958 C4956 1.381 . S
C4958 C4959 1.394 . S
C4958 H4966 0.930 . S
C4959 C4958 1.394 . S
C4959 C4960 1.383 . S
C4959 H4967 0.929 . S
C4960 C4959 1.383 . S
C4960 C4961 1.377 . S
C4961 H4945 0.930 . S
C4961 C4960 1.377 . S
C4961 C4962 1.379 . S
C4962 H4946 0.931 . S
C4962 C4956 1.383 . S
C4962 C4961 1.379 . S
H4963 C4957 0.959 . S
H4964 C4957 0.961 . S
H4965 C4957 0.960 . S
H4966 C4958 0.930 . S
H4967 C4959 0.929 . S
H4968 C4976 0.929 . S
H4969 C4978 0.930 . S
H4970 C4980 0.930 . S
H4971 C4983 0.929 . S
H4972 C4986 0.930 . S
H4973 C4988 0.960 . S
H4974 C4988 0.960 . S
H4975 C4988 0.960 . S
C4976 H4968 0.929 . S
C4976 C4977 1.377 . S
C4976 C4978 1.384 . S
C4977 C4976 1.377 . S
C4977 C4983 1.390 . S
C4978 H4969 0.930 . S
C4978 C4976 1.384 . S
C4978 C4979 1.372 . S
C4979 C4978 1.372 . S
C4979 C4980 1.400 . S
C4979 C4984 1.490 . S
C4980 H4970 0.930 . S
C4980 C4979 1.400 . S
C4980 C4983 1.386 . S
H4981 C4997 0.930 . S
H4982 C4998 0.931 . S
C4983 H4971 0.929 . S
C4983 C4977 1.390 . S
C4983 C4980 1.386 . S
C4984 C4979 1.490 . S
C4984 C4986 1.395 . S
C4984 C4987 1.403 . S
H4985 C4991 0.930 . S
C4986 H4972 0.930 . S
C4986 C4984 1.395 . S
C4986 C4989 1.403 . S
C4987 C4984 1.403 . S
C4987 C4988 1.524 . S
C4987 C4991 1.400 . S
C4988 H4973 0.960 . S
C4988 H4974 0.960 . S
C4988 H4975 0.960 . S
C4988 C4987 1.524 . S
C4989 C4986 1.403 . S
C4989 C4990 1.392 . S
C4989 C4993 1.495 . S
C4990 C4989 1.392 . S
C4990 C4991 1.385 . S
C4990 C4992 1.478 . S
C4991 H4985 0.930 . S
C4991 C4987 1.400 . S
C4991 C4990 1.385 . S
C4992 C4990 1.478 . S
C4992 C4994 1.381 . S
C4992 C4998 1.383 . S
C4993 C4989 1.495 . S
C4993 H4999 0.959 . S
C4993 H5000 0.961 . S
C4993 H5001 0.960 . S
C4994 C4992 1.381 . S
C4994 C4995 1.394 . S
C4994 H5002 0.930 . S
C4995 C4994 1.394 . S
C4995 C4996 1.383 . S
C4995 H5003 0.929 . S
C4996 C4995 1.383 . S
C4996 C4997 1.377 . S
C4997 H4981 0.930 . S
C4997 C4996 1.377 . S
C4997 C4998 1.379 . S
C4998 H4982 0.931 . S
C4998 C4992 1.383 . S
C4998 C4997 1.379 . S
H4999 C4993 0.959 . S
H5000 C4993 0.961 . S
H5001 C4993 0.960 . S
H5002 C4994 0.930 . S
H5003 C4995 0.929 . S
H5004 C5012 0.929 . S
H5005 C5014 0.930 . S
H5006 C5016 0.930 . S
H5007 C5019 0.929 . S
H5008 C5022 0.930 . S
H5009 C5024 0.960 . S
H5010 C5024 0.960 . S
H5011 C5024 0.960 . S
C5012 H5004 0.929 . S
C5012 C5013 1.377 . S
C5012 C5014 1.384 . S
C5013 C5012 1.377 . S
C5013 C5019 1.390 . S
C5014 H5005 0.930 . S
C5014 C5012 1.384 . S
C5014 C5015 1.372 . S
C5015 C5014 1.372 . S
C5015 C5016 1.400 . S
C5015 C5020 1.490 . S
C5016 H5006 0.930 . S
C5016 C5015 1.400 . S
C5016 C5019 1.386 . S
H5017 C5033 0.930 . S
H5018 C5034 0.931 . S
C5019 H5007 0.929 . S
C5019 C5013 1.390 . S
C5019 C5016 1.386 . S
C5020 C5015 1.490 . S
C5020 C5022 1.395 . S
C5020 C5023 1.403 . S
H5021 C5027 0.930 . S
C5022 H5008 0.930 . S
C5022 C5020 1.395 . S
C5022 C5025 1.403 . S
C5023 C5020 1.403 . S
C5023 C5024 1.524 . S
C5023 C5027 1.400 . S
C5024 H5009 0.960 . S
C5024 H5010 0.960 . S
C5024 H5011 0.960 . S
C5024 C5023 1.524 . S
C5025 C5022 1.403 . S
C5025 C5026 1.392 . S
C5025 C5029 1.495 . S
C5026 C5025 1.392 . S
C5026 C5027 1.385 . S
C5026 C5028 1.478 . S
C5027 H5021 0.930 . S
C5027 C5023 1.400 . S
C5027 C5026 1.385 . S
C5028 C5026 1.478 . S
C5028 C5030 1.381 . S
C5028 C5034 1.383 . S
C5029 C5025 1.495 . S
C5029 H5035 0.959 . S
C5029 H5036 0.961 . S
C5029 H5037 0.960 . S
C5030 C5028 1.381 . S
C5030 C5031 1.394 . S
C5030 H5038 0.930 . S
C5031 C5030 1.394 . S
C5031 C5032 1.383 . S
C5031 H5039 0.929 . S
C5032 C5031 1.383 . S
C5032 C5033 1.377 . S
C5033 H5017 0.930 . S
C5033 C5032 1.377 . S
C5033 C5034 1.379 . S
C5034 H5018 0.931 . S
C5034 C5028 1.383 . S
C5034 C5033 1.379 . S
H5035 C5029 0.959 . S
H5036 C5029 0.961 . S
H5037 C5029 0.960 . S
H5038 C5030 0.930 . S
H5039 C5031 0.929 . S
H5040 C5048 0.929 . S
H5041 C5050 0.930 . S
H5042 C5052 0.930 . S
H5043 C5055 0.929 . S
H5044 C5058 0.930 . S
H5045 C5060 0.960 . S
H5046 C5060 0.960 . S
H5047 C5060 0.960 . S
C5048 H5040 0.929 . S
C5048 C5049 1.377 . S
C5048 C5050 1.384 . S
C5049 C5048 1.377 . S
C5049 C5055 1.390 . S
C5050 H5041 0.930 . S
C5050 C5048 1.384 . S
C5050 C5051 1.372 . S
C5051 C5050 1.372 . S
C5051 C5052 1.400 . S
C5051 C5056 1.490 . S
C5052 H5042 0.930 . S
C5052 C5051 1.400 . S
C5052 C5055 1.386 . S
H5053 C5069 0.930 . S
H5054 C5070 0.931 . S
C5055 H5043 0.929 . S
C5055 C5049 1.390 . S
C5055 C5052 1.386 . S
C5056 C5051 1.490 . S
C5056 C5058 1.395 . S
C5056 C5059 1.403 . S
H5057 C5063 0.930 . S
C5058 H5044 0.930 . S
C5058 C5056 1.395 . S
C5058 C5061 1.403 . S
C5059 C5056 1.403 . S
C5059 C5060 1.524 . S
C5059 C5063 1.400 . S
C5060 H5045 0.960 . S
C5060 H5046 0.960 . S
C5060 H5047 0.960 . S
C5060 C5059 1.524 . S
C5061 C5058 1.403 . S
C5061 C5062 1.392 . S
C5061 C5065 1.495 . S
C5062 C5061 1.392 . S
C5062 C5063 1.385 . S
C5062 C5064 1.478 . S
C5063 H5057 0.930 . S
C5063 C5059 1.400 . S
C5063 C5062 1.385 . S
C5064 C5062 1.478 . S
C5064 C5066 1.381 . S
C5064 C5070 1.383 . S
C5065 C5061 1.495 . S
C5065 H5071 0.959 . S
C5065 H5072 0.961 . S
C5065 H5073 0.960 . S
C5066 C5064 1.381 . S
C5066 C5067 1.394 . S
C5066 H5074 0.930 . S
C5067 C5066 1.394 . S
C5067 C5068 1.383 . S
C5067 H5075 0.929 . S
C5068 C5067 1.383 . S
C5068 C5069 1.377 . S
C5069 H5053 0.930 . S
C5069 C5068 1.377 . S
C5069 C5070 1.379 . S
C5070 H5054 0.931 . S
C5070 C5064 1.383 . S
C5070 C5069 1.379 . S
H5071 C5065 0.959 . S
H5072 C5065 0.961 . S
H5073 C5065 0.960 . S
H5074 C5066 0.930 . S
H5075 C5067 0.929 . S
H5076 C5084 0.929 . S
H5077 C5086 0.930 . S
H5078 C5088 0.930 . S
H5079 C5091 0.929 . S
H5080 C5094 0.930 . S
H5081 C5096 0.960 . S
H5082 C5096 0.960 . S
H5083 C5096 0.960 . S
C5084 H5076 0.929 . S
C5084 C5085 1.377 . S
C5084 C5086 1.384 . S
C5085 C5084 1.377 . S
C5085 C5091 1.390 . S
C5086 H5077 0.930 . S
C5086 C5084 1.384 . S
C5086 C5087 1.372 . S
C5087 C5086 1.372 . S
C5087 C5088 1.400 . S
C5087 C5092 1.490 . S
C5088 H5078 0.930 . S
C5088 C5087 1.400 . S
C5088 C5091 1.386 . S
H5089 C5105 0.930 . S
H5090 C5106 0.931 . S
C5091 H5079 0.929 . S
C5091 C5085 1.390 . S
C5091 C5088 1.386 . S
C5092 C5087 1.490 . S
C5092 C5094 1.395 . S
C5092 C5095 1.403 . S
H5093 C5099 0.930 . S
C5094 H5080 0.930 . S
C5094 C5092 1.395 . S
C5094 C5097 1.403 . S
C5095 C5092 1.403 . S
C5095 C5096 1.524 . S
C5095 C5099 1.400 . S
C5096 H5081 0.960 . S
C5096 H5082 0.960 . S
C5096 H5083 0.960 . S
C5096 C5095 1.524 . S
C5097 C5094 1.403 . S
C5097 C5098 1.392 . S
C5097 C5101 1.495 . S
C5098 C5097 1.392 . S
C5098 C5099 1.385 . S
C5098 C5100 1.478 . S
C5099 H5093 0.930 . S
C5099 C5095 1.400 . S
C5099 C5098 1.385 . S
C5100 C5098 1.478 . S
C5100 C5102 1.381 . S
C5100 C5106 1.383 . S
C5101 C5097 1.495 . S
C5101 H5107 0.959 . S
C5101 H5108 0.961 . S
C5101 H5109 0.915 1_565 S
C5102 C5100 1.381 . S
C5102 C5103 1.362 1_565 S
C5102 H5110 0.930 . S
C5103 C5102 1.362 1_545 S
C5103 C5104 1.377 1_545 S
C5103 H5111 0.970 . S
C5104 C5103 1.377 1_565 S
C5104 C5105 1.377 . S
C5105 H5089 0.930 . S
C5105 C5104 1.377 . S
C5105 C5106 1.379 . S
C5106 H5090 0.931 . S
C5106 C5100 1.383 . S
C5106 C5105 1.379 . S
H5107 C5101 0.959 . S
H5108 C5101 0.961 . S
H5109 C5101 0.915 1_545 S
H5110 C5102 0.930 . S
H5111 C5103 0.970 . S
H5112 C5120 0.929 . S
H5113 C5122 0.930 . S
H5114 C5124 0.930 . S
H5115 C5127 0.929 . S
H5116 C5130 0.930 . S
H5117 C5132 0.960 . S
H5118 C5132 0.960 . S
H5119 C5132 0.960 . S
C5120 H5112 0.929 . S
C5120 C5121 1.377 . S
C5120 C5122 1.384 . S
C5121 C5120 1.377 . S
C5121 C5127 1.390 . S
C5122 H5113 0.930 . S
C5122 C5120 1.384 . S
C5122 C5123 1.372 . S
C5123 C5122 1.372 . S
C5123 C5124 1.400 . S
C5123 C5128 1.490 . S
C5124 H5114 0.930 . S
C5124 C5123 1.400 . S
C5124 C5127 1.386 . S
H5125 C5141 0.930 . S
H5126 C5142 0.931 . S
C5127 H5115 0.929 . S
C5127 C5121 1.390 . S
C5127 C5124 1.386 . S
C5128 C5123 1.490 . S
C5128 C5130 1.395 . S
C5128 C5131 1.403 . S
H5129 C5135 0.930 . S
C5130 H5116 0.930 . S
C5130 C5128 1.395 . S
C5130 C5133 1.403 . S
C5131 C5128 1.403 . S
C5131 C5132 1.524 . S
C5131 C5135 1.400 . S
C5132 H5117 0.960 . S
C5132 H5118 0.960 . S
C5132 H5119 0.960 . S
C5132 C5131 1.524 . S
C5133 C5130 1.403 . S
C5133 C5134 1.392 . S
C5133 C5137 1.495 . S
C5134 C5133 1.392 . S
C5134 C5135 1.385 . S
C5134 C5136 1.478 . S
C5135 H5129 0.930 . S
C5135 C5131 1.400 . S
C5135 C5134 1.385 . S
C5136 C5134 1.478 . S
C5136 C5138 1.381 . S
C5136 C5142 1.383 . S
C5137 C5133 1.495 . S
C5137 H5143 0.959 . S
C5137 H5144 0.961 . S
C5137 H5145 0.960 . S
C5138 C5136 1.381 . S
C5138 C5139 1.394 . S
C5138 H5146 0.930 . S
C5139 C5138 1.394 . S
C5139 C5140 1.383 . S
C5139 H5147 0.929 . S
C5140 C5139 1.383 . S
C5140 C5141 1.377 . S
C5141 H5125 0.930 . S
C5141 C5140 1.377 . S
C5141 C5142 1.379 . S
C5142 H5126 0.931 . S
C5142 C5136 1.383 . S
C5142 C5141 1.379 . S
H5143 C5137 0.959 . S
H5144 C5137 0.961 . S
H5145 C5137 0.960 . S
H5146 C5138 0.930 . S
H5147 C5139 0.929 . S
H5148 C5156 0.929 . S
H5149 C5158 0.930 . S
H5150 C5160 0.930 . S
H5151 C5163 0.929 . S
H5152 C5166 0.930 . S
H5153 C5168 0.960 . S
H5154 C5168 0.960 . S
H5155 C5168 0.960 . S
C5156 H5148 0.929 . S
C5156 C5157 1.377 . S
C5156 C5158 1.384 . S
C5157 C5156 1.377 . S
C5157 C5163 1.390 . S
C5158 H5149 0.930 . S
C5158 C5156 1.384 . S
C5158 C5159 1.372 . S
C5159 C5158 1.372 . S
C5159 C5160 1.400 . S
C5159 C5164 1.490 . S
C5160 H5150 0.930 . S
C5160 C5159 1.400 . S
C5160 C5163 1.386 . S
H5161 C5177 0.930 . S
H5162 C5178 0.931 . S
C5163 H5151 0.929 . S
C5163 C5157 1.390 . S
C5163 C5160 1.386 . S
C5164 C5159 1.490 . S
C5164 C5166 1.395 . S
C5164 C5167 1.403 . S
H5165 C5171 0.930 . S
C5166 H5152 0.930 . S
C5166 C5164 1.395 . S
C5166 C5169 1.403 . S
C5167 C5164 1.403 . S
C5167 C5168 1.524 . S
C5167 C5171 1.400 . S
C5168 H5153 0.960 . S
C5168 H5154 0.960 . S
C5168 H5155 0.960 . S
C5168 C5167 1.524 . S
C5169 C5166 1.403 . S
C5169 C5170 1.392 . S
C5169 C5173 1.495 . S
C5170 C5169 1.392 . S
C5170 C5171 1.385 . S
C5170 C5172 1.478 . S
C5171 H5165 0.930 . S
C5171 C5167 1.400 . S
C5171 C5170 1.385 . S
C5172 C5170 1.478 . S
C5172 C5174 1.381 . S
C5172 C5178 1.383 . S
C5173 C5169 1.495 . S
C5173 H5179 0.959 . S
C5173 H5180 0.961 . S
C5173 H5181 0.960 . S
C5174 C5172 1.381 . S
C5174 C5175 1.394 . S
C5174 H5182 0.930 . S
C5175 C5174 1.394 . S
C5175 C5176 1.383 . S
C5175 H5183 0.929 . S
C5176 C5175 1.383 . S
C5176 C5177 1.377 . S
C5177 H5161 0.930 . S
C5177 C5176 1.377 . S
C5177 C5178 1.379 . S
C5178 H5162 0.931 . S
C5178 C5172 1.383 . S
C5178 C5177 1.379 . S
H5179 C5173 0.959 . S
H5180 C5173 0.961 . S
H5181 C5173 0.960 . S
H5182 C5174 0.930 . S
H5183 C5175 0.929 . S
H5184 C5192 0.929 . S
H5185 C5194 0.930 . S
H5186 C5196 0.930 . S
H5187 C5199 0.929 . S
H5188 C5202 0.930 . S
H5189 C5204 0.960 . S
H5190 C5204 0.960 . S
H5191 C5204 0.960 . S
C5192 H5184 0.929 . S
C5192 C5193 1.377 . S
C5192 C5194 1.384 . S
C5193 C5192 1.377 . S
C5193 C5199 1.390 . S
C5194 H5185 0.930 . S
C5194 C5192 1.384 . S
C5194 C5195 1.372 . S
C5195 C5194 1.372 . S
C5195 C5196 1.400 . S
C5195 C5200 1.490 . S
C5196 H5186 0.930 . S
C5196 C5195 1.400 . S
C5196 C5199 1.386 . S
H5197 C5213 0.930 . S
H5198 C5214 0.931 . S
C5199 H5187 0.929 . S
C5199 C5193 1.390 . S
C5199 C5196 1.386 . S
C5200 C5195 1.490 . S
C5200 C5202 1.395 . S
C5200 C5203 1.403 . S
H5201 C5207 0.930 . S
C5202 H5188 0.930 . S
C5202 C5200 1.395 . S
C5202 C5205 1.403 . S
C5203 C5200 1.403 . S
C5203 C5204 1.524 . S
C5203 C5207 1.400 . S
C5204 H5189 0.960 . S
C5204 H5190 0.960 . S
C5204 H5191 0.960 . S
C5204 C5203 1.524 . S
C5205 C5202 1.403 . S
C5205 C5206 1.392 . S
C5205 C5209 1.495 . S
C5206 C5205 1.392 . S
C5206 C5207 1.385 . S
C5206 C5208 1.478 . S
C5207 H5201 0.930 . S
C5207 C5203 1.400 . S
C5207 C5206 1.385 . S
C5208 C5206 1.478 . S
C5208 C5210 1.381 . S
C5208 C5214 1.383 . S
C5209 C5205 1.495 . S
C5209 H5215 0.959 . S
C5209 H5216 0.961 . S
C5209 H5217 0.960 . S
C5210 C5208 1.381 . S
C5210 C5211 1.394 . S
C5210 H5218 0.930 . S
C5211 C5210 1.394 . S
C5211 C5212 1.383 . S
C5211 H5219 0.929 . S
C5212 C5211 1.383 . S
C5212 C5213 1.377 . S
C5213 H5197 0.930 . S
C5213 C5212 1.377 . S
C5213 C5214 1.379 . S
C5214 H5198 0.931 . S
C5214 C5208 1.383 . S
C5214 C5213 1.379 . S
H5215 C5209 0.959 . S
H5216 C5209 0.961 . S
H5217 C5209 0.960 . S
H5218 C5210 0.930 . S
H5219 C5211 0.929 . S
H5220 C5228 0.929 . S
H5221 C5230 0.930 . S
H5222 C5232 0.930 . S
H5223 C5235 0.929 . S
H5224 C5238 0.930 . S
H5225 C5240 0.960 . S
H5226 C5240 0.960 . S
H5227 C5240 0.960 . S
C5228 H5220 0.929 . S
C5228 C5229 1.377 . S
C5228 C5230 1.384 . S
C5229 C5228 1.377 . S
C5229 C5235 1.390 . S
C5230 H5221 0.930 . S
C5230 C5228 1.384 . S
C5230 C5231 1.372 . S
C5231 C5230 1.372 . S
C5231 C5232 1.400 . S
C5231 C5236 1.490 . S
C5232 H5222 0.930 . S
C5232 C5231 1.400 . S
C5232 C5235 1.386 . S
H5233 C5249 0.930 . S
H5234 C5250 0.931 . S
C5235 H5223 0.929 . S
C5235 C5229 1.390 . S
C5235 C5232 1.386 . S
C5236 C5231 1.490 . S
C5236 C5238 1.395 . S
C5236 C5239 1.403 . S
H5237 C5243 0.930 . S
C5238 H5224 0.930 . S
C5238 C5236 1.395 . S
C5238 C5241 1.403 . S
C5239 C5236 1.403 . S
C5239 C5240 1.524 . S
C5239 C5243 1.400 . S
C5240 H5225 0.960 . S
C5240 H5226 0.960 . S
C5240 H5227 0.960 . S
C5240 C5239 1.524 . S
C5241 C5238 1.403 . S
C5241 C5242 1.392 . S
C5241 C5245 1.495 . S
C5242 C5241 1.392 . S
C5242 C5243 1.385 . S
C5242 C5244 1.478 . S
C5243 H5237 0.930 . S
C5243 C5239 1.400 . S
C5243 C5242 1.385 . S
C5244 C5242 1.478 . S
C5244 C5246 1.381 . S
C5244 C5250 1.383 . S
C5245 C5241 1.495 . S
C5245 H5251 0.959 . S
C5245 H5252 0.961 . S
C5245 H5253 0.960 . S
C5246 C5244 1.381 . S
C5246 C5247 1.394 . S
C5246 H5254 0.930 . S
C5247 C5246 1.394 . S
C5247 C5248 1.383 . S
C5247 H5255 0.929 . S
C5248 C5247 1.383 . S
C5248 C5249 1.377 . S
C5249 H5233 0.930 . S
C5249 C5248 1.377 . S
C5249 C5250 1.379 . S
C5250 H5234 0.931 . S
C5250 C5244 1.383 . S
C5250 C5249 1.379 . S
H5251 C5245 0.959 . S
H5252 C5245 0.961 . S
H5253 C5245 0.960 . S
H5254 C5246 0.930 . S
H5255 C5247 0.929 . S
H5256 C5264 0.929 . S
H5257 C5266 0.930 . S
H5258 C5268 0.922 1_554 S
H5259 C5271 0.955 . S
H5260 C5274 0.930 . S
H5261 C5276 0.960 . S
H5262 C5276 0.960 . S
H5263 C5276 0.960 . S
C5264 H5256 0.929 . S
C5264 C5265 1.377 . S
C5264 C5266 1.384 . S
C5265 C5264 1.377 . S
C5265 C5271 1.390 . S
C5266 H5257 0.930 . S
C5266 C5264 1.384 . S
C5266 C5267 1.372 . S
C5267 C5266 1.372 . S
C5267 C5268 1.409 . S
C5267 C5272 1.490 . S
C5268 H5258 0.922 1_556 S
C5268 C5267 1.409 . S
C5268 C5271 1.385 . S
H5269 C5285 0.930 . S
H5270 C5286 0.931 . S
C5271 H5259 0.955 . S
C5271 C5265 1.390 . S
C5271 C5268 1.385 . S
C5272 C5267 1.490 . S
C5272 C5274 1.395 . S
C5272 C5275 1.403 1_556 S
H5273 C5279 0.930 . S
C5274 H5260 0.930 . S
C5274 C5272 1.395 . S
C5274 C5277 1.403 . S
C5275 C5272 1.403 1_554 S
C5275 C5276 1.524 . S
C5275 C5279 1.400 . S
C5276 H5261 0.960 . S
C5276 H5262 0.960 . S
C5276 H5263 0.960 . S
C5276 C5275 1.524 . S
C5277 C5274 1.403 . S
C5277 C5278 1.392 1_556 S
C5277 C5281 1.495 . S
C5278 C5277 1.392 1_554 S
C5278 C5279 1.385 . S
C5278 C5280 1.478 . S
C5279 H5273 0.930 . S
C5279 C5275 1.400 . S
C5279 C5278 1.385 . S
C5280 C5278 1.478 . S
C5280 C5282 1.381 . S
C5280 C5286 1.383 . S
C5281 C5277 1.495 . S
C5281 H5287 0.959 . S
C5281 H5288 0.961 . S
C5281 H5289 0.960 . S
C5282 C5280 1.381 . S
C5282 C5283 1.394 . S
C5282 H5290 0.930 1_554 S
C5283 C5282 1.394 . S
C5283 C5284 1.383 . S
C5283 H5291 0.929 . S
C5284 C5283 1.383 . S
C5284 C5285 1.377 . S
C5285 H5269 0.930 . S
C5285 C5284 1.377 . S
C5285 C5286 1.379 . S
C5286 H5270 0.931 . S
C5286 C5280 1.383 . S
C5286 C5285 1.379 . S
H5287 C5281 0.959 . S
H5288 C5281 0.961 . S
H5289 C5281 0.960 . S
H5290 C5282 0.930 1_556 S
H5291 C5283 0.929 . S
H5292 C5300 0.929 1_455 S
H5293 C5302 0.930 . S
H5294 C5304 0.930 . S
H5295 C5307 0.929 . S
H5296 C5310 0.930 . S
H5297 C5312 0.960 . S
H5298 C5312 0.960 . S
H5299 C5312 0.960 . S
C5300 H5292 0.929 1_655 S
C5300 C5301 1.377 . S
C5300 C5302 1.384 . S
C5301 C5300 1.377 . S
C5301 C5307 1.390 . S
C5302 H5293 0.930 . S
C5302 C5300 1.384 . S
C5302 C5303 1.372 . S
C5303 C5302 1.372 . S
C5303 C5304 1.400 . S
C5303 C5308 1.490 . S
C5304 H5294 0.930 . S
C5304 C5303 1.400 . S
C5304 C5307 1.386 . S
H5305 C5321 0.930 . S
H5306 C5322 0.931 . S
C5307 H5295 0.929 . S
C5307 C5301 1.390 . S
C5307 C5304 1.386 . S
C5308 C5303 1.490 . S
C5308 C5310 1.395 . S
C5308 C5311 1.403 . S
H5309 C5315 0.930 . S
C5310 H5296 0.930 . S
C5310 C5308 1.395 . S
C5310 C5313 1.403 . S
C5311 C5308 1.403 . S
C5311 C5312 1.524 . S
C5311 C5315 1.400 . S
C5312 H5297 0.960 . S
C5312 H5298 0.960 . S
C5312 H5299 0.960 . S
C5312 C5311 1.524 . S
C5313 C5310 1.403 . S
C5313 C5314 1.392 . S
C5313 C5317 1.495 . S
C5314 C5313 1.392 . S
C5314 C5315 1.385 . S
C5314 C5316 1.478 . S
C5315 H5309 0.930 . S
C5315 C5311 1.400 . S
C5315 C5314 1.385 . S
C5316 C5314 1.478 . S
C5316 C5318 1.381 . S
C5316 C5322 1.383 . S
C5317 C5313 1.495 . S
C5317 H5323 0.959 . S
C5317 H5324 0.961 . S
C5317 H5325 0.960 . S
C5318 C5316 1.381 . S
C5318 C5319 1.394 . S
C5318 H5326 0.930 . S
C5319 C5318 1.394 . S
C5319 C5320 1.383 . S
C5319 H5327 0.929 . S
C5320 C5319 1.383 . S
C5320 C5321 1.377 . S
C5321 H5305 0.930 . S
C5321 C5320 1.377 . S
C5321 C5322 1.379 . S
C5322 H5306 0.931 . S
C5322 C5316 1.383 . S
C5322 C5321 1.379 . S
H5323 C5317 0.959 . S
H5324 C5317 0.961 . S
H5325 C5317 0.960 . S
H5326 C5318 0.930 . S
H5327 C5319 0.929 . S
H5328 C5336 0.929 . S
H5329 C5338 0.930 . S
H5330 C5340 0.930 . S
H5331 C5343 0.929 . S
H5332 C5346 0.930 . S
H5333 C5348 0.960 . S
H5334 C5348 0.960 . S
H5335 C5348 0.960 . S
C5336 H5328 0.929 . S
C5336 C5337 1.377 . S
C5336 C5338 1.384 . S
C5337 C5336 1.377 . S
C5337 C5343 1.390 . S
C5338 H5329 0.930 . S
C5338 C5336 1.384 . S
C5338 C5339 1.372 . S
C5339 C5338 1.372 . S
C5339 C5340 1.400 . S
C5339 C5344 1.490 . S
C5340 H5330 0.930 . S
C5340 C5339 1.400 . S
C5340 C5343 1.386 . S
H5341 C5357 0.930 . S
H5342 C5358 0.931 . S
C5343 H5331 0.929 . S
C5343 C5337 1.390 . S
C5343 C5340 1.386 . S
C5344 C5339 1.490 . S
C5344 C5346 1.395 . S
C5344 C5347 1.403 . S
H5345 C5351 0.930 . S
C5346 H5332 0.930 . S
C5346 C5344 1.395 . S
C5346 C5349 1.403 . S
C5347 C5344 1.403 . S
C5347 C5348 1.524 . S
C5347 C5351 1.400 . S
C5348 H5333 0.960 . S
C5348 H5334 0.960 . S
C5348 H5335 0.960 . S
C5348 C5347 1.524 . S
C5349 C5346 1.403 . S
C5349 C5350 1.392 . S
C5349 C5353 1.495 . S
C5350 C5349 1.392 . S
C5350 C5351 1.385 . S
C5350 C5352 1.478 . S
C5351 H5345 0.930 . S
C5351 C5347 1.400 . S
C5351 C5350 1.385 . S
C5352 C5350 1.478 . S
C5352 C5354 1.381 . S
C5352 C5358 1.383 . S
C5353 C5349 1.495 . S
C5353 H5359 0.959 . S
C5353 H5360 0.961 . S
C5353 H5361 0.960 . S
C5354 C5352 1.381 . S
C5354 C5355 1.394 . S
C5354 H5362 0.930 . S
C5355 C5354 1.394 . S
C5355 C5356 1.383 . S
C5355 H5363 0.929 . S
C5356 C5355 1.383 . S
C5356 C5357 1.377 . S
C5357 H5341 0.930 . S
C5357 C5356 1.377 . S
C5357 C5358 1.379 . S
C5358 H5342 0.931 . S
C5358 C5352 1.383 . S
C5358 C5357 1.379 . S
H5359 C5353 0.959 . S
H5360 C5353 0.961 . S
H5361 C5353 0.960 . S
H5362 C5354 0.930 . S
H5363 C5355 0.929 . S
H5364 C5372 0.929 . S
H5365 C5374 0.930 . S
H5366 C5376 0.930 . S
H5367 C5379 0.929 . S
H5368 C5382 0.930 . S
H5369 C5384 0.960 . S
H5370 C5384 0.960 . S
H5371 C5384 0.960 . S
C5372 H5364 0.929 . S
C5372 C5373 1.377 . S
C5372 C5374 1.384 1_455 S
C5373 C5372 1.377 . S
C5373 C5379 1.390 . S
C5374 H5365 0.930 . S
C5374 C5372 1.384 1_655 S
C5374 C5375 1.372 . S
C5375 C5374 1.372 . S
C5375 C5376 1.400 . S
C5375 C5380 1.490 . S
C5376 H5366 0.930 . S
C5376 C5375 1.400 . S
C5376 C5379 1.386 1_655 S
H5377 C5393 0.930 . S
H5378 C5394 0.931 . S
C5379 H5367 0.929 . S
C5379 C5373 1.390 . S
C5379 C5376 1.386 1_455 S
C5380 C5375 1.490 . S
C5380 C5382 1.395 . S
C5380 C5383 1.403 . S
H5381 C5387 0.930 . S
C5382 H5368 0.930 . S
C5382 C5380 1.395 . S
C5382 C5385 1.403 . S
C5383 C5380 1.403 . S
C5383 C5384 1.524 . S
C5383 C5387 1.400 . S
C5384 H5369 0.960 . S
C5384 H5370 0.960 . S
C5384 H5371 0.960 . S
C5384 C5383 1.524 . S
C5385 C5382 1.403 . S
C5385 C5386 1.392 . S
C5385 C5389 1.495 . S
C5386 C5385 1.392 . S
C5386 C5387 1.385 . S
C5386 C5388 1.478 . S
C5387 H5381 0.930 . S
C5387 C5383 1.400 . S
C5387 C5386 1.385 . S
C5388 C5386 1.478 . S
C5388 C5390 1.381 . S
C5388 C5394 1.383 . S
C5389 C5385 1.495 . S
C5389 H5395 0.959 . S
C5389 H5396 0.961 . S
C5389 H5397 0.960 . S
C5390 C5388 1.381 . S
C5390 C5391 1.394 . S
C5390 H5398 0.930 . S
C5391 C5390 1.394 . S
C5391 C5392 1.383 . S
C5391 H5399 0.929 . S
C5392 C5391 1.383 . S
C5392 C5393 1.377 . S
C5393 H5377 0.930 . S
C5393 C5392 1.377 . S
C5393 C5394 1.379 . S
C5394 H5378 0.931 . S
C5394 C5388 1.383 . S
C5394 C5393 1.379 . S
H5395 C5389 0.959 . S
H5396 C5389 0.961 . S
H5397 C5389 0.960 . S
H5398 C5390 0.930 . S
H5399 C5391 0.929 . S
H5400 C5408 0.929 . S
H5401 C5410 0.930 . S
H5402 C5412 0.930 . S
H5403 C5415 0.929 . S
H5404 C5418 0.930 . S
H5405 C5420 0.960 . S
H5406 C5420 0.960 . S
H5407 C5420 0.960 . S
C5408 H5400 0.929 . S
C5408 C5409 1.377 1_455 S
C5408 C5410 1.384 . S
C5409 C5408 1.377 1_655 S
C5409 C5415 1.390 . S
C5410 H5401 0.930 . S
C5410 C5408 1.384 . S
C5410 C5411 1.385 . S
C5411 C5410 1.385 . S
C5411 C5412 1.366 1_455 S
C5411 C5416 1.512 . S
C5412 H5402 0.930 . S
C5412 C5411 1.366 1_655 S
C5412 C5415 1.386 . S
H5413 C5429 0.930 . S
H5414 C5430 0.931 . S
C5415 H5403 0.929 . S
C5415 C5409 1.390 . S
C5415 C5412 1.386 . S
C5416 C5411 1.512 . S
C5416 C5418 1.395 . S
C5416 C5419 1.403 1_455 S
H5417 C5423 0.911 1_655 S
C5418 H5404 0.930 . S
C5418 C5416 1.395 . S
C5418 C5421 1.403 . S
C5419 C5416 1.403 1_655 S
C5419 C5420 1.524 . S
C5419 C5423 1.400 1_655 S
C5420 H5405 0.960 . S
C5420 H5406 0.960 . S
C5420 H5407 0.960 . S
C5420 C5419 1.524 . S
C5421 C5418 1.403 . S
C5421 C5422 1.392 . S
C5421 C5425 1.495 . S
C5422 C5421 1.392 . S
C5422 C5423 1.385 . S
C5422 C5424 1.478 . S
C5423 H5417 0.911 1_455 S
C5423 C5419 1.400 1_455 S
C5423 C5422 1.385 . S
C5424 C5422 1.478 . S
C5424 C5426 1.381 . S
C5424 C5430 1.383 . S
C5425 C5421 1.495 . S
C5425 H5431 0.959 . S
C5425 H5432 0.961 . S
C5425 H5433 0.960 . S
C5426 C5424 1.381 . S
C5426 C5427 1.394 . S
C5426 H5434 0.930 . S
C5427 C5426 1.394 . S
C5427 C5428 1.383 . S
C5427 H5435 0.929 . S
C5428 C5427 1.383 . S
C5428 C5429 1.377 . S
C5429 H5413 0.930 . S
C5429 C5428 1.377 . S
C5429 C5430 1.379 . S
C5430 H5414 0.931 . S
C5430 C5424 1.383 . S
C5430 C5429 1.379 . S
H5431 C5425 0.959 . S
H5432 C5425 0.961 . S
H5433 C5425 0.960 . S
H5434 C5426 0.930 . S
H5435 C5427 0.929 . S
H5436 C5444 0.929 . S
H5437 C5446 0.930 . S
H5438 C5448 0.930 . S
H5439 C5451 0.929 . S
H5440 C5454 0.930 . S
H5441 C5456 0.960 . S
H5442 C5456 0.960 . S
H5443 C5456 0.960 . S
C5444 H5436 0.929 . S
C5444 C5445 1.377 . S
C5444 C5446 1.384 . S
C5445 C5444 1.377 . S
C5445 C5451 1.390 . S
C5446 H5437 0.930 . S
C5446 C5444 1.384 . S
C5446 C5447 1.372 . S
C5447 C5446 1.372 . S
C5447 C5448 1.400 . S
C5447 C5452 1.490 . S
C5448 H5438 0.930 . S
C5448 C5447 1.400 . S
C5448 C5451 1.386 . S
H5449 C5465 0.930 . S
H5450 C5466 0.931 . S
C5451 H5439 0.929 . S
C5451 C5445 1.390 . S
C5451 C5448 1.386 . S
C5452 C5447 1.490 . S
C5452 C5454 1.395 . S
C5452 C5455 1.403 . S
H5453 C5459 0.930 . S
C5454 H5440 0.930 . S
C5454 C5452 1.395 . S
C5454 C5457 1.403 . S
C5455 C5452 1.403 . S
C5455 C5456 1.524 . S
C5455 C5459 1.400 . S
C5456 H5441 0.960 . S
C5456 H5442 0.960 . S
C5456 H5443 0.960 . S
C5456 C5455 1.524 . S
C5457 C5454 1.403 . S
C5457 C5458 1.392 . S
C5457 C5461 1.495 . S
C5458 C5457 1.392 . S
C5458 C5459 1.385 . S
C5458 C5460 1.478 . S
C5459 H5453 0.930 . S
C5459 C5455 1.400 . S
C5459 C5458 1.385 . S
C5460 C5458 1.478 . S
C5460 C5462 1.381 . S
C5460 C5466 1.383 . S
C5461 C5457 1.495 . S
C5461 H5467 0.959 . S
C5461 H5468 0.961 . S
C5461 H5469 0.960 . S
C5462 C5460 1.381 . S
C5462 C5463 1.394 . S
C5462 H5470 0.930 . S
C5463 C5462 1.394 . S
C5463 C5464 1.383 . S
C5463 H5471 0.929 . S
C5464 C5463 1.383 . S
C5464 C5465 1.377 . S
C5465 H5449 0.930 . S
C5465 C5464 1.377 . S
C5465 C5466 1.379 . S
C5466 H5450 0.931 . S
C5466 C5460 1.383 . S
C5466 C5465 1.379 . S
H5467 C5461 0.959 . S
H5468 C5461 0.961 . S
H5469 C5461 0.960 . S
H5470 C5462 0.930 . S
H5471 C5463 0.929 . S
H5472 C5480 0.929 . S
H5473 C5482 0.930 . S
H5474 C5484 0.930 . S
H5475 C5487 0.929 . S
H5476 C5490 0.930 . S
H5477 C5492 0.960 . S
H5478 C5492 0.960 . S
H5479 C5492 0.960 . S
C5480 H5472 0.929 . S
C5480 C5481 1.377 . S
C5480 C5482 1.384 . S
C5481 C5480 1.377 . S
C5481 C5487 1.390 . S
C5482 H5473 0.930 . S
C5482 C5480 1.384 . S
C5482 C5483 1.372 . S
C5483 C5482 1.372 . S
C5483 C5484 1.400 . S
C5483 C5488 1.490 . S
C5484 H5474 0.930 . S
C5484 C5483 1.400 . S
C5484 C5487 1.386 . S
H5485 C5501 0.930 . S
H5486 C5502 0.931 . S
C5487 H5475 0.929 . S
C5487 C5481 1.390 . S
C5487 C5484 1.386 . S
C5488 C5483 1.490 . S
C5488 C5490 1.395 . S
C5488 C5491 1.403 . S
H5489 C5495 0.930 . S
C5490 H5476 0.930 . S
C5490 C5488 1.395 . S
C5490 C5493 1.403 . S
C5491 C5488 1.403 . S
C5491 C5492 1.524 . S
C5491 C5495 1.400 . S
C5492 H5477 0.960 . S
C5492 H5478 0.960 . S
C5492 H5479 0.960 . S
C5492 C5491 1.524 . S
C5493 C5490 1.403 . S
C5493 C5494 1.392 . S
C5493 C5497 1.495 . S
C5494 C5493 1.392 . S
C5494 C5495 1.385 . S
C5494 C5496 1.478 . S
C5495 H5489 0.930 . S
C5495 C5491 1.400 . S
C5495 C5494 1.385 . S
C5496 C5494 1.478 . S
C5496 C5498 1.381 . S
C5496 C5502 1.383 . S
C5497 C5493 1.495 . S
C5497 H5503 0.959 . S
C5497 H5504 0.961 . S
C5497 H5505 0.960 . S
C5498 C5496 1.381 . S
C5498 C5499 1.394 . S
C5498 H5506 0.930 . S
C5499 C5498 1.394 . S
C5499 C5500 1.383 . S
C5499 H5507 0.929 . S
C5500 C5499 1.383 . S
C5500 C5501 1.377 . S
C5501 H5485 0.930 . S
C5501 C5500 1.377 . S
C5501 C5502 1.379 . S
C5502 H5486 0.931 . S
C5502 C5496 1.383 . S
C5502 C5501 1.379 . S
H5503 C5497 0.959 . S
H5504 C5497 0.961 . S
H5505 C5497 0.960 . S
H5506 C5498 0.930 . S
H5507 C5499 0.929 . S
H5508 C5516 0.929 . S
H5509 C5518 0.930 . S
H5510 C5520 0.930 . S
H5511 C5523 0.929 . S
H5512 C5526 0.930 . S
H5513 C5528 0.960 . S
H5514 C5528 0.960 . S
H5515 C5528 0.960 . S
C5516 H5508 0.929 . S
C5516 C5517 1.377 . S
C5516 C5518 1.384 . S
C5517 C5516 1.377 . S
C5517 C5523 1.390 . S
C5518 H5509 0.930 . S
C5518 C5516 1.384 . S
C5518 C5519 1.372 . S
C5519 C5518 1.372 . S
C5519 C5520 1.400 . S
C5519 C5524 1.490 . S
C5520 H5510 0.930 . S
C5520 C5519 1.400 . S
C5520 C5523 1.386 . S
H5521 C5537 0.930 . S
H5522 C5538 0.931 . S
C5523 H5511 0.929 . S
C5523 C5517 1.390 . S
C5523 C5520 1.386 . S
C5524 C5519 1.490 . S
C5524 C5526 1.395 . S
C5524 C5527 1.403 . S
H5525 C5531 0.930 . S
C5526 H5512 0.930 . S
C5526 C5524 1.395 . S
C5526 C5529 1.403 . S
C5527 C5524 1.403 . S
C5527 C5528 1.524 . S
C5527 C5531 1.400 . S
C5528 H5513 0.960 . S
C5528 H5514 0.960 . S
C5528 H5515 0.960 . S
C5528 C5527 1.524 . S
C5529 C5526 1.403 . S
C5529 C5530 1.392 . S
C5529 C5533 1.495 . S
C5530 C5529 1.392 . S
C5530 C5531 1.385 . S
C5530 C5532 1.478 . S
C5531 H5525 0.930 . S
C5531 C5527 1.400 . S
C5531 C5530 1.385 . S
C5532 C5530 1.478 . S
C5532 C5534 1.381 . S
C5532 C5538 1.383 . S
C5533 C5529 1.495 . S
C5533 H5539 0.959 . S
C5533 H5540 0.961 . S
C5533 H5541 0.960 . S
C5534 C5532 1.381 . S
C5534 C5535 1.394 . S
C5534 H5542 0.930 . S
C5535 C5534 1.394 . S
C5535 C5536 1.383 . S
C5535 H5543 0.929 . S
C5536 C5535 1.383 . S
C5536 C5537 1.377 . S
C5537 H5521 0.930 . S
C5537 C5536 1.377 . S
C5537 C5538 1.379 . S
C5538 H5522 0.931 . S
C5538 C5532 1.383 . S
C5538 C5537 1.379 . S
H5539 C5533 0.959 . S
H5540 C5533 0.961 . S
H5541 C5533 0.960 . S
H5542 C5534 0.930 . S
H5543 C5535 0.929 . S
H5544 C5552 0.929 . S
H5545 C5554 0.930 . S
H5546 C5556 0.930 . S
H5547 C5559 0.929 . S
H5548 C5562 0.930 . S
H5549 C5564 0.960 . S
H5550 C5564 0.960 . S
H5551 C5564 0.960 . S
C5552 H5544 0.929 . S
C5552 C5553 1.377 . S
C5552 C5554 1.384 . S
C5553 C5552 1.377 . S
C5553 C5559 1.390 . S
C5554 H5545 0.930 . S
C5554 C5552 1.384 . S
C5554 C5555 1.372 . S
C5555 C5554 1.372 . S
C5555 C5556 1.400 . S
C5555 C5560 1.490 . S
C5556 H5546 0.930 . S
C5556 C5555 1.400 . S
C5556 C5559 1.386 . S
H5557 C5573 0.930 . S
H5558 C5574 0.931 . S
C5559 H5547 0.929 . S
C5559 C5553 1.390 . S
C5559 C5556 1.386 . S
C5560 C5555 1.490 . S
C5560 C5562 1.395 . S
C5560 C5563 1.403 . S
H5561 C5567 0.930 . S
C5562 H5548 0.930 . S
C5562 C5560 1.395 . S
C5562 C5565 1.403 . S
C5563 C5560 1.403 . S
C5563 C5564 1.524 . S
C5563 C5567 1.400 . S
C5564 H5549 0.960 . S
C5564 H5550 0.960 . S
C5564 H5551 0.960 . S
C5564 C5563 1.524 . S
C5565 C5562 1.403 . S
C5565 C5566 1.392 . S
C5565 C5569 1.495 . S
C5566 C5565 1.392 . S
C5566 C5567 1.385 . S
C5566 C5568 1.478 . S
C5567 H5561 0.930 . S
C5567 C5563 1.400 . S
C5567 C5566 1.385 . S
C5568 C5566 1.478 . S
C5568 C5570 1.381 . S
C5568 C5574 1.383 . S
C5569 C5565 1.495 . S
C5569 H5575 0.959 . S
C5569 H5576 0.961 . S
C5569 H5577 0.960 . S
C5570 C5568 1.381 . S
C5570 C5571 1.394 . S
C5570 H5578 0.930 . S
C5571 C5570 1.394 . S
C5571 C5572 1.383 . S
C5571 H5579 0.929 . S
C5572 C5571 1.383 . S
C5572 C5573 1.377 . S
C5573 H5557 0.930 . S
C5573 C5572 1.377 . S
C5573 C5574 1.379 . S
C5574 H5558 0.931 . S
C5574 C5568 1.383 . S
C5574 C5573 1.379 . S
H5575 C5569 0.959 . S
H5576 C5569 0.961 . S
H5577 C5569 0.960 . S
H5578 C5570 0.930 . S
H5579 C5571 0.929 . S
H5580 C5588 0.929 . S
H5581 C5590 0.930 . S
H5582 C5592 0.930 . S
H5583 C5595 0.929 . S
H5584 C5598 0.930 . S
H5585 C5600 0.960 . S
H5586 C5600 0.960 . S
H5587 C5600 0.960 . S
C5588 H5580 0.929 . S
C5588 C5589 1.377 . S
C5588 C5590 1.384 . S
C5589 C5588 1.377 . S
C5589 C5595 1.390 . S
C5590 H5581 0.930 . S
C5590 C5588 1.384 . S
C5590 C5591 1.372 . S
C5591 C5590 1.372 . S
C5591 C5592 1.400 . S
C5591 C5596 1.490 . S
C5592 H5582 0.930 . S
C5592 C5591 1.400 . S
C5592 C5595 1.386 . S
H5593 C5609 0.930 . S
H5594 C5610 0.931 . S
C5595 H5583 0.929 . S
C5595 C5589 1.390 . S
C5595 C5592 1.386 . S
C5596 C5591 1.490 . S
C5596 C5598 1.395 . S
C5596 C5599 1.403 . S
H5597 C5603 0.930 . S
C5598 H5584 0.930 . S
C5598 C5596 1.395 . S
C5598 C5601 1.403 . S
C5599 C5596 1.403 . S
C5599 C5600 1.524 . S
C5599 C5603 1.400 . S
C5600 H5585 0.960 . S
C5600 H5586 0.960 . S
C5600 H5587 0.960 . S
C5600 C5599 1.524 . S
C5601 C5598 1.403 . S
C5601 C5602 1.392 . S
C5601 C5605 1.495 . S
C5602 C5601 1.392 . S
C5602 C5603 1.385 . S
C5602 C5604 1.478 . S
C5603 H5597 0.930 . S
C5603 C5599 1.400 . S
C5603 C5602 1.385 . S
C5604 C5602 1.478 . S
C5604 C5606 1.381 . S
C5604 C5610 1.383 . S
C5605 C5601 1.495 . S
C5605 H5611 0.959 . S
C5605 H5612 0.961 . S
C5605 H5613 0.960 . S
C5606 C5604 1.381 . S
C5606 C5607 1.394 . S
C5606 H5614 0.930 . S
C5607 C5606 1.394 . S
C5607 C5608 1.383 . S
C5607 H5615 0.929 . S
C5608 C5607 1.383 . S
C5608 C5609 1.377 . S
C5609 H5593 0.930 . S
C5609 C5608 1.377 . S
C5609 C5610 1.379 . S
C5610 H5594 0.931 . S
C5610 C5604 1.383 . S
C5610 C5609 1.379 . S
H5611 C5605 0.959 . S
H5612 C5605 0.961 . S
H5613 C5605 0.960 . S
H5614 C5606 0.930 . S
H5615 C5607 0.929 . S
H5616 C5624 0.929 . S
H5617 C5626 0.930 . S
H5618 C5628 0.930 . S
H5619 C5631 0.929 . S
H5620 C5634 0.930 . S
H5621 C5636 0.960 . S
H5622 C5636 0.960 . S
H5623 C5636 0.960 . S
C5624 H5616 0.929 . S
C5624 C5625 1.377 . S
C5624 C5626 1.384 . S
C5625 C5624 1.377 . S
C5625 C5631 1.390 . S
C5626 H5617 0.930 . S
C5626 C5624 1.384 . S
C5626 C5627 1.372 . S
C5627 C5626 1.372 . S
C5627 C5628 1.400 . S
C5627 C5632 1.490 . S
C5628 H5618 0.930 . S
C5628 C5627 1.400 . S
C5628 C5631 1.386 . S
H5629 C5645 0.930 . S
H5630 C5646 0.931 . S
C5631 H5619 0.929 . S
C5631 C5625 1.390 . S
C5631 C5628 1.386 . S
C5632 C5627 1.490 . S
C5632 C5634 1.395 . S
C5632 C5635 1.403 . S
H5633 C5639 0.930 . S
C5634 H5620 0.930 . S
C5634 C5632 1.395 . S
C5634 C5637 1.403 . S
C5635 C5632 1.403 . S
C5635 C5636 1.524 . S
C5635 C5639 1.400 . S
C5636 H5621 0.960 . S
C5636 H5622 0.960 . S
C5636 H5623 0.960 . S
C5636 C5635 1.524 . S
C5637 C5634 1.403 . S
C5637 C5638 1.392 . S
C5637 C5641 1.495 . S
C5638 C5637 1.392 . S
C5638 C5639 1.385 . S
C5638 C5640 1.478 . S
C5639 H5633 0.930 . S
C5639 C5635 1.400 . S
C5639 C5638 1.385 . S
C5640 C5638 1.478 . S
C5640 C5642 1.381 . S
C5640 C5646 1.383 . S
C5641 C5637 1.495 . S
C5641 H5647 0.959 . S
C5641 H5648 0.961 . S
C5641 H5649 0.960 . S
C5642 C5640 1.381 . S
C5642 C5643 1.394 . S
C5642 H5650 0.930 . S
C5643 C5642 1.394 . S
C5643 C5644 1.383 . S
C5643 H5651 0.929 . S
C5644 C5643 1.383 . S
C5644 C5645 1.377 . S
C5645 H5629 0.930 . S
C5645 C5644 1.377 . S
C5645 C5646 1.379 . S
C5646 H5630 0.931 . S
C5646 C5640 1.383 . S
C5646 C5645 1.379 . S
H5647 C5641 0.959 . S
H5648 C5641 0.961 . S
H5649 C5641 0.960 . S
H5650 C5642 0.930 . S
H5651 C5643 0.929 . S
H5652 C5660 0.929 . S
H5653 C5662 0.930 . S
H5654 C5664 0.930 . S
H5655 C5667 0.929 . S
H5656 C5670 0.930 . S
H5657 C5672 0.960 . S
H5658 C5672 0.960 . S
H5659 C5672 0.960 . S
C5660 H5652 0.929 . S
C5660 C5661 1.377 . S
C5660 C5662 1.384 . S
C5661 C5660 1.377 . S
C5661 C5667 1.390 . S
C5662 H5653 0.930 . S
C5662 C5660 1.384 . S
C5662 C5663 1.372 . S
C5663 C5662 1.372 . S
C5663 C5664 1.400 . S
C5663 C5668 1.490 . S
C5664 H5654 0.930 . S
C5664 C5663 1.400 . S
C5664 C5667 1.386 . S
H5665 C5681 0.930 . S
H5666 C5682 0.931 . S
C5667 H5655 0.929 . S
C5667 C5661 1.390 . S
C5667 C5664 1.386 . S
C5668 C5663 1.490 . S
C5668 C5670 1.395 . S
C5668 C5671 1.403 . S
H5669 C5675 0.930 . S
C5670 H5656 0.930 . S
C5670 C5668 1.395 . S
C5670 C5673 1.403 . S
C5671 C5668 1.403 . S
C5671 C5672 1.524 . S
C5671 C5675 1.400 . S
C5672 H5657 0.960 . S
C5672 H5658 0.960 . S
C5672 H5659 0.960 . S
C5672 C5671 1.524 . S
C5673 C5670 1.403 . S
C5673 C5674 1.392 . S
C5673 C5677 1.495 . S
C5674 C5673 1.392 . S
C5674 C5675 1.385 . S
C5674 C5676 1.478 . S
C5675 H5669 0.930 . S
C5675 C5671 1.400 . S
C5675 C5674 1.385 . S
C5676 C5674 1.478 . S
C5676 C5678 1.381 . S
C5676 C5682 1.383 . S
C5677 C5673 1.495 . S
C5677 H5683 0.959 . S
C5677 H5684 0.961 . S
C5677 H5685 0.960 . S
C5678 C5676 1.381 . S
C5678 C5679 1.394 . S
C5678 H5686 0.930 . S
C5679 C5678 1.394 . S
C5679 C5680 1.383 . S
C5679 H5687 0.929 . S
C5680 C5679 1.383 . S
C5680 C5681 1.377 . S
C5681 H5665 0.930 . S
C5681 C5680 1.377 . S
C5681 C5682 1.379 . S
C5682 H5666 0.931 . S
C5682 C5676 1.383 . S
C5682 C5681 1.379 . S
H5683 C5677 0.959 . S
H5684 C5677 0.961 . S
H5685 C5677 0.960 . S
H5686 C5678 0.930 . S
H5687 C5679 0.929 . S
H5688 C5696 0.929 . S
H5689 C5698 0.930 . S
H5690 C5700 0.930 . S
H5691 C5703 0.929 . S
H5692 C5706 0.930 . S
H5693 C5708 0.960 . S
H5694 C5708 0.960 . S
H5695 C5708 0.960 . S
C5696 H5688 0.929 . S
C5696 C5697 1.377 . S
C5696 C5698 1.384 . S
C5697 C5696 1.377 . S
C5697 C5703 1.390 . S
C5698 H5689 0.930 . S
C5698 C5696 1.384 . S
C5698 C5699 1.372 . S
C5699 C5698 1.372 . S
C5699 C5700 1.400 . S
C5699 C5704 1.490 . S
C5700 H5690 0.930 . S
C5700 C5699 1.400 . S
C5700 C5703 1.386 . S
H5701 C5717 0.930 . S
H5702 C5718 0.931 . S
C5703 H5691 0.929 . S
C5703 C5697 1.390 . S
C5703 C5700 1.386 . S
C5704 C5699 1.490 . S
C5704 C5706 1.395 . S
C5704 C5707 1.403 . S
H5705 C5711 0.930 . S
C5706 H5692 0.930 . S
C5706 C5704 1.395 . S
C5706 C5709 1.403 . S
C5707 C5704 1.403 . S
C5707 C5708 1.524 . S
C5707 C5711 1.400 . S
C5708 H5693 0.960 . S
C5708 H5694 0.960 . S
C5708 H5695 0.960 . S
C5708 C5707 1.524 . S
C5709 C5706 1.403 . S
C5709 C5710 1.392 . S
C5709 C5713 1.495 . S
C5710 C5709 1.392 . S
C5710 C5711 1.385 . S
C5710 C5712 1.478 . S
C5711 H5705 0.930 . S
C5711 C5707 1.400 . S
C5711 C5710 1.385 . S
C5712 C5710 1.478 . S
C5712 C5714 1.381 . S
C5712 C5718 1.383 . S
C5713 C5709 1.495 . S
C5713 H5719 0.959 . S
C5713 H5720 0.961 . S
C5713 H5721 0.960 . S
C5714 C5712 1.381 . S
C5714 C5715 1.394 . S
C5714 H5722 0.930 . S
C5715 C5714 1.394 . S
C5715 C5716 1.383 . S
C5715 H5723 0.929 . S
C5716 C5715 1.383 . S
C5716 C5717 1.377 . S
C5717 H5701 0.930 . S
C5717 C5716 1.377 . S
C5717 C5718 1.379 . S
C5718 H5702 0.931 . S
C5718 C5712 1.383 . S
C5718 C5717 1.379 . S
H5719 C5713 0.959 . S
H5720 C5713 0.961 . S
H5721 C5713 0.960 . S
H5722 C5714 0.930 . S
H5723 C5715 0.929 . S
H5724 C5732 0.929 . S
H5725 C5734 0.930 . S
H5726 C5736 0.930 . S
H5727 C5739 0.929 . S
H5728 C5742 0.930 . S
H5729 C5744 0.960 . S
H5730 C5744 0.960 . S
H5731 C5744 0.960 . S
C5732 H5724 0.929 . S
C5732 C5733 1.377 . S
C5732 C5734 1.384 . S
C5733 C5732 1.377 . S
C5733 C5739 1.390 . S
C5734 H5725 0.930 . S
C5734 C5732 1.384 . S
C5734 C5735 1.372 . S
C5735 C5734 1.372 . S
C5735 C5736 1.400 . S
C5735 C5740 1.490 . S
C5736 H5726 0.930 . S
C5736 C5735 1.400 . S
C5736 C5739 1.386 . S
H5737 C5753 0.930 . S
H5738 C5754 0.931 . S
C5739 H5727 0.929 . S
C5739 C5733 1.390 . S
C5739 C5736 1.386 . S
C5740 C5735 1.490 . S
C5740 C5742 1.395 . S
C5740 C5743 1.403 . S
H5741 C5747 0.930 . S
C5742 H5728 0.930 . S
C5742 C5740 1.395 . S
C5742 C5745 1.403 . S
C5743 C5740 1.403 . S
C5743 C5744 1.524 . S
C5743 C5747 1.400 . S
C5744 H5729 0.960 . S
C5744 H5730 0.960 . S
C5744 H5731 0.960 . S
C5744 C5743 1.524 . S
C5745 C5742 1.403 . S
C5745 C5746 1.392 . S
C5745 C5749 1.495 . S
C5746 C5745 1.392 . S
C5746 C5747 1.385 . S
C5746 C5748 1.478 . S
C5747 H5741 0.930 . S
C5747 C5743 1.400 . S
C5747 C5746 1.385 . S
C5748 C5746 1.478 . S
C5748 C5750 1.381 . S
C5748 C5754 1.383 . S
C5749 C5745 1.495 . S
C5749 H5755 0.959 . S
C5749 H5756 0.961 . S
C5749 H5757 0.960 . S
C5750 C5748 1.381 . S
C5750 C5751 1.394 . S
C5750 H5758 0.930 . S
C5751 C5750 1.394 . S
C5751 C5752 1.383 . S
C5751 H5759 0.929 . S
C5752 C5751 1.383 . S
C5752 C5753 1.377 . S
C5753 H5737 0.930 . S
C5753 C5752 1.377 . S
C5753 C5754 1.379 . S
C5754 H5738 0.931 . S
C5754 C5748 1.383 . S
C5754 C5753 1.379 . S
H5755 C5749 0.959 . S
H5756 C5749 0.961 . S
H5757 C5749 0.960 . S
H5758 C5750 0.930 . S
H5759 C5751 0.929 . S
H5760 C5768 0.929 . S
H5761 C5770 0.930 . S
H5762 C5772 0.930 . S
H5763 C5775 0.929 . S
H5764 C5778 0.930 . S
H5765 C5780 0.960 . S
H5766 C5780 0.960 . S
H5767 C5780 0.960 . S
C5768 H5760 0.929 . S
C5768 C5769 1.377 . S
C5768 C5770 1.384 . S
C5769 C5768 1.377 . S
C5769 C5775 1.390 . S
C5770 H5761 0.930 . S
C5770 C5768 1.384 . S
C5770 C5771 1.372 . S
C5771 C5770 1.372 . S
C5771 C5772 1.400 . S
C5771 C5776 1.490 . S
C5772 H5762 0.930 . S
C5772 C5771 1.400 . S
C5772 C5775 1.386 . S
H5773 C5789 0.930 . S
H5774 C5790 0.931 . S
C5775 H5763 0.929 . S
C5775 C5769 1.390 . S
C5775 C5772 1.386 . S
C5776 C5771 1.490 . S
C5776 C5778 1.395 . S
C5776 C5779 1.403 . S
H5777 C5783 0.930 . S
C5778 H5764 0.930 . S
C5778 C5776 1.395 . S
C5778 C5781 1.403 . S
C5779 C5776 1.403 . S
C5779 C5780 1.524 . S
C5779 C5783 1.400 . S
C5780 H5765 0.960 . S
C5780 H5766 0.960 . S
C5780 H5767 0.960 . S
C5780 C5779 1.524 . S
C5781 C5778 1.403 . S
C5781 C5782 1.392 . S
C5781 C5785 1.495 . S
C5782 C5781 1.392 . S
C5782 C5783 1.385 . S
C5782 C5784 1.478 . S
C5783 H5777 0.930 . S
C5783 C5779 1.400 . S
C5783 C5782 1.385 . S
C5784 C5782 1.478 . S
C5784 C5786 1.381 . S
C5784 C5790 1.383 . S
C5785 C5781 1.495 . S
C5785 H5791 0.959 . S
C5785 H5792 0.961 . S
C5785 H5793 0.960 . S
C5786 C5784 1.381 . S
C5786 C5787 1.394 . S
C5786 H5794 0.930 . S
C5787 C5786 1.394 . S
C5787 C5788 1.383 . S
C5787 H5795 0.929 . S
C5788 C5787 1.383 . S
C5788 C5789 1.377 . S
C5789 H5773 0.930 . S
C5789 C5788 1.377 . S
C5789 C5790 1.379 . S
C5790 H5774 0.931 . S
C5790 C5784 1.383 . S
C5790 C5789 1.379 . S
H5791 C5785 0.959 . S
H5792 C5785 0.961 . S
H5793 C5785 0.960 . S
H5794 C5786 0.930 . S
H5795 C5787 0.929 . S
H5796 C5804 0.929 . S
H5797 C5806 0.930 . S
H5798 C5808 0.930 . S
H5799 C5811 0.929 . S
H5800 C5814 0.930 . S
H5801 C5816 0.960 . S
H5802 C5816 0.960 . S
H5803 C5816 0.960 . S
C5804 H5796 0.929 . S
C5804 C5805 1.377 . S
C5804 C5806 1.384 . S
C5805 C5804 1.377 . S
C5805 C5811 1.390 . S
C5806 H5797 0.930 . S
C5806 C5804 1.384 . S
C5806 C5807 1.372 . S
C5807 C5806 1.372 . S
C5807 C5808 1.400 . S
C5807 C5812 1.490 . S
C5808 H5798 0.930 . S
C5808 C5807 1.400 . S
C5808 C5811 1.386 . S
H5809 C5825 0.930 . S
H5810 C5826 0.931 . S
C5811 H5799 0.929 . S
C5811 C5805 1.390 . S
C5811 C5808 1.386 . S
C5812 C5807 1.490 . S
C5812 C5814 1.395 . S
C5812 C5815 1.403 . S
H5813 C5819 0.930 . S
C5814 H5800 0.930 . S
C5814 C5812 1.395 . S
C5814 C5817 1.403 . S
C5815 C5812 1.403 . S
C5815 C5816 1.524 . S
C5815 C5819 1.400 . S
C5816 H5801 0.960 . S
C5816 H5802 0.960 . S
C5816 H5803 0.960 . S
C5816 C5815 1.524 . S
C5817 C5814 1.403 . S
C5817 C5818 1.392 . S
C5817 C5821 1.495 . S
C5818 C5817 1.392 . S
C5818 C5819 1.385 . S
C5818 C5820 1.478 . S
C5819 H5813 0.930 . S
C5819 C5815 1.400 . S
C5819 C5818 1.385 . S
C5820 C5818 1.478 . S
C5820 C5822 1.381 . S
C5820 C5826 1.383 . S
C5821 C5817 1.495 . S
C5821 H5827 0.959 . S
C5821 H5828 0.961 . S
C5821 H5829 0.960 . S
C5822 C5820 1.381 . S
C5822 C5823 1.394 . S
C5822 H5830 0.930 . S
C5823 C5822 1.394 . S
C5823 C5824 1.383 . S
C5823 H5831 0.929 . S
C5824 C5823 1.383 . S
C5824 C5825 1.377 . S
C5825 H5809 0.930 . S
C5825 C5824 1.377 . S
C5825 C5826 1.379 . S
C5826 H5810 0.931 . S
C5826 C5820 1.383 . S
C5826 C5825 1.379 . S
H5827 C5821 0.959 . S
H5828 C5821 0.961 . S
H5829 C5821 0.960 . S
H5830 C5822 0.930 . S
H5831 C5823 0.929 . S
H5832 C5840 0.929 . S
H5833 C5842 0.930 . S
H5834 C5844 0.930 . S
H5835 C5847 0.929 . S
H5836 C5850 0.930 . S
H5837 C5852 0.960 . S
H5838 C5852 0.960 . S
H5839 C5852 0.960 . S
C5840 H5832 0.929 . S
C5840 C5841 1.377 . S
C5840 C5842 1.384 . S
C5841 C5840 1.377 . S
C5841 C5847 1.390 . S
C5842 H5833 0.930 . S
C5842 C5840 1.384 . S
C5842 C5843 1.372 . S
C5843 C5842 1.372 . S
C5843 C5844 1.400 . S
C5843 C5848 1.490 . S
C5844 H5834 0.930 . S
C5844 C5843 1.400 . S
C5844 C5847 1.386 . S
H5845 C5861 0.930 . S
H5846 C5862 0.931 . S
C5847 H5835 0.929 . S
C5847 C5841 1.390 . S
C5847 C5844 1.386 . S
C5848 C5843 1.490 . S
C5848 C5850 1.395 . S
C5848 C5851 1.403 . S
H5849 C5855 0.930 . S
C5850 H5836 0.930 . S
C5850 C5848 1.395 . S
C5850 C5853 1.403 . S
C5851 C5848 1.403 . S
C5851 C5852 1.524 . S
C5851 C5855 1.400 . S
C5852 H5837 0.960 . S
C5852 H5838 0.960 . S
C5852 H5839 0.960 . S
C5852 C5851 1.524 . S
C5853 C5850 1.403 . S
C5853 C5854 1.392 . S
C5853 C5857 1.495 . S
C5854 C5853 1.392 . S
C5854 C5855 1.385 . S
C5854 C5856 1.478 . S
C5855 H5849 0.930 . S
C5855 C5851 1.400 . S
C5855 C5854 1.385 . S
C5856 C5854 1.478 . S
C5856 C5858 1.381 . S
C5856 C5862 1.383 . S
C5857 C5853 1.495 . S
C5857 H5863 0.959 . S
C5857 H5864 0.961 . S
C5857 H5865 0.960 . S
C5858 C5856 1.381 . S
C5858 C5859 1.394 . S
C5858 H5866 0.930 . S
C5859 C5858 1.394 . S
C5859 C5860 1.383 . S
C5859 H5867 0.929 . S
C5860 C5859 1.383 . S
C5860 C5861 1.377 . S
C5861 H5845 0.930 . S
C5861 C5860 1.377 . S
C5861 C5862 1.379 . S
C5862 H5846 0.931 . S
C5862 C5856 1.383 . S
C5862 C5861 1.379 . S
H5863 C5857 0.959 . S
H5864 C5857 0.961 . S
H5865 C5857 0.960 . S
H5866 C5858 0.930 . S
H5867 C5859 0.929 . S
H5868 C5876 0.929 . S
H5869 C5878 0.946 . S
H5870 C5880 0.930 . S
H5871 C5883 0.929 . S
H5872 C5886 0.930 . S
H5873 C5888 0.960 . S
H5874 C5888 0.960 . S
H5875 C5888 0.960 . S
C5876 H5868 0.929 . S
C5876 C5877 1.377 . S
C5876 C5878 1.384 . S
C5877 C5876 1.377 . S
C5877 C5883 1.390 . S
C5878 H5869 0.946 . S
C5878 C5876 1.384 . S
C5878 C5879 1.372 . S
C5879 C5878 1.372 . S
C5879 C5880 1.400 . S
C5879 C5884 1.490 . S
C5880 H5870 0.930 . S
C5880 C5879 1.400 . S
C5880 C5883 1.386 . S
H5881 C5897 0.930 . S
H5882 C5898 0.931 . S
C5883 H5871 0.929 . S
C5883 C5877 1.390 . S
C5883 C5880 1.386 . S
C5884 C5879 1.490 . S
C5884 C5886 1.395 1_565 S
C5884 C5887 1.403 . S
H5885 C5891 0.930 . S
C5886 H5872 0.930 . S
C5886 C5884 1.395 1_545 S
C5886 C5889 1.403 . S
C5887 C5884 1.403 . S
C5887 C5888 1.524 . S
C5887 C5891 1.400 . S
C5888 H5873 0.960 . S
C5888 H5874 0.960 . S
C5888 H5875 0.960 . S
C5888 C5887 1.524 . S
C5889 C5886 1.403 . S
C5889 C5890 1.392 . S
C5889 C5893 1.495 . S
C5890 C5889 1.392 . S
C5890 C5891 1.385 1_545 S
C5890 C5892 1.478 . S
C5891 H5885 0.930 . S
C5891 C5887 1.400 . S
C5891 C5890 1.385 1_565 S
C5892 C5890 1.478 . S
C5892 C5894 1.381 . S
C5892 C5898 1.383 . S
C5893 C5889 1.495 . S
C5893 H5899 0.959 . S
C5893 H5900 0.961 . S
C5893 H5901 0.960 . S
C5894 C5892 1.381 . S
C5894 C5895 1.394 . S
C5894 H5902 0.930 . S
C5895 C5894 1.394 . S
C5895 C5896 1.383 . S
C5895 H5903 0.929 1_554 S
C5896 C5895 1.383 . S
C5896 C5897 1.377 . S
C5897 H5881 0.930 . S
C5897 C5896 1.377 . S
C5897 C5898 1.379 . S
C5898 H5882 0.931 . S
C5898 C5892 1.383 . S
C5898 C5897 1.379 . S
H5899 C5893 0.959 . S
H5900 C5893 0.961 . S
H5901 C5893 0.960 . S
H5902 C5894 0.930 . S
H5903 C5895 0.929 1_556 S
H5904 C5912 0.929 . S
H5905 C5914 0.930 . S
H5906 C5916 0.930 . S
H5907 C5919 0.929 . S
H5908 C5922 0.930 . S
H5909 C5924 0.960 . S
H5910 C5924 0.960 . S
H5911 C5924 0.960 . S
C5912 H5904 0.929 . S
C5912 C5913 1.377 . S
C5912 C5914 1.384 . S
C5913 C5912 1.377 . S
C5913 C5919 1.390 . S
C5914 H5905 0.930 . S
C5914 C5912 1.384 . S
C5914 C5915 1.372 . S
C5915 C5914 1.372 . S
C5915 C5916 1.400 . S
C5915 C5920 1.490 . S
C5916 H5906 0.930 . S
C5916 C5915 1.400 . S
C5916 C5919 1.386 . S
H5917 C5933 0.930 . S
H5918 C5934 0.931 . S
C5919 H5907 0.929 . S
C5919 C5913 1.390 . S
C5919 C5916 1.386 . S
C5920 C5915 1.490 . S
C5920 C5922 1.395 . S
C5920 C5923 1.403 . S
H5921 C5927 0.930 . S
C5922 H5908 0.930 . S
C5922 C5920 1.395 . S
C5922 C5925 1.403 . S
C5923 C5920 1.403 . S
C5923 C5924 1.524 . S
C5923 C5927 1.400 . S
C5924 H5909 0.960 . S
C5924 H5910 0.960 . S
C5924 H5911 0.960 . S
C5924 C5923 1.524 . S
C5925 C5922 1.403 . S
C5925 C5926 1.392 . S
C5925 C5929 1.495 . S
C5926 C5925 1.392 . S
C5926 C5927 1.385 . S
C5926 C5928 1.478 . S
C5927 H5921 0.930 . S
C5927 C5923 1.400 . S
C5927 C5926 1.385 . S
C5928 C5926 1.478 . S
C5928 C5930 1.381 . S
C5928 C5934 1.383 . S
C5929 C5925 1.495 . S
C5929 H5935 0.959 . S
C5929 H5936 0.961 . S
C5929 H5937 0.960 . S
C5930 C5928 1.381 . S
C5930 C5931 1.394 . S
C5930 H5938 0.930 . S
C5931 C5930 1.394 . S
C5931 C5932 1.383 . S
C5931 H5939 0.929 . S
C5932 C5931 1.383 . S
C5932 C5933 1.377 . S
C5933 H5917 0.930 . S
C5933 C5932 1.377 . S
C5933 C5934 1.379 . S
C5934 H5918 0.931 . S
C5934 C5928 1.383 . S
C5934 C5933 1.379 . S
H5935 C5929 0.959 . S
H5936 C5929 0.961 . S
H5937 C5929 0.960 . S
H5938 C5930 0.930 . S
H5939 C5931 0.929 . S
H5940 C5948 0.929 . S
H5941 C5950 0.930 . S
H5942 C5952 0.930 . S
H5943 C5955 0.929 . S
H5944 C5958 0.940 . S
H5945 C5960 0.960 . S
H5946 C5960 0.960 . S
H5947 C5960 0.960 . S
C5948 H5940 0.929 . S
C5948 C5949 1.377 . S
C5948 C5950 1.384 . S
C5949 C5948 1.377 . S
C5949 C5955 1.390 1_556 S
C5950 H5941 0.930 . S
C5950 C5948 1.384 . S
C5950 C5951 1.372 1_556 S
C5951 C5950 1.372 1_554 S
C5951 C5952 1.400 . S
C5951 C5956 1.490 . S
C5952 H5942 0.930 . S
C5952 C5951 1.400 . S
C5952 C5955 1.386 . S
H5953 C5969 0.930 . S
H5954 C5970 0.931 . S
C5955 H5943 0.929 . S
C5955 C5949 1.390 1_554 S
C5955 C5952 1.386 . S
C5956 C5951 1.490 . S
C5956 C5958 1.395 . S
C5956 C5959 1.403 . S
H5957 C5963 0.930 . S
C5958 H5944 0.940 . S
C5958 C5956 1.395 . S
C5958 C5961 1.403 . S
C5959 C5956 1.403 . S
C5959 C5960 1.524 . S
C5959 C5963 1.400 . S
C5960 H5945 0.960 . S
C5960 H5946 0.960 . S
C5960 H5947 0.960 . S
C5960 C5959 1.524 . S
C5961 C5958 1.403 . S
C5961 C5962 1.392 . S
C5961 C5965 1.495 . S
C5962 C5961 1.392 . S
C5962 C5963 1.385 . S
C5962 C5964 1.478 . S
C5963 H5957 0.930 . S
C5963 C5959 1.400 . S
C5963 C5962 1.385 . S
C5964 C5962 1.478 . S
C5964 C5966 1.381 . S
C5964 C5970 1.383 . S
C5965 C5961 1.495 . S
C5965 H5971 0.978 . S
C5965 H5972 0.961 . S
C5965 H5973 0.960 1_554 S
C5966 C5964 1.381 . S
C5966 C5967 1.394 . S
C5966 H5974 0.930 1_554 S
C5967 C5966 1.394 . S
C5967 C5968 1.383 . S
C5967 H5975 0.930 1_554 S
C5968 C5967 1.383 . S
C5968 C5969 1.377 . S
C5969 H5953 0.930 . S
C5969 C5968 1.377 . S
C5969 C5970 1.379 . S
C5970 H5954 0.931 . S
C5970 C5964 1.383 . S
C5970 C5969 1.379 . S
H5971 C5965 0.978 . S
H5972 C5965 0.961 . S
H5973 C5965 0.960 1_556 S
H5974 C5966 0.930 1_556 S
H5975 C5967 0.930 1_556 S
H5976 C5984 0.929 . S
H5977 C5986 0.930 . S
H5978 C5988 0.930 . S
H5979 C5991 0.929 . S
H5980 C5994 0.930 . S
H5981 C5996 0.960 . S
H5982 C5996 0.960 . S
H5983 C5996 0.960 . S
C5984 H5976 0.929 . S
C5984 C5985 1.377 . S
C5984 C5986 1.384 . S
C5985 C5984 1.377 . S
C5985 C5991 1.390 . S
C5986 H5977 0.930 . S
C5986 C5984 1.384 . S
C5986 C5987 1.372 . S
C5987 C5986 1.372 . S
C5987 C5988 1.400 . S
C5987 C5992 1.490 . S
C5988 H5978 0.930 . S
C5988 C5987 1.400 . S
C5988 C5991 1.386 . S
H5989 C6005 0.930 . S
H5990 C6006 0.931 . S
C5991 H5979 0.929 . S
C5991 C5985 1.390 . S
C5991 C5988 1.386 . S
C5992 C5987 1.490 . S
C5992 C5994 1.395 . S
C5992 C5995 1.403 . S
H5993 C5999 0.930 . S
C5994 H5980 0.930 . S
C5994 C5992 1.395 . S
C5994 C5997 1.403 . S
C5995 C5992 1.403 . S
C5995 C5996 1.524 . S
C5995 C5999 1.400 . S
C5996 H5981 0.960 . S
C5996 H5982 0.960 . S
C5996 H5983 0.960 . S
C5996 C5995 1.524 . S
C5997 C5994 1.403 . S
C5997 C5998 1.392 . S
C5997 C6001 1.495 . S
C5998 C5997 1.392 . S
C5998 C5999 1.385 . S
C5998 C6000 1.478 . S
C5999 H5993 0.930 . S
C5999 C5995 1.400 . S
C5999 C5998 1.385 . S
C6000 C5998 1.478 . S
C6000 C6002 1.381 . S
C6000 C6006 1.383 . S
C6001 C5997 1.495 . S
C6001 H6007 0.959 . S
C6001 H6008 0.961 . S
C6001 H6009 0.960 . S
C6002 C6000 1.381 . S
C6002 C6003 1.394 . S
C6002 H6010 0.930 . S
C6003 C6002 1.394 . S
C6003 C6004 1.383 . S
C6003 H6011 0.929 . S
C6004 C6003 1.383 . S
C6004 C6005 1.377 . S
C6005 H5989 0.930 . S
C6005 C6004 1.377 . S
C6005 C6006 1.379 . S
C6006 H5990 0.931 . S
C6006 C6000 1.383 . S
C6006 C6005 1.379 . S
H6007 C6001 0.959 . S
H6008 C6001 0.961 . S
H6009 C6001 0.960 . S
H6010 C6002 0.930 . S
H6011 C6003 0.929 . S
H6012 C6020 0.929 . S
H6013 C6022 0.930 . S
H6014 C6024 0.930 . S
H6015 C6027 0.929 . S
H6016 C6030 0.930 . S
H6017 C6032 0.960 . S
H6018 C6032 0.960 . S
H6019 C6032 0.960 . S
C6020 H6012 0.929 . S
C6020 C6021 1.377 . S
C6020 C6022 1.384 . S
C6021 C6020 1.377 . S
C6021 C6027 1.390 . S
C6022 H6013 0.930 . S
C6022 C6020 1.384 . S
C6022 C6023 1.372 . S
C6023 C6022 1.372 . S
C6023 C6024 1.400 . S
C6023 C6028 1.490 . S
C6024 H6014 0.930 . S
C6024 C6023 1.400 . S
C6024 C6027 1.386 . S
H6025 C6041 0.930 . S
H6026 C6042 0.931 . S
C6027 H6015 0.929 . S
C6027 C6021 1.390 . S
C6027 C6024 1.386 . S
C6028 C6023 1.490 . S
C6028 C6030 1.395 . S
C6028 C6031 1.403 . S
H6029 C6035 0.930 . S
C6030 H6016 0.930 . S
C6030 C6028 1.395 . S
C6030 C6033 1.403 . S
C6031 C6028 1.403 . S
C6031 C6032 1.524 . S
C6031 C6035 1.400 . S
C6032 H6017 0.960 . S
C6032 H6018 0.960 . S
C6032 H6019 0.960 . S
C6032 C6031 1.524 . S
C6033 C6030 1.403 . S
C6033 C6034 1.392 . S
C6033 C6037 1.495 . S
C6034 C6033 1.392 . S
C6034 C6035 1.385 . S
C6034 C6036 1.478 . S
C6035 H6029 0.930 . S
C6035 C6031 1.400 . S
C6035 C6034 1.385 . S
C6036 C6034 1.478 . S
C6036 C6038 1.381 . S
C6036 C6042 1.383 . S
C6037 C6033 1.495 . S
C6037 H6043 0.959 . S
C6037 H6044 0.961 . S
C6037 H6045 0.960 . S
C6038 C6036 1.381 . S
C6038 C6039 1.394 . S
C6038 H6046 0.930 . S
C6039 C6038 1.394 . S
C6039 C6040 1.383 . S
C6039 H6047 0.929 . S
C6040 C6039 1.383 . S
C6040 C6041 1.377 . S
C6041 H6025 0.930 . S
C6041 C6040 1.377 . S
C6041 C6042 1.379 . S
C6042 H6026 0.931 . S
C6042 C6036 1.383 . S
C6042 C6041 1.379 . S
H6043 C6037 0.959 . S
H6044 C6037 0.961 . S
H6045 C6037 0.960 . S
H6046 C6038 0.930 . S
H6047 C6039 0.929 . S
H6048 C6056 0.929 . S
H6049 C6058 0.930 . S
H6050 C6060 0.930 . S
H6051 C6063 0.929 . S
H6052 C6066 0.930 . S
H6053 C6068 0.960 . S
H6054 C6068 0.960 . S
H6055 C6068 0.960 . S
C6056 H6048 0.929 . S
C6056 C6057 1.377 . S
C6056 C6058 1.384 . S
C6057 C6056 1.377 . S
C6057 C6063 1.390 . S
C6058 H6049 0.930 . S
C6058 C6056 1.384 . S
C6058 C6059 1.372 . S
C6059 C6058 1.372 . S
C6059 C6060 1.400 . S
C6059 C6064 1.490 . S
C6060 H6050 0.930 . S
C6060 C6059 1.400 . S
C6060 C6063 1.386 . S
H6061 C6077 0.930 . S
H6062 C6078 0.931 . S
C6063 H6051 0.929 . S
C6063 C6057 1.390 . S
C6063 C6060 1.386 . S
C6064 C6059 1.490 . S
C6064 C6066 1.395 . S
C6064 C6067 1.403 . S
H6065 C6071 0.930 . S
C6066 H6052 0.930 . S
C6066 C6064 1.395 . S
C6066 C6069 1.403 . S
C6067 C6064 1.403 . S
C6067 C6068 1.524 . S
C6067 C6071 1.400 . S
C6068 H6053 0.960 . S
C6068 H6054 0.960 . S
C6068 H6055 0.960 . S
C6068 C6067 1.524 . S
C6069 C6066 1.403 . S
C6069 C6070 1.392 . S
C6069 C6073 1.495 . S
C6070 C6069 1.392 . S
C6070 C6071 1.385 . S
C6070 C6072 1.478 . S
C6071 H6065 0.930 . S
C6071 C6067 1.400 . S
C6071 C6070 1.385 . S
C6072 C6070 1.478 . S
C6072 C6074 1.381 . S
C6072 C6078 1.383 . S
C6073 C6069 1.495 . S
C6073 H6079 0.959 . S
C6073 H6080 0.961 . S
C6073 H6081 0.960 . S
C6074 C6072 1.381 . S
C6074 C6075 1.394 . S
C6074 H6082 0.930 . S
C6075 C6074 1.394 . S
C6075 C6076 1.383 . S
C6075 H6083 0.929 . S
C6076 C6075 1.383 . S
C6076 C6077 1.377 . S
C6077 H6061 0.930 . S
C6077 C6076 1.377 . S
C6077 C6078 1.379 . S
C6078 H6062 0.931 . S
C6078 C6072 1.383 . S
C6078 C6077 1.379 . S
H6079 C6073 0.959 . S
H6080 C6073 0.961 . S
H6081 C6073 0.960 . S
H6082 C6074 0.930 . S
H6083 C6075 0.929 . S
H6084 C6092 0.929 . S
H6085 C6094 0.930 . S
H6086 C6096 0.930 . S
H6087 C6099 0.929 . S
H6088 C6102 0.930 . S
H6089 C6104 0.960 . S
H6090 C6104 0.960 . S
H6091 C6104 0.960 . S
C6092 H6084 0.929 . S
C6092 C6093 1.377 . S
C6092 C6094 1.384 . S
C6093 C6092 1.377 . S
C6093 C6099 1.390 . S
C6094 H6085 0.930 . S
C6094 C6092 1.384 . S
C6094 C6095 1.372 . S
C6095 C6094 1.372 . S
C6095 C6096 1.400 . S
C6095 C6100 1.490 . S
C6096 H6086 0.930 . S
C6096 C6095 1.400 . S
C6096 C6099 1.386 . S
H6097 C6113 0.930 . S
H6098 C6114 0.931 . S
C6099 H6087 0.929 . S
C6099 C6093 1.390 . S
C6099 C6096 1.386 . S
C6100 C6095 1.490 . S
C6100 C6102 1.395 . S
C6100 C6103 1.403 . S
H6101 C6107 0.930 . S
C6102 H6088 0.930 . S
C6102 C6100 1.395 . S
C6102 C6105 1.403 . S
C6103 C6100 1.403 . S
C6103 C6104 1.524 . S
C6103 C6107 1.400 . S
C6104 H6089 0.960 . S
C6104 H6090 0.960 . S
C6104 H6091 0.960 . S
C6104 C6103 1.524 . S
C6105 C6102 1.403 . S
C6105 C6106 1.392 . S
C6105 C6109 1.495 . S
C6106 C6105 1.392 . S
C6106 C6107 1.385 . S
C6106 C6108 1.478 . S
C6107 H6101 0.930 . S
C6107 C6103 1.400 . S
C6107 C6106 1.385 . S
C6108 C6106 1.478 . S
C6108 C6110 1.381 . S
C6108 C6114 1.383 . S
C6109 C6105 1.495 . S
C6109 H6115 0.959 . S
C6109 H6116 0.961 . S
C6109 H6117 0.960 . S
C6110 C6108 1.381 . S
C6110 C6111 1.394 . S
C6110 H6118 0.930 . S
C6111 C6110 1.394 . S
C6111 C6112 1.383 . S
C6111 H6119 0.929 . S
C6112 C6111 1.383 . S
C6112 C6113 1.377 . S
C6113 H6097 0.930 . S
C6113 C6112 1.377 . S
C6113 C6114 1.379 . S
C6114 H6098 0.931 . S
C6114 C6108 1.383 . S
C6114 C6113 1.379 . S
H6115 C6109 0.959 . S
H6116 C6109 0.961 . S
H6117 C6109 0.960 . S
H6118 C6110 0.930 . S
H6119 C6111 0.929 . S
H6120 C6128 0.929 . S
H6121 C6130 0.930 . S
H6122 C6132 0.930 . S
H6123 C6135 0.929 . S
H6124 C6138 0.930 . S
H6125 C6140 0.966 . S
H6126 C6140 0.960 . S
H6127 C6140 0.960 . S
C6128 H6120 0.929 . S
C6128 C6129 1.377 . S
C6128 C6130 1.384 . S
C6129 C6128 1.377 . S
C6129 C6135 1.390 . S
C6130 H6121 0.930 . S
C6130 C6128 1.384 . S
C6130 C6131 1.372 . S
C6131 C6130 1.372 . S
C6131 C6132 1.400 . S
C6131 C6136 1.490 . S
C6132 H6122 0.930 . S
C6132 C6131 1.400 . S
C6132 C6135 1.386 . S
H6133 C6149 0.930 . S
H6134 C6150 0.931 . S
C6135 H6123 0.929 . S
C6135 C6129 1.390 . S
C6135 C6132 1.386 . S
C6136 C6131 1.490 . S
C6136 C6138 1.395 . S
C6136 C6139 1.403 . S
H6137 C6143 0.930 . S
C6138 H6124 0.930 . S
C6138 C6136 1.395 . S
C6138 C6141 1.403 . S
C6139 C6136 1.403 . S
C6139 C6140 1.524 . S
C6139 C6143 1.400 . S
C6140 H6125 0.966 . S
C6140 H6126 0.960 . S
C6140 H6127 0.960 . S
C6140 C6139 1.524 . S
C6141 C6138 1.403 . S
C6141 C6142 1.392 . S
C6141 C6145 1.495 . S
C6142 C6141 1.392 . S
C6142 C6143 1.385 . S
C6142 C6144 1.478 . S
C6143 H6137 0.930 . S
C6143 C6139 1.400 . S
C6143 C6142 1.385 . S
C6144 C6142 1.478 . S
C6144 C6146 1.381 . S
C6144 C6150 1.383 . S
C6145 C6141 1.495 . S
C6145 H6151 0.959 . S
C6145 H6152 0.961 . S
C6145 H6153 0.960 . S
C6146 C6144 1.381 . S
C6146 C6147 1.394 . S
C6146 H6154 0.930 . S
C6147 C6146 1.394 . S
C6147 C6148 1.383 . S
C6147 H6155 0.929 . S
C6148 C6147 1.383 . S
C6148 C6149 1.377 . S
C6149 H6133 0.930 . S
C6149 C6148 1.377 . S
C6149 C6150 1.379 . S
C6150 H6134 0.931 . S
C6150 C6144 1.383 . S
C6150 C6149 1.379 . S
H6151 C6145 0.959 . S
H6152 C6145 0.961 . S
H6153 C6145 0.960 . S
H6154 C6146 0.930 . S
H6155 C6147 0.929 . S
H6156 C6164 0.929 . S
H6157 C6166 0.930 . S
H6158 C6168 0.930 . S
H6159 C6171 0.929 . S
H6160 C6174 0.930 . S
H6161 C6176 0.960 . S
H6162 C6176 0.960 . S
H6163 C6176 0.960 . S
C6164 H6156 0.929 . S
C6164 C6165 1.377 . S
C6164 C6166 1.384 . S
C6165 C6164 1.377 . S
C6165 C6171 1.390 . S
C6166 H6157 0.930 . S
C6166 C6164 1.384 . S
C6166 C6167 1.372 . S
C6167 C6166 1.372 . S
C6167 C6168 1.400 . S
C6167 C6172 1.490 . S
C6168 H6158 0.930 . S
C6168 C6167 1.400 . S
C6168 C6171 1.386 . S
H6169 C6185 0.930 . S
H6170 C6186 0.931 . S
C6171 H6159 0.929 . S
C6171 C6165 1.390 . S
C6171 C6168 1.386 . S
C6172 C6167 1.490 . S
C6172 C6174 1.395 . S
C6172 C6175 1.403 . S
H6173 C6179 0.930 . S
C6174 H6160 0.930 . S
C6174 C6172 1.395 . S
C6174 C6177 1.403 . S
C6175 C6172 1.403 . S
C6175 C6176 1.524 . S
C6175 C6179 1.400 . S
C6176 H6161 0.960 . S
C6176 H6162 0.960 . S
C6176 H6163 0.960 . S
C6176 C6175 1.524 . S
C6177 C6174 1.403 . S
C6177 C6178 1.392 . S
C6177 C6181 1.495 . S
C6178 C6177 1.392 . S
C6178 C6179 1.385 . S
C6178 C6180 1.478 . S
C6179 H6173 0.930 . S
C6179 C6175 1.400 . S
C6179 C6178 1.385 . S
C6180 C6178 1.478 . S
C6180 C6182 1.381 . S
C6180 C6186 1.383 . S
C6181 C6177 1.495 . S
C6181 H6187 0.959 . S
C6181 H6188 0.961 . S
C6181 H6189 0.960 . S
C6182 C6180 1.381 . S
C6182 C6183 1.394 . S
C6182 H6190 0.930 . S
C6183 C6182 1.394 . S
C6183 C6184 1.383 . S
C6183 H6191 0.929 . S
C6184 C6183 1.383 . S
C6184 C6185 1.377 . S
C6185 H6169 0.930 . S
C6185 C6184 1.377 . S
C6185 C6186 1.379 . S
C6186 H6170 0.931 . S
C6186 C6180 1.383 . S
C6186 C6185 1.379 . S
H6187 C6181 0.959 . S
H6188 C6181 0.961 . S
H6189 C6181 0.960 . S
H6190 C6182 0.930 . S
H6191 C6183 0.929 . S
H6192 C6200 0.929 . S
H6193 C6202 0.930 . S
H6194 C6204 0.930 . S
H6195 C6207 0.929 . S
H6196 C6210 0.930 . S
H6197 C6212 0.960 . S
H6198 C6212 0.960 . S
H6199 C6212 0.960 . S
C6200 H6192 0.929 . S
C6200 C6201 1.377 . S
C6200 C6202 1.384 . S
C6201 C6200 1.377 . S
C6201 C6207 1.390 . S
C6202 H6193 0.930 . S
C6202 C6200 1.384 . S
C6202 C6203 1.372 . S
C6203 C6202 1.372 . S
C6203 C6204 1.400 . S
C6203 C6208 1.490 . S
C6204 H6194 0.930 . S
C6204 C6203 1.400 . S
C6204 C6207 1.386 . S
H6205 C6221 0.930 . S
H6206 C6222 0.931 . S
C6207 H6195 0.929 . S
C6207 C6201 1.390 . S
C6207 C6204 1.386 . S
C6208 C6203 1.490 . S
C6208 C6210 1.395 . S
C6208 C6211 1.403 . S
H6209 C6215 0.930 . S
C6210 H6196 0.930 . S
C6210 C6208 1.395 . S
C6210 C6213 1.403 . S
C6211 C6208 1.403 . S
C6211 C6212 1.524 . S
C6211 C6215 1.400 . S
C6212 H6197 0.960 . S
C6212 H6198 0.960 . S
C6212 H6199 0.960 . S
C6212 C6211 1.524 . S
C6213 C6210 1.403 . S
C6213 C6214 1.392 . S
C6213 C6217 1.495 . S
C6214 C6213 1.392 . S
C6214 C6215 1.385 . S
C6214 C6216 1.478 . S
C6215 H6209 0.930 . S
C6215 C6211 1.400 . S
C6215 C6214 1.385 . S
C6216 C6214 1.478 . S
C6216 C6218 1.381 . S
C6216 C6222 1.383 . S
C6217 C6213 1.495 . S
C6217 H6223 0.959 . S
C6217 H6224 0.961 . S
C6217 H6225 0.960 . S
C6218 C6216 1.381 . S
C6218 C6219 1.394 . S
C6218 H6226 0.930 . S
C6219 C6218 1.394 . S
C6219 C6220 1.383 . S
C6219 H6227 0.929 . S
C6220 C6219 1.383 . S
C6220 C6221 1.377 . S
C6221 H6205 0.930 . S
C6221 C6220 1.377 . S
C6221 C6222 1.379 . S
C6222 H6206 0.931 . S
C6222 C6216 1.383 . S
C6222 C6221 1.379 . S
H6223 C6217 0.959 . S
H6224 C6217 0.961 . S
H6225 C6217 0.960 . S
H6226 C6218 0.930 . S
H6227 C6219 0.929 . S
H6228 C6236 0.929 . S
H6229 C6238 0.930 . S
H6230 C6240 0.930 . S
H6231 C6243 0.929 . S
H6232 C6246 0.930 . S
H6233 C6248 0.960 . S
H6234 C6248 0.960 . S
H6235 C6248 0.960 . S
C6236 H6228 0.929 . S
C6236 C6237 1.377 . S
C6236 C6238 1.384 . S
C6237 C6236 1.377 . S
C6237 C6243 1.390 . S
C6238 H6229 0.930 . S
C6238 C6236 1.384 . S
C6238 C6239 1.372 . S
C6239 C6238 1.372 . S
C6239 C6240 1.400 . S
C6239 C6244 1.490 . S
C6240 H6230 0.930 . S
C6240 C6239 1.400 . S
C6240 C6243 1.386 . S
H6241 C6257 0.930 . S
H6242 C6258 0.931 . S
C6243 H6231 0.929 . S
C6243 C6237 1.390 . S
C6243 C6240 1.386 . S
C6244 C6239 1.490 . S
C6244 C6246 1.395 . S
C6244 C6247 1.403 . S
H6245 C6251 0.930 . S
C6246 H6232 0.930 . S
C6246 C6244 1.395 . S
C6246 C6249 1.403 . S
C6247 C6244 1.403 . S
C6247 C6248 1.524 . S
C6247 C6251 1.400 . S
C6248 H6233 0.960 . S
C6248 H6234 0.960 . S
C6248 H6235 0.960 . S
C6248 C6247 1.524 . S
C6249 C6246 1.403 . S
C6249 C6250 1.392 . S
C6249 C6253 1.495 . S
C6250 C6249 1.392 . S
C6250 C6251 1.385 . S
C6250 C6252 1.478 . S
C6251 H6245 0.930 . S
C6251 C6247 1.400 . S
C6251 C6250 1.385 . S
C6252 C6250 1.478 . S
C6252 C6254 1.381 . S
C6252 C6258 1.383 . S
C6253 C6249 1.495 . S
C6253 H6259 0.959 . S
C6253 H6260 0.961 . S
C6253 H6261 0.960 . S
C6254 C6252 1.381 . S
C6254 C6255 1.394 . S
C6254 H6262 0.930 . S
C6255 C6254 1.394 . S
C6255 C6256 1.383 . S
C6255 H6263 0.929 . S
C6256 C6255 1.383 . S
C6256 C6257 1.377 . S
C6257 H6241 0.930 . S
C6257 C6256 1.377 . S
C6257 C6258 1.379 . S
C6258 H6242 0.931 . S
C6258 C6252 1.383 . S
C6258 C6257 1.379 . S
H6259 C6253 0.959 . S
H6260 C6253 0.961 . S
H6261 C6253 0.960 . S
H6262 C6254 0.930 . S
H6263 C6255 0.929 . S
H6264 C6272 0.929 . S
H6265 C6274 0.930 . S
H6266 C6276 0.930 . S
H6267 C6279 0.929 . S
H6268 C6282 0.930 . S
H6269 C6284 0.960 . S
H6270 C6284 0.960 . S
H6271 C6284 0.960 . S
C6272 H6264 0.929 . S
C6272 C6273 1.377 . S
C6272 C6274 1.384 . S
C6273 C6272 1.377 . S
C6273 C6279 1.390 . S
C6274 H6265 0.930 . S
C6274 C6272 1.384 . S
C6274 C6275 1.372 . S
C6275 C6274 1.372 . S
C6275 C6276 1.400 . S
C6275 C6280 1.490 . S
C6276 H6266 0.930 . S
C6276 C6275 1.400 . S
C6276 C6279 1.386 . S
H6277 C6293 0.930 . S
H6278 C6294 0.931 . S
C6279 H6267 0.929 . S
C6279 C6273 1.390 . S
C6279 C6276 1.386 . S
C6280 C6275 1.490 . S
C6280 C6282 1.395 . S
C6280 C6283 1.403 . S
H6281 C6287 0.930 . S
C6282 H6268 0.930 . S
C6282 C6280 1.395 . S
C6282 C6285 1.403 . S
C6283 C6280 1.403 . S
C6283 C6284 1.524 . S
C6283 C6287 1.400 . S
C6284 H6269 0.960 . S
C6284 H6270 0.960 . S
C6284 H6271 0.960 . S
C6284 C6283 1.524 . S
C6285 C6282 1.403 . S
C6285 C6286 1.392 . S
C6285 C6289 1.495 . S
C6286 C6285 1.392 . S
C6286 C6287 1.385 . S
C6286 C6288 1.478 . S
C6287 H6281 0.930 . S
C6287 C6283 1.400 . S
C6287 C6286 1.385 . S
C6288 C6286 1.478 . S
C6288 C6290 1.381 . S
C6288 C6294 1.383 . S
C6289 C6285 1.495 . S
C6289 H6295 0.959 . S
C6289 H6296 0.961 . S
C6289 H6297 0.960 . S
C6290 C6288 1.381 . S
C6290 C6291 1.394 . S
C6290 H6298 0.930 . S
C6291 C6290 1.394 . S
C6291 C6292 1.383 . S
C6291 H6299 0.929 . S
C6292 C6291 1.383 . S
C6292 C6293 1.377 . S
C6293 H6277 0.930 . S
C6293 C6292 1.377 . S
C6293 C6294 1.379 . S
C6294 H6278 0.931 . S
C6294 C6288 1.383 . S
C6294 C6293 1.379 . S
H6295 C6289 0.959 . S
H6296 C6289 0.961 . S
H6297 C6289 0.960 . S
H6298 C6290 0.930 . S
H6299 C6291 0.929 . S
H6300 C6308 0.929 . S
H6301 C6310 0.930 . S
H6302 C6312 0.930 . S
H6303 C6315 0.929 . S
H6304 C6318 0.930 . S
H6305 C6320 0.960 . S
H6306 C6320 0.960 . S
H6307 C6320 0.960 . S
C6308 H6300 0.929 . S
C6308 C6309 1.377 . S
C6308 C6310 1.384 . S
C6309 C6308 1.377 . S
C6309 C6315 1.390 . S
C6310 H6301 0.930 . S
C6310 C6308 1.384 . S
C6310 C6311 1.372 . S
C6311 C6310 1.372 . S
C6311 C6312 1.400 . S
C6311 C6316 1.490 . S
C6312 H6302 0.930 . S
C6312 C6311 1.400 . S
C6312 C6315 1.386 . S
H6313 C6329 0.930 . S
H6314 C6330 0.931 . S
C6315 H6303 0.929 . S
C6315 C6309 1.390 . S
C6315 C6312 1.386 . S
C6316 C6311 1.490 . S
C6316 C6318 1.395 . S
C6316 C6319 1.403 . S
H6317 C6323 0.930 . S
C6318 H6304 0.930 . S
C6318 C6316 1.395 . S
C6318 C6321 1.403 . S
C6319 C6316 1.403 . S
C6319 C6320 1.524 . S
C6319 C6323 1.400 . S
C6320 H6305 0.960 . S
C6320 H6306 0.960 . S
C6320 H6307 0.960 . S
C6320 C6319 1.524 . S
C6321 C6318 1.403 . S
C6321 C6322 1.392 . S
C6321 C6325 1.495 . S
C6322 C6321 1.392 . S
C6322 C6323 1.385 . S
C6322 C6324 1.478 . S
C6323 H6317 0.930 . S
C6323 C6319 1.400 . S
C6323 C6322 1.385 . S
C6324 C6322 1.478 . S
C6324 C6326 1.381 . S
C6324 C6330 1.383 . S
C6325 C6321 1.495 . S
C6325 H6331 0.959 . S
C6325 H6332 0.961 . S
C6325 H6333 0.960 . S
C6326 C6324 1.381 . S
C6326 C6327 1.394 . S
C6326 H6334 0.930 . S
C6327 C6326 1.394 . S
C6327 C6328 1.383 . S
C6327 H6335 0.929 . S
C6328 C6327 1.383 . S
C6328 C6329 1.377 . S
C6329 H6313 0.930 . S
C6329 C6328 1.377 . S
C6329 C6330 1.379 . S
C6330 H6314 0.931 . S
C6330 C6324 1.383 . S
C6330 C6329 1.379 . S
H6331 C6325 0.959 . S
H6332 C6325 0.961 . S
H6333 C6325 0.960 . S
H6334 C6326 0.930 . S
H6335 C6327 0.929 . S
H6336 C6344 0.929 . S
H6337 C6346 0.930 . S
H6338 C6348 0.930 . S
H6339 C6351 0.929 . S
H6340 C6354 0.930 . S
H6341 C6356 0.960 . S
H6342 C6356 0.960 . S
H6343 C6356 0.960 . S
C6344 H6336 0.929 . S
C6344 C6345 1.377 . S
C6344 C6346 1.384 . S
C6345 C6344 1.377 . S
C6345 C6351 1.390 . S
C6346 H6337 0.930 . S
C6346 C6344 1.384 . S
C6346 C6347 1.372 . S
C6347 C6346 1.372 . S
C6347 C6348 1.400 . S
C6347 C6352 1.490 . S
C6348 H6338 0.930 . S
C6348 C6347 1.400 . S
C6348 C6351 1.386 . S
H6349 C6365 0.930 . S
H6350 C6366 0.931 . S
C6351 H6339 0.929 . S
C6351 C6345 1.390 . S
C6351 C6348 1.386 . S
C6352 C6347 1.490 . S
C6352 C6354 1.395 . S
C6352 C6355 1.403 . S
H6353 C6359 0.930 . S
C6354 H6340 0.930 . S
C6354 C6352 1.395 . S
C6354 C6357 1.403 . S
C6355 C6352 1.403 . S
C6355 C6356 1.524 . S
C6355 C6359 1.400 . S
C6356 H6341 0.960 . S
C6356 H6342 0.960 . S
C6356 H6343 0.960 . S
C6356 C6355 1.524 . S
C6357 C6354 1.403 . S
C6357 C6358 1.392 . S
C6357 C6361 1.495 . S
C6358 C6357 1.392 . S
C6358 C6359 1.385 . S
C6358 C6360 1.478 . S
C6359 H6353 0.930 . S
C6359 C6355 1.400 . S
C6359 C6358 1.385 . S
C6360 C6358 1.478 . S
C6360 C6362 1.381 . S
C6360 C6366 1.383 . S
C6361 C6357 1.495 . S
C6361 H6367 0.959 . S
C6361 H6368 0.961 . S
C6361 H6369 0.960 . S
C6362 C6360 1.381 . S
C6362 C6363 1.394 . S
C6362 H6370 0.930 . S
C6363 C6362 1.394 . S
C6363 C6364 1.383 . S
C6363 H6371 0.929 . S
C6364 C6363 1.383 . S
C6364 C6365 1.377 . S
C6365 H6349 0.930 . S
C6365 C6364 1.377 . S
C6365 C6366 1.379 . S
C6366 H6350 0.931 . S
C6366 C6360 1.383 . S
C6366 C6365 1.379 . S
H6367 C6361 0.959 . S
H6368 C6361 0.961 . S
H6369 C6361 0.960 . S
H6370 C6362 0.930 . S
H6371 C6363 0.929 . S
H6372 C6380 0.929 . S
H6373 C6382 0.930 . S
H6374 C6384 0.930 . S
H6375 C6387 0.929 . S
H6376 C6390 0.930 . S
H6377 C6392 0.960 . S
H6378 C6392 0.960 . S
H6379 C6392 0.960 . S
C6380 H6372 0.929 . S
C6380 C6381 1.377 . S
C6380 C6382 1.384 . S
C6381 C6380 1.377 . S
C6381 C6387 1.390 . S
C6382 H6373 0.930 . S
C6382 C6380 1.384 . S
C6382 C6383 1.372 . S
C6383 C6382 1.372 . S
C6383 C6384 1.400 . S
C6383 C6388 1.490 . S
C6384 H6374 0.930 . S
C6384 C6383 1.400 . S
C6384 C6387 1.386 . S
H6385 C6401 0.930 . S
H6386 C6402 0.931 . S
C6387 H6375 0.929 . S
C6387 C6381 1.390 . S
C6387 C6384 1.386 . S
C6388 C6383 1.490 . S
C6388 C6390 1.395 . S
C6388 C6391 1.403 . S
H6389 C6395 0.930 . S
C6390 H6376 0.930 . S
C6390 C6388 1.395 . S
C6390 C6393 1.403 . S
C6391 C6388 1.403 . S
C6391 C6392 1.524 . S
C6391 C6395 1.400 . S
C6392 H6377 0.960 . S
C6392 H6378 0.960 . S
C6392 H6379 0.960 . S
C6392 C6391 1.524 . S
C6393 C6390 1.403 . S
C6393 C6394 1.392 . S
C6393 C6397 1.495 . S
C6394 C6393 1.392 . S
C6394 C6395 1.385 . S
C6394 C6396 1.478 . S
C6395 H6389 0.930 . S
C6395 C6391 1.400 . S
C6395 C6394 1.385 . S
C6396 C6394 1.478 . S
C6396 C6398 1.381 . S
C6396 C6402 1.383 . S
C6397 C6393 1.495 . S
C6397 H6403 0.959 . S
C6397 H6404 0.961 . S
C6397 H6405 0.960 . S
C6398 C6396 1.381 . S
C6398 C6399 1.394 . S
C6398 H6406 0.930 . S
C6399 C6398 1.394 . S
C6399 C6400 1.383 . S
C6399 H6407 0.929 . S
C6400 C6399 1.383 . S
C6400 C6401 1.377 . S
C6401 H6385 0.930 . S
C6401 C6400 1.377 . S
C6401 C6402 1.379 . S
C6402 H6386 0.931 . S
C6402 C6396 1.383 . S
C6402 C6401 1.379 . S
H6403 C6397 0.959 . S
H6404 C6397 0.961 . S
H6405 C6397 0.960 . S
H6406 C6398 0.930 . S
H6407 C6399 0.929 . S
H6408 C6416 0.929 . S
H6409 C6418 0.930 . S
H6410 C6420 0.930 . S
H6411 C6423 0.929 . S
H6412 C6426 0.930 . S
H6413 C6428 0.960 . S
H6414 C6428 0.960 . S
H6415 C6428 0.960 . S
C6416 H6408 0.929 . S
C6416 C6417 1.377 . S
C6416 C6418 1.384 . S
C6417 C6416 1.377 . S
C6417 C6423 1.390 . S
C6418 H6409 0.930 . S
C6418 C6416 1.384 . S
C6418 C6419 1.372 . S
C6419 C6418 1.372 . S
C6419 C6420 1.400 . S
C6419 C6424 1.490 . S
C6420 H6410 0.930 . S
C6420 C6419 1.400 . S
C6420 C6423 1.386 . S
H6421 C6437 0.930 . S
H6422 C6438 0.931 1_655 S
C6423 H6411 0.929 . S
C6423 C6417 1.390 . S
C6423 C6420 1.386 . S
C6424 C6419 1.490 . S
C6424 C6426 1.395 . S
C6424 C6427 1.403 . S
H6425 C6431 0.930 . S
C6426 H6412 0.930 . S
C6426 C6424 1.395 . S
C6426 C6429 1.444 . S
C6427 C6424 1.403 . S
C6427 C6428 1.524 . S
C6427 C6431 1.400 . S
C6428 H6413 0.960 . S
C6428 H6414 0.960 . S
C6428 H6415 0.960 . S
C6428 C6427 1.524 . S
C6429 C6426 1.444 . S
C6429 C6430 1.353 1_655 S
C6429 C6433 1.485 1_655 S
C6430 C6429 1.353 1_455 S
C6430 C6431 1.373 1_455 S
C6430 C6432 1.516 . S
C6431 H6425 0.930 . S
C6431 C6427 1.400 . S
C6431 C6430 1.373 1_655 S
C6432 C6430 1.516 . S
C6432 C6434 1.381 . S
C6432 C6438 1.383 . S
C6433 C6429 1.485 1_455 S
C6433 H6439 0.959 . S
C6433 H6440 0.961 . S
C6433 H6441 0.960 . S
C6434 C6432 1.381 . S
C6434 C6435 1.394 . S
C6434 H6442 0.930 . S
C6435 C6434 1.394 . S
C6435 C6436 1.383 . S
C6435 H6443 0.929 . S
C6436 C6435 1.383 . S
C6436 C6437 1.377 . S
C6437 H6421 0.930 . S
C6437 C6436 1.377 . S
C6437 C6438 1.379 . S
C6438 H6422 0.931 1_455 S
C6438 C6432 1.383 . S
C6438 C6437 1.379 . S
H6439 C6433 0.959 . S
H6440 C6433 0.961 . S
H6441 C6433 0.960 . S
H6442 C6434 0.930 . S
H6443 C6435 0.929 . S
H6444 C6452 0.929 . S
H6445 C6454 0.930 . S
H6446 C6456 0.930 . S
H6447 C6459 0.929 . S
H6448 C6462 0.930 . S
H6449 C6464 0.960 . S
H6450 C6464 0.960 . S
H6451 C6464 0.960 . S
C6452 H6444 0.929 . S
C6452 C6453 1.377 . S
C6452 C6454 1.384 . S
C6453 C6452 1.377 . S
C6453 C6459 1.390 . S
C6454 H6445 0.930 . S
C6454 C6452 1.384 . S
C6454 C6455 1.372 . S
C6455 C6454 1.372 . S
C6455 C6456 1.400 . S
C6455 C6460 1.490 . S
C6456 H6446 0.930 . S
C6456 C6455 1.400 . S
C6456 C6459 1.386 . S
H6457 C6473 0.930 . S
H6458 C6474 0.931 . S
C6459 H6447 0.929 . S
C6459 C6453 1.390 . S
C6459 C6456 1.386 . S
C6460 C6455 1.490 . S
C6460 C6462 1.395 . S
C6460 C6463 1.403 . S
H6461 C6467 0.930 . S
C6462 H6448 0.930 . S
C6462 C6460 1.395 . S
C6462 C6465 1.403 . S
C6463 C6460 1.403 . S
C6463 C6464 1.524 . S
C6463 C6467 1.400 . S
C6464 H6449 0.960 . S
C6464 H6450 0.960 . S
C6464 H6451 0.960 . S
C6464 C6463 1.524 . S
C6465 C6462 1.403 . S
C6465 C6466 1.392 . S
C6465 C6469 1.495 . S
C6466 C6465 1.392 . S
C6466 C6467 1.385 . S
C6466 C6468 1.478 . S
C6467 H6461 0.930 . S
C6467 C6463 1.400 . S
C6467 C6466 1.385 . S
C6468 C6466 1.478 . S
C6468 C6470 1.381 . S
C6468 C6474 1.383 . S
C6469 C6465 1.495 . S
C6469 H6475 0.959 . S
C6469 H6476 0.961 . S
C6469 H6477 0.960 . S
C6470 C6468 1.381 . S
C6470 C6471 1.394 . S
C6470 H6478 0.930 . S
C6471 C6470 1.394 . S
C6471 C6472 1.383 . S
C6471 H6479 0.929 . S
C6472 C6471 1.383 . S
C6472 C6473 1.377 . S
C6473 H6457 0.930 . S
C6473 C6472 1.377 . S
C6473 C6474 1.379 . S
C6474 H6458 0.931 . S
C6474 C6468 1.383 . S
C6474 C6473 1.379 . S
H6475 C6469 0.959 . S
H6476 C6469 0.961 . S
H6477 C6469 0.960 . S
H6478 C6470 0.930 . S
H6479 C6471 0.929 . S
H6480 C6488 0.929 . S
H6481 C6490 0.930 . S
H6482 C6492 0.930 . S
H6483 C6495 0.929 . S
H6484 C6498 0.930 . S
H6485 C6500 0.960 . S
H6486 C6500 0.960 . S
H6487 C6500 0.960 . S
C6488 H6480 0.929 . S
C6488 C6489 1.377 . S
C6488 C6490 1.384 . S
C6489 C6488 1.377 . S
C6489 C6495 1.390 . S
C6490 H6481 0.930 . S
C6490 C6488 1.384 . S
C6490 C6491 1.372 . S
C6491 C6490 1.372 . S
C6491 C6492 1.400 . S
C6491 C6496 1.490 . S
C6492 H6482 0.930 . S
C6492 C6491 1.400 . S
C6492 C6495 1.386 . S
H6493 C6509 0.930 . S
H6494 C6510 0.931 . S
C6495 H6483 0.929 . S
C6495 C6489 1.390 . S
C6495 C6492 1.386 . S
C6496 C6491 1.490 . S
C6496 C6498 1.395 . S
C6496 C6499 1.403 . S
H6497 C6503 0.930 . S
C6498 H6484 0.930 . S
C6498 C6496 1.395 . S
C6498 C6501 1.403 . S
C6499 C6496 1.403 . S
C6499 C6500 1.524 . S
C6499 C6503 1.400 . S
C6500 H6485 0.960 . S
C6500 H6486 0.960 . S
C6500 H6487 0.960 . S
C6500 C6499 1.524 . S
C6501 C6498 1.403 . S
C6501 C6502 1.392 . S
C6501 C6505 1.495 . S
C6502 C6501 1.392 . S
C6502 C6503 1.385 . S
C6502 C6504 1.478 . S
C6503 H6497 0.930 . S
C6503 C6499 1.400 . S
C6503 C6502 1.385 . S
C6504 C6502 1.478 . S
C6504 C6506 1.381 . S
C6504 C6510 1.383 . S
C6505 C6501 1.495 . S
C6505 H6511 0.959 . S
C6505 H6512 0.961 . S
C6505 H6513 0.960 . S
C6506 C6504 1.381 . S
C6506 C6507 1.394 . S
C6506 H6514 0.930 . S
C6507 C6506 1.394 . S
C6507 C6508 1.383 . S
C6507 H6515 0.929 . S
C6508 C6507 1.383 . S
C6508 C6509 1.377 . S
C6509 H6493 0.930 . S
C6509 C6508 1.377 . S
C6509 C6510 1.379 . S
C6510 H6494 0.931 . S
C6510 C6504 1.383 . S
C6510 C6509 1.379 . S
H6511 C6505 0.959 . S
H6512 C6505 0.961 . S
H6513 C6505 0.960 . S
H6514 C6506 0.930 . S
H6515 C6507 0.929 . S
H6516 C6524 0.929 . S
H6517 C6526 0.930 . S
H6518 C6528 0.930 . S
H6519 C6531 0.929 . S
H6520 C6534 0.930 . S
H6521 C6536 0.960 . S
H6522 C6536 0.960 . S
H6523 C6536 0.960 . S
C6524 H6516 0.929 . S
C6524 C6525 1.377 . S
C6524 C6526 1.384 . S
C6525 C6524 1.377 . S
C6525 C6531 1.390 . S
C6526 H6517 0.930 . S
C6526 C6524 1.384 . S
C6526 C6527 1.372 . S
C6527 C6526 1.372 . S
C6527 C6528 1.400 . S
C6527 C6532 1.490 . S
C6528 H6518 0.930 . S
C6528 C6527 1.400 . S
C6528 C6531 1.386 . S
H6529 C6545 0.930 . S
H6530 C6546 0.931 . S
C6531 H6519 0.929 . S
C6531 C6525 1.390 . S
C6531 C6528 1.386 . S
C6532 C6527 1.490 . S
C6532 C6534 1.395 . S
C6532 C6535 1.403 . S
H6533 C6539 0.930 . S
C6534 H6520 0.930 . S
C6534 C6532 1.395 . S
C6534 C6537 1.403 . S
C6535 C6532 1.403 . S
C6535 C6536 1.524 . S
C6535 C6539 1.400 . S
C6536 H6521 0.960 . S
C6536 H6522 0.960 . S
C6536 H6523 0.960 . S
C6536 C6535 1.524 . S
C6537 C6534 1.403 . S
C6537 C6538 1.392 . S
C6537 C6541 1.495 . S
C6538 C6537 1.392 . S
C6538 C6539 1.385 . S
C6538 C6540 1.478 . S
C6539 H6533 0.930 . S
C6539 C6535 1.400 . S
C6539 C6538 1.385 . S
C6540 C6538 1.478 . S
C6540 C6542 1.381 . S
C6540 C6546 1.383 . S
C6541 C6537 1.495 . S
C6541 H6547 0.959 . S
C6541 H6548 0.961 . S
C6541 H6549 0.960 . S
C6542 C6540 1.381 . S
C6542 C6543 1.394 . S
C6542 H6550 0.930 . S
C6543 C6542 1.394 . S
C6543 C6544 1.383 . S
C6543 H6551 0.929 . S
C6544 C6543 1.383 . S
C6544 C6545 1.377 . S
C6545 H6529 0.930 . S
C6545 C6544 1.377 . S
C6545 C6546 1.379 . S
C6546 H6530 0.931 . S
C6546 C6540 1.383 . S
C6546 C6545 1.379 . S
H6547 C6541 0.959 . S
H6548 C6541 0.961 . S
H6549 C6541 0.960 . S
H6550 C6542 0.930 . S
H6551 C6543 0.929 . S
H6552 C6560 0.929 . S
H6553 C6562 0.930 . S
H6554 C6564 0.930 . S
H6555 C6567 0.929 . S
H6556 C6570 0.930 . S
H6557 C6572 0.960 . S
H6558 C6572 0.960 . S
H6559 C6572 0.960 . S
C6560 H6552 0.929 . S
C6560 C6561 1.377 . S
C6560 C6562 1.384 . S
C6561 C6560 1.377 . S
C6561 C6567 1.390 . S
C6562 H6553 0.930 . S
C6562 C6560 1.384 . S
C6562 C6563 1.372 . S
C6563 C6562 1.372 . S
C6563 C6564 1.400 . S
C6563 C6568 1.490 . S
C6564 H6554 0.930 . S
C6564 C6563 1.400 . S
C6564 C6567 1.386 . S
H6565 C6581 0.930 . S
H6566 C6582 0.931 . S
C6567 H6555 0.929 . S
C6567 C6561 1.390 . S
C6567 C6564 1.386 . S
C6568 C6563 1.490 . S
C6568 C6570 1.395 . S
C6568 C6571 1.403 . S
H6569 C6575 0.930 . S
C6570 H6556 0.930 . S
C6570 C6568 1.395 . S
C6570 C6573 1.403 . S
C6571 C6568 1.403 . S
C6571 C6572 1.524 . S
C6571 C6575 1.400 . S
C6572 H6557 0.960 . S
C6572 H6558 0.960 . S
C6572 H6559 0.960 . S
C6572 C6571 1.524 . S
C6573 C6570 1.403 . S
C6573 C6574 1.392 . S
C6573 C6577 1.495 . S
C6574 C6573 1.392 . S
C6574 C6575 1.385 . S
C6574 C6576 1.478 . S
C6575 H6569 0.930 . S
C6575 C6571 1.400 . S
C6575 C6574 1.385 . S
C6576 C6574 1.478 . S
C6576 C6578 1.381 . S
C6576 C6582 1.383 1_655 S
C6577 C6573 1.495 . S
C6577 H6583 0.959 . S
C6577 H6584 0.961 . S
C6577 H6585 0.960 . S
C6578 C6576 1.381 . S
C6578 C6579 1.394 . S
C6578 H6586 0.930 . S
C6579 C6578 1.394 . S
C6579 C6580 1.383 1_655 S
C6579 H6587 0.929 . S
C6580 C6579 1.383 1_455 S
C6580 C6581 1.377 . S
C6581 H6565 0.930 . S
C6581 C6580 1.377 . S
C6581 C6582 1.379 . S
C6582 H6566 0.931 . S
C6582 C6576 1.383 1_455 S
C6582 C6581 1.379 . S
H6583 C6577 0.959 . S
H6584 C6577 0.961 . S
H6585 C6577 0.960 . S
H6586 C6578 0.930 . S
H6587 C6579 0.929 . S
H6588 C6596 0.929 . S
H6589 C6598 0.930 . S
H6590 C6600 0.930 . S
H6591 C6603 0.929 . S
H6592 C6606 0.930 . S
H6593 C6608 0.960 . S
H6594 C6608 0.960 . S
H6595 C6608 0.960 . S
C6596 H6588 0.929 . S
C6596 C6597 1.377 . S
C6596 C6598 1.384 . S
C6597 C6596 1.377 . S
C6597 C6603 1.390 . S
C6598 H6589 0.930 . S
C6598 C6596 1.384 . S
C6598 C6599 1.372 . S
C6599 C6598 1.372 . S
C6599 C6600 1.400 . S
C6599 C6604 1.490 . S
C6600 H6590 0.930 . S
C6600 C6599 1.400 . S
C6600 C6603 1.386 . S
H6601 C6617 0.930 . S
H6602 C6618 0.931 . S
C6603 H6591 0.929 . S
C6603 C6597 1.390 . S
C6603 C6600 1.386 . S
C6604 C6599 1.490 . S
C6604 C6606 1.395 . S
C6604 C6607 1.403 . S
H6605 C6611 0.930 . S
C6606 H6592 0.930 . S
C6606 C6604 1.395 . S
C6606 C6609 1.403 . S
C6607 C6604 1.403 . S
C6607 C6608 1.524 . S
C6607 C6611 1.400 . S
C6608 H6593 0.960 . S
C6608 H6594 0.960 . S
C6608 H6595 0.960 . S
C6608 C6607 1.524 . S
C6609 C6606 1.403 . S
C6609 C6610 1.392 . S
C6609 C6613 1.495 . S
C6610 C6609 1.392 . S
C6610 C6611 1.385 . S
C6610 C6612 1.478 . S
C6611 H6605 0.930 . S
C6611 C6607 1.400 . S
C6611 C6610 1.385 . S
C6612 C6610 1.478 . S
C6612 C6614 1.381 . S
C6612 C6618 1.383 . S
C6613 C6609 1.495 . S
C6613 H6619 0.959 . S
C6613 H6620 0.961 . S
C6613 H6621 0.960 . S
C6614 C6612 1.381 . S
C6614 C6615 1.394 . S
C6614 H6622 0.930 . S
C6615 C6614 1.394 . S
C6615 C6616 1.383 . S
C6615 H6623 0.929 . S
C6616 C6615 1.383 . S
C6616 C6617 1.377 . S
C6617 H6601 0.930 . S
C6617 C6616 1.377 . S
C6617 C6618 1.379 . S
C6618 H6602 0.931 . S
C6618 C6612 1.383 . S
C6618 C6617 1.379 . S
H6619 C6613 0.959 . S
H6620 C6613 0.961 . S
H6621 C6613 0.960 . S
H6622 C6614 0.930 . S
H6623 C6615 0.929 . S
H6624 C6632 0.929 . S
H6625 C6634 0.930 . S
H6626 C6636 0.930 . S
H6627 C6639 0.929 . S
H6628 C6642 0.930 . S
H6629 C6644 0.960 . S
H6630 C6644 0.960 . S
H6631 C6644 0.960 . S
C6632 H6624 0.929 . S
C6632 C6633 1.377 . S
C6632 C6634 1.384 . S
C6633 C6632 1.377 . S
C6633 C6639 1.390 . S
C6634 H6625 0.930 . S
C6634 C6632 1.384 . S
C6634 C6635 1.372 . S
C6635 C6634 1.372 . S
C6635 C6636 1.400 . S
C6635 C6640 1.490 . S
C6636 H6626 0.930 . S
C6636 C6635 1.400 . S
C6636 C6639 1.386 . S
H6637 C6653 0.930 . S
H6638 C6654 0.931 . S
C6639 H6627 0.929 . S
C6639 C6633 1.390 . S
C6639 C6636 1.386 . S
C6640 C6635 1.490 . S
C6640 C6642 1.395 . S
C6640 C6643 1.403 . S
H6641 C6647 0.930 . S
C6642 H6628 0.930 . S
C6642 C6640 1.395 . S
C6642 C6645 1.403 . S
C6643 C6640 1.403 . S
C6643 C6644 1.524 . S
C6643 C6647 1.400 . S
C6644 H6629 0.960 . S
C6644 H6630 0.960 . S
C6644 H6631 0.960 . S
C6644 C6643 1.524 . S
C6645 C6642 1.403 . S
C6645 C6646 1.392 . S
C6645 C6649 1.495 . S
C6646 C6645 1.392 . S
C6646 C6647 1.385 . S
C6646 C6648 1.478 . S
C6647 H6641 0.930 . S
C6647 C6643 1.400 . S
C6647 C6646 1.385 . S
C6648 C6646 1.478 . S
C6648 C6650 1.381 . S
C6648 C6654 1.383 . S
C6649 C6645 1.495 . S
C6649 H6655 0.959 . S
C6649 H6656 0.961 . S
C6649 H6657 0.960 . S
C6650 C6648 1.381 . S
C6650 C6651 1.394 . S
C6650 H6658 0.930 . S
C6651 C6650 1.394 . S
C6651 C6652 1.383 . S
C6651 H6659 0.929 . S
C6652 C6651 1.383 . S
C6652 C6653 1.377 . S
C6653 H6637 0.930 . S
C6653 C6652 1.377 . S
C6653 C6654 1.379 . S
C6654 H6638 0.931 . S
C6654 C6648 1.383 . S
C6654 C6653 1.379 . S
H6655 C6649 0.959 . S
H6656 C6649 0.961 . S
H6657 C6649 0.960 . S
H6658 C6650 0.930 . S
H6659 C6651 0.929 . S
H6660 C6668 0.929 . S
H6661 C6670 0.930 . S
H6662 C6672 0.930 . S
H6663 C6675 0.929 . S
H6664 C6678 0.930 . S
H6665 C6680 1.003 . S
H6666 C6680 0.960 . S
H6667 C6680 0.960 . S
C6668 H6660 0.929 . S
C6668 C6669 1.377 . S
C6668 C6670 1.384 . S
C6669 C6668 1.377 . S
C6669 C6675 1.390 . S
C6670 H6661 0.930 . S
C6670 C6668 1.384 . S
C6670 C6671 1.372 . S
C6671 C6670 1.372 . S
C6671 C6672 1.400 . S
C6671 C6676 1.490 . S
C6672 H6662 0.930 . S
C6672 C6671 1.400 . S
C6672 C6675 1.386 . S
H6673 C6689 0.930 . S
H6674 C6690 0.931 . S
C6675 H6663 0.929 . S
C6675 C6669 1.390 . S
C6675 C6672 1.386 . S
C6676 C6671 1.490 . S
C6676 C6678 1.395 . S
C6676 C6679 1.403 . S
H6677 C6683 0.930 . S
C6678 H6664 0.930 . S
C6678 C6676 1.395 . S
C6678 C6681 1.403 . S
C6679 C6676 1.403 . S
C6679 C6680 1.524 . S
C6679 C6683 1.400 . S
C6680 H6665 1.003 . S
C6680 H6666 0.960 . S
C6680 H6667 0.960 . S
C6680 C6679 1.524 . S
C6681 C6678 1.403 . S
C6681 C6682 1.392 . S
C6681 C6685 1.495 . S
C6682 C6681 1.392 . S
C6682 C6683 1.385 . S
C6682 C6684 1.478 . S
C6683 H6677 0.930 . S
C6683 C6679 1.400 . S
C6683 C6682 1.385 . S
C6684 C6682 1.478 . S
C6684 C6686 1.381 1_565 S
C6684 C6690 1.383 . S
C6685 C6681 1.495 . S
C6685 H6691 0.959 . S
C6685 H6692 0.961 . S
C6685 H6693 0.960 . S
C6686 C6684 1.381 1_545 S
C6686 C6687 1.395 . S
C6686 H6694 0.927 1_545 S
C6687 C6686 1.395 . S
C6687 C6688 1.383 . S
C6687 H6695 0.929 . S
C6688 C6687 1.383 . S
C6688 C6689 1.377 . S
C6689 H6673 0.930 . S
C6689 C6688 1.377 . S
C6689 C6690 1.379 1_545 S
C6690 H6674 0.931 . S
C6690 C6684 1.383 . S
C6690 C6689 1.379 1_565 S
H6691 C6685 0.959 . S
H6692 C6685 0.961 . S
H6693 C6685 0.960 . S
H6694 C6686 0.927 1_565 S
H6695 C6687 0.929 . S
H6696 C6704 0.929 . S
H6697 C6706 0.930 . S
H6698 C6708 0.930 . S
H6699 C6711 0.929 . S
H6700 C6714 0.930 . S
H6701 C6716 0.960 . S
H6702 C6716 0.960 . S
H6703 C6716 0.960 . S
C6704 H6696 0.929 . S
C6704 C6705 1.377 . S
C6704 C6706 1.384 . S
C6705 C6704 1.377 . S
C6705 C6711 1.390 . S
C6706 H6697 0.930 . S
C6706 C6704 1.384 . S
C6706 C6707 1.372 . S
C6707 C6706 1.372 . S
C6707 C6708 1.400 . S
C6707 C6712 1.490 . S
C6708 H6698 0.930 . S
C6708 C6707 1.400 . S
C6708 C6711 1.386 . S
H6709 C6725 0.930 . S
H6710 C6726 0.931 . S
C6711 H6699 0.929 . S
C6711 C6705 1.390 . S
C6711 C6708 1.386 . S
C6712 C6707 1.490 . S
C6712 C6714 1.395 . S
C6712 C6715 1.403 . S
H6713 C6719 0.930 . S
C6714 H6700 0.930 . S
C6714 C6712 1.395 . S
C6714 C6717 1.403 . S
C6715 C6712 1.403 . S
C6715 C6716 1.524 . S
C6715 C6719 1.400 . S
C6716 H6701 0.960 . S
C6716 H6702 0.960 . S
C6716 H6703 0.960 . S
C6716 C6715 1.524 . S
C6717 C6714 1.403 . S
C6717 C6718 1.392 . S
C6717 C6721 1.495 . S
C6718 C6717 1.392 . S
C6718 C6719 1.385 . S
C6718 C6720 1.478 . S
C6719 H6713 0.930 . S
C6719 C6715 1.400 . S
C6719 C6718 1.385 . S
C6720 C6718 1.478 . S
C6720 C6722 1.381 . S
C6720 C6726 1.383 . S
C6721 C6717 1.495 . S
C6721 H6727 0.959 . S
C6721 H6728 0.961 . S
C6721 H6729 0.960 . S
C6722 C6720 1.381 . S
C6722 C6723 1.394 . S
C6722 H6730 0.930 . S
C6723 C6722 1.394 . S
C6723 C6724 1.383 . S
C6723 H6731 0.929 . S
C6724 C6723 1.383 . S
C6724 C6725 1.377 . S
C6725 H6709 0.930 . S
C6725 C6724 1.377 . S
C6725 C6726 1.379 . S
C6726 H6710 0.931 . S
C6726 C6720 1.383 . S
C6726 C6725 1.379 . S
H6727 C6721 0.959 . S
H6728 C6721 0.961 . S
H6729 C6721 0.960 . S
H6730 C6722 0.930 . S
H6731 C6723 0.929 . S
H6732 C6740 0.929 . S
H6733 C6742 0.930 . S
H6734 C6744 0.903 1_556 S
H6735 C6747 0.947 . S
H6736 C6750 0.930 . S
H6737 C6752 0.960 . S
H6738 C6752 0.960 . S
H6739 C6752 0.960 . S
C6740 H6732 0.929 . S
C6740 C6741 1.377 . S
C6740 C6742 1.384 . S
C6741 C6740 1.377 . S
C6741 C6747 1.379 1_554 S
C6742 H6733 0.930 . S
C6742 C6740 1.384 . S
C6742 C6743 1.372 . S
C6743 C6742 1.372 . S
C6743 C6744 1.446 . S
C6743 C6748 1.490 . S
C6744 H6734 0.903 1_554 S
C6744 C6743 1.446 . S
C6744 C6747 1.369 1_554 S
H6745 C6761 0.930 1_556 S
H6746 C6762 0.931 1_556 S
C6747 H6735 0.947 . S
C6747 C6741 1.379 1_556 S
C6747 C6744 1.369 1_556 S
C6748 C6743 1.490 . S
C6748 C6750 1.395 . S
C6748 C6751 1.403 . S
H6749 C6755 0.930 . S
C6750 H6736 0.930 . S
C6750 C6748 1.395 . S
C6750 C6753 1.403 . S
C6751 C6748 1.403 . S
C6751 C6752 1.524 . S
C6751 C6755 1.400 . S
C6752 H6737 0.960 . S
C6752 H6738 0.960 . S
C6752 H6739 0.960 . S
C6752 C6751 1.524 . S
C6753 C6750 1.403 . S
C6753 C6754 1.392 . S
C6753 C6757 1.495 . S
C6754 C6753 1.392 . S
C6754 C6755 1.385 . S
C6754 C6756 1.478 . S
C6755 H6749 0.930 . S
C6755 C6751 1.400 . S
C6755 C6754 1.385 . S
C6756 C6754 1.478 . S
C6756 C6758 1.381 . S
C6756 C6762 1.383 . S
C6757 C6753 1.495 . S
C6757 H6763 0.959 . S
C6757 H6764 0.961 1_554 S
C6757 H6765 0.960 . S
C6758 C6756 1.381 . S
C6758 C6759 1.394 . S
C6758 H6766 0.930 . S
C6759 C6758 1.394 . S
C6759 C6760 1.383 . S
C6759 H6767 0.929 . S
C6760 C6759 1.383 . S
C6760 C6761 1.377 . S
C6761 H6745 0.930 1_554 S
C6761 C6760 1.377 . S
C6761 C6762 1.379 . S
C6762 H6746 0.931 1_554 S
C6762 C6756 1.383 . S
C6762 C6761 1.379 . S
H6763 C6757 0.959 . S
H6764 C6757 0.961 1_556 S
H6765 C6757 0.960 . S
H6766 C6758 0.930 . S
H6767 C6759 0.929 . S
H6768 C6776 0.929 . S
H6769 C6778 0.930 . S
H6770 C6780 0.930 . S
H6771 C6783 0.929 . S
H6772 C6786 0.930 . S
H6773 C6788 0.960 . S
H6774 C6788 0.960 . S
H6775 C6788 0.960 . S
C6776 H6768 0.929 . S
C6776 C6777 1.377 . S
C6776 C6778 1.384 . S
C6777 C6776 1.377 . S
C6777 C6783 1.390 . S
C6778 H6769 0.930 . S
C6778 C6776 1.384 . S
C6778 C6779 1.372 . S
C6779 C6778 1.372 . S
C6779 C6780 1.400 . S
C6779 C6784 1.490 . S
C6780 H6770 0.930 . S
C6780 C6779 1.400 . S
C6780 C6783 1.386 . S
H6781 C6797 0.930 . S
H6782 C6798 0.931 . S
C6783 H6771 0.929 . S
C6783 C6777 1.390 . S
C6783 C6780 1.386 . S
C6784 C6779 1.490 . S
C6784 C6786 1.395 . S
C6784 C6787 1.403 . S
H6785 C6791 0.930 . S
C6786 H6772 0.930 . S
C6786 C6784 1.395 . S
C6786 C6789 1.403 . S
C6787 C6784 1.403 . S
C6787 C6788 1.524 . S
C6787 C6791 1.400 . S
C6788 H6773 0.960 . S
C6788 H6774 0.960 . S
C6788 H6775 0.960 . S
C6788 C6787 1.524 . S
C6789 C6786 1.403 . S
C6789 C6790 1.392 . S
C6789 C6793 1.495 . S
C6790 C6789 1.392 . S
C6790 C6791 1.385 . S
C6790 C6792 1.478 . S
C6791 H6785 0.930 . S
C6791 C6787 1.400 . S
C6791 C6790 1.385 . S
C6792 C6790 1.478 . S
C6792 C6794 1.381 . S
C6792 C6798 1.383 . S
C6793 C6789 1.495 . S
C6793 H6799 0.959 . S
C6793 H6800 0.961 . S
C6793 H6801 0.960 . S
C6794 C6792 1.381 . S
C6794 C6795 1.394 . S
C6794 H6802 0.930 . S
C6795 C6794 1.394 . S
C6795 C6796 1.383 . S
C6795 H6803 0.929 . S
C6796 C6795 1.383 . S
C6796 C6797 1.377 . S
C6797 H6781 0.930 . S
C6797 C6796 1.377 . S
C6797 C6798 1.379 . S
C6798 H6782 0.931 . S
C6798 C6792 1.383 . S
C6798 C6797 1.379 . S
H6799 C6793 0.959 . S
H6800 C6793 0.961 . S
H6801 C6793 0.960 . S
H6802 C6794 0.930 . S
H6803 C6795 0.929 . S
H6804 C6812 0.929 . S
H6805 C6814 0.930 . S
H6806 C6816 0.930 . S
H6807 C6819 0.929 . S
H6808 C6822 0.930 . S
H6809 C6824 0.953 1_556 S
H6810 C6824 0.964 . S
H6811 C6824 0.957 1_556 S
C6812 H6804 0.929 . S
C6812 C6813 1.377 . S
C6812 C6814 1.384 . S
C6813 C6812 1.377 . S
C6813 C6819 1.390 . S
C6814 H6805 0.930 . S
C6814 C6812 1.384 . S
C6814 C6815 1.372 . S
C6815 C6814 1.372 . S
C6815 C6816 1.400 . S
C6815 C6820 1.490 . S
C6816 H6806 0.930 . S
C6816 C6815 1.400 . S
C6816 C6819 1.386 . S
H6817 C6833 0.930 1_556 S
H6818 C6834 0.931 . S
C6819 H6807 0.929 . S
C6819 C6813 1.390 . S
C6819 C6816 1.386 . S
C6820 C6815 1.490 . S
C6820 C6822 1.395 . S
C6820 C6823 1.403 . S
H6821 C6827 0.930 . S
C6822 H6808 0.930 . S
C6822 C6820 1.395 . S
C6822 C6825 1.403 . S
C6823 C6820 1.403 . S
C6823 C6824 1.530 . S
C6823 C6827 1.400 . S
C6824 H6809 0.953 1_554 S
C6824 H6810 0.964 . S
C6824 H6811 0.957 1_554 S
C6824 C6823 1.530 . S
C6825 C6822 1.403 . S
C6825 C6826 1.392 . S
C6825 C6829 1.495 . S
C6826 C6825 1.392 . S
C6826 C6827 1.385 . S
C6826 C6828 1.478 . S
C6827 H6821 0.930 . S
C6827 C6823 1.400 . S
C6827 C6826 1.385 . S
C6828 C6826 1.478 . S
C6828 C6830 1.381 . S
C6828 C6834 1.383 . S
C6829 C6825 1.495 . S
C6829 H6835 0.959 . S
C6829 H6836 0.961 . S
C6829 H6837 0.960 . S
C6830 C6828 1.381 . S
C6830 C6831 1.394 . S
C6830 H6838 0.930 . S
C6831 C6830 1.394 . S
C6831 C6832 1.383 . S
C6831 H6839 0.929 . S
C6832 C6831 1.383 . S
C6832 C6833 1.377 . S
C6833 H6817 0.930 1_554 S
C6833 C6832 1.377 . S
C6833 C6834 1.379 . S
C6834 H6818 0.931 . S
C6834 C6828 1.383 . S
C6834 C6833 1.379 . S
H6835 C6829 0.959 . S
H6836 C6829 0.961 . S
H6837 C6829 0.960 . S
H6838 C6830 0.930 . S
H6839 C6831 0.929 . S
H6840 C6848 0.929 . S
H6841 C6850 0.930 . S
H6842 C6852 0.930 . S
H6843 C6855 0.929 . S
H6844 C6858 0.930 . S
H6845 C6860 0.960 . S
H6846 C6860 0.960 . S
H6847 C6860 0.960 . S
C6848 H6840 0.929 . S
C6848 C6849 1.377 . S
C6848 C6850 1.384 . S
C6849 C6848 1.377 . S
C6849 C6855 1.390 . S
C6850 H6841 0.930 . S
C6850 C6848 1.384 . S
C6850 C6851 1.372 . S
C6851 C6850 1.372 . S
C6851 C6852 1.400 . S
C6851 C6856 1.490 . S
C6852 H6842 0.930 . S
C6852 C6851 1.400 . S
C6852 C6855 1.386 . S
H6853 C6869 0.930 . S
H6854 C6870 0.931 . S
C6855 H6843 0.929 . S
C6855 C6849 1.390 . S
C6855 C6852 1.386 . S
C6856 C6851 1.490 . S
C6856 C6858 1.395 . S
C6856 C6859 1.403 . S
H6857 C6863 0.930 . S
C6858 H6844 0.930 . S
C6858 C6856 1.395 . S
C6858 C6861 1.403 . S
C6859 C6856 1.403 . S
C6859 C6860 1.524 . S
C6859 C6863 1.400 . S
C6860 H6845 0.960 . S
C6860 H6846 0.960 . S
C6860 H6847 0.960 . S
C6860 C6859 1.524 . S
C6861 C6858 1.403 . S
C6861 C6862 1.392 . S
C6861 C6865 1.495 . S
C6862 C6861 1.392 . S
C6862 C6863 1.385 . S
C6862 C6864 1.478 . S
C6863 H6857 0.930 . S
C6863 C6859 1.400 . S
C6863 C6862 1.385 . S
C6864 C6862 1.478 . S
C6864 C6866 1.381 . S
C6864 C6870 1.383 . S
C6865 C6861 1.495 . S
C6865 H6871 0.959 . S
C6865 H6872 0.961 . S
C6865 H6873 0.960 . S
C6866 C6864 1.381 . S
C6866 C6867 1.394 . S
C6866 H6874 0.930 . S
C6867 C6866 1.394 . S
C6867 C6868 1.383 . S
C6867 H6875 0.929 . S
C6868 C6867 1.383 . S
C6868 C6869 1.377 . S
C6869 H6853 0.930 . S
C6869 C6868 1.377 . S
C6869 C6870 1.379 . S
C6870 H6854 0.931 . S
C6870 C6864 1.383 . S
C6870 C6869 1.379 . S
H6871 C6865 0.959 . S
H6872 C6865 0.961 . S
H6873 C6865 0.960 . S
H6874 C6866 0.930 . S
H6875 C6867 0.929 . S
H6876 C6884 0.929 . S
H6877 C6886 0.930 . S
H6878 C6888 0.930 . S
H6879 C6891 0.929 . S
H6880 C6894 0.930 . S
H6881 C6896 0.960 . S
H6882 C6896 0.960 . S
H6883 C6896 0.960 . S
C6884 H6876 0.929 . S
C6884 C6885 1.377 . S
C6884 C6886 1.384 . S
C6885 C6884 1.377 . S
C6885 C6891 1.390 . S
C6886 H6877 0.930 . S
C6886 C6884 1.384 . S
C6886 C6887 1.372 . S
C6887 C6886 1.372 . S
C6887 C6888 1.400 . S
C6887 C6892 1.490 . S
C6888 H6878 0.930 . S
C6888 C6887 1.400 . S
C6888 C6891 1.386 . S
H6889 C6905 0.930 . S
H6890 C6906 0.931 . S
C6891 H6879 0.929 . S
C6891 C6885 1.390 . S
C6891 C6888 1.386 . S
C6892 C6887 1.490 . S
C6892 C6894 1.395 . S
C6892 C6895 1.403 . S
H6893 C6899 0.930 . S
C6894 H6880 0.930 . S
C6894 C6892 1.395 . S
C6894 C6897 1.403 . S
C6895 C6892 1.403 . S
C6895 C6896 1.524 . S
C6895 C6899 1.400 . S
C6896 H6881 0.960 . S
C6896 H6882 0.960 . S
C6896 H6883 0.960 . S
C6896 C6895 1.524 . S
C6897 C6894 1.403 . S
C6897 C6898 1.392 . S
C6897 C6901 1.495 . S
C6898 C6897 1.392 . S
C6898 C6899 1.385 . S
C6898 C6900 1.478 . S
C6899 H6893 0.930 . S
C6899 C6895 1.400 . S
C6899 C6898 1.385 . S
C6900 C6898 1.478 . S
C6900 C6902 1.381 . S
C6900 C6906 1.383 . S
C6901 C6897 1.495 . S
C6901 H6907 0.959 . S
C6901 H6908 0.961 . S
C6901 H6909 0.960 . S
C6902 C6900 1.381 . S
C6902 C6903 1.394 . S
C6902 H6910 0.930 . S
C6903 C6902 1.394 . S
C6903 C6904 1.383 . S
C6903 H6911 0.929 . S
C6904 C6903 1.383 . S
C6904 C6905 1.377 . S
C6905 H6889 0.930 . S
C6905 C6904 1.377 . S
C6905 C6906 1.379 . S
C6906 H6890 0.931 . S
C6906 C6900 1.383 . S
C6906 C6905 1.379 . S
H6907 C6901 0.959 . S
H6908 C6901 0.961 . S
H6909 C6901 0.960 . S
H6910 C6902 0.930 . S
H6911 C6903 0.929 . S
C3465 C665 1.432 . S
C3484 C2168 1.353 . S
C3501 C381 2.162 . S
C3520 C2259 2.125 . S
C3537 C460 1.419 . S
C3556 C2336 1.420 1_565 S
C3592 C2434 1.576 . S
C3573 C585 1.771 . S
C3609 C108 1.616 . S
C3628 C2518 1.525 . S
C3664 C2590 0.927 . S
C3645 C196 0.916 . S
C3700 C2679 0.524 . S
C3681 C313 0.546 . S
C3717 C49 1.047 . S
C3736 C2756 1.033 . S
C3772 C2175 1.873 . S
C3753 C1457 1.942 . S
C3789 C1545 0.368 . S
C3808 C2266 0.470 . S
C3844 C2343 1.119 . S
C3825 C1721 1.173 . S
C3880 C2420 1.585 . S
C3861 C1113 1.610 . S
C3897 C1428 2.012 . S
C3916 C2504 1.898 . S
C3952 C2606 0.942 . S
C3933 C1516 1.041 . S
C3988 C2686 0.682 . S
C3969 C1692 0.599 . S
C4024 C2763 1.165 . S
C4005 C1085 1.265 . S
C4060 C2182 1.395 . S
C4041 C988 1.546 . S
C4077 C1817 2.041 . S
C4096 C2847 1.981 . S
C4132 C2935 2.028 . S
C4113 C2081 2.171 . S
C4168 C3008 0.574 . S
C4149 C1993 0.214 . S
C4185 C761 0.486 . S
C4204 C2770 0.554 . S
C4221 C821 1.387 . S
C4240 C2350 1.294 . S
C4257 C2053 2.427 . S
C4276 C3099 2.322 . S
C4312 C3176 0.563 . S
C4293 C1868 0.594 . S
C4348 C2179 1.351 1_565 S
C4329 C372 1.427 . S
C4384 C3194 2.099 . S
C4365 C645 2.156 . S
C4401 C577 1.421 . S
C4420 C2347 1.418 . S
C4437 C497 1.768 . S
C4456 C3094 1.615 . S
C4492 C2506 1.495 . S
C4473 C57 1.617 . S
C4509 C293 0.908 . S
C4528 C2938 0.923 . S
C4564 C2690 0.488 . S
C4545 C205 0.542 . S
C4600 C3271 1.027 . S
C4581 C145 1.050 . S
C4636 C2186 1.836 . S
C4617 C909 1.937 1_545 S
C4672 C3178 0.560 . S
C4653 C1956 0.368 . S
C4689 C724 1.172 . S
C4708 C2354 1.141 . S
C4725 C1780 1.614 . S
C4744 C3103 1.560 . S
C4761 C937 2.018 . S
C4780 C2515 1.906 . S
C4816 C2931 1.009 . S
C4797 C1985 1.037 . S
C4833 C753 0.592 . S
C4852 C2674 0.607 . S
C4869 C1809 1.256 . S
C4888 C3278 1.206 . S
C4905 C1173 1.544 . S
C4924 C2170 1.435 . S
C4941 C1105 2.035 . S
C4960 C2858 1.951 . S
C4977 C1633 2.167 . S
C4996 C2588 2.024 . S
C5013 C1553 0.237 . S
C5032 C3019 0.577 . S
C5068 C3262 0.602 . S
C5049 C1729 0.481 . S
C5085 C1340 1.390 . S
C5104 C2338 1.288 1_565 S
C5140 C2438 2.353 . S
C5121 C1604 2.421 . S
C5176 C2263 0.637 . S
C5157 C1252 0.575 . S
C5193 C489 1.426 . S
C5212 C3344 1.387 . S
C5248 C3183 2.116 . S
C5229 C557 2.159 . S
C5265 C636 1.427 . S
C5284 C3428 1.371 . S
C5301 C409 1.771 1_655 S
C5320 C3106 1.647 . S
C5337 C284 1.616 . S
C5356 C2854 1.492 . S
C5392 C2926 0.928 . S
C5373 C20 0.917 . S
C5428 C3015 0.509 . S
C5409 C137 0.549 . S
C5464 C3260 0.987 . S
C5445 C225 1.053 . S
C5500 C3351 1.878 . S
C5481 C1641 1.941 . S
C5517 C1193 0.372 . S
C5536 C3190 0.608 . S
C5572 C3435 1.133 . S
C5553 C1289 1.172 . S
C5608 C3092 1.586 . S
C5589 C1377 1.610 . S
C5644 C2840 1.870 . S
C5625 C1613 2.014 . S
C5661 C1164 1.040 . S
C5680 C2942 0.971 . S
C5716 C3022 0.688 . S
C5697 C1261 0.599 . S
C5733 C1349 1.265 . S
C5752 C3267 1.159 . S
C5788 C3358 1.450 . S
C5769 C1965 1.548 . S
C5805 C849 2.043 . S
C5824 C2511 1.948 . S
C5860 C2599 1.972 . S
C5841 C929 2.178 . S
C5896 C2672 0.525 . S
C5877 C1017 0.218 . S
C5932 C3274 0.466 . S
C5913 C1897 0.490 . S
C5949 C1789 1.390 . S
C5968 C3442 1.340 . S
C6004 C2427 2.355 . S
C5985 C900 2.416 . S
C6040 C2252 0.611 . S
C6021 C733 0.591 . S
C6057 C548 1.432 . S
C6076 C3355 1.380 . S
C6112 C2270 2.103 . S
C6093 C469 2.154 . S
C6129 C401 1.419 . S
C6148 C3439 1.358 . S
C6165 C673 1.768 . S
C6184 C2422 1.644 . S
C6201 C233 1.615 . S
C6220 C2842 1.490 1_556 S
C6256 C2602 0.893 . S
C6237 C117 0.901 . S
C6273 C29 0.535 . S
C6292 C3026 0.530 . S
C6309 C321 1.042 . S
C6328 C2767 0.912 . S
C6364 C3362 1.871 . S
C6345 C2044 1.940 . S
C6381 C997 0.367 . S
C6400 C2254 0.612 . S
C6436 C3446 1.169 . S
C6417 C1877 1.168 . S
C6453 C812 1.611 . S
C6472 C2431 1.576 . S
C6489 C2073 2.012 . S
C6508 C2851 1.853 . S
C6544 C2595 1.013 . S
C6525 C1025 1.037 . S
C6561 C1905 0.591 . S
C6580 C3010 0.739 . S
C6616 C2774 1.146 . S
C6597 C841 1.254 . S
C6652 C3346 1.448 . S
C6633 C1525 1.543 . S
C6688 C2522 1.979 1_655 S
C6669 C1369 2.038 . S
C6705 C1465 2.167 . S
C6724 C2924 1.971 . S
C6760 C2683 0.397 . S
C6741 C1201 0.215 . S
C6777 C1281 0.493 . S
C6796 C2758 0.516 . S
C6813 C1076 1.389 . S
C6832 C3430 1.336 . S
C6868 C3110 2.334 . S
C6849 C1437 2.420 1_565 S
C6904 C3187 0.690 . S
C6885 C1701 0.581 . S
