# Generated by pormake.
# Topology gar, (4,6)-cn, num edge types: 1
# Building blocks:
#     Node 0, Type 0, BuildingBlock: AZAVOO_clean_sbu_0, # of connection points: 4
#     Node 1, Type 0, BuildingBlock: AZAVOO_clean_sbu_0, # of connection points: 4
#     Node 2, Type 0, BuildingBlock: AZAVOO_clean_sbu_0, # of connection points: 4
#     Node 3, Type 0, BuildingBlock: AZAVOO_clean_sbu_0, # of connection points: 4
#     Node 4, Type 0, BuildingBlock: AZAVOO_clean_sbu_0, # of connection points: 4
#     Node 5, Type 0, BuildingBlock: AZAVOO_clean_sbu_0, # of connection points: 4
#     Node 6, Type 0, BuildingBlock: AZAVOO_clean_sbu_0, # of connection points: 4
#     Node 7, Type 0, BuildingBlock: AZAVOO_clean_sbu_0, # of connection points: 4
#     Node 8, Type 0, BuildingBlock: AZAVOO_clean_sbu_0, # of connection points: 4
#     Node 9, Type 0, BuildingBlock: AZAVOO_clean_sbu_0, # of connection points: 4
#     Node 10, Type 0, BuildingBlock: AZAVOO_clean_sbu_0, # of connection points: 4
#     Node 11, Type 0, BuildingBlock: AZAVOO_clean_sbu_0, # of connection points: 4
#     Node 12, Type 0, BuildingBlock: AZAVOO_clean_sbu_0, # of connection points: 4
#     Node 13, Type 0, BuildingBlock: AZAVOO_clean_sbu_0, # of connection points: 4
#     Node 14, Type 0, BuildingBlock: AZAVOO_clean_sbu_0, # of connection points: 4
#     Node 15, Type 0, BuildingBlock: AZAVOO_clean_sbu_0, # of connection points: 4
#     Node 16, Type 0, BuildingBlock: AZAVOO_clean_sbu_0, # of connection points: 4
#     Node 17, Type 0, BuildingBlock: AZAVOO_clean_sbu_0, # of connection points: 4
#     Node 18, Type 0, BuildingBlock: AZAVOO_clean_sbu_0, # of connection points: 4
#     Node 19, Type 0, BuildingBlock: AZAVOO_clean_sbu_0, # of connection points: 4
#     Node 20, Type 0, BuildingBlock: AZAVOO_clean_sbu_0, # of connection points: 4
#     Node 21, Type 0, BuildingBlock: AZAVOO_clean_sbu_0, # of connection points: 4
#     Node 22, Type 0, BuildingBlock: AZAVOO_clean_sbu_0, # of connection points: 4
#     Node 23, Type 0, BuildingBlock: AZAVOO_clean_sbu_0, # of connection points: 4
#     Node 24, Type 1, BuildingBlock: BETDAH_clean_sbu_0, # of connection points: 6
#     Node 25, Type 1, BuildingBlock: BETDAH_clean_sbu_0, # of connection points: 6
#     Node 26, Type 1, BuildingBlock: BETDAH_clean_sbu_0, # of connection points: 6
#     Node 27, Type 1, BuildingBlock: BETDAH_clean_sbu_0, # of connection points: 6
#     Node 28, Type 1, BuildingBlock: BETDAH_clean_sbu_0, # of connection points: 6
#     Node 29, Type 1, BuildingBlock: BETDAH_clean_sbu_0, # of connection points: 6
#     Node 30, Type 1, BuildingBlock: BETDAH_clean_sbu_0, # of connection points: 6
#     Node 31, Type 1, BuildingBlock: BETDAH_clean_sbu_0, # of connection points: 6
#     Node 32, Type 1, BuildingBlock: BETDAH_clean_sbu_0, # of connection points: 6
#     Node 33, Type 1, BuildingBlock: BETDAH_clean_sbu_0, # of connection points: 6
#     Node 34, Type 1, BuildingBlock: BETDAH_clean_sbu_0, # of connection points: 6
#     Node 35, Type 1, BuildingBlock: BETDAH_clean_sbu_0, # of connection points: 6
#     Node 36, Type 1, BuildingBlock: BETDAH_clean_sbu_0, # of connection points: 6
#     Node 37, Type 1, BuildingBlock: BETDAH_clean_sbu_0, # of connection points: 6
#     Node 38, Type 1, BuildingBlock: BETDAH_clean_sbu_0, # of connection points: 6
#     Node 39, Type 1, BuildingBlock: BETDAH_clean_sbu_0, # of connection points: 6
#     Edge 40, Type (0, 1), BuildingBlock: TEMPAE_clean_linker_10, # of connection points: 2
#     Edge 41, Type (0, 1), BuildingBlock: TEMPAE_clean_linker_10, # of connection points: 2
#     Edge 42, Type (0, 1), BuildingBlock: TEMPAE_clean_linker_10, # of connection points: 2
#     Edge 43, Type (0, 1), BuildingBlock: TEMPAE_clean_linker_10, # of connection points: 2
#     Edge 44, Type (0, 1), BuildingBlock: TEMPAE_clean_linker_10, # of connection points: 2
#     Edge 45, Type (0, 1), BuildingBlock: TEMPAE_clean_linker_10, # of connection points: 2
#     Edge 46, Type (0, 1), BuildingBlock: TEMPAE_clean_linker_10, # of connection points: 2
#     Edge 47, Type (0, 1), BuildingBlock: TEMPAE_clean_linker_10, # of connection points: 2
#     Edge 48, Type (0, 1), BuildingBlock: TEMPAE_clean_linker_10, # of connection points: 2
#     Edge 49, Type (0, 1), BuildingBlock: TEMPAE_clean_linker_10, # of connection points: 2
#     Edge 50, Type (0, 1), BuildingBlock: TEMPAE_clean_linker_10, # of connection points: 2
#     Edge 51, Type (0, 1), BuildingBlock: TEMPAE_clean_linker_10, # of connection points: 2
#     Edge 52, Type (0, 1), BuildingBlock: TEMPAE_clean_linker_10, # of connection points: 2
#     Edge 53, Type (0, 1), BuildingBlock: TEMPAE_clean_linker_10, # of connection points: 2
#     Edge 54, Type (0, 1), BuildingBlock: TEMPAE_clean_linker_10, # of connection points: 2
#     Edge 55, Type (0, 1), BuildingBlock: TEMPAE_clean_linker_10, # of connection points: 2
#     Edge 56, Type (0, 1), BuildingBlock: TEMPAE_clean_linker_10, # of connection points: 2
#     Edge 57, Type (0, 1), BuildingBlock: TEMPAE_clean_linker_10, # of connection points: 2
#     Edge 58, Type (0, 1), BuildingBlock: TEMPAE_clean_linker_10, # of connection points: 2
#     Edge 59, Type (0, 1), BuildingBlock: TEMPAE_clean_linker_10, # of connection points: 2
#     Edge 60, Type (0, 1), BuildingBlock: TEMPAE_clean_linker_10, # of connection points: 2
#     Edge 61, Type (0, 1), BuildingBlock: TEMPAE_clean_linker_10, # of connection points: 2
#     Edge 62, Type (0, 1), BuildingBlock: TEMPAE_clean_linker_10, # of connection points: 2
#     Edge 63, Type (0, 1), BuildingBlock: TEMPAE_clean_linker_10, # of connection points: 2
#     Edge 64, Type (0, 1), BuildingBlock: TEMPAE_clean_linker_10, # of connection points: 2
#     Edge 65, Type (0, 1), BuildingBlock: TEMPAE_clean_linker_10, # of connection points: 2
#     Edge 66, Type (0, 1), BuildingBlock: TEMPAE_clean_linker_10, # of connection points: 2
#     Edge 67, Type (0, 1), BuildingBlock: TEMPAE_clean_linker_10, # of connection points: 2
#     Edge 68, Type (0, 1), BuildingBlock: TEMPAE_clean_linker_10, # of connection points: 2
#     Edge 69, Type (0, 1), BuildingBlock: TEMPAE_clean_linker_10, # of connection points: 2
#     Edge 70, Type (0, 1), BuildingBlock: TEMPAE_clean_linker_10, # of connection points: 2
#     Edge 71, Type (0, 1), BuildingBlock: TEMPAE_clean_linker_10, # of connection points: 2
#     Edge 72, Type (0, 1), BuildingBlock: TEMPAE_clean_linker_10, # of connection points: 2
#     Edge 73, Type (0, 1), BuildingBlock: TEMPAE_clean_linker_10, # of connection points: 2
#     Edge 74, Type (0, 1), BuildingBlock: TEMPAE_clean_linker_10, # of connection points: 2
#     Edge 75, Type (0, 1), BuildingBlock: TEMPAE_clean_linker_10, # of connection points: 2
#     Edge 76, Type (0, 1), BuildingBlock: TEMPAE_clean_linker_10, # of connection points: 2
#     Edge 77, Type (0, 1), BuildingBlock: TEMPAE_clean_linker_10, # of connection points: 2
#     Edge 78, Type (0, 1), BuildingBlock: TEMPAE_clean_linker_10, # of connection points: 2
#     Edge 79, Type (0, 1), BuildingBlock: TEMPAE_clean_linker_10, # of connection points: 2
#     Edge 80, Type (0, 1), BuildingBlock: TEMPAE_clean_linker_10, # of connection points: 2
#     Edge 81, Type (0, 1), BuildingBlock: TEMPAE_clean_linker_10, # of connection points: 2
#     Edge 82, Type (0, 1), BuildingBlock: TEMPAE_clean_linker_10, # of connection points: 2
#     Edge 83, Type (0, 1), BuildingBlock: TEMPAE_clean_linker_10, # of connection points: 2
#     Edge 84, Type (0, 1), BuildingBlock: TEMPAE_clean_linker_10, # of connection points: 2
#     Edge 85, Type (0, 1), BuildingBlock: TEMPAE_clean_linker_10, # of connection points: 2
#     Edge 86, Type (0, 1), BuildingBlock: TEMPAE_clean_linker_10, # of connection points: 2
#     Edge 87, Type (0, 1), BuildingBlock: TEMPAE_clean_linker_10, # of connection points: 2
#     Edge 88, Type (0, 1), BuildingBlock: TEMPAE_clean_linker_10, # of connection points: 2
#     Edge 89, Type (0, 1), BuildingBlock: TEMPAE_clean_linker_10, # of connection points: 2
#     Edge 90, Type (0, 1), BuildingBlock: TEMPAE_clean_linker_10, # of connection points: 2
#     Edge 91, Type (0, 1), BuildingBlock: TEMPAE_clean_linker_10, # of connection points: 2
#     Edge 92, Type (0, 1), BuildingBlock: TEMPAE_clean_linker_10, # of connection points: 2
#     Edge 93, Type (0, 1), BuildingBlock: TEMPAE_clean_linker_10, # of connection points: 2
#     Edge 94, Type (0, 1), BuildingBlock: TEMPAE_clean_linker_10, # of connection points: 2
#     Edge 95, Type (0, 1), BuildingBlock: TEMPAE_clean_linker_10, # of connection points: 2
#     Edge 96, Type (0, 1), BuildingBlock: TEMPAE_clean_linker_10, # of connection points: 2
#     Edge 97, Type (0, 1), BuildingBlock: TEMPAE_clean_linker_10, # of connection points: 2
#     Edge 98, Type (0, 1), BuildingBlock: TEMPAE_clean_linker_10, # of connection points: 2
#     Edge 99, Type (0, 1), BuildingBlock: TEMPAE_clean_linker_10, # of connection points: 2
#     Edge 100, Type (0, 1), BuildingBlock: TEMPAE_clean_linker_10, # of connection points: 2
#     Edge 101, Type (0, 1), BuildingBlock: TEMPAE_clean_linker_10, # of connection points: 2
#     Edge 102, Type (0, 1), BuildingBlock: TEMPAE_clean_linker_10, # of connection points: 2
#     Edge 103, Type (0, 1), BuildingBlock: TEMPAE_clean_linker_10, # of connection points: 2
#     Edge 104, Type (0, 1), BuildingBlock: TEMPAE_clean_linker_10, # of connection points: 2
#     Edge 105, Type (0, 1), BuildingBlock: TEMPAE_clean_linker_10, # of connection points: 2
#     Edge 106, Type (0, 1), BuildingBlock: TEMPAE_clean_linker_10, # of connection points: 2
#     Edge 107, Type (0, 1), BuildingBlock: TEMPAE_clean_linker_10, # of connection points: 2
#     Edge 108, Type (0, 1), BuildingBlock: TEMPAE_clean_linker_10, # of connection points: 2
#     Edge 109, Type (0, 1), BuildingBlock: TEMPAE_clean_linker_10, # of connection points: 2
#     Edge 110, Type (0, 1), BuildingBlock: TEMPAE_clean_linker_10, # of connection points: 2
#     Edge 111, Type (0, 1), BuildingBlock: TEMPAE_clean_linker_10, # of connection points: 2
#     Edge 112, Type (0, 1), BuildingBlock: TEMPAE_clean_linker_10, # of connection points: 2
#     Edge 113, Type (0, 1), BuildingBlock: TEMPAE_clean_linker_10, # of connection points: 2
#     Edge 114, Type (0, 1), BuildingBlock: TEMPAE_clean_linker_10, # of connection points: 2
#     Edge 115, Type (0, 1), BuildingBlock: TEMPAE_clean_linker_10, # of connection points: 2
#     Edge 116, Type (0, 1), BuildingBlock: TEMPAE_clean_linker_10, # of connection points: 2
#     Edge 117, Type (0, 1), BuildingBlock: TEMPAE_clean_linker_10, # of connection points: 2
#     Edge 118, Type (0, 1), BuildingBlock: TEMPAE_clean_linker_10, # of connection points: 2
#     Edge 119, Type (0, 1), BuildingBlock: TEMPAE_clean_linker_10, # of connection points: 2
#     Edge 120, Type (0, 1), BuildingBlock: TEMPAE_clean_linker_10, # of connection points: 2
#     Edge 121, Type (0, 1), BuildingBlock: TEMPAE_clean_linker_10, # of connection points: 2
#     Edge 122, Type (0, 1), BuildingBlock: TEMPAE_clean_linker_10, # of connection points: 2
#     Edge 123, Type (0, 1), BuildingBlock: TEMPAE_clean_linker_10, # of connection points: 2
#     Edge 124, Type (0, 1), BuildingBlock: TEMPAE_clean_linker_10, # of connection points: 2
#     Edge 125, Type (0, 1), BuildingBlock: TEMPAE_clean_linker_10, # of connection points: 2
#     Edge 126, Type (0, 1), BuildingBlock: TEMPAE_clean_linker_10, # of connection points: 2
#     Edge 127, Type (0, 1), BuildingBlock: TEMPAE_clean_linker_10, # of connection points: 2
#     Edge 128, Type (0, 1), BuildingBlock: TEMPAE_clean_linker_10, # of connection points: 2
#     Edge 129, Type (0, 1), BuildingBlock: TEMPAE_clean_linker_10, # of connection points: 2
#     Edge 130, Type (0, 1), BuildingBlock: TEMPAE_clean_linker_10, # of connection points: 2
#     Edge 131, Type (0, 1), BuildingBlock: TEMPAE_clean_linker_10, # of connection points: 2
#     Edge 132, Type (0, 1), BuildingBlock: TEMPAE_clean_linker_10, # of connection points: 2
#     Edge 133, Type (0, 1), BuildingBlock: TEMPAE_clean_linker_10, # of connection points: 2
#     Edge 134, Type (0, 1), BuildingBlock: TEMPAE_clean_linker_10, # of connection points: 2
#     Edge 135, Type (0, 1), BuildingBlock: TEMPAE_clean_linker_10, # of connection points: 2
# Relax obj value: 0.223
# Max RMSD: 0.305
# Mean RMSD: 0.197
data_MOF--net-gar--node1-AZAVOO_clean_sbu_0--node2-BETDAH_clean_sbu_0--edge1-TEMPAE_clean_linker_10
_symmetry_space_group_name_H-M    P1
_symmetry_Int_Tables_number       1
_symmetry_cell_setting            triclinic
loop_
_symmetry_equiv_pos_as_xyz
'x, y, z'
_cell_length_a     64.007899
_cell_length_b     56.777763
_cell_length_c     57.922883
_cell_angle_alpha  102.12792
_cell_angle_beta   95.134376
_cell_angle_gamma 104.7984
loop_
_atom_site_label
_atom_site_type_symbol
_atom_site_fract_x
_atom_site_fract_y
_atom_site_fract_z
_atom_type_partial_charge
Mg0 Mg 0.10161 0.31302 0.37061 0.0
O1 O 0.0949 0.3474 0.3958 0.0
O2 O 0.05928 0.336 0.40044 0.0
Mg3 Mg 0.04205 0.29461 0.38525 0.0
C4 C 0.07796 0.35237 0.40372 0.0
C5 C 0.13718 0.32173 0.34739 0.0
O6 O 0.11958 0.30518 0.33444 0.0
O7 O 0.10917 0.29531 0.40226 0.0
O8 O 0.07602 0.29438 0.39198 0.0
O9 O 0.08487 0.32323 0.34056 0.0
O10 O 0.06702 0.29734 0.36068 0.0
C11 C 0.08932 0.28815 0.40507 0.0
C12 C 0.06664 0.3098 0.34461 0.0
O13 O 0.13673 0.33124 0.36923 0.0
Mg14 Mg 0.99121 0.76004 0.66256 0.0
O15 O 0.99234 0.72438 0.63839 0.0
O16 O 0.96431 0.71123 0.60879 0.0
Mg17 Mg 0.94404 0.73917 0.61677 0.0
C18 C 0.9817 0.70881 0.61938 0.0
C19 C 0.02882 0.74956 0.68907 0.0
O20 O 0.01278 0.7296 0.68852 0.0
O21 O 1.00204 0.78095 0.63528 0.0
O22 O 0.97135 0.77059 0.60894 0.0
O23 O 0.97262 0.73854 0.6844 0.0
O24 O 0.95782 0.75171 0.65524 0.0
C25 C 0.99132 0.78298 0.6166 0.0
C26 C 0.95543 0.74109 0.67286 0.0
O27 O 0.02536 0.76597 0.67862 0.0
Mg28 Mg 0.59906 0.81531 0.86647 0.0
O29 O 0.60786 0.85603 0.88972 0.0
O30 O 0.57375 0.84257 0.89359 0.0
Mg31 Mg 0.54293 0.81245 0.88467 0.0
C32 C 0.59138 0.85989 0.89875 0.0
C33 C 0.64376 0.83586 0.85624 0.0
O34 O 0.63327 0.85177 0.85145 0.0
O35 O 0.59763 0.79879 0.89895 0.0
O36 O 0.5627 0.79368 0.90557 0.0
O37 O 0.58823 0.82763 0.83432 0.0
O38 O 0.56641 0.81357 0.85907 0.0
C39 C 0.5818 0.7911 0.91001 0.0
C40 C 0.56913 0.82307 0.84097 0.0
O41 O 0.63434 0.81857 0.86564 0.0
Mg42 Mg 0.50427 0.27738 0.17261 0.0
O43 O 0.51212 0.24138 0.15345 0.0
O44 O 0.48192 0.22189 0.12619 0.0
Mg45 Mg 0.45428 0.24025 0.1322 0.0
C46 C 0.50138 0.22377 0.13541 0.0
C47 C 0.55793 0.30144 0.19108 0.0
O48 O 0.57414 0.32214 0.19575 0.0
O49 O 0.50596 0.28966 0.13879 0.0
O50 O 0.47323 0.2716 0.11609 0.0
O51 O 0.492 0.26211 0.20292 0.0
O52 O 0.47251 0.25753 0.16815 0.0
C53 C 0.49252 0.28656 0.12023 0.0
C54 C 0.4731 0.25429 0.18943 0.0
O55 O 0.53884 0.30246 0.18468 0.0
Mg56 Mg 0.0891 0.82304 0.13458 0.0
O57 O 0.08212 0.78621 0.10538 0.0
O58 O 0.04791 0.77753 0.08656 0.0
Mg59 Mg 0.03214 0.80809 0.10203 0.0
C60 C 0.06603 0.77228 0.08961 0.0
C61 C 0.13055 0.817 0.16414 0.0
O62 O 0.11487 0.81387 0.17729 0.0
O63 O 0.09235 0.84887 0.10643 0.0
O64 O 0.05676 0.83943 0.09172 0.0
O65 O 0.07204 0.80175 0.1603 0.0
O66 O 0.05471 0.81662 0.13509 0.0
C67 C 0.07654 0.85235 0.09324 0.0
C68 C 0.05386 0.80431 0.15126 0.0
O69 O 0.1263 0.82249 0.14414 0.0
Mg70 Mg 0.50754 0.75828 0.40032 0.0
O71 O 0.51189 0.79405 0.42899 0.0
O72 O 0.48364 0.78872 0.44925 0.0
Mg73 Mg 0.4599 0.74969 0.43077 0.0
C74 C 0.50173 0.80212 0.44547 0.0
C75 C 0.55012 0.76187 0.37782 0.0
O76 O 0.53551 0.74439 0.3615 0.0
O77 O 0.51498 0.73604 0.42789 0.0
O78 O 0.48341 0.72742 0.44231 0.0
O79 O 0.49094 0.77496 0.37493 0.0
O80 O 0.47285 0.7516 0.39656 0.0
C81 C 0.50256 0.72485 0.44073 0.0
C82 C 0.47251 0.76565 0.38167 0.0
O83 O 0.544 0.77165 0.39692 0.0
Mg84 Mg 0.59148 0.32619 0.63631 0.0
O85 O 0.58529 0.28977 0.60718 0.0
O86 O 0.55233 0.28089 0.58563 0.0
Mg87 Mg 0.53588 0.31093 0.60104 0.0
C88 C 0.57034 0.27581 0.59018 0.0
C89 C 0.63281 0.31952 0.6664 0.0
O90 O 0.6175 0.31719 0.68011 0.0
O91 O 0.59583 0.35238 0.60828 0.0
O92 O 0.56097 0.3413 0.59044 0.0
O93 O 0.57249 0.30399 0.6605 0.0
O94 O 0.55722 0.32078 0.63544 0.0
C95 C 0.58073 0.35472 0.5932 0.0
C96 C 0.55501 0.30805 0.65127 0.0
O97 O 0.62829 0.3246 0.64626 0.0
Mg98 Mg 0.00943 0.25734 0.89863 0.0
O99 O 0.01343 0.29291 0.92782 0.0
O100 O 0.98387 0.28712 0.94596 0.0
Mg101 Mg 0.96073 0.24788 0.92751 0.0
C102 C 1.00239 0.30079 0.94347 0.0
C103 C 0.05345 0.2874 0.88552 0.0
O104 O 0.03989 0.29839 0.87685 0.0
O105 O 0.01629 0.23509 0.9261 0.0
O106 O 0.98454 0.22648 0.94013 0.0
O107 O 0.99295 0.27391 0.87288 0.0
O108 O 0.97479 0.2502 0.89417 0.0
C109 C 1.00375 0.22399 0.93889 0.0
C110 C 0.97445 0.26415 0.87924 0.0
O111 O 0.04608 0.27011 0.89601 0.0
Mg112 Mg 0.45771 0.06433 0.2935 0.0
O113 O 0.43609 0.02344 0.27957 0.0
O114 O 0.41679 0.01717 0.30948 0.0
Mg115 Mg 0.42533 0.05123 0.34041 0.0
C116 C 0.42166 0.00977 0.28881 0.0
C117 C 0.46427 0.05583 0.23744 0.0
O118 O 0.4678 0.06628 0.21946 0.0
O119 O 0.42781 0.07539 0.28596 0.0
O120 O 0.40746 0.06753 0.3143 0.0
O121 O 0.48363 0.05079 0.30933 0.0
O122 O 0.45662 0.06051 0.32718 0.0
C123 C 0.4104 0.07454 0.295 0.0
C124 C 0.47271 0.05081 0.32716 0.0
O125 O 0.46437 0.06982 0.25752 0.0
Mg126 Mg 0.28416 0.18094 0.4899 0.0
O127 O 0.2868 0.20808 0.52666 0.0
O128 O 0.32023 0.23493 0.53556 0.0
Mg129 Mg 0.34024 0.22367 0.50592 0.0
C130 C 0.30117 0.22665 0.54077 0.0
C131 C 0.23926 0.15071 0.50042 0.0
O132 O 0.25385 0.1435 0.51243 0.0
O133 O 0.28418 0.21073 0.46676 0.0
O134 O 0.31964 0.23174 0.47538 0.0
O135 O 0.29688 0.15447 0.5079 0.0
O136 O 0.31845 0.18511 0.49635 0.0
C137 C 0.30085 0.22686 0.4629 0.0
C138 C 0.31649 0.16683 0.50657 0.0
O139 O 0.24602 0.16706 0.48856 0.0
Mg140 Mg 0.16016 0.00931 0.77571 0.0
O141 O 0.18513 0.05057 0.77968 0.0
O142 O 0.21091 0.05748 0.81046 0.0
Mg143 Mg 0.19921 0.02481 0.83067 0.0
C144 C 0.20299 0.06469 0.79293 0.0
C145 C 0.13472 0.99721 0.71524 0.0
O146 O 0.13117 0.97303 0.7135 0.0
O147 O 0.18578 0.98112 0.76801 0.0
O148 O 0.20503 0.98977 0.80433 0.0
O149 O 0.13618 0.02388 0.80077 0.0
O150 O 0.163 0.01317 0.81613 0.0
C151 C 0.19969 0.97604 0.78289 0.0
C152 C 0.14608 0.02106 0.81991 0.0
O153 O 0.14523 0.01258 0.73512 0.0
Mg154 Mg 0.31475 0.94215 0.02187 0.0
O155 O 0.32191 0.91937 0.98645 0.0
O156 O 0.35562 0.91368 0.99003 0.0
Mg157 Mg 0.37071 0.92618 0.02936 0.0
C158 C 0.3373 0.91148 0.97758 0.0
C159 C 0.27615 0.95804 1.00236 0.0
O160 O 0.29219 0.97655 0.99976 0.0
O161 O 0.3024 0.90649 0.03613 0.0
O162 O 0.33603 0.91694 0.03187 0.0
O163 O 0.3371 0.97759 0.01624 0.0
O164 O 0.34865 0.95174 0.03454 0.0
C165 C 0.32106 0.90299 0.03948 0.0
C166 C 0.35303 0.97182 0.02698 0.0
O167 O 0.28043 0.93894 0.00728 0.0
Mg168 Mg 0.31729 0.39852 0.04398 0.0
O169 O 0.31296 0.36875 0.00866 0.0
O170 O 0.3407 0.35186 0.01052 0.0
Mg171 Mg 0.36341 0.37161 0.04656 0.0
C172 C 0.32334 0.35369 0.99919 0.0
C173 C 0.2806 0.42268 0.03461 0.0
O174 O 0.29864 0.44135 0.04072 0.0
O175 O 0.30763 0.37001 0.06797 0.0
O176 O 0.33888 0.35945 0.07168 0.0
O177 O 0.33782 0.42695 0.02702 0.0
O178 O 0.35173 0.40511 0.04826 0.0
C179 C 0.32018 0.35938 0.07785 0.0
C180 C 0.35476 0.42125 0.03544 0.0
O181 O 0.28197 0.40064 0.03443 0.0
Mg182 Mg 0.77086 0.11945 0.01921 0.0
O183 O 0.78012 0.14699 0.05572 0.0
O184 O 0.81143 0.17494 0.05446 0.0
Mg185 Mg 0.82576 0.16154 0.0209 0.0
C186 C 0.7951 0.16741 0.06487 0.0
C187 C 0.74137 0.08777 0.97278 0.0
O188 O 0.73553 0.07564 0.95022 0.0
O189 O 0.76464 0.15025 1.0024 0.0
O190 O 0.79876 0.17008 0.99852 0.0
O191 O 0.78927 0.09264 0.03029 0.0
O192 O 0.80406 0.12384 0.01551 0.0
C193 C 0.77805 0.16589 0.99399 0.0
C194 C 0.80623 0.10541 0.02363 0.0
O195 O 0.76126 0.09371 0.98214 0.0
Mg196 Mg 0.15011 0.52037 0.23712 0.0
O197 O 0.17898 0.55579 0.25165 0.0
O198 O 0.19133 0.56316 0.29101 0.0
Mg199 Mg 0.17283 0.52955 0.30412 0.0
C200 C 0.19165 0.56912 0.27087 0.0
C201 C 0.12892 0.52429 0.19427 0.0
O202 O 0.11495 0.51259 0.20629 0.0
O203 O 0.17362 0.49534 0.23059 0.0
O204 O 0.17188 0.51042 0.26717 0.0
O205 O 0.12922 0.54326 0.25181 0.0
O206 O 0.1453 0.52346 0.27407 0.0
C207 C 0.1808 0.49829 0.25237 0.0
C208 C 0.13414 0.53914 0.27236 0.0
O209 O 0.14914 0.52768 0.2006 0.0
Mg210 Mg 0.81917 0.89998 0.54447 0.0
O211 O 0.81354 0.86975 0.50914 0.0
O212 O 0.84067 0.85182 0.5102 0.0
Mg213 Mg 0.86416 0.87087 0.54572 0.0
C214 C 0.82333 0.85418 0.49934 0.0
C215 C 0.7827 0.92303 0.52885 0.0
O216 O 0.80095 0.9393 0.52738 0.0
O217 O 0.80939 0.87195 0.56907 0.0
O218 O 0.83976 0.85949 0.57104 0.0
O219 O 0.84042 0.92745 0.52687 0.0
O220 O 0.85344 0.90501 0.5479 0.0
C221 C 0.82158 0.86038 0.57819 0.0
C222 C 0.85708 0.92113 0.53511 0.0
O223 O 0.78397 0.90345 0.53575 0.0
Mg224 Mg 0.93854 0.06957 0.26342 0.0
O225 O 0.91257 0.02752 0.25865 0.0
O226 O 0.89558 0.03048 0.29088 0.0
Mg227 Mg 0.90855 0.07091 0.31592 0.0
C228 C 0.89891 0.01732 0.27147 0.0
C229 C 0.96616 0.05922 0.21433 0.0
O230 O 0.98003 0.05646 0.231 0.0
O231 O 0.91288 0.09664 0.25984 0.0
O232 O 0.89663 0.09614 0.2923 0.0
O233 O 0.96462 0.05772 0.28667 0.0
O234 O 0.94093 0.07368 0.30324 0.0
C235 C 0.89966 0.10445 0.27353 0.0
C236 C 0.95703 0.06424 0.30618 0.0
O237 O 0.94825 0.06367 0.2208 0.0
Mg238 Mg 0.27241 0.61842 0.51967 0.0
O239 O 0.28046 0.64649 0.55624 0.0
O240 O 0.31162 0.67488 0.55533 0.0
Mg241 Mg 0.32584 0.66317 0.52129 0.0
C242 C 0.29541 0.66689 0.56574 0.0
C243 C 0.24523 0.58483 0.47288 0.0
O244 O 0.23999 0.57235 0.4504 0.0
O245 O 0.26411 0.64765 0.5017 0.0
O246 O 0.29776 0.66993 0.49916 0.0
O247 O 0.29292 0.59397 0.53187 0.0
O248 O 0.30533 0.625 0.5159 0.0
C249 C 0.277 0.66424 0.49377 0.0
C250 C 0.30885 0.60702 0.52386 0.0
O251 O 0.26503 0.59232 0.48263 0.0
Mg252 Mg 0.43906 0.56962 0.76385 0.0
O253 O 0.4125 0.5283 0.75962 0.0
O254 O 0.39617 0.53278 0.7922 0.0
Mg255 Mg 0.411 0.57278 0.81762 0.0
C256 C 0.39881 0.51892 0.77279 0.0
C257 C 0.46693 0.56038 0.715 0.0
O258 O 0.48179 0.56061 0.73231 0.0
O259 O 0.41345 0.59704 0.76006 0.0
O260 O 0.40003 0.59825 0.79431 0.0
O261 O 0.46384 0.55522 0.78648 0.0
O262 O 0.44264 0.57497 0.8038 0.0
C263 C 0.40166 0.60595 0.77508 0.0
C264 C 0.45737 0.56353 0.80627 0.0
O265 O 0.44824 0.56268 0.721 0.0
Mg266 Mg 0.65332 0.01356 0.73881 0.0
O267 O 0.66824 0.05629 0.74339 0.0
O268 O 0.68233 0.07629 0.78132 0.0
Mg269 Mg 0.69375 0.04467 0.79109 0.0
C270 C 0.67595 0.07643 0.75986 0.0
C271 C 0.63047 0.02963 0.70169 0.0
O272 O 0.62697 0.04198 0.72212 0.0
O273 O 0.68401 1.00441 0.7272 0.0
O274 O 0.70012 0.03923 0.75293 0.0
O275 O 0.62815 0.02226 0.75923 0.0
O276 O 0.65984 0.02024 0.77656 0.0
C277 C 0.70116 0.0184 0.74101 0.0
C278 C 0.64222 0.02725 0.77828 0.0
O279 O 0.64031 0.01282 0.70151 0.0
Mg280 Mg 0.78373 0.6778 0.99226 0.0
O281 O 0.78783 0.70612 0.02808 0.0
O282 O 0.82122 0.73289 0.03551 0.0
Mg283 Mg 0.83969 0.72023 0.00477 0.0
C284 C 0.80244 0.72489 0.04146 0.0
C285 C 0.73782 0.64222 0.9933 0.0
O286 O 0.75055 0.62728 0.99174 0.0
O287 O 0.78224 0.70636 0.96848 0.0
O288 O 0.81785 0.7271 0.97482 0.0
O289 O 0.7979 0.65346 0.01204 0.0
O290 O 0.8177 0.68171 0.99605 0.0
C291 C 0.79856 0.72204 0.96353 0.0
C292 C 0.8169 0.66487 0.00787 0.0
O293 O 0.74621 0.66516 0.99325 0.0
Mg294 Mg 0.95228 0.55885 0.79157 0.0
O295 O 0.9279 0.51973 0.78022 0.0
O296 O 0.9147 0.51161 0.81323 0.0
Mg297 Mg 0.9263 0.54697 0.84301 0.0
C298 C 0.91636 0.50512 0.79116 0.0
C299 C 0.95134 0.54656 0.7338 0.0
O300 O 0.94799 0.55334 0.71378 0.0
O301 O 0.92513 0.57605 0.79168 0.0
O302 O 0.907 0.56597 0.82103 0.0
O303 O 0.97769 0.54095 0.80178 0.0
O304 O 0.95623 0.5549 0.82598 0.0
C305 C 0.90933 0.57595 0.80334 0.0
C306 C 0.9704 0.54255 0.82208 0.0
O307 O 0.95036 0.56115 0.75317 0.0
Mg308 Mg 0.8226 0.45341 0.51475 0.0
O309 O 0.8188 0.41963 0.48304 0.0
O310 O 0.84906 0.40744 0.48897 0.0
Mg311 Mg 0.87215 0.43296 0.52171 0.0
C312 C 0.83078 0.4052 0.47669 0.0
C313 C 0.7836 0.46284 0.52925 0.0
O314 O 0.79929 0.46999 0.54765 0.0
O315 O 0.81561 0.42816 0.54046 0.0
O316 O 0.84796 0.42015 0.54558 0.0
O317 O 0.8396 0.47926 0.49352 0.0
O318 O 0.85534 0.46091 0.51755 0.0
C319 C 0.82877 0.41866 0.55057 0.0
C320 C 0.85686 0.47416 0.5021 0.0
O321 O 0.78748 0.45285 0.50894 0.0
Mg322 Mg 0.6595 0.50742 0.27462 0.0
O323 O 0.68465 0.54871 0.27724 0.0
O324 O 0.70935 0.55714 0.30939 0.0
Mg325 Mg 0.69936 0.5241 0.32914 0.0
C326 C 0.70187 0.56366 0.29117 0.0
C327 C 0.62966 0.51555 0.22683 0.0
O328 O 0.621 0.52581 0.24465 0.0
O329 O 0.68439 0.47889 0.26784 0.0
O330 O 0.70707 0.49032 0.30236 0.0
O331 O 0.63588 0.52257 0.30005 0.0
O332 O 0.66288 0.51191 0.31511 0.0
C333 C 0.7002 0.4755 0.2815 0.0
C334 C 0.6461 0.52001 0.31914 0.0
O335 O 0.64529 0.50604 0.23227 0.0
Ho336 Ho 0.02971 0.02603 0.99782 0.0
Ho337 Ho 0.07194 0.05797 0.02984 0.0
C338 C 0.04447 0.08691 0.00422 0.0
C339 C 0.98836 0.00839 0.98211 0.0
C340 C 0.97025 0.0197 0.98581 0.0
C341 C 0.97142 0.038 0.0068 0.0
C342 C 0.95469 0.04959 0.00972 0.0
C343 C 0.93677 0.04334 0.99157 0.0
C344 C 0.93579 0.0255 0.97039 0.0
C345 C 0.95246 0.01374 0.96753 0.0
C346 C 0.06258 0.02771 0.96898 0.0
C347 C 0.05813 0.99695 0.02323 0.0
C348 C 0.11289 0.076 0.04627 0.0
C349 C 0.12985 0.06288 0.04523 0.0
C350 C 0.12957 0.04457 0.02464 0.0
C351 C 0.14336 0.02922 0.02492 0.0
C352 C 0.15742 0.03157 0.04588 0.0
C353 C 0.15764 0.04991 0.06648 0.0
C354 C 0.14397 0.06549 0.06612 0.0
C355 C 0.03979 0.05712 0.05915 0.0
O356 O 0.02862 0.06562 0.99801 0.0
O357 O 0.06372 0.08876 0.01574 0.0
O358 O 1.00251 0.01926 0.97003 0.0
O359 O 0.99773 1.00318 1.00072 0.0
O360 O 0.04228 0.01491 0.96249 0.0
O361 O 0.06442 0.03799 0.99135 0.0
O362 O 0.07353 0.01865 0.02971 0.0
O363 O 0.03881 0.99492 0.0114 0.0
O364 O 0.09822 0.06811 0.05922 0.0
O365 O 0.10432 0.07896 0.02603 0.0
O366 O 0.06002 0.07021 0.06463 0.0
O367 O 0.03695 0.04617 0.03671 0.0
H368 H 0.98526 0.04333 0.02091 0.0
H369 H 0.95562 0.06327 0.02621 0.0
H370 H 0.92197 0.02036 0.95629 0.0
H371 H 0.95149 1.00003 0.95104 0.0
H372 H 0.11836 0.0417 0.00847 0.0
H373 H 0.1431 0.01563 0.00859 0.0
H374 H 0.16814 0.052 0.08295 0.0
H375 H 0.1439 0.07902 0.08236 0.0
Ho376 Ho 0.31097 0.78063 0.24844 0.0
Ho377 Ho 0.29568 0.80032 0.2904 0.0
C378 C 0.32612 0.84018 0.27024 0.0
C379 C 0.32641 0.77289 0.20886 0.0
C380 C 0.33597 0.7903 0.19486 0.0
C381 C 0.32824 0.81114 0.19404 0.0
C382 C 0.33711 0.82752 0.18043 0.0
C383 C 0.35365 0.82308 0.16727 0.0
C384 C 0.3623 0.80311 0.16922 0.0
C385 C 0.35355 0.78683 0.18311 0.0
C386 C 0.33467 0.77654 0.28814 0.0
C387 C 0.28012 0.74056 0.26701 0.0
C388 C 0.28203 0.80636 0.33129 0.0
C389 C 0.27283 0.78795 0.3448 0.0
C390 C 0.28027 0.7666 0.34408 0.0
C391 C 0.27119 0.74897 0.35658 0.0
C392 C 0.25459 0.75243 0.37014 0.0
C393 C 0.24673 0.77341 0.37023 0.0
C394 C 0.25574 0.79099 0.35759 0.0
C395 C 0.27187 0.80465 0.25083 0.0
O396 O 0.32057 0.82201 0.25064 0.0
O397 O 0.32051 0.83587 0.29057 0.0
O398 O 0.33788 0.77633 0.22961 0.0
O399 O 0.30555 0.76933 0.20988 0.0
O400 O 0.32709 0.75895 0.26883 0.0
O401 O 0.3285 0.79561 0.28597 0.0
O402 O 0.28488 0.75857 0.28674 0.0
O403 O 0.28638 0.74505 0.24709 0.0
O404 O 0.26994 0.80464 0.31136 0.0
O405 O 0.30263 0.80963 0.329 0.0
O406 O 0.27905 0.82202 0.27045 0.0
O407 O 0.27803 0.78547 0.25286 0.0
H408 H 0.31482 0.81429 0.20322 0.0
H409 H 0.32986 0.84247 0.17872 0.0
H410 H 0.37493 0.79935 0.15896 0.0
H411 H 0.35999 0.77112 0.18408 0.0
H412 H 0.2933 0.76367 0.33412 0.0
H413 H 0.27781 0.73319 0.35643 0.0
H414 H 0.23387 0.77644 0.38045 0.0
H415 H 0.24953 0.8071 0.35798 0.0
Ho416 Ho 0.57259 0.04401 0.51588 0.0
Ho417 Ho 0.52242 0.03932 0.51691 0.0
C418 C 0.53692 0.98888 0.5096 0.0
C419 C 0.61201 0.04012 0.52241 0.0
C420 C 0.62379 0.0205 0.51835 0.0
C421 C 0.62253 1.00319 0.53273 0.0
C422 C 0.63574 0.98683 0.53051 0.0
C423 C 0.65051 0.98733 0.51389 0.0
C424 C 0.65099 1.0038 0.49876 0.0
C425 C 0.63787 0.02026 0.50106 0.0
C426 C 0.54812 0.03852 0.4744 0.0
C427 C 0.55819 0.09463 0.52405 0.0
C428 C 0.48283 0.04248 0.50954 0.0
C429 C 0.47023 0.06125 0.51375 0.0
C430 C 0.45827 0.06517 0.49411 0.0
C431 C 0.44472 0.08104 0.49739 0.0
C432 C 0.44272 0.09355 0.52047 0.0
C433 C 0.45504 0.08997 0.54019 0.0
C434 C 0.46862 0.074 0.53688 0.0
C435 C 0.54706 0.04451 0.55827 0.0
O436 O 0.55751 1.00313 0.51593 0.0
O437 O 0.52049 0.9985 0.50563 0.0
O438 O 0.60373 0.04568 0.50345 0.0
O439 O 0.59928 0.03989 0.53893 0.0
O440 O 0.5684 0.05187 0.47964 0.0
O441 O 0.5424 0.02776 0.49049 0.0
O442 O 0.53753 0.08052 0.51863 0.0
O443 O 0.57489 0.08509 0.52666 0.0
O444 O 0.49071 0.03598 0.52815 0.0
O445 O 0.49624 0.04446 0.49374 0.0
O446 O 0.52672 0.03122 0.55319 0.0
O447 O 0.55248 0.05524 0.54211 0.0
H448 H 0.61184 1.00275 0.5462 0.0
H449 H 0.63477 0.97416 0.54224 0.0
H450 H 0.66231 1.00488 0.48593 0.0
H451 H 0.63931 0.03344 0.4898 0.0
H452 H 0.45899 0.05543 0.47611 0.0
H453 H 0.43525 0.0828 0.48172 0.0
H454 H 0.45414 0.09943 0.55822 0.0
H455 H 0.47759 0.07138 0.55246 0.0
Ho456 Ho 0.27974 0.29415 0.76747 0.0
Ho457 Ho 0.32548 0.28007 0.77019 0.0
C458 C 0.30763 0.29889 0.81915 0.0
C459 C 0.23973 0.29506 0.76956 0.0
C460 C 0.2245 0.29543 0.78734 0.0
C461 C 0.21723 0.27521 0.79783 0.0
C462 C 0.20197 0.27594 0.8137 0.0
C463 C 0.19384 0.29693 0.81948 0.0
C464 C 0.2017 0.31742 0.80955 0.0
C465 C 0.21675 0.3166 0.79357 0.0
C466 C 0.31389 0.3354 0.76604 0.0
C467 C 0.29702 0.27419 0.71825 0.0
C468 C 0.36616 0.28115 0.76884 0.0
C469 C 0.38197 0.28043 0.75153 0.0
C470 C 0.39117 0.30142 0.7427 0.0
C471 C 0.40788 0.30117 0.72862 0.0
C472 C 0.41555 0.27988 0.72287 0.0
C473 C 0.40581 0.25858 0.73084 0.0
C474 C 0.38932 0.25892 0.74517 0.0
C475 C 0.29129 0.23894 0.77223 0.0
O476 O 0.28853 0.29666 0.80666 0.0
O477 O 0.32503 0.29607 0.80919 0.0
O478 O 0.25628 0.31513 0.7735 0.0
O479 O 0.2451 0.27433 0.76162 0.0
O480 O 0.2934 0.33447 0.76427 0.0
O481 O 0.31461 0.31357 0.76789 0.0
O482 O 0.31582 0.2752 0.73072 0.0
O483 O 0.28016 0.27883 0.72832 0.0
O484 O 0.35039 0.2606 0.76643 0.0
O485 O 0.35962 0.30138 0.77474 0.0
O486 O 0.31166 0.23938 0.77257 0.0
O487 O 0.29065 0.26087 0.77061 0.0
H488 H 0.22305 0.25873 0.79356 0.0
H489 H 0.19629 0.25994 0.82123 0.0
H490 H 0.19556 0.3337 0.81339 0.0
H491 H 0.22207 0.33243 0.78572 0.0
H492 H 0.38595 0.31831 0.74721 0.0
H493 H 0.41519 0.31783 0.72264 0.0
H494 H 0.41162 0.24206 0.72687 0.0
H495 H 0.38274 0.24255 0.75188 0.0
Ho496 Ho 0.04386 0.06174 0.52738 0.0
Ho497 Ho 0.04884 0.0147 0.50266 0.0
C498 C 0.02792 0.04317 0.46869 0.0
C499 C 0.04279 0.10751 0.54046 0.0
C500 C 0.04369 0.12612 0.52629 0.0
C501 C 0.05869 0.12866 0.51011 0.0
C502 C 0.0588 0.14531 0.49567 0.0
C503 C 0.04368 0.15946 0.49683 0.0
C504 C 0.02826 0.1564 0.51257 0.0
C505 C 0.02831 0.13984 0.52727 0.0
C506 C 0.01064 0.02226 0.53022 0.0
C507 C 0.06433 0.03321 0.56125 0.0
C508 C 0.04999 0.96876 0.49028 0.0
C509 C 0.04957 0.9504 0.50469 0.0
C510 C 0.04037 0.95294 0.5259 0.0
C511 C 0.04019 0.93574 0.53987 0.0
C512 C 0.04886 0.91558 0.53258 0.0
C513 C 0.05834 0.91318 0.5116 0.0
C514 C 0.05889 0.93072 0.49782 0.0
C515 C 0.08188 0.05436 0.49961 0.0
O516 O 0.0356 0.06257 0.48768 0.0
O517 O 0.02928 0.02074 0.47065 0.0
O518 O 0.0252 0.08857 0.53462 0.0
O519 O 0.06059 0.10062 0.54376 0.0
O520 O 0.01975 0.04169 0.54767 0.0
O521 O 0.01935 0.02494 0.51189 0.0
O522 O 0.05644 0.0139 0.54235 0.0
O523 O 0.06355 0.05577 0.55928 0.0
O524 O 0.0675 0.98782 0.49555 0.0
O525 O 0.03207 0.97552 0.48754 0.0
O526 O 0.07253 0.03505 0.4821 0.0
O527 O 0.07343 0.05152 0.51809 0.0
H528 H 0.0704 0.1178 0.50857 0.0
H529 H 0.07112 0.14753 0.48402 0.0
H530 H 0.01624 0.16684 0.51355 0.0
H531 H 0.01626 0.13757 0.53924 0.0
H532 H 0.03293 0.96791 0.53143 0.0
H533 H 0.03243 0.93753 0.55578 0.0
H534 H 0.06488 0.89749 0.50569 0.0
H535 H 0.06624 0.92869 0.48164 0.0
Ho536 Ho 0.31922 0.80777 0.76875 0.0
Ho537 Ho 0.27899 0.76924 0.77049 0.0
C538 C 0.323 0.75004 0.77212 0.0
C539 C 0.35793 0.83798 0.77918 0.0
C540 C 0.37965 0.8338 0.78079 0.0
C541 C 0.38873 0.82868 0.80156 0.0
C542 C 0.40902 0.82402 0.80283 0.0
C543 C 0.42064 0.82462 0.78347 0.0
C544 C 0.41157 0.82949 0.76265 0.0
C545 C 0.39122 0.83411 0.76133 0.0
C546 C 0.2983 0.77891 0.72574 0.0
C547 C 0.27556 0.82732 0.76721 0.0
C548 C 0.24057 0.73858 0.76081 0.0
C549 C 0.21952 0.74342 0.75617 0.0
C550 C 0.21724 0.76034 0.74222 0.0
C551 C 0.19749 0.76578 0.73853 0.0
C552 C 0.17983 0.75448 0.74884 0.0
C553 C 0.18219 0.73809 0.76331 0.0
C554 C 0.20202 0.73254 0.76693 0.0
C555 C 0.30039 0.79713 0.81327 0.0
O556 O 0.33337 0.77444 0.77443 0.0
O557 O 0.30123 0.74306 0.76895 0.0
O558 O 0.34656 0.83168 0.75776 0.0
O559 O 0.34621 0.83117 0.7953 0.0
O560 O 0.30754 0.80287 0.72954 0.0
O561 O 0.30141 0.77194 0.74459 0.0
O562 O 0.26512 0.80277 0.76422 0.0
O563 O 0.29731 0.83425 0.77102 0.0
O564 O 0.25077 0.74822 0.78269 0.0
O565 O 0.2533 0.74208 0.74463 0.0
O566 O 0.29107 0.77317 0.80928 0.0
O567 O 0.29703 0.8047 0.79482 0.0
H568 H 0.38027 0.82841 0.81693 0.0
H569 H 0.41593 0.82078 0.81926 0.0
H570 H 0.42035 0.83002 0.74754 0.0
H571 H 0.38458 0.83797 0.74512 0.0
H572 H 0.23067 0.76932 0.73404 0.0
H573 H 0.19588 0.77854 0.72739 0.0
H574 H 0.16855 0.72907 0.77118 0.0
H575 H 0.2037 0.71976 0.77803 0.0
Ho576 Ho 0.56176 0.03707 0.04939 0.0
Ho577 Ho 0.54953 0.04734 1.00272 0.0
C578 C 0.51199 0.01421 0.01979 0.0
C579 C 0.56002 0.02569 0.09021 0.0
C580 C 0.54175 0.01078 0.09943 0.0
C581 C 0.52014 0.00927 0.09089 0.0
C582 C 0.50278 0.99526 0.09948 0.0
C583 C 0.50671 0.98399 0.11818 0.0
C584 C 0.52825 0.98404 0.12568 0.0
C585 C 0.54567 0.99717 0.11614 0.0
C586 C 0.57178 0.00729 0.01238 0.0
C587 C 0.59992 0.06834 0.0299 0.0
C588 C 0.54815 0.05844 0.96187 0.0
C589 C 0.56536 0.07161 0.95051 0.0
C590 C 0.58701 0.07144 0.95656 0.0
C591 C 0.6032 0.0824 0.94462 0.0
C592 C 0.5977 0.09265 0.92575 0.0
C593 C 0.5765 0.09495 0.92115 0.0
C594 C 0.56033 0.08448 0.93362 0.0
C595 C 0.53988 0.07708 0.04047 0.0
O596 O 0.52497 0.02342 0.04051 0.0
O597 O 0.51931 0.01696 0.99987 0.0
O598 O 0.56674 0.01293 0.07242 0.0
O599 O 0.55832 0.04725 0.08677 0.0
O600 O 0.58396 0.01627 0.03303 0.0
O601 O 0.55421 0.01356 0.01243 0.0
O602 O 0.58621 0.06004 0.00964 0.0
O603 O 0.59348 0.06539 0.05036 0.0
O604 O 0.54413 0.07233 0.98092 0.0
O605 O 0.5493 0.03649 0.96465 0.0
O606 O 0.52684 0.0668 0.02049 0.0
O607 O 0.55756 0.07116 0.03971 0.0
H608 H 0.51652 0.01995 0.07855 0.0
H609 H 0.48635 0.99549 0.09328 0.0
H610 H 0.5318 0.97571 0.14023 0.0
H611 H 0.56223 0.99769 0.12262 0.0
H612 H 0.59124 0.06136 0.96925 0.0
H613 H 0.61937 0.07999 0.948 0.0
H614 H 0.57194 0.1024 0.90631 0.0
H615 H 0.54371 0.08508 0.92909 0.0
Ho616 Ho 0.31736 0.3205 0.27826 0.0
Ho617 Ho 0.29594 0.26621 0.26124 0.0
C618 C 0.26629 0.30281 0.27464 0.0
C619 C 0.33413 0.36821 0.28507 0.0
C620 C 0.32226 0.38746 0.28658 0.0
C621 C 0.30166 0.38174 0.27263 0.0
C622 C 0.28937 0.39887 0.27532 0.0
C623 C 0.29745 0.42207 0.29193 0.0
C624 C 0.31797 0.42801 0.30596 0.0
C625 C 0.33029 0.41067 0.30339 0.0
C626 C 0.30888 0.29684 0.31413 0.0
C627 C 0.34669 0.28262 0.26467 0.0
C628 C 0.27766 0.21877 0.25322 0.0
C629 C 0.28854 0.1987 0.25116 0.0
C630 C 0.30593 0.20055 0.26867 0.0
C631 C 0.31843 0.18376 0.26511 0.0
C632 C 0.31403 0.1649 0.24384 0.0
C633 C 0.29641 0.1627 0.22647 0.0
C634 C 0.28375 0.17952 0.23012 0.0
C635 C 0.30345 0.29057 0.2257 0.0
O636 O 0.28274 0.32116 0.27252 0.0
O637 O 0.26826 0.28011 0.27348 0.0
O638 O 0.33291 0.35685 0.30249 0.0
O639 O 0.3312 0.35253 0.2642 0.0
O640 O 0.30694 0.31894 0.3141 0.0
O641 O 0.31619 0.2885 0.29542 0.0
O642 O 0.33012 0.26478 0.26739 0.0
O643 O 0.34518 0.30567 0.26605 0.0
O644 O 0.27975 0.23067 0.23622 0.0
O645 O 0.28065 0.234 0.27435 0.0
O646 O 0.30642 0.26884 0.22553 0.0
O647 O 0.29628 0.29828 0.24463 0.0
H648 H 0.29492 0.36392 0.25971 0.0
H649 H 0.27358 0.3941 0.26428 0.0
H650 H 0.32442 0.44596 0.31878 0.0
H651 H 0.34595 0.41527 0.31459 0.0
H652 H 0.31032 0.21535 0.28493 0.0
H653 H 0.33159 0.18558 0.27909 0.0
H654 H 0.29272 0.14834 0.20991 0.0
H655 H 0.27067 0.17807 0.2162 0.0
Ho656 Ho 0.54117 0.55939 0.02777 0.0
Ho657 Ho 0.5484 0.51429 1.00214 0.0
C658 C 0.52654 0.54208 0.96875 0.0
C659 C 0.53871 0.60463 0.04118 0.0
C660 C 0.54242 0.62353 0.02726 0.0
C661 C 0.5548 0.62075 0.00859 0.0
C662 C 0.55844 0.63817 0.99479 0.0
C663 C 0.54987 0.65875 0.99952 0.0
C664 C 0.53682 0.66114 0.01767 0.0
C665 C 0.5331 0.64351 0.03154 0.0
C666 C 0.50928 0.51789 0.02934 0.0
C667 C 0.56291 0.5313 0.06091 0.0
C668 C 0.55189 0.46943 0.98931 0.0
C669 C 0.55037 0.45081 1.00357 0.0
C670 C 0.5379 0.45171 0.02234 0.0
C671 C 0.53626 0.43417 0.03606 0.0
C672 C 0.54711 0.4156 0.03125 0.0
C673 C 0.56021 0.41513 0.01311 0.0
C674 C 0.56191 0.43281 0.99933 0.0
C675 C 0.58022 0.55576 1.00051 0.0
O676 O 0.5331 0.56097 0.98823 0.0
O677 O 0.5289 0.51988 0.96996 0.0
O678 O 0.52157 0.58551 0.03246 0.0
O679 O 0.556 0.59784 0.0473 0.0
O680 O 0.51753 0.53715 0.04718 0.0
O681 O 0.51789 0.52209 0.01134 0.0
O682 O 0.55565 0.51232 0.04161 0.0
O683 O 0.5612 0.55367 0.05947 0.0
O684 O 0.56879 0.48913 0.99657 0.0
O685 O 0.53379 0.47524 0.9844 0.0
O686 O 0.57144 0.53688 0.98245 0.0
O687 O 0.57175 0.55161 0.01865 0.0
H688 H 0.56192 0.60524 0.00483 0.0
H689 H 0.56826 0.6358 0.98063 0.0
H690 H 0.5301 0.67697 0.02155 0.0
H691 H 0.52322 0.6456 0.04567 0.0
H692 H 0.52907 0.46566 0.02608 0.0
H693 H 0.52591 0.43452 0.04989 0.0
H694 H 0.56845 0.40062 0.00914 0.0
H695 H 0.57187 0.43219 0.98517 0.0
Ho696 Ho 0.81751 0.30616 0.2669 0.0
Ho697 Ho 0.77662 0.26701 0.26761 0.0
C698 C 0.82093 0.24834 0.27023 0.0
C699 C 0.85627 0.33668 0.27674 0.0
C700 C 0.87781 0.33336 0.28299 0.0
C701 C 0.8805 0.3173 0.29775 0.0
C702 C 0.90102 0.31421 0.30362 0.0
C703 C 0.91906 0.32693 0.29463 0.0
C704 C 0.91628 0.34255 0.27945 0.0
C705 C 0.89574 0.3458 0.27372 0.0
C706 C 0.79599 0.27864 0.22373 0.0
C707 C 0.77382 0.32568 0.26545 0.0
C708 C 0.73803 0.23595 0.25646 0.0
C709 C 0.71579 0.23835 0.25234 0.0
C710 C 0.71098 0.25405 0.23813 0.0
C711 C 0.68979 0.25595 0.23407 0.0
C712 C 0.67307 0.2423 0.24421 0.0
C713 C 0.67787 0.22675 0.25859 0.0
C714 C 0.69917 0.22486 0.26269 0.0
C715 C 0.79801 0.29328 0.31092 0.0
O716 O 0.83123 0.27291 0.27358 0.0
O717 O 0.79914 0.24094 0.26563 0.0
O718 O 0.84663 0.32562 0.25487 0.0
O719 O 0.84307 0.33386 0.29257 0.0
O720 O 0.80524 0.30264 0.22814 0.0
O721 O 0.79928 0.27094 0.24211 0.0
O722 O 0.76326 0.30139 0.26361 0.0
O723 O 0.79555 0.33255 0.26791 0.0
O724 O 0.74818 0.24454 0.27845 0.0
O725 O 0.75058 0.2419 0.24069 0.0
O726 O 0.78811 0.26939 0.306 0.0
O727 O 0.79514 0.30187 0.29293 0.0
H728 H 0.8668 0.30721 0.30484 0.0
H729 H 0.9028 0.30182 0.3151 0.0
H730 H 0.93006 0.35257 0.2724 0.0
H731 H 0.89385 0.35807 0.26214 0.0
H732 H 0.72352 0.26478 0.23003 0.0
H733 H 0.68639 0.26785 0.22269 0.0
H734 H 0.66522 0.21625 0.26672 0.0
H735 H 0.70267 0.21283 0.27387 0.0
Ho736 Ho 0.06236 0.54033 0.55141 0.0
Ho737 Ho 0.05621 0.55083 0.49865 0.0
C738 C 0.01591 0.5157 0.51692 0.0
C739 C 0.06087 0.54171 0.59574 0.0
C740 C 0.04488 0.5263 0.60731 0.0
C741 C 0.03179 0.53765 0.62134 0.0
C742 C 0.01568 0.52326 0.63127 0.0
C743 C 0.0123 0.49714 0.62746 0.0
C744 C 0.02555 0.48572 0.61365 0.0
C745 C 0.04164 0.50016 0.6035 0.0
C746 C 0.06884 0.50376 0.51714 0.0
C747 C 0.1037 0.56552 0.52799 0.0
C748 C 0.04927 0.55152 0.45459 0.0
C749 C 0.0632 0.56529 0.44031 0.0
C750 C 0.07148 0.5515 0.42224 0.0
C751 C 0.08806 0.56371 0.41148 0.0
C752 C 0.09633 0.58996 0.4182 0.0
C753 C 0.08735 0.60401 0.43537 0.0
C754 C 0.07101 0.59169 0.44666 0.0
C755 C 0.0552 0.58706 0.53658 0.0
O756 O 0.02665 0.52041 0.53886 0.0
O757 O 0.02469 0.52374 0.49923 0.0
O758 O 0.07307 0.53023 0.58338 0.0
O759 O 0.05367 0.55691 0.58502 0.0
O760 O 0.07058 0.50333 0.53952 0.0
O761 O 0.06326 0.52287 0.5153 0.0
O762 O 0.09178 0.55809 0.50658 0.0
O763 O 0.09538 0.56543 0.54828 0.0
O764 O 0.04136 0.56467 0.47123 0.0
O765 O 0.05707 0.53476 0.46191 0.0
O766 O 0.06353 0.59169 0.5178 0.0
O767 O 0.04758 0.56384 0.53358 0.0
H768 H 0.03392 0.55769 0.62452 0.0
H769 H 0.00611 0.53275 0.6424 0.0
H770 H 0.02338 0.4657 0.6106 0.0
H771 H 0.05139 0.4908 0.59256 0.0
H772 H 0.06575 0.53117 0.41713 0.0
H773 H 0.09439 0.55257 0.39777 0.0
H774 H 0.09324 0.62431 0.44029 0.0
H775 H 0.06497 0.60276 0.46072 0.0
Ho776 Ho 0.77911 0.7918 0.26743 0.0
Ho777 Ho 0.82623 0.78081 0.27096 0.0
C778 C 0.80699 0.79855 0.3195 0.0
C779 C 0.73799 0.78797 0.26809 0.0
C780 C 0.72373 0.79162 0.28664 0.0
C781 C 0.71435 0.77199 0.29708 0.0
C782 C 0.6997 0.77495 0.31326 0.0
C783 C 0.69399 0.79759 0.31941 0.0
C784 C 0.7039 0.81748 0.30949 0.0
C785 C 0.7185 0.81449 0.29323 0.0
C786 C 0.81229 0.83523 0.2691 0.0
C787 C 0.79844 0.77417 0.21873 0.0
C788 C 0.86751 0.78535 0.27004 0.0
C789 C 0.88255 0.78329 0.25202 0.0
C790 C 0.89724 0.80509 0.24899 0.0
C791 C 0.91285 0.80351 0.23373 0.0
C792 C 0.91428 0.78006 0.22103 0.0
C793 C 0.89919 0.75823 0.2236 0.0
C794 C 0.88356 0.75981 0.23893 0.0
C795 C 0.79314 0.73757 0.27072 0.0
O796 O 0.78782 0.7957 0.30681 0.0
O797 O 0.82465 0.79625 0.30982 0.0
O798 O 0.75211 0.80809 0.26564 0.0
O799 O 0.74612 0.76883 0.2663 0.0
O800 O 0.79172 0.83374 0.26891 0.0
O801 O 0.8136 0.81315 0.26916 0.0
O802 O 0.81716 0.7757 0.23157 0.0
O803 O 0.78106 0.7778 0.22836 0.0
O804 O 0.85341 0.76469 0.27142 0.0
O805 O 0.85915 0.80434 0.27254 0.0
O806 O 0.81386 0.73945 0.27164 0.0
O807 O 0.79164 0.75939 0.26965 0.0
H808 H 0.71788 0.75406 0.29234 0.0
H809 H 0.69215 0.75904 0.32017 0.0
H810 H 0.70012 0.83527 0.31398 0.0
H811 H 0.72538 0.82999 0.28548 0.0
H812 H 0.89705 0.82344 0.25894 0.0
H813 H 0.92434 0.82077 0.23261 0.0
H814 H 0.89954 0.73985 0.21392 0.0
H815 H 0.87256 0.74258 0.24083 0.0
Ho816 Ho 0.81553 0.2734 0.74056 0.0
Ho817 Ho 0.79885 0.29355 0.78491 0.0
C818 C 0.82437 0.33296 0.75947 0.0
C819 C 0.83366 0.26736 0.70282 0.0
C820 C 0.83697 0.284 0.68651 0.0
C821 C 0.81931 0.29179 0.67796 0.0
C822 C 0.823 0.31271 0.66857 0.0
C823 C 0.84438 0.32636 0.66764 0.0
C824 C 0.86203 0.31768 0.67456 0.0
C825 C 0.85832 0.29657 0.68406 0.0
C826 C 0.83698 0.26949 0.78157 0.0
C827 C 0.77871 0.23594 0.7558 0.0
C828 C 0.7939 0.30097 0.82929 0.0
C829 C 0.78011 0.28548 0.84266 0.0
C830 C 0.77757 0.25952 0.83819 0.0
C831 C 0.76671 0.24546 0.8528 0.0
C832 C 0.75806 0.25706 0.87209 0.0
C833 C 0.75917 0.28265 0.87536 0.0
C834 C 0.7702 0.29677 0.8608 0.0
C835 C 0.76881 0.29284 0.74815 0.0
O836 O 0.82124 0.31397 0.74078 0.0
O837 O 0.81939 0.32976 0.78041 0.0
O838 O 0.84475 0.2778 0.72416 0.0
O839 O 0.81338 0.25518 0.70331 0.0
O840 O 0.82984 0.25154 0.76247 0.0
O841 O 0.83109 0.2884 0.77839 0.0
O842 O 0.78435 0.25176 0.77703 0.0
O843 O 0.78668 0.24129 0.73686 0.0
O844 O 0.78383 0.3099 0.81404 0.0
O845 O 0.80941 0.29225 0.82084 0.0
O846 O 0.76795 0.30087 0.77054 0.0
O847 O 0.78607 0.28585 0.74603 0.0
H848 H 0.80268 0.28271 0.6798 0.0
H849 H 0.80906 0.31858 0.66253 0.0
H850 H 0.87863 0.3278 0.67361 0.0
H851 H 0.87218 0.29102 0.69088 0.0
H852 H 0.78485 0.25025 0.8241 0.0
H853 H 0.76639 0.22588 0.84991 0.0
H854 H 0.75238 0.29201 0.88987 0.0
H855 H 0.77169 0.31669 0.86427 0.0
Ho856 Ho 0.81715 0.82175 0.78676 0.0
Ho857 Ho 0.79542 0.76726 0.762 0.0
C858 C 0.76575 0.80284 0.7726 0.0
C859 C 0.82725 0.8689 0.80691 0.0
C860 C 0.81606 0.88782 0.80498 0.0
C861 C 0.80175 0.88474 0.7841 0.0
C862 C 0.78988 0.90182 0.78279 0.0
C863 C 0.7921 0.92198 0.80237 0.0
C864 C 0.80587 0.92476 0.82352 0.0
C865 C 0.81787 0.90762 0.82482 0.0
C866 C 0.81322 0.78926 0.81551 0.0
C867 C 0.84749 0.79065 0.76825 0.0
C868 C 0.78343 0.71917 0.75406 0.0
C869 C 0.7927 0.69983 0.7417 0.0
C870 C 0.81514 0.70563 0.73997 0.0
C871 C 0.82524 0.68646 0.73506 0.0
C872 C 0.81291 0.66142 0.73175 0.0
C873 C 0.79005 0.65561 0.73004 0.0
C874 C 0.77999 0.67479 0.73516 0.0
C875 C 0.80234 0.79195 0.72656 0.0
O876 O 0.78337 0.82097 0.77288 0.0
O877 O 0.76631 0.77956 0.77105 0.0
O878 O 0.81665 0.85148 0.81646 0.0
O879 O 0.83504 0.85991 0.78787 0.0
O880 O 0.83077 0.80687 0.81597 0.0
O881 O 0.79883 0.78907 0.79902 0.0
O882 O 0.83128 0.77089 0.76804 0.0
O883 O 0.84543 0.81342 0.7719 0.0
O884 O 0.77469 0.73129 0.74085 0.0
O885 O 0.79571 0.73388 0.77368 0.0
O886 O 0.79356 0.76815 0.72338 0.0
O887 O 0.80741 0.80183 0.74884 0.0
H888 H 0.79977 0.86916 0.76884 0.0
H889 H 0.77918 0.89955 0.76638 0.0
H890 H 0.80765 0.94038 0.83868 0.0
H891 H 0.82848 0.90975 0.84124 0.0
H892 H 0.8252 0.72491 0.74459 0.0
H893 H 0.84291 0.69137 0.73663 0.0
H894 H 0.78032 0.63634 0.72745 0.0
H895 H 0.76263 0.67003 0.73609 0.0
Ho896 Ho 0.52944 0.52558 0.49764 0.0
Ho897 Ho 0.57121 0.55747 0.52904 0.0
C898 C 0.54276 0.58606 0.50435 0.0
C899 C 0.48853 0.50596 0.48057 0.0
C900 C 0.46954 0.51552 0.4842 0.0
C901 C 0.46933 0.53219 0.50576 0.0
C902 C 0.45247 0.54357 0.50815 0.0
C903 C 0.43567 0.53879 0.48891 0.0
C904 C 0.43602 0.52213 0.4673 0.0
C905 C 0.45282 0.51058 0.465 0.0
C906 C 0.56201 0.52695 0.46815 0.0
C907 C 0.55795 0.4973 0.52382 0.0
C908 C 0.61194 0.57759 0.54588 0.0
C909 C 0.62985 0.56611 0.54492 0.0
C910 C 0.62766 0.54398 0.52749 0.0
C911 C 0.64307 0.53069 0.52864 0.0
C912 C 0.66085 0.53939 0.54723 0.0
C913 C 0.663 0.56156 0.56465 0.0
C914 C 0.64751 0.5748 0.56353 0.0
C915 C 0.53922 0.55669 0.55878 0.0
O916 O 0.52667 0.5651 0.50026 0.0
O917 O 0.56271 0.58735 0.51348 0.0
O918 O 0.50253 0.5188 0.46963 0.0
O919 O 0.49801 0.50032 0.49884 0.0
O920 O 0.54162 0.5146 0.4621 0.0
O921 O 0.56419 0.53747 0.4905 0.0
O922 O 0.57394 0.51836 0.52816 0.0
O923 O 0.53813 0.49572 0.51371 0.0
O924 O 0.59749 0.56827 0.55844 0.0
O925 O 0.60308 0.58002 0.52556 0.0
O926 O 0.5594 0.5699 0.56401 0.0
O927 O 0.53627 0.54563 0.53641 0.0
H928 H 0.48238 0.53673 0.52063 0.0
H929 H 0.45257 0.55602 0.52514 0.0
H930 H 0.42355 0.51836 0.45203 0.0
H931 H 0.45306 0.49828 0.44803 0.0
H932 H 0.6138 0.53669 0.51328 0.0
H933 H 0.6412 0.51378 0.51488 0.0
H934 H 0.67649 0.56844 0.57927 0.0
H935 H 0.64899 0.59144 0.57748 0.0
Ho936 Ho 0.07232 0.54222 0.01283 0.0
Ho937 Ho 0.02327 0.53855 0.01291 0.0
C938 C 0.03665 0.48773 0.00626 0.0
C939 C 0.11172 0.5385 0.02012 0.0
C940 C 0.1235 0.51907 0.01515 0.0
C941 C 0.11703 0.49632 0.02213 0.0
C942 C 0.12974 0.47941 0.01916 0.0
C943 C 0.14914 0.48482 0.00909 0.0
C944 C 0.15495 0.50708 1.00115 0.0
C945 C 0.14231 0.52398 0.0042 0.0
C946 C 0.04883 0.53581 0.97025 0.0
C947 C 0.0588 0.59309 0.01838 0.0
C948 C 0.98354 0.54157 0.00683 0.0
C949 C 0.97046 0.55919 0.01446 0.0
C950 C 0.97384 0.58232 0.00804 0.0
C951 C 0.95946 0.59706 0.01307 0.0
C952 C 0.94136 0.58886 0.02443 0.0
C953 C 0.93868 0.56638 0.03185 0.0
C954 C 0.95305 0.55174 0.02692 0.0
C955 C 0.04749 0.54651 0.05554 0.0
O956 O 0.057 0.50183 0.01454 0.0
O957 O 0.02101 0.49773 1.00028 0.0
O958 O 0.10414 0.54542 1.00168 0.0
O959 O 0.09826 0.53672 0.03587 0.0
O960 O 0.06898 0.54942 0.97617 0.0
O961 O 0.0426 0.52534 0.98637 0.0
O962 O 0.03833 0.57885 0.01101 0.0
O963 O 0.07476 0.5833 0.02389 0.0
O964 O 0.99097 0.53174 0.02318 0.0
O965 O 0.99752 0.54711 0.99222 0.0
O966 O 0.02764 0.53204 0.05007 0.0
O967 O 0.05299 0.55604 0.03878 0.0
H968 H 0.10245 0.49184 0.03039 0.0
H969 H 0.1246 0.46229 0.02517 0.0
H970 H 0.16986 0.51205 0.99357 0.0
H971 H 0.14763 0.54135 0.99862 0.0
H972 H 0.98714 0.58866 0.99847 0.0
H973 H 0.96187 0.61423 0.00703 0.0
H974 H 0.92504 0.55973 0.04087 0.0
H975 H 0.95008 0.53409 0.03216 0.0
C976 C 0.99557 0.18373 0.95213 0.0
C977 C 0.01086 0.20595 0.95097 0.0
C978 C 1.00199 0.16536 0.96168 0.0
C979 C 0.0242 0.16953 0.97111 0.0
C980 C 0.03962 0.19235 0.97076 0.0
C981 C 0.03286 0.21004 0.96029 0.0
C982 C 0.98504 0.14111 0.96102 0.0
C983 C 0.06332 0.19796 0.98122 0.0
C984 C 0.03486 0.12774 0.01224 0.0
C985 C 0.04073 0.10897 0.99655 0.0
C986 C 0.03005 0.14798 0.00444 0.0
C987 C 0.03121 0.14949 0.9804 0.0
C988 C 0.03777 0.13081 0.96475 0.0
C989 C 0.04232 0.11074 0.97299 0.0
C990 C 0.02326 0.16744 0.02178 0.0
C991 C 0.03939 0.13161 0.93907 0.0
H992 H 0.97859 0.18026 0.94472 0.0
H993 H 0.04476 0.22719 0.95954 0.0
H994 H 0.98963 0.12505 0.95036 0.0
H995 H 0.9844 0.13827 0.97934 0.0
H996 H 0.96845 0.14073 0.95313 0.0
H997 H 0.0728 0.21746 0.98174 0.0
H998 H 0.06466 0.19518 0.99963 0.0
H999 H 0.0709 0.18477 0.97042 0.0
H1000 H 0.03361 0.1263 0.03046 0.0
H1001 H 0.04692 0.09621 0.9609 0.0
H1002 H 0.00602 0.16651 0.01595 0.0
H1003 H 0.03341 0.18655 0.02201 0.0
H1004 H 0.02476 0.16471 0.04023 0.0
H1005 H 0.02305 0.1299 0.92954 0.0
H1006 H 0.04565 0.11633 0.92952 0.0
H1007 H 0.0504 0.14989 0.93822 0.0
C1008 C 0.15488 0.80815 0.19591 0.0
C1009 C 0.15221 0.81364 0.17337 0.0
C1010 C 0.17462 0.80503 0.20587 0.0
C1011 C 0.19267 0.80734 0.1932 0.0
C1012 C 0.19007 0.81227 0.17015 0.0
C1013 C 0.16997 0.8154 0.16054 0.0
C1014 C 0.17625 0.79983 0.23041 0.0
C1015 C 0.20866 0.8145 0.15576 0.0
C1016 C 0.24806 0.82775 0.23384 0.0
C1017 C 0.25301 0.80495 0.23352 0.0
C1018 C 0.22918 0.82883 0.21998 0.0
C1019 C 0.2145 0.80655 0.20516 0.0
C1020 C 0.21983 0.7835 0.20401 0.0
C1021 C 0.23897 0.78297 0.21812 0.0
C1022 C 0.22445 0.85386 0.22208 0.0
C1023 C 0.20483 0.75919 0.18865 0.0
H1024 H 0.14145 0.80649 0.20617 0.0
H1025 H 0.16823 0.81933 0.14307 0.0
H1026 H 0.1816 0.78265 0.22988 0.0
H1027 H 0.18873 0.81561 0.24305 0.0
H1028 H 0.16048 0.79734 0.23751 0.0
H1029 H 0.20395 0.81726 0.1378 0.0
H1030 H 0.22272 0.83057 0.16541 0.0
H1031 H 0.21431 0.79734 0.15356 0.0
H1032 H 0.25876 0.8449 0.24553 0.0
H1033 H 0.2425 0.76522 0.2177 0.0
H1034 H 0.20958 0.85375 0.23059 0.0
H1035 H 0.22116 0.85722 0.2041 0.0
H1036 H 0.23818 0.8697 0.23289 0.0
H1037 H 0.18968 0.75395 0.19661 0.0
H1038 H 0.21254 0.74358 0.187 0.0
H1039 H 0.19995 0.76138 0.17053 0.0
C1040 C 0.51647 0.84667 0.44433 0.0
C1041 C 0.5094 0.82907 0.45775 0.0
C1042 C 0.52165 0.87251 0.45455 0.0
C1043 C 0.52049 0.88106 0.47906 0.0
C1044 C 0.51432 0.86338 0.493 0.0
C1045 C 0.50837 0.83751 0.48204 0.0
C1046 C 0.52749 0.89062 0.43882 0.0
C1047 C 0.51361 0.87181 0.51934 0.0
C1048 C 0.54981 0.95019 0.50563 0.0
C1049 C 0.53254 0.96115 0.50424 0.0
C1050 C 0.54606 0.92404 0.49839 0.0
C1051 C 0.52453 0.90845 0.48953 0.0
C1052 C 0.50695 0.91933 0.48889 0.0
C1053 C 0.51116 0.9455 0.49629 0.0
C1054 C 0.56524 0.91319 0.49945 0.0
C1055 C 0.48377 0.90342 0.47938 0.0
H1056 H 0.51698 0.84016 0.42545 0.0
H1057 H 0.50296 0.8239 0.49243 0.0
H1058 H 0.51523 0.90131 0.43833 0.0
H1059 H 0.54361 0.90443 0.44626 0.0
H1060 H 0.52809 0.88093 0.42022 0.0
H1061 H 0.51057 0.85588 0.52811 0.0
H1062 H 0.52926 0.88577 0.52837 0.0
H1063 H 0.50046 0.88115 0.52199 0.0
H1064 H 0.56641 0.96205 0.51179 0.0
H1065 H 0.49767 0.95371 0.49521 0.0
H1066 H 0.56776 0.90521 0.48106 0.0
H1067 H 0.56191 0.89764 0.50866 0.0
H1068 H 0.58061 0.92751 0.50884 0.0
H1069 H 0.48253 0.89417 0.46022 0.0
H1070 H 0.47182 0.91461 0.48115 0.0
H1071 H 0.47913 0.88836 0.489 0.0
C1072 C 0.52863 0.28037 0.67114 0.0
C1073 C 0.53323 0.2993 0.65866 0.0
C1074 C 0.50842 0.27375 0.67955 0.0
C1075 C 0.49272 0.28686 0.67598 0.0
C1076 C 0.49706 0.30536 0.66269 0.0
C1077 C 0.51708 0.31114 0.65403 0.0
C1078 C 0.50413 0.25333 0.69295 0.0
C1079 C 0.48101 0.32006 0.65864 0.0
C1080 C 0.43391 0.2651 0.68815 0.0
C1081 C 0.43511 0.28083 0.7107 0.0
C1082 C 0.45257 0.26641 0.67667 0.0
C1083 C 0.47294 0.28347 0.6883 0.0
C1084 C 0.4742 0.29881 0.7114 0.0
C1085 C 0.45526 0.29746 0.72217 0.0
C1086 C 0.45041 0.24997 0.65195 0.0
C1087 C 0.49553 0.31703 0.72463 0.0
H1088 H 0.54089 0.27092 0.67454 0.0
H1089 H 0.52045 0.32584 0.64444 0.0
H1090 H 0.50352 0.26158 0.71193 0.0
H1091 H 0.48803 0.2395 0.68544 0.0
H1092 H 0.51695 0.24329 0.69223 0.0
H1093 H 0.48609 0.3325 0.64647 0.0
H1094 H 0.46455 0.30713 0.65099 0.0
H1095 H 0.47956 0.33184 0.67598 0.0
H1096 H 0.41829 0.25216 0.67933 0.0
H1097 H 0.45621 0.30937 0.73975 0.0
H1098 H 0.46239 0.23887 0.65161 0.0
H1099 H 0.45417 0.26183 0.63905 0.0
H1100 H 0.43373 0.23689 0.64581 0.0
H1101 H 0.50817 0.307 0.72616 0.0
H1102 H 0.49395 0.32679 0.74286 0.0
H1103 H 0.50143 0.33134 0.7145 0.0
C1104 C 0.02096 0.80063 0.59515 0.0
C1105 C 1.00195 0.80203 0.60481 0.0
C1106 C 0.03149 0.81926 0.58429 0.0
C1107 C 0.02304 0.83993 0.58391 0.0
C1108 C 0.00434 0.84185 0.59468 0.0
C1109 C 0.99378 0.82257 0.60471 0.0
C1110 C 0.05124 0.81656 0.57271 0.0
C1111 C 0.99519 0.86396 0.59514 0.0
C1112 C 0.05439 0.89947 0.56881 0.0
C1113 C 0.04501 0.89527 0.54502 0.0
C1114 C 0.04837 0.88091 0.58149 0.0
C1115 C 0.03217 0.85824 0.57014 0.0
C1116 C 0.02311 0.85383 0.54591 0.0
C1117 C 0.02984 0.87239 0.53355 0.0
C1118 C 0.05859 0.88596 0.60721 0.0
C1119 C 0.00543 0.83012 0.53342 0.0
H1120 H 0.02727 0.78471 0.59569 0.0
H1121 H 0.97932 0.82369 0.61282 0.0
H1122 H 0.04779 0.81531 0.55331 0.0
H1123 H 0.0653 0.83337 0.58039 0.0
H1124 H 0.056 0.79962 0.57506 0.0
H1125 H 0.98158 0.86344 0.60582 0.0
H1126 H 0.00821 0.8818 0.60274 0.0
H1127 H 0.98908 0.8641 0.57664 0.0
H1128 H 0.06604 0.9174 0.57755 0.0
H1129 H 0.02243 0.86955 0.51523 0.0
H1130 H 0.06458 0.86999 0.61017 0.0
H1131 H 0.04612 0.88784 0.61907 0.0
H1132 H 0.07242 0.9034 0.61259 0.0
H1133 H 0.01074 0.81336 0.53512 0.0
H1134 H 1.00105 0.82903 0.51415 0.0
H1135 H 0.99051 0.82933 0.54198 0.0
C1136 C 0.53805 0.84088 0.8422 0.0
C1137 C 0.55078 0.8284 0.82871 0.0
C1138 C 0.51747 0.84085 0.832 0.0
C1139 C 0.50956 0.82755 0.80796 0.0
C1140 C 0.52292 0.81611 0.79395 0.0
C1141 C 0.54368 0.81694 0.80453 0.0
C1142 C 0.50372 0.8536 0.84735 0.0
C1143 C 0.5147 0.80143 0.76842 0.0
C1144 C 0.44819 0.80411 0.79608 0.0
C1145 C 0.44311 0.82276 0.78612 0.0
C1146 C 0.46995 0.80464 0.80213 0.0
C1147 C 0.48677 0.82438 0.79817 0.0
C1148 C 0.48168 0.84248 0.78701 0.0
C1149 C 0.4598 0.8414 0.78102 0.0
C1150 C 0.47493 0.78498 0.81399 0.0
C1151 C 0.4993 0.86396 0.78295 0.0
H1152 H 0.54381 0.84973 0.86098 0.0
H1153 H 0.55363 0.80701 0.79444 0.0
H1154 H 0.49665 0.86555 0.83793 0.0
H1155 H 0.48989 0.83921 0.85098 0.0
H1156 H 0.51327 0.86544 0.86474 0.0
H1157 H 0.52787 0.79576 0.75937 0.0
H1158 H 0.50156 0.78423 0.7681 0.0
H1159 H 0.50754 0.81261 0.7581 0.0
H1160 H 0.43515 0.78962 0.79983 0.0
H1161 H 0.45578 0.856 0.77362 0.0
H1162 H 0.48201 0.79375 0.83301 0.0
H1163 H 0.48722 0.77702 0.80535 0.0
H1164 H 0.46008 0.76942 0.81329 0.0
H1165 H 0.50754 0.8768 0.80042 0.0
H1166 H 0.49264 0.87491 0.77187 0.0
H1167 H 0.51193 0.8569 0.77409 0.0
C1168 C 0.51213 0.20082 0.09936 0.0
C1169 C 0.51163 0.20493 0.12397 0.0
C1170 C 0.51916 0.18091 0.08718 0.0
C1171 C 0.52502 0.1642 0.09985 0.0
C1172 C 0.52502 0.16864 0.12486 0.0
C1173 C 0.51864 0.18931 0.13675 0.0
C1174 C 0.51938 0.17715 0.0606 0.0
C1175 C 0.53051 0.15075 0.13875 0.0
C1176 C 0.51535 0.09882 0.06096 0.0
C1177 C 0.53664 0.09819 0.05786 0.0
C1178 C 0.51146 0.11975 0.07557 0.0
C1179 C 0.52929 0.14099 0.08649 0.0
C1180 C 0.55089 0.14045 0.08338 0.0
C1181 C 0.55435 0.11875 0.06945 0.0
C1182 C 0.48823 0.11929 0.07895 0.0
C1183 C 0.57015 0.16323 0.09364 0.0
H1184 H 0.50663 0.213 0.08957 0.0
H1185 H 0.51792 0.19243 0.15575 0.0
H1186 H 0.535 0.1738 0.05599 0.0
H1187 H 0.506 0.16037 0.05086 0.0
H1188 H 0.51716 0.19356 0.05412 0.0
H1189 H 0.53077 0.1575 0.15825 0.0
H1190 H 0.51822 0.13213 0.13236 0.0
H1191 H 0.54667 0.14799 0.1357 0.0
H1192 H 0.50166 0.08306 0.05163 0.0
H1193 H 0.57079 0.11839 0.06656 0.0
H1194 H 0.48381 0.13491 0.07291 0.0
H1195 H 0.48675 0.12199 0.0982 0.0
H1196 H 0.47623 0.10141 0.06894 0.0
H1197 H 0.56849 0.17868 0.08528 0.0
H1198 H 0.58596 0.15937 0.09054 0.0
H1199 H 0.57049 0.16997 0.11311 0.0
C1200 C 0.17745 0.33101 0.3496 0.0
C1201 C 0.15696 0.32703 0.33644 0.0
C1202 C 0.19553 0.33025 0.33787 0.0
C1203 C 0.19281 0.3258 0.31263 0.0
C1204 C 0.17252 0.32387 0.29955 0.0
C1205 C 0.15474 0.3244 0.31167 0.0
C1206 C 0.21703 0.33207 0.35221 0.0
C1207 C 0.16913 0.3192 0.27264 0.0
C1208 C 0.24458 0.333 0.28528 0.0
C1209 C 0.246 0.30825 0.28063 0.0
C1210 C 0.22676 0.33897 0.29481 0.0
C1211 C 0.21026 0.3197 0.2998 0.0
C1212 C 0.21094 0.29447 0.29376 0.0
C1213 C 0.22884 0.28903 0.28413 0.0
C1214 C 0.22615 0.36597 0.3006 0.0
C1215 C 0.19339 0.27337 0.29862 0.0
H1216 H 0.17899 0.33286 0.36874 0.0
H1217 H 0.1388 0.32153 0.30159 0.0
H1218 H 0.22042 0.31353 0.34812 0.0
H1219 H 0.23061 0.34569 0.34725 0.0
H1220 H 0.21699 0.33787 0.37175 0.0
H1221 H 0.15337 0.32185 0.26564 0.0
H1222 H 0.18264 0.3319 0.26663 0.0
H1223 H 0.16912 0.29965 0.2646 0.0
H1224 H 0.25777 0.34789 0.28242 0.0
H1225 H 0.22979 0.26984 0.28031 0.0
H1226 H 0.22883 0.37338 0.32026 0.0
H1227 H 0.20988 0.36734 0.29365 0.0
H1228 H 0.23887 0.37812 0.29302 0.0
H1229 H 0.1933 0.27623 0.31816 0.0
H1230 H 0.19588 0.25466 0.29163 0.0
H1231 H 0.17704 0.27329 0.29038 0.0
C1232 C 0.96469 0.06764 0.17116 0.0
C1233 C 0.97274 0.05704 0.18887 0.0
C1234 C 0.97313 0.06715 0.1488 0.0
C1235 C 0.99003 0.05546 0.14309 0.0
C1236 C 0.99773 0.04429 0.16071 0.0
C1237 C 0.98931 0.04534 0.18284 0.0
C1238 C 0.96429 0.07985 0.13141 0.0
C1239 C 0.01551 0.03152 0.15647 0.0
C1240 C 0.00516 0.0377 0.07787 0.0
C1241 C 0.02443 0.05688 0.07844 0.0
C1242 C 0.99357 0.03725 0.09814 0.0
C1243 C 1.00091 0.05645 0.11999 0.0
C1244 C 0.01994 0.07608 0.12018 0.0
C1245 C 0.03119 0.07595 0.09996 0.0
C1246 C 0.97368 0.01563 0.09642 0.0
C1247 C 0.02902 0.09722 0.14224 0.0
H1248 H 0.95223 0.07708 0.17501 0.0
H1249 H 0.99607 0.03695 0.19579 0.0
H1250 H 0.9776 0.09555 0.12886 0.0
H1251 H 0.95822 0.06642 0.11373 0.0
H1252 H 0.95082 0.08738 0.13758 0.0
H1253 H 0.01856 0.02176 0.17061 0.0
H1254 H 0.01111 0.01764 0.13893 0.0
H1255 H 0.03095 0.04563 0.15594 0.0
H1256 H 0.99951 0.02252 0.06192 0.0
H1257 H 0.04592 0.09102 0.1013 0.0
H1258 H 0.95966 0.02277 0.10127 0.0
H1259 H 0.97692 1.00462 0.10937 0.0
H1260 H 0.96902 1.00294 0.07823 0.0
H1261 H 0.01603 0.10579 0.14809 0.0
H1262 H 0.04285 0.11212 0.13928 0.0
H1263 H 0.03486 0.08977 0.15705 0.0
C1264 C 0.2827 0.68792 0.4624 0.0
C1265 C 0.26819 0.67528 0.47549 0.0
C1266 C 0.27522 0.69729 0.44388 0.0
C1267 C 0.25259 0.6944 0.43841 0.0
C1268 C 0.23769 0.68148 0.45131 0.0
C1269 C 0.24567 0.67185 0.46967 0.0
C1270 C 0.29173 0.71056 0.43032 0.0
C1271 C 0.21343 0.6778 0.44567 0.0
C1272 C 0.24784 0.74694 0.41054 0.0
C1273 C 0.24774 0.736 0.38648 0.0
C1274 C 0.24676 0.73269 0.42762 0.0
C1275 C 0.24538 0.70687 0.42037 0.0
C1276 C 0.24265 0.69513 0.39575 0.0
C1277 C 0.24413 0.70994 0.37906 0.0
C1278 C 0.24994 0.746 0.4537 0.0
C1279 C 0.24053 0.66749 0.38723 0.0
H1280 H 0.30009 0.69024 0.46635 0.0
H1281 H 0.23433 0.66172 0.47945 0.0
H1282 H 0.28768 0.70123 0.41099 0.0
H1283 H 0.29125 0.73028 0.43237 0.0
H1284 H 0.3087 0.7107 0.43658 0.0
H1285 H 0.20415 0.66852 0.45819 0.0
H1286 H 0.21004 0.69614 0.44641 0.0
H1287 H 0.20728 0.66611 0.42722 0.0
H1288 H 0.25073 0.76708 0.41641 0.0
H1289 H 0.24373 0.70135 0.3604 0.0
H1290 H 0.26699 0.7486 0.46186 0.0
H1291 H 0.23887 0.73468 0.4635 0.0
H1292 H 0.247 0.76477 0.45617 0.0
H1293 H 0.25696 0.66444 0.38949 0.0
H1294 H 0.23339 0.66024 0.36804 0.0
H1295 H 0.23024 0.65644 0.39786 0.0
C1296 C 0.63032 0.02656 0.6582 0.0
C1297 C 0.62347 0.03597 0.67966 0.0
C1298 C 0.62215 0.03111 0.63688 0.0
C1299 C 0.60661 0.04489 0.63734 0.0
C1300 C 0.60116 0.05624 0.65922 0.0
C1301 C 0.60975 0.05166 0.68021 0.0
C1302 C 0.62885 0.01965 0.61376 0.0
C1303 C 0.58472 0.07126 0.6603 0.0
C1304 C 0.58255 0.06298 0.58449 0.0
C1305 C 0.56266 0.04409 0.57784 0.0
C1306 C 0.59786 0.06285 0.60314 0.0
C1307 C 0.59285 0.04342 0.6152 0.0
C1308 C 0.5731 0.0238 0.60789 0.0
C1309 C 0.55808 0.02449 0.58927 0.0
C1310 C 0.6188 0.084 0.61054 0.0
C1311 C 0.56743 1.00263 0.62034 0.0
H1312 H 0.64152 0.01509 0.65794 0.0
H1313 H 0.60482 0.05944 0.69691 0.0
H1314 H 0.61571 1.00257 0.60414 0.0
H1315 H 0.63122 0.03286 0.60194 0.0
H1316 H 0.64417 0.01424 0.61692 0.0
H1317 H 0.58465 0.0816 0.67883 0.0
H1318 H 0.58817 0.08495 0.64905 0.0
H1319 H 0.56811 0.05839 0.65324 0.0
H1320 H 0.58597 0.07806 0.57535 0.0
H1321 H 0.54278 0.00973 0.58366 0.0
H1322 H 0.63293 0.07684 0.61469 0.0
H1323 H 0.61753 0.09737 0.62697 0.0
H1324 H 0.62214 0.09448 0.59646 0.0
H1325 H 0.58089 0.99365 0.62105 0.0
H1326 H 0.55213 0.988 0.61129 0.0
H1327 H 0.56537 0.01019 0.63902 0.0
C1328 C 0.3262 0.3221 0.96263 0.0
C1329 C 0.31719 0.34113 0.97313 0.0
C1330 C 0.32333 0.31299 0.93762 0.0
C1331 C 0.31159 0.3235 0.92257 0.0
C1332 C 0.30167 0.34193 0.93308 0.0
C1333 C 0.30439 0.3503 0.95814 0.0
C1334 C 0.33356 0.29272 0.92726 0.0
C1335 C 0.28914 0.35384 0.91784 0.0
C1336 C 0.32711 0.32276 0.8602 0.0
C1337 C 0.30921 0.30443 0.84557 0.0
C1338 C 0.32796 0.32927 0.88521 0.0
C1339 C 0.31088 0.31647 0.89596 0.0
C1340 C 0.29305 0.2974 0.8812 0.0
C1341 C 0.29226 0.29194 0.8562 0.0
C1342 C 0.34689 0.35029 0.90009 0.0
C1343 C 0.2749 0.2826 0.8918 0.0
H1344 H 0.33601 0.31473 0.97395 0.0
H1345 H 0.2974 0.36506 0.96591 0.0
H1346 H 0.32142 0.27745 0.91373 0.0
H1347 H 0.34721 0.30062 0.91807 0.0
H1348 H 0.34004 0.28456 0.9412 0.0
H1349 H 0.28151 0.36699 0.92866 0.0
H1350 H 0.30035 0.36433 0.90755 0.0
H1351 H 0.27613 0.3392 0.90472 0.0
H1352 H 0.34012 0.33263 0.85201 0.0
H1353 H 0.27845 0.27761 0.84491 0.0
H1354 H 0.35582 0.34322 0.91318 0.0
H1355 H 0.34071 0.36521 0.91039 0.0
H1356 H 0.35859 0.35876 0.88902 0.0
H1357 H 0.28173 0.2725 0.90366 0.0
H1358 H 0.26203 0.26867 0.87788 0.0
H1359 H 0.26722 0.29541 0.90295 0.0
C1360 C 0.95646 0.06327 0.35083 0.0
C1361 C 0.96684 0.06098 0.33027 0.0
C1362 C 0.9659 0.06037 0.37312 0.0
C1363 C 0.98673 0.05558 0.3758 0.0
C1364 C 0.99734 0.05354 0.35515 0.0
C1365 C 0.98734 0.05594 0.333 0.0
C1366 C 0.95335 0.06226 0.39392 0.0
C1367 C 0.01957 0.04898 0.35644 0.0
C1368 C 0.02022 0.07037 0.43996 0.0
C1369 C 0.01756 0.04653 0.44492 0.0
C1370 C 0.01063 0.07353 0.4179 0.0
C1371 C 0.9973 0.05251 0.39985 0.0
C1372 C 0.99441 0.02844 0.40489 0.0
C1373 C 0.00458 0.02577 0.42686 0.0
C1374 C 0.01506 0.09959 0.41379 0.0
C1375 C 0.98026 1.00526 0.38704 0.0
H1376 H 0.94072 0.0671 0.34948 0.0
H1377 H 0.99591 0.05422 0.3177 0.0
H1378 H 0.95075 0.0448 0.40037 0.0
H1379 H 0.96295 0.07798 0.40895 0.0
H1380 H 0.93721 0.06531 0.38917 0.0
H1381 H 0.02639 0.0492 0.33948 0.0
H1382 H 0.03114 0.06352 0.37111 0.0
H1383 H 0.01851 0.03053 0.36055 0.0
H1384 H 0.03014 0.08676 0.4533 0.0
H1385 H 1.00203 0.00717 0.43001 0.0
H1386 H 0.99946 0.1043 0.4105 0.0
H1387 H 0.02306 0.10037 0.39763 0.0
H1388 H 0.02572 0.11404 0.4292 0.0
H1389 H 0.9636 0.00724 0.38305 0.0
H1390 H 0.97895 0.98796 0.39357 0.0
H1391 H 0.98705 1.003 0.37002 0.0
C1392 C 0.27459 0.67674 0.59965 0.0
C1393 C 0.29364 0.68242 0.58914 0.0
C1394 C 0.27268 0.69194 0.62144 0.0
C1395 C 0.2903 0.71315 0.63307 0.0
C1396 C 0.30949 0.71899 0.62254 0.0
C1397 C 0.31089 0.70364 0.60073 0.0
C1398 C 0.25189 0.6853 0.63206 0.0
C1399 C 0.32876 0.74126 0.63454 0.0
C1400 C 0.28596 0.7675 0.68161 0.0
C1401 C 0.29397 0.7613 0.7021 0.0
C1402 C 0.2832 0.7511 0.65898 0.0
C1403 C 0.28943 0.72858 0.65692 0.0
C1404 C 0.29702 0.72206 0.67773 0.0
C1405 C 0.29884 0.7383 0.70008 0.0
C1406 C 0.27429 0.75821 0.63725 0.0
C1407 C 0.3044 0.69861 0.67636 0.0
H1408 H 0.26109 0.66051 0.59077 0.0
H1409 H 0.32567 0.70826 0.59281 0.0
H1410 H 0.25543 0.68088 0.64951 0.0
H1411 H 0.24505 0.70159 0.63549 0.0
H1412 H 0.2393 0.66893 0.62023 0.0
H1413 H 0.3424 0.7434 0.62385 0.0
H1414 H 0.32364 0.75877 0.63751 0.0
H1415 H 0.33494 0.73918 0.65231 0.0
H1416 H 0.28197 0.78517 0.68328 0.0
H1417 H 0.3051 0.73348 0.71595 0.0
H1418 H 0.26115 0.74212 0.62586 0.0
H1419 H 0.28746 0.763 0.62638 0.0
H1420 H 0.26766 0.77456 0.6421 0.0
H1421 H 0.29137 0.68187 0.66589 0.0
H1422 H 0.3088 0.69562 0.69431 0.0
H1423 H 0.31889 0.7 0.667 0.0
C1424 C 0.62231 0.05521 0.79968 0.0
C1425 C 0.64037 0.04548 0.7996 0.0
C1426 C 0.61967 0.07163 0.82009 0.0
C1427 C 0.63568 0.0787 0.84063 0.0
C1428 C 0.65535 0.07195 0.83944 0.0
C1429 C 0.65704 0.05442 0.81933 0.0
C1430 C 0.59847 0.07864 0.82063 0.0
C1431 C 0.67343 0.08076 0.86053 0.0
C1432 C 0.61953 0.11186 0.89721 0.0
C1433 C 0.61045 0.09113 0.90615 0.0
C1434 C 0.62921 0.10861 0.87638 0.0
C1435 C 0.62858 0.084 0.86412 0.0
C1436 C 0.61965 0.06318 0.87357 0.0
C1437 C 0.61102 0.06715 0.89465 0.0
C1438 C 0.63931 0.13131 0.86732 0.0
C1439 C 0.61822 0.03643 0.86099 0.0
H1440 H 0.60961 0.04901 0.78425 0.0
H1441 H 0.67108 0.04718 0.81961 0.0
H1442 H 0.58766 0.06673 0.83022 0.0
H1443 H 0.60141 0.09849 0.83031 0.0
H1444 H 0.58974 0.07581 0.80236 0.0
H1445 H 0.68946 0.08043 0.85475 0.0
H1446 H 0.67453 0.10008 0.87061 0.0
H1447 H 0.67 0.06812 0.87282 0.0
H1448 H 0.61882 0.13034 0.90625 0.0
H1449 H 0.60355 0.05116 0.90156 0.0
H1450 H 0.6266 0.13504 0.85544 0.0
H1451 H 0.65267 0.12851 0.85704 0.0
H1452 H 0.64588 0.14825 0.88234 0.0
H1453 H 0.60952 0.03176 0.84246 0.0
H1454 H 0.60949 0.02248 0.87026 0.0
H1455 H 0.63486 0.03423 0.86003 0.0
C1456 C 0.3324 0.35632 0.11898 0.0
C1457 C 0.31529 0.35052 0.09988 0.0
C1458 C 0.32917 0.34826 0.14008 0.0
C1459 C 0.30838 0.33327 0.14219 0.0
C1460 C 0.29084 0.32768 0.12316 0.0
C1461 C 0.29441 0.3367 0.10239 0.0
C1462 C 0.34826 0.35538 0.15996 0.0
C1463 C 0.26849 0.31152 0.12449 0.0
C1464 C 0.31 0.28921 0.18353 0.0
C1465 C 0.30415 0.30166 0.2045 0.0
C1466 C 0.31079 0.29895 0.16309 0.0
C1467 C 0.30574 0.32192 0.16342 0.0
C1468 C 0.29974 0.33459 0.18457 0.0
C1469 C 0.29893 0.32426 0.20478 0.0
C1470 C 0.3174 0.28476 0.14117 0.0
C1471 C 0.29454 0.35926 0.186 0.0
H1472 H 0.3485 0.36744 0.11748 0.0
H1473 H 0.28108 0.33225 0.08783 0.0
H1474 H 0.34367 0.36393 0.17711 0.0
H1475 H 0.3528 0.33832 0.16223 0.0
H1476 H 0.36285 0.36884 0.15641 0.0
H1477 H 0.25643 0.30928 0.10859 0.0
H1478 H 0.26951 0.29265 0.12596 0.0
H1479 H 0.26243 0.31983 0.14074 0.0
H1480 H 0.31405 0.27173 0.18309 0.0
H1481 H 0.29433 0.33396 0.22087 0.0
H1482 H 0.33277 0.29638 0.13715 0.0
H1483 H 0.30464 0.28083 0.12548 0.0
H1484 H 0.31999 0.2667 0.1434 0.0
H1485 H 0.30881 0.37332 0.1827 0.0
H1486 H 0.2902 0.36679 0.20367 0.0
H1487 H 0.28072 0.35691 0.17193 0.0
C1488 C 0.24701 0.97901 0.99747 0.0
C1489 C 0.25567 0.96308 0.00826 0.0
C1490 C 0.22945 0.98699 0.00567 0.0
C1491 C 0.22101 0.97949 0.02563 0.0
C1492 C 0.22954 0.96313 0.03641 0.0
C1493 C 0.24651 0.95467 0.02724 0.0
C1494 C 0.22048 1.0042 0.99353 0.0
C1495 C 0.22143 0.9554 0.05817 0.0
C1496 C 0.19464 0.02702 0.05605 0.0
C1497 C 0.17278 0.01601 0.04546 0.0
C1498 C 0.21038 0.01419 0.05156 0.0
C1499 C 0.20407 0.99008 0.03575 0.0
C1500 C 0.18175 0.97789 0.02695 0.0
C1501 C 0.16628 0.99097 0.03214 0.0
C1502 C 0.23399 0.02732 0.06213 0.0
C1503 C 0.17443 0.95201 0.01033 0.0
H1504 H 0.25425 0.98558 0.98294 0.0
H1505 H 0.25349 0.94266 0.0359 0.0
H1506 H 0.20247 0.99664 0.98859 0.0
H1507 H 0.2239 0.02292 0.00602 0.0
H1508 H 0.22773 0.00666 0.97718 0.0
H1509 H 0.23182 0.94537 0.06625 0.0
H1510 H 0.221 0.97206 0.07193 0.0
H1511 H 0.20451 0.94282 0.05316 0.0
H1512 H 0.1998 0.0463 0.06649 0.0
H1513 H 0.14923 0.98207 0.02465 0.0
H1514 H 0.24296 0.03404 0.04816 0.0
H1515 H 0.24197 0.01421 0.06858 0.0
H1516 H 0.2356 0.04373 0.0772 0.0
H1517 H 0.17958 0.9531 0.99269 0.0
H1518 H 0.1564 0.94391 0.00765 0.0
H1519 H 0.18223 0.93906 0.01728 0.0
C1520 C 0.70513 0.60605 0.99155 0.0
C1521 C 0.71429 0.63209 0.99548 0.0
C1522 C 0.68317 0.5957 0.99372 0.0
C1523 C 0.6698 0.61169 1.00013 0.0
C1524 C 0.67896 0.63805 0.00445 0.0
C1525 C 0.70105 0.64794 1.00197 0.0
C1526 C 0.67422 0.56752 0.98888 0.0
C1527 C 0.66541 0.65579 0.01166 0.0
C1528 C 0.60883 0.57933 0.98061 0.0
C1529 C 0.60225 0.57306 1.0015 0.0
C1530 C 0.63042 0.59317 0.98032 0.0
C1531 C 0.64607 0.60048 1.00131 0.0
C1532 C 0.63929 0.59492 0.02271 0.0
C1533 C 0.61741 0.58152 0.02261 0.0
C1534 C 0.63671 0.59903 0.95723 0.0
C1535 C 0.65538 0.60194 0.04542 0.0
H1536 H 0.71512 0.59356 0.98656 0.0
H1537 H 0.70797 0.66808 0.0053 0.0
H1538 H 0.66739 0.56226 0.00462 0.0
H1539 H 0.6607 0.56066 0.97359 0.0
H1540 H 0.68688 0.5577 0.98471 0.0
H1541 H 0.67489 0.67577 0.0145 0.0
H1542 H 0.65105 0.65165 0.99769 0.0
H1543 H 0.65906 0.65304 0.02839 0.0
H1544 H 0.59713 0.57295 0.9643 0.0
H1545 H 0.61247 0.5766 0.0388 0.0
H1546 H 0.64822 0.58841 0.95067 0.0
H1547 H 0.64526 0.6193 0.96019 0.0
H1548 H 0.62231 0.59409 0.94311 0.0
H1549 H 0.66718 0.59061 0.04323 0.0
H1550 H 0.64719 0.59863 0.06104 0.0
H1551 H 0.6649 0.62197 0.04924 0.0
C1552 C 0.69761 0.42757 0.267 0.0
C1553 C 0.71035 0.45301 0.27485 0.0
C1554 C 0.70695 0.40668 0.2649 0.0
C1555 C 0.73006 0.41032 0.27004 0.0
C1556 C 0.74298 0.43598 0.27719 0.0
C1557 C 0.73318 0.45642 0.27997 0.0
C1558 C 0.6918 0.38038 0.25782 0.0
C1559 C 0.76752 0.44202 0.28223 0.0
C1560 C 0.75492 0.35778 0.28735 0.0
C1561 C 0.76139 0.34618 0.26611 0.0
C1562 C 0.74486 0.37797 0.28877 0.0
C1563 C 0.7406 0.38775 0.26851 0.0
C1564 C 0.74708 0.37601 0.24698 0.0
C1565 C 0.75727 0.35595 0.24611 0.0
C1566 C 0.73891 0.38911 0.31239 0.0
C1567 C 0.74336 0.38481 0.22458 0.0
H1568 H 0.68001 0.42384 0.2635 0.0
H1569 H 0.74366 0.47548 0.28636 0.0
H1570 H 0.69606 0.36956 0.24153 0.0
H1571 H 0.69384 0.37063 0.27224 0.0
H1572 H 0.67438 0.3801 0.25436 0.0
H1573 H 0.77563 0.46249 0.28587 0.0
H1574 H 0.7723 0.43515 0.29791 0.0
H1575 H 0.77371 0.43223 0.26679 0.0
H1576 H 0.75809 0.35126 0.30325 0.0
H1577 H 0.76215 0.34789 0.22951 0.0
H1578 H 0.72125 0.38797 0.31028 0.0
H1579 H 0.74809 0.40928 0.31851 0.0
H1580 H 0.74254 0.37946 0.32643 0.0
H1581 H 0.72555 0.38096 0.21886 0.0
H1582 H 0.75039 0.37538 0.20967 0.0
H1583 H 0.75068 0.40541 0.2281 0.0
C1584 C 0.88642 0.461 0.48512 0.0
C1585 C 0.87768 0.48076 0.49361 0.0
C1586 C 0.90892 0.46452 0.48844 0.0
C1587 C 0.92282 0.48891 0.49859 0.0
C1588 C 0.91407 0.5096 0.50426 0.0
C1589 C 0.89135 0.50516 0.50215 0.0
C1590 C 0.9176 0.44188 0.48311 0.0
C1591 C 0.92862 0.53607 0.51395 0.0
C1592 C 0.97995 0.49963 0.53021 0.0
C1593 C 0.99214 0.50401 0.51187 0.0
C1594 C 0.95707 0.49358 0.52591 0.0
C1595 C 0.94655 0.49274 0.50304 0.0
C1596 C 0.95869 0.49593 0.48427 0.0
C1597 C 0.98127 0.50081 0.48875 0.0
C1598 C 0.94427 0.489 0.54599 0.0
C1599 C 0.94799 0.49574 0.45982 0.0
H1600 H 0.87561 0.44224 0.4783 0.0
H1601 H 0.88442 0.5203 0.50901 0.0
H1602 H 0.92957 0.44412 0.47048 0.0
H1603 H 0.92634 0.44011 0.49983 0.0
H1604 H 0.9044 0.42416 0.47541 0.0
H1605 H 0.91925 0.55016 0.51512 0.0
H1606 H 0.93716 0.53797 0.53205 0.0
H1607 H 0.94133 0.5404 0.50242 0.0
H1608 H 0.98823 0.50187 0.54803 0.0
H1609 H 0.99047 0.50365 0.47425 0.0
H1610 H 0.93069 0.4714 0.53985 0.0
H1611 H 0.93687 0.50455 0.5516 0.0
H1612 H 0.95469 0.48768 0.5618 0.0
H1613 H 0.9355 0.47756 0.45192 0.0
H1614 H 0.95996 0.49894 0.44726 0.0
H1615 H 0.93944 0.51061 0.46145 0.0
C1616 C 0.39247 0.0787 0.25695 0.0
C1617 C 0.39278 0.08052 0.28155 0.0
C1618 C 0.37744 0.08698 0.24415 0.0
C1619 C 0.3627 0.0976 0.25643 0.0
C1620 C 0.36157 0.0972 0.2807 0.0
C1621 C 0.37666 0.08851 0.29301 0.0
C1622 C 0.37872 0.08624 0.21812 0.0
C1623 C 0.34576 0.10806 0.29429 0.0
C1624 C 0.35007 0.1561 0.24834 0.0
C1625 C 0.32747 0.14719 0.24067 0.0
C1626 C 0.36241 0.13958 0.25093 0.0
C1627 C 0.35172 0.1136 0.24596 0.0
C1628 C 0.32954 0.10424 0.2354 0.0
C1629 C 0.31755 0.12127 0.2329 0.0
C1630 C 0.38634 0.1502 0.26144 0.0
C1631 C 0.31797 0.0765 0.22894 0.0
H1632 H 0.40446 0.07154 0.24779 0.0
H1633 H 0.37663 0.08935 0.31188 0.0
H1634 H 0.36263 0.08456 0.20802 0.0
H1635 H 0.3904 0.10386 0.21668 0.0
H1636 H 0.38477 0.07033 0.20961 0.0
H1637 H 0.34506 0.10336 0.31193 0.0
H1638 H 0.35093 0.12881 0.29728 0.0
H1639 H 0.32908 0.10104 0.28386 0.0
H1640 H 0.35785 0.17611 0.25397 0.0
H1641 H 0.30011 0.11428 0.2267 0.0
H1642 H 0.3963 0.13965 0.25121 0.0
H1643 H 0.38865 0.14829 0.28011 0.0
H1644 H 0.39266 0.17036 0.26155 0.0
H1645 H 0.32886 0.06537 0.2216 0.0
H1646 H 0.30299 0.07195 0.21568 0.0
H1647 H 0.31309 0.07065 0.24524 0.0
C1648 C 0.3551 0.1756 0.52673 0.0
C1649 C 0.3356 0.15847 0.51393 0.0
C1650 C 0.37369 0.16756 0.53205 0.0
C1651 C 0.37308 0.14208 0.52313 0.0
C1652 C 0.35325 0.12476 0.5104 0.0
C1653 C 0.33467 0.13308 0.50648 0.0
C1654 C 0.39404 0.18654 0.54666 0.0
C1655 C 0.35191 0.09763 0.49985 0.0
C1656 C 0.42389 0.12337 0.50704 0.0
C1657 C 0.42707 0.10926 0.52359 0.0
C1658 C 0.4071 0.13522 0.50745 0.0
C1659 C 0.39332 0.13354 0.52521 0.0
C1660 C 0.39756 0.12114 0.54319 0.0
C1661 C 0.41419 0.10892 0.54204 0.0
C1662 C 0.4034 0.14844 0.48805 0.0
C1663 C 0.38398 0.11997 0.56313 0.0
H1664 H 0.3558 0.19525 0.53265 0.0
H1665 H 0.31964 0.11988 0.49638 0.0
H1666 H 0.40307 0.17797 0.55823 0.0
H1667 H 0.40505 0.19396 0.53453 0.0
H1668 H 0.39005 0.20266 0.55808 0.0
H1669 H 0.33535 0.08665 0.49021 0.0
H1670 H 0.36385 0.09658 0.48717 0.0
H1671 H 0.35625 0.08866 0.51413 0.0
H1672 H 0.43418 0.12458 0.49322 0.0
H1673 H 0.41643 0.09823 0.55504 0.0
H1674 H 0.40413 0.16821 0.49608 0.0
H1675 H 0.38686 0.13923 0.47755 0.0
H1676 H 0.41567 0.1483 0.47565 0.0
H1677 H 0.38242 0.13889 0.57112 0.0
H1678 H 0.39113 0.11273 0.57742 0.0
H1679 H 0.36726 0.10749 0.55594 0.0
C1680 C 0.70744 0.5976 0.26637 0.0
C1681 C 0.71328 0.58967 0.28701 0.0
C1682 C 0.71822 0.62176 0.26276 0.0
C1683 C 0.73544 0.63932 0.28019 0.0
C1684 C 0.74109 0.63153 0.30117 0.0
C1685 C 0.73024 0.60727 0.3042 0.0
C1686 C 0.71136 0.62831 0.23991 0.0
C1687 C 0.75894 0.64891 0.32061 0.0
C1688 C 0.78144 0.69004 0.2635 0.0
C1689 C 0.77616 0.7129 0.27098 0.0
C1690 C 0.76814 0.66648 0.26555 0.0
C1691 C 0.74866 0.66477 0.27594 0.0
C1692 C 0.74288 0.68772 0.2832 0.0
C1693 C 0.75643 0.71122 0.28053 0.0
C1694 C 0.77538 0.64327 0.25696 0.0
C1695 C 0.72255 0.68759 0.29446 0.0
H1696 H 0.69448 0.58476 0.25275 0.0
H1697 H 0.73516 0.60211 0.32039 0.0
H1698 H 0.70724 0.64643 0.24395 0.0
H1699 H 0.72516 0.63073 0.22948 0.0
H1700 H 0.69704 0.61364 0.22865 0.0
H1701 H 0.76072 0.64109 0.33648 0.0
H1702 H 0.77476 0.65251 0.31366 0.0
H1703 H 0.75547 0.66727 0.32631 0.0
H1704 H 0.79647 0.69056 0.25611 0.0
H1705 H 0.75196 0.72836 0.2868 0.0
H1706 H 0.76194 0.62856 0.24443 0.0
H1707 H 0.77936 0.63556 0.27234 0.0
H1708 H 0.78998 0.64711 0.24781 0.0
H1709 H 0.70806 0.67453 0.28208 0.0
H1710 H 0.71996 0.70654 0.29908 0.0
H1711 H 0.72366 0.68065 0.31094 0.0
C1712 C 0.88843 0.47411 0.75921 0.0
C1713 C 0.90511 0.4793 0.77842 0.0
C1714 C 0.87447 0.44968 0.7505 0.0
C1715 C 0.8778 0.4304 0.76115 0.0
C1716 C 0.89609 0.4353 0.77892 0.0
C1717 C 0.90936 0.45988 0.78762 0.0
C1718 C 0.85508 0.44518 0.73165 0.0
C1719 C 0.90062 0.41503 0.79017 0.0
C1720 C 0.83297 0.37931 0.77317 0.0
C1721 C 0.83501 0.35827 0.757 0.0
C1722 C 0.84546 0.4034 0.7731 0.0
C1723 C 0.8607 0.40626 0.75688 0.0
C1724 C 0.86174 0.38524 0.73944 0.0
C1725 C 0.84858 0.3614 0.73949 0.0
C1726 C 0.84353 0.42554 0.79161 0.0
C1727 C 0.87787 0.38767 0.72198 0.0
H1728 H 0.88532 0.48939 0.75224 0.0
H1729 H 0.92253 0.46415 0.80235 0.0
H1730 H 0.85156 0.42653 0.71905 0.0
H1731 H 0.84043 0.44559 0.74045 0.0
H1732 H 0.85768 0.45988 0.72137 0.0
H1733 H 0.91718 0.42107 0.80091 0.0
H1734 H 0.8884 0.41025 0.80212 0.0
H1735 H 0.89916 0.39771 0.77627 0.0
H1736 H 0.82213 0.3769 0.78638 0.0
H1737 H 0.84999 0.3451 0.72677 0.0
H1738 H 0.84297 0.44141 0.78342 0.0
H1739 H 0.85808 0.43207 0.8057 0.0
H1740 H 0.82871 0.4207 0.80024 0.0
H1741 H 0.87527 0.40116 0.71145 0.0
H1742 H 0.87648 0.36943 0.70944 0.0
H1743 H 0.89479 0.39516 0.73183 0.0
C1744 C 0.08873 0.87774 0.06297 0.0
C1745 C 0.07913 0.87515 0.0835 0.0
C1746 C 0.08646 0.89677 0.05125 0.0
C1747 C 0.0742 0.91349 0.06013 0.0
C1748 C 0.06486 0.91103 0.08107 0.0
C1749 C 0.06741 0.89204 0.09234 0.0
C1750 C 0.09659 0.89852 0.02893 0.0
C1751 C 0.05157 0.92808 0.09134 0.0
C1752 C 0.082 0.9781 0.04651 0.0
C1753 C 0.06289 0.97473 0.03063 0.0
C1754 C 0.08625 0.95821 0.0554 0.0
C1755 C 0.07126 0.93391 0.04813 0.0
C1756 C 0.05237 0.93006 0.03131 0.0
C1757 C 0.04834 0.95045 0.02293 0.0
C1758 C 0.10641 0.96356 0.07348 0.0
C1759 C 0.03608 0.90447 0.02261 0.0
H1760 H 0.09719 0.86431 0.05554 0.0
H1761 H 0.05948 0.88979 0.10784 0.0
H1762 H 0.08366 0.89573 0.01371 0.0
H1763 H 0.10796 0.91751 0.03127 0.0
H1764 H 0.1057 0.88436 0.0243 0.0
H1765 H 0.04581 0.92414 0.10804 0.0
H1766 H 0.06145 0.94798 0.0952 0.0
H1767 H 0.0371 0.92576 0.07812 0.0
H1768 H 0.09349 0.99662 0.0527 0.0
H1769 H 0.03362 0.9474 0.01057 0.0
H1770 H 0.1158 0.94995 0.06789 0.0
H1771 H 0.1015 0.96129 0.09096 0.0
H1772 H 0.11732 0.98287 0.07597 0.0
H1773 H 0.04455 0.89026 0.01573 0.0
H1774 H 0.02313 0.90402 0.00827 0.0
H1775 H 0.02819 0.8989 0.03768 0.0
C1776 C 0.95462 0.28475 0.85367 0.0
C1777 C 0.95384 0.2685 0.86904 0.0
C1778 C 0.9354 0.2872 0.84174 0.0
C1779 C 0.91469 0.27305 0.84514 0.0
C1780 C 0.91379 0.25755 0.86154 0.0
C1781 C 0.93332 0.25544 0.87325 0.0
C1782 C 0.93734 0.30396 0.82451 0.0
C1783 C 0.89216 0.2423 0.86595 0.0
C1784 C 0.86356 0.28895 0.82027 0.0
C1785 C 0.85631 0.2705 0.79869 0.0
C1786 C 0.88219 0.28976 0.8359 0.0
C1787 C 0.89427 0.2722 0.8295 0.0
C1788 C 0.8871 0.2538 0.80759 0.0
C1789 C 0.86815 0.25295 0.79276 0.0
C1790 C 0.88897 0.30939 0.85926 0.0
C1791 C 0.89969 0.23515 0.79954 0.0
H1792 H 0.97034 0.29512 0.85037 0.0
H1793 H 0.93246 0.2429 0.88511 0.0
H1794 H 0.93159 0.29228 0.80599 0.0
H1795 H 0.92682 0.3167 0.8281 0.0
H1796 H 0.95443 0.31549 0.82555 0.0
H1797 H 0.89406 0.23352 0.88115 0.0
H1798 H 0.88101 0.25427 0.86965 0.0
H1799 H 0.88423 0.2272 0.8497 0.0
H1800 H 0.85461 0.30265 0.82499 0.0
H1801 H 0.86292 0.23875 0.77605 0.0
H1802 H 0.90557 0.32183 0.85979 0.0
H1803 H 0.88978 0.30022 0.87432 0.0
H1804 H 0.8775 0.32112 0.86207 0.0
H1805 H 0.91672 0.24526 0.79839 0.0
H1806 H 0.89218 0.22226 0.78184 0.0
H1807 H 0.90054 0.22375 0.81279 0.0
C1808 C 0.56026 0.23894 0.55467 0.0
C1809 C 0.57296 0.25159 0.57697 0.0
C1810 C 0.56033 0.21444 0.5436 0.0
C1811 C 0.57292 0.20205 0.55541 0.0
C1812 C 0.58667 0.21522 0.57729 0.0
C1813 C 0.58672 0.23993 0.58766 0.0
C1814 C 0.54597 0.20133 0.5199 0.0
C1815 C 0.60008 0.20261 0.59071 0.0
C1816 C 0.54829 0.13183 0.54553 0.0
C1817 C 0.56208 0.12208 0.53123 0.0
C1818 C 0.55191 0.15777 0.55373 0.0
C1819 C 0.56931 0.17447 0.54673 0.0
C1820 C 0.58308 0.16471 0.53185 0.0
C1821 C 0.57955 0.13853 0.52463 0.0
C1822 C 0.53726 0.16729 0.57021 0.0
C1823 C 0.60127 0.18186 0.52329 0.0
H1824 H 0.54981 0.24795 0.54613 0.0
H1825 H 0.59656 0.24955 0.6049 0.0
H1826 H 0.55492 0.19132 0.50756 0.0
H1827 H 0.53152 0.18711 0.52263 0.0
H1828 H 0.5401 0.21466 0.51126 0.0
H1829 H 0.61159 0.21612 0.60613 0.0
H1830 H 0.58898 0.188 0.59747 0.0
H1831 H 0.60956 0.1931 0.5787 0.0
H1832 H 0.53495 0.11908 0.55091 0.0
H1833 H 0.59014 0.13091 0.51347 0.0
H1834 H 0.5283 0.17833 0.56168 0.0
H1835 H 0.54726 0.17997 0.58699 0.0
H1836 H 0.52513 0.1518 0.57482 0.0
H1837 H 0.59425 0.19256 0.51223 0.0
H1838 H 0.61098 0.17137 0.51249 0.0
H1839 H 0.61241 0.19577 0.53868 0.0
C1840 C 0.58812 0.79194 0.38816 0.0
C1841 C 0.57311 0.7702 0.37349 0.0
C1842 C 0.60962 0.80022 0.38325 0.0
C1843 C 0.6162 0.78638 0.36327 0.0
C1844 C 0.60121 0.76421 0.34876 0.0
C1845 C 0.57992 0.7565 0.35398 0.0
C1846 C 0.62496 0.82412 0.39903 0.0
C1847 C 0.60756 0.74871 0.32741 0.0
C1848 C 0.66041 0.81098 0.32812 0.0
C1849 C 0.67634 0.79944 0.33433 0.0
C1850 C 0.6416 0.80901 0.3392 0.0
C1851 C 0.63845 0.7949 0.3567 0.0
C1852 C 0.65538 0.78522 0.36459 0.0
C1853 C 0.67413 0.78764 0.35335 0.0
C1854 C 0.62427 0.8203 0.33074 0.0
C1855 C 0.65296 0.77062 0.38363 0.0
H1856 H 0.58299 0.80275 0.40321 0.0
H1857 H 0.56853 0.73963 0.34261 0.0
H1858 H 0.64156 0.82198 0.40301 0.0
H1859 H 0.62646 0.83943 0.38958 0.0
H1860 H 0.61897 0.82993 0.41615 0.0
H1861 H 0.59421 0.73154 0.31839 0.0
H1862 H 0.61193 0.76009 0.31424 0.0
H1863 H 0.62217 0.74298 0.33304 0.0
H1864 H 0.66187 0.8202 0.31352 0.0
H1865 H 0.68666 0.77936 0.35882 0.0
H1866 H 0.61798 0.82995 0.34615 0.0
H1867 H 0.6103 0.80512 0.31952 0.0
H1868 H 0.63055 0.83392 0.32001 0.0
H1869 H 0.64679 0.78055 0.39899 0.0
H1870 H 0.66866 0.76755 0.39021 0.0
H1871 H 0.64083 0.75205 0.37621 0.0
C1872 C 0.09572 0.26798 0.43857 0.0
C1873 C 0.08138 0.27273 0.42162 0.0
C1874 C 0.08772 0.25104 0.45235 0.0
C1875 C 0.06505 0.2386 0.44869 0.0
C1876 C 0.05048 0.24424 0.43242 0.0
C1877 C 0.05884 0.26126 0.41913 0.0
C1878 C 0.10357 0.24551 0.46995 0.0
C1879 C 0.02621 0.2312 0.42793 0.0
C1880 C 0.05071 0.17384 0.45979 0.0
C1881 C 0.0454 0.17866 0.48294 0.0
C1882 C 0.05663 0.19319 0.44817 0.0
C1883 C 0.05685 0.21776 0.45992 0.0
C1884 C 0.0498 0.22238 0.48244 0.0
C1885 C 0.04427 0.20272 0.49381 0.0
C1886 C 0.06362 0.18754 0.42385 0.0
C1887 C 0.04919 0.24828 0.49504 0.0
H1888 H 0.11312 0.27696 0.44062 0.0
H1889 H 0.04764 0.26456 0.4059 0.0
H1890 H 0.09779 0.24689 0.48755 0.0
H1891 H 0.10447 0.22601 0.46352 0.0
H1892 H 0.12027 0.25853 0.47242 0.0
H1893 H 0.01694 0.23942 0.4162 0.0
H1894 H 0.02331 0.21102 0.41929 0.0
H1895 H 0.01956 0.23227 0.44504 0.0
H1896 H 0.05109 0.15511 0.45114 0.0
H1897 H 0.04024 0.20655 0.51174 0.0
H1898 H 0.0812 0.19742 0.42507 0.0
H1899 H 0.05434 0.19452 0.41098 0.0
H1900 H 0.06117 0.16713 0.4166 0.0
H1901 H 0.06614 0.26068 0.50085 0.0
H1902 H 0.04077 0.24801 0.51098 0.0
H1903 H 0.04077 0.25669 0.48276 0.0
C1904 C 0.57647 0.26924 0.17896 0.0
C1905 C 0.56268 0.27826 0.19364 0.0
C1906 C 0.5899 0.25571 0.18688 0.0
C1907 C 0.58954 0.25162 0.21015 0.0
C1908 C 0.57312 0.25725 0.22336 0.0
C1909 C 0.55978 0.27071 0.21489 0.0
C1910 C 0.60687 0.24964 0.17197 0.0
C1911 C 0.57182 0.25259 0.24795 0.0
C1912 C 0.63312 0.22263 0.22992 0.0
C1913 C 0.65066 0.24423 0.2392 0.0
C1914 C 0.61248 0.22455 0.22157 0.0
C1915 C 0.60955 0.2486 0.22266 0.0
C1916 C 0.62692 0.27043 0.23356 0.0
C1917 C 0.64726 0.26793 0.24166 0.0
C1918 C 0.59431 0.20094 0.21031 0.0
C1919 C 0.62447 0.29653 0.23537 0.0
H1920 H 0.57859 0.27522 0.1625 0.0
H1921 H 0.54907 0.27786 0.22622 0.0
H1922 H 0.62261 0.26447 0.17857 0.0
H1923 H 0.60964 0.23146 0.17336 0.0
H1924 H 0.60204 0.24885 0.15285 0.0
H1925 H 0.55518 0.25118 0.25271 0.0
H1926 H 0.57619 0.23517 0.24925 0.0
H1927 H 0.58355 0.2685 0.26126 0.0
H1928 H 0.63584 0.20428 0.22803 0.0
H1929 H 0.66082 0.28458 0.2492 0.0
H1930 H 0.59201 0.19819 0.19062 0.0
H1931 H 0.57864 0.20246 0.21636 0.0
H1932 H 0.59796 0.18408 0.21456 0.0
H1933 H 0.62175 0.29969 0.21721 0.0
H1934 H 0.63914 0.3114 0.24572 0.0
H1935 H 0.61009 0.29863 0.24407 0.0
C1936 C 0.60374 0.90667 0.91268 0.0
C1937 C 0.59146 0.88332 0.91495 0.0
C1938 C 0.60101 0.92879 0.92665 0.0
C1939 C 0.58606 0.92708 0.94327 0.0
C1940 C 0.57393 0.90342 0.9457 0.0
C1941 C 0.57672 0.88188 0.9314 0.0
C1942 C 0.61384 0.95389 0.92352 0.0
C1943 C 0.55817 0.90072 0.96356 0.0
C1944 C 0.59386 0.97884 0.99841 0.0
C1945 C 0.57628 0.98841 0.99354 0.0
C1946 C 0.5977 0.9594 0.98174 0.0
C1947 C 0.58396 0.94984 0.95945 0.0
C1948 C 0.56677 0.96021 0.95393 0.0
C1949 C 0.56297 0.97934 0.97126 0.0
C1950 C 0.61567 0.94813 0.98852 0.0
C1951 C 0.55201 0.95049 0.93012 0.0
H1952 H 0.61481 0.90761 0.89958 0.0
H1953 H 0.5672 0.86369 0.93305 0.0
H1954 H 0.60251 0.96483 0.91935 0.0
H1955 H 0.62468 0.9649 0.94042 0.0
H1956 H 0.62401 0.95195 0.90905 0.0
H1957 H 0.55008 0.88077 0.96303 0.0
H1958 H 0.56698 0.91014 0.98189 0.0
H1959 H 0.54532 0.90996 0.96003 0.0
H1960 H 0.60421 0.98592 0.01566 0.0
H1961 H 0.54945 0.98689 0.96752 0.0
H1962 H 0.62675 0.94789 0.97487 0.0
H1963 H 0.60842 0.92836 0.98921 0.0
H1964 H 0.62553 0.95856 0.00618 0.0
H1965 H 0.56193 0.95024 0.91536 0.0
H1966 H 0.54068 0.96204 0.92788 0.0
H1967 H 0.54215 0.93089 0.92841 0.0
C1968 C 0.92378 0.72862 0.69381 0.0
C1969 C 0.93969 0.74711 0.68767 0.0
C1970 C 0.90999 0.73563 0.70974 0.0
C1971 C 0.91303 0.76148 0.71985 0.0
C1972 C 0.92998 0.78 0.7146 0.0
C1973 C 0.94295 0.77253 0.69822 0.0
C1974 C 0.89173 0.71564 0.71502 0.0
C1975 C 0.93393 0.80769 0.72555 0.0
C1976 C 0.86398 0.78316 0.73265 0.0
C1977 C 0.86564 0.7858 0.75725 0.0
C1978 C 0.87926 0.77477 0.72021 0.0
C1979 C 0.89669 0.76955 0.73303 0.0
C1980 C 0.89886 0.77314 0.75815 0.0
C1981 C 0.88284 0.78089 0.77008 0.0
C1982 C 0.87655 0.77118 0.69337 0.0
C1983 C 0.91779 0.76852 0.77224 0.0
H1984 H 0.92197 0.70898 0.68597 0.0
H1985 H 0.95597 0.7866 0.69387 0.0
H1986 H 0.89214 0.71818 0.73459 0.0
H1987 H 0.87574 0.71742 0.70767 0.0
H1988 H 0.89268 0.69639 0.70718 0.0
H1989 H 0.94956 0.81922 0.72193 0.0
H1990 H 0.92041 0.81418 0.71814 0.0
H1991 H 0.9342 0.81117 0.74517 0.0
H1992 H 0.85025 0.78684 0.72307 0.0
H1993 H 0.88359 0.78288 0.7892 0.0
H1994 H 0.8759 0.7516 0.6846 0.0
H1995 H 0.8908 0.78376 0.68831 0.0
H1996 H 0.86148 0.77521 0.68622 0.0
H1997 H 0.91632 0.74814 0.76803 0.0
H1998 H 0.91838 0.77517 0.79182 0.0
H1999 H 0.93351 0.77812 0.76723 0.0
C2000 C 0.11339 0.01058 0.84271 0.0
C2001 C 0.13579 0.02261 0.84332 0.0
C2002 C 0.10294 0.01146 0.86367 0.0
C2003 C 0.11446 0.02588 0.88664 0.0
C2004 C 0.13705 0.03847 0.88732 0.0
C2005 C 0.14739 0.03627 0.86615 0.0
C2006 C 0.07927 0.99676 0.86099 0.0
C2007 C 0.15033 0.05493 0.91055 0.0
C2008 C 0.07903 0.04647 0.9355 0.0
C2009 C 0.07914 0.03032 0.95107 0.0
C2010 C 0.0907 0.04575 0.9154 0.0
C2011 C 0.10287 0.02798 0.90949 0.0
C2012 C 0.10299 0.01158 0.92516 0.0
C2013 C 0.09131 0.01287 0.9453 0.0
C2014 C 0.08936 0.06376 0.89993 0.0
C2015 C 0.11466 0.99157 0.91996 0.0
H2016 H 0.10388 0.99984 0.82558 0.0
H2017 H 0.16454 0.04601 0.86743 0.0
H2018 H 0.07648 0.98691 0.87557 0.0
H2019 H 0.06893 0.00981 0.86212 0.0
H2020 H 0.0738 0.98268 0.84358 0.0
H2021 H 0.16729 0.06436 0.90843 0.0
H2022 H 0.14233 0.06949 0.91788 0.0
H2023 H 0.15104 0.04357 0.92386 0.0
H2024 H 0.06915 0.05941 0.93865 0.0
H2025 H 0.09105 0.9994 0.95611 0.0
H2026 H 0.07906 0.05333 0.88255 0.0
H2027 H 0.10584 0.07271 0.89619 0.0
H2028 H 0.08213 0.07866 0.90834 0.0
H2029 H 0.10677 0.97814 0.90266 0.0
H2030 H 0.11442 0.98102 0.9341 0.0
H2031 H 0.1319 1.00005 0.91818 0.0
C2032 C 0.83719 0.42775 0.59364 0.0
C2033 C 0.82466 0.41138 0.57264 0.0
C2034 C 0.84175 0.4188 0.61361 0.0
C2035 C 0.83266 0.39315 0.6126 0.0
C2036 C 0.81759 0.37731 0.59245 0.0
C2037 C 0.81413 0.38655 0.57228 0.0
C2038 C 0.85782 0.43616 0.63476 0.0
C2039 C 0.80663 0.3501 0.59139 0.0
C2040 C 0.85913 0.35156 0.63957 0.0
C2041 C 0.84747 0.34909 0.65859 0.0
C2042 C 0.85624 0.36833 0.62585 0.0
C2043 C 0.84081 0.38197 0.63101 0.0
C2044 C 0.8313 0.3819 0.65209 0.0
C2045 C 0.83527 0.3658 0.66604 0.0
C2046 C 0.86823 0.36968 0.60465 0.0
C2047 C 0.81586 0.3973 0.65944 0.0
H2048 H 0.84533 0.44699 0.59352 0.0
H2049 H 0.80464 0.37398 0.55582 0.0
H2050 H 0.84963 0.43809 0.65084 0.0
H2051 H 0.87154 0.42819 0.63851 0.0
H2052 H 0.86465 0.45517 0.63182 0.0
H2053 H 0.81823 0.33886 0.58705 0.0
H2054 H 0.80173 0.34785 0.60889 0.0
H2055 H 0.79194 0.34232 0.57744 0.0
H2056 H 0.869 0.33902 0.63419 0.0
H2057 H 0.82717 0.36462 0.68161 0.0
H2058 H 0.87284 0.38908 0.60208 0.0
H2059 H 0.85744 0.35723 0.58824 0.0
H2060 H 0.88324 0.36344 0.60675 0.0
H2061 H 0.82497 0.41416 0.67366 0.0
H2062 H 0.80238 0.3865 0.66716 0.0
H2063 H 0.80863 0.40358 0.64454 0.0
C2064 C 0.49296 0.02541 0.34509 0.0
C2065 C 0.47796 0.03958 0.34668 0.0
C2066 C 0.5006 0.01821 0.36513 0.0
C2067 C 0.49321 0.02583 0.38701 0.0
C2068 C 0.47607 0.03731 0.38786 0.0
C2069 C 0.46873 0.04423 0.36762 0.0
C2070 C 0.51837 1.00513 0.36358 0.0
C2071 C 0.46753 0.04538 0.41086 0.0
C2072 C 0.51643 0.01336 0.4439 0.0
C2073 C 0.53405 0.03502 0.45217 0.0
C2074 C 0.50295 0.00968 0.42235 0.0
C2075 C 0.50717 0.02843 0.40941 0.0
C2076 C 0.52477 0.05057 0.41807 0.0
C2077 C 0.53823 0.0534 0.4393 0.0
C2078 C 0.48455 0.98575 0.41335 0.0
C2079 C 0.52929 0.0714 0.40507 0.0
H2080 H 0.49961 0.02112 0.32865 0.0
H2081 H 0.45695 0.05497 0.36891 0.0
H2082 H 0.53447 0.01918 0.37062 0.0
H2083 H 0.51618 0.9911 0.37456 0.0
H2084 H 0.51872 0.99558 0.34485 0.0
H2085 H 0.4511 0.0482 0.40739 0.0
H2086 H 0.46656 0.03143 0.42184 0.0
H2087 H 0.47887 0.06344 0.4215 0.0
H2088 H 0.51344 0.99914 0.45407 0.0
H2089 H 0.55179 0.07021 0.44609 0.0
H2090 H 0.48837 0.97415 0.39722 0.0
H2091 H 0.46905 0.98989 0.40802 0.0
H2092 H 0.48197 0.9745 0.42693 0.0
H2093 H 0.53288 0.06422 0.38697 0.0
H2094 H 0.54333 0.08757 0.41468 0.0
H2095 H 0.51467 0.07829 0.40289 0.0
C2096 C 0.78566 0.71861 0.07781 0.0
C2097 C 0.79872 0.73485 0.06617 0.0
C2098 C 0.78441 0.72608 0.10224 0.0
C2099 C 0.79593 0.75073 0.11536 0.0
C2100 C 0.80815 0.76772 0.1034 0.0
C2101 C 0.80974 0.75944 0.07907 0.0
C2102 C 0.77177 0.70706 0.1143 0.0
C2103 C 0.82017 0.79438 0.11651 0.0
C2104 C 0.78069 0.77204 0.17721 0.0
C2105 C 0.79742 0.76832 0.19221 0.0
C2106 C 0.78027 0.76708 0.15222 0.0
C2107 C 0.79675 0.75779 0.14192 0.0
C2108 C 0.81365 0.75404 0.15699 0.0
C2109 C 0.81384 0.75945 0.18182 0.0
C2110 C 0.7622 0.77178 0.13683 0.0
C2111 C 0.83141 0.74383 0.14687 0.0
H2112 H 0.77732 0.69946 0.06811 0.0
H2113 H 0.81984 0.7721 0.07021 0.0
H2114 H 0.78317 0.70323 0.12769 0.0
H2115 H 0.75978 0.71456 0.124 0.0
H2116 H 0.7629 0.68902 0.10141 0.0
H2117 H 0.82642 0.8061 0.10412 0.0
H2118 H 0.80929 0.80311 0.12708 0.0
H2119 H 0.83424 0.79445 0.12921 0.0
H2120 H 0.76805 0.77911 0.185 0.0
H2121 H 0.82687 0.75642 0.1931 0.0
H2122 H 0.75229 0.75391 0.12446 0.0
H2123 H 0.7693 0.78459 0.12569 0.0
H2124 H 0.75121 0.78015 0.14759 0.0
H2125 H 0.82403 0.72502 0.13462 0.0
H2126 H 0.84349 0.74218 0.16102 0.0
H2127 H 0.84022 0.75621 0.13628 0.0
C2128 C 0.11551 0.02493 0.69576 0.0
C2129 C 0.12591 1.00559 0.69367 0.0
C2130 C 0.10497 0.03021 0.6753 0.0
C2131 C 0.10524 0.01659 0.65161 0.0
C2132 C 0.11629 0.99759 0.64953 0.0
C2133 C 0.12587 0.99208 0.67022 0.0
C2134 C 0.09271 0.04978 0.67913 0.0
C2135 C 0.11805 0.98287 0.62523 0.0
C2136 C 0.06363 0.01027 0.59522 0.0
C2137 C 0.07431 0.02948 0.58481 0.0
C2138 C 0.07284 0.00677 0.61725 0.0
C2139 C 0.09407 0.02183 0.62908 0.0
C2140 C 0.105 0.04105 0.61837 0.0
C2141 C 0.09488 0.045 0.59705 0.0
C2142 C 0.05963 0.98686 0.62791 0.0
C2143 C 0.12784 0.05713 0.62908 0.0
H2144 H 0.11477 0.0353 0.71351 0.0
H2145 H 0.13356 0.97698 0.66795 0.0
H2146 H 0.0992 0.0646 0.66977 0.0
H2147 H 0.07524 0.04098 0.67136 0.0
H2148 H 0.09375 0.05872 0.69836 0.0
H2149 H 0.12899 0.97065 0.6263 0.0
H2150 H 0.10165 0.97086 0.61613 0.0
H2151 H 0.12436 0.99586 0.61393 0.0
H2152 H 0.04771 0.99817 0.58634 0.0
H2153 H 0.10353 0.05984 0.5894 0.0
H2154 H 0.06004 0.9944 0.64731 0.0
H2155 H 0.06677 0.97083 0.62594 0.0
H2156 H 0.04232 0.97971 0.61912 0.0
H2157 H 0.12776 0.0686 0.64707 0.0
H2158 H 0.13489 0.06994 0.6179 0.0
H2159 H 0.13867 0.04503 0.63126 0.0
C2160 C 0.80482 0.3827 0.43873 0.0
C2161 C 0.8251 0.38747 0.45287 0.0
C2162 C 0.80033 0.36749 0.41537 0.0
C2163 C 0.81659 0.3571 0.40599 0.0
C2164 C 0.83708 0.36195 0.4201 0.0
C2165 C 0.84101 0.37686 0.4434 0.0
C2166 C 0.77827 0.36259 0.40068 0.0
C2167 C 0.855 0.35169 0.41046 0.0
C2168 C 0.80015 0.29895 0.3549 0.0
C2169 C 0.80413 0.30933 0.3353 0.0
C2170 C 0.80388 0.31439 0.37803 0.0
C2171 C 0.81215 0.34071 0.38154 0.0
C2172 C 0.81676 0.35123 0.36185 0.0
C2173 C 0.81248 0.33538 0.33888 0.0
C2174 C 0.79871 0.3026 0.39867 0.0
C2175 C 0.826 0.37918 0.36497 0.0
H2176 H 0.79253 0.39097 0.44584 0.0
H2177 H 0.85689 0.38072 0.45398 0.0
H2178 H 0.78031 0.36914 0.38406 0.0
H2179 H 0.77007 0.34211 0.39529 0.0
H2180 H 0.76745 0.37215 0.41056 0.0
H2181 H 0.87025 0.3578 0.42359 0.0
H2182 H 0.84944 0.33088 0.40546 0.0
H2183 H 0.85884 0.35797 0.39404 0.0
H2184 H 0.79358 0.27881 0.35211 0.0
H2185 H 0.8154 0.34343 0.32368 0.0
H2186 H 0.78671 0.31049 0.408 0.0
H2187 H 0.81371 0.3071 0.41183 0.0
H2188 H 0.79193 0.28187 0.39282 0.0
H2189 H 0.81404 0.38897 0.37177 0.0
H2190 H 0.82995 0.38411 0.34798 0.0
H2191 H 0.84107 0.38644 0.37838 0.0
C2192 C 0.48169 0.02202 0.23422 0.0
C2193 C 0.46226 0.02897 0.23386 0.0
C2194 C 0.48307 1.0011 0.21725 0.0
C2195 C 0.46459 0.98752 0.1998 0.0
C2196 C 0.44385 0.99019 0.20423 0.0
C2197 C 0.44291 0.01165 0.22093 0.0
C2198 C 0.50521 0.99688 0.21504 0.0
C2199 C 0.42333 0.97366 0.18802 0.0
C2200 C 0.48064 0.99905 0.14165 0.0
C2201 C 0.49009 0.97969 0.13418 0.0
C2202 C 0.47031 1.00052 0.16178 0.0
C2203 C 0.46854 0.98144 0.17455 0.0
C2204 C 0.47519 0.95986 0.16498 0.0
C2205 C 0.48652 0.95954 0.14519 0.0
C2206 C 0.46458 0.02465 0.17099 0.0
C2207 C 0.47159 0.93771 0.1761 0.0
H2208 H 0.49653 0.03504 0.24494 0.0
H2209 H 0.42764 0.01659 0.22126 0.0
H2210 H 0.50385 0.97655 0.21137 0.0
H2211 H 0.51169 1.00406 0.19992 0.0
H2212 H 0.51711 0.00663 0.23156 0.0
H2213 H 0.40908 0.9719 0.19782 0.0
H2214 H 0.42002 0.98212 0.17296 0.0
H2215 H 0.42508 0.9547 0.18052 0.0
H2216 H 0.48348 0.01481 0.13337 0.0
H2217 H 0.49335 0.94413 0.13904 0.0
H2218 H 0.47638 0.03558 0.18717 0.0
H2219 H 0.44778 0.021 0.17542 0.0
H2220 H 0.46566 0.03655 0.15791 0.0
H2221 H 0.4876 0.93613 0.18366 0.0
H2222 H 0.46382 0.92018 0.16206 0.0
H2223 H 0.46109 0.93893 0.1903 0.0
C2224 C 0.81221 0.72696 0.92561 0.0
C2225 C 0.7969 0.73052 0.94096 0.0
C2226 C 0.81272 0.73572 0.90469 0.0
C2227 C 0.79788 0.74906 0.899 0.0
C2228 C 0.78212 0.75252 0.91427 0.0
C2229 C 0.7816 0.74286 0.93493 0.0
C2230 C 0.82956 0.73109 0.88892 0.0
C2231 C 0.76638 0.76719 0.90919 0.0
C2232 C 0.81976 0.79269 0.85947 0.0
C2233 C 0.80834 0.77919 0.83676 0.0
C2234 C 0.81548 0.78384 0.87999 0.0
C2235 C 0.79994 0.76038 0.87779 0.0
C2236 C 0.78821 0.74675 0.85488 0.0
C2237 C 0.79223 0.75657 0.83473 0.0
C2238 C 0.82801 0.79942 0.904 0.0
C2239 C 0.77208 0.72131 0.8515 0.0
H2240 H 0.82398 0.71724 0.93005 0.0
H2241 H 0.76983 0.74578 0.94679 0.0
H2242 H 0.8216 0.72258 0.87013 0.0
H2243 H 0.84155 0.74918 0.88926 0.0
H2244 H 0.83861 0.71852 0.8947 0.0
H2245 H 0.75504 0.76811 0.92258 0.0
H2246 H 0.77562 0.7866 0.90918 0.0
H2247 H 0.75663 0.75854 0.89119 0.0
H2248 H 0.83198 0.81042 0.86128 0.0
H2249 H 0.78324 0.74618 0.81727 0.0
H2250 H 0.83968 0.78999 0.91062 0.0
H2251 H 0.81668 0.80122 0.91727 0.0
H2252 H 0.83736 0.81853 0.90313 0.0
H2253 H 0.78079 0.70794 0.85609 0.0
H2254 H 0.76344 0.71368 0.83285 0.0
H2255 H 0.75978 0.72238 0.86372 0.0
C2256 C 0.82449 0.07812 0.9994 0.0
C2257 C 0.82548 0.09643 0.02013 0.0
C2258 C 0.8432 0.07115 0.99357 0.0
C2259 C 0.86325 0.08244 0.00918 0.0
C2260 C 0.86434 0.10124 0.03007 0.0
C2261 C 0.8454 0.10829 0.03515 0.0
C2262 C 0.84146 0.05161 0.97078 0.0
C2263 C 0.88543 0.11371 0.04709 0.0
C2264 C 0.903 0.04314 0.00925 0.0
C2265 C 0.91818 0.0537 0.99576 0.0
C2266 C 0.88512 0.05244 0.01374 0.0
C2267 C 0.88251 0.07298 0.00467 0.0
C2268 C 0.89793 0.08383 0.99102 0.0
C2269 C 0.91563 0.07392 0.98661 0.0
C2270 C 0.86893 0.04018 0.02811 0.0
C2271 C 0.89562 0.10564 0.98092 0.0
H2272 H 0.8091 0.06967 0.98744 0.0
H2273 H 0.84613 0.12302 0.05078 0.0
H2274 H 0.85403 0.05877 0.96001 0.0
H2275 H 0.84457 0.03457 0.97511 0.0
H2276 H 0.8251 0.04617 0.9597 0.0
H2277 H 0.88364 0.12831 0.06228 0.0
H2278 H 0.89112 0.09942 0.0543 0.0
H2279 H 0.89834 0.12253 0.03749 0.0
H2280 H 0.9051 0.02744 0.01618 0.0
H2281 H 0.92751 0.08199 0.97616 0.0
H2282 H 0.85245 0.03259 0.01722 0.0
H2283 H 0.86775 0.05431 0.04402 0.0
H2284 H 0.87351 0.02462 0.03417 0.0
H2285 H 0.88056 0.09965 0.96759 0.0
H2286 H 0.9098 0.11301 0.97216 0.0
H2287 H 0.89393 0.1211 0.99526 0.0
C2288 C 0.38588 0.42747 0.01189 0.0
C2289 C 0.37704 0.43456 0.03262 0.0
C2290 C 0.40744 0.43993 0.00974 0.0
C2291 C 0.42024 0.4601 0.02866 0.0
C2292 C 0.41109 0.46739 0.04949 0.0
C2293 C 0.38969 0.45438 0.05127 0.0
C2294 C 0.41661 0.43138 0.98737 0.0
C2295 C 0.42389 0.48902 0.06991 0.0
C2296 C 0.48263 0.48077 0.03694 0.0
C2297 C 0.48672 0.50192 0.02744 0.0
C2298 C 0.46107 0.46633 0.0365 0.0
C2299 C 0.44321 0.47366 0.02691 0.0
C2300 C 0.4474 0.49497 0.01707 0.0
C2301 C 0.46912 0.50869 0.01726 0.0
C2302 C 0.4574 0.44355 0.04679 0.0
C2303 C 0.42895 0.50378 0.0071 0.0
H2304 H 0.37603 0.41201 0.99754 0.0
H2305 H 0.38273 0.45979 0.06728 0.0
H2306 H 0.42145 0.44705 0.97852 0.0
H2307 H 0.43155 0.42581 0.99205 0.0
H2308 H 0.40468 0.41525 0.97444 0.0
H2309 H 0.41426 0.49263 0.08464 0.0
H2310 H 0.43892 0.48507 0.0772 0.0
H2311 H 0.4291 0.50635 0.06341 0.0
H2312 H 0.4963 0.47565 0.04488 0.0
H2313 H 0.47238 0.52522 0.01009 0.0
H2314 H 0.44619 0.42697 0.03374 0.0
H2315 H 0.4495 0.44678 0.063 0.0
H2316 H 0.47291 0.43914 0.05169 0.0
H2317 H 0.41767 0.48841 0.99288 0.0
H2318 H 0.43493 0.52029 0.99957 0.0
H2319 H 0.41933 0.50891 0.02139 0.0
C2320 C 0.39162 0.63954 0.75354 0.0
C2321 C 0.39028 0.62694 0.77231 0.0
C2322 C 0.38158 0.65957 0.75262 0.0
C2323 C 0.36969 0.66826 0.77094 0.0
C2324 C 0.3684 0.65564 0.78985 0.0
C2325 C 0.37834 0.63569 0.79021 0.0
C2326 C 0.38376 0.6716 0.73181 0.0
C2327 C 0.35647 0.66336 0.81016 0.0
C2328 C 0.35795 0.73501 0.78093 0.0
C2329 C 0.33553 0.72958 0.77158 0.0
C2330 C 0.36908 0.7158 0.78075 0.0
C2331 C 0.35822 0.68975 0.77037 0.0
C2332 C 0.33575 0.68433 0.76045 0.0
C2333 C 0.32491 0.70376 0.76141 0.0
C2334 C 0.39267 0.72352 0.79217 0.0
C2335 C 0.32289 0.65762 0.74862 0.0
H2336 H 0.40067 0.63387 0.73946 0.0
H2337 H 0.37679 0.62695 0.80513 0.0
H2338 H 0.36733 0.67053 0.72292 0.0
H2339 H 0.39282 0.69177 0.7383 0.0
H2340 H 0.39248 0.66253 0.71843 0.0
H2341 H 0.35757 0.65289 0.8242 0.0
H2342 H 0.36328 0.68375 0.81843 0.0
H2343 H 0.33897 0.66004 0.80328 0.0
H2344 H 0.36687 0.75444 0.78894 0.0
H2345 H 0.30781 0.69856 0.75377 0.0
H2346 H 0.40286 0.71745 0.77888 0.0
H2347 H 0.39439 0.71402 0.80685 0.0
H2348 H 0.39911 0.74414 0.79951 0.0
H2349 H 0.33151 0.64946 0.73459 0.0
H2350 H 0.30613 0.65619 0.74036 0.0
H2351 H 0.32164 0.64607 0.76195 0.0
C2352 C 0.21258 0.6001 0.47901 0.0
C2353 C 0.22822 0.5893 0.48713 0.0
C2354 C 0.19485 0.60165 0.49123 0.0
C2355 C 0.19241 0.59112 0.5113 0.0
C2356 C 0.20912 0.58192 0.52052 0.0
C2357 C 0.22703 0.5814 0.50841 0.0
C2358 C 0.17775 0.6124 0.48131 0.0
C2359 C 0.20694 0.57008 0.54153 0.0
C2360 C 0.14216 0.59308 0.54153 0.0
C2361 C 0.12729 0.5709 0.52781 0.0
C2362 C 0.16391 0.59981 0.53703 0.0
C2363 C 0.17047 0.58391 0.51847 0.0
C2364 C 0.15562 0.56086 0.50559 0.0
C2365 C 0.1343 0.55465 0.51054 0.0
C2366 C 0.17942 0.62441 0.55116 0.0
C2367 C 0.16182 0.54322 0.48568 0.0
H2368 H 0.21391 0.6067 0.46279 0.0
H2369 H 0.23935 0.5732 0.51466 0.0
H2370 H 0.16369 0.59683 0.47078 0.0
H2371 H 0.17157 0.62345 0.49593 0.0
H2372 H 0.18425 0.62462 0.46941 0.0
H2373 H 0.22285 0.56835 0.54926 0.0
H2374 H 0.2003 0.58109 0.55572 0.0
H2375 H 0.19533 0.55098 0.53556 0.0
H2376 H 0.13655 0.60566 0.55472 0.0
H2377 H 0.1227 0.53736 0.50009 0.0
H2378 H 0.18241 0.63782 0.53956 0.0
H2379 H 0.19544 0.62185 0.55729 0.0
H2380 H 0.1728 0.63285 0.56695 0.0
H2381 H 0.1654 0.55243 0.4708 0.0
H2382 H 0.14863 0.52539 0.47846 0.0
H2383 H 0.1768 0.53864 0.49211 0.0
C2384 C 0.71406 0.98096 0.74255 0.0
C2385 C 0.71615 0.00647 0.75144 0.0
C2386 C 0.72683 0.96896 0.75397 0.0
C2387 C 0.74197 0.98293 0.77463 0.0
C2388 C 0.74428 0.00868 0.78363 0.0
C2389 C 0.7315 0.02027 0.77171 0.0
C2390 C 0.72422 0.9414 0.74382 0.0
C2391 C 0.76029 0.02397 0.80571 0.0
C2392 C 0.76264 0.94242 0.80954 0.0
C2393 C 0.78144 0.94112 0.7994 0.0
C2394 C 0.75008 0.9574 0.80273 0.0
C2395 C 0.7567 0.9709 0.78544 0.0
C2396 C 0.77647 0.97077 0.77641 0.0
C2397 C 0.78864 0.95576 0.78356 0.0
C2398 C 0.72913 0.95751 0.81279 0.0
C2399 C 0.7839 0.98491 0.75787 0.0
H2400 H 0.70227 0.97029 0.72686 0.0
H2401 H 0.73328 0.04009 0.77858 0.0
H2402 H 0.73987 0.93878 0.73854 0.0
H2403 H 0.72008 0.93076 0.75759 0.0
H2404 H 0.71126 0.93319 0.72797 0.0
H2405 H 0.75877 0.04333 0.81143 0.0
H2406 H 0.7577 0.01467 0.82067 0.0
H2407 H 0.77724 0.0252 0.80222 0.0
H2408 H 0.75722 0.93076 0.8217 0.0
H2409 H 0.80326 0.95441 0.77585 0.0
H2410 H 0.71494 0.94726 0.79865 0.0
H2411 H 0.72811 0.97702 0.81878 0.0
H2412 H 0.72771 0.94847 0.82805 0.0
H2413 H 0.77239 0.9765 0.74089 0.0
H2414 H 0.80057 0.98444 0.75427 0.0
H2415 H 0.78385 1.00479 0.7637 0.0
C2416 C 0.74129 0.9111 0.52299 0.0
C2417 C 0.76144 0.92852 0.52347 0.0
C2418 C 0.72142 0.91716 0.51895 0.0
C2419 C 0.72172 0.94131 0.51565 0.0
C2420 C 0.74197 0.95858 0.51533 0.0
C2421 C 0.76145 0.95194 0.51909 0.0
C2422 C 0.70014 0.89797 0.51873 0.0
C2423 C 0.74319 0.98456 0.51198 0.0
C2424 C 0.67214 0.96023 0.49262 0.0
C2425 C 0.66687 0.97269 0.51399 0.0
C2426 C 0.68911 0.94854 0.49282 0.0
C2427 C 0.70137 0.94972 0.51489 0.0
C2428 C 0.69558 0.96153 0.53648 0.0
C2429 C 0.6784 0.9727 0.53575 0.0
C2430 C 0.6944 0.93569 0.46942 0.0
C2431 C 0.70833 0.96363 0.5604 0.0
H2432 H 0.74105 0.89283 0.52601 0.0
H2433 H 0.77684 0.96554 0.51921 0.0
H2434 H 0.69204 0.90488 0.53386 0.0
H2435 H 0.68887 0.89516 0.50205 0.0
H2436 H 0.70251 0.87958 0.52011 0.0
H2437 H 0.76009 0.99537 0.5111 0.0
H2438 H 0.73254 0.98334 0.49534 0.0
H2439 H 0.73715 0.99517 0.52705 0.0
H2440 H 0.66316 0.95989 0.47572 0.0
H2441 H 0.67467 0.98255 0.55233 0.0
H2442 H 0.69525 0.91653 0.46991 0.0
H2443 H 0.71067 0.94626 0.46645 0.0
H2444 H 0.68211 0.93431 0.45402 0.0
H2445 H 0.70929 0.94486 0.56222 0.0
H2446 H 0.70095 0.97199 0.57557 0.0
H2447 H 0.72532 0.97552 0.56172 0.0
C2448 C 0.367 0.48244 0.77609 0.0
C2449 C 0.38701 0.49072 0.76771 0.0
C2450 C 0.35684 0.45664 0.77481 0.0
C2451 C 0.36687 0.43774 0.76544 0.0
C2452 C 0.38706 0.44589 0.75682 0.0
C2453 C 0.39667 0.4719 0.75784 0.0
C2454 C 0.33528 0.44966 0.78388 0.0
C2455 C 0.39885 0.42707 0.74695 0.0
C2456 C 0.34732 0.37368 0.78357 0.0
C2457 C 0.33137 0.35863 0.76407 0.0
C2458 C 0.35945 0.3988 0.78394 0.0
C2459 C 0.35591 0.40973 0.76436 0.0
C2460 C 0.34046 0.39413 0.7443 0.0
C2461 C 0.32838 0.36936 0.74458 0.0
C2462 C 0.37539 0.41415 0.80594 0.0
C2463 C 0.33579 0.40406 0.72279 0.0
H2464 H 0.35921 0.49638 0.78399 0.0
H2465 H 0.41229 0.47759 0.75175 0.0
H2466 H 0.32285 0.43569 0.7696 0.0
H2467 H 0.33708 0.4408 0.79901 0.0
H2468 H 0.32911 0.46617 0.78998 0.0
H2469 H 0.41447 0.43602 0.74129 0.0
H2470 H 0.4024 0.41703 0.76067 0.0
H2471 H 0.38828 0.41279 0.7314 0.0
H2472 H 0.34942 0.36639 0.79921 0.0
H2473 H 0.31579 0.35853 0.72963 0.0
H2474 H 0.36916 0.42962 0.81508 0.0
H2475 H 0.39138 0.42285 0.80093 0.0
H2476 H 0.37795 0.4027 0.81875 0.0
H2477 H 0.32768 0.4191 0.72773 0.0
H2478 H 0.32505 0.38917 0.70773 0.0
H2479 H 0.35126 0.41247 0.71661 0.0
C2480 C 0.19809 0.60779 0.25614 0.0
C2481 C 0.20587 0.59351 0.27003 0.0
C2482 C 0.21088 0.63162 0.25578 0.0
C2483 C 0.23213 0.64094 0.26911 0.0
C2484 C 0.24026 0.62638 0.28278 0.0
C2485 C 0.22682 0.60286 0.28339 0.0
C2486 C 0.2015 0.647 0.24155 0.0
C2487 C 0.26308 0.63564 0.29672 0.0
C2488 C 0.26966 0.69435 0.25041 0.0
C2489 C 0.26843 0.71501 0.26779 0.0
C2490 C 0.25848 0.66992 0.25108 0.0
C2491 C 0.2455 0.66634 0.26927 0.0
C2492 C 0.24431 0.68716 0.28691 0.0
C2493 C 0.25601 0.71129 0.28609 0.0
C2494 C 0.2603 0.64803 0.23219 0.0
C2495 C 0.23022 0.68402 0.30624 0.0
H2496 H 0.18171 0.60059 0.2461 0.0
H2497 H 0.23275 0.59164 0.29402 0.0
H2498 H 0.20174 0.6652 0.25342 0.0
H2499 H 0.21167 0.65128 0.22761 0.0
H2500 H 0.18443 0.63721 0.23273 0.0
H2501 H 0.2672 0.62153 0.3056 0.0
H2502 H 0.27518 0.64036 0.28463 0.0
H2503 H 0.26475 0.65307 0.31056 0.0
H2504 H 0.27948 0.69726 0.2364 0.0
H2505 H 0.25498 0.72731 0.29945 0.0
H2506 H 0.24427 0.63881 0.22063 0.0
H2507 H 0.2647 0.63379 0.24064 0.0
H2508 H 0.27269 0.6539 0.22071 0.0
H2509 H 0.21296 0.67447 0.29807 0.0
H2510 H 0.23093 0.70228 0.31837 0.0
H2511 H 0.2355 0.672 0.31703 0.0
C2512 C 0.52924 0.71245 0.46741 0.0
C2513 C 0.50939 0.70614 0.45201 0.0
C2514 C 0.53546 0.69445 0.47797 0.0
C2515 C 0.52204 0.66921 0.47205 0.0
C2516 C 0.50214 0.66281 0.45618 0.0
C2517 C 0.49588 0.6814 0.44684 0.0
C2518 C 0.55635 0.7025 0.49548 0.0
C2519 C 0.48765 0.63611 0.44857 0.0
C2520 C 0.54736 0.61605 0.47794 0.0
C2521 C 0.53849 0.60827 0.49726 0.0
C2522 C 0.54243 0.63602 0.46979 0.0
C2523 C 0.52886 0.6492 0.48175 0.0
C2524 C 0.52063 0.64199 0.50197 0.0
C2525 C 0.52517 0.6213 0.50917 0.0
C2526 C 0.5511 0.64238 0.44779 0.0
C2527 C 0.50695 0.65608 0.51596 0.0
H2528 H 0.5397 0.73157 0.47156 0.0
H2529 H 0.48061 0.67639 0.43478 0.0
H2530 H 0.55355 0.69524 0.51164 0.0
H2531 H 0.56881 0.69456 0.48723 0.0
H2532 H 0.56308 0.72325 0.50104 0.0
H2533 H 0.47321 0.63397 0.43533 0.0
H2534 H 0.49711 0.62342 0.44061 0.0
H2535 H 0.4818 0.62984 0.46433 0.0
H2536 H 0.55761 0.6059 0.46867 0.0
H2537 H 0.51843 0.61541 0.52423 0.0
H2538 H 0.56124 0.66219 0.45207 0.0
H2539 H 0.53727 0.64038 0.43383 0.0
H2540 H 0.56114 0.63014 0.44033 0.0
H2541 H 0.51567 0.67644 0.52139 0.0
H2542 H 0.50315 0.64938 0.53221 0.0
H2543 H 0.49135 0.65391 0.50462 0.0
C2544 C 0.65911 0.31471 0.69899 0.0
C2545 C 0.65439 0.31553 0.67498 0.0
C2546 C 0.67847 0.30996 0.70797 0.0
C2547 C 0.69393 0.30562 0.69272 0.0
C2548 C 0.68934 0.30628 0.66838 0.0
C2549 C 0.66976 0.31132 0.65984 0.0
C2550 C 0.68237 0.3097 0.73401 0.0
C2551 C 0.70507 0.30146 0.65131 0.0
C2552 C 0.75174 0.31864 0.72654 0.0
C2553 C 0.75253 0.29478 0.72894 0.0
C2554 C 0.73349 0.32216 0.71351 0.0
C2555 C 0.71508 0.30137 0.70279 0.0
C2556 C 0.71619 0.27701 0.70433 0.0
C2557 C 0.73481 0.27403 0.71739 0.0
C2558 C 0.73335 0.34848 0.71261 0.0
C2559 C 0.69713 0.25419 0.69352 0.0
H2560 H 0.64756 0.31788 0.71105 0.0
H2561 H 0.66637 0.31156 0.64124 0.0
H2562 H 0.68443 0.29129 0.73568 0.0
H2563 H 0.69768 0.32426 0.74307 0.0
H2564 H 0.66874 0.31321 0.74355 0.0
H2565 H 0.69935 0.30262 0.63302 0.0
H2566 H 0.72134 0.31527 0.6579 0.0
H2567 H 0.70726 0.28254 0.6504 0.0
H2568 H 0.76508 0.33485 0.73593 0.0
H2569 H 0.73492 0.25562 0.71977 0.0
H2570 H 0.72131 0.35424 0.72357 0.0
H2571 H 0.72823 0.34924 0.69403 0.0
H2572 H 0.74962 0.36226 0.71948 0.0
H2573 H 0.68349 0.25465 0.70399 0.0
H2574 H 0.7015 0.23644 0.69337 0.0
H2575 H 0.69109 0.25419 0.67496 0.0
C2576 C 0.02852 0.34399 0.95187 0.0
C2577 C 0.01011 0.32754 0.95714 0.0
C2578 C 0.03411 0.36998 0.96187 0.0
C2579 C 0.02115 0.37984 0.97774 0.0
C2580 C 1.00333 0.36324 0.98423 0.0
C2581 C 0.99798 0.33733 0.97381 0.0
C2582 C 0.05316 0.38701 0.95434 0.0
C2583 C 0.98927 0.37296 1.00132 0.0
C2584 C 0.04352 0.44805 0.01321 0.0
C2585 C 0.03216 0.46011 0.99993 0.0
C2586 C 0.03979 0.42182 0.00657 0.0
C2587 C 0.02492 0.40755 0.98572 0.0
C2588 C 0.01364 0.41979 0.97215 0.0
C2589 C 0.01713 0.44582 0.97964 0.0
C2590 C 0.05176 0.40942 0.0218 0.0
C2591 C 0.99818 0.40548 0.94938 0.0
H2592 H 0.03809 0.33673 0.93909 0.0
H2593 H 0.98382 0.32487 0.97816 0.0
H2594 H 0.04709 0.39891 0.94398 0.0
H2595 H 0.06447 0.39978 0.97024 0.0
H2596 H 0.06251 0.37633 0.94316 0.0
H2597 H 0.97758 0.35756 0.00655 0.0
H2598 H 0.99964 0.38606 0.01769 0.0
H2599 H 0.97983 0.38362 0.99285 0.0
H2600 H 0.05517 0.4591 0.0289 0.0
H2601 H 0.00858 0.45515 0.96911 0.0
H2602 H 0.06266 0.40059 0.01137 0.0
H2603 H 0.03992 0.39426 0.02713 0.0
H2604 H 0.06179 0.42295 0.03817 0.0
H2605 H 0.00693 0.39567 0.93661 0.0
H2606 H 0.99108 0.4179 0.94062 0.0
H2607 H 0.98464 0.39092 0.95323 0.0
C2608 C 0.01418 0.78049 0.1436 0.0
C2609 C 0.03299 0.79476 0.15978 0.0
C2610 C 0.99367 0.77412 0.1513 0.0
C2611 C 0.99182 0.78332 0.17555 0.0
C2612 C 0.01095 0.79733 0.19197 0.0
C2613 C 0.03135 0.80245 0.18395 0.0
C2614 C 0.974 0.75832 0.13325 0.0
C2615 C 0.00975 0.80809 0.21781 0.0
C2616 C 0.93956 0.79684 0.1936 0.0
C2617 C 0.93226 0.77861 0.20637 0.0
C2618 C 0.95831 0.79784 0.18248 0.0
C2619 C 0.96996 0.77992 0.18374 0.0
C2620 C 0.96176 0.76032 0.19499 0.0
C2621 C 0.94318 0.76003 0.20636 0.0
C2622 C 0.96621 0.81882 0.17032 0.0
C2623 C 0.97311 0.74018 0.19578 0.0
H2624 H 0.01549 0.77444 0.12488 0.0
H2625 H 0.04588 0.81377 0.19637 0.0
H2626 H 0.96226 0.74561 0.14132 0.0
H2627 H 0.96544 0.77077 0.12648 0.0
H2628 H 0.97883 0.74684 0.11773 0.0
H2629 H 0.02611 0.81846 0.22832 0.0
H2630 H 0.99937 0.82113 0.21889 0.0
H2631 H 1.00204 0.79287 0.22622 0.0
H2632 H 0.9309 0.81081 0.19277 0.0
H2633 H 0.9378 0.7458 0.21609 0.0
H2634 H 0.96758 0.81095 0.15149 0.0
H2635 H 0.98275 0.83058 0.17933 0.0
H2636 H 0.95512 0.83103 0.17054 0.0
H2637 H 0.97643 0.73235 0.17769 0.0
H2638 H 0.96329 0.72462 0.20253 0.0
H2639 H 0.98909 0.74841 0.20761 0.0
C2640 C 0.5134 0.29745 0.0884 0.0
C2641 C 0.49933 0.30295 0.10451 0.0
C2642 C 0.52321 0.3152 0.07623 0.0
C2643 C 0.51902 0.33891 0.08082 0.0
C2644 C 0.50497 0.34453 0.09739 0.0
C2645 C 0.49517 0.32631 0.109 0.0
C2646 C 0.53814 0.30871 0.05868 0.0
C2647 C 0.50042 0.36979 0.10298 0.0
C2648 C 0.55474 0.39476 0.06349 0.0
C2649 C 0.5418 0.39471 0.04273 0.0
C2650 C 0.54798 0.37602 0.07581 0.0
C2651 C 0.52785 0.35724 0.06699 0.0
C2652 C 0.51515 0.35693 0.04561 0.0
C2653 C 0.52232 0.37577 0.03372 0.0
C2654 C 0.56185 0.37683 0.09863 0.0
C2655 C 0.49354 0.3373 0.03582 0.0
H2656 H 0.51702 0.27951 0.08572 0.0
H2657 H 0.48481 0.33057 0.12219 0.0
H2658 H 0.53201 0.31054 0.04079 0.0
H2659 H 0.55471 0.32207 0.06439 0.0
H2660 H 0.53951 0.28933 0.05703 0.0
H2661 H 0.48984 0.37142 0.1171 0.0
H2662 H 0.51599 0.38498 0.10898 0.0
H2663 H 0.49226 0.37293 0.08664 0.0
H2664 H 0.56972 0.40978 0.07038 0.0
H2665 H 0.51238 0.37618 0.01771 0.0
H2666 H 0.56527 0.35849 0.09772 0.0
H2667 H 0.55284 0.38026 0.11392 0.0
H2668 H 0.57763 0.39179 0.10224 0.0
H2669 H 0.49569 0.31822 0.03364 0.0
H2670 H 0.48626 0.33902 0.01832 0.0
H2671 H 0.4818 0.33914 0.04862 0.0
C2672 C 0.02722 0.29147 0.33091 0.0
C2673 C 0.0457 0.31207 0.33483 0.0
C2674 C 0.00648 0.29373 0.32425 0.0
C2675 C 0.00433 0.31733 0.32196 0.0
C2676 C 0.02299 0.33829 0.32603 0.0
C2677 C 0.04364 0.33532 0.33219 0.0
C2678 C 0.9869 0.27098 0.3199 0.0
C2679 C 0.02107 0.36387 0.32441 0.0
C2680 C 0.95374 0.31863 0.28412 0.0
C2681 C 0.94084 0.32434 0.30157 0.0
C2682 C 0.97453 0.31622 0.29057 0.0
C2683 C 0.98251 0.31996 0.31501 0.0
C2684 C 0.96955 0.32577 0.33273 0.0
C2685 C 0.94873 0.32776 0.32574 0.0
C2686 C 0.98791 0.30955 0.27131 0.0
C2687 C 0.97772 0.33002 0.35899 0.0
H2688 H 0.02901 0.2736 0.33329 0.0
H2689 H 0.05801 0.35135 0.33592 0.0
H2690 H 0.97529 0.27462 0.33238 0.0
H2691 H 0.97812 0.26706 0.30149 0.0
H2692 H 0.99154 0.25396 0.32225 0.0
H2693 H 0.03718 0.37831 0.32863 0.0
H2694 H 0.01344 0.36298 0.30616 0.0
H2695 H 0.01028 0.36993 0.33698 0.0
H2696 H 0.94744 0.31574 0.26543 0.0
H2697 H 0.9387 0.33238 0.33917 0.0
H2698 H 0.99234 0.29216 0.27261 0.0
H2699 H 1.0034 0.32472 0.27382 0.0
H2700 H 0.97906 0.30665 0.25309 0.0
H2701 H 0.98173 0.3131 0.36251 0.0
H2702 H 0.96553 0.33444 0.37044 0.0
H2703 H 0.99298 0.34575 0.36434 0.0
C2704 C 0.98484 0.67598 0.58471 0.0
C2705 C 0.99096 0.68851 0.60887 0.0
C2706 C 0.99562 0.65889 0.57408 0.0
C2707 C 0.01273 0.65424 0.58807 0.0
C2708 C 0.01836 0.66604 0.61267 0.0
C2709 C 0.0074 0.68306 0.62279 0.0
C2710 C 0.98913 0.64637 0.54777 0.0
C2711 C 0.03637 0.66125 0.62815 0.0
C2712 C 0.02885 0.59548 0.56373 0.0
C2713 C 0.04652 0.60481 0.55236 0.0
C2714 C 0.01788 0.61145 0.57579 0.0
C2715 C 0.02506 0.63738 0.57681 0.0
C2716 C 0.04359 0.64709 0.56641 0.0
C2717 C 0.05403 0.63057 0.55405 0.0
C2718 C 0.99806 0.60042 0.5865 0.0
C2719 C 0.05191 0.6748 0.56767 0.0
H2720 H 0.97218 0.68018 0.57391 0.0
H2721 H 0.01204 0.69249 0.64158 0.0
H2722 H 1.00315 0.65192 0.53818 0.0
H2723 H 0.9848 0.62567 0.54501 0.0
H2724 H 0.97503 0.65144 0.53961 0.0
H2725 H 0.03825 0.6714 0.64717 0.0
H2726 H 0.03302 0.64087 0.62713 0.0
H2727 H 0.05214 0.66728 0.62151 0.0
H2728 H 0.02287 0.57547 0.56226 0.0
H2729 H 0.0677 0.63768 0.54523 0.0
H2730 H 0.98328 0.60305 0.57705 0.0
H2731 H 0.99979 0.61028 0.60554 0.0
H2732 H 0.99539 0.58004 0.58527 0.0
H2733 H 0.03939 0.68085 0.55778 0.0
H2734 H 0.06731 0.67947 0.55999 0.0
H2735 H 0.05486 0.68578 0.5865 0.0
C2736 C 0.67052 0.84891 0.8297 0.0
C2737 C 0.66355 0.83433 0.84579 0.0
C2738 C 0.68699 0.84476 0.81648 0.0
C2739 C 0.69681 0.82586 0.81982 0.0
C2740 C 0.69058 0.81183 0.8368 0.0
C2741 C 0.6739 0.8162 0.84959 0.0
C2742 C 0.69342 0.86 0.79845 0.0
C2743 C 0.70127 0.79197 0.84116 0.0
C2744 C 0.72598 0.79641 0.77301 0.0
C2745 C 0.74756 0.81042 0.78192 0.0
C2746 C 0.70897 0.80207 0.78461 0.0
C2747 C 0.71411 0.82124 0.80602 0.0
C2748 C 0.73594 0.83545 0.81489 0.0
C2749 C 0.7524 0.8302 0.80237 0.0
C2750 C 0.68566 0.78719 0.77438 0.0
C2751 C 0.74207 0.85526 0.83823 0.0
H2752 H 0.66253 0.86292 0.82669 0.0
H2753 H 0.66859 0.80496 0.8621 0.0
H2754 H 0.71113 0.86998 0.80249 0.0
H2755 H 0.69043 0.84731 0.78034 0.0
H2756 H 0.68419 0.87408 0.79812 0.0
H2757 H 0.69505 0.78345 0.8557 0.0
H2758 H 0.69823 0.77682 0.82462 0.0
H2759 H 0.71923 0.80019 0.84589 0.0
H2760 H 0.72252 0.78101 0.75726 0.0
H2761 H 0.76928 0.84058 0.80949 0.0
H2762 H 0.67552 0.8001 0.77259 0.0
H2763 H 0.67865 0.7758 0.78668 0.0
H2764 H 0.68441 0.77441 0.75661 0.0
H2765 H 0.73333 0.8697 0.83771 0.0
H2766 H 0.75992 0.86472 0.84239 0.0
H2767 H 0.73705 0.84652 0.85304 0.0
C2768 C 0.46353 0.56515 0.67051 0.0
C2769 C 0.47343 0.55757 0.68946 0.0
C2770 C 0.47178 0.56434 0.64802 0.0
C2771 C 0.49041 0.5554 0.64345 0.0
C2772 C 0.50001 0.54723 0.66234 0.0
C2773 C 0.4917 0.54855 0.68455 0.0
C2774 C 0.46081 0.57377 0.62922 0.0
C2775 C 0.51966 0.53743 0.65935 0.0
C2776 C 0.50617 0.53587 0.57879 0.0
C2777 C 0.52387 0.55642 0.57808 0.0
C2778 C 0.49489 0.53544 0.5993 0.0
C2779 C 0.50087 0.55608 0.62004 0.0
C2780 C 0.51825 0.57704 0.61888 0.0
C2781 C 0.52935 0.57682 0.59852 0.0
C2782 C 0.47697 0.51228 0.59911 0.0
C2783 C 0.52574 0.59981 0.63967 0.0
H2784 H 0.44968 0.57247 0.67344 0.0
H2785 H 0.49991 0.54252 0.69845 0.0
H2786 H 0.47261 0.59009 0.62546 0.0
H2787 H 0.45561 0.55896 0.6123 0.0
H2788 H 0.44633 0.57955 0.63473 0.0
H2789 H 0.52418 0.52957 0.67447 0.0
H2790 H 0.51643 0.52261 0.64252 0.0
H2791 H 0.53387 0.55284 0.65809 0.0
H2792 H 0.50166 0.51962 0.56377 0.0
H2793 H 0.54293 0.59291 0.59886 0.0
H2794 H 0.46191 0.51743 0.6033 0.0
H2795 H 0.48195 0.50338 0.6132 0.0
H2796 H 0.47318 0.49832 0.58161 0.0
H2797 H 0.51158 0.60644 0.64492 0.0
H2798 H 0.53799 0.61551 0.63551 0.0
H2799 H 0.53316 0.59476 0.65531 0.0
C2800 C 0.74925 0.18253 0.97629 0.0
C2801 C 0.76963 0.17764 0.97626 0.0
C2802 C 0.74183 0.19422 0.95936 0.0
C2803 C 0.75495 0.20048 0.94189 0.0
C2804 C 0.77502 0.19438 0.94119 0.0
C2805 C 0.78217 0.18328 0.9585 0.0
C2806 C 0.72035 0.20045 0.96051 0.0
C2807 C 0.78936 0.20025 0.92258 0.0
C2808 C 0.7402 0.2179 0.88467 0.0
C2809 C 0.75145 0.24358 0.89077 0.0
C2810 C 0.73893 0.20375 0.90193 0.0
C2811 C 0.74929 0.21563 0.92566 0.0
C2812 C 0.75866 0.24196 0.93234 0.0
C2813 C 0.75961 0.25561 0.9148 0.0
C2814 C 0.72852 0.17574 0.89424 0.0
C2815 C 0.77008 0.25533 0.95741 0.0
H2816 H 0.73942 0.17784 0.98987 0.0
H2817 H 0.79766 0.17886 0.95803 0.0
H2818 H 0.72318 0.22108 0.96407 0.0
H2819 H 0.70954 0.19207 0.94307 0.0
H2820 H 0.71174 0.19355 0.97466 0.0
H2821 H 0.80386 0.19295 0.9238 0.0
H2822 H 0.7799 0.19197 0.90439 0.0
H2823 H 0.79518 0.22086 0.92479 0.0
H2824 H 0.73354 0.20858 0.86616 0.0
H2825 H 0.76851 0.27537 0.91968 0.0
H2826 H 0.71917 0.16899 0.90794 0.0
H2827 H 0.74148 0.16604 0.89208 0.0
H2828 H 0.71741 0.17027 0.87694 0.0
H2829 H 0.76023 0.24874 0.97082 0.0
H2830 H 0.7733 0.27602 0.96064 0.0
H2831 H 0.78597 0.25109 0.96027 0.0
C2832 C 0.09923 0.53659 0.17408 0.0
C2833 C 0.12105 0.536 0.17624 0.0
C2834 C 0.09052 0.5457 0.15608 0.0
C2835 C 0.10392 0.55405 0.13965 0.0
C2836 C 0.12656 0.55635 0.14338 0.0
C2837 C 0.13495 0.54709 0.16171 0.0
C2838 C 0.06645 0.54408 0.1533 0.0
C2839 C 0.14148 0.56679 0.12699 0.0
C2840 C 0.06951 0.52831 0.07959 0.0
C2841 C 0.06272 0.54899 0.07651 0.0
C2842 C 0.08503 0.53065 0.09904 0.0
C2843 C 0.09303 0.55399 0.11616 0.0
C2844 C 0.08697 0.5753 0.11234 0.0
C2845 C 0.07197 0.57256 0.09217 0.0
C2846 C 0.09192 0.50776 0.10195 0.0
C2847 C 0.09511 0.60054 0.12998 0.0
H2848 H 0.08863 0.5291 0.18597 0.0
H2849 H 0.15207 0.54764 0.164 0.0
H2850 H 0.06383 0.56169 0.14989 0.0
H2851 H 0.0576 0.52851 0.13773 0.0
H2852 H 0.05914 0.54055 0.16937 0.0
H2853 H 0.15887 0.5732 0.13554 0.0
H2854 H 0.13984 0.55198 0.11049 0.0
H2855 H 0.137 0.58274 0.12167 0.0
H2856 H 0.06279 0.5104 0.06669 0.0
H2857 H 0.06694 0.58863 0.08906 0.0
H2858 H 0.08531 0.50137 0.11735 0.0
H2859 H 0.11 0.51241 0.10568 0.0
H2860 H 0.086 0.49197 0.08578 0.0
H2861 H 0.08316 0.60224 0.14255 0.0
H2862 H 0.09648 0.61601 0.1207 0.0
H2863 H 0.11119 0.60304 0.14055 0.0
C2864 C 0.82447 0.8216 0.46279 0.0
C2865 C 0.81663 0.84163 0.47335 0.0
C2866 C 0.82136 0.81243 0.43778 0.0
C2867 C 0.81061 0.82391 0.42282 0.0
C2868 C 0.8018 0.84337 0.43339 0.0
C2869 C 0.8047 0.85178 0.45845 0.0
C2870 C 0.83034 0.79106 0.42735 0.0
C2871 C 0.79034 0.85631 0.41821 0.0
C2872 C 0.82674 0.82185 0.36061 0.0
C2873 C 0.80837 0.80438 0.34591 0.0
C2874 C 0.82754 0.82853 0.38558 0.0
C2875 C 0.80987 0.81679 0.39624 0.0
C2876 C 0.79152 0.79862 0.38143 0.0
C2877 C 0.79085 0.79296 0.35646 0.0
C2878 C 0.84711 0.84857 0.40054 0.0
C2879 C 0.77268 0.78496 0.39194 0.0
H2880 H 0.83359 0.81348 0.47407 0.0
H2881 H 0.79865 0.86734 0.4663 0.0
H2882 H 0.81771 0.77642 0.41378 0.0
H2883 H 0.84431 0.79806 0.41819 0.0
H2884 H 0.83604 0.78232 0.44123 0.0
H2885 H 0.78341 0.87019 0.42907 0.0
H2886 H 0.80208 0.86618 0.40801 0.0
H2887 H 0.77694 0.84233 0.40502 0.0
H2888 H 0.84021 0.83089 0.35249 0.0
H2889 H 0.77668 0.77926 0.34515 0.0
H2890 H 0.85532 0.84079 0.41358 0.0
H2891 H 0.84172 0.86416 0.41091 0.0
H2892 H 0.85921 0.85635 0.38953 0.0
H2893 H 0.77855 0.77382 0.40336 0.0
H2894 H 0.75924 0.77209 0.37796 0.0
H2895 H 0.766 0.79854 0.40352 0.0
C2896 C 0.47051 0.57899 0.85171 0.0
C2897 C 0.46663 0.56004 0.83039 0.0
C2898 C 0.48053 0.5767 0.87393 0.0
C2899 C 0.48632 0.55443 0.8758 0.0
C2900 C 0.48193 0.535 0.8544 0.0
C2901 C 0.47274 0.53821 0.83221 0.0
C2902 C 0.48534 0.59851 0.89547 0.0
C2903 C 0.48684 0.51051 0.85491 0.0
C2904 C 0.52933 0.5552 0.92893 0.0
C2905 C 0.5164 0.54578 0.94523 0.0
C2906 C 0.51995 0.55802 0.90664 0.0
C2907 C 0.49679 0.55146 0.8999 0.0
C2908 C 0.48373 0.54199 0.91644 0.0
C2909 C 0.49355 0.53924 0.93853 0.0
C2910 C 0.53497 0.56813 0.8902 0.0
C2911 C 0.45914 0.53458 0.91076 0.0
H2912 H 0.46632 0.59615 0.85088 0.0
H2913 H 0.46998 0.52328 0.8162 0.0
H2914 H 0.47659 0.59264 0.90991 0.0
H2915 H 0.50309 0.60465 0.90247 0.0
H2916 H 0.48048 0.61477 0.89133 0.0
H2917 H 0.48176 0.49676 0.83728 0.0
H2918 H 0.50462 0.51389 0.8604 0.0
H2919 H 0.47828 0.5021 0.86834 0.0
H2920 H 0.54695 0.56025 0.93354 0.0
H2921 H 0.4832 0.53187 0.95069 0.0
H2922 H 0.53187 0.58559 0.88692 0.0
H2923 H 0.53161 0.55437 0.87266 0.0
H2924 H 0.55249 0.57226 0.89763 0.0
H2925 H 0.45363 0.55115 0.90876 0.0
H2926 H 0.4511 0.52685 0.92484 0.0
H2927 H 0.45359 0.52032 0.89349 0.0
C2928 C 0.80898 0.20625 0.09804 0.0
C2929 C 0.79268 0.18378 0.08745 0.0
C2930 C 0.8068 0.22222 0.11912 0.0
C2931 C 0.78785 0.21564 0.12988 0.0
C2932 C 0.77099 0.19346 0.11894 0.0
C2933 C 0.77365 0.17769 0.09792 0.0
C2934 C 0.82516 0.24574 0.13032 0.0
C2935 C 0.75038 0.18611 0.12973 0.0
C2936 C 0.79741 0.23927 0.1969 0.0
C2937 C 0.79161 0.26177 0.19977 0.0
C2938 C 0.79563 0.22374 0.17424 0.0
C2939 C 0.78708 0.23045 0.15398 0.0
C2940 C 0.7798 0.25234 0.1569 0.0
C2941 C 0.78265 0.26815 0.17985 0.0
C2942 C 0.80407 0.20092 0.17193 0.0
C2943 C 0.7697 0.25949 0.13582 0.0
H2944 H 0.82361 0.21131 0.08999 0.0
H2945 H 0.76079 0.16058 0.08971 0.0
H2946 H 0.8188 0.26238 0.13324 0.0
H2947 H 0.83234 0.24452 0.14805 0.0
H2948 H 0.83836 0.24876 0.11912 0.0
H2949 H 0.7378 0.16993 0.11763 0.0
H2950 H 0.75425 0.18097 0.14673 0.0
H2951 H 0.74338 0.20222 0.134 0.0
H2952 H 0.80437 0.23435 0.21234 0.0
H2953 H 0.77792 0.28543 0.18222 0.0
H2954 H 0.81852 0.20353 0.16248 0.0
H2955 H 0.79148 0.18393 0.16117 0.0
H2956 H 0.8089 0.1975 0.18954 0.0
H2957 H 0.78277 0.26793 0.12621 0.0
H2958 H 0.76055 0.27339 0.14148 0.0
H2959 H 0.75843 0.24272 0.12306 0.0
C2960 C 0.11619 0.54651 0.30767 0.0
C2961 C 0.1314 0.55579 0.2938 0.0
C2962 C 0.11489 0.56137 0.32965 0.0
C2963 C 0.12981 0.58575 0.33809 0.0
C2964 C 0.14486 0.59541 0.32365 0.0
C2965 C 0.14526 0.58028 0.30133 0.0
C2966 C 0.09833 0.55026 0.34427 0.0
C2967 C 0.16142 0.62085 0.33213 0.0
C2968 C 0.10588 0.61424 0.3884 0.0
C2969 C 0.11264 0.60194 0.40494 0.0
C2970 C 0.11459 0.61327 0.36702 0.0
C2971 C 0.13015 0.59974 0.36271 0.0
C2972 C 0.14033 0.59246 0.38165 0.0
C2973 C 0.13131 0.59359 0.4028 0.0
C2974 C 0.10408 0.62229 0.34753 0.0
C2975 C 0.15781 0.57912 0.37805 0.0
H2976 H 0.1056 0.52745 0.30149 0.0
H2977 H 0.15701 0.5872 0.29024 0.0
H2978 H 0.10694 0.54571 0.35949 0.0
H2979 H 0.08937 0.5638 0.35156 0.0
H2980 H 0.08617 0.53273 0.33368 0.0
H2981 H 0.16679 0.62857 0.31685 0.0
H2982 H 0.15496 0.6345 0.34392 0.0
H2983 H 0.17605 0.6189 0.34253 0.0
H2984 H 0.09164 0.62109 0.3904 0.0
H2985 H 0.13675 0.5846 0.41603 0.0
H2986 H 0.09071 0.60643 0.33617 0.0
H2987 H 0.11603 0.62907 0.33598 0.0
H2988 H 0.09694 0.63759 0.35509 0.0
H2989 H 0.15 0.55904 0.36908 0.0
H2990 H 0.16738 0.58007 0.39536 0.0
H2991 H 0.1691 0.5873 0.36651 0.0
C2992 C 0.83451 0.84965 0.61574 0.0
C2993 C 0.8169 0.85098 0.60012 0.0
C2994 C 0.83154 0.84204 0.63709 0.0
C2995 C 0.8103 0.83493 0.6432 0.0
C2996 C 0.79233 0.83616 0.62759 0.0
C2997 C 0.79586 0.8445 0.60644 0.0
C2998 C 0.85128 0.8413 0.65301 0.0
C2999 C 0.76934 0.82829 0.63308 0.0
C3000 C 0.80346 0.78873 0.68317 0.0
C3001 C 0.80505 0.80413 0.70607 0.0
C3002 C 0.80452 0.7984 0.66272 0.0
C3003 C 0.8071 0.82432 0.66487 0.0
C3004 C 0.80854 0.84007 0.68794 0.0
C3005 C 0.80764 0.82984 0.7083 0.0
C3006 C 0.80321 0.78079 0.63878 0.0
C3007 C 0.81115 0.86776 0.6911 0.0
H3008 H 0.85094 0.855 0.61147 0.0
H3009 H 0.78214 0.84556 0.5947 0.0
H3010 H 0.85199 0.85235 0.67145 0.0
H3011 H 0.84997 0.82167 0.65397 0.0
H3012 H 0.86684 0.84885 0.64652 0.0
H3013 H 0.75711 0.83021 0.61926 0.0
H3014 H 0.76513 0.80845 0.63437 0.0
H3015 H 0.76816 0.83985 0.65065 0.0
H3016 H 0.80147 0.76883 0.68117 0.0
H3017 H 0.8086 0.84183 0.72583 0.0
H3018 H 0.81878 0.78623 0.63162 0.0
H3019 H 0.79002 0.78216 0.62578 0.0
H3020 H 0.80006 0.76092 0.6399 0.0
H3021 H 0.82689 0.87682 0.6858 0.0
H3022 H 0.81079 0.87725 0.70984 0.0
H3023 H 0.79792 0.87069 0.67926 0.0
C3024 C 0.75723 0.47444 0.55502 0.0
C3025 C 0.76296 0.46901 0.53212 0.0
C3026 C 0.73925 0.48366 0.55884 0.0
C3027 C 0.72699 0.48773 0.53929 0.0
C3028 C 0.73217 0.48131 0.51596 0.0
C3029 C 0.75008 0.47177 0.5126 0.0
C3030 C 0.734 0.49009 0.58391 0.0
C3031 C 0.71955 0.48583 0.49479 0.0
C3032 C 0.67196 0.49987 0.54355 0.0
C3033 C 0.67777 0.52609 0.54758 0.0
C3034 C 0.68796 0.48703 0.54159 0.0
C3035 C 0.71007 0.50085 0.5435 0.0
C3036 C 0.71604 0.52738 0.5484 0.0
C3037 C 0.69977 0.53969 0.55045 0.0
C3038 C 0.68118 0.45873 0.53677 0.0
C3039 C 0.73951 0.54272 0.55049 0.0
H3040 H 0.76714 0.47209 0.57009 0.0
H3041 H 0.75463 0.4677 0.49492 0.0
H3042 H 0.73644 0.51063 0.58987 0.0
H3043 H 0.7166 0.48074 0.58429 0.0
H3044 H 0.7444 0.4844 0.59688 0.0
H3045 H 0.72509 0.4788 0.4777 0.0
H3046 H 0.70185 0.47651 0.49344 0.0
H3047 H 0.72154 0.50624 0.49727 0.0
H3048 H 0.6549 0.48942 0.54163 0.0
H3049 H 0.70417 0.55995 0.55334 0.0
H3050 H 0.69111 0.45251 0.54972 0.0
H3051 H 0.68424 0.45059 0.51867 0.0
H3052 H 0.66361 0.45101 0.53787 0.0
H3053 H 0.75009 0.53805 0.56405 0.0
H3054 H 0.74144 0.56324 0.55553 0.0
H3055 H 0.7455 0.53814 0.53317 0.0
C3056 C 0.20927 0.11665 0.50839 0.0
C3057 C 0.21554 0.13892 0.50057 0.0
C3058 C 0.18722 0.10471 0.50884 0.0
C3059 C 0.17073 0.11533 0.50161 0.0
C3060 C 0.17691 0.13811 0.49417 0.0
C3061 C 0.19919 0.14951 0.49351 0.0
C3062 C 0.18157 0.08034 0.51662 0.0
C3063 C 0.15994 0.1504 0.48687 0.0
C3064 C 0.11406 0.06911 0.47935 0.0
C3065 C 0.10379 0.07173 0.49978 0.0
C3066 C 0.13551 0.08368 0.47955 0.0
C3067 C 0.14707 0.10168 0.50062 0.0
C3068 C 0.13648 0.10508 0.52109 0.0
C3069 C 0.11503 0.09001 0.52046 0.0
C3070 C 0.14612 0.07907 0.45741 0.0
C3071 C 0.14804 0.12406 0.54392 0.0
H3072 H 0.22166 0.10819 0.51387 0.0
H3073 H 0.20382 0.1668 0.48769 0.0
H3074 H 0.17217 0.08201 0.53177 0.0
H3075 H 0.17103 0.06508 0.50175 0.0
H3076 H 0.19631 0.07478 0.52217 0.0
H3077 H 0.16736 0.16863 0.48262 0.0
H3078 H 0.14854 0.13778 0.47095 0.0
H3079 H 0.15008 0.15362 0.50142 0.0
H3080 H 0.10553 0.05508 0.46328 0.0
H3081 H 0.10721 0.09221 0.53632 0.0
H3082 H 0.16033 0.07194 0.46126 0.0
H3083 H 0.15235 0.0969 0.45202 0.0
H3084 H 0.13466 0.06524 0.44215 0.0
H3085 H 0.16129 0.1177 0.55208 0.0
H3086 H 0.13677 0.12673 0.55712 0.0
H3087 H 0.15573 0.14245 0.54016 0.0
C3088 C 0.21662 0.94356 0.75602 0.0
C3089 C 0.20886 0.95252 0.77741 0.0
C3090 C 0.22682 0.92323 0.75307 0.0
C3091 C 0.2292 0.91018 0.77148 0.0
C3092 C 0.22079 0.91877 0.7927 0.0
C3093 C 0.21133 0.93945 0.79543 0.0
C3094 C 0.23554 0.91597 0.73013 0.0
C3095 C 0.22194 0.90615 0.81304 0.0
C3096 C 0.24051 0.84293 0.75969 0.0
C3097 C 0.26322 0.84808 0.76759 0.0
C3098 C 0.22957 0.8624 0.76025 0.0
C3099 C 0.24099 0.88856 0.76926 0.0
C3100 C 0.26386 0.89374 0.77733 0.0
C3101 C 0.27441 0.87401 0.77624 0.0
C3102 C 0.20544 0.85481 0.75112 0.0
C3103 C 0.27745 0.92052 0.78748 0.0
H3104 H 0.21544 0.95299 0.74173 0.0
H3105 H 0.20566 0.94544 0.81215 0.0
H3106 H 0.25333 0.91821 0.73403 0.0
H3107 H 0.22754 0.89589 0.72141 0.0
H3108 H 0.23285 0.92749 0.71746 0.0
H3109 H 0.21364 0.91354 0.8278 0.0
H3110 H 0.21427 0.88562 0.80652 0.0
H3111 H 0.23928 0.90894 0.82024 0.0
H3112 H 0.23112 0.82347 0.75284 0.0
H3113 H 0.29177 0.87911 0.78266 0.0
H3114 H 0.20238 0.86392 0.73648 0.0
H3115 H 0.19654 0.86141 0.76561 0.0
H3116 H 0.19863 0.83415 0.74437 0.0
H3117 H 0.27624 0.93175 0.77414 0.0
H3118 H 0.29494 0.92201 0.79275 0.0
H3119 H 0.27106 0.929 0.80341 0.0
C3120 C 0.38318 0.99814 0.01074 0.0
C3121 C 0.37615 0.98442 0.0274 0.0
C3122 C 0.40547 1.00528 0.00852 0.0
C3123 C 0.42044 0.99737 0.02251 0.0
C3124 C 0.41337 0.98437 0.03993 0.0
C3125 C 0.39151 0.97918 0.04289 0.0
C3126 C 0.41289 0.0206 0.99088 0.0
C3127 C 0.42867 0.97504 0.05487 0.0
C3128 C 0.47351 0.98968 1.00273 0.0
C3129 C 0.48849 0.00892 0.02004 0.0
C3130 C 0.45099 0.98596 1.00281 0.0
C3131 C 0.44369 1.00285 0.0197 0.0
C3132 C 0.45892 0.02296 0.03646 0.0
C3133 C 0.48114 0.02525 0.03686 0.0
C3134 C 0.43511 0.96334 0.98574 0.0
C3135 C 0.45177 0.04194 0.05407 0.0
H3136 H 0.37132 1.00246 0.99896 0.0
H3137 H 0.38619 0.96942 0.05646 0.0
H3138 H 0.42751 0.03651 0.99934 0.0
H3139 H 0.4176 0.00879 0.97557 0.0
H3140 H 0.39986 0.02813 0.98393 0.0
H3141 H 0.4199 0.96293 0.06577 0.0
H3142 H 0.43749 0.96411 0.04319 0.0
H3143 H 0.44112 0.99114 0.06714 0.0
H3144 H 0.4794 0.97722 0.98969 0.0
H3145 H 0.49286 0.04029 0.05006 0.0
H3146 H 0.42285 0.96916 0.97522 0.0
H3147 H 0.42608 0.9507 0.99603 0.0
H3148 H 0.44343 0.95257 0.97321 0.0
H3149 H 0.44234 0.05161 0.0442 0.0
H3150 H 0.46584 0.05622 0.06612 0.0
H3151 H 0.44085 0.03255 0.06525 0.0
C3152 C 0.87385 0.57013 0.77954 0.0
C3153 C 0.89266 0.58632 0.7944 0.0
C3154 C 0.8599 0.57963 0.76644 0.0
C3155 C 0.86496 0.60585 0.76872 0.0
C3156 C 0.88388 0.62223 0.78406 0.0
C3157 C 0.8977 0.61214 0.79653 0.0
C3158 C 0.84016 0.56167 0.74977 0.0
C3159 C 0.88957 0.65035 0.78728 0.0
C3160 C 0.84045 0.63706 0.72586 0.0
C3161 C 0.82396 0.6434 0.738 0.0
C3162 C 0.85311 0.62311 0.73477 0.0
C3163 C 0.84963 0.61656 0.75671 0.0
C3164 C 0.83266 0.6225 0.76862 0.0
C3165 C 0.81986 0.63556 0.75892 0.0
C3166 C 0.8707 0.61626 0.72132 0.0
C3167 C 0.82899 0.61666 0.79248 0.0
H3168 H 0.87061 0.55002 0.77739 0.0
H3169 H 0.91272 0.62434 0.80758 0.0
H3170 H 0.82504 0.56634 0.75454 0.0
H3171 H 0.84137 0.56355 0.73122 0.0
H3172 H 0.83853 0.54182 0.7502 0.0
H3173 H 0.90471 0.66036 0.80024 0.0
H3174 H 0.89191 0.65515 0.76992 0.0
H3175 H 0.87595 0.6574 0.79365 0.0
H3176 H 0.84371 0.64346 0.70983 0.0
H3177 H 0.80745 0.64111 0.76859 0.0
H3178 H 0.86937 0.59601 0.71918 0.0
H3179 H 0.88705 0.62695 0.73159 0.0
H3180 H 0.86973 0.62033 0.70337 0.0
H3181 H 0.82662 0.59637 0.79124 0.0
H3182 H 0.81457 0.62185 0.79895 0.0
H3183 H 0.84364 0.62709 0.80599 0.0
C3184 C 0.8404 0.64987 0.03545 0.0
C3185 C 0.83685 0.65759 0.01436 0.0
C3186 C 0.85887 0.64155 0.04054 0.0
C3187 C 0.87345 0.63981 0.0236 0.0
C3188 C 0.87005 0.64808 1.00251 0.0
C3189 C 0.85207 0.65734 0.99843 0.0
C3190 C 0.86254 0.63413 0.06377 0.0
C3191 C 0.88467 0.64583 0.98356 0.0
C3192 C 0.92925 0.62826 0.03519 0.0
C3193 C 0.92408 0.60215 0.02631 0.0
C3194 C 0.91281 0.64074 0.03569 0.0
C3195 C 0.8908 0.62686 0.02643 0.0
C3196 C 0.88554 0.60046 0.01781 0.0
C3197 C 0.90217 0.58847 0.0181 0.0
C3198 C 0.91904 0.66879 0.04568 0.0
C3199 C 0.86245 0.58493 0.00723 0.0
H3200 H 0.82879 0.65038 0.04794 0.0
H3201 H 0.8493 0.66321 0.98204 0.0
H3202 H 0.86048 0.61364 0.06023 0.0
H3203 H 0.87952 0.64374 0.07291 0.0
H3204 H 0.85101 0.63888 0.07601 0.0
H3205 H 0.88011 0.65368 0.96845 0.0
H3206 H 0.90194 0.65572 0.99134 0.0
H3207 H 0.88366 0.62577 0.97643 0.0
H3208 H 0.94616 0.6389 0.04172 0.0
H3209 H 0.8981 0.56833 0.01096 0.0
H3210 H 0.90784 0.67379 0.05821 0.0
H3211 H 0.91746 0.67826 0.03098 0.0
H3212 H 0.93611 0.67626 0.05518 0.0
H3213 H 0.85117 0.58779 0.02033 0.0
H3214 H 0.86101 0.56455 1.00174 0.0
H3215 H 0.85693 0.59107 0.99135 0.0
C3216 C 0.20332 0.1037 0.77613 0.0
C3217 C 0.2145 0.09051 0.78857 0.0
C3218 C 0.21369 0.12818 0.77307 0.0
C3219 C 0.23626 0.14032 0.78204 0.0
C3220 C 0.24768 0.12687 0.79424 0.0
C3221 C 0.2368 0.10274 0.79758 0.0
C3222 C 0.20031 0.14116 0.7602 0.0
C3223 C 0.27171 0.138 0.80377 0.0
C3224 C 0.27128 0.19264 0.75562 0.0
C3225 C 0.27341 0.21525 0.77265 0.0
C3226 C 0.25867 0.16878 0.75789 0.0
C3227 C 0.24807 0.16649 0.77825 0.0
C3228 C 0.24984 0.18937 0.79538 0.0
C3229 C 0.26226 0.21316 0.79238 0.0
C3230 C 0.25743 0.14573 0.7387 0.0
C3231 C 0.23928 0.18865 0.81754 0.0
H3232 H 0.18616 0.09508 0.7691 0.0
H3233 H 0.24599 0.09324 0.80715 0.0
H3234 H 0.20147 0.15994 0.77156 0.0
H3235 H 0.20692 0.14414 0.74364 0.0
H3236 H 0.18281 0.13022 0.75535 0.0
H3237 H 0.27855 0.12543 0.81257 0.0
H3238 H 0.28092 0.1418 0.78898 0.0
H3239 H 0.27438 0.15622 0.81685 0.0
H3240 H 0.28012 0.19352 0.74057 0.0
H3241 H 0.26418 0.23003 0.80623 0.0
H3242 H 0.24014 0.13459 0.73239 0.0
H3243 H 0.26593 0.1336 0.74615 0.0
H3244 H 0.26498 0.15048 0.72313 0.0
H3245 H 0.22168 0.17825 0.8126 0.0
H3246 H 0.24088 0.20775 0.82854 0.0
H3247 H 0.24697 0.17844 0.82856 0.0
C3248 C 0.41701 0.96473 0.27103 0.0
C3249 C 0.40828 0.98515 0.27498 0.0
C3250 C 0.4031 0.94015 0.26579 0.0
C3251 C 0.38025 0.93641 0.26481 0.0
C3252 C 0.37143 0.95699 0.26622 0.0
C3253 C 0.38564 0.98121 0.27133 0.0
C3254 C 0.4129 0.91843 0.26354 0.0
C3255 C 0.34714 0.95371 0.26478 0.0
C3256 C 0.34146 0.87074 0.24666 0.0
C3257 C 0.33892 0.86531 0.26897 0.0
C3258 C 0.35478 0.89384 0.2449 0.0
C3259 C 0.36593 0.91184 0.26599 0.0
C3260 C 0.36304 0.90673 0.28862 0.0
C3261 C 0.34951 0.88349 0.28983 0.0
C3262 C 0.35732 0.89854 0.22044 0.0
C3263 C 0.37442 0.92573 0.31156 0.0
H3264 H 0.43459 0.968 0.27406 0.0
H3265 H 0.37908 0.99725 0.27447 0.0
H3266 H 0.41164 0.91115 0.27987 0.0
H3267 H 0.40376 0.90286 0.24813 0.0
H3268 H 0.43039 0.924 0.26127 0.0
H3269 H 0.34284 0.97112 0.26318 0.0
H3270 H 0.33803 0.93825 0.24928 0.0
H3271 H 0.34159 0.94861 0.28115 0.0
H3272 H 0.33312 0.85688 0.23046 0.0
H3273 H 0.34761 0.87938 0.3071 0.0
H3274 H 0.37269 0.89484 0.21536 0.0
H3275 H 0.35834 0.91829 0.22022 0.0
H3276 H 0.34356 0.88601 0.20668 0.0
H3277 H 0.3924 0.92996 0.31216 0.0
H3278 H 0.37005 0.91902 0.32766 0.0
H3279 H 0.37009 0.94357 0.31233 0.0
C3280 C 0.57173 0.37038 0.55739 0.0
C3281 C 0.58418 0.37519 0.58006 0.0
C3282 C 0.56881 0.38991 0.54705 0.0
C3283 C 0.57844 0.41526 0.5596 0.0
C3284 C 0.59209 0.42031 0.58188 0.0
C3285 C 0.59485 0.40027 0.5918 0.0
C3286 C 0.55434 0.38329 0.52322 0.0
C3287 C 0.6026 0.44695 0.59605 0.0
C3288 C 0.58142 0.46822 0.52693 0.0
C3289 C 0.5625 0.47539 0.53165 0.0
C3290 C 0.58658 0.44847 0.53543 0.0
C3291 C 0.57309 0.43624 0.55005 0.0
C3292 C 0.55407 0.44371 0.55509 0.0
C3293 C 0.54881 0.46276 0.54548 0.0
C3294 C 0.60644 0.4406 0.52863 0.0
C3295 C 0.53944 0.43188 0.57106 0.0
H3296 H 0.56318 0.35111 0.54821 0.0
H3297 H 0.60402 0.40433 0.60952 0.0
H3298 H 0.53902 0.3886 0.5257 0.0
H3299 H 0.56256 0.39396 0.51097 0.0
H3300 H 0.54995 0.36291 0.51457 0.0
H3301 H 0.61409 0.44794 0.61201 0.0
H3302 H 0.61161 0.45826 0.58473 0.0
H3303 H 0.58973 0.45567 0.60201 0.0
H3304 H 0.5921 0.47792 0.51629 0.0
H3305 H 0.53436 0.46847 0.54954 0.0
H3306 H 0.60159 0.4203 0.51965 0.0
H3307 H 0.61822 0.44339 0.54489 0.0
H3308 H 0.61485 0.45133 0.5165 0.0
H3309 H 0.53217 0.41156 0.56286 0.0
H3310 H 0.52599 0.44066 0.57435 0.0
H3311 H 0.54917 0.43364 0.5885 0.0
C3312 C 0.43141 0.75818 0.37628 0.0
C3313 C 0.45205 0.77071 0.3719 0.0
C3314 C 0.41203 0.76112 0.36501 0.0
C3315 C 0.41317 0.77697 0.34888 0.0
C3316 C 0.43402 0.79052 0.34527 0.0
C3317 C 0.45308 0.78724 0.35676 0.0
C3318 C 0.39025 0.74643 0.36959 0.0
C3319 C 0.43626 0.80762 0.32834 0.0
C3320 C 0.36581 0.75917 0.29755 0.0
C3321 C 0.35444 0.77705 0.30438 0.0
C3322 C 0.38487 0.7592 0.31171 0.0
C3323 C 0.39276 0.77718 0.33381 0.0
C3324 C 0.3813 0.79524 0.341 0.0
C3325 C 0.36242 0.79512 0.32611 0.0
C3326 C 0.39674 0.74004 0.30281 0.0
C3327 C 0.3889 0.81456 0.36449 0.0
H3328 H 0.43034 0.74543 0.38796 0.0
H3329 H 0.46888 0.79722 0.3533 0.0
H3330 H 0.37967 0.75896 0.374 0.0
H3331 H 0.38177 0.73183 0.35319 0.0
H3332 H 0.39202 0.73708 0.3844 0.0
H3333 H 0.45349 0.81864 0.32921 0.0
H3334 H 0.43012 0.79625 0.30977 0.0
H3335 H 0.42623 0.82084 0.3324 0.0
H3336 H 0.36002 0.74523 0.28073 0.0
H3337 H 0.35379 0.809 0.33157 0.0
H3338 H 0.39744 0.7282 0.31568 0.0
H3339 H 0.41384 0.74969 0.30145 0.0
H3340 H 0.38878 0.72762 0.28504 0.0
H3341 H 0.38815 0.805 0.37938 0.0
H3342 H 0.3788 0.8279 0.36718 0.0
H3343 H 0.40619 0.82535 0.36551 0.0
C3344 C 0.05478 0.72632 0.08445 0.0
C3345 C 0.06687 0.74714 0.07739 0.0
C3346 C 0.05499 0.70194 0.07339 0.0
C3347 C 0.06717 0.69828 0.05436 0.0
C3348 C 0.0793 0.71934 0.04701 0.0
C3349 C 0.07922 0.74367 0.05887 0.0
C3350 C 0.04223 0.68012 0.08217 0.0
C3351 C 0.09207 0.71611 0.02647 0.0
C3352 C 0.08064 0.63585 0.042 0.0
C3353 C 0.0629 0.62071 0.0247 0.0
C3354 C 0.08279 0.66145 0.0511 0.0
C3355 C 0.06706 0.67229 0.04236 0.0
C3356 C 0.04987 0.65743 0.02383 0.0
C3357 C 0.04787 0.63176 0.0154 0.0
C3358 C 0.10109 0.67645 0.07119 0.0
C3359 C 0.03295 0.66832 0.01373 0.0
H3360 H 0.04531 0.72919 0.09889 0.0
H3361 H 0.08847 0.7599 0.05343 0.0
H3362 H 0.02945 0.66717 0.06761 0.0
H3363 H 0.05325 0.66931 0.08749 0.0
H3364 H 0.03421 0.68629 0.09768 0.0
H3365 H 0.10042 0.73434 0.02276 0.0
H3366 H 0.10452 0.70646 0.03039 0.0
H3367 H 0.08094 0.70407 0.0101 0.0
H3368 H 0.09223 0.62743 0.04943 0.0
H3369 H 0.03418 0.62019 1.00194 0.0
H3370 H 0.09415 0.68141 0.08783 0.0
H3371 H 0.10992 0.69428 0.06716 0.0
H3372 H 0.11301 0.66591 0.07455 0.0
H3373 H 0.0223 0.67236 0.02725 0.0
H3374 H 0.02247 0.6553 0.99736 0.0
H3375 H 0.04096 0.68632 0.00943 0.0
C3376 C 0.0823 0.30536 0.86263 0.0
C3377 C 0.07639 0.29315 0.88075 0.0
C3378 C 0.1031 0.30822 0.85573 0.0
C3379 C 0.11857 0.29909 0.86752 0.0
C3380 C 0.11326 0.28844 0.88702 0.0
C3381 C 0.09213 0.28529 0.89322 0.0
C3382 C 0.10803 0.31967 0.83483 0.0
C3383 C 0.12963 0.27948 0.90069 0.0
C3384 C 0.1573 0.27586 0.82856 0.0
C3385 C 0.1758 0.29669 0.83401 0.0
C3386 C 0.13889 0.27622 0.83991 0.0
C3387 C 0.13902 0.29783 0.85746 0.0
C3388 C 0.15807 0.31852 0.86391 0.0
C3389 C 0.17615 0.31782 0.8519 0.0
C3390 C 0.11887 0.25385 0.83226 0.0
C3391 C 0.15912 0.34173 0.88285 0.0
H3392 H 0.07031 0.31164 0.853 0.0
H3393 H 0.08782 0.27625 0.90754 0.0
H3394 H 0.12353 0.33503 0.83976 0.0
H3395 H 0.11019 0.30523 0.81976 0.0
H3396 H 0.0948 0.32729 0.82856 0.0
H3397 H 0.12398 0.2745 0.91709 0.0
H3398 H 0.13246 0.26268 0.88917 0.0
H3399 H 0.14556 0.29418 0.90582 0.0
H3400 H 0.15682 0.25963 0.81455 0.0
H3401 H 0.19049 0.33393 0.8563 0.0
H3402 H 0.10504 0.25957 0.82443 0.0
H3403 H 0.11392 0.24675 0.84795 0.0
H3404 H 0.12162 0.23825 0.81884 0.0
H3405 H 0.14968 0.35302 0.8754 0.0
H3406 H 0.1762 0.35369 0.88919 0.0
H3407 H 0.15174 0.33667 0.89839 0.0
C3408 C 0.58158 0.74893 0.91285 0.0
C3409 C 0.58372 0.77373 0.92461 0.0
C3410 C 0.57699 0.72986 0.92497 0.0
C3411 C 0.57518 0.73615 0.94951 0.0
C3412 C 0.57881 0.76151 0.96182 0.0
C3413 C 0.58261 0.78011 0.949 0.0
C3414 C 0.57254 0.70293 0.91114 0.0
C3415 C 0.57755 0.76879 0.98817 0.0
C3416 C 0.54011 0.68734 0.97585 0.0
C3417 C 0.55601 0.67846 0.98656 0.0
C3418 C 0.54611 0.70602 0.96337 0.0
C3419 C 0.56851 0.71608 0.96206 0.0
C3420 C 0.58457 0.70711 0.97283 0.0
C3421 C 0.57809 0.6883 0.98494 0.0
C3422 C 0.52857 0.71492 0.95154 0.0
C3423 C 0.60857 0.71755 0.97177 0.0
H3424 H 0.58186 0.74423 0.89375 0.0
H3425 H 0.58386 0.7994 0.95773 0.0
H3426 H 0.58218 0.69301 0.92037 0.0
H3427 H 0.555 0.69298 0.91007 0.0
H3428 H 0.57643 0.70151 0.89267 0.0
H3429 H 0.58307 0.78945 0.99549 0.0
H3430 H 0.56044 0.7617 0.99121 0.0
H3431 H 0.58773 0.76006 0.99829 0.0
H3432 H 0.52302 0.67943 0.97698 0.0
H3433 H 0.59035 0.68149 0.99347 0.0
H3434 H 0.52962 0.71266 0.93222 0.0
H3435 H 0.53109 0.73519 0.95942 0.0
H3436 H 0.51188 0.70448 0.95355 0.0
H3437 H 0.61141 0.71505 0.95291 0.0
H3438 H 0.61895 0.70834 0.98105 0.0
H3439 H 0.61392 0.73801 0.98011 0.0
C3440 C 0.06655 0.77611 0.70551 0.0
C3441 C 0.05064 0.75297 0.7016 0.0
C3442 C 0.08783 0.77925 0.71608 0.0
C3443 C 0.09316 0.75866 0.7226 0.0
C3444 C 0.07697 0.73561 0.7197 0.0
C3445 C 0.05575 0.73306 0.70925 0.0
C3446 C 0.10483 0.8041 0.7191 0.0
C3447 C 0.08232 0.71323 0.72635 0.0
C3448 C 0.14963 0.7523 0.71838 0.0
C3449 C 0.15841 0.75788 0.74251 0.0
C3450 C 0.12848 0.75318 0.71166 0.0
C3451 C 0.11612 0.76011 0.72963 0.0
C3452 C 0.12525 0.76682 0.75404 0.0
C3453 C 0.14641 0.76538 0.76026 0.0
C3454 C 0.11908 0.74568 0.68542 0.0
C3455 C 0.11247 0.77476 0.77347 0.0
H3456 H 0.06249 0.79166 0.69989 0.0
H3457 H 0.0434 0.71521 0.70634 0.0
H3458 H 0.11444 0.81022 0.73729 0.0
H3459 H 0.11642 0.80199 0.7062 0.0
H3460 H 0.0974 0.81906 0.71603 0.0
H3461 H 0.06747 0.6974 0.72479 0.0
H3462 H 0.09336 0.70659 0.71443 0.0
H3463 H 0.09105 0.71859 0.74492 0.0
H3464 H 0.15906 0.7463 0.70479 0.0
H3465 H 0.15352 0.76985 0.77891 0.0
H3466 H 0.11284 0.76071 0.68041 0.0
H3467 H 0.10505 0.72853 0.68178 0.0
H3468 H 0.1313 0.74184 0.67377 0.0
H3469 H 0.1057 0.78999 0.76981 0.0
H3470 H 0.12264 0.78142 0.7914 0.0
H3471 H 0.09842 0.75871 0.77378 0.0
C3472 C 0.09739 0.39856 0.41878 0.0
C3473 C 0.07953 0.3778 0.41784 0.0
C3474 C 0.09826 0.42251 0.43247 0.0
C3475 C 0.08109 0.42536 0.4456 0.0
C3476 C 0.06291 0.40459 0.44427 0.0
C3477 C 0.06237 0.38119 0.43042 0.0
C3478 C 0.11754 0.44462 0.43318 0.0
C3479 C 0.04427 0.40676 0.45817 0.0
C3480 C 0.0872 0.4711 0.50434 0.0
C3481 C 0.07446 0.48612 0.4982 0.0
C3482 C 0.0913 0.45252 0.48684 0.0
C3483 C 0.08253 0.44918 0.46268 0.0
C3484 C 0.07086 0.46548 0.45625 0.0
C3485 C 0.0666 0.48353 0.47427 0.0
C3486 C 0.10331 0.43506 0.49449 0.0
C3487 C 0.06154 0.46266 0.43061 0.0
H3488 H 0.11059 0.39613 0.40887 0.0
H3489 H 0.0485 0.36535 0.42991 0.0
H3490 H 0.11178 0.46025 0.42883 0.0
H3491 H 0.12697 0.45168 0.45146 0.0
H3492 H 0.12868 0.43972 0.4205 0.0
H3493 H 0.03107 0.38882 0.45449 0.0
H3494 H 0.05046 0.41257 0.47761 0.0
H3495 H 0.03704 0.42132 0.45367 0.0
H3496 H 0.09332 0.47327 0.52297 0.0
H3497 H 0.0561 0.49454 0.46977 0.0
H3498 H 0.11634 0.43316 0.48346 0.0
H3499 H 0.09174 0.4161 0.49174 0.0
H3500 H 0.11078 0.44166 0.5136 0.0
H3501 H 0.07448 0.46222 0.41912 0.0
H3502 H 0.05447 0.47817 0.42847 0.0
H3503 H 0.04854 0.44461 0.42406 0.0
C3504 C 0.43306 0.24739 0.18645 0.0
C3505 C 0.45271 0.24777 0.19956 0.0
C3506 C 0.4152 0.25021 0.19786 0.0
C3507 C 0.41693 0.25278 0.22282 0.0
C3508 C 0.4357 0.25005 0.2356 0.0
C3509 C 0.45352 0.2477 0.2238 0.0
C3510 C 0.39522 0.25255 0.18354 0.0
C3511 C 0.43763 0.25167 0.26207 0.0
C3512 C 0.38451 0.29353 0.25428 0.0
C3513 C 0.36597 0.27542 0.25684 0.0
C3514 C 0.40162 0.28634 0.24394 0.0
C3515 C 0.3999 0.26048 0.2357 0.0
C3516 C 0.38138 0.24216 0.23853 0.0
C3517 C 0.36483 0.24985 0.24946 0.0
C3518 C 0.42112 0.3064 0.24093 0.0
C3519 C 0.37871 0.21443 0.22954 0.0
H3520 H 0.43219 0.24715 0.16763 0.0
H3521 H 0.46859 0.24766 0.23394 0.0
H3522 H 0.38011 0.24037 0.18749 0.0
H3523 H 0.39435 0.2722 0.18862 0.0
H3524 H 0.39552 0.24746 0.16399 0.0
H3525 H 0.45209 0.24623 0.26877 0.0
H3526 H 0.43915 0.27121 0.27185 0.0
H3527 H 0.42271 0.23935 0.26625 0.0
H3528 H 0.38544 0.31327 0.25983 0.0
H3529 H 0.35052 0.23564 0.25126 0.0
H3530 H 0.42172 0.30512 0.22163 0.0
H3531 H 0.43648 0.30348 0.24869 0.0
H3532 H 0.42056 0.32561 0.24955 0.0
H3533 H 0.38425 0.21021 0.21192 0.0
H3534 H 0.36142 0.2032 0.22771 0.0
H3535 H 0.38885 0.20826 0.24231 0.0
C3536 C 0.61721 0.5029 0.34454 0.0
C3537 C 0.63611 0.52148 0.34275 0.0
C3538 C 0.60668 0.50413 0.36549 0.0
C3539 C 0.61439 0.52496 0.38587 0.0
C3540 C 0.6334 0.54393 0.38405 0.0
C3541 C 0.64396 0.54189 0.36304 0.0
C3542 C 0.58691 0.48295 0.36555 0.0
C3543 C 0.64235 0.56701 0.40427 0.0
C3544 C 0.57205 0.53808 0.42897 0.0
C3545 C 0.57788 0.52991 0.44948 0.0
C3546 C 0.58395 0.5374 0.40909 0.0
C3547 C 0.60221 0.52727 0.40831 0.0
C3548 C 0.60812 0.51878 0.42893 0.0
C3549 C 0.59625 0.52037 0.44899 0.0
C3550 C 0.57646 0.54715 0.38847 0.0
C3551 C 0.62655 0.50678 0.42938 0.0
H3552 H 0.61048 0.48706 0.32928 0.0
H3553 H 0.65818 0.55678 0.36231 0.0
H3554 H 0.58782 0.47739 0.38279 0.0
H3555 H 0.57198 0.48926 0.36341 0.0
H3556 H 0.58518 0.46621 0.3508 0.0
H3557 H 0.65696 0.58029 0.40054 0.0
H3558 H 0.62956 0.57683 0.40752 0.0
H3559 H 0.64683 0.56158 0.42094 0.0
H3560 H 0.55769 0.54486 0.42828 0.0
H3561 H 0.6008 0.51298 0.46388 0.0
H3562 H 0.56871 0.53117 0.37289 0.0
H3563 H 0.59061 0.55952 0.38303 0.0
H3564 H 0.56442 0.5578 0.39292 0.0
H3565 H 0.6224 0.48951 0.41469 0.0
H3566 H 0.62989 0.50175 0.44659 0.0
H3567 H 0.64169 0.51964 0.42626 0.0
C3568 C 0.31255 0.87858 0.07005 0.0
C3569 C 0.3264 0.88673 0.05425 0.0
C3570 C 0.31986 0.86796 0.08781 0.0
C3571 C 0.34154 0.86595 0.08978 0.0
C3572 C 0.35519 0.87315 0.07321 0.0
C3573 C 0.34723 0.88292 0.05526 0.0
C3574 C 0.30471 0.85981 0.10499 0.0
C3575 C 0.37851 0.87169 0.07513 0.0
C3576 C 0.36167 0.86118 0.1512 0.0
C3577 C 0.35737 0.83512 0.14742 0.0
C3578 C 0.35824 0.87189 0.13204 0.0
C3579 C 0.34974 0.85591 0.10904 0.0
C3580 C 0.34707 0.82983 0.10494 0.0
C3581 C 0.35126 0.81977 0.12424 0.0
C3582 C 0.36209 0.89997 0.13673 0.0
C3583 C 0.3376 0.81221 0.08073 0.0
H3584 H 0.29645 0.88155 0.06926 0.0
H3585 H 0.35777 0.88864 0.04266 0.0
H3586 H 0.30394 0.84029 0.10593 0.0
H3587 H 0.3111 0.87205 0.12319 0.0
H3588 H 0.28788 0.86079 0.0998 0.0
H3589 H 0.38695 0.87807 0.06065 0.0
H3590 H 0.38784 0.88355 0.09258 0.0
H3591 H 0.37895 0.85217 0.07448 0.0
H3592 H 0.36636 0.87292 0.16924 0.0
H3593 H 0.34762 0.79956 0.12151 0.0
H3594 H 0.34615 0.90436 0.13617 0.0
H3595 H 0.37052 0.90739 0.12274 0.0
H3596 H 0.372 0.9099 0.15449 0.0
H3597 H 0.32013 0.81142 0.07654 0.0
H3598 H 0.33868 0.79287 0.08007 0.0
H3599 H 0.3461 0.81909 0.06656 0.0
C3600 C 0.96755 0.53006 0.86064 0.0
C3601 C 0.97779 0.53053 0.84026 0.0
C3602 C 0.9766 0.52329 0.88017 0.0
C3603 C 0.99665 0.51738 0.87941 0.0
C3604 C 0.00556 0.51451 0.85785 0.0
C3605 C 0.99601 0.52123 0.83838 0.0
C3606 C 0.96614 0.52569 0.9026 0.0
C3607 C 0.0264 0.50693 0.85624 0.0
C3608 C 0.03756 0.54979 0.93503 0.0
C3609 C 0.03598 0.53058 0.94683 0.0
C3610 C 0.02473 0.54552 0.91298 0.0
C3611 C 0.01078 0.52111 0.90217 0.0
C3612 C 0.00963 0.50138 0.91383 0.0
C3613 C 0.02195 0.50657 0.93645 0.0
C3614 C 0.02567 0.56737 0.90162 0.0
C3615 C 0.99517 0.47508 0.90293 0.0
H3616 H 0.95325 0.53654 0.86224 0.0
H3617 H 1.00369 0.52083 0.82242 0.0
H3618 H 0.96684 0.51021 0.91126 0.0
H3619 H 0.97518 0.54363 0.9155 0.0
H3620 H 0.94878 0.52562 0.89887 0.0
H3621 H 0.02865 0.50045 0.8374 0.0
H3622 H 0.04053 0.52328 0.86514 0.0
H3623 H 0.02649 0.49176 0.86559 0.0
H3624 H 0.04829 0.56838 0.94346 0.0
H3625 H 0.0209 0.49176 0.94584 0.0
H3626 H 0.0092 0.57026 0.89902 0.0
H3627 H 0.03085 0.56331 0.88379 0.0
H3628 H 0.03719 0.58515 0.91264 0.0
H3629 H 0.97864 0.47342 0.90797 0.0
H3630 H 1.00163 0.46099 0.9097 0.0
H3631 H 0.9935 0.47037 0.88315 0.0
C3632 C 0.30993 0.25967 0.57967 0.0
C3633 C 0.29678 0.23654 0.56534 0.0
C3634 C 0.3081 0.26737 0.60401 0.0
C3635 C 0.29315 0.25133 0.61455 0.0
C3636 C 0.27918 0.22848 0.59993 0.0
C3637 C 0.28099 0.22152 0.57553 0.0
C3638 C 0.3229 0.2922 0.61869 0.0
C3639 C 0.26321 0.21059 0.61036 0.0
C3640 C 0.3092 0.25507 0.68056 0.0
C3641 C 0.29526 0.26784 0.69165 0.0
C3642 C 0.30847 0.24945 0.65562 0.0
C3643 C 0.29369 0.25714 0.64117 0.0
C3644 C 0.27958 0.27013 0.65221 0.0
C3645 C 0.28038 0.2751 0.67727 0.0
C3646 C 0.32358 0.23521 0.64473 0.0
C3647 C 0.26396 0.2792 0.63761 0.0
H3648 H 0.32208 0.27152 0.57201 0.0
H3649 H 0.27082 0.20355 0.56475 0.0
H3650 H 0.31344 0.30282 0.62969 0.0
H3651 H 0.33545 0.28886 0.6311 0.0
H3652 H 0.33137 0.30397 0.60735 0.0
H3653 H 0.25237 0.19454 0.59639 0.0
H3654 H 0.27236 0.20311 0.62291 0.0
H3655 H 0.25293 0.22053 0.62071 0.0
H3656 H 0.32069 0.24924 0.69142 0.0
H3657 H 0.26969 0.28521 0.68564 0.0
H3658 H 0.33478 0.24686 0.6353 0.0
H3659 H 0.31394 0.21794 0.63129 0.0
H3660 H 0.33356 0.22979 0.65831 0.0
H3661 H 0.2733 0.29287 0.62847 0.0
H3662 H 0.25362 0.28836 0.64872 0.0
H3663 H 0.25316 0.2633 0.62351 0.0
C3664 C 0.60421 0.52824 0.19817 0.0
C3665 C 0.62066 0.5161 0.20134 0.0
C3666 C 0.59507 0.52973 0.17537 0.0
C3667 C 0.6022 0.51888 0.15417 0.0
C3668 C 0.61872 0.50641 0.15705 0.0
C3669 C 0.62766 0.50517 0.18028 0.0
C3670 C 0.57757 0.54308 0.17404 0.0
C3671 C 0.62716 0.4945 0.13543 0.0
C3672 C 0.56494 0.50579 0.09264 0.0
C3673 C 0.57313 0.52755 0.08439 0.0
C3674 C 0.57403 0.50271 0.11495 0.0
C3675 C 0.59264 0.52124 0.12945 0.0
C3676 C 0.60131 0.54289 0.12075 0.0
C3677 C 0.59132 0.54597 0.09894 0.0
C3678 C 0.5633 0.47973 0.12326 0.0
C3679 C 0.62133 0.56302 0.13457 0.0
H3680 H 0.59829 0.53689 0.21379 0.0
H3681 H 0.64019 0.49564 0.18189 0.0
H3682 H 0.58324 0.5594 0.16621 0.0
H3683 H 0.56265 0.53029 0.16215 0.0
H3684 H 0.57315 0.54989 0.19185 0.0
H3685 H 0.63982 0.4854 0.1402 0.0
H3686 H 0.61349 0.48019 0.12285 0.0
H3687 H 0.63424 0.50895 0.12586 0.0
H3688 H 0.55089 0.49135 0.08194 0.0
H3689 H 0.59812 0.5628 0.09299 0.0
H3690 H 0.55814 0.48544 0.14088 0.0
H3691 H 0.57515 0.46888 0.12566 0.0
H3692 H 0.54876 0.46726 0.11048 0.0
H3693 H 0.61761 0.57217 0.15199 0.0
H3694 H 0.62728 0.57766 0.12476 0.0
H3695 H 0.63468 0.55455 0.13841 0.0
C3696 C 0.3125 0.89139 0.93864 0.0
C3697 C 0.33325 0.89749 0.95225 0.0
C3698 C 0.30785 0.87586 0.91548 0.0
C3699 C 0.32437 0.86628 0.90575 0.0
C3700 C 0.34558 0.87321 0.91894 0.0
C3701 C 0.34977 0.88874 0.94204 0.0
C3702 C 0.28508 0.86901 0.90174 0.0
C3703 C 0.36365 0.86359 0.90893 0.0
C3704 C 0.30612 0.80544 0.85771 0.0
C3705 C 0.30799 0.81434 0.83702 0.0
C3706 C 0.31158 0.82221 0.88031 0.0
C3707 C 0.31925 0.84834 0.88206 0.0
C3708 C 0.3217 0.85732 0.8612 0.0
C3709 C 0.31592 0.84019 0.8389 0.0
C3710 C 0.3087 0.81206 0.90227 0.0
C3711 C 0.32997 0.88503 0.8624 0.0
H3712 H 0.29965 0.89815 0.94629 0.0
H3713 H 0.36593 0.89353 0.95229 0.0
H3714 H 0.28577 0.87335 0.88398 0.0
H3715 H 0.27739 0.84852 0.89863 0.0
H3716 H 0.27446 0.87913 0.91134 0.0
H3717 H 0.37955 0.87186 0.92097 0.0
H3718 H 0.35929 0.84287 0.90606 0.0
H3719 H 0.36568 0.86789 0.89131 0.0
H3720 H 0.2999 0.78546 0.85623 0.0
H3721 H 0.31725 0.84711 0.82286 0.0
H3722 H 0.29672 0.8196 0.91197 0.0
H3723 H 0.32441 0.8183 0.91462 0.0
H3724 H 0.30291 0.79122 0.89785 0.0
H3725 H 0.3184 0.89488 0.87018 0.0
H3726 H 0.33195 0.88877 0.84453 0.0
H3727 H 0.34595 0.89328 0.87425 0.0
C3728 C 0.98161 0.52838 0.73049 0.0
C3729 C 0.95968 0.52478 0.73313 0.0
C3730 C 0.98813 0.50976 0.71547 0.0
C3731 C 0.97217 0.48691 0.70356 0.0
C3732 C 0.95168 0.48106 0.71166 0.0
C3733 C 0.94521 0.50056 0.72573 0.0
C3734 C 0.01097 0.5166 0.70919 0.0
C3735 C 0.93557 0.4554 0.70303 0.0
C3736 C 0.97614 0.48878 0.641 0.0
C3737 C 0.99598 0.48291 0.63971 0.0
C3738 C 0.9651 0.48577 0.66038 0.0
C3739 C 0.97398 0.47589 0.67835 0.0
C3740 C 0.99048 0.46386 0.67341 0.0
C3741 C 1.00186 0.46812 0.65433 0.0
C3742 C 0.9463 0.49715 0.66332 0.0
C3743 C 0.99794 0.44916 0.6897 0.0
H3744 H 0.99285 0.54707 0.73692 0.0
H3745 H 0.9283 0.4975 0.72856 0.0
H3746 H 0.0188 0.50156 0.71045 0.0
H3747 H 0.01028 0.51895 0.69062 0.0
H3748 H 0.02154 0.53438 0.72125 0.0
H3749 H 0.92956 0.44879 0.71861 0.0
H3750 H 0.92108 0.45638 0.69165 0.0
H3751 H 0.94291 0.44148 0.69291 0.0
H3752 H 0.97086 0.49878 0.62861 0.0
H3753 H 0.01658 0.46221 0.65259 0.0
H3754 H 0.95134 0.51421 0.67826 0.0
H3755 H 0.93216 0.48364 0.66741 0.0
H3756 H 0.94079 0.50261 0.64699 0.0
H3757 H 0.01534 0.45821 0.69758 0.0
H3758 H 0.99699 0.43013 0.67903 0.0
H3759 H 0.98785 0.44723 0.70419 0.0
C3760 C 0.28031 0.23383 0.42606 0.0
C3761 C 0.29987 0.23791 0.44143 0.0
C3762 C 0.28027 0.24254 0.40481 0.0
C3763 C 0.30026 0.25526 0.39838 0.0
C3764 C 0.31995 0.25945 0.41385 0.0
C3765 C 0.3195 0.25103 0.43505 0.0
C3766 C 0.25883 0.23795 0.38909 0.0
C3767 C 0.34171 0.27272 0.40792 0.0
C3768 C 0.30685 0.26081 0.33416 0.0
C3769 C 0.30606 0.28545 0.33514 0.0
C3770 C 0.30406 0.25034 0.3542 0.0
C3771 C 0.30084 0.26499 0.37601 0.0
C3772 C 0.29995 0.28986 0.37695 0.0
C3773 C 0.30238 0.29964 0.35658 0.0
C3774 C 0.30497 0.2237 0.35213 0.0
C3775 C 0.29695 0.30647 0.39971 0.0
H3776 H 0.26505 0.22366 0.43052 0.0
H3777 H 0.33486 0.25428 0.4464 0.0
H3778 H 0.2566 0.25603 0.38654 0.0
H3779 H 0.25895 0.22629 0.37117 0.0
H3780 H 0.24466 0.22833 0.39668 0.0
H3781 H 0.35565 0.27397 0.42144 0.0
H3782 H 0.34424 0.26269 0.39024 0.0
H3783 H 0.34187 0.29201 0.40672 0.0
H3784 H 0.30967 0.24971 0.31774 0.0
H3785 H 0.30176 0.31873 0.35762 0.0
H3786 H 0.2904 0.21276 0.35816 0.0
H3787 H 0.31958 0.22365 0.36394 0.0
H3788 H 0.30573 0.2141 0.33355 0.0
H3789 H 0.28217 0.29698 0.40642 0.0
H3790 H 0.29538 0.32485 0.39723 0.0
H3791 H 0.31115 0.30997 0.41371 0.0
C3792 C 0.33677 0.58525 0.53351 0.0
C3793 C 0.3288 0.59947 0.51979 0.0
C3794 C 0.35491 0.57671 0.528 0.0
C3795 C 0.36462 0.58183 0.50785 0.0
C3796 C 0.35652 0.59615 0.49394 0.0
C3797 C 0.33892 0.60511 0.50032 0.0
C3798 C 0.36356 0.562 0.54353 0.0
C3799 C 0.36578 0.60114 0.47177 0.0
C3800 C 0.42188 0.57562 0.50497 0.0
C3801 C 0.41763 0.55072 0.49173 0.0
C3802 C 0.40478 0.58624 0.50989 0.0
C3803 C 0.38296 0.57171 0.50107 0.0
C3804 C 0.3786 0.54715 0.48646 0.0
C3805 C 0.39599 0.53685 0.48215 0.0
C3806 C 0.41001 0.61268 0.52517 0.0
C3807 C 0.35554 0.53145 0.476 0.0
H3808 H 0.32886 0.58084 0.54848 0.0
H3809 H 0.33248 0.6157 0.48935 0.0
H3810 H 0.36184 0.54274 0.5329 0.0
H3811 H 0.38125 0.57099 0.55006 0.0
H3812 H 0.35486 0.56065 0.55917 0.0
H3813 H 0.35868 0.61421 0.46401 0.0
H3814 H 0.38379 0.60915 0.47576 0.0
H3815 H 0.36232 0.58319 0.45807 0.0
H3816 H 0.43861 0.58672 0.51181 0.0
H3817 H 0.39252 0.51761 0.47195 0.0
H3818 H 0.40287 0.6124 0.54191 0.0
H3819 H 0.40257 0.62436 0.51576 0.0
H3820 H 0.42789 0.6218 0.52987 0.0
H3821 H 0.34648 0.52642 0.49053 0.0
H3822 H 0.35514 0.51386 0.46296 0.0
H3823 H 0.34675 0.54228 0.46692 0.0
C3824 C 0.89764 0.93206 0.54636 0.0
C3825 C 0.87962 0.93278 0.5311 0.0
C3826 C 0.91905 0.94525 0.54475 0.0
C3827 C 0.92269 0.9592 0.52716 0.0
C3828 C 0.90464 0.959 0.51094 0.0
C3829 C 0.8833 0.94603 0.51327 0.0
C3830 C 0.9377 0.94515 0.56261 0.0
C3831 C 0.90779 0.97321 0.49164 0.0
C3832 C 0.97358 0.01517 0.5426 0.0
C3833 C 0.98825 0.00596 0.52922 0.0
C3834 C 0.95205 1.00041 0.54143 0.0
C3835 C 0.94512 0.9755 0.52708 0.0
C3836 C 0.95993 0.96606 0.51357 0.0
C3837 C 0.98123 0.98155 0.51454 0.0
C3838 C 0.93672 0.01149 0.55568 0.0
C3839 C 0.95339 0.93949 0.49844 0.0
H3840 H 0.89495 0.92198 0.56027 0.0
H3841 H 0.86948 0.94653 0.50131 0.0
H3842 H 0.95083 0.93989 0.55327 0.0
H3843 H 0.94487 0.9643 0.5743 0.0
H3844 H 0.93239 0.93197 0.57406 0.0
H3845 H 0.89242 0.96937 0.47916 0.0
H3846 H 0.91368 0.99367 0.4999 0.0
H3847 H 0.92041 0.96817 0.48124 0.0
H3848 H 0.97883 0.03417 0.5537 0.0
H3849 H 0.99254 0.97442 0.50418 0.0
H3850 H 0.9316 1.00065 0.56906 0.0
H3851 H 0.92172 0.0102 0.54371 0.0
H3852 H 0.94432 0.03148 0.56514 0.0
H3853 H 0.94964 0.92613 0.51001 0.0
H3854 H 0.96644 0.93531 0.48824 0.0
H3855 H 0.93832 0.93608 0.48569 0.0
C3856 C 0.86603 0.12235 0.27187 0.0
C3857 C 0.88834 0.12506 0.26955 0.0
C3858 C 0.85562 0.14201 0.27136 0.0
C3859 C 0.86752 0.16642 0.26955 0.0
C3860 C 0.89018 0.16944 0.26753 0.0
C3861 C 0.90003 0.1491 0.26724 0.0
C3862 C 0.83158 0.13656 0.27307 0.0
C3863 C 0.90442 0.19467 0.26643 0.0
C3864 C 0.83543 0.21173 0.24888 0.0
C3865 C 0.83386 0.22833 0.27023 0.0
C3866 C 0.84647 0.19245 0.24839 0.0
C3867 C 0.85633 0.18834 0.26983 0.0
C3868 C 0.8548 0.20511 0.29149 0.0
C3869 C 0.84397 0.22455 0.29142 0.0
C3870 C 0.84739 0.17615 0.22458 0.0
C3871 C 0.86444 0.20232 0.31512 0.0
H3872 H 0.85645 0.10451 0.27417 0.0
H3873 H 0.91733 0.15249 0.26625 0.0
H3874 H 0.82915 0.1486 0.28977 0.0
H3875 H 0.82287 0.14116 0.25792 0.0
H3876 H 0.82404 0.1166 0.27293 0.0
H3877 H 0.9215 0.19445 0.26457 0.0
H3878 H 0.89757 0.20076 0.25117 0.0
H3879 H 0.90466 0.20888 0.28293 0.0
H3880 H 0.82799 0.21384 0.2322 0.0
H3881 H 0.84306 0.23661 0.30826 0.0
H3882 H 0.83893 0.15626 0.22376 0.0
H3883 H 0.86465 0.17724 0.22245 0.0
H3884 H 0.83973 0.18171 0.20939 0.0
H3885 H 0.85554 0.18398 0.31813 0.0
H3886 H 0.86352 0.21747 0.3303 0.0
H3887 H 0.88179 0.20245 0.31494 0.0
C3888 C 0.72367 0.08693 0.0092 0.0
C3889 C 0.72477 0.09358 0.98729 0.0
C3890 C 0.70555 0.08769 0.02103 0.0
C3891 C 0.68851 0.09579 0.01087 0.0
C3892 C 0.69094 0.10536 0.99026 0.0
C3893 C 0.70884 0.10358 0.97835 0.0
C3894 C 0.70363 0.07741 0.04299 0.0
C3895 C 0.6737 0.11547 0.97961 0.0
C3896 C 0.63022 0.05918 0.01016 0.0
C3897 C 0.62325 0.07515 0.02772 0.0
C3898 C 0.65161 0.06545 0.00529 0.0
C3899 C 0.66642 0.08867 0.01795 0.0
C3900 C 0.65961 0.10478 0.03614 0.0
C3901 C 0.63803 0.09757 0.04112 0.0
C3902 C 0.65811 0.04739 0.98603 0.0
C3903 C 0.67483 0.12965 0.05012 0.0
H3904 H 0.73613 0.07933 0.01615 0.0
H3905 H 0.71 0.10925 0.96165 0.0
H3906 H 0.69813 0.08999 0.057 0.0
H3907 H 0.69117 0.05884 0.03832 0.0
H3908 H 0.71936 0.07503 0.05044 0.0
H3909 H 0.68005 0.12694 0.96706 0.0
H3910 H 0.65964 0.09957 0.96965 0.0
H3911 H 0.66759 0.1271 0.99388 0.0
H3912 H 0.61873 0.0417 0.99996 0.0
H3913 H 0.63251 0.10986 0.05469 0.0
H3914 H 0.67334 0.04354 0.99286 0.0
H3915 H 0.66136 0.05586 0.97065 0.0
H3916 H 0.64519 0.02923 0.97945 0.0
H3917 H 0.68524 0.12653 0.0649 0.0
H3918 H 0.66564 0.14268 0.05811 0.0
H3919 H 0.68574 0.1388 0.03876 0.0
C3920 C 0.2155 0.50639 0.27929 0.0
C3921 C 0.19977 0.49051 0.26025 0.0
C3922 C 0.2334 0.49895 0.2877 0.0
C3923 C 0.23505 0.47476 0.27724 0.0
C3924 C 0.21897 0.45859 0.25816 0.0
C3925 C 0.20168 0.46689 0.24958 0.0
C3926 C 0.25047 0.51691 0.30766 0.0
C3927 C 0.21989 0.4324 0.24695 0.0
C3928 C 0.28747 0.45612 0.27732 0.0
C3929 C 0.28469 0.4403 0.29299 0.0
C3930 C 0.2722 0.46919 0.27341 0.0
C3931 C 0.2538 0.46625 0.28553 0.0
C3932 C 0.25193 0.45189 0.30289 0.0
C3933 C 0.26737 0.43878 0.30625 0.0
C3934 C 0.27474 0.48433 0.25477 0.0
C3935 C 0.23273 0.44875 0.31647 0.0
H3936 H 0.21392 0.52478 0.28739 0.0
H3937 H 0.18927 0.45463 0.23504 0.0
H3938 H 0.25102 0.50878 0.32344 0.0
H3939 H 0.26688 0.5199 0.30206 0.0
H3940 H 0.24717 0.53543 0.3131 0.0
H3941 H 0.20591 0.42213 0.23252 0.0
H3942 H 0.23531 0.43328 0.23939 0.0
H3943 H 0.21977 0.42148 0.26076 0.0
H3944 H 0.30082 0.45693 0.26695 0.0
H3945 H 0.26525 0.42628 0.31821 0.0
H3946 H 0.27169 0.50276 0.26145 0.0
H3947 H 0.26248 0.47415 0.23865 0.0
H3948 H 0.29128 0.48755 0.24942 0.0
H3949 H 0.2298 0.46716 0.32358 0.0
H3950 H 0.23525 0.43998 0.33154 0.0
H3951 H 0.21776 0.43667 0.3042 0.0
C3952 C 0.24025 0.40847 0.01788 0.0
C3953 C 0.2594 0.42784 0.02824 0.0
C3954 C 0.22036 0.41384 0.01194 0.0
C3955 C 0.21958 0.43913 0.01668 0.0
C3956 C 0.23894 0.45867 0.02686 0.0
C3957 C 0.2585 0.4528 0.03239 0.0
C3958 C 0.20023 0.39252 1.00055 0.0
C3959 C 0.23895 0.4859 0.03236 0.0
C3960 C 0.17595 0.4643 0.98972 0.0
C3961 C 0.16441 0.4688 0.00894 0.0
C3962 C 0.19288 0.45271 0.99115 0.0
C3963 C 0.19857 0.44564 0.01239 0.0
C3964 C 0.18594 0.44852 0.03112 0.0
C3965 C 0.16905 0.46 0.02917 0.0
C3966 C 0.20553 0.44948 0.9705 0.0
C3967 C 0.19132 0.44121 0.05406 0.0
H3968 H 0.24082 0.38915 0.01431 0.0
H3969 H 0.27314 0.46796 0.04031 0.0
H3970 H 0.18665 0.39354 0.011 0.0
H3971 H 0.19474 0.39412 0.98237 0.0
H3972 H 0.20322 0.37387 0.99912 0.0
H3973 H 0.25543 0.49888 0.04 0.0
H3974 H 0.2331 0.49079 0.01586 0.0
H3975 H 0.22755 0.48906 0.04527 0.0
H3976 H 0.1722 0.47055 0.9738 0.0
H3977 H 0.16038 0.46347 0.04419 0.0
H3978 H 0.20794 0.43046 0.96645 0.0
H3979 H 0.22196 0.46325 0.97536 0.0
H3980 H 0.19718 0.45239 0.95411 0.0
H3981 H 0.19334 0.422 0.05021 0.0
H3982 H 0.1785 0.44187 0.0657 0.0
H3983 H 0.20706 0.45425 0.06404 0.0
C3984 C 0.86852 0.97599 0.25303 0.0
C3985 C 0.88917 0.98881 0.26677 0.0
C3986 C 0.85782 0.95033 0.25236 0.0
C3987 C 0.86752 0.93659 0.26607 0.0
C3988 C 0.88858 0.94943 0.27958 0.0
C3989 C 0.89892 0.97497 0.27982 0.0
C3990 C 0.83561 0.93813 0.23747 0.0
C3991 C 0.89995 0.93647 0.29475 0.0
C3992 C 0.82803 0.88222 0.28579 0.0
C3993 C 0.82958 0.86002 0.27051 0.0
C3994 C 0.8406 0.90662 0.28502 0.0
C3995 C 0.855 0.90988 0.26785 0.0
C3996 C 0.85692 0.88749 0.25248 0.0
C3997 C 0.84446 0.8631 0.25406 0.0
C3998 C 0.83802 0.92913 0.30245 0.0
C3999 C 0.87153 0.88929 0.23353 0.0
H4000 H 0.86033 0.98627 0.24332 0.0
H4001 H 0.91455 0.98452 0.29104 0.0
H4002 H 0.83524 0.91969 0.22597 0.0
H4003 H 0.82309 0.93459 0.24935 0.0
H4004 H 0.83108 0.94999 0.22598 0.0
H4005 H 0.91671 0.94815 0.30315 0.0
H4006 H 0.8903 0.9321 0.30908 0.0
H4007 H 0.90101 0.91839 0.2838 0.0
H4008 H 0.81646 0.88053 0.29834 0.0
H4009 H 0.84555 0.8465 0.24154 0.0
H4010 H 0.83077 0.94065 0.29263 0.0
H4011 H 0.85425 0.94114 0.31213 0.0
H4012 H 0.82743 0.92371 0.31575 0.0
H4013 H 0.86504 0.89819 0.22026 0.0
H4014 H 0.87266 0.8706 0.22407 0.0
H4015 H 0.8882 0.90141 0.24155 0.0
C4016 C 0.70233 0.09872 0.73859 0.0
C4017 C 0.68556 0.09916 0.75243 0.0
C4018 C 0.71649 0.12101 0.73644 0.0
C4019 C 0.71293 0.14401 0.74748 0.0
C4020 C 0.69463 0.14438 0.75946 0.0
C4021 C 0.6814 0.12177 0.76246 0.0
C4022 C 0.73649 0.11992 0.72467 0.0
C4023 C 0.68997 0.16871 0.77049 0.0
C4024 C 0.76217 0.19967 0.77169 0.0
C4025 C 0.76255 0.21199 0.7532 0.0
C4026 C 0.7462 0.17715 0.76981 0.0
C4027 C 0.72994 0.16752 0.74933 0.0
C4028 C 0.73024 0.18003 0.73065 0.0
C4029 C 0.74689 0.20205 0.73265 0.0
C4030 C 0.7468 0.16372 0.78969 0.0
C4031 C 0.71282 0.17043 0.70887 0.0
H4032 H 0.70562 0.08103 0.73129 0.0
H4033 H 0.66843 0.12182 0.77327 0.0
H4034 H 0.73883 0.13229 0.71209 0.0
H4035 H 0.75121 0.12675 0.73858 0.0
H4036 H 0.73554 0.10054 0.71483 0.0
H4037 H 0.67325 0.16551 0.77536 0.0
H4038 H 0.70191 0.17864 0.7869 0.0
H4039 H 0.69178 0.18123 0.75799 0.0
H4040 H 0.7745 0.2075 0.78746 0.0
H4041 H 0.74726 0.21195 0.71852 0.0
H4042 H 0.74663 0.14397 0.78232 0.0
H4043 H 0.73209 0.1633 0.79852 0.0
H4044 H 0.76151 0.1729 0.80348 0.0
H4045 H 0.71321 0.15162 0.69895 0.0
H4046 H 0.7149 0.18316 0.69655 0.0
H4047 H 0.69642 0.16829 0.71441 0.0
loop_
_geom_bond_atom_site_label_1
_geom_bond_atom_site_label_2
_geom_bond_distance
_geom_bond_site_symmetry_2
_ccdc_geom_bond_type
Mg0 O1 2.028 . S
Mg0 O7 1.986 . S
Mg0 O9 2.114 . S
Mg0 O10 2.251 . S
Mg0 O13 2.010 . S
O1 Mg0 2.028 . S
O1 C4 1.250 . S
O2 Mg3 2.028 . S
O2 C4 1.248 . S
Mg3 O2 2.028 . S
Mg3 O8 2.032 . S
Mg3 O10 2.079 . S
C4 O1 1.250 . S
C4 O2 1.248 . S
C5 O6 1.264 . S
C5 O13 1.249 . S
O6 C5 1.264 . S
O7 Mg0 1.986 . S
O7 C11 1.246 . S
O8 Mg3 2.032 . S
O8 C11 1.259 . S
O9 Mg0 2.114 . S
O9 C12 1.252 . S
O10 Mg0 2.251 . S
O10 Mg3 2.079 . S
O10 C12 1.273 . S
C11 O7 1.246 . S
C11 O8 1.259 . S
C12 O9 1.252 . S
C12 O10 1.273 . S
O13 Mg0 2.010 . S
O13 C5 1.249 . S
Mg14 O15 2.028 . S
Mg14 O21 1.986 . S
Mg14 O23 2.114 1_455 S
Mg14 O24 2.251 1_455 S
Mg14 O27 2.010 . S
O15 Mg14 2.028 . S
O15 C18 1.250 1_455 S
O16 Mg17 2.028 . S
O16 C18 1.248 . S
Mg17 O16 2.028 . S
Mg17 O22 2.032 . S
Mg17 O24 2.079 . S
C18 O15 1.250 1_655 S
C18 O16 1.248 . S
C19 O20 1.264 . S
C19 O27 1.249 . S
O20 C19 1.264 . S
O21 Mg14 1.986 . S
O21 C25 1.246 1_455 S
O22 Mg17 2.032 . S
O22 C25 1.259 . S
O23 Mg14 2.114 1_655 S
O23 C26 1.252 . S
O24 Mg14 2.251 1_655 S
O24 Mg17 2.079 . S
O24 C26 1.273 . S
C25 O21 1.246 1_655 S
C25 O22 1.259 . S
C26 O23 1.252 . S
C26 O24 1.273 . S
O27 Mg14 2.010 . S
O27 C19 1.249 . S
Mg28 O29 2.028 . S
Mg28 O35 1.986 . S
Mg28 O37 2.114 . S
Mg28 O38 2.251 . S
Mg28 O41 2.010 . S
O29 Mg28 2.028 . S
O29 C32 1.250 . S
O30 Mg31 2.028 . S
O30 C32 1.248 . S
Mg31 O30 2.028 . S
Mg31 O36 2.032 . S
Mg31 O38 2.079 . S
C32 O29 1.250 . S
C32 O30 1.248 . S
C33 O34 1.264 . S
C33 O41 1.249 . S
O34 C33 1.264 . S
O35 Mg28 1.986 . S
O35 C39 1.246 . S
O36 Mg31 2.032 . S
O36 C39 1.259 . S
O37 Mg28 2.114 . S
O37 C40 1.252 . S
O38 Mg28 2.251 . S
O38 Mg31 2.079 . S
O38 C40 1.273 . S
C39 O35 1.246 . S
C39 O36 1.259 . S
C40 O37 1.252 . S
C40 O38 1.273 . S
O41 Mg28 2.010 . S
O41 C33 1.249 . S
Mg42 O43 2.028 . S
Mg42 O49 1.986 . S
Mg42 O51 2.114 . S
Mg42 O52 2.251 . S
Mg42 O55 2.010 . S
O43 Mg42 2.028 . S
O43 C46 1.250 . S
O44 Mg45 2.028 . S
O44 C46 1.248 . S
Mg45 O44 2.028 . S
Mg45 O50 2.032 . S
Mg45 O52 2.079 . S
C46 O43 1.250 . S
C46 O44 1.248 . S
C47 O48 1.264 . S
C47 O55 1.249 . S
O48 C47 1.264 . S
O49 Mg42 1.986 . S
O49 C53 1.246 . S
O50 Mg45 2.032 . S
O50 C53 1.259 . S
O51 Mg42 2.114 . S
O51 C54 1.252 . S
O52 Mg42 2.251 . S
O52 Mg45 2.079 . S
O52 C54 1.273 . S
C53 O49 1.246 . S
C53 O50 1.259 . S
C54 O51 1.252 . S
C54 O52 1.273 . S
O55 Mg42 2.010 . S
O55 C47 1.249 . S
Mg56 O57 2.028 . S
Mg56 O63 1.986 . S
Mg56 O65 2.114 . S
Mg56 O66 2.251 . S
Mg56 O69 2.010 . S
O57 Mg56 2.028 . S
O57 C60 1.250 . S
O58 Mg59 2.028 . S
O58 C60 1.248 . S
Mg59 O58 2.028 . S
Mg59 O64 2.032 . S
Mg59 O66 2.079 . S
C60 O57 1.250 . S
C60 O58 1.248 . S
C61 O62 1.264 . S
C61 O69 1.249 . S
O62 C61 1.264 . S
O63 Mg56 1.986 . S
O63 C67 1.246 . S
O64 Mg59 2.032 . S
O64 C67 1.259 . S
O65 Mg56 2.114 . S
O65 C68 1.252 . S
O66 Mg56 2.251 . S
O66 Mg59 2.079 . S
O66 C68 1.273 . S
C67 O63 1.246 . S
C67 O64 1.259 . S
C68 O65 1.252 . S
C68 O66 1.273 . S
O69 Mg56 2.010 . S
O69 C61 1.249 . S
Mg70 O71 2.028 . S
Mg70 O77 1.986 . S
Mg70 O79 2.114 . S
Mg70 O80 2.251 . S
Mg70 O83 2.010 . S
O71 Mg70 2.028 . S
O71 C74 1.250 . S
O72 Mg73 2.028 . S
O72 C74 1.248 . S
Mg73 O72 2.028 . S
Mg73 O78 2.032 . S
Mg73 O80 2.079 . S
C74 O71 1.250 . S
C74 O72 1.248 . S
C75 O76 1.264 . S
C75 O83 1.249 . S
O76 C75 1.264 . S
O77 Mg70 1.986 . S
O77 C81 1.246 . S
O78 Mg73 2.032 . S
O78 C81 1.259 . S
O79 Mg70 2.114 . S
O79 C82 1.252 . S
O80 Mg70 2.251 . S
O80 Mg73 2.079 . S
O80 C82 1.273 . S
C81 O77 1.246 . S
C81 O78 1.259 . S
C82 O79 1.252 . S
C82 O80 1.273 . S
O83 Mg70 2.010 . S
O83 C75 1.249 . S
Mg84 O85 2.028 . S
Mg84 O91 1.986 . S
Mg84 O93 2.114 . S
Mg84 O94 2.251 . S
Mg84 O97 2.010 . S
O85 Mg84 2.028 . S
O85 C88 1.250 . S
O86 Mg87 2.028 . S
O86 C88 1.248 . S
Mg87 O86 2.028 . S
Mg87 O92 2.032 . S
Mg87 O94 2.079 . S
C88 O85 1.250 . S
C88 O86 1.248 . S
C89 O90 1.264 . S
C89 O97 1.249 . S
O90 C89 1.264 . S
O91 Mg84 1.986 . S
O91 C95 1.246 . S
O92 Mg87 2.032 . S
O92 C95 1.259 . S
O93 Mg84 2.114 . S
O93 C96 1.252 . S
O94 Mg84 2.251 . S
O94 Mg87 2.079 . S
O94 C96 1.273 . S
C95 O91 1.246 . S
C95 O92 1.259 . S
C96 O93 1.252 . S
C96 O94 1.273 . S
O97 Mg84 2.010 . S
O97 C89 1.249 . S
Mg98 O99 2.028 . S
Mg98 O105 1.986 . S
Mg98 O107 2.114 1_455 S
Mg98 O108 2.251 1_455 S
Mg98 O111 2.010 . S
O99 Mg98 2.028 . S
O99 C102 1.250 . S
O100 Mg101 2.019 1_455 S
O100 C102 1.263 . S
Mg101 O100 2.019 1_655 S
Mg101 O106 2.032 . S
Mg101 O108 2.079 . S
C102 O99 1.250 . S
C102 O100 1.263 . S
C103 O104 1.264 . S
C103 O111 1.249 . S
O104 C103 1.264 . S
O105 Mg98 1.986 . S
O105 C109 1.246 . S
O106 Mg101 2.032 . S
O106 C109 1.259 1_655 S
O107 Mg98 2.114 1_655 S
O107 C110 1.252 . S
O108 Mg98 2.251 1_655 S
O108 Mg101 2.079 . S
O108 C110 1.273 . S
C109 O105 1.246 . S
C109 O106 1.259 1_455 S
C110 O107 1.252 . S
C110 O108 1.273 . S
O111 Mg98 2.010 . S
O111 C103 1.249 . S
Mg112 O113 2.028 1_545 S
Mg112 O119 1.986 . S
Mg112 O121 2.114 . S
Mg112 O122 2.251 . S
Mg112 O125 2.010 . S
O113 Mg112 2.028 1_565 S
O113 C116 1.250 . S
O114 Mg115 2.028 1_565 S
O114 C116 1.248 . S
Mg115 O114 2.028 1_545 S
Mg115 O120 2.032 . S
Mg115 O122 2.079 . S
C116 O113 1.250 . S
C116 O114 1.248 . S
C117 O118 1.264 . S
C117 O125 1.249 . S
O118 C117 1.264 . S
O119 Mg112 1.986 . S
O119 C123 1.246 . S
O120 Mg115 2.032 . S
O120 C123 1.259 . S
O121 Mg112 2.114 . S
O121 C124 1.252 . S
O122 Mg112 2.251 . S
O122 Mg115 2.079 . S
O122 C124 1.273 . S
C123 O119 1.246 . S
C123 O120 1.259 . S
C124 O121 1.252 . S
C124 O122 1.273 . S
O125 Mg112 2.010 . S
O125 C117 1.249 . S
Mg126 O127 2.028 . S
Mg126 O133 1.986 . S
Mg126 O135 2.114 . S
Mg126 O136 2.251 . S
Mg126 O139 2.010 . S
O127 Mg126 2.028 . S
O127 C130 1.250 . S
O128 Mg129 2.028 . S
O128 C130 1.248 . S
Mg129 O128 2.028 . S
Mg129 O134 2.032 . S
Mg129 O136 2.079 . S
C130 O127 1.250 . S
C130 O128 1.248 . S
C131 O132 1.264 . S
C131 O139 1.249 . S
O132 C131 1.264 . S
O133 Mg126 1.986 . S
O133 C137 1.246 . S
O134 Mg129 2.032 . S
O134 C137 1.259 . S
O135 Mg126 2.114 . S
O135 C138 1.252 . S
O136 Mg126 2.251 . S
O136 Mg129 2.079 . S
O136 C138 1.273 . S
C137 O133 1.246 . S
C137 O134 1.259 . S
C138 O135 1.252 . S
C138 O136 1.273 . S
O139 Mg126 2.010 . S
O139 C131 1.249 . S
Mg140 O141 2.028 1_565 S
Mg140 O147 1.986 . S
Mg140 O149 2.114 1_565 S
Mg140 O150 2.252 . S
Mg140 O153 2.010 . S
O141 Mg140 2.028 1_545 S
O141 C144 1.250 . S
O142 Mg143 2.028 . S
O142 C144 1.248 . S
Mg143 O142 2.028 . S
Mg143 O148 2.032 1_545 S
Mg143 O150 2.079 1_545 S
C144 O141 1.250 . S
C144 O142 1.248 . S
C145 O146 1.264 . S
C145 O153 1.249 . S
O146 C145 1.264 . S
O147 Mg140 1.986 . S
O147 C151 1.246 . S
O148 Mg143 2.032 1_565 S
O148 C151 1.259 . S
O149 Mg140 2.114 1_545 S
O149 C152 1.252 . S
O150 Mg140 2.252 . S
O150 Mg143 2.079 1_565 S
O150 C152 1.275 1_565 S
C151 O147 1.246 . S
C151 O148 1.259 . S
C152 O149 1.252 . S
C152 O150 1.275 1_545 S
O153 Mg140 2.010 . S
O153 C145 1.249 . S
Mg154 O155 2.028 1_554 S
Mg154 O161 1.986 . S
Mg154 O163 2.114 . S
Mg154 O164 2.251 . S
Mg154 O167 2.010 . S
O155 Mg154 2.028 1_556 S
O155 C158 1.250 . S
O156 Mg157 2.028 1_556 S
O156 C158 1.248 . S
Mg157 O156 2.028 1_554 S
Mg157 O162 2.032 . S
Mg157 O164 2.079 . S
C158 O155 1.250 . S
C158 O156 1.248 . S
C159 O160 1.264 . S
C159 O167 1.249 . S
O160 C159 1.264 . S
O161 Mg154 1.986 . S
O161 C165 1.246 . S
O162 Mg157 2.032 . S
O162 C165 1.259 . S
O163 Mg154 2.114 . S
O163 C166 1.252 . S
O164 Mg154 2.251 . S
O164 Mg157 2.079 . S
O164 C166 1.273 . S
C165 O161 1.246 . S
C165 O162 1.259 . S
C166 O163 1.252 . S
C166 O164 1.273 . S
O167 Mg154 2.010 . S
O167 C159 1.249 . S
Mg168 O169 2.028 1_554 S
Mg168 O175 1.986 . S
Mg168 O177 2.114 . S
Mg168 O178 2.251 . S
Mg168 O181 2.010 . S
O169 Mg168 2.028 1_556 S
O169 C172 1.250 . S
O170 Mg171 2.028 1_556 S
O170 C172 1.248 . S
Mg171 O170 2.028 1_554 S
Mg171 O176 2.032 . S
Mg171 O178 2.079 . S
C172 O169 1.250 . S
C172 O170 1.248 . S
C173 O174 1.264 . S
C173 O181 1.249 . S
O174 C173 1.264 . S
O175 Mg168 1.986 . S
O175 C179 1.246 . S
O176 Mg171 2.032 . S
O176 C179 1.259 . S
O177 Mg168 2.114 . S
O177 C180 1.252 . S
O178 Mg168 2.251 . S
O178 Mg171 2.079 . S
O178 C180 1.273 . S
C179 O175 1.246 . S
C179 O176 1.259 . S
C180 O177 1.252 . S
C180 O178 1.273 . S
O181 Mg168 2.010 . S
O181 C173 1.249 . S
Mg182 O183 2.028 . S
Mg182 O189 1.986 1_554 S
Mg182 O191 2.114 . S
Mg182 O192 2.251 . S
Mg182 O195 2.012 1_554 S
O183 Mg182 2.028 . S
O183 C186 1.250 . S
O184 Mg185 2.028 . S
O184 C186 1.248 . S
Mg185 O184 2.028 . S
Mg185 O190 2.032 1_554 S
Mg185 O192 2.079 . S
C186 O183 1.250 . S
C186 O184 1.248 . S
C187 O188 1.255 1_554 S
C187 O195 1.234 1_554 S
O188 C187 1.255 1_556 S
O189 Mg182 1.986 1_556 S
O189 C193 1.246 . S
O190 Mg185 2.032 1_556 S
O190 C193 1.259 . S
O191 Mg182 2.114 . S
O191 C194 1.252 . S
O192 Mg182 2.251 . S
O192 Mg185 2.079 . S
O192 C194 1.273 . S
C193 O189 1.246 . S
C193 O190 1.259 . S
C194 O191 1.252 . S
C194 O192 1.273 . S
O195 Mg182 2.012 1_556 S
O195 C187 1.234 1_556 S
Mg196 O197 2.028 . S
Mg196 O203 1.986 . S
Mg196 O205 2.114 . S
Mg196 O206 2.251 . S
Mg196 O209 2.010 . S
O197 Mg196 2.028 . S
O197 C200 1.250 . S
O198 Mg199 2.028 . S
O198 C200 1.248 . S
Mg199 O198 2.028 . S
Mg199 O204 2.032 . S
Mg199 O206 2.079 . S
C200 O197 1.250 . S
C200 O198 1.248 . S
C201 O202 1.264 . S
C201 O209 1.249 . S
O202 C201 1.264 . S
O203 Mg196 1.986 . S
O203 C207 1.246 . S
O204 Mg199 2.032 . S
O204 C207 1.259 . S
O205 Mg196 2.114 . S
O205 C208 1.252 . S
O206 Mg196 2.251 . S
O206 Mg199 2.079 . S
O206 C208 1.273 . S
C207 O203 1.246 . S
C207 O204 1.259 . S
C208 O205 1.252 . S
C208 O206 1.273 . S
O209 Mg196 2.010 . S
O209 C201 1.249 . S
Mg210 O211 2.028 . S
Mg210 O217 1.986 . S
Mg210 O219 2.114 . S
Mg210 O220 2.251 . S
Mg210 O223 2.010 . S
O211 Mg210 2.028 . S
O211 C214 1.250 . S
O212 Mg213 2.028 . S
O212 C214 1.248 . S
Mg213 O212 2.028 . S
Mg213 O218 2.032 . S
Mg213 O220 2.079 . S
C214 O211 1.250 . S
C214 O212 1.248 . S
C215 O216 1.264 . S
C215 O223 1.249 . S
O216 C215 1.264 . S
O217 Mg210 1.986 . S
O217 C221 1.246 . S
O218 Mg213 2.032 . S
O218 C221 1.259 . S
O219 Mg210 2.114 . S
O219 C222 1.252 . S
O220 Mg210 2.251 . S
O220 Mg213 2.079 . S
O220 C222 1.273 . S
C221 O217 1.246 . S
C221 O218 1.259 . S
C222 O219 1.252 . S
C222 O220 1.273 . S
O223 Mg210 2.010 . S
O223 C215 1.249 . S
Mg224 O225 2.028 . S
Mg224 O231 1.986 . S
Mg224 O233 2.114 . S
Mg224 O234 2.251 . S
Mg224 O237 2.010 . S
O225 Mg224 2.028 . S
O225 C228 1.250 . S
O226 Mg227 2.028 . S
O226 C228 1.248 . S
Mg227 O226 2.028 . S
Mg227 O232 2.032 . S
Mg227 O234 2.079 . S
C228 O225 1.250 . S
C228 O226 1.248 . S
C229 O230 1.264 . S
C229 O237 1.249 . S
O230 C229 1.264 . S
O231 Mg224 1.986 . S
O231 C235 1.246 . S
O232 Mg227 2.032 . S
O232 C235 1.259 . S
O233 Mg224 2.114 . S
O233 C236 1.252 . S
O234 Mg224 2.251 . S
O234 Mg227 2.079 . S
O234 C236 1.273 . S
C235 O231 1.246 . S
C235 O232 1.259 . S
C236 O233 1.252 . S
C236 O234 1.273 . S
O237 Mg224 2.010 . S
O237 C229 1.249 . S
Mg238 O239 2.028 . S
Mg238 O245 1.986 . S
Mg238 O247 2.114 . S
Mg238 O248 2.251 . S
Mg238 O251 2.010 . S
O239 Mg238 2.028 . S
O239 C242 1.250 . S
O240 Mg241 2.028 . S
O240 C242 1.248 . S
Mg241 O240 2.028 . S
Mg241 O246 2.032 . S
Mg241 O248 2.079 . S
C242 O239 1.250 . S
C242 O240 1.248 . S
C243 O244 1.264 . S
C243 O251 1.249 . S
O244 C243 1.264 . S
O245 Mg238 1.986 . S
O245 C249 1.246 . S
O246 Mg241 2.032 . S
O246 C249 1.259 . S
O247 Mg238 2.114 . S
O247 C250 1.252 . S
O248 Mg238 2.251 . S
O248 Mg241 2.079 . S
O248 C250 1.273 . S
C249 O245 1.246 . S
C249 O246 1.259 . S
C250 O247 1.252 . S
C250 O248 1.273 . S
O251 Mg238 2.010 . S
O251 C243 1.249 . S
Mg252 O253 2.028 . S
Mg252 O259 1.986 . S
Mg252 O261 2.114 . S
Mg252 O262 2.251 . S
Mg252 O265 2.010 . S
O253 Mg252 2.028 . S
O253 C256 1.250 . S
O254 Mg255 2.028 . S
O254 C256 1.248 . S
Mg255 O254 2.028 . S
Mg255 O260 2.032 . S
Mg255 O262 2.079 . S
C256 O253 1.250 . S
C256 O254 1.248 . S
C257 O258 1.264 . S
C257 O265 1.249 . S
O258 C257 1.264 . S
O259 Mg252 1.986 . S
O259 C263 1.246 . S
O260 Mg255 2.032 . S
O260 C263 1.259 . S
O261 Mg252 2.114 . S
O261 C264 1.252 . S
O262 Mg252 2.251 . S
O262 Mg255 2.079 . S
O262 C264 1.273 . S
C263 O259 1.246 . S
C263 O260 1.259 . S
C264 O261 1.252 . S
C264 O262 1.273 . S
O265 Mg252 2.010 . S
O265 C257 1.249 . S
Mg266 O267 2.028 . S
Mg266 O273 1.986 . S
Mg266 O275 2.114 . S
Mg266 O276 2.251 . S
Mg266 O279 2.010 . S
O267 Mg266 2.028 . S
O267 C270 1.250 . S
O268 Mg269 2.028 . S
O268 C270 1.248 . S
Mg269 O268 2.028 . S
Mg269 O274 2.032 . S
Mg269 O276 2.079 . S
C270 O267 1.250 . S
C270 O268 1.248 . S
C271 O272 1.264 . S
C271 O279 1.249 . S
O272 C271 1.264 . S
O273 Mg266 1.986 . S
O273 C277 1.246 . S
O274 Mg269 2.032 . S
O274 C277 1.259 . S
O275 Mg266 2.114 . S
O275 C278 1.252 . S
O276 Mg266 2.251 . S
O276 Mg269 2.079 . S
O276 C278 1.273 . S
C277 O273 1.246 . S
C277 O274 1.259 . S
C278 O275 1.252 . S
C278 O276 1.273 . S
O279 Mg266 2.010 . S
O279 C271 1.249 . S
Mg280 O281 2.028 1_556 S
Mg280 O287 1.986 . S
Mg280 O289 2.114 1_556 S
Mg280 O290 2.251 1_556 S
Mg280 O293 2.010 . S
O281 Mg280 2.028 1_554 S
O281 C284 1.250 . S
O282 Mg283 2.028 . S
O282 C284 1.248 . S
Mg283 O282 2.028 . S
Mg283 O288 2.032 1_554 S
Mg283 O290 2.079 . S
C284 O281 1.250 . S
C284 O282 1.248 . S
C285 O286 1.264 . S
C285 O293 1.249 . S
O286 C285 1.264 . S
O287 Mg280 1.986 . S
O287 C291 1.246 . S
O288 Mg283 2.032 1_556 S
O288 C291 1.259 . S
O289 Mg280 2.114 1_554 S
O289 C292 1.252 . S
O290 Mg280 2.251 1_554 S
O290 Mg283 2.079 . S
O290 C292 1.273 . S
C291 O287 1.246 . S
C291 O288 1.259 . S
C292 O289 1.252 . S
C292 O290 1.273 . S
O293 Mg280 2.010 . S
O293 C285 1.249 . S
Mg294 O295 2.028 . S
Mg294 O301 1.986 . S
Mg294 O303 2.114 . S
Mg294 O304 2.251 . S
Mg294 O307 2.010 . S
O295 Mg294 2.028 . S
O295 C298 1.250 . S
O296 Mg297 2.028 . S
O296 C298 1.248 . S
Mg297 O296 2.028 . S
Mg297 O302 2.032 . S
Mg297 O304 2.079 . S
C298 O295 1.250 . S
C298 O296 1.248 . S
C299 O300 1.264 . S
C299 O307 1.249 . S
O300 C299 1.264 . S
O301 Mg294 1.986 . S
O301 C305 1.246 . S
O302 Mg297 2.032 . S
O302 C305 1.259 . S
O303 Mg294 2.114 . S
O303 C306 1.252 . S
O304 Mg294 2.251 . S
O304 Mg297 2.079 . S
O304 C306 1.273 . S
C305 O301 1.246 . S
C305 O302 1.259 . S
C306 O303 1.252 . S
C306 O304 1.273 . S
O307 Mg294 2.010 . S
O307 C299 1.249 . S
Mg308 O309 2.028 . S
Mg308 O315 1.986 . S
Mg308 O317 2.114 . S
Mg308 O318 2.251 . S
Mg308 O321 2.010 . S
O309 Mg308 2.028 . S
O309 C312 1.250 . S
O310 Mg311 2.028 . S
O310 C312 1.248 . S
Mg311 O310 2.028 . S
Mg311 O316 2.032 . S
Mg311 O318 2.079 . S
C312 O309 1.250 . S
C312 O310 1.248 . S
C313 O314 1.264 . S
C313 O321 1.249 . S
O314 C313 1.264 . S
O315 Mg308 1.986 . S
O315 C319 1.246 . S
O316 Mg311 2.032 . S
O316 C319 1.259 . S
O317 Mg308 2.114 . S
O317 C320 1.252 . S
O318 Mg308 2.251 . S
O318 Mg311 2.079 . S
O318 C320 1.273 . S
C319 O315 1.246 . S
C319 O316 1.259 . S
C320 O317 1.252 . S
C320 O318 1.273 . S
O321 Mg308 2.010 . S
O321 C313 1.249 . S
Mg322 O323 2.028 . S
Mg322 O329 1.986 . S
Mg322 O331 2.114 . S
Mg322 O332 2.251 . S
Mg322 O335 2.010 . S
O323 Mg322 2.028 . S
O323 C326 1.250 . S
O324 Mg325 2.028 . S
O324 C326 1.248 . S
Mg325 O324 2.028 . S
Mg325 O330 2.032 . S
Mg325 O332 2.079 . S
C326 O323 1.250 . S
C326 O324 1.248 . S
C327 O328 1.264 . S
C327 O335 1.249 . S
O328 C327 1.264 . S
O329 Mg322 1.986 . S
O329 C333 1.246 . S
O330 Mg325 2.032 . S
O330 C333 1.259 . S
O331 Mg322 2.114 . S
O331 C334 1.252 . S
O332 Mg322 2.251 . S
O332 Mg325 2.079 . S
O332 C334 1.273 . S
C333 O329 1.246 . S
C333 O330 1.259 . S
C334 O331 1.252 . S
C334 O332 1.273 . S
O335 Mg322 2.010 . S
O335 C327 1.249 . S
Ho336 C339 2.811 1_455 S
Ho336 O356 2.322 . S
Ho336 O358 2.378 1_455 S
Ho336 O359 2.524 1_456 S
Ho336 O360 2.381 . S
Ho336 O361 2.669 . S
Ho336 O363 2.346 1_546 S
Ho336 O367 2.305 1_556 S
Ho337 C348 2.811 . S
Ho337 O357 2.346 . S
Ho337 O361 2.305 1_554 S
Ho337 O362 2.322 . S
Ho337 O364 2.378 . S
Ho337 O365 2.524 . S
Ho337 O366 2.381 . S
Ho337 O367 2.669 . S
C338 O356 1.259 1_554 S
C338 O357 1.268 . S
C339 Ho336 2.811 1_655 S
C339 C340 1.488 . S
C339 O358 1.215 . S
C339 O359 1.289 1_556 S
C340 C339 1.488 . S
C340 C341 1.348 . S
C340 C345 1.413 . S
C341 C340 1.348 . S
C341 C342 1.442 . S
C341 H368 0.930 1_556 S
C342 C341 1.442 . S
C342 C343 1.381 . S
C342 H369 0.931 1_556 S
C343 C342 1.381 . S
C343 C344 1.321 . S
C344 C343 1.321 . S
C344 C345 1.403 . S
C344 H370 0.934 . S
C345 C340 1.413 . S
C345 C344 1.403 . S
C345 H371 0.930 . S
C346 O360 1.275 . S
C346 O361 1.256 . S
C347 O362 1.259 1_565 S
C347 O363 1.268 . S
C348 Ho337 2.811 . S
C348 C349 1.488 . S
C348 O364 1.215 . S
C348 O365 1.289 . S
C349 C348 1.488 . S
C349 C350 1.348 . S
C349 C354 1.413 . S
C350 C349 1.348 . S
C350 C351 1.442 1_545 S
C350 H372 0.930 1_545 S
C351 C350 1.442 1_565 S
C351 C352 1.381 1_565 S
C351 H373 0.931 . S
C352 C351 1.381 1_545 S
C352 C353 1.321 . S
C353 C352 1.321 . S
C353 C354 1.403 . S
C353 H374 0.934 . S
C354 C349 1.413 . S
C354 C353 1.403 . S
C354 H375 0.930 . S
C355 O366 1.275 . S
C355 O367 1.256 . S
O356 Ho336 2.322 . S
O356 C338 1.259 1_556 S
O357 Ho337 2.346 . S
O357 C338 1.268 . S
O358 Ho336 2.378 1_655 S
O358 C339 1.215 . S
O359 Ho336 2.524 1_654 S
O359 C339 1.289 1_554 S
O360 Ho336 2.381 . S
O360 C346 1.275 . S
O361 Ho336 2.669 . S
O361 Ho337 2.305 1_556 S
O361 C346 1.256 . S
O362 Ho337 2.322 . S
O362 C347 1.259 1_545 S
O363 Ho336 2.346 1_564 S
O363 C347 1.268 . S
O364 Ho337 2.378 . S
O364 C348 1.215 . S
O365 Ho337 2.524 . S
O365 C348 1.289 . S
O366 Ho337 2.381 . S
O366 C355 1.275 . S
O367 Ho336 2.305 1_554 S
O367 Ho337 2.669 . S
O367 C355 1.256 . S
H368 C341 0.930 1_554 S
H369 C342 0.931 1_554 S
H370 C344 0.934 . S
H371 C345 0.930 . S
H372 C350 0.930 1_565 S
H373 C351 0.931 . S
H374 C353 0.934 . S
H375 C354 0.930 . S
Ho376 C379 2.811 . S
Ho376 O396 2.322 . S
Ho376 O398 2.378 . S
Ho376 O399 2.524 . S
Ho376 O400 2.381 . S
Ho376 O401 2.669 . S
Ho376 O403 2.346 . S
Ho376 O407 2.305 . S
Ho377 C388 2.811 . S
Ho377 O397 2.346 . S
Ho377 O401 2.305 . S
Ho377 O402 2.322 . S
Ho377 O404 2.378 . S
Ho377 O405 2.524 . S
Ho377 O406 2.381 . S
Ho377 O407 2.669 . S
C378 O396 1.259 . S
C378 O397 1.268 . S
C379 Ho376 2.811 . S
C379 C380 1.488 . S
C379 O398 1.215 . S
C379 O399 1.289 . S
C380 C379 1.488 . S
C380 C381 1.348 . S
C380 C385 1.413 . S
C381 C380 1.348 . S
C381 C382 1.442 . S
C381 H408 0.930 . S
C382 C381 1.442 . S
C382 C383 1.381 . S
C382 H409 0.931 . S
C383 C382 1.381 . S
C383 C384 1.321 . S
C384 C383 1.321 . S
C384 C385 1.403 . S
C384 H410 0.934 . S
C385 C380 1.413 . S
C385 C384 1.403 . S
C385 H411 0.930 . S
C386 O400 1.275 . S
C386 O401 1.256 . S
C387 O402 1.259 . S
C387 O403 1.268 . S
C388 Ho377 2.811 . S
C388 C389 1.488 . S
C388 O404 1.215 . S
C388 O405 1.289 . S
C389 C388 1.488 . S
C389 C390 1.348 . S
C389 C394 1.413 . S
C390 C389 1.348 . S
C390 C391 1.442 . S
C390 H412 0.930 . S
C391 C390 1.442 . S
C391 C392 1.381 . S
C391 H413 0.931 . S
C392 C391 1.381 . S
C392 C393 1.321 . S
C393 C392 1.321 . S
C393 C394 1.403 . S
C393 H414 0.934 . S
C394 C389 1.413 . S
C394 C393 1.403 . S
C394 H415 0.930 . S
C395 O406 1.275 . S
C395 O407 1.256 . S
O396 Ho376 2.322 . S
O396 C378 1.259 . S
O397 Ho377 2.346 . S
O397 C378 1.268 . S
O398 Ho376 2.378 . S
O398 C379 1.215 . S
O399 Ho376 2.524 . S
O399 C379 1.289 . S
O400 Ho376 2.381 . S
O400 C386 1.275 . S
O401 Ho376 2.669 . S
O401 Ho377 2.305 . S
O401 C386 1.256 . S
O402 Ho377 2.322 . S
O402 C387 1.259 . S
O403 Ho376 2.346 . S
O403 C387 1.268 . S
O404 Ho377 2.378 . S
O404 C388 1.215 . S
O405 Ho377 2.524 . S
O405 C388 1.289 . S
O406 Ho377 2.381 . S
O406 C395 1.275 . S
O407 Ho376 2.305 . S
O407 Ho377 2.669 . S
O407 C395 1.256 . S
H408 C381 0.930 . S
H409 C382 0.931 . S
H410 C384 0.934 . S
H411 C385 0.930 . S
H412 C390 0.930 . S
H413 C391 0.931 . S
H414 C393 0.934 . S
H415 C394 0.930 . S
Ho416 C419 2.811 . S
Ho416 O436 2.322 1_545 S
Ho416 O438 2.378 . S
Ho416 O439 2.524 . S
Ho416 O440 2.381 . S
Ho416 O441 2.669 . S
Ho416 O443 2.346 . S
Ho416 O447 2.305 . S
Ho417 C428 2.811 . S
Ho417 O437 2.346 1_545 S
Ho417 O441 2.305 . S
Ho417 O442 2.322 . S
Ho417 O444 2.378 . S
Ho417 O445 2.524 . S
Ho417 O446 2.381 . S
Ho417 O447 2.669 . S
C418 O436 1.259 . S
C418 O437 1.268 . S
C419 Ho416 2.811 . S
C419 C420 1.488 1_545 S
C419 O438 1.215 . S
C419 O439 1.289 . S
C420 C419 1.488 1_565 S
C420 C421 1.348 . S
C420 C425 1.413 . S
C421 C420 1.348 . S
C421 C422 1.442 . S
C421 H448 0.930 . S
C422 C421 1.442 . S
C422 C423 1.381 . S
C422 H449 0.931 . S
C423 C422 1.381 . S
C423 C424 1.321 . S
C424 C423 1.321 . S
C424 C425 1.403 . S
C424 H450 0.934 . S
C425 C420 1.413 . S
C425 C424 1.403 . S
C425 H451 0.930 . S
C426 O440 1.275 . S
C426 O441 1.256 . S
C427 O442 1.259 . S
C427 O443 1.268 . S
C428 Ho417 2.811 . S
C428 C429 1.488 . S
C428 O444 1.215 . S
C428 O445 1.289 . S
C429 C428 1.488 . S
C429 C430 1.348 . S
C429 C434 1.413 . S
C430 C429 1.348 . S
C430 C431 1.442 . S
C430 H452 0.930 . S
C431 C430 1.442 . S
C431 C432 1.381 . S
C431 H453 0.931 . S
C432 C431 1.381 . S
C432 C433 1.321 . S
C433 C432 1.321 . S
C433 C434 1.403 . S
C433 H454 0.934 . S
C434 C429 1.413 . S
C434 C433 1.403 . S
C434 H455 0.930 . S
C435 O446 1.275 . S
C435 O447 1.256 . S
O436 Ho416 2.322 1_565 S
O436 C418 1.259 . S
O437 Ho417 2.346 1_565 S
O437 C418 1.268 . S
O438 Ho416 2.378 . S
O438 C419 1.215 . S
O439 Ho416 2.524 . S
O439 C419 1.289 . S
O440 Ho416 2.381 . S
O440 C426 1.275 . S
O441 Ho416 2.669 . S
O441 Ho417 2.305 . S
O441 C426 1.256 . S
O442 Ho417 2.322 . S
O442 C427 1.259 . S
O443 Ho416 2.346 . S
O443 C427 1.268 . S
O444 Ho417 2.378 . S
O444 C428 1.215 . S
O445 Ho417 2.524 . S
O445 C428 1.289 . S
O446 Ho417 2.381 . S
O446 C435 1.275 . S
O447 Ho416 2.305 . S
O447 Ho417 2.669 . S
O447 C435 1.256 . S
H448 C421 0.930 . S
H449 C422 0.931 . S
H450 C424 0.934 . S
H451 C425 0.930 . S
H452 C430 0.930 . S
H453 C431 0.931 . S
H454 C433 0.934 . S
H455 C434 0.930 . S
Ho456 C459 2.811 . S
Ho456 O476 2.322 . S
Ho456 O478 2.378 . S
Ho456 O479 2.524 . S
Ho456 O480 2.381 . S
Ho456 O481 2.669 . S
Ho456 O483 2.346 . S
Ho456 O487 2.305 . S
Ho457 C468 2.811 . S
Ho457 O477 2.346 . S
Ho457 O481 2.305 . S
Ho457 O482 2.322 . S
Ho457 O484 2.378 . S
Ho457 O485 2.524 . S
Ho457 O486 2.381 . S
Ho457 O487 2.669 . S
C458 O476 1.259 . S
C458 O477 1.268 . S
C459 Ho456 2.811 . S
C459 C460 1.488 . S
C459 O478 1.215 . S
C459 O479 1.289 . S
C460 C459 1.488 . S
C460 C461 1.348 . S
C460 C465 1.413 . S
C461 C460 1.348 . S
C461 C462 1.442 . S
C461 H488 0.930 . S
C462 C461 1.442 . S
C462 C463 1.381 . S
C462 H489 0.931 . S
C463 C462 1.381 . S
C463 C464 1.321 . S
C464 C463 1.321 . S
C464 C465 1.403 . S
C464 H490 0.934 . S
C465 C460 1.413 . S
C465 C464 1.403 . S
C465 H491 0.930 . S
C466 O480 1.275 . S
C466 O481 1.256 . S
C467 O482 1.259 . S
C467 O483 1.268 . S
C468 Ho457 2.811 . S
C468 C469 1.488 . S
C468 O484 1.215 . S
C468 O485 1.289 . S
C469 C468 1.488 . S
C469 C470 1.348 . S
C469 C474 1.413 . S
C470 C469 1.348 . S
C470 C471 1.442 . S
C470 H492 0.930 . S
C471 C470 1.442 . S
C471 C472 1.381 . S
C471 H493 0.931 . S
C472 C471 1.381 . S
C472 C473 1.321 . S
C473 C472 1.321 . S
C473 C474 1.403 . S
C473 H494 0.934 . S
C474 C469 1.413 . S
C474 C473 1.403 . S
C474 H495 0.930 . S
C475 O486 1.275 . S
C475 O487 1.256 . S
O476 Ho456 2.322 . S
O476 C458 1.259 . S
O477 Ho457 2.346 . S
O477 C458 1.268 . S
O478 Ho456 2.378 . S
O478 C459 1.215 . S
O479 Ho456 2.524 . S
O479 C459 1.289 . S
O480 Ho456 2.381 . S
O480 C466 1.275 . S
O481 Ho456 2.669 . S
O481 Ho457 2.305 . S
O481 C466 1.256 . S
O482 Ho457 2.322 . S
O482 C467 1.259 . S
O483 Ho456 2.346 . S
O483 C467 1.268 . S
O484 Ho457 2.378 . S
O484 C468 1.215 . S
O485 Ho457 2.524 . S
O485 C468 1.289 . S
O486 Ho457 2.381 . S
O486 C475 1.275 . S
O487 Ho456 2.305 . S
O487 Ho457 2.669 . S
O487 C475 1.256 . S
H488 C461 0.930 . S
H489 C462 0.931 . S
H490 C464 0.934 . S
H491 C465 0.930 . S
H492 C470 0.930 . S
H493 C471 0.931 . S
H494 C473 0.934 . S
H495 C474 0.930 . S
Ho496 C499 2.811 . S
Ho496 O516 2.322 . S
Ho496 O518 2.378 . S
Ho496 O519 2.524 . S
Ho496 O520 2.412 . S
Ho496 O521 2.669 . S
Ho496 O523 2.346 . S
Ho496 O527 2.305 . S
Ho497 C508 2.809 . S
Ho497 O517 2.347 1_565 S
Ho497 O521 2.306 1_565 S
Ho497 O522 2.322 1_565 S
Ho497 O524 2.376 . S
Ho497 O525 2.522 . S
Ho497 O526 2.381 1_565 S
Ho497 O527 2.671 1_565 S
C498 O516 1.259 . S
C498 O517 1.268 . S
C499 Ho496 2.811 . S
C499 C500 1.488 . S
C499 O518 1.215 . S
C499 O519 1.289 . S
C500 C499 1.488 . S
C500 C501 1.348 . S
C500 C505 1.413 . S
C501 C500 1.348 . S
C501 C502 1.442 . S
C501 H528 0.930 . S
C502 C501 1.442 . S
C502 C503 1.381 . S
C502 H529 0.931 . S
C503 C502 1.381 . S
C503 C504 1.321 . S
C504 C503 1.321 . S
C504 C505 1.403 . S
C504 H530 0.934 . S
C505 C500 1.413 . S
C505 C504 1.403 . S
C505 H531 0.930 . S
C506 O520 1.287 . S
C506 O521 1.256 . S
C507 O522 1.259 . S
C507 O523 1.268 . S
C508 Ho497 2.809 . S
C508 C509 1.488 . S
C508 O524 1.215 . S
C508 O525 1.289 . S
C509 C508 1.488 . S
C509 C510 1.348 . S
C509 C514 1.413 . S
C510 C509 1.348 . S
C510 C511 1.442 . S
C510 H532 0.930 . S
C511 C510 1.442 . S
C511 C512 1.381 . S
C511 H533 0.931 . S
C512 C511 1.381 . S
C512 C513 1.321 . S
C513 C512 1.321 . S
C513 C514 1.403 . S
C513 H534 0.934 . S
C514 C509 1.413 . S
C514 C513 1.403 . S
C514 H535 0.930 . S
C515 O526 1.275 . S
C515 O527 1.256 . S
O516 Ho496 2.322 . S
O516 C498 1.259 . S
O517 Ho497 2.347 1_545 S
O517 C498 1.268 . S
O518 Ho496 2.378 . S
O518 C499 1.215 . S
O519 Ho496 2.524 . S
O519 C499 1.289 . S
O520 Ho496 2.412 . S
O520 C506 1.287 . S
O521 Ho496 2.669 . S
O521 Ho497 2.306 1_545 S
O521 C506 1.256 . S
O522 Ho497 2.322 1_545 S
O522 C507 1.259 . S
O523 Ho496 2.346 . S
O523 C507 1.268 . S
O524 Ho497 2.376 . S
O524 C508 1.215 . S
O525 Ho497 2.522 . S
O525 C508 1.289 . S
O526 Ho497 2.381 1_545 S
O526 C515 1.275 . S
O527 Ho496 2.305 . S
O527 Ho497 2.671 1_545 S
O527 C515 1.256 . S
H528 C501 0.930 . S
H529 C502 0.931 . S
H530 C504 0.934 . S
H531 C505 0.930 . S
H532 C510 0.930 . S
H533 C511 0.931 . S
H534 C513 0.934 . S
H535 C514 0.930 . S
Ho536 C539 2.811 . S
Ho536 O556 2.322 . S
Ho536 O558 2.378 . S
Ho536 O559 2.524 . S
Ho536 O560 2.381 . S
Ho536 O561 2.669 . S
Ho536 O563 2.346 . S
Ho536 O567 2.305 . S
Ho537 C548 2.811 . S
Ho537 O557 2.346 . S
Ho537 O561 2.305 . S
Ho537 O562 2.322 . S
Ho537 O564 2.378 . S
Ho537 O565 2.524 . S
Ho537 O566 2.381 . S
Ho537 O567 2.669 . S
C538 O556 1.259 . S
C538 O557 1.268 . S
C539 Ho536 2.811 . S
C539 C540 1.488 . S
C539 O558 1.215 . S
C539 O559 1.289 . S
C540 C539 1.488 . S
C540 C541 1.348 . S
C540 C545 1.413 . S
C541 C540 1.348 . S
C541 C542 1.442 . S
C541 H568 0.930 . S
C542 C541 1.442 . S
C542 C543 1.381 . S
C542 H569 0.931 . S
C543 C542 1.381 . S
C543 C544 1.321 . S
C544 C543 1.321 . S
C544 C545 1.403 . S
C544 H570 0.934 . S
C545 C540 1.413 . S
C545 C544 1.403 . S
C545 H571 0.930 . S
C546 O560 1.275 . S
C546 O561 1.256 . S
C547 O562 1.259 . S
C547 O563 1.268 . S
C548 Ho537 2.811 . S
C548 C549 1.488 . S
C548 O564 1.215 . S
C548 O565 1.289 . S
C549 C548 1.488 . S
C549 C550 1.348 . S
C549 C554 1.413 . S
C550 C549 1.348 . S
C550 C551 1.442 . S
C550 H572 0.930 . S
C551 C550 1.442 . S
C551 C552 1.381 . S
C551 H573 0.931 . S
C552 C551 1.381 . S
C552 C553 1.321 . S
C553 C552 1.321 . S
C553 C554 1.403 . S
C553 H574 0.934 . S
C554 C549 1.413 . S
C554 C553 1.403 . S
C554 H575 0.930 . S
C555 O566 1.275 . S
C555 O567 1.256 . S
O556 Ho536 2.322 . S
O556 C538 1.259 . S
O557 Ho537 2.346 . S
O557 C538 1.268 . S
O558 Ho536 2.378 . S
O558 C539 1.215 . S
O559 Ho536 2.524 . S
O559 C539 1.289 . S
O560 Ho536 2.381 . S
O560 C546 1.275 . S
O561 Ho536 2.669 . S
O561 Ho537 2.305 . S
O561 C546 1.256 . S
O562 Ho537 2.322 . S
O562 C547 1.259 . S
O563 Ho536 2.346 . S
O563 C547 1.268 . S
O564 Ho537 2.378 . S
O564 C548 1.215 . S
O565 Ho537 2.524 . S
O565 C548 1.289 . S
O566 Ho537 2.381 . S
O566 C555 1.275 . S
O567 Ho536 2.305 . S
O567 Ho537 2.669 . S
O567 C555 1.256 . S
H568 C541 0.930 . S
H569 C542 0.931 . S
H570 C544 0.934 . S
H571 C545 0.930 . S
H572 C550 0.930 . S
H573 C551 0.931 . S
H574 C553 0.934 . S
H575 C554 0.930 . S
Ho576 C579 2.811 . S
Ho576 O596 2.328 . S
Ho576 O598 2.378 1_545 S
Ho576 O599 2.524 . S
Ho576 O600 2.381 1_545 S
Ho576 O601 2.669 1_554 S
Ho576 O603 2.346 . S
Ho576 O607 2.305 . S
Ho577 C588 2.811 . S
Ho577 O597 2.346 . S
Ho577 O601 2.305 . S
Ho577 O602 2.330 . S
Ho577 O604 2.378 . S
Ho577 O605 2.524 . S
Ho577 O606 2.381 1_556 S
Ho577 O607 2.669 1_556 S
C578 O596 1.284 . S
C578 O597 1.268 1_554 S
C579 Ho576 2.811 . S
C579 C580 1.488 1_545 S
C579 O598 1.215 1_545 S
C579 O599 1.289 . S
C580 C579 1.488 1_565 S
C580 C581 1.348 1_565 S
C580 C585 1.413 . S
C581 C580 1.348 1_545 S
C581 C582 1.442 . S
C581 H608 0.930 . S
C582 C581 1.442 . S
C582 C583 1.381 1_545 S
C582 H609 0.931 . S
C583 C582 1.381 1_565 S
C583 C584 1.321 . S
C584 C583 1.321 . S
C584 C585 1.403 . S
C584 H610 0.934 . S
C585 C580 1.413 . S
C585 C584 1.403 . S
C585 H611 0.930 . S
C586 O600 1.275 1_556 S
C586 O601 1.256 1_565 S
C587 O602 1.240 1_554 S
C587 O603 1.268 . S
C588 Ho577 2.811 . S
C588 C589 1.488 . S
C588 O604 1.215 . S
C588 O605 1.289 . S
C589 C588 1.488 . S
C589 C590 1.348 . S
C589 C594 1.413 . S
C590 C589 1.348 . S
C590 C591 1.442 . S
C590 H612 0.930 . S
C591 C590 1.442 . S
C591 C592 1.381 . S
C591 H613 0.931 . S
C592 C591 1.381 . S
C592 C593 1.321 . S
C593 C592 1.321 . S
C593 C594 1.403 . S
C593 H614 0.934 . S
C594 C589 1.413 . S
C594 C593 1.403 . S
C594 H615 0.930 . S
C595 O606 1.275 . S
C595 O607 1.256 . S
O596 Ho576 2.328 . S
O596 C578 1.284 . S
O597 Ho577 2.346 . S
O597 C578 1.268 1_556 S
O598 Ho576 2.378 1_565 S
O598 C579 1.215 1_565 S
O599 Ho576 2.524 . S
O599 C579 1.289 . S
O600 Ho576 2.381 1_565 S
O600 C586 1.275 1_554 S
O601 Ho576 2.669 1_556 S
O601 Ho577 2.305 . S
O601 C586 1.256 1_545 S
O602 Ho577 2.330 . S
O602 C587 1.240 1_556 S
O603 Ho576 2.346 . S
O603 C587 1.268 . S
O604 Ho577 2.378 . S
O604 C588 1.215 . S
O605 Ho577 2.524 . S
O605 C588 1.289 . S
O606 Ho577 2.381 1_554 S
O606 C595 1.275 . S
O607 Ho576 2.305 . S
O607 Ho577 2.669 1_554 S
O607 C595 1.256 . S
H608 C581 0.930 . S
H609 C582 0.931 . S
H610 C584 0.934 . S
H611 C585 0.930 . S
H612 C590 0.930 . S
H613 C591 0.931 . S
H614 C593 0.934 . S
H615 C594 0.930 . S
Ho616 C619 2.811 . S
Ho616 O636 2.322 . S
Ho616 O638 2.378 . S
Ho616 O639 2.524 . S
Ho616 O640 2.381 . S
Ho616 O641 2.669 . S
Ho616 O643 2.346 . S
Ho616 O647 2.305 . S
Ho617 C628 2.811 . S
Ho617 O637 2.346 . S
Ho617 O641 2.305 . S
Ho617 O642 2.322 . S
Ho617 O644 2.378 . S
Ho617 O645 2.524 . S
Ho617 O646 2.381 . S
Ho617 O647 2.669 . S
C618 O636 1.259 . S
C618 O637 1.268 . S
C619 Ho616 2.811 . S
C619 C620 1.488 . S
C619 O638 1.215 . S
C619 O639 1.289 . S
C620 C619 1.488 . S
C620 C621 1.348 . S
C620 C625 1.413 . S
C621 C620 1.348 . S
C621 C622 1.442 . S
C621 H648 0.930 . S
C622 C621 1.442 . S
C622 C623 1.381 . S
C622 H649 0.931 . S
C623 C622 1.381 . S
C623 C624 1.321 . S
C624 C623 1.321 . S
C624 C625 1.403 . S
C624 H650 0.934 . S
C625 C620 1.413 . S
C625 C624 1.403 . S
C625 H651 0.930 . S
C626 O640 1.275 . S
C626 O641 1.256 . S
C627 O642 1.259 . S
C627 O643 1.268 . S
C628 Ho617 2.811 . S
C628 C629 1.488 . S
C628 O644 1.215 . S
C628 O645 1.289 . S
C629 C628 1.488 . S
C629 C630 1.348 . S
C629 C634 1.413 . S
C630 C629 1.348 . S
C630 C631 1.442 . S
C630 H652 0.930 . S
C631 C630 1.442 . S
C631 C632 1.381 . S
C631 H653 0.931 . S
C632 C631 1.381 . S
C632 C633 1.321 . S
C633 C632 1.321 . S
C633 C634 1.403 . S
C633 H654 0.934 . S
C634 C629 1.413 . S
C634 C633 1.403 . S
C634 H655 0.930 . S
C635 O646 1.275 . S
C635 O647 1.256 . S
O636 Ho616 2.322 . S
O636 C618 1.259 . S
O637 Ho617 2.346 . S
O637 C618 1.268 . S
O638 Ho616 2.378 . S
O638 C619 1.215 . S
O639 Ho616 2.524 . S
O639 C619 1.289 . S
O640 Ho616 2.381 . S
O640 C626 1.275 . S
O641 Ho616 2.669 . S
O641 Ho617 2.305 . S
O641 C626 1.256 . S
O642 Ho617 2.322 . S
O642 C627 1.259 . S
O643 Ho616 2.346 . S
O643 C627 1.268 . S
O644 Ho617 2.378 . S
O644 C628 1.215 . S
O645 Ho617 2.524 . S
O645 C628 1.289 . S
O646 Ho617 2.381 . S
O646 C635 1.275 . S
O647 Ho616 2.305 . S
O647 Ho617 2.669 . S
O647 C635 1.256 . S
H648 C621 0.930 . S
H649 C622 0.931 . S
H650 C624 0.934 . S
H651 C625 0.930 . S
H652 C630 0.930 . S
H653 C631 0.931 . S
H654 C633 0.934 . S
H655 C634 0.930 . S
Ho656 C659 2.811 . S
Ho656 O676 2.322 1_554 S
Ho656 O678 2.378 . S
Ho656 O679 2.540 . S
Ho656 O680 2.381 . S
Ho656 O681 2.669 . S
Ho656 O683 2.346 . S
Ho656 O687 2.305 . S
Ho657 C668 2.811 . S
Ho657 O677 2.346 1_554 S
Ho657 O681 2.305 . S
Ho657 O682 2.322 . S
Ho657 O684 2.378 . S
Ho657 O685 2.524 . S
Ho657 O686 2.381 . S
Ho657 O687 2.669 . S
C658 O676 1.259 . S
C658 O677 1.268 . S
C659 Ho656 2.811 . S
C659 C660 1.488 1_554 S
C659 O678 1.215 . S
C659 O679 1.292 . S
C660 C659 1.488 1_556 S
C660 C661 1.348 . S
C660 C665 1.413 . S
C661 C660 1.348 . S
C661 C662 1.442 . S
C661 H688 0.930 . S
C662 C661 1.442 . S
C662 C663 1.381 . S
C662 H689 0.931 . S
C663 C662 1.381 . S
C663 C664 1.321 . S
C664 C663 1.321 . S
C664 C665 1.403 . S
C664 H690 0.934 . S
C665 C660 1.413 . S
C665 C664 1.403 . S
C665 H691 0.930 1_556 S
C666 O680 1.275 . S
C666 O681 1.256 . S
C667 O682 1.259 . S
C667 O683 1.268 . S
C668 Ho657 2.811 . S
C668 C669 1.488 . S
C668 O684 1.215 . S
C668 O685 1.289 . S
C669 C668 1.488 . S
C669 C670 1.348 . S
C669 C674 1.413 . S
C670 C669 1.348 . S
C670 C671 1.442 . S
C670 H692 0.930 . S
C671 C670 1.442 . S
C671 C672 1.381 . S
C671 H693 0.931 . S
C672 C671 1.381 . S
C672 C673 1.321 . S
C673 C672 1.321 . S
C673 C674 1.403 . S
C673 H694 0.934 . S
C674 C669 1.413 . S
C674 C673 1.403 . S
C674 H695 0.930 . S
C675 O686 1.275 . S
C675 O687 1.256 . S
O676 Ho656 2.322 1_556 S
O676 C658 1.259 . S
O677 Ho657 2.346 1_556 S
O677 C658 1.268 . S
O678 Ho656 2.378 . S
O678 C659 1.215 . S
O679 Ho656 2.540 . S
O679 C659 1.292 . S
O680 Ho656 2.381 . S
O680 C666 1.275 . S
O681 Ho656 2.669 . S
O681 Ho657 2.305 . S
O681 C666 1.256 . S
O682 Ho657 2.322 . S
O682 C667 1.259 . S
O683 Ho656 2.346 . S
O683 C667 1.268 . S
O684 Ho657 2.378 . S
O684 C668 1.215 . S
O685 Ho657 2.524 . S
O685 C668 1.289 . S
O686 Ho657 2.381 . S
O686 C675 1.275 . S
O687 Ho656 2.305 . S
O687 Ho657 2.669 . S
O687 C675 1.256 . S
H688 C661 0.930 . S
H689 C662 0.931 . S
H690 C664 0.934 . S
H691 C665 0.930 1_554 S
H692 C670 0.930 . S
H693 C671 0.931 . S
H694 C673 0.934 . S
H695 C674 0.930 . S
Ho696 C699 2.811 . S
Ho696 O716 2.322 . S
Ho696 O718 2.378 . S
Ho696 O719 2.524 . S
Ho696 O720 2.381 . S
Ho696 O721 2.669 . S
Ho696 O723 2.346 . S
Ho696 O727 2.305 . S
Ho697 C708 2.811 . S
Ho697 O717 2.346 . S
Ho697 O721 2.305 . S
Ho697 O722 2.322 . S
Ho697 O724 2.378 . S
Ho697 O725 2.524 . S
Ho697 O726 2.381 . S
Ho697 O727 2.669 . S
C698 O716 1.259 . S
C698 O717 1.268 . S
C699 Ho696 2.811 . S
C699 C700 1.488 . S
C699 O718 1.215 . S
C699 O719 1.289 . S
C700 C699 1.488 . S
C700 C701 1.348 . S
C700 C705 1.413 . S
C701 C700 1.348 . S
C701 C702 1.442 . S
C701 H728 0.930 . S
C702 C701 1.442 . S
C702 C703 1.381 . S
C702 H729 0.931 . S
C703 C702 1.381 . S
C703 C704 1.321 . S
C704 C703 1.321 . S
C704 C705 1.403 . S
C704 H730 0.934 . S
C705 C700 1.413 . S
C705 C704 1.403 . S
C705 H731 0.930 . S
C706 O720 1.275 . S
C706 O721 1.256 . S
C707 O722 1.259 . S
C707 O723 1.268 . S
C708 Ho697 2.811 . S
C708 C709 1.488 . S
C708 O724 1.215 . S
C708 O725 1.289 . S
C709 C708 1.488 . S
C709 C710 1.348 . S
C709 C714 1.413 . S
C710 C709 1.348 . S
C710 C711 1.442 . S
C710 H732 0.930 . S
C711 C710 1.442 . S
C711 C712 1.381 . S
C711 H733 0.931 . S
C712 C711 1.381 . S
C712 C713 1.321 . S
C713 C712 1.321 . S
C713 C714 1.403 . S
C713 H734 0.934 . S
C714 C709 1.413 . S
C714 C713 1.403 . S
C714 H735 0.930 . S
C715 O726 1.275 . S
C715 O727 1.256 . S
O716 Ho696 2.322 . S
O716 C698 1.259 . S
O717 Ho697 2.346 . S
O717 C698 1.268 . S
O718 Ho696 2.378 . S
O718 C699 1.215 . S
O719 Ho696 2.524 . S
O719 C699 1.289 . S
O720 Ho696 2.381 . S
O720 C706 1.275 . S
O721 Ho696 2.669 . S
O721 Ho697 2.305 . S
O721 C706 1.256 . S
O722 Ho697 2.322 . S
O722 C707 1.259 . S
O723 Ho696 2.346 . S
O723 C707 1.268 . S
O724 Ho697 2.378 . S
O724 C708 1.215 . S
O725 Ho697 2.524 . S
O725 C708 1.289 . S
O726 Ho697 2.381 . S
O726 C715 1.275 . S
O727 Ho696 2.305 . S
O727 Ho697 2.669 . S
O727 C715 1.256 . S
H728 C701 0.930 . S
H729 C702 0.931 . S
H730 C704 0.934 . S
H731 C705 0.930 . S
H732 C710 0.930 . S
H733 C711 0.931 . S
H734 C713 0.934 . S
H735 C714 0.930 . S
Ho736 C739 2.811 . S
Ho736 O756 2.322 . S
Ho736 O758 2.378 . S
Ho736 O759 2.524 . S
Ho736 O760 2.381 . S
Ho736 O761 2.669 . S
Ho736 O763 2.346 . S
Ho736 O767 2.305 . S
Ho737 C748 2.811 . S
Ho737 O757 2.346 . S
Ho737 O761 2.305 . S
Ho737 O762 2.322 . S
Ho737 O764 2.378 . S
Ho737 O765 2.524 . S
Ho737 O766 2.381 . S
Ho737 O767 2.669 . S
C738 O756 1.259 . S
C738 O757 1.268 . S
C739 Ho736 2.811 . S
C739 C740 1.488 . S
C739 O758 1.215 . S
C739 O759 1.289 . S
C740 C739 1.488 . S
C740 C741 1.348 1_455 S
C740 C745 1.413 . S
C741 C740 1.348 1_655 S
C741 C742 1.442 . S
C741 H768 0.930 . S
C742 C741 1.442 . S
C742 C743 1.381 . S
C742 H769 0.931 . S
C743 C742 1.381 . S
C743 C744 1.321 1_655 S
C744 C743 1.321 1_455 S
C744 C745 1.403 . S
C744 H770 0.934 . S
C745 C740 1.413 . S
C745 C744 1.403 . S
C745 H771 0.930 . S
C746 O760 1.275 . S
C746 O761 1.256 . S
C747 O762 1.259 . S
C747 O763 1.268 . S
C748 Ho737 2.811 . S
C748 C749 1.488 . S
C748 O764 1.215 . S
C748 O765 1.289 . S
C749 C748 1.488 . S
C749 C750 1.348 . S
C749 C754 1.413 . S
C750 C749 1.348 . S
C750 C751 1.442 . S
C750 H772 0.930 . S
C751 C750 1.442 . S
C751 C752 1.381 . S
C751 H773 0.931 . S
C752 C751 1.381 . S
C752 C753 1.321 . S
C753 C752 1.321 . S
C753 C754 1.403 . S
C753 H774 0.934 . S
C754 C749 1.413 . S
C754 C753 1.403 . S
C754 H775 0.930 . S
C755 O766 1.275 . S
C755 O767 1.256 . S
O756 Ho736 2.322 . S
O756 C738 1.259 . S
O757 Ho737 2.346 . S
O757 C738 1.268 . S
O758 Ho736 2.378 . S
O758 C739 1.215 . S
O759 Ho736 2.524 . S
O759 C739 1.289 . S
O760 Ho736 2.381 . S
O760 C746 1.275 . S
O761 Ho736 2.669 . S
O761 Ho737 2.305 . S
O761 C746 1.256 . S
O762 Ho737 2.322 . S
O762 C747 1.259 . S
O763 Ho736 2.346 . S
O763 C747 1.268 . S
O764 Ho737 2.378 . S
O764 C748 1.215 . S
O765 Ho737 2.524 . S
O765 C748 1.289 . S
O766 Ho737 2.381 . S
O766 C755 1.275 . S
O767 Ho736 2.305 . S
O767 Ho737 2.669 . S
O767 C755 1.256 . S
H768 C741 0.930 . S
H769 C742 0.931 . S
H770 C744 0.934 . S
H771 C745 0.930 . S
H772 C750 0.930 . S
H773 C751 0.931 . S
H774 C753 0.934 . S
H775 C754 0.930 . S
Ho776 C779 2.811 . S
Ho776 O796 2.322 . S
Ho776 O798 2.378 . S
Ho776 O799 2.524 . S
Ho776 O800 2.381 . S
Ho776 O801 2.669 . S
Ho776 O803 2.346 . S
Ho776 O807 2.305 . S
Ho777 C788 2.811 . S
Ho777 O797 2.346 . S
Ho777 O801 2.305 . S
Ho777 O802 2.322 . S
Ho777 O804 2.378 . S
Ho777 O805 2.524 . S
Ho777 O806 2.381 . S
Ho777 O807 2.669 . S
C778 O796 1.259 . S
C778 O797 1.268 . S
C779 Ho776 2.811 . S
C779 C780 1.488 . S
C779 O798 1.215 . S
C779 O799 1.289 . S
C780 C779 1.488 . S
C780 C781 1.348 . S
C780 C785 1.413 . S
C781 C780 1.348 . S
C781 C782 1.442 . S
C781 H808 0.930 . S
C782 C781 1.442 . S
C782 C783 1.381 . S
C782 H809 0.931 . S
C783 C782 1.381 . S
C783 C784 1.321 . S
C784 C783 1.321 . S
C784 C785 1.403 . S
C784 H810 0.934 . S
C785 C780 1.413 . S
C785 C784 1.403 . S
C785 H811 0.930 . S
C786 O800 1.275 . S
C786 O801 1.256 . S
C787 O802 1.259 . S
C787 O803 1.268 . S
C788 Ho777 2.811 . S
C788 C789 1.488 . S
C788 O804 1.215 . S
C788 O805 1.289 . S
C789 C788 1.488 . S
C789 C790 1.348 . S
C789 C794 1.413 . S
C790 C789 1.348 . S
C790 C791 1.442 . S
C790 H812 0.930 . S
C791 C790 1.442 . S
C791 C792 1.381 . S
C791 H813 0.931 . S
C792 C791 1.381 . S
C792 C793 1.321 . S
C793 C792 1.321 . S
C793 C794 1.403 . S
C793 H814 0.934 . S
C794 C789 1.413 . S
C794 C793 1.403 . S
C794 H815 0.930 . S
C795 O806 1.275 . S
C795 O807 1.256 . S
O796 Ho776 2.322 . S
O796 C778 1.259 . S
O797 Ho777 2.346 . S
O797 C778 1.268 . S
O798 Ho776 2.378 . S
O798 C779 1.215 . S
O799 Ho776 2.524 . S
O799 C779 1.289 . S
O800 Ho776 2.381 . S
O800 C786 1.275 . S
O801 Ho776 2.669 . S
O801 Ho777 2.305 . S
O801 C786 1.256 . S
O802 Ho777 2.322 . S
O802 C787 1.259 . S
O803 Ho776 2.346 . S
O803 C787 1.268 . S
O804 Ho777 2.378 . S
O804 C788 1.215 . S
O805 Ho777 2.524 . S
O805 C788 1.289 . S
O806 Ho777 2.381 . S
O806 C795 1.275 . S
O807 Ho776 2.305 . S
O807 Ho777 2.669 . S
O807 C795 1.256 . S
H808 C781 0.930 . S
H809 C782 0.931 . S
H810 C784 0.934 . S
H811 C785 0.930 . S
H812 C790 0.930 . S
H813 C791 0.931 . S
H814 C793 0.934 . S
H815 C794 0.930 . S
Ho816 C819 2.811 . S
Ho816 O836 2.322 . S
Ho816 O838 2.378 . S
Ho816 O839 2.524 . S
Ho816 O840 2.381 . S
Ho816 O841 2.669 . S
Ho816 O843 2.346 . S
Ho816 O847 2.305 . S
Ho817 C828 2.811 . S
Ho817 O837 2.346 . S
Ho817 O841 2.305 . S
Ho817 O842 2.322 . S
Ho817 O844 2.378 . S
Ho817 O845 2.524 . S
Ho817 O846 2.381 . S
Ho817 O847 2.669 . S
C818 O836 1.259 . S
C818 O837 1.268 . S
C819 Ho816 2.811 . S
C819 C820 1.488 . S
C819 O838 1.215 . S
C819 O839 1.289 . S
C820 C819 1.488 . S
C820 C821 1.348 . S
C820 C825 1.413 . S
C821 C820 1.348 . S
C821 C822 1.442 . S
C821 H848 0.930 . S
C822 C821 1.442 . S
C822 C823 1.381 . S
C822 H849 0.931 . S
C823 C822 1.381 . S
C823 C824 1.321 . S
C824 C823 1.321 . S
C824 C825 1.403 . S
C824 H850 0.934 . S
C825 C820 1.413 . S
C825 C824 1.403 . S
C825 H851 0.930 . S
C826 O840 1.275 . S
C826 O841 1.256 . S
C827 O842 1.259 . S
C827 O843 1.268 . S
C828 Ho817 2.811 . S
C828 C829 1.488 . S
C828 O844 1.215 . S
C828 O845 1.289 . S
C829 C828 1.488 . S
C829 C830 1.348 . S
C829 C834 1.413 . S
C830 C829 1.348 . S
C830 C831 1.442 . S
C830 H852 0.930 . S
C831 C830 1.442 . S
C831 C832 1.381 . S
C831 H853 0.931 . S
C832 C831 1.381 . S
C832 C833 1.321 . S
C833 C832 1.321 . S
C833 C834 1.403 . S
C833 H854 0.934 . S
C834 C829 1.413 . S
C834 C833 1.403 . S
C834 H855 0.930 . S
C835 O846 1.275 . S
C835 O847 1.256 . S
O836 Ho816 2.322 . S
O836 C818 1.259 . S
O837 Ho817 2.346 . S
O837 C818 1.268 . S
O838 Ho816 2.378 . S
O838 C819 1.215 . S
O839 Ho816 2.524 . S
O839 C819 1.289 . S
O840 Ho816 2.381 . S
O840 C826 1.275 . S
O841 Ho816 2.669 . S
O841 Ho817 2.305 . S
O841 C826 1.256 . S
O842 Ho817 2.322 . S
O842 C827 1.259 . S
O843 Ho816 2.346 . S
O843 C827 1.268 . S
O844 Ho817 2.378 . S
O844 C828 1.215 . S
O845 Ho817 2.524 . S
O845 C828 1.289 . S
O846 Ho817 2.381 . S
O846 C835 1.275 . S
O847 Ho816 2.305 . S
O847 Ho817 2.669 . S
O847 C835 1.256 . S
H848 C821 0.930 . S
H849 C822 0.931 . S
H850 C824 0.934 . S
H851 C825 0.930 . S
H852 C830 0.930 . S
H853 C831 0.931 . S
H854 C833 0.934 . S
H855 C834 0.930 . S
Ho856 C859 2.811 . S
Ho856 O876 2.322 . S
Ho856 O878 2.378 . S
Ho856 O879 2.524 . S
Ho856 O880 2.381 . S
Ho856 O881 2.669 . S
Ho856 O883 2.346 . S
Ho856 O887 2.305 . S
Ho857 C868 2.811 . S
Ho857 O877 2.346 . S
Ho857 O881 2.305 . S
Ho857 O882 2.322 . S
Ho857 O884 2.378 . S
Ho857 O885 2.524 . S
Ho857 O886 2.381 . S
Ho857 O887 2.669 . S
C858 O876 1.259 . S
C858 O877 1.268 . S
C859 Ho856 2.811 . S
C859 C860 1.488 . S
C859 O878 1.215 . S
C859 O879 1.289 . S
C860 C859 1.488 . S
C860 C861 1.348 . S
C860 C865 1.413 . S
C861 C860 1.348 . S
C861 C862 1.442 . S
C861 H888 0.930 . S
C862 C861 1.442 . S
C862 C863 1.381 . S
C862 H889 0.931 . S
C863 C862 1.381 . S
C863 C864 1.321 . S
C864 C863 1.321 . S
C864 C865 1.403 . S
C864 H890 0.934 . S
C865 C860 1.413 . S
C865 C864 1.403 . S
C865 H891 0.930 . S
C866 O880 1.275 . S
C866 O881 1.256 . S
C867 O882 1.259 . S
C867 O883 1.268 . S
C868 Ho857 2.811 . S
C868 C869 1.488 . S
C868 O884 1.215 . S
C868 O885 1.289 . S
C869 C868 1.488 . S
C869 C870 1.348 . S
C869 C874 1.413 . S
C870 C869 1.348 . S
C870 C871 1.442 . S
C870 H892 0.930 . S
C871 C870 1.442 . S
C871 C872 1.381 . S
C871 H893 0.931 . S
C872 C871 1.381 . S
C872 C873 1.321 . S
C873 C872 1.321 . S
C873 C874 1.403 . S
C873 H894 0.934 . S
C874 C869 1.413 . S
C874 C873 1.403 . S
C874 H895 0.930 . S
C875 O886 1.275 . S
C875 O887 1.256 . S
O876 Ho856 2.322 . S
O876 C858 1.259 . S
O877 Ho857 2.346 . S
O877 C858 1.268 . S
O878 Ho856 2.378 . S
O878 C859 1.215 . S
O879 Ho856 2.524 . S
O879 C859 1.289 . S
O880 Ho856 2.381 . S
O880 C866 1.275 . S
O881 Ho856 2.669 . S
O881 Ho857 2.305 . S
O881 C866 1.256 . S
O882 Ho857 2.322 . S
O882 C867 1.259 . S
O883 Ho856 2.346 . S
O883 C867 1.268 . S
O884 Ho857 2.378 . S
O884 C868 1.215 . S
O885 Ho857 2.524 . S
O885 C868 1.289 . S
O886 Ho857 2.381 . S
O886 C875 1.275 . S
O887 Ho856 2.305 . S
O887 Ho857 2.669 . S
O887 C875 1.256 . S
H888 C861 0.930 . S
H889 C862 0.931 . S
H890 C864 0.934 . S
H891 C865 0.930 . S
H892 C870 0.930 . S
H893 C871 0.931 . S
H894 C873 0.934 . S
H895 C874 0.930 . S
Ho896 C899 2.811 . S
Ho896 O916 2.322 . S
Ho896 O918 2.378 . S
Ho896 O919 2.524 . S
Ho896 O920 2.381 . S
Ho896 O921 2.669 . S
Ho896 O923 2.346 . S
Ho896 O927 2.305 . S
Ho897 C908 2.811 . S
Ho897 O917 2.346 . S
Ho897 O921 2.305 . S
Ho897 O922 2.322 . S
Ho897 O924 2.378 . S
Ho897 O925 2.524 . S
Ho897 O926 2.381 . S
Ho897 O927 2.669 . S
C898 O916 1.259 . S
C898 O917 1.268 . S
C899 Ho896 2.811 . S
C899 C900 1.488 . S
C899 O918 1.215 . S
C899 O919 1.289 . S
C900 C899 1.488 . S
C900 C901 1.348 . S
C900 C905 1.413 . S
C901 C900 1.348 . S
C901 C902 1.442 . S
C901 H928 0.930 . S
C902 C901 1.442 . S
C902 C903 1.381 . S
C902 H929 0.931 . S
C903 C902 1.381 . S
C903 C904 1.321 . S
C904 C903 1.321 . S
C904 C905 1.403 . S
C904 H930 0.934 . S
C905 C900 1.413 . S
C905 C904 1.403 . S
C905 H931 0.930 . S
C906 O920 1.275 . S
C906 O921 1.256 . S
C907 O922 1.259 . S
C907 O923 1.268 . S
C908 Ho897 2.811 . S
C908 C909 1.488 . S
C908 O924 1.215 . S
C908 O925 1.289 . S
C909 C908 1.488 . S
C909 C910 1.348 . S
C909 C914 1.413 . S
C910 C909 1.348 . S
C910 C911 1.442 . S
C910 H932 0.930 . S
C911 C910 1.442 . S
C911 C912 1.381 . S
C911 H933 0.931 . S
C912 C911 1.381 . S
C912 C913 1.321 . S
C913 C912 1.321 . S
C913 C914 1.403 . S
C913 H934 0.934 . S
C914 C909 1.413 . S
C914 C913 1.403 . S
C914 H935 0.930 . S
C915 O926 1.275 . S
C915 O927 1.256 . S
O916 Ho896 2.322 . S
O916 C898 1.259 . S
O917 Ho897 2.346 . S
O917 C898 1.268 . S
O918 Ho896 2.378 . S
O918 C899 1.215 . S
O919 Ho896 2.524 . S
O919 C899 1.289 . S
O920 Ho896 2.381 . S
O920 C906 1.275 . S
O921 Ho896 2.669 . S
O921 Ho897 2.305 . S
O921 C906 1.256 . S
O922 Ho897 2.322 . S
O922 C907 1.259 . S
O923 Ho896 2.346 . S
O923 C907 1.268 . S
O924 Ho897 2.378 . S
O924 C908 1.215 . S
O925 Ho897 2.524 . S
O925 C908 1.289 . S
O926 Ho897 2.381 . S
O926 C915 1.275 . S
O927 Ho896 2.305 . S
O927 Ho897 2.669 . S
O927 C915 1.256 . S
H928 C901 0.930 . S
H929 C902 0.931 . S
H930 C904 0.934 . S
H931 C905 0.930 . S
H932 C910 0.930 . S
H933 C911 0.931 . S
H934 C913 0.934 . S
H935 C914 0.930 . S
Ho936 C939 2.811 1_554 S
Ho936 O956 2.322 1_554 S
Ho936 O958 2.378 1_554 S
Ho936 O959 2.524 . S
Ho936 O960 2.381 1_554 S
Ho936 O961 2.669 1_554 S
Ho936 O963 2.346 . S
Ho936 O967 2.305 . S
Ho937 C948 2.811 1_455 S
Ho937 O957 2.346 . S
Ho937 O961 2.305 1_554 S
Ho937 O962 2.322 . S
Ho937 O964 2.378 1_455 S
Ho937 O965 2.524 1_455 S
Ho937 O966 2.381 . S
Ho937 O967 2.669 . S
C938 O956 1.273 . S
C938 O957 1.258 1_556 S
C939 Ho936 2.811 1_556 S
C939 C940 1.488 . S
C939 O958 1.215 . S
C939 O959 1.289 1_556 S
C940 C939 1.488 . S
C940 C941 1.348 1_556 S
C940 C945 1.413 . S
C941 C940 1.348 1_554 S
C941 C942 1.442 1_554 S
C941 H968 0.930 . S
C942 C941 1.442 1_556 S
C942 C943 1.381 . S
C942 H969 0.931 1_556 S
C943 C942 1.381 . S
C943 C944 1.321 . S
C944 C943 1.321 . S
C944 C945 1.403 . S
C944 H970 0.934 . S
C945 C940 1.413 . S
C945 C944 1.403 . S
C945 H971 0.930 . S
C946 O960 1.275 . S
C946 O961 1.256 . S
C947 O962 1.259 . S
C947 O963 1.268 . S
C948 Ho937 2.811 1_655 S
C948 C949 1.488 . S
C948 O964 1.215 . S
C948 O965 1.289 . S
C949 C948 1.488 . S
C949 C950 1.348 . S
C949 C954 1.413 . S
C950 C949 1.348 . S
C950 C951 1.442 . S
C950 H972 0.930 . S
C951 C950 1.442 . S
C951 C952 1.381 . S
C951 H973 0.931 . S
C952 C951 1.381 . S
C952 C953 1.321 . S
C953 C952 1.321 . S
C953 C954 1.403 . S
C953 H974 0.934 . S
C954 C949 1.413 . S
C954 C953 1.403 . S
C954 H975 0.930 . S
C955 O966 1.275 . S
C955 O967 1.256 . S
O956 Ho936 2.322 1_556 S
O956 C938 1.273 . S
O957 Ho937 2.346 . S
O957 C938 1.258 1_554 S
O958 Ho936 2.378 1_556 S
O958 C939 1.215 . S
O959 Ho936 2.524 . S
O959 C939 1.289 1_554 S
O960 Ho936 2.381 1_556 S
O960 C946 1.275 . S
O961 Ho936 2.669 1_556 S
O961 Ho937 2.305 1_556 S
O961 C946 1.256 . S
O962 Ho937 2.322 . S
O962 C947 1.259 . S
O963 Ho936 2.346 . S
O963 C947 1.268 . S
O964 Ho937 2.378 1_655 S
O964 C948 1.215 . S
O965 Ho937 2.524 1_655 S
O965 C948 1.289 . S
O966 Ho937 2.381 . S
O966 C955 1.275 . S
O967 Ho936 2.305 . S
O967 Ho937 2.669 . S
O967 C955 1.256 . S
H968 C941 0.930 . S
H969 C942 0.931 1_554 S
H970 C944 0.934 . S
H971 C945 0.930 . S
H972 C950 0.930 . S
H973 C951 0.931 . S
H974 C953 0.934 . S
H975 C954 0.930 . S
C976 C977 1.369 1_655 S
C976 C978 1.376 1_655 S
C976 H992 0.971 . S
C977 C976 1.369 1_455 S
C977 C981 1.376 . S
C978 C976 1.376 1_455 S
C978 C979 1.369 . S
C978 C982 1.531 1_455 S
C979 C978 1.369 . S
C979 C980 1.410 . S
C979 C987 1.503 . S
C980 C979 1.410 . S
C980 C981 1.392 . S
C980 C983 1.511 . S
C981 C977 1.376 . S
C981 C980 1.392 . S
C981 H993 0.929 . S
C982 C978 1.531 1_655 S
C982 H994 0.960 . S
C982 H995 0.962 . S
C982 H996 0.960 . S
C983 C980 1.511 . S
C983 H997 0.961 . S
C983 H998 0.983 . S
C983 H999 0.961 . S
C984 C985 1.370 1_554 S
C984 C986 1.363 . S
C984 H1000 0.931 . S
C985 C984 1.370 1_556 S
C985 C989 1.408 . S
C986 C984 1.363 . S
C986 C987 1.370 1_554 S
C986 C990 1.524 . S
C987 C979 1.503 . S
C987 C986 1.370 1_556 S
C987 C988 1.403 . S
C988 C987 1.403 . S
C988 C989 1.404 . S
C988 C991 1.539 . S
C989 C985 1.408 . S
C989 C988 1.404 . S
C989 H1001 0.930 . S
C990 C986 1.524 . S
C990 H1002 0.958 1_455 S
C990 H1003 0.961 . S
C990 H1004 0.961 . S
C991 C988 1.539 . S
C991 H1005 0.958 . S
C991 H1006 0.961 . S
C991 H1007 0.960 . S
H992 C976 0.971 . S
H993 C981 0.929 . S
H994 C982 0.960 . S
H995 C982 0.962 . S
H996 C982 0.960 . S
H997 C983 0.961 . S
H998 C983 0.983 . S
H999 C983 0.961 . S
H1000 C984 0.931 . S
H1001 C989 0.930 . S
H1002 C990 0.958 1_655 S
H1003 C990 0.961 . S
H1004 C990 0.961 . S
H1005 C991 0.958 . S
H1006 C991 0.961 . S
H1007 C991 0.960 . S
C1008 C1009 1.391 . S
C1008 C1010 1.394 . S
C1008 H1024 0.931 . S
C1009 C1008 1.391 . S
C1009 C1013 1.376 . S
C1010 C1008 1.394 . S
C1010 C1011 1.369 . S
C1010 C1014 1.531 . S
C1011 C1010 1.369 . S
C1011 C1012 1.410 . S
C1011 C1019 1.503 . S
C1012 C1011 1.410 . S
C1012 C1013 1.392 . S
C1012 C1015 1.511 . S
C1013 C1009 1.376 . S
C1013 C1012 1.392 . S
C1013 H1025 0.929 . S
C1014 C1010 1.531 . S
C1014 H1026 0.960 . S
C1014 H1027 0.962 . S
C1014 H1028 0.960 . S
C1015 C1012 1.511 . S
C1015 H1029 0.961 . S
C1015 H1030 0.961 . S
C1015 H1031 0.961 . S
C1016 C1017 1.370 . S
C1016 C1018 1.363 . S
C1016 H1032 0.931 . S
C1017 C1016 1.370 . S
C1017 C1021 1.408 . S
C1018 C1016 1.363 . S
C1018 C1019 1.370 . S
C1018 C1022 1.524 . S
C1019 C1011 1.503 . S
C1019 C1018 1.370 . S
C1019 C1020 1.403 . S
C1020 C1019 1.403 . S
C1020 C1021 1.404 . S
C1020 C1023 1.539 . S
C1021 C1017 1.408 . S
C1021 C1020 1.404 . S
C1021 H1033 0.930 . S
C1022 C1018 1.524 . S
C1022 H1034 0.956 . S
C1022 H1035 0.961 . S
C1022 H1036 0.961 . S
C1023 C1020 1.539 . S
C1023 H1037 0.958 . S
C1023 H1038 0.961 . S
C1023 H1039 0.960 . S
H1024 C1008 0.931 . S
H1025 C1013 0.929 . S
H1026 C1014 0.960 . S
H1027 C1014 0.962 . S
H1028 C1014 0.960 . S
H1029 C1015 0.961 . S
H1030 C1015 0.961 . S
H1031 C1015 0.961 . S
H1032 C1016 0.931 . S
H1033 C1021 0.930 . S
H1034 C1022 0.956 . S
H1035 C1022 0.961 . S
H1036 C1022 0.961 . S
H1037 C1023 0.958 . S
H1038 C1023 0.961 . S
H1039 C1023 0.960 . S
C1040 C1041 1.391 . S
C1040 C1042 1.394 . S
C1040 H1056 0.931 . S
C1041 C1040 1.391 . S
C1041 C1045 1.376 . S
C1042 C1040 1.394 . S
C1042 C1043 1.369 . S
C1042 C1046 1.531 . S
C1043 C1042 1.369 . S
C1043 C1044 1.410 . S
C1043 C1051 1.503 . S
C1044 C1043 1.410 . S
C1044 C1045 1.392 . S
C1044 C1047 1.511 . S
C1045 C1041 1.376 . S
C1045 C1044 1.392 . S
C1045 H1057 0.929 . S
C1046 C1042 1.531 . S
C1046 H1058 0.960 . S
C1046 H1059 0.962 . S
C1046 H1060 0.960 . S
C1047 C1044 1.511 . S
C1047 H1061 0.961 . S
C1047 H1062 0.961 . S
C1047 H1063 0.961 . S
C1048 C1049 1.370 . S
C1048 C1050 1.363 . S
C1048 H1064 0.931 . S
C1049 C1048 1.370 . S
C1049 C1053 1.408 . S
C1050 C1048 1.363 . S
C1050 C1051 1.370 . S
C1050 C1054 1.524 . S
C1051 C1043 1.503 . S
C1051 C1050 1.370 . S
C1051 C1052 1.403 . S
C1052 C1051 1.403 . S
C1052 C1053 1.404 . S
C1052 C1055 1.539 . S
C1053 C1049 1.408 . S
C1053 C1052 1.404 . S
C1053 H1065 0.930 . S
C1054 C1050 1.524 . S
C1054 H1066 0.956 . S
C1054 H1067 0.961 . S
C1054 H1068 0.961 . S
C1055 C1052 1.539 . S
C1055 H1069 0.958 . S
C1055 H1070 0.961 . S
C1055 H1071 0.960 . S
H1056 C1040 0.931 . S
H1057 C1045 0.929 . S
H1058 C1046 0.960 . S
H1059 C1046 0.962 . S
H1060 C1046 0.960 . S
H1061 C1047 0.961 . S
H1062 C1047 0.961 . S
H1063 C1047 0.961 . S
H1064 C1048 0.931 . S
H1065 C1053 0.930 . S
H1066 C1054 0.956 . S
H1067 C1054 0.961 . S
H1068 C1054 0.961 . S
H1069 C1055 0.958 . S
H1070 C1055 0.961 . S
H1071 C1055 0.960 . S
C1072 C1073 1.391 . S
C1072 C1074 1.394 . S
C1072 H1088 0.931 . S
C1073 C1072 1.391 . S
C1073 C1077 1.376 . S
C1074 C1072 1.394 . S
C1074 C1075 1.369 . S
C1074 C1078 1.531 . S
C1075 C1074 1.369 . S
C1075 C1076 1.410 . S
C1075 C1083 1.503 . S
C1076 C1075 1.410 . S
C1076 C1077 1.392 . S
C1076 C1079 1.511 . S
C1077 C1073 1.376 . S
C1077 C1076 1.392 . S
C1077 H1089 0.929 . S
C1078 C1074 1.531 . S
C1078 H1090 0.960 . S
C1078 H1091 0.962 . S
C1078 H1092 0.960 . S
C1079 C1076 1.511 . S
C1079 H1093 0.961 . S
C1079 H1094 0.961 . S
C1079 H1095 0.961 . S
C1080 C1081 1.370 . S
C1080 C1082 1.363 . S
C1080 H1096 0.931 . S
C1081 C1080 1.370 . S
C1081 C1085 1.408 . S
C1082 C1080 1.363 . S
C1082 C1083 1.370 . S
C1082 C1086 1.524 . S
C1083 C1075 1.503 . S
C1083 C1082 1.370 . S
C1083 C1084 1.403 . S
C1084 C1083 1.403 . S
C1084 C1085 1.404 . S
C1084 C1087 1.539 . S
C1085 C1081 1.408 . S
C1085 C1084 1.404 . S
C1085 H1097 0.930 . S
C1086 C1082 1.524 . S
C1086 H1098 0.956 . S
C1086 H1099 0.961 . S
C1086 H1100 0.961 . S
C1087 C1084 1.539 . S
C1087 H1101 0.958 . S
C1087 H1102 0.961 . S
C1087 H1103 0.960 . S
H1088 C1072 0.931 . S
H1089 C1077 0.929 . S
H1090 C1078 0.960 . S
H1091 C1078 0.962 . S
H1092 C1078 0.960 . S
H1093 C1079 0.961 . S
H1094 C1079 0.961 . S
H1095 C1079 0.961 . S
H1096 C1080 0.931 . S
H1097 C1085 0.930 . S
H1098 C1086 0.956 . S
H1099 C1086 0.961 . S
H1100 C1086 0.961 . S
H1101 C1087 0.958 . S
H1102 C1087 0.961 . S
H1103 C1087 0.960 . S
C1104 C1105 1.391 . S
C1104 C1106 1.394 . S
C1104 H1120 0.931 . S
C1105 C1104 1.391 . S
C1105 C1109 1.376 1_455 S
C1106 C1104 1.394 . S
C1106 C1107 1.369 . S
C1106 C1110 1.531 . S
C1107 C1106 1.369 . S
C1107 C1108 1.410 . S
C1107 C1115 1.503 . S
C1108 C1107 1.410 . S
C1108 C1109 1.392 1_455 S
C1108 C1111 1.511 1_455 S
C1109 C1105 1.376 1_655 S
C1109 C1108 1.392 1_655 S
C1109 H1121 0.929 . S
C1110 C1106 1.531 . S
C1110 H1122 0.960 . S
C1110 H1123 0.962 . S
C1110 H1124 0.960 . S
C1111 C1108 1.511 1_655 S
C1111 H1125 0.961 . S
C1111 H1126 0.961 1_655 S
C1111 H1127 0.961 . S
C1112 C1113 1.370 . S
C1112 C1114 1.363 . S
C1112 H1128 0.931 . S
C1113 C1112 1.370 . S
C1113 C1117 1.408 . S
C1114 C1112 1.363 . S
C1114 C1115 1.370 . S
C1114 C1118 1.524 . S
C1115 C1107 1.503 . S
C1115 C1114 1.370 . S
C1115 C1116 1.403 . S
C1116 C1115 1.403 . S
C1116 C1117 1.404 . S
C1116 C1119 1.539 . S
C1117 C1113 1.408 . S
C1117 C1116 1.404 . S
C1117 H1129 0.930 . S
C1118 C1114 1.524 . S
C1118 H1130 0.956 . S
C1118 H1131 0.961 . S
C1118 H1132 0.961 . S
C1119 C1116 1.539 . S
C1119 H1133 0.958 . S
C1119 H1134 0.961 1_455 S
C1119 H1135 0.960 1_455 S
H1120 C1104 0.931 . S
H1121 C1109 0.929 . S
H1122 C1110 0.960 . S
H1123 C1110 0.962 . S
H1124 C1110 0.960 . S
H1125 C1111 0.961 . S
H1126 C1111 0.961 1_455 S
H1127 C1111 0.961 . S
H1128 C1112 0.931 . S
H1129 C1117 0.930 . S
H1130 C1118 0.956 . S
H1131 C1118 0.961 . S
H1132 C1118 0.961 . S
H1133 C1119 0.958 . S
H1134 C1119 0.961 1_655 S
H1135 C1119 0.960 1_655 S
C1136 C1137 1.391 . S
C1136 C1138 1.394 . S
C1136 H1152 0.931 . S
C1137 C1136 1.391 . S
C1137 C1141 1.376 . S
C1138 C1136 1.394 . S
C1138 C1139 1.369 . S
C1138 C1142 1.531 . S
C1139 C1138 1.369 . S
C1139 C1140 1.410 . S
C1139 C1147 1.503 . S
C1140 C1139 1.410 . S
C1140 C1141 1.392 . S
C1140 C1143 1.511 . S
C1141 C1137 1.376 . S
C1141 C1140 1.392 . S
C1141 H1153 0.929 . S
C1142 C1138 1.531 . S
C1142 H1154 0.960 . S
C1142 H1155 0.962 . S
C1142 H1156 0.960 . S
C1143 C1140 1.511 . S
C1143 H1157 0.961 . S
C1143 H1158 0.961 . S
C1143 H1159 0.961 . S
C1144 C1145 1.370 . S
C1144 C1146 1.363 . S
C1144 H1160 0.931 . S
C1145 C1144 1.370 . S
C1145 C1149 1.408 . S
C1146 C1144 1.363 . S
C1146 C1147 1.370 . S
C1146 C1150 1.524 . S
C1147 C1139 1.503 . S
C1147 C1146 1.370 . S
C1147 C1148 1.403 . S
C1148 C1147 1.403 . S
C1148 C1149 1.404 . S
C1148 C1151 1.539 . S
C1149 C1145 1.408 . S
C1149 C1148 1.404 . S
C1149 H1161 0.930 . S
C1150 C1146 1.524 . S
C1150 H1162 0.956 . S
C1150 H1163 0.961 . S
C1150 H1164 0.961 . S
C1151 C1148 1.539 . S
C1151 H1165 0.958 . S
C1151 H1166 0.961 . S
C1151 H1167 0.960 . S
H1152 C1136 0.931 . S
H1153 C1141 0.929 . S
H1154 C1142 0.960 . S
H1155 C1142 0.962 . S
H1156 C1142 0.960 . S
H1157 C1143 0.961 . S
H1158 C1143 0.961 . S
H1159 C1143 0.961 . S
H1160 C1144 0.931 . S
H1161 C1149 0.930 . S
H1162 C1150 0.956 . S
H1163 C1150 0.961 . S
H1164 C1150 0.961 . S
H1165 C1151 0.958 . S
H1166 C1151 0.961 . S
H1167 C1151 0.960 . S
C1168 C1169 1.391 . S
C1168 C1170 1.394 . S
C1168 H1184 0.931 . S
C1169 C1168 1.391 . S
C1169 C1173 1.376 . S
C1170 C1168 1.394 . S
C1170 C1171 1.369 . S
C1170 C1174 1.531 . S
C1171 C1170 1.369 . S
C1171 C1172 1.410 . S
C1171 C1179 1.503 . S
C1172 C1171 1.410 . S
C1172 C1173 1.392 . S
C1172 C1175 1.511 . S
C1173 C1169 1.376 . S
C1173 C1172 1.392 . S
C1173 H1185 0.929 . S
C1174 C1170 1.531 . S
C1174 H1186 0.960 . S
C1174 H1187 0.962 . S
C1174 H1188 0.960 . S
C1175 C1172 1.511 . S
C1175 H1189 0.961 . S
C1175 H1190 0.961 . S
C1175 H1191 0.961 . S
C1176 C1177 1.370 . S
C1176 C1178 1.363 . S
C1176 H1192 0.931 . S
C1177 C1176 1.370 . S
C1177 C1181 1.408 . S
C1178 C1176 1.363 . S
C1178 C1179 1.370 . S
C1178 C1182 1.524 . S
C1179 C1171 1.503 . S
C1179 C1178 1.370 . S
C1179 C1180 1.403 . S
C1180 C1179 1.403 . S
C1180 C1181 1.404 . S
C1180 C1183 1.539 . S
C1181 C1177 1.408 . S
C1181 C1180 1.404 . S
C1181 H1193 0.930 . S
C1182 C1178 1.524 . S
C1182 H1194 0.956 . S
C1182 H1195 0.961 . S
C1182 H1196 0.961 . S
C1183 C1180 1.539 . S
C1183 H1197 0.958 . S
C1183 H1198 0.961 . S
C1183 H1199 0.960 . S
H1184 C1168 0.931 . S
H1185 C1173 0.929 . S
H1186 C1174 0.960 . S
H1187 C1174 0.962 . S
H1188 C1174 0.960 . S
H1189 C1175 0.961 . S
H1190 C1175 0.961 . S
H1191 C1175 0.961 . S
H1192 C1176 0.931 . S
H1193 C1181 0.930 . S
H1194 C1182 0.956 . S
H1195 C1182 0.961 . S
H1196 C1182 0.961 . S
H1197 C1183 0.958 . S
H1198 C1183 0.961 . S
H1199 C1183 0.960 . S
C1200 C1201 1.391 . S
C1200 C1202 1.394 . S
C1200 H1216 0.931 . S
C1201 C1200 1.391 . S
C1201 C1205 1.376 . S
C1202 C1200 1.394 . S
C1202 C1203 1.369 . S
C1202 C1206 1.531 . S
C1203 C1202 1.369 . S
C1203 C1204 1.410 . S
C1203 C1211 1.503 . S
C1204 C1203 1.410 . S
C1204 C1205 1.392 . S
C1204 C1207 1.511 . S
C1205 C1201 1.376 . S
C1205 C1204 1.392 . S
C1205 H1217 0.929 . S
C1206 C1202 1.531 . S
C1206 H1218 0.960 . S
C1206 H1219 0.962 . S
C1206 H1220 0.960 . S
C1207 C1204 1.511 . S
C1207 H1221 0.961 . S
C1207 H1222 0.961 . S
C1207 H1223 0.961 . S
C1208 C1209 1.370 . S
C1208 C1210 1.363 . S
C1208 H1224 0.931 . S
C1209 C1208 1.370 . S
C1209 C1213 1.408 . S
C1210 C1208 1.363 . S
C1210 C1211 1.370 . S
C1210 C1214 1.524 . S
C1211 C1203 1.503 . S
C1211 C1210 1.370 . S
C1211 C1212 1.403 . S
C1212 C1211 1.403 . S
C1212 C1213 1.404 . S
C1212 C1215 1.539 . S
C1213 C1209 1.408 . S
C1213 C1212 1.404 . S
C1213 H1225 0.930 . S
C1214 C1210 1.524 . S
C1214 H1226 0.956 . S
C1214 H1227 0.961 . S
C1214 H1228 0.961 . S
C1215 C1212 1.539 . S
C1215 H1229 0.958 . S
C1215 H1230 0.961 . S
C1215 H1231 0.960 . S
H1216 C1200 0.931 . S
H1217 C1205 0.929 . S
H1218 C1206 0.960 . S
H1219 C1206 0.962 . S
H1220 C1206 0.960 . S
H1221 C1207 0.961 . S
H1222 C1207 0.961 . S
H1223 C1207 0.961 . S
H1224 C1208 0.931 . S
H1225 C1213 0.930 . S
H1226 C1214 0.956 . S
H1227 C1214 0.961 . S
H1228 C1214 0.961 . S
H1229 C1215 0.958 . S
H1230 C1215 0.961 . S
H1231 C1215 0.960 . S
C1232 C1233 1.391 . S
C1232 C1234 1.394 . S
C1232 H1248 0.931 . S
C1233 C1232 1.391 . S
C1233 C1237 1.376 . S
C1234 C1232 1.394 . S
C1234 C1235 1.412 . S
C1234 C1238 1.531 . S
C1235 C1234 1.412 . S
C1235 C1236 1.392 1_655 S
C1235 C1243 1.480 1_655 S
C1236 C1235 1.392 1_455 S
C1236 C1237 1.392 1_455 S
C1236 C1239 1.511 . S
C1237 C1233 1.376 . S
C1237 C1236 1.392 1_655 S
C1237 H1249 0.929 . S
C1238 C1234 1.531 . S
C1238 H1250 0.960 . S
C1238 H1251 0.962 . S
C1238 H1252 0.960 . S
C1239 C1236 1.511 . S
C1239 H1253 0.961 . S
C1239 H1254 0.961 . S
C1239 H1255 0.961 . S
C1240 C1241 1.370 . S
C1240 C1242 1.363 1_455 S
C1240 H1256 0.931 1_455 S
C1241 C1240 1.370 . S
C1241 C1245 1.408 . S
C1242 C1240 1.363 1_655 S
C1242 C1243 1.370 1_655 S
C1242 C1246 1.524 . S
C1243 C1235 1.480 1_455 S
C1243 C1242 1.370 1_455 S
C1243 C1244 1.403 . S
C1244 C1243 1.403 . S
C1244 C1245 1.404 . S
C1244 C1247 1.539 . S
C1245 C1241 1.408 . S
C1245 C1244 1.404 . S
C1245 H1257 0.930 . S
C1246 C1242 1.524 . S
C1246 H1258 0.956 . S
C1246 H1259 0.961 . S
C1246 H1260 0.961 . S
C1247 C1244 1.539 . S
C1247 H1261 0.958 . S
C1247 H1262 0.961 . S
C1247 H1263 0.960 . S
H1248 C1232 0.931 . S
H1249 C1237 0.929 . S
H1250 C1238 0.960 . S
H1251 C1238 0.962 . S
H1252 C1238 0.960 . S
H1253 C1239 0.961 . S
H1254 C1239 0.961 . S
H1255 C1239 0.961 . S
H1256 C1240 0.931 1_655 S
H1257 C1245 0.930 . S
H1258 C1246 0.956 . S
H1259 C1246 0.961 . S
H1260 C1246 0.961 . S
H1261 C1247 0.958 . S
H1262 C1247 0.961 . S
H1263 C1247 0.960 . S
C1264 C1265 1.391 . S
C1264 C1266 1.394 . S
C1264 H1280 0.931 . S
C1265 C1264 1.391 . S
C1265 C1269 1.376 . S
C1266 C1264 1.394 . S
C1266 C1267 1.369 . S
C1266 C1270 1.531 . S
C1267 C1266 1.369 . S
C1267 C1268 1.410 . S
C1267 C1275 1.503 . S
C1268 C1267 1.410 . S
C1268 C1269 1.392 . S
C1268 C1271 1.511 . S
C1269 C1265 1.376 . S
C1269 C1268 1.392 . S
C1269 H1281 0.929 . S
C1270 C1266 1.531 . S
C1270 H1282 0.960 . S
C1270 H1283 0.962 . S
C1270 H1284 0.960 . S
C1271 C1268 1.511 . S
C1271 H1285 0.961 . S
C1271 H1286 0.961 . S
C1271 H1287 0.961 . S
C1272 C1273 1.370 . S
C1272 C1274 1.363 . S
C1272 H1288 0.931 . S
C1273 C1272 1.370 . S
C1273 C1277 1.408 . S
C1274 C1272 1.363 . S
C1274 C1275 1.370 . S
C1274 C1278 1.524 . S
C1275 C1267 1.503 . S
C1275 C1274 1.370 . S
C1275 C1276 1.403 . S
C1276 C1275 1.403 . S
C1276 C1277 1.404 . S
C1276 C1279 1.539 . S
C1277 C1273 1.408 . S
C1277 C1276 1.404 . S
C1277 H1289 0.930 . S
C1278 C1274 1.524 . S
C1278 H1290 0.956 . S
C1278 H1291 0.961 . S
C1278 H1292 0.961 . S
C1279 C1276 1.539 . S
C1279 H1293 0.958 . S
C1279 H1294 0.961 . S
C1279 H1295 0.960 . S
H1280 C1264 0.931 . S
H1281 C1269 0.929 . S
H1282 C1270 0.960 . S
H1283 C1270 0.962 . S
H1284 C1270 0.960 . S
H1285 C1271 0.961 . S
H1286 C1271 0.961 . S
H1287 C1271 0.961 . S
H1288 C1272 0.931 . S
H1289 C1277 0.930 . S
H1290 C1278 0.956 . S
H1291 C1278 0.961 . S
H1292 C1278 0.961 . S
H1293 C1279 0.958 . S
H1294 C1279 0.961 . S
H1295 C1279 0.960 . S
C1296 C1297 1.391 . S
C1296 C1298 1.394 . S
C1296 H1312 0.931 . S
C1297 C1296 1.391 . S
C1297 C1301 1.376 . S
C1298 C1296 1.394 . S
C1298 C1299 1.369 . S
C1298 C1302 1.531 . S
C1299 C1298 1.369 . S
C1299 C1300 1.410 . S
C1299 C1307 1.503 . S
C1300 C1299 1.410 . S
C1300 C1301 1.392 . S
C1300 C1303 1.511 . S
C1301 C1297 1.376 . S
C1301 C1300 1.392 . S
C1301 H1313 0.929 . S
C1302 C1298 1.531 . S
C1302 H1314 0.960 . S
C1302 H1315 0.962 . S
C1302 H1316 0.960 . S
C1303 C1300 1.511 . S
C1303 H1317 0.961 . S
C1303 H1318 0.961 . S
C1303 H1319 0.961 . S
C1304 C1305 1.370 . S
C1304 C1306 1.363 . S
C1304 H1320 0.931 . S
C1305 C1304 1.370 . S
C1305 C1309 1.408 . S
C1306 C1304 1.363 . S
C1306 C1307 1.370 . S
C1306 C1310 1.524 . S
C1307 C1299 1.503 . S
C1307 C1306 1.370 . S
C1307 C1308 1.403 . S
C1308 C1307 1.403 . S
C1308 C1309 1.404 . S
C1308 C1311 1.539 1_545 S
C1309 C1305 1.408 . S
C1309 C1308 1.404 . S
C1309 H1321 0.930 . S
C1310 C1306 1.524 . S
C1310 H1322 0.956 . S
C1310 H1323 0.961 . S
C1310 H1324 0.961 . S
C1311 C1308 1.539 1_565 S
C1311 H1325 0.958 . S
C1311 H1326 0.961 . S
C1311 H1327 0.960 1_565 S
H1312 C1296 0.931 . S
H1313 C1301 0.929 . S
H1314 C1302 0.960 . S
H1315 C1302 0.962 . S
H1316 C1302 0.960 . S
H1317 C1303 0.961 . S
H1318 C1303 0.961 . S
H1319 C1303 0.961 . S
H1320 C1304 0.931 . S
H1321 C1309 0.930 . S
H1322 C1310 0.956 . S
H1323 C1310 0.961 . S
H1324 C1310 0.961 . S
H1325 C1311 0.958 . S
H1326 C1311 0.961 . S
H1327 C1311 0.960 1_545 S
C1328 C1329 1.391 . S
C1328 C1330 1.394 . S
C1328 H1344 0.931 . S
C1329 C1328 1.391 . S
C1329 C1333 1.376 . S
C1330 C1328 1.394 . S
C1330 C1331 1.369 . S
C1330 C1334 1.531 . S
C1331 C1330 1.369 . S
C1331 C1332 1.410 . S
C1331 C1339 1.503 . S
C1332 C1331 1.410 . S
C1332 C1333 1.392 . S
C1332 C1335 1.511 . S
C1333 C1329 1.376 . S
C1333 C1332 1.392 . S
C1333 H1345 0.929 . S
C1334 C1330 1.531 . S
C1334 H1346 0.960 . S
C1334 H1347 0.962 . S
C1334 H1348 0.960 . S
C1335 C1332 1.511 . S
C1335 H1349 0.961 . S
C1335 H1350 0.961 . S
C1335 H1351 0.961 . S
C1336 C1337 1.370 . S
C1336 C1338 1.363 . S
C1336 H1352 0.931 . S
C1337 C1336 1.370 . S
C1337 C1341 1.408 . S
C1338 C1336 1.363 . S
C1338 C1339 1.370 . S
C1338 C1342 1.524 . S
C1339 C1331 1.503 . S
C1339 C1338 1.370 . S
C1339 C1340 1.403 . S
C1340 C1339 1.403 . S
C1340 C1341 1.404 . S
C1340 C1343 1.539 . S
C1341 C1337 1.408 . S
C1341 C1340 1.404 . S
C1341 H1353 0.930 . S
C1342 C1338 1.524 . S
C1342 H1354 0.956 . S
C1342 H1355 0.961 . S
C1342 H1356 0.961 . S
C1343 C1340 1.539 . S
C1343 H1357 0.958 . S
C1343 H1358 0.961 . S
C1343 H1359 0.960 . S
H1344 C1328 0.931 . S
H1345 C1333 0.929 . S
H1346 C1334 0.960 . S
H1347 C1334 0.962 . S
H1348 C1334 0.960 . S
H1349 C1335 0.961 . S
H1350 C1335 0.961 . S
H1351 C1335 0.961 . S
H1352 C1336 0.931 . S
H1353 C1341 0.930 . S
H1354 C1342 0.956 . S
H1355 C1342 0.961 . S
H1356 C1342 0.961 . S
H1357 C1343 0.958 . S
H1358 C1343 0.961 . S
H1359 C1343 0.960 . S
C1360 C1361 1.391 . S
C1360 C1362 1.394 . S
C1360 H1376 0.931 . S
C1361 C1360 1.391 . S
C1361 C1365 1.376 . S
C1362 C1360 1.394 . S
C1362 C1363 1.369 . S
C1362 C1366 1.531 . S
C1363 C1362 1.369 . S
C1363 C1364 1.410 1_655 S
C1363 C1371 1.503 1_655 S
C1364 C1363 1.410 1_455 S
C1364 C1365 1.392 1_455 S
C1364 C1367 1.511 . S
C1365 C1361 1.376 . S
C1365 C1364 1.392 1_655 S
C1365 H1377 0.929 1_655 S
C1366 C1362 1.531 . S
C1366 H1378 0.960 . S
C1366 H1379 0.962 . S
C1366 H1380 0.960 . S
C1367 C1364 1.511 . S
C1367 H1381 0.961 . S
C1367 H1382 0.961 . S
C1367 H1383 0.961 . S
C1368 C1369 1.370 . S
C1368 C1370 1.363 . S
C1368 H1384 0.931 . S
C1369 C1368 1.370 . S
C1369 C1373 1.408 . S
C1370 C1368 1.363 . S
C1370 C1371 1.370 . S
C1370 C1374 1.524 . S
C1371 C1363 1.503 1_455 S
C1371 C1370 1.370 . S
C1371 C1372 1.403 1_455 S
C1372 C1371 1.403 1_655 S
C1372 C1373 1.404 1_655 S
C1372 C1375 1.539 . S
C1373 C1369 1.408 . S
C1373 C1372 1.404 1_455 S
C1373 H1385 0.930 . S
C1374 C1370 1.524 . S
C1374 H1386 0.956 . S
C1374 H1387 0.961 . S
C1374 H1388 0.961 . S
C1375 C1372 1.539 . S
C1375 H1389 0.958 1_545 S
C1375 H1390 0.961 1_545 S
C1375 H1391 0.960 . S
H1376 C1360 0.931 . S
H1377 C1365 0.929 1_455 S
H1378 C1366 0.960 . S
H1379 C1366 0.962 . S
H1380 C1366 0.960 . S
H1381 C1367 0.961 . S
H1382 C1367 0.961 . S
H1383 C1367 0.961 . S
H1384 C1368 0.931 . S
H1385 C1373 0.930 . S
H1386 C1374 0.956 . S
H1387 C1374 0.961 . S
H1388 C1374 0.961 . S
H1389 C1375 0.958 1_565 S
H1390 C1375 0.961 1_565 S
H1391 C1375 0.960 . S
C1392 C1393 1.391 . S
C1392 C1394 1.394 . S
C1392 H1408 0.931 . S
C1393 C1392 1.391 . S
C1393 C1397 1.376 . S
C1394 C1392 1.394 . S
C1394 C1395 1.369 . S
C1394 C1398 1.531 . S
C1395 C1394 1.369 . S
C1395 C1396 1.410 . S
C1395 C1403 1.503 . S
C1396 C1395 1.410 . S
C1396 C1397 1.392 . S
C1396 C1399 1.511 . S
C1397 C1393 1.376 . S
C1397 C1396 1.392 . S
C1397 H1409 0.929 . S
C1398 C1394 1.531 . S
C1398 H1410 0.960 . S
C1398 H1411 0.962 . S
C1398 H1412 0.960 . S
C1399 C1396 1.511 . S
C1399 H1413 0.961 . S
C1399 H1414 0.961 . S
C1399 H1415 0.961 . S
C1400 C1401 1.370 . S
C1400 C1402 1.363 . S
C1400 H1416 0.931 . S
C1401 C1400 1.370 . S
C1401 C1405 1.408 . S
C1402 C1400 1.363 . S
C1402 C1403 1.370 . S
C1402 C1406 1.524 . S
C1403 C1395 1.503 . S
C1403 C1402 1.370 . S
C1403 C1404 1.403 . S
C1404 C1403 1.403 . S
C1404 C1405 1.404 . S
C1404 C1407 1.539 . S
C1405 C1401 1.408 . S
C1405 C1404 1.404 . S
C1405 H1417 0.930 . S
C1406 C1402 1.524 . S
C1406 H1418 0.956 . S
C1406 H1419 0.961 . S
C1406 H1420 0.961 . S
C1407 C1404 1.539 . S
C1407 H1421 0.958 . S
C1407 H1422 0.961 . S
C1407 H1423 0.960 . S
H1408 C1392 0.931 . S
H1409 C1397 0.929 . S
H1410 C1398 0.960 . S
H1411 C1398 0.962 . S
H1412 C1398 0.960 . S
H1413 C1399 0.961 . S
H1414 C1399 0.961 . S
H1415 C1399 0.961 . S
H1416 C1400 0.931 . S
H1417 C1405 0.930 . S
H1418 C1406 0.956 . S
H1419 C1406 0.961 . S
H1420 C1406 0.961 . S
H1421 C1407 0.958 . S
H1422 C1407 0.961 . S
H1423 C1407 0.960 . S
C1424 C1425 1.391 . S
C1424 C1426 1.394 . S
C1424 H1440 0.931 . S
C1425 C1424 1.391 . S
C1425 C1429 1.376 . S
C1426 C1424 1.394 . S
C1426 C1427 1.369 . S
C1426 C1430 1.531 . S
C1427 C1426 1.369 . S
C1427 C1428 1.410 . S
C1427 C1435 1.503 . S
C1428 C1427 1.410 . S
C1428 C1429 1.392 . S
C1428 C1431 1.511 . S
C1429 C1425 1.376 . S
C1429 C1428 1.392 . S
C1429 H1441 0.929 . S
C1430 C1426 1.531 . S
C1430 H1442 0.960 . S
C1430 H1443 0.962 . S
C1430 H1444 0.960 . S
C1431 C1428 1.511 . S
C1431 H1445 0.961 . S
C1431 H1446 0.961 . S
C1431 H1447 0.961 . S
C1432 C1433 1.370 . S
C1432 C1434 1.363 . S
C1432 H1448 0.931 . S
C1433 C1432 1.370 . S
C1433 C1437 1.408 . S
C1434 C1432 1.363 . S
C1434 C1435 1.370 . S
C1434 C1438 1.524 . S
C1435 C1427 1.503 . S
C1435 C1434 1.370 . S
C1435 C1436 1.403 . S
C1436 C1435 1.403 . S
C1436 C1437 1.404 . S
C1436 C1439 1.539 . S
C1437 C1433 1.408 . S
C1437 C1436 1.404 . S
C1437 H1449 0.930 . S
C1438 C1434 1.524 . S
C1438 H1450 0.956 . S
C1438 H1451 0.961 . S
C1438 H1452 0.961 . S
C1439 C1436 1.539 . S
C1439 H1453 0.958 . S
C1439 H1454 0.961 . S
C1439 H1455 0.960 . S
H1440 C1424 0.931 . S
H1441 C1429 0.929 . S
H1442 C1430 0.960 . S
H1443 C1430 0.962 . S
H1444 C1430 0.960 . S
H1445 C1431 0.961 . S
H1446 C1431 0.961 . S
H1447 C1431 0.961 . S
H1448 C1432 0.931 . S
H1449 C1437 0.930 . S
H1450 C1438 0.956 . S
H1451 C1438 0.961 . S
H1452 C1438 0.961 . S
H1453 C1439 0.958 . S
H1454 C1439 0.961 . S
H1455 C1439 0.960 . S
C1456 C1457 1.391 . S
C1456 C1458 1.394 . S
C1456 H1472 0.931 . S
C1457 C1456 1.391 . S
C1457 C1461 1.376 . S
C1458 C1456 1.394 . S
C1458 C1459 1.369 . S
C1458 C1462 1.531 . S
C1459 C1458 1.369 . S
C1459 C1460 1.410 . S
C1459 C1467 1.503 . S
C1460 C1459 1.410 . S
C1460 C1461 1.392 . S
C1460 C1463 1.511 . S
C1461 C1457 1.376 . S
C1461 C1460 1.392 . S
C1461 H1473 0.929 . S
C1462 C1458 1.531 . S
C1462 H1474 0.960 . S
C1462 H1475 0.962 . S
C1462 H1476 0.960 . S
C1463 C1460 1.511 . S
C1463 H1477 0.961 . S
C1463 H1478 0.961 . S
C1463 H1479 0.961 . S
C1464 C1465 1.370 . S
C1464 C1466 1.363 . S
C1464 H1480 0.931 . S
C1465 C1464 1.370 . S
C1465 C1469 1.408 . S
C1466 C1464 1.363 . S
C1466 C1467 1.370 . S
C1466 C1470 1.524 . S
C1467 C1459 1.503 . S
C1467 C1466 1.370 . S
C1467 C1468 1.403 . S
C1468 C1467 1.403 . S
C1468 C1469 1.404 . S
C1468 C1471 1.539 . S
C1469 C1465 1.408 . S
C1469 C1468 1.404 . S
C1469 H1481 0.930 . S
C1470 C1466 1.524 . S
C1470 H1482 0.956 . S
C1470 H1483 0.961 . S
C1470 H1484 0.961 . S
C1471 C1468 1.539 . S
C1471 H1485 0.958 . S
C1471 H1486 0.961 . S
C1471 H1487 0.960 . S
H1472 C1456 0.931 . S
H1473 C1461 0.929 . S
H1474 C1462 0.960 . S
H1475 C1462 0.962 . S
H1476 C1462 0.960 . S
H1477 C1463 0.961 . S
H1478 C1463 0.961 . S
H1479 C1463 0.961 . S
H1480 C1464 0.931 . S
H1481 C1469 0.930 . S
H1482 C1470 0.956 . S
H1483 C1470 0.961 . S
H1484 C1470 0.961 . S
H1485 C1471 0.958 . S
H1486 C1471 0.961 . S
H1487 C1471 0.960 . S
C1488 C1489 1.382 1_556 S
C1488 C1490 1.389 1_556 S
C1488 H1504 0.944 . S
C1489 C1488 1.382 1_554 S
C1489 C1493 1.376 . S
C1490 C1488 1.389 1_554 S
C1490 C1491 1.369 . S
C1490 C1494 1.531 1_554 S
C1491 C1490 1.369 . S
C1491 C1492 1.410 . S
C1491 C1499 1.503 . S
C1492 C1491 1.410 . S
C1492 C1493 1.392 . S
C1492 C1495 1.511 . S
C1493 C1489 1.376 . S
C1493 C1492 1.392 . S
C1493 H1505 0.929 . S
C1494 C1490 1.531 1_556 S
C1494 H1506 0.960 . S
C1494 H1507 0.969 1_565 S
C1494 H1508 0.960 . S
C1495 C1492 1.511 . S
C1495 H1509 0.961 . S
C1495 H1510 0.961 . S
C1495 H1511 0.961 . S
C1496 C1497 1.370 1_545 S
C1496 C1498 1.363 . S
C1496 H1512 0.931 . S
C1497 C1496 1.370 1_565 S
C1497 C1501 1.408 . S
C1498 C1496 1.363 . S
C1498 C1499 1.370 1_545 S
C1498 C1502 1.524 . S
C1499 C1491 1.503 . S
C1499 C1498 1.370 1_565 S
C1499 C1500 1.403 . S
C1500 C1499 1.403 . S
C1500 C1501 1.404 . S
C1500 C1503 1.539 . S
C1501 C1497 1.408 . S
C1501 C1500 1.404 . S
C1501 H1513 0.930 . S
C1502 C1498 1.524 . S
C1502 H1514 0.956 . S
C1502 H1515 0.961 . S
C1502 H1516 0.961 . S
C1503 C1500 1.539 . S
C1503 H1517 0.958 1_554 S
C1503 H1518 0.961 . S
C1503 H1519 0.960 . S
H1504 C1488 0.944 . S
H1505 C1493 0.929 . S
H1506 C1494 0.960 . S
H1507 C1494 0.969 1_545 S
H1508 C1494 0.960 . S
H1509 C1495 0.961 . S
H1510 C1495 0.961 . S
H1511 C1495 0.961 . S
H1512 C1496 0.931 . S
H1513 C1501 0.930 . S
H1514 C1502 0.956 . S
H1515 C1502 0.961 . S
H1516 C1502 0.961 . S
H1517 C1503 0.958 1_556 S
H1518 C1503 0.961 . S
H1519 C1503 0.960 . S
C1520 C1521 1.391 1_556 S
C1520 C1522 1.394 . S
C1520 H1536 0.931 . S
C1521 C1520 1.391 1_554 S
C1521 C1525 1.376 . S
C1522 C1520 1.394 . S
C1522 C1523 1.369 1_556 S
C1522 C1526 1.531 . S
C1523 C1522 1.369 1_554 S
C1523 C1524 1.410 . S
C1523 C1531 1.503 . S
C1524 C1523 1.410 . S
C1524 C1525 1.392 . S
C1524 C1527 1.511 . S
C1525 C1521 1.376 . S
C1525 C1524 1.392 . S
C1525 H1537 0.929 . S
C1526 C1522 1.531 . S
C1526 H1538 0.960 . S
C1526 H1539 0.962 . S
C1526 H1540 0.960 . S
C1527 C1524 1.511 . S
C1527 H1541 0.961 . S
C1527 H1542 0.961 . S
C1527 H1543 0.961 . S
C1528 C1529 1.370 1_556 S
C1528 C1530 1.363 . S
C1528 H1544 0.931 . S
C1529 C1528 1.370 1_554 S
C1529 C1533 1.408 . S
C1530 C1528 1.363 . S
C1530 C1531 1.370 1_556 S
C1530 C1534 1.524 . S
C1531 C1523 1.503 . S
C1531 C1530 1.370 1_554 S
C1531 C1532 1.403 . S
C1532 C1531 1.403 . S
C1532 C1533 1.404 . S
C1532 C1535 1.539 . S
C1533 C1529 1.408 . S
C1533 C1532 1.404 . S
C1533 H1545 0.930 . S
C1534 C1530 1.524 . S
C1534 H1546 0.956 . S
C1534 H1547 0.961 . S
C1534 H1548 0.961 . S
C1535 C1532 1.539 . S
C1535 H1549 0.958 . S
C1535 H1550 0.961 . S
C1535 H1551 0.960 . S
H1536 C1520 0.931 . S
H1537 C1525 0.929 . S
H1538 C1526 0.960 . S
H1539 C1526 0.962 . S
H1540 C1526 0.960 . S
H1541 C1527 0.961 . S
H1542 C1527 0.961 . S
H1543 C1527 0.961 . S
H1544 C1528 0.931 . S
H1545 C1533 0.930 . S
H1546 C1534 0.956 . S
H1547 C1534 0.961 . S
H1548 C1534 0.961 . S
H1549 C1535 0.958 . S
H1550 C1535 0.961 . S
H1551 C1535 0.960 . S
C1552 C1553 1.391 . S
C1552 C1554 1.394 . S
C1552 H1568 0.931 . S
C1553 C1552 1.391 . S
C1553 C1557 1.376 . S
C1554 C1552 1.394 . S
C1554 C1555 1.369 . S
C1554 C1558 1.531 . S
C1555 C1554 1.369 . S
C1555 C1556 1.410 . S
C1555 C1563 1.503 . S
C1556 C1555 1.410 . S
C1556 C1557 1.392 . S
C1556 C1559 1.511 . S
C1557 C1553 1.376 . S
C1557 C1556 1.392 . S
C1557 H1569 0.929 . S
C1558 C1554 1.531 . S
C1558 H1570 0.960 . S
C1558 H1571 0.962 . S
C1558 H1572 0.960 . S
C1559 C1556 1.511 . S
C1559 H1573 0.961 . S
C1559 H1574 0.961 . S
C1559 H1575 0.961 . S
C1560 C1561 1.370 . S
C1560 C1562 1.363 . S
C1560 H1576 0.931 . S
C1561 C1560 1.370 . S
C1561 C1565 1.408 . S
C1562 C1560 1.363 . S
C1562 C1563 1.370 . S
C1562 C1566 1.524 . S
C1563 C1555 1.503 . S
C1563 C1562 1.370 . S
C1563 C1564 1.403 . S
C1564 C1563 1.403 . S
C1564 C1565 1.404 . S
C1564 C1567 1.539 . S
C1565 C1561 1.408 . S
C1565 C1564 1.404 . S
C1565 H1577 0.930 . S
C1566 C1562 1.524 . S
C1566 H1578 0.956 . S
C1566 H1579 0.961 . S
C1566 H1580 0.961 . S
C1567 C1564 1.539 . S
C1567 H1581 0.958 . S
C1567 H1582 0.961 . S
C1567 H1583 0.960 . S
H1568 C1552 0.931 . S
H1569 C1557 0.929 . S
H1570 C1558 0.960 . S
H1571 C1558 0.962 . S
H1572 C1558 0.960 . S
H1573 C1559 0.961 . S
H1574 C1559 0.961 . S
H1575 C1559 0.961 . S
H1576 C1560 0.931 . S
H1577 C1565 0.930 . S
H1578 C1566 0.956 . S
H1579 C1566 0.961 . S
H1580 C1566 0.961 . S
H1581 C1567 0.958 . S
H1582 C1567 0.961 . S
H1583 C1567 0.960 . S
C1584 C1585 1.391 . S
C1584 C1586 1.394 . S
C1584 H1600 0.931 . S
C1585 C1584 1.391 . S
C1585 C1589 1.376 . S
C1586 C1584 1.394 . S
C1586 C1587 1.369 . S
C1586 C1590 1.531 . S
C1587 C1586 1.369 . S
C1587 C1588 1.410 . S
C1587 C1595 1.503 . S
C1588 C1587 1.410 . S
C1588 C1589 1.392 . S
C1588 C1591 1.511 . S
C1589 C1585 1.376 . S
C1589 C1588 1.392 . S
C1589 H1601 0.929 . S
C1590 C1586 1.531 . S
C1590 H1602 0.960 . S
C1590 H1603 0.962 . S
C1590 H1604 0.960 . S
C1591 C1588 1.511 . S
C1591 H1605 0.961 . S
C1591 H1606 0.961 . S
C1591 H1607 0.961 . S
C1592 C1593 1.370 . S
C1592 C1594 1.363 . S
C1592 H1608 0.931 . S
C1593 C1592 1.370 . S
C1593 C1597 1.408 . S
C1594 C1592 1.363 . S
C1594 C1595 1.370 . S
C1594 C1598 1.524 . S
C1595 C1587 1.503 . S
C1595 C1594 1.370 . S
C1595 C1596 1.403 . S
C1596 C1595 1.403 . S
C1596 C1597 1.404 . S
C1596 C1599 1.539 . S
C1597 C1593 1.408 . S
C1597 C1596 1.404 . S
C1597 H1609 0.930 . S
C1598 C1594 1.524 . S
C1598 H1610 0.956 . S
C1598 H1611 0.961 . S
C1598 H1612 0.961 . S
C1599 C1596 1.539 . S
C1599 H1613 0.958 . S
C1599 H1614 0.961 . S
C1599 H1615 0.960 . S
H1600 C1584 0.931 . S
H1601 C1589 0.929 . S
H1602 C1590 0.960 . S
H1603 C1590 0.962 . S
H1604 C1590 0.960 . S
H1605 C1591 0.961 . S
H1606 C1591 0.961 . S
H1607 C1591 0.961 . S
H1608 C1592 0.931 . S
H1609 C1597 0.930 . S
H1610 C1598 0.956 . S
H1611 C1598 0.961 . S
H1612 C1598 0.961 . S
H1613 C1599 0.958 . S
H1614 C1599 0.961 . S
H1615 C1599 0.960 . S
C1616 C1617 1.391 . S
C1616 C1618 1.394 . S
C1616 H1632 0.931 . S
C1617 C1616 1.391 . S
C1617 C1621 1.376 . S
C1618 C1616 1.394 . S
C1618 C1619 1.369 . S
C1618 C1622 1.531 . S
C1619 C1618 1.369 . S
C1619 C1620 1.410 . S
C1619 C1627 1.503 . S
C1620 C1619 1.410 . S
C1620 C1621 1.392 . S
C1620 C1623 1.511 . S
C1621 C1617 1.376 . S
C1621 C1620 1.392 . S
C1621 H1633 0.929 . S
C1622 C1618 1.531 . S
C1622 H1634 0.960 . S
C1622 H1635 0.962 . S
C1622 H1636 0.960 . S
C1623 C1620 1.511 . S
C1623 H1637 0.961 . S
C1623 H1638 0.961 . S
C1623 H1639 0.961 . S
C1624 C1625 1.370 . S
C1624 C1626 1.363 . S
C1624 H1640 0.931 . S
C1625 C1624 1.370 . S
C1625 C1629 1.408 . S
C1626 C1624 1.363 . S
C1626 C1627 1.370 . S
C1626 C1630 1.524 . S
C1627 C1619 1.503 . S
C1627 C1626 1.370 . S
C1627 C1628 1.403 . S
C1628 C1627 1.403 . S
C1628 C1629 1.404 . S
C1628 C1631 1.539 . S
C1629 C1625 1.408 . S
C1629 C1628 1.404 . S
C1629 H1641 0.930 . S
C1630 C1626 1.524 . S
C1630 H1642 0.956 . S
C1630 H1643 0.961 . S
C1630 H1644 0.961 . S
C1631 C1628 1.539 . S
C1631 H1645 0.958 . S
C1631 H1646 0.961 . S
C1631 H1647 0.960 . S
H1632 C1616 0.931 . S
H1633 C1621 0.929 . S
H1634 C1622 0.960 . S
H1635 C1622 0.962 . S
H1636 C1622 0.960 . S
H1637 C1623 0.961 . S
H1638 C1623 0.961 . S
H1639 C1623 0.961 . S
H1640 C1624 0.931 . S
H1641 C1629 0.930 . S
H1642 C1630 0.956 . S
H1643 C1630 0.961 . S
H1644 C1630 0.961 . S
H1645 C1631 0.958 . S
H1646 C1631 0.961 . S
H1647 C1631 0.960 . S
C1648 C1649 1.391 . S
C1648 C1650 1.394 . S
C1648 H1664 0.931 . S
C1649 C1648 1.391 . S
C1649 C1653 1.376 . S
C1650 C1648 1.394 . S
C1650 C1651 1.369 . S
C1650 C1654 1.531 . S
C1651 C1650 1.369 . S
C1651 C1652 1.410 . S
C1651 C1659 1.503 . S
C1652 C1651 1.410 . S
C1652 C1653 1.392 . S
C1652 C1655 1.511 . S
C1653 C1649 1.376 . S
C1653 C1652 1.392 . S
C1653 H1665 0.929 . S
C1654 C1650 1.531 . S
C1654 H1666 0.960 . S
C1654 H1667 0.962 . S
C1654 H1668 0.960 . S
C1655 C1652 1.511 . S
C1655 H1669 0.961 . S
C1655 H1670 0.961 . S
C1655 H1671 0.961 . S
C1656 C1657 1.370 . S
C1656 C1658 1.363 . S
C1656 H1672 0.931 . S
C1657 C1656 1.370 . S
C1657 C1661 1.408 . S
C1658 C1656 1.363 . S
C1658 C1659 1.370 . S
C1658 C1662 1.524 . S
C1659 C1651 1.503 . S
C1659 C1658 1.370 . S
C1659 C1660 1.403 . S
C1660 C1659 1.403 . S
C1660 C1661 1.404 . S
C1660 C1663 1.539 . S
C1661 C1657 1.408 . S
C1661 C1660 1.404 . S
C1661 H1673 0.930 . S
C1662 C1658 1.524 . S
C1662 H1674 0.956 . S
C1662 H1675 0.961 . S
C1662 H1676 0.961 . S
C1663 C1660 1.539 . S
C1663 H1677 0.958 . S
C1663 H1678 0.961 . S
C1663 H1679 0.960 . S
H1664 C1648 0.931 . S
H1665 C1653 0.929 . S
H1666 C1654 0.960 . S
H1667 C1654 0.962 . S
H1668 C1654 0.960 . S
H1669 C1655 0.961 . S
H1670 C1655 0.961 . S
H1671 C1655 0.961 . S
H1672 C1656 0.931 . S
H1673 C1661 0.930 . S
H1674 C1662 0.956 . S
H1675 C1662 0.961 . S
H1676 C1662 0.961 . S
H1677 C1663 0.958 . S
H1678 C1663 0.961 . S
H1679 C1663 0.960 . S
C1680 C1681 1.391 . S
C1680 C1682 1.394 . S
C1680 H1696 0.931 . S
C1681 C1680 1.391 . S
C1681 C1685 1.376 . S
C1682 C1680 1.394 . S
C1682 C1683 1.369 . S
C1682 C1686 1.531 . S
C1683 C1682 1.369 . S
C1683 C1684 1.410 . S
C1683 C1691 1.503 . S
C1684 C1683 1.410 . S
C1684 C1685 1.392 . S
C1684 C1687 1.511 . S
C1685 C1681 1.376 . S
C1685 C1684 1.392 . S
C1685 H1697 0.929 . S
C1686 C1682 1.531 . S
C1686 H1698 0.960 . S
C1686 H1699 0.962 . S
C1686 H1700 0.960 . S
C1687 C1684 1.511 . S
C1687 H1701 0.961 . S
C1687 H1702 0.961 . S
C1687 H1703 0.961 . S
C1688 C1689 1.370 . S
C1688 C1690 1.363 . S
C1688 H1704 0.931 . S
C1689 C1688 1.370 . S
C1689 C1693 1.408 . S
C1690 C1688 1.363 . S
C1690 C1691 1.370 . S
C1690 C1694 1.524 . S
C1691 C1683 1.503 . S
C1691 C1690 1.370 . S
C1691 C1692 1.403 . S
C1692 C1691 1.403 . S
C1692 C1693 1.404 . S
C1692 C1695 1.539 . S
C1693 C1689 1.408 . S
C1693 C1692 1.404 . S
C1693 H1705 0.930 . S
C1694 C1690 1.524 . S
C1694 H1706 0.956 . S
C1694 H1707 0.961 . S
C1694 H1708 0.961 . S
C1695 C1692 1.539 . S
C1695 H1709 0.958 . S
C1695 H1710 0.961 . S
C1695 H1711 0.960 . S
H1696 C1680 0.931 . S
H1697 C1685 0.929 . S
H1698 C1686 0.960 . S
H1699 C1686 0.962 . S
H1700 C1686 0.960 . S
H1701 C1687 0.961 . S
H1702 C1687 0.961 . S
H1703 C1687 0.961 . S
H1704 C1688 0.931 . S
H1705 C1693 0.930 . S
H1706 C1694 0.956 . S
H1707 C1694 0.961 . S
H1708 C1694 0.961 . S
H1709 C1695 0.958 . S
H1710 C1695 0.961 . S
H1711 C1695 0.960 . S
C1712 C1713 1.391 . S
C1712 C1714 1.394 . S
C1712 H1728 0.931 . S
C1713 C1712 1.391 . S
C1713 C1717 1.376 . S
C1714 C1712 1.394 . S
C1714 C1715 1.369 . S
C1714 C1718 1.531 . S
C1715 C1714 1.369 . S
C1715 C1716 1.410 . S
C1715 C1723 1.503 . S
C1716 C1715 1.410 . S
C1716 C1717 1.392 . S
C1716 C1719 1.511 . S
C1717 C1713 1.376 . S
C1717 C1716 1.392 . S
C1717 H1729 0.929 . S
C1718 C1714 1.531 . S
C1718 H1730 0.960 . S
C1718 H1731 0.962 . S
C1718 H1732 0.960 . S
C1719 C1716 1.511 . S
C1719 H1733 0.961 . S
C1719 H1734 0.961 . S
C1719 H1735 0.961 . S
C1720 C1721 1.370 . S
C1720 C1722 1.363 . S
C1720 H1736 0.931 . S
C1721 C1720 1.370 . S
C1721 C1725 1.408 . S
C1722 C1720 1.363 . S
C1722 C1723 1.370 . S
C1722 C1726 1.524 . S
C1723 C1715 1.503 . S
C1723 C1722 1.370 . S
C1723 C1724 1.403 . S
C1724 C1723 1.403 . S
C1724 C1725 1.404 . S
C1724 C1727 1.539 . S
C1725 C1721 1.408 . S
C1725 C1724 1.404 . S
C1725 H1737 0.930 . S
C1726 C1722 1.524 . S
C1726 H1738 0.956 . S
C1726 H1739 0.961 . S
C1726 H1740 0.961 . S
C1727 C1724 1.539 . S
C1727 H1741 0.958 . S
C1727 H1742 0.961 . S
C1727 H1743 0.960 . S
H1728 C1712 0.931 . S
H1729 C1717 0.929 . S
H1730 C1718 0.960 . S
H1731 C1718 0.962 . S
H1732 C1718 0.960 . S
H1733 C1719 0.961 . S
H1734 C1719 0.961 . S
H1735 C1719 0.961 . S
H1736 C1720 0.931 . S
H1737 C1725 0.930 . S
H1738 C1726 0.956 . S
H1739 C1726 0.961 . S
H1740 C1726 0.961 . S
H1741 C1727 0.958 . S
H1742 C1727 0.961 . S
H1743 C1727 0.960 . S
C1744 C1745 1.391 . S
C1744 C1746 1.394 . S
C1744 H1760 0.931 . S
C1745 C1744 1.391 . S
C1745 C1749 1.376 . S
C1746 C1744 1.394 . S
C1746 C1747 1.369 . S
C1746 C1750 1.531 . S
C1747 C1746 1.369 . S
C1747 C1748 1.410 . S
C1747 C1755 1.503 . S
C1748 C1747 1.410 . S
C1748 C1749 1.392 . S
C1748 C1751 1.511 . S
C1749 C1745 1.376 . S
C1749 C1748 1.392 . S
C1749 H1761 0.929 . S
C1750 C1746 1.531 . S
C1750 H1762 0.960 . S
C1750 H1763 0.962 . S
C1750 H1764 0.960 . S
C1751 C1748 1.511 . S
C1751 H1765 0.961 . S
C1751 H1766 0.961 . S
C1751 H1767 0.961 . S
C1752 C1753 1.370 . S
C1752 C1754 1.363 . S
C1752 H1768 0.931 . S
C1753 C1752 1.370 . S
C1753 C1757 1.408 . S
C1754 C1752 1.363 . S
C1754 C1755 1.370 . S
C1754 C1758 1.524 . S
C1755 C1747 1.503 . S
C1755 C1754 1.370 . S
C1755 C1756 1.403 . S
C1756 C1755 1.403 . S
C1756 C1757 1.404 . S
C1756 C1759 1.539 . S
C1757 C1753 1.408 . S
C1757 C1756 1.404 . S
C1757 H1769 0.897 1_554 S
C1758 C1754 1.524 . S
C1758 H1770 0.956 . S
C1758 H1771 0.961 . S
C1758 H1772 0.961 . S
C1759 C1756 1.539 . S
C1759 H1773 0.958 1_554 S
C1759 H1774 0.961 . S
C1759 H1775 0.960 . S
H1760 C1744 0.931 . S
H1761 C1749 0.929 . S
H1762 C1750 0.960 . S
H1763 C1750 0.962 . S
H1764 C1750 0.960 . S
H1765 C1751 0.961 . S
H1766 C1751 0.961 . S
H1767 C1751 0.961 . S
H1768 C1752 0.931 . S
H1769 C1757 0.897 1_556 S
H1770 C1758 0.956 . S
H1771 C1758 0.961 . S
H1772 C1758 0.961 . S
H1773 C1759 0.958 1_556 S
H1774 C1759 0.961 . S
H1775 C1759 0.960 . S
C1776 C1777 1.391 . S
C1776 C1778 1.394 . S
C1776 H1792 0.931 . S
C1777 C1776 1.391 . S
C1777 C1781 1.376 . S
C1778 C1776 1.394 . S
C1778 C1779 1.369 . S
C1778 C1782 1.531 . S
C1779 C1778 1.369 . S
C1779 C1780 1.410 . S
C1779 C1787 1.503 . S
C1780 C1779 1.410 . S
C1780 C1781 1.392 . S
C1780 C1783 1.511 . S
C1781 C1777 1.376 . S
C1781 C1780 1.392 . S
C1781 H1793 0.929 . S
C1782 C1778 1.531 . S
C1782 H1794 0.960 . S
C1782 H1795 0.962 . S
C1782 H1796 0.960 . S
C1783 C1780 1.511 . S
C1783 H1797 0.961 . S
C1783 H1798 0.961 . S
C1783 H1799 0.961 . S
C1784 C1785 1.370 . S
C1784 C1786 1.363 . S
C1784 H1800 0.931 . S
C1785 C1784 1.370 . S
C1785 C1789 1.408 . S
C1786 C1784 1.363 . S
C1786 C1787 1.370 . S
C1786 C1790 1.524 . S
C1787 C1779 1.503 . S
C1787 C1786 1.370 . S
C1787 C1788 1.403 . S
C1788 C1787 1.403 . S
C1788 C1789 1.404 . S
C1788 C1791 1.539 . S
C1789 C1785 1.408 . S
C1789 C1788 1.404 . S
C1789 H1801 0.930 . S
C1790 C1786 1.524 . S
C1790 H1802 0.956 . S
C1790 H1803 0.961 . S
C1790 H1804 0.961 . S
C1791 C1788 1.539 . S
C1791 H1805 0.958 . S
C1791 H1806 0.961 . S
C1791 H1807 0.960 . S
H1792 C1776 0.931 . S
H1793 C1781 0.929 . S
H1794 C1782 0.960 . S
H1795 C1782 0.962 . S
H1796 C1782 0.960 . S
H1797 C1783 0.961 . S
H1798 C1783 0.961 . S
H1799 C1783 0.961 . S
H1800 C1784 0.931 . S
H1801 C1789 0.930 . S
H1802 C1790 0.956 . S
H1803 C1790 0.961 . S
H1804 C1790 0.961 . S
H1805 C1791 0.958 . S
H1806 C1791 0.961 . S
H1807 C1791 0.960 . S
C1808 C1809 1.391 . S
C1808 C1810 1.394 . S
C1808 H1824 0.931 . S
C1809 C1808 1.391 . S
C1809 C1813 1.376 . S
C1810 C1808 1.394 . S
C1810 C1811 1.369 . S
C1810 C1814 1.531 . S
C1811 C1810 1.369 . S
C1811 C1812 1.410 . S
C1811 C1819 1.503 . S
C1812 C1811 1.410 . S
C1812 C1813 1.392 . S
C1812 C1815 1.511 . S
C1813 C1809 1.376 . S
C1813 C1812 1.392 . S
C1813 H1825 0.929 . S
C1814 C1810 1.531 . S
C1814 H1826 0.960 . S
C1814 H1827 0.962 . S
C1814 H1828 0.960 . S
C1815 C1812 1.511 . S
C1815 H1829 0.961 . S
C1815 H1830 0.961 . S
C1815 H1831 0.961 . S
C1816 C1817 1.370 . S
C1816 C1818 1.363 . S
C1816 H1832 0.931 . S
C1817 C1816 1.370 . S
C1817 C1821 1.408 . S
C1818 C1816 1.363 . S
C1818 C1819 1.370 . S
C1818 C1822 1.524 . S
C1819 C1811 1.503 . S
C1819 C1818 1.370 . S
C1819 C1820 1.403 . S
C1820 C1819 1.403 . S
C1820 C1821 1.404 . S
C1820 C1823 1.539 . S
C1821 C1817 1.408 . S
C1821 C1820 1.404 . S
C1821 H1833 0.930 . S
C1822 C1818 1.524 . S
C1822 H1834 0.956 . S
C1822 H1835 0.961 . S
C1822 H1836 0.961 . S
C1823 C1820 1.539 . S
C1823 H1837 0.958 . S
C1823 H1838 0.961 . S
C1823 H1839 0.960 . S
H1824 C1808 0.931 . S
H1825 C1813 0.929 . S
H1826 C1814 0.960 . S
H1827 C1814 0.962 . S
H1828 C1814 0.960 . S
H1829 C1815 0.961 . S
H1830 C1815 0.961 . S
H1831 C1815 0.961 . S
H1832 C1816 0.931 . S
H1833 C1821 0.930 . S
H1834 C1822 0.956 . S
H1835 C1822 0.961 . S
H1836 C1822 0.961 . S
H1837 C1823 0.958 . S
H1838 C1823 0.961 . S
H1839 C1823 0.960 . S
C1840 C1841 1.391 . S
C1840 C1842 1.394 . S
C1840 H1856 0.931 . S
C1841 C1840 1.391 . S
C1841 C1845 1.376 . S
C1842 C1840 1.394 . S
C1842 C1843 1.369 . S
C1842 C1846 1.531 . S
C1843 C1842 1.369 . S
C1843 C1844 1.410 . S
C1843 C1851 1.503 . S
C1844 C1843 1.410 . S
C1844 C1845 1.392 . S
C1844 C1847 1.511 . S
C1845 C1841 1.376 . S
C1845 C1844 1.392 . S
C1845 H1857 0.929 . S
C1846 C1842 1.531 . S
C1846 H1858 0.960 . S
C1846 H1859 0.962 . S
C1846 H1860 0.960 . S
C1847 C1844 1.511 . S
C1847 H1861 0.961 . S
C1847 H1862 0.961 . S
C1847 H1863 0.961 . S
C1848 C1849 1.370 . S
C1848 C1850 1.363 . S
C1848 H1864 0.931 . S
C1849 C1848 1.370 . S
C1849 C1853 1.408 . S
C1850 C1848 1.363 . S
C1850 C1851 1.370 . S
C1850 C1854 1.524 . S
C1851 C1843 1.503 . S
C1851 C1850 1.370 . S
C1851 C1852 1.403 . S
C1852 C1851 1.403 . S
C1852 C1853 1.404 . S
C1852 C1855 1.539 . S
C1853 C1849 1.408 . S
C1853 C1852 1.404 . S
C1853 H1865 0.930 . S
C1854 C1850 1.524 . S
C1854 H1866 0.956 . S
C1854 H1867 0.961 . S
C1854 H1868 0.961 . S
C1855 C1852 1.539 . S
C1855 H1869 0.958 . S
C1855 H1870 0.961 . S
C1855 H1871 0.960 . S
H1856 C1840 0.931 . S
H1857 C1845 0.929 . S
H1858 C1846 0.960 . S
H1859 C1846 0.962 . S
H1860 C1846 0.960 . S
H1861 C1847 0.961 . S
H1862 C1847 0.961 . S
H1863 C1847 0.961 . S
H1864 C1848 0.931 . S
H1865 C1853 0.930 . S
H1866 C1854 0.956 . S
H1867 C1854 0.961 . S
H1868 C1854 0.961 . S
H1869 C1855 0.958 . S
H1870 C1855 0.961 . S
H1871 C1855 0.960 . S
C1872 C1873 1.391 . S
C1872 C1874 1.394 . S
C1872 H1888 0.931 . S
C1873 C1872 1.391 . S
C1873 C1877 1.376 . S
C1874 C1872 1.394 . S
C1874 C1875 1.369 . S
C1874 C1878 1.531 . S
C1875 C1874 1.369 . S
C1875 C1876 1.410 . S
C1875 C1883 1.503 . S
C1876 C1875 1.410 . S
C1876 C1877 1.392 . S
C1876 C1879 1.511 . S
C1877 C1873 1.376 . S
C1877 C1876 1.392 . S
C1877 H1889 0.929 . S
C1878 C1874 1.531 . S
C1878 H1890 0.960 . S
C1878 H1891 0.962 . S
C1878 H1892 0.960 . S
C1879 C1876 1.511 . S
C1879 H1893 0.961 . S
C1879 H1894 0.961 . S
C1879 H1895 0.961 . S
C1880 C1881 1.370 . S
C1880 C1882 1.363 . S
C1880 H1896 0.931 . S
C1881 C1880 1.370 . S
C1881 C1885 1.408 . S
C1882 C1880 1.363 . S
C1882 C1883 1.370 . S
C1882 C1886 1.524 . S
C1883 C1875 1.503 . S
C1883 C1882 1.370 . S
C1883 C1884 1.403 . S
C1884 C1883 1.403 . S
C1884 C1885 1.404 . S
C1884 C1887 1.539 . S
C1885 C1881 1.408 . S
C1885 C1884 1.404 . S
C1885 H1897 0.930 . S
C1886 C1882 1.524 . S
C1886 H1898 0.956 . S
C1886 H1899 0.961 . S
C1886 H1900 0.961 . S
C1887 C1884 1.539 . S
C1887 H1901 0.958 . S
C1887 H1902 0.961 . S
C1887 H1903 0.960 . S
H1888 C1872 0.931 . S
H1889 C1877 0.929 . S
H1890 C1878 0.960 . S
H1891 C1878 0.962 . S
H1892 C1878 0.960 . S
H1893 C1879 0.961 . S
H1894 C1879 0.961 . S
H1895 C1879 0.961 . S
H1896 C1880 0.931 . S
H1897 C1885 0.930 . S
H1898 C1886 0.956 . S
H1899 C1886 0.961 . S
H1900 C1886 0.961 . S
H1901 C1887 0.958 . S
H1902 C1887 0.961 . S
H1903 C1887 0.960 . S
C1904 C1905 1.391 . S
C1904 C1906 1.394 . S
C1904 H1920 0.931 . S
C1905 C1904 1.391 . S
C1905 C1909 1.376 . S
C1906 C1904 1.394 . S
C1906 C1907 1.369 . S
C1906 C1910 1.531 . S
C1907 C1906 1.369 . S
C1907 C1908 1.410 . S
C1907 C1915 1.503 . S
C1908 C1907 1.410 . S
C1908 C1909 1.392 . S
C1908 C1911 1.511 . S
C1909 C1905 1.376 . S
C1909 C1908 1.392 . S
C1909 H1921 0.929 . S
C1910 C1906 1.531 . S
C1910 H1922 0.960 . S
C1910 H1923 0.962 . S
C1910 H1924 0.960 . S
C1911 C1908 1.511 . S
C1911 H1925 0.961 . S
C1911 H1926 0.961 . S
C1911 H1927 0.961 . S
C1912 C1913 1.370 . S
C1912 C1914 1.363 . S
C1912 H1928 0.931 . S
C1913 C1912 1.370 . S
C1913 C1917 1.408 . S
C1914 C1912 1.363 . S
C1914 C1915 1.370 . S
C1914 C1918 1.524 . S
C1915 C1907 1.503 . S
C1915 C1914 1.370 . S
C1915 C1916 1.403 . S
C1916 C1915 1.403 . S
C1916 C1917 1.404 . S
C1916 C1919 1.539 . S
C1917 C1913 1.408 . S
C1917 C1916 1.404 . S
C1917 H1929 0.930 . S
C1918 C1914 1.524 . S
C1918 H1930 0.956 . S
C1918 H1931 0.961 . S
C1918 H1932 0.961 . S
C1919 C1916 1.539 . S
C1919 H1933 0.958 . S
C1919 H1934 0.961 . S
C1919 H1935 0.960 . S
H1920 C1904 0.931 . S
H1921 C1909 0.929 . S
H1922 C1910 0.960 . S
H1923 C1910 0.962 . S
H1924 C1910 0.960 . S
H1925 C1911 0.961 . S
H1926 C1911 0.961 . S
H1927 C1911 0.961 . S
H1928 C1912 0.931 . S
H1929 C1917 0.930 . S
H1930 C1918 0.956 . S
H1931 C1918 0.961 . S
H1932 C1918 0.961 . S
H1933 C1919 0.958 . S
H1934 C1919 0.961 . S
H1935 C1919 0.960 . S
C1936 C1937 1.391 . S
C1936 C1938 1.394 . S
C1936 H1952 0.931 . S
C1937 C1936 1.391 . S
C1937 C1941 1.376 . S
C1938 C1936 1.394 . S
C1938 C1939 1.369 . S
C1938 C1942 1.531 . S
C1939 C1938 1.369 . S
C1939 C1940 1.410 . S
C1939 C1947 1.503 . S
C1940 C1939 1.410 . S
C1940 C1941 1.392 . S
C1940 C1943 1.511 . S
C1941 C1937 1.376 . S
C1941 C1940 1.392 . S
C1941 H1953 0.929 . S
C1942 C1938 1.531 . S
C1942 H1954 0.960 . S
C1942 H1955 0.962 . S
C1942 H1956 0.960 . S
C1943 C1940 1.511 . S
C1943 H1957 0.961 . S
C1943 H1958 0.961 . S
C1943 H1959 0.961 . S
C1944 C1945 1.370 . S
C1944 C1946 1.363 . S
C1944 H1960 0.931 1_556 S
C1945 C1944 1.370 . S
C1945 C1949 1.408 . S
C1946 C1944 1.363 . S
C1946 C1947 1.370 . S
C1946 C1950 1.524 . S
C1947 C1939 1.503 . S
C1947 C1946 1.370 . S
C1947 C1948 1.403 . S
C1948 C1947 1.403 . S
C1948 C1949 1.404 . S
C1948 C1951 1.539 . S
C1949 C1945 1.408 . S
C1949 C1948 1.404 . S
C1949 H1961 0.930 . S
C1950 C1946 1.524 . S
C1950 H1962 0.956 . S
C1950 H1963 0.961 . S
C1950 H1964 0.961 1_556 S
C1951 C1948 1.539 . S
C1951 H1965 0.958 . S
C1951 H1966 0.961 . S
C1951 H1967 0.960 . S
H1952 C1936 0.931 . S
H1953 C1941 0.929 . S
H1954 C1942 0.960 . S
H1955 C1942 0.962 . S
H1956 C1942 0.960 . S
H1957 C1943 0.961 . S
H1958 C1943 0.961 . S
H1959 C1943 0.961 . S
H1960 C1944 0.931 1_554 S
H1961 C1949 0.930 . S
H1962 C1950 0.956 . S
H1963 C1950 0.961 . S
H1964 C1950 0.961 1_554 S
H1965 C1951 0.958 . S
H1966 C1951 0.961 . S
H1967 C1951 0.960 . S
C1968 C1969 1.391 . S
C1968 C1970 1.394 . S
C1968 H1984 0.931 . S
C1969 C1968 1.391 . S
C1969 C1973 1.376 . S
C1970 C1968 1.394 . S
C1970 C1971 1.369 . S
C1970 C1974 1.531 . S
C1971 C1970 1.369 . S
C1971 C1972 1.410 . S
C1971 C1979 1.503 . S
C1972 C1971 1.410 . S
C1972 C1973 1.392 . S
C1972 C1975 1.511 . S
C1973 C1969 1.376 . S
C1973 C1972 1.392 . S
C1973 H1985 0.929 . S
C1974 C1970 1.531 . S
C1974 H1986 0.960 . S
C1974 H1987 0.962 . S
C1974 H1988 0.960 . S
C1975 C1972 1.511 . S
C1975 H1989 0.961 . S
C1975 H1990 0.961 . S
C1975 H1991 0.961 . S
C1976 C1977 1.370 . S
C1976 C1978 1.363 . S
C1976 H1992 0.931 . S
C1977 C1976 1.370 . S
C1977 C1981 1.408 . S
C1978 C1976 1.363 . S
C1978 C1979 1.370 . S
C1978 C1982 1.524 . S
C1979 C1971 1.503 . S
C1979 C1978 1.370 . S
C1979 C1980 1.403 . S
C1980 C1979 1.403 . S
C1980 C1981 1.404 . S
C1980 C1983 1.539 . S
C1981 C1977 1.408 . S
C1981 C1980 1.404 . S
C1981 H1993 0.930 . S
C1982 C1978 1.524 . S
C1982 H1994 0.956 . S
C1982 H1995 0.961 . S
C1982 H1996 0.961 . S
C1983 C1980 1.539 . S
C1983 H1997 0.958 . S
C1983 H1998 0.961 . S
C1983 H1999 0.960 . S
H1984 C1968 0.931 . S
H1985 C1973 0.929 . S
H1986 C1974 0.960 . S
H1987 C1974 0.962 . S
H1988 C1974 0.960 . S
H1989 C1975 0.961 . S
H1990 C1975 0.961 . S
H1991 C1975 0.961 . S
H1992 C1976 0.931 . S
H1993 C1981 0.930 . S
H1994 C1982 0.956 . S
H1995 C1982 0.961 . S
H1996 C1982 0.961 . S
H1997 C1983 0.958 . S
H1998 C1983 0.961 . S
H1999 C1983 0.960 . S
C2000 C2001 1.391 1_565 S
C2000 C2002 1.394 . S
C2000 H2016 0.931 . S
C2001 C2000 1.391 1_545 S
C2001 C2005 1.376 . S
C2002 C2000 1.394 . S
C2002 C2003 1.369 1_565 S
C2002 C2006 1.531 . S
C2003 C2002 1.369 1_545 S
C2003 C2004 1.410 . S
C2003 C2011 1.503 . S
C2004 C2003 1.410 . S
C2004 C2005 1.392 . S
C2004 C2007 1.511 . S
C2005 C2001 1.376 . S
C2005 C2004 1.392 . S
C2005 H2017 0.929 . S
C2006 C2002 1.531 . S
C2006 H2018 0.960 . S
C2006 H2019 0.962 . S
C2006 H2020 0.960 . S
C2007 C2004 1.511 . S
C2007 H2021 0.961 . S
C2007 H2022 0.961 . S
C2007 H2023 0.961 . S
C2008 C2009 1.370 . S
C2008 C2010 1.363 . S
C2008 H2024 0.931 . S
C2009 C2008 1.370 . S
C2009 C2013 1.408 1_545 S
C2010 C2008 1.363 . S
C2010 C2011 1.370 . S
C2010 C2014 1.524 . S
C2011 C2003 1.503 . S
C2011 C2010 1.370 . S
C2011 C2012 1.403 1_545 S
C2012 C2011 1.403 1_565 S
C2012 C2013 1.404 . S
C2012 C2015 1.539 . S
C2013 C2009 1.408 1_565 S
C2013 C2012 1.404 . S
C2013 H2025 0.930 . S
C2014 C2010 1.524 . S
C2014 H2026 0.956 . S
C2014 H2027 0.961 . S
C2014 H2028 0.961 . S
C2015 C2012 1.539 . S
C2015 H2029 0.958 . S
C2015 H2030 0.961 . S
C2015 H2031 0.960 . S
H2016 C2000 0.931 . S
H2017 C2005 0.929 . S
H2018 C2006 0.960 . S
H2019 C2006 0.962 . S
H2020 C2006 0.960 . S
H2021 C2007 0.961 . S
H2022 C2007 0.961 . S
H2023 C2007 0.961 . S
H2024 C2008 0.931 . S
H2025 C2013 0.930 . S
H2026 C2014 0.956 . S
H2027 C2014 0.961 . S
H2028 C2014 0.961 . S
H2029 C2015 0.958 . S
H2030 C2015 0.961 . S
H2031 C2015 0.960 . S
C2032 C2033 1.391 . S
C2032 C2034 1.394 . S
C2032 H2048 0.931 . S
C2033 C2032 1.391 . S
C2033 C2037 1.376 . S
C2034 C2032 1.394 . S
C2034 C2035 1.369 . S
C2034 C2038 1.531 . S
C2035 C2034 1.369 . S
C2035 C2036 1.410 . S
C2035 C2043 1.503 . S
C2036 C2035 1.410 . S
C2036 C2037 1.392 . S
C2036 C2039 1.511 . S
C2037 C2033 1.376 . S
C2037 C2036 1.392 . S
C2037 H2049 0.929 . S
C2038 C2034 1.531 . S
C2038 H2050 0.960 . S
C2038 H2051 0.962 . S
C2038 H2052 0.960 . S
C2039 C2036 1.511 . S
C2039 H2053 0.961 . S
C2039 H2054 0.961 . S
C2039 H2055 0.961 . S
C2040 C2041 1.370 . S
C2040 C2042 1.363 . S
C2040 H2056 0.931 . S
C2041 C2040 1.370 . S
C2041 C2045 1.408 . S
C2042 C2040 1.363 . S
C2042 C2043 1.370 . S
C2042 C2046 1.524 . S
C2043 C2035 1.503 . S
C2043 C2042 1.370 . S
C2043 C2044 1.403 . S
C2044 C2043 1.403 . S
C2044 C2045 1.404 . S
C2044 C2047 1.539 . S
C2045 C2041 1.408 . S
C2045 C2044 1.404 . S
C2045 H2057 0.930 . S
C2046 C2042 1.524 . S
C2046 H2058 0.956 . S
C2046 H2059 0.961 . S
C2046 H2060 0.961 . S
C2047 C2044 1.539 . S
C2047 H2061 0.958 . S
C2047 H2062 0.961 . S
C2047 H2063 0.960 . S
H2048 C2032 0.931 . S
H2049 C2037 0.929 . S
H2050 C2038 0.960 . S
H2051 C2038 0.962 . S
H2052 C2038 0.960 . S
H2053 C2039 0.961 . S
H2054 C2039 0.961 . S
H2055 C2039 0.961 . S
H2056 C2040 0.931 . S
H2057 C2045 0.930 . S
H2058 C2046 0.956 . S
H2059 C2046 0.961 . S
H2060 C2046 0.961 . S
H2061 C2047 0.958 . S
H2062 C2047 0.961 . S
H2063 C2047 0.960 . S
C2064 C2065 1.391 . S
C2064 C2066 1.394 . S
C2064 H2080 0.939 . S
C2065 C2064 1.391 . S
C2065 C2069 1.376 . S
C2066 C2064 1.394 . S
C2066 C2067 1.369 . S
C2066 C2070 1.531 . S
C2067 C2066 1.369 . S
C2067 C2068 1.410 . S
C2067 C2075 1.503 . S
C2068 C2067 1.410 . S
C2068 C2069 1.392 . S
C2068 C2071 1.511 . S
C2069 C2065 1.376 . S
C2069 C2068 1.392 . S
C2069 H2081 0.929 . S
C2070 C2066 1.531 . S
C2070 H2082 0.960 . S
C2070 H2083 0.962 1_545 S
C2070 H2084 0.960 . S
C2071 C2068 1.511 . S
C2071 H2085 0.961 . S
C2071 H2086 0.961 . S
C2071 H2087 0.961 . S
C2072 C2073 1.370 . S
C2072 C2074 1.363 . S
C2072 H2088 0.931 1_545 S
C2073 C2072 1.370 . S
C2073 C2077 1.408 . S
C2074 C2072 1.363 . S
C2074 C2075 1.370 . S
C2074 C2078 1.524 1_545 S
C2075 C2067 1.503 . S
C2075 C2074 1.370 . S
C2075 C2076 1.403 . S
C2076 C2075 1.403 . S
C2076 C2077 1.404 . S
C2076 C2079 1.539 . S
C2077 C2073 1.408 . S
C2077 C2076 1.404 . S
C2077 H2089 0.930 . S
C2078 C2074 1.524 1_565 S
C2078 H2090 0.956 . S
C2078 H2091 0.961 . S
C2078 H2092 0.961 . S
C2079 C2076 1.539 . S
C2079 H2093 0.958 . S
C2079 H2094 0.961 . S
C2079 H2095 0.960 . S
H2080 C2064 0.939 . S
H2081 C2069 0.929 . S
H2082 C2070 0.960 . S
H2083 C2070 0.962 1_565 S
H2084 C2070 0.960 . S
H2085 C2071 0.961 . S
H2086 C2071 0.961 . S
H2087 C2071 0.961 . S
H2088 C2072 0.931 1_565 S
H2089 C2077 0.930 . S
H2090 C2078 0.956 . S
H2091 C2078 0.961 . S
H2092 C2078 0.961 . S
H2093 C2079 0.958 . S
H2094 C2079 0.961 . S
H2095 C2079 0.960 . S
C2096 C2097 1.391 . S
C2096 C2098 1.394 . S
C2096 H2112 0.931 . S
C2097 C2096 1.391 . S
C2097 C2101 1.376 . S
C2098 C2096 1.394 . S
C2098 C2099 1.369 . S
C2098 C2102 1.531 . S
C2099 C2098 1.369 . S
C2099 C2100 1.410 . S
C2099 C2107 1.503 . S
C2100 C2099 1.410 . S
C2100 C2101 1.392 . S
C2100 C2103 1.511 . S
C2101 C2097 1.376 . S
C2101 C2100 1.392 . S
C2101 H2113 0.929 . S
C2102 C2098 1.531 . S
C2102 H2114 0.960 . S
C2102 H2115 0.962 . S
C2102 H2116 0.960 . S
C2103 C2100 1.511 . S
C2103 H2117 0.961 . S
C2103 H2118 0.961 . S
C2103 H2119 0.961 . S
C2104 C2105 1.370 . S
C2104 C2106 1.363 . S
C2104 H2120 0.931 . S
C2105 C2104 1.370 . S
C2105 C2109 1.408 . S
C2106 C2104 1.363 . S
C2106 C2107 1.370 . S
C2106 C2110 1.524 . S
C2107 C2099 1.503 . S
C2107 C2106 1.370 . S
C2107 C2108 1.403 . S
C2108 C2107 1.403 . S
C2108 C2109 1.404 . S
C2108 C2111 1.539 . S
C2109 C2105 1.408 . S
C2109 C2108 1.404 . S
C2109 H2121 0.930 . S
C2110 C2106 1.524 . S
C2110 H2122 0.956 . S
C2110 H2123 0.961 . S
C2110 H2124 0.961 . S
C2111 C2108 1.539 . S
C2111 H2125 0.958 . S
C2111 H2126 0.961 . S
C2111 H2127 0.960 . S
H2112 C2096 0.931 . S
H2113 C2101 0.929 . S
H2114 C2102 0.960 . S
H2115 C2102 0.962 . S
H2116 C2102 0.960 . S
H2117 C2103 0.961 . S
H2118 C2103 0.961 . S
H2119 C2103 0.961 . S
H2120 C2104 0.931 . S
H2121 C2109 0.930 . S
H2122 C2110 0.956 . S
H2123 C2110 0.961 . S
H2124 C2110 0.961 . S
H2125 C2111 0.958 . S
H2126 C2111 0.961 . S
H2127 C2111 0.960 . S
C2128 C2129 1.379 1_545 S
C2128 C2130 1.394 . S
C2128 H2144 0.931 . S
C2129 C2128 1.379 1_565 S
C2129 C2133 1.380 . S
C2130 C2128 1.394 . S
C2130 C2131 1.369 . S
C2130 C2134 1.531 . S
C2131 C2130 1.369 . S
C2131 C2132 1.410 1_545 S
C2131 C2139 1.503 . S
C2132 C2131 1.410 1_565 S
C2132 C2133 1.392 . S
C2132 C2135 1.511 . S
C2133 C2129 1.380 . S
C2133 C2132 1.392 . S
C2133 H2145 0.929 . S
C2134 C2130 1.531 . S
C2134 H2146 0.960 . S
C2134 H2147 0.962 . S
C2134 H2148 0.960 . S
C2135 C2132 1.511 . S
C2135 H2149 0.961 . S
C2135 H2150 0.961 . S
C2135 H2151 0.961 . S
C2136 C2137 1.370 . S
C2136 C2138 1.363 . S
C2136 H2152 0.930 1_545 S
C2137 C2136 1.370 . S
C2137 C2141 1.408 . S
C2138 C2136 1.363 . S
C2138 C2139 1.370 . S
C2138 C2142 1.524 1_545 S
C2139 C2131 1.503 . S
C2139 C2138 1.370 . S
C2139 C2140 1.403 . S
C2140 C2139 1.403 . S
C2140 C2141 1.404 . S
C2140 C2143 1.539 . S
C2141 C2137 1.408 . S
C2141 C2140 1.404 . S
C2141 H2153 0.930 . S
C2142 C2138 1.524 1_565 S
C2142 H2154 0.956 . S
C2142 H2155 0.961 . S
C2142 H2156 0.961 . S
C2143 C2140 1.539 . S
C2143 H2157 0.958 . S
C2143 H2158 0.961 . S
C2143 H2159 0.960 . S
H2144 C2128 0.931 . S
H2145 C2133 0.929 . S
H2146 C2134 0.960 . S
H2147 C2134 0.962 . S
H2148 C2134 0.960 . S
H2149 C2135 0.961 . S
H2150 C2135 0.961 . S
H2151 C2135 0.961 . S
H2152 C2136 0.930 1_565 S
H2153 C2141 0.930 . S
H2154 C2142 0.956 . S
H2155 C2142 0.961 . S
H2156 C2142 0.961 . S
H2157 C2143 0.958 . S
H2158 C2143 0.961 . S
H2159 C2143 0.960 . S
C2160 C2161 1.391 . S
C2160 C2162 1.394 . S
C2160 H2176 0.931 . S
C2161 C2160 1.391 . S
C2161 C2165 1.376 . S
C2162 C2160 1.394 . S
C2162 C2163 1.369 . S
C2162 C2166 1.531 . S
C2163 C2162 1.369 . S
C2163 C2164 1.410 . S
C2163 C2171 1.503 . S
C2164 C2163 1.410 . S
C2164 C2165 1.392 . S
C2164 C2167 1.511 . S
C2165 C2161 1.376 . S
C2165 C2164 1.392 . S
C2165 H2177 0.929 . S
C2166 C2162 1.531 . S
C2166 H2178 0.960 . S
C2166 H2179 0.962 . S
C2166 H2180 0.960 . S
C2167 C2164 1.511 . S
C2167 H2181 0.961 . S
C2167 H2182 0.961 . S
C2167 H2183 0.961 . S
C2168 C2169 1.370 . S
C2168 C2170 1.363 . S
C2168 H2184 0.931 . S
C2169 C2168 1.370 . S
C2169 C2173 1.408 . S
C2170 C2168 1.363 . S
C2170 C2171 1.370 . S
C2170 C2174 1.524 . S
C2171 C2163 1.503 . S
C2171 C2170 1.370 . S
C2171 C2172 1.403 . S
C2172 C2171 1.403 . S
C2172 C2173 1.404 . S
C2172 C2175 1.539 . S
C2173 C2169 1.408 . S
C2173 C2172 1.404 . S
C2173 H2185 0.930 . S
C2174 C2170 1.524 . S
C2174 H2186 0.956 . S
C2174 H2187 0.961 . S
C2174 H2188 0.961 . S
C2175 C2172 1.539 . S
C2175 H2189 0.958 . S
C2175 H2190 0.961 . S
C2175 H2191 0.960 . S
H2176 C2160 0.931 . S
H2177 C2165 0.929 . S
H2178 C2166 0.960 . S
H2179 C2166 0.962 . S
H2180 C2166 0.960 . S
H2181 C2167 0.961 . S
H2182 C2167 0.961 . S
H2183 C2167 0.961 . S
H2184 C2168 0.931 . S
H2185 C2173 0.930 . S
H2186 C2174 0.956 . S
H2187 C2174 0.961 . S
H2188 C2174 0.961 . S
H2189 C2175 0.958 . S
H2190 C2175 0.961 . S
H2191 C2175 0.960 . S
C2192 C2193 1.391 . S
C2192 C2194 1.394 . S
C2192 H2208 0.931 1_565 S
C2193 C2192 1.391 . S
C2193 C2197 1.376 . S
C2194 C2192 1.394 . S
C2194 C2195 1.369 . S
C2194 C2198 1.531 . S
C2195 C2194 1.369 . S
C2195 C2196 1.410 . S
C2195 C2203 1.503 . S
C2196 C2195 1.410 . S
C2196 C2197 1.392 . S
C2196 C2199 1.511 . S
C2197 C2193 1.376 . S
C2197 C2196 1.392 . S
C2197 H2209 0.929 . S
C2198 C2194 1.531 . S
C2198 H2210 0.960 . S
C2198 H2211 0.962 1_565 S
C2198 H2212 0.960 . S
C2199 C2196 1.511 . S
C2199 H2213 0.961 . S
C2199 H2214 0.961 . S
C2199 H2215 0.961 . S
C2200 C2201 1.370 . S
C2200 C2202 1.363 1_565 S
C2200 H2216 0.931 1_565 S
C2201 C2200 1.370 . S
C2201 C2205 1.408 . S
C2202 C2200 1.363 1_545 S
C2202 C2203 1.364 1_545 S
C2202 C2206 1.531 . S
C2203 C2195 1.503 . S
C2203 C2202 1.364 1_565 S
C2203 C2204 1.403 . S
C2204 C2203 1.403 . S
C2204 C2205 1.404 . S
C2204 C2207 1.539 . S
C2205 C2201 1.408 . S
C2205 C2204 1.404 . S
C2205 H2217 0.930 . S
C2206 C2202 1.531 . S
C2206 H2218 0.956 . S
C2206 H2219 0.961 . S
C2206 H2220 0.961 . S
C2207 C2204 1.539 . S
C2207 H2221 0.958 . S
C2207 H2222 0.961 . S
C2207 H2223 0.960 . S
H2208 C2192 0.931 1_545 S
H2209 C2197 0.929 . S
H2210 C2198 0.960 . S
H2211 C2198 0.962 1_545 S
H2212 C2198 0.960 . S
H2213 C2199 0.961 . S
H2214 C2199 0.961 . S
H2215 C2199 0.961 . S
H2216 C2200 0.931 1_545 S
H2217 C2205 0.930 . S
H2218 C2206 0.956 . S
H2219 C2206 0.961 . S
H2220 C2206 0.961 . S
H2221 C2207 0.958 . S
H2222 C2207 0.961 . S
H2223 C2207 0.960 . S
C2224 C2225 1.391 . S
C2224 C2226 1.394 . S
C2224 H2240 0.931 . S
C2225 C2224 1.391 . S
C2225 C2229 1.376 . S
C2226 C2224 1.394 . S
C2226 C2227 1.369 . S
C2226 C2230 1.531 . S
C2227 C2226 1.369 . S
C2227 C2228 1.410 . S
C2227 C2235 1.503 . S
C2228 C2227 1.410 . S
C2228 C2229 1.392 . S
C2228 C2231 1.511 . S
C2229 C2225 1.376 . S
C2229 C2228 1.392 . S
C2229 H2241 0.929 . S
C2230 C2226 1.531 . S
C2230 H2242 0.960 . S
C2230 H2243 0.962 . S
C2230 H2244 0.960 . S
C2231 C2228 1.511 . S
C2231 H2245 0.961 . S
C2231 H2246 0.961 . S
C2231 H2247 0.961 . S
C2232 C2233 1.370 . S
C2232 C2234 1.363 . S
C2232 H2248 0.931 . S
C2233 C2232 1.370 . S
C2233 C2237 1.408 . S
C2234 C2232 1.363 . S
C2234 C2235 1.370 . S
C2234 C2238 1.524 . S
C2235 C2227 1.503 . S
C2235 C2234 1.370 . S
C2235 C2236 1.403 . S
C2236 C2235 1.403 . S
C2236 C2237 1.404 . S
C2236 C2239 1.539 . S
C2237 C2233 1.408 . S
C2237 C2236 1.404 . S
C2237 H2249 0.930 . S
C2238 C2234 1.524 . S
C2238 H2250 0.956 . S
C2238 H2251 0.961 . S
C2238 H2252 0.961 . S
C2239 C2236 1.539 . S
C2239 H2253 0.958 . S
C2239 H2254 0.961 . S
C2239 H2255 0.960 . S
H2240 C2224 0.931 . S
H2241 C2229 0.929 . S
H2242 C2230 0.960 . S
H2243 C2230 0.962 . S
H2244 C2230 0.960 . S
H2245 C2231 0.961 . S
H2246 C2231 0.961 . S
H2247 C2231 0.961 . S
H2248 C2232 0.931 . S
H2249 C2237 0.930 . S
H2250 C2238 0.956 . S
H2251 C2238 0.961 . S
H2252 C2238 0.961 . S
H2253 C2239 0.958 . S
H2254 C2239 0.961 . S
H2255 C2239 0.960 . S
C2256 C2257 1.391 1_556 S
C2256 C2258 1.394 . S
C2256 H2272 0.931 . S
C2257 C2256 1.391 1_554 S
C2257 C2261 1.376 . S
C2258 C2256 1.394 . S
C2258 C2259 1.369 . S
C2258 C2262 1.531 . S
C2259 C2258 1.369 . S
C2259 C2260 1.410 1_556 S
C2259 C2267 1.503 . S
C2260 C2259 1.410 1_554 S
C2260 C2261 1.392 . S
C2260 C2263 1.511 . S
C2261 C2257 1.376 . S
C2261 C2260 1.392 . S
C2261 H2273 0.929 . S
C2262 C2258 1.531 . S
C2262 H2274 0.960 . S
C2262 H2275 0.962 . S
C2262 H2276 0.960 . S
C2263 C2260 1.511 . S
C2263 H2277 0.961 . S
C2263 H2278 0.961 . S
C2263 H2279 0.961 . S
C2264 C2265 1.370 . S
C2264 C2266 1.363 . S
C2264 H2280 0.931 . S
C2265 C2264 1.370 . S
C2265 C2269 1.408 . S
C2266 C2264 1.363 . S
C2266 C2267 1.370 . S
C2266 C2270 1.524 1_556 S
C2267 C2259 1.503 . S
C2267 C2266 1.370 . S
C2267 C2268 1.403 . S
C2268 C2267 1.403 . S
C2268 C2269 1.404 . S
C2268 C2271 1.539 . S
C2269 C2265 1.408 . S
C2269 C2268 1.404 . S
C2269 H2281 0.930 . S
C2270 C2266 1.524 1_554 S
C2270 H2282 0.956 1_554 S
C2270 H2283 0.961 . S
C2270 H2284 0.961 . S
C2271 C2268 1.539 . S
C2271 H2285 0.958 . S
C2271 H2286 0.961 . S
C2271 H2287 0.960 . S
H2272 C2256 0.931 . S
H2273 C2261 0.929 . S
H2274 C2262 0.960 . S
H2275 C2262 0.962 . S
H2276 C2262 0.960 . S
H2277 C2263 0.961 . S
H2278 C2263 0.961 . S
H2279 C2263 0.961 . S
H2280 C2264 0.931 . S
H2281 C2269 0.930 . S
H2282 C2270 0.956 1_556 S
H2283 C2270 0.961 . S
H2284 C2270 0.961 . S
H2285 C2271 0.958 . S
H2286 C2271 0.961 . S
H2287 C2271 0.960 . S
C2288 C2289 1.391 . S
C2288 C2290 1.394 . S
C2288 H2304 0.931 1_554 S
C2289 C2288 1.391 . S
C2289 C2293 1.376 . S
C2290 C2288 1.394 . S
C2290 C2291 1.369 . S
C2290 C2294 1.531 1_554 S
C2291 C2290 1.369 . S
C2291 C2292 1.410 . S
C2291 C2299 1.503 . S
C2292 C2291 1.410 . S
C2292 C2293 1.392 . S
C2292 C2295 1.511 . S
C2293 C2289 1.376 . S
C2293 C2292 1.392 . S
C2293 H2305 0.929 . S
C2294 C2290 1.531 1_556 S
C2294 H2306 0.960 . S
C2294 H2307 0.962 . S
C2294 H2308 0.960 . S
C2295 C2292 1.511 . S
C2295 H2309 0.961 . S
C2295 H2310 0.961 . S
C2295 H2311 0.961 . S
C2296 C2297 1.370 . S
C2296 C2298 1.363 . S
C2296 H2312 0.931 . S
C2297 C2296 1.370 . S
C2297 C2301 1.408 . S
C2298 C2296 1.363 . S
C2298 C2299 1.370 . S
C2298 C2302 1.524 . S
C2299 C2291 1.503 . S
C2299 C2298 1.370 . S
C2299 C2300 1.403 . S
C2300 C2299 1.403 . S
C2300 C2301 1.404 . S
C2300 C2303 1.552 . S
C2301 C2297 1.408 . S
C2301 C2300 1.404 . S
C2301 H2313 0.930 . S
C2302 C2298 1.524 . S
C2302 H2314 0.956 . S
C2302 H2315 0.961 . S
C2302 H2316 0.961 . S
C2303 C2300 1.552 . S
C2303 H2317 0.927 1_554 S
C2303 H2318 0.960 . S
C2303 H2319 0.981 . S
H2304 C2288 0.931 1_556 S
H2305 C2293 0.929 . S
H2306 C2294 0.960 . S
H2307 C2294 0.962 . S
H2308 C2294 0.960 . S
H2309 C2295 0.961 . S
H2310 C2295 0.961 . S
H2311 C2295 0.961 . S
H2312 C2296 0.931 . S
H2313 C2301 0.930 . S
H2314 C2302 0.956 . S
H2315 C2302 0.961 . S
H2316 C2302 0.961 . S
H2317 C2303 0.927 1_556 S
H2318 C2303 0.960 . S
H2319 C2303 0.981 . S
C2320 C2321 1.391 . S
C2320 C2322 1.394 . S
C2320 H2336 0.931 . S
C2321 C2320 1.391 . S
C2321 C2325 1.376 . S
C2322 C2320 1.394 . S
C2322 C2323 1.369 . S
C2322 C2326 1.531 . S
C2323 C2322 1.369 . S
C2323 C2324 1.410 . S
C2323 C2331 1.503 . S
C2324 C2323 1.410 . S
C2324 C2325 1.392 . S
C2324 C2327 1.511 . S
C2325 C2321 1.376 . S
C2325 C2324 1.392 . S
C2325 H2337 0.929 . S
C2326 C2322 1.531 . S
C2326 H2338 0.960 . S
C2326 H2339 0.962 . S
C2326 H2340 0.960 . S
C2327 C2324 1.511 . S
C2327 H2341 0.961 . S
C2327 H2342 0.961 . S
C2327 H2343 0.961 . S
C2328 C2329 1.370 . S
C2328 C2330 1.363 . S
C2328 H2344 0.931 . S
C2329 C2328 1.370 . S
C2329 C2333 1.408 . S
C2330 C2328 1.363 . S
C2330 C2331 1.370 . S
C2330 C2334 1.524 . S
C2331 C2323 1.503 . S
C2331 C2330 1.370 . S
C2331 C2332 1.403 . S
C2332 C2331 1.403 . S
C2332 C2333 1.404 . S
C2332 C2335 1.539 . S
C2333 C2329 1.408 . S
C2333 C2332 1.404 . S
C2333 H2345 0.930 . S
C2334 C2330 1.524 . S
C2334 H2346 0.956 . S
C2334 H2347 0.961 . S
C2334 H2348 0.961 . S
C2335 C2332 1.539 . S
C2335 H2349 0.958 . S
C2335 H2350 0.961 . S
C2335 H2351 0.960 . S
H2336 C2320 0.931 . S
H2337 C2325 0.929 . S
H2338 C2326 0.960 . S
H2339 C2326 0.962 . S
H2340 C2326 0.960 . S
H2341 C2327 0.961 . S
H2342 C2327 0.961 . S
H2343 C2327 0.961 . S
H2344 C2328 0.931 . S
H2345 C2333 0.930 . S
H2346 C2334 0.956 . S
H2347 C2334 0.961 . S
H2348 C2334 0.961 . S
H2349 C2335 0.958 . S
H2350 C2335 0.961 . S
H2351 C2335 0.960 . S
C2352 C2353 1.391 . S
C2352 C2354 1.394 . S
C2352 H2368 0.931 . S
C2353 C2352 1.391 . S
C2353 C2357 1.376 . S
C2354 C2352 1.394 . S
C2354 C2355 1.369 . S
C2354 C2358 1.531 . S
C2355 C2354 1.369 . S
C2355 C2356 1.410 . S
C2355 C2363 1.503 . S
C2356 C2355 1.410 . S
C2356 C2357 1.392 . S
C2356 C2359 1.511 . S
C2357 C2353 1.376 . S
C2357 C2356 1.392 . S
C2357 H2369 0.929 . S
C2358 C2354 1.531 . S
C2358 H2370 0.960 . S
C2358 H2371 0.962 . S
C2358 H2372 0.960 . S
C2359 C2356 1.511 . S
C2359 H2373 0.961 . S
C2359 H2374 0.961 . S
C2359 H2375 0.961 . S
C2360 C2361 1.370 . S
C2360 C2362 1.363 . S
C2360 H2376 0.931 . S
C2361 C2360 1.370 . S
C2361 C2365 1.408 . S
C2362 C2360 1.363 . S
C2362 C2363 1.370 . S
C2362 C2366 1.524 . S
C2363 C2355 1.503 . S
C2363 C2362 1.370 . S
C2363 C2364 1.403 . S
C2364 C2363 1.403 . S
C2364 C2365 1.404 . S
C2364 C2367 1.539 . S
C2365 C2361 1.408 . S
C2365 C2364 1.404 . S
C2365 H2377 0.930 . S
C2366 C2362 1.524 . S
C2366 H2378 0.956 . S
C2366 H2379 0.961 . S
C2366 H2380 0.961 . S
C2367 C2364 1.539 . S
C2367 H2381 0.958 . S
C2367 H2382 0.961 . S
C2367 H2383 0.960 . S
H2368 C2352 0.931 . S
H2369 C2357 0.929 . S
H2370 C2358 0.960 . S
H2371 C2358 0.962 . S
H2372 C2358 0.960 . S
H2373 C2359 0.961 . S
H2374 C2359 0.961 . S
H2375 C2359 0.961 . S
H2376 C2360 0.931 . S
H2377 C2365 0.930 . S
H2378 C2366 0.956 . S
H2379 C2366 0.961 . S
H2380 C2366 0.961 . S
H2381 C2367 0.958 . S
H2382 C2367 0.961 . S
H2383 C2367 0.960 . S
C2384 C2385 1.391 1_565 S
C2384 C2386 1.394 . S
C2384 H2400 0.931 . S
C2385 C2384 1.391 1_545 S
C2385 C2389 1.376 . S
C2386 C2384 1.394 . S
C2386 C2387 1.369 . S
C2386 C2390 1.531 . S
C2387 C2386 1.369 . S
C2387 C2388 1.410 1_565 S
C2387 C2395 1.503 . S
C2388 C2387 1.410 1_545 S
C2388 C2389 1.392 . S
C2388 C2391 1.511 . S
C2389 C2385 1.376 . S
C2389 C2388 1.392 . S
C2389 H2401 0.929 . S
C2390 C2386 1.531 . S
C2390 H2402 0.960 . S
C2390 H2403 0.962 . S
C2390 H2404 0.960 . S
C2391 C2388 1.511 . S
C2391 H2405 0.961 . S
C2391 H2406 0.961 . S
C2391 H2407 0.961 . S
C2392 C2393 1.370 . S
C2392 C2394 1.363 . S
C2392 H2408 0.931 . S
C2393 C2392 1.370 . S
C2393 C2397 1.408 . S
C2394 C2392 1.363 . S
C2394 C2395 1.370 . S
C2394 C2398 1.524 . S
C2395 C2387 1.503 . S
C2395 C2394 1.370 . S
C2395 C2396 1.403 . S
C2396 C2395 1.403 . S
C2396 C2397 1.404 . S
C2396 C2399 1.539 . S
C2397 C2393 1.408 . S
C2397 C2396 1.404 . S
C2397 H2409 0.930 . S
C2398 C2394 1.524 . S
C2398 H2410 0.956 . S
C2398 H2411 0.961 . S
C2398 H2412 0.961 . S
C2399 C2396 1.539 . S
C2399 H2413 0.958 . S
C2399 H2414 0.961 . S
C2399 H2415 0.960 . S
H2400 C2384 0.931 . S
H2401 C2389 0.929 . S
H2402 C2390 0.960 . S
H2403 C2390 0.962 . S
H2404 C2390 0.960 . S
H2405 C2391 0.961 . S
H2406 C2391 0.961 . S
H2407 C2391 0.961 . S
H2408 C2392 0.931 . S
H2409 C2397 0.930 . S
H2410 C2398 0.956 . S
H2411 C2398 0.961 . S
H2412 C2398 0.961 . S
H2413 C2399 0.958 . S
H2414 C2399 0.961 . S
H2415 C2399 0.960 . S
C2416 C2417 1.391 . S
C2416 C2418 1.394 . S
C2416 H2432 0.931 . S
C2417 C2416 1.391 . S
C2417 C2421 1.376 . S
C2418 C2416 1.394 . S
C2418 C2419 1.369 . S
C2418 C2422 1.531 . S
C2419 C2418 1.369 . S
C2419 C2420 1.410 . S
C2419 C2427 1.503 . S
C2420 C2419 1.410 . S
C2420 C2421 1.392 . S
C2420 C2423 1.511 . S
C2421 C2417 1.376 . S
C2421 C2420 1.392 . S
C2421 H2433 0.929 . S
C2422 C2418 1.531 . S
C2422 H2434 0.960 . S
C2422 H2435 0.962 . S
C2422 H2436 0.960 . S
C2423 C2420 1.511 . S
C2423 H2437 0.961 . S
C2423 H2438 0.961 . S
C2423 H2439 0.961 . S
C2424 C2425 1.370 . S
C2424 C2426 1.363 . S
C2424 H2440 0.931 . S
C2425 C2424 1.370 . S
C2425 C2429 1.408 . S
C2426 C2424 1.363 . S
C2426 C2427 1.370 . S
C2426 C2430 1.524 . S
C2427 C2419 1.503 . S
C2427 C2426 1.370 . S
C2427 C2428 1.403 . S
C2428 C2427 1.403 . S
C2428 C2429 1.404 . S
C2428 C2431 1.539 . S
C2429 C2425 1.408 . S
C2429 C2428 1.404 . S
C2429 H2441 0.930 . S
C2430 C2426 1.524 . S
C2430 H2442 0.956 . S
C2430 H2443 0.961 . S
C2430 H2444 0.961 . S
C2431 C2428 1.539 . S
C2431 H2445 0.958 . S
C2431 H2446 0.961 . S
C2431 H2447 0.960 . S
H2432 C2416 0.931 . S
H2433 C2421 0.929 . S
H2434 C2422 0.960 . S
H2435 C2422 0.962 . S
H2436 C2422 0.960 . S
H2437 C2423 0.961 . S
H2438 C2423 0.961 . S
H2439 C2423 0.961 . S
H2440 C2424 0.931 . S
H2441 C2429 0.930 . S
H2442 C2430 0.956 . S
H2443 C2430 0.961 . S
H2444 C2430 0.961 . S
H2445 C2431 0.958 . S
H2446 C2431 0.961 . S
H2447 C2431 0.960 . S
C2448 C2449 1.391 . S
C2448 C2450 1.394 . S
C2448 H2464 0.931 . S
C2449 C2448 1.391 . S
C2449 C2453 1.376 . S
C2450 C2448 1.394 . S
C2450 C2451 1.369 . S
C2450 C2454 1.531 . S
C2451 C2450 1.369 . S
C2451 C2452 1.410 . S
C2451 C2459 1.503 . S
C2452 C2451 1.410 . S
C2452 C2453 1.392 . S
C2452 C2455 1.511 . S
C2453 C2449 1.376 . S
C2453 C2452 1.392 . S
C2453 H2465 0.929 . S
C2454 C2450 1.531 . S
C2454 H2466 0.960 . S
C2454 H2467 0.962 . S
C2454 H2468 0.960 . S
C2455 C2452 1.511 . S
C2455 H2469 0.961 . S
C2455 H2470 0.961 . S
C2455 H2471 0.961 . S
C2456 C2457 1.370 . S
C2456 C2458 1.363 . S
C2456 H2472 0.931 . S
C2457 C2456 1.370 . S
C2457 C2461 1.408 . S
C2458 C2456 1.363 . S
C2458 C2459 1.370 . S
C2458 C2462 1.524 . S
C2459 C2451 1.503 . S
C2459 C2458 1.370 . S
C2459 C2460 1.403 . S
C2460 C2459 1.403 . S
C2460 C2461 1.404 . S
C2460 C2463 1.539 . S
C2461 C2457 1.408 . S
C2461 C2460 1.404 . S
C2461 H2473 0.930 . S
C2462 C2458 1.524 . S
C2462 H2474 0.956 . S
C2462 H2475 0.961 . S
C2462 H2476 0.961 . S
C2463 C2460 1.539 . S
C2463 H2477 0.958 . S
C2463 H2478 0.961 . S
C2463 H2479 0.960 . S
H2464 C2448 0.931 . S
H2465 C2453 0.929 . S
H2466 C2454 0.960 . S
H2467 C2454 0.962 . S
H2468 C2454 0.960 . S
H2469 C2455 0.961 . S
H2470 C2455 0.961 . S
H2471 C2455 0.961 . S
H2472 C2456 0.931 . S
H2473 C2461 0.930 . S
H2474 C2462 0.956 . S
H2475 C2462 0.961 . S
H2476 C2462 0.961 . S
H2477 C2463 0.958 . S
H2478 C2463 0.961 . S
H2479 C2463 0.960 . S
C2480 C2481 1.391 . S
C2480 C2482 1.394 . S
C2480 H2496 0.931 . S
C2481 C2480 1.391 . S
C2481 C2485 1.376 . S
C2482 C2480 1.394 . S
C2482 C2483 1.369 . S
C2482 C2486 1.531 . S
C2483 C2482 1.369 . S
C2483 C2484 1.410 . S
C2483 C2491 1.503 . S
C2484 C2483 1.410 . S
C2484 C2485 1.392 . S
C2484 C2487 1.511 . S
C2485 C2481 1.376 . S
C2485 C2484 1.392 . S
C2485 H2497 0.929 . S
C2486 C2482 1.531 . S
C2486 H2498 0.960 . S
C2486 H2499 0.962 . S
C2486 H2500 0.960 . S
C2487 C2484 1.511 . S
C2487 H2501 0.961 . S
C2487 H2502 0.961 . S
C2487 H2503 0.961 . S
C2488 C2489 1.370 . S
C2488 C2490 1.363 . S
C2488 H2504 0.931 . S
C2489 C2488 1.370 . S
C2489 C2493 1.408 . S
C2490 C2488 1.363 . S
C2490 C2491 1.370 . S
C2490 C2494 1.524 . S
C2491 C2483 1.503 . S
C2491 C2490 1.370 . S
C2491 C2492 1.403 . S
C2492 C2491 1.403 . S
C2492 C2493 1.404 . S
C2492 C2495 1.539 . S
C2493 C2489 1.408 . S
C2493 C2492 1.404 . S
C2493 H2505 0.930 . S
C2494 C2490 1.524 . S
C2494 H2506 0.956 . S
C2494 H2507 0.961 . S
C2494 H2508 0.961 . S
C2495 C2492 1.539 . S
C2495 H2509 0.958 . S
C2495 H2510 0.961 . S
C2495 H2511 0.960 . S
H2496 C2480 0.931 . S
H2497 C2485 0.929 . S
H2498 C2486 0.960 . S
H2499 C2486 0.962 . S
H2500 C2486 0.960 . S
H2501 C2487 0.961 . S
H2502 C2487 0.961 . S
H2503 C2487 0.961 . S
H2504 C2488 0.931 . S
H2505 C2493 0.930 . S
H2506 C2494 0.956 . S
H2507 C2494 0.961 . S
H2508 C2494 0.961 . S
H2509 C2495 0.958 . S
H2510 C2495 0.961 . S
H2511 C2495 0.960 . S
C2512 C2513 1.391 . S
C2512 C2514 1.394 . S
C2512 H2528 0.931 . S
C2513 C2512 1.391 . S
C2513 C2517 1.376 . S
C2514 C2512 1.394 . S
C2514 C2515 1.369 . S
C2514 C2518 1.531 . S
C2515 C2514 1.369 . S
C2515 C2516 1.410 . S
C2515 C2523 1.503 . S
C2516 C2515 1.410 . S
C2516 C2517 1.392 . S
C2516 C2519 1.511 . S
C2517 C2513 1.376 . S
C2517 C2516 1.392 . S
C2517 H2529 0.929 . S
C2518 C2514 1.531 . S
C2518 H2530 0.960 . S
C2518 H2531 0.962 . S
C2518 H2532 0.960 . S
C2519 C2516 1.511 . S
C2519 H2533 0.961 . S
C2519 H2534 0.961 . S
C2519 H2535 0.961 . S
C2520 C2521 1.370 . S
C2520 C2522 1.363 . S
C2520 H2536 0.931 . S
C2521 C2520 1.370 . S
C2521 C2525 1.408 . S
C2522 C2520 1.363 . S
C2522 C2523 1.370 . S
C2522 C2526 1.524 . S
C2523 C2515 1.503 . S
C2523 C2522 1.370 . S
C2523 C2524 1.403 . S
C2524 C2523 1.403 . S
C2524 C2525 1.404 . S
C2524 C2527 1.539 . S
C2525 C2521 1.408 . S
C2525 C2524 1.404 . S
C2525 H2537 0.930 . S
C2526 C2522 1.524 . S
C2526 H2538 0.956 . S
C2526 H2539 0.961 . S
C2526 H2540 0.961 . S
C2527 C2524 1.539 . S
C2527 H2541 0.958 . S
C2527 H2542 0.961 . S
C2527 H2543 0.960 . S
H2528 C2512 0.931 . S
H2529 C2517 0.929 . S
H2530 C2518 0.960 . S
H2531 C2518 0.962 . S
H2532 C2518 0.960 . S
H2533 C2519 0.961 . S
H2534 C2519 0.961 . S
H2535 C2519 0.961 . S
H2536 C2520 0.931 . S
H2537 C2525 0.930 . S
H2538 C2526 0.956 . S
H2539 C2526 0.961 . S
H2540 C2526 0.961 . S
H2541 C2527 0.958 . S
H2542 C2527 0.961 . S
H2543 C2527 0.960 . S
C2544 C2545 1.391 . S
C2544 C2546 1.394 . S
C2544 H2560 0.931 . S
C2545 C2544 1.391 . S
C2545 C2549 1.376 . S
C2546 C2544 1.394 . S
C2546 C2547 1.369 . S
C2546 C2550 1.531 . S
C2547 C2546 1.369 . S
C2547 C2548 1.410 . S
C2547 C2555 1.503 . S
C2548 C2547 1.410 . S
C2548 C2549 1.392 . S
C2548 C2551 1.511 . S
C2549 C2545 1.376 . S
C2549 C2548 1.392 . S
C2549 H2561 0.929 . S
C2550 C2546 1.531 . S
C2550 H2562 0.960 . S
C2550 H2563 0.962 . S
C2550 H2564 0.960 . S
C2551 C2548 1.511 . S
C2551 H2565 0.961 . S
C2551 H2566 0.961 . S
C2551 H2567 0.961 . S
C2552 C2553 1.370 . S
C2552 C2554 1.363 . S
C2552 H2568 0.931 . S
C2553 C2552 1.370 . S
C2553 C2557 1.408 . S
C2554 C2552 1.363 . S
C2554 C2555 1.370 . S
C2554 C2558 1.524 . S
C2555 C2547 1.503 . S
C2555 C2554 1.370 . S
C2555 C2556 1.403 . S
C2556 C2555 1.403 . S
C2556 C2557 1.404 . S
C2556 C2559 1.539 . S
C2557 C2553 1.408 . S
C2557 C2556 1.404 . S
C2557 H2569 0.930 . S
C2558 C2554 1.524 . S
C2558 H2570 0.956 . S
C2558 H2571 0.961 . S
C2558 H2572 0.961 . S
C2559 C2556 1.539 . S
C2559 H2573 0.958 . S
C2559 H2574 0.961 . S
C2559 H2575 0.960 . S
H2560 C2544 0.931 . S
H2561 C2549 0.929 . S
H2562 C2550 0.960 . S
H2563 C2550 0.962 . S
H2564 C2550 0.960 . S
H2565 C2551 0.961 . S
H2566 C2551 0.961 . S
H2567 C2551 0.961 . S
H2568 C2552 0.931 . S
H2569 C2557 0.930 . S
H2570 C2558 0.956 . S
H2571 C2558 0.961 . S
H2572 C2558 0.961 . S
H2573 C2559 0.958 . S
H2574 C2559 0.961 . S
H2575 C2559 0.960 . S
C2576 C2577 1.391 . S
C2576 C2578 1.394 . S
C2576 H2592 0.931 . S
C2577 C2576 1.391 . S
C2577 C2581 1.376 . S
C2578 C2576 1.394 . S
C2578 C2579 1.369 . S
C2578 C2582 1.531 . S
C2579 C2578 1.369 . S
C2579 C2580 1.410 . S
C2579 C2587 1.503 . S
C2580 C2579 1.410 . S
C2580 C2581 1.392 . S
C2580 C2583 1.511 1_455 S
C2581 C2577 1.376 . S
C2581 C2580 1.392 . S
C2581 H2593 0.929 1_455 S
C2582 C2578 1.531 . S
C2582 H2594 0.960 . S
C2582 H2595 0.962 . S
C2582 H2596 0.960 . S
C2583 C2580 1.511 1_655 S
C2583 H2597 0.961 . S
C2583 H2598 0.961 . S
C2583 H2599 0.961 . S
C2584 C2585 1.370 1_554 S
C2584 C2586 1.364 . S
C2584 H2600 0.931 . S
C2585 C2584 1.370 1_556 S
C2585 C2589 1.408 . S
C2586 C2584 1.364 . S
C2586 C2587 1.363 1_554 S
C2586 C2590 1.530 . S
C2587 C2579 1.503 . S
C2587 C2586 1.363 1_556 S
C2587 C2588 1.403 . S
C2588 C2587 1.403 . S
C2588 C2589 1.404 . S
C2588 C2591 1.539 . S
C2589 C2585 1.408 . S
C2589 C2588 1.404 . S
C2589 H2601 0.930 . S
C2590 C2586 1.530 . S
C2590 H2602 0.956 . S
C2590 H2603 0.961 . S
C2590 H2604 0.961 . S
C2591 C2588 1.539 . S
C2591 H2605 0.958 . S
C2591 H2606 0.950 1_455 S
C2591 H2607 0.960 . S
H2592 C2576 0.931 . S
H2593 C2581 0.929 1_655 S
H2594 C2582 0.960 . S
H2595 C2582 0.962 . S
H2596 C2582 0.960 . S
H2597 C2583 0.961 . S
H2598 C2583 0.961 . S
H2599 C2583 0.961 . S
H2600 C2584 0.931 . S
H2601 C2589 0.930 . S
H2602 C2590 0.956 . S
H2603 C2590 0.961 . S
H2604 C2590 0.961 . S
H2605 C2591 0.958 . S
H2606 C2591 0.950 1_655 S
H2607 C2591 0.960 . S
C2608 C2609 1.391 . S
C2608 C2610 1.394 1_455 S
C2608 H2624 0.931 . S
C2609 C2608 1.391 . S
C2609 C2613 1.376 . S
C2610 C2608 1.394 1_655 S
C2610 C2611 1.369 . S
C2610 C2614 1.531 . S
C2611 C2610 1.369 . S
C2611 C2612 1.410 1_655 S
C2611 C2619 1.503 . S
C2612 C2611 1.410 1_455 S
C2612 C2613 1.392 . S
C2612 C2615 1.511 . S
C2613 C2609 1.376 . S
C2613 C2612 1.392 . S
C2613 H2625 0.929 . S
C2614 C2610 1.531 . S
C2614 H2626 0.960 . S
C2614 H2627 0.962 . S
C2614 H2628 0.960 . S
C2615 C2612 1.511 . S
C2615 H2629 0.961 . S
C2615 H2630 0.961 1_455 S
C2615 H2631 0.961 . S
C2616 C2617 1.370 . S
C2616 C2618 1.363 . S
C2616 H2632 0.931 . S
C2617 C2616 1.370 . S
C2617 C2621 1.408 . S
C2618 C2616 1.363 . S
C2618 C2619 1.370 . S
C2618 C2622 1.524 . S
C2619 C2611 1.503 . S
C2619 C2618 1.370 . S
C2619 C2620 1.403 . S
C2620 C2619 1.403 . S
C2620 C2621 1.404 . S
C2620 C2623 1.539 . S
C2621 C2617 1.408 . S
C2621 C2620 1.404 . S
C2621 H2633 0.930 . S
C2622 C2618 1.524 . S
C2622 H2634 0.956 . S
C2622 H2635 0.961 . S
C2622 H2636 0.961 . S
C2623 C2620 1.539 . S
C2623 H2637 0.958 . S
C2623 H2638 0.961 . S
C2623 H2639 0.960 . S
H2624 C2608 0.931 . S
H2625 C2613 0.929 . S
H2626 C2614 0.960 . S
H2627 C2614 0.962 . S
H2628 C2614 0.960 . S
H2629 C2615 0.961 . S
H2630 C2615 0.961 1_655 S
H2631 C2615 0.961 . S
H2632 C2616 0.931 . S
H2633 C2621 0.930 . S
H2634 C2622 0.956 . S
H2635 C2622 0.961 . S
H2636 C2622 0.961 . S
H2637 C2623 0.958 . S
H2638 C2623 0.961 . S
H2639 C2623 0.960 . S
C2640 C2641 1.391 . S
C2640 C2642 1.394 . S
C2640 H2656 0.931 . S
C2641 C2640 1.391 . S
C2641 C2645 1.376 . S
C2642 C2640 1.394 . S
C2642 C2643 1.369 . S
C2642 C2646 1.531 . S
C2643 C2642 1.369 . S
C2643 C2644 1.410 . S
C2643 C2651 1.503 . S
C2644 C2643 1.410 . S
C2644 C2645 1.392 . S
C2644 C2647 1.511 . S
C2645 C2641 1.376 . S
C2645 C2644 1.392 . S
C2645 H2657 0.929 . S
C2646 C2642 1.531 . S
C2646 H2658 0.960 . S
C2646 H2659 0.962 . S
C2646 H2660 0.960 . S
C2647 C2644 1.511 . S
C2647 H2661 0.961 . S
C2647 H2662 0.961 . S
C2647 H2663 0.961 . S
C2648 C2649 1.370 . S
C2648 C2650 1.363 . S
C2648 H2664 0.931 . S
C2649 C2648 1.370 . S
C2649 C2653 1.408 . S
C2650 C2648 1.363 . S
C2650 C2651 1.370 . S
C2650 C2654 1.524 . S
C2651 C2643 1.503 . S
C2651 C2650 1.370 . S
C2651 C2652 1.403 . S
C2652 C2651 1.403 . S
C2652 C2653 1.404 . S
C2652 C2655 1.539 . S
C2653 C2649 1.408 . S
C2653 C2652 1.404 . S
C2653 H2665 0.930 . S
C2654 C2650 1.524 . S
C2654 H2666 0.956 . S
C2654 H2667 0.961 . S
C2654 H2668 0.961 . S
C2655 C2652 1.539 . S
C2655 H2669 0.958 . S
C2655 H2670 0.961 . S
C2655 H2671 0.960 . S
H2656 C2640 0.931 . S
H2657 C2645 0.929 . S
H2658 C2646 0.960 . S
H2659 C2646 0.962 . S
H2660 C2646 0.960 . S
H2661 C2647 0.961 . S
H2662 C2647 0.961 . S
H2663 C2647 0.961 . S
H2664 C2648 0.931 . S
H2665 C2653 0.930 . S
H2666 C2654 0.956 . S
H2667 C2654 0.961 . S
H2668 C2654 0.961 . S
H2669 C2655 0.958 . S
H2670 C2655 0.961 . S
H2671 C2655 0.960 . S
C2672 C2673 1.391 . S
C2672 C2674 1.394 . S
C2672 H2688 0.931 . S
C2673 C2672 1.391 . S
C2673 C2677 1.376 . S
C2674 C2672 1.394 . S
C2674 C2675 1.369 . S
C2674 C2678 1.531 1_455 S
C2675 C2674 1.369 . S
C2675 C2676 1.410 . S
C2675 C2683 1.503 1_455 S
C2676 C2675 1.410 . S
C2676 C2677 1.392 . S
C2676 C2679 1.511 . S
C2677 C2673 1.376 . S
C2677 C2676 1.392 . S
C2677 H2689 0.929 . S
C2678 C2674 1.531 1_655 S
C2678 H2690 0.960 . S
C2678 H2691 0.962 . S
C2678 H2692 0.945 1_655 S
C2679 C2676 1.511 . S
C2679 H2693 0.961 . S
C2679 H2694 0.961 . S
C2679 H2695 0.961 . S
C2680 C2681 1.370 . S
C2680 C2682 1.363 . S
C2680 H2696 0.931 . S
C2681 C2680 1.370 . S
C2681 C2685 1.408 . S
C2682 C2680 1.363 . S
C2682 C2683 1.370 . S
C2682 C2686 1.524 . S
C2683 C2675 1.503 1_655 S
C2683 C2682 1.370 . S
C2683 C2684 1.403 . S
C2684 C2683 1.403 . S
C2684 C2685 1.404 . S
C2684 C2687 1.539 . S
C2685 C2681 1.408 . S
C2685 C2684 1.404 . S
C2685 H2697 0.930 . S
C2686 C2682 1.524 . S
C2686 H2698 0.956 1_655 S
C2686 H2699 0.961 1_655 S
C2686 H2700 0.961 . S
C2687 C2684 1.539 . S
C2687 H2701 0.958 . S
C2687 H2702 0.961 . S
C2687 H2703 0.960 . S
H2688 C2672 0.931 . S
H2689 C2677 0.929 . S
H2690 C2678 0.960 . S
H2691 C2678 0.962 . S
H2692 C2678 0.945 1_455 S
H2693 C2679 0.961 . S
H2694 C2679 0.961 . S
H2695 C2679 0.961 . S
H2696 C2680 0.931 . S
H2697 C2685 0.930 . S
H2698 C2686 0.956 1_455 S
H2699 C2686 0.961 1_455 S
H2700 C2686 0.961 . S
H2701 C2687 0.958 . S
H2702 C2687 0.961 . S
H2703 C2687 0.960 . S
C2704 C2705 1.391 . S
C2704 C2706 1.394 . S
C2704 H2720 0.931 . S
C2705 C2704 1.391 . S
C2705 C2709 1.376 1_655 S
C2706 C2704 1.394 . S
C2706 C2707 1.369 1_655 S
C2706 C2710 1.531 . S
C2707 C2706 1.369 1_455 S
C2707 C2708 1.410 . S
C2707 C2715 1.503 . S
C2708 C2707 1.410 . S
C2708 C2709 1.392 . S
C2708 C2711 1.511 . S
C2709 C2705 1.376 1_455 S
C2709 C2708 1.392 . S
C2709 H2721 0.929 . S
C2710 C2706 1.531 . S
C2710 H2722 0.960 1_655 S
C2710 H2723 0.962 . S
C2710 H2724 0.960 . S
C2711 C2708 1.511 . S
C2711 H2725 0.961 . S
C2711 H2726 0.961 . S
C2711 H2727 0.961 . S
C2712 C2713 1.370 . S
C2712 C2714 1.363 . S
C2712 H2728 0.931 . S
C2713 C2712 1.370 . S
C2713 C2717 1.408 . S
C2714 C2712 1.363 . S
C2714 C2715 1.370 . S
C2714 C2718 1.524 1_455 S
C2715 C2707 1.503 . S
C2715 C2714 1.370 . S
C2715 C2716 1.403 . S
C2716 C2715 1.403 . S
C2716 C2717 1.404 . S
C2716 C2719 1.539 . S
C2717 C2713 1.408 . S
C2717 C2716 1.404 . S
C2717 H2729 0.930 . S
C2718 C2714 1.524 1_655 S
C2718 H2730 0.956 . S
C2718 H2731 0.961 . S
C2718 H2732 0.961 . S
C2719 C2716 1.539 . S
C2719 H2733 0.958 . S
C2719 H2734 0.961 . S
C2719 H2735 0.960 . S
H2720 C2704 0.931 . S
H2721 C2709 0.929 . S
H2722 C2710 0.960 1_455 S
H2723 C2710 0.962 . S
H2724 C2710 0.960 . S
H2725 C2711 0.961 . S
H2726 C2711 0.961 . S
H2727 C2711 0.961 . S
H2728 C2712 0.931 . S
H2729 C2717 0.930 . S
H2730 C2718 0.956 . S
H2731 C2718 0.961 . S
H2732 C2718 0.961 . S
H2733 C2719 0.958 . S
H2734 C2719 0.961 . S
H2735 C2719 0.960 . S
C2736 C2737 1.391 . S
C2736 C2738 1.394 . S
C2736 H2752 0.931 . S
C2737 C2736 1.391 . S
C2737 C2741 1.376 . S
C2738 C2736 1.394 . S
C2738 C2739 1.369 . S
C2738 C2742 1.531 . S
C2739 C2738 1.369 . S
C2739 C2740 1.410 . S
C2739 C2747 1.503 . S
C2740 C2739 1.410 . S
C2740 C2741 1.392 . S
C2740 C2743 1.511 . S
C2741 C2737 1.376 . S
C2741 C2740 1.392 . S
C2741 H2753 0.929 . S
C2742 C2738 1.531 . S
C2742 H2754 0.960 . S
C2742 H2755 0.962 . S
C2742 H2756 0.960 . S
C2743 C2740 1.511 . S
C2743 H2757 0.961 . S
C2743 H2758 0.961 . S
C2743 H2759 0.961 . S
C2744 C2745 1.370 . S
C2744 C2746 1.363 . S
C2744 H2760 0.931 . S
C2745 C2744 1.370 . S
C2745 C2749 1.408 . S
C2746 C2744 1.363 . S
C2746 C2747 1.370 . S
C2746 C2750 1.524 . S
C2747 C2739 1.503 . S
C2747 C2746 1.370 . S
C2747 C2748 1.403 . S
C2748 C2747 1.403 . S
C2748 C2749 1.404 . S
C2748 C2751 1.539 . S
C2749 C2745 1.408 . S
C2749 C2748 1.404 . S
C2749 H2761 0.930 . S
C2750 C2746 1.524 . S
C2750 H2762 0.956 . S
C2750 H2763 0.961 . S
C2750 H2764 0.961 . S
C2751 C2748 1.539 . S
C2751 H2765 0.958 . S
C2751 H2766 0.961 . S
C2751 H2767 0.960 . S
H2752 C2736 0.931 . S
H2753 C2741 0.929 . S
H2754 C2742 0.960 . S
H2755 C2742 0.962 . S
H2756 C2742 0.960 . S
H2757 C2743 0.961 . S
H2758 C2743 0.961 . S
H2759 C2743 0.961 . S
H2760 C2744 0.931 . S
H2761 C2749 0.930 . S
H2762 C2750 0.956 . S
H2763 C2750 0.961 . S
H2764 C2750 0.961 . S
H2765 C2751 0.958 . S
H2766 C2751 0.961 . S
H2767 C2751 0.960 . S
C2768 C2769 1.391 . S
C2768 C2770 1.394 . S
C2768 H2784 0.931 . S
C2769 C2768 1.391 . S
C2769 C2773 1.376 . S
C2770 C2768 1.394 . S
C2770 C2771 1.369 . S
C2770 C2774 1.531 . S
C2771 C2770 1.369 . S
C2771 C2772 1.410 . S
C2771 C2779 1.503 . S
C2772 C2771 1.410 . S
C2772 C2773 1.392 . S
C2772 C2775 1.511 . S
C2773 C2769 1.376 . S
C2773 C2772 1.392 . S
C2773 H2785 0.929 . S
C2774 C2770 1.531 . S
C2774 H2786 0.960 . S
C2774 H2787 0.962 . S
C2774 H2788 0.960 . S
C2775 C2772 1.511 . S
C2775 H2789 0.961 . S
C2775 H2790 0.961 . S
C2775 H2791 0.961 . S
C2776 C2777 1.370 . S
C2776 C2778 1.363 . S
C2776 H2792 0.931 . S
C2777 C2776 1.370 . S
C2777 C2781 1.408 . S
C2778 C2776 1.363 . S
C2778 C2779 1.370 . S
C2778 C2782 1.524 . S
C2779 C2771 1.503 . S
C2779 C2778 1.370 . S
C2779 C2780 1.403 . S
C2780 C2779 1.403 . S
C2780 C2781 1.404 . S
C2780 C2783 1.539 . S
C2781 C2777 1.408 . S
C2781 C2780 1.404 . S
C2781 H2793 0.930 . S
C2782 C2778 1.524 . S
C2782 H2794 0.956 . S
C2782 H2795 0.961 . S
C2782 H2796 0.961 . S
C2783 C2780 1.539 . S
C2783 H2797 0.958 . S
C2783 H2798 0.961 . S
C2783 H2799 0.960 . S
H2784 C2768 0.931 . S
H2785 C2773 0.929 . S
H2786 C2774 0.960 . S
H2787 C2774 0.962 . S
H2788 C2774 0.960 . S
H2789 C2775 0.961 . S
H2790 C2775 0.961 . S
H2791 C2775 0.961 . S
H2792 C2776 0.931 . S
H2793 C2781 0.930 . S
H2794 C2782 0.956 . S
H2795 C2782 0.961 . S
H2796 C2782 0.961 . S
H2797 C2783 0.958 . S
H2798 C2783 0.961 . S
H2799 C2783 0.960 . S
C2800 C2801 1.391 . S
C2800 C2802 1.394 . S
C2800 H2816 0.931 . S
C2801 C2800 1.391 . S
C2801 C2805 1.376 . S
C2802 C2800 1.394 . S
C2802 C2803 1.369 . S
C2802 C2806 1.531 . S
C2803 C2802 1.369 . S
C2803 C2804 1.410 . S
C2803 C2811 1.503 . S
C2804 C2803 1.410 . S
C2804 C2805 1.392 . S
C2804 C2807 1.511 . S
C2805 C2801 1.376 . S
C2805 C2804 1.392 . S
C2805 H2817 0.929 . S
C2806 C2802 1.531 . S
C2806 H2818 0.960 . S
C2806 H2819 0.962 . S
C2806 H2820 0.960 . S
C2807 C2804 1.511 . S
C2807 H2821 0.961 . S
C2807 H2822 0.961 . S
C2807 H2823 0.961 . S
C2808 C2809 1.370 . S
C2808 C2810 1.363 . S
C2808 H2824 0.931 . S
C2809 C2808 1.370 . S
C2809 C2813 1.408 . S
C2810 C2808 1.363 . S
C2810 C2811 1.370 . S
C2810 C2814 1.524 . S
C2811 C2803 1.503 . S
C2811 C2810 1.370 . S
C2811 C2812 1.403 . S
C2812 C2811 1.403 . S
C2812 C2813 1.404 . S
C2812 C2815 1.539 . S
C2813 C2809 1.408 . S
C2813 C2812 1.404 . S
C2813 H2825 0.930 . S
C2814 C2810 1.524 . S
C2814 H2826 0.956 . S
C2814 H2827 0.961 . S
C2814 H2828 0.961 . S
C2815 C2812 1.539 . S
C2815 H2829 0.958 . S
C2815 H2830 0.961 . S
C2815 H2831 0.960 . S
H2816 C2800 0.931 . S
H2817 C2805 0.929 . S
H2818 C2806 0.960 . S
H2819 C2806 0.962 . S
H2820 C2806 0.960 . S
H2821 C2807 0.961 . S
H2822 C2807 0.961 . S
H2823 C2807 0.961 . S
H2824 C2808 0.931 . S
H2825 C2813 0.930 . S
H2826 C2814 0.956 . S
H2827 C2814 0.961 . S
H2828 C2814 0.961 . S
H2829 C2815 0.958 . S
H2830 C2815 0.961 . S
H2831 C2815 0.960 . S
C2832 C2833 1.391 . S
C2832 C2834 1.394 . S
C2832 H2848 0.931 . S
C2833 C2832 1.391 . S
C2833 C2837 1.376 . S
C2834 C2832 1.394 . S
C2834 C2835 1.369 . S
C2834 C2838 1.531 . S
C2835 C2834 1.369 . S
C2835 C2836 1.410 . S
C2835 C2843 1.503 . S
C2836 C2835 1.410 . S
C2836 C2837 1.392 . S
C2836 C2839 1.511 . S
C2837 C2833 1.376 . S
C2837 C2836 1.392 . S
C2837 H2849 0.929 . S
C2838 C2834 1.531 . S
C2838 H2850 0.960 . S
C2838 H2851 0.962 . S
C2838 H2852 0.960 . S
C2839 C2836 1.511 . S
C2839 H2853 0.961 . S
C2839 H2854 0.961 . S
C2839 H2855 0.961 . S
C2840 C2841 1.370 . S
C2840 C2842 1.363 . S
C2840 H2856 0.931 . S
C2841 C2840 1.370 . S
C2841 C2845 1.408 . S
C2842 C2840 1.363 . S
C2842 C2843 1.370 . S
C2842 C2846 1.524 . S
C2843 C2835 1.503 . S
C2843 C2842 1.370 . S
C2843 C2844 1.403 . S
C2844 C2843 1.403 . S
C2844 C2845 1.404 . S
C2844 C2847 1.539 . S
C2845 C2841 1.408 . S
C2845 C2844 1.404 . S
C2845 H2857 0.930 . S
C2846 C2842 1.524 . S
C2846 H2858 0.956 . S
C2846 H2859 0.961 . S
C2846 H2860 0.961 . S
C2847 C2844 1.539 . S
C2847 H2861 0.958 . S
C2847 H2862 0.961 . S
C2847 H2863 0.960 . S
H2848 C2832 0.931 . S
H2849 C2837 0.929 . S
H2850 C2838 0.960 . S
H2851 C2838 0.962 . S
H2852 C2838 0.960 . S
H2853 C2839 0.961 . S
H2854 C2839 0.961 . S
H2855 C2839 0.961 . S
H2856 C2840 0.931 . S
H2857 C2845 0.930 . S
H2858 C2846 0.956 . S
H2859 C2846 0.961 . S
H2860 C2846 0.961 . S
H2861 C2847 0.958 . S
H2862 C2847 0.961 . S
H2863 C2847 0.960 . S
C2864 C2865 1.391 . S
C2864 C2866 1.394 . S
C2864 H2880 0.931 . S
C2865 C2864 1.391 . S
C2865 C2869 1.376 . S
C2866 C2864 1.394 . S
C2866 C2867 1.369 . S
C2866 C2870 1.531 . S
C2867 C2866 1.369 . S
C2867 C2868 1.410 . S
C2867 C2875 1.503 . S
C2868 C2867 1.410 . S
C2868 C2869 1.392 . S
C2868 C2871 1.511 . S
C2869 C2865 1.376 . S
C2869 C2868 1.392 . S
C2869 H2881 0.929 . S
C2870 C2866 1.531 . S
C2870 H2882 0.960 . S
C2870 H2883 0.962 . S
C2870 H2884 0.960 . S
C2871 C2868 1.511 . S
C2871 H2885 0.961 . S
C2871 H2886 0.961 . S
C2871 H2887 0.961 . S
C2872 C2873 1.370 . S
C2872 C2874 1.363 . S
C2872 H2888 0.931 . S
C2873 C2872 1.370 . S
C2873 C2877 1.408 . S
C2874 C2872 1.363 . S
C2874 C2875 1.370 . S
C2874 C2878 1.524 . S
C2875 C2867 1.503 . S
C2875 C2874 1.370 . S
C2875 C2876 1.403 . S
C2876 C2875 1.403 . S
C2876 C2877 1.404 . S
C2876 C2879 1.539 . S
C2877 C2873 1.408 . S
C2877 C2876 1.404 . S
C2877 H2889 0.930 . S
C2878 C2874 1.524 . S
C2878 H2890 0.956 . S
C2878 H2891 0.961 . S
C2878 H2892 0.961 . S
C2879 C2876 1.539 . S
C2879 H2893 0.958 . S
C2879 H2894 0.961 . S
C2879 H2895 0.960 . S
H2880 C2864 0.931 . S
H2881 C2869 0.929 . S
H2882 C2870 0.960 . S
H2883 C2870 0.962 . S
H2884 C2870 0.960 . S
H2885 C2871 0.961 . S
H2886 C2871 0.961 . S
H2887 C2871 0.961 . S
H2888 C2872 0.931 . S
H2889 C2877 0.930 . S
H2890 C2878 0.956 . S
H2891 C2878 0.961 . S
H2892 C2878 0.961 . S
H2893 C2879 0.958 . S
H2894 C2879 0.961 . S
H2895 C2879 0.960 . S
C2896 C2897 1.391 . S
C2896 C2898 1.394 . S
C2896 H2912 0.931 . S
C2897 C2896 1.391 . S
C2897 C2901 1.376 . S
C2898 C2896 1.394 . S
C2898 C2899 1.369 . S
C2898 C2902 1.531 . S
C2899 C2898 1.369 . S
C2899 C2900 1.410 . S
C2899 C2907 1.503 . S
C2900 C2899 1.410 . S
C2900 C2901 1.392 . S
C2900 C2903 1.511 . S
C2901 C2897 1.376 . S
C2901 C2900 1.392 . S
C2901 H2913 0.929 . S
C2902 C2898 1.531 . S
C2902 H2914 0.960 . S
C2902 H2915 0.962 . S
C2902 H2916 0.960 . S
C2903 C2900 1.511 . S
C2903 H2917 0.961 . S
C2903 H2918 0.961 . S
C2903 H2919 0.961 . S
C2904 C2905 1.370 . S
C2904 C2906 1.363 . S
C2904 H2920 0.931 . S
C2905 C2904 1.370 . S
C2905 C2909 1.408 . S
C2906 C2904 1.363 . S
C2906 C2907 1.370 . S
C2906 C2910 1.524 . S
C2907 C2899 1.503 . S
C2907 C2906 1.370 . S
C2907 C2908 1.403 . S
C2908 C2907 1.403 . S
C2908 C2909 1.404 . S
C2908 C2911 1.539 . S
C2909 C2905 1.408 . S
C2909 C2908 1.404 . S
C2909 H2921 0.930 . S
C2910 C2906 1.524 . S
C2910 H2922 0.956 . S
C2910 H2923 0.961 . S
C2910 H2924 0.961 . S
C2911 C2908 1.539 . S
C2911 H2925 0.958 . S
C2911 H2926 0.961 . S
C2911 H2927 0.960 . S
H2912 C2896 0.931 . S
H2913 C2901 0.929 . S
H2914 C2902 0.960 . S
H2915 C2902 0.962 . S
H2916 C2902 0.960 . S
H2917 C2903 0.961 . S
H2918 C2903 0.961 . S
H2919 C2903 0.961 . S
H2920 C2904 0.931 . S
H2921 C2909 0.930 . S
H2922 C2910 0.956 . S
H2923 C2910 0.961 . S
H2924 C2910 0.961 . S
H2925 C2911 0.958 . S
H2926 C2911 0.961 . S
H2927 C2911 0.960 . S
C2928 C2929 1.391 . S
C2928 C2930 1.394 . S
C2928 H2944 0.931 . S
C2929 C2928 1.391 . S
C2929 C2933 1.376 . S
C2930 C2928 1.394 . S
C2930 C2931 1.369 . S
C2930 C2934 1.531 . S
C2931 C2930 1.369 . S
C2931 C2932 1.410 . S
C2931 C2939 1.503 . S
C2932 C2931 1.410 . S
C2932 C2933 1.392 . S
C2932 C2935 1.511 . S
C2933 C2929 1.376 . S
C2933 C2932 1.392 . S
C2933 H2945 0.929 . S
C2934 C2930 1.531 . S
C2934 H2946 0.960 . S
C2934 H2947 0.962 . S
C2934 H2948 0.960 . S
C2935 C2932 1.511 . S
C2935 H2949 0.961 . S
C2935 H2950 0.961 . S
C2935 H2951 0.961 . S
C2936 C2937 1.370 . S
C2936 C2938 1.363 . S
C2936 H2952 0.931 . S
C2937 C2936 1.370 . S
C2937 C2941 1.408 . S
C2938 C2936 1.363 . S
C2938 C2939 1.370 . S
C2938 C2942 1.524 . S
C2939 C2931 1.503 . S
C2939 C2938 1.370 . S
C2939 C2940 1.403 . S
C2940 C2939 1.403 . S
C2940 C2941 1.404 . S
C2940 C2943 1.539 . S
C2941 C2937 1.408 . S
C2941 C2940 1.404 . S
C2941 H2953 0.930 . S
C2942 C2938 1.524 . S
C2942 H2954 0.956 . S
C2942 H2955 0.961 . S
C2942 H2956 0.961 . S
C2943 C2940 1.539 . S
C2943 H2957 0.958 . S
C2943 H2958 0.961 . S
C2943 H2959 0.960 . S
H2944 C2928 0.931 . S
H2945 C2933 0.929 . S
H2946 C2934 0.960 . S
H2947 C2934 0.962 . S
H2948 C2934 0.960 . S
H2949 C2935 0.961 . S
H2950 C2935 0.961 . S
H2951 C2935 0.961 . S
H2952 C2936 0.931 . S
H2953 C2941 0.930 . S
H2954 C2942 0.956 . S
H2955 C2942 0.961 . S
H2956 C2942 0.961 . S
H2957 C2943 0.958 . S
H2958 C2943 0.961 . S
H2959 C2943 0.960 . S
C2960 C2961 1.391 . S
C2960 C2962 1.394 . S
C2960 H2976 0.931 . S
C2961 C2960 1.391 . S
C2961 C2965 1.376 . S
C2962 C2960 1.394 . S
C2962 C2963 1.369 . S
C2962 C2966 1.531 . S
C2963 C2962 1.369 . S
C2963 C2964 1.410 . S
C2963 C2971 1.503 . S
C2964 C2963 1.410 . S
C2964 C2965 1.392 . S
C2964 C2967 1.511 . S
C2965 C2961 1.376 . S
C2965 C2964 1.392 . S
C2965 H2977 0.929 . S
C2966 C2962 1.531 . S
C2966 H2978 0.960 . S
C2966 H2979 0.962 . S
C2966 H2980 0.960 . S
C2967 C2964 1.511 . S
C2967 H2981 0.961 . S
C2967 H2982 0.961 . S
C2967 H2983 0.961 . S
C2968 C2969 1.370 . S
C2968 C2970 1.363 . S
C2968 H2984 0.931 . S
C2969 C2968 1.370 . S
C2969 C2973 1.408 . S
C2970 C2968 1.363 . S
C2970 C2971 1.370 . S
C2970 C2974 1.524 . S
C2971 C2963 1.503 . S
C2971 C2970 1.370 . S
C2971 C2972 1.403 . S
C2972 C2971 1.403 . S
C2972 C2973 1.404 . S
C2972 C2975 1.539 . S
C2973 C2969 1.408 . S
C2973 C2972 1.404 . S
C2973 H2985 0.930 . S
C2974 C2970 1.524 . S
C2974 H2986 0.956 . S
C2974 H2987 0.961 . S
C2974 H2988 0.961 . S
C2975 C2972 1.539 . S
C2975 H2989 0.958 . S
C2975 H2990 0.961 . S
C2975 H2991 0.960 . S
H2976 C2960 0.931 . S
H2977 C2965 0.929 . S
H2978 C2966 0.960 . S
H2979 C2966 0.962 . S
H2980 C2966 0.960 . S
H2981 C2967 0.961 . S
H2982 C2967 0.961 . S
H2983 C2967 0.961 . S
H2984 C2968 0.931 . S
H2985 C2973 0.930 . S
H2986 C2974 0.956 . S
H2987 C2974 0.961 . S
H2988 C2974 0.961 . S
H2989 C2975 0.958 . S
H2990 C2975 0.961 . S
H2991 C2975 0.960 . S
C2992 C2993 1.391 . S
C2992 C2994 1.394 . S
C2992 H3008 0.931 . S
C2993 C2992 1.391 . S
C2993 C2997 1.376 . S
C2994 C2992 1.394 . S
C2994 C2995 1.369 . S
C2994 C2998 1.531 . S
C2995 C2994 1.369 . S
C2995 C2996 1.410 . S
C2995 C3003 1.503 . S
C2996 C2995 1.410 . S
C2996 C2997 1.392 . S
C2996 C2999 1.511 . S
C2997 C2993 1.376 . S
C2997 C2996 1.392 . S
C2997 H3009 0.929 . S
C2998 C2994 1.531 . S
C2998 H3010 0.960 . S
C2998 H3011 0.962 . S
C2998 H3012 0.960 . S
C2999 C2996 1.511 . S
C2999 H3013 0.961 . S
C2999 H3014 0.961 . S
C2999 H3015 0.961 . S
C3000 C3001 1.370 . S
C3000 C3002 1.363 . S
C3000 H3016 0.931 . S
C3001 C3000 1.370 . S
C3001 C3005 1.408 . S
C3002 C3000 1.363 . S
C3002 C3003 1.370 . S
C3002 C3006 1.524 . S
C3003 C2995 1.503 . S
C3003 C3002 1.370 . S
C3003 C3004 1.403 . S
C3004 C3003 1.403 . S
C3004 C3005 1.404 . S
C3004 C3007 1.539 . S
C3005 C3001 1.408 . S
C3005 C3004 1.404 . S
C3005 H3017 0.930 . S
C3006 C3002 1.524 . S
C3006 H3018 0.956 . S
C3006 H3019 0.961 . S
C3006 H3020 0.961 . S
C3007 C3004 1.539 . S
C3007 H3021 0.958 . S
C3007 H3022 0.961 . S
C3007 H3023 0.960 . S
H3008 C2992 0.931 . S
H3009 C2997 0.929 . S
H3010 C2998 0.960 . S
H3011 C2998 0.962 . S
H3012 C2998 0.960 . S
H3013 C2999 0.961 . S
H3014 C2999 0.961 . S
H3015 C2999 0.961 . S
H3016 C3000 0.931 . S
H3017 C3005 0.930 . S
H3018 C3006 0.956 . S
H3019 C3006 0.961 . S
H3020 C3006 0.961 . S
H3021 C3007 0.958 . S
H3022 C3007 0.961 . S
H3023 C3007 0.960 . S
C3024 C3025 1.391 . S
C3024 C3026 1.394 . S
C3024 H3040 0.931 . S
C3025 C3024 1.391 . S
C3025 C3029 1.376 . S
C3026 C3024 1.394 . S
C3026 C3027 1.369 . S
C3026 C3030 1.531 . S
C3027 C3026 1.369 . S
C3027 C3028 1.410 . S
C3027 C3035 1.503 . S
C3028 C3027 1.410 . S
C3028 C3029 1.392 . S
C3028 C3031 1.511 . S
C3029 C3025 1.376 . S
C3029 C3028 1.392 . S
C3029 H3041 0.929 . S
C3030 C3026 1.531 . S
C3030 H3042 0.960 . S
C3030 H3043 0.962 . S
C3030 H3044 0.960 . S
C3031 C3028 1.511 . S
C3031 H3045 0.961 . S
C3031 H3046 0.961 . S
C3031 H3047 0.961 . S
C3032 C3033 1.370 . S
C3032 C3034 1.363 . S
C3032 H3048 0.931 . S
C3033 C3032 1.370 . S
C3033 C3037 1.408 . S
C3034 C3032 1.363 . S
C3034 C3035 1.370 . S
C3034 C3038 1.524 . S
C3035 C3027 1.503 . S
C3035 C3034 1.370 . S
C3035 C3036 1.403 . S
C3036 C3035 1.403 . S
C3036 C3037 1.404 . S
C3036 C3039 1.539 . S
C3037 C3033 1.408 . S
C3037 C3036 1.404 . S
C3037 H3049 0.930 . S
C3038 C3034 1.524 . S
C3038 H3050 0.956 . S
C3038 H3051 0.961 . S
C3038 H3052 0.961 . S
C3039 C3036 1.539 . S
C3039 H3053 0.958 . S
C3039 H3054 0.961 . S
C3039 H3055 0.960 . S
H3040 C3024 0.931 . S
H3041 C3029 0.929 . S
H3042 C3030 0.960 . S
H3043 C3030 0.962 . S
H3044 C3030 0.960 . S
H3045 C3031 0.961 . S
H3046 C3031 0.961 . S
H3047 C3031 0.961 . S
H3048 C3032 0.931 . S
H3049 C3037 0.930 . S
H3050 C3038 0.956 . S
H3051 C3038 0.961 . S
H3052 C3038 0.961 . S
H3053 C3039 0.958 . S
H3054 C3039 0.961 . S
H3055 C3039 0.960 . S
C3056 C3057 1.391 . S
C3056 C3058 1.394 . S
C3056 H3072 0.931 . S
C3057 C3056 1.391 . S
C3057 C3061 1.376 . S
C3058 C3056 1.394 . S
C3058 C3059 1.369 . S
C3058 C3062 1.531 . S
C3059 C3058 1.369 . S
C3059 C3060 1.410 . S
C3059 C3067 1.503 . S
C3060 C3059 1.410 . S
C3060 C3061 1.392 . S
C3060 C3063 1.511 . S
C3061 C3057 1.376 . S
C3061 C3060 1.392 . S
C3061 H3073 0.929 . S
C3062 C3058 1.531 . S
C3062 H3074 0.960 . S
C3062 H3075 0.962 . S
C3062 H3076 0.960 . S
C3063 C3060 1.511 . S
C3063 H3077 0.961 . S
C3063 H3078 0.961 . S
C3063 H3079 0.961 . S
C3064 C3065 1.370 . S
C3064 C3066 1.363 . S
C3064 H3080 0.931 . S
C3065 C3064 1.370 . S
C3065 C3069 1.408 . S
C3066 C3064 1.363 . S
C3066 C3067 1.370 . S
C3066 C3070 1.524 . S
C3067 C3059 1.503 . S
C3067 C3066 1.370 . S
C3067 C3068 1.403 . S
C3068 C3067 1.403 . S
C3068 C3069 1.404 . S
C3068 C3071 1.539 . S
C3069 C3065 1.408 . S
C3069 C3068 1.404 . S
C3069 H3081 0.930 . S
C3070 C3066 1.524 . S
C3070 H3082 0.956 . S
C3070 H3083 0.961 . S
C3070 H3084 0.961 . S
C3071 C3068 1.539 . S
C3071 H3085 0.958 . S
C3071 H3086 0.961 . S
C3071 H3087 0.960 . S
H3072 C3056 0.931 . S
H3073 C3061 0.929 . S
H3074 C3062 0.960 . S
H3075 C3062 0.962 . S
H3076 C3062 0.960 . S
H3077 C3063 0.961 . S
H3078 C3063 0.961 . S
H3079 C3063 0.961 . S
H3080 C3064 0.931 . S
H3081 C3069 0.930 . S
H3082 C3070 0.956 . S
H3083 C3070 0.961 . S
H3084 C3070 0.961 . S
H3085 C3071 0.958 . S
H3086 C3071 0.961 . S
H3087 C3071 0.960 . S
C3088 C3089 1.391 . S
C3088 C3090 1.394 . S
C3088 H3104 0.931 . S
C3089 C3088 1.391 . S
C3089 C3093 1.376 . S
C3090 C3088 1.394 . S
C3090 C3091 1.369 . S
C3090 C3094 1.531 . S
C3091 C3090 1.369 . S
C3091 C3092 1.410 . S
C3091 C3099 1.503 . S
C3092 C3091 1.410 . S
C3092 C3093 1.392 . S
C3092 C3095 1.511 . S
C3093 C3089 1.376 . S
C3093 C3092 1.392 . S
C3093 H3105 0.929 . S
C3094 C3090 1.531 . S
C3094 H3106 0.960 . S
C3094 H3107 0.962 . S
C3094 H3108 0.960 . S
C3095 C3092 1.511 . S
C3095 H3109 0.961 . S
C3095 H3110 0.961 . S
C3095 H3111 0.961 . S
C3096 C3097 1.370 . S
C3096 C3098 1.363 . S
C3096 H3112 0.931 . S
C3097 C3096 1.370 . S
C3097 C3101 1.408 . S
C3098 C3096 1.363 . S
C3098 C3099 1.370 . S
C3098 C3102 1.524 . S
C3099 C3091 1.503 . S
C3099 C3098 1.370 . S
C3099 C3100 1.403 . S
C3100 C3099 1.403 . S
C3100 C3101 1.404 . S
C3100 C3103 1.539 . S
C3101 C3097 1.408 . S
C3101 C3100 1.404 . S
C3101 H3113 0.930 . S
C3102 C3098 1.524 . S
C3102 H3114 0.956 . S
C3102 H3115 0.961 . S
C3102 H3116 0.961 . S
C3103 C3100 1.539 . S
C3103 H3117 0.958 . S
C3103 H3118 0.961 . S
C3103 H3119 0.960 . S
H3104 C3088 0.931 . S
H3105 C3093 0.929 . S
H3106 C3094 0.960 . S
H3107 C3094 0.962 . S
H3108 C3094 0.960 . S
H3109 C3095 0.961 . S
H3110 C3095 0.961 . S
H3111 C3095 0.961 . S
H3112 C3096 0.931 . S
H3113 C3101 0.930 . S
H3114 C3102 0.956 . S
H3115 C3102 0.961 . S
H3116 C3102 0.961 . S
H3117 C3103 0.958 . S
H3118 C3103 0.961 . S
H3119 C3103 0.960 . S
C3120 C3121 1.391 . S
C3120 C3122 1.394 . S
C3120 H3136 0.931 1_554 S
C3121 C3120 1.391 . S
C3121 C3125 1.376 . S
C3122 C3120 1.394 . S
C3122 C3123 1.369 . S
C3122 C3126 1.531 1_564 S
C3123 C3122 1.369 . S
C3123 C3124 1.410 . S
C3123 C3131 1.503 . S
C3124 C3123 1.410 . S
C3124 C3125 1.392 . S
C3124 C3127 1.511 . S
C3125 C3121 1.376 . S
C3125 C3124 1.392 . S
C3125 H3137 0.929 . S
C3126 C3122 1.531 1_546 S
C3126 H3138 0.960 . S
C3126 H3139 0.962 . S
C3126 H3140 0.960 . S
C3127 C3124 1.511 . S
C3127 H3141 0.961 . S
C3127 H3142 0.961 . S
C3127 H3143 0.961 . S
C3128 C3129 1.370 1_566 S
C3128 C3130 1.358 1_556 S
C3128 H3144 0.931 . S
C3129 C3128 1.370 1_544 S
C3129 C3133 1.408 . S
C3130 C3128 1.358 1_554 S
C3130 C3131 1.383 . S
C3130 C3134 1.517 1_554 S
C3131 C3123 1.503 . S
C3131 C3130 1.383 . S
C3131 C3132 1.403 1_565 S
C3132 C3131 1.403 1_545 S
C3132 C3133 1.404 . S
C3132 C3135 1.539 . S
C3133 C3129 1.408 . S
C3133 C3132 1.404 . S
C3133 H3145 0.930 . S
C3134 C3130 1.517 1_556 S
C3134 H3146 0.956 . S
C3134 H3147 0.961 . S
C3134 H3148 0.961 . S
C3135 C3132 1.539 . S
C3135 H3149 0.958 . S
C3135 H3150 0.961 . S
C3135 H3151 0.960 . S
H3136 C3120 0.931 1_556 S
H3137 C3125 0.929 . S
H3138 C3126 0.960 . S
H3139 C3126 0.962 . S
H3140 C3126 0.960 . S
H3141 C3127 0.961 . S
H3142 C3127 0.961 . S
H3143 C3127 0.961 . S
H3144 C3128 0.931 . S
H3145 C3133 0.930 . S
H3146 C3134 0.956 . S
H3147 C3134 0.961 . S
H3148 C3134 0.961 . S
H3149 C3135 0.958 . S
H3150 C3135 0.961 . S
H3151 C3135 0.960 . S
C3152 C3153 1.391 . S
C3152 C3154 1.394 . S
C3152 H3168 0.931 . S
C3153 C3152 1.391 . S
C3153 C3157 1.376 . S
C3154 C3152 1.394 . S
C3154 C3155 1.369 . S
C3154 C3158 1.531 . S
C3155 C3154 1.369 . S
C3155 C3156 1.410 . S
C3155 C3163 1.503 . S
C3156 C3155 1.410 . S
C3156 C3157 1.392 . S
C3156 C3159 1.511 . S
C3157 C3153 1.376 . S
C3157 C3156 1.392 . S
C3157 H3169 0.929 . S
C3158 C3154 1.531 . S
C3158 H3170 0.960 . S
C3158 H3171 0.962 . S
C3158 H3172 0.960 . S
C3159 C3156 1.511 . S
C3159 H3173 0.961 . S
C3159 H3174 0.961 . S
C3159 H3175 0.961 . S
C3160 C3161 1.370 . S
C3160 C3162 1.363 . S
C3160 H3176 0.931 . S
C3161 C3160 1.370 . S
C3161 C3165 1.408 . S
C3162 C3160 1.363 . S
C3162 C3163 1.370 . S
C3162 C3166 1.524 . S
C3163 C3155 1.503 . S
C3163 C3162 1.370 . S
C3163 C3164 1.403 . S
C3164 C3163 1.403 . S
C3164 C3165 1.404 . S
C3164 C3167 1.539 . S
C3165 C3161 1.408 . S
C3165 C3164 1.404 . S
C3165 H3177 0.930 . S
C3166 C3162 1.524 . S
C3166 H3178 0.956 . S
C3166 H3179 0.961 . S
C3166 H3180 0.961 . S
C3167 C3164 1.539 . S
C3167 H3181 0.958 . S
C3167 H3182 0.961 . S
C3167 H3183 0.960 . S
H3168 C3152 0.931 . S
H3169 C3157 0.929 . S
H3170 C3158 0.960 . S
H3171 C3158 0.962 . S
H3172 C3158 0.960 . S
H3173 C3159 0.961 . S
H3174 C3159 0.961 . S
H3175 C3159 0.961 . S
H3176 C3160 0.931 . S
H3177 C3165 0.930 . S
H3178 C3166 0.956 . S
H3179 C3166 0.961 . S
H3180 C3166 0.961 . S
H3181 C3167 0.958 . S
H3182 C3167 0.961 . S
H3183 C3167 0.960 . S
C3184 C3185 1.391 . S
C3184 C3186 1.394 . S
C3184 H3200 0.931 . S
C3185 C3184 1.391 . S
C3185 C3189 1.376 1_554 S
C3186 C3184 1.394 . S
C3186 C3187 1.369 . S
C3186 C3190 1.531 . S
C3187 C3186 1.369 . S
C3187 C3188 1.408 . S
C3187 C3195 1.503 . S
C3188 C3187 1.408 . S
C3188 C3189 1.393 1_554 S
C3188 C3191 1.512 1_554 S
C3189 C3185 1.376 1_556 S
C3189 C3188 1.393 1_556 S
C3189 H3201 0.929 . S
C3190 C3186 1.531 . S
C3190 H3202 0.960 . S
C3190 H3203 0.962 . S
C3190 H3204 0.960 . S
C3191 C3188 1.512 1_556 S
C3191 H3205 0.961 . S
C3191 H3206 0.961 . S
C3191 H3207 0.961 . S
C3192 C3193 1.370 . S
C3192 C3194 1.363 . S
C3192 H3208 0.931 . S
C3193 C3192 1.370 . S
C3193 C3197 1.408 . S
C3194 C3192 1.363 . S
C3194 C3195 1.370 . S
C3194 C3198 1.524 . S
C3195 C3187 1.503 . S
C3195 C3194 1.370 . S
C3195 C3196 1.403 . S
C3196 C3195 1.403 . S
C3196 C3197 1.404 . S
C3196 C3199 1.539 . S
C3197 C3193 1.408 . S
C3197 C3196 1.404 . S
C3197 H3209 0.930 . S
C3198 C3194 1.524 . S
C3198 H3210 0.956 . S
C3198 H3211 0.961 . S
C3198 H3212 0.961 . S
C3199 C3196 1.539 . S
C3199 H3213 0.958 . S
C3199 H3214 0.961 . S
C3199 H3215 0.960 . S
H3200 C3184 0.931 . S
H3201 C3189 0.929 . S
H3202 C3190 0.960 . S
H3203 C3190 0.962 . S
H3204 C3190 0.960 . S
H3205 C3191 0.961 . S
H3206 C3191 0.961 . S
H3207 C3191 0.961 . S
H3208 C3192 0.931 . S
H3209 C3197 0.930 . S
H3210 C3198 0.956 . S
H3211 C3198 0.961 . S
H3212 C3198 0.961 . S
H3213 C3199 0.958 . S
H3214 C3199 0.961 . S
H3215 C3199 0.960 . S
C3216 C3217 1.391 . S
C3216 C3218 1.394 . S
C3216 H3232 0.931 . S
C3217 C3216 1.391 . S
C3217 C3221 1.376 . S
C3218 C3216 1.394 . S
C3218 C3219 1.369 . S
C3218 C3222 1.531 . S
C3219 C3218 1.369 . S
C3219 C3220 1.410 . S
C3219 C3227 1.503 . S
C3220 C3219 1.410 . S
C3220 C3221 1.392 . S
C3220 C3223 1.511 . S
C3221 C3217 1.376 . S
C3221 C3220 1.392 . S
C3221 H3233 0.929 . S
C3222 C3218 1.531 . S
C3222 H3234 0.960 . S
C3222 H3235 0.962 . S
C3222 H3236 0.960 . S
C3223 C3220 1.511 . S
C3223 H3237 0.961 . S
C3223 H3238 0.961 . S
C3223 H3239 0.961 . S
C3224 C3225 1.370 . S
C3224 C3226 1.363 . S
C3224 H3240 0.931 . S
C3225 C3224 1.370 . S
C3225 C3229 1.408 . S
C3226 C3224 1.363 . S
C3226 C3227 1.370 . S
C3226 C3230 1.524 . S
C3227 C3219 1.503 . S
C3227 C3226 1.370 . S
C3227 C3228 1.403 . S
C3228 C3227 1.403 . S
C3228 C3229 1.404 . S
C3228 C3231 1.539 . S
C3229 C3225 1.408 . S
C3229 C3228 1.404 . S
C3229 H3241 0.930 . S
C3230 C3226 1.524 . S
C3230 H3242 0.956 . S
C3230 H3243 0.961 . S
C3230 H3244 0.961 . S
C3231 C3228 1.539 . S
C3231 H3245 0.958 . S
C3231 H3246 0.961 . S
C3231 H3247 0.960 . S
H3232 C3216 0.931 . S
H3233 C3221 0.929 . S
H3234 C3222 0.960 . S
H3235 C3222 0.962 . S
H3236 C3222 0.960 . S
H3237 C3223 0.961 . S
H3238 C3223 0.961 . S
H3239 C3223 0.961 . S
H3240 C3224 0.931 . S
H3241 C3229 0.930 . S
H3242 C3230 0.956 . S
H3243 C3230 0.961 . S
H3244 C3230 0.961 . S
H3245 C3231 0.958 . S
H3246 C3231 0.961 . S
H3247 C3231 0.960 . S
C3248 C3249 1.391 . S
C3248 C3250 1.394 . S
C3248 H3264 0.931 . S
C3249 C3248 1.391 . S
C3249 C3253 1.376 . S
C3250 C3248 1.394 . S
C3250 C3251 1.369 . S
C3250 C3254 1.531 . S
C3251 C3250 1.369 . S
C3251 C3252 1.410 . S
C3251 C3259 1.503 . S
C3252 C3251 1.410 . S
C3252 C3253 1.392 . S
C3252 C3255 1.511 . S
C3253 C3249 1.376 . S
C3253 C3252 1.392 . S
C3253 H3265 0.929 . S
C3254 C3250 1.531 . S
C3254 H3266 0.960 . S
C3254 H3267 0.962 . S
C3254 H3268 0.960 . S
C3255 C3252 1.511 . S
C3255 H3269 0.961 . S
C3255 H3270 0.961 . S
C3255 H3271 0.961 . S
C3256 C3257 1.370 . S
C3256 C3258 1.363 . S
C3256 H3272 0.931 . S
C3257 C3256 1.370 . S
C3257 C3261 1.408 . S
C3258 C3256 1.363 . S
C3258 C3259 1.370 . S
C3258 C3262 1.524 . S
C3259 C3251 1.503 . S
C3259 C3258 1.370 . S
C3259 C3260 1.403 . S
C3260 C3259 1.403 . S
C3260 C3261 1.404 . S
C3260 C3263 1.539 . S
C3261 C3257 1.408 . S
C3261 C3260 1.404 . S
C3261 H3273 0.930 . S
C3262 C3258 1.524 . S
C3262 H3274 0.956 . S
C3262 H3275 0.961 . S
C3262 H3276 0.961 . S
C3263 C3260 1.539 . S
C3263 H3277 0.958 . S
C3263 H3278 0.961 . S
C3263 H3279 0.960 . S
H3264 C3248 0.931 . S
H3265 C3253 0.929 . S
H3266 C3254 0.960 . S
H3267 C3254 0.962 . S
H3268 C3254 0.960 . S
H3269 C3255 0.961 . S
H3270 C3255 0.961 . S
H3271 C3255 0.961 . S
H3272 C3256 0.931 . S
H3273 C3261 0.930 . S
H3274 C3262 0.956 . S
H3275 C3262 0.961 . S
H3276 C3262 0.961 . S
H3277 C3263 0.958 . S
H3278 C3263 0.961 . S
H3279 C3263 0.960 . S
C3280 C3281 1.391 . S
C3280 C3282 1.394 . S
C3280 H3296 0.931 . S
C3281 C3280 1.391 . S
C3281 C3285 1.376 . S
C3282 C3280 1.394 . S
C3282 C3283 1.369 . S
C3282 C3286 1.531 . S
C3283 C3282 1.369 . S
C3283 C3284 1.410 . S
C3283 C3291 1.503 . S
C3284 C3283 1.410 . S
C3284 C3285 1.392 . S
C3284 C3287 1.511 . S
C3285 C3281 1.376 . S
C3285 C3284 1.392 . S
C3285 H3297 0.929 . S
C3286 C3282 1.531 . S
C3286 H3298 0.960 . S
C3286 H3299 0.962 . S
C3286 H3300 0.960 . S
C3287 C3284 1.511 . S
C3287 H3301 0.961 . S
C3287 H3302 0.961 . S
C3287 H3303 0.961 . S
C3288 C3289 1.370 . S
C3288 C3290 1.363 . S
C3288 H3304 0.931 . S
C3289 C3288 1.370 . S
C3289 C3293 1.408 . S
C3290 C3288 1.363 . S
C3290 C3291 1.370 . S
C3290 C3294 1.524 . S
C3291 C3283 1.503 . S
C3291 C3290 1.370 . S
C3291 C3292 1.403 . S
C3292 C3291 1.403 . S
C3292 C3293 1.404 . S
C3292 C3295 1.539 . S
C3293 C3289 1.408 . S
C3293 C3292 1.404 . S
C3293 H3305 0.930 . S
C3294 C3290 1.524 . S
C3294 H3306 0.956 . S
C3294 H3307 0.961 . S
C3294 H3308 0.961 . S
C3295 C3292 1.539 . S
C3295 H3309 0.958 . S
C3295 H3310 0.961 . S
C3295 H3311 0.960 . S
H3296 C3280 0.931 . S
H3297 C3285 0.929 . S
H3298 C3286 0.960 . S
H3299 C3286 0.962 . S
H3300 C3286 0.960 . S
H3301 C3287 0.961 . S
H3302 C3287 0.961 . S
H3303 C3287 0.961 . S
H3304 C3288 0.931 . S
H3305 C3293 0.930 . S
H3306 C3294 0.956 . S
H3307 C3294 0.961 . S
H3308 C3294 0.961 . S
H3309 C3295 0.958 . S
H3310 C3295 0.961 . S
H3311 C3295 0.960 . S
C3312 C3313 1.391 . S
C3312 C3314 1.394 . S
C3312 H3328 0.931 . S
C3313 C3312 1.391 . S
C3313 C3317 1.376 . S
C3314 C3312 1.394 . S
C3314 C3315 1.369 . S
C3314 C3318 1.531 . S
C3315 C3314 1.369 . S
C3315 C3316 1.410 . S
C3315 C3323 1.503 . S
C3316 C3315 1.410 . S
C3316 C3317 1.392 . S
C3316 C3319 1.511 . S
C3317 C3313 1.376 . S
C3317 C3316 1.392 . S
C3317 H3329 0.929 . S
C3318 C3314 1.531 . S
C3318 H3330 0.960 . S
C3318 H3331 0.962 . S
C3318 H3332 0.960 . S
C3319 C3316 1.511 . S
C3319 H3333 0.961 . S
C3319 H3334 0.961 . S
C3319 H3335 0.961 . S
C3320 C3321 1.370 . S
C3320 C3322 1.363 . S
C3320 H3336 0.931 . S
C3321 C3320 1.370 . S
C3321 C3325 1.408 . S
C3322 C3320 1.363 . S
C3322 C3323 1.370 . S
C3322 C3326 1.524 . S
C3323 C3315 1.503 . S
C3323 C3322 1.370 . S
C3323 C3324 1.403 . S
C3324 C3323 1.403 . S
C3324 C3325 1.404 . S
C3324 C3327 1.539 . S
C3325 C3321 1.408 . S
C3325 C3324 1.404 . S
C3325 H3337 0.930 . S
C3326 C3322 1.524 . S
C3326 H3338 0.956 . S
C3326 H3339 0.961 . S
C3326 H3340 0.961 . S
C3327 C3324 1.539 . S
C3327 H3341 0.958 . S
C3327 H3342 0.961 . S
C3327 H3343 0.960 . S
H3328 C3312 0.931 . S
H3329 C3317 0.929 . S
H3330 C3318 0.960 . S
H3331 C3318 0.962 . S
H3332 C3318 0.960 . S
H3333 C3319 0.961 . S
H3334 C3319 0.961 . S
H3335 C3319 0.961 . S
H3336 C3320 0.931 . S
H3337 C3325 0.930 . S
H3338 C3326 0.956 . S
H3339 C3326 0.961 . S
H3340 C3326 0.961 . S
H3341 C3327 0.958 . S
H3342 C3327 0.961 . S
H3343 C3327 0.960 . S
C3344 C3345 1.391 . S
C3344 C3346 1.394 . S
C3344 H3360 0.931 . S
C3345 C3344 1.391 . S
C3345 C3349 1.376 . S
C3346 C3344 1.394 . S
C3346 C3347 1.369 . S
C3346 C3350 1.531 . S
C3347 C3346 1.369 . S
C3347 C3348 1.410 . S
C3347 C3355 1.503 . S
C3348 C3347 1.410 . S
C3348 C3349 1.392 . S
C3348 C3351 1.511 . S
C3349 C3345 1.376 . S
C3349 C3348 1.392 . S
C3349 H3361 0.929 . S
C3350 C3346 1.531 . S
C3350 H3362 0.960 . S
C3350 H3363 0.962 . S
C3350 H3364 0.960 . S
C3351 C3348 1.511 . S
C3351 H3365 0.961 . S
C3351 H3366 0.961 . S
C3351 H3367 0.961 . S
C3352 C3353 1.370 . S
C3352 C3354 1.363 . S
C3352 H3368 0.931 . S
C3353 C3352 1.370 . S
C3353 C3357 1.408 . S
C3354 C3352 1.363 . S
C3354 C3355 1.370 . S
C3354 C3358 1.524 . S
C3355 C3347 1.503 . S
C3355 C3354 1.370 . S
C3355 C3356 1.403 . S
C3356 C3355 1.403 . S
C3356 C3357 1.404 . S
C3356 C3359 1.539 . S
C3357 C3353 1.408 . S
C3357 C3356 1.404 . S
C3357 H3369 0.930 . S
C3358 C3354 1.524 . S
C3358 H3370 0.956 . S
C3358 H3371 0.961 . S
C3358 H3372 0.961 . S
C3359 C3356 1.539 . S
C3359 H3373 0.958 . S
C3359 H3374 0.961 1_554 S
C3359 H3375 0.960 . S
H3360 C3344 0.931 . S
H3361 C3349 0.929 . S
H3362 C3350 0.960 . S
H3363 C3350 0.962 . S
H3364 C3350 0.960 . S
H3365 C3351 0.961 . S
H3366 C3351 0.961 . S
H3367 C3351 0.961 . S
H3368 C3352 0.931 . S
H3369 C3357 0.930 . S
H3370 C3358 0.956 . S
H3371 C3358 0.961 . S
H3372 C3358 0.961 . S
H3373 C3359 0.958 . S
H3374 C3359 0.961 1_556 S
H3375 C3359 0.960 . S
C3376 C3377 1.391 . S
C3376 C3378 1.394 . S
C3376 H3392 0.931 . S
C3377 C3376 1.391 . S
C3377 C3381 1.376 . S
C3378 C3376 1.394 . S
C3378 C3379 1.369 . S
C3378 C3382 1.531 . S
C3379 C3378 1.369 . S
C3379 C3380 1.410 . S
C3379 C3387 1.503 . S
C3380 C3379 1.410 . S
C3380 C3381 1.392 . S
C3380 C3383 1.511 . S
C3381 C3377 1.376 . S
C3381 C3380 1.392 . S
C3381 H3393 0.929 . S
C3382 C3378 1.531 . S
C3382 H3394 0.960 . S
C3382 H3395 0.962 . S
C3382 H3396 0.960 . S
C3383 C3380 1.511 . S
C3383 H3397 0.961 . S
C3383 H3398 0.961 . S
C3383 H3399 0.961 . S
C3384 C3385 1.370 . S
C3384 C3386 1.363 . S
C3384 H3400 0.931 . S
C3385 C3384 1.370 . S
C3385 C3389 1.408 . S
C3386 C3384 1.363 . S
C3386 C3387 1.370 . S
C3386 C3390 1.524 . S
C3387 C3379 1.503 . S
C3387 C3386 1.370 . S
C3387 C3388 1.403 . S
C3388 C3387 1.403 . S
C3388 C3389 1.404 . S
C3388 C3391 1.539 . S
C3389 C3385 1.408 . S
C3389 C3388 1.404 . S
C3389 H3401 0.930 . S
C3390 C3386 1.524 . S
C3390 H3402 0.956 . S
C3390 H3403 0.961 . S
C3390 H3404 0.961 . S
C3391 C3388 1.539 . S
C3391 H3405 0.958 . S
C3391 H3406 0.961 . S
C3391 H3407 0.960 . S
H3392 C3376 0.931 . S
H3393 C3381 0.929 . S
H3394 C3382 0.960 . S
H3395 C3382 0.962 . S
H3396 C3382 0.960 . S
H3397 C3383 0.961 . S
H3398 C3383 0.961 . S
H3399 C3383 0.961 . S
H3400 C3384 0.931 . S
H3401 C3389 0.930 . S
H3402 C3390 0.956 . S
H3403 C3390 0.961 . S
H3404 C3390 0.961 . S
H3405 C3391 0.958 . S
H3406 C3391 0.961 . S
H3407 C3391 0.960 . S
C3408 C3409 1.391 . S
C3408 C3410 1.394 . S
C3408 H3424 0.931 . S
C3409 C3408 1.391 . S
C3409 C3413 1.376 . S
C3410 C3408 1.394 . S
C3410 C3411 1.369 . S
C3410 C3414 1.531 . S
C3411 C3410 1.369 . S
C3411 C3412 1.410 . S
C3411 C3419 1.503 . S
C3412 C3411 1.410 . S
C3412 C3413 1.392 . S
C3412 C3415 1.511 . S
C3413 C3409 1.376 . S
C3413 C3412 1.392 . S
C3413 H3425 0.929 . S
C3414 C3410 1.531 . S
C3414 H3426 0.960 . S
C3414 H3427 0.962 . S
C3414 H3428 0.960 . S
C3415 C3412 1.511 . S
C3415 H3429 0.961 . S
C3415 H3430 0.961 . S
C3415 H3431 0.961 . S
C3416 C3417 1.370 . S
C3416 C3418 1.363 . S
C3416 H3432 0.931 . S
C3417 C3416 1.370 . S
C3417 C3421 1.408 . S
C3418 C3416 1.363 . S
C3418 C3419 1.370 . S
C3418 C3422 1.524 . S
C3419 C3411 1.503 . S
C3419 C3418 1.370 . S
C3419 C3420 1.403 . S
C3420 C3419 1.403 . S
C3420 C3421 1.404 . S
C3420 C3423 1.539 . S
C3421 C3417 1.408 . S
C3421 C3420 1.404 . S
C3421 H3433 0.930 . S
C3422 C3418 1.524 . S
C3422 H3434 0.956 . S
C3422 H3435 0.961 . S
C3422 H3436 0.961 . S
C3423 C3420 1.539 . S
C3423 H3437 0.958 . S
C3423 H3438 0.961 . S
C3423 H3439 0.960 . S
H3424 C3408 0.931 . S
H3425 C3413 0.929 . S
H3426 C3414 0.960 . S
H3427 C3414 0.962 . S
H3428 C3414 0.960 . S
H3429 C3415 0.961 . S
H3430 C3415 0.961 . S
H3431 C3415 0.961 . S
H3432 C3416 0.931 . S
H3433 C3421 0.930 . S
H3434 C3422 0.956 . S
H3435 C3422 0.961 . S
H3436 C3422 0.961 . S
H3437 C3423 0.958 . S
H3438 C3423 0.961 . S
H3439 C3423 0.960 . S
C3440 C3441 1.391 . S
C3440 C3442 1.394 . S
C3440 H3456 0.931 . S
C3441 C3440 1.391 . S
C3441 C3445 1.376 . S
C3442 C3440 1.394 . S
C3442 C3443 1.369 . S
C3442 C3446 1.531 . S
C3443 C3442 1.369 . S
C3443 C3444 1.410 . S
C3443 C3451 1.503 . S
C3444 C3443 1.410 . S
C3444 C3445 1.392 . S
C3444 C3447 1.511 . S
C3445 C3441 1.376 . S
C3445 C3444 1.392 . S
C3445 H3457 0.929 . S
C3446 C3442 1.531 . S
C3446 H3458 0.960 . S
C3446 H3459 0.962 . S
C3446 H3460 0.960 . S
C3447 C3444 1.511 . S
C3447 H3461 0.961 . S
C3447 H3462 0.961 . S
C3447 H3463 0.961 . S
C3448 C3449 1.370 . S
C3448 C3450 1.363 . S
C3448 H3464 0.931 . S
C3449 C3448 1.370 . S
C3449 C3453 1.408 . S
C3450 C3448 1.363 . S
C3450 C3451 1.370 . S
C3450 C3454 1.524 . S
C3451 C3443 1.503 . S
C3451 C3450 1.370 . S
C3451 C3452 1.403 . S
C3452 C3451 1.403 . S
C3452 C3453 1.404 . S
C3452 C3455 1.539 . S
C3453 C3449 1.408 . S
C3453 C3452 1.404 . S
C3453 H3465 0.930 . S
C3454 C3450 1.524 . S
C3454 H3466 0.956 . S
C3454 H3467 0.961 . S
C3454 H3468 0.961 . S
C3455 C3452 1.539 . S
C3455 H3469 0.958 . S
C3455 H3470 0.961 . S
C3455 H3471 0.960 . S
H3456 C3440 0.931 . S
H3457 C3445 0.929 . S
H3458 C3446 0.960 . S
H3459 C3446 0.962 . S
H3460 C3446 0.960 . S
H3461 C3447 0.961 . S
H3462 C3447 0.961 . S
H3463 C3447 0.961 . S
H3464 C3448 0.931 . S
H3465 C3453 0.930 . S
H3466 C3454 0.956 . S
H3467 C3454 0.961 . S
H3468 C3454 0.961 . S
H3469 C3455 0.958 . S
H3470 C3455 0.961 . S
H3471 C3455 0.960 . S
C3472 C3473 1.391 . S
C3472 C3474 1.394 . S
C3472 H3488 0.931 . S
C3473 C3472 1.391 . S
C3473 C3477 1.376 . S
C3474 C3472 1.394 . S
C3474 C3475 1.369 . S
C3474 C3478 1.531 . S
C3475 C3474 1.369 . S
C3475 C3476 1.410 . S
C3475 C3483 1.503 . S
C3476 C3475 1.410 . S
C3476 C3477 1.392 . S
C3476 C3479 1.511 . S
C3477 C3473 1.376 . S
C3477 C3476 1.392 . S
C3477 H3489 0.929 . S
C3478 C3474 1.531 . S
C3478 H3490 0.960 . S
C3478 H3491 0.962 . S
C3478 H3492 0.960 . S
C3479 C3476 1.511 . S
C3479 H3493 0.961 . S
C3479 H3494 0.961 . S
C3479 H3495 0.961 . S
C3480 C3481 1.370 . S
C3480 C3482 1.363 . S
C3480 H3496 0.931 . S
C3481 C3480 1.370 . S
C3481 C3485 1.408 . S
C3482 C3480 1.363 . S
C3482 C3483 1.370 . S
C3482 C3486 1.524 . S
C3483 C3475 1.503 . S
C3483 C3482 1.370 . S
C3483 C3484 1.403 . S
C3484 C3483 1.403 . S
C3484 C3485 1.404 . S
C3484 C3487 1.539 . S
C3485 C3481 1.408 . S
C3485 C3484 1.404 . S
C3485 H3497 0.930 . S
C3486 C3482 1.524 . S
C3486 H3498 0.956 . S
C3486 H3499 0.961 . S
C3486 H3500 0.961 . S
C3487 C3484 1.539 . S
C3487 H3501 0.958 . S
C3487 H3502 0.961 . S
C3487 H3503 0.960 . S
H3488 C3472 0.931 . S
H3489 C3477 0.929 . S
H3490 C3478 0.960 . S
H3491 C3478 0.962 . S
H3492 C3478 0.960 . S
H3493 C3479 0.961 . S
H3494 C3479 0.961 . S
H3495 C3479 0.961 . S
H3496 C3480 0.931 . S
H3497 C3485 0.930 . S
H3498 C3486 0.956 . S
H3499 C3486 0.961 . S
H3500 C3486 0.961 . S
H3501 C3487 0.958 . S
H3502 C3487 0.961 . S
H3503 C3487 0.960 . S
C3504 C3505 1.391 . S
C3504 C3506 1.394 . S
C3504 H3520 0.931 . S
C3505 C3504 1.391 . S
C3505 C3509 1.376 . S
C3506 C3504 1.394 . S
C3506 C3507 1.369 . S
C3506 C3510 1.531 . S
C3507 C3506 1.369 . S
C3507 C3508 1.410 . S
C3507 C3515 1.503 . S
C3508 C3507 1.410 . S
C3508 C3509 1.392 . S
C3508 C3511 1.511 . S
C3509 C3505 1.376 . S
C3509 C3508 1.392 . S
C3509 H3521 0.929 . S
C3510 C3506 1.531 . S
C3510 H3522 0.960 . S
C3510 H3523 0.962 . S
C3510 H3524 0.960 . S
C3511 C3508 1.511 . S
C3511 H3525 0.961 . S
C3511 H3526 0.961 . S
C3511 H3527 0.961 . S
C3512 C3513 1.370 . S
C3512 C3514 1.363 . S
C3512 H3528 0.931 . S
C3513 C3512 1.370 . S
C3513 C3517 1.408 . S
C3514 C3512 1.363 . S
C3514 C3515 1.370 . S
C3514 C3518 1.524 . S
C3515 C3507 1.503 . S
C3515 C3514 1.370 . S
C3515 C3516 1.403 . S
C3516 C3515 1.403 . S
C3516 C3517 1.404 . S
C3516 C3519 1.539 . S
C3517 C3513 1.408 . S
C3517 C3516 1.404 . S
C3517 H3529 0.930 . S
C3518 C3514 1.524 . S
C3518 H3530 0.956 . S
C3518 H3531 0.961 . S
C3518 H3532 0.961 . S
C3519 C3516 1.539 . S
C3519 H3533 0.958 . S
C3519 H3534 0.961 . S
C3519 H3535 0.960 . S
H3520 C3504 0.931 . S
H3521 C3509 0.929 . S
H3522 C3510 0.960 . S
H3523 C3510 0.962 . S
H3524 C3510 0.960 . S
H3525 C3511 0.961 . S
H3526 C3511 0.961 . S
H3527 C3511 0.961 . S
H3528 C3512 0.931 . S
H3529 C3517 0.930 . S
H3530 C3518 0.956 . S
H3531 C3518 0.961 . S
H3532 C3518 0.961 . S
H3533 C3519 0.958 . S
H3534 C3519 0.961 . S
H3535 C3519 0.960 . S
C3536 C3537 1.391 . S
C3536 C3538 1.394 . S
C3536 H3552 0.931 . S
C3537 C3536 1.391 . S
C3537 C3541 1.376 . S
C3538 C3536 1.394 . S
C3538 C3539 1.369 . S
C3538 C3542 1.531 . S
C3539 C3538 1.369 . S
C3539 C3540 1.410 . S
C3539 C3547 1.503 . S
C3540 C3539 1.410 . S
C3540 C3541 1.392 . S
C3540 C3543 1.511 . S
C3541 C3537 1.376 . S
C3541 C3540 1.392 . S
C3541 H3553 0.929 . S
C3542 C3538 1.531 . S
C3542 H3554 0.960 . S
C3542 H3555 0.962 . S
C3542 H3556 0.960 . S
C3543 C3540 1.511 . S
C3543 H3557 0.961 . S
C3543 H3558 0.961 . S
C3543 H3559 0.961 . S
C3544 C3545 1.370 . S
C3544 C3546 1.363 . S
C3544 H3560 0.931 . S
C3545 C3544 1.370 . S
C3545 C3549 1.408 . S
C3546 C3544 1.363 . S
C3546 C3547 1.370 . S
C3546 C3550 1.524 . S
C3547 C3539 1.503 . S
C3547 C3546 1.370 . S
C3547 C3548 1.403 . S
C3548 C3547 1.403 . S
C3548 C3549 1.404 . S
C3548 C3551 1.539 . S
C3549 C3545 1.408 . S
C3549 C3548 1.404 . S
C3549 H3561 0.930 . S
C3550 C3546 1.524 . S
C3550 H3562 0.956 . S
C3550 H3563 0.961 . S
C3550 H3564 0.961 . S
C3551 C3548 1.539 . S
C3551 H3565 0.958 . S
C3551 H3566 0.961 . S
C3551 H3567 0.960 . S
H3552 C3536 0.931 . S
H3553 C3541 0.929 . S
H3554 C3542 0.960 . S
H3555 C3542 0.962 . S
H3556 C3542 0.960 . S
H3557 C3543 0.961 . S
H3558 C3543 0.961 . S
H3559 C3543 0.961 . S
H3560 C3544 0.931 . S
H3561 C3549 0.930 . S
H3562 C3550 0.956 . S
H3563 C3550 0.961 . S
H3564 C3550 0.961 . S
H3565 C3551 0.958 . S
H3566 C3551 0.961 . S
H3567 C3551 0.960 . S
C3568 C3569 1.391 . S
C3568 C3570 1.394 . S
C3568 H3584 0.931 . S
C3569 C3568 1.391 . S
C3569 C3573 1.376 . S
C3570 C3568 1.394 . S
C3570 C3571 1.369 . S
C3570 C3574 1.531 . S
C3571 C3570 1.369 . S
C3571 C3572 1.410 . S
C3571 C3579 1.503 . S
C3572 C3571 1.410 . S
C3572 C3573 1.392 . S
C3572 C3575 1.511 . S
C3573 C3569 1.376 . S
C3573 C3572 1.392 . S
C3573 H3585 0.929 . S
C3574 C3570 1.531 . S
C3574 H3586 0.960 . S
C3574 H3587 0.962 . S
C3574 H3588 0.960 . S
C3575 C3572 1.511 . S
C3575 H3589 0.961 . S
C3575 H3590 0.961 . S
C3575 H3591 0.961 . S
C3576 C3577 1.370 . S
C3576 C3578 1.363 . S
C3576 H3592 0.931 . S
C3577 C3576 1.370 . S
C3577 C3581 1.408 . S
C3578 C3576 1.363 . S
C3578 C3579 1.370 . S
C3578 C3582 1.524 . S
C3579 C3571 1.503 . S
C3579 C3578 1.370 . S
C3579 C3580 1.403 . S
C3580 C3579 1.403 . S
C3580 C3581 1.404 . S
C3580 C3583 1.539 . S
C3581 C3577 1.408 . S
C3581 C3580 1.404 . S
C3581 H3593 0.930 . S
C3582 C3578 1.524 . S
C3582 H3594 0.956 . S
C3582 H3595 0.961 . S
C3582 H3596 0.961 . S
C3583 C3580 1.539 . S
C3583 H3597 0.958 . S
C3583 H3598 0.961 . S
C3583 H3599 0.960 . S
H3584 C3568 0.931 . S
H3585 C3573 0.929 . S
H3586 C3574 0.960 . S
H3587 C3574 0.962 . S
H3588 C3574 0.960 . S
H3589 C3575 0.961 . S
H3590 C3575 0.961 . S
H3591 C3575 0.961 . S
H3592 C3576 0.931 . S
H3593 C3581 0.930 . S
H3594 C3582 0.956 . S
H3595 C3582 0.961 . S
H3596 C3582 0.961 . S
H3597 C3583 0.958 . S
H3598 C3583 0.961 . S
H3599 C3583 0.960 . S
C3600 C3601 1.391 . S
C3600 C3602 1.394 . S
C3600 H3616 0.931 . S
C3601 C3600 1.391 . S
C3601 C3605 1.376 . S
C3602 C3600 1.394 . S
C3602 C3603 1.369 . S
C3602 C3606 1.531 . S
C3603 C3602 1.369 . S
C3603 C3604 1.410 . S
C3603 C3611 1.503 . S
C3604 C3603 1.410 . S
C3604 C3605 1.392 . S
C3604 C3607 1.511 1_655 S
C3605 C3601 1.376 . S
C3605 C3604 1.392 . S
C3605 H3617 0.929 . S
C3606 C3602 1.531 . S
C3606 H3618 0.960 . S
C3606 H3619 0.962 . S
C3606 H3620 0.960 . S
C3607 C3604 1.511 1_455 S
C3607 H3621 0.961 . S
C3607 H3622 0.961 . S
C3607 H3623 0.961 . S
C3608 C3609 1.370 . S
C3608 C3610 1.363 . S
C3608 H3624 0.931 . S
C3609 C3608 1.370 . S
C3609 C3613 1.408 . S
C3610 C3608 1.363 . S
C3610 C3611 1.370 1_455 S
C3610 C3614 1.524 . S
C3611 C3603 1.503 . S
C3611 C3610 1.370 1_655 S
C3611 C3612 1.403 . S
C3612 C3611 1.403 . S
C3612 C3613 1.404 1_655 S
C3612 C3615 1.539 . S
C3613 C3609 1.408 . S
C3613 C3612 1.404 1_455 S
C3613 H3625 0.930 . S
C3614 C3610 1.524 . S
C3614 H3626 0.956 1_455 S
C3614 H3627 0.961 . S
C3614 H3628 0.961 . S
C3615 C3612 1.539 . S
C3615 H3629 0.958 . S
C3615 H3630 0.961 . S
C3615 H3631 0.960 . S
H3616 C3600 0.931 . S
H3617 C3605 0.929 . S
H3618 C3606 0.960 . S
H3619 C3606 0.962 . S
H3620 C3606 0.960 . S
H3621 C3607 0.961 . S
H3622 C3607 0.961 . S
H3623 C3607 0.961 . S
H3624 C3608 0.931 . S
H3625 C3613 0.930 . S
H3626 C3614 0.956 1_655 S
H3627 C3614 0.961 . S
H3628 C3614 0.961 . S
H3629 C3615 0.958 . S
H3630 C3615 0.961 . S
H3631 C3615 0.960 . S
C3632 C3633 1.391 . S
C3632 C3634 1.394 . S
C3632 H3648 0.931 . S
C3633 C3632 1.391 . S
C3633 C3637 1.376 . S
C3634 C3632 1.394 . S
C3634 C3635 1.369 . S
C3634 C3638 1.531 . S
C3635 C3634 1.369 . S
C3635 C3636 1.410 . S
C3635 C3643 1.503 . S
C3636 C3635 1.410 . S
C3636 C3637 1.392 . S
C3636 C3639 1.511 . S
C3637 C3633 1.376 . S
C3637 C3636 1.392 . S
C3637 H3649 0.929 . S
C3638 C3634 1.531 . S
C3638 H3650 0.960 . S
C3638 H3651 0.962 . S
C3638 H3652 0.960 . S
C3639 C3636 1.511 . S
C3639 H3653 0.961 . S
C3639 H3654 0.961 . S
C3639 H3655 0.961 . S
C3640 C3641 1.370 . S
C3640 C3642 1.363 . S
C3640 H3656 0.931 . S
C3641 C3640 1.370 . S
C3641 C3645 1.408 . S
C3642 C3640 1.363 . S
C3642 C3643 1.370 . S
C3642 C3646 1.524 . S
C3643 C3635 1.503 . S
C3643 C3642 1.370 . S
C3643 C3644 1.403 . S
C3644 C3643 1.403 . S
C3644 C3645 1.404 . S
C3644 C3647 1.539 . S
C3645 C3641 1.408 . S
C3645 C3644 1.404 . S
C3645 H3657 0.930 . S
C3646 C3642 1.524 . S
C3646 H3658 0.956 . S
C3646 H3659 0.961 . S
C3646 H3660 0.961 . S
C3647 C3644 1.539 . S
C3647 H3661 0.958 . S
C3647 H3662 0.961 . S
C3647 H3663 0.960 . S
H3648 C3632 0.931 . S
H3649 C3637 0.929 . S
H3650 C3638 0.960 . S
H3651 C3638 0.962 . S
H3652 C3638 0.960 . S
H3653 C3639 0.961 . S
H3654 C3639 0.961 . S
H3655 C3639 0.961 . S
H3656 C3640 0.931 . S
H3657 C3645 0.930 . S
H3658 C3646 0.956 . S
H3659 C3646 0.961 . S
H3660 C3646 0.961 . S
H3661 C3647 0.958 . S
H3662 C3647 0.961 . S
H3663 C3647 0.960 . S
C3664 C3665 1.391 . S
C3664 C3666 1.394 . S
C3664 H3680 0.931 . S
C3665 C3664 1.391 . S
C3665 C3669 1.376 . S
C3666 C3664 1.394 . S
C3666 C3667 1.369 . S
C3666 C3670 1.531 . S
C3667 C3666 1.369 . S
C3667 C3668 1.410 . S
C3667 C3675 1.503 . S
C3668 C3667 1.410 . S
C3668 C3669 1.392 . S
C3668 C3671 1.511 . S
C3669 C3665 1.376 . S
C3669 C3668 1.392 . S
C3669 H3681 0.929 . S
C3670 C3666 1.531 . S
C3670 H3682 0.960 . S
C3670 H3683 0.962 . S
C3670 H3684 0.960 . S
C3671 C3668 1.511 . S
C3671 H3685 0.961 . S
C3671 H3686 0.961 . S
C3671 H3687 0.961 . S
C3672 C3673 1.370 . S
C3672 C3674 1.363 . S
C3672 H3688 0.931 . S
C3673 C3672 1.370 . S
C3673 C3677 1.408 . S
C3674 C3672 1.363 . S
C3674 C3675 1.370 . S
C3674 C3678 1.524 . S
C3675 C3667 1.503 . S
C3675 C3674 1.370 . S
C3675 C3676 1.403 . S
C3676 C3675 1.403 . S
C3676 C3677 1.404 . S
C3676 C3679 1.539 . S
C3677 C3673 1.408 . S
C3677 C3676 1.404 . S
C3677 H3689 0.930 . S
C3678 C3674 1.524 . S
C3678 H3690 0.956 . S
C3678 H3691 0.961 . S
C3678 H3692 0.961 . S
C3679 C3676 1.539 . S
C3679 H3693 0.958 . S
C3679 H3694 0.961 . S
C3679 H3695 0.960 . S
H3680 C3664 0.931 . S
H3681 C3669 0.929 . S
H3682 C3670 0.960 . S
H3683 C3670 0.962 . S
H3684 C3670 0.960 . S
H3685 C3671 0.961 . S
H3686 C3671 0.961 . S
H3687 C3671 0.961 . S
H3688 C3672 0.931 . S
H3689 C3677 0.930 . S
H3690 C3678 0.956 . S
H3691 C3678 0.961 . S
H3692 C3678 0.961 . S
H3693 C3679 0.958 . S
H3694 C3679 0.961 . S
H3695 C3679 0.960 . S
C3696 C3697 1.391 . S
C3696 C3698 1.394 . S
C3696 H3712 0.931 . S
C3697 C3696 1.391 . S
C3697 C3701 1.376 . S
C3698 C3696 1.394 . S
C3698 C3699 1.369 . S
C3698 C3702 1.531 . S
C3699 C3698 1.369 . S
C3699 C3700 1.410 . S
C3699 C3707 1.503 . S
C3700 C3699 1.410 . S
C3700 C3701 1.392 . S
C3700 C3703 1.511 . S
C3701 C3697 1.376 . S
C3701 C3700 1.392 . S
C3701 H3713 0.929 . S
C3702 C3698 1.531 . S
C3702 H3714 0.960 . S
C3702 H3715 0.962 . S
C3702 H3716 0.960 . S
C3703 C3700 1.511 . S
C3703 H3717 0.961 . S
C3703 H3718 0.961 . S
C3703 H3719 0.961 . S
C3704 C3705 1.370 . S
C3704 C3706 1.363 . S
C3704 H3720 0.931 . S
C3705 C3704 1.370 . S
C3705 C3709 1.408 . S
C3706 C3704 1.363 . S
C3706 C3707 1.370 . S
C3706 C3710 1.524 . S
C3707 C3699 1.503 . S
C3707 C3706 1.370 . S
C3707 C3708 1.403 . S
C3708 C3707 1.403 . S
C3708 C3709 1.404 . S
C3708 C3711 1.539 . S
C3709 C3705 1.408 . S
C3709 C3708 1.404 . S
C3709 H3721 0.930 . S
C3710 C3706 1.524 . S
C3710 H3722 0.956 . S
C3710 H3723 0.961 . S
C3710 H3724 0.961 . S
C3711 C3708 1.539 . S
C3711 H3725 0.958 . S
C3711 H3726 0.961 . S
C3711 H3727 0.960 . S
H3712 C3696 0.931 . S
H3713 C3701 0.929 . S
H3714 C3702 0.960 . S
H3715 C3702 0.962 . S
H3716 C3702 0.960 . S
H3717 C3703 0.961 . S
H3718 C3703 0.961 . S
H3719 C3703 0.961 . S
H3720 C3704 0.931 . S
H3721 C3709 0.930 . S
H3722 C3710 0.956 . S
H3723 C3710 0.961 . S
H3724 C3710 0.961 . S
H3725 C3711 0.958 . S
H3726 C3711 0.961 . S
H3727 C3711 0.960 . S
C3728 C3729 1.391 . S
C3728 C3730 1.394 . S
C3728 H3744 0.931 . S
C3729 C3728 1.391 . S
C3729 C3733 1.376 . S
C3730 C3728 1.394 . S
C3730 C3731 1.369 . S
C3730 C3734 1.545 . S
C3731 C3730 1.369 . S
C3731 C3732 1.410 . S
C3731 C3739 1.503 . S
C3732 C3731 1.410 . S
C3732 C3733 1.392 . S
C3732 C3735 1.511 . S
C3733 C3729 1.376 . S
C3733 C3732 1.392 . S
C3733 H3745 0.929 . S
C3734 C3730 1.545 . S
C3734 H3746 0.946 1_655 S
C3734 H3747 0.971 . S
C3734 H3748 0.952 1_655 S
C3735 C3732 1.511 . S
C3735 H3749 0.961 . S
C3735 H3750 0.961 . S
C3735 H3751 0.961 . S
C3736 C3737 1.370 . S
C3736 C3738 1.363 . S
C3736 H3752 0.931 . S
C3737 C3736 1.370 . S
C3737 C3741 1.408 . S
C3738 C3736 1.363 . S
C3738 C3739 1.370 . S
C3738 C3742 1.524 . S
C3739 C3731 1.503 . S
C3739 C3738 1.370 . S
C3739 C3740 1.403 . S
C3740 C3739 1.403 . S
C3740 C3741 1.404 . S
C3740 C3743 1.530 1_655 S
C3741 C3737 1.408 . S
C3741 C3740 1.404 . S
C3741 H3753 0.930 1_655 S
C3742 C3738 1.524 . S
C3742 H3754 0.956 . S
C3742 H3755 0.961 . S
C3742 H3756 0.961 . S
C3743 C3740 1.530 1_455 S
C3743 H3757 0.971 . S
C3743 H3758 0.970 . S
C3743 H3759 0.946 1_455 S
H3744 C3728 0.931 . S
H3745 C3733 0.929 . S
H3746 C3734 0.946 1_455 S
H3747 C3734 0.971 . S
H3748 C3734 0.952 1_455 S
H3749 C3735 0.961 . S
H3750 C3735 0.961 . S
H3751 C3735 0.961 . S
H3752 C3736 0.931 . S
H3753 C3741 0.930 1_455 S
H3754 C3742 0.956 . S
H3755 C3742 0.961 . S
H3756 C3742 0.961 . S
H3757 C3743 0.971 . S
H3758 C3743 0.970 . S
H3759 C3743 0.946 1_655 S
C3760 C3761 1.391 . S
C3760 C3762 1.394 . S
C3760 H3776 0.931 . S
C3761 C3760 1.391 . S
C3761 C3765 1.376 . S
C3762 C3760 1.394 . S
C3762 C3763 1.369 . S
C3762 C3766 1.531 . S
C3763 C3762 1.369 . S
C3763 C3764 1.410 . S
C3763 C3771 1.503 . S
C3764 C3763 1.410 . S
C3764 C3765 1.392 . S
C3764 C3767 1.511 . S
C3765 C3761 1.376 . S
C3765 C3764 1.392 . S
C3765 H3777 0.929 . S
C3766 C3762 1.531 . S
C3766 H3778 0.960 . S
C3766 H3779 0.962 . S
C3766 H3780 0.960 . S
C3767 C3764 1.511 . S
C3767 H3781 0.961 . S
C3767 H3782 0.961 . S
C3767 H3783 0.961 . S
C3768 C3769 1.370 . S
C3768 C3770 1.363 . S
C3768 H3784 0.931 . S
C3769 C3768 1.370 . S
C3769 C3773 1.408 . S
C3770 C3768 1.363 . S
C3770 C3771 1.370 . S
C3770 C3774 1.524 . S
C3771 C3763 1.503 . S
C3771 C3770 1.370 . S
C3771 C3772 1.403 . S
C3772 C3771 1.403 . S
C3772 C3773 1.404 . S
C3772 C3775 1.539 . S
C3773 C3769 1.408 . S
C3773 C3772 1.404 . S
C3773 H3785 0.930 . S
C3774 C3770 1.524 . S
C3774 H3786 0.956 . S
C3774 H3787 0.961 . S
C3774 H3788 0.961 . S
C3775 C3772 1.539 . S
C3775 H3789 0.958 . S
C3775 H3790 0.961 . S
C3775 H3791 0.960 . S
H3776 C3760 0.931 . S
H3777 C3765 0.929 . S
H3778 C3766 0.960 . S
H3779 C3766 0.962 . S
H3780 C3766 0.960 . S
H3781 C3767 0.961 . S
H3782 C3767 0.961 . S
H3783 C3767 0.961 . S
H3784 C3768 0.931 . S
H3785 C3773 0.930 . S
H3786 C3774 0.956 . S
H3787 C3774 0.961 . S
H3788 C3774 0.961 . S
H3789 C3775 0.958 . S
H3790 C3775 0.961 . S
H3791 C3775 0.960 . S
C3792 C3793 1.391 . S
C3792 C3794 1.394 . S
C3792 H3808 0.931 . S
C3793 C3792 1.391 . S
C3793 C3797 1.376 . S
C3794 C3792 1.394 . S
C3794 C3795 1.369 . S
C3794 C3798 1.531 . S
C3795 C3794 1.369 . S
C3795 C3796 1.410 . S
C3795 C3803 1.503 . S
C3796 C3795 1.410 . S
C3796 C3797 1.392 . S
C3796 C3799 1.511 . S
C3797 C3793 1.376 . S
C3797 C3796 1.392 . S
C3797 H3809 0.929 . S
C3798 C3794 1.531 . S
C3798 H3810 0.960 . S
C3798 H3811 0.962 . S
C3798 H3812 0.960 . S
C3799 C3796 1.511 . S
C3799 H3813 0.961 . S
C3799 H3814 0.961 . S
C3799 H3815 0.961 . S
C3800 C3801 1.370 . S
C3800 C3802 1.363 . S
C3800 H3816 0.931 . S
C3801 C3800 1.370 . S
C3801 C3805 1.408 . S
C3802 C3800 1.363 . S
C3802 C3803 1.370 . S
C3802 C3806 1.524 . S
C3803 C3795 1.503 . S
C3803 C3802 1.370 . S
C3803 C3804 1.403 . S
C3804 C3803 1.403 . S
C3804 C3805 1.404 . S
C3804 C3807 1.539 . S
C3805 C3801 1.408 . S
C3805 C3804 1.404 . S
C3805 H3817 0.930 . S
C3806 C3802 1.524 . S
C3806 H3818 0.956 . S
C3806 H3819 0.961 . S
C3806 H3820 0.961 . S
C3807 C3804 1.539 . S
C3807 H3821 0.958 . S
C3807 H3822 0.961 . S
C3807 H3823 0.960 . S
H3808 C3792 0.931 . S
H3809 C3797 0.929 . S
H3810 C3798 0.960 . S
H3811 C3798 0.962 . S
H3812 C3798 0.960 . S
H3813 C3799 0.961 . S
H3814 C3799 0.961 . S
H3815 C3799 0.961 . S
H3816 C3800 0.931 . S
H3817 C3805 0.930 . S
H3818 C3806 0.956 . S
H3819 C3806 0.961 . S
H3820 C3806 0.961 . S
H3821 C3807 0.958 . S
H3822 C3807 0.961 . S
H3823 C3807 0.960 . S
C3824 C3825 1.391 . S
C3824 C3826 1.394 . S
C3824 H3840 0.931 . S
C3825 C3824 1.391 . S
C3825 C3829 1.376 . S
C3826 C3824 1.394 . S
C3826 C3827 1.369 . S
C3826 C3830 1.531 . S
C3827 C3826 1.369 . S
C3827 C3828 1.410 . S
C3827 C3835 1.503 . S
C3828 C3827 1.410 . S
C3828 C3829 1.392 . S
C3828 C3831 1.511 . S
C3829 C3825 1.376 . S
C3829 C3828 1.392 . S
C3829 H3841 0.929 . S
C3830 C3826 1.531 . S
C3830 H3842 0.960 . S
C3830 H3843 0.962 . S
C3830 H3844 0.960 . S
C3831 C3828 1.511 . S
C3831 H3845 0.961 . S
C3831 H3846 0.961 . S
C3831 H3847 0.961 . S
C3832 C3833 1.368 1_545 S
C3832 C3834 1.363 1_545 S
C3832 H3848 0.931 . S
C3833 C3832 1.368 1_565 S
C3833 C3837 1.413 . S
C3834 C3832 1.363 1_565 S
C3834 C3835 1.370 . S
C3834 C3838 1.524 1_565 S
C3835 C3827 1.503 . S
C3835 C3834 1.370 . S
C3835 C3836 1.403 . S
C3836 C3835 1.403 . S
C3836 C3837 1.404 . S
C3836 C3839 1.539 . S
C3837 C3833 1.413 . S
C3837 C3836 1.404 . S
C3837 H3849 0.930 . S
C3838 C3834 1.524 1_545 S
C3838 H3850 0.956 1_545 S
C3838 H3851 0.961 1_545 S
C3838 H3852 0.961 . S
C3839 C3836 1.539 . S
C3839 H3853 0.958 . S
C3839 H3854 0.961 . S
C3839 H3855 0.960 . S
H3840 C3824 0.931 . S
H3841 C3829 0.929 . S
H3842 C3830 0.960 . S
H3843 C3830 0.962 . S
H3844 C3830 0.960 . S
H3845 C3831 0.961 . S
H3846 C3831 0.961 . S
H3847 C3831 0.961 . S
H3848 C3832 0.931 . S
H3849 C3837 0.930 . S
H3850 C3838 0.956 1_565 S
H3851 C3838 0.961 1_565 S
H3852 C3838 0.961 . S
H3853 C3839 0.958 . S
H3854 C3839 0.961 . S
H3855 C3839 0.960 . S
C3856 C3857 1.391 . S
C3856 C3858 1.394 . S
C3856 H3872 0.931 . S
C3857 C3856 1.391 . S
C3857 C3861 1.376 . S
C3858 C3856 1.394 . S
C3858 C3859 1.369 . S
C3858 C3862 1.531 . S
C3859 C3858 1.369 . S
C3859 C3860 1.410 . S
C3859 C3867 1.503 . S
C3860 C3859 1.410 . S
C3860 C3861 1.392 . S
C3860 C3863 1.511 . S
C3861 C3857 1.376 . S
C3861 C3860 1.392 . S
C3861 H3873 0.929 . S
C3862 C3858 1.531 . S
C3862 H3874 0.960 . S
C3862 H3875 0.962 . S
C3862 H3876 0.960 . S
C3863 C3860 1.511 . S
C3863 H3877 0.961 . S
C3863 H3878 0.961 . S
C3863 H3879 0.961 . S
C3864 C3865 1.370 . S
C3864 C3866 1.363 . S
C3864 H3880 0.931 . S
C3865 C3864 1.370 . S
C3865 C3869 1.408 . S
C3866 C3864 1.363 . S
C3866 C3867 1.370 . S
C3866 C3870 1.524 . S
C3867 C3859 1.503 . S
C3867 C3866 1.370 . S
C3867 C3868 1.403 . S
C3868 C3867 1.403 . S
C3868 C3869 1.404 . S
C3868 C3871 1.539 . S
C3869 C3865 1.408 . S
C3869 C3868 1.404 . S
C3869 H3881 0.930 . S
C3870 C3866 1.524 . S
C3870 H3882 0.956 . S
C3870 H3883 0.961 . S
C3870 H3884 0.961 . S
C3871 C3868 1.539 . S
C3871 H3885 0.958 . S
C3871 H3886 0.961 . S
C3871 H3887 0.960 . S
H3872 C3856 0.931 . S
H3873 C3861 0.929 . S
H3874 C3862 0.960 . S
H3875 C3862 0.962 . S
H3876 C3862 0.960 . S
H3877 C3863 0.961 . S
H3878 C3863 0.961 . S
H3879 C3863 0.961 . S
H3880 C3864 0.931 . S
H3881 C3869 0.930 . S
H3882 C3870 0.956 . S
H3883 C3870 0.961 . S
H3884 C3870 0.961 . S
H3885 C3871 0.958 . S
H3886 C3871 0.961 . S
H3887 C3871 0.960 . S
C3888 C3889 1.391 . S
C3888 C3890 1.394 . S
C3888 H3904 0.931 . S
C3889 C3888 1.391 . S
C3889 C3893 1.376 1_554 S
C3890 C3888 1.394 . S
C3890 C3891 1.369 . S
C3890 C3894 1.531 . S
C3891 C3890 1.369 . S
C3891 C3892 1.394 1_554 S
C3891 C3899 1.503 . S
C3892 C3891 1.394 1_556 S
C3892 C3893 1.396 . S
C3892 C3895 1.523 . S
C3893 C3889 1.376 1_556 S
C3893 C3892 1.396 . S
C3893 H3905 0.929 . S
C3894 C3890 1.531 . S
C3894 H3906 0.960 . S
C3894 H3907 0.962 . S
C3894 H3908 0.960 . S
C3895 C3892 1.523 . S
C3895 H3909 0.961 . S
C3895 H3910 0.961 . S
C3895 H3911 0.961 . S
C3896 C3897 1.370 1_556 S
C3896 C3898 1.363 . S
C3896 H3912 0.931 . S
C3897 C3896 1.370 1_554 S
C3897 C3901 1.408 . S
C3898 C3896 1.363 . S
C3898 C3899 1.370 1_556 S
C3898 C3902 1.524 . S
C3899 C3891 1.503 . S
C3899 C3898 1.370 1_554 S
C3899 C3900 1.403 . S
C3900 C3899 1.403 . S
C3900 C3901 1.404 . S
C3900 C3903 1.539 . S
C3901 C3897 1.408 . S
C3901 C3900 1.404 . S
C3901 H3913 0.930 . S
C3902 C3898 1.524 . S
C3902 H3914 0.956 . S
C3902 H3915 0.961 . S
C3902 H3916 0.961 . S
C3903 C3900 1.539 . S
C3903 H3917 0.958 . S
C3903 H3918 0.961 . S
C3903 H3919 0.960 . S
H3904 C3888 0.931 . S
H3905 C3893 0.929 . S
H3906 C3894 0.960 . S
H3907 C3894 0.962 . S
H3908 C3894 0.960 . S
H3909 C3895 0.961 . S
H3910 C3895 0.961 . S
H3911 C3895 0.961 . S
H3912 C3896 0.931 . S
H3913 C3901 0.930 . S
H3914 C3902 0.956 . S
H3915 C3902 0.961 . S
H3916 C3902 0.961 . S
H3917 C3903 0.958 . S
H3918 C3903 0.961 . S
H3919 C3903 0.960 . S
C3920 C3921 1.391 . S
C3920 C3922 1.394 . S
C3920 H3936 0.931 . S
C3921 C3920 1.391 . S
C3921 C3925 1.376 . S
C3922 C3920 1.394 . S
C3922 C3923 1.369 . S
C3922 C3926 1.531 . S
C3923 C3922 1.369 . S
C3923 C3924 1.410 . S
C3923 C3931 1.503 . S
C3924 C3923 1.410 . S
C3924 C3925 1.392 . S
C3924 C3927 1.511 . S
C3925 C3921 1.376 . S
C3925 C3924 1.392 . S
C3925 H3937 0.929 . S
C3926 C3922 1.531 . S
C3926 H3938 0.960 . S
C3926 H3939 0.962 . S
C3926 H3940 0.960 . S
C3927 C3924 1.511 . S
C3927 H3941 0.961 . S
C3927 H3942 0.961 . S
C3927 H3943 0.961 . S
C3928 C3929 1.370 . S
C3928 C3930 1.363 . S
C3928 H3944 0.931 . S
C3929 C3928 1.370 . S
C3929 C3933 1.408 . S
C3930 C3928 1.363 . S
C3930 C3931 1.370 . S
C3930 C3934 1.524 . S
C3931 C3923 1.503 . S
C3931 C3930 1.370 . S
C3931 C3932 1.403 . S
C3932 C3931 1.403 . S
C3932 C3933 1.404 . S
C3932 C3935 1.539 . S
C3933 C3929 1.408 . S
C3933 C3932 1.404 . S
C3933 H3945 0.930 . S
C3934 C3930 1.524 . S
C3934 H3946 0.956 . S
C3934 H3947 0.961 . S
C3934 H3948 0.961 . S
C3935 C3932 1.539 . S
C3935 H3949 0.958 . S
C3935 H3950 0.961 . S
C3935 H3951 0.960 . S
H3936 C3920 0.931 . S
H3937 C3925 0.929 . S
H3938 C3926 0.960 . S
H3939 C3926 0.962 . S
H3940 C3926 0.960 . S
H3941 C3927 0.961 . S
H3942 C3927 0.961 . S
H3943 C3927 0.961 . S
H3944 C3928 0.931 . S
H3945 C3933 0.930 . S
H3946 C3934 0.956 . S
H3947 C3934 0.961 . S
H3948 C3934 0.961 . S
H3949 C3935 0.958 . S
H3950 C3935 0.961 . S
H3951 C3935 0.960 . S
C3952 C3953 1.391 . S
C3952 C3954 1.394 1_554 S
C3952 H3968 0.931 1_554 S
C3953 C3952 1.391 . S
C3953 C3957 1.376 . S
C3954 C3952 1.394 1_556 S
C3954 C3955 1.369 1_556 S
C3954 C3958 1.531 . S
C3955 C3954 1.369 1_554 S
C3955 C3956 1.410 . S
C3955 C3963 1.503 1_554 S
C3956 C3955 1.410 . S
C3956 C3957 1.392 . S
C3956 C3959 1.511 . S
C3957 C3953 1.376 . S
C3957 C3956 1.392 . S
C3957 H3969 0.929 . S
C3958 C3954 1.531 . S
C3958 H3970 0.960 . S
C3958 H3971 0.962 . S
C3958 H3972 0.960 . S
C3959 C3956 1.511 . S
C3959 H3973 0.961 . S
C3959 H3974 0.961 . S
C3959 H3975 0.961 . S
C3960 C3961 1.370 . S
C3960 C3962 1.363 . S
C3960 H3976 0.931 . S
C3961 C3960 1.370 . S
C3961 C3965 1.408 1_556 S
C3962 C3960 1.363 . S
C3962 C3963 1.370 . S
C3962 C3966 1.524 . S
C3963 C3955 1.503 1_556 S
C3963 C3962 1.370 . S
C3963 C3964 1.403 1_556 S
C3964 C3963 1.403 1_554 S
C3964 C3965 1.404 . S
C3964 C3967 1.539 . S
C3965 C3961 1.408 1_554 S
C3965 C3964 1.404 . S
C3965 H3977 0.930 . S
C3966 C3962 1.524 . S
C3966 H3978 0.956 . S
C3966 H3979 0.961 . S
C3966 H3980 0.961 . S
C3967 C3964 1.539 . S
C3967 H3981 0.958 . S
C3967 H3982 0.961 . S
C3967 H3983 0.960 . S
H3968 C3952 0.931 1_556 S
H3969 C3957 0.929 . S
H3970 C3958 0.960 . S
H3971 C3958 0.962 . S
H3972 C3958 0.960 . S
H3973 C3959 0.961 . S
H3974 C3959 0.961 . S
H3975 C3959 0.961 . S
H3976 C3960 0.931 . S
H3977 C3965 0.930 . S
H3978 C3966 0.956 . S
H3979 C3966 0.961 . S
H3980 C3966 0.961 . S
H3981 C3967 0.958 . S
H3982 C3967 0.961 . S
H3983 C3967 0.960 . S
C3984 C3985 1.391 . S
C3984 C3986 1.394 . S
C3984 H4000 0.931 . S
C3985 C3984 1.391 . S
C3985 C3989 1.376 . S
C3986 C3984 1.394 . S
C3986 C3987 1.369 . S
C3986 C3990 1.531 . S
C3987 C3986 1.369 . S
C3987 C3988 1.410 . S
C3987 C3995 1.503 . S
C3988 C3987 1.410 . S
C3988 C3989 1.392 . S
C3988 C3991 1.511 . S
C3989 C3985 1.376 . S
C3989 C3988 1.392 . S
C3989 H4001 0.929 . S
C3990 C3986 1.531 . S
C3990 H4002 0.960 . S
C3990 H4003 0.962 . S
C3990 H4004 0.960 . S
C3991 C3988 1.511 . S
C3991 H4005 0.961 . S
C3991 H4006 0.961 . S
C3991 H4007 0.961 . S
C3992 C3993 1.370 . S
C3992 C3994 1.363 . S
C3992 H4008 0.931 . S
C3993 C3992 1.370 . S
C3993 C3997 1.408 . S
C3994 C3992 1.363 . S
C3994 C3995 1.370 . S
C3994 C3998 1.524 . S
C3995 C3987 1.503 . S
C3995 C3994 1.370 . S
C3995 C3996 1.403 . S
C3996 C3995 1.403 . S
C3996 C3997 1.404 . S
C3996 C3999 1.539 . S
C3997 C3993 1.408 . S
C3997 C3996 1.404 . S
C3997 H4009 0.930 . S
C3998 C3994 1.524 . S
C3998 H4010 0.956 . S
C3998 H4011 0.961 . S
C3998 H4012 0.961 . S
C3999 C3996 1.539 . S
C3999 H4013 0.958 . S
C3999 H4014 0.961 . S
C3999 H4015 0.960 . S
H4000 C3984 0.931 . S
H4001 C3989 0.929 . S
H4002 C3990 0.960 . S
H4003 C3990 0.962 . S
H4004 C3990 0.960 . S
H4005 C3991 0.961 . S
H4006 C3991 0.961 . S
H4007 C3991 0.961 . S
H4008 C3992 0.931 . S
H4009 C3997 0.930 . S
H4010 C3998 0.956 . S
H4011 C3998 0.961 . S
H4012 C3998 0.961 . S
H4013 C3999 0.958 . S
H4014 C3999 0.961 . S
H4015 C3999 0.960 . S
C4016 C4017 1.391 . S
C4016 C4018 1.394 . S
C4016 H4032 0.931 . S
C4017 C4016 1.391 . S
C4017 C4021 1.376 . S
C4018 C4016 1.394 . S
C4018 C4019 1.369 . S
C4018 C4022 1.531 . S
C4019 C4018 1.369 . S
C4019 C4020 1.410 . S
C4019 C4027 1.503 . S
C4020 C4019 1.410 . S
C4020 C4021 1.392 . S
C4020 C4023 1.511 . S
C4021 C4017 1.376 . S
C4021 C4020 1.392 . S
C4021 H4033 0.929 . S
C4022 C4018 1.531 . S
C4022 H4034 0.960 . S
C4022 H4035 0.962 . S
C4022 H4036 0.960 . S
C4023 C4020 1.511 . S
C4023 H4037 0.961 . S
C4023 H4038 0.961 . S
C4023 H4039 0.961 . S
C4024 C4025 1.370 . S
C4024 C4026 1.363 . S
C4024 H4040 0.931 . S
C4025 C4024 1.370 . S
C4025 C4029 1.408 . S
C4026 C4024 1.363 . S
C4026 C4027 1.370 . S
C4026 C4030 1.524 . S
C4027 C4019 1.503 . S
C4027 C4026 1.370 . S
C4027 C4028 1.403 . S
C4028 C4027 1.403 . S
C4028 C4029 1.404 . S
C4028 C4031 1.539 . S
C4029 C4025 1.408 . S
C4029 C4028 1.404 . S
C4029 H4041 0.930 . S
C4030 C4026 1.524 . S
C4030 H4042 0.956 . S
C4030 H4043 0.961 . S
C4030 H4044 0.961 . S
C4031 C4028 1.539 . S
C4031 H4045 0.958 . S
C4031 H4046 0.961 . S
C4031 H4047 0.960 . S
H4032 C4016 0.931 . S
H4033 C4021 0.929 . S
H4034 C4022 0.960 . S
H4035 C4022 0.962 . S
H4036 C4022 0.960 . S
H4037 C4023 0.961 . S
H4038 C4023 0.961 . S
H4039 C4023 0.961 . S
H4040 C4024 0.931 . S
H4041 C4029 0.930 . S
H4042 C4030 0.956 . S
H4043 C4030 0.961 . S
H4044 C4030 0.961 . S
H4045 C4031 0.958 . S
H4046 C4031 0.961 . S
H4047 C4031 0.960 . S
C977 C109 2.180 . S
C985 C338 2.149 1_556 S
C1009 C61 1.868 . S
C1017 C395 2.069 . S
C1041 C74 1.138 . S
C1049 C418 1.183 . S
C1081 C472 1.396 . S
C1073 C96 1.424 . S
C1105 C25 1.229 1_455 S
C1113 C512 1.175 . S
C1145 C543 0.419 . S
C1137 C40 0.430 . S
C1177 C595 1.397 . S
C1169 C46 1.383 . S
C1201 C5 1.276 . S
C1209 C618 1.696 . S
C1241 C355 2.334 . S
C1233 C229 2.006 . S
C1265 C249 0.437 . S
C1273 C392 0.509 . S
C1305 C435 1.165 . S
C1297 C271 0.923 . S
C1337 C458 1.468 . S
C1329 C172 1.446 . S
C1361 C236 1.809 . S
C1369 C498 1.826 . S
C1401 C546 1.620 . S
C1393 C242 1.605 . S
C1433 C592 0.254 . S
C1425 C278 0.214 . S
C1465 C635 2.102 . S
C1457 C179 2.108 . S
C1497 C352 1.436 1_565 S
C1489 C159 1.220 . S
C1521 C285 1.665 1_554 S
C1529 C675 1.869 . S
C1561 C707 2.516 . S
C1553 C333 2.538 . S
C1593 C738 0.594 1_655 S
C1585 C320 0.602 . S
C1617 C123 1.410 . S
C1625 C632 1.367 . S
C1649 C138 1.563 . S
C1657 C432 1.556 . S
C1681 C326 2.326 . S
C1689 C795 2.329 . S
C1721 C818 0.503 . S
C1713 C298 0.609 . S
C1753 C347 2.148 . S
C1745 C67 2.096 . S
C1785 C826 2.002 . S
C1777 C110 1.999 . S
C1809 C88 1.194 . S
C1817 C427 1.169 . S
C1841 C75 1.150 . S
C1849 C783 1.315 . S
C1881 C503 1.225 . S
C1873 C11 1.162 . S
C1905 C47 0.532 . S
C1913 C712 0.397 . S
C1945 C586 1.235 . S
C1937 C32 1.072 . S
C1977 C867 1.772 . S
C1969 C26 1.809 . S
C2009 C346 2.448 . S
C2001 C152 2.451 . S
C2041 C823 0.498 . S
C2033 C319 0.612 . S
C2065 C124 1.140 . S
C2073 C426 1.135 . S
C2097 C284 1.435 . S
C2105 C787 1.476 . S
C2129 C145 1.757 . S
C2137 C507 1.815 . S
C2169 C715 1.524 . S
C2161 C312 1.511 . S
C2193 C117 0.783 1_565 S
C2201 C583 0.378 . S
C2225 C291 2.010 . S
C2233 C866 2.024 . S
C2257 C194 1.496 . S
C2265 C343 1.499 . S
C2289 C180 1.833 . S
C2297 C666 1.834 . S
C2321 C263 2.410 . S
C2329 C538 2.379 . S
C2353 C243 0.538 . S
C2361 C747 0.548 . S
C2393 C863 1.425 . S
C2385 C277 1.422 . S
C2417 C215 1.355 . S
C2425 C423 1.517 . S
C2457 C466 2.224 . S
C2449 C256 2.191 . S
C2489 C387 0.602 . S
C2481 C200 0.593 . S
C2513 C81 2.186 . S
C2521 C898 2.160 . S
C2553 C835 2.068 . S
C2545 C89 1.862 . S
C2577 C102 1.147 . S
C2585 C938 1.174 . S
C2609 C68 1.414 . S
C2617 C792 1.408 . S
C2641 C53 1.232 . S
C2649 C672 1.172 . S
C2681 C703 0.393 . S
C2673 C12 0.374 . S
C2713 C755 1.395 . S
C2705 C18 1.377 . S
C2745 C858 1.685 . S
C2737 C33 1.389 . S
C2777 C915 2.334 . S
C2769 C257 2.005 . S
C2801 C193 0.410 . S
C2809 C832 0.476 . S
C2841 C955 1.163 . S
C2833 C201 1.054 . S
C2873 C778 1.468 . S
C2865 C214 1.447 . S
C2905 C658 1.819 . S
C2897 C264 1.819 . S
C2929 C186 1.622 . S
C2937 C706 1.629 . S
C2969 C752 0.276 . S
C2961 C208 0.185 . S
C2993 C221 2.104 . S
C3001 C875 2.103 . S
C3033 C912 1.438 . S
C3025 C313 1.129 . S
C3057 C131 1.682 . S
C3065 C515 1.872 . S
C3097 C547 2.506 . S
C3089 C151 2.518 . S
C3129 C578 0.608 . S
C3121 C166 0.656 . S
C3161 C872 1.347 . S
C3153 C305 1.428 . S
C3185 C292 1.578 . S
C3193 C952 1.543 . S
C3225 C475 2.325 . S
C3217 C144 2.319 . S
C3257 C378 0.512 . S
C3249 C116 0.465 . S
C3281 C95 2.091 . S
C3289 C907 2.140 . S
C3321 C386 2.006 . S
C3313 C82 1.994 . S
C3345 C60 1.149 . S
C3353 C947 1.181 . S
C3377 C103 1.228 . S
C3385 C463 1.328 . S
C3409 C39 1.241 . S
C3417 C663 1.193 . S
C3449 C552 0.415 . S
C3441 C19 0.574 . S
C3473 C4 1.095 . S
C3481 C746 1.234 . S
C3505 C54 1.822 . S
C3513 C627 1.758 . S
C3545 C906 2.449 . S
C3537 C334 2.451 . S
C3569 C165 0.536 . S
C3577 C383 0.538 . S
C3609 C946 1.132 . S
C3601 C306 1.141 . S
C3633 C130 1.479 . S
C3641 C467 1.470 . S
C3665 C327 1.748 . S
C3673 C667 1.816 . S
C3705 C555 1.524 . S
C3697 C158 1.512 . S
C3729 C299 0.719 . S
C3737 C743 0.359 . S
C3769 C626 2.017 . S
C3761 C137 2.014 . S
C3801 C903 1.500 . S
C3793 C250 1.519 . S
C3833 C506 1.838 1_665 S
C3825 C222 1.836 . S
C3857 C235 2.401 . S
C3865 C698 2.390 . S
C3897 C587 0.526 . S
C3889 C187 0.761 . S
C3921 C207 1.363 . S
C3929 C623 1.440 . S
C3953 C173 1.371 . S
C3961 C943 1.518 . S
C3993 C786 2.228 . S
C3985 C228 2.191 1_565 S
C4025 C827 0.585 . S
C4017 C270 0.651 . S
