# Generated by pormake.
# Topology gar, (4,6)-cn, num edge types: 1
# Building blocks:
#     Node 0, Type 0, BuildingBlock: GALJAG_clean_sbu_0, # of connection points: 4
#     Node 1, Type 0, BuildingBlock: GALJAG_clean_sbu_0, # of connection points: 4
#     Node 2, Type 0, BuildingBlock: GALJAG_clean_sbu_0, # of connection points: 4
#     Node 3, Type 0, BuildingBlock: GALJAG_clean_sbu_0, # of connection points: 4
#     Node 4, Type 0, BuildingBlock: GALJAG_clean_sbu_0, # of connection points: 4
#     Node 5, Type 0, BuildingBlock: GALJAG_clean_sbu_0, # of connection points: 4
#     Node 6, Type 0, BuildingBlock: GALJAG_clean_sbu_0, # of connection points: 4
#     Node 7, Type 0, BuildingBlock: GALJAG_clean_sbu_0, # of connection points: 4
#     Node 8, Type 0, BuildingBlock: GALJAG_clean_sbu_0, # of connection points: 4
#     Node 9, Type 0, BuildingBlock: GALJAG_clean_sbu_0, # of connection points: 4
#     Node 10, Type 0, BuildingBlock: GALJAG_clean_sbu_0, # of connection points: 4
#     Node 11, Type 0, BuildingBlock: GALJAG_clean_sbu_0, # of connection points: 4
#     Node 12, Type 0, BuildingBlock: GALJAG_clean_sbu_0, # of connection points: 4
#     Node 13, Type 0, BuildingBlock: GALJAG_clean_sbu_0, # of connection points: 4
#     Node 14, Type 0, BuildingBlock: GALJAG_clean_sbu_0, # of connection points: 4
#     Node 15, Type 0, BuildingBlock: GALJAG_clean_sbu_0, # of connection points: 4
#     Node 16, Type 0, BuildingBlock: GALJAG_clean_sbu_0, # of connection points: 4
#     Node 17, Type 0, BuildingBlock: GALJAG_clean_sbu_0, # of connection points: 4
#     Node 18, Type 0, BuildingBlock: GALJAG_clean_sbu_0, # of connection points: 4
#     Node 19, Type 0, BuildingBlock: GALJAG_clean_sbu_0, # of connection points: 4
#     Node 20, Type 0, BuildingBlock: GALJAG_clean_sbu_0, # of connection points: 4
#     Node 21, Type 0, BuildingBlock: GALJAG_clean_sbu_0, # of connection points: 4
#     Node 22, Type 0, BuildingBlock: GALJAG_clean_sbu_0, # of connection points: 4
#     Node 23, Type 0, BuildingBlock: GALJAG_clean_sbu_0, # of connection points: 4
#     Node 24, Type 1, BuildingBlock: KUMBUR_clean_sbu_1, # of connection points: 6
#     Node 25, Type 1, BuildingBlock: KUMBUR_clean_sbu_1, # of connection points: 6
#     Node 26, Type 1, BuildingBlock: KUMBUR_clean_sbu_1, # of connection points: 6
#     Node 27, Type 1, BuildingBlock: KUMBUR_clean_sbu_1, # of connection points: 6
#     Node 28, Type 1, BuildingBlock: KUMBUR_clean_sbu_1, # of connection points: 6
#     Node 29, Type 1, BuildingBlock: KUMBUR_clean_sbu_1, # of connection points: 6
#     Node 30, Type 1, BuildingBlock: KUMBUR_clean_sbu_1, # of connection points: 6
#     Node 31, Type 1, BuildingBlock: KUMBUR_clean_sbu_1, # of connection points: 6
#     Node 32, Type 1, BuildingBlock: KUMBUR_clean_sbu_1, # of connection points: 6
#     Node 33, Type 1, BuildingBlock: KUMBUR_clean_sbu_1, # of connection points: 6
#     Node 34, Type 1, BuildingBlock: KUMBUR_clean_sbu_1, # of connection points: 6
#     Node 35, Type 1, BuildingBlock: KUMBUR_clean_sbu_1, # of connection points: 6
#     Node 36, Type 1, BuildingBlock: KUMBUR_clean_sbu_1, # of connection points: 6
#     Node 37, Type 1, BuildingBlock: KUMBUR_clean_sbu_1, # of connection points: 6
#     Node 38, Type 1, BuildingBlock: KUMBUR_clean_sbu_1, # of connection points: 6
#     Node 39, Type 1, BuildingBlock: KUMBUR_clean_sbu_1, # of connection points: 6
#     Edge 40, Type (0, 1), BuildingBlock: TEMPAE_clean_linker_10, # of connection points: 2
#     Edge 41, Type (0, 1), BuildingBlock: TEMPAE_clean_linker_10, # of connection points: 2
#     Edge 42, Type (0, 1), BuildingBlock: TEMPAE_clean_linker_10, # of connection points: 2
#     Edge 43, Type (0, 1), BuildingBlock: TEMPAE_clean_linker_10, # of connection points: 2
#     Edge 44, Type (0, 1), BuildingBlock: TEMPAE_clean_linker_10, # of connection points: 2
#     Edge 45, Type (0, 1), BuildingBlock: TEMPAE_clean_linker_10, # of connection points: 2
#     Edge 46, Type (0, 1), BuildingBlock: TEMPAE_clean_linker_10, # of connection points: 2
#     Edge 47, Type (0, 1), BuildingBlock: TEMPAE_clean_linker_10, # of connection points: 2
#     Edge 48, Type (0, 1), BuildingBlock: TEMPAE_clean_linker_10, # of connection points: 2
#     Edge 49, Type (0, 1), BuildingBlock: TEMPAE_clean_linker_10, # of connection points: 2
#     Edge 50, Type (0, 1), BuildingBlock: TEMPAE_clean_linker_10, # of connection points: 2
#     Edge 51, Type (0, 1), BuildingBlock: TEMPAE_clean_linker_10, # of connection points: 2
#     Edge 52, Type (0, 1), BuildingBlock: TEMPAE_clean_linker_10, # of connection points: 2
#     Edge 53, Type (0, 1), BuildingBlock: TEMPAE_clean_linker_10, # of connection points: 2
#     Edge 54, Type (0, 1), BuildingBlock: TEMPAE_clean_linker_10, # of connection points: 2
#     Edge 55, Type (0, 1), BuildingBlock: TEMPAE_clean_linker_10, # of connection points: 2
#     Edge 56, Type (0, 1), BuildingBlock: TEMPAE_clean_linker_10, # of connection points: 2
#     Edge 57, Type (0, 1), BuildingBlock: TEMPAE_clean_linker_10, # of connection points: 2
#     Edge 58, Type (0, 1), BuildingBlock: TEMPAE_clean_linker_10, # of connection points: 2
#     Edge 59, Type (0, 1), BuildingBlock: TEMPAE_clean_linker_10, # of connection points: 2
#     Edge 60, Type (0, 1), BuildingBlock: TEMPAE_clean_linker_10, # of connection points: 2
#     Edge 61, Type (0, 1), BuildingBlock: TEMPAE_clean_linker_10, # of connection points: 2
#     Edge 62, Type (0, 1), BuildingBlock: TEMPAE_clean_linker_10, # of connection points: 2
#     Edge 63, Type (0, 1), BuildingBlock: TEMPAE_clean_linker_10, # of connection points: 2
#     Edge 64, Type (0, 1), BuildingBlock: TEMPAE_clean_linker_10, # of connection points: 2
#     Edge 65, Type (0, 1), BuildingBlock: TEMPAE_clean_linker_10, # of connection points: 2
#     Edge 66, Type (0, 1), BuildingBlock: TEMPAE_clean_linker_10, # of connection points: 2
#     Edge 67, Type (0, 1), BuildingBlock: TEMPAE_clean_linker_10, # of connection points: 2
#     Edge 68, Type (0, 1), BuildingBlock: TEMPAE_clean_linker_10, # of connection points: 2
#     Edge 69, Type (0, 1), BuildingBlock: TEMPAE_clean_linker_10, # of connection points: 2
#     Edge 70, Type (0, 1), BuildingBlock: TEMPAE_clean_linker_10, # of connection points: 2
#     Edge 71, Type (0, 1), BuildingBlock: TEMPAE_clean_linker_10, # of connection points: 2
#     Edge 72, Type (0, 1), BuildingBlock: TEMPAE_clean_linker_10, # of connection points: 2
#     Edge 73, Type (0, 1), BuildingBlock: TEMPAE_clean_linker_10, # of connection points: 2
#     Edge 74, Type (0, 1), BuildingBlock: TEMPAE_clean_linker_10, # of connection points: 2
#     Edge 75, Type (0, 1), BuildingBlock: TEMPAE_clean_linker_10, # of connection points: 2
#     Edge 76, Type (0, 1), BuildingBlock: TEMPAE_clean_linker_10, # of connection points: 2
#     Edge 77, Type (0, 1), BuildingBlock: TEMPAE_clean_linker_10, # of connection points: 2
#     Edge 78, Type (0, 1), BuildingBlock: TEMPAE_clean_linker_10, # of connection points: 2
#     Edge 79, Type (0, 1), BuildingBlock: TEMPAE_clean_linker_10, # of connection points: 2
#     Edge 80, Type (0, 1), BuildingBlock: TEMPAE_clean_linker_10, # of connection points: 2
#     Edge 81, Type (0, 1), BuildingBlock: TEMPAE_clean_linker_10, # of connection points: 2
#     Edge 82, Type (0, 1), BuildingBlock: TEMPAE_clean_linker_10, # of connection points: 2
#     Edge 83, Type (0, 1), BuildingBlock: TEMPAE_clean_linker_10, # of connection points: 2
#     Edge 84, Type (0, 1), BuildingBlock: TEMPAE_clean_linker_10, # of connection points: 2
#     Edge 85, Type (0, 1), BuildingBlock: TEMPAE_clean_linker_10, # of connection points: 2
#     Edge 86, Type (0, 1), BuildingBlock: TEMPAE_clean_linker_10, # of connection points: 2
#     Edge 87, Type (0, 1), BuildingBlock: TEMPAE_clean_linker_10, # of connection points: 2
#     Edge 88, Type (0, 1), BuildingBlock: TEMPAE_clean_linker_10, # of connection points: 2
#     Edge 89, Type (0, 1), BuildingBlock: TEMPAE_clean_linker_10, # of connection points: 2
#     Edge 90, Type (0, 1), BuildingBlock: TEMPAE_clean_linker_10, # of connection points: 2
#     Edge 91, Type (0, 1), BuildingBlock: TEMPAE_clean_linker_10, # of connection points: 2
#     Edge 92, Type (0, 1), BuildingBlock: TEMPAE_clean_linker_10, # of connection points: 2
#     Edge 93, Type (0, 1), BuildingBlock: TEMPAE_clean_linker_10, # of connection points: 2
#     Edge 94, Type (0, 1), BuildingBlock: TEMPAE_clean_linker_10, # of connection points: 2
#     Edge 95, Type (0, 1), BuildingBlock: TEMPAE_clean_linker_10, # of connection points: 2
#     Edge 96, Type (0, 1), BuildingBlock: TEMPAE_clean_linker_10, # of connection points: 2
#     Edge 97, Type (0, 1), BuildingBlock: TEMPAE_clean_linker_10, # of connection points: 2
#     Edge 98, Type (0, 1), BuildingBlock: TEMPAE_clean_linker_10, # of connection points: 2
#     Edge 99, Type (0, 1), BuildingBlock: TEMPAE_clean_linker_10, # of connection points: 2
#     Edge 100, Type (0, 1), BuildingBlock: TEMPAE_clean_linker_10, # of connection points: 2
#     Edge 101, Type (0, 1), BuildingBlock: TEMPAE_clean_linker_10, # of connection points: 2
#     Edge 102, Type (0, 1), BuildingBlock: TEMPAE_clean_linker_10, # of connection points: 2
#     Edge 103, Type (0, 1), BuildingBlock: TEMPAE_clean_linker_10, # of connection points: 2
#     Edge 104, Type (0, 1), BuildingBlock: TEMPAE_clean_linker_10, # of connection points: 2
#     Edge 105, Type (0, 1), BuildingBlock: TEMPAE_clean_linker_10, # of connection points: 2
#     Edge 106, Type (0, 1), BuildingBlock: TEMPAE_clean_linker_10, # of connection points: 2
#     Edge 107, Type (0, 1), BuildingBlock: TEMPAE_clean_linker_10, # of connection points: 2
#     Edge 108, Type (0, 1), BuildingBlock: TEMPAE_clean_linker_10, # of connection points: 2
#     Edge 109, Type (0, 1), BuildingBlock: TEMPAE_clean_linker_10, # of connection points: 2
#     Edge 110, Type (0, 1), BuildingBlock: TEMPAE_clean_linker_10, # of connection points: 2
#     Edge 111, Type (0, 1), BuildingBlock: TEMPAE_clean_linker_10, # of connection points: 2
#     Edge 112, Type (0, 1), BuildingBlock: TEMPAE_clean_linker_10, # of connection points: 2
#     Edge 113, Type (0, 1), BuildingBlock: TEMPAE_clean_linker_10, # of connection points: 2
#     Edge 114, Type (0, 1), BuildingBlock: TEMPAE_clean_linker_10, # of connection points: 2
#     Edge 115, Type (0, 1), BuildingBlock: TEMPAE_clean_linker_10, # of connection points: 2
#     Edge 116, Type (0, 1), BuildingBlock: TEMPAE_clean_linker_10, # of connection points: 2
#     Edge 117, Type (0, 1), BuildingBlock: TEMPAE_clean_linker_10, # of connection points: 2
#     Edge 118, Type (0, 1), BuildingBlock: TEMPAE_clean_linker_10, # of connection points: 2
#     Edge 119, Type (0, 1), BuildingBlock: TEMPAE_clean_linker_10, # of connection points: 2
#     Edge 120, Type (0, 1), BuildingBlock: TEMPAE_clean_linker_10, # of connection points: 2
#     Edge 121, Type (0, 1), BuildingBlock: TEMPAE_clean_linker_10, # of connection points: 2
#     Edge 122, Type (0, 1), BuildingBlock: TEMPAE_clean_linker_10, # of connection points: 2
#     Edge 123, Type (0, 1), BuildingBlock: TEMPAE_clean_linker_10, # of connection points: 2
#     Edge 124, Type (0, 1), BuildingBlock: TEMPAE_clean_linker_10, # of connection points: 2
#     Edge 125, Type (0, 1), BuildingBlock: TEMPAE_clean_linker_10, # of connection points: 2
#     Edge 126, Type (0, 1), BuildingBlock: TEMPAE_clean_linker_10, # of connection points: 2
#     Edge 127, Type (0, 1), BuildingBlock: TEMPAE_clean_linker_10, # of connection points: 2
#     Edge 128, Type (0, 1), BuildingBlock: TEMPAE_clean_linker_10, # of connection points: 2
#     Edge 129, Type (0, 1), BuildingBlock: TEMPAE_clean_linker_10, # of connection points: 2
#     Edge 130, Type (0, 1), BuildingBlock: TEMPAE_clean_linker_10, # of connection points: 2
#     Edge 131, Type (0, 1), BuildingBlock: TEMPAE_clean_linker_10, # of connection points: 2
#     Edge 132, Type (0, 1), BuildingBlock: TEMPAE_clean_linker_10, # of connection points: 2
#     Edge 133, Type (0, 1), BuildingBlock: TEMPAE_clean_linker_10, # of connection points: 2
#     Edge 134, Type (0, 1), BuildingBlock: TEMPAE_clean_linker_10, # of connection points: 2
#     Edge 135, Type (0, 1), BuildingBlock: TEMPAE_clean_linker_10, # of connection points: 2
# Relax obj value: 0.084
# Max RMSD: 0.179
# Mean RMSD: 0.129
data_MOF--net-gar--node1-GALJAG_clean_sbu_0--node2-KUMBUR_clean_sbu_1--edge1-TEMPAE_clean_linker_10
_symmetry_space_group_name_H-M    P1
_symmetry_Int_Tables_number       1
_symmetry_cell_setting            triclinic
loop_
_symmetry_equiv_pos_as_xyz
'x, y, z'
_cell_length_a     60.828718
_cell_length_b     60.837823
_cell_length_c     56.852914
_cell_angle_alpha  96.07564
_cell_angle_beta   96.096499
_cell_angle_gamma 100.85965
loop_
_atom_site_label
_atom_site_type_symbol
_atom_site_fract_x
_atom_site_fract_y
_atom_site_fract_z
_atom_type_partial_charge
In0 In 0.05432 0.32519 0.36643 0.0
O1 O 0.07573 0.31941 0.33403 0.0
O2 O 0.09392 0.32702 0.36823 0.0
C3 C 1.00952 0.32027 0.34405 0.0
C4 C 0.05292 0.28697 0.38881 0.0
C5 C 0.05673 0.3671 0.39384 0.0
O6 O 0.02649 0.32372 0.33276 0.0
O7 O 0.01511 0.31866 0.36565 0.0
O8 O 0.05294 0.34825 0.40156 0.0
O9 O 0.06094 0.36536 0.3724 0.0
C10 C 0.09489 0.32156 0.3463 0.0
O11 O 0.05568 0.30655 0.39995 0.0
O12 O 0.05049 0.28643 0.36642 0.0
In13 In 0.02936 0.76103 0.69897 0.0
O14 O 0.03434 0.77831 0.66582 0.0
O15 O 0.03142 0.7991 0.69749 0.0
C16 C 0.02337 0.72011 0.66967 0.0
C17 C 0.07605 0.76931 0.71881 0.0
C18 C 0.9871 0.76299 0.71713 0.0
O19 O 0.01681 0.73725 0.6633 0.0
O20 O 0.03228 0.72306 0.69117 0.0
O21 O 1.0047 0.76076 0.73023 0.0
O22 O 0.99091 0.76385 0.69587 0.0
C23 C 0.03404 0.79788 0.6756 0.0
O24 O 0.06034 0.75806 0.72843 0.0
O25 O 0.06812 0.77696 0.70073 0.0
In26 In 0.55416 0.82285 0.86511 0.0
O27 O 0.57817 0.82546 0.83371 0.0
O28 O 0.58943 0.81196 0.86397 0.0
C29 C 0.50974 0.81712 0.84212 0.0
C30 C 0.55183 0.7846 0.88727 0.0
C31 C 0.55579 0.8644 0.89344 0.0
O32 O 0.52687 0.82216 0.83129 0.0
O33 O 0.51514 0.81419 0.86338 0.0
O34 O 0.54923 0.84524 0.89967 0.0
O35 O 0.56329 0.86302 0.87353 0.0
C36 C 0.59358 0.81675 0.84365 0.0
O37 O 0.56379 0.80355 0.89641 0.0
O38 O 0.54089 0.78494 0.86711 0.0
In39 In 0.52789 0.26042 0.19838 0.0
O40 O 0.52743 0.23905 0.16235 0.0
O41 O 0.51948 0.22069 0.19109 0.0
C42 C 0.53257 0.2977 0.17497 0.0
C43 C 0.48477 0.26067 0.21567 0.0
C44 C 0.57439 0.26504 0.21837 0.0
O45 O 0.52805 0.27779 0.16455 0.0
O46 O 0.5344 0.29907 0.1974 0.0
O47 O 0.56035 0.27432 0.2288 0.0
O48 O 0.56469 0.2526 0.19963 0.0
C49 C 0.52247 0.21988 0.16922 0.0
O50 O 0.50313 0.26195 0.22931 0.0
O51 O 0.48807 0.25841 0.19405 0.0
In52 In 0.06988 0.80205 0.11703 0.0
O53 O 0.04843 0.76679 0.09666 0.0
O54 O 0.08333 0.76995 0.10069 0.0
C55 C 0.06853 0.84476 0.09939 0.0
C56 C 0.03313 0.79644 0.14078 0.0
C57 C 0.10848 0.80632 0.14962 0.0
O58 O 0.07297 0.82789 0.08691 0.0
O59 O 0.0655 0.84021 0.12007 0.0
O60 O 0.08858 0.80214 0.15484 0.0
O61 O 0.10924 0.80934 0.12797 0.0
C62 C 0.06452 0.75667 0.09418 0.0
O63 O 0.053 0.79794 0.15083 0.0
O64 O 0.03167 0.79772 0.11863 0.0
In65 In 0.50709 0.77712 0.45296 0.0
O66 O 0.52465 0.76646 0.4201 0.0
O67 O 0.54465 0.78884 0.44872 0.0
C68 C 0.46603 0.77699 0.42465 0.0
C69 C 0.51173 0.73734 0.47459 0.0
C70 C 0.51198 0.82118 0.47737 0.0
O71 O 0.48526 0.78544 0.41951 0.0
O72 O 0.46726 0.76783 0.44359 0.0
O73 O 0.4977 0.80445 0.48169 0.0
O74 O 0.52421 0.81539 0.46223 0.0
C75 C 0.54406 0.77782 0.42851 0.0
O76 O 0.51831 0.75726 0.48537 0.0
O77 O 0.50181 0.7375 0.45395 0.0
In78 In 0.56974 0.3023 0.61704 0.0
O79 O 0.55163 0.2691 0.5899 0.0
O80 O 0.58292 0.2685 0.60849 0.0
C81 C 0.56764 0.34444 0.59915 0.0
C82 C 0.53399 0.29693 0.64251 0.0
C83 C 0.6094 0.30799 0.6474 0.0
O84 O 0.5748 0.3286 0.58775 0.0
O85 O 0.56167 0.33887 0.6186 0.0
O86 O 0.59043 0.29837 0.65215 0.0
O87 O 0.60865 0.31538 0.62736 0.0
C88 C 0.56606 0.25712 0.59475 0.0
O89 O 0.55397 0.30536 0.6519 0.0
O90 O 0.53199 0.29119 0.62025 0.0
In91 In 1.00624 0.27664 0.9492 0.0
O92 O 0.02394 0.25658 0.97748 0.0
O93 O 0.99571 0.23759 0.95555 0.0
C94 C 0.01057 0.32155 0.97124 0.0
C95 C 0.04335 0.27833 0.92474 0.0
C96 C 0.9643 0.27538 0.92204 0.0
O97 O 1.00396 0.30447 0.98168 0.0
O98 O 0.0154 0.31588 0.95075 0.0
O99 O 0.98263 0.2757 0.91327 0.0
O100 O 0.96667 0.27425 0.94429 0.0
C101 C 0.01173 0.2371 0.97155 0.0
O102 O 0.0236 0.26874 0.91529 0.0
O103 O 0.04417 0.28701 0.94605 0.0
In104 In 0.3997 0.03058 0.31494 0.0
O105 O 0.42507 0.02307 0.29083 0.0
O106 O 0.39857 0.03864 0.27711 0.0
C107 C 0.42237 0.03151 0.35694 0.0
C108 C 0.38466 0.06808 0.32202 0.0
C109 C 0.37397 0.99006 0.30865 0.0
O110 O 0.43212 0.03816 0.33968 0.0
O111 O 0.40123 0.02542 0.35306 0.0
O112 O 0.36582 1.00734 0.30568 0.0
O113 O 0.39509 0.99333 0.31359 0.0
C114 C 0.41593 0.03099 0.27356 0.0
O115 O 0.37217 0.04902 0.32217 0.0
O116 O 0.40498 0.0681 0.31923 0.0
In117 In 0.27215 0.18986 0.51992 0.0
O118 O 0.29236 0.20914 0.55574 0.0
O119 O 0.25716 0.20541 0.55271 0.0
C120 C 0.27329 0.20857 0.47726 0.0
C121 C 0.30593 0.16647 0.52137 0.0
C122 C 0.23294 0.15927 0.51634 0.0
O123 O 0.28206 0.21961 0.49721 0.0
O124 O 0.26353 0.18876 0.47892 0.0
O125 O 0.25209 0.15467 0.5219 0.0
O126 O 0.23343 0.17956 0.51269 0.0
C127 C 0.27566 0.21204 0.5661 0.0
O128 O 0.28546 0.15736 0.52075 0.0
O129 O 0.30947 0.18745 0.52053 0.0
In130 In 0.14096 0.0584 0.79649 0.0
O131 O 0.11184 0.06078 0.76662 0.0
O132 O 0.14066 0.05003 0.75586 0.0
C133 C 0.12226 0.05611 0.83897 0.0
C134 C 0.16253 0.02349 0.79654 0.0
C135 C 0.16852 0.09949 0.80041 0.0
O136 O 0.11275 0.0444 0.81957 0.0
O137 O 0.14005 0.06954 0.83652 0.0
O138 O 0.17538 0.08186 0.8048 0.0
O139 O 0.14747 0.09657 0.79405 0.0
C140 C 0.1217 0.05443 0.7493 0.0
O141 O 0.1727 0.04379 0.80117 0.0
O142 O 0.14133 0.02068 0.79213 0.0
In143 In 0.30025 0.93424 1.00221 0.0
O144 O 0.29219 0.90349 0.02122 0.0
O145 O 0.2965 0.93621 0.04102 0.0
C146 C 0.3003 0.90726 0.96301 0.0
C147 C 0.26679 0.95575 0.99644 0.0
C148 C 0.34137 0.95941 0.00856 0.0
O149 O 0.3125 0.90607 0.98204 0.0
O150 O 0.288 0.92169 0.96419 0.0
O151 O 0.32808 0.95839 0.98974 0.0
O152 O 0.33376 0.94794 0.02412 0.0
C153 C 0.29283 0.91513 0.04115 0.0
O154 O 0.28713 0.96607 1.00024 0.0
O155 O 0.26356 0.93459 0.99575 0.0
In156 In 0.31268 0.39578 0.04828 0.0
O157 O 0.29955 0.36449 0.06657 0.0
O158 O 0.317 0.39374 0.08907 0.0
C159 C 0.30943 0.37214 0.00379 0.0
C160 C 0.27653 0.41609 0.04854 0.0
C161 C 0.35439 0.42302 0.04913 0.0
O162 O 0.321 0.36768 0.02181 0.0
O163 O 0.29959 0.38827 0.00823 0.0
O164 O 0.33607 0.4293 0.04375 0.0
O165 O 0.35175 0.4032 0.05466 0.0
C166 C 0.30631 0.37365 0.0877 0.0
O167 O 0.2964 0.4267 0.0561 0.0
O168 O 0.27508 0.39552 0.04113 0.0
In169 In 0.77272 0.13382 0.06254 0.0
O170 O 0.78896 0.10343 0.05954 0.0
O171 O 0.80835 0.13533 0.07614 0.0
C172 C 0.7316 0.11022 0.05864 0.0
C173 C 0.78049 0.16177 0.10149 0.0
C174 C 0.77027 0.15633 0.02529 0.0
O175 O 0.74497 0.10589 0.04406 0.0
O176 O 0.73984 0.12499 0.07613 0.0
O177 O 0.75862 0.15832 0.04208 0.0
O178 O 0.78347 0.14276 0.02716 0.0
C179 C 0.8077 0.11483 0.06981 0.0
O180 O 0.78604 0.16773 0.08196 0.0
O181 O 0.77065 0.14148 0.1013 0.0
In182 In 0.19665 0.56017 0.25323 0.0
O183 O 0.2243 0.54077 0.24673 0.0
O184 O 0.19092 0.52306 0.24889 0.0
C185 C 0.21985 0.6021 0.26198 0.0
C186 C 0.17026 0.5563 0.21343 0.0
C187 C 0.17427 0.55606 0.29059 0.0
O188 O 0.22311 0.58739 0.27523 0.0
O189 O 0.20592 0.59527 0.24347 0.0
O190 O 0.16458 0.55498 0.26969 0.0
O191 O 0.19555 0.55974 0.2929 0.0
C192 C 0.21074 0.52205 0.24546 0.0
O193 O 0.16387 0.56098 0.23346 0.0
O194 O 0.19092 0.55561 0.21328 0.0
In195 In 0.81243 0.89519 0.54737 0.0
O196 O 0.79591 0.8657 0.56616 0.0
O197 O 0.82153 0.89055 0.58699 0.0
C198 C 0.81169 0.8719 0.50321 0.0
C199 C 0.77601 0.91521 0.54763 0.0
C200 C 0.85386 0.92261 0.54974 0.0
O201 O 0.80845 0.86209 0.52142 0.0
O202 O 0.81543 0.89311 0.5073 0.0
O203 O 0.8355 0.92929 0.54601 0.0
O204 O 0.85147 0.90209 0.55312 0.0
C205 C 0.80686 0.87275 0.5865 0.0
O206 O 0.79429 0.92321 0.56097 0.0
O207 O 0.77637 0.89769 0.53389 0.0
In208 In 0.93593 0.0194 0.27006 0.0
O209 O 0.96942 0.02487 0.25225 0.0
O210 O 0.93878 0.02323 0.2305 0.0
C211 C 0.96082 0.02139 0.31389 0.0
C212 C 0.91459 0.05512 0.27122 0.0
C213 C 0.90638 0.97856 0.26743 0.0
O214 O 0.9528 1.0032 0.3003 0.0
O215 O 0.95753 0.03878 0.30484 0.0
O216 O 0.90213 0.99699 0.2763 0.0
O217 O 0.925 0.98082 0.25916 0.0
C218 C 0.95989 0.02602 0.23166 0.0
O219 O 0.91221 0.04054 0.25316 0.0
O220 O 0.92678 0.05119 0.28901 0.0
In221 In 0.27376 0.63424 0.56161 0.0
O222 O 0.29063 0.60658 0.54832 0.0
O223 O 0.30301 0.62499 0.58259 0.0
C224 C 0.23013 0.61914 0.5589 0.0
C225 C 0.28057 0.66343 0.59998 0.0
C226 C 0.28002 0.65278 0.522 0.0
O227 O 0.2439 0.60616 0.56168 0.0
O228 O 0.23863 0.63951 0.55812 0.0
O229 O 0.29106 0.66143 0.54191 0.0
O230 O 0.26663 0.63425 0.52204 0.0
C231 C 0.30545 0.61038 0.56631 0.0
O232 O 0.28478 0.66906 0.57992 0.0
O233 O 0.27251 0.64279 0.60057 0.0
In234 In 0.4354 0.51808 0.77022 0.0
O235 O 0.40481 0.53523 0.76759 0.0
O236 O 0.43743 0.55627 0.77194 0.0
C237 C 0.40817 0.47632 0.7687 0.0
C238 C 0.45674 0.52236 0.73008 0.0
C239 C 0.45832 0.52113 0.81512 0.0
O240 O 0.40115 0.49451 0.77183 0.0
O241 O 0.42863 0.47907 0.76536 0.0
O242 O 0.46318 0.51001 0.79708 0.0
O243 O 0.44235 0.53115 0.8105 0.0
C244 C 0.41635 0.55509 0.76962 0.0
O245 O 0.46695 0.52711 0.75105 0.0
O246 O 0.43582 0.51476 0.7292 0.0
In247 In 0.69655 0.05757 0.75409 0.0
O248 O 0.72473 0.04012 0.76398 0.0
O249 O 0.69864 0.02407 0.73588 0.0
C250 C 0.71369 0.10092 0.76151 0.0
C251 C 0.6695 0.05611 0.71521 0.0
C252 C 0.67561 0.05252 0.79213 0.0
O253 O 0.7232 0.08777 0.74934 0.0
O254 O 0.69625 0.09204 0.76958 0.0
O255 O 0.66535 0.05121 0.77142 0.0
O256 O 0.69681 0.05469 0.79363 0.0
C257 C 0.7164 0.02311 0.74881 0.0
O258 O 0.66281 0.04884 0.73371 0.0
O259 O 0.69043 0.06363 0.71592 0.0
In260 In 0.77235 0.69026 0.01844 0.0
O261 O 0.78685 0.65925 0.02446 0.0
O262 O 0.80997 0.68819 0.01883 0.0
C263 C 0.73291 0.66 0.01231 0.0
C264 C 0.77395 0.71268 0.06411 0.0
C265 C 0.77293 0.70814 0.97545 0.0
O266 O 0.75193 0.6548 0.01685 0.0
O267 O 0.73363 0.68075 0.01049 0.0
O268 O 0.77846 0.72024 0.99548 0.0
O269 O 0.76669 0.68751 0.97713 0.0
C270 C 0.80699 0.66797 0.02297 0.0
O271 O 0.7896 0.71688 0.05135 0.0
O272 O 0.7571 0.69865 0.05334 0.0
In273 In 0.89808 0.5283 0.81495 0.0
O274 O 0.86751 0.54307 0.81786 0.0
O275 O 0.89939 0.56526 0.81777 0.0
C276 C 0.87783 0.4859 0.80799 0.0
C277 C 0.91359 0.52956 0.77327 0.0
C278 C 0.91873 0.53172 0.85851 0.0
O279 O 0.86708 0.50155 0.81152 0.0
O280 O 0.89878 0.4918 0.80744 0.0
O281 O 0.92838 0.541 0.84245 0.0
O282 O 0.89887 0.52086 0.85244 0.0
C283 C 0.87841 0.56296 0.81834 0.0
O284 O 0.92579 0.52723 0.79192 0.0
O285 O 0.89369 0.53157 0.77583 0.0
In286 In 0.8023 0.4337 0.5056 0.0
O287 O 0.7847 0.41046 0.52933 0.0
O288 O 0.80929 0.4395 0.54542 0.0
C289 C 0.79798 0.40579 0.46633 0.0
C290 C 0.77268 0.45937 0.50044 0.0
C291 C 0.84515 0.45069 0.50486 0.0
O292 O 0.8044 0.40021 0.48629 0.0
O293 O 0.79307 0.42497 0.46657 0.0
O294 O 0.8298 0.46027 0.49685 0.0
O295 O 0.83878 0.43266 0.51349 0.0
C296 C 0.79546 0.42206 0.5482 0.0
O297 O 0.7932 0.4675 0.50801 0.0
O298 O 0.76727 0.43815 0.49579 0.0
In299 In 0.64066 0.55871 0.29675 0.0
O300 O 0.67322 0.54558 0.2952 0.0
O301 O 0.64235 0.5214 0.29111 0.0
C302 C 0.66985 0.59919 0.29997 0.0
C303 C 0.61895 0.55404 0.25034 0.0
C304 C 0.6217 0.55554 0.33926 0.0
O305 O 0.67624 0.58082 0.30175 0.0
O306 O 0.64866 0.59732 0.2971 0.0
O307 O 0.61026 0.55691 0.31975 0.0
O308 O 0.64213 0.556 0.33725 0.0
C309 C 0.66362 0.525 0.29195 0.0
O310 O 0.62313 0.57229 0.26431 0.0
O311 O 0.62429 0.53781 0.26012 0.0
Tb312 Tb 0.07944 0.06015 0.05859 0.0
C313 C 1.00242 0.98546 0.99852 0.0
N314 N 0.01564 1.00488 0.99409 0.0
C315 C 0.01811 0.98742 0.95478 0.0
C316 C 0.99717 0.96602 0.98149 0.0
C317 C 0.02274 1.0063 0.97216 0.0
C318 C 1.00552 0.9671 0.95956 0.0
C319 C 0.97853 0.96606 0.02466 0.0
C320 C 0.99308 0.98547 0.01973 0.0
C321 C 0.9739 0.94641 0.00812 0.0
C322 C 0.98317 0.94641 0.98657 0.0
Tb323 Tb 0.02066 0.03468 0.02373 0.0
N324 N 0.99789 1.00476 0.0353 0.0
C325 C 0.96867 0.96718 0.0458 0.0
C326 C 0.98691 1.00649 0.05489 0.0
C327 C 0.97262 0.98761 0.06081 0.0
H328 H 0.03109 0.0221 0.96737 0.0
H329 H 0.96435 0.98896 0.0767 0.0
H330 H 0.06911 0.07107 0.11509 0.0
H331 H 0.1182 0.11356 0.99776 0.0
H332 H 0.98869 0.0225 0.06574 0.0
H333 H 0.95742 0.95262 0.05029 0.0
H334 H 0.09962 0.07801 0.0095 0.0
H335 H 0.02386 0.9887 0.9375 0.0
H336 H 0.96283 0.93128 0.01161 0.0
H337 H 0.97903 0.93128 0.97374 0.0
H338 H 0.0768 0.10382 0.14585 0.0
H339 H 1.00172 0.95259 0.94593 0.0
H340 H 0.12665 0.14825 0.02669 0.0
N341 N 0.08104 0.08964 0.08761 0.0
C342 C 0.09232 0.10982 0.08258 0.0
C343 C 0.08084 0.10586 0.12801 0.0
C344 C 0.09807 0.12885 0.10019 0.0
C345 C 0.07576 0.08738 0.11017 0.0
C346 C 0.09202 0.12669 0.12302 0.0
N347 N 0.09391 0.09237 0.04348 0.0
C348 C 0.10121 0.09303 0.02162 0.0
C349 C 0.11085 0.13187 0.05437 0.0
C350 C 0.09885 0.11125 0.05989 0.0
C351 C 0.11738 0.13274 0.03158 0.0
C352 C 0.11253 0.11324 0.01516 0.0
H353 H 0.09637 0.14087 0.13706 0.0
H354 H 0.11502 0.16395 0.10812 0.0
H355 H 0.12602 0.16664 0.06802 0.0
O356 O 0.11405 0.06292 0.05618 0.0
O357 O 0.05579 0.08407 0.0504 0.0
O358 O 0.03704 0.06774 0.01429 0.0
O359 O 0.10121 0.06034 0.08988 0.0
O360 O 0.08056 0.04252 0.0224 0.0
O361 O 0.04714 0.04676 0.00257 0.0
O362 O 0.99475 0.05162 0.03106 0.0
O363 O 0.03612 1.00769 0.03896 0.0
O364 O 0.07245 0.02253 0.05815 0.0
O365 O 0.99458 0.03279 0.99583 0.0
O366 O 0.02288 0.05035 0.06112 0.0
O367 O 0.05538 0.04367 0.08045 0.0
C368 C 0.04472 0.08611 0.02956 0.0
C369 C 0.13781 0.05359 0.08803 0.0
C370 C 0.16817 0.03433 0.07997 0.0
C371 C 0.1794 0.04324 0.10299 0.0
C372 C 0.14888 0.06188 0.11102 0.0
C373 C 0.16948 0.05646 0.11856 0.0
C374 C 0.14687 0.03901 0.07302 0.0
C375 C 0.06751 0.04271 1.00234 0.0
C376 C 0.119 0.06336 0.0791 0.0
C377 C 0.11023 0.14926 0.09472 0.0
C378 C 0.11651 0.15079 0.07188 0.0
C379 C 0.05537 1.00511 0.05071 0.0
C380 C 0.96375 0.05182 1.00073 0.0
C381 C 0.93419 0.07168 0.00895 0.0
C382 C 0.92492 0.06696 0.98484 0.0
C383 C 0.95448 0.04684 0.97662 0.0
C384 C 0.95354 0.06416 0.01676 0.0
C385 C 0.93507 0.05447 0.96872 0.0
C386 C 0.03419 0.04528 0.08014 0.0
C387 C 0.98475 0.0455 0.00923 0.0
H388 H 0.19613 0.0407 0.10885 0.0
H389 H 0.14201 0.0733 0.12278 0.0
H390 H 0.17824 0.0633 0.13614 0.0
H391 H 0.13764 0.03213 0.05564 0.0
H392 H 0.90962 0.07246 0.97866 0.0
H393 H 0.96234 0.03736 0.96391 0.0
H394 H 0.96063 0.06808 0.03542 0.0
H395 H 0.92788 0.05067 0.95016 0.0
Tb396 Tb 0.26449 0.79672 0.32362 0.0
C397 C 0.31672 0.75552 0.23547 0.0
N398 N 0.32523 0.77282 0.25315 0.0
C399 C 0.36025 0.76003 0.25757 0.0
C400 C 0.32915 0.73896 0.22914 0.0
C401 C 0.34707 0.77581 0.26347 0.0
C402 C 0.35112 0.74128 0.24066 0.0
C403 C 0.28551 0.73651 0.20579 0.0
C404 C 0.29529 0.75437 0.22391 0.0
C405 C 0.29747 0.71949 0.19994 0.0
C406 C 0.31928 0.72075 0.21156 0.0
Tb407 Tb 0.30144 0.79621 0.26357 0.0
N408 N 0.28389 0.77064 0.23096 0.0
C409 C 0.26409 0.73639 0.19403 0.0
C410 C 0.26398 0.77168 0.21793 0.0
C411 C 0.25354 0.75437 0.19974 0.0
H412 H 0.35442 0.79038 0.27635 0.0
H413 H 0.23745 0.75505 0.18997 0.0
H414 H 0.21162 0.79992 0.30754 0.0
H415 H 0.33124 0.85599 0.38225 0.0
H416 H 0.25621 0.78599 0.22081 0.0
H417 H 0.25593 0.72296 0.18003 0.0
H418 H 0.31621 0.82648 0.34909 0.0
H419 H 0.37743 0.76231 0.26613 0.0
H420 H 0.29013 0.70546 0.18628 0.0
H421 H 0.32844 0.70766 0.20669 0.0
H422 H 0.18419 0.82189 0.32125 0.0
H423 H 0.36128 0.72895 0.23631 0.0
H424 H 0.30549 0.87582 0.40297 0.0
N425 N 0.23836 0.81692 0.33427 0.0
C426 C 0.24495 0.83318 0.35323 0.0
C427 C 0.20123 0.82524 0.33044 0.0
C428 C 0.22987 0.84624 0.36163 0.0
C429 C 0.21688 0.81288 0.32266 0.0
C430 C 0.20771 0.84192 0.3501 0.0
N431 N 0.28156 0.82617 0.3527 0.0
C432 C 0.30438 0.83326 0.35887 0.0
C433 C 0.27541 0.856 0.38137 0.0
C434 C 0.26733 0.83783 0.36301 0.0
C435 C 0.2986 0.86192 0.389 0.0
C436 C 0.31316 0.85074 0.37739 0.0
H437 H 0.19561 0.85162 0.35595 0.0
H438 H 0.22623 0.8738 0.38743 0.0
H439 H 0.26621 0.88242 0.40468 0.0
O440 O 0.2668 0.77421 0.34861 0.0
O441 O 0.27083 0.82876 0.31062 0.0
O442 O 0.30138 0.81998 0.29566 0.0
O443 O 0.23521 0.77338 0.327 0.0
O444 O 0.29951 0.78993 0.33143 0.0
O445 O 0.32125 0.79347 0.29884 0.0
O446 O 0.30126 0.81613 0.23537 0.0
O447 O 0.2889 0.76175 0.26908 0.0
O448 O 0.27611 0.78243 0.29409 0.0
O449 O 0.33208 0.81692 0.25914 0.0
O450 O 0.26689 0.8052 0.25927 0.0
O451 O 0.24401 0.79062 0.28765 0.0
C452 C 0.28764 0.83409 0.29843 0.0
C453 C 0.23365 0.76326 0.36593 0.0
C454 C 0.23319 0.74804 0.40371 0.0
C455 C 0.21074 0.75075 0.40413 0.0
C456 C 0.21128 0.76598 0.36646 0.0
C457 C 0.20006 0.76011 0.38579 0.0
C458 C 0.24469 0.75541 0.38507 0.0
C459 C 0.31867 0.78997 0.32152 0.0
C460 C 0.24522 0.76576 0.34478 0.0
C461 C 0.23757 0.86361 0.38067 0.0
C462 C 0.26031 0.86848 0.39055 0.0
C463 C 0.27702 0.76213 0.28613 0.0
C464 C 0.33564 0.84015 0.22733 0.0
C465 C 0.33746 0.86089 0.19319 0.0
C466 C 0.35921 0.87268 0.20303 0.0
C467 C 0.35746 0.85181 0.23686 0.0
C468 C 0.32573 0.84468 0.2055 0.0
C469 C 0.36914 0.86808 0.22474 0.0
C470 C 0.24687 0.79885 0.26704 0.0
C471 C 0.32286 0.82392 0.24052 0.0
H472 H 0.20116 0.745 0.41808 0.0
H473 H 0.20235 0.77209 0.35182 0.0
H474 H 0.18274 0.76198 0.38609 0.0
H475 H 0.26219 0.75411 0.38481 0.0
H476 H 0.36846 0.88558 0.19404 0.0
H477 H 0.36532 0.84867 0.25384 0.0
H478 H 0.309 0.83543 0.19796 0.0
H479 H 0.38584 0.87726 0.23227 0.0
Tb480 Tb 0.50383 0.03515 0.5569 0.0
C481 C 0.58473 0.07981 0.50382 0.0
N482 N 0.57031 0.05936 0.49816 0.0
C483 C 0.56417 0.06649 0.45742 0.0
C484 C 0.58858 0.09472 0.48662 0.0
C485 C 0.56127 0.05204 0.47487 0.0
C486 C 0.57754 0.08806 0.46339 0.0
C487 C 0.61272 0.10581 0.53271 0.0
C488 C 0.5967 0.08547 0.52668 0.0
C489 C 0.61593 0.12095 0.51583 0.0
C490 C 0.60383 0.11547 0.4929 0.0
Tb491 Tb 0.56683 0.03891 0.52979 0.0
N492 N 0.5926 0.07094 0.54305 0.0
C493 C 0.62531 0.11008 0.55541 0.0
C494 C 0.60617 0.07398 0.56427 0.0
C495 C 0.62238 0.09384 0.57106 0.0
H496 H 0.5521 0.03499 0.46921 0.0
H497 H 0.63285 0.09642 0.58813 0.0
H498 H 0.51683 0.03857 0.61729 0.0
H499 H 0.44212 0.97511 0.49495 0.0
H500 H 0.60488 0.06082 0.57562 0.0
H501 H 0.63789 0.12547 0.56069 0.0
H502 H 0.46885 0.01103 0.50823 0.0
H503 H 0.55643 0.06079 0.43921 0.0
H504 H 0.62799 0.1368 0.5202 0.0
H505 H 0.6068 0.12719 0.47995 0.0
H506 H 0.51037 0.01319 0.64748 0.0
H507 H 0.57997 0.09908 0.44971 0.0
H508 H 0.43469 0.94709 0.52314 0.0
N509 N 0.49879 0.0144 0.58815 0.0
C510 C 0.48422 0.9941 0.58219 0.0
C511 C 0.50322 1.00747 0.6291 0.0
C512 C 0.47943 0.97933 0.59937 0.0
C513 C 0.50727 0.02168 0.61159 0.0
C514 C 0.48953 0.98608 0.62292 0.0
N515 N 0.478 1.00295 0.54277 0.0
C516 C 0.46651 0.9987 0.5203 0.0
C517 C 0.45775 0.96769 0.55231 0.0
C518 C 0.47328 0.98834 0.55895 0.0
C519 C 0.44677 0.96275 0.5289 0.0
C520 C 0.45099 0.97846 0.5129 0.0
H521 H 0.48629 0.97522 0.63661 0.0
H522 H 0.46056 0.94699 0.60565 0.0
H523 H 0.4417 0.93678 0.56445 0.0
O524 O 0.47478 0.04579 0.54187 0.0
O525 O 0.51294 1.00197 0.54278 0.0
O526 O 0.54566 1.00403 0.52298 0.0
O527 O 0.48672 0.05261 0.57973 0.0
O528 O 0.51737 0.04632 0.52558 0.0
O529 O 0.5377 0.02707 0.50378 0.0
O530 O 0.59162 0.02367 0.54687 0.0
O531 O 0.55923 0.07226 0.5453 0.0
O532 O 0.52378 0.07022 0.5591 0.0
O533 O 0.5917 0.03001 0.51029 0.0
O534 O 0.55275 0.02816 0.56083 0.0
O535 O 0.53258 0.04661 0.58324 0.0
C536 C 0.52732 0.99254 0.5306 0.0
C537 C 0.44871 0.05361 0.56885 0.0
C538 C 0.41647 0.07192 0.56991 0.0
C539 C 0.40872 0.05849 0.58719 0.0
C540 C 0.44065 0.04008 0.58587 0.0
C541 C 0.42069 0.04256 0.59496 0.0
C542 C 0.43644 0.06923 0.56071 0.0
C543 C 0.51852 0.03276 0.50675 0.0
C544 C 0.47163 0.055 0.56271 0.0
C545 C 0.46431 0.95855 0.59269 0.0
C546 C 0.45352 0.95275 0.56924 0.0
C547 C 0.54341 0.08183 0.55454 0.0
C548 C 0.60705 0.99929 0.52062 0.0
C549 C 0.63521 0.97568 0.52141 0.0
C550 C 0.62178 0.96063 0.50267 0.0
C551 C 0.59353 0.98379 0.50221 0.0
C552 C 0.62777 0.99498 0.53046 0.0
C553 C 0.60094 0.96458 0.49328 0.0
C554 C 0.55184 0.04197 0.57944 0.0
C555 C 0.60119 0.02122 0.52756 0.0
H556 H 0.39333 0.06019 0.59455 0.0
H557 H 0.45017 0.02826 0.59273 0.0
H558 H 0.41468 0.03239 0.60837 0.0
H559 H 0.44308 0.08013 0.54811 0.0
H560 H 0.6275 0.94585 0.49527 0.0
H561 H 0.5776 0.98689 0.49423 0.0
H562 H 0.63843 1.00699 0.54446 0.0
H563 H 0.5907 0.95293 0.47877 0.0
Tb564 Tb 0.32449 0.27434 0.79256 0.0
C565 C 0.24449 0.30594 0.73698 0.0
N566 N 0.25711 0.31654 0.75769 0.0
C567 C 0.25884 0.35234 0.74316 0.0
C568 C 0.23883 0.3182 0.71834 0.0
C569 C 0.26393 0.3395 0.76123 0.0
C570 C 0.24635 0.34165 0.72159 0.0
C571 C 0.22404 0.27105 0.71335 0.0
C572 C 0.23726 0.28263 0.73444 0.0
C573 C 0.21848 0.28319 0.69467 0.0
C574 C 0.22589 0.30669 0.69714 0.0
Tb575 Tb 0.26466 0.29336 0.78512 0.0
N576 N 0.24375 0.27128 0.7525 0.0
C577 C 0.21674 0.24763 0.71175 0.0
C578 C 0.23551 0.24873 0.75165 0.0
C579 C 0.22223 0.23648 0.73114 0.0
H580 H 0.27295 0.34808 0.77808 0.0
H581 H 0.216 0.21851 0.73044 0.0
H582 H 0.31435 0.21907 0.79818 0.0
H583 H 0.37894 0.3459 0.84659 0.0
H584 H 0.23858 0.24025 0.76686 0.0
H585 H 0.20649 0.2381 0.69587 0.0
H586 H 0.35474 0.32526 0.81026 0.0
H587 H 0.26442 0.3705 0.74596 0.0
H588 H 0.20841 0.27458 0.67826 0.0
H589 H 0.22142 0.31582 0.68259 0.0
H590 H 0.32194 0.1955 0.82948 0.0
H591 H 0.24239 0.35168 0.70767 0.0
H592 H 0.38687 0.32555 0.88104 0.0
N593 N 0.33083 0.25001 0.81938 0.0
C594 C 0.34388 0.25977 0.84017 0.0
C595 C 0.32802 0.21359 0.8328 0.0
C596 C 0.34919 0.24681 0.85829 0.0
C597 C 0.3234 0.22711 0.81521 0.0
C598 C 0.34081 0.22348 0.8545 0.0
N599 N 0.34687 0.29479 0.82513 0.0
C600 C 0.35704 0.3168 0.8257 0.0
C601 C 0.36672 0.29355 0.86383 0.0
C602 C 0.35251 0.28285 0.84299 0.0
C603 C 0.3758 0.31667 0.86536 0.0
C604 C 0.37124 0.32826 0.84602 0.0
H605 H 0.34449 0.21292 0.86799 0.0
H606 H 0.36716 0.24779 0.89355 0.0
H607 H 0.38255 0.28869 0.89835 0.0
O608 O 0.34945 0.28633 0.77105 0.0
O609 O 0.31105 0.28624 0.82552 0.0
O610 O 0.28644 0.31034 0.81756 0.0
O611 O 0.35057 0.25677 0.78822 0.0
O612 O 0.3217 0.30566 0.77688 0.0
O613 O 0.29391 0.32159 0.79294 0.0
O614 O 0.23767 0.27877 0.80295 0.0
O615 O 0.28009 0.2836 0.75242 0.0
O616 O 0.302 0.25743 0.76043 0.0
O617 O 0.2393 0.31153 0.79193 0.0
O618 O 0.26998 0.26468 0.80387 0.0
O619 O 0.2946 0.24704 0.78499 0.0
C620 C 0.29969 0.30176 0.83233 0.0
C621 C 0.36796 0.25876 0.75319 0.0
C622 C 0.39801 0.25626 0.72811 0.0
C623 C 0.38622 0.23463 0.7179 0.0
C624 C 0.35635 0.2373 0.74235 0.0
C625 C 0.36549 0.22535 0.72484 0.0
C626 C 0.38864 0.26838 0.74572 0.0
C627 C 0.31335 0.32329 0.78424 0.0
C628 C 0.36009 0.26997 0.77412 0.0
C629 C 0.36294 0.25747 0.87939 0.0
C630 C 0.37171 0.28077 0.88214 0.0
C631 C 0.29029 0.26713 0.74525 0.0
C632 C 0.22011 0.30448 0.8255 0.0
C633 C 0.18956 0.30563 0.85067 0.0
C634 C 0.20372 0.32386 0.86556 0.0
C635 C 0.23385 0.3224 0.84113 0.0
C636 C 0.19796 0.29581 0.83059 0.0
C637 C 0.22566 0.332 0.86093 0.0
C638 C 0.27647 0.24628 0.79582 0.0
C639 C 0.22819 0.29626 0.80299 0.0
H640 H 0.39296 0.22495 0.70432 0.0
H641 H 0.34051 0.22954 0.74786 0.0
H642 H 0.35661 0.20869 0.71681 0.0
H643 H 0.39781 0.28483 0.75419 0.0
H644 H 0.19775 0.33182 0.88093 0.0
H645 H 0.25079 0.32935 0.83772 0.0
H646 H 0.18711 0.28207 0.81861 0.0
H647 H 0.23629 0.34607 0.8726 0.0
Tb648 Tb 0.05455 1.0071 0.52851 0.0
C649 C 0.02323 0.08505 0.58056 0.0
N650 N 0.01361 0.07397 0.55877 0.0
C651 C 0.97693 0.07085 0.57175 0.0
C652 C 1.01019 0.0883 0.59921 0.0
C653 C 0.99056 0.06866 0.55367 0.0
C654 C 0.98685 0.08017 0.59481 0.0
C655 C 0.05586 0.10972 0.6043 0.0
C656 C 0.04578 0.09552 0.58325 0.0
C657 C 0.04343 0.11155 0.62361 0.0
C658 C 0.02064 0.10076 0.6211 0.0
Tb659 Tb 0.03871 0.06929 0.53196 0.0
N660 N 0.05739 0.09309 0.56436 0.0
C661 C 0.07768 0.12248 0.60477 0.0
C662 C 0.07761 0.10711 0.56374 0.0
C663 C 0.08835 0.12164 0.58415 0.0
H664 H 0.98248 0.06254 0.53568 0.0
H665 H 0.10472 0.13225 0.58392 0.0
H666 H 0.11041 0.01505 0.52557 0.0
H667 H 0.98496 0.9495 0.47382 0.0
H668 H 0.08535 0.10682 0.5475 0.0
H669 H 0.08601 0.13373 0.62056 0.0
H670 H 1.00434 0.97381 0.51048 0.0
H671 H 0.95877 0.06571 0.5678 0.0
H672 H 0.05099 0.12202 0.64016 0.0
H673 H 0.01096 0.10314 0.63577 0.0
H674 H 0.13491 0.00791 0.49511 0.0
H675 H 0.97621 0.08224 0.60867 0.0
H676 H 1.00614 0.94267 0.43982 0.0
N677 N 0.07983 0.99954 0.50312 0.0
C678 C 0.07067 0.98651 0.48219 0.0
C679 C 0.11682 1.002 0.49114 0.0
C680 C 0.08414 0.98162 0.46439 0.0
C681 C 0.10275 1.00631 0.50827 0.0
C682 C 0.10745 0.98994 0.46894 0.0
N683 N 0.03546 0.98223 0.49672 0.0
C684 C 0.01341 0.97175 0.49543 0.0
C685 C 0.03759 0.96335 0.45778 0.0
C686 C 0.04774 0.97743 0.47892 0.0
C687 C 0.01459 0.95366 0.45574 0.0
C688 C 1.00255 0.95757 0.47484 0.0
H689 H 0.1184 0.98661 0.45573 0.0
H690 H 0.08405 0.96449 0.42893 0.0
H691 H 0.04325 0.9485 0.42313 0.0
O692 O 0.04559 0.97479 0.53906 0.0
O693 O 0.04588 0.02138 0.49479 0.0
O694 O 0.02054 0.04472 0.50207 0.0
O695 O 0.07817 0.99602 0.55194 0.0
O696 O 0.02103 1.00774 0.53881 0.0
O697 O 1.00933 0.04027 0.52787 0.0
O698 O 0.04805 0.08912 0.50448 0.0
O699 O 0.06229 0.06165 0.56112 0.0
O700 O 0.0464 0.02502 0.56101 0.0
O701 O 0.02689 0.09926 0.5293 0.0
O702 O 0.06842 0.06316 0.51536 0.0
O703 O 0.08264 0.03643 0.53508 0.0
C704 C 0.02881 0.03084 0.48761 0.0
C705 C 0.07362 0.95671 0.55614 0.0
C706 C 0.07361 0.92347 0.57682 0.0
C707 C 0.09267 0.9197 0.56634 0.0
C708 C 0.09249 0.95256 0.5456 0.0
C709 C 0.10191 0.93405 0.55067 0.0
C710 C 0.06402 0.94193 0.5715 0.0
C711 C 1.00551 0.01981 0.53478 0.0
C712 C 0.0644 0.97703 0.55303 0.0
C713 C 0.074 0.96824 0.44291 0.0
C714 C 0.05077 0.95912 0.43961 0.0
C715 C 0.05896 0.04374 0.57235 0.0
C716 C 0.02422 0.11452 0.49282 0.0
C717 C 0.02227 0.14448 0.46697 0.0
C718 C 0.99855 0.13785 0.46424 0.0
C719 C 1.00063 0.10797 0.48871 0.0
C720 C 0.03509 0.13278 0.48178 0.0
C721 C 0.98795 0.11971 0.47473 0.0
C722 C 0.08528 0.05408 0.52333 0.0
C723 C 0.03701 0.10449 0.51113 0.0
H724 H 0.10036 0.9056 0.57026 0.0
H725 H 0.1001 0.96375 0.53378 0.0
H726 H 0.11658 0.93097 0.54266 0.0
H727 H 0.04953 0.94516 0.57986 0.0
H728 H 0.98794 0.1469 0.45413 0.0
H729 H 0.99191 0.09427 0.49709 0.0
H730 H 0.05331 0.13793 0.48493 0.0
H731 H 0.96971 0.11498 0.47233 0.0
Tb732 Tb 0.29975 0.82993 0.75621 0.0
C733 C 0.25653 0.74329 0.8082 0.0
N734 N 0.27685 0.75782 0.81308 0.0
C735 C 0.27481 0.7588 0.85504 0.0
C736 C 0.24399 0.73683 0.82668 0.0
C737 C 0.28671 0.7646 0.8361 0.0
C738 C 0.25319 0.74519 0.85029 0.0
C739 C 0.22856 0.71758 0.77922 0.0
C740 C 0.24899 0.73358 0.78475 0.0
C741 C 0.21538 0.71214 0.79742 0.0
C742 C 0.2231 0.72169 0.82109 0.0
Tb743 Tb 0.29314 0.76686 0.78028 0.0
N744 N 0.2622 0.73901 0.76757 0.0
C745 C 0.22231 0.70707 0.75568 0.0
C746 C 0.25697 0.72768 0.74497 0.0
C747 C 0.23679 0.71186 0.73858 0.0
H748 H 0.30343 0.77517 0.83974 0.0
H749 H 0.23247 0.70333 0.72051 0.0
H750 H 0.29368 0.81423 0.69469 0.0
H751 H 0.35842 0.89908 0.80823 0.0
H752 H 0.26829 0.73091 0.7319 0.0
H753 H 0.20671 0.69473 0.75071 0.0
H754 H 0.32199 0.87179 0.79755 0.0
H755 H 0.28229 0.76484 0.87325 0.0
H756 H 0.19951 0.70007 0.79348 0.0
H757 H 0.21307 0.71677 0.83503 0.0
H758 H 0.31915 0.81487 0.66442 0.0
H759 H 0.24405 0.74066 0.865 0.0
H760 H 0.38774 0.89996 0.78105 0.0
N761 N 0.31927 0.83121 0.72328 0.0
C762 C 0.34044 0.84444 0.72809 0.0
C763 C 0.3255 0.82288 0.68241 0.0
C764 C 0.35527 0.84628 0.7106 0.0
C765 C 0.31118 0.82206 0.70012 0.0
C766 C 0.34779 0.83457 0.6878 0.0
N767 N 0.33168 0.85648 0.76614 0.0
C768 C 0.33514 0.87163 0.78625 0.0
C769 C 0.36746 0.87324 0.75505 0.0
C770 C 0.34663 0.85784 0.75003 0.0
C771 C 0.37197 0.88779 0.77658 0.0
C772 C 0.35551 0.8873 0.79202 0.0
H773 H 0.35869 0.83548 0.6739 0.0
H774 H 0.38833 0.86199 0.70286 0.0
H775 H 0.39894 0.88561 0.74177 0.0
O776 O 0.28066 0.85216 0.77141 0.0
O777 O 0.33256 0.82151 0.77244 0.0
O778 O 0.3275 0.78797 0.79032 0.0
O779 O 0.29568 0.85799 0.73942 0.0
O780 O 0.30714 0.8251 0.79289 0.0
O781 O 0.28548 0.79375 0.80428 0.0
O782 O 0.30327 0.73818 0.76344 0.0
O783 O 0.26108 0.77253 0.76053 0.0
O784 O 0.26425 0.81166 0.75928 0.0
O785 O 0.31689 0.7529 0.79955 0.0
O786 O 0.30585 0.78481 0.75284 0.0
O787 O 0.2853 0.80178 0.72967 0.0
C788 C 0.34054 0.80603 0.78417 0.0
C789 C 0.26268 0.87158 0.74343 0.0
C790 C 0.23841 0.89908 0.74352 0.0
C791 C 0.22863 0.88971 0.72023 0.0
C792 C 0.25243 0.86207 0.72034 0.0
C793 C 0.23552 0.87119 0.70882 0.0
C794 C 0.25537 0.88982 0.7551 0.0
C795 C 0.29406 0.81546 0.8072 0.0
C796 C 0.28284 0.86474 0.7543 0.0
C797 C 0.37666 0.86059 0.71602 0.0
C798 C 0.38271 0.87409 0.73816 0.0
C799 C 0.25199 0.79074 0.75867 0.0
C800 C 0.31641 0.71436 0.79062 0.0
C801 C 0.3353 0.68257 0.79487 0.0
C802 C 0.32202 0.67637 0.81281 0.0
C803 C 0.30313 0.70752 0.80831 0.0
C804 C 0.33229 0.70159 0.78363 0.0
C805 C 0.30597 0.68866 0.81932 0.0
C806 C 0.2934 0.78411 0.73296 0.0
C807 C 0.31659 0.73664 0.78256 0.0
H808 H 0.21553 0.8966 0.71095 0.0
H809 H 0.25797 0.84806 0.71097 0.0
H810 H 0.22793 0.86409 0.69088 0.0
H811 H 0.26351 0.89738 0.77277 0.0
H812 H 0.32394 0.66182 0.82171 0.0
H813 H 0.29113 0.71722 0.81427 0.0
H814 H 0.34293 0.707 0.77033 0.0
H815 H 0.29594 0.68376 0.83324 0.0
Tb816 Tb 0.53015 0.06668 0.98984 0.0
C817 C 0.56648 0.01013 0.08057 0.0
N818 N 0.54993 1.00248 0.06207 0.0
C819 C 0.55804 0.96532 0.06115 0.0
C820 C 0.57944 0.99558 0.09036 0.0
C821 C 0.54584 0.98049 0.05193 0.0
C822 C 0.5748 0.97285 0.0806 0.0
C823 C 0.59021 0.04203 0.10598 0.0
C824 C 0.57164 0.03294 0.08829 0.0
C825 C 0.60251 0.02753 0.11666 0.0
C826 C 0.59713 1.00433 0.10885 0.0
Tb827 Tb 0.53026 0.02787 0.04819 0.0
N828 N 0.56002 0.0464 0.07663 0.0
C829 C 0.59671 0.06544 0.11141 0.0
C830 C 0.56785 0.06931 0.08051 0.0
C831 C 0.58572 0.07914 0.09827 0.0
H832 H 0.53301 0.97449 0.03679 0.0
H833 H 0.59143 0.09729 0.10131 0.0
H834 H 0.52478 0.11935 0.00715 0.0
H835 H 0.49513 0.01255 0.90731 0.0
H836 H 0.56134 0.08041 0.06947 0.0
H837 H 0.61091 0.07308 0.12478 0.0
H838 H 0.52406 0.02806 0.94159 0.0
H839 H 0.5546 0.94787 0.05316 0.0
H840 H 0.61673 0.0342 0.13032 0.0
H841 H 0.60723 0.99341 0.11666 0.0
H842 H 0.49674 0.14307 0.99945 0.0
H843 H 0.58442 0.96114 0.08754 0.0
H844 H 0.46267 0.03101 0.89905 0.0
N845 N 0.50739 0.09177 0.98171 0.0
C846 C 0.4907 0.08486 0.96311 0.0
C847 C 0.49459 0.12654 0.98933 0.0
C848 C 0.47444 0.0979 0.95774 0.0
C849 C 0.51021 0.11286 0.99399 0.0
C850 C 0.47632 0.11882 0.97147 0.0
N851 N 0.50687 0.0533 0.95466 0.0
C852 C 0.50943 0.03553 0.93912 0.0
C853 C 0.47386 0.05719 0.92911 0.0
C854 C 0.49048 0.06494 0.94896 0.0
C855 C 0.47513 0.0376 0.91447 0.0
C856 C 0.49333 0.02706 0.91918 0.0
H857 H 0.46421 0.12942 0.96792 0.0
H858 H 0.4443 0.09943 0.93442 0.0
H859 H 0.44373 0.06365 0.90936 0.0
O860 O 0.55631 0.06558 0.96874 0.0
O861 O 0.49568 0.05081 0.99186 0.0
O862 O 0.51668 0.04023 0.01869 0.0
O863 O 0.54857 0.09728 0.98232 0.0
O864 O 0.53581 0.0305 0.98256 0.0
O865 O 0.52787 1.00711 0.01304 0.0
O866 O 0.50552 0.03086 0.07045 0.0
O867 O 0.5612 0.03455 0.03334 0.0
O868 O 0.55327 0.06686 0.02203 0.0
O869 O 0.50638 0.99872 0.05104 0.0
O870 O 0.52304 0.06195 0.05725 0.0
O871 O 0.52704 0.08506 0.02602 0.0
C872 C 0.49637 0.03929 0.00919 0.0
C873 C 0.56016 0.0943 0.94425 0.0
C874 C 0.57719 0.09374 0.90792 0.0
C875 C 0.56218 0.10629 0.89826 0.0
C876 C 0.545 0.10694 0.93476 0.0
C877 C 0.54614 0.11297 0.9118 0.0
C878 C 0.57622 0.08788 0.93079 0.0
C879 C 0.53298 0.01043 0.99119 0.0
C880 C 0.55974 0.08724 0.96792 0.0
C881 C 0.45719 0.08984 0.93861 0.0
C882 C 0.45687 0.06948 0.92434 0.0
C883 C 0.56722 0.05296 0.02372 0.0
C884 C 0.4943 0.99912 0.0893 0.0
C885 C 0.48251 1.00217 0.12858 0.0
C886 C 0.48972 0.98221 0.1328 0.0
C887 C 0.50136 0.97897 0.09341 0.0
C888 C 0.48452 0.0104 0.10683 0.0
C889 C 0.49898 0.97056 0.11513 0.0
C890 C 0.52301 0.08141 0.04833 0.0
C891 C 0.49736 0.00925 0.06736 0.0
H892 H 0.56298 0.11095 0.88046 0.0
H893 H 0.53238 0.11211 0.94496 0.0
H894 H 0.53456 0.12276 0.90448 0.0
H895 H 0.5879 0.07808 0.93805 0.0
H896 H 0.48796 0.9756 0.14961 0.0
H897 H 0.50876 0.96981 0.08002 0.0
H898 H 0.47881 0.02585 0.10376 0.0
H899 H 0.5044 0.95506 0.1183 0.0
Tb900 Tb 0.26992 0.25028 0.2579 0.0
C901 C 0.34629 0.32682 0.31194 0.0
N902 N 0.32693 0.31449 0.31776 0.0
C903 C 0.34567 0.31391 0.35707 0.0
C904 C 0.36623 0.33256 0.3283 0.0
C905 C 0.32628 0.30872 0.34035 0.0
C906 C 0.36578 0.32568 0.35097 0.0
C907 C 0.36522 0.34837 0.28359 0.0
C908 C 0.34576 0.33505 0.29004 0.0
C909 C 0.38527 0.35342 0.29952 0.0
C910 C 0.38573 0.34568 0.32188 0.0
Tb911 Tb 0.29588 0.31067 0.28981 0.0
N912 N 0.32596 0.33028 0.27522 0.0
C913 C 0.36375 0.3567 0.26155 0.0
C914 C 0.32404 0.33974 0.25458 0.0
C915 C 0.343 0.35252 0.24707 0.0
H916 H 0.31072 0.30136 0.34631 0.0
H917 H 0.34146 0.35958 0.23043 0.0
H918 H 0.25894 0.26192 0.20129 0.0
H919 H 0.21654 0.20771 0.31641 0.0
H920 H 0.30785 0.33803 0.24422 0.0
H921 H 0.37835 0.3669 0.25588 0.0
H922 H 0.25193 0.22842 0.30599 0.0
H923 H 0.3449 0.30936 0.37491 0.0
H924 H 0.40038 0.36372 0.29494 0.0
H925 H 0.40117 0.35025 0.33425 0.0
H926 H 0.22638 0.25478 0.17067 0.0
H927 H 0.38066 0.33001 0.36414 0.0
H928 H 0.18219 0.19895 0.28692 0.0
N929 N 0.24055 0.24863 0.22845 0.0
C930 C 0.22048 0.23653 0.23289 0.0
C931 C 0.22435 0.25 0.18825 0.0
C932 C 0.2015 0.23113 0.21518 0.0
C933 C 0.24277 0.25477 0.20617 0.0
C934 C 0.20361 0.23822 0.19277 0.0
N935 N 0.23772 0.23395 0.27181 0.0
C936 C 0.23701 0.22614 0.29344 0.0
C937 C 0.19853 0.21619 0.26006 0.0
C938 C 0.21903 0.22893 0.25513 0.0
C939 C 0.19763 0.20875 0.28246 0.0
C940 C 0.21695 0.21376 0.2992 0.0
H941 H 0.18948 0.23419 0.17866 0.0
H942 H 0.1665 0.21396 0.20664 0.0
H943 H 0.16384 0.2011 0.24594 0.0
O944 O 0.26756 0.21556 0.25924 0.0
O945 O 0.24463 0.27165 0.26779 0.0
O946 O 0.26208 0.29788 0.2997 0.0
O947 O 0.2716 0.22967 0.22652 0.0
O948 O 0.28609 0.25067 0.29474 0.0
O949 O 0.28406 0.28571 0.31314 0.0
O950 O 0.28244 0.33912 0.28264 0.0
O951 O 0.3202 0.29489 0.26989 0.0
O952 O 0.30793 0.25611 0.26427 0.0
O953 O 0.30055 0.33721 0.31758 0.0
O954 O 0.27627 0.3065 0.25427 0.0
O955 O 0.28543 0.27497 0.2361 0.0
C956 C 0.24356 0.28665 0.28624 0.0
C957 C 0.28382 0.19571 0.22968 0.0
C958 C 0.30429 0.16659 0.23886 0.0
C959 C 0.30677 0.16204 0.21467 0.0
C960 C 0.28637 0.1911 0.20548 0.0
C961 C 0.29793 0.17442 0.19807 0.0
C962 C 0.29298 0.18349 0.24633 0.0
C963 C 0.28551 0.26453 0.31405 0.0
C964 C 0.26957 0.21148 0.23673 0.0
C965 C 0.18116 0.21837 0.22011 0.0
C966 C 0.17965 0.211 0.24248 0.0
C967 C 0.32416 0.27432 0.26483 0.0
C968 C 0.28655 0.37108 0.31335 0.0
C969 C 0.26799 0.40233 0.30838 0.0
C970 C 0.28016 0.4139 0.33002 0.0
C971 C 0.29853 0.38255 0.33501 0.0
C972 C 0.27105 0.38079 0.30039 0.0
C973 C 0.29521 0.40389 0.34334 0.0
C974 C 0.28123 0.29523 0.23527 0.0
C975 C 0.28975 0.34881 0.30437 0.0
H976 H 0.3156 0.14901 0.2087 0.0
H977 H 0.27904 0.20012 0.19225 0.0
H978 H 0.29978 0.17088 0.1794 0.0
H979 H 0.29075 0.18652 0.265 0.0
H980 H 0.27846 0.43083 0.33639 0.0
H981 H 0.3105 0.3751 0.34539 0.0
H982 H 0.26136 0.37155 0.28403 0.0
H983 H 0.30456 0.41283 0.35995 0.0
Tb984 Tb 0.55799 0.50844 0.02795 0.0
C985 C 0.51997 0.5855 0.07851 0.0
N986 N 0.51065 0.57216 0.05777 0.0
C987 C 0.47435 0.5668 0.0716 0.0
C988 C 0.50689 0.58966 0.09685 0.0
C989 C 0.48799 0.56336 0.0538 0.0
C990 C 0.48386 0.57985 0.09329 0.0
C991 C 0.55304 0.60981 0.1019 0.0
C992 C 0.54279 0.59519 0.08121 0.0
C993 C 0.54018 0.61373 0.12045 0.0
C994 C 0.51718 0.6036 0.11797 0.0
Tb995 Tb 0.53534 0.56674 0.03115 0.0
N996 N 0.5549 0.59026 0.06329 0.0
C997 C 0.57573 0.62043 0.10298 0.0
C998 C 0.57617 0.60213 0.06321 0.0
C999 C 0.58718 0.61699 0.08326 0.0
H1000 H 0.48024 0.5539 0.03686 0.0
H1001 H 0.60427 0.62613 0.0833 0.0
H1002 H 0.61222 0.51934 0.01973 0.0
H1003 H 0.48686 0.44777 0.98023 0.0
H1004 H 0.58415 0.60084 0.04729 0.0
H1005 H 0.58424 0.63198 0.11848 0.0
H1006 H 0.50825 0.47404 0.01475 0.0
H1007 H 0.45647 0.55952 0.06851 0.0
H1008 H 0.54777 0.62479 0.13663 0.0
H1009 H 0.50743 0.60694 0.13233 0.0
H1010 H 0.63506 0.51043 0.98808 0.0
H1011 H 0.4732 0.58255 0.10699 0.0
H1012 H 0.50571 0.439 0.94485 0.0
N1013 N 0.58139 0.49988 1.00085 0.0
C1014 C 0.57149 0.48533 0.98117 0.0
C1015 C 0.61715 0.50335 0.98585 0.0
C1016 C 0.5839 0.4796 0.96271 0.0
C1017 C 0.60406 0.50854 0.00367 0.0
C1018 C 0.607 0.48896 0.96518 0.0
N1019 N 0.53758 0.48222 0.99796 0.0
C1020 C 0.51604 0.47136 0.9989 0.0
C1021 C 0.53768 0.46067 0.95986 0.0
C1022 C 0.54876 0.47609 0.9797 0.0
C1023 C 0.5149 0.45094 0.95975 0.0
C1024 C 0.50416 0.45597 0.97961 0.0
H1025 H 0.61718 0.48499 0.9514 0.0
H1026 H 0.58209 0.46015 0.92805 0.0
H1027 H 0.54156 0.44353 0.92558 0.0
O1028 O 0.54707 0.48248 0.04881 0.0
O1029 O 0.54816 0.52046 0.99341 0.0
O1030 O 0.52162 0.54299 0.99901 0.0
O1031 O 0.58171 0.49125 0.04257 0.0
O1032 O 0.52594 0.51093 0.04244 0.0
O1033 O 0.50899 0.53587 0.02247 0.0
O1034 O 0.54767 0.59343 0.01172 0.0
O1035 O 0.54472 0.55294 0.06503 0.0
O1036 O 0.57319 0.5345 0.05758 0.0
O1037 O 0.51498 0.59008 0.02337 0.0
O1038 O 0.5673 0.56589 0.0161 0.0
O1039 O 0.58387 0.53937 0.03363 0.0
C1040 C 0.53185 0.53039 0.98532 0.0
C1041 C 0.56954 0.4542 0.05176 0.0
C1042 C 0.56806 0.42058 0.07215 0.0
C1043 C 0.581 0.41201 0.05574 0.0
C1044 C 0.58201 0.44498 0.03519 0.0
C1045 C 0.5877 0.42404 0.03726 0.0
C1046 C 0.5622 0.44167 0.07001 0.0
C1047 C 0.50782 0.51745 0.03302 0.0
C1048 C 0.56716 0.47798 0.0525 0.0
C1049 C 0.57288 0.46467 0.94252 0.0
C1050 C 0.5498 0.45523 0.94109 0.0
C1051 C 0.56211 0.54433 0.0726 0.0
C1052 C 0.52101 0.61146 0.99077 0.0
C1053 C 0.52372 0.64203 0.96526 0.0
C1054 C 0.50193 0.63227 0.9539 0.0
C1055 C 0.49936 0.60208 0.97869 0.0
C1056 C 0.53327 0.63157 0.98387 0.0
C1057 C 0.48992 0.61249 0.96052 0.0
C1058 C 0.58486 0.5568 0.02172 0.0
C1059 C 0.52964 0.60197 0.01223 0.0
H1060 H 0.58584 0.3959 0.05719 0.0
H1061 H 0.58801 0.45428 0.02111 0.0
H1062 H 0.5977 0.41727 0.02472 0.0
H1063 H 0.55282 0.44872 0.08308 0.0
H1064 H 0.49408 0.64015 0.93993 0.0
H1065 H 0.48944 0.58696 0.98369 0.0
H1066 H 0.54985 0.63925 0.99321 0.0
H1067 H 0.47304 0.60532 0.95169 0.0
Tb1068 Tb 0.79961 0.33027 0.25564 0.0
C1069 C 0.75629 0.24339 0.30954 0.0
N1070 N 0.77626 0.2584 0.31487 0.0
C1071 C 0.77318 0.2594 0.3566 0.0
C1072 C 0.74341 0.23654 0.32764 0.0
C1073 C 0.78533 0.26575 0.338 0.0
C1074 C 0.75198 0.24501 0.35138 0.0
C1075 C 0.72835 0.21871 0.27971 0.0
C1076 C 0.74892 0.23444 0.28588 0.0
C1077 C 0.71511 0.21243 0.29762 0.0
C1078 C 0.72261 0.22132 0.32151 0.0
Tb1079 Tb 0.7929 0.26894 0.2828 0.0
N1080 N 0.76181 0.24137 0.26889 0.0
C1081 C 0.72164 0.2099 0.25571 0.0
C1082 C 0.75578 0.2321 0.24558 0.0
C1083 C 0.73555 0.21645 0.23862 0.0
H1084 H 0.80166 0.27701 0.342 0.0
H1085 H 0.73064 0.20954 0.22005 0.0
H1086 H 0.7943 0.31361 0.19529 0.0
H1087 H 0.85778 0.39952 0.30845 0.0
H1088 H 0.76625 0.23704 0.23229 0.0
H1089 H 0.70587 0.1979 0.25023 0.0
H1090 H 0.82189 0.3716 0.2979 0.0
H1091 H 0.78009 0.26572 0.37493 0.0
H1092 H 0.69911 0.20061 0.29319 0.0
H1093 H 0.71232 0.2161 0.33514 0.0
H1094 H 0.81966 0.31461 0.16471 0.0
H1095 H 0.74256 0.24023 0.36582 0.0
H1096 H 0.88665 0.40188 0.28069 0.0
N1097 N 0.81965 0.33156 0.22334 0.0
C1098 C 0.84045 0.34543 0.22795 0.0
C1099 C 0.8259 0.32296 0.18259 0.0
C1100 C 0.85515 0.34765 0.21037 0.0
C1101 C 0.8117 0.32182 0.20041 0.0
C1102 C 0.8479 0.33551 0.18772 0.0
N1103 N 0.83151 0.35697 0.26604 0.0
C1104 C 0.83489 0.37186 0.28636 0.0
C1105 C 0.86673 0.37502 0.25461 0.0
C1106 C 0.8463 0.35897 0.24979 0.0
C1107 C 0.87113 0.38934 0.27628 0.0
C1108 C 0.85495 0.38798 0.29207 0.0
H1109 H 0.85871 0.33669 0.17374 0.0
H1110 H 0.88773 0.3644 0.20235 0.0
H1111 H 0.89783 0.38838 0.24111 0.0
O1112 O 0.78111 0.35382 0.26911 0.0
O1113 O 0.83209 0.32051 0.27048 0.0
O1114 O 0.82524 0.29291 0.29619 0.0
O1115 O 0.79481 0.35638 0.23584 0.0
O1116 O 0.8044 0.32959 0.29377 0.0
O1117 O 0.78533 0.29639 0.30587 0.0
O1118 O 0.80215 0.23869 0.2682 0.0
O1119 O 0.75978 0.27567 0.2671 0.0
O1120 O 0.76364 0.3118 0.25471 0.0
O1121 O 0.81796 0.25697 0.30229 0.0
O1122 O 0.80598 0.28326 0.25332 0.0
O1123 O 0.78539 0.3008 0.23057 0.0
C1124 C 0.83926 0.30765 0.28624 0.0
C1125 C 0.76198 0.37063 0.23953 0.0
C1126 C 0.73702 0.39757 0.23825 0.0
C1127 C 0.7255 0.38553 0.21656 0.0
C1128 C 0.75017 0.35867 0.21799 0.0
C1129 C 0.73203 0.36617 0.20658 0.0
C1130 C 0.75525 0.38992 0.24968 0.0
C1131 C 0.79432 0.31805 0.30923 0.0
C1132 C 0.78259 0.36462 0.25053 0.0
C1133 C 0.87614 0.36268 0.21557 0.0
C1134 C 0.88188 0.37641 0.2376 0.0
C1135 C 0.75108 0.29243 0.25903 0.0
C1136 C 0.82146 0.21885 0.29611 0.0
C1137 C 0.84144 0.1874 0.29497 0.0
C1138 C 0.83771 0.18498 0.31857 0.0
C1139 C 0.81748 0.21561 0.31955 0.0
C1140 C 0.8333 0.20441 0.28371 0.0
C1141 C 0.8257 0.1989 0.33069 0.0
C1142 C 0.79312 0.28282 0.23375 0.0
C1143 C 0.81739 0.23965 0.28649 0.0
H1144 H 0.71129 0.39094 0.20744 0.0
H1145 H 0.75521 0.34381 0.2098 0.0
H1146 H 0.72307 0.35703 0.18988 0.0
H1147 H 0.76465 0.39934 0.26609 0.0
H1148 H 0.84406 0.17218 0.3276 0.0
H1149 H 0.8088 0.2266 0.32967 0.0
H1150 H 0.83682 0.20686 0.26577 0.0
H1151 H 0.82304 0.19693 0.34894 0.0
Tb1152 Tb 0.03128 0.56765 0.4905 0.0
C1153 C 0.07114 0.51371 0.57707 0.0
N1154 N 0.05369 0.50525 0.55967 0.0
C1155 C 0.06807 0.47136 0.5526 0.0
C1156 C 0.08827 0.50167 0.58248 0.0
C1157 C 0.05168 0.48416 0.54769 0.0
C1158 C 0.0866 0.48025 0.56989 0.0
C1159 C 0.0893 0.54402 0.60796 0.0
C1160 C 0.07161 0.53449 0.5895 0.0
C1161 C 0.10695 0.53258 0.6129 0.0
C1162 C 0.10639 0.51138 0.60022 0.0
Tb1163 Tb 0.02973 0.52858 0.55001 0.0
N1164 N 0.05432 0.54501 0.58388 0.0
C1165 C 0.08848 0.5645 0.62116 0.0
C1166 C 0.05258 0.56402 0.59819 0.0
C1167 C 0.06977 0.57428 0.61658 0.0
H1168 H 0.03755 0.47715 0.53414 0.0
H1169 H 0.06843 0.58963 0.62735 0.0
H1170 H 0.02366 0.61949 0.50901 0.0
H1171 H 0.99491 0.51073 0.41043 0.0
H1172 H 0.03797 0.57139 0.59614 0.0
H1173 H 0.10176 0.57246 0.63541 0.0
H1174 H 0.02386 0.52674 0.44456 0.0
H1175 H 0.0665 0.45473 0.54288 0.0
H1176 H 0.12084 0.53977 0.62679 0.0
H1177 H 0.1199 0.50255 0.60445 0.0
H1178 H 0.9956 0.64273 0.5005 0.0
H1179 H 0.09938 0.4704 0.57352 0.0
H1180 H 0.96329 0.52993 0.40066 0.0
N1181 N 1.00779 0.59215 0.48245 0.0
C1182 C 0.99155 0.58523 0.4634 0.0
C1183 C 0.99402 0.6264 0.49014 0.0
C1184 C 0.97509 0.598 0.45777 0.0
C1185 C 1.00975 0.61293 0.4952 0.0
C1186 C 0.97635 0.61873 0.47162 0.0
N1187 N 1.00796 0.55374 0.45552 0.0
C1188 C 1.00986 0.53493 0.44112 0.0
C1189 C 0.97497 0.55713 0.42964 0.0
C1190 C 0.99168 0.56536 0.44933 0.0
C1191 C 0.97589 0.53694 0.41585 0.0
C1192 C 0.99365 0.526 0.42139 0.0
H1193 H 0.96412 0.62913 0.46783 0.0
H1194 H 0.94511 0.59917 0.43402 0.0
H1195 H 0.94482 0.56315 0.40955 0.0
O1196 O 0.0569 0.56716 0.46856 0.0
O1197 O 0.9973 0.54887 0.49047 0.0
O1198 O 0.01692 0.54226 0.52098 0.0
O1199 O 0.05057 0.59846 0.48507 0.0
O1200 O 0.03931 0.53252 0.48523 0.0
O1201 O 0.02742 0.5087 0.51425 0.0
O1202 O 1.00326 0.52917 0.57042 0.0
O1203 O 0.06254 0.53833 0.53877 0.0
O1204 O 0.05267 0.56804 0.52367 0.0
O1205 O 1.00773 0.49784 0.55208 0.0
O1206 O 0.02202 0.56297 0.55705 0.0
O1207 O 0.02881 0.58623 0.52644 0.0
C1208 C 0.9973 0.53878 0.50896 0.0
C1209 C 0.06495 0.59945 0.44836 0.0
C1210 C 0.08073 0.59852 0.41079 0.0
C1211 C 0.08026 0.62163 0.41081 0.0
C1212 C 0.06421 0.62232 0.44783 0.0
C1213 C 0.07149 0.63321 0.42889 0.0
C1214 C 0.07207 0.58745 0.42927 0.0
C1215 C 0.03504 0.51237 0.49348 0.0
C1216 C 0.06184 0.5891 0.47023 0.0
C1217 C 0.9581 0.58976 0.43842 0.0
C1218 C 0.95797 0.56929 0.42446 0.0
C1219 C 0.06727 0.55518 0.52651 0.0
C1220 C 0.99521 0.49781 0.59013 0.0
C1221 C 0.98023 0.49894 0.62786 0.0
C1222 C 0.99334 0.48368 0.63525 0.0
C1223 C 1.00857 0.4827 0.59762 0.0
C1224 C 0.98105 0.50584 0.60533 0.0
C1225 C 1.00748 0.47559 0.62012 0.0
C1226 C 0.02366 0.58272 0.54834 0.0
C1227 C 0.9972 0.50733 0.56775 0.0
H1228 H 0.08735 0.63117 0.39745 0.0
H1229 H 0.05881 0.63203 0.46244 0.0
H1230 H 0.07133 0.65096 0.42879 0.0
H1231 H 0.07174 0.56963 0.42951 0.0
H1232 H 0.9928 0.47828 0.65277 0.0
H1233 H 0.02003 0.47668 0.58635 0.0
H1234 H 0.971 0.51784 0.59984 0.0
H1235 H 0.0178 0.46401 0.62594 0.0
Tb1236 Tb 0.82508 0.77456 0.29099 0.0
C1237 C 0.74089 0.8067 0.23858 0.0
N1238 N 0.75515 0.81687 0.25847 0.0
C1239 C 0.75633 0.85293 0.24452 0.0
C1240 C 0.73438 0.81924 0.22052 0.0
C1241 C 0.76194 0.83987 0.26218 0.0
C1242 C 0.74274 0.84255 0.22346 0.0
C1243 C 0.71645 0.7727 0.21697 0.0
C1244 C 0.73201 0.78371 0.23673 0.0
C1245 C 0.71037 0.78504 0.19867 0.0
C1246 C 0.71937 0.80822 0.2004 0.0
Tb1247 Tb 0.76335 0.79298 0.28515 0.0
N1248 N 0.73887 0.77207 0.25433 0.0
C1249 C 0.70732 0.74968 0.21637 0.0
C1250 C 0.72855 0.75021 0.2549 0.0
C1251 C 0.7131 0.73849 0.23564 0.0
H1252 H 0.77141 0.8484 0.27885 0.0
H1253 H 0.70543 0.72095 0.23584 0.0
H1254 H 0.80889 0.71995 0.29963 0.0
H1255 H 0.88705 0.84287 0.34163 0.0
H1256 H 0.73203 0.74195 0.27027 0.0
H1257 H 0.69532 0.74059 0.20147 0.0
H1258 H 0.86045 0.82354 0.30647 0.0
H1259 H 0.76221 0.87106 0.24733 0.0
H1260 H 0.69858 0.77686 0.18321 0.0
H1261 H 0.71431 0.81756 0.18626 0.0
H1262 H 0.8141 0.69713 0.33195 0.0
H1263 H 0.73824 0.85276 0.20993 0.0
H1264 H 0.89354 0.82271 0.37651 0.0
N1265 N 0.82846 0.75059 0.31916 0.0
C1266 C 0.84318 0.75976 0.33906 0.0
C1267 C 0.8221 0.71483 0.33434 0.0
C1268 C 0.84729 0.74694 0.35774 0.0
C1269 C 0.81871 0.72811 0.31619 0.0
C1270 C 0.83624 0.72433 0.35532 0.0
N1271 N 0.84997 0.79401 0.32236 0.0
C1272 C 0.86209 0.81522 0.32215 0.0
C1273 C 0.87002 0.79208 0.36078 0.0
C1274 C 0.85444 0.78208 0.3406 0.0
C1275 C 0.88141 0.81442 0.36136 0.0
C1276 C 0.87766 0.82592 0.34179 0.0
H1277 H 0.83897 0.71392 0.36926 0.0
H1278 H 0.8658 0.7474 0.39261 0.0
H1279 H 0.88569 0.7869 0.39526 0.0
O1280 O 0.85673 0.78423 0.27783 0.0
O1281 O 0.81111 0.78585 0.32401 0.0
O1282 O 0.78799 0.81097 0.31503 0.0
O1283 O 0.84186 0.74907 0.27974 0.0
O1284 O 0.82512 0.80778 0.27902 0.0
O1285 O 0.79279 0.82125 0.28806 0.0
O1286 O 0.74102 0.78041 0.30936 0.0
O1287 O 0.77152 0.77425 0.25242 0.0
O1288 O 0.80982 0.77326 0.25412 0.0
O1289 O 0.73649 0.80891 0.2918 0.0
O1290 O 0.77126 0.76442 0.30212 0.0
O1291 O 0.79467 0.74802 0.2805 0.0
C1292 C 0.80035 0.80211 0.33049 0.0
C1293 C 0.87837 0.75546 0.26564 0.0
C1294 C 0.90876 0.75732 0.24039 0.0
C1295 C 0.91449 0.73822 0.24943 0.0
C1296 C 0.88458 0.73643 0.27427 0.0
C1297 C 0.90258 0.72799 0.2663 0.0
C1298 C 0.8908 0.76624 0.2489 0.0
C1299 C 0.81325 0.82379 0.28126 0.0
C1300 C 0.85871 0.76329 0.27421 0.0
C1301 C 0.86251 0.75697 0.37805 0.0
C1302 C 0.87386 0.77946 0.37956 0.0
C1303 C 0.78952 0.77108 0.24236 0.0
C1304 C 0.71842 0.80502 0.32663 0.0
C1305 C 0.68695 0.80376 0.35083 0.0
C1306 C 0.69595 0.82626 0.36046 0.0
C1307 C 0.72698 0.82745 0.33688 0.0
C1308 C 0.69827 0.79312 0.33377 0.0
C1309 C 0.71578 0.83794 0.35359 0.0
C1310 C 0.77624 0.74652 0.29086 0.0
C1311 C 0.72842 0.7952 0.30621 0.0
H1312 H 0.92835 0.73122 0.24344 0.0
H1313 H 0.87548 0.72806 0.2873 0.0
H1314 H 0.90724 0.71333 0.27313 0.0
H1315 H 0.88614 0.78091 0.24203 0.0
H1316 H 0.68743 0.83491 0.37324 0.0
H1317 H 0.74198 0.83712 0.33139 0.0
H1318 H 0.69117 0.77596 0.32568 0.0
H1319 H 0.72232 0.85537 0.36101 0.0
Tb1320 Tb 0.7622 0.30007 0.8252 0.0
C1321 C 0.81942 0.26183 0.73849 0.0
N1322 N 0.82675 0.27934 0.7561 0.0
C1323 C 0.86366 0.27052 0.75987 0.0
C1324 C 0.83394 0.24776 0.73091 0.0
C1325 C 0.84852 0.28382 0.76694 0.0
C1326 C 0.85636 0.25242 0.74174 0.0
C1327 C 0.78821 0.23826 0.71182 0.0
C1328 C 0.79695 0.25729 0.72901 0.0
C1329 C 0.80268 0.22447 0.70376 0.0
C1330 C 0.82552 0.22922 0.71328 0.0
Tb1331 Tb 0.80105 0.29992 0.76702 0.0
N1332 N 0.78337 0.27052 0.73801 0.0
C1333 C 0.76507 0.23313 0.70392 0.0
C1334 C 0.76053 0.26476 0.73107 0.0
C1335 C 0.75115 0.24635 0.71377 0.0
H1336 H 0.85433 0.29771 0.78107 0.0
H1337 H 0.73308 0.24206 0.70846 0.0
H1338 H 0.70952 0.30597 0.81039 0.0
H1339 H 0.82235 0.33765 0.90312 0.0
H1340 H 0.74902 0.27342 0.73926 0.0
H1341 H 0.75769 0.21862 0.69085 0.0
H1342 H 0.80605 0.3089 0.86932 0.0
H1343 H 0.88091 0.27415 0.7685 0.0
H1344 H 0.79628 0.2098 0.69059 0.0
H1345 H 0.83641 0.21819 0.70724 0.0
H1346 H 0.68605 0.33386 0.81988 0.0
H1347 H 0.86805 0.24198 0.73647 0.0
H1348 H 0.80247 0.36826 0.91459 0.0
N1349 N 0.73769 0.32285 0.83517 0.0
C1350 C 0.74513 0.3391 0.8541 0.0
C1351 C 0.70282 0.33581 0.82939 0.0
C1352 C 0.73225 0.35521 0.86058 0.0
C1353 C 0.71637 0.32035 0.82359 0.0
C1354 C 0.71098 0.35361 0.84767 0.0
N1355 N 0.77748 0.32348 0.86004 0.0
C1356 C 0.79719 0.32224 0.87341 0.0
C1357 C 0.77429 0.35604 0.88677 0.0
C1358 C 0.76563 0.3393 0.86721 0.0
C1359 C 0.79515 0.35563 0.89952 0.0
C1360 C 0.80646 0.33845 0.89302 0.0
H1361 H 0.70051 0.36563 0.85209 0.0
H1362 H 0.73141 0.38494 0.88486 0.0
H1363 H 0.76841 0.38582 0.90766 0.0
O1364 O 0.76302 0.27323 0.84528 0.0
O1365 O 0.78128 0.33396 0.82591 0.0
O1366 O 0.78779 0.31419 0.79563 0.0
O1367 O 0.73146 0.28122 0.83186 0.0
O1368 O 0.79691 0.29069 0.83055 0.0
O1369 O 0.82133 0.30372 0.80268 0.0
O1370 O 0.79871 0.32194 0.74177 0.0
O1371 O 0.7911 0.26748 0.7788 0.0
O1372 O 0.76129 0.27926 0.79168 0.0
O1373 O 0.83004 0.32439 0.76471 0.0
O1374 O 0.76753 0.30907 0.7587 0.0
O1375 O 0.74396 0.30489 0.78955 0.0
C1376 C 0.79154 0.33385 0.8076 0.0
C1377 C 0.73441 0.26954 0.86981 0.0
C1378 C 0.73893 0.25625 0.9081 0.0
C1379 C 0.72393 0.26918 0.91652 0.0
C1380 C 0.71919 0.28247 0.87803 0.0
C1381 C 0.71395 0.28219 0.90136 0.0
C1382 C 0.74402 0.25641 0.88487 0.0
C1383 C 0.8174 0.29564 0.82312 0.0
C1384 C 0.74134 0.26978 0.84605 0.0
C1385 C 0.74091 0.37221 0.87981 0.0
C1386 C 0.76194 0.37266 0.89283 0.0
C1387 C 0.77328 0.26379 0.78982 0.0
C1388 C 0.83166 0.33596 0.72609 0.0
C1389 C 0.83078 0.34938 0.68743 0.0
C1390 C 0.85269 0.34556 0.68591 0.0
C1391 C 0.85359 0.33227 0.72463 0.0
C1392 C 0.8205 0.34467 0.70758 0.0
C1393 C 0.86405 0.33712 0.70452 0.0
C1394 C 0.74795 0.30935 0.76743 0.0
C1395 C 0.81989 0.33179 0.74675 0.0
H1396 H 0.71965 0.26881 0.93451 0.0
H1397 H 0.71146 0.29281 0.8666 0.0
H1398 H 0.70216 0.29201 0.90768 0.0
H1399 H 0.7557 0.24634 0.87856 0.0
H1400 H 0.86111 0.34943 0.67055 0.0
H1401 H 0.86262 0.32578 0.73892 0.0
H1402 H 0.80357 0.34763 0.70876 0.0
H1403 H 0.881 0.3344 0.70339 0.0
Tb1404 Tb 0.7724 0.75287 0.75751 0.0
C1405 C 0.84714 0.82992 0.81696 0.0
N1406 N 0.82757 0.81699 0.82147 0.0
C1407 C 0.84381 0.81694 0.86185 0.0
C1408 C 0.86587 0.83674 0.83481 0.0
C1409 C 0.82557 0.8108 0.84372 0.0
C1410 C 0.86404 0.82994 0.85738 0.0
C1411 C 0.86823 0.8503 0.78921 0.0
C1412 C 0.84831 0.83669 0.79439 0.0
C1413 C 0.88683 0.85719 0.80702 0.0
C1414 C 0.88566 0.85042 0.82972 0.0
Tb1415 Tb 0.79846 0.81232 0.79137 0.0
N1416 N 0.83015 0.82939 0.77735 0.0
C1417 C 0.86894 0.85641 0.76621 0.0
C1418 C 0.83047 0.83623 0.75527 0.0
C1419 C 0.84993 0.84939 0.7492 0.0
H1420 H 0.80973 0.80222 0.84819 0.0
H1421 H 0.85003 0.85461 0.73158 0.0
H1422 H 0.76089 0.76324 0.70104 0.0
H1423 H 0.72098 0.70741 0.81557 0.0
H1424 H 0.81558 0.8327 0.74265 0.0
H1425 H 0.88395 0.86678 0.76151 0.0
H1426 H 0.75594 0.72827 0.80427 0.0
H1427 H 0.84205 0.81213 0.87945 0.0
H1428 H 0.90224 0.86769 0.80337 0.0
H1429 H 0.90016 0.85591 0.84327 0.0
H1430 H 0.72827 0.75491 0.67005 0.0
H1431 H 0.87802 0.83494 0.8716 0.0
H1432 H 0.68603 0.69881 0.78692 0.0
N1433 N 0.74283 0.74901 0.72778 0.0
C1434 C 0.72297 0.73668 0.73232 0.0
C1435 C 0.72642 0.75005 0.68762 0.0
C1436 C 0.70396 0.73083 0.71469 0.0
C1437 C 0.74483 0.75538 0.70559 0.0
C1438 C 0.70588 0.73779 0.69219 0.0
N1439 N 0.7407 0.73472 0.77099 0.0
C1440 C 0.74066 0.72635 0.79234 0.0
C1441 C 0.70163 0.71632 0.75982 0.0
C1442 C 0.72186 0.72936 0.7546 0.0
C1443 C 0.70123 0.70888 0.78224 0.0
C1444 C 0.72088 0.71381 0.79851 0.0
H1445 H 0.69174 0.73341 0.6781 0.0
H1446 H 0.66912 0.71309 0.70647 0.0
H1447 H 0.66702 0.70055 0.74601 0.0
O1448 O 0.77929 0.72096 0.76323 0.0
O1449 O 0.74639 0.77344 0.76676 0.0
O1450 O 0.76329 0.80031 0.79862 0.0
O1451 O 0.77163 0.72973 0.72735 0.0
O1452 O 0.78893 0.75461 0.7947 0.0
O1453 O 0.78348 0.78799 0.81357 0.0
O1454 O 0.79263 0.84344 0.78289 0.0
O1455 O 0.82487 0.79277 0.78149 0.0
O1456 O 0.80849 0.76339 0.75192 0.0
O1457 O 0.80063 0.83824 0.81944 0.0
O1458 O 0.77954 0.80995 0.75552 0.0
O1459 O 0.78756 0.77818 0.73664 0.0
C1460 C 0.74492 0.78829 0.7852 0.0
C1461 C 0.77884 0.69251 0.72943 0.0
C1462 C 0.79166 0.65789 0.73471 0.0
C1463 C 0.79068 0.65294 0.70983 0.0
C1464 C 0.77772 0.6875 0.70458 0.0
C1465 C 0.78334 0.66758 0.69484 0.0
C1466 C 0.78479 0.67722 0.74421 0.0
C1467 C 0.78575 0.76705 0.81403 0.0
C1468 C 0.77653 0.71464 0.74026 0.0
C1469 C 0.68383 0.71785 0.71985 0.0
C1470 C 0.68264 0.71069 0.74237 0.0
C1471 C 0.82666 0.77668 0.76449 0.0
C1472 C 0.77785 0.86458 0.81215 0.0
C1473 C 0.75278 0.88929 0.80135 0.0
C1474 C 0.74886 0.89309 0.82519 0.0
C1475 C 0.77411 0.86848 0.83609 0.0
C1476 C 0.76692 0.87486 0.79492 0.0
C1477 C 0.75948 0.88258 0.8425 0.0
C1478 C 0.7826 0.79805 0.73595 0.0
C1479 C 0.79489 0.85205 0.80521 0.0
H1480 H 0.79625 0.63826 0.70202 0.0
H1481 H 0.77315 0.69922 0.69276 0.0
H1482 H 0.78283 0.66389 0.67572 0.0
H1483 H 0.78516 0.68098 0.76334 0.0
H1484 H 0.73841 0.90485 0.83051 0.0
H1485 H 0.78283 0.8611 0.84987 0.0
H1486 H 0.77017 0.87251 0.7765 0.0
H1487 H 0.7569 0.88588 0.86097 0.0
Tb1488 Tb 0.57709 0.55812 0.55887 0.0
C1489 C 0.50099 0.4827 0.49986 0.0
N1490 N 0.51225 0.50275 0.49456 0.0
C1491 C 0.51145 0.48636 0.45408 0.0
C1492 C 0.49497 0.46354 0.4825 0.0
C1493 C 0.51687 0.50496 0.4718 0.0
C1494 C 0.50062 0.46551 0.45948 0.0
C1495 C 0.48266 0.46123 0.5286 0.0
C1496 C 0.49486 0.48156 0.52266 0.0
C1497 C 0.47691 0.44206 0.51142 0.0
C1498 C 0.48308 0.4432 0.48846 0.0
Tb1499 Tb 0.51779 0.53205 0.52462 0.0
N1500 N 0.50078 0.50041 0.53893 0.0
C1501 C 0.47633 0.46088 0.55153 0.0
C1502 C 0.49266 0.50061 0.56039 0.0
C1503 C 0.48108 0.48078 0.56739 0.0
H1504 H 0.52375 0.52121 0.46683 0.0
H1505 H 0.47511 0.48107 0.58468 0.0
H1506 H 0.56489 0.56908 0.61489 0.0
H1507 H 0.62898 0.60882 0.50559 0.0
H1508 H 0.49367 0.51617 0.57151 0.0
H1509 H 0.46704 0.44558 0.55683 0.0
H1510 H 0.60678 0.57382 0.51588 0.0
H1511 H 0.51519 0.48824 0.43612 0.0
H1512 H 0.46756 0.4263 0.51567 0.0
H1513 H 0.47832 0.4283 0.47533 0.0
H1514 H 0.57076 0.60183 0.64538 0.0
H1515 H 0.49619 0.4512 0.44561 0.0
H1516 H 0.63446 0.64429 0.53309 0.0
N1517 N 0.57949 0.58751 0.58851 0.0
C1518 C 0.59172 0.60761 0.58439 0.0
C1519 C 0.57635 0.6038 0.62813 0.0
C1520 C 0.59635 0.62668 0.60192 0.0
C1521 C 0.5724 0.58528 0.61036 0.0
C1522 C 0.58823 0.62463 0.62386 0.0
N1523 N 0.59668 0.58978 0.54683 0.0
C1524 C 0.60752 0.58943 0.52704 0.0
C1525 C 0.61421 0.62898 0.55843 0.0
C1526 C 0.60061 0.60876 0.5629 0.0
C1527 C 0.62388 0.62912 0.53717 0.0
C1528 C 0.62073 0.60916 0.52155 0.0
H1529 H 0.59161 0.63883 0.63785 0.0
H1530 H 0.61332 0.66174 0.61062 0.0
H1531 H 0.62887 0.66377 0.57254 0.0
O1532 O 0.6075 0.54852 0.55281 0.0
O1533 O 0.55703 0.58403 0.54844 0.0
O1534 O 0.52909 0.56733 0.51736 0.0
O1535 O 0.6017 0.56124 0.58867 0.0
O1536 O 0.576 0.54338 0.52105 0.0
O1537 O 0.54173 0.5464 0.50143 0.0
O1538 O 0.48734 0.53916 0.53392 0.0
O1539 O 0.53854 0.50608 0.53315 0.0
O1540 O 0.56568 0.52235 0.56484 0.0
O1541 O 0.49119 0.52965 0.49724 0.0
O1542 O 0.52077 0.55011 0.56119 0.0
O1543 O 0.55254 0.54193 0.57994 0.0
C1544 C 0.54164 0.58549 0.53057 0.0
C1545 C 0.63775 0.55111 0.58491 0.0
C1546 C 0.6709 0.53616 0.57849 0.0
C1547 C 0.68025 0.54401 0.60222 0.0
C1548 C 0.64704 0.55922 0.60862 0.0
C1549 C 0.66829 0.55559 0.61724 0.0
C1550 C 0.64968 0.53959 0.57009 0.0
C1551 C 0.56312 0.54548 0.50149 0.0
C1552 C 0.61538 0.55374 0.57538 0.0
C1553 C 0.60953 0.64696 0.59732 0.0
C1554 C 0.61839 0.64812 0.57563 0.0
C1555 C 0.5537 0.50419 0.55108 0.0
C1556 C 0.46791 0.55559 0.50484 0.0
C1557 C 0.44437 0.58209 0.51524 0.0
C1558 C 0.44327 0.58785 0.49189 0.0
C1559 C 0.46673 0.56126 0.48147 0.0
C1560 C 0.45737 0.56661 0.5217 0.0
C1561 C 0.45469 0.57762 0.47518 0.0
C1562 C 0.53224 0.54575 0.58044 0.0
C1563 C 0.47842 0.53711 0.51172 0.0
H1564 H 0.69677 0.54142 0.60898 0.0
H1565 H 0.63791 0.56819 0.62043 0.0
H1566 H 0.67548 0.56177 0.63551 0.0
H1567 H 0.64228 0.53286 0.55193 0.0
H1568 H 0.43286 0.59943 0.48627 0.0
H1569 H 0.47471 0.55285 0.46802 0.0
H1570 H 0.45834 0.56228 0.53976 0.0
H1571 H 0.45353 0.58179 0.45711 0.0
Tb1572 Tb 1.00372 0.53435 0.05782 0.0
C1573 C 0.0856 0.58159 0.00607 0.0
N1574 N 0.07169 0.561 0.99918 0.0
C1575 C 0.06821 0.56879 0.95857 0.0
C1576 C 0.09044 0.59693 0.98949 0.0
C1577 C 0.06408 0.554 0.97553 0.0
C1578 C 0.08113 0.59045 0.96562 0.0
C1579 C 0.11077 0.60795 0.03719 0.0
C1580 C 0.09586 0.5871 0.02969 0.0
C1581 C 0.11495 0.62349 0.02084 0.0
C1582 C 0.10482 0.61801 0.99709 0.0
Tb1583 Tb 0.06669 0.53956 0.02961 0.0
N1584 N 0.09081 0.57211 0.04547 0.0
C1585 C 0.12121 0.61242 0.06086 0.0
C1586 C 0.10223 0.57559 0.06795 0.0
C1587 C 0.11722 0.59599 0.07618 0.0
H1588 H 0.05516 0.53693 0.96938 0.0
H1589 H 0.12589 0.59891 0.09422 0.0
H1590 H 0.01661 0.5382 0.11821 0.0
H1591 H 0.93937 0.47546 0.99762 0.0
H1592 H 0.10005 0.56254 0.07931 0.0
H1593 H 0.13284 0.62823 0.0673 0.0
H1594 H 0.96788 0.51043 0.00979 0.0
H1595 H 0.06173 0.56331 0.93997 0.0
H1596 H 0.12624 0.63968 0.0263 0.0
H1597 H 0.10856 0.63005 0.9846 0.0
H1598 H 0.01093 0.51281 0.14857 0.0
H1599 H 0.08446 0.60177 0.95235 0.0
H1600 H 0.93254 0.44736 0.02582 0.0
N1601 N 0.99908 0.51361 0.08917 0.0
C1602 C 0.98463 0.49324 0.0834 0.0
C1603 C 1.00378 0.50693 0.13022 0.0
C1604 C 0.98014 0.47851 0.10068 0.0
C1605 C 1.0074 0.52113 0.11263 0.0
C1606 C 0.99045 0.48536 0.12415 0.0
N1607 N 0.97741 0.50232 0.04426 0.0
C1608 C 0.96515 0.49838 0.02214 0.0
C1609 C 0.95714 0.46723 0.05417 0.0
C1610 C 0.97315 0.48762 0.06042 0.0
C1611 C 0.94504 0.46278 0.03125 0.0
C1612 C 0.94885 0.47859 0.01528 0.0
H1613 H 0.98744 0.47452 0.1379 0.0
H1614 H 0.96143 0.44621 0.10726 0.0
H1615 H 0.94133 0.43635 0.06654 0.0
O1616 O 0.97476 0.54551 0.04334 0.0
O1617 O 0.01119 0.50152 0.03999 0.0
O1618 O 0.04588 0.50453 0.02357 0.0
O1619 O 0.98697 0.5519 0.08101 0.0
O1620 O 0.01744 0.54675 0.02697 0.0
O1621 O 0.0376 0.52945 0.00305 0.0
O1622 O 0.09274 0.52573 0.04643 0.0
O1623 O 0.05786 0.57202 0.04545 0.0
O1624 O 0.02415 0.5695 0.06283 0.0
O1625 O 0.09089 0.53029 0.00927 0.0
O1626 O 0.05149 0.52627 0.05872 0.0
O1627 O 0.03311 0.54353 0.08387 0.0
C1628 C 0.02649 0.49259 0.02868 0.0
C1629 C 0.94925 0.55456 0.07053 0.0
C1630 C 0.91809 0.5744 0.07092 0.0
C1631 C 0.91065 0.56295 0.08973 0.0
C1632 C 0.94141 0.54288 0.08902 0.0
C1633 C 0.92213 0.54708 0.0985 0.0
C1634 C 0.93726 0.5699 0.0612 0.0
C1635 C 0.01829 0.53443 0.00709 0.0
C1636 C 0.97199 0.55483 0.0642 0.0
C1637 C 0.9649 0.45778 0.09425 0.0
C1638 C 0.95341 0.45217 0.07107 0.0
C1639 C 0.04305 0.58128 0.05682 0.0
C1640 C 0.10663 0.49999 0.02019 0.0
C1641 C 0.13444 0.47591 0.01953 0.0
C1642 C 0.1193 0.45991 0.00291 0.0
C1643 C 0.09163 0.48366 0.00372 0.0
C1644 C 0.12794 0.49587 0.02838 0.0
C1645 C 0.09794 0.46371 0.99524 0.0
C1646 C 0.05177 0.53811 0.07893 0.0
C1647 C 0.10128 0.5223 0.0266 0.0
H1648 H 0.89591 0.56623 0.09753 0.0
H1649 H 0.95068 0.53127 0.09675 0.0
H1650 H 0.91637 0.5384 0.11307 0.0
H1651 H 0.9436 0.57936 0.04734 0.0
H1652 H 0.12407 0.44449 0.99583 0.0
H1653 H 0.07524 0.48658 0.99695 0.0
H1654 H 0.13977 0.50853 0.04079 0.0
H1655 H 0.08638 0.45131 0.98239 0.0
C1656 C 0.99978 0.19599 0.98112 0.0
C1657 C 0.01672 0.21547 0.98136 0.0
C1658 C 1.00444 0.17581 0.98986 0.0
C1659 C 0.02689 0.17401 0.99856 0.0
C1660 C 0.0441 0.19354 0.99845 0.0
C1661 C 0.03884 0.21376 0.99042 0.0
C1662 C 0.98506 0.15636 0.99011 0.0
C1663 C 0.06846 0.19285 0.00598 0.0
C1664 C 0.03929 0.12749 0.03879 0.0
C1665 C 0.04136 0.10918 0.02224 0.0
C1666 C 0.03442 0.14818 0.03151 0.0
C1667 C 0.03235 0.15173 0.00694 0.0
C1668 C 0.0354 0.13357 0.99034 0.0
C1669 C 0.03923 0.11278 0.998 0.0
C1670 C 0.0308 0.16611 0.05026 0.0
C1671 C 0.03456 0.13594 0.96414 0.0
H1672 H 0.9826 0.19658 0.97435 0.0
H1673 H 0.05238 0.22819 0.99056 0.0
H1674 H 0.98776 0.14105 0.97933 0.0
H1675 H 0.98423 0.15239 0.00865 0.0
H1676 H 0.9686 0.16006 0.98303 0.0
H1677 H 0.07984 0.20951 0.00639 0.0
H1678 H 0.07057 0.18726 0.02387 0.0
H1679 H 0.07382 0.18034 0.9933 0.0
H1680 H 0.04071 0.12539 0.05754 0.0
H1681 H 0.04084 0.09923 0.98473 0.0
H1682 H 0.01364 0.16965 0.04625 0.0
H1683 H 0.04304 0.18207 0.05005 0.0
H1684 H 0.03264 0.16106 0.06847 0.0
H1685 H 0.01678 0.13437 0.95624 0.0
H1686 H 0.04171 0.12276 0.95429 0.0
H1687 H 0.04399 0.15278 0.96146 0.0
C1688 C 0.12627 0.79984 0.19005 0.0
C1689 C 0.12889 0.8064 0.16733 0.0
C1690 C 0.14502 0.79882 0.20667 0.0
C1691 C 0.16733 0.8047 0.20081 0.0
C1692 C 0.17011 0.81163 0.178 0.0
C1693 C 0.151 0.81227 0.1616 0.0
C1694 C 0.14091 0.79139 0.2306 0.0
C1695 C 0.19335 0.81801 0.17067 0.0
C1696 C 0.21816 0.82041 0.25071 0.0
C1697 C 0.22604 0.80017 0.25092 0.0
C1698 C 0.19897 0.82202 0.23496 0.0
C1699 C 0.18759 0.80314 0.21832 0.0
C1700 C 0.19554 0.78263 0.21863 0.0
C1701 C 0.21419 0.78127 0.23521 0.0
C1702 C 0.19091 0.84404 0.23608 0.0
C1703 C 0.1845 0.7621 0.20118 0.0
H1704 H 0.10939 0.79517 0.19483 0.0
H1705 H 0.15341 0.8173 0.14418 0.0
H1706 H 0.1491 0.77693 0.23367 0.0
H1707 H 0.1486 0.80535 0.24499 0.0
H1708 H 0.12264 0.78632 0.23212 0.0
H1709 H 0.19295 0.82501 0.1534 0.0
H1710 H 0.20444 0.83068 0.18452 0.0
H1711 H 0.20108 0.80289 0.16899 0.0
H1712 H 0.227 0.83502 0.26299 0.0
H1713 H 0.21991 0.76546 0.23549 0.0
H1714 H 0.1729 0.8412 0.23898 0.0
H1715 H 0.19211 0.8509 0.21884 0.0
H1716 H 0.20087 0.85684 0.25058 0.0
H1717 H 0.16652 0.75687 0.20373 0.0
H1718 H 0.19297 0.74762 0.20316 0.0
H1719 H 0.18486 0.76623 0.18265 0.0
C1720 C 0.49623 0.8534 0.49842 0.0
C1721 C 0.51376 0.84583 0.48764 0.0
C1722 C 0.49728 0.87675 0.50619 0.0
C1723 C 0.5165 0.89341 0.50366 0.0
C1724 C 0.53443 0.88573 0.4933 0.0
C1725 C 0.53276 0.86241 0.48532 0.0
C1726 C 0.47744 0.88365 0.51659 0.0
C1727 C 0.55561 0.90226 0.49065 0.0
C1728 C 0.51353 0.95655 0.50123 0.0
C1729 C 0.52256 0.96701 0.52441 0.0
C1730 C 0.51088 0.93287 0.49455 0.0
C1731 C 0.51776 0.91877 0.51121 0.0
C1732 C 0.5267 0.92931 0.53478 0.0
C1733 C 0.52879 0.95301 0.54106 0.0
C1734 C 0.50101 0.92297 0.46936 0.0
C1735 C 0.5345 0.91558 0.55339 0.0
H1736 H 0.48131 0.84111 0.50022 0.0
H1737 H 0.54654 0.85713 0.47713 0.0
H1738 H 0.48307 0.89369 0.53437 0.0
H1739 H 0.46993 0.89458 0.50496 0.0
H1740 H 0.46417 0.86888 0.51842 0.0
H1741 H 0.56784 0.89398 0.48168 0.0
H1742 H 0.55137 0.91566 0.48025 0.0
H1743 H 0.56393 0.91065 0.50852 0.0
H1744 H 0.5086 0.96696 0.48813 0.0
H1745 H 0.53593 0.96074 0.55897 0.0
H1746 H 0.48655 0.90884 0.46952 0.0
H1747 H 0.51386 0.91597 0.46017 0.0
H1748 H 0.49517 0.93568 0.45888 0.0
H1749 H 0.51988 0.90326 0.55736 0.0
H1750 H 0.54262 0.92628 0.57027 0.0
H1751 H 0.54669 0.9058 0.54657 0.0
C1752 C 0.49314 0.28228 0.64566 0.0
C1753 C 0.5146 0.29371 0.65656 0.0
C1754 C 0.47486 0.27825 0.65892 0.0
C1755 C 0.47798 0.286 0.68369 0.0
C1756 C 0.49947 0.29813 0.69466 0.0
C1757 C 0.51753 0.30172 0.68101 0.0
C1758 C 0.45224 0.26533 0.64645 0.0
C1759 C 0.50354 0.30681 0.72094 0.0
C1760 C 0.42377 0.2868 0.71183 0.0
C1761 C 0.42003 0.26568 0.72013 0.0
C1762 C 0.44306 0.29415 0.70079 0.0
C1763 C 0.45905 0.28012 0.69819 0.0
C1764 C 0.45601 0.25945 0.70798 0.0
C1765 C 0.43653 0.25246 0.71869 0.0
C1766 C 0.44572 0.31641 0.69086 0.0
C1767 C 0.4727 0.24407 0.70598 0.0
H1768 H 0.4907 0.27611 0.62678 0.0
H1769 H 0.53403 0.31067 0.68957 0.0
H1770 H 0.44668 0.25007 0.65508 0.0
H1771 H 0.43938 0.27595 0.64804 0.0
H1772 H 0.45269 0.26002 0.62723 0.0
H1773 H 0.5203 0.31822 0.72614 0.0
H1774 H 0.49027 0.31603 0.72588 0.0
H1775 H 0.50267 0.29237 0.73143 0.0
H1776 H 0.41106 0.29707 0.71288 0.0
H1777 H 0.43386 0.23625 0.72539 0.0
H1778 H 0.44255 0.31324 0.6711 0.0
H1779 H 0.46321 0.32627 0.69584 0.0
H1780 H 0.43377 0.32672 0.69726 0.0
H1781 H 0.47145 0.23648 0.68713 0.0
H1782 H 0.46956 0.23021 0.71722 0.0
H1783 H 0.49023 0.25371 0.71129 0.0
C1784 C 0.02851 0.83672 0.66851 0.0
C1785 C 0.03786 0.81781 0.66253 0.0
C1786 C 0.03194 0.85543 0.65567 0.0
C1787 C 0.04553 0.85541 0.63687 0.0
C1788 C 0.05522 0.83641 0.63109 0.0
C1789 C 0.05099 0.81777 0.64373 0.0
C1790 C 0.02065 0.87494 0.66189 0.0
C1791 C 0.0704 0.83589 0.61175 0.0
C1792 C 0.04432 0.89222 0.58675 0.0
C1793 C 0.06431 0.90831 0.59371 0.0
C1794 C 0.03718 0.87561 0.60132 0.0
C1795 C 0.0503 0.87525 0.62339 0.0
C1796 C 0.06972 0.89244 0.6311 0.0
C1797 C 0.07658 0.90866 0.61607 0.0
C1798 C 0.01631 0.85771 0.59248 0.0
C1799 C 0.08387 0.89306 0.65473 0.0
H1800 H 0.01815 0.83668 0.68289 0.0
H1801 H 0.0584 0.80326 0.6392 0.0
H1802 H 0.03297 0.8912 0.66406 0.0
H1803 H 1.00739 0.87548 0.64709 0.0
H1804 H 0.01268 0.8735 0.67851 0.0
H1805 H 0.07667 0.81989 0.60948 0.0
H1806 H 0.06119 0.83803 0.59449 0.0
H1807 H 0.08515 0.85014 0.61608 0.0
H1808 H 0.03485 0.89201 0.56943 0.0
H1809 H 0.09193 0.92129 0.62149 0.0
H1810 H 1.00516 0.85564 0.60665 0.0
H1811 H 0.02123 0.84127 0.58795 0.0
H1812 H 1.00661 0.86176 0.57638 0.0
H1813 H 0.07329 0.89396 0.66942 0.0
H1814 H 0.09829 0.90771 0.65827 0.0
H1815 H 0.09055 0.87733 0.6551 0.0
C1816 C 0.47866 0.81838 0.80804 0.0
C1817 C 0.48525 0.81561 0.83189 0.0
C1818 C 0.45561 0.81731 0.79909 0.0
C1819 C 0.43841 0.81375 0.81427 0.0
C1820 C 0.44507 0.81103 0.83834 0.0
C1821 C 0.46807 0.81184 0.84667 0.0
C1822 C 0.44966 0.81998 0.77327 0.0
C1823 C 0.4278 0.80715 0.85545 0.0
C1824 C 0.38017 0.8298 0.79836 0.0
C1825 C 0.36575 0.80867 0.79105 0.0
C1826 C 0.40366 0.83176 0.80571 0.0
C1827 C 0.41348 0.81223 0.80515 0.0
C1828 C 0.39901 0.79096 0.79697 0.0
C1829 C 0.37557 0.78945 0.79042 0.0
C1830 C 0.41789 0.85479 0.81474 0.0
C1831 C 0.40832 0.76963 0.79498 0.0
H1832 H 0.49152 0.82133 0.7963 0.0
H1833 H 0.47261 0.80966 0.86511 0.0
H1834 H 0.43598 0.80581 0.76459 0.0
H1835 H 0.44323 0.83578 0.77208 0.0
H1836 H 0.46438 0.82062 0.76318 0.0
H1837 H 0.4357 0.80726 0.87402 0.0
H1838 H 0.41744 0.82034 0.85533 0.0
H1839 H 0.41619 0.79062 0.84973 0.0
H1840 H 0.37295 0.84478 0.79912 0.0
H1841 H 0.36485 0.77303 0.78443 0.0
H1842 H 0.43207 0.85848 0.80408 0.0
H1843 H 0.42535 0.85509 0.83349 0.0
H1844 H 0.408 0.86835 0.81395 0.0
H1845 H 0.4211 0.77086 0.78238 0.0
H1846 H 0.39497 0.75437 0.78861 0.0
H1847 H 0.41693 0.76746 0.81252 0.0
C1848 C 0.54049 0.19678 0.14038 0.0
C1849 C 0.5221 0.19859 0.15297 0.0
C1850 C 0.54048 0.17748 0.1241 0.0
C1851 C 0.52112 0.15973 0.11912 0.0
C1852 C 0.50234 0.16163 0.13163 0.0
C1853 C 0.50324 0.18072 0.1487 0.0
C1854 C 0.56128 0.17621 0.11215 0.0
C1855 C 0.4811 0.14361 0.12674 0.0
C1856 C 0.51466 0.12078 0.05938 0.0
C1857 C 0.52136 0.10127 0.06628 0.0
C1858 C 0.5142 0.13963 0.0762 0.0
C1859 C 0.52061 0.13931 0.10093 0.0
C1860 C 0.52688 0.11948 0.10815 0.0
C1861 C 0.52687 0.10082 0.09098 0.0
C1862 C 0.50674 0.15994 0.06742 0.0
C1863 C 0.53443 0.11819 0.13404 0.0
H1864 H 0.55514 0.21049 0.14351 0.0
H1865 H 0.48885 0.18203 0.15808 0.0
H1866 H 0.56595 0.15952 0.11314 0.0
H1867 H 0.55778 0.17812 0.09301 0.0
H1868 H 0.57595 0.1896 0.12037 0.0
H1869 H 0.46712 0.14867 0.13568 0.0
H1870 H 0.47551 0.13977 0.10725 0.0
H1871 H 0.4845 0.12783 0.13314 0.0
H1872 H 0.50918 0.12125 0.04088 0.0
H1873 H 0.53168 0.08593 0.09707 0.0
H1874 H 0.52086 0.17481 0.07143 0.0
H1875 H 0.49269 0.16403 0.07689 0.0
H1876 H 0.50111 0.15723 0.04791 0.0
H1877 H 0.55057 0.13042 0.13994 0.0
H1878 H 0.53699 0.10107 0.13714 0.0
H1879 H 0.52189 0.12293 0.14539 0.0
C1880 C 0.11697 0.31067 0.31168 0.0
C1881 C 0.1164 0.31679 0.33627 0.0
C1882 C 0.13678 0.30568 0.30246 0.0
C1883 C 0.15705 0.30628 0.31793 0.0
C1884 C 0.15644 0.31225 0.34278 0.0
C1885 C 0.13654 0.31748 0.35146 0.0
C1886 C 0.13582 0.29955 0.27592 0.0
C1887 C 0.17696 0.31297 0.36046 0.0
C1888 C 0.20308 0.27394 0.29674 0.0
C1889 C 0.22074 0.29124 0.29273 0.0
C1890 C 0.18263 0.27844 0.30478 0.0
C1891 C 0.17879 0.30093 0.30842 0.0
C1892 C 0.19633 0.31839 0.30361 0.0
C1893 C 0.21692 0.31346 0.29645 0.0
C1894 C 0.16529 0.25896 0.30996 0.0
C1895 C 0.19324 0.34249 0.3057 0.0
H1896 H 0.10179 0.30972 0.29946 0.0
H1897 H 0.13675 0.32192 0.37046 0.0
H1898 H 0.15121 0.30848 0.26942 0.0
H1899 H 0.13509 0.28118 0.27187 0.0
H1900 H 0.12075 0.30367 0.26588 0.0
H1901 H 0.17363 0.3163 0.37921 0.0
H1902 H 0.18273 0.29672 0.35804 0.0
H1903 H 0.19097 0.32641 0.35725 0.0
H1904 H 0.20557 0.25681 0.29453 0.0
H1905 H 0.23011 0.32717 0.29347 0.0
H1906 H 0.14924 0.25764 0.29818 0.0
H1907 H 0.16171 0.26197 0.32865 0.0
H1908 H 0.1709 0.24262 0.3073 0.0
H1909 H 0.17825 0.34372 0.29333 0.0
H1910 H 0.20818 0.35426 0.30146 0.0
H1911 H 0.19002 0.34801 0.32402 0.0
C1912 C 0.96068 0.03677 0.1901 0.0
C1913 C 0.972 0.03053 0.21045 0.0
C1914 C 0.97132 0.04052 0.16957 0.0
C1915 C 0.9939 0.03775 0.169 0.0
C1916 C 1.00562 0.03201 0.18973 0.0
C1917 C 0.9946 0.02858 0.21017 0.0
C1918 C 0.95819 0.04708 0.14828 0.0
C1919 C 0.02991 0.02965 0.19039 0.0
C1920 C 0.01465 0.02244 0.10907 0.0
C1921 C 0.02375 0.0436 0.10274 0.0
C1922 C 1.0042 0.02044 0.12998 0.0
C1923 C 1.00481 0.03989 0.14641 0.0
C1924 C 0.01524 0.06127 0.14072 0.0
C1925 C 0.02348 0.06293 0.11849 0.0
C1926 C 0.99195 0.99749 0.13416 0.0
C1927 C 0.01777 0.08252 0.15793 0.0
H1928 H 0.94333 0.03871 0.19017 0.0
H1929 H 1.00361 0.02401 0.22581 0.0
H1930 H 0.9672 0.0633 0.14356 0.0
H1931 H 0.95687 0.03413 0.13262 0.0
H1932 H 0.94092 0.04893 0.1516 0.0
H1933 H 0.03657 0.02466 0.20756 0.0
H1934 H 0.03166 0.01686 0.17567 0.0
H1935 H 0.04047 0.04595 0.18768 0.0
H1936 H 0.01512 1.0074 0.09725 0.0
H1937 H 0.03026 0.0794 0.11374 0.0
H1938 H 0.97401 0.99796 0.13577 0.0
H1939 H 0.9994 0.99288 0.15115 0.0
H1940 H 0.99252 0.98411 0.11946 0.0
H1941 H 1.00222 0.08947 0.15541 0.0
H1942 H 0.03216 0.09562 0.15476 0.0
H1943 H 0.02045 0.07918 0.17673 0.0
C1944 C 0.29347 0.68665 0.50276 0.0
C1945 C 0.27928 0.66546 0.50159 0.0
C1946 C 0.28942 0.70117 0.48605 0.0
C1947 C 0.27052 0.69432 0.46832 0.0
C1948 C 0.25709 0.67236 0.46612 0.0
C1949 C 0.26187 0.65802 0.48268 0.0
C1950 C 0.30449 0.72424 0.48826 0.0
C1951 C 0.23678 0.66453 0.44731 0.0
C1952 C 0.23943 0.73705 0.44481 0.0
C1953 C 0.24426 0.73585 0.42122 0.0
C1954 C 0.24854 0.72411 0.46073 0.0
C1955 C 0.26354 0.71047 0.45307 0.0
C1956 C 0.26966 0.71027 0.42988 0.0
C1957 C 0.25937 0.72233 0.41398 0.0
C1958 C 0.24119 0.72409 0.48529 0.0
C1959 C 0.28635 0.69659 0.42152 0.0
H1960 H 0.30704 0.69232 0.51736 0.0
H1961 H 0.25095 0.64158 0.48176 0.0
H1962 H 0.30853 0.72849 0.47049 0.0
H1963 H 0.29561 0.73715 0.4958 0.0
H1964 H 0.32052 0.72536 0.50011 0.0
H1965 H 0.22774 0.64712 0.44859 0.0
H1966 H 0.22477 0.67609 0.44906 0.0
H1967 H 0.24207 0.66492 0.42926 0.0
H1968 H 0.22816 0.74771 0.45072 0.0
H1969 H 0.2628 0.72051 0.39565 0.0
H1970 H 0.2561 0.72809 0.49917 0.0
H1971 H 0.23173 0.707 0.48712 0.0
H1972 H 0.23021 0.73642 0.48881 0.0
H1973 H 0.30151 0.69931 0.43502 0.0
H1974 H 0.29181 0.70098 0.40427 0.0
H1975 H 0.2786 0.67835 0.41921 0.0
C1976 C 0.63173 0.05895 0.69879 0.0
C1977 C 0.65346 0.05653 0.69483 0.0
C1978 C 0.61524 0.05794 0.67973 0.0
C1979 C 0.62089 0.05421 0.65644 0.0
C1980 C 0.64297 0.05229 0.65225 0.0
C1981 C 0.6593 0.05368 0.67179 0.0
C1982 C 0.59163 0.05977 0.68456 0.0
C1983 C 0.64908 0.04826 0.62729 0.0
C1984 C 0.57434 0.02629 0.60859 0.0
C1985 C 0.56888 0.04516 0.59938 0.0
C1986 C 0.59111 0.02905 0.6278 0.0
C1987 C 0.60319 0.0511 0.63652 0.0
C1988 C 0.59763 0.0702 0.62709 0.0
C1989 C 0.5795 0.06699 0.6092 0.0
C1990 C 0.59573 0.00856 0.6388 0.0
C1991 C 0.61099 0.09377 0.63559 0.0
H1992 H 0.62757 0.0614 0.71685 0.0
H1993 H 0.67626 0.05177 0.6691 0.0
H1994 H 0.58528 0.07222 0.67416 0.0
H1995 H 0.58003 0.04321 0.67887 0.0
H1996 H 0.59081 0.06484 0.70376 0.0
H1997 H 0.66714 0.04729 0.62725 0.0
H1998 H 0.63857 0.03227 0.61772 0.0
H1999 H 0.64549 0.06203 0.61708 0.0
H2000 H 0.56518 0.00951 0.60105 0.0
H2001 H 0.57462 0.08135 0.60179 0.0
H2002 H 0.59455 0.01091 0.65822 0.0
H2003 H 0.61312 1.00633 0.63666 0.0
H2004 H 0.5837 0.99286 0.63061 0.0
H2005 H 0.60895 0.09871 0.65445 0.0
H2006 H 0.60562 0.10642 0.6247 0.0
H2007 H 0.62924 0.09428 0.63483 0.0
C2008 C 0.32334 0.34655 0.97348 0.0
C2009 C 0.30779 0.35995 0.97929 0.0
C2010 C 0.32259 0.33598 0.95 0.0
C2011 C 0.30564 0.33854 0.93192 0.0
C2012 C 0.28951 0.35153 0.9379 0.0
C2013 C 0.2909 0.36221 0.96138 0.0
C2014 C 0.34033 0.32261 0.9444 0.0
C2015 C 0.27076 0.35419 0.91942 0.0
C2016 C 0.3146 0.33233 0.86624 0.0
C2017 C 0.30239 0.31051 0.85797 0.0
C2018 C 0.3164 0.34134 0.89038 0.0
C2019 C 0.30521 0.32841 0.90657 0.0
C2020 C 0.29293 0.30623 0.89819 0.0
C2021 C 0.29192 0.29744 0.87404 0.0
C2022 C 0.32996 0.36489 0.89845 0.0
C2023 C 0.28048 0.29192 0.91462 0.0
H2024 H 0.33648 0.34477 0.98717 0.0
H2025 H 0.27867 0.37236 0.96574 0.0
H2026 H 0.33227 0.30541 0.93559 0.0
H2027 H 0.35081 0.3309 0.93175 0.0
H2028 H 0.35158 0.32113 0.96064 0.0
H2029 H 0.25963 0.36497 0.92681 0.0
H2030 H 0.27792 0.36172 0.90427 0.0
H2031 H 0.2603 0.33736 0.91217 0.0
H2032 H 0.32273 0.34238 0.85381 0.0
H2033 H 0.28241 0.28056 0.86755 0.0
H2034 H 0.3426 0.36479 0.914 0.0
H2035 H 0.31862 0.37612 0.90429 0.0
H2036 H 0.33888 0.37211 0.88409 0.0
H2037 H 0.29265 0.28855 0.92907 0.0
H2038 H 0.27074 0.27553 0.90509 0.0
H2039 H 0.26867 0.30109 0.92318 0.0
C2040 C 0.98135 0.04263 0.35315 0.0
C2041 C 0.97164 0.02204 0.33898 0.0
C2042 C 0.99077 0.04339 0.37713 0.0
C2043 C 0.99036 0.02309 0.38747 0.0
C2044 C 0.98032 1.00228 0.3733 0.0
C2045 C 0.97128 1.002 0.34931 0.0
C2046 C 1.00135 0.06599 0.39135 0.0
C2047 C 0.97861 0.98027 0.38367 0.0
C2048 C 0.03173 0.02288 0.44352 0.0
C2049 C 0.01878 0.0269 0.46194 0.0
C2050 C 0.02273 0.02158 0.4193 0.0
C2051 C 1.00001 0.02366 0.41318 0.0
C2052 C 0.98661 0.02665 0.43177 0.0
C2053 C 0.99621 0.02855 0.45577 0.0
C2054 C 0.03779 0.01869 0.40024 0.0
C2055 C 0.96219 0.02836 0.42641 0.0
H2056 H 0.98158 0.05824 0.3455 0.0
H2057 H 0.96352 0.986 0.33873 0.0
H2058 H 0.99382 0.06813 0.40818 0.0
H2059 H 0.01965 0.0668 0.39632 0.0
H2060 H 0.99922 0.08029 0.38128 0.0
H2061 H 0.97076 0.96548 0.37027 0.0
H2062 H 0.9956 0.9781 0.39099 0.0
H2063 H 0.96835 0.98049 0.39869 0.0
H2064 H 0.04917 0.02162 0.44805 0.0
H2065 H 0.98594 0.03141 0.46982 0.0
H2066 H 0.03941 0.03347 0.39017 0.0
H2067 H 0.03016 1.00353 0.3873 0.0
H2068 H 0.05492 0.01701 0.40776 0.0
H2069 H 0.96124 0.04484 0.42013 0.0
H2070 H 0.95318 0.02701 0.44237 0.0
H2071 H 0.95323 0.01493 0.412 0.0
C2072 C 0.28033 0.67336 0.64322 0.0
C2073 C 0.28473 0.67997 0.62107 0.0
C2074 C 0.28303 0.6895 0.66315 0.0
C2075 C 0.29005 0.71243 0.66036 0.0
C2076 C 0.29555 0.71907 0.63833 0.0
C2077 C 0.29278 0.70264 0.61881 0.0
C2078 C 0.27751 0.68221 0.68681 0.0
C2079 C 0.30376 0.74354 0.63528 0.0
C2080 C 0.27254 0.75838 0.69831 0.0
C2081 C 0.29215 0.76601 0.71428 0.0
C2082 C 0.27116 0.73972 0.6814 0.0
C2083 C 0.29035 0.72985 0.67995 0.0
C2084 C 0.3104 0.73804 0.69572 0.0
C2085 C 0.31091 0.75594 0.7131 0.0
C2086 C 0.24934 0.73062 0.66508 0.0
C2087 C 0.33129 0.72813 0.69421 0.0
H2088 H 0.27437 0.6557 0.64488 0.0
H2089 H 0.29646 0.70763 0.60167 0.0
H2090 H 0.29122 0.69028 0.70132 0.0
H2091 H 0.26192 0.68777 0.69126 0.0
H2092 H 0.27488 0.66361 0.68653 0.0
H2093 H 0.30792 0.74564 0.61698 0.0
H2094 H 0.29061 0.75336 0.63905 0.0
H2095 H 0.31901 0.75094 0.6482 0.0
H2096 H 0.25812 0.76633 0.69976 0.0
H2097 H 0.32613 0.76233 0.72557 0.0
H2098 H 0.2438 0.7123 0.66594 0.0
H2099 H 0.25201 0.73267 0.64637 0.0
H2100 H 0.2356 0.7393 0.6698 0.0
H2101 H 0.32838 0.71117 0.70019 0.0
H2102 H 0.34632 0.73877 0.70557 0.0
H2103 H 0.33514 0.72606 0.67556 0.0
C2104 C 0.66796 0.0484 0.83372 0.0
C2105 C 0.66443 0.05787 0.81268 0.0
C2106 C 0.65621 0.05342 0.85286 0.0
C2107 C 0.64134 0.06862 0.85067 0.0
C2108 C 0.63903 0.07932 0.82991 0.0
C2109 C 0.65041 0.07353 0.81101 0.0
C2110 C 0.65878 0.04154 0.87466 0.0
C2111 C 0.62391 0.09626 0.82729 0.0
C2112 C 0.58786 0.06708 0.8777 0.0
C2113 C 0.59404 0.08639 0.89439 0.0
C2114 C 0.60394 0.05963 0.86485 0.0
C2115 C 0.6264 0.07216 0.86872 0.0
C2116 C 0.63292 0.09087 0.88673 0.0
C2117 C 0.61652 0.09773 0.89957 0.0
C2118 C 0.5966 0.03934 0.846 0.0
C2119 C 0.65678 0.10445 0.8913 0.0
H2120 H 0.67918 0.03654 0.83485 0.0
H2121 H 0.64839 0.08135 0.79483 0.0
H2122 H 0.65832 0.05279 0.89121 0.0
H2123 H 0.64453 0.02689 0.87325 0.0
H2124 H 0.67477 0.03519 0.87625 0.0
H2125 H 0.62562 0.10439 0.81079 0.0
H2126 H 0.60601 0.08774 0.82673 0.0
H2127 H 0.62791 0.10965 0.84283 0.0
H2128 H 0.57043 0.05806 0.87452 0.0
H2129 H 0.62108 0.11228 0.91318 0.0
H2130 H 0.60907 0.02819 0.84674 0.0
H2131 H 0.59563 0.04505 0.82808 0.0
H2132 H 0.57978 0.02937 0.84803 0.0
H2133 H 0.669 0.09315 0.89334 0.0
H2134 H 0.65954 0.11704 0.90753 0.0
H2135 H 0.66047 0.11354 0.8758 0.0
C2136 C 0.31263 0.37109 0.13188 0.0
C2137 C 0.30146 0.36197 0.10904 0.0
C2138 C 0.30828 0.36012 0.15208 0.0
C2139 C 0.29209 0.33963 0.14963 0.0
C2140 C 0.28033 0.33067 0.12669 0.0
C2141 C 0.28529 0.34179 0.10673 0.0
C2142 C 0.32137 0.37024 0.17606 0.0
C2143 C 0.26232 0.30942 0.12326 0.0
C2144 C 0.29774 0.2999 0.19692 0.0
C2145 C 0.28287 0.30568 0.21268 0.0
C2146 C 0.30069 0.31062 0.17633 0.0
C2147 C 0.2881 0.32726 0.1709 0.0
C2148 C 0.2724 0.33252 0.18633 0.0
C2149 C 0.27023 0.32194 0.20715 0.0
C2150 C 0.31777 0.30455 0.16068 0.0
C2151 C 0.2582 0.34973 0.18126 0.0
H2152 H 0.32505 0.3867 0.13393 0.0
H2153 H 0.27628 0.33477 0.08927 0.0
H2154 H 0.30962 0.37271 0.1893 0.0
H2155 H 0.33177 0.35845 0.18261 0.0
H2156 H 0.33264 0.38672 0.17529 0.0
H2157 H 0.25485 0.30446 0.1043 0.0
H2158 H 0.26944 0.29528 0.1296 0.0
H2159 H 0.24865 0.31196 0.13409 0.0
H2160 H 0.30767 0.28744 0.20108 0.0
H2161 H 0.25861 0.32643 0.21914 0.0
H2162 H 0.33103 0.31971 0.16018 0.0
H2163 H 0.30953 0.2988 0.14212 0.0
H2164 H 0.32598 0.29106 0.16707 0.0
H2165 H 0.26866 0.36693 0.18644 0.0
H2166 H 0.24351 0.34813 0.19148 0.0
H2167 H 0.25192 0.34804 0.16197 0.0
C2168 C 0.25291 0.99121 1.00168 0.0
C2169 C 0.24823 0.96766 0.99725 0.0
C2170 C 0.23695 1.00251 0.01033 0.0
C2171 C 0.21604 0.98972 0.01431 0.0
C2172 C 0.21021 0.96626 0.00679 0.0
C2173 C 0.22649 0.95542 0.99814 0.0
C2174 C 0.24369 0.02762 0.01818 0.0
C2175 C 0.18776 0.95234 0.01037 0.0
C2176 C 0.19473 0.00884 0.07096 0.0
C2177 C 0.17925 0.02157 0.06274 0.0
C2178 C 0.20704 0.99863 0.05529 0.0
C2179 C 0.20259 0.99991 0.0306 0.0
C2180 C 0.18608 0.01141 0.02183 0.0
C2181 C 0.17509 0.02277 0.03809 0.0
C2182 C 0.2251 0.98687 0.06528 0.0
C2183 C 0.18049 0.01221 0.99543 0.0
H2184 H 0.26969 1.00064 1.00053 0.0
H2185 H 0.22281 0.93717 0.9942 0.0
H2186 H 0.22952 0.03617 0.01374 0.0
H2187 H 0.2483 0.03065 0.03784 0.0
H2188 H 0.25843 0.03547 0.00984 0.0
H2189 H 0.18544 0.93449 1.00223 0.0
H2190 H 0.18648 0.95255 0.02971 0.0
H2191 H 0.17377 0.9597 0.0025 0.0
H2192 H 0.19757 1.00708 0.08973 0.0
H2193 H 0.16367 0.03297 0.03134 0.0
H2194 H 0.2416 0.99417 0.05975 0.0
H2195 H 0.22093 0.9687 0.05812 0.0
H2196 H 0.22704 0.98839 0.08508 0.0
H2197 H 0.19486 0.02272 0.98873 0.0
H2198 H 0.16519 0.01932 0.99137 0.0
H2199 H 0.17773 0.99504 0.98541 0.0
C2200 C 0.69098 0.64765 1.00103 0.0
C2201 C 0.71157 0.64309 0.01064 0.0
C2202 C 0.6706 0.63206 1.00063 0.0
C2203 C 0.67082 0.61161 0.01042 0.0
C2204 C 0.69168 0.60664 0.01947 0.0
C2205 C 0.71178 0.62238 0.01938 0.0
C2206 C 0.64877 0.63789 0.99055 0.0
C2207 C 0.69271 0.58485 0.02966 0.0
C2208 C 0.62014 0.5843 0.03818 0.0
C2209 C 0.6074 0.5695 0.01896 0.0
C2210 C 0.64018 0.59881 0.03521 0.0
C2211 C 0.64919 0.59645 0.01333 0.0
C2212 C 0.63757 0.5796 0.99465 0.0
C2213 C 0.61629 0.56694 0.99735 0.0
C2214 C 0.65128 0.61714 0.05527 0.0
C2215 C 0.64737 0.57504 0.97177 0.0
H2216 H 0.69075 0.66351 0.99402 0.0
H2217 H 0.72765 0.61869 0.02679 0.0
H2218 H 0.6389 0.6238 0.97739 0.0
H2219 H 0.63837 0.64043 0.00514 0.0
H2220 H 0.65161 0.65343 0.98171 0.0
H2221 H 0.71032 0.58309 0.03506 0.0
H2222 H 0.68355 0.58399 0.0455 0.0
H2223 H 0.68423 0.57027 0.01629 0.0
H2224 H 0.61409 0.58505 0.05541 0.0
H2225 H 0.60677 0.55481 0.98275 0.0
H2226 H 0.65268 0.63387 0.04879 0.0
H2227 H 0.66863 0.61511 0.06132 0.0
H2228 H 0.64166 0.61711 0.07082 0.0
H2229 H 0.6442 0.58773 0.95987 0.0
H2230 H 0.63958 0.55801 0.9622 0.0
H2231 H 0.6659 0.57632 0.97525 0.0
C2232 C 0.66458 0.48447 0.28046 0.0
C2233 C 0.67622 0.50666 0.28808 0.0
C2234 C 0.67623 0.46724 0.27468 0.0
C2235 C 0.70011 0.47229 0.27682 0.0
C2236 C 0.71202 0.49443 0.28563 0.0
C2237 C 0.69991 0.51142 0.291 0.0
C2238 C 0.66296 0.44377 0.26548 0.0
C2239 C 0.73749 0.50037 0.28852 0.0
C2240 C 0.72764 0.42118 0.27322 0.0
C2241 C 0.72992 0.41804 0.24886 0.0
C2242 C 0.71893 0.43942 0.28294 0.0
C2243 C 0.71232 0.45478 0.26788 0.0
C2244 C 0.71572 0.45233 0.24357 0.0
C2245 C 0.72449 0.43399 0.23436 0.0
C2246 C 0.71588 0.44164 0.30903 0.0
C2247 C 0.70908 0.46844 0.22695 0.0
H2248 H 0.64628 0.48069 0.2783 0.0
H2249 H 0.709 0.52853 0.29709 0.0
H2250 H 0.66653 0.43869 0.24717 0.0
H2251 H 0.66821 0.43149 0.2769 0.0
H2252 H 0.64447 0.44258 0.26507 0.0
H2253 H 0.74421 0.51738 0.29865 0.0
H2254 H 0.74478 0.48775 0.29784 0.0
H2255 H 0.74333 0.50009 0.27068 0.0
H2256 H 0.73184 0.40888 0.2845 0.0
H2257 H 0.72674 0.43191 0.21565 0.0
H2258 H 0.69768 0.43677 0.31081 0.0
H2259 H 0.7218 0.45938 0.31744 0.0
H2260 H 0.7251 0.43067 0.31899 0.0
H2261 H 0.69041 0.46621 0.22418 0.0
H2262 H 0.71505 0.46563 0.20929 0.0
H2263 H 0.71601 0.48618 0.23488 0.0
C2264 C 0.88494 0.45426 0.52119 0.0
C2265 C 0.86883 0.4604 0.50512 0.0
C2266 C 0.90752 0.46492 0.52317 0.0
C2267 C 0.91376 0.48167 0.50845 0.0
C2268 C 0.89772 0.48722 0.4914 0.0
C2269 C 0.87522 0.47651 0.49005 0.0
C2270 C 0.92449 0.45905 0.54165 0.0
C2271 C 0.9042 0.50485 0.47513 0.0
C2272 C 0.96351 0.52876 0.52779 0.0
C2273 C 0.97844 0.52231 0.51281 0.0
C2274 C 0.94248 0.51492 0.52747 0.0
C2275 C 0.93685 0.49446 0.51176 0.0
C2276 C 0.95256 0.4874 0.49759 0.0
C2277 C 0.97336 0.50169 0.49818 0.0
C2278 C 0.92574 0.52299 0.5424 0.0
C2279 C 0.94689 0.46559 0.48079 0.0
H2280 H 0.87978 0.44176 0.53284 0.0
H2281 H 0.8626 0.48092 0.47743 0.0
H2282 H 0.93925 0.45514 0.53336 0.0
H2283 H 0.93085 0.47377 0.55556 0.0
H2284 H 0.91712 0.44441 0.55041 0.0
H2285 H 0.88959 0.50677 0.46259 0.0
H2286 H 0.91145 0.52143 0.4859 0.0
H2287 H 0.91738 0.50027 0.46458 0.0
H2288 H 0.96779 0.54514 0.53862 0.0
H2289 H 0.98516 0.49734 0.48633 0.0
H2290 H 0.91807 0.50946 0.55241 0.0
H2291 H 0.91188 0.52728 0.53056 0.0
H2292 H 0.93365 0.53816 0.55528 0.0
H2293 H 0.94184 0.45118 0.49083 0.0
H2294 H 0.96131 0.46262 0.47126 0.0
H2295 H 0.93233 0.46582 0.46735 0.0
C2296 C 0.35552 0.09057 0.32815 0.0
C2297 C 0.37474 0.08739 0.3179 0.0
C2298 C 0.34257 0.10538 0.31952 0.0
C2299 C 0.34866 0.11608 0.2996 0.0
C2300 C 0.36857 0.11343 0.2898 0.0
C2301 C 0.38173 0.09948 0.29955 0.0
C2302 C 0.32173 0.10839 0.33067 0.0
C2303 C 0.37511 0.12395 0.26794 0.0
C2304 C 0.30754 0.13002 0.25267 0.0
C2305 C 0.31326 0.15357 0.2564 0.0
C2306 C 0.31751 0.11734 0.26815 0.0
C2307 C 0.33362 0.12871 0.28749 0.0
C2308 C 0.33821 0.15249 0.29228 0.0
C2309 C 0.32789 0.16474 0.27657 0.0
C2310 C 0.31225 0.09191 0.2626 0.0
C2311 C 0.35527 0.16492 0.31289 0.0
H2312 H 0.35016 0.08082 0.34218 0.0
H2313 H 0.39637 0.09643 0.29134 0.0
H2314 H 0.31996 0.12629 0.33214 0.0
H2315 H 0.30656 0.09818 0.31925 0.0
H2316 H 0.32207 0.10283 0.34868 0.0
H2317 H 0.3909 0.11964 0.26232 0.0
H2318 H 0.36141 0.11808 0.25281 0.0
H2319 H 0.3775 0.14257 0.27148 0.0
H2320 H 0.29577 0.12158 0.23727 0.0
H2321 H 0.33205 0.18304 0.27939 0.0
H2322 H 0.30926 0.08395 0.27894 0.0
H2323 H 0.32691 0.08619 0.2557 0.0
H2324 H 0.2972 0.08576 0.249 0.0
H2325 H 0.35237 0.15726 0.32945 0.0
H2326 H 0.35464 0.18311 0.31605 0.0
H2327 H 0.37251 0.16349 0.30913 0.0
C2328 C 0.34694 0.16479 0.52782 0.0
C2329 C 0.32421 0.15379 0.52507 0.0
C2330 C 0.36426 0.15322 0.53381 0.0
C2331 C 0.35861 0.13021 0.53713 0.0
C2332 C 0.33572 0.11887 0.53359 0.0
C2333 C 0.31881 0.1308 0.52755 0.0
C2334 C 0.38852 0.16571 0.53709 0.0
C2335 C 0.329 0.09436 0.53716 0.0
C2336 C 0.39954 0.0904 0.53719 0.0
C2337 C 0.40383 0.08882 0.56162 0.0
C2338 C 0.38584 0.10485 0.52895 0.0
C2339 C 0.37628 0.118 0.54556 0.0
C2340 C 0.38164 0.11744 0.57032 0.0
C2341 C 0.3954 0.10287 0.57805 0.0
C2342 C 0.38062 0.10511 0.50243 0.0
C2343 C 0.37216 0.1316 0.58862 0.0
H2344 H 0.35117 0.18257 0.52586 0.0
H2345 H 0.30127 0.1222 0.52545 0.0
H2346 H 0.3965 0.16535 0.55548 0.0
H2347 H 0.39818 0.15724 0.52472 0.0
H2348 H 0.39008 0.18358 0.5338 0.0
H2349 H 0.31059 0.0877 0.53234 0.0
H2350 H 0.3382 0.08386 0.52625 0.0
H2351 H 0.33369 0.09243 0.55613 0.0
H2352 H 0.40611 0.07961 0.52444 0.0
H2353 H 0.39927 0.10215 0.59698 0.0
H2354 H 0.38321 0.12271 0.49817 0.0
H2355 H 0.36263 0.09721 0.49651 0.0
H2356 H 0.39125 0.09579 0.49207 0.0
H2357 H 0.37788 0.14975 0.5871 0.0
H2358 H 0.37744 0.12866 0.60715 0.0
H2359 H 0.35344 0.1278 0.58528 0.0
C2360 C 0.70913 0.62265 0.30701 0.0
C2361 C 0.68595 0.62086 0.30004 0.0
C2362 C 0.72469 0.64279 0.30627 0.0
C2363 C 0.71697 0.66151 0.298 0.0
C2364 C 0.69357 0.65982 0.29105 0.0
C2365 C 0.67835 0.63958 0.2923 0.0
C2366 C 0.7494 0.64408 0.31446 0.0
C2367 C 0.68464 0.67925 0.28182 0.0
C2368 C 0.75244 0.72093 0.31397 0.0
C2369 C 0.76276 0.7241 0.29332 0.0
C2370 C 0.73805 0.70045 0.31599 0.0
C2371 C 0.73333 0.68288 0.29663 0.0
C2372 C 0.74389 0.68595 0.27579 0.0
C2373 C 0.75879 0.70641 0.27455 0.0
C2374 C 0.7276 0.69779 0.33872 0.0
C2375 C 0.739 0.66783 0.25458 0.0
H2376 H 0.71513 0.60829 0.31311 0.0
H2377 H 0.66049 0.63828 0.28672 0.0
H2378 H 0.75963 0.6488 0.30006 0.0
H2379 H 0.75521 0.65744 0.32991 0.0
H2380 H 0.75279 0.62787 0.31978 0.0
H2381 H 0.66591 0.67567 0.27828 0.0
H2382 H 0.69026 0.69475 0.29482 0.0
H2383 H 0.69154 0.68285 0.26502 0.0
H2384 H 0.75558 0.73456 0.32859 0.0
H2385 H 0.76657 0.70894 0.25849 0.0
H2386 H 0.73131 0.6825 0.34607 0.0
H2387 H 0.70898 0.69546 0.33493 0.0
H2388 H 0.73388 0.71262 0.35255 0.0
H2389 H 0.74433 0.65236 0.25973 0.0
H2390 H 0.74781 0.67319 0.23937 0.0
H2391 H 0.72057 0.66332 0.24856 0.0
C2392 C 0.87699 0.44574 0.79559 0.0
C2393 C 0.86702 0.46242 0.80642 0.0
C2394 C 0.86694 0.42307 0.79447 0.0
C2395 C 0.84688 0.41741 0.80473 0.0
C2396 C 0.83705 0.43418 0.81624 0.0
C2397 C 0.84723 0.45669 0.81673 0.0
C2398 C 0.87747 0.40523 0.78205 0.0
C2399 C 0.81592 0.42835 0.82804 0.0
C2400 C 0.80433 0.36435 0.78488 0.0
C2401 C 0.80827 0.35254 0.80401 0.0
C2402 C 0.81811 0.38514 0.78394 0.0
C2403 C 0.83556 0.39395 0.80293 0.0
C2404 C 0.84009 0.38146 0.82179 0.0
C2405 C 0.82611 0.3607 0.82212 0.0
C2406 C 0.8128 0.39842 0.76381 0.0
C2407 C 0.85852 0.39063 0.84237 0.0
H2408 H 0.89243 0.45045 0.78778 0.0
H2409 H 0.83995 0.46978 0.82554 0.0
H2410 H 0.88049 0.39266 0.79417 0.0
H2411 H 0.86569 0.39599 0.76635 0.0
H2412 H 0.89372 0.41251 0.77595 0.0
H2413 H 0.81067 0.44359 0.83634 0.0
H2414 H 0.80181 0.41869 0.81476 0.0
H2415 H 0.81875 0.41747 0.84208 0.0
H2416 H 0.78982 0.35792 0.77147 0.0
H2417 H 0.82825 0.35141 0.83714 0.0
H2418 H 0.82843 0.40564 0.75658 0.0
H2419 H 0.80528 0.4127 0.77067 0.0
H2420 H 0.8007 0.38788 0.74903 0.0
H2421 H 0.8751 0.39434 0.83562 0.0
H2422 H 0.85939 0.37863 0.85573 0.0
H2423 H 0.85567 0.4067 0.85149 0.0
C2424 C 0.07478 0.87547 0.07054 0.0
C2425 C 0.0664 0.86789 0.09116 0.0
C2426 C 0.07316 0.89725 0.06365 0.0
C2427 C 0.06251 0.91243 0.0772 0.0
C2428 C 0.05364 0.90462 0.09775 0.0
C2429 C 0.05586 0.88301 0.10445 0.0
C2430 C 0.08326 0.90422 0.04184 0.0
C2431 C 0.04139 0.91907 0.1127 0.0
C2432 C 0.07569 0.97779 0.07294 0.0
C2433 C 0.0574 0.98131 0.0572 0.0
C2434 C 0.07751 0.95596 0.07941 0.0
C2435 C 0.06076 0.93627 0.07014 0.0
C2436 C 0.04221 0.93974 0.05433 0.0
C2437 C 0.04084 0.96174 0.04814 0.0
C2438 C 0.0976 0.954 0.09641 0.0
C2439 C 0.02361 0.92004 0.04368 0.0
H2440 H 0.08303 0.86447 0.05986 0.0
H2441 H 0.04898 0.8778 0.12027 0.0
H2442 H 0.07039 0.90918 0.02928 0.0
H2443 H 0.09714 0.9192 0.04712 0.0
H2444 H 0.09007 0.89054 0.03241 0.0
H2445 H 0.03631 0.91142 0.12869 0.0
H2446 H 0.0522 0.936 0.1186 0.0
H2447 H 0.02602 0.92157 0.10181 0.0
H2448 H 0.08874 0.99226 0.08048 0.0
H2449 H 0.02661 0.96349 0.03591 0.0
H2450 H 0.1071 0.94224 0.08773 0.0
H2451 H 0.09185 0.94682 0.11238 0.0
H2452 H 0.10921 0.97054 0.10231 0.0
H2453 H 0.03035 0.90849 0.0312 0.0
H2454 H 1.00923 0.92546 0.03379 0.0
H2455 H 0.01726 0.9103 0.05786 0.0
C2456 C 0.92184 0.27547 0.91764 0.0
C2457 C 0.94226 0.27754 0.90764 0.0
C2458 C 0.90137 0.27818 0.9046 0.0
C2459 C 0.90083 0.28333 0.8807 0.0
C2460 C 0.92145 0.28563 0.87059 0.0
C2461 C 0.94163 0.28264 0.88396 0.0
C2462 C 0.88019 0.27548 0.91648 0.0
C2463 C 0.92234 0.2917 0.84561 0.0
C2464 C 0.84392 0.27098 0.83843 0.0
C2465 C 0.8379 0.29223 0.83892 0.0
C2466 C 0.86403 0.26787 0.85183 0.0
C2467 C 0.8789 0.28639 0.86639 0.0
C2468 C 0.87276 0.3079 0.86691 0.0
C2469 C 0.85261 0.31051 0.85326 0.0
C2470 C 0.86952 0.24466 0.85012 0.0
C2471 C 0.88747 0.32834 0.882 0.0
H2472 H 0.92181 0.2717 0.93585 0.0
H2473 H 0.95711 0.28464 0.87587 0.0
H2474 H 0.87293 0.29087 0.91606 0.0
H2475 H 0.86736 0.26119 0.90653 0.0
H2476 H 0.8833 0.2723 0.93531 0.0
H2477 H 0.93921 0.29194 0.83972 0.0
H2478 H 0.90952 0.27951 0.83287 0.0
H2479 H 0.9182 0.30863 0.84478 0.0
H2480 H 0.83301 0.25674 0.82719 0.0
H2481 H 0.84839 0.32703 0.85384 0.0
H2482 H 0.87122 0.2392 0.86813 0.0
H2483 H 0.88597 0.24508 0.84322 0.0
H2484 H 0.85641 0.23193 0.83824 0.0
H2485 H 0.88649 0.32669 0.90113 0.0
H2486 H 0.88219 0.34425 0.87816 0.0
H2487 H 0.90538 0.32959 0.87908 0.0
C2488 C 0.54376 0.21869 0.5724 0.0
C2489 C 0.56297 0.23154 0.58724 0.0
C2490 C 0.54057 0.19471 0.56659 0.0
C2491 C 0.5567 0.18256 0.57597 0.0
C2492 C 0.57605 0.19548 0.59099 0.0
C2493 C 0.57895 0.2194 0.59625 0.0
C2494 C 0.51962 0.1823 0.55053 0.0
C2495 C 0.59377 0.18392 0.60188 0.0
C2496 C 0.5384 0.1179 0.5794 0.0
C2497 C 0.54759 0.1076 0.56036 0.0
C2498 C 0.54133 0.14183 0.5847 0.0
C2499 C 0.55337 0.15656 0.57041 0.0
C2500 C 0.56246 0.14621 0.55099 0.0
C2501 C 0.55962 0.12222 0.54636 0.0
C2502 C 0.53144 0.15135 0.60579 0.0
C2503 C 0.57483 0.16053 0.53457 0.0
H2504 H 0.53101 0.22738 0.56537 0.0
H2505 H 0.5938 0.22863 0.60791 0.0
H2506 H 0.52407 0.17075 0.53616 0.0
H2507 H 0.50841 0.17179 0.561 0.0
H2508 H 0.51006 0.194 0.54228 0.0
H2509 H 0.60737 0.1959 0.61397 0.0
H2510 H 0.58589 0.17065 0.6121 0.0
H2511 H 0.60148 0.17545 0.58756 0.0
H2512 H 0.52896 0.10716 0.59046 0.0
H2513 H 0.5662 0.1149 0.53113 0.0
H2514 H 0.51841 0.16071 0.59962 0.0
H2515 H 0.54478 0.16351 0.61799 0.0
H2516 H 0.52362 0.13799 0.61598 0.0
H2517 H 0.56329 0.17018 0.52574 0.0
H2518 H 0.58136 0.15029 0.52059 0.0
H2519 H 0.58918 0.17297 0.54494 0.0
C2520 C 0.58165 0.79805 0.4196 0.0
C2521 C 0.56458 0.77851 0.41598 0.0
C2522 C 0.60121 0.7993 0.40807 0.0
C2523 C 0.60435 0.7803 0.39299 0.0
C2524 C 0.58751 0.76021 0.38995 0.0
C2525 C 0.56768 0.7597 0.40107 0.0
C2526 C 0.61842 0.82116 0.41181 0.0
C2527 C 0.59072 0.7391 0.37542 0.0
C2528 C 0.64458 0.7943 0.34668 0.0
C2529 C 0.66541 0.79249 0.35868 0.0
C2530 C 0.62441 0.78912 0.35704 0.0
C2531 C 0.62496 0.78195 0.38004 0.0
C2532 C 0.64582 0.77869 0.39148 0.0
C2533 C 0.66575 0.78425 0.38081 0.0
C2534 C 0.60272 0.79281 0.34404 0.0
C2535 C 0.64757 0.77075 0.41573 0.0
H2536 H 0.5795 0.81263 0.43117 0.0
H2537 H 0.55484 0.74436 0.39858 0.0
H2538 H 0.63504 0.81831 0.41945 0.0
H2539 H 0.6206 0.82745 0.3944 0.0
H2540 H 0.61351 0.83445 0.42393 0.0
H2541 H 0.57608 0.72489 0.37454 0.0
H2542 H 0.59336 0.74242 0.35701 0.0
H2543 H 0.60609 0.7339 0.38341 0.0
H2544 H 0.64426 0.80104 0.32977 0.0
H2545 H 0.68184 0.78319 0.39037 0.0
H2546 H 0.59706 0.80692 0.35412 0.0
H2547 H 0.58921 0.77756 0.34295 0.0
H2548 H 0.60467 0.79688 0.32569 0.0
H2549 H 0.6497 0.78547 0.42967 0.0
H2550 H 0.66241 0.76271 0.41877 0.0
H2551 H 0.63214 0.75855 0.41798 0.0
C2552 C 0.06356 0.24937 0.39303 0.0
C2553 C 0.05239 0.26637 0.40103 0.0
C2554 C 0.06309 0.22977 0.40446 0.0
C2555 C 0.05002 0.22639 0.42352 0.0
C2556 C 0.03882 0.24368 0.4317 0.0
C2557 C 0.04063 0.26362 0.42078 0.0
C2558 C 0.07634 0.21261 0.39577 0.0
C2559 C 0.0242 0.24078 0.45146 0.0
C2560 C 0.02231 0.16653 0.43191 0.0
C2561 C 0.0326 0.16388 0.45452 0.0
C2562 C 0.02827 0.18638 0.42146 0.0
C2563 C 0.04584 0.20402 0.43321 0.0
C2564 C 0.05789 0.20068 0.45494 0.0
C2565 C 0.05099 0.1808 0.4655 0.0
C2566 C 0.01473 0.1889 0.3984 0.0
C2567 C 0.07783 0.21827 0.46718 0.0
H2568 H 0.07299 0.25154 0.37801 0.0
H2569 H 0.03202 0.27673 0.42708 0.0
H2570 H 0.08359 0.20484 0.4108 0.0
H2571 H 0.06504 0.19896 0.38319 0.0
H2572 H 0.09027 0.22032 0.38621 0.0
H2573 H 0.01544 0.25506 0.45471 0.0
H2574 H 0.01131 0.2249 0.44701 0.0
H2575 H 0.03467 0.23946 0.46825 0.0
H2576 H 1.00877 0.15327 0.42264 0.0
H2577 H 0.05943 0.17898 0.48273 0.0
H2578 H 0.02596 0.19191 0.38446 0.0
H2579 H 1.00667 0.20375 0.40107 0.0
H2580 H 1.00134 0.17376 0.39171 0.0
H2581 H 0.09063 0.22151 0.45476 0.0
H2582 H 0.08584 0.21302 0.48359 0.0
H2583 H 0.07254 0.23445 0.47201 0.0
C2584 C 0.61175 0.28465 0.24549 0.0
C2585 C 0.60019 0.26904 0.22586 0.0
C2586 C 0.63587 0.28883 0.25138 0.0
C2587 C 0.64953 0.27734 0.23747 0.0
C2588 C 0.63787 0.26152 0.21775 0.0
C2589 C 0.61385 0.25766 0.2123 0.0
C2590 C 0.64682 0.30585 0.27255 0.0
C2591 C 0.65087 0.24847 0.2022 0.0
C2592 C 0.71434 0.30188 0.23868 0.0
C2593 C 0.72508 0.28879 0.25357 0.0
C2594 C 0.69027 0.29849 0.23347 0.0
C2595 C 0.67571 0.28164 0.24341 0.0
C2596 C 0.68648 0.26856 0.25866 0.0
C2597 C 0.71056 0.27224 0.26345 0.0
C2598 C 0.68039 0.313 0.21703 0.0
C2599 C 0.67248 0.25064 0.27028 0.0
H2600 H 0.60196 0.29387 0.25624 0.0
H2601 H 0.60568 0.24561 0.19704 0.0
H2602 H 0.65769 0.29816 0.28484 0.0
H2603 H 0.65787 0.32023 0.26644 0.0
H2604 H 0.63422 0.31243 0.28259 0.0
H2605 H 0.63983 0.23763 0.18685 0.0
H2606 H 0.66417 0.26024 0.19528 0.0
H2607 H 0.65946 0.2376 0.21295 0.0
H2608 H 0.72482 0.31478 0.23075 0.0
H2609 H 0.71802 0.26225 0.27546 0.0
H2610 H 0.66927 0.32244 0.22642 0.0
H2611 H 0.6698 0.3022 0.2014 0.0
H2612 H 0.6936 0.32527 0.21055 0.0
H2613 H 0.66242 0.25862 0.28259 0.0
H2614 H 0.68301 0.24096 0.28054 0.0
H2615 H 0.66041 0.23869 0.2566 0.0
C2616 C 0.56527 0.9075 0.90421 0.0
C2617 C 0.55303 0.88623 0.90753 0.0
C2618 C 0.56236 0.92786 0.91729 0.0
C2619 C 0.54634 0.92741 0.93388 0.0
C2620 C 0.53361 0.90597 0.93687 0.0
C2621 C 0.53728 0.88589 0.92407 0.0
C2622 C 0.57672 0.94994 0.91354 0.0
C2623 C 0.51567 0.90424 0.95338 0.0
C2624 C 0.55176 0.97676 0.9848 0.0
C2625 C 0.5367 0.98977 0.97585 0.0
C2626 C 0.55517 0.95686 0.97142 0.0
C2627 C 0.54309 0.94913 0.94827 0.0
C2628 C 0.52754 0.96203 0.93931 0.0
C2629 C 0.52456 0.98196 0.95309 0.0
C2630 C 0.57181 0.94405 0.98219 0.0
C2631 C 0.51382 0.9547 0.91511 0.0
H2632 H 0.57743 0.90825 0.89156 0.0
H2633 H 0.52735 0.86977 0.92668 0.0
H2634 H 0.56587 0.96186 0.90842 0.0
H2635 H 0.58741 0.95778 0.93049 0.0
H2636 H 0.58784 0.9478 0.89953 0.0
H2637 H 0.50731 0.88648 0.95409 0.0
H2638 H 0.52313 0.91209 0.97169 0.0
H2639 H 0.50262 0.91366 0.94732 0.0
H2640 H 0.56109 0.9823 0.00242 0.0
H2641 H 0.51205 0.99095 0.94628 0.0
H2642 H 0.58508 0.94285 0.97041 0.0
H2643 H 0.56315 0.92657 0.98359 0.0
H2644 H 0.58001 0.95216 1.00022 0.0
H2645 H 0.52512 0.9568 0.90107 0.0
H2646 H 0.50054 0.96469 0.91183 0.0
H2647 H 0.5057 0.93656 0.91327 0.0
C2648 C 0.9572 0.75887 0.74703 0.0
C2649 C 0.96386 0.76488 0.72511 0.0
C2650 C 0.93525 0.76016 0.75362 0.0
C2651 C 0.91898 0.76807 0.73838 0.0
C2652 C 0.92582 0.7745 0.71644 0.0
C2653 C 0.94762 0.77262 0.71011 0.0
C2654 C 0.92927 0.75257 0.77693 0.0
C2655 C 0.91022 0.78401 0.69968 0.0
C2656 C 0.85381 0.75505 0.74359 0.0
C2657 C 0.85036 0.77414 0.75817 0.0
C2658 C 0.87565 0.75263 0.7376 0.0
C2659 C 0.89522 0.77 0.74538 0.0
C2660 C 0.89174 0.78945 0.75969 0.0
C2661 C 0.86995 0.79089 0.76631 0.0
C2662 C 0.8778 0.73116 0.72299 0.0
C2663 C 0.91113 0.80908 0.76808 0.0
H2664 H 0.96907 0.75277 0.75901 0.0
H2665 H 0.95208 0.77758 0.6932 0.0
H2666 H 0.92415 0.76636 0.78806 0.0
H2667 H 0.91461 0.73818 0.77342 0.0
H2668 H 0.94352 0.74729 0.7872 0.0
H2669 H 0.91719 0.78719 0.6828 0.0
H2670 H 0.89358 0.77232 0.69532 0.0
H2671 H 0.90724 0.80015 0.70854 0.0
H2672 H 0.83935 0.74163 0.73705 0.0
H2673 H 0.86839 0.80548 0.77785 0.0
H2674 H 0.89037 0.72323 0.73276 0.0
H2675 H 0.88404 0.735 0.70595 0.0
H2676 H 0.86149 0.71883 0.71893 0.0
H2677 H 0.92286 0.80437 0.78208 0.0
H2678 H 0.90533 0.82427 0.7756 0.0
H2679 H 0.92077 0.81351 0.75315 0.0
C2680 C 0.09572 0.03702 0.8658 0.0
C2681 C 0.11436 0.05365 0.86296 0.0
C2682 C 0.08889 0.03425 0.88857 0.0
C2683 C 0.10082 0.04848 0.90922 0.0
C2684 C 0.11965 0.06527 0.90641 0.0
C2685 C 0.12621 0.06754 0.88352 0.0
C2686 C 0.06872 0.01615 0.89048 0.0
C2687 C 0.13284 0.08103 0.92764 0.0
C2688 C 0.06874 0.05755 0.96277 0.0
C2689 C 0.07706 0.04419 0.97903 0.0
C2690 C 0.07647 0.05922 0.94041 0.0
C2691 C 0.09277 0.04687 0.93344 0.0
C2692 C 0.10142 0.03342 0.9498 0.0
C2693 C 0.09365 0.03242 0.97243 0.0
C2694 C 0.06721 0.07444 0.92427 0.0
C2695 C 0.11854 0.01967 0.94319 0.0
H2696 H 0.0865 0.02606 0.85021 0.0
H2697 H 0.14074 0.08035 0.88174 0.0
H2698 H 0.07306 1.00549 0.90426 0.0
H2699 H 0.05482 0.02407 0.89618 0.0
H2700 H 0.06247 1.00515 0.87329 0.0
H2701 H 0.14638 0.09388 0.92246 0.0
H2702 H 0.12138 0.08985 0.93725 0.0
H2703 H 0.14066 0.0712 0.94035 0.0
H2704 H 0.05613 0.06701 0.96762 0.0
H2705 H 0.10016 0.02201 0.98471 0.0
H2706 H 0.05864 0.06444 0.90722 0.0
H2707 H 0.08124 0.08725 0.9199 0.0
H2708 H 0.05501 0.08335 0.93249 0.0
H2709 H 0.11067 1.00627 0.92829 0.0
H2710 H 0.12502 0.01159 0.9584 0.0
H2711 H 0.133 0.0304 0.93686 0.0
C2712 C 0.81394 0.41971 0.58814 0.0
C2713 C 0.79454 0.41414 0.57144 0.0
C2714 C 0.81519 0.40914 0.60866 0.0
C2715 C 0.79627 0.39317 0.61273 0.0
C2716 C 0.77592 0.38902 0.59695 0.0
C2717 C 0.77541 0.39935 0.5761 0.0
C2718 C 0.83736 0.41371 0.6249 0.0
C2719 C 0.75512 0.37308 0.60164 0.0
C2720 C 0.81784 0.34935 0.64455 0.0
C2721 C 0.81858 0.35855 0.66826 0.0
C2722 C 0.80822 0.35922 0.62601 0.0
C2723 C 0.79935 0.37878 0.63153 0.0
C2724 C 0.79811 0.38684 0.65547 0.0
C2725 C 0.80791 0.37666 0.67368 0.0
C2726 C 0.80945 0.34991 0.60058 0.0
C2727 C 0.78827 0.40734 0.66195 0.0
H2728 H 0.82873 0.43114 0.58436 0.0
H2729 H 0.76033 0.39546 0.56317 0.0
H2730 H 0.83472 0.41845 0.6436 0.0
H2731 H 0.84447 0.39817 0.62433 0.0
H2732 H 0.85002 0.42743 0.61972 0.0
H2733 H 0.74083 0.37132 0.58721 0.0
H2734 H 0.75885 0.35615 0.60351 0.0
H2735 H 0.74979 0.3794 0.61873 0.0
H2736 H 0.82544 0.33487 0.6405 0.0
H2737 H 0.80823 0.3836 0.69211 0.0
H2738 H 0.82235 0.36162 0.59304 0.0
H2739 H 0.79306 0.3485 0.58935 0.0
H2740 H 0.81404 0.33303 0.59933 0.0
H2741 H 0.8014 0.4228 0.66237 0.0
H2742 H 0.78253 0.40735 0.67986 0.0
H2743 H 0.77386 0.40826 0.64863 0.0
C2744 C 0.42408 0.01584 0.39511 0.0
C2745 C 0.43474 0.02939 0.3795 0.0
C2746 C 0.43588 0.01306 0.41656 0.0
C2747 C 0.45852 0.02452 0.42236 0.0
C2748 C 0.46947 0.03794 0.40651 0.0
C2749 C 0.45736 0.04011 0.38503 0.0
C2750 C 0.42405 0.99841 0.43316 0.0
C2751 C 0.4938 0.05029 0.41243 0.0
C2752 C 0.48629 0.04372 0.48449 0.0
C2753 C 0.50131 0.02905 0.48641 0.0
C2754 C 0.47065 0.04113 0.46424 0.0
C2755 C 0.47067 0.02384 0.44561 0.0
C2756 C 0.48503 0.00828 0.44798 0.0
C2757 C 0.50041 0.0112 0.4685 0.0
C2758 C 0.45528 0.05785 0.46209 0.0
C2759 C 0.48499 0.98945 0.42837 0.0
H2760 H 0.40658 1.00727 0.39047 0.0
H2761 H 0.46549 0.05042 0.37273 0.0
H2762 H 0.43492 0.98723 0.44021 0.0
H2763 H 0.42049 0.00926 0.44866 0.0
H2764 H 0.40781 0.98779 0.42421 0.0
H2765 H 0.49972 0.05983 0.3979 0.0
H2766 H 0.49581 0.06231 0.42898 0.0
H2767 H 0.5049 0.03812 0.41576 0.0
H2768 H 0.48715 0.05755 0.49846 0.0
H2769 H 0.51219 0.99997 0.47021 0.0
H2770 H 0.43763 0.04893 0.45596 0.0
H2771 H 0.46058 0.06898 0.4486 0.0
H2772 H 0.45567 0.06858 0.47927 0.0
H2773 H 0.46776 0.97893 0.42372 0.0
H2774 H 0.49683 0.97841 0.43354 0.0
H2775 H 0.48982 0.9966 0.41206 0.0
C2776 C 0.79272 0.74025 0.10053 0.0
C2777 C 0.77581 0.72173 0.09006 0.0
C2778 C 0.79486 0.74833 0.12513 0.0
C2779 C 0.78014 0.73735 0.14004 0.0
C2780 C 0.76328 0.71839 0.12958 0.0
C2781 C 0.76116 0.71104 0.10484 0.0
C2782 C 0.81301 0.76864 0.13521 0.0
C2783 C 0.7475 0.70571 0.14458 0.0
C2784 C 0.79904 0.7463 0.20782 0.0
C2785 C 0.78661 0.76213 0.21625 0.0
C2786 C 0.79695 0.73795 0.18331 0.0
C2787 C 0.78227 0.74574 0.16643 0.0
C2788 C 0.76971 0.76173 0.17485 0.0
C2789 C 0.77202 0.76965 0.19949 0.0
C2790 C 0.81051 0.72075 0.17548 0.0
C2791 C 0.75409 0.77082 0.15771 0.0
H2792 H 0.80425 0.74856 0.08942 0.0
H2793 H 0.74822 0.69651 0.09714 0.0
H2794 H 0.80563 0.7815 0.14527 0.0
H2795 H 0.82569 0.76358 0.14792 0.0
H2796 H 0.82178 0.7765 0.12109 0.0
H2797 H 0.73644 0.69035 0.13424 0.0
H2798 H 0.7573 0.70064 0.15997 0.0
H2799 H 0.73669 0.71684 0.1519 0.0
H2800 H 0.81035 0.74023 0.2205 0.0
H2801 H 0.76297 0.78238 0.20548 0.0
H2802 H 0.82218 0.72767 0.16314 0.0
H2803 H 0.79909 0.70541 0.16558 0.0
H2804 H 0.82057 0.71578 0.19078 0.0
H2805 H 0.76366 0.77882 0.14422 0.0
H2806 H 0.74582 0.78347 0.16686 0.0
H2807 H 0.74082 0.7568 0.148 0.0
C2808 C 0.09173 0.05846 0.71604 0.0
C2809 C 0.11239 0.05249 0.7233 0.0
C2810 C 0.08328 0.05697 0.69156 0.0
C2811 C 0.0956 0.04917 0.6736 0.0
C2812 C 0.11642 0.04302 0.68088 0.0
C2813 C 0.12452 0.04481 0.70542 0.0
C2814 C 0.06108 0.06377 0.68487 0.0
C2815 C 0.13038 0.03476 0.66269 0.0
C2816 C 0.06362 0.02643 0.61086 0.0
C2817 C 0.06899 0.04482 0.59799 0.0
C2818 C 0.07237 0.02748 0.63516 0.0
C2819 C 0.08675 0.04751 0.64732 0.0
C2820 C 0.09262 0.06593 0.63425 0.0
C2821 C 0.08393 0.06425 0.60988 0.0
C2822 C 0.06615 1.00707 0.64785 0.0
C2823 C 0.10785 0.08765 0.64608 0.0
H2824 H 0.08216 0.06444 0.72952 0.0
H2825 H 0.14053 0.04018 0.71061 0.0
H2826 H 0.06332 0.07698 0.67279 0.0
H2827 H 0.04875 0.04903 0.67502 0.0
H2828 H 0.05389 0.07029 0.70071 0.0
H2829 H 0.14496 0.02851 0.67106 0.0
H2830 H 0.11985 0.021 0.64958 0.0
H2831 H 0.13689 0.04874 0.65263 0.0
H2832 H 0.05244 0.01112 0.60197 0.0
H2833 H 0.08892 0.07828 0.60012 0.0
H2834 H 0.05715 0.01142 0.66312 0.0
H2835 H 0.08166 1.00171 0.65518 0.0
H2836 H 0.05524 0.9926 0.63589 0.0
H2837 H 0.09923 0.09584 0.65977 0.0
H2838 H 0.11239 0.09969 0.63314 0.0
H2839 H 0.1236 0.08421 0.65535 0.0
C2840 C 0.81213 0.37632 0.443 0.0
C2841 C 0.79812 0.39203 0.44404 0.0
C2842 C 0.81364 0.36419 0.42127 0.0
C2843 C 0.80054 0.36787 0.4006 0.0
C2844 C 0.78665 0.38402 0.4015 0.0
C2845 C 0.7856 0.396 0.42341 0.0
C2846 C 0.82908 0.34744 0.42042 0.0
C2847 C 0.77276 0.38843 0.37947 0.0
C2848 C 0.81474 0.34814 0.34071 0.0
C2849 C 0.79705 0.32948 0.33344 0.0
C2850 C 0.81604 0.36113 0.36258 0.0
C2851 C 0.80034 0.35398 0.37811 0.0
C2852 C 0.78363 0.33407 0.37176 0.0
C2853 C 0.78187 0.32221 0.34911 0.0
C2854 C 0.83361 0.38277 0.36862 0.0
C2855 C 0.76717 0.32581 0.38855 0.0
H2856 H 0.82223 0.37387 0.45905 0.0
H2857 H 0.77498 0.40844 0.42442 0.0
H2858 H 0.81932 0.33045 0.41268 0.0
H2859 H 0.84212 0.3524 0.40869 0.0
H2860 H 0.83771 0.34631 0.43834 0.0
H2861 H 0.76473 0.40321 0.38299 0.0
H2862 H 0.78343 0.39142 0.365 0.0
H2863 H 0.75926 0.37339 0.37285 0.0
H2864 H 0.82744 0.3528 0.32922 0.0
H2865 H 0.76836 0.30761 0.34351 0.0
H2866 H 0.84589 0.38135 0.38396 0.0
H2867 H 0.82551 0.3971 0.37394 0.0
H2868 H 0.84299 0.38685 0.35338 0.0
H2869 H 0.77646 0.32433 0.40602 0.0
H2870 H 0.75627 0.30915 0.38139 0.0
H2871 H 0.75623 0.33819 0.39183 0.0
C2872 C 0.42469 0.04926 0.23793 0.0
C2873 C 0.42474 0.03092 0.25081 0.0
C2874 C 0.43399 0.04963 0.21646 0.0
C2875 C 0.44239 0.03071 0.20749 0.0
C2876 C 0.44179 0.01187 0.22028 0.0
C2877 C 0.43336 0.01245 0.24212 0.0
C2878 C 0.43496 0.0702 0.20362 0.0
C2879 C 0.45024 0.99116 0.21103 0.0
C2880 C 0.44898 0.01203 0.14447 0.0
C2881 C 0.4724 0.0142 0.14673 0.0
C2882 C 0.43868 0.01988 0.1636 0.0
C2883 C 0.45237 0.03022 0.18505 0.0
C2884 C 0.47616 0.03496 0.18616 0.0
C2885 C 0.48599 0.02651 0.16695 0.0
C2886 C 0.41325 0.0146 0.16178 0.0
C2887 C 0.49118 0.04684 0.2085 0.0
H2888 H 0.41799 0.06355 0.245 0.0
H2889 H 0.4331 0.99826 0.25223 0.0
H2890 H 0.45171 0.07508 0.19747 0.0
H2891 H 0.4221 0.06636 0.18762 0.0
H2892 H 0.43163 0.08484 0.21512 0.0
H2893 H 0.44669 0.97731 0.22221 0.0
H2894 H 0.44224 0.98478 0.1925 0.0
H2895 H 0.46874 0.99558 0.21072 0.0
H2896 H 0.43871 1.0028 0.12841 0.0
H2897 H 0.50419 0.02854 0.16815 0.0
H2898 H 0.40688 0.0288 0.17069 0.0
H2899 H 0.40789 0.9996 0.17091 0.0
H2900 H 0.40525 0.01083 0.14292 0.0
H2901 H 0.48438 0.06121 0.21645 0.0
H2902 H 0.5087 0.05319 0.2049 0.0
H2903 H 0.49179 0.03489 0.22189 0.0
C2904 C 0.75986 0.70574 0.93139 0.0
C2905 C 0.77431 0.71694 0.95184 0.0
C2906 C 0.76119 0.71344 0.90885 0.0
C2907 C 0.77809 0.73227 0.9062 0.0
C2908 C 0.79297 0.74339 0.92677 0.0
C2909 C 0.79063 0.7359 0.94929 0.0
C2910 C 0.74438 0.7014 0.88787 0.0
C2911 C 0.81153 0.76322 0.92497 0.0
C2912 C 0.79411 0.73974 0.84319 0.0
C2913 C 0.78366 0.75747 0.83724 0.0
C2914 C 0.79258 0.73147 0.86548 0.0
C2915 C 0.77984 0.74071 0.88218 0.0
C2916 C 0.7688 0.75822 0.87591 0.0
C2917 C 0.771 0.76645 0.8538 0.0
C2918 C 0.80489 0.71302 0.8713 0.0
C2919 C 0.75423 0.76805 0.8924 0.0
H2920 H 0.74719 0.69107 0.93309 0.0
H2921 H 0.80205 0.74454 0.96486 0.0
H2922 H 0.73687 0.71373 0.87827 0.0
H2923 H 0.75307 0.69218 0.87508 0.0
H2924 H 0.73055 0.68911 0.89338 0.0
H2925 H 0.82311 0.76858 0.94192 0.0
H2926 H 0.82152 0.75889 0.91054 0.0
H2927 H 0.80406 0.77772 0.92031 0.0
H2928 H 0.80387 0.73262 0.83059 0.0
H2929 H 0.76248 0.77987 0.84933 0.0
H2930 H 0.79259 0.6977 0.87359 0.0
H2931 H 0.81619 0.7184 0.88841 0.0
H2932 H 0.81511 0.7085 0.85714 0.0
H2933 H 0.73972 0.75472 0.89473 0.0
H2934 H 0.74761 0.78227 0.8855 0.0
H2935 H 0.76391 0.77415 0.91029 0.0
C2936 C 0.83051 0.09087 0.05105 0.0
C2937 C 0.82852 0.10675 0.0698 0.0
C2938 C 0.85174 0.08804 0.04608 0.0
C2939 C 0.8711 0.10095 0.06085 0.0
C2940 C 0.86906 0.11573 0.08095 0.0
C2941 C 0.84758 0.1186 0.08513 0.0
C2942 C 0.8534 0.07222 0.02422 0.0
C2943 C 0.88946 0.1295 0.09701 0.0
C2944 C 0.91694 0.07236 0.04625 0.0
C2945 C 0.92289 0.08298 0.0265 0.0
C2946 C 0.90213 0.08033 0.06044 0.0
C2947 C 0.89327 0.09907 0.05433 0.0
C2948 C 0.90183 0.11173 0.03662 0.0
C2949 C 0.91657 0.1033 0.02262 0.0
C2950 C 0.89346 0.06681 0.07955 0.0
C2951 C 0.89304 0.13214 0.02998 0.0
H2952 H 0.81563 0.0821 0.03908 0.0
H2953 H 0.84575 0.13105 0.09955 0.0
H2954 H 0.86351 0.08151 0.01192 0.0
H2955 H 0.86205 0.05867 0.02953 0.0
H2956 H 0.83658 0.06422 0.01426 0.0
H2957 H 0.88478 0.13773 0.11362 0.0
H2958 H 0.90167 0.11877 0.10184 0.0
H2959 H 0.8982 0.14285 0.08744 0.0
H2960 H 0.92229 0.05676 0.04936 0.0
H2961 H 0.92197 0.11175 0.00772 0.0
H2962 H 0.87696 0.05566 0.07232 0.0
H2963 H 0.89071 0.07804 0.09519 0.0
H2964 H 0.90525 0.05604 0.08557 0.0
H2965 H 0.87791 0.12651 0.01643 0.0
H2966 H 0.90587 0.14364 0.02207 0.0
H2967 H 0.8881 0.1417 0.04557 0.0
C2968 C 0.37888 0.45907 0.04109 0.0
C2969 C 0.37704 0.43739 0.04809 0.0
C2970 C 0.40006 0.47254 0.03928 0.0
C2971 C 0.42006 0.46417 0.04433 0.0
C2972 C 0.41831 0.44231 0.05147 0.0
C2973 C 0.39691 0.4293 0.0534 0.0
C2974 C 0.40101 0.49573 0.03174 0.0
C2975 C 0.43904 0.43251 0.05684 0.0
C2976 C 0.47112 0.49157 0.0162 0.0
C2977 C 0.48517 0.50451 0.03591 0.0
C2978 C 0.45048 0.47764 0.01887 0.0
C2979 C 0.44268 0.47806 0.04153 0.0
C2980 C 0.45638 0.49209 0.06132 0.0
C2981 C 0.47772 0.50462 0.0584 0.0
C2982 C 0.43731 0.46203 0.99752 0.0
C2983 C 0.44829 0.49426 0.08548 0.0
H2984 H 0.36368 0.46551 0.03687 0.0
H2985 H 0.39574 0.4126 0.05881 0.0
H2986 H 0.41328 0.50851 0.04446 0.0
H2987 H 0.40694 0.49611 0.01397 0.0
H2988 H 0.3843 0.50067 0.03067 0.0
H2989 H 0.43472 0.41455 0.05989 0.0
H2990 H 0.44941 0.43376 0.04193 0.0
H2991 H 0.44962 0.44229 0.07304 0.0
H2992 H 0.47673 0.49161 0.99877 0.0
H2993 H 0.48841 0.51493 0.07361 0.0
H2994 H 0.42067 0.46654 0.99308 0.0
H2995 H 0.4341 0.4444 1.00175 0.0
H2996 H 0.44636 0.46268 0.98154 0.0
H2997 H 0.43271 0.50131 0.08416 0.0
H2998 H 0.46111 0.50543 0.09916 0.0
H2999 H 0.44392 0.47744 0.09155 0.0
C3000 C 0.38349 0.57388 0.77412 0.0
C3001 C 0.40604 0.57539 0.77014 0.0
C3002 C 0.37389 0.59317 0.77623 0.0
C3003 C 0.38697 0.61451 0.77374 0.0
C3004 C 0.40949 0.61599 0.76873 0.0
C3005 C 0.41885 0.59648 0.76733 0.0
C3006 C 0.34986 0.5908 0.78173 0.0
C3007 C 0.42394 0.63825 0.76551 0.0
C3008 C 0.35142 0.659 0.76479 0.0
C3009 C 0.35206 0.66882 0.78836 0.0
C3010 C 0.36391 0.64224 0.7594 0.0
C3011 C 0.37734 0.63524 0.77803 0.0
C3012 C 0.37949 0.64656 0.8015 0.0
C3013 C 0.3668 0.66315 0.80636 0.0
C3014 C 0.36163 0.63108 0.73403 0.0
C3015 C 0.39386 0.64001 0.82188 0.0
H3016 H 0.37349 0.55766 0.77631 0.0
H3017 H 0.43626 0.59776 0.76408 0.0
H3018 H 0.34932 0.60181 0.79843 0.0
H3019 H 0.3394 0.59638 0.76721 0.0
H3020 H 0.34216 0.57316 0.78379 0.0
H3021 H 0.43917 0.63592 0.75712 0.0
H3022 H 0.4142 0.64794 0.75437 0.0
H3023 H 0.42956 0.64856 0.78316 0.0
H3024 H 0.34011 0.66341 0.75081 0.0
H3025 H 0.36762 0.67101 0.82455 0.0
H3026 H 0.35109 0.61386 0.73243 0.0
H3027 H 0.3784 0.62932 0.72897 0.0
H3028 H 0.3536 0.64069 0.72121 0.0
H3029 H 0.38564 0.62326 0.82612 0.0
H3030 H 0.39621 0.6524 0.83822 0.0
H3031 H 0.4107 0.63852 0.81689 0.0
C3032 C 0.19682 0.58814 0.5544 0.0
C3033 C 0.20588 0.61106 0.55476 0.0
C3034 C 0.17368 0.58008 0.54872 0.0
C3035 C 0.15971 0.59544 0.54326 0.0
C3036 C 0.16871 0.61861 0.54376 0.0
C3037 C 0.19186 0.62622 0.54968 0.0
C3038 C 0.16417 0.55524 0.54857 0.0
C3039 C 0.15391 0.63529 0.53841 0.0
C3040 C 0.10279 0.56798 0.51081 0.0
C3041 C 0.09047 0.56639 0.53002 0.0
C3042 C 0.12548 0.57861 0.51468 0.0
C3043 C 0.13545 0.58727 0.53827 0.0
C3044 C 0.12258 0.58649 0.55752 0.0
C3045 C 0.1 0.57606 0.55304 0.0
C3046 C 0.13891 0.57984 0.49382 0.0
C3047 C 0.13276 0.59547 0.58294 0.0
H3048 H 0.20779 0.57652 0.55833 0.0
H3049 H 0.19898 0.644 0.55001 0.0
H3050 H 0.15171 0.55295 0.56147 0.0
H3051 H 0.15515 0.54789 0.53066 0.0
H3052 H 0.17749 0.54563 0.55325 0.0
H3053 H 0.16392 0.65236 0.53738 0.0
H3054 H 0.14273 0.62933 0.52131 0.0
H3055 H 0.14287 0.63671 0.5526 0.0
H3056 H 0.09487 0.56056 0.49304 0.0
H3057 H 0.08982 0.57514 0.56756 0.0
H3058 H 0.15146 0.56883 0.49544 0.0
H3059 H 0.14839 0.59732 0.49386 0.0
H3060 H 0.12799 0.57441 0.47645 0.0
H3061 H 0.14229 0.58328 0.59018 0.0
H3062 H 0.11961 0.5978 0.59461 0.0
H3063 H 0.14473 0.61182 0.5839 0.0
C3064 C 0.73096 0.99659 0.77226 0.0
C3065 C 0.72325 1.00177 0.74997 0.0
C3066 C 0.733 0.97468 0.77514 0.0
C3067 C 0.72802 0.95798 0.75493 0.0
C3068 C 0.7208 0.96329 0.73219 0.0
C3069 C 0.71815 0.98529 0.73002 0.0
C3070 C 0.7403 0.96947 0.79989 0.0
C3071 C 0.71553 0.94576 0.71043 0.0
C3072 C 0.76068 0.91589 0.77208 0.0
C3073 C 0.74485 0.90273 0.78371 0.0
C3074 C 0.75444 0.93235 0.75908 0.0
C3075 C 0.73197 0.93549 0.75802 0.0
C3076 C 0.71533 0.92018 0.76689 0.0
C3077 C 0.7221 0.90397 0.78005 0.0
C3078 C 0.77255 0.94854 0.74978 0.0
C3079 C 0.69109 0.92283 0.7656 0.0
H3080 H 0.73416 0.00937 0.78773 0.0
H3081 H 0.7117 0.98954 0.71292 0.0
H3082 H 0.72803 0.95519 0.80458 0.0
H3083 H 0.75694 0.96446 0.80043 0.0
H3084 H 0.74175 0.98414 0.81379 0.0
H3085 H 0.71132 0.95311 0.69385 0.0
H3086 H 0.73013 0.93754 0.70834 0.0
H3087 H 0.70104 0.93238 0.71263 0.0
H3088 H 0.77831 0.91467 0.77487 0.0
H3089 H 0.70993 0.89326 0.78867 0.0
H3090 H 0.77764 0.96428 0.76256 0.0
H3091 H 0.76617 0.95321 0.73238 0.0
H3092 H 0.7878 0.94131 0.74771 0.0
H3093 H 0.68915 0.93424 0.78148 0.0
H3094 H 0.67959 0.90632 0.76567 0.0
H3095 H 0.68583 0.93026 0.74945 0.0
C3096 C 0.73527 0.91385 0.53454 0.0
C3097 C 0.75564 0.92524 0.54803 0.0
C3098 C 0.7159 0.92326 0.53384 0.0
C3099 C 0.71696 0.94476 0.5467 0.0
C3100 C 0.7372 0.95596 0.56114 0.0
C3101 C 0.75633 0.94602 0.5617 0.0
C3102 C 0.69448 0.91048 0.5187 0.0
C3103 C 0.73875 0.97862 0.57555 0.0
C3104 C 0.67544 0.97584 0.51727 0.0
C3105 C 0.65739 0.9714 0.53054 0.0
C3106 C 0.69555 0.9685 0.52339 0.0
C3107 C 0.69747 0.95617 0.54306 0.0
C3108 C 0.67965 0.95278 0.55731 0.0
C3109 C 0.65975 0.96047 0.55083 0.0
C3110 C 0.71425 0.97277 0.50795 0.0
C3111 C 0.68075 0.93961 0.5783 0.0
H3112 H 0.73449 0.89761 0.52425 0.0
H3113 H 0.77195 0.95474 0.57244 0.0
H3114 H 0.68005 0.90938 0.52924 0.0
H3115 H 0.6906 0.91964 0.5034 0.0
H3116 H 0.69582 0.89311 0.51164 0.0
H3117 H 0.75552 0.98491 0.58633 0.0
H3118 H 0.73553 0.99118 0.56348 0.0
H3119 H 0.72558 0.97745 0.58771 0.0
H3120 H 0.67344 0.9843 0.50155 0.0
H3121 H 0.64562 0.95698 0.56094 0.0
H3122 H 0.71599 0.95655 0.49813 0.0
H3123 H 0.73059 0.98007 0.51918 0.0
H3124 H 0.71102 0.98439 0.49477 0.0
H3125 H 0.67532 0.92133 0.57179 0.0
H3126 H 0.6693 0.94412 0.59119 0.0
H3127 H 0.69814 0.94245 0.58778 0.0
C3128 C 0.40323 0.43426 0.7688 0.0
C3129 C 0.39395 0.45375 0.77022 0.0
C3130 C 0.39031 0.41302 0.77135 0.0
C3131 C 0.36734 0.41102 0.77501 0.0
C3132 C 0.35787 0.43064 0.77638 0.0
C3133 C 0.37127 0.45171 0.77409 0.0
C3134 C 0.40132 0.39274 0.77025 0.0
C3135 C 0.33355 0.42937 0.78039 0.0
C3136 C 0.3289 0.35256 0.75925 0.0
C3137 C 0.32608 0.34607 0.78181 0.0
C3138 C 0.34181 0.37383 0.75679 0.0
C3139 C 0.35315 0.38849 0.77737 0.0
C3140 C 0.35057 0.38172 0.80021 0.0
C3141 C 0.33645 0.36098 0.80212 0.0
C3142 C 0.34319 0.38065 0.73216 0.0
C3143 C 0.3634 0.39592 0.82261 0.0
H3144 H 0.42076 0.43564 0.766 0.0
H3145 H 0.36395 0.46665 0.77543 0.0
H3146 H 0.39787 0.38327 0.78555 0.0
H3147 H 0.39414 0.38113 0.75371 0.0
H3148 H 0.41989 0.39752 0.77036 0.0
H3149 H 0.32828 0.44582 0.77955 0.0
H3150 H 0.32232 0.4165 0.76685 0.0
H3151 H 0.33105 0.42404 0.79815 0.0
H3152 H 0.32073 0.34108 0.74353 0.0
H3153 H 0.33436 0.35593 0.81955 0.0
H3154 H 0.36086 0.38282 0.72816 0.0
H3155 H 0.33803 0.39714 0.73133 0.0
H3156 H 0.33228 0.368 0.71814 0.0
H3157 H 0.38178 0.39692 0.82227 0.0
H3158 H 0.35867 0.38883 0.83902 0.0
H3159 H 0.36043 0.4134 0.82354 0.0
C3160 C 0.23223 0.63393 0.29395 0.0
C3161 C 0.22844 0.62599 0.26957 0.0
C3162 C 0.238 0.65701 0.30171 0.0
C3163 C 0.24074 0.67214 0.28461 0.0
C3164 C 0.23691 0.6642 0.25989 0.0
C3165 C 0.23045 0.64104 0.25263 0.0
C3166 C 0.24112 0.66526 0.3281 0.0
C3167 C 0.24043 0.67998 0.24115 0.0
C3168 C 0.24453 0.73449 0.29342 0.0
C3169 C 0.26789 0.74178 0.2955 0.0
C3170 C 0.23525 0.71161 0.29279 0.0
C3171 C 0.24985 0.69609 0.29247 0.0
C3172 C 0.27353 0.70365 0.29618 0.0
C3173 C 0.28227 0.72667 0.29848 0.0
C3174 C 0.20991 0.70396 0.28967 0.0
C3175 C 0.28956 0.68749 0.29465 0.0
H3176 H 0.22996 0.62213 0.30693 0.0
H3177 H 0.22719 0.63467 0.23378 0.0
H3178 H 0.25884 0.67409 0.33401 0.0
H3179 H 0.23026 0.67766 0.33174 0.0
H3180 H 0.23695 0.65127 0.33897 0.0
H3181 H 0.23462 0.67117 0.22278 0.0
H3182 H 0.23133 0.69399 0.24412 0.0
H3183 H 0.25866 0.68762 0.24237 0.0
H3184 H 0.23349 0.74611 0.28983 0.0
H3185 H 0.30038 0.73266 0.29958 0.0
H3186 H 0.20487 0.68961 0.29981 0.0
H3187 H 0.20369 0.69814 0.27055 0.0
H3188 H 0.20148 0.71789 0.29562 0.0
H3189 H 0.28624 0.67491 0.30724 0.0
H3190 H 0.30753 0.69631 0.29859 0.0
H3191 H 0.28688 0.6781 0.2764 0.0
C3192 C 0.53109 0.71585 0.50521 0.0
C3193 C 0.51606 0.71557 0.48438 0.0
C3194 C 0.53586 0.69558 0.51356 0.0
C3195 C 0.52544 0.67384 0.50112 0.0
C3196 C 0.51012 0.67351 0.48022 0.0
C3197 C 0.5058 0.69399 0.47219 0.0
C3198 C 0.55246 0.69753 0.5357 0.0
C3199 C 0.49814 0.6513 0.46613 0.0
C3200 C 0.55213 0.62066 0.50931 0.0
C3201 C 0.5385 0.60874 0.52428 0.0
C3202 C 0.54827 0.64157 0.50192 0.0
C3203 C 0.53042 0.65159 0.50972 0.0
C3204 C 0.5169 0.63971 0.52523 0.0
C3205 C 0.52092 0.61867 0.53202 0.0
C3206 C 0.56317 0.65275 0.48523 0.0
C3207 C 0.49801 0.64926 0.53479 0.0
H3208 H 0.53948 0.73206 0.51494 0.0
H3209 H 0.49419 0.69304 0.4561 0.0
H3210 H 0.54512 0.68651 0.54844 0.0
H3211 H 0.56781 0.6917 0.53088 0.0
H3212 H 0.55756 0.71514 0.54478 0.0
H3213 H 0.48747 0.65355 0.44981 0.0
H3214 H 0.51063 0.64118 0.46086 0.0
H3215 H 0.48726 0.64142 0.4774 0.0
H3216 H 0.56568 0.61339 0.50293 0.0
H3217 H 0.51012 0.60985 0.54346 0.0
H3218 H 0.57152 0.67009 0.49341 0.0
H3219 H 0.55275 0.65429 0.46847 0.0
H3220 H 0.57637 0.6432 0.48075 0.0
H3221 H 0.50503 0.66583 0.5457 0.0
H3222 H 0.4885 0.63794 0.54597 0.0
H3223 H 0.48608 0.65222 0.51987 0.0
C3224 C 0.63523 0.2894 0.67238 0.0
C3225 C 0.63072 0.30902 0.66359 0.0
C3226 C 0.6549 0.28983 0.68821 0.0
C3227 C 0.67005 0.31062 0.69659 0.0
C3228 C 0.66542 0.33055 0.68786 0.0
C3229 C 0.64613 0.32943 0.67111 0.0
C3230 C 0.65931 0.26796 0.69609 0.0
C3231 C 0.68065 0.35317 0.69657 0.0
C3232 C 0.70719 0.31348 0.75641 0.0
C3233 C 0.72833 0.31151 0.74956 0.0
C3234 C 0.68835 0.31353 0.73956 0.0
C3235 C 0.69036 0.31155 0.71483 0.0
C3236 C 0.71173 0.31008 0.70767 0.0
C3237 C 0.73032 0.31027 0.72496 0.0
C3238 C 0.66615 0.31554 0.74832 0.0
C3239 C 0.71482 0.30736 0.6816 0.0
H3240 H 0.62345 0.27353 0.66655 0.0
H3241 H 0.64267 0.34468 0.66453 0.0
H3242 H 0.67708 0.26658 0.69475 0.0
H3243 H 0.65662 0.26756 0.71504 0.0
H3244 H 0.64799 0.25301 0.68527 0.0
H3245 H 0.67397 0.36727 0.68946 0.0
H3246 H 0.68276 0.3562 0.71636 0.0
H3247 H 0.69764 0.35331 0.6911 0.0
H3248 H 0.70519 0.31507 0.77497 0.0
H3249 H 0.74636 0.30879 0.71896 0.0
H3250 H 0.65337 0.29994 0.74175 0.0
H3251 H 0.65981 0.32976 0.74113 0.0
H3252 H 0.66757 0.31828 0.76811 0.0
H3253 H 0.70555 0.29042 0.67309 0.0
H3254 H 0.73287 0.30905 0.67894 0.0
H3255 H 0.70768 0.32002 0.67222 0.0
C3256 C 0.01754 0.36349 0.9667 0.0
C3257 C 0.01211 0.34626 0.98116 0.0
C3258 C 0.01888 0.38668 0.97491 0.0
C3259 C 0.01504 0.39359 0.99856 0.0
C3260 C 1.0096 0.37631 0.01335 0.0
C3261 C 1.00804 0.35309 0.00452 0.0
C3262 C 0.02449 0.40391 0.95809 0.0
C3263 C 1.00534 0.38235 0.03864 0.0
C3264 C 0.04114 0.45598 0.02432 0.0
C3265 C 0.02277 0.46703 0.02208 0.0
C3266 C 0.03875 0.43238 0.01751 0.0
C3267 C 0.01738 0.4188 0.00773 0.0
C3268 C 0.99863 0.42979 0.00582 0.0
C3269 C 1.00152 0.45348 0.01302 0.0
C3270 C 0.05933 0.42199 0.02069 0.0
C3271 C 0.97549 0.41668 0.99529 0.0
H3272 H 0.02068 0.35883 0.94862 0.0
H3273 H 1.00374 0.34027 0.01605 0.0
H3274 H 0.01157 0.41456 0.95706 0.0
H3275 H 0.04096 0.41524 0.96492 0.0
H3276 H 0.02544 0.39596 0.93981 0.0
H3277 H 1.00346 0.36755 0.04869 0.0
H3278 H 0.0194 0.39569 0.04821 0.0
H3279 H 0.9897 0.38924 0.03853 0.0
H3280 H 0.05761 0.46587 0.03172 0.0
H3281 H 0.98722 0.46151 0.0107 0.0
H3282 H 0.0635 0.41575 0.00299 0.0
H3283 H 0.05587 0.40727 0.03069 0.0
H3284 H 0.0743 0.43419 0.03037 0.0
H3285 H 0.97528 0.41207 0.97584 0.0
H3286 H 0.96216 0.42656 0.99802 0.0
H3287 H 0.97134 0.40075 0.00322 0.0
C3288 C 0.9928 0.79851 0.14497 0.0
C3289 C 0.0132 0.79303 0.15397 0.0
C3290 C 0.97387 0.79529 0.15748 0.0
C3291 C 0.97523 0.78588 0.17923 0.0
C3292 C 0.99581 0.78024 0.18827 0.0
C3293 C 0.01457 0.78416 0.17572 0.0
C3294 C 0.95253 0.80215 0.14755 0.0
C3295 C 0.99785 0.76942 0.21091 0.0
C3296 C 0.93515 0.78883 0.22627 0.0
C3297 C 0.92184 0.76699 0.22191 0.0
C3298 C 0.9517 0.79586 0.21151 0.0
C3299 C 0.95499 0.78066 0.19209 0.0
C3300 C 0.94038 0.75921 0.18669 0.0
C3301 C 0.92397 0.75273 0.20158 0.0
C3302 C 0.96663 0.81901 0.21762 0.0
C3303 C 0.94299 0.74251 0.16605 0.0
H3304 H 0.99172 0.80558 0.12826 0.0
H3305 H 0.03024 0.77975 0.18268 0.0
H3306 H 0.93795 0.7878 0.14576 0.0
H3307 H 0.9489 0.81587 0.1601 0.0
H3308 H 0.95382 0.80817 0.12987 0.0
H3309 H 0.0151 0.76637 0.21576 0.0
H3310 H 0.99353 0.78029 0.22594 0.0
H3311 H 0.98569 0.75303 0.2087 0.0
H3312 H 0.93363 0.79986 0.24203 0.0
H3313 H 0.91353 0.73589 0.19809 0.0
H3314 H 0.96797 0.82759 0.2014 0.0
H3315 H 0.98391 0.8174 0.22463 0.0
H3316 H 0.96024 0.82978 0.23125 0.0
H3317 H 0.94032 0.74965 0.14906 0.0
H3318 H 0.93085 0.7262 0.16486 0.0
H3319 H 0.96038 0.73919 0.16787 0.0
C3320 C 0.53481 0.33907 0.17235 0.0
C3321 C 0.53634 0.31759 0.1618 0.0
C3322 C 0.53862 0.35794 0.1598 0.0
C3323 C 0.54458 0.35531 0.13638 0.0
C3324 C 0.54625 0.33363 0.12577 0.0
C3325 C 0.54186 0.31505 0.13848 0.0
C3326 C 0.5361 0.38061 0.17152 0.0
C3327 C 0.5532 0.33012 0.10113 0.0
C3328 C 0.53875 0.39643 0.09109 0.0
C3329 C 0.56126 0.40727 0.09151 0.0
C3330 C 0.5328 0.38031 0.10656 0.0
C3331 C 0.54977 0.37511 0.12294 0.0
C3332 C 0.57231 0.38718 0.1244 0.0
C3333 C 0.5778 0.40301 0.10856 0.0
C3334 C 0.50862 0.36783 0.10434 0.0
C3335 C 0.59085 0.38258 0.14192 0.0
H3336 H 0.5304 0.34108 0.19032 0.0
H3337 H 0.54326 0.29853 0.1303 0.0
H3338 H 0.55177 0.39337 0.17164 0.0
H3339 H 0.52228 0.3864 0.16112 0.0
H3340 H 0.53226 0.38004 0.19015 0.0
H3341 H 0.55324 0.31213 0.09521 0.0
H3342 H 0.54161 0.33611 0.088 0.0
H3343 H 0.5704 0.34019 0.10097 0.0
H3344 H 0.52602 0.39964 0.07777 0.0
H3345 H 0.5952 0.41151 0.10889 0.0
H3346 H 0.50279 0.36762 0.12217 0.0
H3347 H 0.50738 0.35003 0.09666 0.0
H3348 H 0.49709 0.37547 0.09271 0.0
H3349 H 0.58698 0.38625 0.1604 0.0
H3350 H 0.60761 0.39295 0.14035 0.0
H3351 H 0.59186 0.36449 0.13907 0.0
C3352 C 0.97003 0.32671 0.34859 0.0
C3353 C 0.98511 0.31929 0.33384 0.0
C3354 C 0.94701 0.32583 0.3401 0.0
C3355 C 0.93796 0.31637 0.31631 0.0
C3356 C 0.95309 0.30872 0.30129 0.0
C3357 C 0.97637 0.31067 0.31001 0.0
C3358 C 0.9323 0.3351 0.35678 0.0
C3359 C 0.94462 0.29824 0.27594 0.0
C3360 C 0.87315 0.29337 0.30515 0.0
C3361 C 0.8646 0.31011 0.2938 0.0
C3362 C 0.89666 0.29492 0.31184 0.0
C3363 C 0.91269 0.31391 0.30766 0.0
C3364 C 0.90421 0.33083 0.29609 0.0
C3365 C 0.88059 0.32867 0.28932 0.0
C3366 C 0.90437 0.27598 0.32337 0.0
C3367 C 0.92002 0.35169 0.29137 0.0
H3368 H 0.97638 0.33362 0.36694 0.0
H3369 H 0.98759 0.3048 0.29831 0.0
H3370 H 0.92368 0.34735 0.34829 0.0
H3371 H 0.919 0.32121 0.36051 0.0
H3372 H 0.94208 0.34365 0.37399 0.0
H3373 H 0.95754 0.29073 0.26735 0.0
H3374 H 0.92929 0.28491 0.27539 0.0
H3375 H 0.93982 0.31127 0.26531 0.0
H3376 H 0.86144 0.2787 0.30863 0.0
H3377 H 0.87466 0.34182 0.28082 0.0
H3378 H 0.91264 0.28233 0.34181 0.0
H3379 H 0.91707 0.2696 0.31335 0.0
H3380 H 0.89018 0.26169 0.3241 0.0
H3381 H 0.92618 0.36284 0.30846 0.0
H3382 H 0.91162 0.36132 0.27886 0.0
H3383 H 0.93498 0.34729 0.28391 0.0
C3384 C 0.03887 0.68618 0.6547 0.0
C3385 C 0.022 0.69904 0.65274 0.0
C3386 C 0.03876 0.66736 0.63769 0.0
C3387 C 0.02098 0.66062 0.61845 0.0
C3388 C 1.00355 0.67319 0.61684 0.0
C3389 C 1.00448 0.69237 0.63365 0.0
C3390 C 0.05804 0.65502 0.63999 0.0
C3391 C 0.98383 0.66634 0.59731 0.0
C3392 C 0.03194 0.62495 0.56235 0.0
C3393 C 0.02168 0.60287 0.5654 0.0
C3394 C 0.0313 0.64378 0.579 0.0
C3395 C 0.02079 0.6407 0.59989 0.0
C3396 C 0.01035 0.61848 0.60306 0.0
C3397 C 0.01061 0.60005 0.58574 0.0
C3398 C 0.04225 0.66704 0.57436 0.0
C3399 C 0.99933 0.61401 0.62512 0.0
H3400 H 0.05265 0.69132 0.66914 0.0
H3401 H 0.99132 0.7021 0.63196 0.0
H3402 H 0.0515 0.63674 0.64007 0.0
H3403 H 0.06742 0.65679 0.62436 0.0
H3404 H 0.07002 0.66157 0.65646 0.0
H3405 H 0.97167 0.67784 0.59831 0.0
H3406 H 0.98992 0.66616 0.57959 0.0
H3407 H 0.97477 0.64895 0.59854 0.0
H3408 H 0.04111 0.62756 0.54726 0.0
H3409 H 1.00243 0.58323 0.58843 0.0
H3410 H 0.05637 0.67444 0.58867 0.0
H3411 H 0.02988 0.67832 0.5747 0.0
H3412 H 0.04887 0.66684 0.55688 0.0
H3413 H 0.01249 0.61726 0.64086 0.0
H3414 H 0.98989 0.59633 0.62386 0.0
H3415 H 0.98759 0.62559 0.62832 0.0
C3416 C 0.62431 0.79344 0.839 0.0
C3417 C 0.61454 0.81168 0.83277 0.0
C3418 C 0.64407 0.78844 0.82987 0.0
C3419 C 0.65562 0.80241 0.81458 0.0
C3420 C 0.6458 0.82087 0.80817 0.0
C3421 C 0.62543 0.82497 0.81684 0.0
C3422 C 0.65272 0.76808 0.83686 0.0
C3423 C 0.657 0.83659 0.79222 0.0
C3424 C 0.72027 0.80478 0.81373 0.0
C3425 C 0.72174 0.79139 0.79226 0.0
C3426 C 0.6993 0.80831 0.82095 0.0
C3427 C 0.6784 0.79848 0.80657 0.0
C3428 C 0.67968 0.78486 0.78485 0.0
C3429 C 0.70099 0.78144 0.77811 0.0
C3430 C 0.69958 0.82281 0.84424 0.0
C3431 C 0.6584 0.77359 0.76866 0.0
H3432 H 0.61627 0.78273 0.85101 0.0
H3433 H 0.61843 0.83912 0.81167 0.0
H3434 H 0.65554 0.75751 0.82076 0.0
H3435 H 0.66921 0.77361 0.84831 0.0
H3436 H 0.64086 0.75752 0.84672 0.0
H3437 H 0.64894 0.85141 0.79072 0.0
H3438 H 0.67514 0.8427 0.79908 0.0
H3439 H 0.65603 0.82734 0.77412 0.0
H3440 H 0.73574 0.81262 0.82521 0.0
H3441 H 0.70132 0.77103 0.76153 0.0
H3442 H 0.68977 0.81286 0.8563 0.0
H3443 H 0.69135 0.83721 0.84101 0.0
H3444 H 0.71697 0.82952 0.85345 0.0
H3445 H 0.64857 0.76037 0.77757 0.0
H3446 H 0.66199 0.76562 0.75137 0.0
H3447 H 0.64762 0.786 0.76512 0.0
C3448 C 0.49163 0.53474 0.71064 0.0
C3449 C 0.46827 0.5262 0.70843 0.0
C3450 C 0.50274 0.53888 0.69049 0.0
C3451 C 0.49026 0.53441 0.66736 0.0
C3452 C 0.46665 0.52584 0.66503 0.0
C3453 C 0.45598 0.52188 0.6855 0.0
C3454 C 0.52782 0.54829 0.69402 0.0
C3455 C 0.45268 0.52051 0.64079 0.0
C3456 C 0.51247 0.56068 0.61374 0.0
C3457 C 0.52195 0.54352 0.60296 0.0
C3458 C 0.50306 0.5584 0.63527 0.0
C3459 C 0.50191 0.53796 0.64553 0.0
C3460 C 0.5114 0.52058 0.63449 0.0
C3461 C 0.52198 0.52391 0.61392 0.0
C3462 C 0.49437 0.57787 0.64704 0.0
C3463 C 0.50996 0.49821 0.64407 0.0
H3464 H 0.50131 0.53829 0.72824 0.0
H3465 H 0.43794 0.51537 0.68351 0.0
H3466 H 0.5366 0.53725 0.68322 0.0
H3467 H 0.53115 0.56513 0.68778 0.0
H3468 H 0.53526 0.55 0.713 0.0
H3469 H 0.43443 0.51479 0.64195 0.0
H3470 H 0.45485 0.53561 0.63124 0.0
H3471 H 0.45859 0.50709 0.62987 0.0
H3472 H 0.51293 0.57608 0.60564 0.0
H3473 H 0.52942 0.51067 0.60569 0.0
H3474 H 0.50185 0.58193 0.66604 0.0
H3475 H 0.4758 0.57312 0.64668 0.0
H3476 H 0.49834 0.59326 0.63811 0.0
H3477 H 0.51955 0.50072 0.66219 0.0
H3478 H 0.51675 0.4859 0.63249 0.0
H3479 H 0.49214 0.49082 0.64566 0.0
C3480 C 0.75061 0.1805 0.00246 0.0
C3481 C 0.76874 0.16954 0.00552 0.0
C3482 C 0.74919 0.19436 0.9847 0.0
C3483 C 0.76648 0.19737 0.96987 0.0
C3484 C 0.7847 0.18609 0.97258 0.0
C3485 C 0.78559 0.1721 0.9905 0.0
C3486 C 0.72926 0.20591 0.98199 0.0
C3487 C 0.80351 0.18935 0.95718 0.0
C3488 C 0.74376 0.21822 0.91513 0.0
C3489 C 0.74861 0.24141 0.92276 0.0
C3490 C 0.75169 0.20342 0.92939 0.0
C3491 C 0.76483 0.21232 0.95152 0.0
C3492 C 0.77165 0.23591 0.95812 0.0
C3493 C 0.76309 0.25033 0.94369 0.0
C3494 C 0.74407 0.17831 0.9219 0.0
C3495 C 0.78628 0.24584 0.98133 0.0
H3496 H 0.73752 0.17833 0.01406 0.0
H3497 H 0.79967 0.16366 0.99313 0.0
H3498 H 0.73521 0.2245 0.98514 0.0
H3499 H 0.72027 0.20154 0.96357 0.0
H3500 H 0.717 0.20112 0.99464 0.0
H3501 H 0.81426 0.17658 0.9589 0.0
H3502 H 0.79671 0.18847 0.93814 0.0
H3503 H 0.81431 0.20636 0.96265 0.0
H3504 H 0.73287 0.21163 0.89853 0.0
H3505 H 0.76728 0.26844 0.94893 0.0
H3506 H 0.73038 0.17161 0.93224 0.0
H3507 H 0.7581 0.16939 0.92572 0.0
H3508 H 0.73752 0.17433 0.90261 0.0
H3509 H 0.77566 0.24529 0.99606 0.0
H3510 H 0.79451 0.2637 0.98096 0.0
H3511 H 0.7995 0.23599 0.98538 0.0
C3512 C 0.15995 0.55239 0.1698 0.0
C3513 C 0.15392 0.54918 0.19237 0.0
C3514 C 0.14351 0.5469 0.14991 0.0
C3515 C 0.12107 0.53773 0.15317 0.0
C3516 C 0.11546 0.53253 0.17563 0.0
C3517 C 0.13203 0.53862 0.19517 0.0
C3518 C 0.1497 0.55255 0.12591 0.0
C3519 C 0.09169 0.52194 0.17924 0.0
C3520 C 0.07513 0.55593 0.11595 0.0
C3521 C 0.06864 0.53743 0.09834 0.0
C3522 C 0.0927 0.55635 0.13379 0.0
C3523 C 0.10288 0.53727 0.13429 0.0
C3524 C 0.09543 0.518 0.11722 0.0
C3525 C 0.07848 0.51848 0.099 0.0
C3526 C 0.10063 0.57728 0.15175 0.0
C3527 C 0.10552 0.49717 0.11785 0.0
H3528 H 0.17713 0.56017 0.16789 0.0
H3529 H 0.12777 0.53543 0.21272 0.0
H3530 H 0.14232 0.53829 0.11177 0.0
H3531 H 0.14263 0.56732 0.12132 0.0
H3532 H 0.16827 0.55666 0.1258 0.0
H3533 H 0.09081 0.5168 0.19735 0.0
H3534 H 0.08047 0.53416 0.17672 0.0
H3535 H 0.08499 0.50691 0.16581 0.0
H3536 H 0.06718 0.57043 0.11506 0.0
H3537 H 0.07283 0.50403 0.08537 0.0
H3538 H 0.11887 0.58396 0.15144 0.0
H3539 H 0.0985 0.57308 0.16999 0.0
H3540 H 0.09124 0.59083 0.14818 0.0
H3541 H 0.12205 0.50023 0.11092 0.0
H3542 H 0.0945 0.48226 0.10667 0.0
H3543 H 0.10848 0.49312 0.13635 0.0
C3544 C 0.82523 0.86911 0.46315 0.0
C3545 C 0.81087 0.85984 0.47887 0.0
C3546 C 0.8242 0.85855 0.43967 0.0
C3547 C 0.80771 0.83872 0.43121 0.0
C3548 C 0.7931 0.82932 0.44707 0.0
C3549 C 0.79518 0.83972 0.47083 0.0
C3550 C 0.84066 0.86878 0.42382 0.0
C3551 C 0.77501 0.80847 0.43883 0.0
C3552 C 0.79065 0.82814 0.36365 0.0
C3553 C 0.80201 0.81097 0.35643 0.0
C3554 C 0.79183 0.83675 0.38785 0.0
C3555 C 0.8052 0.82853 0.40554 0.0
C3556 C 0.81654 0.81105 0.3985 0.0
C3557 C 0.8145 0.80229 0.37419 0.0
C3558 C 0.77871 0.85471 0.39447 0.0
C3559 C 0.83134 0.80198 0.41654 0.0
H3560 H 0.83747 0.88459 0.46933 0.0
H3561 H 0.78394 0.83258 0.48288 0.0
H3562 H 0.84925 0.85577 0.41591 0.0
H3563 H 0.83146 0.87508 0.40888 0.0
H3564 H 0.85368 0.88302 0.43364 0.0
H3565 H 0.76341 0.80477 0.45239 0.0
H3566 H 0.76493 0.81046 0.42202 0.0
H3567 H 0.78295 0.79372 0.43506 0.0
H3568 H 0.78067 0.83491 0.35035 0.0
H3569 H 0.82273 0.78858 0.3692 0.0
H3570 H 0.79052 0.87057 0.40247 0.0
H3571 H 0.76772 0.84935 0.40807 0.0
H3572 H 0.76801 0.85833 0.37884 0.0
H3573 H 0.84681 0.81499 0.42304 0.0
H3574 H 0.83646 0.78644 0.40886 0.0
H3575 H 0.8226 0.79818 0.43222 0.0
C3576 C 0.46605 0.53691 0.85861 0.0
C3577 C 0.46981 0.52175 0.83977 0.0
C3578 C 0.47654 0.53742 0.88206 0.0
C3579 C 0.491 0.52224 0.88697 0.0
C3580 C 0.49463 0.50673 0.86804 0.0
C3581 C 0.48414 0.50678 0.84471 0.0
C3582 C 0.47229 0.55437 0.90158 0.0
C3583 C 0.50937 0.48985 0.8725 0.0
C3584 C 0.53411 0.53802 0.94324 0.0
C3585 C 0.52297 0.52597 0.95964 0.0
C3586 C 0.52407 0.53669 0.91946 0.0
C3587 C 0.50246 0.52275 0.91183 0.0
C3588 C 0.49155 0.50991 0.92827 0.0
C3589 C 0.50183 0.5119 0.95201 0.0
C3590 C 0.53622 0.55085 0.90273 0.0
C3591 C 0.46863 0.49472 0.9211 0.0
H3592 H 0.45498 0.54852 0.85501 0.0
H3593 H 0.48695 0.49484 0.83034 0.0
H3594 H 0.4659 0.54565 0.91642 0.0
H3595 H 0.48836 0.56615 0.90899 0.0
H3596 H 0.4599 0.56437 0.89511 0.0
H3597 H 0.51091 0.47923 0.85585 0.0
H3598 H 0.52651 0.49872 0.88083 0.0
H3599 H 0.50224 0.47867 0.8852 0.0
H3600 H 0.55029 0.5492 0.94928 0.0
H3601 H 0.49312 0.50278 0.96477 0.0
H3602 H 0.52614 0.56326 0.89714 0.0
H3603 H 0.53805 0.54003 0.88637 0.0
H3604 H 0.55323 0.56014 0.91107 0.0
H3605 H 0.45565 0.50519 0.91891 0.0
H3606 H 0.46409 0.48334 0.93465 0.0
H3607 H 0.46806 0.48428 0.90373 0.0
C3608 C 0.80324 0.19574 0.12513 0.0
C3609 C 0.78479 0.17776 0.12273 0.0
C3610 C 0.80607 0.21313 0.14371 0.0
C3611 C 0.78995 0.21211 0.15984 0.0
C3612 C 0.77185 0.19344 0.15815 0.0
C3613 C 0.76952 0.1762 0.13941 0.0
C3614 C 0.82573 0.23285 0.14557 0.0
C3615 C 0.75452 0.1922 0.17542 0.0
C3616 C 0.80716 0.25017 0.21699 0.0
C3617 C 0.7935 0.26604 0.21387 0.0
C3618 C 0.80537 0.2318 0.19985 0.0
C3619 C 0.79165 0.231 0.17813 0.0
C3620 C 0.77952 0.24813 0.17384 0.0
C3621 C 0.77987 0.26516 0.19231 0.0
C3622 C 0.81733 0.21293 0.20535 0.0
C3623 C 0.76615 0.24834 0.14993 0.0
H3624 H 0.81511 0.19643 0.11214 0.0
H3625 H 0.75524 0.16213 0.13715 0.0
H3626 H 0.81957 0.24892 0.14592 0.0
H3627 H 0.837 0.23382 0.16246 0.0
H3628 H 0.83586 0.2315 0.13052 0.0
H3629 H 0.74307 0.17537 0.17313 0.0
H3630 H 0.76294 0.19598 0.1941 0.0
H3631 H 0.74412 0.20507 0.1726 0.0
H3632 H 0.81863 0.25155 0.23321 0.0
H3633 H 0.76948 0.2776 0.1899 0.0
H3634 H 0.82915 0.21046 0.19223 0.0
H3635 H 0.80478 0.19687 0.20393 0.0
H3636 H 0.82691 0.21618 0.22355 0.0
H3637 H 0.77727 0.24778 0.13569 0.0
H3638 H 0.75864 0.26359 0.14935 0.0
H3639 H 0.7524 0.23315 0.14579 0.0
C3640 C 0.13911 0.54288 0.30723 0.0
C3641 C 0.16144 0.55487 0.31074 0.0
C3642 C 0.12512 0.54489 0.3249 0.0
C3643 C 0.1336 0.55995 0.34593 0.0
C3644 C 0.15668 0.57076 0.35027 0.0
C3645 C 0.17052 0.56773 0.33261 0.0
C3646 C 0.10088 0.53228 0.32025 0.0
C3647 C 0.16628 0.58695 0.37261 0.0
C3648 C 0.09354 0.59379 0.37044 0.0
C3649 C 0.09201 0.58654 0.39292 0.0
C3650 C 0.10703 0.58516 0.35493 0.0
C3651 C 0.11775 0.56752 0.36121 0.0
C3652 C 0.11461 0.5585 0.3827 0.0
C3653 C 0.10253 0.56869 0.39874 0.0
C3654 C 0.11073 0.59576 0.3324 0.0
C3655 C 0.12448 0.53855 0.389 0.0
H3656 H 0.13234 0.53262 0.2903 0.0
H3657 H 0.18791 0.57683 0.33516 0.0
H3658 H 0.09517 0.52618 0.33674 0.0
H3659 H 0.08985 0.54374 0.31426 0.0
H3660 H 0.09854 0.51764 0.30613 0.0
H3661 H 0.18413 0.59525 0.37225 0.0
H3662 H 0.15616 0.60025 0.37493 0.0
H3663 H 0.1655 0.57781 0.38844 0.0
H3664 H 0.08481 0.60677 0.36513 0.0
H3665 H 0.10211 0.56296 0.41609 0.0
H3666 H 0.10451 0.58304 0.31651 0.0
H3667 H 0.12905 0.60201 0.33209 0.0
H3668 H 0.102 0.61012 0.33083 0.0
H3669 H 0.12083 0.52497 0.37363 0.0
H3670 H 0.11769 0.53156 0.40465 0.0
H3671 H 0.14308 0.54364 0.39319 0.0
C3672 C 0.81604 0.86857 0.62991 0.0
C3673 C 0.80196 0.86169 0.60814 0.0
C3674 C 0.81138 0.85838 0.65048 0.0
C3675 C 0.792 0.84102 0.64947 0.0
C3676 C 0.77744 0.83436 0.62767 0.0
C3677 C 0.78265 0.84465 0.6073 0.0
C3678 C 0.82744 0.86592 0.67326 0.0
C3679 C 0.75627 0.81642 0.62588 0.0
C3680 C 0.79454 0.79952 0.69506 0.0
C3681 C 0.78318 0.80815 0.71307 0.0
C3682 C 0.79697 0.8097 0.67414 0.0
C3683 C 0.78776 0.82904 0.67087 0.0
C3684 C 0.77555 0.83739 0.68859 0.0
C3685 C 0.77359 0.82699 0.70954 0.0
C3686 C 0.81005 0.80009 0.65582 0.0
C3687 C 0.76512 0.85775 0.68588 0.0
H3688 H 0.83089 0.88182 0.63083 0.0
H3689 H 0.77144 0.83944 0.5907 0.0
H3690 H 0.81817 0.87107 0.68801 0.0
H3691 H 0.83507 0.85164 0.6784 0.0
H3692 H 0.84122 0.88026 0.6715 0.0
H3693 H 0.74673 0.81306 0.60766 0.0
H3694 H 0.76058 0.80044 0.63081 0.0
H3695 H 0.74512 0.82175 0.63867 0.0
H3696 H 0.80215 0.78505 0.69759 0.0
H3697 H 0.76476 0.83379 0.72329 0.0
H3698 H 0.8253 0.81279 0.65413 0.0
H3699 H 0.79965 0.79621 0.63809 0.0
H3700 H 0.81541 0.78447 0.66054 0.0
H3701 H 0.77851 0.87324 0.69012 0.0
H3702 H 0.7522 0.85899 0.69812 0.0
H3703 H 0.75718 0.85729 0.66729 0.0
C3704 C 0.76148 0.49474 0.51385 0.0
C3705 C 0.75563 0.47306 0.50126 0.0
C3706 C 0.74482 0.50528 0.5219 0.0
C3707 C 0.72203 0.49386 0.51658 0.0
C3708 C 0.71591 0.47329 0.50123 0.0
C3709 C 0.73299 0.46303 0.49363 0.0
C3710 C 0.75186 0.52723 0.53849 0.0
C3711 C 0.69159 0.46125 0.49469 0.0
C3712 C 0.69202 0.50617 0.56882 0.0
C3713 C 0.68284 0.52423 0.56201 0.0
C3714 C 0.70343 0.49472 0.55317 0.0
C3715 C 0.70553 0.50175 0.5304 0.0
C3716 C 0.69503 0.519 0.52287 0.0
C3717 C 0.68393 0.53028 0.53896 0.0
C3718 C 0.71433 0.47605 0.56152 0.0
C3719 C 0.69683 0.52651 0.49853 0.0
H3720 H 0.77908 0.50254 0.51945 0.0
H3721 H 0.72866 0.44639 0.48336 0.0
H3722 H 0.74151 0.53954 0.5333 0.0
H3723 H 0.7491 0.52406 0.55693 0.0
H3724 H 0.76994 0.53497 0.53864 0.0
H3725 H 0.68986 0.44518 0.48273 0.0
H3726 H 0.68388 0.45748 0.51102 0.0
H3727 H 0.68181 0.4723 0.48563 0.0
H3728 H 0.69045 0.50117 0.58641 0.0
H3729 H 0.67657 0.54421 0.53372 0.0
H3730 H 0.73297 0.48164 0.56386 0.0
H3731 H 0.7099 0.46085 0.54801 0.0
H3732 H 0.70914 0.47126 0.57874 0.0
H3733 H 0.71393 0.53677 0.49834 0.0
H3734 H 0.68422 0.53688 0.4938 0.0
H3735 H 0.6945 0.51177 0.48459 0.0
C3736 C 0.19117 0.14603 0.50411 0.0
C3737 C 0.21171 0.14217 0.51482 0.0
C3738 C 0.1709 0.13019 0.50346 0.0
C3739 C 0.17113 0.11017 0.51411 0.0
C3740 C 0.19195 0.10587 0.52423 0.0
C3741 C 0.21196 0.12185 0.52439 0.0
C3742 C 0.14916 0.13528 0.4921 0.0
C3743 C 0.19301 0.08456 0.53534 0.0
C3744 C 0.1194 0.08276 0.5404 0.0
C3745 C 0.10825 0.06639 0.52171 0.0
C3746 C 0.1394 0.09757 0.53776 0.0
C3747 C 0.14952 0.09468 0.5166 0.0
C3748 C 0.13909 0.07693 0.4983 0.0
C3749 C 0.11811 0.06349 0.50074 0.0
C3750 C 0.14927 0.11679 0.55729 0.0
C3751 C 0.14969 0.07235 0.47595 0.0
H3752 H 0.1909 0.16153 0.49638 0.0
H3753 H 0.22778 0.11864 0.53255 0.0
H3754 H 0.1395 0.12052 0.47968 0.0
H3755 H 0.1385 0.13879 0.50616 0.0
H3756 H 0.15215 0.15008 0.48212 0.0
H3757 H 0.21061 0.08317 0.54141 0.0
H3758 H 0.18344 0.08412 0.5509 0.0
H3759 H 0.18496 0.06958 0.52229 0.0
H3760 H 0.11202 0.08449 0.55684 0.0
H3761 H 0.10941 0.05076 0.48626 0.0
H3762 H 0.14978 0.1331 0.55005 0.0
H3763 H 0.16687 0.11598 0.56392 0.0
H3764 H 0.13933 0.11667 0.57259 0.0
H3765 H 0.14626 0.08454 0.46352 0.0
H3766 H 0.1427 0.05503 0.46668 0.0
H3767 H 0.16828 0.07443 0.48002 0.0
C3768 C 0.19793 0.00844 0.80219 0.0
C3769 C 0.17472 1.00473 0.79434 0.0
C3770 C 0.21024 0.99146 0.79771 0.0
C3771 C 0.19909 0.97053 0.78465 0.0
C3772 C 0.17547 0.96636 0.77767 0.0
C3773 C 0.16353 0.98348 0.78277 0.0
C3774 C 0.23532 0.9964 0.80585 0.0
C3775 C 0.16301 0.9442 0.76371 0.0
C3776 C 0.22909 0.93719 0.74332 0.0
C3777 C 0.231 0.91867 0.75548 0.0
C3778 C 0.21983 0.95484 0.75328 0.0
C3779 C 0.21222 0.95383 0.7759 0.0
C3780 C 0.21527 0.93577 0.78886 0.0
C3781 C 0.22476 0.91838 0.7785 0.0
C3782 C 0.21718 0.974 0.73906 0.0
C3783 C 0.20776 0.93442 0.81323 0.0
H3784 H 0.20661 0.02482 0.81132 0.0
H3785 H 0.14559 0.98055 0.77673 0.0
H3786 H 0.2406 0.9817 0.81309 0.0
H3787 H 0.24457 0.99979 0.7904 0.0
H3788 H 0.24047 0.01136 0.81969 0.0
H3789 H 0.14453 0.9434 0.76027 0.0
H3790 H 0.16953 0.94171 0.74632 0.0
H3791 H 0.16595 0.92999 0.77354 0.0
H3792 H 0.23443 0.93762 0.72574 0.0
H3793 H 0.22641 0.90409 0.78796 0.0
H3794 H 0.22479 0.99044 0.74993 0.0
H3795 H 0.19897 0.97381 0.73423 0.0
H3796 H 0.22519 0.97292 0.72241 0.0
H3797 H 0.21613 0.94984 0.82547 0.0
H3798 H 0.21169 0.91943 0.82111 0.0
H3799 H 0.1893 0.93362 0.81205 0.0
C3800 C 0.37417 0.97951 0.9921 0.0
C3801 C 0.36445 0.9721 0.01179 0.0
C3802 C 0.39669 0.99051 0.99474 0.0
C3803 C 0.40937 0.99418 0.01764 0.0
C3804 C 0.39958 0.98702 0.03762 0.0
C3805 C 0.37707 0.97592 0.03443 0.0
C3806 C 0.40698 0.99786 0.97304 0.0
C3807 C 0.41293 0.99105 0.06221 0.0
C3808 C 0.47118 1.00429 0.01384 0.0
C3809 C 0.4763 0.02777 0.01713 0.0
C3810 C 0.44962 0.99289 0.01614 0.0
C3811 C 0.43295 1.00561 0.02052 0.0
C3812 C 0.43838 0.02942 0.0247 0.0
C3813 C 0.46029 0.0403 0.02306 0.0
C3814 C 0.44425 0.96741 0.01189 0.0
C3815 C 0.42072 0.0434 0.02856 0.0
H3816 H 0.36433 0.97629 0.97459 0.0
H3817 H 0.36936 0.97017 0.04962 0.0
H3818 H 0.41454 0.01617 0.97617 0.0
H3819 H 0.42076 0.98878 0.96965 0.0
H3820 H 0.39441 0.99452 0.95675 0.0
H3821 H 0.40296 0.98356 0.07572 0.0
H3822 H 0.42835 0.98381 0.06187 0.0
H3823 H 0.41856 0.00945 0.06794 0.0
H3824 H 0.48358 0.99489 0.00817 0.0
H3825 H 0.46455 0.0586 0.02485 0.0
H3826 H 0.43441 0.96169 0.99401 0.0
H3827 H 0.4338 0.96045 0.02527 0.0
H3828 H 0.4598 0.96027 0.01268 0.0
H3829 H 0.40999 0.04288 0.01137 0.0
H3830 H 0.4284 0.06132 0.03525 0.0
H3831 H 0.40955 0.0365 0.04136 0.0
C3832 C 0.87441 0.59426 0.7961 0.0
C3833 C 0.86674 0.58078 0.81314 0.0
C3834 C 0.86054 0.60701 0.78532 0.0
C3835 C 0.83912 0.60699 0.79283 0.0
C3836 C 0.83205 0.59479 0.81141 0.0
C3837 C 0.84587 0.58127 0.82108 0.0
C3838 C 0.86832 0.61942 0.76503 0.0
C3839 C 0.80953 0.59515 0.82017 0.0
C3840 C 0.81605 0.65502 0.77177 0.0
C3841 C 0.80176 0.64427 0.75106 0.0
C3842 C 0.82683 0.64264 0.78684 0.0
C3843 C 0.82398 0.61919 0.78038 0.0
C3844 C 0.80913 0.60806 0.75998 0.0
C3845 C 0.79791 0.6208 0.74565 0.0
C3846 C 0.84229 0.65478 0.80884 0.0
C3847 C 0.80643 0.58307 0.75221 0.0
H3848 H 0.89046 0.59333 0.78974 0.0
H3849 H 0.8401 0.5705 0.83415 0.0
H3850 H 0.85547 0.6146 0.74902 0.0
H3851 H 0.87046 0.63787 0.77015 0.0
H3852 H 0.8846 0.61585 0.76006 0.0
H3853 H 0.80788 0.58693 0.83662 0.0
H3854 H 0.80719 0.61279 0.82385 0.0
H3855 H 0.79573 0.58619 0.80616 0.0
H3856 H 0.81954 0.67325 0.77585 0.0
H3857 H 0.78664 0.61247 0.72986 0.0
H3858 H 0.86014 0.65565 0.80584 0.0
H3859 H 0.83949 0.64546 0.82437 0.0
H3860 H 0.83976 0.67227 0.81338 0.0
H3861 H 0.82173 0.57994 0.74448 0.0
H3862 H 0.79154 0.57651 0.7385 0.0
H3863 H 0.8047 0.57335 0.76757 0.0
C3864 C 0.84779 0.66521 0.02465 0.0
C3865 C 0.82544 0.65557 0.02707 0.0
C3866 C 0.86538 0.65373 0.0299 0.0
C3867 C 0.86039 0.63228 0.03787 0.0
C3868 C 0.83779 0.62235 0.03986 0.0
C3869 C 0.82061 0.63407 0.03434 0.0
C3870 C 0.88925 0.66461 0.02721 0.0
C3871 C 0.83179 0.59961 0.04858 0.0
C3872 C 0.8983 0.58958 0.03747 0.0
C3873 C 0.90605 0.59132 0.06181 0.0
C3874 C 0.88449 0.60387 0.02903 0.0
C3875 C 0.87863 0.62038 0.04535 0.0
C3876 C 0.88783 0.62324 0.06969 0.0
C3877 C 0.90137 0.60857 0.07766 0.0
C3878 C 0.87496 0.60025 0.00298 0.0
C3879 C 0.88246 0.64106 0.08752 0.0
H3880 H 0.85155 0.68178 0.01889 0.0
H3881 H 0.80338 0.62653 0.03626 0.0
H3882 H 0.90024 0.66653 0.04447 0.0
H3883 H 0.89609 0.65362 0.01422 0.0
H3884 H 0.89033 0.68146 0.02103 0.0
H3885 H 0.81327 0.59377 0.04799 0.0
H3886 H 0.8384 0.58675 0.03761 0.0
H3887 H 0.83977 0.60061 0.06725 0.0
H3888 H 0.9021 0.5763 0.02523 0.0
H3889 H 0.90789 0.61021 0.0964 0.0
H3890 H 0.87679 0.61657 0.99562 0.0
H3891 H 0.85665 0.59279 1.00106 0.0
H3892 H 0.88332 0.58874 0.99219 0.0
H3893 H 0.88782 0.658 0.082 0.0
H3894 H 0.89095 0.64102 0.10581 0.0
H3895 H 0.86397 0.63833 0.08807 0.0
C3896 C 0.17788 0.13916 0.79068 0.0
C3897 C 0.18424 0.12157 0.80206 0.0
C3898 C 0.19328 0.15959 0.79082 0.0
C3899 C 0.21545 0.16259 0.80294 0.0
C3900 C 0.22168 0.14517 0.81518 0.0
C3901 C 0.20608 0.1248 0.8144 0.0
C3902 C 0.18603 0.17771 0.77743 0.0
C3903 C 0.24485 0.14805 0.82906 0.0
C3904 C 0.26192 0.20501 0.78293 0.0
C3905 C 0.2628 0.22424 0.79918 0.0
C3906 C 0.24665 0.18481 0.78404 0.0
C3907 C 0.23234 0.18367 0.8022 0.0
C3908 C 0.23392 0.20279 0.81929 0.0
C3909 C 0.24891 0.22291 0.81737 0.0
C3910 C 0.24532 0.1649 0.76533 0.0
C3911 C 0.21931 0.2023 0.83918 0.0
H3912 H 0.16104 0.13673 0.78109 0.0
H3913 H 0.21103 0.11134 0.82347 0.0
H3914 H 0.18906 0.19392 0.78935 0.0
H3915 H 0.19627 0.18048 0.76257 0.0
H3916 H 0.1679 0.17324 0.76995 0.0
H3917 H 0.24704 0.13295 0.83775 0.0
H3918 H 0.258 0.15142 0.81707 0.0
H3919 H 0.24777 0.16286 0.84303 0.0
H3920 H 0.27242 0.20606 0.76866 0.0
H3921 H 0.24956 0.23775 0.83002 0.0
H3922 H 0.22807 0.16017 0.75533 0.0
H3923 H 0.24856 0.15009 0.77395 0.0
H3924 H 0.25763 0.16849 0.75244 0.0
H3925 H 0.20181 0.20282 0.83182 0.0
H3926 H 0.22547 0.21692 0.8533 0.0
H3927 H 0.21869 0.18652 0.84745 0.0
C3928 C 0.36932 0.95075 0.31725 0.0
C3929 C 0.35985 0.96791 0.30826 0.0
C3930 C 0.35606 0.92947 0.31732 0.0
C3931 C 0.33308 0.9255 0.30782 0.0
C3932 C 0.32327 0.94291 0.2994 0.0
C3933 C 0.33687 0.96413 0.29981 0.0
C3934 C 0.36673 0.91116 0.3269 0.0
C3935 C 0.29866 0.93884 0.28925 0.0
C3936 C 0.30858 0.86587 0.28133 0.0
C3937 C 0.29676 0.85804 0.2994 0.0
C3938 C 0.32011 0.88816 0.28357 0.0
C3939 C 0.31976 0.90261 0.30464 0.0
C3940 C 0.30702 0.89507 0.3226 0.0
C3941 C 0.29532 0.87282 0.31954 0.0
C3942 C 0.33336 0.89584 0.26385 0.0
C3943 C 0.30674 0.9099 0.34561 0.0
H3944 H 0.38708 0.95393 0.32424 0.0
H3945 H 0.32961 0.97759 0.29316 0.0
H3946 H 0.35626 0.90257 0.33938 0.0
H3947 H 0.36771 0.89824 0.31195 0.0
H3948 H 0.38404 0.91786 0.33635 0.0
H3949 H 0.29355 0.95442 0.28406 0.0
H3950 H 0.29531 0.9259 0.27329 0.0
H3951 H 0.28791 0.93216 0.30252 0.0
H3952 H 0.3088 0.8546 0.26552 0.0
H3953 H 0.28587 0.86685 0.33343 0.0
H3954 H 0.35138 0.8953 0.26883 0.0
H3955 H 0.33241 0.9134 0.261 0.0
H3956 H 0.32719 0.88477 0.24671 0.0
H3957 H 0.32258 0.91061 0.35758 0.0
H3958 H 0.29232 0.90318 0.35504 0.0
H3959 H 0.30588 0.9274 0.34242 0.0
C3960 C 0.55487 0.38251 0.60399 0.0
C3961 C 0.56615 0.36773 0.59124 0.0
C3962 C 0.55318 0.40429 0.59756 0.0
C3963 C 0.56323 0.41251 0.57783 0.0
C3964 C 0.57489 0.3978 0.56501 0.0
C3965 C 0.57604 0.37587 0.57163 0.0
C3966 C 0.54024 0.41849 0.61191 0.0
C3967 C 0.58667 0.40548 0.54442 0.0
C3968 C 0.54205 0.46041 0.5462 0.0
C3969 C 0.55655 0.4806 0.55734 0.0
C3970 C 0.54375 0.43869 0.55287 0.0
C3971 C 0.56124 0.4361 0.57052 0.0
C3972 C 0.57655 0.45632 0.58123 0.0
C3973 C 0.57379 0.47795 0.57497 0.0
C3974 C 0.52637 0.41837 0.54118 0.0
C3975 C 0.596 0.45526 0.59957 0.0
H3976 H 0.54706 0.37693 0.61917 0.0
H3977 H 0.58504 0.36517 0.56154 0.0
H3978 H 0.55116 0.43508 0.6191 0.0
H3979 H 0.52574 0.42179 0.60019 0.0
H3980 H 0.53377 0.41024 0.62703 0.0
H3981 H 0.59427 0.39214 0.53551 0.0
H3982 H 0.57467 0.41065 0.53103 0.0
H3983 H 0.60022 0.42051 0.55097 0.0
H3984 H 0.52912 0.46143 0.53212 0.0
H3985 H 0.58549 0.49291 0.5839 0.0
H3986 H 0.51692 0.41065 0.55491 0.0
H3987 H 0.53473 0.40544 0.53276 0.0
H3988 H 0.51417 0.4227 0.52737 0.0
H3989 H 0.58963 0.45216 0.61673 0.0
H3990 H 0.60886 0.47124 0.60268 0.0
H3991 H 0.60429 0.44116 0.59395 0.0
C3992 C 0.42439 0.7617 0.40852 0.0
C3993 C 0.44399 0.77864 0.41022 0.0
C3994 C 0.40383 0.76305 0.39472 0.0
C3995 C 0.40215 0.78221 0.38278 0.0
C3996 C 0.42173 0.7997 0.38514 0.0
C3997 C 0.4423 0.79751 0.39826 0.0
C3998 C 0.38392 0.74365 0.39255 0.0
C3999 C 0.42082 0.82109 0.37419 0.0
C4000 C 0.357 0.77838 0.32809 0.0
C4001 C 0.3395 0.78709 0.3376 0.0
C4002 C 0.37706 0.77662 0.34239 0.0
C4003 C 0.38029 0.78373 0.36737 0.0
C4004 C 0.36249 0.79212 0.37732 0.0
C4005 C 0.34236 0.79322 0.36256 0.0
C4006 C 0.39485 0.76695 0.33062 0.0
C4007 C 0.36449 0.79997 0.40366 0.0
H4008 H 0.42527 0.74702 0.41758 0.0
H4009 H 0.45704 0.81095 0.39964 0.0
H4010 H 0.36936 0.74965 0.39929 0.0
H4011 H 0.37869 0.73674 0.37348 0.0
H4012 H 0.38775 0.72984 0.40259 0.0
H4013 H 0.43729 0.83319 0.37751 0.0
H4014 H 0.41567 0.81713 0.35467 0.0
H4015 H 0.40789 0.8294 0.38173 0.0
H4016 H 0.35483 0.77224 0.30938 0.0
H4017 H 0.32899 0.79927 0.37074 0.0
H4018 H 0.39857 0.75234 0.33934 0.0
H4019 H 0.41075 0.77979 0.33284 0.0
H4020 H 0.38962 0.76135 0.31127 0.0
H4021 H 0.36028 0.78511 0.4133 0.0
H4022 H 0.35268 0.81136 0.4076 0.0
H4023 H 0.38193 0.80893 0.41081 0.0
C4024 C 0.04013 0.71701 0.07932 0.0
C4025 C 0.06157 0.73107 0.0868 0.0
C4026 C 0.03712 0.69303 0.07382 0.0
C4027 C 0.05585 0.68203 0.07622 0.0
C4028 C 0.07751 0.69616 0.08375 0.0
C4029 C 0.08009 0.72011 0.08869 0.0
C4030 C 0.01365 0.67941 0.06557 0.0
C4031 C 0.09814 0.68585 0.08704 0.0
C4032 C 0.04403 0.61791 0.08429 0.0
C4033 C 0.04721 0.60703 0.06213 0.0
C4034 C 0.04724 0.64191 0.0892 0.0
C4035 C 0.05285 0.656 0.07129 0.0
C4036 C 0.05568 0.64495 0.0487 0.0
C4037 C 0.05328 0.62099 0.04462 0.0
C4038 C 0.04476 0.6522 0.11384 0.0
C4039 C 0.06043 0.65837 0.02834 0.0
H4040 H 0.02549 0.72477 0.07785 0.0
H4041 H 0.09677 0.7303 0.09459 0.0
H4042 H 0.01368 0.66718 0.04964 0.0
H4043 H 1.00772 0.66959 0.07984 0.0
H4044 H 1.00142 0.69027 0.06115 0.0
H4045 H 0.11362 0.69865 0.09423 0.0
H4046 H 0.0956 0.67289 0.09938 0.0
H4047 H 0.10085 0.67722 0.06972 0.0
H4048 H 0.03934 0.60759 0.09809 0.0
H4049 H 0.05538 0.61306 0.02724 0.0
H4050 H 0.02995 0.6604 0.113 0.0
H4051 H 0.05987 0.66546 0.12099 0.0
H4052 H 0.04252 0.63944 0.12646 0.0
H4053 H 0.04555 0.6657 0.02299 0.0
H4054 H 0.06399 0.64785 0.01255 0.0
H4055 H 0.07498 0.67262 0.03394 0.0
C4056 C 0.06272 0.27119 0.88798 0.0
C4057 C 0.06403 0.2796 0.9122 0.0
C4058 C 0.08221 0.27313 0.87612 0.0
C4059 C 0.10371 0.28361 0.8887 0.0
C4060 C 0.10514 0.29157 0.91331 0.0
C4061 C 0.08542 0.28957 0.92464 0.0
C4062 C 0.07977 0.26419 0.85 0.0
C4063 C 0.12752 0.30275 0.92768 0.0
C4064 C 0.15946 0.27718 0.86482 0.0
C4065 C 0.16604 0.29801 0.85645 0.0
C4066 C 0.13895 0.27189 0.87467 0.0
C4067 C 0.12448 0.28769 0.87601 0.0
C4068 C 0.13069 0.30831 0.86654 0.0
C4069 C 0.15134 0.31324 0.8571 0.0
C4070 C 0.13336 0.24986 0.88479 0.0
C4071 C 0.11587 0.3256 0.86717 0.0
H4072 H 0.04638 0.26333 0.87817 0.0
H4073 H 0.08679 0.29604 0.94336 0.0
H4074 H 0.08638 0.27794 0.83969 0.0
H4075 H 0.08994 0.25099 0.8474 0.0
H4076 H 0.06194 0.25687 0.84256 0.0
H4077 H 0.12626 0.30573 0.94706 0.0
H4078 H 0.14033 0.29226 0.92499 0.0
H4079 H 0.1337 0.31924 0.9215 0.0
H4080 H 0.17089 0.2655 0.86478 0.0
H4081 H 0.15638 0.32944 0.85083 0.0
H4082 H 0.11591 0.24092 0.87772 0.0
H4083 H 0.13415 0.25327 0.90446 0.0
H4084 H 0.1452 0.23858 0.88062 0.0
H4085 H 0.09864 0.31785 0.85816 0.0
H4086 H 0.12262 0.34045 0.85838 0.0
H4087 H 0.11428 0.33154 0.88593 0.0
C4088 C 0.53165 0.74615 0.89425 0.0
C4089 C 0.55083 0.76363 0.89909 0.0
C4090 C 0.5301 0.72658 0.90581 0.0
C4091 C 0.54842 0.72391 0.92221 0.0
C4092 C 0.56823 0.74111 0.92636 0.0
C4093 C 0.56904 0.76087 0.91513 0.0
C4094 C 0.50858 0.70888 0.90077 0.0
C4095 C 0.58873 0.73846 0.94238 0.0
C4096 C 0.53238 0.68435 0.96858 0.0
C4097 C 0.53528 0.66354 0.95756 0.0
C4098 C 0.53774 0.7043 0.9579 0.0
C4099 C 0.54627 0.70357 0.93558 0.0
C4100 C 0.55067 0.68279 0.92523 0.0
C4101 C 0.54485 0.66305 0.93615 0.0
C4102 C 0.53284 0.72593 0.96977 0.0
C4103 C 0.56019 0.68092 0.90183 0.0
H4104 H 0.51753 0.74805 0.88183 0.0
H4105 H 0.58414 0.77405 0.9186 0.0
H4106 H 0.51229 0.6924 0.89388 0.0
H4107 H 0.50111 0.70666 0.91756 0.0
H4108 H 0.49589 0.71335 0.88756 0.0
H4109 H 0.60275 0.7534 0.94408 0.0
H4110 H 0.58431 0.7357 0.96041 0.0
H4111 H 0.59479 0.72335 0.93509 0.0
H4112 H 0.52462 0.68477 0.98489 0.0
H4113 H 0.54677 0.64696 0.92731 0.0
H4114 H 0.51917 0.7311 0.95846 0.0
H4115 H 0.54798 0.7397 0.97162 0.0
H4116 H 0.52758 0.72414 0.9877 0.0
H4117 H 0.54623 0.67829 0.88695 0.0
H4118 H 0.56874 0.66633 0.89991 0.0
H4119 H 0.57239 0.69649 0.90002 0.0
C4120 C 0.11723 0.78692 0.71509 0.0
C4121 C 0.10174 0.77274 0.72658 0.0
C4122 C 0.14116 0.78987 0.72075 0.0
C4123 C 0.15081 0.77832 0.73845 0.0
C4124 C 0.1353 0.76411 0.75033 0.0
C4125 C 0.11132 0.76154 0.74438 0.0
C4126 C 0.15622 0.80525 0.70732 0.0
C4127 C 0.14408 0.75165 0.76965 0.0
C4128 C 0.21297 0.76906 0.73776 0.0
C4129 C 0.22611 0.78733 0.75371 0.0
C4130 C 0.18895 0.7661 0.73259 0.0
C4131 C 0.17687 0.78109 0.74427 0.0
C4132 C 0.19008 0.79916 0.76098 0.0
C4133 C 0.21418 0.80231 0.76498 0.0
C4134 C 0.17649 0.74702 0.71405 0.0
C4135 C 0.17883 0.81547 0.77475 0.0
H4136 H 0.1106 0.79581 0.70131 0.0
H4137 H 0.10004 0.75049 0.75358 0.0
H4138 H 0.16822 0.81829 0.71998 0.0
H4139 H 0.16638 0.79533 0.69701 0.0
H4140 H 0.14649 0.81383 0.69482 0.0
H4141 H 0.13029 0.74037 0.77647 0.0
H4142 H 0.15589 0.74139 0.76287 0.0
H4143 H 0.15371 0.764 0.7847 0.0
H4144 H 0.2216 0.7573 0.72867 0.0
H4145 H 0.22372 0.81643 0.77748 0.0
H4146 H 0.16754 0.75392 0.69938 0.0
H4147 H 0.16353 0.73579 0.72199 0.0
H4148 H 0.18796 0.7368 0.70639 0.0
H4149 H 0.17369 0.8275 0.76293 0.0
H4150 H 0.1903 0.82531 0.7904 0.0
H4151 H 0.16339 0.80643 0.78106 0.0
C4152 C 0.04188 0.38821 0.42784 0.0
C4153 C 0.05451 0.38888 0.40841 0.0
C4154 C 0.03867 0.40813 0.44135 0.0
C4155 C 0.04873 0.42978 0.436 0.0
C4156 C 0.06179 0.43058 0.41661 0.0
C4157 C 0.06425 0.41033 0.40298 0.0
C4158 C 0.02406 0.40594 0.46117 0.0
C4159 C 0.07344 0.45295 0.41038 0.0
C4160 C 0.02423 0.48192 0.45742 0.0
C4161 C 0.0389 0.49183 0.4782 0.0
C4162 C 0.02733 0.46212 0.44354 0.0
C4163 C 0.04546 0.45141 0.45051 0.0
C4164 C 0.06014 0.46129 0.47173 0.0
C4165 C 0.05669 0.48115 0.48516 0.0
C4166 C 0.01089 0.45243 0.42149 0.0
C4167 C 0.07946 0.4507 0.4805 0.0
H4168 H 0.03397 0.37191 0.43224 0.0
H4169 H 0.0741 0.41132 0.38818 0.0
H4170 H 0.0335 0.4153 0.47816 0.0
H4171 H 1.00913 0.41356 0.45701 0.0
H4172 H 0.01808 0.38807 0.46383 0.0
H4173 H 0.08227 0.45102 0.39439 0.0
H4174 H 0.06102 0.46385 0.40707 0.0
H4175 H 0.08597 0.46182 0.42567 0.0
H4176 H 1.00991 0.48934 0.45222 0.0
H4177 H 0.06803 0.48841 0.50127 0.0
H4178 H 1.00205 0.43517 0.42351 0.0
H4179 H 0.02008 0.45098 0.40574 0.0
H4180 H 0.99809 0.46292 0.41795 0.0
H4181 H 0.07275 0.43393 0.48576 0.0
H4182 H 0.09042 0.46122 0.49611 0.0
H4183 H 0.08991 0.44799 0.46602 0.0
C4184 C 0.45851 0.27129 0.24683 0.0
C4185 C 0.46132 0.2622 0.22362 0.0
C4186 C 0.43682 0.27358 0.25361 0.0
C4187 C 0.41652 0.26622 0.23726 0.0
C4188 C 0.4193 0.25691 0.21387 0.0
C4189 C 0.44119 0.2553 0.20742 0.0
C4190 C 0.43565 0.28407 0.27855 0.0
C4191 C 0.39898 0.24885 0.19524 0.0
C4192 C 0.35667 0.25232 0.25975 0.0
C4193 C 0.34771 0.27197 0.2577 0.0
C4194 C 0.37866 0.25042 0.25366 0.0
C4195 C 0.39268 0.26827 0.24442 0.0
C4196 C 0.38345 0.28796 0.24181 0.0
C4197 C 0.3617 0.28963 0.24865 0.0
C4198 C 0.38701 0.22909 0.25732 0.0
C4199 C 0.3966 0.30754 0.2317 0.0
H4200 H 0.47346 0.27708 0.25976 0.0
H4201 H 0.4425 0.24839 0.18938 0.0
H4202 H 0.42691 0.29849 0.27793 0.0
H4203 H 0.42562 0.27151 0.28807 0.0
H4204 H 0.45264 0.29016 0.28893 0.0
H4205 H 0.40322 0.23991 0.17878 0.0
H4206 H 0.38563 0.23734 0.20238 0.0
H4207 H 0.39186 0.26353 0.19046 0.0
H4208 H 0.34657 0.23835 0.26659 0.0
H4209 H 0.35543 0.30488 0.24639 0.0
H4210 H 0.40317 0.23321 0.26944 0.0
H4211 H 0.3904 0.22094 0.24005 0.0
H4212 H 0.3747 0.21683 0.26499 0.0
H4213 H 0.41171 0.31568 0.24452 0.0
H4214 H 0.38641 0.32045 0.22806 0.0
H4215 H 0.40262 0.30154 0.21489 0.0
C4216 C 0.59085 0.55735 0.36598 0.0
C4217 C 0.61243 0.55346 0.36267 0.0
C4218 C 0.58248 0.55586 0.38825 0.0
C4219 C 0.59587 0.5502 0.40791 0.0
C4220 C 0.61758 0.54604 0.40453 0.0
C4221 C 0.62553 0.54775 0.38216 0.0
C4222 C 0.55929 0.5605 0.39075 0.0
C4223 C 0.63254 0.5398 0.42463 0.0
C4224 C 0.58222 0.56722 0.47116 0.0
C4225 C 0.57257 0.54646 0.47814 0.0
C4226 C 0.5906 0.56856 0.44896 0.0
C4227 C 0.58744 0.54893 0.43206 0.0
C4228 C 0.57659 0.52805 0.43855 0.0
C4229 C 0.57005 0.52697 0.46167 0.0
C4230 C 0.60312 0.59102 0.44376 0.0
C4231 C 0.57133 0.50689 0.42085 0.0
H4232 H 0.58055 0.56183 0.35119 0.0
H4233 H 0.64216 0.54452 0.37993 0.0
H4234 H 0.54898 0.54634 0.398 0.0
H4235 H 0.5607 0.57591 0.40357 0.0
H4236 H 0.55027 0.56296 0.37349 0.0
H4237 H 0.64961 0.53885 0.41986 0.0
H4238 H 0.63436 0.55231 0.44076 0.0
H4239 H 0.62469 0.52315 0.42939 0.0
H4240 H 0.58325 0.58255 0.48309 0.0
H4241 H 0.56242 0.51085 0.46665 0.0
H4242 H 0.59406 0.59633 0.42806 0.0
H4243 H 0.62014 0.58944 0.43931 0.0
H4244 H 0.60513 0.60446 0.45912 0.0
H4245 H 0.56068 0.5096 0.40474 0.0
H4246 H 0.5623 0.49212 0.42832 0.0
H4247 H 0.58712 0.50291 0.41502 0.0
C4248 C 0.2876 0.88177 0.06316 0.0
C4249 C 0.29278 0.90521 0.06348 0.0
C4250 C 0.29129 0.87209 0.08412 0.0
C4251 C 0.30057 0.88632 0.10556 0.0
C4252 C 0.30468 0.91005 0.10614 0.0
C4253 C 0.30051 0.91923 0.08506 0.0
C4254 C 0.28613 0.84672 0.08315 0.0
C4255 C 0.31509 0.92573 0.12862 0.0
C4256 C 0.30449 0.86765 0.16674 0.0
C4257 C 0.32711 0.86537 0.17 0.0
C4258 C 0.29504 0.87318 0.14515 0.0
C4259 C 0.30869 0.8767 0.12674 0.0
C4260 C 0.33119 0.87346 0.12959 0.0
C4261 C 0.34009 0.86768 0.1512 0.0
C4262 C 0.27088 0.87628 0.14241 0.0
C4263 C 0.3462 0.87701 0.1102 0.0
H4264 H 0.28144 0.87099 0.04642 0.0
H4265 H 0.30462 0.93739 0.08527 0.0
H4266 H 0.30135 0.84067 0.0901 0.0
H4267 H 0.27294 0.84171 0.0947 0.0
H4268 H 0.2801 0.83808 0.06475 0.0
H4269 H 0.31567 0.94375 0.1264 0.0
H4270 H 0.30548 0.92162 0.14364 0.0
H4271 H 0.33259 0.92349 0.13364 0.0
H4272 H 0.29441 0.86585 0.1813 0.0
H4273 H 0.35737 0.8653 0.15353 0.0
H4274 H 0.26169 0.8672 0.12517 0.0
H4275 H 0.27056 0.89444 0.14226 0.0
H4276 H 0.26174 0.87016 0.15712 0.0
H4277 H 0.33827 0.86597 0.09351 0.0
H4278 H 0.36319 0.87339 0.1152 0.0
H4279 H 0.3483 0.89473 0.10632 0.0
C4280 C 0.9484 0.54995 0.8911 0.0
C4281 C 0.93006 0.53251 0.88236 0.0
C4282 C 0.9605 0.54997 0.91327 0.0
C4283 C 0.95406 0.5319 0.92645 0.0
C4284 C 0.93498 0.51468 0.91812 0.0
C4285 C 0.92298 0.51528 0.89602 0.0
C4286 C 0.9808 0.56867 0.92199 0.0
C4287 C 0.92771 0.49544 0.9322 0.0
C4288 C 1.00192 0.51899 0.96583 0.0
C4289 C 1.00081 0.53239 0.98703 0.0
C4290 C 0.9864 0.51835 0.94583 0.0
C4291 C 0.96864 0.53015 0.94789 0.0
C4292 C 0.96656 0.54245 0.96968 0.0
C4293 C 0.98356 0.54457 0.98862 0.0
C4294 C 0.98965 0.50605 0.92232 0.0
C4295 C 0.94702 0.55411 0.97275 0.0
H4296 H 0.95346 0.56336 0.88046 0.0
H4297 H 0.90863 0.50185 0.88904 0.0
H4298 H 0.97937 0.5767 0.94005 0.0
H4299 H 0.99633 0.56156 0.92333 0.0
H4300 H 0.98276 0.58196 0.90995 0.0
H4301 H 0.91254 0.48328 0.92292 0.0
H4302 H 0.94157 0.48618 0.93544 0.0
H4303 H 0.92396 0.5022 0.94991 0.0
H4304 H 0.01542 0.50971 0.96456 0.0
H4305 H 0.98322 0.55574 0.00461 0.0
H4306 H 0.99204 0.51809 0.909 0.0
H4307 H 0.97442 0.49295 0.91528 0.0
H4308 H 1.0045 0.49786 0.92391 0.0
H4309 H 0.94981 0.57014 0.96482 0.0
H4310 H 0.94518 0.5581 0.99189 0.0
H4311 H 0.93096 0.54345 0.96351 0.0
C4312 C 0.25877 0.21703 0.60476 0.0
C4313 C 0.27761 0.22057 0.59226 0.0
C4314 C 0.26068 0.22366 0.62967 0.0
C4315 C 0.28184 0.23471 0.64261 0.0
C4316 C 0.30092 0.23835 0.63004 0.0
C4317 C 0.29863 0.23104 0.60524 0.0
C4318 C 0.24001 0.21858 0.64223 0.0
C4319 C 0.32386 0.24992 0.64282 0.0
C4320 C 0.28157 0.27197 0.70172 0.0
C4321 C 0.28792 0.2587 0.71903 0.0
C4322 C 0.27968 0.26445 0.67704 0.0
C4323 C 0.28392 0.24288 0.66908 0.0
C4324 C 0.29021 0.22932 0.68652 0.0
C4325 C 0.29223 0.2374 0.7111 0.0
C4326 C 0.27348 0.27983 0.6594 0.0
C4327 C 0.2943 0.20599 0.6793 0.0
H4328 H 0.24253 0.20857 0.59514 0.0
H4329 H 0.3134 0.23363 0.59597 0.0
H4330 H 0.24351 0.20915 0.65742 0.0
H4331 H 0.23564 0.23457 0.64969 0.0
H4332 H 0.22517 0.20851 0.63013 0.0
H4333 H 0.33664 0.25312 0.63035 0.0
H4334 H 0.32283 0.26624 0.65295 0.0
H4335 H 0.32977 0.2393 0.65589 0.0
H4336 H 0.27843 0.28853 0.70744 0.0
H4337 H 0.29695 0.22681 0.72417 0.0
H4338 H 0.25767 0.27153 0.64774 0.0
H4339 H 0.28693 0.28318 0.64773 0.0
H4340 H 0.27106 0.2962 0.6683 0.0
H4341 H 0.278 0.1946 0.67191 0.0
H4342 H 0.30198 0.19884 0.69461 0.0
H4343 H 0.3055 0.20616 0.66513 0.0
C4344 C 0.606 0.57134 0.21406 0.0
C4345 C 0.61004 0.55221 0.22431 0.0
C4346 C 0.59862 0.57019 0.18943 0.0
C4347 C 0.59483 0.54933 0.17437 0.0
C4348 C 0.59896 0.52992 0.18458 0.0
C4349 C 0.60658 0.53161 0.20926 0.0
C4350 C 0.59499 0.59144 0.17945 0.0
C4351 C 0.5956 0.50735 0.16939 0.0
C4352 C 0.55522 0.54423 0.11565 0.0
C4353 C 0.57035 0.54648 0.09867 0.0
C4354 C 0.56291 0.54445 0.14008 0.0
C4355 C 0.5864 0.54792 0.14808 0.0
C4356 C 0.60175 0.55057 0.13094 0.0
C4357 C 0.59355 0.54951 0.10655 0.0
C4358 C 0.5458 0.5405 0.15732 0.0
C4359 C 0.62692 0.55501 0.13835 0.0
H4360 H 0.60886 0.58741 0.2253 0.0
H4361 H 0.60994 0.51674 0.21676 0.0
H4362 H 0.60501 0.59425 0.16443 0.0
H4363 H 0.57697 0.58962 0.17226 0.0
H4364 H 0.59983 0.60657 0.1931 0.0
H4365 H 0.59674 0.49341 0.18031 0.0
H4366 H 0.57894 0.50351 0.15816 0.0
H4367 H 0.60871 0.50788 0.15719 0.0
H4368 H 0.53727 0.54155 0.1097 0.0
H4369 H 0.60541 0.55137 0.09359 0.0
H4370 H 0.54824 0.55547 0.17098 0.0
H4371 H 0.54831 0.52594 0.1668 0.0
H4372 H 0.52817 0.53706 0.14827 0.0
H4373 H 0.63245 0.57208 0.14864 0.0
H4374 H 0.63647 0.55415 0.12278 0.0
H4375 H 0.63141 0.54272 0.15016 0.0
C4376 C 0.31505 0.87801 0.93961 0.0
C4377 C 0.30041 0.89314 0.94083 0.0
C4378 C 0.31495 0.86427 0.91837 0.0
C4379 C 0.30001 0.86612 0.89825 0.0
C4380 C 0.28561 0.88177 0.89923 0.0
C4381 C 0.28588 0.89507 0.92071 0.0
C4382 C 0.33079 0.8479 0.91745 0.0
C4383 C 0.27005 0.88453 0.87763 0.0
C4384 C 0.31353 0.84635 0.83822 0.0
C4385 C 0.29616 0.82738 0.83116 0.0
C4386 C 0.31473 0.85951 0.85991 0.0
C4387 C 0.29961 0.85202 0.87584 0.0
C4388 C 0.28325 0.8318 0.86982 0.0
C4389 C 0.28119 0.82001 0.84704 0.0
C4390 C 0.33166 0.88164 0.8653 0.0
C4391 C 0.26778 0.82293 0.88724 0.0
H4392 H 0.32649 0.87687 0.95521 0.0
H4393 H 0.27472 0.907 0.92169 0.0
H4394 H 0.32148 0.83083 0.9094 0.0
H4395 H 0.34394 0.85341 0.90604 0.0
H4396 H 0.33933 0.84674 0.93541 0.0
H4397 H 0.26125 0.89875 0.8811 0.0
H4398 H 0.27972 0.88752 0.86238 0.0
H4399 H 0.25713 0.86882 0.87214 0.0
H4400 H 0.32625 0.85111 0.82682 0.0
H4401 H 0.26792 0.80517 0.84167 0.0
H4402 H 0.3449 0.88058 0.87987 0.0
H4403 H 0.32328 0.89554 0.87137 0.0
H4404 H 0.34 0.88616 0.8495 0.0
H4405 H 0.27786 0.82185 0.90439 0.0
H4406 H 0.25733 0.80598 0.88037 0.0
H4407 H 0.25638 0.83474 0.89106 0.0
C4408 C 0.93966 0.51819 0.74617 0.0
C4409 C 0.92152 0.52859 0.74991 0.0
C4410 C 0.94662 0.51571 0.72363 0.0
C4411 C 0.93547 0.52442 0.70465 0.0
C4412 C 0.91744 0.53544 0.70846 0.0
C4413 C 0.91042 0.53713 0.73113 0.0
C4414 C 0.9658 0.50359 0.72014 0.0
C4415 C 0.90548 0.54517 0.68864 0.0
C4416 C 0.9735 0.52924 0.65717 0.0
C4417 C 0.96595 0.50793 0.64392 0.0
C4418 C 0.96197 0.53619 0.67572 0.0
C4419 C 0.94275 0.5213 0.68085 0.0
C4420 C 0.93376 0.50088 0.66568 0.0
C4421 C 0.94569 0.49434 0.64737 0.0
C4422 C 0.97162 0.55836 0.69124 0.0
C4423 C 0.91315 0.48464 0.67031 0.0
H4424 H 0.94804 0.51142 0.76073 0.0
H4425 H 0.89634 0.54518 0.73419 0.0
H4426 H 0.96067 0.48973 0.7051 0.0
H4427 H 0.98045 0.51552 0.71562 0.0
H4428 H 0.97138 0.49632 0.73633 0.0
H4429 H 0.89312 0.55492 0.69514 0.0
H4430 H 0.91791 0.55638 0.68004 0.0
H4431 H 0.89639 0.53136 0.67471 0.0
H4432 H 0.98911 0.53978 0.654 0.0
H4433 H 0.93987 0.47803 0.63661 0.0
H4434 H 0.98104 0.55514 0.70791 0.0
H4435 H 0.95796 0.56697 0.69634 0.0
H4436 H 0.98339 0.56985 0.68216 0.0
H4437 H 0.91838 0.47369 0.68339 0.0
H4438 H 0.90479 0.47361 0.65371 0.0
H4439 H 0.90069 0.49356 0.67785 0.0
C4440 C 0.25746 0.20992 0.43463 0.0
C4441 C 0.27493 0.21739 0.45366 0.0
C4442 C 0.25891 0.21743 0.41201 0.0
C4443 C 0.2788 0.23205 0.4077 0.0
C4444 C 0.29666 0.23934 0.4268 0.0
C4445 C 0.29435 0.23231 0.44955 0.0
C4446 C 0.23904 0.20978 0.39272 0.0
C4447 C 0.31834 0.25455 0.42317 0.0
C4448 C 0.29015 0.23543 0.34244 0.0
C4449 C 0.28404 0.25588 0.3379 0.0
C4450 C 0.28861 0.22752 0.36492 0.0
C4451 C 0.28064 0.2402 0.38352 0.0
C4452 C 0.27428 0.26074 0.37892 0.0
C4453 C 0.27596 0.26821 0.35637 0.0
C4454 C 0.29562 0.20555 0.36879 0.0
C4455 C 0.26521 0.27474 0.39771 0.0
H4456 H 0.24238 0.19839 0.43755 0.0
H4457 H 0.30808 0.23797 0.46397 0.0
H4458 H 0.23415 0.22457 0.38528 0.0
H4459 H 0.24378 0.19902 0.37787 0.0
H4460 H 0.22414 0.20004 0.39939 0.0
H4461 H 0.33144 0.25695 0.43891 0.0
H4462 H 0.3251 0.24743 0.40731 0.0
H4463 H 0.31502 0.27131 0.41973 0.0
H4464 H 0.29624 0.22561 0.32843 0.0
H4465 H 0.27071 0.28381 0.35318 0.0
H4466 H 0.28097 0.19322 0.37265 0.0
H4467 H 0.30876 0.20825 0.3845 0.0
H4468 H 0.3023 0.1981 0.35303 0.0
H4469 H 0.24884 0.26518 0.40155 0.0
H4470 H 0.26258 0.29109 0.39208 0.0
H4471 H 0.27692 0.27821 0.41461 0.0
C4472 C 0.33194 0.5945 0.54348 0.0
C4473 C 0.32705 0.60371 0.56538 0.0
C4474 C 0.35406 0.59378 0.54005 0.0
C4475 C 0.37144 0.60178 0.55935 0.0
C4476 C 0.36652 0.61005 0.58189 0.0
C4477 C 0.34419 0.611 0.58466 0.0
C4478 C 0.35878 0.58485 0.51563 0.0
C4479 C 0.38482 0.61849 0.6027 0.0
C4480 C 0.41758 0.57351 0.54453 0.0
C4481 C 0.42951 0.58943 0.53189 0.0
C4482 C 0.40027 0.57866 0.55684 0.0
C4483 C 0.39446 0.5999 0.55574 0.0
C4484 C 0.40791 0.61686 0.54532 0.0
C4485 C 0.42549 0.61138 0.53346 0.0
C4486 C 0.38629 0.56033 0.56814 0.0
C4487 C 0.4021 0.63976 0.54392 0.0
H4488 H 0.31866 0.58912 0.52854 0.0
H4489 H 0.34032 0.61839 0.60155 0.0
H4490 H 0.37208 0.59711 0.50931 0.0
H4491 H 0.36501 0.56892 0.5166 0.0
H4492 H 0.34353 0.5814 0.50213 0.0
H4493 H 0.37792 0.62357 0.61931 0.0
H4494 H 0.39461 0.60523 0.60602 0.0
H4495 H 0.3968 0.63324 0.59848 0.0
H4496 H 0.42043 0.5564 0.54328 0.0
H4497 H 0.43513 0.6238 0.52419 0.0
H4498 H 0.3705 0.55289 0.55601 0.0
H4499 H 0.38144 0.56731 0.58521 0.0
H4500 H 0.39544 0.54658 0.57154 0.0
H4501 H 0.38948 0.63871 0.52802 0.0
H4502 H 0.41722 0.65258 0.54202 0.0
H4503 H 0.39465 0.6455 0.55986 0.0
C4504 C 0.87729 0.9589 0.54137 0.0
C4505 C 0.87622 0.93746 0.54878 0.0
C4506 C 0.89807 0.97288 0.53928 0.0
C4507 C 0.91848 0.9654 0.54478 0.0
C4508 C 0.91756 0.9438 0.55243 0.0
C4509 C 0.89647 0.93013 0.55434 0.0
C4510 C 0.89816 0.99562 0.53088 0.0
C4511 C 0.93882 0.93507 0.55853 0.0
C4512 C 0.96923 0.99403 0.51706 0.0
C4513 C 0.98208 0.00845 0.53658 0.0
C4514 C 0.949 0.97938 0.51968 0.0
C4515 C 0.94065 0.98011 0.54207 0.0
C4516 C 0.95316 0.99545 0.56158 0.0
C4517 C 0.97394 0.00908 0.55871 0.0
C4518 C 0.93692 0.96264 0.49866 0.0
C4519 C 0.94463 0.99745 0.58552 0.0
H4520 H 0.86177 0.96471 0.53685 0.0
H4521 H 0.89586 0.91362 0.56009 0.0
H4522 H 0.9094 0.00909 0.54378 0.0
H4523 H 0.90494 0.996 0.51353 0.0
H4524 H 0.88102 0.99957 0.52863 0.0
H4525 H 0.93518 0.91721 0.56206 0.0
H4526 H 0.94937 0.93642 0.54377 0.0
H4527 H 0.94893 0.94551 0.57463 0.0
H4528 H 0.9755 0.99356 0.49991 0.0
H4529 H 0.98402 0.02005 0.57388 0.0
H4530 H 0.91982 0.96588 0.49363 0.0
H4531 H 0.93476 0.94525 0.50359 0.0
H4532 H 0.94621 0.9634 0.48287 0.0
H4533 H 0.92834 1.00319 0.58367 0.0
H4534 H 0.95671 0.00957 0.59911 0.0
H4535 H 0.94143 0.98075 0.59207 0.0
C4536 C 0.89884 0.08559 0.29238 0.0
C4537 C 0.90484 0.07571 0.27126 0.0
C4538 C 0.8896 0.10512 0.29283 0.0
C4539 C 0.88702 0.11558 0.27183 0.0
C4540 C 0.89388 0.10612 0.25062 0.0
C4541 C 0.90231 0.08606 0.25048 0.0
C4542 C 0.88211 0.11428 0.31574 0.0
C4543 C 0.89272 0.11743 0.22827 0.0
C4544 C 0.84129 0.15031 0.27204 0.0
C4545 C 0.85351 0.17145 0.28277 0.0
C4546 C 0.85221 0.13233 0.26669 0.0
C4547 C 0.87599 0.13563 0.27211 0.0
C4548 C 0.88859 0.15758 0.28093 0.0
C4549 C 0.87715 0.17519 0.28649 0.0
C4550 C 0.83805 0.10933 0.25726 0.0
C4551 C 0.91399 0.16215 0.28621 0.0
H4552 H 0.90091 0.07771 0.30849 0.0
H4553 H 0.90745 0.07874 0.23423 0.0
H4554 H 0.89116 0.13195 0.32142 0.0
H4555 H 0.8638 0.1144 0.3128 0.0
H4556 H 0.88523 0.10417 0.33046 0.0
H4557 H 0.89808 0.10762 0.21305 0.0
H4558 H 0.87532 0.11982 0.22307 0.0
H4559 H 0.90383 0.13445 0.23173 0.0
H4560 H 0.823 0.1474 0.26947 0.0
H4561 H 0.88661 0.1915 0.29506 0.0
H4562 H 0.83869 0.09801 0.2713 0.0
H4563 H 0.84483 0.10168 0.24172 0.0
H4564 H 0.82013 0.11001 0.2518 0.0
H4565 H 0.91888 0.15675 0.30372 0.0
H4566 H 0.92142 0.18041 0.28705 0.0
H4567 H 0.92142 0.15252 0.27252 0.0
C4568 C 0.69856 0.08706 0.03278 0.0
C4569 C 0.70739 0.10222 0.05328 0.0
C4570 C 0.67537 0.08123 0.02598 0.0
C4571 C 0.66105 0.09081 0.04019 0.0
C4572 C 0.66984 0.10659 0.06055 0.0
C4573 C 0.69309 0.11201 0.06701 0.0
C4574 C 0.66614 0.06431 0.00411 0.0
C4575 C 0.65475 0.11692 0.07607 0.0
C4576 C 0.59961 0.08193 0.0171 0.0
C4577 C 0.59134 0.06218 0.02655 0.0
C4578 C 0.62257 0.0915 0.02103 0.0
C4579 C 0.63696 0.08158 0.03584 0.0
C4580 C 0.62859 0.06215 0.0462 0.0
C4581 C 0.60595 0.05223 0.04077 0.0
C4582 C 0.63137 0.11214 0.00956 0.0
C4583 C 0.64348 0.05184 0.06306 0.0
H4584 H 0.70976 0.07987 0.02199 0.0
H4585 H 0.70003 0.12413 0.08264 0.0
H4586 H 0.65682 0.04853 0.00952 0.0
H4587 H 0.65401 0.07097 0.99221 0.0
H4588 H 0.67967 0.06007 0.99387 0.0
H4589 H 0.6643 0.13181 0.08848 0.0
H4590 H 0.64096 0.12218 0.06506 0.0
H4591 H 0.64678 0.10417 0.08682 0.0
H4592 H 0.58822 0.09002 0.00689 0.0
H4593 H 0.59966 0.03711 0.04847 0.0
H4594 H 0.64483 0.10883 0.99875 0.0
H4595 H 0.63902 0.12649 0.02351 0.0
H4596 H 0.61787 0.11721 0.99785 0.0
H4597 H 0.65644 0.04547 0.05346 0.0
H4598 H 0.63375 0.03767 0.07086 0.0
H4599 H 0.65248 0.0648 0.0779 0.0
C4600 C 0.24006 0.49953 0.25037 0.0
C4601 C 0.21761 0.50045 0.24353 0.0
C4602 C 0.24559 0.47932 0.25591 0.0
C4603 C 0.22815 0.45989 0.25397 0.0
C4604 C 0.20597 0.4602 0.24412 0.0
C4605 C 0.2009 0.48069 0.23904 0.0
C4606 C 0.2696 0.47934 0.26604 0.0
C4607 C 0.18719 0.4396 0.24134 0.0
C4608 C 0.2536 0.41121 0.26853 0.0
C4609 C 0.25329 0.41328 0.29334 0.0
C4610 C 0.24289 0.42465 0.25465 0.0
C4611 C 0.23255 0.44088 0.26613 0.0
C4612 C 0.23028 0.44153 0.2907 0.0
C4613 C 0.24043 0.42733 0.30398 0.0
C4614 C 0.24443 0.42291 0.22819 0.0
C4615 C 0.21944 0.45887 0.30359 0.0
H4616 H 0.25288 0.51491 0.25354 0.0
H4617 H 0.18353 0.48153 0.23326 0.0
H4618 H 0.27007 0.47448 0.28433 0.0
H4619 H 0.2764 0.46676 0.25493 0.0
H4620 H 0.2809 0.49611 0.26684 0.0
H4621 H 0.17252 0.44132 0.22874 0.0
H4622 H 0.19316 0.42416 0.23495 0.0
H4623 H 0.1813 0.43729 0.2589 0.0
H4624 H 0.2634 0.40023 0.26009 0.0
H4625 H 0.23949 0.42825 0.32298 0.0
H4626 H 0.25812 0.43651 0.22465 0.0
H4627 H 0.22848 0.42508 0.21813 0.0
H4628 H 0.24819 0.40644 0.22125 0.0
H4629 H 0.23073 0.47573 0.30524 0.0
H4630 H 0.21642 0.45504 0.3218 0.0
H4631 H 0.20315 0.45992 0.29349 0.0
C4632 C 0.25864 0.45007 0.0539 0.0
C4633 C 0.25648 0.42677 0.04751 0.0
C4634 C 0.23972 0.4603 0.05155 0.0
C4635 C 0.21815 0.44689 0.04274 0.0
C4636 C 0.21583 0.42327 0.03695 0.0
C4637 C 0.23499 0.41355 0.03932 0.0
C4638 C 0.24284 0.4855 0.05801 0.0
C4639 C 0.19317 0.4083 0.02753 0.0
C4640 C 0.16339 0.46721 0.04982 0.0
C4641 C 0.15723 0.47176 0.02669 0.0
C4642 C 0.18365 0.45988 0.05568 0.0
C4643 C 0.19816 0.45747 0.03803 0.0
C4644 C 0.19247 0.4633 0.015 0.0
C4645 C 0.17196 0.47018 0.00956 0.0
C4646 C 0.18885 0.45347 0.08028 0.0
C4647 C 0.20761 0.46138 0.9958 0.0
H4648 H 0.27518 0.46039 0.06031 0.0
H4649 H 0.23313 0.39553 0.03441 0.0
H4650 H 0.23704 0.49326 0.04229 0.0
H4651 H 0.23235 0.48925 0.07216 0.0
H4652 H 0.26071 0.49361 0.06442 0.0
H4653 H 0.19381 0.39008 0.02621 0.0
H4654 H 0.18033 0.41155 0.03921 0.0
H4655 H 0.18743 0.41217 0.00953 0.0
H4656 H 0.15182 0.46832 0.06296 0.0
H4657 H 0.16713 0.47381 0.99169 0.0
H4658 H 0.20638 0.46152 0.08805 0.0
H4659 H 0.18755 0.43493 0.07903 0.0
H4660 H 0.17708 0.45838 0.09258 0.0
H4661 H 0.2249 0.47112 1.00232 0.0
H4662 H 0.2013 0.46765 0.97923 0.0
H4663 H 0.20886 0.4435 0.99136 0.0
C4664 C 0.87151 0.9542 0.27852 0.0
C4665 C 0.89156 0.95601 0.26804 0.0
C4666 C 0.858 0.93296 0.28018 0.0
C4667 C 0.86469 0.91286 0.27135 0.0
C4668 C 0.88489 0.9146 0.26067 0.0
C4669 C 0.89795 0.93605 0.25903 0.0
C4670 C 0.83665 0.93202 0.2917 0.0
C4671 C 0.89294 0.89376 0.25124 0.0
C4672 C 0.841 0.85939 0.29788 0.0
C4673 C 0.82518 0.84707 0.27914 0.0
C4674 C 0.85446 0.88031 0.29528 0.0
C4675 C 0.85093 0.89009 0.27397 0.0
C4676 C 0.83402 0.87819 0.25544 0.0
C4677 C 0.82165 0.85667 0.25808 0.0
C4678 C 0.8728 0.89171 0.31518 0.0
C4679 C 0.82889 0.88825 0.23285 0.0
H4680 H 0.86643 0.96943 0.28568 0.0
H4681 H 0.91342 0.93717 0.25096 0.0
H4682 H 0.82217 0.92105 0.27986 0.0
H4683 H 0.83844 0.92451 0.30857 0.0
H4684 H 0.83269 0.949 0.29578 0.0
H4685 H 0.90982 0.8979 0.24513 0.0
H4686 H 0.89381 0.88243 0.26523 0.0
H4687 H 0.88076 0.88425 0.23601 0.0
H4688 H 0.843 0.85258 0.31462 0.0
H4689 H 0.80922 0.84731 0.24366 0.0
H4690 H 0.86933 0.90815 0.32253 0.0
H4691 H 0.88929 0.89521 0.30818 0.0
H4692 H 0.8743 0.88126 0.32994 0.0
H4693 H 0.82322 0.90432 0.23727 0.0
H4694 H 0.81557 0.87675 0.21998 0.0
H4695 H 0.84435 0.89228 0.22412 0.0
C4696 C 0.73191 0.13699 0.74956 0.0
C4697 C 0.72182 0.12495 0.76648 0.0
C4698 C 0.73804 0.16044 0.754 0.0
C4699 C 0.73452 0.17138 0.7761 0.0
C4700 C 0.72408 0.15924 0.79304 0.0
C4701 C 0.71763 0.136 0.78788 0.0
C4702 C 0.74848 0.17347 0.73536 0.0
C4703 C 0.72012 0.17073 0.8167 0.0
C4704 C 0.77573 0.22535 0.79624 0.0
C4705 C 0.76251 0.24079 0.79034 0.0
C4706 C 0.76634 0.20245 0.79265 0.0
C4707 C 0.74356 0.19534 0.78239 0.0
C4708 C 0.72986 0.211 0.77743 0.0
C4709 C 0.73956 0.23383 0.78177 0.0
C4710 C 0.78101 0.18586 0.79879 0.0
C4711 C 0.70561 0.20379 0.76595 0.0
H4712 H 0.73447 0.12816 0.73279 0.0
H4713 H 0.70953 0.12639 0.80074 0.0
H4714 H 0.73982 0.18757 0.73208 0.0
H4715 H 0.76645 0.181 0.74187 0.0
H4716 H 0.74764 0.16261 0.71817 0.0
H4717 H 0.71187 0.15857 0.82792 0.0
H4718 H 0.73642 0.1801 0.82674 0.0
H4719 H 0.70932 0.18323 0.81368 0.0
H4720 H 0.79349 0.23119 0.80292 0.0
H4721 H 0.72959 0.24608 0.77693 0.0
H4722 H 0.78366 0.17591 0.7822 0.0
H4723 H 0.77253 0.17382 0.80996 0.0
H4724 H 0.79777 0.1944 0.80851 0.0
H4725 H 0.70532 0.19845 0.74662 0.0
H4726 H 0.69627 0.21778 0.76791 0.0
H4727 H 0.69655 0.18922 0.77364 0.0
loop_
_geom_bond_atom_site_label_1
_geom_bond_atom_site_label_2
_geom_bond_distance
_geom_bond_site_symmetry_2
_ccdc_geom_bond_type
In0 O1 2.294 . S
In0 O2 2.326 . S
In0 O6 2.266 . S
In0 O7 2.326 . S
In0 O8 2.266 . S
In0 O9 2.326 . S
In0 O11 2.294 . S
In0 O12 2.326 . S
O1 In0 2.294 . S
O1 C10 1.240 . S
O2 In0 2.326 . S
O2 C10 1.252 . S
C3 O6 1.252 1_655 S
C3 O7 1.260 1_655 S
C4 O11 1.240 . S
C4 O12 1.252 . S
C5 O8 1.252 . S
C5 O9 1.260 . S
O6 In0 2.266 . S
O6 C3 1.252 1_455 S
O7 In0 2.326 . S
O7 C3 1.260 1_455 S
O8 In0 2.266 . S
O8 C5 1.252 . S
O9 In0 2.326 . S
O9 C5 1.260 . S
C10 O1 1.240 . S
C10 O2 1.252 . S
O11 In0 2.294 . S
O11 C4 1.240 . S
O12 In0 2.326 . S
O12 C4 1.252 . S
In13 O14 2.294 . S
In13 O15 2.326 . S
In13 O19 2.266 . S
In13 O20 2.326 . S
In13 O21 2.266 1_455 S
In13 O22 2.326 1_455 S
In13 O24 2.294 . S
In13 O25 2.326 . S
O14 In13 2.294 . S
O14 C23 1.240 . S
O15 In13 2.326 . S
O15 C23 1.252 . S
C16 O19 1.252 . S
C16 O20 1.260 . S
C17 O24 1.240 . S
C17 O25 1.252 . S
C18 O21 1.252 . S
C18 O22 1.260 . S
O19 In13 2.266 . S
O19 C16 1.252 . S
O20 In13 2.326 . S
O20 C16 1.260 . S
O21 In13 2.266 1_655 S
O21 C18 1.252 . S
O22 In13 2.326 1_655 S
O22 C18 1.260 . S
C23 O14 1.240 . S
C23 O15 1.252 . S
O24 In13 2.294 . S
O24 C17 1.240 . S
O25 In13 2.326 . S
O25 C17 1.252 . S
In26 O27 2.294 . S
In26 O28 2.326 . S
In26 O32 2.266 . S
In26 O33 2.326 . S
In26 O34 2.266 . S
In26 O35 2.326 . S
In26 O37 2.294 . S
In26 O38 2.326 . S
O27 In26 2.294 . S
O27 C36 1.240 . S
O28 In26 2.326 . S
O28 C36 1.252 . S
C29 O32 1.252 . S
C29 O33 1.260 . S
C30 O37 1.240 . S
C30 O38 1.252 . S
C31 O34 1.252 . S
C31 O35 1.260 . S
O32 In26 2.266 . S
O32 C29 1.252 . S
O33 In26 2.326 . S
O33 C29 1.260 . S
O34 In26 2.266 . S
O34 C31 1.252 . S
O35 In26 2.326 . S
O35 C31 1.260 . S
C36 O27 1.240 . S
C36 O28 1.252 . S
O37 In26 2.294 . S
O37 C30 1.240 . S
O38 In26 2.326 . S
O38 C30 1.252 . S
In39 O40 2.294 . S
In39 O41 2.326 . S
In39 O45 2.266 . S
In39 O46 2.326 . S
In39 O47 2.266 . S
In39 O48 2.326 . S
In39 O50 2.294 . S
In39 O51 2.326 . S
O40 In39 2.294 . S
O40 C49 1.240 . S
O41 In39 2.326 . S
O41 C49 1.252 . S
C42 O45 1.252 . S
C42 O46 1.260 . S
C43 O50 1.240 . S
C43 O51 1.252 . S
C44 O47 1.252 . S
C44 O48 1.260 . S
O45 In39 2.266 . S
O45 C42 1.252 . S
O46 In39 2.326 . S
O46 C42 1.260 . S
O47 In39 2.266 . S
O47 C44 1.252 . S
O48 In39 2.326 . S
O48 C44 1.260 . S
C49 O40 1.240 . S
C49 O41 1.252 . S
O50 In39 2.294 . S
O50 C43 1.240 . S
O51 In39 2.326 . S
O51 C43 1.252 . S
In52 O53 2.294 . S
In52 O54 2.326 . S
In52 O58 2.266 . S
In52 O59 2.326 . S
In52 O60 2.266 . S
In52 O61 2.326 . S
In52 O63 2.294 . S
In52 O64 2.326 . S
O53 In52 2.294 . S
O53 C62 1.240 . S
O54 In52 2.326 . S
O54 C62 1.252 . S
C55 O58 1.252 . S
C55 O59 1.260 . S
C56 O63 1.240 . S
C56 O64 1.252 . S
C57 O60 1.252 . S
C57 O61 1.260 . S
O58 In52 2.266 . S
O58 C55 1.252 . S
O59 In52 2.326 . S
O59 C55 1.260 . S
O60 In52 2.266 . S
O60 C57 1.252 . S
O61 In52 2.326 . S
O61 C57 1.260 . S
C62 O53 1.240 . S
C62 O54 1.252 . S
O63 In52 2.294 . S
O63 C56 1.240 . S
O64 In52 2.326 . S
O64 C56 1.252 . S
In65 O66 2.294 . S
In65 O67 2.326 . S
In65 O71 2.266 . S
In65 O72 2.326 . S
In65 O73 2.266 . S
In65 O74 2.326 . S
In65 O76 2.294 . S
In65 O77 2.326 . S
O66 In65 2.294 . S
O66 C75 1.240 . S
O67 In65 2.326 . S
O67 C75 1.252 . S
C68 O71 1.252 . S
C68 O72 1.260 . S
C69 O76 1.240 . S
C69 O77 1.252 . S
C70 O73 1.252 . S
C70 O74 1.260 . S
O71 In65 2.266 . S
O71 C68 1.252 . S
O72 In65 2.326 . S
O72 C68 1.260 . S
O73 In65 2.266 . S
O73 C70 1.252 . S
O74 In65 2.326 . S
O74 C70 1.260 . S
C75 O66 1.240 . S
C75 O67 1.252 . S
O76 In65 2.294 . S
O76 C69 1.240 . S
O77 In65 2.326 . S
O77 C69 1.252 . S
In78 O79 2.294 . S
In78 O80 2.326 . S
In78 O84 2.266 . S
In78 O85 2.326 . S
In78 O86 2.266 . S
In78 O87 2.326 . S
In78 O89 2.294 . S
In78 O90 2.326 . S
O79 In78 2.294 . S
O79 C88 1.240 . S
O80 In78 2.326 . S
O80 C88 1.252 . S
C81 O84 1.252 . S
C81 O85 1.260 . S
C82 O89 1.240 . S
C82 O90 1.252 . S
C83 O86 1.252 . S
C83 O87 1.260 . S
O84 In78 2.266 . S
O84 C81 1.252 . S
O85 In78 2.326 . S
O85 C81 1.260 . S
O86 In78 2.266 . S
O86 C83 1.252 . S
O87 In78 2.326 . S
O87 C83 1.260 . S
C88 O79 1.240 . S
C88 O80 1.252 . S
O89 In78 2.294 . S
O89 C82 1.240 . S
O90 In78 2.326 . S
O90 C82 1.252 . S
In91 O92 2.295 . S
In91 O93 2.334 1_455 S
In91 O97 2.270 . S
In91 O98 2.324 . S
In91 O99 2.260 1_455 S
In91 O100 2.316 1_455 S
In91 O102 2.300 . S
In91 O103 2.335 . S
O92 In91 2.295 . S
O92 C101 1.240 . S
O93 In91 2.334 1_655 S
O93 C101 1.251 1_655 S
C94 O97 1.251 . S
C94 O98 1.260 . S
C95 O102 1.240 . S
C95 O103 1.252 . S
C96 O99 1.252 . S
C96 O100 1.260 . S
O97 In91 2.270 . S
O97 C94 1.251 . S
O98 In91 2.324 . S
O98 C94 1.260 . S
O99 In91 2.260 1_655 S
O99 C96 1.252 . S
O100 In91 2.316 1_655 S
O100 C96 1.260 . S
C101 O92 1.240 . S
C101 O93 1.251 1_455 S
O102 In91 2.300 . S
O102 C95 1.240 . S
O103 In91 2.335 . S
O103 C95 1.252 . S
In104 O105 2.294 . S
In104 O106 2.326 . S
In104 O110 2.266 . S
In104 O111 2.326 . S
In104 O112 2.266 1_545 S
In104 O113 2.326 1_545 S
In104 O115 2.294 . S
In104 O116 2.326 . S
O105 In104 2.294 . S
O105 C114 1.240 . S
O106 In104 2.326 . S
O106 C114 1.252 . S
C107 O110 1.252 . S
C107 O111 1.260 . S
C108 O115 1.240 . S
C108 O116 1.252 . S
C109 O112 1.252 . S
C109 O113 1.260 . S
O110 In104 2.266 . S
O110 C107 1.252 . S
O111 In104 2.326 . S
O111 C107 1.260 . S
O112 In104 2.266 1_565 S
O112 C109 1.252 . S
O113 In104 2.326 1_565 S
O113 C109 1.260 . S
C114 O105 1.240 . S
C114 O106 1.252 . S
O115 In104 2.294 . S
O115 C108 1.240 . S
O116 In104 2.326 . S
O116 C108 1.252 . S
In117 O118 2.294 . S
In117 O119 2.326 . S
In117 O123 2.266 . S
In117 O124 2.326 . S
In117 O125 2.266 . S
In117 O126 2.326 . S
In117 O128 2.294 . S
In117 O129 2.326 . S
O118 In117 2.294 . S
O118 C127 1.240 . S
O119 In117 2.326 . S
O119 C127 1.252 . S
C120 O123 1.252 . S
C120 O124 1.260 . S
C121 O128 1.240 . S
C121 O129 1.252 . S
C122 O125 1.252 . S
C122 O126 1.260 . S
O123 In117 2.266 . S
O123 C120 1.252 . S
O124 In117 2.326 . S
O124 C120 1.260 . S
O125 In117 2.266 . S
O125 C122 1.252 . S
O126 In117 2.326 . S
O126 C122 1.260 . S
C127 O118 1.240 . S
C127 O119 1.252 . S
O128 In117 2.294 . S
O128 C121 1.240 . S
O129 In117 2.326 . S
O129 C121 1.252 . S
In130 O131 2.294 . S
In130 O132 2.326 . S
In130 O136 2.266 . S
In130 O137 2.326 . S
In130 O138 2.266 . S
In130 O139 2.326 . S
In130 O141 2.294 . S
In130 O142 2.326 . S
O131 In130 2.294 . S
O131 C140 1.240 . S
O132 In130 2.326 . S
O132 C140 1.252 . S
C133 O136 1.252 . S
C133 O137 1.260 . S
C134 O141 1.240 . S
C134 O142 1.252 . S
C135 O138 1.252 . S
C135 O139 1.260 . S
O136 In130 2.266 . S
O136 C133 1.252 . S
O137 In130 2.326 . S
O137 C133 1.260 . S
O138 In130 2.266 . S
O138 C135 1.252 . S
O139 In130 2.326 . S
O139 C135 1.260 . S
C140 O131 1.240 . S
C140 O132 1.252 . S
O141 In130 2.294 . S
O141 C134 1.240 . S
O142 In130 2.326 . S
O142 C134 1.252 . S
In143 O144 2.296 . S
In143 O145 2.329 . S
In143 O149 2.264 1_554 S
In143 O150 2.322 1_554 S
In143 O151 2.266 1_554 S
In143 O152 2.323 1_554 S
In143 O154 2.294 . S
In143 O155 2.327 . S
O144 In143 2.296 . S
O144 C153 1.240 . S
O145 In143 2.329 . S
O145 C153 1.252 . S
C146 O149 1.252 . S
C146 O150 1.260 . S
C147 O154 1.240 . S
C147 O155 1.252 . S
C148 O151 1.253 . S
C148 O152 1.257 . S
O149 In143 2.264 1_556 S
O149 C146 1.252 . S
O150 In143 2.322 1_556 S
O150 C146 1.260 . S
O151 In143 2.266 1_556 S
O151 C148 1.253 . S
O152 In143 2.323 1_556 S
O152 C148 1.257 . S
C153 O144 1.240 . S
C153 O145 1.252 . S
O154 In143 2.294 . S
O154 C147 1.240 . S
O155 In143 2.327 . S
O155 C147 1.252 . S
In156 O157 2.294 . S
In156 O158 2.326 . S
In156 O162 2.266 . S
In156 O163 2.326 . S
In156 O164 2.266 . S
In156 O165 2.326 . S
In156 O167 2.294 . S
In156 O168 2.326 . S
O157 In156 2.294 . S
O157 C166 1.240 . S
O158 In156 2.326 . S
O158 C166 1.252 . S
C159 O162 1.233 1_556 S
C159 O163 1.258 1_556 S
C160 O167 1.240 . S
C160 O168 1.252 . S
C161 O164 1.252 . S
C161 O165 1.260 . S
O162 In156 2.266 . S
O162 C159 1.233 1_554 S
O163 In156 2.326 . S
O163 C159 1.258 1_554 S
O164 In156 2.266 . S
O164 C161 1.252 . S
O165 In156 2.326 . S
O165 C161 1.260 . S
C166 O157 1.240 . S
C166 O158 1.252 . S
O167 In156 2.294 . S
O167 C160 1.240 . S
O168 In156 2.326 . S
O168 C160 1.252 . S
In169 O170 2.294 . S
In169 O171 2.326 . S
In169 O175 2.266 . S
In169 O176 2.326 . S
In169 O177 2.266 . S
In169 O178 2.326 . S
In169 O180 2.294 . S
In169 O181 2.326 . S
O170 In169 2.294 . S
O170 C179 1.240 . S
O171 In169 2.326 . S
O171 C179 1.252 . S
C172 O175 1.252 . S
C172 O176 1.260 . S
C173 O180 1.240 . S
C173 O181 1.252 . S
C174 O177 1.252 . S
C174 O178 1.260 . S
O175 In169 2.266 . S
O175 C172 1.252 . S
O176 In169 2.326 . S
O176 C172 1.260 . S
O177 In169 2.266 . S
O177 C174 1.252 . S
O178 In169 2.326 . S
O178 C174 1.260 . S
C179 O170 1.240 . S
C179 O171 1.252 . S
O180 In169 2.294 . S
O180 C173 1.240 . S
O181 In169 2.326 . S
O181 C173 1.252 . S
In182 O183 2.294 . S
In182 O184 2.326 . S
In182 O188 2.266 . S
In182 O189 2.326 . S
In182 O190 2.266 . S
In182 O191 2.326 . S
In182 O193 2.294 . S
In182 O194 2.326 . S
O183 In182 2.294 . S
O183 C192 1.240 . S
O184 In182 2.326 . S
O184 C192 1.252 . S
C185 O188 1.252 . S
C185 O189 1.260 . S
C186 O193 1.240 . S
C186 O194 1.252 . S
C187 O190 1.252 . S
C187 O191 1.260 . S
O188 In182 2.266 . S
O188 C185 1.252 . S
O189 In182 2.326 . S
O189 C185 1.260 . S
O190 In182 2.266 . S
O190 C187 1.252 . S
O191 In182 2.326 . S
O191 C187 1.260 . S
C192 O183 1.240 . S
C192 O184 1.252 . S
O193 In182 2.294 . S
O193 C186 1.240 . S
O194 In182 2.326 . S
O194 C186 1.252 . S
In195 O196 2.294 . S
In195 O197 2.326 . S
In195 O201 2.266 . S
In195 O202 2.326 . S
In195 O203 2.266 . S
In195 O204 2.326 . S
In195 O206 2.294 . S
In195 O207 2.326 . S
O196 In195 2.294 . S
O196 C205 1.240 . S
O197 In195 2.326 . S
O197 C205 1.252 . S
C198 O201 1.252 . S
C198 O202 1.260 . S
C199 O206 1.240 . S
C199 O207 1.252 . S
C200 O203 1.252 . S
C200 O204 1.260 . S
O201 In195 2.266 . S
O201 C198 1.252 . S
O202 In195 2.326 . S
O202 C198 1.260 . S
O203 In195 2.266 . S
O203 C200 1.252 . S
O204 In195 2.326 . S
O204 C200 1.260 . S
C205 O196 1.240 . S
C205 O197 1.252 . S
O206 In195 2.294 . S
O206 C199 1.240 . S
O207 In195 2.326 . S
O207 C199 1.252 . S
In208 O209 2.294 . S
In208 O210 2.326 . S
In208 O214 2.266 . S
In208 O215 2.326 . S
In208 O216 2.266 1_545 S
In208 O217 2.326 1_545 S
In208 O219 2.294 . S
In208 O220 2.326 . S
O209 In208 2.294 . S
O209 C218 1.240 . S
O210 In208 2.326 . S
O210 C218 1.252 . S
C211 O214 1.252 . S
C211 O215 1.260 . S
C212 O219 1.240 . S
C212 O220 1.252 . S
C213 O216 1.252 . S
C213 O217 1.260 . S
O214 In208 2.266 . S
O214 C211 1.252 . S
O215 In208 2.326 . S
O215 C211 1.260 . S
O216 In208 2.266 1_565 S
O216 C213 1.252 . S
O217 In208 2.326 1_565 S
O217 C213 1.260 . S
C218 O209 1.240 . S
C218 O210 1.252 . S
O219 In208 2.294 . S
O219 C212 1.240 . S
O220 In208 2.326 . S
O220 C212 1.252 . S
In221 O222 2.294 . S
In221 O223 2.326 . S
In221 O227 2.266 . S
In221 O228 2.326 . S
In221 O229 2.266 . S
In221 O230 2.326 . S
In221 O232 2.294 . S
In221 O233 2.326 . S
O222 In221 2.294 . S
O222 C231 1.240 . S
O223 In221 2.326 . S
O223 C231 1.252 . S
C224 O227 1.252 . S
C224 O228 1.260 . S
C225 O232 1.240 . S
C225 O233 1.252 . S
C226 O229 1.252 . S
C226 O230 1.260 . S
O227 In221 2.266 . S
O227 C224 1.252 . S
O228 In221 2.326 . S
O228 C224 1.260 . S
O229 In221 2.266 . S
O229 C226 1.252 . S
O230 In221 2.326 . S
O230 C226 1.260 . S
C231 O222 1.240 . S
C231 O223 1.252 . S
O232 In221 2.294 . S
O232 C225 1.240 . S
O233 In221 2.326 . S
O233 C225 1.252 . S
In234 O235 2.294 . S
In234 O236 2.326 . S
In234 O240 2.266 . S
In234 O241 2.326 . S
In234 O242 2.266 . S
In234 O243 2.326 . S
In234 O245 2.294 . S
In234 O246 2.326 . S
O235 In234 2.294 . S
O235 C244 1.240 . S
O236 In234 2.326 . S
O236 C244 1.252 . S
C237 O240 1.252 . S
C237 O241 1.260 . S
C238 O245 1.240 . S
C238 O246 1.252 . S
C239 O242 1.252 . S
C239 O243 1.260 . S
O240 In234 2.266 . S
O240 C237 1.252 . S
O241 In234 2.326 . S
O241 C237 1.260 . S
O242 In234 2.266 . S
O242 C239 1.252 . S
O243 In234 2.326 . S
O243 C239 1.260 . S
C244 O235 1.240 . S
C244 O236 1.252 . S
O245 In234 2.294 . S
O245 C238 1.240 . S
O246 In234 2.326 . S
O246 C238 1.252 . S
In247 O248 2.294 . S
In247 O249 2.326 . S
In247 O253 2.266 . S
In247 O254 2.326 . S
In247 O255 2.266 . S
In247 O256 2.326 . S
In247 O258 2.294 . S
In247 O259 2.326 . S
O248 In247 2.294 . S
O248 C257 1.240 . S
O249 In247 2.326 . S
O249 C257 1.252 . S
C250 O253 1.252 . S
C250 O254 1.260 . S
C251 O258 1.240 . S
C251 O259 1.252 . S
C252 O255 1.252 . S
C252 O256 1.260 . S
O253 In247 2.266 . S
O253 C250 1.252 . S
O254 In247 2.326 . S
O254 C250 1.260 . S
O255 In247 2.266 . S
O255 C252 1.252 . S
O256 In247 2.326 . S
O256 C252 1.260 . S
C257 O248 1.240 . S
C257 O249 1.252 . S
O258 In247 2.294 . S
O258 C251 1.240 . S
O259 In247 2.326 . S
O259 C251 1.252 . S
In260 O261 2.294 . S
In260 O262 2.326 . S
In260 O266 2.266 . S
In260 O267 2.326 . S
In260 O268 2.266 1_554 S
In260 O269 2.326 1_554 S
In260 O271 2.294 . S
In260 O272 2.326 . S
O261 In260 2.294 . S
O261 C270 1.240 . S
O262 In260 2.326 . S
O262 C270 1.252 . S
C263 O266 1.252 . S
C263 O267 1.260 . S
C264 O271 1.240 . S
C264 O272 1.252 . S
C265 O268 1.252 . S
C265 O269 1.260 . S
O266 In260 2.266 . S
O266 C263 1.252 . S
O267 In260 2.326 . S
O267 C263 1.260 . S
O268 In260 2.266 1_556 S
O268 C265 1.252 . S
O269 In260 2.326 1_556 S
O269 C265 1.260 . S
C270 O261 1.240 . S
C270 O262 1.252 . S
O271 In260 2.294 . S
O271 C264 1.240 . S
O272 In260 2.326 . S
O272 C264 1.252 . S
In273 O274 2.294 . S
In273 O275 2.326 . S
In273 O279 2.266 . S
In273 O280 2.326 . S
In273 O281 2.266 . S
In273 O282 2.326 . S
In273 O284 2.294 . S
In273 O285 2.326 . S
O274 In273 2.294 . S
O274 C283 1.240 . S
O275 In273 2.326 . S
O275 C283 1.252 . S
C276 O279 1.252 . S
C276 O280 1.260 . S
C277 O284 1.240 . S
C277 O285 1.252 . S
C278 O281 1.252 . S
C278 O282 1.260 . S
O279 In273 2.266 . S
O279 C276 1.252 . S
O280 In273 2.326 . S
O280 C276 1.260 . S
O281 In273 2.266 . S
O281 C278 1.252 . S
O282 In273 2.326 . S
O282 C278 1.260 . S
C283 O274 1.240 . S
C283 O275 1.252 . S
O284 In273 2.294 . S
O284 C277 1.240 . S
O285 In273 2.326 . S
O285 C277 1.252 . S
In286 O287 2.294 . S
In286 O288 2.326 . S
In286 O292 2.266 . S
In286 O293 2.326 . S
In286 O294 2.266 . S
In286 O295 2.326 . S
In286 O297 2.294 . S
In286 O298 2.326 . S
O287 In286 2.294 . S
O287 C296 1.240 . S
O288 In286 2.326 . S
O288 C296 1.252 . S
C289 O292 1.252 . S
C289 O293 1.260 . S
C290 O297 1.240 . S
C290 O298 1.252 . S
C291 O294 1.252 . S
C291 O295 1.260 . S
O292 In286 2.266 . S
O292 C289 1.252 . S
O293 In286 2.326 . S
O293 C289 1.260 . S
O294 In286 2.266 . S
O294 C291 1.252 . S
O295 In286 2.326 . S
O295 C291 1.260 . S
C296 O287 1.240 . S
C296 O288 1.252 . S
O297 In286 2.294 . S
O297 C290 1.240 . S
O298 In286 2.326 . S
O298 C290 1.252 . S
In299 O300 2.294 . S
In299 O301 2.326 . S
In299 O305 2.266 . S
In299 O306 2.326 . S
In299 O307 2.266 . S
In299 O308 2.326 . S
In299 O310 2.294 . S
In299 O311 2.326 . S
O300 In299 2.294 . S
O300 C309 1.240 . S
O301 In299 2.326 . S
O301 C309 1.252 . S
C302 O305 1.252 . S
C302 O306 1.260 . S
C303 O310 1.240 . S
C303 O311 1.252 . S
C304 O307 1.252 . S
C304 O308 1.260 . S
O305 In299 2.266 . S
O305 C302 1.252 . S
O306 In299 2.326 . S
O306 C302 1.260 . S
O307 In299 2.266 . S
O307 C304 1.252 . S
O308 In299 2.326 . S
O308 C304 1.260 . S
C309 O300 1.240 . S
C309 O301 1.252 . S
O310 In299 2.294 . S
O310 C303 1.240 . S
O311 In299 2.326 . S
O311 C303 1.252 . S
Tb312 N341 2.617 . S
Tb312 N347 2.572 . S
Tb312 O356 2.465 . S
Tb312 O357 2.387 . S
Tb312 O359 2.428 . S
Tb312 O360 2.308 . S
Tb312 O364 2.349 . S
Tb312 O367 2.393 . S
Tb312 C376 2.802 . S
C313 N314 1.420 . S
C313 C316 1.416 . S
C313 C320 1.424 1_556 S
N314 C313 1.420 . S
N314 C317 1.332 . S
N314 Tb323 2.586 1_666 S
C315 C317 1.403 . S
C315 C318 1.339 . S
C315 H335 0.930 . S
C316 C313 1.416 . S
C316 C318 1.416 . S
C316 C322 1.448 . S
C317 N314 1.332 . S
C317 C315 1.403 . S
C317 H328 0.915 1_665 S
C318 C315 1.339 . S
C318 C316 1.416 . S
C318 H339 0.930 . S
C319 C320 1.413 . S
C319 C321 1.427 . S
C319 C325 1.416 . S
C320 C313 1.424 1_554 S
C320 C319 1.413 . S
C320 N324 1.361 . S
C321 C319 1.427 . S
C321 C322 1.328 1_554 S
C321 H336 0.929 . S
C322 C316 1.448 . S
C322 C321 1.328 1_556 S
C322 H337 0.930 . S
Tb323 N314 2.586 1_444 S
Tb323 N324 2.572 1_445 S
Tb323 O358 2.349 . S
Tb323 O361 2.393 1_554 S
Tb323 O362 2.465 1_455 S
Tb323 O363 2.387 . S
Tb323 O365 2.428 1_455 S
Tb323 O366 2.308 . S
Tb323 C387 2.802 1_455 S
N324 C320 1.361 . S
N324 Tb323 2.572 1_665 S
N324 C326 1.340 . S
C325 C319 1.416 . S
C325 C327 1.332 . S
C325 H333 0.931 . S
C326 N324 1.340 . S
C326 C327 1.407 . S
C326 H332 0.930 1_565 S
C327 C325 1.332 . S
C327 C326 1.407 . S
C327 H329 0.929 . S
H328 C317 0.915 1_445 S
H329 C327 0.929 . S
H330 C345 0.930 . S
H331 C352 0.929 . S
H332 C326 0.930 1_545 S
H333 C325 0.931 . S
H334 C348 0.930 . S
H335 C315 0.930 . S
H336 C321 0.929 . S
H337 C322 0.930 . S
H338 C343 0.930 . S
H339 C318 0.930 . S
H340 C351 0.931 . S
N341 Tb312 2.617 . S
N341 C342 1.379 . S
N341 C345 1.334 . S
C342 N341 1.379 . S
C342 C344 1.416 . S
C342 C350 1.424 . S
C343 H338 0.930 . S
C343 C345 1.390 . S
C343 C346 1.339 . S
C344 C342 1.416 . S
C344 C346 1.416 . S
C344 C377 1.448 . S
C345 H330 0.930 . S
C345 N341 1.334 . S
C345 C343 1.390 . S
C346 C343 1.339 . S
C346 C344 1.416 . S
C346 H353 0.930 . S
N347 Tb312 2.572 . S
N347 C348 1.340 . S
N347 C350 1.361 . S
C348 H334 0.930 . S
C348 N347 1.340 . S
C348 C352 1.407 . S
C349 C350 1.413 . S
C349 C351 1.416 . S
C349 C378 1.427 . S
C350 C342 1.424 . S
C350 N347 1.361 . S
C350 C349 1.413 . S
C351 H340 0.931 . S
C351 C349 1.416 . S
C351 C352 1.332 . S
C352 H331 0.929 . S
C352 C348 1.407 . S
C352 C351 1.332 . S
H353 C346 0.930 . S
H354 C377 0.930 . S
H355 C378 0.929 . S
O356 Tb312 2.465 . S
O356 C376 1.264 . S
O357 Tb312 2.387 . S
O357 C368 1.264 . S
O358 Tb323 2.349 . S
O358 C368 1.243 . S
O359 Tb312 2.428 . S
O359 C376 1.256 . S
O360 Tb312 2.308 . S
O360 C375 1.266 . S
O361 Tb323 2.393 1_556 S
O361 C375 1.248 1_556 S
O362 Tb323 2.465 1_655 S
O362 C387 1.264 . S
O363 Tb323 2.387 . S
O363 C379 1.264 . S
O364 Tb312 2.349 . S
O364 C379 1.243 . S
O365 Tb323 2.428 1_655 S
O365 C387 1.256 . S
O366 Tb323 2.308 . S
O366 C386 1.266 . S
O367 Tb312 2.393 . S
O367 C386 1.248 . S
C368 O357 1.264 . S
C368 O358 1.243 . S
C369 C372 1.399 . S
C369 C374 1.383 . S
C369 C376 1.496 . S
C370 C371 1.399 . S
C370 C374 1.389 . S
C371 C370 1.399 . S
C371 C373 1.380 . S
C371 H388 0.929 . S
C372 C369 1.399 . S
C372 C373 1.392 . S
C372 H389 0.929 . S
C373 C371 1.380 . S
C373 C372 1.392 . S
C373 H390 0.929 . S
C374 C369 1.383 . S
C374 C370 1.389 . S
C374 H391 0.931 . S
C375 O360 1.266 . S
C375 O361 1.248 1_554 S
C376 Tb312 2.802 . S
C376 O356 1.264 . S
C376 O359 1.256 . S
C376 C369 1.496 . S
C377 C344 1.448 . S
C377 H354 0.930 . S
C377 C378 1.328 . S
C378 C349 1.427 . S
C378 H355 0.929 . S
C378 C377 1.328 . S
C379 O363 1.264 . S
C379 O364 1.243 . S
C380 C383 1.399 1_554 S
C380 C384 1.383 . S
C380 C387 1.496 . S
C381 C382 1.399 . S
C381 C384 1.389 . S
C382 C381 1.399 . S
C382 C385 1.380 1_554 S
C382 H392 0.929 . S
C383 C380 1.399 1_556 S
C383 C385 1.392 . S
C383 H393 0.929 . S
C384 C380 1.383 . S
C384 C381 1.389 . S
C384 H394 0.931 . S
C385 C382 1.380 1_556 S
C385 C383 1.392 . S
C385 H395 0.929 . S
C386 O366 1.266 . S
C386 O367 1.248 . S
C387 Tb323 2.802 1_655 S
C387 O362 1.264 . S
C387 O365 1.256 . S
C387 C380 1.496 . S
H388 C371 0.929 . S
H389 C372 0.929 . S
H390 C373 0.929 . S
H391 C374 0.931 . S
H392 C382 0.929 . S
H393 C383 0.929 . S
H394 C384 0.931 . S
H395 C385 0.929 . S
Tb396 N425 2.617 . S
Tb396 N431 2.572 . S
Tb396 O440 2.465 . S
Tb396 O441 2.387 . S
Tb396 O443 2.428 . S
Tb396 O444 2.308 . S
Tb396 O448 2.349 . S
Tb396 O451 2.393 . S
Tb396 C460 2.802 . S
C397 N398 1.379 . S
C397 C400 1.416 . S
C397 C404 1.424 . S
N398 C397 1.379 . S
N398 C401 1.334 . S
N398 Tb407 2.617 . S
C399 C401 1.390 . S
C399 C402 1.339 . S
C399 H419 0.930 . S
C400 C397 1.416 . S
C400 C402 1.416 . S
C400 C406 1.448 . S
C401 N398 1.334 . S
C401 C399 1.390 . S
C401 H412 0.930 . S
C402 C399 1.339 . S
C402 C400 1.416 . S
C402 H423 0.930 . S
C403 C404 1.413 . S
C403 C405 1.427 . S
C403 C409 1.416 . S
C404 C397 1.424 . S
C404 C403 1.413 . S
C404 N408 1.361 . S
C405 C403 1.427 . S
C405 C406 1.328 . S
C405 H420 0.929 . S
C406 C400 1.448 . S
C406 C405 1.328 . S
C406 H421 0.930 . S
Tb407 N398 2.617 . S
Tb407 N408 2.572 . S
Tb407 O442 2.349 . S
Tb407 O445 2.393 . S
Tb407 O446 2.465 . S
Tb407 O447 2.387 . S
Tb407 O449 2.428 . S
Tb407 O450 2.308 . S
Tb407 C471 2.802 . S
N408 C404 1.361 . S
N408 Tb407 2.572 . S
N408 C410 1.340 . S
C409 C403 1.416 . S
C409 C411 1.332 . S
C409 H417 0.931 . S
C410 N408 1.340 . S
C410 C411 1.407 . S
C410 H416 0.930 . S
C411 C409 1.332 . S
C411 C410 1.407 . S
C411 H413 0.929 . S
H412 C401 0.930 . S
H413 C411 0.929 . S
H414 C429 0.930 . S
H415 C436 0.929 . S
H416 C410 0.930 . S
H417 C409 0.931 . S
H418 C432 0.930 . S
H419 C399 0.930 . S
H420 C405 0.929 . S
H421 C406 0.930 . S
H422 C427 0.930 . S
H423 C402 0.930 . S
H424 C435 0.931 . S
N425 Tb396 2.617 . S
N425 C426 1.379 . S
N425 C429 1.334 . S
C426 N425 1.379 . S
C426 C428 1.416 . S
C426 C434 1.424 . S
C427 H422 0.930 . S
C427 C429 1.390 . S
C427 C430 1.339 . S
C428 C426 1.416 . S
C428 C430 1.416 . S
C428 C461 1.448 . S
C429 H414 0.930 . S
C429 N425 1.334 . S
C429 C427 1.390 . S
C430 C427 1.339 . S
C430 C428 1.416 . S
C430 H437 0.930 . S
N431 Tb396 2.572 . S
N431 C432 1.340 . S
N431 C434 1.361 . S
C432 H418 0.930 . S
C432 N431 1.340 . S
C432 C436 1.407 . S
C433 C434 1.413 . S
C433 C435 1.416 . S
C433 C462 1.427 . S
C434 C426 1.424 . S
C434 N431 1.361 . S
C434 C433 1.413 . S
C435 H424 0.931 . S
C435 C433 1.416 . S
C435 C436 1.332 . S
C436 H415 0.929 . S
C436 C432 1.407 . S
C436 C435 1.332 . S
H437 C430 0.930 . S
H438 C461 0.930 . S
H439 C462 0.929 . S
O440 Tb396 2.465 . S
O440 C460 1.264 . S
O441 Tb396 2.387 . S
O441 C452 1.264 . S
O442 Tb407 2.349 . S
O442 C452 1.243 . S
O443 Tb396 2.428 . S
O443 C460 1.256 . S
O444 Tb396 2.308 . S
O444 C459 1.266 . S
O445 Tb407 2.393 . S
O445 C459 1.248 . S
O446 Tb407 2.465 . S
O446 C471 1.264 . S
O447 Tb407 2.387 . S
O447 C463 1.264 . S
O448 Tb396 2.349 . S
O448 C463 1.243 . S
O449 Tb407 2.428 . S
O449 C471 1.256 . S
O450 Tb407 2.308 . S
O450 C470 1.266 . S
O451 Tb396 2.393 . S
O451 C470 1.248 . S
C452 O441 1.264 . S
C452 O442 1.243 . S
C453 C456 1.399 . S
C453 C458 1.383 . S
C453 C460 1.496 . S
C454 C455 1.399 . S
C454 C458 1.389 . S
C455 C454 1.399 . S
C455 C457 1.380 . S
C455 H472 0.929 . S
C456 C453 1.399 . S
C456 C457 1.392 . S
C456 H473 0.929 . S
C457 C455 1.380 . S
C457 C456 1.392 . S
C457 H474 0.929 . S
C458 C453 1.383 . S
C458 C454 1.389 . S
C458 H475 0.931 . S
C459 O444 1.266 . S
C459 O445 1.248 . S
C460 Tb396 2.802 . S
C460 O440 1.264 . S
C460 O443 1.256 . S
C460 C453 1.496 . S
C461 C428 1.448 . S
C461 H438 0.930 . S
C461 C462 1.328 . S
C462 C433 1.427 . S
C462 H439 0.929 . S
C462 C461 1.328 . S
C463 O447 1.264 . S
C463 O448 1.243 . S
C464 C467 1.399 . S
C464 C468 1.383 . S
C464 C471 1.496 . S
C465 C466 1.399 . S
C465 C468 1.389 . S
C466 C465 1.399 . S
C466 C469 1.380 . S
C466 H476 0.929 . S
C467 C464 1.399 . S
C467 C469 1.392 . S
C467 H477 0.929 . S
C468 C464 1.383 . S
C468 C465 1.389 . S
C468 H478 0.931 . S
C469 C466 1.380 . S
C469 C467 1.392 . S
C469 H479 0.929 . S
C470 O450 1.266 . S
C470 O451 1.248 . S
C471 Tb407 2.802 . S
C471 O446 1.264 . S
C471 O449 1.256 . S
C471 C464 1.496 . S
H472 C455 0.929 . S
H473 C456 0.929 . S
H474 C457 0.929 . S
H475 C458 0.931 . S
H476 C466 0.929 . S
H477 C467 0.929 . S
H478 C468 0.931 . S
H479 C469 0.929 . S
Tb480 N509 2.617 1_545 S
Tb480 N515 2.572 1_545 S
Tb480 O524 2.465 . S
Tb480 O525 2.387 1_545 S
Tb480 O527 2.428 . S
Tb480 O528 2.308 . S
Tb480 O532 2.349 . S
Tb480 O535 2.393 . S
Tb480 C544 2.802 . S
C481 N482 1.379 . S
C481 C484 1.416 . S
C481 C488 1.424 . S
N482 C481 1.379 . S
N482 C485 1.334 . S
N482 Tb491 2.617 . S
C483 C485 1.390 . S
C483 C486 1.339 . S
C483 H503 0.930 . S
C484 C481 1.416 . S
C484 C486 1.416 . S
C484 C490 1.448 . S
C485 N482 1.334 . S
C485 C483 1.390 . S
C485 H496 0.930 . S
C486 C483 1.339 . S
C486 C484 1.416 . S
C486 H507 0.930 . S
C487 C488 1.413 . S
C487 C489 1.427 . S
C487 C493 1.416 . S
C488 C481 1.424 . S
C488 C487 1.413 . S
C488 N492 1.361 . S
C489 C487 1.427 . S
C489 C490 1.328 . S
C489 H504 0.929 . S
C490 C484 1.448 . S
C490 C489 1.328 . S
C490 H505 0.930 . S
Tb491 N482 2.617 . S
Tb491 N492 2.572 . S
Tb491 O526 2.349 1_545 S
Tb491 O529 2.393 . S
Tb491 O530 2.465 . S
Tb491 O531 2.387 . S
Tb491 O533 2.428 . S
Tb491 O534 2.308 . S
Tb491 C555 2.802 . S
N492 C488 1.361 . S
N492 Tb491 2.572 . S
N492 C494 1.340 . S
C493 C487 1.416 . S
C493 C495 1.332 . S
C493 H501 0.931 . S
C494 N492 1.340 . S
C494 C495 1.407 . S
C494 H500 0.930 . S
C495 C493 1.332 . S
C495 C494 1.407 . S
C495 H497 0.929 . S
H496 C485 0.930 . S
H497 C495 0.929 . S
H498 C513 0.930 1_545 S
H499 C520 0.929 . S
H500 C494 0.930 . S
H501 C493 0.931 . S
H502 C516 0.930 . S
H503 C483 0.930 . S
H504 C489 0.929 . S
H505 C490 0.930 . S
H506 C511 0.930 . S
H507 C486 0.930 . S
H508 C519 0.931 . S
N509 Tb480 2.617 1_565 S
N509 C510 1.379 . S
N509 C513 1.334 . S
C510 N509 1.379 . S
C510 C512 1.416 . S
C510 C518 1.424 . S
C511 H506 0.930 . S
C511 C513 1.390 . S
C511 C514 1.339 . S
C512 C510 1.416 . S
C512 C514 1.416 . S
C512 C545 1.448 . S
C513 H498 0.930 1_565 S
C513 N509 1.334 . S
C513 C511 1.390 . S
C514 C511 1.339 . S
C514 C512 1.416 . S
C514 H521 0.930 . S
N515 Tb480 2.572 1_565 S
N515 C516 1.340 . S
N515 C518 1.361 . S
C516 H502 0.930 . S
C516 N515 1.340 . S
C516 C520 1.407 . S
C517 C518 1.413 . S
C517 C519 1.416 . S
C517 C546 1.427 . S
C518 C510 1.424 . S
C518 N515 1.361 . S
C518 C517 1.413 . S
C519 H508 0.931 . S
C519 C517 1.416 . S
C519 C520 1.332 . S
C520 H499 0.929 . S
C520 C516 1.407 . S
C520 C519 1.332 . S
H521 C514 0.930 . S
H522 C545 0.930 . S
H523 C546 0.929 . S
O524 Tb480 2.465 . S
O524 C544 1.264 . S
O525 Tb480 2.387 1_565 S
O525 C536 1.264 . S
O526 Tb491 2.349 1_565 S
O526 C536 1.243 . S
O527 Tb480 2.428 . S
O527 C544 1.256 . S
O528 Tb480 2.308 . S
O528 C543 1.266 . S
O529 Tb491 2.393 . S
O529 C543 1.248 . S
O530 Tb491 2.465 . S
O530 C555 1.264 . S
O531 Tb491 2.387 . S
O531 C547 1.264 . S
O532 Tb480 2.349 . S
O532 C547 1.243 . S
O533 Tb491 2.428 . S
O533 C555 1.256 . S
O534 Tb491 2.308 . S
O534 C554 1.266 . S
O535 Tb480 2.393 . S
O535 C554 1.248 . S
C536 O525 1.264 . S
C536 O526 1.243 . S
C537 C540 1.399 . S
C537 C542 1.383 . S
C537 C544 1.496 . S
C538 C539 1.399 . S
C538 C542 1.389 . S
C539 C538 1.399 . S
C539 C541 1.380 . S
C539 H556 0.929 . S
C540 C537 1.399 . S
C540 C541 1.392 . S
C540 H557 0.929 . S
C541 C539 1.380 . S
C541 C540 1.392 . S
C541 H558 0.929 . S
C542 C537 1.383 . S
C542 C538 1.389 . S
C542 H559 0.931 . S
C543 O528 1.266 . S
C543 O529 1.248 . S
C544 Tb480 2.802 . S
C544 O524 1.264 . S
C544 O527 1.256 . S
C544 C537 1.496 . S
C545 C512 1.448 . S
C545 H522 0.930 . S
C545 C546 1.328 . S
C546 C517 1.427 . S
C546 H523 0.929 . S
C546 C545 1.328 . S
C547 O531 1.264 . S
C547 O532 1.243 . S
C548 C551 1.399 . S
C548 C552 1.383 . S
C548 C555 1.496 1_565 S
C549 C550 1.399 . S
C549 C552 1.389 . S
C550 C549 1.399 . S
C550 C553 1.380 . S
C550 H560 0.929 . S
C551 C548 1.399 . S
C551 C553 1.392 . S
C551 H561 0.929 . S
C552 C548 1.383 . S
C552 C549 1.389 . S
C552 H562 0.931 . S
C553 C550 1.380 . S
C553 C551 1.392 . S
C553 H563 0.929 . S
C554 O534 1.266 . S
C554 O535 1.248 . S
C555 Tb491 2.802 . S
C555 O530 1.264 . S
C555 O533 1.256 . S
C555 C548 1.496 1_545 S
H556 C539 0.929 . S
H557 C540 0.929 . S
H558 C541 0.929 . S
H559 C542 0.931 . S
H560 C550 0.929 . S
H561 C551 0.929 . S
H562 C552 0.931 . S
H563 C553 0.929 . S
Tb564 N593 2.617 . S
Tb564 N599 2.572 . S
Tb564 O608 2.465 . S
Tb564 O609 2.387 . S
Tb564 O611 2.428 . S
Tb564 O612 2.308 . S
Tb564 O616 2.349 . S
Tb564 O619 2.393 . S
Tb564 C628 2.802 . S
C565 N566 1.379 . S
C565 C568 1.416 . S
C565 C572 1.424 . S
N566 C565 1.379 . S
N566 C569 1.334 . S
N566 Tb575 2.617 . S
C567 C569 1.390 . S
C567 C570 1.339 . S
C567 H587 0.930 . S
C568 C565 1.416 . S
C568 C570 1.416 . S
C568 C574 1.448 . S
C569 N566 1.334 . S
C569 C567 1.390 . S
C569 H580 0.930 . S
C570 C567 1.339 . S
C570 C568 1.416 . S
C570 H591 0.930 . S
C571 C572 1.413 . S
C571 C573 1.427 . S
C571 C577 1.416 . S
C572 C565 1.424 . S
C572 C571 1.413 . S
C572 N576 1.361 . S
C573 C571 1.427 . S
C573 C574 1.328 . S
C573 H588 0.929 . S
C574 C568 1.448 . S
C574 C573 1.328 . S
C574 H589 0.930 . S
Tb575 N566 2.617 . S
Tb575 N576 2.572 . S
Tb575 O610 2.349 . S
Tb575 O613 2.393 . S
Tb575 O614 2.465 . S
Tb575 O615 2.387 . S
Tb575 O617 2.428 . S
Tb575 O618 2.308 . S
Tb575 C639 2.802 . S
N576 C572 1.361 . S
N576 Tb575 2.572 . S
N576 C578 1.340 . S
C577 C571 1.416 . S
C577 C579 1.332 . S
C577 H585 0.931 . S
C578 N576 1.340 . S
C578 C579 1.407 . S
C578 H584 0.930 . S
C579 C577 1.332 . S
C579 C578 1.407 . S
C579 H581 0.929 . S
H580 C569 0.930 . S
H581 C579 0.929 . S
H582 C597 0.930 . S
H583 C604 0.929 . S
H584 C578 0.930 . S
H585 C577 0.931 . S
H586 C600 0.930 . S
H587 C567 0.930 . S
H588 C573 0.929 . S
H589 C574 0.930 . S
H590 C595 0.930 . S
H591 C570 0.930 . S
H592 C603 0.931 . S
N593 Tb564 2.617 . S
N593 C594 1.379 . S
N593 C597 1.334 . S
C594 N593 1.379 . S
C594 C596 1.416 . S
C594 C602 1.424 . S
C595 H590 0.930 . S
C595 C597 1.390 . S
C595 C598 1.339 . S
C596 C594 1.416 . S
C596 C598 1.416 . S
C596 C629 1.448 . S
C597 H582 0.930 . S
C597 N593 1.334 . S
C597 C595 1.390 . S
C598 C595 1.339 . S
C598 C596 1.416 . S
C598 H605 0.930 . S
N599 Tb564 2.572 . S
N599 C600 1.340 . S
N599 C602 1.361 . S
C600 H586 0.930 . S
C600 N599 1.340 . S
C600 C604 1.407 . S
C601 C602 1.413 . S
C601 C603 1.416 . S
C601 C630 1.427 . S
C602 C594 1.424 . S
C602 N599 1.361 . S
C602 C601 1.413 . S
C603 H592 0.931 . S
C603 C601 1.416 . S
C603 C604 1.332 . S
C604 H583 0.929 . S
C604 C600 1.407 . S
C604 C603 1.332 . S
H605 C598 0.930 . S
H606 C629 0.930 . S
H607 C630 0.929 . S
O608 Tb564 2.465 . S
O608 C628 1.264 . S
O609 Tb564 2.387 . S
O609 C620 1.264 . S
O610 Tb575 2.349 . S
O610 C620 1.243 . S
O611 Tb564 2.428 . S
O611 C628 1.256 . S
O612 Tb564 2.308 . S
O612 C627 1.266 . S
O613 Tb575 2.393 . S
O613 C627 1.248 . S
O614 Tb575 2.465 . S
O614 C639 1.264 . S
O615 Tb575 2.387 . S
O615 C631 1.264 . S
O616 Tb564 2.349 . S
O616 C631 1.243 . S
O617 Tb575 2.428 . S
O617 C639 1.256 . S
O618 Tb575 2.308 . S
O618 C638 1.266 . S
O619 Tb564 2.393 . S
O619 C638 1.248 . S
C620 O609 1.264 . S
C620 O610 1.243 . S
C621 C624 1.399 . S
C621 C626 1.383 . S
C621 C628 1.496 . S
C622 C623 1.399 . S
C622 C626 1.389 . S
C623 C622 1.399 . S
C623 C625 1.380 . S
C623 H640 0.929 . S
C624 C621 1.399 . S
C624 C625 1.392 . S
C624 H641 0.929 . S
C625 C623 1.380 . S
C625 C624 1.392 . S
C625 H642 0.929 . S
C626 C621 1.383 . S
C626 C622 1.389 . S
C626 H643 0.931 . S
C627 O612 1.266 . S
C627 O613 1.248 . S
C628 Tb564 2.802 . S
C628 O608 1.264 . S
C628 O611 1.256 . S
C628 C621 1.496 . S
C629 C596 1.448 . S
C629 H606 0.930 . S
C629 C630 1.328 . S
C630 C601 1.427 . S
C630 H607 0.929 . S
C630 C629 1.328 . S
C631 O615 1.264 . S
C631 O616 1.243 . S
C632 C635 1.399 . S
C632 C636 1.383 . S
C632 C639 1.496 . S
C633 C634 1.399 . S
C633 C636 1.389 . S
C634 C633 1.399 . S
C634 C637 1.380 . S
C634 H644 0.929 . S
C635 C632 1.399 . S
C635 C637 1.392 . S
C635 H645 0.929 . S
C636 C632 1.383 . S
C636 C633 1.389 . S
C636 H646 0.931 . S
C637 C634 1.380 . S
C637 C635 1.392 . S
C637 H647 0.929 . S
C638 O618 1.266 . S
C638 O619 1.248 . S
C639 Tb575 2.802 . S
C639 O614 1.264 . S
C639 O617 1.256 . S
C639 C632 1.496 . S
H640 C623 0.929 . S
H641 C624 0.929 . S
H642 C625 0.929 . S
H643 C626 0.931 . S
H644 C634 0.929 . S
H645 C635 0.929 . S
H646 C636 0.931 . S
H647 C637 0.929 . S
Tb648 N677 2.617 . S
Tb648 N683 2.572 . S
Tb648 O692 2.465 . S
Tb648 O693 2.387 1_565 S
Tb648 O695 2.428 . S
Tb648 O696 2.320 . S
Tb648 O700 2.349 1_565 S
Tb648 O703 2.393 1_565 S
Tb648 C712 2.802 . S
C649 N650 1.379 . S
C649 C652 1.427 . S
C649 C656 1.424 . S
N650 C649 1.379 . S
N650 C653 1.334 1_455 S
N650 Tb659 2.617 . S
C651 C653 1.390 . S
C651 C654 1.339 . S
C651 H671 0.930 . S
C652 C649 1.427 . S
C652 C654 1.401 1_455 S
C652 C658 1.454 . S
C653 N650 1.334 1_655 S
C653 C651 1.390 . S
C653 H664 0.930 . S
C654 C651 1.339 . S
C654 C652 1.401 1_655 S
C654 H675 0.930 . S
C655 C656 1.413 . S
C655 C657 1.427 . S
C655 C661 1.416 . S
C656 C649 1.424 . S
C656 C655 1.413 . S
C656 N660 1.361 . S
C657 C655 1.427 . S
C657 C658 1.328 . S
C657 H672 0.929 . S
C658 C652 1.454 . S
C658 C657 1.328 . S
C658 H673 0.930 . S
Tb659 N650 2.617 . S
Tb659 N660 2.572 . S
Tb659 O694 2.349 . S
Tb659 O697 2.393 1_455 S
Tb659 O698 2.465 . S
Tb659 O699 2.387 . S
Tb659 O701 2.428 . S
Tb659 O702 2.308 . S
Tb659 C723 2.802 . S
N660 C656 1.361 . S
N660 Tb659 2.572 . S
N660 C662 1.340 . S
C661 C655 1.416 . S
C661 C663 1.332 . S
C661 H669 0.931 . S
C662 N660 1.340 . S
C662 C663 1.407 . S
C662 H668 0.930 . S
C663 C661 1.332 . S
C663 C662 1.407 . S
C663 H665 0.929 . S
H664 C653 0.930 . S
H665 C663 0.929 . S
H666 C681 0.930 1_545 S
H667 C688 0.929 . S
H668 C662 0.930 . S
H669 C661 0.931 . S
H670 C684 0.930 . S
H671 C651 0.930 . S
H672 C657 0.929 . S
H673 C658 0.930 . S
H674 C679 0.930 . S
H675 C654 0.930 . S
H676 C687 0.919 1_655 S
N677 Tb648 2.617 . S
N677 C678 1.379 . S
N677 C681 1.334 . S
C678 N677 1.379 . S
C678 C680 1.416 . S
C678 C686 1.424 . S
C679 H674 0.930 . S
C679 C681 1.390 . S
C679 C682 1.339 . S
C680 C678 1.416 . S
C680 C682 1.416 . S
C680 C713 1.448 . S
C681 H666 0.930 1_565 S
C681 N677 1.334 . S
C681 C679 1.390 . S
C682 C679 1.339 . S
C682 C680 1.416 . S
C682 H689 0.930 . S
N683 Tb648 2.572 . S
N683 C684 1.340 . S
N683 C686 1.361 . S
C684 H670 0.930 . S
C684 N683 1.340 . S
C684 C688 1.407 1_455 S
C685 C686 1.413 . S
C685 C687 1.416 . S
C685 C714 1.427 . S
C686 C678 1.424 . S
C686 N683 1.361 . S
C686 C685 1.413 . S
C687 H676 0.919 1_455 S
C687 C685 1.416 . S
C687 C688 1.332 1_455 S
C688 H667 0.929 . S
C688 C684 1.407 1_655 S
C688 C687 1.332 1_655 S
H689 C682 0.930 . S
H690 C713 0.930 . S
H691 C714 0.929 . S
O692 Tb648 2.465 . S
O692 C712 1.264 . S
O693 Tb648 2.387 1_545 S
O693 C704 1.264 . S
O694 Tb659 2.349 . S
O694 C704 1.243 . S
O695 Tb648 2.428 . S
O695 C712 1.256 . S
O696 Tb648 2.320 . S
O696 C711 1.248 1_465 S
O697 Tb659 2.393 1_655 S
O697 C711 1.248 . S
O698 Tb659 2.465 . S
O698 C723 1.264 . S
O699 Tb659 2.387 . S
O699 C715 1.264 . S
O700 Tb648 2.349 1_545 S
O700 C715 1.243 . S
O701 Tb659 2.428 . S
O701 C723 1.256 . S
O702 Tb659 2.308 . S
O702 C722 1.266 . S
O703 Tb648 2.393 1_545 S
O703 C722 1.248 . S
C704 O693 1.264 . S
C704 O694 1.243 . S
C705 C708 1.399 . S
C705 C710 1.383 . S
C705 C712 1.496 . S
C706 C707 1.399 . S
C706 C710 1.389 . S
C707 C706 1.399 . S
C707 C709 1.380 . S
C707 H724 0.929 . S
C708 C705 1.399 . S
C708 C709 1.392 . S
C708 H725 0.929 . S
C709 C707 1.380 . S
C709 C708 1.392 . S
C709 H726 0.929 . S
C710 C705 1.383 . S
C710 C706 1.389 . S
C710 H727 0.931 . S
C711 O696 1.248 1_645 S
C711 O697 1.248 . S
C712 Tb648 2.802 . S
C712 O692 1.264 . S
C712 O695 1.256 . S
C712 C705 1.496 . S
C713 C680 1.448 . S
C713 H690 0.930 . S
C713 C714 1.328 . S
C714 C685 1.427 . S
C714 H691 0.929 . S
C714 C713 1.328 . S
C715 O699 1.264 . S
C715 O700 1.243 . S
C716 C719 1.399 1_455 S
C716 C720 1.383 . S
C716 C723 1.496 . S
C717 C718 1.399 . S
C717 C720 1.389 . S
C718 C717 1.399 . S
C718 C721 1.380 1_455 S
C718 H728 0.929 . S
C719 C716 1.399 1_655 S
C719 C721 1.392 . S
C719 H729 0.929 . S
C720 C716 1.383 . S
C720 C717 1.389 . S
C720 H730 0.931 . S
C721 C718 1.380 1_655 S
C721 C719 1.392 . S
C721 H731 0.929 . S
C722 O702 1.266 . S
C722 O703 1.248 . S
C723 Tb659 2.802 . S
C723 O698 1.264 . S
C723 O701 1.256 . S
C723 C716 1.496 . S
H724 C707 0.929 . S
H725 C708 0.929 . S
H726 C709 0.929 . S
H727 C710 0.931 . S
H728 C718 0.929 . S
H729 C719 0.929 . S
H730 C720 0.931 . S
H731 C721 0.929 . S
Tb732 N761 2.617 . S
Tb732 N767 2.572 . S
Tb732 O776 2.465 . S
Tb732 O777 2.387 . S
Tb732 O779 2.428 . S
Tb732 O780 2.308 . S
Tb732 O784 2.349 . S
Tb732 O787 2.393 . S
Tb732 C796 2.802 . S
C733 N734 1.379 . S
C733 C736 1.416 . S
C733 C740 1.424 . S
N734 C733 1.379 . S
N734 C737 1.334 . S
N734 Tb743 2.617 . S
C735 C737 1.390 . S
C735 C738 1.339 . S
C735 H755 0.930 . S
C736 C733 1.416 . S
C736 C738 1.416 . S
C736 C742 1.448 . S
C737 N734 1.334 . S
C737 C735 1.390 . S
C737 H748 0.930 . S
C738 C735 1.339 . S
C738 C736 1.416 . S
C738 H759 0.930 . S
C739 C740 1.413 . S
C739 C741 1.427 . S
C739 C745 1.416 . S
C740 C733 1.424 . S
C740 C739 1.413 . S
C740 N744 1.361 . S
C741 C739 1.427 . S
C741 C742 1.328 . S
C741 H756 0.929 . S
C742 C736 1.448 . S
C742 C741 1.328 . S
C742 H757 0.930 . S
Tb743 N734 2.617 . S
Tb743 N744 2.572 . S
Tb743 O778 2.349 . S
Tb743 O781 2.393 . S
Tb743 O782 2.465 . S
Tb743 O783 2.387 . S
Tb743 O785 2.428 . S
Tb743 O786 2.308 . S
Tb743 C807 2.802 . S
N744 C740 1.361 . S
N744 Tb743 2.572 . S
N744 C746 1.340 . S
C745 C739 1.416 . S
C745 C747 1.332 . S
C745 H753 0.931 . S
C746 N744 1.340 . S
C746 C747 1.407 . S
C746 H752 0.930 . S
C747 C745 1.332 . S
C747 C746 1.407 . S
C747 H749 0.929 . S
H748 C737 0.930 . S
H749 C747 0.929 . S
H750 C765 0.930 . S
H751 C772 0.929 . S
H752 C746 0.930 . S
H753 C745 0.931 . S
H754 C768 0.930 . S
H755 C735 0.930 . S
H756 C741 0.929 . S
H757 C742 0.930 . S
H758 C763 0.930 . S
H759 C738 0.930 . S
H760 C771 0.931 . S
N761 Tb732 2.617 . S
N761 C762 1.379 . S
N761 C765 1.334 . S
C762 N761 1.379 . S
C762 C764 1.416 . S
C762 C770 1.424 . S
C763 H758 0.930 . S
C763 C765 1.390 . S
C763 C766 1.339 . S
C764 C762 1.416 . S
C764 C766 1.416 . S
C764 C797 1.448 . S
C765 H750 0.930 . S
C765 N761 1.334 . S
C765 C763 1.390 . S
C766 C763 1.339 . S
C766 C764 1.416 . S
C766 H773 0.930 . S
N767 Tb732 2.572 . S
N767 C768 1.340 . S
N767 C770 1.361 . S
C768 H754 0.930 . S
C768 N767 1.340 . S
C768 C772 1.407 . S
C769 C770 1.413 . S
C769 C771 1.416 . S
C769 C798 1.427 . S
C770 C762 1.424 . S
C770 N767 1.361 . S
C770 C769 1.413 . S
C771 H760 0.931 . S
C771 C769 1.416 . S
C771 C772 1.332 . S
C772 H751 0.929 . S
C772 C768 1.407 . S
C772 C771 1.332 . S
H773 C766 0.930 . S
H774 C797 0.930 . S
H775 C798 0.929 . S
O776 Tb732 2.465 . S
O776 C796 1.264 . S
O777 Tb732 2.387 . S
O777 C788 1.264 . S
O778 Tb743 2.349 . S
O778 C788 1.243 . S
O779 Tb732 2.428 . S
O779 C796 1.256 . S
O780 Tb732 2.308 . S
O780 C795 1.266 . S
O781 Tb743 2.393 . S
O781 C795 1.248 . S
O782 Tb743 2.465 . S
O782 C807 1.264 . S
O783 Tb743 2.387 . S
O783 C799 1.264 . S
O784 Tb732 2.349 . S
O784 C799 1.243 . S
O785 Tb743 2.428 . S
O785 C807 1.256 . S
O786 Tb743 2.308 . S
O786 C806 1.266 . S
O787 Tb732 2.393 . S
O787 C806 1.248 . S
C788 O777 1.264 . S
C788 O778 1.243 . S
C789 C792 1.399 . S
C789 C794 1.383 . S
C789 C796 1.496 . S
C790 C791 1.399 . S
C790 C794 1.389 . S
C791 C790 1.399 . S
C791 C793 1.380 . S
C791 H808 0.929 . S
C792 C789 1.399 . S
C792 C793 1.392 . S
C792 H809 0.929 . S
C793 C791 1.380 . S
C793 C792 1.392 . S
C793 H810 0.929 . S
C794 C789 1.383 . S
C794 C790 1.389 . S
C794 H811 0.931 . S
C795 O780 1.266 . S
C795 O781 1.248 . S
C796 Tb732 2.802 . S
C796 O776 1.264 . S
C796 O779 1.256 . S
C796 C789 1.496 . S
C797 C764 1.448 . S
C797 H774 0.930 . S
C797 C798 1.328 . S
C798 C769 1.427 . S
C798 H775 0.929 . S
C798 C797 1.328 . S
C799 O783 1.264 . S
C799 O784 1.243 . S
C800 C803 1.399 . S
C800 C804 1.383 . S
C800 C807 1.496 . S
C801 C802 1.399 . S
C801 C804 1.389 . S
C802 C801 1.399 . S
C802 C805 1.380 . S
C802 H812 0.929 . S
C803 C800 1.399 . S
C803 C805 1.392 . S
C803 H813 0.929 . S
C804 C800 1.383 . S
C804 C801 1.389 . S
C804 H814 0.931 . S
C805 C802 1.380 . S
C805 C803 1.392 . S
C805 H815 0.929 . S
C806 O786 1.266 . S
C806 O787 1.248 . S
C807 Tb743 2.802 . S
C807 O782 1.264 . S
C807 O785 1.256 . S
C807 C800 1.496 . S
H808 C791 0.929 . S
H809 C792 0.929 . S
H810 C793 0.929 . S
H811 C794 0.931 . S
H812 C802 0.929 . S
H813 C803 0.929 . S
H814 C804 0.931 . S
H815 C805 0.929 . S
Tb816 N845 2.617 . S
Tb816 N851 2.572 . S
Tb816 O860 2.465 . S
Tb816 O861 2.387 1_556 S
Tb816 O863 2.428 . S
Tb816 O864 2.308 . S
Tb816 O868 2.349 1_556 S
Tb816 O871 2.393 1_556 S
Tb816 C880 2.802 . S
C817 N818 1.379 . S
C817 C820 1.414 1_545 S
C817 C824 1.424 . S
N818 C817 1.379 . S
N818 C821 1.334 1_545 S
N818 Tb827 2.617 . S
C819 C821 1.390 . S
C819 C822 1.339 . S
C819 H839 0.930 . S
C820 C817 1.414 1_565 S
C820 C822 1.418 . S
C820 C826 1.448 1_565 S
C821 N818 1.334 1_565 S
C821 C819 1.390 . S
C821 H832 0.930 . S
C822 C819 1.339 . S
C822 C820 1.418 . S
C822 H843 0.930 . S
C823 C824 1.413 . S
C823 C825 1.427 . S
C823 C829 1.416 . S
C824 C817 1.424 . S
C824 C823 1.413 . S
C824 N828 1.361 . S
C825 C823 1.427 . S
C825 C826 1.328 . S
C825 H840 0.929 . S
C826 C820 1.448 1_545 S
C826 C825 1.328 . S
C826 H841 0.930 . S
Tb827 N818 2.617 . S
Tb827 N828 2.572 . S
Tb827 O862 2.349 . S
Tb827 O865 2.366 1_545 S
Tb827 O866 2.465 . S
Tb827 O867 2.387 . S
Tb827 O869 2.424 . S
Tb827 O870 2.308 . S
Tb827 C891 2.802 . S
N828 C824 1.361 . S
N828 Tb827 2.572 . S
N828 C830 1.340 . S
C829 C823 1.416 . S
C829 C831 1.332 . S
C829 H837 0.931 . S
C830 N828 1.340 . S
C830 C831 1.407 . S
C830 H836 0.930 . S
C831 C829 1.332 . S
C831 C830 1.407 . S
C831 H833 0.929 . S
H832 C821 0.930 . S
H833 C831 0.929 . S
H834 C849 0.930 . S
H835 C856 0.929 1_565 S
H836 C830 0.930 . S
H837 C829 0.931 . S
H838 C852 0.930 . S
H839 C819 0.930 . S
H840 C825 0.929 . S
H841 C826 0.930 . S
H842 C847 0.930 . S
H843 C822 0.930 . S
H844 C855 0.931 . S
N845 Tb816 2.617 . S
N845 C846 1.379 . S
N845 C849 1.334 . S
C846 N845 1.379 . S
C846 C848 1.416 . S
C846 C854 1.424 . S
C847 H842 0.930 . S
C847 C849 1.390 . S
C847 C850 1.339 . S
C848 C846 1.416 . S
C848 C850 1.416 . S
C848 C881 1.448 . S
C849 H834 0.930 . S
C849 N845 1.334 . S
C849 C847 1.390 . S
C850 C847 1.339 . S
C850 C848 1.416 . S
C850 H857 0.930 . S
N851 Tb816 2.572 . S
N851 C852 1.340 . S
N851 C854 1.361 . S
C852 H838 0.930 . S
C852 N851 1.340 . S
C852 C856 1.407 . S
C853 C854 1.413 . S
C853 C855 1.416 . S
C853 C882 1.427 . S
C854 C846 1.424 . S
C854 N851 1.361 . S
C854 C853 1.413 . S
C855 H844 0.931 . S
C855 C853 1.416 . S
C855 C856 1.332 . S
C856 H835 0.929 1_545 S
C856 C852 1.407 . S
C856 C855 1.332 . S
H857 C850 0.930 . S
H858 C881 0.930 . S
H859 C882 0.929 . S
O860 Tb816 2.465 . S
O860 C880 1.264 . S
O861 Tb816 2.387 1_554 S
O861 C872 1.264 . S
O862 Tb827 2.349 . S
O862 C872 1.243 . S
O863 Tb816 2.428 . S
O863 C880 1.256 . S
O864 Tb816 2.308 . S
O864 C879 1.266 . S
O865 Tb827 2.366 1_565 S
O865 C879 1.234 1_564 S
O866 Tb827 2.465 . S
O866 C891 1.264 . S
O867 Tb827 2.387 . S
O867 C883 1.264 . S
O868 Tb816 2.349 1_554 S
O868 C883 1.243 . S
O869 Tb827 2.424 . S
O869 C891 1.253 . S
O870 Tb827 2.308 . S
O870 C890 1.266 . S
O871 Tb816 2.393 1_554 S
O871 C890 1.248 . S
C872 O861 1.264 . S
C872 O862 1.243 . S
C873 C876 1.399 . S
C873 C878 1.383 . S
C873 C880 1.496 . S
C874 C875 1.399 . S
C874 C878 1.389 . S
C875 C874 1.399 . S
C875 C877 1.380 . S
C875 H892 0.929 . S
C876 C873 1.399 . S
C876 C877 1.392 . S
C876 H893 0.929 . S
C877 C875 1.380 . S
C877 C876 1.392 . S
C877 H894 0.929 . S
C878 C873 1.383 . S
C878 C874 1.389 . S
C878 H895 0.931 . S
C879 O864 1.266 . S
C879 O865 1.234 1_546 S
C880 Tb816 2.802 . S
C880 O860 1.264 . S
C880 O863 1.256 . S
C880 C873 1.496 . S
C881 C848 1.448 . S
C881 H858 0.930 . S
C881 C882 1.328 . S
C882 C853 1.427 . S
C882 H859 0.929 . S
C882 C881 1.328 . S
C883 O867 1.264 . S
C883 O868 1.243 . S
C884 C887 1.399 1_545 S
C884 C888 1.383 . S
C884 C891 1.496 . S
C885 C886 1.399 1_545 S
C885 C888 1.389 . S
C886 C885 1.399 1_565 S
C886 C889 1.380 . S
C886 H896 0.929 . S
C887 C884 1.399 1_565 S
C887 C889 1.392 . S
C887 H897 0.929 . S
C888 C884 1.383 . S
C888 C885 1.389 . S
C888 H898 0.931 . S
C889 C886 1.380 . S
C889 C887 1.392 . S
C889 H899 0.929 . S
C890 O870 1.266 . S
C890 O871 1.248 . S
C891 Tb827 2.802 . S
C891 O866 1.264 . S
C891 O869 1.253 . S
C891 C884 1.496 . S
H892 C875 0.929 . S
H893 C876 0.929 . S
H894 C877 0.929 . S
H895 C878 0.931 . S
H896 C886 0.929 . S
H897 C887 0.929 . S
H898 C888 0.931 . S
H899 C889 0.929 . S
Tb900 N929 2.617 . S
Tb900 N935 2.572 . S
Tb900 O944 2.465 . S
Tb900 O945 2.387 . S
Tb900 O947 2.428 . S
Tb900 O948 2.308 . S
Tb900 O952 2.349 . S
Tb900 O955 2.393 . S
Tb900 C964 2.802 . S
C901 N902 1.379 . S
C901 C904 1.416 . S
C901 C908 1.424 . S
N902 C901 1.379 . S
N902 C905 1.334 . S
N902 Tb911 2.617 . S
C903 C905 1.390 . S
C903 C906 1.339 . S
C903 H923 0.930 . S
C904 C901 1.416 . S
C904 C906 1.416 . S
C904 C910 1.448 . S
C905 N902 1.334 . S
C905 C903 1.390 . S
C905 H916 0.930 . S
C906 C903 1.339 . S
C906 C904 1.416 . S
C906 H927 0.930 . S
C907 C908 1.413 . S
C907 C909 1.427 . S
C907 C913 1.416 . S
C908 C901 1.424 . S
C908 C907 1.413 . S
C908 N912 1.361 . S
C909 C907 1.427 . S
C909 C910 1.328 . S
C909 H924 0.929 . S
C910 C904 1.448 . S
C910 C909 1.328 . S
C910 H925 0.930 . S
Tb911 N902 2.617 . S
Tb911 N912 2.572 . S
Tb911 O946 2.349 . S
Tb911 O949 2.393 . S
Tb911 O950 2.465 . S
Tb911 O951 2.387 . S
Tb911 O953 2.428 . S
Tb911 O954 2.308 . S
Tb911 C975 2.802 . S
N912 C908 1.361 . S
N912 Tb911 2.572 . S
N912 C914 1.340 . S
C913 C907 1.416 . S
C913 C915 1.332 . S
C913 H921 0.931 . S
C914 N912 1.340 . S
C914 C915 1.407 . S
C914 H920 0.930 . S
C915 C913 1.332 . S
C915 C914 1.407 . S
C915 H917 0.929 . S
H916 C905 0.930 . S
H917 C915 0.929 . S
H918 C933 0.930 . S
H919 C940 0.929 . S
H920 C914 0.930 . S
H921 C913 0.931 . S
H922 C936 0.930 . S
H923 C903 0.930 . S
H924 C909 0.929 . S
H925 C910 0.930 . S
H926 C931 0.930 . S
H927 C906 0.930 . S
H928 C939 0.931 . S
N929 Tb900 2.617 . S
N929 C930 1.379 . S
N929 C933 1.334 . S
C930 N929 1.379 . S
C930 C932 1.416 . S
C930 C938 1.424 . S
C931 H926 0.930 . S
C931 C933 1.390 . S
C931 C934 1.339 . S
C932 C930 1.416 . S
C932 C934 1.416 . S
C932 C965 1.448 . S
C933 H918 0.930 . S
C933 N929 1.334 . S
C933 C931 1.390 . S
C934 C931 1.339 . S
C934 C932 1.416 . S
C934 H941 0.930 . S
N935 Tb900 2.572 . S
N935 C936 1.340 . S
N935 C938 1.361 . S
C936 H922 0.930 . S
C936 N935 1.340 . S
C936 C940 1.407 . S
C937 C938 1.413 . S
C937 C939 1.416 . S
C937 C966 1.427 . S
C938 C930 1.424 . S
C938 N935 1.361 . S
C938 C937 1.413 . S
C939 H928 0.931 . S
C939 C937 1.416 . S
C939 C940 1.332 . S
C940 H919 0.929 . S
C940 C936 1.407 . S
C940 C939 1.332 . S
H941 C934 0.930 . S
H942 C965 0.930 . S
H943 C966 0.929 . S
O944 Tb900 2.465 . S
O944 C964 1.264 . S
O945 Tb900 2.387 . S
O945 C956 1.264 . S
O946 Tb911 2.349 . S
O946 C956 1.243 . S
O947 Tb900 2.428 . S
O947 C964 1.256 . S
O948 Tb900 2.308 . S
O948 C963 1.266 . S
O949 Tb911 2.393 . S
O949 C963 1.248 . S
O950 Tb911 2.465 . S
O950 C975 1.264 . S
O951 Tb911 2.387 . S
O951 C967 1.264 . S
O952 Tb900 2.349 . S
O952 C967 1.243 . S
O953 Tb911 2.428 . S
O953 C975 1.256 . S
O954 Tb911 2.308 . S
O954 C974 1.266 . S
O955 Tb900 2.393 . S
O955 C974 1.248 . S
C956 O945 1.264 . S
C956 O946 1.243 . S
C957 C960 1.399 . S
C957 C962 1.383 . S
C957 C964 1.496 . S
C958 C959 1.399 . S
C958 C962 1.389 . S
C959 C958 1.399 . S
C959 C961 1.380 . S
C959 H976 0.929 . S
C960 C957 1.399 . S
C960 C961 1.392 . S
C960 H977 0.929 . S
C961 C959 1.380 . S
C961 C960 1.392 . S
C961 H978 0.929 . S
C962 C957 1.383 . S
C962 C958 1.389 . S
C962 H979 0.931 . S
C963 O948 1.266 . S
C963 O949 1.248 . S
C964 Tb900 2.802 . S
C964 O944 1.264 . S
C964 O947 1.256 . S
C964 C957 1.496 . S
C965 C932 1.448 . S
C965 H942 0.930 . S
C965 C966 1.328 . S
C966 C937 1.427 . S
C966 H943 0.929 . S
C966 C965 1.328 . S
C967 O951 1.264 . S
C967 O952 1.243 . S
C968 C971 1.399 . S
C968 C972 1.383 . S
C968 C975 1.496 . S
C969 C970 1.399 . S
C969 C972 1.389 . S
C970 C969 1.399 . S
C970 C973 1.380 . S
C970 H980 0.929 . S
C971 C968 1.399 . S
C971 C973 1.392 . S
C971 H981 0.929 . S
C972 C968 1.383 . S
C972 C969 1.389 . S
C972 H982 0.931 . S
C973 C970 1.380 . S
C973 C971 1.392 . S
C973 H983 0.929 . S
C974 O954 1.266 . S
C974 O955 1.248 . S
C975 Tb911 2.802 . S
C975 O950 1.264 . S
C975 O953 1.256 . S
C975 C968 1.496 . S
H976 C959 0.929 . S
H977 C960 0.929 . S
H978 C961 0.929 . S
H979 C962 0.931 . S
H980 C970 0.929 . S
H981 C971 0.929 . S
H982 C972 0.931 . S
H983 C973 0.929 . S
Tb984 N1013 2.617 1_554 S
Tb984 N1019 2.572 1_554 S
Tb984 O1028 2.465 . S
Tb984 O1029 2.387 1_554 S
Tb984 O1031 2.428 . S
Tb984 O1032 2.308 . S
Tb984 O1036 2.349 . S
Tb984 O1039 2.393 . S
Tb984 C1048 2.802 . S
C985 N986 1.379 . S
C985 C988 1.416 . S
C985 C992 1.424 . S
N986 C985 1.379 . S
N986 C989 1.334 . S
N986 Tb995 2.617 . S
C987 C989 1.390 . S
C987 C990 1.339 . S
C987 H1007 0.930 . S
C988 C985 1.416 . S
C988 C990 1.416 . S
C988 C994 1.448 . S
C989 N986 1.334 . S
C989 C987 1.390 . S
C989 H1000 0.930 . S
C990 C987 1.339 . S
C990 C988 1.416 . S
C990 H1011 0.930 . S
C991 C992 1.413 . S
C991 C993 1.427 . S
C991 C997 1.416 . S
C992 C985 1.424 . S
C992 C991 1.413 . S
C992 N996 1.361 . S
C993 C991 1.427 . S
C993 C994 1.328 . S
C993 H1008 0.929 . S
C994 C988 1.448 . S
C994 C993 1.328 . S
C994 H1009 0.930 . S
Tb995 N986 2.617 . S
Tb995 N996 2.572 . S
Tb995 O1030 2.349 1_554 S
Tb995 O1033 2.393 . S
Tb995 O1034 2.465 . S
Tb995 O1035 2.387 . S
Tb995 O1037 2.428 . S
Tb995 O1038 2.308 . S
Tb995 C1059 2.802 . S
N996 C992 1.361 . S
N996 Tb995 2.572 . S
N996 C998 1.340 . S
C997 C991 1.416 . S
C997 C999 1.332 . S
C997 H1005 0.931 . S
C998 N996 1.340 . S
C998 C999 1.407 . S
C998 H1004 0.930 . S
C999 C997 1.332 . S
C999 C998 1.407 . S
C999 H1001 0.929 . S
H1000 C989 0.930 . S
H1001 C999 0.929 . S
H1002 C1017 0.930 . S
H1003 C1024 0.929 . S
H1004 C998 0.930 . S
H1005 C997 0.931 . S
H1006 C1020 0.930 . S
H1007 C987 0.930 . S
H1008 C993 0.929 . S
H1009 C994 0.930 . S
H1010 C1015 0.930 . S
H1011 C990 0.930 . S
H1012 C1023 0.931 . S
N1013 Tb984 2.617 1_556 S
N1013 C1014 1.379 . S
N1013 C1017 1.334 . S
C1014 N1013 1.379 . S
C1014 C1016 1.416 . S
C1014 C1022 1.424 . S
C1015 H1010 0.930 . S
C1015 C1017 1.390 . S
C1015 C1018 1.339 . S
C1016 C1014 1.416 . S
C1016 C1018 1.416 . S
C1016 C1049 1.448 . S
C1017 H1002 0.930 . S
C1017 N1013 1.334 . S
C1017 C1015 1.390 . S
C1018 C1015 1.339 . S
C1018 C1016 1.416 . S
C1018 H1025 0.930 . S
N1019 Tb984 2.572 1_556 S
N1019 C1020 1.340 . S
N1019 C1022 1.361 . S
C1020 H1006 0.930 . S
C1020 N1019 1.340 . S
C1020 C1024 1.407 . S
C1021 C1022 1.413 . S
C1021 C1023 1.416 . S
C1021 C1050 1.427 . S
C1022 C1014 1.424 . S
C1022 N1019 1.361 . S
C1022 C1021 1.413 . S
C1023 H1012 0.931 . S
C1023 C1021 1.416 . S
C1023 C1024 1.332 . S
C1024 H1003 0.929 . S
C1024 C1020 1.407 . S
C1024 C1023 1.332 . S
H1025 C1018 0.930 . S
H1026 C1049 0.930 . S
H1027 C1050 0.929 . S
O1028 Tb984 2.465 . S
O1028 C1048 1.264 . S
O1029 Tb984 2.387 1_556 S
O1029 C1040 1.264 . S
O1030 Tb995 2.349 1_556 S
O1030 C1040 1.243 . S
O1031 Tb984 2.428 . S
O1031 C1048 1.256 . S
O1032 Tb984 2.308 . S
O1032 C1047 1.266 . S
O1033 Tb995 2.393 . S
O1033 C1047 1.248 . S
O1034 Tb995 2.465 . S
O1034 C1059 1.264 . S
O1035 Tb995 2.387 . S
O1035 C1051 1.264 . S
O1036 Tb984 2.349 . S
O1036 C1051 1.243 . S
O1037 Tb995 2.428 . S
O1037 C1059 1.256 . S
O1038 Tb995 2.308 . S
O1038 C1058 1.266 . S
O1039 Tb984 2.393 . S
O1039 C1058 1.248 . S
C1040 O1029 1.264 . S
C1040 O1030 1.243 . S
C1041 C1044 1.399 . S
C1041 C1046 1.383 . S
C1041 C1048 1.496 . S
C1042 C1043 1.399 . S
C1042 C1046 1.389 . S
C1043 C1042 1.399 . S
C1043 C1045 1.380 . S
C1043 H1060 0.929 . S
C1044 C1041 1.399 . S
C1044 C1045 1.392 . S
C1044 H1061 0.929 . S
C1045 C1043 1.380 . S
C1045 C1044 1.392 . S
C1045 H1062 0.929 . S
C1046 C1041 1.383 . S
C1046 C1042 1.389 . S
C1046 H1063 0.931 . S
C1047 O1032 1.266 . S
C1047 O1033 1.248 . S
C1048 Tb984 2.802 . S
C1048 O1028 1.264 . S
C1048 O1031 1.256 . S
C1048 C1041 1.496 . S
C1049 C1016 1.448 . S
C1049 H1026 0.930 . S
C1049 C1050 1.328 . S
C1050 C1021 1.427 . S
C1050 H1027 0.929 . S
C1050 C1049 1.328 . S
C1051 O1035 1.264 . S
C1051 O1036 1.243 . S
C1052 C1055 1.399 . S
C1052 C1056 1.383 . S
C1052 C1059 1.496 1_556 S
C1053 C1054 1.399 . S
C1053 C1056 1.389 . S
C1054 C1053 1.399 . S
C1054 C1057 1.380 . S
C1054 H1064 0.929 . S
C1055 C1052 1.399 . S
C1055 C1057 1.392 . S
C1055 H1065 0.929 . S
C1056 C1052 1.383 . S
C1056 C1053 1.389 . S
C1056 H1066 0.931 . S
C1057 C1054 1.380 . S
C1057 C1055 1.392 . S
C1057 H1067 0.929 . S
C1058 O1038 1.266 . S
C1058 O1039 1.248 . S
C1059 Tb995 2.802 . S
C1059 O1034 1.264 . S
C1059 O1037 1.256 . S
C1059 C1052 1.496 1_554 S
H1060 C1043 0.929 . S
H1061 C1044 0.929 . S
H1062 C1045 0.929 . S
H1063 C1046 0.931 . S
H1064 C1054 0.929 . S
H1065 C1055 0.929 . S
H1066 C1056 0.931 . S
H1067 C1057 0.929 . S
Tb1068 N1097 2.617 . S
Tb1068 N1103 2.572 . S
Tb1068 O1112 2.465 . S
Tb1068 O1113 2.387 . S
Tb1068 O1115 2.428 . S
Tb1068 O1116 2.308 . S
Tb1068 O1120 2.349 . S
Tb1068 O1123 2.393 . S
Tb1068 C1132 2.802 . S
C1069 N1070 1.379 . S
C1069 C1072 1.416 . S
C1069 C1076 1.424 . S
N1070 C1069 1.379 . S
N1070 C1073 1.334 . S
N1070 Tb1079 2.617 . S
C1071 C1073 1.390 . S
C1071 C1074 1.339 . S
C1071 H1091 0.930 . S
C1072 C1069 1.416 . S
C1072 C1074 1.416 . S
C1072 C1078 1.448 . S
C1073 N1070 1.334 . S
C1073 C1071 1.390 . S
C1073 H1084 0.930 . S
C1074 C1071 1.339 . S
C1074 C1072 1.416 . S
C1074 H1095 0.930 . S
C1075 C1076 1.413 . S
C1075 C1077 1.427 . S
C1075 C1081 1.416 . S
C1076 C1069 1.424 . S
C1076 C1075 1.413 . S
C1076 N1080 1.361 . S
C1077 C1075 1.427 . S
C1077 C1078 1.328 . S
C1077 H1092 0.929 . S
C1078 C1072 1.448 . S
C1078 C1077 1.328 . S
C1078 H1093 0.930 . S
Tb1079 N1070 2.617 . S
Tb1079 N1080 2.572 . S
Tb1079 O1114 2.349 . S
Tb1079 O1117 2.393 . S
Tb1079 O1118 2.465 . S
Tb1079 O1119 2.387 . S
Tb1079 O1121 2.428 . S
Tb1079 O1122 2.308 . S
Tb1079 C1143 2.802 . S
N1080 C1076 1.361 . S
N1080 Tb1079 2.572 . S
N1080 C1082 1.340 . S
C1081 C1075 1.416 . S
C1081 C1083 1.332 . S
C1081 H1089 0.931 . S
C1082 N1080 1.340 . S
C1082 C1083 1.407 . S
C1082 H1088 0.930 . S
C1083 C1081 1.332 . S
C1083 C1082 1.407 . S
C1083 H1085 0.929 . S
H1084 C1073 0.930 . S
H1085 C1083 0.929 . S
H1086 C1101 0.930 . S
H1087 C1108 0.929 . S
H1088 C1082 0.930 . S
H1089 C1081 0.931 . S
H1090 C1104 0.930 . S
H1091 C1071 0.930 . S
H1092 C1077 0.929 . S
H1093 C1078 0.930 . S
H1094 C1099 0.930 . S
H1095 C1074 0.930 . S
H1096 C1107 0.931 . S
N1097 Tb1068 2.617 . S
N1097 C1098 1.379 . S
N1097 C1101 1.334 . S
C1098 N1097 1.379 . S
C1098 C1100 1.416 . S
C1098 C1106 1.424 . S
C1099 H1094 0.930 . S
C1099 C1101 1.390 . S
C1099 C1102 1.339 . S
C1100 C1098 1.416 . S
C1100 C1102 1.416 . S
C1100 C1133 1.448 . S
C1101 H1086 0.930 . S
C1101 N1097 1.334 . S
C1101 C1099 1.390 . S
C1102 C1099 1.339 . S
C1102 C1100 1.416 . S
C1102 H1109 0.930 . S
N1103 Tb1068 2.572 . S
N1103 C1104 1.340 . S
N1103 C1106 1.361 . S
C1104 H1090 0.930 . S
C1104 N1103 1.340 . S
C1104 C1108 1.407 . S
C1105 C1106 1.413 . S
C1105 C1107 1.416 . S
C1105 C1134 1.427 . S
C1106 C1098 1.424 . S
C1106 N1103 1.361 . S
C1106 C1105 1.413 . S
C1107 H1096 0.931 . S
C1107 C1105 1.416 . S
C1107 C1108 1.332 . S
C1108 H1087 0.929 . S
C1108 C1104 1.407 . S
C1108 C1107 1.332 . S
H1109 C1102 0.930 . S
H1110 C1133 0.930 . S
H1111 C1134 0.929 . S
O1112 Tb1068 2.465 . S
O1112 C1132 1.264 . S
O1113 Tb1068 2.387 . S
O1113 C1124 1.264 . S
O1114 Tb1079 2.349 . S
O1114 C1124 1.243 . S
O1115 Tb1068 2.428 . S
O1115 C1132 1.256 . S
O1116 Tb1068 2.308 . S
O1116 C1131 1.266 . S
O1117 Tb1079 2.393 . S
O1117 C1131 1.248 . S
O1118 Tb1079 2.465 . S
O1118 C1143 1.264 . S
O1119 Tb1079 2.387 . S
O1119 C1135 1.264 . S
O1120 Tb1068 2.349 . S
O1120 C1135 1.243 . S
O1121 Tb1079 2.428 . S
O1121 C1143 1.256 . S
O1122 Tb1079 2.308 . S
O1122 C1142 1.266 . S
O1123 Tb1068 2.393 . S
O1123 C1142 1.248 . S
C1124 O1113 1.264 . S
C1124 O1114 1.243 . S
C1125 C1128 1.399 . S
C1125 C1130 1.383 . S
C1125 C1132 1.496 . S
C1126 C1127 1.399 . S
C1126 C1130 1.389 . S
C1127 C1126 1.399 . S
C1127 C1129 1.380 . S
C1127 H1144 0.929 . S
C1128 C1125 1.399 . S
C1128 C1129 1.392 . S
C1128 H1145 0.929 . S
C1129 C1127 1.380 . S
C1129 C1128 1.392 . S
C1129 H1146 0.929 . S
C1130 C1125 1.383 . S
C1130 C1126 1.389 . S
C1130 H1147 0.931 . S
C1131 O1116 1.266 . S
C1131 O1117 1.248 . S
C1132 Tb1068 2.802 . S
C1132 O1112 1.264 . S
C1132 O1115 1.256 . S
C1132 C1125 1.496 . S
C1133 C1100 1.448 . S
C1133 H1110 0.930 . S
C1133 C1134 1.328 . S
C1134 C1105 1.427 . S
C1134 H1111 0.929 . S
C1134 C1133 1.328 . S
C1135 O1119 1.264 . S
C1135 O1120 1.243 . S
C1136 C1139 1.399 . S
C1136 C1140 1.383 . S
C1136 C1143 1.496 . S
C1137 C1138 1.399 . S
C1137 C1140 1.389 . S
C1138 C1137 1.399 . S
C1138 C1141 1.380 . S
C1138 H1148 0.929 . S
C1139 C1136 1.399 . S
C1139 C1141 1.392 . S
C1139 H1149 0.929 . S
C1140 C1136 1.383 . S
C1140 C1137 1.389 . S
C1140 H1150 0.931 . S
C1141 C1138 1.380 . S
C1141 C1139 1.392 . S
C1141 H1151 0.929 . S
C1142 O1122 1.266 . S
C1142 O1123 1.248 . S
C1143 Tb1079 2.802 . S
C1143 O1118 1.264 . S
C1143 O1121 1.256 . S
C1143 C1136 1.496 . S
H1144 C1127 0.929 . S
H1145 C1128 0.929 . S
H1146 C1129 0.929 . S
H1147 C1130 0.931 . S
H1148 C1138 0.929 . S
H1149 C1139 0.929 . S
H1150 C1140 0.931 . S
H1151 C1141 0.929 . S
Tb1152 N1181 2.617 1_455 S
Tb1152 N1187 2.572 1_455 S
Tb1152 O1196 2.465 . S
Tb1152 O1197 2.387 1_455 S
Tb1152 O1199 2.428 . S
Tb1152 O1200 2.308 . S
Tb1152 O1204 2.349 . S
Tb1152 O1207 2.393 . S
Tb1152 C1216 2.802 . S
C1153 N1154 1.379 . S
C1153 C1156 1.416 . S
C1153 C1160 1.424 . S
N1154 C1153 1.379 . S
N1154 C1157 1.334 . S
N1154 Tb1163 2.617 . S
C1155 C1157 1.390 . S
C1155 C1158 1.339 . S
C1155 H1175 0.930 . S
C1156 C1153 1.416 . S
C1156 C1158 1.416 . S
C1156 C1162 1.448 . S
C1157 N1154 1.334 . S
C1157 C1155 1.390 . S
C1157 H1168 0.930 . S
C1158 C1155 1.339 . S
C1158 C1156 1.416 . S
C1158 H1179 0.930 . S
C1159 C1160 1.413 . S
C1159 C1161 1.427 . S
C1159 C1165 1.416 . S
C1160 C1153 1.424 . S
C1160 C1159 1.413 . S
C1160 N1164 1.361 . S
C1161 C1159 1.427 . S
C1161 C1162 1.328 . S
C1161 H1176 0.929 . S
C1162 C1156 1.448 . S
C1162 C1161 1.328 . S
C1162 H1177 0.930 . S
Tb1163 N1154 2.617 . S
Tb1163 N1164 2.572 . S
Tb1163 O1198 2.349 1_455 S
Tb1163 O1201 2.393 . S
Tb1163 O1202 2.465 . S
Tb1163 O1203 2.387 . S
Tb1163 O1205 2.428 . S
Tb1163 O1206 2.308 . S
Tb1163 C1227 2.802 1_455 S
N1164 C1160 1.361 . S
N1164 Tb1163 2.572 . S
N1164 C1166 1.340 . S
C1165 C1159 1.416 . S
C1165 C1167 1.332 . S
C1165 H1173 0.931 . S
C1166 N1164 1.340 . S
C1166 C1167 1.407 . S
C1166 H1172 0.930 . S
C1167 C1165 1.332 . S
C1167 C1166 1.407 . S
C1167 H1169 0.929 . S
H1168 C1157 0.930 . S
H1169 C1167 0.929 . S
H1170 C1185 0.930 1_455 S
H1171 C1192 0.929 . S
H1172 C1166 0.930 . S
H1173 C1165 0.931 . S
H1174 C1188 0.930 . S
H1175 C1155 0.930 . S
H1176 C1161 0.929 . S
H1177 C1162 0.930 . S
H1178 C1183 0.930 . S
H1179 C1158 0.930 . S
H1180 C1191 0.931 . S
N1181 Tb1152 2.617 1_655 S
N1181 C1182 1.379 . S
N1181 C1185 1.334 . S
C1182 N1181 1.379 . S
C1182 C1184 1.416 . S
C1182 C1190 1.424 . S
C1183 H1178 0.930 . S
C1183 C1185 1.390 . S
C1183 C1186 1.339 . S
C1184 C1182 1.416 . S
C1184 C1186 1.416 . S
C1184 C1217 1.448 . S
C1185 H1170 0.930 1_655 S
C1185 N1181 1.334 . S
C1185 C1183 1.390 . S
C1186 C1183 1.339 . S
C1186 C1184 1.416 . S
C1186 H1193 0.930 . S
N1187 Tb1152 2.572 1_655 S
N1187 C1188 1.340 . S
N1187 C1190 1.361 . S
C1188 H1174 0.930 . S
C1188 N1187 1.340 . S
C1188 C1192 1.407 . S
C1189 C1190 1.413 . S
C1189 C1191 1.416 . S
C1189 C1218 1.427 . S
C1190 C1182 1.424 . S
C1190 N1187 1.361 . S
C1190 C1189 1.413 . S
C1191 H1180 0.931 . S
C1191 C1189 1.416 . S
C1191 C1192 1.332 . S
C1192 H1171 0.929 . S
C1192 C1188 1.407 . S
C1192 C1191 1.332 . S
H1193 C1186 0.930 . S
H1194 C1217 0.930 . S
H1195 C1218 0.929 . S
O1196 Tb1152 2.465 . S
O1196 C1216 1.264 . S
O1197 Tb1152 2.387 1_655 S
O1197 C1208 1.264 . S
O1198 Tb1163 2.349 1_655 S
O1198 C1208 1.243 . S
O1199 Tb1152 2.428 . S
O1199 C1216 1.256 . S
O1200 Tb1152 2.308 . S
O1200 C1215 1.266 . S
O1201 Tb1163 2.393 . S
O1201 C1215 1.248 . S
O1202 Tb1163 2.465 . S
O1202 C1227 1.264 1_455 S
O1203 Tb1163 2.387 . S
O1203 C1219 1.264 . S
O1204 Tb1152 2.349 . S
O1204 C1219 1.243 . S
O1205 Tb1163 2.428 . S
O1205 C1227 1.256 1_455 S
O1206 Tb1163 2.308 . S
O1206 C1226 1.266 . S
O1207 Tb1152 2.393 . S
O1207 C1226 1.248 . S
C1208 O1197 1.264 . S
C1208 O1198 1.243 . S
C1209 C1212 1.399 . S
C1209 C1214 1.383 . S
C1209 C1216 1.496 . S
C1210 C1211 1.399 . S
C1210 C1214 1.389 . S
C1211 C1210 1.399 . S
C1211 C1213 1.380 . S
C1211 H1228 0.929 . S
C1212 C1209 1.399 . S
C1212 C1213 1.392 . S
C1212 H1229 0.929 . S
C1213 C1211 1.380 . S
C1213 C1212 1.392 . S
C1213 H1230 0.929 . S
C1214 C1209 1.383 . S
C1214 C1210 1.389 . S
C1214 H1231 0.931 . S
C1215 O1200 1.266 . S
C1215 O1201 1.248 . S
C1216 Tb1152 2.802 . S
C1216 O1196 1.264 . S
C1216 O1199 1.256 . S
C1216 C1209 1.496 . S
C1217 C1184 1.448 . S
C1217 H1194 0.930 . S
C1217 C1218 1.328 . S
C1218 C1189 1.427 . S
C1218 H1195 0.929 . S
C1218 C1217 1.328 . S
C1219 O1203 1.264 . S
C1219 O1204 1.243 . S
C1220 C1223 1.399 . S
C1220 C1224 1.383 . S
C1220 C1227 1.496 . S
C1221 C1222 1.399 . S
C1221 C1224 1.389 . S
C1222 C1221 1.399 . S
C1222 C1225 1.380 . S
C1222 H1232 0.929 . S
C1223 C1220 1.399 . S
C1223 C1225 1.392 . S
C1223 H1233 0.929 . S
C1224 C1220 1.383 . S
C1224 C1221 1.389 . S
C1224 H1234 0.931 . S
C1225 C1222 1.380 . S
C1225 C1223 1.392 . S
C1225 H1235 0.929 . S
C1226 O1206 1.266 . S
C1226 O1207 1.248 . S
C1227 Tb1163 2.802 1_655 S
C1227 O1202 1.264 1_655 S
C1227 O1205 1.256 1_655 S
C1227 C1220 1.496 . S
H1228 C1211 0.929 . S
H1229 C1212 0.929 . S
H1230 C1213 0.929 . S
H1231 C1214 0.931 . S
H1232 C1222 0.929 . S
H1233 C1223 0.929 . S
H1234 C1224 0.931 . S
H1235 C1225 0.929 . S
Tb1236 N1265 2.617 . S
Tb1236 N1271 2.572 . S
Tb1236 O1280 2.465 . S
Tb1236 O1281 2.387 . S
Tb1236 O1283 2.428 . S
Tb1236 O1284 2.308 . S
Tb1236 O1288 2.349 . S
Tb1236 O1291 2.393 . S
Tb1236 C1300 2.802 . S
C1237 N1238 1.379 . S
C1237 C1240 1.416 . S
C1237 C1244 1.424 . S
N1238 C1237 1.379 . S
N1238 C1241 1.334 . S
N1238 Tb1247 2.617 . S
C1239 C1241 1.390 . S
C1239 C1242 1.339 . S
C1239 H1259 0.930 . S
C1240 C1237 1.416 . S
C1240 C1242 1.416 . S
C1240 C1246 1.448 . S
C1241 N1238 1.334 . S
C1241 C1239 1.390 . S
C1241 H1252 0.930 . S
C1242 C1239 1.339 . S
C1242 C1240 1.416 . S
C1242 H1263 0.930 . S
C1243 C1244 1.413 . S
C1243 C1245 1.427 . S
C1243 C1249 1.416 . S
C1244 C1237 1.424 . S
C1244 C1243 1.413 . S
C1244 N1248 1.361 . S
C1245 C1243 1.427 . S
C1245 C1246 1.328 . S
C1245 H1260 0.929 . S
C1246 C1240 1.448 . S
C1246 C1245 1.328 . S
C1246 H1261 0.930 . S
Tb1247 N1238 2.617 . S
Tb1247 N1248 2.572 . S
Tb1247 O1282 2.349 . S
Tb1247 O1285 2.393 . S
Tb1247 O1286 2.465 . S
Tb1247 O1287 2.387 . S
Tb1247 O1289 2.428 . S
Tb1247 O1290 2.308 . S
Tb1247 C1311 2.802 . S
N1248 C1244 1.361 . S
N1248 Tb1247 2.572 . S
N1248 C1250 1.340 . S
C1249 C1243 1.416 . S
C1249 C1251 1.332 . S
C1249 H1257 0.931 . S
C1250 N1248 1.340 . S
C1250 C1251 1.407 . S
C1250 H1256 0.930 . S
C1251 C1249 1.332 . S
C1251 C1250 1.407 . S
C1251 H1253 0.929 . S
H1252 C1241 0.930 . S
H1253 C1251 0.929 . S
H1254 C1269 0.930 . S
H1255 C1276 0.929 . S
H1256 C1250 0.930 . S
H1257 C1249 0.931 . S
H1258 C1272 0.930 . S
H1259 C1239 0.930 . S
H1260 C1245 0.929 . S
H1261 C1246 0.930 . S
H1262 C1267 0.930 . S
H1263 C1242 0.930 . S
H1264 C1275 0.931 . S
N1265 Tb1236 2.617 . S
N1265 C1266 1.379 . S
N1265 C1269 1.334 . S
C1266 N1265 1.379 . S
C1266 C1268 1.416 . S
C1266 C1274 1.424 . S
C1267 H1262 0.930 . S
C1267 C1269 1.390 . S
C1267 C1270 1.339 . S
C1268 C1266 1.416 . S
C1268 C1270 1.416 . S
C1268 C1301 1.448 . S
C1269 H1254 0.930 . S
C1269 N1265 1.334 . S
C1269 C1267 1.390 . S
C1270 C1267 1.339 . S
C1270 C1268 1.416 . S
C1270 H1277 0.930 . S
N1271 Tb1236 2.572 . S
N1271 C1272 1.340 . S
N1271 C1274 1.361 . S
C1272 H1258 0.930 . S
C1272 N1271 1.340 . S
C1272 C1276 1.407 . S
C1273 C1274 1.413 . S
C1273 C1275 1.416 . S
C1273 C1302 1.427 . S
C1274 C1266 1.424 . S
C1274 N1271 1.361 . S
C1274 C1273 1.413 . S
C1275 H1264 0.931 . S
C1275 C1273 1.416 . S
C1275 C1276 1.332 . S
C1276 H1255 0.929 . S
C1276 C1272 1.407 . S
C1276 C1275 1.332 . S
H1277 C1270 0.930 . S
H1278 C1301 0.930 . S
H1279 C1302 0.929 . S
O1280 Tb1236 2.465 . S
O1280 C1300 1.264 . S
O1281 Tb1236 2.387 . S
O1281 C1292 1.264 . S
O1282 Tb1247 2.349 . S
O1282 C1292 1.243 . S
O1283 Tb1236 2.428 . S
O1283 C1300 1.256 . S
O1284 Tb1236 2.308 . S
O1284 C1299 1.266 . S
O1285 Tb1247 2.393 . S
O1285 C1299 1.248 . S
O1286 Tb1247 2.465 . S
O1286 C1311 1.264 . S
O1287 Tb1247 2.387 . S
O1287 C1303 1.264 . S
O1288 Tb1236 2.349 . S
O1288 C1303 1.243 . S
O1289 Tb1247 2.428 . S
O1289 C1311 1.256 . S
O1290 Tb1247 2.308 . S
O1290 C1310 1.266 . S
O1291 Tb1236 2.393 . S
O1291 C1310 1.248 . S
C1292 O1281 1.264 . S
C1292 O1282 1.243 . S
C1293 C1296 1.399 . S
C1293 C1298 1.383 . S
C1293 C1300 1.496 . S
C1294 C1295 1.399 . S
C1294 C1298 1.389 . S
C1295 C1294 1.399 . S
C1295 C1297 1.380 . S
C1295 H1312 0.929 . S
C1296 C1293 1.399 . S
C1296 C1297 1.392 . S
C1296 H1313 0.929 . S
C1297 C1295 1.380 . S
C1297 C1296 1.392 . S
C1297 H1314 0.929 . S
C1298 C1293 1.383 . S
C1298 C1294 1.389 . S
C1298 H1315 0.931 . S
C1299 O1284 1.266 . S
C1299 O1285 1.248 . S
C1300 Tb1236 2.802 . S
C1300 O1280 1.264 . S
C1300 O1283 1.256 . S
C1300 C1293 1.496 . S
C1301 C1268 1.448 . S
C1301 H1278 0.930 . S
C1301 C1302 1.328 . S
C1302 C1273 1.427 . S
C1302 H1279 0.929 . S
C1302 C1301 1.328 . S
C1303 O1287 1.264 . S
C1303 O1288 1.243 . S
C1304 C1307 1.399 . S
C1304 C1308 1.383 . S
C1304 C1311 1.496 . S
C1305 C1306 1.399 . S
C1305 C1308 1.389 . S
C1306 C1305 1.399 . S
C1306 C1309 1.380 . S
C1306 H1316 0.929 . S
C1307 C1304 1.399 . S
C1307 C1309 1.392 . S
C1307 H1317 0.929 . S
C1308 C1304 1.383 . S
C1308 C1305 1.389 . S
C1308 H1318 0.931 . S
C1309 C1306 1.380 . S
C1309 C1307 1.392 . S
C1309 H1319 0.929 . S
C1310 O1290 1.266 . S
C1310 O1291 1.248 . S
C1311 Tb1247 2.802 . S
C1311 O1286 1.264 . S
C1311 O1289 1.256 . S
C1311 C1304 1.496 . S
H1312 C1295 0.929 . S
H1313 C1296 0.929 . S
H1314 C1297 0.929 . S
H1315 C1298 0.931 . S
H1316 C1306 0.929 . S
H1317 C1307 0.929 . S
H1318 C1308 0.931 . S
H1319 C1309 0.929 . S
Tb1320 N1349 2.617 . S
Tb1320 N1355 2.572 . S
Tb1320 O1364 2.465 . S
Tb1320 O1365 2.387 . S
Tb1320 O1367 2.428 . S
Tb1320 O1368 2.308 . S
Tb1320 O1372 2.349 . S
Tb1320 O1375 2.393 . S
Tb1320 C1384 2.802 . S
C1321 N1322 1.379 . S
C1321 C1324 1.416 . S
C1321 C1328 1.424 . S
N1322 C1321 1.379 . S
N1322 C1325 1.334 . S
N1322 Tb1331 2.617 . S
C1323 C1325 1.390 . S
C1323 C1326 1.339 . S
C1323 H1343 0.930 . S
C1324 C1321 1.416 . S
C1324 C1326 1.416 . S
C1324 C1330 1.448 . S
C1325 N1322 1.334 . S
C1325 C1323 1.390 . S
C1325 H1336 0.930 . S
C1326 C1323 1.339 . S
C1326 C1324 1.416 . S
C1326 H1347 0.930 . S
C1327 C1328 1.413 . S
C1327 C1329 1.427 . S
C1327 C1333 1.416 . S
C1328 C1321 1.424 . S
C1328 C1327 1.413 . S
C1328 N1332 1.361 . S
C1329 C1327 1.427 . S
C1329 C1330 1.328 . S
C1329 H1344 0.929 . S
C1330 C1324 1.448 . S
C1330 C1329 1.328 . S
C1330 H1345 0.930 . S
Tb1331 N1322 2.617 . S
Tb1331 N1332 2.572 . S
Tb1331 O1366 2.349 . S
Tb1331 O1369 2.393 . S
Tb1331 O1370 2.465 . S
Tb1331 O1371 2.387 . S
Tb1331 O1373 2.428 . S
Tb1331 O1374 2.308 . S
Tb1331 C1395 2.802 . S
N1332 C1328 1.361 . S
N1332 Tb1331 2.572 . S
N1332 C1334 1.340 . S
C1333 C1327 1.416 . S
C1333 C1335 1.332 . S
C1333 H1341 0.931 . S
C1334 N1332 1.340 . S
C1334 C1335 1.407 . S
C1334 H1340 0.930 . S
C1335 C1333 1.332 . S
C1335 C1334 1.407 . S
C1335 H1337 0.929 . S
H1336 C1325 0.930 . S
H1337 C1335 0.929 . S
H1338 C1353 0.930 . S
H1339 C1360 0.929 . S
H1340 C1334 0.930 . S
H1341 C1333 0.931 . S
H1342 C1356 0.930 . S
H1343 C1323 0.930 . S
H1344 C1329 0.929 . S
H1345 C1330 0.930 . S
H1346 C1351 0.930 . S
H1347 C1326 0.930 . S
H1348 C1359 0.931 . S
N1349 Tb1320 2.617 . S
N1349 C1350 1.379 . S
N1349 C1353 1.334 . S
C1350 N1349 1.379 . S
C1350 C1352 1.416 . S
C1350 C1358 1.424 . S
C1351 H1346 0.930 . S
C1351 C1353 1.390 . S
C1351 C1354 1.339 . S
C1352 C1350 1.416 . S
C1352 C1354 1.416 . S
C1352 C1385 1.448 . S
C1353 H1338 0.930 . S
C1353 N1349 1.334 . S
C1353 C1351 1.390 . S
C1354 C1351 1.339 . S
C1354 C1352 1.416 . S
C1354 H1361 0.930 . S
N1355 Tb1320 2.572 . S
N1355 C1356 1.340 . S
N1355 C1358 1.361 . S
C1356 H1342 0.930 . S
C1356 N1355 1.340 . S
C1356 C1360 1.407 . S
C1357 C1358 1.413 . S
C1357 C1359 1.416 . S
C1357 C1386 1.427 . S
C1358 C1350 1.424 . S
C1358 N1355 1.361 . S
C1358 C1357 1.413 . S
C1359 H1348 0.931 . S
C1359 C1357 1.416 . S
C1359 C1360 1.332 . S
C1360 H1339 0.929 . S
C1360 C1356 1.407 . S
C1360 C1359 1.332 . S
H1361 C1354 0.930 . S
H1362 C1385 0.930 . S
H1363 C1386 0.929 . S
O1364 Tb1320 2.465 . S
O1364 C1384 1.264 . S
O1365 Tb1320 2.387 . S
O1365 C1376 1.264 . S
O1366 Tb1331 2.349 . S
O1366 C1376 1.243 . S
O1367 Tb1320 2.428 . S
O1367 C1384 1.256 . S
O1368 Tb1320 2.308 . S
O1368 C1383 1.266 . S
O1369 Tb1331 2.393 . S
O1369 C1383 1.248 . S
O1370 Tb1331 2.465 . S
O1370 C1395 1.264 . S
O1371 Tb1331 2.387 . S
O1371 C1387 1.264 . S
O1372 Tb1320 2.349 . S
O1372 C1387 1.243 . S
O1373 Tb1331 2.428 . S
O1373 C1395 1.256 . S
O1374 Tb1331 2.308 . S
O1374 C1394 1.266 . S
O1375 Tb1320 2.393 . S
O1375 C1394 1.248 . S
C1376 O1365 1.264 . S
C1376 O1366 1.243 . S
C1377 C1380 1.399 . S
C1377 C1382 1.383 . S
C1377 C1384 1.496 . S
C1378 C1379 1.399 . S
C1378 C1382 1.389 . S
C1379 C1378 1.399 . S
C1379 C1381 1.380 . S
C1379 H1396 0.929 . S
C1380 C1377 1.399 . S
C1380 C1381 1.392 . S
C1380 H1397 0.929 . S
C1381 C1379 1.380 . S
C1381 C1380 1.392 . S
C1381 H1398 0.929 . S
C1382 C1377 1.383 . S
C1382 C1378 1.389 . S
C1382 H1399 0.931 . S
C1383 O1368 1.266 . S
C1383 O1369 1.248 . S
C1384 Tb1320 2.802 . S
C1384 O1364 1.264 . S
C1384 O1367 1.256 . S
C1384 C1377 1.496 . S
C1385 C1352 1.448 . S
C1385 H1362 0.930 . S
C1385 C1386 1.328 . S
C1386 C1357 1.427 . S
C1386 H1363 0.929 . S
C1386 C1385 1.328 . S
C1387 O1371 1.264 . S
C1387 O1372 1.243 . S
C1388 C1391 1.399 . S
C1388 C1392 1.383 . S
C1388 C1395 1.496 . S
C1389 C1390 1.399 . S
C1389 C1392 1.389 . S
C1390 C1389 1.399 . S
C1390 C1393 1.380 . S
C1390 H1400 0.929 . S
C1391 C1388 1.399 . S
C1391 C1393 1.392 . S
C1391 H1401 0.929 . S
C1392 C1388 1.383 . S
C1392 C1389 1.389 . S
C1392 H1402 0.931 . S
C1393 C1390 1.380 . S
C1393 C1391 1.392 . S
C1393 H1403 0.929 . S
C1394 O1374 1.266 . S
C1394 O1375 1.248 . S
C1395 Tb1331 2.802 . S
C1395 O1370 1.264 . S
C1395 O1373 1.256 . S
C1395 C1388 1.496 . S
H1396 C1379 0.929 . S
H1397 C1380 0.929 . S
H1398 C1381 0.929 . S
H1399 C1382 0.931 . S
H1400 C1390 0.929 . S
H1401 C1391 0.929 . S
H1402 C1392 0.931 . S
H1403 C1393 0.929 . S
Tb1404 N1433 2.617 . S
Tb1404 N1439 2.572 . S
Tb1404 O1448 2.465 . S
Tb1404 O1449 2.387 . S
Tb1404 O1451 2.428 . S
Tb1404 O1452 2.308 . S
Tb1404 O1456 2.349 . S
Tb1404 O1459 2.393 . S
Tb1404 C1468 2.802 . S
C1405 N1406 1.379 . S
C1405 C1408 1.416 . S
C1405 C1412 1.424 . S
N1406 C1405 1.379 . S
N1406 C1409 1.334 . S
N1406 Tb1415 2.617 . S
C1407 C1409 1.390 . S
C1407 C1410 1.339 . S
C1407 H1427 0.930 . S
C1408 C1405 1.416 . S
C1408 C1410 1.416 . S
C1408 C1414 1.448 . S
C1409 N1406 1.334 . S
C1409 C1407 1.390 . S
C1409 H1420 0.930 . S
C1410 C1407 1.339 . S
C1410 C1408 1.416 . S
C1410 H1431 0.930 . S
C1411 C1412 1.413 . S
C1411 C1413 1.427 . S
C1411 C1417 1.416 . S
C1412 C1405 1.424 . S
C1412 C1411 1.413 . S
C1412 N1416 1.361 . S
C1413 C1411 1.427 . S
C1413 C1414 1.328 . S
C1413 H1428 0.929 . S
C1414 C1408 1.448 . S
C1414 C1413 1.328 . S
C1414 H1429 0.930 . S
Tb1415 N1406 2.617 . S
Tb1415 N1416 2.572 . S
Tb1415 O1450 2.349 . S
Tb1415 O1453 2.393 . S
Tb1415 O1454 2.465 . S
Tb1415 O1455 2.387 . S
Tb1415 O1457 2.428 . S
Tb1415 O1458 2.308 . S
Tb1415 C1479 2.802 . S
N1416 C1412 1.361 . S
N1416 Tb1415 2.572 . S
N1416 C1418 1.340 . S
C1417 C1411 1.416 . S
C1417 C1419 1.332 . S
C1417 H1425 0.931 . S
C1418 N1416 1.340 . S
C1418 C1419 1.407 . S
C1418 H1424 0.930 . S
C1419 C1417 1.332 . S
C1419 C1418 1.407 . S
C1419 H1421 0.929 . S
H1420 C1409 0.930 . S
H1421 C1419 0.929 . S
H1422 C1437 0.930 . S
H1423 C1444 0.929 . S
H1424 C1418 0.930 . S
H1425 C1417 0.931 . S
H1426 C1440 0.930 . S
H1427 C1407 0.930 . S
H1428 C1413 0.929 . S
H1429 C1414 0.930 . S
H1430 C1435 0.930 . S
H1431 C1410 0.930 . S
H1432 C1443 0.931 . S
N1433 Tb1404 2.617 . S
N1433 C1434 1.379 . S
N1433 C1437 1.334 . S
C1434 N1433 1.379 . S
C1434 C1436 1.416 . S
C1434 C1442 1.424 . S
C1435 H1430 0.930 . S
C1435 C1437 1.390 . S
C1435 C1438 1.339 . S
C1436 C1434 1.416 . S
C1436 C1438 1.416 . S
C1436 C1469 1.448 . S
C1437 H1422 0.930 . S
C1437 N1433 1.334 . S
C1437 C1435 1.390 . S
C1438 C1435 1.339 . S
C1438 C1436 1.416 . S
C1438 H1445 0.930 . S
N1439 Tb1404 2.572 . S
N1439 C1440 1.340 . S
N1439 C1442 1.361 . S
C1440 H1426 0.930 . S
C1440 N1439 1.340 . S
C1440 C1444 1.407 . S
C1441 C1442 1.413 . S
C1441 C1443 1.416 . S
C1441 C1470 1.427 . S
C1442 C1434 1.424 . S
C1442 N1439 1.361 . S
C1442 C1441 1.413 . S
C1443 H1432 0.931 . S
C1443 C1441 1.416 . S
C1443 C1444 1.332 . S
C1444 H1423 0.929 . S
C1444 C1440 1.407 . S
C1444 C1443 1.332 . S
H1445 C1438 0.930 . S
H1446 C1469 0.930 . S
H1447 C1470 0.929 . S
O1448 Tb1404 2.465 . S
O1448 C1468 1.264 . S
O1449 Tb1404 2.387 . S
O1449 C1460 1.264 . S
O1450 Tb1415 2.349 . S
O1450 C1460 1.243 . S
O1451 Tb1404 2.428 . S
O1451 C1468 1.256 . S
O1452 Tb1404 2.308 . S
O1452 C1467 1.266 . S
O1453 Tb1415 2.393 . S
O1453 C1467 1.248 . S
O1454 Tb1415 2.465 . S
O1454 C1479 1.264 . S
O1455 Tb1415 2.387 . S
O1455 C1471 1.264 . S
O1456 Tb1404 2.349 . S
O1456 C1471 1.243 . S
O1457 Tb1415 2.428 . S
O1457 C1479 1.256 . S
O1458 Tb1415 2.308 . S
O1458 C1478 1.266 . S
O1459 Tb1404 2.393 . S
O1459 C1478 1.248 . S
C1460 O1449 1.264 . S
C1460 O1450 1.243 . S
C1461 C1464 1.399 . S
C1461 C1466 1.383 . S
C1461 C1468 1.496 . S
C1462 C1463 1.399 . S
C1462 C1466 1.389 . S
C1463 C1462 1.399 . S
C1463 C1465 1.380 . S
C1463 H1480 0.929 . S
C1464 C1461 1.399 . S
C1464 C1465 1.392 . S
C1464 H1481 0.929 . S
C1465 C1463 1.380 . S
C1465 C1464 1.392 . S
C1465 H1482 0.929 . S
C1466 C1461 1.383 . S
C1466 C1462 1.389 . S
C1466 H1483 0.931 . S
C1467 O1452 1.266 . S
C1467 O1453 1.248 . S
C1468 Tb1404 2.802 . S
C1468 O1448 1.264 . S
C1468 O1451 1.256 . S
C1468 C1461 1.496 . S
C1469 C1436 1.448 . S
C1469 H1446 0.930 . S
C1469 C1470 1.328 . S
C1470 C1441 1.427 . S
C1470 H1447 0.929 . S
C1470 C1469 1.328 . S
C1471 O1455 1.264 . S
C1471 O1456 1.243 . S
C1472 C1475 1.399 . S
C1472 C1476 1.383 . S
C1472 C1479 1.496 . S
C1473 C1474 1.399 . S
C1473 C1476 1.389 . S
C1474 C1473 1.399 . S
C1474 C1477 1.380 . S
C1474 H1484 0.929 . S
C1475 C1472 1.399 . S
C1475 C1477 1.392 . S
C1475 H1485 0.929 . S
C1476 C1472 1.383 . S
C1476 C1473 1.389 . S
C1476 H1486 0.931 . S
C1477 C1474 1.380 . S
C1477 C1475 1.392 . S
C1477 H1487 0.929 . S
C1478 O1458 1.266 . S
C1478 O1459 1.248 . S
C1479 Tb1415 2.802 . S
C1479 O1454 1.264 . S
C1479 O1457 1.256 . S
C1479 C1472 1.496 . S
H1480 C1463 0.929 . S
H1481 C1464 0.929 . S
H1482 C1465 0.929 . S
H1483 C1466 0.931 . S
H1484 C1474 0.929 . S
H1485 C1475 0.929 . S
H1486 C1476 0.931 . S
H1487 C1477 0.929 . S
Tb1488 N1517 2.617 . S
Tb1488 N1523 2.572 . S
Tb1488 O1532 2.465 . S
Tb1488 O1533 2.387 . S
Tb1488 O1535 2.428 . S
Tb1488 O1536 2.308 . S
Tb1488 O1540 2.349 . S
Tb1488 O1543 2.393 . S
Tb1488 C1552 2.802 . S
C1489 N1490 1.379 . S
C1489 C1492 1.416 . S
C1489 C1496 1.424 . S
N1490 C1489 1.379 . S
N1490 C1493 1.334 . S
N1490 Tb1499 2.617 . S
C1491 C1493 1.390 . S
C1491 C1494 1.339 . S
C1491 H1511 0.930 . S
C1492 C1489 1.416 . S
C1492 C1494 1.416 . S
C1492 C1498 1.448 . S
C1493 N1490 1.334 . S
C1493 C1491 1.390 . S
C1493 H1504 0.930 . S
C1494 C1491 1.339 . S
C1494 C1492 1.416 . S
C1494 H1515 0.930 . S
C1495 C1496 1.413 . S
C1495 C1497 1.427 . S
C1495 C1501 1.416 . S
C1496 C1489 1.424 . S
C1496 C1495 1.413 . S
C1496 N1500 1.361 . S
C1497 C1495 1.427 . S
C1497 C1498 1.328 . S
C1497 H1512 0.929 . S
C1498 C1492 1.448 . S
C1498 C1497 1.328 . S
C1498 H1513 0.930 . S
Tb1499 N1490 2.617 . S
Tb1499 N1500 2.572 . S
Tb1499 O1534 2.349 . S
Tb1499 O1537 2.393 . S
Tb1499 O1538 2.465 . S
Tb1499 O1539 2.387 . S
Tb1499 O1541 2.428 . S
Tb1499 O1542 2.308 . S
Tb1499 C1563 2.802 . S
N1500 C1496 1.361 . S
N1500 Tb1499 2.572 . S
N1500 C1502 1.340 . S
C1501 C1495 1.416 . S
C1501 C1503 1.332 . S
C1501 H1509 0.931 . S
C1502 N1500 1.340 . S
C1502 C1503 1.407 . S
C1502 H1508 0.930 . S
C1503 C1501 1.332 . S
C1503 C1502 1.407 . S
C1503 H1505 0.929 . S
H1504 C1493 0.930 . S
H1505 C1503 0.929 . S
H1506 C1521 0.930 . S
H1507 C1528 0.929 . S
H1508 C1502 0.930 . S
H1509 C1501 0.931 . S
H1510 C1524 0.930 . S
H1511 C1491 0.930 . S
H1512 C1497 0.929 . S
H1513 C1498 0.930 . S
H1514 C1519 0.930 . S
H1515 C1494 0.930 . S
H1516 C1527 0.931 . S
N1517 Tb1488 2.617 . S
N1517 C1518 1.379 . S
N1517 C1521 1.334 . S
C1518 N1517 1.379 . S
C1518 C1520 1.416 . S
C1518 C1526 1.424 . S
C1519 H1514 0.930 . S
C1519 C1521 1.390 . S
C1519 C1522 1.339 . S
C1520 C1518 1.416 . S
C1520 C1522 1.416 . S
C1520 C1553 1.448 . S
C1521 H1506 0.930 . S
C1521 N1517 1.334 . S
C1521 C1519 1.390 . S
C1522 C1519 1.339 . S
C1522 C1520 1.416 . S
C1522 H1529 0.930 . S
N1523 Tb1488 2.572 . S
N1523 C1524 1.340 . S
N1523 C1526 1.361 . S
C1524 H1510 0.930 . S
C1524 N1523 1.340 . S
C1524 C1528 1.407 . S
C1525 C1526 1.413 . S
C1525 C1527 1.416 . S
C1525 C1554 1.427 . S
C1526 C1518 1.424 . S
C1526 N1523 1.361 . S
C1526 C1525 1.413 . S
C1527 H1516 0.931 . S
C1527 C1525 1.416 . S
C1527 C1528 1.332 . S
C1528 H1507 0.929 . S
C1528 C1524 1.407 . S
C1528 C1527 1.332 . S
H1529 C1522 0.930 . S
H1530 C1553 0.930 . S
H1531 C1554 0.929 . S
O1532 Tb1488 2.465 . S
O1532 C1552 1.264 . S
O1533 Tb1488 2.387 . S
O1533 C1544 1.264 . S
O1534 Tb1499 2.349 . S
O1534 C1544 1.243 . S
O1535 Tb1488 2.428 . S
O1535 C1552 1.256 . S
O1536 Tb1488 2.308 . S
O1536 C1551 1.266 . S
O1537 Tb1499 2.393 . S
O1537 C1551 1.248 . S
O1538 Tb1499 2.465 . S
O1538 C1563 1.264 . S
O1539 Tb1499 2.387 . S
O1539 C1555 1.264 . S
O1540 Tb1488 2.349 . S
O1540 C1555 1.243 . S
O1541 Tb1499 2.428 . S
O1541 C1563 1.256 . S
O1542 Tb1499 2.308 . S
O1542 C1562 1.266 . S
O1543 Tb1488 2.393 . S
O1543 C1562 1.248 . S
C1544 O1533 1.264 . S
C1544 O1534 1.243 . S
C1545 C1548 1.399 . S
C1545 C1550 1.383 . S
C1545 C1552 1.496 . S
C1546 C1547 1.399 . S
C1546 C1550 1.389 . S
C1547 C1546 1.399 . S
C1547 C1549 1.380 . S
C1547 H1564 0.929 . S
C1548 C1545 1.399 . S
C1548 C1549 1.392 . S
C1548 H1565 0.929 . S
C1549 C1547 1.380 . S
C1549 C1548 1.392 . S
C1549 H1566 0.929 . S
C1550 C1545 1.383 . S
C1550 C1546 1.389 . S
C1550 H1567 0.931 . S
C1551 O1536 1.266 . S
C1551 O1537 1.248 . S
C1552 Tb1488 2.802 . S
C1552 O1532 1.264 . S
C1552 O1535 1.256 . S
C1552 C1545 1.496 . S
C1553 C1520 1.448 . S
C1553 H1530 0.930 . S
C1553 C1554 1.328 . S
C1554 C1525 1.427 . S
C1554 H1531 0.929 . S
C1554 C1553 1.328 . S
C1555 O1539 1.264 . S
C1555 O1540 1.243 . S
C1556 C1559 1.399 . S
C1556 C1560 1.383 . S
C1556 C1563 1.496 . S
C1557 C1558 1.399 . S
C1557 C1560 1.389 . S
C1558 C1557 1.399 . S
C1558 C1561 1.380 . S
C1558 H1568 0.929 . S
C1559 C1556 1.399 . S
C1559 C1561 1.392 . S
C1559 H1569 0.929 . S
C1560 C1556 1.383 . S
C1560 C1557 1.389 . S
C1560 H1570 0.931 . S
C1561 C1558 1.380 . S
C1561 C1559 1.392 . S
C1561 H1571 0.929 . S
C1562 O1542 1.266 . S
C1562 O1543 1.248 . S
C1563 Tb1499 2.802 . S
C1563 O1538 1.264 . S
C1563 O1541 1.256 . S
C1563 C1556 1.496 . S
H1564 C1547 0.929 . S
H1565 C1548 0.929 . S
H1566 C1549 0.929 . S
H1567 C1550 0.931 . S
H1568 C1558 0.929 . S
H1569 C1559 0.929 . S
H1570 C1560 0.931 . S
H1571 C1561 0.929 . S
Tb1572 N1601 2.617 . S
Tb1572 N1607 2.572 . S
Tb1572 O1616 2.465 . S
Tb1572 O1617 2.387 1_655 S
Tb1572 O1619 2.428 . S
Tb1572 O1620 2.308 . S
Tb1572 O1624 2.349 1_655 S
Tb1572 O1627 2.393 1_655 S
Tb1572 C1636 2.802 . S
C1573 N1574 1.376 1_554 S
C1573 C1576 1.392 1_554 S
C1573 C1580 1.452 . S
N1574 C1573 1.376 1_556 S
N1574 C1577 1.334 . S
N1574 Tb1583 2.617 1_556 S
C1575 C1577 1.390 . S
C1575 C1578 1.339 . S
C1575 H1595 0.930 . S
C1576 C1573 1.392 1_556 S
C1576 C1578 1.416 . S
C1576 C1582 1.448 . S
C1577 N1574 1.334 . S
C1577 C1575 1.390 . S
C1577 H1588 0.930 . S
C1578 C1575 1.339 . S
C1578 C1576 1.416 . S
C1578 H1599 0.930 . S
C1579 C1580 1.413 . S
C1579 C1581 1.427 . S
C1579 C1585 1.416 . S
C1580 C1573 1.452 . S
C1580 C1579 1.413 . S
C1580 N1584 1.361 . S
C1581 C1579 1.427 . S
C1581 C1582 1.328 1_554 S
C1581 H1596 0.929 . S
C1582 C1576 1.448 . S
C1582 C1581 1.328 1_556 S
C1582 H1597 0.930 . S
Tb1583 N1574 2.617 1_554 S
Tb1583 N1584 2.572 . S
Tb1583 O1618 2.349 . S
Tb1583 O1621 2.393 1_554 S
Tb1583 O1622 2.465 . S
Tb1583 O1623 2.387 . S
Tb1583 O1625 2.437 . S
Tb1583 O1626 2.308 . S
Tb1583 C1647 2.802 . S
N1584 C1580 1.361 . S
N1584 Tb1583 2.572 . S
N1584 C1586 1.340 . S
C1585 C1579 1.416 . S
C1585 C1587 1.332 . S
C1585 H1593 0.931 . S
C1586 N1584 1.340 . S
C1586 C1587 1.407 . S
C1586 H1592 0.930 . S
C1587 C1585 1.332 . S
C1587 C1586 1.407 . S
C1587 H1589 0.929 . S
H1588 C1577 0.930 . S
H1589 C1587 0.929 . S
H1590 C1605 0.930 1_455 S
H1591 C1612 0.970 . S
H1592 C1586 0.930 . S
H1593 C1585 0.931 . S
H1594 C1608 0.930 . S
H1595 C1575 0.930 . S
H1596 C1581 0.929 . S
H1597 C1582 0.930 . S
H1598 C1603 0.930 . S
H1599 C1578 0.930 . S
H1600 C1611 0.931 . S
N1601 Tb1572 2.617 . S
N1601 C1602 1.379 . S
N1601 C1605 1.334 . S
C1602 N1601 1.379 . S
C1602 C1604 1.416 . S
C1602 C1610 1.424 . S
C1603 H1598 0.930 . S
C1603 C1605 1.390 . S
C1603 C1606 1.339 . S
C1604 C1602 1.416 . S
C1604 C1606 1.416 . S
C1604 C1637 1.448 . S
C1605 H1590 0.930 1_655 S
C1605 N1601 1.334 . S
C1605 C1603 1.390 . S
C1606 C1603 1.339 . S
C1606 C1604 1.416 . S
C1606 H1613 0.930 . S
N1607 Tb1572 2.572 . S
N1607 C1608 1.340 . S
N1607 C1610 1.361 . S
C1608 H1594 0.930 . S
C1608 N1607 1.340 . S
C1608 C1612 1.407 . S
C1609 C1610 1.413 . S
C1609 C1611 1.416 . S
C1609 C1638 1.427 . S
C1610 C1602 1.424 . S
C1610 N1607 1.361 . S
C1610 C1609 1.413 . S
C1611 H1600 0.931 . S
C1611 C1609 1.416 . S
C1611 C1612 1.332 . S
C1612 H1591 0.970 . S
C1612 C1608 1.407 . S
C1612 C1611 1.332 . S
H1613 C1606 0.930 . S
H1614 C1637 0.930 . S
H1615 C1638 0.929 . S
O1616 Tb1572 2.465 . S
O1616 C1636 1.264 . S
O1617 Tb1572 2.387 1_455 S
O1617 C1628 1.264 . S
O1618 Tb1583 2.349 . S
O1618 C1628 1.243 . S
O1619 Tb1572 2.428 . S
O1619 C1636 1.256 . S
O1620 Tb1572 2.308 . S
O1620 C1635 1.276 1_655 S
O1621 Tb1583 2.393 1_556 S
O1621 C1635 1.273 1_556 S
O1622 Tb1583 2.465 . S
O1622 C1647 1.264 . S
O1623 Tb1583 2.387 . S
O1623 C1639 1.264 . S
O1624 Tb1572 2.349 1_455 S
O1624 C1639 1.243 . S
O1625 Tb1583 2.437 . S
O1625 C1647 1.268 . S
O1626 Tb1583 2.308 . S
O1626 C1646 1.266 . S
O1627 Tb1572 2.393 1_455 S
O1627 C1646 1.248 . S
C1628 O1617 1.264 . S
C1628 O1618 1.243 . S
C1629 C1632 1.399 . S
C1629 C1634 1.383 . S
C1629 C1636 1.496 . S
C1630 C1631 1.399 . S
C1630 C1634 1.389 . S
C1631 C1630 1.399 . S
C1631 C1633 1.380 . S
C1631 H1648 0.929 . S
C1632 C1629 1.399 . S
C1632 C1633 1.392 . S
C1632 H1649 0.929 . S
C1633 C1631 1.380 . S
C1633 C1632 1.392 . S
C1633 H1650 0.929 . S
C1634 C1629 1.383 . S
C1634 C1630 1.389 . S
C1634 H1651 0.931 . S
C1635 O1620 1.276 1_455 S
C1635 O1621 1.273 1_554 S
C1636 Tb1572 2.802 . S
C1636 O1616 1.264 . S
C1636 O1619 1.256 . S
C1636 C1629 1.496 . S
C1637 C1604 1.448 . S
C1637 H1614 0.930 . S
C1637 C1638 1.328 . S
C1638 C1609 1.427 . S
C1638 H1615 0.929 . S
C1638 C1637 1.328 . S
C1639 O1623 1.264 . S
C1639 O1624 1.243 . S
C1640 C1643 1.399 1_554 S
C1640 C1644 1.383 . S
C1640 C1647 1.496 . S
C1641 C1642 1.399 . S
C1641 C1644 1.389 . S
C1642 C1641 1.399 . S
C1642 C1645 1.380 1_554 S
C1642 H1652 0.929 1_554 S
C1643 C1640 1.399 1_556 S
C1643 C1645 1.392 . S
C1643 H1653 0.929 . S
C1644 C1640 1.383 . S
C1644 C1641 1.389 . S
C1644 H1654 0.931 . S
C1645 C1642 1.380 1_556 S
C1645 C1643 1.392 . S
C1645 H1655 0.929 . S
C1646 O1626 1.266 . S
C1646 O1627 1.248 . S
C1647 Tb1583 2.802 . S
C1647 O1622 1.264 . S
C1647 O1625 1.268 . S
C1647 C1640 1.496 . S
H1648 C1631 0.929 . S
H1649 C1632 0.929 . S
H1650 C1633 0.929 . S
H1651 C1634 0.931 . S
H1652 C1642 0.929 1_556 S
H1653 C1643 0.929 . S
H1654 C1644 0.931 . S
H1655 C1645 0.929 . S
C1656 C1657 1.391 1_655 S
C1656 C1658 1.394 . S
C1656 H1672 0.931 . S
C1657 C1656 1.391 1_455 S
C1657 C1661 1.376 . S
C1658 C1656 1.394 . S
C1658 C1659 1.369 1_655 S
C1658 C1662 1.531 . S
C1659 C1658 1.369 1_455 S
C1659 C1660 1.410 . S
C1659 C1667 1.503 1_556 S
C1660 C1659 1.410 . S
C1660 C1661 1.392 . S
C1660 C1663 1.511 . S
C1661 C1657 1.376 . S
C1661 C1660 1.392 . S
C1661 H1673 0.929 . S
C1662 C1658 1.531 . S
C1662 H1674 0.960 . S
C1662 H1675 0.962 1_556 S
C1662 H1676 0.960 . S
C1663 C1660 1.511 . S
C1663 H1677 0.961 1_556 S
C1663 H1678 0.961 1_556 S
C1663 H1679 0.961 . S
C1664 C1665 1.370 . S
C1664 C1666 1.363 . S
C1664 H1680 0.931 . S
C1665 C1664 1.370 . S
C1665 C1669 1.408 . S
C1666 C1664 1.363 . S
C1666 C1667 1.370 . S
C1666 C1670 1.524 . S
C1667 C1659 1.503 1_554 S
C1667 C1666 1.370 . S
C1667 C1668 1.403 1_554 S
C1668 C1667 1.403 1_556 S
C1668 C1669 1.404 1_556 S
C1668 C1671 1.539 . S
C1669 C1665 1.408 . S
C1669 C1668 1.404 1_554 S
C1669 H1681 0.930 1_554 S
C1670 C1666 1.524 . S
C1670 H1682 0.956 . S
C1670 H1683 0.961 . S
C1670 H1684 0.961 . S
C1671 C1668 1.539 . S
C1671 H1685 0.958 . S
C1671 H1686 0.961 . S
C1671 H1687 0.960 . S
H1672 C1656 0.931 . S
H1673 C1661 0.929 . S
H1674 C1662 0.960 . S
H1675 C1662 0.962 1_554 S
H1676 C1662 0.960 . S
H1677 C1663 0.961 1_554 S
H1678 C1663 0.961 1_554 S
H1679 C1663 0.961 . S
H1680 C1664 0.931 . S
H1681 C1669 0.930 1_556 S
H1682 C1670 0.956 . S
H1683 C1670 0.961 . S
H1684 C1670 0.961 . S
H1685 C1671 0.958 . S
H1686 C1671 0.961 . S
H1687 C1671 0.960 . S
C1688 C1689 1.391 . S
C1688 C1690 1.394 . S
C1688 H1704 0.931 . S
C1689 C1688 1.391 . S
C1689 C1693 1.376 . S
C1690 C1688 1.394 . S
C1690 C1691 1.369 . S
C1690 C1694 1.531 . S
C1691 C1690 1.369 . S
C1691 C1692 1.410 . S
C1691 C1699 1.503 . S
C1692 C1691 1.410 . S
C1692 C1693 1.392 . S
C1692 C1695 1.511 . S
C1693 C1689 1.376 . S
C1693 C1692 1.392 . S
C1693 H1705 0.929 . S
C1694 C1690 1.531 . S
C1694 H1706 0.960 . S
C1694 H1707 0.962 . S
C1694 H1708 0.960 . S
C1695 C1692 1.511 . S
C1695 H1709 0.961 . S
C1695 H1710 0.961 . S
C1695 H1711 0.961 . S
C1696 C1697 1.370 . S
C1696 C1698 1.363 . S
C1696 H1712 0.931 . S
C1697 C1696 1.370 . S
C1697 C1701 1.408 . S
C1698 C1696 1.363 . S
C1698 C1699 1.370 . S
C1698 C1702 1.524 . S
C1699 C1691 1.503 . S
C1699 C1698 1.370 . S
C1699 C1700 1.403 . S
C1700 C1699 1.403 . S
C1700 C1701 1.404 . S
C1700 C1703 1.539 . S
C1701 C1697 1.408 . S
C1701 C1700 1.404 . S
C1701 H1713 0.930 . S
C1702 C1698 1.524 . S
C1702 H1714 0.956 . S
C1702 H1715 0.961 . S
C1702 H1716 0.961 . S
C1703 C1700 1.539 . S
C1703 H1717 0.958 . S
C1703 H1718 0.961 . S
C1703 H1719 0.960 . S
H1704 C1688 0.931 . S
H1705 C1693 0.929 . S
H1706 C1694 0.960 . S
H1707 C1694 0.962 . S
H1708 C1694 0.960 . S
H1709 C1695 0.961 . S
H1710 C1695 0.961 . S
H1711 C1695 0.961 . S
H1712 C1696 0.931 . S
H1713 C1701 0.930 . S
H1714 C1702 0.956 . S
H1715 C1702 0.961 . S
H1716 C1702 0.961 . S
H1717 C1703 0.958 . S
H1718 C1703 0.961 . S
H1719 C1703 0.960 . S
C1720 C1721 1.391 . S
C1720 C1722 1.394 . S
C1720 H1736 0.931 . S
C1721 C1720 1.391 . S
C1721 C1725 1.376 . S
C1722 C1720 1.394 . S
C1722 C1723 1.369 . S
C1722 C1726 1.531 . S
C1723 C1722 1.369 . S
C1723 C1724 1.410 . S
C1723 C1731 1.503 . S
C1724 C1723 1.410 . S
C1724 C1725 1.392 . S
C1724 C1727 1.511 . S
C1725 C1721 1.376 . S
C1725 C1724 1.392 . S
C1725 H1737 0.929 . S
C1726 C1722 1.531 . S
C1726 H1738 0.960 . S
C1726 H1739 0.962 . S
C1726 H1740 0.960 . S
C1727 C1724 1.511 . S
C1727 H1741 0.961 . S
C1727 H1742 0.961 . S
C1727 H1743 0.961 . S
C1728 C1729 1.370 . S
C1728 C1730 1.363 . S
C1728 H1744 0.931 . S
C1729 C1728 1.370 . S
C1729 C1733 1.408 . S
C1730 C1728 1.363 . S
C1730 C1731 1.370 . S
C1730 C1734 1.524 . S
C1731 C1723 1.503 . S
C1731 C1730 1.370 . S
C1731 C1732 1.403 . S
C1732 C1731 1.403 . S
C1732 C1733 1.404 . S
C1732 C1735 1.539 . S
C1733 C1729 1.408 . S
C1733 C1732 1.404 . S
C1733 H1745 0.930 . S
C1734 C1730 1.524 . S
C1734 H1746 0.956 . S
C1734 H1747 0.961 . S
C1734 H1748 0.961 . S
C1735 C1732 1.539 . S
C1735 H1749 0.958 . S
C1735 H1750 0.961 . S
C1735 H1751 0.960 . S
H1736 C1720 0.931 . S
H1737 C1725 0.929 . S
H1738 C1726 0.960 . S
H1739 C1726 0.962 . S
H1740 C1726 0.960 . S
H1741 C1727 0.961 . S
H1742 C1727 0.961 . S
H1743 C1727 0.961 . S
H1744 C1728 0.931 . S
H1745 C1733 0.930 . S
H1746 C1734 0.956 . S
H1747 C1734 0.961 . S
H1748 C1734 0.961 . S
H1749 C1735 0.958 . S
H1750 C1735 0.961 . S
H1751 C1735 0.960 . S
C1752 C1753 1.391 . S
C1752 C1754 1.394 . S
C1752 H1768 0.931 . S
C1753 C1752 1.391 . S
C1753 C1757 1.376 . S
C1754 C1752 1.394 . S
C1754 C1755 1.369 . S
C1754 C1758 1.531 . S
C1755 C1754 1.369 . S
C1755 C1756 1.410 . S
C1755 C1763 1.503 . S
C1756 C1755 1.410 . S
C1756 C1757 1.392 . S
C1756 C1759 1.511 . S
C1757 C1753 1.376 . S
C1757 C1756 1.392 . S
C1757 H1769 0.929 . S
C1758 C1754 1.531 . S
C1758 H1770 0.960 . S
C1758 H1771 0.962 . S
C1758 H1772 0.960 . S
C1759 C1756 1.511 . S
C1759 H1773 0.961 . S
C1759 H1774 0.961 . S
C1759 H1775 0.961 . S
C1760 C1761 1.370 . S
C1760 C1762 1.363 . S
C1760 H1776 0.931 . S
C1761 C1760 1.370 . S
C1761 C1765 1.408 . S
C1762 C1760 1.363 . S
C1762 C1763 1.370 . S
C1762 C1766 1.524 . S
C1763 C1755 1.503 . S
C1763 C1762 1.370 . S
C1763 C1764 1.403 . S
C1764 C1763 1.403 . S
C1764 C1765 1.404 . S
C1764 C1767 1.539 . S
C1765 C1761 1.408 . S
C1765 C1764 1.404 . S
C1765 H1777 0.930 . S
C1766 C1762 1.524 . S
C1766 H1778 0.956 . S
C1766 H1779 0.961 . S
C1766 H1780 0.961 . S
C1767 C1764 1.539 . S
C1767 H1781 0.958 . S
C1767 H1782 0.961 . S
C1767 H1783 0.960 . S
H1768 C1752 0.931 . S
H1769 C1757 0.929 . S
H1770 C1758 0.960 . S
H1771 C1758 0.962 . S
H1772 C1758 0.960 . S
H1773 C1759 0.961 . S
H1774 C1759 0.961 . S
H1775 C1759 0.961 . S
H1776 C1760 0.931 . S
H1777 C1765 0.930 . S
H1778 C1766 0.956 . S
H1779 C1766 0.961 . S
H1780 C1766 0.961 . S
H1781 C1767 0.958 . S
H1782 C1767 0.961 . S
H1783 C1767 0.960 . S
C1784 C1785 1.391 . S
C1784 C1786 1.394 . S
C1784 H1800 0.931 . S
C1785 C1784 1.391 . S
C1785 C1789 1.376 . S
C1786 C1784 1.394 . S
C1786 C1787 1.369 . S
C1786 C1790 1.531 . S
C1787 C1786 1.369 . S
C1787 C1788 1.410 . S
C1787 C1795 1.503 . S
C1788 C1787 1.410 . S
C1788 C1789 1.392 . S
C1788 C1791 1.511 . S
C1789 C1785 1.376 . S
C1789 C1788 1.392 . S
C1789 H1801 0.929 . S
C1790 C1786 1.531 . S
C1790 H1802 0.960 . S
C1790 H1803 0.962 1_455 S
C1790 H1804 0.960 . S
C1791 C1788 1.511 . S
C1791 H1805 0.961 . S
C1791 H1806 0.961 . S
C1791 H1807 0.961 . S
C1792 C1793 1.370 . S
C1792 C1794 1.363 . S
C1792 H1808 0.931 . S
C1793 C1792 1.370 . S
C1793 C1797 1.408 . S
C1794 C1792 1.363 . S
C1794 C1795 1.370 . S
C1794 C1798 1.524 . S
C1795 C1787 1.503 . S
C1795 C1794 1.370 . S
C1795 C1796 1.403 . S
C1796 C1795 1.403 . S
C1796 C1797 1.404 . S
C1796 C1799 1.539 . S
C1797 C1793 1.408 . S
C1797 C1796 1.404 . S
C1797 H1809 0.930 . S
C1798 C1794 1.524 . S
C1798 H1810 0.956 1_455 S
C1798 H1811 0.961 . S
C1798 H1812 0.961 1_455 S
C1799 C1796 1.539 . S
C1799 H1813 0.958 . S
C1799 H1814 0.961 . S
C1799 H1815 0.960 . S
H1800 C1784 0.931 . S
H1801 C1789 0.929 . S
H1802 C1790 0.960 . S
H1803 C1790 0.962 1_655 S
H1804 C1790 0.960 . S
H1805 C1791 0.961 . S
H1806 C1791 0.961 . S
H1807 C1791 0.961 . S
H1808 C1792 0.931 . S
H1809 C1797 0.930 . S
H1810 C1798 0.956 1_655 S
H1811 C1798 0.961 . S
H1812 C1798 0.961 1_655 S
H1813 C1799 0.958 . S
H1814 C1799 0.961 . S
H1815 C1799 0.960 . S
C1816 C1817 1.391 . S
C1816 C1818 1.394 . S
C1816 H1832 0.931 . S
C1817 C1816 1.391 . S
C1817 C1821 1.376 . S
C1818 C1816 1.394 . S
C1818 C1819 1.369 . S
C1818 C1822 1.531 . S
C1819 C1818 1.369 . S
C1819 C1820 1.410 . S
C1819 C1827 1.503 . S
C1820 C1819 1.410 . S
C1820 C1821 1.392 . S
C1820 C1823 1.511 . S
C1821 C1817 1.376 . S
C1821 C1820 1.392 . S
C1821 H1833 0.929 . S
C1822 C1818 1.531 . S
C1822 H1834 0.960 . S
C1822 H1835 0.962 . S
C1822 H1836 0.960 . S
C1823 C1820 1.511 . S
C1823 H1837 0.961 . S
C1823 H1838 0.961 . S
C1823 H1839 0.961 . S
C1824 C1825 1.370 . S
C1824 C1826 1.363 . S
C1824 H1840 0.931 . S
C1825 C1824 1.370 . S
C1825 C1829 1.408 . S
C1826 C1824 1.363 . S
C1826 C1827 1.370 . S
C1826 C1830 1.524 . S
C1827 C1819 1.503 . S
C1827 C1826 1.370 . S
C1827 C1828 1.403 . S
C1828 C1827 1.403 . S
C1828 C1829 1.404 . S
C1828 C1831 1.539 . S
C1829 C1825 1.408 . S
C1829 C1828 1.404 . S
C1829 H1841 0.930 . S
C1830 C1826 1.524 . S
C1830 H1842 0.956 . S
C1830 H1843 0.961 . S
C1830 H1844 0.961 . S
C1831 C1828 1.539 . S
C1831 H1845 0.958 . S
C1831 H1846 0.961 . S
C1831 H1847 0.960 . S
H1832 C1816 0.931 . S
H1833 C1821 0.929 . S
H1834 C1822 0.960 . S
H1835 C1822 0.962 . S
H1836 C1822 0.960 . S
H1837 C1823 0.961 . S
H1838 C1823 0.961 . S
H1839 C1823 0.961 . S
H1840 C1824 0.931 . S
H1841 C1829 0.930 . S
H1842 C1830 0.956 . S
H1843 C1830 0.961 . S
H1844 C1830 0.961 . S
H1845 C1831 0.958 . S
H1846 C1831 0.961 . S
H1847 C1831 0.960 . S
C1848 C1849 1.391 . S
C1848 C1850 1.394 . S
C1848 H1864 0.931 . S
C1849 C1848 1.391 . S
C1849 C1853 1.376 . S
C1850 C1848 1.394 . S
C1850 C1851 1.369 . S
C1850 C1854 1.531 . S
C1851 C1850 1.369 . S
C1851 C1852 1.410 . S
C1851 C1859 1.503 . S
C1852 C1851 1.410 . S
C1852 C1853 1.392 . S
C1852 C1855 1.511 . S
C1853 C1849 1.376 . S
C1853 C1852 1.392 . S
C1853 H1865 0.929 . S
C1854 C1850 1.531 . S
C1854 H1866 0.960 . S
C1854 H1867 0.962 . S
C1854 H1868 0.960 . S
C1855 C1852 1.511 . S
C1855 H1869 0.961 . S
C1855 H1870 0.961 . S
C1855 H1871 0.961 . S
C1856 C1857 1.370 . S
C1856 C1858 1.363 . S
C1856 H1872 0.931 . S
C1857 C1856 1.370 . S
C1857 C1861 1.408 . S
C1858 C1856 1.363 . S
C1858 C1859 1.370 . S
C1858 C1862 1.524 . S
C1859 C1851 1.503 . S
C1859 C1858 1.370 . S
C1859 C1860 1.403 . S
C1860 C1859 1.403 . S
C1860 C1861 1.404 . S
C1860 C1863 1.539 . S
C1861 C1857 1.408 . S
C1861 C1860 1.404 . S
C1861 H1873 0.930 . S
C1862 C1858 1.524 . S
C1862 H1874 0.956 . S
C1862 H1875 0.961 . S
C1862 H1876 0.961 . S
C1863 C1860 1.539 . S
C1863 H1877 0.958 . S
C1863 H1878 0.961 . S
C1863 H1879 0.960 . S
H1864 C1848 0.931 . S
H1865 C1853 0.929 . S
H1866 C1854 0.960 . S
H1867 C1854 0.962 . S
H1868 C1854 0.960 . S
H1869 C1855 0.961 . S
H1870 C1855 0.961 . S
H1871 C1855 0.961 . S
H1872 C1856 0.931 . S
H1873 C1861 0.930 . S
H1874 C1862 0.956 . S
H1875 C1862 0.961 . S
H1876 C1862 0.961 . S
H1877 C1863 0.958 . S
H1878 C1863 0.961 . S
H1879 C1863 0.960 . S
C1880 C1881 1.391 . S
C1880 C1882 1.394 . S
C1880 H1896 0.931 . S
C1881 C1880 1.391 . S
C1881 C1885 1.376 . S
C1882 C1880 1.394 . S
C1882 C1883 1.369 . S
C1882 C1886 1.531 . S
C1883 C1882 1.369 . S
C1883 C1884 1.410 . S
C1883 C1891 1.503 . S
C1884 C1883 1.410 . S
C1884 C1885 1.392 . S
C1884 C1887 1.511 . S
C1885 C1881 1.376 . S
C1885 C1884 1.392 . S
C1885 H1897 0.929 . S
C1886 C1882 1.531 . S
C1886 H1898 0.960 . S
C1886 H1899 0.962 . S
C1886 H1900 0.960 . S
C1887 C1884 1.511 . S
C1887 H1901 0.961 . S
C1887 H1902 0.961 . S
C1887 H1903 0.961 . S
C1888 C1889 1.370 . S
C1888 C1890 1.363 . S
C1888 H1904 0.931 . S
C1889 C1888 1.370 . S
C1889 C1893 1.408 . S
C1890 C1888 1.363 . S
C1890 C1891 1.370 . S
C1890 C1894 1.524 . S
C1891 C1883 1.503 . S
C1891 C1890 1.370 . S
C1891 C1892 1.403 . S
C1892 C1891 1.403 . S
C1892 C1893 1.404 . S
C1892 C1895 1.539 . S
C1893 C1889 1.408 . S
C1893 C1892 1.404 . S
C1893 H1905 0.930 . S
C1894 C1890 1.524 . S
C1894 H1906 0.956 . S
C1894 H1907 0.961 . S
C1894 H1908 0.961 . S
C1895 C1892 1.539 . S
C1895 H1909 0.958 . S
C1895 H1910 0.961 . S
C1895 H1911 0.960 . S
H1896 C1880 0.931 . S
H1897 C1885 0.929 . S
H1898 C1886 0.960 . S
H1899 C1886 0.962 . S
H1900 C1886 0.960 . S
H1901 C1887 0.961 . S
H1902 C1887 0.961 . S
H1903 C1887 0.961 . S
H1904 C1888 0.931 . S
H1905 C1893 0.930 . S
H1906 C1894 0.956 . S
H1907 C1894 0.961 . S
H1908 C1894 0.961 . S
H1909 C1895 0.958 . S
H1910 C1895 0.961 . S
H1911 C1895 0.960 . S
C1912 C1913 1.391 . S
C1912 C1914 1.394 . S
C1912 H1928 0.931 . S
C1913 C1912 1.391 . S
C1913 C1917 1.376 . S
C1914 C1912 1.394 . S
C1914 C1915 1.369 . S
C1914 C1918 1.531 . S
C1915 C1914 1.369 . S
C1915 C1916 1.410 . S
C1915 C1923 1.503 . S
C1916 C1915 1.410 . S
C1916 C1917 1.392 . S
C1916 C1919 1.511 1_655 S
C1917 C1913 1.376 . S
C1917 C1916 1.392 . S
C1917 H1929 0.929 . S
C1918 C1914 1.531 . S
C1918 H1930 0.960 . S
C1918 H1931 0.962 . S
C1918 H1932 0.960 . S
C1919 C1916 1.511 1_455 S
C1919 H1933 0.961 . S
C1919 H1934 0.961 . S
C1919 H1935 0.961 . S
C1920 C1921 1.359 1_655 S
C1920 C1922 1.375 . S
C1920 H1936 0.931 . S
C1921 C1920 1.359 1_455 S
C1921 C1925 1.408 . S
C1922 C1920 1.375 . S
C1922 C1923 1.370 . S
C1922 C1926 1.524 . S
C1923 C1915 1.503 . S
C1923 C1922 1.370 . S
C1923 C1924 1.403 1_655 S
C1924 C1923 1.403 1_455 S
C1924 C1925 1.404 . S
C1924 C1927 1.539 . S
C1925 C1921 1.408 . S
C1925 C1924 1.404 . S
C1925 H1937 0.930 . S
C1926 C1922 1.524 . S
C1926 H1938 0.956 . S
C1926 H1939 0.961 1_545 S
C1926 H1940 0.961 1_545 S
C1927 C1924 1.539 . S
C1927 H1941 0.958 . S
C1927 H1942 0.961 . S
C1927 H1943 0.960 . S
H1928 C1912 0.931 . S
H1929 C1917 0.929 . S
H1930 C1918 0.960 . S
H1931 C1918 0.962 . S
H1932 C1918 0.960 . S
H1933 C1919 0.961 . S
H1934 C1919 0.961 . S
H1935 C1919 0.961 . S
H1936 C1920 0.931 . S
H1937 C1925 0.930 . S
H1938 C1926 0.956 . S
H1939 C1926 0.961 1_565 S
H1940 C1926 0.961 1_565 S
H1941 C1927 0.958 . S
H1942 C1927 0.961 . S
H1943 C1927 0.960 . S
C1944 C1945 1.391 . S
C1944 C1946 1.394 . S
C1944 H1960 0.931 . S
C1945 C1944 1.391 . S
C1945 C1949 1.376 . S
C1946 C1944 1.394 . S
C1946 C1947 1.369 . S
C1946 C1950 1.531 . S
C1947 C1946 1.369 . S
C1947 C1948 1.410 . S
C1947 C1955 1.503 . S
C1948 C1947 1.410 . S
C1948 C1949 1.392 . S
C1948 C1951 1.511 . S
C1949 C1945 1.376 . S
C1949 C1948 1.392 . S
C1949 H1961 0.929 . S
C1950 C1946 1.531 . S
C1950 H1962 0.960 . S
C1950 H1963 0.962 . S
C1950 H1964 0.960 . S
C1951 C1948 1.511 . S
C1951 H1965 0.961 . S
C1951 H1966 0.961 . S
C1951 H1967 0.961 . S
C1952 C1953 1.370 . S
C1952 C1954 1.363 . S
C1952 H1968 0.931 . S
C1953 C1952 1.370 . S
C1953 C1957 1.408 . S
C1954 C1952 1.363 . S
C1954 C1955 1.370 . S
C1954 C1958 1.524 . S
C1955 C1947 1.503 . S
C1955 C1954 1.370 . S
C1955 C1956 1.403 . S
C1956 C1955 1.403 . S
C1956 C1957 1.404 . S
C1956 C1959 1.539 . S
C1957 C1953 1.408 . S
C1957 C1956 1.404 . S
C1957 H1969 0.930 . S
C1958 C1954 1.524 . S
C1958 H1970 0.956 . S
C1958 H1971 0.961 . S
C1958 H1972 0.961 . S
C1959 C1956 1.539 . S
C1959 H1973 0.958 . S
C1959 H1974 0.961 . S
C1959 H1975 0.960 . S
H1960 C1944 0.931 . S
H1961 C1949 0.929 . S
H1962 C1950 0.960 . S
H1963 C1950 0.962 . S
H1964 C1950 0.960 . S
H1965 C1951 0.961 . S
H1966 C1951 0.961 . S
H1967 C1951 0.961 . S
H1968 C1952 0.931 . S
H1969 C1957 0.930 . S
H1970 C1958 0.956 . S
H1971 C1958 0.961 . S
H1972 C1958 0.961 . S
H1973 C1959 0.958 . S
H1974 C1959 0.961 . S
H1975 C1959 0.960 . S
C1976 C1977 1.391 . S
C1976 C1978 1.394 . S
C1976 H1992 0.931 . S
C1977 C1976 1.391 . S
C1977 C1981 1.376 . S
C1978 C1976 1.394 . S
C1978 C1979 1.369 . S
C1978 C1982 1.531 . S
C1979 C1978 1.369 . S
C1979 C1980 1.410 . S
C1979 C1987 1.503 . S
C1980 C1979 1.410 . S
C1980 C1981 1.392 . S
C1980 C1983 1.511 . S
C1981 C1977 1.376 . S
C1981 C1980 1.392 . S
C1981 H1993 0.929 . S
C1982 C1978 1.531 . S
C1982 H1994 0.960 . S
C1982 H1995 0.962 . S
C1982 H1996 0.960 . S
C1983 C1980 1.511 . S
C1983 H1997 0.961 . S
C1983 H1998 0.961 . S
C1983 H1999 0.961 . S
C1984 C1985 1.370 . S
C1984 C1986 1.363 . S
C1984 H2000 0.931 1_545 S
C1985 C1984 1.370 . S
C1985 C1989 1.408 . S
C1986 C1984 1.363 . S
C1986 C1987 1.370 . S
C1986 C1990 1.524 1_545 S
C1987 C1979 1.503 . S
C1987 C1986 1.370 . S
C1987 C1988 1.403 . S
C1988 C1987 1.403 . S
C1988 C1989 1.404 . S
C1988 C1991 1.539 . S
C1989 C1985 1.408 . S
C1989 C1988 1.404 . S
C1989 H2001 0.930 . S
C1990 C1986 1.524 1_565 S
C1990 H2002 0.956 1_565 S
C1990 H2003 0.961 . S
C1990 H2004 0.961 . S
C1991 C1988 1.539 . S
C1991 H2005 0.958 . S
C1991 H2006 0.961 . S
C1991 H2007 0.960 . S
H1992 C1976 0.931 . S
H1993 C1981 0.929 . S
H1994 C1982 0.960 . S
H1995 C1982 0.962 . S
H1996 C1982 0.960 . S
H1997 C1983 0.961 . S
H1998 C1983 0.961 . S
H1999 C1983 0.961 . S
H2000 C1984 0.931 1_565 S
H2001 C1989 0.930 . S
H2002 C1990 0.956 1_545 S
H2003 C1990 0.961 . S
H2004 C1990 0.961 . S
H2005 C1991 0.958 . S
H2006 C1991 0.961 . S
H2007 C1991 0.960 . S
C2008 C2009 1.391 . S
C2008 C2010 1.394 . S
C2008 H2024 0.931 . S
C2009 C2008 1.391 . S
C2009 C2013 1.376 . S
C2010 C2008 1.394 . S
C2010 C2011 1.369 . S
C2010 C2014 1.531 . S
C2011 C2010 1.369 . S
C2011 C2012 1.410 . S
C2011 C2019 1.503 . S
C2012 C2011 1.410 . S
C2012 C2013 1.392 . S
C2012 C2015 1.511 . S
C2013 C2009 1.376 . S
C2013 C2012 1.392 . S
C2013 H2025 0.929 . S
C2014 C2010 1.531 . S
C2014 H2026 0.960 . S
C2014 H2027 0.962 . S
C2014 H2028 0.960 . S
C2015 C2012 1.511 . S
C2015 H2029 0.961 . S
C2015 H2030 0.961 . S
C2015 H2031 0.961 . S
C2016 C2017 1.370 . S
C2016 C2018 1.363 . S
C2016 H2032 0.931 . S
C2017 C2016 1.370 . S
C2017 C2021 1.408 . S
C2018 C2016 1.363 . S
C2018 C2019 1.370 . S
C2018 C2022 1.524 . S
C2019 C2011 1.503 . S
C2019 C2018 1.370 . S
C2019 C2020 1.403 . S
C2020 C2019 1.403 . S
C2020 C2021 1.404 . S
C2020 C2023 1.539 . S
C2021 C2017 1.408 . S
C2021 C2020 1.404 . S
C2021 H2033 0.930 . S
C2022 C2018 1.524 . S
C2022 H2034 0.956 . S
C2022 H2035 0.961 . S
C2022 H2036 0.961 . S
C2023 C2020 1.539 . S
C2023 H2037 0.958 . S
C2023 H2038 0.961 . S
C2023 H2039 0.960 . S
H2024 C2008 0.931 . S
H2025 C2013 0.929 . S
H2026 C2014 0.960 . S
H2027 C2014 0.962 . S
H2028 C2014 0.960 . S
H2029 C2015 0.961 . S
H2030 C2015 0.961 . S
H2031 C2015 0.961 . S
H2032 C2016 0.931 . S
H2033 C2021 0.930 . S
H2034 C2022 0.956 . S
H2035 C2022 0.961 . S
H2036 C2022 0.961 . S
H2037 C2023 0.958 . S
H2038 C2023 0.961 . S
H2039 C2023 0.960 . S
C2040 C2041 1.391 . S
C2040 C2042 1.394 . S
C2040 H2056 0.931 . S
C2041 C2040 1.391 . S
C2041 C2045 1.376 1_545 S
C2042 C2040 1.394 . S
C2042 C2043 1.369 . S
C2042 C2046 1.531 . S
C2043 C2042 1.369 . S
C2043 C2044 1.410 1_545 S
C2043 C2051 1.503 . S
C2044 C2043 1.410 1_565 S
C2044 C2045 1.392 . S
C2044 C2047 1.511 . S
C2045 C2041 1.376 1_565 S
C2045 C2044 1.392 . S
C2045 H2057 0.929 . S
C2046 C2042 1.531 . S
C2046 H2058 0.960 . S
C2046 H2059 0.930 1_655 S
C2046 H2060 0.960 . S
C2047 C2044 1.511 . S
C2047 H2061 0.961 . S
C2047 H2062 0.961 . S
C2047 H2063 0.961 . S
C2048 C2049 1.370 . S
C2048 C2050 1.363 . S
C2048 H2064 0.931 . S
C2049 C2048 1.370 . S
C2049 C2053 1.408 1_455 S
C2050 C2048 1.363 . S
C2050 C2051 1.370 1_455 S
C2050 C2054 1.524 . S
C2051 C2043 1.503 . S
C2051 C2050 1.370 1_655 S
C2051 C2052 1.403 . S
C2052 C2051 1.403 . S
C2052 C2053 1.404 . S
C2052 C2055 1.539 . S
C2053 C2049 1.408 1_655 S
C2053 C2052 1.404 . S
C2053 H2065 0.930 . S
C2054 C2050 1.524 . S
C2054 H2066 0.956 . S
C2054 H2067 0.961 . S
C2054 H2068 0.961 . S
C2055 C2052 1.539 . S
C2055 H2069 0.958 . S
C2055 H2070 0.961 . S
C2055 H2071 0.960 . S
H2056 C2040 0.931 . S
H2057 C2045 0.929 . S
H2058 C2046 0.960 . S
H2059 C2046 0.930 1_455 S
H2060 C2046 0.960 . S
H2061 C2047 0.961 . S
H2062 C2047 0.961 . S
H2063 C2047 0.961 . S
H2064 C2048 0.931 . S
H2065 C2053 0.930 . S
H2066 C2054 0.956 . S
H2067 C2054 0.961 . S
H2068 C2054 0.961 . S
H2069 C2055 0.958 . S
H2070 C2055 0.961 . S
H2071 C2055 0.960 . S
C2072 C2073 1.391 . S
C2072 C2074 1.394 . S
C2072 H2088 0.931 . S
C2073 C2072 1.391 . S
C2073 C2077 1.376 . S
C2074 C2072 1.394 . S
C2074 C2075 1.369 . S
C2074 C2078 1.531 . S
C2075 C2074 1.369 . S
C2075 C2076 1.410 . S
C2075 C2083 1.503 . S
C2076 C2075 1.410 . S
C2076 C2077 1.392 . S
C2076 C2079 1.511 . S
C2077 C2073 1.376 . S
C2077 C2076 1.392 . S
C2077 H2089 0.929 . S
C2078 C2074 1.531 . S
C2078 H2090 0.960 . S
C2078 H2091 0.962 . S
C2078 H2092 0.960 . S
C2079 C2076 1.511 . S
C2079 H2093 0.961 . S
C2079 H2094 0.961 . S
C2079 H2095 0.961 . S
C2080 C2081 1.370 . S
C2080 C2082 1.363 . S
C2080 H2096 0.931 . S
C2081 C2080 1.370 . S
C2081 C2085 1.408 . S
C2082 C2080 1.363 . S
C2082 C2083 1.370 . S
C2082 C2086 1.524 . S
C2083 C2075 1.503 . S
C2083 C2082 1.370 . S
C2083 C2084 1.403 . S
C2084 C2083 1.403 . S
C2084 C2085 1.404 . S
C2084 C2087 1.539 . S
C2085 C2081 1.408 . S
C2085 C2084 1.404 . S
C2085 H2097 0.930 . S
C2086 C2082 1.524 . S
C2086 H2098 0.956 . S
C2086 H2099 0.961 . S
C2086 H2100 0.961 . S
C2087 C2084 1.539 . S
C2087 H2101 0.958 . S
C2087 H2102 0.961 . S
C2087 H2103 0.960 . S
H2088 C2072 0.931 . S
H2089 C2077 0.929 . S
H2090 C2078 0.960 . S
H2091 C2078 0.962 . S
H2092 C2078 0.960 . S
H2093 C2079 0.961 . S
H2094 C2079 0.961 . S
H2095 C2079 0.961 . S
H2096 C2080 0.931 . S
H2097 C2085 0.930 . S
H2098 C2086 0.956 . S
H2099 C2086 0.961 . S
H2100 C2086 0.961 . S
H2101 C2087 0.958 . S
H2102 C2087 0.961 . S
H2103 C2087 0.960 . S
C2104 C2105 1.391 . S
C2104 C2106 1.394 . S
C2104 H2120 0.931 . S
C2105 C2104 1.391 . S
C2105 C2109 1.376 . S
C2106 C2104 1.394 . S
C2106 C2107 1.369 . S
C2106 C2110 1.531 . S
C2107 C2106 1.369 . S
C2107 C2108 1.410 . S
C2107 C2115 1.503 . S
C2108 C2107 1.410 . S
C2108 C2109 1.392 . S
C2108 C2111 1.511 . S
C2109 C2105 1.376 . S
C2109 C2108 1.392 . S
C2109 H2121 0.929 . S
C2110 C2106 1.531 . S
C2110 H2122 0.960 . S
C2110 H2123 0.962 . S
C2110 H2124 0.960 . S
C2111 C2108 1.511 . S
C2111 H2125 0.961 . S
C2111 H2126 0.961 . S
C2111 H2127 0.961 . S
C2112 C2113 1.370 . S
C2112 C2114 1.363 . S
C2112 H2128 0.931 . S
C2113 C2112 1.370 . S
C2113 C2117 1.408 . S
C2114 C2112 1.363 . S
C2114 C2115 1.370 . S
C2114 C2118 1.524 . S
C2115 C2107 1.503 . S
C2115 C2114 1.370 . S
C2115 C2116 1.403 . S
C2116 C2115 1.403 . S
C2116 C2117 1.404 . S
C2116 C2119 1.539 . S
C2117 C2113 1.408 . S
C2117 C2116 1.404 . S
C2117 H2129 0.930 . S
C2118 C2114 1.524 . S
C2118 H2130 0.956 . S
C2118 H2131 0.961 . S
C2118 H2132 0.961 . S
C2119 C2116 1.539 . S
C2119 H2133 0.958 . S
C2119 H2134 0.961 . S
C2119 H2135 0.960 . S
H2120 C2104 0.931 . S
H2121 C2109 0.929 . S
H2122 C2110 0.960 . S
H2123 C2110 0.962 . S
H2124 C2110 0.960 . S
H2125 C2111 0.961 . S
H2126 C2111 0.961 . S
H2127 C2111 0.961 . S
H2128 C2112 0.931 . S
H2129 C2117 0.930 . S
H2130 C2118 0.956 . S
H2131 C2118 0.961 . S
H2132 C2118 0.961 . S
H2133 C2119 0.958 . S
H2134 C2119 0.961 . S
H2135 C2119 0.960 . S
C2136 C2137 1.391 . S
C2136 C2138 1.394 . S
C2136 H2152 0.931 . S
C2137 C2136 1.391 . S
C2137 C2141 1.376 . S
C2138 C2136 1.394 . S
C2138 C2139 1.369 . S
C2138 C2142 1.531 . S
C2139 C2138 1.369 . S
C2139 C2140 1.410 . S
C2139 C2147 1.503 . S
C2140 C2139 1.410 . S
C2140 C2141 1.392 . S
C2140 C2143 1.511 . S
C2141 C2137 1.376 . S
C2141 C2140 1.392 . S
C2141 H2153 0.929 . S
C2142 C2138 1.531 . S
C2142 H2154 0.960 . S
C2142 H2155 0.962 . S
C2142 H2156 0.960 . S
C2143 C2140 1.511 . S
C2143 H2157 0.961 . S
C2143 H2158 0.961 . S
C2143 H2159 0.961 . S
C2144 C2145 1.370 . S
C2144 C2146 1.363 . S
C2144 H2160 0.931 . S
C2145 C2144 1.370 . S
C2145 C2149 1.408 . S
C2146 C2144 1.363 . S
C2146 C2147 1.370 . S
C2146 C2150 1.524 . S
C2147 C2139 1.503 . S
C2147 C2146 1.370 . S
C2147 C2148 1.403 . S
C2148 C2147 1.403 . S
C2148 C2149 1.404 . S
C2148 C2151 1.539 . S
C2149 C2145 1.408 . S
C2149 C2148 1.404 . S
C2149 H2161 0.930 . S
C2150 C2146 1.524 . S
C2150 H2162 0.956 . S
C2150 H2163 0.961 . S
C2150 H2164 0.961 . S
C2151 C2148 1.539 . S
C2151 H2165 0.958 . S
C2151 H2166 0.961 . S
C2151 H2167 0.960 . S
H2152 C2136 0.931 . S
H2153 C2141 0.929 . S
H2154 C2142 0.960 . S
H2155 C2142 0.962 . S
H2156 C2142 0.960 . S
H2157 C2143 0.961 . S
H2158 C2143 0.961 . S
H2159 C2143 0.961 . S
H2160 C2144 0.931 . S
H2161 C2149 0.930 . S
H2162 C2150 0.956 . S
H2163 C2150 0.961 . S
H2164 C2150 0.961 . S
H2165 C2151 0.958 . S
H2166 C2151 0.961 . S
H2167 C2151 0.960 . S
C2168 C2169 1.391 . S
C2168 C2170 1.394 . S
C2168 H2184 0.931 . S
C2169 C2168 1.391 . S
C2169 C2173 1.376 . S
C2170 C2168 1.394 . S
C2170 C2171 1.369 . S
C2170 C2174 1.531 1_565 S
C2171 C2170 1.369 . S
C2171 C2172 1.410 . S
C2171 C2179 1.503 . S
C2172 C2171 1.410 . S
C2172 C2173 1.392 . S
C2172 C2175 1.511 . S
C2173 C2169 1.376 . S
C2173 C2172 1.392 . S
C2173 H2185 0.929 . S
C2174 C2170 1.531 1_545 S
C2174 H2186 0.960 . S
C2174 H2187 0.962 . S
C2174 H2188 0.960 . S
C2175 C2172 1.511 . S
C2175 H2189 0.961 . S
C2175 H2190 0.961 . S
C2175 H2191 0.961 . S
C2176 C2177 1.370 . S
C2176 C2178 1.363 1_545 S
C2176 H2192 0.931 . S
C2177 C2176 1.370 . S
C2177 C2181 1.408 . S
C2178 C2176 1.363 1_565 S
C2178 C2179 1.370 . S
C2178 C2182 1.524 . S
C2179 C2171 1.503 . S
C2179 C2178 1.370 . S
C2179 C2180 1.403 . S
C2180 C2179 1.403 . S
C2180 C2181 1.404 1_565 S
C2180 C2183 1.539 1_554 S
C2181 C2177 1.408 . S
C2181 C2180 1.404 1_545 S
C2181 H2193 0.930 . S
C2182 C2178 1.524 . S
C2182 H2194 0.956 . S
C2182 H2195 0.961 . S
C2182 H2196 0.961 . S
C2183 C2180 1.539 1_556 S
C2183 H2197 0.975 . S
C2183 H2198 0.961 . S
C2183 H2199 0.960 . S
H2184 C2168 0.931 . S
H2185 C2173 0.929 . S
H2186 C2174 0.960 . S
H2187 C2174 0.962 . S
H2188 C2174 0.960 . S
H2189 C2175 0.961 . S
H2190 C2175 0.961 . S
H2191 C2175 0.961 . S
H2192 C2176 0.931 . S
H2193 C2181 0.930 . S
H2194 C2182 0.956 . S
H2195 C2182 0.961 . S
H2196 C2182 0.961 . S
H2197 C2183 0.975 . S
H2198 C2183 0.961 . S
H2199 C2183 0.960 . S
C2200 C2201 1.391 1_556 S
C2200 C2202 1.394 . S
C2200 H2216 0.931 . S
C2201 C2200 1.391 1_554 S
C2201 C2205 1.376 . S
C2202 C2200 1.394 . S
C2202 C2203 1.369 1_556 S
C2202 C2206 1.531 . S
C2203 C2202 1.369 1_554 S
C2203 C2204 1.410 . S
C2203 C2211 1.503 . S
C2204 C2203 1.410 . S
C2204 C2205 1.392 . S
C2204 C2207 1.511 . S
C2205 C2201 1.376 . S
C2205 C2204 1.392 . S
C2205 H2217 0.929 . S
C2206 C2202 1.531 . S
C2206 H2218 0.960 . S
C2206 H2219 0.962 . S
C2206 H2220 0.960 . S
C2207 C2204 1.511 . S
C2207 H2221 0.961 . S
C2207 H2222 0.961 . S
C2207 H2223 0.961 . S
C2208 C2209 1.370 . S
C2208 C2210 1.363 . S
C2208 H2224 0.931 . S
C2209 C2208 1.370 . S
C2209 C2213 1.408 1_554 S
C2210 C2208 1.363 . S
C2210 C2211 1.370 . S
C2210 C2214 1.524 . S
C2211 C2203 1.503 . S
C2211 C2210 1.370 . S
C2211 C2212 1.403 1_554 S
C2212 C2211 1.403 1_556 S
C2212 C2213 1.404 . S
C2212 C2215 1.539 . S
C2213 C2209 1.408 1_556 S
C2213 C2212 1.404 . S
C2213 H2225 0.930 . S
C2214 C2210 1.524 . S
C2214 H2226 0.956 . S
C2214 H2227 0.961 . S
C2214 H2228 0.961 . S
C2215 C2212 1.539 . S
C2215 H2229 0.958 . S
C2215 H2230 0.961 . S
C2215 H2231 0.960 . S
H2216 C2200 0.931 . S
H2217 C2205 0.929 . S
H2218 C2206 0.960 . S
H2219 C2206 0.962 . S
H2220 C2206 0.960 . S
H2221 C2207 0.961 . S
H2222 C2207 0.961 . S
H2223 C2207 0.961 . S
H2224 C2208 0.931 . S
H2225 C2213 0.930 . S
H2226 C2214 0.956 . S
H2227 C2214 0.961 . S
H2228 C2214 0.961 . S
H2229 C2215 0.958 . S
H2230 C2215 0.961 . S
H2231 C2215 0.960 . S
C2232 C2233 1.391 . S
C2232 C2234 1.394 . S
C2232 H2248 0.931 . S
C2233 C2232 1.391 . S
C2233 C2237 1.376 . S
C2234 C2232 1.394 . S
C2234 C2235 1.369 . S
C2234 C2238 1.531 . S
C2235 C2234 1.369 . S
C2235 C2236 1.410 . S
C2235 C2243 1.503 . S
C2236 C2235 1.410 . S
C2236 C2237 1.392 . S
C2236 C2239 1.511 . S
C2237 C2233 1.376 . S
C2237 C2236 1.392 . S
C2237 H2249 0.929 . S
C2238 C2234 1.531 . S
C2238 H2250 0.960 . S
C2238 H2251 0.962 . S
C2238 H2252 0.960 . S
C2239 C2236 1.511 . S
C2239 H2253 0.961 . S
C2239 H2254 0.961 . S
C2239 H2255 0.961 . S
C2240 C2241 1.370 . S
C2240 C2242 1.363 . S
C2240 H2256 0.931 . S
C2241 C2240 1.370 . S
C2241 C2245 1.408 . S
C2242 C2240 1.363 . S
C2242 C2243 1.370 . S
C2242 C2246 1.524 . S
C2243 C2235 1.503 . S
C2243 C2242 1.370 . S
C2243 C2244 1.403 . S
C2244 C2243 1.403 . S
C2244 C2245 1.404 . S
C2244 C2247 1.539 . S
C2245 C2241 1.408 . S
C2245 C2244 1.404 . S
C2245 H2257 0.930 . S
C2246 C2242 1.524 . S
C2246 H2258 0.956 . S
C2246 H2259 0.961 . S
C2246 H2260 0.961 . S
C2247 C2244 1.539 . S
C2247 H2261 0.958 . S
C2247 H2262 0.961 . S
C2247 H2263 0.960 . S
H2248 C2232 0.931 . S
H2249 C2237 0.929 . S
H2250 C2238 0.960 . S
H2251 C2238 0.962 . S
H2252 C2238 0.960 . S
H2253 C2239 0.961 . S
H2254 C2239 0.961 . S
H2255 C2239 0.961 . S
H2256 C2240 0.931 . S
H2257 C2245 0.930 . S
H2258 C2246 0.956 . S
H2259 C2246 0.961 . S
H2260 C2246 0.961 . S
H2261 C2247 0.958 . S
H2262 C2247 0.961 . S
H2263 C2247 0.960 . S
C2264 C2265 1.391 . S
C2264 C2266 1.394 . S
C2264 H2280 0.931 . S
C2265 C2264 1.391 . S
C2265 C2269 1.376 . S
C2266 C2264 1.394 . S
C2266 C2267 1.369 . S
C2266 C2270 1.531 . S
C2267 C2266 1.369 . S
C2267 C2268 1.410 . S
C2267 C2275 1.503 . S
C2268 C2267 1.410 . S
C2268 C2269 1.392 . S
C2268 C2271 1.511 . S
C2269 C2265 1.376 . S
C2269 C2268 1.392 . S
C2269 H2281 0.929 . S
C2270 C2266 1.531 . S
C2270 H2282 0.960 . S
C2270 H2283 0.962 . S
C2270 H2284 0.960 . S
C2271 C2268 1.511 . S
C2271 H2285 0.961 . S
C2271 H2286 0.961 . S
C2271 H2287 0.961 . S
C2272 C2273 1.370 . S
C2272 C2274 1.363 . S
C2272 H2288 0.931 . S
C2273 C2272 1.370 . S
C2273 C2277 1.408 . S
C2274 C2272 1.363 . S
C2274 C2275 1.370 . S
C2274 C2278 1.524 . S
C2275 C2267 1.503 . S
C2275 C2274 1.370 . S
C2275 C2276 1.403 . S
C2276 C2275 1.403 . S
C2276 C2277 1.404 . S
C2276 C2279 1.539 . S
C2277 C2273 1.408 . S
C2277 C2276 1.404 . S
C2277 H2289 0.930 . S
C2278 C2274 1.524 . S
C2278 H2290 0.956 . S
C2278 H2291 0.961 . S
C2278 H2292 0.961 . S
C2279 C2276 1.539 . S
C2279 H2293 0.958 . S
C2279 H2294 0.961 . S
C2279 H2295 0.960 . S
H2280 C2264 0.931 . S
H2281 C2269 0.929 . S
H2282 C2270 0.960 . S
H2283 C2270 0.962 . S
H2284 C2270 0.960 . S
H2285 C2271 0.961 . S
H2286 C2271 0.961 . S
H2287 C2271 0.961 . S
H2288 C2272 0.931 . S
H2289 C2277 0.930 . S
H2290 C2278 0.956 . S
H2291 C2278 0.961 . S
H2292 C2278 0.961 . S
H2293 C2279 0.958 . S
H2294 C2279 0.961 . S
H2295 C2279 0.960 . S
C2296 C2297 1.391 . S
C2296 C2298 1.394 . S
C2296 H2312 0.931 . S
C2297 C2296 1.391 . S
C2297 C2301 1.376 . S
C2298 C2296 1.394 . S
C2298 C2299 1.369 . S
C2298 C2302 1.531 . S
C2299 C2298 1.369 . S
C2299 C2300 1.410 . S
C2299 C2307 1.503 . S
C2300 C2299 1.410 . S
C2300 C2301 1.392 . S
C2300 C2303 1.511 . S
C2301 C2297 1.376 . S
C2301 C2300 1.392 . S
C2301 H2313 0.929 . S
C2302 C2298 1.531 . S
C2302 H2314 0.960 . S
C2302 H2315 0.962 . S
C2302 H2316 0.960 . S
C2303 C2300 1.511 . S
C2303 H2317 0.961 . S
C2303 H2318 0.961 . S
C2303 H2319 0.961 . S
C2304 C2305 1.370 . S
C2304 C2306 1.363 . S
C2304 H2320 0.931 . S
C2305 C2304 1.370 . S
C2305 C2309 1.408 . S
C2306 C2304 1.363 . S
C2306 C2307 1.370 . S
C2306 C2310 1.524 . S
C2307 C2299 1.503 . S
C2307 C2306 1.370 . S
C2307 C2308 1.403 . S
C2308 C2307 1.403 . S
C2308 C2309 1.404 . S
C2308 C2311 1.539 . S
C2309 C2305 1.408 . S
C2309 C2308 1.404 . S
C2309 H2321 0.930 . S
C2310 C2306 1.524 . S
C2310 H2322 0.956 . S
C2310 H2323 0.961 . S
C2310 H2324 0.961 . S
C2311 C2308 1.539 . S
C2311 H2325 0.958 . S
C2311 H2326 0.961 . S
C2311 H2327 0.960 . S
H2312 C2296 0.931 . S
H2313 C2301 0.929 . S
H2314 C2302 0.960 . S
H2315 C2302 0.962 . S
H2316 C2302 0.960 . S
H2317 C2303 0.961 . S
H2318 C2303 0.961 . S
H2319 C2303 0.961 . S
H2320 C2304 0.931 . S
H2321 C2309 0.930 . S
H2322 C2310 0.956 . S
H2323 C2310 0.961 . S
H2324 C2310 0.961 . S
H2325 C2311 0.958 . S
H2326 C2311 0.961 . S
H2327 C2311 0.960 . S
C2328 C2329 1.391 . S
C2328 C2330 1.394 . S
C2328 H2344 0.931 . S
C2329 C2328 1.391 . S
C2329 C2333 1.376 . S
C2330 C2328 1.394 . S
C2330 C2331 1.369 . S
C2330 C2334 1.531 . S
C2331 C2330 1.369 . S
C2331 C2332 1.410 . S
C2331 C2339 1.503 . S
C2332 C2331 1.410 . S
C2332 C2333 1.392 . S
C2332 C2335 1.511 . S
C2333 C2329 1.376 . S
C2333 C2332 1.392 . S
C2333 H2345 0.929 . S
C2334 C2330 1.531 . S
C2334 H2346 0.960 . S
C2334 H2347 0.962 . S
C2334 H2348 0.960 . S
C2335 C2332 1.511 . S
C2335 H2349 0.961 . S
C2335 H2350 0.961 . S
C2335 H2351 0.961 . S
C2336 C2337 1.370 . S
C2336 C2338 1.363 . S
C2336 H2352 0.931 . S
C2337 C2336 1.370 . S
C2337 C2341 1.408 . S
C2338 C2336 1.363 . S
C2338 C2339 1.370 . S
C2338 C2342 1.524 . S
C2339 C2331 1.503 . S
C2339 C2338 1.370 . S
C2339 C2340 1.403 . S
C2340 C2339 1.403 . S
C2340 C2341 1.404 . S
C2340 C2343 1.539 . S
C2341 C2337 1.408 . S
C2341 C2340 1.404 . S
C2341 H2353 0.930 . S
C2342 C2338 1.524 . S
C2342 H2354 0.956 . S
C2342 H2355 0.961 . S
C2342 H2356 0.961 . S
C2343 C2340 1.539 . S
C2343 H2357 0.958 . S
C2343 H2358 0.961 . S
C2343 H2359 0.960 . S
H2344 C2328 0.931 . S
H2345 C2333 0.929 . S
H2346 C2334 0.960 . S
H2347 C2334 0.962 . S
H2348 C2334 0.960 . S
H2349 C2335 0.961 . S
H2350 C2335 0.961 . S
H2351 C2335 0.961 . S
H2352 C2336 0.931 . S
H2353 C2341 0.930 . S
H2354 C2342 0.956 . S
H2355 C2342 0.961 . S
H2356 C2342 0.961 . S
H2357 C2343 0.958 . S
H2358 C2343 0.961 . S
H2359 C2343 0.960 . S
C2360 C2361 1.391 . S
C2360 C2362 1.394 . S
C2360 H2376 0.931 . S
C2361 C2360 1.391 . S
C2361 C2365 1.376 . S
C2362 C2360 1.394 . S
C2362 C2363 1.369 . S
C2362 C2366 1.531 . S
C2363 C2362 1.369 . S
C2363 C2364 1.410 . S
C2363 C2371 1.503 . S
C2364 C2363 1.410 . S
C2364 C2365 1.392 . S
C2364 C2367 1.511 . S
C2365 C2361 1.376 . S
C2365 C2364 1.392 . S
C2365 H2377 0.929 . S
C2366 C2362 1.531 . S
C2366 H2378 0.960 . S
C2366 H2379 0.962 . S
C2366 H2380 0.960 . S
C2367 C2364 1.511 . S
C2367 H2381 0.961 . S
C2367 H2382 0.961 . S
C2367 H2383 0.961 . S
C2368 C2369 1.370 . S
C2368 C2370 1.363 . S
C2368 H2384 0.931 . S
C2369 C2368 1.370 . S
C2369 C2373 1.408 . S
C2370 C2368 1.363 . S
C2370 C2371 1.370 . S
C2370 C2374 1.524 . S
C2371 C2363 1.503 . S
C2371 C2370 1.370 . S
C2371 C2372 1.403 . S
C2372 C2371 1.403 . S
C2372 C2373 1.404 . S
C2372 C2375 1.539 . S
C2373 C2369 1.408 . S
C2373 C2372 1.404 . S
C2373 H2385 0.930 . S
C2374 C2370 1.524 . S
C2374 H2386 0.956 . S
C2374 H2387 0.961 . S
C2374 H2388 0.961 . S
C2375 C2372 1.539 . S
C2375 H2389 0.958 . S
C2375 H2390 0.961 . S
C2375 H2391 0.960 . S
H2376 C2360 0.931 . S
H2377 C2365 0.929 . S
H2378 C2366 0.960 . S
H2379 C2366 0.962 . S
H2380 C2366 0.960 . S
H2381 C2367 0.961 . S
H2382 C2367 0.961 . S
H2383 C2367 0.961 . S
H2384 C2368 0.931 . S
H2385 C2373 0.930 . S
H2386 C2374 0.956 . S
H2387 C2374 0.961 . S
H2388 C2374 0.961 . S
H2389 C2375 0.958 . S
H2390 C2375 0.961 . S
H2391 C2375 0.960 . S
C2392 C2393 1.391 . S
C2392 C2394 1.394 . S
C2392 H2408 0.931 . S
C2393 C2392 1.391 . S
C2393 C2397 1.376 . S
C2394 C2392 1.394 . S
C2394 C2395 1.369 . S
C2394 C2398 1.531 . S
C2395 C2394 1.369 . S
C2395 C2396 1.410 . S
C2395 C2403 1.503 . S
C2396 C2395 1.410 . S
C2396 C2397 1.392 . S
C2396 C2399 1.511 . S
C2397 C2393 1.376 . S
C2397 C2396 1.392 . S
C2397 H2409 0.929 . S
C2398 C2394 1.531 . S
C2398 H2410 0.960 . S
C2398 H2411 0.962 . S
C2398 H2412 0.960 . S
C2399 C2396 1.511 . S
C2399 H2413 0.961 . S
C2399 H2414 0.961 . S
C2399 H2415 0.961 . S
C2400 C2401 1.370 . S
C2400 C2402 1.363 . S
C2400 H2416 0.931 . S
C2401 C2400 1.370 . S
C2401 C2405 1.408 . S
C2402 C2400 1.363 . S
C2402 C2403 1.370 . S
C2402 C2406 1.524 . S
C2403 C2395 1.503 . S
C2403 C2402 1.370 . S
C2403 C2404 1.403 . S
C2404 C2403 1.403 . S
C2404 C2405 1.404 . S
C2404 C2407 1.539 . S
C2405 C2401 1.408 . S
C2405 C2404 1.404 . S
C2405 H2417 0.930 . S
C2406 C2402 1.524 . S
C2406 H2418 0.956 . S
C2406 H2419 0.961 . S
C2406 H2420 0.961 . S
C2407 C2404 1.539 . S
C2407 H2421 0.958 . S
C2407 H2422 0.961 . S
C2407 H2423 0.960 . S
H2408 C2392 0.931 . S
H2409 C2397 0.929 . S
H2410 C2398 0.960 . S
H2411 C2398 0.962 . S
H2412 C2398 0.960 . S
H2413 C2399 0.961 . S
H2414 C2399 0.961 . S
H2415 C2399 0.961 . S
H2416 C2400 0.931 . S
H2417 C2405 0.930 . S
H2418 C2406 0.956 . S
H2419 C2406 0.961 . S
H2420 C2406 0.961 . S
H2421 C2407 0.958 . S
H2422 C2407 0.961 . S
H2423 C2407 0.960 . S
C2424 C2425 1.391 . S
C2424 C2426 1.394 . S
C2424 H2440 0.931 . S
C2425 C2424 1.391 . S
C2425 C2429 1.376 . S
C2426 C2424 1.394 . S
C2426 C2427 1.369 . S
C2426 C2430 1.531 . S
C2427 C2426 1.369 . S
C2427 C2428 1.410 . S
C2427 C2435 1.503 . S
C2428 C2427 1.410 . S
C2428 C2429 1.392 . S
C2428 C2431 1.511 . S
C2429 C2425 1.376 . S
C2429 C2428 1.392 . S
C2429 H2441 0.929 . S
C2430 C2426 1.531 . S
C2430 H2442 0.960 . S
C2430 H2443 0.962 . S
C2430 H2444 0.960 . S
C2431 C2428 1.511 . S
C2431 H2445 0.961 . S
C2431 H2446 0.961 . S
C2431 H2447 0.961 . S
C2432 C2433 1.370 . S
C2432 C2434 1.363 . S
C2432 H2448 0.931 . S
C2433 C2432 1.370 . S
C2433 C2437 1.408 . S
C2434 C2432 1.363 . S
C2434 C2435 1.370 . S
C2434 C2438 1.524 . S
C2435 C2427 1.503 . S
C2435 C2434 1.370 . S
C2435 C2436 1.403 . S
C2436 C2435 1.403 . S
C2436 C2437 1.404 . S
C2436 C2439 1.539 . S
C2437 C2433 1.408 . S
C2437 C2436 1.404 . S
C2437 H2449 0.930 . S
C2438 C2434 1.524 . S
C2438 H2450 0.956 . S
C2438 H2451 0.961 . S
C2438 H2452 0.961 . S
C2439 C2436 1.539 . S
C2439 H2453 0.958 . S
C2439 H2454 1.011 . S
C2439 H2455 0.960 . S
H2440 C2424 0.931 . S
H2441 C2429 0.929 . S
H2442 C2430 0.960 . S
H2443 C2430 0.962 . S
H2444 C2430 0.960 . S
H2445 C2431 0.961 . S
H2446 C2431 0.961 . S
H2447 C2431 0.961 . S
H2448 C2432 0.931 . S
H2449 C2437 0.930 . S
H2450 C2438 0.956 . S
H2451 C2438 0.961 . S
H2452 C2438 0.961 . S
H2453 C2439 0.958 . S
H2454 C2439 1.011 . S
H2455 C2439 0.960 . S
C2456 C2457 1.391 . S
C2456 C2458 1.394 . S
C2456 H2472 0.931 . S
C2457 C2456 1.391 . S
C2457 C2461 1.376 . S
C2458 C2456 1.394 . S
C2458 C2459 1.369 . S
C2458 C2462 1.531 . S
C2459 C2458 1.369 . S
C2459 C2460 1.410 . S
C2459 C2467 1.503 . S
C2460 C2459 1.410 . S
C2460 C2461 1.392 . S
C2460 C2463 1.511 . S
C2461 C2457 1.376 . S
C2461 C2460 1.392 . S
C2461 H2473 0.929 . S
C2462 C2458 1.531 . S
C2462 H2474 0.960 . S
C2462 H2475 0.962 . S
C2462 H2476 0.960 . S
C2463 C2460 1.511 . S
C2463 H2477 0.961 . S
C2463 H2478 0.961 . S
C2463 H2479 0.961 . S
C2464 C2465 1.370 . S
C2464 C2466 1.363 . S
C2464 H2480 0.931 . S
C2465 C2464 1.370 . S
C2465 C2469 1.408 . S
C2466 C2464 1.363 . S
C2466 C2467 1.370 . S
C2466 C2470 1.524 . S
C2467 C2459 1.503 . S
C2467 C2466 1.370 . S
C2467 C2468 1.403 . S
C2468 C2467 1.403 . S
C2468 C2469 1.404 . S
C2468 C2471 1.539 . S
C2469 C2465 1.408 . S
C2469 C2468 1.404 . S
C2469 H2481 0.930 . S
C2470 C2466 1.524 . S
C2470 H2482 0.956 . S
C2470 H2483 0.961 . S
C2470 H2484 0.961 . S
C2471 C2468 1.539 . S
C2471 H2485 0.958 . S
C2471 H2486 0.961 . S
C2471 H2487 0.960 . S
H2472 C2456 0.931 . S
H2473 C2461 0.929 . S
H2474 C2462 0.960 . S
H2475 C2462 0.962 . S
H2476 C2462 0.960 . S
H2477 C2463 0.961 . S
H2478 C2463 0.961 . S
H2479 C2463 0.961 . S
H2480 C2464 0.931 . S
H2481 C2469 0.930 . S
H2482 C2470 0.956 . S
H2483 C2470 0.961 . S
H2484 C2470 0.961 . S
H2485 C2471 0.958 . S
H2486 C2471 0.961 . S
H2487 C2471 0.960 . S
C2488 C2489 1.391 . S
C2488 C2490 1.394 . S
C2488 H2504 0.931 . S
C2489 C2488 1.391 . S
C2489 C2493 1.376 . S
C2490 C2488 1.394 . S
C2490 C2491 1.369 . S
C2490 C2494 1.531 . S
C2491 C2490 1.369 . S
C2491 C2492 1.410 . S
C2491 C2499 1.503 . S
C2492 C2491 1.410 . S
C2492 C2493 1.392 . S
C2492 C2495 1.511 . S
C2493 C2489 1.376 . S
C2493 C2492 1.392 . S
C2493 H2505 0.929 . S
C2494 C2490 1.531 . S
C2494 H2506 0.960 . S
C2494 H2507 0.962 . S
C2494 H2508 0.960 . S
C2495 C2492 1.511 . S
C2495 H2509 0.961 . S
C2495 H2510 0.961 . S
C2495 H2511 0.961 . S
C2496 C2497 1.370 . S
C2496 C2498 1.363 . S
C2496 H2512 0.931 . S
C2497 C2496 1.370 . S
C2497 C2501 1.408 . S
C2498 C2496 1.363 . S
C2498 C2499 1.370 . S
C2498 C2502 1.524 . S
C2499 C2491 1.503 . S
C2499 C2498 1.370 . S
C2499 C2500 1.403 . S
C2500 C2499 1.403 . S
C2500 C2501 1.404 . S
C2500 C2503 1.539 . S
C2501 C2497 1.408 . S
C2501 C2500 1.404 . S
C2501 H2513 0.930 . S
C2502 C2498 1.524 . S
C2502 H2514 0.956 . S
C2502 H2515 0.961 . S
C2502 H2516 0.961 . S
C2503 C2500 1.539 . S
C2503 H2517 0.958 . S
C2503 H2518 0.961 . S
C2503 H2519 0.960 . S
H2504 C2488 0.931 . S
H2505 C2493 0.929 . S
H2506 C2494 0.960 . S
H2507 C2494 0.962 . S
H2508 C2494 0.960 . S
H2509 C2495 0.961 . S
H2510 C2495 0.961 . S
H2511 C2495 0.961 . S
H2512 C2496 0.931 . S
H2513 C2501 0.930 . S
H2514 C2502 0.956 . S
H2515 C2502 0.961 . S
H2516 C2502 0.961 . S
H2517 C2503 0.958 . S
H2518 C2503 0.961 . S
H2519 C2503 0.960 . S
C2520 C2521 1.391 . S
C2520 C2522 1.394 . S
C2520 H2536 0.931 . S
C2521 C2520 1.391 . S
C2521 C2525 1.376 . S
C2522 C2520 1.394 . S
C2522 C2523 1.369 . S
C2522 C2526 1.531 . S
C2523 C2522 1.369 . S
C2523 C2524 1.410 . S
C2523 C2531 1.503 . S
C2524 C2523 1.410 . S
C2524 C2525 1.392 . S
C2524 C2527 1.511 . S
C2525 C2521 1.376 . S
C2525 C2524 1.392 . S
C2525 H2537 0.929 . S
C2526 C2522 1.531 . S
C2526 H2538 0.960 . S
C2526 H2539 0.962 . S
C2526 H2540 0.960 . S
C2527 C2524 1.511 . S
C2527 H2541 0.961 . S
C2527 H2542 0.961 . S
C2527 H2543 0.961 . S
C2528 C2529 1.370 . S
C2528 C2530 1.363 . S
C2528 H2544 0.931 . S
C2529 C2528 1.370 . S
C2529 C2533 1.408 . S
C2530 C2528 1.363 . S
C2530 C2531 1.370 . S
C2530 C2534 1.524 . S
C2531 C2523 1.503 . S
C2531 C2530 1.370 . S
C2531 C2532 1.403 . S
C2532 C2531 1.403 . S
C2532 C2533 1.404 . S
C2532 C2535 1.539 . S
C2533 C2529 1.408 . S
C2533 C2532 1.404 . S
C2533 H2545 0.930 . S
C2534 C2530 1.524 . S
C2534 H2546 0.956 . S
C2534 H2547 0.961 . S
C2534 H2548 0.961 . S
C2535 C2532 1.539 . S
C2535 H2549 0.958 . S
C2535 H2550 0.961 . S
C2535 H2551 0.960 . S
H2536 C2520 0.931 . S
H2537 C2525 0.929 . S
H2538 C2526 0.960 . S
H2539 C2526 0.962 . S
H2540 C2526 0.960 . S
H2541 C2527 0.961 . S
H2542 C2527 0.961 . S
H2543 C2527 0.961 . S
H2544 C2528 0.931 . S
H2545 C2533 0.930 . S
H2546 C2534 0.956 . S
H2547 C2534 0.961 . S
H2548 C2534 0.961 . S
H2549 C2535 0.958 . S
H2550 C2535 0.961 . S
H2551 C2535 0.960 . S
C2552 C2553 1.391 . S
C2552 C2554 1.394 . S
C2552 H2568 0.931 . S
C2553 C2552 1.391 . S
C2553 C2557 1.376 . S
C2554 C2552 1.394 . S
C2554 C2555 1.369 . S
C2554 C2558 1.531 . S
C2555 C2554 1.369 . S
C2555 C2556 1.410 . S
C2555 C2563 1.503 . S
C2556 C2555 1.410 . S
C2556 C2557 1.392 . S
C2556 C2559 1.511 . S
C2557 C2553 1.376 . S
C2557 C2556 1.392 . S
C2557 H2569 0.929 . S
C2558 C2554 1.531 . S
C2558 H2570 0.960 . S
C2558 H2571 0.962 . S
C2558 H2572 0.960 . S
C2559 C2556 1.511 . S
C2559 H2573 0.961 . S
C2559 H2574 0.961 . S
C2559 H2575 0.961 . S
C2560 C2561 1.370 . S
C2560 C2562 1.363 . S
C2560 H2576 0.931 . S
C2561 C2560 1.370 . S
C2561 C2565 1.408 . S
C2562 C2560 1.363 . S
C2562 C2563 1.370 . S
C2562 C2566 1.524 . S
C2563 C2555 1.503 . S
C2563 C2562 1.370 . S
C2563 C2564 1.403 . S
C2564 C2563 1.403 . S
C2564 C2565 1.404 . S
C2564 C2567 1.539 . S
C2565 C2561 1.408 . S
C2565 C2564 1.404 . S
C2565 H2577 0.930 . S
C2566 C2562 1.524 . S
C2566 H2578 0.956 . S
C2566 H2579 0.961 . S
C2566 H2580 0.961 1_455 S
C2567 C2564 1.539 . S
C2567 H2581 0.958 . S
C2567 H2582 0.961 . S
C2567 H2583 0.960 . S
H2568 C2552 0.931 . S
H2569 C2557 0.929 . S
H2570 C2558 0.960 . S
H2571 C2558 0.962 . S
H2572 C2558 0.960 . S
H2573 C2559 0.961 . S
H2574 C2559 0.961 . S
H2575 C2559 0.961 . S
H2576 C2560 0.931 . S
H2577 C2565 0.930 . S
H2578 C2566 0.956 . S
H2579 C2566 0.961 . S
H2580 C2566 0.961 1_655 S
H2581 C2567 0.958 . S
H2582 C2567 0.961 . S
H2583 C2567 0.960 . S
C2584 C2585 1.391 . S
C2584 C2586 1.394 . S
C2584 H2600 0.931 . S
C2585 C2584 1.391 . S
C2585 C2589 1.376 . S
C2586 C2584 1.394 . S
C2586 C2587 1.369 . S
C2586 C2590 1.531 . S
C2587 C2586 1.369 . S
C2587 C2588 1.410 . S
C2587 C2595 1.503 . S
C2588 C2587 1.410 . S
C2588 C2589 1.392 . S
C2588 C2591 1.511 . S
C2589 C2585 1.376 . S
C2589 C2588 1.392 . S
C2589 H2601 0.929 . S
C2590 C2586 1.531 . S
C2590 H2602 0.960 . S
C2590 H2603 0.962 . S
C2590 H2604 0.960 . S
C2591 C2588 1.511 . S
C2591 H2605 0.961 . S
C2591 H2606 0.961 . S
C2591 H2607 0.961 . S
C2592 C2593 1.370 . S
C2592 C2594 1.363 . S
C2592 H2608 0.931 . S
C2593 C2592 1.370 . S
C2593 C2597 1.408 . S
C2594 C2592 1.363 . S
C2594 C2595 1.370 . S
C2594 C2598 1.524 . S
C2595 C2587 1.503 . S
C2595 C2594 1.370 . S
C2595 C2596 1.403 . S
C2596 C2595 1.403 . S
C2596 C2597 1.404 . S
C2596 C2599 1.539 . S
C2597 C2593 1.408 . S
C2597 C2596 1.404 . S
C2597 H2609 0.930 . S
C2598 C2594 1.524 . S
C2598 H2610 0.956 . S
C2598 H2611 0.961 . S
C2598 H2612 0.961 . S
C2599 C2596 1.539 . S
C2599 H2613 0.958 . S
C2599 H2614 0.961 . S
C2599 H2615 0.960 . S
H2600 C2584 0.931 . S
H2601 C2589 0.929 . S
H2602 C2590 0.960 . S
H2603 C2590 0.962 . S
H2604 C2590 0.960 . S
H2605 C2591 0.961 . S
H2606 C2591 0.961 . S
H2607 C2591 0.961 . S
H2608 C2592 0.931 . S
H2609 C2597 0.930 . S
H2610 C2598 0.956 . S
H2611 C2598 0.961 . S
H2612 C2598 0.961 . S
H2613 C2599 0.958 . S
H2614 C2599 0.961 . S
H2615 C2599 0.960 . S
C2616 C2617 1.391 . S
C2616 C2618 1.394 . S
C2616 H2632 0.931 . S
C2617 C2616 1.391 . S
C2617 C2621 1.376 . S
C2618 C2616 1.394 . S
C2618 C2619 1.369 . S
C2618 C2622 1.531 . S
C2619 C2618 1.369 . S
C2619 C2620 1.410 . S
C2619 C2627 1.503 . S
C2620 C2619 1.410 . S
C2620 C2621 1.392 . S
C2620 C2623 1.511 . S
C2621 C2617 1.376 . S
C2621 C2620 1.392 . S
C2621 H2633 0.929 . S
C2622 C2618 1.531 . S
C2622 H2634 0.960 . S
C2622 H2635 0.962 . S
C2622 H2636 0.960 . S
C2623 C2620 1.511 . S
C2623 H2637 0.961 . S
C2623 H2638 0.961 . S
C2623 H2639 0.961 . S
C2624 C2625 1.370 . S
C2624 C2626 1.363 . S
C2624 H2640 0.931 . S
C2625 C2624 1.370 . S
C2625 C2629 1.408 . S
C2626 C2624 1.363 . S
C2626 C2627 1.370 . S
C2626 C2630 1.524 . S
C2627 C2619 1.503 . S
C2627 C2626 1.370 . S
C2627 C2628 1.403 . S
C2628 C2627 1.403 . S
C2628 C2629 1.404 . S
C2628 C2631 1.539 . S
C2629 C2625 1.408 . S
C2629 C2628 1.404 . S
C2629 H2641 0.930 . S
C2630 C2626 1.524 . S
C2630 H2642 0.956 . S
C2630 H2643 0.961 . S
C2630 H2644 0.961 . S
C2631 C2628 1.539 . S
C2631 H2645 0.958 . S
C2631 H2646 0.961 . S
C2631 H2647 0.960 . S
H2632 C2616 0.931 . S
H2633 C2621 0.929 . S
H2634 C2622 0.960 . S
H2635 C2622 0.962 . S
H2636 C2622 0.960 . S
H2637 C2623 0.961 . S
H2638 C2623 0.961 . S
H2639 C2623 0.961 . S
H2640 C2624 0.931 . S
H2641 C2629 0.930 . S
H2642 C2630 0.956 . S
H2643 C2630 0.961 . S
H2644 C2630 0.961 . S
H2645 C2631 0.958 . S
H2646 C2631 0.961 . S
H2647 C2631 0.960 . S
C2648 C2649 1.391 . S
C2648 C2650 1.394 . S
C2648 H2664 0.931 . S
C2649 C2648 1.391 . S
C2649 C2653 1.376 . S
C2650 C2648 1.394 . S
C2650 C2651 1.369 . S
C2650 C2654 1.531 . S
C2651 C2650 1.369 . S
C2651 C2652 1.410 . S
C2651 C2659 1.503 . S
C2652 C2651 1.410 . S
C2652 C2653 1.392 . S
C2652 C2655 1.511 . S
C2653 C2649 1.376 . S
C2653 C2652 1.392 . S
C2653 H2665 0.929 . S
C2654 C2650 1.531 . S
C2654 H2666 0.960 . S
C2654 H2667 0.962 . S
C2654 H2668 0.960 . S
C2655 C2652 1.511 . S
C2655 H2669 0.961 . S
C2655 H2670 0.961 . S
C2655 H2671 0.961 . S
C2656 C2657 1.370 . S
C2656 C2658 1.363 . S
C2656 H2672 0.931 . S
C2657 C2656 1.370 . S
C2657 C2661 1.408 . S
C2658 C2656 1.363 . S
C2658 C2659 1.370 . S
C2658 C2662 1.524 . S
C2659 C2651 1.503 . S
C2659 C2658 1.370 . S
C2659 C2660 1.403 . S
C2660 C2659 1.403 . S
C2660 C2661 1.404 . S
C2660 C2663 1.539 . S
C2661 C2657 1.408 . S
C2661 C2660 1.404 . S
C2661 H2673 0.930 . S
C2662 C2658 1.524 . S
C2662 H2674 0.956 . S
C2662 H2675 0.961 . S
C2662 H2676 0.961 . S
C2663 C2660 1.539 . S
C2663 H2677 0.958 . S
C2663 H2678 0.961 . S
C2663 H2679 0.960 . S
H2664 C2648 0.931 . S
H2665 C2653 0.929 . S
H2666 C2654 0.960 . S
H2667 C2654 0.962 . S
H2668 C2654 0.960 . S
H2669 C2655 0.961 . S
H2670 C2655 0.961 . S
H2671 C2655 0.961 . S
H2672 C2656 0.931 . S
H2673 C2661 0.930 . S
H2674 C2662 0.956 . S
H2675 C2662 0.961 . S
H2676 C2662 0.961 . S
H2677 C2663 0.958 . S
H2678 C2663 0.961 . S
H2679 C2663 0.960 . S
C2680 C2681 1.391 . S
C2680 C2682 1.394 . S
C2680 H2696 0.931 . S
C2681 C2680 1.391 . S
C2681 C2685 1.376 . S
C2682 C2680 1.394 . S
C2682 C2683 1.369 . S
C2682 C2686 1.531 . S
C2683 C2682 1.369 . S
C2683 C2684 1.410 . S
C2683 C2691 1.503 . S
C2684 C2683 1.410 . S
C2684 C2685 1.392 . S
C2684 C2687 1.511 . S
C2685 C2681 1.376 . S
C2685 C2684 1.392 . S
C2685 H2697 0.929 . S
C2686 C2682 1.531 . S
C2686 H2698 0.960 . S
C2686 H2699 0.962 . S
C2686 H2700 0.959 . S
C2687 C2684 1.511 . S
C2687 H2701 0.961 . S
C2687 H2702 0.961 . S
C2687 H2703 0.961 . S
C2688 C2689 1.370 . S
C2688 C2690 1.363 . S
C2688 H2704 0.931 . S
C2689 C2688 1.370 . S
C2689 C2693 1.408 . S
C2690 C2688 1.363 . S
C2690 C2691 1.370 . S
C2690 C2694 1.524 . S
C2691 C2683 1.503 . S
C2691 C2690 1.370 . S
C2691 C2692 1.403 . S
C2692 C2691 1.403 . S
C2692 C2693 1.404 . S
C2692 C2695 1.539 . S
C2693 C2689 1.408 . S
C2693 C2692 1.404 . S
C2693 H2705 0.930 . S
C2694 C2690 1.524 . S
C2694 H2706 0.956 . S
C2694 H2707 0.961 . S
C2694 H2708 0.961 . S
C2695 C2692 1.539 . S
C2695 H2709 0.958 1_545 S
C2695 H2710 0.961 . S
C2695 H2711 0.960 . S
H2696 C2680 0.931 . S
H2697 C2685 0.929 . S
H2698 C2686 0.960 . S
H2699 C2686 0.962 . S
H2700 C2686 0.959 . S
H2701 C2687 0.961 . S
H2702 C2687 0.961 . S
H2703 C2687 0.961 . S
H2704 C2688 0.931 . S
H2705 C2693 0.930 . S
H2706 C2694 0.956 . S
H2707 C2694 0.961 . S
H2708 C2694 0.961 . S
H2709 C2695 0.958 1_565 S
H2710 C2695 0.961 . S
H2711 C2695 0.960 . S
C2712 C2713 1.391 . S
C2712 C2714 1.394 . S
C2712 H2728 0.931 . S
C2713 C2712 1.391 . S
C2713 C2717 1.376 . S
C2714 C2712 1.394 . S
C2714 C2715 1.369 . S
C2714 C2718 1.531 . S
C2715 C2714 1.369 . S
C2715 C2716 1.410 . S
C2715 C2723 1.503 . S
C2716 C2715 1.410 . S
C2716 C2717 1.392 . S
C2716 C2719 1.511 . S
C2717 C2713 1.376 . S
C2717 C2716 1.392 . S
C2717 H2729 0.929 . S
C2718 C2714 1.531 . S
C2718 H2730 0.960 . S
C2718 H2731 0.962 . S
C2718 H2732 0.960 . S
C2719 C2716 1.511 . S
C2719 H2733 0.961 . S
C2719 H2734 0.961 . S
C2719 H2735 0.961 . S
C2720 C2721 1.370 . S
C2720 C2722 1.363 . S
C2720 H2736 0.931 . S
C2721 C2720 1.370 . S
C2721 C2725 1.408 . S
C2722 C2720 1.363 . S
C2722 C2723 1.370 . S
C2722 C2726 1.524 . S
C2723 C2715 1.503 . S
C2723 C2722 1.370 . S
C2723 C2724 1.403 . S
C2724 C2723 1.403 . S
C2724 C2725 1.404 . S
C2724 C2727 1.539 . S
C2725 C2721 1.408 . S
C2725 C2724 1.404 . S
C2725 H2737 0.930 . S
C2726 C2722 1.524 . S
C2726 H2738 0.956 . S
C2726 H2739 0.961 . S
C2726 H2740 0.961 . S
C2727 C2724 1.539 . S
C2727 H2741 0.958 . S
C2727 H2742 0.961 . S
C2727 H2743 0.960 . S
H2728 C2712 0.931 . S
H2729 C2717 0.929 . S
H2730 C2718 0.960 . S
H2731 C2718 0.962 . S
H2732 C2718 0.960 . S
H2733 C2719 0.961 . S
H2734 C2719 0.961 . S
H2735 C2719 0.961 . S
H2736 C2720 0.931 . S
H2737 C2725 0.930 . S
H2738 C2726 0.956 . S
H2739 C2726 0.961 . S
H2740 C2726 0.961 . S
H2741 C2727 0.958 . S
H2742 C2727 0.961 . S
H2743 C2727 0.960 . S
C2744 C2745 1.391 1_565 S
C2744 C2746 1.394 . S
C2744 H2760 0.931 . S
C2745 C2744 1.391 1_545 S
C2745 C2749 1.376 . S
C2746 C2744 1.394 . S
C2746 C2747 1.369 1_565 S
C2746 C2750 1.531 . S
C2747 C2746 1.369 1_545 S
C2747 C2748 1.410 . S
C2747 C2755 1.503 . S
C2748 C2747 1.410 . S
C2748 C2749 1.392 . S
C2748 C2751 1.511 . S
C2749 C2745 1.376 . S
C2749 C2748 1.392 . S
C2749 H2761 0.929 . S
C2750 C2746 1.531 . S
C2750 H2762 0.960 . S
C2750 H2763 0.962 . S
C2750 H2764 0.960 . S
C2751 C2748 1.511 . S
C2751 H2765 0.961 . S
C2751 H2766 0.961 . S
C2751 H2767 0.961 . S
C2752 C2753 1.370 . S
C2752 C2754 1.363 . S
C2752 H2768 0.931 . S
C2753 C2752 1.370 . S
C2753 C2757 1.408 . S
C2754 C2752 1.363 . S
C2754 C2755 1.370 . S
C2754 C2758 1.524 . S
C2755 C2747 1.503 . S
C2755 C2754 1.370 . S
C2755 C2756 1.403 . S
C2756 C2755 1.403 . S
C2756 C2757 1.404 . S
C2756 C2759 1.539 1_545 S
C2757 C2753 1.408 . S
C2757 C2756 1.404 . S
C2757 H2769 0.930 1_545 S
C2758 C2754 1.524 . S
C2758 H2770 0.956 . S
C2758 H2771 0.961 . S
C2758 H2772 0.961 . S
C2759 C2756 1.539 1_565 S
C2759 H2773 0.958 . S
C2759 H2774 0.961 . S
C2759 H2775 0.960 . S
H2760 C2744 0.931 . S
H2761 C2749 0.929 . S
H2762 C2750 0.960 . S
H2763 C2750 0.962 . S
H2764 C2750 0.960 . S
H2765 C2751 0.961 . S
H2766 C2751 0.961 . S
H2767 C2751 0.961 . S
H2768 C2752 0.931 . S
H2769 C2757 0.930 1_565 S
H2770 C2758 0.956 . S
H2771 C2758 0.961 . S
H2772 C2758 0.961 . S
H2773 C2759 0.958 . S
H2774 C2759 0.961 . S
H2775 C2759 0.960 . S
C2776 C2777 1.391 . S
C2776 C2778 1.394 . S
C2776 H2792 0.931 . S
C2777 C2776 1.391 . S
C2777 C2781 1.376 . S
C2778 C2776 1.394 . S
C2778 C2779 1.369 . S
C2778 C2782 1.531 . S
C2779 C2778 1.369 . S
C2779 C2780 1.410 . S
C2779 C2787 1.503 . S
C2780 C2779 1.410 . S
C2780 C2781 1.392 . S
C2780 C2783 1.511 . S
C2781 C2777 1.376 . S
C2781 C2780 1.392 . S
C2781 H2793 0.929 . S
C2782 C2778 1.531 . S
C2782 H2794 0.960 . S
C2782 H2795 0.962 . S
C2782 H2796 0.960 . S
C2783 C2780 1.511 . S
C2783 H2797 0.961 . S
C2783 H2798 0.961 . S
C2783 H2799 0.961 . S
C2784 C2785 1.370 . S
C2784 C2786 1.363 . S
C2784 H2800 0.931 . S
C2785 C2784 1.370 . S
C2785 C2789 1.408 . S
C2786 C2784 1.363 . S
C2786 C2787 1.370 . S
C2786 C2790 1.524 . S
C2787 C2779 1.503 . S
C2787 C2786 1.370 . S
C2787 C2788 1.403 . S
C2788 C2787 1.403 . S
C2788 C2789 1.404 . S
C2788 C2791 1.539 . S
C2789 C2785 1.408 . S
C2789 C2788 1.404 . S
C2789 H2801 0.930 . S
C2790 C2786 1.524 . S
C2790 H2802 0.956 . S
C2790 H2803 0.961 . S
C2790 H2804 0.961 . S
C2791 C2788 1.539 . S
C2791 H2805 0.958 . S
C2791 H2806 0.961 . S
C2791 H2807 0.960 . S
H2792 C2776 0.931 . S
H2793 C2781 0.929 . S
H2794 C2782 0.960 . S
H2795 C2782 0.962 . S
H2796 C2782 0.960 . S
H2797 C2783 0.961 . S
H2798 C2783 0.961 . S
H2799 C2783 0.961 . S
H2800 C2784 0.931 . S
H2801 C2789 0.930 . S
H2802 C2790 0.956 . S
H2803 C2790 0.961 . S
H2804 C2790 0.961 . S
H2805 C2791 0.958 . S
H2806 C2791 0.961 . S
H2807 C2791 0.960 . S
C2808 C2809 1.391 . S
C2808 C2810 1.394 . S
C2808 H2824 0.931 . S
C2809 C2808 1.391 . S
C2809 C2813 1.376 . S
C2810 C2808 1.394 . S
C2810 C2811 1.369 . S
C2810 C2814 1.531 . S
C2811 C2810 1.369 . S
C2811 C2812 1.410 . S
C2811 C2819 1.503 . S
C2812 C2811 1.410 . S
C2812 C2813 1.392 . S
C2812 C2815 1.511 . S
C2813 C2809 1.376 . S
C2813 C2812 1.392 . S
C2813 H2825 0.929 . S
C2814 C2810 1.531 . S
C2814 H2826 0.960 . S
C2814 H2827 0.962 . S
C2814 H2828 0.960 . S
C2815 C2812 1.511 . S
C2815 H2829 0.961 . S
C2815 H2830 0.961 . S
C2815 H2831 0.961 . S
C2816 C2817 1.370 . S
C2816 C2818 1.363 . S
C2816 H2832 0.931 . S
C2817 C2816 1.370 . S
C2817 C2821 1.408 . S
C2818 C2816 1.363 . S
C2818 C2819 1.370 . S
C2818 C2822 1.524 1_545 S
C2819 C2811 1.503 . S
C2819 C2818 1.370 . S
C2819 C2820 1.403 . S
C2820 C2819 1.403 . S
C2820 C2821 1.404 . S
C2820 C2823 1.539 . S
C2821 C2817 1.408 . S
C2821 C2820 1.404 . S
C2821 H2833 0.930 . S
C2822 C2818 1.524 1_565 S
C2822 H2834 0.956 1_565 S
C2822 H2835 0.961 . S
C2822 H2836 0.961 . S
C2823 C2820 1.539 . S
C2823 H2837 0.958 . S
C2823 H2838 0.961 . S
C2823 H2839 0.960 . S
H2824 C2808 0.931 . S
H2825 C2813 0.929 . S
H2826 C2814 0.960 . S
H2827 C2814 0.962 . S
H2828 C2814 0.960 . S
H2829 C2815 0.961 . S
H2830 C2815 0.961 . S
H2831 C2815 0.961 . S
H2832 C2816 0.931 . S
H2833 C2821 0.930 . S
H2834 C2822 0.956 1_545 S
H2835 C2822 0.961 . S
H2836 C2822 0.961 . S
H2837 C2823 0.958 . S
H2838 C2823 0.961 . S
H2839 C2823 0.960 . S
C2840 C2841 1.391 . S
C2840 C2842 1.394 . S
C2840 H2856 0.931 . S
C2841 C2840 1.391 . S
C2841 C2845 1.376 . S
C2842 C2840 1.394 . S
C2842 C2843 1.369 . S
C2842 C2846 1.531 . S
C2843 C2842 1.369 . S
C2843 C2844 1.410 . S
C2843 C2851 1.503 . S
C2844 C2843 1.410 . S
C2844 C2845 1.392 . S
C2844 C2847 1.511 . S
C2845 C2841 1.376 . S
C2845 C2844 1.392 . S
C2845 H2857 0.929 . S
C2846 C2842 1.531 . S
C2846 H2858 0.960 . S
C2846 H2859 0.962 . S
C2846 H2860 0.960 . S
C2847 C2844 1.511 . S
C2847 H2861 0.961 . S
C2847 H2862 0.961 . S
C2847 H2863 0.961 . S
C2848 C2849 1.370 . S
C2848 C2850 1.363 . S
C2848 H2864 0.931 . S
C2849 C2848 1.370 . S
C2849 C2853 1.408 . S
C2850 C2848 1.363 . S
C2850 C2851 1.370 . S
C2850 C2854 1.524 . S
C2851 C2843 1.503 . S
C2851 C2850 1.370 . S
C2851 C2852 1.403 . S
C2852 C2851 1.403 . S
C2852 C2853 1.404 . S
C2852 C2855 1.539 . S
C2853 C2849 1.408 . S
C2853 C2852 1.404 . S
C2853 H2865 0.930 . S
C2854 C2850 1.524 . S
C2854 H2866 0.956 . S
C2854 H2867 0.961 . S
C2854 H2868 0.961 . S
C2855 C2852 1.539 . S
C2855 H2869 0.958 . S
C2855 H2870 0.961 . S
C2855 H2871 0.960 . S
H2856 C2840 0.931 . S
H2857 C2845 0.929 . S
H2858 C2846 0.960 . S
H2859 C2846 0.962 . S
H2860 C2846 0.960 . S
H2861 C2847 0.961 . S
H2862 C2847 0.961 . S
H2863 C2847 0.961 . S
H2864 C2848 0.931 . S
H2865 C2853 0.930 . S
H2866 C2854 0.956 . S
H2867 C2854 0.961 . S
H2868 C2854 0.961 . S
H2869 C2855 0.958 . S
H2870 C2855 0.961 . S
H2871 C2855 0.960 . S
C2872 C2873 1.391 . S
C2872 C2874 1.394 . S
C2872 H2888 0.931 . S
C2873 C2872 1.391 . S
C2873 C2877 1.376 1_545 S
C2874 C2872 1.394 . S
C2874 C2875 1.369 . S
C2874 C2878 1.531 . S
C2875 C2874 1.369 . S
C2875 C2876 1.401 1_545 S
C2875 C2883 1.503 . S
C2876 C2875 1.401 1_565 S
C2876 C2877 1.393 . S
C2876 C2879 1.519 . S
C2877 C2873 1.376 1_565 S
C2877 C2876 1.393 . S
C2877 H2889 0.929 . S
C2878 C2874 1.531 . S
C2878 H2890 0.960 . S
C2878 H2891 0.962 . S
C2878 H2892 0.960 . S
C2879 C2876 1.519 . S
C2879 H2893 0.961 . S
C2879 H2894 0.961 . S
C2879 H2895 0.961 . S
C2880 C2881 1.370 . S
C2880 C2882 1.363 . S
C2880 H2896 0.931 . S
C2881 C2880 1.370 . S
C2881 C2885 1.408 . S
C2882 C2880 1.363 . S
C2882 C2883 1.370 . S
C2882 C2886 1.524 . S
C2883 C2875 1.503 . S
C2883 C2882 1.370 . S
C2883 C2884 1.403 . S
C2884 C2883 1.403 . S
C2884 C2885 1.404 . S
C2884 C2887 1.539 . S
C2885 C2881 1.408 . S
C2885 C2884 1.404 . S
C2885 H2897 0.930 . S
C2886 C2882 1.524 . S
C2886 H2898 0.956 . S
C2886 H2899 0.961 1_545 S
C2886 H2900 0.953 1_545 S
C2887 C2884 1.539 . S
C2887 H2901 0.958 . S
C2887 H2902 0.961 . S
C2887 H2903 0.960 . S
H2888 C2872 0.931 . S
H2889 C2877 0.929 . S
H2890 C2878 0.960 . S
H2891 C2878 0.962 . S
H2892 C2878 0.960 . S
H2893 C2879 0.961 . S
H2894 C2879 0.961 . S
H2895 C2879 0.961 . S
H2896 C2880 0.931 . S
H2897 C2885 0.930 . S
H2898 C2886 0.956 . S
H2899 C2886 0.961 1_565 S
H2900 C2886 0.953 1_565 S
H2901 C2887 0.958 . S
H2902 C2887 0.961 . S
H2903 C2887 0.960 . S
C2904 C2905 1.391 . S
C2904 C2906 1.394 . S
C2904 H2920 0.931 . S
C2905 C2904 1.391 . S
C2905 C2909 1.376 . S
C2906 C2904 1.394 . S
C2906 C2907 1.369 . S
C2906 C2910 1.531 . S
C2907 C2906 1.369 . S
C2907 C2908 1.410 . S
C2907 C2915 1.503 . S
C2908 C2907 1.410 . S
C2908 C2909 1.392 . S
C2908 C2911 1.511 . S
C2909 C2905 1.376 . S
C2909 C2908 1.392 . S
C2909 H2921 0.929 . S
C2910 C2906 1.531 . S
C2910 H2922 0.960 . S
C2910 H2923 0.962 . S
C2910 H2924 0.960 . S
C2911 C2908 1.511 . S
C2911 H2925 0.961 . S
C2911 H2926 0.961 . S
C2911 H2927 0.961 . S
C2912 C2913 1.370 . S
C2912 C2914 1.363 . S
C2912 H2928 0.931 . S
C2913 C2912 1.370 . S
C2913 C2917 1.408 . S
C2914 C2912 1.363 . S
C2914 C2915 1.370 . S
C2914 C2918 1.524 . S
C2915 C2907 1.503 . S
C2915 C2914 1.370 . S
C2915 C2916 1.403 . S
C2916 C2915 1.403 . S
C2916 C2917 1.404 . S
C2916 C2919 1.539 . S
C2917 C2913 1.408 . S
C2917 C2916 1.404 . S
C2917 H2929 0.930 . S
C2918 C2914 1.524 . S
C2918 H2930 0.956 . S
C2918 H2931 0.961 . S
C2918 H2932 0.961 . S
C2919 C2916 1.539 . S
C2919 H2933 0.958 . S
C2919 H2934 0.961 . S
C2919 H2935 0.960 . S
H2920 C2904 0.931 . S
H2921 C2909 0.929 . S
H2922 C2910 0.960 . S
H2923 C2910 0.962 . S
H2924 C2910 0.960 . S
H2925 C2911 0.961 . S
H2926 C2911 0.961 . S
H2927 C2911 0.961 . S
H2928 C2912 0.931 . S
H2929 C2917 0.930 . S
H2930 C2918 0.956 . S
H2931 C2918 0.961 . S
H2932 C2918 0.961 . S
H2933 C2919 0.958 . S
H2934 C2919 0.961 . S
H2935 C2919 0.960 . S
C2936 C2937 1.391 . S
C2936 C2938 1.394 . S
C2936 H2952 0.931 . S
C2937 C2936 1.391 . S
C2937 C2941 1.376 . S
C2938 C2936 1.394 . S
C2938 C2939 1.369 . S
C2938 C2942 1.531 . S
C2939 C2938 1.369 . S
C2939 C2940 1.410 . S
C2939 C2947 1.503 . S
C2940 C2939 1.410 . S
C2940 C2941 1.392 . S
C2940 C2943 1.511 . S
C2941 C2937 1.376 . S
C2941 C2940 1.392 . S
C2941 H2953 0.929 . S
C2942 C2938 1.531 . S
C2942 H2954 0.960 . S
C2942 H2955 0.962 . S
C2942 H2956 0.960 . S
C2943 C2940 1.511 . S
C2943 H2957 0.961 . S
C2943 H2958 0.961 . S
C2943 H2959 0.961 . S
C2944 C2945 1.370 . S
C2944 C2946 1.363 . S
C2944 H2960 0.931 . S
C2945 C2944 1.370 . S
C2945 C2949 1.408 . S
C2946 C2944 1.363 . S
C2946 C2947 1.370 . S
C2946 C2950 1.524 . S
C2947 C2939 1.503 . S
C2947 C2946 1.370 . S
C2947 C2948 1.403 . S
C2948 C2947 1.403 . S
C2948 C2949 1.404 . S
C2948 C2951 1.539 . S
C2949 C2945 1.408 . S
C2949 C2948 1.404 . S
C2949 H2961 0.930 . S
C2950 C2946 1.524 . S
C2950 H2962 0.956 . S
C2950 H2963 0.961 . S
C2950 H2964 0.961 . S
C2951 C2948 1.539 . S
C2951 H2965 0.958 . S
C2951 H2966 0.961 . S
C2951 H2967 0.960 . S
H2952 C2936 0.931 . S
H2953 C2941 0.929 . S
H2954 C2942 0.960 . S
H2955 C2942 0.962 . S
H2956 C2942 0.960 . S
H2957 C2943 0.961 . S
H2958 C2943 0.961 . S
H2959 C2943 0.961 . S
H2960 C2944 0.931 . S
H2961 C2949 0.930 . S
H2962 C2950 0.956 . S
H2963 C2950 0.961 . S
H2964 C2950 0.961 . S
H2965 C2951 0.958 . S
H2966 C2951 0.961 . S
H2967 C2951 0.960 . S
C2968 C2969 1.391 . S
C2968 C2970 1.394 . S
C2968 H2984 0.931 . S
C2969 C2968 1.391 . S
C2969 C2973 1.376 . S
C2970 C2968 1.394 . S
C2970 C2971 1.369 . S
C2970 C2974 1.531 . S
C2971 C2970 1.369 . S
C2971 C2972 1.410 . S
C2971 C2979 1.503 . S
C2972 C2971 1.410 . S
C2972 C2973 1.392 . S
C2972 C2975 1.511 . S
C2973 C2969 1.376 . S
C2973 C2972 1.392 . S
C2973 H2985 0.929 . S
C2974 C2970 1.531 . S
C2974 H2986 0.960 . S
C2974 H2987 0.962 . S
C2974 H2988 0.960 . S
C2975 C2972 1.511 . S
C2975 H2989 0.961 . S
C2975 H2990 0.961 . S
C2975 H2991 0.961 . S
C2976 C2977 1.370 . S
C2976 C2978 1.363 . S
C2976 H2992 0.931 . S
C2977 C2976 1.370 . S
C2977 C2981 1.408 . S
C2978 C2976 1.363 . S
C2978 C2979 1.370 . S
C2978 C2982 1.507 1_554 S
C2979 C2971 1.503 . S
C2979 C2978 1.370 . S
C2979 C2980 1.403 . S
C2980 C2979 1.403 . S
C2980 C2981 1.404 . S
C2980 C2983 1.539 . S
C2981 C2977 1.408 . S
C2981 C2980 1.404 . S
C2981 H2993 0.930 . S
C2982 C2978 1.507 1_556 S
C2982 H2994 0.965 . S
C2982 H2995 0.946 1_556 S
C2982 H2996 0.983 . S
C2983 C2980 1.539 . S
C2983 H2997 0.958 . S
C2983 H2998 0.961 . S
C2983 H2999 0.960 . S
H2984 C2968 0.931 . S
H2985 C2973 0.929 . S
H2986 C2974 0.960 . S
H2987 C2974 0.962 . S
H2988 C2974 0.960 . S
H2989 C2975 0.961 . S
H2990 C2975 0.961 . S
H2991 C2975 0.961 . S
H2992 C2976 0.931 . S
H2993 C2981 0.930 . S
H2994 C2982 0.965 . S
H2995 C2982 0.946 1_554 S
H2996 C2982 0.983 . S
H2997 C2983 0.958 . S
H2998 C2983 0.961 . S
H2999 C2983 0.960 . S
C3000 C3001 1.391 . S
C3000 C3002 1.394 . S
C3000 H3016 0.931 . S
C3001 C3000 1.391 . S
C3001 C3005 1.376 . S
C3002 C3000 1.394 . S
C3002 C3003 1.369 . S
C3002 C3006 1.531 . S
C3003 C3002 1.369 . S
C3003 C3004 1.410 . S
C3003 C3011 1.503 . S
C3004 C3003 1.410 . S
C3004 C3005 1.392 . S
C3004 C3007 1.511 . S
C3005 C3001 1.376 . S
C3005 C3004 1.392 . S
C3005 H3017 0.929 . S
C3006 C3002 1.531 . S
C3006 H3018 0.960 . S
C3006 H3019 0.962 . S
C3006 H3020 0.960 . S
C3007 C3004 1.511 . S
C3007 H3021 0.961 . S
C3007 H3022 0.961 . S
C3007 H3023 0.961 . S
C3008 C3009 1.370 . S
C3008 C3010 1.363 . S
C3008 H3024 0.931 . S
C3009 C3008 1.370 . S
C3009 C3013 1.408 . S
C3010 C3008 1.363 . S
C3010 C3011 1.370 . S
C3010 C3014 1.524 . S
C3011 C3003 1.503 . S
C3011 C3010 1.370 . S
C3011 C3012 1.403 . S
C3012 C3011 1.403 . S
C3012 C3013 1.404 . S
C3012 C3015 1.539 . S
C3013 C3009 1.408 . S
C3013 C3012 1.404 . S
C3013 H3025 0.930 . S
C3014 C3010 1.524 . S
C3014 H3026 0.956 . S
C3014 H3027 0.961 . S
C3014 H3028 0.961 . S
C3015 C3012 1.539 . S
C3015 H3029 0.958 . S
C3015 H3030 0.961 . S
C3015 H3031 0.960 . S
H3016 C3000 0.931 . S
H3017 C3005 0.929 . S
H3018 C3006 0.960 . S
H3019 C3006 0.962 . S
H3020 C3006 0.960 . S
H3021 C3007 0.961 . S
H3022 C3007 0.961 . S
H3023 C3007 0.961 . S
H3024 C3008 0.931 . S
H3025 C3013 0.930 . S
H3026 C3014 0.956 . S
H3027 C3014 0.961 . S
H3028 C3014 0.961 . S
H3029 C3015 0.958 . S
H3030 C3015 0.961 . S
H3031 C3015 0.960 . S
C3032 C3033 1.391 . S
C3032 C3034 1.394 . S
C3032 H3048 0.931 . S
C3033 C3032 1.391 . S
C3033 C3037 1.376 . S
C3034 C3032 1.394 . S
C3034 C3035 1.369 . S
C3034 C3038 1.531 . S
C3035 C3034 1.369 . S
C3035 C3036 1.410 . S
C3035 C3043 1.503 . S
C3036 C3035 1.410 . S
C3036 C3037 1.392 . S
C3036 C3039 1.511 . S
C3037 C3033 1.376 . S
C3037 C3036 1.392 . S
C3037 H3049 0.929 . S
C3038 C3034 1.531 . S
C3038 H3050 0.960 . S
C3038 H3051 0.962 . S
C3038 H3052 0.960 . S
C3039 C3036 1.511 . S
C3039 H3053 0.961 . S
C3039 H3054 0.961 . S
C3039 H3055 0.961 . S
C3040 C3041 1.370 . S
C3040 C3042 1.363 . S
C3040 H3056 0.931 . S
C3041 C3040 1.370 . S
C3041 C3045 1.408 . S
C3042 C3040 1.363 . S
C3042 C3043 1.370 . S
C3042 C3046 1.524 . S
C3043 C3035 1.503 . S
C3043 C3042 1.370 . S
C3043 C3044 1.403 . S
C3044 C3043 1.403 . S
C3044 C3045 1.404 . S
C3044 C3047 1.539 . S
C3045 C3041 1.408 . S
C3045 C3044 1.404 . S
C3045 H3057 0.930 . S
C3046 C3042 1.524 . S
C3046 H3058 0.956 . S
C3046 H3059 0.961 . S
C3046 H3060 0.961 . S
C3047 C3044 1.539 . S
C3047 H3061 0.958 . S
C3047 H3062 0.961 . S
C3047 H3063 0.960 . S
H3048 C3032 0.931 . S
H3049 C3037 0.929 . S
H3050 C3038 0.960 . S
H3051 C3038 0.962 . S
H3052 C3038 0.960 . S
H3053 C3039 0.961 . S
H3054 C3039 0.961 . S
H3055 C3039 0.961 . S
H3056 C3040 0.931 . S
H3057 C3045 0.930 . S
H3058 C3046 0.956 . S
H3059 C3046 0.961 . S
H3060 C3046 0.961 . S
H3061 C3047 0.958 . S
H3062 C3047 0.961 . S
H3063 C3047 0.960 . S
C3064 C3065 1.391 1_565 S
C3064 C3066 1.394 . S
C3064 H3080 0.931 1_565 S
C3065 C3064 1.391 1_545 S
C3065 C3069 1.376 1_545 S
C3066 C3064 1.394 . S
C3066 C3067 1.369 . S
C3066 C3070 1.531 . S
C3067 C3066 1.369 . S
C3067 C3068 1.410 . S
C3067 C3075 1.503 . S
C3068 C3067 1.410 . S
C3068 C3069 1.392 . S
C3068 C3071 1.511 . S
C3069 C3065 1.376 1_565 S
C3069 C3068 1.392 . S
C3069 H3081 0.929 . S
C3070 C3066 1.531 . S
C3070 H3082 0.960 . S
C3070 H3083 0.962 . S
C3070 H3084 0.960 . S
C3071 C3068 1.511 . S
C3071 H3085 0.961 . S
C3071 H3086 0.961 . S
C3071 H3087 0.961 . S
C3072 C3073 1.370 . S
C3072 C3074 1.363 . S
C3072 H3088 0.931 . S
C3073 C3072 1.370 . S
C3073 C3077 1.408 . S
C3074 C3072 1.363 . S
C3074 C3075 1.370 . S
C3074 C3078 1.524 . S
C3075 C3067 1.503 . S
C3075 C3074 1.370 . S
C3075 C3076 1.403 . S
C3076 C3075 1.403 . S
C3076 C3077 1.404 . S
C3076 C3079 1.539 . S
C3077 C3073 1.408 . S
C3077 C3076 1.404 . S
C3077 H3089 0.930 . S
C3078 C3074 1.524 . S
C3078 H3090 0.956 . S
C3078 H3091 0.961 . S
C3078 H3092 0.961 . S
C3079 C3076 1.539 . S
C3079 H3093 0.958 . S
C3079 H3094 0.961 . S
C3079 H3095 0.960 . S
H3080 C3064 0.931 1_545 S
H3081 C3069 0.929 . S
H3082 C3070 0.960 . S
H3083 C3070 0.962 . S
H3084 C3070 0.960 . S
H3085 C3071 0.961 . S
H3086 C3071 0.961 . S
H3087 C3071 0.961 . S
H3088 C3072 0.931 . S
H3089 C3077 0.930 . S
H3090 C3078 0.956 . S
H3091 C3078 0.961 . S
H3092 C3078 0.961 . S
H3093 C3079 0.958 . S
H3094 C3079 0.961 . S
H3095 C3079 0.960 . S
C3096 C3097 1.391 . S
C3096 C3098 1.394 . S
C3096 H3112 0.931 . S
C3097 C3096 1.391 . S
C3097 C3101 1.376 . S
C3098 C3096 1.394 . S
C3098 C3099 1.369 . S
C3098 C3102 1.531 . S
C3099 C3098 1.369 . S
C3099 C3100 1.410 . S
C3099 C3107 1.503 . S
C3100 C3099 1.410 . S
C3100 C3101 1.392 . S
C3100 C3103 1.511 . S
C3101 C3097 1.376 . S
C3101 C3100 1.392 . S
C3101 H3113 0.929 . S
C3102 C3098 1.531 . S
C3102 H3114 0.960 . S
C3102 H3115 0.962 . S
C3102 H3116 0.960 . S
C3103 C3100 1.511 . S
C3103 H3117 0.961 . S
C3103 H3118 0.961 . S
C3103 H3119 0.961 . S
C3104 C3105 1.370 . S
C3104 C3106 1.363 . S
C3104 H3120 0.931 . S
C3105 C3104 1.370 . S
C3105 C3109 1.408 . S
C3106 C3104 1.363 . S
C3106 C3107 1.370 . S
C3106 C3110 1.524 . S
C3107 C3099 1.503 . S
C3107 C3106 1.370 . S
C3107 C3108 1.403 . S
C3108 C3107 1.403 . S
C3108 C3109 1.404 . S
C3108 C3111 1.539 . S
C3109 C3105 1.408 . S
C3109 C3108 1.404 . S
C3109 H3121 0.930 . S
C3110 C3106 1.524 . S
C3110 H3122 0.956 . S
C3110 H3123 0.961 . S
C3110 H3124 0.961 . S
C3111 C3108 1.539 . S
C3111 H3125 0.958 . S
C3111 H3126 0.961 . S
C3111 H3127 0.960 . S
H3112 C3096 0.931 . S
H3113 C3101 0.929 . S
H3114 C3102 0.960 . S
H3115 C3102 0.962 . S
H3116 C3102 0.960 . S
H3117 C3103 0.961 . S
H3118 C3103 0.961 . S
H3119 C3103 0.961 . S
H3120 C3104 0.931 . S
H3121 C3109 0.930 . S
H3122 C3110 0.956 . S
H3123 C3110 0.961 . S
H3124 C3110 0.961 . S
H3125 C3111 0.958 . S
H3126 C3111 0.961 . S
H3127 C3111 0.960 . S
C3128 C3129 1.391 . S
C3128 C3130 1.394 . S
C3128 H3144 0.931 . S
C3129 C3128 1.391 . S
C3129 C3133 1.376 . S
C3130 C3128 1.394 . S
C3130 C3131 1.369 . S
C3130 C3134 1.531 . S
C3131 C3130 1.369 . S
C3131 C3132 1.410 . S
C3131 C3139 1.503 . S
C3132 C3131 1.410 . S
C3132 C3133 1.392 . S
C3132 C3135 1.511 . S
C3133 C3129 1.376 . S
C3133 C3132 1.392 . S
C3133 H3145 0.929 . S
C3134 C3130 1.531 . S
C3134 H3146 0.960 . S
C3134 H3147 0.962 . S
C3134 H3148 0.960 . S
C3135 C3132 1.511 . S
C3135 H3149 0.961 . S
C3135 H3150 0.961 . S
C3135 H3151 0.961 . S
C3136 C3137 1.370 . S
C3136 C3138 1.363 . S
C3136 H3152 0.931 . S
C3137 C3136 1.370 . S
C3137 C3141 1.408 . S
C3138 C3136 1.363 . S
C3138 C3139 1.370 . S
C3138 C3142 1.524 . S
C3139 C3131 1.503 . S
C3139 C3138 1.370 . S
C3139 C3140 1.403 . S
C3140 C3139 1.403 . S
C3140 C3141 1.404 . S
C3140 C3143 1.539 . S
C3141 C3137 1.408 . S
C3141 C3140 1.404 . S
C3141 H3153 0.930 . S
C3142 C3138 1.524 . S
C3142 H3154 0.956 . S
C3142 H3155 0.961 . S
C3142 H3156 0.961 . S
C3143 C3140 1.539 . S
C3143 H3157 0.958 . S
C3143 H3158 0.961 . S
C3143 H3159 0.960 . S
H3144 C3128 0.931 . S
H3145 C3133 0.929 . S
H3146 C3134 0.960 . S
H3147 C3134 0.962 . S
H3148 C3134 0.960 . S
H3149 C3135 0.961 . S
H3150 C3135 0.961 . S
H3151 C3135 0.961 . S
H3152 C3136 0.931 . S
H3153 C3141 0.930 . S
H3154 C3142 0.956 . S
H3155 C3142 0.961 . S
H3156 C3142 0.961 . S
H3157 C3143 0.958 . S
H3158 C3143 0.961 . S
H3159 C3143 0.960 . S
C3160 C3161 1.391 . S
C3160 C3162 1.394 . S
C3160 H3176 0.931 . S
C3161 C3160 1.391 . S
C3161 C3165 1.376 . S
C3162 C3160 1.394 . S
C3162 C3163 1.369 . S
C3162 C3166 1.531 . S
C3163 C3162 1.369 . S
C3163 C3164 1.410 . S
C3163 C3171 1.503 . S
C3164 C3163 1.410 . S
C3164 C3165 1.392 . S
C3164 C3167 1.511 . S
C3165 C3161 1.376 . S
C3165 C3164 1.392 . S
C3165 H3177 0.929 . S
C3166 C3162 1.531 . S
C3166 H3178 0.960 . S
C3166 H3179 0.962 . S
C3166 H3180 0.960 . S
C3167 C3164 1.511 . S
C3167 H3181 0.961 . S
C3167 H3182 0.961 . S
C3167 H3183 0.961 . S
C3168 C3169 1.370 . S
C3168 C3170 1.363 . S
C3168 H3184 0.931 . S
C3169 C3168 1.370 . S
C3169 C3173 1.408 . S
C3170 C3168 1.363 . S
C3170 C3171 1.370 . S
C3170 C3174 1.524 . S
C3171 C3163 1.503 . S
C3171 C3170 1.370 . S
C3171 C3172 1.403 . S
C3172 C3171 1.403 . S
C3172 C3173 1.404 . S
C3172 C3175 1.539 . S
C3173 C3169 1.408 . S
C3173 C3172 1.404 . S
C3173 H3185 0.930 . S
C3174 C3170 1.524 . S
C3174 H3186 0.956 . S
C3174 H3187 0.961 . S
C3174 H3188 0.961 . S
C3175 C3172 1.539 . S
C3175 H3189 0.958 . S
C3175 H3190 0.961 . S
C3175 H3191 0.960 . S
H3176 C3160 0.931 . S
H3177 C3165 0.929 . S
H3178 C3166 0.960 . S
H3179 C3166 0.962 . S
H3180 C3166 0.960 . S
H3181 C3167 0.961 . S
H3182 C3167 0.961 . S
H3183 C3167 0.961 . S
H3184 C3168 0.931 . S
H3185 C3173 0.930 . S
H3186 C3174 0.956 . S
H3187 C3174 0.961 . S
H3188 C3174 0.961 . S
H3189 C3175 0.958 . S
H3190 C3175 0.961 . S
H3191 C3175 0.960 . S
C3192 C3193 1.391 . S
C3192 C3194 1.394 . S
C3192 H3208 0.931 . S
C3193 C3192 1.391 . S
C3193 C3197 1.376 . S
C3194 C3192 1.394 . S
C3194 C3195 1.369 . S
C3194 C3198 1.531 . S
C3195 C3194 1.369 . S
C3195 C3196 1.410 . S
C3195 C3203 1.503 . S
C3196 C3195 1.410 . S
C3196 C3197 1.392 . S
C3196 C3199 1.511 . S
C3197 C3193 1.376 . S
C3197 C3196 1.392 . S
C3197 H3209 0.929 . S
C3198 C3194 1.531 . S
C3198 H3210 0.960 . S
C3198 H3211 0.962 . S
C3198 H3212 0.960 . S
C3199 C3196 1.511 . S
C3199 H3213 0.961 . S
C3199 H3214 0.961 . S
C3199 H3215 0.961 . S
C3200 C3201 1.370 . S
C3200 C3202 1.363 . S
C3200 H3216 0.931 . S
C3201 C3200 1.370 . S
C3201 C3205 1.408 . S
C3202 C3200 1.363 . S
C3202 C3203 1.370 . S
C3202 C3206 1.524 . S
C3203 C3195 1.503 . S
C3203 C3202 1.370 . S
C3203 C3204 1.403 . S
C3204 C3203 1.403 . S
C3204 C3205 1.404 . S
C3204 C3207 1.539 . S
C3205 C3201 1.408 . S
C3205 C3204 1.404 . S
C3205 H3217 0.930 . S
C3206 C3202 1.524 . S
C3206 H3218 0.956 . S
C3206 H3219 0.961 . S
C3206 H3220 0.961 . S
C3207 C3204 1.539 . S
C3207 H3221 0.958 . S
C3207 H3222 0.961 . S
C3207 H3223 0.960 . S
H3208 C3192 0.931 . S
H3209 C3197 0.929 . S
H3210 C3198 0.960 . S
H3211 C3198 0.962 . S
H3212 C3198 0.960 . S
H3213 C3199 0.961 . S
H3214 C3199 0.961 . S
H3215 C3199 0.961 . S
H3216 C3200 0.931 . S
H3217 C3205 0.930 . S
H3218 C3206 0.956 . S
H3219 C3206 0.961 . S
H3220 C3206 0.961 . S
H3221 C3207 0.958 . S
H3222 C3207 0.961 . S
H3223 C3207 0.960 . S
C3224 C3225 1.391 . S
C3224 C3226 1.394 . S
C3224 H3240 0.931 . S
C3225 C3224 1.391 . S
C3225 C3229 1.376 . S
C3226 C3224 1.394 . S
C3226 C3227 1.369 . S
C3226 C3230 1.531 . S
C3227 C3226 1.369 . S
C3227 C3228 1.410 . S
C3227 C3235 1.503 . S
C3228 C3227 1.410 . S
C3228 C3229 1.392 . S
C3228 C3231 1.511 . S
C3229 C3225 1.376 . S
C3229 C3228 1.392 . S
C3229 H3241 0.929 . S
C3230 C3226 1.531 . S
C3230 H3242 0.960 . S
C3230 H3243 0.962 . S
C3230 H3244 0.960 . S
C3231 C3228 1.511 . S
C3231 H3245 0.961 . S
C3231 H3246 0.961 . S
C3231 H3247 0.961 . S
C3232 C3233 1.370 . S
C3232 C3234 1.363 . S
C3232 H3248 0.931 . S
C3233 C3232 1.370 . S
C3233 C3237 1.408 . S
C3234 C3232 1.363 . S
C3234 C3235 1.370 . S
C3234 C3238 1.524 . S
C3235 C3227 1.503 . S
C3235 C3234 1.370 . S
C3235 C3236 1.403 . S
C3236 C3235 1.403 . S
C3236 C3237 1.404 . S
C3236 C3239 1.539 . S
C3237 C3233 1.408 . S
C3237 C3236 1.404 . S
C3237 H3249 0.930 . S
C3238 C3234 1.524 . S
C3238 H3250 0.956 . S
C3238 H3251 0.961 . S
C3238 H3252 0.961 . S
C3239 C3236 1.539 . S
C3239 H3253 0.958 . S
C3239 H3254 0.961 . S
C3239 H3255 0.960 . S
H3240 C3224 0.931 . S
H3241 C3229 0.929 . S
H3242 C3230 0.960 . S
H3243 C3230 0.962 . S
H3244 C3230 0.960 . S
H3245 C3231 0.961 . S
H3246 C3231 0.961 . S
H3247 C3231 0.961 . S
H3248 C3232 0.931 . S
H3249 C3237 0.930 . S
H3250 C3238 0.956 . S
H3251 C3238 0.961 . S
H3252 C3238 0.961 . S
H3253 C3239 0.958 . S
H3254 C3239 0.961 . S
H3255 C3239 0.960 . S
C3256 C3257 1.391 . S
C3256 C3258 1.394 . S
C3256 H3272 0.931 . S
C3257 C3256 1.391 . S
C3257 C3261 1.376 1_456 S
C3258 C3256 1.394 . S
C3258 C3259 1.369 . S
C3258 C3262 1.531 . S
C3259 C3258 1.369 . S
C3259 C3260 1.410 1_456 S
C3259 C3267 1.503 1_556 S
C3260 C3259 1.410 1_654 S
C3260 C3261 1.392 . S
C3260 C3263 1.511 . S
C3261 C3257 1.376 1_654 S
C3261 C3260 1.392 . S
C3261 H3273 0.929 . S
C3262 C3258 1.531 . S
C3262 H3274 0.960 . S
C3262 H3275 0.962 . S
C3262 H3276 0.960 . S
C3263 C3260 1.511 . S
C3263 H3277 0.961 . S
C3263 H3278 0.961 . S
C3263 H3279 0.961 . S
C3264 C3265 1.370 . S
C3264 C3266 1.363 . S
C3264 H3280 0.931 . S
C3265 C3264 1.370 . S
C3265 C3269 1.408 1_455 S
C3266 C3264 1.363 . S
C3266 C3267 1.370 . S
C3266 C3270 1.524 . S
C3267 C3259 1.503 1_554 S
C3267 C3266 1.370 . S
C3267 C3268 1.403 1_455 S
C3268 C3267 1.403 1_655 S
C3268 C3269 1.404 . S
C3268 C3271 1.539 1_554 S
C3269 C3265 1.408 1_655 S
C3269 C3268 1.404 . S
C3269 H3281 0.930 . S
C3270 C3266 1.524 . S
C3270 H3282 0.956 . S
C3270 H3283 0.961 . S
C3270 H3284 0.961 . S
C3271 C3268 1.539 1_556 S
C3271 H3285 0.958 . S
C3271 H3286 0.962 . S
C3271 H3287 0.960 . S
H3272 C3256 0.931 . S
H3273 C3261 0.929 . S
H3274 C3262 0.960 . S
H3275 C3262 0.962 . S
H3276 C3262 0.960 . S
H3277 C3263 0.961 . S
H3278 C3263 0.961 . S
H3279 C3263 0.961 . S
H3280 C3264 0.931 . S
H3281 C3269 0.930 . S
H3282 C3270 0.956 . S
H3283 C3270 0.961 . S
H3284 C3270 0.961 . S
H3285 C3271 0.958 . S
H3286 C3271 0.962 . S
H3287 C3271 0.960 . S
C3288 C3289 1.391 . S
C3288 C3290 1.394 . S
C3288 H3304 0.931 . S
C3289 C3288 1.391 . S
C3289 C3293 1.376 1_655 S
C3290 C3288 1.394 . S
C3290 C3291 1.369 . S
C3290 C3294 1.531 . S
C3291 C3290 1.369 . S
C3291 C3292 1.410 . S
C3291 C3299 1.503 . S
C3292 C3291 1.410 . S
C3292 C3293 1.392 1_655 S
C3292 C3295 1.511 . S
C3293 C3289 1.376 1_455 S
C3293 C3292 1.392 1_455 S
C3293 H3305 0.929 . S
C3294 C3290 1.531 . S
C3294 H3306 0.960 . S
C3294 H3307 0.962 . S
C3294 H3308 0.960 . S
C3295 C3292 1.511 . S
C3295 H3309 0.961 1_655 S
C3295 H3310 0.961 . S
C3295 H3311 0.961 . S
C3296 C3297 1.370 . S
C3296 C3298 1.363 . S
C3296 H3312 0.931 . S
C3297 C3296 1.370 . S
C3297 C3301 1.408 . S
C3298 C3296 1.363 . S
C3298 C3299 1.370 . S
C3298 C3302 1.524 . S
C3299 C3291 1.503 . S
C3299 C3298 1.370 . S
C3299 C3300 1.403 . S
C3300 C3299 1.403 . S
C3300 C3301 1.404 . S
C3300 C3303 1.539 . S
C3301 C3297 1.408 . S
C3301 C3300 1.404 . S
C3301 H3313 0.930 . S
C3302 C3298 1.524 . S
C3302 H3314 0.956 . S
C3302 H3315 0.961 . S
C3302 H3316 0.961 . S
C3303 C3300 1.539 . S
C3303 H3317 0.958 . S
C3303 H3318 0.961 . S
C3303 H3319 0.960 . S
H3304 C3288 0.931 . S
H3305 C3293 0.929 . S
H3306 C3294 0.960 . S
H3307 C3294 0.962 . S
H3308 C3294 0.960 . S
H3309 C3295 0.961 1_455 S
H3310 C3295 0.961 . S
H3311 C3295 0.961 . S
H3312 C3296 0.931 . S
H3313 C3301 0.930 . S
H3314 C3302 0.956 . S
H3315 C3302 0.961 . S
H3316 C3302 0.961 . S
H3317 C3303 0.958 . S
H3318 C3303 0.961 . S
H3319 C3303 0.960 . S
C3320 C3321 1.391 . S
C3320 C3322 1.394 . S
C3320 H3336 0.931 . S
C3321 C3320 1.391 . S
C3321 C3325 1.376 . S
C3322 C3320 1.394 . S
C3322 C3323 1.369 . S
C3322 C3326 1.531 . S
C3323 C3322 1.369 . S
C3323 C3324 1.410 . S
C3323 C3331 1.503 . S
C3324 C3323 1.410 . S
C3324 C3325 1.392 . S
C3324 C3327 1.511 . S
C3325 C3321 1.376 . S
C3325 C3324 1.392 . S
C3325 H3337 0.929 . S
C3326 C3322 1.531 . S
C3326 H3338 0.960 . S
C3326 H3339 0.962 . S
C3326 H3340 0.960 . S
C3327 C3324 1.511 . S
C3327 H3341 0.961 . S
C3327 H3342 0.961 . S
C3327 H3343 0.961 . S
C3328 C3329 1.370 . S
C3328 C3330 1.363 . S
C3328 H3344 0.931 . S
C3329 C3328 1.370 . S
C3329 C3333 1.408 . S
C3330 C3328 1.363 . S
C3330 C3331 1.370 . S
C3330 C3334 1.524 . S
C3331 C3323 1.503 . S
C3331 C3330 1.370 . S
C3331 C3332 1.403 . S
C3332 C3331 1.403 . S
C3332 C3333 1.404 . S
C3332 C3335 1.539 . S
C3333 C3329 1.408 . S
C3333 C3332 1.404 . S
C3333 H3345 0.930 . S
C3334 C3330 1.524 . S
C3334 H3346 0.956 . S
C3334 H3347 0.961 . S
C3334 H3348 0.961 . S
C3335 C3332 1.539 . S
C3335 H3349 0.958 . S
C3335 H3350 0.961 . S
C3335 H3351 0.960 . S
H3336 C3320 0.931 . S
H3337 C3325 0.929 . S
H3338 C3326 0.960 . S
H3339 C3326 0.962 . S
H3340 C3326 0.960 . S
H3341 C3327 0.961 . S
H3342 C3327 0.961 . S
H3343 C3327 0.961 . S
H3344 C3328 0.931 . S
H3345 C3333 0.930 . S
H3346 C3334 0.956 . S
H3347 C3334 0.961 . S
H3348 C3334 0.961 . S
H3349 C3335 0.958 . S
H3350 C3335 0.961 . S
H3351 C3335 0.960 . S
C3352 C3353 1.391 . S
C3352 C3354 1.394 . S
C3352 H3368 0.931 . S
C3353 C3352 1.391 . S
C3353 C3357 1.376 . S
C3354 C3352 1.394 . S
C3354 C3355 1.369 . S
C3354 C3358 1.531 . S
C3355 C3354 1.369 . S
C3355 C3356 1.410 . S
C3355 C3363 1.503 . S
C3356 C3355 1.410 . S
C3356 C3357 1.392 . S
C3356 C3359 1.511 . S
C3357 C3353 1.376 . S
C3357 C3356 1.392 . S
C3357 H3369 0.929 . S
C3358 C3354 1.531 . S
C3358 H3370 0.960 . S
C3358 H3371 0.962 . S
C3358 H3372 0.960 . S
C3359 C3356 1.511 . S
C3359 H3373 0.961 . S
C3359 H3374 0.961 . S
C3359 H3375 0.961 . S
C3360 C3361 1.370 . S
C3360 C3362 1.363 . S
C3360 H3376 0.931 . S
C3361 C3360 1.370 . S
C3361 C3365 1.408 . S
C3362 C3360 1.363 . S
C3362 C3363 1.370 . S
C3362 C3366 1.524 . S
C3363 C3355 1.503 . S
C3363 C3362 1.370 . S
C3363 C3364 1.403 . S
C3364 C3363 1.403 . S
C3364 C3365 1.404 . S
C3364 C3367 1.539 . S
C3365 C3361 1.408 . S
C3365 C3364 1.404 . S
C3365 H3377 0.930 . S
C3366 C3362 1.524 . S
C3366 H3378 0.956 . S
C3366 H3379 0.961 . S
C3366 H3380 0.961 . S
C3367 C3364 1.539 . S
C3367 H3381 0.958 . S
C3367 H3382 0.961 . S
C3367 H3383 0.960 . S
H3368 C3352 0.931 . S
H3369 C3357 0.929 . S
H3370 C3358 0.960 . S
H3371 C3358 0.962 . S
H3372 C3358 0.960 . S
H3373 C3359 0.961 . S
H3374 C3359 0.961 . S
H3375 C3359 0.961 . S
H3376 C3360 0.931 . S
H3377 C3365 0.930 . S
H3378 C3366 0.956 . S
H3379 C3366 0.961 . S
H3380 C3366 0.961 . S
H3381 C3367 0.958 . S
H3382 C3367 0.961 . S
H3383 C3367 0.960 . S
C3384 C3385 1.391 . S
C3384 C3386 1.394 . S
C3384 H3400 0.931 . S
C3385 C3384 1.391 . S
C3385 C3389 1.376 1_455 S
C3386 C3384 1.394 . S
C3386 C3387 1.369 . S
C3386 C3390 1.531 . S
C3387 C3386 1.369 . S
C3387 C3388 1.410 1_455 S
C3387 C3395 1.503 . S
C3388 C3387 1.410 1_655 S
C3388 C3389 1.392 . S
C3388 C3391 1.511 . S
C3389 C3385 1.376 1_655 S
C3389 C3388 1.392 . S
C3389 H3401 0.929 . S
C3390 C3386 1.531 . S
C3390 H3402 0.960 . S
C3390 H3403 0.962 . S
C3390 H3404 0.960 . S
C3391 C3388 1.511 . S
C3391 H3405 0.961 . S
C3391 H3406 0.961 . S
C3391 H3407 0.961 . S
C3392 C3393 1.370 . S
C3392 C3394 1.363 . S
C3392 H3408 0.931 . S
C3393 C3392 1.370 . S
C3393 C3397 1.408 . S
C3394 C3392 1.363 . S
C3394 C3395 1.370 . S
C3394 C3398 1.524 . S
C3395 C3387 1.503 . S
C3395 C3394 1.370 . S
C3395 C3396 1.403 . S
C3396 C3395 1.403 . S
C3396 C3397 1.404 . S
C3396 C3399 1.539 1_455 S
C3397 C3393 1.408 . S
C3397 C3396 1.404 . S
C3397 H3409 0.927 1_455 S
C3398 C3394 1.524 . S
C3398 H3410 0.956 . S
C3398 H3411 0.961 . S
C3398 H3412 0.961 . S
C3399 C3396 1.539 1_655 S
C3399 H3413 0.958 1_655 S
C3399 H3414 0.961 . S
C3399 H3415 0.960 . S
H3400 C3384 0.931 . S
H3401 C3389 0.929 . S
H3402 C3390 0.960 . S
H3403 C3390 0.962 . S
H3404 C3390 0.960 . S
H3405 C3391 0.961 . S
H3406 C3391 0.961 . S
H3407 C3391 0.961 . S
H3408 C3392 0.931 . S
H3409 C3397 0.927 1_655 S
H3410 C3398 0.956 . S
H3411 C3398 0.961 . S
H3412 C3398 0.961 . S
H3413 C3399 0.958 1_455 S
H3414 C3399 0.961 . S
H3415 C3399 0.960 . S
C3416 C3417 1.391 . S
C3416 C3418 1.394 . S
C3416 H3432 0.931 . S
C3417 C3416 1.391 . S
C3417 C3421 1.376 . S
C3418 C3416 1.394 . S
C3418 C3419 1.369 . S
C3418 C3422 1.531 . S
C3419 C3418 1.369 . S
C3419 C3420 1.410 . S
C3419 C3427 1.503 . S
C3420 C3419 1.410 . S
C3420 C3421 1.392 . S
C3420 C3423 1.511 . S
C3421 C3417 1.376 . S
C3421 C3420 1.392 . S
C3421 H3433 0.929 . S
C3422 C3418 1.531 . S
C3422 H3434 0.960 . S
C3422 H3435 0.962 . S
C3422 H3436 0.960 . S
C3423 C3420 1.511 . S
C3423 H3437 0.961 . S
C3423 H3438 0.961 . S
C3423 H3439 0.961 . S
C3424 C3425 1.370 . S
C3424 C3426 1.363 . S
C3424 H3440 0.931 . S
C3425 C3424 1.370 . S
C3425 C3429 1.408 . S
C3426 C3424 1.363 . S
C3426 C3427 1.370 . S
C3426 C3430 1.524 . S
C3427 C3419 1.503 . S
C3427 C3426 1.370 . S
C3427 C3428 1.403 . S
C3428 C3427 1.403 . S
C3428 C3429 1.404 . S
C3428 C3431 1.539 . S
C3429 C3425 1.408 . S
C3429 C3428 1.404 . S
C3429 H3441 0.930 . S
C3430 C3426 1.524 . S
C3430 H3442 0.956 . S
C3430 H3443 0.961 . S
C3430 H3444 0.961 . S
C3431 C3428 1.539 . S
C3431 H3445 0.958 . S
C3431 H3446 0.961 . S
C3431 H3447 0.960 . S
H3432 C3416 0.931 . S
H3433 C3421 0.929 . S
H3434 C3422 0.960 . S
H3435 C3422 0.962 . S
H3436 C3422 0.960 . S
H3437 C3423 0.961 . S
H3438 C3423 0.961 . S
H3439 C3423 0.961 . S
H3440 C3424 0.931 . S
H3441 C3429 0.930 . S
H3442 C3430 0.956 . S
H3443 C3430 0.961 . S
H3444 C3430 0.961 . S
H3445 C3431 0.958 . S
H3446 C3431 0.961 . S
H3447 C3431 0.960 . S
C3448 C3449 1.391 . S
C3448 C3450 1.394 . S
C3448 H3464 0.931 . S
C3449 C3448 1.391 . S
C3449 C3453 1.376 . S
C3450 C3448 1.394 . S
C3450 C3451 1.369 . S
C3450 C3454 1.531 . S
C3451 C3450 1.369 . S
C3451 C3452 1.410 . S
C3451 C3459 1.503 . S
C3452 C3451 1.410 . S
C3452 C3453 1.392 . S
C3452 C3455 1.511 . S
C3453 C3449 1.376 . S
C3453 C3452 1.392 . S
C3453 H3465 0.929 . S
C3454 C3450 1.531 . S
C3454 H3466 0.960 . S
C3454 H3467 0.962 . S
C3454 H3468 0.960 . S
C3455 C3452 1.511 . S
C3455 H3469 0.961 . S
C3455 H3470 0.961 . S
C3455 H3471 0.961 . S
C3456 C3457 1.370 . S
C3456 C3458 1.363 . S
C3456 H3472 0.931 . S
C3457 C3456 1.370 . S
C3457 C3461 1.408 . S
C3458 C3456 1.363 . S
C3458 C3459 1.370 . S
C3458 C3462 1.524 . S
C3459 C3451 1.503 . S
C3459 C3458 1.370 . S
C3459 C3460 1.403 . S
C3460 C3459 1.403 . S
C3460 C3461 1.404 . S
C3460 C3463 1.539 . S
C3461 C3457 1.408 . S
C3461 C3460 1.404 . S
C3461 H3473 0.930 . S
C3462 C3458 1.524 . S
C3462 H3474 0.956 . S
C3462 H3475 0.961 . S
C3462 H3476 0.961 . S
C3463 C3460 1.539 . S
C3463 H3477 0.958 . S
C3463 H3478 0.961 . S
C3463 H3479 0.960 . S
H3464 C3448 0.931 . S
H3465 C3453 0.929 . S
H3466 C3454 0.960 . S
H3467 C3454 0.962 . S
H3468 C3454 0.960 . S
H3469 C3455 0.961 . S
H3470 C3455 0.961 . S
H3471 C3455 0.961 . S
H3472 C3456 0.931 . S
H3473 C3461 0.930 . S
H3474 C3462 0.956 . S
H3475 C3462 0.961 . S
H3476 C3462 0.961 . S
H3477 C3463 0.958 . S
H3478 C3463 0.961 . S
H3479 C3463 0.960 . S
C3480 C3481 1.391 . S
C3480 C3482 1.394 1_554 S
C3480 H3496 0.931 . S
C3481 C3480 1.391 . S
C3481 C3485 1.376 1_554 S
C3482 C3480 1.394 1_556 S
C3482 C3483 1.369 . S
C3482 C3486 1.531 . S
C3483 C3482 1.369 . S
C3483 C3484 1.410 . S
C3483 C3491 1.503 . S
C3484 C3483 1.410 . S
C3484 C3485 1.392 . S
C3484 C3487 1.511 . S
C3485 C3481 1.376 1_556 S
C3485 C3484 1.392 . S
C3485 H3497 0.929 . S
C3486 C3482 1.531 . S
C3486 H3498 0.960 . S
C3486 H3499 0.962 . S
C3486 H3500 0.960 1_556 S
C3487 C3484 1.511 . S
C3487 H3501 0.961 . S
C3487 H3502 0.961 . S
C3487 H3503 0.961 . S
C3488 C3489 1.370 . S
C3488 C3490 1.363 . S
C3488 H3504 0.931 . S
C3489 C3488 1.370 . S
C3489 C3493 1.408 . S
C3490 C3488 1.363 . S
C3490 C3491 1.370 . S
C3490 C3494 1.524 . S
C3491 C3483 1.503 . S
C3491 C3490 1.370 . S
C3491 C3492 1.403 . S
C3492 C3491 1.403 . S
C3492 C3493 1.404 . S
C3492 C3495 1.539 . S
C3493 C3489 1.408 . S
C3493 C3492 1.404 . S
C3493 H3505 0.930 . S
C3494 C3490 1.524 . S
C3494 H3506 0.956 . S
C3494 H3507 0.961 . S
C3494 H3508 0.961 . S
C3495 C3492 1.539 . S
C3495 H3509 0.958 . S
C3495 H3510 0.961 . S
C3495 H3511 0.960 . S
H3496 C3480 0.931 . S
H3497 C3485 0.929 . S
H3498 C3486 0.960 . S
H3499 C3486 0.962 . S
H3500 C3486 0.960 1_554 S
H3501 C3487 0.961 . S
H3502 C3487 0.961 . S
H3503 C3487 0.961 . S
H3504 C3488 0.931 . S
H3505 C3493 0.930 . S
H3506 C3494 0.956 . S
H3507 C3494 0.961 . S
H3508 C3494 0.961 . S
H3509 C3495 0.958 . S
H3510 C3495 0.961 . S
H3511 C3495 0.960 . S
C3512 C3513 1.391 . S
C3512 C3514 1.394 . S
C3512 H3528 0.931 . S
C3513 C3512 1.391 . S
C3513 C3517 1.376 . S
C3514 C3512 1.394 . S
C3514 C3515 1.369 . S
C3514 C3518 1.531 . S
C3515 C3514 1.369 . S
C3515 C3516 1.410 . S
C3515 C3523 1.503 . S
C3516 C3515 1.410 . S
C3516 C3517 1.392 . S
C3516 C3519 1.511 . S
C3517 C3513 1.376 . S
C3517 C3516 1.392 . S
C3517 H3529 0.929 . S
C3518 C3514 1.531 . S
C3518 H3530 0.960 . S
C3518 H3531 0.962 . S
C3518 H3532 0.960 . S
C3519 C3516 1.511 . S
C3519 H3533 0.961 . S
C3519 H3534 0.961 . S
C3519 H3535 0.961 . S
C3520 C3521 1.370 . S
C3520 C3522 1.363 . S
C3520 H3536 0.931 . S
C3521 C3520 1.370 . S
C3521 C3525 1.408 . S
C3522 C3520 1.363 . S
C3522 C3523 1.370 . S
C3522 C3526 1.524 . S
C3523 C3515 1.503 . S
C3523 C3522 1.370 . S
C3523 C3524 1.403 . S
C3524 C3523 1.403 . S
C3524 C3525 1.404 . S
C3524 C3527 1.539 . S
C3525 C3521 1.408 . S
C3525 C3524 1.404 . S
C3525 H3537 0.930 . S
C3526 C3522 1.524 . S
C3526 H3538 0.956 . S
C3526 H3539 0.961 . S
C3526 H3540 0.961 . S
C3527 C3524 1.539 . S
C3527 H3541 0.958 . S
C3527 H3542 0.961 . S
C3527 H3543 0.960 . S
H3528 C3512 0.931 . S
H3529 C3517 0.929 . S
H3530 C3518 0.960 . S
H3531 C3518 0.962 . S
H3532 C3518 0.960 . S
H3533 C3519 0.961 . S
H3534 C3519 0.961 . S
H3535 C3519 0.961 . S
H3536 C3520 0.931 . S
H3537 C3525 0.930 . S
H3538 C3526 0.956 . S
H3539 C3526 0.961 . S
H3540 C3526 0.961 . S
H3541 C3527 0.958 . S
H3542 C3527 0.961 . S
H3543 C3527 0.960 . S
C3544 C3545 1.391 . S
C3544 C3546 1.394 . S
C3544 H3560 0.931 . S
C3545 C3544 1.391 . S
C3545 C3549 1.376 . S
C3546 C3544 1.394 . S
C3546 C3547 1.369 . S
C3546 C3550 1.531 . S
C3547 C3546 1.369 . S
C3547 C3548 1.410 . S
C3547 C3555 1.503 . S
C3548 C3547 1.410 . S
C3548 C3549 1.392 . S
C3548 C3551 1.511 . S
C3549 C3545 1.376 . S
C3549 C3548 1.392 . S
C3549 H3561 0.929 . S
C3550 C3546 1.531 . S
C3550 H3562 0.960 . S
C3550 H3563 0.962 . S
C3550 H3564 0.960 . S
C3551 C3548 1.511 . S
C3551 H3565 0.961 . S
C3551 H3566 0.961 . S
C3551 H3567 0.961 . S
C3552 C3553 1.370 . S
C3552 C3554 1.363 . S
C3552 H3568 0.931 . S
C3553 C3552 1.370 . S
C3553 C3557 1.408 . S
C3554 C3552 1.363 . S
C3554 C3555 1.370 . S
C3554 C3558 1.524 . S
C3555 C3547 1.503 . S
C3555 C3554 1.370 . S
C3555 C3556 1.403 . S
C3556 C3555 1.403 . S
C3556 C3557 1.404 . S
C3556 C3559 1.539 . S
C3557 C3553 1.408 . S
C3557 C3556 1.404 . S
C3557 H3569 0.930 . S
C3558 C3554 1.524 . S
C3558 H3570 0.956 . S
C3558 H3571 0.961 . S
C3558 H3572 0.961 . S
C3559 C3556 1.539 . S
C3559 H3573 0.958 . S
C3559 H3574 0.961 . S
C3559 H3575 0.960 . S
H3560 C3544 0.931 . S
H3561 C3549 0.929 . S
H3562 C3550 0.960 . S
H3563 C3550 0.962 . S
H3564 C3550 0.960 . S
H3565 C3551 0.961 . S
H3566 C3551 0.961 . S
H3567 C3551 0.961 . S
H3568 C3552 0.931 . S
H3569 C3557 0.930 . S
H3570 C3558 0.956 . S
H3571 C3558 0.961 . S
H3572 C3558 0.961 . S
H3573 C3559 0.958 . S
H3574 C3559 0.961 . S
H3575 C3559 0.960 . S
C3576 C3577 1.391 . S
C3576 C3578 1.394 . S
C3576 H3592 0.931 . S
C3577 C3576 1.391 . S
C3577 C3581 1.376 . S
C3578 C3576 1.394 . S
C3578 C3579 1.369 . S
C3578 C3582 1.531 . S
C3579 C3578 1.369 . S
C3579 C3580 1.410 . S
C3579 C3587 1.503 . S
C3580 C3579 1.410 . S
C3580 C3581 1.392 . S
C3580 C3583 1.511 . S
C3581 C3577 1.376 . S
C3581 C3580 1.392 . S
C3581 H3593 0.929 . S
C3582 C3578 1.531 . S
C3582 H3594 0.960 . S
C3582 H3595 0.962 . S
C3582 H3596 0.960 . S
C3583 C3580 1.511 . S
C3583 H3597 0.961 . S
C3583 H3598 0.961 . S
C3583 H3599 0.961 . S
C3584 C3585 1.370 . S
C3584 C3586 1.363 . S
C3584 H3600 0.931 . S
C3585 C3584 1.370 . S
C3585 C3589 1.408 . S
C3586 C3584 1.363 . S
C3586 C3587 1.370 . S
C3586 C3590 1.524 . S
C3587 C3579 1.503 . S
C3587 C3586 1.370 . S
C3587 C3588 1.403 . S
C3588 C3587 1.403 . S
C3588 C3589 1.404 . S
C3588 C3591 1.539 . S
C3589 C3585 1.408 . S
C3589 C3588 1.404 . S
C3589 H3601 0.930 . S
C3590 C3586 1.524 . S
C3590 H3602 0.956 . S
C3590 H3603 0.961 . S
C3590 H3604 0.961 . S
C3591 C3588 1.539 . S
C3591 H3605 0.958 . S
C3591 H3606 0.961 . S
C3591 H3607 0.960 . S
H3592 C3576 0.931 . S
H3593 C3581 0.929 . S
H3594 C3582 0.960 . S
H3595 C3582 0.962 . S
H3596 C3582 0.960 . S
H3597 C3583 0.961 . S
H3598 C3583 0.961 . S
H3599 C3583 0.961 . S
H3600 C3584 0.931 . S
H3601 C3589 0.930 . S
H3602 C3590 0.956 . S
H3603 C3590 0.961 . S
H3604 C3590 0.961 . S
H3605 C3591 0.958 . S
H3606 C3591 0.961 . S
H3607 C3591 0.960 . S
C3608 C3609 1.391 . S
C3608 C3610 1.394 . S
C3608 H3624 0.931 . S
C3609 C3608 1.391 . S
C3609 C3613 1.376 . S
C3610 C3608 1.394 . S
C3610 C3611 1.369 . S
C3610 C3614 1.531 . S
C3611 C3610 1.369 . S
C3611 C3612 1.410 . S
C3611 C3619 1.503 . S
C3612 C3611 1.410 . S
C3612 C3613 1.392 . S
C3612 C3615 1.511 . S
C3613 C3609 1.376 . S
C3613 C3612 1.392 . S
C3613 H3625 0.929 . S
C3614 C3610 1.531 . S
C3614 H3626 0.960 . S
C3614 H3627 0.962 . S
C3614 H3628 0.960 . S
C3615 C3612 1.511 . S
C3615 H3629 0.961 . S
C3615 H3630 0.961 . S
C3615 H3631 0.961 . S
C3616 C3617 1.370 . S
C3616 C3618 1.363 . S
C3616 H3632 0.931 . S
C3617 C3616 1.370 . S
C3617 C3621 1.408 . S
C3618 C3616 1.363 . S
C3618 C3619 1.370 . S
C3618 C3622 1.524 . S
C3619 C3611 1.503 . S
C3619 C3618 1.370 . S
C3619 C3620 1.403 . S
C3620 C3619 1.403 . S
C3620 C3621 1.404 . S
C3620 C3623 1.539 . S
C3621 C3617 1.408 . S
C3621 C3620 1.404 . S
C3621 H3633 0.930 . S
C3622 C3618 1.524 . S
C3622 H3634 0.956 . S
C3622 H3635 0.961 . S
C3622 H3636 0.961 . S
C3623 C3620 1.539 . S
C3623 H3637 0.958 . S
C3623 H3638 0.961 . S
C3623 H3639 0.960 . S
H3624 C3608 0.931 . S
H3625 C3613 0.929 . S
H3626 C3614 0.960 . S
H3627 C3614 0.962 . S
H3628 C3614 0.960 . S
H3629 C3615 0.961 . S
H3630 C3615 0.961 . S
H3631 C3615 0.961 . S
H3632 C3616 0.931 . S
H3633 C3621 0.930 . S
H3634 C3622 0.956 . S
H3635 C3622 0.961 . S
H3636 C3622 0.961 . S
H3637 C3623 0.958 . S
H3638 C3623 0.961 . S
H3639 C3623 0.960 . S
C3640 C3641 1.391 . S
C3640 C3642 1.394 . S
C3640 H3656 0.931 . S
C3641 C3640 1.391 . S
C3641 C3645 1.376 . S
C3642 C3640 1.394 . S
C3642 C3643 1.369 . S
C3642 C3646 1.531 . S
C3643 C3642 1.369 . S
C3643 C3644 1.410 . S
C3643 C3651 1.503 . S
C3644 C3643 1.410 . S
C3644 C3645 1.392 . S
C3644 C3647 1.511 . S
C3645 C3641 1.376 . S
C3645 C3644 1.392 . S
C3645 H3657 0.929 . S
C3646 C3642 1.531 . S
C3646 H3658 0.960 . S
C3646 H3659 0.962 . S
C3646 H3660 0.960 . S
C3647 C3644 1.511 . S
C3647 H3661 0.961 . S
C3647 H3662 0.961 . S
C3647 H3663 0.961 . S
C3648 C3649 1.370 . S
C3648 C3650 1.363 . S
C3648 H3664 0.931 . S
C3649 C3648 1.370 . S
C3649 C3653 1.408 . S
C3650 C3648 1.363 . S
C3650 C3651 1.370 . S
C3650 C3654 1.524 . S
C3651 C3643 1.503 . S
C3651 C3650 1.370 . S
C3651 C3652 1.403 . S
C3652 C3651 1.403 . S
C3652 C3653 1.404 . S
C3652 C3655 1.539 . S
C3653 C3649 1.408 . S
C3653 C3652 1.404 . S
C3653 H3665 0.930 . S
C3654 C3650 1.524 . S
C3654 H3666 0.956 . S
C3654 H3667 0.961 . S
C3654 H3668 0.961 . S
C3655 C3652 1.539 . S
C3655 H3669 0.958 . S
C3655 H3670 0.961 . S
C3655 H3671 0.960 . S
H3656 C3640 0.931 . S
H3657 C3645 0.929 . S
H3658 C3646 0.960 . S
H3659 C3646 0.962 . S
H3660 C3646 0.960 . S
H3661 C3647 0.961 . S
H3662 C3647 0.961 . S
H3663 C3647 0.961 . S
H3664 C3648 0.931 . S
H3665 C3653 0.930 . S
H3666 C3654 0.956 . S
H3667 C3654 0.961 . S
H3668 C3654 0.961 . S
H3669 C3655 0.958 . S
H3670 C3655 0.961 . S
H3671 C3655 0.960 . S
C3672 C3673 1.391 . S
C3672 C3674 1.394 . S
C3672 H3688 0.931 . S
C3673 C3672 1.391 . S
C3673 C3677 1.376 . S
C3674 C3672 1.394 . S
C3674 C3675 1.369 . S
C3674 C3678 1.531 . S
C3675 C3674 1.369 . S
C3675 C3676 1.410 . S
C3675 C3683 1.503 . S
C3676 C3675 1.410 . S
C3676 C3677 1.392 . S
C3676 C3679 1.511 . S
C3677 C3673 1.376 . S
C3677 C3676 1.392 . S
C3677 H3689 0.929 . S
C3678 C3674 1.531 . S
C3678 H3690 0.960 . S
C3678 H3691 0.962 . S
C3678 H3692 0.960 . S
C3679 C3676 1.511 . S
C3679 H3693 0.961 . S
C3679 H3694 0.961 . S
C3679 H3695 0.961 . S
C3680 C3681 1.370 . S
C3680 C3682 1.363 . S
C3680 H3696 0.931 . S
C3681 C3680 1.370 . S
C3681 C3685 1.408 . S
C3682 C3680 1.363 . S
C3682 C3683 1.370 . S
C3682 C3686 1.524 . S
C3683 C3675 1.503 . S
C3683 C3682 1.370 . S
C3683 C3684 1.403 . S
C3684 C3683 1.403 . S
C3684 C3685 1.404 . S
C3684 C3687 1.539 . S
C3685 C3681 1.408 . S
C3685 C3684 1.404 . S
C3685 H3697 0.930 . S
C3686 C3682 1.524 . S
C3686 H3698 0.956 . S
C3686 H3699 0.961 . S
C3686 H3700 0.961 . S
C3687 C3684 1.539 . S
C3687 H3701 0.958 . S
C3687 H3702 0.961 . S
C3687 H3703 0.960 . S
H3688 C3672 0.931 . S
H3689 C3677 0.929 . S
H3690 C3678 0.960 . S
H3691 C3678 0.962 . S
H3692 C3678 0.960 . S
H3693 C3679 0.961 . S
H3694 C3679 0.961 . S
H3695 C3679 0.961 . S
H3696 C3680 0.931 . S
H3697 C3685 0.930 . S
H3698 C3686 0.956 . S
H3699 C3686 0.961 . S
H3700 C3686 0.961 . S
H3701 C3687 0.958 . S
H3702 C3687 0.961 . S
H3703 C3687 0.960 . S
C3704 C3705 1.391 . S
C3704 C3706 1.394 . S
C3704 H3720 0.931 . S
C3705 C3704 1.391 . S
C3705 C3709 1.376 . S
C3706 C3704 1.394 . S
C3706 C3707 1.369 . S
C3706 C3710 1.531 . S
C3707 C3706 1.369 . S
C3707 C3708 1.410 . S
C3707 C3715 1.503 . S
C3708 C3707 1.410 . S
C3708 C3709 1.392 . S
C3708 C3711 1.511 . S
C3709 C3705 1.376 . S
C3709 C3708 1.392 . S
C3709 H3721 0.929 . S
C3710 C3706 1.531 . S
C3710 H3722 0.960 . S
C3710 H3723 0.962 . S
C3710 H3724 0.960 . S
C3711 C3708 1.511 . S
C3711 H3725 0.961 . S
C3711 H3726 0.961 . S
C3711 H3727 0.961 . S
C3712 C3713 1.370 . S
C3712 C3714 1.363 . S
C3712 H3728 0.931 . S
C3713 C3712 1.370 . S
C3713 C3717 1.408 . S
C3714 C3712 1.363 . S
C3714 C3715 1.370 . S
C3714 C3718 1.524 . S
C3715 C3707 1.503 . S
C3715 C3714 1.370 . S
C3715 C3716 1.403 . S
C3716 C3715 1.403 . S
C3716 C3717 1.404 . S
C3716 C3719 1.539 . S
C3717 C3713 1.408 . S
C3717 C3716 1.404 . S
C3717 H3729 0.930 . S
C3718 C3714 1.524 . S
C3718 H3730 0.956 . S
C3718 H3731 0.961 . S
C3718 H3732 0.961 . S
C3719 C3716 1.539 . S
C3719 H3733 0.958 . S
C3719 H3734 0.961 . S
C3719 H3735 0.960 . S
H3720 C3704 0.931 . S
H3721 C3709 0.929 . S
H3722 C3710 0.960 . S
H3723 C3710 0.962 . S
H3724 C3710 0.960 . S
H3725 C3711 0.961 . S
H3726 C3711 0.961 . S
H3727 C3711 0.961 . S
H3728 C3712 0.931 . S
H3729 C3717 0.930 . S
H3730 C3718 0.956 . S
H3731 C3718 0.961 . S
H3732 C3718 0.961 . S
H3733 C3719 0.958 . S
H3734 C3719 0.961 . S
H3735 C3719 0.960 . S
C3736 C3737 1.391 . S
C3736 C3738 1.394 . S
C3736 H3752 0.931 . S
C3737 C3736 1.391 . S
C3737 C3741 1.376 . S
C3738 C3736 1.394 . S
C3738 C3739 1.369 . S
C3738 C3742 1.531 . S
C3739 C3738 1.369 . S
C3739 C3740 1.410 . S
C3739 C3747 1.503 . S
C3740 C3739 1.410 . S
C3740 C3741 1.392 . S
C3740 C3743 1.511 . S
C3741 C3737 1.376 . S
C3741 C3740 1.392 . S
C3741 H3753 0.929 . S
C3742 C3738 1.531 . S
C3742 H3754 0.960 . S
C3742 H3755 0.962 . S
C3742 H3756 0.960 . S
C3743 C3740 1.511 . S
C3743 H3757 0.961 . S
C3743 H3758 0.961 . S
C3743 H3759 0.961 . S
C3744 C3745 1.370 . S
C3744 C3746 1.363 . S
C3744 H3760 0.931 . S
C3745 C3744 1.370 . S
C3745 C3749 1.408 . S
C3746 C3744 1.363 . S
C3746 C3747 1.370 . S
C3746 C3750 1.524 . S
C3747 C3739 1.503 . S
C3747 C3746 1.370 . S
C3747 C3748 1.403 . S
C3748 C3747 1.403 . S
C3748 C3749 1.404 . S
C3748 C3751 1.539 . S
C3749 C3745 1.408 . S
C3749 C3748 1.404 . S
C3749 H3761 0.930 . S
C3750 C3746 1.524 . S
C3750 H3762 0.956 . S
C3750 H3763 0.961 . S
C3750 H3764 0.961 . S
C3751 C3748 1.539 . S
C3751 H3765 0.958 . S
C3751 H3766 0.961 . S
C3751 H3767 0.960 . S
H3752 C3736 0.931 . S
H3753 C3741 0.929 . S
H3754 C3742 0.960 . S
H3755 C3742 0.962 . S
H3756 C3742 0.960 . S
H3757 C3743 0.961 . S
H3758 C3743 0.961 . S
H3759 C3743 0.961 . S
H3760 C3744 0.931 . S
H3761 C3749 0.930 . S
H3762 C3750 0.956 . S
H3763 C3750 0.961 . S
H3764 C3750 0.961 . S
H3765 C3751 0.958 . S
H3766 C3751 0.961 . S
H3767 C3751 0.960 . S
C3768 C3769 1.391 . S
C3768 C3770 1.394 . S
C3768 H3784 0.931 1_565 S
C3769 C3768 1.391 . S
C3769 C3773 1.376 . S
C3770 C3768 1.394 . S
C3770 C3771 1.369 . S
C3770 C3774 1.531 . S
C3771 C3770 1.369 . S
C3771 C3772 1.410 . S
C3771 C3779 1.503 . S
C3772 C3771 1.410 . S
C3772 C3773 1.392 . S
C3772 C3775 1.511 . S
C3773 C3769 1.376 . S
C3773 C3772 1.392 . S
C3773 H3785 0.929 . S
C3774 C3770 1.531 . S
C3774 H3786 0.960 . S
C3774 H3787 0.962 . S
C3774 H3788 0.963 . S
C3775 C3772 1.511 . S
C3775 H3789 0.961 . S
C3775 H3790 0.961 . S
C3775 H3791 0.961 . S
C3776 C3777 1.370 . S
C3776 C3778 1.363 . S
C3776 H3792 0.931 . S
C3777 C3776 1.370 . S
C3777 C3781 1.408 . S
C3778 C3776 1.363 . S
C3778 C3779 1.370 . S
C3778 C3782 1.524 . S
C3779 C3771 1.503 . S
C3779 C3778 1.370 . S
C3779 C3780 1.403 . S
C3780 C3779 1.403 . S
C3780 C3781 1.404 . S
C3780 C3783 1.539 . S
C3781 C3777 1.408 . S
C3781 C3780 1.404 . S
C3781 H3793 0.930 . S
C3782 C3778 1.524 . S
C3782 H3794 0.956 . S
C3782 H3795 0.961 . S
C3782 H3796 0.961 . S
C3783 C3780 1.539 . S
C3783 H3797 0.958 . S
C3783 H3798 0.961 . S
C3783 H3799 0.960 . S
H3784 C3768 0.931 1_545 S
H3785 C3773 0.929 . S
H3786 C3774 0.960 . S
H3787 C3774 0.962 . S
H3788 C3774 0.963 . S
H3789 C3775 0.961 . S
H3790 C3775 0.961 . S
H3791 C3775 0.961 . S
H3792 C3776 0.931 . S
H3793 C3781 0.930 . S
H3794 C3782 0.956 . S
H3795 C3782 0.961 . S
H3796 C3782 0.961 . S
H3797 C3783 0.958 . S
H3798 C3783 0.961 . S
H3799 C3783 0.960 . S
C3800 C3801 1.428 . S
C3800 C3802 1.394 . S
C3800 H3816 0.931 . S
C3801 C3800 1.428 . S
C3801 C3805 1.342 1_556 S
C3802 C3800 1.394 . S
C3802 C3803 1.369 1_556 S
C3802 C3806 1.531 . S
C3803 C3802 1.369 1_554 S
C3803 C3804 1.410 . S
C3803 C3811 1.506 . S
C3804 C3803 1.410 . S
C3804 C3805 1.392 . S
C3804 C3807 1.511 . S
C3805 C3801 1.342 1_554 S
C3805 C3804 1.392 . S
C3805 H3817 0.929 . S
C3806 C3802 1.531 . S
C3806 H3818 0.924 1_565 S
C3806 H3819 0.962 . S
C3806 H3820 0.960 . S
C3807 C3804 1.511 . S
C3807 H3821 0.961 . S
C3807 H3822 0.961 . S
C3807 H3823 0.961 1_565 S
C3808 C3809 1.370 . S
C3808 C3810 1.363 1_545 S
C3808 H3824 0.931 1_545 S
C3809 C3808 1.370 . S
C3809 C3813 1.408 . S
C3810 C3808 1.363 1_565 S
C3810 C3811 1.375 . S
C3810 C3814 1.524 . S
C3811 C3803 1.506 . S
C3811 C3810 1.375 . S
C3811 C3812 1.396 1_565 S
C3812 C3811 1.396 1_545 S
C3812 C3813 1.404 . S
C3812 C3815 1.539 . S
C3813 C3809 1.408 . S
C3813 C3812 1.404 . S
C3813 H3825 0.930 . S
C3814 C3810 1.524 . S
C3814 H3826 0.956 1_554 S
C3814 H3827 0.961 . S
C3814 H3828 0.961 . S
C3815 C3812 1.539 . S
C3815 H3829 0.958 1_554 S
C3815 H3830 0.961 . S
C3815 H3831 0.960 . S
H3816 C3800 0.931 . S
H3817 C3805 0.929 . S
H3818 C3806 0.924 1_545 S
H3819 C3806 0.962 . S
H3820 C3806 0.960 . S
H3821 C3807 0.961 . S
H3822 C3807 0.961 . S
H3823 C3807 0.961 1_545 S
H3824 C3808 0.931 1_565 S
H3825 C3813 0.930 . S
H3826 C3814 0.956 1_556 S
H3827 C3814 0.961 . S
H3828 C3814 0.961 . S
H3829 C3815 0.958 1_556 S
H3830 C3815 0.961 . S
H3831 C3815 0.960 . S
C3832 C3833 1.391 . S
C3832 C3834 1.394 . S
C3832 H3848 0.931 . S
C3833 C3832 1.391 . S
C3833 C3837 1.376 . S
C3834 C3832 1.394 . S
C3834 C3835 1.369 . S
C3834 C3838 1.531 . S
C3835 C3834 1.369 . S
C3835 C3836 1.410 . S
C3835 C3843 1.503 . S
C3836 C3835 1.410 . S
C3836 C3837 1.392 . S
C3836 C3839 1.511 . S
C3837 C3833 1.376 . S
C3837 C3836 1.392 . S
C3837 H3849 0.929 . S
C3838 C3834 1.531 . S
C3838 H3850 0.960 . S
C3838 H3851 0.962 . S
C3838 H3852 0.960 . S
C3839 C3836 1.511 . S
C3839 H3853 0.961 . S
C3839 H3854 0.961 . S
C3839 H3855 0.961 . S
C3840 C3841 1.370 . S
C3840 C3842 1.363 . S
C3840 H3856 0.931 . S
C3841 C3840 1.370 . S
C3841 C3845 1.408 . S
C3842 C3840 1.363 . S
C3842 C3843 1.370 . S
C3842 C3846 1.524 . S
C3843 C3835 1.503 . S
C3843 C3842 1.370 . S
C3843 C3844 1.403 . S
C3844 C3843 1.403 . S
C3844 C3845 1.404 . S
C3844 C3847 1.539 . S
C3845 C3841 1.408 . S
C3845 C3844 1.404 . S
C3845 H3857 0.930 . S
C3846 C3842 1.524 . S
C3846 H3858 0.956 . S
C3846 H3859 0.961 . S
C3846 H3860 0.961 . S
C3847 C3844 1.539 . S
C3847 H3861 0.958 . S
C3847 H3862 0.961 . S
C3847 H3863 0.960 . S
H3848 C3832 0.931 . S
H3849 C3837 0.929 . S
H3850 C3838 0.960 . S
H3851 C3838 0.962 . S
H3852 C3838 0.960 . S
H3853 C3839 0.961 . S
H3854 C3839 0.961 . S
H3855 C3839 0.961 . S
H3856 C3840 0.931 . S
H3857 C3845 0.930 . S
H3858 C3846 0.956 . S
H3859 C3846 0.961 . S
H3860 C3846 0.961 . S
H3861 C3847 0.958 . S
H3862 C3847 0.961 . S
H3863 C3847 0.960 . S
C3864 C3865 1.391 . S
C3864 C3866 1.394 . S
C3864 H3880 0.931 . S
C3865 C3864 1.391 . S
C3865 C3869 1.376 . S
C3866 C3864 1.394 . S
C3866 C3867 1.369 . S
C3866 C3870 1.531 . S
C3867 C3866 1.369 . S
C3867 C3868 1.410 . S
C3867 C3875 1.503 . S
C3868 C3867 1.410 . S
C3868 C3869 1.392 . S
C3868 C3871 1.511 . S
C3869 C3865 1.376 . S
C3869 C3868 1.392 . S
C3869 H3881 0.929 . S
C3870 C3866 1.531 . S
C3870 H3882 0.960 . S
C3870 H3883 0.962 . S
C3870 H3884 0.960 . S
C3871 C3868 1.511 . S
C3871 H3885 0.961 . S
C3871 H3886 0.961 . S
C3871 H3887 0.961 . S
C3872 C3873 1.370 . S
C3872 C3874 1.363 . S
C3872 H3888 0.931 . S
C3873 C3872 1.370 . S
C3873 C3877 1.408 . S
C3874 C3872 1.363 . S
C3874 C3875 1.370 . S
C3874 C3878 1.515 1_554 S
C3875 C3867 1.503 . S
C3875 C3874 1.370 . S
C3875 C3876 1.403 . S
C3876 C3875 1.403 . S
C3876 C3877 1.404 . S
C3876 C3879 1.539 . S
C3877 C3873 1.408 . S
C3877 C3876 1.404 . S
C3877 H3889 0.930 . S
C3878 C3874 1.515 1_556 S
C3878 H3890 0.961 . S
C3878 H3891 0.955 1_556 S
C3878 H3892 0.967 . S
C3879 C3876 1.539 . S
C3879 H3893 0.958 . S
C3879 H3894 0.961 . S
C3879 H3895 0.960 . S
H3880 C3864 0.931 . S
H3881 C3869 0.929 . S
H3882 C3870 0.960 . S
H3883 C3870 0.962 . S
H3884 C3870 0.960 . S
H3885 C3871 0.961 . S
H3886 C3871 0.961 . S
H3887 C3871 0.961 . S
H3888 C3872 0.931 . S
H3889 C3877 0.930 . S
H3890 C3878 0.961 . S
H3891 C3878 0.955 1_554 S
H3892 C3878 0.967 . S
H3893 C3879 0.958 . S
H3894 C3879 0.961 . S
H3895 C3879 0.960 . S
C3896 C3897 1.391 . S
C3896 C3898 1.394 . S
C3896 H3912 0.931 . S
C3897 C3896 1.391 . S
C3897 C3901 1.376 . S
C3898 C3896 1.394 . S
C3898 C3899 1.369 . S
C3898 C3902 1.531 . S
C3899 C3898 1.369 . S
C3899 C3900 1.410 . S
C3899 C3907 1.503 . S
C3900 C3899 1.410 . S
C3900 C3901 1.392 . S
C3900 C3903 1.511 . S
C3901 C3897 1.376 . S
C3901 C3900 1.392 . S
C3901 H3913 0.929 . S
C3902 C3898 1.531 . S
C3902 H3914 0.960 . S
C3902 H3915 0.962 . S
C3902 H3916 0.960 . S
C3903 C3900 1.511 . S
C3903 H3917 0.961 . S
C3903 H3918 0.961 . S
C3903 H3919 0.961 . S
C3904 C3905 1.370 . S
C3904 C3906 1.363 . S
C3904 H3920 0.931 . S
C3905 C3904 1.370 . S
C3905 C3909 1.408 . S
C3906 C3904 1.363 . S
C3906 C3907 1.370 . S
C3906 C3910 1.524 . S
C3907 C3899 1.503 . S
C3907 C3906 1.370 . S
C3907 C3908 1.403 . S
C3908 C3907 1.403 . S
C3908 C3909 1.404 . S
C3908 C3911 1.539 . S
C3909 C3905 1.408 . S
C3909 C3908 1.404 . S
C3909 H3921 0.930 . S
C3910 C3906 1.524 . S
C3910 H3922 0.956 . S
C3910 H3923 0.961 . S
C3910 H3924 0.961 . S
C3911 C3908 1.539 . S
C3911 H3925 0.958 . S
C3911 H3926 0.961 . S
C3911 H3927 0.960 . S
H3912 C3896 0.931 . S
H3913 C3901 0.929 . S
H3914 C3902 0.960 . S
H3915 C3902 0.962 . S
H3916 C3902 0.960 . S
H3917 C3903 0.961 . S
H3918 C3903 0.961 . S
H3919 C3903 0.961 . S
H3920 C3904 0.931 . S
H3921 C3909 0.930 . S
H3922 C3910 0.956 . S
H3923 C3910 0.961 . S
H3924 C3910 0.961 . S
H3925 C3911 0.958 . S
H3926 C3911 0.961 . S
H3927 C3911 0.960 . S
C3928 C3929 1.391 . S
C3928 C3930 1.394 . S
C3928 H3944 0.931 . S
C3929 C3928 1.391 . S
C3929 C3933 1.376 . S
C3930 C3928 1.394 . S
C3930 C3931 1.369 . S
C3930 C3934 1.531 . S
C3931 C3930 1.369 . S
C3931 C3932 1.410 . S
C3931 C3939 1.503 . S
C3932 C3931 1.410 . S
C3932 C3933 1.392 . S
C3932 C3935 1.511 . S
C3933 C3929 1.376 . S
C3933 C3932 1.392 . S
C3933 H3945 0.929 . S
C3934 C3930 1.531 . S
C3934 H3946 0.960 . S
C3934 H3947 0.962 . S
C3934 H3948 0.960 . S
C3935 C3932 1.511 . S
C3935 H3949 0.961 . S
C3935 H3950 0.961 . S
C3935 H3951 0.961 . S
C3936 C3937 1.370 . S
C3936 C3938 1.363 . S
C3936 H3952 0.931 . S
C3937 C3936 1.370 . S
C3937 C3941 1.408 . S
C3938 C3936 1.363 . S
C3938 C3939 1.370 . S
C3938 C3942 1.524 . S
C3939 C3931 1.503 . S
C3939 C3938 1.370 . S
C3939 C3940 1.403 . S
C3940 C3939 1.403 . S
C3940 C3941 1.404 . S
C3940 C3943 1.539 . S
C3941 C3937 1.408 . S
C3941 C3940 1.404 . S
C3941 H3953 0.930 . S
C3942 C3938 1.524 . S
C3942 H3954 0.956 . S
C3942 H3955 0.961 . S
C3942 H3956 0.961 . S
C3943 C3940 1.539 . S
C3943 H3957 0.958 . S
C3943 H3958 0.961 . S
C3943 H3959 0.960 . S
H3944 C3928 0.931 . S
H3945 C3933 0.929 . S
H3946 C3934 0.960 . S
H3947 C3934 0.962 . S
H3948 C3934 0.960 . S
H3949 C3935 0.961 . S
H3950 C3935 0.961 . S
H3951 C3935 0.961 . S
H3952 C3936 0.931 . S
H3953 C3941 0.930 . S
H3954 C3942 0.956 . S
H3955 C3942 0.961 . S
H3956 C3942 0.961 . S
H3957 C3943 0.958 . S
H3958 C3943 0.961 . S
H3959 C3943 0.960 . S
C3960 C3961 1.391 . S
C3960 C3962 1.394 . S
C3960 H3976 0.931 . S
C3961 C3960 1.391 . S
C3961 C3965 1.376 . S
C3962 C3960 1.394 . S
C3962 C3963 1.369 . S
C3962 C3966 1.531 . S
C3963 C3962 1.369 . S
C3963 C3964 1.410 . S
C3963 C3971 1.503 . S
C3964 C3963 1.410 . S
C3964 C3965 1.392 . S
C3964 C3967 1.511 . S
C3965 C3961 1.376 . S
C3965 C3964 1.392 . S
C3965 H3977 0.929 . S
C3966 C3962 1.531 . S
C3966 H3978 0.960 . S
C3966 H3979 0.962 . S
C3966 H3980 0.960 . S
C3967 C3964 1.511 . S
C3967 H3981 0.961 . S
C3967 H3982 0.961 . S
C3967 H3983 0.961 . S
C3968 C3969 1.370 . S
C3968 C3970 1.363 . S
C3968 H3984 0.931 . S
C3969 C3968 1.370 . S
C3969 C3973 1.408 . S
C3970 C3968 1.363 . S
C3970 C3971 1.370 . S
C3970 C3974 1.524 . S
C3971 C3963 1.503 . S
C3971 C3970 1.370 . S
C3971 C3972 1.403 . S
C3972 C3971 1.403 . S
C3972 C3973 1.404 . S
C3972 C3975 1.539 . S
C3973 C3969 1.408 . S
C3973 C3972 1.404 . S
C3973 H3985 0.930 . S
C3974 C3970 1.524 . S
C3974 H3986 0.956 . S
C3974 H3987 0.961 . S
C3974 H3988 0.961 . S
C3975 C3972 1.539 . S
C3975 H3989 0.958 . S
C3975 H3990 0.961 . S
C3975 H3991 0.960 . S
H3976 C3960 0.931 . S
H3977 C3965 0.929 . S
H3978 C3966 0.960 . S
H3979 C3966 0.962 . S
H3980 C3966 0.960 . S
H3981 C3967 0.961 . S
H3982 C3967 0.961 . S
H3983 C3967 0.961 . S
H3984 C3968 0.931 . S
H3985 C3973 0.930 . S
H3986 C3974 0.956 . S
H3987 C3974 0.961 . S
H3988 C3974 0.961 . S
H3989 C3975 0.958 . S
H3990 C3975 0.961 . S
H3991 C3975 0.960 . S
C3992 C3993 1.391 . S
C3992 C3994 1.394 . S
C3992 H4008 0.931 . S
C3993 C3992 1.391 . S
C3993 C3997 1.376 . S
C3994 C3992 1.394 . S
C3994 C3995 1.369 . S
C3994 C3998 1.531 . S
C3995 C3994 1.369 . S
C3995 C3996 1.410 . S
C3995 C4003 1.503 . S
C3996 C3995 1.410 . S
C3996 C3997 1.392 . S
C3996 C3999 1.511 . S
C3997 C3993 1.376 . S
C3997 C3996 1.392 . S
C3997 H4009 0.929 . S
C3998 C3994 1.531 . S
C3998 H4010 0.960 . S
C3998 H4011 0.962 . S
C3998 H4012 0.960 . S
C3999 C3996 1.511 . S
C3999 H4013 0.961 . S
C3999 H4014 0.961 . S
C3999 H4015 0.961 . S
C4000 C4001 1.370 . S
C4000 C4002 1.363 . S
C4000 H4016 0.931 . S
C4001 C4000 1.370 . S
C4001 C4005 1.408 . S
C4002 C4000 1.363 . S
C4002 C4003 1.370 . S
C4002 C4006 1.524 . S
C4003 C3995 1.503 . S
C4003 C4002 1.370 . S
C4003 C4004 1.403 . S
C4004 C4003 1.403 . S
C4004 C4005 1.404 . S
C4004 C4007 1.539 . S
C4005 C4001 1.408 . S
C4005 C4004 1.404 . S
C4005 H4017 0.930 . S
C4006 C4002 1.524 . S
C4006 H4018 0.956 . S
C4006 H4019 0.961 . S
C4006 H4020 0.961 . S
C4007 C4004 1.539 . S
C4007 H4021 0.958 . S
C4007 H4022 0.961 . S
C4007 H4023 0.960 . S
H4008 C3992 0.931 . S
H4009 C3997 0.929 . S
H4010 C3998 0.960 . S
H4011 C3998 0.962 . S
H4012 C3998 0.960 . S
H4013 C3999 0.961 . S
H4014 C3999 0.961 . S
H4015 C3999 0.961 . S
H4016 C4000 0.931 . S
H4017 C4005 0.930 . S
H4018 C4006 0.956 . S
H4019 C4006 0.961 . S
H4020 C4006 0.961 . S
H4021 C4007 0.958 . S
H4022 C4007 0.961 . S
H4023 C4007 0.960 . S
C4024 C4025 1.391 . S
C4024 C4026 1.394 . S
C4024 H4040 0.931 . S
C4025 C4024 1.391 . S
C4025 C4029 1.376 . S
C4026 C4024 1.394 . S
C4026 C4027 1.369 . S
C4026 C4030 1.531 1_455 S
C4027 C4026 1.369 . S
C4027 C4028 1.410 . S
C4027 C4035 1.503 . S
C4028 C4027 1.410 . S
C4028 C4029 1.392 . S
C4028 C4031 1.511 . S
C4029 C4025 1.376 . S
C4029 C4028 1.392 . S
C4029 H4041 0.929 . S
C4030 C4026 1.531 1_655 S
C4030 H4042 0.960 . S
C4030 H4043 0.962 . S
C4030 H4044 0.960 . S
C4031 C4028 1.511 . S
C4031 H4045 0.961 . S
C4031 H4046 0.961 . S
C4031 H4047 0.961 . S
C4032 C4033 1.370 . S
C4032 C4034 1.363 . S
C4032 H4048 0.931 . S
C4033 C4032 1.370 . S
C4033 C4037 1.408 . S
C4034 C4032 1.363 . S
C4034 C4035 1.370 . S
C4034 C4038 1.524 . S
C4035 C4027 1.503 . S
C4035 C4034 1.370 . S
C4035 C4036 1.403 . S
C4036 C4035 1.403 . S
C4036 C4037 1.404 . S
C4036 C4039 1.539 . S
C4037 C4033 1.408 . S
C4037 C4036 1.404 . S
C4037 H4049 0.930 . S
C4038 C4034 1.524 . S
C4038 H4050 0.956 . S
C4038 H4051 0.961 . S
C4038 H4052 0.961 . S
C4039 C4036 1.539 . S
C4039 H4053 0.958 . S
C4039 H4054 0.961 . S
C4039 H4055 0.960 . S
H4040 C4024 0.931 . S
H4041 C4029 0.929 . S
H4042 C4030 0.960 . S
H4043 C4030 0.962 . S
H4044 C4030 0.960 . S
H4045 C4031 0.961 . S
H4046 C4031 0.961 . S
H4047 C4031 0.961 . S
H4048 C4032 0.931 . S
H4049 C4037 0.930 . S
H4050 C4038 0.956 . S
H4051 C4038 0.961 . S
H4052 C4038 0.961 . S
H4053 C4039 0.958 . S
H4054 C4039 0.961 . S
H4055 C4039 0.960 . S
C4056 C4057 1.391 . S
C4056 C4058 1.394 . S
C4056 H4072 0.931 . S
C4057 C4056 1.391 . S
C4057 C4061 1.376 . S
C4058 C4056 1.394 . S
C4058 C4059 1.369 . S
C4058 C4062 1.531 . S
C4059 C4058 1.369 . S
C4059 C4060 1.410 . S
C4059 C4067 1.503 . S
C4060 C4059 1.410 . S
C4060 C4061 1.392 . S
C4060 C4063 1.511 . S
C4061 C4057 1.376 . S
C4061 C4060 1.392 . S
C4061 H4073 0.929 . S
C4062 C4058 1.531 . S
C4062 H4074 0.960 . S
C4062 H4075 0.962 . S
C4062 H4076 0.960 . S
C4063 C4060 1.511 . S
C4063 H4077 0.961 . S
C4063 H4078 0.961 . S
C4063 H4079 0.961 . S
C4064 C4065 1.370 . S
C4064 C4066 1.363 . S
C4064 H4080 0.931 . S
C4065 C4064 1.370 . S
C4065 C4069 1.408 . S
C4066 C4064 1.363 . S
C4066 C4067 1.370 . S
C4066 C4070 1.524 . S
C4067 C4059 1.503 . S
C4067 C4066 1.370 . S
C4067 C4068 1.403 . S
C4068 C4067 1.403 . S
C4068 C4069 1.404 . S
C4068 C4071 1.539 . S
C4069 C4065 1.408 . S
C4069 C4068 1.404 . S
C4069 H4081 0.930 . S
C4070 C4066 1.524 . S
C4070 H4082 0.956 . S
C4070 H4083 0.961 . S
C4070 H4084 0.961 . S
C4071 C4068 1.539 . S
C4071 H4085 0.958 . S
C4071 H4086 0.961 . S
C4071 H4087 0.960 . S
H4072 C4056 0.931 . S
H4073 C4061 0.929 . S
H4074 C4062 0.960 . S
H4075 C4062 0.962 . S
H4076 C4062 0.960 . S
H4077 C4063 0.961 . S
H4078 C4063 0.961 . S
H4079 C4063 0.961 . S
H4080 C4064 0.931 . S
H4081 C4069 0.930 . S
H4082 C4070 0.956 . S
H4083 C4070 0.961 . S
H4084 C4070 0.961 . S
H4085 C4071 0.958 . S
H4086 C4071 0.961 . S
H4087 C4071 0.960 . S
C4088 C4089 1.391 . S
C4088 C4090 1.394 . S
C4088 H4104 0.931 . S
C4089 C4088 1.391 . S
C4089 C4093 1.376 . S
C4090 C4088 1.394 . S
C4090 C4091 1.369 . S
C4090 C4094 1.531 . S
C4091 C4090 1.369 . S
C4091 C4092 1.410 . S
C4091 C4099 1.503 . S
C4092 C4091 1.410 . S
C4092 C4093 1.392 . S
C4092 C4095 1.511 . S
C4093 C4089 1.376 . S
C4093 C4092 1.392 . S
C4093 H4105 0.929 . S
C4094 C4090 1.531 . S
C4094 H4106 0.960 . S
C4094 H4107 0.962 . S
C4094 H4108 0.960 . S
C4095 C4092 1.511 . S
C4095 H4109 0.961 . S
C4095 H4110 0.961 . S
C4095 H4111 0.961 . S
C4096 C4097 1.370 . S
C4096 C4098 1.363 . S
C4096 H4112 0.931 . S
C4097 C4096 1.370 . S
C4097 C4101 1.408 . S
C4098 C4096 1.363 . S
C4098 C4099 1.370 . S
C4098 C4102 1.524 . S
C4099 C4091 1.503 . S
C4099 C4098 1.370 . S
C4099 C4100 1.403 . S
C4100 C4099 1.403 . S
C4100 C4101 1.404 . S
C4100 C4103 1.539 . S
C4101 C4097 1.408 . S
C4101 C4100 1.404 . S
C4101 H4113 0.930 . S
C4102 C4098 1.524 . S
C4102 H4114 0.956 . S
C4102 H4115 0.961 . S
C4102 H4116 0.961 . S
C4103 C4100 1.539 . S
C4103 H4117 0.958 . S
C4103 H4118 0.961 . S
C4103 H4119 0.960 . S
H4104 C4088 0.931 . S
H4105 C4093 0.929 . S
H4106 C4094 0.960 . S
H4107 C4094 0.962 . S
H4108 C4094 0.960 . S
H4109 C4095 0.961 . S
H4110 C4095 0.961 . S
H4111 C4095 0.961 . S
H4112 C4096 0.931 . S
H4113 C4101 0.930 . S
H4114 C4102 0.956 . S
H4115 C4102 0.961 . S
H4116 C4102 0.961 . S
H4117 C4103 0.958 . S
H4118 C4103 0.961 . S
H4119 C4103 0.960 . S
C4120 C4121 1.391 . S
C4120 C4122 1.394 . S
C4120 H4136 0.931 . S
C4121 C4120 1.391 . S
C4121 C4125 1.376 . S
C4122 C4120 1.394 . S
C4122 C4123 1.369 . S
C4122 C4126 1.531 . S
C4123 C4122 1.369 . S
C4123 C4124 1.410 . S
C4123 C4131 1.503 . S
C4124 C4123 1.410 . S
C4124 C4125 1.392 . S
C4124 C4127 1.511 . S
C4125 C4121 1.376 . S
C4125 C4124 1.392 . S
C4125 H4137 0.929 . S
C4126 C4122 1.531 . S
C4126 H4138 0.960 . S
C4126 H4139 0.962 . S
C4126 H4140 0.960 . S
C4127 C4124 1.511 . S
C4127 H4141 0.961 . S
C4127 H4142 0.961 . S
C4127 H4143 0.961 . S
C4128 C4129 1.370 . S
C4128 C4130 1.363 . S
C4128 H4144 0.931 . S
C4129 C4128 1.370 . S
C4129 C4133 1.408 . S
C4130 C4128 1.363 . S
C4130 C4131 1.370 . S
C4130 C4134 1.524 . S
C4131 C4123 1.503 . S
C4131 C4130 1.370 . S
C4131 C4132 1.403 . S
C4132 C4131 1.403 . S
C4132 C4133 1.404 . S
C4132 C4135 1.539 . S
C4133 C4129 1.408 . S
C4133 C4132 1.404 . S
C4133 H4145 0.930 . S
C4134 C4130 1.524 . S
C4134 H4146 0.956 . S
C4134 H4147 0.961 . S
C4134 H4148 0.961 . S
C4135 C4132 1.539 . S
C4135 H4149 0.958 . S
C4135 H4150 0.961 . S
C4135 H4151 0.960 . S
H4136 C4120 0.931 . S
H4137 C4125 0.929 . S
H4138 C4126 0.960 . S
H4139 C4126 0.962 . S
H4140 C4126 0.960 . S
H4141 C4127 0.961 . S
H4142 C4127 0.961 . S
H4143 C4127 0.961 . S
H4144 C4128 0.931 . S
H4145 C4133 0.930 . S
H4146 C4134 0.956 . S
H4147 C4134 0.961 . S
H4148 C4134 0.961 . S
H4149 C4135 0.958 . S
H4150 C4135 0.961 . S
H4151 C4135 0.960 . S
C4152 C4153 1.391 . S
C4152 C4154 1.394 . S
C4152 H4168 0.931 . S
C4153 C4152 1.391 . S
C4153 C4157 1.376 . S
C4154 C4152 1.394 . S
C4154 C4155 1.369 . S
C4154 C4158 1.531 . S
C4155 C4154 1.369 . S
C4155 C4156 1.410 . S
C4155 C4163 1.503 . S
C4156 C4155 1.410 . S
C4156 C4157 1.392 . S
C4156 C4159 1.511 . S
C4157 C4153 1.376 . S
C4157 C4156 1.392 . S
C4157 H4169 0.929 . S
C4158 C4154 1.531 . S
C4158 H4170 0.960 . S
C4158 H4171 0.962 1_455 S
C4158 H4172 0.960 . S
C4159 C4156 1.511 . S
C4159 H4173 0.961 . S
C4159 H4174 0.961 . S
C4159 H4175 0.961 . S
C4160 C4161 1.370 . S
C4160 C4162 1.363 . S
C4160 H4176 0.931 . S
C4161 C4160 1.370 . S
C4161 C4165 1.408 . S
C4162 C4160 1.363 . S
C4162 C4163 1.370 . S
C4162 C4166 1.524 . S
C4163 C4155 1.503 . S
C4163 C4162 1.370 . S
C4163 C4164 1.403 . S
C4164 C4163 1.403 . S
C4164 C4165 1.404 . S
C4164 C4167 1.539 . S
C4165 C4161 1.408 . S
C4165 C4164 1.404 . S
C4165 H4177 0.930 . S
C4166 C4162 1.524 . S
C4166 H4178 0.956 1_455 S
C4166 H4179 0.961 . S
C4166 H4180 0.961 1_455 S
C4167 C4164 1.539 . S
C4167 H4181 0.958 . S
C4167 H4182 0.961 . S
C4167 H4183 0.960 . S
H4168 C4152 0.931 . S
H4169 C4157 0.929 . S
H4170 C4158 0.960 . S
H4171 C4158 0.962 1_655 S
H4172 C4158 0.960 . S
H4173 C4159 0.961 . S
H4174 C4159 0.961 . S
H4175 C4159 0.961 . S
H4176 C4160 0.931 . S
H4177 C4165 0.930 . S
H4178 C4166 0.956 1_655 S
H4179 C4166 0.961 . S
H4180 C4166 0.961 1_655 S
H4181 C4167 0.958 . S
H4182 C4167 0.961 . S
H4183 C4167 0.960 . S
C4184 C4185 1.391 . S
C4184 C4186 1.394 . S
C4184 H4200 0.931 . S
C4185 C4184 1.391 . S
C4185 C4189 1.376 . S
C4186 C4184 1.394 . S
C4186 C4187 1.369 . S
C4186 C4190 1.531 . S
C4187 C4186 1.369 . S
C4187 C4188 1.410 . S
C4187 C4195 1.503 . S
C4188 C4187 1.410 . S
C4188 C4189 1.392 . S
C4188 C4191 1.511 . S
C4189 C4185 1.376 . S
C4189 C4188 1.392 . S
C4189 H4201 0.929 . S
C4190 C4186 1.531 . S
C4190 H4202 0.960 . S
C4190 H4203 0.962 . S
C4190 H4204 0.960 . S
C4191 C4188 1.511 . S
C4191 H4205 0.961 . S
C4191 H4206 0.961 . S
C4191 H4207 0.961 . S
C4192 C4193 1.370 . S
C4192 C4194 1.363 . S
C4192 H4208 0.931 . S
C4193 C4192 1.370 . S
C4193 C4197 1.408 . S
C4194 C4192 1.363 . S
C4194 C4195 1.370 . S
C4194 C4198 1.524 . S
C4195 C4187 1.503 . S
C4195 C4194 1.370 . S
C4195 C4196 1.403 . S
C4196 C4195 1.403 . S
C4196 C4197 1.404 . S
C4196 C4199 1.539 . S
C4197 C4193 1.408 . S
C4197 C4196 1.404 . S
C4197 H4209 0.930 . S
C4198 C4194 1.524 . S
C4198 H4210 0.956 . S
C4198 H4211 0.961 . S
C4198 H4212 0.961 . S
C4199 C4196 1.539 . S
C4199 H4213 0.958 . S
C4199 H4214 0.961 . S
C4199 H4215 0.960 . S
H4200 C4184 0.931 . S
H4201 C4189 0.929 . S
H4202 C4190 0.960 . S
H4203 C4190 0.962 . S
H4204 C4190 0.960 . S
H4205 C4191 0.961 . S
H4206 C4191 0.961 . S
H4207 C4191 0.961 . S
H4208 C4192 0.931 . S
H4209 C4197 0.930 . S
H4210 C4198 0.956 . S
H4211 C4198 0.961 . S
H4212 C4198 0.961 . S
H4213 C4199 0.958 . S
H4214 C4199 0.961 . S
H4215 C4199 0.960 . S
C4216 C4217 1.391 . S
C4216 C4218 1.394 . S
C4216 H4232 0.931 . S
C4217 C4216 1.391 . S
C4217 C4221 1.376 . S
C4218 C4216 1.394 . S
C4218 C4219 1.369 . S
C4218 C4222 1.531 . S
C4219 C4218 1.369 . S
C4219 C4220 1.410 . S
C4219 C4227 1.503 . S
C4220 C4219 1.410 . S
C4220 C4221 1.392 . S
C4220 C4223 1.511 . S
C4221 C4217 1.376 . S
C4221 C4220 1.392 . S
C4221 H4233 0.929 . S
C4222 C4218 1.531 . S
C4222 H4234 0.960 . S
C4222 H4235 0.962 . S
C4222 H4236 0.960 . S
C4223 C4220 1.511 . S
C4223 H4237 0.961 . S
C4223 H4238 0.961 . S
C4223 H4239 0.961 . S
C4224 C4225 1.370 . S
C4224 C4226 1.363 . S
C4224 H4240 0.931 . S
C4225 C4224 1.370 . S
C4225 C4229 1.408 . S
C4226 C4224 1.363 . S
C4226 C4227 1.370 . S
C4226 C4230 1.524 . S
C4227 C4219 1.503 . S
C4227 C4226 1.370 . S
C4227 C4228 1.403 . S
C4228 C4227 1.403 . S
C4228 C4229 1.404 . S
C4228 C4231 1.539 . S
C4229 C4225 1.408 . S
C4229 C4228 1.404 . S
C4229 H4241 0.930 . S
C4230 C4226 1.524 . S
C4230 H4242 0.956 . S
C4230 H4243 0.961 . S
C4230 H4244 0.961 . S
C4231 C4228 1.539 . S
C4231 H4245 0.958 . S
C4231 H4246 0.961 . S
C4231 H4247 0.960 . S
H4232 C4216 0.931 . S
H4233 C4221 0.929 . S
H4234 C4222 0.960 . S
H4235 C4222 0.962 . S
H4236 C4222 0.960 . S
H4237 C4223 0.961 . S
H4238 C4223 0.961 . S
H4239 C4223 0.961 . S
H4240 C4224 0.931 . S
H4241 C4229 0.930 . S
H4242 C4230 0.956 . S
H4243 C4230 0.961 . S
H4244 C4230 0.961 . S
H4245 C4231 0.958 . S
H4246 C4231 0.961 . S
H4247 C4231 0.960 . S
C4248 C4249 1.391 . S
C4248 C4250 1.394 . S
C4248 H4264 0.931 . S
C4249 C4248 1.391 . S
C4249 C4253 1.376 . S
C4250 C4248 1.394 . S
C4250 C4251 1.369 . S
C4250 C4254 1.531 . S
C4251 C4250 1.369 . S
C4251 C4252 1.410 . S
C4251 C4259 1.503 . S
C4252 C4251 1.410 . S
C4252 C4253 1.392 . S
C4252 C4255 1.511 . S
C4253 C4249 1.376 . S
C4253 C4252 1.392 . S
C4253 H4265 0.929 . S
C4254 C4250 1.531 . S
C4254 H4266 0.960 . S
C4254 H4267 0.962 . S
C4254 H4268 0.960 . S
C4255 C4252 1.511 . S
C4255 H4269 0.961 . S
C4255 H4270 0.961 . S
C4255 H4271 0.961 . S
C4256 C4257 1.370 . S
C4256 C4258 1.363 . S
C4256 H4272 0.931 . S
C4257 C4256 1.370 . S
C4257 C4261 1.408 . S
C4258 C4256 1.363 . S
C4258 C4259 1.370 . S
C4258 C4262 1.524 . S
C4259 C4251 1.503 . S
C4259 C4258 1.370 . S
C4259 C4260 1.403 . S
C4260 C4259 1.403 . S
C4260 C4261 1.404 . S
C4260 C4263 1.539 . S
C4261 C4257 1.408 . S
C4261 C4260 1.404 . S
C4261 H4273 0.930 . S
C4262 C4258 1.524 . S
C4262 H4274 0.956 . S
C4262 H4275 0.961 . S
C4262 H4276 0.961 . S
C4263 C4260 1.539 . S
C4263 H4277 0.958 . S
C4263 H4278 0.961 . S
C4263 H4279 0.960 . S
H4264 C4248 0.931 . S
H4265 C4253 0.929 . S
H4266 C4254 0.960 . S
H4267 C4254 0.962 . S
H4268 C4254 0.960 . S
H4269 C4255 0.961 . S
H4270 C4255 0.961 . S
H4271 C4255 0.961 . S
H4272 C4256 0.931 . S
H4273 C4261 0.930 . S
H4274 C4262 0.956 . S
H4275 C4262 0.961 . S
H4276 C4262 0.961 . S
H4277 C4263 0.958 . S
H4278 C4263 0.961 . S
H4279 C4263 0.960 . S
C4280 C4281 1.391 . S
C4280 C4282 1.394 . S
C4280 H4296 0.931 . S
C4281 C4280 1.391 . S
C4281 C4285 1.376 . S
C4282 C4280 1.394 . S
C4282 C4283 1.369 . S
C4282 C4286 1.531 . S
C4283 C4282 1.369 . S
C4283 C4284 1.410 . S
C4283 C4291 1.503 . S
C4284 C4283 1.410 . S
C4284 C4285 1.392 . S
C4284 C4287 1.511 . S
C4285 C4281 1.376 . S
C4285 C4284 1.392 . S
C4285 H4297 0.929 . S
C4286 C4282 1.531 . S
C4286 H4298 0.960 . S
C4286 H4299 0.962 . S
C4286 H4300 0.960 . S
C4287 C4284 1.511 . S
C4287 H4301 0.961 . S
C4287 H4302 0.961 . S
C4287 H4303 0.961 . S
C4288 C4289 1.370 . S
C4288 C4290 1.363 . S
C4288 H4304 0.931 1_655 S
C4289 C4288 1.370 . S
C4289 C4293 1.408 . S
C4290 C4288 1.363 . S
C4290 C4291 1.370 . S
C4290 C4294 1.524 . S
C4291 C4283 1.503 . S
C4291 C4290 1.370 . S
C4291 C4292 1.403 . S
C4292 C4291 1.403 . S
C4292 C4293 1.404 . S
C4292 C4295 1.539 . S
C4293 C4289 1.408 . S
C4293 C4292 1.404 . S
C4293 H4305 0.922 1_556 S
C4294 C4290 1.524 . S
C4294 H4306 0.956 . S
C4294 H4307 0.961 . S
C4294 H4308 0.961 . S
C4295 C4292 1.539 . S
C4295 H4309 0.958 . S
C4295 H4310 0.961 . S
C4295 H4311 0.960 . S
H4296 C4280 0.931 . S
H4297 C4285 0.929 . S
H4298 C4286 0.960 . S
H4299 C4286 0.962 . S
H4300 C4286 0.960 . S
H4301 C4287 0.961 . S
H4302 C4287 0.961 . S
H4303 C4287 0.961 . S
H4304 C4288 0.931 1_455 S
H4305 C4293 0.922 1_554 S
H4306 C4294 0.956 . S
H4307 C4294 0.961 . S
H4308 C4294 0.961 . S
H4309 C4295 0.958 . S
H4310 C4295 0.961 . S
H4311 C4295 0.960 . S
C4312 C4313 1.391 . S
C4312 C4314 1.394 . S
C4312 H4328 0.931 . S
C4313 C4312 1.391 . S
C4313 C4317 1.376 . S
C4314 C4312 1.394 . S
C4314 C4315 1.369 . S
C4314 C4318 1.531 . S
C4315 C4314 1.369 . S
C4315 C4316 1.410 . S
C4315 C4323 1.503 . S
C4316 C4315 1.410 . S
C4316 C4317 1.392 . S
C4316 C4319 1.511 . S
C4317 C4313 1.376 . S
C4317 C4316 1.392 . S
C4317 H4329 0.929 . S
C4318 C4314 1.531 . S
C4318 H4330 0.960 . S
C4318 H4331 0.962 . S
C4318 H4332 0.960 . S
C4319 C4316 1.511 . S
C4319 H4333 0.961 . S
C4319 H4334 0.961 . S
C4319 H4335 0.961 . S
C4320 C4321 1.370 . S
C4320 C4322 1.363 . S
C4320 H4336 0.931 . S
C4321 C4320 1.370 . S
C4321 C4325 1.408 . S
C4322 C4320 1.363 . S
C4322 C4323 1.370 . S
C4322 C4326 1.524 . S
C4323 C4315 1.503 . S
C4323 C4322 1.370 . S
C4323 C4324 1.403 . S
C4324 C4323 1.403 . S
C4324 C4325 1.404 . S
C4324 C4327 1.539 . S
C4325 C4321 1.408 . S
C4325 C4324 1.404 . S
C4325 H4337 0.930 . S
C4326 C4322 1.524 . S
C4326 H4338 0.956 . S
C4326 H4339 0.961 . S
C4326 H4340 0.961 . S
C4327 C4324 1.539 . S
C4327 H4341 0.958 . S
C4327 H4342 0.961 . S
C4327 H4343 0.960 . S
H4328 C4312 0.931 . S
H4329 C4317 0.929 . S
H4330 C4318 0.960 . S
H4331 C4318 0.962 . S
H4332 C4318 0.960 . S
H4333 C4319 0.961 . S
H4334 C4319 0.961 . S
H4335 C4319 0.961 . S
H4336 C4320 0.931 . S
H4337 C4325 0.930 . S
H4338 C4326 0.956 . S
H4339 C4326 0.961 . S
H4340 C4326 0.961 . S
H4341 C4327 0.958 . S
H4342 C4327 0.961 . S
H4343 C4327 0.960 . S
C4344 C4345 1.391 . S
C4344 C4346 1.394 . S
C4344 H4360 0.931 . S
C4345 C4344 1.391 . S
C4345 C4349 1.376 . S
C4346 C4344 1.394 . S
C4346 C4347 1.369 . S
C4346 C4350 1.531 . S
C4347 C4346 1.369 . S
C4347 C4348 1.410 . S
C4347 C4355 1.503 . S
C4348 C4347 1.410 . S
C4348 C4349 1.392 . S
C4348 C4351 1.511 . S
C4349 C4345 1.376 . S
C4349 C4348 1.392 . S
C4349 H4361 0.929 . S
C4350 C4346 1.531 . S
C4350 H4362 0.960 . S
C4350 H4363 0.962 . S
C4350 H4364 0.960 . S
C4351 C4348 1.511 . S
C4351 H4365 0.961 . S
C4351 H4366 0.961 . S
C4351 H4367 0.961 . S
C4352 C4353 1.370 . S
C4352 C4354 1.363 . S
C4352 H4368 0.931 . S
C4353 C4352 1.370 . S
C4353 C4357 1.408 . S
C4354 C4352 1.363 . S
C4354 C4355 1.370 . S
C4354 C4358 1.524 . S
C4355 C4347 1.503 . S
C4355 C4354 1.370 . S
C4355 C4356 1.403 . S
C4356 C4355 1.403 . S
C4356 C4357 1.404 . S
C4356 C4359 1.539 . S
C4357 C4353 1.408 . S
C4357 C4356 1.404 . S
C4357 H4369 0.930 . S
C4358 C4354 1.524 . S
C4358 H4370 0.956 . S
C4358 H4371 0.961 . S
C4358 H4372 0.961 . S
C4359 C4356 1.539 . S
C4359 H4373 0.958 . S
C4359 H4374 0.961 . S
C4359 H4375 0.960 . S
H4360 C4344 0.931 . S
H4361 C4349 0.929 . S
H4362 C4350 0.960 . S
H4363 C4350 0.962 . S
H4364 C4350 0.960 . S
H4365 C4351 0.961 . S
H4366 C4351 0.961 . S
H4367 C4351 0.961 . S
H4368 C4352 0.931 . S
H4369 C4357 0.930 . S
H4370 C4358 0.956 . S
H4371 C4358 0.961 . S
H4372 C4358 0.961 . S
H4373 C4359 0.958 . S
H4374 C4359 0.961 . S
H4375 C4359 0.960 . S
C4376 C4377 1.391 . S
C4376 C4378 1.394 . S
C4376 H4392 0.931 . S
C4377 C4376 1.391 . S
C4377 C4381 1.376 . S
C4378 C4376 1.394 . S
C4378 C4379 1.369 . S
C4378 C4382 1.531 . S
C4379 C4378 1.369 . S
C4379 C4380 1.410 . S
C4379 C4387 1.503 . S
C4380 C4379 1.410 . S
C4380 C4381 1.392 . S
C4380 C4383 1.511 . S
C4381 C4377 1.376 . S
C4381 C4380 1.392 . S
C4381 H4393 0.929 . S
C4382 C4378 1.531 . S
C4382 H4394 0.960 . S
C4382 H4395 0.962 . S
C4382 H4396 0.960 . S
C4383 C4380 1.511 . S
C4383 H4397 0.961 . S
C4383 H4398 0.961 . S
C4383 H4399 0.961 . S
C4384 C4385 1.370 . S
C4384 C4386 1.363 . S
C4384 H4400 0.931 . S
C4385 C4384 1.370 . S
C4385 C4389 1.408 . S
C4386 C4384 1.363 . S
C4386 C4387 1.370 . S
C4386 C4390 1.524 . S
C4387 C4379 1.503 . S
C4387 C4386 1.370 . S
C4387 C4388 1.403 . S
C4388 C4387 1.403 . S
C4388 C4389 1.404 . S
C4388 C4391 1.539 . S
C4389 C4385 1.408 . S
C4389 C4388 1.404 . S
C4389 H4401 0.930 . S
C4390 C4386 1.524 . S
C4390 H4402 0.956 . S
C4390 H4403 0.961 . S
C4390 H4404 0.961 . S
C4391 C4388 1.539 . S
C4391 H4405 0.958 . S
C4391 H4406 0.961 . S
C4391 H4407 0.960 . S
H4392 C4376 0.931 . S
H4393 C4381 0.929 . S
H4394 C4382 0.960 . S
H4395 C4382 0.962 . S
H4396 C4382 0.960 . S
H4397 C4383 0.961 . S
H4398 C4383 0.961 . S
H4399 C4383 0.961 . S
H4400 C4384 0.931 . S
H4401 C4389 0.930 . S
H4402 C4390 0.956 . S
H4403 C4390 0.961 . S
H4404 C4390 0.961 . S
H4405 C4391 0.958 . S
H4406 C4391 0.961 . S
H4407 C4391 0.960 . S
C4408 C4409 1.391 . S
C4408 C4410 1.394 . S
C4408 H4424 0.931 . S
C4409 C4408 1.391 . S
C4409 C4413 1.376 . S
C4410 C4408 1.394 . S
C4410 C4411 1.369 . S
C4410 C4414 1.531 . S
C4411 C4410 1.369 . S
C4411 C4412 1.410 . S
C4411 C4419 1.503 . S
C4412 C4411 1.410 . S
C4412 C4413 1.392 . S
C4412 C4415 1.511 . S
C4413 C4409 1.376 . S
C4413 C4412 1.392 . S
C4413 H4425 0.929 . S
C4414 C4410 1.531 . S
C4414 H4426 0.960 . S
C4414 H4427 0.962 . S
C4414 H4428 0.960 . S
C4415 C4412 1.511 . S
C4415 H4429 0.961 . S
C4415 H4430 0.961 . S
C4415 H4431 0.961 . S
C4416 C4417 1.370 . S
C4416 C4418 1.363 . S
C4416 H4432 0.931 . S
C4417 C4416 1.370 . S
C4417 C4421 1.408 . S
C4418 C4416 1.363 . S
C4418 C4419 1.370 . S
C4418 C4422 1.524 . S
C4419 C4411 1.503 . S
C4419 C4418 1.370 . S
C4419 C4420 1.403 . S
C4420 C4419 1.403 . S
C4420 C4421 1.404 . S
C4420 C4423 1.539 . S
C4421 C4417 1.408 . S
C4421 C4420 1.404 . S
C4421 H4433 0.930 . S
C4422 C4418 1.524 . S
C4422 H4434 0.956 . S
C4422 H4435 0.961 . S
C4422 H4436 0.961 . S
C4423 C4420 1.539 . S
C4423 H4437 0.958 . S
C4423 H4438 0.961 . S
C4423 H4439 0.960 . S
H4424 C4408 0.931 . S
H4425 C4413 0.929 . S
H4426 C4414 0.960 . S
H4427 C4414 0.962 . S
H4428 C4414 0.960 . S
H4429 C4415 0.961 . S
H4430 C4415 0.961 . S
H4431 C4415 0.961 . S
H4432 C4416 0.931 . S
H4433 C4421 0.930 . S
H4434 C4422 0.956 . S
H4435 C4422 0.961 . S
H4436 C4422 0.961 . S
H4437 C4423 0.958 . S
H4438 C4423 0.961 . S
H4439 C4423 0.960 . S
C4440 C4441 1.391 . S
C4440 C4442 1.394 . S
C4440 H4456 0.931 . S
C4441 C4440 1.391 . S
C4441 C4445 1.376 . S
C4442 C4440 1.394 . S
C4442 C4443 1.369 . S
C4442 C4446 1.531 . S
C4443 C4442 1.369 . S
C4443 C4444 1.410 . S
C4443 C4451 1.503 . S
C4444 C4443 1.410 . S
C4444 C4445 1.392 . S
C4444 C4447 1.511 . S
C4445 C4441 1.376 . S
C4445 C4444 1.392 . S
C4445 H4457 0.929 . S
C4446 C4442 1.531 . S
C4446 H4458 0.960 . S
C4446 H4459 0.962 . S
C4446 H4460 0.960 . S
C4447 C4444 1.511 . S
C4447 H4461 0.961 . S
C4447 H4462 0.961 . S
C4447 H4463 0.961 . S
C4448 C4449 1.370 . S
C4448 C4450 1.363 . S
C4448 H4464 0.931 . S
C4449 C4448 1.370 . S
C4449 C4453 1.408 . S
C4450 C4448 1.363 . S
C4450 C4451 1.370 . S
C4450 C4454 1.524 . S
C4451 C4443 1.503 . S
C4451 C4450 1.370 . S
C4451 C4452 1.403 . S
C4452 C4451 1.403 . S
C4452 C4453 1.404 . S
C4452 C4455 1.539 . S
C4453 C4449 1.408 . S
C4453 C4452 1.404 . S
C4453 H4465 0.930 . S
C4454 C4450 1.524 . S
C4454 H4466 0.956 . S
C4454 H4467 0.961 . S
C4454 H4468 0.961 . S
C4455 C4452 1.539 . S
C4455 H4469 0.958 . S
C4455 H4470 0.961 . S
C4455 H4471 0.960 . S
H4456 C4440 0.931 . S
H4457 C4445 0.929 . S
H4458 C4446 0.960 . S
H4459 C4446 0.962 . S
H4460 C4446 0.960 . S
H4461 C4447 0.961 . S
H4462 C4447 0.961 . S
H4463 C4447 0.961 . S
H4464 C4448 0.931 . S
H4465 C4453 0.930 . S
H4466 C4454 0.956 . S
H4467 C4454 0.961 . S
H4468 C4454 0.961 . S
H4469 C4455 0.958 . S
H4470 C4455 0.961 . S
H4471 C4455 0.960 . S
C4472 C4473 1.391 . S
C4472 C4474 1.394 . S
C4472 H4488 0.931 . S
C4473 C4472 1.391 . S
C4473 C4477 1.376 . S
C4474 C4472 1.394 . S
C4474 C4475 1.369 . S
C4474 C4478 1.531 . S
C4475 C4474 1.369 . S
C4475 C4476 1.410 . S
C4475 C4483 1.503 . S
C4476 C4475 1.410 . S
C4476 C4477 1.392 . S
C4476 C4479 1.511 . S
C4477 C4473 1.376 . S
C4477 C4476 1.392 . S
C4477 H4489 0.929 . S
C4478 C4474 1.531 . S
C4478 H4490 0.960 . S
C4478 H4491 0.962 . S
C4478 H4492 0.960 . S
C4479 C4476 1.511 . S
C4479 H4493 0.961 . S
C4479 H4494 0.961 . S
C4479 H4495 0.961 . S
C4480 C4481 1.370 . S
C4480 C4482 1.363 . S
C4480 H4496 0.931 . S
C4481 C4480 1.370 . S
C4481 C4485 1.408 . S
C4482 C4480 1.363 . S
C4482 C4483 1.370 . S
C4482 C4486 1.524 . S
C4483 C4475 1.503 . S
C4483 C4482 1.370 . S
C4483 C4484 1.403 . S
C4484 C4483 1.403 . S
C4484 C4485 1.404 . S
C4484 C4487 1.539 . S
C4485 C4481 1.408 . S
C4485 C4484 1.404 . S
C4485 H4497 0.930 . S
C4486 C4482 1.524 . S
C4486 H4498 0.956 . S
C4486 H4499 0.961 . S
C4486 H4500 0.961 . S
C4487 C4484 1.539 . S
C4487 H4501 0.958 . S
C4487 H4502 0.961 . S
C4487 H4503 0.960 . S
H4488 C4472 0.931 . S
H4489 C4477 0.929 . S
H4490 C4478 0.960 . S
H4491 C4478 0.962 . S
H4492 C4478 0.960 . S
H4493 C4479 0.961 . S
H4494 C4479 0.961 . S
H4495 C4479 0.961 . S
H4496 C4480 0.931 . S
H4497 C4485 0.930 . S
H4498 C4486 0.956 . S
H4499 C4486 0.961 . S
H4500 C4486 0.961 . S
H4501 C4487 0.958 . S
H4502 C4487 0.961 . S
H4503 C4487 0.960 . S
C4504 C4505 1.391 . S
C4504 C4506 1.394 . S
C4504 H4520 0.931 . S
C4505 C4504 1.391 . S
C4505 C4509 1.376 . S
C4506 C4504 1.394 . S
C4506 C4507 1.369 . S
C4506 C4510 1.531 . S
C4507 C4506 1.369 . S
C4507 C4508 1.410 . S
C4507 C4515 1.503 . S
C4508 C4507 1.410 . S
C4508 C4509 1.392 . S
C4508 C4511 1.511 . S
C4509 C4505 1.376 . S
C4509 C4508 1.392 . S
C4509 H4521 0.929 . S
C4510 C4506 1.531 . S
C4510 H4522 0.960 . S
C4510 H4523 0.962 . S
C4510 H4524 0.960 . S
C4511 C4508 1.511 . S
C4511 H4525 0.961 . S
C4511 H4526 0.961 . S
C4511 H4527 0.961 . S
C4512 C4513 1.370 . S
C4512 C4514 1.363 . S
C4512 H4528 0.931 . S
C4513 C4512 1.370 . S
C4513 C4517 1.408 . S
C4514 C4512 1.363 . S
C4514 C4515 1.370 . S
C4514 C4518 1.524 . S
C4515 C4507 1.503 . S
C4515 C4514 1.370 . S
C4515 C4516 1.403 . S
C4516 C4515 1.403 . S
C4516 C4517 1.404 . S
C4516 C4519 1.539 . S
C4517 C4513 1.408 . S
C4517 C4516 1.404 . S
C4517 H4529 0.930 1_565 S
C4518 C4514 1.524 . S
C4518 H4530 0.956 . S
C4518 H4531 0.961 . S
C4518 H4532 0.961 . S
C4519 C4516 1.539 . S
C4519 H4533 0.958 . S
C4519 H4534 0.961 . S
C4519 H4535 0.960 . S
H4520 C4504 0.931 . S
H4521 C4509 0.929 . S
H4522 C4510 0.960 . S
H4523 C4510 0.962 . S
H4524 C4510 0.960 . S
H4525 C4511 0.961 . S
H4526 C4511 0.961 . S
H4527 C4511 0.961 . S
H4528 C4512 0.931 . S
H4529 C4517 0.930 1_545 S
H4530 C4518 0.956 . S
H4531 C4518 0.961 . S
H4532 C4518 0.961 . S
H4533 C4519 0.958 . S
H4534 C4519 0.961 . S
H4535 C4519 0.960 . S
C4536 C4537 1.391 . S
C4536 C4538 1.394 . S
C4536 H4552 0.931 . S
C4537 C4536 1.391 . S
C4537 C4541 1.376 . S
C4538 C4536 1.394 . S
C4538 C4539 1.369 . S
C4538 C4542 1.531 . S
C4539 C4538 1.369 . S
C4539 C4540 1.410 . S
C4539 C4547 1.503 . S
C4540 C4539 1.410 . S
C4540 C4541 1.392 . S
C4540 C4543 1.511 . S
C4541 C4537 1.376 . S
C4541 C4540 1.392 . S
C4541 H4553 0.929 . S
C4542 C4538 1.531 . S
C4542 H4554 0.960 . S
C4542 H4555 0.962 . S
C4542 H4556 0.960 . S
C4543 C4540 1.511 . S
C4543 H4557 0.961 . S
C4543 H4558 0.961 . S
C4543 H4559 0.961 . S
C4544 C4545 1.370 . S
C4544 C4546 1.363 . S
C4544 H4560 0.931 . S
C4545 C4544 1.370 . S
C4545 C4549 1.408 . S
C4546 C4544 1.363 . S
C4546 C4547 1.370 . S
C4546 C4550 1.524 . S
C4547 C4539 1.503 . S
C4547 C4546 1.370 . S
C4547 C4548 1.403 . S
C4548 C4547 1.403 . S
C4548 C4549 1.404 . S
C4548 C4551 1.539 . S
C4549 C4545 1.408 . S
C4549 C4548 1.404 . S
C4549 H4561 0.930 . S
C4550 C4546 1.524 . S
C4550 H4562 0.956 . S
C4550 H4563 0.961 . S
C4550 H4564 0.961 . S
C4551 C4548 1.539 . S
C4551 H4565 0.958 . S
C4551 H4566 0.961 . S
C4551 H4567 0.960 . S
H4552 C4536 0.931 . S
H4553 C4541 0.929 . S
H4554 C4542 0.960 . S
H4555 C4542 0.962 . S
H4556 C4542 0.960 . S
H4557 C4543 0.961 . S
H4558 C4543 0.961 . S
H4559 C4543 0.961 . S
H4560 C4544 0.931 . S
H4561 C4549 0.930 . S
H4562 C4550 0.956 . S
H4563 C4550 0.961 . S
H4564 C4550 0.961 . S
H4565 C4551 0.958 . S
H4566 C4551 0.961 . S
H4567 C4551 0.960 . S
C4568 C4569 1.391 . S
C4568 C4570 1.394 . S
C4568 H4584 0.931 . S
C4569 C4568 1.391 . S
C4569 C4573 1.376 . S
C4570 C4568 1.394 . S
C4570 C4571 1.369 . S
C4570 C4574 1.531 . S
C4571 C4570 1.369 . S
C4571 C4572 1.410 . S
C4571 C4579 1.503 . S
C4572 C4571 1.410 . S
C4572 C4573 1.392 . S
C4572 C4575 1.511 . S
C4573 C4569 1.376 . S
C4573 C4572 1.392 . S
C4573 H4585 0.929 . S
C4574 C4570 1.531 . S
C4574 H4586 0.960 . S
C4574 H4587 0.962 1_554 S
C4574 H4588 0.960 . S
C4575 C4572 1.511 . S
C4575 H4589 0.961 . S
C4575 H4590 0.961 . S
C4575 H4591 0.961 . S
C4576 C4577 1.370 . S
C4576 C4578 1.363 . S
C4576 H4592 0.931 . S
C4577 C4576 1.370 . S
C4577 C4581 1.408 . S
C4578 C4576 1.363 . S
C4578 C4579 1.370 . S
C4578 C4582 1.524 . S
C4579 C4571 1.503 . S
C4579 C4578 1.370 . S
C4579 C4580 1.403 . S
C4580 C4579 1.403 . S
C4580 C4581 1.404 . S
C4580 C4583 1.539 . S
C4581 C4577 1.408 . S
C4581 C4580 1.404 . S
C4581 H4593 0.930 . S
C4582 C4578 1.524 . S
C4582 H4594 0.956 1_554 S
C4582 H4595 0.961 . S
C4582 H4596 0.943 1_554 S
C4583 C4580 1.539 . S
C4583 H4597 0.958 . S
C4583 H4598 0.961 . S
C4583 H4599 0.960 . S
H4584 C4568 0.931 . S
H4585 C4573 0.929 . S
H4586 C4574 0.960 . S
H4587 C4574 0.962 1_556 S
H4588 C4574 0.960 . S
H4589 C4575 0.961 . S
H4590 C4575 0.961 . S
H4591 C4575 0.961 . S
H4592 C4576 0.931 . S
H4593 C4581 0.930 . S
H4594 C4582 0.956 1_556 S
H4595 C4582 0.961 . S
H4596 C4582 0.943 1_556 S
H4597 C4583 0.958 . S
H4598 C4583 0.961 . S
H4599 C4583 0.960 . S
C4600 C4601 1.391 . S
C4600 C4602 1.394 . S
C4600 H4616 0.931 . S
C4601 C4600 1.391 . S
C4601 C4605 1.376 . S
C4602 C4600 1.394 . S
C4602 C4603 1.369 . S
C4602 C4606 1.531 . S
C4603 C4602 1.369 . S
C4603 C4604 1.410 . S
C4603 C4611 1.503 . S
C4604 C4603 1.410 . S
C4604 C4605 1.392 . S
C4604 C4607 1.511 . S
C4605 C4601 1.376 . S
C4605 C4604 1.392 . S
C4605 H4617 0.929 . S
C4606 C4602 1.531 . S
C4606 H4618 0.960 . S
C4606 H4619 0.962 . S
C4606 H4620 0.960 . S
C4607 C4604 1.511 . S
C4607 H4621 0.961 . S
C4607 H4622 0.961 . S
C4607 H4623 0.961 . S
C4608 C4609 1.370 . S
C4608 C4610 1.363 . S
C4608 H4624 0.931 . S
C4609 C4608 1.370 . S
C4609 C4613 1.408 . S
C4610 C4608 1.363 . S
C4610 C4611 1.370 . S
C4610 C4614 1.524 . S
C4611 C4603 1.503 . S
C4611 C4610 1.370 . S
C4611 C4612 1.403 . S
C4612 C4611 1.403 . S
C4612 C4613 1.404 . S
C4612 C4615 1.539 . S
C4613 C4609 1.408 . S
C4613 C4612 1.404 . S
C4613 H4625 0.930 . S
C4614 C4610 1.524 . S
C4614 H4626 0.956 . S
C4614 H4627 0.961 . S
C4614 H4628 0.961 . S
C4615 C4612 1.539 . S
C4615 H4629 0.958 . S
C4615 H4630 0.961 . S
C4615 H4631 0.960 . S
H4616 C4600 0.931 . S
H4617 C4605 0.929 . S
H4618 C4606 0.960 . S
H4619 C4606 0.962 . S
H4620 C4606 0.960 . S
H4621 C4607 0.961 . S
H4622 C4607 0.961 . S
H4623 C4607 0.961 . S
H4624 C4608 0.931 . S
H4625 C4613 0.930 . S
H4626 C4614 0.956 . S
H4627 C4614 0.961 . S
H4628 C4614 0.961 . S
H4629 C4615 0.958 . S
H4630 C4615 0.961 . S
H4631 C4615 0.960 . S
C4632 C4633 1.391 . S
C4632 C4634 1.394 . S
C4632 H4648 0.931 . S
C4633 C4632 1.391 . S
C4633 C4637 1.376 . S
C4634 C4632 1.394 . S
C4634 C4635 1.369 . S
C4634 C4638 1.531 . S
C4635 C4634 1.369 . S
C4635 C4636 1.410 . S
C4635 C4643 1.503 . S
C4636 C4635 1.410 . S
C4636 C4637 1.392 . S
C4636 C4639 1.511 . S
C4637 C4633 1.376 . S
C4637 C4636 1.392 . S
C4637 H4649 0.929 . S
C4638 C4634 1.531 . S
C4638 H4650 0.960 . S
C4638 H4651 0.962 . S
C4638 H4652 0.960 . S
C4639 C4636 1.511 . S
C4639 H4653 0.961 . S
C4639 H4654 0.961 . S
C4639 H4655 0.961 . S
C4640 C4641 1.370 . S
C4640 C4642 1.363 . S
C4640 H4656 0.931 . S
C4641 C4640 1.370 . S
C4641 C4645 1.408 . S
C4642 C4640 1.363 . S
C4642 C4643 1.370 . S
C4642 C4646 1.524 . S
C4643 C4635 1.503 . S
C4643 C4642 1.370 . S
C4643 C4644 1.403 . S
C4644 C4643 1.403 . S
C4644 C4645 1.404 . S
C4644 C4647 1.539 1_554 S
C4645 C4641 1.408 . S
C4645 C4644 1.404 . S
C4645 H4657 0.930 . S
C4646 C4642 1.524 . S
C4646 H4658 0.956 . S
C4646 H4659 0.961 . S
C4646 H4660 0.961 . S
C4647 C4644 1.539 1_556 S
C4647 H4661 0.958 . S
C4647 H4662 0.961 . S
C4647 H4663 0.960 . S
H4648 C4632 0.931 . S
H4649 C4637 0.929 . S
H4650 C4638 0.960 . S
H4651 C4638 0.962 . S
H4652 C4638 0.960 . S
H4653 C4639 0.961 . S
H4654 C4639 0.961 . S
H4655 C4639 0.961 . S
H4656 C4640 0.931 . S
H4657 C4645 0.930 . S
H4658 C4646 0.956 . S
H4659 C4646 0.961 . S
H4660 C4646 0.961 . S
H4661 C4647 0.958 . S
H4662 C4647 0.961 . S
H4663 C4647 0.960 . S
C4664 C4665 1.391 . S
C4664 C4666 1.394 . S
C4664 H4680 0.931 . S
C4665 C4664 1.391 . S
C4665 C4669 1.376 . S
C4666 C4664 1.394 . S
C4666 C4667 1.369 . S
C4666 C4670 1.531 . S
C4667 C4666 1.369 . S
C4667 C4668 1.410 . S
C4667 C4675 1.503 . S
C4668 C4667 1.410 . S
C4668 C4669 1.392 . S
C4668 C4671 1.511 . S
C4669 C4665 1.376 . S
C4669 C4668 1.392 . S
C4669 H4681 0.929 . S
C4670 C4666 1.531 . S
C4670 H4682 0.960 . S
C4670 H4683 0.962 . S
C4670 H4684 0.960 . S
C4671 C4668 1.511 . S
C4671 H4685 0.961 . S
C4671 H4686 0.961 . S
C4671 H4687 0.961 . S
C4672 C4673 1.370 . S
C4672 C4674 1.363 . S
C4672 H4688 0.931 . S
C4673 C4672 1.370 . S
C4673 C4677 1.408 . S
C4674 C4672 1.363 . S
C4674 C4675 1.370 . S
C4674 C4678 1.524 . S
C4675 C4667 1.503 . S
C4675 C4674 1.370 . S
C4675 C4676 1.403 . S
C4676 C4675 1.403 . S
C4676 C4677 1.404 . S
C4676 C4679 1.539 . S
C4677 C4673 1.408 . S
C4677 C4676 1.404 . S
C4677 H4689 0.930 . S
C4678 C4674 1.524 . S
C4678 H4690 0.956 . S
C4678 H4691 0.961 . S
C4678 H4692 0.961 . S
C4679 C4676 1.539 . S
C4679 H4693 0.958 . S
C4679 H4694 0.961 . S
C4679 H4695 0.960 . S
H4680 C4664 0.931 . S
H4681 C4669 0.929 . S
H4682 C4670 0.960 . S
H4683 C4670 0.962 . S
H4684 C4670 0.960 . S
H4685 C4671 0.961 . S
H4686 C4671 0.961 . S
H4687 C4671 0.961 . S
H4688 C4672 0.931 . S
H4689 C4677 0.930 . S
H4690 C4678 0.956 . S
H4691 C4678 0.961 . S
H4692 C4678 0.961 . S
H4693 C4679 0.958 . S
H4694 C4679 0.961 . S
H4695 C4679 0.960 . S
C4696 C4697 1.391 . S
C4696 C4698 1.394 . S
C4696 H4712 0.931 . S
C4697 C4696 1.391 . S
C4697 C4701 1.376 . S
C4698 C4696 1.394 . S
C4698 C4699 1.369 . S
C4698 C4702 1.531 . S
C4699 C4698 1.369 . S
C4699 C4700 1.410 . S
C4699 C4707 1.503 . S
C4700 C4699 1.410 . S
C4700 C4701 1.392 . S
C4700 C4703 1.511 . S
C4701 C4697 1.376 . S
C4701 C4700 1.392 . S
C4701 H4713 0.929 . S
C4702 C4698 1.531 . S
C4702 H4714 0.960 . S
C4702 H4715 0.962 . S
C4702 H4716 0.960 . S
C4703 C4700 1.511 . S
C4703 H4717 0.961 . S
C4703 H4718 0.961 . S
C4703 H4719 0.961 . S
C4704 C4705 1.370 . S
C4704 C4706 1.363 . S
C4704 H4720 0.931 . S
C4705 C4704 1.370 . S
C4705 C4709 1.408 . S
C4706 C4704 1.363 . S
C4706 C4707 1.370 . S
C4706 C4710 1.524 . S
C4707 C4699 1.503 . S
C4707 C4706 1.370 . S
C4707 C4708 1.403 . S
C4708 C4707 1.403 . S
C4708 C4709 1.404 . S
C4708 C4711 1.539 . S
C4709 C4705 1.408 . S
C4709 C4708 1.404 . S
C4709 H4721 0.930 . S
C4710 C4706 1.524 . S
C4710 H4722 0.956 . S
C4710 H4723 0.961 . S
C4710 H4724 0.961 . S
C4711 C4708 1.539 . S
C4711 H4725 0.958 . S
C4711 H4726 0.961 . S
C4711 H4727 0.960 . S
H4712 C4696 0.931 . S
H4713 C4701 0.929 . S
H4714 C4702 0.960 . S
H4715 C4702 0.962 . S
H4716 C4702 0.960 . S
H4717 C4703 0.961 . S
H4718 C4703 0.961 . S
H4719 C4703 0.961 . S
H4720 C4704 0.931 . S
H4721 C4709 0.930 . S
H4722 C4710 0.956 . S
H4723 C4710 0.961 . S
H4724 C4710 0.961 . S
H4725 C4711 0.958 . S
H4726 C4711 0.961 . S
H4727 C4711 0.960 . S
C1657 C101 2.025 . S
C1665 C368 2.025 . S
C1689 C57 1.776 . S
C1697 C470 1.807 . S
C1721 C70 1.702 . S
C1729 C536 1.699 . S
C1761 C622 1.381 . S
C1753 C82 1.467 . S
C1785 C23 1.486 . S
C1793 C706 1.380 . S
C1825 C788 1.697 . S
C1817 C29 1.698 . S
C1857 C890 1.801 . S
C1849 C49 1.786 . S
C1881 C10 2.035 . S
C1889 C956 2.023 . S
C1921 C386 1.614 . S
C1913 C218 1.625 . S
C1945 C226 0.939 . S
C1953 C454 0.909 . S
C1985 C554 1.133 . S
C1977 C251 1.145 . S
C2017 C620 1.539 . S
C2009 C159 1.555 . S
C2041 C211 1.544 . S
C2049 C704 1.537 . S
C2081 C806 1.158 . S
C2073 C225 1.139 . S
C2113 C874 0.870 . S
C2105 C252 0.944 . S
C2145 C974 1.617 . S
C2137 C166 1.637 . S
C2177 C370 1.050 . S
C2169 C147 1.076 . S
C2201 C263 1.603 . S
C2209 C1058 1.617 . S
C2241 C1126 1.353 . S
C2233 C309 1.402 . S
C2273 C1208 0.727 . S
C2265 C291 0.748 . S
C2297 C108 1.079 . S
C2305 C958 1.037 . S
C2329 C121 1.406 . S
C2337 C538 1.353 . S
C2361 C302 1.588 . S
C2369 C1310 1.610 . S
C2401 C1376 0.730 . S
C2393 C276 0.746 . S
C2433 C379 2.269 1_565 S
C2425 C55 2.236 . S
C2465 C1383 2.090 . S
C2457 C96 2.091 . S
C2489 C88 2.041 . S
C2497 C547 2.046 . S
C2521 C75 1.672 . S
C2529 C1305 1.554 . S
C2561 C717 1.553 . S
C2553 C4 1.658 . S
C2585 C44 2.044 . S
C2593 C1135 2.056 . S
C2625 C879 2.092 1_565 S
C2617 C31 2.097 . S
C2657 C1471 2.269 . S
C2649 C18 2.234 . S
C2689 C375 1.899 1_556 S
C2681 C133 1.921 . S
C2721 C1389 1.058 . S
C2713 C296 1.127 . S
C2745 C107 1.359 . S
C2753 C543 1.348 . S
C2777 C264 1.842 . S
C2785 C1303 1.849 . S
C2809 C140 1.838 . S
C2817 C715 1.850 . S
C2849 C1131 1.361 . S
C2841 C289 1.353 . S
C2873 C114 1.110 . S
C2881 C885 1.044 . S
C2905 C265 1.933 . S
C2913 C1467 1.884 . S
C2937 C179 1.092 . S
C2945 C381 1.051 . S
C2969 C161 1.858 . S
C2977 C1047 1.844 . S
C3001 C244 1.503 . S
C3009 C801 1.401 . S
C3033 C224 1.062 . S
C3041 C1219 1.067 . S
C3073 C1473 1.061 . S
C3065 C257 1.101 . S
C3097 C199 1.517 . S
C3105 C549 1.432 . S
C3137 C627 1.834 . S
C3129 C237 1.851 . S
C3169 C463 1.061 . S
C3161 C185 1.071 . S
C3193 C69 2.032 . S
C3201 C1544 2.026 . S
C3233 C1394 1.812 . S
C3225 C83 1.796 . S
C3257 C94 1.700 . S
C3265 C1628 1.703 . S
C3289 C56 1.482 1_655 S
C3297 C1294 1.379 . S
C3321 C42 1.490 . S
C3329 C1042 1.385 . S
C3361 C1124 1.703 . S
C3353 C3 1.703 . S
C3393 C1226 1.815 . S
C3385 C16 1.801 . S
C3425 C1460 2.031 . S
C3417 C36 2.019 . S
C3457 C1562 1.597 . S
C3449 C238 1.644 . S
C3481 C174 0.888 . S
C3489 C1378 0.914 . S
C3521 C1646 1.157 . S
C3513 C186 1.143 . S
C3553 C1292 1.542 . S
C3545 C198 1.535 . S
C3585 C1040 1.540 . S
C3577 C239 1.544 . S
C3609 C173 1.099 . S
C3617 C1142 1.142 . S
C3649 C1210 0.915 . S
C3641 C187 0.931 . S
C3673 C205 1.640 . S
C3681 C1478 1.616 . S
C3713 C1546 1.051 . S
C3705 C290 1.064 . S
C3737 C122 1.603 . S
C3745 C722 1.618 . S
C3777 C790 1.380 . S
C3769 C134 1.432 1_565 S
C3809 C872 0.734 . S
C3801 C148 0.712 . S
C3841 C1462 1.024 . S
C3833 C283 1.018 . S
C3865 C270 1.410 . S
C3873 C1630 1.351 . S
C3905 C638 1.622 . S
C3897 C135 1.622 . S
C3937 C452 0.736 . S
C3929 C109 0.730 . S
C3961 C81 2.247 . S
C3969 C1555 2.265 . S
C4001 C459 2.094 . S
C3993 C68 2.100 . S
C4025 C62 2.043 . S
C4033 C1639 2.046 . S
C4057 C95 1.658 . S
C4065 C633 1.526 . S
C4089 C30 1.672 . S
C4097 C1053 1.555 . S
C4129 C799 2.044 . S
C4121 C17 2.042 . S
C4153 C5 2.094 . S
C4161 C1215 2.096 . S
C4185 C43 2.229 . S
C4193 C967 2.259 . S
C4225 C1551 1.896 . S
C4217 C304 1.919 . S
C4249 C153 1.120 . S
C4257 C465 1.011 . S
C4289 C1635 1.327 1_656 S
C4281 C278 1.378 . S
C4313 C127 1.841 . S
C4321 C631 1.847 . S
C4345 C303 1.836 . S
C4353 C1051 1.845 . S
C4385 C795 1.360 . S
C4377 C146 1.356 . S
C4409 C277 1.126 . S
C4417 C1221 1.024 . S
C4449 C963 1.884 . S
C4441 C120 1.929 . S
C4481 C1557 1.058 . S
C4473 C231 1.098 . S
C4513 C711 1.843 1_565 S
C4505 C200 1.857 . S
C4537 C212 1.516 . S
C4545 C1137 1.415 . S
C4577 C883 1.063 . S
C4569 C172 1.068 . S
C4601 C192 1.084 . S
C4609 C969 1.039 . S
C4633 C160 1.499 . S
C4641 C1641 1.399 . S
C4673 C1299 1.844 . S
C4665 C213 1.857 . S
C4705 C1387 1.069 . S
C4697 C250 1.054 . S
