# Generated by pormake.
# Topology gar, (4,6)-cn, num edge types: 1
# Building blocks:
#     Node 0, Type 0, BuildingBlock: UXUYUI_clean_sbu_0, # of connection points: 4
#     Node 1, Type 0, BuildingBlock: UXUYUI_clean_sbu_0, # of connection points: 4
#     Node 2, Type 0, BuildingBlock: UXUYUI_clean_sbu_0, # of connection points: 4
#     Node 3, Type 0, BuildingBlock: UXUYUI_clean_sbu_0, # of connection points: 4
#     Node 4, Type 0, BuildingBlock: UXUYUI_clean_sbu_0, # of connection points: 4
#     Node 5, Type 0, BuildingBlock: UXUYUI_clean_sbu_0, # of connection points: 4
#     Node 6, Type 0, BuildingBlock: UXUYUI_clean_sbu_0, # of connection points: 4
#     Node 7, Type 0, BuildingBlock: UXUYUI_clean_sbu_0, # of connection points: 4
#     Node 8, Type 0, BuildingBlock: UXUYUI_clean_sbu_0, # of connection points: 4
#     Node 9, Type 0, BuildingBlock: UXUYUI_clean_sbu_0, # of connection points: 4
#     Node 10, Type 0, BuildingBlock: UXUYUI_clean_sbu_0, # of connection points: 4
#     Node 11, Type 0, BuildingBlock: UXUYUI_clean_sbu_0, # of connection points: 4
#     Node 12, Type 0, BuildingBlock: UXUYUI_clean_sbu_0, # of connection points: 4
#     Node 13, Type 0, BuildingBlock: UXUYUI_clean_sbu_0, # of connection points: 4
#     Node 14, Type 0, BuildingBlock: UXUYUI_clean_sbu_0, # of connection points: 4
#     Node 15, Type 0, BuildingBlock: UXUYUI_clean_sbu_0, # of connection points: 4
#     Node 16, Type 0, BuildingBlock: UXUYUI_clean_sbu_0, # of connection points: 4
#     Node 17, Type 0, BuildingBlock: UXUYUI_clean_sbu_0, # of connection points: 4
#     Node 18, Type 0, BuildingBlock: UXUYUI_clean_sbu_0, # of connection points: 4
#     Node 19, Type 0, BuildingBlock: UXUYUI_clean_sbu_0, # of connection points: 4
#     Node 20, Type 0, BuildingBlock: UXUYUI_clean_sbu_0, # of connection points: 4
#     Node 21, Type 0, BuildingBlock: UXUYUI_clean_sbu_0, # of connection points: 4
#     Node 22, Type 0, BuildingBlock: UXUYUI_clean_sbu_0, # of connection points: 4
#     Node 23, Type 0, BuildingBlock: UXUYUI_clean_sbu_0, # of connection points: 4
#     Node 24, Type 1, BuildingBlock: PAMTOO_clean_sbu_0, # of connection points: 6
#     Node 25, Type 1, BuildingBlock: PAMTOO_clean_sbu_0, # of connection points: 6
#     Node 26, Type 1, BuildingBlock: PAMTOO_clean_sbu_0, # of connection points: 6
#     Node 27, Type 1, BuildingBlock: PAMTOO_clean_sbu_0, # of connection points: 6
#     Node 28, Type 1, BuildingBlock: PAMTOO_clean_sbu_0, # of connection points: 6
#     Node 29, Type 1, BuildingBlock: PAMTOO_clean_sbu_0, # of connection points: 6
#     Node 30, Type 1, BuildingBlock: PAMTOO_clean_sbu_0, # of connection points: 6
#     Node 31, Type 1, BuildingBlock: PAMTOO_clean_sbu_0, # of connection points: 6
#     Node 32, Type 1, BuildingBlock: PAMTOO_clean_sbu_0, # of connection points: 6
#     Node 33, Type 1, BuildingBlock: PAMTOO_clean_sbu_0, # of connection points: 6
#     Node 34, Type 1, BuildingBlock: PAMTOO_clean_sbu_0, # of connection points: 6
#     Node 35, Type 1, BuildingBlock: PAMTOO_clean_sbu_0, # of connection points: 6
#     Node 36, Type 1, BuildingBlock: PAMTOO_clean_sbu_0, # of connection points: 6
#     Node 37, Type 1, BuildingBlock: PAMTOO_clean_sbu_0, # of connection points: 6
#     Node 38, Type 1, BuildingBlock: PAMTOO_clean_sbu_0, # of connection points: 6
#     Node 39, Type 1, BuildingBlock: PAMTOO_clean_sbu_0, # of connection points: 6
#     Edge 40, Type (0, 1), BuildingBlock: XIVTED_clean_linker_0, # of connection points: 2
#     Edge 41, Type (0, 1), BuildingBlock: XIVTED_clean_linker_0, # of connection points: 2
#     Edge 42, Type (0, 1), BuildingBlock: XIVTED_clean_linker_0, # of connection points: 2
#     Edge 43, Type (0, 1), BuildingBlock: XIVTED_clean_linker_0, # of connection points: 2
#     Edge 44, Type (0, 1), BuildingBlock: XIVTED_clean_linker_0, # of connection points: 2
#     Edge 45, Type (0, 1), BuildingBlock: XIVTED_clean_linker_0, # of connection points: 2
#     Edge 46, Type (0, 1), BuildingBlock: XIVTED_clean_linker_0, # of connection points: 2
#     Edge 47, Type (0, 1), BuildingBlock: XIVTED_clean_linker_0, # of connection points: 2
#     Edge 48, Type (0, 1), BuildingBlock: XIVTED_clean_linker_0, # of connection points: 2
#     Edge 49, Type (0, 1), BuildingBlock: XIVTED_clean_linker_0, # of connection points: 2
#     Edge 50, Type (0, 1), BuildingBlock: XIVTED_clean_linker_0, # of connection points: 2
#     Edge 51, Type (0, 1), BuildingBlock: XIVTED_clean_linker_0, # of connection points: 2
#     Edge 52, Type (0, 1), BuildingBlock: XIVTED_clean_linker_0, # of connection points: 2
#     Edge 53, Type (0, 1), BuildingBlock: XIVTED_clean_linker_0, # of connection points: 2
#     Edge 54, Type (0, 1), BuildingBlock: XIVTED_clean_linker_0, # of connection points: 2
#     Edge 55, Type (0, 1), BuildingBlock: XIVTED_clean_linker_0, # of connection points: 2
#     Edge 56, Type (0, 1), BuildingBlock: XIVTED_clean_linker_0, # of connection points: 2
#     Edge 57, Type (0, 1), BuildingBlock: XIVTED_clean_linker_0, # of connection points: 2
#     Edge 58, Type (0, 1), BuildingBlock: XIVTED_clean_linker_0, # of connection points: 2
#     Edge 59, Type (0, 1), BuildingBlock: XIVTED_clean_linker_0, # of connection points: 2
#     Edge 60, Type (0, 1), BuildingBlock: XIVTED_clean_linker_0, # of connection points: 2
#     Edge 61, Type (0, 1), BuildingBlock: XIVTED_clean_linker_0, # of connection points: 2
#     Edge 62, Type (0, 1), BuildingBlock: XIVTED_clean_linker_0, # of connection points: 2
#     Edge 63, Type (0, 1), BuildingBlock: XIVTED_clean_linker_0, # of connection points: 2
#     Edge 64, Type (0, 1), BuildingBlock: XIVTED_clean_linker_0, # of connection points: 2
#     Edge 65, Type (0, 1), BuildingBlock: XIVTED_clean_linker_0, # of connection points: 2
#     Edge 66, Type (0, 1), BuildingBlock: XIVTED_clean_linker_0, # of connection points: 2
#     Edge 67, Type (0, 1), BuildingBlock: XIVTED_clean_linker_0, # of connection points: 2
#     Edge 68, Type (0, 1), BuildingBlock: XIVTED_clean_linker_0, # of connection points: 2
#     Edge 69, Type (0, 1), BuildingBlock: XIVTED_clean_linker_0, # of connection points: 2
#     Edge 70, Type (0, 1), BuildingBlock: XIVTED_clean_linker_0, # of connection points: 2
#     Edge 71, Type (0, 1), BuildingBlock: XIVTED_clean_linker_0, # of connection points: 2
#     Edge 72, Type (0, 1), BuildingBlock: XIVTED_clean_linker_0, # of connection points: 2
#     Edge 73, Type (0, 1), BuildingBlock: XIVTED_clean_linker_0, # of connection points: 2
#     Edge 74, Type (0, 1), BuildingBlock: XIVTED_clean_linker_0, # of connection points: 2
#     Edge 75, Type (0, 1), BuildingBlock: XIVTED_clean_linker_0, # of connection points: 2
#     Edge 76, Type (0, 1), BuildingBlock: XIVTED_clean_linker_0, # of connection points: 2
#     Edge 77, Type (0, 1), BuildingBlock: XIVTED_clean_linker_0, # of connection points: 2
#     Edge 78, Type (0, 1), BuildingBlock: XIVTED_clean_linker_0, # of connection points: 2
#     Edge 79, Type (0, 1), BuildingBlock: XIVTED_clean_linker_0, # of connection points: 2
#     Edge 80, Type (0, 1), BuildingBlock: XIVTED_clean_linker_0, # of connection points: 2
#     Edge 81, Type (0, 1), BuildingBlock: XIVTED_clean_linker_0, # of connection points: 2
#     Edge 82, Type (0, 1), BuildingBlock: XIVTED_clean_linker_0, # of connection points: 2
#     Edge 83, Type (0, 1), BuildingBlock: XIVTED_clean_linker_0, # of connection points: 2
#     Edge 84, Type (0, 1), BuildingBlock: XIVTED_clean_linker_0, # of connection points: 2
#     Edge 85, Type (0, 1), BuildingBlock: XIVTED_clean_linker_0, # of connection points: 2
#     Edge 86, Type (0, 1), BuildingBlock: XIVTED_clean_linker_0, # of connection points: 2
#     Edge 87, Type (0, 1), BuildingBlock: XIVTED_clean_linker_0, # of connection points: 2
#     Edge 88, Type (0, 1), BuildingBlock: XIVTED_clean_linker_0, # of connection points: 2
#     Edge 89, Type (0, 1), BuildingBlock: XIVTED_clean_linker_0, # of connection points: 2
#     Edge 90, Type (0, 1), BuildingBlock: XIVTED_clean_linker_0, # of connection points: 2
#     Edge 91, Type (0, 1), BuildingBlock: XIVTED_clean_linker_0, # of connection points: 2
#     Edge 92, Type (0, 1), BuildingBlock: XIVTED_clean_linker_0, # of connection points: 2
#     Edge 93, Type (0, 1), BuildingBlock: XIVTED_clean_linker_0, # of connection points: 2
#     Edge 94, Type (0, 1), BuildingBlock: XIVTED_clean_linker_0, # of connection points: 2
#     Edge 95, Type (0, 1), BuildingBlock: XIVTED_clean_linker_0, # of connection points: 2
#     Edge 96, Type (0, 1), BuildingBlock: XIVTED_clean_linker_0, # of connection points: 2
#     Edge 97, Type (0, 1), BuildingBlock: XIVTED_clean_linker_0, # of connection points: 2
#     Edge 98, Type (0, 1), BuildingBlock: XIVTED_clean_linker_0, # of connection points: 2
#     Edge 99, Type (0, 1), BuildingBlock: XIVTED_clean_linker_0, # of connection points: 2
#     Edge 100, Type (0, 1), BuildingBlock: XIVTED_clean_linker_0, # of connection points: 2
#     Edge 101, Type (0, 1), BuildingBlock: XIVTED_clean_linker_0, # of connection points: 2
#     Edge 102, Type (0, 1), BuildingBlock: XIVTED_clean_linker_0, # of connection points: 2
#     Edge 103, Type (0, 1), BuildingBlock: XIVTED_clean_linker_0, # of connection points: 2
#     Edge 104, Type (0, 1), BuildingBlock: XIVTED_clean_linker_0, # of connection points: 2
#     Edge 105, Type (0, 1), BuildingBlock: XIVTED_clean_linker_0, # of connection points: 2
#     Edge 106, Type (0, 1), BuildingBlock: XIVTED_clean_linker_0, # of connection points: 2
#     Edge 107, Type (0, 1), BuildingBlock: XIVTED_clean_linker_0, # of connection points: 2
#     Edge 108, Type (0, 1), BuildingBlock: XIVTED_clean_linker_0, # of connection points: 2
#     Edge 109, Type (0, 1), BuildingBlock: XIVTED_clean_linker_0, # of connection points: 2
#     Edge 110, Type (0, 1), BuildingBlock: XIVTED_clean_linker_0, # of connection points: 2
#     Edge 111, Type (0, 1), BuildingBlock: XIVTED_clean_linker_0, # of connection points: 2
#     Edge 112, Type (0, 1), BuildingBlock: XIVTED_clean_linker_0, # of connection points: 2
#     Edge 113, Type (0, 1), BuildingBlock: XIVTED_clean_linker_0, # of connection points: 2
#     Edge 114, Type (0, 1), BuildingBlock: XIVTED_clean_linker_0, # of connection points: 2
#     Edge 115, Type (0, 1), BuildingBlock: XIVTED_clean_linker_0, # of connection points: 2
#     Edge 116, Type (0, 1), BuildingBlock: XIVTED_clean_linker_0, # of connection points: 2
#     Edge 117, Type (0, 1), BuildingBlock: XIVTED_clean_linker_0, # of connection points: 2
#     Edge 118, Type (0, 1), BuildingBlock: XIVTED_clean_linker_0, # of connection points: 2
#     Edge 119, Type (0, 1), BuildingBlock: XIVTED_clean_linker_0, # of connection points: 2
#     Edge 120, Type (0, 1), BuildingBlock: XIVTED_clean_linker_0, # of connection points: 2
#     Edge 121, Type (0, 1), BuildingBlock: XIVTED_clean_linker_0, # of connection points: 2
#     Edge 122, Type (0, 1), BuildingBlock: XIVTED_clean_linker_0, # of connection points: 2
#     Edge 123, Type (0, 1), BuildingBlock: XIVTED_clean_linker_0, # of connection points: 2
#     Edge 124, Type (0, 1), BuildingBlock: XIVTED_clean_linker_0, # of connection points: 2
#     Edge 125, Type (0, 1), BuildingBlock: XIVTED_clean_linker_0, # of connection points: 2
#     Edge 126, Type (0, 1), BuildingBlock: XIVTED_clean_linker_0, # of connection points: 2
#     Edge 127, Type (0, 1), BuildingBlock: XIVTED_clean_linker_0, # of connection points: 2
#     Edge 128, Type (0, 1), BuildingBlock: XIVTED_clean_linker_0, # of connection points: 2
#     Edge 129, Type (0, 1), BuildingBlock: XIVTED_clean_linker_0, # of connection points: 2
#     Edge 130, Type (0, 1), BuildingBlock: XIVTED_clean_linker_0, # of connection points: 2
#     Edge 131, Type (0, 1), BuildingBlock: XIVTED_clean_linker_0, # of connection points: 2
#     Edge 132, Type (0, 1), BuildingBlock: XIVTED_clean_linker_0, # of connection points: 2
#     Edge 133, Type (0, 1), BuildingBlock: XIVTED_clean_linker_0, # of connection points: 2
#     Edge 134, Type (0, 1), BuildingBlock: XIVTED_clean_linker_0, # of connection points: 2
#     Edge 135, Type (0, 1), BuildingBlock: XIVTED_clean_linker_0, # of connection points: 2
# Relax obj value: 0.154
# Max RMSD: 0.254
# Mean RMSD: 0.199
data_MOF--net-gar--node1-UXUYUI_clean_sbu_0--node2-PAMTOO_clean_sbu_0--edge1-XIVTED_clean_linker_0
_symmetry_space_group_name_H-M    P1
_symmetry_Int_Tables_number       1
_symmetry_cell_setting            triclinic
loop_
_symmetry_equiv_pos_as_xyz
'x, y, z'
_cell_length_a     72.602234
_cell_length_b     73.108944
_cell_length_c     71.295827
_cell_angle_alpha  96.471124
_cell_angle_beta   95.886325
_cell_angle_gamma 103.79682
loop_
_atom_site_label
_atom_site_type_symbol
_atom_site_fract_x
_atom_site_fract_y
_atom_site_fract_z
_atom_type_partial_charge
Li0 Li 0.02064 0.29826 0.34743 0.0
Li1 Li 0.0432 0.32062 0.3737 0.0
Li2 Li 0.0571 0.30044 0.34929 0.0
Li3 Li 0.03923 0.28574 0.37417 0.0
C4 C 0.04013 0.32699 0.32806 0.0
N5 N 0.03485 0.33918 0.29307 0.0
C6 C 0.03699 0.345 0.32697 0.0
C7 C 0.04064 0.31522 0.31137 0.0
C8 C 0.03433 0.35089 0.30914 0.0
C9 C 0.03794 0.32163 0.29382 0.0
C10 C 0.00888 0.30886 0.38683 0.0
C11 C 0.99907 0.31592 0.41759 0.0
N12 N 0.98736 0.32585 0.40975 0.0
C13 C 0.99664 0.31903 0.37907 0.0
C14 C 0.01001 0.30719 0.40623 0.0
C15 C 0.98593 0.32755 0.3909 0.0
C16 C 0.98026 0.28271 0.34096 0.0
N17 N 0.99445 0.29446 0.33367 0.0
C18 C 0.97066 0.30331 0.3129 0.0
C19 C 0.9899 0.30455 0.3197 0.0
C20 C 0.95564 0.29175 0.32061 0.0
C21 C 0.96088 0.28119 0.33473 0.0
H22 H 0.98401 0.27508 0.35232 0.0
H23 H 0.00111 0.31406 0.3141 0.0
C24 C 0.05712 0.35114 0.40596 0.0
N25 N 0.04528 0.34516 0.38917 0.0
C26 C 0.05663 0.36781 0.41759 0.0
C27 C 0.03209 0.37221 0.39438 0.0
C28 C 0.03318 0.35558 0.38314 0.0
C29 C 0.04375 0.37854 0.41205 0.0
H30 H 0.06683 0.34288 0.41051 0.0
H31 H 0.02385 0.35065 0.3698 0.0
C32 C 0.03658 0.26381 0.33212 0.0
N33 N 0.04092 0.23651 0.304 0.0
C34 C 0.04771 0.25128 0.33644 0.0
C35 C 0.02736 0.26224 0.3136 0.0
C36 C 0.04982 0.23764 0.32199 0.0
C37 C 0.02981 0.2484 0.29956 0.0
C38 C 0.07392 0.30435 0.39417 0.0
C39 C 0.09228 0.30154 0.3939 0.0
C40 C 0.06608 0.3047 0.41125 0.0
C41 C 0.10237 0.29887 0.41071 0.0
C42 C 0.0766 0.30195 0.42776 0.0
N43 N 0.09438 0.2991 0.42714 0.0
C44 C 0.08695 0.30971 0.32312 0.0
C45 C 0.08989 0.28597 0.34223 0.0
C46 C 0.10383 0.3083 0.31542 0.0
N47 N 0.08015 0.29856 0.33629 0.0
C48 C 0.10698 0.2844 0.33523 0.0
C49 C 0.11433 0.29566 0.32161 0.0
H50 H 0.07959 0.32006 0.31877 0.0
H51 H 0.08463 0.27734 0.35283 0.0
C52 C 0.02075 0.25916 0.39724 0.0
N53 N 0.03726 0.2653 0.38976 0.0
C54 C 0.01868 0.24431 0.40832 0.0
C55 C 0.05056 0.24207 0.4037 0.0
C56 C 0.05203 0.25701 0.39275 0.0
C57 C 0.03368 0.23542 0.4117 0.0
H58 H 0.00909 0.26576 0.39453 0.0
H59 H 0.06496 0.26191 0.38651 0.0
O60 O 0.04252 0.32088 0.34537 0.0
O61 O 0.01964 0.30058 0.37549 0.0
O62 O 0.03439 0.2773 0.34604 0.0
O63 O 0.06361 0.30658 0.37778 0.0
H64 H 0.03662 0.35433 0.33975 0.0
H65 H 0.04324 0.30134 0.312 0.0
H66 H 0.03185 0.36478 0.30808 0.0
H67 H 0.03832 0.31266 0.28079 0.0
H68 H 0.99986 0.31477 0.43263 0.0
H69 H 0.99566 0.32065 0.36415 0.0
H70 H 0.01918 0.29919 0.41249 0.0
H71 H 0.97653 0.33559 0.38509 0.0
H72 H 0.96766 0.31154 0.3018 0.0
H73 H 0.95016 0.27231 0.34154 0.0
H74 H 0.06625 0.37217 0.43083 0.0
H75 H 0.02172 0.37965 0.38943 0.0
H76 H 0.05467 0.2521 0.35077 0.0
H77 H 0.01838 0.27159 0.31013 0.0
H78 H 0.0585 0.22793 0.3251 0.0
H79 H 0.02284 0.24708 0.28513 0.0
H80 H 0.09875 0.30155 0.38091 0.0
H81 H 0.05197 0.30699 0.41171 0.0
H82 H 0.11658 0.29664 0.41069 0.0
H83 H 0.07063 0.30209 0.44105 0.0
H84 H 0.10892 0.31748 0.30514 0.0
H85 H 0.11436 0.27436 0.34044 0.0
H86 H 0.00547 0.23999 0.4143 0.0
H87 H 0.06243 0.23557 0.40554 0.0
Li88 Li 0.01161 0.76623 0.66435 0.0
Li89 Li 0.02747 0.75244 0.68904 0.0
Li90 Li 0.00573 0.73039 0.66386 0.0
Li91 Li 0.99206 0.74984 0.68944 0.0
C92 C 0.03315 0.74761 0.64293 0.0
N93 N 0.04016 0.74281 0.60554 0.0
C94 C 0.05115 0.746 0.63878 0.0
C95 C 0.01867 0.74663 0.62803 0.0
C96 C 0.05442 0.74361 0.61979 0.0
C97 C 0.02251 0.74426 0.60924 0.0
C98 C 0.02672 0.78429 0.70739 0.0
C99 C 0.0382 0.79182 0.74098 0.0
N100 N 0.05378 0.80467 0.73716 0.0
C101 C 0.04279 0.7976 0.70377 0.0
C102 C 0.02434 0.78136 0.72611 0.0
C103 C 0.05633 0.80776 0.71902 0.0
C104 C 0.9987 0.79448 0.64514 0.0
N105 N 0.01399 0.78724 0.64938 0.0
C106 C 0.03336 0.81 0.633 0.0
C107 C 0.03115 0.79478 0.64362 0.0
C108 C 0.01783 0.81785 0.62832 0.0
C109 C 1.00029 0.80978 0.63461 0.0
H110 H 0.98526 0.78848 0.65007 0.0
H111 H 0.04321 0.78898 0.64728 0.0
C112 C 0.05833 0.75101 0.72045 0.0
N113 N 0.05379 0.75609 0.70305 0.0
C114 C 0.07754 0.75233 0.72763 0.0
C115 C 0.08731 0.76498 0.69949 0.0
C116 C 0.06802 0.76338 0.69287 0.0
C117 C 0.09249 0.75919 0.71703 0.0
H118 H 0.04711 0.7457 0.72876 0.0
H119 H 0.06439 0.76776 0.67929 0.0
C120 C 0.96887 0.73775 0.65098 0.0
N121 N 0.93256 0.72064 0.63222 0.0
C122 C 0.9572 0.72252 0.6578 0.0
C123 C 0.96212 0.74426 0.63458 0.0
C124 C 0.93887 0.71407 0.64814 0.0
C125 C 0.94371 0.73541 0.62529 0.0
C126 C 0.01275 0.72154 0.7066 0.0
C127 C 0.02479 0.70943 0.70381 0.0
C128 C 0.00728 0.72525 0.72457 0.0
C129 C 0.03134 0.70135 0.7192 0.0
C130 C 0.01412 0.71687 0.73959 0.0
N131 N 0.02592 0.70521 0.73662 0.0
C132 C 0.02064 0.70139 0.64729 0.0
C133 C 0.98716 0.69411 0.63827 0.0
C134 C 0.02175 0.68468 0.63628 0.0
N135 N 0.00359 0.70599 0.64802 0.0
C136 C 0.98758 0.677 0.6273 0.0
C137 C 0.0051 0.67216 0.62604 0.0
H138 H 0.03352 0.71081 0.65528 0.0
H139 H 0.97371 0.69784 0.63886 0.0
C140 C 0.96472 0.76819 0.70539 0.0
N141 N 0.96879 0.75094 0.70221 0.0
C142 C 0.94763 0.76996 0.71233 0.0
C143 C 0.93891 0.73621 0.71289 0.0
C144 C 0.95634 0.73512 0.7062 0.0
C145 C 0.93401 0.75381 0.71589 0.0
H146 H 0.97464 0.78069 0.70222 0.0
H147 H 0.95962 0.72145 0.7037 0.0
O148 O 0.02967 0.74969 0.66149 0.0
O149 O 0.01373 0.77367 0.69263 0.0
O150 O 0.98672 0.74642 0.66043 0.0
O151 O 0.00603 0.72944 0.69172 0.0
H152 H 0.06246 0.74643 0.65008 0.0
H153 H 0.00463 0.74771 0.63088 0.0
H154 H 0.06828 0.74235 0.61638 0.0
H155 H 0.01145 0.74353 0.59759 0.0
H156 H 0.03661 0.78966 0.75555 0.0
H157 H 0.04487 0.79987 0.6893 0.0
H158 H 0.012 0.77102 0.72909 0.0
H159 H 0.06891 0.81804 0.71645 0.0
H160 H 0.0471 0.8154 0.62835 0.0
H161 H 0.98796 0.81542 0.63176 0.0
H162 H 0.08061 0.74804 0.74141 0.0
H163 H 0.098 0.77025 0.69055 0.0
H164 H 0.96241 0.71708 0.67023 0.0
H165 H 0.971 0.756 0.62908 0.0
H166 H 0.92971 0.70223 0.65324 0.0
H167 H 0.93829 0.7403 0.61259 0.0
H168 H 0.0291 0.70639 0.68996 0.0
H169 H 0.99785 0.7345 0.72689 0.0
H170 H 0.04075 0.69202 0.7173 0.0
H171 H 0.01005 0.71964 0.75361 0.0
H172 H 0.03554 0.68148 0.63596 0.0
H173 H 0.97439 0.66784 0.61956 0.0
H174 H 0.94524 0.78403 0.71479 0.0
H175 H 0.92918 0.72317 0.71513 0.0
Li176 Li 0.51862 0.79962 0.84713 0.0
Li177 Li 0.54127 0.82164 0.87388 0.0
Li178 Li 0.5552 0.80195 0.84907 0.0
Li179 Li 0.53721 0.78697 0.87337 0.0
C180 C 0.53843 0.82989 0.82931 0.0
N181 N 0.53376 0.84527 0.79603 0.0
C182 C 0.53712 0.84871 0.83002 0.0
C183 C 0.53741 0.8189 0.81171 0.0
C184 C 0.53475 0.85622 0.81302 0.0
C185 C 0.53504 0.82693 0.79504 0.0
C186 C 0.50832 0.81047 0.88785 0.0
C187 C 0.50693 0.82473 0.91973 0.0
N188 N 0.49056 0.82937 0.91337 0.0
C189 C 0.49143 0.81532 0.88166 0.0
C190 C 0.51608 0.81514 0.90706 0.0
C191 C 0.48268 0.82488 0.89478 0.0
C192 C 0.47952 0.7796 0.83326 0.0
N193 N 0.49268 0.79633 0.83311 0.0
C194 C 0.46773 0.80953 0.81963 0.0
C195 C 0.48709 0.81114 0.82629 0.0
C196 C 0.45367 0.79255 0.82002 0.0
C197 C 0.46004 0.77739 0.82676 0.0
H198 H 0.48402 0.76814 0.8392 0.0
H199 H 0.49749 0.82454 0.82671 0.0
C200 C 0.55718 0.85395 0.90423 0.0
N201 N 0.54341 0.84638 0.88907 0.0
C202 C 0.55698 0.87087 0.91566 0.0
C203 C 0.52874 0.87222 0.89548 0.0
C204 C 0.52953 0.85537 0.88443 0.0
C205 C 0.54248 0.88024 0.91152 0.0
H206 H 0.56825 0.84679 0.90762 0.0
H207 H 0.51869 0.84916 0.87235 0.0
C208 C 0.5349 0.7672 0.82937 0.0
N209 N 0.53935 0.74394 0.79771 0.0
C210 C 0.54935 0.75754 0.83032 0.0
C211 C 0.52268 0.76499 0.81234 0.0
C212 C 0.55138 0.74585 0.81415 0.0
C213 C 0.52518 0.75319 0.79649 0.0
C214 C 0.57136 0.80005 0.89118 0.0
C215 C 0.58156 0.78683 0.88562 0.0
C216 C 0.5705 0.80502 0.91053 0.0
C217 C 0.59076 0.77883 0.89952 0.0
C218 C 0.57986 0.79667 0.92399 0.0
N219 N 0.58972 0.78386 0.91826 0.0
C220 C 0.59595 0.80931 0.84668 0.0
C221 C 0.57796 0.79412 0.8173 0.0
C222 C 0.61316 0.80831 0.83958 0.0
N223 N 0.57861 0.8019 0.83577 0.0
C224 C 0.59488 0.79287 0.80959 0.0
C225 C 0.61299 0.79979 0.82077 0.0
H226 H 0.5965 0.81568 0.86123 0.0
H227 H 0.5643 0.78849 0.80849 0.0
C228 C 0.52487 0.76608 0.90396 0.0
N229 N 0.53485 0.76614 0.8888 0.0
C230 C 0.52309 0.75129 0.91512 0.0
C231 C 0.54165 0.73657 0.89482 0.0
C232 C 0.54307 0.75165 0.88407 0.0
C233 C 0.53155 0.73619 0.91064 0.0
H234 H 0.5181 0.77743 0.90737 0.0
H235 H 0.55091 0.75181 0.87202 0.0
O236 O 0.54051 0.82222 0.84578 0.0
O237 O 0.5174 0.80156 0.87511 0.0
O238 O 0.53254 0.77861 0.84506 0.0
O239 O 0.56184 0.80766 0.87773 0.0
H240 H 0.53789 0.8574 0.84355 0.0
H241 H 0.53835 0.80432 0.81095 0.0
H242 H 0.53368 0.87076 0.81334 0.0
H243 H 0.53419 0.81857 0.78131 0.0
H244 H 0.51288 0.82855 0.93459 0.0
H245 H 0.48516 0.81187 0.8669 0.0
H246 H 0.5292 0.81166 0.91209 0.0
H247 H 0.46965 0.82877 0.89015 0.0
H248 H 0.46383 0.82162 0.81444 0.0
H249 H 0.44998 0.7641 0.82777 0.0
H250 H 0.56815 0.87655 0.92759 0.0
H251 H 0.51709 0.87857 0.89171 0.0
H252 H 0.55919 0.75937 0.84322 0.0
H253 H 0.51141 0.77235 0.81136 0.0
H254 H 0.56259 0.73841 0.81464 0.0
H255 H 0.51585 0.75138 0.78321 0.0
H256 H 0.58206 0.78248 0.87072 0.0
H257 H 0.5626 0.8151 0.91513 0.0
H258 H 0.59861 0.76851 0.8954 0.0
H259 H 0.57926 0.80035 0.939 0.0
H260 H 0.62645 0.81377 0.84908 0.0
H261 H 0.59366 0.78653 0.79491 0.0
H262 H 0.51487 0.75154 0.92694 0.0
H263 H 0.54865 0.72546 0.89087 0.0
Li264 Li 0.51414 0.26861 0.16551 0.0
Li265 Li 0.53036 0.25587 0.19138 0.0
Li266 Li 0.50944 0.23336 0.16532 0.0
Li267 Li 0.49414 0.25204 0.19025 0.0
C268 C 0.54507 0.25989 0.15178 0.0
N269 N 0.56956 0.27401 0.12664 0.0
C270 C 0.56313 0.27194 0.15864 0.0
C271 C 0.5395 0.25498 0.13215 0.0
C272 C 0.5753 0.27893 0.14569 0.0
C273 C 0.55207 0.26229 0.11967 0.0
C274 C 0.52546 0.28942 0.20866 0.0
C275 C 0.52975 0.30298 0.24173 0.0
N276 N 0.54536 0.31635 0.23879 0.0
C277 C 0.54152 0.3033 0.20594 0.0
C278 C 0.51948 0.28924 0.22667 0.0
C279 C 0.55139 0.31679 0.22136 0.0
C280 C 0.49974 0.29109 0.13948 0.0
N281 N 0.51582 0.28929 0.14995 0.0
C282 C 0.53443 0.31688 0.13901 0.0
C283 C 0.53293 0.30199 0.14999 0.0
C284 C 0.51811 0.31912 0.12796 0.0
C285 C 0.50056 0.30588 0.12836 0.0
H286 H 0.48617 0.28113 0.13987 0.0
H287 H 0.54552 0.30067 0.15859 0.0
C288 C 0.56594 0.24665 0.19684 0.0
N289 N 0.55616 0.25805 0.20575 0.0
C290 C 0.58494 0.24731 0.20376 0.0
C291 C 0.58379 0.27114 0.22948 0.0
C292 C 0.56467 0.26994 0.22209 0.0
C293 C 0.5944 0.25985 0.22021 0.0
H294 H 0.55909 0.23723 0.18391 0.0
H295 H 0.55681 0.27869 0.22938 0.0
C296 C 0.47723 0.23741 0.14597 0.0
N297 N 0.45282 0.21494 0.11529 0.0
C298 C 0.46085 0.22409 0.14894 0.0
C299 C 0.48119 0.23932 0.12742 0.0
C300 C 0.44868 0.21287 0.13323 0.0
C301 C 0.46868 0.22782 0.11209 0.0
C302 C 0.51891 0.22555 0.2072 0.0
C303 C 0.52788 0.21109 0.20235 0.0
C304 C 0.52072 0.23367 0.22621 0.0
C305 C 0.53862 0.20502 0.21668 0.0
C306 C 0.53159 0.22722 0.24012 0.0
N307 N 0.54025 0.21316 0.2351 0.0
C308 C 0.52437 0.2077 0.14247 0.0
C309 C 0.49232 0.19402 0.14647 0.0
C310 C 0.52527 0.19101 0.13129 0.0
N311 N 0.50799 0.20914 0.14957 0.0
C312 C 0.49264 0.17692 0.1354 0.0
C313 C 0.50926 0.17527 0.12747 0.0
H314 H 0.53696 0.21945 0.1457 0.0
H315 H 0.47961 0.19509 0.15272 0.0
C316 C 0.45511 0.2549 0.1902 0.0
N317 N 0.47011 0.25245 0.20198 0.0
C318 C 0.43755 0.25534 0.19676 0.0
C319 C 0.45098 0.25151 0.22789 0.0
C320 C 0.46824 0.25074 0.22061 0.0
C321 C 0.43516 0.25371 0.2159 0.0
H322 H 0.45674 0.25662 0.17555 0.0
H323 H 0.48014 0.24884 0.22995 0.0
O324 O 0.5329 0.25293 0.16422 0.0
O325 O 0.51549 0.27621 0.19373 0.0
O326 O 0.48946 0.24837 0.16117 0.0
O327 O 0.50894 0.23215 0.19331 0.0
H328 H 0.56761 0.27612 0.17377 0.0
H329 H 0.52564 0.24557 0.12661 0.0
H330 H 0.58928 0.28834 0.1508 0.0
H331 H 0.54793 0.25861 0.10444 0.0
H332 H 0.5253 0.303 0.25576 0.0
H333 H 0.54639 0.30356 0.19214 0.0
H334 H 0.50705 0.27863 0.22898 0.0
H335 H 0.56389 0.32758 0.21949 0.0
H336 H 0.54836 0.32643 0.13911 0.0
H337 H 0.48746 0.30709 0.12044 0.0
H338 H 0.5923 0.23842 0.19585 0.0
H339 H 0.59017 0.28081 0.2424 0.0
H340 H 0.4577 0.22226 0.16322 0.0
H341 H 0.49377 0.2496 0.12488 0.0
H342 H 0.43598 0.20245 0.13531 0.0
H343 H 0.47158 0.22914 0.09766 0.0
H344 H 0.52671 0.20477 0.18766 0.0
H345 H 0.51401 0.24501 0.23013 0.0
H346 H 0.54572 0.19391 0.21315 0.0
H347 H 0.53322 0.23344 0.25488 0.0
H348 H 0.53859 0.19036 0.12598 0.0
H349 H 0.47994 0.16519 0.13294 0.0
H350 H 0.42603 0.25736 0.18695 0.0
H351 H 0.44996 0.25011 0.24273 0.0
Li352 Li 0.04857 0.8054 0.09275 0.0
Li353 Li 0.06835 0.79125 0.11689 0.0
Li354 Li 0.04603 0.76987 0.09203 0.0
Li355 Li 0.03287 0.78608 0.11761 0.0
C356 C 0.07139 0.78319 0.07112 0.0
N357 N 0.0749 0.76572 0.03571 0.0
C358 C 0.08404 0.77156 0.06942 0.0
C359 C 0.06059 0.78601 0.05482 0.0
C360 C 0.08559 0.76284 0.05139 0.0
C361 C 0.06256 0.77704 0.03704 0.0
C362 C 0.06364 0.82852 0.12912 0.0
C363 C 0.069 0.85716 0.15148 0.0
N364 N 0.08533 0.86458 0.14421 0.0
C365 C 0.0805 0.83637 0.12192 0.0
C366 C 0.05784 0.83892 0.14405 0.0
C367 C 0.09125 0.85466 0.12971 0.0
C368 C 0.02931 0.83248 0.07753 0.0
N369 N 0.04681 0.8287 0.0806 0.0
C370 C 0.06129 0.8587 0.07042 0.0
C371 C 0.06265 0.84144 0.07692 0.0
C372 C 0.04343 0.86313 0.06733 0.0
C373 C 0.02729 0.84945 0.07082 0.0
H374 H 0.01682 0.82246 0.08068 0.0
H375 H 0.07651 0.83843 0.07936 0.0
C376 C 0.10169 0.77933 0.12779 0.0
N377 N 0.09272 0.79319 0.13266 0.0
C378 C 0.11835 0.77817 0.13892 0.0
C379 C 0.1164 0.80552 0.16016 0.0
C380 C 0.09974 0.80616 0.14858 0.0
C381 C 0.12598 0.79129 0.15549 0.0
H382 H 0.09557 0.76876 0.11549 0.0
H383 H 0.09222 0.81677 0.15263 0.0
C384 C 0.00981 0.77184 0.07799 0.0
N385 N 0.97917 0.74755 0.05431 0.0
C386 C 0.99911 0.75575 0.08437 0.0
C387 C 0.00495 0.77563 0.05961 0.0
C388 C 0.98367 0.74362 0.07217 0.0
C389 C 0.98939 0.76316 0.04785 0.0
C390 C 0.05122 0.76363 0.13761 0.0
C391 C 0.0509 0.74506 0.14084 0.0
C392 C 0.05388 0.77797 0.15311 0.0
C393 C 0.05328 0.74114 0.15954 0.0
C394 C 0.05622 0.77348 0.17159 0.0
N395 N 0.05588 0.75531 0.1744 0.0
C396 C 0.05466 0.7341 0.08673 0.0
C397 C 0.03129 0.7354 0.06169 0.0
C398 C 0.05355 0.71502 0.07993 0.0
N399 N 0.04345 0.74395 0.07784 0.0
C400 C 0.02966 0.7162 0.05442 0.0
C401 C 0.04075 0.70552 0.06365 0.0
H402 H 0.06435 0.74101 0.09945 0.0
H403 H 0.02261 0.74329 0.05451 0.0
C404 C 0.00521 0.79966 0.13727 0.0
N405 N 0.01225 0.78422 0.13324 0.0
C406 C 0.99009 0.79873 0.14821 0.0
C407 C 0.98973 0.76603 0.15077 0.0
C408 C 0.00477 0.76757 0.13971 0.0
C409 C 0.98205 0.78172 0.15517 0.0
H410 H 0.01123 0.8127 0.13182 0.0
H411 H 0.01043 0.75538 0.13625 0.0
O412 O 0.06902 0.79127 0.08865 0.0
O413 O 0.05298 0.8106 0.1218 0.0
O414 O 0.02502 0.78382 0.08965 0.0
O415 O 0.04906 0.76768 0.11936 0.0
H416 H 0.09245 0.76917 0.08189 0.0
H417 H 0.05065 0.79488 0.05592 0.0
H418 H 0.09526 0.75372 0.04986 0.0
H419 H 0.05422 0.77903 0.02431 0.0
H420 H 0.0647 0.86539 0.16305 0.0
H421 H 0.0853 0.82834 0.11056 0.0
H422 H 0.04489 0.83295 0.14986 0.0
H423 H 0.10433 0.86093 0.12428 0.0
H424 H 0.07421 0.86847 0.06778 0.0
H425 H 0.01319 0.85204 0.06895 0.0
H426 H 0.12481 0.76667 0.13485 0.0
H427 H 0.12167 0.81606 0.17268 0.0
H428 H 0.00281 0.75258 0.09852 0.0
H429 H 0.01312 0.78806 0.05449 0.0
H430 H 0.97529 0.73107 0.07687 0.0
H431 H 0.98546 0.76588 0.03357 0.0
H432 H 0.0488 0.73377 0.12902 0.0
H433 H 0.05415 0.79242 0.15095 0.0
H434 H 0.05307 0.72683 0.16224 0.0
H435 H 0.05831 0.78444 0.1837 0.0
H436 H 0.06233 0.70764 0.08782 0.0
H437 H 0.01978 0.70982 0.04166 0.0
H438 H 0.98457 0.81115 0.15086 0.0
H439 H 0.98433 0.75268 0.15595 0.0
Li440 Li 0.4994 0.78094 0.44237 0.0
Li441 Li 0.47614 0.76008 0.41547 0.0
Li442 Li 0.49619 0.74462 0.43993 0.0
Li443 Li 0.51143 0.76358 0.41682 0.0
C444 C 0.46564 0.76461 0.4575 0.0
N445 N 0.44468 0.77489 0.48528 0.0
C446 C 0.45248 0.77528 0.45356 0.0
C447 C 0.46787 0.75883 0.47545 0.0
C448 C 0.4421 0.78044 0.46783 0.0
C449 C 0.45721 0.76426 0.48934 0.0
C450 C 0.50753 0.79931 0.41008 0.0
C451 C 0.51205 0.82436 0.39042 0.0
N452 N 0.52969 0.83229 0.40043 0.0
C453 C 0.52575 0.80764 0.42011 0.0
C454 C 0.50064 0.80767 0.39508 0.0
C455 C 0.53671 0.82435 0.41504 0.0
C456 C 0.51775 0.8172 0.4688 0.0
N457 N 0.50214 0.80705 0.45641 0.0
C458 C 0.48963 0.83488 0.45727 0.0
C459 C 0.48827 0.81568 0.45061 0.0
C460 C 0.50557 0.84583 0.47004 0.0
C461 C 0.51967 0.83649 0.47587 0.0
H462 H 0.52913 0.81061 0.4728 0.0
H463 H 0.47639 0.80786 0.44011 0.0
C464 C 0.43905 0.74377 0.391 0.0
N465 N 0.4522 0.75977 0.39988 0.0
C466 C 0.42256 0.74512 0.37954 0.0
C467 C 0.43341 0.7793 0.38651 0.0
C468 C 0.44949 0.7773 0.39793 0.0
C469 C 0.41963 0.76312 0.37697 0.0
H470 H 0.44143 0.72994 0.39264 0.0
H471 H 0.45993 0.78984 0.40528 0.0
C472 C 0.52852 0.76714 0.46295 0.0
N473 N 0.54502 0.76745 0.49973 0.0
C474 C 0.54586 0.7621 0.46618 0.0
C475 C 0.5196 0.77234 0.47842 0.0
C476 C 0.55396 0.76233 0.48488 0.0
C477 C 0.52816 0.77243 0.4969 0.0
C478 C 0.49541 0.73155 0.39499 0.0
C479 C 0.50826 0.72008 0.39616 0.0
C480 C 0.48857 0.73548 0.37724 0.0
C481 C 0.51418 0.71282 0.37947 0.0
C482 C 0.49481 0.72793 0.36089 0.0
N483 N 0.50739 0.71687 0.36233 0.0
C484 C 0.48201 0.71026 0.45897 0.0
C485 C 0.51365 0.71514 0.45181 0.0
C486 C 0.4831 0.69311 0.46596 0.0
N487 N 0.49717 0.72101 0.45199 0.0
C488 C 0.51534 0.69815 0.45863 0.0
C489 C 0.49994 0.68659 0.46586 0.0
H490 H 0.46889 0.71482 0.45894 0.0
H491 H 0.52552 0.72349 0.44596 0.0
C492 C 0.53024 0.77177 0.38372 0.0
N493 N 0.53188 0.76523 0.4008 0.0
C494 C 0.54503 0.77319 0.37234 0.0
C495 C 0.56289 0.76082 0.39606 0.0
C496 C 0.54777 0.75966 0.407 0.0
C497 C 0.56176 0.76776 0.37845 0.0
H498 H 0.51743 0.77592 0.3789 0.0
H499 H 0.54866 0.75419 0.42042 0.0
O500 O 0.47594 0.75941 0.44372 0.0
O501 O 0.49661 0.78287 0.41473 0.0
O502 O 0.52014 0.76651 0.44471 0.0
O503 O 0.48996 0.73935 0.41118 0.0
H504 H 0.4503 0.77955 0.43963 0.0
H505 H 0.47775 0.75026 0.47863 0.0
H506 H 0.43195 0.78882 0.46501 0.0
H507 H 0.45889 0.75999 0.50333 0.0
H508 H 0.5069 0.83098 0.37884 0.0
H509 H 0.53138 0.80125 0.43164 0.0
H510 H 0.48667 0.80127 0.38701 0.0
H511 H 0.55081 0.83098 0.42269 0.0
H512 H 0.47853 0.84122 0.45178 0.0
H513 H 0.53224 0.84402 0.48573 0.0
H514 H 0.41242 0.73223 0.37242 0.0
H515 H 0.43171 0.79346 0.38529 0.0
H516 H 0.55295 0.75794 0.4544 0.0
H517 H 0.50632 0.77645 0.4762 0.0
H518 H 0.56735 0.75842 0.48758 0.0
H519 H 0.52141 0.77648 0.509 0.0
H520 H 0.51377 0.71702 0.40981 0.0
H521 H 0.47873 0.74447 0.37614 0.0
H522 H 0.52421 0.70402 0.38015 0.0
H523 H 0.48972 0.73093 0.34705 0.0
H524 H 0.47079 0.6851 0.47148 0.0
H525 H 0.52856 0.69393 0.45773 0.0
H526 H 0.54344 0.77878 0.359 0.0
H527 H 0.57524 0.75607 0.4013 0.0
Li528 Li 0.55055 0.30831 0.59243 0.0
Li529 Li 0.57004 0.29361 0.61735 0.0
Li530 Li 0.54733 0.2722 0.5911 0.0
Li531 Li 0.53433 0.28836 0.61747 0.0
C532 C 0.57792 0.28491 0.57468 0.0
N533 N 0.59125 0.26584 0.54547 0.0
C534 C 0.59302 0.27654 0.57867 0.0
C535 C 0.56968 0.28372 0.55585 0.0
C536 C 0.59954 0.26693 0.5637 0.0
C537 C 0.57661 0.27398 0.54127 0.0
C538 C 0.56377 0.32593 0.63692 0.0
C539 C 0.57221 0.33454 0.67091 0.0
N540 N 0.58308 0.3517 0.66815 0.0
C541 C 0.57494 0.34367 0.6344 0.0
C542 C 0.5623 0.32133 0.6553 0.0
C543 C 0.58462 0.3565 0.65038 0.0
C544 C 0.53184 0.33493 0.57511 0.0
N545 N 0.54933 0.33177 0.58029 0.0
C546 C 0.56449 0.36247 0.57195 0.0
C547 C 0.56552 0.34521 0.57866 0.0
C548 C 0.54662 0.36626 0.56665 0.0
C549 C 0.53017 0.35191 0.5682 0.0
H550 H 0.51904 0.32439 0.57671 0.0
H551 H 0.57936 0.34275 0.58294 0.0
C552 C 0.59708 0.27801 0.637 0.0
N553 N 0.59434 0.29512 0.63329 0.0
C554 C 0.61357 0.27691 0.64842 0.0
C555 C 0.62486 0.31103 0.65159 0.0
C556 C 0.60796 0.31151 0.64021 0.0
C557 C 0.6278 0.29354 0.65603 0.0
H558 H 0.58643 0.26508 0.63101 0.0
H559 H 0.6058 0.32498 0.63693 0.0
C560 C 0.51247 0.27722 0.57501 0.0
N561 N 0.48364 0.25832 0.54613 0.0
C562 C 0.49739 0.26281 0.57874 0.0
C563 C 0.51287 0.2821 0.55664 0.0
C564 C 0.48295 0.25341 0.56393 0.0
C565 C 0.49816 0.27235 0.54221 0.0
C566 C 0.54534 0.25764 0.63082 0.0
C567 C 0.53392 0.2393 0.62422 0.0
C568 C 0.55153 0.26309 0.65031 0.0
C569 C 0.52874 0.22674 0.63728 0.0
C570 C 0.54604 0.25012 0.66292 0.0
N571 N 0.53485 0.23237 0.6562 0.0
C572 C 0.55844 0.23761 0.5834 0.0
C573 C 0.53078 0.23677 0.56247 0.0
C574 C 0.55771 0.21868 0.5763 0.0
N575 N 0.54505 0.24639 0.57661 0.0
C576 C 0.52935 0.21764 0.55515 0.0
C577 C 0.54285 0.20817 0.56214 0.0
H578 H 0.56948 0.24518 0.59487 0.0
H579 H 0.5202 0.24367 0.55704 0.0
C580 C 0.5107 0.30259 0.64256 0.0
N581 N 0.5137 0.2864 0.63337 0.0
C582 C 0.49586 0.30172 0.65386 0.0
C583 C 0.48732 0.26755 0.64612 0.0
C584 C 0.50221 0.26908 0.63487 0.0
C585 C 0.4839 0.284 0.65585 0.0
H586 H 0.51982 0.31625 0.64109 0.0
H587 H 0.50441 0.25639 0.62714 0.0
O588 O 0.57096 0.29388 0.58917 0.0
O589 O 0.55436 0.31311 0.62146 0.0
O590 O 0.52663 0.2867 0.58933 0.0
O591 O 0.55056 0.27014 0.61825 0.0
H592 H 0.59949 0.27732 0.59321 0.0
H593 H 0.55798 0.29013 0.55256 0.0
H594 H 0.61114 0.26028 0.56657 0.0
H595 H 0.57031 0.27285 0.52663 0.0
H596 H 0.57124 0.33116 0.68522 0.0
H597 H 0.57622 0.34743 0.62026 0.0
H598 H 0.55356 0.30773 0.65747 0.0
H599 H 0.59338 0.37026 0.64866 0.0
H600 H 0.57768 0.37274 0.5709 0.0
H601 H 0.51602 0.35396 0.56466 0.0
H602 H 0.61526 0.26306 0.65104 0.0
H603 H 0.63537 0.32425 0.6571 0.0
H604 H 0.49689 0.25887 0.59289 0.0
H605 H 0.5244 0.29331 0.55357 0.0
H606 H 0.47121 0.24218 0.56659 0.0
H607 H 0.49829 0.27594 0.52791 0.0
H608 H 0.52889 0.23488 0.6092 0.0
H609 H 0.56054 0.27715 0.65563 0.0
H610 H 0.51983 0.21254 0.63239 0.0
H611 H 0.55071 0.25415 0.67804 0.0
H612 H 0.56836 0.21212 0.5824 0.0
H613 H 0.5177 0.21033 0.54412 0.0
H614 H 0.49392 0.31481 0.66115 0.0
H615 H 0.47833 0.25358 0.64687 0.0
Li616 Li 0.9981 0.27855 0.94308 0.0
Li617 Li 0.97647 0.25622 0.91616 0.0
Li618 Li 0.99584 0.24191 0.94096 0.0
Li619 Li 0.01147 0.26032 0.91659 0.0
C620 C 0.96874 0.25866 0.96167 0.0
N621 N 0.95586 0.26307 -0.00337 0.0
C622 C 0.95137 0.26348 0.96303 0.0
C623 C 0.97948 0.25594 0.97805 0.0
C624 C 0.94512 0.26568 0.98085 0.0
C625 C 0.97276 0.25828 -0.00439 0.0
C626 C 0.98781 0.28892 0.90265 0.0
C627 C 0.97716 0.29264 0.87044 0.0
N628 N 0.9689 0.30642 0.87728 0.0
C629 C 0.97924 0.30315 0.90935 0.0
C630 C 0.98682 0.28366 0.88303 0.0
C631 C 0.96975 0.31182 0.8963 0.0
C632 C 0.01471 0.31855 0.95069 0.0
N633 N 0.00191 0.30468 0.95724 0.0
C634 C 0.99311 0.32877 0.97797 0.0
C635 C 0.9913 0.30951 0.97083 0.0
C636 C 0.00589 0.3435 0.97108 0.0
C637 C 0.01687 0.33791 0.95731 0.0
H638 H 0.02279 0.31462 0.93965 0.0
H639 H 0.98105 0.29852 0.9759 0.0
C640 C 0.94674 0.24301 0.88296 0.0
N641 N 0.95216 0.25445 0.90006 0.0
C642 C 0.93064 0.24408 0.87076 0.0
C643 C 0.92556 0.26826 0.89409 0.0
C644 C 0.94168 0.26669 0.90584 0.0
C645 C 0.91986 0.25705 0.87608 0.0
H646 H 0.95509 0.23329 0.87856 0.0
H647 H 0.94629 0.27587 0.91933 0.0
C648 C 0.03232 0.26502 0.96 0.0
N649 N 0.0592 0.26602 0.99072 0.0
C650 C 0.04689 0.25576 0.95785 0.0
C651 C 0.03151 0.27494 0.97772 0.0
C652 C 0.06033 0.2564 0.97357 0.0
C653 C 0.0452 0.27523 0.99309 0.0
C654 C 0.99726 0.2253 0.89858 0.0
C655 C 0.00646 0.21143 0.90355 0.0
C656 C 0.99519 0.22859 0.87964 0.0
C657 C 0.01342 0.20107 0.88946 0.0
C658 C 0.00238 0.21797 0.86597 0.0
N659 N 0.01126 0.20454 0.87112 0.0
C660 C 0.98409 0.20154 0.94571 0.0
C661 C 0.0094 0.21867 0.9692 0.0
C662 C 0.98503 0.18425 0.9524 0.0
N663 N 0.99637 0.21844 0.95386 0.0
C664 C 0.01085 0.20171 0.97631 0.0
C665 C 0.99876 0.18394 0.96781 0.0
H666 H 0.97385 0.20131 0.93348 0.0
H667 H 0.01895 0.23198 0.97594 0.0
C668 C 0.03632 0.27722 0.89076 0.0
N669 N 0.03273 0.26275 0.90142 0.0
C670 C 0.05143 0.27937 0.87975 0.0
C671 C 0.05927 0.25193 0.89103 0.0
C672 C 0.044 0.2503 0.90181 0.0
C673 C 0.06324 0.26663 0.87972 0.0
H674 H 0.02749 0.28721 0.89085 0.0
H675 H 0.04122 0.23909 0.91057 0.0
O676 O 0.97515 0.25656 0.94439 0.0
O677 O 0.99672 0.27988 0.91521 0.0
O678 O 0.01904 0.26461 0.94481 0.0
O679 O 0.99059 0.23578 0.91222 0.0
H680 H 0.94281 0.26554 0.95048 0.0
H681 H 0.99288 0.25208 0.97722 0.0
H682 H 0.93173 0.26946 0.98213 0.0
H683 H 0.98097 0.25627 0.00841 0.0
H684 H 0.9762 0.28863 0.85523 0.0
H685 H 0.97957 0.30723 0.92446 0.0
H686 H 0.9933 0.27266 0.87757 0.0
H687 H 0.96296 0.32276 0.9013 0.0
H688 H 0.98446 0.33201 0.98874 0.0
H689 H 0.02666 0.34839 0.95109 0.0
H690 H 0.92676 0.23484 0.85724 0.0
H691 H 0.91806 0.27869 0.89887 0.0
H692 H 0.04772 0.24802 0.94426 0.0
H693 H 0.0204 0.2823 0.97959 0.0
H694 H 0.07163 0.24921 0.97215 0.0
H695 H 0.04471 0.28278 0.0069 0.0
H696 H 0.00854 0.2089 0.91816 0.0
H697 H 0.98828 0.23936 0.87554 0.0
H698 H 0.02064 0.19036 0.89313 0.0
H699 H 0.00093 0.22044 0.85128 0.0
H700 H 0.9754 0.17116 0.94507 0.0
H701 H 0.02144 0.20261 0.98845 0.0
H702 H 0.05369 0.29084 0.8712 0.0
H703 H 0.06808 0.24193 0.89186 0.0
Li704 Li 0.39375 0.02431 0.29961 0.0
Li705 Li 0.36477 0.00849 0.27883 0.0
Li706 Li 0.39298 0.02101 0.26459 0.0
Li707 Li 0.37657 0.04127 0.28143 0.0
C708 C 0.40284 0.99127 0.27949 0.0
N709 N 0.43126 0.97231 0.27594 0.0
C710 C 0.39808 0.97145 0.27515 0.0
C711 C 0.42206 0.00146 0.28198 0.0
C712 C 0.41266 0.96213 0.27345 0.0
C713 C 0.43621 0.99161 0.28012 0.0
C714 C 0.36107 0.0179 0.31667 0.0
C715 C 0.34445 0.01652 0.3443 0.0
N716 N 0.34778 -0.00077 0.34615 0.0
C717 C 0.36434 0.0001 0.31887 0.0
C718 C 0.35106 0.02617 0.3295 0.0
C719 C 0.3575 0.99091 0.33385 0.0
C720 C 0.41207 0.04053 0.3361 0.0
N721 N 0.40852 0.02459 0.32315 0.0
C722 C 0.42693 0.01027 0.3439 0.0
C723 C 0.41511 0.00934 0.32701 0.0
C724 C 0.43141 0.02678 0.35739 0.0
C725 C 0.42345 0.04192 0.35344 0.0
H726 H 0.40594 0.05212 0.33296 0.0
H727 H 0.41131 -0.0036 0.31705 0.0
C728 C 0.34448 0.97299 0.26192 0.0
N729 N 0.34308 0.98778 0.27451 0.0
C730 C 0.33017 0.95612 0.2588 0.0
C731 C 0.31271 0.97043 0.28094 0.0
C732 C 0.32735 0.98714 0.2835 0.0
C733 C 0.31432 0.95451 0.26882 0.0
H734 H 0.35707 0.97415 0.25479 0.0
H735 H 0.32645 -0.00064 0.29308 0.0
C736 C 0.41065 0.06238 0.28137 0.0
N737 N 0.42121 0.10016 0.27617 0.0
C738 C 0.41006 0.06735 0.26299 0.0
C739 C 0.41666 0.07663 0.2971 0.0
C740 C 0.41544 0.08653 0.26066 0.0
C741 C 0.42192 0.09565 0.29417 0.0
C742 C 0.34897 0.01869 0.24817 0.0
C743 C 0.34492 0.00751 0.2303 0.0
C744 C 0.33419 0.02416 0.2566 0.0
C745 C 0.32609 0.00193 0.22115 0.0
C746 C 0.31555 0.01829 0.24699 0.0
N747 N 0.31192 0.00739 0.22961 0.0
C748 C 0.39817 -0.00083 0.2324 0.0
C749 C 0.42448 0.02571 0.24377 0.0
C750 C 0.40819 0.99265 0.21855 0.0
N751 N 0.40643 0.0154 0.24458 0.0
C752 C 0.43501 0.01976 0.2301 0.0
C753 C 0.42691 0.00294 0.21737 0.0
H754 H 0.38402 0.99097 0.23392 0.0
H755 H 0.43087 0.03823 0.25408 0.0
C756 C 0.36429 0.0726 0.29712 0.0
N757 N 0.36861 0.06375 0.28098 0.0
C758 C 0.35502 0.08718 0.29607 0.0
C759 C 0.35577 0.08368 0.262 0.0
C760 C 0.36494 0.06919 0.2637 0.0
C761 C 0.35021 0.0925 0.27824 0.0
H762 H 0.36728 0.06774 0.31061 0.0
H763 H 0.36828 0.06159 0.25111 0.0
O764 O 0.38872 0.00066 0.28083 0.0
O765 O 0.36752 0.02733 0.30213 0.0
O766 O 0.40512 0.04368 0.28391 0.0
O767 O 0.36723 0.02389 0.25756 0.0
H768 H 0.38329 0.96335 0.27316 0.0
H769 H 0.426 0.01681 0.28531 0.0
H770 H 0.40919 0.94679 0.27013 0.0
H771 H 0.45113 -0.00069 0.282 0.0
H772 H 0.33666 0.02277 0.35431 0.0
H773 H 0.37197 0.99335 0.30913 0.0
H774 H 0.34839 0.03992 0.32801 0.0
H775 H 0.3599 0.97713 0.33568 0.0
H776 H 0.43269 -0.00179 0.34612 0.0
H777 H 0.42588 0.05469 0.36361 0.0
H778 H 0.33211 0.94412 0.24953 0.0
H779 H 0.30061 0.96974 0.28879 0.0
H780 H 0.40516 0.05652 0.25065 0.0
H781 H 0.41723 0.07307 0.31141 0.0
H782 H 0.41494 0.09057 0.24652 0.0
H783 H 0.42657 0.10682 0.30622 0.0
H784 H 0.35618 0.00314 0.22358 0.0
H785 H 0.33702 0.03257 0.27056 0.0
H786 H 0.32273 0.99324 0.20732 0.0
H787 H 0.30397 0.02234 0.25339 0.0
H788 H 0.40155 0.97945 0.20924 0.0
H789 H 0.44935 0.0282 0.22955 0.0
H790 H 0.3511 0.09377 0.30893 0.0
H791 H 0.35205 0.08711 0.24794 0.0
Li792 Li 0.2729 0.19869 0.52755 0.0
Li793 Li 0.28788 0.17503 0.51246 0.0
Li794 Li 0.27384 0.19738 0.4925 0.0
Li795 Li 0.25258 0.17077 0.50703 0.0
C796 C 0.31004 0.21757 0.52414 0.0
N797 N 0.33852 0.24629 0.54585 0.0
C798 C 0.3201 0.21395 0.5405 0.0
C799 C 0.31449 0.23573 0.51873 0.0
C800 C 0.33443 0.22868 0.55132 0.0
C801 C 0.32894 0.25008 0.52992 0.0
C802 C 0.26925 0.15701 0.54075 0.0
C803 C 0.26328 0.12327 0.54173 0.0
N804 N 0.26957 0.12682 0.56074 0.0
C805 C 0.27556 0.16034 0.56031 0.0
C806 C 0.26298 0.13834 0.53138 0.0
C807 C 0.27565 0.14488 0.57016 0.0
C808 C 0.25957 0.20447 0.56272 0.0
N809 N 0.27252 0.21364 0.55218 0.0
C810 C 0.28363 0.23956 0.57785 0.0
C811 C 0.28416 0.23114 0.55925 0.0
C812 C 0.27069 0.23013 0.58919 0.0
C813 C 0.25833 0.21249 0.58119 0.0
H814 H 0.25034 0.19065 0.55686 0.0
H815 H 0.29406 0.23854 0.55067 0.0
C816 C 0.31396 0.15498 0.4985 0.0
N817 N 0.3077 0.1616 0.51464 0.0
C818 C 0.32747 0.14416 0.49941 0.0
C819 C 0.32818 0.14746 0.53357 0.0
C820 C 0.31479 0.15834 0.53201 0.0
C821 C 0.33459 0.14004 0.51712 0.0
H822 H 0.30821 0.15786 0.48485 0.0
H823 H 0.30998 0.16406 0.5447 0.0
C824 C 0.24526 0.21257 0.51481 0.0
N825 N 0.23381 0.24255 0.53297 0.0
C826 C 0.22965 0.20905 0.52502 0.0
C827 C 0.25499 0.23129 0.51373 0.0
C828 C 0.2241 0.22442 0.53413 0.0
C829 C 0.24899 0.24626 0.52304 0.0
C830 C 0.26397 0.15421 0.47335 0.0
C831 C 0.25514 0.15724 0.45601 0.0
C832 C 0.26608 0.13606 0.47568 0.0
C833 C 0.24833 0.14196 0.44136 0.0
C834 C 0.25906 0.12115 0.46069 0.0
N835 N 0.25039 0.12438 0.44399 0.0
C836 C 0.29346 0.21377 0.46292 0.0
C837 C 0.2603 0.21196 0.45945 0.0
C838 C 0.29504 0.22051 0.44531 0.0
N839 N 0.27624 0.20948 0.46956 0.0
C840 C 0.26119 0.21852 0.44171 0.0
C841 C 0.2787 0.2227 0.43422 0.0
H842 H 0.30593 0.21148 0.47107 0.0
H843 H 0.24672 0.20833 0.4649 0.0
C844 C 0.22089 0.1515 0.52169 0.0
N845 N 0.22822 0.15255 0.50494 0.0
C846 C 0.2033 0.13894 0.52253 0.0
C847 C 0.20088 0.1286 0.48879 0.0
C848 C 0.2186 0.14144 0.4886 0.0
C849 C 0.19294 0.12733 0.50592 0.0
H850 H 0.22876 0.16049 0.53448 0.0
H851 H 0.22447 0.14261 0.47536 0.0
O852 O 0.29602 0.20337 0.51333 0.0
O853 O 0.26918 0.17201 0.5309 0.0
O854 O 0.25137 0.19778 0.50639 0.0
O855 O 0.2708 0.16903 0.48781 0.0
H856 H 0.31675 0.19997 0.54487 0.0
H857 H 0.30682 0.23871 0.50606 0.0
H858 H 0.34229 0.22613 0.56408 0.0
H859 H 0.33253 0.26423 0.52595 0.0
H860 H 0.25848 0.10874 0.53465 0.0
H861 H 0.28052 0.17472 0.56776 0.0
H862 H 0.25784 0.13552 0.51631 0.0
H863 H 0.28059 0.14724 0.58528 0.0
H864 H 0.29327 0.25331 0.58331 0.0
H865 H 0.24821 0.20461 0.58936 0.0
H866 H 0.33192 0.13867 0.48634 0.0
H867 H 0.33353 0.14496 0.54755 0.0
H868 H 0.22205 0.19462 0.52605 0.0
H869 H 0.26719 0.23419 0.50597 0.0
H870 H 0.21211 0.22194 0.54218 0.0
H871 H 0.25645 0.26083 0.52243 0.0
H872 H 0.25344 0.17119 0.45394 0.0
H873 H 0.27316 0.13351 0.48887 0.0
H874 H 0.24138 0.14407 0.4279 0.0
H875 H 0.26055 0.10702 0.46231 0.0
H876 H 0.30881 0.22333 0.44015 0.0
H877 H 0.24824 0.22019 0.4339 0.0
H878 H 0.19792 0.1383 0.53612 0.0
H879 H 0.1933 0.12011 0.47559 0.0
Li880 Li 0.13418 0.05128 0.7835 0.0
Li881 Li 0.10993 0.03124 0.79801 0.0
Li882 Li 0.13194 0.0171 0.77929 0.0
Li883 Li 0.10722 0.03121 0.76251 0.0
C884 C 0.1447 0.04555 0.821 0.0
N885 N 0.15706 0.066 0.85693 0.0
C886 C 0.13875 0.06201 0.82627 0.0
C887 C 0.15691 0.03948 0.83398 0.0
C888 C 0.14516 0.07215 0.84451 0.0
C889 C 0.16301 0.05003 0.85208 0.0
C890 C 0.08877 0.05446 0.78272 0.0
C891 C 0.05511 0.04125 0.7835 0.0
N892 N 0.05193 0.05872 0.78244 0.0
C893 C 0.08517 0.07229 0.78169 0.0
C894 C 0.07363 0.0388 0.78365 0.0
C895 C 0.06644 0.07415 0.78153 0.0
C896 C 0.14504 0.08918 0.7772 0.0
N897 N 0.15172 0.07597 0.78585 0.0
C898 C 0.18236 0.09804 0.79526 0.0
C899 C 0.16999 0.08001 0.79481 0.0
C900 C 0.17585 0.11202 0.7864 0.0
C901 C 0.15688 0.10729 0.77724 0.0
H902 H 0.13054 0.08549 0.76993 0.0
H903 H 0.17502 0.06918 0.80143 0.0
C904 C 0.09944 0.01368 0.83054 0.0
N905 N 0.09818 0.02886 0.82149 0.0
C906 C 0.09318 0.01212 0.84843 0.0
C907 C 0.08412 0.04168 0.84736 0.0
C908 C 0.09081 0.04283 0.82964 0.0
C909 C 0.08538 0.02625 0.85714 0.0
H910 H 0.10571 0.00294 0.82404 0.0
H911 H 0.09054 0.05516 0.82268 0.0
C912 C 0.14906 0.04525 0.75232 0.0
N913 N 0.17868 0.06876 0.73838 0.0
C914 C 0.14514 0.0571 0.7392 0.0
C915 C 0.16801 0.0453 0.75833 0.0
C916 C 0.16033 0.0689 0.73232 0.0
C917 C 0.18279 0.0573 0.75112 0.0
C918 C 0.09291 0.99278 0.76566 0.0
C919 C 0.10067 0.98551 0.75021 0.0
C920 C 0.07446 0.98377 0.76882 0.0
C921 C 0.0898 0.96935 0.73809 0.0
C922 C 0.06404 0.96762 0.75639 0.0
N923 N 0.07186 0.96081 0.74141 0.0
C924 C 0.14641 0.98708 0.79215 0.0
C925 C 0.1541 0.99422 0.76187 0.0
C926 C 0.15647 0.97292 0.7914 0.0
N927 N 0.14546 -0.00258 0.77754 0.0
C928 C 0.16439 0.98029 0.76057 0.0
C929 C 0.16576 0.96942 0.77549 0.0
H930 H 0.13945 0.98993 0.80447 0.0
H931 H 0.15301 0.0025 0.75035 0.0
C932 C 0.07689 0.03654 0.73393 0.0
N933 N 0.0923 0.02919 0.73735 0.0
C934 C 0.06859 0.03637 0.71518 0.0
C935 C 0.09194 0.02098 0.70368 0.0
C936 C 0.09975 0.02142 0.72258 0.0
C937 C 0.07618 0.02865 0.69964 0.0
H938 H 0.07117 0.04297 0.74559 0.0
H939 H 0.11225 0.01606 0.72542 0.0
O940 O 0.13841 0.03521 0.80333 0.0
O941 O 0.10709 0.05257 0.78307 0.0
O942 O 0.13443 0.034 0.75963 0.0
O943 O 0.1032 0.00874 0.77754 0.0
H944 H 0.12924 0.06688 0.81644 0.0
H945 H 0.16157 0.02672 0.83011 0.0
H946 H 0.14066 0.08489 0.8488 0.0
H947 H 0.17246 0.04549 0.86229 0.0
H948 H 0.04328 0.02925 0.78423 0.0
H949 H 0.09674 0.08457 0.78103 0.0
H950 H 0.0761 0.02493 0.78456 0.0
H951 H 0.06345 0.08786 0.78071 0.0
H952 H 0.19679 0.10103 0.8026 0.0
H953 H 0.15128 0.11736 0.76984 0.0
H954 H 0.09439 -7e-05 0.85534 0.0
H955 H 0.07853 0.05308 0.85361 0.0
H956 H 0.13055 0.05736 0.73456 0.0
H957 H 0.17128 0.03639 0.76869 0.0
H958 H 0.15753 0.07822 0.72223 0.0
H959 H 0.19754 0.05758 0.75572 0.0
H960 H 0.11487 0.99238 0.74749 0.0
H961 H 0.06826 0.9892 0.78075 0.0
H962 H 0.09561 0.96361 0.72603 0.0
H963 H 0.04974 0.96051 0.75865 0.0
H964 H 0.15727 0.96506 0.80332 0.0
H965 H 0.17104 0.97794 0.7479 0.0
H966 H 0.05636 0.0423 0.71293 0.0
H967 H 0.09867 0.01521 0.69235 0.0
Li968 Li 0.25208 0.92197 -0.00374 0.0
Li969 Li 0.26569 0.89836 0.01161 0.0
Li970 Li 0.28404 0.92045 0.99509 0.0
Li971 Li 0.26006 0.89495 0.97721 0.0
C972 C 0.28511 0.94228 0.02739 0.0
N973 N 0.31184 0.97465 0.0455 0.0
C974 C 0.29932 0.94093 0.04158 0.0
C975 C 0.28441 0.96013 0.02253 0.0
C976 C 0.31275 0.95745 0.05051 0.0
C977 C 0.29806 0.97632 0.03185 0.0
C978 C 0.22518 0.8901 0.00502 0.0
C979 C 0.19393 0.87132 0.00867 0.0
N980 N 0.19447 0.88258 0.02536 0.0
C981 C 0.22547 0.90143 0.02226 0.0
C982 C 0.20932 0.87488 -0.00182 0.0
C983 C 0.20978 0.89743 0.0323 0.0
C984 C 0.22594 0.94026 0.98033 0.0
N985 N 0.23544 0.93813 -0.00296 0.0
C986 C 0.22386 0.96208 0.01407 0.0
C987 C 0.23443 0.94849 0.01378 0.0
C988 C 0.21431 0.96504 -0.00304 0.0
C989 C 0.21521 0.95374 0.97995 0.0
H990 H 0.2272 0.93189 0.96723 0.0
H991 H 0.24227 0.94658 0.02683 0.0
C992 C 0.28672 0.88625 0.03886 0.0
N993 N 0.26811 0.8847 0.03226 0.0
C994 C 0.29143 0.87561 0.05272 0.0
C995 C 0.25766 0.86192 0.05288 0.0
C996 C 0.2536 0.87274 0.03882 0.0
C997 C 0.27681 0.86323 0.05993 0.0
H998 H 0.29794 0.89531 0.0328 0.0
H999 H 0.23894 0.87117 0.0329 0.0
C1000 C 0.27561 0.93312 0.96225 0.0
N1001 N 0.29692 0.95593 0.93975 0.0
C1002 C 0.28895 0.92654 0.95235 0.0
C1003 C 0.27299 0.95123 0.9606 0.0
C1004 C 0.29963 0.93832 0.9411 0.0
C1005 C 0.28392 0.96256 0.94916 0.0
C1006 C 0.28331 0.87443 0.99206 0.0
C1007 C 0.30032 0.86906 0.99002 0.0
C1008 C 0.26651 0.86043 0.99259 0.0
C1009 C 0.30027 0.84984 0.98862 0.0
C1010 C 0.26705 0.84136 0.99116 0.0
N1011 N 0.28378 0.8365 0.98922 0.0
C1012 C 0.32319 0.92643 0.00246 0.0
C1013 C 0.31443 0.95376 0.99349 0.0
C1014 C 0.34243 0.93618 0.00566 0.0
N1015 N 0.30966 0.93527 -0.00351 0.0
C1016 C 0.33354 0.96413 -0.00338 0.0
C1017 C 0.3478 0.95536 0.00294 0.0
H1018 H 0.31899 0.9119 0.00521 0.0
H1019 H 0.30342 0.9607 0.98933 0.0
C1020 C 0.2345 0.86827 0.94855 0.0
N1021 N 0.25315 0.87685 0.95518 0.0
C1022 C 0.22984 0.8534 0.93337 0.0
C1023 C 0.26368 0.85671 0.93231 0.0
C1024 C 0.26765 0.8716 0.94723 0.0
C1025 C 0.2446 0.84732 0.92534 0.0
H1026 H 0.2233 0.87277 0.95525 0.0
H1027 H 0.28234 0.87869 0.95283 0.0
O1028 O 0.27199 0.92624 0.01827 0.0
O1029 O 0.24039 0.89359 0.99494 0.0
O1030 O 0.265 0.92183 0.97333 0.0
O1031 O 0.28325 0.89328 0.99333 0.0
H1032 H 0.30002 0.92731 0.04565 0.0
H1033 H 0.27375 0.96145 0.01137 0.0
H1034 H 0.32388 0.95659 0.06143 0.0
H1035 H 0.29778 0.9902 0.02811 0.0
H1036 H 0.18157 0.85957 0.00355 0.0
H1037 H 0.2378 0.91295 0.02801 0.0
H1038 H 0.20894 0.86586 0.98496 0.0
H1039 H 0.20983 0.90606 0.04567 0.0
H1040 H 0.22324 0.97022 0.02755 0.0
H1041 H 0.20817 0.95566 0.96643 0.0
H1042 H 0.30638 0.87672 0.05736 0.0
H1043 H 0.24595 0.85259 0.05811 0.0
H1044 H 0.29121 0.91262 0.95357 0.0
H1045 H 0.26275 0.95656 0.9682 0.0
H1046 H 0.3101 0.93347 0.93346 0.0
H1047 H 0.28212 0.97664 0.94782 0.0
H1048 H 0.31344 0.87963 0.98941 0.0
H1049 H 0.25316 0.86416 0.99406 0.0
H1050 H 0.31334 0.84551 0.98702 0.0
H1051 H 0.25416 0.83042 0.99156 0.0
H1052 H 0.35295 0.92876 0.01027 0.0
H1053 H 0.33702 0.97897 0.99465 0.0
H1054 H 0.21496 0.84652 0.9282 0.0
H1055 H 0.27543 0.85267 0.92617 0.0
Li1056 Li 0.26396 0.38397 0.02763 0.0
Li1057 Li 0.27675 0.36223 0.04645 0.0
Li1058 Li 0.29837 0.38722 0.03132 0.0
Li1059 Li 0.27796 0.35865 0.01051 0.0
C1060 C 0.27679 0.40493 0.06184 0.0
N1061 N 0.26473 0.43369 0.08166 0.0
C1062 C 0.26864 0.402 0.07853 0.0
C1063 C 0.27904 0.42258 0.05539 0.0
C1064 C 0.26259 0.41669 0.08832 0.0
C1065 C 0.27278 0.43691 0.06555 0.0
C1066 C 0.2406 0.34022 0.02612 0.0
C1067 C 0.2253 0.30668 0.01838 0.0
N1068 N 0.21094 0.30919 0.02845 0.0
C1069 C 0.22554 0.34251 0.03612 0.0
C1070 C 0.24035 0.32221 0.01694 0.0
C1071 C 0.21074 0.32663 0.03725 0.0
C1072 C 0.24224 0.40624 0.00952 0.0
N1073 N 0.24407 0.3973 0.02507 0.0
C1074 C 0.21837 0.40817 0.03719 0.0
C1075 C 0.23236 0.39796 0.03873 0.0
C1076 C 0.21632 0.41784 0.02142 0.0
C1077 C 0.2285 0.41668 0.00744 0.0
H1078 H 0.25155 0.40538 -0.00126 0.0
H1079 H 0.23397 0.39066 0.05093 0.0
C1080 C 0.28973 0.34511 0.07832 0.0
N1081 N 0.27447 0.35036 0.06984 0.0
C1082 C 0.28927 0.33861 0.09611 0.0
C1083 C 0.25758 0.34336 0.09656 0.0
C1084 C 0.25852 0.34946 0.07862 0.0
C1085 C 0.27313 0.33789 0.10566 0.0
H1086 H 0.30256 0.34647 0.07157 0.0
H1087 H 0.24676 0.35424 0.07208 0.0
C1088 C 0.29221 0.39798 -0.0027 0.0
N1089 N 0.31553 0.42227 0.97744 0.0
C1090 C 0.30252 0.39079 0.98402 0.0
C1091 C 0.2936 0.41752 0.0003 0.0
C1092 C 0.31426 0.40329 0.97417 0.0
C1093 C 0.30551 0.42957 0.99018 0.0
C1094 C 0.30482 0.3436 0.03133 0.0
C1095 C 0.32386 0.34394 0.02942 0.0
C1096 C 0.29195 0.32644 0.03284 0.0
C1097 C 0.32965 0.327 0.02881 0.0
C1098 C 0.29829 0.30981 0.03219 0.0
N1099 N 0.31685 0.31042 0.03018 0.0
C1100 C 0.32861 0.4212 0.04519 0.0
C1101 C 0.33546 0.39872 0.0221 0.0
C1102 C 0.34681 0.43336 0.04565 0.0
N1103 N 0.32329 0.40429 0.03344 0.0
C1104 C 0.35371 0.4104 0.02206 0.0
C1105 C 0.35967 0.42801 0.03397 0.0
H1106 H 0.31878 0.42525 0.05425 0.0
H1107 H 0.33087 0.38523 0.01287 0.0
C1108 C 0.26122 0.34201 0.97271 0.0
N1109 N 0.27644 0.343 0.98597 0.0
C1110 C 0.26069 0.33394 0.95378 0.0
C1111 C 0.29129 0.32757 0.96241 0.0
C1112 C 0.29124 0.33577 0.98118 0.0
C1113 C 0.27602 0.32682 0.94822 0.0
H1114 H 0.24982 0.34823 0.97666 0.0
H1115 H 0.30347 0.33708 0.99167 0.0
O1116 O 0.28247 0.39058 0.05184 0.0
O1117 O 0.2551 0.35563 0.02465 0.0
O1118 O 0.28093 0.38598 0.00738 0.0
O1119 O 0.2989 0.36004 0.03182 0.0
H1120 H 0.26701 0.38856 0.08391 0.0
H1121 H 0.28539 0.42514 0.04259 0.0
H1122 H 0.25619 0.41457 0.10121 0.0
H1123 H 0.27431 0.45059 0.06061 0.0
H1124 H 0.22499 0.29265 0.01144 0.0
H1125 H 0.22531 0.35638 0.04301 0.0
H1126 H 0.25163 0.32025 0.00871 0.0
H1127 H 0.19908 0.32818 0.04509 0.0
H1128 H 0.20917 0.40833 0.0482 0.0
H1129 H 0.22769 0.42401 0.99513 0.0
H1130 H 0.30172 0.33482 0.10262 0.0
H1131 H 0.24482 0.34301 0.10329 0.0
H1132 H 0.30173 0.37577 0.98153 0.0
H1133 H 0.28559 0.42337 0.01031 0.0
H1134 H 0.32243 0.39791 0.96397 0.0
H1135 H 0.30678 0.44472 0.99244 0.0
H1136 H 0.33406 0.35713 0.02837 0.0
H1137 H 0.27732 0.32602 0.03479 0.0
H1138 H 0.34432 0.32703 0.02725 0.0
H1139 H 0.28847 0.29643 0.03336 0.0
H1140 H 0.35085 0.44667 0.05523 0.0
H1141 H 0.36293 0.40576 0.01255 0.0
H1142 H 0.2487 0.33403 0.94345 0.0
H1143 H 0.30336 0.32213 0.95903 0.0
Li1144 Li 0.79408 0.16019 0.05993 0.0
Li1145 Li 0.80096 0.13444 0.03978 0.0
Li1146 Li 0.79211 0.16083 0.02663 0.0
Li1147 Li 0.76874 0.13692 0.03867 0.0
C1148 C 0.82898 0.17215 0.03589 0.0
N1149 N 0.85585 0.19336 0.01684 0.0
C1150 C 0.84016 0.16325 0.025 0.0
C1151 C 0.83154 0.19185 0.03721 0.0
C1152 C 0.85367 0.17423 0.01546 0.0
C1153 C 0.84517 0.20231 0.02742 0.0
C1154 C 0.79075 0.12006 0.07099 0.0
C1155 C 0.79255 0.08802 0.07431 0.0
N1156 N 0.80397 0.09461 0.09124 0.0
C1157 C 0.80247 0.1265 0.08845 0.0
C1158 C 0.78567 0.10065 0.06389 0.0
C1159 C 0.80901 0.11341 0.09846 0.0
C1160 C 0.78608 0.17166 0.09574 0.0
N1161 N 0.79963 0.17518 0.08392 0.0
C1162 C 0.81772 0.20255 0.10522 0.0
C1163 C 0.8155 0.18994 0.08844 0.0
C1164 C 0.8033 0.19988 0.11702 0.0
C1165 C 0.78753 0.18406 0.1124 0.0
H1166 H 0.77372 0.15968 0.09174 0.0
H1167 H 0.82605 0.19226 0.07874 0.0
C1168 C 0.81233 0.10274 0.02363 0.0
N1169 N 0.81626 0.11702 0.0385 0.0
C1170 C 0.82198 0.0884 0.02366 0.0
C1171 C 0.83985 0.1041 0.05407 0.0
C1172 C 0.83007 0.11828 0.05329 0.0
C1173 C 0.83569 0.08876 0.03921 0.0
H1174 H 0.80152 0.10234 0.01189 0.0
H1175 H 0.83295 0.12996 0.06482 0.0
C1176 C 0.76601 0.17705 0.05435 0.0
N1177 N 0.75312 0.20158 0.07915 0.0
C1178 C 0.7491 0.17054 0.06207 0.0
C1179 C 0.77629 0.1961 0.05917 0.0
C1180 C 0.74283 0.18316 0.07458 0.0
C1181 C 0.76957 0.20825 0.07178 0.0
C1182 C 0.76867 0.12258 0.00351 0.0
C1183 C 0.76042 0.13102 0.98933 0.0
C1184 C 0.76149 0.10321 0.00439 0.0
C1185 C 0.74504 0.11993 0.9763 0.0
C1186 C 0.74607 0.09263 0.99113 0.0
N1187 N 0.73823 0.10114 0.97748 0.0
C1188 C 0.80391 0.17217 0.99221 0.0
C1189 C 0.78574 0.19063 0.0079 0.0
C1190 C 0.80375 0.18232 0.97678 0.0
N1191 N 0.79481 0.17638 0.00722 0.0
C1192 C 0.78523 0.20112 0.99285 0.0
C1193 C 0.79398 0.19676 0.97685 0.0
H1194 H 0.81069 0.16049 0.99194 0.0
H1195 H 0.77817 0.19332 0.01974 0.0
C1196 C 0.73731 0.10836 0.04482 0.0
N1197 N 0.74278 0.12342 0.03534 0.0
C1198 C 0.71822 0.09811 0.04239 0.0
C1199 C 0.71075 0.11925 0.02063 0.0
C1200 C 0.73001 0.12907 0.02348 0.0
C1201 C 0.70466 0.10357 0.03022 0.0
H1202 H 0.74773 0.10435 0.05433 0.0
H1203 H 0.73482 0.1413 0.01634 0.0
O1204 O 0.81549 0.16162 0.0451 0.0
O1205 O 0.78437 0.1327 0.06087 0.0
O1206 O 0.77261 0.16481 0.04237 0.0
O1207 O 0.78348 0.13328 0.01665 0.0
H1208 H 0.83834 0.14803 0.02379 0.0
H1209 H 0.82288 0.19893 0.04545 0.0
H1210 H 0.86238 0.16754 0.00691 0.0
H1211 H 0.8472 0.21754 0.02819 0.0
H1212 H 0.78888 0.073 0.06889 0.0
H1213 H 0.80664 0.14146 0.09414 0.0
H1214 H 0.77684 0.09542 0.05029 0.0
H1215 H 0.81815 0.11821 0.11195 0.0
H1216 H 0.83007 0.21464 0.10852 0.0
H1217 H 0.77628 0.18156 0.1214 0.0
H1218 H 0.81871 0.0772 0.01161 0.0
H1219 H 0.85019 0.10494 0.06642 0.0
H1220 H 0.74102 0.15585 0.05865 0.0
H1221 H 0.78953 0.20135 0.05354 0.0
H1222 H 0.72983 0.17828 0.08073 0.0
H1223 H 0.77749 0.22295 0.07578 0.0
H1224 H 0.76565 0.146 0.98849 0.0
H1225 H 0.76755 0.09649 0.0154 0.0
H1226 H 0.73846 0.12629 0.96531 0.0
H1227 H 0.74028 0.07767 0.99174 0.0
H1228 H 0.81073 0.17858 0.96473 0.0
H1229 H 0.77719 0.21185 0.99332 0.0
H1230 H 0.71415 0.08602 0.04993 0.0
H1231 H 0.7007 0.12411 0.01136 0.0
Li1232 Li 0.17594 0.54407 0.24939 0.0
Li1233 Li 0.15065 0.53364 0.26701 0.0
Li1234 Li 0.17026 0.51255 0.25596 0.0
Li1235 Li 0.14775 0.52258 0.23325 0.0
C1236 C 0.18496 0.5506 0.28925 0.0
N1237 N 0.19888 0.58038 0.31864 0.0
C1238 C 0.18057 0.5681 0.28812 0.0
C1239 C 0.19642 0.54826 0.30533 0.0
C1240 C 0.18776 0.58297 0.30312 0.0
C1241 C 0.20331 0.56348 0.32004 0.0
C1242 C 0.13308 0.55327 0.24307 0.0
C1243 C 0.09868 0.54455 0.24127 0.0
N1244 N 0.09824 0.56224 0.23738 0.0
C1245 C 0.13228 0.57136 0.23905 0.0
C1246 C 0.11614 0.53973 0.2442 0.0
C1247 C 0.11453 0.57562 0.23622 0.0
C1248 C 0.19113 0.57785 0.23566 0.0
N1249 N 0.19551 0.56551 0.24719 0.0
C1250 C 0.22543 0.58713 0.2599 0.0
C1251 C 0.21256 0.5694 0.25859 0.0
C1252 C 0.22074 0.60059 0.24903 0.0
C1253 C 0.20375 0.59559 0.23622 0.0
H1254 H 0.17741 0.57426 0.22679 0.0
H1255 H 0.21567 0.55917 0.26746 0.0
C1256 C 0.13291 0.52593 0.29872 0.0
N1257 N 0.13752 0.53954 0.28733 0.0
C1258 C 0.12342 0.52921 0.31427 0.0
C1259 C 0.12359 0.56046 0.30601 0.0
C1260 C 0.13323 0.55663 0.29069 0.0
C1261 C 0.11863 0.54665 0.31801 0.0
H1262 H 0.13667 0.51255 0.29569 0.0
H1263 H 0.13738 0.56735 0.2816 0.0
C1264 C 0.18968 0.52785 0.22221 0.0
N1265 N 0.22128 0.54317 0.20525 0.0
C1266 C 0.1874 0.53538 0.20521 0.0
C1267 C 0.20801 0.528 0.23054 0.0
C1268 C 0.20356 0.5431 0.19688 0.0
C1269 C 0.22381 0.53583 0.22175 0.0
C1270 C 0.13091 0.48895 0.24994 0.0
C1271 C 0.13726 0.47541 0.23868 0.0
C1272 C 0.11327 0.48374 0.25668 0.0
C1273 C 0.12578 0.4568 0.23431 0.0
C1274 C 0.10219 0.465 0.25197 0.0
N1275 N 0.10863 0.45203 0.24098 0.0
C1276 C 0.18591 0.49213 0.28111 0.0
C1277 C 0.18958 0.48426 0.24872 0.0
C1278 C 0.19791 0.4809 0.28683 0.0
N1279 N 0.18235 0.49382 0.2624 0.0
C1280 C 0.2016 0.47286 0.25378 0.0
C1281 C 0.20629 0.47149 0.2731 0.0
H1282 H 0.18012 0.5002 0.29163 0.0
H1283 H 0.18664 0.48612 0.23398 0.0
C1284 C 0.1321 0.53158 0.20004 0.0
N1285 N 0.13058 0.51681 0.21026 0.0
C1286 C 0.11928 0.53022 0.18375 0.0
C1287 C 0.10394 0.49811 0.18825 0.0
C1288 C 0.1169 0.50022 0.2047 0.0
C1289 C 0.10494 0.51336 0.17778 0.0
H1290 H 0.14308 0.54463 0.20483 0.0
H1291 H 0.11571 0.48875 0.21308 0.0
O1292 O 0.17822 0.53578 0.27473 0.0
O1293 O 0.15044 0.549 0.24575 0.0
O1294 O 0.17407 0.52064 0.23083 0.0
O1295 O 0.14193 0.5072 0.25461 0.0
H1296 H 0.17183 0.57026 0.27577 0.0
H1297 H 0.19998 0.53483 0.30641 0.0
H1298 H 0.18451 0.59659 0.3024 0.0
H1299 H 0.2122 0.56186 0.33257 0.0
H1300 H 0.08547 0.53421 0.24209 0.0
H1301 H 0.14527 0.58199 0.23813 0.0
H1302 H 0.11642 0.52567 0.24728 0.0
H1303 H 0.11371 0.58957 0.23311 0.0
H1304 H 0.23847 0.59061 0.2699 0.0
H1305 H 0.19965 0.60576 0.22778 0.0
H1306 H 0.11966 0.51815 0.32314 0.0
H1307 H 0.12031 0.57415 0.30861 0.0
H1308 H 0.17331 0.53536 0.19858 0.0
H1309 H 0.21005 0.52242 0.24381 0.0
H1310 H 0.20203 0.54905 0.18376 0.0
H1311 H 0.2381 0.53616 0.2281 0.0
H1312 H 0.15072 0.4793 0.23308 0.0
H1313 H 0.10818 0.49408 0.26544 0.0
H1314 H 0.13047 0.44618 0.22554 0.0
H1315 H 0.08848 0.46077 0.25705 0.0
H1316 H 0.2013 0.48032 0.30187 0.0
H1317 H 0.20753 0.46557 0.24274 0.0
H1318 H 0.12059 0.54218 0.17585 0.0
H1319 H 0.09299 0.48492 0.18403 0.0
Li1320 Li 0.76285 0.88357 0.52782 0.0
Li1321 Li 0.77595 0.862 0.54638 0.0
Li1322 Li 0.7981 0.88695 0.53119 0.0
Li1323 Li 0.77686 0.85805 0.51067 0.0
C1324 C 0.78048 0.90735 0.56098 0.0
N1325 N 0.77759 0.94159 0.5797 0.0
C1326 C 0.77175 0.90781 0.57756 0.0
C1327 C 0.788 0.92436 0.55412 0.0
C1328 C 0.77035 0.92524 0.58677 0.0
C1329 C 0.78634 0.94151 0.56372 0.0
C1330 C 0.74104 0.83999 0.52953 0.0
C1331 C 0.72867 0.80615 0.52834 0.0
N1332 N 0.71517 0.8094 0.53927 0.0
C1333 C 0.7269 0.843 0.54053 0.0
C1334 C 0.74183 0.82144 0.52318 0.0
C1335 C 0.71401 0.82735 0.5454 0.0
C1336 C 0.73882 0.90317 0.5086 0.0
N1337 N 0.74304 0.89702 0.52544 0.0
C1338 C 0.7195 0.91047 0.539 0.0
C1339 C 0.73348 0.90021 0.54043 0.0
C1340 C 0.71517 0.91747 0.52192 0.0
C1341 C 0.72503 0.91356 0.50657 0.0
H1342 H 0.74624 0.9001 0.49671 0.0
H1343 H 0.73666 0.89473 0.55351 0.0
C1344 C 0.7861 0.84065 0.57631 0.0
N1345 N 0.77345 0.85034 0.56981 0.0
C1346 C 0.78525 0.83404 0.59404 0.0
C1347 C 0.75856 0.84763 0.59836 0.0
C1348 C 0.75978 0.85378 0.58047 0.0
C1349 C 0.77148 0.83768 0.6055 0.0
H1350 H 0.79723 0.83848 0.56802 0.0
H1351 H 0.75002 0.86173 0.57529 0.0
C1352 C 0.78664 0.89781 0.49552 0.0
N1353 N 0.7999 0.92289 0.47074 0.0
C1354 C 0.79362 0.89147 0.47909 0.0
C1355 C 0.78612 0.91686 0.49915 0.0
C1356 C 0.80035 0.90437 0.4668 0.0
C1357 C 0.79296 0.92933 0.4865 0.0
C1358 C 0.80765 0.84612 0.52951 0.0
C1359 C 0.82697 0.8512 0.52704 0.0
C1360 C 0.79841 0.82699 0.52931 0.0
C1361 C 0.83671 0.83698 0.52426 0.0
C1362 C 0.80865 0.8132 0.52651 0.0
N1363 N 0.82742 0.81844 0.52405 0.0
C1364 C 0.83188 0.91483 0.54983 0.0
C1365 C 0.83203 0.90416 0.51723 0.0
C1366 C 0.85006 0.92721 0.55078 0.0
N1367 N 0.82315 0.90384 0.53312 0.0
C1368 C 0.85 0.9165 0.51745 0.0
C1369 C 0.85921 0.92831 0.53435 0.0
H1370 H 0.82474 0.91403 0.5624 0.0
H1371 H 0.82525 0.89467 0.50439 0.0
C1372 C 0.75938 0.83892 0.47356 0.0
N1373 N 0.77567 0.84257 0.48613 0.0
C1374 C 0.75891 0.83099 0.45458 0.0
C1375 C 0.79183 0.83013 0.46183 0.0
C1376 C 0.79169 0.83817 0.48061 0.0
C1377 C 0.77541 0.82674 0.44829 0.0
H1378 H 0.74694 0.84297 0.47805 0.0
H1379 H 0.80473 0.84169 0.49046 0.0
O1380 O 0.78177 0.89038 0.55163 0.0
O1381 O 0.75387 0.85512 0.52474 0.0
O1382 O 0.77999 0.88532 0.50773 0.0
O1383 O 0.79786 0.85983 0.532 0.0
H1384 H 0.76603 0.89485 0.58324 0.0
H1385 H 0.79522 0.92434 0.54162 0.0
H1386 H 0.76352 0.92577 0.59953 0.0
H1387 H 0.79207 0.95476 0.55851 0.0
H1388 H 0.72916 0.79171 0.5236 0.0
H1389 H 0.72597 0.85729 0.54534 0.0
H1390 H 0.75242 0.81888 0.51429 0.0
H1391 H 0.70308 0.82947 0.55404 0.0
H1392 H 0.71204 0.91268 0.55111 0.0
H1393 H 0.72238 0.91871 0.49315 0.0
H1394 H 0.7957 0.82667 0.59898 0.0
H1395 H 0.74759 0.85065 0.60651 0.0
H1396 H 0.79405 0.87679 0.47593 0.0
H1397 H 0.78026 0.92196 0.51144 0.0
H1398 H 0.80592 0.89967 0.45413 0.0
H1399 H 0.79267 0.94411 0.48918 0.0
H1400 H 0.83433 0.86595 0.52718 0.0
H1401 H 0.78353 0.82286 0.5314 0.0
H1402 H 0.85165 0.8407 0.52227 0.0
H1403 H 0.80167 0.79833 0.52631 0.0
H1404 H 0.85674 0.93603 0.56411 0.0
H1405 H 0.85677 0.91658 0.5046 0.0
H1406 H 0.74596 0.82899 0.44478 0.0
H1407 H 0.80486 0.82694 0.45792 0.0
Li1408 Li 0.9426 0.02772 0.2812 0.0
Li1409 Li 0.91447 0.00615 0.26024 0.0
Li1410 Li 0.94219 0.02715 0.24578 0.0
Li1411 Li 0.92017 0.0412 0.26306 0.0
C1412 C 0.95654 -0.00102 0.26907 0.0
N1413 N 0.98589 0.98633 0.28664 0.0
C1414 C 0.9524 0.98325 0.27881 0.0
C1415 C 0.97556 0.00824 0.26819 0.0
C1416 C 0.96746 0.97709 0.28762 0.0
C1417 C 0.99021 0.00163 0.27718 0.0
C1418 C 0.90601 0.0346 0.29458 0.0
C1419 C 0.87775 0.04471 0.30124 0.0
N1420 N 0.88806 0.05661 0.31679 0.0
C1421 C 0.91634 0.047 0.3106 0.0
C1422 C 0.88655 0.03346 0.28984 0.0
C1423 C 0.907 0.05796 0.32167 0.0
C1424 C 0.97367 0.0407 0.31351 0.0
N1425 N 0.95695 0.02785 0.30596 0.0
C1426 C 0.9564 0.01331 0.33454 0.0
C1427 C 0.94835 0.01431 0.3161 0.0
C1428 C 0.97354 0.02647 0.34294 0.0
C1429 C 0.98222 0.04027 0.33204 0.0
H1430 H 0.98025 0.05143 0.30529 0.0
H1431 H 0.93495 0.00438 0.30992 0.0
C1432 C 0.90119 0.96604 0.2492 0.0
N1433 N 0.89675 0.98165 0.25791 0.0
C1434 C 0.88904 0.9479 0.24865 0.0
C1435 C 0.86775 0.96229 0.26561 0.0
C1436 C 0.88044 0.98006 0.2661 0.0
C1437 C 0.87203 0.94577 0.25703 0.0
H1438 H 0.91441 0.96765 0.24306 0.0
H1439 H 0.87731 0.99258 0.27315 0.0
C1440 C 0.95574 0.06585 0.25869 0.0
N1441 N 0.96946 0.09809 0.2424 0.0
C1442 C 0.94527 0.06957 0.24265 0.0
C1443 C 0.97316 0.07856 0.26651 0.0
C1444 C 0.95244 0.08593 0.2346 0.0
C1445 C 0.97987 0.09478 0.25806 0.0
C1446 C 0.89948 0.0217 0.22552 0.0
C1447 C 0.90336 0.03115 0.20982 0.0
C1448 C 0.88082 0.01131 0.22643 0.0
C1449 C 0.88845 0.03025 0.19542 0.0
C1450 C 0.8663 0.01077 0.21176 0.0
N1451 N 0.87038 0.02017 0.19669 0.0
C1452 C 0.94474 0.01553 0.2072 0.0
C1453 C 0.97189 0.03982 0.22142 0.0
C1454 C 0.95128 0.01583 0.18939 0.0
N1455 N 0.95484 0.02759 0.22276 0.0
C1456 C 0.97911 0.04045 0.20385 0.0
C1457 C 0.9687 0.02848 0.18733 0.0
H1458 H 0.9312 0.00594 0.2085 0.0
H1459 H 0.97981 0.0493 0.23391 0.0
C1460 C 0.91525 0.07813 0.27618 0.0
N1461 N 0.90706 0.06168 0.26417 0.0
C1462 C 0.90575 0.0927 0.27824 0.0
C1463 C 0.87963 0.07331 0.25544 0.0
C1464 C 0.88954 0.05912 0.25393 0.0
C1465 C 0.88765 0.09041 0.26775 0.0
H1466 H 0.92908 0.07984 0.2844 0.0
H1467 H 0.88288 0.04588 0.24494 0.0
O1468 O 0.94205 0.00561 0.26084 0.0
O1469 O 0.91503 0.02413 0.28325 0.0
O1470 O 0.94909 0.04984 0.26673 0.0
O1471 O 0.91392 0.02212 0.23965 0.0
H1472 H 0.93772 0.97603 0.2797 0.0
H1473 H 0.97895 0.02052 0.26078 0.0
H1474 H 0.9645 0.96499 0.2953 0.0
H1475 H 0.00502 0.0087 0.2767 0.0
H1476 H 0.86275 0.04408 0.29762 0.0
H1477 H 0.93145 0.04832 0.31436 0.0
H1478 H 0.87844 0.02442 0.27718 0.0
H1479 H 0.91483 0.06762 0.33408 0.0
H1480 H 0.94891 0.00262 0.34232 0.0
H1481 H 0.99551 0.05064 0.33775 0.0
H1482 H 0.89323 0.93568 0.24216 0.0
H1483 H 0.85473 0.96158 0.27197 0.0
H1484 H 0.93172 0.05998 0.23656 0.0
H1485 H 0.98144 0.07587 0.27895 0.0
H1486 H 0.94447 0.08896 0.22217 0.0
H1487 H 0.99335 0.10472 0.26393 0.0
H1488 H 0.91773 0.03903 0.20865 0.0
H1489 H 0.8775 0.00398 0.23846 0.0
H1490 H 0.89126 0.03751 0.18322 0.0
H1491 H 0.85178 0.0029 0.21237 0.0
H1492 H 0.94238 0.00652 0.17728 0.0
H1493 H 0.99274 0.05025 0.2033 0.0
H1494 H 0.91257 0.10565 0.28786 0.0
H1495 H 0.86555 0.07066 0.24738 0.0
Li1496 Li 0.28777 0.66374 0.559 0.0
Li1497 Li 0.29412 0.63731 0.53816 0.0
Li1498 Li 0.28606 0.66349 0.52448 0.0
Li1499 Li 0.26212 0.63968 0.53798 0.0
C1500 C 0.32323 0.68081 0.54479 0.0
N1501 N 0.3523 0.7138 0.54863 0.0
C1502 C 0.34142 0.68003 0.5405 0.0
C1503 C 0.31994 0.69838 0.55124 0.0
C1504 C 0.3559 0.69686 0.54247 0.0
C1505 C 0.33478 0.71488 0.55305 0.0
C1506 C 0.2673 0.62529 0.57038 0.0
C1507 C 0.24538 0.59577 0.57392 0.0
N1508 N 0.24233 0.60385 0.59108 0.0
C1509 C 0.26402 0.63327 0.58809 0.0
C1510 C 0.25799 0.60635 0.56326 0.0
C1511 C 0.25132 0.6222 0.59833 0.0
C1512 C 0.28194 0.68939 0.58872 0.0
N1513 N 0.29453 0.67982 0.58248 0.0
C1514 C 0.31795 0.69504 0.60913 0.0
C1515 C 0.31221 0.68223 0.5923 0.0
C1516 C 0.30534 0.70541 0.61566 0.0
C1517 C 0.28712 0.70242 0.6053 0.0
H1518 H 0.26785 0.68687 0.58089 0.0
H1519 H 0.32189 0.67436 0.58692 0.0
C1520 C 0.32431 0.62377 0.52574 0.0
N1521 N 0.30947 0.61997 0.53604 0.0
C1522 C 0.33576 0.61109 0.52349 0.0
C1523 C 0.31615 0.59064 0.54218 0.0
C1524 C 0.30525 0.60387 0.5443 0.0
C1525 C 0.33165 0.5943 0.53176 0.0
H1526 H 0.32706 0.63654 0.51907 0.0
H1527 H 0.29342 0.60129 0.55248 0.0
C1528 C 0.25843 0.68249 0.54263 0.0
N1529 N 0.24115 0.71243 0.5453 0.0
C1530 C 0.23993 0.67983 0.54759 0.0
C1531 C 0.26804 0.70042 0.53886 0.0
C1532 C 0.23148 0.69513 0.54894 0.0
C1533 C 0.25909 0.71535 0.5403 0.0
C1534 C 0.28058 0.62348 0.50282 0.0
C1535 C 0.29259 0.63013 0.48961 0.0
C1536 C 0.27444 0.60393 0.50335 0.0
C1537 C 0.29843 0.61706 0.47722 0.0
C1538 C 0.28064 0.59133 0.49075 0.0
N1539 N 0.29241 0.5981 0.47807 0.0
C1540 C 0.30424 0.69097 0.50186 0.0
C1541 C 0.27049 0.67892 0.49606 0.0
C1542 C 0.30342 0.70403 0.48916 0.0
N1543 N 0.28783 0.67913 0.50533 0.0
C1544 C 0.26899 0.6917 0.48332 0.0
C1545 C 0.28555 0.70473 0.48006 0.0
H1546 H 0.31788 0.69066 0.50921 0.0
H1547 H 0.25774 0.66923 0.49913 0.0
C1548 C 0.22535 0.62746 0.54918 0.0
N1549 N 0.23602 0.62619 0.53474 0.0
C1550 C 0.2063 0.61709 0.54696 0.0
C1551 C 0.20942 0.60465 0.51487 0.0
C1552 C 0.22845 0.61523 0.51774 0.0
C1553 C 0.19816 0.60541 0.52966 0.0
H1554 H 0.23166 0.63645 0.56248 0.0
H1555 H 0.23723 0.61462 0.50644 0.0
O1556 O 0.3089 0.6644 0.54288 0.0
O1557 O 0.2797 0.63592 0.56017 0.0
O1558 O 0.26685 0.66754 0.54123 0.0
O1559 O 0.27508 0.63607 0.51535 0.0
H1560 H 0.34436 0.66659 0.5357 0.0
H1561 H 0.30617 0.69928 0.55504 0.0
H1562 H 0.37001 0.69645 0.53912 0.0
H1563 H 0.33238 0.72855 0.55802 0.0
H1564 H 0.23794 0.58117 0.5685 0.0
H1565 H 0.27117 0.64786 0.59388 0.0
H1566 H 0.26018 0.60001 0.54948 0.0
H1567 H 0.2486 0.62821 0.61203 0.0
H1568 H 0.33206 0.6969 0.61686 0.0
H1569 H 0.2768 0.70974 0.61022 0.0
H1570 H 0.34753 0.61423 0.5152 0.0
H1571 H 0.31273 0.57788 0.54887 0.0
H1572 H 0.23217 0.66615 0.55049 0.0
H1573 H 0.28214 0.70284 0.53456 0.0
H1574 H 0.21721 0.69323 0.55286 0.0
H1575 H 0.26638 0.72925 0.53737 0.0
H1576 H 0.2975 0.64522 0.48907 0.0
H1577 H 0.26521 0.59858 0.51356 0.0
H1578 H 0.30781 0.622 0.46699 0.0
H1579 H 0.27614 0.57618 0.4911 0.0
H1580 H 0.31651 0.7138 0.48691 0.0
H1581 H 0.255 0.69144 0.4762 0.0
H1582 H 0.19801 0.61833 0.55862 0.0
H1583 H 0.2037 0.59573 0.50135 0.0
Li1584 Li 0.41671 0.50348 0.75732 0.0
Li1585 Li 0.44522 0.52511 0.77717 0.0
Li1586 Li 0.42122 0.53799 0.76126 0.0
Li1587 Li 0.44252 0.52568 0.74176 0.0
C1588 C 0.41645 0.53075 0.79802 0.0
N1589 N 0.41383 0.55073 0.83253 0.0
C1590 C 0.42799 0.5492 0.80379 0.0
C1591 C 0.40349 0.52253 0.80976 0.0
C1592 C 0.42649 0.55904 0.8213 0.0
C1593 C 0.40239 0.53285 0.82716 0.0
C1594 C 0.45489 0.4914 0.75956 0.0
C1595 C 0.48319 0.48014 0.75616 0.0
N1596 N 0.4763 0.46555 0.76586 0.0
C1597 C 0.44796 0.47611 0.76922 0.0
C1598 C 0.47253 0.49329 0.75273 0.0
C1599 C 0.45905 0.46327 0.77238 0.0
C1600 C 0.39252 0.4679 0.73806 0.0
N1601 N 0.39914 0.47902 0.75517 0.0
C1602 C 0.38089 0.45543 0.7713 0.0
C1603 C 0.39364 0.47313 0.77161 0.0
C1604 C 0.37378 0.44354 0.75389 0.0
C1605 C 0.37981 0.44997 0.7371 0.0
H1606 H 0.39714 0.47293 0.72519 0.0
H1607 H 0.39938 0.48212 0.78503 0.0
C1608 C 0.4735 0.54164 0.81109 0.0
N1609 N 0.46066 0.52571 0.80161 0.0
C1610 C 0.48205 0.54186 0.82974 0.0
C1611 C 0.46422 0.50932 0.82864 0.0
C1612 C 0.45591 0.50978 0.81013 0.0
C1613 C 0.47734 0.52558 0.8389 0.0
H1614 H 0.47661 0.55445 0.80451 0.0
H1615 H 0.44497 0.49762 0.80287 0.0
C1616 C 0.39976 0.52617 0.72828 0.0
N1617 N 0.37112 0.54052 0.71182 0.0
C1618 C 0.40427 0.54106 0.71752 0.0
C1619 C 0.38071 0.51845 0.73057 0.0
C1620 C 0.38957 0.54816 0.70934 0.0
C1621 C 0.36643 0.52594 0.72215 0.0
C1622 C 0.46849 0.5568 0.76354 0.0
C1623 C 0.47409 0.5761 0.7617 0.0
C1624 C 0.48233 0.54655 0.76577 0.0
C1625 C 0.4935 0.58481 0.76206 0.0
C1626 C 0.50159 0.55576 0.76609 0.0
N1627 N 0.50673 0.57455 0.76423 0.0
C1628 C 0.38926 0.55208 0.76955 0.0
C1629 C 0.41329 0.57438 0.75811 0.0
C1630 C 0.37789 0.56503 0.77084 0.0
N1631 N 0.40661 0.55692 0.7633 0.0
C1632 C 0.40235 0.5878 0.75913 0.0
C1633 C 0.38435 0.58323 0.76561 0.0
H1634 H 0.38412 0.53801 0.77335 0.0
H1635 H 0.42708 0.57785 0.75305 0.0
C1636 C 0.45498 0.5112 0.70755 0.0
N1637 N 0.45448 0.52753 0.7185 0.0
C1638 C 0.46161 0.51173 0.68976 0.0
C1639 C 0.46747 0.54591 0.69481 0.0
C1640 C 0.46066 0.54472 0.7125 0.0
C1641 C 0.46779 0.52925 0.68296 0.0
H1642 H 0.44982 0.49766 0.71246 0.0
H1643 H 0.45979 0.55752 0.72119 0.0
O1644 O 0.41772 0.52076 0.78095 0.0
O1645 O 0.44412 0.50399 0.7561 0.0
O1646 O 0.41398 0.51944 0.7369 0.0
O1647 O 0.4495 0.54803 0.76283 0.0
H1648 H 0.43804 0.55589 0.79491 0.0
H1649 H 0.39432 0.50834 0.80549 0.0
H1650 H 0.43538 0.5733 0.82595 0.0
H1651 H 0.39244 0.52664 0.83639 0.0
H1652 H 0.49691 0.4815 0.75104 0.0
H1653 H 0.43418 0.47419 0.77427 0.0
H1654 H 0.47791 0.50474 0.74477 0.0
H1655 H 0.45391 0.45146 0.77997 0.0
H1656 H 0.37694 0.45095 0.78462 0.0
H1657 H 0.37461 0.44132 0.72336 0.0
H1658 H 0.49205 0.55477 0.83701 0.0
H1659 H 0.45971 0.4966 0.83516 0.0
H1660 H 0.41898 0.54723 0.71572 0.0
H1661 H 0.37704 0.50696 0.73895 0.0
H1662 H 0.39284 0.55978 0.70108 0.0
H1663 H 0.35163 0.5202 0.72388 0.0
H1664 H 0.46354 0.58424 0.75991 0.0
H1665 H 0.47827 0.53173 0.76751 0.0
H1666 H 0.49803 0.59973 0.76061 0.0
H1667 H 0.51245 0.54799 0.76786 0.0
H1668 H 0.36401 0.56069 0.77559 0.0
H1669 H 0.40804 0.60166 0.75509 0.0
H1670 H 0.46178 0.49849 0.68136 0.0
H1671 H 0.4718 0.55973 0.69021 0.0
Li1672 Li 0.65547 0.03191 0.76574 0.0
Li1673 Li 0.67902 0.045 0.74678 0.0
Li1674 Li 0.64882 0.0251 0.73208 0.0
Li1675 Li 0.67338 0.01163 0.74848 0.0
C1676 C 0.64616 0.06246 0.75845 0.0
N1677 N 0.63101 0.08694 0.78101 0.0
C1678 C 0.65776 0.08001 0.76746 0.0
C1679 C 0.62681 0.05741 0.76093 0.0
C1680 C 0.64984 0.09218 0.77878 0.0
C1681 C 0.61944 0.06996 0.7724 0.0
C1682 C 0.7 0.04281 0.78005 0.0
C1683 C 0.73283 0.04509 0.79234 0.0
N1684 N 0.73444 0.06305 0.801 0.0
C1685 C 0.70199 0.06128 0.78911 0.0
C1686 C 0.71556 0.03463 0.78166 0.0
C1687 C 0.71952 0.0713 0.79961 0.0
C1688 C 0.62796 0.02054 0.78903 0.0
N1689 N 0.64384 0.03447 0.78814 0.0
C1690 C 0.63971 0.05185 0.81715 0.0
C1691 C 0.6501 0.04978 0.80198 0.0
C1692 C 0.62287 0.03793 0.81805 0.0
C1693 C 0.61715 0.02202 0.80386 0.0
H1694 H 0.6234 0.00844 0.77799 0.0
H1695 H 0.66276 0.06067 0.80098 0.0
C1696 C 0.69083 0.0796 0.73423 0.0
N1697 N 0.69794 0.06675 0.74307 0.0
C1698 C 0.70289 0.09679 0.73182 0.0
C1699 C 0.72966 0.08675 0.74652 0.0
C1700 C 0.71706 0.06957 0.74836 0.0
C1701 C 0.72246 0.10074 0.73857 0.0
H1702 H 0.67564 0.07669 0.72956 0.0
H1703 H 0.72255 0.05869 0.7543 0.0
C1704 C 0.63069 0.99232 0.74013 0.0
N1705 N 0.60119 0.96457 0.71844 0.0
C1706 C 0.63433 0.9759 0.73089 0.0
C1707 C 0.61202 0.99458 0.73842 0.0
C1708 C 0.61922 0.96204 0.71998 0.0
C1709 C 0.59732 0.98041 0.72735 0.0
C1710 C 0.68612 0.03177 0.71327 0.0
C1711 C 0.67925 0.0412 0.69916 0.0
C1712 C 0.70534 0.03129 0.71539 0.0
C1713 C 0.69182 0.05013 0.68745 0.0
C1714 C 0.71745 0.04039 0.70339 0.0
N1715 N 0.7105 0.04956 0.68979 0.0
C1716 C 0.61935 0.0345 0.71059 0.0
C1717 C 0.6274 0.00705 0.69632 0.0
C1718 C 0.60583 0.03357 0.69505 0.0
N1719 N 0.62982 0.02142 0.71094 0.0
C1720 C 0.61399 0.0056 0.68035 0.0
C1721 C 0.6033 0.01924 0.67951 0.0
H1722 H 0.62188 0.04603 0.72212 0.0
H1723 H 0.63619 -0.00297 0.69689 0.0
C1724 C 0.68582 0.98605 0.76812 0.0
N1725 N 0.68488 0.99171 0.75066 0.0
C1726 C 0.69717 0.97387 0.77251 0.0
C1727 C 0.70532 0.97263 0.74037 0.0
C1728 C 0.69387 0.98499 0.73664 0.0
C1729 C 0.70749 0.96738 0.75869 0.0
H1730 H 0.67863 0.99194 0.77896 0.0
H1731 H 0.69274 0.9898 0.72287 0.0
O1732 O 0.65368 0.05023 0.74741 0.0
O1733 O 0.68293 0.0327 0.76979 0.0
O1734 O 0.64535 0.00618 0.75065 0.0
O1735 O 0.67415 0.02336 0.72517 0.0
H1736 H 0.67278 0.08416 0.76595 0.0
H1737 H 0.61765 0.04376 0.75439 0.0
H1738 H 0.65869 0.10576 0.78587 0.0
H1739 H 0.60455 0.06615 0.77455 0.0
H1740 H 0.74498 0.03894 0.79367 0.0
H1741 H 0.6903 0.068 0.7877 0.0
H1742 H 0.7144 0.02043 0.77464 0.0
H1743 H 0.72128 0.08566 0.80656 0.0
H1744 H 0.64473 0.06423 0.82795 0.0
H1745 H 0.60415 0.01105 0.80389 0.0
H1746 H 0.69678 0.10728 0.72568 0.0
H1747 H 0.74475 0.08925 0.7516 0.0
H1748 H 0.64868 0.97393 0.73202 0.0
H1749 H 0.60897 0.00729 0.74531 0.0
H1750 H 0.62184 0.94929 0.7127 0.0
H1751 H 0.58284 0.98204 0.72578 0.0
H1752 H 0.66443 0.04179 0.69742 0.0
H1753 H 0.71092 0.02425 0.72641 0.0
H1754 H 0.68675 0.05757 0.67653 0.0
H1755 H 0.73239 0.04026 0.70495 0.0
H1756 H 0.59779 0.0443 0.69496 0.0
H1757 H 0.61263 0.9945 0.6685 0.0
H1758 H 0.69862 0.97041 0.78688 0.0
H1759 H 0.71276 0.96766 0.72922 0.0
Li1760 Li 0.77355 0.6987 0.02799 0.0
Li1761 Li 0.78754 0.67492 0.0121 0.0
Li1762 Li 0.77367 0.6974 0.99266 0.0
Li1763 Li 0.75297 0.67099 0.00743 0.0
C1764 C 0.8083 0.7204 0.02113 0.0
N1765 N 0.83308 0.75496 0.0366 0.0
C1766 C 0.82237 0.72139 0.03641 0.0
C1767 C 0.80688 0.73696 0.01365 0.0
C1768 C 0.83474 0.73901 0.04405 0.0
C1769 C 0.81953 0.7543 0.02169 0.0
C1770 C 0.77762 0.66214 0.04372 0.0
C1771 C 0.78368 0.63296 0.05245 0.0
N1772 N 0.79477 0.64287 0.06864 0.0
C1773 C 0.78911 0.67204 0.06045 0.0
C1774 C 0.77487 0.64244 0.03968 0.0
C1775 C 0.79762 0.66203 0.07288 0.0
C1776 C 0.7602 0.70458 0.06311 0.0
N1777 N 0.77311 0.71381 0.05256 0.0
C1778 C 0.78389 0.73987 0.07813 0.0
C1779 C 0.78458 0.7314 0.05959 0.0
C1780 C 0.77099 0.73039 0.08947 0.0
C1781 C 0.75881 0.71264 0.08152 0.0
H1782 H 0.75115 0.69064 0.05732 0.0
H1783 H 0.79442 0.73888 0.05103 0.0
C1784 C 0.80718 0.64754 -0.00115 0.0
N1785 N 0.80734 0.66118 0.01357 0.0
C1786 C 0.82047 0.63647 -0.00021 0.0
C1787 C 0.83415 0.65385 0.03086 0.0
C1788 C 0.82071 0.6647 0.02925 0.0
C1789 C 0.83408 0.63939 0.01606 0.0
H1790 H 0.79662 0.64508 0.98641 0.0
H1791 H 0.8208 0.67573 0.0407 0.0
C1792 C 0.74343 0.71057 0.01619 0.0
N1793 N 0.72718 0.73628 0.03546 0.0
C1794 C 0.72789 0.7041 0.02587 0.0
C1795 C 0.75063 0.73008 0.01615 0.0
C1796 C 0.71989 0.71734 0.03556 0.0
C1797 C 0.74223 0.74286 0.02603 0.0
C1798 C 0.75881 0.65427 0.97469 0.0
C1799 C 0.75023 0.65782 0.95748 0.0
C1800 C 0.75529 0.63567 0.97901 0.0
C1801 C 0.73813 0.64267 0.94491 0.0
C1802 C 0.74307 0.62092 0.96608 0.0
N1803 N 0.73481 0.6247 0.94945 0.0
C1804 C 0.79259 0.71327 0.9625 0.0
C1805 C 0.75981 0.71306 0.96035 0.0
C1806 C 0.79391 0.72013 0.94493 0.0
N1807 N 0.77568 0.70972 0.9698 0.0
C1808 C 0.76045 0.71976 0.94267 0.0
C1809 C 0.77762 0.72321 0.93453 0.0
H1810 H 0.80498 0.71029 0.9701 0.0
H1811 H 0.74646 0.70998 0.9663 0.0
C1812 C 0.72464 0.64212 0.01865 0.0
N1813 N 0.72837 0.65312 0.00465 0.0
C1814 C 0.70678 0.62935 0.01781 0.0
C1815 C 0.69673 0.6395 0.98821 0.0
C1816 C 0.71483 0.65213 0.98964 0.0
C1817 C 0.69246 0.62791 0.00248 0.0
H1818 H 0.73542 0.64352 0.0307 0.0
H1819 H 0.71802 0.66125 0.97884 0.0
O1820 O 0.79625 0.70327 0.01325 0.0
O1821 O 0.7693 0.67168 0.03124 0.0
O1822 O 0.75182 0.69788 0.00712 0.0
O1823 O 0.77041 0.66896 0.98736 0.0
H1824 H 0.82363 0.70873 0.04239 0.0
H1825 H 0.79614 0.73643 0.00178 0.0
H1826 H 0.84565 0.74 0.05592 0.0
H1827 H 0.81858 0.76724 0.01608 0.0
H1828 H 0.78173 0.61773 0.04945 0.0
H1829 H 0.79171 0.68731 0.06369 0.0
H1830 H 0.76613 0.63456 0.02676 0.0
H1831 H 0.8066 0.66952 0.08583 0.0
H1832 H 0.79339 0.75371 0.08355 0.0
H1833 H 0.74874 0.7047 0.0897 0.0
H1834 H 0.81977 0.62543 0.98806 0.0
H1835 H 0.84454 0.65685 0.04355 0.0
H1836 H 0.72221 0.68903 0.02605 0.0
H1837 H 0.76265 0.73527 0.0087 0.0
H1838 H 0.70793 0.71257 0.04323 0.0
H1839 H 0.74771 0.75801 0.02622 0.0
H1840 H 0.75281 0.67211 0.9539 0.0
H1841 H 0.76177 0.63269 0.99229 0.0
H1842 H 0.73134 0.64522 0.93157 0.0
H1843 H 0.74013 0.60648 0.9693 0.0
H1844 H 0.80741 0.72234 0.93925 0.0
H1845 H 0.74755 0.7221 0.93539 0.0
H1846 H 0.70408 0.62107 0.02937 0.0
H1847 H 0.68622 0.63883 0.97607 0.0
Li1848 Li 0.86755 0.51635 0.78414 0.0
Li1849 Li 0.89794 0.53328 0.80318 0.0
Li1850 Li 0.8765 0.55013 0.78955 0.0
Li1851 Li 0.89399 0.53409 0.7689 0.0
C1852 C 0.86687 0.52215 0.82349 0.0
N1853 N 0.85734 0.50008 0.85183 0.0
C1854 C 0.87547 0.50731 0.8263 0.0
C1855 C 0.85343 0.52577 0.83517 0.0
C1856 C 0.87047 0.49632 0.84068 0.0
C1857 C 0.84879 0.51445 0.84939 0.0
C1858 C 0.89833 0.49525 0.77954 0.0
C1859 C 0.91953 0.47703 0.76776 0.0
N1860 N 0.90879 0.46124 0.77348 0.0
C1861 C 0.88759 0.4788 0.78538 0.0
C1862 C 0.9145 0.49432 0.7707 0.0
C1863 C 0.89307 0.46177 0.78215 0.0
C1864 C 0.84717 0.48425 0.76095 0.0
N1865 N 0.84774 0.49382 0.77854 0.0
C1866 C 0.82539 0.46756 0.78712 0.0
C1867 C 0.83645 0.48629 0.79125 0.0
C1868 C 0.82594 0.45672 0.76971 0.0
C1869 C 0.83622 0.46559 0.75615 0.0
H1870 H 0.85622 0.49076 0.75111 0.0
H1871 H 0.83681 0.49431 0.80499 0.0
C1872 C 0.91922 0.54699 0.8392 0.0
N1873 N 0.91642 0.53331 0.82389 0.0
C1874 C 0.93239 0.54721 0.85496 0.0
C1875 C 0.93972 0.51948 0.83864 0.0
C1876 C 0.9265 0.51985 0.82323 0.0
C1877 C 0.94261 0.53314 0.85485 0.0
H1878 H 0.91099 0.55754 0.83922 0.0
H1879 H 0.92417 0.50927 0.81084 0.0
C1880 C 0.84859 0.53477 0.75876 0.0
N1881 N 0.81251 0.53884 0.747 0.0
C1882 C 0.84433 0.53955 0.74067 0.0
C1883 C 0.8345 0.53204 0.77087 0.0
C1884 C 0.82599 0.54152 0.73498 0.0
C1885 C 0.81635 0.53418 0.76467 0.0
C1886 C 0.92402 0.56273 0.79059 0.0
C1887 C 0.93246 0.58228 0.79323 0.0
C1888 C 0.93552 0.54996 0.7889 0.0
C1889 C 0.9523 0.58872 0.79402 0.0
C1890 C 0.95529 0.55693 0.78977 0.0
N1891 N 0.96321 0.57602 0.79229 0.0
C1892 C 0.85335 0.57146 0.80508 0.0
C1893 C 0.86546 0.58081 0.77699 0.0
C1894 C 0.83986 0.58207 0.80315 0.0
N1895 N 0.86523 0.57052 0.79169 0.0
C1896 C 0.85226 0.59166 0.77452 0.0
C1897 C 0.8387 0.59166 0.78725 0.0
H1898 H 0.85333 0.56279 0.81635 0.0
H1899 H 0.87483 0.57934 0.76636 0.0
C1900 C 0.90066 0.51549 0.73557 0.0
N1901 N 0.90572 0.53273 0.74665 0.0
C1902 C 0.91108 0.51169 0.72092 0.0
C1903 C 0.93054 0.54409 0.72825 0.0
C1904 C 0.91978 0.54723 0.74283 0.0
C1905 C 0.92665 0.52592 0.71754 0.0
H1906 H 0.88927 0.50432 0.73891 0.0
H1907 H 0.92316 0.56097 0.75155 0.0
O1908 O 0.87139 0.53307 0.80938 0.0
O1909 O 0.89301 0.51208 0.78229 0.0
O1910 O 0.86672 0.5336 0.76482 0.0
O1911 O 0.90461 0.55627 0.78986 0.0
H1912 H 0.88585 0.50426 0.8175 0.0
H1913 H 0.84647 0.53707 0.8332 0.0
H1914 H 0.87703 0.48479 0.84295 0.0
H1915 H 0.83837 0.51707 0.85847 0.0
H1916 H 0.93198 0.47616 0.7609 0.0
H1917 H 0.87511 0.47903 0.79234 0.0
H1918 H 0.92315 0.50678 0.76611 0.0
H1919 H 0.8848 0.44898 0.78655 0.0
H1920 H 0.81767 0.46127 0.79799 0.0
H1921 H 0.83669 0.45784 0.7424 0.0
H1922 H 0.93409 0.55785 0.86731 0.0
H1923 H 0.94749 0.50853 0.83796 0.0
H1924 H 0.85515 0.54186 0.7312 0.0
H1925 H 0.83762 0.52863 0.78504 0.0
H1926 H 0.82251 0.54527 0.72104 0.0
H1927 H 0.80535 0.53224 0.77394 0.0
H1928 H 0.92375 0.59237 0.79461 0.0
H1929 H 0.92925 0.53484 0.78693 0.0
H1930 H 0.95902 0.60382 0.79602 0.0
H1931 H 0.96434 0.54717 0.78845 0.0
H1932 H 0.8296 0.58159 0.8132 0.0
H1933 H 0.85203 0.59915 0.76227 0.0
H1934 H 0.90762 0.49746 0.71308 0.0
H1935 H 0.94211 0.5556 0.72574 0.0
Li1936 Li 0.76251 0.38032 0.51748 0.0
Li1937 Li 0.74904 0.40858 0.5106 0.0
Li1938 Li 0.75409 0.38541 0.48541 0.0
Li1939 Li 0.7807 0.4072 0.50454 0.0
C1940 C 0.721 0.36838 0.49431 0.0
N1941 N 0.69011 0.34386 0.4711 0.0
C1942 C 0.70636 0.37536 0.48585 0.0
C1943 C 0.71988 0.3489 0.49106 0.0
C1944 C 0.69087 0.36274 0.47414 0.0
C1945 C 0.70416 0.33674 0.47925 0.0
C1946 C 0.78606 0.41995 0.54084 0.0
C1947 C 0.80421 0.45208 0.55275 0.0
N1948 N 0.81779 0.44518 0.56211 0.0
C1949 C 0.80011 0.41318 0.55071 0.0
C1950 C 0.78804 0.43955 0.54196 0.0
C1951 C 0.81608 0.42617 0.56134 0.0
C1952 C 0.78034 0.35712 0.53705 0.0
N1953 N 0.76323 0.36106 0.53253 0.0
C1954 C 0.74701 0.33443 0.54613 0.0
C1955 C 0.74673 0.35025 0.53697 0.0
C1956 C 0.76452 0.32997 0.55117 0.0
C1957 C 0.78138 0.34176 0.54666 0.0
H1958 H 0.79316 0.36581 0.53296 0.0
H1959 H 0.73329 0.35363 0.53295 0.0
C1960 C 0.72286 0.43041 0.50478 0.0
N1961 N 0.73399 0.42486 0.51839 0.0
C1962 C 0.71363 0.44455 0.50966 0.0
C1963 C 0.72697 0.44651 0.54258 0.0
C1964 C 0.73595 0.43229 0.53704 0.0
C1965 C 0.71595 0.45306 0.52873 0.0
H1966 H 0.72181 0.42438 0.49003 0.0
H1967 H 0.74505 0.42764 0.54749 0.0
C1968 C 0.78901 0.37592 0.48319 0.0
N1969 N 0.8116 0.36799 0.45601 0.0
C1970 C 0.79308 0.38784 0.46936 0.0
C1971 C 0.79647 0.35998 0.48325 0.0
C1972 C 0.80451 0.3836 0.45573 0.0
C1973 C 0.80785 0.35621 0.46938 0.0
C1974 C 0.76411 0.42917 0.47863 0.0
C1975 C 0.76704 0.42794 0.45949 0.0
C1976 C 0.76418 0.44679 0.48861 0.0
C1977 C 0.77032 0.44439 0.45078 0.0
C1978 C 0.76749 0.46292 0.4794 0.0
N1979 N 0.77048 0.4614 0.46083 0.0
C1980 C 0.73504 0.3788 0.4474 0.0
C1981 C 0.74746 0.35391 0.4578 0.0
C1982 C 0.7295 0.36863 0.42909 0.0
N1983 N 0.74431 0.37149 0.46108 0.0
C1984 C 0.74226 0.34332 0.43978 0.0
C1985 C 0.73363 0.35087 0.42498 0.0
H1986 H 0.7324 0.39269 0.4506 0.0
H1987 H 0.75448 0.34831 0.46912 0.0
C1988 C 0.82056 0.41314 0.5101 0.0
N1989 N 0.80654 0.422 0.5057 0.0
C1990 C 0.83977 0.42299 0.51198 0.0
C1991 C 0.82988 0.45111 0.50516 0.0
C1992 C 0.81086 0.44067 0.50333 0.0
C1993 C 0.84464 0.44227 0.50953 0.0
H1994 H 0.8168 0.39842 0.51243 0.0
H1995 H 0.79965 0.44769 0.50056 0.0
O1996 O 0.73652 0.38058 0.50545 0.0
O1997 O 0.77063 0.40747 0.52986 0.0
O1998 O 0.77777 0.37971 0.49666 0.0
O1999 O 0.76028 0.41306 0.48719 0.0
H2000 H 0.707 0.39037 0.48819 0.0
H2001 H 0.73122 0.34327 0.49725 0.0
H2002 H 0.67947 0.36797 0.46743 0.0
H2003 H 0.70319 0.32166 0.47649 0.0
H2004 H 0.806 0.46728 0.5536 0.0
H2005 H 0.7988 0.39808 0.55003 0.0
H2006 H 0.77734 0.44505 0.53437 0.0
H2007 H 0.82713 0.42113 0.56893 0.0
H2008 H 0.73358 0.32568 0.54894 0.0
H2009 H 0.79529 0.33931 0.55058 0.0
H2010 H 0.70498 0.44896 0.4986 0.0
H2011 H 0.7292 0.45277 0.5574 0.0
H2012 H 0.78759 0.4003 0.46925 0.0
H2013 H 0.79345 0.35062 0.49389 0.0
H2014 H 0.80778 0.39273 0.44495 0.0
H2015 H 0.8137 0.34391 0.46924 0.0
H2016 H 0.76668 0.41441 0.45137 0.0
H2017 H 0.76201 0.44812 0.50342 0.0
H2018 H 0.77266 0.44363 0.436 0.0
H2019 H 0.76772 0.47664 0.48702 0.0
H2020 H 0.72263 0.37485 0.41814 0.0
H2021 H 0.74597 0.32984 0.43729 0.0
H2022 H 0.85066 0.41554 0.51522 0.0
H2023 H 0.83295 0.46606 0.50359 0.0
Li2024 Li 0.60981 0.53145 0.2948 0.0
Li2025 Li 0.63603 0.55165 0.28099 0.0
Li2026 Li 0.60791 0.53037 0.25882 0.0
Li2027 Li 0.63223 0.51732 0.27602 0.0
C2028 C 0.59284 0.55905 0.28211 0.0
N2029 N 0.56126 0.57265 0.28837 0.0
C2030 C 0.5949 0.57572 0.29472 0.0
C2031 C 0.57472 0.54934 0.27264 0.0
C2032 C 0.57876 0.58235 0.29771 0.0
C2033 C 0.55894 0.55643 0.276 0.0
C2034 C 0.65165 0.54658 0.31415 0.0
C2035 C 0.68476 0.56046 0.32697 0.0
N2036 N 0.67918 0.5712 0.34108 0.0
C2037 C 0.64625 0.55775 0.32879 0.0
C2038 C 0.67106 0.54791 0.31324 0.0
C2039 C 0.66038 0.5701 0.34227 0.0
C2040 C 0.60605 0.52016 0.33098 0.0
N2041 N 0.59747 0.52883 0.31794 0.0
C2042 C 0.57541 0.53442 0.33953 0.0
C2043 C 0.58222 0.53573 0.32186 0.0
C2044 C 0.58432 0.52595 0.35347 0.0
C2045 C 0.59977 0.51863 0.34882 0.0
H2046 H 0.6181 0.51469 0.32763 0.0
H2047 H 0.57539 0.54246 0.31145 0.0
C2048 C 0.6673 0.57945 0.27198 0.0
N2049 N 0.65406 0.57618 0.28421 0.0
C2050 C 0.67995 0.59738 0.27322 0.0
C2051 C 0.66517 0.6084 0.29962 0.0
C2052 C 0.65287 0.5902 0.29794 0.0
C2053 C 0.67884 0.61223 0.28703 0.0
H2054 H 0.66775 0.56831 0.2609 0.0
H2055 H 0.6422 0.58736 0.30745 0.0
C2056 C 0.5868 0.49574 0.26792 0.0
N2057 N 0.5524 0.4694 0.25497 0.0
C2058 C 0.58632 0.47927 0.25565 0.0
C2059 C 0.56985 0.49866 0.27387 0.0
C2060 C 0.56876 0.46617 0.24918 0.0
C2061 C 0.55258 0.48522 0.26709 0.0
C2062 C 0.64791 0.52877 0.24583 0.0
C2063 C 0.64156 0.52063 0.22688 0.0
C2064 C 0.66675 0.53012 0.25359 0.0
C2065 C 0.6541 0.51376 0.21606 0.0
C2066 C 0.67885 0.52306 0.24232 0.0
N2067 N 0.67233 0.51508 0.22395 0.0
C2068 C 0.59048 0.54574 0.22872 0.0
C2069 C 0.58776 0.51279 0.2213 0.0
C2070 C 0.58243 0.54646 0.21017 0.0
N2071 N 0.59308 0.5291 0.23398 0.0
C2072 C 0.57981 0.5129 0.20252 0.0
C2073 C 0.57724 0.52997 0.19654 0.0
H2074 H 0.59517 0.55866 0.23883 0.0
H2075 H 0.59059 0.49986 0.22541 0.0
C2076 C 0.65671 0.49578 0.2906 0.0
N2077 N 0.64545 0.49737 0.27472 0.0
C2078 C 0.66736 0.48216 0.29011 0.0
C2079 C 0.65443 0.4718 0.25699 0.0
C2080 C 0.64385 0.48548 0.25819 0.0
C2081 C 0.6665 0.47008 0.27307 0.0
H2082 H 0.65757 0.50522 0.30365 0.0
H2083 H 0.63459 0.48681 0.24582 0.0
O2084 O 0.60852 0.55243 0.27892 0.0
O2085 O 0.63803 0.53462 0.30065 0.0
O2086 O 0.60385 0.50868 0.27444 0.0
O2087 O 0.63573 0.53531 0.25676 0.0
H2088 H 0.60878 0.58343 0.30218 0.0
H2089 H 0.57282 0.53644 0.26283 0.0
H2090 H 0.58014 0.5952 0.30747 0.0
H2091 H 0.54484 0.54903 0.26879 0.0
H2092 H 0.69982 0.56166 0.32641 0.0
H2093 H 0.63132 0.55715 0.32958 0.0
H2094 H 0.67552 0.53938 0.30204 0.0
H2095 H 0.6564 0.57889 0.35361 0.0
H2096 H 0.56353 0.54041 0.34238 0.0
H2097 H 0.60695 0.51168 0.35885 0.0
H2098 H 0.69003 0.59976 0.263 0.0
H2099 H 0.66388 0.61939 0.31057 0.0
H2100 H 0.59935 0.47671 0.25107 0.0
H2101 H 0.57002 0.51113 0.28367 0.0
H2102 H 0.56815 0.45342 0.23956 0.0
H2103 H 0.53934 0.48735 0.27151 0.0
H2104 H 0.62711 0.5196 0.22057 0.0
H2105 H 0.67191 0.53638 0.26822 0.0
H2106 H 0.64935 0.50736 0.20139 0.0
H2107 H 0.69342 0.52389 0.2482 0.0
H2108 H 0.58054 0.55994 0.20653 0.0
H2109 H 0.57649 0.49984 0.19262 0.0
H2110 H 0.67653 0.4814 0.30282 0.0
H2111 H 0.65312 0.46261 0.24364 0.0
Dy2112 Dy 0.04491 0.03636 0.03079 0.0
Dy2113 Dy 0.00257 0.01383 0.01034 0.0
C2114 C 0.03775 0.0216 0.98569 0.0
O2115 O 0.03427 0.05751 0.0147 0.0
O2116 O 0.00208 0.04501 0.01295 0.0
O2117 O 0.06753 0.06229 0.03835 0.0
O2118 O 0.07133 0.03614 0.04751 0.0
O2119 O 1.00023 0.01664 0.04165 0.0
O2120 O 0.02627 0.04144 0.05311 0.0
O2121 O 0.01878 0.99122 0.01304 0.0
O2122 O 0.03961 0.00674 0.03912 0.0
O2123 O 0.97999 0.98791 0.00575 0.0
O2124 O 0.97655 0.0117 0.99157 0.0
C2125 C 0.01666 0.05931 0.01148 0.0
O2126 O 0.04978 0.02474 0.00154 0.0
O2127 O 0.01929 0.01928 0.98604 0.0
C2128 C 0.09776 0.05578 0.0379 0.0
C2129 C 0.13009 0.04982 0.02207 0.0
C2130 C 0.11409 0.05171 0.01029 0.0
C2131 C 0.09799 0.05455 0.01814 0.0
C2132 C 0.11427 0.05562 0.04981 0.0
C2133 C 0.13035 0.05269 0.04197 0.0
C2134 C 0.0796 0.05358 0.04571 0.0
C2135 C 0.01016 0.02973 0.05555 0.0
C2136 C 0.03055 0.99074 0.02818 0.0
C2137 C 0.94969 0.9944 0.00315 0.0
C2138 C 0.91712 0.00108 0.01794 0.0
C2139 C 0.93206 -0.00246 0.02996 0.0
C2140 C 0.94828 0.99435 0.02266 0.0
C2141 C 0.93412 -0.00374 0.99087 0.0
C2142 C 0.91793 -0.00042 -0.0018 0.0
C2143 C 0.96811 -0.00473 -0.00394 0.0
H2144 H 0.11356 0.04983 0.99494 0.0
H2145 H 0.08531 0.05453 0.00868 0.0
H2146 H 0.11424 0.05636 0.06507 0.0
H2147 H 0.14234 0.05112 0.05146 0.0
H2148 H 0.93172 -0.00164 0.04518 0.0
H2149 H 0.96013 0.99295 0.03245 0.0
H2150 H 0.935 -0.0036 0.9758 0.0
H2151 H 0.90674 0.00245 0.98858 0.0
Dy2152 Dy 0.28508 0.77823 0.25078 0.0
Dy2153 Dy 0.26019 0.78054 0.28635 0.0
C2154 C 0.27856 0.81711 0.26846 0.0
O2155 O 0.30624 0.78551 0.27766 0.0
O2156 O 0.28648 0.77246 0.2983 0.0
O2157 O 0.3089 0.79051 0.23648 0.0
O2158 O 0.29108 0.76209 0.22605 0.0
O2159 O 0.25308 0.7498 0.27442 0.0
O2160 O 0.28015 0.74997 0.26048 0.0
O2161 O 0.24135 0.78561 0.26171 0.0
O2162 O 0.25452 0.77319 0.23678 0.0
O2163 O 0.23592 0.77061 0.30107 0.0
O2164 O 0.25742 0.79651 0.31272 0.0
C2165 C 0.30376 0.77847 0.2937 0.0
O2166 O 0.27884 0.8066 0.25245 0.0
O2167 O 0.2771 0.80975 0.2843 0.0
C2168 C 0.30296 0.78103 0.20349 0.0
C2169 C 0.30003 0.79224 0.16719 0.0
C2170 C 0.28388 0.78825 0.17678 0.0
C2171 C 0.28536 0.78278 0.19484 0.0
C2172 C 0.31904 0.7846 0.19387 0.0
C2173 C 0.31761 0.79024 0.17582 0.0
C2174 C 0.30469 0.77614 0.22278 0.0
C2175 C 0.26479 0.7409 0.26683 0.0
C2176 C 0.24054 0.77954 0.24348 0.0
C2177 C 0.24536 0.77675 0.33411 0.0
C2178 C 0.25645 0.76772 0.37003 0.0
C2179 C 0.26063 0.75802 0.35349 0.0
C2180 C 0.25519 0.76254 0.33568 0.0
C2181 C 0.24056 0.78605 0.35046 0.0
C2182 C 0.246 0.7815 0.36837 0.0
C2183 C 0.24272 0.78361 0.31585 0.0
H2184 H 0.27025 0.79004 0.17062 0.0
H2185 H 0.27284 0.78025 0.20219 0.0
H2186 H 0.33272 0.78333 0.20045 0.0
H2187 H 0.33024 0.79321 0.16868 0.0
H2188 H 0.26832 0.74707 0.35433 0.0
H2189 H 0.25921 0.75539 0.32317 0.0
H2190 H 0.23325 0.79728 0.34943 0.0
H2191 H 0.24266 0.7892 0.38092 0.0
Dy2192 Dy 0.50133 0.02371 0.52153 0.0
Dy2193 Dy 0.5454 0.03 0.51055 0.0
C2194 C 0.51087 0.03269 0.48113 0.0
O2195 O 0.50319 0.99499 0.50719 0.0
O2196 O 0.53562 -0.00102 0.51354 0.0
O2197 O 0.47089 0.01336 0.51276 0.0
O2198 O 0.48159 0.02758 0.54155 0.0
O2199 O 0.54706 0.03336 0.54205 0.0
O2200 O 0.51776 0.01457 0.5453 0.0
O2201 O 0.54078 0.05975 0.51354 0.0
O2202 O 0.51601 0.0546 0.53168 0.0
O2203 O 0.57604 0.04133 0.51752 0.0
O2204 O 0.56436 0.02374 0.49055 0.0
C2205 C 0.51829 0.98782 0.50824 0.0
O2206 O 0.50253 0.03774 0.49552 0.0
O2207 O 0.52543 0.02516 0.48349 0.0
C2208 C 0.4531 0.03332 0.52697 0.0
C2209 C 0.4275 0.0571 0.52458 0.0
C2210 C 0.43807 0.05396 0.50956 0.0
C2211 C 0.45078 0.0423 0.51078 0.0
C2212 C 0.44262 0.03639 0.54197 0.0
C2213 C 0.43002 0.04817 0.54083 0.0
C2214 C 0.46662 0.02109 0.52863 0.0
C2215 C 0.53551 0.02332 0.55219 0.0
C2216 C 0.52955 0.06628 0.52465 0.0
C2217 C 0.59376 0.02043 0.50525 0.0
C2218 C 0.61999 -0.00238 0.50974 0.0
C2219 C 0.60666 -0.00158 0.52264 0.0
C2220 C 0.59361 0.00963 0.52036 0.0
C2221 C 0.60704 0.01973 0.49241 0.0
C2222 C 0.62 0.00843 0.49459 0.0
C2223 C 0.57979 0.03195 0.50234 0.0
H2224 H 0.43639 0.06033 0.4967 0.0
H2225 H 0.45878 0.04031 0.49901 0.0
H2226 H 0.4443 0.02976 0.55467 0.0
H2227 H 0.42246 0.05047 0.55286 0.0
H2228 H 0.60608 0.9901 0.53431 0.0
H2229 H 0.58331 0.00976 0.53032 0.0
H2230 H 0.60735 0.02789 0.48061 0.0
H2231 H 0.63018 0.0083 0.48451 0.0
Dy2232 Dy 0.2954 0.27247 0.77065 0.0
Dy2233 Dy 0.25301 0.28365 0.76714 0.0
C2234 C 0.29195 0.31345 0.76241 0.0
O2235 O 0.29281 0.28653 0.79987 0.0
O2236 O 0.26008 0.27984 0.79744 0.0
O2237 O 0.32594 0.28129 0.77969 0.0
O2238 O 0.31307 0.25294 0.76469 0.0
O2239 O 0.24659 0.25215 0.76585 0.0
O2240 O 0.27505 0.24772 0.77967 0.0
O2241 O 0.25946 0.28022 0.73682 0.0
O2242 O 0.28201 0.26286 0.74036 0.0
O2243 O 0.22281 0.27791 0.75658 0.0
O2244 O 0.23646 0.30306 0.77669 0.0
C2245 C 0.27698 0.28522 0.80779 0.0
O2246 O 0.29923 0.29913 0.7575 0.0
O2247 O 0.27592 0.31094 0.76996 0.0
C2248 C 0.34445 0.2679 0.75859 0.0
C2249 C 0.37479 0.27141 0.73574 0.0
C2250 C 0.36814 0.28734 0.74214 0.0
C2251 C 0.35317 0.2856 0.75336 0.0
C2252 C 0.35091 0.25197 0.75211 0.0
C2253 C 0.36579 0.25367 0.74081 0.0
C2254 C 0.329 0.26578 0.77106 0.0
C2255 C 0.25649 0.24163 0.77404 0.0
C2256 C 0.27016 0.26965 0.72956 0.0
C2257 C 0.20405 0.28873 0.77882 0.0
C2258 C 0.17341 0.28342 0.80113 0.0
C2259 C 0.18696 0.27247 0.80242 0.0
C2260 C 0.20216 0.27515 0.79144 0.0
C2261 C 0.1905 0.29951 0.77735 0.0
C2262 C 0.17539 0.2969 0.78834 0.0
C2263 C 0.22032 0.29236 0.76761 0.0
H2264 H 0.37475 0.30129 0.73881 0.0
H2265 H 0.34857 0.29821 0.75807 0.0
H2266 H 0.34446 0.23814 0.75586 0.0
H2267 H 0.37013 0.24096 0.73594 0.0
H2268 H 0.18608 0.2621 0.81222 0.0
H2269 H 0.21254 0.26676 0.79293 0.0
H2270 H 0.19168 0.31008 0.76773 0.0
H2271 H 0.16514 0.3054 0.78669 0.0
Dy2272 Dy 0.03155 0.00671 0.51808 0.0
Dy2273 Dy 0.02012 0.04846 0.52379 0.0
C2274 C 0.9902 0.00946 0.5268 0.0
O2275 O 0.01752 0.0101 0.48933 0.0
O2276 O 0.02428 0.04267 0.49325 0.0
O2277 O 0.02296 0.97649 0.50802 0.0
O2278 O 0.05128 0.98913 0.52333 0.0
O2279 O 0.05186 0.0545 0.52659 0.0
O2280 O 0.0562 0.02767 0.50939 0.0
O2281 O 0.02289 0.04063 0.55355 0.0
O2282 O 0.04176 0.01978 0.54837 0.0
O2283 O 0.02637 0.07843 0.53497 0.0
O2284 O 0.00036 0.06517 0.51588 0.0
C2285 C 0.01882 0.02618 0.4822 0.0
O2286 O 0.00462 0.00222 0.53142 0.0
O2287 O 0.99276 0.02559 0.5198 0.0
C2288 C 0.03605 0.95783 0.52851 0.0
C2289 C 0.03162 0.92765 0.55101 0.0
C2290 C 0.01784 0.9383 0.54934 0.0
C2291 C 0.02007 0.95324 0.53831 0.0
C2292 C 0.04985 0.94733 0.53022 0.0
C2293 C 0.04771 0.93248 0.54135 0.0
C2294 C 0.03851 0.97334 0.51644 0.0
C2295 C 0.06253 0.04565 0.5171 0.0
C2296 C 0.03428 0.0304 0.55999 0.0
C2297 C 0.01501 0.09721 0.51344 0.0
C2298 C 0.02016 0.12742 0.49109 0.0
C2299 C 0.03312 0.11581 0.49194 0.0
C2300 C 0.03052 0.10082 0.50292 0.0
C2301 C 0.00216 0.1088 0.51273 0.0
C2302 C 0.00467 0.1237 0.50169 0.0
C2303 C 0.01159 0.08113 0.52468 0.0
H2304 H 0.00541 0.93523 0.55676 0.0
H2305 H 0.00925 0.96119 0.53742 0.0
H2306 H 0.0623 0.95056 0.52283 0.0
H2307 H 0.05853 0.92453 0.54209 0.0
H2308 H 0.04508 0.11807 0.48382 0.0
H2309 H 0.04053 0.09194 0.50307 0.0
H2310 H 0.99006 0.10626 0.52067 0.0
H2311 H 0.99454 0.13243 0.50162 0.0
Dy2312 Dy 0.27545 0.796 0.76764 0.0
Dy2313 Dy 0.26855 0.75048 0.77446 0.0
C2314 C 0.25885 0.78107 0.80416 0.0
O2315 O 0.30325 0.794 0.78407 0.0
O2316 O 0.30042 0.76188 0.77722 0.0
O2317 O 0.28373 0.82562 0.77988 0.0
O2318 O 0.27377 0.81768 0.74962 0.0
O2319 O 0.27416 0.75175 0.74454 0.0
O2320 O 0.28971 0.78329 0.74526 0.0
O2321 O 0.23874 0.75459 0.76761 0.0
O2322 O 0.24631 0.78072 0.75199 0.0
O2323 O 0.25754 0.72031 0.76451 0.0
O2324 O 0.27311 0.72994 0.79279 0.0
C2325 C 0.3109 0.77926 0.78337 0.0
O2326 O 0.25706 0.79137 0.79057 0.0
O2327 O 0.26734 0.76717 0.80226 0.0
C2328 C 0.26607 0.84487 0.76504 0.0
C2329 C 0.24352 0.87167 0.76709 0.0
C2330 C 0.24254 0.85828 0.77996 0.0
C2331 C 0.25365 0.84499 0.77891 0.0
C2332 C 0.2669 0.85799 0.75205 0.0
C2333 C 0.25574 0.87119 0.75301 0.0
C2334 C 0.27841 0.8314 0.76399 0.0
C2335 C 0.28536 0.76541 0.73748 0.0
C2336 C 0.23352 0.7665 0.75677 0.0
C2337 C 0.27746 0.70173 0.77655 0.0
C2338 C 0.30092 0.67595 0.7727 0.0
C2339 C 0.30659 0.69429 0.76747 0.0
C2340 C 0.29499 0.70705 0.76939 0.0
C2341 C 0.2716 0.68342 0.78149 0.0
C2342 C 0.28317 0.67066 0.77958 0.0
C2343 C 0.26564 0.71538 0.77967 0.0
H2344 H 0.23349 0.85827 0.79112 0.0
H2345 H 0.25264 0.83495 0.78907 0.0
H2346 H 0.27626 0.85807 0.74115 0.0
H2347 H 0.25664 0.88094 0.7426 0.0
H2348 H 0.32022 0.69899 0.76233 0.0
H2349 H 0.29983 0.72117 0.76557 0.0
H2350 H 0.25812 0.67903 0.78703 0.0
H2351 H 0.27814 0.65659 0.78345 0.0
Dy2352 Dy 0.5229 0.03794 0.00282 0.0
Dy2353 Dy 0.53069 0.01662 0.03957 0.0
C2354 C 0.53132 -0.00338 -0.0026 0.0
O2355 O 0.49506 0.03047 0.01405 0.0
O2356 O 0.49976 0.00524 0.02848 0.0
O2357 O 0.50574 0.03897 0.97661 0.0
O2358 O 0.53058 0.06209 0.98783 0.0
O2359 O 0.51931 0.04115 0.05105 0.0
O2360 O 0.52836 0.06018 0.02848 0.0
O2361 O 0.55816 0.03706 0.03736 0.0
O2362 O 0.5538 0.03818 0.00534 0.0
O2363 O 0.54238 0.0174 0.06882 0.0
O2364 O 0.52899 0.99042 0.05123 0.0
C2365 C 0.48838 0.01484 0.02115 0.0
O2366 O 0.52106 0.00766 0.99074 0.0
O2367 O 0.53971 0.00025 0.01513 0.0
C2368 C 0.52515 0.05253 0.95509 0.0
C2369 C 0.54194 0.05004 0.9215 0.0
C2370 C 0.54323 0.03722 0.93455 0.0
C2371 C 0.53492 0.03847 0.9512 0.0
C2372 C 0.52361 0.06529 0.94212 0.0
C2373 C 0.53199 0.06407 0.92537 0.0
C2374 C 0.51765 0.0543 0.97324 0.0
C2375 C 0.52291 0.05799 0.04529 0.0
C2376 C 0.56502 0.04091 0.02156 0.0
C2377 C 0.52427 0.99333 0.08318 0.0
C2378 C 0.50215 0.98409 0.11244 0.0
C2379 C 0.49468 0.99122 0.09663 0.0
C2380 C 0.50567 -0.00418 0.08213 0.0
C2381 C 0.53169 0.98584 0.09864 0.0
C2382 C 0.52069 0.98125 0.11322 0.0
C2383 C 0.53598 -0.00092 0.06837 0.0
H2384 H 0.55114 0.02653 0.93218 0.0
H2385 H 0.53643 0.02867 0.96125 0.0
H2386 H 0.51618 0.07629 0.94507 0.0
H2387 H 0.53076 0.07408 0.9155 0.0
H2388 H 0.48061 0.99392 0.09578 0.0
H2389 H 0.49981 0.00169 0.07027 0.0
H2390 H 0.54605 0.98383 0.09956 0.0
H2391 H 0.52675 0.97569 0.12519 0.0
Dy2392 Dy 0.26331 0.25685 0.25808 0.0
Dy2393 Dy 0.28732 0.2983 0.27973 0.0
C2394 C 0.28073 0.26287 0.3027 0.0
O2395 O 0.24139 0.27394 0.26133 0.0
O2396 O 0.25744 0.29387 0.28784 0.0
O2397 O 0.23844 0.23329 0.25638 0.0
O2398 O 0.25798 0.23317 0.23549 0.0
O2399 O 0.2751 0.30396 0.25104 0.0
O2400 O 0.26993 0.27403 0.23465 0.0
O2401 O 0.30976 0.28633 0.26705 0.0
O2402 O 0.2941 0.25467 0.25919 0.0
O2403 O 0.30912 0.32436 0.28076 0.0
O2404 O 0.29286 0.31994 0.30435 0.0
C2405 C 0.24125 0.28535 0.27693 0.0
O2406 O 0.26683 0.25382 0.28916 0.0
O2407 O 0.293 0.2785 0.3002 0.0
C2408 C 0.24587 0.20442 0.24644 0.0
C2409 C 0.25904 0.17226 0.25271 0.0
C2410 C 0.25791 0.18545 0.26819 0.0
C2411 C 0.25148 0.20147 0.26507 0.0
C2412 C 0.24542 0.19047 0.2311 0.0
C2413 C 0.25198 0.17446 0.23421 0.0
C2414 C 0.2438 0.22319 0.24273 0.0
C2415 C 0.27222 0.29239 0.23485 0.0
C2416 C 0.30983 0.26866 0.26103 0.0
C2417 C 0.30101 0.35085 0.29655 0.0
C2418 C 0.28931 0.38483 0.2972 0.0
C2419 C 0.28857 0.37335 0.27982 0.0
C2420 C 0.29426 0.35644 0.2795 0.0
C2421 C 0.30247 0.36263 0.31385 0.0
C2422 C 0.29659 0.3795 0.3142 0.0
C2423 C 0.3049 0.33207 0.29661 0.0
H2424 H 0.26345 0.18423 0.28257 0.0
H2425 H 0.25214 0.21214 0.27714 0.0
H2426 H 0.24121 0.19257 0.21664 0.0
H2427 H 0.25256 0.16437 0.22207 0.0
H2428 H 0.28271 0.37694 0.26654 0.0
H2429 H 0.29275 0.34746 0.26597 0.0
H2430 H 0.30757 0.35847 0.32714 0.0
H2431 H 0.29733 0.38816 0.32776 0.0
Dy2432 Dy 0.53231 0.50645 0.01545 0.0
Dy2433 Dy 0.5206 0.54819 0.02061 0.0
C2434 C 0.49006 0.50917 0.02301 0.0
O2435 O 0.52871 0.51344 0.98544 0.0
O2436 O 0.51066 0.53521 0.99022 0.0
O2437 O 0.52654 0.47644 0.00456 0.0
O2438 O 0.55218 0.49012 0.02411 0.0
O2439 O 0.54725 0.55283 0.00695 0.0
O2440 O 0.55959 0.52938 0.01786 0.0
O2441 O 0.53553 0.54547 0.04916 0.0
O2442 O 0.52848 0.51295 0.04598 0.0
O2443 O 0.52903 0.57846 0.03042 0.0
O2444 O 0.5005 0.56538 0.01585 0.0
C2445 C 0.51769 0.52394 0.97882 0.0
O2446 O 0.50057 0.49992 0.01373 0.0
O2447 O 0.49628 0.52739 0.02982 0.0
C2448 C 0.53778 0.45796 0.02685 0.0
C2449 C 0.53254 0.42773 0.04927 0.0
C2450 C 0.51675 0.43365 0.04123 0.0
C2451 C 0.51934 0.44864 0.03022 0.0
C2452 C 0.5535 0.45195 0.03472 0.0
C2453 C 0.55094 0.43711 0.04582 0.0
C2454 C 0.54112 0.47401 0.01542 0.0
C2455 C 0.5618 0.5456 0.011 0.0
C2456 C 0.53414 0.52962 0.05668 0.0
C2457 C 0.51494 0.59672 0.0106 0.0
C2458 C 0.5187 0.62678 0.9881 0.0
C2459 C 0.52644 0.61116 0.98339 0.0
C2460 C 0.52458 0.59631 0.99451 0.0
C2461 C 0.5071 0.61213 0.01529 0.0
C2462 C 0.50893 0.62697 0.0042 0.0
C2463 C 0.51308 0.58132 0.02264 0.0
H2464 H 0.5024 0.42692 0.04372 0.0
H2465 H 0.50692 0.45298 0.02447 0.0
H2466 H 0.56785 0.45882 0.03232 0.0
H2467 H 0.56342 0.43282 0.05152 0.0
H2468 H 0.53424 0.61054 0.97128 0.0
H2469 H 0.53076 0.58454 0.99061 0.0
H2470 H 0.49953 0.6127 0.02759 0.0
H2471 H 0.50248 0.63851 0.00815 0.0
Dy2472 Dy 0.77947 0.30138 0.26714 0.0
Dy2473 Dy 0.77173 0.25708 0.27699 0.0
C2474 C 0.76477 0.29031 0.30586 0.0
O2475 O 0.80901 0.29636 0.27249 0.0
O2476 O 0.80164 0.27224 0.2907 0.0
O2477 O 0.79121 0.33171 0.27529 0.0
O2478 O 0.7753 0.3208 0.24732 0.0
O2479 O 0.78836 0.25903 0.25248 0.0
O2480 O 0.77776 0.28258 0.23989 0.0
O2481 O 0.74375 0.25887 0.26075 0.0
O2482 O 0.7476 0.29124 0.26624 0.0
O2483 O 0.76268 0.22686 0.26683 0.0
O2484 O 0.77352 0.23692 0.29665 0.0
C2485 C 0.81438 0.28526 0.28423 0.0
O2486 O 0.77713 0.30221 0.298 0.0
O2487 O 0.75848 0.27226 0.2987 0.0
C2488 C 0.77155 0.35019 0.2618 0.0
C2489 C 0.74901 0.37696 0.26462 0.0
C2490 C 0.75647 0.37065 0.28104 0.0
C2491 C 0.76756 0.35739 0.27965 0.0
C2492 C 0.76424 0.35654 0.24544 0.0
C2493 C 0.75306 0.36966 0.2468 0.0
C2494 C 0.78293 0.33587 0.25978 0.0
C2495 C 0.78554 0.26819 0.23816 0.0
C2496 C 0.73659 0.27392 0.26087 0.0
C2497 C 0.78157 0.20922 0.28235 0.0
C2498 C 0.80589 0.18413 0.27943 0.0
C2499 C 0.78736 0.17918 0.26915 0.0
C2500 C 0.77536 0.19155 0.27064 0.0
C2501 C 0.80005 0.21419 0.29273 0.0
C2502 C 0.81203 0.20176 0.29134 0.0
C2503 C 0.7688 0.22235 0.28313 0.0
H2504 H 0.75392 0.3761 0.29504 0.0
H2505 H 0.77296 0.35279 0.29256 0.0
H2506 H 0.76704 0.35118 0.2315 0.0
H2507 H 0.74733 0.37384 0.23379 0.0
H2508 H 0.78205 0.16564 0.26005 0.0
H2509 H 0.7612 0.18734 0.26252 0.0
H2510 H 0.80535 0.22776 0.3018 0.0
H2511 H 0.82625 0.20614 0.2993 0.0
Dy2512 Dy 0.01657 0.534 0.50143 0.0
Dy2513 Dy 0.02684 0.51391 0.53851 0.0
C2514 C 0.02714 0.49333 0.49635 0.0
O2515 O 0.98906 0.52469 0.51304 0.0
O2516 O 0.99623 0.50041 0.52748 0.0
O2517 O 0.99922 0.53365 0.47485 0.0
O2518 O 0.02174 0.5587 0.48693 0.0
O2519 O 0.01465 0.53781 0.55002 0.0
O2520 O 0.0225 0.55652 0.52694 0.0
O2521 O 0.05306 0.53545 0.53483 0.0
O2522 O 0.04767 0.53539 0.50273 0.0
O2523 O 0.04499 0.51497 0.56471 0.0
O2524 O 0.02195 0.48996 0.55425 0.0
C2525 C 0.98372 0.50888 0.52031 0.0
O2526 O 0.01684 0.50424 0.48945 0.0
O2527 O 0.03511 0.4967 0.51423 0.0
C2528 C 0.018 0.55 0.45413 0.0
C2529 C 0.03911 0.55264 0.42328 0.0
C2530 C 0.03746 0.53698 0.43331 0.0
C2531 C 0.02708 0.53573 0.44867 0.0
C2532 C 0.01892 0.56528 0.44374 0.0
C2533 C 0.02938 0.56657 0.42831 0.0
C2534 C 0.0097 0.55 0.47196 0.0
C2535 C 0.01765 0.55451 0.54399 0.0
C2536 C 0.05937 0.53881 0.51868 0.0
C2537 C 0.02783 0.49957 0.58733 0.0
C2538 C 0.01042 0.50032 0.62074 0.0
C2539 C 0.01974 0.51736 0.61474 0.0
C2540 C 0.02829 0.51701 0.59815 0.0
C2541 C 0.01929 0.48251 0.59375 0.0
C2542 C 0.01055 0.48287 0.61031 0.0
C2543 C 0.03464 0.49903 0.5686 0.0
H2544 H 0.04452 0.52587 0.42953 0.0
H2545 H 0.02669 0.52392 0.45668 0.0
H2546 H 0.01217 0.57652 0.44798 0.0
H2547 H 0.03052 0.57883 0.42086 0.0
H2548 H 0.0196 0.53101 0.62235 0.0
H2549 H 0.03462 0.53042 0.59347 0.0
H2550 H 0.01878 0.46893 0.58559 0.0
H2551 H 0.00351 0.46954 0.61471 0.0
Dy2552 Dy 0.79488 0.77377 0.27066 0.0
Dy2553 Dy 0.7523 0.7844 0.267 0.0
C2554 C 0.79099 0.81443 0.2624 0.0
O2555 O 0.79211 0.78798 0.29973 0.0
O2556 O 0.75937 0.78067 0.29733 0.0
O2557 O 0.82543 0.78306 0.27946 0.0
O2558 O 0.81276 0.75434 0.26526 0.0
O2559 O 0.7462 0.75296 0.26609 0.0
O2560 O 0.77487 0.74908 0.28 0.0
O2561 O 0.75891 0.78096 0.23672 0.0
O2562 O 0.78148 0.76366 0.24046 0.0
O2563 O 0.72212 0.77841 0.2561 0.0
O2564 O 0.73541 0.80346 0.27647 0.0
C2565 C 0.77627 0.78634 0.30767 0.0
O2566 O 0.7982 0.80017 0.25713 0.0
O2567 O 0.77512 0.81179 0.27022 0.0
C2568 C 0.84386 0.76926 0.25885 0.0
C2569 C 0.87355 0.77252 0.23539 0.0
C2570 C 0.86289 0.78628 0.23692 0.0
C2571 C 0.84816 0.78463 0.24843 0.0
C2572 C 0.85439 0.75549 0.25729 0.0
C2573 C 0.86902 0.75706 0.24569 0.0
C2574 C 0.82861 0.76735 0.27141 0.0
C2575 C 0.75633 0.74272 0.27441 0.0
C2576 C 0.76964 0.77037 0.22956 0.0
C2577 C 0.70308 0.78854 0.27836 0.0
C2578 C 0.67215 0.78232 0.30026 0.0
C2579 C 0.68885 0.77638 0.30547 0.0
C2580 C 0.70412 0.77944 0.29463 0.0
C2581 C 0.68646 0.79432 0.27301 0.0
C2582 C 0.67117 0.79124 0.28379 0.0
C2583 C 0.71938 0.79266 0.26724 0.0
H2584 H 0.86577 0.79824 0.22902 0.0
H2585 H 0.84016 0.79538 0.24921 0.0
H2586 H 0.85137 0.74351 0.26516 0.0
H2587 H 0.87701 0.7463 0.24507 0.0
H2588 H 0.69009 0.76925 0.31788 0.0
H2589 H 0.71681 0.77482 0.29902 0.0
H2590 H 0.68537 0.80146 0.26057 0.0
H2591 H 0.65874 0.79626 0.27942 0.0
Dy2592 Dy 0.78862 0.27784 0.74614 0.0
Dy2593 Dy 0.76428 0.27868 0.78204 0.0
C2594 C 0.7872 0.31621 0.76923 0.0
O2595 O 0.80741 0.27079 0.76992 0.0
O2596 O 0.79445 0.2818 0.79563 0.0
O2597 O 0.80374 0.29166 0.72506 0.0
O2598 O 0.80194 0.26186 0.72669 0.0
O2599 O 0.76858 0.24959 0.77556 0.0
O2600 O 0.76722 0.25013 0.74376 0.0
O2601 O 0.74225 0.27471 0.75637 0.0
O2602 O 0.76174 0.28533 0.73431 0.0
O2603 O 0.74026 0.26597 0.79577 0.0
O2604 O 0.7603 0.29232 0.80923 0.0
C2605 C 0.80813 0.27546 0.78842 0.0
O2606 O 0.79899 0.30639 0.76349 0.0
O2607 O 0.77051 0.30762 0.7735 0.0
C2608 C 0.79988 0.27123 0.69637 0.0
C2609 C 0.78796 0.26495 0.65686 0.0
C2610 C 0.77613 0.27052 0.66968 0.0
C2611 C 0.78198 0.27349 0.68922 0.0
C2612 C 0.8114 0.26484 0.68385 0.0
C2613 C 0.80545 0.26163 0.6642 0.0
C2614 C 0.80653 0.27585 0.71683 0.0
C2615 C 0.76586 0.24059 0.75819 0.0
C2616 C 0.74463 0.28068 0.73981 0.0
C2617 C 0.75008 0.26918 0.82843 0.0
C2618 C 0.75874 0.25307 0.86108 0.0
C2619 C 0.76722 0.24961 0.84466 0.0
C2620 C 0.76296 0.25762 0.8285 0.0
C2621 C 0.74153 0.27275 0.84472 0.0
C2622 C 0.74587 0.26475 0.86103 0.0
C2623 C 0.74648 0.27794 0.81145 0.0
H2624 H 0.76276 0.2736 0.66469 0.0
H2625 H 0.77279 0.27821 0.69872 0.0
H2626 H 0.82514 0.26274 0.68922 0.0
H2627 H 0.81477 0.25706 0.65478 0.0
H2628 H 0.77745 0.24098 0.84441 0.0
H2629 H 0.76988 0.25494 0.81608 0.0
H2630 H 0.73166 0.28177 0.84487 0.0
H2631 H 0.73909 0.26756 0.87351 0.0
Dy2632 Dy 0.76151 0.75591 0.75812 0.0
Dy2633 Dy 0.78552 0.79753 0.77873 0.0
C2634 C 0.7782 0.76268 0.8026 0.0
O2635 O 0.73897 0.77218 0.76166 0.0
O2636 O 0.75548 0.79514 0.78597 0.0
O2637 O 0.73612 0.7328 0.7552 0.0
O2638 O 0.75787 0.73124 0.737 0.0
O2639 O 0.77266 0.80326 0.75046 0.0
O2640 O 0.7671 0.7731 0.73437 0.0
O2641 O 0.80585 0.78586 0.76212 0.0
O2642 O 0.79255 0.75414 0.76102 0.0
O2643 O 0.80953 0.82185 0.78024 0.0
O2644 O 0.7912 0.82031 0.80234 0.0
C2645 C 0.73914 0.78527 0.77601 0.0
O2646 O 0.76403 0.75375 0.78932 0.0
O2647 O 0.79088 0.77778 0.79949 0.0
C2648 C 0.74308 0.70344 0.74824 0.0
C2649 C 0.74891 0.66864 0.75708 0.0
C2650 C 0.75589 0.68532 0.77028 0.0
C2651 C 0.75302 0.70255 0.76587 0.0
C2652 C 0.73522 0.68679 0.73537 0.0
C2653 C 0.73808 0.66943 0.73978 0.0
C2654 C 0.7424 0.722 0.74293 0.0
C2655 C 0.76925 0.79146 0.73437 0.0
C2656 C 0.80716 0.7682 0.75908 0.0
C2657 C 0.80296 0.85023 0.79332 0.0
C2658 C 0.79309 0.88476 0.79069 0.0
C2659 C 0.79296 0.87234 0.77412 0.0
C2660 C 0.79775 0.85515 0.77542 0.0
C2661 C 0.80426 0.86311 0.80981 0.0
C2662 C 0.7993 0.88028 0.80852 0.0
C2663 C 0.80489 0.83098 0.79504 0.0
H2664 H 0.76463 0.68536 0.78355 0.0
H2665 H 0.7593 0.71534 0.77592 0.0
H2666 H 0.72749 0.68733 0.7217 0.0
H2667 H 0.73244 0.65679 0.7294 0.0
H2668 H 0.78793 0.87529 0.76022 0.0
H2669 H 0.79644 0.84535 0.76249 0.0
H2670 H 0.80822 0.85949 0.82372 0.0
H2671 H 0.79956 0.88968 0.82148 0.0
Dy2672 Dy 0.54566 0.53856 0.52799 0.0
Dy2673 Dy 0.5033 0.51557 0.50714 0.0
C2674 C 0.53909 0.5225 0.48323 0.0
O2675 O 0.53445 0.56059 0.51404 0.0
O2676 O 0.50224 0.54663 0.50926 0.0
O2677 O 0.57201 0.55991 0.52844 0.0
O2678 O 0.56751 0.54452 0.55244 0.0
O2679 O 0.50083 0.5186 0.53836 0.0
O2680 O 0.52601 0.54436 0.54903 0.0
O2681 O 0.51904 0.49263 0.51029 0.0
O2682 O 0.54232 0.50844 0.53464 0.0
O2683 O 0.47967 0.49062 0.50405 0.0
O2684 O 0.47846 0.51256 0.4864 0.0
C2685 C 0.51673 0.56159 0.50944 0.0
O2686 O 0.5509 0.52595 0.49927 0.0
O2687 O 0.52062 0.52039 0.48323 0.0
C2688 C 0.59861 0.55222 0.5443 0.0
C2689 C 0.63315 0.54116 0.54522 0.0
C2690 C 0.62071 0.53812 0.52809 0.0
C2691 C 0.60353 0.54351 0.52765 0.0
C2692 C 0.61127 0.55589 0.56128 0.0
C2693 C 0.62842 0.55034 0.56177 0.0
C2694 C 0.57974 0.55616 0.5444 0.0
C2695 C 0.51029 0.53231 0.55187 0.0
C2696 C 0.53208 0.49238 0.52449 0.0
C2697 C 0.4503 0.49856 0.49803 0.0
C2698 C 0.4179 0.5092 0.50907 0.0
C2699 C 0.43213 0.50697 0.52287 0.0
C2700 C 0.44826 0.5018 0.51741 0.0
C2701 C 0.4354 0.49924 0.48419 0.0
C2702 C 0.41925 0.5045 0.48967 0.0
C2703 C 0.46888 0.49737 0.49236 0.0
H2704 H 0.62381 0.53076 0.5152 0.0
H2705 H 0.59385 0.54031 0.51442 0.0
H2706 H 0.60763 0.56254 0.57427 0.0
H2707 H 0.6378 0.55285 0.57514 0.0
H2708 H 0.43132 0.5103 0.53792 0.0
H2709 H 0.4596 0.50143 0.52837 0.0
H2710 H 0.43681 0.49688 0.46918 0.0
H2711 H 0.40855 0.50626 0.47874 0.0
Dy2712 Dy 1.00032 0.5214 0.02281 0.0
Dy2713 Dy 0.04461 0.5278 0.01245 0.0
C2714 C 0.01066 0.52741 0.98131 0.0
O2715 O 0.00457 0.49152 0.01951 0.0
O2716 O 0.03023 0.49677 0.00245 0.0
O2717 O 0.96963 0.51134 0.01486 0.0
O2718 O 0.98113 0.52675 0.04286 0.0
O2719 O 0.04343 0.51348 0.03825 0.0
O2720 O 0.01949 0.52452 0.05018 0.0
O2721 O 0.04272 0.55628 0.02722 0.0
O2722 O 0.01044 0.55247 0.02011 0.0
O2723 O 0.07501 0.53848 0.02131 0.0
O2724 O 0.06451 0.52417 0.99254 0.0
C2725 C 0.01624 0.48505 0.00891 0.0
O2726 O 0.99917 0.51714 0.99133 0.0
O2727 O 0.02814 0.53673 0.98855 0.0
C2728 C 0.95226 0.53231 0.02853 0.0
C2729 C 0.92638 0.55585 0.02534 0.0
C2730 C 0.92845 0.54355 0.00944 0.0
C2731 C 0.94119 0.53193 0.01102 0.0
C2732 C 0.95008 0.54446 0.04444 0.0
C2733 C 0.9374 0.55612 0.04286 0.0
C2734 C 0.96584 0.52003 0.03044 0.0
C2735 C 0.03427 0.51725 0.05246 0.0
C2736 C 0.02773 0.56355 0.0258 0.0
C2737 C 0.09318 0.51911 0.00726 0.0
C2738 C 0.11963 0.49641 0.01053 0.0
C2739 C 0.10472 0.49471 0.02191 0.0
C2740 C 0.09158 0.50588 0.02023 0.0
C2741 C 0.10793 0.5208 -0.00416 0.0
C2742 C 0.12101 0.50955 -0.00258 0.0
C2743 C 0.07945 0.53101 0.00542 0.0
H2744 H 0.92001 0.54267 -0.00421 0.0
H2745 H 0.94231 0.52261 -0.00152 0.0
H2746 H 0.95827 0.54503 0.05817 0.0
H2747 H 0.93643 0.56553 0.05538 0.0
H2748 H 0.10307 0.48456 0.03196 0.0
H2749 H 0.08017 0.50417 0.02906 0.0
H2750 H 0.10938 0.53089 0.98571 0.0
H2751 H 0.1324 0.51135 0.98856 0.0
H2752 H 0.97059 0.1506 0.96865 0.0
H2753 H 0.04376 0.09241 0.00961 0.0
H2754 H 0.03151 0.1742 0.98272 0.0
H2755 H 0.98265 0.06891 -0.00024 0.0
H2756 H 0.03921 0.12206 -0.00051 0.0
H2757 H 0.9744 0.12074 0.97926 0.0
C2758 C 0.98481 0.14962 0.97387 0.0
C2759 C 0.00072 0.16535 0.97467 0.0
C2760 C 0.02673 0.11049 -0.00046 0.0
C2761 C 0.00517 0.13065 0.98714 0.0
C2762 C 0.02931 0.0934 0.00537 0.0
C2763 C 0.01359 0.07783 0.00566 0.0
C2764 C 0.00823 0.11239 0.99374 0.0
C2765 C 0.99527 0.08036 -0.00011 0.0
C2766 C 0.98694 0.13246 0.98007 0.0
C2767 C 0.01867 0.16286 0.98196 0.0
N2768 N 0.99313 0.09715 0.99416 0.0
N2769 N 0.02035 0.14603 0.98777 0.0
H2770 H 0.15804 0.78053 0.14512 0.0
H2771 H 0.20861 0.79043 0.25271 0.0
H2772 H 0.13383 0.79828 0.19476 0.0
H2773 H 0.23351 0.77157 0.204 0.0
H2774 H 0.18133 0.79333 0.23142 0.0
H2775 H 0.18565 0.77716 0.16599 0.0
C2776 C 0.15842 0.78368 0.16038 0.0
C2777 C 0.14337 0.78973 0.16805 0.0
C2778 C 0.19271 0.78853 0.22531 0.0
C2779 C 0.17531 0.786 0.19218 0.0
C2780 C 0.20839 0.78683 0.23752 0.0
C2781 C 0.22355 0.7807 0.23026 0.0
C2782 C 0.19196 0.78412 0.20551 0.0
C2783 C 0.22222 0.7763 0.21034 0.0
C2784 C 0.17431 0.78182 0.17231 0.0
C2785 C 0.14505 0.79385 0.18802 0.0
N2786 N 0.20676 0.77811 0.1987 0.0
N2787 N 0.16061 0.79188 0.19929 0.0
H2788 H 0.53867 0.87534 0.47887 0.0
H2789 H 0.48492 0.95894 0.49829 0.0
H2790 H 0.47732 0.86492 0.47614 0.0
H2791 H 0.54631 0.96816 0.50647 0.0
H2792 H 0.48177 0.92474 0.48961 0.0
H2793 H 0.54161 0.90918 0.48862 0.0
C2794 C 0.52577 0.87999 0.48045 0.0
C2795 C 0.50767 0.86683 0.47657 0.0
C2796 C 0.49593 0.93423 0.49334 0.0
C2797 C 0.51104 0.90626 0.48757 0.0
C2798 C 0.49776 0.95385 0.49831 0.0
C2799 C 0.51593 0.9667 0.5032 0.0
C2800 C 0.51237 0.92717 0.4931 0.0
C2801 C 0.53197 0.95899 0.50289 0.0
C2802 C 0.52749 0.8995 0.48592 0.0
C2803 C 0.4916 0.87426 0.4786 0.0
N2804 N 0.52981 0.9399 0.49792 0.0
N2805 N 0.49366 0.8933 0.48387 0.0
H2806 H 0.45897 0.30702 0.65912 0.0
H2807 H 0.40326 0.25216 0.73624 0.0
H2808 H 0.47215 0.25781 0.67991 0.0
H2809 H 0.38392 0.29502 0.70845 0.0
H2810 H 0.42945 0.25517 0.71697 0.0
H2811 H 0.43273 0.30424 0.67852 0.0
C2812 C 0.45646 0.29569 0.66784 0.0
C2813 C 0.46789 0.28263 0.66779 0.0
C2814 C 0.41947 0.26391 0.71506 0.0
C2815 C 0.43763 0.2793 0.69008 0.0
C2816 C 0.40435 0.26212 0.72602 0.0
C2817 C 0.3911 0.27327 0.72405 0.0
C2818 C 0.42161 0.27706 0.702 0.0
C2819 C 0.39378 0.28625 0.71077 0.0
C2820 C 0.44135 0.29404 0.67883 0.0
C2821 C 0.46366 0.26809 0.67924 0.0
N2822 N 0.40867 0.28777 0.70032 0.0
N2823 N 0.44897 0.26687 0.68991 0.0
H2824 H 0.0494 0.84801 0.62918 0.0
H2825 H 0.99868 0.90057 0.55385 0.0
H2826 H 0.99117 0.82572 0.6018 0.0
H2827 H 0.05902 0.91782 0.57479 0.0
H2828 H 0.99516 0.87423 0.57269 0.0
H2829 H 0.05272 0.8744 0.61058 0.0
C2830 C 0.03731 0.8485 0.61919 0.0
C2831 C 0.01997 0.83435 0.61714 0.0
C2832 C 0.00918 0.88377 0.57317 0.0
C2833 C 0.02366 0.86507 0.59586 0.0
C2834 C 0.01119 0.89893 0.56248 0.0
C2835 C 0.0292 0.91155 0.56264 0.0
C2836 C 0.02524 0.88115 0.5843 0.0
C2837 C 0.04489 0.9084 0.57397 0.0
C2838 C 0.03921 0.86373 0.60863 0.0
C2839 C 0.00476 0.83627 0.60419 0.0
N2840 N 0.04254 0.89362 0.58433 0.0
N2841 N 0.00696 0.85127 0.5941 0.0
H2842 H 0.42543 0.7608 0.8026 0.0
H2843 H 0.33883 0.81247 0.79803 0.0
H2844 H 0.43323 0.8202 0.8237 0.0
H2845 H 0.33166 0.7523 0.78164 0.0
H2846 H 0.37334 0.81607 0.80668 0.0
H2847 H 0.39131 0.75793 0.79413 0.0
C2848 C 0.42008 0.77328 0.80558 0.0
C2849 C 0.43259 0.79079 0.81404 0.0
C2850 C 0.36419 0.80208 0.80121 0.0
C2851 C 0.39294 0.78757 0.80397 0.0
C2852 C 0.34442 0.8 0.79625 0.0
C2853 C 0.33207 0.78204 0.78907 0.0
C2854 C 0.37187 0.7861 0.79893 0.0
C2855 C 0.34039 0.76647 0.78712 0.0
C2856 C 0.40046 0.77163 0.8006 0.0
C2857 C 0.42445 0.80643 0.81703 0.0
N2858 N 0.35959 0.76887 0.79195 0.0
N2859 N 0.40529 0.80445 0.81206 0.0
H2860 H 0.49452 0.13775 0.13225 0.0
H2861 H 0.5327 0.0952 0.03926 0.0
H2862 H 0.52614 0.17191 0.09492 0.0
H2863 H 0.50801 0.05997 0.07955 0.0
H2864 H 0.52878 0.12309 0.05897 0.0
H2865 H 0.49743 0.10897 0.11261 0.0
C2866 C 0.50196 0.13924 0.11988 0.0
C2867 C 0.51017 0.15741 0.11536 0.0
C2868 C 0.52422 0.1093 0.06358 0.0
C2869 C 0.51363 0.1244 0.09281 0.0
C2870 C 0.52644 0.09326 0.05227 0.0
C2871 C 0.52071 0.07506 0.05767 0.0
C2872 C 0.51608 0.10733 0.08052 0.0
C2873 C 0.5127 0.07366 0.07479 0.0
C2874 C 0.50372 0.12278 0.10874 0.0
C2875 C 0.51981 0.15833 0.09921 0.0
N2876 N 0.51059 0.08954 0.08556 0.0
N2877 N 0.52123 0.14215 0.0886 0.0
H2878 H 0.1232 0.29454 0.28462 0.0
H2879 H 0.23448 0.2992 0.31239 0.0
H2880 H 0.14829 0.29416 0.34198 0.0
H2881 H 0.2051 0.27683 0.25581 0.0
H2882 H 0.20398 0.30179 0.32289 0.0
H2883 H 0.15366 0.29228 0.27334 0.0
C2884 C 0.13509 0.29408 0.29489 0.0
C2885 C 0.13297 0.29449 0.31435 0.0
C2886 C 0.20417 0.29635 0.30815 0.0
C2887 C 0.16821 0.29211 0.30145 0.0
C2888 C 0.22167 0.29496 0.30207 0.0
C2889 C 0.22258 0.28778 0.2831 0.0
C2890 C 0.18721 0.29088 0.29518 0.0
C2891 C 0.20525 0.28242 0.27056 0.0
C2892 C 0.15249 0.29268 0.2884 0.0
C2893 C 0.14903 0.2937 0.32686 0.0
N2894 N 0.18841 0.28418 0.27676 0.0
N2895 N 0.16586 0.29271 0.32025 0.0
H2896 H 0.99024 0.05933 0.17302 0.0
H2897 H 0.9814 0.00387 0.06767 0.0
H2898 H 0.9631 -0.0006 0.15717 0.0
H2899 H 0.02376 0.05676 0.08755 0.0
H2900 H 0.97175 0.00384 0.09949 0.0
H2901 H 0.00041 0.06017 0.14136 0.0
C2902 C 0.98649 0.04628 0.16307 0.0
C2903 C 0.97561 0.02926 0.16809 0.0
C2904 C 0.98314 0.01549 0.09692 0.0
C2905 C 0.98694 0.03035 0.13132 0.0
C2906 C 0.98863 0.01558 0.07866 0.0
C2907 C 0.0035 0.03034 0.07477 0.0
C2908 C 0.99237 0.03036 0.11157 0.0
C2909 C 0.01228 0.04505 0.08979 0.0
C2910 C 0.99223 0.04685 0.14487 0.0
C2911 C 0.97102 0.01301 0.15412 0.0
N2912 N 0.00656 0.04472 0.10746 0.0
N2913 N 0.97658 0.01401 0.1365 0.0
H2914 H 0.25918 0.72576 0.47757 0.0
H2915 H 0.29162 0.76297 0.38226 0.0
H2916 H 0.30841 0.71568 0.45299 0.0
H2917 H 0.23678 0.76292 0.40063 0.0
H2918 H 0.30136 0.75205 0.41192 0.0
H2919 H 0.25428 0.74576 0.45325 0.0
C2920 C 0.26901 0.72785 0.46709 0.0
C2921 C 0.28398 0.71875 0.467 0.0
C2922 C 0.28726 0.7546 0.40955 0.0
C2923 C 0.27858 0.7417 0.43936 0.0
C2924 C 0.28167 0.76073 0.39261 0.0
C2925 C 0.26322 0.76343 0.38886 0.0
C2926 C 0.2743 0.75113 0.42281 0.0
C2927 C 0.25109 0.7609 0.40294 0.0
C2928 C 0.26627 0.73933 0.45331 0.0
C2929 C 0.29665 0.72237 0.45351 0.0
N2930 N 0.25677 0.75464 0.41924 0.0
N2931 N 0.29352 0.7334 0.44005 0.0
H2932 H 0.60156 0.05029 0.66254 0.0
H2933 H 0.52366 -0.00444 0.57449 0.0
H2934 H 0.57741 0.9896 0.65627 0.0
H2935 H 0.56423 0.04944 0.57471 0.0
H2936 H 0.53832 0.99433 0.60691 0.0
H2937 H 0.58254 0.05143 0.63283 0.0
C2938 C 0.59204 0.03721 0.65501 0.0
C2939 C 0.59101 0.01982 0.66187 0.0
C2940 C 0.54386 0.00641 0.5998 0.0
C2941 C 0.56943 0.02099 0.62761 0.0
C2942 C 0.53549 0.00716 0.58143 0.0
C2943 C 0.54289 0.02255 0.57196 0.0
C2944 C 0.55941 0.02131 0.60866 0.0
C2945 C 0.55824 0.03721 0.58144 0.0
C2946 C 0.5813 0.03785 0.63796 0.0
C2947 C 0.57869 0.00326 0.65133 0.0
N2948 N 0.56597 0.03623 0.59926 0.0
N2949 N 0.56834 0.00422 0.63461 0.0
H2950 H 0.24588 0.30635 0.92135 0.0
H2951 H 0.30862 0.30079 0.83506 0.0
H2952 H 0.30694 0.33032 0.92795 0.0
H2953 H 0.24704 0.28122 0.82882 0.0
H2954 H 0.30881 0.31011 0.86933 0.0
H2955 H 0.24652 0.29568 0.88777 0.0
C2956 C 0.25945 0.30945 0.9158 0.0
C2957 C 0.27636 0.31939 0.92772 0.0
C2958 C 0.29528 0.30371 0.86044 0.0
C2959 C 0.27723 0.30689 0.88892 0.0
C2960 C 0.29516 0.29833 0.84085 0.0
C2961 C 0.2778 0.2902 0.82887 0.0
C2962 C 0.27792 0.3009 0.86822 0.0
C2963 C 0.26082 0.28746 0.83732 0.0
C2964 C 0.25981 0.30323 0.89655 0.0
C2965 C 0.29353 0.32255 0.91954 0.0
N2966 N 0.26133 0.29279 0.85634 0.0
N2967 N 0.2935 0.3164 0.90073 0.0
H2968 H 0.97456 -0.00476 0.36117 0.0
H2969 H 0.02116 0.0568 0.46274 0.0
H2970 H 0.99139 0.05662 0.37094 0.0
H2971 H 0.00455 -0.0046 0.45374 0.0
H2972 H 0.0114 0.05677 0.42897 0.0
H2973 H 0.9863 0.99486 0.39451 0.0
C2974 C 0.98069 0.00867 0.37028 0.0
C2975 C 0.98182 0.02601 0.36305 0.0
C2976 C 0.00993 0.04328 0.43431 0.0
C2977 C 0.99554 0.02562 0.40152 0.0
C2978 C 0.01554 0.04325 0.45369 0.0
C2979 C 0.01371 0.02605 0.46128 0.0
C2980 C 0.00231 0.02597 0.4222 0.0
C2981 C 0.00628 0.00902 0.44864 0.0
C2982 C 0.9875 0.00842 0.38936 0.0
C2983 C 0.99032 0.04288 0.37564 0.0
N2984 N 0.00082 0.00942 0.4298 0.0
N2985 N 0.99672 0.04225 0.39417 0.0
H2986 H 0.32113 0.69836 0.64959 0.0
H2987 H 0.2955 0.78619 0.70874 0.0
H2988 H 0.30048 0.74131 0.6233 0.0
H2989 H 0.29518 0.73243 0.72841 0.0
H2990 H 0.30737 0.77505 0.67955 0.0
H2991 H 0.32263 0.71665 0.68085 0.0
C2992 C 0.3174 0.71189 0.65039 0.0
C2993 C 0.31029 0.71819 0.63396 0.0
C2994 C 0.30492 0.76586 0.69043 0.0
C2995 C 0.31172 0.73894 0.66949 0.0
C2996 C 0.29815 0.77217 0.70698 0.0
C2997 C 0.29396 0.75999 0.72065 0.0
C2998 C 0.3078 0.74746 0.68789 0.0
C2999 C 0.29778 0.74204 0.71792 0.0
C3000 C 0.31813 0.72224 0.6682 0.0
C3001 C 0.30561 0.7358 0.63574 0.0
N3002 N 0.3044 0.73628 0.70179 0.0
N3003 N 0.30613 0.74547 0.65326 0.0
H3004 H 0.60458 0.01035 0.83739 0.0
H3005 H 0.56349 0.07953 0.90641 0.0
H3006 H 0.61397 0.07032 0.83349 0.0
H3007 H 0.54296 0.01832 0.89792 0.0
H3008 H 0.58284 0.07708 0.88049 0.0
H3009 H 0.58335 0.01358 0.86114 0.0
C3010 C 0.60212 0.0242 0.84149 0.0
C3011 C 0.61096 0.04007 0.83337 0.0
C3012 C 0.57396 0.06422 0.88423 0.0
C3013 C 0.58679 0.04391 0.86071 0.0
C3014 C 0.56282 0.06561 0.89889 0.0
C3015 C 0.55178 0.04908 0.90442 0.0
C3016 C 0.57408 0.04618 0.87519 0.0
C3017 C 0.55158 0.0314 0.89437 0.0
C3018 C 0.59 0.02604 0.85506 0.0
C3019 C 0.60759 0.05776 0.83954 0.0
N3020 N 0.56271 0.03041 0.88035 0.0
N3021 N 0.59574 0.05922 0.85288 0.0
H3022 H 0.26043 0.35395 0.13721 0.0
H3023 H 0.27511 0.27356 0.20044 0.0
H3024 H 0.28497 0.30795 0.11852 0.0
H3025 H 0.26929 0.3279 0.22609 0.0
H3026 H 0.2753 0.28491 0.16967 0.0
H3027 H 0.26022 0.3437 0.16891 0.0
C3028 C 0.26568 0.34164 0.13971 0.0
C3029 C 0.27272 0.3318 0.12506 0.0
C3030 C 0.27398 0.29441 0.18198 0.0
C3031 C 0.27246 0.31996 0.1614 0.0
C3032 C 0.27378 0.28791 0.19966 0.0
C3033 C 0.27213 0.29974 0.21607 0.0
C3034 C 0.27229 0.31291 0.18035 0.0
C3035 C 0.27061 0.31825 0.21391 0.0
C3036 C 0.26568 0.33589 0.15787 0.0
C3037 C 0.27955 0.31609 0.12931 0.0
N3038 N 0.27061 0.32423 0.19638 0.0
N3039 N 0.27912 0.31063 0.14695 0.0
H3040 H 0.1796 0.96304 0.97658 0.0
H3041 H 0.16897 0.05932 0.03344 0.0
H3042 H 0.22454 0.00089 0.01721 0.0
H3043 H 0.12464 0.0213 0.9923 0.0
H3044 H 0.19139 0.0409 0.02399 0.0
H3045 H 0.16111 0.98684 0.97853 0.0
C3046 C 0.18569 0.97646 0.98574 0.0
C3047 C 0.20352 0.97987 -0.00304 0.0
C3048 C 0.17684 0.03681 0.01681 0.0
C3049 C 0.18233 0.00711 -0.00056 0.0
C3050 C 0.16404 0.04732 0.0222 0.0
C3051 C 0.14484 0.04173 0.01383 0.0
C3052 C 0.17032 0.02054 0.00305 0.0
C3053 C 0.1393 0.02624 -0.00088 0.0
C3054 C 0.1751 0.99003 0.9869 0.0
C3055 C 0.21063 -0.00253 0.00867 0.0
N3056 N 0.1519 0.01603 0.99441 0.0
N3057 N 0.19994 0.01036 0.00975 0.0
H3058 H 0.65748 0.63423 0.99094 0.0
H3059 H 0.59638 0.53685 0.01903 0.0
H3060 H 0.68305 0.59196 0.01273 0.0
H3061 H 0.57148 0.57928 -0.0034 0.0
H3062 H 0.62817 0.55603 0.01561 0.0
H3063 H 0.62584 0.61344 0.99148 0.0
C3064 C 0.65649 0.6205 -0.00435 0.0
C3065 C 0.67306 0.61492 0.00184 0.0
C3066 C 0.61573 0.56109 0.01137 0.0
C3067 C 0.63668 0.59105 0.00278 0.0
C3068 C 0.59755 0.55012 0.0133 0.0
C3069 C 0.58117 0.55645 0.00817 0.0
C3070 C 0.61757 0.57853 0.00427 0.0
C3071 C 0.58364 0.5738 0.00082 0.0
C3072 C 0.63837 0.60866 -0.00392 0.0
C3073 C 0.67073 0.59703 0.00809 0.0
N3074 N 0.60145 0.58422 -0.00084 0.0
N3075 N 0.65293 0.58578 0.00845 0.0
H3076 H 0.6727 0.44638 0.29902 0.0
H3077 H 0.74796 0.40584 0.24314 0.0
H3078 H 0.68742 0.46183 0.24481 0.0
H3079 H 0.72263 0.38031 0.28925 0.0
H3080 H 0.72769 0.42804 0.24499 0.0
H3081 H 0.69283 0.42385 0.29724 0.0
C3082 C 0.6802 0.44507 0.28676 0.0
C3083 C 0.67834 0.45601 0.27203 0.0
C3084 C 0.72655 0.41757 0.25469 0.0
C3085 C 0.70145 0.43025 0.26991 0.0
C3086 C 0.73808 0.40476 0.25359 0.0
C3087 C 0.73703 0.39099 0.26598 0.0
C3088 C 0.71392 0.41681 0.2684 0.0
C3089 C 0.7242 0.39076 0.27953 0.0
C3090 C 0.69161 0.43213 0.28571 0.0
C3091 C 0.68826 0.45355 0.25639 0.0
N3092 N 0.7132 0.40346 0.28038 0.0
N3093 N 0.69943 0.44102 0.25579 0.0
H3094 H 0.8614 0.46925 0.48843 0.0
H3095 H 0.96733 0.47986 0.53905 0.0
H3096 H 0.87429 0.4401 0.5356 0.0
H3097 H 0.95324 0.51774 0.50076 0.0
H3098 H 0.93336 0.46443 0.5372 0.0
H3099 H 0.89505 0.48661 0.49203 0.0
C3100 C 0.87126 0.46659 0.49964 0.0
C3101 C 0.86499 0.45312 0.51169 0.0
C3102 C 0.93768 0.47618 0.52927 0.0
C3103 C 0.90358 0.47276 0.51569 0.0
C3104 C 0.95709 0.48497 0.53028 0.0
C3105 C 0.96314 0.50007 0.51998 0.0
C3106 C 0.92421 0.48239 0.51774 0.0
C3107 C 0.94921 0.50616 0.50895 0.0
C3108 C 0.89048 0.47646 0.50163 0.0
C3109 C 0.8785 0.45007 0.52576 0.0
N3110 N 0.93038 0.49721 0.50802 0.0
N3111 N 0.89716 0.45976 0.52732 0.0
H3112 H 0.3533 0.12059 0.2556 0.0
H3113 H 0.25815 0.14906 0.28051 0.0
H3114 H 0.31865 0.09404 0.29565 0.0
H3115 H 0.28647 0.16463 0.23216 0.0
H3116 H 0.28093 0.13009 0.28781 0.0
H3117 H 0.33015 0.13911 0.24895 0.0
C3118 C 0.34087 0.11875 0.26307 0.0
C3119 C 0.33782 0.10569 0.2761 0.0
C3120 C 0.282 0.13751 0.27549 0.0
C3121 C 0.31128 0.12676 0.26855 0.0
C3122 C 0.269 0.14825 0.27131 0.0
C3123 C 0.2704 0.15832 0.25567 0.0
C3124 C 0.29658 0.13707 0.26408 0.0
C3125 C 0.28469 0.15685 0.24417 0.0
C3126 C 0.32764 0.12928 0.25924 0.0
C3127 C 0.32164 0.10409 0.28563 0.0
N3128 N 0.29732 0.14655 0.2487 0.0
N3129 N 0.30889 0.11445 0.28159 0.0
H3130 H 0.33469 0.11156 0.53907 0.0
H3131 H 0.43115 0.08993 0.50802 0.0
H3132 H 0.36582 0.14061 0.49811 0.0
H3133 H 0.39277 0.05303 0.53828 0.0
H3134 H 0.40866 0.10994 0.50596 0.0
H3135 H 0.35727 0.09158 0.541 0.0
C3136 C 0.34634 0.11383 0.53056 0.0
C3137 C 0.34834 0.12784 0.51843 0.0
C3138 C 0.40517 0.09745 0.51303 0.0
C3139 C 0.37428 0.10488 0.52051 0.0
C3140 C 0.41797 0.0859 0.51414 0.0
C3141 C 0.41395 0.06962 0.52333 0.0
C3142 C 0.38821 0.09286 0.5213 0.0
C3143 C 0.39675 0.06552 0.53132 0.0
C3144 C 0.35917 0.10231 0.53157 0.0
C3145 C 0.36359 0.12989 0.50752 0.0
N3146 N 0.38458 0.07705 0.53015 0.0
N3147 N 0.376 0.11861 0.50888 0.0
H3148 H 0.66825 0.64577 0.29145 0.0
H3149 H 0.77104 0.71247 0.28228 0.0
H3150 H 0.71715 0.62331 0.28334 0.0
H3151 H 0.718 0.72935 0.27463 0.0
H3152 H 0.75287 0.68071 0.28704 0.0
H3153 H 0.68779 0.67764 0.29009 0.0
C3154 C 0.68318 0.64756 0.28962 0.0
C3155 C 0.69105 0.63181 0.28748 0.0
C3156 C 0.74528 0.69143 0.28434 0.0
C3157 C 0.71352 0.66836 0.28569 0.0
C3158 C 0.75563 0.70955 0.28167 0.0
C3159 C 0.74603 0.72356 0.27789 0.0
C3160 C 0.72526 0.68745 0.28349 0.0
C3161 C 0.72603 0.71897 0.27728 0.0
C3162 C 0.69429 0.66577 0.28868 0.0
C3163 C 0.71044 0.63503 0.28485 0.0
N3164 N 0.71636 0.70139 0.28007 0.0
N3165 N 0.72102 0.65294 0.28402 0.0
H3166 H 0.84277 0.43013 0.75432 0.0
H3167 H 0.76624 0.34137 0.77964 0.0
H3168 H 0.79233 0.43569 0.7794 0.0
H3169 H 0.81932 0.33823 0.75867 0.0
H3170 H 0.77421 0.37555 0.77798 0.0
H3171 H 0.83246 0.3959 0.75315 0.0
C3172 C 0.82929 0.42413 0.75923 0.0
C3173 C 0.81834 0.43581 0.7669 0.0
C3174 C 0.78409 0.36735 0.77377 0.0
C3175 C 0.80676 0.3965 0.76618 0.0
C3176 C 0.7796 0.34787 0.77478 0.0
C3177 C 0.79218 0.33696 0.76934 0.0
C3178 C 0.80123 0.37589 0.76724 0.0
C3179 C 0.80923 0.34608 0.76307 0.0
C3180 C 0.82353 0.40454 0.75878 0.0
C3181 C 0.80127 0.4272 0.77353 0.0
N3182 N 0.81323 0.36501 0.76218 0.0
N3183 N 0.79603 0.40801 0.7731 0.0
H3184 H 0.0146 0.87024 0.04258 0.0
H3185 H 0.05706 0.98412 0.05567 0.0
H3186 H 0.06806 0.89926 0.07722 0.0
H3187 H 0.00989 0.95405 0.01302 0.0
H3188 H 0.06045 0.95355 0.06471 0.0
H3189 H 0.01173 0.90069 0.03285 0.0
C3190 C 0.02575 0.88295 0.04826 0.0
C3191 C 0.04163 0.88185 0.06085 0.0
C3192 C 0.04938 0.95358 0.05333 0.0
C3193 C 0.03835 0.91728 0.04956 0.0
C3194 C 0.0474 0.97113 0.04813 0.0
C3195 C 0.03317 0.97192 0.03344 0.0
C3196 C 0.0369 0.9364 0.04402 0.0
C3197 C 0.02114 0.95436 0.02434 0.0
C3198 C 0.02412 0.90042 0.04255 0.0
C3199 C 0.05564 0.89908 0.06735 0.0
N3200 N 0.02322 0.93749 0.02981 0.0
N3201 N 0.05361 0.91592 0.06176 0.0
H3202 H 0.91533 0.25432 0.83676 0.0
H3203 H 0.81319 0.27982 0.82771 0.0
H3204 H 0.88606 0.26505 0.88498 0.0
H3205 H 0.84072 0.26532 0.77932 0.0
H3206 H 0.83995 0.27515 0.84887 0.0
H3207 H 0.88839 0.25858 0.81566 0.0
C3208 C 0.90322 0.2574 0.84299 0.0
C3209 C 0.90317 0.25926 0.86286 0.0
C3210 C 0.84017 0.27301 0.83362 0.0
C3211 C 0.87211 0.26452 0.83849 0.0
C3212 C 0.82487 0.27574 0.82148 0.0
C3213 C 0.82459 0.27305 0.80158 0.0
C3214 C 0.85549 0.26757 0.82594 0.0
C3215 C 0.8402 0.26761 0.7945 0.0
C3216 C 0.88784 0.25998 0.83085 0.0
C3217 C 0.88705 0.2637 0.86987 0.0
N3218 N 0.85493 0.26509 0.80661 0.0
N3219 N 0.87229 0.26617 0.85777 0.0
H3220 H 0.5715 0.19041 0.55437 0.0
H3221 H 0.50354 0.08429 0.53844 0.0
H3222 H 0.51042 0.17817 0.55447 0.0
H3223 H 0.5601 0.09669 0.52165 0.0
H3224 H 0.50671 0.11839 0.54654 0.0
H3225 H 0.56854 0.15639 0.54461 0.0
C3226 C 0.55745 0.18063 0.55236 0.0
C3227 C 0.54119 0.1874 0.5553 0.0
C3228 C 0.51845 0.11372 0.54106 0.0
C3229 C 0.53772 0.14806 0.54417 0.0
C3230 C 0.5167 0.09414 0.53647 0.0
C3231 C 0.53159 0.08736 0.52933 0.0
C3232 C 0.53536 0.12696 0.53885 0.0
C3233 C 0.54819 0.10109 0.52704 0.0
C3234 C 0.55577 0.16115 0.54668 0.0
C3235 C 0.52337 0.17384 0.55224 0.0
N3236 N 0.54968 0.12012 0.5319 0.0
N3237 N 0.52216 0.15495 0.54704 0.0
H3238 H 0.55994 0.76156 0.33928 0.0
H3239 H 0.67391 0.78578 0.33939 0.0
H3240 H 0.60067 0.77773 0.39052 0.0
H3241 H 0.63327 0.77251 0.28813 0.0
H3242 H 0.64731 0.78177 0.35828 0.0
H3243 H 0.58651 0.7648 0.32039 0.0
C3244 C 0.57443 0.76589 0.34662 0.0
C3245 C 0.57791 0.7694 0.36664 0.0
C3246 C 0.64419 0.77971 0.3429 0.0
C3247 C 0.60862 0.77291 0.3449 0.0
C3248 C 0.65942 0.78188 0.33205 0.0
C3249 C 0.65596 0.77952 0.31203 0.0
C3250 C 0.62523 0.77508 0.33376 0.0
C3251 C 0.63676 0.77476 0.30348 0.0
C3252 C 0.58964 0.76763 0.33577 0.0
C3253 C 0.59714 0.77461 0.37519 0.0
N3254 N 0.6222 0.7727 0.31435 0.0
N3255 N 0.61168 0.77622 0.36432 0.0
H3256 H 0.00139 0.20697 0.41344 0.0
H3257 H 0.05349 0.15286 0.48608 0.0
H3258 H 0.06121 0.22659 0.43639 0.0
H3259 H 0.99248 0.13818 0.4687 0.0
H3260 H 0.05699 0.17882 0.46671 0.0
H3261 H 0.99823 0.18098 0.43253 0.0
C3262 C 0.01387 0.20597 0.42256 0.0
C3263 C 0.03161 0.21923 0.42324 0.0
C3264 C 0.04283 0.16992 0.46714 0.0
C3265 C 0.02808 0.18899 0.44508 0.0
C3266 C 0.04082 0.15499 0.47813 0.0
C3267 C 0.02264 0.14324 0.47914 0.0
C3268 C 0.02656 0.17315 0.4569 0.0
C3269 C 0.00676 0.14695 0.46864 0.0
C3270 C 0.01206 0.19097 0.43341 0.0
C3271 C 0.04729 0.2167 0.43512 0.0
N3272 N 0.0091 0.16149 0.45798 0.0
N3273 N 0.04515 0.20195 0.44551 0.0
H3274 H 0.61377 0.23139 0.21975 0.0
H3275 H 0.71677 0.30167 0.26142 0.0
H3276 H 0.62297 0.29177 0.23662 0.0
H3277 H 0.70787 0.24096 0.24744 0.0
H3278 H 0.68262 0.29811 0.25231 0.0
H3279 H 0.64782 0.23445 0.2296 0.0
C3280 C 0.62288 0.24534 0.22546 0.0
C3281 C 0.61519 0.26136 0.2272 0.0
C3282 C 0.68806 0.28553 0.25123 0.0
C3283 C 0.65466 0.26492 0.23875 0.0
C3284 C 0.7077 0.28753 0.25643 0.0
C3285 C 0.71549 0.27159 0.25524 0.0
C3286 C 0.67579 0.26742 0.24464 0.0
C3287 C 0.7027 0.2537 0.24864 0.0
C3288 C 0.6424 0.24704 0.2312 0.0
C3289 C 0.62794 0.27893 0.23511 0.0
N3290 N 0.68361 0.25213 0.24359 0.0
N3291 N 0.6469 0.28022 0.24046 0.0
H3292 H 0.53053 0.9113 0.90097 0.0
H3293 H 0.54808 0.96836 0.00703 0.0
H3294 H 0.55201 0.89001 0.95058 0.0
H3295 H 0.51972 0.98617 0.95875 0.0
H3296 H 0.55124 0.94058 0.98628 0.0
H3297 H 0.52792 0.93943 0.92151 0.0
C3298 C 0.53463 0.91241 0.91617 0.0
C3299 C 0.54146 0.89799 0.92391 0.0
C3300 C 0.54432 0.95054 0.98019 0.0
C3301 C 0.53873 0.93066 0.94767 0.0
C3302 C 0.54253 0.9665 0.99206 0.0
C3303 C 0.53356 0.97973 0.98473 0.0
C3304 C 0.5372 0.94769 0.96071 0.0
C3305 C 0.52667 0.97639 0.96514 0.0
C3306 C 0.53322 0.92862 0.92791 0.0
C3307 C 0.54692 0.9007 0.94377 0.0
N3308 N 0.52865 0.96077 0.95386 0.0
N3309 N 0.54542 0.91661 0.95488 0.0
H3310 H 0.91336 0.78054 0.70916 0.0
H3311 H 0.82078 0.73537 0.75774 0.0
H3312 H 0.90994 0.7305 0.73691 0.0
H3313 H 0.83565 0.79318 0.74574 0.0
H3314 H 0.85123 0.73122 0.74746 0.0
H3315 H 0.88322 0.78332 0.71972 0.0
C3316 C 0.90656 0.77016 0.71762 0.0
C3317 C 0.91487 0.75535 0.7222 0.0
C3318 C 0.84778 0.7448 0.74711 0.0
C3319 C 0.87918 0.75827 0.73403 0.0
C3320 C 0.83033 0.74717 0.75294 0.0
C3321 C 0.82544 0.7647 0.75275 0.0
C3322 C 0.86041 0.75995 0.74069 0.0
C3323 C 0.83861 0.77942 0.74633 0.0
C3324 C 0.88905 0.77172 0.72356 0.0
C3325 C 0.90439 0.74212 0.73272 0.0
N3326 N 0.85522 0.77668 0.74054 0.0
N3327 N 0.88724 0.74387 0.7382 0.0
H3328 H 0.10306 0.01628 0.8892 0.0
H3329 H 0.01778 0.02141 0.95093 0.0
H3330 H 0.05266 0.03356 0.86898 0.0
H3331 H 0.07421 0.0217 0.97701 0.0
H3332 H 0.02947 0.0223 0.92013 0.0
H3333 H 0.09195 0.01477 0.92056 0.0
C3334 C 0.08961 0.01966 0.89129 0.0
C3335 C 0.07879 0.02506 0.87633 0.0
C3336 C 0.03933 0.02215 0.93255 0.0
C3337 C 0.06596 0.02329 0.91228 0.0
C3338 C 0.03264 0.02154 0.95023 0.0
C3339 C 0.04497 0.02143 0.96676 0.0
C3340 C 0.05854 0.02244 0.9311 0.0
C3341 C 0.06413 0.02174 0.96473 0.0
C3342 C 0.08335 0.01891 0.90926 0.0
C3343 C 0.06159 0.02948 0.88005 0.0
N3344 N 0.0703 0.02216 0.94725 0.0
N3345 N 0.05569 0.0284 0.89753 0.0
H3346 H 0.7897 0.30702 0.54955 0.0
H3347 H 0.75236 0.25448 0.63534 0.0
H3348 H 0.74125 0.31537 0.57693 0.0
H3349 H 0.81234 0.27631 0.63097 0.0
H3350 H 0.74432 0.26432 0.60453 0.0
H3351 H 0.79386 0.2839 0.57083 0.0
C3352 C 0.77983 0.30397 0.55985 0.0
C3353 C 0.7654 0.31369 0.56172 0.0
C3354 C 0.75922 0.26643 0.61018 0.0
C3355 C 0.7696 0.28653 0.58531 0.0
C3356 C 0.76386 0.26096 0.62779 0.0
C3357 C 0.78306 0.26523 0.63616 0.0
C3358 C 0.77389 0.27584 0.60075 0.0
C3359 C 0.79734 0.27289 0.62528 0.0
C3360 C 0.7821 0.29057 0.57177 0.0
C3361 C 0.75258 0.30837 0.57481 0.0
N3362 N 0.79245 0.27827 0.60825 0.0
N3363 N 0.7551 0.29528 0.58622 0.0
H3364 H 0.43573 -0.00192 0.37807 0.0
H3365 H 0.49396 0.05985 0.47012 0.0
H3366 H 0.45677 0.05865 0.37794 0.0
H3367 H 0.50792 0.00786 0.44891 0.0
H3368 H 0.47614 0.05934 0.43879 0.0
H3369 H 0.45793 0.00058 0.40682 0.0
C3370 C 0.44507 0.01188 0.38387 0.0
C3371 C 0.44437 0.02817 0.37533 0.0
C3372 C 0.48336 0.04823 0.441 0.0
C3373 C 0.46925 0.03106 0.40866 0.0
C3374 C 0.49344 0.04848 0.45876 0.0
C3375 C 0.50236 0.03388 0.46193 0.0
C3376 C 0.48175 0.03295 0.42666 0.0
C3377 C 0.50131 0.01942 0.44689 0.0
C3378 C 0.45767 0.01325 0.40034 0.0
C3379 C 0.45647 0.04574 0.38409 0.0
N3380 N 0.49081 0.0191 0.42992 0.0
N3381 N 0.4683 0.04676 0.40042 0.0
H3382 H 0.80161 0.74673 0.11699 0.0
H3383 H 0.74068 0.76928 0.20056 0.0
H3384 H 0.73991 0.73211 0.10827 0.0
H3385 H 0.79784 0.76173 0.21049 0.0
H3386 H 0.7407 0.76083 0.16607 0.0
H3387 H 0.8011 0.75778 0.15062 0.0
C3388 C 0.78795 0.74605 0.12207 0.0
C3389 C 0.77079 0.73841 0.10971 0.0
C3390 C 0.75322 0.76108 0.17586 0.0
C3391 C 0.77008 0.75108 0.14839 0.0
C3392 C 0.75324 0.76597 0.19552 0.0
C3393 C 0.76921 0.76608 0.20852 0.0
C3394 C 0.76944 0.75669 0.16911 0.0
C3395 C 0.7851 0.76164 0.2011 0.0
C3396 C 0.78766 0.75224 0.14134 0.0
C3397 C 0.7535 0.73772 0.11729 0.0
N3398 N 0.78483 0.75723 0.182 0.0
N3399 N 0.75358 0.74399 0.13608 0.0
H3400 H 0.06124 0.05618 0.68438 0.0
H3401 H 0.05007 0.00508 0.57688 0.0
H3402 H 0.07268 0.00166 0.66832 0.0
H3403 H 0.02937 0.0549 0.59093 0.0
H3404 H 0.05886 0.00454 0.61053 0.0
H3405 H 0.0497 0.05665 0.65089 0.0
C3406 C 0.0612 0.04422 0.67393 0.0
C3407 C 0.06815 0.0289 0.67938 0.0
C3408 C 0.05237 0.01562 0.60638 0.0
C3409 C 0.05513 0.02955 0.64079 0.0
C3410 C 0.04737 0.016 0.58703 0.0
C3411 C 0.03902 0.03016 0.58087 0.0
C3412 C 0.04923 0.02956 0.62001 0.0
C3413 C 0.03576 0.04372 0.59494 0.0
C3414 C 0.05468 0.04458 0.65475 0.0
C3415 C 0.0679 0.01399 0.66496 0.0
N3416 N 0.04098 0.04317 0.61383 0.0
N3417 N 0.06162 0.01475 0.64647 0.0
H3418 H 0.74053 0.36759 0.39319 0.0
H3419 H 0.74299 0.27092 0.33029 0.0
H3420 H 0.7224 0.31252 0.4115 0.0
H3421 H 0.76808 0.32754 0.31849 0.0
H3422 H 0.73009 0.28499 0.35734 0.0
H3423 H 0.74393 0.35202 0.36229 0.0
C3424 C 0.73679 0.35219 0.39059 0.0
C3425 C 0.73149 0.34137 0.40511 0.0
C3426 C 0.73835 0.29425 0.34872 0.0
C3427 C 0.73606 0.32344 0.36987 0.0
C3428 C 0.74578 0.28626 0.33338 0.0
C3429 C 0.7569 0.29808 0.32234 0.0
C3430 C 0.74196 0.31414 0.35282 0.0
C3431 C 0.7599 0.31785 0.32679 0.0
C3432 C 0.73898 0.34329 0.37297 0.0
C3433 C 0.72702 0.32143 0.40086 0.0
N3434 N 0.75252 0.32522 0.34169 0.0
N3435 N 0.72971 0.31309 0.3837 0.0
H3436 H 0.46486 0.00301 0.22171 0.0
H3437 H 0.46381 0.9681 0.11131 0.0
H3438 H 0.41406 0.98731 0.18022 0.0
H3439 H 0.51532 0.9939 0.15044 0.0
H3440 H 0.44512 0.96875 0.13787 0.0
H3441 H 0.48326 0.99389 0.19703 0.0
C3442 C 0.45758 -0.00236 0.20741 0.0
C3443 C 0.43796 -0.00381 0.20294 0.0
C3444 C 0.46054 0.97405 0.14067 0.0
C3445 C 0.45883 0.98547 0.17476 0.0
C3446 C 0.4712 0.97371 0.12553 0.0
C3447 C 0.4911 0.98124 0.12864 0.0
C3448 C 0.46987 0.98202 0.15903 0.0
C3449 C 0.50001 0.98793 0.14739 0.0
C3450 C 0.46805 0.9923 0.19339 0.0
C3451 C 0.42914 0.98863 0.18432 0.0
N3452 N 0.48929 0.98839 0.16186 0.0
N3453 N 0.43969 0.98371 0.17087 0.0
H3454 H 0.80637 0.74912 0.92182 0.0
H3455 H 0.75338 0.73293 0.81439 0.0
H3456 H 0.75064 0.71111 0.90265 0.0
H3457 H 0.80477 0.77735 0.83473 0.0
H3458 H 0.75357 0.72339 0.84611 0.0
H3459 H 0.80731 0.7583 0.88981 0.0
C3460 C 0.79434 0.74264 0.91091 0.0
C3461 C 0.77836 0.72931 0.91512 0.0
C3462 C 0.76485 0.7352 0.84368 0.0
C3463 C 0.77938 0.73984 0.87822 0.0
C3464 C 0.7648 0.74066 0.82547 0.0
C3465 C 0.77907 0.75606 0.82172 0.0
C3466 C 0.77932 0.74509 0.85846 0.0
C3467 C 0.79346 0.76542 0.83684 0.0
C3468 C 0.79486 0.74797 0.89262 0.0
C3469 C 0.76316 0.72162 0.9003 0.0
N3470 N 0.7932 0.75981 0.85448 0.0
N3471 N 0.76408 0.72692 0.88261 0.0
H3472 H 0.82135 0.05051 0.02649 0.0
H3473 H 0.92289 0.02825 0.04889 0.0
H3474 H 0.87307 0.09181 0.05326 0.0
H3475 H 0.87862 0.99394 0.00523 0.0
H3476 H 0.90101 0.04711 0.0581 0.0
H3477 H 0.83913 0.02598 0.02521 0.0
C3478 C 0.8364 0.05445 0.03213 0.0
C3479 C 0.84578 0.07337 0.03974 0.0
C3480 C 0.89598 0.03525 0.04671 0.0
C3481 C 0.86593 0.04526 0.03882 0.0
C3482 C 0.90838 0.02431 0.04157 0.0
C3483 C 0.90263 0.0096 0.0261 0.0
C3484 C 0.87772 0.03153 0.0363 0.0
C3485 C 0.88372 0.00538 0.01701 0.0
C3486 C 0.84645 0.0404 0.03155 0.0
C3487 C 0.86515 0.07746 0.04738 0.0
N3488 N 0.87196 0.01648 0.02209 0.0
N3489 N 0.87459 0.06354 0.04662 0.0
H3490 H 0.39318 0.41734 0.03185 0.0
H3491 H 0.45995 0.5225 0.03492 0.0
H3492 H 0.37094 0.46718 0.03668 0.0
H3493 H 0.47635 0.47065 0.01807 0.0
H3494 H 0.4282 0.50328 0.039 0.0
H3495 H 0.42475 0.43749 0.03029 0.0
C3496 C 0.39488 0.43253 0.0325 0.0
C3497 C 0.37923 0.44049 0.03415 0.0
C3498 C 0.43881 0.49619 0.03442 0.0
C3499 C 0.41567 0.46385 0.03262 0.0
C3500 C 0.45693 0.50714 0.03213 0.0
C3501 C 0.47083 0.49822 0.02602 0.0
C3502 C 0.4347 0.47622 0.03078 0.0
C3503 C 0.4661 0.47824 0.02263 0.0
C3504 C 0.41299 0.44408 0.03169 0.0
C3505 C 0.38257 0.46039 0.03548 0.0
N3506 N 0.44852 0.46798 0.02507 0.0
N3507 N 0.4004 0.47139 0.03461 0.0
H3508 H 0.36222 0.59 0.79339 0.0
H3509 H 0.32343 0.66992 0.74484 0.0
H3510 H 0.37904 0.60857 0.74091 0.0
H3511 H 0.30746 0.6513 0.79757 0.0
H3512 H 0.34406 0.6479 0.74318 0.0
H3513 H 0.34213 0.61242 0.79501 0.0
C3514 C 0.36164 0.59871 0.78213 0.0
C3515 C 0.37236 0.59725 0.76694 0.0
C3516 C 0.33603 0.64863 0.75511 0.0
C3517 C 0.34938 0.62327 0.76884 0.0
C3518 C 0.32429 0.6613 0.75613 0.0
C3519 C 0.31356 0.66252 0.77136 0.0
C3520 C 0.33714 0.63705 0.76943 0.0
C3521 C 0.31515 0.65071 0.78539 0.0
C3522 C 0.35022 0.61162 0.78313 0.0
C3523 C 0.37124 0.60927 0.753 0.0
N3524 N 0.32667 0.63854 0.78409 0.0
N3525 N 0.35994 0.6217 0.75426 0.0
H3526 H 0.17985 0.5851 0.55517 0.0
H3527 H 0.0781 0.55276 0.48962 0.0
H3528 H 0.17078 0.59969 0.49854 0.0
H3529 H 0.08772 0.54371 0.54828 0.0
H3530 H 0.11238 0.56768 0.4913 0.0
H3531 H 0.14638 0.56755 0.55162 0.0
C3532 C 0.17077 0.58465 0.542 0.0
C3533 C 0.17805 0.59403 0.52721 0.0
C3534 C 0.10694 0.56235 0.50376 0.0
C3535 C 0.13969 0.57379 0.52294 0.0
C3536 C 0.0874 0.55382 0.5028 0.0
C3537 C 0.08002 0.54711 0.51888 0.0
C3538 C 0.11909 0.56407 0.52087 0.0
C3539 C 0.09272 0.54882 0.53557 0.0
C3540 C 0.15168 0.57455 0.53993 0.0
C3541 C 0.16575 0.59259 0.51027 0.0
N3542 N 0.11158 0.55716 0.53613 0.0
N3543 N 0.14711 0.58275 0.50862 0.0
H3544 H 0.74308 0.9703 0.74781 0.0
H3545 H 0.76689 0.89419 0.81204 0.0
H3546 H 0.70366 0.93947 0.78168 0.0
H3547 H 0.79811 0.91092 0.76578 0.0
H3548 H 0.74735 0.91624 0.80563 0.0
H3549 H 0.76632 0.95282 0.75778 0.0
C3550 C 0.73922 0.95973 0.75718 0.0
C3551 C 0.72134 0.95626 0.76384 0.0
C3552 C 0.75863 0.91525 0.79703 0.0
C3553 C 0.74806 0.93673 0.7757 0.0
C3554 C 0.76995 0.90287 0.80083 0.0
C3555 C 0.78404 0.90069 0.78933 0.0
C3556 C 0.76146 0.92553 0.78165 0.0
C3557 C 0.78721 0.91207 0.77481 0.0
C3558 C 0.75257 0.94994 0.76301 0.0
C3559 C 0.71733 0.94276 0.77635 0.0
N3560 N 0.77586 0.92393 0.77126 0.0
N3561 N 0.73061 0.9335 0.78189 0.0
H3562 H 0.68947 0.91734 0.49059 0.0
H3563 H 0.64066 0.99296 0.54261 0.0
H3564 H 0.70729 0.94349 0.5491 0.0
H3565 H 0.63068 0.97458 0.48196 0.0
H3566 H 0.66333 0.97313 0.54583 0.0
H3567 H 0.66636 0.93659 0.4877 0.0
C3568 C 0.68865 0.92718 0.50283 0.0
C3569 C 0.70054 0.92877 0.52011 0.0
C3570 C 0.65619 0.97344 0.53182 0.0
C3571 C 0.67369 0.95073 0.51693 0.0
C3572 C 0.64315 0.98468 0.52998 0.0
C3573 C 0.63374 0.9855 0.51197 0.0
C3574 C 0.65979 0.96277 0.51556 0.0
C3575 C 0.63775 0.97461 0.49609 0.0
C3576 C 0.67533 0.93811 0.50118 0.0
C3577 C 0.69835 0.94152 0.53556 0.0
N3578 N 0.6504 0.96369 0.49826 0.0
N3579 N 0.68524 0.95198 0.53359 0.0
H3580 H 0.37402 0.40967 0.73299 0.0
H3581 H 0.28521 0.34782 0.77553 0.0
H3582 H 0.34332 0.4338 0.77386 0.0
H3583 H 0.32293 0.32341 0.74334 0.0
H3584 H 0.30407 0.37963 0.77228 0.0
H3585 H 0.35305 0.3782 0.73372 0.0
C3586 C 0.36276 0.40839 0.74198 0.0
C3587 C 0.36051 0.42443 0.75344 0.0
C3588 C 0.30816 0.36729 0.76588 0.0
C3589 C 0.33648 0.38835 0.75445 0.0
C3590 C 0.29736 0.34911 0.76768 0.0
C3591 C 0.3025 0.33286 0.75977 0.0
C3592 C 0.32415 0.36927 0.75599 0.0
C3593 C 0.31843 0.33548 0.74977 0.0
C3594 C 0.35086 0.39038 0.74249 0.0
C3595 C 0.34577 0.42182 0.76498 0.0
N3596 N 0.32866 0.35329 0.74819 0.0
N3597 N 0.33434 0.40415 0.76519 0.0
H3598 H 0.22999 0.62308 0.28323 0.0
H3599 H 0.27703 0.71717 0.24164 0.0
H3600 H 0.23578 0.62338 0.22365 0.0
H3601 H 0.24368 0.71743 0.28842 0.0
H3602 H 0.26972 0.68245 0.23847 0.0
H3603 H 0.2434 0.65763 0.28893 0.0
C3604 C 0.23456 0.63041 0.27146 0.0
C3605 C 0.23185 0.62054 0.25295 0.0
C3606 C 0.26412 0.69016 0.24947 0.0
C3607 C 0.24693 0.65973 0.25933 0.0
C3608 C 0.26828 0.70991 0.25133 0.0
C3609 C 0.26078 0.72009 0.26522 0.0
C3610 C 0.25271 0.68062 0.26181 0.0
C3611 C 0.24952 0.71004 0.27738 0.0
C3612 C 0.24198 0.65005 0.27469 0.0
C3613 C 0.23765 0.63061 0.2381 0.0
N3614 N 0.24584 0.69077 0.27542 0.0
N3615 N 0.24492 0.64975 0.24159 0.0
H3616 H 0.47161 0.65289 0.46505 0.0
H3617 H 0.54341 0.59565 0.51052 0.0
H3618 H 0.53194 0.67716 0.48314 0.0
H3619 H 0.48288 0.57043 0.49542 0.0
H3620 H 0.53895 0.62533 0.50058 0.0
H3621 H 0.4749 0.62305 0.47608 0.0
C3622 C 0.48555 0.65215 0.47142 0.0
C3623 C 0.50151 0.66798 0.47295 0.0
C3624 C 0.52657 0.61339 0.49944 0.0
C3625 C 0.5054 0.63317 0.48558 0.0
C3626 C 0.52909 0.59626 0.50518 0.0
C3627 C 0.51352 0.58018 0.50393 0.0
C3628 C 0.50828 0.61485 0.49219 0.0
C3629 C 0.49538 0.58228 0.49677 0.0
C3630 C 0.48742 0.63491 0.47764 0.0
C3631 C 0.51917 0.66556 0.48118 0.0
N3632 N 0.49329 0.59915 0.49117 0.0
N3633 N 0.52058 0.6487 0.48707 0.0
H3634 H 0.66549 0.31321 0.65625 0.0
H3635 H 0.70665 0.26736 0.74354 0.0
H3636 H 0.63045 0.27125 0.68432 0.0
H3637 H 0.74318 0.29808 0.70733 0.0
H3638 H 0.67868 0.27079 0.72342 0.0
H3639 H 0.69399 0.31022 0.67625 0.0
C3640 C 0.66373 0.30346 0.66667 0.0
C3641 C 0.64542 0.29243 0.66847 0.0
C3642 C 0.6928 0.27677 0.71982 0.0
C3643 C 0.67815 0.28893 0.69152 0.0
C3644 C 0.70885 0.27484 0.73136 0.0
C3645 C 0.72745 0.28242 0.72722 0.0
C3646 C 0.69515 0.28656 0.70399 0.0
C3647 C 0.7292 0.29194 0.71113 0.0
C3648 C 0.68006 0.30167 0.67802 0.0
C3649 C 0.6442 0.2799 0.68218 0.0
N3650 N 0.71332 0.29381 0.7002 0.0
N3651 N 0.66023 0.27856 0.69314 0.0
H3652 H 0.03754 0.37435 0.97437 0.0
H3653 H 0.98645 0.45471 0.01375 0.0
H3654 H 0.97816 0.36107 0.98331 0.0
H3655 H 0.04123 0.46688 0.99305 0.0
H3656 H 0.98372 0.42045 0.00527 0.0
H3657 H 0.03963 0.40799 0.98358 0.0
C3658 C 0.02483 0.37835 0.97812 0.0
C3659 C 0.00756 0.36441 0.97776 0.0
C3660 C 0.99633 0.43064 0.00258 0.0
C3661 C 0.01009 0.40364 0.98891 0.0
C3662 C 0.99792 0.45027 0.00747 0.0
C3663 C 0.01407 0.46394 0.0041 0.0
C3664 C 0.01107 0.42447 0.99443 0.0
C3665 C 0.02843 0.45708 -0.00412 0.0
C3666 C 0.02611 0.39774 0.98354 0.0
C3667 C 0.99189 0.37097 0.98346 0.0
N3668 N 0.02661 0.43801 0.99144 0.0
N3669 N 0.99353 0.38996 0.98874 0.0
H3670 H 0.95154 0.75087 0.15549 0.0
H3671 H 0.90072 0.80475 0.23116 0.0
H3672 H 0.97495 0.80926 0.1814 0.0
H3673 H 0.88266 0.74435 0.21184 0.0
H3674 H 0.92677 0.80719 0.21155 0.0
H3675 H 0.92538 0.74868 0.17475 0.0
C3676 C 0.95134 0.76323 0.16529 0.0
C3677 C 0.96572 0.78028 0.16676 0.0
C3678 C 0.91711 0.7934 0.2116 0.0
C3679 C 0.9353 0.7779 0.18877 0.0
C3680 C 0.90212 0.792 0.22272 0.0
C3681 C 0.88939 0.7743 0.22324 0.0
C3682 C 0.9194 0.777 0.20073 0.0
C3683 C 0.89219 0.75827 0.21213 0.0
C3684 C 0.93624 0.76198 0.17624 0.0
C3685 C 0.96419 0.79588 0.17949 0.0
N3686 N 0.90681 0.76001 0.20135 0.0
N3687 N 0.94932 0.79431 0.18995 0.0
H3688 H 0.4978 0.31958 0.09301 0.0
H3689 H 0.55447 0.4257 0.08243 0.0
H3690 H 0.54146 0.35567 0.13613 0.0
H3691 H 0.50476 0.39371 0.04366 0.0
H3692 H 0.55065 0.39959 0.10148 0.0
H3693 H 0.50059 0.34593 0.07426 0.0
C3694 C 0.50789 0.33302 0.09867 0.0
C3695 C 0.51944 0.33519 0.1163 0.0
C3696 C 0.54054 0.39826 0.08883 0.0
C3697 C 0.52292 0.36553 0.09455 0.0
C3698 C 0.54278 0.41316 0.07785 0.0
C3699 C 0.52997 0.41197 0.06129 0.0
C3700 C 0.52544 0.38183 0.08326 0.0
C3701 C 0.51491 0.39539 0.05635 0.0
C3702 C 0.50954 0.34807 0.08784 0.0
C3703 C 0.53247 0.35301 0.12254 0.0
N3704 N 0.51312 0.38099 0.0672 0.0
N3705 N 0.53387 0.36737 0.1117 0.0
H3706 H 0.93981 0.32004 0.30796 0.0
H3707 H 0.83054 0.26064 0.3026 0.0
H3708 H 0.92329 0.26195 0.31919 0.0
H3709 H 0.84622 0.3128 0.27849 0.0
H3710 H 0.86442 0.26222 0.31088 0.0
H3711 H 0.90604 0.31873 0.29885 0.0
C3712 C 0.92924 0.30692 0.3084 0.0
C3713 C 0.93482 0.29108 0.31447 0.0
C3714 C 0.86051 0.27336 0.3038 0.0
C3715 C 0.89559 0.28972 0.30434 0.0
C3716 C 0.84106 0.27253 0.29911 0.0
C3717 C 0.83528 0.28664 0.28981 0.0
C3718 C 0.87461 0.28853 0.29941 0.0
C3719 C 0.84984 0.30158 0.28562 0.0
C3720 C 0.90983 0.30626 0.30328 0.0
C3721 C 0.92002 0.27472 0.31502 0.0
N3722 N 0.86873 0.30216 0.2905 0.0
N3723 N 0.90128 0.27452 0.31013 0.0
H3724 H 0.98222 0.63567 0.62355 0.0
H3725 H 0.03171 0.5919 0.54024 0.0
H3726 H 0.03064 0.6681 0.60107 0.0
H3727 H 0.99946 0.55644 0.57621 0.0
H3728 H 0.0284 0.62006 0.56014 0.0
H3729 H 0.98516 0.60671 0.6041 0.0
C3730 C 0.99339 0.63673 0.61446 0.0
C3731 C 0.00623 0.65439 0.61401 0.0
C3732 C 0.02206 0.60614 0.56374 0.0
C3733 C 0.0096 0.6213 0.59163 0.0
C3734 C 0.02389 0.58999 0.55232 0.0
C3735 C 0.01586 0.57166 0.55649 0.0
C3736 C 0.01184 0.60414 0.57939 0.0
C3737 C 0.00596 0.57024 0.57245 0.0
C3738 C 0.99514 0.62018 0.60347 0.0
C3739 C 0.02053 0.65483 0.60205 0.0
N3740 N 0.00411 0.58624 0.58323 0.0
N3741 N 0.02174 0.63863 0.59131 0.0
H3742 H 0.61887 0.77176 0.79379 0.0
H3743 H 0.73342 0.81273 0.80326 0.0
H3744 H 0.64989 0.82352 0.83012 0.0
H3745 H 0.70193 0.76484 0.7621 0.0
H3746 H 0.70315 0.81657 0.81346 0.0
H3747 H 0.64881 0.76883 0.78227 0.0
C3748 C 0.63183 0.78266 0.79931 0.0
C3749 C 0.63144 0.79795 0.81313 0.0
C3750 C 0.7028 0.80525 0.80214 0.0
C3751 C 0.6664 0.79438 0.79997 0.0
C3752 C 0.72018 0.80304 0.79625 0.0
C3753 C 0.72048 0.78843 0.78167 0.0
C3754 C 0.68531 0.79271 0.79359 0.0
C3755 C 0.70262 0.77637 0.77331 0.0
C3756 C 0.64908 0.78086 0.79274 0.0
C3757 C 0.64915 0.81126 0.81978 0.0
N3758 N 0.68592 0.77872 0.7794 0.0
N3759 N 0.66571 0.80913 0.81323 0.0
H3760 H 0.45255 0.50461 0.64985 0.0
H3761 H 0.52626 0.55771 0.58451 0.0
H3762 H 0.49683 0.55575 0.67123 0.0
H3763 H 0.47905 0.509 0.56327 0.0
H3764 H 0.51591 0.55751 0.61622 0.0
H3765 H 0.46248 0.506 0.61824 0.0
C3766 C 0.46447 0.51608 0.648 0.0
C3767 C 0.47388 0.53002 0.66345 0.0
C3768 C 0.50777 0.54692 0.60459 0.0
C3769 C 0.48527 0.53183 0.62683 0.0
C3770 C 0.51365 0.54705 0.58642 0.0
C3771 C 0.50356 0.53335 0.57104 0.0
C3772 C 0.49169 0.53294 0.60754 0.0
C3773 C 0.48735 0.51988 0.57456 0.0
C3774 C 0.47005 0.51695 0.62981 0.0
C3775 C 0.48899 0.54475 0.65983 0.0
N3776 N 0.48202 0.51998 0.59235 0.0
N3777 N 0.49423 0.54522 0.642 0.0
H3778 H 0.79531 0.23434 0.97511 0.0
H3779 H 0.76154 0.21674 0.86279 0.0
H3780 H 0.78585 0.18013 0.9397 0.0
H3781 H 0.76733 0.27026 0.89818 0.0
H3782 H 0.77173 0.20351 0.89078 0.0
H3783 H 0.78684 0.24835 0.94693 0.0
C3784 C 0.79157 0.22542 0.96138 0.0
C3785 C 0.79123 0.20603 0.95975 0.0
C3786 C 0.77077 0.21814 0.89247 0.0
C3787 C 0.78152 0.22193 0.92752 0.0
C3788 C 0.76498 0.2257 0.87649 0.0
C3789 C 0.76366 0.24463 0.87819 0.0
C3790 C 0.77531 0.22959 0.91031 0.0
C3791 C 0.768 0.25554 0.8963 0.0
C3792 C 0.78674 0.23342 0.94532 0.0
C3793 C 0.78653 0.19519 0.9416 0.0
N3794 N 0.77371 0.24787 0.91168 0.0
N3795 N 0.78175 0.20327 0.92622 0.0
H3796 H 0.08387 0.53825 0.16914 0.0
H3797 H 0.05693 0.49374 0.06096 0.0
H3798 H 0.0951 0.48504 0.14746 0.0
H3799 H 0.02798 0.53306 0.08713 0.0
H3800 H 0.07126 0.49047 0.09248 0.0
H3801 H 0.06347 0.53695 0.13922 0.0
C3802 C 0.08189 0.52624 0.15808 0.0
C3803 C 0.09123 0.5118 0.16059 0.0
C3804 C 0.06158 0.49963 0.09135 0.0
C3805 C 0.06813 0.51027 0.12647 0.0
C3806 C 0.05348 0.50158 0.07338 0.0
C3807 C 0.0414 0.51383 0.07148 0.0
C3808 C 0.05786 0.51026 0.10751 0.0
C3809 C 0.03726 0.5235 0.088 0.0
C3810 C 0.07019 0.52544 0.14111 0.0
C3811 C 0.08809 0.49642 0.14601 0.0
N3812 N 0.04571 0.52173 0.10537 0.0
N3813 N 0.07699 0.49618 0.12942 0.0
H3814 H 0.74629 0.80277 0.42238 0.0
H3815 H 0.80767 0.80379 0.33455 0.0
H3816 H 0.80529 0.83448 0.4268 0.0
H3817 H 0.7466 0.78023 0.32903 0.0
H3818 H 0.80788 0.81292 0.36883 0.0
H3819 H 0.74689 0.79243 0.3887 0.0
C3820 C 0.75938 0.80765 0.41635 0.0
C3821 C 0.77575 0.81963 0.4277 0.0
C3822 C 0.79445 0.8057 0.3601 0.0
C3823 C 0.77658 0.80748 0.38882 0.0
C3824 C 0.79433 0.80041 0.3405 0.0
C3825 C 0.7771 0.79123 0.32874 0.0
C3826 C 0.77724 0.80167 0.3681 0.0
C3827 C 0.76026 0.78733 0.33739 0.0
C3828 C 0.75973 0.80161 0.39705 0.0
C3829 C 0.79236 0.82504 0.41889 0.0
N3830 N 0.76077 0.79254 0.35643 0.0
N3831 N 0.79233 0.81898 0.40007 0.0
H3832 H 0.48279 0.55432 0.86889 0.0
H3833 H 0.52169 0.49814 0.94873 0.0
H3834 H 0.48921 0.4973 0.85574 0.0
H3835 H 0.50316 0.54958 0.96091 0.0
H3836 H 0.51303 0.49857 0.91447 0.0
H3837 H 0.4937 0.55398 0.90238 0.0
C3838 C 0.4867 0.54179 0.87296 0.0
C3839 C 0.48504 0.52583 0.85932 0.0
C3840 C 0.51089 0.50974 0.92469 0.0
C3841 C 0.49745 0.52524 0.89802 0.0
C3842 C 0.51588 0.50953 0.94426 0.0
C3843 C 0.51306 0.52375 0.95785 0.0
C3844 C 0.50327 0.52443 0.91863 0.0
C3845 C 0.50546 0.53816 0.9511 0.0
C3846 C 0.4928 0.54153 0.89219 0.0
C3847 C 0.49005 0.50988 0.86571 0.0
N3848 N 0.5009 0.53813 0.93211 0.0
N3849 N 0.49602 0.51 0.88453 0.0
H3850 H 0.83087 0.21114 0.1479 0.0
H3851 H 0.77314 0.27564 0.203 0.0
H3852 H 0.77731 0.22004 0.12379 0.0
H3853 H 0.8107 0.24665 0.2315 0.0
H3854 H 0.78059 0.26265 0.17233 0.0
H3855 H 0.82953 0.23169 0.17727 0.0
C3856 C 0.81903 0.21771 0.14876 0.0
C3857 C 0.80405 0.21385 0.13372 0.0
C3858 C 0.78731 0.25932 0.18534 0.0
C3859 C 0.80248 0.2372 0.16677 0.0
C3860 C 0.78311 0.26673 0.20281 0.0
C3861 C 0.79109 0.26193 0.21973 0.0
C3862 C 0.79976 0.24729 0.18491 0.0
C3863 C 0.80399 0.25041 0.21873 0.0
C3864 C 0.81823 0.22931 0.16542 0.0
C3865 C 0.78897 0.22258 0.13531 0.0
N3866 N 0.80788 0.24339 0.20156 0.0
N3867 N 0.78851 0.23382 0.15163 0.0
H3868 H 0.1265 0.53971 0.35432 0.0
H3869 H 0.03228 0.56347 0.38809 0.0
H3870 H 0.08768 0.56182 0.31876 0.0
H3871 H 0.07481 0.54676 0.42449 0.0
H3872 H 0.05298 0.56479 0.36294 0.0
H3873 H 0.10827 0.54373 0.38068 0.0
C3874 C 0.11412 0.54544 0.35211 0.0
C3875 C 0.10844 0.55027 0.33435 0.0
C3876 C 0.0578 0.56094 0.37648 0.0
C3877 C 0.0875 0.55495 0.36439 0.0
C3878 C 0.04603 0.56024 0.39082 0.0
C3879 C 0.05173 0.55469 0.40824 0.0
C3880 C 0.07534 0.55606 0.37966 0.0
C3881 C 0.06966 0.55063 0.41108 0.0
C3882 C 0.10376 0.54783 0.36716 0.0
C3883 C 0.09252 0.55797 0.33228 0.0
N3884 N 0.08075 0.55127 0.39689 0.0
N3885 N 0.08246 0.55991 0.34711 0.0
H3886 H 0.76565 0.85722 0.63895 0.0
H3887 H 0.76672 0.77116 0.69915 0.0
H3888 H 0.77573 0.80377 0.6163 0.0
H3889 H 0.77075 0.82811 0.72621 0.0
H3890 H 0.76706 0.78255 0.6684 0.0
H3891 H 0.76468 0.84656 0.67038 0.0
C3892 C 0.76756 0.8432 0.64052 0.0
C3893 C 0.77077 0.8314 0.62482 0.0
C3894 C 0.76785 0.79261 0.68101 0.0
C3895 C 0.76967 0.81908 0.66093 0.0
C3896 C 0.76758 0.7861 0.69869 0.0
C3897 C 0.76869 0.79865 0.7155 0.0
C3898 C 0.7691 0.81189 0.67981 0.0
C3899 C 0.76985 0.81787 0.71372 0.0
C3900 C 0.76712 0.83718 0.65853 0.0
C3901 C 0.77339 0.81347 0.62791 0.0
N3902 N 0.76998 0.82388 0.69622 0.0
N3903 N 0.77269 0.80788 0.64549 0.0
H3904 H 0.69792 0.45931 0.55991 0.0
H3905 H 0.65941 0.54265 0.52017 0.0
H3906 H 0.71431 0.48305 0.50952 0.0
H3907 H 0.6446 0.52061 0.57179 0.0
H3908 H 0.68318 0.52406 0.51855 0.0
H3909 H 0.68178 0.48454 0.56697 0.0
C3910 C 0.69829 0.46995 0.55045 0.0
C3911 C 0.70719 0.46891 0.53394 0.0
C3912 C 0.67494 0.52349 0.5304 0.0
C3913 C 0.68865 0.49769 0.54182 0.0
C3914 C 0.66138 0.53409 0.53131 0.0
C3915 C 0.6499 0.53296 0.546 0.0
C3916 C 0.67686 0.51152 0.54417 0.0
C3917 C 0.65319 0.5219 0.56023 0.0
C3918 C 0.68905 0.48432 0.55445 0.0
C3919 C 0.70719 0.48303 0.52214 0.0
N3920 N 0.66618 0.51136 0.5588 0.0
N3921 N 0.69791 0.49673 0.52622 0.0
H3922 H 0.17727 0.09062 0.48761 0.0
H3923 H 0.07987 0.08199 0.5334 0.0
H3924 H 0.16461 0.13493 0.52558 0.0
H3925 H 0.08987 0.03524 0.49656 0.0
H3926 H 0.11114 0.10111 0.53009 0.0
H3927 H 0.14566 0.06995 0.4898 0.0
C3928 C 0.16785 0.09604 0.49633 0.0
C3929 C 0.17372 0.11453 0.50655 0.0
C3930 C 0.10663 0.08668 0.5227 0.0
C3931 C 0.13764 0.09094 0.50919 0.0
C3932 C 0.08865 0.07564 0.52459 0.0
C3933 C 0.08208 0.05686 0.51524 0.0
C3934 C 0.11841 0.07906 0.51132 0.0
C3935 C 0.09431 0.04962 0.50406 0.0
C3936 C 0.14986 0.08419 0.49765 0.0
C3937 C 0.16094 0.12071 0.51772 0.0
N3938 N 0.11191 0.06076 0.50238 0.0
N3939 N 0.14362 0.10898 0.51873 0.0
H3940 H 0.15684 0.93376 0.78649 0.0
H3941 H 0.25392 0.90899 0.76075 0.0
H3942 H 0.20037 0.97154 0.76231 0.0
H3943 H 0.20697 0.86781 0.77668 0.0
H3944 H 0.23503 0.93244 0.76265 0.0
H3945 H 0.17561 0.91001 0.78474 0.0
C3946 C 0.17038 0.93712 0.78089 0.0
C3947 C 0.17698 0.95473 0.77451 0.0
C3948 C 0.22884 0.91827 0.76571 0.0
C3949 C 0.19855 0.92748 0.77239 0.0
C3950 C 0.2396 0.90477 0.76451 0.0
C3951 C 0.23209 0.88623 0.76845 0.0
C3952 C 0.21037 0.91337 0.77101 0.0
C3953 C 0.21354 0.88192 0.77372 0.0
C3954 C 0.18104 0.92348 0.77979 0.0
C3955 C 0.19454 0.95812 0.76717 0.0
N3956 N 0.20336 0.89535 0.77484 0.0
N3957 N 0.2047 0.94468 0.76637 0.0
H3958 H 0.3674 0.98171 0.98283 0.0
H3959 H 0.46911 0.98715 0.03987 0.0
H3960 H 0.37461 0.9535 0.03214 0.0
H3961 H 0.46021 0.02608 0.0006 0.0
H3962 H 0.43451 0.97417 0.03684 0.0
H3963 H 0.40142 -0.00204 0.98882 0.0
C3964 C 0.37608 0.97906 0.99502 0.0
C3965 C 0.36817 0.96607 0.00688 0.0
C3966 C 0.44013 0.98564 0.02899 0.0
C3967 C 0.40713 0.98438 0.01363 0.0
C3968 C 0.45987 0.99301 0.03066 0.0
C3969 C 0.46753 0.00761 0.02036 0.0
C3970 C 0.42801 0.9928 0.01678 0.0
C3971 C 0.45491 0.01479 0.00877 0.0
C3972 C 0.39551 0.98829 -0.00162 0.0
C3973 C 0.38017 0.96305 0.02235 0.0
N3974 N 0.43575 0.00719 0.00716 0.0
N3975 N 0.39907 0.97203 0.02519 0.0
H3976 H 0.82214 0.61202 0.81224 0.0
H3977 H 0.7606 0.64471 0.73127 0.0
H3978 H 0.81781 0.58995 0.75272 0.0
H3979 H 0.75282 0.65377 0.79054 0.0
H3980 H 0.77898 0.62201 0.73852 0.0
H3981 H 0.79522 0.62577 0.80467 0.0
C3982 C 0.81547 0.60999 0.7976 0.0
C3983 C 0.82246 0.60015 0.78304 0.0
C3984 C 0.77295 0.62868 0.7499 0.0
C3985 C 0.79171 0.61582 0.77427 0.0
C3986 C 0.76226 0.64153 0.74573 0.0
C3987 C 0.75549 0.65146 0.7604 0.0
C3988 C 0.77712 0.62598 0.7689 0.0
C3989 C 0.75826 0.64683 0.77889 0.0
C3990 C 0.80007 0.61778 0.79329 0.0
C3991 C 0.81327 0.59794 0.76431 0.0
N3992 N 0.76923 0.63471 0.7827 0.0
N3993 N 0.79849 0.60588 0.76044 0.0
H3994 H 0.84581 0.62421 0.04734 0.0
H3995 H 0.9181 0.57474 -0.00455 0.0
H3996 H 0.8539 0.62682 0.98849 0.0
H3997 H 0.90357 0.56552 0.05145 0.0
H3998 H 0.89577 0.59491 0.99308 0.0
H3999 H 0.8683 0.60417 0.04967 0.0
C4000 C 0.8524 0.62069 0.03493 0.0
C4001 C 0.84792 0.62728 0.01769 0.0
C4002 C 0.89746 0.58846 0.00588 0.0
C4003 C 0.87367 0.60412 0.02024 0.0
C4004 C 0.91016 0.57682 0.00722 0.0
C4005 C 0.91281 0.5683 0.02368 0.0
C4006 C 0.8873 0.59176 0.02113 0.0
C4007 C 0.9023 0.57193 0.03858 0.0
C4008 C 0.86516 0.60911 0.03624 0.0
C4009 C 0.85673 0.62194 0.00202 0.0
N4010 N 0.89007 0.58336 0.03695 0.0
N4011 N 0.86919 0.61074 0.00368 0.0
H4012 H 0.16629 0.14621 0.78997 0.0
H4013 H 0.27044 0.21088 0.78208 0.0
H4014 H 0.21453 0.12224 0.78332 0.0
H4015 H 0.21802 0.22874 0.77355 0.0
H4016 H 0.25157 0.17924 0.78652 0.0
H4017 H 0.18648 0.17753 0.78809 0.0
C4018 C 0.18112 0.14748 0.78803 0.0
C4019 C 0.18857 0.1314 0.78653 0.0
C4020 C 0.24428 0.19015 0.78368 0.0
C4021 C 0.21202 0.16757 0.78467 0.0
C4022 C 0.25503 0.2082 0.7812 0.0
C4023 C 0.24582 0.22248 0.77728 0.0
C4024 C 0.22424 0.1865 0.78251 0.0
C4025 C 0.22579 0.21819 0.77632 0.0
C4026 C 0.1927 0.16545 0.78705 0.0
C4027 C 0.20812 0.13418 0.78462 0.0
N4028 N 0.21575 0.20068 0.77894 0.0
N4029 N 0.21916 0.1519 0.78366 0.0
H4030 H 0.30142 0.93851 0.29921 0.0
H4031 H 0.27101 0.84139 0.29691 0.0
H4032 H 0.29844 0.92718 0.23813 0.0
H4033 H 0.28706 0.83887 0.2402 0.0
H4034 H 0.27257 0.87496 0.29722 0.0
H4035 H 0.28777 0.90506 0.29993 0.0
C4036 C 0.29719 0.92903 0.28584 0.0
C4037 C 0.30131 0.93556 0.26861 0.0
C4038 C 0.27607 0.86727 0.28479 0.0
C4039 C 0.2857 0.89694 0.26921 0.0
C4040 C 0.27512 0.848 0.2846 0.0
C4041 C 0.27939 0.83744 0.26869 0.0
C4042 C 0.28169 0.87613 0.26907 0.0
C4043 C 0.28398 0.84655 0.2529 0.0
C4044 C 0.28939 0.90976 0.28622 0.0
C4045 C 0.29581 0.92261 0.25175 0.0
N4046 N 0.2852 0.86543 0.25358 0.0
N4047 N 0.28861 0.90385 0.25252 0.0
H4048 H 0.57034 0.40265 0.57817 0.0
H4049 H 0.51128 0.45574 0.50947 0.0
H4050 H 0.51935 0.37329 0.53981 0.0
H4051 H 0.55894 0.48562 0.5517 0.0
H4052 H 0.51495 0.4255 0.51921 0.0
H4053 H 0.56738 0.43269 0.56757 0.0
C4054 C 0.55857 0.40236 0.56741 0.0
C4055 C 0.54511 0.38503 0.55999 0.0
C4056 C 0.52467 0.43865 0.52633 0.0
C4057 C 0.54153 0.42003 0.54772 0.0
C4058 C 0.52262 0.45603 0.52071 0.0
C4059 C 0.53481 0.47354 0.52967 0.0
C4060 C 0.5391 0.43846 0.54107 0.0
C4061 C 0.54914 0.47267 0.54426 0.0
C4062 C 0.55683 0.41969 0.56143 0.0
C4063 C 0.53003 0.38607 0.54626 0.0
N4064 N 0.55087 0.45559 0.54943 0.0
N4065 N 0.52872 0.40309 0.54062 0.0
H4066 H 0.4184 0.78845 0.3514 0.0
H4067 H 0.30414 0.75898 0.32458 0.0
H4068 H 0.38183 0.74267 0.37366 0.0
H4069 H 0.34214 0.79332 0.29205 0.0
H4070 H 0.33203 0.75497 0.3446 0.0
H4071 H 0.39044 0.79241 0.33155 0.0
C4072 C 0.40448 0.77925 0.35219 0.0
C4073 C 0.40257 0.76521 0.36435 0.0
C4074 C 0.33427 0.76338 0.33309 0.0
C4075 C 0.37025 0.76974 0.34148 0.0
C4076 C 0.31832 0.76577 0.32166 0.0
C4077 C 0.32068 0.77653 0.3065 0.0
C4078 C 0.35285 0.77197 0.32957 0.0
C4079 C 0.33952 0.78488 0.30349 0.0
C4080 C 0.3885 0.78147 0.34074 0.0
C4081 C 0.3841 0.75358 0.36446 0.0
N4082 N 0.35479 0.78249 0.31491 0.0
N4083 N 0.3687 0.75618 0.35334 0.0
H4084 H 0.00825 0.6775 0.04734 0.0
H4085 H 0.06089 0.59187 0.03905 0.0
H4086 H 0.06871 0.68537 0.0643 0.0
H4087 H 1.00014 0.58384 0.02399 0.0
H4088 H 0.06419 0.62611 0.04747 0.0
H4089 H 0.00527 0.64357 0.03764 0.0
C4090 C 0.02098 0.67224 0.04891 0.0
C4091 C 0.03878 0.68465 0.0568 0.0
C4092 C 0.05013 0.61687 0.04229 0.0
C4093 C 0.03535 0.64525 0.04577 0.0
C4094 C 0.04822 0.59723 0.03745 0.0
C4095 C 0.03019 0.5847 0.03074 0.0
C4096 C 0.03392 0.62429 0.04046 0.0
C4097 C 0.01436 0.59275 0.02906 0.0
C4098 C 0.01921 0.65271 0.04346 0.0
C4099 C 0.0546 0.67656 0.05863 0.0
N4100 N 0.0166 0.61187 0.03385 0.0
N4101 N 0.0525 0.65755 0.05321 0.0
H4102 H 0.07679 0.23851 0.86068 0.0
H4103 H 0.15874 0.31111 0.819 0.0
H4104 H 0.08737 0.29962 0.87226 0.0
H4105 H 0.15146 0.2503 0.81084 0.0
H4106 H 0.13221 0.307 0.83792 0.0
H4107 H 0.10367 0.24239 0.84215 0.0
C4108 C 0.08478 0.25276 0.85947 0.0
C4109 C 0.07963 0.26875 0.86817 0.0
C4110 C 0.1364 0.29454 0.83202 0.0
C4111 C 0.1105 0.27328 0.84658 0.0
C4112 C 0.15152 0.29685 0.82107 0.0
C4113 C 0.15741 0.28103 0.81314 0.0
C4114 C 0.12688 0.27622 0.83512 0.0
C4115 C 0.14762 0.26296 0.81674 0.0
C4116 C 0.10011 0.25495 0.84875 0.0
C4117 C 0.09047 0.28682 0.86566 0.0
N4118 N 0.13285 0.26106 0.82737 0.0
N4119 N 0.10529 0.28857 0.85515 0.0
H4120 H 0.53224 0.73766 0.94955 0.0
H4121 H 0.51746 0.62511 0.94907 0.0
H4122 H 0.52678 0.69794 0.89847 0.0
H4123 H 0.52476 0.6652 0.00024 0.0
H4124 H 0.52085 0.65149 0.93034 0.0
H4125 H 0.52912 0.71128 0.96823 0.0
C4126 C 0.53028 0.72341 0.9422 0.0
C4127 C 0.52977 0.72015 0.9223 0.0
C4128 C 0.52171 0.65452 0.94567 0.0
C4129 C 0.52636 0.68969 0.9438 0.0
C4130 C 0.51989 0.63944 0.95643 0.0
C4131 C 0.5208 0.64279 0.97637 0.0
C4132 C 0.52447 0.67323 0.95482 0.0
C4133 C 0.52365 0.66175 0.98494 0.0
C4134 C 0.52862 0.70832 0.95293 0.0
C4135 C 0.52752 0.70129 0.91375 0.0
N4136 N 0.52538 0.67617 0.97415 0.0
N4137 N 0.52587 0.68684 0.9245 0.0
H4138 H 0.10754 0.73478 0.7377 0.0
H4139 H 0.21756 0.78926 0.73534 0.0
H4140 H 0.12527 0.78574 0.71203 0.0
H4141 H 0.20144 0.74005 0.76395 0.0
H4142 H 0.18377 0.78747 0.7263 0.0
H4143 H 0.14132 0.73609 0.74738 0.0
C4144 C 0.11842 0.74635 0.73418 0.0
C4145 C 0.11321 0.76012 0.72386 0.0
C4146 C 0.18754 0.77699 0.73452 0.0
C4147 C 0.15234 0.76152 0.73481 0.0
C4148 C 0.20697 0.77796 0.73968 0.0
C4149 C 0.21263 0.76475 0.75045 0.0
C4150 C 0.17332 0.76269 0.74007 0.0
C4151 C 0.19794 0.75055 0.75562 0.0
C4152 C 0.13781 0.74699 0.73963 0.0
C4153 C 0.12828 0.77455 0.7196 0.0
N4154 N 0.17907 0.7499 0.75041 0.0
N4155 N 0.14695 0.77482 0.72503 0.0
H4156 H 0.04825 0.38549 0.45144 0.0
H4157 H 0.01818 0.48452 0.45733 0.0
H4158 H 0.03536 0.41144 0.40186 0.0
H4159 H 0.04245 0.46418 0.50622 0.0
H4160 H 0.0227 0.4571 0.43688 0.0
H4161 H 0.04486 0.41343 0.47167 0.0
C4162 C 0.04489 0.39706 0.44471 0.0
C4163 C 0.04214 0.39588 0.42472 0.0
C4164 C 0.02706 0.45865 0.45208 0.0
C4165 C 0.03779 0.42804 0.44811 0.0
C4166 C 0.02444 0.47431 0.46381 0.0
C4167 C 0.02991 0.47676 0.48362 0.0
C4168 C 0.03507 0.44512 0.46014 0.0
C4169 C 0.03802 0.463 0.49107 0.0
C4170 C 0.04282 0.41303 0.45636 0.0
C4171 C 0.03734 0.41137 0.41709 0.0
N4172 N 0.04026 0.4478 0.47938 0.0
N4173 N 0.03528 0.42668 0.42874 0.0
H4174 H 0.39812 0.23656 0.19877 0.0
H4175 H 0.34652 0.29006 0.27359 0.0
H4176 H 0.42911 0.27284 0.24965 0.0
H4177 H 0.31579 0.23912 0.23606 0.0
H4178 H 0.37656 0.28557 0.26343 0.0
H4179 H 0.36788 0.23891 0.21031 0.0
C4180 C 0.39863 0.24505 0.21236 0.0
C4181 C 0.41642 0.25452 0.22317 0.0
C4182 C 0.36329 0.27528 0.25747 0.0
C4183 C 0.38147 0.25742 0.2365 0.0
C4184 C 0.34603 0.27784 0.26326 0.0
C4185 C 0.32838 0.26493 0.25579 0.0
C4186 C 0.36317 0.25989 0.24367 0.0
C4187 C 0.32893 0.24939 0.2424 0.0
C4188 C 0.38128 0.2463 0.219 0.0
C4189 C 0.41591 0.26515 0.2408 0.0
N4190 N 0.34591 0.24744 0.23665 0.0
N4191 N 0.39886 0.26645 0.24676 0.0
H4192 H 0.5474 0.51912 0.36229 0.0
H4193 H 0.57663 0.52848 0.47562 0.0
H4194 H 0.60591 0.5302 0.3887 0.0
H4195 H 0.51847 0.51498 0.44761 0.0
H4196 H 0.5879 0.52885 0.44426 0.0
H4197 H 0.53685 0.51764 0.39364 0.0
C4198 C 0.55809 0.52135 0.37466 0.0
C4199 C 0.57764 0.52483 0.37267 0.0
C4200 C 0.57267 0.52574 0.44502 0.0
C4201 C 0.56552 0.52296 0.40895 0.0
C4202 C 0.56621 0.52547 0.46294 0.0
C4203 C 0.54652 0.5217 0.46441 0.0
C4204 C 0.55938 0.52226 0.42837 0.0
C4205 C 0.53377 0.51799 0.44736 0.0
C4206 C 0.55201 0.52037 0.39262 0.0
C4207 C 0.59068 0.52725 0.38938 0.0
N4208 N 0.5404 0.51842 0.43019 0.0
N4209 N 0.58442 0.52633 0.40674 0.0
H4210 H 0.30541 0.87387 0.09012 0.0
H4211 H 0.27231 0.77953 0.13639 0.0
H4212 H 0.25939 0.82619 0.06297 0.0
H4213 H 0.32455 0.82276 0.15693 0.0
H4214 H 0.26795 0.79553 0.10854 0.0
H4215 H 0.31322 0.85472 0.11408 0.0
C4216 C 0.29703 0.85931 0.08909 0.0
C4217 C 0.28166 0.85166 0.07454 0.0
C4218 C 0.2805 0.80137 0.11901 0.0
C4219 C 0.29038 0.82971 0.10214 0.0
C4220 C 0.28296 0.79228 0.13489 0.0
C4221 C 0.29871 0.79996 0.149 0.0
C4222 C 0.29379 0.81837 0.11741 0.0
C4223 C 0.31224 0.81634 0.14633 0.0
C4224 C 0.30149 0.84839 0.10281 0.0
C4225 C 0.27113 0.83279 0.07414 0.0
N4226 N 0.30934 0.82515 0.13094 0.0
N4227 N 0.27562 0.82249 0.08782 0.0
H4228 H 0.94441 0.50136 0.87066 0.0
H4229 H 0.02263 0.55509 0.95903 0.0
H4230 H 0.96927 0.56197 0.87805 0.0
H4231 H 0.98232 0.50097 0.95846 0.0
H4232 H 0.00824 0.55628 0.92655 0.0
H4233 H 0.9637 0.49944 0.90006 0.0
C4234 C 0.95414 0.51424 0.87836 0.0
C4235 C 0.95523 0.53186 0.87199 0.0
C4236 C 0.0027 0.54413 0.93358 0.0
C4237 C 0.97716 0.5298 0.90574 0.0
C4238 C 0.01092 0.5434 0.95199 0.0
C4239 C 0.00349 0.528 0.96142 0.0
C4240 C 0.98725 0.52919 0.92459 0.0
C4241 C 0.98831 0.51322 0.95178 0.0
C4242 C 0.96504 0.51316 0.8952 0.0
C4243 C 0.96788 0.54815 0.88265 0.0
N4244 N 0.98069 0.5142 0.9339 0.0
N4245 N 0.97836 0.54675 0.89911 0.0
H4246 H 0.30147 0.2461 0.61665 0.0
H4247 H 0.24118 0.26892 0.70071 0.0
H4248 H 0.23978 0.23208 0.60819 0.0
H4249 H 0.29814 0.26078 0.71027 0.0
H4250 H 0.24102 0.26059 0.66617 0.0
H4251 H 0.30117 0.25702 0.65036 0.0
C4252 C 0.28785 0.24553 0.62181 0.0
C4253 C 0.27063 0.23809 0.6095 0.0
C4254 C 0.25354 0.26069 0.67589 0.0
C4255 C 0.27017 0.25062 0.64827 0.0
C4256 C 0.25367 0.26551 0.69559 0.0
C4257 C 0.26964 0.26543 0.70849 0.0
C4258 C 0.26965 0.25616 0.66902 0.0
C4259 C 0.28541 0.26085 0.70096 0.0
C4260 C 0.28769 0.25164 0.64112 0.0
C4261 C 0.25341 0.23753 0.61716 0.0
N4262 N 0.28504 0.25651 0.68183 0.0
N4263 N 0.25361 0.24373 0.636 0.0
H4264 H 0.58695 0.55931 0.17511 0.0
H4265 H 0.52713 0.5 0.07752 0.0
H4266 H 0.55097 0.5023 0.17094 0.0
H4267 H 0.55291 0.56036 0.08378 0.0
H4268 H 0.53673 0.50047 0.11142 0.0
H4269 H 0.57553 0.55989 0.14179 0.0
C4270 C 0.5765 0.54695 0.16736 0.0
C4271 C 0.56997 0.53071 0.17615 0.0
C4272 C 0.54023 0.51365 0.10545 0.0
C4273 C 0.55709 0.53123 0.13749 0.0
C4274 C 0.53477 0.51341 0.08601 0.0
C4275 C 0.5392 0.53018 0.07764 0.0
C4276 C 0.55044 0.53075 0.11679 0.0
C4277 C 0.5491 0.54708 0.08954 0.0
C4278 C 0.57008 0.54729 0.1482 0.0
C4279 C 0.55674 0.51506 0.16493 0.0
N4280 N 0.55449 0.54691 0.10844 0.0
N4281 N 0.55085 0.51569 0.14628 0.0
H4282 H 0.25995 0.81676 0.92142 0.0
H4283 H 0.23325 0.80225 0.80992 0.0
H4284 H 0.22021 0.84306 0.89248 0.0
H4285 H 0.26727 0.7703 0.83898 0.0
H4286 H 0.22398 0.81317 0.8402 0.0
H4287 H 0.2583 0.79536 0.89207 0.0
C4288 C 0.25061 0.81776 0.90892 0.0
C4289 C 0.24049 0.83187 0.90916 0.0
C4290 C 0.23326 0.80357 0.83997 0.0
C4291 C 0.2387 0.8077 0.87557 0.0
C4292 C 0.23866 0.79741 0.82269 0.0
C4293 C 0.2514 0.78571 0.82204 0.0
C4294 C 0.24091 0.79824 0.85679 0.0
C4295 C 0.25762 0.77953 0.83892 0.0
C4296 C 0.24964 0.80554 0.89219 0.0
C4297 C 0.22834 0.83242 0.89278 0.0
N4298 N 0.25258 0.78616 0.8557 0.0
N4299 N 0.22806 0.82074 0.87649 0.0
H4300 H 0.9657 0.53759 0.72159 0.0
H4301 H 0.97399 0.47988 0.62208 0.0
H4302 H 0.91697 0.50358 0.68261 0.0
H4303 H 0.02091 0.52266 0.65544 0.0
H4304 H 0.95378 0.48463 0.64664 0.0
H4305 H 0.98683 0.5293 0.69942 0.0
C4306 C 0.95942 0.52854 0.70828 0.0
C4307 C 0.93951 0.52143 0.70386 0.0
C4308 C 0.96855 0.49285 0.64867 0.0
C4309 C 0.96366 0.51151 0.67865 0.0
C4310 C 0.98013 0.49001 0.63477 0.0
C4311 C 0.99908 0.50099 0.63673 0.0
C4312 C 0.97602 0.50674 0.66463 0.0
C4313 C 0.00628 0.51409 0.65331 0.0
C4314 C 0.97151 0.52366 0.69572 0.0
C4315 C 0.93223 0.5093 0.68665 0.0
N4316 N 0.99469 0.51669 0.66659 0.0
N4317 N 0.94431 0.50475 0.67464 0.0
H4318 H 0.30708 0.24959 0.4222 0.0
H4319 H 0.2565 0.23215 0.31372 0.0
H4320 H 0.25283 0.20943 0.40163 0.0
H4321 H 0.30659 0.27778 0.33525 0.0
H4322 H 0.25644 0.22228 0.34532 0.0
H4323 H 0.30848 0.25877 0.39023 0.0
C4324 C 0.29548 0.24263 0.411 0.0
C4325 C 0.27976 0.22871 0.4148 0.0
C4326 C 0.2675 0.23442 0.34316 0.0
C4327 C 0.28131 0.23924 0.37795 0.0
C4328 C 0.2676 0.24006 0.32502 0.0
C4329 C 0.28157 0.2559 0.32166 0.0
C4330 C 0.28149 0.24459 0.35824 0.0
C4331 C 0.29552 0.2655 0.33706 0.0
C4332 C 0.29626 0.24796 0.39272 0.0
C4333 C 0.26511 0.22041 0.3996 0.0
N4334 N 0.29511 0.25972 0.35461 0.0
N4335 N 0.26627 0.22574 0.38195 0.0
H4336 H 0.37038 0.60241 0.539 0.0
H4337 H 0.37941 0.50072 0.49594 0.0
H4338 H 0.32042 0.5559 0.52025 0.0
H4339 H 0.42412 0.54117 0.53463 0.0
H4340 H 0.35736 0.52063 0.5029 0.0
H4341 H 0.39057 0.58024 0.5353 0.0
C4342 C 0.36371 0.58749 0.53408 0.0
C4343 C 0.3438 0.58089 0.52986 0.0
C4344 C 0.37193 0.52492 0.51005 0.0
C4345 C 0.36668 0.55551 0.52558 0.0
C4346 C 0.38447 0.51363 0.50607 0.0
C4347 C 0.40356 0.5193 0.51477 0.0
C4348 C 0.37871 0.54209 0.52252 0.0
C4349 C 0.40946 0.53612 0.52779 0.0
C4350 C 0.37518 0.57484 0.5321 0.0
C4351 C 0.33576 0.56144 0.52371 0.0
N4352 N 0.39714 0.54702 0.5311 0.0
N4353 N 0.34727 0.54937 0.52157 0.0
H4354 H 0.89124 0.93372 0.56039 0.0
H4355 H 0.95593 0.01442 0.51113 0.0
H4356 H 0.87066 0.95282 0.50907 0.0
H4357 H 0.97983 0.98032 0.54773 0.0
H4358 H 0.92379 -0.00433 0.51396 0.0
H4359 H 0.9231 0.95453 0.55969 0.0
C4360 C 0.8934 0.94242 0.54909 0.0
C4361 C 0.87833 0.9415 0.53472 0.0
C4362 C 0.93608 0.99236 0.52141 0.0
C4363 C 0.91462 0.96533 0.53387 0.0
C4364 C 0.95443 0.0031 0.51987 0.0
C4365 C 0.97062 -0.0011 0.52914 0.0
C4366 C 0.93387 0.97748 0.53252 0.0
C4367 C 0.96777 0.984 0.54024 0.0
C4368 C 0.91157 0.95419 0.54863 0.0
C4369 C 0.88194 0.95297 0.52031 0.0
N4370 N 0.94976 0.97386 0.54165 0.0
N4371 N 0.89969 0.96444 0.52027 0.0
H4372 H 0.88449 0.11297 0.30036 0.0
H4373 H 0.81118 0.16301 0.247 0.0
H4374 H 0.86618 0.10218 0.23975 0.0
H4375 H 0.83006 0.17535 0.3075 0.0
H4376 H 0.83173 0.14109 0.24418 0.0
H4377 H 0.86552 0.13648 0.30332 0.0
C4378 C 0.87665 0.11565 0.28764 0.0
C4379 C 0.87692 0.10546 0.26977 0.0
C4380 C 0.83142 0.14858 0.25809 0.0
C4381 C 0.85494 0.13229 0.27311 0.0
C4382 C 0.81957 0.16105 0.25973 0.0
C4383 C 0.81875 0.17101 0.27754 0.0
C4384 C 0.84257 0.14591 0.27438 0.0
C4385 C 0.83031 0.16812 0.29345 0.0
C4386 C 0.86571 0.12901 0.28937 0.0
C4387 C 0.8662 0.10942 0.25386 0.0
N4388 N 0.84165 0.1558 0.29151 0.0
N4389 N 0.85567 0.12244 0.25591 0.0
H4390 H 0.67875 0.09349 -0.00238 0.0
H4391 H 0.5924 0.04709 0.05236 0.0
H4392 H 0.68395 0.09052 0.05801 0.0
H4393 H 0.585 0.0528 0.99258 0.0
H4394 H 0.62646 0.06131 0.05396 0.0
H4395 H 0.64475 0.07724 0.99484 0.0
C4396 C 0.67273 0.08945 0.01029 0.0
C4397 C 0.68419 0.09335 0.02808 0.0
C4398 C 0.61743 0.05944 0.04047 0.0
C4399 C 0.64546 0.07466 0.02498 0.0
C4400 C 0.59793 0.0513 0.03953 0.0
C4401 C 0.5858 0.04884 0.02232 0.0
C4402 C 0.62491 0.06523 0.02409 0.0
C4403 C 0.59384 0.05448 0.00616 0.0
C4404 C 0.65337 0.0801 0.00867 0.0
C4405 C 0.67573 0.08757 0.04397 0.0
N4406 N 0.61293 0.0625 0.00745 0.0
N4407 N 0.65689 0.07856 0.04204 0.0
H4408 H 0.23998 0.47187 0.25913 0.0
H4409 H 0.26468 0.39417 0.32083 0.0
H4410 H 0.20544 0.44788 0.30048 0.0
H4411 H 0.29406 0.41238 0.27392 0.0
H4412 H 0.24645 0.41802 0.31756 0.0
H4413 H 0.26298 0.45383 0.26788 0.0
C4414 C 0.23719 0.46272 0.27 0.0
C4415 C 0.22061 0.4611 0.27887 0.0
C4416 C 0.25706 0.41696 0.30815 0.0
C4417 C 0.24704 0.44067 0.28917 0.0
C4418 C 0.26759 0.40349 0.31012 0.0
C4419 C 0.28074 0.40123 0.2975 0.0
C4420 C 0.25975 0.42821 0.29346 0.0
C4421 C 0.28382 0.4135 0.28374 0.0
C4422 C 0.25041 0.45256 0.2751 0.0
C4423 C 0.21802 0.44951 0.29327 0.0
N4424 N 0.27326 0.42636 0.28197 0.0
N4425 N 0.23105 0.4396 0.29788 0.0
H4426 H 0.19459 0.42201 0.98888 0.0
H4427 H 0.13704 0.48773 0.04324 0.0
H4428 H 0.20449 0.43949 0.04974 0.0
H4429 H 0.13435 0.47812 0.98207 0.0
H4430 H 0.16017 0.46839 0.04596 0.0
H4431 H 0.17121 0.441 0.98619 0.0
C4432 C 0.19197 0.4299 0.0017 0.0
C4433 C 0.20168 0.4291 0.01958 0.0
C4434 C 0.15454 0.47051 0.03194 0.0
C4435 C 0.17454 0.45074 0.01657 0.0
C4436 C 0.14122 0.48147 0.03036 0.0
C4437 C 0.1337 0.48459 0.01239 0.0
C4438 C 0.16033 0.46245 0.01542 0.0
C4439 C 0.1399 0.4763 -0.00377 0.0
C4440 C 0.1785 0.44068 0.00014 0.0
C4441 C 0.19725 0.43938 0.03567 0.0
N4442 N 0.15278 0.46559 -0.00187 0.0
N4443 N 0.18404 0.44973 0.03378 0.0
H4444 H 0.85017 0.9335 0.28481 0.0
H4445 H 0.81855 0.82461 0.2394 0.0
H4446 H 0.86427 0.91379 0.22994 0.0
H4447 H 0.78783 0.84859 0.28037 0.0
H4448 H 0.83743 0.85666 0.2373 0.0
H4449 H 0.8292 0.90208 0.28498 0.0
C4450 C 0.84877 0.92271 0.27267 0.0
C4451 C 0.85908 0.92653 0.25727 0.0
C4452 C 0.82646 0.85492 0.24664 0.0
C4453 C 0.83532 0.89015 0.25774 0.0
C4454 C 0.8157 0.83662 0.2479 0.0
C4455 C 0.80157 0.83389 0.2601 0.0
C4456 C 0.82335 0.87063 0.25793 0.0
C4457 C 0.79851 0.85002 0.27072 0.0
C4458 C 0.83682 0.90469 0.27287 0.0
C4459 C 0.85694 0.91159 0.24228 0.0
N4460 N 0.80944 0.86768 0.26953 0.0
N4461 N 0.84541 0.89408 0.24295 0.0
H4462 H 0.72526 0.12317 0.71027 0.0
H4463 H 0.76762 0.21663 0.78471 0.0
H4464 H 0.74642 0.12261 0.76893 0.0
H4465 H 0.75677 0.21722 0.7241 0.0
H4466 H 0.76184 0.18208 0.77884 0.0
H4467 H 0.73943 0.15746 0.71428 0.0
C4468 C 0.73324 0.13026 0.72387 0.0
C4469 C 0.73453 0.12019 0.73935 0.0
C4470 C 0.76086 0.18978 0.76681 0.0
C4471 C 0.75041 0.1593 0.74419 0.0
C4472 C 0.76401 0.20948 0.77017 0.0
C4473 C 0.76243 0.21975 0.75488 0.0
C4474 C 0.75592 0.18029 0.74805 0.0
C4475 C 0.75797 0.20982 0.73631 0.0
C4476 C 0.7413 0.1498 0.72619 0.0
C4477 C 0.74514 0.1299 0.75664 0.0
N4478 N 0.75469 0.19059 0.73343 0.0
N4479 N 0.7524 0.14902 0.75871 0.0
loop_
_geom_bond_atom_site_label_1
_geom_bond_atom_site_label_2
_geom_bond_distance
_geom_bond_site_symmetry_2
_ccdc_geom_bond_type
Li0 N17 1.990 1_455 S
Li0 O60 1.956 . S
Li0 O61 1.970 . S
Li0 O62 1.961 . S
Li1 N25 1.990 . S
Li1 O60 1.970 . S
Li1 O61 1.956 . S
Li1 O63 1.961 . S
Li2 N47 1.990 . S
Li2 O60 1.961 . S
Li2 O62 1.956 . S
Li2 O63 1.970 . S
Li3 N53 1.990 . S
Li3 O61 1.961 . S
Li3 O62 1.970 . S
Li3 O63 1.956 . S
C4 C6 1.348 . S
C4 C7 1.356 . S
C4 O60 1.325 . S
N5 C8 1.314 . S
N5 C9 1.279 . S
C6 C4 1.348 . S
C6 C8 1.353 . S
C6 H64 0.929 . S
C7 C4 1.356 . S
C7 C9 1.358 . S
C7 H65 0.930 . S
C8 N5 1.314 . S
C8 C6 1.353 . S
C8 H66 0.930 . S
C9 N5 1.279 . S
C9 C7 1.358 . S
C9 H67 0.930 . S
C10 C13 1.348 . S
C10 C14 1.356 . S
C10 O61 1.325 1_655 S
C11 N12 1.279 . S
C11 C14 1.358 . S
C11 H68 0.930 . S
N12 C11 1.279 . S
N12 C15 1.314 . S
C13 C10 1.348 . S
C13 C15 1.353 . S
C13 H69 0.929 . S
C14 C10 1.356 . S
C14 C11 1.358 . S
C14 H70 0.930 1_655 S
C15 N12 1.314 . S
C15 C13 1.353 . S
C15 H71 0.930 . S
C16 N17 1.314 . S
C16 C21 1.353 . S
C16 H22 0.930 . S
N17 Li0 1.990 1_655 S
N17 C16 1.314 . S
N17 C19 1.279 . S
C18 C19 1.358 . S
C18 C20 1.356 . S
C18 H72 0.930 . S
C19 N17 1.279 . S
C19 C18 1.358 . S
C19 H23 0.930 . S
C20 C18 1.356 . S
C20 C21 1.348 . S
C21 C16 1.353 . S
C21 C20 1.348 . S
C21 H73 0.929 . S
H22 C16 0.930 . S
H23 C19 0.930 . S
C24 N25 1.314 . S
C24 C26 1.353 . S
C24 H30 0.930 . S
N25 Li1 1.990 . S
N25 C24 1.314 . S
N25 C28 1.279 . S
C26 C24 1.353 . S
C26 C29 1.348 . S
C26 H74 0.929 . S
C27 C28 1.358 . S
C27 C29 1.356 . S
C27 H75 0.930 . S
C28 N25 1.279 . S
C28 C27 1.358 . S
C28 H31 0.930 . S
C29 C26 1.348 . S
C29 C27 1.356 . S
H30 C24 0.930 . S
H31 C28 0.930 . S
C32 C34 1.348 . S
C32 C35 1.356 . S
C32 O62 1.325 . S
N33 C36 1.314 . S
N33 C37 1.279 . S
C34 C32 1.348 . S
C34 C36 1.353 . S
C34 H76 0.929 . S
C35 C32 1.356 . S
C35 C37 1.358 . S
C35 H77 0.930 . S
C36 N33 1.314 . S
C36 C34 1.353 . S
C36 H78 0.930 . S
C37 N33 1.279 . S
C37 C35 1.358 . S
C37 H79 0.930 . S
C38 C39 1.348 . S
C38 C40 1.356 . S
C38 O63 1.325 . S
C39 C38 1.348 . S
C39 C41 1.353 . S
C39 H80 0.929 . S
C40 C38 1.356 . S
C40 C42 1.358 . S
C40 H81 0.930 . S
C41 C39 1.353 . S
C41 N43 1.314 . S
C41 H82 0.930 . S
C42 C40 1.358 . S
C42 N43 1.279 . S
C42 H83 0.930 . S
N43 C41 1.314 . S
N43 C42 1.279 . S
C44 C46 1.353 . S
C44 N47 1.314 . S
C44 H50 0.930 . S
C45 N47 1.279 . S
C45 C48 1.358 . S
C45 H51 0.930 . S
C46 C44 1.353 . S
C46 C49 1.348 . S
C46 H84 0.929 . S
N47 Li2 1.990 . S
N47 C44 1.314 . S
N47 C45 1.279 . S
C48 C45 1.358 . S
C48 C49 1.356 . S
C48 H85 0.930 . S
C49 C46 1.348 . S
C49 C48 1.356 . S
H50 C44 0.930 . S
H51 C45 0.930 . S
C52 N53 1.314 . S
C52 C54 1.353 . S
C52 H58 0.898 1_455 S
N53 Li3 1.990 . S
N53 C52 1.314 . S
N53 C56 1.279 . S
C54 C52 1.353 . S
C54 C57 1.348 . S
C54 H86 0.929 1_455 S
C55 C56 1.358 . S
C55 C57 1.356 . S
C55 H87 0.930 . S
C56 N53 1.279 . S
C56 C55 1.358 . S
C56 H59 0.930 . S
C57 C54 1.348 . S
C57 C55 1.356 . S
H58 C52 0.898 1_655 S
H59 C56 0.930 . S
O60 Li0 1.956 . S
O60 Li1 1.970 . S
O60 Li2 1.961 . S
O60 C4 1.325 . S
O61 Li0 1.970 . S
O61 Li1 1.956 . S
O61 Li3 1.961 . S
O61 C10 1.325 1_455 S
O62 Li0 1.961 . S
O62 Li2 1.956 . S
O62 Li3 1.970 . S
O62 C32 1.325 . S
O63 Li1 1.961 . S
O63 Li2 1.970 . S
O63 Li3 1.956 . S
O63 C38 1.325 . S
H64 C6 0.929 . S
H65 C7 0.930 . S
H66 C8 0.930 . S
H67 C9 0.930 . S
H68 C11 0.930 . S
H69 C13 0.929 . S
H70 C14 0.930 1_455 S
H71 C15 0.930 . S
H72 C18 0.930 . S
H73 C21 0.929 . S
H74 C26 0.929 . S
H75 C27 0.930 . S
H76 C34 0.929 . S
H77 C35 0.930 . S
H78 C36 0.930 . S
H79 C37 0.930 . S
H80 C39 0.929 . S
H81 C40 0.930 . S
H82 C41 0.930 . S
H83 C42 0.930 . S
H84 C46 0.929 . S
H85 C48 0.930 . S
H86 C54 0.929 1_655 S
H87 C55 0.930 . S
Li88 N105 1.990 . S
Li88 O148 1.956 . S
Li88 O149 1.970 . S
Li88 O150 1.961 1_455 S
Li89 N113 1.990 . S
Li89 O148 1.970 . S
Li89 O149 1.956 . S
Li89 O151 1.961 . S
Li90 N135 1.990 . S
Li90 O148 1.961 . S
Li90 O150 1.956 1_455 S
Li90 O151 1.970 . S
Li91 N141 1.990 1_455 S
Li91 O149 1.961 . S
Li91 O150 1.970 1_455 S
Li91 O151 1.956 . S
C92 C94 1.348 . S
C92 C95 1.356 . S
C92 O148 1.325 . S
N93 C96 1.314 . S
N93 C97 1.279 . S
C94 C92 1.348 . S
C94 C96 1.353 . S
C94 H152 0.929 . S
C95 C92 1.356 . S
C95 C97 1.358 . S
C95 H153 0.930 . S
C96 N93 1.314 . S
C96 C94 1.353 . S
C96 H154 0.930 . S
C97 N93 1.279 . S
C97 C95 1.358 . S
C97 H155 0.930 . S
C98 C101 1.348 . S
C98 C102 1.356 . S
C98 O149 1.325 . S
C99 N100 1.279 . S
C99 C102 1.358 . S
C99 H156 0.930 . S
N100 C99 1.279 . S
N100 C103 1.314 . S
C101 C98 1.348 . S
C101 C103 1.353 . S
C101 H157 0.929 . S
C102 C98 1.356 . S
C102 C99 1.358 . S
C102 H158 0.930 . S
C103 N100 1.314 . S
C103 C101 1.353 . S
C103 H159 0.930 . S
C104 N105 1.314 . S
C104 C109 1.353 . S
C104 H110 0.930 1_455 S
N105 Li88 1.990 . S
N105 C104 1.314 . S
N105 C107 1.279 . S
C106 C107 1.358 . S
C106 C108 1.356 . S
C106 H160 0.930 . S
C107 N105 1.279 . S
C107 C106 1.358 . S
C107 H111 0.930 . S
C108 C106 1.356 . S
C108 C109 1.348 . S
C109 C104 1.353 . S
C109 C108 1.348 . S
C109 H161 0.929 1_455 S
H110 C104 0.930 1_655 S
H111 C107 0.930 . S
C112 N113 1.314 . S
C112 C114 1.353 . S
C112 H118 0.930 . S
N113 Li89 1.990 . S
N113 C112 1.314 . S
N113 C116 1.279 . S
C114 C112 1.353 . S
C114 C117 1.348 . S
C114 H162 0.929 . S
C115 C116 1.358 . S
C115 C117 1.356 . S
C115 H163 0.930 . S
C116 N113 1.279 . S
C116 C115 1.358 . S
C116 H119 0.930 . S
C117 C114 1.348 . S
C117 C115 1.356 . S
H118 C112 0.930 . S
H119 C116 0.930 . S
C120 C122 1.348 . S
C120 C123 1.356 . S
C120 O150 1.325 . S
N121 C124 1.314 . S
N121 C125 1.279 . S
C122 C120 1.348 . S
C122 C124 1.353 . S
C122 H164 0.929 . S
C123 C120 1.356 . S
C123 C125 1.358 . S
C123 H165 0.930 . S
C124 N121 1.314 . S
C124 C122 1.353 . S
C124 H166 0.930 . S
C125 N121 1.279 . S
C125 C123 1.358 . S
C125 H167 0.930 . S
C126 C127 1.348 . S
C126 C128 1.356 . S
C126 O151 1.325 . S
C127 C126 1.348 . S
C127 C129 1.353 . S
C127 H168 0.929 . S
C128 C126 1.356 . S
C128 C130 1.358 . S
C128 H169 0.930 . S
C129 C127 1.353 . S
C129 N131 1.314 . S
C129 H170 0.930 . S
C130 C128 1.358 . S
C130 N131 1.279 . S
C130 H171 0.930 . S
N131 C129 1.314 . S
N131 C130 1.279 . S
C132 C134 1.353 . S
C132 N135 1.314 . S
C132 H138 0.930 . S
C133 N135 1.279 1_655 S
C133 C136 1.358 . S
C133 H139 0.930 . S
C134 C132 1.353 . S
C134 C137 1.348 . S
C134 H172 0.929 . S
N135 Li90 1.990 . S
N135 C132 1.314 . S
N135 C133 1.279 1_455 S
C136 C133 1.358 . S
C136 C137 1.356 1_655 S
C136 H173 0.930 . S
C137 C134 1.348 . S
C137 C136 1.356 1_455 S
H138 C132 0.930 . S
H139 C133 0.930 . S
C140 N141 1.314 . S
C140 C142 1.353 . S
C140 H146 0.930 . S
N141 Li91 1.990 1_655 S
N141 C140 1.314 . S
N141 C144 1.279 . S
C142 C140 1.353 . S
C142 C145 1.348 . S
C142 H174 0.929 . S
C143 C144 1.358 . S
C143 C145 1.356 . S
C143 H175 0.930 . S
C144 N141 1.279 . S
C144 C143 1.358 . S
C144 H147 0.930 . S
C145 C142 1.348 . S
C145 C143 1.356 . S
H146 C140 0.930 . S
H147 C144 0.930 . S
O148 Li88 1.956 . S
O148 Li89 1.970 . S
O148 Li90 1.961 . S
O148 C92 1.325 . S
O149 Li88 1.970 . S
O149 Li89 1.956 . S
O149 Li91 1.961 . S
O149 C98 1.325 . S
O150 Li88 1.961 1_655 S
O150 Li90 1.956 1_655 S
O150 Li91 1.970 1_655 S
O150 C120 1.325 . S
O151 Li89 1.961 . S
O151 Li90 1.970 . S
O151 Li91 1.956 . S
O151 C126 1.325 . S
H152 C94 0.929 . S
H153 C95 0.930 . S
H154 C96 0.930 . S
H155 C97 0.930 . S
H156 C99 0.930 . S
H157 C101 0.929 . S
H158 C102 0.930 . S
H159 C103 0.930 . S
H160 C106 0.930 . S
H161 C109 0.929 1_655 S
H162 C114 0.929 . S
H163 C115 0.930 . S
H164 C122 0.929 . S
H165 C123 0.930 . S
H166 C124 0.930 . S
H167 C125 0.930 . S
H168 C127 0.929 . S
H169 C128 0.930 . S
H170 C129 0.930 . S
H171 C130 0.930 . S
H172 C134 0.929 . S
H173 C136 0.930 . S
H174 C142 0.929 . S
H175 C143 0.930 . S
Li176 N193 1.990 . S
Li176 O236 1.956 . S
Li176 O237 1.970 . S
Li176 O238 1.961 . S
Li177 N201 1.990 . S
Li177 O236 1.970 . S
Li177 O237 1.956 . S
Li177 O239 1.961 . S
Li178 N223 1.990 . S
Li178 O236 1.961 . S
Li178 O238 1.956 . S
Li178 O239 1.970 . S
Li179 N229 1.990 . S
Li179 O237 1.961 . S
Li179 O238 1.970 . S
Li179 O239 1.956 . S
C180 C182 1.348 . S
C180 C183 1.356 . S
C180 O236 1.325 . S
N181 C184 1.314 . S
N181 C185 1.279 . S
C182 C180 1.348 . S
C182 C184 1.353 . S
C182 H240 0.929 . S
C183 C180 1.356 . S
C183 C185 1.358 . S
C183 H241 0.930 . S
C184 N181 1.314 . S
C184 C182 1.353 . S
C184 H242 0.930 . S
C185 N181 1.279 . S
C185 C183 1.358 . S
C185 H243 0.930 . S
C186 C189 1.348 . S
C186 C190 1.356 . S
C186 O237 1.325 . S
C187 N188 1.279 . S
C187 C190 1.358 . S
C187 H244 0.930 . S
N188 C187 1.279 . S
N188 C191 1.314 . S
C189 C186 1.348 . S
C189 C191 1.353 . S
C189 H245 0.929 . S
C190 C186 1.356 . S
C190 C187 1.358 . S
C190 H246 0.930 . S
C191 N188 1.314 . S
C191 C189 1.353 . S
C191 H247 0.930 . S
C192 N193 1.314 . S
C192 C197 1.353 . S
C192 H198 0.930 . S
N193 Li176 1.990 . S
N193 C192 1.314 . S
N193 C195 1.279 . S
C194 C195 1.358 . S
C194 C196 1.356 . S
C194 H248 0.930 . S
C195 N193 1.279 . S
C195 C194 1.358 . S
C195 H199 0.930 . S
C196 C194 1.356 . S
C196 C197 1.348 . S
C197 C192 1.353 . S
C197 C196 1.348 . S
C197 H249 0.929 . S
H198 C192 0.930 . S
H199 C195 0.930 . S
C200 N201 1.314 . S
C200 C202 1.353 . S
C200 H206 0.930 . S
N201 Li177 1.990 . S
N201 C200 1.314 . S
N201 C204 1.279 . S
C202 C200 1.353 . S
C202 C205 1.348 . S
C202 H250 0.929 . S
C203 C204 1.358 . S
C203 C205 1.356 . S
C203 H251 0.930 . S
C204 N201 1.279 . S
C204 C203 1.358 . S
C204 H207 0.930 . S
C205 C202 1.348 . S
C205 C203 1.356 . S
H206 C200 0.930 . S
H207 C204 0.930 . S
C208 C210 1.348 . S
C208 C211 1.356 . S
C208 O238 1.325 . S
N209 C212 1.314 . S
N209 C213 1.279 . S
C210 C208 1.348 . S
C210 C212 1.353 . S
C210 H252 0.929 . S
C211 C208 1.356 . S
C211 C213 1.358 . S
C211 H253 0.930 . S
C212 N209 1.314 . S
C212 C210 1.353 . S
C212 H254 0.930 . S
C213 N209 1.279 . S
C213 C211 1.358 . S
C213 H255 0.930 . S
C214 C215 1.348 . S
C214 C216 1.356 . S
C214 O239 1.325 . S
C215 C214 1.348 . S
C215 C217 1.353 . S
C215 H256 0.929 . S
C216 C214 1.356 . S
C216 C218 1.358 . S
C216 H257 0.930 . S
C217 C215 1.353 . S
C217 N219 1.314 . S
C217 H258 0.930 . S
C218 C216 1.358 . S
C218 N219 1.279 . S
C218 H259 0.930 . S
N219 C217 1.314 . S
N219 C218 1.279 . S
C220 C222 1.353 . S
C220 N223 1.314 . S
C220 H226 0.930 . S
C221 N223 1.279 . S
C221 C224 1.358 . S
C221 H227 0.930 . S
C222 C220 1.353 . S
C222 C225 1.348 . S
C222 H260 0.929 . S
N223 Li178 1.990 . S
N223 C220 1.314 . S
N223 C221 1.279 . S
C224 C221 1.358 . S
C224 C225 1.356 . S
C224 H261 0.930 . S
C225 C222 1.348 . S
C225 C224 1.356 . S
H226 C220 0.930 . S
H227 C221 0.930 . S
C228 N229 1.314 . S
C228 C230 1.353 . S
C228 H234 0.930 . S
N229 Li179 1.990 . S
N229 C228 1.314 . S
N229 C232 1.279 . S
C230 C228 1.353 . S
C230 C233 1.348 . S
C230 H262 0.929 . S
C231 C232 1.358 . S
C231 C233 1.356 . S
C231 H263 0.930 . S
C232 N229 1.279 . S
C232 C231 1.358 . S
C232 H235 0.930 . S
C233 C230 1.348 . S
C233 C231 1.356 . S
H234 C228 0.930 . S
H235 C232 0.930 . S
O236 Li176 1.956 . S
O236 Li177 1.970 . S
O236 Li178 1.961 . S
O236 C180 1.325 . S
O237 Li176 1.970 . S
O237 Li177 1.956 . S
O237 Li179 1.961 . S
O237 C186 1.325 . S
O238 Li176 1.961 . S
O238 Li178 1.956 . S
O238 Li179 1.970 . S
O238 C208 1.325 . S
O239 Li177 1.961 . S
O239 Li178 1.970 . S
O239 Li179 1.956 . S
O239 C214 1.325 . S
H240 C182 0.929 . S
H241 C183 0.930 . S
H242 C184 0.930 . S
H243 C185 0.930 . S
H244 C187 0.930 . S
H245 C189 0.929 . S
H246 C190 0.930 . S
H247 C191 0.930 . S
H248 C194 0.930 . S
H249 C197 0.929 . S
H250 C202 0.929 . S
H251 C203 0.930 . S
H252 C210 0.929 . S
H253 C211 0.930 . S
H254 C212 0.930 . S
H255 C213 0.930 . S
H256 C215 0.929 . S
H257 C216 0.930 . S
H258 C217 0.930 . S
H259 C218 0.930 . S
H260 C222 0.929 . S
H261 C224 0.930 . S
H262 C230 0.929 . S
H263 C231 0.930 . S
Li264 N281 1.990 . S
Li264 O324 1.956 . S
Li264 O325 1.970 . S
Li264 O326 1.961 . S
Li265 N289 1.990 . S
Li265 O324 1.970 . S
Li265 O325 1.956 . S
Li265 O327 1.961 . S
Li266 N311 1.990 . S
Li266 O324 1.961 . S
Li266 O326 1.956 . S
Li266 O327 1.970 . S
Li267 N317 1.990 . S
Li267 O325 1.961 . S
Li267 O326 1.970 . S
Li267 O327 1.956 . S
C268 C270 1.348 . S
C268 C271 1.356 . S
C268 O324 1.325 . S
N269 C272 1.314 . S
N269 C273 1.279 . S
C270 C268 1.348 . S
C270 C272 1.353 . S
C270 H328 0.929 . S
C271 C268 1.356 . S
C271 C273 1.358 . S
C271 H329 0.930 . S
C272 N269 1.314 . S
C272 C270 1.353 . S
C272 H330 0.930 . S
C273 N269 1.279 . S
C273 C271 1.358 . S
C273 H331 0.930 . S
C274 C277 1.348 . S
C274 C278 1.356 . S
C274 O325 1.325 . S
C275 N276 1.279 . S
C275 C278 1.358 . S
C275 H332 0.930 . S
N276 C275 1.279 . S
N276 C279 1.314 . S
C277 C274 1.348 . S
C277 C279 1.353 . S
C277 H333 0.929 . S
C278 C274 1.356 . S
C278 C275 1.358 . S
C278 H334 0.930 . S
C279 N276 1.314 . S
C279 C277 1.353 . S
C279 H335 0.930 . S
C280 N281 1.314 . S
C280 C285 1.353 . S
C280 H286 0.930 . S
N281 Li264 1.990 . S
N281 C280 1.314 . S
N281 C283 1.279 . S
C282 C283 1.358 . S
C282 C284 1.356 . S
C282 H336 0.930 . S
C283 N281 1.279 . S
C283 C282 1.358 . S
C283 H287 0.930 . S
C284 C282 1.356 . S
C284 C285 1.348 . S
C285 C280 1.353 . S
C285 C284 1.348 . S
C285 H337 0.929 . S
H286 C280 0.930 . S
H287 C283 0.930 . S
C288 N289 1.314 . S
C288 C290 1.353 . S
C288 H294 0.930 . S
N289 Li265 1.990 . S
N289 C288 1.314 . S
N289 C292 1.279 . S
C290 C288 1.353 . S
C290 C293 1.348 . S
C290 H338 0.929 . S
C291 C292 1.358 . S
C291 C293 1.356 . S
C291 H339 0.930 . S
C292 N289 1.279 . S
C292 C291 1.358 . S
C292 H295 0.930 . S
C293 C290 1.348 . S
C293 C291 1.356 . S
H294 C288 0.930 . S
H295 C292 0.930 . S
C296 C298 1.348 . S
C296 C299 1.356 . S
C296 O326 1.325 . S
N297 C300 1.314 . S
N297 C301 1.279 . S
C298 C296 1.348 . S
C298 C300 1.353 . S
C298 H340 0.929 . S
C299 C296 1.356 . S
C299 C301 1.358 . S
C299 H341 0.930 . S
C300 N297 1.314 . S
C300 C298 1.353 . S
C300 H342 0.930 . S
C301 N297 1.279 . S
C301 C299 1.358 . S
C301 H343 0.930 . S
C302 C303 1.348 . S
C302 C304 1.356 . S
C302 O327 1.325 . S
C303 C302 1.348 . S
C303 C305 1.353 . S
C303 H344 0.929 . S
C304 C302 1.356 . S
C304 C306 1.358 . S
C304 H345 0.930 . S
C305 C303 1.353 . S
C305 N307 1.314 . S
C305 H346 0.930 . S
C306 C304 1.358 . S
C306 N307 1.279 . S
C306 H347 0.930 . S
N307 C305 1.314 . S
N307 C306 1.279 . S
C308 C310 1.353 . S
C308 N311 1.314 . S
C308 H314 0.930 . S
C309 N311 1.279 . S
C309 C312 1.358 . S
C309 H315 0.930 . S
C310 C308 1.353 . S
C310 C313 1.348 . S
C310 H348 0.929 . S
N311 Li266 1.990 . S
N311 C308 1.314 . S
N311 C309 1.279 . S
C312 C309 1.358 . S
C312 C313 1.356 . S
C312 H349 0.930 . S
C313 C310 1.348 . S
C313 C312 1.356 . S
H314 C308 0.930 . S
H315 C309 0.930 . S
C316 N317 1.314 . S
C316 C318 1.353 . S
C316 H322 0.930 . S
N317 Li267 1.990 . S
N317 C316 1.314 . S
N317 C320 1.279 . S
C318 C316 1.353 . S
C318 C321 1.348 . S
C318 H350 0.929 . S
C319 C320 1.358 . S
C319 C321 1.356 . S
C319 H351 0.930 . S
C320 N317 1.279 . S
C320 C319 1.358 . S
C320 H323 0.930 . S
C321 C318 1.348 . S
C321 C319 1.356 . S
H322 C316 0.930 . S
H323 C320 0.930 . S
O324 Li264 1.956 . S
O324 Li265 1.970 . S
O324 Li266 1.961 . S
O324 C268 1.325 . S
O325 Li264 1.970 . S
O325 Li265 1.956 . S
O325 Li267 1.961 . S
O325 C274 1.325 . S
O326 Li264 1.961 . S
O326 Li266 1.956 . S
O326 Li267 1.970 . S
O326 C296 1.325 . S
O327 Li265 1.961 . S
O327 Li266 1.970 . S
O327 Li267 1.956 . S
O327 C302 1.325 . S
H328 C270 0.929 . S
H329 C271 0.930 . S
H330 C272 0.930 . S
H331 C273 0.930 . S
H332 C275 0.930 . S
H333 C277 0.929 . S
H334 C278 0.930 . S
H335 C279 0.930 . S
H336 C282 0.930 . S
H337 C285 0.929 . S
H338 C290 0.929 . S
H339 C291 0.930 . S
H340 C298 0.929 . S
H341 C299 0.930 . S
H342 C300 0.930 . S
H343 C301 0.930 . S
H344 C303 0.929 . S
H345 C304 0.930 . S
H346 C305 0.930 . S
H347 C306 0.930 . S
H348 C310 0.929 . S
H349 C312 0.930 . S
H350 C318 0.929 . S
H351 C319 0.930 . S
Li352 N369 1.990 . S
Li352 O412 1.956 . S
Li352 O413 1.970 . S
Li352 O414 1.961 . S
Li353 N377 1.990 . S
Li353 O412 1.970 . S
Li353 O413 1.956 . S
Li353 O415 1.961 . S
Li354 N399 1.990 . S
Li354 O412 1.961 . S
Li354 O414 1.956 . S
Li354 O415 1.970 . S
Li355 N405 1.990 . S
Li355 O413 1.961 . S
Li355 O414 1.970 . S
Li355 O415 1.956 . S
C356 C358 1.348 . S
C356 C359 1.356 . S
C356 O412 1.325 . S
N357 C360 1.314 . S
N357 C361 1.279 . S
C358 C356 1.348 . S
C358 C360 1.353 . S
C358 H416 0.929 . S
C359 C356 1.356 . S
C359 C361 1.358 . S
C359 H417 0.930 . S
C360 N357 1.314 . S
C360 C358 1.353 . S
C360 H418 0.930 . S
C361 N357 1.279 . S
C361 C359 1.358 . S
C361 H419 0.930 . S
C362 C365 1.348 . S
C362 C366 1.356 . S
C362 O413 1.325 . S
C363 N364 1.279 . S
C363 C366 1.358 . S
C363 H420 0.930 . S
N364 C363 1.279 . S
N364 C367 1.314 . S
C365 C362 1.348 . S
C365 C367 1.353 . S
C365 H421 0.929 . S
C366 C362 1.356 . S
C366 C363 1.358 . S
C366 H422 0.930 . S
C367 N364 1.314 . S
C367 C365 1.353 . S
C367 H423 0.930 . S
C368 N369 1.314 . S
C368 C373 1.353 . S
C368 H374 0.930 . S
N369 Li352 1.990 . S
N369 C368 1.314 . S
N369 C371 1.279 . S
C370 C371 1.358 . S
C370 C372 1.356 . S
C370 H424 0.930 . S
C371 N369 1.279 . S
C371 C370 1.358 . S
C371 H375 0.930 . S
C372 C370 1.356 . S
C372 C373 1.348 . S
C373 C368 1.353 . S
C373 C372 1.348 . S
C373 H425 0.929 . S
H374 C368 0.930 . S
H375 C371 0.930 . S
C376 N377 1.314 . S
C376 C378 1.353 . S
C376 H382 0.930 . S
N377 Li353 1.990 . S
N377 C376 1.314 . S
N377 C380 1.279 . S
C378 C376 1.353 . S
C378 C381 1.348 . S
C378 H426 0.929 . S
C379 C380 1.358 . S
C379 C381 1.356 . S
C379 H427 0.930 . S
C380 N377 1.279 . S
C380 C379 1.358 . S
C380 H383 0.930 . S
C381 C378 1.348 . S
C381 C379 1.356 . S
H382 C376 0.930 . S
H383 C380 0.930 . S
C384 C386 1.348 1_455 S
C384 C387 1.356 . S
C384 O414 1.325 . S
N385 C388 1.314 . S
N385 C389 1.279 . S
C386 C384 1.348 1_655 S
C386 C388 1.353 . S
C386 H428 0.929 . S
C387 C384 1.356 . S
C387 C389 1.358 1_455 S
C387 H429 0.930 . S
C388 N385 1.314 . S
C388 C386 1.353 . S
C388 H430 0.930 . S
C389 N385 1.279 . S
C389 C387 1.358 1_655 S
C389 H431 0.930 . S
C390 C391 1.348 . S
C390 C392 1.356 . S
C390 O415 1.325 . S
C391 C390 1.348 . S
C391 C393 1.353 . S
C391 H432 0.929 . S
C392 C390 1.356 . S
C392 C394 1.358 . S
C392 H433 0.930 . S
C393 C391 1.353 . S
C393 N395 1.314 . S
C393 H434 0.930 . S
C394 C392 1.358 . S
C394 N395 1.279 . S
C394 H435 0.930 . S
N395 C393 1.314 . S
N395 C394 1.279 . S
C396 C398 1.353 . S
C396 N399 1.314 . S
C396 H402 0.930 . S
C397 N399 1.279 . S
C397 C400 1.358 . S
C397 H403 0.930 . S
C398 C396 1.353 . S
C398 C401 1.348 . S
C398 H436 0.929 . S
N399 Li354 1.990 . S
N399 C396 1.314 . S
N399 C397 1.279 . S
C400 C397 1.358 . S
C400 C401 1.356 . S
C400 H437 0.930 . S
C401 C398 1.348 . S
C401 C400 1.356 . S
H402 C396 0.930 . S
H403 C397 0.930 . S
C404 N405 1.314 . S
C404 C406 1.353 1_455 S
C404 H410 0.930 . S
N405 Li355 1.990 . S
N405 C404 1.314 . S
N405 C408 1.279 . S
C406 C404 1.353 1_655 S
C406 C409 1.348 . S
C406 H438 0.929 . S
C407 C408 1.358 1_655 S
C407 C409 1.356 . S
C407 H439 0.930 . S
C408 N405 1.279 . S
C408 C407 1.358 1_455 S
C408 H411 0.930 . S
C409 C406 1.348 . S
C409 C407 1.356 . S
H410 C404 0.930 . S
H411 C408 0.930 . S
O412 Li352 1.956 . S
O412 Li353 1.970 . S
O412 Li354 1.961 . S
O412 C356 1.325 . S
O413 Li352 1.970 . S
O413 Li353 1.956 . S
O413 Li355 1.961 . S
O413 C362 1.325 . S
O414 Li352 1.961 . S
O414 Li354 1.956 . S
O414 Li355 1.970 . S
O414 C384 1.325 . S
O415 Li353 1.961 . S
O415 Li354 1.970 . S
O415 Li355 1.956 . S
O415 C390 1.325 . S
H416 C358 0.929 . S
H417 C359 0.930 . S
H418 C360 0.930 . S
H419 C361 0.930 . S
H420 C363 0.930 . S
H421 C365 0.929 . S
H422 C366 0.930 . S
H423 C367 0.930 . S
H424 C370 0.930 . S
H425 C373 0.929 . S
H426 C378 0.929 . S
H427 C379 0.930 . S
H428 C386 0.929 . S
H429 C387 0.930 . S
H430 C388 0.930 . S
H431 C389 0.930 . S
H432 C391 0.929 . S
H433 C392 0.930 . S
H434 C393 0.930 . S
H435 C394 0.930 . S
H436 C398 0.929 . S
H437 C400 0.930 . S
H438 C406 0.929 . S
H439 C407 0.930 . S
Li440 N457 1.990 . S
Li440 O500 1.956 . S
Li440 O501 1.970 . S
Li440 O502 1.961 . S
Li441 N465 1.990 . S
Li441 O500 1.970 . S
Li441 O501 1.956 . S
Li441 O503 1.961 . S
Li442 N487 1.990 . S
Li442 O500 1.961 . S
Li442 O502 1.956 . S
Li442 O503 1.970 . S
Li443 N493 1.990 . S
Li443 O501 1.961 . S
Li443 O502 1.970 . S
Li443 O503 1.956 . S
C444 C446 1.348 . S
C444 C447 1.356 . S
C444 O500 1.325 . S
N445 C448 1.314 . S
N445 C449 1.279 . S
C446 C444 1.348 . S
C446 C448 1.353 . S
C446 H504 0.929 . S
C447 C444 1.356 . S
C447 C449 1.358 . S
C447 H505 0.930 . S
C448 N445 1.314 . S
C448 C446 1.353 . S
C448 H506 0.930 . S
C449 N445 1.279 . S
C449 C447 1.358 . S
C449 H507 0.930 . S
C450 C453 1.348 . S
C450 C454 1.356 . S
C450 O501 1.325 . S
C451 N452 1.279 . S
C451 C454 1.358 . S
C451 H508 0.930 . S
N452 C451 1.279 . S
N452 C455 1.314 . S
C453 C450 1.348 . S
C453 C455 1.353 . S
C453 H509 0.929 . S
C454 C450 1.356 . S
C454 C451 1.358 . S
C454 H510 0.930 . S
C455 N452 1.314 . S
C455 C453 1.353 . S
C455 H511 0.930 . S
C456 N457 1.314 . S
C456 C461 1.353 . S
C456 H462 0.930 . S
N457 Li440 1.990 . S
N457 C456 1.314 . S
N457 C459 1.279 . S
C458 C459 1.358 . S
C458 C460 1.356 . S
C458 H512 0.930 . S
C459 N457 1.279 . S
C459 C458 1.358 . S
C459 H463 0.930 . S
C460 C458 1.356 . S
C460 C461 1.348 . S
C461 C456 1.353 . S
C461 C460 1.348 . S
C461 H513 0.929 . S
H462 C456 0.930 . S
H463 C459 0.930 . S
C464 N465 1.314 . S
C464 C466 1.353 . S
C464 H470 0.930 . S
N465 Li441 1.990 . S
N465 C464 1.314 . S
N465 C468 1.279 . S
C466 C464 1.353 . S
C466 C469 1.348 . S
C466 H514 0.929 . S
C467 C468 1.358 . S
C467 C469 1.356 . S
C467 H515 0.930 . S
C468 N465 1.279 . S
C468 C467 1.358 . S
C468 H471 0.930 . S
C469 C466 1.348 . S
C469 C467 1.356 . S
H470 C464 0.930 . S
H471 C468 0.930 . S
C472 C474 1.348 . S
C472 C475 1.356 . S
C472 O502 1.325 . S
N473 C476 1.314 . S
N473 C477 1.279 . S
C474 C472 1.348 . S
C474 C476 1.353 . S
C474 H516 0.929 . S
C475 C472 1.356 . S
C475 C477 1.358 . S
C475 H517 0.930 . S
C476 N473 1.314 . S
C476 C474 1.353 . S
C476 H518 0.930 . S
C477 N473 1.279 . S
C477 C475 1.358 . S
C477 H519 0.930 . S
C478 C479 1.348 . S
C478 C480 1.356 . S
C478 O503 1.325 . S
C479 C478 1.348 . S
C479 C481 1.353 . S
C479 H520 0.929 . S
C480 C478 1.356 . S
C480 C482 1.358 . S
C480 H521 0.930 . S
C481 C479 1.353 . S
C481 N483 1.314 . S
C481 H522 0.930 . S
C482 C480 1.358 . S
C482 N483 1.279 . S
C482 H523 0.930 . S
N483 C481 1.314 . S
N483 C482 1.279 . S
C484 C486 1.353 . S
C484 N487 1.314 . S
C484 H490 0.930 . S
C485 N487 1.279 . S
C485 C488 1.358 . S
C485 H491 0.930 . S
C486 C484 1.353 . S
C486 C489 1.348 . S
C486 H524 0.929 . S
N487 Li442 1.990 . S
N487 C484 1.314 . S
N487 C485 1.279 . S
C488 C485 1.358 . S
C488 C489 1.356 . S
C488 H525 0.930 . S
C489 C486 1.348 . S
C489 C488 1.356 . S
H490 C484 0.930 . S
H491 C485 0.930 . S
C492 N493 1.314 . S
C492 C494 1.353 . S
C492 H498 0.930 . S
N493 Li443 1.990 . S
N493 C492 1.314 . S
N493 C496 1.279 . S
C494 C492 1.353 . S
C494 C497 1.348 . S
C494 H526 0.929 . S
C495 C496 1.358 . S
C495 C497 1.356 . S
C495 H527 0.930 . S
C496 N493 1.279 . S
C496 C495 1.358 . S
C496 H499 0.930 . S
C497 C494 1.348 . S
C497 C495 1.356 . S
H498 C492 0.930 . S
H499 C496 0.930 . S
O500 Li440 1.956 . S
O500 Li441 1.970 . S
O500 Li442 1.961 . S
O500 C444 1.325 . S
O501 Li440 1.970 . S
O501 Li441 1.956 . S
O501 Li443 1.961 . S
O501 C450 1.325 . S
O502 Li440 1.961 . S
O502 Li442 1.956 . S
O502 Li443 1.970 . S
O502 C472 1.325 . S
O503 Li441 1.961 . S
O503 Li442 1.970 . S
O503 Li443 1.956 . S
O503 C478 1.325 . S
H504 C446 0.929 . S
H505 C447 0.930 . S
H506 C448 0.930 . S
H507 C449 0.930 . S
H508 C451 0.930 . S
H509 C453 0.929 . S
H510 C454 0.930 . S
H511 C455 0.930 . S
H512 C458 0.930 . S
H513 C461 0.929 . S
H514 C466 0.929 . S
H515 C467 0.930 . S
H516 C474 0.929 . S
H517 C475 0.930 . S
H518 C476 0.930 . S
H519 C477 0.930 . S
H520 C479 0.929 . S
H521 C480 0.930 . S
H522 C481 0.930 . S
H523 C482 0.930 . S
H524 C486 0.929 . S
H525 C488 0.930 . S
H526 C494 0.929 . S
H527 C495 0.930 . S
Li528 N545 1.990 . S
Li528 O588 1.956 . S
Li528 O589 1.970 . S
Li528 O590 1.961 . S
Li529 N553 1.990 . S
Li529 O588 1.970 . S
Li529 O589 1.956 . S
Li529 O591 1.961 . S
Li530 N575 1.990 . S
Li530 O588 1.961 . S
Li530 O590 1.956 . S
Li530 O591 1.970 . S
Li531 N581 1.990 . S
Li531 O589 1.961 . S
Li531 O590 1.970 . S
Li531 O591 1.956 . S
C532 C534 1.348 . S
C532 C535 1.356 . S
C532 O588 1.325 . S
N533 C536 1.314 . S
N533 C537 1.279 . S
C534 C532 1.348 . S
C534 C536 1.353 . S
C534 H592 0.929 . S
C535 C532 1.356 . S
C535 C537 1.358 . S
C535 H593 0.930 . S
C536 N533 1.314 . S
C536 C534 1.353 . S
C536 H594 0.930 . S
C537 N533 1.279 . S
C537 C535 1.358 . S
C537 H595 0.930 . S
C538 C541 1.348 . S
C538 C542 1.356 . S
C538 O589 1.325 . S
C539 N540 1.279 . S
C539 C542 1.358 . S
C539 H596 0.930 . S
N540 C539 1.279 . S
N540 C543 1.314 . S
C541 C538 1.348 . S
C541 C543 1.353 . S
C541 H597 0.929 . S
C542 C538 1.356 . S
C542 C539 1.358 . S
C542 H598 0.930 . S
C543 N540 1.314 . S
C543 C541 1.353 . S
C543 H599 0.930 . S
C544 N545 1.314 . S
C544 C549 1.353 . S
C544 H550 0.930 . S
N545 Li528 1.990 . S
N545 C544 1.314 . S
N545 C547 1.279 . S
C546 C547 1.358 . S
C546 C548 1.356 . S
C546 H600 0.930 . S
C547 N545 1.279 . S
C547 C546 1.358 . S
C547 H551 0.930 . S
C548 C546 1.356 . S
C548 C549 1.348 . S
C549 C544 1.353 . S
C549 C548 1.348 . S
C549 H601 0.929 . S
H550 C544 0.930 . S
H551 C547 0.930 . S
C552 N553 1.314 . S
C552 C554 1.353 . S
C552 H558 0.930 . S
N553 Li529 1.990 . S
N553 C552 1.314 . S
N553 C556 1.279 . S
C554 C552 1.353 . S
C554 C557 1.348 . S
C554 H602 0.929 . S
C555 C556 1.358 . S
C555 C557 1.356 . S
C555 H603 0.930 . S
C556 N553 1.279 . S
C556 C555 1.358 . S
C556 H559 0.930 . S
C557 C554 1.348 . S
C557 C555 1.356 . S
H558 C552 0.930 . S
H559 C556 0.930 . S
C560 C562 1.348 . S
C560 C563 1.356 . S
C560 O590 1.325 . S
N561 C564 1.314 . S
N561 C565 1.279 . S
C562 C560 1.348 . S
C562 C564 1.353 . S
C562 H604 0.929 . S
C563 C560 1.356 . S
C563 C565 1.358 . S
C563 H605 0.930 . S
C564 N561 1.314 . S
C564 C562 1.353 . S
C564 H606 0.930 . S
C565 N561 1.279 . S
C565 C563 1.358 . S
C565 H607 0.930 . S
C566 C567 1.348 . S
C566 C568 1.356 . S
C566 O591 1.325 . S
C567 C566 1.348 . S
C567 C569 1.353 . S
C567 H608 0.929 . S
C568 C566 1.356 . S
C568 C570 1.358 . S
C568 H609 0.930 . S
C569 C567 1.353 . S
C569 N571 1.314 . S
C569 H610 0.930 . S
C570 C568 1.358 . S
C570 N571 1.279 . S
C570 H611 0.930 . S
N571 C569 1.314 . S
N571 C570 1.279 . S
C572 C574 1.353 . S
C572 N575 1.314 . S
C572 H578 0.930 . S
C573 N575 1.279 . S
C573 C576 1.358 . S
C573 H579 0.930 . S
C574 C572 1.353 . S
C574 C577 1.348 . S
C574 H612 0.929 . S
N575 Li530 1.990 . S
N575 C572 1.314 . S
N575 C573 1.279 . S
C576 C573 1.358 . S
C576 C577 1.356 . S
C576 H613 0.930 . S
C577 C574 1.348 . S
C577 C576 1.356 . S
H578 C572 0.930 . S
H579 C573 0.930 . S
C580 N581 1.314 . S
C580 C582 1.353 . S
C580 H586 0.930 . S
N581 Li531 1.990 . S
N581 C580 1.314 . S
N581 C584 1.279 . S
C582 C580 1.353 . S
C582 C585 1.348 . S
C582 H614 0.929 . S
C583 C584 1.358 . S
C583 C585 1.356 . S
C583 H615 0.930 . S
C584 N581 1.279 . S
C584 C583 1.358 . S
C584 H587 0.930 . S
C585 C582 1.348 . S
C585 C583 1.356 . S
H586 C580 0.930 . S
H587 C584 0.930 . S
O588 Li528 1.956 . S
O588 Li529 1.970 . S
O588 Li530 1.961 . S
O588 C532 1.325 . S
O589 Li528 1.970 . S
O589 Li529 1.956 . S
O589 Li531 1.961 . S
O589 C538 1.325 . S
O590 Li528 1.961 . S
O590 Li530 1.956 . S
O590 Li531 1.970 . S
O590 C560 1.325 . S
O591 Li529 1.961 . S
O591 Li530 1.970 . S
O591 Li531 1.956 . S
O591 C566 1.325 . S
H592 C534 0.929 . S
H593 C535 0.930 . S
H594 C536 0.930 . S
H595 C537 0.930 . S
H596 C539 0.930 . S
H597 C541 0.929 . S
H598 C542 0.930 . S
H599 C543 0.930 . S
H600 C546 0.930 . S
H601 C549 0.929 . S
H602 C554 0.929 . S
H603 C555 0.930 . S
H604 C562 0.929 . S
H605 C563 0.930 . S
H606 C564 0.930 . S
H607 C565 0.930 . S
H608 C567 0.929 . S
H609 C568 0.930 . S
H610 C569 0.930 . S
H611 C570 0.930 . S
H612 C574 0.929 . S
H613 C576 0.930 . S
H614 C582 0.929 . S
H615 C583 0.930 . S
Li616 N633 1.990 . S
Li616 O676 1.956 1_455 S
Li616 O677 1.970 . S
Li616 O678 1.961 . S
Li617 N641 1.990 . S
Li617 O676 1.970 . S
Li617 O677 1.956 1_655 S
Li617 O679 1.961 . S
Li618 N663 1.986 . S
Li618 O676 2.008 . S
Li618 O678 1.922 1_655 S
Li618 O679 1.970 . S
Li619 N669 1.990 . S
Li619 O677 1.961 . S
Li619 O678 1.970 . S
Li619 O679 1.956 1_455 S
C620 C622 1.348 . S
C620 C623 1.356 . S
C620 O676 1.325 . S
N621 C624 1.314 . S
N621 C625 1.279 1_556 S
C622 C620 1.348 . S
C622 C624 1.353 . S
C622 H680 0.929 . S
C623 C620 1.356 . S
C623 C625 1.358 1_556 S
C623 H681 0.944 . S
C624 N621 1.314 . S
C624 C622 1.353 . S
C624 H682 0.930 . S
C625 N621 1.279 1_554 S
C625 C623 1.358 1_554 S
C625 H683 0.930 . S
C626 C629 1.360 . S
C626 C630 1.356 . S
C626 O677 1.325 . S
C627 N628 1.279 . S
C627 C630 1.358 . S
C627 H684 0.930 . S
N628 C627 1.279 . S
N628 C631 1.314 . S
C629 C626 1.360 . S
C629 C631 1.351 . S
C629 H685 0.920 1_455 S
C630 C626 1.356 . S
C630 C627 1.358 . S
C630 H686 0.930 . S
C631 N628 1.314 . S
C631 C629 1.351 . S
C631 H687 0.938 . S
C632 N633 1.314 . S
C632 C637 1.355 . S
C632 H638 0.930 . S
N633 Li616 1.990 . S
N633 C632 1.314 . S
N633 C635 1.279 1_455 S
C634 C635 1.358 1_554 S
C634 C636 1.356 1_655 S
C634 H688 0.930 . S
C635 N633 1.279 1_655 S
C635 C634 1.358 1_556 S
C635 H639 0.930 . S
C636 C634 1.356 1_455 S
C636 C637 1.346 1_554 S
C637 C632 1.355 . S
C637 C636 1.346 1_556 S
C637 H689 0.929 1_556 S
H638 C632 0.930 . S
H639 C635 0.930 . S
C640 N641 1.314 . S
C640 C642 1.353 . S
C640 H646 0.930 . S
N641 Li617 1.990 . S
N641 C640 1.314 . S
N641 C644 1.279 . S
C642 C640 1.353 . S
C642 C645 1.348 . S
C642 H690 0.929 . S
C643 C644 1.358 . S
C643 C645 1.356 . S
C643 H691 0.930 . S
C644 N641 1.279 . S
C644 C643 1.358 . S
C644 H647 0.930 . S
C645 C642 1.348 . S
C645 C643 1.356 . S
H646 C640 0.930 . S
H647 C644 0.930 . S
C648 C650 1.348 . S
C648 C651 1.356 . S
C648 O678 1.325 . S
N649 C652 1.314 1_554 S
N649 C653 1.279 . S
C650 C648 1.348 . S
C650 C652 1.353 . S
C650 H692 0.929 . S
C651 C648 1.356 . S
C651 C653 1.358 1_556 S
C651 H693 0.930 1_556 S
C652 N649 1.314 1_556 S
C652 C650 1.353 . S
C652 H694 0.930 . S
C653 N649 1.279 . S
C653 C651 1.358 1_554 S
C653 H695 0.930 . S
C654 C655 1.348 . S
C654 C656 1.356 . S
C654 O679 1.325 . S
C655 C654 1.348 . S
C655 C657 1.353 . S
C655 H696 0.929 1_655 S
C656 C654 1.356 . S
C656 C658 1.358 . S
C656 H697 0.930 . S
C657 C655 1.353 . S
C657 N659 1.314 . S
C657 H698 0.930 . S
C658 C656 1.358 . S
C658 N659 1.279 . S
C658 H699 0.930 . S
N659 C657 1.314 . S
N659 C658 1.279 . S
C660 C662 1.353 . S
C660 N663 1.314 . S
C660 H666 0.930 . S
C661 N663 1.279 1_455 S
C661 C664 1.375 . S
C661 H667 0.930 . S
C662 C660 1.353 . S
C662 C665 1.349 . S
C662 H700 0.929 . S
N663 Li618 1.986 . S
N663 C660 1.314 . S
N663 C661 1.279 1_655 S
C664 C661 1.375 . S
C664 C665 1.352 1_455 S
C664 H701 0.918 1_556 S
C665 C662 1.349 . S
C665 C664 1.352 1_655 S
H666 C660 0.930 . S
H667 C661 0.930 . S
C668 N669 1.314 . S
C668 C670 1.353 . S
C668 H674 0.930 . S
N669 Li619 1.990 . S
N669 C668 1.314 . S
N669 C672 1.279 . S
C670 C668 1.353 . S
C670 C673 1.348 . S
C670 H702 0.929 . S
C671 C672 1.358 . S
C671 C673 1.356 . S
C671 H703 0.930 . S
C672 N669 1.279 . S
C672 C671 1.358 . S
C672 H675 0.930 . S
C673 C670 1.348 . S
C673 C671 1.356 . S
H674 C668 0.930 . S
H675 C672 0.930 . S
O676 Li616 1.956 1_655 S
O676 Li617 1.970 . S
O676 Li618 2.008 . S
O676 C620 1.325 . S
O677 Li616 1.970 . S
O677 Li617 1.956 1_455 S
O677 Li619 1.961 . S
O677 C626 1.325 . S
O678 Li616 1.961 . S
O678 Li618 1.922 1_455 S
O678 Li619 1.970 . S
O678 C648 1.325 . S
O679 Li617 1.961 . S
O679 Li618 1.970 . S
O679 Li619 1.956 1_655 S
O679 C654 1.325 . S
H680 C622 0.929 . S
H681 C623 0.944 . S
H682 C624 0.930 . S
H683 C625 0.930 . S
H684 C627 0.930 . S
H685 C629 0.920 1_655 S
H686 C630 0.930 . S
H687 C631 0.938 . S
H688 C634 0.930 . S
H689 C637 0.929 1_554 S
H690 C642 0.929 . S
H691 C643 0.930 . S
H692 C650 0.929 . S
H693 C651 0.930 1_554 S
H694 C652 0.930 . S
H695 C653 0.930 . S
H696 C655 0.929 1_455 S
H697 C656 0.930 . S
H698 C657 0.930 . S
H699 C658 0.930 . S
H700 C662 0.929 . S
H701 C664 0.918 1_554 S
H702 C670 0.929 . S
H703 C671 0.930 . S
Li704 N721 1.990 . S
Li704 O764 1.956 1_545 S
Li704 O765 1.972 1_545 S
Li704 O766 1.961 . S
Li705 N729 1.990 . S
Li705 O764 1.970 . S
Li705 O765 1.962 . S
Li705 O767 1.961 . S
Li706 N751 1.990 . S
Li706 O764 1.961 1_545 S
Li706 O766 1.956 . S
Li706 O767 1.970 1_545 S
Li707 N757 1.990 . S
Li707 O765 1.954 1_545 S
Li707 O766 1.970 . S
Li707 O767 1.956 1_545 S
C708 C710 1.348 . S
C708 C711 1.356 . S
C708 O764 1.325 . S
N709 C712 1.314 . S
N709 C713 1.279 . S
C710 C708 1.348 . S
C710 C712 1.353 . S
C710 H768 0.929 . S
C711 C708 1.356 . S
C711 C713 1.358 . S
C711 H769 0.930 . S
C712 N709 1.314 . S
C712 C710 1.353 . S
C712 H770 0.930 . S
C713 N709 1.279 . S
C713 C711 1.358 . S
C713 H771 0.930 . S
C714 C717 1.348 . S
C714 C718 1.356 . S
C714 O765 1.325 . S
C715 N716 1.279 . S
C715 C718 1.358 . S
C715 H772 0.930 . S
N716 C715 1.279 . S
N716 C719 1.314 . S
C717 C714 1.348 . S
C717 C719 1.353 . S
C717 H773 0.929 . S
C718 C714 1.356 . S
C718 C715 1.358 . S
C718 H774 0.947 . S
C719 N716 1.314 . S
C719 C717 1.353 . S
C719 H775 0.930 . S
C720 N721 1.314 . S
C720 C725 1.353 . S
C720 H726 0.930 . S
N721 Li704 1.990 . S
N721 C720 1.314 . S
N721 C723 1.279 1_545 S
C722 C723 1.358 . S
C722 C724 1.356 1_565 S
C722 H776 0.930 . S
C723 N721 1.279 1_565 S
C723 C722 1.358 . S
C723 H727 0.930 . S
C724 C722 1.356 1_545 S
C724 C725 1.348 . S
C725 C720 1.353 . S
C725 C724 1.348 . S
C725 H777 0.929 . S
H726 C720 0.930 . S
H727 C723 0.930 . S
C728 N729 1.314 . S
C728 C730 1.353 . S
C728 H734 0.930 . S
N729 Li705 1.990 . S
N729 C728 1.314 . S
N729 C732 1.279 . S
C730 C728 1.353 . S
C730 C733 1.348 . S
C730 H778 0.929 . S
C731 C732 1.358 . S
C731 C733 1.356 . S
C731 H779 0.930 . S
C732 N729 1.279 . S
C732 C731 1.358 . S
C732 H735 0.930 . S
C733 C730 1.348 . S
C733 C731 1.356 . S
H734 C728 0.930 . S
H735 C732 0.930 . S
C736 C738 1.348 . S
C736 C739 1.356 . S
C736 O766 1.325 . S
N737 C740 1.314 . S
N737 C741 1.279 . S
C738 C736 1.348 . S
C738 C740 1.353 . S
C738 H780 0.929 . S
C739 C736 1.356 . S
C739 C741 1.358 . S
C739 H781 0.930 . S
C740 N737 1.314 . S
C740 C738 1.353 . S
C740 H782 0.930 . S
C741 N737 1.279 . S
C741 C739 1.358 . S
C741 H783 0.930 . S
C742 C743 1.348 . S
C742 C744 1.356 . S
C742 O767 1.325 . S
C743 C742 1.348 . S
C743 C745 1.353 . S
C743 H784 0.929 1_565 S
C744 C742 1.356 . S
C744 C746 1.358 . S
C744 H785 0.930 . S
C745 C743 1.353 . S
C745 N747 1.314 . S
C745 H786 0.930 . S
C746 C744 1.358 . S
C746 N747 1.279 . S
C746 H787 0.930 . S
N747 C745 1.314 . S
N747 C746 1.279 . S
C748 C750 1.353 . S
C748 N751 1.314 1_565 S
C748 H754 0.930 . S
C749 N751 1.279 . S
C749 C752 1.358 . S
C749 H755 0.930 . S
C750 C748 1.353 . S
C750 C753 1.348 1_565 S
C750 H788 0.929 . S
N751 Li706 1.990 . S
N751 C748 1.314 1_545 S
N751 C749 1.279 . S
C752 C749 1.358 . S
C752 C753 1.356 . S
C752 H789 0.930 . S
C753 C750 1.348 1_545 S
C753 C752 1.356 . S
H754 C748 0.930 . S
H755 C749 0.930 . S
C756 N757 1.314 . S
C756 C758 1.353 . S
C756 H762 0.930 . S
N757 Li707 1.990 . S
N757 C756 1.314 . S
N757 C760 1.279 . S
C758 C756 1.353 . S
C758 C761 1.348 . S
C758 H790 0.929 . S
C759 C760 1.358 . S
C759 C761 1.356 . S
C759 H791 0.930 . S
C760 N757 1.279 . S
C760 C759 1.358 . S
C760 H763 0.930 . S
C761 C758 1.348 . S
C761 C759 1.356 . S
H762 C756 0.930 . S
H763 C760 0.930 . S
O764 Li704 1.956 1_565 S
O764 Li705 1.970 . S
O764 Li706 1.961 1_565 S
O764 C708 1.325 . S
O765 Li704 1.972 1_565 S
O765 Li705 1.962 . S
O765 Li707 1.954 1_565 S
O765 C714 1.325 . S
O766 Li704 1.961 . S
O766 Li706 1.956 . S
O766 Li707 1.970 . S
O766 C736 1.325 . S
O767 Li705 1.961 . S
O767 Li706 1.970 1_565 S
O767 Li707 1.956 1_565 S
O767 C742 1.325 . S
H768 C710 0.929 . S
H769 C711 0.930 . S
H770 C712 0.930 . S
H771 C713 0.930 . S
H772 C715 0.930 . S
H773 C717 0.929 . S
H774 C718 0.947 . S
H775 C719 0.930 . S
H776 C722 0.930 . S
H777 C725 0.929 . S
H778 C730 0.929 . S
H779 C731 0.930 . S
H780 C738 0.929 . S
H781 C739 0.930 . S
H782 C740 0.930 . S
H783 C741 0.930 . S
H784 C743 0.929 1_545 S
H785 C744 0.930 . S
H786 C745 0.930 . S
H787 C746 0.930 . S
H788 C750 0.929 . S
H789 C752 0.930 . S
H790 C758 0.929 . S
H791 C759 0.930 . S
Li792 N809 1.990 . S
Li792 O852 1.956 . S
Li792 O853 1.970 . S
Li792 O854 1.961 . S
Li793 N817 1.990 . S
Li793 O852 1.970 . S
Li793 O853 1.956 . S
Li793 O855 1.961 . S
Li794 N839 1.990 . S
Li794 O852 1.961 . S
Li794 O854 1.956 . S
Li794 O855 1.970 . S
Li795 N845 1.990 . S
Li795 O853 1.961 . S
Li795 O854 1.970 . S
Li795 O855 1.956 . S
C796 C798 1.348 . S
C796 C799 1.356 . S
C796 O852 1.325 . S
N797 C800 1.314 . S
N797 C801 1.279 . S
C798 C796 1.348 . S
C798 C800 1.353 . S
C798 H856 0.929 . S
C799 C796 1.356 . S
C799 C801 1.358 . S
C799 H857 0.930 . S
C800 N797 1.314 . S
C800 C798 1.353 . S
C800 H858 0.930 . S
C801 N797 1.279 . S
C801 C799 1.358 . S
C801 H859 0.930 . S
C802 C805 1.348 . S
C802 C806 1.356 . S
C802 O853 1.325 . S
C803 N804 1.279 . S
C803 C806 1.358 . S
C803 H860 0.930 . S
N804 C803 1.279 . S
N804 C807 1.314 . S
C805 C802 1.348 . S
C805 C807 1.353 . S
C805 H861 0.929 . S
C806 C802 1.356 . S
C806 C803 1.358 . S
C806 H862 0.930 . S
C807 N804 1.314 . S
C807 C805 1.353 . S
C807 H863 0.930 . S
C808 N809 1.314 . S
C808 C813 1.353 . S
C808 H814 0.930 . S
N809 Li792 1.990 . S
N809 C808 1.314 . S
N809 C811 1.279 . S
C810 C811 1.358 . S
C810 C812 1.356 . S
C810 H864 0.930 . S
C811 N809 1.279 . S
C811 C810 1.358 . S
C811 H815 0.930 . S
C812 C810 1.356 . S
C812 C813 1.348 . S
C813 C808 1.353 . S
C813 C812 1.348 . S
C813 H865 0.929 . S
H814 C808 0.930 . S
H815 C811 0.930 . S
C816 N817 1.314 . S
C816 C818 1.353 . S
C816 H822 0.930 . S
N817 Li793 1.990 . S
N817 C816 1.314 . S
N817 C820 1.279 . S
C818 C816 1.353 . S
C818 C821 1.348 . S
C818 H866 0.929 . S
C819 C820 1.358 . S
C819 C821 1.356 . S
C819 H867 0.930 . S
C820 N817 1.279 . S
C820 C819 1.358 . S
C820 H823 0.930 . S
C821 C818 1.348 . S
C821 C819 1.356 . S
H822 C816 0.930 . S
H823 C820 0.930 . S
C824 C826 1.348 . S
C824 C827 1.356 . S
C824 O854 1.325 . S
N825 C828 1.314 . S
N825 C829 1.279 . S
C826 C824 1.348 . S
C826 C828 1.353 . S
C826 H868 0.929 . S
C827 C824 1.356 . S
C827 C829 1.358 . S
C827 H869 0.930 . S
C828 N825 1.314 . S
C828 C826 1.353 . S
C828 H870 0.930 . S
C829 N825 1.279 . S
C829 C827 1.358 . S
C829 H871 0.930 . S
C830 C831 1.348 . S
C830 C832 1.356 . S
C830 O855 1.325 . S
C831 C830 1.348 . S
C831 C833 1.353 . S
C831 H872 0.929 . S
C832 C830 1.356 . S
C832 C834 1.358 . S
C832 H873 0.930 . S
C833 C831 1.353 . S
C833 N835 1.314 . S
C833 H874 0.930 . S
C834 C832 1.358 . S
C834 N835 1.279 . S
C834 H875 0.930 . S
N835 C833 1.314 . S
N835 C834 1.279 . S
C836 C838 1.353 . S
C836 N839 1.314 . S
C836 H842 0.930 . S
C837 N839 1.279 . S
C837 C840 1.358 . S
C837 H843 0.930 . S
C838 C836 1.353 . S
C838 C841 1.348 . S
C838 H876 0.929 . S
N839 Li794 1.990 . S
N839 C836 1.314 . S
N839 C837 1.279 . S
C840 C837 1.358 . S
C840 C841 1.356 . S
C840 H877 0.930 . S
C841 C838 1.348 . S
C841 C840 1.356 . S
H842 C836 0.930 . S
H843 C837 0.930 . S
C844 N845 1.314 . S
C844 C846 1.353 . S
C844 H850 0.930 . S
N845 Li795 1.990 . S
N845 C844 1.314 . S
N845 C848 1.279 . S
C846 C844 1.353 . S
C846 C849 1.348 . S
C846 H878 0.929 . S
C847 C848 1.358 . S
C847 C849 1.356 . S
C847 H879 0.930 . S
C848 N845 1.279 . S
C848 C847 1.358 . S
C848 H851 0.930 . S
C849 C846 1.348 . S
C849 C847 1.356 . S
H850 C844 0.930 . S
H851 C848 0.930 . S
O852 Li792 1.956 . S
O852 Li793 1.970 . S
O852 Li794 1.961 . S
O852 C796 1.325 . S
O853 Li792 1.970 . S
O853 Li793 1.956 . S
O853 Li795 1.961 . S
O853 C802 1.325 . S
O854 Li792 1.961 . S
O854 Li794 1.956 . S
O854 Li795 1.970 . S
O854 C824 1.325 . S
O855 Li793 1.961 . S
O855 Li794 1.970 . S
O855 Li795 1.956 . S
O855 C830 1.325 . S
H856 C798 0.929 . S
H857 C799 0.930 . S
H858 C800 0.930 . S
H859 C801 0.930 . S
H860 C803 0.930 . S
H861 C805 0.929 . S
H862 C806 0.930 . S
H863 C807 0.930 . S
H864 C810 0.930 . S
H865 C813 0.929 . S
H866 C818 0.929 . S
H867 C819 0.930 . S
H868 C826 0.929 . S
H869 C827 0.930 . S
H870 C828 0.930 . S
H871 C829 0.930 . S
H872 C831 0.929 . S
H873 C832 0.930 . S
H874 C833 0.930 . S
H875 C834 0.930 . S
H876 C838 0.929 . S
H877 C840 0.930 . S
H878 C846 0.929 . S
H879 C847 0.930 . S
Li880 N897 1.990 . S
Li880 O940 1.956 . S
Li880 O941 1.970 . S
Li880 O942 1.961 . S
Li881 N905 1.990 . S
Li881 O940 1.970 . S
Li881 O941 1.956 . S
Li881 O943 1.961 . S
Li882 N927 1.953 1_545 S
Li882 O940 1.961 . S
Li882 O942 1.956 . S
Li882 O943 1.970 . S
Li883 N933 1.990 . S
Li883 O941 1.961 . S
Li883 O942 1.970 . S
Li883 O943 1.956 . S
C884 C886 1.348 . S
C884 C887 1.356 . S
C884 O940 1.325 . S
N885 C888 1.314 . S
N885 C889 1.279 . S
C886 C884 1.348 . S
C886 C888 1.353 . S
C886 H944 0.929 . S
C887 C884 1.356 . S
C887 C889 1.358 . S
C887 H945 0.930 . S
C888 N885 1.314 . S
C888 C886 1.353 . S
C888 H946 0.930 . S
C889 N885 1.279 . S
C889 C887 1.358 . S
C889 H947 0.930 . S
C890 C893 1.348 . S
C890 C894 1.356 . S
C890 O941 1.325 . S
C891 N892 1.279 . S
C891 C894 1.358 . S
C891 H948 0.930 . S
N892 C891 1.279 . S
N892 C895 1.314 . S
C893 C890 1.348 . S
C893 C895 1.353 . S
C893 H949 0.929 . S
C894 C890 1.356 . S
C894 C891 1.358 . S
C894 H950 0.930 . S
C895 N892 1.314 . S
C895 C893 1.353 . S
C895 H951 0.930 . S
C896 N897 1.314 . S
C896 C901 1.353 . S
C896 H902 0.930 . S
N897 Li880 1.990 . S
N897 C896 1.314 . S
N897 C899 1.279 . S
C898 C899 1.358 . S
C898 C900 1.356 . S
C898 H952 0.930 . S
C899 N897 1.279 . S
C899 C898 1.358 . S
C899 H903 0.930 . S
C900 C898 1.356 . S
C900 C901 1.348 . S
C901 C896 1.353 . S
C901 C900 1.348 . S
C901 H953 0.929 . S
H902 C896 0.930 . S
H903 C899 0.930 . S
C904 N905 1.314 . S
C904 C906 1.353 . S
C904 H910 0.930 . S
N905 Li881 1.990 . S
N905 C904 1.314 . S
N905 C908 1.279 . S
C906 C904 1.353 . S
C906 C909 1.348 . S
C906 H954 0.929 . S
C907 C908 1.358 . S
C907 C909 1.356 . S
C907 H955 0.930 . S
C908 N905 1.279 . S
C908 C907 1.358 . S
C908 H911 0.930 . S
C909 C906 1.348 . S
C909 C907 1.356 . S
H910 C904 0.930 . S
H911 C908 0.930 . S
C912 C914 1.348 . S
C912 C915 1.356 . S
C912 O942 1.325 . S
N913 C916 1.314 . S
N913 C917 1.279 . S
C914 C912 1.348 . S
C914 C916 1.353 . S
C914 H956 0.929 . S
C915 C912 1.356 . S
C915 C917 1.358 . S
C915 H957 0.930 . S
C916 N913 1.314 . S
C916 C914 1.353 . S
C916 H958 0.930 . S
C917 N913 1.279 . S
C917 C915 1.358 . S
C917 H959 0.930 . S
C918 C919 1.348 . S
C918 C920 1.356 . S
C918 O943 1.325 1_565 S
C919 C918 1.348 . S
C919 C921 1.353 . S
C919 H960 0.929 . S
C920 C918 1.356 . S
C920 C922 1.358 . S
C920 H961 0.930 1_565 S
C921 C919 1.353 . S
C921 N923 1.314 . S
C921 H962 0.930 . S
C922 C920 1.358 . S
C922 N923 1.279 . S
C922 H963 0.930 . S
N923 C921 1.314 . S
N923 C922 1.279 . S
C924 C926 1.353 . S
C924 N927 1.343 . S
C924 H930 0.930 . S
C925 N927 1.297 . S
C925 C928 1.358 . S
C925 H931 0.930 . S
C926 C924 1.353 . S
C926 C929 1.348 . S
C926 H964 0.929 . S
N927 Li882 1.953 1_565 S
N927 C924 1.343 . S
N927 C925 1.297 . S
C928 C925 1.358 . S
C928 C929 1.356 . S
C928 H965 0.930 . S
C929 C926 1.348 . S
C929 C928 1.356 . S
H930 C924 0.930 . S
H931 C925 0.930 . S
C932 N933 1.314 . S
C932 C934 1.353 . S
C932 H938 0.930 . S
N933 Li883 1.990 . S
N933 C932 1.314 . S
N933 C936 1.279 . S
C934 C932 1.353 . S
C934 C937 1.348 . S
C934 H966 0.929 . S
C935 C936 1.358 . S
C935 C937 1.356 . S
C935 H967 0.930 1_545 S
C936 N933 1.279 . S
C936 C935 1.358 . S
C936 H939 0.930 1_545 S
C937 C934 1.348 . S
C937 C935 1.356 . S
H938 C932 0.930 . S
H939 C936 0.930 1_565 S
O940 Li880 1.956 . S
O940 Li881 1.970 . S
O940 Li882 1.961 . S
O940 C884 1.325 . S
O941 Li880 1.970 . S
O941 Li881 1.956 . S
O941 Li883 1.961 . S
O941 C890 1.325 . S
O942 Li880 1.961 . S
O942 Li882 1.956 . S
O942 Li883 1.970 . S
O942 C912 1.325 . S
O943 Li881 1.961 . S
O943 Li882 1.970 . S
O943 Li883 1.956 . S
O943 C918 1.325 1_545 S
H944 C886 0.929 . S
H945 C887 0.930 . S
H946 C888 0.930 . S
H947 C889 0.930 . S
H948 C891 0.930 . S
H949 C893 0.929 . S
H950 C894 0.930 . S
H951 C895 0.930 . S
H952 C898 0.930 . S
H953 C901 0.929 . S
H954 C906 0.929 . S
H955 C907 0.930 . S
H956 C914 0.929 . S
H957 C915 0.930 . S
H958 C916 0.930 . S
H959 C917 0.930 . S
H960 C919 0.929 . S
H961 C920 0.930 1_545 S
H962 C921 0.930 . S
H963 C922 0.930 . S
H964 C926 0.929 . S
H965 C928 0.930 . S
H966 C934 0.929 . S
H967 C935 0.930 1_565 S
Li968 N985 1.992 . S
Li968 O1028 1.987 . S
Li968 O1029 1.972 1_554 S
Li968 O1030 1.926 1_554 S
Li969 N993 1.990 . S
Li969 O1028 1.970 . S
Li969 O1029 1.956 1_554 S
Li969 O1031 1.989 . S
Li970 N1015 1.990 . S
Li970 O1028 1.961 . S
Li970 O1030 1.956 1_554 S
Li970 O1031 1.967 . S
Li971 N1021 1.990 . S
Li971 O1029 1.961 . S
Li971 O1030 1.970 . S
Li971 O1031 1.930 1_556 S
C972 C974 1.348 . S
C972 C975 1.356 . S
C972 O1028 1.325 . S
N973 C976 1.314 . S
N973 C977 1.279 . S
C974 C972 1.348 . S
C974 C976 1.353 . S
C974 H1032 0.929 . S
C975 C972 1.356 . S
C975 C977 1.358 . S
C975 H1033 0.930 . S
C976 N973 1.314 . S
C976 C974 1.353 . S
C976 H1034 0.930 . S
C977 N973 1.279 . S
C977 C975 1.358 . S
C977 H1035 0.930 . S
C978 C981 1.334 1_556 S
C978 C982 1.356 . S
C978 O1029 1.325 . S
C979 N980 1.279 . S
C979 C982 1.358 . S
C979 H1036 0.930 . S
N980 C979 1.279 . S
N980 C983 1.314 . S
C981 C978 1.334 1_554 S
C981 C983 1.357 1_554 S
C981 H1037 0.942 . S
C982 C978 1.356 . S
C982 C979 1.358 . S
C982 H1038 0.930 . S
C983 N980 1.314 . S
C983 C981 1.357 1_556 S
C983 H1039 0.930 1_556 S
C984 N985 1.314 1_556 S
C984 C989 1.353 . S
C984 H990 0.930 . S
N985 Li968 1.992 . S
N985 C984 1.314 1_554 S
N985 C987 1.279 . S
C986 C987 1.358 . S
C986 C988 1.364 . S
C986 H1040 0.930 . S
C987 N985 1.279 . S
C987 C986 1.358 . S
C987 H991 0.930 . S
C988 C986 1.364 . S
C988 C989 1.340 1_554 S
C989 C984 1.353 . S
C989 C988 1.340 1_556 S
C989 H1041 0.929 . S
H990 C984 0.930 . S
H991 C987 0.930 . S
C992 N993 1.314 . S
C992 C994 1.353 . S
C992 H998 0.930 . S
N993 Li969 1.990 . S
N993 C992 1.314 . S
N993 C996 1.279 . S
C994 C992 1.353 . S
C994 C997 1.348 . S
C994 H1042 0.929 . S
C995 C996 1.358 . S
C995 C997 1.356 . S
C995 H1043 0.930 . S
C996 N993 1.279 . S
C996 C995 1.358 . S
C996 H999 0.930 . S
C997 C994 1.348 . S
C997 C995 1.356 . S
H998 C992 0.930 . S
H999 C996 0.930 . S
C1000 C1002 1.348 . S
C1000 C1003 1.356 . S
C1000 O1030 1.325 . S
N1001 C1004 1.314 . S
N1001 C1005 1.279 . S
C1002 C1000 1.348 . S
C1002 C1004 1.353 . S
C1002 H1044 0.929 . S
C1003 C1000 1.356 . S
C1003 C1005 1.358 . S
C1003 H1045 0.930 . S
C1004 N1001 1.314 . S
C1004 C1002 1.353 . S
C1004 H1046 0.930 . S
C1005 N1001 1.279 . S
C1005 C1003 1.358 . S
C1005 H1047 0.930 . S
C1006 C1007 1.347 1_554 S
C1006 C1008 1.356 . S
C1006 O1031 1.324 . S
C1007 C1006 1.347 1_556 S
C1007 C1009 1.353 . S
C1007 H1048 0.929 . S
C1008 C1006 1.356 . S
C1008 C1010 1.358 . S
C1008 H1049 0.930 . S
C1009 C1007 1.353 . S
C1009 N1011 1.314 . S
C1009 H1050 0.930 . S
C1010 C1008 1.358 . S
C1010 N1011 1.279 1_554 S
C1010 H1051 0.930 . S
N1011 C1009 1.314 . S
N1011 C1010 1.279 1_556 S
C1012 C1014 1.353 . S
C1012 N1015 1.314 . S
C1012 H1018 0.930 . S
C1013 N1015 1.279 1_556 S
C1013 C1016 1.358 . S
C1013 H1019 0.930 . S
C1014 C1012 1.353 . S
C1014 C1017 1.348 . S
C1014 H1052 0.929 . S
N1015 Li970 1.990 . S
N1015 C1012 1.314 . S
N1015 C1013 1.279 1_554 S
C1016 C1013 1.358 . S
C1016 C1017 1.356 1_556 S
C1016 H1053 0.930 . S
C1017 C1014 1.348 . S
C1017 C1016 1.356 1_554 S
H1018 C1012 0.930 . S
H1019 C1013 0.930 . S
C1020 N1021 1.314 . S
C1020 C1022 1.353 . S
C1020 H1026 0.930 . S
N1021 Li971 1.990 . S
N1021 C1020 1.314 . S
N1021 C1024 1.279 . S
C1022 C1020 1.353 . S
C1022 C1025 1.348 . S
C1022 H1054 0.929 . S
C1023 C1024 1.358 . S
C1023 C1025 1.356 . S
C1023 H1055 0.930 . S
C1024 N1021 1.279 . S
C1024 C1023 1.358 . S
C1024 H1027 0.930 . S
C1025 C1022 1.348 . S
C1025 C1023 1.356 . S
H1026 C1020 0.930 . S
H1027 C1024 0.930 . S
O1028 Li968 1.987 . S
O1028 Li969 1.970 . S
O1028 Li970 1.961 . S
O1028 C972 1.325 . S
O1029 Li968 1.972 1_556 S
O1029 Li969 1.956 1_556 S
O1029 Li971 1.961 . S
O1029 C978 1.325 . S
O1030 Li968 1.926 1_556 S
O1030 Li970 1.956 1_556 S
O1030 Li971 1.970 . S
O1030 C1000 1.325 . S
O1031 Li969 1.989 . S
O1031 Li970 1.967 . S
O1031 Li971 1.930 1_554 S
O1031 C1006 1.324 . S
H1032 C974 0.929 . S
H1033 C975 0.930 . S
H1034 C976 0.930 . S
H1035 C977 0.930 . S
H1036 C979 0.930 . S
H1037 C981 0.942 . S
H1038 C982 0.930 . S
H1039 C983 0.930 1_554 S
H1040 C986 0.930 . S
H1041 C989 0.929 . S
H1042 C994 0.929 . S
H1043 C995 0.930 . S
H1044 C1002 0.929 . S
H1045 C1003 0.930 . S
H1046 C1004 0.930 . S
H1047 C1005 0.930 . S
H1048 C1007 0.929 . S
H1049 C1008 0.930 . S
H1050 C1009 0.930 . S
H1051 C1010 0.930 . S
H1052 C1014 0.929 . S
H1053 C1016 0.930 . S
H1054 C1022 0.929 . S
H1055 C1023 0.930 . S
Li1056 N1073 1.990 . S
Li1056 O1116 1.956 . S
Li1056 O1117 1.970 . S
Li1056 O1118 1.961 . S
Li1057 N1081 1.990 . S
Li1057 O1116 1.970 . S
Li1057 O1117 1.956 . S
Li1057 O1119 1.961 . S
Li1058 N1103 1.990 . S
Li1058 O1116 1.961 . S
Li1058 O1118 1.956 . S
Li1058 O1119 1.970 . S
Li1059 N1109 1.990 1_554 S
Li1059 O1117 1.961 . S
Li1059 O1118 1.970 . S
Li1059 O1119 1.956 . S
C1060 C1062 1.348 . S
C1060 C1063 1.356 . S
C1060 O1116 1.325 . S
N1061 C1064 1.314 . S
N1061 C1065 1.279 . S
C1062 C1060 1.348 . S
C1062 C1064 1.353 . S
C1062 H1120 0.929 . S
C1063 C1060 1.356 . S
C1063 C1065 1.358 . S
C1063 H1121 0.930 . S
C1064 N1061 1.314 . S
C1064 C1062 1.353 . S
C1064 H1122 0.930 . S
C1065 N1061 1.279 . S
C1065 C1063 1.358 . S
C1065 H1123 0.930 . S
C1066 C1069 1.348 . S
C1066 C1070 1.356 . S
C1066 O1117 1.325 . S
C1067 N1068 1.279 . S
C1067 C1070 1.358 . S
C1067 H1124 0.930 . S
N1068 C1067 1.279 . S
N1068 C1071 1.314 . S
C1069 C1066 1.348 . S
C1069 C1071 1.353 . S
C1069 H1125 0.929 . S
C1070 C1066 1.356 . S
C1070 C1067 1.358 . S
C1070 H1126 0.930 . S
C1071 N1068 1.314 . S
C1071 C1069 1.353 . S
C1071 H1127 0.930 . S
C1072 N1073 1.314 . S
C1072 C1077 1.353 . S
C1072 H1078 0.980 . S
N1073 Li1056 1.990 . S
N1073 C1072 1.314 . S
N1073 C1075 1.279 . S
C1074 C1075 1.358 . S
C1074 C1076 1.356 . S
C1074 H1128 0.930 . S
C1075 N1073 1.279 . S
C1075 C1074 1.358 . S
C1075 H1079 0.930 . S
C1076 C1074 1.356 . S
C1076 C1077 1.348 . S
C1077 C1072 1.353 . S
C1077 C1076 1.348 . S
C1077 H1129 0.929 1_554 S
H1078 C1072 0.980 . S
H1079 C1075 0.930 . S
C1080 N1081 1.314 . S
C1080 C1082 1.353 . S
C1080 H1086 0.930 . S
N1081 Li1057 1.990 . S
N1081 C1080 1.314 . S
N1081 C1084 1.279 . S
C1082 C1080 1.353 . S
C1082 C1085 1.348 . S
C1082 H1130 0.929 . S
C1083 C1084 1.358 . S
C1083 C1085 1.356 . S
C1083 H1131 0.930 . S
C1084 N1081 1.279 . S
C1084 C1083 1.358 . S
C1084 H1087 0.930 . S
C1085 C1082 1.348 . S
C1085 C1083 1.356 . S
H1086 C1080 0.930 . S
H1087 C1084 0.930 . S
C1088 C1090 1.348 . S
C1088 C1091 1.356 . S
C1088 O1118 1.325 1_556 S
N1089 C1092 1.314 . S
N1089 C1093 1.279 . S
C1090 C1088 1.348 . S
C1090 C1092 1.353 . S
C1090 H1132 0.929 . S
C1091 C1088 1.356 . S
C1091 C1093 1.358 . S
C1091 H1133 0.930 1_556 S
C1092 N1089 1.314 . S
C1092 C1090 1.353 . S
C1092 H1134 0.930 . S
C1093 N1089 1.279 . S
C1093 C1091 1.358 . S
C1093 H1135 0.930 . S
C1094 C1095 1.348 . S
C1094 C1096 1.356 . S
C1094 O1119 1.325 . S
C1095 C1094 1.348 . S
C1095 C1097 1.353 . S
C1095 H1136 0.929 . S
C1096 C1094 1.356 . S
C1096 C1098 1.358 . S
C1096 H1137 0.930 . S
C1097 C1095 1.353 . S
C1097 N1099 1.314 . S
C1097 H1138 0.930 . S
C1098 C1096 1.358 . S
C1098 N1099 1.279 . S
C1098 H1139 0.930 . S
N1099 C1097 1.314 . S
N1099 C1098 1.279 . S
C1100 C1102 1.353 . S
C1100 N1103 1.314 . S
C1100 H1106 0.930 . S
C1101 N1103 1.279 . S
C1101 C1104 1.358 . S
C1101 H1107 0.930 . S
C1102 C1100 1.353 . S
C1102 C1105 1.348 . S
C1102 H1140 0.929 . S
N1103 Li1058 1.990 . S
N1103 C1100 1.314 . S
N1103 C1101 1.279 . S
C1104 C1101 1.358 . S
C1104 C1105 1.356 . S
C1104 H1141 0.930 . S
C1105 C1102 1.348 . S
C1105 C1104 1.356 . S
H1106 C1100 0.930 . S
H1107 C1101 0.930 . S
C1108 N1109 1.314 . S
C1108 C1110 1.353 . S
C1108 H1114 0.930 . S
N1109 Li1059 1.990 1_556 S
N1109 C1108 1.314 . S
N1109 C1112 1.279 . S
C1110 C1108 1.353 . S
C1110 C1113 1.348 . S
C1110 H1142 0.929 . S
C1111 C1112 1.358 . S
C1111 C1113 1.356 . S
C1111 H1143 0.930 . S
C1112 N1109 1.279 . S
C1112 C1111 1.358 . S
C1112 H1115 0.930 . S
C1113 C1110 1.348 . S
C1113 C1111 1.356 . S
H1114 C1108 0.930 . S
H1115 C1112 0.930 . S
O1116 Li1056 1.956 . S
O1116 Li1057 1.970 . S
O1116 Li1058 1.961 . S
O1116 C1060 1.325 . S
O1117 Li1056 1.970 . S
O1117 Li1057 1.956 . S
O1117 Li1059 1.961 . S
O1117 C1066 1.325 . S
O1118 Li1056 1.961 . S
O1118 Li1058 1.956 . S
O1118 Li1059 1.970 . S
O1118 C1088 1.325 1_554 S
O1119 Li1057 1.961 . S
O1119 Li1058 1.970 . S
O1119 Li1059 1.956 . S
O1119 C1094 1.325 . S
H1120 C1062 0.929 . S
H1121 C1063 0.930 . S
H1122 C1064 0.930 . S
H1123 C1065 0.930 . S
H1124 C1067 0.930 . S
H1125 C1069 0.929 . S
H1126 C1070 0.930 . S
H1127 C1071 0.930 . S
H1128 C1074 0.930 . S
H1129 C1077 0.929 1_556 S
H1130 C1082 0.929 . S
H1131 C1083 0.930 . S
H1132 C1090 0.929 . S
H1133 C1091 0.930 1_554 S
H1134 C1092 0.930 . S
H1135 C1093 0.930 . S
H1136 C1095 0.929 . S
H1137 C1096 0.930 . S
H1138 C1097 0.930 . S
H1139 C1098 0.930 . S
H1140 C1102 0.929 . S
H1141 C1104 0.930 . S
H1142 C1110 0.929 . S
H1143 C1111 0.930 . S
Li1144 N1161 1.990 . S
Li1144 O1204 1.956 . S
Li1144 O1205 1.970 . S
Li1144 O1206 1.961 . S
Li1145 N1169 1.990 . S
Li1145 O1204 1.970 . S
Li1145 O1205 1.956 . S
Li1145 O1207 1.961 . S
Li1146 N1191 1.990 . S
Li1146 O1204 1.961 . S
Li1146 O1206 1.956 . S
Li1146 O1207 1.970 . S
Li1147 N1197 1.990 . S
Li1147 O1205 1.961 . S
Li1147 O1206 1.970 . S
Li1147 O1207 1.956 . S
C1148 C1150 1.348 . S
C1148 C1151 1.356 . S
C1148 O1204 1.325 . S
N1149 C1152 1.314 . S
N1149 C1153 1.279 . S
C1150 C1148 1.348 . S
C1150 C1152 1.353 . S
C1150 H1208 0.929 . S
C1151 C1148 1.356 . S
C1151 C1153 1.358 . S
C1151 H1209 0.930 . S
C1152 N1149 1.314 . S
C1152 C1150 1.353 . S
C1152 H1210 0.930 . S
C1153 N1149 1.279 . S
C1153 C1151 1.358 . S
C1153 H1211 0.930 . S
C1154 C1157 1.348 . S
C1154 C1158 1.356 . S
C1154 O1205 1.325 . S
C1155 N1156 1.279 . S
C1155 C1158 1.358 . S
C1155 H1212 0.930 . S
N1156 C1155 1.279 . S
N1156 C1159 1.314 . S
C1157 C1154 1.348 . S
C1157 C1159 1.353 . S
C1157 H1213 0.929 . S
C1158 C1154 1.356 . S
C1158 C1155 1.358 . S
C1158 H1214 0.930 . S
C1159 N1156 1.314 . S
C1159 C1157 1.353 . S
C1159 H1215 0.930 . S
C1160 N1161 1.314 . S
C1160 C1165 1.353 . S
C1160 H1166 0.930 . S
N1161 Li1144 1.990 . S
N1161 C1160 1.314 . S
N1161 C1163 1.279 . S
C1162 C1163 1.358 . S
C1162 C1164 1.356 . S
C1162 H1216 0.930 . S
C1163 N1161 1.279 . S
C1163 C1162 1.358 . S
C1163 H1167 0.930 . S
C1164 C1162 1.356 . S
C1164 C1165 1.348 . S
C1165 C1160 1.353 . S
C1165 C1164 1.348 . S
C1165 H1217 0.929 . S
H1166 C1160 0.930 . S
H1167 C1163 0.930 . S
C1168 N1169 1.314 . S
C1168 C1170 1.353 . S
C1168 H1174 0.930 . S
N1169 Li1145 1.990 . S
N1169 C1168 1.314 . S
N1169 C1172 1.279 . S
C1170 C1168 1.353 . S
C1170 C1173 1.348 . S
C1170 H1218 0.929 . S
C1171 C1172 1.358 . S
C1171 C1173 1.356 . S
C1171 H1219 0.930 . S
C1172 N1169 1.279 . S
C1172 C1171 1.358 . S
C1172 H1175 0.930 . S
C1173 C1170 1.348 . S
C1173 C1171 1.356 . S
H1174 C1168 0.930 . S
H1175 C1172 0.930 . S
C1176 C1178 1.348 . S
C1176 C1179 1.356 . S
C1176 O1206 1.325 . S
N1177 C1180 1.314 . S
N1177 C1181 1.279 . S
C1178 C1176 1.348 . S
C1178 C1180 1.353 . S
C1178 H1220 0.929 . S
C1179 C1176 1.356 . S
C1179 C1181 1.358 . S
C1179 H1221 0.930 . S
C1180 N1177 1.314 . S
C1180 C1178 1.353 . S
C1180 H1222 0.930 . S
C1181 N1177 1.279 . S
C1181 C1179 1.358 . S
C1181 H1223 0.930 . S
C1182 C1183 1.348 1_554 S
C1182 C1184 1.356 . S
C1182 O1207 1.325 . S
C1183 C1182 1.348 1_556 S
C1183 C1185 1.353 . S
C1183 H1224 0.929 . S
C1184 C1182 1.356 . S
C1184 C1186 1.358 1_554 S
C1184 H1225 0.930 . S
C1185 C1183 1.353 . S
C1185 N1187 1.314 . S
C1185 H1226 0.930 . S
C1186 C1184 1.358 1_556 S
C1186 N1187 1.279 . S
C1186 H1227 0.930 . S
N1187 C1185 1.314 . S
N1187 C1186 1.279 . S
C1188 C1190 1.383 . S
C1188 N1191 1.293 1_556 S
C1188 H1194 0.920 1_556 S
C1189 N1191 1.279 . S
C1189 C1192 1.358 1_554 S
C1189 H1195 0.930 . S
C1190 C1188 1.383 . S
C1190 C1193 1.348 . S
C1190 H1228 0.929 . S
N1191 Li1146 1.990 . S
N1191 C1188 1.293 1_554 S
N1191 C1189 1.279 . S
C1192 C1189 1.358 1_556 S
C1192 C1193 1.356 . S
C1192 H1229 0.930 . S
C1193 C1190 1.348 . S
C1193 C1192 1.356 . S
H1194 C1188 0.920 1_554 S
H1195 C1189 0.930 . S
C1196 N1197 1.314 . S
C1196 C1198 1.353 . S
C1196 H1202 0.930 . S
N1197 Li1147 1.990 . S
N1197 C1196 1.314 . S
N1197 C1200 1.279 . S
C1198 C1196 1.353 . S
C1198 C1201 1.348 . S
C1198 H1230 0.929 . S
C1199 C1200 1.358 . S
C1199 C1201 1.356 . S
C1199 H1231 0.930 . S
C1200 N1197 1.279 . S
C1200 C1199 1.358 . S
C1200 H1203 0.930 . S
C1201 C1198 1.348 . S
C1201 C1199 1.356 . S
H1202 C1196 0.930 . S
H1203 C1200 0.930 . S
O1204 Li1144 1.956 . S
O1204 Li1145 1.970 . S
O1204 Li1146 1.961 . S
O1204 C1148 1.325 . S
O1205 Li1144 1.970 . S
O1205 Li1145 1.956 . S
O1205 Li1147 1.961 . S
O1205 C1154 1.325 . S
O1206 Li1144 1.961 . S
O1206 Li1146 1.956 . S
O1206 Li1147 1.970 . S
O1206 C1176 1.325 . S
O1207 Li1145 1.961 . S
O1207 Li1146 1.970 . S
O1207 Li1147 1.956 . S
O1207 C1182 1.325 . S
H1208 C1150 0.929 . S
H1209 C1151 0.930 . S
H1210 C1152 0.930 . S
H1211 C1153 0.930 . S
H1212 C1155 0.930 . S
H1213 C1157 0.929 . S
H1214 C1158 0.930 . S
H1215 C1159 0.930 . S
H1216 C1162 0.930 . S
H1217 C1165 0.929 . S
H1218 C1170 0.929 . S
H1219 C1171 0.930 . S
H1220 C1178 0.929 . S
H1221 C1179 0.930 . S
H1222 C1180 0.930 . S
H1223 C1181 0.930 . S
H1224 C1183 0.929 . S
H1225 C1184 0.930 . S
H1226 C1185 0.930 . S
H1227 C1186 0.930 . S
H1228 C1190 0.929 . S
H1229 C1192 0.930 . S
H1230 C1198 0.929 . S
H1231 C1199 0.930 . S
Li1232 N1249 1.990 . S
Li1232 O1292 1.956 . S
Li1232 O1293 1.970 . S
Li1232 O1294 1.961 . S
Li1233 N1257 1.990 . S
Li1233 O1292 1.970 . S
Li1233 O1293 1.956 . S
Li1233 O1295 1.961 . S
Li1234 N1279 1.990 . S
Li1234 O1292 1.961 . S
Li1234 O1294 1.956 . S
Li1234 O1295 1.970 . S
Li1235 N1285 1.990 . S
Li1235 O1293 1.961 . S
Li1235 O1294 1.970 . S
Li1235 O1295 1.956 . S
C1236 C1238 1.348 . S
C1236 C1239 1.356 . S
C1236 O1292 1.325 . S
N1237 C1240 1.314 . S
N1237 C1241 1.279 . S
C1238 C1236 1.348 . S
C1238 C1240 1.353 . S
C1238 H1296 0.929 . S
C1239 C1236 1.356 . S
C1239 C1241 1.358 . S
C1239 H1297 0.930 . S
C1240 N1237 1.314 . S
C1240 C1238 1.353 . S
C1240 H1298 0.930 . S
C1241 N1237 1.279 . S
C1241 C1239 1.358 . S
C1241 H1299 0.930 . S
C1242 C1245 1.348 . S
C1242 C1246 1.356 . S
C1242 O1293 1.325 . S
C1243 N1244 1.279 . S
C1243 C1246 1.358 . S
C1243 H1300 0.930 . S
N1244 C1243 1.279 . S
N1244 C1247 1.314 . S
C1245 C1242 1.348 . S
C1245 C1247 1.353 . S
C1245 H1301 0.929 . S
C1246 C1242 1.356 . S
C1246 C1243 1.358 . S
C1246 H1302 0.930 . S
C1247 N1244 1.314 . S
C1247 C1245 1.353 . S
C1247 H1303 0.930 . S
C1248 N1249 1.314 . S
C1248 C1253 1.353 . S
C1248 H1254 0.930 . S
N1249 Li1232 1.990 . S
N1249 C1248 1.314 . S
N1249 C1251 1.279 . S
C1250 C1251 1.358 . S
C1250 C1252 1.356 . S
C1250 H1304 0.930 . S
C1251 N1249 1.279 . S
C1251 C1250 1.358 . S
C1251 H1255 0.930 . S
C1252 C1250 1.356 . S
C1252 C1253 1.348 . S
C1253 C1248 1.353 . S
C1253 C1252 1.348 . S
C1253 H1305 0.929 . S
H1254 C1248 0.930 . S
H1255 C1251 0.930 . S
C1256 N1257 1.314 . S
C1256 C1258 1.353 . S
C1256 H1262 0.930 . S
N1257 Li1233 1.990 . S
N1257 C1256 1.314 . S
N1257 C1260 1.279 . S
C1258 C1256 1.353 . S
C1258 C1261 1.348 . S
C1258 H1306 0.929 . S
C1259 C1260 1.358 . S
C1259 C1261 1.356 . S
C1259 H1307 0.930 . S
C1260 N1257 1.279 . S
C1260 C1259 1.358 . S
C1260 H1263 0.930 . S
C1261 C1258 1.348 . S
C1261 C1259 1.356 . S
H1262 C1256 0.930 . S
H1263 C1260 0.930 . S
C1264 C1266 1.348 . S
C1264 C1267 1.356 . S
C1264 O1294 1.325 . S
N1265 C1268 1.314 . S
N1265 C1269 1.279 . S
C1266 C1264 1.348 . S
C1266 C1268 1.353 . S
C1266 H1308 0.929 . S
C1267 C1264 1.356 . S
C1267 C1269 1.358 . S
C1267 H1309 0.930 . S
C1268 N1265 1.314 . S
C1268 C1266 1.353 . S
C1268 H1310 0.930 . S
C1269 N1265 1.279 . S
C1269 C1267 1.358 . S
C1269 H1311 0.930 . S
C1270 C1271 1.348 . S
C1270 C1272 1.356 . S
C1270 O1295 1.325 . S
C1271 C1270 1.348 . S
C1271 C1273 1.353 . S
C1271 H1312 0.929 . S
C1272 C1270 1.356 . S
C1272 C1274 1.358 . S
C1272 H1313 0.930 . S
C1273 C1271 1.353 . S
C1273 N1275 1.314 . S
C1273 H1314 0.930 . S
C1274 C1272 1.358 . S
C1274 N1275 1.279 . S
C1274 H1315 0.930 . S
N1275 C1273 1.314 . S
N1275 C1274 1.279 . S
C1276 C1278 1.353 . S
C1276 N1279 1.314 . S
C1276 H1282 0.930 . S
C1277 N1279 1.279 . S
C1277 C1280 1.358 . S
C1277 H1283 0.930 . S
C1278 C1276 1.353 . S
C1278 C1281 1.348 . S
C1278 H1316 0.929 . S
N1279 Li1234 1.990 . S
N1279 C1276 1.314 . S
N1279 C1277 1.279 . S
C1280 C1277 1.358 . S
C1280 C1281 1.356 . S
C1280 H1317 0.930 . S
C1281 C1278 1.348 . S
C1281 C1280 1.356 . S
H1282 C1276 0.930 . S
H1283 C1277 0.930 . S
C1284 N1285 1.314 . S
C1284 C1286 1.353 . S
C1284 H1290 0.930 . S
N1285 Li1235 1.990 . S
N1285 C1284 1.314 . S
N1285 C1288 1.279 . S
C1286 C1284 1.353 . S
C1286 C1289 1.348 . S
C1286 H1318 0.929 . S
C1287 C1288 1.358 . S
C1287 C1289 1.356 . S
C1287 H1319 0.930 . S
C1288 N1285 1.279 . S
C1288 C1287 1.358 . S
C1288 H1291 0.930 . S
C1289 C1286 1.348 . S
C1289 C1287 1.356 . S
H1290 C1284 0.930 . S
H1291 C1288 0.930 . S
O1292 Li1232 1.956 . S
O1292 Li1233 1.970 . S
O1292 Li1234 1.961 . S
O1292 C1236 1.325 . S
O1293 Li1232 1.970 . S
O1293 Li1233 1.956 . S
O1293 Li1235 1.961 . S
O1293 C1242 1.325 . S
O1294 Li1232 1.961 . S
O1294 Li1234 1.956 . S
O1294 Li1235 1.970 . S
O1294 C1264 1.325 . S
O1295 Li1233 1.961 . S
O1295 Li1234 1.970 . S
O1295 Li1235 1.956 . S
O1295 C1270 1.325 . S
H1296 C1238 0.929 . S
H1297 C1239 0.930 . S
H1298 C1240 0.930 . S
H1299 C1241 0.930 . S
H1300 C1243 0.930 . S
H1301 C1245 0.929 . S
H1302 C1246 0.930 . S
H1303 C1247 0.930 . S
H1304 C1250 0.930 . S
H1305 C1253 0.929 . S
H1306 C1258 0.929 . S
H1307 C1259 0.930 . S
H1308 C1266 0.929 . S
H1309 C1267 0.930 . S
H1310 C1268 0.930 . S
H1311 C1269 0.930 . S
H1312 C1271 0.929 . S
H1313 C1272 0.930 . S
H1314 C1273 0.930 . S
H1315 C1274 0.930 . S
H1316 C1278 0.929 . S
H1317 C1280 0.930 . S
H1318 C1286 0.929 . S
H1319 C1287 0.930 . S
Li1320 N1337 1.990 . S
Li1320 O1380 1.956 . S
Li1320 O1381 1.970 . S
Li1320 O1382 1.961 . S
Li1321 N1345 1.990 . S
Li1321 O1380 1.970 . S
Li1321 O1381 1.956 . S
Li1321 O1383 1.961 . S
Li1322 N1367 1.990 . S
Li1322 O1380 1.961 . S
Li1322 O1382 1.956 . S
Li1322 O1383 1.970 . S
Li1323 N1373 1.990 . S
Li1323 O1381 1.961 . S
Li1323 O1382 1.970 . S
Li1323 O1383 1.956 . S
C1324 C1326 1.348 . S
C1324 C1327 1.356 . S
C1324 O1380 1.325 . S
N1325 C1328 1.314 . S
N1325 C1329 1.279 . S
C1326 C1324 1.348 . S
C1326 C1328 1.353 . S
C1326 H1384 0.929 . S
C1327 C1324 1.356 . S
C1327 C1329 1.358 . S
C1327 H1385 0.930 . S
C1328 N1325 1.314 . S
C1328 C1326 1.353 . S
C1328 H1386 0.930 . S
C1329 N1325 1.279 . S
C1329 C1327 1.358 . S
C1329 H1387 0.930 . S
C1330 C1333 1.348 . S
C1330 C1334 1.356 . S
C1330 O1381 1.325 . S
C1331 N1332 1.279 . S
C1331 C1334 1.358 . S
C1331 H1388 0.930 . S
N1332 C1331 1.279 . S
N1332 C1335 1.314 . S
C1333 C1330 1.348 . S
C1333 C1335 1.353 . S
C1333 H1389 0.929 . S
C1334 C1330 1.356 . S
C1334 C1331 1.358 . S
C1334 H1390 0.930 . S
C1335 N1332 1.314 . S
C1335 C1333 1.353 . S
C1335 H1391 0.930 . S
C1336 N1337 1.314 . S
C1336 C1341 1.353 . S
C1336 H1342 0.930 . S
N1337 Li1320 1.990 . S
N1337 C1336 1.314 . S
N1337 C1339 1.279 . S
C1338 C1339 1.358 . S
C1338 C1340 1.356 . S
C1338 H1392 0.930 . S
C1339 N1337 1.279 . S
C1339 C1338 1.358 . S
C1339 H1343 0.930 . S
C1340 C1338 1.356 . S
C1340 C1341 1.348 . S
C1341 C1336 1.353 . S
C1341 C1340 1.348 . S
C1341 H1393 0.929 . S
H1342 C1336 0.930 . S
H1343 C1339 0.930 . S
C1344 N1345 1.314 . S
C1344 C1346 1.353 . S
C1344 H1350 0.930 . S
N1345 Li1321 1.990 . S
N1345 C1344 1.314 . S
N1345 C1348 1.279 . S
C1346 C1344 1.353 . S
C1346 C1349 1.348 . S
C1346 H1394 0.929 . S
C1347 C1348 1.358 . S
C1347 C1349 1.356 . S
C1347 H1395 0.930 . S
C1348 N1345 1.279 . S
C1348 C1347 1.358 . S
C1348 H1351 0.930 . S
C1349 C1346 1.348 . S
C1349 C1347 1.356 . S
H1350 C1344 0.930 . S
H1351 C1348 0.930 . S
C1352 C1354 1.348 . S
C1352 C1355 1.356 . S
C1352 O1382 1.325 . S
N1353 C1356 1.314 . S
N1353 C1357 1.279 . S
C1354 C1352 1.348 . S
C1354 C1356 1.353 . S
C1354 H1396 0.929 . S
C1355 C1352 1.356 . S
C1355 C1357 1.358 . S
C1355 H1397 0.930 . S
C1356 N1353 1.314 . S
C1356 C1354 1.353 . S
C1356 H1398 0.930 . S
C1357 N1353 1.279 . S
C1357 C1355 1.358 . S
C1357 H1399 0.930 . S
C1358 C1359 1.348 . S
C1358 C1360 1.356 . S
C1358 O1383 1.325 . S
C1359 C1358 1.348 . S
C1359 C1361 1.353 . S
C1359 H1400 0.929 . S
C1360 C1358 1.356 . S
C1360 C1362 1.358 . S
C1360 H1401 0.930 . S
C1361 C1359 1.353 . S
C1361 N1363 1.314 . S
C1361 H1402 0.930 . S
C1362 C1360 1.358 . S
C1362 N1363 1.279 . S
C1362 H1403 0.930 . S
N1363 C1361 1.314 . S
N1363 C1362 1.279 . S
C1364 C1366 1.353 . S
C1364 N1367 1.314 . S
C1364 H1370 0.930 . S
C1365 N1367 1.279 . S
C1365 C1368 1.358 . S
C1365 H1371 0.930 . S
C1366 C1364 1.353 . S
C1366 C1369 1.348 . S
C1366 H1404 0.929 . S
N1367 Li1322 1.990 . S
N1367 C1364 1.314 . S
N1367 C1365 1.279 . S
C1368 C1365 1.358 . S
C1368 C1369 1.356 . S
C1368 H1405 0.930 . S
C1369 C1366 1.348 . S
C1369 C1368 1.356 . S
H1370 C1364 0.930 . S
H1371 C1365 0.930 . S
C1372 N1373 1.314 . S
C1372 C1374 1.353 . S
C1372 H1378 0.930 . S
N1373 Li1323 1.990 . S
N1373 C1372 1.314 . S
N1373 C1376 1.279 . S
C1374 C1372 1.353 . S
C1374 C1377 1.348 . S
C1374 H1406 0.929 . S
C1375 C1376 1.358 . S
C1375 C1377 1.356 . S
C1375 H1407 0.930 . S
C1376 N1373 1.279 . S
C1376 C1375 1.358 . S
C1376 H1379 0.930 . S
C1377 C1374 1.348 . S
C1377 C1375 1.356 . S
H1378 C1372 0.930 . S
H1379 C1376 0.930 . S
O1380 Li1320 1.956 . S
O1380 Li1321 1.970 . S
O1380 Li1322 1.961 . S
O1380 C1324 1.325 . S
O1381 Li1320 1.970 . S
O1381 Li1321 1.956 . S
O1381 Li1323 1.961 . S
O1381 C1330 1.325 . S
O1382 Li1320 1.961 . S
O1382 Li1322 1.956 . S
O1382 Li1323 1.970 . S
O1382 C1352 1.325 . S
O1383 Li1321 1.961 . S
O1383 Li1322 1.970 . S
O1383 Li1323 1.956 . S
O1383 C1358 1.325 . S
H1384 C1326 0.929 . S
H1385 C1327 0.930 . S
H1386 C1328 0.930 . S
H1387 C1329 0.930 . S
H1388 C1331 0.930 . S
H1389 C1333 0.929 . S
H1390 C1334 0.930 . S
H1391 C1335 0.930 . S
H1392 C1338 0.930 . S
H1393 C1341 0.929 . S
H1394 C1346 0.929 . S
H1395 C1347 0.930 . S
H1396 C1354 0.929 . S
H1397 C1355 0.930 . S
H1398 C1356 0.930 . S
H1399 C1357 0.930 . S
H1400 C1359 0.929 . S
H1401 C1360 0.930 . S
H1402 C1361 0.930 . S
H1403 C1362 0.930 . S
H1404 C1366 0.929 . S
H1405 C1368 0.930 . S
H1406 C1374 0.929 . S
H1407 C1375 0.930 . S
Li1408 N1425 1.990 . S
Li1408 O1468 1.956 . S
Li1408 O1469 1.970 . S
Li1408 O1470 1.961 . S
Li1409 N1433 1.990 1_545 S
Li1409 O1468 1.970 . S
Li1409 O1469 1.956 . S
Li1409 O1471 1.961 . S
Li1410 N1455 1.990 . S
Li1410 O1468 1.961 . S
Li1410 O1470 1.956 . S
Li1410 O1471 1.970 . S
Li1411 N1461 1.990 . S
Li1411 O1469 1.961 . S
Li1411 O1470 1.970 . S
Li1411 O1471 1.956 . S
C1412 C1414 1.348 . S
C1412 C1415 1.356 1_565 S
C1412 O1468 1.325 1_565 S
N1413 C1416 1.314 . S
N1413 C1417 1.279 . S
C1414 C1412 1.348 . S
C1414 C1416 1.353 . S
C1414 H1472 0.929 . S
C1415 C1412 1.356 1_545 S
C1415 C1417 1.358 1_545 S
C1415 H1473 0.930 . S
C1416 N1413 1.314 . S
C1416 C1414 1.353 . S
C1416 H1474 0.930 . S
C1417 N1413 1.279 . S
C1417 C1415 1.358 1_565 S
C1417 H1475 0.930 . S
C1418 C1421 1.348 . S
C1418 C1422 1.356 . S
C1418 O1469 1.325 . S
C1419 N1420 1.279 . S
C1419 C1422 1.358 . S
C1419 H1476 0.930 . S
N1420 C1419 1.279 . S
N1420 C1423 1.314 . S
C1421 C1418 1.348 . S
C1421 C1423 1.353 . S
C1421 H1477 0.929 . S
C1422 C1418 1.356 . S
C1422 C1419 1.358 . S
C1422 H1478 0.930 . S
C1423 N1420 1.314 . S
C1423 C1421 1.353 . S
C1423 H1479 0.930 . S
C1424 N1425 1.314 . S
C1424 C1429 1.353 . S
C1424 H1430 0.930 . S
N1425 Li1408 1.990 . S
N1425 C1424 1.314 . S
N1425 C1427 1.279 . S
C1426 C1427 1.358 . S
C1426 C1428 1.356 . S
C1426 H1480 0.930 . S
C1427 N1425 1.279 . S
C1427 C1426 1.358 . S
C1427 H1431 0.930 . S
C1428 C1426 1.356 . S
C1428 C1429 1.348 . S
C1429 C1424 1.353 . S
C1429 C1428 1.348 . S
C1429 H1481 0.929 . S
H1430 C1424 0.930 . S
H1431 C1427 0.930 . S
C1432 N1433 1.314 . S
C1432 C1434 1.353 . S
C1432 H1438 0.930 . S
N1433 Li1409 1.990 1_565 S
N1433 C1432 1.314 . S
N1433 C1436 1.279 . S
C1434 C1432 1.353 . S
C1434 C1437 1.348 . S
C1434 H1482 0.929 . S
C1435 C1436 1.358 . S
C1435 C1437 1.356 . S
C1435 H1483 0.930 . S
C1436 N1433 1.279 . S
C1436 C1435 1.358 . S
C1436 H1439 0.930 . S
C1437 C1434 1.348 . S
C1437 C1435 1.356 . S
H1438 C1432 0.930 . S
H1439 C1436 0.930 . S
C1440 C1442 1.348 . S
C1440 C1443 1.356 . S
C1440 O1470 1.325 . S
N1441 C1444 1.314 . S
N1441 C1445 1.279 . S
C1442 C1440 1.348 . S
C1442 C1444 1.353 . S
C1442 H1484 0.929 . S
C1443 C1440 1.356 . S
C1443 C1445 1.358 . S
C1443 H1485 0.930 . S
C1444 N1441 1.314 . S
C1444 C1442 1.353 . S
C1444 H1486 0.930 . S
C1445 N1441 1.279 . S
C1445 C1443 1.358 . S
C1445 H1487 0.930 1_655 S
C1446 C1447 1.348 . S
C1446 C1448 1.356 . S
C1446 O1471 1.325 . S
C1447 C1446 1.348 . S
C1447 C1449 1.353 . S
C1447 H1488 0.929 . S
C1448 C1446 1.356 . S
C1448 C1450 1.358 . S
C1448 H1489 0.930 . S
C1449 C1447 1.353 . S
C1449 N1451 1.314 . S
C1449 H1490 0.930 . S
C1450 C1448 1.358 . S
C1450 N1451 1.279 . S
C1450 H1491 0.930 . S
N1451 C1449 1.314 . S
N1451 C1450 1.279 . S
C1452 C1454 1.353 . S
C1452 N1455 1.314 . S
C1452 H1458 0.930 . S
C1453 N1455 1.279 . S
C1453 C1456 1.358 . S
C1453 H1459 0.930 . S
C1454 C1452 1.353 . S
C1454 C1457 1.348 . S
C1454 H1492 0.929 . S
N1455 Li1410 1.990 . S
N1455 C1452 1.314 . S
N1455 C1453 1.279 . S
C1456 C1453 1.358 . S
C1456 C1457 1.356 . S
C1456 H1493 0.930 . S
C1457 C1454 1.348 . S
C1457 C1456 1.356 . S
H1458 C1452 0.930 . S
H1459 C1453 0.930 . S
C1460 N1461 1.314 . S
C1460 C1462 1.353 . S
C1460 H1466 0.930 . S
N1461 Li1411 1.990 . S
N1461 C1460 1.314 . S
N1461 C1464 1.279 . S
C1462 C1460 1.353 . S
C1462 C1465 1.348 . S
C1462 H1494 0.929 . S
C1463 C1464 1.358 . S
C1463 C1465 1.356 . S
C1463 H1495 0.930 . S
C1464 N1461 1.279 . S
C1464 C1463 1.358 . S
C1464 H1467 0.930 . S
C1465 C1462 1.348 . S
C1465 C1463 1.356 . S
H1466 C1460 0.930 . S
H1467 C1464 0.930 . S
O1468 Li1408 1.956 . S
O1468 Li1409 1.970 . S
O1468 Li1410 1.961 . S
O1468 C1412 1.325 1_545 S
O1469 Li1408 1.970 . S
O1469 Li1409 1.956 . S
O1469 Li1411 1.961 . S
O1469 C1418 1.325 . S
O1470 Li1408 1.961 . S
O1470 Li1410 1.956 . S
O1470 Li1411 1.970 . S
O1470 C1440 1.325 . S
O1471 Li1409 1.961 . S
O1471 Li1410 1.970 . S
O1471 Li1411 1.956 . S
O1471 C1446 1.325 . S
H1472 C1414 0.929 . S
H1473 C1415 0.930 . S
H1474 C1416 0.930 . S
H1475 C1417 0.930 . S
H1476 C1419 0.930 . S
H1477 C1421 0.929 . S
H1478 C1422 0.930 . S
H1479 C1423 0.930 . S
H1480 C1426 0.930 . S
H1481 C1429 0.929 . S
H1482 C1434 0.929 . S
H1483 C1435 0.930 . S
H1484 C1442 0.929 . S
H1485 C1443 0.930 . S
H1486 C1444 0.930 . S
H1487 C1445 0.930 1_455 S
H1488 C1447 0.929 . S
H1489 C1448 0.930 . S
H1490 C1449 0.930 . S
H1491 C1450 0.930 . S
H1492 C1454 0.929 . S
H1493 C1456 0.930 . S
H1494 C1462 0.929 . S
H1495 C1463 0.930 . S
Li1496 N1513 1.990 . S
Li1496 O1556 1.956 . S
Li1496 O1557 1.970 . S
Li1496 O1558 1.961 . S
Li1497 N1521 1.990 . S
Li1497 O1556 1.970 . S
Li1497 O1557 1.956 . S
Li1497 O1559 1.961 . S
Li1498 N1543 1.990 . S
Li1498 O1556 1.961 . S
Li1498 O1558 1.956 . S
Li1498 O1559 1.970 . S
Li1499 N1549 1.990 . S
Li1499 O1557 1.961 . S
Li1499 O1558 1.970 . S
Li1499 O1559 1.956 . S
C1500 C1502 1.348 . S
C1500 C1503 1.356 . S
C1500 O1556 1.325 . S
N1501 C1504 1.314 . S
N1501 C1505 1.279 . S
C1502 C1500 1.348 . S
C1502 C1504 1.353 . S
C1502 H1560 0.929 . S
C1503 C1500 1.356 . S
C1503 C1505 1.358 . S
C1503 H1561 0.930 . S
C1504 N1501 1.314 . S
C1504 C1502 1.353 . S
C1504 H1562 0.930 . S
C1505 N1501 1.279 . S
C1505 C1503 1.358 . S
C1505 H1563 0.930 . S
C1506 C1509 1.348 . S
C1506 C1510 1.356 . S
C1506 O1557 1.325 . S
C1507 N1508 1.279 . S
C1507 C1510 1.358 . S
C1507 H1564 0.930 . S
N1508 C1507 1.279 . S
N1508 C1511 1.314 . S
C1509 C1506 1.348 . S
C1509 C1511 1.353 . S
C1509 H1565 0.929 . S
C1510 C1506 1.356 . S
C1510 C1507 1.358 . S
C1510 H1566 0.930 . S
C1511 N1508 1.314 . S
C1511 C1509 1.353 . S
C1511 H1567 0.930 . S
C1512 N1513 1.314 . S
C1512 C1517 1.353 . S
C1512 H1518 0.930 . S
N1513 Li1496 1.990 . S
N1513 C1512 1.314 . S
N1513 C1515 1.279 . S
C1514 C1515 1.358 . S
C1514 C1516 1.356 . S
C1514 H1568 0.930 . S
C1515 N1513 1.279 . S
C1515 C1514 1.358 . S
C1515 H1519 0.930 . S
C1516 C1514 1.356 . S
C1516 C1517 1.348 . S
C1517 C1512 1.353 . S
C1517 C1516 1.348 . S
C1517 H1569 0.929 . S
H1518 C1512 0.930 . S
H1519 C1515 0.930 . S
C1520 N1521 1.314 . S
C1520 C1522 1.353 . S
C1520 H1526 0.930 . S
N1521 Li1497 1.990 . S
N1521 C1520 1.314 . S
N1521 C1524 1.279 . S
C1522 C1520 1.353 . S
C1522 C1525 1.348 . S
C1522 H1570 0.929 . S
C1523 C1524 1.358 . S
C1523 C1525 1.356 . S
C1523 H1571 0.930 . S
C1524 N1521 1.279 . S
C1524 C1523 1.358 . S
C1524 H1527 0.930 . S
C1525 C1522 1.348 . S
C1525 C1523 1.356 . S
H1526 C1520 0.930 . S
H1527 C1524 0.930 . S
C1528 C1530 1.348 . S
C1528 C1531 1.356 . S
C1528 O1558 1.325 . S
N1529 C1532 1.314 . S
N1529 C1533 1.279 . S
C1530 C1528 1.348 . S
C1530 C1532 1.353 . S
C1530 H1572 0.929 . S
C1531 C1528 1.356 . S
C1531 C1533 1.358 . S
C1531 H1573 0.930 . S
C1532 N1529 1.314 . S
C1532 C1530 1.353 . S
C1532 H1574 0.930 . S
C1533 N1529 1.279 . S
C1533 C1531 1.358 . S
C1533 H1575 0.930 . S
C1534 C1535 1.348 . S
C1534 C1536 1.356 . S
C1534 O1559 1.325 . S
C1535 C1534 1.348 . S
C1535 C1537 1.353 . S
C1535 H1576 0.929 . S
C1536 C1534 1.356 . S
C1536 C1538 1.358 . S
C1536 H1577 0.930 . S
C1537 C1535 1.353 . S
C1537 N1539 1.314 . S
C1537 H1578 0.930 . S
C1538 C1536 1.358 . S
C1538 N1539 1.279 . S
C1538 H1579 0.930 . S
N1539 C1537 1.314 . S
N1539 C1538 1.279 . S
C1540 C1542 1.353 . S
C1540 N1543 1.314 . S
C1540 H1546 0.930 . S
C1541 N1543 1.279 . S
C1541 C1544 1.358 . S
C1541 H1547 0.930 . S
C1542 C1540 1.353 . S
C1542 C1545 1.348 . S
C1542 H1580 0.929 . S
N1543 Li1498 1.990 . S
N1543 C1540 1.314 . S
N1543 C1541 1.279 . S
C1544 C1541 1.358 . S
C1544 C1545 1.356 . S
C1544 H1581 0.930 . S
C1545 C1542 1.348 . S
C1545 C1544 1.356 . S
H1546 C1540 0.930 . S
H1547 C1541 0.930 . S
C1548 N1549 1.314 . S
C1548 C1550 1.353 . S
C1548 H1554 0.930 . S
N1549 Li1499 1.990 . S
N1549 C1548 1.314 . S
N1549 C1552 1.279 . S
C1550 C1548 1.353 . S
C1550 C1553 1.348 . S
C1550 H1582 0.929 . S
C1551 C1552 1.358 . S
C1551 C1553 1.356 . S
C1551 H1583 0.930 . S
C1552 N1549 1.279 . S
C1552 C1551 1.358 . S
C1552 H1555 0.930 . S
C1553 C1550 1.348 . S
C1553 C1551 1.356 . S
H1554 C1548 0.930 . S
H1555 C1552 0.930 . S
O1556 Li1496 1.956 . S
O1556 Li1497 1.970 . S
O1556 Li1498 1.961 . S
O1556 C1500 1.325 . S
O1557 Li1496 1.970 . S
O1557 Li1497 1.956 . S
O1557 Li1499 1.961 . S
O1557 C1506 1.325 . S
O1558 Li1496 1.961 . S
O1558 Li1498 1.956 . S
O1558 Li1499 1.970 . S
O1558 C1528 1.325 . S
O1559 Li1497 1.961 . S
O1559 Li1498 1.970 . S
O1559 Li1499 1.956 . S
O1559 C1534 1.325 . S
H1560 C1502 0.929 . S
H1561 C1503 0.930 . S
H1562 C1504 0.930 . S
H1563 C1505 0.930 . S
H1564 C1507 0.930 . S
H1565 C1509 0.929 . S
H1566 C1510 0.930 . S
H1567 C1511 0.930 . S
H1568 C1514 0.930 . S
H1569 C1517 0.929 . S
H1570 C1522 0.929 . S
H1571 C1523 0.930 . S
H1572 C1530 0.929 . S
H1573 C1531 0.930 . S
H1574 C1532 0.930 . S
H1575 C1533 0.930 . S
H1576 C1535 0.929 . S
H1577 C1536 0.930 . S
H1578 C1537 0.930 . S
H1579 C1538 0.930 . S
H1580 C1542 0.929 . S
H1581 C1544 0.930 . S
H1582 C1550 0.929 . S
H1583 C1551 0.930 . S
Li1584 N1601 1.990 . S
Li1584 O1644 1.956 . S
Li1584 O1645 1.970 . S
Li1584 O1646 1.961 . S
Li1585 N1609 1.990 . S
Li1585 O1644 1.970 . S
Li1585 O1645 1.956 . S
Li1585 O1647 1.961 . S
Li1586 N1631 1.990 . S
Li1586 O1644 1.961 . S
Li1586 O1646 1.956 . S
Li1586 O1647 1.970 . S
Li1587 N1637 1.990 . S
Li1587 O1645 1.961 . S
Li1587 O1646 1.970 . S
Li1587 O1647 1.956 . S
C1588 C1590 1.348 . S
C1588 C1591 1.356 . S
C1588 O1644 1.325 . S
N1589 C1592 1.314 . S
N1589 C1593 1.279 . S
C1590 C1588 1.348 . S
C1590 C1592 1.353 . S
C1590 H1648 0.929 . S
C1591 C1588 1.356 . S
C1591 C1593 1.358 . S
C1591 H1649 0.930 . S
C1592 N1589 1.314 . S
C1592 C1590 1.353 . S
C1592 H1650 0.930 . S
C1593 N1589 1.279 . S
C1593 C1591 1.358 . S
C1593 H1651 0.930 . S
C1594 C1597 1.348 . S
C1594 C1598 1.356 . S
C1594 O1645 1.325 . S
C1595 N1596 1.279 . S
C1595 C1598 1.358 . S
C1595 H1652 0.930 . S
N1596 C1595 1.279 . S
N1596 C1599 1.314 . S
C1597 C1594 1.348 . S
C1597 C1599 1.353 . S
C1597 H1653 0.929 . S
C1598 C1594 1.356 . S
C1598 C1595 1.358 . S
C1598 H1654 0.930 . S
C1599 N1596 1.314 . S
C1599 C1597 1.353 . S
C1599 H1655 0.930 . S
C1600 N1601 1.314 . S
C1600 C1605 1.353 . S
C1600 H1606 0.930 . S
N1601 Li1584 1.990 . S
N1601 C1600 1.314 . S
N1601 C1603 1.279 . S
C1602 C1603 1.358 . S
C1602 C1604 1.356 . S
C1602 H1656 0.930 . S
C1603 N1601 1.279 . S
C1603 C1602 1.358 . S
C1603 H1607 0.930 . S
C1604 C1602 1.356 . S
C1604 C1605 1.348 . S
C1605 C1600 1.353 . S
C1605 C1604 1.348 . S
C1605 H1657 0.929 . S
H1606 C1600 0.930 . S
H1607 C1603 0.930 . S
C1608 N1609 1.314 . S
C1608 C1610 1.353 . S
C1608 H1614 0.930 . S
N1609 Li1585 1.990 . S
N1609 C1608 1.314 . S
N1609 C1612 1.279 . S
C1610 C1608 1.353 . S
C1610 C1613 1.348 . S
C1610 H1658 0.929 . S
C1611 C1612 1.358 . S
C1611 C1613 1.356 . S
C1611 H1659 0.930 . S
C1612 N1609 1.279 . S
C1612 C1611 1.358 . S
C1612 H1615 0.930 . S
C1613 C1610 1.348 . S
C1613 C1611 1.356 . S
H1614 C1608 0.930 . S
H1615 C1612 0.930 . S
C1616 C1618 1.348 . S
C1616 C1619 1.356 . S
C1616 O1646 1.325 . S
N1617 C1620 1.314 . S
N1617 C1621 1.279 . S
C1618 C1616 1.348 . S
C1618 C1620 1.353 . S
C1618 H1660 0.929 . S
C1619 C1616 1.356 . S
C1619 C1621 1.358 . S
C1619 H1661 0.930 . S
C1620 N1617 1.314 . S
C1620 C1618 1.353 . S
C1620 H1662 0.930 . S
C1621 N1617 1.279 . S
C1621 C1619 1.358 . S
C1621 H1663 0.930 . S
C1622 C1623 1.348 . S
C1622 C1624 1.356 . S
C1622 O1647 1.325 . S
C1623 C1622 1.348 . S
C1623 C1625 1.353 . S
C1623 H1664 0.929 . S
C1624 C1622 1.356 . S
C1624 C1626 1.358 . S
C1624 H1665 0.930 . S
C1625 C1623 1.353 . S
C1625 N1627 1.314 . S
C1625 H1666 0.930 . S
C1626 C1624 1.358 . S
C1626 N1627 1.279 . S
C1626 H1667 0.930 . S
N1627 C1625 1.314 . S
N1627 C1626 1.279 . S
C1628 C1630 1.353 . S
C1628 N1631 1.314 . S
C1628 H1634 0.930 . S
C1629 N1631 1.279 . S
C1629 C1632 1.358 . S
C1629 H1635 0.930 . S
C1630 C1628 1.353 . S
C1630 C1633 1.348 . S
C1630 H1668 0.929 . S
N1631 Li1586 1.990 . S
N1631 C1628 1.314 . S
N1631 C1629 1.279 . S
C1632 C1629 1.358 . S
C1632 C1633 1.356 . S
C1632 H1669 0.930 . S
C1633 C1630 1.348 . S
C1633 C1632 1.356 . S
H1634 C1628 0.930 . S
H1635 C1629 0.930 . S
C1636 N1637 1.314 . S
C1636 C1638 1.353 . S
C1636 H1642 0.930 . S
N1637 Li1587 1.990 . S
N1637 C1636 1.314 . S
N1637 C1640 1.279 . S
C1638 C1636 1.353 . S
C1638 C1641 1.348 . S
C1638 H1670 0.929 . S
C1639 C1640 1.358 . S
C1639 C1641 1.356 . S
C1639 H1671 0.930 . S
C1640 N1637 1.279 . S
C1640 C1639 1.358 . S
C1640 H1643 0.930 . S
C1641 C1638 1.348 . S
C1641 C1639 1.356 . S
H1642 C1636 0.930 . S
H1643 C1640 0.930 . S
O1644 Li1584 1.956 . S
O1644 Li1585 1.970 . S
O1644 Li1586 1.961 . S
O1644 C1588 1.325 . S
O1645 Li1584 1.970 . S
O1645 Li1585 1.956 . S
O1645 Li1587 1.961 . S
O1645 C1594 1.325 . S
O1646 Li1584 1.961 . S
O1646 Li1586 1.956 . S
O1646 Li1587 1.970 . S
O1646 C1616 1.325 . S
O1647 Li1585 1.961 . S
O1647 Li1586 1.970 . S
O1647 Li1587 1.956 . S
O1647 C1622 1.325 . S
H1648 C1590 0.929 . S
H1649 C1591 0.930 . S
H1650 C1592 0.930 . S
H1651 C1593 0.930 . S
H1652 C1595 0.930 . S
H1653 C1597 0.929 . S
H1654 C1598 0.930 . S
H1655 C1599 0.930 . S
H1656 C1602 0.930 . S
H1657 C1605 0.929 . S
H1658 C1610 0.929 . S
H1659 C1611 0.930 . S
H1660 C1618 0.929 . S
H1661 C1619 0.930 . S
H1662 C1620 0.930 . S
H1663 C1621 0.930 . S
H1664 C1623 0.929 . S
H1665 C1624 0.930 . S
H1666 C1625 0.930 . S
H1667 C1626 0.930 . S
H1668 C1630 0.929 . S
H1669 C1632 0.930 . S
H1670 C1638 0.929 . S
H1671 C1639 0.930 . S
Li1672 N1689 1.990 . S
Li1672 O1732 1.956 . S
Li1672 O1733 1.970 . S
Li1672 O1734 1.961 . S
Li1673 N1697 1.990 . S
Li1673 O1732 1.970 . S
Li1673 O1733 1.956 . S
Li1673 O1735 1.961 . S
Li1674 N1719 1.990 . S
Li1674 O1732 1.961 . S
Li1674 O1734 1.956 . S
Li1674 O1735 1.970 . S
Li1675 N1725 1.990 . S
Li1675 O1733 1.961 . S
Li1675 O1734 1.970 . S
Li1675 O1735 1.956 . S
C1676 C1678 1.348 . S
C1676 C1679 1.356 . S
C1676 O1732 1.325 . S
N1677 C1680 1.314 . S
N1677 C1681 1.279 . S
C1678 C1676 1.348 . S
C1678 C1680 1.353 . S
C1678 H1736 0.929 . S
C1679 C1676 1.356 . S
C1679 C1681 1.358 . S
C1679 H1737 0.930 . S
C1680 N1677 1.314 . S
C1680 C1678 1.353 . S
C1680 H1738 0.930 . S
C1681 N1677 1.279 . S
C1681 C1679 1.358 . S
C1681 H1739 0.930 . S
C1682 C1685 1.348 . S
C1682 C1686 1.356 . S
C1682 O1733 1.325 . S
C1683 N1684 1.279 . S
C1683 C1686 1.358 . S
C1683 H1740 0.930 . S
N1684 C1683 1.279 . S
N1684 C1687 1.314 . S
C1685 C1682 1.348 . S
C1685 C1687 1.353 . S
C1685 H1741 0.929 . S
C1686 C1682 1.356 . S
C1686 C1683 1.358 . S
C1686 H1742 0.930 . S
C1687 N1684 1.314 . S
C1687 C1685 1.353 . S
C1687 H1743 0.930 . S
C1688 N1689 1.314 . S
C1688 C1693 1.353 . S
C1688 H1694 0.930 . S
N1689 Li1672 1.990 . S
N1689 C1688 1.314 . S
N1689 C1691 1.279 . S
C1690 C1691 1.358 . S
C1690 C1692 1.356 . S
C1690 H1744 0.930 . S
C1691 N1689 1.279 . S
C1691 C1690 1.358 . S
C1691 H1695 0.930 . S
C1692 C1690 1.356 . S
C1692 C1693 1.348 . S
C1693 C1688 1.353 . S
C1693 C1692 1.348 . S
C1693 H1745 0.929 . S
H1694 C1688 0.930 . S
H1695 C1691 0.930 . S
C1696 N1697 1.314 . S
C1696 C1698 1.353 . S
C1696 H1702 0.930 . S
N1697 Li1673 1.990 . S
N1697 C1696 1.314 . S
N1697 C1700 1.279 . S
C1698 C1696 1.353 . S
C1698 C1701 1.348 . S
C1698 H1746 0.929 . S
C1699 C1700 1.358 . S
C1699 C1701 1.356 . S
C1699 H1747 0.930 . S
C1700 N1697 1.279 . S
C1700 C1699 1.358 . S
C1700 H1703 0.930 . S
C1701 C1698 1.348 . S
C1701 C1699 1.356 . S
H1702 C1696 0.930 . S
H1703 C1700 0.930 . S
C1704 C1706 1.348 . S
C1704 C1707 1.356 . S
C1704 O1734 1.325 . S
N1705 C1708 1.314 . S
N1705 C1709 1.279 1_565 S
C1706 C1704 1.348 . S
C1706 C1708 1.353 1_545 S
C1706 H1748 0.929 . S
C1707 C1704 1.356 . S
C1707 C1709 1.358 . S
C1707 H1749 0.930 . S
C1708 N1705 1.314 . S
C1708 C1706 1.353 1_565 S
C1708 H1750 0.930 . S
C1709 N1705 1.279 1_545 S
C1709 C1707 1.358 . S
C1709 H1751 0.930 . S
C1710 C1711 1.348 . S
C1710 C1712 1.356 . S
C1710 O1735 1.325 . S
C1711 C1710 1.348 . S
C1711 C1713 1.353 . S
C1711 H1752 0.929 . S
C1712 C1710 1.356 . S
C1712 C1714 1.358 . S
C1712 H1753 0.930 . S
C1713 C1711 1.353 . S
C1713 N1715 1.314 . S
C1713 H1754 0.930 . S
C1714 C1712 1.358 . S
C1714 N1715 1.279 . S
C1714 H1755 0.930 . S
N1715 C1713 1.314 . S
N1715 C1714 1.279 . S
C1716 C1718 1.353 . S
C1716 N1719 1.314 . S
C1716 H1722 0.930 . S
C1717 N1719 1.279 . S
C1717 C1720 1.358 . S
C1717 H1723 0.930 . S
C1718 C1716 1.353 . S
C1718 C1721 1.348 . S
C1718 H1756 0.929 . S
N1719 Li1674 1.990 . S
N1719 C1716 1.314 . S
N1719 C1717 1.279 . S
C1720 C1717 1.358 . S
C1720 C1721 1.356 . S
C1720 H1757 0.930 . S
C1721 C1718 1.348 . S
C1721 C1720 1.356 . S
H1722 C1716 0.930 . S
H1723 C1717 0.930 . S
C1724 N1725 1.314 . S
C1724 C1726 1.353 . S
C1724 H1730 0.930 . S
N1725 Li1675 1.990 . S
N1725 C1724 1.314 . S
N1725 C1728 1.279 . S
C1726 C1724 1.353 . S
C1726 C1729 1.348 1_545 S
C1726 H1758 0.936 . S
C1727 C1728 1.358 . S
C1727 C1729 1.356 1_545 S
C1727 H1759 0.930 . S
C1728 N1725 1.279 . S
C1728 C1727 1.358 . S
C1728 H1731 0.930 . S
C1729 C1726 1.348 1_565 S
C1729 C1727 1.356 1_565 S
H1730 C1724 0.930 . S
H1731 C1728 0.930 . S
O1732 Li1672 1.956 . S
O1732 Li1673 1.970 . S
O1732 Li1674 1.961 . S
O1732 C1676 1.325 . S
O1733 Li1672 1.970 . S
O1733 Li1673 1.956 . S
O1733 Li1675 1.961 . S
O1733 C1682 1.325 . S
O1734 Li1672 1.961 . S
O1734 Li1674 1.956 . S
O1734 Li1675 1.970 . S
O1734 C1704 1.325 . S
O1735 Li1673 1.961 . S
O1735 Li1674 1.970 . S
O1735 Li1675 1.956 . S
O1735 C1710 1.325 . S
H1736 C1678 0.929 . S
H1737 C1679 0.930 . S
H1738 C1680 0.930 . S
H1739 C1681 0.930 . S
H1740 C1683 0.930 . S
H1741 C1685 0.929 . S
H1742 C1686 0.930 . S
H1743 C1687 0.930 . S
H1744 C1690 0.930 . S
H1745 C1693 0.929 . S
H1746 C1698 0.929 . S
H1747 C1699 0.930 . S
H1748 C1706 0.929 . S
H1749 C1707 0.930 . S
H1750 C1708 0.930 . S
H1751 C1709 0.930 . S
H1752 C1711 0.929 . S
H1753 C1712 0.930 . S
H1754 C1713 0.930 . S
H1755 C1714 0.930 . S
H1756 C1718 0.929 . S
H1757 C1720 0.930 . S
H1758 C1726 0.936 . S
H1759 C1727 0.930 . S
Li1760 N1777 1.990 . S
Li1760 O1820 1.956 . S
Li1760 O1821 1.970 . S
Li1760 O1822 1.961 . S
Li1761 N1785 1.990 . S
Li1761 O1820 1.970 . S
Li1761 O1821 1.956 . S
Li1761 O1823 1.961 1_554 S
Li1762 N1807 1.990 1_554 S
Li1762 O1820 1.961 . S
Li1762 O1822 1.956 . S
Li1762 O1823 1.970 1_554 S
Li1763 N1813 1.990 . S
Li1763 O1821 1.961 . S
Li1763 O1822 1.970 . S
Li1763 O1823 1.956 1_554 S
C1764 C1766 1.348 . S
C1764 C1767 1.356 . S
C1764 O1820 1.325 . S
N1765 C1768 1.314 . S
N1765 C1769 1.279 . S
C1766 C1764 1.348 . S
C1766 C1768 1.353 . S
C1766 H1824 0.929 . S
C1767 C1764 1.356 . S
C1767 C1769 1.358 . S
C1767 H1825 0.930 . S
C1768 N1765 1.314 . S
C1768 C1766 1.353 . S
C1768 H1826 0.930 . S
C1769 N1765 1.279 . S
C1769 C1767 1.358 . S
C1769 H1827 0.930 . S
C1770 C1773 1.348 . S
C1770 C1774 1.356 . S
C1770 O1821 1.325 . S
C1771 N1772 1.279 . S
C1771 C1774 1.358 . S
C1771 H1828 0.930 . S
N1772 C1771 1.279 . S
N1772 C1775 1.314 . S
C1773 C1770 1.348 . S
C1773 C1775 1.353 . S
C1773 H1829 0.929 . S
C1774 C1770 1.356 . S
C1774 C1771 1.358 . S
C1774 H1830 0.930 . S
C1775 N1772 1.314 . S
C1775 C1773 1.353 . S
C1775 H1831 0.930 . S
C1776 N1777 1.314 . S
C1776 C1781 1.353 . S
C1776 H1782 0.930 . S
N1777 Li1760 1.990 . S
N1777 C1776 1.314 . S
N1777 C1779 1.279 . S
C1778 C1779 1.358 . S
C1778 C1780 1.356 . S
C1778 H1832 0.930 . S
C1779 N1777 1.279 . S
C1779 C1778 1.358 . S
C1779 H1783 0.930 . S
C1780 C1778 1.356 . S
C1780 C1781 1.348 . S
C1781 C1776 1.353 . S
C1781 C1780 1.348 . S
C1781 H1833 0.929 . S
H1782 C1776 0.930 . S
H1783 C1779 0.930 . S
C1784 N1785 1.314 . S
C1784 C1786 1.353 . S
C1784 H1790 0.930 1_554 S
N1785 Li1761 1.990 . S
N1785 C1784 1.314 . S
N1785 C1788 1.279 . S
C1786 C1784 1.353 . S
C1786 C1789 1.348 . S
C1786 H1834 0.929 1_554 S
C1787 C1788 1.358 . S
C1787 C1789 1.356 . S
C1787 H1835 0.930 . S
C1788 N1785 1.279 . S
C1788 C1787 1.358 . S
C1788 H1791 0.930 . S
C1789 C1786 1.348 . S
C1789 C1787 1.356 . S
H1790 C1784 0.930 1_556 S
H1791 C1788 0.930 . S
C1792 C1794 1.348 . S
C1792 C1795 1.356 . S
C1792 O1822 1.325 . S
N1793 C1796 1.314 . S
N1793 C1797 1.279 . S
C1794 C1792 1.348 . S
C1794 C1796 1.353 . S
C1794 H1836 0.929 . S
C1795 C1792 1.356 . S
C1795 C1797 1.358 . S
C1795 H1837 0.930 . S
C1796 N1793 1.314 . S
C1796 C1794 1.353 . S
C1796 H1838 0.930 . S
C1797 N1793 1.279 . S
C1797 C1795 1.358 . S
C1797 H1839 0.930 . S
C1798 C1799 1.348 . S
C1798 C1800 1.356 . S
C1798 O1823 1.325 . S
C1799 C1798 1.348 . S
C1799 C1801 1.353 . S
C1799 H1840 0.929 . S
C1800 C1798 1.356 . S
C1800 C1802 1.358 . S
C1800 H1841 0.930 . S
C1801 C1799 1.353 . S
C1801 N1803 1.314 . S
C1801 H1842 0.930 . S
C1802 C1800 1.358 . S
C1802 N1803 1.279 . S
C1802 H1843 0.930 . S
N1803 C1801 1.314 . S
N1803 C1802 1.279 . S
C1804 C1806 1.353 . S
C1804 N1807 1.314 . S
C1804 H1810 0.930 . S
C1805 N1807 1.279 . S
C1805 C1808 1.358 . S
C1805 H1811 0.930 . S
C1806 C1804 1.353 . S
C1806 C1809 1.348 . S
C1806 H1844 0.929 . S
N1807 Li1762 1.990 1_556 S
N1807 C1804 1.314 . S
N1807 C1805 1.279 . S
C1808 C1805 1.358 . S
C1808 C1809 1.356 . S
C1808 H1845 0.930 . S
C1809 C1806 1.348 . S
C1809 C1808 1.356 . S
H1810 C1804 0.930 . S
H1811 C1805 0.930 . S
C1812 N1813 1.314 . S
C1812 C1814 1.353 . S
C1812 H1818 0.930 . S
N1813 Li1763 1.990 . S
N1813 C1812 1.314 . S
N1813 C1816 1.279 1_554 S
C1814 C1812 1.353 . S
C1814 C1817 1.348 . S
C1814 H1846 0.929 . S
C1815 C1816 1.358 . S
C1815 C1817 1.356 1_556 S
C1815 H1847 0.930 . S
C1816 N1813 1.279 1_556 S
C1816 C1815 1.358 . S
C1816 H1819 0.930 . S
C1817 C1814 1.348 . S
C1817 C1815 1.356 1_554 S
H1818 C1812 0.930 . S
H1819 C1816 0.930 . S
O1820 Li1760 1.956 . S
O1820 Li1761 1.970 . S
O1820 Li1762 1.961 . S
O1820 C1764 1.325 . S
O1821 Li1760 1.970 . S
O1821 Li1761 1.956 . S
O1821 Li1763 1.961 . S
O1821 C1770 1.325 . S
O1822 Li1760 1.961 . S
O1822 Li1762 1.956 . S
O1822 Li1763 1.970 . S
O1822 C1792 1.325 . S
O1823 Li1761 1.961 1_556 S
O1823 Li1762 1.970 1_556 S
O1823 Li1763 1.956 1_556 S
O1823 C1798 1.325 . S
H1824 C1766 0.929 . S
H1825 C1767 0.930 . S
H1826 C1768 0.930 . S
H1827 C1769 0.930 . S
H1828 C1771 0.930 . S
H1829 C1773 0.929 . S
H1830 C1774 0.930 . S
H1831 C1775 0.930 . S
H1832 C1778 0.930 . S
H1833 C1781 0.929 . S
H1834 C1786 0.929 1_556 S
H1835 C1787 0.930 . S
H1836 C1794 0.929 . S
H1837 C1795 0.930 . S
H1838 C1796 0.930 . S
H1839 C1797 0.930 . S
H1840 C1799 0.929 . S
H1841 C1800 0.930 . S
H1842 C1801 0.930 . S
H1843 C1802 0.930 . S
H1844 C1806 0.929 . S
H1845 C1808 0.930 . S
H1846 C1814 0.929 . S
H1847 C1815 0.930 . S
Li1848 N1865 1.990 . S
Li1848 O1908 1.956 . S
Li1848 O1909 1.970 . S
Li1848 O1910 1.961 . S
Li1849 N1873 1.990 . S
Li1849 O1908 1.970 . S
Li1849 O1909 1.956 . S
Li1849 O1911 1.961 . S
Li1850 N1895 1.990 . S
Li1850 O1908 1.961 . S
Li1850 O1910 1.956 . S
Li1850 O1911 1.970 . S
Li1851 N1901 1.990 . S
Li1851 O1909 1.961 . S
Li1851 O1910 1.970 . S
Li1851 O1911 1.956 . S
C1852 C1854 1.348 . S
C1852 C1855 1.356 . S
C1852 O1908 1.325 . S
N1853 C1856 1.314 . S
N1853 C1857 1.279 . S
C1854 C1852 1.348 . S
C1854 C1856 1.353 . S
C1854 H1912 0.929 . S
C1855 C1852 1.356 . S
C1855 C1857 1.358 . S
C1855 H1913 0.930 . S
C1856 N1853 1.314 . S
C1856 C1854 1.353 . S
C1856 H1914 0.930 . S
C1857 N1853 1.279 . S
C1857 C1855 1.358 . S
C1857 H1915 0.930 . S
C1858 C1861 1.348 . S
C1858 C1862 1.356 . S
C1858 O1909 1.325 . S
C1859 N1860 1.279 . S
C1859 C1862 1.358 . S
C1859 H1916 0.930 . S
N1860 C1859 1.279 . S
N1860 C1863 1.314 . S
C1861 C1858 1.348 . S
C1861 C1863 1.353 . S
C1861 H1917 0.929 . S
C1862 C1858 1.356 . S
C1862 C1859 1.358 . S
C1862 H1918 0.930 . S
C1863 N1860 1.314 . S
C1863 C1861 1.353 . S
C1863 H1919 0.930 . S
C1864 N1865 1.314 . S
C1864 C1869 1.353 . S
C1864 H1870 0.930 . S
N1865 Li1848 1.990 . S
N1865 C1864 1.314 . S
N1865 C1867 1.279 . S
C1866 C1867 1.358 . S
C1866 C1868 1.356 . S
C1866 H1920 0.930 . S
C1867 N1865 1.279 . S
C1867 C1866 1.358 . S
C1867 H1871 0.930 . S
C1868 C1866 1.356 . S
C1868 C1869 1.348 . S
C1869 C1864 1.353 . S
C1869 C1868 1.348 . S
C1869 H1921 0.929 . S
H1870 C1864 0.930 . S
H1871 C1867 0.930 . S
C1872 N1873 1.314 . S
C1872 C1874 1.353 . S
C1872 H1878 0.930 . S
N1873 Li1849 1.990 . S
N1873 C1872 1.314 . S
N1873 C1876 1.279 . S
C1874 C1872 1.353 . S
C1874 C1877 1.348 . S
C1874 H1922 0.929 . S
C1875 C1876 1.358 . S
C1875 C1877 1.356 . S
C1875 H1923 0.930 . S
C1876 N1873 1.279 . S
C1876 C1875 1.358 . S
C1876 H1879 0.930 . S
C1877 C1874 1.348 . S
C1877 C1875 1.356 . S
H1878 C1872 0.930 . S
H1879 C1876 0.930 . S
C1880 C1882 1.348 . S
C1880 C1883 1.356 . S
C1880 O1910 1.325 . S
N1881 C1884 1.314 . S
N1881 C1885 1.279 . S
C1882 C1880 1.348 . S
C1882 C1884 1.353 . S
C1882 H1924 0.929 . S
C1883 C1880 1.356 . S
C1883 C1885 1.358 . S
C1883 H1925 0.930 . S
C1884 N1881 1.314 . S
C1884 C1882 1.353 . S
C1884 H1926 0.930 . S
C1885 N1881 1.279 . S
C1885 C1883 1.358 . S
C1885 H1927 0.930 . S
C1886 C1887 1.348 . S
C1886 C1888 1.356 . S
C1886 O1911 1.325 . S
C1887 C1886 1.348 . S
C1887 C1889 1.353 . S
C1887 H1928 0.929 . S
C1888 C1886 1.356 . S
C1888 C1890 1.358 . S
C1888 H1929 0.930 . S
C1889 C1887 1.353 . S
C1889 N1891 1.314 . S
C1889 H1930 0.930 . S
C1890 C1888 1.358 . S
C1890 N1891 1.279 . S
C1890 H1931 0.930 . S
N1891 C1889 1.314 . S
N1891 C1890 1.279 . S
C1892 C1894 1.353 . S
C1892 N1895 1.314 . S
C1892 H1898 0.930 . S
C1893 N1895 1.279 . S
C1893 C1896 1.358 . S
C1893 H1899 0.930 . S
C1894 C1892 1.353 . S
C1894 C1897 1.348 . S
C1894 H1932 0.929 . S
N1895 Li1850 1.990 . S
N1895 C1892 1.314 . S
N1895 C1893 1.279 . S
C1896 C1893 1.358 . S
C1896 C1897 1.356 . S
C1896 H1933 0.930 . S
C1897 C1894 1.348 . S
C1897 C1896 1.356 . S
H1898 C1892 0.930 . S
H1899 C1893 0.930 . S
C1900 N1901 1.314 . S
C1900 C1902 1.353 . S
C1900 H1906 0.930 . S
N1901 Li1851 1.990 . S
N1901 C1900 1.314 . S
N1901 C1904 1.279 . S
C1902 C1900 1.353 . S
C1902 C1905 1.348 . S
C1902 H1934 0.929 . S
C1903 C1904 1.358 . S
C1903 C1905 1.356 . S
C1903 H1935 0.930 . S
C1904 N1901 1.279 . S
C1904 C1903 1.358 . S
C1904 H1907 0.930 . S
C1905 C1902 1.348 . S
C1905 C1903 1.356 . S
H1906 C1900 0.930 . S
H1907 C1904 0.930 . S
O1908 Li1848 1.956 . S
O1908 Li1849 1.970 . S
O1908 Li1850 1.961 . S
O1908 C1852 1.325 . S
O1909 Li1848 1.970 . S
O1909 Li1849 1.956 . S
O1909 Li1851 1.961 . S
O1909 C1858 1.325 . S
O1910 Li1848 1.961 . S
O1910 Li1850 1.956 . S
O1910 Li1851 1.970 . S
O1910 C1880 1.325 . S
O1911 Li1849 1.961 . S
O1911 Li1850 1.970 . S
O1911 Li1851 1.956 . S
O1911 C1886 1.325 . S
H1912 C1854 0.929 . S
H1913 C1855 0.930 . S
H1914 C1856 0.930 . S
H1915 C1857 0.930 . S
H1916 C1859 0.930 . S
H1917 C1861 0.929 . S
H1918 C1862 0.930 . S
H1919 C1863 0.930 . S
H1920 C1866 0.930 . S
H1921 C1869 0.929 . S
H1922 C1874 0.929 . S
H1923 C1875 0.930 . S
H1924 C1882 0.929 . S
H1925 C1883 0.930 . S
H1926 C1884 0.930 . S
H1927 C1885 0.930 . S
H1928 C1887 0.929 . S
H1929 C1888 0.930 . S
H1930 C1889 0.930 . S
H1931 C1890 0.930 . S
H1932 C1894 0.929 . S
H1933 C1896 0.930 . S
H1934 C1902 0.929 . S
H1935 C1903 0.930 . S
Li1936 N1953 1.990 . S
Li1936 O1996 1.956 . S
Li1936 O1997 1.970 . S
Li1936 O1998 1.961 . S
Li1937 N1961 1.990 . S
Li1937 O1996 1.970 . S
Li1937 O1997 1.956 . S
Li1937 O1999 1.961 . S
Li1938 N1983 1.990 . S
Li1938 O1996 1.961 . S
Li1938 O1998 1.956 . S
Li1938 O1999 1.970 . S
Li1939 N1989 1.990 . S
Li1939 O1997 1.961 . S
Li1939 O1998 1.970 . S
Li1939 O1999 1.956 . S
C1940 C1942 1.348 . S
C1940 C1943 1.356 . S
C1940 O1996 1.325 . S
N1941 C1944 1.314 . S
N1941 C1945 1.279 . S
C1942 C1940 1.348 . S
C1942 C1944 1.353 . S
C1942 H2000 0.929 . S
C1943 C1940 1.356 . S
C1943 C1945 1.358 . S
C1943 H2001 0.930 . S
C1944 N1941 1.314 . S
C1944 C1942 1.353 . S
C1944 H2002 0.930 . S
C1945 N1941 1.279 . S
C1945 C1943 1.358 . S
C1945 H2003 0.930 . S
C1946 C1949 1.348 . S
C1946 C1950 1.356 . S
C1946 O1997 1.325 . S
C1947 N1948 1.279 . S
C1947 C1950 1.358 . S
C1947 H2004 0.930 . S
N1948 C1947 1.279 . S
N1948 C1951 1.314 . S
C1949 C1946 1.348 . S
C1949 C1951 1.353 . S
C1949 H2005 0.929 . S
C1950 C1946 1.356 . S
C1950 C1947 1.358 . S
C1950 H2006 0.930 . S
C1951 N1948 1.314 . S
C1951 C1949 1.353 . S
C1951 H2007 0.930 . S
C1952 N1953 1.314 . S
C1952 C1957 1.353 . S
C1952 H1958 0.930 . S
N1953 Li1936 1.990 . S
N1953 C1952 1.314 . S
N1953 C1955 1.279 . S
C1954 C1955 1.358 . S
C1954 C1956 1.356 . S
C1954 H2008 0.930 . S
C1955 N1953 1.279 . S
C1955 C1954 1.358 . S
C1955 H1959 0.930 . S
C1956 C1954 1.356 . S
C1956 C1957 1.348 . S
C1957 C1952 1.353 . S
C1957 C1956 1.348 . S
C1957 H2009 0.929 . S
H1958 C1952 0.930 . S
H1959 C1955 0.930 . S
C1960 N1961 1.314 . S
C1960 C1962 1.353 . S
C1960 H1966 0.930 . S
N1961 Li1937 1.990 . S
N1961 C1960 1.314 . S
N1961 C1964 1.279 . S
C1962 C1960 1.353 . S
C1962 C1965 1.348 . S
C1962 H2010 0.929 . S
C1963 C1964 1.358 . S
C1963 C1965 1.356 . S
C1963 H2011 0.930 . S
C1964 N1961 1.279 . S
C1964 C1963 1.358 . S
C1964 H1967 0.930 . S
C1965 C1962 1.348 . S
C1965 C1963 1.356 . S
H1966 C1960 0.930 . S
H1967 C1964 0.930 . S
C1968 C1970 1.348 . S
C1968 C1971 1.356 . S
C1968 O1998 1.325 . S
N1969 C1972 1.314 . S
N1969 C1973 1.279 . S
C1970 C1968 1.348 . S
C1970 C1972 1.353 . S
C1970 H2012 0.929 . S
C1971 C1968 1.356 . S
C1971 C1973 1.358 . S
C1971 H2013 0.930 . S
C1972 N1969 1.314 . S
C1972 C1970 1.353 . S
C1972 H2014 0.930 . S
C1973 N1969 1.279 . S
C1973 C1971 1.358 . S
C1973 H2015 0.930 . S
C1974 C1975 1.348 . S
C1974 C1976 1.356 . S
C1974 O1999 1.325 . S
C1975 C1974 1.348 . S
C1975 C1977 1.353 . S
C1975 H2016 0.929 . S
C1976 C1974 1.356 . S
C1976 C1978 1.358 . S
C1976 H2017 0.930 . S
C1977 C1975 1.353 . S
C1977 N1979 1.314 . S
C1977 H2018 0.930 . S
C1978 C1976 1.358 . S
C1978 N1979 1.279 . S
C1978 H2019 0.930 . S
N1979 C1977 1.314 . S
N1979 C1978 1.279 . S
C1980 C1982 1.353 . S
C1980 N1983 1.314 . S
C1980 H1986 0.930 . S
C1981 N1983 1.279 . S
C1981 C1984 1.358 . S
C1981 H1987 0.930 . S
C1982 C1980 1.353 . S
C1982 C1985 1.348 . S
C1982 H2020 0.929 . S
N1983 Li1938 1.990 . S
N1983 C1980 1.314 . S
N1983 C1981 1.279 . S
C1984 C1981 1.358 . S
C1984 C1985 1.356 . S
C1984 H2021 0.930 . S
C1985 C1982 1.348 . S
C1985 C1984 1.356 . S
H1986 C1980 0.930 . S
H1987 C1981 0.930 . S
C1988 N1989 1.314 . S
C1988 C1990 1.353 . S
C1988 H1994 0.930 . S
N1989 Li1939 1.990 . S
N1989 C1988 1.314 . S
N1989 C1992 1.279 . S
C1990 C1988 1.353 . S
C1990 C1993 1.348 . S
C1990 H2022 0.929 . S
C1991 C1992 1.358 . S
C1991 C1993 1.356 . S
C1991 H2023 0.930 . S
C1992 N1989 1.279 . S
C1992 C1991 1.358 . S
C1992 H1995 0.930 . S
C1993 C1990 1.348 . S
C1993 C1991 1.356 . S
H1994 C1988 0.930 . S
H1995 C1992 0.930 . S
O1996 Li1936 1.956 . S
O1996 Li1937 1.970 . S
O1996 Li1938 1.961 . S
O1996 C1940 1.325 . S
O1997 Li1936 1.970 . S
O1997 Li1937 1.956 . S
O1997 Li1939 1.961 . S
O1997 C1946 1.325 . S
O1998 Li1936 1.961 . S
O1998 Li1938 1.956 . S
O1998 Li1939 1.970 . S
O1998 C1968 1.325 . S
O1999 Li1937 1.961 . S
O1999 Li1938 1.970 . S
O1999 Li1939 1.956 . S
O1999 C1974 1.325 . S
H2000 C1942 0.929 . S
H2001 C1943 0.930 . S
H2002 C1944 0.930 . S
H2003 C1945 0.930 . S
H2004 C1947 0.930 . S
H2005 C1949 0.929 . S
H2006 C1950 0.930 . S
H2007 C1951 0.930 . S
H2008 C1954 0.930 . S
H2009 C1957 0.929 . S
H2010 C1962 0.929 . S
H2011 C1963 0.930 . S
H2012 C1970 0.929 . S
H2013 C1971 0.930 . S
H2014 C1972 0.930 . S
H2015 C1973 0.930 . S
H2016 C1975 0.929 . S
H2017 C1976 0.930 . S
H2018 C1977 0.930 . S
H2019 C1978 0.930 . S
H2020 C1982 0.929 . S
H2021 C1984 0.930 . S
H2022 C1990 0.929 . S
H2023 C1991 0.930 . S
Li2024 N2041 1.990 . S
Li2024 O2084 1.956 . S
Li2024 O2085 1.970 . S
Li2024 O2086 1.961 . S
Li2025 N2049 1.990 . S
Li2025 O2084 1.970 . S
Li2025 O2085 1.956 . S
Li2025 O2087 1.961 . S
Li2026 N2071 1.990 . S
Li2026 O2084 1.961 . S
Li2026 O2086 1.956 . S
Li2026 O2087 1.970 . S
Li2027 N2077 1.990 . S
Li2027 O2085 1.961 . S
Li2027 O2086 1.970 . S
Li2027 O2087 1.956 . S
C2028 C2030 1.348 . S
C2028 C2031 1.356 . S
C2028 O2084 1.325 . S
N2029 C2032 1.314 . S
N2029 C2033 1.279 . S
C2030 C2028 1.348 . S
C2030 C2032 1.353 . S
C2030 H2088 0.929 . S
C2031 C2028 1.356 . S
C2031 C2033 1.358 . S
C2031 H2089 0.930 . S
C2032 N2029 1.314 . S
C2032 C2030 1.353 . S
C2032 H2090 0.930 . S
C2033 N2029 1.279 . S
C2033 C2031 1.358 . S
C2033 H2091 0.930 . S
C2034 C2037 1.348 . S
C2034 C2038 1.356 . S
C2034 O2085 1.325 . S
C2035 N2036 1.279 . S
C2035 C2038 1.358 . S
C2035 H2092 0.930 . S
N2036 C2035 1.279 . S
N2036 C2039 1.314 . S
C2037 C2034 1.348 . S
C2037 C2039 1.353 . S
C2037 H2093 0.929 . S
C2038 C2034 1.356 . S
C2038 C2035 1.358 . S
C2038 H2094 0.930 . S
C2039 N2036 1.314 . S
C2039 C2037 1.353 . S
C2039 H2095 0.930 . S
C2040 N2041 1.314 . S
C2040 C2045 1.353 . S
C2040 H2046 0.930 . S
N2041 Li2024 1.990 . S
N2041 C2040 1.314 . S
N2041 C2043 1.279 . S
C2042 C2043 1.358 . S
C2042 C2044 1.356 . S
C2042 H2096 0.930 . S
C2043 N2041 1.279 . S
C2043 C2042 1.358 . S
C2043 H2047 0.930 . S
C2044 C2042 1.356 . S
C2044 C2045 1.348 . S
C2045 C2040 1.353 . S
C2045 C2044 1.348 . S
C2045 H2097 0.929 . S
H2046 C2040 0.930 . S
H2047 C2043 0.930 . S
C2048 N2049 1.314 . S
C2048 C2050 1.353 . S
C2048 H2054 0.930 . S
N2049 Li2025 1.990 . S
N2049 C2048 1.314 . S
N2049 C2052 1.279 . S
C2050 C2048 1.353 . S
C2050 C2053 1.348 . S
C2050 H2098 0.929 . S
C2051 C2052 1.358 . S
C2051 C2053 1.356 . S
C2051 H2099 0.930 . S
C2052 N2049 1.279 . S
C2052 C2051 1.358 . S
C2052 H2055 0.930 . S
C2053 C2050 1.348 . S
C2053 C2051 1.356 . S
H2054 C2048 0.930 . S
H2055 C2052 0.930 . S
C2056 C2058 1.348 . S
C2056 C2059 1.356 . S
C2056 O2086 1.325 . S
N2057 C2060 1.314 . S
N2057 C2061 1.279 . S
C2058 C2056 1.348 . S
C2058 C2060 1.353 . S
C2058 H2100 0.929 . S
C2059 C2056 1.356 . S
C2059 C2061 1.358 . S
C2059 H2101 0.930 . S
C2060 N2057 1.314 . S
C2060 C2058 1.353 . S
C2060 H2102 0.930 . S
C2061 N2057 1.279 . S
C2061 C2059 1.358 . S
C2061 H2103 0.930 . S
C2062 C2063 1.348 . S
C2062 C2064 1.356 . S
C2062 O2087 1.325 . S
C2063 C2062 1.348 . S
C2063 C2065 1.353 . S
C2063 H2104 0.929 . S
C2064 C2062 1.356 . S
C2064 C2066 1.358 . S
C2064 H2105 0.930 . S
C2065 C2063 1.353 . S
C2065 N2067 1.314 . S
C2065 H2106 0.930 . S
C2066 C2064 1.358 . S
C2066 N2067 1.279 . S
C2066 H2107 0.930 . S
N2067 C2065 1.314 . S
N2067 C2066 1.279 . S
C2068 C2070 1.353 . S
C2068 N2071 1.314 . S
C2068 H2074 0.930 . S
C2069 N2071 1.279 . S
C2069 C2072 1.358 . S
C2069 H2075 0.930 . S
C2070 C2068 1.353 . S
C2070 C2073 1.348 . S
C2070 H2108 0.929 . S
N2071 Li2026 1.990 . S
N2071 C2068 1.314 . S
N2071 C2069 1.279 . S
C2072 C2069 1.358 . S
C2072 C2073 1.356 . S
C2072 H2109 0.930 . S
C2073 C2070 1.348 . S
C2073 C2072 1.356 . S
H2074 C2068 0.930 . S
H2075 C2069 0.930 . S
C2076 N2077 1.314 . S
C2076 C2078 1.353 . S
C2076 H2082 0.930 . S
N2077 Li2027 1.990 . S
N2077 C2076 1.314 . S
N2077 C2080 1.279 . S
C2078 C2076 1.353 . S
C2078 C2081 1.348 . S
C2078 H2110 0.929 . S
C2079 C2080 1.358 . S
C2079 C2081 1.356 . S
C2079 H2111 0.930 . S
C2080 N2077 1.279 . S
C2080 C2079 1.358 . S
C2080 H2083 0.930 . S
C2081 C2078 1.348 . S
C2081 C2079 1.356 . S
H2082 C2076 0.930 . S
H2083 C2080 0.930 . S
O2084 Li2024 1.956 . S
O2084 Li2025 1.970 . S
O2084 Li2026 1.961 . S
O2084 C2028 1.325 . S
O2085 Li2024 1.970 . S
O2085 Li2025 1.956 . S
O2085 Li2027 1.961 . S
O2085 C2034 1.325 . S
O2086 Li2024 1.961 . S
O2086 Li2026 1.956 . S
O2086 Li2027 1.970 . S
O2086 C2056 1.325 . S
O2087 Li2025 1.961 . S
O2087 Li2026 1.970 . S
O2087 Li2027 1.956 . S
O2087 C2062 1.325 . S
H2088 C2030 0.929 . S
H2089 C2031 0.930 . S
H2090 C2032 0.930 . S
H2091 C2033 0.930 . S
H2092 C2035 0.930 . S
H2093 C2037 0.929 . S
H2094 C2038 0.930 . S
H2095 C2039 0.930 . S
H2096 C2042 0.930 . S
H2097 C2045 0.929 . S
H2098 C2050 0.929 . S
H2099 C2051 0.930 . S
H2100 C2058 0.929 . S
H2101 C2059 0.930 . S
H2102 C2060 0.930 . S
H2103 C2061 0.930 . S
H2104 C2063 0.929 . S
H2105 C2064 0.930 . S
H2106 C2065 0.930 . S
H2107 C2066 0.930 . S
H2108 C2070 0.929 . S
H2109 C2072 0.930 . S
H2110 C2078 0.929 . S
H2111 C2079 0.930 . S
Dy2112 O2115 2.307 . S
Dy2112 O2117 2.395 . S
Dy2112 O2118 2.379 . S
Dy2112 O2120 2.339 . S
Dy2112 O2122 2.298 . S
Dy2112 O2126 2.275 . S
Dy2112 C2134 2.738 . S
Dy2113 O2116 2.298 1_655 S
Dy2113 O2119 2.275 1_655 S
Dy2113 O2121 2.307 1_645 S
Dy2113 O2123 2.395 . S
Dy2113 O2124 2.379 1_554 S
Dy2113 O2127 2.339 1_654 S
Dy2113 C2143 2.738 . S
C2114 O2126 1.254 1_556 S
C2114 O2127 1.257 . S
O2115 Dy2112 2.307 . S
O2115 C2125 1.266 . S
O2116 Dy2113 2.298 1_455 S
O2116 C2125 1.236 . S
O2117 Dy2112 2.395 . S
O2117 C2134 1.255 . S
O2118 Dy2112 2.379 . S
O2118 C2134 1.249 . S
O2119 Dy2113 2.275 1_455 S
O2119 C2135 1.254 . S
O2120 Dy2112 2.339 . S
O2120 C2135 1.257 . S
O2121 Dy2113 2.307 1_465 S
O2121 C2136 1.266 . S
O2122 Dy2112 2.298 . S
O2122 C2136 1.236 1_545 S
O2123 Dy2113 2.395 . S
O2123 C2143 1.255 . S
O2124 Dy2113 2.379 1_556 S
O2124 C2143 1.249 1_556 S
C2125 O2115 1.266 . S
C2125 O2116 1.236 . S
O2126 Dy2112 2.275 . S
O2126 C2114 1.254 1_554 S
O2127 Dy2113 2.339 1_456 S
O2127 C2114 1.257 . S
C2128 C2131 1.344 . S
C2128 C2132 1.328 . S
C2128 C2134 1.516 . S
C2129 C2130 1.310 1_545 S
C2129 C2133 1.323 . S
C2130 C2129 1.310 1_565 S
C2130 C2131 1.337 1_565 S
C2130 H2144 0.965 . S
C2131 C2128 1.344 . S
C2131 C2130 1.337 1_545 S
C2131 H2145 0.931 . S
C2132 C2128 1.328 . S
C2132 C2133 1.433 . S
C2132 H2146 0.931 . S
C2133 C2129 1.323 . S
C2133 C2132 1.433 . S
C2133 H2147 0.933 . S
C2134 Dy2112 2.738 . S
C2134 O2117 1.255 . S
C2134 O2118 1.249 . S
C2134 C2128 1.516 . S
C2135 O2119 1.254 . S
C2135 O2120 1.257 . S
C2136 O2121 1.266 . S
C2136 O2122 1.236 1_565 S
C2137 C2140 1.344 . S
C2137 C2141 1.328 1_554 S
C2137 C2143 1.516 . S
C2138 C2139 1.304 . S
C2138 C2142 1.323 1_554 S
C2139 C2138 1.304 . S
C2139 C2140 1.371 . S
C2139 H2148 0.930 . S
C2140 C2137 1.344 . S
C2140 C2139 1.371 . S
C2140 H2149 0.931 . S
C2141 C2137 1.328 1_556 S
C2141 C2142 1.433 . S
C2141 H2150 0.931 . S
C2142 C2138 1.323 1_556 S
C2142 C2141 1.433 . S
C2142 H2151 0.933 . S
C2143 Dy2113 2.738 . S
C2143 O2123 1.255 . S
C2143 O2124 1.249 1_554 S
C2143 C2137 1.516 . S
H2144 C2130 0.965 . S
H2145 C2131 0.931 . S
H2146 C2132 0.931 . S
H2147 C2133 0.933 . S
H2148 C2139 0.930 . S
H2149 C2140 0.931 . S
H2150 C2141 0.931 . S
H2151 C2142 0.933 . S
Dy2152 O2155 2.307 . S
Dy2152 O2157 2.395 . S
Dy2152 O2158 2.379 . S
Dy2152 O2160 2.339 . S
Dy2152 O2162 2.298 . S
Dy2152 O2166 2.275 . S
Dy2152 C2174 2.738 . S
Dy2153 O2156 2.298 . S
Dy2153 O2159 2.275 . S
Dy2153 O2161 2.307 . S
Dy2153 O2163 2.395 . S
Dy2153 O2164 2.379 . S
Dy2153 O2167 2.339 . S
Dy2153 C2183 2.738 . S
C2154 O2166 1.254 . S
C2154 O2167 1.257 . S
O2155 Dy2152 2.307 . S
O2155 C2165 1.266 . S
O2156 Dy2153 2.298 . S
O2156 C2165 1.236 . S
O2157 Dy2152 2.395 . S
O2157 C2174 1.255 . S
O2158 Dy2152 2.379 . S
O2158 C2174 1.249 . S
O2159 Dy2153 2.275 . S
O2159 C2175 1.254 . S
O2160 Dy2152 2.339 . S
O2160 C2175 1.257 . S
O2161 Dy2153 2.307 . S
O2161 C2176 1.266 . S
O2162 Dy2152 2.298 . S
O2162 C2176 1.236 . S
O2163 Dy2153 2.395 . S
O2163 C2183 1.255 . S
O2164 Dy2153 2.379 . S
O2164 C2183 1.249 . S
C2165 O2155 1.266 . S
C2165 O2156 1.236 . S
O2166 Dy2152 2.275 . S
O2166 C2154 1.254 . S
O2167 Dy2153 2.339 . S
O2167 C2154 1.257 . S
C2168 C2171 1.344 . S
C2168 C2172 1.328 . S
C2168 C2174 1.516 . S
C2169 C2170 1.304 . S
C2169 C2173 1.323 . S
C2170 C2169 1.304 . S
C2170 C2171 1.371 . S
C2170 H2184 0.930 . S
C2171 C2168 1.344 . S
C2171 C2170 1.371 . S
C2171 H2185 0.931 . S
C2172 C2168 1.328 . S
C2172 C2173 1.433 . S
C2172 H2186 0.931 . S
C2173 C2169 1.323 . S
C2173 C2172 1.433 . S
C2173 H2187 0.933 . S
C2174 Dy2152 2.738 . S
C2174 O2157 1.255 . S
C2174 O2158 1.249 . S
C2174 C2168 1.516 . S
C2175 O2159 1.254 . S
C2175 O2160 1.257 . S
C2176 O2161 1.266 . S
C2176 O2162 1.236 . S
C2177 C2180 1.344 . S
C2177 C2181 1.328 . S
C2177 C2183 1.516 . S
C2178 C2179 1.304 . S
C2178 C2182 1.323 . S
C2179 C2178 1.304 . S
C2179 C2180 1.371 . S
C2179 H2188 0.930 . S
C2180 C2177 1.344 . S
C2180 C2179 1.371 . S
C2180 H2189 0.931 . S
C2181 C2177 1.328 . S
C2181 C2182 1.433 . S
C2181 H2190 0.931 . S
C2182 C2178 1.323 . S
C2182 C2181 1.433 . S
C2182 H2191 0.933 . S
C2183 Dy2153 2.738 . S
C2183 O2163 1.255 . S
C2183 O2164 1.249 . S
C2183 C2177 1.516 . S
H2184 C2170 0.930 . S
H2185 C2171 0.931 . S
H2186 C2172 0.931 . S
H2187 C2173 0.933 . S
H2188 C2179 0.930 . S
H2189 C2180 0.931 . S
H2190 C2181 0.931 . S
H2191 C2182 0.933 . S
Dy2192 O2195 2.362 . S
Dy2192 O2197 2.395 . S
Dy2192 O2198 2.379 . S
Dy2192 O2200 2.339 . S
Dy2192 O2202 2.298 . S
Dy2192 O2206 2.275 . S
Dy2192 C2214 2.738 . S
Dy2193 O2196 2.298 . S
Dy2193 O2199 2.275 . S
Dy2193 O2201 2.307 . S
Dy2193 O2203 2.395 . S
Dy2193 O2204 2.379 . S
Dy2193 O2207 2.339 . S
Dy2193 C2223 2.738 . S
C2194 O2206 1.254 . S
C2194 O2207 1.257 . S
O2195 Dy2192 2.362 . S
O2195 C2205 1.238 1_545 S
O2196 Dy2193 2.298 . S
O2196 C2205 1.236 1_545 S
O2197 Dy2192 2.395 . S
O2197 C2214 1.255 . S
O2198 Dy2192 2.379 . S
O2198 C2214 1.249 . S
O2199 Dy2193 2.275 . S
O2199 C2215 1.254 . S
O2200 Dy2192 2.339 . S
O2200 C2215 1.257 . S
O2201 Dy2193 2.307 . S
O2201 C2216 1.266 . S
O2202 Dy2192 2.298 . S
O2202 C2216 1.236 . S
O2203 Dy2193 2.395 . S
O2203 C2223 1.255 . S
O2204 Dy2193 2.379 . S
O2204 C2223 1.249 . S
C2205 O2195 1.238 1_565 S
C2205 O2196 1.236 1_565 S
O2206 Dy2192 2.275 . S
O2206 C2194 1.254 . S
O2207 Dy2193 2.339 . S
O2207 C2194 1.257 . S
C2208 C2211 1.344 . S
C2208 C2212 1.328 . S
C2208 C2214 1.516 . S
C2209 C2210 1.304 . S
C2209 C2213 1.323 . S
C2210 C2209 1.304 . S
C2210 C2211 1.371 . S
C2210 H2224 0.930 . S
C2211 C2208 1.344 . S
C2211 C2210 1.371 . S
C2211 H2225 0.931 . S
C2212 C2208 1.328 . S
C2212 C2213 1.433 . S
C2212 H2226 0.931 . S
C2213 C2209 1.323 . S
C2213 C2212 1.433 . S
C2213 H2227 0.933 . S
C2214 Dy2192 2.738 . S
C2214 O2197 1.255 . S
C2214 O2198 1.249 . S
C2214 C2208 1.516 . S
C2215 O2199 1.254 . S
C2215 O2200 1.257 . S
C2216 O2201 1.266 . S
C2216 O2202 1.236 . S
C2217 C2220 1.344 1_545 S
C2217 C2221 1.328 . S
C2217 C2223 1.516 . S
C2218 C2219 1.304 . S
C2218 C2222 1.323 . S
C2219 C2218 1.304 . S
C2219 C2220 1.371 . S
C2219 H2228 0.930 . S
C2220 C2217 1.344 1_565 S
C2220 C2219 1.371 . S
C2220 H2229 0.931 . S
C2221 C2217 1.328 . S
C2221 C2222 1.433 1_545 S
C2221 H2230 0.931 . S
C2222 C2218 1.323 . S
C2222 C2221 1.433 1_565 S
C2222 H2231 0.933 . S
C2223 Dy2193 2.738 . S
C2223 O2203 1.255 . S
C2223 O2204 1.249 . S
C2223 C2217 1.516 . S
H2224 C2210 0.930 . S
H2225 C2211 0.931 . S
H2226 C2212 0.931 . S
H2227 C2213 0.933 . S
H2228 C2219 0.930 . S
H2229 C2220 0.931 . S
H2230 C2221 0.931 . S
H2231 C2222 0.933 . S
Dy2232 O2235 2.307 . S
Dy2232 O2237 2.395 . S
Dy2232 O2238 2.379 . S
Dy2232 O2240 2.339 . S
Dy2232 O2242 2.298 . S
Dy2232 O2246 2.275 . S
Dy2232 C2254 2.738 . S
Dy2233 O2236 2.298 . S
Dy2233 O2239 2.275 . S
Dy2233 O2241 2.307 . S
Dy2233 O2243 2.395 . S
Dy2233 O2244 2.379 . S
Dy2233 O2247 2.339 . S
Dy2233 C2263 2.738 . S
C2234 O2246 1.254 . S
C2234 O2247 1.257 . S
O2235 Dy2232 2.307 . S
O2235 C2245 1.266 . S
O2236 Dy2233 2.298 . S
O2236 C2245 1.236 . S
O2237 Dy2232 2.395 . S
O2237 C2254 1.255 . S
O2238 Dy2232 2.379 . S
O2238 C2254 1.249 . S
O2239 Dy2233 2.275 . S
O2239 C2255 1.254 . S
O2240 Dy2232 2.339 . S
O2240 C2255 1.257 . S
O2241 Dy2233 2.307 . S
O2241 C2256 1.266 . S
O2242 Dy2232 2.298 . S
O2242 C2256 1.236 . S
O2243 Dy2233 2.395 . S
O2243 C2263 1.255 . S
O2244 Dy2233 2.379 . S
O2244 C2263 1.249 . S
C2245 O2235 1.266 . S
C2245 O2236 1.236 . S
O2246 Dy2232 2.275 . S
O2246 C2234 1.254 . S
O2247 Dy2233 2.339 . S
O2247 C2234 1.257 . S
C2248 C2251 1.344 . S
C2248 C2252 1.328 . S
C2248 C2254 1.516 . S
C2249 C2250 1.304 . S
C2249 C2253 1.323 . S
C2250 C2249 1.304 . S
C2250 C2251 1.371 . S
C2250 H2264 0.930 . S
C2251 C2248 1.344 . S
C2251 C2250 1.371 . S
C2251 H2265 0.931 . S
C2252 C2248 1.328 . S
C2252 C2253 1.433 . S
C2252 H2266 0.931 . S
C2253 C2249 1.323 . S
C2253 C2252 1.433 . S
C2253 H2267 0.933 . S
C2254 Dy2232 2.738 . S
C2254 O2237 1.255 . S
C2254 O2238 1.249 . S
C2254 C2248 1.516 . S
C2255 O2239 1.254 . S
C2255 O2240 1.257 . S
C2256 O2241 1.266 . S
C2256 O2242 1.236 . S
C2257 C2260 1.344 . S
C2257 C2261 1.328 . S
C2257 C2263 1.516 . S
C2258 C2259 1.304 . S
C2258 C2262 1.323 . S
C2259 C2258 1.304 . S
C2259 C2260 1.371 . S
C2259 H2268 0.930 . S
C2260 C2257 1.344 . S
C2260 C2259 1.371 . S
C2260 H2269 0.931 . S
C2261 C2257 1.328 . S
C2261 C2262 1.433 . S
C2261 H2270 0.931 . S
C2262 C2258 1.323 . S
C2262 C2261 1.433 . S
C2262 H2271 0.933 . S
C2263 Dy2233 2.738 . S
C2263 O2243 1.255 . S
C2263 O2244 1.249 . S
C2263 C2257 1.516 . S
H2264 C2250 0.930 . S
H2265 C2251 0.931 . S
H2266 C2252 0.931 . S
H2267 C2253 0.933 . S
H2268 C2259 0.930 . S
H2269 C2260 0.931 . S
H2270 C2261 0.931 . S
H2271 C2262 0.933 . S
Dy2272 O2275 2.307 . S
Dy2272 O2277 2.395 1_545 S
Dy2272 O2278 2.379 1_545 S
Dy2272 O2280 2.339 . S
Dy2272 O2282 2.298 . S
Dy2272 O2286 2.275 . S
Dy2272 C2294 2.738 1_545 S
Dy2273 O2276 2.298 . S
Dy2273 O2279 2.275 . S
Dy2273 O2281 2.307 . S
Dy2273 O2283 2.395 . S
Dy2273 O2284 2.379 1_455 S
Dy2273 O2287 2.339 1_455 S
Dy2273 C2303 2.738 . S
C2274 O2286 1.254 1_655 S
C2274 O2287 1.257 . S
O2275 Dy2272 2.307 . S
O2275 C2285 1.266 . S
O2276 Dy2273 2.298 . S
O2276 C2285 1.236 . S
O2277 Dy2272 2.395 1_565 S
O2277 C2294 1.255 . S
O2278 Dy2272 2.379 1_565 S
O2278 C2294 1.249 . S
O2279 Dy2273 2.275 . S
O2279 C2295 1.254 . S
O2280 Dy2272 2.339 . S
O2280 C2295 1.257 . S
O2281 Dy2273 2.307 . S
O2281 C2296 1.266 . S
O2282 Dy2272 2.298 . S
O2282 C2296 1.236 . S
O2283 Dy2273 2.395 . S
O2283 C2303 1.255 . S
O2284 Dy2273 2.379 1_655 S
O2284 C2303 1.249 1_655 S
C2285 O2275 1.266 . S
C2285 O2276 1.236 . S
O2286 Dy2272 2.275 . S
O2286 C2274 1.254 1_455 S
O2287 Dy2273 2.339 1_655 S
O2287 C2274 1.257 . S
C2288 C2291 1.344 . S
C2288 C2292 1.328 . S
C2288 C2294 1.516 . S
C2289 C2290 1.304 . S
C2289 C2293 1.323 . S
C2290 C2289 1.304 . S
C2290 C2291 1.371 . S
C2290 H2304 0.930 . S
C2291 C2288 1.344 . S
C2291 C2290 1.371 . S
C2291 H2305 0.931 . S
C2292 C2288 1.328 . S
C2292 C2293 1.433 . S
C2292 H2306 0.931 . S
C2293 C2289 1.323 . S
C2293 C2292 1.433 . S
C2293 H2307 0.933 . S
C2294 Dy2272 2.738 1_565 S
C2294 O2277 1.255 . S
C2294 O2278 1.249 . S
C2294 C2288 1.516 . S
C2295 O2279 1.254 . S
C2295 O2280 1.257 . S
C2296 O2281 1.266 . S
C2296 O2282 1.236 . S
C2297 C2300 1.344 . S
C2297 C2301 1.328 1_455 S
C2297 C2303 1.516 . S
C2298 C2299 1.304 . S
C2298 C2302 1.323 1_455 S
C2299 C2298 1.304 . S
C2299 C2300 1.371 . S
C2299 H2308 0.930 . S
C2300 C2297 1.344 . S
C2300 C2299 1.371 . S
C2300 H2309 0.931 . S
C2301 C2297 1.328 1_655 S
C2301 C2302 1.433 . S
C2301 H2310 0.931 . S
C2302 C2298 1.323 1_655 S
C2302 C2301 1.433 . S
C2302 H2311 0.933 . S
C2303 Dy2273 2.738 . S
C2303 O2283 1.255 . S
C2303 O2284 1.249 1_455 S
C2303 C2297 1.516 . S
H2304 C2290 0.930 . S
H2305 C2291 0.931 . S
H2306 C2292 0.931 . S
H2307 C2293 0.933 . S
H2308 C2299 0.930 . S
H2309 C2300 0.931 . S
H2310 C2301 0.931 . S
H2311 C2302 0.933 . S
Dy2312 O2315 2.307 . S
Dy2312 O2317 2.395 . S
Dy2312 O2318 2.379 . S
Dy2312 O2320 2.339 . S
Dy2312 O2322 2.298 . S
Dy2312 O2326 2.275 . S
Dy2312 C2334 2.738 . S
Dy2313 O2316 2.298 . S
Dy2313 O2319 2.275 . S
Dy2313 O2321 2.307 . S
Dy2313 O2323 2.395 . S
Dy2313 O2324 2.379 . S
Dy2313 O2327 2.339 . S
Dy2313 C2343 2.738 . S
C2314 O2326 1.254 . S
C2314 O2327 1.257 . S
O2315 Dy2312 2.307 . S
O2315 C2325 1.266 . S
O2316 Dy2313 2.298 . S
O2316 C2325 1.236 . S
O2317 Dy2312 2.395 . S
O2317 C2334 1.255 . S
O2318 Dy2312 2.379 . S
O2318 C2334 1.249 . S
O2319 Dy2313 2.275 . S
O2319 C2335 1.254 . S
O2320 Dy2312 2.339 . S
O2320 C2335 1.257 . S
O2321 Dy2313 2.307 . S
O2321 C2336 1.266 . S
O2322 Dy2312 2.298 . S
O2322 C2336 1.236 . S
O2323 Dy2313 2.395 . S
O2323 C2343 1.255 . S
O2324 Dy2313 2.379 . S
O2324 C2343 1.249 . S
C2325 O2315 1.266 . S
C2325 O2316 1.236 . S
O2326 Dy2312 2.275 . S
O2326 C2314 1.254 . S
O2327 Dy2313 2.339 . S
O2327 C2314 1.257 . S
C2328 C2331 1.344 . S
C2328 C2332 1.328 . S
C2328 C2334 1.516 . S
C2329 C2330 1.304 . S
C2329 C2333 1.323 . S
C2330 C2329 1.304 . S
C2330 C2331 1.371 . S
C2330 H2344 0.930 . S
C2331 C2328 1.344 . S
C2331 C2330 1.371 . S
C2331 H2345 0.931 . S
C2332 C2328 1.328 . S
C2332 C2333 1.433 . S
C2332 H2346 0.931 . S
C2333 C2329 1.323 . S
C2333 C2332 1.433 . S
C2333 H2347 0.933 . S
C2334 Dy2312 2.738 . S
C2334 O2317 1.255 . S
C2334 O2318 1.249 . S
C2334 C2328 1.516 . S
C2335 O2319 1.254 . S
C2335 O2320 1.257 . S
C2336 O2321 1.266 . S
C2336 O2322 1.236 . S
C2337 C2340 1.344 . S
C2337 C2341 1.328 . S
C2337 C2343 1.516 . S
C2338 C2339 1.304 . S
C2338 C2342 1.323 . S
C2339 C2338 1.304 . S
C2339 C2340 1.371 . S
C2339 H2348 0.930 . S
C2340 C2337 1.344 . S
C2340 C2339 1.371 . S
C2340 H2349 0.931 . S
C2341 C2337 1.328 . S
C2341 C2342 1.433 . S
C2341 H2350 0.931 . S
C2342 C2338 1.323 . S
C2342 C2341 1.433 . S
C2342 H2351 0.933 . S
C2343 Dy2313 2.738 . S
C2343 O2323 1.255 . S
C2343 O2324 1.249 . S
C2343 C2337 1.516 . S
H2344 C2330 0.930 . S
H2345 C2331 0.931 . S
H2346 C2332 0.931 . S
H2347 C2333 0.933 . S
H2348 C2339 0.930 . S
H2349 C2340 0.931 . S
H2350 C2341 0.931 . S
H2351 C2342 0.933 . S
Dy2352 O2355 2.307 1_556 S
Dy2352 O2357 2.395 . S
Dy2352 O2358 2.379 . S
Dy2352 O2360 2.339 1_556 S
Dy2352 O2362 2.298 1_556 S
Dy2352 O2366 2.275 1_556 S
Dy2352 C2374 2.738 . S
Dy2353 O2356 2.298 . S
Dy2353 O2359 2.275 . S
Dy2353 O2361 2.307 . S
Dy2353 O2363 2.395 . S
Dy2353 O2364 2.379 1_545 S
Dy2353 O2367 2.339 1_545 S
Dy2353 C2383 2.738 . S
C2354 O2366 1.254 1_565 S
C2354 O2367 1.257 . S
O2355 Dy2352 2.307 1_554 S
O2355 C2365 1.266 . S
O2356 Dy2353 2.298 . S
O2356 C2365 1.236 . S
O2357 Dy2352 2.395 . S
O2357 C2374 1.255 . S
O2358 Dy2352 2.379 . S
O2358 C2374 1.249 . S
O2359 Dy2353 2.275 . S
O2359 C2375 1.254 . S
O2360 Dy2352 2.339 1_554 S
O2360 C2375 1.257 . S
O2361 Dy2353 2.307 . S
O2361 C2376 1.266 . S
O2362 Dy2352 2.298 1_554 S
O2362 C2376 1.236 . S
O2363 Dy2353 2.395 . S
O2363 C2383 1.255 . S
O2364 Dy2353 2.379 1_565 S
O2364 C2383 1.249 1_565 S
C2365 O2355 1.266 . S
C2365 O2356 1.236 . S
O2366 Dy2352 2.275 1_554 S
O2366 C2354 1.254 1_545 S
O2367 Dy2353 2.339 1_565 S
O2367 C2354 1.257 . S
C2368 C2371 1.344 . S
C2368 C2372 1.328 . S
C2368 C2374 1.516 . S
C2369 C2370 1.304 . S
C2369 C2373 1.323 . S
C2370 C2369 1.304 . S
C2370 C2371 1.371 . S
C2370 H2384 0.930 . S
C2371 C2368 1.344 . S
C2371 C2370 1.371 . S
C2371 H2385 0.931 . S
C2372 C2368 1.328 . S
C2372 C2373 1.433 . S
C2372 H2386 0.931 . S
C2373 C2369 1.323 . S
C2373 C2372 1.433 . S
C2373 H2387 0.933 . S
C2374 Dy2352 2.738 . S
C2374 O2357 1.255 . S
C2374 O2358 1.249 . S
C2374 C2368 1.516 . S
C2375 O2359 1.254 . S
C2375 O2360 1.257 . S
C2376 O2361 1.266 . S
C2376 O2362 1.236 . S
C2377 C2380 1.344 . S
C2377 C2381 1.328 1_545 S
C2377 C2383 1.516 . S
C2378 C2379 1.304 1_565 S
C2378 C2382 1.323 . S
C2379 C2378 1.304 1_545 S
C2379 C2380 1.371 . S
C2379 H2388 0.930 . S
C2380 C2377 1.344 . S
C2380 C2379 1.371 . S
C2380 H2389 0.931 . S
C2381 C2377 1.328 1_565 S
C2381 C2382 1.433 . S
C2381 H2390 0.931 . S
C2382 C2378 1.323 . S
C2382 C2381 1.433 . S
C2382 H2391 0.933 . S
C2383 Dy2353 2.738 . S
C2383 O2363 1.255 . S
C2383 O2364 1.249 1_545 S
C2383 C2377 1.516 . S
H2384 C2370 0.930 . S
H2385 C2371 0.931 . S
H2386 C2372 0.931 . S
H2387 C2373 0.933 . S
H2388 C2379 0.930 . S
H2389 C2380 0.931 . S
H2390 C2381 0.931 . S
H2391 C2382 0.933 . S
Dy2392 O2395 2.307 . S
Dy2392 O2397 2.395 . S
Dy2392 O2398 2.379 . S
Dy2392 O2400 2.339 . S
Dy2392 O2402 2.298 . S
Dy2392 O2406 2.275 . S
Dy2392 C2414 2.738 . S
Dy2393 O2396 2.298 . S
Dy2393 O2399 2.275 . S
Dy2393 O2401 2.307 . S
Dy2393 O2403 2.395 . S
Dy2393 O2404 2.379 . S
Dy2393 O2407 2.339 . S
Dy2393 C2423 2.738 . S
C2394 O2406 1.254 . S
C2394 O2407 1.257 . S
O2395 Dy2392 2.307 . S
O2395 C2405 1.266 . S
O2396 Dy2393 2.298 . S
O2396 C2405 1.236 . S
O2397 Dy2392 2.395 . S
O2397 C2414 1.255 . S
O2398 Dy2392 2.379 . S
O2398 C2414 1.249 . S
O2399 Dy2393 2.275 . S
O2399 C2415 1.254 . S
O2400 Dy2392 2.339 . S
O2400 C2415 1.257 . S
O2401 Dy2393 2.307 . S
O2401 C2416 1.266 . S
O2402 Dy2392 2.298 . S
O2402 C2416 1.236 . S
O2403 Dy2393 2.395 . S
O2403 C2423 1.255 . S
O2404 Dy2393 2.379 . S
O2404 C2423 1.249 . S
C2405 O2395 1.266 . S
C2405 O2396 1.236 . S
O2406 Dy2392 2.275 . S
O2406 C2394 1.254 . S
O2407 Dy2393 2.339 . S
O2407 C2394 1.257 . S
C2408 C2411 1.344 . S
C2408 C2412 1.328 . S
C2408 C2414 1.516 . S
C2409 C2410 1.304 . S
C2409 C2413 1.323 . S
C2410 C2409 1.304 . S
C2410 C2411 1.371 . S
C2410 H2424 0.930 . S
C2411 C2408 1.344 . S
C2411 C2410 1.371 . S
C2411 H2425 0.931 . S
C2412 C2408 1.328 . S
C2412 C2413 1.433 . S
C2412 H2426 0.931 . S
C2413 C2409 1.323 . S
C2413 C2412 1.433 . S
C2413 H2427 0.933 . S
C2414 Dy2392 2.738 . S
C2414 O2397 1.255 . S
C2414 O2398 1.249 . S
C2414 C2408 1.516 . S
C2415 O2399 1.254 . S
C2415 O2400 1.257 . S
C2416 O2401 1.266 . S
C2416 O2402 1.236 . S
C2417 C2420 1.344 . S
C2417 C2421 1.328 . S
C2417 C2423 1.516 . S
C2418 C2419 1.304 . S
C2418 C2422 1.323 . S
C2419 C2418 1.304 . S
C2419 C2420 1.371 . S
C2419 H2428 0.930 . S
C2420 C2417 1.344 . S
C2420 C2419 1.371 . S
C2420 H2429 0.931 . S
C2421 C2417 1.328 . S
C2421 C2422 1.433 . S
C2421 H2430 0.931 . S
C2422 C2418 1.323 . S
C2422 C2421 1.433 . S
C2422 H2431 0.933 . S
C2423 Dy2393 2.738 . S
C2423 O2403 1.255 . S
C2423 O2404 1.249 . S
C2423 C2417 1.516 . S
H2424 C2410 0.930 . S
H2425 C2411 0.931 . S
H2426 C2412 0.931 . S
H2427 C2413 0.933 . S
H2428 C2419 0.930 . S
H2429 C2420 0.931 . S
H2430 C2421 0.931 . S
H2431 C2422 0.933 . S
Dy2432 O2435 2.307 1_554 S
Dy2432 O2437 2.395 . S
Dy2432 O2438 2.379 . S
Dy2432 O2440 2.339 . S
Dy2432 O2442 2.298 . S
Dy2432 O2446 2.275 . S
Dy2432 C2454 2.738 . S
Dy2433 O2436 2.298 1_554 S
Dy2433 O2439 2.275 . S
Dy2433 O2441 2.307 . S
Dy2433 O2443 2.395 . S
Dy2433 O2444 2.379 . S
Dy2433 O2447 2.339 . S
Dy2433 C2463 2.738 . S
C2434 O2446 1.254 . S
C2434 O2447 1.257 . S
O2435 Dy2432 2.307 1_556 S
O2435 C2445 1.266 . S
O2436 Dy2433 2.298 1_556 S
O2436 C2445 1.236 . S
O2437 Dy2432 2.395 . S
O2437 C2454 1.255 . S
O2438 Dy2432 2.379 . S
O2438 C2454 1.249 . S
O2439 Dy2433 2.275 . S
O2439 C2455 1.254 . S
O2440 Dy2432 2.339 . S
O2440 C2455 1.257 . S
O2441 Dy2433 2.307 . S
O2441 C2456 1.266 . S
O2442 Dy2432 2.298 . S
O2442 C2456 1.236 . S
O2443 Dy2433 2.395 . S
O2443 C2463 1.255 . S
O2444 Dy2433 2.379 . S
O2444 C2463 1.249 . S
C2445 O2435 1.266 . S
C2445 O2436 1.236 . S
O2446 Dy2432 2.275 . S
O2446 C2434 1.254 . S
O2447 Dy2433 2.339 . S
O2447 C2434 1.257 . S
C2448 C2451 1.344 . S
C2448 C2452 1.328 . S
C2448 C2454 1.516 . S
C2449 C2450 1.304 . S
C2449 C2453 1.323 . S
C2450 C2449 1.304 . S
C2450 C2451 1.371 . S
C2450 H2464 0.930 . S
C2451 C2448 1.344 . S
C2451 C2450 1.371 . S
C2451 H2465 0.931 . S
C2452 C2448 1.328 . S
C2452 C2453 1.433 . S
C2452 H2466 0.931 . S
C2453 C2449 1.323 . S
C2453 C2452 1.433 . S
C2453 H2467 0.933 . S
C2454 Dy2432 2.738 . S
C2454 O2437 1.255 . S
C2454 O2438 1.249 . S
C2454 C2448 1.516 . S
C2455 O2439 1.254 . S
C2455 O2440 1.257 . S
C2456 O2441 1.266 . S
C2456 O2442 1.236 . S
C2457 C2460 1.344 . S
C2457 C2461 1.328 . S
C2457 C2463 1.516 1_556 S
C2458 C2459 1.304 . S
C2458 C2462 1.323 . S
C2459 C2458 1.304 . S
C2459 C2460 1.371 . S
C2459 H2468 0.930 . S
C2460 C2457 1.344 . S
C2460 C2459 1.371 . S
C2460 H2469 0.931 . S
C2461 C2457 1.328 . S
C2461 C2462 1.433 . S
C2461 H2470 0.931 1_556 S
C2462 C2458 1.323 . S
C2462 C2461 1.433 . S
C2462 H2471 0.933 . S
C2463 Dy2433 2.738 . S
C2463 O2443 1.255 . S
C2463 O2444 1.249 . S
C2463 C2457 1.516 1_554 S
H2464 C2450 0.930 . S
H2465 C2451 0.931 . S
H2466 C2452 0.931 . S
H2467 C2453 0.933 . S
H2468 C2459 0.930 . S
H2469 C2460 0.931 . S
H2470 C2461 0.931 1_554 S
H2471 C2462 0.933 . S
Dy2472 O2475 2.307 . S
Dy2472 O2477 2.395 . S
Dy2472 O2478 2.379 . S
Dy2472 O2480 2.339 . S
Dy2472 O2482 2.298 . S
Dy2472 O2486 2.275 . S
Dy2472 C2494 2.738 . S
Dy2473 O2476 2.298 . S
Dy2473 O2479 2.275 . S
Dy2473 O2481 2.307 . S
Dy2473 O2483 2.395 . S
Dy2473 O2484 2.379 . S
Dy2473 O2487 2.339 . S
Dy2473 C2503 2.738 . S
C2474 O2486 1.254 . S
C2474 O2487 1.257 . S
O2475 Dy2472 2.307 . S
O2475 C2485 1.266 . S
O2476 Dy2473 2.298 . S
O2476 C2485 1.236 . S
O2477 Dy2472 2.395 . S
O2477 C2494 1.255 . S
O2478 Dy2472 2.379 . S
O2478 C2494 1.249 . S
O2479 Dy2473 2.275 . S
O2479 C2495 1.254 . S
O2480 Dy2472 2.339 . S
O2480 C2495 1.257 . S
O2481 Dy2473 2.307 . S
O2481 C2496 1.266 . S
O2482 Dy2472 2.298 . S
O2482 C2496 1.236 . S
O2483 Dy2473 2.395 . S
O2483 C2503 1.255 . S
O2484 Dy2473 2.379 . S
O2484 C2503 1.249 . S
C2485 O2475 1.266 . S
C2485 O2476 1.236 . S
O2486 Dy2472 2.275 . S
O2486 C2474 1.254 . S
O2487 Dy2473 2.339 . S
O2487 C2474 1.257 . S
C2488 C2491 1.344 . S
C2488 C2492 1.328 . S
C2488 C2494 1.516 . S
C2489 C2490 1.304 . S
C2489 C2493 1.323 . S
C2490 C2489 1.304 . S
C2490 C2491 1.371 . S
C2490 H2504 0.930 . S
C2491 C2488 1.344 . S
C2491 C2490 1.371 . S
C2491 H2505 0.931 . S
C2492 C2488 1.328 . S
C2492 C2493 1.433 . S
C2492 H2506 0.931 . S
C2493 C2489 1.323 . S
C2493 C2492 1.433 . S
C2493 H2507 0.933 . S
C2494 Dy2472 2.738 . S
C2494 O2477 1.255 . S
C2494 O2478 1.249 . S
C2494 C2488 1.516 . S
C2495 O2479 1.254 . S
C2495 O2480 1.257 . S
C2496 O2481 1.266 . S
C2496 O2482 1.236 . S
C2497 C2500 1.344 . S
C2497 C2501 1.328 . S
C2497 C2503 1.516 . S
C2498 C2499 1.304 . S
C2498 C2502 1.323 . S
C2499 C2498 1.304 . S
C2499 C2500 1.371 . S
C2499 H2508 0.930 . S
C2500 C2497 1.344 . S
C2500 C2499 1.371 . S
C2500 H2509 0.931 . S
C2501 C2497 1.328 . S
C2501 C2502 1.433 . S
C2501 H2510 0.931 . S
C2502 C2498 1.323 . S
C2502 C2501 1.433 . S
C2502 H2511 0.933 . S
C2503 Dy2473 2.738 . S
C2503 O2483 1.255 . S
C2503 O2484 1.249 . S
C2503 C2497 1.516 . S
H2504 C2490 0.930 . S
H2505 C2491 0.931 . S
H2506 C2492 0.931 . S
H2507 C2493 0.933 . S
H2508 C2499 0.930 . S
H2509 C2500 0.931 . S
H2510 C2501 0.931 . S
H2511 C2502 0.933 . S
Dy2512 O2515 2.307 1_455 S
Dy2512 O2517 2.395 . S
Dy2512 O2518 2.379 . S
Dy2512 O2520 2.339 . S
Dy2512 O2522 2.298 . S
Dy2512 O2526 2.275 . S
Dy2512 C2534 2.738 . S
Dy2513 O2516 2.298 1_455 S
Dy2513 O2519 2.275 . S
Dy2513 O2521 2.307 . S
Dy2513 O2523 2.395 . S
Dy2513 O2524 2.379 . S
Dy2513 O2527 2.339 . S
Dy2513 C2543 2.738 . S
C2514 O2526 1.254 . S
C2514 O2527 1.257 . S
O2515 Dy2512 2.307 1_655 S
O2515 C2525 1.266 . S
O2516 Dy2513 2.298 1_655 S
O2516 C2525 1.236 . S
O2517 Dy2512 2.395 . S
O2517 C2534 1.255 . S
O2518 Dy2512 2.379 . S
O2518 C2534 1.249 . S
O2519 Dy2513 2.275 . S
O2519 C2535 1.254 . S
O2520 Dy2512 2.339 . S
O2520 C2535 1.257 . S
O2521 Dy2513 2.307 . S
O2521 C2536 1.266 . S
O2522 Dy2512 2.298 . S
O2522 C2536 1.236 . S
O2523 Dy2513 2.395 . S
O2523 C2543 1.255 . S
O2524 Dy2513 2.379 . S
O2524 C2543 1.249 . S
C2525 O2515 1.266 . S
C2525 O2516 1.236 . S
O2526 Dy2512 2.275 . S
O2526 C2514 1.254 . S
O2527 Dy2513 2.339 . S
O2527 C2514 1.257 . S
C2528 C2531 1.344 . S
C2528 C2532 1.328 . S
C2528 C2534 1.516 . S
C2529 C2530 1.304 . S
C2529 C2533 1.323 . S
C2530 C2529 1.304 . S
C2530 C2531 1.371 . S
C2530 H2544 0.930 . S
C2531 C2528 1.344 . S
C2531 C2530 1.371 . S
C2531 H2545 0.931 . S
C2532 C2528 1.328 . S
C2532 C2533 1.433 . S
C2532 H2546 0.931 . S
C2533 C2529 1.323 . S
C2533 C2532 1.433 . S
C2533 H2547 0.933 . S
C2534 Dy2512 2.738 . S
C2534 O2517 1.255 . S
C2534 O2518 1.249 . S
C2534 C2528 1.516 . S
C2535 O2519 1.254 . S
C2535 O2520 1.257 . S
C2536 O2521 1.266 . S
C2536 O2522 1.236 . S
C2537 C2540 1.344 . S
C2537 C2541 1.328 . S
C2537 C2543 1.516 1_655 S
C2538 C2539 1.304 . S
C2538 C2542 1.323 . S
C2539 C2538 1.304 . S
C2539 C2540 1.371 . S
C2539 H2548 0.930 . S
C2540 C2537 1.344 . S
C2540 C2539 1.371 . S
C2540 H2549 0.931 . S
C2541 C2537 1.328 . S
C2541 C2542 1.433 . S
C2541 H2550 0.934 . S
C2542 C2538 1.323 . S
C2542 C2541 1.433 . S
C2542 H2551 0.933 . S
C2543 Dy2513 2.738 . S
C2543 O2523 1.255 . S
C2543 O2524 1.249 . S
C2543 C2537 1.516 1_455 S
H2544 C2530 0.930 . S
H2545 C2531 0.931 . S
H2546 C2532 0.931 . S
H2547 C2533 0.933 . S
H2548 C2539 0.930 . S
H2549 C2540 0.931 . S
H2550 C2541 0.934 . S
H2551 C2542 0.933 . S
Dy2552 O2555 2.307 . S
Dy2552 O2557 2.395 . S
Dy2552 O2558 2.379 . S
Dy2552 O2560 2.339 . S
Dy2552 O2562 2.298 . S
Dy2552 O2566 2.275 . S
Dy2552 C2574 2.738 . S
Dy2553 O2556 2.298 . S
Dy2553 O2559 2.275 . S
Dy2553 O2561 2.307 . S
Dy2553 O2563 2.395 . S
Dy2553 O2564 2.379 . S
Dy2553 O2567 2.339 . S
Dy2553 C2583 2.738 . S
C2554 O2566 1.254 . S
C2554 O2567 1.257 . S
O2555 Dy2552 2.307 . S
O2555 C2565 1.266 . S
O2556 Dy2553 2.298 . S
O2556 C2565 1.236 . S
O2557 Dy2552 2.395 . S
O2557 C2574 1.255 . S
O2558 Dy2552 2.379 . S
O2558 C2574 1.249 . S
O2559 Dy2553 2.275 . S
O2559 C2575 1.254 . S
O2560 Dy2552 2.339 . S
O2560 C2575 1.257 . S
O2561 Dy2553 2.307 . S
O2561 C2576 1.266 . S
O2562 Dy2552 2.298 . S
O2562 C2576 1.236 . S
O2563 Dy2553 2.395 . S
O2563 C2583 1.255 . S
O2564 Dy2553 2.379 . S
O2564 C2583 1.249 . S
C2565 O2555 1.266 . S
C2565 O2556 1.236 . S
O2566 Dy2552 2.275 . S
O2566 C2554 1.254 . S
O2567 Dy2553 2.339 . S
O2567 C2554 1.257 . S
C2568 C2571 1.344 . S
C2568 C2572 1.328 . S
C2568 C2574 1.516 . S
C2569 C2570 1.304 . S
C2569 C2573 1.323 . S
C2570 C2569 1.304 . S
C2570 C2571 1.371 . S
C2570 H2584 0.930 . S
C2571 C2568 1.344 . S
C2571 C2570 1.371 . S
C2571 H2585 0.931 . S
C2572 C2568 1.328 . S
C2572 C2573 1.433 . S
C2572 H2586 0.931 . S
C2573 C2569 1.323 . S
C2573 C2572 1.433 . S
C2573 H2587 0.933 . S
C2574 Dy2552 2.738 . S
C2574 O2557 1.255 . S
C2574 O2558 1.249 . S
C2574 C2568 1.516 . S
C2575 O2559 1.254 . S
C2575 O2560 1.257 . S
C2576 O2561 1.266 . S
C2576 O2562 1.236 . S
C2577 C2580 1.344 . S
C2577 C2581 1.328 . S
C2577 C2583 1.516 . S
C2578 C2579 1.304 . S
C2578 C2582 1.323 . S
C2579 C2578 1.304 . S
C2579 C2580 1.371 . S
C2579 H2588 0.930 . S
C2580 C2577 1.344 . S
C2580 C2579 1.371 . S
C2580 H2589 0.931 . S
C2581 C2577 1.328 . S
C2581 C2582 1.433 . S
C2581 H2590 0.931 . S
C2582 C2578 1.323 . S
C2582 C2581 1.433 . S
C2582 H2591 0.933 . S
C2583 Dy2553 2.738 . S
C2583 O2563 1.255 . S
C2583 O2564 1.249 . S
C2583 C2577 1.516 . S
H2584 C2570 0.930 . S
H2585 C2571 0.931 . S
H2586 C2572 0.931 . S
H2587 C2573 0.933 . S
H2588 C2579 0.930 . S
H2589 C2580 0.931 . S
H2590 C2581 0.931 . S
H2591 C2582 0.933 . S
Dy2592 O2595 2.307 . S
Dy2592 O2597 2.395 . S
Dy2592 O2598 2.379 . S
Dy2592 O2600 2.339 . S
Dy2592 O2602 2.298 . S
Dy2592 O2606 2.275 . S
Dy2592 C2614 2.738 . S
Dy2593 O2596 2.298 . S
Dy2593 O2599 2.275 . S
Dy2593 O2601 2.307 . S
Dy2593 O2603 2.395 . S
Dy2593 O2604 2.379 . S
Dy2593 O2607 2.339 . S
Dy2593 C2623 2.738 . S
C2594 O2606 1.254 . S
C2594 O2607 1.257 . S
O2595 Dy2592 2.307 . S
O2595 C2605 1.266 . S
O2596 Dy2593 2.298 . S
O2596 C2605 1.236 . S
O2597 Dy2592 2.395 . S
O2597 C2614 1.255 . S
O2598 Dy2592 2.379 . S
O2598 C2614 1.249 . S
O2599 Dy2593 2.275 . S
O2599 C2615 1.254 . S
O2600 Dy2592 2.339 . S
O2600 C2615 1.257 . S
O2601 Dy2593 2.307 . S
O2601 C2616 1.266 . S
O2602 Dy2592 2.298 . S
O2602 C2616 1.236 . S
O2603 Dy2593 2.395 . S
O2603 C2623 1.255 . S
O2604 Dy2593 2.379 . S
O2604 C2623 1.249 . S
C2605 O2595 1.266 . S
C2605 O2596 1.236 . S
O2606 Dy2592 2.275 . S
O2606 C2594 1.254 . S
O2607 Dy2593 2.339 . S
O2607 C2594 1.257 . S
C2608 C2611 1.344 . S
C2608 C2612 1.328 . S
C2608 C2614 1.516 . S
C2609 C2610 1.304 . S
C2609 C2613 1.323 . S
C2610 C2609 1.304 . S
C2610 C2611 1.371 . S
C2610 H2624 0.930 . S
C2611 C2608 1.344 . S
C2611 C2610 1.371 . S
C2611 H2625 0.931 . S
C2612 C2608 1.328 . S
C2612 C2613 1.433 . S
C2612 H2626 0.931 . S
C2613 C2609 1.323 . S
C2613 C2612 1.433 . S
C2613 H2627 0.933 . S
C2614 Dy2592 2.738 . S
C2614 O2597 1.255 . S
C2614 O2598 1.249 . S
C2614 C2608 1.516 . S
C2615 O2599 1.254 . S
C2615 O2600 1.257 . S
C2616 O2601 1.266 . S
C2616 O2602 1.236 . S
C2617 C2620 1.344 . S
C2617 C2621 1.328 . S
C2617 C2623 1.516 . S
C2618 C2619 1.304 . S
C2618 C2622 1.323 . S
C2619 C2618 1.304 . S
C2619 C2620 1.371 . S
C2619 H2628 0.930 . S
C2620 C2617 1.344 . S
C2620 C2619 1.371 . S
C2620 H2629 0.931 . S
C2621 C2617 1.328 . S
C2621 C2622 1.433 . S
C2621 H2630 0.931 . S
C2622 C2618 1.323 . S
C2622 C2621 1.433 . S
C2622 H2631 0.933 . S
C2623 Dy2593 2.738 . S
C2623 O2603 1.255 . S
C2623 O2604 1.249 . S
C2623 C2617 1.516 . S
H2624 C2610 0.930 . S
H2625 C2611 0.931 . S
H2626 C2612 0.931 . S
H2627 C2613 0.933 . S
H2628 C2619 0.930 . S
H2629 C2620 0.931 . S
H2630 C2621 0.931 . S
H2631 C2622 0.933 . S
Dy2632 O2635 2.307 . S
Dy2632 O2637 2.395 . S
Dy2632 O2638 2.379 . S
Dy2632 O2640 2.339 . S
Dy2632 O2642 2.298 . S
Dy2632 O2646 2.275 . S
Dy2632 C2654 2.738 . S
Dy2633 O2636 2.298 . S
Dy2633 O2639 2.275 . S
Dy2633 O2641 2.307 . S
Dy2633 O2643 2.395 . S
Dy2633 O2644 2.379 . S
Dy2633 O2647 2.339 . S
Dy2633 C2663 2.738 . S
C2634 O2646 1.254 . S
C2634 O2647 1.257 . S
O2635 Dy2632 2.307 . S
O2635 C2645 1.266 . S
O2636 Dy2633 2.298 . S
O2636 C2645 1.236 . S
O2637 Dy2632 2.395 . S
O2637 C2654 1.255 . S
O2638 Dy2632 2.379 . S
O2638 C2654 1.249 . S
O2639 Dy2633 2.275 . S
O2639 C2655 1.254 . S
O2640 Dy2632 2.339 . S
O2640 C2655 1.257 . S
O2641 Dy2633 2.307 . S
O2641 C2656 1.266 . S
O2642 Dy2632 2.298 . S
O2642 C2656 1.236 . S
O2643 Dy2633 2.395 . S
O2643 C2663 1.255 . S
O2644 Dy2633 2.379 . S
O2644 C2663 1.249 . S
C2645 O2635 1.266 . S
C2645 O2636 1.236 . S
O2646 Dy2632 2.275 . S
O2646 C2634 1.254 . S
O2647 Dy2633 2.339 . S
O2647 C2634 1.257 . S
C2648 C2651 1.344 . S
C2648 C2652 1.328 . S
C2648 C2654 1.516 . S
C2649 C2650 1.304 . S
C2649 C2653 1.323 . S
C2650 C2649 1.304 . S
C2650 C2651 1.371 . S
C2650 H2664 0.930 . S
C2651 C2648 1.344 . S
C2651 C2650 1.371 . S
C2651 H2665 0.931 . S
C2652 C2648 1.328 . S
C2652 C2653 1.433 . S
C2652 H2666 0.931 . S
C2653 C2649 1.323 . S
C2653 C2652 1.433 . S
C2653 H2667 0.933 . S
C2654 Dy2632 2.738 . S
C2654 O2637 1.255 . S
C2654 O2638 1.249 . S
C2654 C2648 1.516 . S
C2655 O2639 1.254 . S
C2655 O2640 1.257 . S
C2656 O2641 1.266 . S
C2656 O2642 1.236 . S
C2657 C2660 1.344 . S
C2657 C2661 1.328 . S
C2657 C2663 1.516 . S
C2658 C2659 1.304 . S
C2658 C2662 1.323 . S
C2659 C2658 1.304 . S
C2659 C2660 1.371 . S
C2659 H2668 0.930 . S
C2660 C2657 1.344 . S
C2660 C2659 1.371 . S
C2660 H2669 0.931 . S
C2661 C2657 1.328 . S
C2661 C2662 1.433 . S
C2661 H2670 0.931 . S
C2662 C2658 1.323 . S
C2662 C2661 1.433 . S
C2662 H2671 0.933 . S
C2663 Dy2633 2.738 . S
C2663 O2643 1.255 . S
C2663 O2644 1.249 . S
C2663 C2657 1.516 . S
H2664 C2650 0.930 . S
H2665 C2651 0.931 . S
H2666 C2652 0.931 . S
H2667 C2653 0.933 . S
H2668 C2659 0.930 . S
H2669 C2660 0.931 . S
H2670 C2661 0.931 . S
H2671 C2662 0.933 . S
Dy2672 O2675 2.307 . S
Dy2672 O2677 2.395 . S
Dy2672 O2678 2.379 . S
Dy2672 O2680 2.339 . S
Dy2672 O2682 2.298 . S
Dy2672 O2686 2.275 . S
Dy2672 C2694 2.738 . S
Dy2673 O2676 2.298 . S
Dy2673 O2679 2.275 . S
Dy2673 O2681 2.307 . S
Dy2673 O2683 2.395 . S
Dy2673 O2684 2.379 . S
Dy2673 O2687 2.339 . S
Dy2673 C2703 2.738 . S
C2674 O2686 1.254 . S
C2674 O2687 1.257 . S
O2675 Dy2672 2.307 . S
O2675 C2685 1.266 . S
O2676 Dy2673 2.298 . S
O2676 C2685 1.236 . S
O2677 Dy2672 2.395 . S
O2677 C2694 1.255 . S
O2678 Dy2672 2.379 . S
O2678 C2694 1.249 . S
O2679 Dy2673 2.275 . S
O2679 C2695 1.254 . S
O2680 Dy2672 2.339 . S
O2680 C2695 1.257 . S
O2681 Dy2673 2.307 . S
O2681 C2696 1.266 . S
O2682 Dy2672 2.298 . S
O2682 C2696 1.236 . S
O2683 Dy2673 2.395 . S
O2683 C2703 1.255 . S
O2684 Dy2673 2.379 . S
O2684 C2703 1.249 . S
C2685 O2675 1.266 . S
C2685 O2676 1.236 . S
O2686 Dy2672 2.275 . S
O2686 C2674 1.254 . S
O2687 Dy2673 2.339 . S
O2687 C2674 1.257 . S
C2688 C2691 1.344 . S
C2688 C2692 1.328 . S
C2688 C2694 1.516 . S
C2689 C2690 1.304 . S
C2689 C2693 1.323 . S
C2690 C2689 1.304 . S
C2690 C2691 1.371 . S
C2690 H2704 0.930 . S
C2691 C2688 1.344 . S
C2691 C2690 1.371 . S
C2691 H2705 0.931 . S
C2692 C2688 1.328 . S
C2692 C2693 1.433 . S
C2692 H2706 0.931 . S
C2693 C2689 1.323 . S
C2693 C2692 1.433 . S
C2693 H2707 0.933 . S
C2694 Dy2672 2.738 . S
C2694 O2677 1.255 . S
C2694 O2678 1.249 . S
C2694 C2688 1.516 . S
C2695 O2679 1.254 . S
C2695 O2680 1.257 . S
C2696 O2681 1.266 . S
C2696 O2682 1.236 . S
C2697 C2700 1.344 . S
C2697 C2701 1.328 . S
C2697 C2703 1.516 . S
C2698 C2699 1.304 . S
C2698 C2702 1.323 . S
C2699 C2698 1.304 . S
C2699 C2700 1.371 . S
C2699 H2708 0.930 . S
C2700 C2697 1.344 . S
C2700 C2699 1.371 . S
C2700 H2709 0.931 . S
C2701 C2697 1.328 . S
C2701 C2702 1.433 . S
C2701 H2710 0.931 . S
C2702 C2698 1.323 . S
C2702 C2701 1.433 . S
C2702 H2711 0.933 . S
C2703 Dy2673 2.738 . S
C2703 O2683 1.255 . S
C2703 O2684 1.249 . S
C2703 C2697 1.516 . S
H2704 C2690 0.930 . S
H2705 C2691 0.931 . S
H2706 C2692 0.931 . S
H2707 C2693 0.933 . S
H2708 C2699 0.930 . S
H2709 C2700 0.931 . S
H2710 C2701 0.931 . S
H2711 C2702 0.933 . S
Dy2712 O2715 2.294 1_655 S
Dy2712 O2717 2.417 . S
Dy2712 O2718 2.399 . S
Dy2712 O2720 2.325 1_655 S
Dy2712 O2722 2.290 1_655 S
Dy2712 O2726 2.265 1_655 S
Dy2712 C2734 2.762 . S
Dy2713 O2716 2.298 . S
Dy2713 O2719 2.275 . S
Dy2713 O2721 2.307 . S
Dy2713 O2723 2.395 . S
Dy2713 O2724 2.379 1_554 S
Dy2713 O2727 2.339 1_554 S
Dy2713 C2743 2.738 . S
C2714 O2726 1.254 1_556 S
C2714 O2727 1.257 . S
O2715 Dy2712 2.294 1_455 S
O2715 C2725 1.266 . S
O2716 Dy2713 2.298 . S
O2716 C2725 1.236 . S
O2717 Dy2712 2.417 . S
O2717 C2734 1.255 . S
O2718 Dy2712 2.399 . S
O2718 C2734 1.249 . S
O2719 Dy2713 2.275 . S
O2719 C2735 1.254 . S
O2720 Dy2712 2.325 1_455 S
O2720 C2735 1.257 . S
O2721 Dy2713 2.307 . S
O2721 C2736 1.266 . S
O2722 Dy2712 2.290 1_455 S
O2722 C2736 1.236 . S
O2723 Dy2713 2.395 . S
O2723 C2743 1.255 . S
O2724 Dy2713 2.379 1_556 S
O2724 C2743 1.249 1_556 S
C2725 O2715 1.266 . S
C2725 O2716 1.236 . S
O2726 Dy2712 2.265 1_455 S
O2726 C2714 1.254 1_554 S
O2727 Dy2713 2.339 1_556 S
O2727 C2714 1.257 . S
C2728 C2731 1.344 . S
C2728 C2732 1.328 . S
C2728 C2734 1.516 . S
C2729 C2730 1.304 . S
C2729 C2733 1.323 . S
C2730 C2729 1.304 . S
C2730 C2731 1.371 . S
C2730 H2744 0.930 . S
C2731 C2728 1.344 . S
C2731 C2730 1.371 . S
C2731 H2745 0.931 . S
C2732 C2728 1.328 . S
C2732 C2733 1.433 . S
C2732 H2746 0.931 . S
C2733 C2729 1.323 . S
C2733 C2732 1.433 . S
C2733 H2747 0.933 . S
C2734 Dy2712 2.762 . S
C2734 O2717 1.255 . S
C2734 O2718 1.249 . S
C2734 C2728 1.516 . S
C2735 O2719 1.254 . S
C2735 O2720 1.257 . S
C2736 O2721 1.266 . S
C2736 O2722 1.236 . S
C2737 C2740 1.344 . S
C2737 C2741 1.328 1_554 S
C2737 C2743 1.516 . S
C2738 C2739 1.306 . S
C2738 C2742 1.322 1_554 S
C2739 C2738 1.306 . S
C2739 C2740 1.371 . S
C2739 H2748 0.930 . S
C2740 C2737 1.344 . S
C2740 C2739 1.371 . S
C2740 H2749 0.931 . S
C2741 C2737 1.328 1_556 S
C2741 C2742 1.433 . S
C2741 H2750 0.931 . S
C2742 C2738 1.322 1_556 S
C2742 C2741 1.433 . S
C2742 H2751 0.933 . S
C2743 Dy2713 2.738 . S
C2743 O2723 1.255 . S
C2743 O2724 1.249 1_554 S
C2743 C2737 1.516 . S
H2744 C2730 0.930 . S
H2745 C2731 0.931 . S
H2746 C2732 0.931 . S
H2747 C2733 0.933 . S
H2748 C2739 0.930 . S
H2749 C2740 0.931 . S
H2750 C2741 0.931 . S
H2751 C2742 0.933 . S
H2752 C2758 0.930 . S
H2753 C2762 0.930 1_556 S
H2754 C2767 0.929 . S
H2755 C2765 0.929 . S
H2756 C2760 0.898 1_556 S
H2757 C2766 0.927 . S
C2758 H2752 0.930 . S
C2758 C2759 1.367 . S
C2758 C2766 1.353 1_655 S
C2759 C2758 1.367 . S
C2759 C2767 1.433 1_654 S
C2760 H2756 0.898 1_554 S
C2760 C2762 1.385 . S
C2760 C2764 1.374 . S
C2761 C2764 1.463 . S
C2761 C2766 1.380 . S
C2761 N2769 1.427 1_554 S
C2762 H2753 0.930 1_554 S
C2762 C2760 1.385 . S
C2762 C2763 1.367 . S
C2763 C2762 1.367 . S
C2763 C2765 1.433 . S
C2764 C2760 1.374 . S
C2764 C2761 1.463 . S
C2764 N2768 1.427 . S
C2765 H2755 0.929 . S
C2765 C2763 1.433 . S
C2765 N2768 1.384 . S
C2766 H2757 0.927 . S
C2766 C2758 1.353 1_455 S
C2766 C2761 1.380 . S
C2767 H2754 0.929 . S
C2767 C2759 1.433 1_456 S
C2767 N2769 1.384 . S
N2768 C2764 1.427 . S
N2768 C2765 1.384 . S
N2769 C2761 1.427 1_556 S
N2769 C2767 1.384 . S
H2770 C2776 0.930 . S
H2771 C2780 0.930 . S
H2772 C2785 0.929 . S
H2773 C2783 0.929 . S
H2774 C2778 0.929 . S
H2775 C2784 0.929 . S
C2776 H2770 0.930 . S
C2776 C2777 1.367 . S
C2776 C2784 1.378 . S
C2777 C2776 1.367 . S
C2777 C2785 1.433 . S
C2778 H2774 0.929 . S
C2778 C2780 1.378 . S
C2778 C2782 1.350 . S
C2779 C2782 1.463 . S
C2779 C2784 1.350 . S
C2779 N2787 1.427 . S
C2780 H2771 0.930 . S
C2780 C2778 1.378 . S
C2780 C2781 1.367 . S
C2781 C2780 1.367 . S
C2781 C2783 1.433 . S
C2782 C2778 1.350 . S
C2782 C2779 1.463 . S
C2782 N2786 1.427 . S
C2783 H2773 0.929 . S
C2783 C2781 1.433 . S
C2783 N2786 1.384 . S
C2784 H2775 0.929 . S
C2784 C2776 1.378 . S
C2784 C2779 1.350 . S
C2785 H2772 0.929 . S
C2785 C2777 1.433 . S
C2785 N2787 1.384 . S
N2786 C2782 1.427 . S
N2786 C2783 1.384 . S
N2787 C2779 1.427 . S
N2787 C2785 1.384 . S
H2788 C2794 0.930 . S
H2789 C2798 0.930 . S
H2790 C2803 0.929 . S
H2791 C2801 0.929 . S
H2792 C2796 0.929 . S
H2793 C2802 0.929 . S
C2794 H2788 0.930 . S
C2794 C2795 1.367 . S
C2794 C2802 1.378 . S
C2795 C2794 1.367 . S
C2795 C2803 1.433 . S
C2796 H2792 0.929 . S
C2796 C2798 1.378 . S
C2796 C2800 1.350 . S
C2797 C2800 1.463 . S
C2797 C2802 1.350 . S
C2797 N2805 1.427 . S
C2798 H2789 0.930 . S
C2798 C2796 1.378 . S
C2798 C2799 1.367 . S
C2799 C2798 1.367 . S
C2799 C2801 1.433 . S
C2800 C2796 1.350 . S
C2800 C2797 1.463 . S
C2800 N2804 1.427 . S
C2801 H2791 0.929 . S
C2801 C2799 1.433 . S
C2801 N2804 1.384 . S
C2802 H2793 0.929 . S
C2802 C2794 1.378 . S
C2802 C2797 1.350 . S
C2803 H2790 0.929 . S
C2803 C2795 1.433 . S
C2803 N2805 1.384 . S
N2804 C2800 1.427 . S
N2804 C2801 1.384 . S
N2805 C2797 1.427 . S
N2805 C2803 1.384 . S
H2806 C2812 0.930 . S
H2807 C2816 0.930 . S
H2808 C2821 0.929 . S
H2809 C2819 0.929 . S
H2810 C2814 0.929 . S
H2811 C2820 0.929 . S
C2812 H2806 0.930 . S
C2812 C2813 1.367 . S
C2812 C2820 1.378 . S
C2813 C2812 1.367 . S
C2813 C2821 1.433 . S
C2814 H2810 0.929 . S
C2814 C2816 1.378 . S
C2814 C2818 1.350 . S
C2815 C2818 1.463 . S
C2815 C2820 1.350 . S
C2815 N2823 1.427 . S
C2816 H2807 0.930 . S
C2816 C2814 1.378 . S
C2816 C2817 1.367 . S
C2817 C2816 1.367 . S
C2817 C2819 1.433 . S
C2818 C2814 1.350 . S
C2818 C2815 1.463 . S
C2818 N2822 1.427 . S
C2819 H2809 0.929 . S
C2819 C2817 1.433 . S
C2819 N2822 1.384 . S
C2820 H2811 0.929 . S
C2820 C2812 1.378 . S
C2820 C2815 1.350 . S
C2821 H2808 0.929 . S
C2821 C2813 1.433 . S
C2821 N2823 1.384 . S
N2822 C2818 1.427 . S
N2822 C2819 1.384 . S
N2823 C2815 1.427 . S
N2823 C2821 1.384 . S
H2824 C2830 0.930 . S
H2825 C2834 0.930 . S
H2826 C2839 0.906 1_655 S
H2827 C2837 0.929 . S
H2828 C2832 0.929 . S
H2829 C2838 0.929 . S
C2830 H2824 0.930 . S
C2830 C2831 1.367 . S
C2830 C2838 1.378 . S
C2831 C2830 1.367 . S
C2831 C2839 1.433 . S
C2832 H2828 0.929 . S
C2832 C2834 1.378 . S
C2832 C2836 1.350 . S
C2833 C2836 1.463 . S
C2833 C2838 1.350 . S
C2833 N2841 1.427 . S
C2834 H2825 0.930 . S
C2834 C2832 1.378 . S
C2834 C2835 1.367 . S
C2835 C2834 1.367 . S
C2835 C2837 1.433 . S
C2836 C2832 1.350 . S
C2836 C2833 1.463 . S
C2836 N2840 1.427 . S
C2837 H2827 0.929 . S
C2837 C2835 1.433 . S
C2837 N2840 1.384 . S
C2838 H2829 0.929 . S
C2838 C2830 1.378 . S
C2838 C2833 1.350 . S
C2839 H2826 0.906 1_455 S
C2839 C2831 1.433 . S
C2839 N2841 1.384 . S
N2840 C2836 1.427 . S
N2840 C2837 1.384 . S
N2841 C2833 1.427 . S
N2841 C2839 1.384 . S
H2842 C2848 0.930 . S
H2843 C2852 0.930 . S
H2844 C2857 0.929 . S
H2845 C2855 0.929 . S
H2846 C2850 0.929 . S
H2847 C2856 0.929 . S
C2848 H2842 0.930 . S
C2848 C2849 1.367 . S
C2848 C2856 1.378 . S
C2849 C2848 1.367 . S
C2849 C2857 1.433 . S
C2850 H2846 0.929 . S
C2850 C2852 1.378 . S
C2850 C2854 1.350 . S
C2851 C2854 1.463 . S
C2851 C2856 1.350 . S
C2851 N2859 1.427 . S
C2852 H2843 0.930 . S
C2852 C2850 1.378 . S
C2852 C2853 1.367 . S
C2853 C2852 1.367 . S
C2853 C2855 1.433 . S
C2854 C2850 1.350 . S
C2854 C2851 1.463 . S
C2854 N2858 1.427 . S
C2855 H2845 0.929 . S
C2855 C2853 1.433 . S
C2855 N2858 1.384 . S
C2856 H2847 0.929 . S
C2856 C2848 1.378 . S
C2856 C2851 1.350 . S
C2857 H2844 0.929 . S
C2857 C2849 1.433 . S
C2857 N2859 1.384 . S
N2858 C2854 1.427 . S
N2858 C2855 1.384 . S
N2859 C2851 1.427 . S
N2859 C2857 1.384 . S
H2860 C2866 0.930 . S
H2861 C2870 0.930 . S
H2862 C2875 0.929 . S
H2863 C2873 0.929 . S
H2864 C2868 0.929 . S
H2865 C2874 0.929 . S
C2866 H2860 0.930 . S
C2866 C2867 1.367 . S
C2866 C2874 1.378 . S
C2867 C2866 1.367 . S
C2867 C2875 1.433 . S
C2868 H2864 0.929 . S
C2868 C2870 1.378 . S
C2868 C2872 1.350 . S
C2869 C2872 1.463 . S
C2869 C2874 1.350 . S
C2869 N2877 1.427 . S
C2870 H2861 0.930 . S
C2870 C2868 1.378 . S
C2870 C2871 1.367 . S
C2871 C2870 1.367 . S
C2871 C2873 1.433 . S
C2872 C2868 1.350 . S
C2872 C2869 1.463 . S
C2872 N2876 1.427 . S
C2873 H2863 0.929 . S
C2873 C2871 1.433 . S
C2873 N2876 1.384 . S
C2874 H2865 0.929 . S
C2874 C2866 1.378 . S
C2874 C2869 1.350 . S
C2875 H2862 0.929 . S
C2875 C2867 1.433 . S
C2875 N2877 1.384 . S
N2876 C2872 1.427 . S
N2876 C2873 1.384 . S
N2877 C2869 1.427 . S
N2877 C2875 1.384 . S
H2878 C2884 0.930 . S
H2879 C2888 0.930 . S
H2880 C2893 0.929 . S
H2881 C2891 0.929 . S
H2882 C2886 0.929 . S
H2883 C2892 0.929 . S
C2884 H2878 0.930 . S
C2884 C2885 1.367 . S
C2884 C2892 1.378 . S
C2885 C2884 1.367 . S
C2885 C2893 1.433 . S
C2886 H2882 0.929 . S
C2886 C2888 1.378 . S
C2886 C2890 1.350 . S
C2887 C2890 1.463 . S
C2887 C2892 1.350 . S
C2887 N2895 1.427 . S
C2888 H2879 0.930 . S
C2888 C2886 1.378 . S
C2888 C2889 1.367 . S
C2889 C2888 1.367 . S
C2889 C2891 1.433 . S
C2890 C2886 1.350 . S
C2890 C2887 1.463 . S
C2890 N2894 1.427 . S
C2891 H2881 0.929 . S
C2891 C2889 1.433 . S
C2891 N2894 1.384 . S
C2892 H2883 0.929 . S
C2892 C2884 1.378 . S
C2892 C2887 1.350 . S
C2893 H2880 0.929 . S
C2893 C2885 1.433 . S
C2893 N2895 1.384 . S
N2894 C2890 1.427 . S
N2894 C2891 1.384 . S
N2895 C2887 1.427 . S
N2895 C2893 1.384 . S
H2896 C2902 0.925 . S
H2897 C2906 0.930 . S
H2898 C2911 0.929 . S
H2899 C2909 0.929 . S
H2900 C2904 0.932 . S
H2901 C2910 0.929 . S
C2902 H2896 0.925 . S
C2902 C2903 1.367 . S
C2902 C2910 1.378 1_655 S
C2903 C2902 1.367 . S
C2903 C2911 1.433 . S
C2904 H2900 0.932 . S
C2904 C2906 1.378 . S
C2904 C2908 1.350 . S
C2905 C2908 1.463 . S
C2905 C2910 1.350 . S
C2905 N2913 1.427 1_455 S
C2906 H2897 0.930 . S
C2906 C2904 1.378 . S
C2906 C2907 1.367 . S
C2907 C2906 1.367 . S
C2907 C2909 1.433 . S
C2908 C2904 1.350 . S
C2908 C2905 1.463 . S
C2908 N2912 1.427 . S
C2909 H2899 0.929 . S
C2909 C2907 1.433 . S
C2909 N2912 1.384 . S
C2910 H2901 0.929 . S
C2910 C2902 1.378 1_455 S
C2910 C2905 1.350 . S
C2911 H2898 0.929 . S
C2911 C2903 1.433 . S
C2911 N2913 1.384 . S
N2912 C2908 1.427 . S
N2912 C2909 1.384 . S
N2913 C2905 1.427 1_655 S
N2913 C2911 1.384 . S
H2914 C2920 0.930 . S
H2915 C2924 0.930 . S
H2916 C2929 0.929 . S
H2917 C2927 0.929 . S
H2918 C2922 0.929 . S
H2919 C2928 0.929 . S
C2920 H2914 0.930 . S
C2920 C2921 1.367 . S
C2920 C2928 1.378 . S
C2921 C2920 1.367 . S
C2921 C2929 1.433 . S
C2922 H2918 0.929 . S
C2922 C2924 1.378 . S
C2922 C2926 1.350 . S
C2923 C2926 1.463 . S
C2923 C2928 1.350 . S
C2923 N2931 1.427 . S
C2924 H2915 0.930 . S
C2924 C2922 1.378 . S
C2924 C2925 1.367 . S
C2925 C2924 1.367 . S
C2925 C2927 1.433 . S
C2926 C2922 1.350 . S
C2926 C2923 1.463 . S
C2926 N2930 1.427 . S
C2927 H2917 0.929 . S
C2927 C2925 1.433 . S
C2927 N2930 1.384 . S
C2928 H2919 0.929 . S
C2928 C2920 1.378 . S
C2928 C2923 1.350 . S
C2929 H2916 0.929 . S
C2929 C2921 1.433 . S
C2929 N2931 1.384 . S
N2930 C2926 1.427 . S
N2930 C2927 1.384 . S
N2931 C2923 1.427 . S
N2931 C2929 1.384 . S
H2932 C2938 0.930 . S
H2933 C2942 0.930 . S
H2934 C2947 0.929 . S
H2935 C2945 0.929 . S
H2936 C2940 0.929 . S
H2937 C2946 0.929 . S
C2938 H2932 0.930 . S
C2938 C2939 1.367 . S
C2938 C2946 1.378 . S
C2939 C2938 1.367 . S
C2939 C2947 1.433 . S
C2940 H2936 0.929 . S
C2940 C2942 1.378 . S
C2940 C2944 1.350 . S
C2941 C2944 1.463 . S
C2941 C2946 1.350 . S
C2941 N2949 1.427 . S
C2942 H2933 0.930 . S
C2942 C2940 1.378 . S
C2942 C2943 1.367 . S
C2943 C2942 1.367 . S
C2943 C2945 1.433 . S
C2944 C2940 1.350 . S
C2944 C2941 1.463 . S
C2944 N2948 1.427 . S
C2945 H2935 0.929 . S
C2945 C2943 1.433 . S
C2945 N2948 1.384 . S
C2946 H2937 0.929 . S
C2946 C2938 1.378 . S
C2946 C2941 1.350 . S
C2947 H2934 0.929 . S
C2947 C2939 1.433 . S
C2947 N2949 1.384 . S
N2948 C2944 1.427 . S
N2948 C2945 1.384 . S
N2949 C2941 1.427 . S
N2949 C2947 1.384 . S
H2950 C2956 0.930 . S
H2951 C2960 0.930 . S
H2952 C2965 0.929 . S
H2953 C2963 0.929 . S
H2954 C2958 0.929 . S
H2955 C2964 0.929 . S
C2956 H2950 0.930 . S
C2956 C2957 1.367 . S
C2956 C2964 1.378 . S
C2957 C2956 1.367 . S
C2957 C2965 1.433 . S
C2958 H2954 0.929 . S
C2958 C2960 1.378 . S
C2958 C2962 1.350 . S
C2959 C2962 1.463 . S
C2959 C2964 1.350 . S
C2959 N2967 1.427 . S
C2960 H2951 0.930 . S
C2960 C2958 1.378 . S
C2960 C2961 1.367 . S
C2961 C2960 1.367 . S
C2961 C2963 1.433 . S
C2962 C2958 1.350 . S
C2962 C2959 1.463 . S
C2962 N2966 1.427 . S
C2963 H2953 0.929 . S
C2963 C2961 1.433 . S
C2963 N2966 1.384 . S
C2964 H2955 0.929 . S
C2964 C2956 1.378 . S
C2964 C2959 1.350 . S
C2965 H2952 0.929 . S
C2965 C2957 1.433 . S
C2965 N2967 1.384 . S
N2966 C2962 1.427 . S
N2966 C2963 1.384 . S
N2967 C2959 1.427 . S
N2967 C2965 1.384 . S
H2968 C2974 0.930 . S
H2969 C2978 0.930 . S
H2970 C2983 0.929 . S
H2971 C2981 0.929 . S
H2972 C2976 0.929 . S
H2973 C2982 0.929 . S
C2974 H2968 0.930 . S
C2974 C2975 1.366 . S
C2974 C2982 1.378 . S
C2975 C2974 1.366 . S
C2975 C2983 1.434 1_455 S
C2976 H2972 0.929 . S
C2976 C2978 1.378 . S
C2976 C2980 1.350 1_655 S
C2977 C2980 1.463 . S
C2977 C2982 1.350 . S
C2977 N2985 1.427 1_455 S
C2978 H2969 0.930 . S
C2978 C2976 1.378 . S
C2978 C2979 1.367 1_655 S
C2979 C2978 1.367 1_455 S
C2979 C2981 1.433 . S
C2980 C2976 1.350 1_455 S
C2980 C2977 1.463 . S
C2980 N2984 1.427 . S
C2981 H2971 0.929 . S
C2981 C2979 1.433 . S
C2981 N2984 1.384 . S
C2982 H2973 0.929 . S
C2982 C2974 1.378 . S
C2982 C2977 1.350 . S
C2983 H2970 0.929 . S
C2983 C2975 1.434 1_655 S
C2983 N2985 1.384 . S
N2984 C2980 1.427 . S
N2984 C2981 1.384 . S
N2985 C2977 1.427 1_655 S
N2985 C2983 1.384 . S
H2986 C2992 0.930 . S
H2987 C2996 0.930 . S
H2988 C3001 0.929 . S
H2989 C2999 0.929 . S
H2990 C2994 0.929 . S
H2991 C3000 0.929 . S
C2992 H2986 0.930 . S
C2992 C2993 1.367 . S
C2992 C3000 1.378 . S
C2993 C2992 1.367 . S
C2993 C3001 1.433 . S
C2994 H2990 0.929 . S
C2994 C2996 1.378 . S
C2994 C2998 1.350 . S
C2995 C2998 1.463 . S
C2995 C3000 1.350 . S
C2995 N3003 1.427 . S
C2996 H2987 0.930 . S
C2996 C2994 1.378 . S
C2996 C2997 1.367 . S
C2997 C2996 1.367 . S
C2997 C2999 1.433 . S
C2998 C2994 1.350 . S
C2998 C2995 1.463 . S
C2998 N3002 1.427 . S
C2999 H2989 0.929 . S
C2999 C2997 1.433 . S
C2999 N3002 1.384 . S
C3000 H2991 0.929 . S
C3000 C2992 1.378 . S
C3000 C2995 1.350 . S
C3001 H2988 0.929 . S
C3001 C2993 1.433 . S
C3001 N3003 1.384 . S
N3002 C2998 1.427 . S
N3002 C2999 1.384 . S
N3003 C2995 1.427 . S
N3003 C3001 1.384 . S
H3004 C3010 0.930 . S
H3005 C3014 0.930 . S
H3006 C3019 0.929 . S
H3007 C3017 0.929 . S
H3008 C3012 0.929 . S
H3009 C3018 0.929 . S
C3010 H3004 0.930 . S
C3010 C3011 1.367 . S
C3010 C3018 1.378 . S
C3011 C3010 1.367 . S
C3011 C3019 1.433 . S
C3012 H3008 0.929 . S
C3012 C3014 1.378 . S
C3012 C3016 1.350 . S
C3013 C3016 1.463 . S
C3013 C3018 1.350 . S
C3013 N3021 1.427 . S
C3014 H3005 0.930 . S
C3014 C3012 1.378 . S
C3014 C3015 1.367 . S
C3015 C3014 1.367 . S
C3015 C3017 1.433 . S
C3016 C3012 1.350 . S
C3016 C3013 1.463 . S
C3016 N3020 1.427 . S
C3017 H3007 0.929 . S
C3017 C3015 1.433 . S
C3017 N3020 1.384 . S
C3018 H3009 0.929 . S
C3018 C3010 1.378 . S
C3018 C3013 1.350 . S
C3019 H3006 0.929 . S
C3019 C3011 1.433 . S
C3019 N3021 1.384 . S
N3020 C3016 1.427 . S
N3020 C3017 1.384 . S
N3021 C3013 1.427 . S
N3021 C3019 1.384 . S
H3022 C3028 0.930 . S
H3023 C3032 0.930 . S
H3024 C3037 0.929 . S
H3025 C3035 0.929 . S
H3026 C3030 0.929 . S
H3027 C3036 0.929 . S
C3028 H3022 0.930 . S
C3028 C3029 1.367 . S
C3028 C3036 1.378 . S
C3029 C3028 1.367 . S
C3029 C3037 1.433 . S
C3030 H3026 0.929 . S
C3030 C3032 1.378 . S
C3030 C3034 1.350 . S
C3031 C3034 1.463 . S
C3031 C3036 1.350 . S
C3031 N3039 1.427 . S
C3032 H3023 0.930 . S
C3032 C3030 1.378 . S
C3032 C3033 1.367 . S
C3033 C3032 1.367 . S
C3033 C3035 1.433 . S
C3034 C3030 1.350 . S
C3034 C3031 1.463 . S
C3034 N3038 1.427 . S
C3035 H3025 0.929 . S
C3035 C3033 1.433 . S
C3035 N3038 1.384 . S
C3036 H3027 0.929 . S
C3036 C3028 1.378 . S
C3036 C3031 1.350 . S
C3037 H3024 0.929 . S
C3037 C3029 1.433 . S
C3037 N3039 1.384 . S
N3038 C3034 1.427 . S
N3038 C3035 1.384 . S
N3039 C3031 1.427 . S
N3039 C3037 1.384 . S
H3040 C3046 0.930 . S
H3041 C3050 0.930 . S
H3042 C3055 0.929 . S
H3043 C3053 0.929 . S
H3044 C3048 0.929 1_545 S
H3045 C3054 0.929 1_556 S
C3046 H3040 0.930 . S
C3046 C3047 1.367 1_556 S
C3046 C3054 1.378 1_556 S
C3047 C3046 1.367 1_554 S
C3047 C3055 1.433 . S
C3048 H3044 0.929 1_565 S
C3048 C3050 1.378 1_565 S
C3048 C3052 1.350 . S
C3049 C3052 1.463 . S
C3049 C3054 1.350 . S
C3049 N3057 1.427 . S
C3050 H3041 0.930 . S
C3050 C3048 1.378 1_545 S
C3050 C3051 1.366 1_545 S
C3051 C3050 1.366 1_565 S
C3051 C3053 1.449 . S
C3052 C3048 1.350 . S
C3052 C3049 1.463 . S
C3052 N3056 1.427 . S
C3053 H3043 0.929 . S
C3053 C3051 1.449 . S
C3053 N3056 1.384 . S
C3054 H3045 0.929 1_554 S
C3054 C3046 1.378 1_554 S
C3054 C3049 1.350 . S
C3055 H3042 0.929 . S
C3055 C3047 1.433 . S
C3055 N3057 1.384 . S
N3056 C3052 1.427 . S
N3056 C3053 1.384 . S
N3057 C3049 1.427 . S
N3057 C3055 1.384 . S
H3058 C3064 0.931 . S
H3059 C3068 0.930 . S
H3060 C3073 0.929 . S
H3061 C3071 0.929 1_556 S
H3062 C3066 0.929 . S
H3063 C3072 0.929 1_556 S
C3064 H3058 0.931 . S
C3064 C3065 1.366 1_556 S
C3064 C3072 1.378 1_556 S
C3065 C3064 1.366 1_554 S
C3065 C3073 1.433 . S
C3066 H3062 0.929 . S
C3066 C3068 1.378 . S
C3066 C3070 1.350 . S
C3067 C3070 1.463 . S
C3067 C3072 1.350 . S
C3067 N3075 1.427 . S
C3068 H3059 0.930 . S
C3068 C3066 1.378 . S
C3068 C3069 1.367 . S
C3069 C3068 1.367 . S
C3069 C3071 1.433 . S
C3070 C3066 1.350 . S
C3070 C3067 1.463 . S
C3070 N3074 1.427 . S
C3071 H3061 0.929 1_554 S
C3071 C3069 1.433 . S
C3071 N3074 1.384 . S
C3072 H3063 0.929 1_554 S
C3072 C3064 1.378 1_554 S
C3072 C3067 1.350 . S
C3073 H3060 0.929 . S
C3073 C3065 1.433 . S
C3073 N3075 1.384 . S
N3074 C3070 1.427 . S
N3074 C3071 1.384 . S
N3075 C3067 1.427 . S
N3075 C3073 1.384 . S
H3076 C3082 0.930 . S
H3077 C3086 0.930 . S
H3078 C3091 0.929 . S
H3079 C3089 0.929 . S
H3080 C3084 0.929 . S
H3081 C3090 0.929 . S
C3082 H3076 0.930 . S
C3082 C3083 1.367 . S
C3082 C3090 1.378 . S
C3083 C3082 1.367 . S
C3083 C3091 1.433 . S
C3084 H3080 0.929 . S
C3084 C3086 1.378 . S
C3084 C3088 1.350 . S
C3085 C3088 1.463 . S
C3085 C3090 1.350 . S
C3085 N3093 1.427 . S
C3086 H3077 0.930 . S
C3086 C3084 1.378 . S
C3086 C3087 1.367 . S
C3087 C3086 1.367 . S
C3087 C3089 1.433 . S
C3088 C3084 1.350 . S
C3088 C3085 1.463 . S
C3088 N3092 1.427 . S
C3089 H3079 0.929 . S
C3089 C3087 1.433 . S
C3089 N3092 1.384 . S
C3090 H3081 0.929 . S
C3090 C3082 1.378 . S
C3090 C3085 1.350 . S
C3091 H3078 0.929 . S
C3091 C3083 1.433 . S
C3091 N3093 1.384 . S
N3092 C3088 1.427 . S
N3092 C3089 1.384 . S
N3093 C3085 1.427 . S
N3093 C3091 1.384 . S
H3094 C3100 0.930 . S
H3095 C3104 0.930 . S
H3096 C3109 0.929 . S
H3097 C3107 0.929 . S
H3098 C3102 0.929 . S
H3099 C3108 0.929 . S
C3100 H3094 0.930 . S
C3100 C3101 1.367 . S
C3100 C3108 1.378 . S
C3101 C3100 1.367 . S
C3101 C3109 1.433 . S
C3102 H3098 0.929 . S
C3102 C3104 1.378 . S
C3102 C3106 1.350 . S
C3103 C3106 1.463 . S
C3103 C3108 1.350 . S
C3103 N3111 1.427 . S
C3104 H3095 0.930 . S
C3104 C3102 1.378 . S
C3104 C3105 1.367 . S
C3105 C3104 1.367 . S
C3105 C3107 1.433 . S
C3106 C3102 1.350 . S
C3106 C3103 1.463 . S
C3106 N3110 1.427 . S
C3107 H3097 0.929 . S
C3107 C3105 1.433 . S
C3107 N3110 1.384 . S
C3108 H3099 0.929 . S
C3108 C3100 1.378 . S
C3108 C3103 1.350 . S
C3109 H3096 0.929 . S
C3109 C3101 1.433 . S
C3109 N3111 1.384 . S
N3110 C3106 1.427 . S
N3110 C3107 1.384 . S
N3111 C3103 1.427 . S
N3111 C3109 1.384 . S
H3112 C3118 0.930 . S
H3113 C3122 0.930 . S
H3114 C3127 0.929 . S
H3115 C3125 0.929 . S
H3116 C3120 0.929 . S
H3117 C3126 0.929 . S
C3118 H3112 0.930 . S
C3118 C3119 1.367 . S
C3118 C3126 1.378 . S
C3119 C3118 1.367 . S
C3119 C3127 1.433 . S
C3120 H3116 0.929 . S
C3120 C3122 1.378 . S
C3120 C3124 1.350 . S
C3121 C3124 1.463 . S
C3121 C3126 1.350 . S
C3121 N3129 1.427 . S
C3122 H3113 0.930 . S
C3122 C3120 1.378 . S
C3122 C3123 1.367 . S
C3123 C3122 1.367 . S
C3123 C3125 1.433 . S
C3124 C3120 1.350 . S
C3124 C3121 1.463 . S
C3124 N3128 1.427 . S
C3125 H3115 0.929 . S
C3125 C3123 1.433 . S
C3125 N3128 1.384 . S
C3126 H3117 0.929 . S
C3126 C3118 1.378 . S
C3126 C3121 1.350 . S
C3127 H3114 0.929 . S
C3127 C3119 1.433 . S
C3127 N3129 1.384 . S
N3128 C3124 1.427 . S
N3128 C3125 1.384 . S
N3129 C3121 1.427 . S
N3129 C3127 1.384 . S
H3130 C3136 0.930 . S
H3131 C3140 0.930 . S
H3132 C3145 0.929 . S
H3133 C3143 0.929 . S
H3134 C3138 0.929 . S
H3135 C3144 0.929 . S
C3136 H3130 0.930 . S
C3136 C3137 1.367 . S
C3136 C3144 1.378 . S
C3137 C3136 1.367 . S
C3137 C3145 1.433 . S
C3138 H3134 0.929 . S
C3138 C3140 1.378 . S
C3138 C3142 1.350 . S
C3139 C3142 1.463 . S
C3139 C3144 1.350 . S
C3139 N3147 1.427 . S
C3140 H3131 0.930 . S
C3140 C3138 1.378 . S
C3140 C3141 1.367 . S
C3141 C3140 1.367 . S
C3141 C3143 1.433 . S
C3142 C3138 1.350 . S
C3142 C3139 1.463 . S
C3142 N3146 1.427 . S
C3143 H3133 0.929 . S
C3143 C3141 1.433 . S
C3143 N3146 1.384 . S
C3144 H3135 0.929 . S
C3144 C3136 1.378 . S
C3144 C3139 1.350 . S
C3145 H3132 0.929 . S
C3145 C3137 1.433 . S
C3145 N3147 1.384 . S
N3146 C3142 1.427 . S
N3146 C3143 1.384 . S
N3147 C3139 1.427 . S
N3147 C3145 1.384 . S
H3148 C3154 0.930 . S
H3149 C3158 0.930 . S
H3150 C3163 0.929 . S
H3151 C3161 0.929 . S
H3152 C3156 0.929 . S
H3153 C3162 0.929 . S
C3154 H3148 0.930 . S
C3154 C3155 1.367 . S
C3154 C3162 1.378 . S
C3155 C3154 1.367 . S
C3155 C3163 1.433 . S
C3156 H3152 0.929 . S
C3156 C3158 1.378 . S
C3156 C3160 1.350 . S
C3157 C3160 1.463 . S
C3157 C3162 1.350 . S
C3157 N3165 1.427 . S
C3158 H3149 0.930 . S
C3158 C3156 1.378 . S
C3158 C3159 1.367 . S
C3159 C3158 1.367 . S
C3159 C3161 1.433 . S
C3160 C3156 1.350 . S
C3160 C3157 1.463 . S
C3160 N3164 1.427 . S
C3161 H3151 0.929 . S
C3161 C3159 1.433 . S
C3161 N3164 1.384 . S
C3162 H3153 0.929 . S
C3162 C3154 1.378 . S
C3162 C3157 1.350 . S
C3163 H3150 0.929 . S
C3163 C3155 1.433 . S
C3163 N3165 1.384 . S
N3164 C3160 1.427 . S
N3164 C3161 1.384 . S
N3165 C3157 1.427 . S
N3165 C3163 1.384 . S
H3166 C3172 0.930 . S
H3167 C3176 0.930 . S
H3168 C3181 0.929 . S
H3169 C3179 0.929 . S
H3170 C3174 0.929 . S
H3171 C3180 0.929 . S
C3172 H3166 0.930 . S
C3172 C3173 1.367 . S
C3172 C3180 1.378 . S
C3173 C3172 1.367 . S
C3173 C3181 1.433 . S
C3174 H3170 0.929 . S
C3174 C3176 1.378 . S
C3174 C3178 1.350 . S
C3175 C3178 1.463 . S
C3175 C3180 1.350 . S
C3175 N3183 1.427 . S
C3176 H3167 0.930 . S
C3176 C3174 1.378 . S
C3176 C3177 1.367 . S
C3177 C3176 1.367 . S
C3177 C3179 1.433 . S
C3178 C3174 1.350 . S
C3178 C3175 1.463 . S
C3178 N3182 1.427 . S
C3179 H3169 0.929 . S
C3179 C3177 1.433 . S
C3179 N3182 1.384 . S
C3180 H3171 0.929 . S
C3180 C3172 1.378 . S
C3180 C3175 1.350 . S
C3181 H3168 0.929 . S
C3181 C3173 1.433 . S
C3181 N3183 1.384 . S
N3182 C3178 1.427 . S
N3182 C3179 1.384 . S
N3183 C3175 1.427 . S
N3183 C3181 1.384 . S
H3184 C3190 0.930 . S
H3185 C3194 0.930 . S
H3186 C3199 0.929 . S
H3187 C3197 0.929 . S
H3188 C3192 0.929 . S
H3189 C3198 0.929 . S
C3190 H3184 0.930 . S
C3190 C3191 1.367 . S
C3190 C3198 1.378 . S
C3191 C3190 1.367 . S
C3191 C3199 1.433 . S
C3192 H3188 0.929 . S
C3192 C3194 1.378 . S
C3192 C3196 1.350 . S
C3193 C3196 1.463 . S
C3193 C3198 1.350 . S
C3193 N3201 1.427 . S
C3194 H3185 0.930 . S
C3194 C3192 1.378 . S
C3194 C3195 1.367 . S
C3195 C3194 1.367 . S
C3195 C3197 1.433 . S
C3196 C3192 1.350 . S
C3196 C3193 1.463 . S
C3196 N3200 1.427 . S
C3197 H3187 0.929 . S
C3197 C3195 1.433 . S
C3197 N3200 1.384 . S
C3198 H3189 0.929 . S
C3198 C3190 1.378 . S
C3198 C3193 1.350 . S
C3199 H3186 0.929 . S
C3199 C3191 1.433 . S
C3199 N3201 1.384 . S
N3200 C3196 1.427 . S
N3200 C3197 1.384 . S
N3201 C3193 1.427 . S
N3201 C3199 1.384 . S
H3202 C3208 0.930 . S
H3203 C3212 0.930 . S
H3204 C3217 0.929 . S
H3205 C3215 0.929 . S
H3206 C3210 0.929 . S
H3207 C3216 0.929 . S
C3208 H3202 0.930 . S
C3208 C3209 1.367 . S
C3208 C3216 1.378 . S
C3209 C3208 1.367 . S
C3209 C3217 1.433 . S
C3210 H3206 0.929 . S
C3210 C3212 1.378 . S
C3210 C3214 1.350 . S
C3211 C3214 1.463 . S
C3211 C3216 1.350 . S
C3211 N3219 1.427 . S
C3212 H3203 0.930 . S
C3212 C3210 1.378 . S
C3212 C3213 1.367 . S
C3213 C3212 1.367 . S
C3213 C3215 1.433 . S
C3214 C3210 1.350 . S
C3214 C3211 1.463 . S
C3214 N3218 1.427 . S
C3215 H3205 0.929 . S
C3215 C3213 1.433 . S
C3215 N3218 1.384 . S
C3216 H3207 0.929 . S
C3216 C3208 1.378 . S
C3216 C3211 1.350 . S
C3217 H3204 0.929 . S
C3217 C3209 1.433 . S
C3217 N3219 1.384 . S
N3218 C3214 1.427 . S
N3218 C3215 1.384 . S
N3219 C3211 1.427 . S
N3219 C3217 1.384 . S
H3220 C3226 0.930 . S
H3221 C3230 0.930 . S
H3222 C3235 0.929 . S
H3223 C3233 0.929 . S
H3224 C3228 0.929 . S
H3225 C3234 0.929 . S
C3226 H3220 0.930 . S
C3226 C3227 1.367 . S
C3226 C3234 1.378 . S
C3227 C3226 1.367 . S
C3227 C3235 1.433 . S
C3228 H3224 0.929 . S
C3228 C3230 1.378 . S
C3228 C3232 1.350 . S
C3229 C3232 1.463 . S
C3229 C3234 1.350 . S
C3229 N3237 1.427 . S
C3230 H3221 0.930 . S
C3230 C3228 1.378 . S
C3230 C3231 1.367 . S
C3231 C3230 1.367 . S
C3231 C3233 1.433 . S
C3232 C3228 1.350 . S
C3232 C3229 1.463 . S
C3232 N3236 1.427 . S
C3233 H3223 0.929 . S
C3233 C3231 1.433 . S
C3233 N3236 1.384 . S
C3234 H3225 0.929 . S
C3234 C3226 1.378 . S
C3234 C3229 1.350 . S
C3235 H3222 0.929 . S
C3235 C3227 1.433 . S
C3235 N3237 1.384 . S
N3236 C3232 1.427 . S
N3236 C3233 1.384 . S
N3237 C3229 1.427 . S
N3237 C3235 1.384 . S
H3238 C3244 0.930 . S
H3239 C3248 0.930 . S
H3240 C3253 0.929 . S
H3241 C3251 0.929 . S
H3242 C3246 0.929 . S
H3243 C3252 0.929 . S
C3244 H3238 0.930 . S
C3244 C3245 1.367 . S
C3244 C3252 1.378 . S
C3245 C3244 1.367 . S
C3245 C3253 1.433 . S
C3246 H3242 0.929 . S
C3246 C3248 1.378 . S
C3246 C3250 1.350 . S
C3247 C3250 1.463 . S
C3247 C3252 1.350 . S
C3247 N3255 1.427 . S
C3248 H3239 0.930 . S
C3248 C3246 1.378 . S
C3248 C3249 1.367 . S
C3249 C3248 1.367 . S
C3249 C3251 1.433 . S
C3250 C3246 1.350 . S
C3250 C3247 1.463 . S
C3250 N3254 1.427 . S
C3251 H3241 0.929 . S
C3251 C3249 1.433 . S
C3251 N3254 1.384 . S
C3252 H3243 0.929 . S
C3252 C3244 1.378 . S
C3252 C3247 1.350 . S
C3253 H3240 0.929 . S
C3253 C3245 1.433 . S
C3253 N3255 1.384 . S
N3254 C3250 1.427 . S
N3254 C3251 1.384 . S
N3255 C3247 1.427 . S
N3255 C3253 1.384 . S
H3256 C3262 0.930 . S
H3257 C3266 0.930 . S
H3258 C3271 0.929 . S
H3259 C3269 0.929 . S
H3260 C3264 0.929 . S
H3261 C3270 0.929 1_655 S
C3262 H3256 0.930 . S
C3262 C3263 1.367 . S
C3262 C3270 1.378 . S
C3263 C3262 1.367 . S
C3263 C3271 1.433 . S
C3264 H3260 0.929 . S
C3264 C3266 1.378 . S
C3264 C3268 1.350 . S
C3265 C3268 1.463 . S
C3265 C3270 1.350 . S
C3265 N3273 1.427 . S
C3266 H3257 0.930 . S
C3266 C3264 1.378 . S
C3266 C3267 1.367 . S
C3267 C3266 1.367 . S
C3267 C3269 1.433 1_455 S
C3268 C3264 1.350 . S
C3268 C3265 1.463 . S
C3268 N3272 1.421 1_455 S
C3269 H3259 0.929 . S
C3269 C3267 1.433 1_655 S
C3269 N3272 1.384 . S
C3270 H3261 0.929 1_455 S
C3270 C3262 1.378 . S
C3270 C3265 1.350 . S
C3271 H3258 0.929 . S
C3271 C3263 1.433 . S
C3271 N3273 1.384 . S
N3272 C3268 1.421 1_655 S
N3272 C3269 1.384 . S
N3273 C3265 1.427 . S
N3273 C3271 1.384 . S
H3274 C3280 0.930 . S
H3275 C3284 0.930 . S
H3276 C3289 0.929 . S
H3277 C3287 0.929 . S
H3278 C3282 0.929 . S
H3279 C3288 0.929 . S
C3280 H3274 0.930 . S
C3280 C3281 1.367 . S
C3280 C3288 1.378 . S
C3281 C3280 1.367 . S
C3281 C3289 1.433 . S
C3282 H3278 0.929 . S
C3282 C3284 1.378 . S
C3282 C3286 1.350 . S
C3283 C3286 1.463 . S
C3283 C3288 1.350 . S
C3283 N3291 1.427 . S
C3284 H3275 0.930 . S
C3284 C3282 1.378 . S
C3284 C3285 1.367 . S
C3285 C3284 1.367 . S
C3285 C3287 1.433 . S
C3286 C3282 1.350 . S
C3286 C3283 1.463 . S
C3286 N3290 1.427 . S
C3287 H3277 0.929 . S
C3287 C3285 1.433 . S
C3287 N3290 1.384 . S
C3288 H3279 0.929 . S
C3288 C3280 1.378 . S
C3288 C3283 1.350 . S
C3289 H3276 0.929 . S
C3289 C3281 1.433 . S
C3289 N3291 1.384 . S
N3290 C3286 1.427 . S
N3290 C3287 1.384 . S
N3291 C3283 1.427 . S
N3291 C3289 1.384 . S
H3292 C3298 0.930 . S
H3293 C3302 0.930 . S
H3294 C3307 0.929 . S
H3295 C3305 0.929 . S
H3296 C3300 0.929 . S
H3297 C3306 0.929 . S
C3298 H3292 0.930 . S
C3298 C3299 1.367 . S
C3298 C3306 1.378 . S
C3299 C3298 1.367 . S
C3299 C3307 1.433 . S
C3300 H3296 0.929 . S
C3300 C3302 1.378 . S
C3300 C3304 1.350 . S
C3301 C3304 1.463 . S
C3301 C3306 1.350 . S
C3301 N3309 1.427 . S
C3302 H3293 0.930 . S
C3302 C3300 1.378 . S
C3302 C3303 1.367 . S
C3303 C3302 1.367 . S
C3303 C3305 1.433 . S
C3304 C3300 1.350 . S
C3304 C3301 1.463 . S
C3304 N3308 1.427 . S
C3305 H3295 0.929 . S
C3305 C3303 1.433 . S
C3305 N3308 1.384 . S
C3306 H3297 0.929 . S
C3306 C3298 1.378 . S
C3306 C3301 1.350 . S
C3307 H3294 0.929 . S
C3307 C3299 1.433 . S
C3307 N3309 1.384 . S
N3308 C3304 1.427 . S
N3308 C3305 1.384 . S
N3309 C3301 1.427 . S
N3309 C3307 1.384 . S
H3310 C3316 0.930 . S
H3311 C3320 0.930 . S
H3312 C3325 0.929 . S
H3313 C3323 0.929 . S
H3314 C3318 0.929 . S
H3315 C3324 0.929 . S
C3316 H3310 0.930 . S
C3316 C3317 1.367 . S
C3316 C3324 1.378 . S
C3317 C3316 1.367 . S
C3317 C3325 1.433 . S
C3318 H3314 0.929 . S
C3318 C3320 1.378 . S
C3318 C3322 1.350 . S
C3319 C3322 1.463 . S
C3319 C3324 1.350 . S
C3319 N3327 1.427 . S
C3320 H3311 0.930 . S
C3320 C3318 1.378 . S
C3320 C3321 1.367 . S
C3321 C3320 1.367 . S
C3321 C3323 1.433 . S
C3322 C3318 1.350 . S
C3322 C3319 1.463 . S
C3322 N3326 1.427 . S
C3323 H3313 0.929 . S
C3323 C3321 1.433 . S
C3323 N3326 1.384 . S
C3324 H3315 0.929 . S
C3324 C3316 1.378 . S
C3324 C3319 1.350 . S
C3325 H3312 0.929 . S
C3325 C3317 1.433 . S
C3325 N3327 1.384 . S
N3326 C3322 1.427 . S
N3326 C3323 1.384 . S
N3327 C3319 1.427 . S
N3327 C3325 1.384 . S
H3328 C3334 0.930 . S
H3329 C3338 0.930 . S
H3330 C3343 0.929 . S
H3331 C3341 0.952 . S
H3332 C3336 0.929 . S
H3333 C3342 0.929 . S
C3334 H3328 0.930 . S
C3334 C3335 1.367 . S
C3334 C3342 1.378 . S
C3335 C3334 1.367 . S
C3335 C3343 1.433 . S
C3336 H3332 0.929 . S
C3336 C3338 1.378 . S
C3336 C3340 1.350 . S
C3337 C3340 1.463 . S
C3337 C3342 1.350 . S
C3337 N3345 1.427 . S
C3338 H3329 0.930 . S
C3338 C3336 1.378 . S
C3338 C3339 1.367 . S
C3339 C3338 1.367 . S
C3339 C3341 1.433 . S
C3340 C3336 1.350 . S
C3340 C3337 1.463 . S
C3340 N3344 1.427 . S
C3341 H3331 0.952 . S
C3341 C3339 1.433 . S
C3341 N3344 1.384 . S
C3342 H3333 0.929 . S
C3342 C3334 1.378 . S
C3342 C3337 1.350 . S
C3343 H3330 0.929 . S
C3343 C3335 1.433 . S
C3343 N3345 1.384 . S
N3344 C3340 1.427 . S
N3344 C3341 1.384 . S
N3345 C3337 1.427 . S
N3345 C3343 1.384 . S
H3346 C3352 0.930 . S
H3347 C3356 0.930 . S
H3348 C3361 0.929 . S
H3349 C3359 0.929 . S
H3350 C3354 0.929 . S
H3351 C3360 0.929 . S
C3352 H3346 0.930 . S
C3352 C3353 1.367 . S
C3352 C3360 1.378 . S
C3353 C3352 1.367 . S
C3353 C3361 1.433 . S
C3354 H3350 0.929 . S
C3354 C3356 1.378 . S
C3354 C3358 1.350 . S
C3355 C3358 1.463 . S
C3355 C3360 1.350 . S
C3355 N3363 1.427 . S
C3356 H3347 0.930 . S
C3356 C3354 1.378 . S
C3356 C3357 1.367 . S
C3357 C3356 1.367 . S
C3357 C3359 1.433 . S
C3358 C3354 1.350 . S
C3358 C3355 1.463 . S
C3358 N3362 1.427 . S
C3359 H3349 0.929 . S
C3359 C3357 1.433 . S
C3359 N3362 1.384 . S
C3360 H3351 0.929 . S
C3360 C3352 1.378 . S
C3360 C3355 1.350 . S
C3361 H3348 0.929 . S
C3361 C3353 1.433 . S
C3361 N3363 1.384 . S
N3362 C3358 1.427 . S
N3362 C3359 1.384 . S
N3363 C3355 1.427 . S
N3363 C3361 1.384 . S
H3364 C3370 0.930 1_565 S
H3365 C3374 0.930 . S
H3366 C3379 0.929 . S
H3367 C3377 0.929 . S
H3368 C3372 0.929 . S
H3369 C3378 0.929 1_565 S
C3370 H3364 0.930 1_545 S
C3370 C3371 1.367 . S
C3370 C3378 1.378 . S
C3371 C3370 1.367 . S
C3371 C3379 1.433 . S
C3372 H3368 0.929 . S
C3372 C3374 1.378 . S
C3372 C3376 1.350 . S
C3373 C3376 1.463 . S
C3373 C3378 1.350 . S
C3373 N3381 1.427 . S
C3374 H3365 0.930 . S
C3374 C3372 1.378 . S
C3374 C3375 1.367 . S
C3375 C3374 1.367 . S
C3375 C3377 1.433 . S
C3376 C3372 1.350 . S
C3376 C3373 1.463 . S
C3376 N3380 1.427 . S
C3377 H3367 0.929 . S
C3377 C3375 1.433 . S
C3377 N3380 1.384 . S
C3378 H3369 0.929 1_545 S
C3378 C3370 1.378 . S
C3378 C3373 1.350 . S
C3379 H3366 0.929 . S
C3379 C3371 1.433 . S
C3379 N3381 1.384 . S
N3380 C3376 1.427 . S
N3380 C3377 1.384 . S
N3381 C3373 1.427 . S
N3381 C3379 1.384 . S
H3382 C3388 0.930 . S
H3383 C3392 0.930 . S
H3384 C3397 0.929 . S
H3385 C3395 0.929 . S
H3386 C3390 0.929 . S
H3387 C3396 0.929 . S
C3388 H3382 0.930 . S
C3388 C3389 1.367 . S
C3388 C3396 1.378 . S
C3389 C3388 1.367 . S
C3389 C3397 1.433 . S
C3390 H3386 0.929 . S
C3390 C3392 1.378 . S
C3390 C3394 1.350 . S
C3391 C3394 1.463 . S
C3391 C3396 1.350 . S
C3391 N3399 1.427 . S
C3392 H3383 0.930 . S
C3392 C3390 1.378 . S
C3392 C3393 1.367 . S
C3393 C3392 1.367 . S
C3393 C3395 1.433 . S
C3394 C3390 1.350 . S
C3394 C3391 1.463 . S
C3394 N3398 1.427 . S
C3395 H3385 0.929 . S
C3395 C3393 1.433 . S
C3395 N3398 1.384 . S
C3396 H3387 0.929 . S
C3396 C3388 1.378 . S
C3396 C3391 1.350 . S
C3397 H3384 0.929 . S
C3397 C3389 1.433 . S
C3397 N3399 1.384 . S
N3398 C3394 1.427 . S
N3398 C3395 1.384 . S
N3399 C3391 1.427 . S
N3399 C3397 1.384 . S
H3400 C3406 0.930 . S
H3401 C3410 0.930 . S
H3402 C3415 0.929 1_565 S
H3403 C3413 0.929 . S
H3404 C3408 0.929 . S
H3405 C3414 0.929 . S
C3406 H3400 0.930 . S
C3406 C3407 1.367 . S
C3406 C3414 1.378 . S
C3407 C3406 1.367 . S
C3407 C3415 1.433 . S
C3408 H3404 0.929 . S
C3408 C3410 1.378 . S
C3408 C3412 1.350 . S
C3409 C3412 1.463 . S
C3409 C3414 1.350 . S
C3409 N3417 1.427 . S
C3410 H3401 0.930 . S
C3410 C3408 1.378 . S
C3410 C3411 1.367 . S
C3411 C3410 1.367 . S
C3411 C3413 1.433 . S
C3412 C3408 1.350 . S
C3412 C3409 1.463 . S
C3412 N3416 1.427 . S
C3413 H3403 0.929 . S
C3413 C3411 1.433 . S
C3413 N3416 1.384 . S
C3414 H3405 0.929 . S
C3414 C3406 1.378 . S
C3414 C3409 1.350 . S
C3415 H3402 0.929 1_545 S
C3415 C3407 1.433 . S
C3415 N3417 1.384 . S
N3416 C3412 1.427 . S
N3416 C3413 1.384 . S
N3417 C3409 1.427 . S
N3417 C3415 1.384 . S
H3418 C3424 0.930 . S
H3419 C3428 0.930 . S
H3420 C3433 0.929 . S
H3421 C3431 0.929 . S
H3422 C3426 0.929 . S
H3423 C3432 0.929 . S
C3424 H3418 0.930 . S
C3424 C3425 1.367 . S
C3424 C3432 1.378 . S
C3425 C3424 1.367 . S
C3425 C3433 1.433 . S
C3426 H3422 0.929 . S
C3426 C3428 1.378 . S
C3426 C3430 1.350 . S
C3427 C3430 1.463 . S
C3427 C3432 1.350 . S
C3427 N3435 1.427 . S
C3428 H3419 0.930 . S
C3428 C3426 1.378 . S
C3428 C3429 1.367 . S
C3429 C3428 1.367 . S
C3429 C3431 1.433 . S
C3430 C3426 1.350 . S
C3430 C3427 1.463 . S
C3430 N3434 1.427 . S
C3431 H3421 0.929 . S
C3431 C3429 1.433 . S
C3431 N3434 1.384 . S
C3432 H3423 0.929 . S
C3432 C3424 1.378 . S
C3432 C3427 1.350 . S
C3433 H3420 0.929 . S
C3433 C3425 1.433 . S
C3433 N3435 1.384 . S
N3434 C3430 1.427 . S
N3434 C3431 1.384 . S
N3435 C3427 1.427 . S
N3435 C3433 1.384 . S
H3436 C3442 0.930 . S
H3437 C3446 0.930 . S
H3438 C3451 0.929 . S
H3439 C3449 0.929 . S
H3440 C3444 0.929 . S
H3441 C3450 0.929 . S
C3442 H3436 0.930 . S
C3442 C3443 1.367 . S
C3442 C3450 1.378 . S
C3443 C3442 1.367 . S
C3443 C3451 1.433 1_545 S
C3444 H3440 0.929 . S
C3444 C3446 1.378 . S
C3444 C3448 1.350 . S
C3445 C3448 1.469 . S
C3445 C3450 1.332 1_565 S
C3445 N3453 1.441 . S
C3446 H3437 0.930 . S
C3446 C3444 1.378 . S
C3446 C3447 1.367 . S
C3447 C3446 1.367 . S
C3447 C3449 1.433 1_565 S
C3448 C3444 1.350 . S
C3448 C3445 1.469 . S
C3448 N3452 1.427 1_565 S
C3449 H3439 0.929 . S
C3449 C3447 1.433 1_545 S
C3449 N3452 1.384 . S
C3450 H3441 0.929 . S
C3450 C3442 1.378 . S
C3450 C3445 1.332 1_545 S
C3451 H3438 0.929 . S
C3451 C3443 1.433 1_565 S
C3451 N3453 1.384 . S
N3452 C3448 1.427 1_545 S
N3452 C3449 1.384 . S
N3453 C3445 1.441 . S
N3453 C3451 1.384 . S
H3454 C3460 0.930 . S
H3455 C3464 0.930 . S
H3456 C3469 0.929 . S
H3457 C3467 0.929 . S
H3458 C3462 0.929 . S
H3459 C3468 0.929 . S
C3460 H3454 0.930 . S
C3460 C3461 1.367 . S
C3460 C3468 1.378 . S
C3461 C3460 1.367 . S
C3461 C3469 1.433 . S
C3462 H3458 0.929 . S
C3462 C3464 1.378 . S
C3462 C3466 1.350 . S
C3463 C3466 1.463 . S
C3463 C3468 1.350 . S
C3463 N3471 1.427 . S
C3464 H3455 0.930 . S
C3464 C3462 1.378 . S
C3464 C3465 1.367 . S
C3465 C3464 1.367 . S
C3465 C3467 1.433 . S
C3466 C3462 1.350 . S
C3466 C3463 1.463 . S
C3466 N3470 1.427 . S
C3467 H3457 0.929 . S
C3467 C3465 1.433 . S
C3467 N3470 1.384 . S
C3468 H3459 0.929 . S
C3468 C3460 1.378 . S
C3468 C3463 1.350 . S
C3469 H3456 0.929 . S
C3469 C3461 1.433 . S
C3469 N3471 1.384 . S
N3470 C3466 1.427 . S
N3470 C3467 1.384 . S
N3471 C3463 1.427 . S
N3471 C3469 1.384 . S
H3472 C3478 0.930 . S
H3473 C3482 0.930 . S
H3474 C3487 0.929 . S
H3475 C3485 0.929 . S
H3476 C3480 0.929 . S
H3477 C3486 0.929 . S
C3478 H3472 0.930 . S
C3478 C3479 1.367 . S
C3478 C3486 1.378 . S
C3479 C3478 1.367 . S
C3479 C3487 1.433 . S
C3480 H3476 0.929 . S
C3480 C3482 1.378 . S
C3480 C3484 1.350 . S
C3481 C3484 1.463 . S
C3481 C3486 1.350 . S
C3481 N3489 1.427 . S
C3482 H3473 0.930 . S
C3482 C3480 1.378 . S
C3482 C3483 1.367 . S
C3483 C3482 1.367 . S
C3483 C3485 1.433 1_554 S
C3484 C3480 1.350 . S
C3484 C3481 1.463 . S
C3484 N3488 1.427 . S
C3485 H3475 0.929 . S
C3485 C3483 1.433 1_556 S
C3485 N3488 1.384 1_556 S
C3486 H3477 0.929 . S
C3486 C3478 1.378 . S
C3486 C3481 1.350 . S
C3487 H3474 0.929 . S
C3487 C3479 1.433 . S
C3487 N3489 1.384 . S
N3488 C3484 1.427 . S
N3488 C3485 1.384 1_554 S
N3489 C3481 1.427 . S
N3489 C3487 1.384 . S
H3490 C3496 0.930 . S
H3491 C3500 0.930 . S
H3492 C3505 0.929 . S
H3493 C3503 0.929 . S
H3494 C3498 0.929 . S
H3495 C3504 0.929 . S
C3496 H3490 0.930 . S
C3496 C3497 1.367 . S
C3496 C3504 1.378 . S
C3497 C3496 1.367 . S
C3497 C3505 1.433 . S
C3498 H3494 0.929 . S
C3498 C3500 1.378 . S
C3498 C3502 1.350 . S
C3499 C3502 1.463 . S
C3499 C3504 1.350 . S
C3499 N3507 1.427 . S
C3500 H3491 0.930 . S
C3500 C3498 1.378 . S
C3500 C3501 1.367 . S
C3501 C3500 1.367 . S
C3501 C3503 1.433 . S
C3502 C3498 1.350 . S
C3502 C3499 1.463 . S
C3502 N3506 1.427 . S
C3503 H3493 0.929 . S
C3503 C3501 1.433 . S
C3503 N3506 1.384 . S
C3504 H3495 0.929 . S
C3504 C3496 1.378 . S
C3504 C3499 1.350 . S
C3505 H3492 0.929 . S
C3505 C3497 1.433 . S
C3505 N3507 1.384 . S
N3506 C3502 1.427 . S
N3506 C3503 1.384 . S
N3507 C3499 1.427 . S
N3507 C3505 1.384 . S
H3508 C3514 0.930 . S
H3509 C3518 0.930 . S
H3510 C3523 0.929 . S
H3511 C3521 0.929 . S
H3512 C3516 0.929 . S
H3513 C3522 0.929 . S
C3514 H3508 0.930 . S
C3514 C3515 1.367 . S
C3514 C3522 1.378 . S
C3515 C3514 1.367 . S
C3515 C3523 1.433 . S
C3516 H3512 0.929 . S
C3516 C3518 1.378 . S
C3516 C3520 1.350 . S
C3517 C3520 1.463 . S
C3517 C3522 1.350 . S
C3517 N3525 1.427 . S
C3518 H3509 0.930 . S
C3518 C3516 1.378 . S
C3518 C3519 1.367 . S
C3519 C3518 1.367 . S
C3519 C3521 1.433 . S
C3520 C3516 1.350 . S
C3520 C3517 1.463 . S
C3520 N3524 1.427 . S
C3521 H3511 0.929 . S
C3521 C3519 1.433 . S
C3521 N3524 1.384 . S
C3522 H3513 0.929 . S
C3522 C3514 1.378 . S
C3522 C3517 1.350 . S
C3523 H3510 0.929 . S
C3523 C3515 1.433 . S
C3523 N3525 1.384 . S
N3524 C3520 1.427 . S
N3524 C3521 1.384 . S
N3525 C3517 1.427 . S
N3525 C3523 1.384 . S
H3526 C3532 0.930 . S
H3527 C3536 0.930 . S
H3528 C3541 0.929 . S
H3529 C3539 0.929 . S
H3530 C3534 0.929 . S
H3531 C3540 0.929 . S
C3532 H3526 0.930 . S
C3532 C3533 1.367 . S
C3532 C3540 1.378 . S
C3533 C3532 1.367 . S
C3533 C3541 1.433 . S
C3534 H3530 0.929 . S
C3534 C3536 1.378 . S
C3534 C3538 1.350 . S
C3535 C3538 1.463 . S
C3535 C3540 1.350 . S
C3535 N3543 1.427 . S
C3536 H3527 0.930 . S
C3536 C3534 1.378 . S
C3536 C3537 1.367 . S
C3537 C3536 1.367 . S
C3537 C3539 1.433 . S
C3538 C3534 1.350 . S
C3538 C3535 1.463 . S
C3538 N3542 1.427 . S
C3539 H3529 0.929 . S
C3539 C3537 1.433 . S
C3539 N3542 1.384 . S
C3540 H3531 0.929 . S
C3540 C3532 1.378 . S
C3540 C3535 1.350 . S
C3541 H3528 0.929 . S
C3541 C3533 1.433 . S
C3541 N3543 1.384 . S
N3542 C3538 1.427 . S
N3542 C3539 1.384 . S
N3543 C3535 1.427 . S
N3543 C3541 1.384 . S
H3544 C3550 0.930 . S
H3545 C3554 0.930 . S
H3546 C3559 0.929 . S
H3547 C3557 0.929 . S
H3548 C3552 0.929 . S
H3549 C3558 0.929 . S
C3550 H3544 0.930 . S
C3550 C3551 1.367 . S
C3550 C3558 1.378 . S
C3551 C3550 1.367 . S
C3551 C3559 1.433 . S
C3552 H3548 0.929 . S
C3552 C3554 1.378 . S
C3552 C3556 1.350 . S
C3553 C3556 1.463 . S
C3553 C3558 1.350 . S
C3553 N3561 1.427 . S
C3554 H3545 0.930 . S
C3554 C3552 1.378 . S
C3554 C3555 1.367 . S
C3555 C3554 1.367 . S
C3555 C3557 1.433 . S
C3556 C3552 1.350 . S
C3556 C3553 1.463 . S
C3556 N3560 1.427 . S
C3557 H3547 0.929 . S
C3557 C3555 1.433 . S
C3557 N3560 1.384 . S
C3558 H3549 0.929 . S
C3558 C3550 1.378 . S
C3558 C3553 1.350 . S
C3559 H3546 0.929 . S
C3559 C3551 1.433 . S
C3559 N3561 1.384 . S
N3560 C3556 1.427 . S
N3560 C3557 1.384 . S
N3561 C3553 1.427 . S
N3561 C3559 1.384 . S
H3562 C3568 0.930 . S
H3563 C3572 0.930 . S
H3564 C3577 0.929 . S
H3565 C3575 0.929 . S
H3566 C3570 0.929 . S
H3567 C3576 0.929 . S
C3568 H3562 0.930 . S
C3568 C3569 1.367 . S
C3568 C3576 1.378 . S
C3569 C3568 1.367 . S
C3569 C3577 1.433 . S
C3570 H3566 0.929 . S
C3570 C3572 1.378 . S
C3570 C3574 1.350 . S
C3571 C3574 1.463 . S
C3571 C3576 1.350 . S
C3571 N3579 1.427 . S
C3572 H3563 0.930 . S
C3572 C3570 1.378 . S
C3572 C3573 1.367 . S
C3573 C3572 1.367 . S
C3573 C3575 1.433 . S
C3574 C3570 1.350 . S
C3574 C3571 1.463 . S
C3574 N3578 1.427 . S
C3575 H3565 0.929 . S
C3575 C3573 1.433 . S
C3575 N3578 1.384 . S
C3576 H3567 0.929 . S
C3576 C3568 1.378 . S
C3576 C3571 1.350 . S
C3577 H3564 0.929 . S
C3577 C3569 1.433 . S
C3577 N3579 1.384 . S
N3578 C3574 1.427 . S
N3578 C3575 1.384 . S
N3579 C3571 1.427 . S
N3579 C3577 1.384 . S
H3580 C3586 0.930 . S
H3581 C3590 0.930 . S
H3582 C3595 0.929 . S
H3583 C3593 0.929 . S
H3584 C3588 0.929 . S
H3585 C3594 0.929 . S
C3586 H3580 0.930 . S
C3586 C3587 1.367 . S
C3586 C3594 1.378 . S
C3587 C3586 1.367 . S
C3587 C3595 1.433 . S
C3588 H3584 0.929 . S
C3588 C3590 1.378 . S
C3588 C3592 1.350 . S
C3589 C3592 1.463 . S
C3589 C3594 1.350 . S
C3589 N3597 1.427 . S
C3590 H3581 0.930 . S
C3590 C3588 1.378 . S
C3590 C3591 1.367 . S
C3591 C3590 1.367 . S
C3591 C3593 1.433 . S
C3592 C3588 1.350 . S
C3592 C3589 1.463 . S
C3592 N3596 1.427 . S
C3593 H3583 0.929 . S
C3593 C3591 1.433 . S
C3593 N3596 1.384 . S
C3594 H3585 0.929 . S
C3594 C3586 1.378 . S
C3594 C3589 1.350 . S
C3595 H3582 0.929 . S
C3595 C3587 1.433 . S
C3595 N3597 1.384 . S
N3596 C3592 1.427 . S
N3596 C3593 1.384 . S
N3597 C3589 1.427 . S
N3597 C3595 1.384 . S
H3598 C3604 0.930 . S
H3599 C3608 0.930 . S
H3600 C3613 0.929 . S
H3601 C3611 0.929 . S
H3602 C3606 0.929 . S
H3603 C3612 0.929 . S
C3604 H3598 0.930 . S
C3604 C3605 1.367 . S
C3604 C3612 1.378 . S
C3605 C3604 1.367 . S
C3605 C3613 1.433 . S
C3606 H3602 0.929 . S
C3606 C3608 1.378 . S
C3606 C3610 1.350 . S
C3607 C3610 1.463 . S
C3607 C3612 1.350 . S
C3607 N3615 1.427 . S
C3608 H3599 0.930 . S
C3608 C3606 1.378 . S
C3608 C3609 1.367 . S
C3609 C3608 1.367 . S
C3609 C3611 1.433 . S
C3610 C3606 1.350 . S
C3610 C3607 1.463 . S
C3610 N3614 1.427 . S
C3611 H3601 0.929 . S
C3611 C3609 1.433 . S
C3611 N3614 1.384 . S
C3612 H3603 0.929 . S
C3612 C3604 1.378 . S
C3612 C3607 1.350 . S
C3613 H3600 0.929 . S
C3613 C3605 1.433 . S
C3613 N3615 1.384 . S
N3614 C3610 1.427 . S
N3614 C3611 1.384 . S
N3615 C3607 1.427 . S
N3615 C3613 1.384 . S
H3616 C3622 0.930 . S
H3617 C3626 0.930 . S
H3618 C3631 0.929 . S
H3619 C3629 0.929 . S
H3620 C3624 0.929 . S
H3621 C3630 0.929 . S
C3622 H3616 0.930 . S
C3622 C3623 1.367 . S
C3622 C3630 1.378 . S
C3623 C3622 1.367 . S
C3623 C3631 1.433 . S
C3624 H3620 0.929 . S
C3624 C3626 1.378 . S
C3624 C3628 1.350 . S
C3625 C3628 1.463 . S
C3625 C3630 1.350 . S
C3625 N3633 1.427 . S
C3626 H3617 0.930 . S
C3626 C3624 1.378 . S
C3626 C3627 1.367 . S
C3627 C3626 1.367 . S
C3627 C3629 1.433 . S
C3628 C3624 1.350 . S
C3628 C3625 1.463 . S
C3628 N3632 1.427 . S
C3629 H3619 0.929 . S
C3629 C3627 1.433 . S
C3629 N3632 1.384 . S
C3630 H3621 0.929 . S
C3630 C3622 1.378 . S
C3630 C3625 1.350 . S
C3631 H3618 0.929 . S
C3631 C3623 1.433 . S
C3631 N3633 1.384 . S
N3632 C3628 1.427 . S
N3632 C3629 1.384 . S
N3633 C3625 1.427 . S
N3633 C3631 1.384 . S
H3634 C3640 0.930 . S
H3635 C3644 0.930 . S
H3636 C3649 0.929 . S
H3637 C3647 0.929 . S
H3638 C3642 0.929 . S
H3639 C3648 0.929 . S
C3640 H3634 0.930 . S
C3640 C3641 1.367 . S
C3640 C3648 1.378 . S
C3641 C3640 1.367 . S
C3641 C3649 1.433 . S
C3642 H3638 0.929 . S
C3642 C3644 1.378 . S
C3642 C3646 1.350 . S
C3643 C3646 1.463 . S
C3643 C3648 1.350 . S
C3643 N3651 1.427 . S
C3644 H3635 0.930 . S
C3644 C3642 1.378 . S
C3644 C3645 1.367 . S
C3645 C3644 1.367 . S
C3645 C3647 1.433 . S
C3646 C3642 1.350 . S
C3646 C3643 1.463 . S
C3646 N3650 1.427 . S
C3647 H3637 0.929 . S
C3647 C3645 1.433 . S
C3647 N3650 1.384 . S
C3648 H3639 0.929 . S
C3648 C3640 1.378 . S
C3648 C3643 1.350 . S
C3649 H3636 0.929 . S
C3649 C3641 1.433 . S
C3649 N3651 1.384 . S
N3650 C3646 1.427 . S
N3650 C3647 1.384 . S
N3651 C3643 1.427 . S
N3651 C3649 1.384 . S
H3652 C3658 0.930 . S
H3653 C3662 0.947 1_655 S
H3654 C3667 0.929 1_656 S
H3655 C3665 0.929 . S
H3656 C3660 0.929 1_656 S
H3657 C3666 0.929 . S
C3658 H3652 0.930 . S
C3658 C3659 1.367 . S
C3658 C3666 1.378 . S
C3659 C3658 1.367 . S
C3659 C3667 1.433 . S
C3660 H3656 0.929 1_454 S
C3660 C3662 1.378 . S
C3660 C3664 1.350 . S
C3661 C3664 1.463 . S
C3661 C3666 1.350 . S
C3661 N3669 1.427 . S
C3662 H3653 0.947 1_455 S
C3662 C3660 1.378 . S
C3662 C3663 1.367 . S
C3663 C3662 1.367 . S
C3663 C3665 1.433 . S
C3664 C3660 1.350 . S
C3664 C3661 1.463 . S
C3664 N3668 1.427 . S
C3665 H3655 0.929 . S
C3665 C3663 1.433 . S
C3665 N3668 1.384 . S
C3666 H3657 0.929 . S
C3666 C3658 1.378 . S
C3666 C3661 1.350 . S
C3667 H3654 0.929 1_454 S
C3667 C3659 1.433 . S
C3667 N3669 1.384 . S
N3668 C3664 1.427 . S
N3668 C3665 1.384 . S
N3669 C3661 1.427 . S
N3669 C3667 1.384 . S
H3670 C3676 0.930 . S
H3671 C3680 0.930 . S
H3672 C3685 0.929 . S
H3673 C3683 0.929 . S
H3674 C3678 0.929 . S
H3675 C3684 0.929 . S
C3676 H3670 0.930 . S
C3676 C3677 1.367 . S
C3676 C3684 1.378 . S
C3677 C3676 1.367 . S
C3677 C3685 1.433 . S
C3678 H3674 0.929 . S
C3678 C3680 1.378 . S
C3678 C3682 1.350 . S
C3679 C3682 1.463 . S
C3679 C3684 1.350 . S
C3679 N3687 1.427 . S
C3680 H3671 0.930 . S
C3680 C3678 1.378 . S
C3680 C3681 1.367 . S
C3681 C3680 1.367 . S
C3681 C3683 1.433 . S
C3682 C3678 1.350 . S
C3682 C3679 1.463 . S
C3682 N3686 1.427 . S
C3683 H3673 0.929 . S
C3683 C3681 1.433 . S
C3683 N3686 1.384 . S
C3684 H3675 0.929 . S
C3684 C3676 1.378 . S
C3684 C3679 1.350 . S
C3685 H3672 0.929 . S
C3685 C3677 1.433 . S
C3685 N3687 1.384 . S
N3686 C3682 1.427 . S
N3686 C3683 1.384 . S
N3687 C3679 1.427 . S
N3687 C3685 1.384 . S
H3688 C3694 0.930 . S
H3689 C3698 0.930 . S
H3690 C3703 0.929 . S
H3691 C3701 0.929 . S
H3692 C3696 0.929 . S
H3693 C3702 0.929 . S
C3694 H3688 0.930 . S
C3694 C3695 1.367 . S
C3694 C3702 1.378 . S
C3695 C3694 1.367 . S
C3695 C3703 1.433 . S
C3696 H3692 0.929 . S
C3696 C3698 1.378 . S
C3696 C3700 1.350 . S
C3697 C3700 1.463 . S
C3697 C3702 1.350 . S
C3697 N3705 1.427 . S
C3698 H3689 0.930 . S
C3698 C3696 1.378 . S
C3698 C3699 1.367 . S
C3699 C3698 1.367 . S
C3699 C3701 1.433 . S
C3700 C3696 1.350 . S
C3700 C3697 1.463 . S
C3700 N3704 1.427 . S
C3701 H3691 0.929 . S
C3701 C3699 1.433 . S
C3701 N3704 1.384 . S
C3702 H3693 0.929 . S
C3702 C3694 1.378 . S
C3702 C3697 1.350 . S
C3703 H3690 0.929 . S
C3703 C3695 1.433 . S
C3703 N3705 1.384 . S
N3704 C3700 1.427 . S
N3704 C3701 1.384 . S
N3705 C3697 1.427 . S
N3705 C3703 1.384 . S
H3706 C3712 0.930 . S
H3707 C3716 0.930 . S
H3708 C3721 0.929 . S
H3709 C3719 0.929 . S
H3710 C3714 0.929 . S
H3711 C3720 0.929 . S
C3712 H3706 0.930 . S
C3712 C3713 1.367 . S
C3712 C3720 1.378 . S
C3713 C3712 1.367 . S
C3713 C3721 1.433 . S
C3714 H3710 0.929 . S
C3714 C3716 1.378 . S
C3714 C3718 1.350 . S
C3715 C3718 1.463 . S
C3715 C3720 1.350 . S
C3715 N3723 1.427 . S
C3716 H3707 0.930 . S
C3716 C3714 1.378 . S
C3716 C3717 1.367 . S
C3717 C3716 1.367 . S
C3717 C3719 1.433 . S
C3718 C3714 1.350 . S
C3718 C3715 1.463 . S
C3718 N3722 1.427 . S
C3719 H3709 0.929 . S
C3719 C3717 1.433 . S
C3719 N3722 1.384 . S
C3720 H3711 0.929 . S
C3720 C3712 1.378 . S
C3720 C3715 1.350 . S
C3721 H3708 0.929 . S
C3721 C3713 1.433 . S
C3721 N3723 1.384 . S
N3722 C3718 1.427 . S
N3722 C3719 1.384 . S
N3723 C3715 1.427 . S
N3723 C3721 1.384 . S
H3724 C3730 0.930 . S
H3725 C3734 0.930 . S
H3726 C3739 0.929 . S
H3727 C3737 0.929 1_655 S
H3728 C3732 0.929 . S
H3729 C3738 0.929 . S
C3730 H3724 0.930 . S
C3730 C3731 1.367 1_655 S
C3730 C3738 1.378 . S
C3731 C3730 1.367 1_455 S
C3731 C3739 1.433 . S
C3732 H3728 0.929 . S
C3732 C3734 1.378 . S
C3732 C3736 1.350 . S
C3733 C3736 1.463 . S
C3733 C3738 1.350 1_455 S
C3733 N3741 1.427 . S
C3734 H3725 0.930 . S
C3734 C3732 1.378 . S
C3734 C3735 1.367 . S
C3735 C3734 1.367 . S
C3735 C3737 1.433 . S
C3736 C3732 1.350 . S
C3736 C3733 1.463 . S
C3736 N3740 1.426 . S
C3737 H3727 0.929 1_455 S
C3737 C3735 1.433 . S
C3737 N3740 1.382 . S
C3738 H3729 0.929 . S
C3738 C3730 1.378 . S
C3738 C3733 1.350 1_655 S
C3739 H3726 0.929 . S
C3739 C3731 1.433 . S
C3739 N3741 1.384 . S
N3740 C3736 1.426 . S
N3740 C3737 1.382 . S
N3741 C3733 1.427 . S
N3741 C3739 1.384 . S
H3742 C3748 0.930 . S
H3743 C3752 0.930 . S
H3744 C3757 0.929 . S
H3745 C3755 0.929 . S
H3746 C3750 0.929 . S
H3747 C3756 0.929 . S
C3748 H3742 0.930 . S
C3748 C3749 1.367 . S
C3748 C3756 1.378 . S
C3749 C3748 1.367 . S
C3749 C3757 1.433 . S
C3750 H3746 0.929 . S
C3750 C3752 1.378 . S
C3750 C3754 1.350 . S
C3751 C3754 1.463 . S
C3751 C3756 1.350 . S
C3751 N3759 1.427 . S
C3752 H3743 0.930 . S
C3752 C3750 1.378 . S
C3752 C3753 1.367 . S
C3753 C3752 1.367 . S
C3753 C3755 1.433 . S
C3754 C3750 1.350 . S
C3754 C3751 1.463 . S
C3754 N3758 1.427 . S
C3755 H3745 0.929 . S
C3755 C3753 1.433 . S
C3755 N3758 1.384 . S
C3756 H3747 0.929 . S
C3756 C3748 1.378 . S
C3756 C3751 1.350 . S
C3757 H3744 0.929 . S
C3757 C3749 1.433 . S
C3757 N3759 1.384 . S
N3758 C3754 1.427 . S
N3758 C3755 1.384 . S
N3759 C3751 1.427 . S
N3759 C3757 1.384 . S
H3760 C3766 0.930 . S
H3761 C3770 0.930 . S
H3762 C3775 0.929 . S
H3763 C3773 0.929 . S
H3764 C3768 0.929 . S
H3765 C3774 0.929 . S
C3766 H3760 0.930 . S
C3766 C3767 1.367 . S
C3766 C3774 1.378 . S
C3767 C3766 1.367 . S
C3767 C3775 1.433 . S
C3768 H3764 0.929 . S
C3768 C3770 1.378 . S
C3768 C3772 1.350 . S
C3769 C3772 1.463 . S
C3769 C3774 1.350 . S
C3769 N3777 1.427 . S
C3770 H3761 0.930 . S
C3770 C3768 1.378 . S
C3770 C3771 1.367 . S
C3771 C3770 1.367 . S
C3771 C3773 1.433 . S
C3772 C3768 1.350 . S
C3772 C3769 1.463 . S
C3772 N3776 1.427 . S
C3773 H3763 0.929 . S
C3773 C3771 1.433 . S
C3773 N3776 1.384 . S
C3774 H3765 0.929 . S
C3774 C3766 1.378 . S
C3774 C3769 1.350 . S
C3775 H3762 0.929 . S
C3775 C3767 1.433 . S
C3775 N3777 1.384 . S
N3776 C3772 1.427 . S
N3776 C3773 1.384 . S
N3777 C3769 1.427 . S
N3777 C3775 1.384 . S
H3778 C3784 0.930 . S
H3779 C3788 0.930 . S
H3780 C3793 0.929 . S
H3781 C3791 0.929 . S
H3782 C3786 0.929 . S
H3783 C3792 0.929 . S
C3784 H3778 0.930 . S
C3784 C3785 1.367 . S
C3784 C3792 1.378 . S
C3785 C3784 1.367 . S
C3785 C3793 1.433 . S
C3786 H3782 0.929 . S
C3786 C3788 1.378 . S
C3786 C3790 1.350 . S
C3787 C3790 1.463 . S
C3787 C3792 1.350 . S
C3787 N3795 1.427 . S
C3788 H3779 0.930 . S
C3788 C3786 1.378 . S
C3788 C3789 1.367 . S
C3789 C3788 1.367 . S
C3789 C3791 1.433 . S
C3790 C3786 1.350 . S
C3790 C3787 1.463 . S
C3790 N3794 1.427 . S
C3791 H3781 0.929 . S
C3791 C3789 1.433 . S
C3791 N3794 1.384 . S
C3792 H3783 0.929 . S
C3792 C3784 1.378 . S
C3792 C3787 1.350 . S
C3793 H3780 0.929 . S
C3793 C3785 1.433 . S
C3793 N3795 1.384 . S
N3794 C3790 1.427 . S
N3794 C3791 1.384 . S
N3795 C3787 1.427 . S
N3795 C3793 1.384 . S
H3796 C3802 0.930 . S
H3797 C3806 0.930 . S
H3798 C3811 0.929 . S
H3799 C3809 0.929 . S
H3800 C3804 0.929 . S
H3801 C3810 0.929 . S
C3802 H3796 0.930 . S
C3802 C3803 1.367 . S
C3802 C3810 1.378 . S
C3803 C3802 1.367 . S
C3803 C3811 1.433 . S
C3804 H3800 0.929 . S
C3804 C3806 1.378 . S
C3804 C3808 1.350 . S
C3805 C3808 1.463 . S
C3805 C3810 1.350 . S
C3805 N3813 1.427 . S
C3806 H3797 0.930 . S
C3806 C3804 1.378 . S
C3806 C3807 1.367 . S
C3807 C3806 1.367 . S
C3807 C3809 1.433 . S
C3808 C3804 1.350 . S
C3808 C3805 1.463 . S
C3808 N3812 1.427 . S
C3809 H3799 0.929 . S
C3809 C3807 1.433 . S
C3809 N3812 1.384 . S
C3810 H3801 0.929 . S
C3810 C3802 1.378 . S
C3810 C3805 1.350 . S
C3811 H3798 0.929 . S
C3811 C3803 1.433 . S
C3811 N3813 1.384 . S
N3812 C3808 1.427 . S
N3812 C3809 1.384 . S
N3813 C3805 1.427 . S
N3813 C3811 1.384 . S
H3814 C3820 0.930 . S
H3815 C3824 0.930 . S
H3816 C3829 0.929 . S
H3817 C3827 0.929 . S
H3818 C3822 0.929 . S
H3819 C3828 0.929 . S
C3820 H3814 0.930 . S
C3820 C3821 1.367 . S
C3820 C3828 1.378 . S
C3821 C3820 1.367 . S
C3821 C3829 1.433 . S
C3822 H3818 0.929 . S
C3822 C3824 1.378 . S
C3822 C3826 1.350 . S
C3823 C3826 1.463 . S
C3823 C3828 1.350 . S
C3823 N3831 1.427 . S
C3824 H3815 0.930 . S
C3824 C3822 1.378 . S
C3824 C3825 1.367 . S
C3825 C3824 1.367 . S
C3825 C3827 1.433 . S
C3826 C3822 1.350 . S
C3826 C3823 1.463 . S
C3826 N3830 1.427 . S
C3827 H3817 0.929 . S
C3827 C3825 1.433 . S
C3827 N3830 1.384 . S
C3828 H3819 0.929 . S
C3828 C3820 1.378 . S
C3828 C3823 1.350 . S
C3829 H3816 0.929 . S
C3829 C3821 1.433 . S
C3829 N3831 1.384 . S
N3830 C3826 1.427 . S
N3830 C3827 1.384 . S
N3831 C3823 1.427 . S
N3831 C3829 1.384 . S
H3832 C3838 0.930 . S
H3833 C3842 0.930 . S
H3834 C3847 0.929 . S
H3835 C3845 0.929 . S
H3836 C3840 0.929 . S
H3837 C3846 0.929 . S
C3838 H3832 0.930 . S
C3838 C3839 1.367 . S
C3838 C3846 1.378 . S
C3839 C3838 1.367 . S
C3839 C3847 1.433 . S
C3840 H3836 0.929 . S
C3840 C3842 1.378 . S
C3840 C3844 1.350 . S
C3841 C3844 1.463 . S
C3841 C3846 1.350 . S
C3841 N3849 1.427 . S
C3842 H3833 0.930 . S
C3842 C3840 1.378 . S
C3842 C3843 1.367 . S
C3843 C3842 1.367 . S
C3843 C3845 1.433 . S
C3844 C3840 1.350 . S
C3844 C3841 1.463 . S
C3844 N3848 1.427 . S
C3845 H3835 0.929 . S
C3845 C3843 1.433 . S
C3845 N3848 1.384 . S
C3846 H3837 0.929 . S
C3846 C3838 1.378 . S
C3846 C3841 1.350 . S
C3847 H3834 0.929 . S
C3847 C3839 1.433 . S
C3847 N3849 1.384 . S
N3848 C3844 1.427 . S
N3848 C3845 1.384 . S
N3849 C3841 1.427 . S
N3849 C3847 1.384 . S
H3850 C3856 0.930 . S
H3851 C3860 0.930 . S
H3852 C3865 0.929 . S
H3853 C3863 0.929 . S
H3854 C3858 0.929 . S
H3855 C3864 0.929 . S
C3856 H3850 0.930 . S
C3856 C3857 1.367 . S
C3856 C3864 1.378 . S
C3857 C3856 1.367 . S
C3857 C3865 1.433 . S
C3858 H3854 0.929 . S
C3858 C3860 1.378 . S
C3858 C3862 1.350 . S
C3859 C3862 1.463 . S
C3859 C3864 1.350 . S
C3859 N3867 1.427 . S
C3860 H3851 0.930 . S
C3860 C3858 1.378 . S
C3860 C3861 1.367 . S
C3861 C3860 1.367 . S
C3861 C3863 1.433 . S
C3862 C3858 1.350 . S
C3862 C3859 1.463 . S
C3862 N3866 1.427 . S
C3863 H3853 0.929 . S
C3863 C3861 1.433 . S
C3863 N3866 1.384 . S
C3864 H3855 0.929 . S
C3864 C3856 1.378 . S
C3864 C3859 1.350 . S
C3865 H3852 0.929 . S
C3865 C3857 1.433 . S
C3865 N3867 1.384 . S
N3866 C3862 1.427 . S
N3866 C3863 1.384 . S
N3867 C3859 1.427 . S
N3867 C3865 1.384 . S
H3868 C3874 0.930 . S
H3869 C3878 0.930 . S
H3870 C3883 0.929 . S
H3871 C3881 0.929 . S
H3872 C3876 0.929 . S
H3873 C3882 0.929 . S
C3874 H3868 0.930 . S
C3874 C3875 1.367 . S
C3874 C3882 1.378 . S
C3875 C3874 1.367 . S
C3875 C3883 1.433 . S
C3876 H3872 0.929 . S
C3876 C3878 1.378 . S
C3876 C3880 1.350 . S
C3877 C3880 1.463 . S
C3877 C3882 1.350 . S
C3877 N3885 1.427 . S
C3878 H3869 0.930 . S
C3878 C3876 1.378 . S
C3878 C3879 1.367 . S
C3879 C3878 1.367 . S
C3879 C3881 1.433 . S
C3880 C3876 1.350 . S
C3880 C3877 1.463 . S
C3880 N3884 1.427 . S
C3881 H3871 0.929 . S
C3881 C3879 1.433 . S
C3881 N3884 1.384 . S
C3882 H3873 0.929 . S
C3882 C3874 1.378 . S
C3882 C3877 1.350 . S
C3883 H3870 0.929 . S
C3883 C3875 1.433 . S
C3883 N3885 1.384 . S
N3884 C3880 1.427 . S
N3884 C3881 1.384 . S
N3885 C3877 1.427 . S
N3885 C3883 1.384 . S
H3886 C3892 0.930 . S
H3887 C3896 0.930 . S
H3888 C3901 0.929 . S
H3889 C3899 0.929 . S
H3890 C3894 0.929 . S
H3891 C3900 0.929 . S
C3892 H3886 0.930 . S
C3892 C3893 1.367 . S
C3892 C3900 1.378 . S
C3893 C3892 1.367 . S
C3893 C3901 1.433 . S
C3894 H3890 0.929 . S
C3894 C3896 1.378 . S
C3894 C3898 1.350 . S
C3895 C3898 1.463 . S
C3895 C3900 1.350 . S
C3895 N3903 1.427 . S
C3896 H3887 0.930 . S
C3896 C3894 1.378 . S
C3896 C3897 1.367 . S
C3897 C3896 1.367 . S
C3897 C3899 1.433 . S
C3898 C3894 1.350 . S
C3898 C3895 1.463 . S
C3898 N3902 1.427 . S
C3899 H3889 0.929 . S
C3899 C3897 1.433 . S
C3899 N3902 1.384 . S
C3900 H3891 0.929 . S
C3900 C3892 1.378 . S
C3900 C3895 1.350 . S
C3901 H3888 0.929 . S
C3901 C3893 1.433 . S
C3901 N3903 1.384 . S
N3902 C3898 1.427 . S
N3902 C3899 1.384 . S
N3903 C3895 1.427 . S
N3903 C3901 1.384 . S
H3904 C3910 0.930 . S
H3905 C3914 0.930 . S
H3906 C3919 0.929 . S
H3907 C3917 0.929 . S
H3908 C3912 0.929 . S
H3909 C3918 0.929 . S
C3910 H3904 0.930 . S
C3910 C3911 1.367 . S
C3910 C3918 1.378 . S
C3911 C3910 1.367 . S
C3911 C3919 1.433 . S
C3912 H3908 0.929 . S
C3912 C3914 1.378 . S
C3912 C3916 1.350 . S
C3913 C3916 1.463 . S
C3913 C3918 1.350 . S
C3913 N3921 1.427 . S
C3914 H3905 0.930 . S
C3914 C3912 1.378 . S
C3914 C3915 1.367 . S
C3915 C3914 1.367 . S
C3915 C3917 1.433 . S
C3916 C3912 1.350 . S
C3916 C3913 1.463 . S
C3916 N3920 1.427 . S
C3917 H3907 0.929 . S
C3917 C3915 1.433 . S
C3917 N3920 1.384 . S
C3918 H3909 0.929 . S
C3918 C3910 1.378 . S
C3918 C3913 1.350 . S
C3919 H3906 0.929 . S
C3919 C3911 1.433 . S
C3919 N3921 1.384 . S
N3920 C3916 1.427 . S
N3920 C3917 1.384 . S
N3921 C3913 1.427 . S
N3921 C3919 1.384 . S
H3922 C3928 0.930 . S
H3923 C3932 0.930 . S
H3924 C3937 0.929 . S
H3925 C3935 0.929 . S
H3926 C3930 0.929 . S
H3927 C3936 0.929 . S
C3928 H3922 0.930 . S
C3928 C3929 1.367 . S
C3928 C3936 1.378 . S
C3929 C3928 1.367 . S
C3929 C3937 1.433 . S
C3930 H3926 0.929 . S
C3930 C3932 1.378 . S
C3930 C3934 1.350 . S
C3931 C3934 1.463 . S
C3931 C3936 1.350 . S
C3931 N3939 1.427 . S
C3932 H3923 0.930 . S
C3932 C3930 1.378 . S
C3932 C3933 1.367 . S
C3933 C3932 1.367 . S
C3933 C3935 1.433 . S
C3934 C3930 1.350 . S
C3934 C3931 1.463 . S
C3934 N3938 1.427 . S
C3935 H3925 0.929 . S
C3935 C3933 1.433 . S
C3935 N3938 1.384 . S
C3936 H3927 0.929 . S
C3936 C3928 1.378 . S
C3936 C3931 1.350 . S
C3937 H3924 0.929 . S
C3937 C3929 1.433 . S
C3937 N3939 1.384 . S
N3938 C3934 1.427 . S
N3938 C3935 1.384 . S
N3939 C3931 1.427 . S
N3939 C3937 1.384 . S
H3940 C3946 0.930 . S
H3941 C3950 0.930 . S
H3942 C3955 0.929 . S
H3943 C3953 0.929 . S
H3944 C3948 0.929 . S
H3945 C3954 0.929 . S
C3946 H3940 0.930 . S
C3946 C3947 1.367 . S
C3946 C3954 1.378 . S
C3947 C3946 1.367 . S
C3947 C3955 1.433 . S
C3948 H3944 0.929 . S
C3948 C3950 1.378 . S
C3948 C3952 1.350 . S
C3949 C3952 1.463 . S
C3949 C3954 1.350 . S
C3949 N3957 1.427 . S
C3950 H3941 0.930 . S
C3950 C3948 1.378 . S
C3950 C3951 1.367 . S
C3951 C3950 1.367 . S
C3951 C3953 1.433 . S
C3952 C3948 1.350 . S
C3952 C3949 1.463 . S
C3952 N3956 1.427 . S
C3953 H3943 0.929 . S
C3953 C3951 1.433 . S
C3953 N3956 1.384 . S
C3954 H3945 0.929 . S
C3954 C3946 1.378 . S
C3954 C3949 1.350 . S
C3955 H3942 0.929 . S
C3955 C3947 1.433 . S
C3955 N3957 1.384 . S
N3956 C3952 1.427 . S
N3956 C3953 1.384 . S
N3957 C3949 1.427 . S
N3957 C3955 1.384 . S
H3958 C3964 0.930 . S
H3959 C3968 0.930 . S
H3960 C3973 0.929 . S
H3961 C3971 0.929 1_556 S
H3962 C3966 0.941 . S
H3963 C3972 0.929 . S
C3964 H3958 0.930 . S
C3964 C3965 1.367 1_556 S
C3964 C3972 1.378 . S
C3965 C3964 1.367 1_554 S
C3965 C3973 1.433 . S
C3966 H3962 0.941 . S
C3966 C3968 1.378 . S
C3966 C3970 1.351 1_545 S
C3967 C3970 1.474 . S
C3967 C3972 1.350 1_554 S
C3967 N3975 1.427 . S
C3968 H3959 0.930 . S
C3968 C3966 1.378 . S
C3968 C3969 1.367 . S
C3969 C3968 1.367 . S
C3969 C3971 1.433 . S
C3970 C3966 1.351 1_565 S
C3970 C3967 1.474 . S
C3970 N3974 1.458 1_565 S
C3971 H3961 0.929 1_554 S
C3971 C3969 1.433 . S
C3971 N3974 1.382 . S
C3972 H3963 0.929 . S
C3972 C3964 1.378 . S
C3972 C3967 1.350 1_556 S
C3973 H3960 0.929 . S
C3973 C3965 1.433 . S
C3973 N3975 1.384 . S
N3974 C3970 1.458 1_545 S
N3974 C3971 1.382 . S
N3975 C3967 1.427 . S
N3975 C3973 1.384 . S
H3976 C3982 0.930 . S
H3977 C3986 0.930 . S
H3978 C3991 0.929 . S
H3979 C3989 0.929 . S
H3980 C3984 0.929 . S
H3981 C3990 0.929 . S
C3982 H3976 0.930 . S
C3982 C3983 1.367 . S
C3982 C3990 1.378 . S
C3983 C3982 1.367 . S
C3983 C3991 1.433 . S
C3984 H3980 0.929 . S
C3984 C3986 1.378 . S
C3984 C3988 1.350 . S
C3985 C3988 1.463 . S
C3985 C3990 1.350 . S
C3985 N3993 1.427 . S
C3986 H3977 0.930 . S
C3986 C3984 1.378 . S
C3986 C3987 1.367 . S
C3987 C3986 1.367 . S
C3987 C3989 1.433 . S
C3988 C3984 1.350 . S
C3988 C3985 1.463 . S
C3988 N3992 1.427 . S
C3989 H3979 0.929 . S
C3989 C3987 1.433 . S
C3989 N3992 1.384 . S
C3990 H3981 0.929 . S
C3990 C3982 1.378 . S
C3990 C3985 1.350 . S
C3991 H3978 0.929 . S
C3991 C3983 1.433 . S
C3991 N3993 1.384 . S
N3992 C3988 1.427 . S
N3992 C3989 1.384 . S
N3993 C3985 1.427 . S
N3993 C3991 1.384 . S
H3994 C4000 0.930 . S
H3995 C4004 0.930 . S
H3996 C4009 0.929 . S
H3997 C4007 0.929 . S
H3998 C4002 0.929 . S
H3999 C4008 0.929 . S
C4000 H3994 0.930 . S
C4000 C4001 1.367 . S
C4000 C4008 1.378 . S
C4001 C4000 1.367 . S
C4001 C4009 1.433 . S
C4002 H3998 0.929 . S
C4002 C4004 1.378 . S
C4002 C4006 1.350 . S
C4003 C4006 1.463 . S
C4003 C4008 1.350 . S
C4003 N4011 1.427 . S
C4004 H3995 0.930 . S
C4004 C4002 1.378 . S
C4004 C4005 1.367 . S
C4005 C4004 1.367 . S
C4005 C4007 1.433 . S
C4006 C4002 1.350 . S
C4006 C4003 1.463 . S
C4006 N4010 1.427 . S
C4007 H3997 0.929 . S
C4007 C4005 1.433 . S
C4007 N4010 1.384 . S
C4008 H3999 0.929 . S
C4008 C4000 1.378 . S
C4008 C4003 1.350 . S
C4009 H3996 0.929 . S
C4009 C4001 1.433 . S
C4009 N4011 1.384 . S
N4010 C4006 1.427 . S
N4010 C4007 1.384 . S
N4011 C4003 1.427 . S
N4011 C4009 1.384 . S
H4012 C4018 0.930 . S
H4013 C4022 0.930 . S
H4014 C4027 0.929 . S
H4015 C4025 0.929 . S
H4016 C4020 0.929 . S
H4017 C4026 0.929 . S
C4018 H4012 0.930 . S
C4018 C4019 1.367 . S
C4018 C4026 1.378 . S
C4019 C4018 1.367 . S
C4019 C4027 1.433 . S
C4020 H4016 0.929 . S
C4020 C4022 1.378 . S
C4020 C4024 1.350 . S
C4021 C4024 1.463 . S
C4021 C4026 1.350 . S
C4021 N4029 1.427 . S
C4022 H4013 0.930 . S
C4022 C4020 1.378 . S
C4022 C4023 1.367 . S
C4023 C4022 1.367 . S
C4023 C4025 1.433 . S
C4024 C4020 1.350 . S
C4024 C4021 1.463 . S
C4024 N4028 1.427 . S
C4025 H4015 0.929 . S
C4025 C4023 1.433 . S
C4025 N4028 1.384 . S
C4026 H4017 0.929 . S
C4026 C4018 1.378 . S
C4026 C4021 1.350 . S
C4027 H4014 0.929 . S
C4027 C4019 1.433 . S
C4027 N4029 1.384 . S
N4028 C4024 1.427 . S
N4028 C4025 1.384 . S
N4029 C4021 1.427 . S
N4029 C4027 1.384 . S
H4030 C4036 0.930 . S
H4031 C4040 0.930 . S
H4032 C4045 0.929 . S
H4033 C4043 0.929 . S
H4034 C4038 0.929 . S
H4035 C4044 0.929 . S
C4036 H4030 0.930 . S
C4036 C4037 1.367 . S
C4036 C4044 1.378 . S
C4037 C4036 1.367 . S
C4037 C4045 1.433 . S
C4038 H4034 0.929 . S
C4038 C4040 1.378 . S
C4038 C4042 1.350 . S
C4039 C4042 1.463 . S
C4039 C4044 1.350 . S
C4039 N4047 1.427 . S
C4040 H4031 0.930 . S
C4040 C4038 1.378 . S
C4040 C4041 1.367 . S
C4041 C4040 1.367 . S
C4041 C4043 1.433 . S
C4042 C4038 1.350 . S
C4042 C4039 1.463 . S
C4042 N4046 1.427 . S
C4043 H4033 0.929 . S
C4043 C4041 1.433 . S
C4043 N4046 1.384 . S
C4044 H4035 0.929 . S
C4044 C4036 1.378 . S
C4044 C4039 1.350 . S
C4045 H4032 0.929 . S
C4045 C4037 1.433 . S
C4045 N4047 1.384 . S
N4046 C4042 1.427 . S
N4046 C4043 1.384 . S
N4047 C4039 1.427 . S
N4047 C4045 1.384 . S
H4048 C4054 0.930 . S
H4049 C4058 0.930 . S
H4050 C4063 0.929 . S
H4051 C4061 0.929 . S
H4052 C4056 0.929 . S
H4053 C4062 0.929 . S
C4054 H4048 0.930 . S
C4054 C4055 1.367 . S
C4054 C4062 1.378 . S
C4055 C4054 1.367 . S
C4055 C4063 1.433 . S
C4056 H4052 0.929 . S
C4056 C4058 1.378 . S
C4056 C4060 1.350 . S
C4057 C4060 1.463 . S
C4057 C4062 1.350 . S
C4057 N4065 1.427 . S
C4058 H4049 0.930 . S
C4058 C4056 1.378 . S
C4058 C4059 1.367 . S
C4059 C4058 1.367 . S
C4059 C4061 1.433 . S
C4060 C4056 1.350 . S
C4060 C4057 1.463 . S
C4060 N4064 1.427 . S
C4061 H4051 0.929 . S
C4061 C4059 1.433 . S
C4061 N4064 1.384 . S
C4062 H4053 0.929 . S
C4062 C4054 1.378 . S
C4062 C4057 1.350 . S
C4063 H4050 0.929 . S
C4063 C4055 1.433 . S
C4063 N4065 1.384 . S
N4064 C4060 1.427 . S
N4064 C4061 1.384 . S
N4065 C4057 1.427 . S
N4065 C4063 1.384 . S
H4066 C4072 0.930 . S
H4067 C4076 0.930 . S
H4068 C4081 0.929 . S
H4069 C4079 0.929 . S
H4070 C4074 0.929 . S
H4071 C4080 0.929 . S
C4072 H4066 0.930 . S
C4072 C4073 1.367 . S
C4072 C4080 1.378 . S
C4073 C4072 1.367 . S
C4073 C4081 1.433 . S
C4074 H4070 0.929 . S
C4074 C4076 1.378 . S
C4074 C4078 1.350 . S
C4075 C4078 1.463 . S
C4075 C4080 1.350 . S
C4075 N4083 1.427 . S
C4076 H4067 0.930 . S
C4076 C4074 1.378 . S
C4076 C4077 1.367 . S
C4077 C4076 1.367 . S
C4077 C4079 1.433 . S
C4078 C4074 1.350 . S
C4078 C4075 1.463 . S
C4078 N4082 1.427 . S
C4079 H4069 0.929 . S
C4079 C4077 1.433 . S
C4079 N4082 1.384 . S
C4080 H4071 0.929 . S
C4080 C4072 1.378 . S
C4080 C4075 1.350 . S
C4081 H4068 0.929 . S
C4081 C4073 1.433 . S
C4081 N4083 1.384 . S
N4082 C4078 1.427 . S
N4082 C4079 1.384 . S
N4083 C4075 1.427 . S
N4083 C4081 1.384 . S
H4084 C4090 0.930 . S
H4085 C4094 0.930 . S
H4086 C4099 0.929 . S
H4087 C4097 0.929 . S
H4088 C4092 0.929 . S
H4089 C4098 0.929 . S
C4090 H4084 0.930 . S
C4090 C4091 1.367 . S
C4090 C4098 1.378 . S
C4091 C4090 1.367 . S
C4091 C4099 1.433 . S
C4092 H4088 0.929 . S
C4092 C4094 1.378 . S
C4092 C4096 1.350 . S
C4093 C4096 1.463 . S
C4093 C4098 1.350 . S
C4093 N4101 1.427 . S
C4094 H4085 0.930 . S
C4094 C4092 1.378 . S
C4094 C4095 1.367 . S
C4095 C4094 1.367 . S
C4095 C4097 1.433 . S
C4096 C4092 1.350 . S
C4096 C4093 1.463 . S
C4096 N4100 1.427 . S
C4097 H4087 0.929 . S
C4097 C4095 1.433 . S
C4097 N4100 1.384 . S
C4098 H4089 0.929 . S
C4098 C4090 1.378 . S
C4098 C4093 1.350 . S
C4099 H4086 0.929 . S
C4099 C4091 1.433 . S
C4099 N4101 1.384 . S
N4100 C4096 1.427 . S
N4100 C4097 1.384 . S
N4101 C4093 1.427 . S
N4101 C4099 1.384 . S
H4102 C4108 0.930 . S
H4103 C4112 0.930 . S
H4104 C4117 0.929 . S
H4105 C4115 0.929 . S
H4106 C4110 0.929 . S
H4107 C4116 0.929 . S
C4108 H4102 0.930 . S
C4108 C4109 1.367 . S
C4108 C4116 1.378 . S
C4109 C4108 1.367 . S
C4109 C4117 1.433 . S
C4110 H4106 0.929 . S
C4110 C4112 1.378 . S
C4110 C4114 1.350 . S
C4111 C4114 1.463 . S
C4111 C4116 1.350 . S
C4111 N4119 1.427 . S
C4112 H4103 0.930 . S
C4112 C4110 1.378 . S
C4112 C4113 1.367 . S
C4113 C4112 1.367 . S
C4113 C4115 1.433 . S
C4114 C4110 1.350 . S
C4114 C4111 1.463 . S
C4114 N4118 1.427 . S
C4115 H4105 0.929 . S
C4115 C4113 1.433 . S
C4115 N4118 1.384 . S
C4116 H4107 0.929 . S
C4116 C4108 1.378 . S
C4116 C4111 1.350 . S
C4117 H4104 0.929 . S
C4117 C4109 1.433 . S
C4117 N4119 1.384 . S
N4118 C4114 1.427 . S
N4118 C4115 1.384 . S
N4119 C4111 1.427 . S
N4119 C4117 1.384 . S
H4120 C4126 0.930 . S
H4121 C4130 0.930 . S
H4122 C4135 0.929 . S
H4123 C4133 0.929 . S
H4124 C4128 0.929 . S
H4125 C4134 0.929 . S
C4126 H4120 0.930 . S
C4126 C4127 1.367 . S
C4126 C4134 1.378 . S
C4127 C4126 1.367 . S
C4127 C4135 1.433 . S
C4128 H4124 0.929 . S
C4128 C4130 1.378 . S
C4128 C4132 1.350 . S
C4129 C4132 1.463 . S
C4129 C4134 1.350 . S
C4129 N4137 1.427 . S
C4130 H4121 0.930 . S
C4130 C4128 1.378 . S
C4130 C4131 1.367 . S
C4131 C4130 1.367 . S
C4131 C4133 1.433 . S
C4132 C4128 1.350 . S
C4132 C4129 1.463 . S
C4132 N4136 1.427 . S
C4133 H4123 0.929 . S
C4133 C4131 1.433 . S
C4133 N4136 1.384 . S
C4134 H4125 0.929 . S
C4134 C4126 1.378 . S
C4134 C4129 1.350 . S
C4135 H4122 0.929 . S
C4135 C4127 1.433 . S
C4135 N4137 1.384 . S
N4136 C4132 1.427 . S
N4136 C4133 1.384 . S
N4137 C4129 1.427 . S
N4137 C4135 1.384 . S
H4138 C4144 0.930 . S
H4139 C4148 0.930 . S
H4140 C4153 0.929 . S
H4141 C4151 0.929 . S
H4142 C4146 0.929 . S
H4143 C4152 0.929 . S
C4144 H4138 0.930 . S
C4144 C4145 1.367 . S
C4144 C4152 1.378 . S
C4145 C4144 1.367 . S
C4145 C4153 1.433 . S
C4146 H4142 0.929 . S
C4146 C4148 1.378 . S
C4146 C4150 1.350 . S
C4147 C4150 1.463 . S
C4147 C4152 1.350 . S
C4147 N4155 1.427 . S
C4148 H4139 0.930 . S
C4148 C4146 1.378 . S
C4148 C4149 1.367 . S
C4149 C4148 1.367 . S
C4149 C4151 1.433 . S
C4150 C4146 1.350 . S
C4150 C4147 1.463 . S
C4150 N4154 1.427 . S
C4151 H4141 0.929 . S
C4151 C4149 1.433 . S
C4151 N4154 1.384 . S
C4152 H4143 0.929 . S
C4152 C4144 1.378 . S
C4152 C4147 1.350 . S
C4153 H4140 0.929 . S
C4153 C4145 1.433 . S
C4153 N4155 1.384 . S
N4154 C4150 1.427 . S
N4154 C4151 1.384 . S
N4155 C4147 1.427 . S
N4155 C4153 1.384 . S
H4156 C4162 0.930 . S
H4157 C4166 0.930 . S
H4158 C4171 0.929 . S
H4159 C4169 0.929 . S
H4160 C4164 0.929 . S
H4161 C4170 0.929 . S
C4162 H4156 0.930 . S
C4162 C4163 1.367 . S
C4162 C4170 1.378 . S
C4163 C4162 1.367 . S
C4163 C4171 1.433 . S
C4164 H4160 0.929 . S
C4164 C4166 1.378 . S
C4164 C4168 1.350 . S
C4165 C4168 1.463 . S
C4165 C4170 1.350 . S
C4165 N4173 1.427 . S
C4166 H4157 0.930 . S
C4166 C4164 1.378 . S
C4166 C4167 1.367 . S
C4167 C4166 1.367 . S
C4167 C4169 1.433 . S
C4168 C4164 1.350 . S
C4168 C4165 1.463 . S
C4168 N4172 1.427 . S
C4169 H4159 0.929 . S
C4169 C4167 1.433 . S
C4169 N4172 1.384 . S
C4170 H4161 0.929 . S
C4170 C4162 1.378 . S
C4170 C4165 1.350 . S
C4171 H4158 0.929 . S
C4171 C4163 1.433 . S
C4171 N4173 1.384 . S
N4172 C4168 1.427 . S
N4172 C4169 1.384 . S
N4173 C4165 1.427 . S
N4173 C4171 1.384 . S
H4174 C4180 0.930 . S
H4175 C4184 0.930 . S
H4176 C4189 0.929 . S
H4177 C4187 0.929 . S
H4178 C4182 0.929 . S
H4179 C4188 0.929 . S
C4180 H4174 0.930 . S
C4180 C4181 1.367 . S
C4180 C4188 1.378 . S
C4181 C4180 1.367 . S
C4181 C4189 1.433 . S
C4182 H4178 0.929 . S
C4182 C4184 1.378 . S
C4182 C4186 1.350 . S
C4183 C4186 1.463 . S
C4183 C4188 1.350 . S
C4183 N4191 1.427 . S
C4184 H4175 0.930 . S
C4184 C4182 1.378 . S
C4184 C4185 1.367 . S
C4185 C4184 1.367 . S
C4185 C4187 1.433 . S
C4186 C4182 1.350 . S
C4186 C4183 1.463 . S
C4186 N4190 1.427 . S
C4187 H4177 0.929 . S
C4187 C4185 1.433 . S
C4187 N4190 1.384 . S
C4188 H4179 0.929 . S
C4188 C4180 1.378 . S
C4188 C4183 1.350 . S
C4189 H4176 0.929 . S
C4189 C4181 1.433 . S
C4189 N4191 1.384 . S
N4190 C4186 1.427 . S
N4190 C4187 1.384 . S
N4191 C4183 1.427 . S
N4191 C4189 1.384 . S
H4192 C4198 0.930 . S
H4193 C4202 0.930 . S
H4194 C4207 0.929 . S
H4195 C4205 0.929 . S
H4196 C4200 0.929 . S
H4197 C4206 0.929 . S
C4198 H4192 0.930 . S
C4198 C4199 1.367 . S
C4198 C4206 1.378 . S
C4199 C4198 1.367 . S
C4199 C4207 1.433 . S
C4200 H4196 0.929 . S
C4200 C4202 1.378 . S
C4200 C4204 1.350 . S
C4201 C4204 1.463 . S
C4201 C4206 1.350 . S
C4201 N4209 1.427 . S
C4202 H4193 0.930 . S
C4202 C4200 1.378 . S
C4202 C4203 1.367 . S
C4203 C4202 1.367 . S
C4203 C4205 1.433 . S
C4204 C4200 1.350 . S
C4204 C4201 1.463 . S
C4204 N4208 1.427 . S
C4205 H4195 0.929 . S
C4205 C4203 1.433 . S
C4205 N4208 1.384 . S
C4206 H4197 0.929 . S
C4206 C4198 1.378 . S
C4206 C4201 1.350 . S
C4207 H4194 0.929 . S
C4207 C4199 1.433 . S
C4207 N4209 1.384 . S
N4208 C4204 1.427 . S
N4208 C4205 1.384 . S
N4209 C4201 1.427 . S
N4209 C4207 1.384 . S
H4210 C4216 0.930 . S
H4211 C4220 0.930 . S
H4212 C4225 0.929 . S
H4213 C4223 0.929 . S
H4214 C4218 0.929 . S
H4215 C4224 0.929 . S
C4216 H4210 0.930 . S
C4216 C4217 1.367 . S
C4216 C4224 1.378 . S
C4217 C4216 1.367 . S
C4217 C4225 1.433 . S
C4218 H4214 0.929 . S
C4218 C4220 1.378 . S
C4218 C4222 1.350 . S
C4219 C4222 1.463 . S
C4219 C4224 1.350 . S
C4219 N4227 1.427 . S
C4220 H4211 0.930 . S
C4220 C4218 1.378 . S
C4220 C4221 1.367 . S
C4221 C4220 1.367 . S
C4221 C4223 1.433 . S
C4222 C4218 1.350 . S
C4222 C4219 1.463 . S
C4222 N4226 1.427 . S
C4223 H4213 0.929 . S
C4223 C4221 1.433 . S
C4223 N4226 1.384 . S
C4224 H4215 0.929 . S
C4224 C4216 1.378 . S
C4224 C4219 1.350 . S
C4225 H4212 0.929 . S
C4225 C4217 1.433 . S
C4225 N4227 1.384 . S
N4226 C4222 1.427 . S
N4226 C4223 1.384 . S
N4227 C4219 1.427 . S
N4227 C4225 1.384 . S
H4228 C4234 0.930 . S
H4229 C4238 0.930 1_455 S
H4230 C4243 0.929 . S
H4231 C4241 0.953 . S
H4232 C4236 0.929 . S
H4233 C4242 0.929 . S
C4234 H4228 0.930 . S
C4234 C4235 1.367 . S
C4234 C4242 1.378 . S
C4235 C4234 1.367 . S
C4235 C4243 1.433 . S
C4236 H4232 0.929 . S
C4236 C4238 1.378 . S
C4236 C4240 1.350 . S
C4237 C4240 1.463 . S
C4237 C4242 1.350 . S
C4237 N4245 1.427 . S
C4238 H4229 0.930 1_655 S
C4238 C4236 1.378 . S
C4238 C4239 1.367 1_655 S
C4239 C4238 1.367 1_455 S
C4239 C4241 1.433 1_455 S
C4240 C4236 1.350 . S
C4240 C4237 1.463 . S
C4240 N4244 1.427 . S
C4241 H4231 0.953 . S
C4241 C4239 1.433 1_655 S
C4241 N4244 1.384 . S
C4242 H4233 0.929 . S
C4242 C4234 1.378 . S
C4242 C4237 1.350 . S
C4243 H4230 0.929 . S
C4243 C4235 1.433 . S
C4243 N4245 1.384 . S
N4244 C4240 1.427 . S
N4244 C4241 1.384 . S
N4245 C4237 1.427 . S
N4245 C4243 1.384 . S
H4246 C4252 0.930 . S
H4247 C4256 0.930 . S
H4248 C4261 0.929 . S
H4249 C4259 0.929 . S
H4250 C4254 0.929 . S
H4251 C4260 0.929 . S
C4252 H4246 0.930 . S
C4252 C4253 1.367 . S
C4252 C4260 1.378 . S
C4253 C4252 1.367 . S
C4253 C4261 1.433 . S
C4254 H4250 0.929 . S
C4254 C4256 1.378 . S
C4254 C4258 1.350 . S
C4255 C4258 1.463 . S
C4255 C4260 1.350 . S
C4255 N4263 1.427 . S
C4256 H4247 0.930 . S
C4256 C4254 1.378 . S
C4256 C4257 1.367 . S
C4257 C4256 1.367 . S
C4257 C4259 1.433 . S
C4258 C4254 1.350 . S
C4258 C4255 1.463 . S
C4258 N4262 1.427 . S
C4259 H4249 0.929 . S
C4259 C4257 1.433 . S
C4259 N4262 1.384 . S
C4260 H4251 0.929 . S
C4260 C4252 1.378 . S
C4260 C4255 1.350 . S
C4261 H4248 0.929 . S
C4261 C4253 1.433 . S
C4261 N4263 1.384 . S
N4262 C4258 1.427 . S
N4262 C4259 1.384 . S
N4263 C4255 1.427 . S
N4263 C4261 1.384 . S
H4264 C4270 0.930 . S
H4265 C4274 0.930 . S
H4266 C4279 0.929 . S
H4267 C4277 0.929 . S
H4268 C4272 0.929 . S
H4269 C4278 0.929 . S
C4270 H4264 0.930 . S
C4270 C4271 1.367 . S
C4270 C4278 1.378 . S
C4271 C4270 1.367 . S
C4271 C4279 1.433 . S
C4272 H4268 0.929 . S
C4272 C4274 1.378 . S
C4272 C4276 1.350 . S
C4273 C4276 1.463 . S
C4273 C4278 1.350 . S
C4273 N4281 1.427 . S
C4274 H4265 0.930 . S
C4274 C4272 1.378 . S
C4274 C4275 1.367 . S
C4275 C4274 1.367 . S
C4275 C4277 1.433 . S
C4276 C4272 1.350 . S
C4276 C4273 1.463 . S
C4276 N4280 1.427 . S
C4277 H4267 0.929 . S
C4277 C4275 1.433 . S
C4277 N4280 1.384 . S
C4278 H4269 0.929 . S
C4278 C4270 1.378 . S
C4278 C4273 1.350 . S
C4279 H4266 0.929 . S
C4279 C4271 1.433 . S
C4279 N4281 1.384 . S
N4280 C4276 1.427 . S
N4280 C4277 1.384 . S
N4281 C4273 1.427 . S
N4281 C4279 1.384 . S
H4282 C4288 0.930 . S
H4283 C4292 0.930 . S
H4284 C4297 0.929 . S
H4285 C4295 0.929 . S
H4286 C4290 0.929 . S
H4287 C4296 0.929 . S
C4288 H4282 0.930 . S
C4288 C4289 1.367 . S
C4288 C4296 1.378 . S
C4289 C4288 1.367 . S
C4289 C4297 1.433 . S
C4290 H4286 0.929 . S
C4290 C4292 1.378 . S
C4290 C4294 1.350 . S
C4291 C4294 1.463 . S
C4291 C4296 1.350 . S
C4291 N4299 1.427 . S
C4292 H4283 0.930 . S
C4292 C4290 1.378 . S
C4292 C4293 1.367 . S
C4293 C4292 1.367 . S
C4293 C4295 1.433 . S
C4294 C4290 1.350 . S
C4294 C4291 1.463 . S
C4294 N4298 1.427 . S
C4295 H4285 0.929 . S
C4295 C4293 1.433 . S
C4295 N4298 1.384 . S
C4296 H4287 0.929 . S
C4296 C4288 1.378 . S
C4296 C4291 1.350 . S
C4297 H4284 0.929 . S
C4297 C4289 1.433 . S
C4297 N4299 1.384 . S
N4298 C4294 1.427 . S
N4298 C4295 1.384 . S
N4299 C4291 1.427 . S
N4299 C4297 1.384 . S
H4300 C4306 0.930 . S
H4301 C4310 0.930 . S
H4302 C4315 0.929 . S
H4303 C4313 0.929 . S
H4304 C4308 0.929 . S
H4305 C4314 0.929 . S
C4306 H4300 0.930 . S
C4306 C4307 1.367 . S
C4306 C4314 1.378 . S
C4307 C4306 1.367 . S
C4307 C4315 1.433 . S
C4308 H4304 0.929 . S
C4308 C4310 1.378 . S
C4308 C4312 1.350 . S
C4309 C4312 1.463 . S
C4309 C4314 1.350 . S
C4309 N4317 1.427 . S
C4310 H4301 0.930 . S
C4310 C4308 1.378 . S
C4310 C4311 1.367 . S
C4311 C4310 1.367 . S
C4311 C4313 1.433 . S
C4312 C4308 1.350 . S
C4312 C4309 1.463 . S
C4312 N4316 1.427 . S
C4313 H4303 0.929 . S
C4313 C4311 1.433 . S
C4313 N4316 1.384 . S
C4314 H4305 0.929 . S
C4314 C4306 1.378 . S
C4314 C4309 1.350 . S
C4315 H4302 0.929 . S
C4315 C4307 1.433 . S
C4315 N4317 1.384 . S
N4316 C4312 1.427 . S
N4316 C4313 1.384 . S
N4317 C4309 1.427 . S
N4317 C4315 1.384 . S
H4318 C4324 0.930 . S
H4319 C4328 0.930 . S
H4320 C4333 0.929 . S
H4321 C4331 0.929 . S
H4322 C4326 0.929 . S
H4323 C4332 0.929 . S
C4324 H4318 0.930 . S
C4324 C4325 1.367 . S
C4324 C4332 1.378 . S
C4325 C4324 1.367 . S
C4325 C4333 1.433 . S
C4326 H4322 0.929 . S
C4326 C4328 1.378 . S
C4326 C4330 1.350 . S
C4327 C4330 1.463 . S
C4327 C4332 1.350 . S
C4327 N4335 1.427 . S
C4328 H4319 0.930 . S
C4328 C4326 1.378 . S
C4328 C4329 1.367 . S
C4329 C4328 1.367 . S
C4329 C4331 1.433 . S
C4330 C4326 1.350 . S
C4330 C4327 1.463 . S
C4330 N4334 1.427 . S
C4331 H4321 0.929 . S
C4331 C4329 1.433 . S
C4331 N4334 1.384 . S
C4332 H4323 0.929 . S
C4332 C4324 1.378 . S
C4332 C4327 1.350 . S
C4333 H4320 0.929 . S
C4333 C4325 1.433 . S
C4333 N4335 1.384 . S
N4334 C4330 1.427 . S
N4334 C4331 1.384 . S
N4335 C4327 1.427 . S
N4335 C4333 1.384 . S
H4336 C4342 0.930 . S
H4337 C4346 0.930 . S
H4338 C4351 0.929 . S
H4339 C4349 0.929 . S
H4340 C4344 0.929 . S
H4341 C4350 0.929 . S
C4342 H4336 0.930 . S
C4342 C4343 1.367 . S
C4342 C4350 1.378 . S
C4343 C4342 1.367 . S
C4343 C4351 1.433 . S
C4344 H4340 0.929 . S
C4344 C4346 1.378 . S
C4344 C4348 1.350 . S
C4345 C4348 1.463 . S
C4345 C4350 1.350 . S
C4345 N4353 1.427 . S
C4346 H4337 0.930 . S
C4346 C4344 1.378 . S
C4346 C4347 1.367 . S
C4347 C4346 1.367 . S
C4347 C4349 1.433 . S
C4348 C4344 1.350 . S
C4348 C4345 1.463 . S
C4348 N4352 1.427 . S
C4349 H4339 0.929 . S
C4349 C4347 1.433 . S
C4349 N4352 1.384 . S
C4350 H4341 0.929 . S
C4350 C4342 1.378 . S
C4350 C4345 1.350 . S
C4351 H4338 0.929 . S
C4351 C4343 1.433 . S
C4351 N4353 1.384 . S
N4352 C4348 1.427 . S
N4352 C4349 1.384 . S
N4353 C4345 1.427 . S
N4353 C4351 1.384 . S
H4354 C4360 0.930 . S
H4355 C4364 0.930 . S
H4356 C4369 0.929 . S
H4357 C4367 0.929 . S
H4358 C4362 0.929 . S
H4359 C4368 0.929 . S
C4360 H4354 0.930 . S
C4360 C4361 1.367 . S
C4360 C4368 1.378 . S
C4361 C4360 1.367 . S
C4361 C4369 1.433 . S
C4362 H4358 0.929 . S
C4362 C4364 1.378 1_565 S
C4362 C4366 1.350 . S
C4363 C4366 1.463 . S
C4363 C4368 1.350 . S
C4363 N4371 1.427 . S
C4364 H4355 0.930 . S
C4364 C4362 1.378 1_545 S
C4364 C4365 1.367 . S
C4365 C4364 1.367 . S
C4365 C4367 1.433 1_545 S
C4366 C4362 1.350 . S
C4366 C4363 1.463 . S
C4366 N4370 1.427 . S
C4367 H4357 0.929 . S
C4367 C4365 1.433 1_565 S
C4367 N4370 1.384 . S
C4368 H4359 0.929 . S
C4368 C4360 1.378 . S
C4368 C4363 1.350 . S
C4369 H4356 0.929 . S
C4369 C4361 1.433 . S
C4369 N4371 1.384 . S
N4370 C4366 1.427 . S
N4370 C4367 1.384 . S
N4371 C4363 1.427 . S
N4371 C4369 1.384 . S
H4372 C4378 0.930 . S
H4373 C4382 0.930 . S
H4374 C4387 0.929 . S
H4375 C4385 0.929 . S
H4376 C4380 0.929 . S
H4377 C4386 0.929 . S
C4378 H4372 0.930 . S
C4378 C4379 1.367 . S
C4378 C4386 1.378 . S
C4379 C4378 1.367 . S
C4379 C4387 1.433 . S
C4380 H4376 0.929 . S
C4380 C4382 1.378 . S
C4380 C4384 1.350 . S
C4381 C4384 1.463 . S
C4381 C4386 1.350 . S
C4381 N4389 1.427 . S
C4382 H4373 0.930 . S
C4382 C4380 1.378 . S
C4382 C4383 1.367 . S
C4383 C4382 1.367 . S
C4383 C4385 1.433 . S
C4384 C4380 1.350 . S
C4384 C4381 1.463 . S
C4384 N4388 1.427 . S
C4385 H4375 0.929 . S
C4385 C4383 1.433 . S
C4385 N4388 1.384 . S
C4386 H4377 0.929 . S
C4386 C4378 1.378 . S
C4386 C4381 1.350 . S
C4387 H4374 0.929 . S
C4387 C4379 1.433 . S
C4387 N4389 1.384 . S
N4388 C4384 1.427 . S
N4388 C4385 1.384 . S
N4389 C4381 1.427 . S
N4389 C4387 1.384 . S
H4390 C4396 0.930 . S
H4391 C4400 0.930 . S
H4392 C4405 0.929 . S
H4393 C4403 0.929 . S
H4394 C4398 0.929 . S
H4395 C4404 0.929 . S
C4396 H4390 0.930 . S
C4396 C4397 1.367 . S
C4396 C4404 1.378 . S
C4397 C4396 1.367 . S
C4397 C4405 1.433 . S
C4398 H4394 0.929 . S
C4398 C4400 1.378 . S
C4398 C4402 1.350 . S
C4399 C4402 1.463 . S
C4399 C4404 1.350 . S
C4399 N4407 1.427 . S
C4400 H4391 0.930 . S
C4400 C4398 1.378 . S
C4400 C4401 1.367 . S
C4401 C4400 1.367 . S
C4401 C4403 1.433 . S
C4402 C4398 1.350 . S
C4402 C4399 1.463 . S
C4402 N4406 1.427 . S
C4403 H4393 0.929 . S
C4403 C4401 1.433 . S
C4403 N4406 1.384 . S
C4404 H4395 0.929 . S
C4404 C4396 1.378 . S
C4404 C4399 1.350 . S
C4405 H4392 0.929 . S
C4405 C4397 1.433 . S
C4405 N4407 1.384 . S
N4406 C4402 1.427 . S
N4406 C4403 1.384 . S
N4407 C4399 1.427 . S
N4407 C4405 1.384 . S
H4408 C4414 0.930 . S
H4409 C4418 0.930 . S
H4410 C4423 0.929 . S
H4411 C4421 0.929 . S
H4412 C4416 0.929 . S
H4413 C4422 0.929 . S
C4414 H4408 0.930 . S
C4414 C4415 1.367 . S
C4414 C4422 1.378 . S
C4415 C4414 1.367 . S
C4415 C4423 1.433 . S
C4416 H4412 0.929 . S
C4416 C4418 1.378 . S
C4416 C4420 1.350 . S
C4417 C4420 1.463 . S
C4417 C4422 1.350 . S
C4417 N4425 1.427 . S
C4418 H4409 0.930 . S
C4418 C4416 1.378 . S
C4418 C4419 1.367 . S
C4419 C4418 1.367 . S
C4419 C4421 1.433 . S
C4420 C4416 1.350 . S
C4420 C4417 1.463 . S
C4420 N4424 1.427 . S
C4421 H4411 0.929 . S
C4421 C4419 1.433 . S
C4421 N4424 1.384 . S
C4422 H4413 0.929 . S
C4422 C4414 1.378 . S
C4422 C4417 1.350 . S
C4423 H4410 0.929 . S
C4423 C4415 1.433 . S
C4423 N4425 1.384 . S
N4424 C4420 1.427 . S
N4424 C4421 1.384 . S
N4425 C4417 1.427 . S
N4425 C4423 1.384 . S
H4426 C4432 0.930 1_556 S
H4427 C4436 0.930 . S
H4428 C4441 0.929 . S
H4429 C4439 0.929 . S
H4430 C4434 0.929 . S
H4431 C4440 0.932 1_556 S
C4432 H4426 0.930 1_554 S
C4432 C4433 1.367 . S
C4432 C4440 1.377 . S
C4433 C4432 1.367 . S
C4433 C4441 1.433 . S
C4434 H4430 0.929 . S
C4434 C4436 1.378 . S
C4434 C4438 1.350 . S
C4435 C4438 1.463 . S
C4435 C4440 1.347 . S
C4435 N4443 1.427 . S
C4436 H4427 0.930 . S
C4436 C4434 1.378 . S
C4436 C4437 1.364 . S
C4437 C4436 1.364 . S
C4437 C4439 1.435 1_554 S
C4438 C4434 1.350 . S
C4438 C4435 1.463 . S
C4438 N4442 1.427 1_554 S
C4439 H4429 0.929 . S
C4439 C4437 1.435 1_556 S
C4439 N4442 1.384 . S
C4440 H4431 0.932 1_554 S
C4440 C4432 1.377 . S
C4440 C4435 1.347 . S
C4441 H4428 0.929 . S
C4441 C4433 1.433 . S
C4441 N4443 1.384 . S
N4442 C4438 1.427 1_556 S
N4442 C4439 1.384 . S
N4443 C4435 1.427 . S
N4443 C4441 1.384 . S
H4444 C4450 0.930 . S
H4445 C4454 0.930 . S
H4446 C4459 0.929 . S
H4447 C4457 0.929 . S
H4448 C4452 0.929 . S
H4449 C4458 0.929 . S
C4450 H4444 0.930 . S
C4450 C4451 1.367 . S
C4450 C4458 1.378 . S
C4451 C4450 1.367 . S
C4451 C4459 1.433 . S
C4452 H4448 0.929 . S
C4452 C4454 1.378 . S
C4452 C4456 1.350 . S
C4453 C4456 1.463 . S
C4453 C4458 1.350 . S
C4453 N4461 1.427 . S
C4454 H4445 0.930 . S
C4454 C4452 1.378 . S
C4454 C4455 1.367 . S
C4455 C4454 1.367 . S
C4455 C4457 1.433 . S
C4456 C4452 1.350 . S
C4456 C4453 1.463 . S
C4456 N4460 1.427 . S
C4457 H4447 0.929 . S
C4457 C4455 1.433 . S
C4457 N4460 1.384 . S
C4458 H4449 0.929 . S
C4458 C4450 1.378 . S
C4458 C4453 1.350 . S
C4459 H4446 0.929 . S
C4459 C4451 1.433 . S
C4459 N4461 1.384 . S
N4460 C4456 1.427 . S
N4460 C4457 1.384 . S
N4461 C4453 1.427 . S
N4461 C4459 1.384 . S
H4462 C4468 0.930 . S
H4463 C4472 0.930 . S
H4464 C4477 0.929 . S
H4465 C4475 0.929 . S
H4466 C4470 0.929 . S
H4467 C4476 0.929 . S
C4468 H4462 0.930 . S
C4468 C4469 1.367 . S
C4468 C4476 1.378 . S
C4469 C4468 1.367 . S
C4469 C4477 1.433 . S
C4470 H4466 0.929 . S
C4470 C4472 1.378 . S
C4470 C4474 1.350 . S
C4471 C4474 1.463 . S
C4471 C4476 1.350 . S
C4471 N4479 1.427 . S
C4472 H4463 0.930 . S
C4472 C4470 1.378 . S
C4472 C4473 1.367 . S
C4473 C4472 1.367 . S
C4473 C4475 1.433 . S
C4474 C4470 1.350 . S
C4474 C4471 1.463 . S
C4474 N4478 1.427 . S
C4475 H4465 0.929 . S
C4475 C4473 1.433 . S
C4475 N4478 1.384 . S
C4476 H4467 0.929 . S
C4476 C4468 1.378 . S
C4476 C4471 1.350 . S
C4477 H4464 0.929 . S
C4477 C4469 1.433 . S
C4477 N4479 1.384 . S
N4478 C4474 1.427 . S
N4478 C4475 1.384 . S
N4479 C4471 1.427 . S
N4479 C4477 1.384 . S
C2759 C665 2.107 1_554 S
C2763 C2125 2.147 . S
C2777 C381 2.013 . S
C2781 C2176 2.021 . S
C2795 C460 1.555 . S
C2799 C2205 1.630 . S
C2817 C2249 1.427 . S
C2813 C585 1.466 . S
C2831 C108 1.330 . S
C2835 C2289 1.288 . S
C2853 C2325 1.578 . S
C2849 C196 1.539 . S
C2871 C2375 1.724 . S
C2867 C313 1.720 . S
C2885 C49 2.235 . S
C2889 C2405 2.262 . S
C2907 C2135 1.823 . S
C2903 C1457 1.852 . S
C2921 C1545 0.319 . S
C2925 C2178 0.392 . S
C2943 C2215 1.125 . S
C2939 C1721 1.136 . S
C2961 C2245 1.470 . S
C2957 C1113 1.431 . S
C2975 C1428 1.464 1_455 S
C2979 C2285 1.498 . S
C2997 C2335 0.821 . S
C2993 C1516 0.823 . S
C3015 C2369 0.702 . S
C3011 C1692 0.679 . S
C3033 C2415 1.826 . S
C3029 C1085 1.853 . S
C3051 C2129 0.979 1_565 S
C3047 C988 1.011 . S
C3065 C1817 1.634 . S
C3069 C2455 1.617 . S
C3087 C2489 1.339 . S
C3083 C2081 1.380 . S
C3105 C2525 0.813 . S
C3101 C1993 0.811 . S
C3119 C761 1.345 . S
C3123 C2409 1.315 . S
C3137 C821 1.449 . S
C3141 C2209 1.392 . S
C3155 C2053 1.556 . S
C3159 C2575 1.540 . S
C3177 C2594 0.188 . S
C3173 C1868 0.281 . S
C3195 C2136 2.143 . S
C3191 C372 2.102 . S
C3213 C2605 2.016 . S
C3209 C645 2.011 . S
C3227 C577 1.564 . S
C3231 C2216 1.621 . S
C3245 C497 1.461 . S
C3249 C2578 1.410 . S
C3267 C2298 1.293 . S
C3263 C57 1.330 . S
C3281 C293 1.527 . S
C3285 C2496 1.572 . S
C3303 C2354 1.722 1_556 S
C3299 C205 1.715 . S
C3321 C2656 2.261 . S
C3317 C145 2.227 . S
C3339 C2114 1.817 . S
C3335 C909 1.847 . S
C3357 C2609 0.392 . S
C3353 C1956 0.314 . S
C3371 C724 1.132 . S
C3375 C2194 1.125 . S
C3389 C1780 1.417 . S
C3393 C2576 1.466 . S
C3407 C937 1.449 . S
C3411 C2296 1.494 . S
C3429 C2474 0.825 . S
C3425 C1985 0.820 . S
C3443 C753 0.676 . S
C3447 C2378 0.693 . S
C3461 C1809 1.855 . S
C3465 C2634 1.826 . S
C3479 C1173 1.001 . S
C3483 C2138 0.964 . S
C3497 C1105 1.626 . S
C3501 C2434 1.619 . S
C3515 C1633 1.377 . S
C3519 C2338 1.328 . S
C3533 C1553 0.809 . S
C3537 C2536 0.805 . S
C3555 C2658 1.327 . S
C3551 C1729 1.360 . S
C3569 C1340 1.454 . S
C3573 C2218 1.398 . S
C3591 C2234 1.537 . S
C3587 C1604 1.550 . S
C3609 C2175 0.194 . S
C3605 C1252 0.258 . S
C3623 C489 2.103 . S
C3627 C2685 2.154 . S
C3645 C2616 2.017 . S
C3641 C557 2.018 . S
C3659 C636 1.568 . S
C3663 C2725 1.630 . S
C3677 C409 1.461 . S
C3681 C2569 1.412 . S
C3695 C284 1.332 . S
C3699 C2449 1.296 . S
C3717 C2485 1.578 . S
C3713 C20 1.531 . S
C3735 C2535 1.724 . S
C3731 C137 1.720 . S
C3753 C2645 2.265 . S
C3749 C225 2.226 . S
C3771 C2695 1.824 . S
C3767 C1641 1.850 . S
C3785 C1193 0.321 . S
C3789 C2618 0.393 . S
C3807 C2735 1.129 . S
C3803 C1289 1.137 . S
C3825 C2565 1.470 . S
C3821 C1377 1.430 . S
C3843 C2445 1.503 . S
C3839 C1613 1.456 . S
C3857 C1164 0.828 . S
C3861 C2495 0.818 . S
C3879 C2529 0.701 . S
C3875 C1261 0.677 . S
C3893 C1349 1.854 . S
C3897 C2655 1.826 . S
C3915 C2689 0.967 . S
C3911 C1965 0.997 . S
C3929 C849 1.634 . S
C3933 C2295 1.622 . S
C3951 C2329 1.343 . S
C3947 C929 1.382 . S
C3969 C2365 0.812 . S
C3965 C1017 0.811 . S
C3987 C2649 1.333 . S
C3983 C1897 1.357 . S
C4001 C1789 1.449 . S
C4005 C2729 1.392 . S
C4023 C2255 1.544 . S
C4019 C900 1.553 . S
C4041 C2154 0.196 . S
C4037 C733 0.264 . S
C4055 C548 2.100 . S
C4059 C2696 2.149 . S
C4077 C2165 2.016 . S
C4073 C469 2.005 . S
C4091 C401 1.553 . S
C4095 C2736 1.624 . S
C4109 C673 1.463 . S
C4113 C2258 1.414 . S
C4127 C233 1.329 . S
C4131 C2458 1.286 . S
C4149 C2336 1.573 . S
C4145 C117 1.523 . S
C4163 C29 1.712 . S
C4167 C2514 1.725 . S
C4181 C321 2.228 . S
C4185 C2416 2.262 . S
C4203 C2674 1.826 . S
C4199 C2044 1.851 . S
C4217 C997 0.314 . S
C4221 C2169 0.423 . S
C4239 C2714 1.125 . S
C4235 C1877 1.133 . S
C4253 C812 1.417 . S
C4257 C2256 1.466 . S
C4271 C2073 1.449 . S
C4275 C2456 1.494 . S
C4293 C2314 0.829 . S
C4289 C1025 0.828 . S
C4307 C1905 0.676 . S
C4311 C2538 0.694 . S
C4329 C2394 1.828 . S
C4325 C841 1.856 . S
C4347 C2698 0.978 . S
C4343 C1525 1.004 . S
C4365 C2274 1.615 . S
C4361 C1369 1.630 . S
C4379 C1465 1.376 . S
C4383 C2498 1.326 . S
C4401 C2376 0.799 . S
C4397 C1201 0.808 . S
C4415 C1281 1.360 . S
C4419 C2418 1.326 . S
C4433 C1076 1.451 . S
C4437 C2738 1.392 . S
C4455 C2554 1.542 . S
C4451 C1437 1.548 . S
C4473 C2615 0.237 . S
C4469 C1701 0.280 . S
