# Generated by pormake.
# Topology gar, (4,6)-cn, num edge types: 1
# Building blocks:
#     Node 0, Type 0, BuildingBlock: QUQFOY_clean_sbu_1, # of connection points: 4
#     Node 1, Type 0, BuildingBlock: QUQFOY_clean_sbu_1, # of connection points: 4
#     Node 2, Type 0, BuildingBlock: QUQFOY_clean_sbu_1, # of connection points: 4
#     Node 3, Type 0, BuildingBlock: QUQFOY_clean_sbu_1, # of connection points: 4
#     Node 4, Type 0, BuildingBlock: QUQFOY_clean_sbu_1, # of connection points: 4
#     Node 5, Type 0, BuildingBlock: QUQFOY_clean_sbu_1, # of connection points: 4
#     Node 6, Type 0, BuildingBlock: QUQFOY_clean_sbu_1, # of connection points: 4
#     Node 7, Type 0, BuildingBlock: QUQFOY_clean_sbu_1, # of connection points: 4
#     Node 8, Type 0, BuildingBlock: QUQFOY_clean_sbu_1, # of connection points: 4
#     Node 9, Type 0, BuildingBlock: QUQFOY_clean_sbu_1, # of connection points: 4
#     Node 10, Type 0, BuildingBlock: QUQFOY_clean_sbu_1, # of connection points: 4
#     Node 11, Type 0, BuildingBlock: QUQFOY_clean_sbu_1, # of connection points: 4
#     Node 12, Type 0, BuildingBlock: QUQFOY_clean_sbu_1, # of connection points: 4
#     Node 13, Type 0, BuildingBlock: QUQFOY_clean_sbu_1, # of connection points: 4
#     Node 14, Type 0, BuildingBlock: QUQFOY_clean_sbu_1, # of connection points: 4
#     Node 15, Type 0, BuildingBlock: QUQFOY_clean_sbu_1, # of connection points: 4
#     Node 16, Type 0, BuildingBlock: QUQFOY_clean_sbu_1, # of connection points: 4
#     Node 17, Type 0, BuildingBlock: QUQFOY_clean_sbu_1, # of connection points: 4
#     Node 18, Type 0, BuildingBlock: QUQFOY_clean_sbu_1, # of connection points: 4
#     Node 19, Type 0, BuildingBlock: QUQFOY_clean_sbu_1, # of connection points: 4
#     Node 20, Type 0, BuildingBlock: QUQFOY_clean_sbu_1, # of connection points: 4
#     Node 21, Type 0, BuildingBlock: QUQFOY_clean_sbu_1, # of connection points: 4
#     Node 22, Type 0, BuildingBlock: QUQFOY_clean_sbu_1, # of connection points: 4
#     Node 23, Type 0, BuildingBlock: QUQFOY_clean_sbu_1, # of connection points: 4
#     Node 24, Type 1, BuildingBlock: KUMJIN_clean_sbu_0, # of connection points: 6
#     Node 25, Type 1, BuildingBlock: KUMJIN_clean_sbu_0, # of connection points: 6
#     Node 26, Type 1, BuildingBlock: KUMJIN_clean_sbu_0, # of connection points: 6
#     Node 27, Type 1, BuildingBlock: KUMJIN_clean_sbu_0, # of connection points: 6
#     Node 28, Type 1, BuildingBlock: KUMJIN_clean_sbu_0, # of connection points: 6
#     Node 29, Type 1, BuildingBlock: KUMJIN_clean_sbu_0, # of connection points: 6
#     Node 30, Type 1, BuildingBlock: KUMJIN_clean_sbu_0, # of connection points: 6
#     Node 31, Type 1, BuildingBlock: KUMJIN_clean_sbu_0, # of connection points: 6
#     Node 32, Type 1, BuildingBlock: KUMJIN_clean_sbu_0, # of connection points: 6
#     Node 33, Type 1, BuildingBlock: KUMJIN_clean_sbu_0, # of connection points: 6
#     Node 34, Type 1, BuildingBlock: KUMJIN_clean_sbu_0, # of connection points: 6
#     Node 35, Type 1, BuildingBlock: KUMJIN_clean_sbu_0, # of connection points: 6
#     Node 36, Type 1, BuildingBlock: KUMJIN_clean_sbu_0, # of connection points: 6
#     Node 37, Type 1, BuildingBlock: KUMJIN_clean_sbu_0, # of connection points: 6
#     Node 38, Type 1, BuildingBlock: KUMJIN_clean_sbu_0, # of connection points: 6
#     Node 39, Type 1, BuildingBlock: KUMJIN_clean_sbu_0, # of connection points: 6
#     Edge 40, Type (0, 1), BuildingBlock: XUDNAN_clean_linker_2, # of connection points: 2
#     Edge 41, Type (0, 1), BuildingBlock: XUDNAN_clean_linker_2, # of connection points: 2
#     Edge 42, Type (0, 1), BuildingBlock: XUDNAN_clean_linker_2, # of connection points: 2
#     Edge 43, Type (0, 1), BuildingBlock: XUDNAN_clean_linker_2, # of connection points: 2
#     Edge 44, Type (0, 1), BuildingBlock: XUDNAN_clean_linker_2, # of connection points: 2
#     Edge 45, Type (0, 1), BuildingBlock: XUDNAN_clean_linker_2, # of connection points: 2
#     Edge 46, Type (0, 1), BuildingBlock: XUDNAN_clean_linker_2, # of connection points: 2
#     Edge 47, Type (0, 1), BuildingBlock: XUDNAN_clean_linker_2, # of connection points: 2
#     Edge 48, Type (0, 1), BuildingBlock: XUDNAN_clean_linker_2, # of connection points: 2
#     Edge 49, Type (0, 1), BuildingBlock: XUDNAN_clean_linker_2, # of connection points: 2
#     Edge 50, Type (0, 1), BuildingBlock: XUDNAN_clean_linker_2, # of connection points: 2
#     Edge 51, Type (0, 1), BuildingBlock: XUDNAN_clean_linker_2, # of connection points: 2
#     Edge 52, Type (0, 1), BuildingBlock: XUDNAN_clean_linker_2, # of connection points: 2
#     Edge 53, Type (0, 1), BuildingBlock: XUDNAN_clean_linker_2, # of connection points: 2
#     Edge 54, Type (0, 1), BuildingBlock: XUDNAN_clean_linker_2, # of connection points: 2
#     Edge 55, Type (0, 1), BuildingBlock: XUDNAN_clean_linker_2, # of connection points: 2
#     Edge 56, Type (0, 1), BuildingBlock: XUDNAN_clean_linker_2, # of connection points: 2
#     Edge 57, Type (0, 1), BuildingBlock: XUDNAN_clean_linker_2, # of connection points: 2
#     Edge 58, Type (0, 1), BuildingBlock: XUDNAN_clean_linker_2, # of connection points: 2
#     Edge 59, Type (0, 1), BuildingBlock: XUDNAN_clean_linker_2, # of connection points: 2
#     Edge 60, Type (0, 1), BuildingBlock: XUDNAN_clean_linker_2, # of connection points: 2
#     Edge 61, Type (0, 1), BuildingBlock: XUDNAN_clean_linker_2, # of connection points: 2
#     Edge 62, Type (0, 1), BuildingBlock: XUDNAN_clean_linker_2, # of connection points: 2
#     Edge 63, Type (0, 1), BuildingBlock: XUDNAN_clean_linker_2, # of connection points: 2
#     Edge 64, Type (0, 1), BuildingBlock: XUDNAN_clean_linker_2, # of connection points: 2
#     Edge 65, Type (0, 1), BuildingBlock: XUDNAN_clean_linker_2, # of connection points: 2
#     Edge 66, Type (0, 1), BuildingBlock: XUDNAN_clean_linker_2, # of connection points: 2
#     Edge 67, Type (0, 1), BuildingBlock: XUDNAN_clean_linker_2, # of connection points: 2
#     Edge 68, Type (0, 1), BuildingBlock: XUDNAN_clean_linker_2, # of connection points: 2
#     Edge 69, Type (0, 1), BuildingBlock: XUDNAN_clean_linker_2, # of connection points: 2
#     Edge 70, Type (0, 1), BuildingBlock: XUDNAN_clean_linker_2, # of connection points: 2
#     Edge 71, Type (0, 1), BuildingBlock: XUDNAN_clean_linker_2, # of connection points: 2
#     Edge 72, Type (0, 1), BuildingBlock: XUDNAN_clean_linker_2, # of connection points: 2
#     Edge 73, Type (0, 1), BuildingBlock: XUDNAN_clean_linker_2, # of connection points: 2
#     Edge 74, Type (0, 1), BuildingBlock: XUDNAN_clean_linker_2, # of connection points: 2
#     Edge 75, Type (0, 1), BuildingBlock: XUDNAN_clean_linker_2, # of connection points: 2
#     Edge 76, Type (0, 1), BuildingBlock: XUDNAN_clean_linker_2, # of connection points: 2
#     Edge 77, Type (0, 1), BuildingBlock: XUDNAN_clean_linker_2, # of connection points: 2
#     Edge 78, Type (0, 1), BuildingBlock: XUDNAN_clean_linker_2, # of connection points: 2
#     Edge 79, Type (0, 1), BuildingBlock: XUDNAN_clean_linker_2, # of connection points: 2
#     Edge 80, Type (0, 1), BuildingBlock: XUDNAN_clean_linker_2, # of connection points: 2
#     Edge 81, Type (0, 1), BuildingBlock: XUDNAN_clean_linker_2, # of connection points: 2
#     Edge 82, Type (0, 1), BuildingBlock: XUDNAN_clean_linker_2, # of connection points: 2
#     Edge 83, Type (0, 1), BuildingBlock: XUDNAN_clean_linker_2, # of connection points: 2
#     Edge 84, Type (0, 1), BuildingBlock: XUDNAN_clean_linker_2, # of connection points: 2
#     Edge 85, Type (0, 1), BuildingBlock: XUDNAN_clean_linker_2, # of connection points: 2
#     Edge 86, Type (0, 1), BuildingBlock: XUDNAN_clean_linker_2, # of connection points: 2
#     Edge 87, Type (0, 1), BuildingBlock: XUDNAN_clean_linker_2, # of connection points: 2
#     Edge 88, Type (0, 1), BuildingBlock: XUDNAN_clean_linker_2, # of connection points: 2
#     Edge 89, Type (0, 1), BuildingBlock: XUDNAN_clean_linker_2, # of connection points: 2
#     Edge 90, Type (0, 1), BuildingBlock: XUDNAN_clean_linker_2, # of connection points: 2
#     Edge 91, Type (0, 1), BuildingBlock: XUDNAN_clean_linker_2, # of connection points: 2
#     Edge 92, Type (0, 1), BuildingBlock: XUDNAN_clean_linker_2, # of connection points: 2
#     Edge 93, Type (0, 1), BuildingBlock: XUDNAN_clean_linker_2, # of connection points: 2
#     Edge 94, Type (0, 1), BuildingBlock: XUDNAN_clean_linker_2, # of connection points: 2
#     Edge 95, Type (0, 1), BuildingBlock: XUDNAN_clean_linker_2, # of connection points: 2
#     Edge 96, Type (0, 1), BuildingBlock: XUDNAN_clean_linker_2, # of connection points: 2
#     Edge 97, Type (0, 1), BuildingBlock: XUDNAN_clean_linker_2, # of connection points: 2
#     Edge 98, Type (0, 1), BuildingBlock: XUDNAN_clean_linker_2, # of connection points: 2
#     Edge 99, Type (0, 1), BuildingBlock: XUDNAN_clean_linker_2, # of connection points: 2
#     Edge 100, Type (0, 1), BuildingBlock: XUDNAN_clean_linker_2, # of connection points: 2
#     Edge 101, Type (0, 1), BuildingBlock: XUDNAN_clean_linker_2, # of connection points: 2
#     Edge 102, Type (0, 1), BuildingBlock: XUDNAN_clean_linker_2, # of connection points: 2
#     Edge 103, Type (0, 1), BuildingBlock: XUDNAN_clean_linker_2, # of connection points: 2
#     Edge 104, Type (0, 1), BuildingBlock: XUDNAN_clean_linker_2, # of connection points: 2
#     Edge 105, Type (0, 1), BuildingBlock: XUDNAN_clean_linker_2, # of connection points: 2
#     Edge 106, Type (0, 1), BuildingBlock: XUDNAN_clean_linker_2, # of connection points: 2
#     Edge 107, Type (0, 1), BuildingBlock: XUDNAN_clean_linker_2, # of connection points: 2
#     Edge 108, Type (0, 1), BuildingBlock: XUDNAN_clean_linker_2, # of connection points: 2
#     Edge 109, Type (0, 1), BuildingBlock: XUDNAN_clean_linker_2, # of connection points: 2
#     Edge 110, Type (0, 1), BuildingBlock: XUDNAN_clean_linker_2, # of connection points: 2
#     Edge 111, Type (0, 1), BuildingBlock: XUDNAN_clean_linker_2, # of connection points: 2
#     Edge 112, Type (0, 1), BuildingBlock: XUDNAN_clean_linker_2, # of connection points: 2
#     Edge 113, Type (0, 1), BuildingBlock: XUDNAN_clean_linker_2, # of connection points: 2
#     Edge 114, Type (0, 1), BuildingBlock: XUDNAN_clean_linker_2, # of connection points: 2
#     Edge 115, Type (0, 1), BuildingBlock: XUDNAN_clean_linker_2, # of connection points: 2
#     Edge 116, Type (0, 1), BuildingBlock: XUDNAN_clean_linker_2, # of connection points: 2
#     Edge 117, Type (0, 1), BuildingBlock: XUDNAN_clean_linker_2, # of connection points: 2
#     Edge 118, Type (0, 1), BuildingBlock: XUDNAN_clean_linker_2, # of connection points: 2
#     Edge 119, Type (0, 1), BuildingBlock: XUDNAN_clean_linker_2, # of connection points: 2
#     Edge 120, Type (0, 1), BuildingBlock: XUDNAN_clean_linker_2, # of connection points: 2
#     Edge 121, Type (0, 1), BuildingBlock: XUDNAN_clean_linker_2, # of connection points: 2
#     Edge 122, Type (0, 1), BuildingBlock: XUDNAN_clean_linker_2, # of connection points: 2
#     Edge 123, Type (0, 1), BuildingBlock: XUDNAN_clean_linker_2, # of connection points: 2
#     Edge 124, Type (0, 1), BuildingBlock: XUDNAN_clean_linker_2, # of connection points: 2
#     Edge 125, Type (0, 1), BuildingBlock: XUDNAN_clean_linker_2, # of connection points: 2
#     Edge 126, Type (0, 1), BuildingBlock: XUDNAN_clean_linker_2, # of connection points: 2
#     Edge 127, Type (0, 1), BuildingBlock: XUDNAN_clean_linker_2, # of connection points: 2
#     Edge 128, Type (0, 1), BuildingBlock: XUDNAN_clean_linker_2, # of connection points: 2
#     Edge 129, Type (0, 1), BuildingBlock: XUDNAN_clean_linker_2, # of connection points: 2
#     Edge 130, Type (0, 1), BuildingBlock: XUDNAN_clean_linker_2, # of connection points: 2
#     Edge 131, Type (0, 1), BuildingBlock: XUDNAN_clean_linker_2, # of connection points: 2
#     Edge 132, Type (0, 1), BuildingBlock: XUDNAN_clean_linker_2, # of connection points: 2
#     Edge 133, Type (0, 1), BuildingBlock: XUDNAN_clean_linker_2, # of connection points: 2
#     Edge 134, Type (0, 1), BuildingBlock: XUDNAN_clean_linker_2, # of connection points: 2
#     Edge 135, Type (0, 1), BuildingBlock: XUDNAN_clean_linker_2, # of connection points: 2
# Relax obj value: 0.136
# Max RMSD: 0.335
# Mean RMSD: 0.178
data_MOF--net-gar--node1-QUQFOY_clean_sbu_1--node2-KUMJIN_clean_sbu_0--edge1-XUDNAN_clean_linker_2
_symmetry_space_group_name_H-M    P1
_symmetry_Int_Tables_number       1
_symmetry_cell_setting            triclinic
loop_
_symmetry_equiv_pos_as_xyz
'x, y, z'
_cell_length_a     62.551277
_cell_length_b     57.155578
_cell_length_c     57.169187
_cell_angle_alpha  100.7178
_cell_angle_beta   93.774023
_cell_angle_gamma 104.72482
loop_
_atom_site_label
_atom_site_type_symbol
_atom_site_fract_x
_atom_site_fract_y
_atom_site_fract_z
_atom_type_partial_charge
O0 O 0.11067 0.26603 0.40895 0.0
Cd1 Cd 0.10785 0.28156 0.37929 0.0
Cd2 Cd 0.10175 0.31674 0.41232 0.0
O3 O 0.11952 0.30189 0.43423 0.0
O4 O 0.12529 0.26665 0.35608 0.0
O5 O 0.13463 0.30667 0.37308 0.0
C6 C 0.1392 0.28829 0.35942 0.0
C7 C 0.10573 0.35915 0.42264 0.0
C8 C 0.11812 0.27896 0.42984 0.0
C9 C 0.06252 0.28512 0.37754 0.0
O10 O 0.06933 0.29743 0.39879 0.0
O11 O 0.07632 0.27889 0.364 0.0
O12 O 0.09686 0.34439 0.43592 0.0
O13 O 0.11325 0.35003 0.40354 0.0
O14 O 0.97706 0.68961 0.66894 0.0
Cd15 Cd 0.99299 0.72165 0.69329 0.0
Cd16 Cd 0.01614 0.73512 0.64026 0.0
O17 O 0.98605 0.71472 0.6455 0.0
O18 O 0.9802 0.71983 0.72409 0.0
O19 O 0.97575 0.74658 0.70188 0.0
C20 C 0.97131 0.73712 0.72046 0.0
C21 C 0.02092 0.75993 0.61213 0.0
C22 C 0.98441 0.69328 0.64955 0.0
C23 C 0.04425 0.73132 0.68533 0.0
O24 O 0.04197 0.73314 0.66339 0.0
O25 O 0.02804 0.72887 0.69818 0.0
O26 O 0.01814 0.76879 0.63391 0.0
O27 O 0.02102 0.73694 0.60648 0.0
O28 O 0.65902 0.82789 0.88093 0.0
Cd29 Cd 0.63218 0.82259 0.90089 0.0
Cd30 Cd 0.60829 0.82589 0.85294 0.0
O31 O 0.64067 0.82788 0.84637 0.0
O32 O 0.63935 0.80825 0.92886 0.0
O33 O 0.61268 0.78826 0.89922 0.0
C34 C 0.62337 0.78876 0.91954 0.0
C35 C 0.58275 0.82197 0.8193 0.0
C36 C 0.65871 0.82938 0.85895 0.0
C37 C 0.60709 0.86071 0.90147 0.0
O38 O 0.60191 0.85191 0.87919 0.0
O39 O 0.61973 0.85222 0.9139 0.0
O40 O 0.60004 0.84044 0.82583 0.0
O41 O 0.58048 0.80431 0.83086 0.0
O42 O 0.49408 0.20286 0.18325 0.0
Cd43 Cd 0.50333 0.23911 0.20191 0.0
Cd44 Cd 0.51293 0.25028 0.15903 0.0
O45 O 0.49781 0.2128 0.14799 0.0
O46 O 0.48428 0.24469 0.22803 0.0
O47 O 0.48408 0.26067 0.19551 0.0
C48 C 0.47623 0.25779 0.21548 0.0
C49 C 0.50708 0.27539 0.1325 0.0
C50 C 0.49268 0.19647 0.16056 0.0
C51 C 0.55121 0.26002 0.19855 0.0
O52 O 0.54472 0.25969 0.17689 0.0
O53 O 0.53707 0.25372 0.21281 0.0
O54 O 0.49894 0.27724 0.15269 0.0
O55 O 0.51826 0.2595 0.12744 0.0
O56 O 0.0949 0.78427 0.11451 0.0
Cd57 Cd 0.09864 0.81824 0.13689 0.0
Cd58 Cd 0.12196 0.83471 0.10006 0.0
O59 O 0.11032 0.79535 0.08315 0.0
O60 O 0.0792 0.80915 0.16263 0.0
O61 O 0.07347 0.8351 0.14062 0.0
C62 C 0.06745 0.82334 0.15734 0.0
C63 C 0.10996 0.87014 0.09 0.0
C64 C 0.10098 0.77824 0.09393 0.0
C65 C 0.14943 0.83793 0.14769 0.0
O66 O 0.15036 0.84078 0.12602 0.0
O67 O 0.13049 0.83163 0.1553 0.0
O68 O 0.1243 0.86125 0.07855 0.0
O69 O 0.10194 0.85866 0.10634 0.0
O70 O 0.56753 0.77875 0.43022 0.0
Cd71 Cd 0.5517 0.78053 0.46167 0.0
Cd72 Cd 0.52289 0.79652 0.41175 0.0
O73 O 0.55042 0.78674 0.39815 0.0
O74 O 0.57175 0.76761 0.48376 0.0
O75 O 0.53737 0.74647 0.47128 0.0
C76 C 0.55627 0.74742 0.48258 0.0
C77 C 0.49026 0.79561 0.38591 0.0
C78 C 0.56665 0.78098 0.40832 0.0
C79 C 0.53902 0.83113 0.46509 0.0
O80 O 0.5306 0.82325 0.4432 0.0
O81 O 0.54774 0.81747 0.47632 0.0
O82 O 0.5088 0.81237 0.3874 0.0
O83 O 0.4903 0.77897 0.39842 0.0
O84 O 0.60461 0.28129 0.63011 0.0
Cd85 Cd 0.6088 0.31188 0.6573 0.0
Cd86 Cd 0.62551 0.33564 0.61769 0.0
O87 O 0.61393 0.29701 0.59845 0.0
O88 O 0.59439 0.29508 0.68244 0.0
O89 O 0.58165 0.32295 0.66879 0.0
C90 C 0.57954 0.30702 0.68236 0.0
C91 C 0.61291 0.37131 0.60832 0.0
C92 C 0.60743 0.27806 0.60804 0.0
C93 C 0.65858 0.33562 0.66209 0.0
O94 O 0.65542 0.34116 0.64154 0.0
O95 O 0.64195 0.32597 0.67223 0.0
O96 O 0.62754 0.36301 0.59687 0.0
O97 O 0.60517 0.35935 0.62446 0.0
O98 O 0.03558 0.23196 0.93664 0.0
Cd99 Cd 0.03402 0.25527 0.91248 0.0
Cd100 Cd 0.01724 0.28255 0.95194 0.0
O101 O 0.02574 0.25358 0.96828 0.0
O102 O 0.04963 0.24177 0.88569 0.0
O103 O 0.06289 0.27937 0.90785 0.0
C104 C 0.06516 0.26228 0.89069 0.0
C105 C 0.03232 0.32693 0.96386 0.0
C106 C 0.03228 0.23471 0.95862 0.0
C107 C 0.98746 0.26517 0.90403 0.0
O108 O 0.98858 0.27413 0.92643 0.0
O109 O 1.00357 0.25743 0.89595 0.0
O110 O 0.01793 0.31488 0.97558 0.0
O111 O 0.03966 0.31378 0.94695 0.0
O112 O 0.491 0.08577 0.2645 0.0
Cd113 Cd 0.45914 0.08376 0.27344 0.0
Cd114 Cd 0.47381 0.06224 0.3087 0.0
O115 O 0.49979 0.06294 0.28875 0.0
O116 O 0.44818 0.10528 0.25476 0.0
O117 O 0.45135 0.11196 0.29442 0.0
C118 C 0.44554 0.11817 0.27484 0.0
C119 C 0.48483 0.07133 0.34975 0.0
C120 C 0.50437 0.07472 0.27219 0.0
C121 C 0.43185 0.03334 0.27678 0.0
O122 O 0.44486 0.03547 0.29549 0.0
O123 O 0.43487 0.05013 0.26462 0.0
O124 O 0.48359 0.05003 0.33668 0.0
O125 O 0.47908 0.08759 0.33968 0.0
O126 O 0.31048 0.19808 0.56162 0.0
Cd127 Cd 0.31246 0.17925 0.52744 0.0
Cd128 Cd 0.29414 0.21732 0.51731 0.0
O129 O 0.304 0.23253 0.55457 0.0
O130 O 0.32738 0.15349 0.53419 0.0
O131 O 0.34273 0.18247 0.51519 0.0
C132 C 0.34401 0.16357 0.52399 0.0
C133 C 0.3022 0.23901 0.48532 0.0
C134 C 0.30792 0.21945 0.56939 0.0
C135 C 0.26467 0.16449 0.50621 0.0
O136 O 0.26547 0.18742 0.51058 0.0
O137 O 0.28236 0.15759 0.50857 0.0
O138 O 0.28845 0.24375 0.50022 0.0
O139 O 0.31221 0.22257 0.48894 0.0
O140 O 0.18671 1.00874 0.73789 0.0
Cd141 Cd 0.21376 1.00933 0.76485 0.0
Cd142 Cd 0.17581 0.04064 0.79288 0.0
O143 O 0.16172 0.02728 0.75415 0.0
O144 O 0.23434 0.98532 0.75117 0.0
O145 O 0.21835 0.9808 0.78291 0.0
C146 C 0.23109 0.97303 0.76809 0.0
C147 C 0.15766 0.03903 0.83198 0.0
C148 C 0.16919 0.01682 0.73535 0.0
C149 C 0.22621 0.06911 0.78639 0.0
O150 O 0.2069 0.06836 0.79353 0.0
O151 O 0.2313 0.04889 0.7772 0.0
O152 O 0.15446 0.05345 0.81789 0.0
O153 O 0.17008 0.02507 0.82387 0.0
O154 O 0.32147 0.97379 0.06305 0.0
Cd155 Cd 0.32345 0.99556 0.03796 0.0
Cd156 Cd 0.31494 0.94298 1.00648 0.0
O157 O 0.30622 0.93687 0.03953 0.0
O158 O 0.2952 1.00183 0.0251 0.0
O159 O 0.31983 0.02809 0.05401 0.0
C160 C 0.30116 0.02262 0.04053 0.0
C161 C 0.31178 0.90746 0.97656 0.0
C162 C 0.31257 0.95067 0.06031 0.0
C163 C 0.35882 0.98633 0.01002 0.0
O164 O 0.34584 0.96469 1.00389 0.0
O165 O 0.35303 1.00331 0.02353 0.0
O166 O 0.32431 0.9122 0.99645 0.0
O167 O 0.29896 0.92158 0.97432 0.0
O168 O 0.31923 0.39945 0.08757 0.0
Cd169 Cd 0.32748 0.42238 0.06341 0.0
Cd170 Cd 0.3436 0.38139 0.04335 0.0
O171 O 0.33005 0.36647 0.07245 0.0
O172 O 0.31374 0.44964 0.0762 0.0
O173 O 0.30373 0.42699 0.03965 0.0
C174 C 0.30119 0.4445 0.05615 0.0
C175 C 0.33312 0.36667 1.00145 0.0
C176 C 0.3214 0.37815 0.08887 0.0
C177 C 0.37733 0.43133 0.05915 0.0
O178 O 0.37413 0.40815 0.05148 0.0
O179 O 0.36104 0.44025 0.06406 0.0
O180 O 0.34451 0.356 0.01355 0.0
O181 O 0.32616 0.38429 0.01338 0.0
O182 O 0.80461 0.14565 0.079 0.0
Cd183 Cd 0.79336 0.11655 0.04995 0.0
Cd184 Cd 0.77867 0.15088 0.03001 0.0
O185 O 0.80047 0.17345 0.05832 0.0
O186 O 0.81006 0.09183 0.05236 0.0
O187 O 0.81225 0.11302 0.02331 0.0
C188 C 0.81822 0.09664 0.03309 0.0
C189 C 0.77495 0.17138 0.99877 0.0
C190 C 0.80745 0.16807 0.0774 0.0
C191 C 0.74492 0.10761 0.04215 0.0
O192 O 0.7491 0.12888 0.03702 0.0
O193 O 0.76044 0.09772 0.04592 0.0
O194 O 0.78443 0.15362 0.99598 0.0
O195 O 0.76739 0.17683 0.01881 0.0
O196 O 0.18392 0.55384 0.20459 0.0
Cd197 Cd 0.2153 0.56262 0.22385 0.0
Cd198 Cd 0.19797 0.59451 0.25544 0.0
O199 O 0.17142 0.58006 0.22968 0.0
O200 O 0.22938 0.53525 0.21444 0.0
O201 O 0.22054 0.5461 0.25103 0.0
C202 C 0.22925 0.53219 0.23625 0.0
C203 C 0.18634 0.60647 0.29255 0.0
C204 C 0.16854 0.56389 0.21049 0.0
C205 C 0.23862 0.61635 0.23285 0.0
O206 O 0.22458 0.6192 0.24734 0.0
O207 O 0.23832 0.59504 0.2212 0.0
O208 O 0.18596 0.61881 0.27602 0.0
O209 O 0.19417 0.58747 0.28845 0.0
O210 O 0.83252 0.89674 0.59793 0.0
Cd211 Cd 0.83671 0.92156 0.57518 0.0
Cd212 Cd 0.84879 0.88118 0.54545 0.0
O213 O 0.83798 0.86415 0.57398 0.0
O214 O 0.8231 0.94782 0.59098 0.0
O215 O 0.81085 0.92597 0.55437 0.0
C216 C 0.80917 0.94296 0.57196 0.0
C217 C 0.8391 0.86118 0.5045 0.0
C218 C 0.83337 0.87435 0.59418 0.0
C219 C 0.88408 0.93052 0.56252 0.0
O220 O 0.8793 0.9079 0.55182 0.0
O221 O 0.86936 0.93955 0.57221 0.0
O222 O 0.85232 0.85453 0.51858 0.0
O223 O 0.83031 0.87836 0.51387 0.0
O224 O 0.96058 0.08253 0.2408 0.0
Cd225 Cd 0.93281 0.08645 0.26284 0.0
Cd226 Cd 0.97445 0.05897 0.29579 0.0
O227 O 0.98556 0.06842 0.26094 0.0
O228 O 0.90948 0.10238 0.24604 0.0
O229 O 0.92802 0.12237 0.27989 0.0
C230 C 0.91332 0.12215 0.26276 0.0
C231 C 0.99672 0.05611 0.33432 0.0
C232 C 0.97883 0.07547 0.24183 0.0
C233 C 0.92158 0.03204 0.28016 0.0
O234 O 0.94168 0.03441 0.28899 0.0
O235 O 0.91628 0.04963 0.27135 0.0
O236 O 0.99563 0.0418 0.31362 0.0
O237 O 0.98653 0.07306 0.33351 0.0
O238 O 0.33772 0.66241 0.56617 0.0
Cd239 Cd 0.32546 0.63693 0.53447 0.0
Cd240 Cd 0.31428 0.67556 0.52286 0.0
O241 O 0.33242 0.69529 0.55452 0.0
O242 O 0.33945 0.60983 0.53656 0.0
O243 O 0.34422 0.6312 0.50784 0.0
C244 C 0.34833 0.61382 0.51746 0.0
C245 C 0.31588 0.69453 0.49026 0.0
C246 C 0.3393 0.68546 0.57055 0.0
C247 C 0.27723 0.63214 0.52719 0.0
O248 O 0.28305 0.65457 0.52534 0.0
O249 O 0.29172 0.62044 0.52944 0.0
O250 O 0.307 0.70199 0.50888 0.0
O251 O 0.32466 0.67639 0.4903 0.0
O252 O 0.45984 0.57851 0.74318 0.0
Cd253 Cd 0.43141 0.58111 0.76477 0.0
Cd254 Cd 0.47263 0.55511 0.79782 0.0
O255 O 0.48461 0.56464 0.76373 0.0
O256 O 0.40937 0.60032 0.75001 0.0
O257 O 0.42656 0.61461 0.78571 0.0
C258 C 0.41285 0.61751 0.7692 0.0
C259 C 0.49431 0.55334 0.83684 0.0
C260 C 0.47822 0.57174 0.74459 0.0
C261 C 0.42043 0.52683 0.78126 0.0
O262 O 0.44054 0.52946 0.79009 0.0
O263 O 0.41474 0.54436 0.7728 0.0
O264 O 0.49391 0.53891 0.81641 0.0
O265 O 0.4837 0.56983 0.83548 0.0
O266 O 0.7018 0.02686 0.7141 0.0
Cd267 Cd 0.72454 0.04217 0.74459 0.0
Cd268 Cd 0.69037 0.05985 0.7586 0.0
O269 O 0.67238 0.03144 0.7317 0.0
O270 O 0.74847 0.0251 0.74214 0.0
O271 O 0.72635 0.02339 0.77086 0.0
C272 C 0.7429 0.01746 0.76129 0.0
C273 C 0.67271 0.07053 0.79204 0.0
C274 C 0.6808 0.0227 0.71363 0.0
C275 C 0.73088 0.09525 0.74766 0.0
O276 O 0.71006 0.09027 0.7485 0.0
O277 O 0.7412 0.07907 0.74921 0.0
O278 O 0.66743 0.07524 0.77166 0.0
O279 O 0.68774 0.05886 0.79354 0.0
O280 O 0.80938 0.71141 0.07077 0.0
Cd281 Cd 0.80707 0.68494 0.04022 0.0
Cd282 Cd 0.78745 0.71791 0.02066 0.0
O283 O 0.79422 0.73776 0.05663 0.0
O284 O 0.82482 0.66306 0.05033 0.0
O285 O 0.83317 0.6832 0.02135 0.0
C286 C 0.8376 0.66828 0.0342 0.0
C287 C 0.80023 0.73557 0.98819 0.0
C288 C 0.80296 0.73106 0.07422 0.0
C289 C 0.75923 0.66538 0.018 0.0
O290 O 0.76059 0.68623 0.01245 0.0
O291 O 0.77575 0.66133 0.02909 0.0
O292 O 0.78277 0.73934 0.99737 0.0
O293 O 0.81083 0.72243 0.99792 0.0
O294 O 0.94696 0.55352 0.73426 0.0
Cd295 Cd 0.93069 0.5618 0.76339 0.0
Cd296 Cd 0.96397 0.54416 0.78613 0.0
O297 O 0.97326 0.54141 0.75225 0.0
O298 O 0.91215 0.58105 0.75067 0.0
O299 O 0.93745 0.59681 0.78249 0.0
C300 C 0.92273 0.59975 0.7672 0.0
C301 C 0.99317 0.55116 0.81663 0.0
C302 C 0.96404 0.54546 0.73355 0.0
C303 C 0.91478 0.51722 0.78447 0.0
O304 O 0.9352 0.51929 0.79047 0.0
O305 O 0.90904 0.53267 0.77375 0.0
O306 O 0.98681 0.53084 0.80086 0.0
O307 O 0.98299 0.56795 0.81519 0.0
O308 O 0.84714 0.45276 0.57627 0.0
Cd309 Cd 0.84539 0.46589 0.5452 0.0
Cd310 Cd 0.85557 0.42467 0.52754 0.0
O311 O 0.84758 0.41493 0.55946 0.0
O312 O 0.83053 0.49306 0.55187 0.0
O313 O 0.81535 0.45765 0.52604 0.0
C314 C 0.81394 0.47902 0.53687 0.0
C315 C 0.83819 0.40392 0.48959 0.0
C316 C 0.84692 0.43085 0.578 0.0
C317 C 0.89084 0.47134 0.53066 0.0
O318 O 0.88678 0.44809 0.52876 0.0
O319 O 0.87552 0.48202 0.53457 0.0
O320 O 0.85183 0.3952 0.50107 0.0
O321 O 0.83349 0.42363 0.50039 0.0
O322 O 0.68624 0.51696 0.24271 0.0
Cd323 Cd 0.71365 0.51651 0.26914 0.0
Cd324 Cd 0.67513 0.54646 0.29837 0.0
O325 O 0.66076 0.53432 0.25965 0.0
O326 O 0.73536 0.49594 0.25272 0.0
O327 O 0.71981 0.4852 0.28292 0.0
C328 C 0.73301 0.48078 0.2672 0.0
C329 C 0.65614 0.54853 0.33722 0.0
C330 C 0.6684 0.52462 0.24057 0.0
C331 C 0.72556 0.57571 0.29216 0.0
O332 O 0.70608 0.57415 0.29898 0.0
O333 O 0.73124 0.55594 0.28279 0.0
O334 O 0.65669 0.56386 0.32306 0.0
O335 O 0.66529 0.53114 0.32938 0.0
Eu336 Eu 0.04375 0.04042 0.02228 0.0
C337 C 0.10933 0.13121 0.04446 0.0
C338 C 0.14179 0.13674 0.023 0.0
C339 C 0.12492 0.17061 0.03337 0.0
C340 C 0.12521 0.12165 0.0334 0.0
C341 C 0.10953 0.1561 0.04531 0.0
C342 C 0.14105 0.16095 0.02225 0.0
C343 C 0.08122 0.15136 0.07218 0.0
N344 N 0.09478 0.1168 0.05599 0.0
C345 C 0.08137 0.12666 0.07046 0.0
C346 C 0.09494 0.16597 0.05905 0.0
Eu347 Eu 0.096 0.07524 0.05208 0.0
N348 N 0.12562 0.09829 0.03466 0.0
C349 C 0.14369 0.09005 0.02866 0.0
C350 C 0.15922 0.12747 0.01475 0.0
C351 C 0.16043 0.10422 0.01808 0.0
H352 H 0.0704 0.11536 0.08028 0.0
H353 H 0.17424 0.09723 0.01253 0.0
H354 H 0.15341 0.17269 0.01398 0.0
H355 H 0.07024 0.15898 0.08329 0.0
H356 H 0.1445 0.07195 0.03104 0.0
H357 H 0.02325 0.96815 0.07508 0.0
H358 H 0.1723 0.13851 1.00669 0.0
H359 H 0.03327 0.02981 0.96162 0.0
H360 H 0.02817 1.00963 0.06721 0.0
H361 H 0.03149 0.99649 0.92659 0.0
H362 H 0.12507 0.18962 0.03346 0.0
H363 H 0.02871 0.93454 0.04404 0.0
H364 H 0.03488 0.91984 1.00161 0.0
H365 H 0.09463 0.18502 0.06023 0.0
H366 H 0.03728 0.92762 0.96088 0.0
N367 N 0.03683 1.00044 0.03177 0.0
C368 C 0.03058 0.99549 0.05322 0.0
C369 C 0.0308 0.95284 0.04031 0.0
C370 C 0.03543 0.95746 0.01776 0.0
C371 C 0.02762 0.97174 0.05783 0.0
C372 C 0.03792 0.98164 0.0138 0.0
H373 H 0.03526 0.95591 0.9326 0.0
N374 N 0.03907 1.00873 0.98722 0.0
C375 C 0.03387 0.99333 0.94455 0.0
C376 C 0.03922 0.98598 0.99084 0.0
C377 C 0.03471 1.01208 0.96442 0.0
C378 C 0.03613 0.97051 0.94803 0.0
C379 C 0.03811 0.96632 0.97133 0.0
O380 O 0.01745 0.05897 0.02891 0.0
O381 O 0.06412 0.07999 0.03501 0.0
O382 O 0.07243 0.07243 0.08212 0.0
O383 O 0.03739 0.05039 0.06289 0.0
O384 O 0.05131 0.06909 0.99916 0.0
O385 O 1.0091 0.02239 1.00713 0.0
O386 O 0.11128 0.09713 0.08767 0.0
O387 O 0.07151 0.03767 0.04786 0.0
O388 O 0.06902 0.04048 0.99301 0.0
O389 O 0.10247 0.067 0.01218 0.0
O390 O 0.10329 0.03806 0.03985 0.0
O391 O 0.12239 0.06576 0.0721 0.0
C392 C 0.06182 0.08799 0.01562 0.0
C393 C 0.98829 0.04903 0.99755 0.0
C394 C 0.95255 0.05518 0.98461 0.0
C395 C 0.96612 0.04789 1.0009 0.0
C396 C 0.96158 0.06366 0.96485 0.0
C397 C 0.99705 0.05765 0.97781 0.0
C398 C 0.98372 0.06487 0.96153 0.0
C399 C 0.05077 0.0627 0.08307 0.0
C400 C 1.002 0.04145 0.01502 0.0
C401 C 0.0377 0.94281 0.97558 0.0
C402 C 0.03634 0.93838 0.99877 0.0
C403 C 0.08445 0.02377 0.04262 0.0
C404 C 0.14948 0.09981 0.09678 0.0
C405 C 0.16707 0.09278 0.08586 0.0
C406 C 0.18937 0.10643 0.0935 0.0
C407 C 0.19377 0.12736 0.11237 0.0
C408 C 0.15436 0.12077 0.11549 0.0
C409 C 0.17637 0.13447 0.12315 0.0
C410 C 0.09028 0.05248 0.99238 0.0
C411 C 0.1261 0.08504 0.08944 0.0
H412 H 0.95961 0.04178 0.01651 0.0
H413 H 0.9515 0.06922 0.95191 0.0
H414 H 0.01413 0.05887 0.97494 0.0
H415 H 0.99057 0.07146 0.94631 0.0
H416 H 0.1634 0.07671 0.07134 0.0
H417 H 0.21067 0.13802 0.11923 0.0
H418 H 0.14115 0.12646 0.12432 0.0
H419 H 0.17999 0.15053 0.13771 0.0
Eu420 Eu 0.34033 0.81734 0.23079 0.0
C421 C 0.29298 0.87758 0.29802 0.0
C422 C 0.31891 0.91842 0.30671 0.0
C423 C 0.2792 0.91409 0.30592 0.0
C424 C 0.31459 0.89246 0.30038 0.0
C425 C 0.27513 0.88825 0.3016 0.0
C426 C 0.30107 0.92916 0.30852 0.0
C427 C 0.25125 0.8474 0.3003 0.0
N428 N 0.28968 0.85272 0.29442 0.0
C429 C 0.26952 0.83775 0.29705 0.0
C430 C 0.25395 0.8727 0.30201 0.0
Eu431 Eu 0.3213 0.8379 0.28761 0.0
N432 N 0.3315 0.88152 0.2989 0.0
C433 C 0.35298 0.89523 0.30608 0.0
C434 C 0.34103 0.93273 0.31249 0.0
C435 C 0.35804 0.92101 0.31292 0.0
H436 H 0.26738 0.81823 0.29607 0.0
H437 H 0.37502 0.93181 0.31871 0.0
H438 H 0.30407 0.94909 0.31298 0.0
H439 H 0.23513 0.83535 0.30156 0.0
H440 H 0.36629 0.88639 0.30633 0.0
H441 H 0.29091 0.81045 0.14544 0.0
H442 H 0.34506 0.95271 0.31773 0.0
H443 H 0.36905 0.77591 0.23968 0.0
H444 H 0.31656 0.83186 0.18202 0.0
H445 H 0.36502 0.7314 0.22729 0.0
H446 H 0.26566 0.92261 0.30838 0.0
H447 H 0.27809 0.76472 0.13548 0.0
H448 H 0.28187 0.72438 0.14406 0.0
H449 H 0.23981 0.88017 0.30473 0.0
H450 H 0.30232 0.70258 0.16662 0.0
N451 N 0.31764 0.79868 0.19345 0.0
C452 C 0.3113 0.8119 0.17784 0.0
C453 C 0.2893 0.77405 0.15168 0.0
C454 C 0.29776 0.76059 0.1663 0.0
C455 C 0.29659 0.79983 0.15715 0.0
C456 C 0.31229 0.77363 0.18723 0.0
H457 H 0.334 0.70515 0.19709 0.0
N458 N 0.33925 0.77491 0.21851 0.0
C459 C 0.35296 0.73947 0.21982 0.0
C460 C 0.32357 0.76133 0.20012 0.0
C461 C 0.3549 0.76475 0.22715 0.0
C462 C 0.33543 0.72472 0.20279 0.0
C463 C 0.3209 0.73573 0.19213 0.0
O464 O 0.3745 0.84127 0.23657 0.0
O465 O 0.3417 0.85039 0.25944 0.0
O466 O 0.29366 0.83698 0.25887 0.0
O467 O 0.30344 0.81788 0.2227 0.0
O468 O 0.33312 0.85233 0.22417 0.0
O469 O 0.36287 0.81539 0.20325 0.0
O470 O 0.32225 0.81263 0.31184 0.0
O471 O 0.32552 0.80559 0.26181 0.0
O472 O 0.35724 0.80723 0.26316 0.0
O473 O 0.3588 0.84142 0.29198 0.0
O474 O 0.29517 0.80068 0.2755 0.0
O475 O 0.32633 0.85116 0.3265 0.0
C476 C 0.33683 0.86422 0.24618 0.0
C477 C 0.387 0.85398 0.20219 0.0
C478 C 0.37922 0.88137 0.17673 0.0
C479 C 0.37188 0.86217 0.18885 0.0
C480 C 0.40222 0.89269 0.17849 0.0
C481 C 0.40983 0.86539 0.20383 0.0
C482 C 0.41738 0.88471 0.192 0.0
C483 C 0.28937 0.82742 0.23545 0.0
C484 C 0.37873 0.83412 0.21497 0.0
C485 C 0.30494 0.72233 0.17265 0.0
C486 C 0.29331 0.73475 0.15979 0.0
C487 C 0.30683 0.79051 0.26106 0.0
C488 C 0.30736 0.82209 0.34781 0.0
C489 C 0.30871 0.8025 0.35877 0.0
C490 C 0.29319 0.79427 0.37413 0.0
C491 C 0.27606 0.80588 0.37827 0.0
C492 C 0.29045 0.83385 0.35249 0.0
C493 C 0.27479 0.8256 0.36753 0.0
C494 C 0.36705 0.82287 0.28346 0.0
C495 C 0.32341 0.82923 0.33106 0.0
H496 H 0.3543 0.85352 0.18797 0.0
H497 H 0.40853 0.90736 0.16912 0.0
H498 H 0.42174 0.85946 0.2143 0.0
H499 H 0.43504 0.89351 0.19326 0.0
H500 H 0.32219 0.79399 0.35559 0.0
H501 H 0.26371 0.79978 0.38985 0.0
H502 H 0.28929 0.84932 0.34457 0.0
H503 H 0.26166 0.83456 0.37093 0.0
Eu504 Eu 0.60796 0.05977 0.53061 0.0
C505 C 0.52796 1.01336 0.58321 0.0
C506 C 0.50453 0.97583 0.55743 0.0
C507 C 0.5076 0.97989 0.60068 0.0
C508 C 0.51959 0.99949 0.56048 0.0
C509 C 0.52188 1.00384 0.6036 0.0
C510 C 0.49892 0.96591 0.57763 0.0
C511 C 0.54366 0.04274 0.62827 0.0
N512 N 0.54166 0.03648 0.58537 0.0
C513 C 0.54917 0.05142 0.60754 0.0
C514 C 0.53007 0.01879 0.62632 0.0
Eu515 Eu 0.55078 0.04942 0.54917 0.0
N516 N 0.5252 1.00969 0.54137 0.0
C517 C 0.51489 0.99814 0.51893 0.0
C518 C 0.49499 0.96319 0.53423 0.0
C519 C 0.49988 0.97461 0.51494 0.0
H520 H 0.55992 0.06985 0.60942 0.0
H521 H 0.4921 0.96534 0.49699 0.0
H522 H 0.48753 0.94769 0.57564 0.0
H523 H 0.54996 0.05452 0.64577 0.0
H524 H 0.51832 1.00702 0.50397 0.0
H525 H 0.65379 0.14897 0.58643 0.0
H526 H 0.48333 0.94499 0.53112 0.0
H527 H 0.60647 0.03837 0.47181 0.0
H528 H 0.63135 0.10524 0.57803 0.0
H529 H 0.61899 0.05422 0.4361 0.0
H530 H 0.50285 0.97219 0.61612 0.0
H531 H 0.66552 0.16914 0.55286 0.0
H532 H 0.66665 0.16557 0.50842 0.0
H533 H 0.52582 1.01214 0.64242 0.0
H534 H 0.65728 0.13981 0.46758 0.0
N535 N 0.62999 0.10116 0.54023 0.0
C536 C 0.63645 0.11396 0.56332 0.0
C537 C 0.65569 0.15001 0.54911 0.0
C538 C 0.64986 0.13634 0.52551 0.0
C539 C 0.64914 0.13868 0.56811 0.0
C540 C 0.63693 0.11156 0.52162 0.0
H541 H 0.63969 0.09821 0.44046 0.0
N542 N 0.6197 0.07314 0.49575 0.0
C543 C 0.6226 0.06649 0.45358 0.0
C544 C 0.63165 0.0971 0.49867 0.0
C545 C 0.61561 0.05755 0.47377 0.0
C546 C 0.63425 0.09135 0.45612 0.0
C547 C 0.63913 0.10695 0.4789 0.0
O548 O 0.6277 0.0338 0.52091 0.0
O549 O 0.57532 0.03264 0.53072 0.0
O550 O 0.5713 0.03177 0.57068 0.0
O551 O 0.60527 0.05939 0.57006 0.0
O552 O 0.59661 0.01965 0.50939 0.0
O553 O 0.63885 0.06274 0.55291 0.0
O554 O 0.53302 0.07697 0.56116 0.0
O555 O 0.58197 0.07774 0.54496 0.0
O556 O 0.5862 0.07113 0.50417 0.0
O557 O 0.55152 0.04613 0.50878 0.0
O558 O 0.56679 0.08678 0.57445 0.0
O559 O 0.52068 0.05052 0.52786 0.0
C560 C 0.57768 1.0132 0.51735 0.0
C561 C 0.66631 0.04702 0.53328 0.0
C562 C 0.7008 0.03417 0.53564 0.0
C563 C 0.67937 0.03324 0.54249 0.0
C564 C 0.70897 0.04922 0.51958 0.0
C565 C 0.67493 0.06207 0.51748 0.0
C566 C 0.69615 0.06315 0.51071 0.0
C567 C 0.59269 0.04116 0.57842 0.0
C568 C 0.64323 0.04412 0.53892 0.0
C569 C 0.65149 0.13184 0.48256 0.0
C570 C 0.65683 0.14651 0.50582 0.0
C571 C 0.58291 0.09517 0.56272 0.0
C572 C 0.49432 0.06569 0.54966 0.0
C573 C 0.48111 0.07991 0.54158 0.0
C574 C 0.45978 0.07872 0.54903 0.0
C575 C 0.45208 0.06274 0.56459 0.0
C576 C 0.48602 0.04974 0.56479 0.0
C577 C 0.465 0.04827 0.57214 0.0
C578 C 0.56464 0.06118 0.49731 0.0
C579 C 0.51717 0.06858 0.54331 0.0
H580 H 0.67263 0.02133 0.55447 0.0
H581 H 0.72543 0.05049 0.51415 0.0
H582 H 0.66514 0.07269 0.51013 0.0
H583 H 0.70267 0.07476 0.49844 0.0
H584 H 0.48758 0.09189 0.52959 0.0
H585 H 0.43624 0.06169 0.57146 0.0
H586 H 0.49594 0.03877 0.57125 0.0
H587 H 0.45883 0.03615 0.5841 0.0
Eu588 Eu 0.29355 0.29981 0.78365 0.0
C589 C 0.36526 0.28787 0.83804 0.0
C590 C 0.38084 0.32765 0.86505 0.0
C591 C 0.37768 0.29002 0.87991 0.0
C592 C 0.37119 0.31342 0.84205 0.0
C593 C 0.36924 0.27595 0.85682 0.0
C594 C 0.38345 0.31583 0.88403 0.0
C595 C 0.36064 0.23754 0.82782 0.0
N596 N 0.35783 0.27477 0.81533 0.0
C597 C 0.35751 0.25027 0.80983 0.0
C598 C 0.36593 0.25033 0.85157 0.0
Eu599 Eu 0.35066 0.29768 0.78587 0.0
N600 N 0.36861 0.32438 0.82328 0.0
C601 C 0.37765 0.34937 0.82603 0.0
C602 C 0.38824 0.35334 0.86819 0.0
C603 C 0.38705 0.36418 0.84847 0.0
H604 H 0.35505 0.24027 0.79147 0.0
H605 H 0.39368 0.38397 0.85042 0.0
H606 H 0.39059 0.3265 0.90179 0.0
H607 H 0.35949 0.21798 0.82327 0.0
H608 H 0.3784 0.35834 0.81112 0.0
H609 H 0.24152 0.21007 0.73131 0.0
H610 H 0.39566 0.36486 0.88555 0.0
H611 H 0.29018 0.355 0.77032 0.0
H612 H 0.25943 0.24029 0.76771 0.0
H613 H 0.28628 0.37254 0.73487 0.0
H614 H 0.3806 0.28113 0.89453 0.0
H615 H 0.24031 0.22284 0.69237 0.0
H616 H 0.24777 0.2571 0.66986 0.0
H617 H 0.36877 0.24054 0.86547 0.0
H618 H 0.26029 0.30169 0.67081 0.0
N619 N 0.27171 0.26983 0.74979 0.0
C620 C 0.2606 0.24615 0.75091 0.0
C621 C 0.24892 0.23619 0.70835 0.0
C622 C 0.25813 0.26097 0.70764 0.0
C623 C 0.24968 0.2289 0.73024 0.0
C624 C 0.26927 0.27763 0.729 0.0
H625 H 0.27495 0.3449 0.69484 0.0
N626 N 0.28557 0.31817 0.75069 0.0
C627 C 0.28415 0.35285 0.73287 0.0
C628 C 0.27665 0.30258 0.72941 0.0
C629 C 0.28718 0.34285 0.75297 0.0
C630 C 0.27764 0.3372 0.71038 0.0
C631 C 0.27284 0.31165 0.70857 0.0
O632 O 0.27788 0.32624 0.8035 0.0
O633 O 0.32615 0.31178 0.80782 0.0
O634 O 0.32688 0.25712 0.77889 0.0
O635 O 0.29292 0.26118 0.79045 0.0
O636 O 0.29874 0.2907 0.81997 0.0
O637 O 0.25963 0.28776 0.79315 0.0
O638 O 0.37174 0.27525 0.76938 0.0
O639 O 0.31805 0.28574 0.76197 0.0
O640 O 0.31704 0.34017 0.78802 0.0
O641 O 0.35201 0.3365 0.77967 0.0
O642 O 0.34551 0.30376 0.74808 0.0
O643 O 0.38379 0.31483 0.77732 0.0
C644 C 0.31915 0.30353 0.82594 0.0
C645 C 0.23812 0.31667 0.80085 0.0
C646 C 0.19997 0.31272 0.81092 0.0
C647 C 0.21978 0.30518 0.81167 0.0
C648 C 0.19874 0.33178 0.79893 0.0
C649 C 0.23635 0.33549 0.78881 0.0
C650 C 0.21674 0.34292 0.78785 0.0
C651 C 0.30663 0.24727 0.78485 0.0
C652 C 0.25925 0.30976 0.8038 0.0
C653 C 0.26314 0.29503 0.68697 0.0
C654 C 0.25589 0.26968 0.68647 0.0
C655 C 0.32465 0.29255 0.74315 0.0
C656 C 0.41085 0.29295 0.77882 0.0
C657 C 0.42757 0.29154 0.7635 0.0
C658 C 0.44886 0.29081 0.7728 0.0
C659 C 0.45317 0.29199 0.79753 0.0
C660 C 0.41576 0.29419 0.80337 0.0
C661 C 0.43678 0.29374 0.81263 0.0
C662 C 0.33781 0.3501 0.78354 0.0
C663 C 0.3886 0.29416 0.76953 0.0
H664 H 0.22114 0.29079 0.82118 0.0
H665 H 0.1837 0.33782 0.79782 0.0
H666 H 0.25016 0.34466 0.7804 0.0
H667 H 0.21553 0.35749 0.77858 0.0
H668 H 0.42395 0.29061 0.7445 0.0
H669 H 0.46935 0.29162 0.80522 0.0
H670 H 0.40341 0.29571 0.81545 0.0
H671 H 0.44038 0.29473 0.83163 0.0
Eu672 Eu 0.07994 0.06289 0.5487 0.0
C673 C 0.09803 0.98383 0.47003 0.0
C674 C 0.06708 0.97467 0.43893 0.0
C675 C 0.1028 0.9693 0.42843 0.0
C676 C 0.07614 0.98283 0.46325 0.0
C677 C 0.11145 0.97646 0.45277 0.0
C678 C 0.08066 0.96844 0.42152 0.0
C679 C 0.14021 0.98142 0.48507 0.0
N680 N 0.10575 0.99041 0.49372 0.0
C681 C 0.12626 0.9885 0.50151 0.0
C682 C 0.1329 0.9757 0.46056 0.0
Eu683 Eu 0.08123 1.00247 0.52051 0.0
N684 N 0.06342 0.98884 0.48053 0.0
C685 C 0.04117 0.98574 0.4748 0.0
C686 C 0.04453 0.97253 0.43287 0.0
C687 C 0.03147 0.97784 0.45094 0.0
H688 H 0.13211 0.99294 0.52041 0.0
H689 H 0.01394 0.97594 0.44649 0.0
H690 H 0.07406 0.96236 0.40274 0.0
H691 H 0.1566 0.98041 0.49131 0.0
H692 H 0.03079 0.98979 0.48847 0.0
H693 H 0.14398 0.09137 0.62587 0.0
H694 H 0.03697 0.96641 0.4144 0.0
H695 H 0.02877 0.07193 0.54527 0.0
H696 H 0.12898 0.07707 0.58322 0.0
H697 H 1.0028 0.08449 0.57241 0.0
H698 H 0.11292 0.96381 0.41489 0.0
H699 H 0.11918 0.1003 0.65627 0.0
H700 H 0.08124 0.10353 0.66554 0.0
H701 H 0.14371 0.97012 0.44786 0.0
H702 H 0.04288 0.10193 0.65097 0.0
N703 N 0.0957 0.07659 0.58935 0.0
C704 C 0.11787 0.08059 0.59627 0.0
C705 C 0.11242 0.0937 0.63756 0.0
C706 C 0.08998 0.09095 0.63022 0.0
C707 C 0.12649 0.0888 0.62046 0.0
C708 C 0.08206 0.08251 0.60562 0.0
H709 H 0.01367 0.09536 0.61627 0.0
N710 N 0.05404 0.07517 0.57345 0.0
C711 C 0.01898 0.08377 0.57969 0.0
C712 C 0.06059 0.08188 0.59741 0.0
C713 C 0.03378 0.07669 0.56435 0.0
C714 C 0.02515 0.08982 0.60444 0.0
C715 C 0.04628 0.08925 0.61359 0.0
O716 O 0.07429 0.09503 0.53638 0.0
O717 O 0.07548 0.03766 0.51183 0.0
O718 O 0.1094 0.02934 0.5078 0.0
O719 O 0.11479 0.06165 0.54044 0.0
O720 O 0.05294 0.05765 0.5172 0.0
O721 O 0.10722 0.0961 0.55159 0.0
O722 O 0.08855 0.97153 0.53378 0.0
O723 O 0.08647 0.02795 0.55784 0.0
O724 O 0.05226 0.03668 0.5617 0.0
O725 O 0.04638 1.00357 0.52975 0.0
O726 O 0.10958 1.00877 0.55005 0.0
O727 O 0.0552 0.96794 0.51838 0.0
C728 C 0.05887 0.04246 0.50102 0.0
C729 C 0.09848 0.13418 0.55427 0.0
C730 C 0.10875 0.17738 0.55075 0.0
C731 C 0.1059 0.15219 0.54091 0.0
C732 C 0.10468 0.18427 0.57464 0.0
C733 C 0.09445 0.14126 0.578 0.0
C734 C 0.09768 0.16628 0.58817 0.0
C735 C 0.12136 0.05095 0.52074 0.0
C736 C 0.09485 0.1082 0.54264 0.0
C737 C 0.0537 0.09641 0.63825 0.0
C738 C 0.07552 0.09729 0.64655 0.0
C739 C 0.10409 0.02352 0.56704 0.0
C740 C 0.06701 0.93132 0.51509 0.0
C741 C 0.05797 0.9113 0.52586 0.0
C742 C 0.05736 0.88687 0.51464 0.0
C743 C 0.06615 0.88306 0.4926 0.0
C744 C 0.07523 0.92682 0.49297 0.0
C745 C 0.07483 0.90286 0.48184 0.0
C746 C 0.03974 0.01552 0.54877 0.0
C747 C 0.06854 0.95687 0.52741 0.0
H748 H 0.1094 0.14643 0.52273 0.0
H749 H 0.1064 0.20345 0.58273 0.0
H750 H 0.08877 0.12755 0.58857 0.0
H751 H 0.09446 0.17174 0.60648 0.0
H752 H 0.05136 0.91481 0.54282 0.0
H753 H 0.06666 0.86479 0.48371 0.0
H754 H 0.08218 0.9418 0.4844 0.0
H755 H 0.08148 0.89963 0.46489 0.0
Eu756 Eu 0.34457 0.81189 0.76702 0.0
C757 C 0.28521 0.74517 0.81814 0.0
C758 C 0.29615 0.70725 0.80751 0.0
C759 C 0.28561 0.7191 0.84722 0.0
C760 C 0.29305 0.72928 0.80186 0.0
C761 C 0.28049 0.73971 0.84064 0.0
C762 C 0.29342 0.70285 0.83064 0.0
C763 C 0.26223 0.7725 0.84654 0.0
N764 N 0.27969 0.76433 0.81083 0.0
C765 C 0.26697 0.7769 0.82394 0.0
C766 C 0.26952 0.75421 0.8552 0.0
Eu767 Eu 0.29144 0.77285 0.77371 0.0
N768 N 0.29495 0.7338 0.77951 0.0
C769 C 0.2968 0.71554 0.76125 0.0
C770 C 0.30049 0.68962 0.78932 0.0
C771 C 0.30018 0.69349 0.76593 0.0
H772 H 0.26142 0.79117 0.81731 0.0
H773 H 0.3024 0.67946 0.75146 0.0
H774 H 0.29616 0.68629 0.83546 0.0
H775 H 0.25291 0.78312 0.85722 0.0
H776 H 0.29561 0.71771 0.74299 0.0
H777 H 0.33548 0.90327 0.80528 0.0
H778 H 0.30295 0.67246 0.79289 0.0
H779 H 0.36813 0.79671 0.71755 0.0
H780 H 0.33915 0.86135 0.80576 0.0
H781 H 0.37627 0.81177 0.68035 0.0
H782 H 0.28247 0.71484 0.86458 0.0
H783 H 0.3352 0.91777 0.76714 0.0
H784 H 0.33998 0.91032 0.72334 0.0
H785 H 0.26561 0.75063 0.87261 0.0
H786 H 0.35093 0.88506 0.68891 0.0
N787 N 0.34057 0.85209 0.76822 0.0
C788 C 0.33914 0.86751 0.78903 0.0
C789 C 0.3368 0.89935 0.76723 0.0
C790 C 0.33969 0.88401 0.74624 0.0
C791 C 0.33709 0.89129 0.78883 0.0
C792 C 0.34181 0.86023 0.74737 0.0
H793 H 0.3653 0.84865 0.67296 0.0
N794 N 0.35231 0.82451 0.73063 0.0
C795 C 0.36784 0.82125 0.69332 0.0
C796 C 0.34788 0.84597 0.72792 0.0
C797 C 0.36335 0.81286 0.7144 0.0
C798 C 0.36163 0.84209 0.68925 0.0
C799 C 0.3521 0.85516 0.70694 0.0
O800 O 0.37838 0.80782 0.76763 0.0
O801 O 0.32924 0.77472 0.77786 0.0
O802 O 0.30339 0.79983 0.80884 0.0
O803 O 0.34081 0.81776 0.80686 0.0
O804 O 0.35344 0.77542 0.7548 0.0
O805 O 0.37278 0.84056 0.78867 0.0
O806 O 0.25605 0.75403 0.77178 0.0
O807 O 0.30845 0.81176 0.7696 0.0
O808 O 0.32445 0.7956 0.73052 0.0
O809 O 0.30381 0.75942 0.73883 0.0
O810 O 0.27596 0.80546 0.77529 0.0
O811 O 0.26943 0.76499 0.74024 0.0
C812 C 0.34116 0.76136 0.76681 0.0
C813 C 0.40638 0.84454 0.77072 0.0
C814 C 0.44464 0.85085 0.76041 0.0
C815 C 0.42736 0.83989 0.77301 0.0
C816 C 0.43995 0.86621 0.74516 0.0
C817 C 0.40295 0.86132 0.75685 0.0
C818 C 0.41953 0.87179 0.74389 0.0
C819 C 0.32325 0.81354 0.81866 0.0
C820 C 0.38761 0.82976 0.7806 0.0
C821 C 0.34813 0.87788 0.70503 0.0
C822 C 0.34192 0.89228 0.72465 0.0
C823 C 0.29224 0.82233 0.77079 0.0
C824 C 0.23484 0.73392 0.73421 0.0
C825 C 0.21247 0.73413 0.73424 0.0
C826 C 0.19551 0.71535 0.71917 0.0
C827 C 0.20133 0.69614 0.70403 0.0
C828 C 0.24041 0.71458 0.71919 0.0
C829 C 0.22364 0.69573 0.70419 0.0
C830 C 0.31394 0.77198 0.72372 0.0
C831 C 0.25175 0.75483 0.74942 0.0
H832 H 0.42989 0.82768 0.78464 0.0
H833 H 0.45189 0.87401 0.73395 0.0
H834 H 0.38731 0.86592 0.75556 0.0
H835 H 0.41641 0.88403 0.73251 0.0
H836 H 0.20833 0.74939 0.74561 0.0
H837 H 0.18864 0.68138 0.69226 0.0
H838 H 0.25761 0.71418 0.71891 0.0
H839 H 0.22796 0.68083 0.69254 0.0
Eu840 Eu 0.55508 1.0132 0.05679 0.0
C841 C 0.51071 0.07888 1.0009 0.0
C842 C 0.47864 0.05181 0.9744 0.0
C843 C 0.48055 0.09522 0.98826 0.0
C844 C 0.49929 0.0555 0.98809 0.0
C845 C 0.50166 0.09909 1.00074 0.0
C846 C 0.46915 0.07166 0.97495 0.0
C847 C 0.53621 0.12602 0.02255 0.0
N848 N 0.53144 0.08222 0.012 0.0
C849 C 0.54449 0.10545 0.02222 0.0
C850 C 0.51458 0.1228 0.01209 0.0
Eu851 Eu 0.54519 0.04695 1.00879 0.0
N852 N 0.5094 0.03699 0.98703 0.0
C853 C 0.50047 0.01491 0.97136 0.0
C854 C 0.46865 0.02858 0.95966 0.0
C855 C 0.47982 1.0102 0.95781 0.0
H856 H 0.56123 0.10815 0.03033 0.0
H857 H 0.4726 0.99242 0.94585 0.0
H858 H 0.45322 0.0691 0.96471 0.0
H859 H 0.54653 0.14435 0.0309 0.0
H860 H 0.50914 1.0007 0.96943 0.0
H861 H 0.60152 0.10182 0.11612 0.0
H862 H 0.45275 0.02496 0.94897 0.0
H863 H 0.57076 0.96074 0.04241 0.0
H864 H 0.57017 0.07348 0.08925 0.0
H865 H 0.60349 0.94539 0.04958 0.0
H866 H 0.47327 0.11049 0.98806 0.0
H867 H 0.63544 0.089 0.12505 0.0
H868 H 0.65589 0.05659 0.11885 0.0
H869 H 0.50825 0.1388 0.01231 0.0
H870 H 0.65669 0.01449 0.10038 0.0
N871 N 0.58507 0.04341 0.08283 0.0
C872 C 0.58427 0.06679 0.09306 0.0
C873 C 0.62142 0.07605 0.11333 0.0
C874 C 0.62232 0.05223 0.10298 0.0
C875 C 0.60232 0.08333 0.10835 0.0
C876 C 0.60363 0.03604 0.08771 0.0
H877 H 0.6374 0.97313 0.07454 0.0
N878 N 0.58639 0.99747 0.06181 0.0
C879 C 0.60409 0.96441 0.05707 0.0
C880 C 0.60428 1.01246 0.07691 0.0
C881 C 0.58568 0.97332 0.05284 0.0
C882 C 0.62313 0.98007 0.07127 0.0
C883 C 0.62333 1.0043 0.08165 0.0
O884 O 0.54469 0.97896 0.06998 0.0
O885 O 0.53087 0.02043 0.03125 0.0
O886 O 0.52993 0.06324 0.04081 0.0
O887 O 0.53834 0.04323 0.07124 0.0
O888 O 0.52309 0.98496 0.03741 0.0
O889 O 0.54246 1.01372 0.09127 0.0
O890 O 0.56987 0.07047 0.99171 0.0
O891 O 0.56964 0.03709 0.03238 0.0
O892 O 0.56415 0.99367 0.02224 0.0
O893 O 0.54583 1.00741 0.99258 0.0
O894 O 0.5778 0.07318 0.02827 0.0
O895 O 0.5486 0.03571 0.97094 0.0
C896 C 0.51647 0.99988 0.02611 0.0
C897 C 0.5562 0.98739 0.11187 0.0
C898 C 0.57484 1.00372 0.15271 0.0
C899 C 0.56069 1.0052 0.13331 0.0
C900 C 0.58425 0.98373 0.15081 0.0
C901 C 0.56583 0.9675 0.11014 0.0
C902 C 0.57978 0.96576 0.12954 0.0
C903 C 0.5299 0.0598 0.06317 0.0
C904 C 0.54273 0.99089 0.09119 0.0
C905 C 0.64189 0.0204 0.09672 0.0
C906 C 0.64141 0.04433 0.10729 0.0
C907 C 0.58457 0.05713 0.03762 0.0
C908 C 0.56062 0.06811 0.95061 0.0
C909 C 0.5776 0.07303 0.93594 0.0
C910 C 0.57492 0.08437 0.91652 0.0
C911 C 0.55499 0.09086 0.91216 0.0
C912 C 0.54091 0.07472 0.94599 0.0
C913 C 0.53815 0.0861 0.92688 0.0
C914 C 0.55698 0.99248 0.99959 0.0
C915 C 0.56378 0.05601 0.97055 0.0
H916 H 0.55291 0.02027 0.13507 0.0
H917 H 0.59494 0.98203 0.16573 0.0
H918 H 0.56276 0.95345 0.09381 0.0
H919 H 0.58715 0.95041 0.12807 0.0
H920 H 0.59291 0.06813 0.93978 0.0
H921 H 0.5522 0.0992 0.89711 0.0
H922 H 0.52765 0.07099 0.957 0.0
H923 H 0.52284 0.09106 0.92335 0.0
Eu924 Eu 0.33044 0.34254 0.29913 0.0
C925 C 0.24604 0.26269 0.27519 0.0
C926 C 0.23683 0.23217 0.29987 0.0
C927 C 0.20749 0.24629 0.28192 0.0
C928 C 0.2527 0.2481 0.28936 0.0
C929 C 0.22326 0.26177 0.27119 0.0
C930 C 0.21426 0.23153 0.29625 0.0
C931 C 0.23313 0.29176 0.24649 0.0
N932 N 0.2618 0.27813 0.26572 0.0
C933 C 0.25546 0.29222 0.25111 0.0
C934 C 0.21695 0.27651 0.2566 0.0
Eu935 Eu 0.29961 0.27722 0.27415 0.0
N936 N 0.27468 0.2496 0.29307 0.0
C937 C 0.28161 0.23401 0.30551 0.0
C938 C 0.24408 0.21728 0.3137 0.0
C939 C 0.26655 0.21799 0.31627 0.0
H940 H 0.26731 0.30418 0.24299 0.0
H941 H 0.27226 0.20603 0.32635 0.0
H942 H 0.2019 0.21961 0.30437 0.0
H943 H 0.22843 0.30322 0.23509 0.0
H944 H 0.2989 0.23385 0.30709 0.0
H945 H 0.36875 0.37907 0.22458 0.0
H946 H 0.23242 0.20485 0.32207 0.0
H947 H 0.35873 0.33714 0.35119 0.0
H948 H 0.33994 0.37045 0.25079 0.0
H949 H 0.3951 0.33343 0.36467 0.0
H950 H 0.19001 0.2456 0.27923 0.0
H951 H 0.4056 0.37275 0.23442 0.0
H952 H 0.43155 0.36247 0.26327 0.0
H953 H 0.19965 0.27614 0.25291 0.0
H954 H 0.43881 0.35078 0.30153 0.0
N955 N 0.35841 0.35498 0.27384 0.0
C956 C 0.35514 0.36559 0.25472 0.0
C957 C 0.3926 0.36798 0.24572 0.0
C958 C 0.39674 0.3597 0.26662 0.0
C959 C 0.37182 0.37141 0.24002 0.0
C960 C 0.37917 0.35351 0.28071 0.0
H961 H 0.4253 0.33917 0.33887 0.0
N962 N 0.36625 0.34133 0.31586 0.0
C963 C 0.39189 0.33663 0.34686 0.0
C964 C 0.3832 0.34655 0.30223 0.0
C965 C 0.37082 0.33801 0.33862 0.0
C966 C 0.40892 0.34005 0.33234 0.0
C967 C 0.40491 0.34575 0.31004 0.0
O968 O 0.33484 0.36899 0.3334 0.0
O969 O 0.29916 0.31315 0.29617 0.0
O970 O 0.30452 0.29912 0.24385 0.0
O971 O 0.31306 0.34087 0.26256 0.0
O972 O 0.29534 0.34809 0.30059 0.0
O973 O 0.33722 0.38192 0.30009 0.0
O974 O 0.29717 0.26154 0.23563 0.0
O975 O 0.33188 0.30624 0.27706 0.0
O976 O 0.3244 0.32178 0.32994 0.0
O977 O 0.31075 0.27928 0.31387 0.0
O978 O 0.33345 0.27254 0.28462 0.0
O979 O 0.29879 0.23871 0.26145 0.0
C980 C 0.28486 0.32512 0.29862 0.0
C981 C 0.32338 0.40544 0.3313 0.0
C982 C 0.30153 0.43361 0.32256 0.0
C983 C 0.31142 0.41433 0.31479 0.0
C984 C 0.30293 0.44293 0.3474 0.0
C985 C 0.32437 0.41502 0.35588 0.0
C986 C 0.31399 0.43345 0.36384 0.0
C987 C 0.30819 0.32293 0.24315 0.0
C988 C 0.33644 0.38783 0.3231 0.0
C989 C 0.4221 0.35119 0.2957 0.0
C990 C 0.418 0.35798 0.27398 0.0
C991 C 0.34507 0.29379 0.28178 0.0
C992 C 0.31454 0.22911 0.22565 0.0
C993 C 0.33203 0.22308 0.23774 0.0
C994 C 0.34442 0.20848 0.22526 0.0
C995 C 0.33999 0.20164 0.20006 0.0
C996 C 0.31059 0.22227 0.20061 0.0
C997 C 0.32348 0.2089 0.18788 0.0
C998 C 0.31857 0.2983 0.33231 0.0
C999 C 0.29894 0.24019 0.23905 0.0
H1000 H 0.31016 0.40646 0.29585 0.0
H1001 H 0.29609 0.45807 0.35427 0.0
H1002 H 0.33355 0.40857 0.36892 0.0
H1003 H 0.31506 0.44092 0.38286 0.0
H1004 H 0.33551 0.22923 0.257 0.0
H1005 H 0.34869 0.19005 0.18964 0.0
H1006 H 0.29718 0.22675 0.19095 0.0
H1007 H 0.32015 0.20339 0.16854 0.0
Eu1008 Eu 0.57568 0.56783 0.05266 0.0
C1009 C 0.59105 0.48325 0.97755 0.0
C1010 C 0.56005 0.47278 0.94629 0.0
C1011 C 0.5956 0.46627 0.93648 0.0
C1012 C 0.56921 0.48223 0.97047 0.0
C1013 C 0.60442 0.47498 0.96069 0.0
C1014 C 0.57346 0.46517 0.92929 0.0
C1015 C 0.63384 0.4832 0.99314 0.0
N1016 N 0.599 0.49154 1.00111 0.0
C1017 C 0.61991 0.49104 0.00921 0.0
C1018 C 0.62613 0.47529 0.96875 0.0
Eu1019 Eu 0.57468 0.50533 0.02712 0.0
N1020 N 0.55671 0.48976 0.98734 0.0
C1021 C 0.53455 0.48703 0.9814 0.0
C1022 C 0.5376 0.47092 0.93996 0.0
C1023 C 0.52475 0.47786 0.95765 0.0
H1024 H 0.62607 0.49726 0.02802 0.0
H1025 H 0.5073 0.47623 0.95301 0.0
H1026 H 0.56676 0.45805 0.91061 0.0
H1027 H 0.65052 0.48324 0.99959 0.0
H1028 H 0.52431 0.4923 0.99475 0.0
H1029 H 0.63737 0.59592 0.13195 0.0
H1030 H 0.52997 0.46384 0.92158 0.0
H1031 H 0.52698 0.58257 0.04604 0.0
H1032 H 0.62364 0.58149 0.08896 0.0
H1033 H 0.50128 0.5985 0.07124 0.0
H1034 H 0.60565 0.45998 0.92324 0.0
H1035 H 0.61213 0.60729 0.1609 0.0
H1036 H 0.57475 0.61409 0.16805 0.0
H1037 H 0.63692 0.46912 0.95635 0.0
H1038 H 0.53776 0.61514 0.15145 0.0
N1039 N 0.59055 0.58323 0.09351 0.0
C1040 C 0.61233 0.58608 0.10137 0.0
C1041 C 0.60594 0.60072 0.14204 0.0
C1042 C 0.58409 0.5995 0.13362 0.0
C1043 C 0.62025 0.59441 0.12575 0.0
C1044 C 0.57688 0.59079 0.10888 0.0
H1045 H 0.51043 0.60987 0.11534 0.0
N1046 N 0.55044 0.58425 0.07551 0.0
C1047 C 0.51662 0.59648 0.07946 0.0
C1048 C 0.55618 0.59146 0.09957 0.0
C1049 C 0.53129 0.58743 0.06522 0.0
C1050 C 0.52181 0.60283 0.10435 0.0
C1051 C 0.54195 0.60071 0.1147 0.0
O1052 O 0.57357 0.59584 0.03188 0.0
O1053 O 0.57033 0.54028 0.01701 0.0
O1054 O 0.60241 0.53119 0.01312 0.0
O1055 O 0.60987 0.56248 0.04674 0.0
O1056 O 0.54859 0.56147 0.021 0.0
O1057 O 0.60304 0.6015 0.05631 0.0
O1058 O 0.58053 0.47273 0.03823 0.0
O1059 O 0.58131 0.5329 0.06317 0.0
O1060 O 0.54529 0.54426 0.06473 0.0
O1061 O 0.54031 0.50868 0.03546 0.0
O1062 O 0.60178 0.51001 0.05765 0.0
O1063 O 0.54675 0.47439 0.02985 0.0
C1064 C 0.55398 0.54499 1.00568 0.0
C1065 C 0.59461 0.63717 0.04649 0.0
C1066 C 0.59766 0.67534 0.0318 0.0
C1067 C 0.59594 0.64983 0.02755 0.0
C1068 C 0.59815 0.68804 0.0555 0.0
C1069 C 0.59488 0.65007 0.06994 0.0
C1070 C 0.59671 0.67544 0.07437 0.0
C1071 C 0.61571 0.55154 0.02676 0.0
C1072 C 0.59294 0.61054 0.041 0.0
C1073 C 0.54855 0.60821 0.13951 0.0
C1074 C 0.56959 0.60759 0.14896 0.0
C1075 C 0.59763 0.52689 0.07353 0.0
C1076 C 0.55299 0.43481 0.02417 0.0
C1077 C 0.54234 0.41712 0.03672 0.0
C1078 C 0.53644 0.3917 0.0261 0.0
C1079 C 0.54123 0.38441 1.00255 0.0
C1080 C 0.55757 0.42715 1.00076 0.0
C1081 C 0.55163 0.40204 0.99 0.0
C1082 C 0.5331 0.52232 0.05283 0.0
C1083 C 0.55943 0.46109 0.03599 0.0
H1084 H 0.59588 0.63976 0.00947 0.0
H1085 H 0.59925 0.70762 0.0594 0.0
H1086 H 0.59369 0.64058 0.08474 0.0
H1087 H 0.59692 0.68537 0.09249 0.0
H1088 H 0.53862 0.42323 0.05473 0.0
H1089 H 0.53737 0.36504 0.99393 0.0
H1090 H 0.56585 0.44048 0.99089 0.0
H1091 H 0.55533 0.39621 0.97195 0.0
Eu1092 Eu 0.84957 0.32421 0.27082 0.0
C1093 C 0.78542 0.26831 0.33046 0.0
C1094 C 0.79562 0.23035 0.33154 0.0
C1095 C 0.78055 0.24998 0.36558 0.0
C1096 C 0.79407 0.2496 0.3198 0.0
C1097 C 0.77849 0.26871 0.35349 0.0
C1098 C 0.78907 0.23081 0.35461 0.0
C1099 C 0.76789 0.30597 0.35089 0.0
N1100 N 0.78403 0.28632 0.31835 0.0
C1101 C 0.775 0.30483 0.32812 0.0
C1102 C 0.7697 0.28789 0.36366 0.0
Eu1103 Eu 0.79761 0.28344 0.27999 0.0
N1104 N 0.80027 0.24974 0.29754 0.0
C1105 C 0.80618 0.23008 0.28515 0.0
C1106 C 0.80327 0.21096 0.31949 0.0
C1107 C 0.80824 0.21064 0.296 0.0
H1108 H 0.77386 0.31937 0.31896 0.0
H1109 H 0.8133 0.19526 0.28611 0.0
H1110 H 0.79027 0.21629 0.36399 0.0
H1111 H 0.76118 0.32094 0.35864 0.0
H1112 H 0.80841 0.22912 0.26655 0.0
H1113 H 0.84175 0.41836 0.2814 0.0
H1114 H 0.8047 0.19582 0.32786 0.0
H1115 H 0.87261 0.29216 0.22772 0.0
H1116 H 0.84032 0.37876 0.29332 0.0
H1117 H 0.88766 0.29719 0.18988 0.0
H1118 H 0.77542 0.25006 0.38333 0.0
H1119 H 0.85271 0.42452 0.24173 0.0
H1120 H 0.86643 0.4083 0.20342 0.0
H1121 H 0.76421 0.28886 0.38132 0.0
H1122 H 0.87926 0.37561 0.17883 0.0
N1123 N 0.8496 0.36227 0.26042 0.0
C1124 C 0.84493 0.38109 0.27588 0.0
C1125 C 0.85203 0.40704 0.24684 0.0
C1126 C 0.85795 0.38813 0.23159 0.0
C1127 C 0.84589 0.40366 0.26926 0.0
C1128 C 0.85684 0.36573 0.2391 0.0
H1129 H 0.88762 0.33447 0.17386 0.0
N1130 N 0.86418 0.32654 0.23372 0.0
C1131 C 0.88123 0.31148 0.19973 0.0
C1132 C 0.86443 0.34742 0.22542 0.0
C1133 C 0.87281 0.30883 0.22142 0.0
C1134 C 0.88109 0.3325 0.1907 0.0
C1135 C 0.8728 0.35089 0.20362 0.0
O1136 O 0.87408 0.3245 0.30017 0.0
O1137 O 0.83366 0.28434 0.27383 0.0
O1138 O 0.81827 0.30245 0.31564 0.0
O1139 O 0.83516 0.33853 0.30425 0.0
O1140 O 0.86624 0.29216 0.26799 0.0
O1141 O 0.8789 0.35549 0.28272 0.0
O1142 O 0.76537 0.28159 0.26139 0.0
O1143 O 0.81316 0.32189 0.27329 0.0
O1144 O 0.82984 0.30709 0.23457 0.0
O1145 O 0.80954 0.27101 0.24419 0.0
O1146 O 0.78074 0.31499 0.27884 0.0
O1147 O 0.77441 0.24786 0.26248 0.0
C1148 C 0.85024 0.27431 0.27147 0.0
C1149 C 0.91101 0.34351 0.29359 0.0
C1150 C 0.94245 0.32669 0.30127 0.0
C1151 C 0.92053 0.32772 0.30435 0.0
C1152 C 0.95466 0.34161 0.28702 0.0
C1153 C 0.92361 0.35818 0.27943 0.0
C1154 C 0.94523 0.3571 0.27612 0.0
C1155 C 0.8282 0.32631 0.32097 0.0
C1156 C 0.88801 0.34456 0.29699 0.0
C1157 C 0.87301 0.37271 0.19559 0.0
C1158 C 0.86565 0.3913 0.20956 0.0
C1159 C 0.7967 0.33197 0.27401 0.0
C1160 C 0.73606 0.24668 0.26256 0.0
C1161 C 0.71809 0.2539 0.25294 0.0
C1162 C 0.6961 0.24335 0.25714 0.0
C1163 C 0.69254 0.22556 0.27158 0.0
C1164 C 0.73209 0.22917 0.27714 0.0
C1165 C 0.71043 0.21873 0.2816 0.0
C1166 C 0.81732 0.28407 0.22822 0.0
C1167 C 0.75864 0.2576 0.25685 0.0
H1168 H 0.91082 0.3162 0.31508 0.0
H1169 H 0.97177 0.34189 0.28474 0.0
H1170 H 0.91681 0.37055 0.27088 0.0
H1171 H 0.95482 0.36855 0.2653 0.0
H1172 H 0.72143 0.26793 0.24226 0.0
H1173 H 0.67592 0.21653 0.27484 0.0
H1174 H 0.74565 0.22345 0.285 0.0
H1175 H 0.70744 0.20507 0.29269 0.0
Eu1176 Eu 0.09682 0.54876 0.5529 0.0
C1177 C 0.03482 0.60157 0.50333 0.0
C1178 C 0.99814 0.57295 0.49138 0.0
C1179 C 1.00241 0.61722 0.49857 0.0
C1180 C 0.0213 0.57753 0.49725 0.0
C1181 C 0.02554 0.62167 0.50366 0.0
C1182 C 0.98873 0.59291 0.49252 0.0
C1183 C 0.06276 0.64913 0.51278 0.0
N1184 N 0.05713 0.60528 0.50804 0.0
C1185 C 0.07122 0.62863 0.5121 0.0
C1186 C 0.03982 0.64566 0.50864 0.0
Eu1187 Eu 0.07013 0.56941 0.50378 0.0
N1188 N 0.0309 0.55861 0.49598 0.0
C1189 C 0.01846 0.5347 0.4878 0.0
C1190 C 0.98519 0.54844 0.48381 0.0
C1191 C 0.99546 0.52927 0.4817 0.0
H1192 H 0.08898 0.63157 0.51515 0.0
H1193 H 0.98567 0.51032 0.47528 0.0
H1194 H 0.97096 0.58974 0.48825 0.0
H1195 H 0.07396 0.6676 0.5164 0.0
H1196 H 0.02627 0.51975 0.48598 0.0
H1197 H 0.14017 0.64832 0.58983 0.0
H1198 H 0.96736 0.54415 0.47909 0.0
H1199 H 0.12342 0.50565 0.53426 0.0
H1200 H 0.11208 0.61435 0.56422 0.0
H1201 H 0.15936 0.49736 0.5422 0.0
H1202 H 0.99499 0.63245 0.49894 0.0
H1203 H 0.17385 0.6409 0.60848 0.0
H1204 H 0.19758 0.61198 0.61017 0.0
H1205 H 0.03333 0.66157 0.50906 0.0
H1206 H 0.20357 0.57118 0.59556 0.0
N1207 N 0.12626 0.5858 0.57195 0.0
C1208 C 0.12511 0.6098 0.57401 0.0
C1209 C 0.16074 0.62541 0.59822 0.0
C1210 C 0.16356 0.60163 0.59311 0.0
C1211 C 0.14173 0.62964 0.58785 0.0
C1212 C 0.14591 0.58207 0.57961 0.0
H1213 H 0.18978 0.5288 0.56946 0.0
N1214 N 0.13289 0.54198 0.55635 0.0
C1215 C 0.15685 0.51492 0.55052 0.0
C1216 C 0.14942 0.55939 0.57125 0.0
C1217 C 0.13639 0.51987 0.54596 0.0
C1218 C 0.1739 0.53262 0.566 0.0
C1219 C 0.17041 0.55527 0.57643 0.0
O1220 O 0.08855 0.50904 0.55003 0.0
O1221 O 0.06547 0.54426 0.52945 0.0
O1222 O 0.06581 0.59271 0.53948 0.0
O1223 O 0.0837 0.58055 0.57125 0.0
O1224 O 0.06263 0.5437 0.5655 0.0
O1225 O 0.09746 0.5332 0.58516 0.0
O1226 O 0.08853 0.58212 0.47536 0.0
O1227 O 0.10087 0.56382 0.5206 0.0
O1228 O 0.0985 0.52623 0.51615 0.0
O1229 O 0.06765 0.52825 0.49262 0.0
O1230 O 0.10496 0.59667 0.50931 0.0
O1231 O 0.05741 0.55348 0.46612 0.0
C1232 C 0.05186 0.54141 0.54481 0.0
C1233 C 0.07208 0.49315 0.58105 0.0
C1234 C 0.03821 0.48471 0.60019 0.0
C1235 C 0.05647 0.5016 0.59428 0.0
C1236 C 0.03574 0.45921 0.59309 0.0
C1237 C 0.06937 0.4676 0.57386 0.0
C1238 C 0.05128 0.45072 0.5799 0.0
C1239 C 0.07204 0.59444 0.56269 0.0
C1240 C 0.09038 0.51035 0.57301 0.0
C1241 C 0.18744 0.57409 0.59122 0.0
C1242 C 0.18399 0.59725 0.59962 0.0
C1243 C 0.11497 0.58313 0.51901 0.0
C1244 C 0.06703 0.5811 0.44 0.0
C1245 C 0.0823 0.58751 0.42402 0.0
C1246 C 0.07794 0.60067 0.40674 0.0
C1247 C 0.05798 0.60768 0.40576 0.0
C1248 C 0.04703 0.58795 0.43884 0.0
C1249 C 0.04258 0.60123 0.42174 0.0
C1250 C 0.08326 0.51733 0.49723 0.0
C1251 C 0.07329 0.56845 0.45828 0.0
H1252 H 0.05859 0.52126 0.60031 0.0
H1253 H 0.02181 0.44594 0.59774 0.0
H1254 H 0.08114 0.46072 0.56335 0.0
H1255 H 0.04928 0.43105 0.57431 0.0
H1256 H 0.09794 0.58262 0.42544 0.0
H1257 H 0.05422 0.61783 0.39253 0.0
H1258 H 0.03501 0.58324 0.45114 0.0
H1259 H 0.02718 0.60657 0.42089 0.0
Eu1260 Eu 0.79123 0.80785 0.28429 0.0
C1261 C 0.87312 0.78714 0.33594 0.0
C1262 C 0.88329 0.82163 0.36997 0.0
C1263 C 0.89103 0.78279 0.37337 0.0
C1264 C 0.87373 0.81119 0.34602 0.0
C1265 C 0.88244 0.7729 0.34923 0.0
C1266 C 0.8914 0.80711 0.38375 0.0
C1267 C 0.87648 0.74137 0.31309 0.0
N1268 N 0.86487 0.77824 0.31258 0.0
C1269 C 0.86751 0.75627 0.30071 0.0
C1270 C 0.88361 0.74953 0.33759 0.0
Eu1271 Eu 0.84916 0.8037 0.29237 0.0
N1272 N 0.86577 0.82468 0.33214 0.0
C1273 C 0.86841 0.84939 0.34081 0.0
C1274 C 0.88483 0.8465 0.37923 0.0
C1275 C 0.87766 0.86051 0.36445 0.0
H1276 H 0.86204 0.74993 0.28171 0.0
H1277 H 0.87905 0.87988 0.37131 0.0
H1278 H 0.89854 0.81473 0.40224 0.0
H1279 H 0.8779 0.72365 0.30371 0.0
H1280 H 0.8627 0.86068 0.3301 0.0
H1281 H 0.75713 0.73431 0.20443 0.0
H1282 H 0.8919 0.85515 0.39756 0.0
H1283 H 0.78094 0.86319 0.29746 0.0
H1284 H 0.77416 0.7518 0.24589 0.0
H1285 H 0.76628 0.89132 0.27687 0.0
H1286 H 0.898 0.77203 0.38396 0.0
H1287 H 0.74665 0.76125 0.17915 0.0
H1288 H 0.74274 0.80317 0.17585 0.0
H1289 H 0.89067 0.73804 0.34714 0.0
H1290 H 0.74531 0.84606 0.19556 0.0
N1291 N 0.77413 0.78884 0.24449 0.0
C1292 C 0.76967 0.76398 0.23539 0.0
C1293 C 0.75414 0.76914 0.19748 0.0
C1294 C 0.75732 0.79424 0.20736 0.0
C1295 C 0.75997 0.75387 0.21172 0.0
C1296 C 0.76731 0.80363 0.23129 0.0
H1297 H 0.75355 0.87889 0.23336 0.0
N1298 N 0.77712 0.83556 0.26575 0.0
C1299 C 0.76707 0.87358 0.26687 0.0
C1300 C 0.76893 0.82778 0.24226 0.0
C1301 C 0.77529 0.85761 0.27846 0.0
C1302 C 0.76 0.86654 0.24229 0.0
C1303 C 0.7604 0.84318 0.22977 0.0
O1304 O 0.7675 0.81842 0.30806 0.0
O1305 O 0.81902 0.80686 0.31042 0.0
O1306 O 0.82706 0.76571 0.29674 0.0
O1307 O 0.79069 0.76705 0.28589 0.0
O1308 O 0.80262 0.83375 0.32048 0.0
O1309 O 0.76094 0.78069 0.28886 0.0
O1310 O 0.872 0.79244 0.26782 0.0
O1311 O 0.82108 0.80396 0.26609 0.0
O1312 O 0.81364 0.84493 0.27789 0.0
O1313 O 0.84979 0.84403 0.28991 0.0
O1314 O 0.83724 0.77657 0.2571 0.0
O1315 O 0.87908 0.83046 0.28618 0.0
C1316 C 0.81758 0.82383 0.32746 0.0
C1317 C 0.72957 0.79556 0.29734 0.0
C1318 C 0.69182 0.79113 0.30931 0.0
C1319 C 0.71473 0.793 0.31491 0.0
C1320 C 0.68432 0.79196 0.28576 0.0
C1321 C 0.72146 0.79649 0.2742 0.0
C1322 C 0.69903 0.79475 0.26851 0.0
C1323 C 0.80515 0.75482 0.29182 0.0
C1324 C 0.75332 0.79661 0.30295 0.0
C1325 C 0.75166 0.83439 0.20554 0.0
C1326 C 0.75016 0.80996 0.19434 0.0
C1327 C 0.8222 0.78617 0.24973 0.0
C1328 C 0.90994 0.81522 0.27601 0.0
C1329 C 0.92362 0.81724 0.25733 0.0
C1330 C 0.94644 0.81809 0.26126 0.0
C1331 C 0.95515 0.81699 0.28427 0.0
C1332 C 0.91918 0.8141 0.29864 0.0
C1333 C 0.94162 0.81498 0.30269 0.0
C1334 C 0.8355 0.85591 0.28297 0.0
C1335 C 0.8861 0.81422 0.27181 0.0
H1336 H 0.7211 0.79254 0.33286 0.0
H1337 H 0.66692 0.78992 0.28037 0.0
H1338 H 0.73241 0.79825 0.26041 0.0
H1339 H 0.69293 0.79526 0.25049 0.0
H1340 H 0.91642 0.81789 0.23978 0.0
H1341 H 0.9726 0.81813 0.28825 0.0
H1342 H 0.90907 0.81269 0.31321 0.0
H1343 H 0.94863 0.81424 0.32028 0.0
Eu1344 Eu 0.84404 0.29925 0.74726 0.0
C1345 C 0.82136 0.37254 0.82635 0.0
C1346 C 0.8569 0.39108 0.85079 0.0
C1347 C 0.82953 0.41438 0.85063 0.0
C1348 C 0.84205 0.37082 0.83456 0.0
C1349 C 0.81506 0.39458 0.83405 0.0
C1350 C 0.85034 0.41254 0.85915 0.0
C1351 C 0.78029 0.37606 0.80883 0.0
N1352 N 0.80768 0.35311 0.81026 0.0
C1353 C 0.78698 0.35451 0.80208 0.0
C1354 C 0.79438 0.39622 0.82487 0.0
Eu1355 Eu 0.81929 0.31572 0.80222 0.0
N1356 N 0.84834 0.35023 0.82535 0.0
C1357 C 0.8703 0.35056 0.82951 0.0
C1358 C 0.87833 0.38969 0.85741 0.0
C1359 C 0.88527 0.36968 0.8461 0.0
H1360 H 0.77488 0.3389 0.79088 0.0
H1361 H 0.90237 0.36926 0.84967 0.0
H1362 H 0.86152 0.42815 0.87164 0.0
H1363 H 0.76398 0.37687 0.80202 0.0
H1364 H 0.87708 0.33684 0.81973 0.0
H1365 H 0.81774 0.30892 0.65732 0.0
H1366 H 0.8901 0.40472 0.86995 0.0
H1367 H 0.85349 0.24649 0.76319 0.0
H1368 H 0.83516 0.32313 0.69921 0.0
H1369 H 0.84462 0.20255 0.74672 0.0
H1370 H 0.82487 0.43129 0.85681 0.0
H1371 H 0.80261 0.26415 0.64023 0.0
H1372 H 0.79731 0.2205 0.64518 0.0
H1373 H 0.78904 0.41283 0.83026 0.0
H1374 H 0.80456 0.19161 0.6696 0.0
N1375 N 0.82957 0.28686 0.70611 0.0
C1376 C 0.8288 0.30354 0.69194 0.0
C1377 C 0.81025 0.27032 0.65867 0.0
C1378 C 0.81233 0.25328 0.67279 0.0
C1379 C 0.81885 0.29557 0.6682 0.0
C1380 C 0.82241 0.26225 0.69674 0.0
H1381 H 0.82259 0.18479 0.70708 0.0
N1382 N 0.83737 0.25542 0.73314 0.0
C1383 C 0.83926 0.21452 0.73638 0.0
C1384 C 0.8265 0.24605 0.71058 0.0
C1385 C 0.84455 0.23998 0.7456 0.0
C1386 C 0.82679 0.20457 0.71406 0.0
C1387 C 0.82061 0.22036 0.70064 0.0
O1388 O 0.87928 0.3165 0.76017 0.0
O1389 O 0.84285 0.32918 0.77775 0.0
O1390 O 0.79558 0.31641 0.76932 0.0
O1391 O 0.81125 0.3062 0.73411 0.0
O1392 O 0.84326 0.33799 0.74401 0.0
O1393 O 0.86917 0.30279 0.72233 0.0
O1394 O 0.78481 0.30588 0.80925 0.0
O1395 O 0.81714 0.28684 0.76925 0.0
O1396 O 0.86116 0.28775 0.7785 0.0
O1397 O 0.84837 0.30132 0.81494 0.0
O1398 O 0.81529 0.27513 0.80135 0.0
O1399 O 0.81078 0.3082 0.83724 0.0
C1400 C 0.84234 0.346 0.76644 0.0
C1401 C 0.89816 0.33999 0.73454 0.0
C1402 C 0.90061 0.37551 0.7159 0.0
C1403 C 0.88914 0.35184 0.71856 0.0
C1404 C 0.92146 0.38731 0.72929 0.0
C1405 C 0.91904 0.35195 0.74774 0.0
C1406 C 0.93065 0.37548 0.74504 0.0
C1407 C 0.79528 0.31299 0.74556 0.0
C1408 C 0.88523 0.31607 0.7388 0.0
C1409 C 0.80944 0.21128 0.67732 0.0
C1410 C 0.80532 0.22771 0.66341 0.0
C1411 C 0.81409 0.26811 0.7785 0.0
C1412 C 0.77771 0.27525 0.83227 0.0
C1413 C 0.7784 0.26888 0.85477 0.0
C1414 C 0.76858 0.24448 0.85702 0.0
C1415 C 0.75801 0.22648 0.83651 0.0
C1416 C 0.76677 0.25697 0.81196 0.0
C1417 C 0.75709 0.23277 0.81413 0.0
C1418 C 0.86211 0.29103 0.80232 0.0
C1419 C 0.78946 0.30045 0.82977 0.0
H1420 H 0.87294 0.34294 0.70851 0.0
H1421 H 0.93066 0.40555 0.72745 0.0
H1422 H 0.92621 0.34323 0.76035 0.0
H1423 H 0.94671 0.38467 0.75535 0.0
H1424 H 0.78697 0.28279 0.87043 0.0
H1425 H 0.75019 0.20763 0.83784 0.0
H1426 H 0.76599 0.26119 0.79427 0.0
H1427 H 0.74892 0.21883 0.79838 0.0
Eu1428 Eu 0.84495 0.83613 0.80486 0.0
C1429 C 0.74818 0.77122 0.78541 0.0
C1430 C 0.73648 0.74278 0.8117 0.0
C1431 C 0.70918 0.75849 0.79194 0.0
C1432 C 0.75332 0.75677 0.80067 0.0
C1433 C 0.72597 0.7721 0.78078 0.0
C1434 C 0.71441 0.74377 0.80729 0.0
C1435 C 0.73797 0.79754 0.75232 0.0
N1436 N 0.76463 0.7834 0.77416 0.0
C1437 C 0.75965 0.79578 0.75716 0.0
C1438 C 0.7211 0.78589 0.76437 0.0
Eu1439 Eu 0.80061 0.77781 0.78214 0.0
N1440 N 0.77459 0.75536 0.80378 0.0
C1441 C 0.78001 0.73959 0.81701 0.0
C1442 C 0.7422 0.72768 0.82633 0.0
C1443 C 0.76406 0.726 0.8289 0.0
H1444 H 0.77231 0.80494 0.74754 0.0
H1445 H 0.76859 0.71403 0.83981 0.0
H1446 H 0.70126 0.73315 0.81558 0.0
H1447 H 0.73431 0.80789 0.73925 0.0
H1448 H 0.79685 0.73793 0.8187 0.0
H1449 H 0.87391 0.90775 0.75408 0.0
H1450 H 0.72978 0.71685 0.83527 0.0
H1451 H 0.87768 0.81247 0.83884 0.0
H1452 H 0.84762 0.88238 0.77593 0.0
H1453 H 0.91546 0.80788 0.84189 0.0
H1454 H 0.69206 0.75896 0.78858 0.0
H1455 H 0.91132 0.90136 0.7505 0.0
H1456 H 0.94006 0.88082 0.76252 0.0
H1457 H 0.70429 0.78715 0.76045 0.0
H1458 H 0.95143 0.85378 0.78677 0.0
N1459 N 0.86972 0.86146 0.78415 0.0
C1460 C 0.86392 0.87946 0.77443 0.0
C1461 C 0.8998 0.8901 0.76001 0.0
C1462 C 0.90616 0.87285 0.77139 0.0
C1463 C 0.87872 0.89377 0.76197 0.0
C1464 C 0.89056 0.85871 0.78363 0.0
H1465 H 0.94236 0.82635 0.8162 0.0
N1466 N 0.88184 0.8318 0.81029 0.0
C1467 C 0.91042 0.81776 0.82905 0.0
C1468 C 0.89684 0.84338 0.79712 0.0
C1469 C 0.88875 0.82028 0.82709 0.0
C1470 C 0.92553 0.82814 0.81449 0.0
C1471 C 0.91905 0.84182 0.79883 0.0
O1472 O 0.8429 0.848 0.84321 0.0
O1473 O 0.80893 0.81732 0.7998 0.0
O1474 O 0.80783 0.79846 0.75166 0.0
O1475 O 0.83974 0.83169 0.76415 0.0
O1476 O 0.81715 0.85275 0.79414 0.0
O1477 O 0.85516 0.87521 0.82252 0.0
O1478 O 0.79278 0.76084 0.74381 0.0
O1479 O 0.83709 0.79662 0.78559 0.0
O1480 O 0.84027 0.81072 0.83212 0.0
O1481 O 0.80329 0.78722 0.8229 0.0
O1482 O 0.82823 0.76208 0.79427 0.0
O1483 O 0.79647 0.73842 0.7697 0.0
C1484 C 0.80084 0.83401 0.79489 0.0
C1485 C 0.83141 0.88472 0.85137 0.0
C1486 C 0.80886 0.91318 0.84643 0.0
C1487 C 0.82447 0.9006 0.83834 0.0
C1488 C 0.79973 0.90915 0.86764 0.0
C1489 C 0.8222 0.88111 0.87259 0.0
C1490 C 0.80639 0.8932 0.88057 0.0
C1491 C 0.82379 0.81698 0.74751 0.0
C1492 C 0.84758 0.87129 0.84246 0.0
C1493 C 0.93438 0.85492 0.78579 0.0
C1494 C 0.9279 0.87029 0.77196 0.0
C1495 C 0.84465 0.77992 0.7917 0.0
C1496 C 0.80801 0.72707 0.73169 0.0
C1497 C 0.82773 0.72333 0.74153 0.0
C1498 C 0.83894 0.70794 0.72814 0.0
C1499 C 0.83076 0.69804 0.70371 0.0
C1500 C 0.80044 0.71728 0.7074 0.0
C1501 C 0.81199 0.70314 0.69342 0.0
C1502 C 0.82192 0.79625 0.83782 0.0
C1503 C 0.79428 0.7393 0.74706 0.0
H1504 H 0.83105 0.90296 0.82162 0.0
H1505 H 0.7878 0.91866 0.87451 0.0
H1506 H 0.82712 0.86883 0.88288 0.0
H1507 H 0.79935 0.89029 0.89694 0.0
H1508 H 0.83383 0.73182 0.75994 0.0
H1509 H 0.83814 0.68561 0.69248 0.0
H1510 H 0.78535 0.72008 0.69941 0.0
H1511 H 0.80589 0.6953 0.67471 0.0
Eu1512 Eu 0.55027 0.5363 0.52876 0.0
C1513 C 0.60898 0.6323 0.59095 0.0
C1514 C 0.6259 0.65924 0.56549 0.0
C1515 C 0.61458 0.67674 0.60311 0.0
C1516 C 0.61715 0.63528 0.5697 0.0
C1517 C 0.60889 0.65313 0.60859 0.0
C1518 C 0.62317 0.67982 0.58151 0.0
C1519 C 0.60399 0.62682 0.63739 0.0
N1520 N 0.60513 0.60947 0.59597 0.0
C1521 C 0.60492 0.607 0.61934 0.0
C1522 C 0.60521 0.64986 0.63179 0.0
Eu1523 Eu 0.60222 0.57563 0.56301 0.0
N1524 N 0.62029 0.61507 0.55534 0.0
C1525 C 0.63539 0.618 0.53912 0.0
C1526 C 0.63892 0.66192 0.54667 0.0
C1527 C 0.64435 0.64129 0.53399 0.0
H1528 H 0.60443 0.58933 0.62379 0.0
H1529 H 0.65554 0.64331 0.52039 0.0
H1530 H 0.6292 0.69832 0.57825 0.0
H1531 H 0.60259 0.62438 0.6556 0.0
H1532 H 0.64033 0.60235 0.52975 0.0
H1533 H 0.54444 0.44406 0.54569 0.0
H1534 H 0.64607 0.67999 0.54289 0.0
H1535 H 0.53816 0.55072 0.47559 0.0
H1536 H 0.5428 0.48764 0.55496 0.0
H1537 H 0.5346 0.53244 0.43243 0.0
H1538 H 0.61411 0.69292 0.61619 0.0
H1539 H 0.54835 0.42472 0.50427 0.0
H1540 H 0.54846 0.42774 0.46093 0.0
H1541 H 0.605 0.66535 0.64587 0.0
H1542 H 0.54488 0.45161 0.42989 0.0
N1543 N 0.54924 0.49375 0.52041 0.0
C1544 C 0.546 0.47969 0.53733 0.0
C1545 C 0.54839 0.44402 0.50853 0.0
C1546 C 0.54894 0.45774 0.49058 0.0
C1547 C 0.54624 0.45487 0.53192 0.0
C1548 C 0.54899 0.48281 0.49714 0.0
H1549 H 0.53912 0.49044 0.41908 0.0
N1550 N 0.54527 0.51965 0.48669 0.0
C1551 C 0.5381 0.52206 0.44554 0.0
C1552 C 0.54655 0.49601 0.47967 0.0
C1553 C 0.54006 0.53234 0.47004 0.0
C1554 C 0.5407 0.49835 0.43807 0.0
C1555 C 0.54462 0.48485 0.45518 0.0
O1556 O 0.51906 0.54609 0.52371 0.0
O1557 O 0.57213 0.57509 0.54019 0.0
O1558 O 0.57386 0.57611 0.58796 0.0
O1559 O 0.54476 0.54206 0.56974 0.0
O1560 O 0.54412 0.5712 0.51809 0.0
O1561 O 0.51879 0.51156 0.53409 0.0
O1562 O 0.63318 0.58046 0.58527 0.0
O1563 O 0.58154 0.53563 0.55128 0.0
O1564 O 0.57647 0.53867 0.50122 0.0
O1565 O 0.6044 0.57298 0.52144 0.0
O1566 O 0.59676 0.54709 0.58638 0.0
O1567 O 0.6275 0.55795 0.54936 0.0
C1568 C 0.56156 0.58747 0.52967 0.0
C1569 C 0.48803 0.51266 0.508 0.0
C1570 C 0.45329 0.51401 0.48707 0.0
C1571 C 0.47047 0.52352 0.50617 0.0
C1572 C 0.45373 0.49325 0.46976 0.0
C1573 C 0.48813 0.49165 0.4908 0.0
C1574 C 0.471 0.48202 0.47179 0.0
C1575 C 0.55418 0.5603 0.58875 0.0
C1576 C 0.50686 0.52501 0.52673 0.0
C1577 C 0.54607 0.46042 0.44861 0.0
C1578 C 0.54821 0.44687 0.46628 0.0
C1579 C 0.58497 0.52811 0.57075 0.0
C1580 C 0.66506 0.57738 0.56603 0.0
C1581 C 0.67692 0.56067 0.55679 0.0
C1582 C 0.70033 0.56816 0.55768 0.0
C1583 C 0.71135 0.59339 0.56696 0.0
C1584 C 0.67637 0.60239 0.57466 0.0
C1585 C 0.69938 0.61032 0.57488 0.0
C1586 C 0.59523 0.55612 0.50127 0.0
C1587 C 0.64143 0.56763 0.56876 0.0
H1588 H 0.47059 0.53998 0.51924 0.0
H1589 H 0.44066 0.48565 0.45485 0.0
H1590 H 0.50151 0.48292 0.49183 0.0
H1591 H 0.47124 0.46595 0.45848 0.0
H1592 H 0.66763 0.54167 0.54946 0.0
H1593 H 0.72927 0.60023 0.56887 0.0
H1594 H 0.66754 0.61566 0.58178 0.0
H1595 H 0.7081 0.62957 0.58195 0.0
Eu1596 Eu 0.10057 0.55484 0.01798 0.0
C1597 C 0.01659 0.49837 0.02626 0.0
C1598 C 1.00197 0.47415 0.98627 0.0
C1599 C 0.9955 0.45512 0.0206 0.0
C1600 C 0.014 0.4967 1.0017 0.0
C1601 C 1.00678 0.47769 0.03594 0.0
C1602 C 0.99326 0.45329 0.9958 0.0
C1603 C 0.01693 0.50383 0.07534 0.0
N1604 N 0.02732 0.52056 0.04074 0.0
C1605 C 0.02597 0.52384 0.06493 0.0
C1606 C 1.00774 0.48049 0.06081 0.0
Eu1607 Eu 0.04346 0.55339 0.02122 0.0
N1608 N 0.0226 0.51718 0.99291 0.0
C1609 C 0.01761 0.51683 0.96914 0.0
C1610 C 0.99857 0.47334 0.9617 0.0
C1611 C 1.00608 0.49491 0.95318 0.0
H1612 H 0.03136 0.54194 0.07655 0.0
H1613 H 1.00266 0.49479 0.93434 0.0
H1614 H 0.9842 0.43583 0.98419 0.0
H1615 H 0.01661 0.50657 0.09455 0.0
H1616 H 0.02179 0.5334 0.96215 0.0
H1617 H 0.1467 0.59928 0.10694 0.0
H1618 H 0.98949 0.4564 0.94931 0.0
H1619 H 0.11053 0.57638 0.96621 0.0
H1620 H 0.12653 0.56452 0.07481 0.0
H1621 H 0.12326 0.61605 0.95439 0.0
H1622 H 0.98792 0.43913 0.02778 0.0
H1623 H 0.15776 0.6416 0.0992 0.0
H1624 H 0.15988 0.66931 0.06977 0.0
H1625 H 1.00046 0.46505 0.06889 0.0
H1626 H 0.1532 0.67392 0.02824 0.0
N1627 N 0.12337 0.58684 0.04934 0.0
C1628 C 0.13002 0.58289 0.07124 0.0
C1629 C 0.14836 0.62636 0.08504 0.0
C1630 C 0.14342 0.63 0.062 0.0
C1631 C 0.14206 0.60257 0.08951 0.0
C1632 C 0.13106 0.60951 0.04418 0.0
H1633 H 0.13962 0.65424 0.98516 0.0
N1634 N 0.1164 0.59173 1.0039 0.0
C1635 C 0.12409 0.61534 0.97321 0.0
C1636 C 0.12741 0.61206 0.0208 0.0
C1637 C 0.11622 0.5928 0.98016 0.0
C1638 C 0.13343 0.63681 0.99059 0.0
C1639 C 0.13585 0.63524 0.01466 0.0
O1640 O 0.11941 0.54011 0.99063 0.0
O1641 O 0.06549 0.52949 1.00661 0.0
O1642 O 0.06177 0.56055 0.05901 0.0
O1643 O 0.09177 0.54445 0.05262 0.0
O1644 O 0.0879 0.51641 0.02522 0.0
O1645 O 0.12955 0.54232 0.02795 0.0
O1646 O 0.02336 0.57011 0.04574 0.0
O1647 O 0.07837 0.57868 0.03258 0.0
O1648 O 0.08291 0.54866 0.98021 0.0
O1649 O 0.05169 0.56293 0.98592 0.0
O1650 O 0.05596 0.59207 0.01447 0.0
O1651 O 0.01385 0.5626 1.00761 0.0
C1652 C 0.06809 0.51048 0.01401 0.0
C1653 C 0.15732 0.54093 1.00167 0.0
C1654 C 0.19303 0.53099 1.00709 0.0
C1655 C 0.17099 0.52869 0.0124 0.0
C1656 C 0.20129 0.54592 0.99097 0.0
C1657 C 0.16606 0.556 0.98589 0.0
C1658 C 0.18793 0.55845 0.98062 0.0
C1659 C 0.07742 0.5509 0.06647 0.0
C1660 C 0.13371 0.53619 1.00605 0.0
C1661 C 0.14695 0.65594 0.03259 0.0
C1662 C 0.15077 0.65332 0.05622 0.0
C1663 C 0.07572 0.59796 0.02576 0.0
C1664 C 0.98515 0.56358 0.0322 0.0
C1665 C 0.97213 0.58001 0.03 0.0
C1666 C 0.94923 0.57339 0.03258 0.0
C1667 C 0.93967 0.54999 0.03754 0.0
C1668 C 0.97523 0.54035 0.03701 0.0
C1669 C 0.95261 0.53367 0.03975 0.0
C1670 C 0.06652 0.55707 0.97236 0.0
C1671 C 1.00884 0.57087 0.0287 0.0
H1672 H 0.16426 0.51688 0.02447 0.0
H1673 H 0.21821 0.54822 0.98667 0.0
H1674 H 0.15594 0.56562 0.97742 0.0
H1675 H 0.19454 0.57003 0.96837 0.0
H1676 H 0.97993 0.598 0.0264 0.0
H1677 H 0.92208 0.54406 0.03927 0.0
H1678 H 0.98488 0.52735 0.03851 0.0
H1679 H 0.94501 0.51567 0.04339 0.0
H1680 H 0.05559 0.19906 0.94711 0.0
H1681 H 0.01734 0.22533 1.00169 0.0
H1682 H 0.02169 0.19234 0.02285 0.0
H1683 H 0.03502 0.13411 0.94522 0.0
H1684 H 0.06141 0.12745 0.94155 0.0
H1685 H 0.05552 0.15322 0.93102 0.0
H1686 H 0.09122 0.18259 0.95671 0.0
H1687 H 0.09711 0.15685 0.96736 0.0
H1688 H 0.09507 0.18362 0.98846 0.0
H1689 H 0.02818 0.15311 0.03681 0.0
H1690 H 0.03803 0.11513 0.04299 0.0
H1691 H 0.0744 0.11577 0.98124 0.0
C1692 C 0.04816 0.19806 0.96359 0.0
C1693 C 0.03595 0.21523 0.97248 0.0
C1694 C 0.02677 0.21284 0.99428 0.0
C1695 C 0.02915 0.19394 1.00647 0.0
C1696 C 0.04113 0.17735 0.99712 0.0
C1697 C 0.05073 0.1795 0.97625 0.0
C1698 C 0.06301 0.15953 0.97004 0.0
C1699 C 0.05315 0.14258 0.9455 0.0
C1700 C 0.08809 0.17136 0.97067 0.0
C1701 C 0.05852 0.14546 0.99028 0.0
C1702 C 0.04581 0.15599 1.00575 0.0
C1703 C 0.03862 0.14532 0.02504 0.0
C1704 C 0.04453 0.12374 0.02864 0.0
C1705 C 0.05818 0.11295 0.01359 0.0
C1706 C 0.06485 0.12401 0.99387 0.0
H1707 H 0.1947 0.84448 0.13905 0.0
H1708 H 0.15052 0.83222 0.19385 0.0
H1709 H 0.18072 0.82693 0.21987 0.0
H1710 H 0.22568 0.80133 0.1492 0.0
H1711 H 0.25256 0.82045 0.14579 0.0
H1712 H 0.22772 0.82384 0.13056 0.0
H1713 H 0.23879 0.87045 0.15041 0.0
H1714 H 0.26375 0.86712 0.16547 0.0
H1715 H 0.24462 0.87982 0.18259 0.0
H1716 H 0.21365 0.81862 0.23899 0.0
H1717 H 0.25019 0.81487 0.25334 0.0
H1718 H 0.27686 0.83696 0.19032 0.0
C1719 C 0.1915 0.8411 0.15667 0.0
C1720 C 0.16977 0.83868 0.16404 0.0
C1721 C 0.16662 0.83412 0.18735 0.0
C1722 C 0.18378 0.83095 0.20243 0.0
C1723 C 0.20455 0.83272 0.19448 0.0
C1724 C 0.20884 0.83827 0.17245 0.0
C1725 C 0.23325 0.83969 0.16912 0.0
C1726 C 0.23489 0.82016 0.14737 0.0
C1727 C 0.24585 0.86583 0.16675 0.0
C1728 C 0.24167 0.83379 0.19256 0.0
C1729 C 0.22453 0.82954 0.2066 0.0
C1730 C 0.22737 0.82266 0.22847 0.0
C1731 C 0.24839 0.8209 0.2367 0.0
C1732 C 0.26684 0.82657 0.2237 0.0
C1733 C 0.26324 0.8326 0.2009 0.0
H1734 H 0.56619 0.86747 0.50463 0.0
H1735 H 0.51121 0.85566 0.44924 0.0
H1736 H 0.51329 0.89964 0.45871 0.0
H1737 H 0.54797 0.91644 0.54706 0.0
H1738 H 0.57613 0.93452 0.55788 0.0
H1739 H 0.56997 0.90138 0.54821 0.0
H1740 H 0.5993 0.90699 0.51836 0.0
H1741 H 0.60546 0.94009 0.52793 0.0
H1742 H 0.59726 0.92577 0.49667 0.0
H1743 H 0.52597 0.94581 0.46759 0.0
H1744 H 0.54361 0.9906 0.48185 0.0
H1745 H 0.58555 0.97518 0.5368 0.0
C1746 C 0.55419 0.87399 0.49498 0.0
C1747 C 0.53869 0.85747 0.47582 0.0
C1748 C 0.52353 0.86738 0.4637 0.0
C1749 C 0.5245 0.89261 0.46894 0.0
C1750 C 0.54034 0.90842 0.48702 0.0
C1751 C 0.55452 0.89956 0.50046 0.0
C1752 C 0.5699 0.92122 0.51895 0.0
C1753 C 0.56575 0.9182 0.54455 0.0
C1754 C 0.59443 0.92365 0.51525 0.0
C1755 C 0.56253 0.94334 0.51312 0.0
C1756 C 0.54563 0.93538 0.49435 0.0
C1757 C 0.53824 0.95222 0.48327 0.0
C1758 C 0.54806 0.97777 0.49176 0.0
C1759 C 0.56409 0.98673 0.51221 0.0
C1760 C 0.57177 0.96905 0.52261 0.0
H1761 H 0.54554 0.33037 0.68951 0.0
H1762 H 0.56975 0.27017 0.70709 0.0
H1763 H 0.53779 0.25838 0.72926 0.0
H1764 H 0.52603 0.34697 0.74691 0.0
H1765 H 0.50178 0.35413 0.73457 0.0
H1766 H 0.52624 0.35769 0.71916 0.0
H1767 H 0.50257 0.32881 0.68085 0.0
H1768 H 0.47806 0.325 0.69622 0.0
H1769 H 0.48637 0.29824 0.68229 0.0
H1770 H 0.50391 0.25275 0.74979 0.0
H1771 H 0.47099 0.2556 0.77036 0.0
H1772 H 0.46756 0.3195 0.74107 0.0
C1773 C 0.54408 0.31472 0.69804 0.0
C1774 C 0.5603 0.30121 0.69644 0.0
C1775 C 0.55773 0.28091 0.70798 0.0
C1776 C 0.53951 0.27394 0.72058 0.0
C1777 C 0.52382 0.28743 0.7217 0.0
C1778 C 0.52591 0.30752 0.71098 0.0
C1779 C 0.50685 0.31922 0.71588 0.0
C1780 C 0.51576 0.3461 0.72997 0.0
C1781 C 0.49262 0.31772 0.69241 0.0
C1782 C 0.49394 0.30262 0.73113 0.0
C1783 C 0.50405 0.2843 0.73398 0.0
C1784 C 0.49582 0.26699 0.74767 0.0
C1785 C 0.47709 0.26873 0.75928 0.0
C1786 C 0.46665 0.28768 0.7573 0.0
C1787 C 0.47498 0.3046 0.74263 0.0
H1788 H 0.03763 0.81047 0.61963 0.0
H1789 H 0.01068 0.74462 0.56369 0.0
H1790 H 0.01484 0.77039 0.53315 0.0
H1791 H 0.01391 0.85256 0.59286 0.0
H1792 H 0.03843 0.8783 0.60185 0.0
H1793 H 0.03201 0.85501 0.61961 0.0
H1794 H 0.07086 0.84741 0.61581 0.0
H1795 H 0.07744 0.87077 0.59819 0.0
H1796 H 0.0794 0.83995 0.58646 0.0
H1797 H 0.02132 0.80314 0.50884 0.0
H1798 H 0.03351 0.83997 0.49157 0.0
H1799 H 0.05962 0.88452 0.56281 0.0
C1800 C 0.03243 0.80154 0.60096 0.0
C1801 C 0.02361 0.77556 0.594 0.0
C1802 C 0.01742 0.76448 0.56939 0.0
C1803 C 0.01962 0.77897 0.55194 0.0
C1804 C 0.02835 0.80452 0.55936 0.0
C1805 C 0.03497 0.81571 0.58323 0.0
C1806 C 0.04523 0.84335 0.58616 0.0
C1807 C 0.03157 0.85817 0.601 0.0
C1808 C 0.06968 0.8508 0.59731 0.0
C1809 C 0.04337 0.8459 0.5602 0.0
C1810 C 0.03327 0.82331 0.54513 0.0
C1811 C 0.0295 0.82088 0.52044 0.0
C1812 C 0.03668 0.84197 0.51079 0.0
C1813 C 0.04797 0.86525 0.52568 0.0
C1814 C 0.05097 0.86717 0.55083 0.0
H1815 H 0.53863 0.79474 0.81086 0.0
H1816 H 0.58666 0.85354 0.78882 0.0
H1817 H 0.5563 0.86408 0.76736 0.0
H1818 H 0.49751 0.77841 0.75354 0.0
H1819 H 0.47405 0.77229 0.77036 0.0
H1820 H 0.49967 0.7661 0.78017 0.0
H1821 H 0.50064 0.79384 0.82176 0.0
H1822 H 0.47537 0.80059 0.81198 0.0
H1823 H 0.50004 0.82552 0.82368 0.0
H1824 H 0.52179 0.87491 0.7575 0.0
H1825 H 0.48482 0.88108 0.753 0.0
H1826 H 0.45743 0.81194 0.77576 0.0
C1827 C 0.54277 0.80907 0.8006 0.0
C1828 C 0.56503 0.82333 0.80155 0.0
C1829 C 0.56976 0.84236 0.78839 0.0
C1830 C 0.55261 0.84852 0.77612 0.0
C1831 C 0.53078 0.83515 0.77669 0.0
C1832 C 0.52574 0.81532 0.78793 0.0
C1833 C 0.5007 0.80536 0.78722 0.0
C1834 C 0.4925 0.77897 0.7719 0.0
C1835 C 0.4938 0.80641 0.81267 0.0
C1836 C 0.49268 0.82362 0.77513 0.0
C1837 C 0.51036 0.84056 0.76923 0.0
C1838 C 0.50763 0.86108 0.76091 0.0
C1839 C 0.48623 0.86427 0.75821 0.0
C1840 C 0.46741 0.84669 0.76317 0.0
C1841 C 0.47096 0.82593 0.7716 0.0
H1842 H 0.48795 0.17671 0.11257 0.0
H1843 H 0.49063 0.15701 0.18222 0.0
H1844 H 0.49491 0.11628 0.16328 0.0
H1845 H 0.46067 0.11155 0.07524 0.0
H1846 H 0.47776 0.11798 0.05178 0.0
H1847 H 0.46888 0.14246 0.06971 0.0
H1848 H 0.51006 0.16831 0.08043 0.0
H1849 H 0.51908 0.14384 0.06323 0.0
H1850 H 0.52987 0.15545 0.09433 0.0
H1851 H 0.50707 0.08208 0.13847 0.0
H1852 H 0.52302 0.05581 0.10941 0.0
H1853 H 0.51221 0.09764 0.05578 0.0
C1854 C 0.48845 0.16344 0.12374 0.0
C1855 C 0.48896 0.1701 0.14889 0.0
C1856 C 0.49004 0.15233 0.16289 0.0
C1857 C 0.4925 0.1291 0.15228 0.0
C1858 C 0.49343 0.12377 0.1276 0.0
C1859 C 0.49088 0.14023 0.11341 0.0
C1860 C 0.49553 0.13165 0.08802 0.0
C1861 C 0.47445 0.12555 0.07014 0.0
C1862 C 0.51478 0.15096 0.08114 0.0
C1863 C 0.50217 0.10846 0.09041 0.0
C1864 C 0.50055 0.10401 0.11326 0.0
C1865 C 0.50785 0.08503 0.12035 0.0
C1866 C 0.51705 0.07028 0.1037 0.0
C1867 C 0.51899 0.07462 0.08018 0.0
C1868 C 0.51099 0.09371 0.07348 0.0
H1869 H 0.16215 0.32281 0.33525 0.0
H1870 H 0.16581 0.25929 0.36513 0.0
H1871 H 0.20388 0.26352 0.35428 0.0
H1872 H 0.18999 0.30575 0.28435 0.0
H1873 H 0.20537 0.33663 0.28285 0.0
H1874 H 0.17889 0.33147 0.29457 0.0
H1875 H 0.19597 0.36186 0.33435 0.0
H1876 H 0.22258 0.36848 0.32299 0.0
H1877 H 0.22006 0.35833 0.35095 0.0
H1878 H 0.24191 0.2767 0.34447 0.0
H1879 H 0.27589 0.29131 0.32681 0.0
H1880 H 0.24768 0.34299 0.29742 0.0
C1881 C 0.1711 0.3099 0.33946 0.0
C1882 C 0.16128 0.29082 0.35118 0.0
C1883 C 0.17314 0.27395 0.35612 0.0
C1884 C 0.19478 0.27633 0.35022 0.0
C1885 C 0.20413 0.29538 0.33891 0.0
C1886 C 0.19262 0.31151 0.33293 0.0
C1887 C 0.20632 0.32899 0.319 0.0
C1888 C 0.19446 0.32551 0.29368 0.0
C1889 C 0.21154 0.35602 0.33264 0.0
C1890 C 0.22726 0.3201 0.31828 0.0
C1891 C 0.22566 0.3012 0.33057 0.0
C1892 C 0.24315 0.29098 0.33416 0.0
C1893 C 0.26251 0.29943 0.32396 0.0
C1894 C 0.26415 0.31735 0.30966 0.0
C1895 C 0.24653 0.32848 0.30745 0.0
H1896 H 0.96624 0.07082 0.19097 0.0
H1897 H 0.02353 0.07739 0.24119 0.0
H1898 H 0.04646 0.07526 0.20771 0.0
H1899 H 0.97998 0.02621 0.14278 0.0
H1900 H 0.97039 0.03859 0.11856 0.0
H1901 H 0.95823 0.04164 0.14633 0.0
H1902 H 0.96782 0.08894 0.15025 0.0
H1903 H 0.97999 0.08602 0.12248 0.0
H1904 H 0.99617 0.10604 0.14937 0.0
H1905 H 0.06466 0.0735 0.16774 0.0
H1906 H 0.0752 0.06966 0.12676 0.0
H1907 H 1.0068 0.06083 0.09892 0.0
C1908 C 0.98367 0.07203 0.1951 0.0
C1909 C 0.99268 0.07467 0.21978 0.0
C1910 C 0.01567 0.07557 0.22325 0.0
C1911 C 0.02904 0.07436 0.204 0.0
C1912 C 0.01973 0.07174 0.18027 0.0
C1913 C 0.99742 0.07031 0.17566 0.0
C1914 C 0.99158 0.06654 0.14813 0.0
C1915 C 0.97399 0.04178 0.13837 0.0
C1916 C 0.98339 0.08817 0.14221 0.0
C1917 C 0.01397 0.06626 0.13803 0.0
C1918 C 0.02997 0.06956 0.15716 0.0
C1919 C 0.05202 0.07074 0.15287 0.0
C1920 C 0.05795 0.06855 0.12907 0.0
C1921 C 0.04226 0.06471 0.10851 0.0
C1922 C 0.01964 0.06347 0.11356 0.0
H1923 H 0.30296 0.73604 0.48841 0.0
H1924 H 0.3261 0.67878 0.44492 0.0
H1925 H 0.32134 0.69706 0.40948 0.0
H1926 H 0.26116 0.73881 0.44445 0.0
H1927 H 0.2661 0.77187 0.4533 0.0
H1928 H 0.27157 0.75437 0.47504 0.0
H1929 H 0.31229 0.78195 0.48505 0.0
H1930 H 0.30686 0.79975 0.46361 0.0
H1931 H 0.32953 0.78563 0.46121 0.0
H1932 H 0.31307 0.72153 0.37881 0.0
H1933 H 0.30479 0.75168 0.35616 0.0
H1934 H 0.28802 0.79278 0.4209 0.0
C1935 C 0.30713 0.72732 0.47148 0.0
C1936 C 0.31486 0.70599 0.46934 0.0
C1937 C 0.32022 0.69522 0.4469 0.0
C1938 C 0.31745 0.70538 0.42671 0.0
C1939 C 0.30939 0.72624 0.42943 0.0
C1940 C 0.30452 0.73717 0.45134 0.0
C1941 C 0.29643 0.75964 0.44982 0.0
C1942 C 0.27239 0.75593 0.45601 0.0
C1943 C 0.31223 0.78312 0.46587 0.0
C1944 C 0.29758 0.75981 0.42359 0.0
C1945 C 0.30491 0.74033 0.41203 0.0
C1946 C 0.30742 0.7369 0.38772 0.0
C1947 C 0.30275 0.75416 0.37505 0.0
C1948 C 0.29581 0.77463 0.3868 0.0
C1949 C 0.29294 0.77716 0.4113 0.0
H1950 H 0.68958 0.03582 0.6717 0.0
H1951 H 0.63885 0.99142 0.70536 0.0
H1952 H 0.61125 0.98619 0.67042 0.0
H1953 H 0.65768 0.07024 0.65585 0.0
H1954 H 0.66815 0.0744 0.62784 0.0
H1955 H 0.6855 0.06849 0.6511 0.0
H1956 H 0.69095 0.03018 0.62233 0.0
H1957 H 0.6742 0.03672 0.59878 0.0
H1958 H 0.66691 1.0066 0.6062 0.0
H1959 H 0.58815 0.99161 0.63537 0.0
H1960 H 0.57136 1.00734 0.60346 0.0
H1961 H 0.63676 0.05227 0.5957 0.0
C1962 C 0.67298 0.02379 0.671 0.0
C1963 C 0.66639 1.01334 0.69072 0.0
C1964 C 0.64423 0.99898 0.69003 0.0
C1965 C 0.62848 0.99599 0.67031 0.0
C1966 C 0.63519 1.0078 0.65169 0.0
C1967 C 0.65698 0.02134 0.65184 0.0
C1968 C 0.65913 0.03586 0.63211 0.0
C1969 C 0.66814 0.06389 0.64236 0.0
C1970 C 0.67366 0.02677 0.61377 0.0
C1971 C 0.63508 0.02914 0.62144 0.0
C1972 C 0.6216 1.01246 0.63253 0.0
C1973 C 0.5986 1.00446 0.62639 0.0
C1974 C 0.58918 1.01372 0.6084 0.0
C1975 C 0.60269 0.03129 0.59722 0.0
C1976 C 0.62593 0.03888 0.60382 0.0
H1977 H 0.32524 0.32132 0.96965 0.0
H1978 H 0.33599 0.39983 0.97257 0.0
H1979 H 0.33615 0.39259 0.92859 0.0
H1980 H 0.35738 0.3077 0.92369 0.0
H1981 H 0.33836 0.27891 0.90766 0.0
H1982 H 0.33832 0.28894 0.93944 0.0
H1983 H 0.29689 0.2872 0.93459 0.0
H1984 H 0.29578 0.27558 0.90288 0.0
H1985 H 0.28659 0.3027 0.91344 0.0
H1986 H 0.33686 0.37705 0.88412 0.0
H1987 H 0.33232 0.35379 0.84217 0.0
H1988 H 0.31809 0.28488 0.86695 0.0
C1989 C 0.32746 0.33693 0.96096 0.0
C1990 C 0.33069 0.36122 0.97465 0.0
C1991 C 0.33334 0.38108 0.96253 0.0
C1992 C 0.33363 0.37716 0.93752 0.0
C1993 C 0.33069 0.35311 0.92457 0.0
C1994 C 0.327 0.33322 0.93577 0.0
C1995 C 0.32285 0.30907 0.91739 0.0
C1996 C 0.34028 0.29534 0.92231 0.0
C1997 C 0.29912 0.29268 0.91706 0.0
C1998 C 0.32549 0.31856 0.89424 0.0
C1999 C 0.33018 0.34406 0.89884 0.0
C2000 C 0.33315 0.35708 0.88035 0.0
C2001 C 0.33073 0.34374 0.85655 0.0
C2002 C 0.3253 0.31757 0.85128 0.0
C2003 C 0.32265 0.30491 0.87048 0.0
H2004 H 0.98838 0.06569 0.38365 0.0
H2005 H 0.0338 0.03849 0.33896 0.0
H2006 H 0.05448 0.03259 0.37488 0.0
H2007 H 0.0282 0.09716 0.43702 0.0
H2008 H 1.00925 0.08772 0.45807 0.0
H2009 H 0.99862 0.091 0.42913 0.0
H2010 H 0.97383 0.04596 0.42082 0.0
H2011 H 0.98441 0.0426 0.44975 0.0
H2012 H 0.98642 0.02124 0.42304 0.0
H2013 H 0.07261 0.03182 0.41853 0.0
H2014 H 0.08229 0.03216 0.46146 0.0
H2015 H 0.02299 0.05443 0.47819 0.0
C2016 C 1.00278 0.05867 0.38132 0.0
C2017 C 1.00931 0.05303 0.35765 0.0
C2018 C 0.02814 0.04329 0.35625 0.0
C2019 C 0.04017 0.03986 0.37688 0.0
C2020 C 0.03335 0.04554 0.39971 0.0
C2021 C 0.01477 0.0544 0.40192 0.0
C2022 C 1.0102 0.05781 0.42837 0.0
C2023 C 0.01164 0.08504 0.43876 0.0
C2024 C 0.98735 0.0409 0.43063 0.0
C2025 C 0.02909 0.04986 0.44072 0.0
C2026 C 0.04251 0.04315 0.42391 0.0
C2027 C 0.06167 0.0365 0.43144 0.0
C2028 C 0.06702 0.03639 0.45616 0.0
C2029 C 0.05309 0.04197 0.47388 0.0
C2030 C 0.03393 0.04917 0.46553 0.0
H2031 H 0.33606 0.73238 0.58811 0.0
H2032 H 0.35346 0.66989 0.60962 0.0
H2033 H 0.35166 0.68791 0.65171 0.0
H2034 H 0.36579 0.78001 0.64352 0.0
H2035 H 0.34412 0.79575 0.64384 0.0
H2036 H 0.35068 0.78054 0.61579 0.0
H2037 H 0.30966 0.75514 0.60493 0.0
H2038 H 0.30275 0.76971 0.63301 0.0
H2039 H 0.29655 0.73647 0.62494 0.0
H2040 H 0.33802 0.70541 0.68786 0.0
H2041 H 0.32326 0.72815 0.72047 0.0
H2042 H 0.31832 0.78285 0.67856 0.0
C2043 C 0.34045 0.72301 0.60175 0.0
C2044 C 0.34477 0.69961 0.59555 0.0
C2045 C 0.35008 0.68777 0.61391 0.0
C2046 C 0.34903 0.69783 0.63788 0.0
C2047 C 0.34312 0.71996 0.64318 0.0
C2048 C 0.33963 0.73292 0.62586 0.0
C2049 C 0.3319 0.75539 0.63637 0.0
C2050 C 0.34916 0.77937 0.63482 0.0
C2051 C 0.30885 0.75407 0.62407 0.0
C2052 C 0.33068 0.75233 0.66208 0.0
C2053 C 0.33697 0.73153 0.66531 0.0
C2054 C 0.33409 0.72239 0.68603 0.0
C2055 C 0.32538 0.73533 0.70438 0.0
C2056 C 0.32021 0.75761 0.70237 0.0
C2057 C 0.32273 0.7662 0.68081 0.0
H2058 H 0.65951 0.04631 0.828 0.0
H2059 H 0.66089 0.11326 0.8021 0.0
H2060 H 0.63964 0.1264 0.83454 0.0
H2061 H 0.60425 0.03467 0.83924 0.0
H2062 H 0.60778 0.02253 0.86573 0.0
H2063 H 0.62634 0.02024 0.84321 0.0
H2064 H 0.66018 0.04289 0.8752 0.0
H2065 H 0.64167 0.04521 0.89787 0.0
H2066 H 0.66116 0.07269 0.8932 0.0
H2067 H 0.61573 0.13068 0.86705 0.0
H2068 H 0.5889 0.1249 0.89658 0.0
H2069 H 0.60062 0.05379 0.89981 0.0
C2070 C 0.65582 0.06402 0.82967 0.0
C2071 C 0.66197 0.07897 0.81287 0.0
C2072 C 0.65633 0.10166 0.81497 0.0
C2073 C 0.6444 0.10933 0.83337 0.0
C2074 C 0.63806 0.09396 0.84938 0.0
C2075 C 0.64347 0.07173 0.84771 0.0
C2076 C 0.63242 0.05745 0.86553 0.0
C2077 C 0.61677 0.03224 0.85265 0.0
C2078 C 0.64991 0.05439 0.88405 0.0
C2079 C 0.61952 0.07482 0.87692 0.0
C2080 C 0.62339 0.09597 0.86766 0.0
C2081 C 0.61264 0.11426 0.87457 0.0
C2082 C 0.59728 0.1107 0.89118 0.0
C2083 C 0.59255 0.08885 0.90045 0.0
C2084 C 0.60412 0.07089 0.8934 0.0
H2085 H 0.33581 0.34362 0.11083 0.0
H2086 H 0.29107 0.39084 0.11686 0.0
H2087 H 0.28169 0.37991 0.15517 0.0
H2088 H 0.3017 0.29503 0.13858 0.0
H2089 H 0.3255 0.29009 0.15444 0.0
H2090 H 0.32795 0.30004 0.12636 0.0
H2091 H 0.36067 0.3377 0.14689 0.0
H2092 H 0.35823 0.32789 0.17501 0.0
H2093 H 0.35674 0.35855 0.17305 0.0
H2094 H 0.27955 0.36773 0.19468 0.0
H2095 H 0.28303 0.35241 0.23202 0.0
H2096 H 0.32741 0.31098 0.20162 0.0
C2097 C 0.32367 0.35118 0.11995 0.0
C2098 C 0.31415 0.36812 0.11049 0.0
C2099 C 0.29867 0.37791 0.12347 0.0
C2100 C 0.29318 0.3718 0.14538 0.0
C2101 C 0.30315 0.35567 0.15447 0.0
C2102 C 0.31792 0.34524 0.14217 0.0
C2103 C 0.32672 0.32908 0.15678 0.0
C2104 C 0.32007 0.30195 0.14323 0.0
C2105 C 0.3521 0.33889 0.16331 0.0
C2106 C 0.3147 0.33229 0.17909 0.0
C2107 C 0.3013 0.34787 0.1773 0.0
C2108 C 0.28966 0.35514 0.19609 0.0
C2109 C 0.29173 0.34636 0.21728 0.0
C2110 C 0.30504 0.33008 0.21959 0.0
C2111 C 0.31657 0.32282 0.2001 0.0
H2112 H 0.25625 1.00999 0.04183 0.0
H2113 H 0.31385 0.07281 0.04821 0.0
H2114 H 0.29036 0.10131 0.05832 0.0
H2115 H 0.21342 0.03776 0.01924 0.0
H2116 H 0.19331 0.02383 0.03729 0.0
H2117 H 0.2137 1.00847 0.02653 0.0
H2118 H 0.22657 1.00692 0.07013 0.0
H2119 H 0.20629 0.02231 0.08097 0.0
H2120 H 0.23526 0.03523 0.09259 0.0
H2121 H 0.26118 0.1228 0.07001 0.0
H2122 H 0.22933 0.13596 0.0855 0.0
H2123 H 0.19187 0.05886 0.07601 0.0
C2124 C 0.26368 0.02974 0.04462 0.0
C2125 C 0.28667 0.03934 0.04376 0.0
C2126 C 0.29616 0.06523 0.0485 0.0
C2127 C 0.28295 0.0815 0.05418 0.0
C2128 C 0.26038 0.07152 0.05541 0.0
C2129 C 0.25083 0.04624 0.05095 0.0
C2130 C 0.22687 0.04033 0.05633 0.0
C2131 C 0.21088 0.0268 0.03348 0.0
C2132 C 0.22357 0.02532 0.07619 0.0
C2133 C 0.22459 0.06621 0.0649 0.0
C2134 C 0.24393 0.08391 0.06373 0.0
C2135 C 0.24594 0.10909 0.07106 0.0
C2136 C 0.2278 0.11637 0.08011 0.0
C2137 C 0.208 0.09853 0.08229 0.0
C2138 C 0.20647 0.07311 0.07429 0.0
H2139 H 0.73837 0.64126 0.05019 0.0
H2140 H 0.73148 0.64715 0.97579 0.0
H2141 H 0.69525 0.61488 0.96871 0.0
H2142 H 0.71165 0.57554 0.04283 0.0
H2143 H 0.69766 0.57966 0.06925 0.0
H2144 H 0.72396 0.60105 0.06767 0.0
H2145 H 0.70623 0.63768 0.07643 0.0
H2146 H 0.67999 0.61641 0.07823 0.0
H2147 H 0.68166 0.63704 0.05768 0.0
H2148 H 0.65959 0.58147 0.97022 0.0
H2149 H 0.62521 0.55539 0.98141 0.0
H2150 H 0.65433 0.57525 0.05569 0.0
C2151 C 0.72934 0.63544 0.03233 0.0
C2152 C 0.73775 0.6462 0.01337 0.0
C2153 C 0.72527 0.63885 0.99043 0.0
C2154 C 0.70481 0.62049 0.98627 0.0
C2155 C 0.69693 0.61014 1.0054 0.0
C2156 C 0.70866 0.61777 0.0281 0.0
C2157 C 0.69565 0.6058 0.04619 0.0
C2158 C 0.70797 0.58954 0.05712 0.0
C2159 C 0.69058 0.6254 0.06578 0.0
C2160 C 0.67474 0.59025 0.03021 0.0
C2161 C 0.67594 0.59248 1.00662 0.0
C2162 C 0.65849 0.57967 0.98864 0.0
C2163 C 0.63911 0.5648 0.99509 0.0
C2164 C 0.63723 0.56344 0.01936 0.0
C2165 C 0.6554 0.57603 0.03699 0.0
H2166 H 0.73572 0.44588 0.29767 0.0
H2167 H 0.75824 0.46584 0.2322 0.0
H2168 H 0.77747 0.43274 0.22731 0.0
H2169 H 0.78689 0.43097 0.31845 0.0
H2170 H 0.77258 0.40522 0.33064 0.0
H2171 H 0.76034 0.43036 0.32921 0.0
H2172 H 0.72469 0.39954 0.30517 0.0
H2173 H 0.73679 0.37433 0.30667 0.0
H2174 H 0.72679 0.37884 0.27801 0.0
H2175 H 0.79419 0.39397 0.22846 0.0
H2176 H 0.80582 0.35742 0.23641 0.0
H2177 H 0.77485 0.36249 0.30189 0.0
C2178 C 0.74467 0.44343 0.28224 0.0
C2179 C 0.74494 0.45938 0.26529 0.0
C2180 C 0.75727 0.45464 0.24563 0.0
C2181 C 0.76845 0.43553 0.24265 0.0
C2182 C 0.76786 0.42036 0.25948 0.0
C2183 C 0.75627 0.42423 0.27904 0.0
C2184 C 0.75837 0.40532 0.29463 0.0
C2185 C 0.77024 0.41877 0.31973 0.0
C2186 C 0.73528 0.38851 0.29622 0.0
C2187 C 0.77273 0.39027 0.28093 0.0
C2188 C 0.77801 0.39919 0.26058 0.0
C2189 C 0.79035 0.38749 0.24471 0.0
C2190 C 0.79732 0.36662 0.24956 0.0
C2191 C 0.79286 0.35722 0.27063 0.0
C2192 C 0.77984 0.36944 0.28615 0.0
H2193 H 0.92824 0.45495 0.52576 0.0
H2194 H 0.9057 0.52167 0.53609 0.0
H2195 H 0.94464 0.54696 0.54027 0.0
H2196 H 0.97662 0.47997 0.56869 0.0
H2197 H 0.99389 0.46402 0.55174 0.0
H2198 H 0.96423 0.45056 0.54864 0.0
H2199 H 0.96205 0.4474 0.50316 0.0
H2200 H 0.9916 0.46115 0.50523 0.0
H2201 H 0.97235 0.47461 0.4913 0.0
H2202 H 0.98595 0.56506 0.54755 0.0
H2203 H 0.02682 0.57458 0.55129 0.0
H2204 H 0.02253 0.49636 0.53349 0.0
C2205 C 0.93142 0.47485 0.52857 0.0
C2206 C 0.91388 0.48632 0.53058 0.0
C2207 C 0.91883 0.51245 0.53445 0.0
C2208 C 0.94089 0.52699 0.53696 0.0
C2209 C 0.95777 0.51511 0.53547 0.0
C2210 C 0.95331 0.48964 0.53108 0.0
C2211 C 0.97455 0.48153 0.53055 0.0
C2212 C 0.97749 0.46824 0.55112 0.0
C2213 C 0.97519 0.46524 0.50611 0.0
C2214 C 0.99158 0.50643 0.53465 0.0
C2215 C 0.98157 0.52556 0.53814 0.0
C2216 C 0.99395 0.55025 0.54422 0.0
C2217 C 0.01719 0.55551 0.54618 0.0
C2218 C 0.02764 0.53622 0.54119 0.0
C2219 C 0.01473 0.5114 0.53601 0.0
H2220 H 0.44154 0.14342 0.23939 0.0
H2221 H 0.42294 0.13621 0.31001 0.0
H2222 H 0.39762 0.16258 0.30664 0.0
H2223 H 0.43747 0.20943 0.24519 0.0
H2224 H 0.42686 0.20386 0.21402 0.0
H2225 H 0.44628 0.18789 0.22332 0.0
H2226 H 0.4186 0.1458 0.20339 0.0
H2227 H 0.39892 0.1613 0.19402 0.0
H2228 H 0.39078 0.13829 0.21182 0.0
H2229 H 0.36939 0.1821 0.29233 0.0
H2230 H 0.34321 0.19802 0.27053 0.0
H2231 H 0.38234 0.19635 0.21031 0.0
C2232 C 0.43265 0.14805 0.25444 0.0
C2233 C 0.43412 0.1378 0.27496 0.0
C2234 C 0.42217 0.14407 0.29424 0.0
C2235 C 0.40772 0.15898 0.29245 0.0
C2236 C 0.40591 0.16792 0.27153 0.0
C2237 C 0.4185 0.1633 0.25312 0.0
C2238 C 0.41241 0.17386 0.23198 0.0
C2239 C 0.43191 0.19501 0.22842 0.0
C2240 C 0.40472 0.15359 0.20896 0.0
C2241 C 0.39335 0.18356 0.24071 0.0
C2242 C 0.39008 0.18022 0.26366 0.0
C2243 C 0.37227 0.18566 0.27471 0.0
C2244 C 0.35751 0.19494 0.26209 0.0
C2245 C 0.36072 0.19915 0.23866 0.0
C2246 C 0.37908 0.19338 0.22803 0.0
H2247 H 0.347 0.11796 0.52965 0.0
H2248 H 0.38641 0.18796 0.51754 0.0
H2249 H 0.42035 0.17331 0.52045 0.0
H2250 H 0.38547 0.1091 0.57226 0.0
H2251 H 0.37956 0.07615 0.56144 0.0
H2252 H 0.35838 0.09163 0.55701 0.0
H2253 H 0.35395 0.07419 0.51122 0.0
H2254 H 0.37503 0.05849 0.51553 0.0
H2255 H 0.37804 0.07944 0.49523 0.0
H2256 H 0.45054 0.15208 0.52888 0.0
H2257 H 0.4737 0.12561 0.53923 0.0
H2258 H 0.41376 0.06809 0.54199 0.0
C2259 C 0.36273 0.13012 0.52733 0.0
C2260 C 0.36407 0.15415 0.52342 0.0
C2261 C 0.38497 0.16945 0.52042 0.0
C2262 C 0.40434 0.16129 0.52211 0.0
C2263 C 0.40247 0.13762 0.52638 0.0
C2264 C 0.3821 0.12213 0.52854 0.0
C2265 C 0.38452 0.09766 0.5333 0.0
C2266 C 0.37651 0.0934 0.55744 0.0
C2267 C 0.37215 0.07618 0.51258 0.0
C2268 C 0.40951 0.102 0.53416 0.0
C2269 C 0.41962 0.12513 0.53016 0.0
C2270 C 0.44272 0.13374 0.53155 0.0
C2271 C 0.45578 0.11838 0.53729 0.0
C2272 C 0.44579 0.09447 0.54142 0.0
C2273 C 0.42222 0.08626 0.53936 0.0
H2274 H 0.71607 0.62205 0.29625 0.0
H2275 H 0.77114 0.58897 0.28983 0.0
H2276 H 0.7965 0.62998 0.28974 0.0
H2277 H 0.73375 0.66436 0.25652 0.0
H2278 H 0.72475 0.6893 0.27341 0.0
H2279 H 0.71094 0.65771 0.27413 0.0
H2280 H 0.71879 0.66796 0.32035 0.0
H2281 H 0.73259 0.6996 0.31976 0.0
H2282 H 0.74698 0.68172 0.33447 0.0
H2283 H 0.81663 0.67575 0.29036 0.0
H2284 H 0.82892 0.72004 0.28997 0.0
H2285 H 0.76134 0.72524 0.29423 0.0
C2286 C 0.73352 0.62337 0.29511 0.0
C2287 C 0.74134 0.6016 0.29339 0.0
C2288 C 0.76439 0.60478 0.29138 0.0
C2289 C 0.77904 0.62826 0.29129 0.0
C2290 C 0.77078 0.64908 0.29289 0.0
C2291 C 0.74846 0.64683 0.29461 0.0
C2292 C 0.74379 0.67212 0.29524 0.0
C2293 C 0.72732 0.67079 0.27353 0.0
C2294 C 0.73501 0.68087 0.31886 0.0
C2295 C 0.7669 0.68897 0.29373 0.0
C2296 C 0.78221 0.67519 0.29256 0.0
C2297 C 0.80462 0.68648 0.29131 0.0
C2298 C 0.81159 0.71209 0.29126 0.0
C2299 C 0.79653 0.72708 0.2923 0.0
C2300 C 0.77363 0.71487 0.29342 0.0
H2301 H 0.92274 0.4785 0.80153 0.0
H2302 H 0.86909 0.50498 0.77385 0.0
H2303 H 0.84244 0.46473 0.77383 0.0
H2304 H 0.90644 0.42181 0.76468 0.0
H2305 H 0.91498 0.40534 0.78593 0.0
H2306 H 0.92857 0.43755 0.7885 0.0
H2307 H 0.91875 0.44772 0.83209 0.0
H2308 H 0.9065 0.41516 0.82929 0.0
H2309 H 0.8904 0.43686 0.838 0.0
H2310 H 0.82343 0.41957 0.76936 0.0
H2311 H 0.81392 0.37378 0.76075 0.0
H2312 H 0.87994 0.37721 0.79147 0.0
C2313 C 0.90528 0.47624 0.79619 0.0
C2314 C 0.898 0.49501 0.78787 0.0
C2315 C 0.87505 0.49096 0.78051 0.0
C2316 C 0.85979 0.46817 0.78051 0.0
C2317 C 0.86773 0.44974 0.78807 0.0
C2318 C 0.88998 0.45365 0.79584 0.0
C2319 C 0.89506 0.43016 0.79992 0.0
C2320 C 0.91227 0.42333 0.78379 0.0
C2321 C 0.90309 0.4326 0.82643 0.0
C2322 C 0.8723 0.41204 0.79244 0.0
C2323 C 0.85664 0.42373 0.78596 0.0
C2324 C 0.83528 0.41033 0.77518 0.0
C2325 C 0.83 0.3844 0.77036 0.0
C2326 C 0.84588 0.37229 0.77668 0.0
C2327 C 0.86714 0.38623 0.78801 0.0
H2328 H 0.11625 0.89485 0.05109 0.0
H2329 H 0.08902 0.89879 0.11909 0.0
H2330 H 0.07938 0.93704 0.11429 0.0
H2331 H 0.13933 0.9607 0.05574 0.0
H2332 H 0.13163 0.96021 0.02468 0.0
H2333 H 0.13665 0.93311 0.03325 0.0
H2334 H 0.0976 0.90733 0.01263 0.0
H2335 H 0.09222 0.93437 1.00422 0.0
H2336 H 0.07344 0.91691 0.0213 0.0
H2337 H 0.07456 0.97741 0.1034 0.0
H2338 H 0.07222 1.01326 0.08577 0.0
H2339 H 0.0996 0.98303 0.02316 0.0
C2340 C 0.10822 0.9037 0.06498 0.0
C2341 C 0.10359 0.89333 0.08567 0.0
C2342 C 0.09286 0.90585 0.1031 0.0
C2343 C 0.08731 0.92784 0.10054 0.0
C2344 C 0.09213 0.93754 0.08016 0.0
C2345 C 0.1021 0.92569 0.06247 0.0
C2346 C 0.10488 0.93987 0.04204 0.0
C2347 C 0.1296 0.94901 0.03873 0.0
C2348 C 0.09123 0.92365 0.01865 0.0
C2349 C 0.09536 0.96166 0.05116 0.0
C2350 C 0.08819 0.95997 0.07329 0.0
C2351 C 0.07971 0.97845 0.08583 0.0
C2352 C 0.07826 0.99882 0.07555 0.0
C2353 C 0.08463 1.00074 0.05246 0.0
C2354 C 0.09373 0.98189 0.04042 0.0
H2355 H 0.95176 0.28675 0.91114 0.0
H2356 H 0.97902 0.24303 0.85652 0.0
H2357 H 0.94978 0.24407 0.82622 0.0
H2358 H 0.89262 0.25828 0.88663 0.0
H2359 H 0.88484 0.28685 0.89356 0.0
H2360 H 0.90744 0.28224 0.91179 0.0
H2361 H 0.93359 0.3224 0.90421 0.0
H2362 H 0.9111 0.32708 0.88589 0.0
H2363 H 0.9368 0.32589 0.87383 0.0
H2364 H 0.91959 0.25183 0.80079 0.0
H2365 H 0.88907 0.26396 0.78193 0.0
H2366 H 0.87808 0.30143 0.85165 0.0
C2367 C 0.9514 0.27711 0.89287 0.0
C2368 C 0.968 0.26469 0.88651 0.0
C2369 C 0.9668 0.25265 0.86219 0.0
C2370 C 0.95013 0.25314 0.84469 0.0
C2371 C 0.93436 0.26569 0.85141 0.0
C2372 C 0.93463 0.27736 0.8749 0.0
C2373 C 0.91563 0.28984 0.87682 0.0
C2374 C 0.89915 0.27863 0.89318 0.0
C2375 C 0.92484 0.31798 0.88572 0.0
C2376 C 0.90487 0.28346 0.85076 0.0
C2377 C 0.91616 0.26958 0.83655 0.0
C2378 C 0.91039 0.26231 0.81183 0.0
C2379 C 0.89271 0.26926 0.80122 0.0
C2380 C 0.88031 0.28316 0.81507 0.0
C2381 C 0.88666 0.29032 0.84039 0.0
H2382 H 0.59923 0.23635 0.62712 0.0
H2383 H 0.60965 0.25881 0.55944 0.0
H2384 H 0.6062 0.21498 0.54002 0.0
H2385 H 0.63084 0.19157 0.61988 0.0
H2386 H 0.61245 0.17091 0.63472 0.0
H2387 H 0.61551 0.20371 0.64257 0.0
H2388 H 0.57286 0.19592 0.63333 0.0
H2389 H 0.5697 0.16313 0.62562 0.0
H2390 H 0.55903 0.17828 0.60438 0.0
H2391 H 0.60031 0.16597 0.52808 0.0
H2392 H 0.59267 0.12067 0.52572 0.0
H2393 H 0.58819 0.13233 0.60199 0.0
C2394 C 0.6007 0.23231 0.60813 0.0
C2395 C 0.60456 0.25153 0.59492 0.0
C2396 C 0.60656 0.24479 0.57012 0.0
C2397 C 0.60468 0.21979 0.55894 0.0
C2398 C 0.601 0.20147 0.5727 0.0
C2399 C 0.59911 0.2077 0.59686 0.0
C2400 C 0.59534 0.18512 0.60816 0.0
C2401 C 0.61468 0.18801 0.62748 0.0
C2402 C 0.5729 0.18034 0.61847 0.0
C2403 C 0.59508 0.16489 0.58667 0.0
C2404 C 0.59839 0.17445 0.56625 0.0
C2405 C 0.59799 0.15865 0.54416 0.0
C2406 C 0.59383 0.13281 0.54297 0.0
C2407 C 0.59044 0.12271 0.56376 0.0
C2408 C 0.5912 0.1393 0.5858 0.0
H2409 H 0.58015 0.79979 0.36879 0.0
H2410 H 0.59746 0.75657 0.41827 0.0
H2411 H 0.63115 0.75451 0.3987 0.0
H2412 H 0.59998 0.76891 0.31633 0.0
H2413 H 0.61068 0.79707 0.30597 0.0
H2414 H 0.58732 0.79403 0.32308 0.0
H2415 H 0.60864 0.83395 0.3537 0.0
H2416 H 0.63211 0.83702 0.33676 0.0
H2417 H 0.63579 0.83604 0.36807 0.0
H2418 H 0.66356 0.75756 0.37383 0.0
H2419 H 0.69152 0.76515 0.34563 0.0
H2420 H 0.65444 0.80866 0.31402 0.0
C2421 C 0.59083 0.78956 0.37528 0.0
C2422 C 0.58594 0.77816 0.39502 0.0
C2423 C 0.60071 0.76541 0.40319 0.0
C2424 C 0.61995 0.76414 0.39217 0.0
C2425 C 0.62446 0.77589 0.37305 0.0
C2426 C 0.61032 0.78838 0.36467 0.0
C2427 C 0.61943 0.80014 0.34436 0.0
C2428 C 0.6034 0.78939 0.32105 0.0
C2429 C 0.62428 0.82847 0.35114 0.0
C2430 C 0.64082 0.79226 0.34259 0.0
C2431 C 0.64339 0.77822 0.35923 0.0
C2432 C 0.66174 0.76865 0.36079 0.0
C2433 C 0.67772 0.7733 0.34478 0.0
C2434 C 0.67546 0.78756 0.32739 0.0
C2435 C 0.65673 0.79734 0.32668 0.0
H2436 H 0.10284 0.23027 0.43189 0.0
H2437 H 0.14354 0.30115 0.47288 0.0
H2438 H 0.148 0.28216 0.50774 0.0
H2439 H 0.07303 0.21393 0.4783 0.0
H2440 H 0.07108 0.18137 0.47024 0.0
H2441 H 0.07371 0.1996 0.44758 0.0
H2442 H 0.10869 0.18597 0.43563 0.0
H2443 H 0.10607 0.16754 0.4582 0.0
H2444 H 0.13176 0.19067 0.45823 0.0
H2445 H 0.14567 0.25597 0.53903 0.0
H2446 H 0.13642 0.22485 0.56422 0.0
H2447 H 0.09515 0.17234 0.50305 0.0
C2448 C 0.11319 0.24165 0.44798 0.0
C2449 C 0.12304 0.2671 0.44963 0.0
C2450 C 0.13594 0.28156 0.47122 0.0
C2451 C 0.13861 0.27093 0.49108 0.0
C2452 C 0.12817 0.2459 0.48906 0.0
C2453 C 0.11574 0.23145 0.46803 0.0
C2454 C 0.10463 0.2056 0.47109 0.0
C2455 C 0.07911 0.19981 0.46654 0.0
C2456 C 0.11331 0.18631 0.45482 0.0
C2457 C 0.11242 0.20788 0.49722 0.0
C2458 C 0.12622 0.23112 0.50723 0.0
C2459 C 0.13496 0.23766 0.53134 0.0
C2460 C 0.12943 0.21994 0.54556 0.0
C2461 C 0.1151 0.19606 0.53567 0.0
C2462 C 0.10656 0.19015 0.51114 0.0
H2463 H 0.57172 0.25574 0.24118 0.0
H2464 H 0.58537 0.27409 0.17228 0.0
H2465 H 0.62459 0.27492 0.18126 0.0
H2466 H 0.62703 0.29349 0.27461 0.0
H2467 H 0.62795 0.27077 0.29243 0.0
H2468 H 0.60155 0.27478 0.28197 0.0
H2469 H 0.58808 0.22811 0.26224 0.0
H2470 H 0.61449 0.22401 0.27227 0.0
H2471 H 0.60405 0.21503 0.24085 0.0
H2472 H 0.66046 0.26744 0.19463 0.0
H2473 H 0.69185 0.25624 0.21328 0.0
H2474 H 0.65639 0.24574 0.27511 0.0
C2475 C 0.58308 0.26064 0.22828 0.0
C2476 C 0.57537 0.26484 0.206 0.0
C2477 C 0.59078 0.27082 0.18948 0.0
C2478 C 0.61315 0.27134 0.1944 0.0
C2479 C 0.61999 0.26617 0.21608 0.0
C2480 C 0.60557 0.2614 0.23298 0.0
C2481 C 0.617 0.25512 0.25428 0.0
C2482 C 0.61847 0.27471 0.27718 0.0
C2483 C 0.6052 0.22902 0.25759 0.0
C2484 C 0.6398 0.25622 0.24626 0.0
C2485 C 0.64116 0.26271 0.22421 0.0
C2486 C 0.65986 0.26305 0.21224 0.0
C2487 C 0.67774 0.25677 0.22313 0.0
C2488 C 0.67701 0.25044 0.246 0.0
C2489 C 0.65768 0.25037 0.25765 0.0
H2490 H 0.61518 0.88747 0.94831 0.0
H2491 H 0.57722 0.87941 0.87941 0.0
H2492 H 0.56048 0.91208 0.8969 0.0
H2493 H 0.57231 0.8981 0.98418 0.0
H2494 H 0.59094 0.92086 1.00782 0.0
H2495 H 0.60066 0.89697 0.99016 0.0
H2496 H 0.63273 0.93001 0.97885 0.0
H2497 H 0.62339 0.95404 0.99681 0.0
H2498 H 0.62639 0.95413 0.96567 0.0
H2499 H 0.54718 0.94513 0.92165 0.0
H2500 H 0.53888 0.97706 0.9524 0.0
H2501 H 0.58626 0.96476 1.00459 0.0
C2502 C 0.60341 0.89262 0.9369 0.0
C2503 C 0.59758 0.88079 0.91248 0.0
C2504 C 0.58206 0.88813 0.89818 0.0
C2505 C 0.57238 0.9067 0.90791 0.0
C2506 C 0.5784 0.91791 0.93199 0.0
C2507 C 0.59361 0.91129 0.94631 0.0
C2508 C 0.59706 0.92634 0.97169 0.0
C2509 C 0.58981 0.90956 0.98951 0.0
C2510 C 0.62133 0.94206 0.97865 0.0
C2511 C 0.58145 0.94236 0.96927 0.0
C2512 C 0.57078 0.93714 0.94627 0.0
C2513 C 0.55544 0.94943 0.93977 0.0
C2514 C 0.55086 0.96755 0.95735 0.0
C2515 C 0.56162 0.9732 0.98109 0.0
C2516 C 0.57725 0.9605 0.9869 0.0
H2517 H 0.94195 0.7641 0.7122 0.0
H2518 H 0.96393 0.72607 0.76424 0.0
H2519 H 0.93509 0.73501 0.78918 0.0
H2520 H 0.93047 0.81203 0.75337 0.0
H2521 H 0.90501 0.81329 0.73745 0.0
H2522 H 0.92618 0.80377 0.7212 0.0
H2523 H 0.90032 0.76195 0.70002 0.0
H2524 H 0.87759 0.77084 0.71356 0.0
H2525 H 0.88358 0.7424 0.7171 0.0
H2526 H 0.90223 0.74512 0.80685 0.0
H2527 H 0.86804 0.75709 0.81679 0.0
H2528 H 0.86877 0.79112 0.75506 0.0
C2529 C 0.94096 0.75803 0.72904 0.0
C2530 C 0.95536 0.74457 0.73637 0.0
C2531 C 0.95322 0.73658 0.75834 0.0
C2532 C 0.93685 0.74151 0.77261 0.0
C2533 C 0.92282 0.75462 0.76478 0.0
C2534 C 0.92466 0.76277 0.74352 0.0
C2535 C 0.90703 0.77588 0.73894 0.0
C2536 C 0.91777 0.80287 0.73767 0.0
C2537 C 0.8912 0.76193 0.71606 0.0
C2538 C 0.89522 0.77414 0.76113 0.0
C2539 C 0.90442 0.76147 0.77561 0.0
C2540 C 0.89517 0.75552 0.79596 0.0
C2541 C 0.87581 0.76236 0.80147 0.0
C2542 C 0.86638 0.77572 0.78715 0.0
C2543 C 0.87627 0.78181 0.76681 0.0
H2544 H 0.11949 0.05231 0.85161 0.0
H2545 H 0.17637 0.02664 0.87107 0.0
H2546 H 0.16572 0.02761 0.91195 0.0
H2547 H 0.1193 0.09253 0.90977 0.0
H2548 H 0.08947 0.08423 0.90943 0.0
H2549 H 0.10157 0.08253 0.8816 0.0
H2550 H 0.07924 0.03669 0.86798 0.0
H2551 H 0.06708 0.03828 0.89578 0.0
H2552 H 0.08161 0.0152 0.88679 0.0
H2553 H 0.15012 0.03368 0.95308 0.0
H2554 H 0.12925 0.03961 0.98792 0.0
H2555 H 0.07903 0.0571 0.94366 0.0
C2556 C 0.12978 0.04688 0.86442 0.0
C2557 C 0.14926 0.0395 0.85725 0.0
C2558 C 0.16159 0.03237 0.87523 0.0
C2559 C 0.1556 0.03294 0.89889 0.0
C2560 C 0.13661 0.04022 0.90529 0.0
C2561 C 0.12357 0.04668 0.88842 0.0
C2562 C 0.10337 0.05267 0.9001 0.0
C2563 C 0.10343 0.07959 0.90022 0.0
C2564 C 0.08152 0.03464 0.88686 0.0
C2565 C 0.10721 0.04887 0.92602 0.0
C2566 C 0.12678 0.04203 0.92855 0.0
C2567 C 0.13464 0.03866 0.95091 0.0
C2568 C 0.12252 0.04212 0.9709 0.0
C2569 C 0.10197 0.04844 0.96926 0.0
C2570 C 0.09431 0.05177 0.94602 0.0
H2571 H 0.84953 0.38682 0.58901 0.0
H2572 H 0.85056 0.46217 0.62146 0.0
H2573 H 0.86178 0.45516 0.66111 0.0
H2574 H 0.82984 0.35873 0.64099 0.0
H2575 H 0.84716 0.33784 0.63622 0.0
H2576 H 0.83574 0.34764 0.61113 0.0
H2577 H 0.87562 0.36289 0.59968 0.0
H2578 H 0.8871 0.35367 0.62502 0.0
H2579 H 0.89671 0.38518 0.62146 0.0
H2580 H 0.87857 0.44228 0.69596 0.0
H2581 H 0.89585 0.42263 0.72427 0.0
H2582 H 0.88302 0.35556 0.66942 0.0
C2583 C 0.85142 0.40161 0.60453 0.0
C2584 C 0.84917 0.42504 0.60207 0.0
C2585 C 0.8521 0.44401 0.62284 0.0
C2586 C 0.85851 0.44024 0.64549 0.0
C2587 C 0.86157 0.41729 0.64712 0.0
C2588 C 0.85768 0.39811 0.62729 0.0
C2589 C 0.86363 0.3758 0.63363 0.0
C2590 C 0.84285 0.3537 0.6303 0.0
C2591 C 0.88185 0.36901 0.61909 0.0
C2592 C 0.87229 0.38579 0.65987 0.0
C2593 C 0.87087 0.40971 0.66737 0.0
C2594 C 0.87935 0.42338 0.69043 0.0
C2595 C 0.88932 0.41218 0.70632 0.0
C2596 C 0.8906 0.38757 0.69903 0.0
C2597 C 0.8819 0.37428 0.67554 0.0
H2598 H 0.47987 0.04042 0.38093 0.0
H2599 H 0.51309 0.11487 0.37426 0.0
H2600 H 0.53643 0.12125 0.41284 0.0
H2601 H 0.48105 0.05594 0.44815 0.0
H2602 H 0.48508 0.02638 0.45082 0.0
H2603 H 0.46929 0.02914 0.42442 0.0
H2604 H 0.4954 1.01028 0.39804 0.0
H2605 H 0.51158 1.00802 0.4243 0.0
H2606 H 0.52496 0.02482 0.4031 0.0
H2607 H 0.56042 0.11637 0.44775 0.0
H2608 H 0.57882 0.10375 0.48101 0.0
H2609 H 0.52779 0.0337 0.46662 0.0
C2610 C 0.49157 0.05833 0.38805 0.0
C2611 C 0.49475 0.07722 0.37485 0.0
C2612 C 0.51028 0.10035 0.3844 0.0
C2613 C 0.52368 0.10404 0.40615 0.0
C2614 C 0.5208 0.08462 0.41827 0.0
C2615 C 0.50463 0.0625 0.40996 0.0
C2616 C 0.50534 0.0443 0.42595 0.0
C2617 C 0.48392 0.03862 0.43806 0.0
C2618 C 0.50958 0.02046 0.41201 0.0
C2619 C 0.5251 0.05921 0.44393 0.0
C2620 C 0.53388 0.08236 0.43915 0.0
C2621 C 0.55334 0.09857 0.45207 0.0
C2622 C 0.56378 0.09115 0.47075 0.0
C2623 C 0.55453 0.06788 0.47646 0.0
C2624 C 0.53498 0.05175 0.46284 0.0
H2625 H 0.80817 0.71373 0.11489 0.0
H2626 H 0.80065 0.77917 0.0909 0.0
H2627 H 0.80331 0.80084 0.13341 0.0
H2628 H 0.77514 0.71927 0.16403 0.0
H2629 H 0.79233 0.70758 0.18291 0.0
H2630 H 0.7897 0.69761 0.1508 0.0
H2631 H 0.8326 0.71199 0.15166 0.0
H2632 H 0.83543 0.72178 0.18376 0.0
H2633 H 0.84738 0.74342 0.16577 0.0
H2634 H 0.8089 0.81572 0.18009 0.0
H2635 H 0.81554 0.82123 0.22443 0.0
H2636 H 0.81733 0.74491 0.21591 0.0
C2637 C 0.80717 0.73268 0.11842 0.0
C2638 C 0.80446 0.74482 0.09945 0.0
C2639 C 0.80283 0.76949 0.10508 0.0
C2640 C 0.80431 0.78192 0.12919 0.0
C2641 C 0.80706 0.7693 0.14745 0.0
C2642 C 0.80827 0.7451 0.14216 0.0
C2643 C 0.81105 0.73525 0.16463 0.0
C2644 C 0.79086 0.71365 0.16564 0.0
C2645 C 0.83291 0.72768 0.16656 0.0
C2646 C 0.81184 0.75781 0.18359 0.0
C2647 C 0.80944 0.77736 0.17355 0.0
C2648 C 0.81049 0.80036 0.18799 0.0
C2649 C 0.81413 0.80332 0.21315 0.0
C2650 C 0.81634 0.78329 0.22356 0.0
C2651 C 0.81527 0.7604 0.20845 0.0
H2652 H 0.12649 0.02075 0.7134 0.0
H2653 H 0.19194 0.01529 0.69634 0.0
H2654 H 0.18242 0.01915 0.65535 0.0
H2655 H 0.09717 0.98375 0.65351 0.0
H2656 H 0.07745 1.00165 0.65144 0.0
H2657 H 0.08887 0.99922 0.68042 0.0
H2658 H 0.10178 0.04662 0.6927 0.0
H2659 H 0.09123 0.04959 0.66357 0.0
H2660 H 0.12007 0.06395 0.67514 0.0
H2661 H 0.16768 0.02548 0.61586 0.0
H2662 H 0.14696 0.02759 0.57886 0.0
H2663 H 0.08789 0.02555 0.61511 0.0
C2664 C 0.13883 0.02022 0.70105 0.0
C2665 C 0.16038 0.01758 0.70923 0.0
C2666 C 0.17544 0.017 0.69161 0.0
C2667 C 0.17018 0.0194 0.66785 0.0
C2668 C 0.14929 0.02203 0.66056 0.0
C2669 C 0.13352 0.02193 0.67636 0.0
C2670 C 0.11191 0.02383 0.66257 0.0
C2671 C 0.0927 1.00074 0.66196 0.0
C2672 C 0.10587 0.0474 0.67419 0.0
C2673 C 0.1182 0.02517 0.63688 0.0
C2674 C 0.14012 0.02446 0.63672 0.0
C2675 C 0.15046 0.0258 0.61591 0.0
C2676 C 0.13833 0.02711 0.59467 0.0
C2677 C 0.11548 0.02692 0.59306 0.0
C2678 C 0.1053 0.02613 0.61506 0.0
H2679 H 0.8388 0.35862 0.46349 0.0
H2680 H 0.82054 0.42584 0.45759 0.0
H2681 H 0.81358 0.41178 0.41365 0.0
H2682 H 0.8678 0.35439 0.41469 0.0
H2683 H 0.85809 0.32129 0.40438 0.0
H2684 H 0.85894 0.33483 0.43558 0.0
H2685 H 0.81712 0.31307 0.43422 0.0
H2686 H 0.81585 0.29937 0.4029 0.0
H2687 H 0.79721 0.3177 0.41251 0.0
H2688 H 0.81471 0.39403 0.37063 0.0
H2689 H 0.81878 0.3707 0.33101 0.0
H2690 H 0.83343 0.31335 0.36424 0.0
C2691 C 0.83277 0.37005 0.45298 0.0
C2692 C 0.83023 0.39333 0.46395 0.0
C2693 C 0.82245 0.40786 0.44961 0.0
C2694 C 0.8185 0.40007 0.42461 0.0
C2695 C 0.82193 0.37746 0.41428 0.0
C2696 C 0.82832 0.36232 0.428 0.0
C2697 C 0.83159 0.33929 0.4123 0.0
C2698 C 0.85553 0.33736 0.41703 0.0
C2699 C 0.81442 0.31597 0.41568 0.0
C2700 C 0.82716 0.34452 0.38769 0.0
C2701 C 0.82159 0.36662 0.38926 0.0
C2702 C 0.81861 0.37646 0.36912 0.0
C2703 C 0.82122 0.36325 0.34677 0.0
C2704 C 0.82651 0.34037 0.34475 0.0
C2705 C 0.82926 0.33077 0.36541 0.0
H2706 H 0.52459 0.03779 0.26854 0.0
H2707 H 0.52764 0.10736 0.24729 0.0
H2708 H 0.55664 0.10073 0.22151 0.0
H2709 H 0.58512 0.0364 0.26139 0.0
H2710 H 0.57585 1.00361 0.24901 0.0
H2711 H 0.56145 0.01745 0.2717 0.0
H2712 H 0.52429 0.99918 0.24363 0.0
H2713 H 0.53849 0.98532 0.2211 0.0
H2714 H 0.52255 1.00586 0.21405 0.0
H2715 H 0.57817 0.08295 0.19212 0.0
H2716 H 0.58636 0.05393 0.15855 0.0
H2717 H 0.56781 0.99459 0.19685 0.0
C2718 C 0.53214 0.05215 0.25931 0.0
C2719 C 0.5242 0.07324 0.2601 0.0
C2720 C 0.53371 0.09118 0.24704 0.0
C2721 C 0.55034 0.08766 0.23256 0.0
C2722 C 0.55716 0.06607 0.2313 0.0
C2723 C 0.5483 0.04855 0.24435 0.0
C2724 C 0.55459 0.02471 0.2361 0.0
C2725 C 0.57019 0.0203 0.25572 0.0
C2726 C 0.53375 1.0025 0.22824 0.0
C2727 C 0.56682 0.03078 0.2151 0.0
C2728 C 0.56904 0.05512 0.21334 0.0
C2729 C 0.57705 0.06409 0.19363 0.0
C2730 C 0.58161 0.04749 0.17463 0.0
C2731 C 0.57771 0.02214 0.17532 0.0
C2732 C 0.57147 1.01403 0.1963 0.0
H2733 H 0.77544 0.74964 0.95414 0.0
H2734 H 0.84176 0.74374 0.9738 0.0
H2735 H 0.85443 0.75963 0.93831 0.0
H2736 H 0.77506 0.72907 0.89023 0.0
H2737 H 0.75961 0.74963 0.88214 0.0
H2738 H 0.75594 0.73879 0.90962 0.0
H2739 H 0.76581 0.78427 0.93322 0.0
H2740 H 0.76968 0.79501 0.90568 0.0
H2741 H 0.7918 0.80544 0.93021 0.0
H2742 H 0.86017 0.77641 0.90105 0.0
H2743 H 0.85813 0.7904 0.86302 0.0
H2744 H 0.78772 0.78368 0.86542 0.0
C2745 C 0.79267 0.75191 0.95106 0.0
C2746 C 0.80769 0.74564 0.96695 0.0
C2747 C 0.82999 0.74845 0.96201 0.0
C2748 C 0.83734 0.75752 0.94189 0.0
C2749 C 0.82216 0.76343 0.92658 0.0
C2750 C 0.80022 0.76055 0.93073 0.0
C2751 C 0.78717 0.7673 0.91075 0.0
C2752 C 0.76833 0.74485 0.8974 0.0
C2753 C 0.77808 0.78932 0.92056 0.0
C2754 C 0.80523 0.77448 0.89483 0.0
C2755 C 0.82531 0.77234 0.9045 0.0
C2756 C 0.84453 0.77819 0.89335 0.0
C2757 C 0.84325 0.78636 0.87176 0.0
C2758 C 0.82287 0.78846 0.86124 0.0
C2759 C 0.80357 0.7823 0.87298 0.0
H2760 H 0.85129 0.11395 1.00658 0.0
H2761 H 0.82207 0.05141 0.03791 0.0
H2762 H 0.85115 0.03163 0.02439 0.0
H2763 H 0.87139 0.07928 0.95475 0.0
H2764 H 0.89681 0.10355 0.95718 0.0
H2765 H 0.87178 0.11105 0.96593 0.0
H2766 H 0.89248 0.13384 1.00797 0.0
H2767 H 0.91749 0.12639 0.99938 0.0
H2768 H 0.90612 0.11755 0.02561 0.0
H2769 H 0.88485 0.02036 0.01083 0.0
H2770 H 0.92208 0.0192 0.9998 0.0
H2771 H 0.93063 0.09015 0.9793 0.0
C2772 C 0.85072 0.09579 0.00999 0.0
C2773 C 0.83438 0.08403 0.02303 0.0
C2774 C 0.83446 0.06064 0.02785 0.0
C2775 C 0.85081 0.04921 0.02014 0.0
C2776 C 0.867 0.06151 1.00776 0.0
C2777 C 0.86716 0.08431 1.00276 0.0
C2778 C 0.88777 0.09475 0.9915 0.0
C2779 C 0.88156 0.0973 0.96581 0.0
C2780 C 0.90179 0.11959 1.00705 0.0
C2781 C 0.89943 0.07456 0.99157 0.0
C2782 C 0.88697 0.05536 1.00062 0.0
C2783 C 0.89471 0.03519 1.00356 0.0
C2784 C 0.91595 0.0348 0.99743 0.0
C2785 C 0.92929 0.05461 0.98877 0.0
C2786 C 0.92069 0.07452 0.98546 0.0
H2787 H 0.41377 0.42358 0.0375 0.0
H2788 H 0.39258 0.47771 0.08762 0.0
H2789 H 0.43027 0.50642 0.09252 0.0
H2790 H 0.47017 0.43644 0.06633 0.0
H2791 H 0.48207 0.43272 0.03846 0.0
H2792 H 0.45376 0.41591 0.03981 0.0
H2793 H 0.44025 0.43431 1.00529 0.0
H2794 H 0.46851 0.45116 1.00387 0.0
H2795 H 0.44741 0.46742 1.00824 0.0
H2796 H 0.4708 0.52923 0.09235 0.0
H2797 H 0.50982 0.54505 0.08502 0.0
H2798 H 0.50361 0.47715 0.03297 0.0
C2799 C 0.41712 0.44138 0.04968 0.0
C2800 C 0.40021 0.44829 0.06232 0.0
C2801 C 0.40522 0.47196 0.07775 0.0
C2802 C 0.42662 0.48839 0.08071 0.0
C2803 C 0.44286 0.48106 0.06792 0.0
C2804 C 0.43831 0.45819 0.05255 0.0
C2805 C 0.45843 0.45528 0.04006 0.0
C2806 C 0.46659 0.43382 0.04656 0.0
C2807 C 0.45334 0.45184 0.01275 0.0
C2808 C 0.47496 0.48006 0.05081 0.0
C2809 C 0.46578 0.49459 0.06702 0.0
C2810 C 0.47807 0.51807 0.0795 0.0
C2811 C 0.50024 0.52699 0.07512 0.0
C2812 C 0.50985 0.51267 0.0581 0.0
C2813 C 0.4969 0.4888 0.04597 0.0
H2814 H 0.3974 0.64401 0.736 0.0
H2815 H 0.40114 0.64132 0.81127 0.0
H2816 H 0.38211 0.67459 0.81894 0.0
H2817 H 0.40909 0.71179 0.74616 0.0
H2818 H 0.39086 0.7114 0.72023 0.0
H2819 H 0.40361 0.68649 0.72051 0.0
H2820 H 0.36472 0.65504 0.71115 0.0
H2821 H 0.35199 0.67997 0.71103 0.0
H2822 H 0.34363 0.65871 0.73048 0.0
H2823 H 0.36018 0.70997 0.81824 0.0
H2824 H 0.34393 0.74349 0.80978 0.0
H2825 H 0.35816 0.72742 0.73641 0.0
C2826 C 0.39418 0.65024 0.75415 0.0
C2827 C 0.40101 0.63897 0.77293 0.0
C2828 C 0.3964 0.64882 0.7963 0.0
C2829 C 0.38535 0.66801 0.80088 0.0
C2830 C 0.37889 0.67856 0.78215 0.0
C2831 C 0.38361 0.67018 0.75923 0.0
C2832 C 0.37611 0.68562 0.74245 0.0
C2833 C 0.39611 0.69966 0.7317 0.0
C2834 C 0.35805 0.66883 0.72259 0.0
C2835 C 0.36645 0.70381 0.75923 0.0
C2836 C 0.36775 0.69918 0.78205 0.0
C2837 C 0.35931 0.71343 0.80027 0.0
C2838 C 0.34976 0.73261 0.79526 0.0
C2839 C 0.34847 0.73833 0.77209 0.0
C2840 C 0.35755 0.72349 0.75414 0.0
H2841 H 0.2438 0.65435 0.53492 0.0
H2842 H 0.25699 0.5824 0.51863 0.0
H2843 H 0.21673 0.56217 0.51612 0.0
H2844 H 0.20011 0.63711 0.57179 0.0
H2845 H 0.18336 0.65548 0.56148 0.0
H2846 H 0.21322 0.66513 0.56237 0.0
H2847 H 0.2102 0.66638 0.51752 0.0
H2848 H 0.18031 0.65759 0.51608 0.0
H2849 H 0.19391 0.63955 0.49591 0.0
H2850 H 0.17541 0.55023 0.51053 0.0
H2851 H 0.13538 0.54664 0.50724 0.0
H2852 H 0.14876 0.62606 0.53082 0.0
C2853 C 0.23824 0.63433 0.5309 0.0
C2854 C 0.25343 0.61988 0.52677 0.0
C2855 C 0.24559 0.59376 0.52184 0.0
C2856 C 0.2228 0.58215 0.52035 0.0
C2857 C 0.20827 0.59697 0.52418 0.0
C2858 C 0.21565 0.62247 0.52967 0.0
C2859 C 0.19653 0.63409 0.53287 0.0
C2860 C 0.1984 0.64882 0.55867 0.0
C2861 C 0.19517 0.65035 0.5145 0.0
C2862 C 0.17713 0.61109 0.52779 0.0
C2863 C 0.18434 0.58993 0.52269 0.0
C2864 C 0.16958 0.56656 0.51537 0.0
C2865 C 0.14682 0.56468 0.51382 0.0
C2866 C 0.13904 0.5859 0.52028 0.0
C2867 C 0.15437 0.60948 0.52672 0.0
H2868 H 0.72918 0.9838 0.78985 0.0
H2869 H 0.78621 0.01937 0.75755 0.0
H2870 H 0.8091 0.99709 0.7764 0.0
H2871 H 0.75847 0.98291 0.84571 0.0
H2872 H 0.74216 0.95251 0.84753 0.0
H2873 H 0.73001 0.9715 0.8319 0.0
H2874 H 0.71991 0.93653 0.79368 0.0
H2875 H 0.73197 0.91742 0.80926 0.0
H2876 H 0.74146 0.92395 0.78147 0.0
H2877 H 0.82626 0.97292 0.79984 0.0
H2878 H 0.83627 0.94505 0.8239 0.0
H2879 H 0.7676 0.92174 0.83854 0.0
C2880 C 0.74649 0.98687 0.78683 0.0
C2881 C 0.75601 1.00339 0.77237 0.0
C2882 C 0.77861 1.00674 0.76852 0.0
C2883 C 0.79177 0.99425 0.77921 0.0
C2884 C 0.78197 0.97815 0.79339 0.0
C2885 C 0.7598 0.97407 0.79698 0.0
C2886 C 0.75339 0.95499 0.81237 0.0
C2887 C 0.74555 0.96616 0.83577 0.0
C2888 C 0.73563 0.93185 0.79836 0.0
C2889 C 0.77552 0.94939 0.81714 0.0
C2890 C 0.79175 0.96312 0.80611 0.0
C2891 C 0.81364 0.96175 0.80828 0.0
C2892 C 0.8191 0.94568 0.82186 0.0
C2893 C 0.80268 0.93081 0.83286 0.0
C2894 C 0.7806 0.93289 0.83051 0.0
H2895 H 0.78646 0.9502 0.53187 0.0
H2896 H 0.79275 0.9665 0.60962 0.0
H2897 H 0.76441 0.98958 0.60866 0.0
H2898 H 0.78147 1.00985 0.52548 0.0
H2899 H 0.7618 0.99827 0.49875 0.0
H2900 H 0.78144 0.98151 0.50537 0.0
H2901 H 0.74901 0.94221 0.5029 0.0
H2902 H 0.72926 0.95887 0.49629 0.0
H2903 H 0.72687 0.94365 0.5213 0.0
H2904 H 0.73548 1.01126 0.59944 0.0
H2905 H 0.71028 0.0326 0.58256 0.0
H2906 H 0.72374 1.00419 0.51094 0.0
C2907 C 0.78168 0.95842 0.54866 0.0
C2908 C 0.79173 0.95637 0.57084 0.0
C2909 C 0.78531 0.96779 0.59242 0.0
C2910 C 0.76914 0.98088 0.59206 0.0
C2911 C 0.75964 0.9827 0.56997 0.0
C2912 C 0.76579 0.97199 0.54864 0.0
C2913 C 0.75389 0.97798 0.52742 0.0
C2914 C 0.77065 0.99279 0.51344 0.0
C2915 C 0.73886 0.95426 0.51101 0.0
C2916 C 0.74018 0.99374 0.54016 0.0
C2917 C 0.74353 0.99595 0.56469 0.0
C2918 C 0.7327 1.0096 0.58025 0.0
C2919 C 0.71828 0.02151 0.57051 0.0
C2920 C 0.71493 0.01997 0.54548 0.0
C2921 C 0.72602 1.00577 0.53017 0.0
H2922 H 0.42748 0.47991 0.77623 0.0
H2923 H 0.37493 0.51647 0.78553 0.0
H2924 H 0.34861 0.47645 0.78774 0.0
H2925 H 0.39224 0.4227 0.73757 0.0
H2926 H 0.40667 0.40314 0.74954 0.0
H2927 H 0.42125 0.43464 0.74933 0.0
H2928 H 0.43259 0.44285 0.79506 0.0
H2929 H 0.41792 0.41143 0.79542 0.0
H2930 H 0.41133 0.43677 0.81466 0.0
H2931 H 0.32833 0.43124 0.79248 0.0
H2932 H 0.31566 0.38695 0.79358 0.0
H2933 H 0.37982 0.37811 0.77567 0.0
C2934 C 0.4104 0.4796 0.77866 0.0
C2935 C 0.40358 0.50194 0.78086 0.0
C2936 C 0.38087 0.50008 0.78373 0.0
C2937 C 0.36573 0.47723 0.78513 0.0
C2938 C 0.3731 0.45574 0.78312 0.0
C2939 C 0.3949 0.45674 0.77944 0.0
C2940 C 0.39851 0.43087 0.7768 0.0
C2941 C 0.40505 0.42234 0.75183 0.0
C2942 C 0.41614 0.43047 0.79666 0.0
C2943 C 0.3755 0.41509 0.77981 0.0
C2944 C 0.36114 0.42985 0.78385 0.0
C2945 C 0.33943 0.41963 0.78864 0.0
C2946 C 0.33218 0.39402 0.78895 0.0
C2947 C 0.3461 0.37797 0.78379 0.0
C2948 C 0.36826 0.38919 0.77931 0.0
H2949 H 0.22874 0.65477 0.21826 0.0
H2950 H 0.28386 0.62861 0.24205 0.0
H2951 H 0.30909 0.67091 0.2473 0.0
H2952 H 0.26214 0.70224 0.18713 0.0
H2953 H 0.24649 0.72409 0.19658 0.0
H2954 H 0.23311 0.6913 0.19043 0.0
H2955 H 0.22038 0.69431 0.23247 0.0
H2956 H 0.23298 0.72713 0.23924 0.0
H2957 H 0.24061 0.7082 0.25852 0.0
H2958 H 0.32509 0.71654 0.2595 0.0
H2959 H 0.33348 0.76202 0.27016 0.0
H2960 H 0.26865 0.75865 0.23615 0.0
C2961 C 0.24636 0.65784 0.22348 0.0
C2962 C 0.25463 0.63868 0.22945 0.0
C2963 C 0.27751 0.64312 0.23692 0.0
C2964 C 0.29183 0.66705 0.24006 0.0
C2965 C 0.28292 0.68592 0.23515 0.0
C2966 C 0.26084 0.68144 0.22631 0.0
C2967 C 0.25492 0.70518 0.2244 0.0
C2968 C 0.24882 0.70576 0.19808 0.0
C2969 C 0.23612 0.70891 0.23957 0.0
C2970 C 0.2768 0.7239 0.23481 0.0
C2971 C 0.2927 0.71238 0.24091 0.0
C2972 C 0.31315 0.72574 0.25382 0.0
C2973 C 0.31778 0.75153 0.25984 0.0
C2974 C 0.30212 0.76366 0.25294 0.0
C2975 C 0.28124 0.7497 0.2406 0.0
H2976 H 0.52814 0.7088 0.5005 0.0
H2977 H 0.59575 0.73536 0.48448 0.0
H2978 H 0.60489 0.69911 0.49582 0.0
H2979 H 0.5444 0.68607 0.55376 0.0
H2980 H 0.52038 0.65964 0.54848 0.0
H2981 H 0.51865 0.68735 0.53861 0.0
H2982 H 0.50529 0.66198 0.49538 0.0
H2983 H 0.50692 0.63422 0.50517 0.0
H2984 H 0.52187 0.64325 0.48095 0.0
H2985 H 0.60527 0.65607 0.50365 0.0
H2986 H 0.59844 0.61481 0.51373 0.0
H2987 H 0.53368 0.61836 0.53217 0.0
C2988 C 0.54491 0.70708 0.49949 0.0
C2989 C 0.56117 0.72538 0.49134 0.0
C2990 C 0.5829 0.72206 0.49063 0.0
C2991 C 0.58828 0.70129 0.49698 0.0
C2992 C 0.57201 0.68369 0.50481 0.0
C2993 C 0.55085 0.68662 0.50662 0.0
C2994 C 0.53682 0.6653 0.51655 0.0
C2995 C 0.52963 0.67519 0.54079 0.0
C2996 C 0.51652 0.6503 0.49843 0.0
C2997 C 0.55322 0.64986 0.51965 0.0
C2998 C 0.57331 0.66064 0.51236 0.0
C2999 C 0.5901 0.64842 0.51088 0.0
C3000 C 0.58652 0.62514 0.51748 0.0
C3001 C 0.56688 0.61426 0.52675 0.0
C3002 C 0.54975 0.62682 0.52711 0.0
H3003 H 0.67156 0.32328 0.70485 0.0
H3004 H 0.69851 0.35076 0.64406 0.0
H3005 H 0.73574 0.34867 0.65924 0.0
H3006 H 0.72093 0.35593 0.74903 0.0
H3007 H 0.71816 0.33067 0.76438 0.0
H3008 H 0.69381 0.33557 0.74957 0.0
H3009 H 0.6835 0.29062 0.72492 0.0
H3010 H 0.70787 0.28564 0.73953 0.0
H3011 H 0.70349 0.28028 0.70728 0.0
H3012 H 0.76996 0.34102 0.67966 0.0
H3013 H 0.79859 0.3311 0.70465 0.0
H3014 H 0.7506 0.30892 0.75319 0.0
C3015 C 0.68533 0.32931 0.69488 0.0
C3016 C 0.68179 0.3374 0.67312 0.0
C3017 C 0.70048 0.34472 0.66074 0.0
C3018 C 0.7218 0.34349 0.66924 0.0
C3019 C 0.72454 0.335 0.69037 0.0
C3020 C 0.70686 0.32831 0.70322 0.0
C3021 C 0.71434 0.31943 0.72524 0.0
C3022 C 0.71164 0.33641 0.74843 0.0
C3023 C 0.70153 0.29239 0.72417 0.0
C3024 C 0.73889 0.32183 0.7226 0.0
C3025 C 0.74434 0.33081 0.70228 0.0
C3026 C 0.76577 0.33403 0.69559 0.0
C3027 C 0.78198 0.32804 0.70986 0.0
C3028 C 0.77708 0.31884 0.73088 0.0
C3029 C 0.7551 0.31594 0.73735 0.0
H3030 H 0.03818 0.36288 1.00622 0.0
H3031 H 0.03885 0.35429 0.92937 0.0
H3032 H 0.04469 0.39936 0.93331 0.0
H3033 H 0.01139 0.41081 0.01586 0.0
H3034 H 0.02843 0.4292 0.04305 0.0
H3035 H 0.02452 0.3962 0.03569 0.0
H3036 H 0.06645 0.40077 0.03728 0.0
H3037 H 0.07135 0.43378 0.04647 0.0
H3038 H 0.08308 0.42106 0.02071 0.0
H3039 H 0.04913 0.44616 0.94557 0.0
H3040 H 0.058 0.49049 0.96562 0.0
H3041 H 0.05805 0.46993 0.03478 0.0
C3042 C 0.03967 0.37051 0.99024 0.0
C3043 C 0.03793 0.35475 0.96739 0.0
C3044 C 0.04021 0.36575 0.94706 0.0
C3045 C 0.04338 0.39144 0.94911 0.0
C3046 C 0.0448 0.40641 0.97177 0.0
C3047 C 0.04364 0.39642 0.99208 0.0
C3048 C 0.04722 0.41689 0.01445 0.0
C3049 C 0.02667 0.41308 0.02809 0.0
C3050 C 0.06828 0.4182 0.03069 0.0
C3051 C 0.05026 0.43983 1.00358 0.0
C3052 C 0.04844 0.43334 0.97888 0.0
C3053 C 0.05064 0.45136 0.96492 0.0
C3054 C 0.05549 0.47657 0.97644 0.0
C3055 C 0.05831 0.48381 1.00177 0.0
C3056 C 0.05557 0.46501 0.01538 0.0
H3057 H 0.05105 0.80021 0.19311 0.0
H3058 H 0.03879 0.85149 0.15002 0.0
H3059 H 1.00575 0.85474 0.17066 0.0
H3060 H 0.99345 0.76818 0.19413 0.0
H3061 H 0.99773 0.76465 0.22462 0.0
H3062 H 0.02014 0.7662 0.20622 0.0
H3063 H 0.04527 0.80292 0.23806 0.0
H3064 H 0.02296 0.80144 0.25657 0.0
H3065 H 0.03573 0.82999 0.24778 0.0
H3066 H 0.97381 0.85258 0.1969 0.0
H3067 H 0.94718 0.84629 0.2268 0.0
H3068 H 0.98023 0.79583 0.25193 0.0
C3069 C 0.04145 0.81214 0.18795 0.0
C3070 C 0.04762 0.82561 0.16987 0.0
C3071 C 0.03449 0.84098 0.16378 0.0
C3072 C 0.01563 0.84291 0.1754 0.0
C3073 C 1.01001 0.82933 0.1931 0.0
C3074 C 0.0226 0.81426 0.19934 0.0
C3075 C 0.01327 0.80182 0.21914 0.0
C3076 C 1.00569 0.77354 0.2105 0.0
C3077 C 0.03032 0.80951 0.24172 0.0
C3078 C 0.99355 0.81235 0.22325 0.0
C3079 C 0.99183 0.82809 0.20802 0.0
C3080 C 0.97501 0.84019 0.20882 0.0
C3081 C 0.95981 0.83635 0.22579 0.0
C3082 C 0.96148 0.8206 0.2419 0.0
C3083 C 0.97852 0.80827 0.2402 0.0
H3084 H 0.52666 0.32459 0.13719 0.0
H3085 H 0.48255 0.2605 0.08897 0.0
H3086 H 0.4819 0.28505 0.05762 0.0
H3087 H 0.5047 0.37302 0.11587 0.0
H3088 H 0.53217 0.39383 0.11855 0.0
H3089 H 0.52604 0.37258 0.13844 0.0
H3090 H 0.55893 0.35523 0.12567 0.0
H3091 H 0.56506 0.37628 0.10569 0.0
H3092 H 0.55991 0.34349 0.09433 0.0
H3093 H 0.48873 0.31529 0.03057 0.0
H3094 H 0.50365 0.34833 1.009 0.0
H3095 H 0.54566 0.39193 0.07399 0.0
C3096 C 0.51627 0.31612 0.12029 0.0
C3097 C 0.50412 0.29099 0.11551 0.0
C3098 C 0.49152 0.27994 0.09295 0.0
C3099 C 0.49107 0.29373 0.07511 0.0
C3100 C 0.50358 0.31843 0.08012 0.0
C3101 C 0.51599 0.32954 0.10215 0.0
C3102 C 0.52994 0.35541 0.10199 0.0
C3103 C 0.52278 0.37486 0.11977 0.0
C3104 C 0.55493 0.35772 0.10722 0.0
C3105 C 0.52386 0.35687 0.0763 0.0
C3106 C 0.50834 0.33553 0.06414 0.0
C3107 C 0.50081 0.33215 0.03994 0.0
C3108 C 0.50956 0.35095 0.02778 0.0
C3109 C 0.52595 0.37276 0.03969 0.0
C3110 C 0.5329 0.37575 0.06439 0.0
H3111 H 0.04458 0.27717 0.33082 0.0
H3112 H 0.02766 0.28499 0.40368 0.0
H3113 H 0.9904 0.28734 0.38958 0.0
H3114 H 0.02385 0.32078 0.31636 0.0
H3115 H 0.01267 0.30622 0.28572 0.0
H3116 H 0.03524 0.2977 0.29972 0.0
H3117 H 0.01221 0.25171 0.29028 0.0
H3118 H 0.98956 0.26009 0.27586 0.0
H3119 H 0.98483 0.24342 0.29971 0.0
H3120 H 0.95962 0.29901 0.37011 0.0
H3121 H 0.93741 0.31827 0.34662 0.0
H3122 H 0.97264 0.30152 0.28541 0.0
C3123 C 0.03263 0.27817 0.34358 0.0
C3124 C 0.03893 0.28077 0.36829 0.0
C3125 C 0.02314 0.2829 0.38464 0.0
C3126 C 1.00186 0.28409 0.37677 0.0
C3127 C 0.99652 0.28288 0.35246 0.0
C3128 C 0.01131 0.27955 0.33598 0.0
C3129 C 1.00281 0.28269 0.31162 0.0
C3130 C 0.01964 0.30306 0.30287 0.0
C3131 C 0.99701 0.258 0.29329 0.0
C3132 C 0.98199 0.29033 0.31754 0.0
C3133 C 0.97831 0.2896 0.34099 0.0
C3134 C 0.96184 0.29887 0.35148 0.0
C3135 C 0.94923 0.30977 0.33791 0.0
C3136 C 0.95318 0.31143 0.31406 0.0
C3137 C 0.96924 0.30067 0.30359 0.0
H3138 H 0.99586 0.68336 0.60418 0.0
H3139 H 0.01058 0.67392 0.67652 0.0
H3140 H 0.03804 0.65181 0.66285 0.0
H3141 H 0.99671 0.62375 0.57576 0.0
H3142 H 1.0092 0.63273 0.5502 0.0
H3143 H 0.9928 0.65074 0.56589 0.0
H3144 H 0.02574 0.69003 0.57235 0.0
H3145 H 0.04277 0.67258 0.55693 0.0
H3146 H 0.05228 0.69033 0.58694 0.0
H3147 H 0.06199 0.62818 0.64091 0.0
H3148 H 0.07864 0.60253 0.61191 0.0
H3149 H 0.0472 0.62589 0.55371 0.0
C3150 C 1.00508 0.67686 0.61713 0.0
C3151 C 1.0011 0.68034 0.64134 0.0
C3152 C 0.01323 0.6713 0.65779 0.0
C3153 C 0.02902 0.6589 0.65026 0.0
C3154 C 0.03236 0.65545 0.62618 0.0
C3155 C 0.02063 0.66401 0.60982 0.0
C3156 C 0.02596 0.656 0.58465 0.0
C3157 C 1.00491 0.63986 0.56817 0.0
C3158 C 0.03736 0.67857 0.57462 0.0
C3159 C 0.042 0.64103 0.58933 0.0
C3160 C 0.04581 0.64134 0.61344 0.0
C3161 C 0.05925 0.62793 0.62196 0.0
C3162 C 0.06863 0.61337 0.60531 0.0
C3163 C 0.06432 0.61211 0.58038 0.0
C3164 C 0.05113 0.62656 0.57251 0.0
H3165 H 0.6991 0.8217 0.87335 0.0
H3166 H 0.66567 0.84816 0.81887 0.0
H3167 H 0.69966 0.85572 0.79891 0.0
H3168 H 0.75595 0.86505 0.87315 0.0
H3169 H 0.76983 0.84188 0.87758 0.0
H3170 H 0.74414 0.84226 0.89003 0.0
H3171 H 0.72816 0.79712 0.86895 0.0
H3172 H 0.75241 0.79585 0.85397 0.0
H3173 H 0.72548 0.78871 0.83686 0.0
H3174 H 0.73709 0.86062 0.78462 0.0
H3175 H 0.7736 0.8559 0.77334 0.0
H3176 H 0.78127 0.82191 0.83396 0.0
C3177 C 0.69908 0.82944 0.85745 0.0
C3178 C 0.67968 0.83433 0.84772 0.0
C3179 C 0.68024 0.84413 0.82664 0.0
C3180 C 0.69955 0.84874 0.81526 0.0
C3181 C 0.71827 0.84347 0.82509 0.0
C3182 C 0.71826 0.83398 0.84567 0.0
C3183 C 0.74012 0.82804 0.85122 0.0
C3184 C 0.75329 0.84534 0.87437 0.0
C3185 C 0.73636 0.8008 0.85285 0.0
C3186 C 0.75149 0.83378 0.82951 0.0
C3187 C 0.73912 0.84396 0.81542 0.0
C3188 C 0.74679 0.85229 0.79526 0.0
C3189 C 0.76743 0.84952 0.78896 0.0
C3190 C 0.77951 0.83745 0.80209 0.0
C3191 C 0.77172 0.83006 0.82295 0.0
H3192 H 0.46824 0.57267 0.69431 0.0
H3193 H 0.52143 0.56789 0.74427 0.0
H3194 H 0.5448 0.56446 0.71141 0.0
H3195 H 0.47808 0.52818 0.64352 0.0
H3196 H 0.47209 0.54448 0.62085 0.0
H3197 H 0.45927 0.54738 0.6482 0.0
H3198 H 0.47479 0.59485 0.65612 0.0
H3199 H 0.48761 0.59206 0.62876 0.0
H3200 H 0.50426 0.60827 0.65679 0.0
H3201 H 0.56374 0.56129 0.67207 0.0
H3202 H 0.57541 0.55824 0.6315 0.0
H3203 H 0.5112 0.56385 0.60379 0.0
C3204 C 0.48488 0.57113 0.69853 0.0
C3205 C 0.49255 0.57087 0.72295 0.0
C3206 C 0.51457 0.56835 0.72653 0.0
C3207 C 0.5282 0.56634 0.70763 0.0
C3208 C 0.52019 0.56652 0.68415 0.0
C3209 C 0.49892 0.5688 0.67944 0.0
C3210 C 0.49445 0.56795 0.65221 0.0
C3211 C 0.47479 0.54568 0.6405 0.0
C3212 C 0.49 0.59223 0.64823 0.0
C3213 C 0.51637 0.56494 0.64243 0.0
C3214 C 0.53096 0.5643 0.66141 0.0
C3215 C 0.55227 0.56192 0.65732 0.0
C3216 C 0.55895 0.56037 0.63386 0.0
C3217 C 0.5448 0.56103 0.61359 0.0
C3218 C 0.52284 0.56313 0.61833 0.0
H3219 H 0.78304 0.16109 0.95161 0.0
H3220 H 0.76265 0.21418 1.00394 0.0
H3221 H 0.75964 0.23889 0.97358 0.0
H3222 H 0.81572 0.2053 0.92118 0.0
H3223 H 0.80707 0.18566 0.89177 0.0
H3224 H 0.80815 0.17212 0.91773 0.0
H3225 H 0.76675 0.14722 0.9061 0.0
H3226 H 0.76558 0.16068 0.88011 0.0
H3227 H 0.74605 0.16338 0.9016 0.0
H3228 H 0.75901 0.25813 0.93816 0.0
H3229 H 0.75914 0.26973 0.89864 0.0
H3230 H 0.77916 0.20409 0.8688 0.0
C3231 C 0.77801 0.17794 0.95665 0.0
C3232 C 0.77312 0.18573 0.98014 0.0
C3233 C 0.76643 0.2078 0.98604 0.0
C3234 C 0.76473 0.22204 0.96895 0.0
C3235 C 0.76964 0.21391 0.946 0.0
C3236 C 0.77602 0.19234 0.93972 0.0
C3237 C 0.77981 0.18759 0.91355 0.0
C3238 C 0.80414 0.18768 0.91091 0.0
C3239 C 0.76357 0.16327 0.89952 0.0
C3240 C 0.77454 0.20984 0.90623 0.0
C3241 C 0.76887 0.22485 0.92529 0.0
C3242 C 0.76343 0.24656 0.92306 0.0
C3243 C 0.76365 0.25306 0.90063 0.0
C3244 C 0.76914 0.2378 0.88077 0.0
C3245 C 0.77471 0.21596 0.88368 0.0
H3246 H 0.1554 0.53053 0.16749 0.0
H3247 H 0.13517 0.58665 0.2162 0.0
H3248 H 0.10394 0.58362 0.18635 0.0
H3249 H 0.14751 0.55166 0.1173 0.0
H3250 H 0.13696 0.52198 0.09713 0.0
H3251 H 0.15485 0.52486 0.12396 0.0
H3252 H 0.12482 0.49062 0.1368 0.0
H3253 H 0.10677 0.48771 0.10988 0.0
H3254 H 0.09706 0.49396 0.13878 0.0
H3255 H 0.08031 0.58127 0.14849 0.0
H3256 H 0.06579 0.57811 0.10629 0.0
H3257 H 0.09899 0.5212 0.08355 0.0
C3258 C 0.14397 0.54157 0.17218 0.0
C3259 C 0.1478 0.55881 0.19415 0.0
C3260 C 0.13261 0.5732 0.19949 0.0
C3261 C 0.1147 0.57157 0.18268 0.0
C3262 C 0.11186 0.55507 0.1608 0.0
C3263 C 0.12585 0.53997 0.15569 0.0
C3264 C 0.1207 0.52576 0.13001 0.0
C3265 C 0.14122 0.53143 0.11632 0.0
C3266 C 0.11181 0.49785 0.12881 0.0
C3267 C 0.10264 0.53634 0.12116 0.0
C3268 C 0.09749 0.553 0.13917 0.0
C3269 C 0.08362 0.56767 0.13435 0.0
C3270 C 0.07541 0.56577 0.11038 0.0
C3271 C 0.08129 0.54943 0.09177 0.0
C3272 C 0.09413 0.53377 0.09747 0.0
H3273 H 0.82842 0.8826 0.46761 0.0
H3274 H 0.84232 0.81575 0.48201 0.0
H3275 H 0.83847 0.7986 0.43839 0.0
H3276 H 0.78839 0.85476 0.41509 0.0
H3277 H 0.79861 0.87933 0.39958 0.0
H3278 H 0.80147 0.88573 0.43186 0.0
H3279 H 0.84405 0.90399 0.43299 0.0
H3280 H 0.84131 0.89749 0.40071 0.0
H3281 H 0.86005 0.8854 0.41717 0.0
H3282 H 0.83219 0.78836 0.39251 0.0
H3283 H 0.82579 0.78705 0.34894 0.0
H3284 H 0.81889 0.86173 0.36472 0.0
C3285 C 0.83032 0.8642 0.46158 0.0
C3286 C 0.83533 0.85035 0.47827 0.0
C3287 C 0.8383 0.82662 0.4696 0.0
C3288 C 0.83617 0.81673 0.44483 0.0
C3289 C 0.83143 0.83094 0.42883 0.0
C3290 C 0.82873 0.85427 0.43689 0.0
C3291 C 0.82472 0.86622 0.41603 0.0
C3292 C 0.80194 0.87183 0.41562 0.0
C3293 C 0.84366 0.88967 0.41678 0.0
C3294 C 0.82513 0.84584 0.395 0.0
C3295 C 0.82897 0.82559 0.40268 0.0
C3296 C 0.82944 0.80427 0.38637 0.0
C3297 C 0.82593 0.80372 0.36164 0.0
C3298 C 0.82254 0.82455 0.35344 0.0
C3299 C 0.82192 0.84571 0.37046 0.0
H3300 H 0.48588 0.56542 0.88576 0.0
H3301 H 0.53047 0.53454 0.84267 0.0
H3302 H 0.5504 0.52928 0.87938 0.0
H3303 H 0.526 0.59765 0.93865 0.0
H3304 H 0.50673 0.59001 0.95995 0.0
H3305 H 0.49657 0.59245 0.9305 0.0
H3306 H 0.4705 0.54812 0.92371 0.0
H3307 H 0.48062 0.5456 0.95314 0.0
H3308 H 0.48206 0.52294 0.9272 0.0
H3309 H 0.56773 0.52939 0.92345 0.0
H3310 H 0.57699 0.53136 0.96682 0.0
H3311 H 0.51902 0.55716 0.98175 0.0
C3312 C 0.49995 0.55772 0.88395 0.0
C3313 C 0.50649 0.5508 0.86053 0.0
C3314 C 0.52485 0.54028 0.85978 0.0
C3315 C 0.53644 0.5372 0.88085 0.0
C3316 C 0.52961 0.54411 0.90342 0.0
C3317 C 0.51149 0.55387 0.905 0.0
C3318 C 0.50685 0.55869 0.93136 0.0
C3319 C 0.50917 0.58634 0.94066 0.0
C3320 C 0.48362 0.5429 0.934 0.0
C3321 C 0.52515 0.55047 0.94436 0.0
C3322 C 0.53834 0.54238 0.92797 0.0
C3323 C 0.55698 0.53518 0.93608 0.0
C3324 C 0.56207 0.53601 0.96103 0.0
C3325 C 0.54836 0.54314 0.97835 0.0
C3326 C 0.52972 0.55076 0.96939 0.0
H3327 H 0.80163 0.16583 0.12376 0.0
H3328 H 0.82964 0.21587 0.07833 0.0
H3329 H 0.83551 0.25141 0.11237 0.0
H3330 H 0.77079 0.2028 0.152 0.0
H3331 H 0.77439 0.19552 0.1811 0.0
H3332 H 0.7755 0.17349 0.15457 0.0
H3333 H 0.81497 0.17219 0.17075 0.0
H3334 H 0.81299 0.19315 0.19771 0.0
H3335 H 0.83643 0.20085 0.18112 0.0
H3336 H 0.8345 0.28155 0.14983 0.0
H3337 H 0.83041 0.30413 0.18972 0.0
H3338 H 0.80167 0.23425 0.20996 0.0
C3339 C 0.8098 0.18417 0.12127 0.0
C3340 C 0.81552 0.18819 0.09863 0.0
C3341 C 0.82539 0.21251 0.0957 0.0
C3342 C 0.82868 0.23276 0.11485 0.0
C3343 C 0.82186 0.2283 0.13668 0.0
C3344 C 0.81286 0.20461 0.14008 0.0
C3345 C 0.80527 0.205 0.16469 0.0
C3346 C 0.77999 0.19353 0.16296 0.0
C3347 C 0.81822 0.19204 0.17943 0.0
C3348 C 0.81144 0.23258 0.17456 0.0
C3349 C 0.82094 0.2457 0.15814 0.0
C3350 C 0.82746 0.27146 0.16301 0.0
C3351 C 0.82503 0.28411 0.1857 0.0
C3352 C 0.81644 0.27094 0.20325 0.0
C3353 C 0.80882 0.24488 0.19719 0.0
H3354 H 0.16766 0.57513 0.32069 0.0
H3355 H 0.17925 0.6508 0.31146 0.0
H3356 H 0.15384 0.65842 0.34146 0.0
H3357 H 0.11148 0.5643 0.3224 0.0
H3358 H 0.10927 0.54539 0.34456 0.0
H3359 H 0.13137 0.54686 0.32583 0.0
H3360 H 0.16085 0.56093 0.36329 0.0
H3361 H 0.1388 0.55893 0.38221 0.0
H3362 H 0.16056 0.58737 0.38595 0.0
H3363 H 0.12366 0.65621 0.36843 0.0
H3364 H 0.09326 0.64514 0.39341 0.0
H3365 H 0.10041 0.57046 0.38304 0.0
C3366 C 0.16552 0.59355 0.32571 0.0
C3367 C 0.17549 0.61244 0.31402 0.0
C3368 C 0.1718 0.63613 0.32041 0.0
C3369 C 0.15739 0.64063 0.33736 0.0
C3370 C 0.14687 0.62122 0.34769 0.0
C3371 C 0.15099 0.59825 0.34237 0.0
C3372 C 0.1361 0.57992 0.35429 0.0
C3373 C 0.12118 0.55783 0.33565 0.0
C3374 C 0.1499 0.57129 0.37252 0.0
C3375 C 0.12265 0.59602 0.36663 0.0
C3376 C 0.12917 0.61981 0.3628 0.0
C3377 C 0.11857 0.6377 0.37182 0.0
C3378 C 0.10118 0.6312 0.3857 0.0
C3379 C 0.09464 0.60703 0.39022 0.0
C3380 C 0.10533 0.58922 0.3802 0.0
H3381 H 0.83911 0.89392 0.64262 0.0
H3382 H 0.82083 0.82391 0.59124 0.0
H3383 H 0.81602 0.80165 0.62467 0.0
H3384 H 0.87136 0.87404 0.6858 0.0
H3385 H 0.86335 0.8922 0.71123 0.0
H3386 H 0.86437 0.90225 0.68322 0.0
H3387 H 0.82328 0.90373 0.68352 0.0
H3388 H 0.82225 0.89354 0.71151 0.0
H3389 H 0.80223 0.87645 0.68606 0.0
H3390 H 0.81216 0.7871 0.66432 0.0
H3391 H 0.81218 0.7815 0.70619 0.0
H3392 H 0.83522 0.86101 0.73171 0.0
C3393 C 0.83388 0.87389 0.63833 0.0
C3394 C 0.83008 0.86068 0.61416 0.0
C3395 C 0.82375 0.83447 0.6095 0.0
C3396 C 0.82095 0.82167 0.62842 0.0
C3397 C 0.82488 0.83529 0.65202 0.0
C3398 C 0.83143 0.86085 0.657 0.0
C3399 C 0.83561 0.87116 0.68388 0.0
C3400 C 0.86013 0.88577 0.69147 0.0
C3401 C 0.8199 0.88716 0.69169 0.0
C3402 C 0.83008 0.84747 0.69336 0.0
C3403 C 0.82376 0.82696 0.67468 0.0
C3404 C 0.81723 0.80307 0.67901 0.0
C3405 C 0.81721 0.80007 0.7029 0.0
C3406 C 0.82394 0.82078 0.72236 0.0
C3407 C 0.83048 0.84477 0.71736 0.0
H3408 H 0.81007 0.52501 0.53451 0.0
H3409 H 0.7716 0.45007 0.53343 0.0
H3410 H 0.73725 0.464 0.53527 0.0
H3411 H 0.78313 0.55616 0.57446 0.0
H3412 H 0.78329 0.58131 0.55952 0.0
H3413 H 0.80443 0.56516 0.55559 0.0
H3414 H 0.79409 0.55524 0.5095 0.0
H3415 H 0.7731 0.57172 0.51325 0.0
H3416 H 0.76566 0.54007 0.49688 0.0
H3417 H 0.70926 0.48767 0.54535 0.0
H3418 H 0.68791 0.51747 0.55621 0.0
H3419 H 0.74292 0.57613 0.54333 0.0
C3420 C 0.79429 0.51149 0.53404 0.0
C3421 C 0.79331 0.48653 0.53386 0.0
C3422 C 0.77252 0.46924 0.53335 0.0
C3423 C 0.753 0.47701 0.53447 0.0
C3424 C 0.75457 0.50193 0.5353 0.0
C3425 C 0.77456 0.51877 0.53432 0.0
C3426 C 0.77174 0.54454 0.5359 0.0
C3427 C 0.78652 0.56286 0.55766 0.0
C3428 C 0.77642 0.55341 0.51248 0.0
C3429 C 0.7473 0.53978 0.5392 0.0
C3430 C 0.73776 0.51514 0.53894 0.0
C3431 C 0.71623 0.50685 0.54458 0.0
C3432 C 0.70408 0.52416 0.55054 0.0
C3433 C 0.71317 0.5496 0.55025 0.0
C3434 C 0.73509 0.55715 0.54403 0.0
H3435 H 0.2268 0.16642 0.52679 0.0
H3436 H 0.25408 0.11888 0.47612 0.0
H3437 H 0.21931 0.08509 0.47205 0.0
H3438 H 0.20334 0.12049 0.55765 0.0
H3439 H 0.17916 0.13122 0.56383 0.0
H3440 H 0.20456 0.15271 0.55995 0.0
H3441 H 0.18354 0.16586 0.52621 0.0
H3442 H 0.15802 0.14451 0.53016 0.0
H3443 H 0.1677 0.14261 0.50104 0.0
H3444 H 0.18131 0.05586 0.47462 0.0
H3445 H 0.14541 0.03345 0.48584 0.0
H3446 H 0.14575 0.09904 0.53832 0.0
C3447 C 0.22516 0.14914 0.51428 0.0
C3448 C 0.2429 0.14543 0.5013 0.0
C3449 C 0.24052 0.1222 0.48591 0.0
C3450 C 0.22084 0.10292 0.4835 0.0
C3451 C 0.20381 0.10699 0.49696 0.0
C3452 C 0.20588 0.12952 0.51218 0.0
C3453 C 0.18623 0.12843 0.52652 0.0
C3454 C 0.19378 0.13351 0.55358 0.0
C3455 C 0.1731 0.14641 0.52062 0.0
C3456 C 0.17292 0.10176 0.51718 0.0
C3457 C 0.18301 0.08977 0.4998 0.0
C3458 C 0.1734 0.06508 0.48838 0.0
C3459 C 0.15303 0.05239 0.49498 0.0
C3460 C 0.14278 0.06415 0.51332 0.0
C3461 C 0.15302 0.08922 0.5244 0.0
H3462 H 0.24689 0.93779 0.73449 0.0
H3463 H 0.24073 0.9588 0.81006 0.0
H3464 H 0.25817 0.92656 0.81832 0.0
H3465 H 0.23339 0.87074 0.73323 0.0
H3466 H 0.25237 0.86437 0.71208 0.0
H3467 H 0.24061 0.89003 0.71175 0.0
H3468 H 0.28015 0.91944 0.71633 0.0
H3469 H 0.29205 0.89391 0.71702 0.0
H3470 H 0.29998 0.92077 0.74121 0.0
H3471 H 0.27709 0.89098 0.81929 0.0
H3472 H 0.291 0.85392 0.81225 0.0
H3473 H 0.2836 0.85093 0.73594 0.0
C3474 C 0.2493 0.93581 0.75286 0.0
C3475 C 0.24221 0.95193 0.77164 0.0
C3476 C 0.2457 0.94752 0.79514 0.0
C3477 C 0.25583 0.92898 0.80009 0.0
C3478 C 0.26255 0.91369 0.78147 0.0
C3479 C 0.25911 0.91659 0.75815 0.0
C3480 C 0.2668 0.89636 0.74142 0.0
C3481 C 0.24712 0.87937 0.72355 0.0
C3482 C 0.28587 0.90834 0.7282 0.0
C3483 C 0.27511 0.88184 0.75884 0.0
C3484 C 0.27273 0.89261 0.78192 0.0
C3485 C 0.27902 0.88276 0.80118 0.0
C3486 C 0.28728 0.86149 0.797 0.0
C3487 C 0.28988 0.84928 0.7737 0.0
C3488 C 0.28323 0.85993 0.75426 0.0
H3489 H 0.39677 0.02202 0.03243 0.0
H3490 H 0.37276 0.95752 0.97428 0.0
H3491 H 0.41121 0.95583 0.97014 0.0
H3492 H 0.44691 0.04958 1.00774 0.0
H3493 H 0.46559 0.05959 0.03532 0.0
H3494 H 0.43659 0.05881 0.03551 0.0
H3495 H 0.42906 0.02979 0.06446 0.0
H3496 H 0.45829 0.03168 0.06777 0.0
H3497 H 0.43804 1.00188 0.05946 0.0
H3498 H 0.45019 0.95457 0.97907 0.0
H3499 H 0.49003 0.96105 0.99323 0.0
H3500 H 0.48986 0.02901 0.04154 0.0
C3501 C 0.39968 1.00819 0.0182 0.0
C3502 C 0.38177 0.98986 1.00375 0.0
C3503 C 0.38623 0.97171 0.98563 0.0
C3504 C 0.40801 0.97052 0.98316 0.0
C3505 C 0.4252 0.98788 0.99862 0.0
C3506 C 0.42145 1.00684 0.01533 0.0
C3507 C 0.44294 0.02236 0.03045 0.0
C3508 C 0.44839 0.04919 0.02707 0.0
C3509 C 0.44201 0.02134 0.0571 0.0
C3510 C 0.45914 1.00889 0.01971 0.0
C3511 C 0.44843 0.98863 1.00188 0.0
C3512 C 0.45907 0.97097 0.99221 0.0
C3513 C 0.48153 0.97464 1.00042 0.0
C3514 C 0.4931 0.99617 0.0174 0.0
C3515 C 0.4817 1.01327 0.02739 0.0
H3516 H 0.91787 0.62148 0.72981 0.0
H3517 H 0.9156 0.63087 0.80643 0.0
H3518 H 0.89991 0.6665 0.8061 0.0
H3519 H 0.93078 0.69039 0.72905 0.0
H3520 H 0.91387 0.68451 0.70074 0.0
H3521 H 0.92879 0.66277 0.70703 0.0
H3522 H 0.8926 0.6273 0.69861 0.0
H3523 H 0.87723 0.64818 0.6916 0.0
H3524 H 0.86917 0.63076 0.71435 0.0
H3525 H 0.87515 0.69136 0.79523 0.0
H3526 H 0.84794 0.70781 0.77656 0.0
H3527 H 0.87197 0.68919 0.70753 0.0
C3528 C 0.91481 0.63171 0.74661 0.0
C3529 C 0.91782 0.62366 0.76815 0.0
C3530 C 0.91354 0.63707 0.78985 0.0
C3531 C 0.90468 0.65729 0.78978 0.0
C3532 C 0.90103 0.66423 0.76801 0.0
C3533 C 0.90664 0.65234 0.74692 0.0
C3534 C 0.8992 0.66188 0.72563 0.0
C3535 C 0.91935 0.67572 0.71497 0.0
C3536 C 0.88362 0.64077 0.70645 0.0
C3537 C 0.88685 0.67946 0.73773 0.0
C3538 C 0.88824 0.68065 0.76216 0.0
C3539 C 0.87481 0.69166 0.77634 0.0
C3540 C 0.8593 0.70125 0.76531 0.0
C3541 C 0.85755 0.70052 0.74019 0.0
C3542 C 0.87235 0.69022 0.72661 0.0
H3543 H 0.85054 0.6366 0.0591 0.0
H3544 H 0.8674 0.6747 1.00108 0.0
H3545 H 0.89839 0.65542 0.99484 0.0
H3546 H 0.90695 0.64173 0.08285 0.0
H3547 H 0.89988 0.61153 0.0901 0.0
H3548 H 0.87943 0.62877 0.09019 0.0
H3549 H 0.85229 0.59199 0.0601 0.0
H3550 H 0.87265 0.57467 0.05988 0.0
H3551 H 0.86123 0.57987 0.03214 0.0
H3552 H 0.92717 0.63094 0.9945 0.0
H3553 H 0.95099 0.6034 0.99986 0.0
H3554 H 0.91547 0.58212 0.05866 0.0
C3555 C 0.86077 0.64101 0.04512 0.0
C3556 C 0.85652 0.65721 0.03057 0.0
C3557 C 0.87033 0.66238 0.01246 0.0
C3558 C 0.88798 0.65151 1.0088 0.0
C3559 C 0.89164 0.63555 0.02342 0.0
C3560 C 0.87842 0.63036 0.04124 0.0
C3561 C 0.8856 0.61237 0.05434 0.0
C3562 C 0.89343 0.62432 0.08094 0.0
C3563 C 0.86683 0.5883 0.05143 0.0
C3564 C 0.90484 0.60805 0.04099 0.0
C3565 C 0.90813 0.62163 0.02327 0.0
C3566 C 0.9248 0.62036 1.00843 0.0
C3567 C 0.93836 0.60476 0.01173 0.0
C3568 C 0.93523 0.59055 0.02973 0.0
C3569 C 0.91824 0.59246 0.04456 0.0
H3570 H 0.22143 0.11751 0.80147 0.0
H3571 H 0.26795 0.07932 0.77063 0.0
H3572 H 0.29291 0.11937 0.7672 0.0
H3573 H 0.22914 0.16351 0.76479 0.0
H3574 H 0.22729 0.18843 0.78836 0.0
H3575 H 0.21315 0.15692 0.78905 0.0
H3576 H 0.23358 0.16221 0.8313 0.0
H3577 H 0.24767 0.19378 0.83076 0.0
H3578 H 0.26356 0.17262 0.83605 0.0
H3579 H 0.31283 0.1649 0.76513 0.0
H3580 H 0.32574 0.2098 0.76658 0.0
H3581 H 0.26781 0.21997 0.80047 0.0
C3582 C 0.23699 0.11745 0.79425 0.0
C3583 C 0.24241 0.0945 0.7865 0.0
C3584 C 0.26305 0.09603 0.77694 0.0
C3585 C 0.27746 0.11896 0.77481 0.0
C3586 C 0.2715 0.14098 0.78233 0.0
C3587 C 0.25176 0.14041 0.79206 0.0
C3588 C 0.24928 0.16682 0.79871 0.0
C3589 C 0.22847 0.16904 0.78438 0.0
C3590 C 0.24847 0.1743 0.82582 0.0
C3591 C 0.27056 0.1823 0.79122 0.0
C3592 C 0.28311 0.16697 0.78167 0.0
C3593 C 0.30312 0.1769 0.7729 0.0
C3594 C 0.31051 0.20278 0.77397 0.0
C3595 C 0.29831 0.21928 0.78399 0.0
C3596 C 0.2779 0.20842 0.7927 0.0
H3597 H 0.43575 0.98711 0.27437 0.0
H3598 H 0.38802 0.02779 0.26123 0.0
H3599 H 0.3577 0.98846 0.25182 0.0
H3600 H 0.40833 0.93201 0.22537 0.0
H3601 H 0.41655 0.91165 0.24261 0.0
H3602 H 0.43373 0.94281 0.24571 0.0
H3603 H 0.43215 0.94772 0.29053 0.0
H3604 H 0.41197 0.91858 0.28906 0.0
H3605 H 0.40641 0.94724 0.30269 0.0
H3606 H 0.33256 0.94436 0.24601 0.0
H3607 H 0.31526 0.89932 0.24204 0.0
H3608 H 0.38021 0.88879 0.2589 0.0
C3609 C 0.41893 0.98766 0.26922 0.0
C3610 C 0.414 1.01027 0.26867 0.0
C3611 C 0.39196 1.01047 0.26166 0.0
C3612 C 0.37473 0.9883 0.25636 0.0
C3613 C 0.38009 0.96626 0.25762 0.0
C3614 C 0.40179 0.96579 0.2633 0.0
C3615 C 0.4034 0.93989 0.2634 0.0
C3616 C 0.41626 0.93108 0.24305 0.0
C3617 C 0.41405 0.9382 0.28786 0.0
C3618 C 0.37903 0.92597 0.25842 0.0
C3619 C 0.36581 0.9413 0.25463 0.0
C3620 C 0.34276 0.93223 0.24899 0.0
C3621 C 0.33307 0.90678 0.24691 0.0
C3622 C 0.34642 0.89105 0.25098 0.0
C3623 C 0.36964 0.90071 0.2565 0.0
H3624 H 0.62415 0.40156 0.57382 0.0
H3625 H 0.5845 0.39336 0.63277 0.0
H3626 H 0.57219 0.42997 0.62779 0.0
H3627 H 0.6417 0.46883 0.587 0.0
H3628 H 0.6396 0.47193 0.55619 0.0
H3629 H 0.64526 0.44464 0.56365 0.0
H3630 H 0.61116 0.41731 0.53421 0.0
H3631 H 0.60523 0.44452 0.52681 0.0
H3632 H 0.58418 0.42251 0.53756 0.0
H3633 H 0.56517 0.4693 0.61823 0.0
H3634 H 0.56361 0.50731 0.60436 0.0
H3635 H 0.60605 0.49166 0.55003 0.0
C3636 C 0.61279 0.40736 0.58564 0.0
C3637 C 0.60543 0.39395 0.60386 0.0
C3638 C 0.59056 0.40272 0.61871 0.0
C3639 C 0.58338 0.42374 0.61599 0.0
C3640 C 0.59089 0.43641 0.5981 0.0
C3641 C 0.60521 0.42855 0.58303 0.0
C3642 C 0.61068 0.44596 0.56533 0.0
C3643 C 0.6358 0.45858 0.56821 0.0
C3644 C 0.60233 0.43172 0.53944 0.0
C3645 C 0.59754 0.46492 0.57308 0.0
C3646 C 0.58623 0.45885 0.59204 0.0
C3647 C 0.57369 0.47384 0.60312 0.0
C3648 C 0.57277 0.4955 0.59498 0.0
C3649 C 0.58375 0.50234 0.57533 0.0
C3650 C 0.59653 0.48665 0.56435 0.0
H3651 H 0.48363 0.83027 0.35953 0.0
H3652 H 0.44954 0.76133 0.3783 0.0
H3653 H 0.41503 0.76125 0.35469 0.0
H3654 H 0.4373 0.8575 0.36231 0.0
H3655 H 0.44312 0.87186 0.33705 0.0
H3656 H 0.46545 0.86654 0.35507 0.0
H3657 H 0.47649 0.84194 0.31722 0.0
H3658 H 0.45423 0.84725 0.29908 0.0
H3659 H 0.45588 0.81612 0.29848 0.0
H3660 H 0.38383 0.76836 0.3289 0.0
H3661 H 0.35842 0.78229 0.30318 0.0
H3662 H 0.4115 0.84706 0.30074 0.0
C3663 C 0.46894 0.8151 0.35861 0.0
C3664 C 0.46954 0.7957 0.37089 0.0
C3665 C 0.44975 0.77636 0.36917 0.0
C3666 C 0.42996 0.77616 0.35574 0.0
C3667 C 0.42992 0.79549 0.34398 0.0
C3668 C 0.44888 0.81465 0.34526 0.0
C3669 C 0.44414 0.83321 0.33094 0.0
C3670 C 0.44772 0.8588 0.34733 0.0
C3671 C 0.45854 0.83472 0.3102 0.0
C3672 C 0.41958 0.82157 0.32152 0.0
C3673 C 0.41181 0.79972 0.32922 0.0
C3674 C 0.38983 0.78537 0.32273 0.0
C3675 C 0.37549 0.79335 0.30791 0.0
C3676 C 0.3829 0.81556 0.29963 0.0
C3677 C 0.40528 0.82999 0.30679 0.0
H3678 H 0.09311 0.74654 0.04714 0.0
H3679 H 0.10773 0.74789 0.12275 0.0
H3680 H 0.10598 0.7038 0.11334 0.0
H3681 H 0.0533 0.68662 0.03362 0.0
H3682 H 0.06138 0.67657 1.00456 0.0
H3683 H 0.06552 0.70907 0.01653 0.0
H3684 H 0.10731 0.71708 0.0111 0.0
H3685 H 0.10339 0.68452 0.99941 0.0
H3686 H 0.12381 0.70048 0.02483 0.0
H3687 H 0.10107 0.65851 0.09676 0.0
H3688 H 0.09137 0.61527 0.07372 0.0
H3689 H 0.07901 0.64065 1.00858 0.0
C3690 C 0.09621 0.73763 0.06164 0.0
C3691 C 0.10056 0.75122 0.08585 0.0
C3692 C 0.10419 0.73832 0.10412 0.0
C3693 C 0.10336 0.71307 0.09897 0.0
C3694 C 0.09875 0.70016 0.07525 0.0
C3695 C 0.09514 0.71186 0.05679 0.0
C3696 C 0.08929 0.69285 0.03302 0.0
C3697 C 0.06599 0.69119 0.02124 0.0
C3698 C 0.107 0.69912 0.01608 0.0
C3699 C 0.08978 0.66891 0.04119 0.0
C3700 C 0.09564 0.67371 0.06564 0.0
C3701 C 0.09667 0.65462 0.07754 0.0
C3702 C 0.09128 0.63002 0.06427 0.0
C3703 C 0.085 0.6244 0.03919 0.0
C3704 C 0.08428 0.64431 0.02764 0.0
H3705 H 0.09577 0.30571 0.88722 0.0
H3706 H 0.0797 0.22585 0.86429 0.0
H3707 H 0.11286 0.23005 0.84269 0.0
H3708 H 0.11437 0.31893 0.83139 0.0
H3709 H 0.13629 0.34613 0.84542 0.0
H3710 H 0.11175 0.33694 0.85996 0.0
H3711 H 0.13636 0.33612 0.89789 0.0
H3712 H 0.16098 0.34526 0.88343 0.0
H3713 H 0.15576 0.31749 0.89528 0.0
H3714 H 0.14822 0.24267 0.82409 0.0
H3715 H 0.18161 0.26311 0.80711 0.0
H3716 H 0.17411 0.33486 0.84012 0.0
C3717 C 0.0993 0.28913 0.87772 0.0
C3718 C 0.08513 0.26542 0.87756 0.0
C3719 C 0.09022 0.2442 0.86467 0.0
C3720 C 0.1091 0.24639 0.85239 0.0
C3721 C 0.12272 0.26995 0.85288 0.0
C3722 C 0.11796 0.29099 0.86498 0.0
C3723 C 0.13492 0.31413 0.86179 0.0
C3724 C 0.12366 0.32996 0.84887 0.0
C3725 C 0.14776 0.32913 0.88605 0.0
C3726 C 0.1499 0.30278 0.84609 0.0
C3727 C 0.14269 0.27726 0.84139 0.0
C3728 C 0.15399 0.26265 0.82759 0.0
C3729 C 0.17301 0.27442 0.81812 0.0
C3730 C 0.18047 0.30056 0.82222 0.0
C3731 C 0.16871 0.31484 0.83649 0.0
H3732 H 0.63986 0.78682 0.96468 0.0
H3733 H 0.59252 0.74386 0.90329 0.0
H3734 H 0.58123 0.70995 0.92501 0.0
H3735 H 0.65657 0.73548 0.98176 0.0
H3736 H 0.65872 0.74803 0.01344 0.0
H3737 H 0.66356 0.7685 0.99273 0.0
H3738 H 0.63336 0.78856 0.0093 0.0
H3739 H 0.62837 0.7681 0.02999 0.0
H3740 H 0.60568 0.76928 0.00951 0.0
H3741 H 0.57466 0.68092 0.95382 0.0
H3742 H 0.57306 0.65927 0.98751 0.0
H3743 H 0.62454 0.72131 0.03019 0.0
C3744 C 0.62723 0.77021 0.9557 0.0
C3745 C 0.61713 0.76799 0.9322 0.0
C3746 C 0.60054 0.746 0.92123 0.0
C3747 C 0.59401 0.72663 0.93344 0.0
C3748 C 0.60419 0.72951 0.95663 0.0
C3749 C 0.62045 0.75076 0.96765 0.0
C3750 C 0.62844 0.74945 0.99289 0.0
C3751 C 0.6533 0.75041 0.99534 0.0
C3752 C 0.62367 0.77007 0.01152 0.0
C3753 C 0.61405 0.7242 0.99441 0.0
C3754 C 0.60026 0.71295 0.97327 0.0
C3755 C 0.58546 0.68954 0.97041 0.0
C3756 C 0.58475 0.67733 0.98963 0.0
C3757 C 0.59869 0.68852 0.01152 0.0
C3758 C 0.6135 0.71232 0.01381 0.0
H3759 H 0.07736 0.71931 0.66072 0.0
H3760 H 0.06054 0.73937 0.73285 0.0
H3761 H 0.09683 0.73566 0.74937 0.0
H3762 H 0.10509 0.67389 0.67301 0.0
H3763 H 0.12583 0.68155 0.65318 0.0
H3764 H 0.09856 0.68575 0.64714 0.0
H3765 H 0.1163 0.73184 0.6466 0.0
H3766 H 0.1436 0.72776 0.65251 0.0
H3767 H 0.13507 0.75145 0.67206 0.0
H3768 H 0.13548 0.73107 0.75789 0.0
H3769 H 0.17349 0.72583 0.75791 0.0
H3770 H 0.16455 0.70783 0.68013 0.0
C3771 C 0.08134 0.72315 0.68002 0.0
C3772 C 0.0662 0.72994 0.69553 0.0
C3773 C 0.07191 0.73426 0.72064 0.0
C3774 C 0.09245 0.73215 0.73017 0.0
C3775 C 0.10695 0.72537 0.71434 0.0
C3776 C 0.1016 0.72083 0.6898 0.0
C3777 C 0.12002 0.71373 0.67664 0.0
C3778 C 0.11189 0.68716 0.66161 0.0
C3779 C 0.12929 0.73231 0.66104 0.0
C3780 C 0.13687 0.71554 0.69765 0.0
C3781 C 0.12895 0.72217 0.71923 0.0
C3782 C 0.1418 0.72577 0.74111 0.0
C3783 C 0.1634 0.72286 0.74094 0.0
C3784 C 0.17199 0.71641 0.71904 0.0
C3785 C 0.15835 0.71239 0.69715 0.0
H3786 H 0.10753 0.38659 0.46708 0.0
H3787 H 0.10265 0.39002 0.39187 0.0
H3788 H 0.09573 0.43139 0.40238 0.0
H3789 H 0.06512 0.41331 0.48302 0.0
H3790 H 0.07906 0.43063 0.51202 0.0
H3791 H 0.08529 0.40238 0.49875 0.0
H3792 H 0.12723 0.42554 0.50245 0.0
H3793 H 0.12113 0.45375 0.51621 0.0
H3794 H 0.1356 0.45275 0.48996 0.0
H3795 H 0.08538 0.47075 0.42151 0.0
H3796 H 0.07832 0.50709 0.44804 0.0
H3797 H 0.09126 0.47699 0.51001 0.0
C3798 C 0.10543 0.39627 0.45286 0.0
C3799 C 0.10559 0.38527 0.42871 0.0
C3800 C 0.10279 0.39837 0.41053 0.0
C3801 C 0.09868 0.42172 0.41632 0.0
C3802 C 0.09784 0.4317 0.44035 0.0
C3803 C 0.10168 0.41957 0.45835 0.0
C3804 C 0.09984 0.43396 0.48275 0.0
C3805 C 0.08121 0.41918 0.49483 0.0
C3806 C 0.12229 0.44197 0.49878 0.0
C3807 C 0.09384 0.45584 0.47571 0.0
C3808 C 0.09261 0.4543 0.45122 0.0
C3809 C 0.08658 0.47226 0.44073 0.0
C3810 C 0.08238 0.49263 0.45581 0.0
C3811 C 0.0845 0.49477 0.48095 0.0
C3812 C 0.08994 0.47597 0.49086 0.0
H3813 H 0.45788 0.25789 0.25799 0.0
H3814 H 0.45272 0.28112 0.19019 0.0
H3815 H 0.42032 0.29595 0.20145 0.0
H3816 H 0.40078 0.2357 0.26068 0.0
H3817 H 0.40185 0.24617 0.29252 0.0
H3818 H 0.42575 0.23914 0.28004 0.0
H3819 H 0.44933 0.28273 0.3004 0.0
H3820 H 0.42572 0.29135 0.31215 0.0
H3821 H 0.44208 0.30938 0.29356 0.0
H3822 H 0.38633 0.30404 0.21779 0.0
H3823 H 0.35387 0.3069 0.23932 0.0
H3824 H 0.38131 0.27992 0.29724 0.0
C3825 C 0.45013 0.2664 0.24565 0.0
C3826 C 0.45787 0.26834 0.22319 0.0
C3827 C 0.44717 0.2795 0.20752 0.0
C3828 C 0.42875 0.288 0.21376 0.0
C3829 C 0.42136 0.2855 0.23585 0.0
C3830 C 0.43181 0.27521 0.25169 0.0
C3831 C 0.41998 0.27395 0.27396 0.0
C3832 C 0.41162 0.24713 0.27702 0.0
C3833 C 0.43516 0.29034 0.29636 0.0
C3834 C 0.40079 0.28429 0.26771 0.0
C3835 C 0.40203 0.291 0.24571 0.0
C3836 C 0.38543 0.29938 0.23527 0.0
C3837 C 0.36709 0.301 0.24764 0.0
C3838 C 0.3656 0.29452 0.27032 0.0
C3839 C 0.38253 0.28579 0.28031 0.0
H3840 H 0.63246 0.51444 0.36495 0.0
H3841 H 0.6599 0.59273 0.36783 0.0
H3842 H 0.64853 0.60227 0.40826 0.0
H3843 H 0.58319 0.52245 0.39589 0.0
H3844 H 0.58265 0.49783 0.41168 0.0
H3845 H 0.59353 0.49675 0.38319 0.0
H3846 H 0.63028 0.49224 0.40288 0.0
H3847 H 0.6194 0.4937 0.43139 0.0
H3848 H 0.64532 0.51515 0.4287 0.0
H3849 H 0.63617 0.60395 0.45094 0.0
H3850 H 0.62004 0.59809 0.48818 0.0
H3851 H 0.59509 0.51937 0.45878 0.0
C3852 C 0.63613 0.53363 0.37404 0.0
C3853 C 0.64762 0.5528 0.36239 0.0
C3854 C 0.6514 0.5775 0.37554 0.0
C3855 C 0.64496 0.58317 0.3989 0.0
C3856 C 0.63387 0.56415 0.40973 0.0
C3857 C 0.62899 0.5398 0.39751 0.0
C3858 C 0.61572 0.52314 0.41314 0.0
C3859 C 0.59239 0.50921 0.4002 0.0
C3860 C 0.62844 0.50497 0.41939 0.0
C3861 C 0.6142 0.54178 0.43599 0.0
C3862 C 0.6252 0.56531 0.43361 0.0
C3863 C 0.62725 0.58554 0.45256 0.0
C3864 C 0.61787 0.58197 0.47407 0.0
C3865 C 0.60565 0.55836 0.47733 0.0
C3866 C 0.6039 0.53791 0.45746 0.0
H3867 H 0.33877 0.96961 0.10322 0.0
H3868 H 0.28882 0.90432 0.06354 0.0
H3869 H 0.29673 0.88102 0.09372 0.0
H3870 H 0.37736 0.94129 0.114 0.0
H3871 H 0.38851 0.95859 0.1439 0.0
H3872 H 0.37513 0.97239 0.12356 0.0
H3873 H 0.34756 0.98073 0.15388 0.0
H3874 H 0.36119 0.96741 0.17467 0.0
H3875 H 0.33162 0.95562 0.16585 0.0
H3876 H 0.31534 0.86271 0.12208 0.0
H3877 H 0.34181 0.85107 0.14823 0.0
H3878 H 0.37975 0.92818 0.17055 0.0
C3879 C 0.32875 0.95076 0.1015 0.0
C3880 C 0.31307 0.9388 0.08112 0.0
C3881 C 0.30081 0.91387 0.07908 0.0
C3882 C 0.30516 0.9005 0.09617 0.0
C3883 C 0.32168 0.9124 0.11527 0.0
C3884 C 0.33305 0.93711 0.11831 0.0
C3885 C 0.35209 0.94455 0.1384 0.0
C3886 C 0.37458 0.95479 0.12941 0.0
C3887 C 0.34785 0.96318 0.15945 0.0
C3888 C 0.35056 0.91981 0.14505 0.0
C3889 C 0.33261 0.90166 0.13187 0.0
C3890 C 0.32903 0.87689 0.13306 0.0
C3891 C 0.34421 0.87047 0.14805 0.0
C3892 C 0.3628 0.88875 0.16173 0.0
C3893 C 0.36575 0.91377 0.16036 0.0
H3894 H 0.99956 0.58086 0.86135 0.0
H3895 H 0.02553 0.52708 0.81656 0.0
H3896 H 0.05164 0.52742 0.851 0.0
H3897 H 0.05265 0.61503 0.90129 0.0
H3898 H 0.03809 0.61849 0.92735 0.0
H3899 H 0.02453 0.61767 0.89827 0.0
H3900 H 0.99194 0.58134 0.90366 0.0
H3901 H 1.00542 0.58205 0.93263 0.0
H3902 H 0.99785 0.55376 0.91014 0.0
H3903 H 0.07134 0.52939 0.89123 0.0
H3904 H 0.08194 0.53191 0.9343 0.0
H3905 H 0.04253 0.58366 0.95277 0.0
C3906 C 0.01129 0.56983 0.85864 0.0
C3907 C 0.01075 0.55417 0.83631 0.0
C3908 C 0.0258 0.53933 0.83356 0.0
C3909 C 0.04076 0.53948 0.85297 0.0
C3910 C 0.04044 0.55456 0.875 0.0
C3911 C 0.02612 0.56952 0.87793 0.0
C3912 C 0.02713 0.58163 0.90401 0.0
C3913 C 0.03614 0.60988 0.90796 0.0
C3914 C 1.00423 0.57424 0.91313 0.0
C3915 C 0.0436 0.57046 0.91532 0.0
C3916 C 0.05145 0.55527 0.89831 0.0
C3917 C 0.06562 0.54157 0.90471 0.0
C3918 C 0.07156 0.54311 0.92918 0.0
C3919 C 0.06303 0.55794 0.9468 0.0
C3920 C 0.04935 0.57219 0.93968 0.0
H3921 H 0.31904 0.26715 0.59896 0.0
H3922 H 0.2955 0.18913 0.60014 0.0
H3923 H 0.29441 0.19959 0.64363 0.0
H3924 H 0.35532 0.28352 0.65478 0.0
H3925 H 0.35003 0.3132 0.66433 0.0
H3926 H 0.34771 0.29983 0.63284 0.0
H3927 H 0.30806 0.30448 0.62804 0.0
H3928 H 0.30889 0.31633 0.65972 0.0
H3929 H 0.28732 0.2892 0.64461 0.0
H3930 H 0.29701 0.21775 0.6874 0.0
H3931 H 0.30522 0.24274 0.72878 0.0
H3932 H 0.32802 0.30928 0.70109 0.0
C3933 C 0.31349 0.25233 0.60837 0.0
C3934 C 0.30731 0.22723 0.59586 0.0
C3935 C 0.30044 0.20846 0.60909 0.0
C3936 C 0.29964 0.21421 0.63391 0.0
C3937 C 0.30595 0.23893 0.64572 0.0
C3938 C 0.31297 0.25775 0.63352 0.0
C3939 C 0.32001 0.2827 0.65107 0.0
C3940 C 0.34474 0.29557 0.65073 0.0
C3941 C 0.30519 0.29918 0.64556 0.0
C3942 C 0.31598 0.27485 0.67486 0.0
C3943 C 0.30765 0.24949 0.67125 0.0
C3944 C 0.30333 0.23766 0.69042 0.0
C3945 C 0.30793 0.25202 0.71392 0.0
C3946 C 0.31668 0.27803 0.71821 0.0
C3947 C 0.32078 0.2895 0.69832 0.0
H3948 H 0.62472 0.52653 0.21931 0.0
H3949 H 0.69091 0.5256 0.20134 0.0
H3950 H 0.6803 0.5296 0.16058 0.0
H3951 H 0.59578 0.48928 0.15993 0.0
H3952 H 0.57486 0.50575 0.15834 0.0
H3953 H 0.58725 0.50393 0.1871 0.0
H3954 H 0.59836 0.55151 0.19948 0.0
H3955 H 0.58648 0.55363 0.17057 0.0
H3956 H 0.61518 0.56962 0.18131 0.0
H3957 H 0.6639 0.53525 0.12103 0.0
H3958 H 0.64151 0.53552 0.08426 0.0
H3959 H 0.58304 0.52927 0.12196 0.0
C3960 C 0.63702 0.52708 0.20684 0.0
C3961 C 0.65911 0.52564 0.21466 0.0
C3962 C 0.67405 0.52639 0.19686 0.0
C3963 C 0.66815 0.52889 0.17325 0.0
C3964 C 0.64673 0.53032 0.16629 0.0
C3965 C 0.6311 0.52896 0.18233 0.0
C3966 C 0.60882 0.5296 0.16896 0.0
C3967 C 0.59058 0.50572 0.16857 0.0
C3968 C 0.60178 0.55244 0.1808 0.0
C3969 C 0.61446 0.53147 0.14317 0.0
C3970 C 0.63671 0.53235 0.14258 0.0
C3971 C 0.64646 0.53443 0.12148 0.0
C3972 C 0.63341 0.53476 0.1004 0.0
C3973 C 0.61023 0.53296 0.09932 0.0
C3974 C 0.60069 0.53142 0.12159 0.0
H3975 H 0.28484 0.88689 0.93351 0.0
H3976 H 0.3467 0.88744 0.97312 0.0
H3977 H 0.35607 0.86256 0.93739 0.0
H3978 H 0.27395 0.82221 0.89832 0.0
H3979 H 0.26213 0.82992 0.87212 0.0
H3980 H 0.25982 0.84628 0.90157 0.0
H3981 H 0.27804 0.88765 0.88906 0.0
H3982 H 0.28092 0.87101 0.85998 0.0
H3983 H 0.30505 0.89212 0.87855 0.0
H3984 H 0.3614 0.8429 0.8959 0.0
H3985 H 0.35893 0.82335 0.8529 0.0
H3986 H 0.29206 0.83112 0.84166 0.0
C3987 C 0.30009 0.88128 0.93478 0.0
C3988 C 0.31499 0.88912 0.95612 0.0
C3989 C 0.33489 0.88152 0.95705 0.0
C3990 C 0.34047 0.86749 0.93679 0.0
C3991 C 0.32577 0.86066 0.91584 0.0
C3992 C 0.3057 0.86669 0.91482 0.0
C3993 C 0.29296 0.85696 0.88998 0.0
C3994 C 0.27091 0.83768 0.89055 0.0
C3995 C 0.28902 0.87821 0.87874 0.0
C3996 C 0.30924 0.84511 0.87721 0.0
C3997 C 0.32823 0.84776 0.89231 0.0
C3998 C 0.3464 0.84018 0.88399 0.0
C3999 C 0.34495 0.82929 0.85959 0.0
C4000 C 0.3253 0.82566 0.84409 0.0
C4001 C 0.30724 0.83353 0.85314 0.0
H4002 H 0.98767 0.51207 0.72186 0.0
H4003 H 0.95888 0.56385 0.69312 0.0
H4004 H 0.97273 0.552 0.65423 0.0
H4005 H 0.03672 0.52175 0.69353 0.0
H4006 H 0.03686 0.4897 0.68808 0.0
H4007 H 0.02429 0.50219 0.71315 0.0
H4008 H 0.98734 0.46803 0.69767 0.0
H4009 H 0.99975 0.45556 0.6724 0.0
H4010 H 0.97441 0.46444 0.66761 0.0
H4011 H 0.99218 0.53631 0.61955 0.0
H4012 H 0.01475 0.51722 0.5917 0.0
H4013 H 0.0281 0.47403 0.64292 0.0
C4014 C 0.98434 0.52101 0.70743 0.0
C4015 C 0.97244 0.53903 0.71046 0.0
C4016 C 0.96806 0.55003 0.69107 0.0
C4017 C 0.9758 0.54338 0.66898 0.0
C4018 C 0.98745 0.52543 0.66658 0.0
C4019 C 0.99152 0.51429 0.68526 0.0
C4020 C 1.00444 0.49559 0.67829 0.0
C4021 C 0.02691 0.50275 0.6942 0.0
C4022 C 0.99065 0.46935 0.67903 0.0
C4023 C 1.00752 0.49833 0.6529 0.0
C4024 C 0.99763 0.51562 0.6464 0.0
C4025 C 0.99968 0.52247 0.6243 0.0
C4026 C 0.01247 0.5116 0.60866 0.0
C4027 C 0.02271 0.49396 0.6152 0.0
C4028 C 0.01989 0.487 0.63736 0.0
H4029 H 0.31096 0.22127 0.43904 0.0
H4030 H 0.30141 0.28634 0.48503 0.0
H4031 H 0.30619 0.30849 0.45171 0.0
H4032 H 0.35162 0.25312 0.4042 0.0
H4033 H 0.34003 0.2319 0.37612 0.0
H4034 H 0.33739 0.22137 0.40388 0.0
H4035 H 0.29448 0.2062 0.39334 0.0
H4036 H 0.29732 0.21641 0.36546 0.0
H4037 H 0.27957 0.2275 0.38587 0.0
H4038 H 0.31232 0.32405 0.41367 0.0
H4039 H 0.31603 0.33094 0.37274 0.0
H4040 H 0.31884 0.25519 0.34906 0.0
C4041 C 0.31018 0.24029 0.44213 0.0
C4042 C 0.30611 0.25217 0.46492 0.0
C4043 C 0.30463 0.27686 0.46794 0.0
C4044 C 0.30737 0.28963 0.44906 0.0
C4045 C 0.3112 0.27744 0.42687 0.0
C4046 C 0.31233 0.25322 0.42314 0.0
C4047 C 0.31528 0.24414 0.39699 0.0
C4048 C 0.3374 0.23722 0.3952 0.0
C4049 C 0.29547 0.22226 0.3847 0.0
C4050 C 0.31568 0.26703 0.38668 0.0
C4051 C 0.3136 0.28608 0.40442 0.0
C4052 C 0.31388 0.3092 0.39965 0.0
C4053 C 0.31612 0.31297 0.37622 0.0
C4054 C 0.31775 0.2937 0.35738 0.0
C4055 C 0.31753 0.27035 0.36286 0.0
H4056 H 0.36771 0.585 0.53969 0.0
H4057 H 0.36202 0.60912 0.4725 0.0
H4058 H 0.38631 0.58351 0.45597 0.0
H4059 H 0.42489 0.58725 0.54099 0.0
H4060 H 0.4223 0.56064 0.55437 0.0
H4061 H 0.4034 0.57954 0.55998 0.0
H4062 H 0.36992 0.54085 0.54463 0.0
H4063 H 0.38875 0.52185 0.53883 0.0
H4064 H 0.36846 0.52225 0.51511 0.0
H4065 H 0.41178 0.55532 0.44726 0.0
H4066 H 0.43873 0.53022 0.44839 0.0
H4067 H 0.42813 0.52631 0.52189 0.0
C4068 C 0.37139 0.58475 0.52141 0.0
C4069 C 0.36287 0.59886 0.50728 0.0
C4070 C 0.36838 0.59838 0.48359 0.0
C4071 C 0.38204 0.58381 0.47405 0.0
C4072 C 0.39012 0.57005 0.48851 0.0
C4073 C 0.38513 0.57063 0.51177 0.0
C4074 C 0.39684 0.55541 0.52419 0.0
C4075 C 0.4128 0.57169 0.54617 0.0
C4076 C 0.37998 0.53381 0.53108 0.0
C4077 C 0.4094 0.54627 0.50437 0.0
C4078 C 0.40512 0.55458 0.48379 0.0
C4079 C 0.41519 0.54868 0.46326 0.0
C4080 C 0.43034 0.53434 0.464 0.0
C4081 C 0.43541 0.52643 0.48522 0.0
C4082 C 0.42454 0.53221 0.50546 0.0
H4083 H 0.91652 0.92394 0.53351 0.0
H4084 H 0.9039 0.97322 0.59534 0.0
H4085 H 0.94247 0.99948 0.59901 0.0
H4086 H 0.97342 0.92809 0.55391 0.0
H4087 H 0.98282 0.92818 0.52478 0.0
H4088 H 0.95436 0.91274 0.52722 0.0
H4089 H 0.94059 0.93897 0.50022 0.0
H4090 H 0.969 0.95441 0.49764 0.0
H4091 H 0.95033 0.97225 0.50839 0.0
H4092 H 0.98272 0.01951 0.59703 0.0
H4093 H 0.02096 0.03415 0.58746 0.0
H4094 H 1.00708 0.97384 0.52504 0.0
C4095 C 0.9219 0.94022 0.54787 0.0
C4096 C 0.90719 0.94645 0.56424 0.0
C4097 C 0.91481 0.96808 0.58257 0.0
C4098 C 0.93673 0.98307 0.58486 0.0
C4099 C 0.95081 0.97638 0.56851 0.0
C4100 C 0.94367 0.95565 0.55018 0.0
C4101 C 0.96199 0.9532 0.5345 0.0
C4102 C 0.96853 0.92912 0.53515 0.0
C4103 C 0.95506 0.95481 0.50866 0.0
C4104 C 0.98055 0.97572 0.54696 0.0
C4105 C 0.97377 0.98866 0.56667 0.0
C4106 C 0.9881 1.00972 0.58143 0.0
C4107 C 1.00982 0.018 0.57572 0.0
C4108 C 0.017 1.0056 0.55513 0.0
C4109 C 1.00212 0.98397 0.54075 0.0
H4110 H 0.91752 0.1701 0.2946 0.0
H4111 H 0.88054 0.12321 0.2284 0.0
H4112 H 0.86022 0.15433 0.22459 0.0
H4113 H 0.8714 0.19441 0.3164 0.0
H4114 H 0.88846 0.22541 0.32866 0.0
H4115 H 0.90042 0.19964 0.32672 0.0
H4116 H 0.9304 0.22045 0.3025 0.0
H4117 H 0.91853 0.24627 0.3045 0.0
H4118 H 0.92194 0.22958 0.27561 0.0
H4119 H 0.84363 0.19277 0.22677 0.0
H4120 H 0.83336 0.23237 0.23488 0.0
H4121 H 0.87903 0.25627 0.30009 0.0
C4122 C 0.90514 0.1662 0.27925 0.0
C4123 C 0.9011 0.14313 0.26178 0.0
C4124 C 0.8845 0.13994 0.24221 0.0
C4125 C 0.87264 0.15786 0.23986 0.0
C4126 C 0.87693 0.18 0.25714 0.0
C4127 C 0.89291 0.18431 0.27653 0.0
C4128 C 0.89429 0.21 0.2924 0.0
C4129 C 0.8883 0.2072 0.31755 0.0
C4130 C 0.91768 0.22762 0.29385 0.0
C4131 C 0.87666 0.21928 0.27911 0.0
C4132 C 0.86691 0.20158 0.25873 0.0
C4133 C 0.8509 0.20626 0.24306 0.0
C4134 C 0.84477 0.22903 0.24804 0.0
C4135 C 0.85359 0.24763 0.26918 0.0
C4136 C 0.87043 0.24236 0.28451 0.0
H4137 H 0.7122 0.12833 0.05682 0.0
H4138 H 0.72583 0.05773 0.03189 0.0
H4139 H 0.68621 0.03625 0.03239 0.0
H4140 H 0.66981 0.10461 0.0965 0.0
H4141 H 0.65334 0.12482 0.09002 0.0
H4142 H 0.68317 0.13438 0.09038 0.0
H4143 H 0.6783 0.14171 0.04712 0.0
H4144 H 0.64857 0.13222 0.04663 0.0
H4145 H 0.6617 0.11683 0.02369 0.0
H4146 H 0.64477 0.02363 0.02903 0.0
H4147 H 0.60463 0.02014 0.02543 0.0
H4148 H 0.61814 0.09838 0.05623 0.0
C4149 C 0.70685 0.10832 0.05178 0.0
C4150 C 0.72185 0.0946 0.0441 0.0
C4151 C 0.71447 0.06848 0.03783 0.0
C4152 C 0.69208 0.05616 0.03814 0.0
C4153 C 0.67759 0.07029 0.0454 0.0
C4154 C 0.68475 0.09575 0.05258 0.0
C4155 C 0.66565 0.10668 0.05859 0.0
C4156 C 0.66815 0.11831 0.08547 0.0
C4157 C 0.66343 0.12545 0.04307 0.0
C4158 C 0.64643 0.08357 0.05212 0.0
C4159 C 0.6537 0.06273 0.04484 0.0
C4160 C 0.63891 0.03963 0.03553 0.0
C4161 C 0.61612 0.03781 0.03365 0.0
C4162 C 0.60837 0.0588 0.04161 0.0
C4163 C 0.62372 0.08194 0.05087 0.0
H4164 H 0.22611 0.51505 0.27828 0.0
H4165 H 0.25674 0.50879 0.21223 0.0
H4166 H 0.2769 0.48116 0.22621 0.0
H4167 H 0.27269 0.51652 0.31721 0.0
H4168 H 0.25726 0.4979 0.33594 0.0
H4169 H 0.2441 0.5161 0.32032 0.0
H4170 H 0.21267 0.47683 0.30036 0.0
H4171 H 0.22568 0.45852 0.31605 0.0
H4172 H 0.21976 0.45031 0.28383 0.0
H4173 H 0.2967 0.45806 0.24891 0.0
H4174 H 0.31289 0.43837 0.27747 0.0
H4175 H 0.26677 0.45568 0.32743 0.0
C4176 C 0.23686 0.50763 0.26666 0.0
C4177 C 0.23987 0.51413 0.24417 0.0
C4178 C 0.25409 0.50402 0.22949 0.0
C4179 C 0.26565 0.48832 0.23728 0.0
C4180 C 0.26257 0.48255 0.25964 0.0
C4181 C 0.24829 0.49156 0.274 0.0
C4182 C 0.24829 0.48266 0.29741 0.0
C4183 C 0.25605 0.50461 0.31899 0.0
C4184 C 0.22523 0.46609 0.29953 0.0
C4185 C 0.26526 0.46785 0.29418 0.0
C4186 C 0.27328 0.46809 0.27229 0.0
C4187 C 0.29015 0.45719 0.26588 0.0
C4188 C 0.29911 0.44577 0.28227 0.0
C4189 C 0.29101 0.44488 0.30483 0.0
C4190 C 0.27361 0.45597 0.31056 0.0
H4191 H 0.2815 0.45118 0.01389 0.0
H4192 H 0.28231 0.4684 0.09119 0.0
H4193 H 0.25396 0.49091 0.08688 0.0
H4194 H 0.27669 0.51057 1.00508 0.0
H4195 H 0.25877 0.49828 0.97713 0.0
H4196 H 0.27829 0.48228 0.98603 0.0
H4197 H 0.2461 0.44241 0.98196 0.0
H4198 H 0.22648 0.45831 0.97306 0.0
H4199 H 0.2225 0.44342 0.99822 0.0
H4200 H 0.22508 0.51109 0.07441 0.0
H4201 H 0.19989 0.53056 0.05467 0.0
H4202 H 0.21908 0.50281 0.9856 0.0
C4203 C 0.27558 0.45956 0.02986 0.0
C4204 C 0.28406 0.45789 0.0529 0.0
C4205 C 0.27611 0.46944 0.07337 0.0
C4206 C 0.25993 0.4822 0.07111 0.0
C4207 C 0.25196 0.48361 0.04824 0.0
C4208 C 0.25965 0.47286 0.02795 0.0
C4209 C 0.24903 0.47824 1.00558 0.0
C4210 C 0.26675 0.49324 0.9927 0.0
C4211 C 0.23521 0.45416 0.98871 0.0
C4212 C 0.2342 0.49363 0.01649 0.0
C4213 C 0.23595 0.49622 0.0411 0.0
C4214 C 0.22362 0.50927 0.05514 0.0
C4215 C 0.20928 0.52017 0.04378 0.0
C4216 C 0.20755 0.51828 0.01864 0.0
C4217 C 0.2202 0.50475 1.00488 0.0
H4218 H 0.92735 0.99021 0.29637 0.0
H4219 H 0.87655 0.01571 0.26147 0.0
H4220 H 0.8497 0.97471 0.25851 0.0
H4221 H 0.91135 0.92756 0.26139 0.0
H4222 H 0.91722 0.91375 0.28611 0.0
H4223 H 0.93223 0.94511 0.28593 0.0
H4224 H 0.92014 0.96014 0.32716 0.0
H4225 H 0.90512 0.92881 0.32749 0.0
H4226 H 0.89096 0.95284 0.33094 0.0
H4227 H 0.82781 0.92874 0.25857 0.0
H4228 H 0.81395 0.88524 0.26224 0.0
H4229 H 0.8785 0.88894 0.29761 0.0
C4230 C 0.91055 0.98742 0.28818 0.0
C4231 C 0.90443 1.007 0.27924 0.0
C4232 C 0.88207 1.00169 0.26863 0.0
C4233 C 0.86657 0.97817 0.26681 0.0
C4234 C 0.87325 0.95945 0.27567 0.0
C4235 C 0.8948 0.96394 0.28624 0.0
C4236 C 0.89792 0.94069 0.29425 0.0
C4237 C 0.91574 0.93122 0.28114 0.0
C4238 C 0.90389 0.94594 0.32159 0.0
C4239 C 0.87485 0.92231 0.28658 0.0
C4240 C 0.86084 0.93352 0.27586 0.0
C4241 C 0.83879 0.92014 0.26715 0.0
C4242 C 0.83091 0.89516 0.26947 0.0
C4243 C 0.84467 0.88298 0.28056 0.0
C4244 C 0.86716 0.89717 0.28909 0.0
H4245 H 0.76878 0.12492 0.77463 0.0
H4246 H 0.71933 0.12187 0.71661 0.0
H4247 H 0.73812 0.16516 0.71486 0.0
H4248 H 0.76912 0.18342 0.80462 0.0
H4249 H 0.79836 0.19393 0.8156 0.0
H4250 H 0.78413 0.16147 0.80975 0.0
H4251 H 0.81199 0.15132 0.78116 0.0
H4252 H 0.82708 0.18356 0.78634 0.0
H4253 H 0.8167 0.16637 0.75621 0.0
H4254 H 0.76132 0.20953 0.72103 0.0
H4255 H 0.78452 0.25245 0.73748 0.0
H4256 H 0.81618 0.22691 0.79373 0.0
C4257 C 0.76233 0.13324 0.76117 0.0
C4258 C 0.74298 0.12017 0.74543 0.0
C4259 C 0.73435 0.13173 0.72862 0.0
C4260 C 0.74495 0.15618 0.72744 0.0
C4261 C 0.76388 0.16882 0.74349 0.0
C4262 C 0.77232 0.15781 0.76024 0.0
C4263 C 0.79109 0.17619 0.7774 0.0
C4264 C 0.78534 0.17893 0.80337 0.0
C4265 C 0.81302 0.16894 0.77514 0.0
C4266 C 0.79167 0.1993 0.76794 0.0
C4267 C 0.77625 0.19463 0.74802 0.0
C4268 C 0.77355 0.21338 0.73652 0.0
C4269 C 0.78678 0.23761 0.74587 0.0
C4270 C 0.80221 0.24266 0.76658 0.0
C4271 C 0.80462 0.2233 0.77768 0.0
loop_
_geom_bond_atom_site_label_1
_geom_bond_atom_site_label_2
_geom_bond_distance
_geom_bond_site_symmetry_2
_ccdc_geom_bond_type
O0 Cd1 2.223 . S
O0 C8 1.315 . S
Cd1 O0 2.223 . S
Cd1 O4 2.297 . S
Cd1 O5 2.439 . S
Cd1 O11 2.240 . S
Cd2 O3 2.240 . S
Cd2 O10 2.223 . S
Cd2 O12 2.297 . S
Cd2 O13 2.439 . S
O3 Cd2 2.240 . S
O3 C8 1.279 . S
O4 Cd1 2.297 . S
O4 C6 1.247 . S
O5 Cd1 2.439 . S
O5 C6 1.208 . S
C6 O4 1.247 . S
C6 O5 1.208 . S
C7 O12 1.247 . S
C7 O13 1.208 . S
C8 O0 1.315 . S
C8 O3 1.279 . S
C9 O10 1.315 . S
C9 O11 1.279 . S
O10 Cd2 2.223 . S
O10 C9 1.315 . S
O11 Cd1 2.240 . S
O11 C9 1.279 . S
O12 Cd2 2.297 . S
O12 C7 1.247 . S
O13 Cd2 2.439 . S
O13 C7 1.208 . S
O14 Cd15 2.223 . S
O14 C22 1.315 . S
Cd15 O14 2.223 . S
Cd15 O18 2.297 . S
Cd15 O19 2.439 . S
Cd15 O25 2.240 1_655 S
Cd16 O17 2.240 1_455 S
Cd16 O24 2.223 . S
Cd16 O26 2.297 . S
Cd16 O27 2.459 . S
O17 Cd16 2.240 1_655 S
O17 C22 1.279 . S
O18 Cd15 2.297 . S
O18 C20 1.247 . S
O19 Cd15 2.439 . S
O19 C20 1.208 . S
C20 O18 1.247 . S
C20 O19 1.208 . S
C21 O26 1.247 . S
C21 O27 1.232 . S
C22 O14 1.315 . S
C22 O17 1.279 . S
C23 O24 1.315 . S
C23 O25 1.279 . S
O24 Cd16 2.223 . S
O24 C23 1.315 . S
O25 Cd15 2.240 1_455 S
O25 C23 1.279 . S
O26 Cd16 2.297 . S
O26 C21 1.247 . S
O27 Cd16 2.459 . S
O27 C21 1.232 . S
O28 Cd29 2.223 . S
O28 C36 1.315 . S
Cd29 O28 2.223 . S
Cd29 O32 2.297 . S
Cd29 O33 2.439 . S
Cd29 O39 2.240 . S
Cd30 O31 2.240 . S
Cd30 O38 2.223 . S
Cd30 O40 2.297 . S
Cd30 O41 2.439 . S
O31 Cd30 2.240 . S
O31 C36 1.279 . S
O32 Cd29 2.297 . S
O32 C34 1.247 . S
O33 Cd29 2.439 . S
O33 C34 1.208 . S
C34 O32 1.247 . S
C34 O33 1.208 . S
C35 O40 1.247 . S
C35 O41 1.208 . S
C36 O28 1.315 . S
C36 O31 1.279 . S
C37 O38 1.315 . S
C37 O39 1.279 . S
O38 Cd30 2.223 . S
O38 C37 1.315 . S
O39 Cd29 2.240 . S
O39 C37 1.279 . S
O40 Cd30 2.297 . S
O40 C35 1.247 . S
O41 Cd30 2.439 . S
O41 C35 1.208 . S
O42 Cd43 2.223 . S
O42 C50 1.315 . S
Cd43 O42 2.223 . S
Cd43 O46 2.297 . S
Cd43 O47 2.439 . S
Cd43 O53 2.240 . S
Cd44 O45 2.240 . S
Cd44 O52 2.223 . S
Cd44 O54 2.297 . S
Cd44 O55 2.439 . S
O45 Cd44 2.240 . S
O45 C50 1.279 . S
O46 Cd43 2.297 . S
O46 C48 1.247 . S
O47 Cd43 2.439 . S
O47 C48 1.208 . S
C48 O46 1.247 . S
C48 O47 1.208 . S
C49 O54 1.247 . S
C49 O55 1.208 . S
C50 O42 1.315 . S
C50 O45 1.279 . S
C51 O52 1.315 . S
C51 O53 1.279 . S
O52 Cd44 2.223 . S
O52 C51 1.315 . S
O53 Cd43 2.240 . S
O53 C51 1.279 . S
O54 Cd44 2.297 . S
O54 C49 1.247 . S
O55 Cd44 2.439 . S
O55 C49 1.208 . S
O56 Cd57 2.223 . S
O56 C64 1.315 . S
Cd57 O56 2.223 . S
Cd57 O60 2.297 . S
Cd57 O61 2.439 . S
Cd57 O67 2.240 . S
Cd58 O59 2.240 . S
Cd58 O66 2.223 . S
Cd58 O68 2.297 . S
Cd58 O69 2.439 . S
O59 Cd58 2.240 . S
O59 C64 1.279 . S
O60 Cd57 2.297 . S
O60 C62 1.247 . S
O61 Cd57 2.439 . S
O61 C62 1.208 . S
C62 O60 1.247 . S
C62 O61 1.208 . S
C63 O68 1.247 . S
C63 O69 1.208 . S
C64 O56 1.315 . S
C64 O59 1.279 . S
C65 O66 1.315 . S
C65 O67 1.279 . S
O66 Cd58 2.223 . S
O66 C65 1.315 . S
O67 Cd57 2.240 . S
O67 C65 1.279 . S
O68 Cd58 2.297 . S
O68 C63 1.247 . S
O69 Cd58 2.439 . S
O69 C63 1.208 . S
O70 Cd71 2.223 . S
O70 C78 1.315 . S
Cd71 O70 2.223 . S
Cd71 O74 2.297 . S
Cd71 O75 2.439 . S
Cd71 O81 2.240 . S
Cd72 O73 2.240 . S
Cd72 O80 2.223 . S
Cd72 O82 2.297 . S
Cd72 O83 2.439 . S
O73 Cd72 2.240 . S
O73 C78 1.279 . S
O74 Cd71 2.297 . S
O74 C76 1.247 . S
O75 Cd71 2.439 . S
O75 C76 1.208 . S
C76 O74 1.247 . S
C76 O75 1.208 . S
C77 O82 1.247 . S
C77 O83 1.208 . S
C78 O70 1.315 . S
C78 O73 1.279 . S
C79 O80 1.315 . S
C79 O81 1.279 . S
O80 Cd72 2.223 . S
O80 C79 1.315 . S
O81 Cd71 2.240 . S
O81 C79 1.279 . S
O82 Cd72 2.297 . S
O82 C77 1.247 . S
O83 Cd72 2.439 . S
O83 C77 1.208 . S
O84 Cd85 2.223 . S
O84 C92 1.315 . S
Cd85 O84 2.223 . S
Cd85 O88 2.297 . S
Cd85 O89 2.439 . S
Cd85 O95 2.240 . S
Cd86 O87 2.240 . S
Cd86 O94 2.223 . S
Cd86 O96 2.297 . S
Cd86 O97 2.439 . S
O87 Cd86 2.240 . S
O87 C92 1.279 . S
O88 Cd85 2.297 . S
O88 C90 1.247 . S
O89 Cd85 2.439 . S
O89 C90 1.208 . S
C90 O88 1.247 . S
C90 O89 1.208 . S
C91 O96 1.247 . S
C91 O97 1.208 . S
C92 O84 1.315 . S
C92 O87 1.279 . S
C93 O94 1.315 . S
C93 O95 1.279 . S
O94 Cd86 2.223 . S
O94 C93 1.315 . S
O95 Cd85 2.240 . S
O95 C93 1.279 . S
O96 Cd86 2.297 . S
O96 C91 1.247 . S
O97 Cd86 2.439 . S
O97 C91 1.208 . S
O98 Cd99 2.223 . S
O98 C106 1.315 . S
Cd99 O98 2.223 . S
Cd99 O102 2.297 . S
Cd99 O103 2.439 . S
Cd99 O109 2.240 . S
Cd100 O101 2.240 . S
Cd100 O108 2.223 1_455 S
Cd100 O110 2.297 . S
Cd100 O111 2.439 . S
O101 Cd100 2.240 . S
O101 C106 1.279 . S
O102 Cd99 2.297 . S
O102 C104 1.247 . S
O103 Cd99 2.439 . S
O103 C104 1.208 . S
C104 O102 1.247 . S
C104 O103 1.208 . S
C105 O110 1.247 . S
C105 O111 1.208 . S
C106 O98 1.315 . S
C106 O101 1.279 . S
C107 O108 1.315 . S
C107 O109 1.279 1_655 S
O108 Cd100 2.223 1_655 S
O108 C107 1.315 . S
O109 Cd99 2.240 . S
O109 C107 1.279 1_455 S
O110 Cd100 2.297 . S
O110 C105 1.247 . S
O111 Cd100 2.439 . S
O111 C105 1.208 . S
O112 Cd113 2.223 . S
O112 C120 1.315 . S
Cd113 O112 2.223 . S
Cd113 O116 2.297 . S
Cd113 O117 2.439 . S
Cd113 O123 2.240 . S
Cd114 O115 2.240 . S
Cd114 O122 2.223 1_545 S
Cd114 O124 2.297 . S
Cd114 O125 2.439 . S
O115 Cd114 2.240 . S
O115 C120 1.279 . S
O116 Cd113 2.297 . S
O116 C118 1.247 . S
O117 Cd113 2.439 . S
O117 C118 1.208 . S
C118 O116 1.247 . S
C118 O117 1.208 . S
C119 O124 1.247 . S
C119 O125 1.208 . S
C120 O112 1.315 . S
C120 O115 1.279 . S
C121 O122 1.315 . S
C121 O123 1.279 1_565 S
O122 Cd114 2.223 1_565 S
O122 C121 1.315 . S
O123 Cd113 2.240 . S
O123 C121 1.279 1_545 S
O124 Cd114 2.297 . S
O124 C119 1.247 . S
O125 Cd114 2.439 . S
O125 C119 1.208 . S
O126 Cd127 2.223 . S
O126 C134 1.315 . S
Cd127 O126 2.223 . S
Cd127 O130 2.297 . S
Cd127 O131 2.439 . S
Cd127 O137 2.240 . S
Cd128 O129 2.240 . S
Cd128 O136 2.223 . S
Cd128 O138 2.297 . S
Cd128 O139 2.439 . S
O129 Cd128 2.240 . S
O129 C134 1.279 . S
O130 Cd127 2.297 . S
O130 C132 1.247 . S
O131 Cd127 2.439 . S
O131 C132 1.208 . S
C132 O130 1.247 . S
C132 O131 1.208 . S
C133 O138 1.247 . S
C133 O139 1.208 . S
C134 O126 1.315 . S
C134 O129 1.279 . S
C135 O136 1.315 . S
C135 O137 1.279 . S
O136 Cd128 2.223 . S
O136 C135 1.315 . S
O137 Cd127 2.240 . S
O137 C135 1.279 . S
O138 Cd128 2.297 . S
O138 C133 1.247 . S
O139 Cd128 2.439 . S
O139 C133 1.208 . S
O140 Cd141 2.223 1_545 S
O140 C148 1.315 1_545 S
Cd141 O140 2.223 1_565 S
Cd141 O144 2.297 . S
Cd141 O145 2.439 . S
Cd141 O151 2.240 1_565 S
Cd142 O143 2.240 1_545 S
Cd142 O150 2.223 . S
Cd142 O152 2.297 . S
Cd142 O153 2.439 1_545 S
O143 Cd142 2.240 1_565 S
O143 C148 1.279 . S
O144 Cd141 2.297 . S
O144 C146 1.247 . S
O145 Cd141 2.439 . S
O145 C146 1.208 . S
C146 O144 1.247 . S
C146 O145 1.208 . S
C147 O152 1.247 . S
C147 O153 1.208 1_545 S
C148 O140 1.315 1_565 S
C148 O143 1.279 . S
C149 O150 1.315 . S
C149 O151 1.279 . S
O150 Cd142 2.223 . S
O150 C149 1.315 . S
O151 Cd141 2.240 1_545 S
O151 C149 1.279 . S
O152 Cd142 2.297 . S
O152 C147 1.247 . S
O153 Cd142 2.439 1_565 S
O153 C147 1.208 1_565 S
O154 Cd155 2.223 . S
O154 C162 1.315 . S
Cd155 O154 2.223 . S
Cd155 O158 2.297 . S
Cd155 O159 2.439 1_554 S
Cd155 O165 2.243 . S
Cd156 O157 2.240 1_556 S
Cd156 O164 2.223 1_556 S
Cd156 O166 2.297 . S
Cd156 O167 2.439 . S
O157 Cd156 2.240 1_554 S
O157 C162 1.279 . S
O158 Cd155 2.297 . S
O158 C160 1.247 . S
O159 Cd155 2.439 1_556 S
O159 C160 1.208 1_556 S
C160 O158 1.247 . S
C160 O159 1.208 1_554 S
C161 O166 1.247 . S
C161 O167 1.208 . S
C162 O154 1.315 . S
C162 O157 1.279 . S
C163 O164 1.315 . S
C163 O165 1.281 . S
O164 Cd156 2.223 1_554 S
O164 C163 1.315 . S
O165 Cd155 2.243 . S
O165 C163 1.281 . S
O166 Cd156 2.297 . S
O166 C161 1.247 . S
O167 Cd156 2.439 . S
O167 C161 1.208 . S
O168 Cd169 2.223 . S
O168 C176 1.315 . S
Cd169 O168 2.223 . S
Cd169 O172 2.297 . S
Cd169 O173 2.439 . S
Cd169 O179 2.240 . S
Cd170 O171 2.240 . S
Cd170 O178 2.223 . S
Cd170 O180 2.297 1_554 S
Cd170 O181 2.439 1_554 S
O171 Cd170 2.240 . S
O171 C176 1.279 . S
O172 Cd169 2.297 . S
O172 C174 1.247 . S
O173 Cd169 2.439 . S
O173 C174 1.208 . S
C174 O172 1.247 . S
C174 O173 1.208 . S
C175 O180 1.247 . S
C175 O181 1.208 . S
C176 O168 1.315 . S
C176 O171 1.279 . S
C177 O178 1.315 . S
C177 O179 1.279 . S
O178 Cd170 2.223 . S
O178 C177 1.315 . S
O179 Cd169 2.240 . S
O179 C177 1.279 . S
O180 Cd170 2.297 1_556 S
O180 C175 1.247 . S
O181 Cd170 2.439 1_556 S
O181 C175 1.208 . S
O182 Cd183 2.223 . S
O182 C190 1.315 . S
Cd183 O182 2.223 . S
Cd183 O186 2.297 . S
Cd183 O187 2.439 . S
Cd183 O193 2.240 . S
Cd184 O185 2.240 . S
Cd184 O192 2.223 . S
Cd184 O194 2.297 1_554 S
Cd184 O195 2.439 1_554 S
O185 Cd184 2.240 . S
O185 C190 1.279 . S
O186 Cd183 2.297 . S
O186 C188 1.247 . S
O187 Cd183 2.439 . S
O187 C188 1.208 . S
C188 O186 1.247 . S
C188 O187 1.208 . S
C189 O194 1.247 . S
C189 O195 1.208 . S
C190 O182 1.315 . S
C190 O185 1.279 . S
C191 O192 1.315 . S
C191 O193 1.279 . S
O192 Cd184 2.223 . S
O192 C191 1.315 . S
O193 Cd183 2.240 . S
O193 C191 1.279 . S
O194 Cd184 2.297 1_556 S
O194 C189 1.247 . S
O195 Cd184 2.439 1_556 S
O195 C189 1.208 . S
O196 Cd197 2.223 . S
O196 C204 1.315 . S
Cd197 O196 2.223 . S
Cd197 O200 2.297 . S
Cd197 O201 2.439 . S
Cd197 O207 2.240 . S
Cd198 O199 2.240 . S
Cd198 O206 2.223 . S
Cd198 O208 2.297 . S
Cd198 O209 2.439 . S
O199 Cd198 2.240 . S
O199 C204 1.279 . S
O200 Cd197 2.297 . S
O200 C202 1.247 . S
O201 Cd197 2.439 . S
O201 C202 1.208 . S
C202 O200 1.247 . S
C202 O201 1.208 . S
C203 O208 1.247 . S
C203 O209 1.208 . S
C204 O196 1.315 . S
C204 O199 1.279 . S
C205 O206 1.315 . S
C205 O207 1.279 . S
O206 Cd198 2.223 . S
O206 C205 1.315 . S
O207 Cd197 2.240 . S
O207 C205 1.279 . S
O208 Cd198 2.297 . S
O208 C203 1.247 . S
O209 Cd198 2.439 . S
O209 C203 1.208 . S
O210 Cd211 2.223 . S
O210 C218 1.315 . S
Cd211 O210 2.223 . S
Cd211 O214 2.297 . S
Cd211 O215 2.439 . S
Cd211 O221 2.240 . S
Cd212 O213 2.240 . S
Cd212 O220 2.223 . S
Cd212 O222 2.297 . S
Cd212 O223 2.439 . S
O213 Cd212 2.240 . S
O213 C218 1.279 . S
O214 Cd211 2.297 . S
O214 C216 1.247 . S
O215 Cd211 2.439 . S
O215 C216 1.208 . S
C216 O214 1.247 . S
C216 O215 1.208 . S
C217 O222 1.247 . S
C217 O223 1.208 . S
C218 O210 1.315 . S
C218 O213 1.279 . S
C219 O220 1.315 . S
C219 O221 1.279 . S
O220 Cd212 2.223 . S
O220 C219 1.315 . S
O221 Cd211 2.240 . S
O221 C219 1.279 . S
O222 Cd212 2.297 . S
O222 C217 1.247 . S
O223 Cd212 2.439 . S
O223 C217 1.208 . S
O224 Cd225 2.223 . S
O224 C232 1.315 . S
Cd225 O224 2.223 . S
Cd225 O228 2.297 . S
Cd225 O229 2.439 . S
Cd225 O235 2.240 . S
Cd226 O227 2.240 . S
Cd226 O234 2.223 . S
Cd226 O236 2.297 . S
Cd226 O237 2.439 . S
O227 Cd226 2.240 . S
O227 C232 1.279 . S
O228 Cd225 2.297 . S
O228 C230 1.247 . S
O229 Cd225 2.439 . S
O229 C230 1.208 . S
C230 O228 1.247 . S
C230 O229 1.208 . S
C231 O236 1.247 . S
C231 O237 1.208 . S
C232 O224 1.315 . S
C232 O227 1.279 . S
C233 O234 1.315 . S
C233 O235 1.279 . S
O234 Cd226 2.223 . S
O234 C233 1.315 . S
O235 Cd225 2.240 . S
O235 C233 1.279 . S
O236 Cd226 2.297 . S
O236 C231 1.247 . S
O237 Cd226 2.439 . S
O237 C231 1.208 . S
O238 Cd239 2.223 . S
O238 C246 1.315 . S
Cd239 O238 2.223 . S
Cd239 O242 2.297 . S
Cd239 O243 2.439 . S
Cd239 O249 2.240 . S
Cd240 O241 2.240 . S
Cd240 O248 2.223 . S
Cd240 O250 2.297 . S
Cd240 O251 2.439 . S
O241 Cd240 2.240 . S
O241 C246 1.279 . S
O242 Cd239 2.297 . S
O242 C244 1.247 . S
O243 Cd239 2.439 . S
O243 C244 1.208 . S
C244 O242 1.247 . S
C244 O243 1.208 . S
C245 O250 1.247 . S
C245 O251 1.208 . S
C246 O238 1.315 . S
C246 O241 1.279 . S
C247 O248 1.315 . S
C247 O249 1.279 . S
O248 Cd240 2.223 . S
O248 C247 1.315 . S
O249 Cd239 2.240 . S
O249 C247 1.279 . S
O250 Cd240 2.297 . S
O250 C245 1.247 . S
O251 Cd240 2.439 . S
O251 C245 1.208 . S
O252 Cd253 2.223 . S
O252 C260 1.315 . S
Cd253 O252 2.223 . S
Cd253 O256 2.297 . S
Cd253 O257 2.439 . S
Cd253 O263 2.240 . S
Cd254 O255 2.240 . S
Cd254 O262 2.223 . S
Cd254 O264 2.297 . S
Cd254 O265 2.439 . S
O255 Cd254 2.240 . S
O255 C260 1.279 . S
O256 Cd253 2.297 . S
O256 C258 1.247 . S
O257 Cd253 2.439 . S
O257 C258 1.208 . S
C258 O256 1.247 . S
C258 O257 1.208 . S
C259 O264 1.247 . S
C259 O265 1.208 . S
C260 O252 1.315 . S
C260 O255 1.279 . S
C261 O262 1.315 . S
C261 O263 1.279 . S
O262 Cd254 2.223 . S
O262 C261 1.315 . S
O263 Cd253 2.240 . S
O263 C261 1.279 . S
O264 Cd254 2.297 . S
O264 C259 1.247 . S
O265 Cd254 2.439 . S
O265 C259 1.208 . S
O266 Cd267 2.223 . S
O266 C274 1.315 . S
Cd267 O266 2.223 . S
Cd267 O270 2.297 . S
Cd267 O271 2.439 . S
Cd267 O277 2.240 . S
Cd268 O269 2.240 . S
Cd268 O276 2.223 . S
Cd268 O278 2.297 . S
Cd268 O279 2.439 . S
O269 Cd268 2.240 . S
O269 C274 1.279 . S
O270 Cd267 2.297 . S
O270 C272 1.247 . S
O271 Cd267 2.439 . S
O271 C272 1.208 . S
C272 O270 1.247 . S
C272 O271 1.208 . S
C273 O278 1.247 . S
C273 O279 1.208 . S
C274 O266 1.315 . S
C274 O269 1.279 . S
C275 O276 1.315 . S
C275 O277 1.279 . S
O276 Cd268 2.223 . S
O276 C275 1.315 . S
O277 Cd267 2.240 . S
O277 C275 1.279 . S
O278 Cd268 2.297 . S
O278 C273 1.247 . S
O279 Cd268 2.439 . S
O279 C273 1.208 . S
O280 Cd281 2.223 . S
O280 C288 1.315 . S
Cd281 O280 2.223 . S
Cd281 O284 2.297 . S
Cd281 O285 2.426 1_554 S
Cd281 O291 2.240 1_554 S
Cd282 O283 2.241 1_556 S
Cd282 O290 2.224 1_556 S
Cd282 O292 2.296 . S
Cd282 O293 2.437 . S
O283 Cd282 2.241 1_554 S
O283 C288 1.279 . S
O284 Cd281 2.297 . S
O284 C286 1.247 . S
O285 Cd281 2.426 1_556 S
O285 C286 1.190 1_556 S
C286 O284 1.247 . S
C286 O285 1.190 1_554 S
C287 O292 1.247 . S
C287 O293 1.208 . S
C288 O280 1.315 . S
C288 O283 1.279 . S
C289 O290 1.315 . S
C289 O291 1.279 1_554 S
O290 Cd282 2.224 1_554 S
O290 C289 1.315 . S
O291 Cd281 2.240 1_556 S
O291 C289 1.279 1_556 S
O292 Cd282 2.296 . S
O292 C287 1.247 . S
O293 Cd282 2.437 . S
O293 C287 1.208 . S
O294 Cd295 2.223 . S
O294 C302 1.315 . S
Cd295 O294 2.223 . S
Cd295 O298 2.297 . S
Cd295 O299 2.439 . S
Cd295 O305 2.240 . S
Cd296 O297 2.240 . S
Cd296 O304 2.223 . S
Cd296 O306 2.297 . S
Cd296 O307 2.439 . S
O297 Cd296 2.240 . S
O297 C302 1.279 . S
O298 Cd295 2.297 . S
O298 C300 1.247 . S
O299 Cd295 2.439 . S
O299 C300 1.208 . S
C300 O298 1.247 . S
C300 O299 1.208 . S
C301 O306 1.247 . S
C301 O307 1.208 . S
C302 O294 1.315 . S
C302 O297 1.279 . S
C303 O304 1.315 . S
C303 O305 1.279 . S
O304 Cd296 2.223 . S
O304 C303 1.315 . S
O305 Cd295 2.240 . S
O305 C303 1.279 . S
O306 Cd296 2.297 . S
O306 C301 1.247 . S
O307 Cd296 2.439 . S
O307 C301 1.208 . S
O308 Cd309 2.223 . S
O308 C316 1.315 . S
Cd309 O308 2.223 . S
Cd309 O312 2.297 . S
Cd309 O313 2.439 . S
Cd309 O319 2.240 . S
Cd310 O311 2.240 . S
Cd310 O318 2.223 . S
Cd310 O320 2.297 . S
Cd310 O321 2.439 . S
O311 Cd310 2.240 . S
O311 C316 1.279 . S
O312 Cd309 2.297 . S
O312 C314 1.247 . S
O313 Cd309 2.439 . S
O313 C314 1.208 . S
C314 O312 1.247 . S
C314 O313 1.208 . S
C315 O320 1.247 . S
C315 O321 1.208 . S
C316 O308 1.315 . S
C316 O311 1.279 . S
C317 O318 1.315 . S
C317 O319 1.279 . S
O318 Cd310 2.223 . S
O318 C317 1.315 . S
O319 Cd309 2.240 . S
O319 C317 1.279 . S
O320 Cd310 2.297 . S
O320 C315 1.247 . S
O321 Cd310 2.439 . S
O321 C315 1.208 . S
O322 Cd323 2.223 . S
O322 C330 1.315 . S
Cd323 O322 2.223 . S
Cd323 O326 2.297 . S
Cd323 O327 2.439 . S
Cd323 O333 2.240 . S
Cd324 O325 2.240 . S
Cd324 O332 2.223 . S
Cd324 O334 2.297 . S
Cd324 O335 2.439 . S
O325 Cd324 2.240 . S
O325 C330 1.279 . S
O326 Cd323 2.297 . S
O326 C328 1.247 . S
O327 Cd323 2.439 . S
O327 C328 1.208 . S
C328 O326 1.247 . S
C328 O327 1.208 . S
C329 O334 1.247 . S
C329 O335 1.208 . S
C330 O322 1.315 . S
C330 O325 1.279 . S
C331 O332 1.315 . S
C331 O333 1.279 . S
O332 Cd324 2.223 . S
O332 C331 1.315 . S
O333 Cd323 2.240 . S
O333 C331 1.279 . S
O334 Cd324 2.297 . S
O334 C329 1.247 . S
O335 Cd324 2.439 . S
O335 C329 1.208 . S
Eu336 N367 2.657 1_545 S
Eu336 N374 2.609 1_544 S
Eu336 O380 2.576 1_554 S
Eu336 O381 2.612 . S
Eu336 O383 2.339 . S
Eu336 O384 2.563 . S
Eu336 O385 2.419 1_455 S
Eu336 O387 2.380 . S
Eu336 O388 2.432 1_554 S
Eu336 C400 2.848 1_454 S
C337 C340 1.429 . S
C337 C341 1.411 . S
C337 N344 1.377 . S
C338 C340 1.420 . S
C338 C342 1.423 . S
C338 C350 1.392 . S
C339 C341 1.420 . S
C339 C342 1.351 . S
C339 H362 0.931 . S
C340 C337 1.429 . S
C340 C338 1.420 . S
C340 N348 1.362 . S
C341 C337 1.411 . S
C341 C339 1.420 . S
C341 C346 1.395 . S
C342 C338 1.423 . S
C342 C339 1.351 . S
C342 H354 0.930 . S
C343 C345 1.400 . S
C343 C346 1.386 . S
C343 H355 0.930 . S
N344 C337 1.377 . S
N344 C345 1.321 . S
N344 Eu347 2.609 . S
C345 C343 1.400 . S
C345 N344 1.321 . S
C345 H352 0.930 . S
C346 C341 1.395 . S
C346 C343 1.386 . S
C346 H365 0.930 . S
Eu347 N344 2.609 . S
Eu347 N348 2.657 . S
Eu347 O381 2.380 . S
Eu347 O382 2.432 . S
Eu347 O386 2.558 . S
Eu347 O387 2.612 . S
Eu347 O389 2.346 . S
Eu347 O390 2.563 . S
Eu347 O391 2.419 . S
Eu347 C411 2.848 . S
N348 C340 1.362 . S
N348 Eu347 2.657 . S
N348 C349 1.362 . S
C349 N348 1.362 . S
C349 C351 1.397 1_554 S
C349 H356 0.917 1_554 S
C350 C338 1.392 . S
C350 C351 1.367 1_554 S
C350 H358 0.930 . S
C351 C349 1.397 1_556 S
C351 C350 1.367 1_556 S
C351 H353 0.930 . S
H352 C345 0.930 . S
H353 C351 0.930 . S
H354 C342 0.930 . S
H355 C343 0.930 . S
H356 C349 0.917 1_556 S
H357 C371 0.930 . S
H358 C350 0.930 . S
H359 C377 0.930 1_545 S
H360 C368 0.929 1_545 S
H361 C375 0.930 . S
H362 C339 0.931 . S
H363 C369 0.930 . S
H364 C402 0.930 . S
H365 C346 0.930 . S
H366 C401 0.931 . S
N367 Eu336 2.657 1_565 S
N367 C368 1.334 . S
N367 C372 1.362 . S
C368 H360 0.929 1_565 S
C368 N367 1.334 . S
C368 C371 1.413 . S
C369 H363 0.930 . S
C369 C370 1.392 . S
C369 C371 1.367 1_655 S
C370 C369 1.392 . S
C370 C372 1.420 1_655 S
C370 C402 1.423 . S
C371 H357 0.930 . S
C371 C368 1.413 . S
C371 C369 1.367 1_455 S
C372 N367 1.362 . S
C372 C370 1.420 1_455 S
C372 C376 1.429 1_554 S
H373 C378 0.930 . S
N374 Eu336 2.609 1_566 S
N374 C376 1.377 . S
N374 C377 1.321 . S
C375 H361 0.930 . S
C375 C377 1.400 . S
C375 C378 1.386 1_455 S
C376 C372 1.429 1_556 S
C376 N374 1.377 . S
C376 C379 1.411 1_455 S
C377 H359 0.930 1_565 S
C377 N374 1.321 . S
C377 C375 1.400 . S
C378 H373 0.930 . S
C378 C375 1.386 1_655 S
C378 C379 1.395 . S
C379 C376 1.411 1_655 S
C379 C378 1.395 . S
C379 C401 1.420 . S
O380 Eu336 2.576 1_556 S
O380 C400 1.242 1_455 S
O381 Eu336 2.612 . S
O381 Eu347 2.380 . S
O381 C392 1.276 . S
O382 Eu347 2.432 . S
O382 C399 1.264 . S
O383 Eu336 2.339 . S
O383 C399 1.254 . S
O384 Eu336 2.563 . S
O384 C392 1.235 . S
O385 Eu336 2.419 1_655 S
O385 C400 1.249 1_554 S
O386 Eu347 2.558 . S
O386 C411 1.257 . S
O387 Eu336 2.380 . S
O387 Eu347 2.612 . S
O387 C403 1.276 . S
O388 Eu336 2.432 1_556 S
O388 C410 1.264 . S
O389 Eu347 2.346 . S
O389 C410 1.249 1_554 S
O390 Eu347 2.563 . S
O390 C403 1.235 . S
O391 Eu347 2.419 . S
O391 C411 1.249 . S
C392 O381 1.276 . S
C392 O384 1.235 . S
C393 C395 1.393 1_556 S
C393 C397 1.395 . S
C393 C400 1.492 . S
C394 C395 1.392 . S
C394 C396 1.386 1_554 S
C395 C393 1.393 1_554 S
C395 C394 1.392 . S
C395 H412 0.930 . S
C396 C394 1.386 1_556 S
C396 C398 1.395 . S
C396 H413 0.930 . S
C397 C393 1.395 . S
C397 C398 1.379 . S
C397 H414 0.930 . S
C398 C396 1.395 . S
C398 C397 1.379 . S
C398 H415 0.930 . S
C399 O382 1.264 . S
C399 O383 1.254 . S
C400 Eu336 2.848 1_656 S
C400 O380 1.242 1_655 S
C400 O385 1.249 1_556 S
C400 C393 1.492 . S
C401 H366 0.931 . S
C401 C379 1.420 . S
C401 C402 1.351 1_556 S
C402 H364 0.930 . S
C402 C370 1.423 . S
C402 C401 1.351 1_554 S
C403 O387 1.276 . S
C403 O390 1.235 . S
C404 C405 1.393 . S
C404 C408 1.395 . S
C404 C411 1.492 . S
C405 C404 1.393 . S
C405 C406 1.392 . S
C405 H416 0.930 . S
C406 C405 1.392 . S
C406 C407 1.386 . S
C407 C406 1.386 . S
C407 C409 1.395 . S
C407 H417 0.930 . S
C408 C404 1.395 . S
C408 C409 1.379 . S
C408 H418 0.930 . S
C409 C407 1.395 . S
C409 C408 1.379 . S
C409 H419 0.930 . S
C410 O388 1.264 . S
C410 O389 1.249 1_556 S
C411 Eu347 2.848 . S
C411 O386 1.257 . S
C411 O391 1.249 . S
C411 C404 1.492 . S
H412 C395 0.930 . S
H413 C396 0.930 . S
H414 C397 0.930 . S
H415 C398 0.930 . S
H416 C405 0.930 . S
H417 C407 0.930 . S
H418 C408 0.930 . S
H419 C409 0.930 . S
Eu420 N451 2.657 . S
Eu420 N458 2.609 . S
Eu420 O464 2.558 . S
Eu420 O465 2.612 . S
Eu420 O467 2.339 . S
Eu420 O468 2.563 . S
Eu420 O469 2.419 . S
Eu420 O471 2.380 . S
Eu420 O472 2.432 . S
Eu420 C484 2.848 . S
C421 C424 1.429 . S
C421 C425 1.411 . S
C421 N428 1.377 . S
C422 C424 1.420 . S
C422 C426 1.423 . S
C422 C434 1.392 . S
C423 C425 1.420 . S
C423 C426 1.351 . S
C423 H446 0.931 . S
C424 C421 1.429 . S
C424 C422 1.420 . S
C424 N432 1.362 . S
C425 C421 1.411 . S
C425 C423 1.420 . S
C425 C430 1.395 . S
C426 C422 1.423 . S
C426 C423 1.351 . S
C426 H438 0.930 . S
C427 C429 1.400 . S
C427 C430 1.386 . S
C427 H439 0.930 . S
N428 C421 1.377 . S
N428 C429 1.321 . S
N428 Eu431 2.609 . S
C429 C427 1.400 . S
C429 N428 1.321 . S
C429 H436 0.930 . S
C430 C425 1.395 . S
C430 C427 1.386 . S
C430 H449 0.930 . S
Eu431 N428 2.609 . S
Eu431 N432 2.657 . S
Eu431 O465 2.380 . S
Eu431 O466 2.432 . S
Eu431 O470 2.558 . S
Eu431 O471 2.612 . S
Eu431 O473 2.339 . S
Eu431 O474 2.563 . S
Eu431 O475 2.419 . S
Eu431 C495 2.848 . S
N432 C424 1.362 . S
N432 Eu431 2.657 . S
N432 C433 1.334 . S
C433 N432 1.334 . S
C433 C435 1.413 . S
C433 H440 0.929 . S
C434 C422 1.392 . S
C434 C435 1.367 . S
C434 H442 0.930 . S
C435 C433 1.413 . S
C435 C434 1.367 . S
C435 H437 0.930 . S
H436 C429 0.930 . S
H437 C435 0.930 . S
H438 C426 0.930 . S
H439 C427 0.930 . S
H440 C433 0.929 . S
H441 C455 0.930 . S
H442 C434 0.930 . S
H443 C461 0.930 . S
H444 C452 0.929 . S
H445 C459 0.930 . S
H446 C423 0.931 . S
H447 C453 0.930 . S
H448 C486 0.930 . S
H449 C430 0.930 . S
H450 C485 0.931 . S
N451 Eu420 2.657 . S
N451 C452 1.334 . S
N451 C456 1.362 . S
C452 H444 0.929 . S
C452 N451 1.334 . S
C452 C455 1.413 . S
C453 H447 0.930 . S
C453 C454 1.392 . S
C453 C455 1.367 . S
C454 C453 1.392 . S
C454 C456 1.420 . S
C454 C486 1.423 . S
C455 H441 0.930 . S
C455 C452 1.413 . S
C455 C453 1.367 . S
C456 N451 1.362 . S
C456 C454 1.420 . S
C456 C460 1.429 . S
H457 C462 0.930 . S
N458 Eu420 2.609 . S
N458 C460 1.377 . S
N458 C461 1.321 . S
C459 H445 0.930 . S
C459 C461 1.400 . S
C459 C462 1.386 . S
C460 C456 1.429 . S
C460 N458 1.377 . S
C460 C463 1.411 . S
C461 H443 0.930 . S
C461 N458 1.321 . S
C461 C459 1.400 . S
C462 H457 0.930 . S
C462 C459 1.386 . S
C462 C463 1.395 . S
C463 C460 1.411 . S
C463 C462 1.395 . S
C463 C485 1.420 . S
O464 Eu420 2.558 . S
O464 C484 1.257 . S
O465 Eu420 2.612 . S
O465 Eu431 2.380 . S
O465 C476 1.276 . S
O466 Eu431 2.432 . S
O466 C483 1.264 . S
O467 Eu420 2.339 . S
O467 C483 1.254 . S
O468 Eu420 2.563 . S
O468 C476 1.235 . S
O469 Eu420 2.419 . S
O469 C484 1.249 . S
O470 Eu431 2.558 . S
O470 C495 1.257 . S
O471 Eu420 2.380 . S
O471 Eu431 2.612 . S
O471 C487 1.276 . S
O472 Eu420 2.432 . S
O472 C494 1.264 . S
O473 Eu431 2.339 . S
O473 C494 1.254 . S
O474 Eu431 2.563 . S
O474 C487 1.235 . S
O475 Eu431 2.419 . S
O475 C495 1.249 . S
C476 O465 1.276 . S
C476 O468 1.235 . S
C477 C479 1.393 . S
C477 C481 1.395 . S
C477 C484 1.492 . S
C478 C479 1.392 . S
C478 C480 1.386 . S
C479 C477 1.393 . S
C479 C478 1.392 . S
C479 H496 0.930 . S
C480 C478 1.386 . S
C480 C482 1.395 . S
C480 H497 0.930 . S
C481 C477 1.395 . S
C481 C482 1.379 . S
C481 H498 0.930 . S
C482 C480 1.395 . S
C482 C481 1.379 . S
C482 H499 0.930 . S
C483 O466 1.264 . S
C483 O467 1.254 . S
C484 Eu420 2.848 . S
C484 O464 1.257 . S
C484 O469 1.249 . S
C484 C477 1.492 . S
C485 H450 0.931 . S
C485 C463 1.420 . S
C485 C486 1.351 . S
C486 H448 0.930 . S
C486 C454 1.423 . S
C486 C485 1.351 . S
C487 O471 1.276 . S
C487 O474 1.235 . S
C488 C489 1.393 . S
C488 C492 1.395 . S
C488 C495 1.492 . S
C489 C488 1.393 . S
C489 C490 1.392 . S
C489 H500 0.930 . S
C490 C489 1.392 . S
C490 C491 1.386 . S
C491 C490 1.386 . S
C491 C493 1.395 . S
C491 H501 0.930 . S
C492 C488 1.395 . S
C492 C493 1.379 . S
C492 H502 0.930 . S
C493 C491 1.395 . S
C493 C492 1.379 . S
C493 H503 0.930 . S
C494 O472 1.264 . S
C494 O473 1.254 . S
C495 Eu431 2.848 . S
C495 O470 1.257 . S
C495 O475 1.249 . S
C495 C488 1.492 . S
H496 C479 0.930 . S
H497 C480 0.930 . S
H498 C481 0.930 . S
H499 C482 0.930 . S
H500 C489 0.930 . S
H501 C491 0.930 . S
H502 C492 0.930 . S
H503 C493 0.930 . S
Eu504 N535 2.657 . S
Eu504 N542 2.609 . S
Eu504 O548 2.558 . S
Eu504 O549 2.612 . S
Eu504 O551 2.339 . S
Eu504 O552 2.563 1_545 S
Eu504 O553 2.419 . S
Eu504 O555 2.380 . S
Eu504 O556 2.432 . S
Eu504 C568 2.848 . S
C505 C508 1.429 . S
C505 C509 1.411 . S
C505 N512 1.377 1_565 S
C506 C508 1.420 . S
C506 C510 1.423 . S
C506 C518 1.392 . S
C507 C509 1.420 . S
C507 C510 1.351 . S
C507 H530 0.931 . S
C508 C505 1.429 . S
C508 C506 1.420 . S
C508 N516 1.362 . S
C509 C505 1.411 . S
C509 C507 1.420 . S
C509 C514 1.395 . S
C510 C506 1.423 . S
C510 C507 1.351 . S
C510 H522 0.930 . S
C511 C513 1.416 . S
C511 C514 1.367 1_545 S
C511 H523 0.933 . S
N512 C505 1.377 1_545 S
N512 C513 1.321 . S
N512 Eu515 2.609 . S
C513 C511 1.416 . S
C513 N512 1.321 . S
C513 H520 0.930 . S
C514 C509 1.395 . S
C514 C511 1.367 1_565 S
C514 H533 0.930 . S
Eu515 N512 2.609 . S
Eu515 N516 2.657 1_545 S
Eu515 O549 2.380 . S
Eu515 O550 2.432 . S
Eu515 O554 2.558 . S
Eu515 O555 2.612 . S
Eu515 O557 2.339 . S
Eu515 O558 2.563 . S
Eu515 O559 2.419 . S
Eu515 C579 2.848 . S
N516 C508 1.362 . S
N516 Eu515 2.657 1_565 S
N516 C517 1.334 . S
C517 N516 1.334 . S
C517 C519 1.413 . S
C517 H524 0.929 . S
C518 C506 1.392 . S
C518 C519 1.367 . S
C518 H526 0.930 . S
C519 C517 1.413 . S
C519 C518 1.367 . S
C519 H521 0.930 . S
H520 C513 0.930 . S
H521 C519 0.930 . S
H522 C510 0.930 . S
H523 C511 0.933 . S
H524 C517 0.929 . S
H525 C539 0.930 . S
H526 C518 0.930 . S
H527 C545 0.930 . S
H528 C536 0.929 . S
H529 C543 0.930 . S
H530 C507 0.931 . S
H531 C537 0.930 . S
H532 C570 0.930 . S
H533 C514 0.930 . S
H534 C569 0.931 . S
N535 Eu504 2.657 . S
N535 C536 1.334 . S
N535 C540 1.362 . S
C536 H528 0.929 . S
C536 N535 1.334 . S
C536 C539 1.413 . S
C537 H531 0.930 . S
C537 C538 1.392 . S
C537 C539 1.367 . S
C538 C537 1.392 . S
C538 C540 1.420 . S
C538 C570 1.423 . S
C539 H525 0.930 . S
C539 C536 1.413 . S
C539 C537 1.367 . S
C540 N535 1.362 . S
C540 C538 1.420 . S
C540 C544 1.429 . S
H541 C546 0.930 . S
N542 Eu504 2.609 . S
N542 C544 1.377 . S
N542 C545 1.321 . S
C543 H529 0.930 . S
C543 C545 1.400 . S
C543 C546 1.386 . S
C544 C540 1.429 . S
C544 N542 1.377 . S
C544 C547 1.411 . S
C545 H527 0.930 . S
C545 N542 1.321 . S
C545 C543 1.400 . S
C546 H541 0.930 . S
C546 C543 1.386 . S
C546 C547 1.395 . S
C547 C544 1.411 . S
C547 C546 1.395 . S
C547 C569 1.420 . S
O548 Eu504 2.558 . S
O548 C568 1.257 . S
O549 Eu504 2.612 . S
O549 Eu515 2.380 . S
O549 C560 1.276 1_545 S
O550 Eu515 2.432 . S
O550 C567 1.264 . S
O551 Eu504 2.339 . S
O551 C567 1.254 . S
O552 Eu504 2.563 1_565 S
O552 C560 1.235 . S
O553 Eu504 2.419 . S
O553 C568 1.249 . S
O554 Eu515 2.558 . S
O554 C579 1.257 . S
O555 Eu504 2.380 . S
O555 Eu515 2.612 . S
O555 C571 1.276 . S
O556 Eu504 2.432 . S
O556 C578 1.264 . S
O557 Eu515 2.339 . S
O557 C578 1.254 . S
O558 Eu515 2.563 . S
O558 C571 1.235 . S
O559 Eu515 2.419 . S
O559 C579 1.249 . S
C560 O549 1.276 1_565 S
C560 O552 1.235 . S
C561 C563 1.407 . S
C561 C565 1.395 . S
C561 C568 1.492 . S
C562 C563 1.379 1_565 S
C562 C564 1.386 . S
C563 C561 1.407 . S
C563 C562 1.379 1_545 S
C563 H580 0.932 . S
C564 C562 1.386 . S
C564 C566 1.370 1_565 S
C564 H581 0.930 . S
C565 C561 1.395 . S
C565 C566 1.400 . S
C565 H582 0.930 . S
C566 C564 1.370 1_545 S
C566 C565 1.400 . S
C566 H583 0.934 . S
C567 O550 1.264 . S
C567 O551 1.254 . S
C568 Eu504 2.848 . S
C568 O548 1.257 . S
C568 O553 1.249 . S
C568 C561 1.492 . S
C569 H534 0.931 . S
C569 C547 1.420 . S
C569 C570 1.351 . S
C570 H532 0.930 . S
C570 C538 1.423 . S
C570 C569 1.351 . S
C571 O555 1.276 . S
C571 O558 1.235 . S
C572 C573 1.393 . S
C572 C576 1.395 . S
C572 C579 1.492 . S
C573 C572 1.393 . S
C573 C574 1.392 . S
C573 H584 0.930 . S
C574 C573 1.392 . S
C574 C575 1.386 . S
C575 C574 1.386 . S
C575 C577 1.395 . S
C575 H585 0.930 . S
C576 C572 1.395 . S
C576 C577 1.379 . S
C576 H586 0.930 . S
C577 C575 1.395 . S
C577 C576 1.379 . S
C577 H587 0.930 . S
C578 O556 1.264 . S
C578 O557 1.254 . S
C579 Eu515 2.848 . S
C579 O554 1.257 . S
C579 O559 1.249 . S
C579 C572 1.492 . S
H580 C563 0.932 . S
H581 C564 0.930 . S
H582 C565 0.930 . S
H583 C566 0.934 . S
H584 C573 0.930 . S
H585 C575 0.930 . S
H586 C576 0.930 . S
H587 C577 0.930 . S
Eu588 N619 2.657 . S
Eu588 N626 2.609 . S
Eu588 O632 2.558 . S
Eu588 O633 2.612 . S
Eu588 O635 2.339 . S
Eu588 O636 2.563 . S
Eu588 O637 2.419 . S
Eu588 O639 2.380 . S
Eu588 O640 2.432 . S
Eu588 C652 2.848 . S
C589 C592 1.429 . S
C589 C593 1.411 . S
C589 N596 1.377 . S
C590 C592 1.420 . S
C590 C594 1.423 . S
C590 C602 1.392 . S
C591 C593 1.420 . S
C591 C594 1.351 . S
C591 H614 0.931 . S
C592 C589 1.429 . S
C592 C590 1.420 . S
C592 N600 1.362 . S
C593 C589 1.411 . S
C593 C591 1.420 . S
C593 C598 1.395 . S
C594 C590 1.423 . S
C594 C591 1.351 . S
C594 H606 0.930 . S
C595 C597 1.400 . S
C595 C598 1.386 . S
C595 H607 0.930 . S
N596 C589 1.377 . S
N596 C597 1.321 . S
N596 Eu599 2.609 . S
C597 C595 1.400 . S
C597 N596 1.321 . S
C597 H604 0.930 . S
C598 C593 1.395 . S
C598 C595 1.386 . S
C598 H617 0.930 . S
Eu599 N596 2.609 . S
Eu599 N600 2.657 . S
Eu599 O633 2.380 . S
Eu599 O634 2.432 . S
Eu599 O638 2.558 . S
Eu599 O639 2.612 . S
Eu599 O641 2.339 . S
Eu599 O642 2.563 . S
Eu599 O643 2.419 . S
Eu599 C663 2.848 . S
N600 C592 1.362 . S
N600 Eu599 2.657 . S
N600 C601 1.334 . S
C601 N600 1.334 . S
C601 C603 1.413 . S
C601 H608 0.929 . S
C602 C590 1.392 . S
C602 C603 1.367 . S
C602 H610 0.930 . S
C603 C601 1.413 . S
C603 C602 1.367 . S
C603 H605 0.930 . S
H604 C597 0.930 . S
H605 C603 0.930 . S
H606 C594 0.930 . S
H607 C595 0.930 . S
H608 C601 0.929 . S
H609 C623 0.930 . S
H610 C602 0.930 . S
H611 C629 0.930 . S
H612 C620 0.929 . S
H613 C627 0.930 . S
H614 C591 0.931 . S
H615 C621 0.930 . S
H616 C654 0.930 . S
H617 C598 0.930 . S
H618 C653 0.931 . S
N619 Eu588 2.657 . S
N619 C620 1.334 . S
N619 C624 1.362 . S
C620 H612 0.929 . S
C620 N619 1.334 . S
C620 C623 1.413 . S
C621 H615 0.930 . S
C621 C622 1.392 . S
C621 C623 1.367 . S
C622 C621 1.392 . S
C622 C624 1.420 . S
C622 C654 1.423 . S
C623 H609 0.930 . S
C623 C620 1.413 . S
C623 C621 1.367 . S
C624 N619 1.362 . S
C624 C622 1.420 . S
C624 C628 1.429 . S
H625 C630 0.930 . S
N626 Eu588 2.609 . S
N626 C628 1.377 . S
N626 C629 1.321 . S
C627 H613 0.930 . S
C627 C629 1.400 . S
C627 C630 1.386 . S
C628 C624 1.429 . S
C628 N626 1.377 . S
C628 C631 1.411 . S
C629 H611 0.930 . S
C629 N626 1.321 . S
C629 C627 1.400 . S
C630 H625 0.930 . S
C630 C627 1.386 . S
C630 C631 1.395 . S
C631 C628 1.411 . S
C631 C630 1.395 . S
C631 C653 1.420 . S
O632 Eu588 2.558 . S
O632 C652 1.257 . S
O633 Eu588 2.612 . S
O633 Eu599 2.380 . S
O633 C644 1.276 . S
O634 Eu599 2.432 . S
O634 C651 1.264 . S
O635 Eu588 2.339 . S
O635 C651 1.254 . S
O636 Eu588 2.563 . S
O636 C644 1.235 . S
O637 Eu588 2.419 . S
O637 C652 1.249 . S
O638 Eu599 2.558 . S
O638 C663 1.257 . S
O639 Eu588 2.380 . S
O639 Eu599 2.612 . S
O639 C655 1.276 . S
O640 Eu588 2.432 . S
O640 C662 1.264 . S
O641 Eu599 2.339 . S
O641 C662 1.254 . S
O642 Eu599 2.563 . S
O642 C655 1.235 . S
O643 Eu599 2.419 . S
O643 C663 1.249 . S
C644 O633 1.276 . S
C644 O636 1.235 . S
C645 C647 1.393 . S
C645 C649 1.395 . S
C645 C652 1.492 . S
C646 C647 1.392 . S
C646 C648 1.386 . S
C647 C645 1.393 . S
C647 C646 1.392 . S
C647 H664 0.930 . S
C648 C646 1.386 . S
C648 C650 1.395 . S
C648 H665 0.930 . S
C649 C645 1.395 . S
C649 C650 1.379 . S
C649 H666 0.930 . S
C650 C648 1.395 . S
C650 C649 1.379 . S
C650 H667 0.930 . S
C651 O634 1.264 . S
C651 O635 1.254 . S
C652 Eu588 2.848 . S
C652 O632 1.257 . S
C652 O637 1.249 . S
C652 C645 1.492 . S
C653 H618 0.931 . S
C653 C631 1.420 . S
C653 C654 1.351 . S
C654 H616 0.930 . S
C654 C622 1.423 . S
C654 C653 1.351 . S
C655 O639 1.276 . S
C655 O642 1.235 . S
C656 C657 1.393 . S
C656 C660 1.395 . S
C656 C663 1.492 . S
C657 C656 1.393 . S
C657 C658 1.392 . S
C657 H668 0.930 . S
C658 C657 1.392 . S
C658 C659 1.386 . S
C659 C658 1.386 . S
C659 C661 1.395 . S
C659 H669 0.930 . S
C660 C656 1.395 . S
C660 C661 1.379 . S
C660 H670 0.930 . S
C661 C659 1.395 . S
C661 C660 1.379 . S
C661 H671 0.930 . S
C662 O640 1.264 . S
C662 O641 1.254 . S
C663 Eu599 2.848 . S
C663 O638 1.257 . S
C663 O643 1.249 . S
C663 C656 1.492 . S
H664 C647 0.930 . S
H665 C648 0.930 . S
H666 C649 0.930 . S
H667 C650 0.930 . S
H668 C657 0.930 . S
H669 C659 0.930 . S
H670 C660 0.930 . S
H671 C661 0.930 . S
Eu672 N703 2.657 . S
Eu672 N710 2.609 . S
Eu672 O716 2.558 . S
Eu672 O717 2.612 . S
Eu672 O719 2.339 . S
Eu672 O720 2.563 . S
Eu672 O721 2.419 . S
Eu672 O723 2.380 . S
Eu672 O724 2.432 . S
Eu672 C736 2.848 . S
C673 C676 1.429 . S
C673 C677 1.411 . S
C673 N680 1.377 . S
C674 C676 1.420 . S
C674 C678 1.423 . S
C674 C686 1.392 . S
C675 C677 1.420 . S
C675 C678 1.351 . S
C675 H698 0.931 . S
C676 C673 1.429 . S
C676 C674 1.420 . S
C676 N684 1.362 . S
C677 C673 1.411 . S
C677 C675 1.420 . S
C677 C682 1.395 . S
C678 C674 1.423 . S
C678 C675 1.351 . S
C678 H690 0.930 . S
C679 C681 1.400 . S
C679 C682 1.386 . S
C679 H691 0.930 . S
N680 C673 1.377 . S
N680 C681 1.321 . S
N680 Eu683 2.609 1_565 S
C681 C679 1.400 . S
C681 N680 1.321 . S
C681 H688 0.930 1_565 S
C682 C677 1.395 . S
C682 C679 1.386 . S
C682 H701 0.930 . S
Eu683 N680 2.609 1_545 S
Eu683 N684 2.657 1_545 S
Eu683 O717 2.380 . S
Eu683 O718 2.432 . S
Eu683 O722 2.558 1_545 S
Eu683 O723 2.612 . S
Eu683 O725 2.339 . S
Eu683 O726 2.563 . S
Eu683 O727 2.419 1_545 S
Eu683 C747 2.848 1_545 S
N684 C676 1.362 . S
N684 Eu683 2.657 1_565 S
N684 C685 1.334 . S
C685 N684 1.334 . S
C685 C687 1.413 . S
C685 H692 0.929 . S
C686 C674 1.392 . S
C686 C687 1.367 . S
C686 H694 0.930 . S
C687 C685 1.413 . S
C687 C686 1.367 . S
C687 H689 0.930 1_455 S
H688 C681 0.930 1_545 S
H689 C687 0.930 1_655 S
H690 C678 0.930 . S
H691 C679 0.930 . S
H692 C685 0.929 . S
H693 C707 0.930 . S
H694 C686 0.930 . S
H695 C713 0.930 . S
H696 C704 0.929 . S
H697 C711 0.930 1_655 S
H698 C675 0.931 . S
H699 C705 0.930 . S
H700 C738 0.930 . S
H701 C682 0.930 . S
H702 C737 0.931 . S
N703 Eu672 2.657 . S
N703 C704 1.334 . S
N703 C708 1.362 . S
C704 H696 0.929 . S
C704 N703 1.334 . S
C704 C707 1.413 . S
C705 H699 0.930 . S
C705 C706 1.392 . S
C705 C707 1.367 . S
C706 C705 1.392 . S
C706 C708 1.420 . S
C706 C738 1.423 . S
C707 H693 0.930 . S
C707 C704 1.413 . S
C707 C705 1.367 . S
C708 N703 1.362 . S
C708 C706 1.420 . S
C708 C712 1.429 . S
H709 C714 0.930 . S
N710 Eu672 2.609 . S
N710 C712 1.377 . S
N710 C713 1.321 . S
C711 H697 0.930 1_455 S
C711 C713 1.400 . S
C711 C714 1.386 . S
C712 C708 1.429 . S
C712 N710 1.377 . S
C712 C715 1.411 . S
C713 H695 0.930 . S
C713 N710 1.321 . S
C713 C711 1.400 . S
C714 H709 0.930 . S
C714 C711 1.386 . S
C714 C715 1.395 . S
C715 C712 1.411 . S
C715 C714 1.395 . S
C715 C737 1.420 . S
O716 Eu672 2.558 . S
O716 C736 1.257 . S
O717 Eu672 2.612 . S
O717 Eu683 2.380 . S
O717 C728 1.276 . S
O718 Eu683 2.432 . S
O718 C735 1.264 . S
O719 Eu672 2.339 . S
O719 C735 1.254 . S
O720 Eu672 2.563 . S
O720 C728 1.235 . S
O721 Eu672 2.419 . S
O721 C736 1.249 . S
O722 Eu683 2.558 1_565 S
O722 C747 1.257 . S
O723 Eu672 2.380 . S
O723 Eu683 2.612 . S
O723 C739 1.276 . S
O724 Eu672 2.432 . S
O724 C746 1.264 . S
O725 Eu683 2.339 . S
O725 C746 1.254 . S
O726 Eu683 2.563 . S
O726 C739 1.235 . S
O727 Eu683 2.419 1_565 S
O727 C747 1.249 . S
C728 O717 1.276 . S
C728 O720 1.235 . S
C729 C731 1.393 . S
C729 C733 1.395 . S
C729 C736 1.492 . S
C730 C731 1.392 . S
C730 C732 1.386 . S
C731 C729 1.393 . S
C731 C730 1.392 . S
C731 H748 0.930 . S
C732 C730 1.386 . S
C732 C734 1.395 . S
C732 H749 0.930 . S
C733 C729 1.395 . S
C733 C734 1.379 . S
C733 H750 0.930 . S
C734 C732 1.395 . S
C734 C733 1.379 . S
C734 H751 0.930 . S
C735 O718 1.264 . S
C735 O719 1.254 . S
C736 Eu672 2.848 . S
C736 O716 1.257 . S
C736 O721 1.249 . S
C736 C729 1.492 . S
C737 H702 0.931 . S
C737 C715 1.420 . S
C737 C738 1.351 . S
C738 H700 0.930 . S
C738 C706 1.423 . S
C738 C737 1.351 . S
C739 O723 1.276 . S
C739 O726 1.235 . S
C740 C741 1.393 . S
C740 C744 1.395 . S
C740 C747 1.492 . S
C741 C740 1.393 . S
C741 C742 1.392 . S
C741 H752 0.930 . S
C742 C741 1.392 . S
C742 C743 1.386 . S
C743 C742 1.386 . S
C743 C745 1.395 . S
C743 H753 0.930 . S
C744 C740 1.395 . S
C744 C745 1.379 . S
C744 H754 0.930 . S
C745 C743 1.395 . S
C745 C744 1.379 . S
C745 H755 0.930 . S
C746 O724 1.264 . S
C746 O725 1.254 . S
C747 Eu683 2.848 1_565 S
C747 O722 1.257 . S
C747 O727 1.249 . S
C747 C740 1.492 . S
H748 C731 0.930 . S
H749 C732 0.930 . S
H750 C733 0.930 . S
H751 C734 0.930 . S
H752 C741 0.930 . S
H753 C743 0.930 . S
H754 C744 0.930 . S
H755 C745 0.930 . S
Eu756 N787 2.657 . S
Eu756 N794 2.609 . S
Eu756 O800 2.558 . S
Eu756 O801 2.612 . S
Eu756 O803 2.339 . S
Eu756 O804 2.563 . S
Eu756 O805 2.419 . S
Eu756 O807 2.380 . S
Eu756 O808 2.432 . S
Eu756 C820 2.848 . S
C757 C760 1.429 . S
C757 C761 1.411 . S
C757 N764 1.377 . S
C758 C760 1.420 . S
C758 C762 1.423 . S
C758 C770 1.392 . S
C759 C761 1.420 . S
C759 C762 1.351 . S
C759 H782 0.931 . S
C760 C757 1.429 . S
C760 C758 1.420 . S
C760 N768 1.362 . S
C761 C757 1.411 . S
C761 C759 1.420 . S
C761 C766 1.395 . S
C762 C758 1.423 . S
C762 C759 1.351 . S
C762 H774 0.930 . S
C763 C765 1.400 . S
C763 C766 1.386 . S
C763 H775 0.930 . S
N764 C757 1.377 . S
N764 C765 1.321 . S
N764 Eu767 2.609 . S
C765 C763 1.400 . S
C765 N764 1.321 . S
C765 H772 0.930 . S
C766 C761 1.395 . S
C766 C763 1.386 . S
C766 H785 0.930 . S
Eu767 N764 2.609 . S
Eu767 N768 2.657 . S
Eu767 O801 2.380 . S
Eu767 O802 2.432 . S
Eu767 O806 2.558 . S
Eu767 O807 2.612 . S
Eu767 O809 2.339 . S
Eu767 O810 2.563 . S
Eu767 O811 2.419 . S
Eu767 C831 2.848 . S
N768 C760 1.362 . S
N768 Eu767 2.657 . S
N768 C769 1.334 . S
C769 N768 1.334 . S
C769 C771 1.413 . S
C769 H776 0.929 . S
C770 C758 1.392 . S
C770 C771 1.367 . S
C770 H778 0.930 . S
C771 C769 1.413 . S
C771 C770 1.367 . S
C771 H773 0.930 . S
H772 C765 0.930 . S
H773 C771 0.930 . S
H774 C762 0.930 . S
H775 C763 0.930 . S
H776 C769 0.929 . S
H777 C791 0.930 . S
H778 C770 0.930 . S
H779 C797 0.930 . S
H780 C788 0.929 . S
H781 C795 0.930 . S
H782 C759 0.931 . S
H783 C789 0.930 . S
H784 C822 0.930 . S
H785 C766 0.930 . S
H786 C821 0.931 . S
N787 Eu756 2.657 . S
N787 C788 1.334 . S
N787 C792 1.362 . S
C788 H780 0.929 . S
C788 N787 1.334 . S
C788 C791 1.413 . S
C789 H783 0.930 . S
C789 C790 1.392 . S
C789 C791 1.367 . S
C790 C789 1.392 . S
C790 C792 1.420 . S
C790 C822 1.423 . S
C791 H777 0.930 . S
C791 C788 1.413 . S
C791 C789 1.367 . S
C792 N787 1.362 . S
C792 C790 1.420 . S
C792 C796 1.429 . S
H793 C798 0.930 . S
N794 Eu756 2.609 . S
N794 C796 1.377 . S
N794 C797 1.321 . S
C795 H781 0.930 . S
C795 C797 1.400 . S
C795 C798 1.386 . S
C796 C792 1.429 . S
C796 N794 1.377 . S
C796 C799 1.411 . S
C797 H779 0.930 . S
C797 N794 1.321 . S
C797 C795 1.400 . S
C798 H793 0.930 . S
C798 C795 1.386 . S
C798 C799 1.395 . S
C799 C796 1.411 . S
C799 C798 1.395 . S
C799 C821 1.420 . S
O800 Eu756 2.558 . S
O800 C820 1.257 . S
O801 Eu756 2.612 . S
O801 Eu767 2.380 . S
O801 C812 1.276 . S
O802 Eu767 2.432 . S
O802 C819 1.264 . S
O803 Eu756 2.339 . S
O803 C819 1.254 . S
O804 Eu756 2.563 . S
O804 C812 1.235 . S
O805 Eu756 2.419 . S
O805 C820 1.249 . S
O806 Eu767 2.558 . S
O806 C831 1.257 . S
O807 Eu756 2.380 . S
O807 Eu767 2.612 . S
O807 C823 1.276 . S
O808 Eu756 2.432 . S
O808 C830 1.264 . S
O809 Eu767 2.339 . S
O809 C830 1.254 . S
O810 Eu767 2.563 . S
O810 C823 1.235 . S
O811 Eu767 2.419 . S
O811 C831 1.249 . S
C812 O801 1.276 . S
C812 O804 1.235 . S
C813 C815 1.393 . S
C813 C817 1.395 . S
C813 C820 1.492 . S
C814 C815 1.392 . S
C814 C816 1.386 . S
C815 C813 1.393 . S
C815 C814 1.392 . S
C815 H832 0.930 . S
C816 C814 1.386 . S
C816 C818 1.395 . S
C816 H833 0.930 . S
C817 C813 1.395 . S
C817 C818 1.379 . S
C817 H834 0.930 . S
C818 C816 1.395 . S
C818 C817 1.379 . S
C818 H835 0.930 . S
C819 O802 1.264 . S
C819 O803 1.254 . S
C820 Eu756 2.848 . S
C820 O800 1.257 . S
C820 O805 1.249 . S
C820 C813 1.492 . S
C821 H786 0.931 . S
C821 C799 1.420 . S
C821 C822 1.351 . S
C822 H784 0.930 . S
C822 C790 1.423 . S
C822 C821 1.351 . S
C823 O807 1.276 . S
C823 O810 1.235 . S
C824 C825 1.393 . S
C824 C828 1.395 . S
C824 C831 1.492 . S
C825 C824 1.393 . S
C825 C826 1.392 . S
C825 H836 0.930 . S
C826 C825 1.392 . S
C826 C827 1.386 . S
C827 C826 1.386 . S
C827 C829 1.395 . S
C827 H837 0.930 . S
C828 C824 1.395 . S
C828 C829 1.379 . S
C828 H838 0.930 . S
C829 C827 1.395 . S
C829 C828 1.379 . S
C829 H839 0.930 . S
C830 O808 1.264 . S
C830 O809 1.254 . S
C831 Eu767 2.848 . S
C831 O806 1.257 . S
C831 O811 1.249 . S
C831 C824 1.492 . S
H832 C815 0.930 . S
H833 C816 0.930 . S
H834 C817 0.930 . S
H835 C818 0.930 . S
H836 C825 0.930 . S
H837 C827 0.930 . S
H838 C828 0.930 . S
H839 C829 0.930 . S
Eu840 N871 2.657 . S
Eu840 N878 2.609 . S
Eu840 O884 2.548 1_545 S
Eu840 O885 2.612 . S
Eu840 O887 2.339 . S
Eu840 O888 2.563 . S
Eu840 O889 2.419 . S
Eu840 O891 2.380 . S
Eu840 O892 2.432 1_545 S
Eu840 C904 2.848 . S
C841 C844 1.429 . S
C841 C845 1.411 . S
C841 N848 1.377 . S
C842 C844 1.420 . S
C842 C846 1.423 . S
C842 C854 1.392 1_545 S
C843 C845 1.420 . S
C843 C846 1.351 . S
C843 H866 0.931 . S
C844 C841 1.429 . S
C844 C842 1.420 . S
C844 N852 1.362 . S
C845 C841 1.411 . S
C845 C843 1.420 . S
C845 C850 1.395 . S
C846 C842 1.423 . S
C846 C843 1.351 . S
C846 H858 0.930 . S
C847 C849 1.400 . S
C847 C850 1.386 . S
C847 H859 0.930 . S
N848 C841 1.377 . S
N848 C849 1.321 . S
N848 Eu851 2.609 . S
C849 C847 1.400 . S
C849 N848 1.321 . S
C849 H856 0.930 . S
C850 C845 1.395 . S
C850 C847 1.386 . S
C850 H869 0.930 . S
Eu851 N848 2.609 . S
Eu851 N852 2.657 . S
Eu851 O885 2.380 1_556 S
Eu851 O886 2.432 1_556 S
Eu851 O890 2.558 . S
Eu851 O891 2.612 1_556 S
Eu851 O893 2.339 . S
Eu851 O894 2.563 1_556 S
Eu851 O895 2.419 . S
Eu851 C915 2.848 . S
N852 C844 1.362 . S
N852 Eu851 2.657 . S
N852 C853 1.334 1_545 S
C853 N852 1.334 1_565 S
C853 C855 1.413 . S
C853 H860 0.929 . S
C854 C842 1.392 1_565 S
C854 C855 1.367 . S
C854 H862 0.930 . S
C855 C853 1.413 . S
C855 C854 1.367 . S
C855 H857 0.930 . S
H856 C849 0.930 . S
H857 C855 0.930 . S
H858 C846 0.930 . S
H859 C847 0.930 . S
H860 C853 0.929 . S
H861 C875 0.930 . S
H862 C854 0.930 . S
H863 C881 0.930 . S
H864 C872 0.929 . S
H865 C879 0.930 . S
H866 C843 0.931 . S
H867 C873 0.930 . S
H868 C906 0.930 . S
H869 C850 0.930 . S
H870 C905 0.931 . S
N871 Eu840 2.657 . S
N871 C872 1.334 . S
N871 C876 1.362 . S
C872 H864 0.929 . S
C872 N871 1.334 . S
C872 C875 1.413 . S
C873 H867 0.930 . S
C873 C874 1.392 . S
C873 C875 1.367 . S
C874 C873 1.392 . S
C874 C876 1.420 . S
C874 C906 1.423 . S
C875 H861 0.930 . S
C875 C872 1.413 . S
C875 C873 1.367 . S
C876 N871 1.362 . S
C876 C874 1.420 . S
C876 C880 1.429 . S
H877 C882 0.930 . S
N878 Eu840 2.609 . S
N878 C880 1.377 . S
N878 C881 1.321 1_545 S
C879 H865 0.930 . S
C879 C881 1.400 . S
C879 C882 1.386 . S
C880 C876 1.429 . S
C880 N878 1.377 . S
C880 C883 1.411 . S
C881 H863 0.930 . S
C881 N878 1.321 1_565 S
C881 C879 1.400 . S
C882 H877 0.930 . S
C882 C879 1.386 . S
C882 C883 1.395 1_565 S
C883 C880 1.411 . S
C883 C882 1.395 1_545 S
C883 C905 1.420 . S
O884 Eu840 2.548 1_565 S
O884 C904 1.248 1_565 S
O885 Eu840 2.612 . S
O885 Eu851 2.380 1_554 S
O885 C896 1.276 . S
O886 Eu851 2.432 1_554 S
O886 C903 1.264 . S
O887 Eu840 2.339 . S
O887 C903 1.254 . S
O888 Eu840 2.563 . S
O888 C896 1.235 . S
O889 Eu840 2.419 . S
O889 C904 1.249 . S
O890 Eu851 2.558 . S
O890 C915 1.257 . S
O891 Eu840 2.380 . S
O891 Eu851 2.612 1_554 S
O891 C907 1.276 . S
O892 Eu840 2.432 1_565 S
O892 C914 1.266 . S
O893 Eu851 2.339 . S
O893 C914 1.249 1_546 S
O894 Eu851 2.563 1_554 S
O894 C907 1.235 . S
O895 Eu851 2.419 . S
O895 C915 1.249 . S
C896 O885 1.276 . S
C896 O888 1.235 . S
C897 C899 1.393 . S
C897 C901 1.395 1_545 S
C897 C904 1.492 . S
C898 C899 1.392 . S
C898 C900 1.386 1_545 S
C899 C897 1.393 . S
C899 C898 1.392 . S
C899 H916 0.930 . S
C900 C898 1.386 1_565 S
C900 C902 1.395 . S
C900 H917 0.930 . S
C901 C897 1.395 1_565 S
C901 C902 1.379 . S
C901 H918 0.930 . S
C902 C900 1.395 . S
C902 C901 1.379 . S
C902 H919 0.930 . S
C903 O886 1.264 . S
C903 O887 1.254 . S
C904 Eu840 2.848 . S
C904 O884 1.248 1_545 S
C904 O889 1.249 . S
C904 C897 1.492 . S
C905 H870 0.931 . S
C905 C883 1.420 . S
C905 C906 1.351 . S
C906 H868 0.930 . S
C906 C874 1.423 . S
C906 C905 1.351 . S
C907 O891 1.276 . S
C907 O894 1.235 . S
C908 C909 1.393 . S
C908 C912 1.395 . S
C908 C915 1.492 . S
C909 C908 1.393 . S
C909 C910 1.392 . S
C909 H920 0.930 . S
C910 C909 1.392 . S
C910 C911 1.386 . S
C911 C910 1.386 . S
C911 C913 1.395 . S
C911 H921 0.930 . S
C912 C908 1.395 . S
C912 C913 1.379 . S
C912 H922 0.930 . S
C913 C911 1.395 . S
C913 C912 1.379 . S
C913 H923 0.930 . S
C914 O892 1.266 . S
C914 O893 1.249 1_564 S
C915 Eu851 2.848 . S
C915 O890 1.257 . S
C915 O895 1.249 . S
C915 C908 1.492 . S
H916 C899 0.930 . S
H917 C900 0.930 . S
H918 C901 0.930 . S
H919 C902 0.930 . S
H920 C909 0.930 . S
H921 C911 0.930 . S
H922 C912 0.930 . S
H923 C913 0.930 . S
Eu924 N955 2.657 . S
Eu924 N962 2.609 . S
Eu924 O968 2.558 . S
Eu924 O969 2.612 . S
Eu924 O971 2.339 . S
Eu924 O972 2.563 . S
Eu924 O973 2.419 . S
Eu924 O975 2.380 . S
Eu924 O976 2.432 . S
Eu924 C988 2.848 . S
C925 C928 1.429 . S
C925 C929 1.411 . S
C925 N932 1.377 . S
C926 C928 1.420 . S
C926 C930 1.423 . S
C926 C938 1.392 . S
C927 C929 1.420 . S
C927 C930 1.351 . S
C927 H950 0.931 . S
C928 C925 1.429 . S
C928 C926 1.420 . S
C928 N936 1.362 . S
C929 C925 1.411 . S
C929 C927 1.420 . S
C929 C934 1.395 . S
C930 C926 1.423 . S
C930 C927 1.351 . S
C930 H942 0.930 . S
C931 C933 1.400 . S
C931 C934 1.386 . S
C931 H943 0.930 . S
N932 C925 1.377 . S
N932 C933 1.321 . S
N932 Eu935 2.609 . S
C933 C931 1.400 . S
C933 N932 1.321 . S
C933 H940 0.930 . S
C934 C929 1.395 . S
C934 C931 1.386 . S
C934 H953 0.930 . S
Eu935 N932 2.609 . S
Eu935 N936 2.657 . S
Eu935 O969 2.380 . S
Eu935 O970 2.432 . S
Eu935 O974 2.558 . S
Eu935 O975 2.612 . S
Eu935 O977 2.339 . S
Eu935 O978 2.563 . S
Eu935 O979 2.419 . S
Eu935 C999 2.848 . S
N936 C928 1.362 . S
N936 Eu935 2.657 . S
N936 C937 1.334 . S
C937 N936 1.334 . S
C937 C939 1.413 . S
C937 H944 0.929 . S
C938 C926 1.392 . S
C938 C939 1.367 . S
C938 H946 0.930 . S
C939 C937 1.413 . S
C939 C938 1.367 . S
C939 H941 0.930 . S
H940 C933 0.930 . S
H941 C939 0.930 . S
H942 C930 0.930 . S
H943 C931 0.930 . S
H944 C937 0.929 . S
H945 C959 0.930 . S
H946 C938 0.930 . S
H947 C965 0.930 . S
H948 C956 0.929 . S
H949 C963 0.930 . S
H950 C927 0.931 . S
H951 C957 0.930 . S
H952 C990 0.930 . S
H953 C934 0.930 . S
H954 C989 0.931 . S
N955 Eu924 2.657 . S
N955 C956 1.334 . S
N955 C960 1.362 . S
C956 H948 0.929 . S
C956 N955 1.334 . S
C956 C959 1.413 . S
C957 H951 0.930 . S
C957 C958 1.392 . S
C957 C959 1.367 . S
C958 C957 1.392 . S
C958 C960 1.420 . S
C958 C990 1.423 . S
C959 H945 0.930 . S
C959 C956 1.413 . S
C959 C957 1.367 . S
C960 N955 1.362 . S
C960 C958 1.420 . S
C960 C964 1.429 . S
H961 C966 0.930 . S
N962 Eu924 2.609 . S
N962 C964 1.377 . S
N962 C965 1.321 . S
C963 H949 0.930 . S
C963 C965 1.400 . S
C963 C966 1.386 . S
C964 C960 1.429 . S
C964 N962 1.377 . S
C964 C967 1.411 . S
C965 H947 0.930 . S
C965 N962 1.321 . S
C965 C963 1.400 . S
C966 H961 0.930 . S
C966 C963 1.386 . S
C966 C967 1.395 . S
C967 C964 1.411 . S
C967 C966 1.395 . S
C967 C989 1.420 . S
O968 Eu924 2.558 . S
O968 C988 1.257 . S
O969 Eu924 2.612 . S
O969 Eu935 2.380 . S
O969 C980 1.276 . S
O970 Eu935 2.432 . S
O970 C987 1.264 . S
O971 Eu924 2.339 . S
O971 C987 1.254 . S
O972 Eu924 2.563 . S
O972 C980 1.235 . S
O973 Eu924 2.419 . S
O973 C988 1.249 . S
O974 Eu935 2.558 . S
O974 C999 1.257 . S
O975 Eu924 2.380 . S
O975 Eu935 2.612 . S
O975 C991 1.276 . S
O976 Eu924 2.432 . S
O976 C998 1.264 . S
O977 Eu935 2.339 . S
O977 C998 1.254 . S
O978 Eu935 2.563 . S
O978 C991 1.235 . S
O979 Eu935 2.419 . S
O979 C999 1.249 . S
C980 O969 1.276 . S
C980 O972 1.235 . S
C981 C983 1.393 . S
C981 C985 1.395 . S
C981 C988 1.492 . S
C982 C983 1.392 . S
C982 C984 1.386 . S
C983 C981 1.393 . S
C983 C982 1.392 . S
C983 H1000 0.930 . S
C984 C982 1.386 . S
C984 C986 1.395 . S
C984 H1001 0.930 . S
C985 C981 1.395 . S
C985 C986 1.379 . S
C985 H1002 0.930 . S
C986 C984 1.395 . S
C986 C985 1.379 . S
C986 H1003 0.930 . S
C987 O970 1.264 . S
C987 O971 1.254 . S
C988 Eu924 2.848 . S
C988 O968 1.257 . S
C988 O973 1.249 . S
C988 C981 1.492 . S
C989 H954 0.931 . S
C989 C967 1.420 . S
C989 C990 1.351 . S
C990 H952 0.930 . S
C990 C958 1.423 . S
C990 C989 1.351 . S
C991 O975 1.276 . S
C991 O978 1.235 . S
C992 C993 1.393 . S
C992 C996 1.395 . S
C992 C999 1.492 . S
C993 C992 1.393 . S
C993 C994 1.392 . S
C993 H1004 0.930 . S
C994 C993 1.392 . S
C994 C995 1.386 . S
C995 C994 1.386 . S
C995 C997 1.395 . S
C995 H1005 0.930 . S
C996 C992 1.395 . S
C996 C997 1.379 . S
C996 H1006 0.930 . S
C997 C995 1.395 . S
C997 C996 1.379 . S
C997 H1007 0.930 . S
C998 O976 1.264 . S
C998 O977 1.254 . S
C999 Eu935 2.848 . S
C999 O974 1.257 . S
C999 O979 1.249 . S
C999 C992 1.492 . S
H1000 C983 0.930 . S
H1001 C984 0.930 . S
H1002 C985 0.930 . S
H1003 C986 0.930 . S
H1004 C993 0.930 . S
H1005 C995 0.930 . S
H1006 C996 0.930 . S
H1007 C997 0.930 . S
Eu1008 N1039 2.657 . S
Eu1008 N1046 2.609 . S
Eu1008 O1052 2.558 . S
Eu1008 O1053 2.581 1_554 S
Eu1008 O1055 2.339 . S
Eu1008 O1056 2.563 1_554 S
Eu1008 O1057 2.419 . S
Eu1008 O1059 2.380 . S
Eu1008 O1060 2.432 . S
Eu1008 C1072 2.848 . S
C1009 C1012 1.429 . S
C1009 C1013 1.411 . S
C1009 N1016 1.377 . S
C1010 C1012 1.420 . S
C1010 C1014 1.423 . S
C1010 C1022 1.392 . S
C1011 C1013 1.420 . S
C1011 C1014 1.351 . S
C1011 H1034 0.931 . S
C1012 C1009 1.429 . S
C1012 C1010 1.420 . S
C1012 N1020 1.362 . S
C1013 C1009 1.411 . S
C1013 C1011 1.420 . S
C1013 C1018 1.395 . S
C1014 C1010 1.423 . S
C1014 C1011 1.351 . S
C1014 H1026 0.930 . S
C1015 C1017 1.400 . S
C1015 C1018 1.386 . S
C1015 H1027 0.930 . S
N1016 C1009 1.377 . S
N1016 C1017 1.321 . S
N1016 Eu1019 2.609 1_556 S
C1017 C1015 1.400 . S
C1017 N1016 1.321 . S
C1017 H1024 0.930 . S
C1018 C1013 1.395 . S
C1018 C1015 1.386 . S
C1018 H1037 0.930 . S
Eu1019 N1016 2.609 1_554 S
Eu1019 N1020 2.657 1_554 S
Eu1019 O1053 2.356 1_554 S
Eu1019 O1054 2.432 . S
Eu1019 O1058 2.558 . S
Eu1019 O1059 2.612 . S
Eu1019 O1061 2.339 . S
Eu1019 O1062 2.563 . S
Eu1019 O1063 2.419 . S
Eu1019 C1083 2.848 . S
N1020 C1012 1.362 . S
N1020 Eu1019 2.657 1_556 S
N1020 C1021 1.334 . S
C1021 N1020 1.334 . S
C1021 C1023 1.413 . S
C1021 H1028 0.929 . S
C1022 C1010 1.392 . S
C1022 C1023 1.367 . S
C1022 H1030 0.930 . S
C1023 C1021 1.413 . S
C1023 C1022 1.367 . S
C1023 H1025 0.930 . S
H1024 C1017 0.930 . S
H1025 C1023 0.930 . S
H1026 C1014 0.930 . S
H1027 C1015 0.930 . S
H1028 C1021 0.929 . S
H1029 C1043 0.930 . S
H1030 C1022 0.930 . S
H1031 C1049 0.930 . S
H1032 C1040 0.929 . S
H1033 C1047 0.930 . S
H1034 C1011 0.931 . S
H1035 C1041 0.930 . S
H1036 C1074 0.930 . S
H1037 C1018 0.930 . S
H1038 C1073 0.931 . S
N1039 Eu1008 2.657 . S
N1039 C1040 1.334 . S
N1039 C1044 1.362 . S
C1040 H1032 0.929 . S
C1040 N1039 1.334 . S
C1040 C1043 1.413 . S
C1041 H1035 0.930 . S
C1041 C1042 1.392 . S
C1041 C1043 1.367 . S
C1042 C1041 1.392 . S
C1042 C1044 1.420 . S
C1042 C1074 1.423 . S
C1043 H1029 0.930 . S
C1043 C1040 1.413 . S
C1043 C1041 1.367 . S
C1044 N1039 1.362 . S
C1044 C1042 1.420 . S
C1044 C1048 1.429 . S
H1045 C1050 0.930 . S
N1046 Eu1008 2.609 . S
N1046 C1048 1.377 . S
N1046 C1049 1.321 . S
C1047 H1033 0.930 . S
C1047 C1049 1.400 . S
C1047 C1050 1.386 . S
C1048 C1044 1.429 . S
C1048 N1046 1.377 . S
C1048 C1051 1.411 . S
C1049 H1031 0.930 . S
C1049 N1046 1.321 . S
C1049 C1047 1.400 . S
C1050 H1045 0.930 . S
C1050 C1047 1.386 . S
C1050 C1051 1.395 . S
C1051 C1048 1.411 . S
C1051 C1050 1.395 . S
C1051 C1073 1.420 . S
O1052 Eu1008 2.558 . S
O1052 C1072 1.257 . S
O1053 Eu1008 2.581 1_556 S
O1053 Eu1019 2.356 1_556 S
O1053 C1064 1.312 . S
O1054 Eu1019 2.432 . S
O1054 C1071 1.264 . S
O1055 Eu1008 2.339 . S
O1055 C1071 1.254 . S
O1056 Eu1008 2.563 1_556 S
O1056 C1064 1.235 . S
O1057 Eu1008 2.419 . S
O1057 C1072 1.249 . S
O1058 Eu1019 2.558 . S
O1058 C1083 1.257 . S
O1059 Eu1008 2.380 . S
O1059 Eu1019 2.612 . S
O1059 C1075 1.276 . S
O1060 Eu1008 2.432 . S
O1060 C1082 1.264 . S
O1061 Eu1019 2.339 . S
O1061 C1082 1.254 . S
O1062 Eu1019 2.563 . S
O1062 C1075 1.235 . S
O1063 Eu1019 2.419 . S
O1063 C1083 1.249 . S
C1064 O1053 1.312 . S
C1064 O1056 1.235 . S
C1065 C1067 1.393 . S
C1065 C1069 1.395 . S
C1065 C1072 1.492 . S
C1066 C1067 1.392 . S
C1066 C1068 1.386 . S
C1067 C1065 1.393 . S
C1067 C1066 1.392 . S
C1067 H1084 0.930 . S
C1068 C1066 1.386 . S
C1068 C1070 1.395 . S
C1068 H1085 0.930 . S
C1069 C1065 1.395 . S
C1069 C1070 1.379 . S
C1069 H1086 0.930 . S
C1070 C1068 1.395 . S
C1070 C1069 1.379 . S
C1070 H1087 0.930 . S
C1071 O1054 1.264 . S
C1071 O1055 1.254 . S
C1072 Eu1008 2.848 . S
C1072 O1052 1.257 . S
C1072 O1057 1.249 . S
C1072 C1065 1.492 . S
C1073 H1038 0.931 . S
C1073 C1051 1.420 . S
C1073 C1074 1.351 . S
C1074 H1036 0.930 . S
C1074 C1042 1.423 . S
C1074 C1073 1.351 . S
C1075 O1059 1.276 . S
C1075 O1062 1.235 . S
C1076 C1077 1.393 . S
C1076 C1080 1.395 . S
C1076 C1083 1.492 . S
C1077 C1076 1.393 . S
C1077 C1078 1.392 . S
C1077 H1088 0.930 . S
C1078 C1077 1.392 . S
C1078 C1079 1.386 . S
C1079 C1078 1.386 . S
C1079 C1081 1.395 . S
C1079 H1089 0.930 . S
C1080 C1076 1.395 . S
C1080 C1081 1.379 . S
C1080 H1090 0.930 . S
C1081 C1079 1.395 . S
C1081 C1080 1.379 . S
C1081 H1091 0.930 . S
C1082 O1060 1.264 . S
C1082 O1061 1.254 . S
C1083 Eu1019 2.848 . S
C1083 O1058 1.257 . S
C1083 O1063 1.249 . S
C1083 C1076 1.492 . S
H1084 C1067 0.930 . S
H1085 C1068 0.930 . S
H1086 C1069 0.930 . S
H1087 C1070 0.930 . S
H1088 C1077 0.930 . S
H1089 C1079 0.930 . S
H1090 C1080 0.930 . S
H1091 C1081 0.930 . S
Eu1092 N1123 2.657 . S
Eu1092 N1130 2.609 . S
Eu1092 O1136 2.558 . S
Eu1092 O1137 2.612 . S
Eu1092 O1139 2.339 . S
Eu1092 O1140 2.563 . S
Eu1092 O1141 2.419 . S
Eu1092 O1143 2.380 . S
Eu1092 O1144 2.432 . S
Eu1092 C1156 2.848 . S
C1093 C1096 1.429 . S
C1093 C1097 1.411 . S
C1093 N1100 1.377 . S
C1094 C1096 1.420 . S
C1094 C1098 1.423 . S
C1094 C1106 1.392 . S
C1095 C1097 1.420 . S
C1095 C1098 1.351 . S
C1095 H1118 0.931 . S
C1096 C1093 1.429 . S
C1096 C1094 1.420 . S
C1096 N1104 1.362 . S
C1097 C1093 1.411 . S
C1097 C1095 1.420 . S
C1097 C1102 1.395 . S
C1098 C1094 1.423 . S
C1098 C1095 1.351 . S
C1098 H1110 0.930 . S
C1099 C1101 1.400 . S
C1099 C1102 1.386 . S
C1099 H1111 0.930 . S
N1100 C1093 1.377 . S
N1100 C1101 1.321 . S
N1100 Eu1103 2.609 . S
C1101 C1099 1.400 . S
C1101 N1100 1.321 . S
C1101 H1108 0.930 . S
C1102 C1097 1.395 . S
C1102 C1099 1.386 . S
C1102 H1121 0.930 . S
Eu1103 N1100 2.609 . S
Eu1103 N1104 2.657 . S
Eu1103 O1137 2.380 . S
Eu1103 O1138 2.432 . S
Eu1103 O1142 2.558 . S
Eu1103 O1143 2.612 . S
Eu1103 O1145 2.339 . S
Eu1103 O1146 2.563 . S
Eu1103 O1147 2.419 . S
Eu1103 C1167 2.848 . S
N1104 C1096 1.362 . S
N1104 Eu1103 2.657 . S
N1104 C1105 1.334 . S
C1105 N1104 1.334 . S
C1105 C1107 1.413 . S
C1105 H1112 0.929 . S
C1106 C1094 1.392 . S
C1106 C1107 1.367 . S
C1106 H1114 0.930 . S
C1107 C1105 1.413 . S
C1107 C1106 1.367 . S
C1107 H1109 0.930 . S
H1108 C1101 0.930 . S
H1109 C1107 0.930 . S
H1110 C1098 0.930 . S
H1111 C1099 0.930 . S
H1112 C1105 0.929 . S
H1113 C1127 0.930 . S
H1114 C1106 0.930 . S
H1115 C1133 0.930 . S
H1116 C1124 0.929 . S
H1117 C1131 0.930 . S
H1118 C1095 0.931 . S
H1119 C1125 0.930 . S
H1120 C1158 0.930 . S
H1121 C1102 0.930 . S
H1122 C1157 0.931 . S
N1123 Eu1092 2.657 . S
N1123 C1124 1.334 . S
N1123 C1128 1.362 . S
C1124 H1116 0.929 . S
C1124 N1123 1.334 . S
C1124 C1127 1.413 . S
C1125 H1119 0.930 . S
C1125 C1126 1.392 . S
C1125 C1127 1.367 . S
C1126 C1125 1.392 . S
C1126 C1128 1.420 . S
C1126 C1158 1.423 . S
C1127 H1113 0.930 . S
C1127 C1124 1.413 . S
C1127 C1125 1.367 . S
C1128 N1123 1.362 . S
C1128 C1126 1.420 . S
C1128 C1132 1.429 . S
H1129 C1134 0.930 . S
N1130 Eu1092 2.609 . S
N1130 C1132 1.377 . S
N1130 C1133 1.321 . S
C1131 H1117 0.930 . S
C1131 C1133 1.400 . S
C1131 C1134 1.386 . S
C1132 C1128 1.429 . S
C1132 N1130 1.377 . S
C1132 C1135 1.411 . S
C1133 H1115 0.930 . S
C1133 N1130 1.321 . S
C1133 C1131 1.400 . S
C1134 H1129 0.930 . S
C1134 C1131 1.386 . S
C1134 C1135 1.395 . S
C1135 C1132 1.411 . S
C1135 C1134 1.395 . S
C1135 C1157 1.420 . S
O1136 Eu1092 2.558 . S
O1136 C1156 1.257 . S
O1137 Eu1092 2.612 . S
O1137 Eu1103 2.380 . S
O1137 C1148 1.276 . S
O1138 Eu1103 2.432 . S
O1138 C1155 1.264 . S
O1139 Eu1092 2.339 . S
O1139 C1155 1.254 . S
O1140 Eu1092 2.563 . S
O1140 C1148 1.235 . S
O1141 Eu1092 2.419 . S
O1141 C1156 1.249 . S
O1142 Eu1103 2.558 . S
O1142 C1167 1.257 . S
O1143 Eu1092 2.380 . S
O1143 Eu1103 2.612 . S
O1143 C1159 1.276 . S
O1144 Eu1092 2.432 . S
O1144 C1166 1.264 . S
O1145 Eu1103 2.339 . S
O1145 C1166 1.254 . S
O1146 Eu1103 2.563 . S
O1146 C1159 1.235 . S
O1147 Eu1103 2.419 . S
O1147 C1167 1.249 . S
C1148 O1137 1.276 . S
C1148 O1140 1.235 . S
C1149 C1151 1.393 . S
C1149 C1153 1.395 . S
C1149 C1156 1.492 . S
C1150 C1151 1.392 . S
C1150 C1152 1.386 . S
C1151 C1149 1.393 . S
C1151 C1150 1.392 . S
C1151 H1168 0.930 . S
C1152 C1150 1.386 . S
C1152 C1154 1.395 . S
C1152 H1169 0.930 . S
C1153 C1149 1.395 . S
C1153 C1154 1.379 . S
C1153 H1170 0.930 . S
C1154 C1152 1.395 . S
C1154 C1153 1.379 . S
C1154 H1171 0.930 . S
C1155 O1138 1.264 . S
C1155 O1139 1.254 . S
C1156 Eu1092 2.848 . S
C1156 O1136 1.257 . S
C1156 O1141 1.249 . S
C1156 C1149 1.492 . S
C1157 H1122 0.931 . S
C1157 C1135 1.420 . S
C1157 C1158 1.351 . S
C1158 H1120 0.930 . S
C1158 C1126 1.423 . S
C1158 C1157 1.351 . S
C1159 O1143 1.276 . S
C1159 O1146 1.235 . S
C1160 C1161 1.393 . S
C1160 C1164 1.395 . S
C1160 C1167 1.492 . S
C1161 C1160 1.393 . S
C1161 C1162 1.392 . S
C1161 H1172 0.930 . S
C1162 C1161 1.392 . S
C1162 C1163 1.386 . S
C1163 C1162 1.386 . S
C1163 C1165 1.395 . S
C1163 H1173 0.930 . S
C1164 C1160 1.395 . S
C1164 C1165 1.379 . S
C1164 H1174 0.930 . S
C1165 C1163 1.395 . S
C1165 C1164 1.379 . S
C1165 H1175 0.930 . S
C1166 O1144 1.264 . S
C1166 O1145 1.254 . S
C1167 Eu1103 2.848 . S
C1167 O1142 1.257 . S
C1167 O1147 1.249 . S
C1167 C1160 1.492 . S
H1168 C1151 0.930 . S
H1169 C1152 0.930 . S
H1170 C1153 0.930 . S
H1171 C1154 0.930 . S
H1172 C1161 0.930 . S
H1173 C1163 0.930 . S
H1174 C1164 0.930 . S
H1175 C1165 0.930 . S
Eu1176 N1207 2.657 . S
Eu1176 N1214 2.609 . S
Eu1176 O1220 2.558 . S
Eu1176 O1221 2.612 . S
Eu1176 O1223 2.339 . S
Eu1176 O1224 2.563 . S
Eu1176 O1225 2.419 . S
Eu1176 O1227 2.380 . S
Eu1176 O1228 2.432 . S
Eu1176 C1240 2.848 . S
C1177 C1180 1.429 . S
C1177 C1181 1.411 1_455 S
C1177 N1184 1.377 . S
C1178 C1180 1.420 1_655 S
C1178 C1182 1.423 . S
C1178 C1190 1.392 . S
C1179 C1181 1.420 . S
C1179 C1182 1.351 . S
C1179 H1202 0.931 . S
C1180 C1177 1.429 . S
C1180 C1178 1.420 1_455 S
C1180 N1188 1.362 . S
C1181 C1177 1.411 1_655 S
C1181 C1179 1.420 . S
C1181 C1186 1.395 . S
C1182 C1178 1.423 . S
C1182 C1179 1.351 . S
C1182 H1194 0.930 . S
C1183 C1185 1.400 . S
C1183 C1186 1.386 1_455 S
C1183 H1195 0.930 . S
N1184 C1177 1.377 . S
N1184 C1185 1.321 . S
N1184 Eu1187 2.609 . S
C1185 C1183 1.400 . S
C1185 N1184 1.321 . S
C1185 H1192 0.930 . S
C1186 C1181 1.395 . S
C1186 C1183 1.386 1_655 S
C1186 H1205 0.930 . S
Eu1187 N1184 2.609 . S
Eu1187 N1188 2.657 . S
Eu1187 O1221 2.380 . S
Eu1187 O1222 2.432 . S
Eu1187 O1226 2.558 . S
Eu1187 O1227 2.612 . S
Eu1187 O1229 2.339 . S
Eu1187 O1230 2.563 . S
Eu1187 O1231 2.419 . S
Eu1187 C1251 2.848 . S
N1188 C1180 1.362 . S
N1188 Eu1187 2.657 . S
N1188 C1189 1.334 . S
C1189 N1188 1.334 . S
C1189 C1191 1.415 . S
C1189 H1196 0.929 . S
C1190 C1178 1.392 . S
C1190 C1191 1.365 1_655 S
C1190 H1198 0.930 . S
C1191 C1189 1.415 . S
C1191 C1190 1.365 1_455 S
C1191 H1193 0.931 1_455 S
H1192 C1185 0.930 . S
H1193 C1191 0.931 1_655 S
H1194 C1182 0.930 . S
H1195 C1183 0.930 . S
H1196 C1189 0.929 . S
H1197 C1211 0.930 . S
H1198 C1190 0.930 . S
H1199 C1217 0.930 . S
H1200 C1208 0.929 . S
H1201 C1215 0.930 . S
H1202 C1179 0.931 . S
H1203 C1209 0.930 . S
H1204 C1242 0.930 . S
H1205 C1186 0.930 . S
H1206 C1241 0.931 . S
N1207 Eu1176 2.657 . S
N1207 C1208 1.334 . S
N1207 C1212 1.362 . S
C1208 H1200 0.929 . S
C1208 N1207 1.334 . S
C1208 C1211 1.413 . S
C1209 H1203 0.930 . S
C1209 C1210 1.392 . S
C1209 C1211 1.367 . S
C1210 C1209 1.392 . S
C1210 C1212 1.420 . S
C1210 C1242 1.423 . S
C1211 H1197 0.930 . S
C1211 C1208 1.413 . S
C1211 C1209 1.367 . S
C1212 N1207 1.362 . S
C1212 C1210 1.420 . S
C1212 C1216 1.429 . S
H1213 C1218 0.930 . S
N1214 Eu1176 2.609 . S
N1214 C1216 1.377 . S
N1214 C1217 1.321 . S
C1215 H1201 0.930 . S
C1215 C1217 1.400 . S
C1215 C1218 1.386 . S
C1216 C1212 1.429 . S
C1216 N1214 1.377 . S
C1216 C1219 1.411 . S
C1217 H1199 0.930 . S
C1217 N1214 1.321 . S
C1217 C1215 1.400 . S
C1218 H1213 0.930 . S
C1218 C1215 1.386 . S
C1218 C1219 1.395 . S
C1219 C1216 1.411 . S
C1219 C1218 1.395 . S
C1219 C1241 1.420 . S
O1220 Eu1176 2.558 . S
O1220 C1240 1.257 . S
O1221 Eu1176 2.612 . S
O1221 Eu1187 2.380 . S
O1221 C1232 1.276 . S
O1222 Eu1187 2.432 . S
O1222 C1239 1.264 . S
O1223 Eu1176 2.339 . S
O1223 C1239 1.254 . S
O1224 Eu1176 2.563 . S
O1224 C1232 1.235 . S
O1225 Eu1176 2.419 . S
O1225 C1240 1.249 . S
O1226 Eu1187 2.558 . S
O1226 C1251 1.257 . S
O1227 Eu1176 2.380 . S
O1227 Eu1187 2.612 . S
O1227 C1243 1.276 . S
O1228 Eu1176 2.432 . S
O1228 C1250 1.264 . S
O1229 Eu1187 2.339 . S
O1229 C1250 1.254 . S
O1230 Eu1187 2.563 . S
O1230 C1243 1.235 . S
O1231 Eu1187 2.419 . S
O1231 C1251 1.249 . S
C1232 O1221 1.276 . S
C1232 O1224 1.235 . S
C1233 C1235 1.393 . S
C1233 C1237 1.395 . S
C1233 C1240 1.492 . S
C1234 C1235 1.392 . S
C1234 C1236 1.386 . S
C1235 C1233 1.393 . S
C1235 C1234 1.392 . S
C1235 H1252 0.930 . S
C1236 C1234 1.386 . S
C1236 C1238 1.395 . S
C1236 H1253 0.930 . S
C1237 C1233 1.395 . S
C1237 C1238 1.379 . S
C1237 H1254 0.930 . S
C1238 C1236 1.395 . S
C1238 C1237 1.379 . S
C1238 H1255 0.930 . S
C1239 O1222 1.264 . S
C1239 O1223 1.254 . S
C1240 Eu1176 2.848 . S
C1240 O1220 1.257 . S
C1240 O1225 1.249 . S
C1240 C1233 1.492 . S
C1241 H1206 0.931 . S
C1241 C1219 1.420 . S
C1241 C1242 1.351 . S
C1242 H1204 0.930 . S
C1242 C1210 1.423 . S
C1242 C1241 1.351 . S
C1243 O1227 1.276 . S
C1243 O1230 1.235 . S
C1244 C1245 1.393 . S
C1244 C1248 1.395 . S
C1244 C1251 1.492 . S
C1245 C1244 1.393 . S
C1245 C1246 1.392 . S
C1245 H1256 0.930 . S
C1246 C1245 1.392 . S
C1246 C1247 1.386 . S
C1247 C1246 1.386 . S
C1247 C1249 1.395 . S
C1247 H1257 0.930 . S
C1248 C1244 1.395 . S
C1248 C1249 1.379 . S
C1248 H1258 0.930 . S
C1249 C1247 1.395 . S
C1249 C1248 1.379 . S
C1249 H1259 0.930 . S
C1250 O1228 1.264 . S
C1250 O1229 1.254 . S
C1251 Eu1187 2.848 . S
C1251 O1226 1.257 . S
C1251 O1231 1.249 . S
C1251 C1244 1.492 . S
H1252 C1235 0.930 . S
H1253 C1236 0.930 . S
H1254 C1237 0.930 . S
H1255 C1238 0.930 . S
H1256 C1245 0.930 . S
H1257 C1247 0.930 . S
H1258 C1248 0.930 . S
H1259 C1249 0.930 . S
Eu1260 N1291 2.657 . S
Eu1260 N1298 2.609 . S
Eu1260 O1304 2.558 . S
Eu1260 O1305 2.612 . S
Eu1260 O1307 2.339 . S
Eu1260 O1308 2.563 . S
Eu1260 O1309 2.419 . S
Eu1260 O1311 2.380 . S
Eu1260 O1312 2.432 . S
Eu1260 C1324 2.848 . S
C1261 C1264 1.429 . S
C1261 C1265 1.411 . S
C1261 N1268 1.377 . S
C1262 C1264 1.420 . S
C1262 C1266 1.423 . S
C1262 C1274 1.392 . S
C1263 C1265 1.420 . S
C1263 C1266 1.351 . S
C1263 H1286 0.931 . S
C1264 C1261 1.429 . S
C1264 C1262 1.420 . S
C1264 N1272 1.362 . S
C1265 C1261 1.411 . S
C1265 C1263 1.420 . S
C1265 C1270 1.395 . S
C1266 C1262 1.423 . S
C1266 C1263 1.351 . S
C1266 H1278 0.930 . S
C1267 C1269 1.400 . S
C1267 C1270 1.386 . S
C1267 H1279 0.930 . S
N1268 C1261 1.377 . S
N1268 C1269 1.321 . S
N1268 Eu1271 2.609 . S
C1269 C1267 1.400 . S
C1269 N1268 1.321 . S
C1269 H1276 0.930 . S
C1270 C1265 1.395 . S
C1270 C1267 1.386 . S
C1270 H1289 0.930 . S
Eu1271 N1268 2.609 . S
Eu1271 N1272 2.657 . S
Eu1271 O1305 2.380 . S
Eu1271 O1306 2.432 . S
Eu1271 O1310 2.558 . S
Eu1271 O1311 2.612 . S
Eu1271 O1313 2.339 . S
Eu1271 O1314 2.563 . S
Eu1271 O1315 2.419 . S
Eu1271 C1335 2.848 . S
N1272 C1264 1.362 . S
N1272 Eu1271 2.657 . S
N1272 C1273 1.334 . S
C1273 N1272 1.334 . S
C1273 C1275 1.413 . S
C1273 H1280 0.929 . S
C1274 C1262 1.392 . S
C1274 C1275 1.367 . S
C1274 H1282 0.930 . S
C1275 C1273 1.413 . S
C1275 C1274 1.367 . S
C1275 H1277 0.930 . S
H1276 C1269 0.930 . S
H1277 C1275 0.930 . S
H1278 C1266 0.930 . S
H1279 C1267 0.930 . S
H1280 C1273 0.929 . S
H1281 C1295 0.930 . S
H1282 C1274 0.930 . S
H1283 C1301 0.930 . S
H1284 C1292 0.929 . S
H1285 C1299 0.930 . S
H1286 C1263 0.931 . S
H1287 C1293 0.930 . S
H1288 C1326 0.930 . S
H1289 C1270 0.930 . S
H1290 C1325 0.931 . S
N1291 Eu1260 2.657 . S
N1291 C1292 1.334 . S
N1291 C1296 1.362 . S
C1292 H1284 0.929 . S
C1292 N1291 1.334 . S
C1292 C1295 1.413 . S
C1293 H1287 0.930 . S
C1293 C1294 1.392 . S
C1293 C1295 1.367 . S
C1294 C1293 1.392 . S
C1294 C1296 1.420 . S
C1294 C1326 1.423 . S
C1295 H1281 0.930 . S
C1295 C1292 1.413 . S
C1295 C1293 1.367 . S
C1296 N1291 1.362 . S
C1296 C1294 1.420 . S
C1296 C1300 1.429 . S
H1297 C1302 0.930 . S
N1298 Eu1260 2.609 . S
N1298 C1300 1.377 . S
N1298 C1301 1.321 . S
C1299 H1285 0.930 . S
C1299 C1301 1.400 . S
C1299 C1302 1.386 . S
C1300 C1296 1.429 . S
C1300 N1298 1.377 . S
C1300 C1303 1.411 . S
C1301 H1283 0.930 . S
C1301 N1298 1.321 . S
C1301 C1299 1.400 . S
C1302 H1297 0.930 . S
C1302 C1299 1.386 . S
C1302 C1303 1.395 . S
C1303 C1300 1.411 . S
C1303 C1302 1.395 . S
C1303 C1325 1.420 . S
O1304 Eu1260 2.558 . S
O1304 C1324 1.257 . S
O1305 Eu1260 2.612 . S
O1305 Eu1271 2.380 . S
O1305 C1316 1.276 . S
O1306 Eu1271 2.432 . S
O1306 C1323 1.264 . S
O1307 Eu1260 2.339 . S
O1307 C1323 1.254 . S
O1308 Eu1260 2.563 . S
O1308 C1316 1.235 . S
O1309 Eu1260 2.419 . S
O1309 C1324 1.249 . S
O1310 Eu1271 2.558 . S
O1310 C1335 1.257 . S
O1311 Eu1260 2.380 . S
O1311 Eu1271 2.612 . S
O1311 C1327 1.276 . S
O1312 Eu1260 2.432 . S
O1312 C1334 1.264 . S
O1313 Eu1271 2.339 . S
O1313 C1334 1.254 . S
O1314 Eu1271 2.563 . S
O1314 C1327 1.235 . S
O1315 Eu1271 2.419 . S
O1315 C1335 1.249 . S
C1316 O1305 1.276 . S
C1316 O1308 1.235 . S
C1317 C1319 1.393 . S
C1317 C1321 1.395 . S
C1317 C1324 1.492 . S
C1318 C1319 1.392 . S
C1318 C1320 1.386 . S
C1319 C1317 1.393 . S
C1319 C1318 1.392 . S
C1319 H1336 0.930 . S
C1320 C1318 1.386 . S
C1320 C1322 1.395 . S
C1320 H1337 0.930 . S
C1321 C1317 1.395 . S
C1321 C1322 1.379 . S
C1321 H1338 0.930 . S
C1322 C1320 1.395 . S
C1322 C1321 1.379 . S
C1322 H1339 0.930 . S
C1323 O1306 1.264 . S
C1323 O1307 1.254 . S
C1324 Eu1260 2.848 . S
C1324 O1304 1.257 . S
C1324 O1309 1.249 . S
C1324 C1317 1.492 . S
C1325 H1290 0.931 . S
C1325 C1303 1.420 . S
C1325 C1326 1.351 . S
C1326 H1288 0.930 . S
C1326 C1294 1.423 . S
C1326 C1325 1.351 . S
C1327 O1311 1.276 . S
C1327 O1314 1.235 . S
C1328 C1329 1.393 . S
C1328 C1332 1.395 . S
C1328 C1335 1.492 . S
C1329 C1328 1.393 . S
C1329 C1330 1.392 . S
C1329 H1340 0.930 . S
C1330 C1329 1.392 . S
C1330 C1331 1.386 . S
C1331 C1330 1.386 . S
C1331 C1333 1.395 . S
C1331 H1341 0.930 . S
C1332 C1328 1.395 . S
C1332 C1333 1.379 . S
C1332 H1342 0.930 . S
C1333 C1331 1.395 . S
C1333 C1332 1.379 . S
C1333 H1343 0.930 . S
C1334 O1312 1.264 . S
C1334 O1313 1.254 . S
C1335 Eu1271 2.848 . S
C1335 O1310 1.257 . S
C1335 O1315 1.249 . S
C1335 C1328 1.492 . S
H1336 C1319 0.930 . S
H1337 C1320 0.930 . S
H1338 C1321 0.930 . S
H1339 C1322 0.930 . S
H1340 C1329 0.930 . S
H1341 C1331 0.930 . S
H1342 C1332 0.930 . S
H1343 C1333 0.930 . S
Eu1344 N1375 2.657 . S
Eu1344 N1382 2.609 . S
Eu1344 O1388 2.558 . S
Eu1344 O1389 2.612 . S
Eu1344 O1391 2.339 . S
Eu1344 O1392 2.563 . S
Eu1344 O1393 2.419 . S
Eu1344 O1395 2.380 . S
Eu1344 O1396 2.432 . S
Eu1344 C1408 2.848 . S
C1345 C1348 1.429 . S
C1345 C1349 1.411 . S
C1345 N1352 1.377 . S
C1346 C1348 1.420 . S
C1346 C1350 1.423 . S
C1346 C1358 1.392 . S
C1347 C1349 1.420 . S
C1347 C1350 1.351 . S
C1347 H1370 0.931 . S
C1348 C1345 1.429 . S
C1348 C1346 1.420 . S
C1348 N1356 1.362 . S
C1349 C1345 1.411 . S
C1349 C1347 1.420 . S
C1349 C1354 1.395 . S
C1350 C1346 1.423 . S
C1350 C1347 1.351 . S
C1350 H1362 0.930 . S
C1351 C1353 1.400 . S
C1351 C1354 1.386 . S
C1351 H1363 0.930 . S
N1352 C1345 1.377 . S
N1352 C1353 1.321 . S
N1352 Eu1355 2.609 . S
C1353 C1351 1.400 . S
C1353 N1352 1.321 . S
C1353 H1360 0.930 . S
C1354 C1349 1.395 . S
C1354 C1351 1.386 . S
C1354 H1373 0.930 . S
Eu1355 N1352 2.609 . S
Eu1355 N1356 2.657 . S
Eu1355 O1389 2.380 . S
Eu1355 O1390 2.432 . S
Eu1355 O1394 2.558 . S
Eu1355 O1395 2.612 . S
Eu1355 O1397 2.339 . S
Eu1355 O1398 2.563 . S
Eu1355 O1399 2.419 . S
Eu1355 C1419 2.848 . S
N1356 C1348 1.362 . S
N1356 Eu1355 2.657 . S
N1356 C1357 1.334 . S
C1357 N1356 1.334 . S
C1357 C1359 1.413 . S
C1357 H1364 0.929 . S
C1358 C1346 1.392 . S
C1358 C1359 1.367 . S
C1358 H1366 0.930 . S
C1359 C1357 1.413 . S
C1359 C1358 1.367 . S
C1359 H1361 0.930 . S
H1360 C1353 0.930 . S
H1361 C1359 0.930 . S
H1362 C1350 0.930 . S
H1363 C1351 0.930 . S
H1364 C1357 0.929 . S
H1365 C1379 0.930 . S
H1366 C1358 0.930 . S
H1367 C1385 0.930 . S
H1368 C1376 0.929 . S
H1369 C1383 0.930 . S
H1370 C1347 0.931 . S
H1371 C1377 0.930 . S
H1372 C1410 0.930 . S
H1373 C1354 0.930 . S
H1374 C1409 0.931 . S
N1375 Eu1344 2.657 . S
N1375 C1376 1.334 . S
N1375 C1380 1.362 . S
C1376 H1368 0.929 . S
C1376 N1375 1.334 . S
C1376 C1379 1.413 . S
C1377 H1371 0.930 . S
C1377 C1378 1.392 . S
C1377 C1379 1.367 . S
C1378 C1377 1.392 . S
C1378 C1380 1.420 . S
C1378 C1410 1.423 . S
C1379 H1365 0.930 . S
C1379 C1376 1.413 . S
C1379 C1377 1.367 . S
C1380 N1375 1.362 . S
C1380 C1378 1.420 . S
C1380 C1384 1.429 . S
H1381 C1386 0.930 . S
N1382 Eu1344 2.609 . S
N1382 C1384 1.377 . S
N1382 C1385 1.321 . S
C1383 H1369 0.930 . S
C1383 C1385 1.400 . S
C1383 C1386 1.386 . S
C1384 C1380 1.429 . S
C1384 N1382 1.377 . S
C1384 C1387 1.411 . S
C1385 H1367 0.930 . S
C1385 N1382 1.321 . S
C1385 C1383 1.400 . S
C1386 H1381 0.930 . S
C1386 C1383 1.386 . S
C1386 C1387 1.395 . S
C1387 C1384 1.411 . S
C1387 C1386 1.395 . S
C1387 C1409 1.420 . S
O1388 Eu1344 2.558 . S
O1388 C1408 1.257 . S
O1389 Eu1344 2.612 . S
O1389 Eu1355 2.380 . S
O1389 C1400 1.276 . S
O1390 Eu1355 2.432 . S
O1390 C1407 1.264 . S
O1391 Eu1344 2.339 . S
O1391 C1407 1.254 . S
O1392 Eu1344 2.563 . S
O1392 C1400 1.235 . S
O1393 Eu1344 2.419 . S
O1393 C1408 1.249 . S
O1394 Eu1355 2.558 . S
O1394 C1419 1.257 . S
O1395 Eu1344 2.380 . S
O1395 Eu1355 2.612 . S
O1395 C1411 1.276 . S
O1396 Eu1344 2.432 . S
O1396 C1418 1.264 . S
O1397 Eu1355 2.339 . S
O1397 C1418 1.254 . S
O1398 Eu1355 2.563 . S
O1398 C1411 1.235 . S
O1399 Eu1355 2.419 . S
O1399 C1419 1.249 . S
C1400 O1389 1.276 . S
C1400 O1392 1.235 . S
C1401 C1403 1.393 . S
C1401 C1405 1.395 . S
C1401 C1408 1.492 . S
C1402 C1403 1.392 . S
C1402 C1404 1.386 . S
C1403 C1401 1.393 . S
C1403 C1402 1.392 . S
C1403 H1420 0.930 . S
C1404 C1402 1.386 . S
C1404 C1406 1.395 . S
C1404 H1421 0.930 . S
C1405 C1401 1.395 . S
C1405 C1406 1.379 . S
C1405 H1422 0.930 . S
C1406 C1404 1.395 . S
C1406 C1405 1.379 . S
C1406 H1423 0.930 . S
C1407 O1390 1.264 . S
C1407 O1391 1.254 . S
C1408 Eu1344 2.848 . S
C1408 O1388 1.257 . S
C1408 O1393 1.249 . S
C1408 C1401 1.492 . S
C1409 H1374 0.931 . S
C1409 C1387 1.420 . S
C1409 C1410 1.351 . S
C1410 H1372 0.930 . S
C1410 C1378 1.423 . S
C1410 C1409 1.351 . S
C1411 O1395 1.276 . S
C1411 O1398 1.235 . S
C1412 C1413 1.393 . S
C1412 C1416 1.395 . S
C1412 C1419 1.492 . S
C1413 C1412 1.393 . S
C1413 C1414 1.392 . S
C1413 H1424 0.930 . S
C1414 C1413 1.392 . S
C1414 C1415 1.386 . S
C1415 C1414 1.386 . S
C1415 C1417 1.395 . S
C1415 H1425 0.930 . S
C1416 C1412 1.395 . S
C1416 C1417 1.379 . S
C1416 H1426 0.930 . S
C1417 C1415 1.395 . S
C1417 C1416 1.379 . S
C1417 H1427 0.930 . S
C1418 O1396 1.264 . S
C1418 O1397 1.254 . S
C1419 Eu1355 2.848 . S
C1419 O1394 1.257 . S
C1419 O1399 1.249 . S
C1419 C1412 1.492 . S
H1420 C1403 0.930 . S
H1421 C1404 0.930 . S
H1422 C1405 0.930 . S
H1423 C1406 0.930 . S
H1424 C1413 0.930 . S
H1425 C1415 0.930 . S
H1426 C1416 0.930 . S
H1427 C1417 0.930 . S
Eu1428 N1459 2.657 . S
Eu1428 N1466 2.609 . S
Eu1428 O1472 2.558 . S
Eu1428 O1473 2.612 . S
Eu1428 O1475 2.339 . S
Eu1428 O1476 2.563 . S
Eu1428 O1477 2.419 . S
Eu1428 O1479 2.380 . S
Eu1428 O1480 2.432 . S
Eu1428 C1492 2.848 . S
C1429 C1432 1.429 . S
C1429 C1433 1.411 . S
C1429 N1436 1.377 . S
C1430 C1432 1.420 . S
C1430 C1434 1.423 . S
C1430 C1442 1.392 . S
C1431 C1433 1.420 . S
C1431 C1434 1.351 . S
C1431 H1454 0.931 . S
C1432 C1429 1.429 . S
C1432 C1430 1.420 . S
C1432 N1440 1.362 . S
C1433 C1429 1.411 . S
C1433 C1431 1.420 . S
C1433 C1438 1.395 . S
C1434 C1430 1.423 . S
C1434 C1431 1.351 . S
C1434 H1446 0.930 . S
C1435 C1437 1.400 . S
C1435 C1438 1.386 . S
C1435 H1447 0.930 . S
N1436 C1429 1.377 . S
N1436 C1437 1.321 . S
N1436 Eu1439 2.609 . S
C1437 C1435 1.400 . S
C1437 N1436 1.321 . S
C1437 H1444 0.930 . S
C1438 C1433 1.395 . S
C1438 C1435 1.386 . S
C1438 H1457 0.930 . S
Eu1439 N1436 2.609 . S
Eu1439 N1440 2.657 . S
Eu1439 O1473 2.380 . S
Eu1439 O1474 2.432 . S
Eu1439 O1478 2.558 . S
Eu1439 O1479 2.612 . S
Eu1439 O1481 2.339 . S
Eu1439 O1482 2.563 . S
Eu1439 O1483 2.419 . S
Eu1439 C1503 2.848 . S
N1440 C1432 1.362 . S
N1440 Eu1439 2.657 . S
N1440 C1441 1.334 . S
C1441 N1440 1.334 . S
C1441 C1443 1.413 . S
C1441 H1448 0.929 . S
C1442 C1430 1.392 . S
C1442 C1443 1.367 . S
C1442 H1450 0.930 . S
C1443 C1441 1.413 . S
C1443 C1442 1.367 . S
C1443 H1445 0.930 . S
H1444 C1437 0.930 . S
H1445 C1443 0.930 . S
H1446 C1434 0.930 . S
H1447 C1435 0.930 . S
H1448 C1441 0.929 . S
H1449 C1463 0.930 . S
H1450 C1442 0.930 . S
H1451 C1469 0.930 . S
H1452 C1460 0.929 . S
H1453 C1467 0.930 . S
H1454 C1431 0.931 . S
H1455 C1461 0.930 . S
H1456 C1494 0.930 . S
H1457 C1438 0.930 . S
H1458 C1493 0.931 . S
N1459 Eu1428 2.657 . S
N1459 C1460 1.334 . S
N1459 C1464 1.362 . S
C1460 H1452 0.929 . S
C1460 N1459 1.334 . S
C1460 C1463 1.413 . S
C1461 H1455 0.930 . S
C1461 C1462 1.392 . S
C1461 C1463 1.367 . S
C1462 C1461 1.392 . S
C1462 C1464 1.420 . S
C1462 C1494 1.423 . S
C1463 H1449 0.930 . S
C1463 C1460 1.413 . S
C1463 C1461 1.367 . S
C1464 N1459 1.362 . S
C1464 C1462 1.420 . S
C1464 C1468 1.429 . S
H1465 C1470 0.930 . S
N1466 Eu1428 2.609 . S
N1466 C1468 1.377 . S
N1466 C1469 1.321 . S
C1467 H1453 0.930 . S
C1467 C1469 1.400 . S
C1467 C1470 1.386 . S
C1468 C1464 1.429 . S
C1468 N1466 1.377 . S
C1468 C1471 1.411 . S
C1469 H1451 0.930 . S
C1469 N1466 1.321 . S
C1469 C1467 1.400 . S
C1470 H1465 0.930 . S
C1470 C1467 1.386 . S
C1470 C1471 1.395 . S
C1471 C1468 1.411 . S
C1471 C1470 1.395 . S
C1471 C1493 1.420 . S
O1472 Eu1428 2.558 . S
O1472 C1492 1.257 . S
O1473 Eu1428 2.612 . S
O1473 Eu1439 2.380 . S
O1473 C1484 1.276 . S
O1474 Eu1439 2.432 . S
O1474 C1491 1.264 . S
O1475 Eu1428 2.339 . S
O1475 C1491 1.254 . S
O1476 Eu1428 2.563 . S
O1476 C1484 1.235 . S
O1477 Eu1428 2.419 . S
O1477 C1492 1.249 . S
O1478 Eu1439 2.558 . S
O1478 C1503 1.257 . S
O1479 Eu1428 2.380 . S
O1479 Eu1439 2.612 . S
O1479 C1495 1.276 . S
O1480 Eu1428 2.432 . S
O1480 C1502 1.264 . S
O1481 Eu1439 2.339 . S
O1481 C1502 1.254 . S
O1482 Eu1439 2.563 . S
O1482 C1495 1.235 . S
O1483 Eu1439 2.419 . S
O1483 C1503 1.249 . S
C1484 O1473 1.276 . S
C1484 O1476 1.235 . S
C1485 C1487 1.393 . S
C1485 C1489 1.395 . S
C1485 C1492 1.492 . S
C1486 C1487 1.392 . S
C1486 C1488 1.386 . S
C1487 C1485 1.393 . S
C1487 C1486 1.392 . S
C1487 H1504 0.930 . S
C1488 C1486 1.386 . S
C1488 C1490 1.395 . S
C1488 H1505 0.930 . S
C1489 C1485 1.395 . S
C1489 C1490 1.379 . S
C1489 H1506 0.930 . S
C1490 C1488 1.395 . S
C1490 C1489 1.379 . S
C1490 H1507 0.930 . S
C1491 O1474 1.264 . S
C1491 O1475 1.254 . S
C1492 Eu1428 2.848 . S
C1492 O1472 1.257 . S
C1492 O1477 1.249 . S
C1492 C1485 1.492 . S
C1493 H1458 0.931 . S
C1493 C1471 1.420 . S
C1493 C1494 1.351 . S
C1494 H1456 0.930 . S
C1494 C1462 1.423 . S
C1494 C1493 1.351 . S
C1495 O1479 1.276 . S
C1495 O1482 1.235 . S
C1496 C1497 1.393 . S
C1496 C1500 1.395 . S
C1496 C1503 1.492 . S
C1497 C1496 1.393 . S
C1497 C1498 1.392 . S
C1497 H1508 0.930 . S
C1498 C1497 1.392 . S
C1498 C1499 1.386 . S
C1499 C1498 1.386 . S
C1499 C1501 1.395 . S
C1499 H1509 0.930 . S
C1500 C1496 1.395 . S
C1500 C1501 1.379 . S
C1500 H1510 0.930 . S
C1501 C1499 1.395 . S
C1501 C1500 1.379 . S
C1501 H1511 0.930 . S
C1502 O1480 1.264 . S
C1502 O1481 1.254 . S
C1503 Eu1439 2.848 . S
C1503 O1478 1.257 . S
C1503 O1483 1.249 . S
C1503 C1496 1.492 . S
H1504 C1487 0.930 . S
H1505 C1488 0.930 . S
H1506 C1489 0.930 . S
H1507 C1490 0.930 . S
H1508 C1497 0.930 . S
H1509 C1499 0.930 . S
H1510 C1500 0.930 . S
H1511 C1501 0.930 . S
Eu1512 N1543 2.657 . S
Eu1512 N1550 2.609 . S
Eu1512 O1556 2.558 . S
Eu1512 O1557 2.612 . S
Eu1512 O1559 2.339 . S
Eu1512 O1560 2.563 . S
Eu1512 O1561 2.419 . S
Eu1512 O1563 2.380 . S
Eu1512 O1564 2.432 . S
Eu1512 C1576 2.848 . S
C1513 C1516 1.429 . S
C1513 C1517 1.411 . S
C1513 N1520 1.377 . S
C1514 C1516 1.420 . S
C1514 C1518 1.423 . S
C1514 C1526 1.392 . S
C1515 C1517 1.420 . S
C1515 C1518 1.351 . S
C1515 H1538 0.931 . S
C1516 C1513 1.429 . S
C1516 C1514 1.420 . S
C1516 N1524 1.362 . S
C1517 C1513 1.411 . S
C1517 C1515 1.420 . S
C1517 C1522 1.395 . S
C1518 C1514 1.423 . S
C1518 C1515 1.351 . S
C1518 H1530 0.930 . S
C1519 C1521 1.400 . S
C1519 C1522 1.386 . S
C1519 H1531 0.930 . S
N1520 C1513 1.377 . S
N1520 C1521 1.321 . S
N1520 Eu1523 2.609 . S
C1521 C1519 1.400 . S
C1521 N1520 1.321 . S
C1521 H1528 0.930 . S
C1522 C1517 1.395 . S
C1522 C1519 1.386 . S
C1522 H1541 0.930 . S
Eu1523 N1520 2.609 . S
Eu1523 N1524 2.657 . S
Eu1523 O1557 2.380 . S
Eu1523 O1558 2.432 . S
Eu1523 O1562 2.558 . S
Eu1523 O1563 2.612 . S
Eu1523 O1565 2.339 . S
Eu1523 O1566 2.563 . S
Eu1523 O1567 2.419 . S
Eu1523 C1587 2.848 . S
N1524 C1516 1.362 . S
N1524 Eu1523 2.657 . S
N1524 C1525 1.334 . S
C1525 N1524 1.334 . S
C1525 C1527 1.413 . S
C1525 H1532 0.929 . S
C1526 C1514 1.392 . S
C1526 C1527 1.367 . S
C1526 H1534 0.930 . S
C1527 C1525 1.413 . S
C1527 C1526 1.367 . S
C1527 H1529 0.930 . S
H1528 C1521 0.930 . S
H1529 C1527 0.930 . S
H1530 C1518 0.930 . S
H1531 C1519 0.930 . S
H1532 C1525 0.929 . S
H1533 C1547 0.930 . S
H1534 C1526 0.930 . S
H1535 C1553 0.930 . S
H1536 C1544 0.929 . S
H1537 C1551 0.930 . S
H1538 C1515 0.931 . S
H1539 C1545 0.930 . S
H1540 C1578 0.930 . S
H1541 C1522 0.930 . S
H1542 C1577 0.931 . S
N1543 Eu1512 2.657 . S
N1543 C1544 1.334 . S
N1543 C1548 1.362 . S
C1544 H1536 0.929 . S
C1544 N1543 1.334 . S
C1544 C1547 1.413 . S
C1545 H1539 0.930 . S
C1545 C1546 1.392 . S
C1545 C1547 1.367 . S
C1546 C1545 1.392 . S
C1546 C1548 1.420 . S
C1546 C1578 1.423 . S
C1547 H1533 0.930 . S
C1547 C1544 1.413 . S
C1547 C1545 1.367 . S
C1548 N1543 1.362 . S
C1548 C1546 1.420 . S
C1548 C1552 1.429 . S
H1549 C1554 0.930 . S
N1550 Eu1512 2.609 . S
N1550 C1552 1.377 . S
N1550 C1553 1.321 . S
C1551 H1537 0.930 . S
C1551 C1553 1.400 . S
C1551 C1554 1.386 . S
C1552 C1548 1.429 . S
C1552 N1550 1.377 . S
C1552 C1555 1.411 . S
C1553 H1535 0.930 . S
C1553 N1550 1.321 . S
C1553 C1551 1.400 . S
C1554 H1549 0.930 . S
C1554 C1551 1.386 . S
C1554 C1555 1.395 . S
C1555 C1552 1.411 . S
C1555 C1554 1.395 . S
C1555 C1577 1.420 . S
O1556 Eu1512 2.558 . S
O1556 C1576 1.257 . S
O1557 Eu1512 2.612 . S
O1557 Eu1523 2.380 . S
O1557 C1568 1.276 . S
O1558 Eu1523 2.432 . S
O1558 C1575 1.264 . S
O1559 Eu1512 2.339 . S
O1559 C1575 1.254 . S
O1560 Eu1512 2.563 . S
O1560 C1568 1.235 . S
O1561 Eu1512 2.419 . S
O1561 C1576 1.249 . S
O1562 Eu1523 2.558 . S
O1562 C1587 1.257 . S
O1563 Eu1512 2.380 . S
O1563 Eu1523 2.612 . S
O1563 C1579 1.276 . S
O1564 Eu1512 2.432 . S
O1564 C1586 1.264 . S
O1565 Eu1523 2.339 . S
O1565 C1586 1.254 . S
O1566 Eu1523 2.563 . S
O1566 C1579 1.235 . S
O1567 Eu1523 2.419 . S
O1567 C1587 1.249 . S
C1568 O1557 1.276 . S
C1568 O1560 1.235 . S
C1569 C1571 1.393 . S
C1569 C1573 1.395 . S
C1569 C1576 1.492 . S
C1570 C1571 1.392 . S
C1570 C1572 1.386 . S
C1571 C1569 1.393 . S
C1571 C1570 1.392 . S
C1571 H1588 0.930 . S
C1572 C1570 1.386 . S
C1572 C1574 1.395 . S
C1572 H1589 0.930 . S
C1573 C1569 1.395 . S
C1573 C1574 1.379 . S
C1573 H1590 0.930 . S
C1574 C1572 1.395 . S
C1574 C1573 1.379 . S
C1574 H1591 0.930 . S
C1575 O1558 1.264 . S
C1575 O1559 1.254 . S
C1576 Eu1512 2.848 . S
C1576 O1556 1.257 . S
C1576 O1561 1.249 . S
C1576 C1569 1.492 . S
C1577 H1542 0.931 . S
C1577 C1555 1.420 . S
C1577 C1578 1.351 . S
C1578 H1540 0.930 . S
C1578 C1546 1.423 . S
C1578 C1577 1.351 . S
C1579 O1563 1.276 . S
C1579 O1566 1.235 . S
C1580 C1581 1.393 . S
C1580 C1584 1.395 . S
C1580 C1587 1.492 . S
C1581 C1580 1.393 . S
C1581 C1582 1.392 . S
C1581 H1592 0.930 . S
C1582 C1581 1.392 . S
C1582 C1583 1.386 . S
C1583 C1582 1.386 . S
C1583 C1585 1.395 . S
C1583 H1593 0.930 . S
C1584 C1580 1.395 . S
C1584 C1585 1.379 . S
C1584 H1594 0.930 . S
C1585 C1583 1.395 . S
C1585 C1584 1.379 . S
C1585 H1595 0.930 . S
C1586 O1564 1.264 . S
C1586 O1565 1.254 . S
C1587 Eu1523 2.848 . S
C1587 O1562 1.257 . S
C1587 O1567 1.249 . S
C1587 C1580 1.492 . S
H1588 C1571 0.930 . S
H1589 C1572 0.930 . S
H1590 C1573 0.930 . S
H1591 C1574 0.930 . S
H1592 C1581 0.930 . S
H1593 C1583 0.930 . S
H1594 C1584 0.930 . S
H1595 C1585 0.930 . S
Eu1596 N1627 2.657 . S
Eu1596 N1634 2.609 . S
Eu1596 O1640 2.573 . S
Eu1596 O1641 2.612 . S
Eu1596 O1643 2.339 . S
Eu1596 O1644 2.563 . S
Eu1596 O1645 2.419 . S
Eu1596 O1647 2.380 . S
Eu1596 O1648 2.411 1_554 S
Eu1596 C1660 2.848 . S
C1597 C1600 1.428 . S
C1597 C1601 1.410 . S
C1597 N1604 1.378 1_655 S
C1598 C1600 1.420 . S
C1598 C1602 1.423 . S
C1598 C1610 1.392 . S
C1599 C1601 1.420 . S
C1599 C1602 1.351 . S
C1599 H1622 0.931 . S
C1600 C1597 1.428 . S
C1600 C1598 1.420 . S
C1600 N1608 1.362 1_655 S
C1601 C1597 1.410 . S
C1601 C1599 1.420 . S
C1601 C1606 1.395 . S
C1602 C1598 1.423 . S
C1602 C1599 1.351 . S
C1602 H1614 0.930 . S
C1603 C1605 1.400 . S
C1603 C1606 1.386 1_455 S
C1603 H1615 0.930 . S
N1604 C1597 1.378 1_455 S
N1604 C1605 1.321 . S
N1604 Eu1607 2.609 . S
C1605 C1603 1.400 . S
C1605 N1604 1.321 . S
C1605 H1612 0.930 . S
C1606 C1601 1.395 . S
C1606 C1603 1.386 1_655 S
C1606 H1625 0.930 . S
Eu1607 N1604 2.609 . S
Eu1607 N1608 2.657 . S
Eu1607 O1641 2.380 . S
Eu1607 O1642 2.432 . S
Eu1607 O1646 2.558 . S
Eu1607 O1647 2.612 . S
Eu1607 O1649 2.339 . S
Eu1607 O1650 2.563 . S
Eu1607 O1651 2.419 1_455 S
Eu1607 C1671 2.848 1_455 S
N1608 C1600 1.362 1_455 S
N1608 Eu1607 2.657 . S
N1608 C1609 1.338 . S
C1609 N1608 1.338 . S
C1609 C1611 1.396 1_455 S
C1609 H1616 0.946 . S
C1610 C1598 1.392 . S
C1610 C1611 1.367 . S
C1610 H1618 0.930 . S
C1611 C1609 1.396 1_655 S
C1611 C1610 1.367 . S
C1611 H1613 0.930 1_554 S
H1612 C1605 0.930 . S
H1613 C1611 0.930 1_556 S
H1614 C1602 0.930 . S
H1615 C1603 0.930 . S
H1616 C1609 0.946 . S
H1617 C1631 0.930 . S
H1618 C1610 0.930 . S
H1619 C1637 0.930 . S
H1620 C1628 0.929 . S
H1621 C1635 0.930 . S
H1622 C1599 0.931 . S
H1623 C1629 0.930 . S
H1624 C1662 0.930 . S
H1625 C1606 0.930 . S
H1626 C1661 0.915 1_556 S
N1627 Eu1596 2.657 . S
N1627 C1628 1.334 . S
N1627 C1632 1.362 . S
C1628 H1620 0.929 . S
C1628 N1627 1.334 . S
C1628 C1631 1.413 . S
C1629 H1623 0.930 . S
C1629 C1630 1.392 . S
C1629 C1631 1.367 . S
C1630 C1629 1.392 . S
C1630 C1632 1.420 . S
C1630 C1662 1.423 . S
C1631 H1617 0.930 . S
C1631 C1628 1.413 . S
C1631 C1629 1.367 . S
C1632 N1627 1.362 . S
C1632 C1630 1.420 . S
C1632 C1636 1.429 . S
H1633 C1638 0.930 . S
N1634 Eu1596 2.609 . S
N1634 C1636 1.377 . S
N1634 C1637 1.321 1_554 S
C1635 H1621 0.930 . S
C1635 C1637 1.400 . S
C1635 C1638 1.386 . S
C1636 C1632 1.429 . S
C1636 N1634 1.377 . S
C1636 C1639 1.411 1_554 S
C1637 H1619 0.930 . S
C1637 N1634 1.321 1_556 S
C1637 C1635 1.400 . S
C1638 H1633 0.930 . S
C1638 C1635 1.386 . S
C1638 C1639 1.395 . S
C1639 C1636 1.411 1_556 S
C1639 C1638 1.395 . S
C1639 C1661 1.420 1_556 S
O1640 Eu1596 2.573 . S
O1640 C1660 1.274 . S
O1641 Eu1596 2.612 . S
O1641 Eu1607 2.380 . S
O1641 C1652 1.276 . S
O1642 Eu1607 2.432 . S
O1642 C1659 1.264 . S
O1643 Eu1596 2.339 . S
O1643 C1659 1.254 . S
O1644 Eu1596 2.563 . S
O1644 C1652 1.235 . S
O1645 Eu1596 2.419 . S
O1645 C1660 1.249 . S
O1646 Eu1607 2.558 . S
O1646 C1671 1.257 1_455 S
O1647 Eu1596 2.380 . S
O1647 Eu1607 2.612 . S
O1647 C1663 1.276 . S
O1648 Eu1596 2.411 1_556 S
O1648 C1670 1.261 1_556 S
O1649 Eu1607 2.339 . S
O1649 C1670 1.254 . S
O1650 Eu1607 2.563 . S
O1650 C1663 1.235 . S
O1651 Eu1607 2.419 1_655 S
O1651 C1671 1.249 . S
C1652 O1641 1.276 . S
C1652 O1644 1.235 . S
C1653 C1655 1.393 . S
C1653 C1657 1.395 1_554 S
C1653 C1660 1.492 . S
C1654 C1655 1.392 . S
C1654 C1656 1.386 . S
C1655 C1653 1.393 . S
C1655 C1654 1.392 . S
C1655 H1672 0.930 . S
C1656 C1654 1.386 . S
C1656 C1658 1.395 1_554 S
C1656 H1673 0.930 1_554 S
C1657 C1653 1.395 1_556 S
C1657 C1658 1.379 . S
C1657 H1674 0.930 . S
C1658 C1656 1.395 1_556 S
C1658 C1657 1.379 . S
C1658 H1675 0.930 . S
C1659 O1642 1.264 . S
C1659 O1643 1.254 . S
C1660 Eu1596 2.848 . S
C1660 O1640 1.274 . S
C1660 O1645 1.249 . S
C1660 C1653 1.492 . S
C1661 H1626 0.915 1_554 S
C1661 C1639 1.420 1_554 S
C1661 C1662 1.351 . S
C1662 H1624 0.930 . S
C1662 C1630 1.423 . S
C1662 C1661 1.351 . S
C1663 O1647 1.276 . S
C1663 O1650 1.235 . S
C1664 C1665 1.393 . S
C1664 C1668 1.395 . S
C1664 C1671 1.492 . S
C1665 C1664 1.393 . S
C1665 C1666 1.392 . S
C1665 H1676 0.930 . S
C1666 C1665 1.392 . S
C1666 C1667 1.386 . S
C1667 C1666 1.386 . S
C1667 C1669 1.395 . S
C1667 H1677 0.930 . S
C1668 C1664 1.395 . S
C1668 C1669 1.379 . S
C1668 H1678 0.930 . S
C1669 C1667 1.395 . S
C1669 C1668 1.379 . S
C1669 H1679 0.930 . S
C1670 O1648 1.261 1_554 S
C1670 O1649 1.254 . S
C1671 Eu1607 2.848 1_655 S
C1671 O1646 1.257 1_655 S
C1671 O1651 1.249 . S
C1671 C1664 1.492 . S
H1672 C1655 0.930 . S
H1673 C1656 0.930 1_556 S
H1674 C1657 0.930 . S
H1675 C1658 0.930 . S
H1676 C1665 0.930 . S
H1677 C1667 0.930 . S
H1678 C1668 0.930 . S
H1679 C1669 0.930 . S
H1680 C1692 0.930 . S
H1681 C1694 0.930 . S
H1682 C1695 0.930 . S
H1683 C1699 0.959 . S
H1684 C1699 0.959 . S
H1685 C1699 0.961 . S
H1686 C1700 0.960 . S
H1687 C1700 0.961 . S
H1688 C1700 0.959 . S
H1689 C1703 0.929 . S
H1690 C1704 0.931 . S
H1691 C1706 0.930 . S
C1692 H1680 0.930 . S
C1692 C1693 1.399 . S
C1692 C1697 1.399 . S
C1693 C1692 1.399 . S
C1693 C1694 1.376 . S
C1694 H1681 0.930 . S
C1694 C1693 1.376 . S
C1694 C1695 1.388 . S
C1695 H1682 0.930 . S
C1695 C1694 1.388 . S
C1695 C1696 1.390 . S
C1696 C1695 1.390 . S
C1696 C1697 1.394 . S
C1696 C1702 1.465 . S
C1697 C1692 1.399 . S
C1697 C1696 1.394 . S
C1697 C1698 1.516 . S
C1698 C1697 1.516 . S
C1698 C1699 1.502 1_455 S
C1698 C1700 1.561 . S
C1698 C1701 1.526 . S
C1699 H1683 0.959 . S
C1699 H1684 0.959 . S
C1699 H1685 0.961 . S
C1699 C1698 1.502 1_655 S
C1700 H1686 0.960 . S
C1700 H1687 0.961 . S
C1700 H1688 0.959 . S
C1700 C1698 1.561 . S
C1701 C1698 1.526 . S
C1701 C1702 1.396 . S
C1701 C1706 1.390 . S
C1702 C1696 1.465 . S
C1702 C1701 1.396 . S
C1702 C1703 1.399 1_556 S
C1703 H1689 0.929 . S
C1703 C1702 1.399 1_554 S
C1703 C1704 1.385 . S
C1704 H1690 0.931 . S
C1704 C1703 1.385 . S
C1704 C1705 1.389 . S
C1705 C1704 1.389 . S
C1705 C1706 1.387 1_554 S
C1706 H1691 0.930 . S
C1706 C1701 1.390 . S
C1706 C1705 1.387 1_556 S
H1707 C1719 0.930 . S
H1708 C1721 0.930 . S
H1709 C1722 0.930 . S
H1710 C1726 0.959 . S
H1711 C1726 0.959 . S
H1712 C1726 0.961 . S
H1713 C1727 0.960 . S
H1714 C1727 0.961 . S
H1715 C1727 0.959 . S
H1716 C1730 0.929 . S
H1717 C1731 0.931 . S
H1718 C1733 0.930 . S
C1719 H1707 0.930 . S
C1719 C1720 1.399 . S
C1719 C1724 1.399 . S
C1720 C1719 1.399 . S
C1720 C1721 1.376 . S
C1721 H1708 0.930 . S
C1721 C1720 1.376 . S
C1721 C1722 1.388 . S
C1722 H1709 0.930 . S
C1722 C1721 1.388 . S
C1722 C1723 1.390 . S
C1723 C1722 1.390 . S
C1723 C1724 1.394 . S
C1723 C1729 1.465 . S
C1724 C1719 1.399 . S
C1724 C1723 1.394 . S
C1724 C1725 1.516 . S
C1725 C1724 1.516 . S
C1725 C1726 1.502 . S
C1725 C1727 1.561 . S
C1725 C1728 1.526 . S
C1726 H1710 0.959 . S
C1726 H1711 0.959 . S
C1726 H1712 0.961 . S
C1726 C1725 1.502 . S
C1727 H1713 0.960 . S
C1727 H1714 0.961 . S
C1727 H1715 0.959 . S
C1727 C1725 1.561 . S
C1728 C1725 1.526 . S
C1728 C1729 1.396 . S
C1728 C1733 1.390 . S
C1729 C1723 1.465 . S
C1729 C1728 1.396 . S
C1729 C1730 1.399 . S
C1730 H1716 0.929 . S
C1730 C1729 1.399 . S
C1730 C1731 1.385 . S
C1731 H1717 0.931 . S
C1731 C1730 1.385 . S
C1731 C1732 1.389 . S
C1732 C1731 1.389 . S
C1732 C1733 1.387 . S
C1733 H1718 0.930 . S
C1733 C1728 1.390 . S
C1733 C1732 1.387 . S
H1734 C1746 0.930 . S
H1735 C1748 0.930 . S
H1736 C1749 0.930 . S
H1737 C1753 0.959 . S
H1738 C1753 0.959 . S
H1739 C1753 0.961 . S
H1740 C1754 0.960 . S
H1741 C1754 0.961 . S
H1742 C1754 0.959 . S
H1743 C1757 0.929 . S
H1744 C1758 0.931 . S
H1745 C1760 0.930 . S
C1746 H1734 0.930 . S
C1746 C1747 1.399 . S
C1746 C1751 1.399 . S
C1747 C1746 1.399 . S
C1747 C1748 1.376 . S
C1748 H1735 0.930 . S
C1748 C1747 1.376 . S
C1748 C1749 1.388 . S
C1749 H1736 0.930 . S
C1749 C1748 1.388 . S
C1749 C1750 1.390 . S
C1750 C1749 1.390 . S
C1750 C1751 1.394 . S
C1750 C1756 1.465 . S
C1751 C1746 1.399 . S
C1751 C1750 1.394 . S
C1751 C1752 1.516 . S
C1752 C1751 1.516 . S
C1752 C1753 1.502 . S
C1752 C1754 1.561 . S
C1752 C1755 1.526 . S
C1753 H1737 0.959 . S
C1753 H1738 0.959 . S
C1753 H1739 0.961 . S
C1753 C1752 1.502 . S
C1754 H1740 0.960 . S
C1754 H1741 0.961 . S
C1754 H1742 0.959 . S
C1754 C1752 1.561 . S
C1755 C1752 1.526 . S
C1755 C1756 1.396 . S
C1755 C1760 1.390 . S
C1756 C1750 1.465 . S
C1756 C1755 1.396 . S
C1756 C1757 1.399 . S
C1757 H1743 0.929 . S
C1757 C1756 1.399 . S
C1757 C1758 1.385 . S
C1758 H1744 0.931 . S
C1758 C1757 1.385 . S
C1758 C1759 1.389 . S
C1759 C1758 1.389 . S
C1759 C1760 1.387 . S
C1760 H1745 0.930 . S
C1760 C1755 1.390 . S
C1760 C1759 1.387 . S
H1761 C1773 0.930 . S
H1762 C1775 0.930 . S
H1763 C1776 0.930 . S
H1764 C1780 0.959 . S
H1765 C1780 0.959 . S
H1766 C1780 0.961 . S
H1767 C1781 0.960 . S
H1768 C1781 0.961 . S
H1769 C1781 0.959 . S
H1770 C1784 0.929 . S
H1771 C1785 0.931 . S
H1772 C1787 0.930 . S
C1773 H1761 0.930 . S
C1773 C1774 1.399 . S
C1773 C1778 1.399 . S
C1774 C1773 1.399 . S
C1774 C1775 1.376 . S
C1775 H1762 0.930 . S
C1775 C1774 1.376 . S
C1775 C1776 1.388 . S
C1776 H1763 0.930 . S
C1776 C1775 1.388 . S
C1776 C1777 1.390 . S
C1777 C1776 1.390 . S
C1777 C1778 1.394 . S
C1777 C1783 1.465 . S
C1778 C1773 1.399 . S
C1778 C1777 1.394 . S
C1778 C1779 1.516 . S
C1779 C1778 1.516 . S
C1779 C1780 1.502 . S
C1779 C1781 1.561 . S
C1779 C1782 1.526 . S
C1780 H1764 0.959 . S
C1780 H1765 0.959 . S
C1780 H1766 0.961 . S
C1780 C1779 1.502 . S
C1781 H1767 0.960 . S
C1781 H1768 0.961 . S
C1781 H1769 0.959 . S
C1781 C1779 1.561 . S
C1782 C1779 1.526 . S
C1782 C1783 1.396 . S
C1782 C1787 1.390 . S
C1783 C1777 1.465 . S
C1783 C1782 1.396 . S
C1783 C1784 1.399 . S
C1784 H1770 0.929 . S
C1784 C1783 1.399 . S
C1784 C1785 1.385 . S
C1785 H1771 0.931 . S
C1785 C1784 1.385 . S
C1785 C1786 1.389 . S
C1786 C1785 1.389 . S
C1786 C1787 1.387 . S
C1787 H1772 0.930 . S
C1787 C1782 1.390 . S
C1787 C1786 1.387 . S
H1788 C1800 0.930 . S
H1789 C1802 0.930 . S
H1790 C1803 0.930 . S
H1791 C1807 0.959 1_655 S
H1792 C1807 0.959 . S
H1793 C1807 0.961 . S
H1794 C1808 0.960 . S
H1795 C1808 0.961 . S
H1796 C1808 0.959 . S
H1797 C1811 0.929 . S
H1798 C1812 0.931 . S
H1799 C1814 0.930 . S
C1800 H1788 0.930 . S
C1800 C1801 1.399 . S
C1800 C1805 1.399 . S
C1801 C1800 1.399 . S
C1801 C1802 1.376 . S
C1802 H1789 0.930 . S
C1802 C1801 1.376 . S
C1802 C1803 1.388 . S
C1803 H1790 0.930 . S
C1803 C1802 1.388 . S
C1803 C1804 1.390 . S
C1804 C1803 1.390 . S
C1804 C1805 1.394 . S
C1804 C1810 1.465 . S
C1805 C1800 1.399 . S
C1805 C1804 1.394 . S
C1805 C1806 1.516 . S
C1806 C1805 1.516 . S
C1806 C1807 1.502 . S
C1806 C1808 1.561 . S
C1806 C1809 1.526 . S
C1807 H1791 0.959 1_455 S
C1807 H1792 0.959 . S
C1807 H1793 0.961 . S
C1807 C1806 1.502 . S
C1808 H1794 0.960 . S
C1808 H1795 0.961 . S
C1808 H1796 0.959 . S
C1808 C1806 1.561 . S
C1809 C1806 1.526 . S
C1809 C1810 1.396 . S
C1809 C1814 1.390 . S
C1810 C1804 1.465 . S
C1810 C1809 1.396 . S
C1810 C1811 1.399 . S
C1811 H1797 0.929 . S
C1811 C1810 1.399 . S
C1811 C1812 1.385 . S
C1812 H1798 0.931 . S
C1812 C1811 1.385 . S
C1812 C1813 1.389 . S
C1813 C1812 1.389 . S
C1813 C1814 1.387 . S
C1814 H1799 0.930 . S
C1814 C1809 1.390 . S
C1814 C1813 1.387 . S
H1815 C1827 0.930 . S
H1816 C1829 0.930 . S
H1817 C1830 0.930 . S
H1818 C1834 0.959 . S
H1819 C1834 0.959 . S
H1820 C1834 0.961 . S
H1821 C1835 0.960 . S
H1822 C1835 0.961 . S
H1823 C1835 0.959 . S
H1824 C1838 0.929 . S
H1825 C1839 0.931 . S
H1826 C1841 0.930 . S
C1827 H1815 0.930 . S
C1827 C1828 1.399 . S
C1827 C1832 1.399 . S
C1828 C1827 1.399 . S
C1828 C1829 1.376 . S
C1829 H1816 0.930 . S
C1829 C1828 1.376 . S
C1829 C1830 1.388 . S
C1830 H1817 0.930 . S
C1830 C1829 1.388 . S
C1830 C1831 1.390 . S
C1831 C1830 1.390 . S
C1831 C1832 1.394 . S
C1831 C1837 1.465 . S
C1832 C1827 1.399 . S
C1832 C1831 1.394 . S
C1832 C1833 1.516 . S
C1833 C1832 1.516 . S
C1833 C1834 1.502 . S
C1833 C1835 1.561 . S
C1833 C1836 1.526 . S
C1834 H1818 0.959 . S
C1834 H1819 0.959 . S
C1834 H1820 0.961 . S
C1834 C1833 1.502 . S
C1835 H1821 0.960 . S
C1835 H1822 0.961 . S
C1835 H1823 0.959 . S
C1835 C1833 1.561 . S
C1836 C1833 1.526 . S
C1836 C1837 1.396 . S
C1836 C1841 1.390 . S
C1837 C1831 1.465 . S
C1837 C1836 1.396 . S
C1837 C1838 1.399 . S
C1838 H1824 0.929 . S
C1838 C1837 1.399 . S
C1838 C1839 1.385 . S
C1839 H1825 0.931 . S
C1839 C1838 1.385 . S
C1839 C1840 1.389 . S
C1840 C1839 1.389 . S
C1840 C1841 1.387 . S
C1841 H1826 0.930 . S
C1841 C1836 1.390 . S
C1841 C1840 1.387 . S
H1842 C1854 0.930 . S
H1843 C1856 0.930 . S
H1844 C1857 0.930 . S
H1845 C1861 0.959 . S
H1846 C1861 0.959 . S
H1847 C1861 0.961 . S
H1848 C1862 0.960 . S
H1849 C1862 0.961 . S
H1850 C1862 0.959 . S
H1851 C1865 0.929 . S
H1852 C1866 0.931 . S
H1853 C1868 0.930 . S
C1854 H1842 0.930 . S
C1854 C1855 1.399 . S
C1854 C1859 1.399 . S
C1855 C1854 1.399 . S
C1855 C1856 1.376 . S
C1856 H1843 0.930 . S
C1856 C1855 1.376 . S
C1856 C1857 1.388 . S
C1857 H1844 0.930 . S
C1857 C1856 1.388 . S
C1857 C1858 1.390 . S
C1858 C1857 1.390 . S
C1858 C1859 1.394 . S
C1858 C1864 1.465 . S
C1859 C1854 1.399 . S
C1859 C1858 1.394 . S
C1859 C1860 1.516 . S
C1860 C1859 1.516 . S
C1860 C1861 1.502 . S
C1860 C1862 1.561 . S
C1860 C1863 1.526 . S
C1861 H1845 0.959 . S
C1861 H1846 0.959 . S
C1861 H1847 0.961 . S
C1861 C1860 1.502 . S
C1862 H1848 0.960 . S
C1862 H1849 0.961 . S
C1862 H1850 0.959 . S
C1862 C1860 1.561 . S
C1863 C1860 1.526 . S
C1863 C1864 1.396 . S
C1863 C1868 1.390 . S
C1864 C1858 1.465 . S
C1864 C1863 1.396 . S
C1864 C1865 1.399 . S
C1865 H1851 0.929 . S
C1865 C1864 1.399 . S
C1865 C1866 1.385 . S
C1866 H1852 0.931 . S
C1866 C1865 1.385 . S
C1866 C1867 1.389 . S
C1867 C1866 1.389 . S
C1867 C1868 1.387 . S
C1868 H1853 0.930 . S
C1868 C1863 1.390 . S
C1868 C1867 1.387 . S
H1869 C1881 0.930 . S
H1870 C1883 0.930 . S
H1871 C1884 0.930 . S
H1872 C1888 0.959 . S
H1873 C1888 0.959 . S
H1874 C1888 0.961 . S
H1875 C1889 0.960 . S
H1876 C1889 0.961 . S
H1877 C1889 0.959 . S
H1878 C1892 0.929 . S
H1879 C1893 0.931 . S
H1880 C1895 0.930 . S
C1881 H1869 0.930 . S
C1881 C1882 1.399 . S
C1881 C1886 1.399 . S
C1882 C1881 1.399 . S
C1882 C1883 1.376 . S
C1883 H1870 0.930 . S
C1883 C1882 1.376 . S
C1883 C1884 1.388 . S
C1884 H1871 0.930 . S
C1884 C1883 1.388 . S
C1884 C1885 1.390 . S
C1885 C1884 1.390 . S
C1885 C1886 1.394 . S
C1885 C1891 1.465 . S
C1886 C1881 1.399 . S
C1886 C1885 1.394 . S
C1886 C1887 1.516 . S
C1887 C1886 1.516 . S
C1887 C1888 1.502 . S
C1887 C1889 1.561 . S
C1887 C1890 1.526 . S
C1888 H1872 0.959 . S
C1888 H1873 0.959 . S
C1888 H1874 0.961 . S
C1888 C1887 1.502 . S
C1889 H1875 0.960 . S
C1889 H1876 0.961 . S
C1889 H1877 0.959 . S
C1889 C1887 1.561 . S
C1890 C1887 1.526 . S
C1890 C1891 1.396 . S
C1890 C1895 1.390 . S
C1891 C1885 1.465 . S
C1891 C1890 1.396 . S
C1891 C1892 1.399 . S
C1892 H1878 0.929 . S
C1892 C1891 1.399 . S
C1892 C1893 1.385 . S
C1893 H1879 0.931 . S
C1893 C1892 1.385 . S
C1893 C1894 1.389 . S
C1894 C1893 1.389 . S
C1894 C1895 1.387 . S
C1895 H1880 0.930 . S
C1895 C1890 1.390 . S
C1895 C1894 1.387 . S
H1896 C1908 0.930 . S
H1897 C1910 0.931 1_455 S
H1898 C1911 0.930 . S
H1899 C1915 0.959 . S
H1900 C1915 0.959 . S
H1901 C1915 0.961 . S
H1902 C1916 0.960 . S
H1903 C1916 0.961 . S
H1904 C1916 0.959 . S
H1905 C1919 0.929 . S
H1906 C1920 0.931 . S
H1907 C1922 0.930 . S
C1908 H1896 0.930 . S
C1908 C1909 1.399 . S
C1908 C1913 1.399 . S
C1909 C1908 1.399 . S
C1909 C1910 1.376 . S
C1910 H1897 0.931 1_655 S
C1910 C1909 1.376 . S
C1910 C1911 1.388 1_655 S
C1911 H1898 0.930 . S
C1911 C1910 1.388 1_455 S
C1911 C1912 1.390 . S
C1912 C1911 1.390 . S
C1912 C1913 1.394 1_455 S
C1912 C1918 1.465 . S
C1913 C1908 1.399 . S
C1913 C1912 1.394 1_655 S
C1913 C1914 1.516 . S
C1914 C1913 1.516 . S
C1914 C1915 1.502 . S
C1914 C1916 1.561 . S
C1914 C1917 1.526 1_655 S
C1915 H1899 0.959 . S
C1915 H1900 0.959 . S
C1915 H1901 0.961 . S
C1915 C1914 1.502 . S
C1916 H1902 0.960 . S
C1916 H1903 0.961 . S
C1916 H1904 0.959 . S
C1916 C1914 1.561 . S
C1917 C1914 1.526 1_455 S
C1917 C1918 1.396 . S
C1917 C1922 1.390 . S
C1918 C1912 1.465 . S
C1918 C1917 1.396 . S
C1918 C1919 1.399 . S
C1919 H1905 0.929 . S
C1919 C1918 1.399 . S
C1919 C1920 1.385 . S
C1920 H1906 0.931 . S
C1920 C1919 1.385 . S
C1920 C1921 1.389 . S
C1921 C1920 1.389 . S
C1921 C1922 1.387 . S
C1922 H1907 0.930 . S
C1922 C1917 1.390 . S
C1922 C1921 1.387 . S
H1923 C1935 0.930 . S
H1924 C1937 0.930 . S
H1925 C1938 0.930 . S
H1926 C1942 0.959 . S
H1927 C1942 0.959 . S
H1928 C1942 0.961 . S
H1929 C1943 0.960 . S
H1930 C1943 0.961 . S
H1931 C1943 0.959 . S
H1932 C1946 0.929 . S
H1933 C1947 0.931 . S
H1934 C1949 0.930 . S
C1935 H1923 0.930 . S
C1935 C1936 1.399 . S
C1935 C1940 1.399 . S
C1936 C1935 1.399 . S
C1936 C1937 1.376 . S
C1937 H1924 0.930 . S
C1937 C1936 1.376 . S
C1937 C1938 1.388 . S
C1938 H1925 0.930 . S
C1938 C1937 1.388 . S
C1938 C1939 1.390 . S
C1939 C1938 1.390 . S
C1939 C1940 1.394 . S
C1939 C1945 1.465 . S
C1940 C1935 1.399 . S
C1940 C1939 1.394 . S
C1940 C1941 1.516 . S
C1941 C1940 1.516 . S
C1941 C1942 1.502 . S
C1941 C1943 1.561 . S
C1941 C1944 1.526 . S
C1942 H1926 0.959 . S
C1942 H1927 0.959 . S
C1942 H1928 0.961 . S
C1942 C1941 1.502 . S
C1943 H1929 0.960 . S
C1943 H1930 0.961 . S
C1943 H1931 0.959 . S
C1943 C1941 1.561 . S
C1944 C1941 1.526 . S
C1944 C1945 1.396 . S
C1944 C1949 1.390 . S
C1945 C1939 1.465 . S
C1945 C1944 1.396 . S
C1945 C1946 1.399 . S
C1946 H1932 0.929 . S
C1946 C1945 1.399 . S
C1946 C1947 1.385 . S
C1947 H1933 0.931 . S
C1947 C1946 1.385 . S
C1947 C1948 1.389 . S
C1948 C1947 1.389 . S
C1948 C1949 1.387 . S
C1949 H1934 0.930 . S
C1949 C1944 1.390 . S
C1949 C1948 1.387 . S
H1950 C1962 0.930 . S
H1951 C1964 0.930 . S
H1952 C1965 0.930 . S
H1953 C1969 0.959 . S
H1954 C1969 0.959 . S
H1955 C1969 0.961 . S
H1956 C1970 0.960 . S
H1957 C1970 0.961 . S
H1958 C1970 0.959 . S
H1959 C1973 0.929 1_565 S
H1960 C1974 0.931 1_565 S
H1961 C1976 0.930 . S
C1962 H1950 0.930 . S
C1962 C1963 1.399 . S
C1962 C1967 1.399 . S
C1963 C1962 1.399 . S
C1963 C1964 1.376 . S
C1964 H1951 0.930 . S
C1964 C1963 1.376 . S
C1964 C1965 1.388 . S
C1965 H1952 0.930 . S
C1965 C1964 1.388 . S
C1965 C1966 1.390 . S
C1966 C1965 1.390 . S
C1966 C1967 1.394 . S
C1966 C1972 1.465 . S
C1967 C1962 1.399 . S
C1967 C1966 1.394 . S
C1967 C1968 1.516 . S
C1968 C1967 1.516 . S
C1968 C1969 1.502 . S
C1968 C1970 1.561 . S
C1968 C1971 1.526 . S
C1969 H1953 0.959 . S
C1969 H1954 0.959 . S
C1969 H1955 0.961 . S
C1969 C1968 1.502 . S
C1970 H1956 0.960 . S
C1970 H1957 0.961 . S
C1970 H1958 0.959 . S
C1970 C1968 1.561 . S
C1971 C1968 1.526 . S
C1971 C1972 1.396 . S
C1971 C1976 1.390 . S
C1972 C1966 1.465 . S
C1972 C1971 1.396 . S
C1972 C1973 1.399 . S
C1973 H1959 0.929 1_545 S
C1973 C1972 1.399 . S
C1973 C1974 1.385 . S
C1974 H1960 0.931 1_545 S
C1974 C1973 1.385 . S
C1974 C1975 1.389 . S
C1975 C1974 1.389 . S
C1975 C1976 1.387 . S
C1976 H1961 0.930 . S
C1976 C1971 1.390 . S
C1976 C1975 1.387 . S
H1977 C1989 0.930 . S
H1978 C1991 0.930 . S
H1979 C1992 0.930 . S
H1980 C1996 0.959 . S
H1981 C1996 0.959 . S
H1982 C1996 0.961 . S
H1983 C1997 0.960 . S
H1984 C1997 0.961 . S
H1985 C1997 0.959 . S
H1986 C2000 0.929 . S
H1987 C2001 0.931 . S
H1988 C2003 0.930 . S
C1989 H1977 0.930 . S
C1989 C1990 1.399 . S
C1989 C1994 1.399 . S
C1990 C1989 1.399 . S
C1990 C1991 1.376 . S
C1991 H1978 0.930 . S
C1991 C1990 1.376 . S
C1991 C1992 1.388 . S
C1992 H1979 0.930 . S
C1992 C1991 1.388 . S
C1992 C1993 1.390 . S
C1993 C1992 1.390 . S
C1993 C1994 1.394 . S
C1993 C1999 1.465 . S
C1994 C1989 1.399 . S
C1994 C1993 1.394 . S
C1994 C1995 1.516 . S
C1995 C1994 1.516 . S
C1995 C1996 1.502 . S
C1995 C1997 1.561 . S
C1995 C1998 1.526 . S
C1996 H1980 0.959 . S
C1996 H1981 0.959 . S
C1996 H1982 0.961 . S
C1996 C1995 1.502 . S
C1997 H1983 0.960 . S
C1997 H1984 0.961 . S
C1997 H1985 0.959 . S
C1997 C1995 1.561 . S
C1998 C1995 1.526 . S
C1998 C1999 1.396 . S
C1998 C2003 1.390 . S
C1999 C1993 1.465 . S
C1999 C1998 1.396 . S
C1999 C2000 1.399 . S
C2000 H1986 0.929 . S
C2000 C1999 1.399 . S
C2000 C2001 1.385 . S
C2001 H1987 0.931 . S
C2001 C2000 1.385 . S
C2001 C2002 1.389 . S
C2002 C2001 1.389 . S
C2002 C2003 1.387 . S
C2003 H1988 0.930 . S
C2003 C1998 1.390 . S
C2003 C2002 1.387 . S
H2004 C2016 0.930 . S
H2005 C2018 0.930 . S
H2006 C2019 0.930 . S
H2007 C2023 0.959 . S
H2008 C2023 1.007 . S
H2009 C2023 0.961 . S
H2010 C2024 0.960 . S
H2011 C2024 0.977 . S
H2012 C2024 0.959 . S
H2013 C2027 0.929 . S
H2014 C2028 0.931 . S
H2015 C2030 0.930 . S
C2016 H2004 0.930 . S
C2016 C2017 1.399 . S
C2016 C2021 1.399 1_655 S
C2017 C2016 1.399 . S
C2017 C2018 1.376 1_655 S
C2018 H2005 0.930 . S
C2018 C2017 1.376 1_455 S
C2018 C2019 1.388 . S
C2019 H2006 0.930 . S
C2019 C2018 1.388 . S
C2019 C2020 1.390 . S
C2020 C2019 1.390 . S
C2020 C2021 1.394 . S
C2020 C2026 1.465 . S
C2021 C2016 1.399 1_455 S
C2021 C2020 1.394 . S
C2021 C2022 1.516 . S
C2022 C2021 1.516 . S
C2022 C2023 1.502 1_455 S
C2022 C2024 1.561 . S
C2022 C2025 1.526 . S
C2023 H2007 0.959 . S
C2023 H2008 1.007 . S
C2023 H2009 0.961 . S
C2023 C2022 1.502 1_655 S
C2024 H2010 0.960 . S
C2024 H2011 0.977 . S
C2024 H2012 0.959 . S
C2024 C2022 1.561 . S
C2025 C2022 1.526 . S
C2025 C2026 1.396 . S
C2025 C2030 1.390 . S
C2026 C2020 1.465 . S
C2026 C2025 1.396 . S
C2026 C2027 1.399 . S
C2027 H2013 0.929 . S
C2027 C2026 1.399 . S
C2027 C2028 1.385 . S
C2028 H2014 0.931 . S
C2028 C2027 1.385 . S
C2028 C2029 1.389 . S
C2029 C2028 1.389 . S
C2029 C2030 1.387 . S
C2030 H2015 0.930 . S
C2030 C2025 1.390 . S
C2030 C2029 1.387 . S
H2031 C2043 0.930 . S
H2032 C2045 0.930 . S
H2033 C2046 0.930 . S
H2034 C2050 0.959 . S
H2035 C2050 0.959 . S
H2036 C2050 0.961 . S
H2037 C2051 0.960 . S
H2038 C2051 0.961 . S
H2039 C2051 0.959 . S
H2040 C2054 0.929 . S
H2041 C2055 0.931 . S
H2042 C2057 0.930 . S
C2043 H2031 0.930 . S
C2043 C2044 1.399 . S
C2043 C2048 1.399 . S
C2044 C2043 1.399 . S
C2044 C2045 1.376 . S
C2045 H2032 0.930 . S
C2045 C2044 1.376 . S
C2045 C2046 1.388 . S
C2046 H2033 0.930 . S
C2046 C2045 1.388 . S
C2046 C2047 1.390 . S
C2047 C2046 1.390 . S
C2047 C2048 1.394 . S
C2047 C2053 1.465 . S
C2048 C2043 1.399 . S
C2048 C2047 1.394 . S
C2048 C2049 1.516 . S
C2049 C2048 1.516 . S
C2049 C2050 1.502 . S
C2049 C2051 1.561 . S
C2049 C2052 1.526 . S
C2050 H2034 0.959 . S
C2050 H2035 0.959 . S
C2050 H2036 0.961 . S
C2050 C2049 1.502 . S
C2051 H2037 0.960 . S
C2051 H2038 0.961 . S
C2051 H2039 0.959 . S
C2051 C2049 1.561 . S
C2052 C2049 1.526 . S
C2052 C2053 1.396 . S
C2052 C2057 1.390 . S
C2053 C2047 1.465 . S
C2053 C2052 1.396 . S
C2053 C2054 1.399 . S
C2054 H2040 0.929 . S
C2054 C2053 1.399 . S
C2054 C2055 1.385 . S
C2055 H2041 0.931 . S
C2055 C2054 1.385 . S
C2055 C2056 1.389 . S
C2056 C2055 1.389 . S
C2056 C2057 1.387 . S
C2057 H2042 0.930 . S
C2057 C2052 1.390 . S
C2057 C2056 1.387 . S
H2058 C2070 0.930 . S
H2059 C2072 0.930 . S
H2060 C2073 0.930 . S
H2061 C2077 0.959 . S
H2062 C2077 0.959 . S
H2063 C2077 0.961 . S
H2064 C2078 0.960 . S
H2065 C2078 0.961 . S
H2066 C2078 0.959 . S
H2067 C2081 0.929 . S
H2068 C2082 0.931 . S
H2069 C2084 0.930 . S
C2070 H2058 0.930 . S
C2070 C2071 1.399 . S
C2070 C2075 1.399 . S
C2071 C2070 1.399 . S
C2071 C2072 1.376 . S
C2072 H2059 0.930 . S
C2072 C2071 1.376 . S
C2072 C2073 1.388 . S
C2073 H2060 0.930 . S
C2073 C2072 1.388 . S
C2073 C2074 1.390 . S
C2074 C2073 1.390 . S
C2074 C2075 1.394 . S
C2074 C2080 1.465 . S
C2075 C2070 1.399 . S
C2075 C2074 1.394 . S
C2075 C2076 1.516 . S
C2076 C2075 1.516 . S
C2076 C2077 1.502 . S
C2076 C2078 1.561 . S
C2076 C2079 1.526 . S
C2077 H2061 0.959 . S
C2077 H2062 0.959 . S
C2077 H2063 0.961 . S
C2077 C2076 1.502 . S
C2078 H2064 0.960 . S
C2078 H2065 0.961 . S
C2078 H2066 0.959 . S
C2078 C2076 1.561 . S
C2079 C2076 1.526 . S
C2079 C2080 1.396 . S
C2079 C2084 1.390 . S
C2080 C2074 1.465 . S
C2080 C2079 1.396 . S
C2080 C2081 1.399 . S
C2081 H2067 0.929 . S
C2081 C2080 1.399 . S
C2081 C2082 1.385 . S
C2082 H2068 0.931 . S
C2082 C2081 1.385 . S
C2082 C2083 1.389 . S
C2083 C2082 1.389 . S
C2083 C2084 1.387 . S
C2084 H2069 0.930 . S
C2084 C2079 1.390 . S
C2084 C2083 1.387 . S
H2085 C2097 0.930 . S
H2086 C2099 0.930 . S
H2087 C2100 0.930 . S
H2088 C2104 0.959 . S
H2089 C2104 0.959 . S
H2090 C2104 0.961 . S
H2091 C2105 0.960 . S
H2092 C2105 0.961 . S
H2093 C2105 0.959 . S
H2094 C2108 0.929 . S
H2095 C2109 0.931 . S
H2096 C2111 0.930 . S
C2097 H2085 0.930 . S
C2097 C2098 1.399 . S
C2097 C2102 1.399 . S
C2098 C2097 1.399 . S
C2098 C2099 1.376 . S
C2099 H2086 0.930 . S
C2099 C2098 1.376 . S
C2099 C2100 1.388 . S
C2100 H2087 0.930 . S
C2100 C2099 1.388 . S
C2100 C2101 1.390 . S
C2101 C2100 1.390 . S
C2101 C2102 1.394 . S
C2101 C2107 1.465 . S
C2102 C2097 1.399 . S
C2102 C2101 1.394 . S
C2102 C2103 1.516 . S
C2103 C2102 1.516 . S
C2103 C2104 1.502 . S
C2103 C2105 1.561 . S
C2103 C2106 1.526 . S
C2104 H2088 0.959 . S
C2104 H2089 0.959 . S
C2104 H2090 0.961 . S
C2104 C2103 1.502 . S
C2105 H2091 0.960 . S
C2105 H2092 0.961 . S
C2105 H2093 0.959 . S
C2105 C2103 1.561 . S
C2106 C2103 1.526 . S
C2106 C2107 1.396 . S
C2106 C2111 1.390 . S
C2107 C2101 1.465 . S
C2107 C2106 1.396 . S
C2107 C2108 1.399 . S
C2108 H2094 0.929 . S
C2108 C2107 1.399 . S
C2108 C2109 1.385 . S
C2109 H2095 0.931 . S
C2109 C2108 1.385 . S
C2109 C2110 1.389 . S
C2110 C2109 1.389 . S
C2110 C2111 1.387 . S
C2111 H2096 0.930 . S
C2111 C2106 1.390 . S
C2111 C2110 1.387 . S
H2112 C2124 0.941 . S
H2113 C2126 0.930 . S
H2114 C2127 0.930 . S
H2115 C2131 0.959 . S
H2116 C2131 0.959 . S
H2117 C2131 0.961 . S
H2118 C2132 0.960 . S
H2119 C2132 0.961 . S
H2120 C2132 0.959 . S
H2121 C2135 0.929 . S
H2122 C2136 0.931 . S
H2123 C2138 0.930 . S
C2124 H2112 0.941 . S
C2124 C2125 1.399 . S
C2124 C2129 1.399 . S
C2125 C2124 1.399 . S
C2125 C2126 1.376 . S
C2126 H2113 0.930 . S
C2126 C2125 1.376 . S
C2126 C2127 1.388 1_565 S
C2127 H2114 0.930 . S
C2127 C2126 1.388 1_545 S
C2127 C2128 1.390 1_545 S
C2128 C2127 1.390 1_565 S
C2128 C2129 1.394 . S
C2128 C2134 1.465 1_565 S
C2129 C2124 1.399 . S
C2129 C2128 1.394 . S
C2129 C2130 1.516 . S
C2130 C2129 1.516 . S
C2130 C2131 1.502 1_554 S
C2130 C2132 1.561 . S
C2130 C2133 1.526 . S
C2131 H2115 0.959 . S
C2131 H2116 0.959 . S
C2131 H2117 0.961 . S
C2131 C2130 1.502 1_556 S
C2132 H2118 0.960 . S
C2132 H2119 0.961 . S
C2132 H2120 0.959 . S
C2132 C2130 1.561 . S
C2133 C2130 1.526 . S
C2133 C2134 1.396 1_565 S
C2133 C2138 1.390 . S
C2134 C2128 1.465 1_545 S
C2134 C2133 1.396 1_545 S
C2134 C2135 1.399 . S
C2135 H2121 0.929 . S
C2135 C2134 1.399 . S
C2135 C2136 1.385 . S
C2136 H2122 0.931 . S
C2136 C2135 1.385 . S
C2136 C2137 1.389 . S
C2137 C2136 1.389 . S
C2137 C2138 1.387 1_545 S
C2138 H2123 0.930 . S
C2138 C2133 1.390 . S
C2138 C2137 1.387 1_565 S
H2139 C2151 0.930 . S
H2140 C2153 0.930 . S
H2141 C2154 0.930 . S
H2142 C2158 0.959 . S
H2143 C2158 0.959 . S
H2144 C2158 0.961 . S
H2145 C2159 0.960 . S
H2146 C2159 0.961 . S
H2147 C2159 0.959 . S
H2148 C2162 0.929 . S
H2149 C2163 0.931 . S
H2150 C2165 0.930 . S
C2151 H2139 0.930 . S
C2151 C2152 1.399 . S
C2151 C2156 1.399 . S
C2152 C2151 1.399 . S
C2152 C2153 1.376 1_554 S
C2153 H2140 0.930 . S
C2153 C2152 1.376 1_556 S
C2153 C2154 1.388 . S
C2154 H2141 0.930 . S
C2154 C2153 1.388 . S
C2154 C2155 1.390 . S
C2155 C2154 1.390 . S
C2155 C2156 1.394 1_556 S
C2155 C2161 1.465 . S
C2156 C2151 1.399 . S
C2156 C2155 1.394 1_554 S
C2156 C2157 1.516 . S
C2157 C2156 1.516 . S
C2157 C2158 1.502 . S
C2157 C2159 1.561 . S
C2157 C2160 1.526 . S
C2158 H2142 0.959 . S
C2158 H2143 0.959 . S
C2158 H2144 0.961 . S
C2158 C2157 1.502 . S
C2159 H2145 0.960 . S
C2159 H2146 0.961 . S
C2159 H2147 0.959 . S
C2159 C2157 1.561 . S
C2160 C2157 1.526 . S
C2160 C2161 1.396 1_554 S
C2160 C2165 1.390 . S
C2161 C2155 1.465 . S
C2161 C2160 1.396 1_556 S
C2161 C2162 1.399 . S
C2162 H2148 0.929 . S
C2162 C2161 1.399 . S
C2162 C2163 1.385 . S
C2163 H2149 0.931 . S
C2163 C2162 1.385 . S
C2163 C2164 1.389 1_556 S
C2164 C2163 1.389 1_554 S
C2164 C2165 1.387 . S
C2165 H2150 0.930 . S
C2165 C2160 1.390 . S
C2165 C2164 1.387 . S
H2166 C2178 0.930 . S
H2167 C2180 0.930 . S
H2168 C2181 0.930 . S
H2169 C2185 0.959 . S
H2170 C2185 0.959 . S
H2171 C2185 0.961 . S
H2172 C2186 0.960 . S
H2173 C2186 0.961 . S
H2174 C2186 0.959 . S
H2175 C2189 0.929 . S
H2176 C2190 0.931 . S
H2177 C2192 0.930 . S
C2178 H2166 0.930 . S
C2178 C2179 1.399 . S
C2178 C2183 1.399 . S
C2179 C2178 1.399 . S
C2179 C2180 1.376 . S
C2180 H2167 0.930 . S
C2180 C2179 1.376 . S
C2180 C2181 1.388 . S
C2181 H2168 0.930 . S
C2181 C2180 1.388 . S
C2181 C2182 1.390 . S
C2182 C2181 1.390 . S
C2182 C2183 1.394 . S
C2182 C2188 1.465 . S
C2183 C2178 1.399 . S
C2183 C2182 1.394 . S
C2183 C2184 1.516 . S
C2184 C2183 1.516 . S
C2184 C2185 1.502 . S
C2184 C2186 1.561 . S
C2184 C2187 1.526 . S
C2185 H2169 0.959 . S
C2185 H2170 0.959 . S
C2185 H2171 0.961 . S
C2185 C2184 1.502 . S
C2186 H2172 0.960 . S
C2186 H2173 0.961 . S
C2186 H2174 0.959 . S
C2186 C2184 1.561 . S
C2187 C2184 1.526 . S
C2187 C2188 1.396 . S
C2187 C2192 1.390 . S
C2188 C2182 1.465 . S
C2188 C2187 1.396 . S
C2188 C2189 1.399 . S
C2189 H2175 0.929 . S
C2189 C2188 1.399 . S
C2189 C2190 1.385 . S
C2190 H2176 0.931 . S
C2190 C2189 1.385 . S
C2190 C2191 1.389 . S
C2191 C2190 1.389 . S
C2191 C2192 1.387 . S
C2192 H2177 0.930 . S
C2192 C2187 1.390 . S
C2192 C2191 1.387 . S
H2193 C2205 0.930 . S
H2194 C2207 0.930 . S
H2195 C2208 0.930 . S
H2196 C2212 0.959 . S
H2197 C2212 0.959 . S
H2198 C2212 0.961 . S
H2199 C2213 0.960 . S
H2200 C2213 0.961 . S
H2201 C2213 0.959 . S
H2202 C2216 0.929 . S
H2203 C2217 0.931 1_455 S
H2204 C2219 0.915 1_455 S
C2205 H2193 0.930 . S
C2205 C2206 1.399 . S
C2205 C2210 1.399 . S
C2206 C2205 1.399 . S
C2206 C2207 1.376 . S
C2207 H2194 0.930 . S
C2207 C2206 1.376 . S
C2207 C2208 1.388 . S
C2208 H2195 0.930 . S
C2208 C2207 1.388 . S
C2208 C2209 1.390 . S
C2209 C2208 1.390 . S
C2209 C2210 1.394 . S
C2209 C2215 1.465 . S
C2210 C2205 1.399 . S
C2210 C2209 1.394 . S
C2210 C2211 1.516 . S
C2211 C2210 1.516 . S
C2211 C2212 1.502 . S
C2211 C2213 1.561 . S
C2211 C2214 1.526 . S
C2212 H2196 0.959 . S
C2212 H2197 0.959 . S
C2212 H2198 0.961 . S
C2212 C2211 1.502 . S
C2213 H2199 0.960 . S
C2213 H2200 0.961 . S
C2213 H2201 0.959 . S
C2213 C2211 1.561 . S
C2214 C2211 1.526 . S
C2214 C2215 1.396 . S
C2214 C2219 1.410 . S
C2215 C2209 1.465 . S
C2215 C2214 1.396 . S
C2215 C2216 1.399 . S
C2216 H2202 0.929 . S
C2216 C2215 1.399 . S
C2216 C2217 1.385 . S
C2217 H2203 0.931 1_655 S
C2217 C2216 1.385 . S
C2217 C2218 1.389 1_655 S
C2218 C2217 1.389 1_455 S
C2218 C2219 1.381 1_455 S
C2219 H2204 0.915 1_655 S
C2219 C2214 1.410 . S
C2219 C2218 1.381 1_655 S
H2220 C2232 0.930 . S
H2221 C2234 0.930 . S
H2222 C2235 0.930 . S
H2223 C2239 0.959 . S
H2224 C2239 0.959 . S
H2225 C2239 0.961 . S
H2226 C2240 0.960 . S
H2227 C2240 0.961 . S
H2228 C2240 0.959 . S
H2229 C2243 0.929 . S
H2230 C2244 0.931 . S
H2231 C2246 0.930 . S
C2232 H2220 0.930 . S
C2232 C2233 1.399 . S
C2232 C2237 1.399 . S
C2233 C2232 1.399 . S
C2233 C2234 1.376 . S
C2234 H2221 0.930 . S
C2234 C2233 1.376 . S
C2234 C2235 1.388 . S
C2235 H2222 0.930 . S
C2235 C2234 1.388 . S
C2235 C2236 1.390 . S
C2236 C2235 1.390 . S
C2236 C2237 1.394 . S
C2236 C2242 1.465 . S
C2237 C2232 1.399 . S
C2237 C2236 1.394 . S
C2237 C2238 1.516 . S
C2238 C2237 1.516 . S
C2238 C2239 1.502 . S
C2238 C2240 1.561 . S
C2238 C2241 1.526 . S
C2239 H2223 0.959 . S
C2239 H2224 0.959 . S
C2239 H2225 0.961 . S
C2239 C2238 1.502 . S
C2240 H2226 0.960 . S
C2240 H2227 0.961 . S
C2240 H2228 0.959 . S
C2240 C2238 1.561 . S
C2241 C2238 1.526 . S
C2241 C2242 1.396 . S
C2241 C2246 1.390 . S
C2242 C2236 1.465 . S
C2242 C2241 1.396 . S
C2242 C2243 1.399 . S
C2243 H2229 0.929 . S
C2243 C2242 1.399 . S
C2243 C2244 1.385 . S
C2244 H2230 0.931 . S
C2244 C2243 1.385 . S
C2244 C2245 1.389 . S
C2245 C2244 1.389 . S
C2245 C2246 1.387 . S
C2246 H2231 0.930 . S
C2246 C2241 1.390 . S
C2246 C2245 1.387 . S
H2247 C2259 0.930 . S
H2248 C2261 0.930 . S
H2249 C2262 0.930 . S
H2250 C2266 0.959 . S
H2251 C2266 0.959 . S
H2252 C2266 0.961 . S
H2253 C2267 0.960 . S
H2254 C2267 0.961 . S
H2255 C2267 0.959 . S
H2256 C2270 0.929 . S
H2257 C2271 0.931 . S
H2258 C2273 0.930 . S
C2259 H2247 0.930 . S
C2259 C2260 1.399 . S
C2259 C2264 1.399 . S
C2260 C2259 1.399 . S
C2260 C2261 1.376 . S
C2261 H2248 0.930 . S
C2261 C2260 1.376 . S
C2261 C2262 1.388 . S
C2262 H2249 0.930 . S
C2262 C2261 1.388 . S
C2262 C2263 1.390 . S
C2263 C2262 1.390 . S
C2263 C2264 1.394 . S
C2263 C2269 1.465 . S
C2264 C2259 1.399 . S
C2264 C2263 1.394 . S
C2264 C2265 1.516 . S
C2265 C2264 1.516 . S
C2265 C2266 1.502 . S
C2265 C2267 1.561 . S
C2265 C2268 1.526 . S
C2266 H2250 0.959 . S
C2266 H2251 0.959 . S
C2266 H2252 0.961 . S
C2266 C2265 1.502 . S
C2267 H2253 0.960 . S
C2267 H2254 0.961 . S
C2267 H2255 0.959 . S
C2267 C2265 1.561 . S
C2268 C2265 1.526 . S
C2268 C2269 1.396 . S
C2268 C2273 1.390 . S
C2269 C2263 1.465 . S
C2269 C2268 1.396 . S
C2269 C2270 1.399 . S
C2270 H2256 0.929 . S
C2270 C2269 1.399 . S
C2270 C2271 1.385 . S
C2271 H2257 0.931 . S
C2271 C2270 1.385 . S
C2271 C2272 1.389 . S
C2272 C2271 1.389 . S
C2272 C2273 1.387 . S
C2273 H2258 0.930 . S
C2273 C2268 1.390 . S
C2273 C2272 1.387 . S
H2274 C2286 0.930 . S
H2275 C2288 0.930 . S
H2276 C2289 0.930 . S
H2277 C2293 0.959 . S
H2278 C2293 0.959 . S
H2279 C2293 0.961 . S
H2280 C2294 0.960 . S
H2281 C2294 0.961 . S
H2282 C2294 0.959 . S
H2283 C2297 0.929 . S
H2284 C2298 0.931 . S
H2285 C2300 0.930 . S
C2286 H2274 0.930 . S
C2286 C2287 1.399 . S
C2286 C2291 1.399 . S
C2287 C2286 1.399 . S
C2287 C2288 1.376 . S
C2288 H2275 0.930 . S
C2288 C2287 1.376 . S
C2288 C2289 1.388 . S
C2289 H2276 0.930 . S
C2289 C2288 1.388 . S
C2289 C2290 1.390 . S
C2290 C2289 1.390 . S
C2290 C2291 1.394 . S
C2290 C2296 1.465 . S
C2291 C2286 1.399 . S
C2291 C2290 1.394 . S
C2291 C2292 1.516 . S
C2292 C2291 1.516 . S
C2292 C2293 1.502 . S
C2292 C2294 1.561 . S
C2292 C2295 1.526 . S
C2293 H2277 0.959 . S
C2293 H2278 0.959 . S
C2293 H2279 0.961 . S
C2293 C2292 1.502 . S
C2294 H2280 0.960 . S
C2294 H2281 0.961 . S
C2294 H2282 0.959 . S
C2294 C2292 1.561 . S
C2295 C2292 1.526 . S
C2295 C2296 1.396 . S
C2295 C2300 1.390 . S
C2296 C2290 1.465 . S
C2296 C2295 1.396 . S
C2296 C2297 1.399 . S
C2297 H2283 0.929 . S
C2297 C2296 1.399 . S
C2297 C2298 1.385 . S
C2298 H2284 0.931 . S
C2298 C2297 1.385 . S
C2298 C2299 1.389 . S
C2299 C2298 1.389 . S
C2299 C2300 1.387 . S
C2300 H2285 0.930 . S
C2300 C2295 1.390 . S
C2300 C2299 1.387 . S
H2301 C2313 0.930 . S
H2302 C2315 0.930 . S
H2303 C2316 0.930 . S
H2304 C2320 0.959 . S
H2305 C2320 0.959 . S
H2306 C2320 0.961 . S
H2307 C2321 0.960 . S
H2308 C2321 0.961 . S
H2309 C2321 0.959 . S
H2310 C2324 0.929 . S
H2311 C2325 0.931 . S
H2312 C2327 0.930 . S
C2313 H2301 0.930 . S
C2313 C2314 1.399 . S
C2313 C2318 1.399 . S
C2314 C2313 1.399 . S
C2314 C2315 1.376 . S
C2315 H2302 0.930 . S
C2315 C2314 1.376 . S
C2315 C2316 1.388 . S
C2316 H2303 0.930 . S
C2316 C2315 1.388 . S
C2316 C2317 1.390 . S
C2317 C2316 1.390 . S
C2317 C2318 1.394 . S
C2317 C2323 1.465 . S
C2318 C2313 1.399 . S
C2318 C2317 1.394 . S
C2318 C2319 1.516 . S
C2319 C2318 1.516 . S
C2319 C2320 1.502 . S
C2319 C2321 1.561 . S
C2319 C2322 1.526 . S
C2320 H2304 0.959 . S
C2320 H2305 0.959 . S
C2320 H2306 0.961 . S
C2320 C2319 1.502 . S
C2321 H2307 0.960 . S
C2321 H2308 0.961 . S
C2321 H2309 0.959 . S
C2321 C2319 1.561 . S
C2322 C2319 1.526 . S
C2322 C2323 1.396 . S
C2322 C2327 1.390 . S
C2323 C2317 1.465 . S
C2323 C2322 1.396 . S
C2323 C2324 1.399 . S
C2324 H2310 0.929 . S
C2324 C2323 1.399 . S
C2324 C2325 1.385 . S
C2325 H2311 0.931 . S
C2325 C2324 1.385 . S
C2325 C2326 1.389 . S
C2326 C2325 1.389 . S
C2326 C2327 1.387 . S
C2327 H2312 0.930 . S
C2327 C2322 1.390 . S
C2327 C2326 1.387 . S
H2328 C2340 0.930 . S
H2329 C2342 0.930 . S
H2330 C2343 0.930 . S
H2331 C2347 0.959 . S
H2332 C2347 0.959 1_556 S
H2333 C2347 0.961 . S
H2334 C2348 0.960 . S
H2335 C2348 0.961 1_556 S
H2336 C2348 0.959 . S
H2337 C2351 0.929 . S
H2338 C2352 0.931 . S
H2339 C2354 0.930 . S
C2340 H2328 0.930 . S
C2340 C2341 1.399 . S
C2340 C2345 1.399 . S
C2341 C2340 1.399 . S
C2341 C2342 1.376 . S
C2342 H2329 0.930 . S
C2342 C2341 1.376 . S
C2342 C2343 1.388 . S
C2343 H2330 0.930 . S
C2343 C2342 1.388 . S
C2343 C2344 1.390 . S
C2344 C2343 1.390 . S
C2344 C2345 1.394 . S
C2344 C2350 1.465 . S
C2345 C2340 1.399 . S
C2345 C2344 1.394 . S
C2345 C2346 1.516 . S
C2346 C2345 1.516 . S
C2346 C2347 1.502 . S
C2346 C2348 1.561 . S
C2346 C2349 1.526 . S
C2347 H2331 0.959 . S
C2347 H2332 0.959 1_554 S
C2347 H2333 0.961 . S
C2347 C2346 1.502 . S
C2348 H2334 0.960 . S
C2348 H2335 0.961 1_554 S
C2348 H2336 0.959 . S
C2348 C2346 1.561 . S
C2349 C2346 1.526 . S
C2349 C2350 1.396 . S
C2349 C2354 1.390 . S
C2350 C2344 1.465 . S
C2350 C2349 1.396 . S
C2350 C2351 1.399 . S
C2351 H2337 0.929 . S
C2351 C2350 1.399 . S
C2351 C2352 1.385 . S
C2352 H2338 0.931 . S
C2352 C2351 1.385 . S
C2352 C2353 1.389 . S
C2353 C2352 1.389 . S
C2353 C2354 1.387 . S
C2354 H2339 0.930 . S
C2354 C2349 1.390 . S
C2354 C2353 1.387 . S
H2355 C2367 0.930 . S
H2356 C2369 0.930 . S
H2357 C2370 0.930 . S
H2358 C2374 0.959 . S
H2359 C2374 0.959 . S
H2360 C2374 0.961 . S
H2361 C2375 0.960 . S
H2362 C2375 0.961 . S
H2363 C2375 0.959 . S
H2364 C2378 0.929 . S
H2365 C2379 0.931 . S
H2366 C2381 0.930 . S
C2367 H2355 0.930 . S
C2367 C2368 1.399 . S
C2367 C2372 1.399 . S
C2368 C2367 1.399 . S
C2368 C2369 1.376 . S
C2369 H2356 0.930 . S
C2369 C2368 1.376 . S
C2369 C2370 1.388 . S
C2370 H2357 0.930 . S
C2370 C2369 1.388 . S
C2370 C2371 1.390 . S
C2371 C2370 1.390 . S
C2371 C2372 1.394 . S
C2371 C2377 1.465 . S
C2372 C2367 1.399 . S
C2372 C2371 1.394 . S
C2372 C2373 1.516 . S
C2373 C2372 1.516 . S
C2373 C2374 1.502 . S
C2373 C2375 1.561 . S
C2373 C2376 1.526 . S
C2374 H2358 0.959 . S
C2374 H2359 0.959 . S
C2374 H2360 0.961 . S
C2374 C2373 1.502 . S
C2375 H2361 0.960 . S
C2375 H2362 0.961 . S
C2375 H2363 0.959 . S
C2375 C2373 1.561 . S
C2376 C2373 1.526 . S
C2376 C2377 1.396 . S
C2376 C2381 1.390 . S
C2377 C2371 1.465 . S
C2377 C2376 1.396 . S
C2377 C2378 1.399 . S
C2378 H2364 0.929 . S
C2378 C2377 1.399 . S
C2378 C2379 1.385 . S
C2379 H2365 0.931 . S
C2379 C2378 1.385 . S
C2379 C2380 1.389 . S
C2380 C2379 1.389 . S
C2380 C2381 1.387 . S
C2381 H2366 0.930 . S
C2381 C2376 1.390 . S
C2381 C2380 1.387 . S
H2382 C2394 0.930 . S
H2383 C2396 0.930 . S
H2384 C2397 0.930 . S
H2385 C2401 0.959 . S
H2386 C2401 0.959 . S
H2387 C2401 0.961 . S
H2388 C2402 0.960 . S
H2389 C2402 0.961 . S
H2390 C2402 0.959 . S
H2391 C2405 0.929 . S
H2392 C2406 0.931 . S
H2393 C2408 0.930 . S
C2394 H2382 0.930 . S
C2394 C2395 1.399 . S
C2394 C2399 1.399 . S
C2395 C2394 1.399 . S
C2395 C2396 1.376 . S
C2396 H2383 0.930 . S
C2396 C2395 1.376 . S
C2396 C2397 1.388 . S
C2397 H2384 0.930 . S
C2397 C2396 1.388 . S
C2397 C2398 1.390 . S
C2398 C2397 1.390 . S
C2398 C2399 1.394 . S
C2398 C2404 1.465 . S
C2399 C2394 1.399 . S
C2399 C2398 1.394 . S
C2399 C2400 1.516 . S
C2400 C2399 1.516 . S
C2400 C2401 1.502 . S
C2400 C2402 1.561 . S
C2400 C2403 1.526 . S
C2401 H2385 0.959 . S
C2401 H2386 0.959 . S
C2401 H2387 0.961 . S
C2401 C2400 1.502 . S
C2402 H2388 0.960 . S
C2402 H2389 0.961 . S
C2402 H2390 0.959 . S
C2402 C2400 1.561 . S
C2403 C2400 1.526 . S
C2403 C2404 1.396 . S
C2403 C2408 1.390 . S
C2404 C2398 1.465 . S
C2404 C2403 1.396 . S
C2404 C2405 1.399 . S
C2405 H2391 0.929 . S
C2405 C2404 1.399 . S
C2405 C2406 1.385 . S
C2406 H2392 0.931 . S
C2406 C2405 1.385 . S
C2406 C2407 1.389 . S
C2407 C2406 1.389 . S
C2407 C2408 1.387 . S
C2408 H2393 0.930 . S
C2408 C2403 1.390 . S
C2408 C2407 1.387 . S
H2409 C2421 0.930 . S
H2410 C2423 0.930 . S
H2411 C2424 0.930 . S
H2412 C2428 0.959 . S
H2413 C2428 0.959 . S
H2414 C2428 0.961 . S
H2415 C2429 0.960 . S
H2416 C2429 0.961 . S
H2417 C2429 0.959 . S
H2418 C2432 0.929 . S
H2419 C2433 0.931 . S
H2420 C2435 0.930 . S
C2421 H2409 0.930 . S
C2421 C2422 1.399 . S
C2421 C2426 1.399 . S
C2422 C2421 1.399 . S
C2422 C2423 1.376 . S
C2423 H2410 0.930 . S
C2423 C2422 1.376 . S
C2423 C2424 1.388 . S
C2424 H2411 0.930 . S
C2424 C2423 1.388 . S
C2424 C2425 1.390 . S
C2425 C2424 1.390 . S
C2425 C2426 1.394 . S
C2425 C2431 1.465 . S
C2426 C2421 1.399 . S
C2426 C2425 1.394 . S
C2426 C2427 1.516 . S
C2427 C2426 1.516 . S
C2427 C2428 1.502 . S
C2427 C2429 1.561 . S
C2427 C2430 1.526 . S
C2428 H2412 0.959 . S
C2428 H2413 0.959 . S
C2428 H2414 0.961 . S
C2428 C2427 1.502 . S
C2429 H2415 0.960 . S
C2429 H2416 0.961 . S
C2429 H2417 0.959 . S
C2429 C2427 1.561 . S
C2430 C2427 1.526 . S
C2430 C2431 1.396 . S
C2430 C2435 1.390 . S
C2431 C2425 1.465 . S
C2431 C2430 1.396 . S
C2431 C2432 1.399 . S
C2432 H2418 0.929 . S
C2432 C2431 1.399 . S
C2432 C2433 1.385 . S
C2433 H2419 0.931 . S
C2433 C2432 1.385 . S
C2433 C2434 1.389 . S
C2434 C2433 1.389 . S
C2434 C2435 1.387 . S
C2435 H2420 0.930 . S
C2435 C2430 1.390 . S
C2435 C2434 1.387 . S
H2436 C2448 0.930 . S
H2437 C2450 0.930 . S
H2438 C2451 0.930 . S
H2439 C2455 0.959 . S
H2440 C2455 0.959 . S
H2441 C2455 0.961 . S
H2442 C2456 0.960 . S
H2443 C2456 0.961 . S
H2444 C2456 0.959 . S
H2445 C2459 0.929 . S
H2446 C2460 0.931 . S
H2447 C2462 0.930 . S
C2448 H2436 0.930 . S
C2448 C2449 1.399 . S
C2448 C2453 1.399 . S
C2449 C2448 1.399 . S
C2449 C2450 1.376 . S
C2450 H2437 0.930 . S
C2450 C2449 1.376 . S
C2450 C2451 1.388 . S
C2451 H2438 0.930 . S
C2451 C2450 1.388 . S
C2451 C2452 1.390 . S
C2452 C2451 1.390 . S
C2452 C2453 1.394 . S
C2452 C2458 1.465 . S
C2453 C2448 1.399 . S
C2453 C2452 1.394 . S
C2453 C2454 1.516 . S
C2454 C2453 1.516 . S
C2454 C2455 1.502 . S
C2454 C2456 1.561 . S
C2454 C2457 1.526 . S
C2455 H2439 0.959 . S
C2455 H2440 0.959 . S
C2455 H2441 0.961 . S
C2455 C2454 1.502 . S
C2456 H2442 0.960 . S
C2456 H2443 0.961 . S
C2456 H2444 0.959 . S
C2456 C2454 1.561 . S
C2457 C2454 1.526 . S
C2457 C2458 1.396 . S
C2457 C2462 1.390 . S
C2458 C2452 1.465 . S
C2458 C2457 1.396 . S
C2458 C2459 1.399 . S
C2459 H2445 0.929 . S
C2459 C2458 1.399 . S
C2459 C2460 1.385 . S
C2460 H2446 0.931 . S
C2460 C2459 1.385 . S
C2460 C2461 1.389 . S
C2461 C2460 1.389 . S
C2461 C2462 1.387 . S
C2462 H2447 0.930 . S
C2462 C2457 1.390 . S
C2462 C2461 1.387 . S
H2463 C2475 0.930 . S
H2464 C2477 0.930 . S
H2465 C2478 0.930 . S
H2466 C2482 0.959 . S
H2467 C2482 0.959 . S
H2468 C2482 0.961 . S
H2469 C2483 0.960 . S
H2470 C2483 0.961 . S
H2471 C2483 0.959 . S
H2472 C2486 0.929 . S
H2473 C2487 0.931 . S
H2474 C2489 0.930 . S
C2475 H2463 0.930 . S
C2475 C2476 1.399 . S
C2475 C2480 1.399 . S
C2476 C2475 1.399 . S
C2476 C2477 1.376 . S
C2477 H2464 0.930 . S
C2477 C2476 1.376 . S
C2477 C2478 1.388 . S
C2478 H2465 0.930 . S
C2478 C2477 1.388 . S
C2478 C2479 1.390 . S
C2479 C2478 1.390 . S
C2479 C2480 1.394 . S
C2479 C2485 1.465 . S
C2480 C2475 1.399 . S
C2480 C2479 1.394 . S
C2480 C2481 1.516 . S
C2481 C2480 1.516 . S
C2481 C2482 1.502 . S
C2481 C2483 1.561 . S
C2481 C2484 1.526 . S
C2482 H2466 0.959 . S
C2482 H2467 0.959 . S
C2482 H2468 0.961 . S
C2482 C2481 1.502 . S
C2483 H2469 0.960 . S
C2483 H2470 0.961 . S
C2483 H2471 0.959 . S
C2483 C2481 1.561 . S
C2484 C2481 1.526 . S
C2484 C2485 1.396 . S
C2484 C2489 1.390 . S
C2485 C2479 1.465 . S
C2485 C2484 1.396 . S
C2485 C2486 1.399 . S
C2486 H2472 0.929 . S
C2486 C2485 1.399 . S
C2486 C2487 1.385 . S
C2487 H2473 0.931 . S
C2487 C2486 1.385 . S
C2487 C2488 1.389 . S
C2488 C2487 1.389 . S
C2488 C2489 1.387 . S
C2489 H2474 0.930 . S
C2489 C2484 1.390 . S
C2489 C2488 1.387 . S
H2490 C2502 0.930 . S
H2491 C2504 0.930 . S
H2492 C2505 0.930 . S
H2493 C2509 0.959 . S
H2494 C2509 0.959 1_554 S
H2495 C2509 0.961 . S
H2496 C2510 0.960 . S
H2497 C2510 0.961 1_554 S
H2498 C2510 0.959 . S
H2499 C2513 0.929 . S
H2500 C2514 0.931 1_545 S
H2501 C2516 0.930 1_554 S
C2502 H2490 0.930 . S
C2502 C2503 1.399 . S
C2502 C2507 1.399 . S
C2503 C2502 1.399 . S
C2503 C2504 1.376 . S
C2504 H2491 0.930 . S
C2504 C2503 1.376 . S
C2504 C2505 1.388 . S
C2505 H2492 0.930 . S
C2505 C2504 1.388 . S
C2505 C2506 1.390 . S
C2506 C2505 1.390 . S
C2506 C2507 1.394 . S
C2506 C2512 1.465 . S
C2507 C2502 1.399 . S
C2507 C2506 1.394 . S
C2507 C2508 1.516 . S
C2508 C2507 1.516 . S
C2508 C2509 1.502 . S
C2508 C2510 1.561 . S
C2508 C2511 1.526 . S
C2509 H2493 0.959 . S
C2509 H2494 0.959 1_556 S
C2509 H2495 0.961 . S
C2509 C2508 1.502 . S
C2510 H2496 0.960 . S
C2510 H2497 0.961 1_556 S
C2510 H2498 0.959 . S
C2510 C2508 1.561 . S
C2511 C2508 1.526 . S
C2511 C2512 1.396 . S
C2511 C2516 1.390 . S
C2512 C2506 1.465 . S
C2512 C2511 1.396 . S
C2512 C2513 1.399 . S
C2513 H2499 0.929 . S
C2513 C2512 1.399 . S
C2513 C2514 1.385 . S
C2514 H2500 0.931 1_565 S
C2514 C2513 1.385 . S
C2514 C2515 1.389 . S
C2515 C2514 1.389 . S
C2515 C2516 1.387 . S
C2516 H2501 0.930 1_556 S
C2516 C2511 1.390 . S
C2516 C2515 1.387 . S
H2517 C2529 0.930 . S
H2518 C2531 0.930 . S
H2519 C2532 0.930 . S
H2520 C2536 0.959 . S
H2521 C2536 0.959 . S
H2522 C2536 0.961 . S
H2523 C2537 0.960 . S
H2524 C2537 0.961 . S
H2525 C2537 0.959 . S
H2526 C2540 0.929 . S
H2527 C2541 0.931 . S
H2528 C2543 0.930 . S
C2529 H2517 0.930 . S
C2529 C2530 1.399 . S
C2529 C2534 1.399 . S
C2530 C2529 1.399 . S
C2530 C2531 1.376 . S
C2531 H2518 0.930 . S
C2531 C2530 1.376 . S
C2531 C2532 1.388 . S
C2532 H2519 0.930 . S
C2532 C2531 1.388 . S
C2532 C2533 1.390 . S
C2533 C2532 1.390 . S
C2533 C2534 1.394 . S
C2533 C2539 1.465 . S
C2534 C2529 1.399 . S
C2534 C2533 1.394 . S
C2534 C2535 1.516 . S
C2535 C2534 1.516 . S
C2535 C2536 1.502 . S
C2535 C2537 1.561 . S
C2535 C2538 1.526 . S
C2536 H2520 0.959 . S
C2536 H2521 0.959 . S
C2536 H2522 0.961 . S
C2536 C2535 1.502 . S
C2537 H2523 0.960 . S
C2537 H2524 0.961 . S
C2537 H2525 0.959 . S
C2537 C2535 1.561 . S
C2538 C2535 1.526 . S
C2538 C2539 1.396 . S
C2538 C2543 1.390 . S
C2539 C2533 1.465 . S
C2539 C2538 1.396 . S
C2539 C2540 1.399 . S
C2540 H2526 0.929 . S
C2540 C2539 1.399 . S
C2540 C2541 1.385 . S
C2541 H2527 0.931 . S
C2541 C2540 1.385 . S
C2541 C2542 1.389 . S
C2542 C2541 1.389 . S
C2542 C2543 1.387 . S
C2543 H2528 0.930 . S
C2543 C2538 1.390 . S
C2543 C2542 1.387 . S
H2544 C2556 0.930 . S
H2545 C2558 0.930 . S
H2546 C2559 0.930 . S
H2547 C2563 0.959 . S
H2548 C2563 0.959 . S
H2549 C2563 0.961 . S
H2550 C2564 0.960 . S
H2551 C2564 0.961 . S
H2552 C2564 0.959 . S
H2553 C2567 0.929 . S
H2554 C2568 0.931 . S
H2555 C2570 0.930 1_565 S
C2556 H2544 0.930 . S
C2556 C2557 1.399 1_565 S
C2556 C2561 1.399 1_565 S
C2557 C2556 1.399 1_545 S
C2557 C2558 1.376 . S
C2558 H2545 0.930 . S
C2558 C2557 1.376 . S
C2558 C2559 1.388 . S
C2559 H2546 0.930 . S
C2559 C2558 1.388 . S
C2559 C2560 1.390 . S
C2560 C2559 1.390 . S
C2560 C2561 1.394 . S
C2560 C2566 1.465 . S
C2561 C2556 1.399 1_545 S
C2561 C2560 1.394 . S
C2561 C2562 1.516 1_545 S
C2562 C2561 1.516 1_565 S
C2562 C2563 1.502 . S
C2562 C2564 1.561 . S
C2562 C2565 1.526 1_565 S
C2563 H2547 0.959 . S
C2563 H2548 0.959 . S
C2563 H2549 0.961 . S
C2563 C2562 1.502 . S
C2564 H2550 0.960 . S
C2564 H2551 0.961 . S
C2564 H2552 0.959 . S
C2564 C2562 1.561 . S
C2565 C2562 1.526 1_545 S
C2565 C2566 1.396 . S
C2565 C2570 1.390 . S
C2566 C2560 1.465 . S
C2566 C2565 1.396 . S
C2566 C2567 1.399 . S
C2567 H2553 0.929 . S
C2567 C2566 1.399 . S
C2567 C2568 1.385 . S
C2568 H2554 0.931 . S
C2568 C2567 1.385 . S
C2568 C2569 1.389 . S
C2569 C2568 1.389 . S
C2569 C2570 1.387 . S
C2570 H2555 0.930 1_545 S
C2570 C2565 1.390 . S
C2570 C2569 1.387 . S
H2571 C2583 0.930 . S
H2572 C2585 0.930 . S
H2573 C2586 0.930 . S
H2574 C2590 0.959 . S
H2575 C2590 0.959 . S
H2576 C2590 0.961 . S
H2577 C2591 0.960 . S
H2578 C2591 0.961 . S
H2579 C2591 0.959 . S
H2580 C2594 0.929 . S
H2581 C2595 0.931 . S
H2582 C2597 0.930 . S
C2583 H2571 0.930 . S
C2583 C2584 1.399 . S
C2583 C2588 1.399 . S
C2584 C2583 1.399 . S
C2584 C2585 1.376 . S
C2585 H2572 0.930 . S
C2585 C2584 1.376 . S
C2585 C2586 1.388 . S
C2586 H2573 0.930 . S
C2586 C2585 1.388 . S
C2586 C2587 1.390 . S
C2587 C2586 1.390 . S
C2587 C2588 1.394 . S
C2587 C2593 1.465 . S
C2588 C2583 1.399 . S
C2588 C2587 1.394 . S
C2588 C2589 1.516 . S
C2589 C2588 1.516 . S
C2589 C2590 1.502 . S
C2589 C2591 1.561 . S
C2589 C2592 1.526 . S
C2590 H2574 0.959 . S
C2590 H2575 0.959 . S
C2590 H2576 0.961 . S
C2590 C2589 1.502 . S
C2591 H2577 0.960 . S
C2591 H2578 0.961 . S
C2591 H2579 0.959 . S
C2591 C2589 1.561 . S
C2592 C2589 1.526 . S
C2592 C2593 1.396 . S
C2592 C2597 1.390 . S
C2593 C2587 1.465 . S
C2593 C2592 1.396 . S
C2593 C2594 1.399 . S
C2594 H2580 0.929 . S
C2594 C2593 1.399 . S
C2594 C2595 1.385 . S
C2595 H2581 0.931 . S
C2595 C2594 1.385 . S
C2595 C2596 1.389 . S
C2596 C2595 1.389 . S
C2596 C2597 1.387 . S
C2597 H2582 0.930 . S
C2597 C2592 1.390 . S
C2597 C2596 1.387 . S
H2598 C2610 0.930 . S
H2599 C2612 0.930 . S
H2600 C2613 0.930 . S
H2601 C2617 0.959 1_545 S
H2602 C2617 0.959 . S
H2603 C2617 0.961 . S
H2604 C2618 0.960 . S
H2605 C2618 0.961 . S
H2606 C2618 0.959 . S
H2607 C2621 0.929 . S
H2608 C2622 0.931 . S
H2609 C2624 0.930 . S
C2610 H2598 0.930 . S
C2610 C2611 1.399 . S
C2610 C2615 1.399 . S
C2611 C2610 1.399 . S
C2611 C2612 1.376 . S
C2612 H2599 0.930 . S
C2612 C2611 1.376 . S
C2612 C2613 1.388 . S
C2613 H2600 0.930 . S
C2613 C2612 1.388 . S
C2613 C2614 1.390 . S
C2614 C2613 1.390 . S
C2614 C2615 1.394 . S
C2614 C2620 1.465 . S
C2615 C2610 1.399 . S
C2615 C2614 1.394 . S
C2615 C2616 1.516 . S
C2616 C2615 1.516 . S
C2616 C2617 1.502 1_545 S
C2616 C2618 1.561 1_545 S
C2616 C2619 1.526 . S
C2617 H2601 0.959 1_565 S
C2617 H2602 0.959 . S
C2617 H2603 0.961 . S
C2617 C2616 1.502 1_565 S
C2618 H2604 0.960 . S
C2618 H2605 0.961 . S
C2618 H2606 0.959 . S
C2618 C2616 1.561 1_565 S
C2619 C2616 1.526 . S
C2619 C2620 1.396 . S
C2619 C2624 1.390 . S
C2620 C2614 1.465 . S
C2620 C2619 1.396 . S
C2620 C2621 1.399 . S
C2621 H2607 0.929 . S
C2621 C2620 1.399 . S
C2621 C2622 1.385 . S
C2622 H2608 0.931 . S
C2622 C2621 1.385 . S
C2622 C2623 1.389 . S
C2623 C2622 1.389 . S
C2623 C2624 1.387 . S
C2624 H2609 0.930 . S
C2624 C2619 1.390 . S
C2624 C2623 1.387 . S
H2625 C2637 0.930 . S
H2626 C2639 0.930 . S
H2627 C2640 0.930 . S
H2628 C2644 0.959 . S
H2629 C2644 0.959 . S
H2630 C2644 0.961 . S
H2631 C2645 0.960 . S
H2632 C2645 0.961 . S
H2633 C2645 0.959 . S
H2634 C2648 0.929 . S
H2635 C2649 0.931 . S
H2636 C2651 0.930 . S
C2637 H2625 0.930 . S
C2637 C2638 1.399 . S
C2637 C2642 1.399 . S
C2638 C2637 1.399 . S
C2638 C2639 1.376 . S
C2639 H2626 0.930 . S
C2639 C2638 1.376 . S
C2639 C2640 1.388 . S
C2640 H2627 0.930 . S
C2640 C2639 1.388 . S
C2640 C2641 1.390 . S
C2641 C2640 1.390 . S
C2641 C2642 1.394 . S
C2641 C2647 1.465 . S
C2642 C2637 1.399 . S
C2642 C2641 1.394 . S
C2642 C2643 1.516 . S
C2643 C2642 1.516 . S
C2643 C2644 1.502 . S
C2643 C2645 1.561 . S
C2643 C2646 1.526 . S
C2644 H2628 0.959 . S
C2644 H2629 0.959 . S
C2644 H2630 0.961 . S
C2644 C2643 1.502 . S
C2645 H2631 0.960 . S
C2645 H2632 0.961 . S
C2645 H2633 0.959 . S
C2645 C2643 1.561 . S
C2646 C2643 1.526 . S
C2646 C2647 1.396 . S
C2646 C2651 1.390 . S
C2647 C2641 1.465 . S
C2647 C2646 1.396 . S
C2647 C2648 1.399 . S
C2648 H2634 0.929 . S
C2648 C2647 1.399 . S
C2648 C2649 1.385 . S
C2649 H2635 0.931 . S
C2649 C2648 1.385 . S
C2649 C2650 1.389 . S
C2650 C2649 1.389 . S
C2650 C2651 1.387 . S
C2651 H2636 0.930 . S
C2651 C2646 1.390 . S
C2651 C2650 1.387 . S
H2652 C2664 0.930 . S
H2653 C2666 0.930 . S
H2654 C2667 0.930 . S
H2655 C2671 0.959 . S
H2656 C2671 0.959 . S
H2657 C2671 0.961 . S
H2658 C2672 0.960 . S
H2659 C2672 0.961 . S
H2660 C2672 0.959 . S
H2661 C2675 0.929 . S
H2662 C2676 0.931 1_565 S
H2663 C2678 0.930 . S
C2664 H2652 0.930 . S
C2664 C2665 1.443 . S
C2664 C2669 1.399 . S
C2665 C2664 1.443 . S
C2665 C2666 1.352 1_545 S
C2666 H2653 0.930 . S
C2666 C2665 1.352 1_565 S
C2666 C2667 1.388 . S
C2667 H2654 0.930 . S
C2667 C2666 1.388 . S
C2667 C2668 1.390 1_565 S
C2668 C2667 1.390 1_545 S
C2668 C2669 1.394 . S
C2668 C2674 1.465 . S
C2669 C2664 1.399 . S
C2669 C2668 1.394 . S
C2669 C2670 1.516 . S
C2670 C2669 1.516 . S
C2670 C2671 1.502 . S
C2670 C2672 1.561 . S
C2670 C2673 1.526 . S
C2671 H2655 0.959 . S
C2671 H2656 0.959 . S
C2671 H2657 0.961 . S
C2671 C2670 1.502 . S
C2672 H2658 0.960 . S
C2672 H2659 0.961 . S
C2672 H2660 0.959 . S
C2672 C2670 1.561 . S
C2673 C2670 1.526 . S
C2673 C2674 1.396 . S
C2673 C2678 1.390 . S
C2674 C2668 1.465 . S
C2674 C2673 1.396 . S
C2674 C2675 1.399 1_545 S
C2675 H2661 0.929 . S
C2675 C2674 1.399 1_565 S
C2675 C2676 1.385 1_565 S
C2676 H2662 0.931 1_545 S
C2676 C2675 1.385 1_545 S
C2676 C2677 1.389 . S
C2677 C2676 1.389 . S
C2677 C2678 1.387 . S
C2678 H2663 0.930 . S
C2678 C2673 1.390 . S
C2678 C2677 1.387 . S
H2679 C2691 0.930 . S
H2680 C2693 0.930 . S
H2681 C2694 0.930 . S
H2682 C2698 0.959 . S
H2683 C2698 0.959 . S
H2684 C2698 0.961 . S
H2685 C2699 0.960 . S
H2686 C2699 0.961 . S
H2687 C2699 0.959 . S
H2688 C2702 0.929 . S
H2689 C2703 0.931 . S
H2690 C2705 0.930 . S
C2691 H2679 0.930 . S
C2691 C2692 1.399 . S
C2691 C2696 1.399 . S
C2692 C2691 1.399 . S
C2692 C2693 1.376 . S
C2693 H2680 0.930 . S
C2693 C2692 1.376 . S
C2693 C2694 1.388 . S
C2694 H2681 0.930 . S
C2694 C2693 1.388 . S
C2694 C2695 1.390 . S
C2695 C2694 1.390 . S
C2695 C2696 1.394 . S
C2695 C2701 1.465 . S
C2696 C2691 1.399 . S
C2696 C2695 1.394 . S
C2696 C2697 1.516 . S
C2697 C2696 1.516 . S
C2697 C2698 1.502 . S
C2697 C2699 1.561 . S
C2697 C2700 1.526 . S
C2698 H2682 0.959 . S
C2698 H2683 0.959 . S
C2698 H2684 0.961 . S
C2698 C2697 1.502 . S
C2699 H2685 0.960 . S
C2699 H2686 0.961 . S
C2699 H2687 0.959 . S
C2699 C2697 1.561 . S
C2700 C2697 1.526 . S
C2700 C2701 1.396 . S
C2700 C2705 1.390 . S
C2701 C2695 1.465 . S
C2701 C2700 1.396 . S
C2701 C2702 1.399 . S
C2702 H2688 0.929 . S
C2702 C2701 1.399 . S
C2702 C2703 1.385 . S
C2703 H2689 0.931 . S
C2703 C2702 1.385 . S
C2703 C2704 1.389 . S
C2704 C2703 1.389 . S
C2704 C2705 1.387 . S
C2705 H2690 0.930 . S
C2705 C2700 1.390 . S
C2705 C2704 1.387 . S
H2706 C2718 0.930 1_565 S
H2707 C2720 0.930 . S
H2708 C2721 0.930 . S
H2709 C2725 0.959 1_545 S
H2710 C2725 0.959 . S
H2711 C2725 0.961 . S
H2712 C2726 0.960 . S
H2713 C2726 0.961 . S
H2714 C2726 0.959 . S
H2715 C2729 0.929 . S
H2716 C2730 0.931 . S
H2717 C2732 0.930 1_565 S
C2718 H2706 0.930 1_545 S
C2718 C2719 1.399 . S
C2718 C2723 1.399 . S
C2719 C2718 1.399 . S
C2719 C2720 1.376 . S
C2720 H2707 0.930 . S
C2720 C2719 1.376 . S
C2720 C2721 1.388 . S
C2721 H2708 0.930 . S
C2721 C2720 1.388 . S
C2721 C2722 1.390 . S
C2722 C2721 1.390 . S
C2722 C2723 1.394 . S
C2722 C2728 1.465 . S
C2723 C2718 1.399 . S
C2723 C2722 1.394 . S
C2723 C2724 1.516 1_545 S
C2724 C2723 1.516 1_565 S
C2724 C2725 1.502 . S
C2724 C2726 1.561 . S
C2724 C2727 1.526 1_565 S
C2725 H2709 0.959 1_565 S
C2725 H2710 0.959 . S
C2725 H2711 0.961 . S
C2725 C2724 1.502 . S
C2726 H2712 0.960 . S
C2726 H2713 0.961 . S
C2726 H2714 0.959 . S
C2726 C2724 1.561 . S
C2727 C2724 1.526 1_545 S
C2727 C2728 1.396 . S
C2727 C2732 1.390 . S
C2728 C2722 1.465 . S
C2728 C2727 1.396 . S
C2728 C2729 1.399 . S
C2729 H2715 0.929 . S
C2729 C2728 1.399 . S
C2729 C2730 1.385 . S
C2730 H2716 0.931 . S
C2730 C2729 1.385 . S
C2730 C2731 1.389 . S
C2731 C2730 1.389 . S
C2731 C2732 1.387 . S
C2732 H2717 0.930 1_545 S
C2732 C2727 1.390 . S
C2732 C2731 1.387 . S
H2733 C2745 0.930 . S
H2734 C2747 0.930 . S
H2735 C2748 0.930 . S
H2736 C2752 0.959 . S
H2737 C2752 0.959 . S
H2738 C2752 0.961 . S
H2739 C2753 0.960 . S
H2740 C2753 0.961 . S
H2741 C2753 0.959 . S
H2742 C2756 0.929 . S
H2743 C2757 0.931 . S
H2744 C2759 0.930 . S
C2745 H2733 0.930 . S
C2745 C2746 1.399 . S
C2745 C2750 1.399 . S
C2746 C2745 1.399 . S
C2746 C2747 1.376 . S
C2747 H2734 0.930 . S
C2747 C2746 1.376 . S
C2747 C2748 1.388 . S
C2748 H2735 0.930 . S
C2748 C2747 1.388 . S
C2748 C2749 1.390 . S
C2749 C2748 1.390 . S
C2749 C2750 1.394 . S
C2749 C2755 1.465 . S
C2750 C2745 1.399 . S
C2750 C2749 1.394 . S
C2750 C2751 1.516 . S
C2751 C2750 1.516 . S
C2751 C2752 1.502 . S
C2751 C2753 1.561 . S
C2751 C2754 1.526 . S
C2752 H2736 0.959 . S
C2752 H2737 0.959 . S
C2752 H2738 0.961 . S
C2752 C2751 1.502 . S
C2753 H2739 0.960 . S
C2753 H2740 0.961 . S
C2753 H2741 0.959 . S
C2753 C2751 1.561 . S
C2754 C2751 1.526 . S
C2754 C2755 1.396 . S
C2754 C2759 1.390 . S
C2755 C2749 1.465 . S
C2755 C2754 1.396 . S
C2755 C2756 1.399 . S
C2756 H2742 0.929 . S
C2756 C2755 1.399 . S
C2756 C2757 1.385 . S
C2757 H2743 0.931 . S
C2757 C2756 1.385 . S
C2757 C2758 1.389 . S
C2758 C2757 1.389 . S
C2758 C2759 1.387 . S
C2759 H2744 0.930 . S
C2759 C2754 1.390 . S
C2759 C2758 1.387 . S
H2760 C2772 0.952 . S
H2761 C2774 0.930 . S
H2762 C2775 0.930 . S
H2763 C2779 0.959 . S
H2764 C2779 0.959 . S
H2765 C2779 0.961 . S
H2766 C2780 0.960 . S
H2767 C2780 0.961 . S
H2768 C2780 0.959 . S
H2769 C2783 0.929 . S
H2770 C2784 0.931 . S
H2771 C2786 0.930 1_556 S
C2772 H2760 0.952 . S
C2772 C2773 1.399 . S
C2772 C2777 1.399 . S
C2773 C2772 1.399 . S
C2773 C2774 1.376 . S
C2774 H2761 0.930 . S
C2774 C2773 1.376 . S
C2774 C2775 1.388 . S
C2775 H2762 0.930 . S
C2775 C2774 1.388 . S
C2775 C2776 1.390 . S
C2776 C2775 1.390 . S
C2776 C2777 1.394 . S
C2776 C2782 1.465 . S
C2777 C2772 1.399 . S
C2777 C2776 1.394 . S
C2777 C2778 1.516 1_554 S
C2778 C2777 1.516 1_556 S
C2778 C2779 1.502 . S
C2778 C2780 1.561 . S
C2778 C2781 1.526 1_556 S
C2779 H2763 0.959 . S
C2779 H2764 0.959 . S
C2779 H2765 0.961 . S
C2779 C2778 1.502 . S
C2780 H2766 0.960 . S
C2780 H2767 0.961 . S
C2780 H2768 0.959 . S
C2780 C2778 1.561 . S
C2781 C2778 1.526 1_554 S
C2781 C2782 1.396 . S
C2781 C2786 1.390 . S
C2782 C2776 1.465 . S
C2782 C2781 1.396 . S
C2782 C2783 1.399 . S
C2783 H2769 0.929 . S
C2783 C2782 1.399 . S
C2783 C2784 1.385 . S
C2784 H2770 0.931 . S
C2784 C2783 1.385 . S
C2784 C2785 1.389 . S
C2785 C2784 1.389 . S
C2785 C2786 1.387 . S
C2786 H2771 0.930 1_554 S
C2786 C2781 1.390 . S
C2786 C2785 1.387 . S
H2787 C2799 0.930 . S
H2788 C2801 0.930 . S
H2789 C2802 0.930 . S
H2790 C2806 0.959 . S
H2791 C2806 0.959 . S
H2792 C2806 0.961 . S
H2793 C2807 0.960 1_556 S
H2794 C2807 0.961 1_556 S
H2795 C2807 0.959 1_556 S
H2796 C2810 0.929 . S
H2797 C2811 0.931 . S
H2798 C2813 0.930 . S
C2799 H2787 0.930 . S
C2799 C2800 1.399 . S
C2799 C2804 1.399 . S
C2800 C2799 1.399 . S
C2800 C2801 1.376 . S
C2801 H2788 0.930 . S
C2801 C2800 1.376 . S
C2801 C2802 1.388 . S
C2802 H2789 0.930 . S
C2802 C2801 1.388 . S
C2802 C2803 1.390 . S
C2803 C2802 1.390 . S
C2803 C2804 1.394 . S
C2803 C2809 1.465 . S
C2804 C2799 1.399 . S
C2804 C2803 1.394 . S
C2804 C2805 1.516 . S
C2805 C2804 1.516 . S
C2805 C2806 1.502 . S
C2805 C2807 1.561 . S
C2805 C2808 1.526 . S
C2806 H2790 0.959 . S
C2806 H2791 0.959 . S
C2806 H2792 0.961 . S
C2806 C2805 1.502 . S
C2807 H2793 0.960 1_554 S
C2807 H2794 0.961 1_554 S
C2807 H2795 0.959 1_554 S
C2807 C2805 1.561 . S
C2808 C2805 1.526 . S
C2808 C2809 1.396 . S
C2808 C2813 1.390 . S
C2809 C2803 1.465 . S
C2809 C2808 1.396 . S
C2809 C2810 1.399 . S
C2810 H2796 0.929 . S
C2810 C2809 1.399 . S
C2810 C2811 1.385 . S
C2811 H2797 0.931 . S
C2811 C2810 1.385 . S
C2811 C2812 1.389 . S
C2812 C2811 1.389 . S
C2812 C2813 1.387 . S
C2813 H2798 0.930 . S
C2813 C2808 1.390 . S
C2813 C2812 1.387 . S
H2814 C2826 0.930 . S
H2815 C2828 0.930 . S
H2816 C2829 0.930 . S
H2817 C2833 0.959 . S
H2818 C2833 0.959 . S
H2819 C2833 0.961 . S
H2820 C2834 0.960 . S
H2821 C2834 0.961 . S
H2822 C2834 0.959 . S
H2823 C2837 0.929 . S
H2824 C2838 0.931 . S
H2825 C2840 0.930 . S
C2826 H2814 0.930 . S
C2826 C2827 1.399 . S
C2826 C2831 1.399 . S
C2827 C2826 1.399 . S
C2827 C2828 1.376 . S
C2828 H2815 0.930 . S
C2828 C2827 1.376 . S
C2828 C2829 1.388 . S
C2829 H2816 0.930 . S
C2829 C2828 1.388 . S
C2829 C2830 1.390 . S
C2830 C2829 1.390 . S
C2830 C2831 1.394 . S
C2830 C2836 1.465 . S
C2831 C2826 1.399 . S
C2831 C2830 1.394 . S
C2831 C2832 1.516 . S
C2832 C2831 1.516 . S
C2832 C2833 1.502 . S
C2832 C2834 1.561 . S
C2832 C2835 1.526 . S
C2833 H2817 0.959 . S
C2833 H2818 0.959 . S
C2833 H2819 0.961 . S
C2833 C2832 1.502 . S
C2834 H2820 0.960 . S
C2834 H2821 0.961 . S
C2834 H2822 0.959 . S
C2834 C2832 1.561 . S
C2835 C2832 1.526 . S
C2835 C2836 1.396 . S
C2835 C2840 1.390 . S
C2836 C2830 1.465 . S
C2836 C2835 1.396 . S
C2836 C2837 1.399 . S
C2837 H2823 0.929 . S
C2837 C2836 1.399 . S
C2837 C2838 1.385 . S
C2838 H2824 0.931 . S
C2838 C2837 1.385 . S
C2838 C2839 1.389 . S
C2839 C2838 1.389 . S
C2839 C2840 1.387 . S
C2840 H2825 0.930 . S
C2840 C2835 1.390 . S
C2840 C2839 1.387 . S
H2841 C2853 0.930 . S
H2842 C2855 0.930 . S
H2843 C2856 0.930 . S
H2844 C2860 0.959 . S
H2845 C2860 0.959 . S
H2846 C2860 0.961 . S
H2847 C2861 0.960 . S
H2848 C2861 0.961 . S
H2849 C2861 0.959 . S
H2850 C2864 0.929 . S
H2851 C2865 0.931 . S
H2852 C2867 0.930 . S
C2853 H2841 0.930 . S
C2853 C2854 1.399 . S
C2853 C2858 1.399 . S
C2854 C2853 1.399 . S
C2854 C2855 1.376 . S
C2855 H2842 0.930 . S
C2855 C2854 1.376 . S
C2855 C2856 1.388 . S
C2856 H2843 0.930 . S
C2856 C2855 1.388 . S
C2856 C2857 1.390 . S
C2857 C2856 1.390 . S
C2857 C2858 1.394 . S
C2857 C2863 1.465 . S
C2858 C2853 1.399 . S
C2858 C2857 1.394 . S
C2858 C2859 1.516 . S
C2859 C2858 1.516 . S
C2859 C2860 1.502 . S
C2859 C2861 1.561 . S
C2859 C2862 1.526 . S
C2860 H2844 0.959 . S
C2860 H2845 0.959 . S
C2860 H2846 0.961 . S
C2860 C2859 1.502 . S
C2861 H2847 0.960 . S
C2861 H2848 0.961 . S
C2861 H2849 0.959 . S
C2861 C2859 1.561 . S
C2862 C2859 1.526 . S
C2862 C2863 1.396 . S
C2862 C2867 1.390 . S
C2863 C2857 1.465 . S
C2863 C2862 1.396 . S
C2863 C2864 1.399 . S
C2864 H2850 0.929 . S
C2864 C2863 1.399 . S
C2864 C2865 1.385 . S
C2865 H2851 0.931 . S
C2865 C2864 1.385 . S
C2865 C2866 1.389 . S
C2866 C2865 1.389 . S
C2866 C2867 1.387 . S
C2867 H2852 0.930 . S
C2867 C2862 1.390 . S
C2867 C2866 1.387 . S
H2868 C2880 0.930 1_545 S
H2869 C2882 0.930 . S
H2870 C2883 0.930 . S
H2871 C2887 0.959 . S
H2872 C2887 0.959 . S
H2873 C2887 0.961 1_545 S
H2874 C2888 0.960 . S
H2875 C2888 0.961 . S
H2876 C2888 0.959 . S
H2877 C2891 0.929 . S
H2878 C2892 0.931 . S
H2879 C2894 0.930 . S
C2880 H2868 0.930 1_565 S
C2880 C2881 1.399 . S
C2880 C2885 1.399 . S
C2881 C2880 1.399 . S
C2881 C2882 1.376 . S
C2882 H2869 0.930 . S
C2882 C2881 1.376 . S
C2882 C2883 1.388 . S
C2883 H2870 0.930 . S
C2883 C2882 1.388 . S
C2883 C2884 1.390 . S
C2884 C2883 1.390 . S
C2884 C2885 1.394 . S
C2884 C2890 1.465 . S
C2885 C2880 1.399 . S
C2885 C2884 1.394 . S
C2885 C2886 1.516 . S
C2886 C2885 1.516 . S
C2886 C2887 1.502 . S
C2886 C2888 1.561 . S
C2886 C2889 1.526 . S
C2887 H2871 0.959 . S
C2887 H2872 0.959 . S
C2887 H2873 0.961 1_565 S
C2887 C2886 1.502 . S
C2888 H2874 0.960 . S
C2888 H2875 0.961 . S
C2888 H2876 0.959 . S
C2888 C2886 1.561 . S
C2889 C2886 1.526 . S
C2889 C2890 1.396 . S
C2889 C2894 1.390 . S
C2890 C2884 1.465 . S
C2890 C2889 1.396 . S
C2890 C2891 1.399 . S
C2891 H2877 0.929 . S
C2891 C2890 1.399 . S
C2891 C2892 1.385 . S
C2892 H2878 0.931 . S
C2892 C2891 1.385 . S
C2892 C2893 1.389 . S
C2893 C2892 1.389 . S
C2893 C2894 1.387 . S
C2894 H2879 0.930 . S
C2894 C2889 1.390 . S
C2894 C2893 1.387 . S
H2895 C2907 0.930 . S
H2896 C2909 0.930 . S
H2897 C2910 0.930 . S
H2898 C2914 0.959 . S
H2899 C2914 0.959 . S
H2900 C2914 0.961 . S
H2901 C2915 0.960 . S
H2902 C2915 0.961 . S
H2903 C2915 0.959 . S
H2904 C2918 0.929 . S
H2905 C2919 0.931 . S
H2906 C2921 0.930 . S
C2907 H2895 0.930 . S
C2907 C2908 1.399 . S
C2907 C2912 1.399 . S
C2908 C2907 1.399 . S
C2908 C2909 1.376 . S
C2909 H2896 0.930 . S
C2909 C2908 1.376 . S
C2909 C2910 1.388 . S
C2910 H2897 0.930 . S
C2910 C2909 1.388 . S
C2910 C2911 1.390 . S
C2911 C2910 1.390 . S
C2911 C2912 1.394 . S
C2911 C2917 1.465 . S
C2912 C2907 1.399 . S
C2912 C2911 1.394 . S
C2912 C2913 1.516 . S
C2913 C2912 1.516 . S
C2913 C2914 1.502 . S
C2913 C2915 1.561 . S
C2913 C2916 1.526 . S
C2914 H2898 0.959 . S
C2914 H2899 0.959 . S
C2914 H2900 0.961 . S
C2914 C2913 1.502 . S
C2915 H2901 0.960 . S
C2915 H2902 0.961 . S
C2915 H2903 0.959 . S
C2915 C2913 1.561 . S
C2916 C2913 1.526 . S
C2916 C2917 1.396 . S
C2916 C2921 1.390 . S
C2917 C2911 1.465 . S
C2917 C2916 1.396 . S
C2917 C2918 1.399 . S
C2918 H2904 0.929 . S
C2918 C2917 1.399 . S
C2918 C2919 1.385 . S
C2919 H2905 0.931 . S
C2919 C2918 1.385 . S
C2919 C2920 1.389 . S
C2920 C2919 1.389 . S
C2920 C2921 1.387 . S
C2921 H2906 0.930 . S
C2921 C2916 1.390 . S
C2921 C2920 1.387 . S
H2922 C2934 0.930 . S
H2923 C2936 0.930 . S
H2924 C2937 0.930 . S
H2925 C2941 0.959 . S
H2926 C2941 0.959 . S
H2927 C2941 0.961 . S
H2928 C2942 0.960 . S
H2929 C2942 0.961 . S
H2930 C2942 0.959 . S
H2931 C2945 0.929 . S
H2932 C2946 0.931 . S
H2933 C2948 0.930 . S
C2934 H2922 0.930 . S
C2934 C2935 1.399 . S
C2934 C2939 1.399 . S
C2935 C2934 1.399 . S
C2935 C2936 1.376 . S
C2936 H2923 0.930 . S
C2936 C2935 1.376 . S
C2936 C2937 1.388 . S
C2937 H2924 0.930 . S
C2937 C2936 1.388 . S
C2937 C2938 1.390 . S
C2938 C2937 1.390 . S
C2938 C2939 1.394 . S
C2938 C2944 1.465 . S
C2939 C2934 1.399 . S
C2939 C2938 1.394 . S
C2939 C2940 1.516 . S
C2940 C2939 1.516 . S
C2940 C2941 1.502 . S
C2940 C2942 1.561 . S
C2940 C2943 1.526 . S
C2941 H2925 0.959 . S
C2941 H2926 0.959 . S
C2941 H2927 0.961 . S
C2941 C2940 1.502 . S
C2942 H2928 0.960 . S
C2942 H2929 0.961 . S
C2942 H2930 0.959 . S
C2942 C2940 1.561 . S
C2943 C2940 1.526 . S
C2943 C2944 1.396 . S
C2943 C2948 1.390 . S
C2944 C2938 1.465 . S
C2944 C2943 1.396 . S
C2944 C2945 1.399 . S
C2945 H2931 0.929 . S
C2945 C2944 1.399 . S
C2945 C2946 1.385 . S
C2946 H2932 0.931 . S
C2946 C2945 1.385 . S
C2946 C2947 1.389 . S
C2947 C2946 1.389 . S
C2947 C2948 1.387 . S
C2948 H2933 0.930 . S
C2948 C2943 1.390 . S
C2948 C2947 1.387 . S
H2949 C2961 0.930 . S
H2950 C2963 0.930 . S
H2951 C2964 0.930 . S
H2952 C2968 0.959 . S
H2953 C2968 0.959 . S
H2954 C2968 0.961 . S
H2955 C2969 0.960 . S
H2956 C2969 0.961 . S
H2957 C2969 0.959 . S
H2958 C2972 0.929 . S
H2959 C2973 0.931 . S
H2960 C2975 0.930 . S
C2961 H2949 0.930 . S
C2961 C2962 1.399 . S
C2961 C2966 1.399 . S
C2962 C2961 1.399 . S
C2962 C2963 1.376 . S
C2963 H2950 0.930 . S
C2963 C2962 1.376 . S
C2963 C2964 1.388 . S
C2964 H2951 0.930 . S
C2964 C2963 1.388 . S
C2964 C2965 1.390 . S
C2965 C2964 1.390 . S
C2965 C2966 1.394 . S
C2965 C2971 1.465 . S
C2966 C2961 1.399 . S
C2966 C2965 1.394 . S
C2966 C2967 1.516 . S
C2967 C2966 1.516 . S
C2967 C2968 1.502 . S
C2967 C2969 1.561 . S
C2967 C2970 1.526 . S
C2968 H2952 0.959 . S
C2968 H2953 0.959 . S
C2968 H2954 0.961 . S
C2968 C2967 1.502 . S
C2969 H2955 0.960 . S
C2969 H2956 0.961 . S
C2969 H2957 0.959 . S
C2969 C2967 1.561 . S
C2970 C2967 1.526 . S
C2970 C2971 1.396 . S
C2970 C2975 1.390 . S
C2971 C2965 1.465 . S
C2971 C2970 1.396 . S
C2971 C2972 1.399 . S
C2972 H2958 0.929 . S
C2972 C2971 1.399 . S
C2972 C2973 1.385 . S
C2973 H2959 0.931 . S
C2973 C2972 1.385 . S
C2973 C2974 1.389 . S
C2974 C2973 1.389 . S
C2974 C2975 1.387 . S
C2975 H2960 0.930 . S
C2975 C2970 1.390 . S
C2975 C2974 1.387 . S
H2976 C2988 0.930 . S
H2977 C2990 0.930 . S
H2978 C2991 0.930 . S
H2979 C2995 0.959 . S
H2980 C2995 0.959 . S
H2981 C2995 0.961 . S
H2982 C2996 0.960 . S
H2983 C2996 0.961 . S
H2984 C2996 0.959 . S
H2985 C2999 0.929 . S
H2986 C3000 0.931 . S
H2987 C3002 0.930 . S
C2988 H2976 0.930 . S
C2988 C2989 1.399 . S
C2988 C2993 1.399 . S
C2989 C2988 1.399 . S
C2989 C2990 1.376 . S
C2990 H2977 0.930 . S
C2990 C2989 1.376 . S
C2990 C2991 1.388 . S
C2991 H2978 0.930 . S
C2991 C2990 1.388 . S
C2991 C2992 1.390 . S
C2992 C2991 1.390 . S
C2992 C2993 1.394 . S
C2992 C2998 1.465 . S
C2993 C2988 1.399 . S
C2993 C2992 1.394 . S
C2993 C2994 1.516 . S
C2994 C2993 1.516 . S
C2994 C2995 1.502 . S
C2994 C2996 1.561 . S
C2994 C2997 1.526 . S
C2995 H2979 0.959 . S
C2995 H2980 0.959 . S
C2995 H2981 0.961 . S
C2995 C2994 1.502 . S
C2996 H2982 0.960 . S
C2996 H2983 0.961 . S
C2996 H2984 0.959 . S
C2996 C2994 1.561 . S
C2997 C2994 1.526 . S
C2997 C2998 1.396 . S
C2997 C3002 1.390 . S
C2998 C2992 1.465 . S
C2998 C2997 1.396 . S
C2998 C2999 1.399 . S
C2999 H2985 0.929 . S
C2999 C2998 1.399 . S
C2999 C3000 1.385 . S
C3000 H2986 0.931 . S
C3000 C2999 1.385 . S
C3000 C3001 1.389 . S
C3001 C3000 1.389 . S
C3001 C3002 1.387 . S
C3002 H2987 0.930 . S
C3002 C2997 1.390 . S
C3002 C3001 1.387 . S
H3003 C3015 0.930 . S
H3004 C3017 0.930 . S
H3005 C3018 0.930 . S
H3006 C3022 0.959 . S
H3007 C3022 0.959 . S
H3008 C3022 0.961 . S
H3009 C3023 0.960 . S
H3010 C3023 0.961 . S
H3011 C3023 0.959 . S
H3012 C3026 0.929 . S
H3013 C3027 0.931 . S
H3014 C3029 0.930 . S
C3015 H3003 0.930 . S
C3015 C3016 1.399 . S
C3015 C3020 1.399 . S
C3016 C3015 1.399 . S
C3016 C3017 1.376 . S
C3017 H3004 0.930 . S
C3017 C3016 1.376 . S
C3017 C3018 1.388 . S
C3018 H3005 0.930 . S
C3018 C3017 1.388 . S
C3018 C3019 1.390 . S
C3019 C3018 1.390 . S
C3019 C3020 1.394 . S
C3019 C3025 1.465 . S
C3020 C3015 1.399 . S
C3020 C3019 1.394 . S
C3020 C3021 1.516 . S
C3021 C3020 1.516 . S
C3021 C3022 1.502 . S
C3021 C3023 1.561 . S
C3021 C3024 1.526 . S
C3022 H3006 0.959 . S
C3022 H3007 0.959 . S
C3022 H3008 0.961 . S
C3022 C3021 1.502 . S
C3023 H3009 0.960 . S
C3023 H3010 0.961 . S
C3023 H3011 0.959 . S
C3023 C3021 1.561 . S
C3024 C3021 1.526 . S
C3024 C3025 1.396 . S
C3024 C3029 1.390 . S
C3025 C3019 1.465 . S
C3025 C3024 1.396 . S
C3025 C3026 1.399 . S
C3026 H3012 0.929 . S
C3026 C3025 1.399 . S
C3026 C3027 1.385 . S
C3027 H3013 0.931 . S
C3027 C3026 1.385 . S
C3027 C3028 1.389 . S
C3028 C3027 1.389 . S
C3028 C3029 1.387 . S
C3029 H3014 0.930 . S
C3029 C3024 1.390 . S
C3029 C3028 1.387 . S
H3030 C3042 0.905 1_554 S
H3031 C3044 0.930 . S
H3032 C3045 0.930 . S
H3033 C3049 0.946 1_655 S
H3034 C3049 0.959 . S
H3035 C3049 0.961 1_655 S
H3036 C3050 0.960 . S
H3037 C3050 0.961 . S
H3038 C3050 0.959 . S
H3039 C3053 0.929 . S
H3040 C3054 0.931 . S
H3041 C3056 0.930 . S
C3042 H3030 0.905 1_556 S
C3042 C3043 1.399 . S
C3042 C3047 1.399 1_556 S
C3043 C3042 1.399 . S
C3043 C3044 1.376 . S
C3044 H3031 0.930 . S
C3044 C3043 1.376 . S
C3044 C3045 1.388 . S
C3045 H3032 0.930 . S
C3045 C3044 1.388 . S
C3045 C3046 1.390 . S
C3046 C3045 1.390 . S
C3046 C3047 1.394 1_556 S
C3046 C3052 1.465 1_556 S
C3047 C3042 1.399 1_554 S
C3047 C3046 1.394 1_554 S
C3047 C3048 1.516 . S
C3048 C3047 1.516 . S
C3048 C3049 1.502 . S
C3048 C3050 1.561 . S
C3048 C3051 1.526 . S
C3049 H3033 0.946 1_455 S
C3049 H3034 0.959 . S
C3049 H3035 0.961 1_455 S
C3049 C3048 1.502 . S
C3050 H3036 0.960 . S
C3050 H3037 0.961 . S
C3050 H3038 0.959 . S
C3050 C3048 1.561 . S
C3051 C3048 1.526 . S
C3051 C3052 1.396 . S
C3051 C3056 1.390 . S
C3052 C3046 1.465 1_554 S
C3052 C3051 1.396 . S
C3052 C3053 1.399 1_554 S
C3053 H3039 0.929 . S
C3053 C3052 1.399 1_556 S
C3053 C3054 1.385 1_556 S
C3054 H3040 0.931 . S
C3054 C3053 1.385 1_554 S
C3054 C3055 1.389 . S
C3055 C3054 1.389 . S
C3055 C3056 1.387 . S
C3056 H3041 0.930 . S
C3056 C3051 1.390 . S
C3056 C3055 1.387 . S
H3057 C3069 0.930 . S
H3058 C3071 0.930 . S
H3059 C3072 0.930 . S
H3060 C3076 0.959 . S
H3061 C3076 0.959 . S
H3062 C3076 0.961 . S
H3063 C3077 0.960 . S
H3064 C3077 0.961 . S
H3065 C3077 0.959 . S
H3066 C3080 0.929 . S
H3067 C3081 0.931 . S
H3068 C3083 0.930 . S
C3069 H3057 0.930 . S
C3069 C3070 1.399 . S
C3069 C3074 1.399 1_455 S
C3070 C3069 1.399 . S
C3070 C3071 1.376 . S
C3071 H3058 0.930 . S
C3071 C3070 1.376 . S
C3071 C3072 1.388 . S
C3072 H3059 0.930 . S
C3072 C3071 1.388 . S
C3072 C3073 1.390 1_455 S
C3073 C3072 1.390 1_655 S
C3073 C3074 1.394 . S
C3073 C3079 1.465 . S
C3074 C3069 1.399 1_655 S
C3074 C3073 1.394 . S
C3074 C3075 1.516 . S
C3075 C3074 1.516 . S
C3075 C3076 1.502 . S
C3075 C3077 1.561 . S
C3075 C3078 1.526 . S
C3076 H3060 0.959 . S
C3076 H3061 0.959 . S
C3076 H3062 0.961 . S
C3076 C3075 1.502 . S
C3077 H3063 0.960 . S
C3077 H3064 0.961 . S
C3077 H3065 0.959 . S
C3077 C3075 1.561 . S
C3078 C3075 1.526 . S
C3078 C3079 1.396 . S
C3078 C3083 1.390 . S
C3079 C3073 1.465 . S
C3079 C3078 1.396 . S
C3079 C3080 1.399 . S
C3080 H3066 0.929 . S
C3080 C3079 1.399 . S
C3080 C3081 1.385 . S
C3081 H3067 0.931 . S
C3081 C3080 1.385 . S
C3081 C3082 1.389 . S
C3082 C3081 1.389 . S
C3082 C3083 1.387 . S
C3083 H3068 0.930 . S
C3083 C3078 1.390 . S
C3083 C3082 1.387 . S
H3084 C3096 0.930 . S
H3085 C3098 0.930 . S
H3086 C3099 0.930 . S
H3087 C3103 0.959 . S
H3088 C3103 0.959 . S
H3089 C3103 0.961 . S
H3090 C3104 0.960 . S
H3091 C3104 0.961 . S
H3092 C3104 0.959 . S
H3093 C3107 0.929 . S
H3094 C3108 0.931 . S
H3095 C3110 0.930 . S
C3096 H3084 0.930 . S
C3096 C3097 1.399 . S
C3096 C3101 1.399 . S
C3097 C3096 1.399 . S
C3097 C3098 1.376 . S
C3098 H3085 0.930 . S
C3098 C3097 1.376 . S
C3098 C3099 1.388 . S
C3099 H3086 0.930 . S
C3099 C3098 1.388 . S
C3099 C3100 1.390 . S
C3100 C3099 1.390 . S
C3100 C3101 1.394 . S
C3100 C3106 1.465 . S
C3101 C3096 1.399 . S
C3101 C3100 1.394 . S
C3101 C3102 1.516 . S
C3102 C3101 1.516 . S
C3102 C3103 1.502 . S
C3102 C3104 1.561 . S
C3102 C3105 1.526 . S
C3103 H3087 0.959 . S
C3103 H3088 0.959 . S
C3103 H3089 0.961 . S
C3103 C3102 1.502 . S
C3104 H3090 0.960 . S
C3104 H3091 0.961 . S
C3104 H3092 0.959 . S
C3104 C3102 1.561 . S
C3105 C3102 1.526 . S
C3105 C3106 1.396 . S
C3105 C3110 1.390 . S
C3106 C3100 1.465 . S
C3106 C3105 1.396 . S
C3106 C3107 1.399 . S
C3107 H3093 0.929 . S
C3107 C3106 1.399 . S
C3107 C3108 1.385 . S
C3108 H3094 0.931 . S
C3108 C3107 1.385 . S
C3108 C3109 1.389 . S
C3109 C3108 1.389 . S
C3109 C3110 1.387 . S
C3110 H3095 0.930 . S
C3110 C3105 1.390 . S
C3110 C3109 1.387 . S
H3111 C3123 0.930 . S
H3112 C3125 0.930 . S
H3113 C3126 0.930 . S
H3114 C3130 0.959 . S
H3115 C3130 0.959 . S
H3116 C3130 0.961 . S
H3117 C3131 0.960 1_455 S
H3118 C3131 0.961 . S
H3119 C3131 0.959 . S
H3120 C3134 0.929 . S
H3121 C3135 0.931 . S
H3122 C3137 0.930 . S
C3123 H3111 0.930 . S
C3123 C3124 1.399 . S
C3123 C3128 1.399 . S
C3124 C3123 1.399 . S
C3124 C3125 1.376 . S
C3125 H3112 0.930 . S
C3125 C3124 1.376 . S
C3125 C3126 1.388 . S
C3126 H3113 0.930 . S
C3126 C3125 1.388 . S
C3126 C3127 1.390 . S
C3127 C3126 1.390 . S
C3127 C3128 1.394 . S
C3127 C3133 1.439 1_455 S
C3128 C3123 1.399 . S
C3128 C3127 1.394 . S
C3128 C3129 1.516 . S
C3129 C3128 1.516 . S
C3129 C3130 1.502 . S
C3129 C3131 1.561 1_455 S
C3129 C3132 1.526 1_455 S
C3130 H3114 0.959 . S
C3130 H3115 0.959 . S
C3130 H3116 0.961 . S
C3130 C3129 1.502 . S
C3131 H3117 0.960 1_655 S
C3131 H3118 0.961 . S
C3131 H3119 0.959 . S
C3131 C3129 1.561 1_655 S
C3132 C3129 1.526 1_655 S
C3132 C3133 1.398 . S
C3132 C3137 1.390 . S
C3133 C3127 1.439 1_655 S
C3133 C3132 1.398 . S
C3133 C3134 1.422 . S
C3134 H3120 0.929 . S
C3134 C3133 1.422 . S
C3134 C3135 1.385 . S
C3135 H3121 0.931 . S
C3135 C3134 1.385 . S
C3135 C3136 1.389 . S
C3136 C3135 1.389 . S
C3136 C3137 1.387 . S
C3137 H3122 0.930 . S
C3137 C3132 1.390 . S
C3137 C3136 1.387 . S
H3138 C3150 0.930 . S
H3139 C3152 0.930 . S
H3140 C3153 0.930 . S
H3141 C3157 0.959 . S
H3142 C3157 0.959 . S
H3143 C3157 0.961 . S
H3144 C3158 0.960 . S
H3145 C3158 0.961 . S
H3146 C3158 0.959 . S
H3147 C3161 0.929 . S
H3148 C3162 0.931 . S
H3149 C3164 0.930 . S
C3150 H3138 0.930 . S
C3150 C3151 1.399 . S
C3150 C3155 1.399 1_655 S
C3151 C3150 1.399 . S
C3151 C3152 1.376 1_655 S
C3152 H3139 0.930 . S
C3152 C3151 1.376 1_455 S
C3152 C3153 1.388 . S
C3153 H3140 0.930 . S
C3153 C3152 1.388 . S
C3153 C3154 1.390 . S
C3154 C3153 1.390 . S
C3154 C3155 1.394 . S
C3154 C3160 1.465 . S
C3155 C3150 1.399 1_455 S
C3155 C3154 1.394 . S
C3155 C3156 1.516 . S
C3156 C3155 1.516 . S
C3156 C3157 1.502 1_455 S
C3156 C3158 1.561 . S
C3156 C3159 1.526 . S
C3157 H3141 0.959 . S
C3157 H3142 0.959 . S
C3157 H3143 0.961 . S
C3157 C3156 1.502 1_655 S
C3158 H3144 0.960 . S
C3158 H3145 0.961 . S
C3158 H3146 0.959 . S
C3158 C3156 1.561 . S
C3159 C3156 1.526 . S
C3159 C3160 1.396 . S
C3159 C3164 1.390 . S
C3160 C3154 1.465 . S
C3160 C3159 1.396 . S
C3160 C3161 1.399 . S
C3161 H3147 0.929 . S
C3161 C3160 1.399 . S
C3161 C3162 1.385 . S
C3162 H3148 0.931 . S
C3162 C3161 1.385 . S
C3162 C3163 1.389 . S
C3163 C3162 1.389 . S
C3163 C3164 1.387 . S
C3164 H3149 0.930 . S
C3164 C3159 1.390 . S
C3164 C3163 1.387 . S
H3165 C3177 0.930 . S
H3166 C3179 0.930 . S
H3167 C3180 0.930 . S
H3168 C3184 0.959 . S
H3169 C3184 0.959 . S
H3170 C3184 0.961 . S
H3171 C3185 0.960 . S
H3172 C3185 0.961 . S
H3173 C3185 0.959 . S
H3174 C3188 0.929 . S
H3175 C3189 0.931 . S
H3176 C3191 0.930 . S
C3177 H3165 0.930 . S
C3177 C3178 1.399 . S
C3177 C3182 1.399 . S
C3178 C3177 1.399 . S
C3178 C3179 1.376 . S
C3179 H3166 0.930 . S
C3179 C3178 1.376 . S
C3179 C3180 1.388 . S
C3180 H3167 0.930 . S
C3180 C3179 1.388 . S
C3180 C3181 1.390 . S
C3181 C3180 1.390 . S
C3181 C3182 1.394 . S
C3181 C3187 1.465 . S
C3182 C3177 1.399 . S
C3182 C3181 1.394 . S
C3182 C3183 1.516 . S
C3183 C3182 1.516 . S
C3183 C3184 1.502 . S
C3183 C3185 1.561 . S
C3183 C3186 1.526 . S
C3184 H3168 0.959 . S
C3184 H3169 0.959 . S
C3184 H3170 0.961 . S
C3184 C3183 1.502 . S
C3185 H3171 0.960 . S
C3185 H3172 0.961 . S
C3185 H3173 0.959 . S
C3185 C3183 1.561 . S
C3186 C3183 1.526 . S
C3186 C3187 1.396 . S
C3186 C3191 1.390 . S
C3187 C3181 1.465 . S
C3187 C3186 1.396 . S
C3187 C3188 1.399 . S
C3188 H3174 0.929 . S
C3188 C3187 1.399 . S
C3188 C3189 1.385 . S
C3189 H3175 0.931 . S
C3189 C3188 1.385 . S
C3189 C3190 1.389 . S
C3190 C3189 1.389 . S
C3190 C3191 1.387 . S
C3191 H3176 0.930 . S
C3191 C3186 1.390 . S
C3191 C3190 1.387 . S
H3192 C3204 0.930 . S
H3193 C3206 0.930 . S
H3194 C3207 0.930 . S
H3195 C3211 0.959 . S
H3196 C3211 0.959 . S
H3197 C3211 0.961 . S
H3198 C3212 0.960 . S
H3199 C3212 0.961 . S
H3200 C3212 0.959 . S
H3201 C3215 0.929 . S
H3202 C3216 0.931 . S
H3203 C3218 0.930 . S
C3204 H3192 0.930 . S
C3204 C3205 1.399 . S
C3204 C3209 1.399 . S
C3205 C3204 1.399 . S
C3205 C3206 1.376 . S
C3206 H3193 0.930 . S
C3206 C3205 1.376 . S
C3206 C3207 1.388 . S
C3207 H3194 0.930 . S
C3207 C3206 1.388 . S
C3207 C3208 1.390 . S
C3208 C3207 1.390 . S
C3208 C3209 1.394 . S
C3208 C3214 1.465 . S
C3209 C3204 1.399 . S
C3209 C3208 1.394 . S
C3209 C3210 1.516 . S
C3210 C3209 1.516 . S
C3210 C3211 1.502 . S
C3210 C3212 1.561 . S
C3210 C3213 1.526 . S
C3211 H3195 0.959 . S
C3211 H3196 0.959 . S
C3211 H3197 0.961 . S
C3211 C3210 1.502 . S
C3212 H3198 0.960 . S
C3212 H3199 0.961 . S
C3212 H3200 0.959 . S
C3212 C3210 1.561 . S
C3213 C3210 1.526 . S
C3213 C3214 1.396 . S
C3213 C3218 1.390 . S
C3214 C3208 1.465 . S
C3214 C3213 1.396 . S
C3214 C3215 1.399 . S
C3215 H3201 0.929 . S
C3215 C3214 1.399 . S
C3215 C3216 1.385 . S
C3216 H3202 0.931 . S
C3216 C3215 1.385 . S
C3216 C3217 1.389 . S
C3217 C3216 1.389 . S
C3217 C3218 1.387 . S
C3218 H3203 0.930 . S
C3218 C3213 1.390 . S
C3218 C3217 1.387 . S
H3219 C3231 0.930 . S
H3220 C3233 0.930 . S
H3221 C3234 0.930 . S
H3222 C3238 0.959 . S
H3223 C3238 0.959 . S
H3224 C3238 0.961 . S
H3225 C3239 0.960 . S
H3226 C3239 0.961 . S
H3227 C3239 0.959 . S
H3228 C3242 0.929 . S
H3229 C3243 0.931 . S
H3230 C3245 0.930 . S
C3231 H3219 0.930 . S
C3231 C3232 1.399 . S
C3231 C3236 1.399 . S
C3232 C3231 1.399 . S
C3232 C3233 1.376 . S
C3233 H3220 0.930 . S
C3233 C3232 1.376 . S
C3233 C3234 1.388 . S
C3234 H3221 0.930 . S
C3234 C3233 1.388 . S
C3234 C3235 1.390 . S
C3235 C3234 1.390 . S
C3235 C3236 1.394 . S
C3235 C3241 1.465 . S
C3236 C3231 1.399 . S
C3236 C3235 1.394 . S
C3236 C3237 1.516 . S
C3237 C3236 1.516 . S
C3237 C3238 1.502 . S
C3237 C3239 1.561 . S
C3237 C3240 1.526 . S
C3238 H3222 0.959 . S
C3238 H3223 0.959 . S
C3238 H3224 0.961 . S
C3238 C3237 1.502 . S
C3239 H3225 0.960 . S
C3239 H3226 0.961 . S
C3239 H3227 0.959 . S
C3239 C3237 1.561 . S
C3240 C3237 1.526 . S
C3240 C3241 1.396 . S
C3240 C3245 1.390 . S
C3241 C3235 1.465 . S
C3241 C3240 1.396 . S
C3241 C3242 1.399 . S
C3242 H3228 0.929 . S
C3242 C3241 1.399 . S
C3242 C3243 1.385 . S
C3243 H3229 0.931 . S
C3243 C3242 1.385 . S
C3243 C3244 1.389 . S
C3244 C3243 1.389 . S
C3244 C3245 1.387 . S
C3245 H3230 0.930 . S
C3245 C3240 1.390 . S
C3245 C3244 1.387 . S
H3246 C3258 0.930 . S
H3247 C3260 0.930 . S
H3248 C3261 0.930 . S
H3249 C3265 0.959 . S
H3250 C3265 0.959 . S
H3251 C3265 0.961 . S
H3252 C3266 0.960 . S
H3253 C3266 0.961 . S
H3254 C3266 0.959 . S
H3255 C3269 0.929 . S
H3256 C3270 0.931 . S
H3257 C3272 0.930 . S
C3258 H3246 0.930 . S
C3258 C3259 1.399 . S
C3258 C3263 1.399 . S
C3259 C3258 1.399 . S
C3259 C3260 1.376 . S
C3260 H3247 0.930 . S
C3260 C3259 1.376 . S
C3260 C3261 1.388 . S
C3261 H3248 0.930 . S
C3261 C3260 1.388 . S
C3261 C3262 1.390 . S
C3262 C3261 1.390 . S
C3262 C3263 1.394 . S
C3262 C3268 1.465 . S
C3263 C3258 1.399 . S
C3263 C3262 1.394 . S
C3263 C3264 1.516 . S
C3264 C3263 1.516 . S
C3264 C3265 1.502 . S
C3264 C3266 1.561 . S
C3264 C3267 1.526 . S
C3265 H3249 0.959 . S
C3265 H3250 0.959 . S
C3265 H3251 0.961 . S
C3265 C3264 1.502 . S
C3266 H3252 0.960 . S
C3266 H3253 0.961 . S
C3266 H3254 0.959 . S
C3266 C3264 1.561 . S
C3267 C3264 1.526 . S
C3267 C3268 1.396 . S
C3267 C3272 1.390 . S
C3268 C3262 1.465 . S
C3268 C3267 1.396 . S
C3268 C3269 1.399 . S
C3269 H3255 0.929 . S
C3269 C3268 1.399 . S
C3269 C3270 1.385 . S
C3270 H3256 0.931 . S
C3270 C3269 1.385 . S
C3270 C3271 1.389 . S
C3271 C3270 1.389 . S
C3271 C3272 1.387 . S
C3272 H3257 0.930 . S
C3272 C3267 1.390 . S
C3272 C3271 1.387 . S
H3273 C3285 0.930 . S
H3274 C3287 0.930 . S
H3275 C3288 0.930 . S
H3276 C3292 0.959 . S
H3277 C3292 0.959 . S
H3278 C3292 0.961 . S
H3279 C3293 0.960 . S
H3280 C3293 0.961 . S
H3281 C3293 0.959 . S
H3282 C3296 0.929 . S
H3283 C3297 0.931 . S
H3284 C3299 0.930 . S
C3285 H3273 0.930 . S
C3285 C3286 1.399 . S
C3285 C3290 1.399 . S
C3286 C3285 1.399 . S
C3286 C3287 1.376 . S
C3287 H3274 0.930 . S
C3287 C3286 1.376 . S
C3287 C3288 1.388 . S
C3288 H3275 0.930 . S
C3288 C3287 1.388 . S
C3288 C3289 1.390 . S
C3289 C3288 1.390 . S
C3289 C3290 1.394 . S
C3289 C3295 1.465 . S
C3290 C3285 1.399 . S
C3290 C3289 1.394 . S
C3290 C3291 1.516 . S
C3291 C3290 1.516 . S
C3291 C3292 1.502 . S
C3291 C3293 1.561 . S
C3291 C3294 1.526 . S
C3292 H3276 0.959 . S
C3292 H3277 0.959 . S
C3292 H3278 0.961 . S
C3292 C3291 1.502 . S
C3293 H3279 0.960 . S
C3293 H3280 0.961 . S
C3293 H3281 0.959 . S
C3293 C3291 1.561 . S
C3294 C3291 1.526 . S
C3294 C3295 1.396 . S
C3294 C3299 1.390 . S
C3295 C3289 1.465 . S
C3295 C3294 1.396 . S
C3295 C3296 1.399 . S
C3296 H3282 0.929 . S
C3296 C3295 1.399 . S
C3296 C3297 1.385 . S
C3297 H3283 0.931 . S
C3297 C3296 1.385 . S
C3297 C3298 1.389 . S
C3298 C3297 1.389 . S
C3298 C3299 1.387 . S
C3299 H3284 0.930 . S
C3299 C3294 1.390 . S
C3299 C3298 1.387 . S
H3300 C3312 0.930 . S
H3301 C3314 0.930 . S
H3302 C3315 0.930 . S
H3303 C3319 0.959 . S
H3304 C3319 0.959 . S
H3305 C3319 0.961 . S
H3306 C3320 0.960 . S
H3307 C3320 0.961 . S
H3308 C3320 0.959 . S
H3309 C3323 0.929 . S
H3310 C3324 0.931 . S
H3311 C3326 0.930 . S
C3312 H3300 0.930 . S
C3312 C3313 1.399 . S
C3312 C3317 1.399 . S
C3313 C3312 1.399 . S
C3313 C3314 1.376 . S
C3314 H3301 0.930 . S
C3314 C3313 1.376 . S
C3314 C3315 1.388 . S
C3315 H3302 0.930 . S
C3315 C3314 1.388 . S
C3315 C3316 1.390 . S
C3316 C3315 1.390 . S
C3316 C3317 1.394 . S
C3316 C3322 1.465 . S
C3317 C3312 1.399 . S
C3317 C3316 1.394 . S
C3317 C3318 1.516 . S
C3318 C3317 1.516 . S
C3318 C3319 1.502 . S
C3318 C3320 1.561 . S
C3318 C3321 1.526 . S
C3319 H3303 0.959 . S
C3319 H3304 0.959 . S
C3319 H3305 0.961 . S
C3319 C3318 1.502 . S
C3320 H3306 0.960 . S
C3320 H3307 0.961 . S
C3320 H3308 0.959 . S
C3320 C3318 1.561 . S
C3321 C3318 1.526 . S
C3321 C3322 1.396 . S
C3321 C3326 1.390 . S
C3322 C3316 1.465 . S
C3322 C3321 1.396 . S
C3322 C3323 1.399 . S
C3323 H3309 0.929 . S
C3323 C3322 1.399 . S
C3323 C3324 1.385 . S
C3324 H3310 0.931 . S
C3324 C3323 1.385 . S
C3324 C3325 1.389 . S
C3325 C3324 1.389 . S
C3325 C3326 1.387 . S
C3326 H3311 0.930 . S
C3326 C3321 1.390 . S
C3326 C3325 1.387 . S
H3327 C3339 0.930 . S
H3328 C3341 0.930 . S
H3329 C3342 0.930 . S
H3330 C3346 0.959 . S
H3331 C3346 0.959 . S
H3332 C3346 0.961 . S
H3333 C3347 0.960 . S
H3334 C3347 0.961 . S
H3335 C3347 0.959 . S
H3336 C3350 0.929 . S
H3337 C3351 0.931 . S
H3338 C3353 0.930 . S
C3339 H3327 0.930 . S
C3339 C3340 1.399 . S
C3339 C3344 1.399 . S
C3340 C3339 1.399 . S
C3340 C3341 1.376 . S
C3341 H3328 0.930 . S
C3341 C3340 1.376 . S
C3341 C3342 1.388 . S
C3342 H3329 0.930 . S
C3342 C3341 1.388 . S
C3342 C3343 1.390 . S
C3343 C3342 1.390 . S
C3343 C3344 1.394 . S
C3343 C3349 1.465 . S
C3344 C3339 1.399 . S
C3344 C3343 1.394 . S
C3344 C3345 1.516 . S
C3345 C3344 1.516 . S
C3345 C3346 1.502 . S
C3345 C3347 1.561 . S
C3345 C3348 1.526 . S
C3346 H3330 0.959 . S
C3346 H3331 0.959 . S
C3346 H3332 0.961 . S
C3346 C3345 1.502 . S
C3347 H3333 0.960 . S
C3347 H3334 0.961 . S
C3347 H3335 0.959 . S
C3347 C3345 1.561 . S
C3348 C3345 1.526 . S
C3348 C3349 1.396 . S
C3348 C3353 1.390 . S
C3349 C3343 1.465 . S
C3349 C3348 1.396 . S
C3349 C3350 1.399 . S
C3350 H3336 0.929 . S
C3350 C3349 1.399 . S
C3350 C3351 1.385 . S
C3351 H3337 0.931 . S
C3351 C3350 1.385 . S
C3351 C3352 1.389 . S
C3352 C3351 1.389 . S
C3352 C3353 1.387 . S
C3353 H3338 0.930 . S
C3353 C3348 1.390 . S
C3353 C3352 1.387 . S
H3354 C3366 0.930 . S
H3355 C3368 0.930 . S
H3356 C3369 0.930 . S
H3357 C3373 0.959 . S
H3358 C3373 0.959 . S
H3359 C3373 0.961 . S
H3360 C3374 0.960 . S
H3361 C3374 0.961 . S
H3362 C3374 0.959 . S
H3363 C3377 0.929 . S
H3364 C3378 0.931 . S
H3365 C3380 0.930 . S
C3366 H3354 0.930 . S
C3366 C3367 1.399 . S
C3366 C3371 1.399 . S
C3367 C3366 1.399 . S
C3367 C3368 1.376 . S
C3368 H3355 0.930 . S
C3368 C3367 1.376 . S
C3368 C3369 1.388 . S
C3369 H3356 0.930 . S
C3369 C3368 1.388 . S
C3369 C3370 1.390 . S
C3370 C3369 1.390 . S
C3370 C3371 1.394 . S
C3370 C3376 1.465 . S
C3371 C3366 1.399 . S
C3371 C3370 1.394 . S
C3371 C3372 1.516 . S
C3372 C3371 1.516 . S
C3372 C3373 1.502 . S
C3372 C3374 1.561 . S
C3372 C3375 1.526 . S
C3373 H3357 0.959 . S
C3373 H3358 0.959 . S
C3373 H3359 0.961 . S
C3373 C3372 1.502 . S
C3374 H3360 0.960 . S
C3374 H3361 0.961 . S
C3374 H3362 0.959 . S
C3374 C3372 1.561 . S
C3375 C3372 1.526 . S
C3375 C3376 1.396 . S
C3375 C3380 1.390 . S
C3376 C3370 1.465 . S
C3376 C3375 1.396 . S
C3376 C3377 1.399 . S
C3377 H3363 0.929 . S
C3377 C3376 1.399 . S
C3377 C3378 1.385 . S
C3378 H3364 0.931 . S
C3378 C3377 1.385 . S
C3378 C3379 1.389 . S
C3379 C3378 1.389 . S
C3379 C3380 1.387 . S
C3380 H3365 0.930 . S
C3380 C3375 1.390 . S
C3380 C3379 1.387 . S
H3381 C3393 0.930 . S
H3382 C3395 0.930 . S
H3383 C3396 0.930 . S
H3384 C3400 0.959 . S
H3385 C3400 0.959 . S
H3386 C3400 0.961 . S
H3387 C3401 0.960 . S
H3388 C3401 0.961 . S
H3389 C3401 0.959 . S
H3390 C3404 0.929 . S
H3391 C3405 0.931 . S
H3392 C3407 0.930 . S
C3393 H3381 0.930 . S
C3393 C3394 1.399 . S
C3393 C3398 1.399 . S
C3394 C3393 1.399 . S
C3394 C3395 1.376 . S
C3395 H3382 0.930 . S
C3395 C3394 1.376 . S
C3395 C3396 1.388 . S
C3396 H3383 0.930 . S
C3396 C3395 1.388 . S
C3396 C3397 1.390 . S
C3397 C3396 1.390 . S
C3397 C3398 1.394 . S
C3397 C3403 1.465 . S
C3398 C3393 1.399 . S
C3398 C3397 1.394 . S
C3398 C3399 1.516 . S
C3399 C3398 1.516 . S
C3399 C3400 1.502 . S
C3399 C3401 1.561 . S
C3399 C3402 1.526 . S
C3400 H3384 0.959 . S
C3400 H3385 0.959 . S
C3400 H3386 0.961 . S
C3400 C3399 1.502 . S
C3401 H3387 0.960 . S
C3401 H3388 0.961 . S
C3401 H3389 0.959 . S
C3401 C3399 1.561 . S
C3402 C3399 1.526 . S
C3402 C3403 1.396 . S
C3402 C3407 1.390 . S
C3403 C3397 1.465 . S
C3403 C3402 1.396 . S
C3403 C3404 1.399 . S
C3404 H3390 0.929 . S
C3404 C3403 1.399 . S
C3404 C3405 1.385 . S
C3405 H3391 0.931 . S
C3405 C3404 1.385 . S
C3405 C3406 1.389 . S
C3406 C3405 1.389 . S
C3406 C3407 1.387 . S
C3407 H3392 0.930 . S
C3407 C3402 1.390 . S
C3407 C3406 1.387 . S
H3408 C3420 0.930 . S
H3409 C3422 0.930 . S
H3410 C3423 0.930 . S
H3411 C3427 0.959 . S
H3412 C3427 0.959 . S
H3413 C3427 0.961 . S
H3414 C3428 0.960 . S
H3415 C3428 0.961 . S
H3416 C3428 0.959 . S
H3417 C3431 0.929 . S
H3418 C3432 0.931 . S
H3419 C3434 0.930 . S
C3420 H3408 0.930 . S
C3420 C3421 1.399 . S
C3420 C3425 1.399 . S
C3421 C3420 1.399 . S
C3421 C3422 1.376 . S
C3422 H3409 0.930 . S
C3422 C3421 1.376 . S
C3422 C3423 1.388 . S
C3423 H3410 0.930 . S
C3423 C3422 1.388 . S
C3423 C3424 1.390 . S
C3424 C3423 1.390 . S
C3424 C3425 1.394 . S
C3424 C3430 1.465 . S
C3425 C3420 1.399 . S
C3425 C3424 1.394 . S
C3425 C3426 1.516 . S
C3426 C3425 1.516 . S
C3426 C3427 1.502 . S
C3426 C3428 1.561 . S
C3426 C3429 1.526 . S
C3427 H3411 0.959 . S
C3427 H3412 0.959 . S
C3427 H3413 0.961 . S
C3427 C3426 1.502 . S
C3428 H3414 0.960 . S
C3428 H3415 0.961 . S
C3428 H3416 0.959 . S
C3428 C3426 1.561 . S
C3429 C3426 1.526 . S
C3429 C3430 1.396 . S
C3429 C3434 1.390 . S
C3430 C3424 1.465 . S
C3430 C3429 1.396 . S
C3430 C3431 1.399 . S
C3431 H3417 0.929 . S
C3431 C3430 1.399 . S
C3431 C3432 1.385 . S
C3432 H3418 0.931 . S
C3432 C3431 1.385 . S
C3432 C3433 1.389 . S
C3433 C3432 1.389 . S
C3433 C3434 1.387 . S
C3434 H3419 0.930 . S
C3434 C3429 1.390 . S
C3434 C3433 1.387 . S
H3435 C3447 0.930 . S
H3436 C3449 0.930 . S
H3437 C3450 0.930 . S
H3438 C3454 0.959 . S
H3439 C3454 0.959 . S
H3440 C3454 0.961 . S
H3441 C3455 0.960 . S
H3442 C3455 0.961 . S
H3443 C3455 0.959 . S
H3444 C3458 0.929 . S
H3445 C3459 0.931 . S
H3446 C3461 0.930 . S
C3447 H3435 0.930 . S
C3447 C3448 1.399 . S
C3447 C3452 1.399 . S
C3448 C3447 1.399 . S
C3448 C3449 1.376 . S
C3449 H3436 0.930 . S
C3449 C3448 1.376 . S
C3449 C3450 1.388 . S
C3450 H3437 0.930 . S
C3450 C3449 1.388 . S
C3450 C3451 1.390 . S
C3451 C3450 1.390 . S
C3451 C3452 1.394 . S
C3451 C3457 1.465 . S
C3452 C3447 1.399 . S
C3452 C3451 1.394 . S
C3452 C3453 1.516 . S
C3453 C3452 1.516 . S
C3453 C3454 1.502 . S
C3453 C3455 1.561 . S
C3453 C3456 1.526 . S
C3454 H3438 0.959 . S
C3454 H3439 0.959 . S
C3454 H3440 0.961 . S
C3454 C3453 1.502 . S
C3455 H3441 0.960 . S
C3455 H3442 0.961 . S
C3455 H3443 0.959 . S
C3455 C3453 1.561 . S
C3456 C3453 1.526 . S
C3456 C3457 1.396 . S
C3456 C3461 1.390 . S
C3457 C3451 1.465 . S
C3457 C3456 1.396 . S
C3457 C3458 1.399 . S
C3458 H3444 0.929 . S
C3458 C3457 1.399 . S
C3458 C3459 1.385 . S
C3459 H3445 0.931 . S
C3459 C3458 1.385 . S
C3459 C3460 1.389 . S
C3460 C3459 1.389 . S
C3460 C3461 1.387 . S
C3461 H3446 0.930 . S
C3461 C3456 1.390 . S
C3461 C3460 1.387 . S
H3462 C3474 0.930 . S
H3463 C3476 0.930 . S
H3464 C3477 0.930 . S
H3465 C3481 0.959 . S
H3466 C3481 0.959 . S
H3467 C3481 0.961 . S
H3468 C3482 0.960 . S
H3469 C3482 0.961 . S
H3470 C3482 0.959 . S
H3471 C3485 0.929 . S
H3472 C3486 0.931 . S
H3473 C3488 0.930 . S
C3474 H3462 0.930 . S
C3474 C3475 1.399 . S
C3474 C3479 1.399 . S
C3475 C3474 1.399 . S
C3475 C3476 1.376 . S
C3476 H3463 0.930 . S
C3476 C3475 1.376 . S
C3476 C3477 1.388 . S
C3477 H3464 0.930 . S
C3477 C3476 1.388 . S
C3477 C3478 1.390 . S
C3478 C3477 1.390 . S
C3478 C3479 1.394 . S
C3478 C3484 1.465 . S
C3479 C3474 1.399 . S
C3479 C3478 1.394 . S
C3479 C3480 1.516 . S
C3480 C3479 1.516 . S
C3480 C3481 1.502 . S
C3480 C3482 1.561 . S
C3480 C3483 1.526 . S
C3481 H3465 0.959 . S
C3481 H3466 0.959 . S
C3481 H3467 0.961 . S
C3481 C3480 1.502 . S
C3482 H3468 0.960 . S
C3482 H3469 0.961 . S
C3482 H3470 0.959 . S
C3482 C3480 1.561 . S
C3483 C3480 1.526 . S
C3483 C3484 1.396 . S
C3483 C3488 1.390 . S
C3484 C3478 1.465 . S
C3484 C3483 1.396 . S
C3484 C3485 1.399 . S
C3485 H3471 0.929 . S
C3485 C3484 1.399 . S
C3485 C3486 1.385 . S
C3486 H3472 0.931 . S
C3486 C3485 1.385 . S
C3486 C3487 1.389 . S
C3487 C3486 1.389 . S
C3487 C3488 1.387 . S
C3488 H3473 0.930 . S
C3488 C3483 1.390 . S
C3488 C3487 1.387 . S
H3489 C3501 0.930 . S
H3490 C3503 0.930 1_556 S
H3491 C3504 0.935 . S
H3492 C3508 0.959 . S
H3493 C3508 0.959 . S
H3494 C3508 0.961 . S
H3495 C3509 0.960 . S
H3496 C3509 0.961 . S
H3497 C3509 0.959 . S
H3498 C3512 0.929 . S
H3499 C3513 0.931 . S
H3500 C3515 0.930 . S
C3501 H3489 0.930 . S
C3501 C3502 1.399 . S
C3501 C3506 1.399 . S
C3502 C3501 1.399 . S
C3502 C3503 1.376 . S
C3503 H3490 0.930 1_554 S
C3503 C3502 1.376 . S
C3503 C3504 1.388 . S
C3504 H3491 0.935 . S
C3504 C3503 1.388 . S
C3504 C3505 1.390 . S
C3505 C3504 1.390 . S
C3505 C3506 1.394 . S
C3505 C3511 1.465 . S
C3506 C3501 1.399 . S
C3506 C3505 1.394 . S
C3506 C3507 1.516 1_565 S
C3507 C3506 1.516 1_545 S
C3507 C3508 1.502 . S
C3507 C3509 1.561 . S
C3507 C3510 1.526 . S
C3508 H3492 0.959 . S
C3508 H3493 0.959 . S
C3508 H3494 0.961 . S
C3508 C3507 1.502 . S
C3509 H3495 0.960 . S
C3509 H3496 0.961 . S
C3509 H3497 0.959 . S
C3509 C3507 1.561 . S
C3510 C3507 1.526 . S
C3510 C3511 1.396 1_545 S
C3510 C3515 1.390 . S
C3511 C3505 1.465 . S
C3511 C3510 1.396 1_565 S
C3511 C3512 1.399 . S
C3512 H3498 0.929 . S
C3512 C3511 1.399 . S
C3512 C3513 1.385 . S
C3513 H3499 0.931 . S
C3513 C3512 1.385 . S
C3513 C3514 1.389 1_565 S
C3514 C3513 1.389 1_545 S
C3514 C3515 1.387 . S
C3515 H3500 0.930 . S
C3515 C3510 1.390 . S
C3515 C3514 1.387 . S
H3516 C3528 0.930 . S
H3517 C3530 0.930 . S
H3518 C3531 0.930 . S
H3519 C3535 0.959 . S
H3520 C3535 0.959 . S
H3521 C3535 0.961 . S
H3522 C3536 0.960 . S
H3523 C3536 0.961 . S
H3524 C3536 0.959 . S
H3525 C3539 0.929 . S
H3526 C3540 0.931 . S
H3527 C3542 0.930 . S
C3528 H3516 0.930 . S
C3528 C3529 1.399 . S
C3528 C3533 1.399 . S
C3529 C3528 1.399 . S
C3529 C3530 1.376 . S
C3530 H3517 0.930 . S
C3530 C3529 1.376 . S
C3530 C3531 1.388 . S
C3531 H3518 0.930 . S
C3531 C3530 1.388 . S
C3531 C3532 1.390 . S
C3532 C3531 1.390 . S
C3532 C3533 1.394 . S
C3532 C3538 1.465 . S
C3533 C3528 1.399 . S
C3533 C3532 1.394 . S
C3533 C3534 1.516 . S
C3534 C3533 1.516 . S
C3534 C3535 1.502 . S
C3534 C3536 1.561 . S
C3534 C3537 1.526 . S
C3535 H3519 0.959 . S
C3535 H3520 0.959 . S
C3535 H3521 0.961 . S
C3535 C3534 1.502 . S
C3536 H3522 0.960 . S
C3536 H3523 0.961 . S
C3536 H3524 0.959 . S
C3536 C3534 1.561 . S
C3537 C3534 1.526 . S
C3537 C3538 1.396 . S
C3537 C3542 1.390 . S
C3538 C3532 1.465 . S
C3538 C3537 1.396 . S
C3538 C3539 1.399 . S
C3539 H3525 0.929 . S
C3539 C3538 1.399 . S
C3539 C3540 1.385 . S
C3540 H3526 0.931 . S
C3540 C3539 1.385 . S
C3540 C3541 1.389 . S
C3541 C3540 1.389 . S
C3541 C3542 1.387 . S
C3542 H3527 0.930 . S
C3542 C3537 1.390 . S
C3542 C3541 1.387 . S
H3543 C3555 0.930 . S
H3544 C3557 0.930 1_556 S
H3545 C3558 0.930 1_556 S
H3546 C3562 0.959 . S
H3547 C3562 0.959 . S
H3548 C3562 0.961 . S
H3549 C3563 0.960 . S
H3550 C3563 0.961 . S
H3551 C3563 0.959 . S
H3552 C3566 0.929 . S
H3553 C3567 0.931 . S
H3554 C3569 0.930 . S
C3555 H3543 0.930 . S
C3555 C3556 1.399 . S
C3555 C3560 1.399 . S
C3556 C3555 1.399 . S
C3556 C3557 1.376 . S
C3557 H3544 0.930 1_554 S
C3557 C3556 1.376 . S
C3557 C3558 1.388 . S
C3558 H3545 0.930 1_554 S
C3558 C3557 1.388 . S
C3558 C3559 1.390 . S
C3559 C3558 1.390 . S
C3559 C3560 1.394 . S
C3559 C3565 1.465 . S
C3560 C3555 1.399 . S
C3560 C3559 1.394 . S
C3560 C3561 1.516 . S
C3561 C3560 1.516 . S
C3561 C3562 1.502 . S
C3561 C3563 1.561 . S
C3561 C3564 1.526 . S
C3562 H3546 0.959 . S
C3562 H3547 0.959 . S
C3562 H3548 0.961 . S
C3562 C3561 1.502 . S
C3563 H3549 0.960 . S
C3563 H3550 0.961 . S
C3563 H3551 0.959 . S
C3563 C3561 1.561 . S
C3564 C3561 1.526 . S
C3564 C3565 1.396 . S
C3564 C3569 1.390 . S
C3565 C3559 1.465 . S
C3565 C3564 1.396 . S
C3565 C3566 1.399 . S
C3566 H3552 0.929 . S
C3566 C3565 1.399 . S
C3566 C3567 1.385 . S
C3567 H3553 0.931 . S
C3567 C3566 1.385 . S
C3567 C3568 1.389 . S
C3568 C3567 1.389 . S
C3568 C3569 1.387 . S
C3569 H3554 0.930 . S
C3569 C3564 1.390 . S
C3569 C3568 1.387 . S
H3570 C3582 0.930 . S
H3571 C3584 0.930 . S
H3572 C3585 0.930 . S
H3573 C3589 0.959 . S
H3574 C3589 0.959 . S
H3575 C3589 0.961 . S
H3576 C3590 0.960 . S
H3577 C3590 0.961 . S
H3578 C3590 0.959 . S
H3579 C3593 0.929 . S
H3580 C3594 0.931 . S
H3581 C3596 0.930 . S
C3582 H3570 0.930 . S
C3582 C3583 1.399 . S
C3582 C3587 1.399 . S
C3583 C3582 1.399 . S
C3583 C3584 1.376 . S
C3584 H3571 0.930 . S
C3584 C3583 1.376 . S
C3584 C3585 1.388 . S
C3585 H3572 0.930 . S
C3585 C3584 1.388 . S
C3585 C3586 1.390 . S
C3586 C3585 1.390 . S
C3586 C3587 1.394 . S
C3586 C3592 1.465 . S
C3587 C3582 1.399 . S
C3587 C3586 1.394 . S
C3587 C3588 1.516 . S
C3588 C3587 1.516 . S
C3588 C3589 1.502 . S
C3588 C3590 1.561 . S
C3588 C3591 1.526 . S
C3589 H3573 0.959 . S
C3589 H3574 0.959 . S
C3589 H3575 0.961 . S
C3589 C3588 1.502 . S
C3590 H3576 0.960 . S
C3590 H3577 0.961 . S
C3590 H3578 0.959 . S
C3590 C3588 1.561 . S
C3591 C3588 1.526 . S
C3591 C3592 1.396 . S
C3591 C3596 1.390 . S
C3592 C3586 1.465 . S
C3592 C3591 1.396 . S
C3592 C3593 1.399 . S
C3593 H3579 0.929 . S
C3593 C3592 1.399 . S
C3593 C3594 1.385 . S
C3594 H3580 0.931 . S
C3594 C3593 1.385 . S
C3594 C3595 1.389 . S
C3595 C3594 1.389 . S
C3595 C3596 1.387 . S
C3596 H3581 0.930 . S
C3596 C3591 1.390 . S
C3596 C3595 1.387 . S
H3597 C3609 0.930 . S
H3598 C3611 0.930 . S
H3599 C3612 0.930 . S
H3600 C3616 0.959 . S
H3601 C3616 0.959 . S
H3602 C3616 0.961 . S
H3603 C3617 0.960 . S
H3604 C3617 0.961 . S
H3605 C3617 0.959 . S
H3606 C3620 0.929 . S
H3607 C3621 0.931 . S
H3608 C3623 0.930 . S
C3609 H3597 0.930 . S
C3609 C3610 1.399 . S
C3609 C3614 1.399 . S
C3610 C3609 1.399 . S
C3610 C3611 1.376 . S
C3611 H3598 0.930 . S
C3611 C3610 1.376 . S
C3611 C3612 1.388 . S
C3612 H3599 0.930 . S
C3612 C3611 1.388 . S
C3612 C3613 1.390 . S
C3613 C3612 1.390 . S
C3613 C3614 1.394 . S
C3613 C3619 1.465 . S
C3614 C3609 1.399 . S
C3614 C3613 1.394 . S
C3614 C3615 1.516 . S
C3615 C3614 1.516 . S
C3615 C3616 1.502 . S
C3615 C3617 1.561 . S
C3615 C3618 1.526 . S
C3616 H3600 0.959 . S
C3616 H3601 0.959 . S
C3616 H3602 0.961 . S
C3616 C3615 1.502 . S
C3617 H3603 0.960 . S
C3617 H3604 0.961 . S
C3617 H3605 0.959 . S
C3617 C3615 1.561 . S
C3618 C3615 1.526 . S
C3618 C3619 1.396 . S
C3618 C3623 1.390 . S
C3619 C3613 1.465 . S
C3619 C3618 1.396 . S
C3619 C3620 1.399 . S
C3620 H3606 0.929 . S
C3620 C3619 1.399 . S
C3620 C3621 1.385 . S
C3621 H3607 0.931 . S
C3621 C3620 1.385 . S
C3621 C3622 1.389 . S
C3622 C3621 1.389 . S
C3622 C3623 1.387 . S
C3623 H3608 0.930 . S
C3623 C3618 1.390 . S
C3623 C3622 1.387 . S
H3624 C3636 0.930 . S
H3625 C3638 0.930 . S
H3626 C3639 0.930 . S
H3627 C3643 0.959 . S
H3628 C3643 0.959 . S
H3629 C3643 0.961 . S
H3630 C3644 0.960 . S
H3631 C3644 0.961 . S
H3632 C3644 0.959 . S
H3633 C3647 0.929 . S
H3634 C3648 0.931 . S
H3635 C3650 0.930 . S
C3636 H3624 0.930 . S
C3636 C3637 1.399 . S
C3636 C3641 1.399 . S
C3637 C3636 1.399 . S
C3637 C3638 1.376 . S
C3638 H3625 0.930 . S
C3638 C3637 1.376 . S
C3638 C3639 1.388 . S
C3639 H3626 0.930 . S
C3639 C3638 1.388 . S
C3639 C3640 1.390 . S
C3640 C3639 1.390 . S
C3640 C3641 1.394 . S
C3640 C3646 1.465 . S
C3641 C3636 1.399 . S
C3641 C3640 1.394 . S
C3641 C3642 1.516 . S
C3642 C3641 1.516 . S
C3642 C3643 1.502 . S
C3642 C3644 1.561 . S
C3642 C3645 1.526 . S
C3643 H3627 0.959 . S
C3643 H3628 0.959 . S
C3643 H3629 0.961 . S
C3643 C3642 1.502 . S
C3644 H3630 0.960 . S
C3644 H3631 0.961 . S
C3644 H3632 0.959 . S
C3644 C3642 1.561 . S
C3645 C3642 1.526 . S
C3645 C3646 1.396 . S
C3645 C3650 1.390 . S
C3646 C3640 1.465 . S
C3646 C3645 1.396 . S
C3646 C3647 1.399 . S
C3647 H3633 0.929 . S
C3647 C3646 1.399 . S
C3647 C3648 1.385 . S
C3648 H3634 0.931 . S
C3648 C3647 1.385 . S
C3648 C3649 1.389 . S
C3649 C3648 1.389 . S
C3649 C3650 1.387 . S
C3650 H3635 0.930 . S
C3650 C3645 1.390 . S
C3650 C3649 1.387 . S
H3651 C3663 0.930 . S
H3652 C3665 0.930 . S
H3653 C3666 0.930 . S
H3654 C3670 0.959 . S
H3655 C3670 0.959 . S
H3656 C3670 0.961 . S
H3657 C3671 0.960 . S
H3658 C3671 0.961 . S
H3659 C3671 0.959 . S
H3660 C3674 0.929 . S
H3661 C3675 0.931 . S
H3662 C3677 0.930 . S
C3663 H3651 0.930 . S
C3663 C3664 1.399 . S
C3663 C3668 1.399 . S
C3664 C3663 1.399 . S
C3664 C3665 1.376 . S
C3665 H3652 0.930 . S
C3665 C3664 1.376 . S
C3665 C3666 1.388 . S
C3666 H3653 0.930 . S
C3666 C3665 1.388 . S
C3666 C3667 1.390 . S
C3667 C3666 1.390 . S
C3667 C3668 1.394 . S
C3667 C3673 1.465 . S
C3668 C3663 1.399 . S
C3668 C3667 1.394 . S
C3668 C3669 1.516 . S
C3669 C3668 1.516 . S
C3669 C3670 1.502 . S
C3669 C3671 1.561 . S
C3669 C3672 1.526 . S
C3670 H3654 0.959 . S
C3670 H3655 0.959 . S
C3670 H3656 0.961 . S
C3670 C3669 1.502 . S
C3671 H3657 0.960 . S
C3671 H3658 0.961 . S
C3671 H3659 0.959 . S
C3671 C3669 1.561 . S
C3672 C3669 1.526 . S
C3672 C3673 1.396 . S
C3672 C3677 1.390 . S
C3673 C3667 1.465 . S
C3673 C3672 1.396 . S
C3673 C3674 1.399 . S
C3674 H3660 0.929 . S
C3674 C3673 1.399 . S
C3674 C3675 1.385 . S
C3675 H3661 0.931 . S
C3675 C3674 1.385 . S
C3675 C3676 1.389 . S
C3676 C3675 1.389 . S
C3676 C3677 1.387 . S
C3677 H3662 0.930 . S
C3677 C3672 1.390 . S
C3677 C3676 1.387 . S
H3678 C3690 0.930 . S
H3679 C3692 0.930 . S
H3680 C3693 0.930 . S
H3681 C3697 0.959 . S
H3682 C3697 0.959 . S
H3683 C3697 0.961 . S
H3684 C3698 0.960 . S
H3685 C3698 0.961 . S
H3686 C3698 0.959 . S
H3687 C3701 0.929 . S
H3688 C3702 0.931 . S
H3689 C3704 0.930 . S
C3690 H3678 0.930 . S
C3690 C3691 1.399 . S
C3690 C3695 1.399 . S
C3691 C3690 1.399 . S
C3691 C3692 1.376 . S
C3692 H3679 0.930 . S
C3692 C3691 1.376 . S
C3692 C3693 1.388 . S
C3693 H3680 0.930 . S
C3693 C3692 1.388 . S
C3693 C3694 1.390 . S
C3694 C3693 1.390 . S
C3694 C3695 1.394 . S
C3694 C3700 1.465 . S
C3695 C3690 1.399 . S
C3695 C3694 1.394 . S
C3695 C3696 1.516 . S
C3696 C3695 1.516 . S
C3696 C3697 1.502 . S
C3696 C3698 1.561 . S
C3696 C3699 1.526 . S
C3697 H3681 0.959 . S
C3697 H3682 0.959 . S
C3697 H3683 0.961 . S
C3697 C3696 1.502 . S
C3698 H3684 0.960 . S
C3698 H3685 0.961 . S
C3698 H3686 0.959 . S
C3698 C3696 1.561 . S
C3699 C3696 1.526 . S
C3699 C3700 1.396 . S
C3699 C3704 1.390 . S
C3700 C3694 1.465 . S
C3700 C3699 1.396 . S
C3700 C3701 1.399 . S
C3701 H3687 0.929 . S
C3701 C3700 1.399 . S
C3701 C3702 1.385 . S
C3702 H3688 0.931 . S
C3702 C3701 1.385 . S
C3702 C3703 1.389 . S
C3703 C3702 1.389 . S
C3703 C3704 1.387 . S
C3704 H3689 0.930 . S
C3704 C3699 1.390 . S
C3704 C3703 1.387 . S
H3705 C3717 0.930 . S
H3706 C3719 0.930 . S
H3707 C3720 0.930 . S
H3708 C3724 0.959 . S
H3709 C3724 0.959 . S
H3710 C3724 0.961 . S
H3711 C3725 0.960 . S
H3712 C3725 0.961 . S
H3713 C3725 0.959 . S
H3714 C3728 0.929 . S
H3715 C3729 0.931 . S
H3716 C3731 0.930 . S
C3717 H3705 0.930 . S
C3717 C3718 1.399 . S
C3717 C3722 1.399 . S
C3718 C3717 1.399 . S
C3718 C3719 1.376 . S
C3719 H3706 0.930 . S
C3719 C3718 1.376 . S
C3719 C3720 1.388 . S
C3720 H3707 0.930 . S
C3720 C3719 1.388 . S
C3720 C3721 1.390 . S
C3721 C3720 1.390 . S
C3721 C3722 1.394 . S
C3721 C3727 1.465 . S
C3722 C3717 1.399 . S
C3722 C3721 1.394 . S
C3722 C3723 1.516 . S
C3723 C3722 1.516 . S
C3723 C3724 1.502 . S
C3723 C3725 1.561 . S
C3723 C3726 1.526 . S
C3724 H3708 0.959 . S
C3724 H3709 0.959 . S
C3724 H3710 0.961 . S
C3724 C3723 1.502 . S
C3725 H3711 0.960 . S
C3725 H3712 0.961 . S
C3725 H3713 0.959 . S
C3725 C3723 1.561 . S
C3726 C3723 1.526 . S
C3726 C3727 1.396 . S
C3726 C3731 1.390 . S
C3727 C3721 1.465 . S
C3727 C3726 1.396 . S
C3727 C3728 1.399 . S
C3728 H3714 0.929 . S
C3728 C3727 1.399 . S
C3728 C3729 1.385 . S
C3729 H3715 0.931 . S
C3729 C3728 1.385 . S
C3729 C3730 1.389 . S
C3730 C3729 1.389 . S
C3730 C3731 1.387 . S
C3731 H3716 0.930 . S
C3731 C3726 1.390 . S
C3731 C3730 1.387 . S
H3732 C3744 0.930 . S
H3733 C3746 0.930 . S
H3734 C3747 0.930 . S
H3735 C3751 0.959 . S
H3736 C3751 0.959 . S
H3737 C3751 0.961 . S
H3738 C3752 0.960 . S
H3739 C3752 0.961 1_554 S
H3740 C3752 0.959 . S
H3741 C3755 0.929 . S
H3742 C3756 0.931 . S
H3743 C3758 0.930 1_554 S
C3744 H3732 0.930 . S
C3744 C3745 1.399 . S
C3744 C3749 1.399 . S
C3745 C3744 1.399 . S
C3745 C3746 1.376 . S
C3746 H3733 0.930 . S
C3746 C3745 1.376 . S
C3746 C3747 1.388 . S
C3747 H3734 0.930 . S
C3747 C3746 1.388 . S
C3747 C3748 1.390 . S
C3748 C3747 1.390 . S
C3748 C3749 1.394 . S
C3748 C3754 1.465 . S
C3749 C3744 1.399 . S
C3749 C3748 1.394 . S
C3749 C3750 1.516 . S
C3750 C3749 1.516 . S
C3750 C3751 1.502 . S
C3750 C3752 1.561 . S
C3750 C3753 1.526 . S
C3751 H3735 0.959 . S
C3751 H3736 0.959 . S
C3751 H3737 0.961 . S
C3751 C3750 1.502 . S
C3752 H3738 0.960 . S
C3752 H3739 0.961 1_556 S
C3752 H3740 0.959 . S
C3752 C3750 1.561 . S
C3753 C3750 1.526 . S
C3753 C3754 1.396 . S
C3753 C3758 1.390 . S
C3754 C3748 1.465 . S
C3754 C3753 1.396 . S
C3754 C3755 1.399 . S
C3755 H3741 0.929 . S
C3755 C3754 1.399 . S
C3755 C3756 1.385 . S
C3756 H3742 0.931 . S
C3756 C3755 1.385 . S
C3756 C3757 1.389 . S
C3757 C3756 1.389 . S
C3757 C3758 1.387 . S
C3758 H3743 0.930 1_556 S
C3758 C3753 1.390 . S
C3758 C3757 1.387 . S
H3759 C3771 0.930 . S
H3760 C3773 0.930 . S
H3761 C3774 0.930 . S
H3762 C3778 0.959 . S
H3763 C3778 0.959 . S
H3764 C3778 0.961 . S
H3765 C3779 0.960 . S
H3766 C3779 0.961 . S
H3767 C3779 0.959 . S
H3768 C3782 0.929 . S
H3769 C3783 0.931 . S
H3770 C3785 0.930 . S
C3771 H3759 0.930 . S
C3771 C3772 1.399 . S
C3771 C3776 1.399 . S
C3772 C3771 1.399 . S
C3772 C3773 1.376 . S
C3773 H3760 0.930 . S
C3773 C3772 1.376 . S
C3773 C3774 1.388 . S
C3774 H3761 0.930 . S
C3774 C3773 1.388 . S
C3774 C3775 1.390 . S
C3775 C3774 1.390 . S
C3775 C3776 1.394 . S
C3775 C3781 1.465 . S
C3776 C3771 1.399 . S
C3776 C3775 1.394 . S
C3776 C3777 1.516 . S
C3777 C3776 1.516 . S
C3777 C3778 1.502 . S
C3777 C3779 1.561 . S
C3777 C3780 1.526 . S
C3778 H3762 0.959 . S
C3778 H3763 0.959 . S
C3778 H3764 0.961 . S
C3778 C3777 1.502 . S
C3779 H3765 0.960 . S
C3779 H3766 0.961 . S
C3779 H3767 0.959 . S
C3779 C3777 1.561 . S
C3780 C3777 1.526 . S
C3780 C3781 1.396 . S
C3780 C3785 1.390 . S
C3781 C3775 1.465 . S
C3781 C3780 1.396 . S
C3781 C3782 1.399 . S
C3782 H3768 0.929 . S
C3782 C3781 1.399 . S
C3782 C3783 1.385 . S
C3783 H3769 0.931 . S
C3783 C3782 1.385 . S
C3783 C3784 1.389 . S
C3784 C3783 1.389 . S
C3784 C3785 1.387 . S
C3785 H3770 0.930 . S
C3785 C3780 1.390 . S
C3785 C3784 1.387 . S
H3786 C3798 0.930 . S
H3787 C3800 0.930 . S
H3788 C3801 0.930 . S
H3789 C3805 0.959 . S
H3790 C3805 0.959 . S
H3791 C3805 0.961 . S
H3792 C3806 0.960 . S
H3793 C3806 0.961 . S
H3794 C3806 0.959 . S
H3795 C3809 0.929 . S
H3796 C3810 0.931 . S
H3797 C3812 0.930 . S
C3798 H3786 0.930 . S
C3798 C3799 1.399 . S
C3798 C3803 1.399 . S
C3799 C3798 1.399 . S
C3799 C3800 1.376 . S
C3800 H3787 0.930 . S
C3800 C3799 1.376 . S
C3800 C3801 1.388 . S
C3801 H3788 0.930 . S
C3801 C3800 1.388 . S
C3801 C3802 1.390 . S
C3802 C3801 1.390 . S
C3802 C3803 1.394 . S
C3802 C3808 1.465 . S
C3803 C3798 1.399 . S
C3803 C3802 1.394 . S
C3803 C3804 1.516 . S
C3804 C3803 1.516 . S
C3804 C3805 1.502 . S
C3804 C3806 1.561 . S
C3804 C3807 1.526 . S
C3805 H3789 0.959 . S
C3805 H3790 0.959 . S
C3805 H3791 0.961 . S
C3805 C3804 1.502 . S
C3806 H3792 0.960 . S
C3806 H3793 0.961 . S
C3806 H3794 0.959 . S
C3806 C3804 1.561 . S
C3807 C3804 1.526 . S
C3807 C3808 1.396 . S
C3807 C3812 1.390 . S
C3808 C3802 1.465 . S
C3808 C3807 1.396 . S
C3808 C3809 1.399 . S
C3809 H3795 0.929 . S
C3809 C3808 1.399 . S
C3809 C3810 1.385 . S
C3810 H3796 0.931 . S
C3810 C3809 1.385 . S
C3810 C3811 1.389 . S
C3811 C3810 1.389 . S
C3811 C3812 1.387 . S
C3812 H3797 0.930 . S
C3812 C3807 1.390 . S
C3812 C3811 1.387 . S
H3813 C3825 0.930 . S
H3814 C3827 0.930 . S
H3815 C3828 0.930 . S
H3816 C3832 0.959 . S
H3817 C3832 0.959 . S
H3818 C3832 0.961 . S
H3819 C3833 0.960 . S
H3820 C3833 0.961 . S
H3821 C3833 0.959 . S
H3822 C3836 0.929 . S
H3823 C3837 0.931 . S
H3824 C3839 0.930 . S
C3825 H3813 0.930 . S
C3825 C3826 1.399 . S
C3825 C3830 1.399 . S
C3826 C3825 1.399 . S
C3826 C3827 1.376 . S
C3827 H3814 0.930 . S
C3827 C3826 1.376 . S
C3827 C3828 1.388 . S
C3828 H3815 0.930 . S
C3828 C3827 1.388 . S
C3828 C3829 1.390 . S
C3829 C3828 1.390 . S
C3829 C3830 1.394 . S
C3829 C3835 1.465 . S
C3830 C3825 1.399 . S
C3830 C3829 1.394 . S
C3830 C3831 1.516 . S
C3831 C3830 1.516 . S
C3831 C3832 1.502 . S
C3831 C3833 1.561 . S
C3831 C3834 1.526 . S
C3832 H3816 0.959 . S
C3832 H3817 0.959 . S
C3832 H3818 0.961 . S
C3832 C3831 1.502 . S
C3833 H3819 0.960 . S
C3833 H3820 0.961 . S
C3833 H3821 0.959 . S
C3833 C3831 1.561 . S
C3834 C3831 1.526 . S
C3834 C3835 1.396 . S
C3834 C3839 1.390 . S
C3835 C3829 1.465 . S
C3835 C3834 1.396 . S
C3835 C3836 1.399 . S
C3836 H3822 0.929 . S
C3836 C3835 1.399 . S
C3836 C3837 1.385 . S
C3837 H3823 0.931 . S
C3837 C3836 1.385 . S
C3837 C3838 1.389 . S
C3838 C3837 1.389 . S
C3838 C3839 1.387 . S
C3839 H3824 0.930 . S
C3839 C3834 1.390 . S
C3839 C3838 1.387 . S
H3840 C3852 0.930 . S
H3841 C3854 0.930 . S
H3842 C3855 0.930 . S
H3843 C3859 0.959 . S
H3844 C3859 0.959 . S
H3845 C3859 0.961 . S
H3846 C3860 0.960 . S
H3847 C3860 0.961 . S
H3848 C3860 0.959 . S
H3849 C3863 0.929 . S
H3850 C3864 0.931 . S
H3851 C3866 0.930 . S
C3852 H3840 0.930 . S
C3852 C3853 1.399 . S
C3852 C3857 1.399 . S
C3853 C3852 1.399 . S
C3853 C3854 1.376 . S
C3854 H3841 0.930 . S
C3854 C3853 1.376 . S
C3854 C3855 1.388 . S
C3855 H3842 0.930 . S
C3855 C3854 1.388 . S
C3855 C3856 1.390 . S
C3856 C3855 1.390 . S
C3856 C3857 1.394 . S
C3856 C3862 1.465 . S
C3857 C3852 1.399 . S
C3857 C3856 1.394 . S
C3857 C3858 1.516 . S
C3858 C3857 1.516 . S
C3858 C3859 1.502 . S
C3858 C3860 1.561 . S
C3858 C3861 1.526 . S
C3859 H3843 0.959 . S
C3859 H3844 0.959 . S
C3859 H3845 0.961 . S
C3859 C3858 1.502 . S
C3860 H3846 0.960 . S
C3860 H3847 0.961 . S
C3860 H3848 0.959 . S
C3860 C3858 1.561 . S
C3861 C3858 1.526 . S
C3861 C3862 1.396 . S
C3861 C3866 1.390 . S
C3862 C3856 1.465 . S
C3862 C3861 1.396 . S
C3862 C3863 1.399 . S
C3863 H3849 0.929 . S
C3863 C3862 1.399 . S
C3863 C3864 1.385 . S
C3864 H3850 0.931 . S
C3864 C3863 1.385 . S
C3864 C3865 1.389 . S
C3865 C3864 1.389 . S
C3865 C3866 1.387 . S
C3866 H3851 0.930 . S
C3866 C3861 1.390 . S
C3866 C3865 1.387 . S
H3867 C3879 0.930 . S
H3868 C3881 0.930 . S
H3869 C3882 0.930 . S
H3870 C3886 0.959 . S
H3871 C3886 0.959 . S
H3872 C3886 0.961 . S
H3873 C3887 0.960 . S
H3874 C3887 0.961 . S
H3875 C3887 0.959 . S
H3876 C3890 0.929 . S
H3877 C3891 0.931 . S
H3878 C3893 0.930 . S
C3879 H3867 0.930 . S
C3879 C3880 1.399 . S
C3879 C3884 1.399 . S
C3880 C3879 1.399 . S
C3880 C3881 1.376 . S
C3881 H3868 0.930 . S
C3881 C3880 1.376 . S
C3881 C3882 1.388 . S
C3882 H3869 0.930 . S
C3882 C3881 1.388 . S
C3882 C3883 1.390 . S
C3883 C3882 1.390 . S
C3883 C3884 1.394 . S
C3883 C3889 1.465 . S
C3884 C3879 1.399 . S
C3884 C3883 1.394 . S
C3884 C3885 1.516 . S
C3885 C3884 1.516 . S
C3885 C3886 1.502 . S
C3885 C3887 1.561 . S
C3885 C3888 1.526 . S
C3886 H3870 0.959 . S
C3886 H3871 0.959 . S
C3886 H3872 0.961 . S
C3886 C3885 1.502 . S
C3887 H3873 0.960 . S
C3887 H3874 0.961 . S
C3887 H3875 0.959 . S
C3887 C3885 1.561 . S
C3888 C3885 1.526 . S
C3888 C3889 1.396 . S
C3888 C3893 1.390 . S
C3889 C3883 1.465 . S
C3889 C3888 1.396 . S
C3889 C3890 1.399 . S
C3890 H3876 0.929 . S
C3890 C3889 1.399 . S
C3890 C3891 1.385 . S
C3891 H3877 0.931 . S
C3891 C3890 1.385 . S
C3891 C3892 1.389 . S
C3892 C3891 1.389 . S
C3892 C3893 1.387 . S
C3893 H3878 0.930 . S
C3893 C3888 1.390 . S
C3893 C3892 1.387 . S
H3894 C3906 0.930 . S
H3895 C3908 0.930 . S
H3896 C3909 0.930 . S
H3897 C3913 0.959 . S
H3898 C3913 0.959 . S
H3899 C3913 0.961 . S
H3900 C3914 0.960 . S
H3901 C3914 0.962 1_455 S
H3902 C3914 0.959 . S
H3903 C3917 0.929 1_655 S
H3904 C3918 0.931 . S
H3905 C3920 0.930 . S
C3906 H3894 0.930 . S
C3906 C3907 1.399 . S
C3906 C3911 1.399 . S
C3907 C3906 1.399 . S
C3907 C3908 1.376 . S
C3908 H3895 0.930 . S
C3908 C3907 1.376 . S
C3908 C3909 1.388 . S
C3909 H3896 0.930 . S
C3909 C3908 1.388 . S
C3909 C3910 1.390 . S
C3910 C3909 1.390 . S
C3910 C3911 1.394 . S
C3910 C3916 1.465 . S
C3911 C3906 1.399 . S
C3911 C3910 1.394 . S
C3911 C3912 1.516 1_655 S
C3912 C3911 1.516 1_455 S
C3912 C3913 1.502 . S
C3912 C3914 1.561 1_455 S
C3912 C3915 1.526 . S
C3913 H3897 0.959 . S
C3913 H3898 0.959 . S
C3913 H3899 0.961 . S
C3913 C3912 1.502 . S
C3914 H3900 0.960 . S
C3914 H3901 0.962 1_655 S
C3914 H3902 0.959 . S
C3914 C3912 1.561 1_655 S
C3915 C3912 1.526 . S
C3915 C3916 1.396 1_455 S
C3915 C3920 1.390 . S
C3916 C3910 1.465 . S
C3916 C3915 1.396 1_655 S
C3916 C3917 1.399 1_655 S
C3917 H3903 0.929 1_455 S
C3917 C3916 1.399 1_455 S
C3917 C3918 1.385 . S
C3918 H3904 0.931 . S
C3918 C3917 1.385 . S
C3918 C3919 1.389 . S
C3919 C3918 1.389 . S
C3919 C3920 1.387 . S
C3920 H3905 0.930 . S
C3920 C3915 1.390 . S
C3920 C3919 1.387 . S
H3921 C3933 0.930 . S
H3922 C3935 0.930 . S
H3923 C3936 0.930 . S
H3924 C3940 0.959 . S
H3925 C3940 0.959 . S
H3926 C3940 0.961 . S
H3927 C3941 0.960 . S
H3928 C3941 0.961 . S
H3929 C3941 0.959 . S
H3930 C3944 0.929 . S
H3931 C3945 0.931 . S
H3932 C3947 0.930 . S
C3933 H3921 0.930 . S
C3933 C3934 1.399 . S
C3933 C3938 1.399 . S
C3934 C3933 1.399 . S
C3934 C3935 1.376 . S
C3935 H3922 0.930 . S
C3935 C3934 1.376 . S
C3935 C3936 1.388 . S
C3936 H3923 0.930 . S
C3936 C3935 1.388 . S
C3936 C3937 1.390 . S
C3937 C3936 1.390 . S
C3937 C3938 1.394 . S
C3937 C3943 1.465 . S
C3938 C3933 1.399 . S
C3938 C3937 1.394 . S
C3938 C3939 1.516 . S
C3939 C3938 1.516 . S
C3939 C3940 1.502 . S
C3939 C3941 1.561 . S
C3939 C3942 1.526 . S
C3940 H3924 0.959 . S
C3940 H3925 0.959 . S
C3940 H3926 0.961 . S
C3940 C3939 1.502 . S
C3941 H3927 0.960 . S
C3941 H3928 0.961 . S
C3941 H3929 0.959 . S
C3941 C3939 1.561 . S
C3942 C3939 1.526 . S
C3942 C3943 1.396 . S
C3942 C3947 1.390 . S
C3943 C3937 1.465 . S
C3943 C3942 1.396 . S
C3943 C3944 1.399 . S
C3944 H3930 0.929 . S
C3944 C3943 1.399 . S
C3944 C3945 1.385 . S
C3945 H3931 0.931 . S
C3945 C3944 1.385 . S
C3945 C3946 1.389 . S
C3946 C3945 1.389 . S
C3946 C3947 1.387 . S
C3947 H3932 0.930 . S
C3947 C3942 1.390 . S
C3947 C3946 1.387 . S
H3948 C3960 0.930 . S
H3949 C3962 0.930 . S
H3950 C3963 0.930 . S
H3951 C3967 0.959 . S
H3952 C3967 0.959 . S
H3953 C3967 0.961 . S
H3954 C3968 0.960 . S
H3955 C3968 0.961 . S
H3956 C3968 0.959 . S
H3957 C3971 0.929 . S
H3958 C3972 0.931 . S
H3959 C3974 0.930 . S
C3960 H3948 0.930 . S
C3960 C3961 1.399 . S
C3960 C3965 1.399 . S
C3961 C3960 1.399 . S
C3961 C3962 1.376 . S
C3962 H3949 0.930 . S
C3962 C3961 1.376 . S
C3962 C3963 1.388 . S
C3963 H3950 0.930 . S
C3963 C3962 1.388 . S
C3963 C3964 1.390 . S
C3964 C3963 1.390 . S
C3964 C3965 1.394 . S
C3964 C3970 1.465 . S
C3965 C3960 1.399 . S
C3965 C3964 1.394 . S
C3965 C3966 1.516 . S
C3966 C3965 1.516 . S
C3966 C3967 1.502 . S
C3966 C3968 1.561 . S
C3966 C3969 1.526 . S
C3967 H3951 0.959 . S
C3967 H3952 0.959 . S
C3967 H3953 0.961 . S
C3967 C3966 1.502 . S
C3968 H3954 0.960 . S
C3968 H3955 0.961 . S
C3968 H3956 0.959 . S
C3968 C3966 1.561 . S
C3969 C3966 1.526 . S
C3969 C3970 1.396 . S
C3969 C3974 1.390 . S
C3970 C3964 1.465 . S
C3970 C3969 1.396 . S
C3970 C3971 1.399 . S
C3971 H3957 0.929 . S
C3971 C3970 1.399 . S
C3971 C3972 1.385 . S
C3972 H3958 0.931 . S
C3972 C3971 1.385 . S
C3972 C3973 1.389 . S
C3973 C3972 1.389 . S
C3973 C3974 1.387 . S
C3974 H3959 0.930 . S
C3974 C3969 1.390 . S
C3974 C3973 1.387 . S
H3975 C3987 0.930 . S
H3976 C3989 0.930 . S
H3977 C3990 0.930 . S
H3978 C3994 0.959 . S
H3979 C3994 0.959 . S
H3980 C3994 0.961 . S
H3981 C3995 0.960 . S
H3982 C3995 0.961 . S
H3983 C3995 0.959 . S
H3984 C3998 0.929 . S
H3985 C3999 0.931 . S
H3986 C4001 0.930 . S
C3987 H3975 0.930 . S
C3987 C3988 1.399 . S
C3987 C3992 1.399 . S
C3988 C3987 1.399 . S
C3988 C3989 1.376 . S
C3989 H3976 0.930 . S
C3989 C3988 1.376 . S
C3989 C3990 1.388 . S
C3990 H3977 0.930 . S
C3990 C3989 1.388 . S
C3990 C3991 1.390 . S
C3991 C3990 1.390 . S
C3991 C3992 1.394 . S
C3991 C3997 1.465 . S
C3992 C3987 1.399 . S
C3992 C3991 1.394 . S
C3992 C3993 1.516 . S
C3993 C3992 1.516 . S
C3993 C3994 1.502 . S
C3993 C3995 1.561 . S
C3993 C3996 1.526 . S
C3994 H3978 0.959 . S
C3994 H3979 0.959 . S
C3994 H3980 0.961 . S
C3994 C3993 1.502 . S
C3995 H3981 0.960 . S
C3995 H3982 0.961 . S
C3995 H3983 0.959 . S
C3995 C3993 1.561 . S
C3996 C3993 1.526 . S
C3996 C3997 1.396 . S
C3996 C4001 1.390 . S
C3997 C3991 1.465 . S
C3997 C3996 1.396 . S
C3997 C3998 1.399 . S
C3998 H3984 0.929 . S
C3998 C3997 1.399 . S
C3998 C3999 1.385 . S
C3999 H3985 0.931 . S
C3999 C3998 1.385 . S
C3999 C4000 1.389 . S
C4000 C3999 1.389 . S
C4000 C4001 1.387 . S
C4001 H3986 0.930 . S
C4001 C3996 1.390 . S
C4001 C4000 1.387 . S
H4002 C4014 0.930 . S
H4003 C4016 0.930 . S
H4004 C4017 0.930 . S
H4005 C4021 0.959 . S
H4006 C4021 0.959 . S
H4007 C4021 0.961 . S
H4008 C4022 0.960 . S
H4009 C4022 0.961 . S
H4010 C4022 0.959 . S
H4011 C4025 0.929 . S
H4012 C4026 0.931 . S
H4013 C4028 0.930 . S
C4014 H4002 0.930 . S
C4014 C4015 1.399 . S
C4014 C4019 1.399 . S
C4015 C4014 1.399 . S
C4015 C4016 1.376 . S
C4016 H4003 0.930 . S
C4016 C4015 1.376 . S
C4016 C4017 1.388 . S
C4017 H4004 0.930 . S
C4017 C4016 1.388 . S
C4017 C4018 1.390 . S
C4018 C4017 1.390 . S
C4018 C4019 1.394 . S
C4018 C4024 1.465 . S
C4019 C4014 1.399 . S
C4019 C4018 1.394 . S
C4019 C4020 1.516 . S
C4020 C4019 1.516 . S
C4020 C4021 1.502 1_655 S
C4020 C4022 1.561 . S
C4020 C4023 1.526 . S
C4021 H4005 0.959 . S
C4021 H4006 0.959 . S
C4021 H4007 0.961 . S
C4021 C4020 1.502 1_455 S
C4022 H4008 0.960 . S
C4022 H4009 0.961 . S
C4022 H4010 0.959 . S
C4022 C4020 1.561 . S
C4023 C4020 1.526 . S
C4023 C4024 1.396 . S
C4023 C4028 1.390 1_655 S
C4024 C4018 1.465 . S
C4024 C4023 1.396 . S
C4024 C4025 1.399 . S
C4025 H4011 0.929 . S
C4025 C4024 1.399 . S
C4025 C4026 1.385 . S
C4026 H4012 0.931 . S
C4026 C4025 1.385 . S
C4026 C4027 1.389 1_655 S
C4027 C4026 1.389 1_455 S
C4027 C4028 1.387 . S
C4028 H4013 0.930 . S
C4028 C4023 1.390 1_455 S
C4028 C4027 1.387 . S
H4029 C4041 0.930 . S
H4030 C4043 0.930 . S
H4031 C4044 0.930 . S
H4032 C4048 0.959 . S
H4033 C4048 0.959 . S
H4034 C4048 0.961 . S
H4035 C4049 0.960 . S
H4036 C4049 0.961 . S
H4037 C4049 0.959 . S
H4038 C4052 0.929 . S
H4039 C4053 0.931 . S
H4040 C4055 0.930 . S
C4041 H4029 0.930 . S
C4041 C4042 1.399 . S
C4041 C4046 1.399 . S
C4042 C4041 1.399 . S
C4042 C4043 1.376 . S
C4043 H4030 0.930 . S
C4043 C4042 1.376 . S
C4043 C4044 1.388 . S
C4044 H4031 0.930 . S
C4044 C4043 1.388 . S
C4044 C4045 1.390 . S
C4045 C4044 1.390 . S
C4045 C4046 1.394 . S
C4045 C4051 1.465 . S
C4046 C4041 1.399 . S
C4046 C4045 1.394 . S
C4046 C4047 1.516 . S
C4047 C4046 1.516 . S
C4047 C4048 1.502 . S
C4047 C4049 1.561 . S
C4047 C4050 1.526 . S
C4048 H4032 0.959 . S
C4048 H4033 0.959 . S
C4048 H4034 0.961 . S
C4048 C4047 1.502 . S
C4049 H4035 0.960 . S
C4049 H4036 0.961 . S
C4049 H4037 0.959 . S
C4049 C4047 1.561 . S
C4050 C4047 1.526 . S
C4050 C4051 1.396 . S
C4050 C4055 1.390 . S
C4051 C4045 1.465 . S
C4051 C4050 1.396 . S
C4051 C4052 1.399 . S
C4052 H4038 0.929 . S
C4052 C4051 1.399 . S
C4052 C4053 1.385 . S
C4053 H4039 0.931 . S
C4053 C4052 1.385 . S
C4053 C4054 1.389 . S
C4054 C4053 1.389 . S
C4054 C4055 1.387 . S
C4055 H4040 0.930 . S
C4055 C4050 1.390 . S
C4055 C4054 1.387 . S
H4056 C4068 0.930 . S
H4057 C4070 0.930 . S
H4058 C4071 0.930 . S
H4059 C4075 0.959 . S
H4060 C4075 0.959 . S
H4061 C4075 0.961 . S
H4062 C4076 0.960 . S
H4063 C4076 0.961 . S
H4064 C4076 0.959 . S
H4065 C4079 0.929 . S
H4066 C4080 0.931 . S
H4067 C4082 0.930 . S
C4068 H4056 0.930 . S
C4068 C4069 1.399 . S
C4068 C4073 1.399 . S
C4069 C4068 1.399 . S
C4069 C4070 1.376 . S
C4070 H4057 0.930 . S
C4070 C4069 1.376 . S
C4070 C4071 1.388 . S
C4071 H4058 0.930 . S
C4071 C4070 1.388 . S
C4071 C4072 1.390 . S
C4072 C4071 1.390 . S
C4072 C4073 1.394 . S
C4072 C4078 1.465 . S
C4073 C4068 1.399 . S
C4073 C4072 1.394 . S
C4073 C4074 1.516 . S
C4074 C4073 1.516 . S
C4074 C4075 1.502 . S
C4074 C4076 1.561 . S
C4074 C4077 1.526 . S
C4075 H4059 0.959 . S
C4075 H4060 0.959 . S
C4075 H4061 0.961 . S
C4075 C4074 1.502 . S
C4076 H4062 0.960 . S
C4076 H4063 0.961 . S
C4076 H4064 0.959 . S
C4076 C4074 1.561 . S
C4077 C4074 1.526 . S
C4077 C4078 1.396 . S
C4077 C4082 1.390 . S
C4078 C4072 1.465 . S
C4078 C4077 1.396 . S
C4078 C4079 1.399 . S
C4079 H4065 0.929 . S
C4079 C4078 1.399 . S
C4079 C4080 1.385 . S
C4080 H4066 0.931 . S
C4080 C4079 1.385 . S
C4080 C4081 1.389 . S
C4081 C4080 1.389 . S
C4081 C4082 1.387 . S
C4082 H4067 0.930 . S
C4082 C4077 1.390 . S
C4082 C4081 1.387 . S
H4083 C4095 0.930 . S
H4084 C4097 0.930 . S
H4085 C4098 0.930 . S
H4086 C4102 0.959 . S
H4087 C4102 0.959 . S
H4088 C4102 0.961 . S
H4089 C4103 0.960 . S
H4090 C4103 0.961 . S
H4091 C4103 0.959 . S
H4092 C4106 0.929 . S
H4093 C4107 0.931 . S
H4094 C4109 0.930 . S
C4095 H4083 0.930 . S
C4095 C4096 1.399 . S
C4095 C4100 1.399 . S
C4096 C4095 1.399 . S
C4096 C4097 1.376 . S
C4097 H4084 0.930 . S
C4097 C4096 1.376 . S
C4097 C4098 1.388 . S
C4098 H4085 0.930 . S
C4098 C4097 1.388 . S
C4098 C4099 1.390 . S
C4099 C4098 1.390 . S
C4099 C4100 1.394 . S
C4099 C4105 1.465 . S
C4100 C4095 1.399 . S
C4100 C4099 1.394 . S
C4100 C4101 1.516 . S
C4101 C4100 1.516 . S
C4101 C4102 1.502 . S
C4101 C4103 1.561 . S
C4101 C4104 1.526 . S
C4102 H4086 0.959 . S
C4102 H4087 0.959 . S
C4102 H4088 0.961 . S
C4102 C4101 1.502 . S
C4103 H4089 0.960 . S
C4103 H4090 0.961 . S
C4103 H4091 0.959 . S
C4103 C4101 1.561 . S
C4104 C4101 1.526 . S
C4104 C4105 1.396 . S
C4104 C4109 1.390 . S
C4105 C4099 1.465 . S
C4105 C4104 1.396 . S
C4105 C4106 1.399 1_565 S
C4106 H4092 0.929 . S
C4106 C4105 1.399 1_545 S
C4106 C4107 1.385 . S
C4107 H4093 0.931 . S
C4107 C4106 1.385 . S
C4107 C4108 1.375 1_545 S
C4108 C4107 1.375 1_565 S
C4108 C4109 1.408 . S
C4109 H4094 0.930 . S
C4109 C4104 1.390 . S
C4109 C4108 1.408 . S
H4110 C4122 0.930 . S
H4111 C4124 0.930 . S
H4112 C4125 0.930 . S
H4113 C4129 0.959 . S
H4114 C4129 0.959 . S
H4115 C4129 0.961 . S
H4116 C4130 0.960 . S
H4117 C4130 0.961 . S
H4118 C4130 0.959 . S
H4119 C4133 0.929 . S
H4120 C4134 0.931 . S
H4121 C4136 0.930 . S
C4122 H4110 0.930 . S
C4122 C4123 1.399 . S
C4122 C4127 1.399 . S
C4123 C4122 1.399 . S
C4123 C4124 1.376 . S
C4124 H4111 0.930 . S
C4124 C4123 1.376 . S
C4124 C4125 1.388 . S
C4125 H4112 0.930 . S
C4125 C4124 1.388 . S
C4125 C4126 1.390 . S
C4126 C4125 1.390 . S
C4126 C4127 1.394 . S
C4126 C4132 1.465 . S
C4127 C4122 1.399 . S
C4127 C4126 1.394 . S
C4127 C4128 1.516 . S
C4128 C4127 1.516 . S
C4128 C4129 1.502 . S
C4128 C4130 1.561 . S
C4128 C4131 1.526 . S
C4129 H4113 0.959 . S
C4129 H4114 0.959 . S
C4129 H4115 0.961 . S
C4129 C4128 1.502 . S
C4130 H4116 0.960 . S
C4130 H4117 0.961 . S
C4130 H4118 0.959 . S
C4130 C4128 1.561 . S
C4131 C4128 1.526 . S
C4131 C4132 1.396 . S
C4131 C4136 1.390 . S
C4132 C4126 1.465 . S
C4132 C4131 1.396 . S
C4132 C4133 1.399 . S
C4133 H4119 0.929 . S
C4133 C4132 1.399 . S
C4133 C4134 1.385 . S
C4134 H4120 0.931 . S
C4134 C4133 1.385 . S
C4134 C4135 1.389 . S
C4135 C4134 1.389 . S
C4135 C4136 1.387 . S
C4136 H4121 0.930 . S
C4136 C4131 1.390 . S
C4136 C4135 1.387 . S
H4137 C4149 0.930 1_556 S
H4138 C4151 0.930 . S
H4139 C4152 0.930 . S
H4140 C4156 0.988 . S
H4141 C4156 0.959 . S
H4142 C4156 0.961 . S
H4143 C4157 0.960 . S
H4144 C4157 0.961 . S
H4145 C4157 0.959 . S
H4146 C4160 0.929 . S
H4147 C4161 0.931 . S
H4148 C4163 0.923 1_556 S
C4149 H4137 0.930 1_554 S
C4149 C4150 1.399 . S
C4149 C4154 1.399 . S
C4150 C4149 1.399 . S
C4150 C4151 1.376 . S
C4151 H4138 0.930 . S
C4151 C4150 1.376 . S
C4151 C4152 1.388 . S
C4152 H4139 0.930 . S
C4152 C4151 1.388 . S
C4152 C4153 1.390 . S
C4153 C4152 1.390 . S
C4153 C4154 1.394 . S
C4153 C4159 1.465 . S
C4154 C4149 1.399 . S
C4154 C4153 1.394 . S
C4154 C4155 1.516 . S
C4155 C4154 1.516 . S
C4155 C4156 1.502 1_554 S
C4155 C4157 1.561 1_554 S
C4155 C4158 1.526 . S
C4156 H4140 0.988 . S
C4156 H4141 0.959 . S
C4156 H4142 0.961 . S
C4156 C4155 1.502 1_556 S
C4157 H4143 0.960 . S
C4157 H4144 0.961 . S
C4157 H4145 0.959 . S
C4157 C4155 1.561 1_556 S
C4158 C4155 1.526 . S
C4158 C4159 1.396 . S
C4158 C4163 1.390 . S
C4159 C4153 1.465 . S
C4159 C4158 1.396 . S
C4159 C4160 1.399 . S
C4160 H4146 0.929 . S
C4160 C4159 1.399 . S
C4160 C4161 1.385 . S
C4161 H4147 0.931 . S
C4161 C4160 1.385 . S
C4161 C4162 1.389 . S
C4162 C4161 1.389 . S
C4162 C4163 1.387 . S
C4163 H4148 0.923 1_554 S
C4163 C4158 1.390 . S
C4163 C4162 1.387 . S
H4164 C4176 0.930 . S
H4165 C4178 0.930 . S
H4166 C4179 0.930 . S
H4167 C4183 0.959 . S
H4168 C4183 0.959 . S
H4169 C4183 0.961 . S
H4170 C4184 0.960 . S
H4171 C4184 0.961 . S
H4172 C4184 0.959 . S
H4173 C4187 0.929 . S
H4174 C4188 0.931 . S
H4175 C4190 0.930 . S
C4176 H4164 0.930 . S
C4176 C4177 1.399 . S
C4176 C4181 1.399 . S
C4177 C4176 1.399 . S
C4177 C4178 1.376 . S
C4178 H4165 0.930 . S
C4178 C4177 1.376 . S
C4178 C4179 1.388 . S
C4179 H4166 0.930 . S
C4179 C4178 1.388 . S
C4179 C4180 1.390 . S
C4180 C4179 1.390 . S
C4180 C4181 1.394 . S
C4180 C4186 1.465 . S
C4181 C4176 1.399 . S
C4181 C4180 1.394 . S
C4181 C4182 1.516 . S
C4182 C4181 1.516 . S
C4182 C4183 1.502 . S
C4182 C4184 1.561 . S
C4182 C4185 1.526 . S
C4183 H4167 0.959 . S
C4183 H4168 0.959 . S
C4183 H4169 0.961 . S
C4183 C4182 1.502 . S
C4184 H4170 0.960 . S
C4184 H4171 0.961 . S
C4184 H4172 0.959 . S
C4184 C4182 1.561 . S
C4185 C4182 1.526 . S
C4185 C4186 1.396 . S
C4185 C4190 1.390 . S
C4186 C4180 1.465 . S
C4186 C4185 1.396 . S
C4186 C4187 1.399 . S
C4187 H4173 0.929 . S
C4187 C4186 1.399 . S
C4187 C4188 1.385 . S
C4188 H4174 0.931 . S
C4188 C4187 1.385 . S
C4188 C4189 1.389 . S
C4189 C4188 1.389 . S
C4189 C4190 1.387 . S
C4190 H4175 0.930 . S
C4190 C4185 1.390 . S
C4190 C4189 1.387 . S
H4191 C4203 0.930 . S
H4192 C4205 0.930 . S
H4193 C4206 0.930 . S
H4194 C4210 0.959 . S
H4195 C4210 0.959 . S
H4196 C4210 0.961 . S
H4197 C4211 0.960 . S
H4198 C4211 0.961 . S
H4199 C4211 0.959 . S
H4200 C4214 0.929 . S
H4201 C4215 0.931 . S
H4202 C4217 0.930 . S
C4203 H4191 0.930 . S
C4203 C4204 1.399 . S
C4203 C4208 1.399 . S
C4204 C4203 1.399 . S
C4204 C4205 1.376 . S
C4205 H4192 0.930 . S
C4205 C4204 1.376 . S
C4205 C4206 1.388 . S
C4206 H4193 0.930 . S
C4206 C4205 1.388 . S
C4206 C4207 1.390 . S
C4207 C4206 1.390 . S
C4207 C4208 1.394 . S
C4207 C4213 1.465 . S
C4208 C4203 1.399 . S
C4208 C4207 1.394 . S
C4208 C4209 1.516 . S
C4209 C4208 1.516 . S
C4209 C4210 1.502 1_554 S
C4209 C4211 1.561 . S
C4209 C4212 1.526 . S
C4210 H4194 0.959 . S
C4210 H4195 0.959 . S
C4210 H4196 0.961 . S
C4210 C4209 1.502 1_556 S
C4211 H4197 0.960 . S
C4211 H4198 0.961 . S
C4211 H4199 0.959 . S
C4211 C4209 1.561 . S
C4212 C4209 1.526 . S
C4212 C4213 1.396 . S
C4212 C4217 1.390 . S
C4213 C4207 1.465 . S
C4213 C4212 1.396 . S
C4213 C4214 1.399 . S
C4214 H4200 0.929 . S
C4214 C4213 1.399 . S
C4214 C4215 1.385 . S
C4215 H4201 0.931 . S
C4215 C4214 1.385 . S
C4215 C4216 1.389 . S
C4216 C4215 1.389 . S
C4216 C4217 1.387 . S
C4217 H4202 0.930 . S
C4217 C4212 1.390 . S
C4217 C4216 1.387 . S
H4218 C4230 0.930 . S
H4219 C4232 0.930 . S
H4220 C4233 0.930 . S
H4221 C4237 0.959 . S
H4222 C4237 0.959 . S
H4223 C4237 0.961 . S
H4224 C4238 0.960 . S
H4225 C4238 0.961 . S
H4226 C4238 0.959 . S
H4227 C4241 0.929 . S
H4228 C4242 0.931 . S
H4229 C4244 0.930 . S
C4230 H4218 0.930 . S
C4230 C4231 1.399 . S
C4230 C4235 1.399 . S
C4231 C4230 1.399 . S
C4231 C4232 1.376 . S
C4232 H4219 0.930 . S
C4232 C4231 1.376 . S
C4232 C4233 1.388 . S
C4233 H4220 0.930 . S
C4233 C4232 1.388 . S
C4233 C4234 1.390 . S
C4234 C4233 1.390 . S
C4234 C4235 1.394 . S
C4234 C4240 1.465 . S
C4235 C4230 1.399 . S
C4235 C4234 1.394 . S
C4235 C4236 1.516 . S
C4236 C4235 1.516 . S
C4236 C4237 1.502 . S
C4236 C4238 1.561 . S
C4236 C4239 1.526 . S
C4237 H4221 0.959 . S
C4237 H4222 0.959 . S
C4237 H4223 0.961 . S
C4237 C4236 1.502 . S
C4238 H4224 0.960 . S
C4238 H4225 0.961 . S
C4238 H4226 0.959 . S
C4238 C4236 1.561 . S
C4239 C4236 1.526 . S
C4239 C4240 1.396 . S
C4239 C4244 1.390 . S
C4240 C4234 1.465 . S
C4240 C4239 1.396 . S
C4240 C4241 1.399 . S
C4241 H4227 0.929 . S
C4241 C4240 1.399 . S
C4241 C4242 1.385 . S
C4242 H4228 0.931 . S
C4242 C4241 1.385 . S
C4242 C4243 1.389 . S
C4243 C4242 1.389 . S
C4243 C4244 1.387 . S
C4244 H4229 0.930 . S
C4244 C4239 1.390 . S
C4244 C4243 1.387 . S
H4245 C4257 0.930 . S
H4246 C4259 0.930 . S
H4247 C4260 0.930 . S
H4248 C4264 0.959 . S
H4249 C4264 0.959 . S
H4250 C4264 0.961 . S
H4251 C4265 0.960 . S
H4252 C4265 0.961 . S
H4253 C4265 0.959 . S
H4254 C4268 0.929 . S
H4255 C4269 0.931 . S
H4256 C4271 0.930 . S
C4257 H4245 0.930 . S
C4257 C4258 1.399 . S
C4257 C4262 1.399 . S
C4258 C4257 1.399 . S
C4258 C4259 1.376 . S
C4259 H4246 0.930 . S
C4259 C4258 1.376 . S
C4259 C4260 1.388 . S
C4260 H4247 0.930 . S
C4260 C4259 1.388 . S
C4260 C4261 1.390 . S
C4261 C4260 1.390 . S
C4261 C4262 1.394 . S
C4261 C4267 1.465 . S
C4262 C4257 1.399 . S
C4262 C4261 1.394 . S
C4262 C4263 1.516 . S
C4263 C4262 1.516 . S
C4263 C4264 1.502 . S
C4263 C4265 1.561 . S
C4263 C4266 1.526 . S
C4264 H4248 0.959 . S
C4264 H4249 0.959 . S
C4264 H4250 0.961 . S
C4264 C4263 1.502 . S
C4265 H4251 0.960 . S
C4265 H4252 0.961 . S
C4265 H4253 0.959 . S
C4265 C4263 1.561 . S
C4266 C4263 1.526 . S
C4266 C4267 1.396 . S
C4266 C4271 1.390 . S
C4267 C4261 1.465 . S
C4267 C4266 1.396 . S
C4267 C4268 1.399 . S
C4268 H4254 0.929 . S
C4268 C4267 1.399 . S
C4268 C4269 1.385 . S
C4269 H4255 0.931 . S
C4269 C4268 1.385 . S
C4269 C4270 1.389 . S
C4270 C4269 1.389 . S
C4270 C4271 1.387 . S
C4271 H4256 0.930 . S
C4271 C4266 1.390 . S
C4271 C4270 1.387 . S
C1693 C106 2.097 . S
C1705 C392 2.024 . S
C1720 C65 2.220 . S
C1732 C483 2.120 . S
C1747 C79 1.835 . S
C1759 C560 1.670 . S
C1786 C658 1.205 . S
C1774 C90 1.345 . S
C1801 C21 1.252 . S
C1813 C742 1.277 . S
C1840 C814 0.974 . S
C1828 C35 0.976 . S
C1867 C903 0.870 . S
C1855 C50 0.865 . S
C1882 C6 1.596 . S
C1894 C980 1.348 . S
C1921 C399 2.214 . S
C1909 C232 2.298 . S
C1936 C245 0.791 . S
C1948 C490 0.830 . S
C1975 C567 1.272 . S
C1963 C274 1.293 . S
C2002 C644 1.482 . S
C1990 C175 1.637 . S
C2017 C231 1.835 . S
C2029 C728 1.731 . S
C2056 C830 1.014 . S
C2044 C246 1.203 . S
C2083 C910 0.642 . S
C2071 C273 0.745 . S
C2110 C987 1.639 . S
C2098 C176 1.767 . S
C2137 C406 1.407 . S
C2125 C160 1.435 . S
C2152 C289 1.934 . S
C2164 C1071 1.889 . S
C2191 C1159 2.274 . S
C2179 C328 2.390 . S
C2218 C1232 0.803 . S
C2206 C317 0.675 . S
C2233 C118 1.097 . S
C2245 C994 1.226 . S
C2260 C132 1.429 . S
C2272 C574 1.438 . S
C2287 C331 2.327 . S
C2299 C1323 2.210 . S
C2326 C1400 1.002 . S
C2314 C303 1.036 . S
C2353 C403 1.612 1_565 S
C2341 C63 1.765 . S
C2380 C1418 2.592 . S
C2368 C107 2.573 . S
C2395 C92 1.675 . S
C2407 C571 1.641 . S
C2422 C78 1.901 . S
C2434 C1318 1.787 . S
C2461 C730 1.736 . S
C2449 C8 1.818 . S
C2476 C51 1.184 . S
C2488 C1162 1.194 . S
C2515 C914 1.404 1_556 S
C2503 C37 1.341 . S
C2542 C1495 1.402 . S
C2530 C20 1.423 . S
C2569 C410 2.043 . S
C2557 C147 2.134 . S
C2596 C1402 0.776 . S
C2584 C316 0.887 . S
C2611 C119 1.121 . S
C2623 C578 1.221 . S
C2638 C288 1.756 . S
C2650 C1327 1.663 . S
C2665 C148 2.299 1_545 S
C2677 C739 2.085 . S
C2704 C1155 1.071 . S
C2692 C315 1.236 . S
C2719 C120 0.935 . S
C2731 C898 0.996 . S
C2746 C287 1.666 . S
C2758 C1502 1.535 . S
C2773 C188 1.376 . S
C2785 C394 1.349 . S
C2800 C177 2.247 . S
C2812 C1082 2.194 . S
C2827 C258 2.495 . S
C2839 C812 2.425 . S
C2854 C247 0.717 . S
C2866 C1243 0.740 . S
C2893 C1486 0.883 . S
C2881 C272 0.895 1_565 S
C2908 C216 1.353 . S
C2920 C562 1.369 . S
C2947 C662 2.474 . S
C2935 C261 2.533 . S
C2974 C487 0.807 . S
C2962 C205 0.900 . S
C2989 C76 1.717 . S
C3001 C1568 1.632 . S
C3028 C1407 2.244 . S
C3016 C93 2.313 . S
C3043 C105 1.511 . S
C3055 C1652 1.335 . S
C3070 C62 1.349 . S
C3082 C1330 1.338 . S
C3097 C49 1.239 . S
C3109 C1078 1.256 . S
C3136 C1150 1.262 . S
C3124 C9 1.261 . S
C3163 C1239 0.815 . S
C3151 C22 0.796 . S
C3190 C1484 1.792 . S
C3178 C36 1.965 . S
C3217 C1575 2.150 . S
C3205 C260 2.218 . S
C3232 C189 0.601 . S
C3244 C1414 0.575 . S
C3271 C1659 1.114 . S
C3259 C204 1.226 . S
C3298 C1316 1.440 . S
C3286 C217 1.456 . S
C3325 C1064 2.033 . S
C3313 C259 2.077 . S
C3340 C190 1.230 . S
C3352 C1166 1.166 . S
C3379 C1246 0.741 . S
C3367 C203 0.838 . S
C3394 C218 1.844 . S
C3406 C1491 1.758 . S
C3433 C1582 1.395 . S
C3421 C314 1.446 . S
C3448 C135 2.037 . S
C3460 C735 1.919 . S
C3487 C823 2.165 . S
C3475 C146 2.258 . S
C3514 C896 0.665 . S
C3502 C163 0.691 . S
C3541 C1498 1.202 . S
C3529 C300 1.094 . S
C3556 C286 1.365 . S
C3568 C1666 1.473 . S
C3595 C651 2.120 . S
C3583 C149 2.229 . S
C3622 C476 0.961 . S
C3610 C121 0.968 . S
C3637 C91 1.737 . S
C3649 C1579 1.616 . S
C3676 C494 2.158 . S
C3664 C77 2.129 . S
C3691 C64 1.622 . S
C3703 C1663 1.602 . S
C3718 C104 1.520 . S
C3730 C646 1.428 . S
C3745 C34 1.454 . S
C3757 C1066 1.432 1_556 S
C3784 C826 1.008 . S
C3772 C23 1.231 . S
C3799 C7 1.079 . S
C3811 C1250 1.069 . S
C3826 C48 1.455 . S
C3838 C991 1.267 . S
C3865 C1586 2.006 . S
C3853 C329 2.100 . S
C3880 C162 0.881 . S
C3892 C478 0.834 . S
C3919 C1670 1.103 1_556 S
C3907 C301 1.156 . S
C3934 C134 1.774 . S
C3946 C655 1.697 . S
C3961 C330 2.283 . S
C3973 C1075 2.064 . S
C4000 C819 1.201 . S
C3988 C161 1.148 . S
C4015 C302 0.973 . S
C4027 C1234 1.013 . S
C4054 C998 1.493 . S
C4042 C133 1.613 . S
C4081 C1570 1.405 . S
C4069 C244 1.515 . S
C4108 C746 2.138 1_665 S
C4096 C219 2.178 . S
C4123 C230 2.224 . S
C4135 C1148 2.041 . S
C4162 C907 0.775 . S
C4150 C191 0.693 . S
C4177 C202 0.972 . S
C4189 C982 0.998 . S
C4204 C174 1.504 . S
C4216 C1654 1.513 . S
C4243 C1334 2.447 . S
C4231 C233 2.492 1_565 S
C4270 C1411 0.799 . S
C4258 C275 0.913 . S
