# Generated by pormake.
# Topology gar, (4,6)-cn, num edge types: 1
# Building blocks:
#     Node 0, Type 0, BuildingBlock: QUQFOY_clean_sbu_1, # of connection points: 4
#     Node 1, Type 0, BuildingBlock: QUQFOY_clean_sbu_1, # of connection points: 4
#     Node 2, Type 0, BuildingBlock: QUQFOY_clean_sbu_1, # of connection points: 4
#     Node 3, Type 0, BuildingBlock: QUQFOY_clean_sbu_1, # of connection points: 4
#     Node 4, Type 0, BuildingBlock: QUQFOY_clean_sbu_1, # of connection points: 4
#     Node 5, Type 0, BuildingBlock: QUQFOY_clean_sbu_1, # of connection points: 4
#     Node 6, Type 0, BuildingBlock: QUQFOY_clean_sbu_1, # of connection points: 4
#     Node 7, Type 0, BuildingBlock: QUQFOY_clean_sbu_1, # of connection points: 4
#     Node 8, Type 0, BuildingBlock: QUQFOY_clean_sbu_1, # of connection points: 4
#     Node 9, Type 0, BuildingBlock: QUQFOY_clean_sbu_1, # of connection points: 4
#     Node 10, Type 0, BuildingBlock: QUQFOY_clean_sbu_1, # of connection points: 4
#     Node 11, Type 0, BuildingBlock: QUQFOY_clean_sbu_1, # of connection points: 4
#     Node 12, Type 0, BuildingBlock: QUQFOY_clean_sbu_1, # of connection points: 4
#     Node 13, Type 0, BuildingBlock: QUQFOY_clean_sbu_1, # of connection points: 4
#     Node 14, Type 0, BuildingBlock: QUQFOY_clean_sbu_1, # of connection points: 4
#     Node 15, Type 0, BuildingBlock: QUQFOY_clean_sbu_1, # of connection points: 4
#     Node 16, Type 0, BuildingBlock: QUQFOY_clean_sbu_1, # of connection points: 4
#     Node 17, Type 0, BuildingBlock: QUQFOY_clean_sbu_1, # of connection points: 4
#     Node 18, Type 0, BuildingBlock: QUQFOY_clean_sbu_1, # of connection points: 4
#     Node 19, Type 0, BuildingBlock: QUQFOY_clean_sbu_1, # of connection points: 4
#     Node 20, Type 0, BuildingBlock: QUQFOY_clean_sbu_1, # of connection points: 4
#     Node 21, Type 0, BuildingBlock: QUQFOY_clean_sbu_1, # of connection points: 4
#     Node 22, Type 0, BuildingBlock: QUQFOY_clean_sbu_1, # of connection points: 4
#     Node 23, Type 0, BuildingBlock: QUQFOY_clean_sbu_1, # of connection points: 4
#     Node 24, Type 1, BuildingBlock: PAMTOO_clean_sbu_0, # of connection points: 6
#     Node 25, Type 1, BuildingBlock: PAMTOO_clean_sbu_0, # of connection points: 6
#     Node 26, Type 1, BuildingBlock: PAMTOO_clean_sbu_0, # of connection points: 6
#     Node 27, Type 1, BuildingBlock: PAMTOO_clean_sbu_0, # of connection points: 6
#     Node 28, Type 1, BuildingBlock: PAMTOO_clean_sbu_0, # of connection points: 6
#     Node 29, Type 1, BuildingBlock: PAMTOO_clean_sbu_0, # of connection points: 6
#     Node 30, Type 1, BuildingBlock: PAMTOO_clean_sbu_0, # of connection points: 6
#     Node 31, Type 1, BuildingBlock: PAMTOO_clean_sbu_0, # of connection points: 6
#     Node 32, Type 1, BuildingBlock: PAMTOO_clean_sbu_0, # of connection points: 6
#     Node 33, Type 1, BuildingBlock: PAMTOO_clean_sbu_0, # of connection points: 6
#     Node 34, Type 1, BuildingBlock: PAMTOO_clean_sbu_0, # of connection points: 6
#     Node 35, Type 1, BuildingBlock: PAMTOO_clean_sbu_0, # of connection points: 6
#     Node 36, Type 1, BuildingBlock: PAMTOO_clean_sbu_0, # of connection points: 6
#     Node 37, Type 1, BuildingBlock: PAMTOO_clean_sbu_0, # of connection points: 6
#     Node 38, Type 1, BuildingBlock: PAMTOO_clean_sbu_0, # of connection points: 6
#     Node 39, Type 1, BuildingBlock: PAMTOO_clean_sbu_0, # of connection points: 6
#     Edge 40, Type (0, 1), BuildingBlock: ZUJKAS_clean_linker_0, # of connection points: 2
#     Edge 41, Type (0, 1), BuildingBlock: ZUJKAS_clean_linker_0, # of connection points: 2
#     Edge 42, Type (0, 1), BuildingBlock: ZUJKAS_clean_linker_0, # of connection points: 2
#     Edge 43, Type (0, 1), BuildingBlock: ZUJKAS_clean_linker_0, # of connection points: 2
#     Edge 44, Type (0, 1), BuildingBlock: ZUJKAS_clean_linker_0, # of connection points: 2
#     Edge 45, Type (0, 1), BuildingBlock: ZUJKAS_clean_linker_0, # of connection points: 2
#     Edge 46, Type (0, 1), BuildingBlock: ZUJKAS_clean_linker_0, # of connection points: 2
#     Edge 47, Type (0, 1), BuildingBlock: ZUJKAS_clean_linker_0, # of connection points: 2
#     Edge 48, Type (0, 1), BuildingBlock: ZUJKAS_clean_linker_0, # of connection points: 2
#     Edge 49, Type (0, 1), BuildingBlock: ZUJKAS_clean_linker_0, # of connection points: 2
#     Edge 50, Type (0, 1), BuildingBlock: ZUJKAS_clean_linker_0, # of connection points: 2
#     Edge 51, Type (0, 1), BuildingBlock: ZUJKAS_clean_linker_0, # of connection points: 2
#     Edge 52, Type (0, 1), BuildingBlock: ZUJKAS_clean_linker_0, # of connection points: 2
#     Edge 53, Type (0, 1), BuildingBlock: ZUJKAS_clean_linker_0, # of connection points: 2
#     Edge 54, Type (0, 1), BuildingBlock: ZUJKAS_clean_linker_0, # of connection points: 2
#     Edge 55, Type (0, 1), BuildingBlock: ZUJKAS_clean_linker_0, # of connection points: 2
#     Edge 56, Type (0, 1), BuildingBlock: ZUJKAS_clean_linker_0, # of connection points: 2
#     Edge 57, Type (0, 1), BuildingBlock: ZUJKAS_clean_linker_0, # of connection points: 2
#     Edge 58, Type (0, 1), BuildingBlock: ZUJKAS_clean_linker_0, # of connection points: 2
#     Edge 59, Type (0, 1), BuildingBlock: ZUJKAS_clean_linker_0, # of connection points: 2
#     Edge 60, Type (0, 1), BuildingBlock: ZUJKAS_clean_linker_0, # of connection points: 2
#     Edge 61, Type (0, 1), BuildingBlock: ZUJKAS_clean_linker_0, # of connection points: 2
#     Edge 62, Type (0, 1), BuildingBlock: ZUJKAS_clean_linker_0, # of connection points: 2
#     Edge 63, Type (0, 1), BuildingBlock: ZUJKAS_clean_linker_0, # of connection points: 2
#     Edge 64, Type (0, 1), BuildingBlock: ZUJKAS_clean_linker_0, # of connection points: 2
#     Edge 65, Type (0, 1), BuildingBlock: ZUJKAS_clean_linker_0, # of connection points: 2
#     Edge 66, Type (0, 1), BuildingBlock: ZUJKAS_clean_linker_0, # of connection points: 2
#     Edge 67, Type (0, 1), BuildingBlock: ZUJKAS_clean_linker_0, # of connection points: 2
#     Edge 68, Type (0, 1), BuildingBlock: ZUJKAS_clean_linker_0, # of connection points: 2
#     Edge 69, Type (0, 1), BuildingBlock: ZUJKAS_clean_linker_0, # of connection points: 2
#     Edge 70, Type (0, 1), BuildingBlock: ZUJKAS_clean_linker_0, # of connection points: 2
#     Edge 71, Type (0, 1), BuildingBlock: ZUJKAS_clean_linker_0, # of connection points: 2
#     Edge 72, Type (0, 1), BuildingBlock: ZUJKAS_clean_linker_0, # of connection points: 2
#     Edge 73, Type (0, 1), BuildingBlock: ZUJKAS_clean_linker_0, # of connection points: 2
#     Edge 74, Type (0, 1), BuildingBlock: ZUJKAS_clean_linker_0, # of connection points: 2
#     Edge 75, Type (0, 1), BuildingBlock: ZUJKAS_clean_linker_0, # of connection points: 2
#     Edge 76, Type (0, 1), BuildingBlock: ZUJKAS_clean_linker_0, # of connection points: 2
#     Edge 77, Type (0, 1), BuildingBlock: ZUJKAS_clean_linker_0, # of connection points: 2
#     Edge 78, Type (0, 1), BuildingBlock: ZUJKAS_clean_linker_0, # of connection points: 2
#     Edge 79, Type (0, 1), BuildingBlock: ZUJKAS_clean_linker_0, # of connection points: 2
#     Edge 80, Type (0, 1), BuildingBlock: ZUJKAS_clean_linker_0, # of connection points: 2
#     Edge 81, Type (0, 1), BuildingBlock: ZUJKAS_clean_linker_0, # of connection points: 2
#     Edge 82, Type (0, 1), BuildingBlock: ZUJKAS_clean_linker_0, # of connection points: 2
#     Edge 83, Type (0, 1), BuildingBlock: ZUJKAS_clean_linker_0, # of connection points: 2
#     Edge 84, Type (0, 1), BuildingBlock: ZUJKAS_clean_linker_0, # of connection points: 2
#     Edge 85, Type (0, 1), BuildingBlock: ZUJKAS_clean_linker_0, # of connection points: 2
#     Edge 86, Type (0, 1), BuildingBlock: ZUJKAS_clean_linker_0, # of connection points: 2
#     Edge 87, Type (0, 1), BuildingBlock: ZUJKAS_clean_linker_0, # of connection points: 2
#     Edge 88, Type (0, 1), BuildingBlock: ZUJKAS_clean_linker_0, # of connection points: 2
#     Edge 89, Type (0, 1), BuildingBlock: ZUJKAS_clean_linker_0, # of connection points: 2
#     Edge 90, Type (0, 1), BuildingBlock: ZUJKAS_clean_linker_0, # of connection points: 2
#     Edge 91, Type (0, 1), BuildingBlock: ZUJKAS_clean_linker_0, # of connection points: 2
#     Edge 92, Type (0, 1), BuildingBlock: ZUJKAS_clean_linker_0, # of connection points: 2
#     Edge 93, Type (0, 1), BuildingBlock: ZUJKAS_clean_linker_0, # of connection points: 2
#     Edge 94, Type (0, 1), BuildingBlock: ZUJKAS_clean_linker_0, # of connection points: 2
#     Edge 95, Type (0, 1), BuildingBlock: ZUJKAS_clean_linker_0, # of connection points: 2
#     Edge 96, Type (0, 1), BuildingBlock: ZUJKAS_clean_linker_0, # of connection points: 2
#     Edge 97, Type (0, 1), BuildingBlock: ZUJKAS_clean_linker_0, # of connection points: 2
#     Edge 98, Type (0, 1), BuildingBlock: ZUJKAS_clean_linker_0, # of connection points: 2
#     Edge 99, Type (0, 1), BuildingBlock: ZUJKAS_clean_linker_0, # of connection points: 2
#     Edge 100, Type (0, 1), BuildingBlock: ZUJKAS_clean_linker_0, # of connection points: 2
#     Edge 101, Type (0, 1), BuildingBlock: ZUJKAS_clean_linker_0, # of connection points: 2
#     Edge 102, Type (0, 1), BuildingBlock: ZUJKAS_clean_linker_0, # of connection points: 2
#     Edge 103, Type (0, 1), BuildingBlock: ZUJKAS_clean_linker_0, # of connection points: 2
#     Edge 104, Type (0, 1), BuildingBlock: ZUJKAS_clean_linker_0, # of connection points: 2
#     Edge 105, Type (0, 1), BuildingBlock: ZUJKAS_clean_linker_0, # of connection points: 2
#     Edge 106, Type (0, 1), BuildingBlock: ZUJKAS_clean_linker_0, # of connection points: 2
#     Edge 107, Type (0, 1), BuildingBlock: ZUJKAS_clean_linker_0, # of connection points: 2
#     Edge 108, Type (0, 1), BuildingBlock: ZUJKAS_clean_linker_0, # of connection points: 2
#     Edge 109, Type (0, 1), BuildingBlock: ZUJKAS_clean_linker_0, # of connection points: 2
#     Edge 110, Type (0, 1), BuildingBlock: ZUJKAS_clean_linker_0, # of connection points: 2
#     Edge 111, Type (0, 1), BuildingBlock: ZUJKAS_clean_linker_0, # of connection points: 2
#     Edge 112, Type (0, 1), BuildingBlock: ZUJKAS_clean_linker_0, # of connection points: 2
#     Edge 113, Type (0, 1), BuildingBlock: ZUJKAS_clean_linker_0, # of connection points: 2
#     Edge 114, Type (0, 1), BuildingBlock: ZUJKAS_clean_linker_0, # of connection points: 2
#     Edge 115, Type (0, 1), BuildingBlock: ZUJKAS_clean_linker_0, # of connection points: 2
#     Edge 116, Type (0, 1), BuildingBlock: ZUJKAS_clean_linker_0, # of connection points: 2
#     Edge 117, Type (0, 1), BuildingBlock: ZUJKAS_clean_linker_0, # of connection points: 2
#     Edge 118, Type (0, 1), BuildingBlock: ZUJKAS_clean_linker_0, # of connection points: 2
#     Edge 119, Type (0, 1), BuildingBlock: ZUJKAS_clean_linker_0, # of connection points: 2
#     Edge 120, Type (0, 1), BuildingBlock: ZUJKAS_clean_linker_0, # of connection points: 2
#     Edge 121, Type (0, 1), BuildingBlock: ZUJKAS_clean_linker_0, # of connection points: 2
#     Edge 122, Type (0, 1), BuildingBlock: ZUJKAS_clean_linker_0, # of connection points: 2
#     Edge 123, Type (0, 1), BuildingBlock: ZUJKAS_clean_linker_0, # of connection points: 2
#     Edge 124, Type (0, 1), BuildingBlock: ZUJKAS_clean_linker_0, # of connection points: 2
#     Edge 125, Type (0, 1), BuildingBlock: ZUJKAS_clean_linker_0, # of connection points: 2
#     Edge 126, Type (0, 1), BuildingBlock: ZUJKAS_clean_linker_0, # of connection points: 2
#     Edge 127, Type (0, 1), BuildingBlock: ZUJKAS_clean_linker_0, # of connection points: 2
#     Edge 128, Type (0, 1), BuildingBlock: ZUJKAS_clean_linker_0, # of connection points: 2
#     Edge 129, Type (0, 1), BuildingBlock: ZUJKAS_clean_linker_0, # of connection points: 2
#     Edge 130, Type (0, 1), BuildingBlock: ZUJKAS_clean_linker_0, # of connection points: 2
#     Edge 131, Type (0, 1), BuildingBlock: ZUJKAS_clean_linker_0, # of connection points: 2
#     Edge 132, Type (0, 1), BuildingBlock: ZUJKAS_clean_linker_0, # of connection points: 2
#     Edge 133, Type (0, 1), BuildingBlock: ZUJKAS_clean_linker_0, # of connection points: 2
#     Edge 134, Type (0, 1), BuildingBlock: ZUJKAS_clean_linker_0, # of connection points: 2
#     Edge 135, Type (0, 1), BuildingBlock: ZUJKAS_clean_linker_0, # of connection points: 2
# Relax obj value: 0.145
# Max RMSD: 0.271
# Mean RMSD: 0.180
data_MOF--net-gar--node1-QUQFOY_clean_sbu_1--node2-PAMTOO_clean_sbu_0--edge1-ZUJKAS_clean_linker_0
_symmetry_space_group_name_H-M    P1
_symmetry_Int_Tables_number       1
_symmetry_cell_setting            triclinic
loop_
_symmetry_equiv_pos_as_xyz
'x, y, z'
_cell_length_a     76.399788
_cell_length_b     76.955311
_cell_length_c     74.935168
_cell_angle_alpha  96.343559
_cell_angle_beta   95.68612
_cell_angle_gamma 105.95967
loop_
_atom_site_label
_atom_site_type_symbol
_atom_site_fract_x
_atom_site_fract_y
_atom_site_fract_z
_atom_type_partial_charge
O0 O 0.03969 0.27014 0.37641 0.0
Cd1 Cd 0.04112 0.28707 0.35634 0.0
Cd2 Cd 0.0326 0.31026 0.38909 0.0
O3 O 0.03742 0.28834 0.40062 0.0
O4 O 0.05387 0.2763 0.33711 0.0
O5 O 0.06702 0.30283 0.35399 0.0
C6 C 0.06834 0.29007 0.34189 0.0
C7 C 0.03861 0.33843 0.40864 0.0
C8 C 0.03897 0.27315 0.39336 0.0
C9 C 1.00472 0.29731 0.35348 0.0
O10 O 0.00955 0.30483 0.36993 0.0
O11 O 0.01556 0.29033 0.34505 0.0
O12 O 0.0253 0.32437 0.40995 0.0
O13 O 0.04896 0.33658 0.39638 0.0
O14 O 1.00471 0.72178 0.68591 0.0
Cd15 Cd 0.00895 0.74404 0.70637 0.0
Cd16 Cd 0.02537 0.76319 0.67949 0.0
O17 O 0.01648 0.73726 0.66463 0.0
O18 O 0.98967 0.73743 0.72342 0.0
O19 O 0.99105 0.7596 0.70694 0.0
C20 C 0.98281 0.75 0.71842 0.0
C21 C 0.02378 0.78824 0.66424 0.0
C22 C 0.00911 0.7221 0.66993 0.0
C23 C 0.05038 0.76169 0.71351 0.0
O24 O 0.04842 0.76723 0.69824 0.0
O25 O 0.03627 0.7528 0.72001 0.0
O26 O 0.03535 0.77924 0.66123 0.0
O27 O 0.01279 0.78298 0.67589 0.0
O28 O 0.57502 0.79929 0.87112 0.0
Cd29 Cd 0.55541 0.79983 0.88853 0.0
Cd30 Cd 0.54095 0.81393 0.85719 0.0
O31 O 0.56365 0.80787 0.84635 0.0
O32 O 0.56365 0.78816 0.90924 0.0
O33 O 0.5372 0.77589 0.89173 0.0
C34 C 0.54868 0.77495 0.9052 0.0
C35 C 0.50979 0.80465 0.84319 0.0
C36 C 0.57614 0.80254 0.85488 0.0
C37 C 0.55026 0.83813 0.89385 0.0
O38 O 0.5464 0.83683 0.87673 0.0
O39 O 0.55338 0.82478 0.90095 0.0
O40 O 0.52217 0.8174 0.83786 0.0
O41 O 0.51534 0.79615 0.85556 0.0
O42 O 0.50082 0.21158 0.17991 0.0
Cd43 Cd 0.5053 0.23435 0.20006 0.0
Cd44 Cd 0.52159 0.25249 0.17256 0.0
O45 O 0.51156 0.22654 0.15791 0.0
O46 O 0.48583 0.2285 0.21713 0.0
O47 O 0.48754 0.25012 0.19995 0.0
C48 C 0.47913 0.24098 0.21163 0.0
C49 C 0.52026 0.27774 0.1575 0.0
C50 C 0.50448 0.21154 0.16363 0.0
C51 C 0.54691 0.25135 0.20654 0.0
O52 O 0.54488 0.2559 0.1908 0.0
O53 O 0.53277 0.24357 0.21369 0.0
O54 O 0.53106 0.26804 0.15373 0.0
O55 O 0.50994 0.2731 0.16985 0.0
O56 O 0.04348 0.76347 0.11648 0.0
Cd57 Cd 0.04666 0.78699 0.13455 0.0
Cd58 Cd 0.06516 0.80292 0.10692 0.0
O59 O 0.05641 0.77528 0.09372 0.0
O60 O 0.03144 0.7779 0.15385 0.0
O61 O 0.02582 0.79842 0.13768 0.0
C62 C 0.02159 0.78856 0.15035 0.0
C63 C 0.05816 0.82883 0.09555 0.0
C64 C 0.04849 0.76129 0.10086 0.0
C65 C 0.08786 0.80473 0.14332 0.0
O66 O 0.08802 0.80782 0.12693 0.0
O67 O 0.0727 0.79778 0.14906 0.0
O68 O 0.07054 0.82203 0.08961 0.0
O69 O 0.04923 0.8206 0.10749 0.0
O70 O 0.53636 0.77038 0.44361 0.0
Cd71 Cd 0.51875 0.76768 0.46338 0.0
Cd72 Cd 0.49593 0.77796 0.4312 0.0
O73 O 0.51897 0.7748 0.41996 0.0
O74 O 0.52841 0.7539 0.48211 0.0
O75 O 0.5027 0.74147 0.46359 0.0
C76 C 0.51476 0.73962 0.47606 0.0
C77 C 0.46847 0.77385 0.41111 0.0
C78 C 0.53399 0.77261 0.42701 0.0
C79 C 0.50766 0.80343 0.46853 0.0
O80 O 0.50002 0.79922 0.45213 0.0
O81 O 0.51533 0.79267 0.47598 0.0
O82 O 0.48264 0.7877 0.41185 0.0
O83 O 0.46989 0.76174 0.42135 0.0
O84 O 0.55015 0.26386 0.61912 0.0
Cd85 Cd 0.55464 0.28726 0.63767 0.0
Cd86 Cd 0.573 0.30336 0.61024 0.0
O87 O 0.56375 0.27591 0.5968 0.0
O88 O 0.53924 0.27846 0.65693 0.0
O89 O 0.53448 0.29954 0.64106 0.0
C90 C 0.5298 0.2895 0.6535 0.0
C91 C 0.56576 0.32927 0.59917 0.0
C92 C 0.55517 0.26188 0.6035 0.0
C93 C 0.59614 0.30406 0.64598 0.0
O94 O 0.59614 0.30779 0.62979 0.0
O95 O 0.58104 0.297 0.65178 0.0
O96 O 0.5778 0.32229 0.5927 0.0
O97 O 0.55741 0.32132 0.61158 0.0
O98 O 1.00306 0.23404 0.94592 0.0
Cd99 Cd 1.00386 0.25394 0.92899 0.0
Cd100 Cd 0.9899 0.26914 0.95991 0.0
O101 O 0.99562 0.24641 0.97105 0.0
O102 O 0.01605 0.24555 0.90853 0.0
O103 O 0.02841 0.2717 0.92647 0.0
C104 C 0.0295 0.26027 0.91294 0.0
C105 C 1.00007 0.30073 0.97284 0.0
C106 C 1.00009 0.23332 0.9623 0.0
C107 C 0.96599 0.26017 0.92314 0.0
O108 O 0.96691 0.26383 0.94028 0.0
O109 O 0.97949 0.25684 0.9162 0.0
O110 O 0.98715 0.28905 0.9788 0.0
O111 O 0.00832 0.29427 0.96058 0.0
O112 O 0.40695 0.04858 0.27092 0.0
Cd113 Cd 0.38963 0.04323 0.29021 0.0
Cd114 Cd 0.41879 0.04179 0.31158 0.0
O115 O 0.4312 0.04804 0.28911 0.0
O116 O 0.36783 0.05106 0.28276 0.0
O117 O 0.38678 0.06315 0.30822 0.0
C118 C 0.37205 0.06234 0.29766 0.0
C119 C 0.43468 0.05755 0.33928 0.0
C120 C 0.42397 0.04998 0.27375 0.0
C121 C 0.38723 0.00772 0.30364 0.0
O122 O 0.40336 0.0152 0.31189 0.0
O123 O 0.37925 0.01665 0.29408 0.0
O124 O 0.44021 0.04539 0.33013 0.0
O125 O 0.41994 0.06097 0.33261 0.0
O126 O 0.28933 0.19618 0.55728 0.0
Cd127 Cd 0.28689 0.17578 0.53586 0.0
Cd128 Cd 0.2707 0.1998 0.51804 0.0
O129 O 0.27708 0.21512 0.54389 0.0
O130 O 0.29948 0.15934 0.54731 0.0
O131 O 0.3087 0.17238 0.52383 0.0
C132 C 0.31073 0.16171 0.53552 0.0
C133 C 0.27814 0.21241 0.49145 0.0
C134 C 0.28435 0.21071 0.55813 0.0
C135 C 0.2468 0.16151 0.51915 0.0
O136 O 0.24788 0.17714 0.51451 0.0
O137 O 0.26081 0.15833 0.52719 0.0
O138 O 0.26505 0.21545 0.49978 0.0
O139 O 0.28764 0.20279 0.49866 0.0
O140 O 0.11595 0.02426 0.758 0.0
Cd141 Cd 0.1364 0.02652 0.77926 0.0
Cd142 Cd 0.11233 0.04319 0.79752 0.0
O143 O 0.0973 0.0372 0.77158 0.0
O144 O 0.15271 0.01336 0.76789 0.0
O145 O 0.13937 0.005 0.79156 0.0
C146 C 0.15012 0.00251 0.77989 0.0
C147 C 0.09855 0.03697 0.82391 0.0
C148 C 0.1016 0.02969 0.75727 0.0
C149 C 0.15125 0.06633 0.79612 0.0
O150 O 0.13565 0.06535 0.8012 0.0
O151 O 0.15423 0.05239 0.78767 0.0
O152 O 0.09681 0.05031 0.81556 0.0
O153 O 0.10753 0.02655 0.81687 0.0
O154 O 0.2599 0.91891 0.03941 0.0
Cd155 Cd 0.26638 0.92855 0.0156 0.0
Cd156 Cd 0.26327 0.89451 0.00399 0.0
O157 O 0.25156 0.89007 0.02711 0.0
O158 O 0.26246 0.95297 0.01745 0.0
O159 O 0.24639 0.92971 0.99677 0.0
C160 C 0.24961 0.94654 0.00391 0.0
C161 C 0.24814 0.87682 0.97696 0.0
C162 C 0.253 0.90214 0.04058 0.0
C163 C 0.30081 0.92031 0.00804 0.0
O164 O 0.29164 0.90358 0.00628 0.0
O165 O 0.29285 0.93266 0.01047 0.0
O166 O 0.25594 0.87001 0.98935 0.0
O167 O 0.24868 0.89382 0.98002 0.0
O168 O 0.26914 0.37228 0.07416 0.0
Cd169 Cd 0.2728 0.38903 0.05408 0.0
Cd170 Cd 0.28487 0.35998 0.03849 0.0
O171 O 0.27551 0.3481 0.06083 0.0
O172 O 0.26136 0.40848 0.06231 0.0
O173 O 0.25144 0.39022 0.03631 0.0
C174 C 0.25 0.4036 0.04753 0.0
C175 C 0.27742 0.34543 0.00827 0.0
C176 C 0.2706 0.35621 0.07439 0.0
C177 C 0.31256 0.39716 0.0477 0.0
O178 O 0.30977 0.38009 0.04323 0.0
O179 O 0.29943 0.40346 0.05154 0.0
O180 O 0.2881 0.34058 0.01992 0.0
O181 O 0.26999 0.35781 0.01404 0.0
O182 O 0.80913 0.15123 0.08766 0.0
Cd183 Cd 0.7987 0.1348 0.063 0.0
Cd184 Cd 0.79102 0.16408 0.05281 0.0
O185 O 0.80566 0.17606 0.07752 0.0
O186 O 0.81088 0.11528 0.05917 0.0
O187 O 0.81307 0.13742 0.04214 0.0
C188 C 0.81691 0.12266 0.04545 0.0
C189 C 0.79693 0.18031 0.02862 0.0
C190 C 0.81114 0.16832 0.09016 0.0
C191 C 0.75916 0.13129 0.05363 0.0
O192 O 0.76436 0.14812 0.05201 0.0
O193 O 0.77083 0.12281 0.05737 0.0
O194 O 0.78809 0.18517 0.0411 0.0
O195 O 0.80264 0.16615 0.02994 0.0
O196 O 0.15637 0.50123 0.21946 0.0
Cd197 Cd 0.17556 0.51231 0.24217 0.0
Cd198 Cd 0.1484 0.52226 0.25571 0.0
O199 O 0.13337 0.50638 0.2326 0.0
O200 O 0.1943 0.49895 0.24374 0.0
O201 O 0.17482 0.4993 0.26379 0.0
C202 C 0.18841 0.49407 0.25853 0.0
C203 C 0.13483 0.51969 0.28211 0.0
C204 C 0.13934 0.49976 0.21901 0.0
C205 C 0.18136 0.55209 0.25004 0.0
O206 O 0.16497 0.54787 0.25367 0.0
O207 O 0.18898 0.53979 0.24578 0.0
O208 O 0.12922 0.52771 0.26947 0.0
O209 O 0.14825 0.5129 0.27972 0.0
O210 O 0.77391 0.87653 0.58073 0.0
Cd211 Cd 0.7765 0.89292 0.56038 0.0
Cd212 Cd 0.78972 0.8643 0.54466 0.0
O213 O 0.7819 0.85309 0.56787 0.0
O214 O 0.76403 0.91169 0.56802 0.0
O215 O 0.75464 0.8926 0.54248 0.0
C216 C 0.75267 0.90601 0.55329 0.0
C217 C 0.78257 0.84773 0.51522 0.0
C218 C 0.7765 0.86093 0.58128 0.0
C219 C 0.81581 0.90272 0.55252 0.0
O220 O 0.81353 0.88579 0.5477 0.0
O221 O 0.80262 0.90832 0.55746 0.0
O222 O 0.7946 0.84505 0.52712 0.0
O223 O 0.77367 0.85903 0.5204 0.0
O224 O 0.93578 0.03873 0.2426 0.0
Cd225 Cd 0.91854 0.03497 0.26242 0.0
Cd226 Cd 0.94714 0.02255 0.27827 0.0
O227 O 0.95935 0.03131 0.25579 0.0
O228 O 0.89929 0.04676 0.25477 0.0
O229 O 0.91765 0.05606 0.28074 0.0
C230 C 0.90429 0.05781 0.26978 0.0
C231 C 0.96211 0.03041 0.30827 0.0
C232 C 0.95176 0.03672 0.2424 0.0
C233 C 0.90941 0.99548 0.26874 0.0
O234 O 0.92642 0.9981 0.27393 0.0
O235 O 0.90355 0.00854 0.26426 0.0
O236 O 0.96656 0.01927 0.29663 0.0
O237 O 0.94982 0.03794 0.30262 0.0
O238 O 0.3242 0.66491 0.59083 0.0
Cd239 Cd 0.31276 0.64398 0.56962 0.0
Cd240 Cd 0.30053 0.66877 0.55442 0.0
O241 O 0.3172 0.68588 0.57616 0.0
O242 O 0.32815 0.62709 0.5672 0.0
O243 O 0.32336 0.64429 0.54637 0.0
C244 C 0.33078 0.63216 0.55156 0.0
C245 C 0.29953 0.68015 0.52692 0.0
C246 C 0.32483 0.68149 0.5901 0.0
C247 C 0.27249 0.63612 0.5639 0.0
O248 O 0.27582 0.65174 0.55874 0.0
O249 O 0.28555 0.62956 0.56843 0.0
O250 O 0.29264 0.68632 0.54036 0.0
O251 O 0.3074 0.66756 0.52912 0.0
O252 O 0.44084 0.53987 0.74527 0.0
Cd253 Cd 0.42253 0.53614 0.76416 0.0
Cd254 Cd 0.45078 0.52249 0.78066 0.0
O255 O 0.46316 0.53027 0.75804 0.0
O256 O 0.40392 0.54806 0.75494 0.0
O257 O 0.42066 0.55737 0.78178 0.0
C258 C 0.4081 0.5592 0.76988 0.0
C259 C 0.46633 0.52924 0.81044 0.0
C260 C 0.45633 0.53672 0.74497 0.0
C261 C 0.41226 0.49664 0.77084 0.0
O262 O 0.42907 0.49895 0.77664 0.0
O263 O 0.40692 0.50977 0.76568 0.0
O264 O 0.46944 0.51739 0.79854 0.0
O265 O 0.45516 0.53815 0.80513 0.0
O266 O 0.65982 0.00091 0.72447 0.0
Cd267 Cd 0.67948 0.01248 0.74674 0.0
Cd268 Cd 0.65324 0.0244 0.7598 0.0
O269 O 0.63737 0.00671 0.73808 0.0
O270 O 0.69668 0.99759 0.74956 0.0
O271 O 0.67786 0.00128 0.76949 0.0
C272 C 0.69058 0.99434 0.7647 0.0
C273 C 0.63968 0.02615 0.78618 0.0
C274 C 0.64284 0.99938 0.72455 0.0
C275 C 0.68679 0.05229 0.75188 0.0
O276 O 0.67035 0.04886 0.75533 0.0
O277 O 0.69413 0.03952 0.74891 0.0
O278 O 0.63458 0.03268 0.77214 0.0
O279 O 0.65254 0.0183 0.78524 0.0
O280 O 0.78502 0.69433 0.06125 0.0
Cd281 Cd 0.78326 0.67632 0.03798 0.0
Cd282 Cd 0.76899 0.70253 0.02353 0.0
O283 O 0.77625 0.71642 0.05 0.0
O284 O 0.79528 0.65849 0.04736 0.0
O285 O 0.80555 0.67446 0.02597 0.0
C286 C 0.80706 0.66237 0.03621 0.0
C287 C 0.77777 0.7158 0.99765 0.0
C288 C 0.78171 0.7097 0.06357 0.0
C289 C 0.74344 0.66441 0.02137 0.0
O290 O 0.74506 0.68095 0.0193 0.0
O291 O 0.75729 0.65972 0.02756 0.0
O292 O 0.76512 0.71967 0.00616 0.0
O293 O 0.78608 0.70494 0.00432 0.0
O294 O 0.89487 0.54657 0.76829 0.0
Cd295 Cd 0.88524 0.54439 0.79296 0.0
Cd296 Cd 0.91879 0.54419 0.80411 0.0
O297 O 0.92386 0.55114 0.77912 0.0
O298 O 0.86154 0.55012 0.78975 0.0
O299 O 0.88514 0.56647 0.80988 0.0
C300 C 0.8684 0.56369 0.80252 0.0
C301 C 0.93735 0.56121 0.82995 0.0
C302 C 0.91164 0.55002 0.76593 0.0
C303 C 0.88952 0.50994 0.80486 0.0
O304 O 0.90673 0.51699 0.80564 0.0
O305 O 0.87854 0.51914 0.80109 0.0
O306 O 0.94326 0.55086 0.81881 0.0
O307 O 0.92087 0.56235 0.82614 0.0
O308 O 0.77453 0.39513 0.53827 0.0
Cd309 Cd 0.77799 0.41798 0.52563 0.0
Cd310 Cd 0.78314 0.39521 0.49805 0.0
O311 O 0.78004 0.37679 0.5162 0.0
O312 O 0.77118 0.43545 0.54297 0.0
O313 O 0.75623 0.42523 0.51527 0.0
C314 C 0.75831 0.43558 0.53058 0.0
C315 C 0.76672 0.38497 0.46941 0.0
C316 C 0.77621 0.37969 0.53215 0.0
C317 C 0.81388 0.42911 0.51102 0.0
O318 O 0.80812 0.41457 0.49974 0.0
O319 O 0.80394 0.43285 0.52258 0.0
O320 O 0.78143 0.38065 0.4743 0.0
O321 O 0.76103 0.39519 0.48094 0.0
O322 O 0.61795 0.52155 0.26 0.0
Cd323 Cd 0.63794 0.52474 0.28195 0.0
Cd324 Cd 0.61249 0.53924 0.29922 0.0
O325 O 0.59748 0.53192 0.2733 0.0
O326 O 0.65555 0.51234 0.27208 0.0
O327 O 0.64056 0.50337 0.29465 0.0
C328 C 0.65225 0.50131 0.28387 0.0
C329 C 0.59969 0.5322 0.32587 0.0
C330 C 0.60273 0.52541 0.25906 0.0
C331 C 0.65031 0.56471 0.29834 0.0
O332 O 0.63426 0.56279 0.30261 0.0
O333 O 0.65457 0.55113 0.2907 0.0
O334 O 0.59597 0.5445 0.31704 0.0
O335 O 0.61006 0.52318 0.31909 0.0
Dy336 Dy 0.04666 0.043 0.04207 0.0
Dy337 Dy 1.00452 0.02098 0.02497 0.0
C338 C 0.03661 0.0277 0.00017 0.0
O339 O 0.03616 0.06436 0.02993 0.0
O340 O 1.00503 0.0506 0.02554 0.0
O341 O 0.0721 0.06284 0.03952 0.0
O342 O 0.06981 0.04904 0.06319 0.0
O343 O 1.00618 0.02236 0.05516 0.0
O344 O 0.02961 0.04872 0.06333 0.0
O345 O 0.01698 0.99816 0.02973 0.0
O346 O 0.04332 0.01435 0.04866 0.0
O347 O 0.97566 0.01356 0.0274 0.0
O348 O 0.98496 0.00278 0.00335 0.0
C349 C 0.01923 0.06504 0.02575 0.0
O350 O 0.04816 0.02893 0.01473 0.0
O351 O 0.01973 0.02808 0.00149 0.0
C352 C 0.09659 0.05236 0.04928 0.0
C353 C 0.12358 0.03982 0.03362 0.0
C354 C 0.12677 0.05855 0.03949 0.0
C355 C 0.11325 0.0648 0.04718 0.0
C356 C 0.09383 0.03359 0.04425 0.0
C357 C 0.10722 0.02738 0.03655 0.0
C358 C 0.08092 0.0588 0.0535 0.0
C359 C 0.0154 0.03641 0.06727 0.0
C360 C 0.03148 0.99866 0.04114 0.0
C361 C 0.95716 0.01045 -6e-05 0.0
C362 C 0.92929 0.02422 0.98525 0.0
C363 C 0.94772 0.03506 0.98818 0.0
C364 C 0.96155 0.0282 0.99543 0.0
C365 C 0.93908 0.99912 0.99582 0.0
C366 C 0.92524 0.00591 0.9884 0.0
C367 C 0.97086 0.00469 0.011 0.0
H368 H 0.1393 0.06839 0.03736 0.0
H369 H 0.11545 0.07935 0.0507 0.0
H370 H 0.08095 0.02375 0.04548 0.0
H371 H 0.10457 0.01285 0.03246 0.0
H372 H 0.95135 0.04926 0.98612 0.0
H373 H 0.97549 0.03712 0.99853 0.0
H374 H 0.93552 0.98535 0.99917 0.0
H375 H 0.91122 0.99713 0.98601 0.0
Dy376 Dy 0.28433 0.78249 0.26107 0.0
Dy377 Dy 0.26297 0.78306 0.29714 0.0
C378 C 0.28797 0.81923 0.28651 0.0
O379 O 0.3055 0.78209 0.28389 0.0
O380 O 0.28764 0.77441 0.30657 0.0
O381 O 0.30712 0.79554 0.24765 0.0
O382 O 0.28572 0.77191 0.23353 0.0
O383 O 0.25556 0.75381 0.28488 0.0
O384 O 0.27715 0.7535 0.26548 0.0
O385 O 0.24697 0.79335 0.27597 0.0
O386 O 0.25489 0.77916 0.25092 0.0
O387 O 0.2381 0.77347 0.30908 0.0
O388 O 0.26177 0.79352 0.32477 0.0
C389 C 0.30337 0.77706 0.29998 0.0
O390 O 0.28408 0.81107 0.26973 0.0
O391 O 0.2839 0.81003 0.29992 0.0
C392 C 0.2955 0.79662 0.218 0.0
C393 C 0.28657 0.81689 0.1914 0.0
C394 C 0.2777 0.81582 0.20693 0.0
C395 C 0.28216 0.8058 0.22011 0.0
C396 C 0.30457 0.79772 0.20264 0.0
C397 C 0.30015 0.80787 0.18939 0.0
C398 C 0.29944 0.78591 0.23199 0.0
C399 C 0.26412 0.74515 0.27432 0.0
C400 C 0.24411 0.78758 0.25845 0.0
C401 C 0.24559 0.7702 0.3393 0.0
C402 C 0.24888 0.74988 0.36775 0.0
C403 C 0.25624 0.74655 0.35169 0.0
C404 C 0.25458 0.7566 0.3376 0.0
C405 C 0.23771 0.77325 0.35499 0.0
C406 C 0.23929 0.7631 0.36913 0.0
C407 C 0.24584 0.7819 0.32517 0.0
H408 H 0.26739 0.82283 0.20896 0.0
H409 H 0.2751 0.80516 0.23197 0.0
H410 H 0.31489 0.79069 0.20086 0.0
H411 H 0.30709 0.8084 0.17746 0.0
H412 H 0.26398 0.73673 0.35026 0.0
H413 H 0.26084 0.75417 0.32557 0.0
H414 H 0.23075 0.78374 0.35647 0.0
H415 H 0.23329 0.76583 0.38126 0.0
Dy416 Dy 0.51089 0.02867 0.54328 0.0
Dy417 Dy 0.55229 0.03662 0.52956 0.0
C418 C 0.51849 0.04296 0.50555 0.0
O419 O 0.51486 0.00073 0.53725 0.0
O420 O 0.5367 0.0075 0.51804 0.0
O421 O 0.48153 0.01583 0.5378 0.0
O422 O 0.49341 0.03382 0.56293 0.0
O423 O 0.55344 0.0223 0.5536 0.0
O424 O 0.5297 0.02776 0.56764 0.0
O425 O 0.55257 0.06374 0.54496 0.0
O426 O 0.52154 0.05917 0.54532 0.0
O427 O 0.58182 0.04669 0.53588 0.0
O428 O 0.56932 0.03387 0.50865 0.0
C429 C 0.52466 0.99548 0.52531 0.0
O430 O 0.50744 0.03149 0.51405 0.0
O431 O 0.53631 0.04861 0.51046 0.0
C432 C 0.465 0.0354 0.54913 0.0
C433 C 0.4398 0.05594 0.54415 0.0
C434 C 0.4575 0.0618 0.53904 0.0
C435 C 0.46995 0.05162 0.54149 0.0
C436 C 0.44737 0.02936 0.55407 0.0
C437 C 0.43487 0.0395 0.55159 0.0
C438 C 0.47833 0.025 0.5522 0.0
C439 C 0.54464 0.02248 0.56772 0.0
C440 C 0.53847 0.07005 0.54765 0.0
C441 C 0.59666 0.02799 0.52023 0.0
C442 C 0.62054 0.00576 0.52229 0.0
C443 C 0.60254 0.99965 0.52663 0.0
C444 C 0.59073 0.01066 0.52562 0.0
C445 C 0.61446 0.03409 0.51568 0.0
C446 C 0.6263 0.02308 0.51668 0.0
C447 C 0.58452 0.03992 0.51998 0.0
H448 H 0.4619 0.07446 0.53349 0.0
H449 H 0.48353 0.05652 0.53758 0.0
H450 H 0.44328 0.01683 0.55991 0.0
H451 H 0.42129 0.03439 0.55541 0.0
H452 H 0.59755 0.98631 0.53076 0.0
H453 H 0.57701 0.00571 0.52919 0.0
H454 H 0.6193 0.04748 0.5116 0.0
H455 H 0.64011 0.02834 0.51346 0.0
Dy456 Dy 0.29922 0.27812 0.78396 0.0
Dy457 Dy 0.25847 0.2859 0.77855 0.0
C458 C 0.29564 0.31632 0.77544 0.0
O459 O 0.29555 0.29199 0.81088 0.0
O460 O 0.26409 0.28275 0.80763 0.0
O461 O 0.32831 0.28806 0.79356 0.0
O462 O 0.31653 0.26032 0.77991 0.0
O463 O 0.25316 0.25571 0.77699 0.0
O464 O 0.2798 0.25441 0.79322 0.0
O465 O 0.26648 0.28381 0.75047 0.0
O466 O 0.28672 0.26699 0.75525 0.0
O467 O 0.22959 0.27837 0.7678 0.0
O468 O 0.24216 0.30399 0.78538 0.0
C469 C 0.28004 0.28929 0.81789 0.0
O470 O 0.30298 0.30325 0.7709 0.0
O471 O 0.28015 0.3129 0.78239 0.0
C472 C 0.34677 0.27565 0.77503 0.0
C473 C 0.37628 0.27985 0.75408 0.0
C474 C 0.36657 0.29298 0.75558 0.0
C475 C 0.35196 0.29088 0.76587 0.0
C476 C 0.35626 0.26246 0.77344 0.0
C477 C 0.3708 0.26448 0.76307 0.0
C478 C 0.3316 0.27327 0.78627 0.0
C479 C 0.26252 0.24684 0.7862 0.0
C480 C 0.27631 0.27341 0.74425 0.0
C481 C 0.2112 0.28928 0.78765 0.0
C482 C 0.18206 0.2846 0.80897 0.0
C483 C 0.19198 0.27167 0.80732 0.0
C484 C 0.20648 0.27404 0.79685 0.0
C485 C 0.20126 0.30209 0.78916 0.0
C486 C 0.18688 0.29981 0.7997 0.0
C487 C 0.22686 0.29254 0.77709 0.0
H488 H 0.37046 0.30509 0.74906 0.0
H489 H 0.34481 0.30124 0.76677 0.0
H490 H 0.35243 0.25053 0.78025 0.0
H491 H 0.37762 0.25388 0.762 0.0
H492 H 0.18878 0.25991 0.81442 0.0
H493 H 0.21411 0.26407 0.79607 0.0
H494 H 0.20471 0.31398 0.78224 0.0
H495 H 0.17941 0.30991 0.80048 0.0
Dy496 Dy 0.03378 0.01442 0.53193 0.0
Dy497 Dy 0.02654 0.05521 0.53748 0.0
C498 C 0.99581 0.0188 0.5416 0.0
O499 O 0.01935 0.01768 0.50534 0.0
O500 O 0.02917 0.04889 0.50823 0.0
O501 O 0.02288 0.98527 0.52313 0.0
O502 O 0.05136 0.99692 0.53493 0.0
O503 O 0.05681 0.05988 0.5387 0.0
O504 O 0.05761 0.03326 0.52208 0.0
O505 O 0.02896 0.04771 0.56565 0.0
O506 O 0.04547 0.02719 0.56044 0.0
O507 O 0.03493 0.08416 0.54777 0.0
O508 O 0.00877 0.07179 0.53106 0.0
C509 C 0.02215 0.03292 0.49816 0.0
O510 O 0.00896 0.0115 0.54587 0.0
O511 O 0.99918 0.03403 0.53448 0.0
C512 C 0.03584 0.9673 0.54122 0.0
C513 C 0.03169 0.93868 0.56279 0.0
C514 C 0.0243 0.93511 0.54432 0.0
C515 C 0.0264 0.94923 0.53369 0.0
C516 C 0.04304 0.97103 0.55971 0.0
C517 C 0.04105 0.95688 0.57034 0.0
C518 C 0.03795 0.98196 0.52959 0.0
C519 C 0.06549 0.05041 0.52915 0.0
C520 C 0.03929 0.0378 0.57164 0.0
C521 C 0.02423 0.10205 0.52782 0.0
C522 C 0.02879 0.13017 0.50572 0.0
C523 C 0.03467 0.11464 0.501 0.0
C524 C 0.03238 0.10072 0.51192 0.0
C525 C 0.01862 0.11758 0.53274 0.0
C526 C 0.02088 0.1315 0.52183 0.0
C527 C 0.02067 0.087 0.53886 0.0
H528 H 0.01669 0.92139 0.53804 0.0
H529 H 0.02061 0.94602 0.51951 0.0
H530 H 0.05031 0.98486 0.56595 0.0
H531 H 0.04714 0.96023 0.58441 0.0
H532 H 0.04063 0.11302 0.48862 0.0
H533 H 0.03671 0.08877 0.50782 0.0
H534 H 0.01229 0.11887 0.54494 0.0
H535 H 0.01645 0.14334 0.52608 0.0
Dy536 Dy 0.2832 0.8017 0.77464 0.0
Dy537 Dy 0.27468 0.75894 0.78374 0.0
C538 C 0.26805 0.7903 0.81118 0.0
O539 O 0.31118 0.79761 0.78034 0.0
O540 O 0.30352 0.7739 0.797 0.0
O541 O 0.29541 0.83082 0.78266 0.0
O542 O 0.27885 0.8205 0.75652 0.0
O543 O 0.29048 0.76036 0.76039 0.0
O544 O 0.28466 0.78492 0.74884 0.0
O545 O 0.2482 0.76006 0.76809 0.0
O546 O 0.2526 0.79106 0.77286 0.0
O547 O 0.26474 0.72991 0.77477 0.0
O548 O 0.27621 0.74009 0.80285 0.0
C549 C 0.31597 0.78689 0.79126 0.0
O550 O 0.27986 0.80235 0.80388 0.0
O551 O 0.26203 0.77304 0.80408 0.0
C552 C 0.27652 0.84806 0.77159 0.0
C553 C 0.2553 0.87278 0.77583 0.0
C554 C 0.24929 0.85517 0.78077 0.0
C555 C 0.25981 0.84295 0.77868 0.0
C556 C 0.28273 0.86564 0.76692 0.0
C557 C 0.27226 0.8779 0.76905 0.0
C558 C 0.28712 0.83491 0.76834 0.0
C559 C 0.29041 0.7703 0.7473 0.0
C560 C 0.24175 0.77432 0.76803 0.0
C561 C 0.28217 0.71334 0.78965 0.0
C562 C 0.30423 0.68924 0.7886 0.0
C563 C 0.30616 0.70268 0.77704 0.0
C564 C 0.29532 0.71468 0.77763 0.0
C565 C 0.28027 0.70006 0.80128 0.0
C566 C 0.29123 0.68815 0.8008 0.0
C567 C 0.27057 0.72584 0.79031 0.0
H568 H 0.23625 0.85065 0.78584 0.0
H569 H 0.25477 0.8294 0.78234 0.0
H570 H 0.29561 0.86984 0.76146 0.0
H571 H 0.2775 0.89141 0.76541 0.0
H572 H 0.31621 0.70405 0.76766 0.0
H573 H 0.2972 0.72499 0.76869 0.0
H574 H 0.27026 0.69886 0.8107 0.0
H575 H 0.28929 0.67786 0.80977 0.0
Dy576 Dy 0.52446 0.03346 0.01361 0.0
Dy577 Dy 0.53371 0.0147 0.04934 0.0
C578 C 0.5356 0.99614 0.00915 0.0
O579 O 0.49948 0.01086 0.01513 0.0
O580 O 0.50341 0.00998 0.04563 0.0
O581 O 0.51202 0.03094 0.98593 0.0
O582 O 0.52562 0.05769 0.00118 0.0
O583 O 0.53296 0.04295 0.05993 0.0
O584 O 0.51403 0.04746 0.03636 0.0
O585 O 0.56056 0.02517 0.03957 0.0
O586 O 0.55404 0.04712 0.02387 0.0
O587 O 0.55098 0.01576 0.07422 0.0
O588 O 0.52743 0.99225 0.06484 0.0
C589 C 0.49302 0.00575 0.02987 0.0
O590 O 0.53725 0.01198 0.00335 0.0
O591 O 0.53132 0.99354 0.02542 0.0
C592 C 0.52996 0.05253 0.97059 0.0
C593 C 0.5513 0.05439 0.94196 0.0
C594 C 0.55978 0.05834 0.96004 0.0
C595 C 0.5492 0.05732 0.97422 0.0
C596 C 0.52148 0.04947 0.95262 0.0
C597 C 0.53206 0.0504 0.93839 0.0
C598 C 0.51876 0.04832 0.98522 0.0
C599 C 0.52195 0.05183 0.05329 0.0
C600 C 0.56578 0.03994 0.03198 0.0
C601 C 0.53373 0.00263 0.09638 0.0
C602 C 0.51888 0.0088 0.12859 0.0
C603 C 0.53565 0.02057 0.12568 0.0
C604 C 0.54305 0.01748 0.10976 0.0
C605 C 0.51757 0.9902 0.09983 0.0
C606 C 0.51018 0.99329 0.11576 0.0
C607 C 0.53998 0.00099 0.0784 0.0
H608 H 0.57457 0.06171 0.96323 0.0
H609 H 0.55604 0.05959 0.988 0.0
H610 H 0.50664 0.04553 0.94958 0.0
H611 H 0.52511 0.04709 0.92461 0.0
H612 H 0.54264 0.03268 0.13529 0.0
H613 H 0.55567 0.02719 0.10764 0.0
H614 H 0.51024 0.97845 0.08991 0.0
H615 H 0.49741 0.98379 0.11785 0.0
Dy616 Dy 0.26623 0.2537 0.26967 0.0
Dy617 Dy 0.2879 0.29512 0.28779 0.0
C618 C 0.28344 0.26286 0.31139 0.0
O619 O 0.24398 0.26758 0.27211 0.0
O620 O 0.25924 0.28995 0.29545 0.0
O621 O 0.2422 0.23044 0.26702 0.0
O622 O 0.26474 0.22882 0.25226 0.0
O623 O 0.27343 0.29763 0.26098 0.0
O624 O 0.27032 0.2691 0.2461 0.0
O625 O 0.30871 0.28566 0.27307 0.0
O626 O 0.2964 0.25496 0.27275 0.0
O627 O 0.30288 0.32299 0.28587 0.0
O628 O 0.29782 0.31479 0.312 0.0
C629 C 0.24376 0.27988 0.28571 0.0
O630 O 0.26916 0.25361 0.29965 0.0
O631 O 0.29525 0.27732 0.30732 0.0
C632 C 0.251 0.20331 0.26577 0.0
C633 C 0.26049 0.17533 0.28211 0.0
C634 C 0.25486 0.18869 0.29243 0.0
C635 C 0.25026 0.20261 0.28437 0.0
C636 C 0.25541 0.18933 0.25521 0.0
C637 C 0.26015 0.17547 0.2633 0.0
C638 C 0.24979 0.21972 0.25794 0.0
C639 C 0.27079 0.28625 0.24584 0.0
C640 C 0.31019 0.26894 0.27063 0.0
C641 C 0.29598 0.34379 0.30734 0.0
C642 C 0.28134 0.37322 0.31449 0.0
C643 C 0.26965 0.35534 0.30952 0.0
C644 C 0.27691 0.34078 0.30591 0.0
C645 C 0.30775 0.36152 0.31256 0.0
C646 C 0.30048 0.37618 0.31607 0.0
C647 C 0.3034 0.32842 0.30307 0.0
H648 H 0.2547 0.18881 0.30688 0.0
H649 H 0.24696 0.21326 0.29289 0.0
H650 H 0.25619 0.18971 0.24089 0.0
H651 H 0.26463 0.16553 0.25498 0.0
H652 H 0.25486 0.35266 0.30783 0.0
H653 H 0.26762 0.32717 0.30174 0.0
H654 H 0.32252 0.36404 0.31372 0.0
H655 H 0.3098 0.38982 0.3199 0.0
Dy656 Dy 0.53433 0.51041 0.03402 0.0
Dy657 Dy 0.52449 0.55016 0.04017 0.0
C658 C 0.49507 0.51223 0.04261 0.0
O659 O 0.52065 0.51364 0.00702 0.0
O660 O 0.52716 0.54487 0.01087 0.0
O661 O 0.52551 0.48154 0.02392 0.0
O662 O 0.55292 0.49398 0.03833 0.0
O663 O 0.55482 0.5568 0.04014 0.0
O664 O 0.55753 0.53036 0.02452 0.0
O665 O 0.52723 0.54203 0.06801 0.0
O666 O 0.54556 0.52336 0.06257 0.0
O667 O 0.53113 0.5787 0.05162 0.0
O668 O 0.50576 0.5658 0.03375 0.0
C669 C 0.52194 0.52904 0.00037 0.0
O670 O 0.50866 0.50548 0.04682 0.0
O671 O 0.49788 0.52789 0.03634 0.0
C672 C 0.53808 0.46354 0.04247 0.0
C673 C 0.53385 0.43391 0.06275 0.0
C674 C 0.52032 0.44315 0.06114 0.0
C675 C 0.52243 0.45782 0.05117 0.0
C676 C 0.55167 0.45451 0.04417 0.0
C677 C 0.54962 0.43992 0.05421 0.0
C678 C 0.54044 0.47874 0.03151 0.0
C679 C 0.56415 0.54787 0.03082 0.0
C680 C 0.53847 0.53297 0.07387 0.0
C681 C 0.52026 0.59663 0.03184 0.0
C682 C 0.52485 0.62548 0.01064 0.0
C683 C 0.53299 0.61134 0.00692 0.0
C684 C 0.53071 0.59706 0.01741 0.0
C685 C 0.51227 0.61072 0.03571 0.0
C686 C 0.51453 0.625 0.02526 0.0
C687 C 0.51685 0.58113 0.04231 0.0
H688 H 0.50789 0.43887 0.0673 0.0
H689 H 0.51175 0.46459 0.05017 0.0
H690 H 0.56391 0.45874 0.03769 0.0
H691 H 0.56052 0.43345 0.05538 0.0
H692 H 0.54121 0.61133 0.99596 0.0
H693 H 0.53696 0.58626 0.01416 0.0
H694 H 0.50402 0.61055 0.04669 0.0
H695 H 0.50783 0.63545 0.02839 0.0
Dy696 Dy 0.7795 0.29627 0.27696 0.0
Dy697 Dy 0.77103 0.25531 0.28968 0.0
C698 C 0.76494 0.28865 0.3142 0.0
O699 O 0.80749 0.29207 0.28236 0.0
O700 O 0.80026 0.27077 0.3017 0.0
O701 O 0.79272 0.32537 0.2825 0.0
O702 O 0.77382 0.31378 0.25785 0.0
O703 O 0.78672 0.25456 0.26642 0.0
O704 O 0.77995 0.27728 0.25224 0.0
O705 O 0.74492 0.25519 0.27235 0.0
O706 O 0.74893 0.28607 0.27634 0.0
O707 O 0.76089 0.22598 0.28296 0.0
O708 O 0.77263 0.23828 0.31052 0.0
C709 C 0.81258 0.28254 0.29443 0.0
O710 O 0.77788 0.29903 0.30661 0.0
O711 O 0.75801 0.27121 0.30813 0.0
C712 C 0.77329 0.3425 0.27202 0.0
C713 C 0.75306 0.36803 0.27746 0.0
C714 C 0.7548 0.35644 0.29042 0.0
C715 C 0.76473 0.34375 0.28768 0.0
C716 C 0.77165 0.35402 0.25912 0.0
C717 C 0.76163 0.36661 0.26177 0.0
C718 C 0.78316 0.3287 0.26853 0.0
C719 C 0.78599 0.26286 0.25216 0.0
C720 C 0.73822 0.26924 0.27172 0.0
C721 C 0.77897 0.21117 0.29913 0.0
C722 C 0.8015 0.18753 0.29793 0.0
C723 C 0.80771 0.20525 0.29332 0.0
C724 C 0.79656 0.21693 0.29391 0.0
C725 C 0.77275 0.19364 0.30392 0.0
C726 C 0.7839 0.18193 0.30335 0.0
C727 C 0.76696 0.22321 0.29899 0.0
H728 H 0.7486 0.35722 0.30276 0.0
H729 H 0.76564 0.33486 0.29777 0.0
H730 H 0.77794 0.35311 0.24685 0.0
H731 H 0.76033 0.37499 0.25131 0.0
H732 H 0.82125 0.21013 0.28933 0.0
H733 H 0.80161 0.23045 0.29016 0.0
H734 H 0.75917 0.18894 0.3079 0.0
H735 H 0.77857 0.16833 0.30677 0.0
Dy736 Dy 0.04126 0.54715 0.52457 0.0
Dy737 Dy 0.04335 0.52612 0.55987 0.0
C738 C 0.04607 0.50674 0.52087 0.0
O739 O 0.01279 0.53939 0.53159 0.0
O740 O 0.01496 0.51477 0.54517 0.0
O741 O 0.02738 0.54905 0.4987 0.0
O742 O 0.05309 0.56925 0.51002 0.0
O743 O 0.03154 0.54904 0.56815 0.0
O744 O 0.04403 0.5683 0.5486 0.0
O745 O 0.07129 0.54517 0.56047 0.0
O746 O 0.07003 0.54569 0.52998 0.0
O747 O 0.05044 0.52714 0.58869 0.0
O748 O 0.03833 0.50111 0.5716 0.0
C749 C 1.00509 0.52389 0.53716 0.0
O750 O 0.03795 0.51788 0.51378 0.0
O751 O 0.05278 0.50975 0.53816 0.0
C752 C 0.04862 0.55855 0.47898 0.0
C753 C 0.06188 0.54933 0.44669 0.0
C754 C 0.06525 0.54123 0.46208 0.0
C755 C 0.05865 0.54578 0.47808 0.0
C756 C 0.04533 0.56683 0.46379 0.0
C757 C 0.05197 0.56228 0.44771 0.0
C758 C 0.04101 0.56236 0.49563 0.0
C759 C 0.03636 0.56546 0.56338 0.0
C760 C 0.07948 0.54829 0.54611 0.0
C761 C 0.02754 0.50564 0.59961 0.0
C762 C 0.99962 0.50508 0.62155 0.0
C763 C 0.01804 0.50897 0.62942 0.0
C764 C 0.0319 0.50926 0.6185 0.0
C765 C 0.00905 0.50073 0.59179 0.0
C766 C 0.99522 0.50035 0.60267 0.0
C767 C 0.04223 0.50979 0.58812 0.0
H768 H 0.07307 0.53143 0.46181 0.0
H769 H 0.06124 0.53922 0.48973 0.0
H770 H 0.03748 0.57661 0.46429 0.0
H771 H 0.04905 0.56862 0.436 0.0
H772 H 0.0219 0.51286 0.64392 0.0
H773 H 0.0461 0.51329 0.62475 0.0
H774 H 1.00531 0.49803 0.57722 0.0
H775 H 0.98114 0.49705 0.59625 0.0
Dy776 Dy 0.79763 0.7779 0.28983 0.0
Dy777 Dy 0.75696 0.78612 0.28496 0.0
C778 C 0.79399 0.81716 0.28278 0.0
O779 O 0.79004 0.78007 0.31807 0.0
O780 O 0.76968 0.79688 0.31364 0.0
O781 O 0.82654 0.78507 0.30038 0.0
O782 O 0.81383 0.75997 0.28208 0.0
O783 O 0.75304 0.76072 0.29768 0.0
O784 O 0.77594 0.75099 0.28635 0.0
O785 O 0.7603 0.77255 0.25777 0.0
O786 O 0.79176 0.78156 0.26094 0.0
O787 O 0.72767 0.77634 0.27616 0.0
O788 O 0.74003 0.80424 0.28903 0.0
C789 C 0.78025 0.79045 0.32446 0.0
O790 O 0.80316 0.80807 0.29188 0.0
O791 O 0.7766 0.80991 0.27592 0.0
C792 C 0.84475 0.77492 0.27983 0.0
C793 C 0.87388 0.7806 0.25838 0.0
C794 C 0.86324 0.79292 0.25989 0.0
C795 C 0.84879 0.79007 0.27045 0.0
C796 C 0.85527 0.76265 0.27837 0.0
C797 C 0.86963 0.76541 0.26778 0.0
C798 C 0.82918 0.77119 0.29051 0.0
C799 C 0.76043 0.74765 0.29326 0.0
C800 C 0.77578 0.77525 0.2507 0.0
C801 C 0.71008 0.78951 0.29485 0.0
C802 C 0.68177 0.78616 0.31716 0.0
C803 C 0.69713 0.77999 0.32187 0.0
C804 C 0.71116 0.78169 0.31084 0.0
C805 C 0.69483 0.79564 0.29008 0.0
C806 C 0.68083 0.794 0.3011 0.0
C807 C 0.72474 0.79144 0.28309 0.0
H808 H 0.86616 0.80486 0.25305 0.0
H809 H 0.84073 0.79967 0.27124 0.0
H810 H 0.85225 0.75075 0.28531 0.0
H811 H 0.87718 0.7554 0.26672 0.0
H812 H 0.69846 0.77408 0.33421 0.0
H813 H 0.72287 0.77694 0.31481 0.0
H814 H 0.69371 0.80169 0.27779 0.0
H815 H 0.66914 0.79867 0.29688 0.0
Dy816 Dy 0.79444 0.28025 0.76334 0.0
Dy817 Dy 0.7726 0.28451 0.7985 0.0
C818 C 0.79875 0.31887 0.78506 0.0
O819 O 0.81509 0.28279 0.7878 0.0
O820 O 0.79545 0.27349 0.80846 0.0
O821 O 0.81703 0.29053 0.74848 0.0
O822 O 0.79668 0.2646 0.73846 0.0
O823 O 0.76196 0.25511 0.78668 0.0
O824 O 0.78553 0.25239 0.77082 0.0
O825 O 0.75697 0.29367 0.77628 0.0
O826 O 0.7658 0.27925 0.75174 0.0
O827 O 0.74839 0.27744 0.81199 0.0
O828 O 0.77292 0.29812 0.82534 0.0
C829 C 0.81193 0.27703 0.80343 0.0
O830 O 0.79575 0.30961 0.76877 0.0
O831 O 0.79415 0.31079 0.79908 0.0
C832 C 0.80777 0.28312 0.71715 0.0
C833 C 0.80063 0.29233 0.68248 0.0
C834 C 0.79084 0.29664 0.69644 0.0
C835 C 0.79442 0.29211 0.71363 0.0
C836 C 0.81766 0.27884 0.70338 0.0
C837 C 0.81413 0.28344 0.68613 0.0
C838 C 0.81052 0.27738 0.7349 0.0
C839 C 0.77075 0.24519 0.77798 0.0
C840 C 0.7547 0.28767 0.75883 0.0
C841 C 0.75773 0.27726 0.84285 0.0
C842 C 0.76665 0.26102 0.87295 0.0
C843 C 0.76446 0.25168 0.85531 0.0
C844 C 0.76017 0.25977 0.8404 0.0
C845 C 0.75901 0.28629 0.86042 0.0
C846 C 0.76341 0.27821 0.8754 0.0
C847 C 0.75711 0.28715 0.82729 0.0
H848 H 0.78016 0.30321 0.694 0.0
H849 H 0.78657 0.29536 0.72414 0.0
H850 H 0.82796 0.27182 0.70594 0.0
H851 H 0.82202 0.28014 0.6757 0.0
H852 H 0.76656 0.23829 0.853 0.0
H853 H 0.75955 0.25268 0.82693 0.0
H854 H 0.75751 0.29994 0.86253 0.0
H855 H 0.76515 0.28581 0.88883 0.0
Dy856 Dy 0.77005 0.76034 0.77776 0.0
Dy857 Dy 0.79165 0.80186 0.79598 0.0
C858 C 0.78678 0.76952 0.81953 0.0
O859 O 0.74777 0.77419 0.77987 0.0
O860 O 0.76284 0.79685 0.80307 0.0
O861 O 0.7458 0.73722 0.7745 0.0
O862 O 0.76909 0.73515 0.76114 0.0
O863 O 0.77772 0.80432 0.76885 0.0
O864 O 0.77436 0.77561 0.75416 0.0
O865 O 0.81249 0.79261 0.78128 0.0
O866 O 0.80029 0.76187 0.78091 0.0
O867 O 0.80613 0.82994 0.79431 0.0
O868 O 0.80185 0.82125 0.82037 0.0
C869 C 0.74746 0.7867 0.79322 0.0
O870 O 0.77252 0.7604 0.80772 0.0
O871 O 0.79874 0.7839 0.81551 0.0
C872 C 0.75435 0.7101 0.77468 0.0
C873 C 0.76271 0.68209 0.79186 0.0
C874 C 0.75897 0.69677 0.80205 0.0
C875 C 0.7549 0.71068 0.79355 0.0
C876 C 0.75695 0.69493 0.76435 0.0
C877 C 0.76109 0.68101 0.77286 0.0
C878 C 0.7537 0.72628 0.76621 0.0
C879 C 0.7751 0.79281 0.75379 0.0
C880 C 0.81402 0.77592 0.77878 0.0
C881 C 0.79886 0.84993 0.81634 0.0
C882 C 0.78277 0.87783 0.82571 0.0
C883 C 0.77183 0.8605 0.81725 0.0
C884 C 0.77982 0.84672 0.81254 0.0
C885 C 0.80989 0.86711 0.8249 0.0
C886 C 0.8019 0.88105 0.82947 0.0
C887 C 0.80688 0.8351 0.8116 0.0
H888 H 0.75991 0.69787 0.81668 0.0
H889 H 0.75301 0.72229 0.80187 0.0
H890 H 0.75675 0.69433 0.74981 0.0
H891 H 0.76412 0.66999 0.76464 0.0
H892 H 0.75712 0.85772 0.8138 0.0
H893 H 0.77115 0.83356 0.80579 0.0
H894 H 0.82463 0.86975 0.82795 0.0
H895 H 0.81063 0.89431 0.83594 0.0
Dy896 Dy 0.55117 0.542 0.54522 0.0
Dy897 Dy 0.50956 0.52026 0.52761 0.0
C898 C 0.54214 0.52647 0.50355 0.0
O899 O 0.54166 0.56254 0.53077 0.0
O900 O 0.51063 0.55023 0.52971 0.0
O901 O 0.57795 0.55987 0.54328 0.0
O902 O 0.57195 0.55023 0.56867 0.0
O903 O 0.51127 0.52037 0.55759 0.0
O904 O 0.53264 0.54797 0.56497 0.0
O905 O 0.52193 0.49725 0.53204 0.0
O906 O 0.54772 0.51336 0.55177 0.0
O907 O 0.48064 0.5129 0.52981 0.0
O908 O 0.49001 0.5031 0.50538 0.0
C909 C 0.52488 0.56397 0.52805 0.0
O910 O 0.5533 0.52732 0.51833 0.0
O911 O 0.52547 0.52763 0.50466 0.0
C912 C 0.6006 0.55114 0.56006 0.0
C913 C 0.63054 0.53664 0.56104 0.0
C914 C 0.61331 0.52637 0.55165 0.0
C915 C 0.59849 0.53354 0.5512 0.0
C916 C 0.61772 0.56158 0.56938 0.0
C917 C 0.63267 0.55437 0.56984 0.0
C918 C 0.58469 0.55818 0.55945 0.0
C919 C 0.51941 0.53495 0.5694 0.0
C920 C 0.53617 0.49769 0.54382 0.0
C921 C 0.46271 0.51172 0.50246 0.0
C922 C 0.436 0.52728 0.48827 0.0
C923 C 0.45463 0.53756 0.49197 0.0
C924 C 0.46785 0.52981 0.49894 0.0
C925 C 0.44444 0.50101 0.4977 0.0
C926 C 0.43118 0.50869 0.49051 0.0
C927 C 0.4759 0.50491 0.51308 0.0
H928 H 0.61133 0.51283 0.54442 0.0
H929 H 0.58533 0.52534 0.54389 0.0
H930 H 0.61949 0.5752 0.57629 0.0
H931 H 0.6458 0.56254 0.57723 0.0
H932 H 0.4589 0.55194 0.49068 0.0
H933 H 0.48194 0.53827 0.50254 0.0
H934 H 0.44028 0.48698 0.50029 0.0
H935 H 0.41703 0.5003 0.4875 0.0
Dy936 Dy 0.00795 0.52943 0.03532 0.0
Dy937 Dy 0.05044 0.53705 0.02512 0.0
C938 C 0.01885 0.54349 0.99798 0.0
O939 O 0.01149 0.50131 0.02935 0.0
O940 O 0.03523 0.5081 0.01227 0.0
O941 O 0.97857 0.51723 0.02836 0.0
O942 O 0.98965 0.53416 0.05423 0.0
O943 O 0.04846 0.5207 0.04772 0.0
O944 O 0.02576 0.52919 0.06084 0.0
O945 O 0.04965 0.56375 0.04098 0.0
O946 O 0.01856 0.55978 0.03654 0.0
O947 O 0.07959 0.54703 0.03412 0.0
O948 O 0.06963 0.53485 0.00615 0.0
C949 C 0.02204 0.49605 0.01826 0.0
O950 O 1.00655 0.53273 0.00603 0.0
O951 O 0.03635 0.549 0.00449 0.0
C952 C 0.96161 0.53625 0.04007 0.0
C953 C 0.93654 0.55709 0.03632 0.0
C954 C 0.95448 0.56351 0.03191 0.0
C955 C 0.96686 0.55317 0.03374 0.0
C956 C 0.94372 0.52963 0.04424 0.0
C957 C 0.93129 0.53991 0.04235 0.0
C958 C 0.97488 0.52576 0.0429 0.0
C959 C 0.03949 0.52204 0.06152 0.0
C960 C 0.03546 0.57044 0.04126 0.0
C961 C 0.09621 0.52893 0.01992 0.0
C962 C 0.12017 0.50676 0.02204 0.0
C963 C 0.10702 0.50608 0.03404 0.0
C964 C 0.0951 0.51697 0.03293 0.0
C965 C 0.10918 0.52954 0.00784 0.0
C966 C 0.12102 0.51853 0.00884 0.0
C967 C 0.08382 0.54063 0.01877 0.0
H968 H 0.95911 0.57673 0.02744 0.0
H969 H 0.98064 0.55851 0.03044 0.0
H970 H 0.93941 0.51657 0.04908 0.0
H971 H 0.91752 0.53436 0.04556 0.0
H972 H 0.10583 0.49699 0.0442 0.0
H973 H 0.08504 0.51607 0.04228 0.0
H974 H 0.11021 0.53861 0.99766 0.0
H975 H 0.13107 0.51947 -0.00051 0.0
H976 H 0.012 0.2051 0.94757 0.0
H977 H 0.01388 0.17755 0.95976 0.0
H978 H 0.99356 0.19523 0.00807 0.0
H979 H 0.99192 0.22334 0.99596 0.0
H980 H 0.02119 0.18025 0.01664 0.0
H981 H 0.97248 0.13274 0.96141 0.0
H982 H 0.99117 0.1477 0.95286 0.0
H983 H 0.97538 0.15699 0.96431 0.0
C984 C 0.00785 0.20328 0.96081 0.0
C985 C 1.00165 0.21666 0.97063 0.0
C986 C 0.00882 0.18726 0.96775 0.0
C987 C 1.00343 0.18379 0.98473 0.0
C988 C 0.99765 0.1973 0.99486 0.0
H989 H 0.9865 0.07291 0.0161 0.0
H990 H 0.98213 0.10144 0.00748 0.0
C991 C 0.99671 0.21346 0.9879 0.0
C992 C 1.00417 0.16623 0.99179 0.0
H993 H 0.99105 0.11958 0.98017 0.0
C994 C 0.01447 0.16701 0.00868 0.0
C995 C 0.99519 0.14869 0.98175 0.0
C996 C 0.98278 0.14642 0.96418 0.0
C997 C 0.01653 0.15106 0.01539 0.0
C998 C 0.00841 0.13359 0.00486 0.0
C999 C 0.99758 0.13279 0.98828 0.0
C1000 C 0.01109 0.11609 0.01064 0.0
C1001 C 0.02721 0.15316 0.03393 0.0
C1002 C 0.0288 0.11432 0.01517 0.0
C1003 C 0.03134 0.09798 0.02022 0.0
C1004 C 0.01626 0.08264 0.02075 0.0
C1005 C 0.99851 0.08432 0.01602 0.0
C1006 C 0.99598 0.10073 0.01101 0.0
H1007 H 0.02716 0.1659 0.04246 0.0
H1008 H 0.02152 0.1414 0.04108 0.0
H1009 H 0.04172 0.15398 0.03249 0.0
H1010 H 0.04081 0.12554 0.01453 0.0
H1011 H 0.04525 0.09735 0.02352 0.0
H1012 H 0.12216 0.80652 0.13386 0.0
H1013 H 0.14932 0.8053 0.15353 0.0
H1014 H 0.12047 0.80752 0.19996 0.0
H1015 H 0.09315 0.80801 0.18034 0.0
H1016 H 0.17223 0.82608 0.18186 0.0
H1017 H 0.13458 0.76195 0.20474 0.0
H1018 H 0.12472 0.77131 0.1866 0.0
H1019 H 0.12435 0.77992 0.20988 0.0
C1020 C 0.12167 0.80697 0.14829 0.0
C1021 C 0.10535 0.80717 0.15545 0.0
C1022 C 0.13722 0.8062 0.15955 0.0
C1023 C 0.13687 0.80572 0.17824 0.0
C1024 C 0.12098 0.80717 0.18555 0.0
H1025 H 0.21474 0.79841 0.2689 0.0
H1026 H 0.18939 0.80354 0.24943 0.0
C1027 C 0.10538 0.80766 0.17429 0.0
C1028 C 0.15284 0.80326 0.19001 0.0
H1029 H 0.16444 0.77692 0.22057 0.0
C1030 C 0.1705 0.81527 0.19023 0.0
C1031 C 0.15077 0.78904 0.20092 0.0
C1032 C 0.13263 0.77471 0.2004 0.0
C1033 C 0.18592 0.81371 0.20128 0.0
C1034 C 0.1837 0.79977 0.21244 0.0
C1035 C 0.16612 0.78773 0.21218 0.0
C1036 C 0.19947 0.79719 0.22427 0.0
C1037 C 0.20444 0.82717 0.20116 0.0
C1038 C 0.21353 0.79173 0.21665 0.0
C1039 C 0.22794 0.78859 0.22773 0.0
C1040 C 0.2287 0.79092 0.24675 0.0
C1041 C 0.21465 0.79651 0.25435 0.0
C1042 C 0.20013 0.79945 0.24322 0.0
H1043 H 0.20326 0.83929 0.19487 0.0
H1044 H 0.2118 0.83183 0.21515 0.0
H1045 H 0.21291 0.82042 0.19325 0.0
H1046 H 0.21324 0.78965 0.20208 0.0
H1047 H 0.23851 0.78438 0.22136 0.0
H1048 H 0.53291 0.82569 0.4969 0.0
H1049 H 0.5361 0.85779 0.50835 0.0
H1050 H 0.48723 0.85525 0.47281 0.0
H1051 H 0.48431 0.82363 0.46111 0.0
H1052 H 0.51291 0.88456 0.46954 0.0
H1053 H 0.51101 0.8829 0.54303 0.0
H1054 H 0.52867 0.87435 0.53457 0.0
H1055 H 0.50491 0.86236 0.52677 0.0
C1056 C 0.52262 0.83186 0.49184 0.0
C1057 C 0.50833 0.82191 0.47806 0.0
C1058 C 0.52444 0.8503 0.49842 0.0
C1059 C 0.51184 0.85919 0.4916 0.0
C1060 C 0.49724 0.84898 0.47834 0.0
H1061 H 0.4993 0.9657 0.53453 0.0
H1062 H 0.49655 0.93318 0.52652 0.0
C1063 C 0.49553 0.83074 0.47168 0.0
C1064 C 0.51424 0.87929 0.49719 0.0
H1065 H 0.51887 0.91226 0.53359 0.0
C1066 C 0.51419 0.89053 0.48358 0.0
C1067 C 0.51572 0.88733 0.51547 0.0
C1068 C 0.51491 0.87611 0.5308 0.0
C1069 C 0.51556 0.90927 0.48762 0.0
C1070 C 0.51756 0.91744 0.50592 0.0
C1071 C 0.51751 0.90621 0.51956 0.0
C1072 C 0.51946 0.93748 0.51107 0.0
C1073 C 0.51427 0.91996 0.47207 0.0
C1074 C 0.53339 0.95104 0.50534 0.0
C1075 C 0.53487 0.96969 0.50975 0.0
C1076 C 0.52262 0.97546 0.52025 0.0
C1077 C 0.50892 0.9619 0.52631 0.0
C1078 C 0.50738 0.94321 0.52179 0.0
H1079 H 0.50727 0.91086 0.45931 0.0
H1080 H 0.5067 0.93013 0.47504 0.0
H1081 H 0.52833 0.92734 0.46972 0.0
H1082 H 0.54328 0.94723 0.49752 0.0
H1083 H 0.54583 0.97961 0.50506 0.0
H1084 H 0.51993 0.27301 0.68289 0.0
H1085 H 0.49377 0.2735 0.69905 0.0
H1086 H 0.47769 0.30805 0.66307 0.0
H1087 H 0.50401 0.30772 0.64677 0.0
H1088 H 0.48497 0.30591 0.71628 0.0
H1089 H 0.43071 0.26327 0.66146 0.0
H1090 H 0.45446 0.26341 0.66227 0.0
H1091 H 0.44751 0.28238 0.65541 0.0
C1092 C 0.51087 0.28075 0.67837 0.0
C1093 C 0.51407 0.29029 0.66347 0.0
C1094 C 0.49592 0.28102 0.68766 0.0
C1095 C 0.48367 0.29066 0.68218 0.0
C1096 C 0.48685 0.30035 0.66741 0.0
H1097 H 0.38027 0.29406 0.72201 0.0
H1098 H 0.40642 0.29817 0.70491 0.0
C1099 C 0.50194 0.30021 0.65816 0.0
C1100 C 0.46768 0.29053 0.69208 0.0
H1101 H 0.42095 0.27365 0.68839 0.0
C1102 C 0.47096 0.29892 0.71018 0.0
C1103 C 0.44941 0.28152 0.68406 0.0
C1104 C 0.44517 0.272 0.66476 0.0
C1105 C 0.45647 0.29852 0.7205 0.0
C1106 C 0.43819 0.28898 0.71269 0.0
C1107 C 0.43491 0.2809 0.69444 0.0
C1108 C 0.42239 0.2868 0.72334 0.0
C1109 C 0.46092 0.30858 0.7396 0.0
C1110 C 0.42245 0.27884 0.73933 0.0
C1111 C 0.40762 0.2767 0.74929 0.0
C1112 C 0.39215 0.28221 0.74339 0.0
C1113 C 0.39201 0.28994 0.7272 0.0
C1114 C 0.40693 0.29217 0.71729 0.0
H1115 H 0.47403 0.31976 0.7414 0.0
H1116 H 0.44982 0.3145 0.74326 0.0
H1117 H 0.46252 0.29893 0.74916 0.0
H1118 H 0.43397 0.27415 0.74409 0.0
H1119 H 0.4084 0.27087 0.76174 0.0
H1120 H 0.04784 0.80414 0.64209 0.0
H1121 H 0.04778 0.83034 0.62646 0.0
H1122 H 0.99907 0.83472 0.64883 0.0
H1123 H 0.99904 0.80839 0.66468 0.0
H1124 H 0.99847 0.83634 0.60975 0.0
H1125 H 0.0608 0.88463 0.65092 0.0
H1126 H 0.06338 0.86286 0.64228 0.0
H1127 H 0.04785 0.86405 0.65856 0.0
C1128 C 0.0371 0.81065 0.64375 0.0
C1129 C 0.02346 0.80416 0.65471 0.0
C1130 C 0.03715 0.82571 0.63485 0.0
C1131 C 0.02356 0.83464 0.63663 0.0
C1132 C 0.00975 0.82809 0.64734 0.0
H1133 H 0.02643 0.93916 0.59873 0.0
H1134 H 0.0237 0.9143 0.61699 0.0
C1135 C 0.00977 0.81306 0.65641 0.0
C1136 C 0.02373 0.85061 0.62702 0.0
H1137 H 0.04963 0.89387 0.62384 0.0
C1138 C 0.00957 0.84897 0.61292 0.0
C1139 C 0.03814 0.86715 0.63124 0.0
C1140 C 0.05335 0.86993 0.64667 0.0
C1141 C 0.00976 0.86321 0.60257 0.0
C1142 C 0.02455 0.87948 0.60635 0.0
C1143 C 0.03838 0.88135 0.62084 0.0
C1144 C 0.0261 0.89457 0.59519 0.0
C1145 C 0.99414 0.86074 0.58765 0.0
C1146 C 0.02863 0.89185 0.57691 0.0
C1147 C 0.03046 0.9061 0.56646 0.0
C1148 C 0.02976 0.92346 0.57403 0.0
C1149 C 0.02729 0.92612 0.59243 0.0
C1150 C 0.02559 0.91187 0.60289 0.0
H1151 H 0.98189 0.84954 0.58924 0.0
H1152 H 0.99014 0.87354 0.58734 0.0
H1153 H 0.99861 0.85728 0.5744 0.0
H1154 H 0.02945 0.87873 0.57076 0.0
H1155 H 0.03275 0.90355 0.55251 0.0
H1156 H 0.49402 0.82168 0.81851 0.0
H1157 H 0.46135 0.81802 0.80972 0.0
H1158 H 0.44728 0.77585 0.84359 0.0
H1159 H 0.47999 0.77968 0.85272 0.0
H1160 H 0.43257 0.78972 0.79278 0.0
H1161 H 0.41874 0.80945 0.8622 0.0
H1162 H 0.44173 0.81255 0.85663 0.0
H1163 H 0.4281 0.79045 0.86029 0.0
C1164 C 0.48401 0.81153 0.82404 0.0
C1165 C 0.48978 0.80104 0.83643 0.0
C1166 C 0.46525 0.80946 0.81899 0.0
C1167 C 0.45166 0.79693 0.82624 0.0
C1168 C 0.45737 0.78598 0.83813 0.0
H1169 H 0.33129 0.76744 0.81377 0.0
H1170 H 0.36379 0.76983 0.82176 0.0
C1171 C 0.47615 0.78806 0.84321 0.0
C1172 C 0.43164 0.79543 0.82138 0.0
H1173 H 0.39286 0.7984 0.83947 0.0
C1174 C 0.42394 0.79169 0.80302 0.0
C1175 C 0.42019 0.798 0.83464 0.0
C1176 C 0.42761 0.80301 0.85453 0.0
C1177 C 0.40525 0.79014 0.79762 0.0
C1178 C 0.39382 0.79271 0.81088 0.0
C1179 C 0.4015 0.7964 0.82924 0.0
C1180 C 0.37389 0.79152 0.80604 0.0
C1181 C 0.39781 0.7853 0.77773 0.0
C1182 C 0.36849 0.80312 0.79474 0.0
C1183 C 0.34981 0.80182 0.79015 0.0
C1184 C 0.33596 0.78894 0.79679 0.0
C1185 C 0.34144 0.77755 0.80835 0.0
C1186 C 0.36011 0.77889 0.81295 0.0
H1187 H 0.40669 0.77896 0.76996 0.0
H1188 H 0.3837 0.77574 0.77561 0.0
H1189 H 0.39725 0.79791 0.77212 0.0
H1190 H 0.37876 0.81328 0.7895 0.0
H1191 H 0.34625 0.81087 0.78127 0.0
H1192 H 0.51139 0.20685 0.1285 0.0
H1193 H 0.51215 0.17885 0.11022 0.0
H1194 H 0.49471 0.14825 0.15333 0.0
H1195 H 0.49381 0.1763 0.1718 0.0
H1196 H 0.53433 0.15712 0.11902 0.0
H1197 H 0.46087 0.11654 0.10859 0.0
H1198 H 0.46832 0.14085 0.11618 0.0
H1199 H 0.47045 0.12521 0.13181 0.0
C1200 C 0.5074 0.19416 0.13407 0.0
C1201 C 0.50249 0.19396 0.15171 0.0
C1202 C 0.50792 0.17811 0.12356 0.0
C1203 C 0.50341 0.16133 0.13028 0.0
C1204 C 0.49798 0.16092 0.14767 0.0
H1205 H 0.53704 0.06602 0.08855 0.0
H1206 H 0.53227 0.09193 0.10745 0.0
C1207 C 0.4975 0.17703 0.15826 0.0
C1208 C 0.5055 0.14463 0.11943 0.0
H1209 H 0.48207 0.10141 0.09855 0.0
C1210 C 0.52289 0.14494 0.11457 0.0
C1211 C 0.49058 0.12874 0.11344 0.0
C1212 C 0.47145 0.12776 0.1176 0.0
C1213 C 0.52578 0.12988 0.10406 0.0
C1214 C 0.51093 0.11387 0.09833 0.0
C1215 C 0.4935 0.11358 0.10304 0.0
C1216 C 0.51323 0.09751 0.08708 0.0
C1217 C 0.54466 0.13139 0.09884 0.0
C1218 C 0.50378 0.09161 0.06943 0.0
C1219 C 0.50648 0.07675 0.05853 0.0
C1220 C 0.5186 0.06729 0.06508 0.0
C1221 C 0.5277 0.07297 0.08294 0.0
C1222 C 0.52504 0.08788 0.09379 0.0
H1223 H 0.55334 0.14582 0.10063 0.0
H1224 H 0.55162 0.12386 0.10757 0.0
H1225 H 0.54374 0.12528 0.08452 0.0
H1226 H 0.49454 0.09873 0.06393 0.0
H1227 H 0.49915 0.07278 0.04491 0.0
H1228 H 0.10253 0.31507 0.35221 0.0
H1229 H 0.13187 0.31433 0.34191 0.0
H1230 H 0.10421 0.26494 0.30533 0.0
H1231 H 0.07488 0.26565 0.31547 0.0
H1232 H 0.1502 0.28787 0.34393 0.0
H1233 H 0.13445 0.29536 0.27193 0.0
H1234 H 0.12053 0.30011 0.28889 0.0
H1235 H 0.11794 0.27695 0.27923 0.0
C1236 C 0.10261 0.30417 0.34179 0.0
C1237 C 0.08614 0.29051 0.33462 0.0
C1238 C 0.11949 0.30371 0.33594 0.0
C1239 C 0.12045 0.28971 0.3226 0.0
C1240 C 0.10399 0.27614 0.31533 0.0
H1241 H 0.20853 0.25906 0.27141 0.0
H1242 H 0.17931 0.2617 0.28051 0.0
C1243 C 0.08713 0.27653 0.32123 0.0
C1244 C 0.13865 0.28888 0.31684 0.0
H1245 H 0.16178 0.28735 0.27996 0.0
C1246 C 0.15274 0.28789 0.32995 0.0
C1247 C 0.14215 0.28877 0.29858 0.0
C1248 C 0.12805 0.29052 0.28385 0.0
C1249 C 0.16984 0.28638 0.32533 0.0
C1250 C 0.17339 0.28633 0.30706 0.0
C1251 C 0.15929 0.28737 0.29396 0.0
C1252 C 0.19147 0.28504 0.30125 0.0
C1253 C 0.18369 0.2842 0.34008 0.0
C1254 C 0.20833 0.29744 0.30948 0.0
C1255 C 0.22515 0.29589 0.30434 0.0
C1256 C 0.22571 0.28202 0.29061 0.0
C1257 C 0.2088 0.26992 0.28204 0.0
C1258 C 0.19198 0.27143 0.28725 0.0
H1259 H 0.17703 0.27891 0.35169 0.0
H1260 H 0.19133 0.27477 0.33492 0.0
H1261 H 0.1937 0.29771 0.34523 0.0
H1262 H 0.20854 0.30844 0.3199 0.0
H1263 H 0.23776 0.30559 0.31122 0.0
H1264 H 0.98527 0.03239 0.2357 0.0
H1265 H 0.99873 0.03469 0.20735 0.0
H1266 H 0.95193 0.04873 0.18285 0.0
H1267 H 0.93864 0.04687 0.21107 0.0
H1268 H 0.98546 0.01471 0.17452 0.0
H1269 H 0.99325 0.08729 0.16838 0.0
H1270 H 0.98864 0.07806 0.18911 0.0
H1271 H 0.97019 0.07533 0.17114 0.0
C1272 C 0.97798 0.03626 0.22438 0.0
C1273 C 0.96088 0.03952 0.22579 0.0
C1274 C 0.98567 0.03751 0.20813 0.0
C1275 C 0.97651 0.04216 0.19296 0.0
C1276 C 0.95954 0.04559 0.19442 0.0
H1277 H 0.98566 0.0146 0.07967 0.0
H1278 H 0.9773 0.01639 0.1103 0.0
C1279 C 0.95188 0.04439 0.21062 0.0
C1280 C 0.98404 0.04234 0.17529 0.0
H1281 H 0.99451 0.06812 0.1413 0.0
C1282 C 0.9876 0.02647 0.16735 0.0
C1283 C 0.98713 0.05773 0.16596 0.0
C1284 C 0.98479 0.07563 0.17417 0.0
C1285 C 0.99353 0.02535 0.15017 0.0
C1286 C 0.9956 0.04038 0.1404 0.0
C1287 C 0.99268 0.05648 0.14861 0.0
C1288 C 1.00057 0.03957 0.12159 0.0
C1289 C 0.99767 0.00808 0.14276 0.0
C1290 C 0.01609 0.05241 0.11744 0.0
C1291 C 0.02083 0.05155 0.0998 0.0
C1292 C 0.0101 0.03785 0.08588 0.0
C1293 C 0.99436 0.02524 0.09003 0.0
C1294 C 0.98961 0.02616 0.10762 0.0
H1295 H 1.00093 1.00046 0.15378 0.0
H1296 H 0.98542 0.99905 0.13371 0.0
H1297 H 0.0094 0.0111 0.13482 0.0
H1298 H 0.02471 0.06299 0.12791 0.0
H1299 H 0.03301 0.06152 0.09714 0.0
H1300 H 0.30266 0.66384 0.49349 0.0
H1301 H 0.29589 0.67373 0.46413 0.0
H1302 H 0.28514 0.72121 0.49161 0.0
H1303 H 0.29159 0.71141 0.52083 0.0
H1304 H 0.25857 0.68259 0.45437 0.0
H1305 H 0.32252 0.73826 0.45289 0.0
H1306 H 0.32212 0.71919 0.46509 0.0
H1307 H 0.31346 0.73725 0.47416 0.0
C1308 C 0.29912 0.67652 0.49324 0.0
C1309 C 0.29758 0.68684 0.50939 0.0
C1310 C 0.29522 0.68209 0.47652 0.0
C1311 C 0.29012 0.69819 0.47586 0.0
C1312 C 0.28919 0.7088 0.49196 0.0
H1313 H 0.2578 0.76465 0.40346 0.0
H1314 H 0.26687 0.75025 0.42883 0.0
C1315 C 0.29283 0.70315 0.5086 0.0
C1316 C 0.28449 0.70352 0.45842 0.0
H1317 H 0.29662 0.73694 0.43193 0.0
C1318 C 0.26693 0.69427 0.44921 0.0
C1319 C 0.29546 0.71885 0.45201 0.0
C1320 C 0.31452 0.72896 0.46143 0.0
C1321 C 0.25968 0.70053 0.43408 0.0
C1322 C 0.2705 0.71618 0.42789 0.0
C1323 C 0.28833 0.725 0.43678 0.0
C1324 C 0.26343 0.72414 0.41267 0.0
C1325 C 0.24022 0.69087 0.42541 0.0
C1326 C 0.25819 0.7141 0.39524 0.0
C1327 C 0.25265 0.72219 0.38075 0.0
C1328 C 0.25253 0.74055 0.3834 0.0
C1329 C 0.25743 0.75042 0.40098 0.0
C1330 C 0.26282 0.74227 0.41546 0.0
H1331 H 0.23237 0.68207 0.43445 0.0
H1332 H 0.23282 0.70083 0.42184 0.0
H1333 H 0.2405 0.68202 0.41277 0.0
H1334 H 0.25883 0.70017 0.39275 0.0
H1335 H 0.24881 0.71417 0.36741 0.0
H1336 H 0.65003 0.99456 0.68962 0.0
H1337 H 0.62797 0.99043 0.66238 0.0
H1338 H 0.58365 0.98282 0.69486 0.0
H1339 H 0.60558 0.98717 0.72217 0.0
H1340 H 0.59196 0.96444 0.64525 0.0
H1341 H 0.58884 0.03282 0.67563 0.0
H1342 H 0.60637 0.02293 0.68384 0.0
H1343 H 0.58346 0.01481 0.68933 0.0
C1344 C 0.63553 0.99137 0.69089 0.0
C1345 C 0.62955 0.99161 0.70803 0.0
C1346 C 0.62295 0.98901 0.67533 0.0
C1347 C 0.60431 0.98672 0.67676 0.0
C1348 C 0.59805 0.98484 0.69359 0.0
H1349 H 0.52882 0.01701 0.59875 0.0
H1350 H 0.54037 0.00518 0.6251 0.0
C1351 C 0.6106 0.98734 0.70915 0.0
C1352 C 0.59218 0.98943 0.66141 0.0
H1353 H 0.57262 0.02105 0.64675 0.0
C1354 C 0.58751 0.97668 0.64559 0.0
C1355 C 0.58645 0.00546 0.662 0.0
C1356 C 0.59159 0.0199 0.67853 0.0
C1357 C 0.57747 0.97972 0.63011 0.0
C1358 C 0.5724 0.99611 0.63048 0.0
C1359 C 0.57649 0.00849 0.64655 0.0
C1360 C 0.56447 0.00164 0.614 0.0
C1361 C 0.57254 0.96546 0.61349 0.0
C1362 C 0.57435 0.00381 0.59922 0.0
C1363 C 0.56787 0.01059 0.58423 0.0
C1364 C 0.55144 0.01554 0.58382 0.0
C1365 C 0.54155 0.01339 0.59867 0.0
C1366 C 0.54805 0.00652 0.61367 0.0
H1367 H 0.57164 0.95167 0.61715 0.0
H1368 H 0.55924 0.96506 0.60572 0.0
H1369 H 0.5834 0.96875 0.60458 0.0
H1370 H 0.58735 0.00069 0.59943 0.0
H1371 H 0.57589 0.01212 0.57307 0.0
H1372 H 0.26718 0.36072 0.97915 0.0
H1373 H 0.26719 0.35052 0.94708 0.0
H1374 H 0.28226 0.30313 0.96095 0.0
H1375 H 0.28325 0.31385 0.99311 0.0
H1376 H 0.30215 0.31648 0.93754 0.0
H1377 H 0.23107 0.31338 0.91122 0.0
H1378 H 0.24346 0.3358 0.92248 0.0
H1379 H 0.23901 0.31679 0.93515 0.0
C1380 C 0.2702 0.34797 0.97534 0.0
C1381 C 0.27509 0.33803 0.9887 0.0
C1382 C 0.27011 0.34207 0.95693 0.0
C1383 C 0.27439 0.32581 0.95137 0.0
C1384 C 0.27888 0.31569 0.96474 0.0
H1385 H 0.25333 0.27513 0.83826 0.0
H1386 H 0.25277 0.28331 0.87057 0.0
C1387 C 0.27935 0.32178 0.98317 0.0
C1388 C 0.27516 0.31983 0.9318 0.0
H1389 H 0.25148 0.31255 0.88916 0.0
C1390 C 0.29097 0.31547 0.927 0.0
C1391 C 0.26054 0.31821 0.91791 0.0
C1392 C 0.24251 0.3211 0.92197 0.0
C1393 C 0.29263 0.30977 0.90889 0.0
C1394 C 0.27842 0.30907 0.89491 0.0
C1395 C 0.26254 0.31325 0.89973 0.0
C1396 C 0.2794 0.30361 0.87528 0.0
C1397 C 0.30943 0.30403 0.90511 0.0
C1398 C 0.29457 0.31215 0.86692 0.0
C1399 C 0.29511 0.30713 0.84843 0.0
C1400 C 0.28025 0.29384 0.83775 0.0
C1401 C 0.26502 0.28544 0.84607 0.0
C1402 C 0.26466 0.29016 0.86459 0.0
H1403 H 0.31561 0.29955 0.91719 0.0
H1404 H 0.30612 0.2927 0.89365 0.0
H1405 H 0.31995 0.31584 0.90165 0.0
H1406 H 0.30589 0.32298 0.87458 0.0
H1407 H 0.30692 0.31407 0.84238 0.0
H1408 H 0.94741 0.04161 0.33775 0.0
H1409 H 0.95833 0.04258 0.36974 0.0
H1410 H 1.00549 0.02677 0.35483 0.0
H1411 H 0.99403 0.02478 0.32279 0.0
H1412 H 0.99268 0.00799 0.37898 0.0
H1413 H 0.99633 0.07923 0.40431 0.0
H1414 H 0.97359 0.06676 0.39376 0.0
H1415 H 0.99236 0.07062 0.38045 0.0
C1416 C 0.96026 0.03863 0.34131 0.0
C1417 C 0.96991 0.03324 0.32771 0.0
C1418 C 0.96658 0.03928 0.35967 0.0
C1419 C 0.98299 0.0351 0.36491 0.0
C1420 C 0.99282 0.0301 0.35128 0.0
H1421 H 0.03588 0.05897 0.47721 0.0
H1422 H 0.02711 0.05878 0.44495 0.0
C1423 C 0.9863 0.02905 0.33292 0.0
C1424 C 0.98941 0.03493 0.38444 0.0
H1425 H 0.99754 0.05966 0.42677 0.0
C1426 C 0.99389 0.0194 0.38938 0.0
C1427 C 0.99131 0.04984 0.39814 0.0
C1428 C 0.98834 0.06761 0.39387 0.0
C1429 C 0.99999 0.01827 0.40746 0.0
C1430 C 1.00093 0.03278 0.42129 0.0
C1431 C 0.99664 0.04839 0.41633 0.0
C1432 C 1.00671 0.03232 0.4409 0.0
C1433 C 1.00587 0.00173 0.41135 0.0
C1434 C 0.99827 0.01752 0.44963 0.0
C1435 C 1.00364 0.01741 0.46807 0.0
C1436 C 0.01717 0.03234 0.47836 0.0
C1437 C 0.02542 0.04723 0.4697 0.0
C1438 C 0.02035 0.04716 0.45121 0.0
H1439 H 0.01021 0.99528 0.39921 0.0
H1440 H 0.01742 0.0053 0.4226 0.0
H1441 H 0.99409 0.99142 0.41518 0.0
H1442 H 0.98729 0.00616 0.44228 0.0
H1443 H 0.9968 0.00587 0.4744 0.0
H1444 H 0.33267 0.71846 0.59185 0.0
H1445 H 0.33553 0.74031 0.61896 0.0
H1446 H 0.3344 0.69776 0.65216 0.0
H1447 H 0.33185 0.67591 0.62517 0.0
H1448 H 0.3068 0.73415 0.63804 0.0
H1449 H 0.37033 0.74153 0.68412 0.0
H1450 H 0.36755 0.73288 0.66026 0.0
H1451 H 0.35825 0.71802 0.67611 0.0
C1452 C 0.33368 0.71389 0.60497 0.0
C1453 C 0.33173 0.69539 0.60637 0.0
C1454 C 0.33535 0.72641 0.62045 0.0
C1455 C 0.33517 0.72067 0.63757 0.0
C1456 C 0.33491 0.70259 0.63913 0.0
H1457 H 0.29943 0.73897 0.73801 0.0
H1458 H 0.31228 0.73036 0.71112 0.0
C1459 C 0.33334 0.69005 0.62365 0.0
C1460 C 0.33162 0.73232 0.65306 0.0
H1461 H 0.34491 0.7475 0.69818 0.0
C1462 C 0.31536 0.73749 0.6511 0.0
C1463 C 0.34277 0.73655 0.67006 0.0
C1464 C 0.36079 0.73211 0.67273 0.0
C1465 C 0.30928 0.74568 0.66597 0.0
C1466 C 0.31997 0.74909 0.68318 0.0
C1467 C 0.33673 0.74481 0.68496 0.0
C1468 C 0.31298 0.75514 0.69975 0.0
C1469 C 0.2909 0.74949 0.66334 0.0
C1470 C 0.30915 0.77201 0.70229 0.0
C1471 C 0.30156 0.77694 0.71763 0.0
C1472 C 0.29789 0.76513 0.73073 0.0
C1473 C 0.30203 0.74839 0.7282 0.0
C1474 C 0.30949 0.74346 0.71288 0.0
H1475 H 0.28289 0.74293 0.64994 0.0
H1476 H 0.28258 0.74455 0.67409 0.0
H1477 H 0.29311 0.76444 0.66423 0.0
H1478 H 0.312 0.78132 0.69241 0.0
H1479 H 0.29873 0.79002 0.71929 0.0
H1480 H 0.64783 0.01508 0.81878 0.0
H1481 H 0.63361 0.01898 0.84637 0.0
H1482 H 0.59844 0.04564 0.81868 0.0
H1483 H 0.6123 0.04168 0.79119 0.0
H1484 H 0.63187 0.05246 0.86579 0.0
H1485 H 0.56251 0.00555 0.83995 0.0
H1486 H 0.5825 0.00515 0.82908 0.0
H1487 H 0.57085 0.02208 0.82534 0.0
C1488 C 0.63698 0.02165 0.81857 0.0
C1489 C 0.63111 0.02799 0.8028 0.0
C1490 C 0.62892 0.02389 0.8343 0.0
C1491 C 0.61482 0.03234 0.8344 0.0
C1492 C 0.60905 0.03875 0.81873 0.0
H1493 H 0.54786 0.06619 0.90895 0.0
H1494 H 0.56447 0.0613 0.88341 0.0
C1495 C 0.61706 0.03654 0.80306 0.0
C1496 C 0.60636 0.03504 0.85095 0.0
H1497 H 0.56508 0.02597 0.86709 0.0
C1498 C 0.61732 0.04653 0.8662 0.0
C1499 C 0.58737 0.02728 0.85134 0.0
C1500 C 0.57514 0.01419 0.83561 0.0
C1501 C 0.60961 0.05097 0.88168 0.0
C1502 C 0.59054 0.04353 0.88187 0.0
C1503 C 0.57967 0.03177 0.86676 0.0
C1504 C 0.58153 0.0476 0.89768 0.0
C1505 C 0.62177 0.06397 0.89749 0.0
C1506 C 0.58569 0.04151 0.91407 0.0
C1507 C 0.57619 0.04418 0.9286 0.0
C1508 C 0.5623 0.05294 0.92696 0.0
C1509 C 0.55837 0.05928 0.91057 0.0
C1510 C 0.56788 0.05657 0.89603 0.0
H1511 H 0.63514 0.07157 0.89366 0.0
H1512 H 0.61487 0.07395 0.90299 0.0
H1513 H 0.62459 0.05612 0.90845 0.0
H1514 H 0.59592 0.03422 0.91545 0.0
H1515 H 0.57927 0.03878 0.9409 0.0
H1516 H 0.26241 0.37088 0.10639 0.0
H1517 H 0.26089 0.35834 0.13493 0.0
H1518 H 0.27142 0.30983 0.10967 0.0
H1519 H 0.27301 0.32228 0.08088 0.0
H1520 H 0.24204 0.30402 0.13319 0.0
H1521 H 0.30733 0.35423 0.16663 0.0
H1522 H 0.29073 0.36375 0.15589 0.0
H1523 H 0.30115 0.34971 0.14232 0.0
C1524 C 0.26428 0.35747 0.10677 0.0
C1525 C 0.26794 0.34766 0.09125 0.0
C1526 C 0.26349 0.35036 0.12319 0.0
C1527 C 0.26632 0.33327 0.12454 0.0
C1528 C 0.2693 0.3231 0.10897 0.0
H1529 H 0.26855 0.26752 0.212 0.0
H1530 H 0.26681 0.27868 0.18284 0.0
C1531 C 0.27019 0.33025 0.09251 0.0
C1532 C 0.26652 0.32627 0.14232 0.0
H1533 H 0.2902 0.3349 0.18507 0.0
C1534 C 0.2526 0.31071 0.14453 0.0
C1535 C 0.28023 0.33507 0.15715 0.0
C1536 C 0.29582 0.35154 0.15544 0.0
C1537 C 0.25183 0.30391 0.16124 0.0
C1538 C 0.26566 0.31262 0.17607 0.0
C1539 C 0.27957 0.3282 0.1738 0.0
C1540 C 0.2662 0.30567 0.19392 0.0
C1541 C 0.23592 0.28775 0.16294 0.0
C1542 C 0.26694 0.3172 0.21009 0.0
C1543 C 0.26817 0.31089 0.22693 0.0
C1544 C 0.26873 0.2929 0.22799 0.0
C1545 C 0.26796 0.28139 0.21177 0.0
C1546 C 0.26683 0.28773 0.19499 0.0
H1547 H 0.22389 0.28639 0.15269 0.0
H1548 H 0.24012 0.27507 0.16064 0.0
H1549 H 0.23159 0.28886 0.17664 0.0
H1550 H 0.2666 0.33113 0.2097 0.0
H1551 H 0.26881 0.32018 0.2391 0.0
H1552 H 0.21802 0.93592 0.97972 0.0
H1553 H 0.19622 0.95355 0.97446 0.0
H1554 H 0.23312 0.99997 0.00982 0.0
H1555 H 0.25497 0.9827 0.01484 0.0
H1556 H 0.18091 0.96467 0.00261 0.0
H1557 H 0.21352 0.02502 0.9714 0.0
H1558 H 0.22193 0.00521 0.97069 0.0
H1559 H 0.22856 0.02259 0.99028 0.0
C1560 C 0.22171 0.95007 0.98591 0.0
C1561 C 0.23807 0.95787 0.99788 0.0
C1562 C 0.20927 0.96012 0.98286 0.0
C1563 C 0.21313 0.97813 0.9916 0.0
C1564 C 0.23003 0.98627 0.00257 0.0
H1565 H 0.1608 0.04851 0.04285 0.0
H1566 H 0.18189 0.0341 0.02863 0.0
C1567 C 0.24242 0.97627 0.00562 0.0
C1568 C 0.19846 0.98722 0.99222 0.0
H1569 H 0.19032 0.02851 0.99062 0.0
C1570 C 0.18271 0.97844 -0.0005 0.0
C1571 C 0.20094 0.00523 0.98831 0.0
C1572 C 0.21709 0.01496 0.97956 0.0
C1573 C 0.16997 0.98761 0.00413 0.0
C1574 C 0.17296 0.00594 0.00111 0.0
C1575 C 0.18819 0.01447 0.99298 0.0
C1576 C 0.161 0.01669 0.0076 0.0
C1577 C 0.15399 0.97798 0.01323 0.0
C1578 C 0.14252 0.01202 5e-05 0.0
C1579 C 0.13051 0.02011 0.00817 0.0
C1580 C 0.13684 0.03304 0.02391 0.0
C1581 C 0.15561 0.03856 0.03075 0.0
C1582 C 0.16762 0.03039 0.02265 0.0
H1583 H 0.1554 0.96492 0.01729 0.0
H1584 H 0.1527 0.98685 0.02546 0.0
H1585 H 0.14107 0.97489 0.00373 0.0
H1586 H 0.13727 0.00162 0.98831 0.0
H1587 H 0.11616 0.01592 0.00241 0.0
H1588 H 0.7098 0.67068 0.01687 0.0
H1589 H 0.67966 0.64848 0.0154 0.0
H1590 H 0.7052 0.60504 0.01642 0.0
H1591 H 0.73544 0.62721 0.0185 0.0
H1592 H 0.6599 0.61842 0.99228 0.0
H1593 H 0.67751 0.59869 0.05934 0.0
H1594 H 0.69203 0.61796 0.05107 0.0
H1595 H 0.69248 0.59515 0.0432 0.0
C1596 C 0.70901 0.65638 0.01662 0.0
C1597 C 0.72506 0.65076 0.01805 0.0
C1598 C 0.69176 0.6437 0.01579 0.0
C1599 C 0.69019 0.62514 0.01626 0.0
C1600 C 0.7061 0.61935 0.01659 0.0
H1601 H 0.59168 0.53435 0.01975 0.0
H1602 H 0.62239 0.55192 0.01455 0.0
C1603 C 0.72338 0.63204 0.01765 0.0
C1604 C 0.67199 0.61206 0.01703 0.0
H1605 H 0.64839 0.58251 0.04319 0.0
C1606 C 0.65742 0.61053 0.00338 0.0
C1607 C 0.66871 0.60179 0.03157 0.0
C1608 C 0.68344 0.60356 0.04722 0.0
C1609 C 0.63968 0.59912 0.00396 0.0
C1610 C 0.63645 0.58901 0.01853 0.0
C1611 C 0.65103 0.59019 0.03196 0.0
C1612 C 0.61774 0.57826 0.02085 0.0
C1613 C 0.62442 0.59805 0.98911 0.0
C1614 C 0.60511 0.58731 0.02623 0.0
C1615 C 0.58773 0.57739 0.02941 0.0
C1616 C 0.58258 0.55817 0.02717 0.0
C1617 C 0.59521 0.54911 0.02156 0.0
C1618 C 0.61273 0.55911 0.01858 0.0
H1619 H 0.62977 0.60392 0.97715 0.0
H1620 H 0.61604 0.58365 0.98472 0.0
H1621 H 0.61525 0.60579 0.99435 0.0
H1622 H 0.60881 0.60209 0.02821 0.0
H1623 H 0.57832 0.58481 0.03359 0.0
H1624 H 0.64556 0.47281 0.3039 0.0
H1625 H 0.66183 0.44939 0.30531 0.0
H1626 H 0.69694 0.4742 0.26787 0.0
H1627 H 0.68078 0.49742 0.26623 0.0
H1628 H 0.66778 0.42495 0.27252 0.0
H1629 H 0.73177 0.46981 0.31422 0.0
H1630 H 0.70993 0.4747 0.31411 0.0
H1631 H 0.72278 0.47899 0.29547 0.0
C1632 C 0.65676 0.47328 0.29599 0.0
C1633 C 0.66187 0.48701 0.28497 0.0
C1634 C 0.66601 0.45989 0.29679 0.0
C1635 C 0.68069 0.46018 0.28681 0.0
C1636 C 0.68577 0.47383 0.27581 0.0
H1637 H 0.76048 0.40271 0.26835 0.0
H1638 H 0.74209 0.42398 0.27134 0.0
C1639 C 0.67645 0.48707 0.27485 0.0
C1640 C 0.69066 0.44615 0.28754 0.0
H1641 H 0.73276 0.44085 0.30069 0.0
C1642 C 0.68192 0.42831 0.27885 0.0
C1643 C 0.70913 0.45065 0.2957 0.0
C1644 C 0.719 0.46953 0.30554 0.0
C1645 C 0.69138 0.41499 0.2775 0.0
C1646 C 0.70998 0.41954 0.28548 0.0
C1647 C 0.71854 0.43732 0.29455 0.0
C1648 C 0.72108 0.40638 0.2839 0.0
C1649 C 0.68159 0.39645 0.26683 0.0
C1650 C 0.71561 0.38942 0.29019 0.0
C1651 C 0.72598 0.37704 0.28822 0.0
C1652 C 0.74222 0.38141 0.28011 0.0
C1653 C 0.74789 0.39863 0.27429 0.0
C1654 C 0.73745 0.41093 0.27615 0.0
H1655 H 0.66935 0.39674 0.25768 0.0
H1656 H 0.6909 0.39131 0.25857 0.0
H1657 H 0.67685 0.38663 0.27636 0.0
H1658 H 0.70328 0.38573 0.29662 0.0
H1659 H 0.72106 0.36391 0.29279 0.0
H1660 H 0.84177 0.42203 0.49411 0.0
H1661 H 0.8736 0.4412 0.49745 0.0
H1662 H 0.8599 0.48314 0.53155 0.0
H1663 H 0.82817 0.46391 0.52869 0.0
H1664 H 0.89012 0.47606 0.49024 0.0
H1665 H 0.90018 0.47185 0.56395 0.0
H1666 H 0.88027 0.45762 0.54894 0.0
H1667 H 0.88177 0.48096 0.55693 0.0
C1668 C 0.84549 0.43539 0.5022 0.0
C1669 C 0.83256 0.44136 0.51137 0.0
C1670 C 0.86366 0.44633 0.50406 0.0
C1671 C 0.86911 0.46339 0.51504 0.0
C1672 C 0.85601 0.46982 0.52337 0.0
H1673 H 0.97959 0.53943 0.52294 0.0
H1674 H 0.94618 0.52608 0.51741 0.0
C1675 C 0.8379 0.45883 0.52168 0.0
C1676 C 0.8887 0.47398 0.5185 0.0
H1677 H 0.92505 0.49036 0.55209 0.0
C1678 C 0.89779 0.47929 0.50375 0.0
C1679 C 0.89861 0.47791 0.53615 0.0
C1680 C 0.88979 0.47166 0.55239 0.0
C1681 C 0.91667 0.48831 0.50615 0.0
C1682 C 0.92652 0.49241 0.52383 0.0
C1683 C 0.91736 0.48731 0.53859 0.0
C1684 C 0.9466 0.50078 0.52724 0.0
C1685 C 0.92603 0.49277 0.48972 0.0
C1686 C 0.95777 0.49114 0.53505 0.0
C1687 C 0.97675 0.49876 0.53841 0.0
C1688 C 0.98493 0.51618 0.534 0.0
C1689 C 0.9737 0.52593 0.52637 0.0
C1690 C 0.95464 0.5183 0.52309 0.0
H1691 H 0.9174 0.4851 0.47695 0.0
H1692 H 0.92875 0.50757 0.48897 0.0
H1693 H 0.9394 0.4896 0.49065 0.0
H1694 H 0.95178 0.47762 0.53841 0.0
H1695 H 0.98498 0.49088 0.54431 0.0
H1696 H 0.37863 0.09057 0.32557 0.0
H1697 H 0.35858 0.1098 0.33244 0.0
H1698 H 0.3185 0.07882 0.28743 0.0
H1699 H 0.33822 0.05968 0.2805 0.0
H1700 H 0.34695 0.13072 0.30772 0.0
H1701 H 0.28716 0.08215 0.32845 0.0
H1702 H 0.30942 0.07813 0.32881 0.0
H1703 H 0.29388 0.07306 0.30799 0.0
C1704 C 0.36545 0.08777 0.31728 0.0
C1705 C 0.36002 0.07369 0.30245 0.0
C1706 C 0.35402 0.09869 0.32127 0.0
C1707 C 0.33693 0.09545 0.31067 0.0
C1708 C 0.33142 0.08123 0.29606 0.0
H1709 H 0.2564 0.13924 0.27035 0.0
H1710 H 0.2747 0.12048 0.28218 0.0
C1711 C 0.34283 0.07045 0.29199 0.0
C1712 C 0.32557 0.10799 0.3133 0.0
H1713 H 0.28126 0.10803 0.31584 0.0
C1714 C 0.33272 0.12599 0.31001 0.0
C1715 C 0.30705 0.10168 0.31627 0.0
C1716 C 0.29897 0.08273 0.32076 0.0
C1717 C 0.32139 0.1374 0.30807 0.0
C1718 C 0.30254 0.13067 0.30988 0.0
C1719 C 0.2957 0.11309 0.3144 0.0
C1720 C 0.28944 0.14086 0.30489 0.0
C1721 C 0.3294 0.15603 0.30273 0.0
C1722 C 0.29117 0.1582 0.3142 0.0
C1723 C 0.28096 0.16906 0.30731 0.0
C1724 C 0.26871 0.16264 0.2911 0.0
C1725 C 0.26598 0.1447 0.28264 0.0
C1726 C 0.2763 0.13391 0.28948 0.0
H1727 H 0.34338 0.15782 0.29885 0.0
H1728 H 0.32043 0.15834 0.29119 0.0
H1729 H 0.33038 0.16669 0.31434 0.0
H1730 H 0.30106 0.16366 0.32629 0.0
H1731 H 0.28351 0.18285 0.31413 0.0
H1732 H 0.31895 0.14044 0.55993 0.0
H1733 H 0.34161 0.12349 0.55945 0.0
H1734 H 0.35747 0.14352 0.51018 0.0
H1735 H 0.3349 0.16088 0.51072 0.0
H1736 H 0.34299 0.09615 0.53331 0.0
H1737 H 0.40702 0.15387 0.5415 0.0
H1738 H 0.3852 0.15711 0.54577 0.0
H1739 H 0.39011 0.15354 0.52292 0.0
C1740 C 0.32734 0.1414 0.54904 0.0
C1741 C 0.32512 0.15207 0.53538 0.0
C1742 C 0.34029 0.13165 0.54878 0.0
C1743 C 0.3514 0.13235 0.53489 0.0
C1744 C 0.34931 0.14305 0.52123 0.0
H1745 H 0.43401 0.07494 0.51617 0.0
H1746 H 0.41263 0.09335 0.51298 0.0
C1747 C 0.33634 0.15289 0.52151 0.0
C1748 C 0.36458 0.12125 0.53454 0.0
H1749 H 0.41023 0.12406 0.53701 0.0
C1750 C 0.35769 0.10227 0.5341 0.0
C1751 C 0.38376 0.12921 0.53548 0.0
C1752 C 0.39205 0.14956 0.5366 0.0
C1753 C 0.36942 0.09107 0.53469 0.0
C1754 C 0.38861 0.09907 0.53603 0.0
C1755 C 0.39551 0.11797 0.53603 0.0
C1756 C 0.40174 0.08807 0.53804 0.0
C1757 C 0.36115 0.07074 0.53379 0.0
C1758 C 0.40292 0.0792 0.55332 0.0
C1759 C 0.4152 0.06879 0.55527 0.0
C1760 C 0.42666 0.06703 0.54198 0.0
C1761 C 0.42556 0.07611 0.52676 0.0
C1762 C 0.41328 0.08658 0.52486 0.0
H1763 H 0.34638 0.0663 0.52804 0.0
H1764 H 0.36858 0.06307 0.52547 0.0
H1765 H 0.36223 0.06707 0.54769 0.0
H1766 H 0.39442 0.08047 0.56385 0.0
H1767 H 0.41592 0.06236 0.56735 0.0
H1768 H 0.68542 0.57428 0.2897 0.0
H1769 H 0.70629 0.60505 0.2915 0.0
H1770 H 0.66634 0.62778 0.31425 0.0
H1771 H 0.64548 0.5971 0.31275 0.0
H1772 H 0.69898 0.6323 0.27366 0.0
H1773 H 0.71346 0.65534 0.34776 0.0
H1774 H 0.70358 0.63163 0.33818 0.0
H1775 H 0.68939 0.64678 0.33942 0.0
C1776 C 0.68116 0.58579 0.29537 0.0
C1777 C 0.66373 0.58318 0.30108 0.0
C1778 C 0.69312 0.60338 0.29635 0.0
C1779 C 0.68797 0.61871 0.30319 0.0
C1780 C 0.67077 0.61614 0.30928 0.0
H1781 H 0.7278 0.73551 0.30657 0.0
H1782 H 0.71123 0.70406 0.30926 0.0
C1783 C 0.6588 0.59857 0.30831 0.0
C1784 C 0.69994 0.6374 0.30263 0.0
H1785 H 0.72192 0.67839 0.32876 0.0
C1786 C 0.70417 0.64232 0.28573 0.0
C1787 C 0.70663 0.65048 0.31838 0.0
C1788 C 0.70319 0.64578 0.33699 0.0
C1789 C 0.71444 0.66011 0.28407 0.0
C1790 C 0.72095 0.67325 0.29979 0.0
C1791 C 0.71691 0.66829 0.31673 0.0
C1792 C 0.73152 0.69236 0.29882 0.0
C1793 C 0.71773 0.66484 0.26543 0.0
C1794 C 0.74861 0.69626 0.29237 0.0
C1795 C 0.75813 0.71424 0.29077 0.0
C1796 C 0.75078 0.72868 0.29568 0.0
C1797 C 0.73386 0.72474 0.30259 0.0
C1798 C 0.72436 0.70677 0.30417 0.0
H1799 H 0.70825 0.6546 0.25457 0.0
H1800 H 0.716 0.67849 0.26393 0.0
H1801 H 0.73201 0.66522 0.2634 0.0
H1802 H 0.75455 0.68538 0.28849 0.0
H1803 H 0.77117 0.71677 0.28552 0.0
H1804 H 0.8555 0.49357 0.81286 0.0
H1805 H 0.84129 0.46101 0.81261 0.0
H1806 H 0.8917 0.45002 0.80085 0.0
H1807 H 0.90622 0.48274 0.80159 0.0
H1808 H 0.83601 0.43633 0.78288 0.0
H1809 H 0.8768 0.41744 0.83903 0.0
H1810 H 0.87791 0.44084 0.8369 0.0
H1811 H 0.89052 0.42908 0.82344 0.0
C1812 C 0.86368 0.48426 0.81056 0.0
C1813 C 0.88192 0.49065 0.80712 0.0
C1814 C 0.85554 0.46568 0.81044 0.0
C1815 C 0.86546 0.45313 0.80679 0.0
C1816 C 0.88392 0.45952 0.80405 0.0
H1817 H 0.81502 0.33965 0.76055 0.0
H1818 H 0.83154 0.37223 0.76586 0.0
C1819 C 0.89216 0.47819 0.80438 0.0
C1820 C 0.85584 0.43336 0.80401 0.0
H1821 H 0.85638 0.39287 0.81817 0.0
C1822 C 0.8404 0.42683 0.79067 0.0
C1823 C 0.86155 0.42107 0.81426 0.0
C1824 C 0.87749 0.42746 0.82933 0.0
C1825 C 0.83054 0.4083 0.78723 0.0
C1826 C 0.83659 0.39592 0.79707 0.0
C1827 C 0.85192 0.40243 0.81053 0.0
C1828 C 0.8269 0.37618 0.79386 0.0
C1829 C 0.81353 0.40223 0.77335 0.0
C1830 C 0.81918 0.3676 0.80796 0.0
C1831 C 0.80988 0.34899 0.80502 0.0
C1832 C 0.80815 0.33865 0.78791 0.0
C1833 C 0.81596 0.34728 0.77382 0.0
C1834 C 0.82536 0.36589 0.77682 0.0
H1835 H 0.8081 0.41381 0.77065 0.0
H1836 H 0.81697 0.39639 0.7604 0.0
H1837 H 0.80253 0.39156 0.77786 0.0
H1838 H 0.82026 0.37534 0.82122 0.0
H1839 H 0.80405 0.34275 0.81618 0.0
H1840 H 0.03298 0.84671 0.10548 0.0
H1841 H 0.02811 0.87466 0.09577 0.0
H1842 H 0.07125 0.87803 0.06223 0.0
H1843 H 0.0759 0.84996 0.0716 0.0
H1844 H 0.04924 0.90915 0.09965 0.0
H1845 H 0.03235 0.88477 0.02607 0.0
H1846 H 0.03367 0.86954 0.04246 0.0
H1847 H 0.05427 0.88291 0.03514 0.0
C1848 C 0.04134 0.85327 0.0959 0.0
C1849 C 0.05475 0.84578 0.08927 0.0
C1850 C 0.03857 0.8694 0.09036 0.0
C1851 C 0.04903 0.87858 0.07791 0.0
C1852 C 0.06255 0.87118 0.07142 0.0
H1853 H 0.06046 0.99363 0.06312 0.0
H1854 H 0.06469 0.96517 0.07183 0.0
C1855 C 0.0653 0.85506 0.07692 0.0
C1856 C 0.04614 0.89603 0.07216 0.0
H1857 H 0.03808 0.91672 0.03505 0.0
C1858 C 0.04676 0.91071 0.08549 0.0
C1859 C 0.04258 0.89832 0.05371 0.0
C1860 C 0.04048 0.883 0.03852 0.0
C1861 C 0.04432 0.92739 0.081 0.0
C1862 C 0.04147 0.92993 0.06254 0.0
C1863 C 0.04049 0.91513 0.04921 0.0
C1864 C 0.03913 0.94759 0.0568 0.0
C1865 C 0.04437 0.942 0.09621 0.0
C1866 C 0.02369 0.94757 0.0448 0.0
C1867 C 0.0213 0.96396 0.0396 0.0
C1868 C 0.03433 0.981 0.04614 0.0
C1869 C 0.04997 0.98095 0.05786 0.0
C1870 C 0.05236 0.96455 0.06301 0.0
H1871 H 0.04112 0.93617 0.10882 0.0
H1872 H 0.05825 0.95197 0.0992 0.0
H1873 H 0.03428 0.94942 0.09248 0.0
H1874 H 0.01325 0.93483 0.03961 0.0
H1875 H 0.00908 0.96324 0.03056 0.0
H1876 H 0.96136 0.25861 0.88612 0.0
H1877 H 0.93487 0.26109 0.86652 0.0
H1878 H 0.90611 0.26466 0.91285 0.0
H1879 H 0.9328 0.26278 0.93264 0.0
H1880 H 0.90026 0.24054 0.85834 0.0
H1881 H 0.89994 0.30837 0.89167 0.0
H1882 H 0.91861 0.29883 0.8968 0.0
H1883 H 0.89788 0.2918 0.90697 0.0
C1884 C 0.94942 0.25993 0.8922 0.0
C1885 C 0.94936 0.26063 0.91106 0.0
C1886 C 0.93422 0.26135 0.88092 0.0
C1887 C 0.91852 0.26348 0.88816 0.0
C1888 C 0.9182 0.26361 0.90692 0.0
H1889 H 0.81207 0.2699 0.83859 0.0
H1890 H 0.83753 0.26618 0.85893 0.0
C1891 C 0.93347 0.26236 0.91824 0.0
C1892 C 0.9025 0.26533 0.876 0.0
H1893 H 0.87439 0.2926 0.86952 0.0
C1894 C 0.89469 0.25198 0.86079 0.0
C1895 C 0.89513 0.28027 0.87905 0.0
C1896 C 0.90342 0.29573 0.89439 0.0
C1897 C 0.87973 0.25304 0.84877 0.0
C1898 C 0.87233 0.26788 0.85192 0.0
C1899 C 0.88 0.28117 0.86715 0.0
C1900 C 0.85679 0.26998 0.8394 0.0
C1901 C 0.87175 0.23812 0.8329 0.0
C1902 C 0.85913 0.27352 0.82166 0.0
C1903 C 0.84462 0.27579 0.81 0.0
C1904 C 0.82737 0.2745 0.81578 0.0
C1905 C 0.82509 0.27093 0.83359 0.0
C1906 C 0.83966 0.26882 0.84528 0.0
H1907 H 0.87642 0.22584 0.8344 0.0
H1908 H 0.8565 0.23406 0.83129 0.0
H1909 H 0.87615 0.24326 0.82031 0.0
H1910 H 0.87226 0.2747 0.81686 0.0
H1911 H 0.84695 0.27855 0.79643 0.0
H1912 H 0.57446 0.24972 0.57783 0.0
H1913 H 0.57248 0.21786 0.56642 0.0
H1914 H 0.5281 0.19885 0.59724 0.0
H1915 H 0.53015 0.23043 0.60887 0.0
H1916 H 0.57454 0.18864 0.59213 0.0
H1917 H 0.51097 0.1708 0.54258 0.0
H1918 H 0.52554 0.194 0.54892 0.0
H1919 H 0.51079 0.1834 0.56426 0.0
C1920 C 0.56405 0.23878 0.58192 0.0
C1921 C 0.55241 0.24278 0.59424 0.0
C1922 C 0.56302 0.22053 0.57548 0.0
C1923 C 0.55011 0.20584 0.58092 0.0
C1924 C 0.53812 0.20984 0.59273 0.0
H1925 H 0.51393 0.08714 0.56003 0.0
H1926 H 0.51791 0.11975 0.56783 0.0
C1927 C 0.53931 0.22799 0.59936 0.0
C1928 C 0.54951 0.18635 0.57498 0.0
H1929 H 0.52284 0.14662 0.54916 0.0
C1930 C 0.56334 0.17947 0.58259 0.0
C1931 C 0.53481 0.17427 0.56273 0.0
C1932 C 0.51968 0.18089 0.554 0.0
C1933 C 0.56259 0.16084 0.57873 0.0
C1934 C 0.54785 0.14865 0.56639 0.0
C1935 C 0.53418 0.15571 0.55859 0.0
C1936 C 0.54589 0.1285 0.56188 0.0
C1937 C 0.5772 0.1543 0.58862 0.0
C1938 C 0.5602 0.1221 0.55577 0.0
C1939 C 0.55804 0.10324 0.55152 0.0
C1940 C 0.54136 0.09019 0.5529 0.0
C1941 C 0.52702 0.09664 0.55879 0.0
C1942 C 0.52926 0.11543 0.56324 0.0
H1943 H 0.58394 0.16367 0.60129 0.0
H1944 H 0.5714 0.14041 0.59212 0.0
H1945 H 0.58797 0.15386 0.57981 0.0
H1946 H 0.573 0.1317 0.55399 0.0
H1947 H 0.56933 0.09891 0.5468 0.0
H1948 H 0.56856 0.76988 0.43743 0.0
H1949 H 0.59365 0.77166 0.41915 0.0
H1950 H 0.55918 0.77847 0.37289 0.0
H1951 H 0.53394 0.77654 0.39099 0.0
H1952 H 0.57872 0.75348 0.36448 0.0
H1953 H 0.62506 0.81818 0.40315 0.0
H1954 H 0.61712 0.8005 0.41671 0.0
H1955 H 0.60097 0.8102 0.40545 0.0
C1956 C 0.56626 0.77174 0.42337 0.0
C1957 C 0.54917 0.77315 0.41576 0.0
C1958 C 0.5807 0.77287 0.41294 0.0
C1959 C 0.57844 0.77549 0.39469 0.0
C1960 C 0.56131 0.77653 0.38696 0.0
H1961 H 0.66296 0.81094 0.32592 0.0
H1962 H 0.63793 0.80782 0.34442 0.0
C1963 C 0.54687 0.77545 0.39737 0.0
C1964 C 0.59387 0.77707 0.38362 0.0
H1965 H 0.6375 0.8029 0.38067 0.0
C1966 C 0.59157 0.76428 0.36803 0.0
C1967 C 0.61058 0.79129 0.38809 0.0
C1968 C 0.6136 0.80594 0.40416 0.0
C1969 C 0.60556 0.76521 0.35694 0.0
C1970 C 0.62244 0.77918 0.36166 0.0
C1971 C 0.62465 0.79208 0.37714 0.0
C1972 C 0.63778 0.78094 0.35045 0.0
C1973 C 0.60199 0.75144 0.34004 0.0
C1974 C 0.64626 0.76698 0.34782 0.0
C1975 C 0.66057 0.76869 0.33715 0.0
C1976 C 0.66677 0.78443 0.32888 0.0
C1977 C 0.65839 0.7985 0.33179 0.0
C1978 C 0.64413 0.79679 0.34249 0.0
H1979 H 0.58708 0.74458 0.33599 0.0
H1980 H 0.60766 0.75803 0.32857 0.0
H1981 H 0.60882 0.74079 0.34262 0.0
H1982 H 0.64185 0.75474 0.35406 0.0
H1983 H 0.66658 0.75753 0.33516 0.0
H1984 H 0.03744 0.27442 0.42995 0.0
H1985 H 0.03699 0.25007 0.44841 0.0
H1986 H 0.04099 0.21435 0.40142 0.0
H1987 H 0.04124 0.23856 0.38277 0.0
H1988 H 0.01415 0.19764 0.4211 0.0
H1989 H 0.07928 0.23109 0.46673 0.0
H1990 H 0.06364 0.24474 0.466 0.0
H1991 H 0.07333 0.23926 0.44595 0.0
C1992 C 0.03837 0.26143 0.4235 0.0
C1993 C 0.03944 0.25854 0.4048 0.0
C1994 C 0.03821 0.24754 0.43415 0.0
C1995 C 0.03923 0.23042 0.4264 0.0
C1996 C 0.04029 0.22746 0.40776 0.0
H1997 H 0.05749 0.1445 0.48711 0.0
H1998 H 0.06002 0.16813 0.46731 0.0
C1999 C 0.04046 0.24136 0.39708 0.0
C2000 C 0.0385 0.21542 0.43761 0.0
H2001 H 0.05971 0.20428 0.47524 0.0
C2002 C 0.02417 0.19907 0.43288 0.0
C2003 C 0.0517 0.21714 0.45287 0.0
C2004 C 0.06796 0.23393 0.45812 0.0
C2005 C 0.02242 0.18463 0.44321 0.0
C2006 C 0.0352 0.18663 0.45888 0.0
C2007 C 0.0498 0.20279 0.46335 0.0
C2008 C 0.03358 0.17216 0.47085 0.0
C2009 C 1.00701 0.16725 0.4371 0.0
C2010 C 0.01798 0.16666 0.47963 0.0
C2011 C 0.01645 0.15309 0.49089 0.0
C2012 C 0.03055 0.14474 0.49375 0.0
C2013 C 0.04625 0.15042 0.48506 0.0
C2014 C 0.04778 0.16403 0.47381 0.0
H2015 H 1.00168 0.16595 0.42252 0.0
H2016 H 0.01159 0.15507 0.43937 0.0
H2017 H 0.99551 0.16734 0.44503 0.0
H2018 H 1.00697 0.17292 0.47784 0.0
H2019 H 1.00408 0.149 0.49719 0.0
H2020 H 0.55908 0.24605 0.2413 0.0
H2021 H 0.59087 0.24929 0.25446 0.0
H2022 H 0.60986 0.26422 0.20447 0.0
H2023 H 0.57872 0.26182 0.19168 0.0
H2024 H 0.61571 0.23254 0.24656 0.0
H2025 H 0.64506 0.30458 0.23821 0.0
H2026 H 0.62063 0.29376 0.23484 0.0
H2027 H 0.63419 0.29133 0.21684 0.0
C2028 C 0.57008 0.25031 0.23323 0.0
C2029 C 0.56616 0.25395 0.21548 0.0
C2030 C 0.58831 0.25207 0.24075 0.0
C2031 C 0.60308 0.25746 0.23069 0.0
C2032 C 0.59904 0.26071 0.21288 0.0
H2033 H 0.71221 0.23947 0.25124 0.0
H2034 H 0.67959 0.23613 0.24195 0.0
C2035 C 0.58102 0.2592 0.2055 0.0
C2036 C 0.62263 0.25928 0.23839 0.0
H2037 H 0.66664 0.28745 0.24249 0.0
C2038 C 0.62681 0.24465 0.24583 0.0
C2039 C 0.63732 0.27514 0.23786 0.0
C2040 C 0.63404 0.29215 0.2317 0.0
C2041 C 0.64507 0.24523 0.25221 0.0
C2042 C 0.65987 0.26065 0.2506 0.0
C2043 C 0.65557 0.27544 0.24357 0.0
C2044 C 0.6798 0.26216 0.25653 0.0
C2045 C 0.64816 0.22941 0.26099 0.0
C2046 C 0.6913 0.2781 0.26737 0.0
C2047 C 0.71008 0.28023 0.27224 0.0
C2048 C 0.71804 0.26641 0.26663 0.0
C2049 C 0.70657 0.25033 0.25598 0.0
C2050 C 0.68778 0.24835 0.25078 0.0
H2051 H 0.63573 0.22206 0.26661 0.0
H2052 H 0.65117 0.21954 0.25066 0.0
H2053 H 0.65987 0.23402 0.27211 0.0
H2054 H 0.68576 0.28904 0.2721 0.0
H2055 H 0.71837 0.29278 0.28055 0.0
H2056 H 0.54723 0.87045 0.88347 0.0
H2057 H 0.54644 0.89796 0.90274 0.0
H2058 H 0.55203 0.87183 0.95013 0.0
H2059 H 0.55332 0.84445 0.93102 0.0
H2060 H 0.52234 0.903 0.92484 0.0
H2061 H 0.59074 0.91973 0.96581 0.0
H2062 H 0.5841 0.90304 0.94563 0.0
H2063 H 0.5769 0.897 0.96685 0.0
C2064 C 0.54849 0.87058 0.89801 0.0
C2065 C 0.55047 0.85518 0.90564 0.0
C2066 C 0.548 0.88636 0.90904 0.0
C2067 C 0.54948 0.8872 0.92798 0.0
C2068 C 0.55137 0.87181 0.93563 0.0
H2069 H 0.53696 0.96269 0.01753 0.0
H2070 H 0.54058 0.93695 0.99748 0.0
C2071 C 0.55199 0.85606 0.92463 0.0
C2072 C 0.54829 0.90384 0.93962 0.0
H2073 H 0.57013 0.93561 0.97644 0.0
C2074 C 0.5329 0.9102 0.93601 0.0
C2075 C 0.56203 0.91337 0.95424 0.0
C2076 C 0.57946 0.90806 0.95827 0.0
C2077 C 0.53065 0.92542 0.94682 0.0
C2078 C 0.54423 0.93471 0.9616 0.0
C2079 C 0.55968 0.92847 0.96515 0.0
C2080 C 0.54243 0.95067 0.97376 0.0
C2081 C 0.51351 0.93117 0.94264 0.0
C2082 C 0.54254 0.96712 0.96722 0.0
C2083 C 0.54056 0.98197 0.9787 0.0
C2084 C 0.53838 0.98067 0.997 0.0
C2085 C 0.53853 0.96422 0.00354 0.0
C2086 C 0.54063 0.94946 0.99208 0.0
H2087 H 0.50273 0.92047 0.93327 0.0
H2088 H 0.50781 0.93431 0.95528 0.0
H2089 H 0.51699 0.94373 0.93614 0.0
H2090 H 0.54418 0.9685 0.9532 0.0
H2091 H 0.54056 0.99439 0.97317 0.0
H2092 H 0.96712 0.77784 0.7139 0.0
H2093 H 0.93919 0.78218 0.72487 0.0
H2094 H 0.93126 0.73249 0.74857 0.0
H2095 H 0.95947 0.72851 0.73826 0.0
H2096 H 0.90449 0.76397 0.71798 0.0
H2097 H 0.92431 0.76406 0.79095 0.0
H2098 H 0.94048 0.76498 0.77487 0.0
H2099 H 0.92491 0.74344 0.77768 0.0
C2100 C 0.95955 0.76792 0.72162 0.0
C2101 C 0.96581 0.75291 0.72531 0.0
C2102 C 0.94346 0.77039 0.72788 0.0
C2103 C 0.93305 0.75792 0.73801 0.0
C2104 C 0.93915 0.74275 0.7414 0.0
H2105 H 0.8253 0.74457 0.77699 0.0
H2106 H 0.85375 0.74013 0.76721 0.0
C2107 C 0.95533 0.74038 0.73532 0.0
C2108 C 0.91561 0.76049 0.74446 0.0
H2109 H 0.89279 0.76144 0.7817 0.0
C2110 C 0.90209 0.76353 0.73197 0.0
C2111 C 0.91215 0.75999 0.76274 0.0
C2112 C 0.92631 0.75814 0.77736 0.0
C2113 C 0.8854 0.76574 0.73707 0.0
C2114 C 0.88188 0.76496 0.75523 0.0
C2115 C 0.8953 0.7619 0.76774 0.0
C2116 C 0.86455 0.76772 0.76152 0.0
C2117 C 0.87144 0.76862 0.72289 0.0
C2118 C 0.86106 0.78476 0.7619 0.0
C2119 C 0.84488 0.78741 0.76769 0.0
C2120 C 0.83155 0.77304 0.77318 0.0
C2121 C 0.83512 0.75598 0.77287 0.0
C2122 C 0.85145 0.75341 0.76727 0.0
H2123 H 0.87445 0.76524 0.70893 0.0
H2124 H 0.8574 0.76016 0.72417 0.0
H2125 H 0.87157 0.78316 0.7249 0.0
H2126 H 0.87093 0.79612 0.75776 0.0
H2127 H 0.84275 0.80075 0.76766 0.0
H2128 H 0.09187 0.00639 0.84102 0.0
H2129 H 0.08013 0.00273 0.87012 0.0
H2130 H 0.07849 0.05864 0.87617 0.0
H2131 H 0.08917 0.06198 0.84679 0.0
H2132 H 0.09265 0.01713 0.90307 0.0
H2133 H 0.02879 0.03588 0.88719 0.0
H2134 H 0.04286 0.03223 0.87005 0.0
H2135 H 0.04824 0.05405 0.88424 0.0
C2136 C 0.08876 0.01781 0.84847 0.0
C2137 C 0.0912 0.03439 0.84143 0.0
C2138 C 0.08209 0.01573 0.86517 0.0
C2139 C 0.07792 0.03026 0.87531 0.0
C2140 C 0.08085 0.04695 0.86844 0.0
H2141 H 0.07167 0.0395 0.99186 0.0
H2142 H 0.08158 0.03942 0.96182 0.0
C2143 C 0.08712 0.0489 0.85162 0.0
C2144 C 0.07111 0.02821 0.8933 0.0
H2145 H 0.03885 0.03686 0.91871 0.0
C2146 C 0.08075 0.02127 0.90639 0.0
C2147 C 0.05534 0.0332 0.89771 0.0
C2148 C 0.04312 0.03904 0.88397 0.0
C2149 C 0.0754 0.01963 0.92376 0.0
C2150 C 0.06039 0.02581 0.92857 0.0
C2151 C 0.05051 0.03234 0.91531 0.0
C2152 C 0.05453 0.02556 0.94711 0.0
C2153 C 0.0857 0.01083 0.93651 0.0
C2154 C 0.03588 0.01847 0.94912 0.0
C2155 C 0.0301 0.01907 0.9663 0.0
C2156 C 0.04285 0.02652 0.982 0.0
C2157 C 0.06152 0.03342 0.98007 0.0
C2158 C 0.06724 0.03322 0.96283 0.0
H2159 H 0.09187 0.00128 0.92895 0.0
H2160 H 0.09711 0.02157 0.94509 0.0
H2161 H 0.07661 0.00317 0.94544 0.0
H2162 H 0.02571 0.0125 0.93733 0.0
H2163 H 0.01562 0.01363 0.9673 0.0
H2164 H 0.78139 0.34589 0.52479 0.0
H2165 H 0.78106 0.32351 0.54569 0.0
H2166 H 0.76725 0.35902 0.58718 0.0
H2167 H 0.76727 0.38123 0.56648 0.0
H2168 H 0.80415 0.33027 0.57752 0.0
H2169 H 0.7323 0.30997 0.59152 0.0
H2170 H 0.73898 0.32103 0.57218 0.0
H2171 H 0.74131 0.33434 0.5941 0.0
C2172 C 0.77796 0.34877 0.53827 0.0
C2173 C 0.77443 0.36537 0.54401 0.0
C2174 C 0.77775 0.33596 0.55015 0.0
C2175 C 0.77382 0.33948 0.56785 0.0
C2176 C 0.76983 0.35581 0.57343 0.0
H2177 H 0.7943 0.32385 0.67414 0.0
H2178 H 0.78661 0.33142 0.64413 0.0
C2179 C 0.77004 0.36859 0.56161 0.0
C2180 C 0.77594 0.32731 0.58131 0.0
H2181 H 0.75534 0.3078 0.61544 0.0
C2182 C 0.79334 0.32486 0.5855 0.0
C2183 C 0.76178 0.32022 0.59161 0.0
C2184 C 0.7425 0.32136 0.58698 0.0
C2185 C 0.79739 0.31685 0.60071 0.0
C2186 C 0.78362 0.31113 0.61181 0.0
C2187 C 0.76588 0.31238 0.60691 0.0
C2188 C 0.788 0.306 0.6297 0.0
C2189 C 0.81664 0.3157 0.60557 0.0
C2190 C 0.79133 0.2892 0.63137 0.0
C2191 C 0.79562 0.28476 0.64854 0.0
C2192 C 0.79662 0.29709 0.66421 0.0
C2193 C 0.79336 0.31395 0.66236 0.0
C2194 C 0.78902 0.31832 0.64525 0.0
H2195 H 0.82603 0.32171 0.59601 0.0
H2196 H 0.82229 0.32294 0.61948 0.0
H2197 H 0.81634 0.30119 0.60546 0.0
H2198 H 0.79049 0.27952 0.61944 0.0
H2199 H 0.79783 0.27157 0.64956 0.0
H2200 H 0.46995 0.0607 0.35224 0.0
H2201 H 0.48383 0.06789 0.38389 0.0
H2202 H 0.43515 0.08017 0.39926 0.0
H2203 H 0.42109 0.07304 0.36739 0.0
H2204 H 0.4888 0.09864 0.41526 0.0
H2205 H 0.43883 0.03136 0.41927 0.0
H2206 H 0.4442 0.03843 0.3978 0.0
H2207 H 0.43027 0.04885 0.41073 0.0
C2208 C 0.46238 0.06542 0.36228 0.0
C2209 C 0.44433 0.066 0.35747 0.0
C2210 C 0.47039 0.06966 0.38032 0.0
C2211 C 0.46041 0.07437 0.39382 0.0
C2212 C 0.443 0.07653 0.38893 0.0
H2213 H 0.48427 0.04702 0.50124 0.0
H2214 H 0.47006 0.05883 0.47655 0.0
C2215 C 0.43501 0.07245 0.37078 0.0
C2216 C 0.46696 0.07355 0.41278 0.0
H2217 H 0.46225 0.04357 0.44338 0.0
C2218 C 0.48283 0.08683 0.42167 0.0
C2219 C 0.45911 0.05808 0.42097 0.0
C2220 C 0.44221 0.04326 0.41177 0.0
C2221 C 0.4914 0.08474 0.43844 0.0
C2222 C 0.48418 0.06867 0.44608 0.0
C2223 C 0.46781 0.05586 0.43752 0.0
C2224 C 0.49381 0.06403 0.46221 0.0
C2225 C 0.50814 0.09966 0.44766 0.0
C2226 C 0.51197 0.06314 0.46245 0.0
C2227 C 0.52023 0.0566 0.47672 0.0
C2228 C 0.51025 0.05036 0.49065 0.0
C2229 C 0.49218 0.05146 0.4905 0.0
C2230 C 0.48409 0.05834 0.47648 0.0
H2231 H 0.50778 0.11316 0.44396 0.0
H2232 H 0.50933 0.10045 0.46263 0.0
H2233 H 0.52062 0.09687 0.44312 0.0
H2234 H 0.51955 0.0669 0.45133 0.0
H2235 H 0.53417 0.05588 0.47655 0.0
H2236 H 0.78641 0.69568 0.095 0.0
H2237 H 0.78507 0.70875 0.12571 0.0
H2238 H 0.77827 0.7575 0.10625 0.0
H2239 H 0.77881 0.74407 0.07511 0.0
H2240 H 0.80549 0.73681 0.14759 0.0
H2241 H 0.73638 0.74667 0.13507 0.0
H2242 H 0.74549 0.73423 0.11832 0.0
H2243 H 0.75231 0.75881 0.12151 0.0
C2244 C 0.78467 0.70922 0.09716 0.0
C2245 C 0.78263 0.71876 0.08245 0.0
C2246 C 0.78389 0.7167 0.11483 0.0
C2247 C 0.78118 0.73401 0.11842 0.0
C2248 C 0.7798 0.7439 0.10387 0.0
H2249 H 0.80285 0.78901 0.23058 0.0
H2250 H 0.80384 0.78033 0.19846 0.0
C2251 C 0.78033 0.73629 0.08606 0.0
C2252 C 0.78006 0.7415 0.13745 0.0
H2253 H 0.75309 0.75847 0.16432 0.0
C2254 C 0.794 0.74154 0.1512 0.0
C2255 C 0.76494 0.74742 0.14236 0.0
C2256 C 0.74884 0.74663 0.12858 0.0
C2257 C 0.79326 0.74717 0.16955 0.0
C2258 C 0.77849 0.7537 0.1744 0.0
C2259 C 0.76453 0.75368 0.16068 0.0
C2260 C 0.77713 0.7602 0.19365 0.0
C2261 C 0.80805 0.74537 0.18357 0.0
C2262 C 0.76131 0.75266 0.20158 0.0
C2263 C 0.76051 0.75798 0.21996 0.0
C2264 C 0.77558 0.77084 0.23083 0.0
C2265 C 0.7911 0.77885 0.22269 0.0
C2266 C 0.79175 0.77378 0.2043 0.0
H2267 H 0.81468 0.73503 0.17836 0.0
H2268 H 0.81888 0.75866 0.18707 0.0
H2269 H 0.80243 0.74143 0.19612 0.0
H2270 H 0.74975 0.74227 0.19367 0.0
H2271 H 0.74836 0.75155 0.22579 0.0
H2272 H 0.10514 0.01193 0.72471 0.0
H2273 H 0.09099 0.01369 0.69456 0.0
H2274 H 0.06016 0.04737 0.7182 0.0
H2275 H 0.07443 0.04584 0.74858 0.0
H2276 H 0.05404 0.00399 0.67858 0.0
H2277 H 0.08746 0.07858 0.68267 0.0
H2278 H 0.09469 0.06507 0.69854 0.0
H2279 H 0.07409 0.07166 0.70046 0.0
C2280 C 0.09522 0.0196 0.72359 0.0
C2281 C 0.09105 0.02883 0.73917 0.0
C2282 C 0.08713 0.02059 0.70628 0.0
C2283 C 0.07475 0.03094 0.70403 0.0
C2284 C 0.06994 0.03959 0.71955 0.0
H2285 H 0.02832 0.05618 0.60031 0.0
H2286 H 0.03511 0.05468 0.63278 0.0
C2287 C 0.078 0.03855 0.73694 0.0
C2288 C 0.06732 0.03285 0.68539 0.0
H2289 H 0.06865 0.06361 0.65546 0.0
C2290 C 0.05714 0.01705 0.67358 0.0
C2291 C 0.07126 0.04991 0.67882 0.0
C2292 C 0.08258 0.06729 0.69068 0.0
C2293 C 0.05103 0.01778 0.65541 0.0
C2294 C 0.05555 0.03472 0.64865 0.0
C2295 C 0.0652 0.05062 0.6606 0.0
C2296 C 0.05146 0.03596 0.629 0.0
C2297 C 0.03977 1.00033 0.6436 0.0
C2298 C 0.05872 0.02633 0.61608 0.0
C2299 C 0.0549 0.02717 0.59761 0.0
C2300 C 0.04381 0.03781 0.59149 0.0
C2301 C 0.03687 0.04782 0.60448 0.0
C2302 C 0.04072 0.04696 0.62306 0.0
H2303 H 0.03265 0.99009 0.65183 0.0
H2304 H 0.02934 0.00289 0.63363 0.0
H2305 H 0.049 0.99432 0.63605 0.0
H2306 H 0.06742 0.01813 0.62028 0.0
H2307 H 0.06064 0.01933 0.58813 0.0
H2308 H 0.72949 0.37311 0.45859 0.0
H2309 H 0.71404 0.35608 0.42872 0.0
H2310 H 0.76671 0.36434 0.40954 0.0
H2311 H 0.78204 0.38077 0.4391 0.0
H2312 H 0.73178 0.36746 0.38397 0.0
H2313 H 0.72658 0.30405 0.41514 0.0
H2314 H 0.71956 0.32284 0.42571 0.0
H2315 H 0.74353 0.32481 0.42594 0.0
C2316 C 0.73762 0.37164 0.44778 0.0
C2317 C 0.75691 0.37802 0.45105 0.0
C2318 C 0.72882 0.36196 0.43082 0.0
C2319 C 0.73931 0.35903 0.41705 0.0
C2320 C 0.75843 0.36658 0.42002 0.0
H2321 H 0.77825 0.32321 0.33232 0.0
H2322 H 0.76423 0.33837 0.35455 0.0
C2323 C 0.76717 0.37586 0.4369 0.0
C2324 C 0.73139 0.3461 0.40035 0.0
H2325 H 0.73136 0.30294 0.38438 0.0
C2326 C 0.73083 0.35312 0.3839 0.0
C2327 C 0.72984 0.32738 0.4003 0.0
C2328 C 0.7298 0.31917 0.41768 0.0
C2329 C 0.73113 0.34239 0.36761 0.0
C2330 C 0.73265 0.32453 0.36807 0.0
C2331 C 0.73056 0.31677 0.3841 0.0
C2332 C 0.74012 0.31529 0.35355 0.0
C2333 C 0.73118 0.35075 0.35033 0.0
C2334 C 0.7317 0.29694 0.3462 0.0
C2335 C 0.73997 0.28803 0.3337 0.0
C2336 C 0.75681 0.29736 0.32845 0.0
C2337 C 0.76526 0.31565 0.33601 0.0
C2338 C 0.75707 0.32445 0.34852 0.0
H2339 H 0.72232 0.36003 0.35036 0.0
H2340 H 0.74534 0.35907 0.34935 0.0
H2341 H 0.72631 0.34015 0.33818 0.0
H2342 H 0.71878 0.28952 0.35016 0.0
H2343 H 0.73304 0.27396 0.32799 0.0
H2344 H 0.46122 0.05808 0.27607 0.0
H2345 H 0.4791 0.05523 0.25124 0.0
H2346 H 0.4299 0.04228 0.21273 0.0
H2347 H 0.41191 0.0454 0.23746 0.0
H2348 H 0.47206 0.02226 0.22951 0.0
H2349 H 0.46746 0.07655 0.18789 0.0
H2350 H 0.46233 0.07729 0.21093 0.0
H2351 H 0.44561 0.06326 0.1927 0.0
C2352 C 0.45426 0.05507 0.26229 0.0
C2353 C 0.43512 0.05179 0.25871 0.0
C2354 C 0.46451 0.05347 0.24814 0.0
C2355 C 0.45582 0.0486 0.23019 0.0
C2356 C 0.43691 0.04637 0.22648 0.0
H2357 H 0.48276 0.00694 0.12862 0.0
H2358 H 0.46805 0.01658 0.1539 0.0
C2359 C 0.42663 0.04808 0.24064 0.0
C2360 C 0.46604 0.04352 0.21574 0.0
H2361 H 0.47792 0.05233 0.17427 0.0
C2362 C 0.47354 0.02897 0.21752 0.0
C2363 C 0.46777 0.05222 0.2001 0.0
C2364 C 0.46051 0.06831 0.19781 0.0
C2365 C 0.48239 0.02257 0.20384 0.0
C2366 C 0.48397 0.03115 0.18813 0.0
C2367 C 0.47663 0.04581 0.18639 0.0
C2368 C 0.49288 0.02485 0.17316 0.0
C2369 C 0.48948 0.00635 0.20606 0.0
C2370 C 0.51167 0.02624 0.17575 0.0
C2371 C 0.52009 0.02058 0.16139 0.0
C2372 C 0.50982 0.01351 0.14423 0.0
C2373 C 0.49095 0.01202 0.14177 0.0
C2374 C 0.48257 0.01769 0.15611 0.0
H2375 H 0.48359 0.99888 0.21696 0.0
H2376 H 0.48624 0.9967 0.19321 0.0
H2377 H 0.50464 0.01115 0.20966 0.0
H2378 H 0.51987 0.03194 0.1888 0.0
H2379 H 0.53463 0.02183 0.16369 0.0
H2380 H 0.80419 0.71114 0.97667 0.0
H2381 H 0.8094 0.72143 0.94729 0.0
H2382 H 0.76504 0.74585 0.94953 0.0
H2383 H 0.76011 0.73608 0.97897 0.0
H2384 H 0.78747 0.71267 0.91575 0.0
H2385 H 0.80372 0.78719 0.93596 0.0
H2386 H 0.80293 0.77158 0.95234 0.0
H2387 H 0.78209 0.77532 0.9423 0.0
C2388 C 0.79572 0.71893 0.97103 0.0
C2389 C 0.78182 0.72289 0.98031 0.0
C2390 C 0.79868 0.72477 0.95417 0.0
C2391 C 0.78784 0.73474 0.94622 0.0
C2392 C 0.77396 0.73867 0.9555 0.0
H2393 H 0.76295 0.74213 0.83293 0.0
H2394 H 0.76491 0.73375 0.8633 0.0
C2395 C 0.77107 0.73295 0.97236 0.0
C2396 C 0.79033 0.7402 0.92786 0.0
H2397 H 0.79514 0.77637 0.90411 0.0
C2398 C 0.78935 0.72665 0.91327 0.0
C2399 C 0.79314 0.75848 0.92452 0.0
C2400 C 0.79573 0.77399 0.93965 0.0
C2401 C 0.79035 0.73072 0.89546 0.0
C2402 C 0.79193 0.74878 0.89195 0.0
C2403 C 0.79367 0.76246 0.90664 0.0
C2404 C 0.79118 0.75366 0.87316 0.0
C2405 C 0.78983 0.71557 0.8806 0.0
C2406 C 0.80504 0.76803 0.8685 0.0
C2407 C 0.80385 0.77304 0.85104 0.0
C2408 C 0.78873 0.76384 0.83786 0.0
C2409 C 0.77492 0.74944 0.84259 0.0
C2410 C 0.77607 0.74451 0.86 0.0
H2411 H 0.79487 0.70473 0.88607 0.0
H2412 H 0.77542 0.7092 0.87414 0.0
H2413 H 0.79826 0.7208 0.87003 0.0
H2414 H 0.81679 0.77541 0.8784 0.0
H2415 H 0.8147 0.78424 0.84795 0.0
H2416 H 0.83435 0.13611 0.01746 0.0
H2417 H 0.85098 0.12101 0.99738 0.0
H2418 H 0.83922 0.07456 0.02625 0.0
H2419 H 0.82277 0.08945 0.04632 0.0
H2420 H 0.88195 0.10823 0.00926 0.0
H2421 H 0.82356 0.05228 0.97184 0.0
H2422 H 0.82075 0.07306 0.98338 0.0
H2423 H 0.82308 0.05497 0.99588 0.0
C2424 C 0.83529 0.12266 0.01948 0.0
C2425 C 0.82728 0.11396 0.03348 0.0
C2426 C 0.84471 0.11406 0.00797 0.0
C2427 C 0.84595 0.09655 0.01014 0.0
C2428 C 0.83803 0.08791 0.02413 0.0
H2429 H 0.8977 0.01848 0.00053 0.0
H2430 H 0.8764 0.03676 0.0002 0.0
C2431 C 0.82879 0.09652 0.0357 0.0
C2432 C 0.85661 0.08756 0.99882 0.0
H2433 H 0.85332 0.04667 0.97393 0.0
C2434 C 0.87574 0.09501 0.00105 0.0
C2435 C 0.84836 0.07042 0.98805 0.0
C2436 C 0.82778 0.06228 0.98447 0.0
C2437 C 0.88701 0.08491 0.99431 0.0
C2438 C 0.87879 0.06707 0.98482 0.0
C2439 C 0.85957 0.06033 0.98123 0.0
C2440 C 0.88972 0.05414 0.98172 0.0
C2441 C 0.9076 0.09276 0.99879 0.0
C2442 C 0.90379 0.05732 0.97074 0.0
C2443 C 0.91607 0.04676 0.97084 0.0
C2444 C 0.91435 0.03284 0.98185 0.0
C2445 C 0.89935 0.02889 0.9917 0.0
C2446 C 0.88717 0.03941 0.99161 0.0
H2447 H 0.91163 0.10589 0.00811 0.0
H2448 H 0.91362 0.08297 0.00515 0.0
H2449 H 0.91369 0.09525 0.98613 0.0
H2450 H 0.90576 0.06843 0.96275 0.0
H2451 H 0.92733 0.04995 0.96288 0.0
H2452 H 0.34458 0.3884 0.04441 0.0
H2453 H 0.37524 0.4092 0.0448 0.0
H2454 H 0.3535 0.45526 0.05179 0.0
H2455 H 0.32284 0.43458 0.05189 0.0
H2456 H 0.38721 0.43318 0.02184 0.0
H2457 H 0.39676 0.47047 0.0915 0.0
H2458 H 0.37851 0.44965 0.08369 0.0
H2459 H 0.37639 0.47106 0.07773 0.0
C2460 C 0.34631 0.40296 0.04616 0.0
C2461 C 0.33123 0.40981 0.0482 0.0
C2462 C 0.36387 0.41484 0.04637 0.0
C2463 C 0.36675 0.43382 0.04861 0.0
C2464 C 0.35171 0.44071 0.05051 0.0
H2465 H 0.4634 0.52246 0.03791 0.0
H2466 H 0.43198 0.50397 0.03957 0.0
C2467 C 0.33416 0.42884 0.05044 0.0
C2468 C 0.38537 0.44627 0.04825 0.0
H2469 H 0.41929 0.48211 0.07272 0.0
C2470 C 0.39422 0.44384 0.03299 0.0
C2471 C 0.39453 0.46019 0.06282 0.0
C2472 C 0.38615 0.46293 0.07994 0.0
C2473 C 0.41191 0.45497 0.0319 0.0
C2474 C 0.42098 0.46887 0.0464 0.0
C2475 C 0.41217 0.47147 0.06159 0.0
C2476 C 0.43996 0.48035 0.04622 0.0
C2477 C 0.42088 0.45187 0.01525 0.0
C2478 C 0.45475 0.4732 0.04966 0.0
C2479 C 0.47267 0.4837 0.04883 0.0
C2480 C 0.47612 0.50155 0.04444 0.0
C2481 C 0.46123 0.50877 0.04128 0.0
C2482 C 0.44329 0.49826 0.04224 0.0
H2483 H 0.41116 0.4421 0.00422 0.0
H2484 H 0.42651 0.46501 0.01013 0.0
H2485 H 0.43253 0.44635 0.01885 0.0
H2486 H 0.4524 0.45941 0.05282 0.0
H2487 H 0.48377 0.47769 0.05134 0.0
H2488 H 0.38478 0.56872 0.74547 0.0
H2489 H 0.3684 0.59154 0.75049 0.0
H2490 H 0.39268 0.60433 0.80657 0.0
H2491 H 0.4096 0.58175 0.80149 0.0
H2492 H 0.34299 0.59268 0.77241 0.0
H2493 H 0.40245 0.65476 0.7922 0.0
H2494 H 0.40492 0.63323 0.78234 0.0
H2495 H 0.40245 0.63709 0.80595 0.0
C2496 C 0.38678 0.57646 0.75887 0.0
C2497 C 0.39857 0.57344 0.77308 0.0
C2498 C 0.37736 0.58952 0.76172 0.0
C2499 C 0.37945 0.59986 0.77884 0.0
C2500 C 0.39116 0.59685 0.79312 0.0
H2501 H 0.32202 0.67817 0.81687 0.0
H2502 H 0.34026 0.65642 0.81527 0.0
C2503 C 0.40074 0.58385 0.79023 0.0
C2504 C 0.36878 0.61326 0.78169 0.0
H2505 H 0.37289 0.65844 0.7945 0.0
C2506 C 0.34957 0.60706 0.77723 0.0
C2507 C 0.37732 0.63204 0.78801 0.0
C2508 C 0.39792 0.63975 0.79225 0.0
C2509 C 0.33872 0.61907 0.77884 0.0
C2510 C 0.34727 0.63781 0.785 0.0
C2511 C 0.3664 0.64403 0.7898 0.0
C2512 C 0.33653 0.65121 0.786 0.0
C2513 C 0.31815 0.61166 0.77396 0.0
C2514 C 0.32858 0.65561 0.77006 0.0
C2515 C 0.31823 0.66804 0.77091 0.0
C2516 C 0.31555 0.67628 0.78774 0.0
C2517 C 0.32365 0.67191 0.8037 0.0
C2518 C 0.33415 0.65958 0.80282 0.0
H2519 H 0.31339 0.59653 0.77278 0.0
H2520 H 0.31106 0.61753 0.78426 0.0
H2521 H 0.31401 0.61562 0.76073 0.0
H2522 H 0.33036 0.64937 0.75693 0.0
H2523 H 0.31206 0.67099 0.75838 0.0
H2524 H 0.25861 0.59906 0.56201 0.0
H2525 H 0.22613 0.58136 0.55855 0.0
H2526 H 0.21065 0.63137 0.56272 0.0
H2527 H 0.24287 0.64903 0.56547 0.0
H2528 H 0.1991 0.57959 0.57902 0.0
H2529 H 0.18097 0.60485 0.51554 0.0
H2530 H 0.20446 0.60888 0.5255 0.0
H2531 H 0.19109 0.62336 0.53355 0.0
C2532 C 0.24825 0.60625 0.56227 0.0
C2533 C 0.25322 0.6254 0.56375 0.0
C2534 C 0.22973 0.59614 0.56027 0.0
C2535 C 0.21597 0.60505 0.55986 0.0
C2536 C 0.22101 0.6242 0.56236 0.0
H2537 H 0.1031 0.56509 0.57671 0.0
H2538 H 0.1365 0.57703 0.57963 0.0
C2539 C 0.23944 0.63427 0.56406 0.0
C2540 C 0.1963 0.59444 0.55668 0.0
H2541 H 0.15581 0.59055 0.53068 0.0
C2542 C 0.18964 0.58181 0.56833 0.0
C2543 C 0.18406 0.597 0.54244 0.0
C2544 C 0.19055 0.60911 0.52843 0.0
C2545 C 0.17091 0.57224 0.56659 0.0
C2546 C 0.15847 0.57586 0.5532 0.0
C2547 C 0.16528 0.58795 0.54112 0.0
C2548 C 0.13831 0.56773 0.55169 0.0
C2549 C 0.16473 0.55825 0.57901 0.0
C2550 C 0.12812 0.55903 0.53489 0.0
C2551 C 0.10898 0.55264 0.53308 0.0
C2552 C 0.0997 0.55467 0.54809 0.0
C2553 C 0.10991 0.56315 0.56495 0.0
C2554 C 0.12902 0.56983 0.56668 0.0
H2555 H 0.176 0.55257 0.58363 0.0
H2556 H 0.16069 0.56487 0.59122 0.0
H2557 H 0.15278 0.5468 0.57225 0.0
H2558 H 0.13498 0.55734 0.52311 0.0
H2559 H 0.10146 0.54609 0.51993 0.0
H2560 H 0.71412 0.97484 0.7562 0.0
H2561 H 0.72715 0.95649 0.77521 0.0
H2562 H 0.69777 0.97015 0.81836 0.0
H2563 H 0.68443 0.98859 0.79931 0.0
H2564 H 0.74131 0.97388 0.82508 0.0
H2565 H 0.69313 0.90707 0.79287 0.0
H2566 H 0.70154 0.92308 0.7777 0.0
H2567 H 0.68704 0.92823 0.79371 0.0
C2568 C 0.71038 0.97397 0.76971 0.0
C2569 C 0.69821 0.98311 0.77625 0.0
C2570 C 0.71784 0.96349 0.78053 0.0
C2571 C 0.71335 0.96203 0.79808 0.0
C2572 C 0.70133 0.97119 0.8048 0.0
H2573 H 0.75141 0.87638 0.84085 0.0
H2574 H 0.73392 0.89867 0.84054 0.0
C2575 C 0.69371 0.98162 0.79389 0.0
C2576 C 0.72129 0.95064 0.80906 0.0
H2577 H 0.72143 0.90646 0.80886 0.0
C2578 C 0.73677 0.9591 0.82194 0.0
C2579 C 0.71512 0.93143 0.80504 0.0
C2580 C 0.6982 0.92182 0.79167 0.0
C2581 C 0.74708 0.94877 0.82997 0.0
C2582 C 0.74185 0.92964 0.82468 0.0
C2583 C 0.72551 0.92114 0.81287 0.0
C2584 C 0.75413 0.91837 0.82907 0.0
C2585 C 0.7638 0.95849 0.84353 0.0
C2586 C 0.77153 0.92231 0.82326 0.0
C2587 C 0.78153 0.90961 0.82343 0.0
C2588 C 0.77416 0.89268 0.82919 0.0
C2589 C 0.7573 0.88927 0.83615 0.0
C2590 C 0.74735 0.90201 0.83607 0.0
H2591 H 0.76206 0.97106 0.85102 0.0
H2592 H 0.76665 0.94955 0.85342 0.0
H2593 H 0.77591 0.96267 0.83625 0.0
H2594 H 0.77684 0.93461 0.81736 0.0
H2595 H 0.79438 0.91251 0.8178 0.0
H2596 H 0.74559 0.93412 0.57394 0.0
H2597 H 0.72232 0.94951 0.56691 0.0
H2598 H 0.70376 0.91408 0.51582 0.0
H2599 H 0.72698 0.89837 0.52287 0.0
H2600 H 0.71836 0.9683 0.53807 0.0
H2601 H 0.65591 0.91039 0.53766 0.0
H2602 H 0.6785 0.91013 0.5471 0.0
H2603 H 0.67185 0.90586 0.52298 0.0
C2604 C 0.73651 0.92948 0.56124 0.0
C2605 C 0.73813 0.91494 0.54899 0.0
C2606 C 0.72321 0.93834 0.55723 0.0
C2607 C 0.71115 0.93286 0.54093 0.0
C2608 C 0.7127 0.91835 0.52863 0.0
H2609 H 0.64521 1.00044 0.49947 0.0
H2610 H 0.66693 0.98247 0.50298 0.0
C2611 C 0.72604 0.90943 0.53264 0.0
C2612 C 0.69738 0.94277 0.53677 0.0
H2613 H 0.65126 0.93777 0.52946 0.0
C2614 C 0.70369 0.96161 0.53611 0.0
C2615 C 0.67824 0.93407 0.53442 0.0
C2616 C 0.67064 0.91404 0.53571 0.0
C2617 C 0.69141 0.972 0.53324 0.0
C2618 C 0.67226 0.96327 0.53067 0.0
C2619 C 0.66594 0.94442 0.53129 0.0
C2620 C 0.65861 0.97363 0.52806 0.0
C2621 C 0.69906 0.99233 0.53353 0.0
C2622 C 0.64635 0.97426 0.54071 0.0
C2623 C 0.6339 0.98451 0.53875 0.0
C2624 C 0.63338 0.99433 0.52402 0.0
C2625 C 0.64545 0.99335 0.51115 0.0
C2626 C 0.65788 0.98306 0.51312 0.0
H2627 H 0.71363 0.99748 0.5399 0.0
H2628 H 0.6984 0.99547 0.51943 0.0
H2629 H 0.69089 0.99984 0.54102 0.0
H2630 H 0.64666 0.96709 0.55234 0.0
H2631 H 0.62498 0.98509 0.54903 0.0
H2632 H 0.37558 0.48557 0.75728 0.0
H2633 H 0.35342 0.45571 0.75732 0.0
H2634 H 0.3962 0.43686 0.78341 0.0
H2635 H 0.41841 0.46655 0.7835 0.0
H2636 H 0.35495 0.42021 0.74167 0.0
H2637 H 0.35479 0.42629 0.81615 0.0
H2638 H 0.3633 0.44577 0.80471 0.0
H2639 H 0.37727 0.43098 0.80921 0.0
C2640 C 0.38028 0.47509 0.76305 0.0
C2641 C 0.39878 0.47851 0.77046 0.0
C2642 C 0.3676 0.45804 0.76303 0.0
C2643 C 0.37314 0.4442 0.77059 0.0
C2644 C 0.3916 0.44748 0.77778 0.0
H2645 H 0.32691 0.32802 0.75989 0.0
H2646 H 0.34403 0.35941 0.75779 0.0
C2647 C 0.40429 0.46444 0.77773 0.0
C2648 C 0.35975 0.42618 0.77079 0.0
H2649 H 0.34076 0.39676 0.79926 0.0
C2650 C 0.3517 0.41512 0.75424 0.0
C2651 C 0.35538 0.41969 0.78721 0.0
C2652 C 0.36298 0.43134 0.80535 0.0
C2653 C 0.33989 0.39743 0.7537 0.0
C2654 C 0.33621 0.39063 0.77014 0.0
C2655 C 0.34372 0.40195 0.78667 0.0
C2656 C 0.32517 0.37157 0.77054 0.0
C2657 C 0.33149 0.38615 0.73554 0.0
C2658 C 0.30898 0.36798 0.77862 0.0
C2659 C 0.29914 0.35001 0.77989 0.0
C2660 C 0.30544 0.33531 0.77327 0.0
C2661 C 0.32162 0.33898 0.76508 0.0
C2662 C 0.33138 0.35693 0.76376 0.0
H2663 H 0.33156 0.39484 0.72464 0.0
H2664 H 0.33959 0.37661 0.73201 0.0
H2665 H 0.31713 0.37794 0.73594 0.0
H2666 H 0.30403 0.37911 0.78404 0.0
H2667 H 0.28678 0.34768 0.78632 0.0
H2668 H 0.21799 0.56783 0.26083 0.0
H2669 H 0.23439 0.60053 0.26591 0.0
H2670 H 0.18452 0.6124 0.24613 0.0
H2671 H 0.1679 0.57991 0.24219 0.0
H2672 H 0.24234 0.62618 0.24608 0.0
H2673 H 0.19706 0.64443 0.29332 0.0
H2674 H 0.19558 0.62104 0.28539 0.0
H2675 H 0.18396 0.63359 0.27188 0.0
C2676 C 0.21059 0.57748 0.25757 0.0
C2677 C 0.19167 0.57148 0.25138 0.0
C2678 C 0.21994 0.59612 0.26047 0.0
C2679 C 0.21056 0.60898 0.25692 0.0
C2680 C 0.19188 0.60282 0.24968 0.0
H2681 H 0.26013 0.72137 0.24353 0.0
H2682 H 0.24856 0.68805 0.2399 0.0
C2683 C 0.18244 0.58427 0.24727 0.0
C2684 C 0.22019 0.6288 0.26088 0.0
H2685 H 0.21609 0.66917 0.28097 0.0
C2686 C 0.23673 0.63558 0.2539 0.0
C2687 C 0.21317 0.64103 0.27151 0.0
C2688 C 0.19659 0.6346 0.28112 0.0
C2689 C 0.24613 0.6543 0.25677 0.0
C2690 C 0.2383 0.66666 0.26617 0.0
C2691 C 0.22203 0.65979 0.27356 0.0
C2692 C 0.24646 0.68677 0.2684 0.0
C2693 C 0.26448 0.66048 0.24999 0.0
C2694 C 0.2486 0.69725 0.2855 0.0
C2695 C 0.25445 0.71627 0.28741 0.0
C2696 C 0.2587 0.72514 0.27235 0.0
C2697 C 0.25712 0.71475 0.25536 0.0
C2698 C 0.2507 0.69572 0.25333 0.0
H2699 H 0.27141 0.64953 0.24944 0.0
H2700 H 0.26232 0.6637 0.23601 0.0
H2701 H 0.27376 0.67281 0.25872 0.0
H2702 H 0.24543 0.69071 0.29734 0.0
H2703 H 0.25568 0.72406 0.30067 0.0
H2704 H 0.52974 0.73288 0.50861 0.0
H2705 H 0.5296 0.70345 0.51815 0.0
H2706 H 0.49869 0.67567 0.46671 0.0
H2707 H 0.49766 0.70509 0.45775 0.0
H2708 H 0.48713 0.6554 0.48934 0.0
H2709 H 0.56237 0.67435 0.50714 0.0
H2710 H 0.55301 0.68907 0.52095 0.0
H2711 H 0.55125 0.6892 0.49675 0.0
C2712 C 0.52279 0.72049 0.49937 0.0
C2713 C 0.51376 0.72149 0.48235 0.0
C2714 C 0.52293 0.70354 0.50475 0.0
C2715 C 0.51473 0.68698 0.49301 0.0
C2716 C 0.5053 0.688 0.47615 0.0
H2717 H 0.54705 0.58828 0.50994 0.0
H2718 H 0.54342 0.61676 0.50103 0.0
C2719 C 0.50471 0.70494 0.47098 0.0
C2720 C 0.51588 0.66872 0.49821 0.0
H2721 H 0.54541 0.64696 0.51667 0.0
C2722 C 0.49996 0.65361 0.49519 0.0
C2723 C 0.53257 0.66583 0.50557 0.0
C2724 C 0.55077 0.68042 0.50759 0.0
C2725 C 0.50022 0.63611 0.49928 0.0
C2726 C 0.51672 0.63351 0.50757 0.0
C2727 C 0.53261 0.64863 0.51055 0.0
C2728 C 0.51821 0.61528 0.51257 0.0
C2729 C 0.48284 0.62051 0.49391 0.0
C2730 C 0.50534 0.60435 0.52209 0.0
C2731 C 0.50713 0.58755 0.52673 0.0
C2732 C 0.52225 0.58145 0.52263 0.0
C2733 C 0.53526 0.59248 0.51344 0.0
C2734 C 0.53319 0.60895 0.50836 0.0
H2735 H 0.4739 0.62317 0.48254 0.0
H2736 H 0.48587 0.60747 0.48973 0.0
H2737 H 0.47494 0.61896 0.50558 0.0
H2738 H 0.49399 0.6089 0.52627 0.0
H2739 H 0.49693 0.57958 0.53397 0.0
H2740 H 0.63052 0.30734 0.63591 0.0
H2741 H 0.65804 0.3056 0.65465 0.0
H2742 H 0.62936 0.30355 0.70146 0.0
H2743 H 0.60172 0.30462 0.68275 0.0
H2744 H 0.68072 0.32537 0.68372 0.0
H2745 H 0.6453 0.25847 0.70277 0.0
H2746 H 0.63485 0.26856 0.68562 0.0
H2747 H 0.63432 0.27553 0.70928 0.0
C2748 C 0.63012 0.30671 0.65024 0.0
C2749 C 0.61377 0.30594 0.65773 0.0
C2750 C 0.64589 0.30565 0.66096 0.0
C2751 C 0.64573 0.30386 0.67945 0.0
C2752 C 0.62976 0.30423 0.68715 0.0
H2753 H 0.725 0.29802 0.76881 0.0
H2754 H 0.69932 0.30225 0.74919 0.0
C2755 C 0.61396 0.30505 0.67642 0.0
C2756 C 0.66205 0.3013 0.69061 0.0
H2757 H 0.67492 0.27379 0.71917 0.0
C2758 C 0.67943 0.31401 0.69134 0.0
C2759 C 0.66058 0.28637 0.70053 0.0
C2760 C 0.6428 0.27136 0.69938 0.0
C2761 C 0.69509 0.31248 0.70203 0.0
C2762 C 0.69344 0.29788 0.71229 0.0
C2763 C 0.67617 0.28508 0.71144 0.0
C2764 C 0.70942 0.29568 0.72412 0.0
C2765 C 0.71329 0.3267 0.7026 0.0
C2766 C 0.72365 0.29042 0.7166 0.0
C2767 C 0.7383 0.28778 0.7278 0.0
C2768 C 0.73915 0.29048 0.74682 0.0
C2769 C 0.7249 0.29586 0.75427 0.0
C2770 C 0.71016 0.29828 0.74306 0.0
H2771 H 0.71182 0.3386 0.69607 0.0
H2772 H 0.71986 0.3316 0.71684 0.0
H2773 H 0.72262 0.32051 0.69542 0.0
H2774 H 0.72331 0.28815 0.70202 0.0
H2775 H 0.749 0.28368 0.72153 0.0
H2776 H 0.98354 0.31837 0.99704 0.0
H2777 H 0.98798 0.35122 0.00451 0.0
H2778 H 0.03018 0.36208 0.96969 0.0
H2779 H 0.02555 0.32919 0.96189 0.0
H2780 H 0.01656 0.37987 0.02035 0.0
H2781 H 0.99801 0.39101 0.95005 0.0
H2782 H 0.99431 0.36848 0.9564 0.0
H2783 H 0.01678 0.38128 0.95246 0.0
C2784 C 0.99386 0.32771 0.99101 0.0
C2785 C 1.00412 0.32094 0.97876 0.0
C2786 C 0.99637 0.3466 0.9953 0.0
C2787 C 0.00915 0.35938 0.98741 0.0
C2788 C 0.01986 0.35267 0.97564 0.0
H2789 H 0.04128 0.47944 0.99597 0.0
H2790 H 0.03835 0.44682 0.98887 0.0
C2791 C 0.01733 0.33376 0.97132 0.0
C2792 C 0.01121 0.37958 0.99157 0.0
H2793 H 0.00962 0.41751 0.97199 0.0
C2794 C 0.01497 0.38804 0.00973 0.0
C2795 C 0.00917 0.39049 0.97784 0.0
C2796 C 1.00417 0.38236 0.95811 0.0
C2797 C 0.01701 0.40688 0.01448 0.0
C2798 C 0.01493 0.41777 0.00076 0.0
C2799 C 0.01126 0.40934 0.98259 0.0
C2800 C 0.01645 0.43783 0.00496 0.0
C2801 C 0.02184 0.41503 0.03421 0.0
C2802 C 1.00492 0.44394 0.01612 0.0
C2803 C 1.00653 0.46268 0.02019 0.0
C2804 C 0.01967 0.47595 0.01314 0.0
C2805 C 0.03098 0.46977 0.00169 0.0
C2806 C 0.02932 0.45101 0.9976 0.0
H2807 H 0.02802 0.40643 0.04233 0.0
H2808 H 0.03162 0.42896 0.03595 0.0
H2809 H 0.00916 0.41602 0.03976 0.0
H2810 H 0.99456 0.43419 0.02169 0.0
H2811 H 0.99751 0.46675 0.029 0.0
H2812 H 0.01288 0.77263 0.18033 0.0
H2813 H 0.98756 0.77364 0.19756 0.0
H2814 H 0.96978 0.80712 0.1614 0.0
H2815 H 0.99528 0.8063 0.14402 0.0
H2816 H 0.97969 0.8073 0.21445 0.0
H2817 H 0.92319 0.76222 0.16306 0.0
H2818 H 0.94678 0.76201 0.16308 0.0
H2819 H 0.93968 0.78066 0.15562 0.0
C2820 C 1.0036 0.78021 0.17597 0.0
C2821 C 1.00611 0.78935 0.16072 0.0
C2822 C 0.98914 0.78079 0.18588 0.0
C2823 C 0.97669 0.79033 0.18071 0.0
C2824 C 0.97913 0.79953 0.16553 0.0
H2825 H 0.87555 0.79378 0.22563 0.0
H2826 H 0.9006 0.79793 0.20707 0.0
C2827 C 0.99374 0.79909 0.15566 0.0
C2828 C 0.96135 0.79069 0.19141 0.0
H2829 H 0.91494 0.7734 0.19051 0.0
C2830 C 0.96551 0.79997 0.2092 0.0
C2831 C 0.94286 0.78124 0.1845 0.0
C2832 C 0.93772 0.77085 0.16556 0.0
C2833 C 0.9517 0.79998 0.22031 0.0
C2834 C 0.93324 0.78996 0.21366 0.0
C2835 C 0.92905 0.78102 0.19568 0.0
C2836 C 0.91821 0.78804 0.2253 0.0
C2837 C 0.95706 0.81097 0.23899 0.0
C2838 C 0.91959 0.78098 0.24171 0.0
C2839 C 0.9054 0.77884 0.2525 0.0
C2840 C 0.88925 0.78343 0.24704 0.0
C2841 C 0.88784 0.79038 0.23049 0.0
C2842 C 0.90213 0.79262 0.21975 0.0
H2843 H 0.96987 0.82234 0.2397 0.0
H2844 H 0.94602 0.81677 0.24307 0.0
H2845 H 0.95967 0.80199 0.24893 0.0
H2846 H 0.93161 0.7769 0.24614 0.0
H2847 H 0.90716 0.77363 0.26519 0.0
H2848 H 0.50263 0.30395 0.16501 0.0
H2849 H 0.50317 0.33055 0.14944 0.0
H2850 H 0.53799 0.31427 0.1131 0.0
H2851 H 0.5376 0.28783 0.12852 0.0
H2852 H 0.53583 0.35938 0.14409 0.0
H2853 H 0.49468 0.32155 0.0792 0.0
H2854 H 0.49439 0.31169 0.09999 0.0
H2855 H 0.51332 0.31315 0.08723 0.0
C2856 C 0.51032 0.30599 0.15364 0.0
C2857 C 0.52002 0.2937 0.14799 0.0
C2858 C 0.51065 0.32122 0.14478 0.0
C2859 C 0.52045 0.3243 0.12997 0.0
C2860 C 0.53011 0.31205 0.12432 0.0
H2861 H 0.54385 0.4025 0.05479 0.0
H2862 H 0.54045 0.3768 0.07186 0.0
C2863 C 0.52992 0.29695 0.13322 0.0
C2864 C 0.52106 0.34051 0.12059 0.0
H2865 H 0.51011 0.3529 0.07946 0.0
C2866 C 0.53006 0.35802 0.13001 0.0
C2867 C 0.51362 0.3387 0.10219 0.0
C2868 C 0.50331 0.32029 0.09154 0.0
C2869 C 0.53236 0.37371 0.12137 0.0
C2870 C 0.52505 0.37189 0.10288 0.0
C2871 C 0.51577 0.35436 0.09358 0.0
C2872 C 0.52728 0.38788 0.09276 0.0
C2873 C 0.54325 0.39197 0.13196 0.0
C2874 C 0.52087 0.40271 0.09865 0.0
C2875 C 0.52305 0.41763 0.08902 0.0
C2876 C 0.5315 0.41801 0.07312 0.0
C2877 C 0.53762 0.40296 0.06713 0.0
C2878 C 0.53553 0.38812 0.07681 0.0
H2879 H 0.55211 0.39042 0.14401 0.0
H2880 H 0.55207 0.4005 0.12339 0.0
H2881 H 0.53363 0.39934 0.13682 0.0
H2882 H 0.51408 0.40273 0.11065 0.0
H2883 H 0.51826 0.42896 0.09418 0.0
H2884 H 0.97964 0.31184 0.36829 0.0
H2885 H 0.94814 0.3089 0.35615 0.0
H2886 H 0.95431 0.27781 0.30692 0.0
H2887 H 0.98613 0.2803 0.31931 0.0
H2888 H 0.93311 0.3202 0.32834 0.0
H2889 H 0.90753 0.24457 0.31868 0.0
H2890 H 0.92985 0.25697 0.33082 0.0
H2891 H 0.92629 0.25346 0.30645 0.0
C2892 C 0.97446 0.30433 0.35484 0.0
C2893 C 0.98567 0.29623 0.34489 0.0
C2894 C 0.95627 0.30269 0.34787 0.0
C2895 C 0.94846 0.29287 0.33067 0.0
C2896 C 0.95969 0.2851 0.32041 0.0
H2897 H 0.84227 0.30288 0.28025 0.0
H2898 H 0.87481 0.3052 0.28782 0.0
C2899 C 0.97803 0.28669 0.32745 0.0
C2900 C 0.92868 0.29112 0.32381 0.0
H2901 H 0.88645 0.26021 0.30912 0.0
C2902 C 0.92296 0.30704 0.32407 0.0
C2903 C 0.91516 0.274 0.31844 0.0
C2904 C 0.91991 0.25625 0.31871 0.0
C2905 C 0.90439 0.30639 0.31933 0.0
C2906 C 0.89092 0.2893 0.31366 0.0
C2907 C 0.89663 0.27335 0.3133 0.0
C2908 C 0.87082 0.28764 0.30864 0.0
C2909 C 0.89935 0.32407 0.32116 0.0
C2910 C 0.85733 0.27654 0.31729 0.0
C2911 C 0.83857 0.27502 0.31283 0.0
C2912 C 0.83267 0.28456 0.29954 0.0
C2913 C 0.84617 0.29552 0.29074 0.0
C2914 C 0.86492 0.29694 0.29514 0.0
H2915 H 0.9099 0.33503 0.33051 0.0
H2916 H 0.89838 0.32872 0.3077 0.0
H2917 H 0.8859 0.32231 0.32626 0.0
H2918 H 0.86132 0.2691 0.32768 0.0
H2919 H 0.82869 0.26632 0.31984 0.0
H2920 H 0.01736 0.71797 0.63523 0.0
H2921 H 0.01973 0.69038 0.61741 0.0
H2922 H 1.00126 0.65923 0.65987 0.0
H2923 H 0.9987 0.68683 0.67782 0.0
H2924 H 0.04283 0.67005 0.62819 0.0
H2925 H 0.97044 0.62636 0.61434 0.0
H2926 H 0.97651 0.65064 0.62182 0.0
H2927 H 0.97867 0.63531 0.63777 0.0
C2928 C 0.01344 0.70522 0.64071 0.0
C2929 C 0.00781 0.70473 0.65804 0.0
C2930 C 0.01488 0.68942 0.63048 0.0
C2931 C 0.0106 0.67263 0.63719 0.0
C2932 C 1.00436 0.67191 0.65421 0.0
H2933 H 0.02159 0.56545 0.59544 0.0
H2934 H 0.01552 0.59112 0.61363 0.0
C2935 C 1.00294 0.68776 0.66451 0.0
C2936 C 0.014 0.65635 0.62691 0.0
H2937 H 0.99319 0.61267 0.60579 0.0
C2938 C 0.03194 0.65753 0.62325 0.0
C2939 C 0.99987 0.6399 0.62059 0.0
C2940 C 0.98025 0.63793 0.62367 0.0
C2941 C 0.03617 0.6428 0.61357 0.0
C2942 C 0.02199 0.62646 0.60692 0.0
C2943 C 1.00407 0.62516 0.61079 0.0
C2944 C 0.02549 0.61073 0.5957 0.0
C2945 C 0.05591 0.64479 0.6109 0.0
C2946 C 0.03287 0.61303 0.57938 0.0
C2947 C 0.03646 0.59841 0.56898 0.0
C2948 C 0.03257 0.58101 0.57454 0.0
C2949 C 0.02486 0.57864 0.59074 0.0
C2950 C 0.02132 0.59332 0.60116 0.0
H2951 H 0.06558 0.65554 0.6212 0.0
H2952 H 0.05933 0.63175 0.61165 0.0
H2953 H 0.05814 0.64882 0.59735 0.0
H2954 H 0.0358 0.62616 0.57458 0.0
H2955 H 0.04221 0.60077 0.55653 0.0
H2956 H 0.59896 0.78235 0.86472 0.0
H2957 H 0.62689 0.78006 0.85275 0.0
H2958 H 0.61957 0.81604 0.8143 0.0
H2959 H 0.59093 0.81776 0.82581 0.0
H2960 H 0.63227 0.79084 0.79844 0.0
H2961 H 0.6758 0.81633 0.8645 0.0
H2962 H 0.65778 0.79614 0.86588 0.0
H2963 H 0.65221 0.8166 0.86106 0.0
C2964 C 0.60319 0.78979 0.85367 0.0
C2965 C 0.59262 0.8004 0.8464 0.0
C2966 C 0.61939 0.7886 0.84691 0.0
C2967 C 0.62595 0.79835 0.83294 0.0
C2968 C 0.61509 0.80849 0.8252 0.0
H2969 H 0.74125 0.81533 0.81459 0.0
H2970 H 0.71207 0.8188 0.82273 0.0
C2971 C 0.59864 0.80946 0.8318 0.0
C2972 C 0.64399 0.79785 0.82653 0.0
H2973 H 0.68906 0.80212 0.8416 0.0
C2974 C 0.64469 0.79344 0.80791 0.0
C2975 C 0.66054 0.80162 0.83865 0.0
C2976 C 0.66162 0.80814 0.85859 0.0
C2977 C 0.66109 0.79223 0.80124 0.0
C2978 C 0.67736 0.7949 0.8135 0.0
C2979 C 0.67673 0.79975 0.83206 0.0
C2980 C 0.69522 0.79303 0.80754 0.0
C2981 C 0.66081 0.78857 0.781 0.0
C2982 C 0.69591 0.77739 0.79622 0.0
C2983 C 0.71269 0.77555 0.79121 0.0
C2984 C 0.72941 0.78907 0.79772 0.0
C2985 C 0.72875 0.80461 0.8092 0.0
C2986 C 0.71195 0.80659 0.81395 0.0
H2987 H 0.64989 0.79311 0.77363 0.0
H2988 H 0.6742 0.79561 0.77685 0.0
H2989 H 0.65781 0.77366 0.77674 0.0
H2990 H 0.68351 0.76634 0.79149 0.0
H2991 H 0.71259 0.76326 0.78258 0.0
H2992 H 0.4499 0.55658 0.71825 0.0
H2993 H 0.46237 0.55803 0.68949 0.0
H2994 H 0.49557 0.5236 0.70495 0.0
H2995 H 0.48356 0.52255 0.73409 0.0
H2996 H 0.51428 0.54996 0.68726 0.0
H2997 H 0.44548 0.51684 0.6481 0.0
H2998 H 0.44643 0.53757 0.66218 0.0
H2999 H 0.44966 0.51838 0.6724 0.0
C3000 C 0.45999 0.54943 0.71564 0.0
C3001 C 0.46558 0.53929 0.72846 0.0
C3002 C 0.46701 0.55017 0.69909 0.0
C3003 C 0.47952 0.54049 0.69475 0.0
C3004 C 0.4858 0.53105 0.70786 0.0
H3005 H 0.49728 0.50804 0.58481 0.0
H3006 H 0.48873 0.50977 0.61533 0.0
C3007 C 0.47894 0.53049 0.72456 0.0
C3008 C 0.48562 0.53981 0.67641 0.0
H3009 H 0.46953 0.52886 0.63116 0.0
C3010 C 0.5045 0.5453 0.67499 0.0
C3011 C 0.4729 0.53342 0.66034 0.0
C3012 C 0.45251 0.52604 0.66079 0.0
C3013 C 0.51097 0.54482 0.65802 0.0
C3014 C 0.49821 0.53911 0.64194 0.0
C3015 C 0.47935 0.53345 0.6434 0.0
C3016 C 0.50399 0.53823 0.62345 0.0
C3017 C 0.53144 0.54996 0.65757 0.0
C3018 C 0.51535 0.55368 0.61761 0.0
C3019 C 0.52044 0.55266 0.60012 0.0
C3020 C 0.51402 0.53626 0.58795 0.0
C3021 C 0.50245 0.52092 0.59375 0.0
C3022 C 0.49754 0.52189 0.61126 0.0
H3023 H 0.53899 0.54873 0.6706 0.0
H3024 H 0.53497 0.54124 0.64649 0.0
H3025 H 0.53632 0.56439 0.65523 0.0
H3026 H 0.52012 0.5666 0.6265 0.0
H3027 H 0.52925 0.56478 0.59607 0.0
H3028 H 0.81336 0.17271 0.99901 0.0
H3029 H 0.81517 0.188 0.97193 0.0
H3030 H 0.78787 0.22519 0.99571 0.0
H3031 H 0.78633 0.21035 0.02276 0.0
H3032 H 0.78553 0.18957 0.94973 0.0
H3033 H 0.82877 0.25975 0.97589 0.0
H3034 H 0.82795 0.24087 0.98844 0.0
H3035 H 0.81061 0.25267 0.9893 0.0
C3036 C 0.80807 0.18436 0.99857 0.0
C3037 C 0.79967 0.19031 0.01297 0.0
C3038 C 0.80912 0.19307 0.98313 0.0
C3039 C 0.80194 0.20791 0.98197 0.0
C3040 C 0.79396 0.2141 0.99652 0.0
H3041 H 0.75495 0.26087 0.90631 0.0
H3042 H 0.76617 0.24806 0.93211 0.0
C3043 C 0.79292 0.20546 0.01192 0.0
C3044 C 0.80077 0.21573 0.96491 0.0
H3045 H 0.80747 0.25636 0.94851 0.0
C3046 C 0.79071 0.20412 0.94931 0.0
C3047 C 0.80757 0.2347 0.96443 0.0
C3048 C 0.81949 0.24767 0.98039 0.0
C3049 C 0.78624 0.21115 0.93357 0.0
C3050 C 0.79205 0.23021 0.93354 0.0
C3051 C 0.8029 0.24174 0.94877 0.0
C3052 C 0.78595 0.23845 0.91817 0.0
C3053 C 0.77457 0.19833 0.91739 0.0
C3054 C 0.79356 0.23734 0.902 0.0
C3055 C 0.78729 0.24472 0.88733 0.0
C3056 C 0.77326 0.25325 0.8886 0.0
C3057 C 0.76584 0.25449 0.90496 0.0
C3058 C 0.77218 0.24717 0.91965 0.0
H3059 H 0.76996 0.184 0.92014 0.0
H3060 H 0.76228 0.20277 0.9133 0.0
H3061 H 0.78256 0.19876 0.90578 0.0
H3062 H 0.80432 0.23077 0.90076 0.0
H3063 H 0.79357 0.24391 0.87504 0.0
H3064 H 0.10193 0.48909 0.2149 0.0
H3065 H 0.08142 0.48602 0.18689 0.0
H3066 H 0.12736 0.49245 0.1566 0.0
H3067 H 0.14807 0.4956 0.1846 0.0
H3068 H 0.10807 0.52009 0.15637 0.0
H3069 H 0.06073 0.44956 0.13872 0.0
H3070 H 0.06445 0.45947 0.16219 0.0
H3071 H 0.08312 0.45458 0.15192 0.0
C3072 C 0.1076 0.48925 0.20221 0.0
C3073 C 0.12665 0.49288 0.20196 0.0
C3074 C 0.09582 0.48737 0.18621 0.0
C3075 C 0.10292 0.48903 0.16975 0.0
C3076 C 0.12168 0.49106 0.16923 0.0
H3077 H 0.05844 0.49713 0.06347 0.0
H3078 H 0.07121 0.48773 0.09061 0.0
C3079 C 0.13348 0.49282 0.18523 0.0
C3080 C 0.09158 0.49211 0.15401 0.0
H3081 H 0.05368 0.47232 0.12271 0.0
C3082 C 0.09621 0.50964 0.14897 0.0
C3083 C 0.07605 0.47846 0.1446 0.0
C3084 C 0.07077 0.45939 0.14948 0.0
C3085 C 0.08573 0.51393 0.13464 0.0
C3086 C 0.07015 0.50033 0.12524 0.0
C3087 C 0.06549 0.48274 0.13021 0.0
C3088 C 0.0598 0.50386 0.10908 0.0
C3089 C 0.09157 0.53285 0.12937 0.0
C3090 C 0.04877 0.5157 0.11057 0.0
C3091 C 0.04138 0.52114 0.09503 0.0
C3092 C 0.04518 0.51493 0.07791 0.0
C3093 C 0.0555 0.50237 0.07651 0.0
C3094 C 0.06268 0.49684 0.09196 0.0
H3095 H 0.10522 0.54109 0.13665 0.0
H3096 H 0.09215 0.53202 0.11456 0.0
H3097 H 0.08131 0.54009 0.13258 0.0
H3098 H 0.04646 0.52122 0.12378 0.0
H3099 H 0.03342 0.53077 0.09646 0.0
H3100 H 0.80002 0.82406 0.50047 0.0
H3101 H 0.79924 0.81314 0.4684 0.0
H3102 H 0.75949 0.84135 0.45409 0.0
H3103 H 0.76037 0.85256 0.48616 0.0
H3104 H 0.77119 0.79246 0.44133 0.0
H3105 H 0.80064 0.86213 0.42465 0.0
H3106 H 0.80058 0.85732 0.44768 0.0
H3107 H 0.78012 0.85944 0.43516 0.0
C3108 C 0.79097 0.82783 0.49054 0.0
C3109 C 0.78034 0.83932 0.49594 0.0
C3110 C 0.79055 0.82156 0.47217 0.0
C3111 C 0.7796 0.8267 0.45876 0.0
C3112 C 0.76837 0.83752 0.46414 0.0
H3113 H 0.76089 0.81057 0.34181 0.0
H3114 H 0.76118 0.81835 0.37423 0.0
C3115 C 0.76877 0.8438 0.48252 0.0
C3116 C 0.78028 0.82112 0.43918 0.0
H3117 H 0.79026 0.83815 0.39993 0.0
C3118 C 0.77544 0.80244 0.43228 0.0
C3119 C 0.78596 0.83413 0.42737 0.0
C3120 C 0.7923 0.85438 0.43408 0.0
C3121 C 0.77557 0.79645 0.41384 0.0
C3122 C 0.78101 0.80948 0.402 0.0
C3123 C 0.78606 0.82815 0.40896 0.0
C3124 C 0.78086 0.80417 0.3822 0.0
C3125 C 0.76936 0.77623 0.40708 0.0
C3126 C 0.79196 0.79366 0.37573 0.0
C3127 C 0.79185 0.78913 0.35701 0.0
C3128 C 0.78071 0.79512 0.3444 0.0
C3129 C 0.7697 0.8057 0.35101 0.0
C3130 C 0.76983 0.81019 0.36963 0.0
H3131 H 0.76164 0.7683 0.41678 0.0
H3132 H 0.76053 0.77327 0.39377 0.0
H3133 H 0.78158 0.77141 0.40526 0.0
H3134 H 0.80087 0.78913 0.38514 0.0
H3135 H 0.80054 0.78101 0.35246 0.0
H3136 H 0.45855 0.54905 0.83983 0.0
H3137 H 0.46927 0.54978 0.87193 0.0
H3138 H 0.50208 0.51439 0.85707 0.0
H3139 H 0.49154 0.51364 0.82503 0.0
H3140 H 0.46442 0.51921 0.89085 0.0
H3141 H 0.53834 0.55585 0.89329 0.0
H3142 H 0.52119 0.55612 0.87501 0.0
H3143 H 0.52968 0.53659 0.8757 0.0
C3144 C 0.46828 0.54166 0.84337 0.0
C3145 C 0.47423 0.53135 0.8298 0.0
C3146 C 0.47432 0.54201 0.86174 0.0
C3147 C 0.4866 0.53226 0.86694 0.0
C3148 C 0.49284 0.52226 0.85342 0.0
H3149 H 0.50709 0.49938 0.9737 0.0
H3150 H 0.49859 0.49968 0.9413 0.0
C3151 C 0.48675 0.52182 0.83507 0.0
C3152 C 0.49221 0.53181 0.88648 0.0
H3153 H 0.52948 0.54237 0.91925 0.0
C3154 C 0.47864 0.52431 0.89707 0.0
C3155 C 0.51075 0.53855 0.89464 0.0
C3156 C 0.52585 0.54739 0.88415 0.0
C3157 C 0.48312 0.52318 0.91551 0.0
C3158 C 0.50171 0.52956 0.92357 0.0
C3159 C 0.51526 0.53728 0.91303 0.0
C3160 C 0.50727 0.52913 0.94311 0.0
C3161 C 0.46787 0.51549 0.92631 0.0
C3162 C 0.51538 0.54553 0.95485 0.0
C3163 C 0.52026 0.54541 0.97332 0.0
C3164 C 0.51731 0.52884 0.98053 0.0
C3165 C 0.50953 0.51238 0.96867 0.0
C3166 C 0.50456 0.51253 0.95015 0.0
H3167 H 0.45418 0.5149 0.91926 0.0
H3168 H 0.46778 0.50141 0.92836 0.0
H3169 H 0.47005 0.52382 0.93986 0.0
H3170 H 0.51768 0.55851 0.94976 0.0
H3171 H 0.52627 0.55839 0.98196 0.0
H3172 H 0.8104 0.15566 0.12285 0.0
H3173 H 0.81207 0.17389 0.15226 0.0
H3174 H 0.82656 0.22324 0.12796 0.0
H3175 H 0.82486 0.20521 0.09855 0.0
H3176 H 0.84424 0.22268 0.16806 0.0
H3177 H 0.76796 0.20013 0.15072 0.0
H3178 H 0.77986 0.18293 0.14874 0.0
H3179 H 0.78309 0.19981 0.13372 0.0
C3180 C 0.81461 0.17042 0.1239 0.0
C3181 C 0.81721 0.17902 0.10838 0.0
C3182 C 0.81551 0.18079 0.14068 0.0
C3183 C 0.81924 0.19982 0.14211 0.0
C3184 C 0.82366 0.20854 0.12704 0.0
H3185 H 0.78133 0.27109 0.2176 0.0
H3186 H 0.79135 0.25769 0.19058 0.0
C3187 C 0.82262 0.19821 0.11027 0.0
C3188 C 0.81555 0.21027 0.15825 0.0
H3189 H 0.78023 0.21902 0.17851 0.0
C3190 C 0.83029 0.22189 0.17044 0.0
C3191 C 0.79731 0.20942 0.16096 0.0
C3192 C 0.78107 0.19751 0.14784 0.0
C3193 C 0.82717 0.23247 0.18564 0.0
C3194 C 0.80889 0.23127 0.18857 0.0
C3195 C 0.79421 0.21991 0.17614 0.0
C3196 C 0.80453 0.24079 0.20497 0.0
C3197 C 0.84337 0.24491 0.1984 0.0
C3198 C 0.80863 0.23564 0.22186 0.0
C3199 C 0.80281 0.24308 0.23718 0.0
C3200 C 0.79277 0.25583 0.23589 0.0
C3201 C 0.78904 0.26132 0.219 0.0
C3202 C 0.79477 0.25372 0.2036 0.0
H3203 H 0.85617 0.2477 0.19198 0.0
H3204 H 0.84078 0.25809 0.203 0.0
H3205 H 0.84558 0.2383 0.21052 0.0
H3206 H 0.81584 0.22543 0.22311 0.0
H3207 H 0.80602 0.23862 0.25001 0.0
H3208 H 0.14492 0.50613 0.31257 0.0
H3209 H 0.13173 0.50675 0.3411 0.0
H3210 H 0.09289 0.53242 0.31824 0.0
H3211 H 0.10574 0.53169 0.28979 0.0
H3212 H 0.13056 0.5381 0.36266 0.0
H3213 H 0.06038 0.49155 0.34089 0.0
H3214 H 0.07901 0.4921 0.32769 0.0
H3215 H 0.06662 0.50882 0.32654 0.0
C3216 C 0.13341 0.51168 0.31357 0.0
C3217 C 0.12636 0.51886 0.29896 0.0
C3218 C 0.12591 0.51202 0.32984 0.0
C3219 C 0.11118 0.51937 0.33163 0.0
C3220 C 0.10398 0.52631 0.31698 0.0
H3221 H 0.07827 0.57188 0.42359 0.0
H3222 H 0.09045 0.56333 0.39601 0.0
C3223 C 0.11145 0.526 0.30077 0.0
C3224 C 0.10416 0.52123 0.34918 0.0
H3225 H 0.06466 0.51223 0.36855 0.0
C3226 C 0.11621 0.53223 0.36405 0.0
C3227 C 0.08549 0.5134 0.35096 0.0
C3228 C 0.07216 0.50066 0.33571 0.0
C3229 C 0.10989 0.53631 0.38048 0.0
C3230 C 0.09099 0.52941 0.38188 0.0
C3231 C 0.0791 0.51771 0.3673 0.0
C3232 C 0.08325 0.53449 0.39827 0.0
C3233 C 0.12346 0.54805 0.39614 0.0
C3234 C 0.07463 0.52101 0.40826 0.0
C3235 C 0.06748 0.52582 0.42387 0.0
C3236 C 0.06876 0.54419 0.42969 0.0
C3237 C 0.07702 0.55762 0.4194 0.0
C3238 C 0.08416 0.55278 0.40378 0.0
H3239 H 0.13775 0.54793 0.3946 0.0
H3240 H 0.12294 0.56236 0.39666 0.0
H3241 H 0.12009 0.54339 0.40922 0.0
H3242 H 0.07363 0.50679 0.40407 0.0
H3243 H 0.06091 0.51514 0.43136 0.0
H3244 H 0.76903 0.87582 0.61353 0.0
H3245 H 0.76783 0.8634 0.64209 0.0
H3246 H 0.77733 0.81447 0.6164 0.0
H3247 H 0.77911 0.82707 0.58777 0.0
H3248 H 0.74594 0.83389 0.65259 0.0
H3249 H 0.81711 0.82848 0.65909 0.0
H3250 H 0.80865 0.84036 0.64231 0.0
H3251 H 0.80322 0.81585 0.63855 0.0
C3252 C 0.77084 0.86238 0.61386 0.0
C3253 C 0.77432 0.85254 0.59827 0.0
C3254 C 0.77014 0.85528 0.63028 0.0
C3255 C 0.77287 0.83813 0.63161 0.0
C3256 C 0.77569 0.82795 0.61592 0.0
H3257 H 0.77358 0.77391 0.72021 0.0
H3258 H 0.77232 0.78486 0.69087 0.0
C3259 C 0.77654 0.83512 0.59948 0.0
C3260 C 0.77279 0.83107 0.64942 0.0
H3261 H 0.79853 0.8157 0.68064 0.0
C3262 C 0.75748 0.82997 0.65872 0.0
C3263 C 0.78787 0.82603 0.65758 0.0
C3264 C 0.80522 0.82789 0.64898 0.0
C3265 C 0.75674 0.82375 0.6757 0.0
C3266 C 0.77174 0.81858 0.68373 0.0
C3267 C 0.78701 0.81961 0.67445 0.0
C3268 C 0.77185 0.81193 0.70168 0.0
C3269 C 0.73977 0.82244 0.6848 0.0
C3270 C 0.77206 0.82352 0.71763 0.0
C3271 C 0.77287 0.81732 0.73454 0.0
C3272 C 0.77344 0.79936 0.73586 0.0
C3273 C 0.77306 0.78778 0.7198 0.0
C3274 C 0.77239 0.79403 0.70295 0.0
H3275 H 0.728 0.82323 0.67527 0.0
H3276 H 0.7357 0.80948 0.6906 0.0
H3277 H 0.74274 0.83391 0.69608 0.0
H3278 H 0.77192 0.83748 0.71703 0.0
H3279 H 0.77321 0.82666 0.74659 0.0
H3280 H 0.76513 0.46445 0.55718 0.0
H3281 H 0.74572 0.48417 0.56349 0.0
H3282 H 0.70556 0.45348 0.51837 0.0
H3283 H 0.72529 0.43398 0.51156 0.0
H3284 H 0.71132 0.49013 0.51987 0.0
H3285 H 0.69993 0.46954 0.58744 0.0
H3286 H 0.72374 0.47865 0.58515 0.0
H3287 H 0.71031 0.45761 0.57145 0.0
C3288 C 0.75215 0.46186 0.54861 0.0
C3289 C 0.74658 0.44755 0.534 0.0
C3290 C 0.74106 0.4731 0.55228 0.0
C3291 C 0.72405 0.47 0.54166 0.0
C3292 C 0.71862 0.45599 0.5268 0.0
H3293 H 0.63013 0.50207 0.5661 0.0
H3294 H 0.6544 0.4876 0.56218 0.0
C3295 C 0.72985 0.44486 0.52294 0.0
C3296 C 0.71187 0.48131 0.54614 0.0
H3297 H 0.68872 0.49386 0.5796 0.0
C3298 C 0.70636 0.49098 0.53292 0.0
C3299 C 0.70538 0.48223 0.56316 0.0
C3300 C 0.70999 0.47132 0.57755 0.0
C3301 C 0.69431 0.50144 0.53617 0.0
C3302 C 0.68806 0.5026 0.55329 0.0
C3303 C 0.69377 0.49311 0.56659 0.0
C3304 C 0.67417 0.51208 0.55708 0.0
C3305 C 0.68784 0.51056 0.52103 0.0
C3306 C 0.67748 0.53078 0.55607 0.0
C3307 C 0.6635 0.53906 0.55805 0.0
C3308 C 0.64612 0.52872 0.56121 0.0
C3309 C 0.64327 0.51027 0.56327 0.0
C3310 C 0.65715 0.50201 0.56117 0.0
H3311 H 0.69067 0.50496 0.50766 0.0
H3312 H 0.67287 0.50889 0.52028 0.0
H3313 H 0.69516 0.52539 0.52361 0.0
H3314 H 0.6907 0.53886 0.55333 0.0
H3315 H 0.66607 0.55331 0.5564 0.0
H3316 H 0.23948 0.12647 0.52692 0.0
H3317 H 0.20944 0.1041 0.52529 0.0
H3318 H 0.18322 0.14192 0.50413 0.0
H3319 H 0.2132 0.16428 0.50542 0.0
H3320 H 0.18228 0.10889 0.5442 0.0
H3321 H 0.15646 0.09473 0.47083 0.0
H3322 H 0.18033 0.10579 0.47951 0.0
H3323 H 0.16393 0.11869 0.47931 0.0
C3324 C 0.22736 0.12995 0.52162 0.0
C3325 C 0.22878 0.14723 0.51634 0.0
C3326 C 0.21019 0.11712 0.52071 0.0
C3327 C 0.19408 0.12123 0.5144 0.0
C3328 C 0.19547 0.13826 0.50866 0.0
H3329 H 0.08612 0.08515 0.5429 0.0
H3330 H 0.11754 0.10047 0.53872 0.0
C3331 C 0.21265 0.1511 0.50953 0.0
C3332 C 0.1758 0.10847 0.51547 0.0
H3333 H 0.13391 0.08616 0.49095 0.0
C3334 C 0.1718 0.10374 0.53249 0.0
C3335 C 0.16217 0.10155 0.50019 0.0
C3336 C 0.16597 0.10529 0.48139 0.0
C3337 C 0.15433 0.09294 0.53478 0.0
C3338 C 0.14039 0.08693 0.5197 0.0
C3339 C 0.14458 0.09095 0.50253 0.0
C3340 C 0.12117 0.07741 0.5218 0.0
C3341 C 0.15087 0.08822 0.55338 0.0
C3342 C 0.11259 0.05944 0.51331 0.0
C3343 C 0.09449 0.05055 0.51566 0.0
C3344 C 0.08464 0.05957 0.52642 0.0
C3345 C 0.09326 0.07769 0.53462 0.0
C3346 C 0.11129 0.0865 0.53231 0.0
H3347 H 0.16388 0.08936 0.56213 0.0
H3348 H 0.14421 0.09785 0.56002 0.0
H3349 H 0.14159 0.07414 0.55253 0.0
H3350 H 0.11997 0.05224 0.50504 0.0
H3351 H 0.08824 0.03664 0.50907 0.0
H3352 H 0.15007 0.9788 0.80488 0.0
H3353 H 0.16746 0.95632 0.80607 0.0
H3354 H 0.18892 0.97111 0.75702 0.0
H3355 H 0.17191 0.99362 0.75586 0.0
H3356 H 0.16698 0.92605 0.78106 0.0
H3357 H 0.23546 0.97727 0.79179 0.0
H3358 H 0.21461 0.98342 0.7945 0.0
H3359 H 0.221 0.97941 0.77227 0.0
C3360 C 0.15848 0.97723 0.79435 0.0
C3361 C 0.15971 0.98814 0.78037 0.0
C3362 C 0.16841 0.96438 0.79504 0.0
C3363 C 0.1798 0.96229 0.78183 0.0
C3364 C 0.18059 0.97278 0.7676 0.0
H3365 H 0.24975 0.89628 0.75232 0.0
H3366 H 0.23119 0.91747 0.75493 0.0
C3367 C 0.17075 0.9856 0.76692 0.0
C3368 C 0.19089 0.94916 0.78274 0.0
H3369 H 0.23479 0.94624 0.78344 0.0
C3370 C 0.18182 0.93046 0.78179 0.0
C3371 C 0.21028 0.95492 0.78374 0.0
C3372 C 0.22094 0.97486 0.78582 0.0
C3373 C 0.19156 0.91735 0.78108 0.0
C3374 C 0.21089 0.92311 0.78157 0.0
C3375 C 0.21997 0.94182 0.78294 0.0
C3376 C 0.22195 0.90996 0.78012 0.0
C3377 C 0.18103 0.89739 0.77916 0.0
C3378 C 0.22311 0.89878 0.79352 0.0
C3379 C 0.23388 0.88671 0.79216 0.0
C3380 C 0.24379 0.88562 0.77739 0.0
C3381 C 0.24259 0.89691 0.76403 0.0
C3382 C 0.23186 0.90897 0.76543 0.0
H3383 H 0.16608 0.895 0.77512 0.0
H3384 H 0.18625 0.88918 0.76897 0.0
H3385 H 0.18291 0.8924 0.79235 0.0
H3386 H 0.21588 0.89956 0.80517 0.0
H3387 H 0.23469 0.87847 0.80286 0.0
H3388 H 0.3241 0.89905 0.01205 0.0
H3389 H 0.35783 0.90952 0.01688 0.0
H3390 H 0.35654 0.96406 0.00993 0.0
H3391 H 0.32308 0.95389 0.00535 0.0
H3392 H 0.38425 0.92766 0.99566 0.0
H3393 H 0.38571 0.97031 0.06063 0.0
H3394 H 0.36536 0.9528 0.0496 0.0
H3395 H 0.37144 0.97496 0.04234 0.0
C3396 C 0.33103 0.91322 0.01135 0.0
C3397 C 0.32096 0.92571 0.00859 0.0
C3398 C 0.35025 0.91916 0.01415 0.0
C3399 C 0.35956 0.93763 0.01421 0.0
C3400 C 0.34955 0.94984 0.0104 0.0
H3401 H 0.46643 0.99835 0.00075 0.0
H3402 H 0.43478 0.97923 0.99806 0.0
C3403 C 0.33043 0.94398 0.00771 0.0
C3404 C 0.37973 0.9445 0.01864 0.0
H3405 H 0.41337 0.97732 0.0468 0.0
C3406 C 0.39069 0.93831 0.00699 0.0
C3407 C 0.38807 0.95806 0.0337 0.0
C3408 C 0.37705 0.96429 0.0474 0.0
C3409 C 0.40979 0.94623 0.00935 0.0
C3410 C 0.41794 0.96091 0.02349 0.0
C3411 C 0.40707 0.96624 0.03581 0.0
C3412 C 0.43739 0.97181 0.02503 0.0
C3413 C 0.421 0.93895 0.99654 0.0
C3414 C 0.44917 0.97453 0.04134 0.0
C3415 C 0.46724 0.98575 0.04305 0.0
C3416 C 0.47377 0.99443 0.02846 0.0
C3417 C 0.46187 0.99176 0.0122 0.0
C3418 C 0.44382 0.98066 0.01056 0.0
H3419 H 0.41419 0.92437 0.991 0.0
H3420 H 0.42235 0.94682 0.98495 0.0
H3421 H 0.43498 0.94024 0.00334 0.0
H3422 H 0.44438 0.96798 0.05274 0.0
H3423 H 0.4761 0.98749 0.05573 0.0
H3424 H 0.8336 0.56141 0.78832 0.0
H3425 H 0.81573 0.58223 0.79601 0.0
H3426 H 0.85969 0.61375 0.83749 0.0
H3427 H 0.878 0.59305 0.82958 0.0
H3428 H 0.80339 0.5932 0.8282 0.0
H3429 H 0.85294 0.6509 0.8043 0.0
H3430 H 0.85383 0.62768 0.79976 0.0
H3431 H 0.86192 0.64047 0.82199 0.0
C3432 C 0.83949 0.57271 0.79915 0.0
C3433 C 0.85731 0.57574 0.80819 0.0
C3434 C 0.8292 0.58453 0.8036 0.0
C3435 C 0.83648 0.59961 0.81717 0.0
C3436 C 0.85397 0.60232 0.82678 0.0
H3437 H 0.78858 0.6902 0.82173 0.0
H3438 H 0.80532 0.67019 0.83357 0.0
C3439 C 0.86437 0.59049 0.82226 0.0
C3440 C 0.82603 0.61298 0.82009 0.0
H3441 H 0.82526 0.6553 0.81132 0.0
C3442 C 0.80826 0.60692 0.82485 0.0
C3443 C 0.83249 0.63086 0.81574 0.0
C3444 C 0.85127 0.63792 0.81004 0.0
C3445 C 0.79642 0.61798 0.82449 0.0
C3446 C 0.80251 0.6354 0.81907 0.0
C3447 C 0.82067 0.6419 0.81548 0.0
C3448 C 0.78984 0.64626 0.81476 0.0
C3449 C 0.77735 0.61072 0.82938 0.0
C3450 C 0.77527 0.63927 0.80056 0.0
C3451 C 0.76561 0.65064 0.79379 0.0
C3452 C 0.77045 0.66922 0.80104 0.0
C3453 C 0.78434 0.6759 0.81598 0.0
C3454 C 0.79399 0.66452 0.82273 0.0
H3455 H 0.77691 0.60048 0.83882 0.0
H3456 H 0.7724 0.62189 0.83573 0.0
H3457 H 0.76778 0.60386 0.8169 0.0
H3458 H 0.77209 0.6253 0.79397 0.0
H3459 H 0.75487 0.64508 0.78239 0.0
H3460 H 0.81445 0.63848 0.058 0.0
H3461 H 0.8373 0.62187 0.05603 0.0
H3462 H 0.85496 0.6475 0.00995 0.0
H3463 H 0.8322 0.66454 0.01203 0.0
H3464 H 0.83974 0.59722 0.02779 0.0
H3465 H 0.90358 0.65543 0.04209 0.0
H3466 H 0.88148 0.65788 0.04636 0.0
H3467 H 0.88726 0.65672 0.02368 0.0
C3468 C 0.82326 0.64074 0.0475 0.0
C3469 C 0.82151 0.65289 0.03519 0.0
C3470 C 0.83633 0.63119 0.04639 0.0
C3471 C 0.848 0.63355 0.03297 0.0
C3472 C 0.84636 0.64571 0.02064 0.0
H3473 H 0.93167 0.57855 0.01027 0.0
H3474 H 0.91034 0.59713 0.00843 0.0
C3475 C 0.83328 0.65537 0.02179 0.0
C3476 C 0.8613 0.62266 0.03166 0.0
H3477 H 0.90711 0.62598 0.03495 0.0
C3478 C 0.85447 0.60353 0.02932 0.0
C3479 C 0.88053 0.63088 0.03357 0.0
C3480 C 0.88873 0.65135 0.03671 0.0
C3481 C 0.86628 0.59241 0.02902 0.0
C3482 C 0.8855 0.60063 0.03134 0.0
C3483 C 0.89236 0.61973 0.0332 0.0
C3484 C 0.89865 0.58959 0.03257 0.0
C3485 C 0.8581 0.57194 0.02618 0.0
C3486 C 0.89935 0.57942 0.04692 0.0
C3487 C 0.91161 0.56891 0.04811 0.0
C3488 C 0.92349 0.56835 0.03498 0.0
C3489 C 0.92288 0.57876 0.02072 0.0
C3490 C 0.91063 0.58933 0.01958 0.0
H3491 H 0.84347 0.56778 0.02001 0.0
H3492 H 0.8659 0.56519 0.01736 0.0
H3493 H 0.85877 0.56689 0.03948 0.0
H3494 H 0.89048 0.57971 0.0573 0.0
H3495 H 0.91195 0.56144 0.0595 0.0
H3496 H 0.18598 0.07376 0.78656 0.0
H3497 H 0.20825 0.1037 0.78783 0.0
H3498 H 0.17119 0.12944 0.81222 0.0
H3499 H 0.14895 0.09959 0.81127 0.0
H3500 H 0.20233 0.13095 0.77008 0.0
H3501 H 0.21977 0.15582 0.84366 0.0
H3502 H 0.2085 0.13214 0.83478 0.0
H3503 H 0.19546 0.14836 0.83638 0.0
C3504 C 0.18267 0.08575 0.7925 0.0
C3505 C 0.16562 0.08423 0.79878 0.0
C3506 C 0.19543 0.10286 0.7932 0.0
C3507 C 0.19149 0.11881 0.80029 0.0
C3508 C 0.17472 0.11732 0.80705 0.0
H3509 H 0.22714 0.22692 0.77331 0.0
H3510 H 0.21152 0.19565 0.77714 0.0
C3511 C 0.16195 0.10021 0.80639 0.0
C3512 C 0.20408 0.13705 0.79907 0.0
H3513 H 0.22739 0.17845 0.82381 0.0
C3514 C 0.20799 0.14125 0.78186 0.0
C3515 C 0.21164 0.15044 0.81446 0.0
C3516 C 0.2088 0.14643 0.83339 0.0
C3517 C 0.21862 0.15868 0.77954 0.0
C3518 C 0.22531 0.17237 0.7948 0.0
C3519 C 0.22207 0.16799 0.81211 0.0
C3520 C 0.23495 0.19149 0.79288 0.0
C3521 C 0.22251 0.16232 0.76074 0.0
C3522 C 0.25321 0.19971 0.80086 0.0
C3523 C 0.26225 0.21771 0.79873 0.0
C3524 C 0.25311 0.22781 0.78869 0.0
C3525 C 0.2347 0.21956 0.78101 0.0
C3526 C 0.22573 0.20162 0.78311 0.0
H3527 H 0.22096 0.14946 0.75156 0.0
H3528 H 0.21261 0.16907 0.75494 0.0
H3529 H 0.23661 0.1715 0.76105 0.0
H3530 H 0.26052 0.19214 0.80856 0.0
H3531 H 0.27639 0.22365 0.80491 0.0
H3532 H 0.35227 0.98844 0.28891 0.0
H3533 H 0.3365 0.95658 0.2903 0.0
H3534 H 0.38424 0.95157 0.32278 0.0
H3535 H 0.40034 0.98357 0.32135 0.0
H3536 H 0.37027 0.92392 0.29332 0.0
H3537 H 0.31504 0.93301 0.33275 0.0
H3538 H 0.31676 0.94546 0.3138 0.0
H3539 H 0.33553 0.95132 0.33198 0.0
C3540 C 0.35943 0.98065 0.29647 0.0
C3541 C 0.37758 0.98855 0.30502 0.0
C3542 C 0.35032 0.96248 0.29736 0.0
C3543 C 0.35911 0.95187 0.3069 0.0
C3544 C 0.3772 0.95965 0.3155 0.0
H3545 H 0.29965 0.84032 0.31965 0.0
H3546 H 0.3179 0.87239 0.32602 0.0
C3547 C 0.38636 0.9779 0.31465 0.0
C3548 C 0.34968 0.93234 0.30677 0.0
H3549 H 0.30992 0.90335 0.31556 0.0
C3550 C 0.3572 0.91938 0.29841 0.0
C3551 C 0.33278 0.9265 0.31365 0.0
C3552 C 0.32464 0.9398 0.32372 0.0
C3553 C 0.34779 0.90071 0.29593 0.0
C3554 C 0.3303 0.89499 0.3017 0.0
C3555 C 0.32321 0.90785 0.3109 0.0
C3556 C 0.31892 0.87575 0.29783 0.0
C3557 C 0.35656 0.8873 0.28702 0.0
C3558 C 0.31311 0.86724 0.27986 0.0
C3559 C 0.30269 0.84895 0.27614 0.0
C3560 C 0.29781 0.83891 0.29038 0.0
C3561 C 0.30321 0.84766 0.30838 0.0
C3562 C 0.31365 0.86596 0.31206 0.0
H3563 H 0.37172 0.89312 0.28818 0.0
H3564 H 0.35346 0.87446 0.29311 0.0
H3565 H 0.35106 0.88389 0.27239 0.0
H3566 H 0.3167 0.87474 0.26869 0.0
H3567 H 0.29867 0.84265 0.26213 0.0
H3568 H 0.57775 0.34636 0.57029 0.0
H3569 H 0.57237 0.37396 0.56043 0.0
H3570 H 0.54057 0.37862 0.60418 0.0
H3571 H 0.54534 0.35056 0.61365 0.0
H3572 H 0.52431 0.38727 0.57592 0.0
H3573 H 0.59758 0.42555 0.58016 0.0
H3574 H 0.5919 0.40469 0.56474 0.0
H3575 H 0.59029 0.40399 0.58851 0.0
C3576 C 0.5696 0.35322 0.57786 0.0
C3577 C 0.56209 0.3461 0.59289 0.0
C3578 C 0.56666 0.36924 0.57228 0.0
C3579 C 0.55643 0.37899 0.58174 0.0
C3580 C 0.54863 0.37167 0.59657 0.0
H3581 H 0.56099 0.49306 0.57091 0.0
H3582 H 0.56515 0.4647 0.57983 0.0
C3583 C 0.5514 0.35552 0.60204 0.0
C3584 C 0.55361 0.39652 0.57609 0.0
H3585 H 0.57617 0.43844 0.56537 0.0
C3586 C 0.53573 0.39844 0.57369 0.0
C3587 C 0.56835 0.41152 0.57339 0.0
C3588 C 0.58811 0.41145 0.57702 0.0
C3589 C 0.5322 0.41448 0.56856 0.0
C3590 C 0.54686 0.42915 0.56507 0.0
C3591 C 0.56476 0.42732 0.56771 0.0
C3592 C 0.5441 0.44667 0.55931 0.0
C3593 C 0.51275 0.41568 0.56753 0.0
C3594 C 0.53105 0.4465 0.54452 0.0
C3595 C 0.52847 0.46288 0.53947 0.0
C3596 C 0.53909 0.48007 0.54882 0.0
C3597 C 0.55246 0.48023 0.56331 0.0
C3598 C 0.55489 0.46387 0.56846 0.0
H3599 H 0.50458 0.40641 0.576 0.0
H3600 H 0.51242 0.4298 0.57206 0.0
H3601 H 0.50596 0.41146 0.55332 0.0
H3602 H 0.52287 0.43366 0.53668 0.0
H3603 H 0.51816 0.46204 0.52814 0.0
H3604 H 0.43959 0.74324 0.39775 0.0
H3605 H 0.41141 0.74161 0.3779 0.0
H3606 H 0.42943 0.8001 0.37947 0.0
H3607 H 0.45786 0.8016 0.39827 0.0
H3608 H 0.38355 0.75366 0.38103 0.0
H3609 H 0.41713 0.78663 0.32671 0.0
H3610 H 0.42991 0.78003 0.34496 0.0
H3611 H 0.42466 0.80157 0.34779 0.0
C3612 C 0.43758 0.7557 0.39368 0.0
C3613 C 0.45112 0.7725 0.39936 0.0
C3614 C 0.42143 0.75478 0.38235 0.0
C3615 C 0.41837 0.77068 0.37665 0.0
C3616 C 0.43164 0.78751 0.38293 0.0
H3617 H 0.31073 0.78141 0.33699 0.0
H3618 H 0.33806 0.77902 0.35531 0.0
C3619 C 0.4479 0.78837 0.39386 0.0
C3620 C 0.4012 0.76984 0.36455 0.0
H3621 H 0.38555 0.78575 0.32711 0.0
C3622 C 0.38403 0.76051 0.36912 0.0
C3623 C 0.4016 0.77836 0.34868 0.0
C3624 C 0.41933 0.78701 0.34165 0.0
C3625 C 0.36741 0.75992 0.35868 0.0
C3626 C 0.36782 0.76962 0.34359 0.0
C3627 C 0.38501 0.77852 0.33877 0.0
C3628 C 0.35076 0.7707 0.3325 0.0
C3629 C 0.34967 0.74849 0.36378 0.0
C3630 C 0.34884 0.76758 0.31344 0.0
C3631 C 0.33349 0.76961 0.30292 0.0
C3632 C 0.31944 0.77449 0.31117 0.0
C3633 C 0.32118 0.77738 0.33021 0.0
C3634 C 0.33678 0.77583 0.34073 0.0
H3635 H 0.3519 0.73716 0.37084 0.0
H3636 H 0.34419 0.75715 0.37325 0.0
H3637 H 0.3392 0.74255 0.3517 0.0
H3638 H 0.35932 0.76364 0.30662 0.0
H3639 H 0.33256 0.76723 0.28829 0.0
H3640 H 0.03061 0.72917 0.1121 0.0
H3641 H 0.03004 0.6981 0.10066 0.0
H3642 H 0.0615 0.71796 0.05868 0.0
H3643 H 0.06209 0.74942 0.07009 0.0
H3644 H 0.03308 0.68549 0.04603 0.0
H3645 H 0.07328 0.67707 0.10839 0.0
H3646 H 0.05326 0.68389 0.11273 0.0
H3647 H 0.0715 0.69906 0.10365 0.0
C3648 C 0.03736 0.72708 0.10034 0.0
C3649 C 0.04649 0.74208 0.09215 0.0
C3650 C 0.03713 0.70916 0.09388 0.0
C3651 C 0.0461 0.7055 0.07902 0.0
C3652 C 0.0546 0.7203 0.07027 0.0
H3653 H 0.06781 0.59843 0.05294 0.0
H3654 H 0.07143 0.63121 0.06115 0.0
C3655 C 0.05487 0.73835 0.07679 0.0
C3656 C 0.04652 0.68628 0.07284 0.0
H3657 H 0.0583 0.64987 0.08776 0.0
C3658 C 0.03872 0.67778 0.05514 0.0
C3659 C 0.05412 0.67608 0.08451 0.0
C3660 C 0.06368 0.68452 0.10332 0.0
C3661 C 0.03771 0.65939 0.04909 0.0
C3662 C 0.04447 0.64891 0.06107 0.0
C3663 C 0.0529 0.65764 0.07854 0.0
C3664 C 0.04243 0.62884 0.05593 0.0
C3665 C 0.02948 0.65141 0.0298 0.0
C3666 C 0.02495 0.61629 0.05052 0.0
C3667 C 0.02285 0.59755 0.04588 0.0
C3668 C 0.03816 0.5906 0.04654 0.0
C3669 C 0.05568 0.60313 0.05217 0.0
C3670 C 0.05777 0.62196 0.05689 0.0
H3671 H 0.03027 0.66223 0.021 0.0
H3672 H 0.03653 0.64168 0.02405 0.0
H3673 H 0.01476 0.64394 0.02948 0.0
H3674 H 0.01279 0.62094 0.05006 0.0
H3675 H 0.00908 0.5885 0.04175 0.0
H3676 H 0.03663 0.2369 0.8864 0.0
H3677 H 0.0631 0.24193 0.86983 0.0
H3678 H 0.08518 0.29634 0.89935 0.0
H3679 H 0.05886 0.2912 0.9164 0.0
H3680 H 0.07475 0.26619 0.84741 0.0
H3681 H 0.12928 0.2774 0.90572 0.0
H3682 H 0.10519 0.26864 0.90765 0.0
H3683 H 0.11539 0.29272 0.90786 0.0
C3684 C 0.04714 0.24993 0.88947 0.0
C3685 C 0.04564 0.26362 0.90282 0.0
C3686 C 0.0623 0.25279 0.87994 0.0
C3687 C 0.07636 0.26941 0.88348 0.0
C3688 C 0.07479 0.28322 0.89665 0.0
H3689 H 0.17468 0.31075 0.83255 0.0
H3690 H 0.14911 0.30723 0.85047 0.0
C3691 C 0.05965 0.28032 0.90631 0.0
C3692 C 0.0923 0.27226 0.873 0.0
H3693 H 0.13919 0.28264 0.87723 0.0
C3694 C 0.08882 0.26973 0.85397 0.0
C3695 C 0.11072 0.27688 0.88149 0.0
C3696 C 0.11542 0.27891 0.90179 0.0
C3697 C 0.10317 0.2718 0.84325 0.0
C3698 C 0.12155 0.27639 0.85174 0.0
C3699 C 0.12509 0.27912 0.87075 0.0
C3700 C 0.13724 0.27836 0.84107 0.0
C3701 C 0.0986 0.26931 0.82291 0.0
C3702 C 0.13924 0.26323 0.83002 0.0
C3703 C 0.15387 0.26519 0.81977 0.0
C3704 C 0.16678 0.28234 0.8203 0.0
C3705 C 0.16485 0.2974 0.8316 0.0
C3706 C 0.1503 0.2954 0.84194 0.0
H3707 H 0.08439 0.26976 0.81868 0.0
H3708 H 0.10837 0.28001 0.81707 0.0
H3709 H 0.09976 0.25583 0.8171 0.0
H3710 H 0.12945 0.2499 0.82931 0.0
H3711 H 0.15486 0.25333 0.81116 0.0
H3712 H 0.57099 0.76949 0.93352 0.0
H3713 H 0.56587 0.74344 0.95023 0.0
H3714 H 0.51349 0.71845 0.91726 0.0
H3715 H 0.51845 0.74467 0.90046 0.0
H3716 H 0.51228 0.71698 0.95454 0.0
H3717 H 0.56925 0.69252 0.93159 0.0
H3718 H 0.57624 0.71615 0.94137 0.0
H3719 H 0.56053 0.70879 0.92066 0.0
C3720 C 0.55836 0.75848 0.92977 0.0
C3721 C 0.54517 0.75917 0.91555 0.0
C3722 C 0.55551 0.74351 0.93929 0.0
C3723 C 0.53944 0.72881 0.93482 0.0
C3724 C 0.52605 0.72958 0.92088 0.0
H3725 H 0.52452 0.62315 0.97368 0.0
H3726 H 0.52737 0.64771 0.95504 0.0
C3727 C 0.52891 0.74457 0.91128 0.0
C3728 C 0.53663 0.7128 0.94489 0.0
H3729 H 0.55566 0.67943 0.95609 0.0
C3730 C 0.5217 0.7087 0.95479 0.0
C3731 C 0.54877 0.70182 0.94506 0.0
C3732 C 0.5645 0.70489 0.93397 0.0
C3733 C 0.51889 0.69429 0.96524 0.0
C3734 C 0.53149 0.6838 0.96601 0.0
C3735 C 0.54611 0.68757 0.95569 0.0
C3736 C 0.52978 0.66888 0.97745 0.0
C3737 C 0.50235 0.69031 0.97521 0.0
C3738 C 0.5305 0.6726 0.99633 0.0
C3739 C 0.529 0.6586 0.00707 0.0
C3740 C 0.52683 0.64051 0.9992 0.0
C3741 C 0.52637 0.63689 0.98029 0.0
C3742 C 0.52789 0.65092 0.96956 0.0
H3743 H 0.49157 0.69604 0.96939 0.0
H3744 H 0.49631 0.67537 0.97487 0.0
H3745 H 0.50659 0.69663 0.98959 0.0
H3746 H 0.53242 0.68641 0.00282 0.0
H3747 H 0.52978 0.66201 0.02159 0.0
H3748 H 0.08263 0.78192 0.704 0.0
H3749 H 0.11391 0.78243 0.7149 0.0
H3750 H 0.09367 0.74697 0.75357 0.0
H3751 H 0.06198 0.74633 0.74265 0.0
H3752 H 0.12654 0.77625 0.76766 0.0
H3753 H 0.13439 0.73882 0.70283 0.0
H3754 H 0.12697 0.75871 0.70021 0.0
H3755 H 0.11229 0.73979 0.70872 0.0
C3756 C 0.0847 0.77432 0.71496 0.0
C3757 C 0.06957 0.76398 0.72233 0.0
C3758 C 0.10271 0.77454 0.7211 0.0
C3759 C 0.10625 0.76442 0.73479 0.0
C3760 C 0.09134 0.75478 0.74286 0.0
H3761 H 0.21363 0.74229 0.75645 0.0
H3762 H 0.18061 0.73877 0.74934 0.0
C3763 C 0.07319 0.75449 0.73666 0.0
C3764 C 0.12549 0.76378 0.74028 0.0
H3765 H 0.1618 0.75275 0.72346 0.0
C3766 C 0.13418 0.77097 0.75803 0.0
C3767 C 0.13553 0.75668 0.72786 0.0
C3768 C 0.1268 0.7479 0.70888 0.0
C3769 C 0.15271 0.77188 0.76343 0.0
C3770 C 0.16301 0.76559 0.75073 0.0
C3771 C 0.15409 0.75775 0.7332 0.0
C3772 C 0.18316 0.7676 0.75518 0.0
C3773 C 0.16106 0.77953 0.78276 0.0
C3774 C 0.19579 0.78497 0.76052 0.0
C3775 C 0.21465 0.78703 0.76451 0.0
C3776 C 0.22156 0.77177 0.76322 0.0
C3777 C 0.20892 0.75436 0.75765 0.0
C3778 C 0.18998 0.75232 0.75358 0.0
H3779 H 0.15034 0.77861 0.79191 0.0
H3780 H 0.1708 0.77224 0.78782 0.0
H3781 H 0.16871 0.79416 0.78347 0.0
H3782 H 0.19108 0.79705 0.76147 0.0
H3783 H 0.22382 0.80069 0.76866 0.0
H3784 H 0.06283 0.37205 0.40714 0.0
H3785 H 0.06578 0.40119 0.42594 0.0
H3786 H 0.02362 0.37386 0.4559 0.0
H3787 H 0.02034 0.34492 0.43702 0.0
H3788 H 0.0175 0.40442 0.44628 0.0
H3789 H 0.09003 0.42039 0.47753 0.0
H3790 H 0.08698 0.4167 0.4532 0.0
H3791 H 0.07739 0.3982 0.46533 0.0
C3792 C 0.05431 0.37223 0.41784 0.0
C3793 C 0.04137 0.35609 0.42056 0.0
C3794 C 0.05608 0.38891 0.42867 0.0
C3795 C 0.04509 0.38978 0.44256 0.0
C3796 C 0.03229 0.37363 0.44534 0.0
H3797 H 0.05716 0.47775 0.53108 0.0
H3798 H 0.05728 0.44992 0.51181 0.0
C3799 C 0.03046 0.35703 0.43451 0.0
C3800 C 0.04624 0.4075 0.45378 0.0
H3801 H 0.07534 0.44359 0.48291 0.0
C3802 C 0.03017 0.41297 0.45428 0.0
C3803 C 0.06269 0.41862 0.46444 0.0
C3804 C 0.08023 0.41314 0.46529 0.0
C3805 C 0.03007 0.42915 0.465 0.0
C3806 C 0.04662 0.44052 0.47529 0.0
C3807 C 0.06269 0.43502 0.4749 0.0
C3808 C 0.04737 0.45792 0.48684 0.0
C3809 C 0.01208 0.43363 0.46556 0.0
C3810 C 0.04217 0.47195 0.47925 0.0
C3811 C 0.04199 0.48785 0.49025 0.0
C3812 C 0.04719 0.49022 0.50913 0.0
C3813 C 0.053 0.47641 0.51663 0.0
C3814 C 0.0531 0.46046 0.50561 0.0
H3815 H 1.00012 0.42136 0.46107 0.0
H3816 H 0.01093 0.43959 0.47942 0.0
H3817 H 0.01131 0.44377 0.45629 0.0
H3818 H 0.03815 0.47058 0.46478 0.0
H3819 H 0.03767 0.49826 0.48392 0.0
H3820 H 0.45517 0.22021 0.23156 0.0
H3821 H 0.42684 0.22479 0.24115 0.0
H3822 H 0.43629 0.27424 0.2169 0.0
H3823 H 0.46422 0.26926 0.20663 0.0
H3824 H 0.41867 0.24885 0.26302 0.0
H3825 H 0.38461 0.25195 0.19536 0.0
H3826 H 0.40553 0.24544 0.19827 0.0
H3827 H 0.40625 0.26922 0.20104 0.0
C3828 C 0.45121 0.23204 0.22817 0.0
C3829 C 0.46208 0.24426 0.21814 0.0
C3830 C 0.4349 0.23468 0.23372 0.0
C3831 C 0.42886 0.24967 0.22949 0.0
C3832 C 0.44001 0.26218 0.2199 0.0
H3833 H 0.33909 0.29342 0.25924 0.0
H3834 H 0.36732 0.28848 0.24966 0.0
C3835 C 0.45621 0.25942 0.21415 0.0
C3836 C 0.41121 0.25231 0.23544 0.0
H3837 H 0.37078 0.26094 0.2206 0.0
C3838 C 0.4082 0.25135 0.25363 0.0
C3839 C 0.39721 0.25553 0.22338 0.0
C3840 C 0.39845 0.2554 0.2034 0.0
C3841 C 0.3921 0.25384 0.26004 0.0
C3842 C 0.37834 0.25739 0.24806 0.0
C3843 C 0.38127 0.25834 0.22991 0.0
C3844 C 0.36094 0.26028 0.25413 0.0
C3845 C 0.39005 0.25301 0.27976 0.0
C3846 C 0.3476 0.24608 0.25978 0.0
C3847 C 0.33124 0.24882 0.26515 0.0
C3848 C 0.32776 0.26591 0.26518 0.0
C3849 C 0.34119 0.2801 0.25956 0.0
C3850 C 0.35741 0.27728 0.25399 0.0
H3851 H 0.4032 0.25366 0.28798 0.0
H3852 H 0.38502 0.2644 0.28545 0.0
H3853 H 0.37978 0.24 0.28103 0.0
H3854 H 0.34975 0.23275 0.25985 0.0
H3855 H 0.32131 0.23751 0.26929 0.0
H3856 H 0.5798 0.55098 0.34426 0.0
H3857 H 0.57093 0.54819 0.3745 0.0
H3858 H 0.59589 0.50466 0.37852 0.0
H3859 H 0.60487 0.50735 0.34813 0.0
H3860 H 0.56015 0.49807 0.39061 0.0
H3861 H 0.60753 0.56539 0.42203 0.0
H3862 H 0.59279 0.5661 0.40206 0.0
H3863 H 0.60979 0.55407 0.40032 0.0
C3864 C 0.58335 0.54072 0.35148 0.0
C3865 C 0.59314 0.52943 0.34373 0.0
C3866 C 0.57835 0.53923 0.36886 0.0
C3867 C 0.583 0.52643 0.37894 0.0
C3868 C 0.59226 0.51473 0.37105 0.0
H3869 H 0.57697 0.5282 0.49567 0.0
H3870 H 0.58736 0.52695 0.46572 0.0
C3871 C 0.59737 0.51627 0.35367 0.0
C3872 C 0.57825 0.52542 0.39771 0.0
H3873 H 0.58538 0.55055 0.43978 0.0
C3874 C 0.56575 0.50949 0.40139 0.0
C3875 C 0.58573 0.54023 0.41188 0.0
C3876 C 0.59984 0.55737 0.40899 0.0
C3877 C 0.5601 0.50823 0.41866 0.0
C3878 C 0.567 0.52333 0.43262 0.0
C3879 C 0.57996 0.53902 0.42908 0.0
C3880 C 0.56058 0.52335 0.45079 0.0
C3881 C 0.54681 0.49069 0.42185 0.0
C3882 C 0.5421 0.52187 0.45244 0.0
C3883 C 0.53613 0.52266 0.46952 0.0
C3884 C 0.54851 0.52495 0.48542 0.0
C3885 C 0.56703 0.52633 0.48374 0.0
C3886 C 0.573 0.52565 0.46662 0.0
H3887 H 0.5467 0.47901 0.41166 0.0
H3888 H 0.55026 0.48745 0.4356 0.0
H3889 H 0.53273 0.49222 0.42076 0.0
H3890 H 0.5323 0.52044 0.4405 0.0
H3891 H 0.5218 0.52161 0.47023 0.0
H3892 H 0.26638 0.92163 0.07422 0.0
H3893 H 0.26801 0.90878 0.10257 0.0
H3894 H 0.23355 0.85651 0.07527 0.0
H3895 H 0.23208 0.8691 0.04681 0.0
H3896 H 0.24268 0.88649 0.12448 0.0
H3897 H 0.28603 0.85063 0.08866 0.0
H3898 H 0.27943 0.8694 0.08046 0.0
H3899 H 0.26331 0.84699 0.07706 0.0
C3900 C 0.25863 0.90757 0.07439 0.0
C3901 C 0.24946 0.89623 0.05825 0.0
C3902 C 0.25957 0.90027 0.09059 0.0
C3903 C 0.25122 0.88165 0.0908 0.0
C3904 C 0.24029 0.87087 0.07521 0.0
H3905 H 0.25206 0.81637 0.17747 0.0
H3906 H 0.24348 0.83352 0.15419 0.0
C3907 C 0.23948 0.87808 0.059 0.0
C3908 C 0.25637 0.8729 0.10621 0.0
H3909 H 0.28018 0.84334 0.11764 0.0
C3910 C 0.25086 0.87705 0.12306 0.0
C3911 C 0.2674 0.86094 0.10429 0.0
C3912 C 0.27456 0.85681 0.08671 0.0
C3913 C 0.25581 0.86914 0.13807 0.0
C3914 C 0.26632 0.85669 0.13595 0.0
C3915 C 0.27206 0.85283 0.11916 0.0
C3916 C 0.2715 0.84728 0.15085 0.0
C3917 C 0.25002 0.87437 0.15608 0.0
C3918 C 0.29008 0.84904 0.15634 0.0
C3919 C 0.29502 0.83913 0.16949 0.0
C3920 C 0.28144 0.8273 0.17734 0.0
C3921 C 0.26283 0.8256 0.17182 0.0
C3922 C 0.2579 0.83545 0.15862 0.0
H3923 H 0.24659 0.88753 0.15665 0.0
H3924 H 0.23759 0.86366 0.15813 0.0
H3925 H 0.26101 0.87553 0.1674 0.0
H3926 H 0.30076 0.85802 0.15037 0.0
H3927 H 0.30946 0.84083 0.17364 0.0
H3928 H 0.92527 0.56837 0.86214 0.0
H3929 H 0.94327 0.57387 0.89206 0.0
H3930 H 0.9927 0.57859 0.86725 0.0
H3931 H 0.97456 0.57218 0.83729 0.0
H3932 H 0.98768 0.55257 0.887 0.0
H3933 H 0.97854 0.61269 0.92821 0.0
H3934 H 0.95674 0.59733 0.91816 0.0
H3935 H 0.97271 0.60837 0.90386 0.0
C3936 C 0.94006 0.57125 0.86311 0.0
C3937 C 0.94854 0.56965 0.84748 0.0
C3938 C 0.95038 0.57452 0.88024 0.0
C3939 C 0.96938 0.57671 0.88194 0.0
C3940 C 0.97806 0.5769 0.86627 0.0
H3941 H 0.0402 0.56258 0.97533 0.0
H3942 H 0.02985 0.57323 0.9477 0.0
C3943 C 0.96771 0.57324 0.84918 0.0
C3944 C 0.97935 0.57515 0.89941 0.0
H3945 H 0.98634 0.58985 0.94495 0.0
C3946 C 0.98775 0.56105 0.89959 0.0
C3947 C 0.97932 0.58608 0.91588 0.0
C3948 C 0.97149 0.60208 0.91648 0.0
C3949 C 0.9954 0.55706 0.91583 0.0
C3950 C 0.99462 0.56743 0.9323 0.0
C3951 C 0.98678 0.5819 0.9322 0.0
C3952 C 1.00094 0.56255 0.94975 0.0
C3953 C 1.00356 0.54126 0.91538 0.0
C3954 C 0.98804 0.55315 0.95997 0.0
C3955 C 0.99385 0.54689 0.97563 0.0
C3956 C 0.0127 0.55003 0.98135 0.0
C3957 C 0.02559 0.55984 0.97124 0.0
C3958 C 0.01974 0.56602 0.95552 0.0
H3959 H 1.00139 0.5334 0.90159 0.0
H3960 H 0.01856 0.5465 0.91998 0.0
H3961 H 0.99742 0.53185 0.92479 0.0
H3962 H 0.97346 0.5503 0.95558 0.0
H3963 H 0.98357 0.53956 0.98321 0.0
H3964 H 0.26812 0.23771 0.56735 0.0
H3965 H 0.26708 0.25228 0.59793 0.0
H3966 H 0.30138 0.22192 0.62061 0.0
H3967 H 0.30261 0.20747 0.5903 0.0
H3968 H 0.2532 0.23432 0.62648 0.0
H3969 H 0.32625 0.27367 0.64659 0.0
H3970 H 0.31664 0.26478 0.62329 0.0
H3971 H 0.32325 0.25015 0.63814 0.0
C3972 C 0.27575 0.23441 0.57882 0.0
C3973 C 0.28551 0.22143 0.57628 0.0
C3974 C 0.27505 0.24269 0.59631 0.0
C3975 C 0.2843 0.23836 0.61161 0.0
C3976 C 0.2944 0.22577 0.60906 0.0
H3977 H 0.2944 0.25176 0.72716 0.0
H3978 H 0.29529 0.24482 0.69484 0.0
C3979 C 0.29502 0.21744 0.59165 0.0
C3980 C 0.28256 0.24601 0.63033 0.0
H3981 H 0.30787 0.26835 0.67065 0.0
C3982 C 0.26511 0.24202 0.63608 0.0
C3983 C 0.29809 0.25605 0.64289 0.0
C3984 C 0.3171 0.26158 0.63739 0.0
C3985 C 0.26289 0.24698 0.65421 0.0
C3986 C 0.27851 0.25647 0.66692 0.0
C3987 C 0.29588 0.26101 0.66099 0.0
C3988 C 0.2774 0.26077 0.68664 0.0
C3989 C 0.24394 0.24123 0.6598 0.0
C3990 C 0.26705 0.27215 0.69296 0.0
C3991 C 0.26644 0.27615 0.71162 0.0
C3992 C 0.27625 0.26893 0.72434 0.0
C3993 C 0.28661 0.25758 0.71788 0.0
C3994 C 0.28719 0.2536 0.69932 0.0
H3995 H 0.23409 0.2307 0.64945 0.0
H3996 H 0.24434 0.23574 0.67289 0.0
H3997 H 0.23866 0.25329 0.66162 0.0
H3998 H 0.25964 0.27814 0.6835 0.0
H3999 H 0.25844 0.28504 0.71607 0.0
H4000 H 0.57375 0.53905 0.2501 0.0
H4001 H 0.5591 0.53973 0.21962 0.0
H4002 H 0.59351 0.50988 0.19634 0.0
H4003 H 0.60809 0.50903 0.22657 0.0
H4004 H 0.57681 0.55564 0.19171 0.0
H4005 H 0.54256 0.48198 0.16956 0.0
H4006 H 0.55063 0.4914 0.19305 0.0
H4007 H 0.56642 0.48675 0.17819 0.0
C4008 C 0.57796 0.53232 0.23851 0.0
C4009 C 0.59209 0.52393 0.24087 0.0
C4010 C 0.56962 0.53281 0.22108 0.0
C4011 C 0.57505 0.5247 0.20564 0.0
C4012 C 0.58882 0.51595 0.20799 0.0
H4013 H 0.56226 0.51689 0.09022 0.0
H4014 H 0.56955 0.51581 0.12236 0.0
C4015 C 0.59721 0.51554 0.22536 0.0
C4016 C 0.56724 0.52627 0.18703 0.0
H4017 H 0.5465 0.50099 0.14619 0.0
C4018 C 0.56993 0.54371 0.18181 0.0
C4019 C 0.55825 0.51072 0.17409 0.0
C4020 C 0.55412 0.49166 0.17902 0.0
C4021 C 0.56473 0.54597 0.16384 0.0
C4022 C 0.55628 0.53038 0.15075 0.0
C4023 C 0.55304 0.51297 0.15615 0.0
C4024 C 0.55179 0.53166 0.13117 0.0
C4025 C 0.5691 0.56501 0.15882 0.0
C4026 C 0.53929 0.54094 0.12525 0.0
C4027 C 0.53508 0.54167 0.1067 0.0
C4028 C 0.54321 0.53303 0.09368 0.0
C4029 C 0.55571 0.52376 0.09974 0.0
C4030 C 0.55989 0.52307 0.11819 0.0
H4031 H 0.57914 0.57513 0.16936 0.0
H4032 H 0.57475 0.56545 0.14572 0.0
H4033 H 0.55631 0.56919 0.15728 0.0
H4034 H 0.53257 0.5474 0.13494 0.0
H4035 H 0.5253 0.5488 0.10256 0.0
H4036 H 0.23282 0.84007 0.96995 0.0
H4037 H 0.22691 0.82104 0.94035 0.0
H4038 H 0.24177 0.86949 0.91457 0.0
H4039 H 0.24678 0.88856 0.94405 0.0
H4040 H 0.21551 0.84154 0.89277 0.0
H4041 H 0.27337 0.81743 0.92105 0.0
H4042 H 0.25367 0.81235 0.93285 0.0
H4043 H 0.26675 0.83573 0.93299 0.0
C4044 C 0.2343 0.84662 0.95788 0.0
C4045 C 0.24056 0.86573 0.95921 0.0
C4046 C 0.23101 0.83576 0.94103 0.0
C4047 C 0.23453 0.84387 0.9254 0.0
C4048 C 0.23913 0.86297 0.92652 0.0
H4049 H 0.27003 0.82532 0.82431 0.0
H4050 H 0.25801 0.83592 0.85111 0.0
C4051 C 0.242 0.87385 0.94335 0.0
C4052 C 0.23589 0.83281 0.90845 0.0
H4053 H 0.26136 0.80676 0.89065 0.0
C4054 C 0.22537 0.83375 0.89232 0.0
C4055 C 0.2489 0.82276 0.9079 0.0
C4056 C 0.26144 0.82209 0.92456 0.0
C4057 C 0.22784 0.82526 0.87558 0.0
C4058 C 0.24114 0.81566 0.87508 0.0
C4059 C 0.25108 0.81405 0.89122 0.0
C4060 C 0.24653 0.80888 0.85792 0.0
C4061 C 0.21654 0.82691 0.85852 0.0
C4062 C 0.24424 0.79018 0.85312 0.0
C4063 C 0.25115 0.78406 0.83783 0.0
C4064 C 0.26073 0.79661 0.82736 0.0
C4065 C 0.26288 0.81533 0.8322 0.0
C4066 C 0.25581 0.82139 0.84735 0.0
H4067 H 0.20392 0.83056 0.86147 0.0
H4068 H 0.22486 0.83781 0.85172 0.0
H4069 H 0.21256 0.81394 0.84895 0.0
H4070 H 0.23731 0.78039 0.86132 0.0
H4071 H 0.24925 0.76955 0.83439 0.0
H4072 H 0.94608 0.56152 0.75659 0.0
H4073 H 0.95525 0.55577 0.7268 0.0
H4074 H 0.89838 0.53276 0.70374 0.0
H4075 H 0.88901 0.53838 0.73364 0.0
H4076 H 0.91985 0.5093 0.69796 0.0
H4077 H 0.95334 0.57687 0.67919 0.0
H4078 H 0.96144 0.57496 0.70199 0.0
H4079 H 0.93773 0.57392 0.69598 0.0
C4080 C 0.93547 0.55569 0.74511 0.0
C4081 C 0.91683 0.55026 0.74749 0.0
C4082 C 0.94074 0.55252 0.72806 0.0
C4083 C 0.92748 0.54396 0.71308 0.0
C4084 C 0.90879 0.53949 0.71516 0.0
H4085 H 0.97316 0.5217 0.61353 0.0
H4086 H 0.95187 0.52923 0.6332 0.0
C4087 C 0.90348 0.54276 0.73224 0.0
C4088 C 0.93342 0.53745 0.69607 0.0
H4089 H 0.96303 0.5515 0.66591 0.0
C4090 C 0.92896 0.51852 0.69066 0.0
C4091 C 0.94513 0.5495 0.6865 0.0
C4092 C 0.94954 0.56995 0.6911 0.0
C4093 C 0.93694 0.5113 0.67667 0.0
C4094 C 0.94984 0.52334 0.66811 0.0
C4095 C 0.9533 0.54228 0.67268 0.0
C4096 C 0.96095 0.51669 0.65541 0.0
C4097 C 0.93186 0.49085 0.67151 0.0
C4098 C 0.97296 0.50697 0.66135 0.0
C4099 C 0.98507 0.50251 0.65011 0.0
C4100 C 0.98543 0.50782 0.63277 0.0
C4101 C 0.973 0.51712 0.62669 0.0
C4102 C 0.96091 0.52156 0.63794 0.0
H4103 H 0.91804 0.48408 0.67496 0.0
H4104 H 0.93201 0.48707 0.6568 0.0
H4105 H 0.94196 0.48551 0.67915 0.0
H4106 H 0.97344 0.5034 0.67494 0.0
H4107 H 0.99442 0.49528 0.65512 0.0
H4108 H 0.25813 0.23004 0.47181 0.0
H4109 H 0.26177 0.23877 0.44174 0.0
H4110 H 0.30918 0.21875 0.44074 0.0
H4111 H 0.3053 0.20949 0.47073 0.0
H4112 H 0.28857 0.26204 0.42858 0.0
H4113 H 0.27896 0.19202 0.39359 0.0
H4114 H 0.27445 0.19639 0.41658 0.0
H4115 H 0.29764 0.19941 0.41181 0.0
C4116 C 0.26939 0.22751 0.46525 0.0
C4117 C 0.28135 0.21894 0.4737 0.0
C4118 C 0.27146 0.23254 0.448 0.0
C4119 C 0.28554 0.22914 0.43871 0.0
C4120 C 0.2979 0.22111 0.44735 0.0
H4121 H 0.31111 0.27845 0.33984 0.0
H4122 H 0.31319 0.2704 0.37056 0.0
C4123 C 0.29576 0.21596 0.4646 0.0
C4124 C 0.28708 0.23398 0.42 0.0
H4125 H 0.28667 0.21604 0.37602 0.0
C4126 C 0.28821 0.25198 0.4171 0.0
C4127 C 0.28638 0.22084 0.4049 0.0
C4128 C 0.28411 0.20105 0.40678 0.0
C4129 C 0.28853 0.25716 0.39965 0.0
C4130 C 0.28816 0.2441 0.3846 0.0
C4131 C 0.28715 0.22613 0.38751 0.0
C4132 C 0.28769 0.24849 0.36562 0.0
C4133 C 0.28854 0.27642 0.39746 0.0
C4134 C 0.27311 0.23841 0.35229 0.0
C4135 C 0.27202 0.24281 0.33464 0.0
C4136 C 0.2855 0.25745 0.32983 0.0
C4137 C 0.3004 0.2672 0.34305 0.0
C4138 C 0.30153 0.2627 0.36071 0.0
H4139 H 0.28395 0.28314 0.40927 0.0
H4140 H 0.30271 0.28461 0.39632 0.0
H4141 H 0.27946 0.27665 0.38502 0.0
H4142 H 0.2623 0.22732 0.35562 0.0
H4143 H 0.26037 0.23492 0.32487 0.0
H4144 H 0.35295 0.61144 0.56093 0.0
H4145 H 0.36979 0.59653 0.54122 0.0
H4146 H 0.34968 0.61876 0.49577 0.0
H4147 H 0.33286 0.63401 0.5155 0.0
H4148 H 0.34549 0.57712 0.49255 0.0
H4149 H 0.41587 0.62334 0.51554 0.0
H4150 H 0.40215 0.6174 0.53335 0.0
H4151 H 0.39544 0.63066 0.5171 0.0
C4152 C 0.35219 0.61329 0.54678 0.0
C4153 C 0.3416 0.62391 0.53976 0.0
C4154 C 0.36185 0.60481 0.53557 0.0
C4155 C 0.36101 0.60669 0.51714 0.0
C4156 C 0.35052 0.61728 0.51001 0.0
H4157 H 0.43669 0.55518 0.46797 0.0
H4158 H 0.41649 0.57498 0.46866 0.0
C4159 C 0.34099 0.62599 0.5213 0.0
C4160 C 0.37066 0.59684 0.50545 0.0
H4161 H 0.41356 0.59314 0.50157 0.0
C4162 C 0.36038 0.5808 0.49409 0.0
C4163 C 0.39003 0.60187 0.50733 0.0
C4164 C 0.40158 0.61935 0.51887 0.0
C4165 C 0.36907 0.56884 0.48575 0.0
C4166 C 0.38842 0.57303 0.48905 0.0
C4167 C 0.3987 0.58988 0.49911 0.0
C4168 C 0.3981 0.55916 0.48496 0.0
C4169 C 0.35743 0.55143 0.47417 0.0
C4170 C 0.39418 0.54349 0.49352 0.0
C4171 C 0.4058 0.53234 0.49341 0.0
C4172 C 0.42164 0.53666 0.48475 0.0
C4173 C 0.42478 0.55163 0.47502 0.0
C4174 C 0.41319 0.56288 0.47527 0.0
H4175 H 0.34441 0.55319 0.46773 0.0
H4176 H 0.36489 0.54689 0.46342 0.0
H4177 H 0.35381 0.54052 0.48283 0.0
H4178 H 0.38289 0.5406 0.50147 0.0
H4179 H 0.40306 0.52118 0.50132 0.0
H4180 H 0.82658 0.93966 0.56396 0.0
H4181 H 0.85632 0.96158 0.56254 0.0
H4182 H 0.87576 0.91798 0.53875 0.0
H4183 H 0.84613 0.89598 0.54003 0.0
H4184 H 0.89207 0.96158 0.5784 0.0
H4185 H 0.88578 0.95637 0.50343 0.0
H4186 H 0.86628 0.94852 0.51531 0.0
H4187 H 0.88162 0.93482 0.51184 0.0
C4188 C 0.83716 0.93471 0.5584 0.0
C4189 C 0.83391 0.91604 0.55204 0.0
C4190 C 0.85414 0.94727 0.55762 0.0
C4191 C 0.86812 0.94143 0.55031 0.0
C4192 C 0.86503 0.92281 0.54416 0.0
H4193 H 0.98459 0.98903 0.5589 0.0
H4194 H 0.9532 0.97199 0.56178 0.0
C4195 C 0.8481 0.91024 0.545 0.0
C4196 C 0.88609 0.95471 0.54938 0.0
H4197 H 0.91534 0.97187 0.51978 0.0
C4198 C 0.89712 0.96396 0.5656 0.0
C4199 C 0.89252 0.95796 0.53264 0.0
C4200 C 0.88089 0.94904 0.51479 0.0
C4201 C 0.91471 0.97589 0.56553 0.0
C4202 C 0.92147 0.97849 0.54882 0.0
C4203 C 0.91018 0.96975 0.53258 0.0
C4204 C 0.94051 0.98956 0.5479 0.0
C4205 C 0.92596 0.98558 0.58334 0.0
C4206 C 0.94381 0.00501 0.53897 0.0
C4207 C 0.9618 0.01483 0.53727 0.0
C4208 C 0.97679 0.00921 0.5443 0.0
C4209 C 0.97339 0.99378 0.55335 0.0
C4210 C 0.95545 0.98406 0.55512 0.0
H4211 H 0.91719 0.98605 0.59426 0.0
H4212 H 0.9359 0.97814 0.58746 0.0
H4213 H 0.93384 0.99975 0.5821 0.0
H4214 H 0.93244 0.00939 0.5332 0.0
H4215 H 0.96391 0.02659 0.53016 0.0
H4216 H 0.91085 0.08312 0.30043 0.0
H4217 H 0.89415 0.10554 0.30758 0.0
H4218 H 0.85954 0.08657 0.25616 0.0
H4219 H 0.87593 0.06416 0.24899 0.0
H4220 H 0.88908 0.13393 0.28857 0.0
H4221 H 0.82245 0.08356 0.29256 0.0
H4222 H 0.84374 0.07758 0.29307 0.0
H4223 H 0.83164 0.0795 0.27187 0.0
C4224 C 0.89967 0.08372 0.29067 0.0
C4225 C 0.89467 0.07176 0.27419 0.0
C4226 C 0.89015 0.09654 0.29477 0.0
C4227 C 0.87539 0.09751 0.28254 0.0
C4228 C 0.87061 0.08581 0.26597 0.0
H4229 H 0.82299 0.18255 0.27171 0.0
H4230 H 0.84169 0.16145 0.26947 0.0
C4231 C 0.88009 0.07305 0.26186 0.0
C4232 C 0.86507 0.11091 0.28683 0.0
H4233 H 0.82192 0.11421 0.29098 0.0
C4234 C 0.87443 0.12964 0.28925 0.0
C4235 C 0.846 0.10529 0.28796 0.0
C4236 C 0.83537 0.08539 0.28641 0.0
C4237 C 0.86508 0.14289 0.29214 0.0
C4238 C 0.84585 0.13726 0.29239 0.0
C4239 C 0.83663 0.11853 0.2906 0.0
C4240 C 0.83496 0.15052 0.29413 0.0
C4241 C 0.8759 0.16282 0.29495 0.0
C4242 C 0.82463 0.15118 0.30855 0.0
C4243 C 0.8139 0.16326 0.30989 0.0
C4244 C 0.81317 0.17487 0.29674 0.0
C4245 C 0.82349 0.1741 0.28227 0.0
C4246 C 0.83422 0.16203 0.28096 0.0
H4247 H 0.89073 0.16481 0.29934 0.0
H4248 H 0.87463 0.16836 0.28198 0.0
H4249 H 0.87057 0.17081 0.30523 0.0
H4250 H 0.82493 0.14237 0.31883 0.0
H4251 H 0.80629 0.16359 0.3213 0.0
H4252 H 0.73148 0.14457 0.06328 0.0
H4253 H 0.69867 0.12832 0.05932 0.0
H4254 H 0.70959 0.08046 0.03261 0.0
H4255 H 0.74253 0.09629 0.03782 0.0
H4256 H 0.67485 0.1154 0.03164 0.0
H4257 H 0.67877 0.05704 0.06719 0.0
H4258 H 0.69841 0.07653 0.06767 0.0
H4259 H 0.69199 0.05841 0.04869 0.0
C4260 C 0.72683 0.13051 0.05674 0.0
C4261 C 0.73944 0.12156 0.05104 0.0
C4262 C 0.70811 0.12125 0.05443 0.0
C4263 C 0.70164 0.103 0.046 0.0
C4264 C 0.71425 0.09427 0.03977 0.0
H4265 H 0.58448 0.05495 0.00566 0.0
H4266 H 0.61758 0.06976 0.00802 0.0
C4267 C 0.73304 0.10335 0.0426 0.0
C4268 C 0.68166 0.09337 0.0434 0.0
H4269 H 0.65019 0.05419 0.04956 0.0
C4270 C 0.66945 0.10208 0.03572 0.0
C4271 C 0.67456 0.07608 0.04891 0.0
C4272 C 0.68662 0.06658 0.05875 0.0
C4273 C 0.65037 0.09409 0.03352 0.0
C4274 C 0.64332 0.07641 0.03824 0.0
C4275 C 0.65556 0.06765 0.04577 0.0
C4276 C 0.62332 0.06705 0.03635 0.0
C4277 C 0.63808 0.10505 0.02684 0.0
C4278 C 0.61564 0.05978 0.05115 0.0
C4279 C 0.59695 0.05069 0.04956 0.0
C4280 C 0.58551 0.04909 0.03327 0.0
C4281 C 0.59307 0.05631 0.01843 0.0
C4282 C 0.61192 0.0649 0.01984 0.0
H4283 H 0.6452 0.11994 0.02955 0.0
H4284 H 0.63422 0.10126 0.01196 0.0
H4285 H 0.62535 0.10243 0.03334 0.0
H4286 H 0.62411 0.06122 0.06402 0.0
H4287 H 0.59135 0.04525 0.0612 0.0
H4288 H 0.21911 0.48415 0.25254 0.0
H4289 H 0.23391 0.46592 0.27005 0.0
H4290 H 0.19291 0.46091 0.30629 0.0
H4291 H 0.1779 0.47928 0.28881 0.0
H4292 H 0.24662 0.473 0.31088 0.0
H4293 H 0.19292 0.40716 0.28456 0.0
H4294 H 0.19599 0.4266 0.27249 0.0
H4295 H 0.18606 0.42673 0.29317 0.0
C4296 C 0.2132 0.47921 0.26423 0.0
C4297 C 0.19727 0.48305 0.26924 0.0
C4298 C 0.22174 0.46889 0.27426 0.0
C4299 C 0.21445 0.46212 0.28939 0.0
C4300 C 0.19866 0.46603 0.29459 0.0
H4301 H 0.25249 0.3759 0.33244 0.0
H4302 H 0.23644 0.39938 0.33162 0.0
C4303 C 0.19012 0.47647 0.28459 0.0
C4304 C 0.22322 0.45041 0.29911 0.0
H4305 H 0.22005 0.40564 0.30093 0.0
C4306 C 0.24071 0.45828 0.30904 0.0
C4307 C 0.21533 0.43129 0.29679 0.0
C4308 C 0.19656 0.4223 0.28615 0.0
C4309 C 0.25097 0.44739 0.31601 0.0
C4310 C 0.24366 0.42816 0.3125 0.0
C4311 C 0.22566 0.42039 0.30356 0.0
C4312 C 0.25505 0.4158 0.31588 0.0
C4313 C 0.26967 0.45656 0.3267 0.0
C4314 C 0.27099 0.41742 0.30757 0.0
C4315 C 0.28016 0.40407 0.30803 0.0
C4316 C 0.2734 0.38872 0.3166 0.0
C4317 C 0.25789 0.38752 0.32559 0.0
C4318 C 0.24878 0.40094 0.32521 0.0
H4319 H 0.27026 0.47017 0.33389 0.0
H4320 H 0.27332 0.44815 0.33677 0.0
H4321 H 0.28013 0.45871 0.31726 0.0
H4322 H 0.27579 0.42846 0.29983 0.0
H4323 H 0.29189 0.40522 0.30073 0.0
H4324 H 0.22678 0.40007 0.01598 0.0
H4325 H 0.20469 0.41729 0.00978 0.0
H4326 H 0.21919 0.44581 0.06444 0.0
H4327 H 0.24148 0.4291 0.07056 0.0
H4328 H 0.1744 0.41974 0.02519 0.0
H4329 H 0.22557 0.48791 0.03578 0.0
H4330 H 0.2321 0.46703 0.03367 0.0
H4331 H 0.22682 0.47613 0.055 0.0
C4332 C 0.22528 0.41004 0.02665 0.0
C4333 C 0.23604 0.41333 0.04371 0.0
C4334 C 0.21265 0.41987 0.0231 0.0
C4335 C 0.21056 0.43317 0.03651 0.0
C4336 C 0.22092 0.43605 0.05369 0.0
H4337 H 0.13919 0.50123 0.05277 0.0
H4338 H 0.16064 0.48281 0.05516 0.0
C4339 C 0.23359 0.42636 0.0572 0.0
C4340 C 0.19741 0.44389 0.03279 0.0
H4341 H 0.19409 0.48751 0.03538 0.0
C4342 C 0.17875 0.43455 0.02721 0.0
C4343 C 0.20306 0.46325 0.03532 0.0
C4344 C 0.22301 0.47416 0.04009 0.0
C4345 C 0.16555 0.44404 0.02477 0.0
C4346 C 0.17116 0.46334 0.02793 0.0
C4347 C 0.18982 0.47269 0.03312 0.0
C4348 C 0.15781 0.47412 0.02631 0.0
C4349 C 0.1456 0.43343 0.01933 0.0
C4350 C 0.14921 0.47541 0.00928 0.0
C4351 C 0.13699 0.486 0.00786 0.0
C4352 C 0.13308 0.4954 0.02347 0.0
C4353 C 0.14172 0.49399 0.04051 0.0
C4354 C 0.15404 0.48355 0.04189 0.0
H4355 H 0.14317 0.41857 0.01975 0.0
H4356 H 0.13694 0.4386 0.0284 0.0
H4357 H 0.14112 0.43535 0.00532 0.0
H4358 H 0.15206 0.46835 0.99708 0.0
H4359 H 0.13048 0.4867 0.99455 0.0
H4360 H 0.91678 0.96469 0.27849 0.0
H4361 H 0.89504 0.9347 0.27822 0.0
H4362 H 0.8506 0.95447 0.25743 0.0
H4363 H 0.87221 0.98467 0.25789 0.0
H4364 H 0.84253 0.93511 0.28599 0.0
H4365 H 0.87007 0.89622 0.23472 0.0
H4366 H 0.88735 0.9091 0.25298 0.0
H4367 H 0.87619 0.92086 0.23814 0.0
C4368 C 0.90241 0.96268 0.27374 0.0
C4369 C 0.89628 0.97711 0.26814 0.0
C4370 C 0.89 0.94546 0.27349 0.0
C4371 C 0.87124 0.94225 0.2675 0.0
C4372 C 0.86504 0.95662 0.26198 0.0
H4373 H 0.78025 0.8421 0.26676 0.0
H4374 H 0.79746 0.87279 0.26178 0.0
C4375 C 0.87743 0.97387 0.26225 0.0
C4376 C 0.85807 0.92407 0.26767 0.0
H4377 H 0.84981 0.87861 0.25281 0.0
C4378 C 0.84393 0.92276 0.27853 0.0
C4379 C 0.85987 0.908 0.25785 0.0
C4380 C 0.87407 0.90859 0.24512 0.0
C4381 C 0.83211 0.90573 0.28054 0.0
C4382 C 0.83441 0.88964 0.27128 0.0
C4383 C 0.84814 0.89099 0.25994 0.0
C4384 C 0.82368 0.87122 0.27422 0.0
C4385 C 0.81778 0.90498 0.29315 0.0
C4386 C 0.83275 0.86015 0.28264 0.0
C4387 C 0.82303 0.84272 0.2855 0.0
C4388 C 0.80397 0.83587 0.27988 0.0
C4389 C 0.79488 0.84696 0.27132 0.0
C4390 C 0.80467 0.86452 0.26852 0.0
H4391 H 0.81969 0.91841 0.30145 0.0
H4392 H 0.80394 0.90077 0.28506 0.0
H4393 H 0.81819 0.8947 0.30236 0.0
H4394 H 0.84741 0.86505 0.28709 0.0
H4395 H 0.83056 0.83457 0.29204 0.0
H4396 H 0.72254 0.0681 0.76621 0.0
H4397 H 0.73875 0.10086 0.77173 0.0
H4398 H 0.6917 0.11195 0.74372 0.0
H4399 H 0.67508 0.07942 0.73936 0.0
H4400 H 0.75013 0.12665 0.75298 0.0
H4401 H 0.69686 0.14378 0.79018 0.0
H4402 H 0.69655 0.12051 0.78326 0.0
H4403 H 0.68708 0.13289 0.76765 0.0
C4404 C 0.71578 0.07759 0.76114 0.0
C4405 C 0.69755 0.07141 0.75259 0.0
C4406 C 0.725 0.09626 0.76432 0.0
C4407 C 0.7162 0.10893 0.75868 0.0
C4408 C 0.69847 0.10253 0.74889 0.0
H4409 H 0.76974 0.22099 0.74853 0.0
H4410 H 0.75744 0.18778 0.74482 0.0
C4411 C 0.68907 0.08396 0.74621 0.0
C4412 C 0.72535 0.12881 0.76331 0.0
H4413 H 0.71814 0.16883 0.78031 0.0
C4414 C 0.74322 0.13586 0.75914 0.0
C4415 C 0.7166 0.1408 0.7719 0.0
C4416 C 0.69832 0.13406 0.7787 0.0
C4417 C 0.75232 0.15464 0.76274 0.0
C4418 C 0.74291 0.16677 0.76987 0.0
C4419 C 0.72528 0.15962 0.77458 0.0
C4420 C 0.7508 0.18691 0.77224 0.0
C4421 C 0.772 0.16111 0.75917 0.0
C4422 C 0.75037 0.19761 0.78858 0.0
C4423 C 0.75665 0.21664 0.79041 0.0
C4424 C 0.76385 0.22522 0.77609 0.0
C4425 C 0.76446 0.21459 0.75984 0.0
C4426 C 0.75764 0.19561 0.7578 0.0
H4427 H 0.77902 0.15037 0.76056 0.0
H4428 H 0.77224 0.16417 0.74505 0.0
H4429 H 0.77991 0.17359 0.76859 0.0
H4430 H 0.74507 0.19124 0.7999 0.0
H4431 H 0.75615 0.22462 0.8031 0.0
loop_
_geom_bond_atom_site_label_1
_geom_bond_atom_site_label_2
_geom_bond_distance
_geom_bond_site_symmetry_2
_ccdc_geom_bond_type
O0 Cd1 2.223 . S
O0 C8 1.315 . S
Cd1 O0 2.223 . S
Cd1 O4 2.297 . S
Cd1 O5 2.439 . S
Cd1 O11 2.240 . S
Cd2 O3 2.240 . S
Cd2 O10 2.223 1_455 S
Cd2 O12 2.297 . S
Cd2 O13 2.439 . S
O3 Cd2 2.240 . S
O3 C8 1.279 . S
O4 Cd1 2.297 . S
O4 C6 1.247 . S
O5 Cd1 2.439 . S
O5 C6 1.208 . S
C6 O4 1.247 . S
C6 O5 1.208 . S
C7 O12 1.247 . S
C7 O13 1.208 . S
C8 O0 1.315 . S
C8 O3 1.279 . S
C9 O10 1.315 . S
C9 O11 1.279 1_655 S
O10 Cd2 2.223 1_655 S
O10 C9 1.315 . S
O11 Cd1 2.240 . S
O11 C9 1.279 1_455 S
O12 Cd2 2.297 . S
O12 C7 1.247 . S
O13 Cd2 2.439 . S
O13 C7 1.208 . S
O14 Cd15 2.223 . S
O14 C22 1.315 . S
Cd15 O14 2.223 . S
Cd15 O18 2.297 1_455 S
Cd15 O19 2.439 1_455 S
Cd15 O25 2.240 . S
Cd16 O17 2.240 . S
Cd16 O24 2.223 . S
Cd16 O26 2.297 . S
Cd16 O27 2.439 . S
O17 Cd16 2.240 . S
O17 C22 1.279 . S
O18 Cd15 2.297 1_655 S
O18 C20 1.247 . S
O19 Cd15 2.439 1_655 S
O19 C20 1.208 . S
C20 O18 1.247 . S
C20 O19 1.208 . S
C21 O26 1.247 . S
C21 O27 1.208 . S
C22 O14 1.315 . S
C22 O17 1.279 . S
C23 O24 1.315 . S
C23 O25 1.279 . S
O24 Cd16 2.223 . S
O24 C23 1.315 . S
O25 Cd15 2.240 . S
O25 C23 1.279 . S
O26 Cd16 2.297 . S
O26 C21 1.247 . S
O27 Cd16 2.439 . S
O27 C21 1.208 . S
O28 Cd29 2.223 . S
O28 C36 1.315 . S
Cd29 O28 2.223 . S
Cd29 O32 2.297 . S
Cd29 O33 2.439 . S
Cd29 O39 2.240 . S
Cd30 O31 2.240 . S
Cd30 O38 2.223 . S
Cd30 O40 2.297 . S
Cd30 O41 2.439 . S
O31 Cd30 2.240 . S
O31 C36 1.279 . S
O32 Cd29 2.297 . S
O32 C34 1.247 . S
O33 Cd29 2.439 . S
O33 C34 1.208 . S
C34 O32 1.247 . S
C34 O33 1.208 . S
C35 O40 1.247 . S
C35 O41 1.208 . S
C36 O28 1.315 . S
C36 O31 1.279 . S
C37 O38 1.315 . S
C37 O39 1.279 . S
O38 Cd30 2.223 . S
O38 C37 1.315 . S
O39 Cd29 2.240 . S
O39 C37 1.279 . S
O40 Cd30 2.297 . S
O40 C35 1.247 . S
O41 Cd30 2.439 . S
O41 C35 1.208 . S
O42 Cd43 2.223 . S
O42 C50 1.315 . S
Cd43 O42 2.223 . S
Cd43 O46 2.297 . S
Cd43 O47 2.439 . S
Cd43 O53 2.240 . S
Cd44 O45 2.240 . S
Cd44 O52 2.223 . S
Cd44 O54 2.297 . S
Cd44 O55 2.439 . S
O45 Cd44 2.240 . S
O45 C50 1.279 . S
O46 Cd43 2.297 . S
O46 C48 1.247 . S
O47 Cd43 2.439 . S
O47 C48 1.208 . S
C48 O46 1.247 . S
C48 O47 1.208 . S
C49 O54 1.247 . S
C49 O55 1.208 . S
C50 O42 1.315 . S
C50 O45 1.279 . S
C51 O52 1.315 . S
C51 O53 1.279 . S
O52 Cd44 2.223 . S
O52 C51 1.315 . S
O53 Cd43 2.240 . S
O53 C51 1.279 . S
O54 Cd44 2.297 . S
O54 C49 1.247 . S
O55 Cd44 2.439 . S
O55 C49 1.208 . S
O56 Cd57 2.223 . S
O56 C64 1.315 . S
Cd57 O56 2.223 . S
Cd57 O60 2.297 . S
Cd57 O61 2.439 . S
Cd57 O67 2.240 . S
Cd58 O59 2.240 . S
Cd58 O66 2.223 . S
Cd58 O68 2.297 . S
Cd58 O69 2.439 . S
O59 Cd58 2.240 . S
O59 C64 1.279 . S
O60 Cd57 2.297 . S
O60 C62 1.247 . S
O61 Cd57 2.439 . S
O61 C62 1.208 . S
C62 O60 1.247 . S
C62 O61 1.208 . S
C63 O68 1.247 . S
C63 O69 1.208 . S
C64 O56 1.315 . S
C64 O59 1.279 . S
C65 O66 1.315 . S
C65 O67 1.279 . S
O66 Cd58 2.223 . S
O66 C65 1.315 . S
O67 Cd57 2.240 . S
O67 C65 1.279 . S
O68 Cd58 2.297 . S
O68 C63 1.247 . S
O69 Cd58 2.439 . S
O69 C63 1.208 . S
O70 Cd71 2.223 . S
O70 C78 1.315 . S
Cd71 O70 2.223 . S
Cd71 O74 2.297 . S
Cd71 O75 2.439 . S
Cd71 O81 2.240 . S
Cd72 O73 2.240 . S
Cd72 O80 2.223 . S
Cd72 O82 2.297 . S
Cd72 O83 2.439 . S
O73 Cd72 2.240 . S
O73 C78 1.279 . S
O74 Cd71 2.297 . S
O74 C76 1.247 . S
O75 Cd71 2.439 . S
O75 C76 1.208 . S
C76 O74 1.247 . S
C76 O75 1.208 . S
C77 O82 1.247 . S
C77 O83 1.208 . S
C78 O70 1.315 . S
C78 O73 1.279 . S
C79 O80 1.315 . S
C79 O81 1.279 . S
O80 Cd72 2.223 . S
O80 C79 1.315 . S
O81 Cd71 2.240 . S
O81 C79 1.279 . S
O82 Cd72 2.297 . S
O82 C77 1.247 . S
O83 Cd72 2.439 . S
O83 C77 1.208 . S
O84 Cd85 2.223 . S
O84 C92 1.315 . S
Cd85 O84 2.223 . S
Cd85 O88 2.297 . S
Cd85 O89 2.439 . S
Cd85 O95 2.240 . S
Cd86 O87 2.240 . S
Cd86 O94 2.223 . S
Cd86 O96 2.297 . S
Cd86 O97 2.439 . S
O87 Cd86 2.240 . S
O87 C92 1.279 . S
O88 Cd85 2.297 . S
O88 C90 1.247 . S
O89 Cd85 2.439 . S
O89 C90 1.208 . S
C90 O88 1.247 . S
C90 O89 1.208 . S
C91 O96 1.247 . S
C91 O97 1.208 . S
C92 O84 1.315 . S
C92 O87 1.279 . S
C93 O94 1.315 . S
C93 O95 1.279 . S
O94 Cd86 2.223 . S
O94 C93 1.315 . S
O95 Cd85 2.240 . S
O95 C93 1.279 . S
O96 Cd86 2.297 . S
O96 C91 1.247 . S
O97 Cd86 2.439 . S
O97 C91 1.208 . S
O98 Cd99 2.223 1_655 S
O98 C106 1.315 . S
Cd99 O98 2.223 1_455 S
Cd99 O102 2.297 . S
Cd99 O103 2.439 . S
Cd99 O109 2.240 1_455 S
Cd100 O101 2.240 1_655 S
Cd100 O108 2.223 . S
Cd100 O110 2.297 . S
Cd100 O111 2.439 1_655 S
O101 Cd100 2.240 1_455 S
O101 C106 1.279 1_455 S
O102 Cd99 2.297 . S
O102 C104 1.247 . S
O103 Cd99 2.439 . S
O103 C104 1.208 . S
C104 O102 1.247 . S
C104 O103 1.208 . S
C105 O110 1.201 1_455 S
C105 O111 1.259 . S
C106 O98 1.315 . S
C106 O101 1.279 1_655 S
C107 O108 1.315 . S
C107 O109 1.279 . S
O108 Cd100 2.223 . S
O108 C107 1.315 . S
O109 Cd99 2.240 1_655 S
O109 C107 1.279 . S
O110 Cd100 2.297 . S
O110 C105 1.201 1_655 S
O111 Cd100 2.439 1_455 S
O111 C105 1.259 . S
O112 Cd113 2.225 . S
O112 C120 1.315 . S
Cd113 O112 2.225 . S
Cd113 O116 2.297 . S
Cd113 O117 2.439 . S
Cd113 O123 2.240 1_545 S
Cd114 O115 2.240 . S
Cd114 O122 2.223 1_545 S
Cd114 O124 2.297 1_545 S
Cd114 O125 2.439 . S
O115 Cd114 2.240 . S
O115 C120 1.279 . S
O116 Cd113 2.297 . S
O116 C118 1.247 . S
O117 Cd113 2.439 . S
O117 C118 1.208 . S
C118 O116 1.247 . S
C118 O117 1.208 . S
C119 O124 1.247 1_545 S
C119 O125 1.208 . S
C120 O112 1.315 . S
C120 O115 1.279 . S
C121 O122 1.315 . S
C121 O123 1.279 . S
O122 Cd114 2.223 1_565 S
O122 C121 1.315 . S
O123 Cd113 2.240 1_565 S
O123 C121 1.279 . S
O124 Cd114 2.297 1_565 S
O124 C119 1.247 1_565 S
O125 Cd114 2.439 . S
O125 C119 1.208 . S
O126 Cd127 2.223 . S
O126 C134 1.315 . S
Cd127 O126 2.223 . S
Cd127 O130 2.297 . S
Cd127 O131 2.439 . S
Cd127 O137 2.240 . S
Cd128 O129 2.240 . S
Cd128 O136 2.223 . S
Cd128 O138 2.297 . S
Cd128 O139 2.439 . S
O129 Cd128 2.240 . S
O129 C134 1.279 . S
O130 Cd127 2.297 . S
O130 C132 1.247 . S
O131 Cd127 2.439 . S
O131 C132 1.208 . S
C132 O130 1.247 . S
C132 O131 1.208 . S
C133 O138 1.247 . S
C133 O139 1.208 . S
C134 O126 1.315 . S
C134 O129 1.279 . S
C135 O136 1.315 . S
C135 O137 1.279 . S
O136 Cd128 2.223 . S
O136 C135 1.315 . S
O137 Cd127 2.240 . S
O137 C135 1.279 . S
O138 Cd128 2.297 . S
O138 C133 1.247 . S
O139 Cd128 2.439 . S
O139 C133 1.208 . S
O140 Cd141 2.223 . S
O140 C148 1.315 . S
Cd141 O140 2.223 . S
Cd141 O144 2.236 1_545 S
Cd141 O145 2.439 1_545 S
Cd141 O151 2.240 . S
Cd142 O143 2.240 . S
Cd142 O150 2.223 . S
Cd142 O152 2.297 . S
Cd142 O153 2.439 . S
O143 Cd142 2.240 . S
O143 C148 1.279 . S
O144 Cd141 2.236 1_565 S
O144 C146 1.277 . S
O145 Cd141 2.439 1_565 S
O145 C146 1.208 . S
C146 O144 1.277 . S
C146 O145 1.208 . S
C147 O152 1.247 . S
C147 O153 1.208 . S
C148 O140 1.315 . S
C148 O143 1.279 . S
C149 O150 1.315 . S
C149 O151 1.279 . S
O150 Cd142 2.223 . S
O150 C149 1.315 . S
O151 Cd141 2.240 . S
O151 C149 1.279 . S
O152 Cd142 2.297 . S
O152 C147 1.247 . S
O153 Cd142 2.439 . S
O153 C147 1.208 . S
O154 Cd155 2.223 . S
O154 C162 1.315 . S
Cd155 O154 2.223 . S
Cd155 O158 2.297 . S
Cd155 O159 2.439 1_554 S
Cd155 O165 2.240 1_554 S
Cd156 O157 2.240 1_556 S
Cd156 O164 2.223 1_556 S
Cd156 O166 2.297 . S
Cd156 O167 2.439 . S
O157 Cd156 2.240 1_554 S
O157 C162 1.279 . S
O158 Cd155 2.297 . S
O158 C160 1.247 . S
O159 Cd155 2.439 1_556 S
O159 C160 1.208 1_556 S
C160 O158 1.247 . S
C160 O159 1.208 1_554 S
C161 O166 1.247 . S
C161 O167 1.208 . S
C162 O154 1.315 . S
C162 O157 1.279 . S
C163 O164 1.315 . S
C163 O165 1.279 1_554 S
O164 Cd156 2.223 1_554 S
O164 C163 1.315 . S
O165 Cd155 2.240 1_556 S
O165 C163 1.279 1_556 S
O166 Cd156 2.297 . S
O166 C161 1.247 . S
O167 Cd156 2.439 . S
O167 C161 1.208 . S
O168 Cd169 2.223 . S
O168 C176 1.315 . S
Cd169 O168 2.223 . S
Cd169 O172 2.297 . S
Cd169 O173 2.439 . S
Cd169 O179 2.240 . S
Cd170 O171 2.240 . S
Cd170 O178 2.223 . S
Cd170 O180 2.301 . S
Cd170 O181 2.439 . S
O171 Cd170 2.240 . S
O171 C176 1.279 . S
O172 Cd169 2.297 . S
O172 C174 1.247 . S
O173 Cd169 2.439 . S
O173 C174 1.208 . S
C174 O172 1.247 . S
C174 O173 1.208 . S
C175 O180 1.246 1_556 S
C175 O181 1.208 1_556 S
C176 O168 1.315 . S
C176 O171 1.279 . S
C177 O178 1.315 . S
C177 O179 1.279 . S
O178 Cd170 2.223 . S
O178 C177 1.315 . S
O179 Cd169 2.240 . S
O179 C177 1.279 . S
O180 Cd170 2.301 . S
O180 C175 1.246 1_554 S
O181 Cd170 2.439 . S
O181 C175 1.208 1_554 S
O182 Cd183 2.223 . S
O182 C190 1.315 . S
Cd183 O182 2.223 . S
Cd183 O186 2.297 . S
Cd183 O187 2.439 . S
Cd183 O193 2.240 . S
Cd184 O185 2.240 . S
Cd184 O192 2.223 . S
Cd184 O194 2.297 . S
Cd184 O195 2.439 . S
O185 Cd184 2.240 . S
O185 C190 1.279 . S
O186 Cd183 2.297 . S
O186 C188 1.247 . S
O187 Cd183 2.439 . S
O187 C188 1.208 . S
C188 O186 1.247 . S
C188 O187 1.208 . S
C189 O194 1.247 . S
C189 O195 1.208 . S
C190 O182 1.315 . S
C190 O185 1.279 . S
C191 O192 1.315 . S
C191 O193 1.279 . S
O192 Cd184 2.223 . S
O192 C191 1.315 . S
O193 Cd183 2.240 . S
O193 C191 1.279 . S
O194 Cd184 2.297 . S
O194 C189 1.247 . S
O195 Cd184 2.439 . S
O195 C189 1.208 . S
O196 Cd197 2.223 . S
O196 C204 1.315 . S
Cd197 O196 2.223 . S
Cd197 O200 2.297 . S
Cd197 O201 2.439 . S
Cd197 O207 2.240 . S
Cd198 O199 2.240 . S
Cd198 O206 2.223 . S
Cd198 O208 2.297 . S
Cd198 O209 2.439 . S
O199 Cd198 2.240 . S
O199 C204 1.279 . S
O200 Cd197 2.297 . S
O200 C202 1.247 . S
O201 Cd197 2.439 . S
O201 C202 1.208 . S
C202 O200 1.247 . S
C202 O201 1.208 . S
C203 O208 1.247 . S
C203 O209 1.208 . S
C204 O196 1.315 . S
C204 O199 1.279 . S
C205 O206 1.315 . S
C205 O207 1.279 . S
O206 Cd198 2.223 . S
O206 C205 1.315 . S
O207 Cd197 2.240 . S
O207 C205 1.279 . S
O208 Cd198 2.297 . S
O208 C203 1.247 . S
O209 Cd198 2.439 . S
O209 C203 1.208 . S
O210 Cd211 2.223 . S
O210 C218 1.315 . S
Cd211 O210 2.223 . S
Cd211 O214 2.297 . S
Cd211 O215 2.439 . S
Cd211 O221 2.240 . S
Cd212 O213 2.240 . S
Cd212 O220 2.223 . S
Cd212 O222 2.297 . S
Cd212 O223 2.439 . S
O213 Cd212 2.240 . S
O213 C218 1.279 . S
O214 Cd211 2.297 . S
O214 C216 1.247 . S
O215 Cd211 2.439 . S
O215 C216 1.208 . S
C216 O214 1.247 . S
C216 O215 1.208 . S
C217 O222 1.247 . S
C217 O223 1.208 . S
C218 O210 1.315 . S
C218 O213 1.279 . S
C219 O220 1.315 . S
C219 O221 1.279 . S
O220 Cd212 2.223 . S
O220 C219 1.315 . S
O221 Cd211 2.240 . S
O221 C219 1.279 . S
O222 Cd212 2.297 . S
O222 C217 1.247 . S
O223 Cd212 2.439 . S
O223 C217 1.208 . S
O224 Cd225 2.223 . S
O224 C232 1.315 . S
Cd225 O224 2.223 . S
Cd225 O228 2.297 . S
Cd225 O229 2.439 . S
Cd225 O235 2.240 . S
Cd226 O227 2.240 . S
Cd226 O234 2.223 1_545 S
Cd226 O236 2.297 . S
Cd226 O237 2.439 . S
O227 Cd226 2.240 . S
O227 C232 1.279 . S
O228 Cd225 2.297 . S
O228 C230 1.247 . S
O229 Cd225 2.439 . S
O229 C230 1.208 . S
C230 O228 1.247 . S
C230 O229 1.208 . S
C231 O236 1.247 . S
C231 O237 1.208 . S
C232 O224 1.315 . S
C232 O227 1.279 . S
C233 O234 1.315 . S
C233 O235 1.279 1_565 S
O234 Cd226 2.223 1_565 S
O234 C233 1.315 . S
O235 Cd225 2.240 . S
O235 C233 1.279 1_545 S
O236 Cd226 2.297 . S
O236 C231 1.247 . S
O237 Cd226 2.439 . S
O237 C231 1.208 . S
O238 Cd239 2.223 . S
O238 C246 1.315 . S
Cd239 O238 2.223 . S
Cd239 O242 2.297 . S
Cd239 O243 2.439 . S
Cd239 O249 2.240 . S
Cd240 O241 2.240 . S
Cd240 O248 2.223 . S
Cd240 O250 2.297 . S
Cd240 O251 2.439 . S
O241 Cd240 2.240 . S
O241 C246 1.279 . S
O242 Cd239 2.297 . S
O242 C244 1.247 . S
O243 Cd239 2.439 . S
O243 C244 1.208 . S
C244 O242 1.247 . S
C244 O243 1.208 . S
C245 O250 1.247 . S
C245 O251 1.208 . S
C246 O238 1.315 . S
C246 O241 1.279 . S
C247 O248 1.315 . S
C247 O249 1.279 . S
O248 Cd240 2.223 . S
O248 C247 1.315 . S
O249 Cd239 2.240 . S
O249 C247 1.279 . S
O250 Cd240 2.297 . S
O250 C245 1.247 . S
O251 Cd240 2.439 . S
O251 C245 1.208 . S
O252 Cd253 2.223 . S
O252 C260 1.315 . S
Cd253 O252 2.223 . S
Cd253 O256 2.297 . S
Cd253 O257 2.439 . S
Cd253 O263 2.240 . S
Cd254 O255 2.240 . S
Cd254 O262 2.223 . S
Cd254 O264 2.297 . S
Cd254 O265 2.439 . S
O255 Cd254 2.240 . S
O255 C260 1.279 . S
O256 Cd253 2.297 . S
O256 C258 1.247 . S
O257 Cd253 2.439 . S
O257 C258 1.208 . S
C258 O256 1.247 . S
C258 O257 1.208 . S
C259 O264 1.247 . S
C259 O265 1.208 . S
C260 O252 1.315 . S
C260 O255 1.279 . S
C261 O262 1.315 . S
C261 O263 1.279 . S
O262 Cd254 2.223 . S
O262 C261 1.315 . S
O263 Cd253 2.240 . S
O263 C261 1.279 . S
O264 Cd254 2.297 . S
O264 C259 1.247 . S
O265 Cd254 2.439 . S
O265 C259 1.208 . S
O266 Cd267 2.223 . S
O266 C274 1.315 . S
Cd267 O266 2.223 . S
Cd267 O270 2.297 . S
Cd267 O271 2.439 . S
Cd267 O277 2.240 . S
Cd268 O269 2.240 . S
Cd268 O276 2.223 . S
Cd268 O278 2.297 . S
Cd268 O279 2.439 . S
O269 Cd268 2.240 . S
O269 C274 1.279 . S
O270 Cd267 2.297 . S
O270 C272 1.247 . S
O271 Cd267 2.439 . S
O271 C272 1.208 . S
C272 O270 1.247 . S
C272 O271 1.208 . S
C273 O278 1.247 . S
C273 O279 1.208 . S
C274 O266 1.315 . S
C274 O269 1.279 . S
C275 O276 1.315 . S
C275 O277 1.279 . S
O276 Cd268 2.223 . S
O276 C275 1.315 . S
O277 Cd267 2.240 . S
O277 C275 1.279 . S
O278 Cd268 2.297 . S
O278 C273 1.247 . S
O279 Cd268 2.439 . S
O279 C273 1.208 . S
O280 Cd281 2.223 . S
O280 C288 1.315 . S
Cd281 O280 2.223 . S
Cd281 O284 2.297 . S
Cd281 O285 2.439 . S
Cd281 O291 2.240 . S
Cd282 O283 2.240 . S
Cd282 O290 2.223 . S
Cd282 O292 2.297 1_554 S
Cd282 O293 2.398 1_554 S
O283 Cd282 2.240 . S
O283 C288 1.279 . S
O284 Cd281 2.297 . S
O284 C286 1.247 . S
O285 Cd281 2.439 . S
O285 C286 1.208 . S
C286 O284 1.247 . S
C286 O285 1.208 . S
C287 O292 1.247 . S
C287 O293 1.234 . S
C288 O280 1.315 . S
C288 O283 1.279 . S
C289 O290 1.315 . S
C289 O291 1.279 . S
O290 Cd282 2.223 . S
O290 C289 1.315 . S
O291 Cd281 2.240 . S
O291 C289 1.279 . S
O292 Cd282 2.297 1_556 S
O292 C287 1.247 . S
O293 Cd282 2.398 1_556 S
O293 C287 1.234 . S
O294 Cd295 2.223 . S
O294 C302 1.315 . S
Cd295 O294 2.223 . S
Cd295 O298 2.297 . S
Cd295 O299 2.439 . S
Cd295 O305 2.240 . S
Cd296 O297 2.240 . S
Cd296 O304 2.223 . S
Cd296 O306 2.297 . S
Cd296 O307 2.439 . S
O297 Cd296 2.240 . S
O297 C302 1.279 . S
O298 Cd295 2.297 . S
O298 C300 1.247 . S
O299 Cd295 2.439 . S
O299 C300 1.208 . S
C300 O298 1.247 . S
C300 O299 1.208 . S
C301 O306 1.247 . S
C301 O307 1.208 . S
C302 O294 1.315 . S
C302 O297 1.279 . S
C303 O304 1.315 . S
C303 O305 1.279 . S
O304 Cd296 2.223 . S
O304 C303 1.315 . S
O305 Cd295 2.240 . S
O305 C303 1.279 . S
O306 Cd296 2.297 . S
O306 C301 1.247 . S
O307 Cd296 2.439 . S
O307 C301 1.208 . S
O308 Cd309 2.223 . S
O308 C316 1.315 . S
Cd309 O308 2.223 . S
Cd309 O312 2.297 . S
Cd309 O313 2.439 . S
Cd309 O319 2.240 . S
Cd310 O311 2.240 . S
Cd310 O318 2.223 . S
Cd310 O320 2.297 . S
Cd310 O321 2.439 . S
O311 Cd310 2.240 . S
O311 C316 1.279 . S
O312 Cd309 2.297 . S
O312 C314 1.247 . S
O313 Cd309 2.439 . S
O313 C314 1.208 . S
C314 O312 1.247 . S
C314 O313 1.208 . S
C315 O320 1.247 . S
C315 O321 1.208 . S
C316 O308 1.315 . S
C316 O311 1.279 . S
C317 O318 1.315 . S
C317 O319 1.279 . S
O318 Cd310 2.223 . S
O318 C317 1.315 . S
O319 Cd309 2.240 . S
O319 C317 1.279 . S
O320 Cd310 2.297 . S
O320 C315 1.247 . S
O321 Cd310 2.439 . S
O321 C315 1.208 . S
O322 Cd323 2.223 . S
O322 C330 1.315 . S
Cd323 O322 2.223 . S
Cd323 O326 2.297 . S
Cd323 O327 2.439 . S
Cd323 O333 2.240 . S
Cd324 O325 2.240 . S
Cd324 O332 2.223 . S
Cd324 O334 2.297 . S
Cd324 O335 2.439 . S
O325 Cd324 2.240 . S
O325 C330 1.279 . S
O326 Cd323 2.297 . S
O326 C328 1.247 . S
O327 Cd323 2.439 . S
O327 C328 1.208 . S
C328 O326 1.247 . S
C328 O327 1.208 . S
C329 O334 1.247 . S
C329 O335 1.208 . S
C330 O322 1.315 . S
C330 O325 1.279 . S
C331 O332 1.315 . S
C331 O333 1.279 . S
O332 Cd324 2.223 . S
O332 C331 1.315 . S
O333 Cd323 2.240 . S
O333 C331 1.279 . S
O334 Cd324 2.297 . S
O334 C329 1.247 . S
O335 Cd324 2.439 . S
O335 C329 1.208 . S
Dy336 O339 2.307 . S
Dy336 O341 2.395 . S
Dy336 O342 2.379 . S
Dy336 O344 2.339 . S
Dy336 O346 2.298 . S
Dy336 O350 2.275 . S
Dy336 C358 2.738 . S
Dy337 O340 2.298 1_655 S
Dy337 O343 2.275 1_655 S
Dy337 O345 2.307 1_655 S
Dy337 O347 2.395 . S
Dy337 O348 2.379 . S
Dy337 O351 2.339 1_655 S
Dy337 C367 2.738 . S
C338 O350 1.254 . S
C338 O351 1.257 . S
O339 Dy336 2.307 . S
O339 C349 1.266 . S
O340 Dy337 2.298 1_455 S
O340 C349 1.236 . S
O341 Dy336 2.395 . S
O341 C358 1.255 . S
O342 Dy336 2.379 . S
O342 C358 1.249 . S
O343 Dy337 2.275 1_455 S
O343 C359 1.254 . S
O344 Dy336 2.339 . S
O344 C359 1.257 . S
O345 Dy337 2.307 1_455 S
O345 C360 1.266 . S
O346 Dy336 2.298 . S
O346 C360 1.236 . S
O347 Dy337 2.395 . S
O347 C367 1.255 . S
O348 Dy337 2.379 . S
O348 C367 1.249 . S
C349 O339 1.266 . S
C349 O340 1.236 . S
O350 Dy336 2.275 . S
O350 C338 1.254 . S
O351 Dy337 2.339 1_455 S
O351 C338 1.257 . S
C352 C355 1.344 . S
C352 C356 1.328 . S
C352 C358 1.516 . S
C353 C354 1.304 . S
C353 C357 1.323 . S
C354 C353 1.304 . S
C354 C355 1.371 . S
C354 H368 0.930 . S
C355 C352 1.344 . S
C355 C354 1.371 . S
C355 H369 0.931 . S
C356 C352 1.328 . S
C356 C357 1.433 . S
C356 H370 0.931 . S
C357 C353 1.323 . S
C357 C356 1.433 . S
C357 H371 0.933 . S
C358 Dy336 2.738 . S
C358 O341 1.255 . S
C358 O342 1.249 . S
C358 C352 1.516 . S
C359 O343 1.254 . S
C359 O344 1.257 . S
C360 O345 1.266 . S
C360 O346 1.236 . S
C361 C364 1.344 . S
C361 C365 1.328 . S
C361 C367 1.516 . S
C362 C363 1.304 . S
C362 C366 1.323 . S
C363 C362 1.304 . S
C363 C364 1.371 . S
C363 H372 0.930 . S
C364 C361 1.344 . S
C364 C363 1.371 . S
C364 H373 0.931 . S
C365 C361 1.328 . S
C365 C366 1.433 . S
C365 H374 0.904 1_554 S
C366 C362 1.323 . S
C366 C365 1.433 . S
C366 H375 0.933 1_554 S
C367 Dy337 2.738 . S
C367 O347 1.255 . S
C367 O348 1.249 . S
C367 C361 1.516 . S
H368 C354 0.930 . S
H369 C355 0.931 . S
H370 C356 0.931 . S
H371 C357 0.933 . S
H372 C363 0.930 . S
H373 C364 0.931 . S
H374 C365 0.904 1_556 S
H375 C366 0.933 1_556 S
Dy376 O379 2.307 . S
Dy376 O381 2.395 . S
Dy376 O382 2.379 . S
Dy376 O384 2.339 . S
Dy376 O386 2.298 . S
Dy376 O390 2.275 . S
Dy376 C398 2.738 . S
Dy377 O380 2.298 . S
Dy377 O383 2.275 . S
Dy377 O385 2.307 . S
Dy377 O387 2.395 . S
Dy377 O388 2.379 . S
Dy377 O391 2.339 . S
Dy377 C407 2.738 . S
C378 O390 1.254 . S
C378 O391 1.257 . S
O379 Dy376 2.307 . S
O379 C389 1.266 . S
O380 Dy377 2.298 . S
O380 C389 1.236 . S
O381 Dy376 2.395 . S
O381 C398 1.255 . S
O382 Dy376 2.379 . S
O382 C398 1.249 . S
O383 Dy377 2.275 . S
O383 C399 1.254 . S
O384 Dy376 2.339 . S
O384 C399 1.257 . S
O385 Dy377 2.307 . S
O385 C400 1.266 . S
O386 Dy376 2.298 . S
O386 C400 1.236 . S
O387 Dy377 2.395 . S
O387 C407 1.255 . S
O388 Dy377 2.379 . S
O388 C407 1.249 . S
C389 O379 1.266 . S
C389 O380 1.236 . S
O390 Dy376 2.275 . S
O390 C378 1.254 . S
O391 Dy377 2.339 . S
O391 C378 1.257 . S
C392 C395 1.344 . S
C392 C396 1.328 . S
C392 C398 1.516 . S
C393 C394 1.304 . S
C393 C397 1.323 . S
C394 C393 1.304 . S
C394 C395 1.371 . S
C394 H408 0.930 . S
C395 C392 1.344 . S
C395 C394 1.371 . S
C395 H409 0.931 . S
C396 C392 1.328 . S
C396 C397 1.433 . S
C396 H410 0.931 . S
C397 C393 1.323 . S
C397 C396 1.433 . S
C397 H411 0.933 . S
C398 Dy376 2.738 . S
C398 O381 1.255 . S
C398 O382 1.249 . S
C398 C392 1.516 . S
C399 O383 1.254 . S
C399 O384 1.257 . S
C400 O385 1.266 . S
C400 O386 1.236 . S
C401 C404 1.344 . S
C401 C405 1.328 . S
C401 C407 1.516 . S
C402 C403 1.304 . S
C402 C406 1.323 . S
C403 C402 1.304 . S
C403 C404 1.371 . S
C403 H412 0.930 . S
C404 C401 1.344 . S
C404 C403 1.371 . S
C404 H413 0.931 . S
C405 C401 1.328 . S
C405 C406 1.433 . S
C405 H414 0.931 . S
C406 C402 1.323 . S
C406 C405 1.433 . S
C406 H415 0.933 . S
C407 Dy377 2.738 . S
C407 O387 1.255 . S
C407 O388 1.249 . S
C407 C401 1.516 . S
H408 C394 0.930 . S
H409 C395 0.931 . S
H410 C396 0.931 . S
H411 C397 0.933 . S
H412 C403 0.930 . S
H413 C404 0.931 . S
H414 C405 0.931 . S
H415 C406 0.933 . S
Dy416 O419 2.302 1_545 S
Dy416 O421 2.395 . S
Dy416 O422 2.379 . S
Dy416 O424 2.339 . S
Dy416 O426 2.298 . S
Dy416 O430 2.275 . S
Dy416 C438 2.738 . S
Dy417 O420 2.298 . S
Dy417 O423 2.275 . S
Dy417 O425 2.307 . S
Dy417 O427 2.395 . S
Dy417 O428 2.379 . S
Dy417 O431 2.339 . S
Dy417 C447 2.738 . S
C418 O430 1.254 . S
C418 O431 1.257 . S
O419 Dy416 2.302 1_565 S
O419 C429 1.269 . S
O420 Dy417 2.298 . S
O420 C429 1.236 1_545 S
O421 Dy416 2.395 . S
O421 C438 1.255 . S
O422 Dy416 2.379 . S
O422 C438 1.249 . S
O423 Dy417 2.275 . S
O423 C439 1.254 . S
O424 Dy416 2.339 . S
O424 C439 1.257 . S
O425 Dy417 2.307 . S
O425 C440 1.266 . S
O426 Dy416 2.298 . S
O426 C440 1.236 . S
O427 Dy417 2.395 . S
O427 C447 1.255 . S
O428 Dy417 2.379 . S
O428 C447 1.249 . S
C429 O419 1.269 . S
C429 O420 1.236 1_565 S
O430 Dy416 2.275 . S
O430 C418 1.254 . S
O431 Dy417 2.339 . S
O431 C418 1.257 . S
C432 C435 1.344 . S
C432 C436 1.328 . S
C432 C438 1.516 . S
C433 C434 1.304 . S
C433 C437 1.323 . S
C434 C433 1.304 . S
C434 C435 1.371 . S
C434 H448 0.930 . S
C435 C432 1.344 . S
C435 C434 1.371 . S
C435 H449 0.931 . S
C436 C432 1.328 . S
C436 C437 1.433 . S
C436 H450 0.931 . S
C437 C433 1.323 . S
C437 C436 1.433 . S
C437 H451 0.933 . S
C438 Dy416 2.738 . S
C438 O421 1.255 . S
C438 O422 1.249 . S
C438 C432 1.516 . S
C439 O423 1.254 . S
C439 O424 1.257 . S
C440 O425 1.266 . S
C440 O426 1.236 . S
C441 C444 1.344 1_545 S
C441 C445 1.328 . S
C441 C447 1.516 . S
C442 C443 1.304 . S
C442 C446 1.323 . S
C443 C442 1.304 . S
C443 C444 1.371 . S
C443 H452 0.930 . S
C444 C441 1.344 1_565 S
C444 C443 1.371 . S
C444 H453 0.931 . S
C445 C441 1.328 . S
C445 C446 1.433 1_545 S
C445 H454 0.931 . S
C446 C442 1.323 . S
C446 C445 1.433 1_565 S
C446 H455 0.933 . S
C447 Dy417 2.738 . S
C447 O427 1.255 . S
C447 O428 1.249 . S
C447 C441 1.516 . S
H448 C434 0.930 . S
H449 C435 0.931 . S
H450 C436 0.931 . S
H451 C437 0.933 . S
H452 C443 0.930 . S
H453 C444 0.931 . S
H454 C445 0.931 . S
H455 C446 0.933 . S
Dy456 O459 2.307 . S
Dy456 O461 2.395 . S
Dy456 O462 2.379 . S
Dy456 O464 2.339 . S
Dy456 O466 2.298 . S
Dy456 O470 2.275 . S
Dy456 C478 2.738 . S
Dy457 O460 2.298 . S
Dy457 O463 2.275 . S
Dy457 O465 2.307 . S
Dy457 O467 2.395 . S
Dy457 O468 2.379 . S
Dy457 O471 2.339 . S
Dy457 C487 2.738 . S
C458 O470 1.254 . S
C458 O471 1.257 . S
O459 Dy456 2.307 . S
O459 C469 1.266 . S
O460 Dy457 2.298 . S
O460 C469 1.236 . S
O461 Dy456 2.395 . S
O461 C478 1.255 . S
O462 Dy456 2.379 . S
O462 C478 1.249 . S
O463 Dy457 2.275 . S
O463 C479 1.254 . S
O464 Dy456 2.339 . S
O464 C479 1.257 . S
O465 Dy457 2.307 . S
O465 C480 1.266 . S
O466 Dy456 2.298 . S
O466 C480 1.236 . S
O467 Dy457 2.395 . S
O467 C487 1.255 . S
O468 Dy457 2.379 . S
O468 C487 1.249 . S
C469 O459 1.266 . S
C469 O460 1.236 . S
O470 Dy456 2.275 . S
O470 C458 1.254 . S
O471 Dy457 2.339 . S
O471 C458 1.257 . S
C472 C475 1.344 . S
C472 C476 1.328 . S
C472 C478 1.516 . S
C473 C474 1.304 . S
C473 C477 1.323 . S
C474 C473 1.304 . S
C474 C475 1.371 . S
C474 H488 0.930 . S
C475 C472 1.344 . S
C475 C474 1.371 . S
C475 H489 0.931 . S
C476 C472 1.328 . S
C476 C477 1.433 . S
C476 H490 0.931 . S
C477 C473 1.323 . S
C477 C476 1.433 . S
C477 H491 0.933 . S
C478 Dy456 2.738 . S
C478 O461 1.255 . S
C478 O462 1.249 . S
C478 C472 1.516 . S
C479 O463 1.254 . S
C479 O464 1.257 . S
C480 O465 1.266 . S
C480 O466 1.236 . S
C481 C484 1.344 . S
C481 C485 1.328 . S
C481 C487 1.516 . S
C482 C483 1.304 . S
C482 C486 1.323 . S
C483 C482 1.304 . S
C483 C484 1.371 . S
C483 H492 0.930 . S
C484 C481 1.344 . S
C484 C483 1.371 . S
C484 H493 0.931 . S
C485 C481 1.328 . S
C485 C486 1.433 . S
C485 H494 0.931 . S
C486 C482 1.323 . S
C486 C485 1.433 . S
C486 H495 0.933 . S
C487 Dy457 2.738 . S
C487 O467 1.255 . S
C487 O468 1.249 . S
C487 C481 1.516 . S
H488 C474 0.930 . S
H489 C475 0.931 . S
H490 C476 0.931 . S
H491 C477 0.933 . S
H492 C483 0.930 . S
H493 C484 0.931 . S
H494 C485 0.931 . S
H495 C486 0.933 . S
Dy496 O499 2.307 . S
Dy496 O501 2.395 1_545 S
Dy496 O502 2.379 1_545 S
Dy496 O504 2.339 . S
Dy496 O506 2.298 . S
Dy496 O510 2.275 . S
Dy496 C518 2.738 1_545 S
Dy497 O500 2.298 . S
Dy497 O503 2.275 . S
Dy497 O505 2.307 . S
Dy497 O507 2.395 . S
Dy497 O508 2.379 . S
Dy497 O511 2.339 1_455 S
Dy497 C527 2.738 . S
C498 O510 1.254 1_655 S
C498 O511 1.257 . S
O499 Dy496 2.307 . S
O499 C509 1.266 . S
O500 Dy497 2.298 . S
O500 C509 1.236 . S
O501 Dy496 2.395 1_565 S
O501 C518 1.255 . S
O502 Dy496 2.379 1_565 S
O502 C518 1.249 . S
O503 Dy497 2.275 . S
O503 C519 1.254 . S
O504 Dy496 2.339 . S
O504 C519 1.257 . S
O505 Dy497 2.307 . S
O505 C520 1.266 . S
O506 Dy496 2.298 . S
O506 C520 1.236 . S
O507 Dy497 2.395 . S
O507 C527 1.255 . S
O508 Dy497 2.379 . S
O508 C527 1.249 . S
C509 O499 1.266 . S
C509 O500 1.236 . S
O510 Dy496 2.275 . S
O510 C498 1.254 1_455 S
O511 Dy497 2.339 1_655 S
O511 C498 1.257 . S
C512 C515 1.344 . S
C512 C516 1.328 . S
C512 C518 1.516 . S
C513 C514 1.304 . S
C513 C517 1.323 . S
C514 C513 1.304 . S
C514 C515 1.371 . S
C514 H528 0.930 . S
C515 C512 1.344 . S
C515 C514 1.371 . S
C515 H529 0.931 . S
C516 C512 1.328 . S
C516 C517 1.433 . S
C516 H530 0.931 . S
C517 C513 1.323 . S
C517 C516 1.433 . S
C517 H531 0.933 . S
C518 Dy496 2.738 1_565 S
C518 O501 1.255 . S
C518 O502 1.249 . S
C518 C512 1.516 . S
C519 O503 1.254 . S
C519 O504 1.257 . S
C520 O505 1.266 . S
C520 O506 1.236 . S
C521 C524 1.344 . S
C521 C525 1.328 . S
C521 C527 1.516 . S
C522 C523 1.304 . S
C522 C526 1.323 . S
C523 C522 1.304 . S
C523 C524 1.371 . S
C523 H532 0.930 . S
C524 C521 1.344 . S
C524 C523 1.371 . S
C524 H533 0.931 . S
C525 C521 1.328 . S
C525 C526 1.433 . S
C525 H534 0.931 1_455 S
C526 C522 1.323 . S
C526 C525 1.433 . S
C526 H535 0.933 1_455 S
C527 Dy497 2.738 . S
C527 O507 1.255 . S
C527 O508 1.249 . S
C527 C521 1.516 . S
H528 C514 0.930 . S
H529 C515 0.931 . S
H530 C516 0.931 . S
H531 C517 0.933 . S
H532 C523 0.930 . S
H533 C524 0.931 . S
H534 C525 0.931 1_655 S
H535 C526 0.933 1_655 S
Dy536 O539 2.307 . S
Dy536 O541 2.395 . S
Dy536 O542 2.379 . S
Dy536 O544 2.339 . S
Dy536 O546 2.298 . S
Dy536 O550 2.275 . S
Dy536 C558 2.738 . S
Dy537 O540 2.298 . S
Dy537 O543 2.275 . S
Dy537 O545 2.307 . S
Dy537 O547 2.395 . S
Dy537 O548 2.379 . S
Dy537 O551 2.339 . S
Dy537 C567 2.738 . S
C538 O550 1.254 . S
C538 O551 1.257 . S
O539 Dy536 2.307 . S
O539 C549 1.266 . S
O540 Dy537 2.298 . S
O540 C549 1.236 . S
O541 Dy536 2.395 . S
O541 C558 1.255 . S
O542 Dy536 2.379 . S
O542 C558 1.249 . S
O543 Dy537 2.275 . S
O543 C559 1.254 . S
O544 Dy536 2.339 . S
O544 C559 1.257 . S
O545 Dy537 2.307 . S
O545 C560 1.266 . S
O546 Dy536 2.298 . S
O546 C560 1.236 . S
O547 Dy537 2.395 . S
O547 C567 1.255 . S
O548 Dy537 2.379 . S
O548 C567 1.249 . S
C549 O539 1.266 . S
C549 O540 1.236 . S
O550 Dy536 2.275 . S
O550 C538 1.254 . S
O551 Dy537 2.339 . S
O551 C538 1.257 . S
C552 C555 1.344 . S
C552 C556 1.328 . S
C552 C558 1.516 . S
C553 C554 1.304 . S
C553 C557 1.323 . S
C554 C553 1.304 . S
C554 C555 1.371 . S
C554 H568 0.930 . S
C555 C552 1.344 . S
C555 C554 1.371 . S
C555 H569 0.931 . S
C556 C552 1.328 . S
C556 C557 1.433 . S
C556 H570 0.931 . S
C557 C553 1.323 . S
C557 C556 1.433 . S
C557 H571 0.933 . S
C558 Dy536 2.738 . S
C558 O541 1.255 . S
C558 O542 1.249 . S
C558 C552 1.516 . S
C559 O543 1.254 . S
C559 O544 1.257 . S
C560 O545 1.266 . S
C560 O546 1.236 . S
C561 C564 1.344 . S
C561 C565 1.328 . S
C561 C567 1.516 . S
C562 C563 1.304 . S
C562 C566 1.323 . S
C563 C562 1.304 . S
C563 C564 1.371 . S
C563 H572 0.930 . S
C564 C561 1.344 . S
C564 C563 1.371 . S
C564 H573 0.931 . S
C565 C561 1.328 . S
C565 C566 1.433 . S
C565 H574 0.931 . S
C566 C562 1.323 . S
C566 C565 1.433 . S
C566 H575 0.933 . S
C567 Dy537 2.738 . S
C567 O547 1.255 . S
C567 O548 1.249 . S
C567 C561 1.516 . S
H568 C554 0.930 . S
H569 C555 0.931 . S
H570 C556 0.931 . S
H571 C557 0.933 . S
H572 C563 0.930 . S
H573 C564 0.931 . S
H574 C565 0.931 . S
H575 C566 0.933 . S
Dy576 O579 2.307 . S
Dy576 O581 2.395 1_554 S
Dy576 O582 2.379 1_554 S
Dy576 O584 2.339 . S
Dy576 O586 2.298 . S
Dy576 O590 2.275 . S
Dy576 C598 2.738 1_554 S
Dy577 O580 2.298 . S
Dy577 O583 2.275 . S
Dy577 O585 2.307 . S
Dy577 O587 2.395 . S
Dy577 O588 2.392 . S
Dy577 O591 2.339 1_545 S
Dy577 C607 2.738 . S
C578 O590 1.208 1_565 S
C578 O591 1.273 . S
O579 Dy576 2.307 . S
O579 C589 1.266 . S
O580 Dy577 2.298 . S
O580 C589 1.236 . S
O581 Dy576 2.395 1_556 S
O581 C598 1.255 . S
O582 Dy576 2.379 1_556 S
O582 C598 1.249 . S
O583 Dy577 2.275 . S
O583 C599 1.254 . S
O584 Dy576 2.339 . S
O584 C599 1.257 . S
O585 Dy577 2.307 . S
O585 C600 1.266 . S
O586 Dy576 2.298 . S
O586 C600 1.236 . S
O587 Dy577 2.395 . S
O587 C607 1.255 . S
O588 Dy577 2.392 . S
O588 C607 1.264 . S
C589 O579 1.266 . S
C589 O580 1.236 . S
O590 Dy576 2.275 . S
O590 C578 1.208 1_545 S
O591 Dy577 2.339 1_565 S
O591 C578 1.273 . S
C592 C595 1.344 . S
C592 C596 1.328 . S
C592 C598 1.516 . S
C593 C594 1.304 . S
C593 C597 1.323 . S
C594 C593 1.304 . S
C594 C595 1.371 . S
C594 H608 0.930 . S
C595 C592 1.344 . S
C595 C594 1.371 . S
C595 H609 0.931 . S
C596 C592 1.328 . S
C596 C597 1.433 . S
C596 H610 0.931 . S
C597 C593 1.323 . S
C597 C596 1.433 . S
C597 H611 0.933 . S
C598 Dy576 2.738 1_556 S
C598 O581 1.255 . S
C598 O582 1.249 . S
C598 C592 1.516 . S
C599 O583 1.254 . S
C599 O584 1.257 . S
C600 O585 1.266 . S
C600 O586 1.236 . S
C601 C604 1.344 . S
C601 C605 1.328 1_545 S
C601 C607 1.516 . S
C602 C603 1.304 1_565 S
C602 C606 1.323 . S
C603 C602 1.304 1_545 S
C603 C604 1.371 . S
C603 H612 0.930 . S
C604 C601 1.344 . S
C604 C603 1.371 . S
C604 H613 0.931 . S
C605 C601 1.328 1_565 S
C605 C606 1.433 . S
C605 H614 0.931 . S
C606 C602 1.323 . S
C606 C605 1.433 . S
C606 H615 0.933 . S
C607 Dy577 2.738 . S
C607 O587 1.255 . S
C607 O588 1.264 . S
C607 C601 1.516 . S
H608 C594 0.930 . S
H609 C595 0.931 . S
H610 C596 0.931 . S
H611 C597 0.933 . S
H612 C603 0.930 . S
H613 C604 0.931 . S
H614 C605 0.931 . S
H615 C606 0.933 . S
Dy616 O619 2.307 . S
Dy616 O621 2.395 . S
Dy616 O622 2.379 . S
Dy616 O624 2.339 . S
Dy616 O626 2.298 . S
Dy616 O630 2.275 . S
Dy616 C638 2.738 . S
Dy617 O620 2.298 . S
Dy617 O623 2.275 . S
Dy617 O625 2.307 . S
Dy617 O627 2.395 . S
Dy617 O628 2.379 . S
Dy617 O631 2.339 . S
Dy617 C647 2.738 . S
C618 O630 1.254 . S
C618 O631 1.257 . S
O619 Dy616 2.307 . S
O619 C629 1.266 . S
O620 Dy617 2.298 . S
O620 C629 1.236 . S
O621 Dy616 2.395 . S
O621 C638 1.255 . S
O622 Dy616 2.379 . S
O622 C638 1.249 . S
O623 Dy617 2.275 . S
O623 C639 1.254 . S
O624 Dy616 2.339 . S
O624 C639 1.257 . S
O625 Dy617 2.307 . S
O625 C640 1.266 . S
O626 Dy616 2.298 . S
O626 C640 1.236 . S
O627 Dy617 2.395 . S
O627 C647 1.255 . S
O628 Dy617 2.379 . S
O628 C647 1.249 . S
C629 O619 1.266 . S
C629 O620 1.236 . S
O630 Dy616 2.275 . S
O630 C618 1.254 . S
O631 Dy617 2.339 . S
O631 C618 1.257 . S
C632 C635 1.344 . S
C632 C636 1.328 . S
C632 C638 1.516 . S
C633 C634 1.304 . S
C633 C637 1.323 . S
C634 C633 1.304 . S
C634 C635 1.371 . S
C634 H648 0.930 . S
C635 C632 1.344 . S
C635 C634 1.371 . S
C635 H649 0.931 . S
C636 C632 1.328 . S
C636 C637 1.433 . S
C636 H650 0.931 . S
C637 C633 1.323 . S
C637 C636 1.433 . S
C637 H651 0.933 . S
C638 Dy616 2.738 . S
C638 O621 1.255 . S
C638 O622 1.249 . S
C638 C632 1.516 . S
C639 O623 1.254 . S
C639 O624 1.257 . S
C640 O625 1.266 . S
C640 O626 1.236 . S
C641 C644 1.344 . S
C641 C645 1.328 . S
C641 C647 1.516 . S
C642 C643 1.304 . S
C642 C646 1.323 . S
C643 C642 1.304 . S
C643 C644 1.371 . S
C643 H652 0.930 . S
C644 C641 1.344 . S
C644 C643 1.371 . S
C644 H653 0.931 . S
C645 C641 1.328 . S
C645 C646 1.433 . S
C645 H654 0.931 . S
C646 C642 1.323 . S
C646 C645 1.433 . S
C646 H655 0.933 . S
C647 Dy617 2.738 . S
C647 O627 1.255 . S
C647 O628 1.249 . S
C647 C641 1.516 . S
H648 C634 0.930 . S
H649 C635 0.931 . S
H650 C636 0.931 . S
H651 C637 0.933 . S
H652 C643 0.930 . S
H653 C644 0.931 . S
H654 C645 0.931 . S
H655 C646 0.933 . S
Dy656 O659 2.307 . S
Dy656 O661 2.395 . S
Dy656 O662 2.379 . S
Dy656 O664 2.339 . S
Dy656 O666 2.298 . S
Dy656 O670 2.275 . S
Dy656 C678 2.738 . S
Dy657 O660 2.298 . S
Dy657 O663 2.275 . S
Dy657 O665 2.307 . S
Dy657 O667 2.395 . S
Dy657 O668 2.379 . S
Dy657 O671 2.339 . S
Dy657 C687 2.738 . S
C658 O670 1.254 . S
C658 O671 1.257 . S
O659 Dy656 2.307 . S
O659 C669 1.266 . S
O660 Dy657 2.298 . S
O660 C669 1.236 . S
O661 Dy656 2.395 . S
O661 C678 1.255 . S
O662 Dy656 2.379 . S
O662 C678 1.249 . S
O663 Dy657 2.275 . S
O663 C679 1.254 . S
O664 Dy656 2.339 . S
O664 C679 1.257 . S
O665 Dy657 2.307 . S
O665 C680 1.266 . S
O666 Dy656 2.298 . S
O666 C680 1.236 . S
O667 Dy657 2.395 . S
O667 C687 1.255 . S
O668 Dy657 2.379 . S
O668 C687 1.249 . S
C669 O659 1.266 . S
C669 O660 1.236 . S
O670 Dy656 2.275 . S
O670 C658 1.254 . S
O671 Dy657 2.339 . S
O671 C658 1.257 . S
C672 C675 1.344 . S
C672 C676 1.328 . S
C672 C678 1.516 . S
C673 C674 1.304 . S
C673 C677 1.323 . S
C674 C673 1.304 . S
C674 C675 1.371 . S
C674 H688 0.930 . S
C675 C672 1.344 . S
C675 C674 1.371 . S
C675 H689 0.931 . S
C676 C672 1.328 . S
C676 C677 1.433 . S
C676 H690 0.931 . S
C677 C673 1.323 . S
C677 C676 1.433 . S
C677 H691 0.933 . S
C678 Dy656 2.738 . S
C678 O661 1.255 . S
C678 O662 1.249 . S
C678 C672 1.516 . S
C679 O663 1.254 . S
C679 O664 1.257 . S
C680 O665 1.266 . S
C680 O666 1.236 . S
C681 C684 1.344 . S
C681 C685 1.328 . S
C681 C687 1.516 . S
C682 C683 1.304 . S
C682 C686 1.323 1_556 S
C683 C682 1.304 . S
C683 C684 1.371 1_556 S
C683 H692 0.930 . S
C684 C681 1.344 . S
C684 C683 1.371 1_554 S
C684 H693 0.931 . S
C685 C681 1.328 . S
C685 C686 1.433 . S
C685 H694 0.931 . S
C686 C682 1.323 1_554 S
C686 C685 1.433 . S
C686 H695 0.933 . S
C687 Dy657 2.738 . S
C687 O667 1.255 . S
C687 O668 1.249 . S
C687 C681 1.516 . S
H688 C674 0.930 . S
H689 C675 0.931 . S
H690 C676 0.931 . S
H691 C677 0.933 . S
H692 C683 0.930 . S
H693 C684 0.931 . S
H694 C685 0.931 . S
H695 C686 0.933 . S
Dy696 O699 2.307 . S
Dy696 O701 2.395 . S
Dy696 O702 2.379 . S
Dy696 O704 2.339 . S
Dy696 O706 2.298 . S
Dy696 O710 2.275 . S
Dy696 C718 2.738 . S
Dy697 O700 2.298 . S
Dy697 O703 2.275 . S
Dy697 O705 2.307 . S
Dy697 O707 2.395 . S
Dy697 O708 2.379 . S
Dy697 O711 2.339 . S
Dy697 C727 2.738 . S
C698 O710 1.254 . S
C698 O711 1.257 . S
O699 Dy696 2.307 . S
O699 C709 1.266 . S
O700 Dy697 2.298 . S
O700 C709 1.236 . S
O701 Dy696 2.395 . S
O701 C718 1.255 . S
O702 Dy696 2.379 . S
O702 C718 1.249 . S
O703 Dy697 2.275 . S
O703 C719 1.254 . S
O704 Dy696 2.339 . S
O704 C719 1.257 . S
O705 Dy697 2.307 . S
O705 C720 1.266 . S
O706 Dy696 2.298 . S
O706 C720 1.236 . S
O707 Dy697 2.395 . S
O707 C727 1.255 . S
O708 Dy697 2.379 . S
O708 C727 1.249 . S
C709 O699 1.266 . S
C709 O700 1.236 . S
O710 Dy696 2.275 . S
O710 C698 1.254 . S
O711 Dy697 2.339 . S
O711 C698 1.257 . S
C712 C715 1.344 . S
C712 C716 1.328 . S
C712 C718 1.516 . S
C713 C714 1.304 . S
C713 C717 1.323 . S
C714 C713 1.304 . S
C714 C715 1.371 . S
C714 H728 0.930 . S
C715 C712 1.344 . S
C715 C714 1.371 . S
C715 H729 0.931 . S
C716 C712 1.328 . S
C716 C717 1.433 . S
C716 H730 0.931 . S
C717 C713 1.323 . S
C717 C716 1.433 . S
C717 H731 0.933 . S
C718 Dy696 2.738 . S
C718 O701 1.255 . S
C718 O702 1.249 . S
C718 C712 1.516 . S
C719 O703 1.254 . S
C719 O704 1.257 . S
C720 O705 1.266 . S
C720 O706 1.236 . S
C721 C724 1.344 . S
C721 C725 1.328 . S
C721 C727 1.516 . S
C722 C723 1.304 . S
C722 C726 1.323 . S
C723 C722 1.304 . S
C723 C724 1.371 . S
C723 H732 0.930 . S
C724 C721 1.344 . S
C724 C723 1.371 . S
C724 H733 0.931 . S
C725 C721 1.328 . S
C725 C726 1.433 . S
C725 H734 0.931 . S
C726 C722 1.323 . S
C726 C725 1.433 . S
C726 H735 0.933 . S
C727 Dy697 2.738 . S
C727 O707 1.255 . S
C727 O708 1.249 . S
C727 C721 1.516 . S
H728 C714 0.930 . S
H729 C715 0.931 . S
H730 C716 0.931 . S
H731 C717 0.933 . S
H732 C723 0.930 . S
H733 C724 0.931 . S
H734 C725 0.931 . S
H735 C726 0.933 . S
Dy736 O739 2.307 1_455 S
Dy736 O741 2.395 . S
Dy736 O742 2.379 . S
Dy736 O744 2.339 . S
Dy736 O746 2.298 . S
Dy736 O750 2.275 . S
Dy736 C758 2.738 . S
Dy737 O740 2.298 1_455 S
Dy737 O743 2.275 . S
Dy737 O745 2.307 . S
Dy737 O747 2.395 . S
Dy737 O748 2.379 . S
Dy737 O751 2.339 . S
Dy737 C767 2.708 1_455 S
C738 O750 1.254 . S
C738 O751 1.257 . S
O739 Dy736 2.307 1_655 S
O739 C749 1.266 . S
O740 Dy737 2.298 1_655 S
O740 C749 1.236 . S
O741 Dy736 2.395 . S
O741 C758 1.255 . S
O742 Dy736 2.379 . S
O742 C758 1.249 . S
O743 Dy737 2.275 . S
O743 C759 1.254 . S
O744 Dy736 2.339 . S
O744 C759 1.257 . S
O745 Dy737 2.307 . S
O745 C760 1.266 . S
O746 Dy736 2.298 . S
O746 C760 1.236 . S
O747 Dy737 2.395 . S
O747 C767 1.263 1_455 S
O748 Dy737 2.379 . S
O748 C767 1.214 1_455 S
C749 O739 1.266 . S
C749 O740 1.236 . S
O750 Dy736 2.275 . S
O750 C738 1.254 . S
O751 Dy737 2.339 . S
O751 C738 1.257 . S
C752 C755 1.344 . S
C752 C756 1.328 . S
C752 C758 1.516 . S
C753 C754 1.304 . S
C753 C757 1.323 . S
C754 C753 1.304 . S
C754 C755 1.371 . S
C754 H768 0.930 . S
C755 C752 1.344 . S
C755 C754 1.371 . S
C755 H769 0.931 . S
C756 C752 1.328 . S
C756 C757 1.433 . S
C756 H770 0.931 . S
C757 C753 1.323 . S
C757 C756 1.433 . S
C757 H771 0.933 . S
C758 Dy736 2.738 . S
C758 O741 1.255 . S
C758 O742 1.249 . S
C758 C752 1.516 . S
C759 O743 1.254 . S
C759 O744 1.257 . S
C760 O745 1.266 . S
C760 O746 1.236 . S
C761 C764 1.344 . S
C761 C765 1.328 . S
C761 C767 1.546 . S
C762 C763 1.304 . S
C762 C766 1.323 . S
C763 C762 1.304 . S
C763 C764 1.371 . S
C763 H772 0.930 . S
C764 C761 1.344 . S
C764 C763 1.371 . S
C764 H773 0.931 . S
C765 C761 1.328 . S
C765 C766 1.433 . S
C765 H774 0.931 . S
C766 C762 1.323 . S
C766 C765 1.433 . S
C766 H775 0.933 . S
C767 Dy737 2.708 1_655 S
C767 O747 1.263 1_655 S
C767 O748 1.214 1_655 S
C767 C761 1.546 . S
H768 C754 0.930 . S
H769 C755 0.931 . S
H770 C756 0.931 . S
H771 C757 0.933 . S
H772 C763 0.930 . S
H773 C764 0.931 . S
H774 C765 0.931 . S
H775 C766 0.933 . S
Dy776 O779 2.307 . S
Dy776 O781 2.395 . S
Dy776 O782 2.379 . S
Dy776 O784 2.339 . S
Dy776 O786 2.298 . S
Dy776 O790 2.275 . S
Dy776 C798 2.738 . S
Dy777 O780 2.298 . S
Dy777 O783 2.275 . S
Dy777 O785 2.307 . S
Dy777 O787 2.395 . S
Dy777 O788 2.379 . S
Dy777 O791 2.339 . S
Dy777 C807 2.738 . S
C778 O790 1.254 . S
C778 O791 1.257 . S
O779 Dy776 2.307 . S
O779 C789 1.266 . S
O780 Dy777 2.298 . S
O780 C789 1.236 . S
O781 Dy776 2.395 . S
O781 C798 1.255 . S
O782 Dy776 2.379 . S
O782 C798 1.249 . S
O783 Dy777 2.275 . S
O783 C799 1.254 . S
O784 Dy776 2.339 . S
O784 C799 1.257 . S
O785 Dy777 2.307 . S
O785 C800 1.266 . S
O786 Dy776 2.298 . S
O786 C800 1.236 . S
O787 Dy777 2.395 . S
O787 C807 1.255 . S
O788 Dy777 2.379 . S
O788 C807 1.249 . S
C789 O779 1.266 . S
C789 O780 1.236 . S
O790 Dy776 2.275 . S
O790 C778 1.254 . S
O791 Dy777 2.339 . S
O791 C778 1.257 . S
C792 C795 1.344 . S
C792 C796 1.328 . S
C792 C798 1.516 . S
C793 C794 1.304 . S
C793 C797 1.323 . S
C794 C793 1.304 . S
C794 C795 1.371 . S
C794 H808 0.930 . S
C795 C792 1.344 . S
C795 C794 1.371 . S
C795 H809 0.931 . S
C796 C792 1.328 . S
C796 C797 1.433 . S
C796 H810 0.931 . S
C797 C793 1.323 . S
C797 C796 1.433 . S
C797 H811 0.933 . S
C798 Dy776 2.738 . S
C798 O781 1.255 . S
C798 O782 1.249 . S
C798 C792 1.516 . S
C799 O783 1.254 . S
C799 O784 1.257 . S
C800 O785 1.266 . S
C800 O786 1.236 . S
C801 C804 1.344 . S
C801 C805 1.328 . S
C801 C807 1.516 . S
C802 C803 1.304 . S
C802 C806 1.323 . S
C803 C802 1.304 . S
C803 C804 1.371 . S
C803 H812 0.930 . S
C804 C801 1.344 . S
C804 C803 1.371 . S
C804 H813 0.931 . S
C805 C801 1.328 . S
C805 C806 1.433 . S
C805 H814 0.931 . S
C806 C802 1.323 . S
C806 C805 1.433 . S
C806 H815 0.933 . S
C807 Dy777 2.738 . S
C807 O787 1.255 . S
C807 O788 1.249 . S
C807 C801 1.516 . S
H808 C794 0.930 . S
H809 C795 0.931 . S
H810 C796 0.931 . S
H811 C797 0.933 . S
H812 C803 0.930 . S
H813 C804 0.931 . S
H814 C805 0.931 . S
H815 C806 0.933 . S
Dy816 O819 2.307 . S
Dy816 O821 2.395 . S
Dy816 O822 2.379 . S
Dy816 O824 2.339 . S
Dy816 O826 2.298 . S
Dy816 O830 2.275 . S
Dy816 C838 2.738 . S
Dy817 O820 2.298 . S
Dy817 O823 2.275 . S
Dy817 O825 2.307 . S
Dy817 O827 2.395 . S
Dy817 O828 2.379 . S
Dy817 O831 2.339 . S
Dy817 C847 2.738 . S
C818 O830 1.254 . S
C818 O831 1.257 . S
O819 Dy816 2.307 . S
O819 C829 1.266 . S
O820 Dy817 2.298 . S
O820 C829 1.236 . S
O821 Dy816 2.395 . S
O821 C838 1.255 . S
O822 Dy816 2.379 . S
O822 C838 1.249 . S
O823 Dy817 2.275 . S
O823 C839 1.254 . S
O824 Dy816 2.339 . S
O824 C839 1.257 . S
O825 Dy817 2.307 . S
O825 C840 1.266 . S
O826 Dy816 2.298 . S
O826 C840 1.236 . S
O827 Dy817 2.395 . S
O827 C847 1.255 . S
O828 Dy817 2.379 . S
O828 C847 1.249 . S
C829 O819 1.266 . S
C829 O820 1.236 . S
O830 Dy816 2.275 . S
O830 C818 1.254 . S
O831 Dy817 2.339 . S
O831 C818 1.257 . S
C832 C835 1.344 . S
C832 C836 1.328 . S
C832 C838 1.516 . S
C833 C834 1.304 . S
C833 C837 1.323 . S
C834 C833 1.304 . S
C834 C835 1.371 . S
C834 H848 0.930 . S
C835 C832 1.344 . S
C835 C834 1.371 . S
C835 H849 0.931 . S
C836 C832 1.328 . S
C836 C837 1.433 . S
C836 H850 0.931 . S
C837 C833 1.323 . S
C837 C836 1.433 . S
C837 H851 0.933 . S
C838 Dy816 2.738 . S
C838 O821 1.255 . S
C838 O822 1.249 . S
C838 C832 1.516 . S
C839 O823 1.254 . S
C839 O824 1.257 . S
C840 O825 1.266 . S
C840 O826 1.236 . S
C841 C844 1.344 . S
C841 C845 1.328 . S
C841 C847 1.516 . S
C842 C843 1.304 . S
C842 C846 1.323 . S
C843 C842 1.304 . S
C843 C844 1.371 . S
C843 H852 0.930 . S
C844 C841 1.344 . S
C844 C843 1.371 . S
C844 H853 0.931 . S
C845 C841 1.328 . S
C845 C846 1.433 . S
C845 H854 0.931 . S
C846 C842 1.323 . S
C846 C845 1.433 . S
C846 H855 0.933 . S
C847 Dy817 2.738 . S
C847 O827 1.255 . S
C847 O828 1.249 . S
C847 C841 1.516 . S
H848 C834 0.930 . S
H849 C835 0.931 . S
H850 C836 0.931 . S
H851 C837 0.933 . S
H852 C843 0.930 . S
H853 C844 0.931 . S
H854 C845 0.931 . S
H855 C846 0.933 . S
Dy856 O859 2.307 . S
Dy856 O861 2.395 . S
Dy856 O862 2.379 . S
Dy856 O864 2.339 . S
Dy856 O866 2.298 . S
Dy856 O870 2.275 . S
Dy856 C878 2.738 . S
Dy857 O860 2.298 . S
Dy857 O863 2.275 . S
Dy857 O865 2.307 . S
Dy857 O867 2.395 . S
Dy857 O868 2.379 . S
Dy857 O871 2.339 . S
Dy857 C887 2.738 . S
C858 O870 1.254 . S
C858 O871 1.257 . S
O859 Dy856 2.307 . S
O859 C869 1.266 . S
O860 Dy857 2.298 . S
O860 C869 1.236 . S
O861 Dy856 2.395 . S
O861 C878 1.255 . S
O862 Dy856 2.379 . S
O862 C878 1.249 . S
O863 Dy857 2.275 . S
O863 C879 1.254 . S
O864 Dy856 2.339 . S
O864 C879 1.257 . S
O865 Dy857 2.307 . S
O865 C880 1.266 . S
O866 Dy856 2.298 . S
O866 C880 1.236 . S
O867 Dy857 2.395 . S
O867 C887 1.255 . S
O868 Dy857 2.379 . S
O868 C887 1.249 . S
C869 O859 1.266 . S
C869 O860 1.236 . S
O870 Dy856 2.275 . S
O870 C858 1.254 . S
O871 Dy857 2.339 . S
O871 C858 1.257 . S
C872 C875 1.344 . S
C872 C876 1.328 . S
C872 C878 1.516 . S
C873 C874 1.304 . S
C873 C877 1.323 . S
C874 C873 1.304 . S
C874 C875 1.371 . S
C874 H888 0.930 . S
C875 C872 1.344 . S
C875 C874 1.371 . S
C875 H889 0.931 . S
C876 C872 1.328 . S
C876 C877 1.433 . S
C876 H890 0.931 . S
C877 C873 1.323 . S
C877 C876 1.433 . S
C877 H891 0.933 . S
C878 Dy856 2.738 . S
C878 O861 1.255 . S
C878 O862 1.249 . S
C878 C872 1.516 . S
C879 O863 1.254 . S
C879 O864 1.257 . S
C880 O865 1.266 . S
C880 O866 1.236 . S
C881 C884 1.344 . S
C881 C885 1.328 . S
C881 C887 1.516 . S
C882 C883 1.304 . S
C882 C886 1.323 . S
C883 C882 1.304 . S
C883 C884 1.371 . S
C883 H892 0.930 . S
C884 C881 1.344 . S
C884 C883 1.371 . S
C884 H893 0.931 . S
C885 C881 1.328 . S
C885 C886 1.433 . S
C885 H894 0.931 . S
C886 C882 1.323 . S
C886 C885 1.433 . S
C886 H895 0.933 . S
C887 Dy857 2.738 . S
C887 O867 1.255 . S
C887 O868 1.249 . S
C887 C881 1.516 . S
H888 C874 0.930 . S
H889 C875 0.931 . S
H890 C876 0.931 . S
H891 C877 0.933 . S
H892 C883 0.930 . S
H893 C884 0.931 . S
H894 C885 0.931 . S
H895 C886 0.933 . S
Dy896 O899 2.307 . S
Dy896 O901 2.395 . S
Dy896 O902 2.379 . S
Dy896 O904 2.339 . S
Dy896 O906 2.298 . S
Dy896 O910 2.275 . S
Dy896 C918 2.738 . S
Dy897 O900 2.298 . S
Dy897 O903 2.275 . S
Dy897 O905 2.307 . S
Dy897 O907 2.395 . S
Dy897 O908 2.379 . S
Dy897 O911 2.339 . S
Dy897 C927 2.738 . S
C898 O910 1.254 . S
C898 O911 1.257 . S
O899 Dy896 2.307 . S
O899 C909 1.266 . S
O900 Dy897 2.298 . S
O900 C909 1.236 . S
O901 Dy896 2.395 . S
O901 C918 1.255 . S
O902 Dy896 2.379 . S
O902 C918 1.249 . S
O903 Dy897 2.275 . S
O903 C919 1.254 . S
O904 Dy896 2.339 . S
O904 C919 1.257 . S
O905 Dy897 2.307 . S
O905 C920 1.266 . S
O906 Dy896 2.298 . S
O906 C920 1.236 . S
O907 Dy897 2.395 . S
O907 C927 1.255 . S
O908 Dy897 2.379 . S
O908 C927 1.249 . S
C909 O899 1.266 . S
C909 O900 1.236 . S
O910 Dy896 2.275 . S
O910 C898 1.254 . S
O911 Dy897 2.339 . S
O911 C898 1.257 . S
C912 C915 1.344 . S
C912 C916 1.328 . S
C912 C918 1.516 . S
C913 C914 1.304 . S
C913 C917 1.323 . S
C914 C913 1.304 . S
C914 C915 1.371 . S
C914 H928 0.930 . S
C915 C912 1.344 . S
C915 C914 1.371 . S
C915 H929 0.931 . S
C916 C912 1.328 . S
C916 C917 1.433 . S
C916 H930 0.931 . S
C917 C913 1.323 . S
C917 C916 1.433 . S
C917 H931 0.933 . S
C918 Dy896 2.738 . S
C918 O901 1.255 . S
C918 O902 1.249 . S
C918 C912 1.516 . S
C919 O903 1.254 . S
C919 O904 1.257 . S
C920 O905 1.266 . S
C920 O906 1.236 . S
C921 C924 1.344 . S
C921 C925 1.328 . S
C921 C927 1.516 . S
C922 C923 1.304 . S
C922 C926 1.323 . S
C923 C922 1.304 . S
C923 C924 1.371 . S
C923 H932 0.930 . S
C924 C921 1.344 . S
C924 C923 1.371 . S
C924 H933 0.931 . S
C925 C921 1.328 . S
C925 C926 1.433 . S
C925 H934 0.931 . S
C926 C922 1.323 . S
C926 C925 1.433 . S
C926 H935 0.933 . S
C927 Dy897 2.738 . S
C927 O907 1.255 . S
C927 O908 1.249 . S
C927 C921 1.516 . S
H928 C914 0.930 . S
H929 C915 0.931 . S
H930 C916 0.931 . S
H931 C917 0.933 . S
H932 C923 0.930 . S
H933 C924 0.931 . S
H934 C925 0.931 . S
H935 C926 0.933 . S
Dy936 O939 2.307 1_655 S
Dy936 O941 2.395 . S
Dy936 O942 2.379 . S
Dy936 O944 2.339 1_655 S
Dy936 O946 2.298 1_655 S
Dy936 O950 2.275 1_655 S
Dy936 C958 2.738 . S
Dy937 O940 2.298 . S
Dy937 O943 2.275 . S
Dy937 O945 2.307 . S
Dy937 O947 2.395 . S
Dy937 O948 2.379 . S
Dy937 O951 2.339 . S
Dy937 C967 2.738 . S
C938 O950 1.254 . S
C938 O951 1.257 . S
O939 Dy936 2.307 1_455 S
O939 C949 1.266 . S
O940 Dy937 2.298 . S
O940 C949 1.236 . S
O941 Dy936 2.395 . S
O941 C958 1.255 . S
O942 Dy936 2.379 . S
O942 C958 1.249 . S
O943 Dy937 2.275 . S
O943 C959 1.254 . S
O944 Dy936 2.339 1_455 S
O944 C959 1.257 . S
O945 Dy937 2.307 . S
O945 C960 1.266 . S
O946 Dy936 2.298 1_455 S
O946 C960 1.236 . S
O947 Dy937 2.395 . S
O947 C967 1.255 . S
O948 Dy937 2.379 . S
O948 C967 1.249 . S
C949 O939 1.266 . S
C949 O940 1.236 . S
O950 Dy936 2.275 1_455 S
O950 C938 1.254 . S
O951 Dy937 2.339 . S
O951 C938 1.257 . S
C952 C955 1.344 . S
C952 C956 1.328 . S
C952 C958 1.516 . S
C953 C954 1.304 . S
C953 C957 1.323 . S
C954 C953 1.304 . S
C954 C955 1.371 . S
C954 H968 0.930 . S
C955 C952 1.344 . S
C955 C954 1.371 . S
C955 H969 0.931 . S
C956 C952 1.328 . S
C956 C957 1.433 . S
C956 H970 0.931 . S
C957 C953 1.323 . S
C957 C956 1.433 . S
C957 H971 0.933 . S
C958 Dy936 2.738 . S
C958 O941 1.255 . S
C958 O942 1.249 . S
C958 C952 1.516 . S
C959 O943 1.254 . S
C959 O944 1.257 . S
C960 O945 1.266 . S
C960 O946 1.236 . S
C961 C964 1.344 . S
C961 C965 1.328 . S
C961 C967 1.516 . S
C962 C963 1.304 . S
C962 C966 1.323 . S
C963 C962 1.304 . S
C963 C964 1.371 . S
C963 H972 0.930 . S
C964 C961 1.344 . S
C964 C963 1.371 . S
C964 H973 0.931 . S
C965 C961 1.328 . S
C965 C966 1.433 . S
C965 H974 0.931 . S
C966 C962 1.323 . S
C966 C965 1.433 . S
C966 H975 0.933 . S
C967 Dy937 2.738 . S
C967 O947 1.255 . S
C967 O948 1.249 . S
C967 C961 1.516 . S
H968 C954 0.930 . S
H969 C955 0.931 . S
H970 C956 0.931 . S
H971 C957 0.933 . S
H972 C963 0.930 . S
H973 C964 0.931 . S
H974 C965 0.931 . S
H975 C966 0.933 . S
H976 C984 0.929 . S
H977 C986 0.930 . S
H978 C988 0.930 . S
H979 C991 0.929 . S
H980 C994 0.930 . S
H981 C996 0.960 . S
H982 C996 0.960 . S
H983 C996 0.960 . S
C984 H976 0.929 . S
C984 C985 1.377 1_455 S
C984 C986 1.384 . S
C985 C984 1.377 1_655 S
C985 C991 1.390 . S
C986 H977 0.930 . S
C986 C984 1.384 . S
C986 C987 1.372 . S
C987 C986 1.372 . S
C987 C988 1.400 1_455 S
C987 C992 1.490 . S
C988 H978 0.930 . S
C988 C987 1.400 1_655 S
C988 C991 1.386 . S
H989 C1005 0.911 1_655 S
H990 C1006 0.931 1_655 S
C991 H979 0.929 . S
C991 C985 1.390 . S
C991 C988 1.386 . S
C992 C987 1.490 . S
C992 C994 1.395 1_556 S
C992 C995 1.403 1_455 S
H993 C999 0.924 1_655 S
C994 H980 0.930 . S
C994 C992 1.395 1_554 S
C994 C997 1.403 . S
C995 C992 1.403 1_655 S
C995 C996 1.524 . S
C995 C999 1.390 1_655 S
C996 H981 0.960 . S
C996 H982 0.960 . S
C996 H983 0.960 . S
C996 C995 1.524 . S
C997 C994 1.403 . S
C997 C998 1.392 . S
C997 C1001 1.495 . S
C998 C997 1.392 . S
C998 C999 1.401 1_554 S
C998 C1000 1.478 . S
C999 H993 0.924 1_455 S
C999 C995 1.390 1_455 S
C999 C998 1.401 1_556 S
C1000 C998 1.478 . S
C1000 C1002 1.381 . S
C1000 C1006 1.383 . S
C1001 C997 1.495 . S
C1001 H1007 0.959 . S
C1001 H1008 0.961 . S
C1001 H1009 0.960 . S
C1002 C1000 1.381 . S
C1002 C1003 1.394 . S
C1002 H1010 0.930 . S
C1003 C1002 1.394 . S
C1003 C1004 1.383 . S
C1003 H1011 0.929 . S
C1004 C1003 1.383 . S
C1004 C1005 1.377 . S
C1005 H989 0.911 1_455 S
C1005 C1004 1.377 . S
C1005 C1006 1.379 . S
C1006 H990 0.931 1_455 S
C1006 C1000 1.383 . S
C1006 C1005 1.379 . S
H1007 C1001 0.959 . S
H1008 C1001 0.961 . S
H1009 C1001 0.960 . S
H1010 C1002 0.930 . S
H1011 C1003 0.929 . S
H1012 C1020 0.929 . S
H1013 C1022 0.930 . S
H1014 C1024 0.930 . S
H1015 C1027 0.929 . S
H1016 C1030 0.930 . S
H1017 C1032 0.960 . S
H1018 C1032 0.960 . S
H1019 C1032 0.960 . S
C1020 H1012 0.929 . S
C1020 C1021 1.377 . S
C1020 C1022 1.384 . S
C1021 C1020 1.377 . S
C1021 C1027 1.390 . S
C1022 H1013 0.930 . S
C1022 C1020 1.384 . S
C1022 C1023 1.372 . S
C1023 C1022 1.372 . S
C1023 C1024 1.400 . S
C1023 C1028 1.490 . S
C1024 H1014 0.930 . S
C1024 C1023 1.400 . S
C1024 C1027 1.386 . S
H1025 C1041 0.930 . S
H1026 C1042 0.931 . S
C1027 H1015 0.929 . S
C1027 C1021 1.390 . S
C1027 C1024 1.386 . S
C1028 C1023 1.490 . S
C1028 C1030 1.395 . S
C1028 C1031 1.403 . S
H1029 C1035 0.930 . S
C1030 H1016 0.930 . S
C1030 C1028 1.395 . S
C1030 C1033 1.403 . S
C1031 C1028 1.403 . S
C1031 C1032 1.524 . S
C1031 C1035 1.400 . S
C1032 H1017 0.960 . S
C1032 H1018 0.960 . S
C1032 H1019 0.960 . S
C1032 C1031 1.524 . S
C1033 C1030 1.403 . S
C1033 C1034 1.392 . S
C1033 C1037 1.495 . S
C1034 C1033 1.392 . S
C1034 C1035 1.385 . S
C1034 C1036 1.478 . S
C1035 H1029 0.930 . S
C1035 C1031 1.400 . S
C1035 C1034 1.385 . S
C1036 C1034 1.478 . S
C1036 C1038 1.381 . S
C1036 C1042 1.383 . S
C1037 C1033 1.495 . S
C1037 H1043 0.959 . S
C1037 H1044 0.961 . S
C1037 H1045 0.960 . S
C1038 C1036 1.381 . S
C1038 C1039 1.394 . S
C1038 H1046 0.930 . S
C1039 C1038 1.394 . S
C1039 C1040 1.383 . S
C1039 H1047 0.929 . S
C1040 C1039 1.383 . S
C1040 C1041 1.377 . S
C1041 H1025 0.930 . S
C1041 C1040 1.377 . S
C1041 C1042 1.379 . S
C1042 H1026 0.931 . S
C1042 C1036 1.383 . S
C1042 C1041 1.379 . S
H1043 C1037 0.959 . S
H1044 C1037 0.961 . S
H1045 C1037 0.960 . S
H1046 C1038 0.930 . S
H1047 C1039 0.929 . S
H1048 C1056 0.929 . S
H1049 C1058 0.930 . S
H1050 C1060 0.930 . S
H1051 C1063 0.929 . S
H1052 C1066 0.930 . S
H1053 C1068 0.960 . S
H1054 C1068 0.960 . S
H1055 C1068 0.960 . S
C1056 H1048 0.929 . S
C1056 C1057 1.377 . S
C1056 C1058 1.384 . S
C1057 C1056 1.377 . S
C1057 C1063 1.390 . S
C1058 H1049 0.930 . S
C1058 C1056 1.384 . S
C1058 C1059 1.372 . S
C1059 C1058 1.372 . S
C1059 C1060 1.400 . S
C1059 C1064 1.490 . S
C1060 H1050 0.930 . S
C1060 C1059 1.400 . S
C1060 C1063 1.386 . S
H1061 C1077 0.930 . S
H1062 C1078 0.931 . S
C1063 H1051 0.929 . S
C1063 C1057 1.390 . S
C1063 C1060 1.386 . S
C1064 C1059 1.490 . S
C1064 C1066 1.395 . S
C1064 C1067 1.403 . S
H1065 C1071 0.930 . S
C1066 H1052 0.930 . S
C1066 C1064 1.395 . S
C1066 C1069 1.403 . S
C1067 C1064 1.403 . S
C1067 C1068 1.524 . S
C1067 C1071 1.400 . S
C1068 H1053 0.960 . S
C1068 H1054 0.960 . S
C1068 H1055 0.960 . S
C1068 C1067 1.524 . S
C1069 C1066 1.403 . S
C1069 C1070 1.392 . S
C1069 C1073 1.495 . S
C1070 C1069 1.392 . S
C1070 C1071 1.385 . S
C1070 C1072 1.478 . S
C1071 H1065 0.930 . S
C1071 C1067 1.400 . S
C1071 C1070 1.385 . S
C1072 C1070 1.478 . S
C1072 C1074 1.381 . S
C1072 C1078 1.383 . S
C1073 C1069 1.495 . S
C1073 H1079 0.959 . S
C1073 H1080 0.961 . S
C1073 H1081 0.960 . S
C1074 C1072 1.381 . S
C1074 C1075 1.394 . S
C1074 H1082 0.930 . S
C1075 C1074 1.394 . S
C1075 C1076 1.383 . S
C1075 H1083 0.929 . S
C1076 C1075 1.383 . S
C1076 C1077 1.377 . S
C1077 H1061 0.930 . S
C1077 C1076 1.377 . S
C1077 C1078 1.379 . S
C1078 H1062 0.931 . S
C1078 C1072 1.383 . S
C1078 C1077 1.379 . S
H1079 C1073 0.959 . S
H1080 C1073 0.961 . S
H1081 C1073 0.960 . S
H1082 C1074 0.930 . S
H1083 C1075 0.929 . S
H1084 C1092 0.929 . S
H1085 C1094 0.930 . S
H1086 C1096 0.930 . S
H1087 C1099 0.929 . S
H1088 C1102 0.930 . S
H1089 C1104 0.960 . S
H1090 C1104 0.960 . S
H1091 C1104 0.960 . S
C1092 H1084 0.929 . S
C1092 C1093 1.377 . S
C1092 C1094 1.384 . S
C1093 C1092 1.377 . S
C1093 C1099 1.390 . S
C1094 H1085 0.930 . S
C1094 C1092 1.384 . S
C1094 C1095 1.372 . S
C1095 C1094 1.372 . S
C1095 C1096 1.400 . S
C1095 C1100 1.490 . S
C1096 H1086 0.930 . S
C1096 C1095 1.400 . S
C1096 C1099 1.386 . S
H1097 C1113 0.930 . S
H1098 C1114 0.931 . S
C1099 H1087 0.929 . S
C1099 C1093 1.390 . S
C1099 C1096 1.386 . S
C1100 C1095 1.490 . S
C1100 C1102 1.395 . S
C1100 C1103 1.403 . S
H1101 C1107 0.930 . S
C1102 H1088 0.930 . S
C1102 C1100 1.395 . S
C1102 C1105 1.403 . S
C1103 C1100 1.403 . S
C1103 C1104 1.524 . S
C1103 C1107 1.400 . S
C1104 H1089 0.960 . S
C1104 H1090 0.960 . S
C1104 H1091 0.960 . S
C1104 C1103 1.524 . S
C1105 C1102 1.403 . S
C1105 C1106 1.392 . S
C1105 C1109 1.495 . S
C1106 C1105 1.392 . S
C1106 C1107 1.385 . S
C1106 C1108 1.478 . S
C1107 H1101 0.930 . S
C1107 C1103 1.400 . S
C1107 C1106 1.385 . S
C1108 C1106 1.478 . S
C1108 C1110 1.381 . S
C1108 C1114 1.383 . S
C1109 C1105 1.495 . S
C1109 H1115 0.959 . S
C1109 H1116 0.961 . S
C1109 H1117 0.960 . S
C1110 C1108 1.381 . S
C1110 C1111 1.394 . S
C1110 H1118 0.930 . S
C1111 C1110 1.394 . S
C1111 C1112 1.383 . S
C1111 H1119 0.929 . S
C1112 C1111 1.383 . S
C1112 C1113 1.377 . S
C1113 H1097 0.930 . S
C1113 C1112 1.377 . S
C1113 C1114 1.379 . S
C1114 H1098 0.931 . S
C1114 C1108 1.383 . S
C1114 C1113 1.379 . S
H1115 C1109 0.959 . S
H1116 C1109 0.961 . S
H1117 C1109 0.960 . S
H1118 C1110 0.930 . S
H1119 C1111 0.929 . S
H1120 C1128 0.929 . S
H1121 C1130 0.930 . S
H1122 C1132 0.930 . S
H1123 C1135 0.929 . S
H1124 C1138 0.930 . S
H1125 C1140 0.960 . S
H1126 C1140 0.960 . S
H1127 C1140 0.960 . S
C1128 H1120 0.929 . S
C1128 C1129 1.377 . S
C1128 C1130 1.384 . S
C1129 C1128 1.377 . S
C1129 C1135 1.390 . S
C1130 H1121 0.930 . S
C1130 C1128 1.384 . S
C1130 C1131 1.372 . S
C1131 C1130 1.372 . S
C1131 C1132 1.400 . S
C1131 C1136 1.490 . S
C1132 H1122 0.930 . S
C1132 C1131 1.400 . S
C1132 C1135 1.386 . S
H1133 C1149 0.930 . S
H1134 C1150 0.931 . S
C1135 H1123 0.929 . S
C1135 C1129 1.390 . S
C1135 C1132 1.386 . S
C1136 C1131 1.490 . S
C1136 C1138 1.395 . S
C1136 C1139 1.403 . S
H1137 C1143 0.930 . S
C1138 H1124 0.930 . S
C1138 C1136 1.395 . S
C1138 C1141 1.403 . S
C1139 C1136 1.403 . S
C1139 C1140 1.524 . S
C1139 C1143 1.400 . S
C1140 H1125 0.960 . S
C1140 H1126 0.960 . S
C1140 H1127 0.960 . S
C1140 C1139 1.524 . S
C1141 C1138 1.403 . S
C1141 C1142 1.392 . S
C1141 C1145 1.495 . S
C1142 C1141 1.392 . S
C1142 C1143 1.385 . S
C1142 C1144 1.478 . S
C1143 H1137 0.930 . S
C1143 C1139 1.400 . S
C1143 C1142 1.385 . S
C1144 C1142 1.478 . S
C1144 C1146 1.381 . S
C1144 C1150 1.383 . S
C1145 C1141 1.495 . S
C1145 H1151 0.959 1_455 S
C1145 H1152 0.961 . S
C1145 H1153 0.960 1_455 S
C1146 C1144 1.381 . S
C1146 C1147 1.394 . S
C1146 H1154 0.930 . S
C1147 C1146 1.394 . S
C1147 C1148 1.383 . S
C1147 H1155 0.929 . S
C1148 C1147 1.383 . S
C1148 C1149 1.377 . S
C1149 H1133 0.930 . S
C1149 C1148 1.377 . S
C1149 C1150 1.379 . S
C1150 H1134 0.931 . S
C1150 C1144 1.383 . S
C1150 C1149 1.379 . S
H1151 C1145 0.959 1_655 S
H1152 C1145 0.961 . S
H1153 C1145 0.960 1_655 S
H1154 C1146 0.930 . S
H1155 C1147 0.929 . S
H1156 C1164 0.929 . S
H1157 C1166 0.930 . S
H1158 C1168 0.930 . S
H1159 C1171 0.929 . S
H1160 C1174 0.930 . S
H1161 C1176 0.960 . S
H1162 C1176 0.960 . S
H1163 C1176 0.960 . S
C1164 H1156 0.929 . S
C1164 C1165 1.377 . S
C1164 C1166 1.384 . S
C1165 C1164 1.377 . S
C1165 C1171 1.390 . S
C1166 H1157 0.930 . S
C1166 C1164 1.384 . S
C1166 C1167 1.372 . S
C1167 C1166 1.372 . S
C1167 C1168 1.400 . S
C1167 C1172 1.490 . S
C1168 H1158 0.930 . S
C1168 C1167 1.400 . S
C1168 C1171 1.386 . S
H1169 C1185 0.930 . S
H1170 C1186 0.931 . S
C1171 H1159 0.929 . S
C1171 C1165 1.390 . S
C1171 C1168 1.386 . S
C1172 C1167 1.490 . S
C1172 C1174 1.395 . S
C1172 C1175 1.403 . S
H1173 C1179 0.930 . S
C1174 H1160 0.930 . S
C1174 C1172 1.395 . S
C1174 C1177 1.403 . S
C1175 C1172 1.403 . S
C1175 C1176 1.524 . S
C1175 C1179 1.400 . S
C1176 H1161 0.960 . S
C1176 H1162 0.960 . S
C1176 H1163 0.960 . S
C1176 C1175 1.524 . S
C1177 C1174 1.403 . S
C1177 C1178 1.392 . S
C1177 C1181 1.495 . S
C1178 C1177 1.392 . S
C1178 C1179 1.385 . S
C1178 C1180 1.478 . S
C1179 H1173 0.930 . S
C1179 C1175 1.400 . S
C1179 C1178 1.385 . S
C1180 C1178 1.478 . S
C1180 C1182 1.381 . S
C1180 C1186 1.383 . S
C1181 C1177 1.495 . S
C1181 H1187 0.959 . S
C1181 H1188 0.961 . S
C1181 H1189 0.960 . S
C1182 C1180 1.381 . S
C1182 C1183 1.394 . S
C1182 H1190 0.930 . S
C1183 C1182 1.394 . S
C1183 C1184 1.383 . S
C1183 H1191 0.929 . S
C1184 C1183 1.383 . S
C1184 C1185 1.377 . S
C1185 H1169 0.930 . S
C1185 C1184 1.377 . S
C1185 C1186 1.379 . S
C1186 H1170 0.931 . S
C1186 C1180 1.383 . S
C1186 C1185 1.379 . S
H1187 C1181 0.959 . S
H1188 C1181 0.961 . S
H1189 C1181 0.960 . S
H1190 C1182 0.930 . S
H1191 C1183 0.929 . S
H1192 C1200 0.929 . S
H1193 C1202 0.930 . S
H1194 C1204 0.930 . S
H1195 C1207 0.929 . S
H1196 C1210 0.930 . S
H1197 C1212 0.960 . S
H1198 C1212 0.960 . S
H1199 C1212 0.960 . S
C1200 H1192 0.929 . S
C1200 C1201 1.377 . S
C1200 C1202 1.384 . S
C1201 C1200 1.377 . S
C1201 C1207 1.390 . S
C1202 H1193 0.930 . S
C1202 C1200 1.384 . S
C1202 C1203 1.372 . S
C1203 C1202 1.372 . S
C1203 C1204 1.400 . S
C1203 C1208 1.490 . S
C1204 H1194 0.930 . S
C1204 C1203 1.400 . S
C1204 C1207 1.386 . S
H1205 C1221 0.930 . S
H1206 C1222 0.931 . S
C1207 H1195 0.929 . S
C1207 C1201 1.390 . S
C1207 C1204 1.386 . S
C1208 C1203 1.490 . S
C1208 C1210 1.395 . S
C1208 C1211 1.403 . S
H1209 C1215 0.930 . S
C1210 H1196 0.930 . S
C1210 C1208 1.395 . S
C1210 C1213 1.403 . S
C1211 C1208 1.403 . S
C1211 C1212 1.524 . S
C1211 C1215 1.400 . S
C1212 H1197 0.960 . S
C1212 H1198 0.960 . S
C1212 H1199 0.960 . S
C1212 C1211 1.524 . S
C1213 C1210 1.403 . S
C1213 C1214 1.392 . S
C1213 C1217 1.495 . S
C1214 C1213 1.392 . S
C1214 C1215 1.385 . S
C1214 C1216 1.478 . S
C1215 H1209 0.930 . S
C1215 C1211 1.400 . S
C1215 C1214 1.385 . S
C1216 C1214 1.478 . S
C1216 C1218 1.381 . S
C1216 C1222 1.383 . S
C1217 C1213 1.495 . S
C1217 H1223 0.959 . S
C1217 H1224 0.961 . S
C1217 H1225 0.960 . S
C1218 C1216 1.381 . S
C1218 C1219 1.394 . S
C1218 H1226 0.930 . S
C1219 C1218 1.394 . S
C1219 C1220 1.383 . S
C1219 H1227 0.929 . S
C1220 C1219 1.383 . S
C1220 C1221 1.377 . S
C1221 H1205 0.930 . S
C1221 C1220 1.377 . S
C1221 C1222 1.379 . S
C1222 H1206 0.931 . S
C1222 C1216 1.383 . S
C1222 C1221 1.379 . S
H1223 C1217 0.959 . S
H1224 C1217 0.961 . S
H1225 C1217 0.960 . S
H1226 C1218 0.930 . S
H1227 C1219 0.929 . S
H1228 C1236 0.929 . S
H1229 C1238 0.930 . S
H1230 C1240 0.930 . S
H1231 C1243 0.929 . S
H1232 C1246 0.930 . S
H1233 C1248 0.960 . S
H1234 C1248 0.960 . S
H1235 C1248 0.960 . S
C1236 H1228 0.929 . S
C1236 C1237 1.377 . S
C1236 C1238 1.384 . S
C1237 C1236 1.377 . S
C1237 C1243 1.390 . S
C1238 H1229 0.930 . S
C1238 C1236 1.384 . S
C1238 C1239 1.372 . S
C1239 C1238 1.372 . S
C1239 C1240 1.400 . S
C1239 C1244 1.490 . S
C1240 H1230 0.930 . S
C1240 C1239 1.400 . S
C1240 C1243 1.386 . S
H1241 C1257 0.930 . S
H1242 C1258 0.931 . S
C1243 H1231 0.929 . S
C1243 C1237 1.390 . S
C1243 C1240 1.386 . S
C1244 C1239 1.490 . S
C1244 C1246 1.395 . S
C1244 C1247 1.403 . S
H1245 C1251 0.930 . S
C1246 H1232 0.930 . S
C1246 C1244 1.395 . S
C1246 C1249 1.403 . S
C1247 C1244 1.403 . S
C1247 C1248 1.524 . S
C1247 C1251 1.400 . S
C1248 H1233 0.960 . S
C1248 H1234 0.960 . S
C1248 H1235 0.960 . S
C1248 C1247 1.524 . S
C1249 C1246 1.403 . S
C1249 C1250 1.392 . S
C1249 C1253 1.495 . S
C1250 C1249 1.392 . S
C1250 C1251 1.385 . S
C1250 C1252 1.478 . S
C1251 H1245 0.930 . S
C1251 C1247 1.400 . S
C1251 C1250 1.385 . S
C1252 C1250 1.478 . S
C1252 C1254 1.381 . S
C1252 C1258 1.383 . S
C1253 C1249 1.495 . S
C1253 H1259 0.959 . S
C1253 H1260 0.961 . S
C1253 H1261 0.960 . S
C1254 C1252 1.381 . S
C1254 C1255 1.394 . S
C1254 H1262 0.930 . S
C1255 C1254 1.394 . S
C1255 C1256 1.383 . S
C1255 H1263 0.929 . S
C1256 C1255 1.383 . S
C1256 C1257 1.377 . S
C1257 H1241 0.930 . S
C1257 C1256 1.377 . S
C1257 C1258 1.379 . S
C1258 H1242 0.931 . S
C1258 C1252 1.383 . S
C1258 C1257 1.379 . S
H1259 C1253 0.959 . S
H1260 C1253 0.961 . S
H1261 C1253 0.960 . S
H1262 C1254 0.930 . S
H1263 C1255 0.929 . S
H1264 C1272 0.929 . S
H1265 C1274 0.930 . S
H1266 C1276 0.930 . S
H1267 C1279 0.929 . S
H1268 C1282 0.930 . S
H1269 C1284 0.960 . S
H1270 C1284 0.960 . S
H1271 C1284 0.960 . S
C1272 H1264 0.929 . S
C1272 C1273 1.377 . S
C1272 C1274 1.384 . S
C1273 C1272 1.377 . S
C1273 C1279 1.390 . S
C1274 H1265 0.930 . S
C1274 C1272 1.384 . S
C1274 C1275 1.372 . S
C1275 C1274 1.372 . S
C1275 C1276 1.400 . S
C1275 C1280 1.490 . S
C1276 H1266 0.930 . S
C1276 C1275 1.400 . S
C1276 C1279 1.386 . S
H1277 C1293 0.932 1_655 S
H1278 C1294 0.931 . S
C1279 H1267 0.929 . S
C1279 C1273 1.390 . S
C1279 C1276 1.386 . S
C1280 C1275 1.490 . S
C1280 C1282 1.395 . S
C1280 C1283 1.403 . S
H1281 C1287 0.930 . S
C1282 H1268 0.930 . S
C1282 C1280 1.395 . S
C1282 C1285 1.396 1_655 S
C1283 C1280 1.403 . S
C1283 C1284 1.524 . S
C1283 C1287 1.400 . S
C1284 H1269 0.960 . S
C1284 H1270 0.960 . S
C1284 H1271 0.960 . S
C1284 C1283 1.524 . S
C1285 C1282 1.396 1_455 S
C1285 C1286 1.386 1_455 S
C1285 C1289 1.508 . S
C1286 C1285 1.386 1_655 S
C1286 C1287 1.385 . S
C1286 C1288 1.478 . S
C1287 H1281 0.930 . S
C1287 C1283 1.400 . S
C1287 C1286 1.385 . S
C1288 C1286 1.478 . S
C1288 C1290 1.381 1_655 S
C1288 C1294 1.383 . S
C1289 C1285 1.508 . S
C1289 H1295 0.959 . S
C1289 H1296 0.961 . S
C1289 H1297 0.960 . S
C1290 C1288 1.381 1_455 S
C1290 C1291 1.394 . S
C1290 H1298 0.930 . S
C1291 C1290 1.394 . S
C1291 C1292 1.383 . S
C1291 H1299 0.929 . S
C1292 C1291 1.383 . S
C1292 C1293 1.395 . S
C1293 H1277 0.932 1_455 S
C1293 C1292 1.395 . S
C1293 C1294 1.361 1_455 S
C1294 H1278 0.931 . S
C1294 C1288 1.383 . S
C1294 C1293 1.361 1_655 S
H1295 C1289 0.959 . S
H1296 C1289 0.961 . S
H1297 C1289 0.960 . S
H1298 C1290 0.930 . S
H1299 C1291 0.929 . S
H1300 C1308 0.929 . S
H1301 C1310 0.930 . S
H1302 C1312 0.930 . S
H1303 C1315 0.929 . S
H1304 C1318 0.930 . S
H1305 C1320 0.960 . S
H1306 C1320 0.960 . S
H1307 C1320 0.960 . S
C1308 H1300 0.929 . S
C1308 C1309 1.377 . S
C1308 C1310 1.384 . S
C1309 C1308 1.377 . S
C1309 C1315 1.390 . S
C1310 H1301 0.930 . S
C1310 C1308 1.384 . S
C1310 C1311 1.372 . S
C1311 C1310 1.372 . S
C1311 C1312 1.400 . S
C1311 C1316 1.490 . S
C1312 H1302 0.930 . S
C1312 C1311 1.400 . S
C1312 C1315 1.386 . S
H1313 C1329 0.930 . S
H1314 C1330 0.931 . S
C1315 H1303 0.929 . S
C1315 C1309 1.390 . S
C1315 C1312 1.386 . S
C1316 C1311 1.490 . S
C1316 C1318 1.395 . S
C1316 C1319 1.403 . S
H1317 C1323 0.930 . S
C1318 H1304 0.930 . S
C1318 C1316 1.395 . S
C1318 C1321 1.403 . S
C1319 C1316 1.403 . S
C1319 C1320 1.524 . S
C1319 C1323 1.400 . S
C1320 H1305 0.960 . S
C1320 H1306 0.960 . S
C1320 H1307 0.960 . S
C1320 C1319 1.524 . S
C1321 C1318 1.403 . S
C1321 C1322 1.392 . S
C1321 C1325 1.495 . S
C1322 C1321 1.392 . S
C1322 C1323 1.385 . S
C1322 C1324 1.478 . S
C1323 H1317 0.930 . S
C1323 C1319 1.400 . S
C1323 C1322 1.385 . S
C1324 C1322 1.478 . S
C1324 C1326 1.381 . S
C1324 C1330 1.383 . S
C1325 C1321 1.495 . S
C1325 H1331 0.959 . S
C1325 H1332 0.961 . S
C1325 H1333 0.960 . S
C1326 C1324 1.381 . S
C1326 C1327 1.394 . S
C1326 H1334 0.930 . S
C1327 C1326 1.394 . S
C1327 C1328 1.383 . S
C1327 H1335 0.929 . S
C1328 C1327 1.383 . S
C1328 C1329 1.377 . S
C1329 H1313 0.930 . S
C1329 C1328 1.377 . S
C1329 C1330 1.379 . S
C1330 H1314 0.931 . S
C1330 C1324 1.383 . S
C1330 C1329 1.379 . S
H1331 C1325 0.959 . S
H1332 C1325 0.961 . S
H1333 C1325 0.960 . S
H1334 C1326 0.930 . S
H1335 C1327 0.929 . S
H1336 C1344 0.929 . S
H1337 C1346 0.930 . S
H1338 C1348 0.930 . S
H1339 C1351 0.929 . S
H1340 C1354 0.930 . S
H1341 C1356 0.960 . S
H1342 C1356 0.960 . S
H1343 C1356 0.960 . S
C1344 H1336 0.929 . S
C1344 C1345 1.377 . S
C1344 C1346 1.384 . S
C1345 C1344 1.377 . S
C1345 C1351 1.390 . S
C1346 H1337 0.930 . S
C1346 C1344 1.384 . S
C1346 C1347 1.372 . S
C1347 C1346 1.372 . S
C1347 C1348 1.400 . S
C1347 C1352 1.490 . S
C1348 H1338 0.930 . S
C1348 C1347 1.400 . S
C1348 C1351 1.386 . S
H1349 C1365 0.930 . S
H1350 C1366 0.931 . S
C1351 H1339 0.929 . S
C1351 C1345 1.390 . S
C1351 C1348 1.386 . S
C1352 C1347 1.490 . S
C1352 C1354 1.395 . S
C1352 C1355 1.403 . S
H1353 C1359 0.930 . S
C1354 H1340 0.930 . S
C1354 C1352 1.395 . S
C1354 C1357 1.403 . S
C1355 C1352 1.403 . S
C1355 C1356 1.524 . S
C1355 C1359 1.400 . S
C1356 H1341 0.960 . S
C1356 H1342 0.960 . S
C1356 H1343 0.960 . S
C1356 C1355 1.524 . S
C1357 C1354 1.403 . S
C1357 C1358 1.392 . S
C1357 C1361 1.495 . S
C1358 C1357 1.392 . S
C1358 C1359 1.385 . S
C1358 C1360 1.478 . S
C1359 H1353 0.930 . S
C1359 C1355 1.400 . S
C1359 C1358 1.385 . S
C1360 C1358 1.478 . S
C1360 C1362 1.381 . S
C1360 C1366 1.383 . S
C1361 C1357 1.495 . S
C1361 H1367 0.959 . S
C1361 H1368 0.961 . S
C1361 H1369 0.960 . S
C1362 C1360 1.381 . S
C1362 C1363 1.394 . S
C1362 H1370 0.930 . S
C1363 C1362 1.394 . S
C1363 C1364 1.383 . S
C1363 H1371 0.929 . S
C1364 C1363 1.383 . S
C1364 C1365 1.377 . S
C1365 H1349 0.930 . S
C1365 C1364 1.377 . S
C1365 C1366 1.379 . S
C1366 H1350 0.931 . S
C1366 C1360 1.383 . S
C1366 C1365 1.379 . S
H1367 C1361 0.959 . S
H1368 C1361 0.961 . S
H1369 C1361 0.960 . S
H1370 C1362 0.930 . S
H1371 C1363 0.929 . S
H1372 C1380 0.929 . S
H1373 C1382 0.930 . S
H1374 C1384 0.930 . S
H1375 C1387 0.929 . S
H1376 C1390 0.930 . S
H1377 C1392 0.960 . S
H1378 C1392 0.960 . S
H1379 C1392 0.960 . S
C1380 H1372 0.929 . S
C1380 C1381 1.377 . S
C1380 C1382 1.384 . S
C1381 C1380 1.377 . S
C1381 C1387 1.390 . S
C1382 H1373 0.930 . S
C1382 C1380 1.384 . S
C1382 C1383 1.372 . S
C1383 C1382 1.372 . S
C1383 C1384 1.400 . S
C1383 C1388 1.490 . S
C1384 H1374 0.930 . S
C1384 C1383 1.400 . S
C1384 C1387 1.386 . S
H1385 C1401 0.930 . S
H1386 C1402 0.931 . S
C1387 H1375 0.929 . S
C1387 C1381 1.390 . S
C1387 C1384 1.386 . S
C1388 C1383 1.490 . S
C1388 C1390 1.395 . S
C1388 C1391 1.403 . S
H1389 C1395 0.930 . S
C1390 H1376 0.930 . S
C1390 C1388 1.395 . S
C1390 C1393 1.403 . S
C1391 C1388 1.403 . S
C1391 C1392 1.524 . S
C1391 C1395 1.400 . S
C1392 H1377 0.960 . S
C1392 H1378 0.960 . S
C1392 H1379 0.960 . S
C1392 C1391 1.524 . S
C1393 C1390 1.403 . S
C1393 C1394 1.392 . S
C1393 C1397 1.495 . S
C1394 C1393 1.392 . S
C1394 C1395 1.385 . S
C1394 C1396 1.478 . S
C1395 H1389 0.930 . S
C1395 C1391 1.400 . S
C1395 C1394 1.385 . S
C1396 C1394 1.478 . S
C1396 C1398 1.381 . S
C1396 C1402 1.383 . S
C1397 C1393 1.495 . S
C1397 H1403 0.959 . S
C1397 H1404 0.961 . S
C1397 H1405 0.960 . S
C1398 C1396 1.381 . S
C1398 C1399 1.394 . S
C1398 H1406 0.930 . S
C1399 C1398 1.394 . S
C1399 C1400 1.383 . S
C1399 H1407 0.929 . S
C1400 C1399 1.383 . S
C1400 C1401 1.377 . S
C1401 H1385 0.930 . S
C1401 C1400 1.377 . S
C1401 C1402 1.379 . S
C1402 H1386 0.931 . S
C1402 C1396 1.383 . S
C1402 C1401 1.379 . S
H1403 C1397 0.959 . S
H1404 C1397 0.961 . S
H1405 C1397 0.960 . S
H1406 C1398 0.930 . S
H1407 C1399 0.929 . S
H1408 C1416 0.929 . S
H1409 C1418 0.930 . S
H1410 C1420 0.930 . S
H1411 C1423 0.929 . S
H1412 C1426 0.930 . S
H1413 C1428 0.960 1_455 S
H1414 C1428 0.960 . S
H1415 C1428 0.960 1_455 S
C1416 H1408 0.929 . S
C1416 C1417 1.377 . S
C1416 C1418 1.384 . S
C1417 C1416 1.377 . S
C1417 C1423 1.390 . S
C1418 H1409 0.930 . S
C1418 C1416 1.384 . S
C1418 C1419 1.372 . S
C1419 C1418 1.372 . S
C1419 C1420 1.400 . S
C1419 C1424 1.490 . S
C1420 H1410 0.930 . S
C1420 C1419 1.400 . S
C1420 C1423 1.386 . S
H1421 C1437 0.930 . S
H1422 C1438 0.931 . S
C1423 H1411 0.929 . S
C1423 C1417 1.390 . S
C1423 C1420 1.386 . S
C1424 C1419 1.490 . S
C1424 C1426 1.395 . S
C1424 C1427 1.403 . S
H1425 C1431 0.930 1_455 S
C1426 H1412 0.930 . S
C1426 C1424 1.395 . S
C1426 C1429 1.403 . S
C1427 C1424 1.403 . S
C1427 C1428 1.524 . S
C1427 C1431 1.400 . S
C1428 H1413 0.960 1_655 S
C1428 H1414 0.960 . S
C1428 H1415 0.960 1_655 S
C1428 C1427 1.524 . S
C1429 C1426 1.403 . S
C1429 C1430 1.392 . S
C1429 C1433 1.495 1_545 S
C1430 C1429 1.392 . S
C1430 C1431 1.385 . S
C1430 C1432 1.461 1_655 S
C1431 H1425 0.930 1_655 S
C1431 C1427 1.400 . S
C1431 C1430 1.385 . S
C1432 C1430 1.461 1_455 S
C1432 C1434 1.353 1_455 S
C1432 C1438 1.429 . S
C1433 C1429 1.495 1_565 S
C1433 H1439 0.959 . S
C1433 H1440 0.961 . S
C1433 H1441 0.960 . S
C1434 C1432 1.353 1_655 S
C1434 C1435 1.410 . S
C1434 H1442 0.930 . S
C1435 C1434 1.410 . S
C1435 C1436 1.340 1_655 S
C1435 H1443 0.957 . S
C1436 C1435 1.340 1_455 S
C1436 C1437 1.377 . S
C1437 H1421 0.930 . S
C1437 C1436 1.377 . S
C1437 C1438 1.379 . S
C1438 H1422 0.931 . S
C1438 C1432 1.429 . S
C1438 C1437 1.379 . S
H1439 C1433 0.959 . S
H1440 C1433 0.961 . S
H1441 C1433 0.960 . S
H1442 C1434 0.930 . S
H1443 C1435 0.957 . S
H1444 C1452 0.929 . S
H1445 C1454 0.930 . S
H1446 C1456 0.930 . S
H1447 C1459 0.929 . S
H1448 C1462 0.930 . S
H1449 C1464 0.960 . S
H1450 C1464 0.960 . S
H1451 C1464 0.960 . S
C1452 H1444 0.929 . S
C1452 C1453 1.377 . S
C1452 C1454 1.384 . S
C1453 C1452 1.377 . S
C1453 C1459 1.390 . S
C1454 H1445 0.930 . S
C1454 C1452 1.384 . S
C1454 C1455 1.372 . S
C1455 C1454 1.372 . S
C1455 C1456 1.400 . S
C1455 C1460 1.490 . S
C1456 H1446 0.930 . S
C1456 C1455 1.400 . S
C1456 C1459 1.386 . S
H1457 C1473 0.930 . S
H1458 C1474 0.931 . S
C1459 H1447 0.929 . S
C1459 C1453 1.390 . S
C1459 C1456 1.386 . S
C1460 C1455 1.490 . S
C1460 C1462 1.395 . S
C1460 C1463 1.403 . S
H1461 C1467 0.930 . S
C1462 H1448 0.930 . S
C1462 C1460 1.395 . S
C1462 C1465 1.403 . S
C1463 C1460 1.403 . S
C1463 C1464 1.524 . S
C1463 C1467 1.400 . S
C1464 H1449 0.960 . S
C1464 H1450 0.960 . S
C1464 H1451 0.960 . S
C1464 C1463 1.524 . S
C1465 C1462 1.403 . S
C1465 C1466 1.392 . S
C1465 C1469 1.495 . S
C1466 C1465 1.392 . S
C1466 C1467 1.385 . S
C1466 C1468 1.478 . S
C1467 H1461 0.930 . S
C1467 C1463 1.400 . S
C1467 C1466 1.385 . S
C1468 C1466 1.478 . S
C1468 C1470 1.381 . S
C1468 C1474 1.383 . S
C1469 C1465 1.495 . S
C1469 H1475 0.959 . S
C1469 H1476 0.961 . S
C1469 H1477 0.960 . S
C1470 C1468 1.381 . S
C1470 C1471 1.394 . S
C1470 H1478 0.930 . S
C1471 C1470 1.394 . S
C1471 C1472 1.383 . S
C1471 H1479 0.929 . S
C1472 C1471 1.383 . S
C1472 C1473 1.377 . S
C1473 H1457 0.930 . S
C1473 C1472 1.377 . S
C1473 C1474 1.379 . S
C1474 H1458 0.931 . S
C1474 C1468 1.383 . S
C1474 C1473 1.379 . S
H1475 C1469 0.959 . S
H1476 C1469 0.961 . S
H1477 C1469 0.960 . S
H1478 C1470 0.930 . S
H1479 C1471 0.929 . S
H1480 C1488 0.929 . S
H1481 C1490 0.930 . S
H1482 C1492 0.930 . S
H1483 C1495 0.929 . S
H1484 C1498 0.930 . S
H1485 C1500 0.960 . S
H1486 C1500 0.960 . S
H1487 C1500 0.960 . S
C1488 H1480 0.929 . S
C1488 C1489 1.377 . S
C1488 C1490 1.384 . S
C1489 C1488 1.377 . S
C1489 C1495 1.390 . S
C1490 H1481 0.930 . S
C1490 C1488 1.384 . S
C1490 C1491 1.372 . S
C1491 C1490 1.372 . S
C1491 C1492 1.400 . S
C1491 C1496 1.490 . S
C1492 H1482 0.930 . S
C1492 C1491 1.400 . S
C1492 C1495 1.386 . S
H1493 C1509 0.930 . S
H1494 C1510 0.931 . S
C1495 H1483 0.929 . S
C1495 C1489 1.390 . S
C1495 C1492 1.386 . S
C1496 C1491 1.490 . S
C1496 C1498 1.395 . S
C1496 C1499 1.403 . S
H1497 C1503 0.930 . S
C1498 H1484 0.930 . S
C1498 C1496 1.395 . S
C1498 C1501 1.403 . S
C1499 C1496 1.403 . S
C1499 C1500 1.524 . S
C1499 C1503 1.400 . S
C1500 H1485 0.960 . S
C1500 H1486 0.960 . S
C1500 H1487 0.960 . S
C1500 C1499 1.524 . S
C1501 C1498 1.403 . S
C1501 C1502 1.392 . S
C1501 C1505 1.495 . S
C1502 C1501 1.392 . S
C1502 C1503 1.385 . S
C1502 C1504 1.478 . S
C1503 H1497 0.930 . S
C1503 C1499 1.400 . S
C1503 C1502 1.385 . S
C1504 C1502 1.478 . S
C1504 C1506 1.381 . S
C1504 C1510 1.383 . S
C1505 C1501 1.495 . S
C1505 H1511 0.959 . S
C1505 H1512 0.961 . S
C1505 H1513 0.960 . S
C1506 C1504 1.381 . S
C1506 C1507 1.394 . S
C1506 H1514 0.930 . S
C1507 C1506 1.394 . S
C1507 C1508 1.383 . S
C1507 H1515 0.929 . S
C1508 C1507 1.383 . S
C1508 C1509 1.377 . S
C1509 H1493 0.930 . S
C1509 C1508 1.377 . S
C1509 C1510 1.379 . S
C1510 H1494 0.931 . S
C1510 C1504 1.383 . S
C1510 C1509 1.379 . S
H1511 C1505 0.959 . S
H1512 C1505 0.961 . S
H1513 C1505 0.960 . S
H1514 C1506 0.930 . S
H1515 C1507 0.929 . S
H1516 C1524 0.929 . S
H1517 C1526 0.930 . S
H1518 C1528 0.930 . S
H1519 C1531 0.929 . S
H1520 C1534 0.930 . S
H1521 C1536 0.960 . S
H1522 C1536 0.960 . S
H1523 C1536 0.960 . S
C1524 H1516 0.929 . S
C1524 C1525 1.377 . S
C1524 C1526 1.384 . S
C1525 C1524 1.377 . S
C1525 C1531 1.390 . S
C1526 H1517 0.930 . S
C1526 C1524 1.384 . S
C1526 C1527 1.372 . S
C1527 C1526 1.372 . S
C1527 C1528 1.400 . S
C1527 C1532 1.490 . S
C1528 H1518 0.930 . S
C1528 C1527 1.400 . S
C1528 C1531 1.386 . S
H1529 C1545 0.930 . S
H1530 C1546 0.931 . S
C1531 H1519 0.929 . S
C1531 C1525 1.390 . S
C1531 C1528 1.386 . S
C1532 C1527 1.490 . S
C1532 C1534 1.395 . S
C1532 C1535 1.403 . S
H1533 C1539 0.930 . S
C1534 H1520 0.930 . S
C1534 C1532 1.395 . S
C1534 C1537 1.403 . S
C1535 C1532 1.403 . S
C1535 C1536 1.524 . S
C1535 C1539 1.400 . S
C1536 H1521 0.960 . S
C1536 H1522 0.960 . S
C1536 H1523 0.960 . S
C1536 C1535 1.524 . S
C1537 C1534 1.403 . S
C1537 C1538 1.392 . S
C1537 C1541 1.495 . S
C1538 C1537 1.392 . S
C1538 C1539 1.385 . S
C1538 C1540 1.478 . S
C1539 H1533 0.930 . S
C1539 C1535 1.400 . S
C1539 C1538 1.385 . S
C1540 C1538 1.478 . S
C1540 C1542 1.381 . S
C1540 C1546 1.383 . S
C1541 C1537 1.495 . S
C1541 H1547 0.959 . S
C1541 H1548 0.961 . S
C1541 H1549 0.960 . S
C1542 C1540 1.381 . S
C1542 C1543 1.394 . S
C1542 H1550 0.930 . S
C1543 C1542 1.394 . S
C1543 C1544 1.383 . S
C1543 H1551 0.929 . S
C1544 C1543 1.383 . S
C1544 C1545 1.377 . S
C1545 H1529 0.930 . S
C1545 C1544 1.377 . S
C1545 C1546 1.379 . S
C1546 H1530 0.931 . S
C1546 C1540 1.383 . S
C1546 C1545 1.379 . S
H1547 C1541 0.959 . S
H1548 C1541 0.961 . S
H1549 C1541 0.960 . S
H1550 C1542 0.930 . S
H1551 C1543 0.929 . S
H1552 C1560 0.929 . S
H1553 C1562 0.930 . S
H1554 C1564 0.930 . S
H1555 C1567 0.929 1_556 S
H1556 C1570 0.930 . S
H1557 C1572 0.960 . S
H1558 C1572 0.960 . S
H1559 C1572 0.960 . S
C1560 H1552 0.929 . S
C1560 C1561 1.377 . S
C1560 C1562 1.384 . S
C1561 C1560 1.377 . S
C1561 C1567 1.390 . S
C1562 H1553 0.930 . S
C1562 C1560 1.384 . S
C1562 C1563 1.372 . S
C1563 C1562 1.372 . S
C1563 C1564 1.400 . S
C1563 C1568 1.490 . S
C1564 H1554 0.930 . S
C1564 C1563 1.400 . S
C1564 C1567 1.386 . S
H1565 C1581 0.930 . S
H1566 C1582 0.931 . S
C1567 H1555 0.929 1_554 S
C1567 C1561 1.390 . S
C1567 C1564 1.386 . S
C1568 C1563 1.490 . S
C1568 C1570 1.395 . S
C1568 C1571 1.403 . S
H1569 C1575 0.930 . S
C1570 H1556 0.930 . S
C1570 C1568 1.395 . S
C1570 C1573 1.403 . S
C1571 C1568 1.403 . S
C1571 C1572 1.524 1_554 S
C1571 C1575 1.400 . S
C1572 H1557 0.960 . S
C1572 H1558 0.960 . S
C1572 H1559 0.960 . S
C1572 C1571 1.524 1_556 S
C1573 C1570 1.403 . S
C1573 C1574 1.392 . S
C1573 C1577 1.495 . S
C1574 C1573 1.392 . S
C1574 C1575 1.385 . S
C1574 C1576 1.478 . S
C1575 H1569 0.930 . S
C1575 C1571 1.400 . S
C1575 C1574 1.385 . S
C1576 C1574 1.478 . S
C1576 C1578 1.381 . S
C1576 C1582 1.383 1_565 S
C1577 C1573 1.495 . S
C1577 H1583 0.959 . S
C1577 H1584 0.961 . S
C1577 H1585 0.960 . S
C1578 C1576 1.381 . S
C1578 C1579 1.394 . S
C1578 H1586 0.930 . S
C1579 C1578 1.394 . S
C1579 C1580 1.383 1_565 S
C1579 H1587 0.929 . S
C1580 C1579 1.383 1_545 S
C1580 C1581 1.377 . S
C1581 H1565 0.930 . S
C1581 C1580 1.377 . S
C1581 C1582 1.379 . S
C1582 H1566 0.931 . S
C1582 C1576 1.383 1_545 S
C1582 C1581 1.379 . S
H1583 C1577 0.959 . S
H1584 C1577 0.961 . S
H1585 C1577 0.960 . S
H1586 C1578 0.930 . S
H1587 C1579 0.929 . S
H1588 C1596 0.929 . S
H1589 C1598 0.930 . S
H1590 C1600 0.930 . S
H1591 C1603 0.929 . S
H1592 C1606 0.930 . S
H1593 C1608 0.960 . S
H1594 C1608 0.960 . S
H1595 C1608 0.960 . S
C1596 H1588 0.929 . S
C1596 C1597 1.377 . S
C1596 C1598 1.384 . S
C1597 C1596 1.377 . S
C1597 C1603 1.390 . S
C1598 H1589 0.930 . S
C1598 C1596 1.384 . S
C1598 C1599 1.372 . S
C1599 C1598 1.372 . S
C1599 C1600 1.400 . S
C1599 C1604 1.490 . S
C1600 H1590 0.930 . S
C1600 C1599 1.400 . S
C1600 C1603 1.386 . S
H1601 C1617 0.930 . S
H1602 C1618 0.931 . S
C1603 H1591 0.929 . S
C1603 C1597 1.390 . S
C1603 C1600 1.386 . S
C1604 C1599 1.490 . S
C1604 C1606 1.395 . S
C1604 C1607 1.403 . S
H1605 C1611 0.930 . S
C1606 H1592 0.930 . S
C1606 C1604 1.395 . S
C1606 C1609 1.403 . S
C1607 C1604 1.403 . S
C1607 C1608 1.524 . S
C1607 C1611 1.400 . S
C1608 H1593 0.960 . S
C1608 H1594 0.960 . S
C1608 H1595 0.960 . S
C1608 C1607 1.524 . S
C1609 C1606 1.403 . S
C1609 C1610 1.392 . S
C1609 C1613 1.495 . S
C1610 C1609 1.392 . S
C1610 C1611 1.385 . S
C1610 C1612 1.478 . S
C1611 H1605 0.930 . S
C1611 C1607 1.400 . S
C1611 C1610 1.385 . S
C1612 C1610 1.478 . S
C1612 C1614 1.381 . S
C1612 C1618 1.383 . S
C1613 C1609 1.495 . S
C1613 H1619 0.959 . S
C1613 H1620 0.961 . S
C1613 H1621 0.960 . S
C1614 C1612 1.381 . S
C1614 C1615 1.394 . S
C1614 H1622 0.930 . S
C1615 C1614 1.394 . S
C1615 C1616 1.383 . S
C1615 H1623 0.929 . S
C1616 C1615 1.383 . S
C1616 C1617 1.377 . S
C1617 H1601 0.930 . S
C1617 C1616 1.377 . S
C1617 C1618 1.379 . S
C1618 H1602 0.931 . S
C1618 C1612 1.383 . S
C1618 C1617 1.379 . S
H1619 C1613 0.959 . S
H1620 C1613 0.961 . S
H1621 C1613 0.960 . S
H1622 C1614 0.930 . S
H1623 C1615 0.929 . S
H1624 C1632 0.929 . S
H1625 C1634 0.930 . S
H1626 C1636 0.930 . S
H1627 C1639 0.929 . S
H1628 C1642 0.930 . S
H1629 C1644 0.960 . S
H1630 C1644 0.960 . S
H1631 C1644 0.960 . S
C1632 H1624 0.929 . S
C1632 C1633 1.377 . S
C1632 C1634 1.384 . S
C1633 C1632 1.377 . S
C1633 C1639 1.390 . S
C1634 H1625 0.930 . S
C1634 C1632 1.384 . S
C1634 C1635 1.372 . S
C1635 C1634 1.372 . S
C1635 C1636 1.400 . S
C1635 C1640 1.490 . S
C1636 H1626 0.930 . S
C1636 C1635 1.400 . S
C1636 C1639 1.386 . S
H1637 C1653 0.930 . S
H1638 C1654 0.931 . S
C1639 H1627 0.929 . S
C1639 C1633 1.390 . S
C1639 C1636 1.386 . S
C1640 C1635 1.490 . S
C1640 C1642 1.395 . S
C1640 C1643 1.403 . S
H1641 C1647 0.930 . S
C1642 H1628 0.930 . S
C1642 C1640 1.395 . S
C1642 C1645 1.403 . S
C1643 C1640 1.403 . S
C1643 C1644 1.524 . S
C1643 C1647 1.400 . S
C1644 H1629 0.960 . S
C1644 H1630 0.960 . S
C1644 H1631 0.960 . S
C1644 C1643 1.524 . S
C1645 C1642 1.403 . S
C1645 C1646 1.392 . S
C1645 C1649 1.495 . S
C1646 C1645 1.392 . S
C1646 C1647 1.385 . S
C1646 C1648 1.478 . S
C1647 H1641 0.930 . S
C1647 C1643 1.400 . S
C1647 C1646 1.385 . S
C1648 C1646 1.478 . S
C1648 C1650 1.381 . S
C1648 C1654 1.383 . S
C1649 C1645 1.495 . S
C1649 H1655 0.959 . S
C1649 H1656 0.961 . S
C1649 H1657 0.960 . S
C1650 C1648 1.381 . S
C1650 C1651 1.394 . S
C1650 H1658 0.930 . S
C1651 C1650 1.394 . S
C1651 C1652 1.383 . S
C1651 H1659 0.929 . S
C1652 C1651 1.383 . S
C1652 C1653 1.377 . S
C1653 H1637 0.930 . S
C1653 C1652 1.377 . S
C1653 C1654 1.379 . S
C1654 H1638 0.931 . S
C1654 C1648 1.383 . S
C1654 C1653 1.379 . S
H1655 C1649 0.959 . S
H1656 C1649 0.961 . S
H1657 C1649 0.960 . S
H1658 C1650 0.930 . S
H1659 C1651 0.929 . S
H1660 C1668 0.929 . S
H1661 C1670 0.930 . S
H1662 C1672 0.930 . S
H1663 C1675 0.929 . S
H1664 C1678 0.930 . S
H1665 C1680 0.960 . S
H1666 C1680 0.960 . S
H1667 C1680 0.960 . S
C1668 H1660 0.929 . S
C1668 C1669 1.377 . S
C1668 C1670 1.384 . S
C1669 C1668 1.377 . S
C1669 C1675 1.390 . S
C1670 H1661 0.930 . S
C1670 C1668 1.384 . S
C1670 C1671 1.372 . S
C1671 C1670 1.372 . S
C1671 C1672 1.400 . S
C1671 C1676 1.490 . S
C1672 H1662 0.930 . S
C1672 C1671 1.400 . S
C1672 C1675 1.386 . S
H1673 C1689 0.930 . S
H1674 C1690 0.931 . S
C1675 H1663 0.929 . S
C1675 C1669 1.390 . S
C1675 C1672 1.386 . S
C1676 C1671 1.490 . S
C1676 C1678 1.395 . S
C1676 C1679 1.403 . S
H1677 C1683 0.930 . S
C1678 H1664 0.930 . S
C1678 C1676 1.395 . S
C1678 C1681 1.403 . S
C1679 C1676 1.403 . S
C1679 C1680 1.524 . S
C1679 C1683 1.400 . S
C1680 H1665 0.960 . S
C1680 H1666 0.960 . S
C1680 H1667 0.960 . S
C1680 C1679 1.524 . S
C1681 C1678 1.403 . S
C1681 C1682 1.392 . S
C1681 C1685 1.495 . S
C1682 C1681 1.392 . S
C1682 C1683 1.385 . S
C1682 C1684 1.478 . S
C1683 H1677 0.930 . S
C1683 C1679 1.400 . S
C1683 C1682 1.385 . S
C1684 C1682 1.478 . S
C1684 C1686 1.381 . S
C1684 C1690 1.383 . S
C1685 C1681 1.495 . S
C1685 H1691 0.959 . S
C1685 H1692 0.961 . S
C1685 H1693 0.960 . S
C1686 C1684 1.381 . S
C1686 C1687 1.394 . S
C1686 H1694 0.930 . S
C1687 C1686 1.394 . S
C1687 C1688 1.383 . S
C1687 H1695 0.929 . S
C1688 C1687 1.383 . S
C1688 C1689 1.377 . S
C1689 H1673 0.930 . S
C1689 C1688 1.377 . S
C1689 C1690 1.379 . S
C1690 H1674 0.931 . S
C1690 C1684 1.383 . S
C1690 C1689 1.379 . S
H1691 C1685 0.959 . S
H1692 C1685 0.961 . S
H1693 C1685 0.960 . S
H1694 C1686 0.930 . S
H1695 C1687 0.929 . S
H1696 C1704 0.929 . S
H1697 C1706 0.930 . S
H1698 C1708 0.930 . S
H1699 C1711 0.929 . S
H1700 C1714 0.930 . S
H1701 C1716 0.960 . S
H1702 C1716 0.960 . S
H1703 C1716 0.960 . S
C1704 H1696 0.929 . S
C1704 C1705 1.377 . S
C1704 C1706 1.384 . S
C1705 C1704 1.377 . S
C1705 C1711 1.390 . S
C1706 H1697 0.930 . S
C1706 C1704 1.384 . S
C1706 C1707 1.372 . S
C1707 C1706 1.372 . S
C1707 C1708 1.400 . S
C1707 C1712 1.490 . S
C1708 H1698 0.930 . S
C1708 C1707 1.400 . S
C1708 C1711 1.386 . S
H1709 C1725 0.930 . S
H1710 C1726 0.931 . S
C1711 H1699 0.929 . S
C1711 C1705 1.390 . S
C1711 C1708 1.386 . S
C1712 C1707 1.490 . S
C1712 C1714 1.395 . S
C1712 C1715 1.403 . S
H1713 C1719 0.930 . S
C1714 H1700 0.930 . S
C1714 C1712 1.395 . S
C1714 C1717 1.403 . S
C1715 C1712 1.403 . S
C1715 C1716 1.524 . S
C1715 C1719 1.400 . S
C1716 H1701 0.960 . S
C1716 H1702 0.960 . S
C1716 H1703 0.960 . S
C1716 C1715 1.524 . S
C1717 C1714 1.403 . S
C1717 C1718 1.392 . S
C1717 C1721 1.495 . S
C1718 C1717 1.392 . S
C1718 C1719 1.385 . S
C1718 C1720 1.478 . S
C1719 H1713 0.930 . S
C1719 C1715 1.400 . S
C1719 C1718 1.385 . S
C1720 C1718 1.478 . S
C1720 C1722 1.381 . S
C1720 C1726 1.383 . S
C1721 C1717 1.495 . S
C1721 H1727 0.959 . S
C1721 H1728 0.961 . S
C1721 H1729 0.960 . S
C1722 C1720 1.381 . S
C1722 C1723 1.394 . S
C1722 H1730 0.930 . S
C1723 C1722 1.394 . S
C1723 C1724 1.383 . S
C1723 H1731 0.929 . S
C1724 C1723 1.383 . S
C1724 C1725 1.377 . S
C1725 H1709 0.930 . S
C1725 C1724 1.377 . S
C1725 C1726 1.379 . S
C1726 H1710 0.931 . S
C1726 C1720 1.383 . S
C1726 C1725 1.379 . S
H1727 C1721 0.959 . S
H1728 C1721 0.961 . S
H1729 C1721 0.960 . S
H1730 C1722 0.930 . S
H1731 C1723 0.929 . S
H1732 C1740 0.929 . S
H1733 C1742 0.930 . S
H1734 C1744 0.930 . S
H1735 C1747 0.929 . S
H1736 C1750 0.930 . S
H1737 C1752 0.960 . S
H1738 C1752 0.960 . S
H1739 C1752 0.960 . S
C1740 H1732 0.929 . S
C1740 C1741 1.377 . S
C1740 C1742 1.384 . S
C1741 C1740 1.377 . S
C1741 C1747 1.390 . S
C1742 H1733 0.930 . S
C1742 C1740 1.384 . S
C1742 C1743 1.372 . S
C1743 C1742 1.372 . S
C1743 C1744 1.400 . S
C1743 C1748 1.490 . S
C1744 H1734 0.930 . S
C1744 C1743 1.400 . S
C1744 C1747 1.386 . S
H1745 C1761 0.930 . S
H1746 C1762 0.931 . S
C1747 H1735 0.929 . S
C1747 C1741 1.390 . S
C1747 C1744 1.386 . S
C1748 C1743 1.490 . S
C1748 C1750 1.395 . S
C1748 C1751 1.403 . S
H1749 C1755 0.930 . S
C1750 H1736 0.930 . S
C1750 C1748 1.395 . S
C1750 C1753 1.403 . S
C1751 C1748 1.403 . S
C1751 C1752 1.524 . S
C1751 C1755 1.400 . S
C1752 H1737 0.960 . S
C1752 H1738 0.960 . S
C1752 H1739 0.960 . S
C1752 C1751 1.524 . S
C1753 C1750 1.403 . S
C1753 C1754 1.392 . S
C1753 C1757 1.495 . S
C1754 C1753 1.392 . S
C1754 C1755 1.385 . S
C1754 C1756 1.478 . S
C1755 H1749 0.930 . S
C1755 C1751 1.400 . S
C1755 C1754 1.385 . S
C1756 C1754 1.478 . S
C1756 C1758 1.381 . S
C1756 C1762 1.383 . S
C1757 C1753 1.495 . S
C1757 H1763 0.959 . S
C1757 H1764 0.961 . S
C1757 H1765 0.960 . S
C1758 C1756 1.381 . S
C1758 C1759 1.394 . S
C1758 H1766 0.930 . S
C1759 C1758 1.394 . S
C1759 C1760 1.383 . S
C1759 H1767 0.929 . S
C1760 C1759 1.383 . S
C1760 C1761 1.377 . S
C1761 H1745 0.930 . S
C1761 C1760 1.377 . S
C1761 C1762 1.379 . S
C1762 H1746 0.931 . S
C1762 C1756 1.383 . S
C1762 C1761 1.379 . S
H1763 C1757 0.959 . S
H1764 C1757 0.961 . S
H1765 C1757 0.960 . S
H1766 C1758 0.930 . S
H1767 C1759 0.929 . S
H1768 C1776 0.929 . S
H1769 C1778 0.930 . S
H1770 C1780 0.930 . S
H1771 C1783 0.929 . S
H1772 C1786 0.930 . S
H1773 C1788 0.960 . S
H1774 C1788 0.960 . S
H1775 C1788 0.960 . S
C1776 H1768 0.929 . S
C1776 C1777 1.377 . S
C1776 C1778 1.384 . S
C1777 C1776 1.377 . S
C1777 C1783 1.390 . S
C1778 H1769 0.930 . S
C1778 C1776 1.384 . S
C1778 C1779 1.372 . S
C1779 C1778 1.372 . S
C1779 C1780 1.400 . S
C1779 C1784 1.490 . S
C1780 H1770 0.930 . S
C1780 C1779 1.400 . S
C1780 C1783 1.386 . S
H1781 C1797 0.930 . S
H1782 C1798 0.931 . S
C1783 H1771 0.929 . S
C1783 C1777 1.390 . S
C1783 C1780 1.386 . S
C1784 C1779 1.490 . S
C1784 C1786 1.395 . S
C1784 C1787 1.403 . S
H1785 C1791 0.930 . S
C1786 H1772 0.930 . S
C1786 C1784 1.395 . S
C1786 C1789 1.403 . S
C1787 C1784 1.403 . S
C1787 C1788 1.524 . S
C1787 C1791 1.400 . S
C1788 H1773 0.960 . S
C1788 H1774 0.960 . S
C1788 H1775 0.960 . S
C1788 C1787 1.524 . S
C1789 C1786 1.403 . S
C1789 C1790 1.392 . S
C1789 C1793 1.495 . S
C1790 C1789 1.392 . S
C1790 C1791 1.385 . S
C1790 C1792 1.478 . S
C1791 H1785 0.930 . S
C1791 C1787 1.400 . S
C1791 C1790 1.385 . S
C1792 C1790 1.478 . S
C1792 C1794 1.381 . S
C1792 C1798 1.383 . S
C1793 C1789 1.495 . S
C1793 H1799 0.959 . S
C1793 H1800 0.961 . S
C1793 H1801 0.960 . S
C1794 C1792 1.381 . S
C1794 C1795 1.394 . S
C1794 H1802 0.930 . S
C1795 C1794 1.394 . S
C1795 C1796 1.383 . S
C1795 H1803 0.929 . S
C1796 C1795 1.383 . S
C1796 C1797 1.377 . S
C1797 H1781 0.930 . S
C1797 C1796 1.377 . S
C1797 C1798 1.379 . S
C1798 H1782 0.931 . S
C1798 C1792 1.383 . S
C1798 C1797 1.379 . S
H1799 C1793 0.959 . S
H1800 C1793 0.961 . S
H1801 C1793 0.960 . S
H1802 C1794 0.930 . S
H1803 C1795 0.929 . S
H1804 C1812 0.929 . S
H1805 C1814 0.930 . S
H1806 C1816 0.930 . S
H1807 C1819 0.929 . S
H1808 C1822 0.930 . S
H1809 C1824 0.960 . S
H1810 C1824 0.960 . S
H1811 C1824 0.960 . S
C1812 H1804 0.929 . S
C1812 C1813 1.377 . S
C1812 C1814 1.384 . S
C1813 C1812 1.377 . S
C1813 C1819 1.390 . S
C1814 H1805 0.930 . S
C1814 C1812 1.384 . S
C1814 C1815 1.372 . S
C1815 C1814 1.372 . S
C1815 C1816 1.400 . S
C1815 C1820 1.490 . S
C1816 H1806 0.930 . S
C1816 C1815 1.400 . S
C1816 C1819 1.386 . S
H1817 C1833 0.930 . S
H1818 C1834 0.931 . S
C1819 H1807 0.929 . S
C1819 C1813 1.390 . S
C1819 C1816 1.386 . S
C1820 C1815 1.490 . S
C1820 C1822 1.395 . S
C1820 C1823 1.403 . S
H1821 C1827 0.930 . S
C1822 H1808 0.930 . S
C1822 C1820 1.395 . S
C1822 C1825 1.403 . S
C1823 C1820 1.403 . S
C1823 C1824 1.524 . S
C1823 C1827 1.400 . S
C1824 H1809 0.960 . S
C1824 H1810 0.960 . S
C1824 H1811 0.960 . S
C1824 C1823 1.524 . S
C1825 C1822 1.403 . S
C1825 C1826 1.392 . S
C1825 C1829 1.495 . S
C1826 C1825 1.392 . S
C1826 C1827 1.385 . S
C1826 C1828 1.478 . S
C1827 H1821 0.930 . S
C1827 C1823 1.400 . S
C1827 C1826 1.385 . S
C1828 C1826 1.478 . S
C1828 C1830 1.381 . S
C1828 C1834 1.383 . S
C1829 C1825 1.495 . S
C1829 H1835 0.959 . S
C1829 H1836 0.961 . S
C1829 H1837 0.960 . S
C1830 C1828 1.381 . S
C1830 C1831 1.394 . S
C1830 H1838 0.930 . S
C1831 C1830 1.394 . S
C1831 C1832 1.383 . S
C1831 H1839 0.929 . S
C1832 C1831 1.383 . S
C1832 C1833 1.377 . S
C1833 H1817 0.930 . S
C1833 C1832 1.377 . S
C1833 C1834 1.379 . S
C1834 H1818 0.931 . S
C1834 C1828 1.383 . S
C1834 C1833 1.379 . S
H1835 C1829 0.959 . S
H1836 C1829 0.961 . S
H1837 C1829 0.960 . S
H1838 C1830 0.930 . S
H1839 C1831 0.929 . S
H1840 C1848 0.929 . S
H1841 C1850 0.930 . S
H1842 C1852 0.930 . S
H1843 C1855 0.929 . S
H1844 C1858 0.930 . S
H1845 C1860 0.960 . S
H1846 C1860 0.960 . S
H1847 C1860 0.960 . S
C1848 H1840 0.929 . S
C1848 C1849 1.377 . S
C1848 C1850 1.384 . S
C1849 C1848 1.377 . S
C1849 C1855 1.390 . S
C1850 H1841 0.930 . S
C1850 C1848 1.384 . S
C1850 C1851 1.372 . S
C1851 C1850 1.372 . S
C1851 C1852 1.400 . S
C1851 C1856 1.490 . S
C1852 H1842 0.930 . S
C1852 C1851 1.400 . S
C1852 C1855 1.386 . S
H1853 C1869 0.930 . S
H1854 C1870 0.931 . S
C1855 H1843 0.929 . S
C1855 C1849 1.390 . S
C1855 C1852 1.386 . S
C1856 C1851 1.490 . S
C1856 C1858 1.395 . S
C1856 C1859 1.403 . S
H1857 C1863 0.930 . S
C1858 H1844 0.930 . S
C1858 C1856 1.395 . S
C1858 C1861 1.403 . S
C1859 C1856 1.403 . S
C1859 C1860 1.524 . S
C1859 C1863 1.400 . S
C1860 H1845 0.960 . S
C1860 H1846 0.960 . S
C1860 H1847 0.960 . S
C1860 C1859 1.524 . S
C1861 C1858 1.403 . S
C1861 C1862 1.392 . S
C1861 C1865 1.495 . S
C1862 C1861 1.392 . S
C1862 C1863 1.385 . S
C1862 C1864 1.478 . S
C1863 H1857 0.930 . S
C1863 C1859 1.400 . S
C1863 C1862 1.385 . S
C1864 C1862 1.478 . S
C1864 C1866 1.381 . S
C1864 C1870 1.383 . S
C1865 C1861 1.495 . S
C1865 H1871 0.973 . S
C1865 H1872 0.961 . S
C1865 H1873 0.960 1_455 S
C1866 C1864 1.381 . S
C1866 C1867 1.394 . S
C1866 H1874 0.930 . S
C1867 C1866 1.394 . S
C1867 C1868 1.383 . S
C1867 H1875 0.929 . S
C1868 C1867 1.383 . S
C1868 C1869 1.377 . S
C1869 H1853 0.930 . S
C1869 C1868 1.377 . S
C1869 C1870 1.379 . S
C1870 H1854 0.931 . S
C1870 C1864 1.383 . S
C1870 C1869 1.379 . S
H1871 C1865 0.973 . S
H1872 C1865 0.961 . S
H1873 C1865 0.960 1_655 S
H1874 C1866 0.930 . S
H1875 C1867 0.929 . S
H1876 C1884 0.929 . S
H1877 C1886 0.930 . S
H1878 C1888 0.930 . S
H1879 C1891 0.929 . S
H1880 C1894 0.930 . S
H1881 C1896 0.960 . S
H1882 C1896 0.960 . S
H1883 C1896 0.960 . S
C1884 H1876 0.929 . S
C1884 C1885 1.377 . S
C1884 C1886 1.384 . S
C1885 C1884 1.377 . S
C1885 C1891 1.390 . S
C1886 H1877 0.930 . S
C1886 C1884 1.384 . S
C1886 C1887 1.372 . S
C1887 C1886 1.372 . S
C1887 C1888 1.400 . S
C1887 C1892 1.490 . S
C1888 H1878 0.930 . S
C1888 C1887 1.400 . S
C1888 C1891 1.386 . S
H1889 C1905 0.930 . S
H1890 C1906 0.931 . S
C1891 H1879 0.929 . S
C1891 C1885 1.390 . S
C1891 C1888 1.386 . S
C1892 C1887 1.490 . S
C1892 C1894 1.395 . S
C1892 C1895 1.403 . S
H1893 C1899 0.930 . S
C1894 H1880 0.930 . S
C1894 C1892 1.395 . S
C1894 C1897 1.403 . S
C1895 C1892 1.403 . S
C1895 C1896 1.524 . S
C1895 C1899 1.400 . S
C1896 H1881 0.960 . S
C1896 H1882 0.960 . S
C1896 H1883 0.960 . S
C1896 C1895 1.524 . S
C1897 C1894 1.403 . S
C1897 C1898 1.392 . S
C1897 C1901 1.495 . S
C1898 C1897 1.392 . S
C1898 C1899 1.385 . S
C1898 C1900 1.478 . S
C1899 H1893 0.930 . S
C1899 C1895 1.400 . S
C1899 C1898 1.385 . S
C1900 C1898 1.478 . S
C1900 C1902 1.381 . S
C1900 C1906 1.383 . S
C1901 C1897 1.495 . S
C1901 H1907 0.959 . S
C1901 H1908 0.961 . S
C1901 H1909 0.960 . S
C1902 C1900 1.381 . S
C1902 C1903 1.394 . S
C1902 H1910 0.930 . S
C1903 C1902 1.394 . S
C1903 C1904 1.383 . S
C1903 H1911 0.929 . S
C1904 C1903 1.383 . S
C1904 C1905 1.377 . S
C1905 H1889 0.930 . S
C1905 C1904 1.377 . S
C1905 C1906 1.379 . S
C1906 H1890 0.931 . S
C1906 C1900 1.383 . S
C1906 C1905 1.379 . S
H1907 C1901 0.959 . S
H1908 C1901 0.961 . S
H1909 C1901 0.960 . S
H1910 C1902 0.930 . S
H1911 C1903 0.929 . S
H1912 C1920 0.929 . S
H1913 C1922 0.930 . S
H1914 C1924 0.930 . S
H1915 C1927 0.929 . S
H1916 C1930 0.930 . S
H1917 C1932 0.960 . S
H1918 C1932 0.960 . S
H1919 C1932 0.960 . S
C1920 H1912 0.929 . S
C1920 C1921 1.377 . S
C1920 C1922 1.384 . S
C1921 C1920 1.377 . S
C1921 C1927 1.390 . S
C1922 H1913 0.930 . S
C1922 C1920 1.384 . S
C1922 C1923 1.372 . S
C1923 C1922 1.372 . S
C1923 C1924 1.400 . S
C1923 C1928 1.490 . S
C1924 H1914 0.930 . S
C1924 C1923 1.400 . S
C1924 C1927 1.386 . S
H1925 C1941 0.930 . S
H1926 C1942 0.931 . S
C1927 H1915 0.929 . S
C1927 C1921 1.390 . S
C1927 C1924 1.386 . S
C1928 C1923 1.490 . S
C1928 C1930 1.395 . S
C1928 C1931 1.403 . S
H1929 C1935 0.930 . S
C1930 H1916 0.930 . S
C1930 C1928 1.395 . S
C1930 C1933 1.403 . S
C1931 C1928 1.403 . S
C1931 C1932 1.524 . S
C1931 C1935 1.400 . S
C1932 H1917 0.960 . S
C1932 H1918 0.960 . S
C1932 H1919 0.960 . S
C1932 C1931 1.524 . S
C1933 C1930 1.403 . S
C1933 C1934 1.392 . S
C1933 C1937 1.495 . S
C1934 C1933 1.392 . S
C1934 C1935 1.385 . S
C1934 C1936 1.478 . S
C1935 H1929 0.930 . S
C1935 C1931 1.400 . S
C1935 C1934 1.385 . S
C1936 C1934 1.478 . S
C1936 C1938 1.381 . S
C1936 C1942 1.383 . S
C1937 C1933 1.495 . S
C1937 H1943 0.959 . S
C1937 H1944 0.961 . S
C1937 H1945 0.960 . S
C1938 C1936 1.381 . S
C1938 C1939 1.394 . S
C1938 H1946 0.930 . S
C1939 C1938 1.394 . S
C1939 C1940 1.383 . S
C1939 H1947 0.929 . S
C1940 C1939 1.383 . S
C1940 C1941 1.377 . S
C1941 H1925 0.930 . S
C1941 C1940 1.377 . S
C1941 C1942 1.379 . S
C1942 H1926 0.931 . S
C1942 C1936 1.383 . S
C1942 C1941 1.379 . S
H1943 C1937 0.959 . S
H1944 C1937 0.961 . S
H1945 C1937 0.960 . S
H1946 C1938 0.930 . S
H1947 C1939 0.929 . S
H1948 C1956 0.929 . S
H1949 C1958 0.930 . S
H1950 C1960 0.930 . S
H1951 C1963 0.929 . S
H1952 C1966 0.930 . S
H1953 C1968 0.960 . S
H1954 C1968 0.960 . S
H1955 C1968 0.960 . S
C1956 H1948 0.929 . S
C1956 C1957 1.377 . S
C1956 C1958 1.384 . S
C1957 C1956 1.377 . S
C1957 C1963 1.390 . S
C1958 H1949 0.930 . S
C1958 C1956 1.384 . S
C1958 C1959 1.372 . S
C1959 C1958 1.372 . S
C1959 C1960 1.400 . S
C1959 C1964 1.490 . S
C1960 H1950 0.930 . S
C1960 C1959 1.400 . S
C1960 C1963 1.386 . S
H1961 C1977 0.930 . S
H1962 C1978 0.931 . S
C1963 H1951 0.929 . S
C1963 C1957 1.390 . S
C1963 C1960 1.386 . S
C1964 C1959 1.490 . S
C1964 C1966 1.395 . S
C1964 C1967 1.403 . S
H1965 C1971 0.930 . S
C1966 H1952 0.930 . S
C1966 C1964 1.395 . S
C1966 C1969 1.403 . S
C1967 C1964 1.403 . S
C1967 C1968 1.524 . S
C1967 C1971 1.400 . S
C1968 H1953 0.960 . S
C1968 H1954 0.960 . S
C1968 H1955 0.960 . S
C1968 C1967 1.524 . S
C1969 C1966 1.403 . S
C1969 C1970 1.392 . S
C1969 C1973 1.495 . S
C1970 C1969 1.392 . S
C1970 C1971 1.385 . S
C1970 C1972 1.478 . S
C1971 H1965 0.930 . S
C1971 C1967 1.400 . S
C1971 C1970 1.385 . S
C1972 C1970 1.478 . S
C1972 C1974 1.381 . S
C1972 C1978 1.383 . S
C1973 C1969 1.495 . S
C1973 H1979 0.959 . S
C1973 H1980 0.961 . S
C1973 H1981 0.960 . S
C1974 C1972 1.381 . S
C1974 C1975 1.394 . S
C1974 H1982 0.930 . S
C1975 C1974 1.394 . S
C1975 C1976 1.383 . S
C1975 H1983 0.929 . S
C1976 C1975 1.383 . S
C1976 C1977 1.377 . S
C1977 H1961 0.930 . S
C1977 C1976 1.377 . S
C1977 C1978 1.379 . S
C1978 H1962 0.931 . S
C1978 C1972 1.383 . S
C1978 C1977 1.379 . S
H1979 C1973 0.959 . S
H1980 C1973 0.961 . S
H1981 C1973 0.960 . S
H1982 C1974 0.930 . S
H1983 C1975 0.929 . S
H1984 C1992 0.929 1_655 S
H1985 C1994 0.930 1_655 S
H1986 C1996 0.930 . S
H1987 C1999 0.929 . S
H1988 C2002 0.930 1_655 S
H1989 C2004 0.960 . S
H1990 C2004 0.960 . S
H1991 C2004 0.960 . S
C1992 H1984 0.929 1_455 S
C1992 C1993 1.377 . S
C1992 C1994 1.384 . S
C1993 C1992 1.377 . S
C1993 C1999 1.390 . S
C1994 H1985 0.930 1_455 S
C1994 C1992 1.384 . S
C1994 C1995 1.372 . S
C1995 C1994 1.372 . S
C1995 C1996 1.400 . S
C1995 C2000 1.490 . S
C1996 H1986 0.930 . S
C1996 C1995 1.400 . S
C1996 C1999 1.386 . S
H1997 C2013 0.930 . S
H1998 C2014 0.931 . S
C1999 H1987 0.929 . S
C1999 C1993 1.390 . S
C1999 C1996 1.386 . S
C2000 C1995 1.490 . S
C2000 C2002 1.395 . S
C2000 C2003 1.403 . S
H2001 C2007 0.930 . S
C2002 H1988 0.930 1_455 S
C2002 C2000 1.395 . S
C2002 C2005 1.403 . S
C2003 C2000 1.403 . S
C2003 C2004 1.524 . S
C2003 C2007 1.400 . S
C2004 H1989 0.960 . S
C2004 H1990 0.960 . S
C2004 H1991 0.960 . S
C2004 C2003 1.524 . S
C2005 C2002 1.403 . S
C2005 C2006 1.392 . S
C2005 C2009 1.495 1_455 S
C2006 C2005 1.392 . S
C2006 C2007 1.385 . S
C2006 C2008 1.478 . S
C2007 H2001 0.930 . S
C2007 C2003 1.400 . S
C2007 C2006 1.385 . S
C2008 C2006 1.478 . S
C2008 C2010 1.381 1_455 S
C2008 C2014 1.383 . S
C2009 C2005 1.495 1_655 S
C2009 H2015 0.959 . S
C2009 H2016 0.961 . S
C2009 H2017 0.960 . S
C2010 C2008 1.381 1_655 S
C2010 C2011 1.394 . S
C2010 H2018 0.930 . S
C2011 C2010 1.394 . S
C2011 C2012 1.383 1_655 S
C2011 H2019 0.929 . S
C2012 C2011 1.383 1_455 S
C2012 C2013 1.377 . S
C2013 H1997 0.930 . S
C2013 C2012 1.377 . S
C2013 C2014 1.379 . S
C2014 H1998 0.931 . S
C2014 C2008 1.383 . S
C2014 C2013 1.379 . S
H2015 C2009 0.959 . S
H2016 C2009 0.961 . S
H2017 C2009 0.960 . S
H2018 C2010 0.930 . S
H2019 C2011 0.929 . S
H2020 C2028 0.929 . S
H2021 C2030 0.930 . S
H2022 C2032 0.930 . S
H2023 C2035 0.929 . S
H2024 C2038 0.930 . S
H2025 C2040 0.960 . S
H2026 C2040 0.960 . S
H2027 C2040 0.960 . S
C2028 H2020 0.929 . S
C2028 C2029 1.377 . S
C2028 C2030 1.384 . S
C2029 C2028 1.377 . S
C2029 C2035 1.390 . S
C2030 H2021 0.930 . S
C2030 C2028 1.384 . S
C2030 C2031 1.372 . S
C2031 C2030 1.372 . S
C2031 C2032 1.400 . S
C2031 C2036 1.490 . S
C2032 H2022 0.930 . S
C2032 C2031 1.400 . S
C2032 C2035 1.386 . S
H2033 C2049 0.930 . S
H2034 C2050 0.931 . S
C2035 H2023 0.929 . S
C2035 C2029 1.390 . S
C2035 C2032 1.386 . S
C2036 C2031 1.490 . S
C2036 C2038 1.395 . S
C2036 C2039 1.403 . S
H2037 C2043 0.930 . S
C2038 H2024 0.930 . S
C2038 C2036 1.395 . S
C2038 C2041 1.403 . S
C2039 C2036 1.403 . S
C2039 C2040 1.524 . S
C2039 C2043 1.400 . S
C2040 H2025 0.960 . S
C2040 H2026 0.960 . S
C2040 H2027 0.960 . S
C2040 C2039 1.524 . S
C2041 C2038 1.403 . S
C2041 C2042 1.392 . S
C2041 C2045 1.495 . S
C2042 C2041 1.392 . S
C2042 C2043 1.385 . S
C2042 C2044 1.478 . S
C2043 H2037 0.930 . S
C2043 C2039 1.400 . S
C2043 C2042 1.385 . S
C2044 C2042 1.478 . S
C2044 C2046 1.381 . S
C2044 C2050 1.383 . S
C2045 C2041 1.495 . S
C2045 H2051 0.959 . S
C2045 H2052 0.961 . S
C2045 H2053 0.960 . S
C2046 C2044 1.381 . S
C2046 C2047 1.394 . S
C2046 H2054 0.930 . S
C2047 C2046 1.394 . S
C2047 C2048 1.383 . S
C2047 H2055 0.929 . S
C2048 C2047 1.383 . S
C2048 C2049 1.377 . S
C2049 H2033 0.930 . S
C2049 C2048 1.377 . S
C2049 C2050 1.379 . S
C2050 H2034 0.931 . S
C2050 C2044 1.383 . S
C2050 C2049 1.379 . S
H2051 C2045 0.959 . S
H2052 C2045 0.961 . S
H2053 C2045 0.960 . S
H2054 C2046 0.930 . S
H2055 C2047 0.929 . S
H2056 C2064 0.929 . S
H2057 C2066 0.930 . S
H2058 C2068 0.930 . S
H2059 C2071 0.929 . S
H2060 C2074 0.930 . S
H2061 C2076 0.960 . S
H2062 C2076 0.960 . S
H2063 C2076 0.960 . S
C2064 H2056 0.929 . S
C2064 C2065 1.377 . S
C2064 C2066 1.384 . S
C2065 C2064 1.377 . S
C2065 C2071 1.390 . S
C2066 H2057 0.930 . S
C2066 C2064 1.384 . S
C2066 C2067 1.372 . S
C2067 C2066 1.372 . S
C2067 C2068 1.400 . S
C2067 C2072 1.490 . S
C2068 H2058 0.930 . S
C2068 C2067 1.400 . S
C2068 C2071 1.386 . S
H2069 C2085 0.930 . S
H2070 C2086 0.931 . S
C2071 H2059 0.929 . S
C2071 C2065 1.390 . S
C2071 C2068 1.386 . S
C2072 C2067 1.490 . S
C2072 C2074 1.395 . S
C2072 C2075 1.403 . S
H2073 C2079 0.930 . S
C2074 H2060 0.930 . S
C2074 C2072 1.395 . S
C2074 C2077 1.403 . S
C2075 C2072 1.403 . S
C2075 C2076 1.524 . S
C2075 C2079 1.400 . S
C2076 H2061 0.960 . S
C2076 H2062 0.960 . S
C2076 H2063 0.960 . S
C2076 C2075 1.524 . S
C2077 C2074 1.403 . S
C2077 C2078 1.392 . S
C2077 C2081 1.495 . S
C2078 C2077 1.392 . S
C2078 C2079 1.385 . S
C2078 C2080 1.478 . S
C2079 H2073 0.930 . S
C2079 C2075 1.400 . S
C2079 C2078 1.385 . S
C2080 C2078 1.478 . S
C2080 C2082 1.381 . S
C2080 C2086 1.383 . S
C2081 C2077 1.495 . S
C2081 H2087 0.959 . S
C2081 H2088 0.961 . S
C2081 H2089 0.960 . S
C2082 C2080 1.381 . S
C2082 C2083 1.394 . S
C2082 H2090 0.930 . S
C2083 C2082 1.394 . S
C2083 C2084 1.383 1_556 S
C2083 H2091 0.929 1_556 S
C2084 C2083 1.383 1_554 S
C2084 C2085 1.377 . S
C2085 H2069 0.930 . S
C2085 C2084 1.377 . S
C2085 C2086 1.379 1_554 S
C2086 H2070 0.931 . S
C2086 C2080 1.383 . S
C2086 C2085 1.379 1_556 S
H2087 C2081 0.959 . S
H2088 C2081 0.961 . S
H2089 C2081 0.960 . S
H2090 C2082 0.930 . S
H2091 C2083 0.929 1_554 S
H2092 C2100 0.929 . S
H2093 C2102 0.930 . S
H2094 C2104 0.930 . S
H2095 C2107 0.929 . S
H2096 C2110 0.930 . S
H2097 C2112 0.960 . S
H2098 C2112 0.960 . S
H2099 C2112 0.960 . S
C2100 H2092 0.929 . S
C2100 C2101 1.377 . S
C2100 C2102 1.384 . S
C2101 C2100 1.377 . S
C2101 C2107 1.390 . S
C2102 H2093 0.930 . S
C2102 C2100 1.384 . S
C2102 C2103 1.372 . S
C2103 C2102 1.372 . S
C2103 C2104 1.400 . S
C2103 C2108 1.490 . S
C2104 H2094 0.930 . S
C2104 C2103 1.400 . S
C2104 C2107 1.386 . S
H2105 C2121 0.930 . S
H2106 C2122 0.931 . S
C2107 H2095 0.929 . S
C2107 C2101 1.390 . S
C2107 C2104 1.386 . S
C2108 C2103 1.490 . S
C2108 C2110 1.395 . S
C2108 C2111 1.403 . S
H2109 C2115 0.930 . S
C2110 H2096 0.930 . S
C2110 C2108 1.395 . S
C2110 C2113 1.403 . S
C2111 C2108 1.403 . S
C2111 C2112 1.524 . S
C2111 C2115 1.400 . S
C2112 H2097 0.960 . S
C2112 H2098 0.960 . S
C2112 H2099 0.960 . S
C2112 C2111 1.524 . S
C2113 C2110 1.403 . S
C2113 C2114 1.392 . S
C2113 C2117 1.495 . S
C2114 C2113 1.392 . S
C2114 C2115 1.385 . S
C2114 C2116 1.478 . S
C2115 H2109 0.930 . S
C2115 C2111 1.400 . S
C2115 C2114 1.385 . S
C2116 C2114 1.478 . S
C2116 C2118 1.381 . S
C2116 C2122 1.383 . S
C2117 C2113 1.495 . S
C2117 H2123 0.959 . S
C2117 H2124 0.961 . S
C2117 H2125 0.960 . S
C2118 C2116 1.381 . S
C2118 C2119 1.394 . S
C2118 H2126 0.930 . S
C2119 C2118 1.394 . S
C2119 C2120 1.383 . S
C2119 H2127 0.929 . S
C2120 C2119 1.383 . S
C2120 C2121 1.377 . S
C2121 H2105 0.930 . S
C2121 C2120 1.377 . S
C2121 C2122 1.379 . S
C2122 H2106 0.931 . S
C2122 C2116 1.383 . S
C2122 C2121 1.379 . S
H2123 C2117 0.959 . S
H2124 C2117 0.961 . S
H2125 C2117 0.960 . S
H2126 C2118 0.930 . S
H2127 C2119 0.929 . S
H2128 C2136 0.929 . S
H2129 C2138 0.930 . S
H2130 C2140 0.930 . S
H2131 C2143 0.929 . S
H2132 C2146 0.930 . S
H2133 C2148 0.960 . S
H2134 C2148 0.960 . S
H2135 C2148 0.960 . S
C2136 H2128 0.929 . S
C2136 C2137 1.377 . S
C2136 C2138 1.384 . S
C2137 C2136 1.377 . S
C2137 C2143 1.390 . S
C2138 H2129 0.930 . S
C2138 C2136 1.384 . S
C2138 C2139 1.372 . S
C2139 C2138 1.372 . S
C2139 C2140 1.400 . S
C2139 C2144 1.490 . S
C2140 H2130 0.930 . S
C2140 C2139 1.400 . S
C2140 C2143 1.386 . S
H2141 C2157 0.930 . S
H2142 C2158 0.931 . S
C2143 H2131 0.929 . S
C2143 C2137 1.390 . S
C2143 C2140 1.386 . S
C2144 C2139 1.490 . S
C2144 C2146 1.395 . S
C2144 C2147 1.403 . S
H2145 C2151 0.930 . S
C2146 H2132 0.930 . S
C2146 C2144 1.395 . S
C2146 C2149 1.403 . S
C2147 C2144 1.403 . S
C2147 C2148 1.524 . S
C2147 C2151 1.400 . S
C2148 H2133 0.960 . S
C2148 H2134 0.960 . S
C2148 H2135 0.960 . S
C2148 C2147 1.524 . S
C2149 C2146 1.403 . S
C2149 C2150 1.392 . S
C2149 C2153 1.495 . S
C2150 C2149 1.392 . S
C2150 C2151 1.385 . S
C2150 C2152 1.478 . S
C2151 H2145 0.930 . S
C2151 C2147 1.400 . S
C2151 C2150 1.385 . S
C2152 C2150 1.478 . S
C2152 C2154 1.381 . S
C2152 C2158 1.383 . S
C2153 C2149 1.495 . S
C2153 H2159 0.959 . S
C2153 H2160 0.961 . S
C2153 H2161 0.960 . S
C2154 C2152 1.381 . S
C2154 C2155 1.394 . S
C2154 H2162 0.930 . S
C2155 C2154 1.394 . S
C2155 C2156 1.383 . S
C2155 H2163 0.929 . S
C2156 C2155 1.383 . S
C2156 C2157 1.377 . S
C2157 H2141 0.930 . S
C2157 C2156 1.377 . S
C2157 C2158 1.379 . S
C2158 H2142 0.931 . S
C2158 C2152 1.383 . S
C2158 C2157 1.379 . S
H2159 C2153 0.959 . S
H2160 C2153 0.961 . S
H2161 C2153 0.960 . S
H2162 C2154 0.930 . S
H2163 C2155 0.929 . S
H2164 C2172 0.929 . S
H2165 C2174 0.930 . S
H2166 C2176 0.930 . S
H2167 C2179 0.929 . S
H2168 C2182 0.930 . S
H2169 C2184 0.960 . S
H2170 C2184 0.960 . S
H2171 C2184 0.960 . S
C2172 H2164 0.929 . S
C2172 C2173 1.377 . S
C2172 C2174 1.384 . S
C2173 C2172 1.377 . S
C2173 C2179 1.390 . S
C2174 H2165 0.930 . S
C2174 C2172 1.384 . S
C2174 C2175 1.372 . S
C2175 C2174 1.372 . S
C2175 C2176 1.400 . S
C2175 C2180 1.490 . S
C2176 H2166 0.930 . S
C2176 C2175 1.400 . S
C2176 C2179 1.386 . S
H2177 C2193 0.930 . S
H2178 C2194 0.931 . S
C2179 H2167 0.929 . S
C2179 C2173 1.390 . S
C2179 C2176 1.386 . S
C2180 C2175 1.490 . S
C2180 C2182 1.395 . S
C2180 C2183 1.403 . S
H2181 C2187 0.930 . S
C2182 H2168 0.930 . S
C2182 C2180 1.395 . S
C2182 C2185 1.403 . S
C2183 C2180 1.403 . S
C2183 C2184 1.524 . S
C2183 C2187 1.400 . S
C2184 H2169 0.960 . S
C2184 H2170 0.960 . S
C2184 H2171 0.960 . S
C2184 C2183 1.524 . S
C2185 C2182 1.403 . S
C2185 C2186 1.392 . S
C2185 C2189 1.495 . S
C2186 C2185 1.392 . S
C2186 C2187 1.385 . S
C2186 C2188 1.478 . S
C2187 H2181 0.930 . S
C2187 C2183 1.400 . S
C2187 C2186 1.385 . S
C2188 C2186 1.478 . S
C2188 C2190 1.381 . S
C2188 C2194 1.383 . S
C2189 C2185 1.495 . S
C2189 H2195 0.959 . S
C2189 H2196 0.961 . S
C2189 H2197 0.960 . S
C2190 C2188 1.381 . S
C2190 C2191 1.394 . S
C2190 H2198 0.930 . S
C2191 C2190 1.394 . S
C2191 C2192 1.383 . S
C2191 H2199 0.929 . S
C2192 C2191 1.383 . S
C2192 C2193 1.377 . S
C2193 H2177 0.930 . S
C2193 C2192 1.377 . S
C2193 C2194 1.379 . S
C2194 H2178 0.931 . S
C2194 C2188 1.383 . S
C2194 C2193 1.379 . S
H2195 C2189 0.959 . S
H2196 C2189 0.961 . S
H2197 C2189 0.960 . S
H2198 C2190 0.930 . S
H2199 C2191 0.929 . S
H2200 C2208 0.929 . S
H2201 C2210 0.930 . S
H2202 C2212 0.970 . S
H2203 C2215 0.929 . S
H2204 C2218 0.930 . S
H2205 C2220 0.960 . S
H2206 C2220 0.960 . S
H2207 C2220 0.960 . S
C2208 H2200 0.929 . S
C2208 C2209 1.377 . S
C2208 C2210 1.384 . S
C2209 C2208 1.377 . S
C2209 C2215 1.390 1_545 S
C2210 H2201 0.930 . S
C2210 C2208 1.384 . S
C2210 C2211 1.372 . S
C2211 C2210 1.372 . S
C2211 C2212 1.368 1_545 S
C2211 C2216 1.490 . S
C2212 H2202 0.970 . S
C2212 C2211 1.368 1_565 S
C2212 C2215 1.380 . S
H2213 C2229 0.930 . S
H2214 C2230 0.931 . S
C2215 H2203 0.929 . S
C2215 C2209 1.390 1_565 S
C2215 C2212 1.380 . S
C2216 C2211 1.490 . S
C2216 C2218 1.395 . S
C2216 C2219 1.403 . S
H2217 C2223 0.930 . S
C2218 H2204 0.930 . S
C2218 C2216 1.395 . S
C2218 C2221 1.403 . S
C2219 C2216 1.403 . S
C2219 C2220 1.524 1_545 S
C2219 C2223 1.400 . S
C2220 H2205 0.960 . S
C2220 H2206 0.960 . S
C2220 H2207 0.960 . S
C2220 C2219 1.524 1_565 S
C2221 C2218 1.403 . S
C2221 C2222 1.392 . S
C2221 C2225 1.495 . S
C2222 C2221 1.392 . S
C2222 C2223 1.385 . S
C2222 C2224 1.478 . S
C2223 H2217 0.930 . S
C2223 C2219 1.400 . S
C2223 C2222 1.385 . S
C2224 C2222 1.478 . S
C2224 C2226 1.381 . S
C2224 C2230 1.383 . S
C2225 C2221 1.495 . S
C2225 H2231 0.959 . S
C2225 H2232 0.961 . S
C2225 H2233 0.960 . S
C2226 C2224 1.381 . S
C2226 C2227 1.394 . S
C2226 H2234 0.930 . S
C2227 C2226 1.394 . S
C2227 C2228 1.383 . S
C2227 H2235 0.929 . S
C2228 C2227 1.383 . S
C2228 C2229 1.377 . S
C2229 H2213 0.930 . S
C2229 C2228 1.377 . S
C2229 C2230 1.379 . S
C2230 H2214 0.931 . S
C2230 C2224 1.383 . S
C2230 C2229 1.379 . S
H2231 C2225 0.959 . S
H2232 C2225 0.961 . S
H2233 C2225 0.960 . S
H2234 C2226 0.930 . S
H2235 C2227 0.929 . S
H2236 C2244 0.929 . S
H2237 C2246 0.930 . S
H2238 C2248 0.930 . S
H2239 C2251 0.929 . S
H2240 C2254 0.930 . S
H2241 C2256 0.960 . S
H2242 C2256 0.960 . S
H2243 C2256 0.960 . S
C2244 H2236 0.929 . S
C2244 C2245 1.377 . S
C2244 C2246 1.384 . S
C2245 C2244 1.377 . S
C2245 C2251 1.390 . S
C2246 H2237 0.930 . S
C2246 C2244 1.384 . S
C2246 C2247 1.372 . S
C2247 C2246 1.372 . S
C2247 C2248 1.400 . S
C2247 C2252 1.490 . S
C2248 H2238 0.930 . S
C2248 C2247 1.400 . S
C2248 C2251 1.386 . S
H2249 C2265 0.930 . S
H2250 C2266 0.931 . S
C2251 H2239 0.929 . S
C2251 C2245 1.390 . S
C2251 C2248 1.386 . S
C2252 C2247 1.490 . S
C2252 C2254 1.395 . S
C2252 C2255 1.403 . S
H2253 C2259 0.930 . S
C2254 H2240 0.930 . S
C2254 C2252 1.395 . S
C2254 C2257 1.403 . S
C2255 C2252 1.403 . S
C2255 C2256 1.524 . S
C2255 C2259 1.400 . S
C2256 H2241 0.960 . S
C2256 H2242 0.960 . S
C2256 H2243 0.960 . S
C2256 C2255 1.524 . S
C2257 C2254 1.403 . S
C2257 C2258 1.392 . S
C2257 C2261 1.495 . S
C2258 C2257 1.392 . S
C2258 C2259 1.385 . S
C2258 C2260 1.478 . S
C2259 H2253 0.930 . S
C2259 C2255 1.400 . S
C2259 C2258 1.385 . S
C2260 C2258 1.478 . S
C2260 C2262 1.381 . S
C2260 C2266 1.383 . S
C2261 C2257 1.495 . S
C2261 H2267 0.959 . S
C2261 H2268 0.961 . S
C2261 H2269 0.960 . S
C2262 C2260 1.381 . S
C2262 C2263 1.394 . S
C2262 H2270 0.930 . S
C2263 C2262 1.394 . S
C2263 C2264 1.383 . S
C2263 H2271 0.929 . S
C2264 C2263 1.383 . S
C2264 C2265 1.377 . S
C2265 H2249 0.930 . S
C2265 C2264 1.377 . S
C2265 C2266 1.379 . S
C2266 H2250 0.931 . S
C2266 C2260 1.383 . S
C2266 C2265 1.379 . S
H2267 C2261 0.959 . S
H2268 C2261 0.961 . S
H2269 C2261 0.960 . S
H2270 C2262 0.930 . S
H2271 C2263 0.929 . S
H2272 C2280 0.929 . S
H2273 C2282 0.930 . S
H2274 C2284 0.930 . S
H2275 C2287 0.929 . S
H2276 C2290 0.930 . S
H2277 C2292 0.960 . S
H2278 C2292 0.960 . S
H2279 C2292 0.960 . S
C2280 H2272 0.929 . S
C2280 C2281 1.377 . S
C2280 C2282 1.384 . S
C2281 C2280 1.377 . S
C2281 C2287 1.390 . S
C2282 H2273 0.930 . S
C2282 C2280 1.384 . S
C2282 C2283 1.372 . S
C2283 C2282 1.372 . S
C2283 C2284 1.400 . S
C2283 C2288 1.490 . S
C2284 H2274 0.930 . S
C2284 C2283 1.400 . S
C2284 C2287 1.386 . S
H2285 C2301 0.930 . S
H2286 C2302 0.931 . S
C2287 H2275 0.929 . S
C2287 C2281 1.390 . S
C2287 C2284 1.386 . S
C2288 C2283 1.490 . S
C2288 C2290 1.395 . S
C2288 C2291 1.403 . S
H2289 C2295 0.930 . S
C2290 H2276 0.930 . S
C2290 C2288 1.395 . S
C2290 C2293 1.403 . S
C2291 C2288 1.403 . S
C2291 C2292 1.524 . S
C2291 C2295 1.400 . S
C2292 H2277 0.960 . S
C2292 H2278 0.960 . S
C2292 H2279 0.960 . S
C2292 C2291 1.524 . S
C2293 C2290 1.403 . S
C2293 C2294 1.392 . S
C2293 C2297 1.493 . S
C2294 C2293 1.392 . S
C2294 C2295 1.385 . S
C2294 C2296 1.478 . S
C2295 H2289 0.930 . S
C2295 C2291 1.400 . S
C2295 C2294 1.385 . S
C2296 C2294 1.478 . S
C2296 C2298 1.381 . S
C2296 C2302 1.383 . S
C2297 C2293 1.493 . S
C2297 H2303 0.961 1_545 S
C2297 H2304 0.962 1_545 S
C2297 H2305 0.959 . S
C2298 C2296 1.381 . S
C2298 C2299 1.394 . S
C2298 H2306 0.930 . S
C2299 C2298 1.394 . S
C2299 C2300 1.383 . S
C2299 H2307 0.929 . S
C2300 C2299 1.383 . S
C2300 C2301 1.377 . S
C2301 H2285 0.930 . S
C2301 C2300 1.377 . S
C2301 C2302 1.379 . S
C2302 H2286 0.931 . S
C2302 C2296 1.383 . S
C2302 C2301 1.379 . S
H2303 C2297 0.961 1_565 S
H2304 C2297 0.962 1_565 S
H2305 C2297 0.959 . S
H2306 C2298 0.930 . S
H2307 C2299 0.929 . S
H2308 C2316 0.929 . S
H2309 C2318 0.930 . S
H2310 C2320 0.930 . S
H2311 C2323 0.929 . S
H2312 C2326 0.930 . S
H2313 C2328 0.960 . S
H2314 C2328 0.960 . S
H2315 C2328 0.960 . S
C2316 H2308 0.929 . S
C2316 C2317 1.377 . S
C2316 C2318 1.384 . S
C2317 C2316 1.377 . S
C2317 C2323 1.390 . S
C2318 H2309 0.930 . S
C2318 C2316 1.384 . S
C2318 C2319 1.372 . S
C2319 C2318 1.372 . S
C2319 C2320 1.400 . S
C2319 C2324 1.490 . S
C2320 H2310 0.930 . S
C2320 C2319 1.400 . S
C2320 C2323 1.386 . S
H2321 C2337 0.930 . S
H2322 C2338 0.931 . S
C2323 H2311 0.929 . S
C2323 C2317 1.390 . S
C2323 C2320 1.386 . S
C2324 C2319 1.490 . S
C2324 C2326 1.395 . S
C2324 C2327 1.403 . S
H2325 C2331 0.930 . S
C2326 H2312 0.930 . S
C2326 C2324 1.395 . S
C2326 C2329 1.403 . S
C2327 C2324 1.403 . S
C2327 C2328 1.524 . S
C2327 C2331 1.400 . S
C2328 H2313 0.960 . S
C2328 H2314 0.960 . S
C2328 H2315 0.960 . S
C2328 C2327 1.524 . S
C2329 C2326 1.403 . S
C2329 C2330 1.392 . S
C2329 C2333 1.495 . S
C2330 C2329 1.392 . S
C2330 C2331 1.385 . S
C2330 C2332 1.478 . S
C2331 H2325 0.930 . S
C2331 C2327 1.400 . S
C2331 C2330 1.385 . S
C2332 C2330 1.478 . S
C2332 C2334 1.381 . S
C2332 C2338 1.383 . S
C2333 C2329 1.495 . S
C2333 H2339 0.959 . S
C2333 H2340 0.961 . S
C2333 H2341 0.960 . S
C2334 C2332 1.381 . S
C2334 C2335 1.394 . S
C2334 H2342 0.930 . S
C2335 C2334 1.394 . S
C2335 C2336 1.383 . S
C2335 H2343 0.929 . S
C2336 C2335 1.383 . S
C2336 C2337 1.377 . S
C2337 H2321 0.930 . S
C2337 C2336 1.377 . S
C2337 C2338 1.379 . S
C2338 H2322 0.931 . S
C2338 C2332 1.383 . S
C2338 C2337 1.379 . S
H2339 C2333 0.959 . S
H2340 C2333 0.961 . S
H2341 C2333 0.960 . S
H2342 C2334 0.930 . S
H2343 C2335 0.929 . S
H2344 C2352 0.929 . S
H2345 C2354 0.930 . S
H2346 C2356 0.930 . S
H2347 C2359 0.929 . S
H2348 C2362 0.930 . S
H2349 C2364 0.960 . S
H2350 C2364 0.960 . S
H2351 C2364 0.960 . S
C2352 H2344 0.929 . S
C2352 C2353 1.377 . S
C2352 C2354 1.384 . S
C2353 C2352 1.377 . S
C2353 C2359 1.390 1_545 S
C2354 H2345 0.930 . S
C2354 C2352 1.384 . S
C2354 C2355 1.372 . S
C2355 C2354 1.372 . S
C2355 C2356 1.400 1_545 S
C2355 C2360 1.497 . S
C2356 H2346 0.930 . S
C2356 C2355 1.400 1_565 S
C2356 C2359 1.386 . S
H2357 C2373 0.930 . S
H2358 C2374 0.931 . S
C2359 H2347 0.929 . S
C2359 C2353 1.390 1_565 S
C2359 C2356 1.386 . S
C2360 C2355 1.497 . S
C2360 C2362 1.368 1_545 S
C2360 C2363 1.424 . S
H2361 C2367 0.930 . S
C2362 H2348 0.930 . S
C2362 C2360 1.368 1_565 S
C2362 C2365 1.403 . S
C2363 C2360 1.424 . S
C2363 C2364 1.524 . S
C2363 C2367 1.400 . S
C2364 H2349 0.960 . S
C2364 H2350 0.960 . S
C2364 H2351 0.960 . S
C2364 C2363 1.524 . S
C2365 C2362 1.403 . S
C2365 C2366 1.392 . S
C2365 C2369 1.495 . S
C2366 C2365 1.392 . S
C2366 C2367 1.385 1_565 S
C2366 C2368 1.478 . S
C2367 H2361 0.930 . S
C2367 C2363 1.400 . S
C2367 C2366 1.385 1_545 S
C2368 C2366 1.478 . S
C2368 C2370 1.381 1_565 S
C2368 C2374 1.383 . S
C2369 C2365 1.495 . S
C2369 H2375 0.959 . S
C2369 H2376 0.961 . S
C2369 H2377 0.960 . S
C2370 C2368 1.381 1_545 S
C2370 C2371 1.394 . S
C2370 H2378 0.930 . S
C2371 C2370 1.394 . S
C2371 C2372 1.383 1_545 S
C2371 H2379 0.929 . S
C2372 C2371 1.383 1_565 S
C2372 C2373 1.377 . S
C2373 H2357 0.930 . S
C2373 C2372 1.377 . S
C2373 C2374 1.379 . S
C2374 H2358 0.931 . S
C2374 C2368 1.383 . S
C2374 C2373 1.379 . S
H2375 C2369 0.959 . S
H2376 C2369 0.961 . S
H2377 C2369 0.960 . S
H2378 C2370 0.930 . S
H2379 C2371 0.929 . S
H2380 C2388 0.929 . S
H2381 C2390 0.930 . S
H2382 C2392 0.930 . S
H2383 C2395 0.929 . S
H2384 C2398 0.930 . S
H2385 C2400 0.960 . S
H2386 C2400 0.960 . S
H2387 C2400 0.960 . S
C2388 H2380 0.929 . S
C2388 C2389 1.377 . S
C2388 C2390 1.384 . S
C2389 C2388 1.377 . S
C2389 C2395 1.390 . S
C2390 H2381 0.930 . S
C2390 C2388 1.384 . S
C2390 C2391 1.372 . S
C2391 C2390 1.372 . S
C2391 C2392 1.400 . S
C2391 C2396 1.490 . S
C2392 H2382 0.930 . S
C2392 C2391 1.400 . S
C2392 C2395 1.386 . S
H2393 C2409 0.930 . S
H2394 C2410 0.931 . S
C2395 H2383 0.929 . S
C2395 C2389 1.390 . S
C2395 C2392 1.386 . S
C2396 C2391 1.490 . S
C2396 C2398 1.395 . S
C2396 C2399 1.403 . S
H2397 C2403 0.930 . S
C2398 H2384 0.930 . S
C2398 C2396 1.395 . S
C2398 C2401 1.403 . S
C2399 C2396 1.403 . S
C2399 C2400 1.524 . S
C2399 C2403 1.400 . S
C2400 H2385 0.960 . S
C2400 H2386 0.960 . S
C2400 H2387 0.960 . S
C2400 C2399 1.524 . S
C2401 C2398 1.403 . S
C2401 C2402 1.392 . S
C2401 C2405 1.495 . S
C2402 C2401 1.392 . S
C2402 C2403 1.385 . S
C2402 C2404 1.478 . S
C2403 H2397 0.930 . S
C2403 C2399 1.400 . S
C2403 C2402 1.385 . S
C2404 C2402 1.478 . S
C2404 C2406 1.381 . S
C2404 C2410 1.383 . S
C2405 C2401 1.495 . S
C2405 H2411 0.959 . S
C2405 H2412 0.961 . S
C2405 H2413 0.960 . S
C2406 C2404 1.381 . S
C2406 C2407 1.394 . S
C2406 H2414 0.930 . S
C2407 C2406 1.394 . S
C2407 C2408 1.383 . S
C2407 H2415 0.929 . S
C2408 C2407 1.383 . S
C2408 C2409 1.377 . S
C2409 H2393 0.930 . S
C2409 C2408 1.377 . S
C2409 C2410 1.379 . S
C2410 H2394 0.931 . S
C2410 C2404 1.383 . S
C2410 C2409 1.379 . S
H2411 C2405 0.959 . S
H2412 C2405 0.961 . S
H2413 C2405 0.960 . S
H2414 C2406 0.930 . S
H2415 C2407 0.929 . S
H2416 C2424 0.929 . S
H2417 C2426 0.930 . S
H2418 C2428 0.930 . S
H2419 C2431 0.929 . S
H2420 C2434 0.930 . S
H2421 C2436 0.955 . S
H2422 C2436 0.960 . S
H2423 C2436 0.960 . S
C2424 H2416 0.929 . S
C2424 C2425 1.377 . S
C2424 C2426 1.384 . S
C2425 C2424 1.377 . S
C2425 C2431 1.390 . S
C2426 H2417 0.930 . S
C2426 C2424 1.384 . S
C2426 C2427 1.372 . S
C2427 C2426 1.372 . S
C2427 C2428 1.400 . S
C2427 C2432 1.490 . S
C2428 H2418 0.930 . S
C2428 C2427 1.400 . S
C2428 C2431 1.386 . S
H2429 C2445 0.930 . S
H2430 C2446 0.931 . S
C2431 H2419 0.929 . S
C2431 C2425 1.390 . S
C2431 C2428 1.386 . S
C2432 C2427 1.490 . S
C2432 C2434 1.395 . S
C2432 C2435 1.403 . S
H2433 C2439 0.930 . S
C2434 H2420 0.930 . S
C2434 C2432 1.395 . S
C2434 C2437 1.403 . S
C2435 C2432 1.403 . S
C2435 C2436 1.524 . S
C2435 C2439 1.400 . S
C2436 H2421 0.955 . S
C2436 H2422 0.960 . S
C2436 H2423 0.960 . S
C2436 C2435 1.524 . S
C2437 C2434 1.403 . S
C2437 C2438 1.392 . S
C2437 C2441 1.495 . S
C2438 C2437 1.392 . S
C2438 C2439 1.385 . S
C2438 C2440 1.478 . S
C2439 H2433 0.930 . S
C2439 C2435 1.400 . S
C2439 C2438 1.385 . S
C2440 C2438 1.478 . S
C2440 C2442 1.381 . S
C2440 C2446 1.383 . S
C2441 C2437 1.495 . S
C2441 H2447 0.959 . S
C2441 H2448 0.961 . S
C2441 H2449 0.960 . S
C2442 C2440 1.381 . S
C2442 C2443 1.394 . S
C2442 H2450 0.930 . S
C2443 C2442 1.394 . S
C2443 C2444 1.383 . S
C2443 H2451 0.929 . S
C2444 C2443 1.383 . S
C2444 C2445 1.377 . S
C2445 H2429 0.930 . S
C2445 C2444 1.377 . S
C2445 C2446 1.379 . S
C2446 H2430 0.931 . S
C2446 C2440 1.383 . S
C2446 C2445 1.379 . S
H2447 C2441 0.959 . S
H2448 C2441 0.961 . S
H2449 C2441 0.960 . S
H2450 C2442 0.930 . S
H2451 C2443 0.929 . S
H2452 C2460 0.929 . S
H2453 C2462 0.930 . S
H2454 C2464 0.930 . S
H2455 C2467 0.929 . S
H2456 C2470 0.930 . S
H2457 C2472 0.960 . S
H2458 C2472 0.960 . S
H2459 C2472 0.960 . S
C2460 H2452 0.929 . S
C2460 C2461 1.377 . S
C2460 C2462 1.384 . S
C2461 C2460 1.377 . S
C2461 C2467 1.390 . S
C2462 H2453 0.930 . S
C2462 C2460 1.384 . S
C2462 C2463 1.372 . S
C2463 C2462 1.372 . S
C2463 C2464 1.400 . S
C2463 C2468 1.490 . S
C2464 H2454 0.930 . S
C2464 C2463 1.400 . S
C2464 C2467 1.386 . S
H2465 C2481 0.930 . S
H2466 C2482 0.931 . S
C2467 H2455 0.929 . S
C2467 C2461 1.390 . S
C2467 C2464 1.386 . S
C2468 C2463 1.490 . S
C2468 C2470 1.395 . S
C2468 C2471 1.403 . S
H2469 C2475 0.930 . S
C2470 H2456 0.930 . S
C2470 C2468 1.395 . S
C2470 C2473 1.403 . S
C2471 C2468 1.403 . S
C2471 C2472 1.524 . S
C2471 C2475 1.400 . S
C2472 H2457 0.960 . S
C2472 H2458 0.960 . S
C2472 H2459 0.960 . S
C2472 C2471 1.524 . S
C2473 C2470 1.403 . S
C2473 C2474 1.392 . S
C2473 C2477 1.495 . S
C2474 C2473 1.392 . S
C2474 C2475 1.385 . S
C2474 C2476 1.478 . S
C2475 H2469 0.930 . S
C2475 C2471 1.400 . S
C2475 C2474 1.385 . S
C2476 C2474 1.478 . S
C2476 C2478 1.381 . S
C2476 C2482 1.383 . S
C2477 C2473 1.495 . S
C2477 H2483 0.959 . S
C2477 H2484 0.961 . S
C2477 H2485 0.960 . S
C2478 C2476 1.381 . S
C2478 C2479 1.394 . S
C2478 H2486 0.930 . S
C2479 C2478 1.394 . S
C2479 C2480 1.383 . S
C2479 H2487 0.929 . S
C2480 C2479 1.383 . S
C2480 C2481 1.377 . S
C2481 H2465 0.930 . S
C2481 C2480 1.377 . S
C2481 C2482 1.379 . S
C2482 H2466 0.931 . S
C2482 C2476 1.383 . S
C2482 C2481 1.379 . S
H2483 C2477 0.959 . S
H2484 C2477 0.961 . S
H2485 C2477 0.960 . S
H2486 C2478 0.930 . S
H2487 C2479 0.929 . S
H2488 C2496 0.929 . S
H2489 C2498 0.930 . S
H2490 C2500 0.930 . S
H2491 C2503 0.929 . S
H2492 C2506 0.930 . S
H2493 C2508 0.960 . S
H2494 C2508 0.960 . S
H2495 C2508 0.960 . S
C2496 H2488 0.929 . S
C2496 C2497 1.377 . S
C2496 C2498 1.384 . S
C2497 C2496 1.377 . S
C2497 C2503 1.390 . S
C2498 H2489 0.930 . S
C2498 C2496 1.384 . S
C2498 C2499 1.372 . S
C2499 C2498 1.372 . S
C2499 C2500 1.400 . S
C2499 C2504 1.490 . S
C2500 H2490 0.930 . S
C2500 C2499 1.400 . S
C2500 C2503 1.386 . S
H2501 C2517 0.930 . S
H2502 C2518 0.931 . S
C2503 H2491 0.929 . S
C2503 C2497 1.390 . S
C2503 C2500 1.386 . S
C2504 C2499 1.490 . S
C2504 C2506 1.395 . S
C2504 C2507 1.403 . S
H2505 C2511 0.930 . S
C2506 H2492 0.930 . S
C2506 C2504 1.395 . S
C2506 C2509 1.403 . S
C2507 C2504 1.403 . S
C2507 C2508 1.524 . S
C2507 C2511 1.400 . S
C2508 H2493 0.960 . S
C2508 H2494 0.960 . S
C2508 H2495 0.960 . S
C2508 C2507 1.524 . S
C2509 C2506 1.403 . S
C2509 C2510 1.392 . S
C2509 C2513 1.495 . S
C2510 C2509 1.392 . S
C2510 C2511 1.385 . S
C2510 C2512 1.478 . S
C2511 H2505 0.930 . S
C2511 C2507 1.400 . S
C2511 C2510 1.385 . S
C2512 C2510 1.478 . S
C2512 C2514 1.381 . S
C2512 C2518 1.383 . S
C2513 C2509 1.495 . S
C2513 H2519 0.959 . S
C2513 H2520 0.961 . S
C2513 H2521 0.960 . S
C2514 C2512 1.381 . S
C2514 C2515 1.394 . S
C2514 H2522 0.930 . S
C2515 C2514 1.394 . S
C2515 C2516 1.383 . S
C2515 H2523 0.929 . S
C2516 C2515 1.383 . S
C2516 C2517 1.377 . S
C2517 H2501 0.930 . S
C2517 C2516 1.377 . S
C2517 C2518 1.379 . S
C2518 H2502 0.931 . S
C2518 C2512 1.383 . S
C2518 C2517 1.379 . S
H2519 C2513 0.959 . S
H2520 C2513 0.961 . S
H2521 C2513 0.960 . S
H2522 C2514 0.930 . S
H2523 C2515 0.929 . S
H2524 C2532 0.929 . S
H2525 C2534 0.930 . S
H2526 C2536 0.930 . S
H2527 C2539 0.929 . S
H2528 C2542 0.930 . S
H2529 C2544 0.960 . S
H2530 C2544 0.960 . S
H2531 C2544 0.960 . S
C2532 H2524 0.929 . S
C2532 C2533 1.377 . S
C2532 C2534 1.384 . S
C2533 C2532 1.377 . S
C2533 C2539 1.390 . S
C2534 H2525 0.930 . S
C2534 C2532 1.384 . S
C2534 C2535 1.372 . S
C2535 C2534 1.372 . S
C2535 C2536 1.400 . S
C2535 C2540 1.490 . S
C2536 H2526 0.930 . S
C2536 C2535 1.400 . S
C2536 C2539 1.386 . S
H2537 C2553 0.930 . S
H2538 C2554 0.931 . S
C2539 H2527 0.929 . S
C2539 C2533 1.390 . S
C2539 C2536 1.386 . S
C2540 C2535 1.490 . S
C2540 C2542 1.395 . S
C2540 C2543 1.403 . S
H2541 C2547 0.930 . S
C2542 H2528 0.930 . S
C2542 C2540 1.395 . S
C2542 C2545 1.403 . S
C2543 C2540 1.403 . S
C2543 C2544 1.524 . S
C2543 C2547 1.400 . S
C2544 H2529 0.960 . S
C2544 H2530 0.960 . S
C2544 H2531 0.960 . S
C2544 C2543 1.524 . S
C2545 C2542 1.403 . S
C2545 C2546 1.392 . S
C2545 C2549 1.495 . S
C2546 C2545 1.392 . S
C2546 C2547 1.385 . S
C2546 C2548 1.478 . S
C2547 H2541 0.930 . S
C2547 C2543 1.400 . S
C2547 C2546 1.385 . S
C2548 C2546 1.478 . S
C2548 C2550 1.381 . S
C2548 C2554 1.383 . S
C2549 C2545 1.495 . S
C2549 H2555 0.959 . S
C2549 H2556 0.961 . S
C2549 H2557 0.960 . S
C2550 C2548 1.381 . S
C2550 C2551 1.394 . S
C2550 H2558 0.930 . S
C2551 C2550 1.394 . S
C2551 C2552 1.383 . S
C2551 H2559 0.929 . S
C2552 C2551 1.383 . S
C2552 C2553 1.377 . S
C2553 H2537 0.930 . S
C2553 C2552 1.377 . S
C2553 C2554 1.379 . S
C2554 H2538 0.931 . S
C2554 C2548 1.383 . S
C2554 C2553 1.379 . S
H2555 C2549 0.959 . S
H2556 C2549 0.961 . S
H2557 C2549 0.960 . S
H2558 C2550 0.930 . S
H2559 C2551 0.929 . S
H2560 C2568 0.929 . S
H2561 C2570 0.930 1_545 S
H2562 C2572 0.930 . S
H2563 C2575 0.929 . S
H2564 C2578 0.930 . S
H2565 C2580 0.960 . S
H2566 C2580 0.960 . S
H2567 C2580 0.960 . S
C2568 H2560 0.929 . S
C2568 C2569 1.377 . S
C2568 C2570 1.384 1_545 S
C2569 C2568 1.377 . S
C2569 C2575 1.390 1_545 S
C2570 H2561 0.930 1_565 S
C2570 C2568 1.384 1_565 S
C2570 C2571 1.372 . S
C2571 C2570 1.372 . S
C2571 C2572 1.400 . S
C2571 C2576 1.490 . S
C2572 H2562 0.930 . S
C2572 C2571 1.400 . S
C2572 C2575 1.386 . S
H2573 C2589 0.930 . S
H2574 C2590 0.931 . S
C2575 H2563 0.929 . S
C2575 C2569 1.390 1_565 S
C2575 C2572 1.386 . S
C2576 C2571 1.490 . S
C2576 C2578 1.395 . S
C2576 C2579 1.403 . S
H2577 C2583 0.930 . S
C2578 H2564 0.930 . S
C2578 C2576 1.395 . S
C2578 C2581 1.403 . S
C2579 C2576 1.403 . S
C2579 C2580 1.524 . S
C2579 C2583 1.400 . S
C2580 H2565 0.960 . S
C2580 H2566 0.960 . S
C2580 H2567 0.960 . S
C2580 C2579 1.524 . S
C2581 C2578 1.403 . S
C2581 C2582 1.392 . S
C2581 C2585 1.495 . S
C2582 C2581 1.392 . S
C2582 C2583 1.385 . S
C2582 C2584 1.478 . S
C2583 H2577 0.930 . S
C2583 C2579 1.400 . S
C2583 C2582 1.385 . S
C2584 C2582 1.478 . S
C2584 C2586 1.381 . S
C2584 C2590 1.383 . S
C2585 C2581 1.495 . S
C2585 H2591 0.959 . S
C2585 H2592 0.961 . S
C2585 H2593 0.960 . S
C2586 C2584 1.381 . S
C2586 C2587 1.394 . S
C2586 H2594 0.930 . S
C2587 C2586 1.394 . S
C2587 C2588 1.383 . S
C2587 H2595 0.929 . S
C2588 C2587 1.383 . S
C2588 C2589 1.377 . S
C2589 H2573 0.930 . S
C2589 C2588 1.377 . S
C2589 C2590 1.379 . S
C2590 H2574 0.931 . S
C2590 C2584 1.383 . S
C2590 C2589 1.379 . S
H2591 C2585 0.959 . S
H2592 C2585 0.961 . S
H2593 C2585 0.960 . S
H2594 C2586 0.930 . S
H2595 C2587 0.929 . S
H2596 C2604 0.929 . S
H2597 C2606 0.930 . S
H2598 C2608 0.930 . S
H2599 C2611 0.929 . S
H2600 C2614 0.930 . S
H2601 C2616 0.960 . S
H2602 C2616 0.960 . S
H2603 C2616 0.960 . S
C2604 H2596 0.929 . S
C2604 C2605 1.377 . S
C2604 C2606 1.384 . S
C2605 C2604 1.377 . S
C2605 C2611 1.390 . S
C2606 H2597 0.930 . S
C2606 C2604 1.384 . S
C2606 C2607 1.372 . S
C2607 C2606 1.372 . S
C2607 C2608 1.400 . S
C2607 C2612 1.490 . S
C2608 H2598 0.930 . S
C2608 C2607 1.400 . S
C2608 C2611 1.386 . S
H2609 C2625 0.930 . S
H2610 C2626 0.931 . S
C2611 H2599 0.929 . S
C2611 C2605 1.390 . S
C2611 C2608 1.386 . S
C2612 C2607 1.490 . S
C2612 C2614 1.395 . S
C2612 C2615 1.403 . S
H2613 C2619 0.930 . S
C2614 H2600 0.930 . S
C2614 C2612 1.395 . S
C2614 C2617 1.403 . S
C2615 C2612 1.403 . S
C2615 C2616 1.524 . S
C2615 C2619 1.400 . S
C2616 H2601 0.960 . S
C2616 H2602 0.960 . S
C2616 H2603 0.960 . S
C2616 C2615 1.524 . S
C2617 C2614 1.403 . S
C2617 C2618 1.392 . S
C2617 C2621 1.495 . S
C2618 C2617 1.392 . S
C2618 C2619 1.385 . S
C2618 C2620 1.478 . S
C2619 H2613 0.930 . S
C2619 C2615 1.400 . S
C2619 C2618 1.385 . S
C2620 C2618 1.478 . S
C2620 C2622 1.381 . S
C2620 C2626 1.383 . S
C2621 C2617 1.495 . S
C2621 H2627 0.959 . S
C2621 H2628 0.961 . S
C2621 H2629 0.960 . S
C2622 C2620 1.381 . S
C2622 C2623 1.394 . S
C2622 H2630 0.930 . S
C2623 C2622 1.394 . S
C2623 C2624 1.383 . S
C2623 H2631 0.929 . S
C2624 C2623 1.383 . S
C2624 C2625 1.377 . S
C2625 H2609 0.930 . S
C2625 C2624 1.377 . S
C2625 C2626 1.379 . S
C2626 H2610 0.931 . S
C2626 C2620 1.383 . S
C2626 C2625 1.379 . S
H2627 C2621 0.959 . S
H2628 C2621 0.961 . S
H2629 C2621 0.960 . S
H2630 C2622 0.930 . S
H2631 C2623 0.929 . S
H2632 C2640 0.929 . S
H2633 C2642 0.930 . S
H2634 C2644 0.930 . S
H2635 C2647 0.929 . S
H2636 C2650 0.930 . S
H2637 C2652 0.960 . S
H2638 C2652 0.960 . S
H2639 C2652 0.960 . S
C2640 H2632 0.929 . S
C2640 C2641 1.377 . S
C2640 C2642 1.384 . S
C2641 C2640 1.377 . S
C2641 C2647 1.390 . S
C2642 H2633 0.930 . S
C2642 C2640 1.384 . S
C2642 C2643 1.372 . S
C2643 C2642 1.372 . S
C2643 C2644 1.400 . S
C2643 C2648 1.490 . S
C2644 H2634 0.930 . S
C2644 C2643 1.400 . S
C2644 C2647 1.386 . S
H2645 C2661 0.930 . S
H2646 C2662 0.931 . S
C2647 H2635 0.929 . S
C2647 C2641 1.390 . S
C2647 C2644 1.386 . S
C2648 C2643 1.490 . S
C2648 C2650 1.395 . S
C2648 C2651 1.403 . S
H2649 C2655 0.930 . S
C2650 H2636 0.930 . S
C2650 C2648 1.395 . S
C2650 C2653 1.403 . S
C2651 C2648 1.403 . S
C2651 C2652 1.524 . S
C2651 C2655 1.400 . S
C2652 H2637 0.960 . S
C2652 H2638 0.960 . S
C2652 H2639 0.960 . S
C2652 C2651 1.524 . S
C2653 C2650 1.403 . S
C2653 C2654 1.392 . S
C2653 C2657 1.495 . S
C2654 C2653 1.392 . S
C2654 C2655 1.385 . S
C2654 C2656 1.478 . S
C2655 H2649 0.930 . S
C2655 C2651 1.400 . S
C2655 C2654 1.385 . S
C2656 C2654 1.478 . S
C2656 C2658 1.381 . S
C2656 C2662 1.383 . S
C2657 C2653 1.495 . S
C2657 H2663 0.959 . S
C2657 H2664 0.961 . S
C2657 H2665 0.960 . S
C2658 C2656 1.381 . S
C2658 C2659 1.394 . S
C2658 H2666 0.930 . S
C2659 C2658 1.394 . S
C2659 C2660 1.383 . S
C2659 H2667 0.929 . S
C2660 C2659 1.383 . S
C2660 C2661 1.377 . S
C2661 H2645 0.930 . S
C2661 C2660 1.377 . S
C2661 C2662 1.379 . S
C2662 H2646 0.931 . S
C2662 C2656 1.383 . S
C2662 C2661 1.379 . S
H2663 C2657 0.959 . S
H2664 C2657 0.961 . S
H2665 C2657 0.960 . S
H2666 C2658 0.930 . S
H2667 C2659 0.929 . S
H2668 C2676 0.929 . S
H2669 C2678 0.930 . S
H2670 C2680 0.930 . S
H2671 C2683 0.929 . S
H2672 C2686 0.930 . S
H2673 C2688 0.960 . S
H2674 C2688 0.960 . S
H2675 C2688 0.960 . S
C2676 H2668 0.929 . S
C2676 C2677 1.377 . S
C2676 C2678 1.384 . S
C2677 C2676 1.377 . S
C2677 C2683 1.390 . S
C2678 H2669 0.930 . S
C2678 C2676 1.384 . S
C2678 C2679 1.372 . S
C2679 C2678 1.372 . S
C2679 C2680 1.400 . S
C2679 C2684 1.490 . S
C2680 H2670 0.930 . S
C2680 C2679 1.400 . S
C2680 C2683 1.386 . S
H2681 C2697 0.930 . S
H2682 C2698 0.931 . S
C2683 H2671 0.929 . S
C2683 C2677 1.390 . S
C2683 C2680 1.386 . S
C2684 C2679 1.490 . S
C2684 C2686 1.395 . S
C2684 C2687 1.403 . S
H2685 C2691 0.930 . S
C2686 H2672 0.930 . S
C2686 C2684 1.395 . S
C2686 C2689 1.403 . S
C2687 C2684 1.403 . S
C2687 C2688 1.524 . S
C2687 C2691 1.400 . S
C2688 H2673 0.960 . S
C2688 H2674 0.960 . S
C2688 H2675 0.960 . S
C2688 C2687 1.524 . S
C2689 C2686 1.403 . S
C2689 C2690 1.392 . S
C2689 C2693 1.495 . S
C2690 C2689 1.392 . S
C2690 C2691 1.385 . S
C2690 C2692 1.478 . S
C2691 H2685 0.930 . S
C2691 C2687 1.400 . S
C2691 C2690 1.385 . S
C2692 C2690 1.478 . S
C2692 C2694 1.381 . S
C2692 C2698 1.383 . S
C2693 C2689 1.495 . S
C2693 H2699 0.959 . S
C2693 H2700 0.961 . S
C2693 H2701 0.960 . S
C2694 C2692 1.381 . S
C2694 C2695 1.394 . S
C2694 H2702 0.930 . S
C2695 C2694 1.394 . S
C2695 C2696 1.383 . S
C2695 H2703 0.929 . S
C2696 C2695 1.383 . S
C2696 C2697 1.377 . S
C2697 H2681 0.930 . S
C2697 C2696 1.377 . S
C2697 C2698 1.379 . S
C2698 H2682 0.931 . S
C2698 C2692 1.383 . S
C2698 C2697 1.379 . S
H2699 C2693 0.959 . S
H2700 C2693 0.961 . S
H2701 C2693 0.960 . S
H2702 C2694 0.930 . S
H2703 C2695 0.929 . S
H2704 C2712 0.929 . S
H2705 C2714 0.930 . S
H2706 C2716 0.930 . S
H2707 C2719 0.929 . S
H2708 C2722 0.930 . S
H2709 C2724 0.960 . S
H2710 C2724 0.960 . S
H2711 C2724 0.960 . S
C2712 H2704 0.929 . S
C2712 C2713 1.377 . S
C2712 C2714 1.384 . S
C2713 C2712 1.377 . S
C2713 C2719 1.390 . S
C2714 H2705 0.930 . S
C2714 C2712 1.384 . S
C2714 C2715 1.372 . S
C2715 C2714 1.372 . S
C2715 C2716 1.400 . S
C2715 C2720 1.490 . S
C2716 H2706 0.930 . S
C2716 C2715 1.400 . S
C2716 C2719 1.386 . S
H2717 C2733 0.930 . S
H2718 C2734 0.931 . S
C2719 H2707 0.929 . S
C2719 C2713 1.390 . S
C2719 C2716 1.386 . S
C2720 C2715 1.490 . S
C2720 C2722 1.395 . S
C2720 C2723 1.403 . S
H2721 C2727 0.930 . S
C2722 H2708 0.930 . S
C2722 C2720 1.395 . S
C2722 C2725 1.403 . S
C2723 C2720 1.403 . S
C2723 C2724 1.524 . S
C2723 C2727 1.400 . S
C2724 H2709 0.960 . S
C2724 H2710 0.960 . S
C2724 H2711 0.960 . S
C2724 C2723 1.524 . S
C2725 C2722 1.403 . S
C2725 C2726 1.392 . S
C2725 C2729 1.495 . S
C2726 C2725 1.392 . S
C2726 C2727 1.385 . S
C2726 C2728 1.478 . S
C2727 H2721 0.930 . S
C2727 C2723 1.400 . S
C2727 C2726 1.385 . S
C2728 C2726 1.478 . S
C2728 C2730 1.381 . S
C2728 C2734 1.383 . S
C2729 C2725 1.495 . S
C2729 H2735 0.959 . S
C2729 H2736 0.961 . S
C2729 H2737 0.960 . S
C2730 C2728 1.381 . S
C2730 C2731 1.394 . S
C2730 H2738 0.930 . S
C2731 C2730 1.394 . S
C2731 C2732 1.383 . S
C2731 H2739 0.929 . S
C2732 C2731 1.383 . S
C2732 C2733 1.377 . S
C2733 H2717 0.930 . S
C2733 C2732 1.377 . S
C2733 C2734 1.379 . S
C2734 H2718 0.931 . S
C2734 C2728 1.383 . S
C2734 C2733 1.379 . S
H2735 C2729 0.959 . S
H2736 C2729 0.961 . S
H2737 C2729 0.960 . S
H2738 C2730 0.930 . S
H2739 C2731 0.929 . S
H2740 C2748 0.929 . S
H2741 C2750 0.930 . S
H2742 C2752 0.930 . S
H2743 C2755 0.929 . S
H2744 C2758 0.930 . S
H2745 C2760 0.960 . S
H2746 C2760 0.960 . S
H2747 C2760 0.960 . S
C2748 H2740 0.929 . S
C2748 C2749 1.377 . S
C2748 C2750 1.384 . S
C2749 C2748 1.377 . S
C2749 C2755 1.390 . S
C2750 H2741 0.930 . S
C2750 C2748 1.384 . S
C2750 C2751 1.372 . S
C2751 C2750 1.372 . S
C2751 C2752 1.400 . S
C2751 C2756 1.490 . S
C2752 H2742 0.930 . S
C2752 C2751 1.400 . S
C2752 C2755 1.386 . S
H2753 C2769 0.930 . S
H2754 C2770 0.931 . S
C2755 H2743 0.929 . S
C2755 C2749 1.390 . S
C2755 C2752 1.386 . S
C2756 C2751 1.490 . S
C2756 C2758 1.395 . S
C2756 C2759 1.403 . S
H2757 C2763 0.930 . S
C2758 H2744 0.930 . S
C2758 C2756 1.395 . S
C2758 C2761 1.403 . S
C2759 C2756 1.403 . S
C2759 C2760 1.524 . S
C2759 C2763 1.400 . S
C2760 H2745 0.960 . S
C2760 H2746 0.960 . S
C2760 H2747 0.960 . S
C2760 C2759 1.524 . S
C2761 C2758 1.403 . S
C2761 C2762 1.392 . S
C2761 C2765 1.495 . S
C2762 C2761 1.392 . S
C2762 C2763 1.385 . S
C2762 C2764 1.478 . S
C2763 H2757 0.930 . S
C2763 C2759 1.400 . S
C2763 C2762 1.385 . S
C2764 C2762 1.478 . S
C2764 C2766 1.381 . S
C2764 C2770 1.383 . S
C2765 C2761 1.495 . S
C2765 H2771 0.959 . S
C2765 H2772 0.961 . S
C2765 H2773 0.960 . S
C2766 C2764 1.381 . S
C2766 C2767 1.394 . S
C2766 H2774 0.930 . S
C2767 C2766 1.394 . S
C2767 C2768 1.383 . S
C2767 H2775 0.929 . S
C2768 C2767 1.383 . S
C2768 C2769 1.377 . S
C2769 H2753 0.930 . S
C2769 C2768 1.377 . S
C2769 C2770 1.379 . S
C2770 H2754 0.931 . S
C2770 C2764 1.383 . S
C2770 C2769 1.379 . S
H2771 C2765 0.959 . S
H2772 C2765 0.961 . S
H2773 C2765 0.960 . S
H2774 C2766 0.930 . S
H2775 C2767 0.929 . S
H2776 C2784 0.929 1_554 S
H2777 C2786 0.930 . S
H2778 C2788 0.930 . S
H2779 C2791 0.929 . S
H2780 C2794 0.930 . S
H2781 C2796 0.960 . S
H2782 C2796 0.960 . S
H2783 C2796 0.960 . S
C2784 H2776 0.929 1_556 S
C2784 C2785 1.377 . S
C2784 C2786 1.384 1_556 S
C2785 C2784 1.377 . S
C2785 C2791 1.390 . S
C2786 H2777 0.930 . S
C2786 C2784 1.384 1_554 S
C2786 C2787 1.372 1_554 S
C2787 C2786 1.372 1_556 S
C2787 C2788 1.400 . S
C2787 C2792 1.490 1_556 S
C2788 H2778 0.930 . S
C2788 C2787 1.400 . S
C2788 C2791 1.386 . S
H2789 C2805 0.930 . S
H2790 C2806 0.931 . S
C2791 H2779 0.929 . S
C2791 C2785 1.390 . S
C2791 C2788 1.386 . S
C2792 C2787 1.490 1_554 S
C2792 C2794 1.395 . S
C2792 C2795 1.403 1_455 S
H2793 C2799 0.930 . S
C2794 H2780 0.930 . S
C2794 C2792 1.395 . S
C2794 C2797 1.403 . S
C2795 C2792 1.403 1_655 S
C2795 C2796 1.524 1_554 S
C2795 C2799 1.400 . S
C2796 H2781 0.960 . S
C2796 H2782 0.960 . S
C2796 H2783 0.960 . S
C2796 C2795 1.524 1_556 S
C2797 C2794 1.403 . S
C2797 C2798 1.392 . S
C2797 C2801 1.495 . S
C2798 C2797 1.392 . S
C2798 C2799 1.385 1_455 S
C2798 C2800 1.478 . S
C2799 H2793 0.930 . S
C2799 C2795 1.400 . S
C2799 C2798 1.385 1_655 S
C2800 C2798 1.478 . S
C2800 C2802 1.381 . S
C2800 C2806 1.383 . S
C2801 C2797 1.495 . S
C2801 H2807 0.959 . S
C2801 H2808 0.961 . S
C2801 H2809 0.960 . S
C2802 C2800 1.381 . S
C2802 C2803 1.394 . S
C2802 H2810 0.930 . S
C2803 C2802 1.394 . S
C2803 C2804 1.383 . S
C2803 H2811 0.929 . S
C2804 C2803 1.383 . S
C2804 C2805 1.377 . S
C2805 H2789 0.930 . S
C2805 C2804 1.377 . S
C2805 C2806 1.379 . S
C2806 H2790 0.931 . S
C2806 C2800 1.383 . S
C2806 C2805 1.379 . S
H2807 C2801 0.959 . S
H2808 C2801 0.961 . S
H2809 C2801 0.960 . S
H2810 C2802 0.930 . S
H2811 C2803 0.929 . S
H2812 C2820 0.929 1_455 S
H2813 C2822 0.930 . S
H2814 C2824 0.930 . S
H2815 C2827 0.929 . S
H2816 C2830 0.930 . S
H2817 C2832 0.960 . S
H2818 C2832 0.960 . S
H2819 C2832 0.960 . S
C2820 H2812 0.929 1_655 S
C2820 C2821 1.377 . S
C2820 C2822 1.384 . S
C2821 C2820 1.377 . S
C2821 C2827 1.390 . S
C2822 H2813 0.930 . S
C2822 C2820 1.384 . S
C2822 C2823 1.372 . S
C2823 C2822 1.372 . S
C2823 C2824 1.400 . S
C2823 C2828 1.490 . S
C2824 H2814 0.930 . S
C2824 C2823 1.400 . S
C2824 C2827 1.386 . S
H2825 C2841 0.930 . S
H2826 C2842 0.931 . S
C2827 H2815 0.929 . S
C2827 C2821 1.390 . S
C2827 C2824 1.386 . S
C2828 C2823 1.490 . S
C2828 C2830 1.395 . S
C2828 C2831 1.403 . S
H2829 C2835 0.930 . S
C2830 H2816 0.930 . S
C2830 C2828 1.395 . S
C2830 C2833 1.403 . S
C2831 C2828 1.403 . S
C2831 C2832 1.524 . S
C2831 C2835 1.400 . S
C2832 H2817 0.960 . S
C2832 H2818 0.960 . S
C2832 H2819 0.960 . S
C2832 C2831 1.524 . S
C2833 C2830 1.403 . S
C2833 C2834 1.392 . S
C2833 C2837 1.495 . S
C2834 C2833 1.392 . S
C2834 C2835 1.385 . S
C2834 C2836 1.478 . S
C2835 H2829 0.930 . S
C2835 C2831 1.400 . S
C2835 C2834 1.385 . S
C2836 C2834 1.478 . S
C2836 C2838 1.381 . S
C2836 C2842 1.383 . S
C2837 C2833 1.495 . S
C2837 H2843 0.959 . S
C2837 H2844 0.961 . S
C2837 H2845 0.960 . S
C2838 C2836 1.381 . S
C2838 C2839 1.394 . S
C2838 H2846 0.930 . S
C2839 C2838 1.394 . S
C2839 C2840 1.383 . S
C2839 H2847 0.929 . S
C2840 C2839 1.383 . S
C2840 C2841 1.377 . S
C2841 H2825 0.930 . S
C2841 C2840 1.377 . S
C2841 C2842 1.379 . S
C2842 H2826 0.931 . S
C2842 C2836 1.383 . S
C2842 C2841 1.379 . S
H2843 C2837 0.959 . S
H2844 C2837 0.961 . S
H2845 C2837 0.960 . S
H2846 C2838 0.930 . S
H2847 C2839 0.929 . S
H2848 C2856 0.929 . S
H2849 C2858 0.930 . S
H2850 C2860 0.930 . S
H2851 C2863 0.929 . S
H2852 C2866 0.930 . S
H2853 C2868 0.960 . S
H2854 C2868 0.960 . S
H2855 C2868 0.960 . S
C2856 H2848 0.929 . S
C2856 C2857 1.377 . S
C2856 C2858 1.384 . S
C2857 C2856 1.377 . S
C2857 C2863 1.390 . S
C2858 H2849 0.930 . S
C2858 C2856 1.384 . S
C2858 C2859 1.372 . S
C2859 C2858 1.372 . S
C2859 C2860 1.400 . S
C2859 C2864 1.490 . S
C2860 H2850 0.930 . S
C2860 C2859 1.400 . S
C2860 C2863 1.386 . S
H2861 C2877 0.930 . S
H2862 C2878 0.931 . S
C2863 H2851 0.929 . S
C2863 C2857 1.390 . S
C2863 C2860 1.386 . S
C2864 C2859 1.490 . S
C2864 C2866 1.395 . S
C2864 C2867 1.403 . S
H2865 C2871 0.930 . S
C2866 H2852 0.930 . S
C2866 C2864 1.395 . S
C2866 C2869 1.403 . S
C2867 C2864 1.403 . S
C2867 C2868 1.524 . S
C2867 C2871 1.400 . S
C2868 H2853 0.960 . S
C2868 H2854 0.960 . S
C2868 H2855 0.960 . S
C2868 C2867 1.524 . S
C2869 C2866 1.403 . S
C2869 C2870 1.392 . S
C2869 C2873 1.495 . S
C2870 C2869 1.392 . S
C2870 C2871 1.385 . S
C2870 C2872 1.478 . S
C2871 H2865 0.930 . S
C2871 C2867 1.400 . S
C2871 C2870 1.385 . S
C2872 C2870 1.478 . S
C2872 C2874 1.381 . S
C2872 C2878 1.383 . S
C2873 C2869 1.495 . S
C2873 H2879 0.959 . S
C2873 H2880 0.961 . S
C2873 H2881 0.960 . S
C2874 C2872 1.381 . S
C2874 C2875 1.394 . S
C2874 H2882 0.930 . S
C2875 C2874 1.394 . S
C2875 C2876 1.383 . S
C2875 H2883 0.929 . S
C2876 C2875 1.383 . S
C2876 C2877 1.377 . S
C2877 H2861 0.930 . S
C2877 C2876 1.377 . S
C2877 C2878 1.379 . S
C2878 H2862 0.931 . S
C2878 C2872 1.383 . S
C2878 C2877 1.379 . S
H2879 C2873 0.959 . S
H2880 C2873 0.961 . S
H2881 C2873 0.960 . S
H2882 C2874 0.930 . S
H2883 C2875 0.929 . S
H2884 C2892 0.929 . S
H2885 C2894 0.930 . S
H2886 C2896 0.930 . S
H2887 C2899 0.929 . S
H2888 C2902 0.930 . S
H2889 C2904 0.960 . S
H2890 C2904 0.960 . S
H2891 C2904 0.960 . S
C2892 H2884 0.929 . S
C2892 C2893 1.377 . S
C2892 C2894 1.384 . S
C2893 C2892 1.377 . S
C2893 C2899 1.390 . S
C2894 H2885 0.930 . S
C2894 C2892 1.384 . S
C2894 C2895 1.372 . S
C2895 C2894 1.372 . S
C2895 C2896 1.400 . S
C2895 C2900 1.490 . S
C2896 H2886 0.930 . S
C2896 C2895 1.400 . S
C2896 C2899 1.386 . S
H2897 C2913 0.930 . S
H2898 C2914 0.931 . S
C2899 H2887 0.929 . S
C2899 C2893 1.390 . S
C2899 C2896 1.386 . S
C2900 C2895 1.490 . S
C2900 C2902 1.395 . S
C2900 C2903 1.403 . S
H2901 C2907 0.930 . S
C2902 H2888 0.930 . S
C2902 C2900 1.395 . S
C2902 C2905 1.403 . S
C2903 C2900 1.403 . S
C2903 C2904 1.524 . S
C2903 C2907 1.400 . S
C2904 H2889 0.960 . S
C2904 H2890 0.960 . S
C2904 H2891 0.960 . S
C2904 C2903 1.524 . S
C2905 C2902 1.403 . S
C2905 C2906 1.392 . S
C2905 C2909 1.495 . S
C2906 C2905 1.392 . S
C2906 C2907 1.385 . S
C2906 C2908 1.478 . S
C2907 H2901 0.930 . S
C2907 C2903 1.400 . S
C2907 C2906 1.385 . S
C2908 C2906 1.478 . S
C2908 C2910 1.381 . S
C2908 C2914 1.383 . S
C2909 C2905 1.495 . S
C2909 H2915 0.959 . S
C2909 H2916 0.961 . S
C2909 H2917 0.960 . S
C2910 C2908 1.381 . S
C2910 C2911 1.394 . S
C2910 H2918 0.930 . S
C2911 C2910 1.394 . S
C2911 C2912 1.383 . S
C2911 H2919 0.929 . S
C2912 C2911 1.383 . S
C2912 C2913 1.377 . S
C2913 H2897 0.930 . S
C2913 C2912 1.377 . S
C2913 C2914 1.379 . S
C2914 H2898 0.931 . S
C2914 C2908 1.383 . S
C2914 C2913 1.379 . S
H2915 C2909 0.959 . S
H2916 C2909 0.961 . S
H2917 C2909 0.960 . S
H2918 C2910 0.930 . S
H2919 C2911 0.929 . S
H2920 C2928 0.929 . S
H2921 C2930 0.930 . S
H2922 C2932 0.930 . S
H2923 C2935 0.929 . S
H2924 C2938 0.930 . S
H2925 C2940 0.960 . S
H2926 C2940 0.960 . S
H2927 C2940 0.960 . S
C2928 H2920 0.929 . S
C2928 C2929 1.377 . S
C2928 C2930 1.384 . S
C2929 C2928 1.377 . S
C2929 C2935 1.390 . S
C2930 H2921 0.930 . S
C2930 C2928 1.384 . S
C2930 C2931 1.372 . S
C2931 C2930 1.372 . S
C2931 C2932 1.400 . S
C2931 C2936 1.490 . S
C2932 H2922 0.930 . S
C2932 C2931 1.400 . S
C2932 C2935 1.386 . S
H2933 C2949 0.930 . S
H2934 C2950 0.931 . S
C2935 H2923 0.929 . S
C2935 C2929 1.390 . S
C2935 C2932 1.386 . S
C2936 C2931 1.490 . S
C2936 C2938 1.395 . S
C2936 C2939 1.403 1_455 S
H2937 C2943 0.930 . S
C2938 H2924 0.930 . S
C2938 C2936 1.395 . S
C2938 C2941 1.403 . S
C2939 C2936 1.403 1_655 S
C2939 C2940 1.524 . S
C2939 C2943 1.400 . S
C2940 H2925 0.960 . S
C2940 H2926 0.960 . S
C2940 H2927 0.960 . S
C2940 C2939 1.524 . S
C2941 C2938 1.403 . S
C2941 C2942 1.392 . S
C2941 C2945 1.495 . S
C2942 C2941 1.392 . S
C2942 C2943 1.385 1_455 S
C2942 C2944 1.478 . S
C2943 H2937 0.930 . S
C2943 C2939 1.400 . S
C2943 C2942 1.385 1_655 S
C2944 C2942 1.478 . S
C2944 C2946 1.381 . S
C2944 C2950 1.383 . S
C2945 C2941 1.495 . S
C2945 H2951 0.959 . S
C2945 H2952 0.961 . S
C2945 H2953 0.960 . S
C2946 C2944 1.381 . S
C2946 C2947 1.394 . S
C2946 H2954 0.930 . S
C2947 C2946 1.394 . S
C2947 C2948 1.383 . S
C2947 H2955 0.929 . S
C2948 C2947 1.383 . S
C2948 C2949 1.377 . S
C2949 H2933 0.930 . S
C2949 C2948 1.377 . S
C2949 C2950 1.379 . S
C2950 H2934 0.931 . S
C2950 C2944 1.383 . S
C2950 C2949 1.379 . S
H2951 C2945 0.959 . S
H2952 C2945 0.961 . S
H2953 C2945 0.960 . S
H2954 C2946 0.930 . S
H2955 C2947 0.929 . S
H2956 C2964 0.929 . S
H2957 C2966 0.930 . S
H2958 C2968 0.930 . S
H2959 C2971 0.929 . S
H2960 C2974 0.930 . S
H2961 C2976 0.960 . S
H2962 C2976 0.960 . S
H2963 C2976 0.960 . S
C2964 H2956 0.929 . S
C2964 C2965 1.377 . S
C2964 C2966 1.384 . S
C2965 C2964 1.377 . S
C2965 C2971 1.390 . S
C2966 H2957 0.930 . S
C2966 C2964 1.384 . S
C2966 C2967 1.372 . S
C2967 C2966 1.372 . S
C2967 C2968 1.400 . S
C2967 C2972 1.490 . S
C2968 H2958 0.930 . S
C2968 C2967 1.400 . S
C2968 C2971 1.386 . S
H2969 C2985 0.930 . S
H2970 C2986 0.931 . S
C2971 H2959 0.929 . S
C2971 C2965 1.390 . S
C2971 C2968 1.386 . S
C2972 C2967 1.490 . S
C2972 C2974 1.395 . S
C2972 C2975 1.403 . S
H2973 C2979 0.930 . S
C2974 H2960 0.930 . S
C2974 C2972 1.395 . S
C2974 C2977 1.403 . S
C2975 C2972 1.403 . S
C2975 C2976 1.524 . S
C2975 C2979 1.400 . S
C2976 H2961 0.960 . S
C2976 H2962 0.960 . S
C2976 H2963 0.960 . S
C2976 C2975 1.524 . S
C2977 C2974 1.403 . S
C2977 C2978 1.392 . S
C2977 C2981 1.495 . S
C2978 C2977 1.392 . S
C2978 C2979 1.385 . S
C2978 C2980 1.478 . S
C2979 H2973 0.930 . S
C2979 C2975 1.400 . S
C2979 C2978 1.385 . S
C2980 C2978 1.478 . S
C2980 C2982 1.381 . S
C2980 C2986 1.383 . S
C2981 C2977 1.495 . S
C2981 H2987 0.959 . S
C2981 H2988 0.961 . S
C2981 H2989 0.960 . S
C2982 C2980 1.381 . S
C2982 C2983 1.394 . S
C2982 H2990 0.930 . S
C2983 C2982 1.394 . S
C2983 C2984 1.383 . S
C2983 H2991 0.929 . S
C2984 C2983 1.383 . S
C2984 C2985 1.377 . S
C2985 H2969 0.930 . S
C2985 C2984 1.377 . S
C2985 C2986 1.379 . S
C2986 H2970 0.931 . S
C2986 C2980 1.383 . S
C2986 C2985 1.379 . S
H2987 C2981 0.959 . S
H2988 C2981 0.961 . S
H2989 C2981 0.960 . S
H2990 C2982 0.930 . S
H2991 C2983 0.929 . S
H2992 C3000 0.929 . S
H2993 C3002 0.930 . S
H2994 C3004 0.930 . S
H2995 C3007 0.929 . S
H2996 C3010 0.930 . S
H2997 C3012 0.960 . S
H2998 C3012 0.960 . S
H2999 C3012 0.960 . S
C3000 H2992 0.929 . S
C3000 C3001 1.377 . S
C3000 C3002 1.384 . S
C3001 C3000 1.377 . S
C3001 C3007 1.390 . S
C3002 H2993 0.930 . S
C3002 C3000 1.384 . S
C3002 C3003 1.372 . S
C3003 C3002 1.372 . S
C3003 C3004 1.400 . S
C3003 C3008 1.490 . S
C3004 H2994 0.930 . S
C3004 C3003 1.400 . S
C3004 C3007 1.386 . S
H3005 C3021 0.930 . S
H3006 C3022 0.931 . S
C3007 H2995 0.929 . S
C3007 C3001 1.390 . S
C3007 C3004 1.386 . S
C3008 C3003 1.490 . S
C3008 C3010 1.395 . S
C3008 C3011 1.403 . S
H3009 C3015 0.930 . S
C3010 H2996 0.930 . S
C3010 C3008 1.395 . S
C3010 C3013 1.403 . S
C3011 C3008 1.403 . S
C3011 C3012 1.524 . S
C3011 C3015 1.400 . S
C3012 H2997 0.960 . S
C3012 H2998 0.960 . S
C3012 H2999 0.960 . S
C3012 C3011 1.524 . S
C3013 C3010 1.403 . S
C3013 C3014 1.392 . S
C3013 C3017 1.495 . S
C3014 C3013 1.392 . S
C3014 C3015 1.385 . S
C3014 C3016 1.478 . S
C3015 H3009 0.930 . S
C3015 C3011 1.400 . S
C3015 C3014 1.385 . S
C3016 C3014 1.478 . S
C3016 C3018 1.381 . S
C3016 C3022 1.383 . S
C3017 C3013 1.495 . S
C3017 H3023 0.959 . S
C3017 H3024 0.961 . S
C3017 H3025 0.960 . S
C3018 C3016 1.381 . S
C3018 C3019 1.394 . S
C3018 H3026 0.930 . S
C3019 C3018 1.394 . S
C3019 C3020 1.383 . S
C3019 H3027 0.929 . S
C3020 C3019 1.383 . S
C3020 C3021 1.377 . S
C3021 H3005 0.930 . S
C3021 C3020 1.377 . S
C3021 C3022 1.379 . S
C3022 H3006 0.931 . S
C3022 C3016 1.383 . S
C3022 C3021 1.379 . S
H3023 C3017 0.959 . S
H3024 C3017 0.961 . S
H3025 C3017 0.960 . S
H3026 C3018 0.930 . S
H3027 C3019 0.929 . S
H3028 C3036 0.929 . S
H3029 C3038 0.930 . S
H3030 C3040 0.930 . S
H3031 C3043 0.929 . S
H3032 C3046 0.930 . S
H3033 C3048 0.960 . S
H3034 C3048 0.960 . S
H3035 C3048 0.960 . S
C3036 H3028 0.929 . S
C3036 C3037 1.377 1_556 S
C3036 C3038 1.384 . S
C3037 C3036 1.377 1_554 S
C3037 C3043 1.390 . S
C3038 H3029 0.930 . S
C3038 C3036 1.384 . S
C3038 C3039 1.372 . S
C3039 C3038 1.372 . S
C3039 C3040 1.400 . S
C3039 C3044 1.490 . S
C3040 H3030 0.930 . S
C3040 C3039 1.400 . S
C3040 C3043 1.386 1_556 S
H3041 C3057 0.930 . S
H3042 C3058 0.931 . S
C3043 H3031 0.929 . S
C3043 C3037 1.390 . S
C3043 C3040 1.386 1_554 S
C3044 C3039 1.490 . S
C3044 C3046 1.395 . S
C3044 C3047 1.403 . S
H3045 C3051 0.930 . S
C3046 H3032 0.930 . S
C3046 C3044 1.395 . S
C3046 C3049 1.403 . S
C3047 C3044 1.403 . S
C3047 C3048 1.524 . S
C3047 C3051 1.400 . S
C3048 H3033 0.960 . S
C3048 H3034 0.960 . S
C3048 H3035 0.960 . S
C3048 C3047 1.524 . S
C3049 C3046 1.403 . S
C3049 C3050 1.392 . S
C3049 C3053 1.495 . S
C3050 C3049 1.392 . S
C3050 C3051 1.385 . S
C3050 C3052 1.478 . S
C3051 H3045 0.930 . S
C3051 C3047 1.400 . S
C3051 C3050 1.385 . S
C3052 C3050 1.478 . S
C3052 C3054 1.381 . S
C3052 C3058 1.383 . S
C3053 C3049 1.495 . S
C3053 H3059 0.959 . S
C3053 H3060 0.961 . S
C3053 H3061 0.960 . S
C3054 C3052 1.381 . S
C3054 C3055 1.394 . S
C3054 H3062 0.930 . S
C3055 C3054 1.394 . S
C3055 C3056 1.383 . S
C3055 H3063 0.929 . S
C3056 C3055 1.383 . S
C3056 C3057 1.377 . S
C3057 H3041 0.930 . S
C3057 C3056 1.377 . S
C3057 C3058 1.379 . S
C3058 H3042 0.931 . S
C3058 C3052 1.383 . S
C3058 C3057 1.379 . S
H3059 C3053 0.959 . S
H3060 C3053 0.961 . S
H3061 C3053 0.960 . S
H3062 C3054 0.930 . S
H3063 C3055 0.929 . S
H3064 C3072 0.929 . S
H3065 C3074 0.930 . S
H3066 C3076 0.930 . S
H3067 C3079 0.929 . S
H3068 C3082 0.930 . S
H3069 C3084 0.960 . S
H3070 C3084 0.960 . S
H3071 C3084 0.960 . S
C3072 H3064 0.929 . S
C3072 C3073 1.377 . S
C3072 C3074 1.384 . S
C3073 C3072 1.377 . S
C3073 C3079 1.390 . S
C3074 H3065 0.930 . S
C3074 C3072 1.384 . S
C3074 C3075 1.372 . S
C3075 C3074 1.372 . S
C3075 C3076 1.400 . S
C3075 C3080 1.490 . S
C3076 H3066 0.930 . S
C3076 C3075 1.400 . S
C3076 C3079 1.386 . S
H3077 C3093 0.930 . S
H3078 C3094 0.931 . S
C3079 H3067 0.929 . S
C3079 C3073 1.390 . S
C3079 C3076 1.386 . S
C3080 C3075 1.490 . S
C3080 C3082 1.395 . S
C3080 C3083 1.403 . S
H3081 C3087 0.930 . S
C3082 H3068 0.930 . S
C3082 C3080 1.395 . S
C3082 C3085 1.403 . S
C3083 C3080 1.403 . S
C3083 C3084 1.524 . S
C3083 C3087 1.400 . S
C3084 H3069 0.960 . S
C3084 H3070 0.960 . S
C3084 H3071 0.960 . S
C3084 C3083 1.524 . S
C3085 C3082 1.403 . S
C3085 C3086 1.392 . S
C3085 C3089 1.495 . S
C3086 C3085 1.392 . S
C3086 C3087 1.385 . S
C3086 C3088 1.478 . S
C3087 H3081 0.930 . S
C3087 C3083 1.400 . S
C3087 C3086 1.385 . S
C3088 C3086 1.478 . S
C3088 C3090 1.381 . S
C3088 C3094 1.383 . S
C3089 C3085 1.495 . S
C3089 H3095 0.959 . S
C3089 H3096 0.961 . S
C3089 H3097 0.960 . S
C3090 C3088 1.381 . S
C3090 C3091 1.394 . S
C3090 H3098 0.930 . S
C3091 C3090 1.394 . S
C3091 C3092 1.383 . S
C3091 H3099 0.929 . S
C3092 C3091 1.383 . S
C3092 C3093 1.377 . S
C3093 H3077 0.930 . S
C3093 C3092 1.377 . S
C3093 C3094 1.379 . S
C3094 H3078 0.931 . S
C3094 C3088 1.383 . S
C3094 C3093 1.379 . S
H3095 C3089 0.959 . S
H3096 C3089 0.961 . S
H3097 C3089 0.960 . S
H3098 C3090 0.930 . S
H3099 C3091 0.929 . S
H3100 C3108 0.929 . S
H3101 C3110 0.930 . S
H3102 C3112 0.930 . S
H3103 C3115 0.929 . S
H3104 C3118 0.930 . S
H3105 C3120 0.960 . S
H3106 C3120 0.960 . S
H3107 C3120 0.960 . S
C3108 H3100 0.929 . S
C3108 C3109 1.377 . S
C3108 C3110 1.384 . S
C3109 C3108 1.377 . S
C3109 C3115 1.390 . S
C3110 H3101 0.930 . S
C3110 C3108 1.384 . S
C3110 C3111 1.372 . S
C3111 C3110 1.372 . S
C3111 C3112 1.400 . S
C3111 C3116 1.490 . S
C3112 H3102 0.930 . S
C3112 C3111 1.400 . S
C3112 C3115 1.386 . S
H3113 C3129 0.930 . S
H3114 C3130 0.931 . S
C3115 H3103 0.929 . S
C3115 C3109 1.390 . S
C3115 C3112 1.386 . S
C3116 C3111 1.490 . S
C3116 C3118 1.395 . S
C3116 C3119 1.403 . S
H3117 C3123 0.930 . S
C3118 H3104 0.930 . S
C3118 C3116 1.395 . S
C3118 C3121 1.403 . S
C3119 C3116 1.403 . S
C3119 C3120 1.524 . S
C3119 C3123 1.400 . S
C3120 H3105 0.960 . S
C3120 H3106 0.960 . S
C3120 H3107 0.960 . S
C3120 C3119 1.524 . S
C3121 C3118 1.403 . S
C3121 C3122 1.392 . S
C3121 C3125 1.495 . S
C3122 C3121 1.392 . S
C3122 C3123 1.385 . S
C3122 C3124 1.478 . S
C3123 H3117 0.930 . S
C3123 C3119 1.400 . S
C3123 C3122 1.385 . S
C3124 C3122 1.478 . S
C3124 C3126 1.381 . S
C3124 C3130 1.383 . S
C3125 C3121 1.495 . S
C3125 H3131 0.959 . S
C3125 H3132 0.961 . S
C3125 H3133 0.960 . S
C3126 C3124 1.381 . S
C3126 C3127 1.394 . S
C3126 H3134 0.930 . S
C3127 C3126 1.394 . S
C3127 C3128 1.383 . S
C3127 H3135 0.929 . S
C3128 C3127 1.383 . S
C3128 C3129 1.377 . S
C3129 H3113 0.930 . S
C3129 C3128 1.377 . S
C3129 C3130 1.379 . S
C3130 H3114 0.931 . S
C3130 C3124 1.383 . S
C3130 C3129 1.379 . S
H3131 C3125 0.959 . S
H3132 C3125 0.961 . S
H3133 C3125 0.960 . S
H3134 C3126 0.930 . S
H3135 C3127 0.929 . S
H3136 C3144 0.929 . S
H3137 C3146 0.930 . S
H3138 C3148 0.930 . S
H3139 C3151 0.929 . S
H3140 C3154 0.930 . S
H3141 C3156 0.960 . S
H3142 C3156 0.960 . S
H3143 C3156 0.960 . S
C3144 H3136 0.929 . S
C3144 C3145 1.377 . S
C3144 C3146 1.384 . S
C3145 C3144 1.377 . S
C3145 C3151 1.390 . S
C3146 H3137 0.930 . S
C3146 C3144 1.384 . S
C3146 C3147 1.372 . S
C3147 C3146 1.372 . S
C3147 C3148 1.400 . S
C3147 C3152 1.490 . S
C3148 H3138 0.930 . S
C3148 C3147 1.400 . S
C3148 C3151 1.386 . S
H3149 C3165 0.930 . S
H3150 C3166 0.931 . S
C3151 H3139 0.929 . S
C3151 C3145 1.390 . S
C3151 C3148 1.386 . S
C3152 C3147 1.490 . S
C3152 C3154 1.395 . S
C3152 C3155 1.403 . S
H3153 C3159 0.930 . S
C3154 H3140 0.930 . S
C3154 C3152 1.395 . S
C3154 C3157 1.403 . S
C3155 C3152 1.403 . S
C3155 C3156 1.524 . S
C3155 C3159 1.400 . S
C3156 H3141 0.960 . S
C3156 H3142 0.960 . S
C3156 H3143 0.960 . S
C3156 C3155 1.524 . S
C3157 C3154 1.403 . S
C3157 C3158 1.392 . S
C3157 C3161 1.495 . S
C3158 C3157 1.392 . S
C3158 C3159 1.385 . S
C3158 C3160 1.478 . S
C3159 H3153 0.930 . S
C3159 C3155 1.400 . S
C3159 C3158 1.385 . S
C3160 C3158 1.478 . S
C3160 C3162 1.381 . S
C3160 C3166 1.383 . S
C3161 C3157 1.495 . S
C3161 H3167 0.959 . S
C3161 H3168 0.961 . S
C3161 H3169 0.960 . S
C3162 C3160 1.381 . S
C3162 C3163 1.394 . S
C3162 H3170 0.930 . S
C3163 C3162 1.394 . S
C3163 C3164 1.383 . S
C3163 H3171 0.929 . S
C3164 C3163 1.383 . S
C3164 C3165 1.377 . S
C3165 H3149 0.930 . S
C3165 C3164 1.377 . S
C3165 C3166 1.379 . S
C3166 H3150 0.931 . S
C3166 C3160 1.383 . S
C3166 C3165 1.379 . S
H3167 C3161 0.959 . S
H3168 C3161 0.961 . S
H3169 C3161 0.960 . S
H3170 C3162 0.930 . S
H3171 C3163 0.929 . S
H3172 C3180 0.929 . S
H3173 C3182 0.930 . S
H3174 C3184 0.930 . S
H3175 C3187 0.929 . S
H3176 C3190 0.930 . S
H3177 C3192 0.960 . S
H3178 C3192 0.960 . S
H3179 C3192 0.960 . S
C3180 H3172 0.929 . S
C3180 C3181 1.377 . S
C3180 C3182 1.384 . S
C3181 C3180 1.377 . S
C3181 C3187 1.390 . S
C3182 H3173 0.930 . S
C3182 C3180 1.384 . S
C3182 C3183 1.372 . S
C3183 C3182 1.372 . S
C3183 C3184 1.400 . S
C3183 C3188 1.490 . S
C3184 H3174 0.930 . S
C3184 C3183 1.400 . S
C3184 C3187 1.386 . S
H3185 C3201 0.930 . S
H3186 C3202 0.931 . S
C3187 H3175 0.929 . S
C3187 C3181 1.390 . S
C3187 C3184 1.386 . S
C3188 C3183 1.490 . S
C3188 C3190 1.395 . S
C3188 C3191 1.403 . S
H3189 C3195 0.930 . S
C3190 H3176 0.930 . S
C3190 C3188 1.395 . S
C3190 C3193 1.403 . S
C3191 C3188 1.403 . S
C3191 C3192 1.524 . S
C3191 C3195 1.400 . S
C3192 H3177 0.960 . S
C3192 H3178 0.960 . S
C3192 H3179 0.960 . S
C3192 C3191 1.524 . S
C3193 C3190 1.403 . S
C3193 C3194 1.392 . S
C3193 C3197 1.495 . S
C3194 C3193 1.392 . S
C3194 C3195 1.385 . S
C3194 C3196 1.478 . S
C3195 H3189 0.930 . S
C3195 C3191 1.400 . S
C3195 C3194 1.385 . S
C3196 C3194 1.478 . S
C3196 C3198 1.381 . S
C3196 C3202 1.383 . S
C3197 C3193 1.495 . S
C3197 H3203 0.959 . S
C3197 H3204 0.961 . S
C3197 H3205 0.960 . S
C3198 C3196 1.381 . S
C3198 C3199 1.394 . S
C3198 H3206 0.930 . S
C3199 C3198 1.394 . S
C3199 C3200 1.383 . S
C3199 H3207 0.929 . S
C3200 C3199 1.383 . S
C3200 C3201 1.377 . S
C3201 H3185 0.930 . S
C3201 C3200 1.377 . S
C3201 C3202 1.379 . S
C3202 H3186 0.931 . S
C3202 C3196 1.383 . S
C3202 C3201 1.379 . S
H3203 C3197 0.959 . S
H3204 C3197 0.961 . S
H3205 C3197 0.960 . S
H3206 C3198 0.930 . S
H3207 C3199 0.929 . S
H3208 C3216 0.929 . S
H3209 C3218 0.930 . S
H3210 C3220 0.930 . S
H3211 C3223 0.929 . S
H3212 C3226 0.930 . S
H3213 C3228 0.960 . S
H3214 C3228 0.960 . S
H3215 C3228 0.960 . S
C3216 H3208 0.929 . S
C3216 C3217 1.377 . S
C3216 C3218 1.384 . S
C3217 C3216 1.377 . S
C3217 C3223 1.390 . S
C3218 H3209 0.930 . S
C3218 C3216 1.384 . S
C3218 C3219 1.372 . S
C3219 C3218 1.372 . S
C3219 C3220 1.400 . S
C3219 C3224 1.490 . S
C3220 H3210 0.930 . S
C3220 C3219 1.400 . S
C3220 C3223 1.386 . S
H3221 C3237 0.930 . S
H3222 C3238 0.931 . S
C3223 H3211 0.929 . S
C3223 C3217 1.390 . S
C3223 C3220 1.386 . S
C3224 C3219 1.490 . S
C3224 C3226 1.395 . S
C3224 C3227 1.403 . S
H3225 C3231 0.930 . S
C3226 H3212 0.930 . S
C3226 C3224 1.395 . S
C3226 C3229 1.403 . S
C3227 C3224 1.403 . S
C3227 C3228 1.524 . S
C3227 C3231 1.400 . S
C3228 H3213 0.960 . S
C3228 H3214 0.960 . S
C3228 H3215 0.960 . S
C3228 C3227 1.524 . S
C3229 C3226 1.403 . S
C3229 C3230 1.392 . S
C3229 C3233 1.495 . S
C3230 C3229 1.392 . S
C3230 C3231 1.385 . S
C3230 C3232 1.478 . S
C3231 H3225 0.930 . S
C3231 C3227 1.400 . S
C3231 C3230 1.385 . S
C3232 C3230 1.478 . S
C3232 C3234 1.381 . S
C3232 C3238 1.383 . S
C3233 C3229 1.495 . S
C3233 H3239 0.959 . S
C3233 H3240 0.961 . S
C3233 H3241 0.960 . S
C3234 C3232 1.381 . S
C3234 C3235 1.394 . S
C3234 H3242 0.930 . S
C3235 C3234 1.394 . S
C3235 C3236 1.383 . S
C3235 H3243 0.929 . S
C3236 C3235 1.383 . S
C3236 C3237 1.377 . S
C3237 H3221 0.930 . S
C3237 C3236 1.377 . S
C3237 C3238 1.379 . S
C3238 H3222 0.931 . S
C3238 C3232 1.383 . S
C3238 C3237 1.379 . S
H3239 C3233 0.959 . S
H3240 C3233 0.961 . S
H3241 C3233 0.960 . S
H3242 C3234 0.930 . S
H3243 C3235 0.929 . S
H3244 C3252 0.929 . S
H3245 C3254 0.930 . S
H3246 C3256 0.930 . S
H3247 C3259 0.929 . S
H3248 C3262 0.930 . S
H3249 C3264 0.960 . S
H3250 C3264 0.960 . S
H3251 C3264 0.960 . S
C3252 H3244 0.929 . S
C3252 C3253 1.377 . S
C3252 C3254 1.384 . S
C3253 C3252 1.377 . S
C3253 C3259 1.390 . S
C3254 H3245 0.930 . S
C3254 C3252 1.384 . S
C3254 C3255 1.372 . S
C3255 C3254 1.372 . S
C3255 C3256 1.400 . S
C3255 C3260 1.490 . S
C3256 H3246 0.930 . S
C3256 C3255 1.400 . S
C3256 C3259 1.386 . S
H3257 C3273 0.930 . S
H3258 C3274 0.931 . S
C3259 H3247 0.929 . S
C3259 C3253 1.390 . S
C3259 C3256 1.386 . S
C3260 C3255 1.490 . S
C3260 C3262 1.395 . S
C3260 C3263 1.403 . S
H3261 C3267 0.930 . S
C3262 H3248 0.930 . S
C3262 C3260 1.395 . S
C3262 C3265 1.403 . S
C3263 C3260 1.403 . S
C3263 C3264 1.524 . S
C3263 C3267 1.400 . S
C3264 H3249 0.960 . S
C3264 H3250 0.960 . S
C3264 H3251 0.960 . S
C3264 C3263 1.524 . S
C3265 C3262 1.403 . S
C3265 C3266 1.392 . S
C3265 C3269 1.495 . S
C3266 C3265 1.392 . S
C3266 C3267 1.385 . S
C3266 C3268 1.478 . S
C3267 H3261 0.930 . S
C3267 C3263 1.400 . S
C3267 C3266 1.385 . S
C3268 C3266 1.478 . S
C3268 C3270 1.381 . S
C3268 C3274 1.383 . S
C3269 C3265 1.495 . S
C3269 H3275 0.959 . S
C3269 H3276 0.961 . S
C3269 H3277 0.960 . S
C3270 C3268 1.381 . S
C3270 C3271 1.394 . S
C3270 H3278 0.930 . S
C3271 C3270 1.394 . S
C3271 C3272 1.383 . S
C3271 H3279 0.929 . S
C3272 C3271 1.383 . S
C3272 C3273 1.377 . S
C3273 H3257 0.930 . S
C3273 C3272 1.377 . S
C3273 C3274 1.379 . S
C3274 H3258 0.931 . S
C3274 C3268 1.383 . S
C3274 C3273 1.379 . S
H3275 C3269 0.959 . S
H3276 C3269 0.961 . S
H3277 C3269 0.960 . S
H3278 C3270 0.930 . S
H3279 C3271 0.929 . S
H3280 C3288 0.929 . S
H3281 C3290 0.930 . S
H3282 C3292 0.930 . S
H3283 C3295 0.929 . S
H3284 C3298 0.930 . S
H3285 C3300 0.960 . S
H3286 C3300 0.960 . S
H3287 C3300 0.960 . S
C3288 H3280 0.929 . S
C3288 C3289 1.377 . S
C3288 C3290 1.384 . S
C3289 C3288 1.377 . S
C3289 C3295 1.390 . S
C3290 H3281 0.930 . S
C3290 C3288 1.384 . S
C3290 C3291 1.372 . S
C3291 C3290 1.372 . S
C3291 C3292 1.400 . S
C3291 C3296 1.490 . S
C3292 H3282 0.930 . S
C3292 C3291 1.400 . S
C3292 C3295 1.386 . S
H3293 C3309 0.930 . S
H3294 C3310 0.931 . S
C3295 H3283 0.929 . S
C3295 C3289 1.390 . S
C3295 C3292 1.386 . S
C3296 C3291 1.490 . S
C3296 C3298 1.395 . S
C3296 C3299 1.403 . S
H3297 C3303 0.930 . S
C3298 H3284 0.930 . S
C3298 C3296 1.395 . S
C3298 C3301 1.403 . S
C3299 C3296 1.403 . S
C3299 C3300 1.524 . S
C3299 C3303 1.400 . S
C3300 H3285 0.960 . S
C3300 H3286 0.960 . S
C3300 H3287 0.960 . S
C3300 C3299 1.524 . S
C3301 C3298 1.403 . S
C3301 C3302 1.392 . S
C3301 C3305 1.495 . S
C3302 C3301 1.392 . S
C3302 C3303 1.385 . S
C3302 C3304 1.478 . S
C3303 H3297 0.930 . S
C3303 C3299 1.400 . S
C3303 C3302 1.385 . S
C3304 C3302 1.478 . S
C3304 C3306 1.381 . S
C3304 C3310 1.383 . S
C3305 C3301 1.495 . S
C3305 H3311 0.959 . S
C3305 H3312 0.961 . S
C3305 H3313 0.960 . S
C3306 C3304 1.381 . S
C3306 C3307 1.394 . S
C3306 H3314 0.930 . S
C3307 C3306 1.394 . S
C3307 C3308 1.383 . S
C3307 H3315 0.929 . S
C3308 C3307 1.383 . S
C3308 C3309 1.377 . S
C3309 H3293 0.930 . S
C3309 C3308 1.377 . S
C3309 C3310 1.379 . S
C3310 H3294 0.931 . S
C3310 C3304 1.383 . S
C3310 C3309 1.379 . S
H3311 C3305 0.959 . S
H3312 C3305 0.961 . S
H3313 C3305 0.960 . S
H3314 C3306 0.930 . S
H3315 C3307 0.929 . S
H3316 C3324 0.929 . S
H3317 C3326 0.930 . S
H3318 C3328 0.930 . S
H3319 C3331 0.929 . S
H3320 C3334 0.930 . S
H3321 C3336 0.960 . S
H3322 C3336 0.960 . S
H3323 C3336 0.960 . S
C3324 H3316 0.929 . S
C3324 C3325 1.377 . S
C3324 C3326 1.384 . S
C3325 C3324 1.377 . S
C3325 C3331 1.390 . S
C3326 H3317 0.930 . S
C3326 C3324 1.384 . S
C3326 C3327 1.372 . S
C3327 C3326 1.372 . S
C3327 C3328 1.400 . S
C3327 C3332 1.490 . S
C3328 H3318 0.930 . S
C3328 C3327 1.400 . S
C3328 C3331 1.386 . S
H3329 C3345 0.930 . S
H3330 C3346 0.931 . S
C3331 H3319 0.929 . S
C3331 C3325 1.390 . S
C3331 C3328 1.386 . S
C3332 C3327 1.490 . S
C3332 C3334 1.395 . S
C3332 C3335 1.403 . S
H3333 C3339 0.930 . S
C3334 H3320 0.930 . S
C3334 C3332 1.395 . S
C3334 C3337 1.403 . S
C3335 C3332 1.403 . S
C3335 C3336 1.524 . S
C3335 C3339 1.400 . S
C3336 H3321 0.960 . S
C3336 H3322 0.960 . S
C3336 H3323 0.960 . S
C3336 C3335 1.524 . S
C3337 C3334 1.403 . S
C3337 C3338 1.392 . S
C3337 C3341 1.495 . S
C3338 C3337 1.392 . S
C3338 C3339 1.385 . S
C3338 C3340 1.478 . S
C3339 H3333 0.930 . S
C3339 C3335 1.400 . S
C3339 C3338 1.385 . S
C3340 C3338 1.478 . S
C3340 C3342 1.381 . S
C3340 C3346 1.383 . S
C3341 C3337 1.495 . S
C3341 H3347 0.959 . S
C3341 H3348 0.961 . S
C3341 H3349 0.960 . S
C3342 C3340 1.381 . S
C3342 C3343 1.394 . S
C3342 H3350 0.930 . S
C3343 C3342 1.394 . S
C3343 C3344 1.383 . S
C3343 H3351 0.929 . S
C3344 C3343 1.383 . S
C3344 C3345 1.377 . S
C3345 H3329 0.930 . S
C3345 C3344 1.377 . S
C3345 C3346 1.379 . S
C3346 H3330 0.931 . S
C3346 C3340 1.383 . S
C3346 C3345 1.379 . S
H3347 C3341 0.959 . S
H3348 C3341 0.961 . S
H3349 C3341 0.960 . S
H3350 C3342 0.930 . S
H3351 C3343 0.929 . S
H3352 C3360 0.929 . S
H3353 C3362 0.930 . S
H3354 C3364 0.930 . S
H3355 C3367 0.929 . S
H3356 C3370 0.930 . S
H3357 C3372 0.960 . S
H3358 C3372 0.960 . S
H3359 C3372 0.960 . S
C3360 H3352 0.929 . S
C3360 C3361 1.377 . S
C3360 C3362 1.384 . S
C3361 C3360 1.377 . S
C3361 C3367 1.390 . S
C3362 H3353 0.930 . S
C3362 C3360 1.384 . S
C3362 C3363 1.372 . S
C3363 C3362 1.372 . S
C3363 C3364 1.400 . S
C3363 C3368 1.490 . S
C3364 H3354 0.930 . S
C3364 C3363 1.400 . S
C3364 C3367 1.386 . S
H3365 C3381 0.930 . S
H3366 C3382 0.931 . S
C3367 H3355 0.929 . S
C3367 C3361 1.390 . S
C3367 C3364 1.386 . S
C3368 C3363 1.490 . S
C3368 C3370 1.395 . S
C3368 C3371 1.403 . S
H3369 C3375 0.930 . S
C3370 H3356 0.930 . S
C3370 C3368 1.395 . S
C3370 C3373 1.403 . S
C3371 C3368 1.403 . S
C3371 C3372 1.524 . S
C3371 C3375 1.400 . S
C3372 H3357 0.960 . S
C3372 H3358 0.960 . S
C3372 H3359 0.960 . S
C3372 C3371 1.524 . S
C3373 C3370 1.403 . S
C3373 C3374 1.392 . S
C3373 C3377 1.495 . S
C3374 C3373 1.392 . S
C3374 C3375 1.385 . S
C3374 C3376 1.478 . S
C3375 H3369 0.930 . S
C3375 C3371 1.400 . S
C3375 C3374 1.385 . S
C3376 C3374 1.478 . S
C3376 C3378 1.381 . S
C3376 C3382 1.383 . S
C3377 C3373 1.495 . S
C3377 H3383 0.959 . S
C3377 H3384 0.961 . S
C3377 H3385 0.960 . S
C3378 C3376 1.381 . S
C3378 C3379 1.394 . S
C3378 H3386 0.930 . S
C3379 C3378 1.394 . S
C3379 C3380 1.383 . S
C3379 H3387 0.929 . S
C3380 C3379 1.383 . S
C3380 C3381 1.377 . S
C3381 H3365 0.930 . S
C3381 C3380 1.377 . S
C3381 C3382 1.379 . S
C3382 H3366 0.931 . S
C3382 C3376 1.383 . S
C3382 C3381 1.379 . S
H3383 C3377 0.959 . S
H3384 C3377 0.961 . S
H3385 C3377 0.960 . S
H3386 C3378 0.930 . S
H3387 C3379 0.929 . S
H3388 C3396 0.929 . S
H3389 C3398 0.930 . S
H3390 C3400 0.930 . S
H3391 C3403 0.929 . S
H3392 C3406 0.930 1_556 S
H3393 C3408 0.960 . S
H3394 C3408 0.960 . S
H3395 C3408 0.960 . S
C3396 H3388 0.929 . S
C3396 C3397 1.377 . S
C3396 C3398 1.384 . S
C3397 C3396 1.377 . S
C3397 C3403 1.390 . S
C3398 H3389 0.930 . S
C3398 C3396 1.384 . S
C3398 C3399 1.372 . S
C3399 C3398 1.372 . S
C3399 C3400 1.400 . S
C3399 C3404 1.490 . S
C3400 H3390 0.930 . S
C3400 C3399 1.400 . S
C3400 C3403 1.386 . S
H3401 C3417 0.930 . S
H3402 C3418 0.931 . S
C3403 H3391 0.929 . S
C3403 C3397 1.390 . S
C3403 C3400 1.386 . S
C3404 C3399 1.490 . S
C3404 C3406 1.395 . S
C3404 C3407 1.403 . S
H3405 C3411 0.930 . S
C3406 H3392 0.930 1_554 S
C3406 C3404 1.395 . S
C3406 C3409 1.403 . S
C3407 C3404 1.403 . S
C3407 C3408 1.524 . S
C3407 C3411 1.400 . S
C3408 H3393 0.960 . S
C3408 H3394 0.960 . S
C3408 H3395 0.960 . S
C3408 C3407 1.524 . S
C3409 C3406 1.403 . S
C3409 C3410 1.392 . S
C3409 C3413 1.495 1_554 S
C3410 C3409 1.392 . S
C3410 C3411 1.385 . S
C3410 C3412 1.478 . S
C3411 H3405 0.930 . S
C3411 C3407 1.400 . S
C3411 C3410 1.385 . S
C3412 C3410 1.478 . S
C3412 C3414 1.381 . S
C3412 C3418 1.383 1_565 S
C3413 C3409 1.495 1_556 S
C3413 H3419 0.959 . S
C3413 H3420 0.961 . S
C3413 H3421 0.960 . S
C3414 C3412 1.381 . S
C3414 C3415 1.394 . S
C3414 H3422 0.930 . S
C3415 C3414 1.394 . S
C3415 C3416 1.383 1_565 S
C3415 H3423 0.929 . S
C3416 C3415 1.383 1_545 S
C3416 C3417 1.377 . S
C3417 H3401 0.930 . S
C3417 C3416 1.377 . S
C3417 C3418 1.379 . S
C3418 H3402 0.931 . S
C3418 C3412 1.383 1_545 S
C3418 C3417 1.379 . S
H3419 C3413 0.959 . S
H3420 C3413 0.961 . S
H3421 C3413 0.960 . S
H3422 C3414 0.930 . S
H3423 C3415 0.929 . S
H3424 C3432 0.929 . S
H3425 C3434 0.930 . S
H3426 C3436 0.930 . S
H3427 C3439 0.929 . S
H3428 C3442 0.930 . S
H3429 C3444 0.960 . S
H3430 C3444 0.960 . S
H3431 C3444 0.960 . S
C3432 H3424 0.929 . S
C3432 C3433 1.377 . S
C3432 C3434 1.384 . S
C3433 C3432 1.377 . S
C3433 C3439 1.390 . S
C3434 H3425 0.930 . S
C3434 C3432 1.384 . S
C3434 C3435 1.372 . S
C3435 C3434 1.372 . S
C3435 C3436 1.400 . S
C3435 C3440 1.490 . S
C3436 H3426 0.930 . S
C3436 C3435 1.400 . S
C3436 C3439 1.386 . S
H3437 C3453 0.930 . S
H3438 C3454 0.931 . S
C3439 H3427 0.929 . S
C3439 C3433 1.390 . S
C3439 C3436 1.386 . S
C3440 C3435 1.490 . S
C3440 C3442 1.395 . S
C3440 C3443 1.403 . S
H3441 C3447 0.930 . S
C3442 H3428 0.930 . S
C3442 C3440 1.395 . S
C3442 C3445 1.403 . S
C3443 C3440 1.403 . S
C3443 C3444 1.524 . S
C3443 C3447 1.400 . S
C3444 H3429 0.960 . S
C3444 H3430 0.960 . S
C3444 H3431 0.960 . S
C3444 C3443 1.524 . S
C3445 C3442 1.403 . S
C3445 C3446 1.392 . S
C3445 C3449 1.495 . S
C3446 C3445 1.392 . S
C3446 C3447 1.385 . S
C3446 C3448 1.478 . S
C3447 H3441 0.930 . S
C3447 C3443 1.400 . S
C3447 C3446 1.385 . S
C3448 C3446 1.478 . S
C3448 C3450 1.381 . S
C3448 C3454 1.383 . S
C3449 C3445 1.495 . S
C3449 H3455 0.959 . S
C3449 H3456 0.961 . S
C3449 H3457 0.960 . S
C3450 C3448 1.381 . S
C3450 C3451 1.394 . S
C3450 H3458 0.930 . S
C3451 C3450 1.394 . S
C3451 C3452 1.383 . S
C3451 H3459 0.929 . S
C3452 C3451 1.383 . S
C3452 C3453 1.377 . S
C3453 H3437 0.930 . S
C3453 C3452 1.377 . S
C3453 C3454 1.379 . S
C3454 H3438 0.931 . S
C3454 C3448 1.383 . S
C3454 C3453 1.379 . S
H3455 C3449 0.959 . S
H3456 C3449 0.961 . S
H3457 C3449 0.960 . S
H3458 C3450 0.930 . S
H3459 C3451 0.929 . S
H3460 C3468 0.929 . S
H3461 C3470 0.930 . S
H3462 C3472 0.930 . S
H3463 C3475 0.929 . S
H3464 C3478 0.930 . S
H3465 C3480 0.960 . S
H3466 C3480 0.960 . S
H3467 C3480 0.960 . S
C3468 H3460 0.929 . S
C3468 C3469 1.377 . S
C3468 C3470 1.384 . S
C3469 C3468 1.377 . S
C3469 C3475 1.390 . S
C3470 H3461 0.930 . S
C3470 C3468 1.384 . S
C3470 C3471 1.372 . S
C3471 C3470 1.372 . S
C3471 C3472 1.400 . S
C3471 C3476 1.490 . S
C3472 H3462 0.930 . S
C3472 C3471 1.400 . S
C3472 C3475 1.386 . S
H3473 C3489 0.930 . S
H3474 C3490 0.931 . S
C3475 H3463 0.929 . S
C3475 C3469 1.390 . S
C3475 C3472 1.386 . S
C3476 C3471 1.490 . S
C3476 C3478 1.395 . S
C3476 C3479 1.403 . S
H3477 C3483 0.930 . S
C3478 H3464 0.930 . S
C3478 C3476 1.395 . S
C3478 C3481 1.403 . S
C3479 C3476 1.403 . S
C3479 C3480 1.524 . S
C3479 C3483 1.400 . S
C3480 H3465 0.960 . S
C3480 H3466 0.960 . S
C3480 H3467 0.960 . S
C3480 C3479 1.524 . S
C3481 C3478 1.403 . S
C3481 C3482 1.392 . S
C3481 C3485 1.495 . S
C3482 C3481 1.392 . S
C3482 C3483 1.385 . S
C3482 C3484 1.478 . S
C3483 H3477 0.930 . S
C3483 C3479 1.400 . S
C3483 C3482 1.385 . S
C3484 C3482 1.478 . S
C3484 C3486 1.381 . S
C3484 C3490 1.383 . S
C3485 C3481 1.495 . S
C3485 H3491 0.959 . S
C3485 H3492 0.961 . S
C3485 H3493 0.960 . S
C3486 C3484 1.381 . S
C3486 C3487 1.394 . S
C3486 H3494 0.930 . S
C3487 C3486 1.394 . S
C3487 C3488 1.383 . S
C3487 H3495 0.929 . S
C3488 C3487 1.383 . S
C3488 C3489 1.377 . S
C3489 H3473 0.930 . S
C3489 C3488 1.377 . S
C3489 C3490 1.379 . S
C3490 H3474 0.931 . S
C3490 C3484 1.383 . S
C3490 C3489 1.379 . S
H3491 C3485 0.959 . S
H3492 C3485 0.961 . S
H3493 C3485 0.960 . S
H3494 C3486 0.930 . S
H3495 C3487 0.929 . S
H3496 C3504 0.929 . S
H3497 C3506 0.930 . S
H3498 C3508 0.930 . S
H3499 C3511 0.929 . S
H3500 C3514 0.930 . S
H3501 C3516 0.960 . S
H3502 C3516 0.960 . S
H3503 C3516 0.960 . S
C3504 H3496 0.929 . S
C3504 C3505 1.377 . S
C3504 C3506 1.384 . S
C3505 C3504 1.377 . S
C3505 C3511 1.390 . S
C3506 H3497 0.930 . S
C3506 C3504 1.384 . S
C3506 C3507 1.372 . S
C3507 C3506 1.372 . S
C3507 C3508 1.400 . S
C3507 C3512 1.490 . S
C3508 H3498 0.930 . S
C3508 C3507 1.400 . S
C3508 C3511 1.386 . S
H3509 C3525 0.930 . S
H3510 C3526 0.931 . S
C3511 H3499 0.929 . S
C3511 C3505 1.390 . S
C3511 C3508 1.386 . S
C3512 C3507 1.490 . S
C3512 C3514 1.395 . S
C3512 C3515 1.403 . S
H3513 C3519 0.930 . S
C3514 H3500 0.930 . S
C3514 C3512 1.395 . S
C3514 C3517 1.403 . S
C3515 C3512 1.403 . S
C3515 C3516 1.524 . S
C3515 C3519 1.400 . S
C3516 H3501 0.960 . S
C3516 H3502 0.960 . S
C3516 H3503 0.960 . S
C3516 C3515 1.524 . S
C3517 C3514 1.403 . S
C3517 C3518 1.392 . S
C3517 C3521 1.495 . S
C3518 C3517 1.392 . S
C3518 C3519 1.385 . S
C3518 C3520 1.478 . S
C3519 H3513 0.930 . S
C3519 C3515 1.400 . S
C3519 C3518 1.385 . S
C3520 C3518 1.478 . S
C3520 C3522 1.381 . S
C3520 C3526 1.383 . S
C3521 C3517 1.495 . S
C3521 H3527 0.959 . S
C3521 H3528 0.961 . S
C3521 H3529 0.960 . S
C3522 C3520 1.381 . S
C3522 C3523 1.394 . S
C3522 H3530 0.930 . S
C3523 C3522 1.394 . S
C3523 C3524 1.383 . S
C3523 H3531 0.929 . S
C3524 C3523 1.383 . S
C3524 C3525 1.377 . S
C3525 H3509 0.930 . S
C3525 C3524 1.377 . S
C3525 C3526 1.379 . S
C3526 H3510 0.931 . S
C3526 C3520 1.383 . S
C3526 C3525 1.379 . S
H3527 C3521 0.959 . S
H3528 C3521 0.961 . S
H3529 C3521 0.960 . S
H3530 C3522 0.930 . S
H3531 C3523 0.929 . S
H3532 C3540 0.929 . S
H3533 C3542 0.930 . S
H3534 C3544 0.930 . S
H3535 C3547 0.929 . S
H3536 C3550 0.930 . S
H3537 C3552 0.960 . S
H3538 C3552 0.960 . S
H3539 C3552 0.960 . S
C3540 H3532 0.929 . S
C3540 C3541 1.377 . S
C3540 C3542 1.384 . S
C3541 C3540 1.377 . S
C3541 C3547 1.390 . S
C3542 H3533 0.930 . S
C3542 C3540 1.384 . S
C3542 C3543 1.372 . S
C3543 C3542 1.372 . S
C3543 C3544 1.400 . S
C3543 C3548 1.490 . S
C3544 H3534 0.930 . S
C3544 C3543 1.400 . S
C3544 C3547 1.386 . S
H3545 C3561 0.930 . S
H3546 C3562 0.931 . S
C3547 H3535 0.929 . S
C3547 C3541 1.390 . S
C3547 C3544 1.386 . S
C3548 C3543 1.490 . S
C3548 C3550 1.395 . S
C3548 C3551 1.403 . S
H3549 C3555 0.930 . S
C3550 H3536 0.930 . S
C3550 C3548 1.395 . S
C3550 C3553 1.403 . S
C3551 C3548 1.403 . S
C3551 C3552 1.524 . S
C3551 C3555 1.400 . S
C3552 H3537 0.960 . S
C3552 H3538 0.960 . S
C3552 H3539 0.960 . S
C3552 C3551 1.524 . S
C3553 C3550 1.403 . S
C3553 C3554 1.392 . S
C3553 C3557 1.495 . S
C3554 C3553 1.392 . S
C3554 C3555 1.385 . S
C3554 C3556 1.478 . S
C3555 H3549 0.930 . S
C3555 C3551 1.400 . S
C3555 C3554 1.385 . S
C3556 C3554 1.478 . S
C3556 C3558 1.381 . S
C3556 C3562 1.383 . S
C3557 C3553 1.495 . S
C3557 H3563 0.959 . S
C3557 H3564 0.961 . S
C3557 H3565 0.960 . S
C3558 C3556 1.381 . S
C3558 C3559 1.394 . S
C3558 H3566 0.930 . S
C3559 C3558 1.394 . S
C3559 C3560 1.383 . S
C3559 H3567 0.929 . S
C3560 C3559 1.383 . S
C3560 C3561 1.377 . S
C3561 H3545 0.930 . S
C3561 C3560 1.377 . S
C3561 C3562 1.379 . S
C3562 H3546 0.931 . S
C3562 C3556 1.383 . S
C3562 C3561 1.379 . S
H3563 C3557 0.959 . S
H3564 C3557 0.961 . S
H3565 C3557 0.960 . S
H3566 C3558 0.930 . S
H3567 C3559 0.929 . S
H3568 C3576 0.929 . S
H3569 C3578 0.930 . S
H3570 C3580 0.930 . S
H3571 C3583 0.929 . S
H3572 C3586 0.930 . S
H3573 C3588 0.960 . S
H3574 C3588 0.960 . S
H3575 C3588 0.960 . S
C3576 H3568 0.929 . S
C3576 C3577 1.377 . S
C3576 C3578 1.384 . S
C3577 C3576 1.377 . S
C3577 C3583 1.390 . S
C3578 H3569 0.930 . S
C3578 C3576 1.384 . S
C3578 C3579 1.372 . S
C3579 C3578 1.372 . S
C3579 C3580 1.400 . S
C3579 C3584 1.490 . S
C3580 H3570 0.930 . S
C3580 C3579 1.400 . S
C3580 C3583 1.386 . S
H3581 C3597 0.930 . S
H3582 C3598 0.931 . S
C3583 H3571 0.929 . S
C3583 C3577 1.390 . S
C3583 C3580 1.386 . S
C3584 C3579 1.490 . S
C3584 C3586 1.395 . S
C3584 C3587 1.403 . S
H3585 C3591 0.930 . S
C3586 H3572 0.930 . S
C3586 C3584 1.395 . S
C3586 C3589 1.403 . S
C3587 C3584 1.403 . S
C3587 C3588 1.524 . S
C3587 C3591 1.400 . S
C3588 H3573 0.960 . S
C3588 H3574 0.960 . S
C3588 H3575 0.960 . S
C3588 C3587 1.524 . S
C3589 C3586 1.403 . S
C3589 C3590 1.392 . S
C3589 C3593 1.495 . S
C3590 C3589 1.392 . S
C3590 C3591 1.385 . S
C3590 C3592 1.478 . S
C3591 H3585 0.930 . S
C3591 C3587 1.400 . S
C3591 C3590 1.385 . S
C3592 C3590 1.478 . S
C3592 C3594 1.381 . S
C3592 C3598 1.383 . S
C3593 C3589 1.495 . S
C3593 H3599 0.959 . S
C3593 H3600 0.961 . S
C3593 H3601 0.960 . S
C3594 C3592 1.381 . S
C3594 C3595 1.394 . S
C3594 H3602 0.930 . S
C3595 C3594 1.394 . S
C3595 C3596 1.383 . S
C3595 H3603 0.929 . S
C3596 C3595 1.383 . S
C3596 C3597 1.377 . S
C3597 H3581 0.930 . S
C3597 C3596 1.377 . S
C3597 C3598 1.379 . S
C3598 H3582 0.931 . S
C3598 C3592 1.383 . S
C3598 C3597 1.379 . S
H3599 C3593 0.959 . S
H3600 C3593 0.961 . S
H3601 C3593 0.960 . S
H3602 C3594 0.930 . S
H3603 C3595 0.929 . S
H3604 C3612 0.929 . S
H3605 C3614 0.930 . S
H3606 C3616 0.930 . S
H3607 C3619 0.929 . S
H3608 C3622 0.930 . S
H3609 C3624 0.960 . S
H3610 C3624 0.960 . S
H3611 C3624 0.960 . S
C3612 H3604 0.929 . S
C3612 C3613 1.377 . S
C3612 C3614 1.384 . S
C3613 C3612 1.377 . S
C3613 C3619 1.390 . S
C3614 H3605 0.930 . S
C3614 C3612 1.384 . S
C3614 C3615 1.372 . S
C3615 C3614 1.372 . S
C3615 C3616 1.400 . S
C3615 C3620 1.490 . S
C3616 H3606 0.930 . S
C3616 C3615 1.400 . S
C3616 C3619 1.386 . S
H3617 C3633 0.930 . S
H3618 C3634 0.931 . S
C3619 H3607 0.929 . S
C3619 C3613 1.390 . S
C3619 C3616 1.386 . S
C3620 C3615 1.490 . S
C3620 C3622 1.395 . S
C3620 C3623 1.403 . S
H3621 C3627 0.930 . S
C3622 H3608 0.930 . S
C3622 C3620 1.395 . S
C3622 C3625 1.403 . S
C3623 C3620 1.403 . S
C3623 C3624 1.524 . S
C3623 C3627 1.400 . S
C3624 H3609 0.960 . S
C3624 H3610 0.960 . S
C3624 H3611 0.960 . S
C3624 C3623 1.524 . S
C3625 C3622 1.403 . S
C3625 C3626 1.392 . S
C3625 C3629 1.495 . S
C3626 C3625 1.392 . S
C3626 C3627 1.385 . S
C3626 C3628 1.478 . S
C3627 H3621 0.930 . S
C3627 C3623 1.400 . S
C3627 C3626 1.385 . S
C3628 C3626 1.478 . S
C3628 C3630 1.381 . S
C3628 C3634 1.383 . S
C3629 C3625 1.495 . S
C3629 H3635 0.959 . S
C3629 H3636 0.961 . S
C3629 H3637 0.960 . S
C3630 C3628 1.381 . S
C3630 C3631 1.394 . S
C3630 H3638 0.930 . S
C3631 C3630 1.394 . S
C3631 C3632 1.383 . S
C3631 H3639 0.929 . S
C3632 C3631 1.383 . S
C3632 C3633 1.377 . S
C3633 H3617 0.930 . S
C3633 C3632 1.377 . S
C3633 C3634 1.379 . S
C3634 H3618 0.931 . S
C3634 C3628 1.383 . S
C3634 C3633 1.379 . S
H3635 C3629 0.959 . S
H3636 C3629 0.961 . S
H3637 C3629 0.960 . S
H3638 C3630 0.930 . S
H3639 C3631 0.929 . S
H3640 C3648 0.929 . S
H3641 C3650 0.930 . S
H3642 C3652 0.930 . S
H3643 C3655 0.929 . S
H3644 C3658 0.930 . S
H3645 C3660 0.960 . S
H3646 C3660 0.960 . S
H3647 C3660 0.960 . S
C3648 H3640 0.929 . S
C3648 C3649 1.377 . S
C3648 C3650 1.384 . S
C3649 C3648 1.377 . S
C3649 C3655 1.390 . S
C3650 H3641 0.930 . S
C3650 C3648 1.384 . S
C3650 C3651 1.372 . S
C3651 C3650 1.372 . S
C3651 C3652 1.400 . S
C3651 C3656 1.490 . S
C3652 H3642 0.930 . S
C3652 C3651 1.400 . S
C3652 C3655 1.386 . S
H3653 C3669 0.930 . S
H3654 C3670 0.931 . S
C3655 H3643 0.929 . S
C3655 C3649 1.390 . S
C3655 C3652 1.386 . S
C3656 C3651 1.490 . S
C3656 C3658 1.395 . S
C3656 C3659 1.403 . S
H3657 C3663 0.930 . S
C3658 H3644 0.930 . S
C3658 C3656 1.395 . S
C3658 C3661 1.403 . S
C3659 C3656 1.403 . S
C3659 C3660 1.524 . S
C3659 C3663 1.400 . S
C3660 H3645 0.960 . S
C3660 H3646 0.960 . S
C3660 H3647 0.960 . S
C3660 C3659 1.524 . S
C3661 C3658 1.403 . S
C3661 C3662 1.392 . S
C3661 C3665 1.481 1_455 S
C3662 C3661 1.392 . S
C3662 C3663 1.385 . S
C3662 C3664 1.478 . S
C3663 H3657 0.930 . S
C3663 C3659 1.400 . S
C3663 C3662 1.385 . S
C3664 C3662 1.478 . S
C3664 C3666 1.381 . S
C3664 C3670 1.383 . S
C3665 C3661 1.481 1_655 S
C3665 H3671 0.975 . S
C3665 H3672 0.967 . S
C3665 H3673 0.952 1_655 S
C3666 C3664 1.381 . S
C3666 C3667 1.394 . S
C3666 H3674 0.930 . S
C3667 C3666 1.394 . S
C3667 C3668 1.383 . S
C3667 H3675 0.929 . S
C3668 C3667 1.383 . S
C3668 C3669 1.377 . S
C3669 H3653 0.930 . S
C3669 C3668 1.377 . S
C3669 C3670 1.379 . S
C3670 H3654 0.931 . S
C3670 C3664 1.383 . S
C3670 C3669 1.379 . S
H3671 C3665 0.975 . S
H3672 C3665 0.967 . S
H3673 C3665 0.952 1_455 S
H3674 C3666 0.930 . S
H3675 C3667 0.929 . S
H3676 C3684 0.929 . S
H3677 C3686 0.930 . S
H3678 C3688 0.930 . S
H3679 C3691 0.929 . S
H3680 C3694 0.930 . S
H3681 C3696 0.960 . S
H3682 C3696 0.960 . S
H3683 C3696 0.960 . S
C3684 H3676 0.929 . S
C3684 C3685 1.377 . S
C3684 C3686 1.384 . S
C3685 C3684 1.377 . S
C3685 C3691 1.390 . S
C3686 H3677 0.930 . S
C3686 C3684 1.384 . S
C3686 C3687 1.372 . S
C3687 C3686 1.372 . S
C3687 C3688 1.400 . S
C3687 C3692 1.490 . S
C3688 H3678 0.930 . S
C3688 C3687 1.400 . S
C3688 C3691 1.386 . S
H3689 C3705 0.930 . S
H3690 C3706 0.931 . S
C3691 H3679 0.929 . S
C3691 C3685 1.390 . S
C3691 C3688 1.386 . S
C3692 C3687 1.490 . S
C3692 C3694 1.395 . S
C3692 C3695 1.403 . S
H3693 C3699 0.930 . S
C3694 H3680 0.930 . S
C3694 C3692 1.395 . S
C3694 C3697 1.403 . S
C3695 C3692 1.403 . S
C3695 C3696 1.524 . S
C3695 C3699 1.400 . S
C3696 H3681 0.960 . S
C3696 H3682 0.960 . S
C3696 H3683 0.960 . S
C3696 C3695 1.524 . S
C3697 C3694 1.403 . S
C3697 C3698 1.392 . S
C3697 C3701 1.495 . S
C3698 C3697 1.392 . S
C3698 C3699 1.385 . S
C3698 C3700 1.478 . S
C3699 H3693 0.930 . S
C3699 C3695 1.400 . S
C3699 C3698 1.385 . S
C3700 C3698 1.478 . S
C3700 C3702 1.381 . S
C3700 C3706 1.383 . S
C3701 C3697 1.495 . S
C3701 H3707 0.959 . S
C3701 H3708 0.961 . S
C3701 H3709 0.960 . S
C3702 C3700 1.381 . S
C3702 C3703 1.394 . S
C3702 H3710 0.930 . S
C3703 C3702 1.394 . S
C3703 C3704 1.383 . S
C3703 H3711 0.929 . S
C3704 C3703 1.383 . S
C3704 C3705 1.377 . S
C3705 H3689 0.930 . S
C3705 C3704 1.377 . S
C3705 C3706 1.379 . S
C3706 H3690 0.931 . S
C3706 C3700 1.383 . S
C3706 C3705 1.379 . S
H3707 C3701 0.959 . S
H3708 C3701 0.961 . S
H3709 C3701 0.960 . S
H3710 C3702 0.930 . S
H3711 C3703 0.929 . S
H3712 C3720 0.929 . S
H3713 C3722 0.930 . S
H3714 C3724 0.930 . S
H3715 C3727 0.929 . S
H3716 C3730 0.930 . S
H3717 C3732 0.960 . S
H3718 C3732 0.960 . S
H3719 C3732 0.960 . S
C3720 H3712 0.929 . S
C3720 C3721 1.377 . S
C3720 C3722 1.384 . S
C3721 C3720 1.377 . S
C3721 C3727 1.390 . S
C3722 H3713 0.930 . S
C3722 C3720 1.384 . S
C3722 C3723 1.372 . S
C3723 C3722 1.372 . S
C3723 C3724 1.400 . S
C3723 C3728 1.490 . S
C3724 H3714 0.930 . S
C3724 C3723 1.400 . S
C3724 C3727 1.386 . S
H3725 C3741 0.930 . S
H3726 C3742 0.931 . S
C3727 H3715 0.929 . S
C3727 C3721 1.390 . S
C3727 C3724 1.386 . S
C3728 C3723 1.490 . S
C3728 C3730 1.395 . S
C3728 C3731 1.403 . S
H3729 C3735 0.930 . S
C3730 H3716 0.930 . S
C3730 C3728 1.395 . S
C3730 C3733 1.403 . S
C3731 C3728 1.403 . S
C3731 C3732 1.524 . S
C3731 C3735 1.400 . S
C3732 H3717 0.960 . S
C3732 H3718 0.960 . S
C3732 H3719 0.960 . S
C3732 C3731 1.524 . S
C3733 C3730 1.403 . S
C3733 C3734 1.392 . S
C3733 C3737 1.495 . S
C3734 C3733 1.392 . S
C3734 C3735 1.385 . S
C3734 C3736 1.478 . S
C3735 H3729 0.930 . S
C3735 C3731 1.400 . S
C3735 C3734 1.385 . S
C3736 C3734 1.478 . S
C3736 C3738 1.381 . S
C3736 C3742 1.383 . S
C3737 C3733 1.495 . S
C3737 H3743 0.959 . S
C3737 H3744 0.961 . S
C3737 H3745 0.960 . S
C3738 C3736 1.381 . S
C3738 C3739 1.394 . S
C3738 H3746 0.930 . S
C3739 C3738 1.394 . S
C3739 C3740 1.383 . S
C3739 H3747 0.929 1_556 S
C3740 C3739 1.383 . S
C3740 C3741 1.377 . S
C3741 H3725 0.930 . S
C3741 C3740 1.377 . S
C3741 C3742 1.379 . S
C3742 H3726 0.931 . S
C3742 C3736 1.383 . S
C3742 C3741 1.379 . S
H3743 C3737 0.959 . S
H3744 C3737 0.961 . S
H3745 C3737 0.960 . S
H3746 C3738 0.930 . S
H3747 C3739 0.929 1_554 S
H3748 C3756 0.929 . S
H3749 C3758 0.930 . S
H3750 C3760 0.930 . S
H3751 C3763 0.929 . S
H3752 C3766 0.930 . S
H3753 C3768 0.960 . S
H3754 C3768 0.960 . S
H3755 C3768 0.960 . S
C3756 H3748 0.929 . S
C3756 C3757 1.377 . S
C3756 C3758 1.384 . S
C3757 C3756 1.377 . S
C3757 C3763 1.390 . S
C3758 H3749 0.930 . S
C3758 C3756 1.384 . S
C3758 C3759 1.372 . S
C3759 C3758 1.372 . S
C3759 C3760 1.400 . S
C3759 C3764 1.490 . S
C3760 H3750 0.930 . S
C3760 C3759 1.400 . S
C3760 C3763 1.386 . S
H3761 C3777 0.930 . S
H3762 C3778 0.931 . S
C3763 H3751 0.929 . S
C3763 C3757 1.390 . S
C3763 C3760 1.386 . S
C3764 C3759 1.490 . S
C3764 C3766 1.395 . S
C3764 C3767 1.403 . S
H3765 C3771 0.930 . S
C3766 H3752 0.930 . S
C3766 C3764 1.395 . S
C3766 C3769 1.403 . S
C3767 C3764 1.403 . S
C3767 C3768 1.524 . S
C3767 C3771 1.400 . S
C3768 H3753 0.960 . S
C3768 H3754 0.960 . S
C3768 H3755 0.960 . S
C3768 C3767 1.524 . S
C3769 C3766 1.403 . S
C3769 C3770 1.392 . S
C3769 C3773 1.495 . S
C3770 C3769 1.392 . S
C3770 C3771 1.385 . S
C3770 C3772 1.478 . S
C3771 H3765 0.930 . S
C3771 C3767 1.400 . S
C3771 C3770 1.385 . S
C3772 C3770 1.478 . S
C3772 C3774 1.381 . S
C3772 C3778 1.383 . S
C3773 C3769 1.495 . S
C3773 H3779 0.959 . S
C3773 H3780 0.961 . S
C3773 H3781 0.960 . S
C3774 C3772 1.381 . S
C3774 C3775 1.394 . S
C3774 H3782 0.930 . S
C3775 C3774 1.394 . S
C3775 C3776 1.383 . S
C3775 H3783 0.929 . S
C3776 C3775 1.383 . S
C3776 C3777 1.377 . S
C3777 H3761 0.930 . S
C3777 C3776 1.377 . S
C3777 C3778 1.379 . S
C3778 H3762 0.931 . S
C3778 C3772 1.383 . S
C3778 C3777 1.379 . S
H3779 C3773 0.959 . S
H3780 C3773 0.961 . S
H3781 C3773 0.960 . S
H3782 C3774 0.930 . S
H3783 C3775 0.929 . S
H3784 C3792 0.929 . S
H3785 C3794 0.930 . S
H3786 C3796 0.930 . S
H3787 C3799 0.929 . S
H3788 C3802 0.930 . S
H3789 C3804 0.960 . S
H3790 C3804 0.960 . S
H3791 C3804 0.960 . S
C3792 H3784 0.929 . S
C3792 C3793 1.377 . S
C3792 C3794 1.384 . S
C3793 C3792 1.377 . S
C3793 C3799 1.390 . S
C3794 H3785 0.930 . S
C3794 C3792 1.384 . S
C3794 C3795 1.372 . S
C3795 C3794 1.372 . S
C3795 C3796 1.400 . S
C3795 C3800 1.490 . S
C3796 H3786 0.930 . S
C3796 C3795 1.400 . S
C3796 C3799 1.386 . S
H3797 C3813 0.930 . S
H3798 C3814 0.931 . S
C3799 H3787 0.929 . S
C3799 C3793 1.390 . S
C3799 C3796 1.386 . S
C3800 C3795 1.490 . S
C3800 C3802 1.395 . S
C3800 C3803 1.403 . S
H3801 C3807 0.930 . S
C3802 H3788 0.930 . S
C3802 C3800 1.395 . S
C3802 C3805 1.403 . S
C3803 C3800 1.403 . S
C3803 C3804 1.524 . S
C3803 C3807 1.400 . S
C3804 H3789 0.960 . S
C3804 H3790 0.960 . S
C3804 H3791 0.960 . S
C3804 C3803 1.524 . S
C3805 C3802 1.403 . S
C3805 C3806 1.392 . S
C3805 C3809 1.495 1_455 S
C3806 C3805 1.392 . S
C3806 C3807 1.385 . S
C3806 C3808 1.478 . S
C3807 H3801 0.930 . S
C3807 C3803 1.400 . S
C3807 C3806 1.385 . S
C3808 C3806 1.478 . S
C3808 C3810 1.381 . S
C3808 C3814 1.383 . S
C3809 C3805 1.495 1_655 S
C3809 H3815 0.959 . S
C3809 H3816 0.961 . S
C3809 H3817 0.960 . S
C3810 C3808 1.381 . S
C3810 C3811 1.394 . S
C3810 H3818 0.930 . S
C3811 C3810 1.394 . S
C3811 C3812 1.383 . S
C3811 H3819 0.929 . S
C3812 C3811 1.383 . S
C3812 C3813 1.377 . S
C3813 H3797 0.930 . S
C3813 C3812 1.377 . S
C3813 C3814 1.379 . S
C3814 H3798 0.931 . S
C3814 C3808 1.383 . S
C3814 C3813 1.379 . S
H3815 C3809 0.959 . S
H3816 C3809 0.961 . S
H3817 C3809 0.960 . S
H3818 C3810 0.930 . S
H3819 C3811 0.929 . S
H3820 C3828 0.929 . S
H3821 C3830 0.930 . S
H3822 C3832 0.930 . S
H3823 C3835 0.929 . S
H3824 C3838 0.930 . S
H3825 C3840 0.960 . S
H3826 C3840 0.960 . S
H3827 C3840 0.960 . S
C3828 H3820 0.929 . S
C3828 C3829 1.377 . S
C3828 C3830 1.384 . S
C3829 C3828 1.377 . S
C3829 C3835 1.390 . S
C3830 H3821 0.930 . S
C3830 C3828 1.384 . S
C3830 C3831 1.372 . S
C3831 C3830 1.372 . S
C3831 C3832 1.400 . S
C3831 C3836 1.490 . S
C3832 H3822 0.930 . S
C3832 C3831 1.400 . S
C3832 C3835 1.386 . S
H3833 C3849 0.930 . S
H3834 C3850 0.931 . S
C3835 H3823 0.929 . S
C3835 C3829 1.390 . S
C3835 C3832 1.386 . S
C3836 C3831 1.490 . S
C3836 C3838 1.395 . S
C3836 C3839 1.403 . S
H3837 C3843 0.930 . S
C3838 H3824 0.930 . S
C3838 C3836 1.395 . S
C3838 C3841 1.403 . S
C3839 C3836 1.403 . S
C3839 C3840 1.524 . S
C3839 C3843 1.400 . S
C3840 H3825 0.960 . S
C3840 H3826 0.960 . S
C3840 H3827 0.960 . S
C3840 C3839 1.524 . S
C3841 C3838 1.403 . S
C3841 C3842 1.392 . S
C3841 C3845 1.495 . S
C3842 C3841 1.392 . S
C3842 C3843 1.385 . S
C3842 C3844 1.478 . S
C3843 H3837 0.930 . S
C3843 C3839 1.400 . S
C3843 C3842 1.385 . S
C3844 C3842 1.478 . S
C3844 C3846 1.381 . S
C3844 C3850 1.383 . S
C3845 C3841 1.495 . S
C3845 H3851 0.959 . S
C3845 H3852 0.961 . S
C3845 H3853 0.960 . S
C3846 C3844 1.381 . S
C3846 C3847 1.394 . S
C3846 H3854 0.930 . S
C3847 C3846 1.394 . S
C3847 C3848 1.383 . S
C3847 H3855 0.929 . S
C3848 C3847 1.383 . S
C3848 C3849 1.377 . S
C3849 H3833 0.930 . S
C3849 C3848 1.377 . S
C3849 C3850 1.379 . S
C3850 H3834 0.931 . S
C3850 C3844 1.383 . S
C3850 C3849 1.379 . S
H3851 C3845 0.959 . S
H3852 C3845 0.961 . S
H3853 C3845 0.960 . S
H3854 C3846 0.930 . S
H3855 C3847 0.929 . S
H3856 C3864 0.929 . S
H3857 C3866 0.930 . S
H3858 C3868 0.930 . S
H3859 C3871 0.929 . S
H3860 C3874 0.930 . S
H3861 C3876 0.960 . S
H3862 C3876 0.960 . S
H3863 C3876 0.960 . S
C3864 H3856 0.929 . S
C3864 C3865 1.377 . S
C3864 C3866 1.384 . S
C3865 C3864 1.377 . S
C3865 C3871 1.390 . S
C3866 H3857 0.930 . S
C3866 C3864 1.384 . S
C3866 C3867 1.372 . S
C3867 C3866 1.372 . S
C3867 C3868 1.400 . S
C3867 C3872 1.490 . S
C3868 H3858 0.930 . S
C3868 C3867 1.400 . S
C3868 C3871 1.386 . S
H3869 C3885 0.930 . S
H3870 C3886 0.931 . S
C3871 H3859 0.929 . S
C3871 C3865 1.390 . S
C3871 C3868 1.386 . S
C3872 C3867 1.490 . S
C3872 C3874 1.395 . S
C3872 C3875 1.403 . S
H3873 C3879 0.930 . S
C3874 H3860 0.930 . S
C3874 C3872 1.395 . S
C3874 C3877 1.403 . S
C3875 C3872 1.403 . S
C3875 C3876 1.524 . S
C3875 C3879 1.400 . S
C3876 H3861 0.960 . S
C3876 H3862 0.960 . S
C3876 H3863 0.960 . S
C3876 C3875 1.524 . S
C3877 C3874 1.403 . S
C3877 C3878 1.392 . S
C3877 C3881 1.495 . S
C3878 C3877 1.392 . S
C3878 C3879 1.385 . S
C3878 C3880 1.478 . S
C3879 H3873 0.930 . S
C3879 C3875 1.400 . S
C3879 C3878 1.385 . S
C3880 C3878 1.478 . S
C3880 C3882 1.381 . S
C3880 C3886 1.383 . S
C3881 C3877 1.495 . S
C3881 H3887 0.959 . S
C3881 H3888 0.961 . S
C3881 H3889 0.960 . S
C3882 C3880 1.381 . S
C3882 C3883 1.394 . S
C3882 H3890 0.930 . S
C3883 C3882 1.394 . S
C3883 C3884 1.383 . S
C3883 H3891 0.929 . S
C3884 C3883 1.383 . S
C3884 C3885 1.377 . S
C3885 H3869 0.930 . S
C3885 C3884 1.377 . S
C3885 C3886 1.379 . S
C3886 H3870 0.931 . S
C3886 C3880 1.383 . S
C3886 C3885 1.379 . S
H3887 C3881 0.959 . S
H3888 C3881 0.961 . S
H3889 C3881 0.960 . S
H3890 C3882 0.930 . S
H3891 C3883 0.929 . S
H3892 C3900 0.929 . S
H3893 C3902 0.930 . S
H3894 C3904 0.930 . S
H3895 C3907 0.929 . S
H3896 C3910 0.930 . S
H3897 C3912 0.960 . S
H3898 C3912 0.960 . S
H3899 C3912 0.960 . S
C3900 H3892 0.929 . S
C3900 C3901 1.377 . S
C3900 C3902 1.384 . S
C3901 C3900 1.377 . S
C3901 C3907 1.390 . S
C3902 H3893 0.930 . S
C3902 C3900 1.384 . S
C3902 C3903 1.372 . S
C3903 C3902 1.372 . S
C3903 C3904 1.400 . S
C3903 C3908 1.490 . S
C3904 H3894 0.930 . S
C3904 C3903 1.400 . S
C3904 C3907 1.386 . S
H3905 C3921 0.930 . S
H3906 C3922 0.931 . S
C3907 H3895 0.929 . S
C3907 C3901 1.390 . S
C3907 C3904 1.386 . S
C3908 C3903 1.490 . S
C3908 C3910 1.395 . S
C3908 C3911 1.403 . S
H3909 C3915 0.930 . S
C3910 H3896 0.930 . S
C3910 C3908 1.395 . S
C3910 C3913 1.403 . S
C3911 C3908 1.403 . S
C3911 C3912 1.524 . S
C3911 C3915 1.400 . S
C3912 H3897 0.960 . S
C3912 H3898 0.960 . S
C3912 H3899 0.960 . S
C3912 C3911 1.524 . S
C3913 C3910 1.403 . S
C3913 C3914 1.392 . S
C3913 C3917 1.495 . S
C3914 C3913 1.392 . S
C3914 C3915 1.385 . S
C3914 C3916 1.478 . S
C3915 H3909 0.930 . S
C3915 C3911 1.400 . S
C3915 C3914 1.385 . S
C3916 C3914 1.478 . S
C3916 C3918 1.381 . S
C3916 C3922 1.383 . S
C3917 C3913 1.495 . S
C3917 H3923 0.959 . S
C3917 H3924 0.961 . S
C3917 H3925 0.960 . S
C3918 C3916 1.381 . S
C3918 C3919 1.394 . S
C3918 H3926 0.930 . S
C3919 C3918 1.394 . S
C3919 C3920 1.383 . S
C3919 H3927 0.929 . S
C3920 C3919 1.383 . S
C3920 C3921 1.377 . S
C3921 H3905 0.930 . S
C3921 C3920 1.377 . S
C3921 C3922 1.379 . S
C3922 H3906 0.931 . S
C3922 C3916 1.383 . S
C3922 C3921 1.379 . S
H3923 C3917 0.959 . S
H3924 C3917 0.961 . S
H3925 C3917 0.960 . S
H3926 C3918 0.930 . S
H3927 C3919 0.929 . S
H3928 C3936 0.929 . S
H3929 C3938 0.930 . S
H3930 C3940 0.930 . S
H3931 C3943 0.929 . S
H3932 C3946 0.930 . S
H3933 C3948 0.960 . S
H3934 C3948 0.960 . S
H3935 C3948 0.960 . S
C3936 H3928 0.929 . S
C3936 C3937 1.377 . S
C3936 C3938 1.384 . S
C3937 C3936 1.377 . S
C3937 C3943 1.390 . S
C3938 H3929 0.930 . S
C3938 C3936 1.384 . S
C3938 C3939 1.372 . S
C3939 C3938 1.372 . S
C3939 C3940 1.400 . S
C3939 C3944 1.490 . S
C3940 H3930 0.930 . S
C3940 C3939 1.400 . S
C3940 C3943 1.386 . S
H3941 C3957 0.930 . S
H3942 C3958 0.922 1_455 S
C3943 H3931 0.929 . S
C3943 C3937 1.390 . S
C3943 C3940 1.386 . S
C3944 C3939 1.490 . S
C3944 C3946 1.395 . S
C3944 C3947 1.403 . S
H3945 C3951 0.930 . S
C3946 H3932 0.930 . S
C3946 C3944 1.395 . S
C3946 C3949 1.403 . S
C3947 C3944 1.403 . S
C3947 C3948 1.524 . S
C3947 C3951 1.400 . S
C3948 H3933 0.960 . S
C3948 H3934 0.960 . S
C3948 H3935 0.960 . S
C3948 C3947 1.524 . S
C3949 C3946 1.403 . S
C3949 C3950 1.392 . S
C3949 C3953 1.495 . S
C3950 C3949 1.392 . S
C3950 C3951 1.385 . S
C3950 C3952 1.478 . S
C3951 H3945 0.930 . S
C3951 C3947 1.400 . S
C3951 C3950 1.385 . S
C3952 C3950 1.478 . S
C3952 C3954 1.381 . S
C3952 C3958 1.383 . S
C3953 C3949 1.495 . S
C3953 H3959 0.959 . S
C3953 H3960 0.961 . S
C3953 H3961 0.960 . S
C3954 C3952 1.381 . S
C3954 C3955 1.394 1_556 S
C3954 H3962 0.930 . S
C3955 C3954 1.394 1_554 S
C3955 C3956 1.383 1_655 S
C3955 H3963 0.929 . S
C3956 C3955 1.383 1_455 S
C3956 C3957 1.377 1_554 S
C3957 H3941 0.930 . S
C3957 C3956 1.377 1_556 S
C3957 C3958 1.379 1_455 S
C3958 H3942 0.922 1_655 S
C3958 C3952 1.383 . S
C3958 C3957 1.379 1_655 S
H3959 C3953 0.959 . S
H3960 C3953 0.961 . S
H3961 C3953 0.960 . S
H3962 C3954 0.930 . S
H3963 C3955 0.929 . S
H3964 C3972 0.929 . S
H3965 C3974 0.930 . S
H3966 C3976 0.930 . S
H3967 C3979 0.929 . S
H3968 C3982 0.930 . S
H3969 C3984 0.960 . S
H3970 C3984 0.960 . S
H3971 C3984 0.960 . S
C3972 H3964 0.929 . S
C3972 C3973 1.377 . S
C3972 C3974 1.384 . S
C3973 C3972 1.377 . S
C3973 C3979 1.390 . S
C3974 H3965 0.930 . S
C3974 C3972 1.384 . S
C3974 C3975 1.372 . S
C3975 C3974 1.372 . S
C3975 C3976 1.400 . S
C3975 C3980 1.490 . S
C3976 H3966 0.930 . S
C3976 C3975 1.400 . S
C3976 C3979 1.386 . S
H3977 C3993 0.930 . S
H3978 C3994 0.931 . S
C3979 H3967 0.929 . S
C3979 C3973 1.390 . S
C3979 C3976 1.386 . S
C3980 C3975 1.490 . S
C3980 C3982 1.395 . S
C3980 C3983 1.403 . S
H3981 C3987 0.930 . S
C3982 H3968 0.930 . S
C3982 C3980 1.395 . S
C3982 C3985 1.403 . S
C3983 C3980 1.403 . S
C3983 C3984 1.524 . S
C3983 C3987 1.400 . S
C3984 H3969 0.960 . S
C3984 H3970 0.960 . S
C3984 H3971 0.960 . S
C3984 C3983 1.524 . S
C3985 C3982 1.403 . S
C3985 C3986 1.392 . S
C3985 C3989 1.495 . S
C3986 C3985 1.392 . S
C3986 C3987 1.385 . S
C3986 C3988 1.478 . S
C3987 H3981 0.930 . S
C3987 C3983 1.400 . S
C3987 C3986 1.385 . S
C3988 C3986 1.478 . S
C3988 C3990 1.381 . S
C3988 C3994 1.383 . S
C3989 C3985 1.495 . S
C3989 H3995 0.959 . S
C3989 H3996 0.961 . S
C3989 H3997 0.960 . S
C3990 C3988 1.381 . S
C3990 C3991 1.394 . S
C3990 H3998 0.930 . S
C3991 C3990 1.394 . S
C3991 C3992 1.383 . S
C3991 H3999 0.929 . S
C3992 C3991 1.383 . S
C3992 C3993 1.377 . S
C3993 H3977 0.930 . S
C3993 C3992 1.377 . S
C3993 C3994 1.379 . S
C3994 H3978 0.931 . S
C3994 C3988 1.383 . S
C3994 C3993 1.379 . S
H3995 C3989 0.959 . S
H3996 C3989 0.961 . S
H3997 C3989 0.960 . S
H3998 C3990 0.930 . S
H3999 C3991 0.929 . S
H4000 C4008 0.929 . S
H4001 C4010 0.930 . S
H4002 C4012 0.930 . S
H4003 C4015 0.929 . S
H4004 C4018 0.930 . S
H4005 C4020 0.960 . S
H4006 C4020 0.960 . S
H4007 C4020 0.960 . S
C4008 H4000 0.929 . S
C4008 C4009 1.377 . S
C4008 C4010 1.384 . S
C4009 C4008 1.377 . S
C4009 C4015 1.390 . S
C4010 H4001 0.930 . S
C4010 C4008 1.384 . S
C4010 C4011 1.372 . S
C4011 C4010 1.372 . S
C4011 C4012 1.400 . S
C4011 C4016 1.490 . S
C4012 H4002 0.930 . S
C4012 C4011 1.400 . S
C4012 C4015 1.386 . S
H4013 C4029 0.930 . S
H4014 C4030 0.931 . S
C4015 H4003 0.929 . S
C4015 C4009 1.390 . S
C4015 C4012 1.386 . S
C4016 C4011 1.490 . S
C4016 C4018 1.395 . S
C4016 C4019 1.403 . S
H4017 C4023 0.930 . S
C4018 H4004 0.930 . S
C4018 C4016 1.395 . S
C4018 C4021 1.403 . S
C4019 C4016 1.403 . S
C4019 C4020 1.524 . S
C4019 C4023 1.400 . S
C4020 H4005 0.960 . S
C4020 H4006 0.960 . S
C4020 H4007 0.960 . S
C4020 C4019 1.524 . S
C4021 C4018 1.403 . S
C4021 C4022 1.392 . S
C4021 C4025 1.495 . S
C4022 C4021 1.392 . S
C4022 C4023 1.385 . S
C4022 C4024 1.478 . S
C4023 H4017 0.930 . S
C4023 C4019 1.400 . S
C4023 C4022 1.385 . S
C4024 C4022 1.478 . S
C4024 C4026 1.381 . S
C4024 C4030 1.383 . S
C4025 C4021 1.495 . S
C4025 H4031 0.959 . S
C4025 H4032 0.961 . S
C4025 H4033 0.960 . S
C4026 C4024 1.381 . S
C4026 C4027 1.394 . S
C4026 H4034 0.930 . S
C4027 C4026 1.394 . S
C4027 C4028 1.383 . S
C4027 H4035 0.929 . S
C4028 C4027 1.383 . S
C4028 C4029 1.377 . S
C4029 H4013 0.930 . S
C4029 C4028 1.377 . S
C4029 C4030 1.379 . S
C4030 H4014 0.931 . S
C4030 C4024 1.383 . S
C4030 C4029 1.379 . S
H4031 C4025 0.959 . S
H4032 C4025 0.961 . S
H4033 C4025 0.960 . S
H4034 C4026 0.930 . S
H4035 C4027 0.929 . S
H4036 C4044 0.929 . S
H4037 C4046 0.930 . S
H4038 C4048 0.930 . S
H4039 C4051 0.929 . S
H4040 C4054 0.930 . S
H4041 C4056 0.960 . S
H4042 C4056 0.960 . S
H4043 C4056 0.960 . S
C4044 H4036 0.929 . S
C4044 C4045 1.377 . S
C4044 C4046 1.384 . S
C4045 C4044 1.377 . S
C4045 C4051 1.390 . S
C4046 H4037 0.930 . S
C4046 C4044 1.384 . S
C4046 C4047 1.372 . S
C4047 C4046 1.372 . S
C4047 C4048 1.400 . S
C4047 C4052 1.490 . S
C4048 H4038 0.930 . S
C4048 C4047 1.400 . S
C4048 C4051 1.386 . S
H4049 C4065 0.930 . S
H4050 C4066 0.931 . S
C4051 H4039 0.929 . S
C4051 C4045 1.390 . S
C4051 C4048 1.386 . S
C4052 C4047 1.490 . S
C4052 C4054 1.395 . S
C4052 C4055 1.403 . S
H4053 C4059 0.930 . S
C4054 H4040 0.930 . S
C4054 C4052 1.395 . S
C4054 C4057 1.403 . S
C4055 C4052 1.403 . S
C4055 C4056 1.524 . S
C4055 C4059 1.400 . S
C4056 H4041 0.960 . S
C4056 H4042 0.960 . S
C4056 H4043 0.960 . S
C4056 C4055 1.524 . S
C4057 C4054 1.403 . S
C4057 C4058 1.392 . S
C4057 C4061 1.495 . S
C4058 C4057 1.392 . S
C4058 C4059 1.385 . S
C4058 C4060 1.478 . S
C4059 H4053 0.930 . S
C4059 C4055 1.400 . S
C4059 C4058 1.385 . S
C4060 C4058 1.478 . S
C4060 C4062 1.381 . S
C4060 C4066 1.383 . S
C4061 C4057 1.495 . S
C4061 H4067 0.959 . S
C4061 H4068 0.961 . S
C4061 H4069 0.960 . S
C4062 C4060 1.381 . S
C4062 C4063 1.394 . S
C4062 H4070 0.930 . S
C4063 C4062 1.394 . S
C4063 C4064 1.383 . S
C4063 H4071 0.929 . S
C4064 C4063 1.383 . S
C4064 C4065 1.377 . S
C4065 H4049 0.930 . S
C4065 C4064 1.377 . S
C4065 C4066 1.379 . S
C4066 H4050 0.931 . S
C4066 C4060 1.383 . S
C4066 C4065 1.379 . S
H4067 C4061 0.959 . S
H4068 C4061 0.961 . S
H4069 C4061 0.960 . S
H4070 C4062 0.930 . S
H4071 C4063 0.929 . S
H4072 C4080 0.929 . S
H4073 C4082 0.930 . S
H4074 C4084 0.930 . S
H4075 C4087 0.929 . S
H4076 C4090 0.930 . S
H4077 C4092 0.960 . S
H4078 C4092 0.960 . S
H4079 C4092 0.960 . S
C4080 H4072 0.929 . S
C4080 C4081 1.377 . S
C4080 C4082 1.384 . S
C4081 C4080 1.377 . S
C4081 C4087 1.390 . S
C4082 H4073 0.930 . S
C4082 C4080 1.384 . S
C4082 C4083 1.372 . S
C4083 C4082 1.372 . S
C4083 C4084 1.400 . S
C4083 C4088 1.490 . S
C4084 H4074 0.930 . S
C4084 C4083 1.400 . S
C4084 C4087 1.386 . S
H4085 C4101 0.930 . S
H4086 C4102 0.931 . S
C4087 H4075 0.929 . S
C4087 C4081 1.390 . S
C4087 C4084 1.386 . S
C4088 C4083 1.490 . S
C4088 C4090 1.395 . S
C4088 C4091 1.403 . S
H4089 C4095 0.930 . S
C4090 H4076 0.930 . S
C4090 C4088 1.395 . S
C4090 C4093 1.403 . S
C4091 C4088 1.403 . S
C4091 C4092 1.524 . S
C4091 C4095 1.400 . S
C4092 H4077 0.960 . S
C4092 H4078 0.960 . S
C4092 H4079 0.960 . S
C4092 C4091 1.524 . S
C4093 C4090 1.403 . S
C4093 C4094 1.392 . S
C4093 C4097 1.495 . S
C4094 C4093 1.392 . S
C4094 C4095 1.385 . S
C4094 C4096 1.478 . S
C4095 H4089 0.930 . S
C4095 C4091 1.400 . S
C4095 C4094 1.385 . S
C4096 C4094 1.478 . S
C4096 C4098 1.381 . S
C4096 C4102 1.383 . S
C4097 C4093 1.495 . S
C4097 H4103 0.959 . S
C4097 H4104 0.961 . S
C4097 H4105 0.960 . S
C4098 C4096 1.381 . S
C4098 C4099 1.394 . S
C4098 H4106 0.930 . S
C4099 C4098 1.394 . S
C4099 C4100 1.383 . S
C4099 H4107 0.929 . S
C4100 C4099 1.383 . S
C4100 C4101 1.377 . S
C4101 H4085 0.930 . S
C4101 C4100 1.377 . S
C4101 C4102 1.379 . S
C4102 H4086 0.931 . S
C4102 C4096 1.383 . S
C4102 C4101 1.379 . S
H4103 C4097 0.959 . S
H4104 C4097 0.961 . S
H4105 C4097 0.960 . S
H4106 C4098 0.930 . S
H4107 C4099 0.929 . S
H4108 C4116 0.929 . S
H4109 C4118 0.930 . S
H4110 C4120 0.930 . S
H4111 C4123 0.929 . S
H4112 C4126 0.930 . S
H4113 C4128 0.960 . S
H4114 C4128 0.960 . S
H4115 C4128 0.960 . S
C4116 H4108 0.929 . S
C4116 C4117 1.377 . S
C4116 C4118 1.384 . S
C4117 C4116 1.377 . S
C4117 C4123 1.390 . S
C4118 H4109 0.930 . S
C4118 C4116 1.384 . S
C4118 C4119 1.372 . S
C4119 C4118 1.372 . S
C4119 C4120 1.400 . S
C4119 C4124 1.490 . S
C4120 H4110 0.930 . S
C4120 C4119 1.400 . S
C4120 C4123 1.386 . S
H4121 C4137 0.930 . S
H4122 C4138 0.931 . S
C4123 H4111 0.929 . S
C4123 C4117 1.390 . S
C4123 C4120 1.386 . S
C4124 C4119 1.490 . S
C4124 C4126 1.395 . S
C4124 C4127 1.403 . S
H4125 C4131 0.930 . S
C4126 H4112 0.930 . S
C4126 C4124 1.395 . S
C4126 C4129 1.403 . S
C4127 C4124 1.403 . S
C4127 C4128 1.524 . S
C4127 C4131 1.400 . S
C4128 H4113 0.960 . S
C4128 H4114 0.960 . S
C4128 H4115 0.960 . S
C4128 C4127 1.524 . S
C4129 C4126 1.403 . S
C4129 C4130 1.392 . S
C4129 C4133 1.495 . S
C4130 C4129 1.392 . S
C4130 C4131 1.385 . S
C4130 C4132 1.478 . S
C4131 H4125 0.930 . S
C4131 C4127 1.400 . S
C4131 C4130 1.385 . S
C4132 C4130 1.478 . S
C4132 C4134 1.381 . S
C4132 C4138 1.383 . S
C4133 C4129 1.495 . S
C4133 H4139 0.959 . S
C4133 H4140 0.961 . S
C4133 H4141 0.960 . S
C4134 C4132 1.381 . S
C4134 C4135 1.394 . S
C4134 H4142 0.930 . S
C4135 C4134 1.394 . S
C4135 C4136 1.383 . S
C4135 H4143 0.929 . S
C4136 C4135 1.383 . S
C4136 C4137 1.377 . S
C4137 H4121 0.930 . S
C4137 C4136 1.377 . S
C4137 C4138 1.379 . S
C4138 H4122 0.931 . S
C4138 C4132 1.383 . S
C4138 C4137 1.379 . S
H4139 C4133 0.959 . S
H4140 C4133 0.961 . S
H4141 C4133 0.960 . S
H4142 C4134 0.930 . S
H4143 C4135 0.929 . S
H4144 C4152 0.929 . S
H4145 C4154 0.930 . S
H4146 C4156 0.930 . S
H4147 C4159 0.929 . S
H4148 C4162 0.930 . S
H4149 C4164 0.960 . S
H4150 C4164 0.960 . S
H4151 C4164 0.960 . S
C4152 H4144 0.929 . S
C4152 C4153 1.377 . S
C4152 C4154 1.384 . S
C4153 C4152 1.377 . S
C4153 C4159 1.390 . S
C4154 H4145 0.930 . S
C4154 C4152 1.384 . S
C4154 C4155 1.372 . S
C4155 C4154 1.372 . S
C4155 C4156 1.400 . S
C4155 C4160 1.490 . S
C4156 H4146 0.930 . S
C4156 C4155 1.400 . S
C4156 C4159 1.386 . S
H4157 C4173 0.930 . S
H4158 C4174 0.931 . S
C4159 H4147 0.929 . S
C4159 C4153 1.390 . S
C4159 C4156 1.386 . S
C4160 C4155 1.490 . S
C4160 C4162 1.395 . S
C4160 C4163 1.403 . S
H4161 C4167 0.930 . S
C4162 H4148 0.930 . S
C4162 C4160 1.395 . S
C4162 C4165 1.403 . S
C4163 C4160 1.403 . S
C4163 C4164 1.524 . S
C4163 C4167 1.400 . S
C4164 H4149 0.960 . S
C4164 H4150 0.960 . S
C4164 H4151 0.960 . S
C4164 C4163 1.524 . S
C4165 C4162 1.403 . S
C4165 C4166 1.392 . S
C4165 C4169 1.495 . S
C4166 C4165 1.392 . S
C4166 C4167 1.385 . S
C4166 C4168 1.478 . S
C4167 H4161 0.930 . S
C4167 C4163 1.400 . S
C4167 C4166 1.385 . S
C4168 C4166 1.478 . S
C4168 C4170 1.381 . S
C4168 C4174 1.383 . S
C4169 C4165 1.495 . S
C4169 H4175 0.959 . S
C4169 H4176 0.961 . S
C4169 H4177 0.960 . S
C4170 C4168 1.381 . S
C4170 C4171 1.394 . S
C4170 H4178 0.930 . S
C4171 C4170 1.394 . S
C4171 C4172 1.383 . S
C4171 H4179 0.929 . S
C4172 C4171 1.383 . S
C4172 C4173 1.377 . S
C4173 H4157 0.930 . S
C4173 C4172 1.377 . S
C4173 C4174 1.379 . S
C4174 H4158 0.931 . S
C4174 C4168 1.383 . S
C4174 C4173 1.379 . S
H4175 C4169 0.959 . S
H4176 C4169 0.961 . S
H4177 C4169 0.960 . S
H4178 C4170 0.930 . S
H4179 C4171 0.929 . S
H4180 C4188 0.929 . S
H4181 C4190 0.930 . S
H4182 C4192 0.930 . S
H4183 C4195 0.929 . S
H4184 C4198 0.930 . S
H4185 C4200 0.960 . S
H4186 C4200 0.960 . S
H4187 C4200 0.960 . S
C4188 H4180 0.929 . S
C4188 C4189 1.377 . S
C4188 C4190 1.384 . S
C4189 C4188 1.377 . S
C4189 C4195 1.390 . S
C4190 H4181 0.930 . S
C4190 C4188 1.384 . S
C4190 C4191 1.372 . S
C4191 C4190 1.372 . S
C4191 C4192 1.400 . S
C4191 C4196 1.490 . S
C4192 H4182 0.930 . S
C4192 C4191 1.400 . S
C4192 C4195 1.386 . S
H4193 C4209 0.930 . S
H4194 C4210 0.931 . S
C4195 H4183 0.929 . S
C4195 C4189 1.390 . S
C4195 C4192 1.386 . S
C4196 C4191 1.490 . S
C4196 C4198 1.395 . S
C4196 C4199 1.403 . S
H4197 C4203 0.930 . S
C4198 H4184 0.930 . S
C4198 C4196 1.395 . S
C4198 C4201 1.403 . S
C4199 C4196 1.403 . S
C4199 C4200 1.524 . S
C4199 C4203 1.400 . S
C4200 H4185 0.960 . S
C4200 H4186 0.960 . S
C4200 H4187 0.960 . S
C4200 C4199 1.524 . S
C4201 C4198 1.403 . S
C4201 C4202 1.392 . S
C4201 C4205 1.495 . S
C4202 C4201 1.392 . S
C4202 C4203 1.385 . S
C4202 C4204 1.478 . S
C4203 H4197 0.930 . S
C4203 C4199 1.400 . S
C4203 C4202 1.385 . S
C4204 C4202 1.478 . S
C4204 C4206 1.381 . S
C4204 C4210 1.383 . S
C4205 C4201 1.495 . S
C4205 H4211 0.959 . S
C4205 H4212 0.961 . S
C4205 H4213 0.960 . S
C4206 C4204 1.381 . S
C4206 C4207 1.396 1_565 S
C4206 H4214 0.930 . S
C4207 C4206 1.396 1_545 S
C4207 C4208 1.384 . S
C4207 H4215 0.926 . S
C4208 C4207 1.384 . S
C4208 C4209 1.377 1_545 S
C4209 H4193 0.930 . S
C4209 C4208 1.377 1_565 S
C4209 C4210 1.379 . S
C4210 H4194 0.931 . S
C4210 C4204 1.383 . S
C4210 C4209 1.379 . S
H4211 C4205 0.959 . S
H4212 C4205 0.961 . S
H4213 C4205 0.960 . S
H4214 C4206 0.930 . S
H4215 C4207 0.926 . S
H4216 C4224 0.929 . S
H4217 C4226 0.930 . S
H4218 C4228 0.930 . S
H4219 C4231 0.929 . S
H4220 C4234 0.930 . S
H4221 C4236 0.960 . S
H4222 C4236 0.960 . S
H4223 C4236 0.960 . S
C4224 H4216 0.929 . S
C4224 C4225 1.377 . S
C4224 C4226 1.384 . S
C4225 C4224 1.377 . S
C4225 C4231 1.390 . S
C4226 H4217 0.930 . S
C4226 C4224 1.384 . S
C4226 C4227 1.372 . S
C4227 C4226 1.372 . S
C4227 C4228 1.400 . S
C4227 C4232 1.490 . S
C4228 H4218 0.930 . S
C4228 C4227 1.400 . S
C4228 C4231 1.386 . S
H4229 C4245 0.930 . S
H4230 C4246 0.931 . S
C4231 H4219 0.929 . S
C4231 C4225 1.390 . S
C4231 C4228 1.386 . S
C4232 C4227 1.490 . S
C4232 C4234 1.395 . S
C4232 C4235 1.403 . S
H4233 C4239 0.930 . S
C4234 H4220 0.930 . S
C4234 C4232 1.395 . S
C4234 C4237 1.403 . S
C4235 C4232 1.403 . S
C4235 C4236 1.524 . S
C4235 C4239 1.400 . S
C4236 H4221 0.960 . S
C4236 H4222 0.960 . S
C4236 H4223 0.960 . S
C4236 C4235 1.524 . S
C4237 C4234 1.403 . S
C4237 C4238 1.392 . S
C4237 C4241 1.495 . S
C4238 C4237 1.392 . S
C4238 C4239 1.385 . S
C4238 C4240 1.478 . S
C4239 H4233 0.930 . S
C4239 C4235 1.400 . S
C4239 C4238 1.385 . S
C4240 C4238 1.478 . S
C4240 C4242 1.381 . S
C4240 C4246 1.383 . S
C4241 C4237 1.495 . S
C4241 H4247 0.959 . S
C4241 H4248 0.961 . S
C4241 H4249 0.960 . S
C4242 C4240 1.381 . S
C4242 C4243 1.394 . S
C4242 H4250 0.930 . S
C4243 C4242 1.394 . S
C4243 C4244 1.383 . S
C4243 H4251 0.929 . S
C4244 C4243 1.383 . S
C4244 C4245 1.377 . S
C4245 H4229 0.930 . S
C4245 C4244 1.377 . S
C4245 C4246 1.379 . S
C4246 H4230 0.931 . S
C4246 C4240 1.383 . S
C4246 C4245 1.379 . S
H4247 C4241 0.959 . S
H4248 C4241 0.961 . S
H4249 C4241 0.960 . S
H4250 C4242 0.930 . S
H4251 C4243 0.929 . S
H4252 C4260 0.929 . S
H4253 C4262 0.930 . S
H4254 C4264 0.930 . S
H4255 C4267 0.929 . S
H4256 C4270 0.930 . S
H4257 C4272 0.960 . S
H4258 C4272 0.960 . S
H4259 C4272 0.960 . S
C4260 H4252 0.929 . S
C4260 C4261 1.377 . S
C4260 C4262 1.384 . S
C4261 C4260 1.377 . S
C4261 C4267 1.390 . S
C4262 H4253 0.930 . S
C4262 C4260 1.384 . S
C4262 C4263 1.372 . S
C4263 C4262 1.372 . S
C4263 C4264 1.400 . S
C4263 C4268 1.490 . S
C4264 H4254 0.930 . S
C4264 C4263 1.400 . S
C4264 C4267 1.386 . S
H4265 C4281 0.930 . S
H4266 C4282 0.931 . S
C4267 H4255 0.929 . S
C4267 C4261 1.390 . S
C4267 C4264 1.386 . S
C4268 C4263 1.490 . S
C4268 C4270 1.395 . S
C4268 C4271 1.403 . S
H4269 C4275 0.930 . S
C4270 H4256 0.930 . S
C4270 C4268 1.395 . S
C4270 C4273 1.403 . S
C4271 C4268 1.403 . S
C4271 C4272 1.524 . S
C4271 C4275 1.400 . S
C4272 H4257 0.960 . S
C4272 H4258 0.960 . S
C4272 H4259 0.960 . S
C4272 C4271 1.524 . S
C4273 C4270 1.403 . S
C4273 C4274 1.392 . S
C4273 C4277 1.495 . S
C4274 C4273 1.392 . S
C4274 C4275 1.385 . S
C4274 C4276 1.478 . S
C4275 H4269 0.930 . S
C4275 C4271 1.400 . S
C4275 C4274 1.385 . S
C4276 C4274 1.478 . S
C4276 C4278 1.381 . S
C4276 C4282 1.383 . S
C4277 C4273 1.495 . S
C4277 H4283 0.959 . S
C4277 H4284 0.961 . S
C4277 H4285 0.960 . S
C4278 C4276 1.381 . S
C4278 C4279 1.394 . S
C4278 H4286 0.930 . S
C4279 C4278 1.394 . S
C4279 C4280 1.383 . S
C4279 H4287 0.929 . S
C4280 C4279 1.383 . S
C4280 C4281 1.377 . S
C4281 H4265 0.930 . S
C4281 C4280 1.377 . S
C4281 C4282 1.379 . S
C4282 H4266 0.931 . S
C4282 C4276 1.383 . S
C4282 C4281 1.379 . S
H4283 C4277 0.959 . S
H4284 C4277 0.961 . S
H4285 C4277 0.960 . S
H4286 C4278 0.930 . S
H4287 C4279 0.929 . S
H4288 C4296 0.929 . S
H4289 C4298 0.930 . S
H4290 C4300 0.930 . S
H4291 C4303 0.929 . S
H4292 C4306 0.930 . S
H4293 C4308 0.960 . S
H4294 C4308 0.960 . S
H4295 C4308 0.960 . S
C4296 H4288 0.929 . S
C4296 C4297 1.377 . S
C4296 C4298 1.384 . S
C4297 C4296 1.377 . S
C4297 C4303 1.390 . S
C4298 H4289 0.930 . S
C4298 C4296 1.384 . S
C4298 C4299 1.372 . S
C4299 C4298 1.372 . S
C4299 C4300 1.400 . S
C4299 C4304 1.490 . S
C4300 H4290 0.930 . S
C4300 C4299 1.400 . S
C4300 C4303 1.386 . S
H4301 C4317 0.930 . S
H4302 C4318 0.931 . S
C4303 H4291 0.929 . S
C4303 C4297 1.390 . S
C4303 C4300 1.386 . S
C4304 C4299 1.490 . S
C4304 C4306 1.395 . S
C4304 C4307 1.403 . S
H4305 C4311 0.930 . S
C4306 H4292 0.930 . S
C4306 C4304 1.395 . S
C4306 C4309 1.403 . S
C4307 C4304 1.403 . S
C4307 C4308 1.524 . S
C4307 C4311 1.400 . S
C4308 H4293 0.960 . S
C4308 H4294 0.960 . S
C4308 H4295 0.960 . S
C4308 C4307 1.524 . S
C4309 C4306 1.403 . S
C4309 C4310 1.392 . S
C4309 C4313 1.495 . S
C4310 C4309 1.392 . S
C4310 C4311 1.385 . S
C4310 C4312 1.478 . S
C4311 H4305 0.930 . S
C4311 C4307 1.400 . S
C4311 C4310 1.385 . S
C4312 C4310 1.478 . S
C4312 C4314 1.381 . S
C4312 C4318 1.383 . S
C4313 C4309 1.495 . S
C4313 H4319 0.959 . S
C4313 H4320 0.961 . S
C4313 H4321 0.960 . S
C4314 C4312 1.381 . S
C4314 C4315 1.394 . S
C4314 H4322 0.930 . S
C4315 C4314 1.394 . S
C4315 C4316 1.383 . S
C4315 H4323 0.929 . S
C4316 C4315 1.383 . S
C4316 C4317 1.377 . S
C4317 H4301 0.930 . S
C4317 C4316 1.377 . S
C4317 C4318 1.379 . S
C4318 H4302 0.931 . S
C4318 C4312 1.383 . S
C4318 C4317 1.379 . S
H4319 C4313 0.959 . S
H4320 C4313 0.961 . S
H4321 C4313 0.960 . S
H4322 C4314 0.930 . S
H4323 C4315 0.929 . S
H4324 C4332 0.929 . S
H4325 C4334 0.930 . S
H4326 C4336 0.930 . S
H4327 C4339 0.929 . S
H4328 C4342 0.930 . S
H4329 C4344 0.960 . S
H4330 C4344 0.960 . S
H4331 C4344 0.960 . S
C4332 H4324 0.929 . S
C4332 C4333 1.377 . S
C4332 C4334 1.384 . S
C4333 C4332 1.377 . S
C4333 C4339 1.390 . S
C4334 H4325 0.930 . S
C4334 C4332 1.384 . S
C4334 C4335 1.372 . S
C4335 C4334 1.372 . S
C4335 C4336 1.400 . S
C4335 C4340 1.490 . S
C4336 H4326 0.930 . S
C4336 C4335 1.400 . S
C4336 C4339 1.386 . S
H4337 C4353 0.930 . S
H4338 C4354 0.931 . S
C4339 H4327 0.929 . S
C4339 C4333 1.390 . S
C4339 C4336 1.386 . S
C4340 C4335 1.490 . S
C4340 C4342 1.395 . S
C4340 C4343 1.403 . S
H4341 C4347 0.930 . S
C4342 H4328 0.930 . S
C4342 C4340 1.395 . S
C4342 C4345 1.403 . S
C4343 C4340 1.403 . S
C4343 C4344 1.524 . S
C4343 C4347 1.400 . S
C4344 H4329 0.960 . S
C4344 H4330 0.960 . S
C4344 H4331 0.960 . S
C4344 C4343 1.524 . S
C4345 C4342 1.403 . S
C4345 C4346 1.392 . S
C4345 C4349 1.495 . S
C4346 C4345 1.392 . S
C4346 C4347 1.385 . S
C4346 C4348 1.478 . S
C4347 H4341 0.930 . S
C4347 C4343 1.400 . S
C4347 C4346 1.385 . S
C4348 C4346 1.478 . S
C4348 C4350 1.381 . S
C4348 C4354 1.383 . S
C4349 C4345 1.495 . S
C4349 H4355 0.959 . S
C4349 H4356 0.961 . S
C4349 H4357 0.960 . S
C4350 C4348 1.381 . S
C4350 C4351 1.394 . S
C4350 H4358 0.930 . S
C4351 C4350 1.394 . S
C4351 C4352 1.383 . S
C4351 H4359 0.929 . S
C4352 C4351 1.383 . S
C4352 C4353 1.377 . S
C4353 H4337 0.930 . S
C4353 C4352 1.377 . S
C4353 C4354 1.379 . S
C4354 H4338 0.931 . S
C4354 C4348 1.383 . S
C4354 C4353 1.379 . S
H4355 C4349 0.959 . S
H4356 C4349 0.961 . S
H4357 C4349 0.960 . S
H4358 C4350 0.930 . S
H4359 C4351 0.929 . S
H4360 C4368 0.929 . S
H4361 C4370 0.930 . S
H4362 C4372 0.930 . S
H4363 C4375 0.929 . S
H4364 C4378 0.930 . S
H4365 C4380 0.960 . S
H4366 C4380 0.960 . S
H4367 C4380 0.960 . S
C4368 H4360 0.929 . S
C4368 C4369 1.377 . S
C4368 C4370 1.384 . S
C4369 C4368 1.377 . S
C4369 C4375 1.390 . S
C4370 H4361 0.930 . S
C4370 C4368 1.384 . S
C4370 C4371 1.372 . S
C4371 C4370 1.372 . S
C4371 C4372 1.400 . S
C4371 C4376 1.490 . S
C4372 H4362 0.930 . S
C4372 C4371 1.400 . S
C4372 C4375 1.386 . S
H4373 C4389 0.930 . S
H4374 C4390 0.931 . S
C4375 H4363 0.929 . S
C4375 C4369 1.390 . S
C4375 C4372 1.386 . S
C4376 C4371 1.490 . S
C4376 C4378 1.395 . S
C4376 C4379 1.403 . S
H4377 C4383 0.930 . S
C4378 H4364 0.930 . S
C4378 C4376 1.395 . S
C4378 C4381 1.403 . S
C4379 C4376 1.403 . S
C4379 C4380 1.524 . S
C4379 C4383 1.400 . S
C4380 H4365 0.960 . S
C4380 H4366 0.960 . S
C4380 H4367 0.960 . S
C4380 C4379 1.524 . S
C4381 C4378 1.403 . S
C4381 C4382 1.392 . S
C4381 C4385 1.495 . S
C4382 C4381 1.392 . S
C4382 C4383 1.385 . S
C4382 C4384 1.478 . S
C4383 H4377 0.930 . S
C4383 C4379 1.400 . S
C4383 C4382 1.385 . S
C4384 C4382 1.478 . S
C4384 C4386 1.381 . S
C4384 C4390 1.383 . S
C4385 C4381 1.495 . S
C4385 H4391 0.959 . S
C4385 H4392 0.961 . S
C4385 H4393 0.960 . S
C4386 C4384 1.381 . S
C4386 C4387 1.394 . S
C4386 H4394 0.930 . S
C4387 C4386 1.394 . S
C4387 C4388 1.383 . S
C4387 H4395 0.929 . S
C4388 C4387 1.383 . S
C4388 C4389 1.377 . S
C4389 H4373 0.930 . S
C4389 C4388 1.377 . S
C4389 C4390 1.379 . S
C4390 H4374 0.931 . S
C4390 C4384 1.383 . S
C4390 C4389 1.379 . S
H4391 C4385 0.959 . S
H4392 C4385 0.961 . S
H4393 C4385 0.960 . S
H4394 C4386 0.930 . S
H4395 C4387 0.929 . S
H4396 C4404 0.929 . S
H4397 C4406 0.930 . S
H4398 C4408 0.930 . S
H4399 C4411 0.929 . S
H4400 C4414 0.930 . S
H4401 C4416 0.960 . S
H4402 C4416 0.960 . S
H4403 C4416 0.960 . S
C4404 H4396 0.929 . S
C4404 C4405 1.377 . S
C4404 C4406 1.384 . S
C4405 C4404 1.377 . S
C4405 C4411 1.390 . S
C4406 H4397 0.930 . S
C4406 C4404 1.384 . S
C4406 C4407 1.372 . S
C4407 C4406 1.372 . S
C4407 C4408 1.400 . S
C4407 C4412 1.490 . S
C4408 H4398 0.930 . S
C4408 C4407 1.400 . S
C4408 C4411 1.386 . S
H4409 C4425 0.930 . S
H4410 C4426 0.931 . S
C4411 H4399 0.929 . S
C4411 C4405 1.390 . S
C4411 C4408 1.386 . S
C4412 C4407 1.490 . S
C4412 C4414 1.395 . S
C4412 C4415 1.403 . S
H4413 C4419 0.930 . S
C4414 H4400 0.930 . S
C4414 C4412 1.395 . S
C4414 C4417 1.403 . S
C4415 C4412 1.403 . S
C4415 C4416 1.524 . S
C4415 C4419 1.400 . S
C4416 H4401 0.960 . S
C4416 H4402 0.960 . S
C4416 H4403 0.960 . S
C4416 C4415 1.524 . S
C4417 C4414 1.403 . S
C4417 C4418 1.392 . S
C4417 C4421 1.495 . S
C4418 C4417 1.392 . S
C4418 C4419 1.385 . S
C4418 C4420 1.478 . S
C4419 H4413 0.930 . S
C4419 C4415 1.400 . S
C4419 C4418 1.385 . S
C4420 C4418 1.478 . S
C4420 C4422 1.381 . S
C4420 C4426 1.383 . S
C4421 C4417 1.495 . S
C4421 H4427 0.959 . S
C4421 H4428 0.961 . S
C4421 H4429 0.960 . S
C4422 C4420 1.381 . S
C4422 C4423 1.394 . S
C4422 H4430 0.930 . S
C4423 C4422 1.394 . S
C4423 C4424 1.383 . S
C4423 H4431 0.929 . S
C4424 C4423 1.383 . S
C4424 C4425 1.377 . S
C4425 H4409 0.930 . S
C4425 C4424 1.377 . S
C4425 C4426 1.379 . S
C4426 H4410 0.931 . S
C4426 C4420 1.383 . S
C4426 C4425 1.379 . S
H4427 C4421 0.959 . S
H4428 C4421 0.961 . S
H4429 C4421 0.960 . S
H4430 C4422 0.930 . S
H4431 C4423 0.929 . S
C985 C106 2.312 . S
C1004 C349 2.330 . S
C1021 C65 2.000 . S
C1040 C400 1.977 . S
C1057 C79 1.780 . S
C1076 C429 1.749 . S
C1112 C473 1.254 . S
C1093 C90 1.227 . S
C1129 C21 1.125 . S
C1148 C513 1.115 . S
C1184 C549 1.431 . S
C1165 C35 1.417 . S
C1220 C599 1.745 . S
C1201 C50 1.766 . S
C1237 C6 2.104 . S
C1256 C629 2.093 . S
C1292 C359 1.995 . S
C1273 C232 2.008 . S
C1309 C245 0.536 . S
C1328 C402 0.500 . S
C1364 C439 1.197 . S
C1345 C274 1.199 . S
C1400 C469 1.295 . S
C1381 C175 1.298 . S
C1417 C231 1.166 . S
C1436 C509 1.154 . S
C1472 C559 0.727 . S
C1453 C246 0.744 . S
C1508 C593 0.539 . S
C1489 C273 0.565 . S
C1544 C639 1.910 . S
C1525 C176 1.911 . S
C1580 C353 1.108 . S
C1561 C160 1.071 . S
C1597 C289 1.655 . S
C1616 C679 1.649 . S
C1652 C713 1.425 . S
C1633 C328 1.413 . S
C1688 C749 1.087 . S
C1669 C317 1.144 . S
C1705 C118 1.286 . S
C1724 C633 1.275 . S
C1741 C132 1.471 . S
C1760 C433 1.505 . S
C1777 C331 1.646 . S
C1796 C799 1.629 . S
C1832 C818 0.455 . S
C1813 C303 0.368 . S
C1868 C360 1.921 1_565 S
C1849 C63 1.945 . S
C1904 C829 2.444 . S
C1885 C107 2.418 . S
C1921 C92 1.618 . S
C1940 C440 1.625 . S
C1957 C78 1.840 . S
C1976 C802 1.812 . S
C2012 C522 1.667 . S
C1993 C8 1.695 . S
C2029 C51 1.666 . S
C2048 C720 1.684 . S
C2084 C578 2.212 . S
C2065 C37 2.145 . S
C2120 C880 2.080 . S
C2101 C20 2.109 . S
C2156 C338 1.838 1_556 S
C2137 C147 1.827 . S
C2192 C833 0.625 . S
C2173 C316 0.576 . S
C2209 C119 1.154 . S
C2228 C418 1.211 . S
C2245 C288 1.502 . S
C2264 C800 1.493 . S
C2281 C148 1.572 . S
C2300 C520 1.566 . S
C2336 C698 0.905 . S
C2317 C315 0.869 . S
C2353 C120 0.903 . S
C2372 C602 0.921 . S
C2389 C287 1.820 . S
C2408 C858 1.829 . S
C2425 C188 0.866 . S
C2444 C362 0.818 . S
C2461 C177 2.037 . S
C2480 C658 2.041 . S
C2497 C258 1.460 . S
C2516 C562 1.503 . S
C2533 C247 1.162 . S
C2552 C760 1.177 . S
C2588 C882 1.161 . S
C2569 C272 1.142 . S
C2605 C216 1.302 . S
C2624 C442 1.330 . S
C2660 C458 1.951 . S
C2641 C261 1.952 . S
C2696 C399 0.430 . S
C2677 C205 0.419 . S
C2713 C76 1.907 . S
C2732 C909 1.907 . S
C2768 C840 2.038 . S
C2749 C93 2.074 . S
C2785 C105 1.335 . S
C2804 C949 1.341 . S
C2821 C62 1.256 1_655 S
C2840 C793 1.278 . S
C2857 C49 1.097 . S
C2876 C673 1.098 . S
C2912 C709 1.836 . S
C2893 C9 1.867 . S
C2948 C759 1.663 . S
C2929 C22 1.684 . S
C2984 C869 2.531 . S
C2965 C36 2.516 . S
C3020 C919 1.915 . S
C3001 C260 1.917 . S
C3037 C189 0.439 . S
C3056 C842 0.331 . S
C3092 C959 1.072 . S
C3073 C204 1.093 . S
C3128 C789 1.127 . S
C3109 C217 1.104 . S
C3164 C669 1.329 1_556 S
C3145 C259 1.347 . S
C3181 C190 0.844 . S
C3200 C719 0.851 . S
C3236 C753 0.649 . S
C3217 C203 0.679 . S
C3253 C218 2.007 . S
C3272 C879 2.009 . S
C3308 C913 1.027 . S
C3289 C314 1.046 . S
C3325 C135 1.744 . S
C3344 C519 1.718 . S
C3380 C553 1.374 . S
C3361 C146 1.374 . S
C3416 C589 1.150 . S
C3397 C163 1.191 . S
C3452 C873 1.295 . S
C3433 C300 1.301 . S
C3469 C286 1.451 . S
C3488 C953 1.496 . S
C3524 C479 1.544 . S
C3505 C149 1.564 . S
C3560 C378 0.383 . S
C3541 C121 0.314 . S
C3577 C91 1.937 . S
C3596 C920 1.929 . S
C3632 C389 2.042 . S
C3613 C77 1.942 . S
C3649 C64 1.595 . S
C3668 C960 1.619 . S
C3685 C104 1.427 . S
C3704 C482 1.473 . S
C3721 C34 1.302 . S
C3740 C682 1.350 . S
C3776 C560 1.665 . S
C3757 C23 1.635 . S
C3793 C7 1.673 . S
C3812 C738 1.757 . S
C3829 C48 2.098 . S
C3848 C640 2.098 . S
C3884 C898 1.805 . S
C3865 C329 1.815 . S
C3901 C162 0.615 . S
C3920 C393 0.571 . S
C3956 C938 1.178 . S
C3937 C301 1.173 . S
C3973 C134 1.520 . S
C3992 C480 1.530 . S
C4009 C330 1.593 . S
C4028 C680 1.582 . S
C4064 C538 0.916 . S
C4045 C161 0.888 . S
C4081 C302 0.918 . S
C4100 C762 0.935 . S
C4136 C618 1.783 . S
C4117 C133 1.806 . S
C4172 C922 1.064 . S
C4153 C244 1.031 . S
C4208 C498 1.981 . S
C4189 C219 1.977 . S
C4225 C230 1.224 . S
C4244 C722 1.229 . S
C4280 C600 1.119 . S
C4261 C191 1.158 . S
C4297 C202 1.327 . S
C4316 C642 1.326 . S
C4333 C174 1.524 . S
C4352 C962 1.525 . S
C4388 C778 1.899 . S
C4369 C233 1.897 . S
C4424 C839 0.428 . S
C4405 C275 0.376 . S
