# Generated by pormake.
# Topology gar, (4,6)-cn, num edge types: 1
# Building blocks:
#     Node 0, Type 0, BuildingBlock: TATPOV_clean_sbu_0, # of connection points: 4
#     Node 1, Type 0, BuildingBlock: TATPOV_clean_sbu_0, # of connection points: 4
#     Node 2, Type 0, BuildingBlock: TATPOV_clean_sbu_0, # of connection points: 4
#     Node 3, Type 0, BuildingBlock: TATPOV_clean_sbu_0, # of connection points: 4
#     Node 4, Type 0, BuildingBlock: TATPOV_clean_sbu_0, # of connection points: 4
#     Node 5, Type 0, BuildingBlock: TATPOV_clean_sbu_0, # of connection points: 4
#     Node 6, Type 0, BuildingBlock: TATPOV_clean_sbu_0, # of connection points: 4
#     Node 7, Type 0, BuildingBlock: TATPOV_clean_sbu_0, # of connection points: 4
#     Node 8, Type 0, BuildingBlock: TATPOV_clean_sbu_0, # of connection points: 4
#     Node 9, Type 0, BuildingBlock: TATPOV_clean_sbu_0, # of connection points: 4
#     Node 10, Type 0, BuildingBlock: TATPOV_clean_sbu_0, # of connection points: 4
#     Node 11, Type 0, BuildingBlock: TATPOV_clean_sbu_0, # of connection points: 4
#     Node 12, Type 0, BuildingBlock: TATPOV_clean_sbu_0, # of connection points: 4
#     Node 13, Type 0, BuildingBlock: TATPOV_clean_sbu_0, # of connection points: 4
#     Node 14, Type 0, BuildingBlock: TATPOV_clean_sbu_0, # of connection points: 4
#     Node 15, Type 0, BuildingBlock: TATPOV_clean_sbu_0, # of connection points: 4
#     Node 16, Type 0, BuildingBlock: TATPOV_clean_sbu_0, # of connection points: 4
#     Node 17, Type 0, BuildingBlock: TATPOV_clean_sbu_0, # of connection points: 4
#     Node 18, Type 0, BuildingBlock: TATPOV_clean_sbu_0, # of connection points: 4
#     Node 19, Type 0, BuildingBlock: TATPOV_clean_sbu_0, # of connection points: 4
#     Node 20, Type 0, BuildingBlock: TATPOV_clean_sbu_0, # of connection points: 4
#     Node 21, Type 0, BuildingBlock: TATPOV_clean_sbu_0, # of connection points: 4
#     Node 22, Type 0, BuildingBlock: TATPOV_clean_sbu_0, # of connection points: 4
#     Node 23, Type 0, BuildingBlock: TATPOV_clean_sbu_0, # of connection points: 4
#     Node 24, Type 1, BuildingBlock: KUMJIN_clean_sbu_0, # of connection points: 6
#     Node 25, Type 1, BuildingBlock: KUMJIN_clean_sbu_0, # of connection points: 6
#     Node 26, Type 1, BuildingBlock: KUMJIN_clean_sbu_0, # of connection points: 6
#     Node 27, Type 1, BuildingBlock: KUMJIN_clean_sbu_0, # of connection points: 6
#     Node 28, Type 1, BuildingBlock: KUMJIN_clean_sbu_0, # of connection points: 6
#     Node 29, Type 1, BuildingBlock: KUMJIN_clean_sbu_0, # of connection points: 6
#     Node 30, Type 1, BuildingBlock: KUMJIN_clean_sbu_0, # of connection points: 6
#     Node 31, Type 1, BuildingBlock: KUMJIN_clean_sbu_0, # of connection points: 6
#     Node 32, Type 1, BuildingBlock: KUMJIN_clean_sbu_0, # of connection points: 6
#     Node 33, Type 1, BuildingBlock: KUMJIN_clean_sbu_0, # of connection points: 6
#     Node 34, Type 1, BuildingBlock: KUMJIN_clean_sbu_0, # of connection points: 6
#     Node 35, Type 1, BuildingBlock: KUMJIN_clean_sbu_0, # of connection points: 6
#     Node 36, Type 1, BuildingBlock: KUMJIN_clean_sbu_0, # of connection points: 6
#     Node 37, Type 1, BuildingBlock: KUMJIN_clean_sbu_0, # of connection points: 6
#     Node 38, Type 1, BuildingBlock: KUMJIN_clean_sbu_0, # of connection points: 6
#     Node 39, Type 1, BuildingBlock: KUMJIN_clean_sbu_0, # of connection points: 6
#     Edge 40, Type (0, 1), BuildingBlock: MIFKUJ_clean_linker_0, # of connection points: 2
#     Edge 41, Type (0, 1), BuildingBlock: MIFKUJ_clean_linker_0, # of connection points: 2
#     Edge 42, Type (0, 1), BuildingBlock: MIFKUJ_clean_linker_0, # of connection points: 2
#     Edge 43, Type (0, 1), BuildingBlock: MIFKUJ_clean_linker_0, # of connection points: 2
#     Edge 44, Type (0, 1), BuildingBlock: MIFKUJ_clean_linker_0, # of connection points: 2
#     Edge 45, Type (0, 1), BuildingBlock: MIFKUJ_clean_linker_0, # of connection points: 2
#     Edge 46, Type (0, 1), BuildingBlock: MIFKUJ_clean_linker_0, # of connection points: 2
#     Edge 47, Type (0, 1), BuildingBlock: MIFKUJ_clean_linker_0, # of connection points: 2
#     Edge 48, Type (0, 1), BuildingBlock: MIFKUJ_clean_linker_0, # of connection points: 2
#     Edge 49, Type (0, 1), BuildingBlock: MIFKUJ_clean_linker_0, # of connection points: 2
#     Edge 50, Type (0, 1), BuildingBlock: MIFKUJ_clean_linker_0, # of connection points: 2
#     Edge 51, Type (0, 1), BuildingBlock: MIFKUJ_clean_linker_0, # of connection points: 2
#     Edge 52, Type (0, 1), BuildingBlock: MIFKUJ_clean_linker_0, # of connection points: 2
#     Edge 53, Type (0, 1), BuildingBlock: MIFKUJ_clean_linker_0, # of connection points: 2
#     Edge 54, Type (0, 1), BuildingBlock: MIFKUJ_clean_linker_0, # of connection points: 2
#     Edge 55, Type (0, 1), BuildingBlock: MIFKUJ_clean_linker_0, # of connection points: 2
#     Edge 56, Type (0, 1), BuildingBlock: MIFKUJ_clean_linker_0, # of connection points: 2
#     Edge 57, Type (0, 1), BuildingBlock: MIFKUJ_clean_linker_0, # of connection points: 2
#     Edge 58, Type (0, 1), BuildingBlock: MIFKUJ_clean_linker_0, # of connection points: 2
#     Edge 59, Type (0, 1), BuildingBlock: MIFKUJ_clean_linker_0, # of connection points: 2
#     Edge 60, Type (0, 1), BuildingBlock: MIFKUJ_clean_linker_0, # of connection points: 2
#     Edge 61, Type (0, 1), BuildingBlock: MIFKUJ_clean_linker_0, # of connection points: 2
#     Edge 62, Type (0, 1), BuildingBlock: MIFKUJ_clean_linker_0, # of connection points: 2
#     Edge 63, Type (0, 1), BuildingBlock: MIFKUJ_clean_linker_0, # of connection points: 2
#     Edge 64, Type (0, 1), BuildingBlock: MIFKUJ_clean_linker_0, # of connection points: 2
#     Edge 65, Type (0, 1), BuildingBlock: MIFKUJ_clean_linker_0, # of connection points: 2
#     Edge 66, Type (0, 1), BuildingBlock: MIFKUJ_clean_linker_0, # of connection points: 2
#     Edge 67, Type (0, 1), BuildingBlock: MIFKUJ_clean_linker_0, # of connection points: 2
#     Edge 68, Type (0, 1), BuildingBlock: MIFKUJ_clean_linker_0, # of connection points: 2
#     Edge 69, Type (0, 1), BuildingBlock: MIFKUJ_clean_linker_0, # of connection points: 2
#     Edge 70, Type (0, 1), BuildingBlock: MIFKUJ_clean_linker_0, # of connection points: 2
#     Edge 71, Type (0, 1), BuildingBlock: MIFKUJ_clean_linker_0, # of connection points: 2
#     Edge 72, Type (0, 1), BuildingBlock: MIFKUJ_clean_linker_0, # of connection points: 2
#     Edge 73, Type (0, 1), BuildingBlock: MIFKUJ_clean_linker_0, # of connection points: 2
#     Edge 74, Type (0, 1), BuildingBlock: MIFKUJ_clean_linker_0, # of connection points: 2
#     Edge 75, Type (0, 1), BuildingBlock: MIFKUJ_clean_linker_0, # of connection points: 2
#     Edge 76, Type (0, 1), BuildingBlock: MIFKUJ_clean_linker_0, # of connection points: 2
#     Edge 77, Type (0, 1), BuildingBlock: MIFKUJ_clean_linker_0, # of connection points: 2
#     Edge 78, Type (0, 1), BuildingBlock: MIFKUJ_clean_linker_0, # of connection points: 2
#     Edge 79, Type (0, 1), BuildingBlock: MIFKUJ_clean_linker_0, # of connection points: 2
#     Edge 80, Type (0, 1), BuildingBlock: MIFKUJ_clean_linker_0, # of connection points: 2
#     Edge 81, Type (0, 1), BuildingBlock: MIFKUJ_clean_linker_0, # of connection points: 2
#     Edge 82, Type (0, 1), BuildingBlock: MIFKUJ_clean_linker_0, # of connection points: 2
#     Edge 83, Type (0, 1), BuildingBlock: MIFKUJ_clean_linker_0, # of connection points: 2
#     Edge 84, Type (0, 1), BuildingBlock: MIFKUJ_clean_linker_0, # of connection points: 2
#     Edge 85, Type (0, 1), BuildingBlock: MIFKUJ_clean_linker_0, # of connection points: 2
#     Edge 86, Type (0, 1), BuildingBlock: MIFKUJ_clean_linker_0, # of connection points: 2
#     Edge 87, Type (0, 1), BuildingBlock: MIFKUJ_clean_linker_0, # of connection points: 2
#     Edge 88, Type (0, 1), BuildingBlock: MIFKUJ_clean_linker_0, # of connection points: 2
#     Edge 89, Type (0, 1), BuildingBlock: MIFKUJ_clean_linker_0, # of connection points: 2
#     Edge 90, Type (0, 1), BuildingBlock: MIFKUJ_clean_linker_0, # of connection points: 2
#     Edge 91, Type (0, 1), BuildingBlock: MIFKUJ_clean_linker_0, # of connection points: 2
#     Edge 92, Type (0, 1), BuildingBlock: MIFKUJ_clean_linker_0, # of connection points: 2
#     Edge 93, Type (0, 1), BuildingBlock: MIFKUJ_clean_linker_0, # of connection points: 2
#     Edge 94, Type (0, 1), BuildingBlock: MIFKUJ_clean_linker_0, # of connection points: 2
#     Edge 95, Type (0, 1), BuildingBlock: MIFKUJ_clean_linker_0, # of connection points: 2
#     Edge 96, Type (0, 1), BuildingBlock: MIFKUJ_clean_linker_0, # of connection points: 2
#     Edge 97, Type (0, 1), BuildingBlock: MIFKUJ_clean_linker_0, # of connection points: 2
#     Edge 98, Type (0, 1), BuildingBlock: MIFKUJ_clean_linker_0, # of connection points: 2
#     Edge 99, Type (0, 1), BuildingBlock: MIFKUJ_clean_linker_0, # of connection points: 2
#     Edge 100, Type (0, 1), BuildingBlock: MIFKUJ_clean_linker_0, # of connection points: 2
#     Edge 101, Type (0, 1), BuildingBlock: MIFKUJ_clean_linker_0, # of connection points: 2
#     Edge 102, Type (0, 1), BuildingBlock: MIFKUJ_clean_linker_0, # of connection points: 2
#     Edge 103, Type (0, 1), BuildingBlock: MIFKUJ_clean_linker_0, # of connection points: 2
#     Edge 104, Type (0, 1), BuildingBlock: MIFKUJ_clean_linker_0, # of connection points: 2
#     Edge 105, Type (0, 1), BuildingBlock: MIFKUJ_clean_linker_0, # of connection points: 2
#     Edge 106, Type (0, 1), BuildingBlock: MIFKUJ_clean_linker_0, # of connection points: 2
#     Edge 107, Type (0, 1), BuildingBlock: MIFKUJ_clean_linker_0, # of connection points: 2
#     Edge 108, Type (0, 1), BuildingBlock: MIFKUJ_clean_linker_0, # of connection points: 2
#     Edge 109, Type (0, 1), BuildingBlock: MIFKUJ_clean_linker_0, # of connection points: 2
#     Edge 110, Type (0, 1), BuildingBlock: MIFKUJ_clean_linker_0, # of connection points: 2
#     Edge 111, Type (0, 1), BuildingBlock: MIFKUJ_clean_linker_0, # of connection points: 2
#     Edge 112, Type (0, 1), BuildingBlock: MIFKUJ_clean_linker_0, # of connection points: 2
#     Edge 113, Type (0, 1), BuildingBlock: MIFKUJ_clean_linker_0, # of connection points: 2
#     Edge 114, Type (0, 1), BuildingBlock: MIFKUJ_clean_linker_0, # of connection points: 2
#     Edge 115, Type (0, 1), BuildingBlock: MIFKUJ_clean_linker_0, # of connection points: 2
#     Edge 116, Type (0, 1), BuildingBlock: MIFKUJ_clean_linker_0, # of connection points: 2
#     Edge 117, Type (0, 1), BuildingBlock: MIFKUJ_clean_linker_0, # of connection points: 2
#     Edge 118, Type (0, 1), BuildingBlock: MIFKUJ_clean_linker_0, # of connection points: 2
#     Edge 119, Type (0, 1), BuildingBlock: MIFKUJ_clean_linker_0, # of connection points: 2
#     Edge 120, Type (0, 1), BuildingBlock: MIFKUJ_clean_linker_0, # of connection points: 2
#     Edge 121, Type (0, 1), BuildingBlock: MIFKUJ_clean_linker_0, # of connection points: 2
#     Edge 122, Type (0, 1), BuildingBlock: MIFKUJ_clean_linker_0, # of connection points: 2
#     Edge 123, Type (0, 1), BuildingBlock: MIFKUJ_clean_linker_0, # of connection points: 2
#     Edge 124, Type (0, 1), BuildingBlock: MIFKUJ_clean_linker_0, # of connection points: 2
#     Edge 125, Type (0, 1), BuildingBlock: MIFKUJ_clean_linker_0, # of connection points: 2
#     Edge 126, Type (0, 1), BuildingBlock: MIFKUJ_clean_linker_0, # of connection points: 2
#     Edge 127, Type (0, 1), BuildingBlock: MIFKUJ_clean_linker_0, # of connection points: 2
#     Edge 128, Type (0, 1), BuildingBlock: MIFKUJ_clean_linker_0, # of connection points: 2
#     Edge 129, Type (0, 1), BuildingBlock: MIFKUJ_clean_linker_0, # of connection points: 2
#     Edge 130, Type (0, 1), BuildingBlock: MIFKUJ_clean_linker_0, # of connection points: 2
#     Edge 131, Type (0, 1), BuildingBlock: MIFKUJ_clean_linker_0, # of connection points: 2
#     Edge 132, Type (0, 1), BuildingBlock: MIFKUJ_clean_linker_0, # of connection points: 2
#     Edge 133, Type (0, 1), BuildingBlock: MIFKUJ_clean_linker_0, # of connection points: 2
#     Edge 134, Type (0, 1), BuildingBlock: MIFKUJ_clean_linker_0, # of connection points: 2
#     Edge 135, Type (0, 1), BuildingBlock: MIFKUJ_clean_linker_0, # of connection points: 2
# Relax obj value: 0.125
# Max RMSD: 0.314
# Mean RMSD: 0.168
data_MOF--net-gar--node1-TATPOV_clean_sbu_0--node2-KUMJIN_clean_sbu_0--edge1-MIFKUJ_clean_linker_0
_symmetry_space_group_name_H-M    P1
_symmetry_Int_Tables_number       1
_symmetry_cell_setting            triclinic
loop_
_symmetry_equiv_pos_as_xyz
'x, y, z'
_cell_length_a     76.814727
_cell_length_b     72.519713
_cell_length_c     72.664384
_cell_angle_alpha  100.43859
_cell_angle_beta   93.552118
_cell_angle_gamma 104.21129
loop_
_atom_site_label
_atom_site_type_symbol
_atom_site_fract_x
_atom_site_fract_y
_atom_site_fract_z
_atom_type_partial_charge
Zn0 Zn 0.09135 0.33637 0.41883 0.0
Zn1 Zn 0.10535 0.32189 0.3917 0.0
O2 O 0.11755 0.35053 0.3996 0.0
O3 O 0.11507 0.35605 0.42957 0.0
O4 O 0.11895 0.31441 0.37115 0.0
O5 O 0.08514 0.31017 0.42552 0.0
O6 O 0.10684 0.30359 0.40926 0.0
C7 C 0.12147 0.362 0.41549 0.0
C8 C 0.07082 0.32953 0.38312 0.0
O9 O 0.08026 0.31758 0.37896 0.0
O10 O 0.07458 0.34166 0.39866 0.0
C11 C 0.12188 0.32541 0.35934 0.0
O12 O 0.11472 0.34023 0.36058 0.0
C13 C 0.09537 0.29933 0.42065 0.0
Zn14 Zn 0.00447 0.74553 0.68622 0.0
Zn15 Zn 0.00624 0.76911 0.66315 0.0
O16 O 0.98728 0.77486 0.67927 0.0
O17 O 0.98189 0.74983 0.69336 0.0
O18 O 0.00809 0.78871 0.64694 0.0
O19 O 0.02739 0.76136 0.7004 0.0
O20 O 0.03186 0.77268 0.67457 0.0
C21 C 0.97792 0.76453 0.68926 0.0
C22 C 0.99772 0.72649 0.64824 0.0
O23 O 0.99689 0.74312 0.64568 0.0
O24 O 0.00308 0.72422 0.66429 0.0
C25 C 0.0095 0.78474 0.62946 0.0
O26 O 0.01036 0.76723 0.62161 0.0
C27 C 0.03801 0.76961 0.69004 0.0
Zn28 Zn 0.58615 0.83321 0.92326 0.0
Zn29 Zn 0.6044 0.82451 0.89475 0.0
O30 O 0.61849 0.85205 0.90692 0.0
O31 O 0.6044 0.85882 0.93164 0.0
O32 O 0.61979 0.81835 0.8753 0.0
O33 O 0.58925 0.81094 0.93385 0.0
O34 O 0.60301 0.80263 0.90919 0.0
C35 C 0.61709 0.86362 0.92174 0.0
C36 C 0.56619 0.82519 0.88607 0.0
O37 O 0.58093 0.82334 0.87999 0.0
O38 O 0.56499 0.82912 0.90358 0.0
C39 C 0.62523 0.8305 0.86501 0.0
O40 O 0.61954 0.84633 0.86674 0.0
C41 C 0.59682 0.79934 0.92444 0.0
Zn42 Zn 0.49552 0.23781 0.17612 0.0
Zn43 Zn 0.50304 0.26644 0.15929 0.0
O44 O 0.48223 0.2693 0.17393 0.0
O45 O 0.48293 0.25077 0.19467 0.0
O46 O 0.50608 0.28777 0.1448 0.0
O47 O 0.52182 0.24097 0.18107 0.0
O48 O 0.52758 0.26973 0.1734 0.0
C49 C 0.47636 0.26283 0.18805 0.0
C50 C 0.48705 0.22475 0.13872 0.0
O51 O 0.49698 0.24179 0.13991 0.0
O52 O 0.48114 0.21941 0.15324 0.0
C53 C 0.50483 0.2843 0.12693 0.0
O54 O 0.50183 0.26638 0.11752 0.0
C55 C 0.53293 0.25667 0.1799 0.0
Zn56 Zn 0.10825 0.81549 0.09244 0.0
Zn57 Zn 0.07942 0.80987 0.11164 0.0
O58 O 0.07794 0.83319 0.09811 0.0
O59 O 0.10175 0.83758 0.08244 0.0
O60 O 0.05699 0.80619 0.12638 0.0
O61 O 0.09921 0.78709 0.07878 0.0
O62 O 0.07479 0.783 0.09355 0.0
C63 C 0.08764 0.84236 0.08723 0.0
C64 C 0.11924 0.81825 0.1312 0.0
O65 O 0.10207 0.81355 0.1317 0.0
O66 O 0.12563 0.82126 0.11605 0.0
C67 C 0.04916 0.81951 0.13186 0.0
O68 O 0.05593 0.83696 0.12864 0.0
C69 C 0.08447 0.7762 0.08182 0.0
Zn70 Zn 0.49091 0.76149 0.44641 0.0
Zn71 Zn 0.51663 0.76473 0.42419 0.0
O72 O 0.52278 0.79251 0.44174 0.0
O73 O 0.50213 0.78853 0.4614 0.0
O74 O 0.5378 0.76558 0.4074 0.0
O75 O 0.49515 0.73786 0.45495 0.0
O76 O 0.51817 0.74157 0.43819 0.0
C77 C 0.51544 0.79942 0.45581 0.0
C78 C 0.47639 0.76032 0.40891 0.0
O79 O 0.49283 0.76148 0.40564 0.0
O80 O 0.47202 0.75964 0.42532 0.0
C81 C 0.55416 0.77392 0.4143 0.0
O82 O 0.55734 0.78237 0.43221 0.0
C83 C 0.5088 0.73258 0.44944 0.0
Zn84 Zn 0.60655 0.31232 0.58826 0.0
Zn85 Zn 0.58176 0.3104 0.61195 0.0
O86 O 0.58003 0.33409 0.59862 0.0
O87 O 0.60165 0.33619 0.58007 0.0
O88 O 0.55939 0.30689 0.62687 0.0
O89 O 0.5951 0.28493 0.57312 0.0
O90 O 0.57662 0.28246 0.59498 0.0
C91 C 0.58889 0.34254 0.58671 0.0
C92 C 0.6215 0.31546 0.6274 0.0
O93 O 0.60526 0.31486 0.63108 0.0
O94 O 0.62517 0.31484 0.61053 0.0
C95 C 0.55435 0.32044 0.63712 0.0
O96 O 0.56443 0.33837 0.63956 0.0
C97 C 0.58263 0.27463 0.58034 0.0
Zn98 Zn 0.99569 0.26468 0.95035 0.0
Zn99 Zn 0.0186 0.26649 0.92555 0.0
O100 O 0.02582 0.29448 0.94261 0.0
O101 O 0.00737 0.29174 0.96451 0.0
O102 O 0.03887 0.2673 0.90785 0.0
O103 O 0.00078 0.24205 0.95962 0.0
O104 O 0.02045 0.24289 0.93888 0.0
C105 C 0.01995 0.30205 0.95746 0.0
C106 C 0.97815 0.26222 0.91336 0.0
O107 O 0.99414 0.26356 0.90859 0.0
O108 O 0.97536 0.26153 0.93026 0.0
C109 C 0.05523 0.271 0.91515 0.0
O110 O 0.05846 0.27428 0.93358 0.0
C111 C 0.0128 0.23525 0.9519 0.0
Zn112 Zn 0.4267 0.00805 0.28179 0.0
Zn113 Zn 0.41778 0.04164 0.2877 0.0
O114 O 0.43433 0.04456 0.31015 0.0
O115 O 0.43514 0.01433 0.30973 0.0
O116 O 0.41183 0.06659 0.29088 0.0
O117 O 0.44314 0.01745 0.26298 0.0
O118 O 0.428 0.03967 0.26355 0.0
C119 C 0.43852 0.03191 0.31814 0.0
C120 C 0.38881 0.00564 0.27934 0.0
O121 O 0.39404 0.0232 0.28775 0.0
O122 O 0.40006 0.99655 0.27316 0.0
C123 C 0.40265 0.07059 0.30421 0.0
O124 O 0.39887 0.05876 0.31598 0.0
C125 C 0.43877 0.03068 0.25606 0.0
Zn126 Zn 0.2782 0.21733 0.50495 0.0
Zn127 Zn 0.29888 0.19464 0.50492 0.0
O128 O 0.30429 0.20761 0.4815 0.0
O129 O 0.28685 0.22765 0.48298 0.0
O130 O 0.31655 0.17762 0.50481 0.0
O131 O 0.28687 0.23201 0.53087 0.0
O132 O 0.30449 0.21241 0.5321 0.0
C133 C 0.29825 0.22023 0.47476 0.0
C134 C 0.25766 0.17807 0.49981 0.0
O135 O 0.27333 0.17499 0.5012 0.0
O136 O 0.25622 0.19522 0.50085 0.0
C137 C 0.33302 0.18369 0.50205 0.0
O138 O 0.33883 0.20145 0.49921 0.0
C139 C 0.29834 0.22636 0.54008 0.0
Zn140 Zn 0.14373 0.02463 0.76803 0.0
Zn141 Zn 0.1669 0.0042 0.76488 0.0
O142 O 0.15298 0.0023 0.79181 0.0
O143 O 0.13279 0.01922 0.79162 0.0
O144 O 0.18397 0.98199 0.76256 0.0
O145 O 0.12927 0.01577 0.74244 0.0
O146 O 0.15087 1.00127 0.73614 0.0
C147 C 0.14044 0.00894 0.7999 0.0
C148 C 0.18065 0.04978 0.77091 0.0
O149 O 0.18523 0.03358 0.76901 0.0
O150 O 0.16403 0.04925 0.77099 0.0
C151 C 0.18143 0.96599 0.76902 0.0
O152 O 0.16709 0.96158 0.77793 0.0
C153 C 0.13688 0.0067 0.73026 0.0
Zn154 Zn 0.34303 0.91282 0.0108 0.0
Zn155 Zn 0.30969 0.92594 0.01868 0.0
O156 O 0.30664 0.90921 0.99333 0.0
O157 O 0.33367 0.92486 0.98993 0.0
O158 O 0.29056 0.9392 0.01992 0.0
O159 O 0.33233 0.90231 0.03332 0.0
O160 O 0.30698 0.91066 0.03813 0.0
C161 C 0.3186 0.91378 0.98261 0.0
C162 C 0.34638 0.94716 0.03612 0.0
O163 O 0.33229 0.94745 0.02615 0.0
O164 O 0.35034 0.9312 0.03608 0.0
C165 C 0.28629 0.94645 0.00629 0.0
O166 O 0.29401 0.94418 0.99071 0.0
C167 C 0.31884 0.90238 0.04257 0.0
Zn168 Zn 0.31874 0.36113 0.0313 0.0
Zn169 Zn 0.29857 0.38616 0.03326 0.0
O170 O 0.29331 0.37009 0.00602 0.0
O171 O 0.30647 0.34629 0.00583 0.0
O172 O 0.27968 0.40176 0.03491 0.0
O173 O 0.31132 0.35251 0.05468 0.0
O174 O 0.29287 0.37151 0.05523 0.0
C175 C 0.29668 0.35461 0.99747 0.0
C176 C 0.33945 0.40157 0.03617 0.0
O177 O 0.32414 0.40554 0.03697 0.0
O178 O 0.34026 0.38406 0.03349 0.0
C179 C 0.27312 0.40683 0.02071 0.0
O180 O 0.2796 0.40315 0.00453 0.0
C181 C 0.29921 0.35927 0.06219 0.0
Zn182 Zn 0.76658 0.1628 0.02713 0.0
Zn183 Zn 0.78955 0.14767 0.02588 0.0
O184 O 0.79238 0.16032 0.00281 0.0
O185 O 0.76322 0.15708 0.99917 0.0
O186 O 0.80804 0.13381 0.02742 0.0
O187 O 0.78305 0.18803 0.04034 0.0
O188 O 0.79347 0.16622 0.0512 0.0
C189 C 0.77827 0.16025 0.99259 0.0
C190 C 0.75382 0.12715 0.03129 0.0
O191 O 0.76651 0.12631 0.02117 0.0
O192 O 0.75437 0.14318 0.04186 0.0
C193 C 0.80807 0.12087 0.01323 0.0
O194 O 0.79668 0.11817 0.99814 0.0
C195 C 0.79165 0.18339 0.05334 0.0
Zn196 Zn 0.15385 0.57081 0.25595 0.0
Zn197 Zn 0.18105 0.53683 0.23969 0.0
O198 O 0.19005 0.54209 0.26749 0.0
O199 O 0.17844 0.56523 0.263 0.0
O200 O 0.18428 0.51159 0.22758 0.0
O201 O 0.13255 0.54914 0.23809 0.0
O202 O 0.15637 0.53918 0.23937 0.0
C203 C 0.18282 0.55534 0.27432 0.0
C204 C 0.1912 0.57578 0.2328 0.0
O205 O 0.19366 0.55881 0.22906 0.0
O206 O 0.17845 0.57947 0.24242 0.0
C207 C 0.20038 0.51236 0.2241 0.0
O208 O 0.21168 0.52944 0.225 0.0
C209 C 0.14108 0.53721 0.23096 0.0
Zn210 Zn 0.81844 0.86362 0.53091 0.0
Zn211 Zn 0.79918 0.88887 0.53345 0.0
O212 O 0.79376 0.87282 0.50607 0.0
O213 O 0.80656 0.84872 0.50561 0.0
O214 O 0.78158 0.90594 0.53408 0.0
O215 O 0.81077 0.85479 0.55388 0.0
O216 O 0.79298 0.87452 0.55577 0.0
C217 C 0.79688 0.85723 0.4974 0.0
C218 C 0.84016 0.9032 0.5363 0.0
O219 O 0.82502 0.90748 0.53733 0.0
O220 O 0.84066 0.88559 0.53324 0.0
C221 C 0.76481 0.89751 0.5298 0.0
O222 O 0.75979 0.87844 0.52534 0.0
C223 C 0.7992 0.86185 0.56219 0.0
Zn224 Zn 0.95396 0.04935 0.2673 0.0
Zn225 Zn 0.93291 0.07329 0.27134 0.0
O226 O 0.94895 0.07657 0.29973 0.0
O227 O 0.96728 0.05766 0.29354 0.0
O228 O 0.9164 0.09587 0.27257 0.0
O229 O 0.96635 0.05666 0.24496 0.0
O230 O 0.94742 0.07507 0.24489 0.0
C231 C 0.96154 0.06907 0.30552 0.0
C232 C 0.91656 0.02723 0.26485 0.0
O233 O 0.91386 0.0444 0.26808 0.0
O234 O 0.93242 0.02553 0.26303 0.0
C235 C 0.92146 0.11477 0.27743 0.0
O236 O 0.93868 0.12271 0.28318 0.0
C237 C 0.95982 0.06799 0.23702 0.0
Zn238 Zn 0.25813 0.68537 0.51722 0.0
Zn239 Zn 0.29101 0.65735 0.52707 0.0
O240 O 0.28882 0.65046 0.49808 0.0
O241 O 0.26706 0.66206 0.50709 0.0
O242 O 0.31245 0.6495 0.53641 0.0
O243 O 0.27399 0.70452 0.5403 0.0
O244 O 0.29129 0.68569 0.53209 0.0
C245 C 0.27631 0.65806 0.49398 0.0
C246 C 0.25241 0.64313 0.53148 0.0
O247 O 0.26845 0.64194 0.53527 0.0
O248 O 0.24901 0.65696 0.52418 0.0
C249 C 0.30981 0.63152 0.52946 0.0
O250 O 0.29423 0.62203 0.51962 0.0
C251 C 0.28642 0.69695 0.545 0.0
Zn252 Zn 0.4529 0.5503 0.76601 0.0
Zn253 Zn 0.43349 0.57406 0.77152 0.0
O254 O 0.45021 0.57612 0.79949 0.0
O255 O 0.468 0.55733 0.79084 0.0
O256 O 0.42018 0.59935 0.77374 0.0
O257 O 0.46376 0.55449 0.74225 0.0
O258 O 0.44757 0.57581 0.74479 0.0
C259 C 0.46277 0.56794 0.80399 0.0
C260 C 0.4161 0.52852 0.7662 0.0
O261 O 0.41313 0.54559 0.76828 0.0
O262 O 0.43202 0.52705 0.76455 0.0
C263 C 0.40349 0.60026 0.77441 0.0
O264 O 0.39139 0.58399 0.77463 0.0
C265 C 0.45845 0.56733 0.73559 0.0
Zn266 Zn 0.67489 0.06578 0.74172 0.0
Zn267 Zn 0.68567 0.03594 0.7387 0.0
O268 O 0.67112 0.03392 0.76022 0.0
O269 O 0.67418 0.06523 0.76932 0.0
O270 O 0.69361 0.01204 0.73499 0.0
O271 O 0.6538 0.05292 0.72285 0.0
O272 O 0.67174 0.03424 0.71426 0.0
C273 C 0.67012 0.04824 0.77258 0.0
C274 C 0.71096 0.07194 0.73699 0.0
O275 O 0.70872 0.0573 0.74456 0.0
O276 O 0.69744 0.07698 0.73104 0.0
C277 C 0.70723 0.01218 0.74578 0.0
O278 O 0.71481 0.02757 0.75894 0.0
C279 C 0.65829 0.04069 0.71062 0.0
Zn280 Zn 0.7784 0.71689 0.007 0.0
Zn281 Zn 0.80022 0.69499 0.0077 0.0
O282 O 0.80577 0.70823 0.98458 0.0
O283 O 0.78849 0.72843 0.98622 0.0
O284 O 0.82018 0.68094 0.00942 0.0
O285 O 0.78567 0.73141 0.03324 0.0
O286 O 0.80449 0.71308 0.03441 0.0
C287 C 0.80018 0.72132 0.97822 0.0
C288 C 0.75943 0.67647 0.00046 0.0
O289 O 0.77525 0.67401 0.00323 0.0
O290 O 0.75748 0.69339 0.00104 0.0
C291 C 0.82318 0.66829 0.99626 0.0
O292 O 0.8124 0.66289 0.9804 0.0
C293 C 0.79776 0.72655 0.04235 0.0
Zn294 Zn 0.94889 0.51281 0.78476 0.0
Zn295 Zn 0.92873 0.5444 0.78868 0.0
O296 O 0.93036 0.54403 0.81561 0.0
O297 O 0.94782 0.52355 0.81243 0.0
O298 O 0.91756 0.56587 0.78543 0.0
O299 O 0.96489 0.52732 0.76792 0.0
O300 O 0.95437 0.54951 0.78345 0.0
C301 C 0.93964 0.5342 0.82256 0.0
C302 C 0.91031 0.50106 0.77201 0.0
O303 O 0.91092 0.51897 0.77693 0.0
O304 O 0.92451 0.49511 0.77299 0.0
C305 C 0.90176 0.56315 0.79055 0.0
O306 O 0.89493 0.54739 0.79694 0.0
C307 C 0.96055 0.54311 0.76864 0.0
Zn308 Zn 0.84745 0.42972 0.52646 0.0
Zn309 Zn 0.8155 0.43409 0.5217 0.0
O310 O 0.81605 0.41654 0.49742 0.0
O311 O 0.84547 0.42099 0.49795 0.0
O312 O 0.79178 0.43925 0.51879 0.0
O313 O 0.8388 0.41036 0.54231 0.0
O314 O 0.81441 0.42108 0.54371 0.0
C315 C 0.82972 0.41443 0.48922 0.0
C316 C 0.84819 0.46845 0.53263 0.0
O317 O 0.83249 0.46071 0.5241 0.0
O318 O 0.85691 0.45791 0.53908 0.0
C319 C 0.79009 0.45052 0.50777 0.0
O320 O 0.80355 0.45717 0.49841 0.0
C321 C 0.82414 0.41084 0.54914 0.0
Zn322 Zn 0.64474 0.52624 0.26703 0.0
Zn323 Zn 0.66681 0.5047 0.26605 0.0
O324 O 0.65206 0.50332 0.29266 0.0
O325 O 0.6331 0.52126 0.29036 0.0
O326 O 0.68377 0.48237 0.26436 0.0
O327 O 0.63076 0.51778 0.24129 0.0
O328 O 0.65143 0.50155 0.23676 0.0
C329 C 0.63955 0.51087 0.2997 0.0
C330 C 0.68177 0.55022 0.27039 0.0
O331 O 0.68572 0.53383 0.27014 0.0
O332 O 0.6653 0.55042 0.26935 0.0
C333 C 0.68035 0.46553 0.26929 0.0
O334 O 0.66488 0.46001 0.27609 0.0
C335 C 0.63815 0.50757 0.22992 0.0
Eu336 Eu 0.03148 0.02746 0.00882 0.0
C337 C 0.09179 0.09838 0.05533 0.0
C338 C 0.10102 0.11916 0.03316 0.0
C339 C 0.10717 0.13259 0.06672 0.0
C340 C 0.09259 0.1008 0.03694 0.0
C341 C 0.09927 0.11422 0.07044 0.0
C342 C 0.10826 0.13497 0.04812 0.0
C343 C 0.09334 0.09206 0.09176 0.0
N344 N 0.08507 0.08025 0.05848 0.0
C345 C 0.08656 0.07676 0.07632 0.0
C346 C 0.09953 0.11093 0.08882 0.0
Eu347 Eu 0.07533 0.05453 0.03182 0.0
N348 N 0.08647 0.08497 0.02279 0.0
C349 C 0.08916 0.08653 0.00462 0.0
C350 C 0.10276 0.12093 0.01449 0.0
C351 C 0.09691 0.10449 0.00017 0.0
H352 H 0.08226 0.06207 0.07862 0.0
H353 H 0.09852 0.10557 0.98568 0.0
H354 H 0.1152 0.14899 0.04546 0.0
H355 H 0.09403 0.08924 0.10587 0.0
H356 H 0.08497 0.07415 0.99321 0.0
H357 H 0.01088 0.97978 0.05902 0.0
H358 H 0.10904 0.13478 0.01103 0.0
H359 H 0.02521 0.01679 0.96193 0.0
H360 H 0.02609 0.00957 0.04958 0.0
H361 H 0.01026 0.98911 0.93615 0.0
H362 H 0.1131 0.14487 0.07812 0.0
H363 H 0.99488 0.95081 0.03507 0.0
H364 H 0.98545 0.93529 0.00112 0.0
H365 H 0.10513 0.12273 0.10077 0.0
H366 H 0.98556 0.93765 0.9678 0.0
N367 N 0.01913 0.99835 0.01994 0.0
C368 C 0.01915 0.99744 0.03863 0.0
C369 C 0.00159 0.96402 0.03068 0.0
C370 C 0.00142 0.96492 0.01163 0.0
C371 C 0.01056 0.98034 0.04422 0.0
C372 C 0.01044 0.98246 0.00662 0.0
H373 H 0.99495 0.9575 0.94348 0.0
N374 N 0.01952 1.00066 0.98355 0.0
C375 C 0.01042 0.9873 0.95062 0.0
C376 C 0.01077 0.98363 0.98788 0.0
C377 C 0.01901 0.00288 0.96524 0.0
C378 C 0.00178 0.9695 0.95482 0.0
C379 C 0.00172 0.96753 0.97362 0.0
O380 O 0.01239 0.03649 0.99143 0.0
O381 O 0.04985 0.05733 0.01832 0.0
O382 O 0.05575 0.06207 0.05333 0.0
O383 O 0.02908 0.03884 0.04042 0.0
O384 O 0.03903 0.04952 0.99035 0.0
O385 O 0.00653 0.03194 0.01939 0.0
O386 O 0.09463 0.04354 0.04677 0.0
O387 O 0.05749 0.02419 0.02157 0.0
O388 O 0.05086 0.01893 0.98773 0.0
O389 O 0.07705 0.04329 -0.00024 0.0
O390 O 0.0679 0.03213 0.04959 0.0
O391 O 0.10229 0.0563 0.02275 0.0
C392 C 0.04852 0.06359 0.00328 0.0
C393 C 0.98196 0.02918 0.99699 0.0
C394 C 0.95254 0.03537 0.99603 0.0
C395 C 0.97061 0.04066 0.0034 0.0
C396 C 0.94561 0.01839 0.98226 0.0
C397 C 0.97515 0.0121 0.98328 0.0
C398 C 0.95694 0.00671 0.97598 0.0
C399 C 0.03883 0.05245 0.05469 0.0
C400 C 0.00103 0.03656 0.00394 0.0
C401 C 0.99262 0.95014 0.97854 0.0
C402 C 0.99252 0.94882 0.99751 0.0
C403 C 0.05935 0.01766 0.03646 0.0
C404 C 0.12557 0.05628 0.0458 0.0
C405 C 0.13838 0.04654 0.03995 0.0
C406 C 0.15515 0.05049 0.05069 0.0
C407 C 0.15932 0.0653 0.06698 0.0
C408 C 0.12987 0.0712 0.06189 0.0
C409 C 0.14678 0.07576 0.07237 0.0
C410 C 0.0674 0.02908 0.98581 0.0
C411 C 0.10729 0.04841 0.0362 0.0
H412 H 0.97594 0.05403 0.01379 0.0
H413 H 0.93158 0.01434 0.97633 0.0
H414 H 0.98385 0.00317 0.97804 0.0
H415 H 0.95168 0.99365 0.96527 0.0
H416 H 0.13494 0.03534 0.02723 0.0
H417 H 0.17204 0.06853 0.07576 0.0
H418 H 0.12017 0.07899 0.06657 0.0
H419 H 0.14999 0.08707 0.08497 0.0
Eu420 Eu 0.3045 0.77991 0.254 0.0
C421 C 0.28438 0.84672 0.30701 0.0
C422 C 0.31208 0.86551 0.32645 0.0
C423 C 0.28802 0.88083 0.32117 0.0
C424 C 0.30148 0.84774 0.31527 0.0
C425 C 0.27747 0.86329 0.31012 0.0
C426 C 0.30527 0.88193 0.32933 0.0
C427 C 0.24913 0.84359 0.29328 0.0
N428 N 0.27423 0.82949 0.29657 0.0
C429 C 0.25635 0.82755 0.29099 0.0
C430 C 0.25983 0.86164 0.30264 0.0
Eu431 Eu 0.2864 0.80214 0.29619 0.0
N432 N 0.30788 0.83162 0.31222 0.0
C433 C 0.32526 0.83298 0.31916 0.0
C434 C 0.32939 0.86642 0.33431 0.0
C435 C 0.33608 0.85016 0.33042 0.0
H436 H 0.24734 0.81351 0.28478 0.0
H437 H 0.34977 0.85095 0.33576 0.0
H438 H 0.31328 0.89562 0.3378 0.0
H439 H 0.23516 0.8419 0.28823 0.0
H440 H 0.33163 0.82151 0.3153 0.0
H441 H 0.23986 0.73052 0.21808 0.0
H442 H 0.3379 0.87978 0.3429 0.0
H443 H 0.34345 0.7679 0.26429 0.0
H444 H 0.2585 0.7586 0.24067 0.0
H445 H 0.35719 0.74115 0.25513 0.0
H446 H 0.2829 0.89361 0.32365 0.0
H447 H 0.25336 0.70481 0.203 0.0
H448 H 0.28037 0.69142 0.20035 0.0
H449 H 0.25411 0.87402 0.3047 0.0
H450 H 0.3116 0.69334 0.21199 0.0
N451 N 0.28324 0.75064 0.23716 0.0
C452 C 0.26506 0.74839 0.23344 0.0
C453 C 0.26179 0.71746 0.21268 0.0
C454 C 0.28 0.71896 0.21769 0.0
C455 C 0.25418 0.732 0.22102 0.0
C456 C 0.29035 0.73566 0.23056 0.0
H457 H 0.33988 0.71122 0.23311 0.0
N458 N 0.31729 0.75273 0.24984 0.0
C459 C 0.3432 0.73952 0.25016 0.0
C460 C 0.30783 0.73665 0.23724 0.0
C461 C 0.33509 0.75458 0.25565 0.0
C462 C 0.33343 0.72273 0.23769 0.0
C463 C 0.31566 0.72125 0.2308 0.0
O464 O 0.33275 0.79265 0.25163 0.0
O465 O 0.3072 0.80608 0.27658 0.0
O466 O 0.27004 0.80294 0.2684 0.0
O467 O 0.28012 0.78776 0.24119 0.0
O468 O 0.30658 0.80995 0.24855 0.0
O469 O 0.31386 0.77975 0.22621 0.0
O470 O 0.25893 0.79123 0.3029 0.0
O471 O 0.28401 0.77595 0.27396 0.0
O472 O 0.31961 0.77666 0.28115 0.0
O473 O 0.31029 0.79282 0.30829 0.0
O474 O 0.28184 0.7715 0.30142 0.0
O475 O 0.28048 0.80739 0.3252 0.0
C476 C 0.30825 0.81821 0.26606 0.0
C477 C 0.34091 0.80387 0.22413 0.0
C478 C 0.34354 0.82352 0.20022 0.0
C479 C 0.33279 0.81077 0.20991 0.0
C480 C 0.36234 0.82968 0.20507 0.0
C481 C 0.35971 0.8103 0.22896 0.0
C482 C 0.37034 0.82322 0.21952 0.0
C483 C 0.26888 0.79694 0.24975 0.0
C484 C 0.33051 0.78893 0.23326 0.0
C485 C 0.30572 0.70513 0.21728 0.0
C486 C 0.288 0.70411 0.21055 0.0
C487 C 0.28151 0.76339 0.28407 0.0
C488 C 0.25538 0.78549 0.33357 0.0
C489 C 0.26596 0.77745 0.34463 0.0
C490 C 0.25795 0.76653 0.35732 0.0
C491 C 0.23938 0.76344 0.35885 0.0
C492 C 0.23681 0.78233 0.33515 0.0
C493 C 0.22885 0.7713 0.34774 0.0
C494 C 0.32101 0.78288 0.29973 0.0
C495 C 0.26342 0.79796 0.32095 0.0
H496 H 0.31832 0.80578 0.20592 0.0
H497 H 0.3708 0.83957 0.19773 0.0
H498 H 0.36621 0.80504 0.23984 0.0
H499 H 0.38483 0.82802 0.22323 0.0
H500 H 0.28032 0.77977 0.34353 0.0
H501 H 0.23308 0.75494 0.36863 0.0
H502 H 0.22852 0.78856 0.32676 0.0
H503 H 0.21453 0.76893 0.34897 0.0
Eu504 Eu 0.56781 0.04014 0.51055 0.0
C505 C 0.49793 1.00053 0.54541 0.0
C506 C 0.4816 0.97289 0.52133 0.0
C507 C 0.47742 0.973 0.55422 0.0
C508 C 0.49391 0.99141 0.52662 0.0
C509 C 0.48957 0.99151 0.5594 0.0
C510 C 0.47347 0.9637 0.53523 0.0
C511 C 0.50504 0.02019 0.58255 0.0
N512 N 0.50958 0.01851 0.54997 0.0
C513 C 0.51285 0.02863 0.56819 0.0
C514 C 0.49341 1.00151 0.57817 0.0
Eu515 Eu 0.52145 0.03212 0.52469 0.0
N516 N 0.50178 1.00078 0.51348 0.0
C517 C 0.49761 0.99258 0.49476 0.0
C518 C 0.47763 0.96424 0.50219 0.0
C519 C 0.48565 0.97416 0.48885 0.0
H520 H 0.52167 0.04315 0.5717 0.0
H521 H 0.48257 0.96767 0.474 0.0
H522 H 0.46395 0.9495 0.53142 0.0
H523 H 0.5079 0.02815 0.59699 0.0
H524 H 0.50359 1.00007 0.48425 0.0
H525 H 0.60617 0.10067 0.56585 0.0
H526 H 0.46826 0.95002 0.49756 0.0
H527 H 0.56985 0.03301 0.46408 0.0
H528 H 0.58677 0.06783 0.55289 0.0
H529 H 0.5828 0.05151 0.44045 0.0
H530 H 0.47087 0.96585 0.56477 0.0
H531 H 0.6181 0.12249 0.54445 0.0
H532 H 0.62121 0.12738 0.51132 0.0
H533 H 0.48726 0.99507 0.58932 0.0
H534 H 0.61494 0.11401 0.47723 0.0
N535 N 0.5872 0.07103 0.52435 0.0
C536 C 0.59184 0.07712 0.54333 0.0
C537 C 0.60954 0.10806 0.53865 0.0
C538 C 0.60548 0.10137 0.51917 0.0
C539 C 0.60286 0.09577 0.55077 0.0
C540 C 0.5942 0.08249 0.51236 0.0
H541 H 0.60083 0.08567 0.45069 0.0
N542 N 0.58014 0.05663 0.48723 0.0
C543 C 0.58501 0.05834 0.45523 0.0
C544 C 0.59058 0.07505 0.4932 0.0
C545 C 0.57774 0.0479 0.46861 0.0
C546 C 0.59516 0.07763 0.46107 0.0
C547 C 0.59825 0.08615 0.48028 0.0
O548 O 0.58107 0.0186 0.49734 0.0
O549 O 0.54244 0.0181 0.51266 0.0
O550 O 0.53644 0.01878 0.54327 0.0
O551 O 0.56587 0.03643 0.54082 0.0
O552 O 0.55416 0.0136 0.48814 0.0
O553 O 0.59168 0.0354 0.52524 0.0
O554 O 0.50962 0.05603 0.53464 0.0
O555 O 0.54696 0.05394 0.52239 0.0
O556 O 0.55137 0.05233 0.49153 0.0
O557 O 0.52306 0.03256 0.49396 0.0
O558 O 0.53549 0.05896 0.54695 0.0
O559 O 0.49613 0.03414 0.5104 0.0
C560 C 0.54155 0.00591 0.49754 0.0
C561 C 0.61208 0.02337 0.50618 0.0
C562 C 0.63925 0.01144 0.50644 0.0
C563 C 0.6217 0.0106 0.51157 0.0
C564 C 0.64673 0.02484 0.49542 0.0
C565 C 0.61988 0.03664 0.49528 0.0
C566 C 0.63707 0.03726 0.48985 0.0
C567 C 0.55386 0.02476 0.5487 0.0
C568 C 0.59367 0.02218 0.51132 0.0
C569 C 0.60904 0.10519 0.48695 0.0
C570 C 0.61262 0.1128 0.50635 0.0
C571 C 0.5484 0.06603 0.53763 0.0
C572 C 0.47814 0.05002 0.52976 0.0
C573 C 0.46833 0.06277 0.52481 0.0
C574 C 0.45214 0.06383 0.53261 0.0
C575 C 0.44633 0.05238 0.54589 0.0
C576 C 0.47186 0.03856 0.54279 0.0
C577 C 0.45613 0.03985 0.55089 0.0
C578 C 0.53407 0.04463 0.48562 0.0
C579 C 0.49545 0.04971 0.52225 0.0
H580 H 0.61569 1.00032 0.52 0.0
H581 H 0.66003 0.02559 0.49095 0.0
H582 H 0.61262 0.0464 0.49085 0.0
H583 H 0.64295 0.04742 0.48129 0.0
H584 H 0.47326 0.07168 0.51481 0.0
H585 H 0.43424 0.05318 0.55256 0.0
H586 H 0.47921 0.02881 0.54691 0.0
H587 H 0.45152 0.03113 0.56113 0.0
Eu588 Eu 0.27932 0.29378 0.76821 0.0
C589 C 0.34188 0.26761 0.80678 0.0
C590 C 0.35459 0.29457 0.83282 0.0
C591 C 0.35706 0.26227 0.83498 0.0
C592 C 0.34491 0.28703 0.81475 0.0
C593 C 0.34828 0.25507 0.81661 0.0
C594 C 0.36036 0.28204 0.84299 0.0
C595 C 0.33944 0.23004 0.78842 0.0
N596 N 0.33409 0.26135 0.78876 0.0
C597 C 0.33364 0.24315 0.77918 0.0
C598 C 0.34653 0.23593 0.80733 0.0
Eu599 Eu 0.324 0.28386 0.77371 0.0
N600 N 0.3398 0.29883 0.8042 0.0
C601 C 0.34513 0.31853 0.81051 0.0
C602 C 0.35901 0.3146 0.83975 0.0
C603 C 0.35453 0.32666 0.82839 0.0
H604 H 0.32831 0.23862 0.76449 0.0
H605 H 0.35825 0.34225 0.83341 0.0
H606 H 0.36792 0.28763 0.8568 0.0
H607 H 0.33854 0.21545 0.78092 0.0
H608 H 0.34172 0.32822 0.80222 0.0
H609 H 0.24672 0.23302 0.7099 0.0
H610 H 0.3664 0.32095 0.85356 0.0
H611 H 0.27736 0.33995 0.7749 0.0
H612 H 0.26443 0.24853 0.74024 0.0
H613 H 0.26529 0.36159 0.75789 0.0
H614 H 0.36201 0.25286 0.84279 0.0
H615 H 0.23463 0.25263 0.69042 0.0
H616 H 0.2309 0.28512 0.68657 0.0
H617 H 0.35124 0.22584 0.81441 0.0
H618 H 0.23622 0.32007 0.6994 0.0
N619 N 0.26291 0.27721 0.73847 0.0
C620 C 0.25934 0.25754 0.7322 0.0
C621 C 0.24246 0.25966 0.70388 0.0
C622 C 0.24568 0.27967 0.71052 0.0
C623 C 0.24925 0.24855 0.71482 0.0
C624 C 0.25599 0.28813 0.72814 0.0
H625 H 0.24902 0.34867 0.7259 0.0
N626 N 0.26891 0.31545 0.75229 0.0
C627 C 0.26363 0.34655 0.75127 0.0
C628 C 0.25926 0.30785 0.73517 0.0
C629 C 0.2705 0.33432 0.7608 0.0
C630 C 0.25446 0.33921 0.73322 0.0
C631 C 0.25191 0.31958 0.72506 0.0
O632 O 0.26456 0.30615 0.79003 0.0
O633 O 0.30147 0.2916 0.78831 0.0
O634 O 0.30408 0.25712 0.78054 0.0
O635 O 0.27602 0.26204 0.7716 0.0
O636 O 0.29237 0.31644 0.7941 0.0
O637 O 0.2528 0.2773 0.77408 0.0
O638 O 0.33866 0.27275 0.75112 0.0
O639 O 0.30204 0.28611 0.75296 0.0
O640 O 0.29922 0.31959 0.75991 0.0
O641 O 0.32691 0.31608 0.77182 0.0
O642 O 0.31014 0.26061 0.74914 0.0
O643 O 0.35053 0.30084 0.76842 0.0
C644 C 0.30294 0.30703 0.80025 0.0
C645 C 0.23257 0.29527 0.78694 0.0
C646 C 0.20327 0.29365 0.79963 0.0
C647 C 0.22025 0.28913 0.79981 0.0
C648 C 0.19924 0.30485 0.78683 0.0
C649 C 0.22777 0.30603 0.7742 0.0
C650 C 0.21134 0.31091 0.77427 0.0
C651 C 0.28611 0.251 0.77701 0.0
C652 C 0.25062 0.29115 0.78718 0.0
C653 C 0.24188 0.31128 0.70741 0.0
C654 C 0.23881 0.29137 0.70014 0.0
C655 C 0.30086 0.27035 0.7414 0.0
C656 C 0.3705 0.28357 0.75394 0.0
C657 C 0.38158 0.28879 0.73982 0.0
C658 C 0.39825 0.28386 0.73874 0.0
C659 C 0.4036 0.27367 0.75179 0.0
C660 C 0.37636 0.27362 0.76692 0.0
C661 C 0.39275 0.26864 0.76577 0.0
C662 C 0.31694 0.32653 0.76499 0.0
C663 C 0.35257 0.28772 0.75453 0.0
H664 H 0.22377 0.28073 0.80969 0.0
H665 H 0.18666 0.30908 0.78658 0.0
H666 H 0.23676 0.31082 0.76422 0.0
H667 H 0.20796 0.31947 0.76451 0.0
H668 H 0.37723 0.29653 0.72974 0.0
H669 H 0.41631 0.26974 0.75123 0.0
H670 H 0.36822 0.26959 0.77789 0.0
H671 H 0.39708 0.26084 0.77579 0.0
Eu672 Eu 0.04677 0.05965 0.52701 0.0
C673 C 0.06369 0.99727 0.46566 0.0
C674 C 0.03619 0.98678 0.44405 0.0
C675 C 0.06439 0.98248 0.43294 0.0
C676 C 0.04536 0.99545 0.4622 0.0
C677 C 0.07335 0.99058 0.45111 0.0
C678 C 0.04582 0.98039 0.42949 0.0
C679 C 0.09946 0.99779 0.47405 0.0
N680 N 0.07183 0.00435 0.48351 0.0
C681 C 0.08921 0.00382 0.48806 0.0
C682 C 0.09156 0.99135 0.45544 0.0
Eu683 Eu 0.05373 0.01388 0.50671 0.0
N684 N 0.03626 1.00088 0.4768 0.0
C685 C 0.01782 0.99721 0.47424 0.0
C686 C 0.01749 0.98404 0.44123 0.0
C687 C 0.00826 0.98915 0.45644 0.0
H688 H 0.09522 0.00841 0.50254 0.0
H689 H 0.99373 0.98676 0.45451 0.0
H690 H 0.03893 0.97316 0.41567 0.0
H691 H 0.11338 0.9979 0.47766 0.0
H692 H 0.01024 1.00083 0.48571 0.0
H693 H 0.10676 0.08869 0.57888 0.0
H694 H 0.01001 0.97755 0.42749 0.0
H695 H 0.00537 0.06558 0.53074 0.0
H696 H 0.09014 0.07305 0.54801 0.0
H697 H 0.98714 0.07647 0.55534 0.0
H698 H 0.07156 0.97715 0.42163 0.0
H699 H 0.09043 0.09881 0.60549 0.0
H700 H 0.0613 0.10108 0.61789 0.0
H701 H 0.09943 0.98639 0.44464 0.0
H702 H 0.02867 0.0974 0.61164 0.0
N703 N 0.06411 0.07306 0.55687 0.0
C704 C 0.08257 0.07694 0.55939 0.0
C705 C 0.08293 0.09133 0.59205 0.0
C706 C 0.06416 0.0879 0.58938 0.0
C707 C 0.09218 0.08585 0.577 0.0
C708 C 0.055 0.07875 0.57135 0.0
H709 H 0.00095 0.08833 0.58839 0.0
N710 N 0.02858 0.0695 0.54998 0.0
C711 C 0.00098 0.07645 0.5591 0.0
C712 C 0.03667 0.07682 0.56782 0.0
C713 C 0.01125 0.07011 0.54526 0.0
C714 C 0.00882 0.08311 0.57773 0.0
C715 C 0.02699 0.0838 0.58222 0.0
O716 O 0.03542 0.0789 0.51321 0.0
O717 O 0.0458 0.03975 0.49886 0.0
O718 O 0.07632 0.03534 0.49734 0.0
O719 O 0.0749 0.06351 0.51764 0.0
O720 O 0.02316 0.04956 0.50394 0.0
O721 O 0.06284 0.08914 0.52713 0.0
O722 O 0.0652 0.99429 0.51993 0.0
O723 O 0.05467 0.0338 0.53486 0.0
O724 O 0.02399 0.03839 0.53599 0.0
O725 O 0.02554 0.00994 0.51611 0.0
O726 O 0.07727 0.02396 0.53 0.0
O727 O 0.03764 0.9843 0.50646 0.0
C728 C 0.0305 0.04027 0.49111 0.0
C729 C 0.04712 0.11252 0.52247 0.0
C730 C 0.0485 0.14294 0.51272 0.0
C731 C 0.05299 0.12524 0.51054 0.0
C732 C 0.03823 0.14809 0.5272 0.0
C733 C 0.03716 0.11774 0.53717 0.0
C734 C 0.03276 0.13557 0.53952 0.0
C735 C 0.08306 0.05381 0.50534 0.0
C736 C 0.04991 0.0932 0.51751 0.0
C737 C 0.03589 0.09203 0.6004 0.0
C738 C 0.05447 0.09413 0.60395 0.0
C739 C 0.06993 0.03339 0.54274 0.0
C740 C 0.05338 0.96055 0.51012 0.0
C741 C 0.04557 0.94653 0.52017 0.0
C742 C 0.0499 0.92859 0.51773 0.0
C743 C 0.06186 0.92471 0.50449 0.0
C744 C 0.065 0.95637 0.49676 0.0
C745 C 0.06917 0.93846 0.49395 0.0
C746 C 0.01725 0.01995 0.52801 0.0
C747 C 0.0507 0.97997 0.51563 0.0
H748 H 0.06044 0.12098 0.49899 0.0
H749 H 0.03458 0.16176 0.529 0.0
H750 H 0.03252 0.10801 0.54651 0.0
H751 H 0.0249 0.13956 0.55072 0.0
H752 H 0.03638 0.94989 0.53023 0.0
H753 H 0.06589 0.91126 0.50253 0.0
H754 H 0.0711 0.96698 0.48882 0.0
H755 H 0.0784 0.93539 0.48387 0.0
Eu756 Eu 0.3236 0.80627 0.76284 0.0
C757 C 0.2746 0.74297 0.79809 0.0
C758 C 0.27514 0.7122 0.77865 0.0
C759 C 0.2662 0.71322 0.81023 0.0
C760 C 0.27766 0.7325 0.7812 0.0
C761 C 0.26872 0.7334 0.81274 0.0
C762 C 0.26942 0.70266 0.79325 0.0
C763 C 0.26729 0.76427 0.83098 0.0
N764 N 0.27689 0.7624 0.80006 0.0
C765 C 0.27289 0.77306 0.81599 0.0
C766 C 0.26521 0.74435 0.82937 0.0
Eu767 Eu 0.28402 0.77566 0.77327 0.0
N768 N 0.28295 0.74207 0.76722 0.0
C769 C 0.28577 0.73207 0.75028 0.0
C770 C 0.27823 0.70202 0.76143 0.0
C771 C 0.28359 0.71203 0.7472 0.0
H772 H 0.27411 0.7884 0.8171 0.0
H773 H 0.28591 0.70431 0.73377 0.0
H774 H 0.26734 0.68708 0.79149 0.0
H775 H 0.26437 0.77281 0.84367 0.0
H776 H 0.28988 0.73932 0.73897 0.0
H777 H 0.3179 0.87916 0.79258 0.0
H778 H 0.2764 0.68644 0.75893 0.0
H779 H 0.34059 0.79101 0.72308 0.0
H780 H 0.31672 0.84498 0.79209 0.0
H781 H 0.35139 0.80338 0.69531 0.0
H782 H 0.26163 0.70563 0.8213 0.0
H783 H 0.32583 0.89319 0.76469 0.0
H784 H 0.33559 0.88894 0.73226 0.0
H785 H 0.26067 0.73752 0.84092 0.0
H786 H 0.34461 0.86833 0.70579 0.0
N787 N 0.32325 0.8391 0.764 0.0
C788 C 0.32004 0.8507 0.77976 0.0
C789 C 0.32518 0.87803 0.76434 0.0
C790 C 0.32922 0.86635 0.74851 0.0
C791 C 0.32075 0.8702 0.78012 0.0
C792 C 0.32818 0.84669 0.74878 0.0
H793 H 0.35068 0.83654 0.69198 0.0
N794 N 0.33297 0.81654 0.73504 0.0
C795 C 0.34618 0.8124 0.70597 0.0
C796 C 0.33315 0.83506 0.73384 0.0
C797 C 0.33997 0.80541 0.72173 0.0
C798 C 0.34571 0.8311 0.70412 0.0
C799 C 0.33943 0.84281 0.71827 0.0
O800 O 0.35051 0.80161 0.76491 0.0
O801 O 0.31356 0.77707 0.77147 0.0
O802 O 0.30406 0.78246 0.79879 0.0
O803 O 0.31833 0.81232 0.79333 0.0
O804 O 0.32872 0.77733 0.7494 0.0
O805 O 0.34566 0.82688 0.7824 0.0
O806 O 0.25776 0.77971 0.77915 0.0
O807 O 0.29371 0.80485 0.76445 0.0
O808 O 0.30612 0.79707 0.73501 0.0
O809 O 0.28587 0.77057 0.74213 0.0
O810 O 0.27949 0.80464 0.78738 0.0
O811 O 0.26015 0.75934 0.75387 0.0
C812 C 0.32116 0.76636 0.76035 0.0
C813 C 0.3753 0.82885 0.77409 0.0
C814 C 0.40769 0.83965 0.78416 0.0
C815 C 0.38983 0.83219 0.78792 0.0
C816 C 0.41047 0.84463 0.76647 0.0
C817 C 0.37835 0.83431 0.75681 0.0
C818 C 0.39586 0.8423 0.7531 0.0
C819 C 0.314 0.80028 0.80488 0.0
C820 C 0.35756 0.81752 0.77727 0.0
C821 C 0.33989 0.86216 0.71765 0.0
C822 C 0.33478 0.87391 0.73273 0.0
C823 C 0.28607 0.81541 0.77582 0.0
C824 C 0.23191 0.75439 0.76621 0.0
C825 C 0.21853 0.75081 0.75128 0.0
C826 C 0.20039 0.74325 0.75349 0.0
C827 C 0.19597 0.73741 0.77045 0.0
C828 C 0.22753 0.74863 0.78313 0.0
C829 C 0.20959 0.73978 0.78506 0.0
C830 C 0.29295 0.78097 0.73005 0.0
C831 C 0.2494 0.76691 0.76428 0.0
H832 H 0.38708 0.82831 0.80135 0.0
H833 H 0.42389 0.84972 0.76254 0.0
H834 H 0.36737 0.83194 0.746 0.0
H835 H 0.39818 0.84608 0.73955 0.0
H836 H 0.22221 0.75524 0.73825 0.0
H837 H 0.18204 0.73182 0.77276 0.0
H838 H 0.23776 0.75149 0.79494 0.0
H839 H 0.20612 0.73559 0.79819 0.0
Eu840 Eu 0.54691 0.03672 0.02985 0.0
C841 C 0.49537 0.05106 0.9691 0.0
C842 C 0.47774 0.01853 0.95446 0.0
C843 C 0.46439 0.04563 0.9551 0.0
C844 C 0.49414 0.03138 0.96372 0.0
C845 C 0.48048 0.05835 0.9647 0.0
C846 C 0.46302 0.02578 0.95002 0.0
C847 C 0.49849 0.09053 0.97896 0.0
N848 N 0.5109 0.06305 0.97888 0.0
C849 C 0.51285 0.08275 0.98295 0.0
C850 C 0.48216 0.07827 0.96995 0.0
Eu851 Eu 0.53549 0.04884 0.98254 0.0
N852 N 0.50857 0.02465 0.96828 0.0
C853 C 0.50683 0.00504 0.96499 0.0
C854 C 0.4764 0.99864 0.95024 0.0
C855 C 0.4909 0.99186 0.95581 0.0
H856 H 0.52559 0.09278 0.98914 0.0
H857 H 0.48976 0.97641 0.95322 0.0
H858 H 0.45045 0.01613 0.94275 0.0
H859 H 0.50014 0.10606 0.98259 0.0
H860 H 0.51725 0.99902 0.96981 0.0
H861 H 0.56849 0.09671 0.09146 0.0
H862 H 0.46412 0.98838 0.94307 0.0
H863 H 0.56137 0.99556 0.02637 0.0
H864 H 0.54669 0.07283 0.06661 0.0
H865 H 0.58872 0.98593 0.0349 0.0
H866 H 0.45288 0.051 0.95161 0.0
H867 H 0.59991 0.09418 0.09632 0.0
H868 H 0.62222 0.07433 0.08927 0.0
H869 H 0.47105 0.08437 0.96678 0.0
H870 H 0.62775 0.04356 0.07374 0.0
N871 N 0.56616 0.05844 0.05616 0.0
C872 C 0.56053 0.07194 0.06837 0.0
C873 C 0.59054 0.08401 0.08512 0.0
C874 C 0.59547 0.06845 0.07435 0.0
C875 C 0.57279 0.0854 0.08251 0.0
C876 C 0.5827 0.05561 0.05996 0.0
H877 H 0.615 0.01007 0.05407 0.0
N878 N 0.57218 0.02547 0.03937 0.0
C879 C 0.58824 1.00085 0.03939 0.0
C880 C 0.58574 0.03834 0.05141 0.0
C881 C 0.57274 0.0065 0.03447 0.0
C882 C 0.60304 0.01451 0.05015 0.0
C883 C 0.6017 0.03337 0.05685 0.0
O884 O 0.53522 0.00755 0.03512 0.0
O885 O 0.52655 0.03341 0.00519 0.0
O886 O 0.53419 0.07173 0.00733 0.0
O887 O 0.55377 0.06935 0.03206 0.0
O888 O 0.51977 0.04324 0.0319 0.0
O889 O 0.52783 0.0327 0.05013 0.0
O890 O 0.54679 0.07557 0.97302 0.0
O891 O 0.55525 0.04772 0.00507 0.0
O892 O 0.55268 0.01518 0.00512 0.0
O893 O 0.54481 0.0217 0.97531 0.0
O894 O 0.56611 0.06065 0.98412 0.0
O895 O 0.53898 0.047 0.95292 0.0
C896 C 0.51429 0.03789 0.01415 0.0
C897 C 0.52687 0.00764 0.06635 0.0
C898 C 0.51778 0.01078 0.09798 0.0
C899 C 0.51825 0.01626 0.08056 0.0
C900 C 0.52623 0.99634 0.10123 0.0
C901 C 0.53526 0.99321 0.06961 0.0
C902 C 0.53493 0.98763 0.08708 0.0
C903 C 0.54349 0.07854 0.0241 0.0
C904 C 0.5264 0.01419 0.04845 0.0
C905 C 0.61526 0.04695 0.0697 0.0
C906 C 0.61212 0.06449 0.0785 0.0
C907 C 0.56971 0.05593 -0.00019 0.0
C908 C 0.55108 0.07569 0.94053 0.0
C909 C 0.56177 0.06766 0.9285 0.0
C910 C 0.5713 0.07837 0.91659 0.0
C911 C 0.56945 0.09704 0.916 0.0
C912 C 0.54911 0.09436 0.94013 0.0
C913 C 0.55809 0.10489 0.92761 0.0
C914 C 0.5509 0.01134 0.98629 0.0
C915 C 0.54543 0.06599 0.95574 0.0
H916 H 0.51204 0.02763 0.07808 0.0
H917 H 0.52592 0.99163 0.11455 0.0
H918 H 0.542 0.9863 0.05879 0.0
H919 H 0.54136 0.97648 0.08962 0.0
H920 H 0.56386 0.05356 0.92946 0.0
H921 H 0.57678 0.10545 0.9067 0.0
H922 H 0.54112 0.10094 0.9498 0.0
H923 H 0.5567 0.11933 0.9273 0.0
Eu924 Eu 0.3078 0.30598 0.27563 0.0
C925 C 0.23572 0.24291 0.23684 0.0
C926 C 0.21902 0.23279 0.26202 0.0
C927 C 0.20292 0.23137 0.23176 0.0
C928 C 0.23555 0.24053 0.25524 0.0
C929 C 0.21947 0.2376 0.22466 0.0
C930 C 0.2027 0.229 0.25045 0.0
C931 C 0.23727 0.24192 0.19876 0.0
N932 N 0.25192 0.24836 0.23028 0.0
C933 C 0.25297 0.24697 0.21138 0.0
C934 C 0.22042 0.23761 0.20549 0.0
Eu935 Eu 0.27819 0.25705 0.25213 0.0
N936 N 0.25162 0.24354 0.26573 0.0
C937 C 0.25201 0.23685 0.28219 0.0
C938 C 0.21943 0.22782 0.27972 0.0
C939 C 0.23602 0.22935 0.2896 0.0
H940 H 0.26602 0.2504 0.20615 0.0
H941 H 0.23653 0.22454 0.30283 0.0
H942 H 0.18989 0.22327 0.2555 0.0
H943 H 0.23819 0.24139 0.18388 0.0
H944 H 0.26446 0.23686 0.28979 0.0
H945 H 0.34688 0.32159 0.21645 0.0
H946 H 0.20706 0.22175 0.28537 0.0
H947 H 0.32315 0.30998 0.32058 0.0
H948 H 0.32078 0.30617 0.23075 0.0
H949 H 0.35119 0.3254 0.34208 0.0
H950 H 0.19029 0.22746 0.22269 0.0
H951 H 0.37509 0.34053 0.23632 0.0
H952 H 0.39243 0.35208 0.26838 0.0
H953 H 0.20825 0.23353 0.19567 0.0
H954 H 0.39383 0.35251 0.30235 0.0
N955 N 0.33316 0.31703 0.25915 0.0
C956 C 0.33257 0.31482 0.23998 0.0
C957 C 0.36347 0.33399 0.24287 0.0
C958 C 0.36439 0.33549 0.26237 0.0
C959 C 0.34757 0.32335 0.23162 0.0
C960 C 0.34887 0.32666 0.2702 0.0
H961 H 0.37873 0.34219 0.3298 0.0
N962 N 0.33505 0.31675 0.29614 0.0
C963 C 0.35107 0.32562 0.32722 0.0
C964 C 0.34984 0.32643 0.28925 0.0
C965 C 0.33531 0.31667 0.31496 0.0
C966 C 0.36655 0.33517 0.32026 0.0
C967 C 0.36608 0.3357 0.30108 0.0
O968 O 0.30474 0.32781 0.29904 0.0
O969 O 0.28033 0.28619 0.2685 0.0
O970 O 0.27099 0.27928 0.23664 0.0
O971 O 0.29557 0.30668 0.24659 0.0
O972 O 0.28639 0.30143 0.29579 0.0
O973 O 0.30387 0.33357 0.27021 0.0
O974 O 0.28331 0.23505 0.23015 0.0
O975 O 0.30571 0.27644 0.25966 0.0
O976 O 0.31555 0.28376 0.29037 0.0
O977 O 0.28862 0.25908 0.28299 0.0
O978 O 0.29889 0.26255 0.23186 0.0
O979 O 0.28461 0.23126 0.2592 0.0
C980 C 0.27391 0.28937 0.28372 0.0
C981 C 0.30103 0.35914 0.29587 0.0
C982 C 0.28884 0.38619 0.29238 0.0
C983 C 0.29162 0.36817 0.28479 0.0
C984 C 0.29569 0.39541 0.31099 0.0
C985 C 0.30788 0.36837 0.31455 0.0
C986 C 0.30527 0.38651 0.32202 0.0
C987 C 0.28115 0.2964 0.2348 0.0
C988 C 0.30326 0.3399 0.28815 0.0
C989 C 0.38129 0.34521 0.29346 0.0
C990 C 0.38047 0.34504 0.27414 0.0
C991 C 0.31203 0.27252 0.24445 0.0
C992 C 0.28 0.20318 0.23513 0.0
C993 C 0.29104 0.19225 0.24096 0.0
C994 C 0.28681 0.17221 0.23435 0.0
C995 C 0.27115 0.16295 0.22183 0.0
C996 C 0.26445 0.19407 0.22243 0.0
C997 C 0.26006 0.17393 0.21582 0.0
C998 C 0.30396 0.26835 0.29388 0.0
C999 C 0.28615 0.22413 0.24175 0.0
H1000 H 0.28609 0.36102 0.27044 0.0
H1001 H 0.29353 0.40938 0.31697 0.0
H1002 H 0.31524 0.36158 0.32332 0.0
H1003 H 0.31056 0.3936 0.3364 0.0
H1004 H 0.30307 0.19944 0.25076 0.0
H1005 H 0.26766 0.14739 0.21661 0.0
H1006 H 0.25589 0.20246 0.21758 0.0
H1007 H 0.24812 0.16683 0.20599 0.0
Eu1008 Eu 0.54595 0.56092 0.02767 0.0
C1009 C 0.56377 0.49686 0.96762 0.0
C1010 C 0.53592 0.4842 0.94661 0.0
C1011 C 0.5641 0.47976 0.93559 0.0
C1012 C 0.54529 0.4942 0.96437 0.0
C1013 C 0.57335 0.48948 0.95331 0.0
C1014 C 0.54543 0.47711 0.93226 0.0
C1015 C 0.60029 0.50032 0.9755 0.0
N1016 N 0.57231 0.50597 0.98497 0.0
C1017 C 0.59016 0.50698 0.98931 0.0
C1018 C 0.59187 0.49164 0.95736 0.0
Eu1019 Eu 0.55414 0.51577 0.00809 0.0
N1020 N 0.53642 0.50117 0.97854 0.0
C1021 C 0.51804 0.49814 0.97586 0.0
C1022 C 0.51721 0.48143 0.94381 0.0
C1023 C 0.50825 0.48842 0.95851 0.0
H1024 H 0.5965 0.51288 0.00355 0.0
H1025 H 0.49376 0.48629 0.95652 0.0
H1026 H 0.53843 0.4694 0.91858 0.0
H1027 H 0.6145 0.50155 0.97894 0.0
H1028 H 0.51063 0.50337 0.98683 0.0
H1029 H 0.60774 0.59172 0.07718 0.0
H1030 H 0.50956 0.47383 0.9304 0.0
H1031 H 0.50439 0.56558 0.03405 0.0
H1032 H 0.59025 0.57646 0.04678 0.0
H1033 H 0.48693 0.57486 0.06002 0.0
H1034 H 0.57122 0.47399 0.92446 0.0
H1035 H 0.59231 0.59932 0.10529 0.0
H1036 H 0.56351 0.60032 0.11916 0.0
H1037 H 0.59968 0.48621 0.94673 0.0
H1038 H 0.53061 0.59552 0.11458 0.0
N1039 N 0.56447 0.5749 0.05694 0.0
C1040 C 0.58298 0.57964 0.05861 0.0
C1041 C 0.58438 0.59251 0.09184 0.0
C1042 C 0.56554 0.58845 0.09001 0.0
C1043 C 0.59313 0.58833 0.07601 0.0
C1044 C 0.55582 0.57964 0.07213 0.0
H1045 H 0.502 0.58615 0.09263 0.0
N1046 N 0.52856 0.56984 0.05199 0.0
C1047 C 0.50103 0.57531 0.06297 0.0
C1048 C 0.53731 0.57697 0.06959 0.0
C1049 C 0.51088 0.56988 0.04834 0.0
C1050 C 0.50958 0.58166 0.08134 0.0
C1051 C 0.52802 0.583 0.08479 0.0
O1052 O 0.53194 0.57952 0.01601 0.0
O1053 O 0.54605 0.54146 0.99935 0.0
O1054 O 0.57655 0.53741 0.99894 0.0
O1055 O 0.57389 0.56611 0.01741 0.0
O1056 O 0.52279 0.5498 0.00438 0.0
O1057 O 0.56046 0.59059 0.02616 0.0
O1058 O 0.56734 0.49766 0.02158 0.0
O1059 O 0.55402 0.53543 0.03608 0.0
O1060 O 0.52299 0.53892 0.03571 0.0
O1061 O 0.5257 0.51041 0.01698 0.0
O1062 O 0.57739 0.52705 0.03167 0.0
O1063 O 0.53949 0.48598 0.00913 0.0
C1064 C 0.53081 0.54188 0.99126 0.0
C1065 C 0.54336 0.61348 0.02382 0.0
C1066 C 0.54678 0.64502 0.01546 0.0
C1067 C 0.55108 0.62713 0.01343 0.0
C1068 C 0.53508 0.64943 0.02876 0.0
C1069 C 0.53175 0.61795 0.0371 0.0
C1070 C 0.52774 0.63597 0.03962 0.0
C1071 C 0.58269 0.55611 0.00615 0.0
C1072 C 0.54615 0.59413 0.01853 0.0
C1073 C 0.53753 0.59091 0.10274 0.0
C1074 C 0.55626 0.59364 0.10534 0.0
C1075 C 0.56937 0.53571 0.04427 0.0
C1076 C 0.55686 0.46366 0.0132 0.0
C1077 C 0.54878 0.44956 0.02301 0.0
C1078 C 0.55399 0.43217 0.02163 0.0
C1079 C 0.56705 0.42881 0.00957 0.0
C1080 C 0.56963 0.46002 0.00102 0.0
C1081 C 0.57462 0.44258 0.99916 0.0
C1082 C 0.51675 0.52031 0.02811 0.0
C1083 C 0.55333 0.48276 0.01808 0.0
H1084 H 0.5602 0.62352 0.00338 0.0
H1085 H 0.53134 0.66304 0.03051 0.0
H1086 H 0.52558 0.60751 0.04521 0.0
H1087 H 0.51863 0.63935 0.04972 0.0
H1088 H 0.53872 0.4525 0.03214 0.0
H1089 H 0.57175 0.41579 0.00847 0.0
H1090 H 0.57603 0.4707 0.99332 0.0
H1091 H 0.58471 0.43994 0.99 0.0
Eu1092 Eu 0.82299 0.30586 0.26638 0.0
C1093 C 0.77172 0.24529 0.30356 0.0
C1094 C 0.77191 0.21375 0.28556 0.0
C1095 C 0.76152 0.21632 0.31658 0.0
C1096 C 0.77521 0.23407 0.28737 0.0
C1097 C 0.7647 0.2365 0.31829 0.0
C1098 C 0.76513 0.20498 0.30026 0.0
C1099 C 0.76316 0.26804 0.33477 0.0
N1100 N 0.7745 0.26469 0.30465 0.0
C1101 C 0.76989 0.27604 0.31971 0.0
C1102 C 0.76061 0.24819 0.33409 0.0
Eu1103 Eu 0.78344 0.27673 0.27767 0.0
N1104 N 0.78136 0.2429 0.2732 0.0
C1105 C 0.78432 0.23209 0.25677 0.0
C1106 C 0.77522 0.20275 0.26889 0.0
C1107 C 0.78148 0.21199 0.25445 0.0
H1108 H 0.77155 0.29135 0.32016 0.0
H1109 H 0.78402 0.20362 0.24145 0.0
H1110 H 0.76243 0.1894 0.29906 0.0
H1111 H 0.75978 0.27716 0.3468 0.0
H1112 H 0.78905 0.23871 0.24529 0.0
H1113 H 0.82483 0.37893 0.30458 0.0
H1114 H 0.77286 0.18713 0.26697 0.0
H1115 H 0.83208 0.29138 0.22247 0.0
H1116 H 0.81985 0.34376 0.3003 0.0
H1117 H 0.84128 0.30566 0.19503 0.0
H1118 H 0.75606 0.20932 0.32771 0.0
H1119 H 0.83373 0.39552 0.27845 0.0
H1120 H 0.84137 0.39333 0.24527 0.0
H1121 H 0.75519 0.24198 0.34568 0.0
H1122 H 0.84554 0.37348 0.21548 0.0
N1123 N 0.82559 0.33976 0.27166 0.0
C1124 C 0.82369 0.35048 0.2886 0.0
C1125 C 0.8315 0.3799 0.27639 0.0
C1126 C 0.83366 0.36897 0.25915 0.0
C1127 C 0.8265 0.3706 0.29117 0.0
C1128 C 0.83057 0.34865 0.25715 0.0
H1129 H 0.84543 0.34085 0.19661 0.0
N1130 N 0.8302 0.31805 0.23899 0.0
C1131 C 0.83886 0.31475 0.20764 0.0
C1132 C 0.83277 0.33746 0.2403 0.0
C1133 C 0.83362 0.30671 0.22316 0.0
C1134 C 0.84116 0.33461 0.20858 0.0
C1135 C 0.83832 0.34628 0.2251 0.0
O1136 O 0.84922 0.30111 0.26095 0.0
O1137 O 0.81282 0.27686 0.27527 0.0
O1138 O 0.80276 0.28312 0.30384 0.0
O1139 O 0.82047 0.31138 0.29755 0.0
O1140 O 0.82619 0.2764 0.25183 0.0
O1141 O 0.84684 0.32115 0.28627 0.0
O1142 O 0.75709 0.28182 0.28126 0.0
O1143 O 0.79363 0.30577 0.26876 0.0
O1144 O 0.8027 0.29956 0.24092 0.0
O1145 O 0.78662 0.2705 0.24679 0.0
O1146 O 0.78032 0.30646 0.29197 0.0
O1147 O 0.76019 0.26056 0.25724 0.0
C1148 C 0.81973 0.26588 0.26362 0.0
C1149 C 0.87533 0.32565 0.27461 0.0
C1150 C 0.90736 0.33598 0.28569 0.0
C1151 C 0.88971 0.32584 0.28742 0.0
C1152 C 0.9104 0.34655 0.27125 0.0
C1153 C 0.87846 0.33601 0.26009 0.0
C1154 C 0.89597 0.34657 0.25854 0.0
C1155 C 0.81524 0.29966 0.3092 0.0
C1156 C 0.8576 0.31329 0.27617 0.0
C1157 C 0.84126 0.36645 0.22699 0.0
C1158 C 0.83892 0.37776 0.24397 0.0
C1159 C 0.78676 0.31701 0.28017 0.0
C1160 C 0.73128 0.25677 0.26792 0.0
C1161 C 0.71797 0.25404 0.25307 0.0
C1162 C 0.69979 0.24608 0.25491 0.0
C1163 C 0.69525 0.23941 0.27148 0.0
C1164 C 0.72671 0.25018 0.28443 0.0
C1165 C 0.70873 0.24123 0.28603 0.0
C1166 C 0.79105 0.28251 0.23529 0.0
C1167 C 0.74914 0.26882 0.26641 0.0
H1168 H 0.88716 0.31769 0.29855 0.0
H1169 H 0.92395 0.3543 0.26944 0.0
H1170 H 0.86755 0.33569 0.24984 0.0
H1171 H 0.89842 0.35445 0.24726 0.0
H1172 H 0.72178 0.25913 0.24037 0.0
H1173 H 0.68129 0.23353 0.27354 0.0
H1174 H 0.73683 0.25243 0.29619 0.0
H1175 H 0.70514 0.23639 0.29886 0.0
Eu1176 Eu 0.05137 0.53797 0.53643 0.0
C1177 C 0.00272 0.55931 0.47383 0.0
C1178 C 0.98141 0.52899 0.45864 0.0
C1179 C 0.97301 0.55937 0.46021 0.0
C1180 C 0.99844 0.53933 0.46846 0.0
C1181 C 0.99027 0.56963 0.46923 0.0
C1182 C 0.96856 0.53907 0.45498 0.0
C1183 C 0.01348 0.59946 0.48116 0.0
N1184 N 0.01947 0.56876 0.48259 0.0
C1185 C 0.02531 0.58856 0.48549 0.0
C1186 C 0.99577 0.58996 0.47331 0.0
Eu1187 Eu 0.03877 0.54948 0.48972 0.0
N1188 N 0.01117 0.53004 0.47222 0.0
C1189 C 0.00816 0.51058 0.46531 0.0
C1190 C 0.97793 0.50888 0.45246 0.0
C1191 C 0.99148 0.49969 0.45557 0.0
H1192 H 0.03898 0.59591 0.4917 0.0
H1193 H 0.98907 0.48419 0.45056 0.0
H1194 H 0.95532 0.53135 0.44768 0.0
H1195 H 0.01799 0.61516 0.48396 0.0
H1196 H 0.01837 0.50318 0.46763 0.0
H1197 H 0.09508 0.60886 0.57349 0.0
H1198 H 0.96499 0.5004 0.44496 0.0
H1199 H 0.05839 0.49408 0.53315 0.0
H1200 H 0.06982 0.58709 0.55189 0.0
H1201 H 0.08055 0.47858 0.54576 0.0
H1202 H 0.96316 0.56702 0.4568 0.0
H1203 H 0.11721 0.59566 0.58941 0.0
H1204 H 0.12812 0.56677 0.59391 0.0
H1205 H 0.98662 0.59842 0.46997 0.0
H1206 H 0.12458 0.53152 0.58587 0.0
N1207 N 0.07646 0.56102 0.55591 0.0
C1208 C 0.07881 0.58071 0.55897 0.0
C1209 C 0.10584 0.58582 0.58013 0.0
C1210 C 0.10375 0.56576 0.5766 0.0
C1211 C 0.09339 0.59331 0.57116 0.0
C1212 C 0.08869 0.55357 0.56438 0.0
H1213 H 0.10719 0.49864 0.56759 0.0
N1214 N 0.07284 0.52264 0.54703 0.0
C1215 C 0.08258 0.49413 0.54967 0.0
C1216 C 0.0869 0.53378 0.55962 0.0
C1217 C 0.07015 0.50296 0.54247 0.0
C1218 C 0.09755 0.5055 0.56206 0.0
C1219 C 0.0998 0.52556 0.5673 0.0
O1220 O 0.03562 0.51699 0.55078 0.0
O1221 O 0.03051 0.53515 0.51321 0.0
O1222 O 0.02583 0.56589 0.51125 0.0
O1223 O 0.04226 0.5658 0.5395 0.0
O1224 O 0.02908 0.51043 0.52401 0.0
O1225 O 0.03948 0.548 0.56158 0.0
O1226 O 0.05596 0.56771 0.47389 0.0
O1227 O 0.06005 0.5513 0.51229 0.0
O1228 O 0.06448 0.52208 0.51419 0.0
O1229 O 0.04587 0.52046 0.48675 0.0
O1230 O 0.06225 0.57574 0.50138 0.0
O1231 O 0.04551 0.53665 0.4625 0.0
C1232 C 0.02134 0.51807 0.51223 0.0
C1233 C 0.03466 0.52703 0.58312 0.0
C1234 C 0.02165 0.52635 0.61241 0.0
C1235 C 0.02157 0.53077 0.59456 0.0
C1236 C 0.03514 0.51848 0.61912 0.0
C1237 C 0.04822 0.5191 0.58968 0.0
C1238 C 0.04846 0.51491 0.60773 0.0
C1239 C 0.03092 0.57224 0.52944 0.0
C1240 C 0.03282 0.53032 0.56402 0.0
C1241 C 0.11454 0.53757 0.57984 0.0
C1242 C 0.11652 0.55763 0.58446 0.0
C1243 C 0.07041 0.56762 0.51236 0.0
C1244 C 0.05124 0.55759 0.44116 0.0
C1245 C 0.06232 0.55253 0.42785 0.0
C1246 C 0.0614 0.55793 0.41042 0.0
C1247 C 0.04853 0.56776 0.40602 0.0
C1248 C 0.03841 0.56747 0.4369 0.0
C1249 C 0.037 0.57241 0.41925 0.0
C1250 C 0.05778 0.5144 0.49646 0.0
C1251 C 0.05455 0.55344 0.45966 0.0
H1252 H 0.01105 0.53682 0.58946 0.0
H1253 H 0.03519 0.51488 0.63296 0.0
H1254 H 0.05836 0.5159 0.58084 0.0
H1255 H 0.0588 0.50866 0.61277 0.0
H1256 H 0.07207 0.54474 0.43131 0.0
H1257 H 0.0477 0.57225 0.39263 0.0
H1258 H 0.02974 0.57156 0.44719 0.0
H1259 H 0.02724 0.58019 0.41596 0.0
Eu1260 Eu 0.77898 0.79361 0.26794 0.0
C1261 C 0.84003 0.76745 0.30873 0.0
C1262 C 0.8526 0.79436 0.33487 0.0
C1263 C 0.85331 0.76171 0.33774 0.0
C1264 C 0.84355 0.78698 0.3165 0.0
C1265 C 0.84535 0.75466 0.31905 0.0
C1266 C 0.85697 0.78156 0.34562 0.0
C1267 C 0.83706 0.72959 0.29083 0.0
N1268 N 0.83291 0.76127 0.29047 0.0
C1269 C 0.83219 0.74289 0.28115 0.0
C1270 C 0.84336 0.7354 0.30997 0.0
Eu1271 Eu 0.82406 0.78416 0.27498 0.0
N1272 N 0.83972 0.79899 0.30546 0.0
C1273 C 0.84613 0.81867 0.31139 0.0
C1274 C 0.85792 0.81447 0.34148 0.0
C1275 C 0.85508 0.82668 0.32949 0.0
H1276 H 0.82727 0.73836 0.26635 0.0
H1277 H 0.85971 0.84229 0.33419 0.0
H1278 H 0.86376 0.78695 0.3598 0.0
H1279 H 0.83596 0.71488 0.28353 0.0
H1280 H 0.84425 0.82846 0.30244 0.0
H1281 H 0.74773 0.73497 0.2073 0.0
H1282 H 0.86491 0.82071 0.35548 0.0
H1283 H 0.77653 0.83957 0.27624 0.0
H1284 H 0.76345 0.74908 0.23884 0.0
H1285 H 0.76593 0.86235 0.25954 0.0
H1286 H 0.85731 0.75208 0.34597 0.0
H1287 H 0.73825 0.75594 0.18755 0.0
H1288 H 0.7359 0.7891 0.18433 0.0
H1289 H 0.84728 0.72512 0.31741 0.0
H1290 H 0.74092 0.82374 0.19844 0.0
N1291 N 0.76341 0.77825 0.23751 0.0
C1292 C 0.75937 0.75863 0.23075 0.0
C1293 C 0.74518 0.76233 0.20155 0.0
C1294 C 0.74859 0.78225 0.20878 0.0
C1295 C 0.75046 0.75045 0.21266 0.0
C1296 C 0.75777 0.78987 0.22707 0.0
H1297 H 0.75195 0.85112 0.2265 0.0
N1298 N 0.76922 0.81605 0.25264 0.0
C1299 C 0.76453 0.84753 0.25238 0.0
C1300 C 0.76082 0.80937 0.23486 0.0
C1301 C 0.77051 0.83463 0.26177 0.0
C1302 C 0.75666 0.84114 0.23373 0.0
C1303 C 0.75448 0.82179 0.22482 0.0
O1304 O 0.7637 0.80487 0.28986 0.0
O1305 O 0.80107 0.79202 0.2884 0.0
O1306 O 0.80368 0.75826 0.28277 0.0
O1307 O 0.77615 0.76159 0.27004 0.0
O1308 O 0.79127 0.81632 0.29413 0.0
O1309 O 0.75257 0.77626 0.27309 0.0
O1310 O 0.83918 0.77327 0.25274 0.0
O1311 O 0.80212 0.78574 0.25403 0.0
O1312 O 0.79911 0.81915 0.25956 0.0
O1313 O 0.82646 0.81647 0.27349 0.0
O1314 O 0.81178 0.76113 0.24959 0.0
O1315 O 0.85078 0.80127 0.27044 0.0
C1316 C 0.80224 0.80735 0.30031 0.0
C1317 C 0.73179 0.79313 0.28648 0.0
C1318 C 0.70289 0.79127 0.29998 0.0
C1319 C 0.72022 0.78764 0.30019 0.0
C1320 C 0.69759 0.80076 0.28623 0.0
C1321 C 0.72598 0.80253 0.27297 0.0
C1322 C 0.70907 0.8064 0.27294 0.0
C1323 C 0.78599 0.75128 0.27728 0.0
C1324 C 0.75003 0.78957 0.28655 0.0
C1325 C 0.74576 0.8144 0.20644 0.0
C1326 C 0.74287 0.79468 0.19842 0.0
C1327 C 0.80134 0.77014 0.24248 0.0
C1328 C 0.87102 0.78386 0.2569 0.0
C1329 C 0.88225 0.78776 0.24256 0.0
C1330 C 0.89867 0.78218 0.24201 0.0
C1331 C 0.90366 0.77292 0.25614 0.0
C1332 C 0.87653 0.77479 0.27085 0.0
C1333 C 0.89273 0.76937 0.27044 0.0
C1334 C 0.8166 0.82644 0.26567 0.0
C1335 C 0.85316 0.7882 0.25668 0.0
H1336 H 0.72457 0.78043 0.31076 0.0
H1337 H 0.68451 0.80391 0.28585 0.0
H1338 H 0.73454 0.80694 0.26244 0.0
H1339 H 0.70479 0.81378 0.26251 0.0
H1340 H 0.87803 0.79467 0.23167 0.0
H1341 H 0.91621 0.76863 0.25628 0.0
H1342 H 0.86822 0.77174 0.28198 0.0
H1343 H 0.89682 0.7623 0.28124 0.0
Eu1344 Eu 0.80594 0.28543 0.75978 0.0
C1345 C 0.78761 0.35127 0.81611 0.0
C1346 C 0.81719 0.36946 0.83173 0.0
C1347 C 0.79311 0.38558 0.8305 0.0
C1348 C 0.80524 0.3517 0.82204 0.0
C1349 C 0.78135 0.36819 0.82049 0.0
C1350 C 0.811 0.38623 0.83603 0.0
C1351 C 0.75188 0.34948 0.80558 0.0
N1352 N 0.77653 0.33444 0.80603 0.0
C1353 C 0.75864 0.33319 0.80163 0.0
C1354 C 0.76334 0.36715 0.81489 0.0
Eu1355 Eu 0.78748 0.30626 0.80234 0.0
N1356 N 0.81095 0.33518 0.81757 0.0
C1357 C 0.82902 0.33639 0.82141 0.0
C1358 C 0.83522 0.37012 0.83647 0.0
C1359 C 0.84118 0.35359 0.83104 0.0
H1360 H 0.74923 0.31938 0.79583 0.0
H1361 H 0.85532 0.35416 0.83391 0.0
H1362 H 0.82001 0.39986 0.84351 0.0
H1363 H 0.73772 0.34826 0.80186 0.0
H1364 H 0.83491 0.32479 0.8164 0.0
H1365 H 0.73947 0.23528 0.73213 0.0
H1366 H 0.84476 0.38347 0.84377 0.0
H1367 H 0.84584 0.27464 0.76348 0.0
H1368 H 0.76025 0.26427 0.75182 0.0
H1369 H 0.85966 0.24843 0.75104 0.0
H1370 H 0.7885 0.39863 0.83398 0.0
H1371 H 0.75134 0.20935 0.71459 0.0
H1372 H 0.77798 0.19611 0.70753 0.0
H1373 H 0.75805 0.37977 0.81811 0.0
H1374 H 0.81059 0.19931 0.71333 0.0
N1375 N 0.78414 0.25604 0.74456 0.0
C1376 C 0.76586 0.25363 0.74376 0.0
C1377 C 0.76064 0.22235 0.72292 0.0
C1378 C 0.77926 0.22431 0.72463 0.0
C1379 C 0.7539 0.23694 0.7328 0.0
C1380 C 0.79077 0.24149 0.73577 0.0
H1381 H 0.84098 0.2184 0.73008 0.0
N1382 N 0.8192 0.25906 0.75155 0.0
C1383 C 0.8453 0.24655 0.74788 0.0
C1384 C 0.80895 0.24306 0.73941 0.0
C1385 C 0.83731 0.26121 0.75536 0.0
C1386 C 0.83476 0.22973 0.7359 0.0
C1387 C 0.81636 0.22783 0.73147 0.0
O1388 O 0.831 0.29718 0.74954 0.0
O1389 O 0.80046 0.31169 0.77708 0.0
O1390 O 0.7691 0.30602 0.77533 0.0
O1391 O 0.78174 0.29463 0.7483 0.0
O1392 O 0.82685 0.31397 0.77128 0.0
O1393 O 0.80584 0.2895 0.73024 0.0
O1394 O 0.75974 0.29376 0.80772 0.0
O1395 O 0.78684 0.28018 0.78098 0.0
O1396 O 0.82242 0.28156 0.7854 0.0
O1397 O 0.81257 0.29718 0.81282 0.0
O1398 O 0.78434 0.27614 0.8085 0.0
O1399 O 0.77993 0.31137 0.8308 0.0
C1400 C 0.81568 0.3232 0.77819 0.0
C1401 C 0.835 0.30134 0.7183 0.0
C1402 C 0.84015 0.31834 0.69262 0.0
C1403 C 0.82841 0.30928 0.70422 0.0
C1404 C 0.85847 0.31818 0.69447 0.0
C1405 C 0.85325 0.30105 0.72 0.0
C1406 C 0.86488 0.30927 0.70795 0.0
C1407 C 0.76901 0.30156 0.75657 0.0
C1408 C 0.8235 0.29589 0.73271 0.0
C1409 C 0.80513 0.21111 0.71961 0.0
C1410 C 0.78659 0.20933 0.71624 0.0
C1411 C 0.7849 0.26785 0.79139 0.0
C1412 C 0.753 0.2922 0.83913 0.0
C1413 C 0.7585 0.2779 0.84686 0.0
C1414 C 0.7495 0.27041 0.86132 0.0
C1415 C 0.73496 0.27752 0.86772 0.0
C1416 C 0.7383 0.29873 0.84544 0.0
C1417 C 0.72931 0.29141 0.85967 0.0
C1418 C 0.82382 0.28797 0.80396 0.0
C1419 C 0.76304 0.30187 0.82559 0.0
H1420 H 0.81422 0.30906 0.70287 0.0
H1421 H 0.8679 0.32525 0.68583 0.0
H1422 H 0.85861 0.2949 0.73091 0.0
H1423 H 0.87899 0.30925 0.70942 0.0
H1424 H 0.76976 0.27281 0.84169 0.0
H1425 H 0.72809 0.27269 0.87924 0.0
H1426 H 0.73402 0.30988 0.83963 0.0
H1427 H 0.71816 0.29677 0.86473 0.0
Eu1428 Eu 0.80594 0.80461 0.77576 0.0
C1429 C 0.73481 0.74887 0.7441 0.0
C1430 C 0.71951 0.7386 0.77017 0.0
C1431 C 0.70188 0.7404 0.74211 0.0
C1432 C 0.73567 0.7446 0.76194 0.0
C1433 C 0.71777 0.7463 0.73387 0.0
C1434 C 0.70274 0.73687 0.76031 0.0
C1435 C 0.73291 0.75218 0.70671 0.0
N1436 N 0.75035 0.75393 0.73609 0.0
C1437 C 0.74934 0.7541 0.71715 0.0
C1438 C 0.71706 0.74861 0.7152 0.0
Eu1439 Eu 0.77777 0.75497 0.75432 0.0
N1440 N 0.75207 0.74566 0.77104 0.0
C1441 C 0.75274 0.73971 0.78793 0.0
C1442 C 0.72052 0.73397 0.78794 0.0
C1443 C 0.73719 0.73441 0.79676 0.0
H1444 H 0.76104 0.75507 0.70953 0.0
H1445 H 0.73807 0.73031 0.81028 0.0
H1446 H 0.69029 0.73215 0.76641 0.0
H1447 H 0.73246 0.75282 0.69192 0.0
H1448 H 0.76494 0.73854 0.79502 0.0
H1449 H 0.84806 0.81791 0.71852 0.0
H1450 H 0.70845 0.7295 0.79473 0.0
H1451 H 0.82002 0.80711 0.82195 0.0
H1452 H 0.82084 0.8049 0.73156 0.0
H1453 H 0.84796 0.81628 0.8429 0.0
H1454 H 0.68878 0.73784 0.73427 0.0
H1455 H 0.87716 0.83026 0.73872 0.0
H1456 H 0.89409 0.83644 0.77046 0.0
H1457 H 0.70426 0.74668 0.70694 0.0
H1458 H 0.89413 0.83511 0.80395 0.0
N1459 N 0.83271 0.81104 0.75995 0.0
C1460 C 0.83276 0.81063 0.74107 0.0
C1461 C 0.86488 0.82476 0.74479 0.0
C1462 C 0.86517 0.82434 0.76391 0.0
C1463 C 0.84858 0.81772 0.73334 0.0
C1464 C 0.8487 0.81724 0.77121 0.0
H1465 H 0.87723 0.82705 0.83076 0.0
N1466 N 0.83279 0.80906 0.79665 0.0
C1467 C 0.84846 0.81587 0.82798 0.0
C1468 C 0.84876 0.81606 0.79 0.0
C1469 C 0.83253 0.80996 0.81569 0.0
C1470 C 0.86492 0.82207 0.82111 0.0
C1471 C 0.86522 0.82257 0.80203 0.0
O1472 O 0.80069 0.82216 0.80154 0.0
O1473 O 0.77867 0.78333 0.77293 0.0
O1474 O 0.7821 0.77502 0.73311 0.0
O1475 O 0.79592 0.80773 0.74686 0.0
O1476 O 0.77969 0.81139 0.76859 0.0
O1477 O 0.81589 0.83601 0.7811 0.0
O1478 O 0.7808 0.73813 0.72713 0.0
O1479 O 0.80457 0.77648 0.75714 0.0
O1480 O 0.80213 0.78481 0.79693 0.0
O1481 O 0.78954 0.75224 0.78252 0.0
O1482 O 0.80467 0.74879 0.76024 0.0
O1483 O 0.76956 0.72332 0.74886 0.0
C1484 C 0.76935 0.79453 0.76907 0.0
C1485 C 0.8031 0.8556 0.8031 0.0
C1486 C 0.78977 0.88051 0.79529 0.0
C1487 C 0.79386 0.86268 0.78995 0.0
C1488 C 0.79453 0.89102 0.81391 0.0
C1489 C 0.80764 0.86601 0.82174 0.0
C1490 C 0.80328 0.88364 0.82713 0.0
C1491 C 0.78732 0.7937 0.73251 0.0
C1492 C 0.80964 0.8384 0.79745 0.0
C1493 C 0.88146 0.82993 0.79486 0.0
C1494 C 0.88144 0.83078 0.77583 0.0
C1495 C 0.81468 0.76586 0.75995 0.0
C1496 C 0.78276 0.70574 0.72513 0.0
C1497 C 0.79191 0.69755 0.73753 0.0
C1498 C 0.79782 0.68104 0.73052 0.0
C1499 C 0.79494 0.67309 0.71113 0.0
C1500 C 0.78019 0.69775 0.70576 0.0
C1501 C 0.78631 0.68154 0.6988 0.0
C1502 C 0.79737 0.7661 0.79717 0.0
C1503 C 0.77438 0.72149 0.73185 0.0
H1504 H 0.79042 0.85473 0.7755 0.0
H1505 H 0.79138 0.90483 0.81818 0.0
H1506 H 0.81489 0.86068 0.83201 0.0
H1507 H 0.80692 0.89173 0.84149 0.0
H1508 H 0.79391 0.70354 0.75253 0.0
H1509 H 0.79943 0.66035 0.70554 0.0
H1510 H 0.77309 0.70383 0.69603 0.0
H1511 H 0.78412 0.67535 0.68387 0.0
Eu1512 Eu 0.52905 0.5297 0.50753 0.0
C1513 C 0.59547 0.59413 0.55216 0.0
C1514 C 0.60962 0.60991 0.52821 0.0
C1515 C 0.6147 0.62727 0.5607 0.0
C1516 C 0.59814 0.59364 0.53345 0.0
C1517 C 0.604 0.61086 0.56602 0.0
C1518 C 0.61755 0.62677 0.54184 0.0
C1519 C 0.59264 0.5933 0.58981 0.0
N1520 N 0.58554 0.57789 0.55703 0.0
C1521 C 0.58475 0.57703 0.57566 0.0
C1522 C 0.60214 0.61039 0.58496 0.0
Eu1523 Eu 0.57355 0.55002 0.53262 0.0
N1524 N 0.5903 0.57708 0.52053 0.0
C1525 C 0.59409 0.57595 0.50217 0.0
C1526 C 0.6133 0.60864 0.50952 0.0
C1527 C 0.60565 0.59152 0.4965 0.0
H1528 H 0.57797 0.56363 0.57964 0.0
H1529 H 0.60831 0.5904 0.48194 0.0
H1530 H 0.62625 0.63936 0.538 0.0
H1531 H 0.59162 0.59254 0.60446 0.0
H1532 H 0.588 0.56361 0.49126 0.0
H1533 H 0.50113 0.47985 0.55356 0.0
H1534 H 0.62211 0.62075 0.50502 0.0
H1535 H 0.52163 0.52115 0.46035 0.0
H1536 H 0.51537 0.51087 0.54595 0.0
H1537 H 0.51117 0.49342 0.43345 0.0
H1538 H 0.62127 0.64022 0.57115 0.0
H1539 H 0.49297 0.45001 0.52884 0.0
H1540 H 0.49052 0.43459 0.49483 0.0
H1541 H 0.6085 0.62292 0.59597 0.0
H1542 H 0.49339 0.43822 0.46211 0.0
N1543 N 0.51567 0.49964 0.51667 0.0
C1544 C 0.51179 0.49842 0.53465 0.0
C1545 C 0.49926 0.4638 0.52526 0.0
C1546 C 0.50235 0.46511 0.50674 0.0
C1547 C 0.50373 0.4806 0.5392 0.0
C1548 C 0.51055 0.48348 0.50279 0.0
H1549 H 0.50087 0.46006 0.43911 0.0
N1550 N 0.5188 0.50355 0.481 0.0
C1551 C 0.51159 0.49093 0.44769 0.0
C1552 C 0.5122 0.4855 0.4844 0.0
C1553 C 0.51764 0.50656 0.46294 0.0
C1554 C 0.50582 0.47214 0.45095 0.0
C1555 C 0.50565 0.46926 0.46945 0.0
O1556 O 0.51228 0.54279 0.49162 0.0
O1557 O 0.54974 0.55773 0.52021 0.0
O1558 O 0.55429 0.56 0.5533 0.0
O1559 O 0.52622 0.54082 0.53905 0.0
O1560 O 0.54007 0.55422 0.49261 0.0
O1561 O 0.50198 0.53091 0.51515 0.0
O1562 O 0.58947 0.5405 0.55306 0.0
O1563 O 0.55267 0.52199 0.52098 0.0
O1564 O 0.54773 0.52358 0.48502 0.0
O1565 O 0.57638 0.53627 0.50151 0.0
O1566 O 0.56185 0.52772 0.54942 0.0
O1567 O 0.59826 0.54203 0.52546 0.0
C1568 C 0.54993 0.56662 0.50668 0.0
C1569 C 0.48063 0.53391 0.49126 0.0
C1570 C 0.45094 0.54042 0.48844 0.0
C1571 C 0.46742 0.54217 0.49914 0.0
C1572 C 0.44784 0.52962 0.46978 0.0
C1573 C 0.47702 0.52284 0.47286 0.0
C1574 C 0.46065 0.52064 0.46224 0.0
C1575 C 0.53672 0.55265 0.55397 0.0
C1576 C 0.49881 0.53949 0.50154 0.0
C1577 C 0.49837 0.45084 0.4734 0.0
C1578 C 0.49673 0.44878 0.49202 0.0
C1579 C 0.55236 0.51467 0.53565 0.0
C1580 C 0.62079 0.54643 0.55061 0.0
C1581 C 0.63369 0.53818 0.54225 0.0
C1582 C 0.65163 0.54362 0.55053 0.0
C1583 C 0.65667 0.55798 0.56713 0.0
C1584 C 0.62594 0.56074 0.5672 0.0
C1585 C 0.64387 0.56657 0.57532 0.0
C1586 C 0.56557 0.52782 0.48551 0.0
C1587 C 0.60201 0.53883 0.54214 0.0
H1588 H 0.47032 0.55032 0.51351 0.0
H1589 H 0.43571 0.52838 0.46072 0.0
H1590 H 0.487 0.51645 0.46646 0.0
H1591 H 0.4581 0.51243 0.4479 0.0
H1592 H 0.62961 0.52726 0.52935 0.0
H1593 H 0.67036 0.56224 0.57405 0.0
H1594 H 0.61618 0.56721 0.57403 0.0
H1595 H 0.64777 0.57749 0.58818 0.0
Eu1596 Eu 0.07122 0.53843 0.01444 0.0
C1597 C 0.00324 0.50399 0.04847 0.0
C1598 C 0.9887 0.47813 0.02198 0.0
C1599 C 0.98283 0.47443 0.05374 0.0
C1600 C 1.00037 0.4967 0.02926 0.0
C1601 C 0.99417 0.49312 0.0609 0.0
C1602 C 0.98014 0.46693 0.03432 0.0
C1603 C 0.00687 0.52066 0.08635 0.0
N1604 N 0.01418 0.52212 0.05493 0.0
C1605 C 0.01548 0.5309 0.07344 0.0
C1606 C 0.99633 0.50159 0.08008 0.0
Eu1607 Eu 0.02762 0.53872 0.03212 0.0
N1608 N 0.00857 0.50797 0.01764 0.0
C1609 C 0.00532 0.50178 0.99856 0.0
C1610 C 0.98585 0.47146 0.00247 0.0
C1611 C 0.99434 0.48323 0.99074 0.0
H1612 H 0.02349 0.54574 0.07823 0.0
H1613 H 0.99252 0.47798 0.97569 0.0
H1614 H 0.97119 0.4526 0.02895 0.0
H1615 H 0.00827 0.52752 0.10108 0.0
H1616 H 0.01156 0.51086 0.98934 0.0
H1617 H 0.12067 0.59467 0.06651 0.0
H1618 H 0.97695 0.45739 0.99635 0.0
H1619 H 0.07112 0.53473 0.96689 0.0
H1620 H 0.10173 0.56202 0.05355 0.0
H1621 H 0.07779 0.55643 0.94445 0.0
H1622 H 0.97584 0.46581 0.06308 0.0
H1623 H 0.12411 0.62015 0.0476 0.0
H1624 H 0.1182 0.62916 0.01662 0.0
H1625 H 0.98957 0.49373 0.09008 0.0
H1626 H 0.10638 0.61872 0.98315 0.0
N1627 N 0.09256 0.5688 0.02775 0.0
C1628 C 0.10222 0.57292 0.04517 0.0
C1629 C 0.11533 0.60581 0.04186 0.0
C1630 C 0.10673 0.60113 0.02347 0.0
C1631 C 0.11341 0.59148 0.05257 0.0
C1632 C 0.09547 0.58219 0.01662 0.0
H1633 H 0.09171 0.59153 0.95602 0.0
N1634 N 0.07956 0.55752 0.99128 0.0
C1635 C 0.08067 0.56233 0.95943 0.0
C1636 C 0.0887 0.57637 0.9978 0.0
C1637 C 0.07676 0.55011 0.97228 0.0
C1638 C 0.08848 0.58212 0.96602 0.0
C1639 C 0.09316 0.58927 0.98536 0.0
O1640 O 0.07889 0.5169 0.99392 0.0
O1641 O 0.04289 0.5202 0.01508 0.0
O1642 O 0.0444 0.53016 0.05437 0.0
O1643 O 0.07333 0.54124 0.04577 0.0
O1644 O 0.0641 0.50976 0.02371 0.0
O1645 O 0.09725 0.53151 0.01916 0.0
O1646 O 0.01515 0.56068 0.04624 0.0
O1647 O 0.05338 0.55719 0.02557 0.0
O1648 O 0.04993 0.53321 0.99 0.0
O1649 O 0.02943 0.54802 0.0043 0.0
O1650 O 0.04547 0.56528 0.05187 0.0
O1651 O 0.00301 0.54346 0.01903 0.0
C1652 C 0.04682 0.50576 0.02023 0.0
C1653 C 0.10951 0.5154 0.99326 0.0
C1654 C 0.1355 0.50136 0.99067 0.0
C1655 C 0.12223 0.50718 0.00124 0.0
C1656 C 0.1357 0.50413 0.97194 0.0
C1657 C 0.1104 0.51841 0.97479 0.0
C1658 C 0.12345 0.51281 0.96424 0.0
C1659 C 0.06222 0.53407 0.05735 0.0
C1660 C 0.09422 0.51842 0.00362 0.0
C1661 C 0.1031 0.60855 0.99245 0.0
C1662 C 0.10985 0.61449 0.0115 0.0
C1663 C 0.05698 0.57045 0.04028 0.0
C1664 C 0.98385 0.55703 0.0387 0.0
C1665 C 0.97428 0.56937 0.03228 0.0
C1666 C 0.95708 0.56958 0.03785 0.0
C1667 C 0.94963 0.55751 0.04999 0.0
C1668 C 0.97611 0.54501 0.05076 0.0
C1669 C 0.95913 0.54535 0.05643 0.0
C1670 C 0.03723 0.54244 0.98945 0.0
C1671 C 0.00194 0.55713 0.03291 0.0
H1672 H 0.12154 0.50514 0.0156 0.0
H1673 H 0.1451 0.49929 0.96296 0.0
H1674 H 0.10071 0.52456 0.96831 0.0
H1675 H 0.12384 0.51481 0.94985 0.0
H1676 H 0.98012 0.57866 0.02289 0.0
H1677 H 0.93641 0.55746 0.05443 0.0
H1678 H 0.98316 0.5354 0.0558 0.0
H1679 H 0.95327 0.53608 0.06579 0.0
H1680 H 0.03379 0.21192 0.93596 0.0
H1681 H 0.04083 0.18421 0.94703 0.0
H1682 H 0.01021 0.19346 0.99402 0.0
H1683 H 0.0031 0.22091 0.98311 0.0
H1684 H 0.04116 0.18555 0.00546 0.0
H1685 H 0.99201 0.15725 0.95792 0.0
H1686 H 0.97456 0.15074 0.92674 0.0
H1687 H 0.01595 0.12834 0.90091 0.0
H1688 H 0.03378 0.13497 0.93194 0.0
H1689 H 0.04032 0.09216 0.02927 0.0
H1690 H 0.03483 0.12261 0.0234 0.0
H1691 H 0.05309 0.11146 0.96839 0.0
H1692 H 0.05646 0.08025 0.97355 0.0
H1693 H 0.02565 0.12088 0.9629 0.0
H1694 H 0.07678 0.15542 0.01383 0.0
H1695 H 0.09178 0.16437 0.04645 0.0
H1696 H 0.04285 0.17309 0.06739 0.0
H1697 H 0.0278 0.16528 0.03487 0.0
C1698 C 0.0286 0.20809 0.94866 0.0
C1699 C 0.01778 0.21866 0.95852 0.0
C1700 C 0.03259 0.1922 0.95498 0.0
C1701 C 0.02598 0.18661 0.97135 0.0
C1702 C 0.01553 0.19742 0.9814 0.0
C1703 C 0.01139 0.21312 0.97503 0.0
C1704 C 0.02957 0.16927 0.9778 0.0
C1705 C 0.0378 0.17138 0.99615 0.0
C1706 C 0.02489 0.15066 0.96591 0.0
C1707 C 0.01433 0.14682 0.94721 0.0
C1708 C 0.99748 0.15112 0.94557 0.0
C1709 C 0.9875 0.14736 0.92793 0.0
C1710 C 0.99417 0.13919 0.91185 0.0
C1711 C 0.01082 0.13471 0.91338 0.0
C1712 C 0.02087 0.13845 0.93098 0.0
C1713 C 0.04346 0.09649 0.0161 0.0
C1714 C 0.04897 0.08391 0.00191 0.0
C1715 C 0.04046 0.11408 0.01274 0.0
C1716 C 0.04362 0.11979 0.99539 0.0
C1717 C 0.05021 0.10757 0.98179 0.0
C1718 C 0.05234 0.08972 0.9848 0.0
C1719 C 0.0386 0.13723 0.99026 0.0
C1720 C 0.02957 0.13508 0.97218 0.0
C1721 C 0.04229 0.1557 0.00255 0.0
C1722 C 0.05113 0.15951 0.022 0.0
C1723 C 0.0692 0.15909 0.02541 0.0
C1724 C 0.07771 0.16399 0.04386 0.0
C1725 C 0.0682 0.16885 0.05898 0.0
C1726 C 0.05018 0.16918 0.05568 0.0
C1727 C 0.04171 0.16472 0.03725 0.0
H1728 H 0.07484 0.17255 0.07324 0.0
H1729 H 0.98641 0.13628 0.89821 0.0
H1730 H 0.12274 0.78655 0.14443 0.0
H1731 H 0.14773 0.78404 0.1655 0.0
H1732 H 0.17016 0.84613 0.17471 0.0
H1733 H 0.14582 0.84823 0.15229 0.0
H1734 H 0.19629 0.83222 0.17172 0.0
H1735 H 0.14785 0.81852 0.20937 0.0
H1736 H 0.11742 0.8022 0.21598 0.0
H1737 H 0.13051 0.74724 0.20559 0.0
H1738 H 0.16094 0.76319 0.19865 0.0
H1739 H 0.25568 0.82929 0.25384 0.0
H1740 H 0.22972 0.83414 0.23568 0.0
H1741 H 0.2219 0.77759 0.20041 0.0
H1742 H 0.24818 0.77301 0.21795 0.0
H1743 H 0.18853 0.79021 0.219 0.0
H1744 H 0.2375 0.80638 0.18018 0.0
H1745 H 0.26766 0.82468 0.1747 0.0
H1746 H 0.25281 0.87829 0.19027 0.0
H1747 H 0.2227 0.86032 0.19626 0.0
C1748 C 0.13276 0.79971 0.15138 0.0
C1749 C 0.13203 0.81767 0.14715 0.0
C1750 C 0.14713 0.79831 0.16351 0.0
C1751 C 0.1609 0.81494 0.1723 0.0
C1752 C 0.15986 0.83299 0.16832 0.0
C1753 C 0.14578 0.83428 0.1557 0.0
C1754 C 0.17675 0.81337 0.18478 0.0
C1755 C 0.19441 0.82326 0.18224 0.0
C1756 C 0.17472 0.80159 0.19858 0.0
C1757 C 0.15665 0.79204 0.20337 0.0
C1758 C 0.14423 0.80295 0.20845 0.0
C1759 C 0.12698 0.79376 0.21224 0.0
C1760 C 0.12203 0.77369 0.21117 0.0
C1761 C 0.13436 0.76278 0.20641 0.0
C1762 C 0.15163 0.77189 0.20257 0.0
C1763 C 0.24832 0.81777 0.2424 0.0
C1764 C 0.25379 0.80046 0.2379 0.0
C1765 C 0.23352 0.82062 0.23192 0.0
C1766 C 0.22362 0.8061 0.21682 0.0
C1767 C 0.22915 0.78892 0.21214 0.0
C1768 C 0.24425 0.78631 0.22226 0.0
C1769 C 0.20774 0.80891 0.20568 0.0
C1770 C 0.19018 0.79927 0.20854 0.0
C1771 C 0.20981 0.82124 0.1925 0.0
C1772 C 0.22794 0.83201 0.18896 0.0
C1773 C 0.24075 0.82208 0.18271 0.0
C1774 C 0.25782 0.83239 0.17945 0.0
C1775 C 0.26216 0.85264 0.18221 0.0
C1776 C 0.24945 0.86261 0.1882 0.0
C1777 C 0.23238 0.85237 0.19154 0.0
H1778 H 0.27534 0.86062 0.17962 0.0
H1779 H 0.10865 0.7666 0.21406 0.0
H1780 H 0.49598 0.81932 0.47788 0.0
H1781 H 0.50166 0.85431 0.48844 0.0
H1782 H 0.55192 0.86306 0.46388 0.0
H1783 H 0.54607 0.8277 0.45259 0.0
H1784 H 0.54991 0.88813 0.50439 0.0
H1785 H 0.52561 0.87044 0.43876 0.0
H1786 H 0.50428 0.85159 0.41116 0.0
H1787 H 0.46033 0.86741 0.43808 0.0
H1788 H 0.48139 0.88602 0.46603 0.0
H1789 H 0.54535 0.97935 0.46792 0.0
H1790 H 0.54273 0.94492 0.46603 0.0
H1791 H 0.52408 0.9488 0.52099 0.0
H1792 H 0.52857 0.98385 0.52382 0.0
H1793 H 0.51061 0.91716 0.46814 0.0
H1794 H 0.53694 0.92965 0.53719 0.0
H1795 H 0.55998 0.94872 0.56338 0.0
H1796 H 0.60202 0.94305 0.52815 0.0
H1797 H 0.57912 0.9246 0.50155 0.0
C1798 C 0.50844 0.82855 0.47493 0.0
C1799 C 0.52056 0.8206 0.46429 0.0
C1800 C 0.51164 0.84861 0.48103 0.0
C1801 C 0.52719 0.86129 0.47698 0.0
C1802 C 0.53986 0.85348 0.46723 0.0
C1803 C 0.53648 0.8333 0.46074 0.0
C1804 C 0.52906 0.88258 0.48134 0.0
C1805 C 0.54135 0.89451 0.49646 0.0
C1806 C 0.51777 0.8909 0.47118 0.0
C1807 C 0.50502 0.8793 0.45462 0.0
C1808 C 0.51136 0.86961 0.43893 0.0
C1809 C 0.49932 0.85904 0.42319 0.0
C1810 C 0.48094 0.85821 0.4229 0.0
C1811 C 0.47456 0.86798 0.43836 0.0
C1812 C 0.48654 0.87852 0.45416 0.0
C1813 C 0.54074 0.97295 0.4797 0.0
C1814 C 0.53692 0.98445 0.49593 0.0
C1815 C 0.53938 0.95324 0.47864 0.0
C1816 C 0.53379 0.94426 0.4936 0.0
C1817 C 0.52926 0.95546 0.5096 0.0
C1818 C 0.53125 0.97547 0.51095 0.0
C1819 C 0.53141 0.92289 0.49124 0.0
C1820 C 0.51901 0.91081 0.47632 0.0
C1821 C 0.54264 0.91456 0.50157 0.0
C1822 C 0.55631 0.92638 0.51723 0.0
C1823 C 0.55107 0.93296 0.53489 0.0
C1824 C 0.5641 0.94355 0.54984 0.0
C1825 C 0.58245 0.94722 0.54739 0.0
C1826 C 0.58779 0.94036 0.52997 0.0
C1827 C 0.57479 0.92996 0.51493 0.0
H1828 H 0.59254 0.95522 0.55902 0.0
H1829 H 0.47166 0.85008 0.41067 0.0
H1830 H 0.54331 0.34426 0.66509 0.0
H1831 H 0.51511 0.3378 0.67955 0.0
H1832 H 0.49753 0.2811 0.64334 0.0
H1833 H 0.52596 0.28736 0.6289 0.0
H1834 H 0.46955 0.30172 0.64727 0.0
H1835 H 0.51144 0.28198 0.68566 0.0
H1836 H 0.54042 0.28536 0.70423 0.0
H1837 H 0.53296 0.33494 0.74208 0.0
H1838 H 0.50403 0.33202 0.72355 0.0
H1839 H 0.40061 0.26257 0.70428 0.0
H1840 H 0.4251 0.2692 0.68418 0.0
H1841 H 0.44929 0.32392 0.7222 0.0
H1842 H 0.42481 0.31724 0.74218 0.0
H1843 H 0.47339 0.30295 0.7159 0.0
H1844 H 0.43047 0.32174 0.67749 0.0
H1845 H 0.40167 0.31803 0.65843 0.0
H1846 H 0.41063 0.26951 0.62027 0.0
H1847 H 0.43938 0.27273 0.63926 0.0
C1848 C 0.53349 0.33039 0.66015 0.0
C1849 C 0.53706 0.31629 0.64589 0.0
C1850 C 0.51731 0.32672 0.66844 0.0
C1851 C 0.50413 0.30894 0.6626 0.0
C1852 C 0.50743 0.29495 0.64809 0.0
C1853 C 0.52378 0.2985 0.63994 0.0
C1854 C 0.48737 0.30483 0.67233 0.0
C1855 C 0.47033 0.3017 0.66222 0.0
C1856 C 0.48833 0.3051 0.69189 0.0
C1857 C 0.50567 0.3069 0.70311 0.0
C1858 C 0.51606 0.29371 0.69785 0.0
C1859 C 0.53246 0.29552 0.70838 0.0
C1860 C 0.53856 0.31039 0.7243 0.0
C1861 C 0.52824 0.32344 0.72973 0.0
C1862 C 0.51183 0.32171 0.71923 0.0
C1863 C 0.41088 0.27626 0.70797 0.0
C1864 C 0.41068 0.28955 0.72461 0.0
C1865 C 0.42492 0.28004 0.69651 0.0
C1866 C 0.43914 0.29712 0.70158 0.0
C1867 C 0.43854 0.31066 0.71791 0.0
C1868 C 0.42447 0.30694 0.72926 0.0
C1869 C 0.45544 0.30011 0.69098 0.0
C1870 C 0.47248 0.30296 0.70094 0.0
C1871 C 0.45438 0.29945 0.67128 0.0
C1872 C 0.43699 0.29733 0.65995 0.0
C1873 C 0.42621 0.31013 0.66516 0.0
C1874 C 0.40991 0.30815 0.65434 0.0
C1875 C 0.40429 0.2935 0.63819 0.0
C1876 C 0.41498 0.28082 0.63281 0.0
C1877 C 0.43128 0.28273 0.64359 0.0
H1878 H 0.39168 0.29201 0.62982 0.0
H1879 H 0.55126 0.31176 0.73244 0.0
H1880 H 0.01638 0.78258 0.59287 0.0
H1881 H 0.02039 0.80859 0.57512 0.0
H1882 H 0.00928 0.84714 0.62288 0.0
H1883 H 0.00517 0.8212 0.64079 0.0
H1884 H 0.99316 0.8508 0.58858 0.0
H1885 H 0.05065 0.85197 0.61702 0.0
H1886 H 0.07576 0.83881 0.62638 0.0
H1887 H 0.08287 0.8211 0.56828 0.0
H1888 H 0.05755 0.83384 0.55854 0.0
H1889 H 0.04323 0.93608 0.55476 0.0
H1890 H 0.03215 0.91261 0.57428 0.0
H1891 H 0.03 0.86561 0.52772 0.0
H1892 H 0.03996 0.88883 0.50759 0.0
H1893 H 0.05276 0.8691 0.56448 0.0
H1894 H 0.99331 0.86915 0.53735 0.0
H1895 H 0.9687 0.88405 0.53046 0.0
H1896 H 0.9667 0.90279 0.58965 0.0
H1897 H 0.99156 0.8883 0.5969 0.0
C1898 C 0.01464 0.79653 0.59956 0.0
C1899 C 0.01071 0.79994 0.61829 0.0
C1900 C 0.01693 0.81135 0.58942 0.0
C1901 C 0.01532 0.82977 0.59783 0.0
C1902 C 0.0106 0.833 0.61622 0.0
C1903 C 0.00839 0.8182 0.62643 0.0
C1904 C 0.01967 0.84587 0.5877 0.0
C1905 C 0.00625 0.85502 0.58348 0.0
C1906 C 0.03681 0.85139 0.58129 0.0
C1907 C 0.05206 0.84368 0.58704 0.0
C1908 C 0.05744 0.84509 0.60622 0.0
C1909 C 0.07174 0.83774 0.6116 0.0
C1910 C 0.08088 0.82907 0.59793 0.0
C1911 C 0.07576 0.82778 0.57885 0.0
C1912 C 0.06143 0.83508 0.57339 0.0
C1913 C 0.0399 0.92077 0.54841 0.0
C1914 C 0.04253 0.91438 0.52951 0.0
C1915 C 0.03365 0.90741 0.55967 0.0
C1916 C 0.03022 0.88751 0.55232 0.0
C1917 C 0.03256 0.88101 0.53351 0.0
C1918 C 0.03846 0.89431 0.52213 0.0
C1919 C 0.02605 0.87347 0.56471 0.0
C1920 C 0.03967 0.8649 0.56958 0.0
C1921 C 0.00925 0.86889 0.57205 0.0
C1922 C 0.99452 0.87791 0.56766 0.0
C1923 C 0.98784 0.87671 0.5489 0.0
C1924 C 0.97378 0.88501 0.54493 0.0
C1925 C 0.96619 0.89444 0.55961 0.0
C1926 C 0.97263 0.89554 0.57829 0.0
C1927 C 0.98671 0.88729 0.58234 0.0
H1928 H 0.95529 0.90082 0.55651 0.0
H1929 H 0.09196 0.8234 0.60212 0.0
H1930 H 0.56536 0.83896 0.85367 0.0
H1931 H 0.53817 0.84036 0.83483 0.0
H1932 H 0.50467 0.80821 0.87003 0.0
H1933 H 0.53167 0.80718 0.88903 0.0
H1934 H 0.49139 0.79785 0.83158 0.0
H1935 H 0.51588 0.85441 0.88121 0.0
H1936 H 0.53986 0.88285 0.89793 0.0
H1937 H 0.54109 0.90801 0.84874 0.0
H1938 H 0.51746 0.87942 0.83152 0.0
H1939 H 0.40936 0.81712 0.81093 0.0
H1940 H 0.43575 0.81613 0.83014 0.0
H1941 H 0.46874 0.86097 0.80607 0.0
H1942 H 0.44196 0.86444 0.78909 0.0
H1943 H 0.48306 0.8644 0.83838 0.0
H1944 H 0.45923 0.80705 0.78809 0.0
H1945 H 0.43542 0.77828 0.77149 0.0
H1946 H 0.43295 0.75473 0.82169 0.0
H1947 H 0.45668 0.78335 0.83857 0.0
C1948 C 0.55215 0.83187 0.85705 0.0
C1949 C 0.5504 0.82325 0.87287 0.0
C1950 C 0.53673 0.83269 0.84636 0.0
C1951 C 0.51954 0.82461 0.8513 0.0
C1952 C 0.51786 0.8146 0.86614 0.0
C1953 C 0.53322 0.81412 0.87701 0.0
C1954 C 0.50331 0.82828 0.84253 0.0
C1955 C 0.4895 0.81237 0.833 0.0
C1956 C 0.50105 0.84728 0.84447 0.0
C1957 C 0.51508 0.86461 0.85496 0.0
C1958 C 0.5214 0.86589 0.87387 0.0
C1959 C 0.53493 0.88205 0.88345 0.0
C1960 C 0.54205 0.89719 0.87438 0.0
C1961 C 0.53562 0.89623 0.85572 0.0
C1962 C 0.52218 0.88003 0.84603 0.0
C1963 C 0.42198 0.82743 0.81014 0.0
C1964 C 0.42337 0.84053 0.79779 0.0
C1965 C 0.43725 0.82646 0.82092 0.0
C1966 C 0.45439 0.83766 0.81874 0.0
C1967 C 0.45571 0.85176 0.80764 0.0
C1968 C 0.44033 0.85345 0.79757 0.0
C1969 C 0.47102 0.83394 0.82698 0.0
C1970 C 0.48494 0.84986 0.83661 0.0
C1971 C 0.47343 0.81491 0.82502 0.0
C1972 C 0.45963 0.7974 0.81461 0.0
C1973 C 0.45362 0.79571 0.79556 0.0
C1974 C 0.44014 0.77943 0.78611 0.0
C1975 C 0.43268 0.76468 0.79552 0.0
C1976 C 0.43876 0.76612 0.81438 0.0
C1977 C 0.45225 0.78235 0.82389 0.0
H1978 H 0.42218 0.75214 0.78821 0.0
H1979 H 0.5525 0.90971 0.88183 0.0
H1980 H 0.51838 0.21747 0.13406 0.0
H1981 H 0.5247 0.19129 0.11214 0.0
H1982 H 0.46874 0.17257 0.08819 0.0
H1983 H 0.46207 0.19865 0.11151 0.0
H1984 H 0.48203 0.14288 0.09506 0.0
H1985 H 0.50155 0.19488 0.06268 0.0
H1986 H 0.51671 0.22828 0.05987 0.0
H1987 H 0.56773 0.22088 0.08022 0.0
H1988 H 0.55289 0.18755 0.08334 0.0
H1989 H 0.51017 0.08349 0.02177 0.0
H1990 H 0.49821 0.10624 0.04206 0.0
H1991 H 0.55059 0.13029 0.07439 0.0
H1992 H 0.56291 0.10706 0.05348 0.0
H1993 H 0.53572 0.15636 0.06009 0.0
H1994 H 0.51616 0.10505 0.09387 0.0
H1995 H 0.50121 0.07189 0.09752 0.0
H1996 H 0.45038 0.07756 0.07456 0.0
H1997 H 0.46503 0.11068 0.07056 0.0
C1998 C 0.50748 0.20795 0.12389 0.0
C1999 C 0.48988 0.21001 0.12394 0.0
C2000 C 0.5111 0.19312 0.11136 0.0
C2001 C 0.4973 0.18054 0.09818 0.0
C2002 C 0.47955 0.18249 0.09814 0.0
C2003 C 0.47578 0.19724 0.11124 0.0
C2004 C 0.50183 0.16476 0.08555 0.0
C2005 C 0.49345 0.14566 0.08695 0.0
C2006 C 0.51703 0.16872 0.07549 0.0
C2007 C 0.52607 0.18867 0.0732 0.0
C2008 C 0.51599 0.20038 0.06658 0.0
C2009 C 0.52454 0.21931 0.06494 0.0
C2010 C 0.54317 0.22668 0.06985 0.0
C2011 C 0.55331 0.21514 0.07636 0.0
C2012 C 0.54485 0.1962 0.07801 0.0
C2013 C 0.51919 0.09347 0.03318 0.0
C2014 C 0.53742 0.0935 0.03613 0.0
C2015 C 0.51222 0.10625 0.04497 0.0
C2016 C 0.52342 0.11942 0.0599 0.0
C2017 C 0.54175 0.11976 0.06302 0.0
C2018 C 0.54876 0.10672 0.05112 0.0
C2019 C 0.51638 0.13462 0.07019 0.0
C2020 C 0.52419 0.15352 0.06804 0.0
C2021 C 0.50062 0.13037 0.07939 0.0
C2022 C 0.49176 0.11036 0.08176 0.0
C2023 C 0.50182 0.09919 0.08943 0.0
C2024 C 0.49339 0.0804 0.09161 0.0
C2025 C 0.47487 0.07261 0.08624 0.0
C2026 C 0.46473 0.08361 0.07872 0.0
C2027 C 0.47309 0.10241 0.07652 0.0
H2028 H 0.46837 0.05807 0.08793 0.0
H2029 H 0.54974 0.24135 0.06861 0.0
H2030 H 0.1343 0.2937 0.34934 0.0
H2031 H 0.16036 0.29161 0.33251 0.0
H2032 H 0.16697 0.35028 0.32428 0.0
H2033 H 0.14064 0.35257 0.34122 0.0
H2034 H 0.17067 0.32151 0.29181 0.0
H2035 H 0.19506 0.34666 0.35696 0.0
H2036 H 0.19782 0.34849 0.39131 0.0
H2037 H 0.20363 0.29024 0.3828 0.0
H2038 H 0.20074 0.288 0.34845 0.0
H2039 H 0.25845 0.31202 0.26682 0.0
H2040 H 0.23059 0.32063 0.27427 0.0
H2041 H 0.21951 0.27608 0.30751 0.0
H2042 H 0.24902 0.27041 0.30299 0.0
H2043 H 0.22121 0.30765 0.32786 0.0
H2044 H 0.19234 0.27937 0.2631 0.0
H2045 H 0.19002 0.27653 0.22863 0.0
H2046 H 0.19189 0.3371 0.23551 0.0
H2047 H 0.19441 0.34033 0.27002 0.0
C2048 C 0.14112 0.30608 0.34375 0.0
C2049 C 0.13559 0.32333 0.34663 0.0
C2050 C 0.15601 0.30489 0.33425 0.0
C2051 C 0.1656 0.32094 0.32761 0.0
C2052 C 0.15964 0.33787 0.32952 0.0
C2053 C 0.14463 0.33908 0.33905 0.0
C2054 C 0.18206 0.31969 0.31905 0.0
C2055 C 0.18191 0.31866 0.2996 0.0
C2056 C 0.19652 0.31602 0.32942 0.0
C2057 C 0.19757 0.31715 0.35011 0.0
C2058 C 0.19672 0.33418 0.36241 0.0
C2059 C 0.19838 0.3353 0.38189 0.0
C2060 C 0.20088 0.31949 0.38923 0.0
C2061 C 0.2017 0.30249 0.37711 0.0
C2062 C 0.20008 0.3013 0.35764 0.0
C2063 C 0.24972 0.30383 0.27535 0.0
C2064 C 0.25539 0.29027 0.28411 0.0
C2065 C 0.23371 0.30855 0.27937 0.0
C2066 C 0.22291 0.29897 0.29141 0.0
C2067 C 0.22774 0.28377 0.29829 0.0
C2068 C 0.24438 0.28018 0.29547 0.0
C2069 C 0.20894 0.30711 0.30013 0.0
C2070 C 0.20996 0.31023 0.31983 0.0
C2071 C 0.19516 0.31217 0.28987 0.0
C2072 C 0.19371 0.31011 0.26913 0.0
C2073 C 0.19238 0.2921 0.25726 0.0
C2074 C 0.191 0.29042 0.23771 0.0
C2075 C 0.19083 0.30663 0.22989 0.0
C2076 C 0.19203 0.32455 0.24158 0.0
C2077 C 0.19341 0.32631 0.26113 0.0
H2078 H 0.18976 0.30529 0.21475 0.0
H2079 H 0.2022 0.32041 0.40431 0.0
H2080 H 0.94111 0.06066 0.20106 0.0
H2081 H 0.95378 0.05963 0.1706 0.0
H2082 H 0.00752 0.08104 0.19975 0.0
H2083 H 0.99493 0.08154 0.23002 0.0
H2084 H 0.00558 0.09772 0.1685 0.0
H2085 H 0.99114 0.03343 0.18016 0.0
H2086 H 0.97188 0.0035 0.18716 0.0
H2087 H 0.93659 0.99586 0.1366 0.0
H2088 H 0.95553 0.02594 0.12944 0.0
H2089 H 0.05477 0.07467 0.09013 0.0
H2090 H 0.04195 0.0786 0.11994 0.0
H2091 H 0.99008 0.04377 0.09207 0.0
H2092 H 0.00338 0.03868 0.06239 0.0
H2093 H 0.99076 0.03476 0.12312 0.0
H2094 H 0.006 0.09992 0.11142 0.0
H2095 H 0.02604 0.12977 0.10502 0.0
H2096 H 0.06032 0.13606 0.15597 0.0
H2097 H 0.0406 0.10613 0.16257 0.0
C2098 C 0.9556 0.06572 0.20106 0.0
C2099 C 0.96682 0.07171 0.21839 0.0
C2100 C 0.96295 0.06486 0.18346 0.0
C2101 C 0.98186 0.07015 0.18236 0.0
C2102 C 0.99298 0.07689 0.1997 0.0
C2103 C 0.98567 0.07732 0.21722 0.0
C2104 C 0.99008 0.06792 0.16346 0.0
C2105 C 0.00235 0.08387 0.15868 0.0
C2106 C 0.98609 0.05005 0.1501 0.0
C2107 C 0.97462 0.03206 0.15439 0.0
C2108 C 0.97917 0.02547 0.17063 0.0
C2109 C 0.96834 0.00846 0.17461 0.0
C2110 C 0.95298 0.99782 0.16237 0.0
C2111 C 0.94847 0.00414 0.1461 0.0
C2112 C 0.95925 0.02117 0.14206 0.0
C2113 C 0.04066 0.06776 0.09014 0.0
C2114 C 0.03042 0.05627 0.07329 0.0
C2115 C 0.03307 0.07028 0.10751 0.0
C2116 C 0.01458 0.06198 0.10893 0.0
C2117 C 0.0043 0.05055 0.09202 0.0
C2118 C 0.012 0.0477 0.07473 0.0
C2119 C 0.00611 0.06469 0.12777 0.0
C2120 C 0.99386 0.04875 0.13269 0.0
C2121 C 0.01014 0.08262 0.14126 0.0
C2122 C 0.0219 0.10069 0.13739 0.0
C2123 C 0.01786 0.10762 0.12121 0.0
C2124 C 0.02916 0.12456 0.11755 0.0
C2125 C 0.04447 0.13477 0.13005 0.0
C2126 C 0.04847 0.12812 0.14628 0.0
C2127 C 0.03723 0.11118 0.15 0.0
H2128 H 0.0532 0.14786 0.12718 0.0
H2129 H 0.94462 0.98463 0.16546 0.0
H2130 H 0.2708 0.64377 0.45633 0.0
H2131 H 0.27111 0.66275 0.43146 0.0
H2132 H 0.28559 0.71579 0.47376 0.0
H2133 H 0.28455 0.69686 0.49841 0.0
H2134 H 0.25919 0.71585 0.44832 0.0
H2135 H 0.31741 0.70015 0.44719 0.0
H2136 H 0.33496 0.6757 0.44532 0.0
H2137 H 0.3068 0.647 0.39081 0.0
H2138 H 0.28896 0.67118 0.39246 0.0
H2139 H 0.27524 0.78285 0.39224 0.0
H2140 H 0.2853 0.76528 0.41487 0.0
H2141 H 0.27316 0.71319 0.37153 0.0
H2142 H 0.2641 0.73124 0.34874 0.0
H2143 H 0.29878 0.71193 0.39703 0.0
H2144 H 0.24037 0.72514 0.39723 0.0
H2145 H 0.21901 0.74568 0.39904 0.0
H2146 H 0.24374 0.77543 0.45459 0.0
H2147 H 0.26541 0.75522 0.45301 0.0
C2148 C 0.27419 0.65948 0.46012 0.0
C2149 C 0.27778 0.66902 0.47903 0.0
C2150 C 0.27437 0.67027 0.44604 0.0
C2151 C 0.2786 0.69066 0.45084 0.0
C2152 C 0.2823 0.70008 0.46981 0.0
C2153 C 0.28179 0.68932 0.48382 0.0
C2154 C 0.27906 0.7024 0.43626 0.0
C2155 C 0.26806 0.71525 0.43728 0.0
C2156 C 0.29019 0.70104 0.42157 0.0
C2157 C 0.30189 0.68746 0.41994 0.0
C2158 C 0.31505 0.68868 0.43476 0.0
C2159 C 0.325 0.67484 0.43377 0.0
C2160 C 0.322 0.65981 0.41795 0.0
C2161 C 0.30914 0.65867 0.40303 0.0
C2162 C 0.29914 0.67248 0.40396 0.0
C2163 C 0.2755 0.76788 0.38748 0.0
C2164 C 0.26865 0.75804 0.36906 0.0
C2165 C 0.28113 0.75784 0.40034 0.0
C2166 C 0.2793 0.73778 0.39497 0.0
C2167 C 0.27442 0.72859 0.37599 0.0
C2168 C 0.26915 0.73876 0.36306 0.0
C2169 C 0.27928 0.72587 0.40942 0.0
C2170 C 0.29015 0.71279 0.40824 0.0
C2171 C 0.26776 0.72676 0.42388 0.0
C2172 C 0.25465 0.73883 0.42491 0.0
C2173 C 0.24133 0.73615 0.40978 0.0
C2174 C 0.22917 0.74773 0.41076 0.0
C2175 C 0.23007 0.7619 0.42688 0.0
C2176 C 0.24309 0.76448 0.44209 0.0
C2177 C 0.25532 0.75297 0.44116 0.0
H2178 H 0.22064 0.77085 0.42762 0.0
H2179 H 0.32963 0.64903 0.41726 0.0
H2180 H 0.63679 0.05919 0.69451 0.0
H2181 H 0.62007 0.04853 0.66316 0.0
H2182 H 0.64211 0.99875 0.65302 0.0
H2183 H 0.65916 0.0094 0.6843 0.0
H2184 H 0.63819 0.02162 0.62135 0.0
H2185 H 0.60498 0.98851 0.66776 0.0
H2186 H 0.59439 0.99099 0.69928 0.0
H2187 H 0.56599 0.03234 0.68725 0.0
H2188 H 0.57657 0.03025 0.65576 0.0
H2189 H 0.56968 0.99561 0.5456 0.0
H2190 H 0.58672 0.98776 0.57152 0.0
H2191 H 0.57047 0.03095 0.61098 0.0
H2192 H 0.55336 0.0385 0.5852 0.0
H2193 H 0.57223 1.00058 0.62576 0.0
H2194 H 0.60709 0.04392 0.59031 0.0
H2195 H 0.6205 0.05439 0.56271 0.0
H2196 H 0.64711 0.00835 0.55664 0.0
H2197 H 0.63342 0.99733 0.58397 0.0
C2198 C 0.6381 0.04603 0.68557 0.0
C2199 C 0.64878 0.03478 0.69181 0.0
C2200 C 0.6288 0.04014 0.66772 0.0
C2201 C 0.62991 0.02284 0.65624 0.0
C2202 C 0.64128 0.01213 0.66195 0.0
C2203 C 0.65076 0.01812 0.67976 0.0
C2204 C 0.61734 0.01486 0.63938 0.0
C2205 C 0.62379 0.01635 0.62203 0.0
C2206 C 0.59868 0.00879 0.64087 0.0
C2207 C 0.59146 0.0091 0.65938 0.0
C2208 C 0.59642 0.99806 0.67182 0.0
C2209 C 0.59046 0.99944 0.6897 0.0
C2210 C 0.57949 0.01178 0.69524 0.0
C2211 C 0.57442 0.02272 0.68291 0.0
C2212 C 0.58034 0.02139 0.66503 0.0
C2213 C 0.56942 0.00285 0.55998 0.0
C2214 C 0.56057 0.01758 0.56391 0.0
C2215 C 0.57899 0.99836 0.57458 0.0
C2216 C 0.57977 0.00885 0.5929 0.0
C2217 C 0.56975 0.02261 0.59685 0.0
C2218 C 0.56012 0.02698 0.58228 0.0
C2219 C 0.59294 0.00789 0.60764 0.0
C2220 C 0.58666 0.00468 0.62472 0.0
C2221 C 0.61169 0.01367 0.60608 0.0
C2222 C 0.61906 0.01962 0.58901 0.0
C2223 C 0.61556 0.03583 0.58291 0.0
C2224 C 0.62325 0.04191 0.56735 0.0
C2225 C 0.63468 0.03207 0.55796 0.0
C2226 C 0.63826 0.01597 0.56394 0.0
C2227 C 0.6305 0.00977 0.57942 0.0
H2228 H 0.64083 0.03698 0.54611 0.0
H2229 H 0.57495 0.01287 0.70911 0.0
H2230 H 0.30657 0.3767 0.9721 0.0
H2231 H 0.30602 0.36572 0.93835 0.0
H2232 H 0.27675 0.3079 0.94271 0.0
H2233 H 0.27902 0.31868 0.97704 0.0
H2234 H 0.30041 0.30409 0.92183 0.0
H2235 H 0.25762 0.34228 0.92054 0.0
H2236 H 0.24636 0.37141 0.92919 0.0
H2237 H 0.2905 0.40502 0.90594 0.0
H2238 H 0.30212 0.37617 0.89732 0.0
H2239 H 0.29308 0.27828 0.82005 0.0
H2240 H 0.28977 0.28307 0.85369 0.0
H2241 H 0.31666 0.34406 0.86013 0.0
H2242 H 0.31778 0.33956 0.82624 0.0
H2243 H 0.28873 0.34241 0.87475 0.0
H2244 H 0.33404 0.30431 0.88183 0.0
H2245 H 0.34529 0.27485 0.87588 0.0
H2246 H 0.29475 0.24046 0.88732 0.0
H2247 H 0.28342 0.26974 0.89408 0.0
C2248 C 0.29962 0.36177 0.96574 0.0
C2249 C 0.29255 0.34857 0.97697 0.0
C2250 C 0.29921 0.35548 0.94639 0.0
C2251 C 0.2909 0.33603 0.93772 0.0
C2252 C 0.28318 0.32298 0.94897 0.0
C2253 C 0.28428 0.32913 0.96851 0.0
C2254 C 0.29164 0.32913 0.91725 0.0
C2255 C 0.29761 0.31236 0.9115 0.0
C2256 C 0.28808 0.33983 0.90364 0.0
C2257 C 0.28076 0.35706 0.90833 0.0
C2258 C 0.26493 0.35589 0.91729 0.0
C2259 C 0.25849 0.37236 0.9222 0.0
C2260 C 0.26772 0.39005 0.91813 0.0
C2261 C 0.28335 0.3913 0.90906 0.0
C2262 C 0.28984 0.37489 0.90412 0.0
C2263 C 0.29872 0.29256 0.82883 0.0
C2264 C 0.3059 0.30855 0.82071 0.0
C2265 C 0.29692 0.29531 0.84814 0.0
C2266 C 0.30302 0.31397 0.85971 0.0
C2267 C 0.31159 0.32956 0.85162 0.0
C2268 C 0.31247 0.32698 0.83228 0.0
C2269 C 0.29867 0.31809 0.87952 0.0
C2270 C 0.29163 0.33417 0.88508 0.0
C2271 C 0.30113 0.30669 0.89287 0.0
C2272 C 0.30784 0.28913 0.88823 0.0
C2273 C 0.3253 0.29043 0.88294 0.0
C2274 C 0.3317 0.2738 0.87946 0.0
C2275 C 0.32066 0.25579 0.88091 0.0
C2276 C 0.30326 0.25439 0.88611 0.0
C2277 C 0.29689 0.27101 0.88991 0.0
H2278 H 0.32566 0.24295 0.87814 0.0
H2279 H 0.26274 0.4028 0.922 0.0
H2280 H 0.94362 0.0652 0.3376 0.0
H2281 H 0.95595 0.06105 0.36815 0.0
H2282 H 0.00949 0.07319 0.35066 0.0
H2283 H 0.99695 0.07617 0.31994 0.0
H2284 H 0.01035 0.04812 0.36791 0.0
H2285 H 0.99082 0.10442 0.3893 0.0
H2286 H 0.97043 0.12599 0.39357 0.0
H2287 H 0.93467 0.08527 0.41937 0.0
H2288 H 0.95475 0.06335 0.41506 0.0
H2289 H 0.05196 0.04868 0.46183 0.0
H2290 H 0.04224 0.05532 0.43129 0.0
H2291 H 0.98681 0.04019 0.44315 0.0
H2292 H 0.99664 0.0345 0.47372 0.0
H2293 H 0.98883 0.06898 0.42907 0.0
H2294 H 0.01029 0.01126 0.40195 0.0
H2295 H 0.03301 0.99272 0.39598 0.0
H2296 H 0.06966 0.04249 0.383 0.0
H2297 H 0.04677 0.06106 0.38799 0.0
C2298 C 0.9581 0.06762 0.34045 0.0
C2299 C 0.96919 0.0716 0.32608 0.0
C2300 C 0.9653 0.06515 0.35816 0.0
C2301 C 0.98402 0.0669 0.36255 0.0
C2302 C 0.99508 0.0715 0.34828 0.0
C2303 C 0.98785 0.07356 0.33054 0.0
C2304 C 0.99201 0.06312 0.38126 0.0
C2305 C 0.00562 0.05301 0.38122 0.0
C2306 C 0.98641 0.06917 0.39923 0.0
C2307 C 0.97418 0.08215 0.40165 0.0
C2308 C 0.97853 0.09999 0.39574 0.0
C2309 C 0.96705 0.1123 0.39819 0.0
C2310 C 0.95124 0.10698 0.40668 0.0
C2311 C 0.9469 0.08936 0.41276 0.0
C2312 C 0.95833 0.07699 0.41033 0.0
C2313 C 0.03767 0.04633 0.45776 0.0
C2314 C 0.02517 0.04078 0.47053 0.0
C2315 C 0.03196 0.05014 0.44002 0.0
C2316 C 0.01347 0.04829 0.43412 0.0
C2317 C 0.00111 0.0421 0.44679 0.0
C2318 C 0.0068 0.03859 0.46446 0.0
C2319 C 0.00674 0.0535 0.4156 0.0
C2320 C 0.99342 0.06401 0.41571 0.0
C2321 C 0.01304 0.0484 0.39781 0.0
C2322 C 0.02697 0.03757 0.3956 0.0
C2323 C 0.02326 0.01827 0.39798 0.0
C2324 C 0.03615 0.00775 0.39473 0.0
C2325 C 0.05292 0.0165 0.3895 0.0
C2326 C 0.05672 0.03575 0.38719 0.0
C2327 C 0.04374 0.04622 0.39005 0.0
H2328 H 0.06288 0.00832 0.38706 0.0
H2329 H 0.94237 0.11653 0.40858 0.0
H2330 H 0.26233 0.67458 0.56288 0.0
H2331 H 0.26127 0.67976 0.59695 0.0
H2332 H 0.31288 0.72242 0.6049 0.0
H2333 H 0.31436 0.71626 0.57098 0.0
H2334 H 0.30903 0.70765 0.63473 0.0
H2335 H 0.26955 0.73159 0.5936 0.0
H2336 H 0.24402 0.72806 0.56972 0.0
H2337 H 0.20763 0.69573 0.6021 0.0
H2338 H 0.233 0.69883 0.62601 0.0
H2339 H 0.30914 0.79075 0.69923 0.0
H2340 H 0.30536 0.76918 0.66844 0.0
H2341 H 0.25951 0.73004 0.68439 0.0
H2342 H 0.26358 0.75104 0.71534 0.0
H2343 H 0.2565 0.73501 0.64619 0.0
H2344 H 0.29544 0.71906 0.69094 0.0
H2345 H 0.32077 0.72626 0.71588 0.0
H2346 H 0.35822 0.74564 0.67753 0.0
H2347 H 0.33304 0.739 0.65245 0.0
C2348 C 0.27387 0.68419 0.57204 0.0
C2349 C 0.28847 0.69503 0.56456 0.0
C2350 C 0.27317 0.68733 0.59145 0.0
C2351 C 0.2867 0.70194 0.60337 0.0
C2352 C 0.30221 0.71116 0.59595 0.0
C2353 C 0.3031 0.70768 0.5766 0.0
C2354 C 0.28361 0.71024 0.62261 0.0
C2355 C 0.2975 0.71353 0.63726 0.0
C2356 C 0.26828 0.71747 0.62608 0.0
C2357 C 0.2532 0.71512 0.61138 0.0
C2358 C 0.25614 0.72354 0.5955 0.0
C2359 C 0.24169 0.72165 0.58198 0.0
C2360 C 0.22423 0.7116 0.58434 0.0
C2361 C 0.22117 0.70342 0.60023 0.0
C2362 C 0.23558 0.7052 0.61374 0.0
C2363 C 0.29826 0.77765 0.69619 0.0
C2364 C 0.2874 0.77204 0.71005 0.0
C2365 C 0.29604 0.76541 0.67859 0.0
C2366 C 0.28258 0.74779 0.67462 0.0
C2367 C 0.2702 0.74343 0.68749 0.0
C2368 C 0.27261 0.75548 0.70515 0.0
C2369 C 0.28236 0.73326 0.65767 0.0
C2370 C 0.26779 0.72869 0.64372 0.0
C2371 C 0.29707 0.72499 0.65484 0.0
C2372 C 0.31231 0.72865 0.66982 0.0
C2373 C 0.30905 0.72501 0.68785 0.0
C2374 C 0.3234 0.729 0.70203 0.0
C2375 C 0.3411 0.73641 0.6983 0.0
C2376 C 0.34449 0.73989 0.6804 0.0
C2377 C 0.33018 0.73601 0.66619 0.0
H2378 H 0.35221 0.73941 0.70925 0.0
H2379 H 0.21306 0.71021 0.5739 0.0
H2380 H 0.68009 0.07163 0.807 0.0
H2381 H 0.66547 0.06755 0.83556 0.0
H2382 H 0.62902 0.01379 0.80541 0.0
H2383 H 0.64398 0.0174 0.77699 0.0
H2384 H 0.61601 0.05032 0.82207 0.0
H2385 H 0.64814 0.00453 0.83531 0.0
H2386 H 0.6759 0.99356 0.83843 0.0
H2387 H 0.69855 0.04189 0.8842 0.0
H2388 H 0.67102 0.05337 0.88112 0.0
H2389 H 0.56323 0.04338 0.89321 0.0
H2390 H 0.58359 0.02923 0.87413 0.0
H2391 H 0.62769 0.07952 0.89738 0.0
H2392 H 0.60728 0.09379 0.91666 0.0
H2393 H 0.63602 0.03887 0.88444 0.0
H2394 H 0.6099 0.08886 0.866 0.0
H2395 H 0.58431 0.10344 0.86311 0.0
H2396 H 0.55302 0.05085 0.82646 0.0
H2397 H 0.57831 0.03574 0.82966 0.0
C2398 C 0.66925 0.05874 0.80668 0.0
C2399 C 0.66297 0.04486 0.79003 0.0
C2400 C 0.6611 0.05634 0.82292 0.0
C2401 C 0.64646 0.04027 0.82238 0.0
C2402 C 0.64058 0.02604 0.80594 0.0
C2403 C 0.64903 0.02818 0.78984 0.0
C2404 C 0.63537 0.04045 0.83785 0.0
C2405 C 0.62006 0.0473 0.83556 0.0
C2406 C 0.64129 0.03714 0.85542 0.0
C2407 C 0.65755 0.02987 0.85791 0.0
C2408 C 0.65907 0.01288 0.84599 0.0
C2409 C 0.67476 0.00656 0.84775 0.0
C2410 C 0.68899 0.01703 0.86149 0.0
C2411 C 0.68751 0.03379 0.87357 0.0
C2412 C 0.67184 0.04019 0.87184 0.0
C2413 C 0.57735 0.05122 0.89443 0.0
C2414 C 0.58373 0.0699 0.90567 0.0
C2415 C 0.58897 0.04297 0.88394 0.0
C2416 C 0.60699 0.05341 0.88453 0.0
C2417 C 0.6138 0.07129 0.89703 0.0
C2418 C 0.60211 0.07964 0.90751 0.0
C2419 C 0.61668 0.04864 0.86852 0.0
C2420 C 0.63173 0.04127 0.87077 0.0
C2421 C 0.61085 0.05186 0.85084 0.0
C2422 C 0.59585 0.06108 0.84831 0.0
C2423 C 0.59749 0.08034 0.85749 0.0
C2424 C 0.58305 0.0887 0.8558 0.0
C2425 C 0.56702 0.07805 0.84466 0.0
C2426 C 0.56543 0.05904 0.83514 0.0
C2427 C 0.57979 0.05056 0.83692 0.0
H2428 H 0.55585 0.08455 0.84335 0.0
H2429 H 0.70116 0.01216 0.86279 0.0
H2430 H 0.26484 0.34654 0.07136 0.0
H2431 H 0.25638 0.33375 0.09961 0.0
H2432 H 0.31285 0.34788 0.12094 0.0
H2433 H 0.32116 0.35933 0.0924 0.0
H2434 H 0.29894 0.31426 0.12496 0.0
H2435 H 0.28067 0.37399 0.13867 0.0
H2436 H 0.26385 0.39811 0.13435 0.0
H2437 H 0.21361 0.35532 0.1325 0.0
H2438 H 0.23015 0.33092 0.13667 0.0
H2439 H 0.30264 0.32669 0.22258 0.0
H2440 H 0.30026 0.33438 0.19155 0.0
H2441 H 0.24908 0.29139 0.17679 0.0
H2442 H 0.25133 0.28344 0.20814 0.0
H2443 H 0.2548 0.33293 0.16677 0.0
H2444 H 0.27755 0.27536 0.15945 0.0
H2445 H 0.29776 0.25611 0.16868 0.0
H2446 H 0.34405 0.30091 0.16262 0.0
H2447 H 0.32414 0.32057 0.15364 0.0
C2448 C 0.27532 0.34702 0.08225 0.0
C2449 C 0.29361 0.35376 0.07982 0.0
C2450 C 0.27052 0.33979 0.09839 0.0
C2451 C 0.28397 0.33981 0.11247 0.0
C2452 C 0.3022 0.3474 0.11022 0.0
C2453 C 0.30696 0.35405 0.09397 0.0
C2454 C 0.2795 0.33124 0.12923 0.0
C2455 C 0.28929 0.31844 0.13406 0.0
C2456 C 0.26656 0.33616 0.14095 0.0
C2457 C 0.25663 0.35057 0.13765 0.0
C2458 C 0.26603 0.36967 0.13707 0.0
C2459 C 0.25655 0.38341 0.13474 0.0
C2460 C 0.23767 0.37823 0.13306 0.0
C2461 C 0.22823 0.3593 0.13374 0.0
C2462 C 0.23765 0.34551 0.13609 0.0
C2463 C 0.29081 0.31879 0.21288 0.0
C2464 C 0.27759 0.30367 0.21755 0.0
C2465 C 0.28949 0.32329 0.19512 0.0
C2466 C 0.27476 0.31307 0.18183 0.0
C2467 C 0.26072 0.29914 0.18685 0.0
C2468 C 0.26213 0.29448 0.20466 0.0
C2469 C 0.27472 0.31676 0.16257 0.0
C2470 C 0.26408 0.32849 0.1573 0.0
C2471 C 0.28733 0.31144 0.15074 0.0
C2472 C 0.29932 0.2995 0.15599 0.0
C2473 C 0.29204 0.28118 0.16024 0.0
C2474 C 0.30345 0.27018 0.16539 0.0
C2475 C 0.32218 0.27729 0.16626 0.0
C2476 C 0.32954 0.29541 0.16194 0.0
C2477 C 0.31819 0.30648 0.15679 0.0
H2478 H 0.33099 0.26875 0.17026 0.0
H2479 H 0.23036 0.3889 0.1313 0.0
H2480 H 0.25958 0.94637 0.97998 0.0
H2481 H 0.23489 0.962 0.98524 0.0
H2482 H 0.25883 0.98729 0.04249 0.0
H2483 H 0.2828 0.97086 0.03755 0.0
H2484 H 0.22429 0.97219 0.04198 0.0
H2485 H 0.2619 0.01522 0.00715 0.0
H2486 H 0.27866 0.02054 0.97985 0.0
H2487 H 0.22968 0.99508 0.94249 0.0
H2488 H 0.21265 0.98957 0.96961 0.0
H2489 H 0.19214 0.06217 0.05339 0.0
H2490 H 0.21262 0.04219 0.04333 0.0
H2491 H 0.16714 0.99246 0.02377 0.0
H2492 H 0.14667 0.0116 0.0352 0.0
H2493 H 0.20944 0.017 0.00296 0.0
H2494 H 0.17415 0.96867 0.04052 0.0
H2495 H 0.15971 0.9643 0.06941 0.0
H2496 H 0.20742 0.00194 0.10317 0.0
H2497 H 0.22193 0.00687 0.07439 0.0
C2498 C 0.25955 0.95545 0.99356 0.0
C2499 C 0.27285 0.95749 0.0084 0.0
C2500 C 0.24554 0.96433 0.99657 0.0
C2501 C 0.24513 0.9758 0.01424 0.0
C2502 C 0.25883 0.97832 0.02883 0.0
C2503 C 0.27252 0.96907 0.02598 0.0
C2504 C 0.23039 0.98513 0.01781 0.0
C2505 C 0.221 0.98189 0.03336 0.0
C2506 C 0.22606 0.99767 0.00652 0.0
C2507 C 0.23604 0.00198 0.99035 0.0
C2508 C 0.25472 0.01084 0.99311 0.0
C2509 C 0.26426 0.01386 0.97768 0.0
C2510 C 0.25524 0.00814 0.95945 0.0
C2511 C 0.23663 0.99953 0.95662 0.0
C2512 C 0.22702 0.99652 0.97201 0.0
C2513 C 0.1865 0.0469 0.04731 0.0
C2514 C 0.16775 0.03856 0.04503 0.0
C2515 C 0.19818 0.03562 0.04137 0.0
C2516 C 0.19125 0.01597 0.03295 0.0
C2517 C 0.17263 0.00759 0.03047 0.0
C2518 C 0.16098 0.01868 0.03678 0.0
C2519 C 0.20361 0.00414 0.02715 0.0
C2520 C 0.21255 0.00696 0.01126 0.0
C2521 C 0.20765 0.9913 0.03816 0.0
C2522 C 0.19895 0.9884 0.05538 0.0
C2523 C 0.18144 0.9762 0.05411 0.0
C2524 C 0.17326 0.9736 0.07045 0.0
C2525 C 0.18261 0.98292 0.08812 0.0
C2526 C 0.20016 0.99482 0.08948 0.0
C2527 C 0.20834 0.99757 0.07316 0.0
H2528 H 0.17628 0.98085 0.10076 0.0
H2529 H 0.26267 0.01039 0.94751 0.0
H2530 H 0.72738 0.67522 0.98202 0.0
H2531 H 0.69842 0.65185 0.98104 0.0
H2532 H 0.72428 0.61762 0.01072 0.0
H2533 H 0.75373 0.64119 0.01168 0.0
H2534 H 0.69548 0.5953 0.9812 0.0
H2535 H 0.70568 0.64758 0.03546 0.0
H2536 H 0.71349 0.6819 0.05189 0.0
H2537 H 0.66893 0.6912 0.01943 0.0
H2538 H 0.66106 0.65703 0.00254 0.0
H2539 H 0.61355 0.54482 0.01052 0.0
H2540 H 0.64422 0.56265 0.00749 0.0
H2541 H 0.62371 0.6084 0.99119 0.0
H2542 H 0.59298 0.59078 0.99512 0.0
H2543 H 0.65103 0.62399 0.01478 0.0
H2544 H 0.64074 0.57354 0.9596 0.0
H2545 H 0.63227 0.53976 0.94163 0.0
H2546 H 0.67574 0.52747 0.97314 0.0
H2547 H 0.68429 0.5611 0.99151 0.0
C2548 C 0.72704 0.66258 0.98812 0.0
C2549 C 0.74283 0.6602 0.99718 0.0
C2550 C 0.71043 0.64924 0.98754 0.0
C2551 C 0.70913 0.63323 0.99614 0.0
C2552 C 0.72501 0.62997 0.00409 0.0
C2553 C 0.7418 0.6434 0.0046 0.0
C2554 C 0.69097 0.62101 0.99794 0.0
C2555 C 0.6858 0.60142 0.98876 0.0
C2556 C 0.6782 0.62921 0.00736 0.0
C2557 C 0.68288 0.64977 0.01761 0.0
C2558 C 0.69764 0.65698 0.0317 0.0
C2559 C 0.70207 0.67641 0.04111 0.0
C2560 C 0.69174 0.68873 0.03667 0.0
C2561 C 0.67694 0.68165 0.02283 0.0
C2562 C 0.67249 0.66225 0.01334 0.0
C2563 C 0.61555 0.55842 0.0058 0.0
C2564 C 0.6009 0.56622 0.00259 0.0
C2565 C 0.63313 0.56867 0.0041 0.0
C2566 C 0.63639 0.58676 0.9987 0.0
C2567 C 0.62163 0.59446 0.99531 0.0
C2568 C 0.60407 0.58438 0.99745 0.0
C2569 C 0.65521 0.59819 0.99772 0.0
C2570 C 0.66059 0.61771 0.00716 0.0
C2571 C 0.66802 0.58996 0.98827 0.0
C2572 C 0.66305 0.5698 0.97706 0.0
C2573 C 0.64842 0.5636 0.96278 0.0
C2574 C 0.64361 0.54448 0.95252 0.0
C2575 C 0.65343 0.53147 0.95628 0.0
C2576 C 0.66812 0.53756 0.97026 0.0
C2577 C 0.67297 0.55666 0.9806 0.0
H2578 H 0.64967 0.51667 0.94833 0.0
H2579 H 0.69519 0.70376 0.04399 0.0
H2580 H 0.71609 0.46876 0.25795 0.0
H2581 H 0.73478 0.44538 0.25767 0.0
H2582 H 0.69174 0.40608 0.2773 0.0
H2583 H 0.67353 0.42913 0.27791 0.0
H2584 H 0.71883 0.40278 0.29491 0.0
H2585 H 0.70872 0.40081 0.22856 0.0
H2586 H 0.70986 0.41391 0.19948 0.0
H2587 H 0.76772 0.43352 0.20996 0.0
H2588 H 0.7669 0.42073 0.23923 0.0
H2589 H 0.7528 0.31974 0.28844 0.0
H2590 H 0.73601 0.34287 0.28345 0.0
H2591 H 0.77995 0.3738 0.2577 0.0
H2592 H 0.79559 0.34839 0.25995 0.0
H2593 H 0.75453 0.3836 0.24383 0.0
H2594 H 0.76412 0.38629 0.31111 0.0
H2595 H 0.76242 0.37204 0.33955 0.0
H2596 H 0.70477 0.35105 0.32699 0.0
H2597 H 0.70615 0.36507 0.29845 0.0
C2598 C 0.71051 0.45514 0.26216 0.0
C2599 C 0.69289 0.45142 0.26801 0.0
C2600 C 0.72132 0.44143 0.26189 0.0
C2601 C 0.71512 0.4232 0.26739 0.0
C2602 C 0.69751 0.41965 0.27306 0.0
C2603 C 0.68684 0.43317 0.27333 0.0
C2604 C 0.72652 0.40802 0.268 0.0
C2605 C 0.72641 0.39862 0.28348 0.0
C2606 C 0.73722 0.4022 0.25368 0.0
C2607 C 0.73773 0.41003 0.2362 0.0
C2608 C 0.72168 0.40807 0.22475 0.0
C2609 C 0.72226 0.4154 0.20821 0.0
C2610 C 0.73885 0.4246 0.20291 0.0
C2611 C 0.75488 0.42644 0.21411 0.0
C2612 C 0.75436 0.41914 0.23067 0.0
C2613 C 0.75916 0.33135 0.28162 0.0
C2614 C 0.77644 0.33199 0.27544 0.0
C2615 C 0.74944 0.34526 0.27913 0.0
C2616 C 0.7567 0.36177 0.2714 0.0
C2617 C 0.77365 0.36202 0.26433 0.0
C2618 C 0.78302 0.34734 0.26594 0.0
C2619 C 0.74664 0.37819 0.27072 0.0
C2620 C 0.74702 0.38783 0.25528 0.0
C2621 C 0.73614 0.38436 0.28512 0.0
C2622 C 0.73526 0.37664 0.30264 0.0
C2623 C 0.75109 0.37868 0.31447 0.0
C2624 C 0.75018 0.37061 0.33058 0.0
C2625 C 0.7335 0.36062 0.33506 0.0
C2626 C 0.71768 0.35879 0.32351 0.0
C2627 C 0.71851 0.36683 0.3074 0.0
H2628 H 0.73283 0.35431 0.34748 0.0
H2629 H 0.73927 0.43026 0.19009 0.0
H2630 H 0.87222 0.50019 0.55468 0.0
H2631 H 0.90084 0.51423 0.54349 0.0
H2632 H 0.87851 0.484 0.48679 0.0
H2633 H 0.84958 0.47354 0.49745 0.0
H2634 H 0.91753 0.49059 0.53518 0.0
H2635 H 0.9068 0.48598 0.45508 0.0
H2636 H 0.88699 0.49479 0.43203 0.0
H2637 H 0.88136 0.54234 0.47393 0.0
H2638 H 0.90129 0.53392 0.49721 0.0
H2639 H 0.99991 0.48098 0.50172 0.0
H2640 H 0.96661 0.4715 0.49576 0.0
H2641 H 0.96669 0.53197 0.50434 0.0
H2642 H 0.99892 0.54122 0.51148 0.0
H2643 H 0.93881 0.50528 0.47507 0.0
H2644 H 0.96364 0.52092 0.54361 0.0
H2645 H 0.98562 0.51626 0.56742 0.0
H2646 H 0.96522 0.45438 0.55006 0.0
H2647 H 0.94311 0.45875 0.52607 0.0
C2648 C 0.8731 0.49826 0.53966 0.0
C2649 C 0.859 0.48551 0.52693 0.0
C2650 C 0.88955 0.50583 0.53324 0.0
C2651 C 0.8922 0.49963 0.51433 0.0
C2652 C 0.87713 0.48947 0.50133 0.0
C2653 C 0.86037 0.48335 0.50754 0.0
C2654 C 0.91063 0.49964 0.50939 0.0
C2655 C 0.92199 0.49398 0.52203 0.0
C2656 C 0.91657 0.50327 0.49196 0.0
C2657 C 0.90546 0.50926 0.47789 0.0
C2658 C 0.9015 0.49845 0.45931 0.0
C2659 C 0.89019 0.50332 0.44623 0.0
C2660 C 0.8829 0.51909 0.45152 0.0
C2661 C 0.887 0.53011 0.46987 0.0
C2662 C 0.89829 0.52529 0.48302 0.0
C2663 C 0.99269 0.49208 0.5019 0.0
C2664 C 0.00196 0.51182 0.50648 0.0
C2665 C 0.97386 0.4867 0.49822 0.0
C2666 C 0.96446 0.50112 0.49912 0.0
C2667 C 0.97383 0.5207 0.50298 0.0
C2668 C 0.99235 0.52598 0.50712 0.0
C2669 C 0.94519 0.49684 0.50102 0.0
C2670 C 0.93378 0.50161 0.48794 0.0
C2671 C 0.93928 0.49298 0.5182 0.0
C2672 C 0.95172 0.49015 0.53321 0.0
C2673 C 0.96378 0.50634 0.54501 0.0
C2674 C 0.9763 0.50375 0.55846 0.0
C2675 C 0.97682 0.48504 0.56028 0.0
C2676 C 0.96477 0.46887 0.54867 0.0
C2677 C 0.95222 0.47138 0.53516 0.0
H2678 H 0.98658 0.48308 0.57066 0.0
H2679 H 0.87407 0.52278 0.4414 0.0
H2680 H 0.41204 0.10173 0.28777 0.0
H2681 H 0.39214 0.12106 0.27898 0.0
H2682 H 0.35048 0.09084 0.30815 0.0
H2683 H 0.37036 0.07148 0.31714 0.0
H2684 H 0.34123 0.09011 0.268 0.0
H2685 H 0.36762 0.13478 0.32665 0.0
H2686 H 0.39456 0.15317 0.34865 0.0
H2687 H 0.41468 0.18529 0.30681 0.0
H2688 H 0.38794 0.16687 0.28444 0.0
H2689 H 0.27753 0.1418 0.25184 0.0
H2690 H 0.29812 0.12688 0.26734 0.0
H2691 H 0.3436 0.16402 0.2485 0.0
H2692 H 0.32305 0.17925 0.23336 0.0
H2693 H 0.35105 0.16169 0.28473 0.0
H2694 H 0.32886 0.11825 0.22596 0.0
H2695 H 0.30498 0.09913 0.20066 0.0
H2696 H 0.28046 0.06423 0.23872 0.0
H2697 H 0.30411 0.08335 0.26434 0.0
C2698 C 0.39882 0.09961 0.29275 0.0
C2699 C 0.39265 0.08515 0.30307 0.0
C2700 C 0.3875 0.11057 0.28768 0.0
C2701 C 0.36992 0.10715 0.29287 0.0
C2702 C 0.36406 0.09352 0.30405 0.0
C2703 C 0.37546 0.08267 0.30932 0.0
C2704 C 0.35731 0.11692 0.28541 0.0
C2705 C 0.34306 0.10569 0.27194 0.0
C2706 C 0.36043 0.13729 0.29001 0.0
C2707 C 0.37577 0.14946 0.30388 0.0
C2708 C 0.37776 0.14582 0.32217 0.0
C2709 C 0.39301 0.1562 0.33468 0.0
C2710 C 0.40632 0.17039 0.32913 0.0
C2711 C 0.40433 0.17432 0.31109 0.0
C2712 C 0.3891 0.16395 0.29851 0.0
C2713 C 0.29188 0.14647 0.25077 0.0
C2714 C 0.29877 0.16138 0.24127 0.0
C2715 C 0.30362 0.13815 0.25975 0.0
C2716 C 0.32234 0.14438 0.25899 0.0
C2717 C 0.32922 0.15916 0.24933 0.0
C2718 C 0.3175 0.16762 0.24053 0.0
C2719 C 0.33461 0.13479 0.26758 0.0
C2720 C 0.34895 0.14606 0.28104 0.0
C2721 C 0.33191 0.11445 0.26263 0.0
C2722 C 0.31817 0.10229 0.24709 0.0
C2723 C 0.31836 0.10651 0.22894 0.0
C2724 C 0.30486 0.0957 0.21455 0.0
C2725 C 0.29119 0.0805 0.21809 0.0
C2726 C 0.29106 0.07601 0.236 0.0
C2727 C 0.30453 0.08681 0.25046 0.0
H2728 H 0.2807 0.07219 0.20695 0.0
H2729 H 0.41818 0.17834 0.3388 0.0
H2730 H 0.3253 0.14545 0.50518 0.0
H2731 H 0.34647 0.12552 0.50761 0.0
H2732 H 0.39072 0.17367 0.50295 0.0
H2733 H 0.36956 0.19353 0.5 0.0
H2734 H 0.39622 0.14087 0.48428 0.0
H2735 H 0.38119 0.16253 0.54594 0.0
H2736 H 0.36127 0.16773 0.57064 0.0
H2737 H 0.33937 0.10609 0.56345 0.0
H2738 H 0.35895 0.10053 0.53849 0.0
H2739 H 0.46346 0.10109 0.52613 0.0
H2740 H 0.44444 0.12189 0.51822 0.0
H2741 H 0.39669 0.07576 0.51806 0.0
H2742 H 0.41545 0.05495 0.52565 0.0
H2743 H 0.39478 0.10942 0.53956 0.0
H2744 H 0.41018 0.08833 0.47697 0.0
H2745 H 0.43144 0.08402 0.45345 0.0
H2746 H 0.45474 0.14566 0.46433 0.0
H2747 H 0.43355 0.15036 0.48785 0.0
C2748 C 0.33952 0.15179 0.50457 0.0
C2749 C 0.34572 0.17119 0.50263 0.0
C2750 C 0.35165 0.14038 0.506 0.0
C2751 C 0.3703 0.14817 0.50583 0.0
C2752 C 0.37644 0.16731 0.50319 0.0
C2753 C 0.3643 0.17869 0.50161 0.0
C2754 C 0.3834 0.13667 0.50934 0.0
C2755 C 0.39602 0.13417 0.49647 0.0
C2756 C 0.38322 0.12783 0.52521 0.0
C2757 C 0.37141 0.13113 0.54021 0.0
C2758 C 0.37202 0.15009 0.54952 0.0
C2759 C 0.3608 0.1531 0.56358 0.0
C2760 C 0.34903 0.13725 0.56858 0.0
C2761 C 0.34847 0.11835 0.55955 0.0
C2762 C 0.35963 0.11526 0.54544 0.0
C2763 C 0.44891 0.09532 0.5242 0.0
C2764 C 0.44098 0.07644 0.52685 0.0
C2765 C 0.43806 0.10722 0.51965 0.0
C2766 C 0.41911 0.10041 0.5176 0.0
C2767 C 0.41126 0.08141 0.51974 0.0
C2768 C 0.42203 0.06957 0.52422 0.0
C2769 C 0.40724 0.1132 0.5143 0.0
C2770 C 0.39494 0.11608 0.52733 0.0
C2771 C 0.40789 0.12247 0.49871 0.0
C2772 C 0.42039 0.11968 0.4843 0.0
C2773 C 0.41989 0.10096 0.4744 0.0
C2774 C 0.43191 0.09845 0.46106 0.0
C2775 C 0.44452 0.11453 0.45751 0.0
C2776 C 0.445 0.1332 0.46714 0.0
C2777 C 0.43293 0.13581 0.48042 0.0
H2778 H 0.45388 0.11253 0.44725 0.0
H2779 H 0.34037 0.13961 0.57948 0.0
H2780 H 0.7171 0.56587 0.28903 0.0
H2781 H 0.73663 0.59907 0.29125 0.0
H2782 H 0.69643 0.61136 0.25474 0.0
H2783 H 0.67717 0.57878 0.25264 0.0
H2784 H 0.72798 0.62662 0.24483 0.0
H2785 H 0.70242 0.62875 0.30277 0.0
H2786 H 0.69488 0.61957 0.33292 0.0
H2787 H 0.75131 0.63442 0.35305 0.0
H2788 H 0.7592 0.64342 0.32286 0.0
H2789 H 0.75158 0.72992 0.26201 0.0
H2790 H 0.73654 0.69605 0.26157 0.0
H2791 H 0.78311 0.69058 0.29412 0.0
H2792 H 0.79837 0.72477 0.29465 0.0
H2793 H 0.75077 0.67137 0.30637 0.0
H2794 H 0.77484 0.6718 0.24677 0.0
H2795 H 0.77962 0.68273 0.21681 0.0
H2796 H 0.72244 0.6643 0.19994 0.0
H2797 H 0.71728 0.65355 0.22994 0.0
C2798 C 0.71256 0.57556 0.28128 0.0
C2799 C 0.69543 0.56937 0.27062 0.0
C2800 C 0.72369 0.59472 0.28269 0.0
C2801 C 0.71814 0.60818 0.27328 0.0
C2802 C 0.7013 0.60164 0.2622 0.0
C2803 C 0.69019 0.5828 0.26103 0.0
C2804 C 0.7294 0.62904 0.27488 0.0
C2805 C 0.73285 0.63632 0.25836 0.0
C2806 C 0.73605 0.64212 0.2924 0.0
C2807 C 0.73142 0.63647 0.31045 0.0
C2808 C 0.71324 0.62983 0.31354 0.0
C2809 C 0.70889 0.62471 0.33065 0.0
C2810 C 0.72261 0.62633 0.34487 0.0
C2811 C 0.7407 0.63311 0.342 0.0
C2812 C 0.74512 0.63822 0.32489 0.0
C2813 C 0.7588 0.72167 0.2691 0.0
C2814 C 0.77654 0.73041 0.27809 0.0
C2815 C 0.75007 0.70206 0.2688 0.0
C2816 C 0.7586 0.69026 0.27755 0.0
C2817 C 0.77608 0.69906 0.2871 0.0
C2818 C 0.78493 0.71873 0.28728 0.0
C2819 C 0.74933 0.66884 0.27633 0.0
C2820 C 0.74615 0.66153 0.29288 0.0
C2821 C 0.74258 0.65579 0.25882 0.0
C2822 C 0.74567 0.66201 0.24067 0.0
C2823 C 0.76327 0.67019 0.23672 0.0
C2824 C 0.76605 0.67635 0.21973 0.0
C2825 C 0.75134 0.67425 0.2065 0.0
C2826 C 0.73382 0.66594 0.21021 0.0
C2827 C 0.73096 0.6598 0.2272 0.0
H2828 H 0.75352 0.67903 0.19335 0.0
H2829 H 0.71923 0.62239 0.35812 0.0
H2830 H 0.88135 0.50589 0.78982 0.0
H2831 H 0.85551 0.48018 0.79398 0.0
H2832 H 0.87401 0.43846 0.75528 0.0
H2833 H 0.9003 0.46399 0.75155 0.0
H2834 H 0.83572 0.43462 0.75105 0.0
H2835 H 0.88685 0.44395 0.79786 0.0
H2836 H 0.90937 0.45996 0.82533 0.0
H2837 H 0.86688 0.46597 0.8598 0.0
H2838 H 0.84408 0.45037 0.83238 0.0
H2839 H 0.84777 0.3502 0.78485 0.0
H2840 H 0.85294 0.38513 0.78681 0.0
H2841 H 0.79537 0.37822 0.77828 0.0
H2842 H 0.7903 0.34307 0.77443 0.0
H2843 H 0.84076 0.41251 0.81141 0.0
H2844 H 0.78944 0.40026 0.75823 0.0
H2845 H 0.77171 0.37946 0.72902 0.0
H2846 H 0.82084 0.37531 0.70541 0.0
H2847 H 0.83871 0.39542 0.73464 0.0
C2848 C 0.87959 0.49135 0.78169 0.0
C2849 C 0.89273 0.48686 0.77022 0.0
C2850 C 0.86493 0.47672 0.78426 0.0
C2851 C 0.86304 0.45757 0.77503 0.0
C2852 C 0.87536 0.45328 0.76248 0.0
C2853 C 0.89027 0.46781 0.76027 0.0
C2854 C 0.84913 0.44153 0.77928 0.0
C2855 C 0.83644 0.43001 0.76442 0.0
C2856 C 0.85002 0.43576 0.79685 0.0
C2857 C 0.86377 0.44659 0.8129 0.0
C2858 C 0.8823 0.44918 0.81115 0.0
C2859 C 0.89513 0.45804 0.82676 0.0
C2860 C 0.88957 0.46414 0.84426 0.0
C2861 C 0.87118 0.46141 0.84619 0.0
C2862 C 0.8583 0.45263 0.83061 0.0
C2863 C 0.83627 0.35618 0.78329 0.0
C2864 C 0.81866 0.34417 0.78 0.0
C2865 C 0.83917 0.37607 0.78458 0.0
C2866 C 0.8245 0.38419 0.78264 0.0
C2867 C 0.80686 0.3722 0.77945 0.0
C2868 C 0.80399 0.3522 0.77762 0.0
C2869 C 0.82834 0.40508 0.78277 0.0
C2870 C 0.83909 0.41776 0.7985 0.0
C2871 C 0.82611 0.41171 0.76589 0.0
C2872 C 0.81534 0.39892 0.7487 0.0
C2873 C 0.79639 0.39457 0.74689 0.0
C2874 C 0.78632 0.3829 0.73033 0.0
C2875 C 0.79512 0.37585 0.7154 0.0
C2876 C 0.81398 0.38043 0.71704 0.0
C2877 C 0.82409 0.3919 0.73361 0.0
H2878 H 0.78732 0.36697 0.70253 0.0
H2879 H 0.89951 0.47086 0.85636 0.0
H2880 H 0.05397 0.84776 0.07832 0.0
H2881 H 0.04717 0.87514 0.06608 0.0
H2882 H 0.10415 0.90212 0.06914 0.0
H2883 H 0.11101 0.87467 0.08059 0.0
H2884 H 0.07311 0.92316 0.08868 0.0
H2885 H 0.0952 0.89109 0.03222 0.0
H2886 H 0.0934 0.86279 0.00689 0.0
H2887 H 0.03845 0.86094 0.98946 0.0
H2888 H 0.03982 0.889 0.01499 0.0
H2889 H 0.08357 0.00994 0.06073 0.0
H2890 H 0.08802 0.97924 0.06494 0.0
H2891 H 0.04553 0.9493 0.02018 0.0
H2892 H 0.04417 0.9808 0.01299 0.0
H2893 H 0.06432 0.92679 0.02133 0.0
H2894 H 0.0414 0.95931 0.07435 0.0
H2895 H 0.04115 0.98713 0.09946 0.0
H2896 H 0.09332 0.98677 0.1241 0.0
H2897 H 0.09396 0.95909 0.09905 0.0
C2898 C 0.06502 0.85952 0.07632 0.0
C2899 C 0.08304 0.859 0.08043 0.0
C2900 C 0.06112 0.87508 0.06921 0.0
C2901 C 0.07516 0.89056 0.06641 0.0
C2902 C 0.0931 0.89021 0.07086 0.0
C2903 C 0.09699 0.87451 0.07747 0.0
C2904 C 0.07136 0.90785 0.06017 0.0
C2905 C 0.07123 0.92401 0.07397 0.0
C2906 C 0.0683 0.90876 0.04097 0.0
C2907 C 0.06751 0.89189 0.02573 0.0
C2908 C 0.08264 0.88445 0.0232 0.0
C2909 C 0.08172 0.8685 0.00875 0.0
C2910 C 0.06579 0.86001 0.99663 0.0
C2911 C 0.05076 0.86748 0.9989 0.0
C2912 C 0.0516 0.88339 0.01336 0.0
C2913 C 0.07511 0.99694 0.05155 0.0
C2914 C 0.06223 0.99805 0.0374 0.0
C2915 C 0.07748 0.97914 0.0543 0.0
C2916 C 0.06597 0.96156 0.04421 0.0
C2917 C 0.05408 0.96249 0.02896 0.0
C2918 C 0.05281 0.98059 0.02515 0.0
C2919 C 0.06653 0.94265 0.04992 0.0
C2920 C 0.06596 0.92608 0.03609 0.0
C2921 C 0.06853 0.94115 0.0692 0.0
C2922 C 0.06772 0.95714 0.08481 0.0
C2923 C 0.05277 0.96512 0.08517 0.0
C2924 C 0.05259 0.9809 0.09936 0.0
C2925 C 0.06721 0.98871 0.11336 0.0
C2926 C 0.08199 0.98068 0.11327 0.0
C2927 C 0.08225 0.96492 0.09911 0.0
H2928 H 0.06708 1.00098 0.12428 0.0
H2929 H 0.06511 0.84769 0.98543 0.0
H2930 H 0.97754 0.26652 0.87599 0.0
H2931 H 0.95217 0.27071 0.85616 0.0
H2932 H 0.91912 0.26585 0.90183 0.0
H2933 H 0.94372 0.26094 0.9211 0.0
H2934 H 0.89967 0.24649 0.87221 0.0
H2935 H 0.94021 0.31098 0.88792 0.0
H2936 H 0.96909 0.33553 0.88904 0.0
H2937 H 0.9656 0.32274 0.82866 0.0
H2938 H 0.93678 0.29795 0.8272 0.0
H2939 H 0.82735 0.28437 0.84122 0.0
H2940 H 0.8538 0.28013 0.85911 0.0
H2941 H 0.8826 0.28126 0.8101 0.0
H2942 H 0.85692 0.28687 0.79286 0.0
H2943 H 0.90462 0.30176 0.83977 0.0
H2944 H 0.87228 0.22853 0.82881 0.0
H2945 H 0.8462 0.20105 0.8297 0.0
H2946 H 0.8344 0.23182 0.88164 0.0
H2947 H 0.86133 0.25882 0.88181 0.0
C2948 C 0.96478 0.26611 0.88168 0.0
C2949 C 0.96279 0.2633 0.9002 0.0
C2950 C 0.9503 0.26875 0.87039 0.0
C2951 C 0.93362 0.26889 0.87749 0.0
C2952 C 0.93168 0.26579 0.89585 0.0
C2953 C 0.94593 0.26298 0.90694 0.0
C2954 C 0.91788 0.27184 0.86609 0.0
C2955 C 0.90085 0.25879 0.86536 0.0
C2956 C 0.91918 0.28753 0.85663 0.0
C2957 C 0.93644 0.30248 0.85747 0.0
C2958 C 0.94566 0.31332 0.87489 0.0
C2959 C 0.96201 0.32729 0.87558 0.0
C2960 C 0.9692 0.33065 0.85893 0.0
C2961 C 0.96003 0.3201 0.84155 0.0
C2962 C 0.94368 0.3061 0.84078 0.0
C2963 C 0.83929 0.28361 0.83425 0.0
C2964 C 0.83963 0.2852 0.81527 0.0
C2965 C 0.85439 0.2809 0.84443 0.0
C2966 C 0.87016 0.27962 0.83586 0.0
C2967 C 0.87061 0.28177 0.81707 0.0
C2968 C 0.85566 0.28461 0.80702 0.0
C2969 C 0.8864 0.27668 0.84642 0.0
C2970 C 0.90352 0.2896 0.84678 0.0
C2971 C 0.88528 0.26103 0.85579 0.0
C2972 C 0.86835 0.24586 0.855 0.0
C2973 C 0.86394 0.22951 0.84025 0.0
C2974 C 0.84912 0.21397 0.84065 0.0
C2975 C 0.83832 0.21491 0.8554 0.0
C2976 C 0.84262 0.23121 0.87008 0.0
C2977 C 0.85777 0.24653 0.87007 0.0
H2978 H 0.82678 0.2029 0.85558 0.0
H2979 H 0.98186 0.34147 0.8595 0.0
H2980 H 0.56677 0.2463 0.59896 0.0
H2981 H 0.56153 0.21108 0.58883 0.0
H2982 H 0.58003 0.21887 0.53529 0.0
H2983 H 0.58576 0.25421 0.5455 0.0
H2984 H 0.54738 0.18561 0.53424 0.0
H2985 H 0.60878 0.2123 0.56222 0.0
H2986 H 0.63299 0.23231 0.58679 0.0
H2987 H 0.61012 0.19927 0.62694 0.0
H2988 H 0.58557 0.17927 0.60266 0.0
H2989 H 0.55625 0.08809 0.51038 0.0
H2990 H 0.56293 0.12355 0.51474 0.0
H2991 H 0.56069 0.12781 0.57451 0.0
H2992 H 0.55471 0.09255 0.57022 0.0
H2993 H 0.58669 0.15585 0.56957 0.0
H2994 H 0.52459 0.12951 0.54185 0.0
H2995 H 0.49947 0.11059 0.51771 0.0
H2996 H 0.52278 0.14297 0.47728 0.0
H2997 H 0.54818 0.16186 0.50108 0.0
C2998 C 0.56942 0.24055 0.5849 0.0
C2999 C 0.57674 0.25317 0.57308 0.0
C3000 C 0.56648 0.22038 0.57915 0.0
C3001 C 0.57047 0.21229 0.56133 0.0
C3002 C 0.57683 0.22474 0.54909 0.0
C3003 C 0.58013 0.24496 0.55497 0.0
C3004 C 0.56923 0.19106 0.55614 0.0
C3005 C 0.55612 0.17908 0.54176 0.0
C3006 C 0.58049 0.18249 0.56606 0.0
C3007 C 0.59523 0.19445 0.58068 0.0
C3008 C 0.60881 0.20944 0.57634 0.0
C3009 C 0.62261 0.22075 0.5902 0.0
C3010 C 0.62307 0.2171 0.60843 0.0
C3011 C 0.60973 0.2021 0.61282 0.0
C3012 C 0.59587 0.19077 0.59901 0.0
C3013 C 0.55764 0.09662 0.52449 0.0
C3014 C 0.55517 0.08749 0.54001 0.0
C3015 C 0.5612 0.11694 0.52696 0.0
C3016 C 0.562 0.12852 0.54495 0.0
C3017 C 0.56013 0.11936 0.56047 0.0
C3018 C 0.55671 0.09915 0.55802 0.0
C3019 C 0.56448 0.15007 0.5479 0.0
C3020 C 0.57794 0.16223 0.56189 0.0
C3021 C 0.55345 0.15872 0.53762 0.0
C3022 C 0.53841 0.14696 0.5232 0.0
C3023 C 0.52448 0.13244 0.52775 0.0
C3024 C 0.51016 0.12175 0.51414 0.0
C3025 C 0.50956 0.12559 0.49598 0.0
C3026 C 0.52329 0.14002 0.49135 0.0
C3027 C 0.53765 0.15071 0.50489 0.0
H3028 H 0.49842 0.1175 0.48551 0.0
H3029 H 0.63378 0.22587 0.61915 0.0
H3030 H 0.55454 0.75305 0.37844 0.0
H3031 H 0.58052 0.75362 0.3602 0.0
H3032 H 0.6149 0.79587 0.40573 0.0
H3033 H 0.58919 0.79536 0.4239 0.0
H3034 H 0.62145 0.80647 0.37313 0.0
H3035 H 0.61649 0.74846 0.39695 0.0
H3036 H 0.60164 0.71616 0.4028 0.0
H3037 H 0.59229 0.69289 0.34329 0.0
H3038 H 0.60684 0.72515 0.33706 0.0
H3039 H 0.70578 0.80505 0.33821 0.0
H3040 H 0.68157 0.79997 0.35891 0.0
H3041 H 0.64592 0.75983 0.31287 0.0
H3042 H 0.66999 0.76503 0.29225 0.0
H3043 H 0.64051 0.74755 0.34637 0.0
H3044 H 0.64469 0.8062 0.32294 0.0
H3045 H 0.65987 0.83857 0.31748 0.0
H3046 H 0.67083 0.86064 0.37715 0.0
H3047 H 0.656 0.82828 0.38297 0.0
C3048 C 0.56763 0.76248 0.38455 0.0
C3049 C 0.56966 0.77417 0.4027 0.0
C3050 C 0.58254 0.7627 0.37414 0.0
C3051 C 0.59985 0.7747 0.38156 0.0
C3052 C 0.6018 0.78647 0.39959 0.0
C3053 C 0.587 0.78612 0.41003 0.0
C3054 C 0.61588 0.77548 0.37054 0.0
C3055 C 0.62572 0.79357 0.36754 0.0
C3056 C 0.62144 0.75869 0.36286 0.0
C3057 C 0.61256 0.73929 0.36653 0.0
C3058 C 0.6111 0.73651 0.3851 0.0
C3059 C 0.60277 0.7182 0.38848 0.0
C3060 C 0.59597 0.7025 0.37343 0.0
C3061 C 0.59753 0.70508 0.35494 0.0
C3062 C 0.60582 0.72337 0.35148 0.0
C3063 C 0.69293 0.79476 0.33269 0.0
C3064 C 0.68984 0.78534 0.31363 0.0
C3065 C 0.67901 0.79197 0.34447 0.0
C3066 C 0.66172 0.77965 0.33746 0.0
C3067 C 0.65903 0.76939 0.31871 0.0
C3068 C 0.67283 0.77235 0.30691 0.0
C3069 C 0.64606 0.77855 0.34905 0.0
C3070 C 0.63626 0.76042 0.35208 0.0
C3071 C 0.64053 0.79531 0.35685 0.0
C3072 C 0.64945 0.81476 0.35339 0.0
C3073 C 0.65049 0.81791 0.3349 0.0
C3074 C 0.65902 0.83626 0.33174 0.0
C3075 C 0.66637 0.85164 0.34696 0.0
C3076 C 0.66518 0.8487 0.36538 0.0
C3077 C 0.65672 0.83036 0.36861 0.0
H3078 H 0.67294 0.86584 0.34449 0.0
H3079 H 0.58954 0.68833 0.37608 0.0
H3080 H 0.06328 0.2746 0.42107 0.0
H3081 H 0.05743 0.24423 0.43232 0.0
H3082 H 0.11479 0.25226 0.44511 0.0
H3083 H 0.12074 0.28238 0.4327 0.0
H3084 H 0.09657 0.21384 0.43208 0.0
H3085 H 0.09097 0.26716 0.47939 0.0
H3086 H 0.08002 0.29578 0.49162 0.0
H3087 H 0.02518 0.26077 0.47988 0.0
H3088 H 0.03579 0.23201 0.46735 0.0
H3089 H 0.08259 0.15677 0.50438 0.0
H3090 H 0.09229 0.17927 0.48334 0.0
H3091 H 0.03668 0.17863 0.46913 0.0
H3092 H 0.02707 0.15669 0.49065 0.0
H3093 H 0.05684 0.21377 0.48337 0.0
H3094 H 0.06255 0.16004 0.43613 0.0
H3095 H 0.07358 0.13197 0.42228 0.0
H3096 H 0.12829 0.16736 0.43371 0.0
H3097 H 0.11761 0.19559 0.44782 0.0
C3098 C 0.07462 0.26976 0.42615 0.0
C3099 C 0.0924 0.2808 0.42654 0.0
C3100 C 0.07129 0.25246 0.43248 0.0
C3101 C 0.08568 0.2464 0.43997 0.0
C3102 C 0.10356 0.25689 0.43947 0.0
C3103 C 0.10693 0.27403 0.43257 0.0
C3104 C 0.08174 0.23011 0.44977 0.0
C3105 C 0.08809 0.21379 0.44349 0.0
C3106 C 0.07055 0.23021 0.46447 0.0
C3107 C 0.06418 0.24746 0.47235 0.0
C3108 C 0.07657 0.26559 0.47935 0.0
C3109 C 0.07043 0.28184 0.48634 0.0
C3110 C 0.05192 0.2801 0.48651 0.0
C3111 C 0.03951 0.2621 0.47975 0.0
C3112 C 0.04558 0.24582 0.47273 0.0
C3113 C 0.0725 0.16138 0.49659 0.0
C3114 C 0.05418 0.15558 0.49937 0.0
C3115 C 0.078 0.17393 0.4844 0.0
C3116 C 0.06518 0.1805 0.47467 0.0
C3117 C 0.04676 0.1737 0.4766 0.0
C3118 C 0.0413 0.16143 0.489 0.0
C3119 C 0.07103 0.19696 0.46527 0.0
C3120 C 0.06527 0.2136 0.47193 0.0
C3121 C 0.08283 0.19706 0.45106 0.0
C3122 C 0.08928 0.17987 0.44327 0.0
C3123 C 0.07695 0.16177 0.43595 0.0
C3124 C 0.08314 0.14585 0.42797 0.0
C3125 C 0.10163 0.14786 0.42718 0.0
C3126 C 0.11398 0.1658 0.43437 0.0
C3127 C 0.10786 0.18177 0.44235 0.0
H3128 H 0.10638 0.13554 0.42095 0.0
H3129 H 0.04718 0.2927 0.49191 0.0
H3130 H 0.56197 0.28161 0.16972 0.0
H3131 H 0.59402 0.28292 0.17701 0.0
H3132 H 0.5787 0.23776 0.20878 0.0
H3133 H 0.54705 0.23634 0.20169 0.0
H3134 H 0.60543 0.27156 0.22761 0.0
H3135 H 0.58892 0.22465 0.16805 0.0
H3136 H 0.57811 0.21465 0.13415 0.0
H3137 H 0.62206 0.25874 0.12223 0.0
H3138 H 0.63298 0.26917 0.15612 0.0
H3139 H 0.66725 0.21943 0.24233 0.0
H3140 H 0.64213 0.22397 0.22283 0.0
H3141 H 0.67539 0.27853 0.21488 0.0
H3142 H 0.70014 0.27489 0.23514 0.0
H3143 H 0.64328 0.24634 0.18137 0.0
H3144 H 0.65863 0.29333 0.24332 0.0
H3145 H 0.66826 0.30043 0.27747 0.0
H3146 H 0.6246 0.25315 0.28444 0.0
H3147 H 0.61491 0.24565 0.25026 0.0
C3148 C 0.56554 0.27216 0.17841 0.0
C3149 C 0.55213 0.25896 0.18525 0.0
C3150 C 0.58373 0.27279 0.18238 0.0
C3151 C 0.58849 0.26037 0.19331 0.0
C3152 C 0.57513 0.24742 0.2003 0.0
C3153 C 0.5571 0.24667 0.19626 0.0
C3154 C 0.60736 0.26095 0.19832 0.0
C3155 C 0.61381 0.26635 0.21746 0.0
C3156 C 0.61816 0.25417 0.18497 0.0
C3157 C 0.61162 0.24787 0.16462 0.0
C3158 C 0.59617 0.23234 0.15822 0.0
C3159 C 0.59005 0.22656 0.139 0.0
C3160 C 0.59935 0.2361 0.12605 0.0
C3161 C 0.61484 0.2514 0.13228 0.0
C3162 C 0.621 0.25724 0.15149 0.0
C3163 C 0.66931 0.23226 0.23624 0.0
C3164 C 0.68565 0.24685 0.24049 0.0
C3165 C 0.65509 0.23464 0.22484 0.0
C3166 C 0.65715 0.25149 0.21741 0.0
C3167 C 0.6738 0.2653 0.22028 0.0
C3168 C 0.68791 0.26313 0.23192 0.0
C3169 C 0.641 0.25661 0.21063 0.0
C3170 C 0.63512 0.25225 0.19133 0.0
C3171 C 0.63051 0.26421 0.22378 0.0
C3172 C 0.63619 0.26883 0.24429 0.0
C3173 C 0.6512 0.28437 0.25214 0.0
C3174 C 0.65664 0.28848 0.27149 0.0
C3175 C 0.64708 0.27721 0.28311 0.0
C3176 C 0.63202 0.26185 0.27542 0.0
C3177 C 0.62655 0.25767 0.25607 0.0
H3178 H 0.65131 0.28042 0.29809 0.0
H3179 H 0.59459 0.23161 0.11118 0.0
H3180 H 0.61898 0.88569 0.89558 0.0
H3181 H 0.61269 0.91717 0.90362 0.0
H3182 H 0.62893 0.92011 0.96224 0.0
H3183 H 0.63402 0.88792 0.95427 0.0
H3184 H 0.59323 0.91145 0.95469 0.0
H3185 H 0.6435 0.95857 0.93943 0.0
H3186 H 0.66595 0.97343 0.91997 0.0
H3187 H 0.6233 0.97482 0.87957 0.0
H3188 H 0.60058 0.95965 0.89862 0.0
H3189 H 0.57776 0.99773 -0.0002 0.0
H3190 H 0.58924 0.97142 0.98462 0.0
H3191 H 0.55284 0.96399 0.93463 0.0
H3192 H 0.53999 0.98959 0.95065 0.0
H3193 H 0.59375 0.97251 0.93299 0.0
H3194 H 0.54377 0.92844 0.95002 0.0
H3195 H 0.52152 0.91606 0.97082 0.0
H3196 H 0.56403 0.91028 0.0088 0.0
H3197 H 0.58661 0.92298 0.98842 0.0
C3198 C 0.62247 0.89365 0.91001 0.0
C3199 C 0.62618 0.88424 0.92447 0.0
C3200 C 0.6188 0.91172 0.91462 0.0
C3201 C 0.61964 0.92052 0.93361 0.0
C3202 C 0.6278 0.91322 0.94752 0.0
C3203 C 0.63089 0.8949 0.94297 0.0
C3204 C 0.60703 0.93237 0.93912 0.0
C3205 C 0.59361 0.92501 0.9502 0.0
C3206 C 0.60667 0.94922 0.93211 0.0
C3207 C 0.62034 0.95772 0.92034 0.0
C3208 C 0.6389 0.96177 0.92626 0.0
C3209 C 0.65168 0.97032 0.91533 0.0
C3210 C 0.64606 0.975 0.8985 0.0
C3211 C 0.62764 0.97113 0.89257 0.0
C3212 C 0.61481 0.96256 0.90343 0.0
C3213 C 0.57134 0.98979 0.98615 0.0
C3214 C 0.55738 0.99509 0.97688 0.0
C3215 C 0.57818 0.975 0.97729 0.0
C3216 C 0.57159 0.9657 0.95873 0.0
C3217 C 0.55779 0.97096 0.94913 0.0
C3218 C 0.55058 0.98555 0.95826 0.0
C3219 C 0.58085 0.95205 0.9492 0.0
C3220 C 0.59343 0.95884 0.93723 0.0
C3221 C 0.58052 0.93469 0.9554 0.0
C3222 C 0.56694 0.92681 0.96769 0.0
C3223 C 0.54842 0.9247 0.96288 0.0
C3224 C 0.53573 0.91759 0.97459 0.0
C3225 C 0.54136 0.91242 0.99114 0.0
C3226 C 0.55969 0.9143 0.99598 0.0
C3227 C 0.57245 0.92143 0.98433 0.0
H3228 H 0.53152 0.90692 0.00019 0.0
H3229 H 0.65597 0.98168 0.89009 0.0
H3230 H 0.96811 0.78987 0.71581 0.0
H3231 H 0.93707 0.78672 0.72391 0.0
H3232 H 0.91738 0.73851 0.67676 0.0
H3233 H 0.94831 0.7417 0.66863 0.0
H3234 H 0.89758 0.76855 0.68288 0.0
H3235 H 0.91852 0.72324 0.71347 0.0
H3236 H 0.94044 0.71231 0.73226 0.0
H3237 H 0.94159 0.75851 0.77894 0.0
H3238 H 0.9197 0.76973 0.76041 0.0
H3239 H 0.81478 0.75396 0.72335 0.0
H3240 H 0.84073 0.75128 0.70689 0.0
H3241 H 0.87596 0.77975 0.75833 0.0
H3242 H 0.84945 0.77837 0.77551 0.0
H3243 H 0.88567 0.75162 0.74489 0.0
H3244 H 0.87601 0.80392 0.70789 0.0
H3245 H 0.85739 0.81679 0.68696 0.0
H3246 H 0.83664 0.75973 0.65259 0.0
H3247 H 0.85554 0.74677 0.67296 0.0
C3248 C 0.95699 0.77907 0.707 0.0
C3249 C 0.96005 0.76611 0.6917 0.0
C3250 C 0.93953 0.77711 0.71166 0.0
C3251 C 0.92542 0.76216 0.70101 0.0
C3252 C 0.92837 0.74996 0.68503 0.0
C3253 C 0.9458 0.7519 0.6804 0.0
C3254 C 0.9076 0.75925 0.70695 0.0
C3255 C 0.8947 0.76466 0.69634 0.0
C3256 C 0.90431 0.75401 0.72435 0.0
C3257 C 0.91755 0.74736 0.73552 0.0
C3258 C 0.92354 0.73113 0.7277 0.0
C3259 C 0.93592 0.72486 0.73832 0.0
C3260 C 0.94242 0.73473 0.75677 0.0
C3261 C 0.93653 0.75087 0.76466 0.0
C3262 C 0.92409 0.75715 0.75412 0.0
C3263 C 0.82815 0.75961 0.73101 0.0
C3264 C 0.83052 0.7668 0.75044 0.0
C3265 C 0.84299 0.75862 0.72149 0.0
C3266 C 0.86035 0.76599 0.73114 0.0
C3267 C 0.86263 0.77399 0.75058 0.0
C3268 C 0.84767 0.77352 0.76036 0.0
C3269 C 0.87599 0.76299 0.72178 0.0
C3270 C 0.88834 0.75572 0.73149 0.0
C3271 C 0.87889 0.76682 0.70363 0.0
C3272 C 0.86663 0.77432 0.69227 0.0
C3273 C 0.86721 0.79413 0.69604 0.0
C3274 C 0.85676 0.80145 0.68418 0.0
C3275 C 0.84558 0.78903 0.66865 0.0
C3276 C 0.8451 0.76932 0.66473 0.0
C3277 C 0.85577 0.76201 0.67634 0.0
H3278 H 0.83744 0.79472 0.65956 0.0
H3279 H 0.95201 0.72986 0.76497 0.0
H3280 H 0.15194 0.03638 0.83236 0.0
H3281 H 0.13978 0.03821 0.86279 0.0
H3282 H 0.10393 0.9811 0.8432 0.0
H3283 H 0.11598 0.97955 0.81239 0.0
H3284 H 0.08526 0.00213 0.86265 0.0
H3285 H 0.14394 0.99346 0.87898 0.0
H3286 H 0.17717 1.00088 0.88057 0.0
H3287 H 0.18163 0.05856 0.91143 0.0
H3288 H 0.14841 0.05155 0.90982 0.0
H3289 H 0.05496 0.99843 0.95464 0.0
H3290 H 0.06709 0.99285 0.92434 0.0
H3291 H 0.10937 0.04585 0.9426 0.0
H3292 H 0.09784 0.05079 0.9732 0.0
H3293 H 0.12453 0.02496 0.92332 0.0
H3294 H 0.06661 0.0351 0.90641 0.0
H3295 H 0.03344 0.02903 0.90437 0.0
H3296 H 0.02729 0.97066 0.87437 0.0
H3297 H 0.06043 0.97631 0.87645 0.0
C3298 C 0.14192 0.02385 0.83467 0.0
C3299 C 0.13573 0.00742 0.81984 0.0
C3300 C 0.13477 0.02495 0.85228 0.0
C3301 C 0.12092 0.00967 0.8561 0.0
C3302 C 0.11464 0.99319 0.84122 0.0
C3303 C 0.12182 0.99213 0.8235 0.0
C3304 C 0.11289 0.01123 0.87522 0.0
C3305 C 0.09396 0.00687 0.87587 0.0
C3306 C 0.12375 0.01789 0.89297 0.0
C3307 C 0.1437 0.02202 0.89416 0.0
C3308 C 0.15201 0.00775 0.88603 0.0
C3309 C 0.17084 0.01188 0.88694 0.0
C3310 C 0.1815 0.03019 0.89606 0.0
C3311 C 0.17335 0.04439 0.90435 0.0
C3312 C 0.15453 0.04034 0.90347 0.0
C3313 C 0.06686 0.00897 0.95231 0.0
C3314 C 0.07516 0.02521 0.96685 0.0
C3315 C 0.07381 0.00586 0.9346 0.0
C3316 C 0.08919 0.01908 0.93023 0.0
C3317 C 0.09756 0.03517 0.94491 0.0
C3318 C 0.09081 0.0381 0.96271 0.0
C3319 C 0.09683 0.01617 0.9109 0.0
C3320 C 0.11574 0.02025 0.91017 0.0
C3321 C 0.08592 0.00947 0.8931 0.0
C3322 C 0.066 0.00606 0.89178 0.0
C3323 C 0.05818 0.02093 0.89948 0.0
C3324 C 0.03939 0.01757 0.89831 0.0
C3325 C 0.02827 0.99945 0.8893 0.0
C3326 C 0.03592 0.98468 0.88138 0.0
C3327 C 0.05471 0.98795 0.88255 0.0
H3328 H 0.01372 0.99688 0.88841 0.0
H3329 H 0.19608 0.03337 0.89674 0.0
H3330 H 0.84279 0.38971 0.56552 0.0
H3331 H 0.83379 0.37204 0.59024 0.0
H3332 H 0.78373 0.389 0.59012 0.0
H3333 H 0.79262 0.40694 0.56522 0.0
H3334 H 0.80805 0.39612 0.6269 0.0
H3335 H 0.7775 0.34485 0.57388 0.0
H3336 H 0.77708 0.32661 0.54163 0.0
H3337 H 0.8233 0.30812 0.55922 0.0
H3338 H 0.82417 0.32642 0.59145 0.0
H3339 H 0.81489 0.33915 0.69718 0.0
H3340 H 0.80132 0.35287 0.67354 0.0
H3341 H 0.83694 0.33507 0.63433 0.0
H3342 H 0.84953 0.31991 0.65724 0.0
H3343 H 0.80405 0.32571 0.61803 0.0
H3344 H 0.84454 0.38188 0.6593 0.0
H3345 H 0.85668 0.40588 0.68874 0.0
H3346 H 0.80565 0.41991 0.69165 0.0
H3347 H 0.79312 0.39579 0.6623 0.0
C3348 C 0.82981 0.3896 0.5706 0.0
C3349 C 0.81841 0.3997 0.56353 0.0
C3350 C 0.82468 0.37947 0.58463 0.0
C3351 C 0.80805 0.37917 0.59162 0.0
C3352 C 0.79654 0.38911 0.58464 0.0
C3353 C 0.80167 0.3993 0.57053 0.0
C3354 C 0.8036 0.3691 0.607 0.0
C3355 C 0.80644 0.38058 0.62516 0.0
C3356 C 0.80207 0.349 0.6043 0.0
C3357 C 0.80075 0.33687 0.58517 0.0
C3358 C 0.7875 0.3368 0.57089 0.0
C3359 C 0.78723 0.3265 0.55259 0.0
C3360 C 0.80012 0.31617 0.54839 0.0
C3361 C 0.81326 0.31604 0.5625 0.0
C3362 C 0.8136 0.32631 0.58081 0.0
C3363 C 0.81965 0.33788 0.68341 0.0
C3364 C 0.83315 0.32822 0.67897 0.0
C3365 C 0.812 0.34592 0.67005 0.0
C3366 C 0.81808 0.34483 0.65228 0.0
C3367 C 0.83194 0.33579 0.648 0.0
C3368 C 0.83932 0.32741 0.66118 0.0
C3369 C 0.81022 0.35304 0.63785 0.0
C3370 C 0.80463 0.34106 0.61999 0.0
C3371 C 0.81057 0.37296 0.6407 0.0
C3372 C 0.81778 0.38675 0.65883 0.0
C3373 C 0.83582 0.38987 0.66638 0.0
C3374 C 0.84281 0.40358 0.68298 0.0
C3375 C 0.83194 0.41441 0.69207 0.0
C3376 C 0.81404 0.4115 0.6846 0.0
C3377 C 0.80698 0.39778 0.668 0.0
H3378 H 0.83737 0.42501 0.70493 0.0
H3379 H 0.79994 0.30829 0.5342 0.0
H3380 H 0.45904 0.06755 0.33428 0.0
H3381 H 0.4736 0.07836 0.36651 0.0
H3382 H 0.4504 0.02163 0.378 0.0
H3383 H 0.43595 0.01044 0.3454 0.0
H3384 H 0.45281 0.05872 0.40854 0.0
H3385 H 0.48476 0.02046 0.37037 0.0
H3386 H 0.49691 0.0093 0.341 0.0
H3387 H 0.53124 0.06668 0.34493 0.0
H3388 H 0.5189 0.07828 0.37417 0.0
H3389 H 0.50569 0.02182 0.46204 0.0
H3390 H 0.48879 0.03099 0.43762 0.0
H3391 H 0.52711 0.08732 0.4473 0.0
H3392 H 0.54425 0.07826 0.47253 0.0
H3393 H 0.51815 0.06176 0.40866 0.0
H3394 H 0.48765 0.09022 0.45868 0.0
H3395 H 0.47254 0.09064 0.4878 0.0
H3396 H 0.43352 0.03744 0.46196 0.0
H3397 H 0.44829 0.03666 0.4328 0.0
C3398 C 0.45692 0.05743 0.34372 0.0
C3399 C 0.44682 0.03809 0.33746 0.0
C3400 C 0.46501 0.0637 0.36207 0.0
C3401 C 0.46284 0.05075 0.3743 0.0
C3402 C 0.45192 0.03173 0.36851 0.0
C3403 C 0.44405 0.02529 0.34997 0.0
C3404 C 0.47456 0.0561 0.39186 0.0
C3405 C 0.46714 0.05965 0.40876 0.0
C3406 C 0.4931 0.05709 0.39168 0.0
C3407 C 0.50066 0.05033 0.37419 0.0
C3408 C 0.4947 0.03077 0.36481 0.0
C3409 C 0.50164 0.02434 0.34823 0.0
C3410 C 0.51477 0.03731 0.34104 0.0
C3411 C 0.521 0.05669 0.35047 0.0
C3412 C 0.51402 0.06321 0.36703 0.0
C3413 C 0.51052 0.03621 0.4591 0.0
C3414 C 0.52606 0.04948 0.46919 0.0
C3415 C 0.50075 0.04148 0.44535 0.0
C3416 C 0.50642 0.06005 0.44143 0.0
C3417 C 0.52242 0.07314 0.45076 0.0
C3418 C 0.53226 0.06786 0.46478 0.0
C3419 C 0.49647 0.06409 0.42567 0.0
C3420 C 0.50409 0.06209 0.40868 0.0
C3421 C 0.47785 0.0631 0.42587 0.0
C3422 C 0.46903 0.06351 0.44351 0.0
C3423 C 0.47589 0.07861 0.45926 0.0
C3424 C 0.46738 0.0789 0.47576 0.0
C3425 C 0.4521 0.06409 0.47667 0.0
C3426 C 0.44532 0.04892 0.46118 0.0
C3427 C 0.45369 0.04862 0.44465 0.0
H3428 H 0.44541 0.06437 0.4893 0.0
H3429 H 0.52017 0.03231 0.32821 0.0
H3430 H 0.8195 0.71677 0.06849 0.0
H3431 H 0.82271 0.72799 0.10274 0.0
H3432 H 0.78954 0.76701 0.09619 0.0
H3433 H 0.78669 0.7564 0.06217 0.0
H3434 H 0.81566 0.78273 0.12561 0.0
H3435 H 0.77087 0.71994 0.10197 0.0
H3436 H 0.76211 0.68557 0.08548 0.0
H3437 H 0.80098 0.67291 0.12302 0.0
H3438 H 0.81008 0.70723 0.13958 0.0
H3439 H 0.79335 0.79513 0.22037 0.0
H3440 H 0.79128 0.78999 0.18598 0.0
H3441 H 0.80775 0.73684 0.18464 0.0
H3442 H 0.80555 0.73976 0.21778 0.0
H3443 H 0.78845 0.72947 0.15749 0.0
H3444 H 0.83599 0.79063 0.18089 0.0
H3445 H 0.8471 0.82489 0.19752 0.0
H3446 H 0.80857 0.84072 0.16226 0.0
H3447 H 0.79713 0.80657 0.14557 0.0
C3448 C 0.81325 0.72806 0.07433 0.0
C3449 C 0.80255 0.7354 0.06262 0.0
C3450 C 0.81504 0.73442 0.09389 0.0
C3451 C 0.806 0.74802 0.102 0.0
C3452 C 0.79653 0.75644 0.09025 0.0
C3453 C 0.79483 0.75022 0.07077 0.0
C3454 C 0.80455 0.75192 0.1225 0.0
C3455 C 0.80989 0.77113 0.13276 0.0
C3456 C 0.79699 0.7368 0.13174 0.0
C3457 C 0.79122 0.71614 0.12191 0.0
C3458 C 0.77757 0.70982 0.10665 0.0
C3459 C 0.77255 0.69036 0.09729 0.0
C3460 C 0.781 0.67707 0.10318 0.0
C3461 C 0.79445 0.68321 0.11846 0.0
C3462 C 0.79953 0.70265 0.12784 0.0
C3463 C 0.79549 0.78187 0.21247 0.0
C3464 C 0.79894 0.76754 0.22175 0.0
C3465 C 0.79504 0.77926 0.19281 0.0
C3466 C 0.79983 0.76321 0.18234 0.0
C3467 C 0.80364 0.74922 0.19191 0.0
C3468 C 0.80259 0.75101 0.21111 0.0
C3469 C 0.80093 0.76033 0.16154 0.0
C3470 C 0.79491 0.74124 0.15087 0.0
C3471 C 0.80854 0.77553 0.1522 0.0
C3472 C 0.81561 0.79605 0.16213 0.0
C3473 C 0.82987 0.80143 0.17674 0.0
C3474 C 0.83622 0.82082 0.18617 0.0
C3475 C 0.82851 0.83496 0.18098 0.0
C3476 C 0.8145 0.82976 0.16629 0.0
C3477 C 0.8081 0.8104 0.15684 0.0
H3478 H 0.83342 0.84995 0.18832 0.0
H3479 H 0.77711 0.66202 0.09591 0.0
H3480 H 0.10169 0.99978 0.7149 0.0
H3481 H 0.0898 0.00334 0.6841 0.0
H3482 H 0.14357 0.01509 0.66744 0.0
H3483 H 0.15555 0.01128 0.69848 0.0
H3484 H 0.12708 0.04144 0.65756 0.0
H3485 H 0.10782 0.97161 0.64778 0.0
H3486 H 0.09224 0.9398 0.65425 0.0
H3487 H 0.04159 0.95481 0.65105 0.0
H3488 H 0.0569 0.98682 0.64482 0.0
H3489 H 0.10393 0.04012 0.56038 0.0
H3490 H 0.11395 0.03551 0.59139 0.0
H3491 H 0.05872 0.02054 0.60365 0.0
H3492 H 0.04862 0.02545 0.57228 0.0
H3493 H 0.07479 0.99567 0.61608 0.0
H3494 H 0.09198 0.06524 0.63543 0.0
H3495 H 0.10536 0.09964 0.63457 0.0
H3496 H 0.15552 0.08687 0.62196 0.0
H3497 H 0.14274 0.05259 0.62393 0.0
C3498 C 0.11106 0.00256 0.70457 0.0
C3499 C 0.12972 0.00473 0.70952 0.0
C3500 C 0.10413 0.00468 0.6867 0.0
C3501 C 0.1155 0.00945 0.67276 0.0
C3502 C 0.13417 0.01136 0.67752 0.0
C3503 C 0.1411 0.00889 0.69539 0.0
C3504 C 0.10808 0.01346 0.65396 0.0
C3505 C 0.11588 0.03109 0.64842 0.0
C3506 C 0.09272 1.00081 0.64194 0.0
C3507 C 0.08356 0.98171 0.64604 0.0
C3508 C 0.0934 0.96822 0.64866 0.0
C3509 C 0.0846 0.95012 0.65223 0.0
C3510 C 0.06595 0.94531 0.65311 0.0
C3511 C 0.05605 0.95857 0.6504 0.0
C3512 C 0.06478 0.97668 0.64684 0.0
C3513 C 0.09382 0.03628 0.56977 0.0
C3514 C 0.07537 0.03352 0.56351 0.0
C3515 C 0.09965 0.03364 0.58779 0.0
C3516 C 0.08736 0.02773 0.6006 0.0
C3517 C 0.06881 0.02512 0.59448 0.0
C3518 C 0.06295 0.02814 0.57642 0.0
C3519 C 0.09401 0.02351 0.61962 0.0
C3520 C 0.08607 0.00591 0.62519 0.0
C3521 C 0.10891 0.03634 0.632 0.0
C3522 C 0.11634 0.05638 0.62946 0.0
C3523 C 0.1058 0.06976 0.63227 0.0
C3524 C 0.11331 0.08924 0.63173 0.0
C3525 C 0.13115 0.09536 0.62781 0.0
C3526 C 0.14165 0.08207 0.62482 0.0
C3527 C 0.13436 0.06267 0.62587 0.0
H3528 H 0.13689 0.11043 0.62728 0.0
H3529 H 0.05917 0.93128 0.65585 0.0
H3530 H 0.85274 0.41856 0.46239 0.0
H3531 H 0.84891 0.39797 0.43086 0.0
H3532 H 0.79723 0.3645 0.44161 0.0
H3533 H 0.80062 0.38534 0.47282 0.0
H3534 H 0.82925 0.34549 0.43158 0.0
H3535 H 0.78957 0.38219 0.41276 0.0
H3536 H 0.77996 0.41142 0.40892 0.0
H3537 H 0.82386 0.42771 0.3763 0.0
H3538 H 0.83394 0.39874 0.38025 0.0
H3539 H 0.80298 0.28439 0.33938 0.0
H3540 H 0.8063 0.30289 0.37157 0.0
H3541 H 0.84599 0.34976 0.3568 0.0
H3542 H 0.84199 0.33195 0.32452 0.0
H3543 H 0.81721 0.36117 0.36914 0.0
H3544 H 0.85749 0.32497 0.38869 0.0
H3545 H 0.86625 0.29494 0.39125 0.0
H3546 H 0.8208 0.27728 0.42151 0.0
H3547 H 0.81166 0.30713 0.41894 0.0
C3548 C 0.84049 0.40697 0.45787 0.0
C3549 C 0.82704 0.40332 0.46993 0.0
C3550 C 0.83827 0.39539 0.43994 0.0
C3551 C 0.82279 0.37993 0.43417 0.0
C3552 C 0.80916 0.37654 0.44597 0.0
C3553 C 0.81115 0.38839 0.4637 0.0
C3554 C 0.82187 0.36606 0.41666 0.0
C3555 C 0.82638 0.3487 0.41786 0.0
C3556 C 0.8184 0.37068 0.39903 0.0
C3557 C 0.81271 0.38845 0.39711 0.0
C3558 C 0.79738 0.39217 0.40506 0.0
C3559 C 0.79178 0.40865 0.40278 0.0
C3560 C 0.80134 0.42146 0.39245 0.0
C3561 C 0.8165 0.41781 0.38436 0.0
C3562 C 0.82217 0.40136 0.38662 0.0
C3563 C 0.81246 0.29857 0.34303 0.0
C3564 C 0.82133 0.30728 0.32925 0.0
C3565 C 0.81455 0.30899 0.36147 0.0
C3566 C 0.82605 0.32783 0.36628 0.0
C3567 C 0.83676 0.33537 0.35312 0.0
C3568 C 0.83444 0.32515 0.3347 0.0
C3569 C 0.82511 0.34075 0.38398 0.0
C3570 C 0.82012 0.35791 0.38283 0.0
C3571 C 0.82816 0.33596 0.40163 0.0
C3572 C 0.83382 0.3182 0.4035 0.0
C3573 C 0.84931 0.31463 0.3958 0.0
C3574 C 0.85436 0.29765 0.39727 0.0
C3575 C 0.84407 0.28419 0.40651 0.0
C3576 C 0.82875 0.28772 0.41436 0.0
C3577 C 0.82365 0.30468 0.41293 0.0
H3578 H 0.84798 0.27104 0.4076 0.0
H3579 H 0.79696 0.43418 0.39066 0.0
H3580 H 0.47158 0.03056 0.24416 0.0
H3581 H 0.4818 0.03891 0.21468 0.0
H3582 H 0.43019 0.04911 0.19973 0.0
H3583 H 0.42001 0.04109 0.22917 0.0
H3584 H 0.44204 0.02139 0.17386 0.0
H3585 H 0.4615 0.08606 0.20702 0.0
H3586 H 0.47534 0.11121 0.23517 0.0
H3587 H 0.52691 0.09953 0.22792 0.0
H3588 H 0.51332 0.07392 0.20003 0.0
H3589 H 0.48627 0.02147 0.09276 0.0
H3590 H 0.47112 0.03772 0.11667 0.0
H3591 H 0.51211 0.03719 0.15965 0.0
H3592 H 0.5284 0.02254 0.13574 0.0
H3593 H 0.49841 0.06959 0.16731 0.0
H3594 H 0.47866 1.00006 0.14381 0.0
H3595 H 0.46516 0.96907 0.12174 0.0
H3596 H 0.41459 0.98403 0.1168 0.0
H3597 H 0.42803 0.01551 0.13835 0.0
C3598 C 0.46256 0.03472 0.23459 0.0
C3599 C 0.44514 0.03529 0.2387 0.0
C3600 C 0.46841 0.03971 0.21802 0.0
C3601 C 0.45677 0.04501 0.2055 0.0
C3602 C 0.43935 0.04546 0.20956 0.0
C3603 C 0.43361 0.0408 0.22622 0.0
C3604 C 0.46215 0.04746 0.18708 0.0
C3605 C 0.45393 0.03232 0.17199 0.0
C3606 C 0.47777 0.0617 0.1853 0.0
C3607 C 0.48636 0.07804 0.20132 0.0
C3608 C 0.4758 0.08884 0.2114 0.0
C3609 C 0.4836 0.10314 0.22736 0.0
C3610 C 0.502 0.10698 0.23332 0.0
C3611 C 0.51266 0.09657 0.22326 0.0
C3612 C 0.50491 0.08216 0.20734 0.0
C3613 C 0.4924 0.02526 0.10723 0.0
C3614 C 0.50846 0.02044 0.11244 0.0
C3615 C 0.48362 0.03444 0.12077 0.0
C3616 C 0.49033 0.03815 0.13974 0.0
C3617 C 0.50679 0.03435 0.14496 0.0
C3618 C 0.51582 0.02556 0.13138 0.0
C3619 C 0.47892 0.04271 0.15438 0.0
C3620 C 0.48593 0.05925 0.16868 0.0
C3621 C 0.4624 0.02928 0.15576 0.0
C3622 C 0.45466 0.01067 0.14201 0.0
C3623 C 0.46486 0.9971 0.13755 0.0
C3624 C 0.45716 0.97934 0.12523 0.0
C3625 C 0.43909 0.97468 0.11766 0.0
C3626 C 0.42865 0.98773 0.12251 0.0
C3627 C 0.43635 0.00561 0.13467 0.0
H3628 H 0.43313 0.96087 0.1082 0.0
H3629 H 0.508 0.118 0.24573 0.0
H3630 H 0.82224 0.70706 0.95388 0.0
H3631 H 0.82689 0.71391 0.9223 0.0
H3632 H 0.79452 0.75494 0.93094 0.0
H3633 H 0.79014 0.74869 0.96223 0.0
H3634 H 0.78282 0.72267 0.89822 0.0
H3635 H 0.83388 0.7738 0.93081 0.0
H3636 H 0.86285 0.78692 0.95109 0.0
H3637 H 0.8881 0.75263 0.91217 0.0
H3638 H 0.85914 0.73902 0.8918 0.0
H3639 H 0.79055 0.78289 0.8313 0.0
H3640 H 0.79592 0.77354 0.8615 0.0
H3641 H 0.81848 0.72835 0.8339 0.0
H3642 H 0.81249 0.73724 0.80341 0.0
H3643 H 0.83754 0.75823 0.87404 0.0
H3644 H 0.78508 0.70891 0.84012 0.0
H3645 H 0.75541 0.6973 0.821 0.0
H3646 H 0.73227 0.72974 0.86376 0.0
H3647 H 0.76195 0.74199 0.88291 0.0
C3648 C 0.81646 0.71783 0.94917 0.0
C3649 C 0.80565 0.72714 0.9605 0.0
C3650 C 0.81911 0.7217 0.93118 0.0
C3651 C 0.81088 0.73479 0.92436 0.0
C3652 C 0.80087 0.74472 0.93598 0.0
C3653 C 0.79841 0.74109 0.95389 0.0
C3654 C 0.81118 0.73714 0.90464 0.0
C3655 C 0.79481 0.73033 0.89288 0.0
C3656 C 0.82688 0.74696 0.89776 0.0
C3657 C 0.84428 0.75515 0.90994 0.0
C3658 C 0.84555 0.76886 0.92669 0.0
C3659 C 0.86198 0.77643 0.93817 0.0
C3660 C 0.87729 0.77054 0.93297 0.0
C3661 C 0.87621 0.75712 0.91622 0.0
C3662 C 0.85979 0.74948 0.9047 0.0
C3663 C 0.7967 0.77101 0.83174 0.0
C3664 C 0.80095 0.76059 0.81518 0.0
C3665 C 0.79984 0.76577 0.84892 0.0
C3666 C 0.80763 0.75034 0.84981 0.0
C3667 C 0.8125 0.74034 0.83339 0.0
C3668 C 0.80892 0.74526 0.81606 0.0
C3669 C 0.80914 0.74383 0.86775 0.0
C3670 C 0.82572 0.75003 0.87922 0.0
C3671 C 0.79358 0.73356 0.87451 0.0
C3672 C 0.7758 0.72653 0.86286 0.0
C3673 C 0.77374 0.71381 0.84532 0.0
C3674 C 0.7569 0.70705 0.83451 0.0
C3675 C 0.74195 0.71271 0.84121 0.0
C3676 C 0.74385 0.72532 0.85862 0.0
C3677 C 0.76069 0.7322 0.86944 0.0
H3678 H 0.72889 0.70734 0.83288 0.0
H3679 H 0.89 0.77643 0.94187 0.0
H3680 H 0.81944 0.10389 0.04018 0.0
H3681 H 0.8464 0.09151 0.04108 0.0
H3682 H 0.85733 0.10701 0.98741 0.0
H3683 H 0.82971 0.1178 0.9859 0.0
H3684 H 0.8621 0.07427 0.98709 0.0
H3685 H 0.87933 0.13458 0.03317 0.0
H3686 H 0.87648 0.15712 0.06193 0.0
H3687 H 0.88382 0.11593 0.09537 0.0
H3688 H 0.8864 0.09299 0.06677 0.0
H3689 H 0.94838 0.06568 0.98124 0.0
H3690 H 0.92742 0.08565 0.98981 0.0
H3691 H 0.91127 0.05417 0.03366 0.0
H3692 H 0.93244 0.03434 0.02519 0.0
H3693 H 0.91005 0.09528 0.04124 0.0
H3694 H 0.89066 0.0349 0.99382 0.0
H3695 H 0.89375 0.01313 0.96463 0.0
H3696 H 0.89061 0.05715 0.93313 0.0
H3697 H 0.88797 0.07935 0.96224 0.0
C3698 C 0.82754 0.10422 0.02849 0.0
C3699 C 0.82269 0.11149 0.01287 0.0
C3700 C 0.843 0.09749 0.02914 0.0
C3701 C 0.85406 0.0988 0.01453 0.0
C3702 C 0.84896 0.10589 0.99884 0.0
C3703 C 0.8332 0.11192 0.99788 0.0
C3704 C 0.87059 0.09204 0.01491 0.0
C3705 C 0.87267 0.0792 0.99885 0.0
C3706 C 0.88414 0.09801 0.03053 0.0
C3707 C 0.88289 0.11197 0.04777 0.0
C3708 C 0.88023 0.13027 0.04663 0.0
C3709 C 0.87866 0.14312 0.06291 0.0
C3710 C 0.87992 0.13794 0.08046 0.0
C3711 C 0.88282 0.11991 0.08177 0.0
C3712 C 0.88434 0.10699 0.06552 0.0
C3713 C 0.94053 0.06335 0.99288 0.0
C3714 C 0.94129 0.04826 0.00223 0.0
C3715 C 0.92886 0.07487 0.99794 0.0
C3716 C 0.91779 0.07112 0.0122 0.0
C3717 C 0.91979 0.05719 0.02266 0.0
C3718 C 0.93153 0.04571 0.01763 0.0
C3719 C 0.90159 0.07831 0.01315 0.0
C3720 C 0.89948 0.09079 0.0295 0.0
C3721 C 0.888 0.07233 0.99773 0.0
C3722 C 0.88935 0.05885 0.98022 0.0
C3723 C 0.89081 0.03999 0.9807 0.0
C3724 C 0.89248 0.02757 0.96417 0.0
C3725 C 0.89243 0.03377 0.94704 0.0
C3726 C 0.8907 0.05238 0.94641 0.0
C3727 C 0.88915 0.0649 0.96292 0.0
H3728 H 0.89368 0.02412 0.93425 0.0
H3729 H 0.87869 0.1479 0.09304 0.0
H3730 H 0.34484 0.43917 0.0305 0.0
H3731 H 0.37411 0.46276 0.03083 0.0
H3732 H 0.40186 0.42177 0.04602 0.0
H3733 H 0.37307 0.39849 0.04583 0.0
H3734 H 0.41752 0.45715 0.06592 0.0
H3735 H 0.39678 0.42737 0.00103 0.0
H3736 H 0.3758 0.418 0.97182 0.0
H3737 H 0.38023 0.4781 0.97137 0.0
H3738 H 0.40104 0.48783 0.00077 0.0
H3739 H 0.5047 0.48342 0.03404 0.0
H3740 H 0.47354 0.46631 0.03731 0.0
H3741 H 0.4558 0.51693 0.03063 0.0
H3742 H 0.48681 0.53402 0.0275 0.0
H3743 H 0.43419 0.48051 0.0077 0.0
H3744 H 0.45809 0.5094 0.07199 0.0
H3745 H 0.48025 0.51696 0.10011 0.0
H3746 H 0.47081 0.45616 0.10043 0.0
H3747 H 0.44879 0.44821 0.07212 0.0
C3748 C 0.35721 0.43536 0.03415 0.0
C3749 C 0.35663 0.41692 0.03803 0.0
C3750 C 0.37391 0.44877 0.03422 0.0
C3751 C 0.39021 0.44397 0.0383 0.0
C3752 C 0.38953 0.42585 0.04284 0.0
C3753 C 0.37299 0.41249 0.04263 0.0
C3754 C 0.40813 0.45729 0.03739 0.0
C3755 C 0.42115 0.4622 0.05316 0.0
C3756 C 0.41286 0.46412 0.02083 0.0
C3757 C 0.40025 0.45832 0.00325 0.0
C3758 C 0.39312 0.43859 0.99482 0.0
C3759 C 0.3813 0.43321 0.9782 0.0
C3760 C 0.37663 0.44745 0.96978 0.0
C3761 C 0.38381 0.46709 0.97794 0.0
C3762 C 0.39562 0.47254 0.99458 0.0
C3763 C 0.49416 0.49092 0.03347 0.0
C3764 C 0.49824 0.51023 0.03101 0.0
C3765 C 0.4764 0.48116 0.03531 0.0
C3766 C 0.46239 0.49042 0.03433 0.0
C3767 C 0.46642 0.50958 0.03156 0.0
C3768 C 0.48419 0.51943 0.03006 0.0
C3769 C 0.44354 0.48004 0.03612 0.0
C3770 C 0.43042 0.47569 0.02053 0.0
C3771 C 0.43876 0.47347 0.05273 0.0
C3772 C 0.45191 0.47821 0.06983 0.0
C3773 C 0.46085 0.49763 0.07796 0.0
C3774 C 0.47337 0.50199 0.09395 0.0
C3775 C 0.47697 0.48705 0.10203 0.0
C3776 C 0.46802 0.46772 0.09415 0.0
C3777 C 0.45551 0.46328 0.07814 0.0
H3778 H 0.48666 0.49045 0.11441 0.0
H3779 H 0.36749 0.44326 0.95691 0.0
H3780 H 0.42183 0.6392 0.77221 0.0
H3781 H 0.40906 0.66719 0.77134 0.0
H3782 H 0.35628 0.63183 0.77609 0.0
H3783 H 0.36878 0.60419 0.77668 0.0
H3784 H 0.34949 0.65219 0.7538 0.0
H3785 H 0.38455 0.6739 0.81433 0.0
H3786 H 0.4119 0.68166 0.83695 0.0
H3787 H 0.43993 0.72228 0.80557 0.0
H3788 H 0.41266 0.71482 0.78283 0.0
H3789 H 0.31504 0.74144 0.78732 0.0
H3790 H 0.32863 0.7144 0.79065 0.0
H3791 H 0.36159 0.72731 0.74659 0.0
H3792 H 0.34731 0.75302 0.74232 0.0
H3793 H 0.37802 0.71895 0.78969 0.0
H3794 H 0.34071 0.69464 0.72825 0.0
H3795 H 0.31167 0.68683 0.7083 0.0
H3796 H 0.28646 0.64999 0.74448 0.0
H3797 H 0.31532 0.65791 0.76487 0.0
C3798 C 0.40752 0.63731 0.77317 0.0
C3799 C 0.39664 0.61881 0.77452 0.0
C3800 C 0.40006 0.65361 0.77279 0.0
C3801 C 0.38132 0.65238 0.77377 0.0
C3802 C 0.37062 0.6339 0.77516 0.0
C3803 C 0.378 0.61777 0.77558 0.0
C3804 C 0.37262 0.66967 0.77299 0.0
C3805 C 0.35591 0.66665 0.76188 0.0
C3806 C 0.38028 0.68911 0.78325 0.0
C3807 C 0.39665 0.69372 0.79684 0.0
C3808 C 0.39657 0.68445 0.81225 0.0
C3809 C 0.41203 0.68883 0.82511 0.0
C3810 C 0.42764 0.70246 0.8227 0.0
C3811 C 0.4278 0.71178 0.80745 0.0
C3812 C 0.41233 0.70754 0.79461 0.0
C3813 C 0.3248 0.7383 0.77797 0.0
C3814 C 0.32929 0.74951 0.764 0.0
C3815 C 0.3329 0.7228 0.78008 0.0
C3816 C 0.3464 0.71824 0.76885 0.0
C3817 C 0.3513 0.72993 0.7555 0.0
C3818 C 0.34289 0.74486 0.75302 0.0
C3819 C 0.35513 0.70129 0.77044 0.0
C3820 C 0.37175 0.70442 0.78167 0.0
C3821 C 0.34734 0.6819 0.76046 0.0
C3822 C 0.33007 0.67709 0.74822 0.0
C3823 C 0.32892 0.68508 0.73209 0.0
C3824 C 0.31252 0.68058 0.72066 0.0
C3825 C 0.29723 0.66794 0.72514 0.0
C3826 C 0.29831 0.65977 0.74104 0.0
C3827 C 0.31468 0.66428 0.75254 0.0
H3828 H 0.28453 0.66449 0.71629 0.0
H3829 H 0.43961 0.70581 0.83265 0.0
H3830 H 0.23928 0.61725 0.49984 0.0
H3831 H 0.2099 0.59336 0.49407 0.0
H3832 H 0.20341 0.60651 0.55318 0.0
H3833 H 0.23288 0.63074 0.55895 0.0
H3834 H 0.18474 0.56401 0.52744 0.0
H3835 H 0.19208 0.63568 0.53651 0.0
H3836 H 0.20573 0.66767 0.52919 0.0
H3837 H 0.18937 0.64425 0.47026 0.0
H3838 H 0.176 0.612 0.47726 0.0
H3839 H 0.0913 0.54913 0.52929 0.0
H3840 H 0.12339 0.55637 0.53335 0.0
H3841 H 0.12406 0.58724 0.48739 0.0
H3842 H 0.09281 0.5869 0.49027 0.0
H3843 H 0.1489 0.60519 0.50457 0.0
H3844 H 0.13964 0.53261 0.49345 0.0
H3845 H 0.12815 0.49986 0.50006 0.0
H3846 H 0.14635 0.52167 0.55876 0.0
H3847 H 0.15909 0.55429 0.55236 0.0
C3848 C 0.23185 0.61437 0.51167 0.0
C3849 C 0.23785 0.62573 0.52973 0.0
C3850 C 0.21527 0.60066 0.50841 0.0
C3851 C 0.20468 0.5984 0.52322 0.0
C3852 C 0.21166 0.60808 0.54171 0.0
C3853 C 0.22828 0.62195 0.54497 0.0
C3854 C 0.18516 0.5908 0.51874 0.0
C3855 C 0.17662 0.57264 0.52214 0.0
C3856 C 0.17499 0.60212 0.51155 0.0
C3857 C 0.1834 0.6214 0.50737 0.0
C3858 C 0.19168 0.63729 0.52198 0.0
C3859 C 0.19931 0.65548 0.51789 0.0
C3860 C 0.19851 0.65797 0.49926 0.0
C3861 C 0.19007 0.64228 0.48468 0.0
C3862 C 0.18251 0.62405 0.48869 0.0
C3863 C 0.0987 0.55947 0.52211 0.0
C3864 C 0.08993 0.56982 0.51206 0.0
C3865 C 0.11721 0.56214 0.52282 0.0
C3866 C 0.12707 0.57244 0.51058 0.0
C3867 C 0.11751 0.58023 0.498 0.0
C3868 C 0.09944 0.5799 0.49949 0.0
C3869 C 0.14724 0.5772 0.51221 0.0
C3870 C 0.1563 0.59539 0.50869 0.0
C3871 C 0.15779 0.56546 0.51873 0.0
C3872 C 0.15009 0.54587 0.52244 0.0
C3873 C 0.14113 0.5304 0.50775 0.0
C3874 C 0.13441 0.51186 0.51147 0.0
C3875 C 0.13608 0.50874 0.52985 0.0
C3876 C 0.14495 0.52409 0.54454 0.0
C3877 C 0.15217 0.54253 0.54084 0.0
H3878 H 0.13066 0.4944 0.53267 0.0
H3879 H 0.20435 0.67208 0.49613 0.0
H3880 H 0.68847 0.97445 0.73497 0.0
H3881 H 0.70063 0.94605 0.73383 0.0
H3882 H 0.75447 0.98384 0.74933 0.0
H3883 H 0.74233 0.01227 0.75118 0.0
H3884 H 0.74923 0.94631 0.71969 0.0
H3885 H 0.74063 0.97466 0.78303 0.0
H3886 H 0.72301 0.98828 0.80662 0.0
H3887 H 0.68186 0.93426 0.79487 0.0
H3888 H 0.69911 0.92047 0.77085 0.0
H3889 H 0.803 0.91387 0.78336 0.0
H3890 H 0.78641 0.92929 0.76355 0.0
H3891 H 0.73959 0.88043 0.7569 0.0
H3892 H 0.75638 0.86473 0.77637 0.0
H3893 H 0.73661 0.91793 0.77626 0.0
H3894 H 0.75404 0.88839 0.71836 0.0
H3895 H 0.77484 0.87831 0.69647 0.0
H3896 H 0.80365 0.93795 0.70073 0.0
H3897 H 0.78319 0.9484 0.7228 0.0
C3898 C 0.70292 0.9766 0.73784 0.0
C3899 C 0.71455 0.99533 0.74342 0.0
C3900 C 0.7098 0.96048 0.73704 0.0
C3901 C 0.72836 0.96307 0.74138 0.0
C3902 C 0.74012 0.98175 0.74576 0.0
C3903 C 0.73319 0.99787 0.74707 0.0
C3904 C 0.73518 0.94664 0.7444 0.0
C3905 C 0.74648 0.93991 0.73194 0.0
C3906 C 0.73135 0.93853 0.76039 0.0
C3907 C 0.72098 0.94666 0.77491 0.0
C3908 C 0.72771 0.96577 0.78529 0.0
C3909 C 0.71782 0.97351 0.79877 0.0
C3910 C 0.70128 0.96218 0.80218 0.0
C3911 C 0.69464 0.94305 0.79215 0.0
C3912 C 0.70446 0.93527 0.77858 0.0
C3913 C 0.78933 0.90627 0.77721 0.0
C3914 C 0.78075 0.88836 0.78141 0.0
C3915 C 0.77997 0.91491 0.76578 0.0
C3916 C 0.7619 0.90582 0.75871 0.0
C3917 C 0.75364 0.88742 0.76207 0.0
C3918 C 0.76312 0.8786 0.77323 0.0
C3919 C 0.75088 0.91742 0.75157 0.0
C3920 C 0.73888 0.9236 0.76352 0.0
C3921 C 0.75459 0.9254 0.73544 0.0
C3922 C 0.76713 0.91916 0.72238 0.0
C3923 C 0.76493 0.89935 0.71479 0.0
C3924 C 0.77664 0.89358 0.70231 0.0
C3925 C 0.79061 0.90748 0.6973 0.0
C3926 C 0.79285 0.9272 0.70466 0.0
C3927 C 0.78117 0.93305 0.71713 0.0
H3928 H 0.79968 0.90297 0.68766 0.0
H3929 H 0.69364 0.96818 0.81264 0.0
H3930 H 0.72836 0.88332 0.5204 0.0
H3931 H 0.70562 0.90148 0.51905 0.0
H3932 H 0.74697 0.95533 0.537 0.0
H3933 H 0.76992 0.93718 0.53856 0.0
H3934 H 0.71623 0.95569 0.55483 0.0
H3935 H 0.73049 0.9402 0.49111 0.0
H3936 H 0.73478 0.9182 0.46263 0.0
H3937 H 0.67941 0.88539 0.4583 0.0
H3938 H 0.67486 0.9071 0.4869 0.0
H3939 H 0.67428 0.02207 0.522 0.0
H3940 H 0.69328 1.00106 0.52877 0.0
H3941 H 0.64785 0.95082 0.51124 0.0
H3942 H 0.62867 0.97194 0.50439 0.0
H3943 H 0.67862 0.94668 0.49419 0.0
H3944 H 0.66362 0.9624 0.55672 0.0
H3945 H 0.65898 0.98367 0.5855 0.0
H3946 H 0.71475 0.01566 0.59199 0.0
H3947 H 0.71978 0.99442 0.5633 0.0
C3948 C 0.73268 0.89903 0.52412 0.0
C3949 C 0.75104 0.90878 0.52948 0.0
C3950 C 0.71962 0.9094 0.52331 0.0
C3951 C 0.72456 0.92979 0.52773 0.0
C3952 C 0.74281 0.9396 0.53351 0.0
C3953 C 0.75594 0.92921 0.53431 0.0
C3954 C 0.71074 0.94081 0.52578 0.0
C3955 C 0.70815 0.95387 0.54152 0.0
C3956 C 0.69976 0.93804 0.50858 0.0
C3957 C 0.70238 0.92517 0.49122 0.0
C3958 C 0.71926 0.92823 0.48414 0.0
C3959 C 0.72173 0.91583 0.46797 0.0
C3960 C 0.70739 0.90038 0.45869 0.0
C3961 C 0.69052 0.89735 0.46552 0.0
C3962 C 0.68797 0.90972 0.48168 0.0
C3963 C 0.66829 0.00656 0.51972 0.0
C3964 C 0.65003 0.99865 0.51248 0.0
C3965 C 0.67913 0.99457 0.52372 0.0
C3966 C 0.67202 0.97435 0.52053 0.0
C3967 C 0.65364 0.96639 0.51379 0.0
C3968 C 0.64268 0.97846 0.50998 0.0
C3969 C 0.68422 0.96169 0.52319 0.0
C3970 C 0.68656 0.94836 0.50756 0.0
C3971 C 0.69491 0.96416 0.54049 0.0
C3972 C 0.69204 0.97692 0.5578 0.0
C3973 C 0.67487 0.97404 0.56423 0.0
C3974 C 0.67217 0.98607 0.58053 0.0
C3975 C 0.68651 1.00111 0.59049 0.0
C3976 C 0.70364 0.00402 0.58424 0.0
C3977 C 0.70645 0.99193 0.56801 0.0
H3978 H 0.68437 0.01044 0.60308 0.0
H3979 H 0.70934 0.89077 0.44619 0.0
H3980 H 0.38095 0.51126 0.74755 0.0
H3981 H 0.36266 0.47773 0.74623 0.0
H3982 H 0.40269 0.46975 0.78615 0.0
H3983 H 0.4208 0.50263 0.78717 0.0
H3984 H 0.3948 0.43942 0.76008 0.0
H3985 H 0.35761 0.47378 0.79594 0.0
H3986 H 0.33925 0.49734 0.80179 0.0
H3987 H 0.30344 0.46725 0.75184 0.0
H3988 H 0.32173 0.44363 0.74559 0.0
H3989 H 0.35071 0.34899 0.78141 0.0
H3990 H 0.36515 0.38283 0.78168 0.0
H3991 H 0.31968 0.38597 0.74564 0.0
H3992 H 0.30454 0.35216 0.74644 0.0
H3993 H 0.32959 0.41865 0.76721 0.0
H3994 H 0.36641 0.38345 0.73191 0.0
H3995 H 0.38529 0.36041 0.72586 0.0
H3996 H 0.42246 0.39252 0.77418 0.0
H3997 H 0.40371 0.41562 0.78065 0.0
C3998 C 0.38557 0.50253 0.75642 0.0
C3999 C 0.40238 0.50997 0.76764 0.0
C4000 C 0.37512 0.48316 0.7556 0.0
C4001 C 0.38109 0.4707 0.76607 0.0
C4002 C 0.39757 0.47856 0.77771 0.0
C4003 C 0.40793 0.49764 0.77843 0.0
C4004 C 0.37096 0.4494 0.76466 0.0
C4005 C 0.38056 0.43502 0.76186 0.0
C4006 C 0.3522 0.44302 0.76637 0.0
C4007 C 0.34112 0.45707 0.7702 0.0
C4008 C 0.34588 0.47226 0.78615 0.0
C4009 C 0.33548 0.48562 0.78954 0.0
C4010 C 0.32022 0.48383 0.77717 0.0
C4011 C 0.31528 0.46864 0.7614 0.0
C4012 C 0.32565 0.45525 0.75794 0.0
C4013 C 0.34361 0.35674 0.77354 0.0
C4014 C 0.3262 0.34742 0.764 0.0
C4015 C 0.35213 0.37634 0.77348 0.0
C4016 C 0.344 0.38746 0.76326 0.0
C4017 C 0.32657 0.37815 0.75367 0.0
C4018 C 0.31783 0.35859 0.75409 0.0
C4019 C 0.3535 0.40862 0.76287 0.0
C4020 C 0.3438 0.42298 0.76532 0.0
C4021 C 0.37224 0.41502 0.76079 0.0
C4022 C 0.38356 0.40117 0.75685 0.0
C4023 C 0.37856 0.38554 0.7413 0.0
C4024 C 0.38924 0.37247 0.73779 0.0
C4025 C 0.40504 0.37498 0.74965 0.0
C4026 C 0.41022 0.39059 0.76502 0.0
C4027 C 0.39958 0.40368 0.7686 0.0
H4028 H 0.41328 0.36484 0.74691 0.0
H4029 H 0.31219 0.49419 0.77981 0.0
H4030 H 0.18977 0.61181 0.22828 0.0
H4031 H 0.21539 0.64079 0.235 0.0
H4032 H 0.25183 0.60543 0.24288 0.0
H4033 H 0.22657 0.57638 0.23537 0.0
H4034 H 0.24283 0.64161 0.27548 0.0
H4035 H 0.26787 0.62161 0.21723 0.0
H4036 H 0.26312 0.60786 0.18312 0.0
H4037 H 0.24163 0.65493 0.17302 0.0
H4038 H 0.24589 0.66871 0.20711 0.0
H4039 H 0.30491 0.74165 0.28957 0.0
H4040 H 0.29894 0.70616 0.27973 0.0
H4041 H 0.24534 0.70345 0.25575 0.0
H4042 H 0.25102 0.73859 0.26634 0.0
H4043 H 0.27428 0.68219 0.23348 0.0
H4044 H 0.23403 0.68919 0.2846 0.0
H4045 H 0.2287 0.70173 0.31707 0.0
H4046 H 0.27199 0.68108 0.33879 0.0
H4047 H 0.27775 0.6687 0.30634 0.0
C4048 C 0.20333 0.61019 0.23067 0.0
C4049 C 0.20626 0.592 0.23129 0.0
C4050 C 0.21786 0.62664 0.23458 0.0
C4051 C 0.23526 0.62497 0.23947 0.0
C4052 C 0.23842 0.60676 0.23897 0.0
C4053 C 0.22399 0.59026 0.23454 0.0
C4054 C 0.2495 0.64258 0.24723 0.0
C4055 C 0.25046 0.65027 0.2665 0.0
C4056 C 0.25881 0.65379 0.23526 0.0
C4057 C 0.2572 0.64618 0.2147 0.0
C4058 C 0.2621 0.62899 0.20772 0.0
C4059 C 0.25947 0.62118 0.1884 0.0
C4060 C 0.25208 0.63051 0.1759 0.0
C4061 C 0.24738 0.64773 0.1827 0.0
C4062 C 0.24993 0.65556 0.20202 0.0
C4063 C 0.29204 0.73341 0.28192 0.0
C4064 C 0.2787 0.74264 0.27767 0.0
C4065 C 0.28864 0.71329 0.27642 0.0
C4066 C 0.27184 0.70251 0.26687 0.0
C4067 C 0.25846 0.71176 0.26294 0.0
C4068 C 0.26173 0.7317 0.26879 0.0
C4069 C 0.26741 0.68139 0.26153 0.0
C4070 C 0.26798 0.67312 0.2427 0.0
C4071 C 0.25899 0.66981 0.27372 0.0
C4072 C 0.25646 0.67828 0.29314 0.0
C4073 C 0.24259 0.68762 0.29631 0.0
C4074 C 0.23944 0.6946 0.31468 0.0
C4075 C 0.24993 0.69208 0.32997 0.0
C4076 C 0.26385 0.68295 0.32692 0.0
C4077 C 0.2671 0.67601 0.30854 0.0
H4078 H 0.2472 0.69711 0.34417 0.0
H4079 H 0.24999 0.6244 0.16095 0.0
H4080 H 0.48706 0.70431 0.46418 0.0
H4081 H 0.49501 0.67838 0.47721 0.0
H4082 H 0.55004 0.69845 0.46532 0.0
H4083 H 0.54184 0.72396 0.45138 0.0
H4084 H 0.54212 0.66217 0.45736 0.0
H4085 H 0.53368 0.70559 0.5114 0.0
H4086 H 0.51857 0.72564 0.5326 0.0
H4087 H 0.47748 0.67473 0.53627 0.0
H4088 H 0.49197 0.65438 0.51461 0.0
H4089 H 0.57501 0.60027 0.50369 0.0
H4090 H 0.56962 0.6306 0.4993 0.0
H4091 H 0.51348 0.60892 0.50639 0.0
H4092 H 0.5196 0.57901 0.51297 0.0
H4093 H 0.52297 0.64696 0.51805 0.0
H4094 H 0.53179 0.60456 0.46118 0.0
H4095 H 0.54951 0.58543 0.44251 0.0
H4096 H 0.59292 0.63685 0.44711 0.0
H4097 H 0.57555 0.65623 0.466 0.0
C4098 C 0.50088 0.70321 0.46427 0.0
C4099 C 0.51381 0.71631 0.45668 0.0
C4100 C 0.50547 0.68841 0.47196 0.0
C4101 C 0.52328 0.68651 0.47279 0.0
C4102 C 0.5362 0.69948 0.465 0.0
C4103 C 0.53151 0.71411 0.45697 0.0
C4104 C 0.52827 0.67064 0.48107 0.0
C4105 C 0.53811 0.65916 0.47079 0.0
C4106 C 0.52289 0.66619 0.49851 0.0
C4107 C 0.51381 0.67847 0.51113 0.0
C4108 C 0.52127 0.69867 0.51648 0.0
C4109 C 0.5128 0.7101 0.5286 0.0
C4110 C 0.497 0.70147 0.53567 0.0
C4111 C 0.48962 0.68139 0.53064 0.0
C4112 C 0.49794 0.66991 0.51842 0.0
C4113 C 0.56181 0.60206 0.50534 0.0
C4114 C 0.54796 0.58693 0.50889 0.0
C4115 C 0.55853 0.6195 0.50232 0.0
C4116 C 0.54093 0.62193 0.50161 0.0
C4117 C 0.52718 0.60745 0.50651 0.0
C4118 C 0.5307 0.59025 0.51025 0.0
C4119 C 0.53668 0.63864 0.49428 0.0
C4120 C 0.52694 0.65015 0.50466 0.0
C4121 C 0.54233 0.64334 0.47707 0.0
C4122 C 0.55241 0.6318 0.46506 0.0
C4123 C 0.54511 0.61177 0.45819 0.0
C4124 C 0.55511 0.60088 0.44761 0.0
C4125 C 0.57234 0.60991 0.44365 0.0
C4126 C 0.57958 0.62987 0.45018 0.0
C4127 C 0.56966 0.64081 0.4608 0.0
H4128 H 0.58008 0.60145 0.4355 0.0
H4129 H 0.49051 0.71032 0.54512 0.0
H4130 H 0.62224 0.32178 0.66651 0.0
H4131 H 0.6466 0.32035 0.68956 0.0
H4132 H 0.67814 0.30699 0.6444 0.0
H4133 H 0.65432 0.30865 0.62159 0.0
H4134 H 0.67752 0.28255 0.66929 0.0
H4135 H 0.68918 0.35129 0.67174 0.0
H4136 H 0.68203 0.38304 0.67636 0.0
H4137 H 0.67185 0.37934 0.7332 0.0
H4138 H 0.6787 0.34741 0.72882 0.0
H4139 H 0.76416 0.29461 0.71775 0.0
H4140 H 0.73906 0.29761 0.69716 0.0
H4141 H 0.71365 0.3167 0.74567 0.0
H4142 H 0.73861 0.31376 0.76622 0.0
H4143 H 0.70989 0.33782 0.72034 0.0
H4144 H 0.6993 0.26989 0.71871 0.0
H4145 H 0.70654 0.2382 0.7145 0.0
H4146 H 0.71388 0.23975 0.65665 0.0
H4147 H 0.70701 0.27164 0.6606 0.0
C4148 C 0.63441 0.31866 0.66152 0.0
C4149 C 0.63619 0.31543 0.64208 0.0
C4150 C 0.64838 0.31786 0.67473 0.0
C4151 C 0.66434 0.31354 0.66881 0.0
C4152 C 0.66605 0.31028 0.64945 0.0
C4153 C 0.65232 0.31136 0.63636 0.0
C4154 C 0.67929 0.31212 0.68248 0.0
C4155 C 0.68468 0.29472 0.68034 0.0
C4156 C 0.68849 0.32775 0.69726 0.0
C4157 C 0.68422 0.34685 0.69987 0.0
C4158 C 0.68522 0.35715 0.68516 0.0
C4159 C 0.68127 0.3752 0.68775 0.0
C4160 C 0.67643 0.38317 0.70504 0.0
C4161 C 0.67556 0.37312 0.71979 0.0
C4162 C 0.67948 0.35505 0.71727 0.0
C4163 C 0.75331 0.29952 0.72416 0.0
C4164 C 0.75372 0.30401 0.74395 0.0
C4165 C 0.73882 0.30115 0.71226 0.0
C4166 C 0.72416 0.30719 0.71971 0.0
C4167 C 0.72468 0.31201 0.73941 0.0
C4168 C 0.73914 0.31033 0.75129 0.0
C4169 C 0.70825 0.30828 0.70706 0.0
C4170 C 0.70268 0.32559 0.70937 0.0
C4171 C 0.69878 0.2925 0.69248 0.0
C4172 C 0.70283 0.27327 0.69002 0.0
C4173 C 0.70261 0.26355 0.70513 0.0
C4174 C 0.70663 0.24554 0.70279 0.0
C4175 C 0.71072 0.23699 0.68534 0.0
C4176 C 0.71075 0.24641 0.67017 0.0
C4177 C 0.70679 0.26446 0.67246 0.0
H4178 H 0.71383 0.22304 0.68355 0.0
H4179 H 0.67339 0.39716 0.70703 0.0
H4180 H 0.03924 0.3312 0.94142 0.0
H4181 H 0.0433 0.36624 0.95196 0.0
H4182 H 0.01731 0.35595 0.00144 0.0
H4183 H 0.01313 0.32113 0.99102 0.0
H4184 H 0.00201 0.37809 0.98366 0.0
H4185 H 0.06239 0.37794 0.00457 0.0
H4186 H 0.09197 0.37084 0.00132 0.0
H4187 H 0.10157 0.40554 0.95914 0.0
H4188 H 0.07192 0.41266 0.96196 0.0
H4189 H 0.03273 0.47764 0.03936 0.0
H4190 H 0.02557 0.44238 0.02722 0.0
H4191 H 0.03535 0.45245 0.97166 0.0
H4192 H 0.04183 0.48763 0.98363 0.0
H4193 H 0.05856 0.43087 0.99147 0.0
H4194 H 0.99515 0.42193 0.9645 0.0
H4195 H 0.96393 0.42527 0.9649 0.0
H4196 H 0.96101 0.40813 0.01843 0.0
H4197 H 0.99205 0.40416 0.01802 0.0
C4198 C 0.03479 0.33644 0.95476 0.0
C4199 C 0.02576 0.3233 0.96529 0.0
C4200 C 0.03708 0.3565 0.96077 0.0
C4201 C 0.0305 0.36377 0.97747 0.0
C4202 C 0.02236 0.35072 0.98844 0.0
C4203 C 0.02006 0.33077 0.98248 0.0
C4204 C 0.03088 0.38471 0.98293 0.0
C4205 C 0.01446 0.38957 0.9856 0.0
C4206 C 0.04698 0.39982 0.985 0.0
C4207 C 0.06486 0.39567 0.98334 0.0
C4208 C 0.07075 0.38394 0.99449 0.0
C4209 C 0.08754 0.37993 0.99275 0.0
C4210 C 0.09862 0.38769 0.97999 0.0
C4211 C 0.09296 0.39952 0.969 0.0
C4212 C 0.07617 0.40357 0.97068 0.0
C4213 C 0.03252 0.47224 0.02441 0.0
C4214 C 0.03739 0.48525 0.01233 0.0
C4215 C 0.02855 0.45214 0.01751 0.0
C4216 C 0.02998 0.44481 0.99854 0.0
C4217 C 0.03405 0.45779 0.98629 0.0
C4218 C 0.03761 0.47784 0.99311 0.0
C4219 C 0.02973 0.42407 0.99226 0.0
C4220 C 0.04618 0.4193 0.9895 0.0
C4221 C 0.01373 0.409 0.99013 0.0
C4222 C 0.99587 0.41298 0.99133 0.0
C4223 C 0.98785 0.41903 0.9764 0.0
C4224 C 0.97013 0.42077 0.97651 0.0
C4225 C 0.96048 0.41688 0.99167 0.0
C4226 C 0.9685 0.41114 0.00671 0.0
C4227 C 0.9861 0.40903 0.00649 0.0
H4228 H 0.94681 0.41839 0.9918 0.0
H4229 H 0.11161 0.38457 0.97866 0.0
H4230 H 0.02937 0.78458 0.13858 0.0
H4231 H 0.00191 0.77852 0.1545 0.0
H4232 H 0.00334 0.83929 0.16275 0.0
H4233 H 0.03075 0.84545 0.14701 0.0
H4234 H 0.99714 0.82663 0.19437 0.0
H4235 H 0.97234 0.80485 0.12995 0.0
H4236 H 0.96864 0.78601 0.09746 0.0
H4237 H 0.95344 0.7328 0.11758 0.0
H4238 H 0.95731 0.75132 0.15025 0.0
H4239 H 0.91146 0.81622 0.22966 0.0
H4240 H 0.93492 0.82299 0.20844 0.0
H4241 H 0.93728 0.76328 0.19972 0.0
H4242 H 0.9139 0.7565 0.22077 0.0
H4243 H 0.94058 0.77646 0.16711 0.0
H4244 H 0.96751 0.79825 0.23144 0.0
H4245 H 0.97185 0.81701 0.26402 0.0
H4246 H 0.98348 0.8703 0.24372 0.0
H4247 H 0.97893 0.85183 0.21097 0.0
C4248 C 0.02384 0.79666 0.14376 0.0
C4249 C 0.03239 0.81553 0.14151 0.0
C4250 C 0.00803 0.79315 0.15278 0.0
C4251 C 1.00035 0.8084 0.15975 0.0
C4252 C 0.0089 0.82723 0.15753 0.0
C4253 C 0.02463 0.83073 0.14847 0.0
C4254 C 0.98384 0.80496 0.16997 0.0
C4255 C 0.98468 0.81587 0.18823 0.0
C4256 C 0.96761 0.79068 0.16222 0.0
C4257 C 0.96531 0.77948 0.14259 0.0
C4258 C 0.96837 0.78913 0.12748 0.0
C4259 C 0.96621 0.77851 0.10902 0.0
C4260 C 0.96086 0.75822 0.10546 0.0
C4261 C 0.95762 0.74852 0.12036 0.0
C4262 C 0.95978 0.75907 0.13885 0.0
C4263 C 0.91674 0.80447 0.22292 0.0
C4264 C 0.9109 0.78586 0.22705 0.0
C4265 C 0.93027 0.80838 0.21089 0.0
C4266 C 0.93815 0.79372 0.20263 0.0
C4267 C 0.93155 0.77489 0.20592 0.0
C4268 C 0.91821 0.77104 0.21805 0.0
C4269 C 0.95394 0.7981 0.19151 0.0
C4270 C 0.95299 0.78733 0.17313 0.0
C4271 C 0.97011 0.81253 0.19911 0.0
C4272 C 0.97264 0.82365 0.21875 0.0
C4273 C 0.9708 0.81396 0.23391 0.0
C4274 C 0.97333 0.82455 0.25241 0.0
C4275 C 0.97787 0.84484 0.25593 0.0
C4276 C 0.97991 0.85458 0.24096 0.0
C4277 C 0.97735 0.84407 0.22243 0.0
H4278 H 0.97986 0.853 0.27027 0.0
H4279 H 0.95919 0.75003 0.09116 0.0
H4280 H 0.50192 0.32108 0.13977 0.0
H4281 H 0.5075 0.34806 0.12297 0.0
H4282 H 0.51945 0.31073 0.07483 0.0
H4283 H 0.51354 0.28362 0.09124 0.0
H4284 H 0.54684 0.34883 0.09177 0.0
H4285 H 0.48404 0.3189 0.06727 0.0
H4286 H 0.4518 0.30612 0.0706 0.0
H4287 H 0.45023 0.36212 0.10116 0.0
H4288 H 0.48257 0.37516 0.09822 0.0
H4289 H 0.54617 0.39241 0.01253 0.0
H4290 H 0.53556 0.36954 0.03282 0.0
H4291 H 0.53289 0.41676 0.07712 0.0
H4292 H 0.54459 0.43994 0.05757 0.0
H4293 H 0.50035 0.37682 0.06537 0.0
H4294 H 0.56305 0.40691 0.09003 0.0
H4295 H 0.5953 0.41972 0.08662 0.0
H4296 H 0.59696 0.36355 0.05659 0.0
H4297 H 0.56461 0.35053 0.05955 0.0
C4298 C 0.50563 0.31863 0.12556 0.0
C4299 C 0.50741 0.30035 0.11679 0.0
C4300 C 0.50872 0.33397 0.11602 0.0
C4301 C 0.51386 0.3312 0.09778 0.0
C4302 C 0.51547 0.31297 0.08894 0.0
C4303 C 0.51207 0.29756 0.0983 0.0
C4304 C 0.51849 0.34755 0.08814 0.0
C4305 C 0.5367 0.35494 0.08597 0.0
C4306 C 0.5052 0.35568 0.08107 0.0
C4307 C 0.48576 0.34793 0.08274 0.0
C4308 C 0.47686 0.32844 0.07487 0.0
C4309 C 0.45856 0.32116 0.07664 0.0
C4310 C 0.44898 0.33328 0.08615 0.0
C4311 C 0.45768 0.35273 0.09384 0.0
C4312 C 0.47599 0.36008 0.09211 0.0
C4313 C 0.5435 0.39802 0.02662 0.0
C4314 C 0.54638 0.41808 0.03339 0.0
C4315 C 0.53721 0.38491 0.03806 0.0
C4316 C 0.53341 0.3916 0.05629 0.0
C4317 C 0.53559 0.41144 0.06295 0.0
C4318 C 0.54222 0.42462 0.05167 0.0
C4319 C 0.52866 0.37785 0.06881 0.0
C4320 C 0.51049 0.37092 0.07149 0.0
C4321 C 0.54197 0.37018 0.07652 0.0
C4322 C 0.5614 0.37785 0.07479 0.0
C4323 C 0.57026 0.39738 0.0825 0.0
C4324 C 0.58855 0.40466 0.0807 0.0
C4325 C 0.59815 0.39247 0.07133 0.0
C4326 C 0.58949 0.37298 0.0638 0.0
C4327 C 0.57118 0.36564 0.06555 0.0
H4328 H 0.61232 0.39812 0.06995 0.0
H4329 H 0.43482 0.32762 0.08751 0.0
H4330 H 0.0465 0.29742 0.36283 0.0
H4331 H 0.0177 0.29631 0.34569 0.0
H4332 H 0.03164 0.35907 0.35693 0.0
H4333 H 0.05982 0.3601 0.3751 0.0
H4334 H 0.00071 0.34656 0.36723 0.0
H4335 H 0.02805 0.32809 0.3105 0.0
H4336 H 0.0429 0.3082 0.28871 0.0
H4337 H 0.9994 0.25767 0.28755 0.0
H4338 H 0.98437 0.27723 0.30943 0.0
H4339 H 0.93657 0.36505 0.30336 0.0
H4340 H 0.96284 0.36174 0.32208 0.0
H4341 H 0.93856 0.30024 0.31523 0.0
H4342 H 0.91247 0.30334 0.29624 0.0
H4343 H 0.97235 0.30844 0.30425 0.0
H4344 H 0.94398 0.32739 0.35853 0.0
H4345 H 0.92895 0.34689 0.38046 0.0
H4346 H 0.97442 0.39652 0.38612 0.0
H4347 H 0.98966 0.37738 0.36411 0.0
C4348 C 0.04344 0.31092 0.36133 0.0
C4349 C 0.05506 0.32884 0.37042 0.0
C4350 C 0.02708 0.31029 0.35144 0.0
C4351 C 0.0225 0.32762 0.35002 0.0
C4352 C 0.03481 0.34553 0.35803 0.0
C4353 C 0.05086 0.34613 0.36838 0.0
C4354 C 0.0042 0.32732 0.34218 0.0
C4355 C 0.99466 0.33849 0.35329 0.0
C4356 C 0.99589 0.31593 0.32447 0.0
C4357 C 0.00521 0.30408 0.31177 0.0
C4358 C 0.02176 0.3127 0.30575 0.0
C4359 C 0.03017 0.3015 0.29334 0.0
C4360 C 0.02213 0.28168 0.2868 0.0
C4361 C 0.00564 0.27301 0.29265 0.0
C4362 C 0.99716 0.28415 0.30503 0.0
C4363 C 0.93681 0.35087 0.30597 0.0
C4364 C 0.92258 0.33445 0.29827 0.0
C4365 C 0.95167 0.34903 0.31684 0.0
C4366 C 0.9525 0.33076 0.32009 0.0
C4367 C 0.93806 0.31446 0.31293 0.0
C4368 C 0.92318 0.31628 0.30214 0.0
C4369 C 0.96935 0.32838 0.32895 0.0
C4370 C 0.97848 0.31652 0.31816 0.0
C4371 C 0.97734 0.3392 0.34691 0.0
C4372 C 0.96787 0.35099 0.3595 0.0
C4373 C 0.95067 0.34253 0.36425 0.0
C4374 C 0.94215 0.3535 0.37677 0.0
C4375 C 0.9507 0.37294 0.38464 0.0
C4376 C 0.96779 0.38147 0.38 0.0
C4377 C 0.97639 0.37056 0.36752 0.0
H4378 H 0.9441 0.38138 0.39437 0.0
H4379 H 0.02865 0.27304 0.27716 0.0
H4380 H 0.98758 0.72637 0.61149 0.0
H4381 H 0.98637 0.70023 0.58445 0.0
H4382 H 0.99756 0.6639 0.6221 0.0
H4383 H 0.99866 0.68955 0.64907 0.0
H4384 H 0.02389 0.68309 0.59057 0.0
H4385 H 0.96789 0.64035 0.60795 0.0
H4386 H 0.93567 0.63405 0.61293 0.0
H4387 H 0.92268 0.64376 0.55773 0.0
H4388 H 0.95495 0.65046 0.55261 0.0
H4389 H 0.04104 0.59331 0.56526 0.0
H4390 H 0.03069 0.621 0.57992 0.0
H4391 H 0.99528 0.61498 0.52942 0.0
H4392 H 0.00415 0.58613 0.51539 0.0
H4393 H 0.97904 0.62198 0.55899 0.0
H4394 H 0.03764 0.65055 0.54082 0.0
H4395 H 0.07028 0.65399 0.53948 0.0
H4396 H 0.07967 0.66986 0.59981 0.0
H4397 H 0.04711 0.66623 0.60155 0.0
C4398 C 0.98928 0.71261 0.61399 0.0
C4399 C 0.9936 0.71005 0.6323 0.0
C4400 C 0.98843 0.69774 0.59859 0.0
C4401 C 0.99169 0.68033 0.60155 0.0
C4402 C 0.99467 0.67726 0.61979 0.0
C4403 C 0.99549 0.69199 0.63512 0.0
C4404 C 0.99592 0.66693 0.58617 0.0
C4405 C 0.01415 0.66982 0.58329 0.0
C4406 C 0.98303 0.64994 0.5769 0.0
C4407 C 0.96379 0.64627 0.58006 0.0
C4408 C 0.95819 0.64144 0.59701 0.0
C4409 C 0.93992 0.63772 0.59983 0.0
C4410 C 0.92714 0.63861 0.58569 0.0
C4411 C 0.9326 0.64318 0.5687 0.0
C4412 C 0.95088 0.64697 0.56585 0.0
C4413 C 0.031 0.59781 0.5573 0.0
C4414 C 0.02396 0.58807 0.53886 0.0
C4415 C 0.02528 0.61376 0.56559 0.0
C4416 C 0.01288 0.62046 0.55535 0.0
C4417 C 0.00523 0.61026 0.5373 0.0
C4418 C 0.01053 0.59396 0.52923 0.0
C4419 C 0.00729 0.63763 0.5639 0.0
C4420 C 0.98882 0.63554 0.56545 0.0
C4421 C 0.02014 0.65521 0.57241 0.0
C4422 C 0.03988 0.65813 0.57129 0.0
C4423 C 0.04666 0.65477 0.55379 0.0
C4424 C 0.06516 0.65672 0.55297 0.0
C4425 C 0.07704 0.66213 0.56954 0.0
C4426 C 0.07046 0.66569 0.58698 0.0
C4427 C 0.05199 0.66374 0.58788 0.0
H4428 H 0.09133 0.66357 0.56887 0.0
H4429 H 0.91299 0.63567 0.58788 0.0
H4430 H 0.64095 0.80057 0.86069 0.0
H4431 H 0.66482 0.79604 0.84131 0.0
H4432 H 0.66496 0.84892 0.82199 0.0
H4433 H 0.64088 0.85374 0.84154 0.0
H4434 H 0.66389 0.81492 0.79316 0.0
H4435 H 0.69855 0.85169 0.85219 0.0
H4436 H 0.70752 0.85927 0.88649 0.0
H4437 H 0.71755 0.80314 0.88335 0.0
H4438 H 0.70848 0.79515 0.84912 0.0
H4439 H 0.7457 0.80945 0.75172 0.0
H4440 H 0.71843 0.81558 0.76409 0.0
H4441 H 0.72334 0.78032 0.80524 0.0
H4442 H 0.75239 0.77799 0.79545 0.0
H4443 H 0.72279 0.81168 0.82233 0.0
H4444 H 0.68432 0.77128 0.76568 0.0
H4445 H 0.67432 0.76142 0.73147 0.0
H4446 H 0.67044 0.81906 0.72988 0.0
H4447 H 0.68008 0.82925 0.76401 0.0
C4448 C 0.64596 0.81125 0.85231 0.0
C4449 C 0.63904 0.82751 0.85258 0.0
C4450 C 0.65965 0.80867 0.84135 0.0
C4451 C 0.66663 0.82228 0.83051 0.0
C4452 C 0.65965 0.83837 0.83042 0.0
C4453 C 0.64594 0.84105 0.84152 0.0
C4454 C 0.68098 0.81912 0.81901 0.0
C4455 C 0.6769 0.81433 0.79939 0.0
C4456 C 0.69766 0.81809 0.82738 0.0
C4457 C 0.70269 0.82279 0.8481 0.0
C4458 C 0.70248 0.8409 0.85885 0.0
C4459 C 0.70765 0.84528 0.87827 0.0
C4460 C 0.71307 0.83168 0.8871 0.0
C4461 C 0.71334 0.81366 0.87652 0.0
C4462 C 0.70821 0.80922 0.8571 0.0
C4463 C 0.74054 0.80262 0.76307 0.0
C4464 C 0.75059 0.7925 0.77219 0.0
C4465 C 0.72483 0.80589 0.76997 0.0
C4466 C 0.71867 0.79829 0.78555 0.0
C4467 C 0.72785 0.78645 0.79328 0.0
C4468 C 0.74421 0.78456 0.78736 0.0
C4469 C 0.70524 0.80562 0.79629 0.0
C4470 C 0.70973 0.81184 0.81585 0.0
C4471 C 0.68874 0.80725 0.78785 0.0
C4472 C 0.68309 0.80106 0.76734 0.0
C4473 C 0.68145 0.78187 0.75799 0.0
C4474 C 0.67584 0.77622 0.73866 0.0
C4475 C 0.67197 0.78962 0.72853 0.0
C4476 C 0.67351 0.8087 0.73773 0.0
C4477 C 0.67894 0.8144 0.75707 0.0
H4478 H 0.66768 0.78519 0.71356 0.0
H4479 H 0.71708 0.83512 0.90212 0.0
H4480 H 0.4473 0.54211 0.70185 0.0
H4481 H 0.46043 0.54212 0.67204 0.0
H4482 H 0.49747 0.5977 0.69571 0.0
H4483 H 0.48384 0.59783 0.72563 0.0
H4484 H 0.49082 0.59749 0.65986 0.0
H4485 H 0.50983 0.55254 0.6899 0.0
H4486 H 0.50798 0.52523 0.70619 0.0
H4487 H 0.47612 0.48575 0.6577 0.0
H4488 H 0.47756 0.51289 0.64119 0.0
H4489 H 0.55099 0.5805 0.58699 0.0
H4490 H 0.53823 0.58557 0.61714 0.0
H4491 H 0.49083 0.53944 0.59395 0.0
H4492 H 0.50323 0.53467 0.56373 0.0
H4493 H 0.50519 0.5365 0.63064 0.0
H4494 H 0.48844 0.58535 0.60119 0.0
H4495 H 0.49458 0.61415 0.58664 0.0
H4496 H 0.52815 0.64809 0.63675 0.0
H4497 H 0.52243 0.6194 0.6515 0.0
C4498 C 0.45787 0.55468 0.70061 0.0
C4499 C 0.46397 0.57022 0.71628 0.0
C4500 C 0.46571 0.55453 0.68346 0.0
C4501 C 0.48047 0.56969 0.68118 0.0
C4502 C 0.48621 0.58566 0.69663 0.0
C4503 C 0.47822 0.58585 0.71386 0.0
C4504 C 0.49001 0.56835 0.66306 0.0
C4505 C 0.49409 0.58415 0.65372 0.0
C4506 C 0.49472 0.55117 0.65451 0.0
C4507 C 0.49362 0.53479 0.66439 0.0
C4508 C 0.50228 0.53806 0.68277 0.0
C4509 C 0.50133 0.52261 0.69203 0.0
C4510 C 0.49189 0.50378 0.68301 0.0
C4511 C 0.4834 0.50036 0.66468 0.0
C4512 C 0.48428 0.51577 0.65536 0.0
C4513 C 0.53784 0.57138 0.58816 0.0
C4514 C 0.52847 0.5569 0.57251 0.0
C4515 C 0.53043 0.57438 0.6056 0.0
C4516 C 0.5134 0.56287 0.60831 0.0
C4517 C 0.50399 0.54855 0.59267 0.0
C4518 C 0.51121 0.54582 0.57517 0.0
C4519 C 0.50547 0.56537 0.62725 0.0
C4520 C 0.50182 0.54978 0.63679 0.0
C4521 C 0.50173 0.58293 0.63622 0.0
C4522 C 0.50516 0.60016 0.62737 0.0
C4523 C 0.49727 0.5989 0.60904 0.0
C4524 C 0.50065 0.61522 0.60077 0.0
C4525 C 0.51179 0.63292 0.61074 0.0
C4526 C 0.51955 0.63436 0.62903 0.0
C4527 C 0.51623 0.61807 0.63735 0.0
H4528 H 0.51437 0.64554 0.60432 0.0
H4529 H 0.49118 0.49183 0.69019 0.0
H4530 H 0.80849 0.17499 0.97605 0.0
H4531 H 0.80915 0.19036 0.94851 0.0
H4532 H 0.75081 0.17613 0.94207 0.0
H4533 H 0.75003 0.16024 0.96855 0.0
H4534 H 0.76167 0.17108 0.90962 0.0
H4535 H 0.77776 0.22169 0.96632 0.0
H4536 H 0.79656 0.23994 0.99585 0.0
H4537 H 0.84281 0.25295 0.96554 0.0
H4538 H 0.82427 0.23464 0.93583 0.0
H4539 H 0.72846 0.24075 0.87504 0.0
H4540 H 0.73833 0.21944 0.89302 0.0
H4541 H 0.7937 0.24384 0.88454 0.0
H4542 H 0.78412 0.26683 0.86812 0.0
H4543 H 0.79144 0.24156 0.91981 0.0
H4544 H 0.76708 0.19446 0.86085 0.0
H4545 H 0.74338 0.17742 0.83456 0.0
H4546 H 0.70641 0.15942 0.87383 0.0
H4547 H 0.72982 0.17638 0.90029 0.0
C4548 C 0.79586 0.17477 0.9684 0.0
C4549 C 0.77923 0.16659 0.97452 0.0
C4550 C 0.79625 0.18368 0.95283 0.0
C4551 C 0.78003 0.18459 0.94343 0.0
C4552 C 0.7635 0.17555 0.94904 0.0
C4553 C 0.76309 0.16651 0.96429 0.0
C4554 C 0.77976 0.19568 0.92833 0.0
C4555 C 0.76829 0.18648 0.91175 0.0
C4556 C 0.78856 0.21569 0.93109 0.0
C4557 C 0.79972 0.2266 0.94892 0.0
C4558 C 0.79197 0.22833 0.96599 0.0
C4559 C 0.80256 0.23871 0.98274 0.0
C4560 C 0.82088 0.24754 0.98258 0.0
C4561 C 0.82863 0.24606 0.96565 0.0
C4562 C 0.81809 0.2357 0.94885 0.0
C4563 C 0.74278 0.24181 0.87708 0.0
C4564 C 0.75547 0.25576 0.87024 0.0
C4565 C 0.74838 0.22923 0.88705 0.0
C4566 C 0.76673 0.22967 0.88973 0.0
C4567 C 0.77944 0.24313 0.88246 0.0
C4568 C 0.77389 0.25613 0.87288 0.0
C4569 C 0.77262 0.21712 0.90143 0.0
C4570 C 0.78528 0.22604 0.9173 0.0
C4571 C 0.7642 0.19698 0.89851 0.0
C4572 C 0.75022 0.18667 0.88251 0.0
C4573 C 0.75389 0.18689 0.86385 0.0
C4574 C 0.74051 0.17724 0.84892 0.0
C4575 C 0.72341 0.16734 0.85252 0.0
C4576 C 0.71966 0.16704 0.87104 0.0
C4577 C 0.733 0.1766 0.886 0.0
H4578 H 0.71307 0.15991 0.84095 0.0
H4579 H 0.82906 0.25557 0.99556 0.0
H4580 H 0.10893 0.51487 0.21269 0.0
H4581 H 0.10094 0.5065 0.17848 0.0
H4582 H 0.15598 0.533 0.17051 0.0
H4583 H 0.16419 0.54046 0.20459 0.0
H4584 H 0.12828 0.55071 0.15838 0.0
H4585 H 0.14496 0.49318 0.14744 0.0
H4586 H 0.14945 0.46152 0.15111 0.0
H4587 H 0.09211 0.43627 0.14147 0.0
H4588 H 0.08723 0.46788 0.13799 0.0
H4589 H 0.09519 0.52735 0.05983 0.0
H4590 H 0.11145 0.52157 0.08689 0.0
H4591 H 0.06532 0.52161 0.11781 0.0
H4592 H 0.04877 0.52807 0.09064 0.0
H4593 H 0.09519 0.48966 0.11426 0.0
H4594 H 0.08383 0.55672 0.13525 0.0
H4595 H 0.08368 0.5879 0.12618 0.0
H4596 H 0.13779 0.59416 0.11138 0.0
H4597 H 0.1381 0.56285 0.12011 0.0
C4598 C 0.1194 0.51813 0.20355 0.0
C4599 C 0.13708 0.52825 0.21104 0.0
C4600 C 0.11491 0.51331 0.18412 0.0
C4601 C 0.12795 0.51915 0.17218 0.0
C4602 C 0.14588 0.5282 0.1796 0.0
C4603 C 0.15049 0.53245 0.199 0.0
C4604 C 0.12177 0.51935 0.1528 0.0
C4605 C 0.12131 0.53736 0.14861 0.0
C4606 C 0.11306 0.50196 0.14 0.0
C4607 C 0.11571 0.48299 0.14265 0.0
C4608 C 0.13327 0.48095 0.14635 0.0
C4609 C 0.1359 0.46299 0.14832 0.0
C4610 C 0.12107 0.4469 0.14657 0.0
C4611 C 0.10358 0.44875 0.14284 0.0
C4612 C 0.10088 0.4667 0.14084 0.0
C4613 C 0.08839 0.52622 0.07236 0.0
C4614 C 0.07085 0.52878 0.07339 0.0
C4615 C 0.09767 0.52262 0.08765 0.0
C4616 C 0.0895 0.52129 0.10409 0.0
C4617 C 0.07165 0.52262 0.10498 0.0
C4618 C 0.06229 0.52638 0.0896 0.0
C4619 C 0.10056 0.52081 0.1209 0.0
C4620 C 0.10219 0.50287 0.1242 0.0
C4621 C 0.11085 0.53826 0.1326 0.0
C4622 C 0.11094 0.55745 0.12821 0.0
C4623 C 0.09565 0.56474 0.13 0.0
C4624 C 0.09554 0.58241 0.12492 0.0
C4625 C 0.1107 0.59299 0.11817 0.0
C4626 C 0.12605 0.58595 0.11659 0.0
C4627 C 0.1262 0.56825 0.12161 0.0
H4628 H 0.11057 0.60664 0.1142 0.0
H4629 H 0.12314 0.43298 0.14807 0.0
H4630 H 0.81274 0.87737 0.47293 0.0
H4631 H 0.81239 0.86592 0.43925 0.0
H4632 H 0.77283 0.81288 0.44193 0.0
H4633 H 0.7745 0.82385 0.47625 0.0
H4634 H 0.79654 0.80421 0.42137 0.0
H4635 H 0.76279 0.85209 0.4213 0.0
H4636 H 0.75747 0.88447 0.43117 0.0
H4637 H 0.80586 0.91062 0.40887 0.0
H4638 H 0.81157 0.87846 0.39905 0.0
H4639 H 0.78924 0.77946 0.31989 0.0
H4640 H 0.78597 0.78493 0.35344 0.0
H4641 H 0.81933 0.84374 0.36018 0.0
H4642 H 0.81983 0.83905 0.32621 0.0
H4643 H 0.79324 0.84649 0.37555 0.0
H4644 H 0.82948 0.79896 0.37999 0.0
H4645 H 0.83541 0.76659 0.37228 0.0
H4646 H 0.78281 0.73997 0.38589 0.0
H4647 H 0.77668 0.77213 0.39413 0.0
C4648 C 0.80363 0.8635 0.46619 0.0
C4649 C 0.79327 0.85166 0.4769 0.0
C4650 C 0.80339 0.85694 0.44693 0.0
C4651 C 0.79218 0.83874 0.43785 0.0
C4652 C 0.78147 0.82704 0.44856 0.0
C4653 C 0.78222 0.83336 0.46805 0.0
C4654 C 0.79254 0.83168 0.4174 0.0
C4655 C 0.79565 0.81337 0.41128 0.0
C4656 C 0.79145 0.8436 0.4042 0.0
C4657 C 0.7876 0.86286 0.40947 0.0
C4658 C 0.77228 0.86475 0.4185 0.0
C4659 C 0.76922 0.88307 0.42411 0.0
C4660 C 0.78133 0.89959 0.42066 0.0
C4661 C 0.79648 0.89782 0.41151 0.0
C4662 C 0.79961 0.87954 0.40587 0.0
C4663 C 0.79626 0.79336 0.32873 0.0
C4664 C 0.80518 0.80875 0.32067 0.0
C4665 C 0.79452 0.79647 0.34801 0.0
C4666 C 0.80255 0.81474 0.35968 0.0
C4667 C 0.81275 0.82956 0.35162 0.0
C4668 C 0.81337 0.82684 0.33224 0.0
C4669 C 0.79867 0.81955 0.3796 0.0
C4670 C 0.79439 0.83732 0.38557 0.0
C4671 C 0.79881 0.80716 0.3926 0.0
C4672 C 0.80258 0.78791 0.38752 0.0
C4673 C 0.81917 0.78619 0.38127 0.0
C4674 C 0.82256 0.7679 0.3768 0.0
C4675 C 0.80944 0.75126 0.37837 0.0
C4676 C 0.79294 0.75286 0.38462 0.0
C4677 C 0.78954 0.77111 0.38929 0.0
H4678 H 0.8121 0.73713 0.37485 0.0
H4679 H 0.77896 0.91376 0.42507 0.0
H4680 H 0.47967 0.54204 0.81484 0.0
H4681 H 0.49177 0.53947 0.84557 0.0
H4682 H 0.47615 0.59044 0.87098 0.0
H4683 H 0.46335 0.593 0.83958 0.0
H4684 H 0.51299 0.58888 0.88611 0.0
H4685 H 0.45231 0.54874 0.8775 0.0
H4686 H 0.42598 0.52349 0.86003 0.0
H4687 H 0.45663 0.48106 0.8571 0.0
H4688 H 0.48325 0.50614 0.87435 0.0
H4689 H 0.51153 0.56641 0.98103 0.0
H4690 H 0.50292 0.57231 0.95031 0.0
H4691 H 0.53099 0.53184 0.92416 0.0
H4692 H 0.54136 0.52727 0.95546 0.0
H4693 H 0.48844 0.52846 0.90927 0.0
H4694 H 0.54883 0.56813 0.91924 0.0
H4695 H 0.57591 0.59356 0.93462 0.0
H4696 H 0.54704 0.6371 0.93298 0.0
H4697 H 0.51957 0.61188 0.91851 0.0
C4698 C 0.4787 0.55296 0.82676 0.0
C4699 C 0.47032 0.56785 0.82412 0.0
C4700 C 0.48573 0.55133 0.84464 0.0
C4701 C 0.48507 0.56462 0.8611 0.0
C4702 C 0.47702 0.57985 0.85874 0.0
C4703 C 0.46956 0.5813 0.84063 0.0
C4704 C 0.49243 0.56187 0.88036 0.0
C4705 C 0.50734 0.57581 0.89128 0.0
C4706 C 0.48582 0.54453 0.8872 0.0
C4707 C 0.46981 0.52935 0.87708 0.0
C4708 C 0.45347 0.53405 0.87302 0.0
C4709 C 0.43849 0.51976 0.86318 0.0
C4710 C 0.43964 0.50069 0.85742 0.0
C4711 C 0.45577 0.49584 0.86156 0.0
C4712 C 0.4708 0.51009 0.87139 0.0
C4713 C 0.5162 0.55871 0.96894 0.0
C4714 C 0.52693 0.54571 0.97135 0.0
C4715 C 0.51111 0.56221 0.95109 0.0
C4716 C 0.51592 0.55248 0.93443 0.0
C4717 C 0.5268 0.53959 0.93656 0.0
C4718 C 0.53263 0.53673 0.95467 0.0
C4719 C 0.50898 0.55554 0.91517 0.0
C4720 C 0.49408 0.54161 0.90421 0.0
C4721 C 0.5157 0.57288 0.9083 0.0
C4722 C 0.53195 0.58799 0.91814 0.0
C4723 C 0.54807 0.58305 0.92267 0.0
C4724 C 0.56356 0.59747 0.93118 0.0
C4725 C 0.56319 0.61694 0.93499 0.0
C4726 C 0.54731 0.62202 0.93031 0.0
C4727 C 0.53175 0.60764 0.92201 0.0
H4728 H 0.57524 0.6281 0.94141 0.0
H4729 H 0.42803 0.48965 0.84978 0.0
H4730 H 0.79614 0.22221 0.06173 0.0
H4731 H 0.79196 0.24093 0.09187 0.0
H4732 H 0.7873 0.1905 0.1168 0.0
H4733 H 0.79157 0.17162 0.08671 0.0
H4734 H 0.75835 0.21139 0.12216 0.0
H4735 H 0.82258 0.21984 0.13092 0.0
H4736 H 0.85239 0.2259 0.11898 0.0
H4737 H 0.84861 0.28241 0.11204 0.0
H4738 H 0.81862 0.27654 0.12376 0.0
H4739 H 0.77356 0.24554 0.2187 0.0
H4740 H 0.76953 0.23152 0.18569 0.0
H4741 H 0.78884 0.28854 0.17301 0.0
H4742 H 0.79452 0.30273 0.20675 0.0
H4743 H 0.80751 0.26616 0.15864 0.0
H4744 H 0.74301 0.2568 0.15885 0.0
H4745 H 0.71429 0.24686 0.17231 0.0
H4746 H 0.71895 0.18823 0.16452 0.0
H4747 H 0.74779 0.19782 0.15126 0.0
C4748 C 0.79469 0.21529 0.07378 0.0
C4749 C 0.79422 0.19559 0.07204 0.0
C4750 C 0.79206 0.22585 0.09079 0.0
C4751 C 0.78896 0.2168 0.10616 0.0
C4752 C 0.78938 0.19744 0.10481 0.0
C4753 C 0.7922 0.18688 0.08781 0.0
C4754 C 0.786 0.22799 0.12389 0.0
C4755 C 0.76897 0.22339 0.1303 0.0
C4756 C 0.79993 0.2436 0.13402 0.0
C4757 C 0.81839 0.24775 0.12814 0.0
C4758 C 0.82813 0.23357 0.12686 0.0
C4759 C 0.84503 0.23695 0.12011 0.0
C4760 C 0.85238 0.25453 0.11474 0.0
C4761 C 0.8429 0.26881 0.11623 0.0
C4762 C 0.82597 0.26549 0.12297 0.0
C4763 C 0.77675 0.25525 0.20899 0.0
C4764 C 0.78492 0.27516 0.21528 0.0
C4765 C 0.77404 0.24718 0.18996 0.0
C4766 C 0.7786 0.25901 0.17683 0.0
C4767 C 0.7852 0.27921 0.183 0.0
C4768 C 0.78849 0.28727 0.2022 0.0
C4769 C 0.77963 0.24982 0.15734 0.0
C4770 C 0.7965 0.25465 0.15045 0.0
C4771 C 0.76556 0.23409 0.14709 0.0
C4772 C 0.7476 0.22807 0.154 0.0
C4773 C 0.7379 0.24178 0.15996 0.0
C4774 C 0.72161 0.2362 0.1676 0.0
C4775 C 0.7148 0.21693 0.16926 0.0
C4776 C 0.72421 0.20315 0.16317 0.0
C4777 C 0.7405 0.20863 0.15553 0.0
H4778 H 0.70224 0.21267 0.17527 0.0
H4779 H 0.86543 0.25709 0.10942 0.0
H4780 H 0.14658 0.544 0.27236 0.0
H4781 H 0.12837 0.54133 0.29828 0.0
H4782 H 0.17675 0.55693 0.33744 0.0
H4783 H 0.19529 0.5592 0.31098 0.0
H4784 H 0.14818 0.52793 0.34614 0.0
H4785 H 0.15835 0.59123 0.33279 0.0
H4786 H 0.16017 0.6163 0.31364 0.0
H4787 H 0.10337 0.59461 0.29533 0.0
H4788 H 0.10126 0.56916 0.31405 0.0
H4789 H 0.0974 0.56324 0.41941 0.0
H4790 H 0.11965 0.55737 0.39815 0.0
H4791 H 0.07782 0.53841 0.35122 0.0
H4792 H 0.05525 0.54381 0.37254 0.0
H4793 H 0.10642 0.57063 0.3497 0.0
H4794 H 0.09741 0.50702 0.36539 0.0
H4795 H 0.09711 0.4847 0.38731 0.0
H4796 H 0.1538 0.50982 0.40428 0.0
H4797 H 0.15437 0.53267 0.38288 0.0
C4798 C 0.15337 0.5468 0.28642 0.0
C4799 C 0.17223 0.5523 0.28989 0.0
C4800 C 0.14297 0.54516 0.30119 0.0
C4801 C 0.15132 0.54938 0.31967 0.0
C4802 C 0.17019 0.55379 0.32318 0.0
C4803 C 0.18068 0.55518 0.30821 0.0
C4804 C 0.14002 0.55051 0.33508 0.0
C4805 C 0.13921 0.53744 0.34722 0.0
C4806 C 0.12843 0.56299 0.33625 0.0
C4807 C 0.12969 0.57816 0.32473 0.0
C4808 C 0.14628 0.59166 0.32452 0.0
C4809 C 0.14736 0.60597 0.31376 0.0
C4810 C 0.13191 0.60703 0.30325 0.0
C4811 C 0.11534 0.59377 0.30346 0.0
C4812 C 0.1142 0.57939 0.31415 0.0
C4813 C 0.09285 0.55738 0.40461 0.0
C4814 C 0.07463 0.55401 0.39751 0.0
C4815 C 0.10556 0.55394 0.39258 0.0
C4816 C 0.10022 0.54724 0.37331 0.0
C4817 C 0.08201 0.5434 0.36619 0.0
C4818 C 0.06924 0.54674 0.37825 0.0
C4819 C 0.11395 0.54746 0.36025 0.0
C4820 C 0.11537 0.56108 0.34869 0.0
C4821 C 0.12627 0.5358 0.36002 0.0
C4822 C 0.12586 0.52182 0.37272 0.0
C4823 C 0.10977 0.50798 0.37396 0.0
C4824 C 0.10956 0.49519 0.38627 0.0
C4825 C 0.1254 0.49595 0.39727 0.0
C4826 C 0.14152 0.50933 0.39583 0.0
C4827 C 0.14179 0.52222 0.38363 0.0
H4828 H 0.12521 0.48619 0.40692 0.0
H4829 H 0.13276 0.61814 0.29496 0.0
H4830 H 0.76762 0.86164 0.57863 0.0
H4831 H 0.75898 0.84838 0.60671 0.0
H4832 H 0.81066 0.83541 0.61322 0.0
H4833 H 0.81907 0.84804 0.58547 0.0
H4834 H 0.78372 0.80464 0.61437 0.0
H4835 H 0.8 0.87463 0.64073 0.0
H4836 H 0.79605 0.90779 0.64418 0.0
H4837 H 0.74204 0.88768 0.65804 0.0
H4838 H 0.74557 0.85434 0.65435 0.0
H4839 H 0.80711 0.78946 0.70309 0.0
H4840 H 0.80392 0.80032 0.67371 0.0
H4841 H 0.75546 0.81645 0.68942 0.0
H4842 H 0.76046 0.80826 0.72032 0.0
H4843 H 0.77167 0.84196 0.6742 0.0
H4844 H 0.75826 0.77257 0.65361 0.0
H4845 H 0.76354 0.74004 0.65127 0.0
H4846 H 0.81249 0.75858 0.62645 0.0
H4847 H 0.80778 0.79129 0.62905 0.0
C4848 C 0.7771 0.85606 0.58621 0.0
C4849 C 0.7939 0.85562 0.57974 0.0
C4850 C 0.77217 0.84851 0.60219 0.0
C4851 C 0.78413 0.84074 0.61193 0.0
C4852 C 0.8011 0.84103 0.60578 0.0
C4853 C 0.8059 0.84829 0.58989 0.0
C4854 C 0.77934 0.83169 0.62828 0.0
C4855 C 0.78103 0.81274 0.6275 0.0
C4856 C 0.77509 0.84197 0.64511 0.0
C4857 C 0.77294 0.86195 0.64693 0.0
C4858 C 0.7872 0.87724 0.64425 0.0
C4859 C 0.78504 0.89607 0.64627 0.0
C4860 C 0.76876 0.89982 0.6512 0.0
C4861 C 0.7546 0.88474 0.65412 0.0
C4862 C 0.75667 0.86588 0.65204 0.0
C4863 C 0.79609 0.79585 0.7005 0.0
C4864 C 0.78444 0.79883 0.71417 0.0
C4865 C 0.79389 0.80149 0.68337 0.0
C4866 C 0.77911 0.80875 0.67891 0.0
C4867 C 0.767 0.81095 0.69241 0.0
C4868 C 0.76979 0.80626 0.71002 0.0
C4869 C 0.77705 0.81515 0.66071 0.0
C4870 C 0.77387 0.83351 0.66105 0.0
C4871 C 0.77999 0.80429 0.64341 0.0
C4872 C 0.78263 0.78442 0.64154 0.0
C4873 C 0.77018 0.76973 0.64771 0.0
C4874 C 0.77311 0.75126 0.64638 0.0
C4875 C 0.78836 0.74726 0.63876 0.0
C4876 C 0.8007 0.76169 0.63239 0.0
C4877 C 0.79789 0.78019 0.63377 0.0
H4878 H 0.79061 0.73297 0.63776 0.0
H4879 H 0.76716 0.91442 0.65287 0.0
H4880 H 0.75551 0.43215 0.51079 0.0
H4881 H 0.73041 0.44726 0.51587 0.0
H4882 H 0.7656 0.5029 0.51323 0.0
H4883 H 0.79053 0.4878 0.50747 0.0
H4884 H 0.74164 0.49589 0.54785 0.0
H4885 H 0.74278 0.49227 0.47961 0.0
H4886 H 0.74427 0.47274 0.44849 0.0
H4887 H 0.6953 0.43121 0.45399 0.0
H4888 H 0.69371 0.45039 0.48533 0.0
H4889 H 0.68718 0.55934 0.54725 0.0
H4890 H 0.70935 0.54189 0.53653 0.0
H4891 H 0.66774 0.48783 0.52412 0.0
H4892 H 0.64556 0.50502 0.53508 0.0
H4893 H 0.6936 0.49162 0.49698 0.0
H4894 H 0.68992 0.49568 0.56289 0.0
H4895 H 0.6885 0.51243 0.59524 0.0
H4896 H 0.74154 0.54972 0.59587 0.0
H4897 H 0.74314 0.53339 0.56335 0.0
C4898 C 0.75771 0.44753 0.51099 0.0
C4899 C 0.7747 0.45888 0.50854 0.0
C4900 C 0.74352 0.45609 0.51399 0.0
C4901 C 0.74641 0.47608 0.51498 0.0
C4902 C 0.76333 0.48742 0.51248 0.0
C4903 C 0.77739 0.47879 0.50899 0.0
C4904 C 0.73167 0.48519 0.51853 0.0
C4905 C 0.73123 0.49521 0.53676 0.0
C4906 C 0.71794 0.48353 0.50408 0.0
C4907 C 0.71815 0.4727 0.48478 0.0
C4908 C 0.73234 0.47897 0.47417 0.0
C4909 C 0.73322 0.46796 0.45652 0.0
C4910 C 0.71989 0.45074 0.44927 0.0
C4911 C 0.7056 0.44456 0.45962 0.0
C4912 C 0.70468 0.45551 0.47731 0.0
C4913 C 0.68275 0.54376 0.54221 0.0
C4914 C 0.66472 0.53351 0.54234 0.0
C4915 C 0.69534 0.53387 0.53591 0.0
C4916 C 0.69006 0.51365 0.5297 0.0
C4917 C 0.67194 0.50348 0.52879 0.0
C4918 C 0.65934 0.51334 0.53514 0.0
C4919 C 0.70385 0.50299 0.52625 0.0
C4920 C 0.70402 0.49243 0.5081 0.0
C4921 C 0.71724 0.5039 0.54089 0.0
C4922 C 0.71658 0.51344 0.56063 0.0
C4923 C 0.70123 0.50754 0.56988 0.0
C4924 C 0.7004 0.51695 0.58825 0.0
C4925 C 0.71491 0.53217 0.59759 0.0
C4926 C 0.73031 0.53795 0.5886 0.0
C4927 C 0.73119 0.52861 0.57021 0.0
H4928 H 0.71423 0.53945 0.61181 0.0
H4929 H 0.72063 0.44219 0.43563 0.0
H4930 H 0.22328 0.18111 0.49456 0.0
H4931 H 0.19531 0.15648 0.49381 0.0
H4932 H 0.22516 0.11424 0.49927 0.0
H4933 H 0.25374 0.13916 0.50018 0.0
H4934 H 0.19102 0.10175 0.47111 0.0
H4935 H 0.21218 0.13011 0.53647 0.0
H4936 H 0.22474 0.15753 0.56318 0.0
H4937 H 0.17891 0.18014 0.55425 0.0
H4938 H 0.16621 0.15301 0.52729 0.0
H4939 H 0.11163 0.03915 0.4953 0.0
H4940 H 0.14219 0.05729 0.49239 0.0
H4941 H 0.12593 0.11077 0.5036 0.0
H4942 H 0.09542 0.09263 0.50695 0.0
H4943 H 0.15556 0.11471 0.52456 0.0
H4944 H 0.13523 0.0899 0.45891 0.0
H4945 H 0.12213 0.06468 0.43054 0.0
H4946 H 0.16511 0.03751 0.43804 0.0
H4947 H 0.17834 0.06244 0.46663 0.0
C4948 C 0.22407 0.16659 0.49548 0.0
C4949 C 0.24085 0.16219 0.49766 0.0
C4950 C 0.20799 0.15251 0.495 0.0
C4951 C 0.20821 0.13365 0.49666 0.0
C4952 C 0.22479 0.12879 0.49799 0.0
C4953 C 0.24106 0.14302 0.49856 0.0
C4954 C 0.19096 0.1197 0.49813 0.0
C4955 C 0.18338 0.10422 0.48296 0.0
C4956 C 0.18085 0.12343 0.51334 0.0
C4957 C 0.1883 0.13958 0.52978 0.0
C4958 C 0.20483 0.14099 0.54012 0.0
C4959 C 0.21197 0.15648 0.55532 0.0
C4960 C 0.20264 0.17059 0.5604 0.0
C4961 C 0.18612 0.16921 0.55031 0.0
C4962 C 0.17894 0.15376 0.53509 0.0
C4963 C 0.1144 0.05466 0.49674 0.0
C4964 C 0.10103 0.06437 0.5013 0.0
C4965 C 0.13196 0.06508 0.4951 0.0
C4966 C 0.1364 0.08542 0.49768 0.0
C4967 C 0.12289 0.09509 0.50165 0.0
C4968 C 0.10543 0.08469 0.50351 0.0
C4969 C 0.15529 0.0968 0.49735 0.0
C4970 C 0.16321 0.1119 0.51278 0.0
C4971 C 0.16554 0.09286 0.48224 0.0
C4972 C 0.15765 0.0779 0.46503 0.0
C4973 C 0.1418 0.07846 0.4546 0.0
C4974 C 0.13437 0.06423 0.43847 0.0
C4975 C 0.14275 0.04947 0.43253 0.0
C4976 C 0.15861 0.04894 0.44268 0.0
C4977 C 0.16609 0.06312 0.45884 0.0
H4978 H 0.13697 0.03847 0.42003 0.0
H4979 H 0.2082 0.18257 0.57216 0.0
H4980 H 0.17635 0.93133 0.78109 0.0
H4981 H 0.19458 0.90823 0.78005 0.0
H4982 H 0.23372 0.94352 0.75233 0.0
H4983 H 0.21503 0.96706 0.75311 0.0
H4984 H 0.23123 0.90449 0.7376 0.0
H4985 H 0.2402 0.94061 0.80187 0.0
H4986 H 0.22999 0.95385 0.83179 0.0
H4987 H 0.20206 0.89624 0.8368 0.0
H4988 H 0.21194 0.88269 0.80682 0.0
H4989 H 0.28988 0.84016 0.74846 0.0
H4990 H 0.27608 0.86695 0.74646 0.0
H4991 H 0.24464 0.85252 0.79148 0.0
H4992 H 0.26048 0.82832 0.79531 0.0
H4993 H 0.24558 0.88445 0.79707 0.0
H4994 H 0.23204 0.84729 0.73272 0.0
H4995 H 0.2394 0.83222 0.70193 0.0
H4996 H 0.27178 0.88762 0.6956 0.0
H4997 H 0.26475 0.90296 0.72644 0.0
C4998 C 0.18882 0.93453 0.77471 0.0
C4999 C 0.19384 0.95174 0.76734 0.0
C5000 C 0.19952 0.92101 0.77422 0.0
C5001 C 0.21618 0.92368 0.76647 0.0
C5002 C 0.22116 0.94061 0.75859 0.0
C5003 C 0.21034 0.95433 0.75909 0.0
C5004 C 0.22807 0.90902 0.76712 0.0
C5005 C 0.23444 0.90029 0.75072 0.0
C5006 C 0.23234 0.90253 0.78385 0.0
C5007 C 0.22673 0.91066 0.80206 0.0
C5008 C 0.23184 0.93079 0.80933 0.0
C5009 C 0.22611 0.93834 0.8263 0.0
C5010 C 0.21536 0.92589 0.83618 0.0
C5011 C 0.21038 0.90586 0.82914 0.0
C5012 C 0.21606 0.89824 0.81218 0.0
C5013 C 0.2804 0.84297 0.7583 0.0
C5014 C 0.27708 0.83183 0.77248 0.0
C5015 C 0.27184 0.85831 0.75681 0.0
C5016 C 0.25842 0.86253 0.76852 0.0
C5017 C 0.25484 0.85078 0.78218 0.0
C5018 C 0.26401 0.83632 0.78428 0.0
C5019 C 0.24826 0.87884 0.7673 0.0
C5020 C 0.24228 0.88815 0.78374 0.0
C5021 C 0.2439 0.88536 0.75047 0.0
C5022 C 0.24803 0.87621 0.73195 0.0
C5023 C 0.24077 0.85622 0.72477 0.0
C5024 C 0.24489 0.84764 0.70733 0.0
C5025 C 0.2561 0.85894 0.69685 0.0
C5026 C 0.26315 0.87887 0.70376 0.0
C5027 C 0.2591 0.88752 0.72121 0.0
H5028 H 0.25928 0.85227 0.68335 0.0
H5029 H 0.21091 0.93177 0.84929 0.0
H5030 H 0.378 0.95237 0.05779 0.0
H5031 H 0.40627 0.9733 0.05202 0.0
H5032 H 0.37671 0.00226 0.01954 0.0
H5033 H 0.34833 0.98149 0.02522 0.0
H5034 H 0.3987 0.97785 0.99929 0.0
H5035 H 0.4031 0.02958 0.05559 0.0
H5036 H 0.40338 0.04013 0.08991 0.0
H5037 H 0.44684 0.0142 0.09965 0.0
H5038 H 0.44689 0.00372 0.06563 0.0
H5039 H 0.48877 0.05715 0.00981 0.0
H5040 H 0.45632 0.0429 0.00521 0.0
H5041 H 0.46521 0.98596 0.0021 0.0
H5042 H 0.49773 1.00013 0.005 0.0
H5043 H 0.45237 0.02455 0.03779 0.0
H5044 H 0.4373 0.96063 0.9888 0.0
H5045 H 0.43922 0.94407 0.95645 0.0
H5046 H 0.41926 0.98689 0.93424 0.0
H5047 H 0.41775 0.004 0.96657 0.0
C5048 C 0.3775 0.96386 0.05025 0.0
C5049 C 0.36114 0.96481 0.04119 0.0
C5050 C 0.39362 0.9757 0.04689 0.0
C5051 C 0.39327 0.9887 0.0349 0.0
C5052 C 0.37696 0.99193 0.02855 0.0
C5053 C 0.36082 0.98018 0.03198 0.0
C5054 C 0.40952 0.99629 0.02652 0.0
C5055 C 0.41033 0.98849 0.0075 0.0
C5056 C 0.4248 0.00907 0.03764 0.0
C5057 C 0.42502 0.01594 0.05811 0.0
C5058 C 0.41273 0.02621 0.06512 0.0
C5059 C 0.41287 0.03222 0.08454 0.0
C5060 C 0.42522 0.02802 0.09702 0.0
C5061 C 0.43742 0.01774 0.0901 0.0
C5062 C 0.43742 0.0118 0.07075 0.0
C5063 C 0.48375 0.04158 0.0072 0.0
C5064 C 0.49543 0.02963 0.00762 0.0
C5065 C 0.46528 0.03341 0.0042 0.0
C5066 C 0.4585 0.01343 0.00311 0.0
C5067 C 0.47019 1.0013 0.00219 0.0
C5068 C 0.4887 0.00943 0.00431 0.0
C5069 C 0.44128 0.00711 0.01026 0.0
C5070 C 0.44049 0.01461 0.02928 0.0
C5071 C 0.42636 0.99347 0.99935 0.0
C5072 C 0.42751 0.9836 0.97999 0.0
C5073 C 0.43346 0.96657 0.97699 0.0
C5074 C 0.43448 0.9571 0.95869 0.0
C5075 C 0.42928 0.96437 0.94329 0.0
C5076 C 0.42323 0.98124 0.94619 0.0
C5077 C 0.4224 0.99091 0.96449 0.0
H5078 H 0.43003 0.95701 0.92913 0.0
H5079 H 0.42532 0.03272 0.11203 0.0
H5080 H 0.91351 0.60101 0.78699 0.0
H5081 H 0.89479 0.62329 0.78285 0.0
H5082 H 0.84686 0.5785 0.78553 0.0
H5083 H 0.86538 0.55636 0.79013 0.0
H5084 H 0.85104 0.59758 0.75107 0.0
H5085 H 0.8524 0.60913 0.81853 0.0
H5086 H 0.86719 0.61795 0.85113 0.0
H5087 H 0.89444 0.67433 0.84226 0.0
H5088 H 0.88004 0.66572 0.80946 0.0
H5089 H 0.78508 0.64497 0.73721 0.0
H5090 H 0.8018 0.62679 0.75347 0.0
H5091 H 0.84751 0.6772 0.76754 0.0
H5092 H 0.83043 0.69564 0.75178 0.0
H5093 H 0.84471 0.65577 0.79528 0.0
H5094 H 0.84505 0.64442 0.72811 0.0
H5095 H 0.83179 0.63588 0.69493 0.0
H5096 H 0.80335 0.57938 0.70254 0.0
H5097 H 0.81622 0.58772 0.73587 0.0
C5098 C 0.899 0.59602 0.78691 0.0
C5099 C 0.89087 0.57697 0.78881 0.0
C5100 C 0.88839 0.60877 0.7847 0.0
C5101 C 0.86955 0.60249 0.7841 0.0
C5102 C 0.86143 0.58358 0.78619 0.0
C5103 C 0.87202 0.57098 0.78875 0.0
C5104 C 0.85815 0.61484 0.77913 0.0
C5105 C 0.84941 0.61014 0.7608 0.0
C5106 C 0.85659 0.63147 0.79176 0.0
C5107 C 0.86533 0.63668 0.81144 0.0
C5108 C 0.86173 0.62332 0.82344 0.0
C5109 C 0.86999 0.62831 0.84198 0.0
C5110 C 0.8818 0.64667 0.84875 0.0
C5111 C 0.88532 0.6601 0.83699 0.0
C5112 C 0.8771 0.65517 0.81842 0.0
C5113 C 0.79852 0.65225 0.74423 0.0
C5114 C 0.80663 0.67154 0.7432 0.0
C5115 C 0.80806 0.64191 0.75345 0.0
C5116 C 0.82602 0.65054 0.76132 0.0
C5117 C 0.83368 0.67028 0.7615 0.0
C5118 C 0.82399 0.68076 0.7525 0.0
C5119 C 0.83735 0.63836 0.7672 0.0
C5120 C 0.84622 0.64314 0.78559 0.0
C5121 C 0.83924 0.62181 0.75456 0.0
C5122 C 0.83144 0.61678 0.73453 0.0
C5123 C 0.83584 0.63024 0.72275 0.0
C5124 C 0.82841 0.62543 0.70391 0.0
C5125 C 0.8167 0.60712 0.69664 0.0
C5126 C 0.8124 0.59357 0.7082 0.0
C5127 C 0.81976 0.59833 0.72706 0.0
H5128 H 0.81098 0.60341 0.68204 0.0
H5129 H 0.88817 0.65051 0.86312 0.0
H5130 H 0.8528 0.68193 0.02282 0.0
H5131 H 0.87796 0.66729 0.02725 0.0
H5132 H 0.85387 0.62069 0.97999 0.0
H5133 H 0.82887 0.63539 0.97524 0.0
H5134 H 0.86282 0.60846 0.0134 0.0
H5135 H 0.89021 0.65192 0.97465 0.0
H5136 H 0.90116 0.68334 0.96517 0.0
H5137 H 0.93703 0.7051 0.01646 0.0
H5138 H 0.9261 0.67389 0.0264 0.0
H5139 H 0.93015 0.55835 0.00907 0.0
H5140 H 0.90963 0.57702 -0.00017 0.0
H5141 H 0.93877 0.62664 0.04222 0.0
H5142 H 0.9596 0.60797 0.05113 0.0
H5143 H 0.92788 0.63826 0.01103 0.0
H5144 H 0.90011 0.59673 0.0509 0.0
H5145 H 0.88945 0.56594 0.06165 0.0
H5146 H 0.85418 0.54175 0.01018 0.0
H5147 H 0.86484 0.57232 0.99899 0.0
C5148 C 0.8529 0.66862 0.0133 0.0
C5149 C 0.83872 0.65976 0.99875 0.0
C5150 C 0.86736 0.66035 0.01577 0.0
C5151 C 0.86784 0.64293 0.00391 0.0
C5152 C 0.85381 0.63416 0.98928 0.0
C5153 C 0.83951 0.64258 0.9866 0.0
C5154 C 0.8822 0.63306 0.00759 0.0
C5155 C 0.87701 0.61485 0.01258 0.0
C5156 C 0.90081 0.6417 0.00717 0.0
C5157 C 0.90715 0.66062 0.00139 0.0
C5158 C 0.90026 0.66348 0.98403 0.0
C5159 C 0.90651 0.68124 0.97854 0.0
C5160 C 0.91974 0.69623 0.99023 0.0
C5161 C 0.92676 0.69349 0.00743 0.0
C5162 C 0.92054 0.67576 0.013 0.0
C5163 C 0.93233 0.57336 0.01612 0.0
C5164 C 0.94641 0.58179 0.03073 0.0
C5165 C 0.92056 0.584 0.01095 0.0
C5166 C 0.92241 0.60318 0.02054 0.0
C5167 C 0.93702 0.61189 0.03462 0.0
C5168 C 0.9489 0.60126 0.03971 0.0
C5169 C 0.90843 0.61355 0.01666 0.0
C5170 C 0.91368 0.63185 0.01176 0.0
C5171 C 0.88983 0.60516 0.01739 0.0
C5172 C 0.88341 0.58674 0.02403 0.0
C5173 C 0.89019 0.58479 0.04181 0.0
C5174 C 0.88413 0.56739 0.04799 0.0
C5175 C 0.87118 0.55188 0.03658 0.0
C5176 C 0.86423 0.55376 0.01898 0.0
C5177 C 0.87027 0.57112 0.01272 0.0
H5178 H 0.86649 0.53843 0.0414 0.0
H5179 H 0.92458 0.70996 0.98593 0.0
H5180 H 0.21807 0.0606 0.76722 0.0
H5181 H 0.2374 0.09364 0.76842 0.0
H5182 H 0.192 0.11731 0.77961 0.0
H5183 H 0.17297 0.08502 0.77835 0.0
H5184 H 0.20809 0.13438 0.75496 0.0
H5185 H 0.22901 0.12175 0.81394 0.0
H5186 H 0.24205 0.10397 0.83465 0.0
H5187 H 0.2904 0.11262 0.80707 0.0
H5188 H 0.27754 0.13024 0.78601 0.0
H5189 H 0.2502 0.23574 0.78097 0.0
H5190 H 0.23412 0.20215 0.78081 0.0
H5191 H 0.28351 0.1848 0.77391 0.0
H5192 H 0.29974 0.21857 0.77493 0.0
H5193 H 0.26659 0.16361 0.79474 0.0
H5194 H 0.24553 0.17764 0.73635 0.0
H5195 H 0.23207 0.19571 0.71626 0.0
H5196 H 0.1833 0.18427 0.74295 0.0
H5197 H 0.19657 0.16639 0.76339 0.0
C5198 C 0.21225 0.07285 0.77008 0.0
C5199 C 0.19375 0.06972 0.77264 0.0
C5200 C 0.22337 0.0919 0.7708 0.0
C5201 C 0.21636 0.10843 0.77412 0.0
C5202 C 0.19799 0.10517 0.77685 0.0
C5203 C 0.18702 0.08639 0.77619 0.0
C5204 C 0.2276 0.12908 0.77451 0.0
C5205 C 0.22081 0.14072 0.76383 0.0
C5206 C 0.2445 0.13771 0.78567 0.0
C5207 C 0.25223 0.1271 0.79826 0.0
C5208 C 0.24236 0.11971 0.81218 0.0
C5209 C 0.24973 0.10969 0.82401 0.0
C5210 C 0.26702 0.10711 0.82214 0.0
C5211 C 0.27699 0.11459 0.80847 0.0
C5212 C 0.26968 0.1246 0.79659 0.0
C5213 C 0.25776 0.22485 0.77953 0.0
C5214 C 0.27649 0.23026 0.778 0.0
C5215 C 0.24841 0.20538 0.77923 0.0
C5216 C 0.25725 0.19029 0.77681 0.0
C5217 C 0.27606 0.19577 0.77573 0.0
C5218 C 0.28547 0.21533 0.77636 0.0
C5219 C 0.24699 0.16901 0.7753 0.0
C5220 C 0.25394 0.15725 0.78576 0.0
C5221 C 0.23016 0.16024 0.76394 0.0
C5222 C 0.22211 0.17082 0.75151 0.0
C5223 C 0.23197 0.17906 0.738 0.0
C5224 C 0.22438 0.18928 0.72655 0.0
C5225 C 0.20686 0.19117 0.72836 0.0
C5226 C 0.19688 0.18281 0.74158 0.0
C5227 C 0.20443 0.17263 0.75309 0.0
H5228 H 0.20101 0.19909 0.71949 0.0
H5229 H 0.27271 0.09936 0.83131 0.0
H5230 H 0.36317 0.98241 0.25219 0.0
H5231 H 0.3422 0.95297 0.25731 0.0
H5232 H 0.3568 0.97213 0.31731 0.0
H5233 H 0.37642 0.00221 0.31228 0.0
H5234 H 0.36621 0.93475 0.27695 0.0
H5235 H 0.33181 0.95494 0.33203 0.0
H5236 H 0.31439 0.97802 0.34439 0.0
H5237 H 0.27923 0.96091 0.29248 0.0
H5238 H 0.29676 0.93805 0.27974 0.0
H5239 H 0.33927 0.83927 0.28592 0.0
H5240 H 0.34828 0.87438 0.29748 0.0
H5241 H 0.29895 0.87893 0.26884 0.0
H5242 H 0.28916 0.84338 0.25897 0.0
H5243 H 0.30833 0.90608 0.30023 0.0
H5244 H 0.33849 0.88247 0.24717 0.0
H5245 H 0.35598 0.8609 0.23193 0.0
H5246 H 0.39957 0.88555 0.27633 0.0
H5247 H 0.38219 0.9072 0.29194 0.0
C5248 C 0.36072 0.98093 0.26645 0.0
C5249 C 0.37121 0.99423 0.28187 0.0
C5250 C 0.34888 0.96417 0.26939 0.0
C5251 C 0.34813 0.9605 0.28767 0.0
C5252 C 0.35686 0.97496 0.30319 0.0
C5253 C 0.36812 0.9921 0.30028 0.0
C5254 C 0.34289 0.94031 0.2897 0.0
C5255 C 0.35375 0.92844 0.28239 0.0
C5256 C 0.32683 0.93243 0.29693 0.0
C5257 C 0.31553 0.94491 0.30498 0.0
C5258 C 0.32032 0.95611 0.32331 0.0
C5259 C 0.31049 0.96918 0.33035 0.0
C5260 C 0.29571 0.97094 0.31922 0.0
C5261 C 0.29068 0.95954 0.30108 0.0
C5262 C 0.30056 0.94655 0.29394 0.0
C5263 C 0.33016 0.84783 0.28275 0.0
C5264 C 0.3133 0.839 0.27244 0.0
C5265 C 0.33532 0.86777 0.28914 0.0
C5266 C 0.32428 0.87916 0.28392 0.0
C5267 C 0.30748 0.87029 0.27325 0.0
C5268 C 0.30203 0.85018 0.26742 0.0
C5269 C 0.33144 0.90028 0.28707 0.0
C5270 C 0.32109 0.91235 0.2954 0.0
C5271 C 0.34808 0.90844 0.28066 0.0
C5272 C 0.35904 0.89638 0.27073 0.0
C5273 C 0.35184 0.88334 0.25362 0.0
C5274 C 0.36171 0.87105 0.24496 0.0
C5275 C 0.37888 0.87182 0.25316 0.0
C5276 C 0.38627 0.88498 0.26999 0.0
C5277 C 0.37643 0.8973 0.27874 0.0
H5278 H 0.38648 0.86224 0.24648 0.0
H5279 H 0.28816 0.98112 0.32465 0.0
H5280 H 0.55877 0.35686 0.59154 0.0
H5281 H 0.55197 0.38452 0.58016 0.0
H5282 H 0.60253 0.39505 0.55617 0.0
H5283 H 0.60932 0.3675 0.56732 0.0
H5284 H 0.59772 0.42886 0.57276 0.0
H5285 H 0.56355 0.37494 0.52803 0.0
H5286 H 0.54221 0.34309 0.51504 0.0
H5287 H 0.49877 0.36393 0.53791 0.0
H5288 H 0.51992 0.39585 0.55132 0.0
H5289 H 0.56552 0.48874 0.5112 0.0
H5290 H 0.57183 0.45851 0.51748 0.0
H5291 H 0.5456 0.46441 0.56809 0.0
H5292 H 0.54053 0.49509 0.56264 0.0
H5293 H 0.53961 0.42205 0.53499 0.0
H5294 H 0.57948 0.47783 0.58139 0.0
H5295 H 0.60288 0.50898 0.58862 0.0
H5296 H 0.63892 0.4826 0.55691 0.0
H5297 H 0.61533 0.45158 0.54855 0.0
C5298 C 0.56846 0.36507 0.58388 0.0
C5299 C 0.58459 0.35976 0.58038 0.0
C5300 C 0.56452 0.38089 0.57726 0.0
C5301 C 0.57665 0.392 0.56711 0.0
C5302 C 0.59288 0.38689 0.56392 0.0
C5303 C 0.59672 0.37098 0.5703 0.0
C5304 C 0.57247 0.40886 0.55984 0.0
C5305 C 0.58503 0.42724 0.56443 0.0
C5306 C 0.55612 0.40698 0.54856 0.0
C5307 C 0.54338 0.38771 0.54092 0.0
C5308 C 0.54949 0.37266 0.53051 0.0
C5309 C 0.53742 0.35461 0.52302 0.0
C5310 C 0.51915 0.35146 0.52571 0.0
C5311 C 0.51293 0.36638 0.53589 0.0
C5312 C 0.52496 0.38446 0.54344 0.0
C5313 C 0.56066 0.48327 0.52336 0.0
C5314 C 0.55204 0.49408 0.53616 0.0
C5315 C 0.56444 0.46609 0.52706 0.0
C5316 C 0.55933 0.45921 0.54338 0.0
C5317 C 0.54976 0.46939 0.55547 0.0
C5318 C 0.54666 0.48684 0.5522 0.0
C5319 C 0.56452 0.44199 0.54854 0.0
C5320 C 0.55222 0.42357 0.54342 0.0
C5321 C 0.58132 0.44373 0.5589 0.0
C5322 C 0.59541 0.4625 0.56388 0.0
C5323 C 0.59218 0.47879 0.57549 0.0
C5324 C 0.60551 0.49644 0.57983 0.0
C5325 C 0.62231 0.49787 0.57302 0.0
C5326 C 0.62582 0.4816 0.56193 0.0
C5327 C 0.61243 0.464 0.55731 0.0
H5328 H 0.63264 0.51151 0.57646 0.0
H5329 H 0.50982 0.33749 0.51986 0.0
H5330 H 0.45889 0.78836 0.4135 0.0
H5331 H 0.43345 0.7915 0.39365 0.0
H5332 H 0.43617 0.74084 0.35354 0.0
H5333 H 0.46247 0.73821 0.37329 0.0
H5334 H 0.42703 0.76632 0.33523 0.0
H5335 H 0.40433 0.73932 0.38752 0.0
H5336 H 0.40196 0.73752 0.42089 0.0
H5337 H 0.38918 0.79264 0.4313 0.0
H5338 H 0.39168 0.79487 0.39806 0.0
H5339 H 0.33764 0.75324 0.29157 0.0
H5340 H 0.36467 0.74927 0.3079 0.0
H5341 H 0.3652 0.79851 0.35144 0.0
H5342 H 0.33798 0.80241 0.33513 0.0
H5343 H 0.37264 0.77199 0.36688 0.0
H5344 H 0.39537 0.79948 0.31498 0.0
H5345 H 0.39773 0.80179 0.28173 0.0
H5346 H 0.41047 0.74668 0.27045 0.0
H5347 H 0.40792 0.74389 0.30357 0.0
C5348 C 0.45425 0.77804 0.40029 0.0
C5349 C 0.46268 0.76303 0.39497 0.0
C5350 C 0.43953 0.77973 0.389 0.0
C5351 C 0.43234 0.76607 0.37228 0.0
C5352 C 0.44126 0.7515 0.36644 0.0
C5353 C 0.45634 0.75001 0.37767 0.0
C5354 C 0.41532 0.76692 0.36141 0.0
C5355 C 0.41504 0.76725 0.3421 0.0
C5356 C 0.39967 0.76858 0.37031 0.0
C5357 C 0.39834 0.76732 0.39034 0.0
C5358 C 0.40115 0.75112 0.39696 0.0
C5359 C 0.39975 0.75001 0.41585 0.0
C5360 C 0.39546 0.76497 0.42821 0.0
C5361 C 0.39253 0.78107 0.42172 0.0
C5362 C 0.39391 0.78225 0.40286 0.0
C5363 C 0.3437 0.76359 0.30431 0.0
C5364 C 0.33602 0.77886 0.3113 0.0
C5365 C 0.35923 0.76121 0.31378 0.0
C5366 C 0.36758 0.77402 0.33065 0.0
C5367 C 0.35935 0.78861 0.33827 0.0
C5368 C 0.34371 0.7909 0.32882 0.0
C5369 C 0.38438 0.77175 0.34075 0.0
C5370 C 0.3846 0.77105 0.35994 0.0
C5371 C 0.39993 0.76982 0.33172 0.0
C5372 C 0.40123 0.77137 0.31173 0.0
C5373 C 0.39849 0.78775 0.30537 0.0
C5374 C 0.3999 0.78917 0.28655 0.0
C5375 C 0.40419 0.77436 0.27398 0.0
C5376 C 0.4071 0.75812 0.2802 0.0
C5377 C 0.40568 0.75661 0.29899 0.0
H5378 H 0.4053 0.7755 0.25942 0.0
H5379 H 0.39437 0.76408 0.44282 0.0
H5380 H 0.10773 0.75434 0.07206 0.0
H5381 H 0.10108 0.71945 0.06097 0.0
H5382 H 0.04395 0.71506 0.06043 0.0
H5383 H 0.0508 0.75017 0.07308 0.0
H5384 H 0.04821 0.68661 0.07208 0.0
H5385 H 0.06776 0.70869 0.01815 0.0
H5386 H 0.0865 0.72799 0.99842 0.0
H5387 H 0.13079 0.70467 0.01208 0.0
H5388 H 0.11243 0.68545 0.03211 0.0
H5389 H 0.04382 0.5877 0.01428 0.0
H5390 H 0.0461 0.62252 0.01729 0.0
H5391 H 0.08317 0.63498 0.06766 0.0
H5392 H 0.07979 0.60006 0.06549 0.0
H5393 H 0.08363 0.65761 0.02556 0.0
H5394 H 0.05887 0.64082 0.08631 0.0
H5395 H 0.03525 0.61962 0.10013 0.0
H5396 H 0.99413 0.63208 0.06529 0.0
H5397 H 0.01759 0.65284 0.0508 0.0
C5398 C 0.09371 0.74602 0.06937 0.0
C5399 C 0.07979 0.7551 0.0733 0.0
C5400 C 0.08988 0.72595 0.06283 0.0
C5401 C 0.07194 0.71438 0.05925 0.0
C5402 C 0.05793 0.72349 0.06295 0.0
C5403 C 0.06182 0.74361 0.0701 0.0
C5404 C 0.06816 0.69276 0.05277 0.0
C5405 C 0.05591 0.68045 0.06176 0.0
C5406 C 0.07761 0.68419 0.03882 0.0
C5407 C 0.08874 0.69572 0.02676 0.0
C5408 C 0.08154 0.70778 0.01706 0.0
C5409 C 0.09209 0.71869 0.0058 0.0
C5410 C 0.10983 0.71759 0.00403 0.0
C5411 C 0.11705 0.70552 0.01347 0.0
C5412 C 0.10657 0.69459 0.02476 0.0
C5413 C 0.05279 0.59792 0.02574 0.0
C5414 C 0.06197 0.59126 0.03947 0.0
C5415 C 0.05393 0.61778 0.02753 0.0
C5416 C 0.06452 0.63127 0.0429 0.0
C5417 C 0.07462 0.62474 0.05591 0.0
C5418 C 0.07294 0.60486 0.05452 0.0
C5419 C 0.06477 0.65215 0.04577 0.0
C5420 C 0.07607 0.66409 0.03584 0.0
C5421 C 0.05395 0.66028 0.05823 0.0
C5422 C 0.03999 0.64798 0.06715 0.0
C5423 C 0.04482 0.63873 0.08132 0.0
C5424 C 0.03145 0.62685 0.08933 0.0
C5425 C 0.0132 0.6244 0.0835 0.0
C5426 C 0.00828 0.63388 0.0697 0.0
C5427 C 0.0216 0.64565 0.06155 0.0
H5428 H 0.00288 0.61524 0.08975 0.0
H5429 H 0.11798 0.72606 0.99531 0.0
H5430 H 0.05444 0.26421 0.87632 0.0
H5431 H 0.08015 0.26562 0.85769 0.0
H5432 H 0.11667 0.28043 0.90879 0.0
H5433 H 0.09122 0.27935 0.92737 0.0
H5434 H 0.13038 0.30254 0.88606 0.0
H5435 H 0.10524 0.23426 0.87938 0.0
H5436 H 0.08153 0.20331 0.87175 0.0
H5437 H 0.07431 0.2096 0.81436 0.0
H5438 H 0.09779 0.24076 0.82171 0.0
H5439 H 0.20768 0.29447 0.838 0.0
H5440 H 0.18377 0.2879 0.8588 0.0
H5441 H 0.14338 0.27212 0.81074 0.0
H5442 H 0.16704 0.27794 0.79007 0.0
H5443 H 0.13272 0.24924 0.83363 0.0
H5444 H 0.15675 0.31888 0.84142 0.0
H5445 H 0.18043 0.34985 0.84958 0.0
H5446 H 0.18983 0.34063 0.90567 0.0
H5447 H 0.16638 0.30945 0.89775 0.0
C5448 C 0.06794 0.26775 0.88359 0.0
C5449 C 0.07065 0.27164 0.9034 0.0
C5450 C 0.08268 0.26845 0.8729 0.0
C5451 C 0.1005 0.27294 0.88174 0.0
C5452 C 0.10317 0.27692 0.90151 0.0
C5453 C 0.0885 0.27624 0.91217 0.0
C5454 C 0.11643 0.27392 0.87055 0.0
C5455 C 0.13096 0.29072 0.87478 0.0
C5456 C 0.11729 0.25869 0.85562 0.0
C5457 C 0.10316 0.23995 0.85115 0.0
C5458 C 0.0985 0.22913 0.86517 0.0
C5459 C 0.08511 0.21153 0.86089 0.0
C5460 C 0.07638 0.20452 0.8426 0.0
C5461 C 0.08106 0.21507 0.82853 0.0
C5462 C 0.09441 0.23269 0.83274 0.0
C5463 C 0.19372 0.28921 0.83186 0.0
C5464 C 0.18933 0.28701 0.81234 0.0
C5465 C 0.17999 0.28566 0.8438 0.0
C5466 C 0.16157 0.27991 0.83649 0.0
C5467 C 0.15734 0.27667 0.8169 0.0
C5468 C 0.17096 0.28013 0.80504 0.0
C5469 C 0.14656 0.27798 0.84897 0.0
C5470 C 0.13218 0.261 0.845 0.0
C5471 C 0.14586 0.29302 0.86419 0.0
C5472 C 0.15998 0.31172 0.86892 0.0
C5473 C 0.16397 0.32338 0.85544 0.0
C5474 C 0.17734 0.34098 0.86003 0.0
C5475 C 0.18667 0.34718 0.87811 0.0
C5476 C 0.18263 0.3358 0.89166 0.0
C5477 C 0.1693 0.31816 0.88713 0.0
H5478 H 0.197 0.36082 0.88165 0.0
H5479 H 0.06603 0.19089 0.83931 0.0
H5480 H 0.59853 0.76478 0.90307 0.0
H5481 H 0.59453 0.73374 0.91354 0.0
H5482 H 0.59127 0.76272 0.97012 0.0
H5483 H 0.59523 0.79342 0.95991 0.0
H5484 H 0.61268 0.73725 0.96868 0.0
H5485 H 0.55385 0.74091 0.94172 0.0
H5486 H 0.53189 0.74222 0.91607 0.0
H5487 H 0.53861 0.68904 0.88399 0.0
H5488 H 0.5608 0.68755 0.9094 0.0
H5489 H 0.55907 0.68461 0.02518 0.0
H5490 H 0.57234 0.70679 0.00518 0.0
H5491 H 0.56604 0.65845 0.95883 0.0
H5492 H 0.55152 0.6362 0.97816 0.0
H5493 H 0.55441 0.68734 0.94824 0.0
H5494 H 0.60872 0.68144 0.98053 0.0
H5495 H 0.62955 0.68137 0.00777 0.0
H5496 H 0.62981 0.74015 0.03155 0.0
H5497 H 0.60897 0.74055 0.0045 0.0
C5498 C 0.59734 0.76449 0.9178 0.0
C5499 C 0.59714 0.78138 0.93073 0.0
C5500 C 0.59495 0.74682 0.92368 0.0
C5501 C 0.59257 0.74609 0.94253 0.0
C5502 C 0.59318 0.76311 0.95553 0.0
C5503 C 0.59538 0.78059 0.94967 0.0
C5504 C 0.58853 0.72769 0.94909 0.0
C5505 C 0.60003 0.72618 0.96413 0.0
C5506 C 0.57223 0.71315 0.94273 0.0
C5507 C 0.55923 0.71431 0.92729 0.0
C5508 C 0.55083 0.72964 0.92909 0.0
C5509 C 0.53829 0.73037 0.91463 0.0
C5510 C 0.53393 0.71577 0.89836 0.0
C5511 C 0.54206 0.70038 0.89656 0.0
C5512 C 0.55463 0.69959 0.91098 0.0
C5513 C 0.56026 0.6787 0.01066 0.0
C5514 C 0.55435 0.65864 0.00333 0.0
C5515 C 0.56811 0.69134 0.99935 0.0
C5516 C 0.5704 0.68408 0.98065 0.0
C5517 C 0.56438 0.66416 0.97324 0.0
C5518 C 0.55629 0.65153 0.9844 0.0
C5519 C 0.57813 0.69751 0.96856 0.0
C5520 C 0.56738 0.69796 0.9524 0.0
C5521 C 0.59498 0.71132 0.97408 0.0
C5522 C 0.60726 0.71099 0.99052 0.0
C5523 C 0.61314 0.6943 0.99163 0.0
C5524 C 0.62498 0.69422 0.00702 0.0
C5525 C 0.63099 0.71074 0.02138 0.0
C5526 C 0.62518 0.72738 0.0204 0.0
C5527 C 0.6134 0.72756 0.00503 0.0
H5528 H 0.64017 0.71065 0.03327 0.0
H5529 H 0.52419 0.71635 0.8872 0.0
H5530 H 0.06673 0.78994 0.67492 0.0
H5531 H 0.09778 0.78609 0.67745 0.0
H5532 H 0.08169 0.74379 0.71218 0.0
H5533 H 0.05157 0.74807 0.71057 0.0
H5534 H 0.1101 0.77495 0.72817 0.0
H5535 H 0.08842 0.72744 0.66933 0.0
H5536 H 0.07648 0.7172 0.6357 0.0
H5537 H 0.12211 0.75766 0.62156 0.0
H5538 H 0.13428 0.76818 0.65513 0.0
H5539 H 0.16739 0.71717 0.74152 0.0
H5540 H 0.14251 0.72205 0.72185 0.0
H5541 H 0.17683 0.77566 0.71299 0.0
H5542 H 0.20125 0.77175 0.73335 0.0
H5543 H 0.14314 0.74412 0.68017 0.0
H5544 H 0.16188 0.79178 0.74356 0.0
H5545 H 0.17082 0.79788 0.77781 0.0
H5546 H 0.12588 0.75113 0.78311 0.0
H5547 H 0.11683 0.74469 0.74886 0.0
C5548 C 0.07006 0.78013 0.68334 0.0
C5549 C 0.05699 0.76977 0.69302 0.0
C5550 C 0.08755 0.77769 0.68444 0.0
C5551 C 0.09175 0.76462 0.69491 0.0
C5552 C 0.07858 0.754 0.70411 0.0
C5553 C 0.06146 0.75674 0.70342 0.0
C5554 C 0.11023 0.76336 0.69869 0.0
C5555 C 0.11742 0.76845 0.7176 0.0
C5556 C 0.11959 0.75487 0.68483 0.0
C5557 C 0.11214 0.74876 0.66473 0.0
C5558 C 0.09581 0.73429 0.65906 0.0
C5559 C 0.08903 0.72838 0.64001 0.0
C5560 C 0.0985 0.73682 0.62651 0.0
C5561 C 0.11478 0.75115 0.63203 0.0
C5562 C 0.12163 0.75707 0.65106 0.0
C5563 C 0.16973 0.7298 0.73511 0.0
C5564 C 0.18628 0.74406 0.7391 0.0
C5565 C 0.15567 0.73234 0.72359 0.0
C5566 C 0.15814 0.74903 0.71585 0.0
C5567 C 0.17498 0.76247 0.71852 0.0
C5568 C 0.18889 0.76017 0.73026 0.0
C5569 C 0.14234 0.75501 0.70967 0.0
C5570 C 0.13593 0.75107 0.69051 0.0
C5571 C 0.13316 0.76401 0.7233 0.0
C5572 C 0.13887 0.76761 0.74373 0.0
C5573 C 0.15406 0.78269 0.75204 0.0
C5574 C 0.15911 0.78624 0.77144 0.0
C5575 C 0.14897 0.77485 0.78262 0.0
C5576 C 0.13376 0.75989 0.77443 0.0
C5577 C 0.12868 0.75629 0.75505 0.0
H5578 H 0.15287 0.77765 0.79764 0.0
H5579 H 0.09324 0.73222 0.61177 0.0
H5580 H 0.10205 0.376 0.39261 0.0
H5581 H 0.09204 0.40447 0.40313 0.0
H5582 H 0.13594 0.42436 0.44824 0.0
H5583 H 0.14393 0.39355 0.43949 0.0
H5584 H 0.10816 0.4213 0.46286 0.0
H5585 H 0.12361 0.44815 0.40701 0.0
H5586 H 0.12306 0.44757 0.37293 0.0
H5587 H 0.06514 0.43479 0.36739 0.0
H5588 H 0.0653 0.43498 0.40132 0.0
H5589 H 0.09071 0.50828 0.50261 0.0
H5590 H 0.10172 0.48207 0.48531 0.0
H5591 H 0.05009 0.45807 0.45191 0.0
H5592 H 0.03886 0.48432 0.46897 0.0
H5593 H 0.07846 0.46213 0.43081 0.0
H5594 H 0.0618 0.43431 0.48386 0.0
H5595 H 0.06 0.43531 0.51778 0.0
H5596 H 0.11788 0.4495 0.52773 0.0
H5597 H 0.12004 0.44877 0.49389 0.0
C5598 C 0.11017 0.38685 0.40425 0.0
C5599 C 0.12354 0.38252 0.41552 0.0
C5600 C 0.10445 0.40342 0.41022 0.0
C5601 C 0.1131 0.41673 0.42664 0.0
C5602 C 0.12879 0.41408 0.43575 0.0
C5603 C 0.13362 0.39669 0.4306 0.0
C5604 C 0.10368 0.43044 0.43654 0.0
C5605 C 0.10215 0.43057 0.45579 0.0
C5606 C 0.09446 0.44146 0.42718 0.0
C5607 C 0.0945 0.44152 0.40675 0.0
C5608 C 0.11076 0.44507 0.39851 0.0
C5609 C 0.1105 0.4448 0.3792 0.0
C5610 C 0.09408 0.4411 0.36799 0.0
C5611 C 0.07786 0.43767 0.37607 0.0
C5612 C 0.07804 0.43789 0.39535 0.0
C5613 C 0.08166 0.49731 0.49171 0.0
C5614 C 0.06404 0.49827 0.4869 0.0
C5615 C 0.08796 0.48247 0.48194 0.0
C5616 C 0.07668 0.46833 0.46757 0.0
C5617 C 0.05894 0.46901 0.46297 0.0
C5618 C 0.05262 0.48398 0.47263 0.0
C5619 C 0.08405 0.45349 0.45685 0.0
C5620 C 0.08481 0.45291 0.4376 0.0
C5621 C 0.09237 0.44186 0.46603 0.0
C5622 C 0.09108 0.44145 0.48631 0.0
C5623 C 0.07415 0.43762 0.49327 0.0
C5624 C 0.07306 0.43815 0.51249 0.0
C5625 C 0.08881 0.44241 0.52489 0.0
C5626 C 0.10568 0.44611 0.51809 0.0
C5627 C 0.10685 0.44558 0.49888 0.0
H5628 H 0.08795 0.44289 0.53977 0.0
H5629 H 0.09393 0.44094 0.35306 0.0
H5630 H 0.44951 0.23289 0.1913 0.0
H5631 H 0.41915 0.23352 0.19834 0.0
H5632 H 0.43244 0.29536 0.20055 0.0
H5633 H 0.4631 0.2947 0.19275 0.0
H5634 H 0.42439 0.27892 0.23521 0.0
H5635 H 0.40072 0.27117 0.1697 0.0
H5636 H 0.39402 0.25517 0.13613 0.0
H5637 H 0.36538 0.20219 0.15105 0.0
H5638 H 0.37211 0.21774 0.18467 0.0
H5639 H 0.3431 0.28977 0.26777 0.0
H5640 H 0.37253 0.28736 0.26012 0.0
H5641 H 0.34703 0.2315 0.22372 0.0
H5642 H 0.31819 0.23912 0.22537 0.0
H5643 H 0.36276 0.24726 0.20341 0.0
H5644 H 0.38726 0.24819 0.2667 0.0
H5645 H 0.39476 0.25932 0.30111 0.0
H5646 H 0.42335 0.31572 0.29341 0.0
H5647 H 0.41589 0.30504 0.25905 0.0
C5648 C 0.44592 0.24662 0.19325 0.0
C5649 C 0.45857 0.26396 0.19242 0.0
C5650 C 0.42855 0.24684 0.19675 0.0
C5651 C 0.42383 0.26444 0.19974 0.0
C5652 C 0.4361 0.28169 0.19799 0.0
C5653 C 0.4535 0.28138 0.19395 0.0
C5654 C 0.40786 0.26513 0.20903 0.0
C5655 C 0.4107 0.27227 0.22847 0.0
C5656 C 0.39056 0.25511 0.20007 0.0
C5657 C 0.38706 0.24564 0.17976 0.0
C5658 C 0.3932 0.25605 0.16585 0.0
C5659 C 0.38933 0.24706 0.14679 0.0
C5660 C 0.37931 0.22767 0.14146 0.0
C5661 C 0.37315 0.2172 0.15518 0.0
C5662 C 0.37698 0.22611 0.17423 0.0
C5663 C 0.34411 0.27829 0.25672 0.0
C5664 C 0.32899 0.26693 0.24467 0.0
C5665 C 0.36099 0.27574 0.25345 0.0
C5666 C 0.36238 0.25956 0.24026 0.0
C5667 C 0.34651 0.245 0.23268 0.0
C5668 C 0.32997 0.24932 0.23364 0.0
C5669 C 0.37879 0.26018 0.23057 0.0
C5670 C 0.37618 0.2535 0.21084 0.0
C5671 C 0.39649 0.26943 0.23956 0.0
C5672 C 0.40096 0.27579 0.26028 0.0
C5673 C 0.39508 0.26298 0.27236 0.0
C5674 C 0.39934 0.26922 0.29186 0.0
C5675 C 0.40951 0.28821 0.29943 0.0
C5676 C 0.41549 0.30101 0.28754 0.0
C5677 C 0.41129 0.29486 0.26806 0.0
H5678 H 0.41278 0.293 0.31453 0.0
H5679 H 0.3763 0.22077 0.12671 0.0
H5680 H 0.6092 0.51993 0.3124 0.0
H5681 H 0.59816 0.52114 0.34303 0.0
H5682 H 0.6418 0.49966 0.36282 0.0
H5683 H 0.65309 0.49824 0.33149 0.0
H5684 H 0.61144 0.48432 0.379 0.0
H5685 H 0.6409 0.54952 0.37507 0.0
H5686 H 0.64763 0.57876 0.36119 0.0
H5687 H 0.59258 0.58174 0.36279 0.0
H5688 H 0.58545 0.55234 0.37642 0.0
H5689 H 0.59844 0.51906 0.47799 0.0
H5690 H 0.61115 0.51411 0.44762 0.0
H5691 H 0.56464 0.52487 0.41983 0.0
H5692 H 0.55169 0.5291 0.44982 0.0
H5693 H 0.59799 0.54568 0.40874 0.0
H5694 H 0.56805 0.48095 0.4117 0.0
H5695 H 0.56022 0.45148 0.42509 0.0
H5696 H 0.61509 0.44752 0.42516 0.0
H5697 H 0.62333 0.47721 0.41204 0.0
C5698 C 0.61664 0.51531 0.32307 0.0
C5699 C 0.63235 0.50906 0.31889 0.0
C5700 C 0.61022 0.51617 0.34096 0.0
C5701 C 0.61913 0.51101 0.35604 0.0
C5702 C 0.63447 0.50397 0.35185 0.0
C5703 C 0.64099 0.50309 0.3337 0.0
C5704 C 0.61246 0.51349 0.37584 0.0
C5705 C 0.6089 0.49794 0.38554 0.0
C5706 C 0.60839 0.53094 0.3848 0.0
C5707 C 0.61261 0.54862 0.37661 0.0
C5708 C 0.6302 0.55633 0.37233 0.0
C5709 C 0.63408 0.57294 0.36453 0.0
C5710 C 0.62053 0.58208 0.36107 0.0
C5711 C 0.60306 0.57463 0.36545 0.0
C5712 C 0.59909 0.558 0.37323 0.0
C5713 C 0.59077 0.5202 0.46542 0.0
C5714 C 0.57372 0.52425 0.46675 0.0
C5715 C 0.59812 0.51733 0.44786 0.0
C5716 C 0.58904 0.519 0.43089 0.0
C5717 C 0.57217 0.52336 0.43232 0.0
C5718 C 0.56461 0.52565 0.4497 0.0
C5719 C 0.59707 0.51659 0.41188 0.0
C5720 C 0.60074 0.53214 0.40228 0.0
C5721 C 0.60116 0.49916 0.40304 0.0
C5722 C 0.59637 0.48148 0.41116 0.0
C5723 C 0.57851 0.47396 0.4148 0.0
C5724 C 0.57398 0.45717 0.42228 0.0
C5725 C 0.58717 0.44768 0.42604 0.0
C5726 C 0.6049 0.45493 0.42229 0.0
C5727 C 0.60951 0.47174 0.41483 0.0
H5728 H 0.58363 0.43466 0.43181 0.0
H5729 H 0.62357 0.59494 0.35503 0.0
H5730 H 0.29518 0.90523 0.06876 0.0
H5731 H 0.2958 0.89472 0.09889 0.0
H5732 H 0.34306 0.87464 0.08676 0.0
H5733 H 0.3427 0.88504 0.05675 0.0
H5734 H 0.30845 0.84679 0.09255 0.0
H5735 H 0.35252 0.90832 0.11881 0.0
H5736 H 0.36273 0.94411 0.12641 0.0
H5737 H 0.31802 0.94626 0.15865 0.0
H5738 H 0.30747 0.91044 0.15111 0.0
H5739 H 0.3525 0.81933 0.1647 0.0
H5740 H 0.34139 0.83243 0.13905 0.0
H5741 H 0.3053 0.85509 0.17458 0.0
H5742 H 0.31648 0.84185 0.20047 0.0
H5743 H 0.32673 0.8827 0.15856 0.0
H5744 H 0.28609 0.81955 0.13555 0.0
H5745 H 0.27537 0.78391 0.12537 0.0
H5746 H 0.31407 0.78487 0.08513 0.0
H5747 H 0.32508 0.82045 0.09512 0.0
C5748 C 0.30569 0.89856 0.07251 0.0
C5749 C 0.31863 0.89548 0.06025 0.0
C5750 C 0.30618 0.89291 0.08979 0.0
C5751 C 0.31955 0.88417 0.09485 0.0
C5752 C 0.33275 0.88156 0.08294 0.0
C5753 C 0.33235 0.88725 0.06575 0.0
C5754 C 0.31818 0.87478 0.11097 0.0
C5755 C 0.31246 0.85454 0.10705 0.0
C5756 C 0.32275 0.88522 0.12967 0.0
C5757 C 0.32909 0.90673 0.13422 0.0
C5758 C 0.34477 0.91643 0.12737 0.0
C5759 C 0.35065 0.93672 0.13172 0.0
C5760 C 0.34099 0.94746 0.14295 0.0
C5761 C 0.32547 0.93792 0.14993 0.0
C5762 C 0.31955 0.91763 0.14565 0.0
C5763 C 0.34202 0.82688 0.16691 0.0
C5764 C 0.33539 0.82979 0.18444 0.0
C5765 C 0.33555 0.83416 0.15225 0.0
C5766 C 0.32237 0.84448 0.15492 0.0
C5767 C 0.31533 0.84696 0.17228 0.0
C5768 C 0.32169 0.83945 0.18697 0.0
C5769 C 0.31775 0.85441 0.14013 0.0
C5770 C 0.32224 0.87484 0.1442 0.0
C5771 C 0.31225 0.84414 0.12138 0.0
C5772 C 0.30647 0.82264 0.1162 0.0
C5773 C 0.29247 0.81212 0.12471 0.0
C5774 C 0.28628 0.79194 0.1189 0.0
C5775 C 0.29405 0.78213 0.10464 0.0
C5776 C 0.30806 0.79247 0.09618 0.0
C5777 C 0.31426 0.81264 0.10189 0.0
H5778 H 0.28919 0.76653 0.10011 0.0
H5779 H 0.34556 0.96316 0.1463 0.0
H5780 H 0.93579 0.56291 0.85116 0.0
H5781 H 0.94702 0.56678 0.88439 0.0
H5782 H 0.95978 0.51125 0.87117 0.0
H5783 H 0.94718 0.50667 0.83923 0.0
H5784 H 0.95493 0.51585 0.90359 0.0
H5785 H 0.98912 0.56175 0.86618 0.0
H5786 H 0.99297 0.58992 0.85069 0.0
H5787 H 0.9842 0.6252 0.90168 0.0
H5788 H 0.98018 0.59719 0.91737 0.0
H5789 H 0.03693 0.52121 0.95429 0.0
H5790 H 0.01899 0.52284 0.9258 0.0
H5791 H 0.00329 0.57182 0.95664 0.0
H5792 H 0.02156 0.57077 0.98468 0.0
H5793 H 0.00695 0.57425 0.92012 0.0
H5794 H 0.97059 0.5217 0.95375 0.0
H5795 H 0.96638 0.49059 0.96443 0.0
H5796 H 0.98422 0.46512 0.91335 0.0
H5797 H 0.98794 0.49592 0.90218 0.0
C5798 C 0.94035 0.5513 0.85573 0.0
C5799 C 0.9415 0.53492 0.84271 0.0
C5800 C 0.9469 0.55358 0.87457 0.0
C5801 C 0.95501 0.53976 0.88006 0.0
C5802 C 0.95384 0.52232 0.86737 0.0
C5803 C 0.94687 0.51981 0.84894 0.0
C5804 C 0.96715 0.54394 0.89756 0.0
C5805 C 0.96627 0.52869 0.90715 0.0
C5806 C 0.98192 0.56073 0.9024 0.0
C5807 C 0.9841 0.57737 0.89282 0.0
C5808 C 0.98792 0.5755 0.87401 0.0
C5809 C 0.99014 0.59143 0.86522 0.0
C5810 C 0.98876 0.60932 0.87518 0.0
C5811 C 0.9852 0.61133 0.89396 0.0
C5812 C 0.98293 0.59544 0.9028 0.0
C5813 C 0.0301 0.53266 0.95472 0.0
C5814 C 0.03013 0.54556 0.97161 0.0
C5815 C 0.0198 0.53348 0.93859 0.0
C5816 C 0.0095 0.54707 0.93949 0.0
C5817 C 0.01106 0.56113 0.95585 0.0
C5818 C 0.02136 0.56041 0.97184 0.0
C5819 C 0.99533 0.5454 0.92453 0.0
C5820 C 0.99562 0.56143 0.91625 0.0
C5821 C 0.98054 0.52884 0.91989 0.0
C5822 C 0.97974 0.51106 0.92731 0.0
C5823 C 0.97376 0.50949 0.94493 0.0
C5824 C 0.97133 0.49188 0.95098 0.0
C5825 C 0.97511 0.4759 0.93961 0.0
C5826 C 0.98132 0.47749 0.92215 0.0
C5827 C 0.98349 0.49496 0.91592 0.0
H5828 H 0.97319 0.46228 0.94432 0.0
H5829 H 0.9905 0.62164 0.86836 0.0
H5830 H 0.32507 0.22231 0.5652 0.0
H5831 H 0.3292 0.23376 0.59954 0.0
H5832 H 0.28429 0.2593 0.59536 0.0
H5833 H 0.28082 0.24905 0.56146 0.0
H5834 H 0.30777 0.28169 0.62144 0.0
H5835 H 0.28163 0.21036 0.6054 0.0
H5836 H 0.283 0.17696 0.59208 0.0
H5837 H 0.3324 0.18575 0.62751 0.0
H5838 H 0.33137 0.2192 0.64092 0.0
H5839 H 0.28788 0.2911 0.71725 0.0
H5840 H 0.28664 0.28489 0.68302 0.0
H5841 H 0.32089 0.24596 0.68608 0.0
H5842 H 0.31723 0.24763 0.71863 0.0
H5843 H 0.30285 0.23068 0.65918 0.0
H5844 H 0.33087 0.30177 0.6762 0.0
H5845 H 0.33069 0.33553 0.68974 0.0
H5846 H 0.28209 0.3291 0.65389 0.0
H5847 H 0.28193 0.29533 0.64025 0.0
C5848 C 0.31631 0.23065 0.57163 0.0
C5849 C 0.30256 0.23463 0.56056 0.0
C5850 C 0.31858 0.23708 0.59127 0.0
C5851 C 0.30678 0.24706 0.60015 0.0
C5852 C 0.29359 0.25167 0.58896 0.0
C5853 C 0.29159 0.24568 0.56947 0.0
C5854 C 0.30709 0.25175 0.62101 0.0
C5855 C 0.30692 0.27063 0.62984 0.0
C5856 C 0.30609 0.23745 0.63204 0.0
C5857 C 0.30649 0.21728 0.62402 0.0
C5858 C 0.2928 0.20515 0.61028 0.0
C5859 C 0.29352 0.18623 0.60273 0.0
C5860 C 0.3078 0.17925 0.60891 0.0
C5861 C 0.32136 0.19116 0.62271 0.0
C5862 C 0.3207 0.21009 0.6303 0.0
C5863 C 0.29388 0.28016 0.71033 0.0
C5864 C 0.30128 0.26883 0.72071 0.0
C5865 C 0.29411 0.27733 0.69069 0.0
C5866 C 0.30383 0.26492 0.68136 0.0
C5867 C 0.31261 0.25503 0.69226 0.0
C5868 C 0.3107 0.25627 0.71127 0.0
C5869 C 0.30466 0.26119 0.66041 0.0
C5870 C 0.30452 0.24222 0.6513 0.0
C5871 C 0.30595 0.27563 0.64932 0.0
C5872 C 0.30634 0.29603 0.65732 0.0
C5873 C 0.32016 0.30759 0.67123 0.0
C5874 C 0.3201 0.3267 0.67892 0.0
C5875 C 0.30637 0.33443 0.6727 0.0
C5876 C 0.29271 0.3231 0.65871 0.0
C5877 C 0.29271 0.304 0.65098 0.0
H5878 H 0.30633 0.34921 0.6787 0.0
H5879 H 0.30834 0.16461 0.60302 0.0
H5880 H 0.64969 0.53555 0.20955 0.0
H5881 H 0.63665 0.53901 0.17913 0.0
H5882 H 0.59974 0.48241 0.17244 0.0
H5883 H 0.61282 0.47906 0.20323 0.0
H5884 H 0.60828 0.48723 0.13752 0.0
H5885 H 0.5855 0.52384 0.18497 0.0
H5886 H 0.58466 0.54696 0.21406 0.0
H5887 H 0.61559 0.59392 0.19157 0.0
H5888 H 0.61687 0.57099 0.16241 0.0
H5889 H 0.54792 0.51726 0.06909 0.0
H5890 H 0.558 0.51058 0.09967 0.0
H5891 H 0.61189 0.54422 0.0966 0.0
H5892 H 0.60218 0.54975 0.06572 0.0
H5893 H 0.59123 0.54876 0.13653 0.0
H5894 H 0.61234 0.50589 0.08712 0.0
H5895 H 0.60597 0.48033 0.05831 0.0
H5896 H 0.57006 0.44178 0.08604 0.0
H5897 H 0.57578 0.46732 0.11481 0.0
C5898 C 0.63921 0.52347 0.20139 0.0
C5899 C 0.63302 0.50666 0.20895 0.0
C5900 C 0.63143 0.52561 0.1839 0.0
C5901 C 0.61682 0.51114 0.17293 0.0
C5902 C 0.61095 0.49397 0.18012 0.0
C5903 C 0.61866 0.49191 0.19785 0.0
C5904 C 0.60752 0.51451 0.1547 0.0
C5905 C 0.60455 0.50071 0.13754 0.0
C5906 C 0.60189 0.53177 0.15401 0.0
C5907 C 0.6015 0.54565 0.17159 0.0
C5908 C 0.59231 0.53906 0.1863 0.0
C5909 C 0.59172 0.55214 0.20279 0.0
C5910 C 0.60013 0.57189 0.20469 0.0
C5911 C 0.60913 0.5786 0.19009 0.0
C5912 C 0.60979 0.56557 0.17357 0.0
C5913 C 0.56182 0.52365 0.0751 0.0
C5914 C 0.57401 0.5347 0.06486 0.0
C5915 C 0.56769 0.51964 0.09267 0.0
C5916 C 0.5859 0.52683 0.10093 0.0
C5917 C 0.59782 0.53841 0.09098 0.0
C5918 C 0.59213 0.54178 0.07321 0.0
C5919 C 0.59283 0.52194 0.11938 0.0
C5920 C 0.59519 0.53541 0.13658 0.0
C5921 C 0.59729 0.50413 0.12019 0.0
C5922 C 0.59428 0.48864 0.10304 0.0
C5923 C 0.60289 0.49206 0.08699 0.0
C5924 C 0.59942 0.47755 0.07067 0.0
C5925 C 0.58756 0.45945 0.0703 0.0
C5926 C 0.5792 0.45581 0.08629 0.0
C5927 C 0.58253 0.47031 0.10261 0.0
H5928 H 0.58489 0.44822 0.05767 0.0
H5929 H 0.59963 0.582 0.21746 0.0
H5930 H 0.32817 0.9216 0.94904 0.0
H5931 H 0.32952 0.89758 0.92087 0.0
H5932 H 0.31244 0.85133 0.95102 0.0
H5933 H 0.31056 0.87507 0.97886 0.0
H5934 H 0.34338 0.85076 0.92387 0.0
H5935 H 0.28075 0.85671 0.93055 0.0
H5936 H 0.26037 0.87818 0.93619 0.0
H5937 H 0.27642 0.90231 0.88818 0.0
H5938 H 0.29721 0.8813 0.88254 0.0
H5939 H 0.31388 0.78113 0.8341 0.0
H5940 H 0.31433 0.79538 0.86767 0.0
H5941 H 0.31838 0.85153 0.85362 0.0
H5942 H 0.31811 0.83778 0.82085 0.0
H5943 H 0.29139 0.84108 0.87576 0.0
H5944 H 0.35389 0.84299 0.8691 0.0
H5945 H 0.37886 0.82816 0.86156 0.0
H5946 H 0.36851 0.79639 0.90592 0.0
H5947 H 0.34312 0.81071 0.91343 0.0
C5948 C 0.32463 0.90628 0.94947 0.0
C5949 C 0.31861 0.8999 0.96559 0.0
C5950 C 0.32571 0.89274 0.93367 0.0
C5951 C 0.32116 0.87291 0.93421 0.0
C5952 C 0.31608 0.86665 0.95062 0.0
C5953 C 0.31461 0.8801 0.96622 0.0
C5954 C 0.31882 0.85854 0.91687 0.0
C5955 C 0.33189 0.84825 0.91341 0.0
C5956 C 0.30392 0.85579 0.90342 0.0
C5957 C 0.29057 0.8675 0.90618 0.0
C5958 C 0.27997 0.86663 0.92124 0.0
C5959 C 0.26837 0.87874 0.92445 0.0
C5960 C 0.26711 0.89161 0.91256 0.0
C5961 C 0.2774 0.89233 0.89738 0.0
C5962 C 0.28908 0.88032 0.89416 0.0
C5963 C 0.31504 0.79653 0.83835 0.0
C5964 C 0.31606 0.80842 0.82498 0.0
C5965 C 0.3152 0.80454 0.85735 0.0
C5966 C 0.31618 0.82435 0.8628 0.0
C5967 C 0.31745 0.83615 0.84949 0.0
C5968 C 0.31751 0.82829 0.83077 0.0
C5969 C 0.3162 0.83353 0.88236 0.0
C5970 C 0.30256 0.84291 0.88641 0.0
C5971 C 0.33101 0.83607 0.89592 0.0
C5972 C 0.34639 0.82763 0.8916 0.0
C5973 C 0.35678 0.83265 0.8771 0.0
C5974 C 0.37103 0.82437 0.87284 0.0
C5975 C 0.37522 0.81126 0.88319 0.0
C5976 C 0.36519 0.80648 0.89786 0.0
C5977 C 0.35084 0.81465 0.9021 0.0
H5978 H 0.38627 0.80487 0.8799 0.0
H5979 H 0.25816 0.90101 0.9151 0.0
H5980 H 0.97384 0.57241 0.75127 0.0
H5981 H 0.9689 0.57062 0.71748 0.0
H5982 H 0.92637 0.51775 0.71199 0.0
H5983 H 0.93173 0.51937 0.74579 0.0
H5984 H 0.95499 0.51196 0.69551 0.0
H5985 H 0.91785 0.55459 0.69222 0.0
H5986 H 0.90795 0.58392 0.70428 0.0
H5987 H 0.95847 0.61994 0.69447 0.0
H5988 H 0.9688 0.59084 0.68258 0.0
H5989 H 0.98743 0.50385 0.60749 0.0
H5990 H 0.96307 0.50821 0.62686 0.0
H5991 H 0.99877 0.56069 0.66047 0.0
H5992 H 0.02314 0.55614 0.64125 0.0
H5993 H 0.96103 0.56148 0.65564 0.0
H5994 H 0.00083 0.5234 0.67417 0.0
H5995 H 0.01593 0.49697 0.66756 0.0
H5996 H 0.96431 0.45509 0.65382 0.0
H5997 H 0.94891 0.48141 0.65993 0.0
C5998 C 0.96284 0.56103 0.74294 0.0
C5999 C 0.95326 0.54594 0.75078 0.0
C6000 C 0.95989 0.56004 0.72367 0.0
C6001 C 0.94726 0.54399 0.71226 0.0
C6002 C 0.93608 0.53025 0.7206 0.0
C6003 C 0.93914 0.53118 0.73984 0.0
C6004 C 0.94952 0.53907 0.69216 0.0
C6005 C 0.95544 0.52232 0.68636 0.0
C6006 C 0.95064 0.5529 0.68059 0.0
C6007 C 0.94405 0.57048 0.68635 0.0
C6008 C 0.92682 0.56876 0.69252 0.0
C6009 C 0.92115 0.58535 0.6994 0.0
C6010 C 0.93256 0.60378 0.7001 0.0
C6011 C 0.94961 0.60565 0.69382 0.0
C6012 C 0.95536 0.58909 0.68693 0.0
C6013 C 0.98988 0.51636 0.61895 0.0
C6014 C 0.00705 0.52939 0.6235 0.0
C6015 C 0.97597 0.51902 0.6297 0.0
C6016 C 0.9792 0.5348 0.64495 0.0
C6017 C 0.99605 0.54856 0.64859 0.0
C6018 C 0.00999 0.54578 0.63796 0.0
C6019 C 0.96681 0.53474 0.6595 0.0
C6020 C 0.95931 0.55053 0.66423 0.0
C6021 C 0.96456 0.52027 0.67046 0.0
C6022 C 0.97373 0.50437 0.66717 0.0
C6023 C 0.99271 0.50857 0.66956 0.0
C6024 C 0.00132 0.49362 0.66592 0.0
C6025 C 0.99109 0.47436 0.66019 0.0
C6026 C 0.97222 0.47002 0.65818 0.0
C6027 C 0.96353 0.48495 0.66169 0.0
H6028 H 0.99778 0.4628 0.65739 0.0
H6029 H 0.92819 0.61661 0.70554 0.0
H6030 H 0.32735 0.21546 0.45552 0.0
H6031 H 0.33299 0.22254 0.42411 0.0
H6032 H 0.28423 0.24176 0.42108 0.0
H6033 H 0.27878 0.23533 0.45212 0.0
H6034 H 0.28812 0.21298 0.38897 0.0
H6035 H 0.31862 0.27457 0.42984 0.0
H6036 H 0.34111 0.29589 0.45541 0.0
H6037 H 0.384 0.28077 0.42593 0.0
H6038 H 0.36169 0.25906 0.40031 0.0
H6039 H 0.27934 0.2631 0.31839 0.0
H6040 H 0.28291 0.2547 0.34912 0.0
H6041 H 0.33803 0.25369 0.34169 0.0
H6042 H 0.33472 0.26341 0.31112 0.0
H6043 H 0.33532 0.26882 0.37747 0.0
H6044 H 0.30264 0.21084 0.33329 0.0
H6045 H 0.27857 0.19288 0.30771 0.0
H6046 H 0.23822 0.20294 0.3438 0.0
H6047 H 0.26205 0.22121 0.3695 0.0
C6048 C 0.31796 0.22133 0.44815 0.0
C6049 C 0.30269 0.22493 0.45634 0.0
C6050 C 0.32118 0.22535 0.43028 0.0
C6051 C 0.30895 0.23259 0.42035 0.0
C6052 C 0.29378 0.23613 0.42853 0.0
C6053 C 0.29077 0.23254 0.44636 0.0
C6054 C 0.31141 0.23634 0.40123 0.0
C6055 C 0.29852 0.22507 0.38637 0.0
C6056 C 0.32509 0.252 0.39792 0.0
C6057 C 0.33849 0.26492 0.41334 0.0
C6058 C 0.33283 0.27557 0.42893 0.0
C6059 C 0.34554 0.28778 0.4434 0.0
C6060 C 0.36397 0.28961 0.44234 0.0
C6061 C 0.36971 0.27928 0.42677 0.0
C6062 C 0.35704 0.26701 0.41227 0.0
C6063 C 0.29217 0.26095 0.32327 0.0
C6064 C 0.3066 0.26325 0.31227 0.0
C6065 C 0.29422 0.25617 0.34082 0.0
C6066 C 0.31053 0.25283 0.34741 0.0
C6067 C 0.32525 0.2559 0.33674 0.0
C6068 C 0.32334 0.26129 0.31931 0.0
C6069 C 0.31177 0.24568 0.36521 0.0
C6070 C 0.32529 0.2563 0.37983 0.0
C6071 C 0.29852 0.22948 0.36839 0.0
C6072 C 0.28416 0.2174 0.35333 0.0
C6073 C 0.28864 0.20917 0.33579 0.0
C6074 C 0.27503 0.19898 0.32125 0.0
C6075 C 0.25688 0.19677 0.32413 0.0
C6076 C 0.25229 0.20463 0.3416 0.0
C6077 C 0.26584 0.21486 0.35618 0.0
H6078 H 0.24637 0.18898 0.31283 0.0
H6079 H 0.3738 0.29909 0.45354 0.0
H6080 H 0.31209 0.59917 0.50564 0.0
H6081 H 0.33715 0.58431 0.50428 0.0
H6082 H 0.36582 0.62669 0.55311 0.0
H6083 H 0.34085 0.64239 0.55398 0.0
H6084 H 0.3868 0.62269 0.52578 0.0
H6085 H 0.34542 0.57716 0.55458 0.0
H6086 H 0.31553 0.5554 0.55611 0.0
H6087 H 0.31807 0.52129 0.50198 0.0
H6088 H 0.34782 0.54294 0.5 0.0
H6089 H 0.45658 0.57416 0.51565 0.0
H6090 H 0.4341 0.58943 0.52879 0.0
H6091 H 0.39215 0.54621 0.49074 0.0
H6092 H 0.41401 0.52919 0.47965 0.0
H6093 H 0.37935 0.55197 0.52001 0.0
H6094 H 0.41465 0.59716 0.48624 0.0
H6095 H 0.44113 0.62042 0.47859 0.0
H6096 H 0.44694 0.6556 0.53405 0.0
H6097 H 0.42088 0.63233 0.54217 0.0
C6098 C 0.32359 0.60521 0.51629 0.0
C6099 C 0.32451 0.62187 0.53 0.0
C6100 C 0.33788 0.5966 0.51556 0.0
C6101 C 0.35315 0.60407 0.52889 0.0
C6102 C 0.35404 0.6206 0.54281 0.0
C6103 C 0.33983 0.62952 0.54331 0.0
C6104 C 0.36863 0.59537 0.52726 0.0
C6105 C 0.38536 0.60728 0.52491 0.0
C6106 C 0.36645 0.57518 0.52551 0.0
C6107 C 0.34889 0.56169 0.52717 0.0
C6108 C 0.33961 0.56501 0.54302 0.0
C6109 C 0.32267 0.55271 0.54395 0.0
C6110 C 0.31491 0.53698 0.52916 0.0
C6111 C 0.3241 0.53345 0.51345 0.0
C6112 C 0.34103 0.5457 0.51244 0.0
C6113 C 0.44254 0.56746 0.5104 0.0
C6114 C 0.43731 0.55026 0.49642 0.0
C6115 C 0.42968 0.57658 0.51769 0.0
C6116 C 0.41138 0.5693 0.51053 0.0
C6117 C 0.40615 0.55222 0.49659 0.0
C6118 C 0.41884 0.54264 0.48992 0.0
C6119 C 0.39745 0.5791 0.51744 0.0
C6120 C 0.38102 0.56744 0.52109 0.0
C6121 C 0.39968 0.59942 0.51956 0.0
C6122 C 0.416 0.6128 0.51492 0.0
C6123 C 0.42179 0.60968 0.4969 0.0
C6124 C 0.43672 0.6229 0.49247 0.0
C6125 C 0.44582 0.63943 0.50585 0.0
C6126 C 0.44004 0.64274 0.52372 0.0
C6127 C 0.42522 0.62951 0.52827 0.0
H6128 H 0.45726 0.64973 0.50232 0.0
H6129 H 0.30177 0.52752 0.52988 0.0
H6130 H 0.87376 0.8991 0.54425 0.0
H6131 H 0.90261 0.92251 0.54504 0.0
H6132 H 0.87507 0.96499 0.53339 0.0
H6133 H 0.84573 0.94132 0.53251 0.0
H6134 H 0.90281 0.9609 0.51031 0.0
H6135 H 0.89598 0.97168 0.57611 0.0
H6136 H 0.88943 0.96221 0.60639 0.0
H6137 H 0.93343 0.93533 0.60507 0.0
H6138 H 0.94009 0.94439 0.57466 0.0
H6139 H 0.98745 0.0338 0.52742 0.0
H6140 H 0.95642 0.01661 0.53044 0.0
H6141 H 0.97442 0.96638 0.5381 0.0
H6142 H 0.00555 0.98354 0.53482 0.0
H6143 H 0.95038 0.978 0.56455 0.0
H6144 H 0.95573 0.9638 0.49861 0.0
H6145 H 0.96243 0.97105 0.46757 0.0
H6146 H 0.92142 0.00205 0.46819 0.0
H6147 H 0.91472 0.99533 0.49947 0.0
C6148 C 0.87374 0.91345 0.54199 0.0
C6149 C 0.85743 0.91835 0.5383 0.0
C6150 C 0.89029 0.92686 0.54254 0.0
C6151 C 0.89099 0.94552 0.53943 0.0
C6152 C 0.87478 0.95064 0.5359 0.0
C6153 C 0.85807 0.93719 0.53551 0.0
C6154 C 0.90882 0.95914 0.53919 0.0
C6155 C 0.91309 0.96509 0.52232 0.0
C6156 C 0.92237 0.96402 0.55468 0.0
C6157 C 0.91847 0.95864 0.57305 0.0
C6158 C 0.90419 0.96364 0.58222 0.0
C6159 C 0.90047 0.95836 0.59942 0.0
C6160 C 0.91099 0.94816 0.60764 0.0
C6161 C 0.92529 0.94324 0.59869 0.0
C6162 C 0.92906 0.94847 0.58149 0.0
C6163 C 0.98486 0.01929 0.53019 0.0
C6164 C 0.99889 0.01012 0.5313 0.0
C6165 C 0.96712 0.0094 0.53167 0.0
C6166 C 0.96319 0.99026 0.5345 0.0
C6167 C 0.97725 0.98119 0.53598 0.0
C6168 C 0.99495 0.99096 0.53411 0.0
C6169 C 0.94436 0.97961 0.53567 0.0
C6170 C 0.93998 0.97416 0.55269 0.0
C6171 C 0.93079 0.97504 0.52026 0.0
C6172 C 0.93494 0.97935 0.50155 0.0
C6173 C 0.94832 0.97242 0.49228 0.0
C6174 C 0.95209 0.97638 0.4746 0.0
C6175 C 0.94242 0.98709 0.46595 0.0
C6176 C 0.92895 0.99382 0.47494 0.0
C6177 C 0.92517 0.98995 0.49266 0.0
H6178 H 0.94533 0.9901 0.45224 0.0
H6179 H 0.90809 0.94408 0.62096 0.0
H6180 H 0.9301 0.15454 0.28997 0.0
H6181 H 0.9124 0.17793 0.28881 0.0
H6182 H 0.86617 0.13175 0.26237 0.0
H6183 H 0.88424 0.10789 0.26324 0.0
H6184 H 0.865 0.16145 0.24644 0.0
H6185 H 0.87221 0.15976 0.31222 0.0
H6186 H 0.88888 0.16167 0.34293 0.0
H6187 H 0.91879 0.22001 0.34271 0.0
H6188 H 0.90244 0.21838 0.3119 0.0
H6189 H 0.81386 0.23967 0.28948 0.0
H6190 H 0.82871 0.21351 0.29253 0.0
H6191 H 0.86328 0.23067 0.25097 0.0
H6192 H 0.84774 0.25524 0.24671 0.0
H6193 H 0.86722 0.21351 0.30188 0.0
H6194 H 0.86668 0.20413 0.22783 0.0
H6195 H 0.84778 0.2025 0.19852 0.0
H6196 H 0.80309 0.16414 0.21662 0.0
H6197 H 0.82158 0.16625 0.24638 0.0
C6198 C 0.91613 0.14901 0.28393 0.0
C6199 C 0.90898 0.12873 0.27682 0.0
C6200 C 0.90576 0.16274 0.28341 0.0
C6201 C 0.88739 0.15725 0.27583 0.0
C6202 C 0.88014 0.13698 0.26848 0.0
C6203 C 0.89059 0.12308 0.26905 0.0
C6204 C 0.87624 0.1726 0.27541 0.0
C6205 C 0.86567 0.17269 0.25874 0.0
C6206 C 0.8764 0.18783 0.29113 0.0
C6207 C 0.88619 0.18888 0.30968 0.0
C6208 C 0.88242 0.17296 0.31867 0.0
C6209 C 0.89179 0.174 0.33611 0.0
C6210 C 0.90491 0.19094 0.34475 0.0
C6211 C 0.90864 0.20689 0.336 0.0
C6212 C 0.8993 0.20593 0.31856 0.0
C6213 C 0.82428 0.23764 0.28059 0.0
C6214 C 0.8288 0.24968 0.26728 0.0
C6215 C 0.83304 0.22256 0.28248 0.0
C6216 C 0.84704 0.21902 0.27147 0.0
C6217 C 0.85208 0.23176 0.25902 0.0
C6218 C 0.84311 0.24631 0.25678 0.0
C6219 C 0.85657 0.20255 0.27283 0.0
C6220 C 0.86673 0.20225 0.28965 0.0
C6221 C 0.85622 0.18723 0.25729 0.0
C6222 C 0.84535 0.1856 0.23935 0.0
C6223 C 0.85277 0.19549 0.22558 0.0
C6224 C 0.84213 0.19454 0.20894 0.0
C6225 C 0.82422 0.18328 0.20574 0.0
C6226 C 0.81692 0.17297 0.21918 0.0
C6227 C 0.82742 0.17416 0.23599 0.0
H6228 H 0.81602 0.18249 0.19281 0.0
H6229 H 0.91216 0.19171 0.35824 0.0
H6230 H 0.7378 0.09003 0.03482 0.0
H6231 H 0.70535 0.07374 0.02634 0.0
H6232 H 0.69834 0.12187 0.00203 0.0
H6233 H 0.73038 0.13792 0.01026 0.0
H6234 H 0.68251 0.1155 0.03727 0.0
H6235 H 0.68551 0.08759 0.97404 0.0
H6236 H 0.69536 0.06858 0.94691 0.0
H6237 H 0.6762 0.0165 0.96804 0.0
H6238 H 0.66648 0.03529 0.99549 0.0
H6239 H 0.58885 0.09255 0.01083 0.0
H6240 H 0.62131 0.10325 0.01874 0.0
H6241 H 0.62255 0.04433 0.02081 0.0
H6242 H 0.59025 0.03341 0.01007 0.0
H6243 H 0.64212 0.05603 0.99694 0.0
H6244 H 0.64003 0.08901 0.06268 0.0
H6245 H 0.62937 0.11126 0.08667 0.0
H6246 H 0.64543 0.15715 0.05636 0.0
H6247 H 0.65637 0.13526 0.03241 0.0
C6248 C 0.72931 0.09665 0.02713 0.0
C6249 C 0.73606 0.1152 0.02349 0.0
C6250 C 0.71101 0.08737 0.02215 0.0
C6251 C 0.69977 0.0968 0.01367 0.0
C6252 C 0.707 0.11447 0.00845 0.0
C6253 C 0.72513 0.12362 0.01332 0.0
C6254 C 0.68043 0.09099 0.01469 0.0
C6255 C 0.67355 0.10248 0.0285 0.0
C6256 C 0.66914 0.07417 0.00312 0.0
C6257 C 0.67557 0.06291 0.98702 0.0
C6258 C 0.68369 0.07214 0.97309 0.0
C6259 C 0.68916 0.06139 0.9576 0.0
C6260 C 0.68649 0.04136 0.9558 0.0
C6261 C 0.67832 0.03204 0.96949 0.0
C6262 C 0.67283 0.04273 0.98503 0.0
C6263 C 0.59608 0.08209 0.01368 0.0
C6264 C 0.58732 0.06232 0.01042 0.0
C6265 C 0.6146 0.08823 0.01853 0.0
C6266 C 0.62439 0.07465 0.02078 0.0
C6267 C 0.6152 0.05504 0.01926 0.0
C6268 C 0.59677 0.04881 0.01345 0.0
C6269 C 0.64403 0.08 0.02027 0.0
C6270 C 0.65104 0.06867 0.00625 0.0
C6271 C 0.6554 0.09733 0.03134 0.0
C6272 C 0.64886 0.11046 0.04577 0.0
C6273 C 0.64115 0.10381 0.06114 0.0
C6274 C 0.63513 0.11637 0.07473 0.0
C6275 C 0.63661 0.13556 0.07298 0.0
C6276 C 0.64428 0.14229 0.05772 0.0
C6277 C 0.6505 0.12986 0.04421 0.0
H6278 H 0.63189 0.14523 0.08349 0.0
H6279 H 0.69069 0.03304 0.94377 0.0
H6280 H 0.18334 0.47877 0.23438 0.0
H6281 H 0.19748 0.45448 0.24311 0.0
H6282 H 0.24779 0.48381 0.22569 0.0
H6283 H 0.23385 0.50845 0.21712 0.0
H6284 H 0.23765 0.44233 0.21428 0.0
H6285 H 0.245 0.49273 0.26921 0.0
H6286 H 0.23645 0.51519 0.29461 0.0
H6287 H 0.20257 0.4669 0.31286 0.0
H6288 H 0.2107 0.44414 0.28738 0.0
H6289 H 0.30081 0.40922 0.26794 0.0
H6290 H 0.28321 0.42616 0.25088 0.0
H6291 H 0.23535 0.39939 0.27433 0.0
H6292 H 0.25304 0.38265 0.29149 0.0
H6293 H 0.24316 0.43852 0.28178 0.0
H6294 H 0.23735 0.38793 0.22763 0.0
H6295 H 0.24643 0.36576 0.20235 0.0
H6296 H 0.2781 0.41454 0.18293 0.0
H6297 H 0.26943 0.43702 0.20825 0.0
C6298 C 0.1973 0.47985 0.23198 0.0
C6299 C 0.20755 0.49556 0.22515 0.0
C6300 C 0.20536 0.46607 0.23715 0.0
C6301 C 0.22366 0.46767 0.23528 0.0
C6302 C 0.23363 0.48253 0.22728 0.0
C6303 C 0.22565 0.49648 0.22234 0.0
C6304 C 0.23251 0.45408 0.24217 0.0
C6305 C 0.23907 0.44155 0.22905 0.0
C6306 C 0.23386 0.45299 0.2614 0.0
C6307 C 0.22822 0.46672 0.27614 0.0
C6308 C 0.23547 0.48689 0.27841 0.0
C6309 C 0.23078 0.49969 0.2929 0.0
C6310 C 0.21891 0.49248 0.30529 0.0
C6311 C 0.2117 0.47247 0.30321 0.0
C6312 C 0.21635 0.45962 0.28874 0.0
C6313 C 0.28648 0.40684 0.26914 0.0
C6314 C 0.27815 0.39502 0.28104 0.0
C6315 C 0.27643 0.41629 0.25931 0.0
C6316 C 0.258 0.41387 0.2613 0.0
C6317 C 0.24956 0.40134 0.27261 0.0
C6318 C 0.25961 0.39193 0.28244 0.0
C6319 C 0.24823 0.42651 0.25387 0.0
C6320 C 0.24158 0.43906 0.26695 0.0
C6321 C 0.24691 0.42765 0.23464 0.0
C6322 C 0.2529 0.41417 0.22001 0.0
C6323 C 0.24647 0.39394 0.21816 0.0
C6324 C 0.25149 0.38132 0.20377 0.0
C6325 C 0.26288 0.38874 0.19109 0.0
C6326 C 0.26931 0.40881 0.19279 0.0
C6327 C 0.26435 0.42149 0.20716 0.0
H6328 H 0.26669 0.37893 0.17993 0.0
H6329 H 0.21536 0.50241 0.31654 0.0
H6330 H 0.25121 0.40969 0.04919 0.0
H6331 H 0.22593 0.42503 0.05072 0.0
H6332 H 0.23549 0.44027 0.99691 0.0
H6333 H 0.26039 0.42489 0.99512 0.0
H6334 H 0.23381 0.47179 0.02823 0.0
H6335 H 0.20194 0.40359 0.99896 0.0
H6336 H 0.19098 0.36887 -6e-05 0.0
H6337 H 0.16373 0.3834 0.04818 0.0
H6338 H 0.17474 0.41823 0.04765 0.0
H6339 H 0.17027 0.50345 0.9823 0.0
H6340 H 0.19122 0.48687 0.99322 0.0
H6341 H 0.15381 0.46345 0.03027 0.0
H6342 H 0.13158 0.47823 0.01761 0.0
H6343 H 0.16865 0.43716 0.01793 0.0
H6344 H 0.19463 0.50233 0.04677 0.0
H6345 H 0.20483 0.53788 0.05002 0.0
H6346 H 0.24318 0.53114 0.01043 0.0
H6347 H 0.23306 0.49555 0.00675 0.0
C6348 C 0.2479 0.41632 0.03769 0.0
C6349 C 0.25793 0.41619 0.02207 0.0
C6350 C 0.2334 0.42496 0.03856 0.0
C6351 C 0.22883 0.43375 0.02391 0.0
C6352 C 0.23878 0.43355 0.00835 0.0
C6353 C 0.25305 0.42476 0.00737 0.0
C6354 C 0.21438 0.44413 0.02479 0.0
C6355 C 0.21954 0.46427 0.02597 0.0
C6356 C 0.19578 0.43448 0.02311 0.0
C6357 C 0.18939 0.41353 0.02342 0.0
C6358 C 0.1938 0.3994 0.00992 0.0
C6359 C 0.18753 0.37969 0.01035 0.0
C6360 C 0.17673 0.37393 0.02415 0.0
C6361 C 0.17214 0.38787 0.03753 0.0
C6362 C 0.17839 0.40759 0.03716 0.0
C6363 C 0.16614 0.49452 0.99248 0.0
C6364 C 0.14894 0.49222 0.99882 0.0
C6365 C 0.17848 0.48534 0.99914 0.0
C6366 C 0.17448 0.47431 0.01308 0.0
C6367 C 0.1574 0.47202 0.01966 0.0
C6368 C 0.14474 0.48077 0.01254 0.0
C6369 C 0.18811 0.46479 0.02003 0.0
C6370 C 0.18285 0.4449 0.02058 0.0
C6371 C 0.20669 0.4748 0.0241 0.0
C6372 C 0.21304 0.49625 0.02646 0.0
C6373 C 0.2052 0.50843 0.0387 0.0
C6374 C 0.21096 0.52859 0.04062 0.0
C6375 C 0.22463 0.53676 0.03043 0.0
C6376 C 0.2326 0.52479 0.01834 0.0
C6377 C 0.22689 0.50462 0.01637 0.0
H6378 H 0.22906 0.55237 0.03191 0.0
H6379 H 0.17187 0.35867 0.02445 0.0
H6380 H 0.90272 0.99723 0.23471 0.0
H6381 H 0.88457 0.96424 0.23481 0.0
H6382 H 0.88152 0.98086 0.29425 0.0
H6383 H 0.89934 0.01408 0.29401 0.0
H6384 H 0.89154 0.94547 0.2849 0.0
H6385 H 0.84404 0.97193 0.26336 0.0
H6386 H 0.82984 0.98867 0.24245 0.0
H6387 H 0.83144 0.94478 0.19467 0.0
H6388 H 0.84585 0.9279 0.21527 0.0
H6389 H 0.83344 0.85586 0.29531 0.0
H6390 H 0.84808 0.88982 0.29536 0.0
H6391 H 0.8357 0.87868 0.23499 0.0
H6392 H 0.81971 0.84492 0.23532 0.0
H6393 H 0.83386 0.91202 0.2448 0.0
H6394 H 0.88173 0.88574 0.26359 0.0
H6395 H 0.89804 0.86879 0.28232 0.0
H6396 H 0.89897 0.91131 0.33214 0.0
H6397 H 0.88244 0.92838 0.31376 0.0
C6398 C 0.89762 0.99408 0.24768 0.0
C6399 C 0.902 0.00872 0.26419 0.0
C6400 C 0.88733 0.97503 0.24778 0.0
C6401 C 0.88141 0.96967 0.26453 0.0
C6402 C 0.8857 0.98433 0.28105 0.0
C6403 C 0.89571 0.00353 0.28086 0.0
C6404 C 0.87136 0.94878 0.26485 0.0
C6405 C 0.87878 0.93828 0.27633 0.0
C6406 C 0.85502 0.93877 0.25319 0.0
C6407 C 0.84614 0.94874 0.24083 0.0
C6408 C 0.84146 0.96592 0.24837 0.0
C6409 C 0.83336 0.97542 0.23658 0.0
C6410 C 0.82978 0.96782 0.21724 0.0
C6411 C 0.83423 0.95066 0.20965 0.0
C6412 C 0.84234 0.94111 0.22138 0.0
C6413 C 0.83388 0.86062 0.28201 0.0
C6414 C 0.8255 0.84742 0.26529 0.0
C6415 C 0.84251 0.88021 0.28198 0.0
C6416 C 0.84387 0.88733 0.26509 0.0
C6417 C 0.83519 0.87407 0.24835 0.0
C6418 C 0.82602 0.85456 0.24849 0.0
C6419 C 0.85397 0.90841 0.26494 0.0
C6420 C 0.84661 0.91903 0.25344 0.0
C6421 C 0.87066 0.91839 0.27625 0.0
C6422 C 0.88068 0.90822 0.28733 0.0
C6423 C 0.88532 0.89141 0.27856 0.0
C6424 C 0.89461 0.88178 0.28911 0.0
C6425 C 0.89949 0.88893 0.30842 0.0
C6426 C 0.89515 0.90577 0.3172 0.0
C6427 C 0.88583 0.91543 0.30672 0.0
H6428 H 0.90667 0.88146 0.31656 0.0
H6429 H 0.82352 0.9752 0.20813 0.0
H6430 H 0.72315 0.09468 0.77032 0.0
H6431 H 0.73885 0.12889 0.77353 0.0
H6432 H 0.75088 0.11784 0.71596 0.0
H6433 H 0.73406 0.08361 0.71233 0.0
H6434 H 0.77876 0.14448 0.75395 0.0
H6435 H 0.72268 0.13234 0.7133 0.0
H6436 H 0.68983 0.11927 0.70483 0.0
H6437 H 0.68015 0.15482 0.75511 0.0
H6438 H 0.71292 0.16749 0.76435 0.0
H6439 H 0.80748 0.24603 0.77929 0.0
H6440 H 0.79841 0.21283 0.76211 0.0
H6441 H 0.74468 0.2078 0.7793 0.0
H6442 H 0.75298 0.2427 0.79172 0.0
H6443 H 0.73855 0.18796 0.75004 0.0
H6444 H 0.7869 0.1891 0.79795 0.0
H6445 H 0.81784 0.20051 0.81397 0.0
H6446 H 0.83883 0.18327 0.76194 0.0
H6447 H 0.80787 0.17222 0.74552 0.0
C6448 C 0.73 0.09938 0.75869 0.0
C6449 C 0.72764 0.08688 0.74112 0.0
C6450 C 0.73848 0.11888 0.76038 0.0
C6451 C 0.74514 0.12561 0.74468 0.0
C6452 C 0.7452 0.11265 0.72793 0.0
C6453 C 0.73611 0.09319 0.72603 0.0
C6454 C 0.752 0.14637 0.74619 0.0
C6455 C 0.77015 0.15418 0.75288 0.0
C6456 C 0.74026 0.15849 0.74527 0.0
C6457 C 0.72042 0.15066 0.73967 0.0
C6458 C 0.71361 0.13708 0.72278 0.0
C6459 C 0.69496 0.12978 0.7178 0.0
C6460 C 0.68291 0.13616 0.72945 0.0
C6461 C 0.68949 0.14983 0.74613 0.0
C6462 C 0.70812 0.15704 0.75126 0.0
C6463 C 0.79357 0.23798 0.77837 0.0
C6464 C 0.78057 0.24698 0.78515 0.0
C6465 C 0.78847 0.21859 0.76937 0.0
C6466 C 0.77078 0.20727 0.76932 0.0
C6467 C 0.75826 0.21609 0.77829 0.0
C6468 C 0.76303 0.23593 0.78575 0.0
C6469 C 0.76517 0.18638 0.76013 0.0
C6470 C 0.74735 0.17853 0.75136 0.0
C6471 C 0.77675 0.17387 0.76062 0.0
C6472 C 0.7952 0.18007 0.77055 0.0
C6473 C 0.79815 0.18779 0.78997 0.0
C6474 C 0.81571 0.19422 0.7991 0.0
C6475 C 0.83038 0.19264 0.789 0.0
C6476 C 0.82748 0.18454 0.76974 0.0
C6477 C 0.80994 0.17822 0.76051 0.0
H6478 H 0.84402 0.1977 0.79603 0.0
H6479 H 0.66848 0.13056 0.72552 0.0
loop_
_geom_bond_atom_site_label_1
_geom_bond_atom_site_label_2
_geom_bond_distance
_geom_bond_site_symmetry_2
_ccdc_geom_bond_type
Zn0 O3 2.031 . S
Zn0 O5 2.049 . S
Zn0 O10 2.067 . S
Zn1 O2 1.962 . S
Zn1 O4 1.986 . S
Zn1 O6 1.996 . S
Zn1 O9 1.943 . S
O2 Zn1 1.962 . S
O2 C7 1.254 . S
O3 Zn0 2.031 . S
O3 C7 1.269 . S
O4 Zn1 1.986 . S
O4 C11 1.262 . S
O5 Zn0 2.049 . S
O5 C13 1.260 . S
O6 Zn1 1.996 . S
O6 C13 1.257 . S
C7 O2 1.254 . S
C7 O3 1.269 . S
C8 O9 1.249 . S
C8 O10 1.270 . S
O9 Zn1 1.943 . S
O9 C8 1.249 . S
O10 Zn0 2.067 . S
O10 C8 1.270 . S
C11 O4 1.262 . S
C11 O12 1.232 . S
O12 C11 1.232 . S
C13 O5 1.260 . S
C13 O6 1.257 . S
Zn14 O17 1.976 1_455 S
Zn14 O19 2.104 . S
Zn14 O24 2.081 . S
Zn15 O16 1.952 1_455 S
Zn15 O18 1.990 . S
Zn15 O20 2.004 . S
Zn15 O23 1.945 1_455 S
O16 Zn15 1.952 1_655 S
O16 C21 1.254 . S
O17 Zn14 1.976 1_655 S
O17 C21 1.269 . S
O18 Zn15 1.990 . S
O18 C25 1.262 . S
O19 Zn14 2.104 . S
O19 C27 1.260 . S
O20 Zn15 2.004 . S
O20 C27 1.257 . S
C21 O16 1.254 . S
C21 O17 1.269 . S
C22 O23 1.249 . S
C22 O24 1.270 1_655 S
O23 Zn15 1.945 1_655 S
O23 C22 1.249 . S
O24 Zn14 2.081 . S
O24 C22 1.270 1_455 S
C25 O18 1.262 . S
C25 O26 1.232 1_455 S
O26 C25 1.232 1_655 S
C27 O19 1.260 . S
C27 O20 1.257 . S
Zn28 O31 2.031 . S
Zn28 O33 2.049 . S
Zn28 O38 2.067 . S
Zn29 O30 1.962 . S
Zn29 O32 1.986 . S
Zn29 O34 1.996 . S
Zn29 O37 1.943 . S
O30 Zn29 1.962 . S
O30 C35 1.254 . S
O31 Zn28 2.031 . S
O31 C35 1.269 . S
O32 Zn29 1.986 . S
O32 C39 1.262 . S
O33 Zn28 2.049 . S
O33 C41 1.260 . S
O34 Zn29 1.996 . S
O34 C41 1.257 . S
C35 O30 1.254 . S
C35 O31 1.269 . S
C36 O37 1.249 . S
C36 O38 1.270 . S
O37 Zn29 1.943 . S
O37 C36 1.249 . S
O38 Zn28 2.067 . S
O38 C36 1.270 . S
C39 O32 1.262 . S
C39 O40 1.232 . S
O40 C39 1.232 . S
C41 O33 1.260 . S
C41 O34 1.257 . S
Zn42 O45 2.031 . S
Zn42 O47 2.049 . S
Zn42 O52 2.067 . S
Zn43 O44 1.962 . S
Zn43 O46 1.986 . S
Zn43 O48 1.996 . S
Zn43 O51 1.943 . S
O44 Zn43 1.962 . S
O44 C49 1.254 . S
O45 Zn42 2.031 . S
O45 C49 1.269 . S
O46 Zn43 1.986 . S
O46 C53 1.262 . S
O47 Zn42 2.049 . S
O47 C55 1.260 . S
O48 Zn43 1.996 . S
O48 C55 1.257 . S
C49 O44 1.254 . S
C49 O45 1.269 . S
C50 O51 1.249 . S
C50 O52 1.270 . S
O51 Zn43 1.943 . S
O51 C50 1.249 . S
O52 Zn42 2.067 . S
O52 C50 1.270 . S
C53 O46 1.262 . S
C53 O54 1.232 . S
O54 C53 1.232 . S
C55 O47 1.260 . S
C55 O48 1.257 . S
Zn56 O59 2.031 . S
Zn56 O61 2.049 . S
Zn56 O66 2.067 . S
Zn57 O58 1.962 . S
Zn57 O60 1.986 . S
Zn57 O62 1.996 . S
Zn57 O65 1.943 . S
O58 Zn57 1.962 . S
O58 C63 1.254 . S
O59 Zn56 2.031 . S
O59 C63 1.269 . S
O60 Zn57 1.986 . S
O60 C67 1.262 . S
O61 Zn56 2.049 . S
O61 C69 1.260 . S
O62 Zn57 1.996 . S
O62 C69 1.257 . S
C63 O58 1.254 . S
C63 O59 1.269 . S
C64 O65 1.249 . S
C64 O66 1.270 . S
O65 Zn57 1.943 . S
O65 C64 1.249 . S
O66 Zn56 2.067 . S
O66 C64 1.270 . S
C67 O60 1.262 . S
C67 O68 1.232 . S
O68 C67 1.232 . S
C69 O61 1.260 . S
C69 O62 1.257 . S
Zn70 O73 2.031 . S
Zn70 O75 2.049 . S
Zn70 O80 2.067 . S
Zn71 O72 1.962 . S
Zn71 O74 1.986 . S
Zn71 O76 1.996 . S
Zn71 O79 1.943 . S
O72 Zn71 1.962 . S
O72 C77 1.254 . S
O73 Zn70 2.031 . S
O73 C77 1.269 . S
O74 Zn71 1.986 . S
O74 C81 1.262 . S
O75 Zn70 2.049 . S
O75 C83 1.260 . S
O76 Zn71 1.996 . S
O76 C83 1.257 . S
C77 O72 1.254 . S
C77 O73 1.269 . S
C78 O79 1.249 . S
C78 O80 1.270 . S
O79 Zn71 1.943 . S
O79 C78 1.249 . S
O80 Zn70 2.067 . S
O80 C78 1.270 . S
C81 O74 1.262 . S
C81 O82 1.232 . S
O82 C81 1.232 . S
C83 O75 1.260 . S
C83 O76 1.257 . S
Zn84 O87 2.031 . S
Zn84 O89 2.049 . S
Zn84 O94 2.067 . S
Zn85 O86 1.962 . S
Zn85 O88 1.986 . S
Zn85 O90 1.996 . S
Zn85 O93 1.943 . S
O86 Zn85 1.962 . S
O86 C91 1.254 . S
O87 Zn84 2.031 . S
O87 C91 1.269 . S
O88 Zn85 1.986 . S
O88 C95 1.262 . S
O89 Zn84 2.049 . S
O89 C97 1.260 . S
O90 Zn85 1.996 . S
O90 C97 1.257 . S
C91 O86 1.254 . S
C91 O87 1.269 . S
C92 O93 1.249 . S
C92 O94 1.270 . S
O93 Zn85 1.943 . S
O93 C92 1.249 . S
O94 Zn84 2.067 . S
O94 C92 1.270 . S
C95 O88 1.262 . S
C95 O96 1.232 . S
O96 C95 1.232 . S
C97 O89 1.260 . S
C97 O90 1.257 . S
Zn98 O101 2.031 1_655 S
Zn98 O103 2.049 . S
Zn98 O108 2.067 . S
Zn99 O100 1.962 . S
Zn99 O102 1.986 . S
Zn99 O104 1.996 . S
Zn99 O107 1.943 . S
O100 Zn99 1.962 . S
O100 C105 1.254 . S
O101 Zn98 2.031 1_455 S
O101 C105 1.269 . S
O102 Zn99 1.986 . S
O102 C109 1.262 . S
O103 Zn98 2.049 . S
O103 C111 1.260 1_655 S
O104 Zn99 1.996 . S
O104 C111 1.257 . S
C105 O100 1.254 . S
C105 O101 1.269 . S
C106 O107 1.249 1_655 S
C106 O108 1.270 . S
O107 Zn99 1.943 . S
O107 C106 1.249 1_455 S
O108 Zn98 2.067 . S
O108 C106 1.270 . S
C109 O102 1.262 . S
C109 O110 1.232 . S
O110 C109 1.232 . S
C111 O103 1.260 1_455 S
C111 O104 1.257 . S
Zn112 O115 2.031 . S
Zn112 O117 2.049 . S
Zn112 O122 2.067 1_545 S
Zn113 O114 1.962 . S
Zn113 O116 1.986 . S
Zn113 O118 1.996 . S
Zn113 O121 1.943 . S
O114 Zn113 1.962 . S
O114 C119 1.254 . S
O115 Zn112 2.031 . S
O115 C119 1.269 . S
O116 Zn113 1.986 . S
O116 C123 1.262 . S
O117 Zn112 2.049 . S
O117 C125 1.260 . S
O118 Zn113 1.996 . S
O118 C125 1.257 . S
C119 O114 1.254 . S
C119 O115 1.269 . S
C120 O121 1.249 1_565 S
C120 O122 1.270 . S
O121 Zn113 1.943 . S
O121 C120 1.249 1_545 S
O122 Zn112 2.067 1_565 S
O122 C120 1.270 . S
C123 O116 1.262 . S
C123 O124 1.232 . S
O124 C123 1.232 . S
C125 O117 1.260 . S
C125 O118 1.257 . S
Zn126 O129 2.031 . S
Zn126 O131 2.049 . S
Zn126 O136 2.067 . S
Zn127 O128 1.962 . S
Zn127 O130 1.986 . S
Zn127 O132 1.996 . S
Zn127 O135 1.943 . S
O128 Zn127 1.962 . S
O128 C133 1.254 . S
O129 Zn126 2.031 . S
O129 C133 1.269 . S
O130 Zn127 1.986 . S
O130 C137 1.262 . S
O131 Zn126 2.049 . S
O131 C139 1.260 . S
O132 Zn127 1.996 . S
O132 C139 1.257 . S
C133 O128 1.254 . S
C133 O129 1.269 . S
C134 O135 1.249 . S
C134 O136 1.270 . S
O135 Zn127 1.943 . S
O135 C134 1.249 . S
O136 Zn126 2.067 . S
O136 C134 1.270 . S
C137 O130 1.262 . S
C137 O138 1.232 . S
O138 C137 1.232 . S
C139 O131 1.260 . S
C139 O132 1.257 . S
Zn140 O143 2.031 . S
Zn140 O145 2.049 . S
Zn140 O150 2.067 . S
Zn141 O142 1.962 . S
Zn141 O144 1.986 . S
Zn141 O146 1.996 . S
Zn141 O149 1.943 1_565 S
O142 Zn141 1.962 . S
O142 C147 1.254 1_565 S
O143 Zn140 2.031 . S
O143 C147 1.269 . S
O144 Zn141 1.986 . S
O144 C151 1.262 . S
O145 Zn140 2.049 . S
O145 C153 1.260 1_545 S
O146 Zn141 1.996 . S
O146 C153 1.257 . S
C147 O142 1.254 1_545 S
C147 O143 1.269 . S
C148 O149 1.249 . S
C148 O150 1.270 . S
O149 Zn141 1.943 1_545 S
O149 C148 1.249 . S
O150 Zn140 2.067 . S
O150 C148 1.270 . S
C151 O144 1.262 . S
C151 O152 1.232 . S
O152 C151 1.232 . S
C153 O145 1.260 1_565 S
C153 O146 1.257 . S
Zn154 O157 2.031 1_554 S
Zn154 O159 2.049 . S
Zn154 O164 2.067 . S
Zn155 O156 1.962 1_554 S
Zn155 O158 1.986 . S
Zn155 O160 1.996 . S
Zn155 O163 1.943 . S
O156 Zn155 1.962 1_556 S
O156 C161 1.254 . S
O157 Zn154 2.031 1_556 S
O157 C161 1.269 . S
O158 Zn155 1.986 . S
O158 C165 1.262 . S
O159 Zn154 2.049 . S
O159 C167 1.260 . S
O160 Zn155 1.996 . S
O160 C167 1.257 . S
C161 O156 1.254 . S
C161 O157 1.269 . S
C162 O163 1.249 . S
C162 O164 1.270 . S
O163 Zn155 1.943 . S
O163 C162 1.249 . S
O164 Zn154 2.067 . S
O164 C162 1.270 . S
C165 O158 1.262 . S
C165 O166 1.232 . S
O166 C165 1.232 . S
C167 O159 1.260 . S
C167 O160 1.257 . S
Zn168 O171 2.031 . S
Zn168 O173 2.049 . S
Zn168 O178 2.067 . S
Zn169 O170 1.962 . S
Zn169 O172 1.986 . S
Zn169 O174 1.996 . S
Zn169 O177 1.943 . S
O170 Zn169 1.962 . S
O170 C175 1.254 . S
O171 Zn168 2.031 . S
O171 C175 1.269 . S
O172 Zn169 1.986 . S
O172 C179 1.262 . S
O173 Zn168 2.049 . S
O173 C181 1.260 . S
O174 Zn169 1.996 . S
O174 C181 1.257 . S
C175 O170 1.254 . S
C175 O171 1.269 . S
C176 O177 1.249 . S
C176 O178 1.270 . S
O177 Zn169 1.943 . S
O177 C176 1.249 . S
O178 Zn168 2.067 . S
O178 C176 1.270 . S
C179 O172 1.262 . S
C179 O180 1.232 . S
O180 C179 1.232 . S
C181 O173 1.260 . S
C181 O174 1.257 . S
Zn182 O185 2.031 . S
Zn182 O187 2.049 . S
Zn182 O192 2.067 . S
Zn183 O184 1.962 . S
Zn183 O186 1.986 . S
Zn183 O188 1.996 . S
Zn183 O191 1.943 . S
O184 Zn183 1.962 . S
O184 C189 1.254 1_554 S
O185 Zn182 2.031 . S
O185 C189 1.269 1_554 S
O186 Zn183 1.986 . S
O186 C193 1.262 . S
O187 Zn182 2.049 . S
O187 C195 1.260 . S
O188 Zn183 1.996 . S
O188 C195 1.257 . S
C189 O184 1.254 1_556 S
C189 O185 1.269 1_556 S
C190 O191 1.249 . S
C190 O192 1.270 . S
O191 Zn183 1.943 . S
O191 C190 1.249 . S
O192 Zn182 2.067 . S
O192 C190 1.270 . S
C193 O186 1.262 . S
C193 O194 1.232 . S
O194 C193 1.232 . S
C195 O187 1.260 . S
C195 O188 1.257 . S
Zn196 O199 2.031 . S
Zn196 O201 2.049 . S
Zn196 O206 2.067 . S
Zn197 O198 1.962 . S
Zn197 O200 1.986 . S
Zn197 O202 1.996 . S
Zn197 O205 1.943 . S
O198 Zn197 1.962 . S
O198 C203 1.254 . S
O199 Zn196 2.031 . S
O199 C203 1.269 . S
O200 Zn197 1.986 . S
O200 C207 1.262 . S
O201 Zn196 2.049 . S
O201 C209 1.260 . S
O202 Zn197 1.996 . S
O202 C209 1.257 . S
C203 O198 1.254 . S
C203 O199 1.269 . S
C204 O205 1.249 . S
C204 O206 1.270 . S
O205 Zn197 1.943 . S
O205 C204 1.249 . S
O206 Zn196 2.067 . S
O206 C204 1.270 . S
C207 O200 1.262 . S
C207 O208 1.232 . S
O208 C207 1.232 . S
C209 O201 1.260 . S
C209 O202 1.257 . S
Zn210 O213 2.031 . S
Zn210 O215 2.049 . S
Zn210 O220 2.067 . S
Zn211 O212 1.962 . S
Zn211 O214 1.986 . S
Zn211 O216 1.996 . S
Zn211 O219 1.943 . S
O212 Zn211 1.962 . S
O212 C217 1.254 . S
O213 Zn210 2.031 . S
O213 C217 1.269 . S
O214 Zn211 1.986 . S
O214 C221 1.262 . S
O215 Zn210 2.049 . S
O215 C223 1.260 . S
O216 Zn211 1.996 . S
O216 C223 1.257 . S
C217 O212 1.254 . S
C217 O213 1.269 . S
C218 O219 1.249 . S
C218 O220 1.270 . S
O219 Zn211 1.943 . S
O219 C218 1.249 . S
O220 Zn210 2.067 . S
O220 C218 1.270 . S
C221 O214 1.262 . S
C221 O222 1.232 . S
O222 C221 1.232 . S
C223 O215 1.260 . S
C223 O216 1.257 . S
Zn224 O227 2.031 . S
Zn224 O229 2.049 . S
Zn224 O234 2.067 . S
Zn225 O226 1.962 . S
Zn225 O228 1.986 . S
Zn225 O230 1.996 . S
Zn225 O233 1.943 . S
O226 Zn225 1.962 . S
O226 C231 1.254 . S
O227 Zn224 2.031 . S
O227 C231 1.269 . S
O228 Zn225 1.986 . S
O228 C235 1.262 . S
O229 Zn224 2.049 . S
O229 C237 1.260 . S
O230 Zn225 1.996 . S
O230 C237 1.257 . S
C231 O226 1.254 . S
C231 O227 1.269 . S
C232 O233 1.249 . S
C232 O234 1.270 . S
O233 Zn225 1.943 . S
O233 C232 1.249 . S
O234 Zn224 2.067 . S
O234 C232 1.270 . S
C235 O228 1.262 . S
C235 O236 1.232 . S
O236 C235 1.232 . S
C237 O229 1.260 . S
C237 O230 1.257 . S
Zn238 O241 2.031 . S
Zn238 O243 2.049 . S
Zn238 O248 2.067 . S
Zn239 O240 1.962 . S
Zn239 O242 1.986 . S
Zn239 O244 1.996 . S
Zn239 O247 1.943 . S
O240 Zn239 1.962 . S
O240 C245 1.254 . S
O241 Zn238 2.031 . S
O241 C245 1.269 . S
O242 Zn239 1.986 . S
O242 C249 1.262 . S
O243 Zn238 2.049 . S
O243 C251 1.260 . S
O244 Zn239 1.996 . S
O244 C251 1.257 . S
C245 O240 1.254 . S
C245 O241 1.269 . S
C246 O247 1.249 . S
C246 O248 1.270 . S
O247 Zn239 1.943 . S
O247 C246 1.249 . S
O248 Zn238 2.067 . S
O248 C246 1.270 . S
C249 O242 1.262 . S
C249 O250 1.232 . S
O250 C249 1.232 . S
C251 O243 1.260 . S
C251 O244 1.257 . S
Zn252 O255 2.031 . S
Zn252 O257 2.049 . S
Zn252 O262 2.067 . S
Zn253 O254 1.962 . S
Zn253 O256 1.986 . S
Zn253 O258 1.996 . S
Zn253 O261 1.943 . S
O254 Zn253 1.962 . S
O254 C259 1.254 . S
O255 Zn252 2.031 . S
O255 C259 1.269 . S
O256 Zn253 1.986 . S
O256 C263 1.262 . S
O257 Zn252 2.049 . S
O257 C265 1.260 . S
O258 Zn253 1.996 . S
O258 C265 1.257 . S
C259 O254 1.254 . S
C259 O255 1.269 . S
C260 O261 1.249 . S
C260 O262 1.270 . S
O261 Zn253 1.943 . S
O261 C260 1.249 . S
O262 Zn252 2.067 . S
O262 C260 1.270 . S
C263 O256 1.262 . S
C263 O264 1.232 . S
O264 C263 1.232 . S
C265 O257 1.260 . S
C265 O258 1.257 . S
Zn266 O269 2.031 . S
Zn266 O271 2.049 . S
Zn266 O276 2.067 . S
Zn267 O268 1.962 . S
Zn267 O270 1.986 . S
Zn267 O272 1.996 . S
Zn267 O275 1.943 . S
O268 Zn267 1.962 . S
O268 C273 1.254 . S
O269 Zn266 2.031 . S
O269 C273 1.269 . S
O270 Zn267 1.986 . S
O270 C277 1.262 . S
O271 Zn266 2.049 . S
O271 C279 1.260 . S
O272 Zn267 1.996 . S
O272 C279 1.257 . S
C273 O268 1.254 . S
C273 O269 1.269 . S
C274 O275 1.249 . S
C274 O276 1.270 . S
O275 Zn267 1.943 . S
O275 C274 1.249 . S
O276 Zn266 2.067 . S
O276 C274 1.270 . S
C277 O270 1.262 . S
C277 O278 1.232 . S
O278 C277 1.232 . S
C279 O271 1.260 . S
C279 O272 1.257 . S
Zn280 O283 2.031 1_554 S
Zn280 O285 2.049 . S
Zn280 O290 2.067 . S
Zn281 O282 1.989 . S
Zn281 O284 1.972 1_556 S
Zn281 O286 1.976 1_556 S
Zn281 O289 1.940 . S
O282 Zn281 1.989 . S
O282 C287 1.254 . S
O283 Zn280 2.031 1_556 S
O283 C287 1.269 . S
O284 Zn281 1.972 1_554 S
O284 C291 1.262 1_554 S
O285 Zn280 2.049 . S
O285 C293 1.260 . S
O286 Zn281 1.976 1_554 S
O286 C293 1.257 . S
C287 O282 1.254 . S
C287 O283 1.269 . S
C288 O289 1.249 . S
C288 O290 1.270 1_556 S
O289 Zn281 1.940 . S
O289 C288 1.249 . S
O290 Zn280 2.067 . S
O290 C288 1.270 1_554 S
C291 O284 1.262 1_556 S
C291 O292 1.232 . S
O292 C291 1.232 . S
C293 O285 1.260 . S
C293 O286 1.257 . S
Zn294 O297 2.031 . S
Zn294 O299 2.049 . S
Zn294 O304 2.067 . S
Zn295 O296 1.962 . S
Zn295 O298 1.986 . S
Zn295 O300 1.996 . S
Zn295 O303 1.943 . S
O296 Zn295 1.962 . S
O296 C301 1.254 . S
O297 Zn294 2.031 . S
O297 C301 1.269 . S
O298 Zn295 1.986 . S
O298 C305 1.262 . S
O299 Zn294 2.049 . S
O299 C307 1.260 . S
O300 Zn295 1.996 . S
O300 C307 1.257 . S
C301 O296 1.254 . S
C301 O297 1.269 . S
C302 O303 1.249 . S
C302 O304 1.270 . S
O303 Zn295 1.943 . S
O303 C302 1.249 . S
O304 Zn294 2.067 . S
O304 C302 1.270 . S
C305 O298 1.262 . S
C305 O306 1.232 . S
O306 C305 1.232 . S
C307 O299 1.260 . S
C307 O300 1.257 . S
Zn308 O311 2.031 . S
Zn308 O313 2.049 . S
Zn308 O318 2.067 . S
Zn309 O310 1.962 . S
Zn309 O312 1.986 . S
Zn309 O314 1.996 . S
Zn309 O317 1.943 . S
O310 Zn309 1.962 . S
O310 C315 1.254 . S
O311 Zn308 2.031 . S
O311 C315 1.269 . S
O312 Zn309 1.986 . S
O312 C319 1.262 . S
O313 Zn308 2.049 . S
O313 C321 1.260 . S
O314 Zn309 1.996 . S
O314 C321 1.257 . S
C315 O310 1.254 . S
C315 O311 1.269 . S
C316 O317 1.249 . S
C316 O318 1.270 . S
O317 Zn309 1.943 . S
O317 C316 1.249 . S
O318 Zn308 2.067 . S
O318 C316 1.270 . S
C319 O312 1.262 . S
C319 O320 1.232 . S
O320 C319 1.232 . S
C321 O313 1.260 . S
C321 O314 1.257 . S
Zn322 O325 2.031 . S
Zn322 O327 2.049 . S
Zn322 O332 2.067 . S
Zn323 O324 1.962 . S
Zn323 O326 1.986 . S
Zn323 O328 1.996 . S
Zn323 O331 1.943 . S
O324 Zn323 1.962 . S
O324 C329 1.254 . S
O325 Zn322 2.031 . S
O325 C329 1.269 . S
O326 Zn323 1.986 . S
O326 C333 1.262 . S
O327 Zn322 2.049 . S
O327 C335 1.260 . S
O328 Zn323 1.996 . S
O328 C335 1.257 . S
C329 O324 1.254 . S
C329 O325 1.269 . S
C330 O331 1.249 . S
C330 O332 1.270 . S
O331 Zn323 1.943 . S
O331 C330 1.249 . S
O332 Zn322 2.067 . S
O332 C330 1.270 . S
C333 O326 1.262 . S
C333 O334 1.232 . S
O334 C333 1.232 . S
C335 O327 1.260 . S
C335 O328 1.257 . S
Eu336 N367 2.617 1_545 S
Eu336 N374 2.609 1_544 S
Eu336 O380 2.567 1_554 S
Eu336 O381 2.612 . S
Eu336 O383 2.339 . S
Eu336 O384 2.563 . S
Eu336 O385 2.419 1_455 S
Eu336 O387 2.380 . S
Eu336 O388 2.432 1_554 S
Eu336 C400 2.838 1_454 S
C337 C340 1.429 . S
C337 C341 1.411 . S
C337 N344 1.377 . S
C338 C340 1.420 . S
C338 C342 1.423 . S
C338 C350 1.392 . S
C339 C341 1.420 . S
C339 C342 1.351 . S
C339 H362 0.931 . S
C340 C337 1.429 . S
C340 C338 1.420 . S
C340 N348 1.362 . S
C341 C337 1.411 . S
C341 C339 1.420 . S
C341 C346 1.395 . S
C342 C338 1.423 . S
C342 C339 1.351 . S
C342 H354 0.930 . S
C343 C345 1.400 . S
C343 C346 1.386 . S
C343 H355 0.930 . S
N344 C337 1.377 . S
N344 C345 1.321 . S
N344 Eu347 2.609 . S
C345 C343 1.400 . S
C345 N344 1.321 . S
C345 H352 0.930 . S
C346 C341 1.395 . S
C346 C343 1.386 . S
C346 H365 0.930 . S
Eu347 N344 2.609 . S
Eu347 N348 2.657 . S
Eu347 O381 2.380 . S
Eu347 O382 2.432 . S
Eu347 O386 2.558 . S
Eu347 O387 2.612 . S
Eu347 O389 2.392 . S
Eu347 O390 2.563 . S
Eu347 O391 2.419 . S
Eu347 C411 2.848 . S
N348 C340 1.362 . S
N348 Eu347 2.657 . S
N348 C349 1.385 . S
C349 N348 1.385 . S
C349 C351 1.385 1_554 S
C349 H356 0.907 1_554 S
C350 C338 1.392 . S
C350 C351 1.367 1_554 S
C350 H358 0.928 . S
C351 C349 1.385 1_556 S
C351 C350 1.367 1_556 S
C351 H353 0.930 . S
H352 C345 0.930 . S
H353 C351 0.930 . S
H354 C342 0.930 . S
H355 C343 0.930 . S
H356 C349 0.907 1_556 S
H357 C371 0.930 . S
H358 C350 0.928 . S
H359 C377 0.930 1_545 S
H360 C368 0.925 1_545 S
H361 C375 0.930 . S
H362 C339 0.931 . S
H363 C369 0.930 . S
H364 C402 0.930 . S
H365 C346 0.930 . S
H366 C401 0.931 . S
N367 Eu336 2.617 1_565 S
N367 C368 1.341 . S
N367 C372 1.396 . S
C368 H360 0.925 1_565 S
C368 N367 1.341 . S
C368 C371 1.418 . S
C369 H363 0.930 . S
C369 C370 1.392 . S
C369 C371 1.367 1_655 S
C370 C369 1.392 . S
C370 C372 1.420 1_655 S
C370 C402 1.423 . S
C371 H357 0.930 . S
C371 C368 1.418 . S
C371 C369 1.367 1_455 S
C372 N367 1.396 . S
C372 C370 1.420 1_455 S
C372 C376 1.429 1_554 S
H373 C378 0.930 . S
N374 Eu336 2.609 1_566 S
N374 C376 1.377 . S
N374 C377 1.321 . S
C375 H361 0.930 . S
C375 C377 1.400 . S
C375 C378 1.386 1_455 S
C376 C372 1.429 1_556 S
C376 N374 1.377 . S
C376 C379 1.411 1_455 S
C377 H359 0.930 1_565 S
C377 N374 1.321 . S
C377 C375 1.400 . S
C378 H373 0.930 . S
C378 C375 1.386 1_655 S
C378 C379 1.395 . S
C379 C376 1.411 1_655 S
C379 C378 1.395 . S
C379 C401 1.420 . S
O380 Eu336 2.567 1_556 S
O380 C400 1.283 1_455 S
O381 Eu336 2.612 . S
O381 Eu347 2.380 . S
O381 C392 1.276 . S
O382 Eu347 2.432 . S
O382 C399 1.264 . S
O383 Eu336 2.339 . S
O383 C399 1.254 . S
O384 Eu336 2.563 . S
O384 C392 1.235 . S
O385 Eu336 2.419 1_655 S
O385 C400 1.208 1_554 S
O386 Eu347 2.558 . S
O386 C411 1.257 . S
O387 Eu336 2.380 . S
O387 Eu347 2.612 . S
O387 C403 1.276 . S
O388 Eu336 2.432 1_556 S
O388 C410 1.264 . S
O389 Eu347 2.392 . S
O389 C410 1.219 1_554 S
O390 Eu347 2.563 . S
O390 C403 1.235 . S
O391 Eu347 2.419 . S
O391 C411 1.249 . S
C392 O381 1.276 . S
C392 O384 1.235 . S
C393 C395 1.393 1_556 S
C393 C397 1.395 . S
C393 C400 1.501 . S
C394 C395 1.392 . S
C394 C396 1.386 1_554 S
C395 C393 1.393 1_554 S
C395 C394 1.392 . S
C395 H412 0.930 . S
C396 C394 1.386 1_556 S
C396 C398 1.395 . S
C396 H413 0.930 . S
C397 C393 1.395 . S
C397 C398 1.379 . S
C397 H414 0.930 . S
C398 C396 1.395 . S
C398 C397 1.379 . S
C398 H415 0.930 . S
C399 O382 1.264 . S
C399 O383 1.254 . S
C400 Eu336 2.838 1_656 S
C400 O380 1.283 1_655 S
C400 O385 1.208 1_556 S
C400 C393 1.501 . S
C401 H366 0.931 . S
C401 C379 1.420 . S
C401 C402 1.351 1_556 S
C402 H364 0.930 . S
C402 C370 1.423 . S
C402 C401 1.351 1_554 S
C403 O387 1.276 . S
C403 O390 1.235 . S
C404 C405 1.393 . S
C404 C408 1.395 . S
C404 C411 1.492 . S
C405 C404 1.393 . S
C405 C406 1.392 . S
C405 H416 0.930 . S
C406 C405 1.392 . S
C406 C407 1.386 . S
C407 C406 1.386 . S
C407 C409 1.395 . S
C407 H417 0.930 . S
C408 C404 1.395 . S
C408 C409 1.379 . S
C408 H418 0.930 . S
C409 C407 1.395 . S
C409 C408 1.379 . S
C409 H419 0.930 . S
C410 O388 1.264 . S
C410 O389 1.219 1_556 S
C411 Eu347 2.848 . S
C411 O386 1.257 . S
C411 O391 1.249 . S
C411 C404 1.492 . S
H412 C395 0.930 . S
H413 C396 0.930 . S
H414 C397 0.930 . S
H415 C398 0.930 . S
H416 C405 0.930 . S
H417 C407 0.930 . S
H418 C408 0.930 . S
H419 C409 0.930 . S
Eu420 N451 2.657 . S
Eu420 N458 2.609 . S
Eu420 O464 2.558 . S
Eu420 O465 2.612 . S
Eu420 O467 2.339 . S
Eu420 O468 2.563 . S
Eu420 O469 2.419 . S
Eu420 O471 2.380 . S
Eu420 O472 2.432 . S
Eu420 C484 2.848 . S
C421 C424 1.429 . S
C421 C425 1.411 . S
C421 N428 1.377 . S
C422 C424 1.420 . S
C422 C426 1.423 . S
C422 C434 1.392 . S
C423 C425 1.420 . S
C423 C426 1.351 . S
C423 H446 0.931 . S
C424 C421 1.429 . S
C424 C422 1.420 . S
C424 N432 1.362 . S
C425 C421 1.411 . S
C425 C423 1.420 . S
C425 C430 1.395 . S
C426 C422 1.423 . S
C426 C423 1.351 . S
C426 H438 0.930 . S
C427 C429 1.400 . S
C427 C430 1.386 . S
C427 H439 0.930 . S
N428 C421 1.377 . S
N428 C429 1.321 . S
N428 Eu431 2.609 . S
C429 C427 1.400 . S
C429 N428 1.321 . S
C429 H436 0.930 . S
C430 C425 1.395 . S
C430 C427 1.386 . S
C430 H449 0.930 . S
Eu431 N428 2.609 . S
Eu431 N432 2.657 . S
Eu431 O465 2.380 . S
Eu431 O466 2.432 . S
Eu431 O470 2.558 . S
Eu431 O471 2.612 . S
Eu431 O473 2.339 . S
Eu431 O474 2.563 . S
Eu431 O475 2.419 . S
Eu431 C495 2.848 . S
N432 C424 1.362 . S
N432 Eu431 2.657 . S
N432 C433 1.334 . S
C433 N432 1.334 . S
C433 C435 1.413 . S
C433 H440 0.929 . S
C434 C422 1.392 . S
C434 C435 1.367 . S
C434 H442 0.930 . S
C435 C433 1.413 . S
C435 C434 1.367 . S
C435 H437 0.930 . S
H436 C429 0.930 . S
H437 C435 0.930 . S
H438 C426 0.930 . S
H439 C427 0.930 . S
H440 C433 0.929 . S
H441 C455 0.930 . S
H442 C434 0.930 . S
H443 C461 0.930 . S
H444 C452 0.929 . S
H445 C459 0.930 . S
H446 C423 0.931 . S
H447 C453 0.930 . S
H448 C486 0.930 . S
H449 C430 0.930 . S
H450 C485 0.931 . S
N451 Eu420 2.657 . S
N451 C452 1.334 . S
N451 C456 1.362 . S
C452 H444 0.929 . S
C452 N451 1.334 . S
C452 C455 1.413 . S
C453 H447 0.930 . S
C453 C454 1.392 . S
C453 C455 1.367 . S
C454 C453 1.392 . S
C454 C456 1.420 . S
C454 C486 1.423 . S
C455 H441 0.930 . S
C455 C452 1.413 . S
C455 C453 1.367 . S
C456 N451 1.362 . S
C456 C454 1.420 . S
C456 C460 1.429 . S
H457 C462 0.930 . S
N458 Eu420 2.609 . S
N458 C460 1.377 . S
N458 C461 1.321 . S
C459 H445 0.930 . S
C459 C461 1.400 . S
C459 C462 1.386 . S
C460 C456 1.429 . S
C460 N458 1.377 . S
C460 C463 1.411 . S
C461 H443 0.930 . S
C461 N458 1.321 . S
C461 C459 1.400 . S
C462 H457 0.930 . S
C462 C459 1.386 . S
C462 C463 1.395 . S
C463 C460 1.411 . S
C463 C462 1.395 . S
C463 C485 1.420 . S
O464 Eu420 2.558 . S
O464 C484 1.257 . S
O465 Eu420 2.612 . S
O465 Eu431 2.380 . S
O465 C476 1.276 . S
O466 Eu431 2.432 . S
O466 C483 1.264 . S
O467 Eu420 2.339 . S
O467 C483 1.254 . S
O468 Eu420 2.563 . S
O468 C476 1.235 . S
O469 Eu420 2.419 . S
O469 C484 1.249 . S
O470 Eu431 2.558 . S
O470 C495 1.257 . S
O471 Eu420 2.380 . S
O471 Eu431 2.612 . S
O471 C487 1.276 . S
O472 Eu420 2.432 . S
O472 C494 1.264 . S
O473 Eu431 2.339 . S
O473 C494 1.254 . S
O474 Eu431 2.563 . S
O474 C487 1.235 . S
O475 Eu431 2.419 . S
O475 C495 1.249 . S
C476 O465 1.276 . S
C476 O468 1.235 . S
C477 C479 1.393 . S
C477 C481 1.395 . S
C477 C484 1.492 . S
C478 C479 1.392 . S
C478 C480 1.386 . S
C479 C477 1.393 . S
C479 C478 1.392 . S
C479 H496 0.930 . S
C480 C478 1.386 . S
C480 C482 1.395 . S
C480 H497 0.930 . S
C481 C477 1.395 . S
C481 C482 1.379 . S
C481 H498 0.930 . S
C482 C480 1.395 . S
C482 C481 1.379 . S
C482 H499 0.930 . S
C483 O466 1.264 . S
C483 O467 1.254 . S
C484 Eu420 2.848 . S
C484 O464 1.257 . S
C484 O469 1.249 . S
C484 C477 1.492 . S
C485 H450 0.931 . S
C485 C463 1.420 . S
C485 C486 1.351 . S
C486 H448 0.930 . S
C486 C454 1.423 . S
C486 C485 1.351 . S
C487 O471 1.276 . S
C487 O474 1.235 . S
C488 C489 1.393 . S
C488 C492 1.395 . S
C488 C495 1.492 . S
C489 C488 1.393 . S
C489 C490 1.392 . S
C489 H500 0.930 . S
C490 C489 1.392 . S
C490 C491 1.386 . S
C491 C490 1.386 . S
C491 C493 1.395 . S
C491 H501 0.930 . S
C492 C488 1.395 . S
C492 C493 1.379 . S
C492 H502 0.930 . S
C493 C491 1.395 . S
C493 C492 1.379 . S
C493 H503 0.930 . S
C494 O472 1.264 . S
C494 O473 1.254 . S
C495 Eu431 2.848 . S
C495 O470 1.257 . S
C495 O475 1.249 . S
C495 C488 1.492 . S
H496 C479 0.930 . S
H497 C480 0.930 . S
H498 C481 0.930 . S
H499 C482 0.930 . S
H500 C489 0.930 . S
H501 C491 0.930 . S
H502 C492 0.930 . S
H503 C493 0.930 . S
Eu504 N535 2.657 . S
Eu504 N542 2.609 . S
Eu504 O548 2.558 . S
Eu504 O549 2.612 . S
Eu504 O551 2.339 . S
Eu504 O552 2.563 1_545 S
Eu504 O553 2.419 . S
Eu504 O555 2.380 . S
Eu504 O556 2.432 . S
Eu504 C568 2.848 . S
C505 C508 1.429 . S
C505 C509 1.411 . S
C505 N512 1.377 1_565 S
C506 C508 1.420 . S
C506 C510 1.423 . S
C506 C518 1.392 . S
C507 C509 1.420 . S
C507 C510 1.351 . S
C507 H530 0.931 . S
C508 C505 1.429 . S
C508 C506 1.420 . S
C508 N516 1.362 . S
C509 C505 1.411 . S
C509 C507 1.420 . S
C509 C514 1.395 . S
C510 C506 1.423 . S
C510 C507 1.351 . S
C510 H522 0.930 . S
C511 C513 1.400 . S
C511 C514 1.386 1_545 S
C511 H523 0.930 . S
N512 C505 1.377 1_545 S
N512 C513 1.321 . S
N512 Eu515 2.609 . S
C513 C511 1.400 . S
C513 N512 1.321 . S
C513 H520 0.930 . S
C514 C509 1.395 . S
C514 C511 1.386 1_565 S
C514 H533 0.930 . S
Eu515 N512 2.609 . S
Eu515 N516 2.657 1_545 S
Eu515 O549 2.380 . S
Eu515 O550 2.432 . S
Eu515 O554 2.558 . S
Eu515 O555 2.612 . S
Eu515 O557 2.339 . S
Eu515 O558 2.563 . S
Eu515 O559 2.419 . S
Eu515 C579 2.848 . S
N516 C508 1.362 . S
N516 Eu515 2.657 1_565 S
N516 C517 1.334 . S
C517 N516 1.334 . S
C517 C519 1.413 . S
C517 H524 0.889 1_565 S
C518 C506 1.392 . S
C518 C519 1.367 . S
C518 H526 0.930 . S
C519 C517 1.413 . S
C519 C518 1.367 . S
C519 H521 0.930 . S
H520 C513 0.930 . S
H521 C519 0.930 . S
H522 C510 0.930 . S
H523 C511 0.930 . S
H524 C517 0.889 1_545 S
H525 C539 0.930 . S
H526 C518 0.930 . S
H527 C545 0.930 . S
H528 C536 0.929 . S
H529 C543 0.930 . S
H530 C507 0.931 . S
H531 C537 0.930 . S
H532 C570 0.930 . S
H533 C514 0.930 . S
H534 C569 0.931 . S
N535 Eu504 2.657 . S
N535 C536 1.334 . S
N535 C540 1.362 . S
C536 H528 0.929 . S
C536 N535 1.334 . S
C536 C539 1.413 . S
C537 H531 0.930 . S
C537 C538 1.392 . S
C537 C539 1.367 . S
C538 C537 1.392 . S
C538 C540 1.420 . S
C538 C570 1.423 . S
C539 H525 0.930 . S
C539 C536 1.413 . S
C539 C537 1.367 . S
C540 N535 1.362 . S
C540 C538 1.420 . S
C540 C544 1.429 . S
H541 C546 0.930 . S
N542 Eu504 2.609 . S
N542 C544 1.377 . S
N542 C545 1.321 . S
C543 H529 0.930 . S
C543 C545 1.400 . S
C543 C546 1.386 . S
C544 C540 1.429 . S
C544 N542 1.377 . S
C544 C547 1.411 . S
C545 H527 0.930 . S
C545 N542 1.321 . S
C545 C543 1.400 . S
C546 H541 0.930 . S
C546 C543 1.386 . S
C546 C547 1.395 . S
C547 C544 1.411 . S
C547 C546 1.395 . S
C547 C569 1.420 . S
O548 Eu504 2.558 . S
O548 C568 1.257 . S
O549 Eu504 2.612 . S
O549 Eu515 2.380 . S
O549 C560 1.276 1_545 S
O550 Eu515 2.432 . S
O550 C567 1.264 . S
O551 Eu504 2.339 . S
O551 C567 1.254 . S
O552 Eu504 2.563 1_565 S
O552 C560 1.235 . S
O553 Eu504 2.419 . S
O553 C568 1.249 . S
O554 Eu515 2.558 . S
O554 C579 1.257 . S
O555 Eu504 2.380 . S
O555 Eu515 2.612 . S
O555 C571 1.276 . S
O556 Eu504 2.432 . S
O556 C578 1.264 . S
O557 Eu515 2.339 . S
O557 C578 1.254 . S
O558 Eu515 2.563 . S
O558 C571 1.235 . S
O559 Eu515 2.419 . S
O559 C579 1.249 . S
C560 O549 1.276 1_565 S
C560 O552 1.235 . S
C561 C563 1.393 . S
C561 C565 1.395 . S
C561 C568 1.492 . S
C562 C563 1.392 1_565 S
C562 C564 1.386 . S
C563 C561 1.393 . S
C563 C562 1.392 1_545 S
C563 H580 0.930 . S
C564 C562 1.386 . S
C564 C566 1.395 1_565 S
C564 H581 0.930 . S
C565 C561 1.395 . S
C565 C566 1.379 . S
C565 H582 0.930 . S
C566 C564 1.395 1_545 S
C566 C565 1.379 . S
C566 H583 0.930 . S
C567 O550 1.264 . S
C567 O551 1.254 . S
C568 Eu504 2.848 . S
C568 O548 1.257 . S
C568 O553 1.249 . S
C568 C561 1.492 . S
C569 H534 0.931 . S
C569 C547 1.420 . S
C569 C570 1.351 . S
C570 H532 0.930 . S
C570 C538 1.423 . S
C570 C569 1.351 . S
C571 O555 1.276 . S
C571 O558 1.235 . S
C572 C573 1.393 . S
C572 C576 1.395 . S
C572 C579 1.492 . S
C573 C572 1.393 . S
C573 C574 1.392 . S
C573 H584 0.930 . S
C574 C573 1.392 . S
C574 C575 1.386 . S
C575 C574 1.386 . S
C575 C577 1.395 . S
C575 H585 0.930 . S
C576 C572 1.395 . S
C576 C577 1.379 . S
C576 H586 0.930 . S
C577 C575 1.395 . S
C577 C576 1.379 . S
C577 H587 0.930 . S
C578 O556 1.264 . S
C578 O557 1.254 . S
C579 Eu515 2.848 . S
C579 O554 1.257 . S
C579 O559 1.249 . S
C579 C572 1.492 . S
H580 C563 0.930 . S
H581 C564 0.930 . S
H582 C565 0.930 . S
H583 C566 0.930 . S
H584 C573 0.930 . S
H585 C575 0.930 . S
H586 C576 0.930 . S
H587 C577 0.930 . S
Eu588 N619 2.657 . S
Eu588 N626 2.609 . S
Eu588 O632 2.558 . S
Eu588 O633 2.612 . S
Eu588 O635 2.339 . S
Eu588 O636 2.563 . S
Eu588 O637 2.419 . S
Eu588 O639 2.380 . S
Eu588 O640 2.432 . S
Eu588 C652 2.848 . S
C589 C592 1.429 . S
C589 C593 1.411 . S
C589 N596 1.377 . S
C590 C592 1.420 . S
C590 C594 1.423 . S
C590 C602 1.392 . S
C591 C593 1.420 . S
C591 C594 1.351 . S
C591 H614 0.931 . S
C592 C589 1.429 . S
C592 C590 1.420 . S
C592 N600 1.362 . S
C593 C589 1.411 . S
C593 C591 1.420 . S
C593 C598 1.395 . S
C594 C590 1.423 . S
C594 C591 1.351 . S
C594 H606 0.930 . S
C595 C597 1.400 . S
C595 C598 1.386 . S
C595 H607 0.930 . S
N596 C589 1.377 . S
N596 C597 1.321 . S
N596 Eu599 2.609 . S
C597 C595 1.400 . S
C597 N596 1.321 . S
C597 H604 0.930 . S
C598 C593 1.395 . S
C598 C595 1.386 . S
C598 H617 0.930 . S
Eu599 N596 2.609 . S
Eu599 N600 2.657 . S
Eu599 O633 2.380 . S
Eu599 O634 2.432 . S
Eu599 O638 2.558 . S
Eu599 O639 2.612 . S
Eu599 O641 2.339 . S
Eu599 O642 2.563 . S
Eu599 O643 2.419 . S
Eu599 C663 2.848 . S
N600 C592 1.362 . S
N600 Eu599 2.657 . S
N600 C601 1.334 . S
C601 N600 1.334 . S
C601 C603 1.413 . S
C601 H608 0.929 . S
C602 C590 1.392 . S
C602 C603 1.367 . S
C602 H610 0.930 . S
C603 C601 1.413 . S
C603 C602 1.367 . S
C603 H605 0.930 . S
H604 C597 0.930 . S
H605 C603 0.930 . S
H606 C594 0.930 . S
H607 C595 0.930 . S
H608 C601 0.929 . S
H609 C623 0.930 . S
H610 C602 0.930 . S
H611 C629 0.930 . S
H612 C620 0.929 . S
H613 C627 0.930 . S
H614 C591 0.931 . S
H615 C621 0.930 . S
H616 C654 0.930 . S
H617 C598 0.930 . S
H618 C653 0.931 . S
N619 Eu588 2.657 . S
N619 C620 1.334 . S
N619 C624 1.362 . S
C620 H612 0.929 . S
C620 N619 1.334 . S
C620 C623 1.413 . S
C621 H615 0.930 . S
C621 C622 1.392 . S
C621 C623 1.367 . S
C622 C621 1.392 . S
C622 C624 1.420 . S
C622 C654 1.423 . S
C623 H609 0.930 . S
C623 C620 1.413 . S
C623 C621 1.367 . S
C624 N619 1.362 . S
C624 C622 1.420 . S
C624 C628 1.429 . S
H625 C630 0.930 . S
N626 Eu588 2.609 . S
N626 C628 1.377 . S
N626 C629 1.321 . S
C627 H613 0.930 . S
C627 C629 1.400 . S
C627 C630 1.386 . S
C628 C624 1.429 . S
C628 N626 1.377 . S
C628 C631 1.411 . S
C629 H611 0.930 . S
C629 N626 1.321 . S
C629 C627 1.400 . S
C630 H625 0.930 . S
C630 C627 1.386 . S
C630 C631 1.395 . S
C631 C628 1.411 . S
C631 C630 1.395 . S
C631 C653 1.420 . S
O632 Eu588 2.558 . S
O632 C652 1.257 . S
O633 Eu588 2.612 . S
O633 Eu599 2.380 . S
O633 C644 1.276 . S
O634 Eu599 2.432 . S
O634 C651 1.264 . S
O635 Eu588 2.339 . S
O635 C651 1.254 . S
O636 Eu588 2.563 . S
O636 C644 1.235 . S
O637 Eu588 2.419 . S
O637 C652 1.249 . S
O638 Eu599 2.558 . S
O638 C663 1.257 . S
O639 Eu588 2.380 . S
O639 Eu599 2.612 . S
O639 C655 1.276 . S
O640 Eu588 2.432 . S
O640 C662 1.264 . S
O641 Eu599 2.339 . S
O641 C662 1.254 . S
O642 Eu599 2.563 . S
O642 C655 1.235 . S
O643 Eu599 2.419 . S
O643 C663 1.249 . S
C644 O633 1.276 . S
C644 O636 1.235 . S
C645 C647 1.393 . S
C645 C649 1.395 . S
C645 C652 1.492 . S
C646 C647 1.392 . S
C646 C648 1.386 . S
C647 C645 1.393 . S
C647 C646 1.392 . S
C647 H664 0.930 . S
C648 C646 1.386 . S
C648 C650 1.395 . S
C648 H665 0.930 . S
C649 C645 1.395 . S
C649 C650 1.379 . S
C649 H666 0.930 . S
C650 C648 1.395 . S
C650 C649 1.379 . S
C650 H667 0.930 . S
C651 O634 1.264 . S
C651 O635 1.254 . S
C652 Eu588 2.848 . S
C652 O632 1.257 . S
C652 O637 1.249 . S
C652 C645 1.492 . S
C653 H618 0.931 . S
C653 C631 1.420 . S
C653 C654 1.351 . S
C654 H616 0.930 . S
C654 C622 1.423 . S
C654 C653 1.351 . S
C655 O639 1.276 . S
C655 O642 1.235 . S
C656 C657 1.393 . S
C656 C660 1.395 . S
C656 C663 1.492 . S
C657 C656 1.393 . S
C657 C658 1.392 . S
C657 H668 0.930 . S
C658 C657 1.392 . S
C658 C659 1.386 . S
C659 C658 1.386 . S
C659 C661 1.395 . S
C659 H669 0.930 . S
C660 C656 1.395 . S
C660 C661 1.379 . S
C660 H670 0.930 . S
C661 C659 1.395 . S
C661 C660 1.379 . S
C661 H671 0.930 . S
C662 O640 1.264 . S
C662 O641 1.254 . S
C663 Eu599 2.848 . S
C663 O638 1.257 . S
C663 O643 1.249 . S
C663 C656 1.492 . S
H664 C647 0.930 . S
H665 C648 0.930 . S
H666 C649 0.930 . S
H667 C650 0.930 . S
H668 C657 0.930 . S
H669 C659 0.930 . S
H670 C660 0.930 . S
H671 C661 0.930 . S
Eu672 N703 2.657 . S
Eu672 N710 2.609 . S
Eu672 O716 2.558 . S
Eu672 O717 2.612 . S
Eu672 O719 2.339 . S
Eu672 O720 2.563 . S
Eu672 O721 2.419 . S
Eu672 O723 2.380 . S
Eu672 O724 2.432 . S
Eu672 C736 2.848 . S
C673 C676 1.429 . S
C673 C677 1.411 . S
C673 N680 1.387 . S
C674 C676 1.420 . S
C674 C678 1.423 . S
C674 C686 1.392 . S
C675 C677 1.420 . S
C675 C678 1.351 . S
C675 H698 0.931 . S
C676 C673 1.429 . S
C676 C674 1.420 . S
C676 N684 1.362 . S
C677 C673 1.411 . S
C677 C675 1.420 . S
C677 C682 1.395 . S
C678 C674 1.423 . S
C678 C675 1.351 . S
C678 H690 0.930 . S
C679 C681 1.400 1_565 S
C679 C682 1.386 . S
C679 H691 0.930 . S
N680 C673 1.387 . S
N680 C681 1.328 1_565 S
N680 Eu683 2.599 1_565 S
C681 C679 1.400 1_545 S
C681 N680 1.328 1_545 S
C681 H688 0.930 . S
C682 C677 1.395 . S
C682 C679 1.386 . S
C682 H701 0.930 . S
Eu683 N680 2.599 1_545 S
Eu683 N684 2.657 1_545 S
Eu683 O717 2.380 . S
Eu683 O718 2.432 . S
Eu683 O722 2.558 1_545 S
Eu683 O723 2.612 . S
Eu683 O725 2.339 . S
Eu683 O726 2.563 . S
Eu683 O727 2.419 1_545 S
Eu683 C747 2.848 1_545 S
N684 C676 1.362 . S
N684 Eu683 2.657 1_565 S
N684 C685 1.334 . S
C685 N684 1.334 . S
C685 C687 1.413 . S
C685 H692 0.929 . S
C686 C674 1.392 . S
C686 C687 1.367 . S
C686 H694 0.930 . S
C687 C685 1.413 . S
C687 C686 1.367 . S
C687 H689 0.930 1_455 S
H688 C681 0.930 . S
H689 C687 0.930 1_655 S
H690 C678 0.930 . S
H691 C679 0.930 . S
H692 C685 0.929 . S
H693 C707 0.930 . S
H694 C686 0.930 . S
H695 C713 0.930 . S
H696 C704 0.929 . S
H697 C711 0.930 1_655 S
H698 C675 0.931 . S
H699 C705 0.930 . S
H700 C738 0.930 . S
H701 C682 0.930 . S
H702 C737 0.931 . S
N703 Eu672 2.657 . S
N703 C704 1.334 . S
N703 C708 1.362 . S
C704 H696 0.929 . S
C704 N703 1.334 . S
C704 C707 1.413 . S
C705 H699 0.930 . S
C705 C706 1.392 . S
C705 C707 1.367 . S
C706 C705 1.392 . S
C706 C708 1.420 . S
C706 C738 1.423 . S
C707 H693 0.930 . S
C707 C704 1.413 . S
C707 C705 1.367 . S
C708 N703 1.362 . S
C708 C706 1.420 . S
C708 C712 1.429 . S
H709 C714 0.930 . S
N710 Eu672 2.609 . S
N710 C712 1.377 . S
N710 C713 1.321 . S
C711 H697 0.930 1_455 S
C711 C713 1.400 . S
C711 C714 1.386 . S
C712 C708 1.429 . S
C712 N710 1.377 . S
C712 C715 1.411 . S
C713 H695 0.930 . S
C713 N710 1.321 . S
C713 C711 1.400 . S
C714 H709 0.930 . S
C714 C711 1.386 . S
C714 C715 1.395 . S
C715 C712 1.411 . S
C715 C714 1.395 . S
C715 C737 1.420 . S
O716 Eu672 2.558 . S
O716 C736 1.257 . S
O717 Eu672 2.612 . S
O717 Eu683 2.380 . S
O717 C728 1.276 . S
O718 Eu683 2.432 . S
O718 C735 1.264 . S
O719 Eu672 2.339 . S
O719 C735 1.254 . S
O720 Eu672 2.563 . S
O720 C728 1.235 . S
O721 Eu672 2.419 . S
O721 C736 1.249 . S
O722 Eu683 2.558 1_565 S
O722 C747 1.257 . S
O723 Eu672 2.380 . S
O723 Eu683 2.612 . S
O723 C739 1.276 . S
O724 Eu672 2.432 . S
O724 C746 1.264 . S
O725 Eu683 2.339 . S
O725 C746 1.254 . S
O726 Eu683 2.563 . S
O726 C739 1.235 . S
O727 Eu683 2.419 1_565 S
O727 C747 1.249 . S
C728 O717 1.276 . S
C728 O720 1.235 . S
C729 C731 1.393 . S
C729 C733 1.395 . S
C729 C736 1.492 . S
C730 C731 1.392 . S
C730 C732 1.386 . S
C731 C729 1.393 . S
C731 C730 1.392 . S
C731 H748 0.930 . S
C732 C730 1.386 . S
C732 C734 1.395 . S
C732 H749 0.930 . S
C733 C729 1.395 . S
C733 C734 1.379 . S
C733 H750 0.930 . S
C734 C732 1.395 . S
C734 C733 1.379 . S
C734 H751 0.930 . S
C735 O718 1.264 . S
C735 O719 1.254 . S
C736 Eu672 2.848 . S
C736 O716 1.257 . S
C736 O721 1.249 . S
C736 C729 1.492 . S
C737 H702 0.931 . S
C737 C715 1.420 . S
C737 C738 1.351 . S
C738 H700 0.930 . S
C738 C706 1.423 . S
C738 C737 1.351 . S
C739 O723 1.276 . S
C739 O726 1.235 . S
C740 C741 1.393 . S
C740 C744 1.395 . S
C740 C747 1.492 . S
C741 C740 1.393 . S
C741 C742 1.392 . S
C741 H752 0.930 . S
C742 C741 1.392 . S
C742 C743 1.386 . S
C743 C742 1.386 . S
C743 C745 1.395 . S
C743 H753 0.930 . S
C744 C740 1.395 . S
C744 C745 1.379 . S
C744 H754 0.930 . S
C745 C743 1.395 . S
C745 C744 1.379 . S
C745 H755 0.930 . S
C746 O724 1.264 . S
C746 O725 1.254 . S
C747 Eu683 2.848 1_565 S
C747 O722 1.257 . S
C747 O727 1.249 . S
C747 C740 1.492 . S
H748 C731 0.930 . S
H749 C732 0.930 . S
H750 C733 0.930 . S
H751 C734 0.930 . S
H752 C741 0.930 . S
H753 C743 0.930 . S
H754 C744 0.930 . S
H755 C745 0.930 . S
Eu756 N787 2.657 . S
Eu756 N794 2.609 . S
Eu756 O800 2.558 . S
Eu756 O801 2.612 . S
Eu756 O803 2.339 . S
Eu756 O804 2.563 . S
Eu756 O805 2.419 . S
Eu756 O807 2.380 . S
Eu756 O808 2.432 . S
Eu756 C820 2.848 . S
C757 C760 1.429 . S
C757 C761 1.411 . S
C757 N764 1.377 . S
C758 C760 1.420 . S
C758 C762 1.423 . S
C758 C770 1.392 . S
C759 C761 1.420 . S
C759 C762 1.351 . S
C759 H782 0.931 . S
C760 C757 1.429 . S
C760 C758 1.420 . S
C760 N768 1.362 . S
C761 C757 1.411 . S
C761 C759 1.420 . S
C761 C766 1.395 . S
C762 C758 1.423 . S
C762 C759 1.351 . S
C762 H774 0.930 . S
C763 C765 1.400 . S
C763 C766 1.386 . S
C763 H775 0.930 . S
N764 C757 1.377 . S
N764 C765 1.321 . S
N764 Eu767 2.609 . S
C765 C763 1.400 . S
C765 N764 1.321 . S
C765 H772 0.930 . S
C766 C761 1.395 . S
C766 C763 1.386 . S
C766 H785 0.930 . S
Eu767 N764 2.609 . S
Eu767 N768 2.657 . S
Eu767 O801 2.380 . S
Eu767 O802 2.432 . S
Eu767 O806 2.558 . S
Eu767 O807 2.612 . S
Eu767 O809 2.339 . S
Eu767 O810 2.563 . S
Eu767 O811 2.419 . S
Eu767 C831 2.848 . S
N768 C760 1.362 . S
N768 Eu767 2.657 . S
N768 C769 1.334 . S
C769 N768 1.334 . S
C769 C771 1.413 . S
C769 H776 0.929 . S
C770 C758 1.392 . S
C770 C771 1.367 . S
C770 H778 0.930 . S
C771 C769 1.413 . S
C771 C770 1.367 . S
C771 H773 0.930 . S
H772 C765 0.930 . S
H773 C771 0.930 . S
H774 C762 0.930 . S
H775 C763 0.930 . S
H776 C769 0.929 . S
H777 C791 0.930 . S
H778 C770 0.930 . S
H779 C797 0.930 . S
H780 C788 0.929 . S
H781 C795 0.930 . S
H782 C759 0.931 . S
H783 C789 0.930 . S
H784 C822 0.930 . S
H785 C766 0.930 . S
H786 C821 0.931 . S
N787 Eu756 2.657 . S
N787 C788 1.334 . S
N787 C792 1.362 . S
C788 H780 0.929 . S
C788 N787 1.334 . S
C788 C791 1.413 . S
C789 H783 0.930 . S
C789 C790 1.392 . S
C789 C791 1.367 . S
C790 C789 1.392 . S
C790 C792 1.420 . S
C790 C822 1.423 . S
C791 H777 0.930 . S
C791 C788 1.413 . S
C791 C789 1.367 . S
C792 N787 1.362 . S
C792 C790 1.420 . S
C792 C796 1.429 . S
H793 C798 0.930 . S
N794 Eu756 2.609 . S
N794 C796 1.377 . S
N794 C797 1.321 . S
C795 H781 0.930 . S
C795 C797 1.400 . S
C795 C798 1.386 . S
C796 C792 1.429 . S
C796 N794 1.377 . S
C796 C799 1.411 . S
C797 H779 0.930 . S
C797 N794 1.321 . S
C797 C795 1.400 . S
C798 H793 0.930 . S
C798 C795 1.386 . S
C798 C799 1.395 . S
C799 C796 1.411 . S
C799 C798 1.395 . S
C799 C821 1.420 . S
O800 Eu756 2.558 . S
O800 C820 1.257 . S
O801 Eu756 2.612 . S
O801 Eu767 2.380 . S
O801 C812 1.276 . S
O802 Eu767 2.432 . S
O802 C819 1.264 . S
O803 Eu756 2.339 . S
O803 C819 1.254 . S
O804 Eu756 2.563 . S
O804 C812 1.235 . S
O805 Eu756 2.419 . S
O805 C820 1.249 . S
O806 Eu767 2.558 . S
O806 C831 1.257 . S
O807 Eu756 2.380 . S
O807 Eu767 2.612 . S
O807 C823 1.276 . S
O808 Eu756 2.432 . S
O808 C830 1.264 . S
O809 Eu767 2.339 . S
O809 C830 1.254 . S
O810 Eu767 2.563 . S
O810 C823 1.235 . S
O811 Eu767 2.419 . S
O811 C831 1.249 . S
C812 O801 1.276 . S
C812 O804 1.235 . S
C813 C815 1.393 . S
C813 C817 1.395 . S
C813 C820 1.492 . S
C814 C815 1.392 . S
C814 C816 1.386 . S
C815 C813 1.393 . S
C815 C814 1.392 . S
C815 H832 0.930 . S
C816 C814 1.386 . S
C816 C818 1.395 . S
C816 H833 0.930 . S
C817 C813 1.395 . S
C817 C818 1.379 . S
C817 H834 0.930 . S
C818 C816 1.395 . S
C818 C817 1.379 . S
C818 H835 0.930 . S
C819 O802 1.264 . S
C819 O803 1.254 . S
C820 Eu756 2.848 . S
C820 O800 1.257 . S
C820 O805 1.249 . S
C820 C813 1.492 . S
C821 H786 0.931 . S
C821 C799 1.420 . S
C821 C822 1.351 . S
C822 H784 0.930 . S
C822 C790 1.423 . S
C822 C821 1.351 . S
C823 O807 1.276 . S
C823 O810 1.235 . S
C824 C825 1.393 . S
C824 C828 1.395 . S
C824 C831 1.492 . S
C825 C824 1.393 . S
C825 C826 1.392 . S
C825 H836 0.930 . S
C826 C825 1.392 . S
C826 C827 1.386 . S
C827 C826 1.386 . S
C827 C829 1.395 . S
C827 H837 0.930 . S
C828 C824 1.395 . S
C828 C829 1.379 . S
C828 H838 0.930 . S
C829 C827 1.395 . S
C829 C828 1.379 . S
C829 H839 0.930 . S
C830 O808 1.264 . S
C830 O809 1.254 . S
C831 Eu767 2.848 . S
C831 O806 1.257 . S
C831 O811 1.249 . S
C831 C824 1.492 . S
H832 C815 0.930 . S
H833 C816 0.930 . S
H834 C817 0.930 . S
H835 C818 0.930 . S
H836 C825 0.930 . S
H837 C827 0.930 . S
H838 C828 0.930 . S
H839 C829 0.930 . S
Eu840 N871 2.657 . S
Eu840 N878 2.609 . S
Eu840 O884 2.558 . S
Eu840 O885 2.612 . S
Eu840 O887 2.339 . S
Eu840 O888 2.563 . S
Eu840 O889 2.419 . S
Eu840 O891 2.380 . S
Eu840 O892 2.432 . S
Eu840 C904 2.848 . S
C841 C844 1.429 . S
C841 C845 1.411 . S
C841 N848 1.377 . S
C842 C844 1.420 . S
C842 C846 1.423 . S
C842 C854 1.341 1_545 S
C843 C845 1.420 . S
C843 C846 1.351 . S
C843 H866 0.931 . S
C844 C841 1.429 . S
C844 C842 1.420 . S
C844 N852 1.362 . S
C845 C841 1.411 . S
C845 C843 1.420 . S
C845 C850 1.395 . S
C846 C842 1.423 . S
C846 C843 1.351 . S
C846 H858 0.930 . S
C847 C849 1.400 . S
C847 C850 1.386 . S
C847 H859 0.930 . S
N848 C841 1.377 . S
N848 C849 1.321 . S
N848 Eu851 2.609 . S
C849 C847 1.400 . S
C849 N848 1.321 . S
C849 H856 0.930 . S
C850 C845 1.395 . S
C850 C847 1.386 . S
C850 H869 0.930 . S
Eu851 N848 2.609 . S
Eu851 N852 2.657 . S
Eu851 O885 2.380 1_556 S
Eu851 O886 2.432 1_556 S
Eu851 O890 2.558 . S
Eu851 O891 2.612 1_556 S
Eu851 O893 2.339 . S
Eu851 O894 2.563 . S
Eu851 O895 2.419 . S
Eu851 C915 2.848 . S
N852 C844 1.362 . S
N852 Eu851 2.657 . S
N852 C853 1.334 . S
C853 N852 1.334 . S
C853 C855 1.413 1_545 S
C853 H860 0.929 . S
C854 C842 1.341 1_565 S
C854 C855 1.400 . S
C854 H862 0.951 . S
C855 C853 1.413 1_565 S
C855 C854 1.400 . S
C855 H857 0.930 . S
H856 C849 0.930 . S
H857 C855 0.930 . S
H858 C846 0.930 . S
H859 C847 0.930 . S
H860 C853 0.929 . S
H861 C875 0.930 . S
H862 C854 0.951 . S
H863 C881 0.930 1_565 S
H864 C872 0.929 . S
H865 C879 0.930 . S
H866 C843 0.931 . S
H867 C873 0.930 . S
H868 C906 0.930 . S
H869 C850 0.930 . S
H870 C905 0.931 . S
N871 Eu840 2.657 . S
N871 C872 1.334 . S
N871 C876 1.362 . S
C872 H864 0.929 . S
C872 N871 1.334 . S
C872 C875 1.413 . S
C873 H867 0.930 . S
C873 C874 1.392 . S
C873 C875 1.367 . S
C874 C873 1.392 . S
C874 C876 1.420 . S
C874 C906 1.423 . S
C875 H861 0.930 . S
C875 C872 1.413 . S
C875 C873 1.367 . S
C876 N871 1.362 . S
C876 C874 1.420 . S
C876 C880 1.429 . S
H877 C882 0.930 . S
N878 Eu840 2.609 . S
N878 C880 1.377 . S
N878 C881 1.321 . S
C879 H865 0.930 . S
C879 C881 1.400 1_565 S
C879 C882 1.386 1_565 S
C880 C876 1.429 . S
C880 N878 1.377 . S
C880 C883 1.411 . S
C881 H863 0.930 1_545 S
C881 N878 1.321 . S
C881 C879 1.400 1_545 S
C882 H877 0.930 . S
C882 C879 1.386 1_545 S
C882 C883 1.395 . S
C883 C880 1.411 . S
C883 C882 1.395 . S
C883 C905 1.420 . S
O884 Eu840 2.558 . S
O884 C904 1.257 . S
O885 Eu840 2.612 . S
O885 Eu851 2.380 1_554 S
O885 C896 1.276 . S
O886 Eu851 2.432 1_554 S
O886 C903 1.264 . S
O887 Eu840 2.339 . S
O887 C903 1.254 . S
O888 Eu840 2.563 . S
O888 C896 1.235 . S
O889 Eu840 2.419 . S
O889 C904 1.249 . S
O890 Eu851 2.558 . S
O890 C915 1.257 . S
O891 Eu840 2.380 . S
O891 Eu851 2.612 1_554 S
O891 C907 1.276 . S
O892 Eu840 2.432 . S
O892 C914 1.264 1_554 S
O893 Eu851 2.339 . S
O893 C914 1.254 . S
O894 Eu851 2.563 . S
O894 C907 1.235 1_556 S
O895 Eu851 2.419 . S
O895 C915 1.249 . S
C896 O885 1.276 . S
C896 O888 1.235 . S
C897 C899 1.393 . S
C897 C901 1.395 . S
C897 C904 1.492 . S
C898 C899 1.392 . S
C898 C900 1.386 . S
C899 C897 1.393 . S
C899 C898 1.392 . S
C899 H916 0.930 . S
C900 C898 1.386 . S
C900 C902 1.395 . S
C900 H917 0.930 . S
C901 C897 1.395 . S
C901 C902 1.379 . S
C901 H918 0.930 1_545 S
C902 C900 1.395 . S
C902 C901 1.379 . S
C902 H919 0.930 1_545 S
C903 O886 1.264 . S
C903 O887 1.254 . S
C904 Eu840 2.848 . S
C904 O884 1.257 . S
C904 O889 1.249 . S
C904 C897 1.492 . S
C905 H870 0.931 . S
C905 C883 1.420 . S
C905 C906 1.351 . S
C906 H868 0.930 . S
C906 C874 1.423 . S
C906 C905 1.351 . S
C907 O891 1.276 . S
C907 O894 1.235 1_554 S
C908 C909 1.393 . S
C908 C912 1.395 . S
C908 C915 1.492 . S
C909 C908 1.393 . S
C909 C910 1.392 . S
C909 H920 0.930 . S
C910 C909 1.392 . S
C910 C911 1.386 . S
C911 C910 1.386 . S
C911 C913 1.395 . S
C911 H921 0.930 . S
C912 C908 1.395 . S
C912 C913 1.379 . S
C912 H922 0.930 . S
C913 C911 1.395 . S
C913 C912 1.379 . S
C913 H923 0.930 . S
C914 O892 1.264 1_556 S
C914 O893 1.254 . S
C915 Eu851 2.848 . S
C915 O890 1.257 . S
C915 O895 1.249 . S
C915 C908 1.492 . S
H916 C899 0.930 . S
H917 C900 0.930 . S
H918 C901 0.930 1_565 S
H919 C902 0.930 1_565 S
H920 C909 0.930 . S
H921 C911 0.930 . S
H922 C912 0.930 . S
H923 C913 0.930 . S
Eu924 N955 2.657 . S
Eu924 N962 2.609 . S
Eu924 O968 2.558 . S
Eu924 O969 2.612 . S
Eu924 O971 2.339 . S
Eu924 O972 2.563 . S
Eu924 O973 2.419 . S
Eu924 O975 2.380 . S
Eu924 O976 2.432 . S
Eu924 C988 2.848 . S
C925 C928 1.429 . S
C925 C929 1.411 . S
C925 N932 1.377 . S
C926 C928 1.420 . S
C926 C930 1.423 . S
C926 C938 1.392 . S
C927 C929 1.420 . S
C927 C930 1.351 . S
C927 H950 0.931 . S
C928 C925 1.429 . S
C928 C926 1.420 . S
C928 N936 1.362 . S
C929 C925 1.411 . S
C929 C927 1.420 . S
C929 C934 1.395 . S
C930 C926 1.423 . S
C930 C927 1.351 . S
C930 H942 0.930 . S
C931 C933 1.400 . S
C931 C934 1.386 . S
C931 H943 0.930 . S
N932 C925 1.377 . S
N932 C933 1.321 . S
N932 Eu935 2.609 . S
C933 C931 1.400 . S
C933 N932 1.321 . S
C933 H940 0.930 . S
C934 C929 1.395 . S
C934 C931 1.386 . S
C934 H953 0.930 . S
Eu935 N932 2.609 . S
Eu935 N936 2.657 . S
Eu935 O969 2.380 . S
Eu935 O970 2.432 . S
Eu935 O974 2.558 . S
Eu935 O975 2.612 . S
Eu935 O977 2.339 . S
Eu935 O978 2.563 . S
Eu935 O979 2.419 . S
Eu935 C999 2.848 . S
N936 C928 1.362 . S
N936 Eu935 2.657 . S
N936 C937 1.334 . S
C937 N936 1.334 . S
C937 C939 1.413 . S
C937 H944 0.929 . S
C938 C926 1.392 . S
C938 C939 1.367 . S
C938 H946 0.930 . S
C939 C937 1.413 . S
C939 C938 1.367 . S
C939 H941 0.930 . S
H940 C933 0.930 . S
H941 C939 0.930 . S
H942 C930 0.930 . S
H943 C931 0.930 . S
H944 C937 0.929 . S
H945 C959 0.930 . S
H946 C938 0.930 . S
H947 C965 0.930 . S
H948 C956 0.929 . S
H949 C963 0.930 . S
H950 C927 0.931 . S
H951 C957 0.930 . S
H952 C990 0.930 . S
H953 C934 0.930 . S
H954 C989 0.931 . S
N955 Eu924 2.657 . S
N955 C956 1.334 . S
N955 C960 1.362 . S
C956 H948 0.929 . S
C956 N955 1.334 . S
C956 C959 1.413 . S
C957 H951 0.930 . S
C957 C958 1.392 . S
C957 C959 1.367 . S
C958 C957 1.392 . S
C958 C960 1.420 . S
C958 C990 1.423 . S
C959 H945 0.930 . S
C959 C956 1.413 . S
C959 C957 1.367 . S
C960 N955 1.362 . S
C960 C958 1.420 . S
C960 C964 1.429 . S
H961 C966 0.930 . S
N962 Eu924 2.609 . S
N962 C964 1.377 . S
N962 C965 1.321 . S
C963 H949 0.930 . S
C963 C965 1.400 . S
C963 C966 1.386 . S
C964 C960 1.429 . S
C964 N962 1.377 . S
C964 C967 1.411 . S
C965 H947 0.930 . S
C965 N962 1.321 . S
C965 C963 1.400 . S
C966 H961 0.930 . S
C966 C963 1.386 . S
C966 C967 1.395 . S
C967 C964 1.411 . S
C967 C966 1.395 . S
C967 C989 1.420 . S
O968 Eu924 2.558 . S
O968 C988 1.257 . S
O969 Eu924 2.612 . S
O969 Eu935 2.380 . S
O969 C980 1.276 . S
O970 Eu935 2.432 . S
O970 C987 1.264 . S
O971 Eu924 2.339 . S
O971 C987 1.254 . S
O972 Eu924 2.563 . S
O972 C980 1.235 . S
O973 Eu924 2.419 . S
O973 C988 1.249 . S
O974 Eu935 2.558 . S
O974 C999 1.257 . S
O975 Eu924 2.380 . S
O975 Eu935 2.612 . S
O975 C991 1.276 . S
O976 Eu924 2.432 . S
O976 C998 1.264 . S
O977 Eu935 2.339 . S
O977 C998 1.254 . S
O978 Eu935 2.563 . S
O978 C991 1.235 . S
O979 Eu935 2.419 . S
O979 C999 1.249 . S
C980 O969 1.276 . S
C980 O972 1.235 . S
C981 C983 1.393 . S
C981 C985 1.395 . S
C981 C988 1.492 . S
C982 C983 1.392 . S
C982 C984 1.386 . S
C983 C981 1.393 . S
C983 C982 1.392 . S
C983 H1000 0.930 . S
C984 C982 1.386 . S
C984 C986 1.395 . S
C984 H1001 0.930 . S
C985 C981 1.395 . S
C985 C986 1.379 . S
C985 H1002 0.930 . S
C986 C984 1.395 . S
C986 C985 1.379 . S
C986 H1003 0.930 . S
C987 O970 1.264 . S
C987 O971 1.254 . S
C988 Eu924 2.848 . S
C988 O968 1.257 . S
C988 O973 1.249 . S
C988 C981 1.492 . S
C989 H954 0.931 . S
C989 C967 1.420 . S
C989 C990 1.351 . S
C990 H952 0.930 . S
C990 C958 1.423 . S
C990 C989 1.351 . S
C991 O975 1.276 . S
C991 O978 1.235 . S
C992 C993 1.393 . S
C992 C996 1.395 . S
C992 C999 1.492 . S
C993 C992 1.393 . S
C993 C994 1.392 . S
C993 H1004 0.930 . S
C994 C993 1.392 . S
C994 C995 1.386 . S
C995 C994 1.386 . S
C995 C997 1.395 . S
C995 H1005 0.930 . S
C996 C992 1.395 . S
C996 C997 1.379 . S
C996 H1006 0.930 . S
C997 C995 1.395 . S
C997 C996 1.379 . S
C997 H1007 0.930 . S
C998 O976 1.264 . S
C998 O977 1.254 . S
C999 Eu935 2.848 . S
C999 O974 1.257 . S
C999 O979 1.249 . S
C999 C992 1.492 . S
H1000 C983 0.930 . S
H1001 C984 0.930 . S
H1002 C985 0.930 . S
H1003 C986 0.930 . S
H1004 C993 0.930 . S
H1005 C995 0.930 . S
H1006 C996 0.930 . S
H1007 C997 0.930 . S
Eu1008 N1039 2.657 . S
Eu1008 N1046 2.609 . S
Eu1008 O1052 2.558 . S
Eu1008 O1053 2.612 1_554 S
Eu1008 O1055 2.339 . S
Eu1008 O1056 2.563 1_554 S
Eu1008 O1057 2.419 . S
Eu1008 O1059 2.380 . S
Eu1008 O1060 2.432 . S
Eu1008 C1072 2.848 . S
C1009 C1012 1.429 . S
C1009 C1013 1.411 . S
C1009 N1016 1.377 . S
C1010 C1012 1.420 . S
C1010 C1014 1.423 . S
C1010 C1022 1.392 . S
C1011 C1013 1.420 . S
C1011 C1014 1.351 . S
C1011 H1034 0.931 . S
C1012 C1009 1.429 . S
C1012 C1010 1.420 . S
C1012 N1020 1.362 . S
C1013 C1009 1.411 . S
C1013 C1011 1.420 . S
C1013 C1018 1.395 . S
C1014 C1010 1.423 . S
C1014 C1011 1.351 . S
C1014 H1026 0.930 . S
C1015 C1017 1.400 . S
C1015 C1018 1.386 . S
C1015 H1027 0.930 . S
N1016 C1009 1.377 . S
N1016 C1017 1.321 . S
N1016 Eu1019 2.609 1_556 S
C1017 C1015 1.400 . S
C1017 N1016 1.321 . S
C1017 H1024 0.930 . S
C1018 C1013 1.395 . S
C1018 C1015 1.386 . S
C1018 H1037 0.930 . S
Eu1019 N1016 2.609 1_554 S
Eu1019 N1020 2.657 1_554 S
Eu1019 O1053 2.380 1_554 S
Eu1019 O1054 2.432 . S
Eu1019 O1058 2.558 . S
Eu1019 O1059 2.612 . S
Eu1019 O1061 2.339 . S
Eu1019 O1062 2.563 . S
Eu1019 O1063 2.419 . S
Eu1019 C1083 2.848 . S
N1020 C1012 1.362 . S
N1020 Eu1019 2.657 1_556 S
N1020 C1021 1.334 . S
C1021 N1020 1.334 . S
C1021 C1023 1.413 . S
C1021 H1028 0.929 . S
C1022 C1010 1.392 . S
C1022 C1023 1.367 . S
C1022 H1030 0.930 . S
C1023 C1021 1.413 . S
C1023 C1022 1.367 . S
C1023 H1025 0.930 . S
H1024 C1017 0.930 . S
H1025 C1023 0.930 . S
H1026 C1014 0.930 . S
H1027 C1015 0.930 . S
H1028 C1021 0.929 . S
H1029 C1043 0.930 . S
H1030 C1022 0.930 . S
H1031 C1049 0.930 . S
H1032 C1040 0.929 . S
H1033 C1047 0.930 . S
H1034 C1011 0.931 . S
H1035 C1041 0.930 . S
H1036 C1074 0.930 . S
H1037 C1018 0.930 . S
H1038 C1073 0.931 . S
N1039 Eu1008 2.657 . S
N1039 C1040 1.334 . S
N1039 C1044 1.362 . S
C1040 H1032 0.929 . S
C1040 N1039 1.334 . S
C1040 C1043 1.413 . S
C1041 H1035 0.930 . S
C1041 C1042 1.392 . S
C1041 C1043 1.367 . S
C1042 C1041 1.392 . S
C1042 C1044 1.420 . S
C1042 C1074 1.423 . S
C1043 H1029 0.930 . S
C1043 C1040 1.413 . S
C1043 C1041 1.367 . S
C1044 N1039 1.362 . S
C1044 C1042 1.420 . S
C1044 C1048 1.429 . S
H1045 C1050 0.930 . S
N1046 Eu1008 2.609 . S
N1046 C1048 1.377 . S
N1046 C1049 1.321 . S
C1047 H1033 0.930 . S
C1047 C1049 1.400 . S
C1047 C1050 1.386 . S
C1048 C1044 1.429 . S
C1048 N1046 1.377 . S
C1048 C1051 1.411 . S
C1049 H1031 0.930 . S
C1049 N1046 1.321 . S
C1049 C1047 1.400 . S
C1050 H1045 0.930 . S
C1050 C1047 1.386 . S
C1050 C1051 1.395 . S
C1051 C1048 1.411 . S
C1051 C1050 1.395 . S
C1051 C1073 1.420 . S
O1052 Eu1008 2.558 . S
O1052 C1072 1.257 . S
O1053 Eu1008 2.612 1_556 S
O1053 Eu1019 2.380 1_556 S
O1053 C1064 1.276 . S
O1054 Eu1019 2.432 . S
O1054 C1071 1.264 . S
O1055 Eu1008 2.339 . S
O1055 C1071 1.254 . S
O1056 Eu1008 2.563 1_556 S
O1056 C1064 1.235 . S
O1057 Eu1008 2.419 . S
O1057 C1072 1.249 . S
O1058 Eu1019 2.558 . S
O1058 C1083 1.257 . S
O1059 Eu1008 2.380 . S
O1059 Eu1019 2.612 . S
O1059 C1075 1.276 . S
O1060 Eu1008 2.432 . S
O1060 C1082 1.264 . S
O1061 Eu1019 2.339 . S
O1061 C1082 1.254 . S
O1062 Eu1019 2.563 . S
O1062 C1075 1.235 . S
O1063 Eu1019 2.419 . S
O1063 C1083 1.249 . S
C1064 O1053 1.276 . S
C1064 O1056 1.235 . S
C1065 C1067 1.393 . S
C1065 C1069 1.395 . S
C1065 C1072 1.492 . S
C1066 C1067 1.392 1_556 S
C1066 C1068 1.386 1_556 S
C1067 C1065 1.393 . S
C1067 C1066 1.392 1_554 S
C1067 H1084 0.918 1_554 S
C1068 C1066 1.386 1_554 S
C1068 C1070 1.395 . S
C1068 H1085 0.930 . S
C1069 C1065 1.395 . S
C1069 C1070 1.379 . S
C1069 H1086 0.930 . S
C1070 C1068 1.395 . S
C1070 C1069 1.379 . S
C1070 H1087 0.930 . S
C1071 O1054 1.264 . S
C1071 O1055 1.254 . S
C1072 Eu1008 2.848 . S
C1072 O1052 1.257 . S
C1072 O1057 1.249 . S
C1072 C1065 1.492 . S
C1073 H1038 0.931 . S
C1073 C1051 1.420 . S
C1073 C1074 1.351 . S
C1074 H1036 0.930 . S
C1074 C1042 1.423 . S
C1074 C1073 1.351 . S
C1075 O1059 1.276 . S
C1075 O1062 1.235 . S
C1076 C1077 1.393 . S
C1076 C1080 1.395 . S
C1076 C1083 1.492 . S
C1077 C1076 1.393 . S
C1077 C1078 1.392 . S
C1077 H1088 0.930 . S
C1078 C1077 1.392 . S
C1078 C1079 1.386 . S
C1079 C1078 1.386 . S
C1079 C1081 1.395 . S
C1079 H1089 0.930 . S
C1080 C1076 1.395 . S
C1080 C1081 1.379 . S
C1080 H1090 0.930 . S
C1081 C1079 1.395 . S
C1081 C1080 1.379 . S
C1081 H1091 0.930 . S
C1082 O1060 1.264 . S
C1082 O1061 1.254 . S
C1083 Eu1019 2.848 . S
C1083 O1058 1.257 . S
C1083 O1063 1.249 . S
C1083 C1076 1.492 . S
H1084 C1067 0.918 1_556 S
H1085 C1068 0.930 . S
H1086 C1069 0.930 . S
H1087 C1070 0.930 . S
H1088 C1077 0.930 . S
H1089 C1079 0.930 . S
H1090 C1080 0.930 . S
H1091 C1081 0.930 . S
Eu1092 N1123 2.657 . S
Eu1092 N1130 2.609 . S
Eu1092 O1136 2.558 . S
Eu1092 O1137 2.612 . S
Eu1092 O1139 2.339 . S
Eu1092 O1140 2.563 . S
Eu1092 O1141 2.419 . S
Eu1092 O1143 2.380 . S
Eu1092 O1144 2.432 . S
Eu1092 C1156 2.848 . S
C1093 C1096 1.429 . S
C1093 C1097 1.411 . S
C1093 N1100 1.377 . S
C1094 C1096 1.420 . S
C1094 C1098 1.423 . S
C1094 C1106 1.392 . S
C1095 C1097 1.420 . S
C1095 C1098 1.351 . S
C1095 H1118 0.931 . S
C1096 C1093 1.429 . S
C1096 C1094 1.420 . S
C1096 N1104 1.362 . S
C1097 C1093 1.411 . S
C1097 C1095 1.420 . S
C1097 C1102 1.395 . S
C1098 C1094 1.423 . S
C1098 C1095 1.351 . S
C1098 H1110 0.930 . S
C1099 C1101 1.400 . S
C1099 C1102 1.386 . S
C1099 H1111 0.930 . S
N1100 C1093 1.377 . S
N1100 C1101 1.321 . S
N1100 Eu1103 2.609 . S
C1101 C1099 1.400 . S
C1101 N1100 1.321 . S
C1101 H1108 0.930 . S
C1102 C1097 1.395 . S
C1102 C1099 1.386 . S
C1102 H1121 0.930 . S
Eu1103 N1100 2.609 . S
Eu1103 N1104 2.657 . S
Eu1103 O1137 2.380 . S
Eu1103 O1138 2.432 . S
Eu1103 O1142 2.558 . S
Eu1103 O1143 2.612 . S
Eu1103 O1145 2.339 . S
Eu1103 O1146 2.563 . S
Eu1103 O1147 2.419 . S
Eu1103 C1167 2.848 . S
N1104 C1096 1.362 . S
N1104 Eu1103 2.657 . S
N1104 C1105 1.334 . S
C1105 N1104 1.334 . S
C1105 C1107 1.413 . S
C1105 H1112 0.929 . S
C1106 C1094 1.392 . S
C1106 C1107 1.367 . S
C1106 H1114 0.930 . S
C1107 C1105 1.413 . S
C1107 C1106 1.367 . S
C1107 H1109 0.930 . S
H1108 C1101 0.930 . S
H1109 C1107 0.930 . S
H1110 C1098 0.930 . S
H1111 C1099 0.930 . S
H1112 C1105 0.929 . S
H1113 C1127 0.930 . S
H1114 C1106 0.930 . S
H1115 C1133 0.930 . S
H1116 C1124 0.929 . S
H1117 C1131 0.930 . S
H1118 C1095 0.931 . S
H1119 C1125 0.930 . S
H1120 C1158 0.930 . S
H1121 C1102 0.930 . S
H1122 C1157 0.931 . S
N1123 Eu1092 2.657 . S
N1123 C1124 1.334 . S
N1123 C1128 1.362 . S
C1124 H1116 0.929 . S
C1124 N1123 1.334 . S
C1124 C1127 1.413 . S
C1125 H1119 0.930 . S
C1125 C1126 1.392 . S
C1125 C1127 1.367 . S
C1126 C1125 1.392 . S
C1126 C1128 1.420 . S
C1126 C1158 1.423 . S
C1127 H1113 0.930 . S
C1127 C1124 1.413 . S
C1127 C1125 1.367 . S
C1128 N1123 1.362 . S
C1128 C1126 1.420 . S
C1128 C1132 1.429 . S
H1129 C1134 0.930 . S
N1130 Eu1092 2.609 . S
N1130 C1132 1.377 . S
N1130 C1133 1.321 . S
C1131 H1117 0.930 . S
C1131 C1133 1.400 . S
C1131 C1134 1.386 . S
C1132 C1128 1.429 . S
C1132 N1130 1.377 . S
C1132 C1135 1.411 . S
C1133 H1115 0.930 . S
C1133 N1130 1.321 . S
C1133 C1131 1.400 . S
C1134 H1129 0.930 . S
C1134 C1131 1.386 . S
C1134 C1135 1.395 . S
C1135 C1132 1.411 . S
C1135 C1134 1.395 . S
C1135 C1157 1.420 . S
O1136 Eu1092 2.558 . S
O1136 C1156 1.257 . S
O1137 Eu1092 2.612 . S
O1137 Eu1103 2.380 . S
O1137 C1148 1.276 . S
O1138 Eu1103 2.432 . S
O1138 C1155 1.264 . S
O1139 Eu1092 2.339 . S
O1139 C1155 1.254 . S
O1140 Eu1092 2.563 . S
O1140 C1148 1.235 . S
O1141 Eu1092 2.419 . S
O1141 C1156 1.249 . S
O1142 Eu1103 2.558 . S
O1142 C1167 1.257 . S
O1143 Eu1092 2.380 . S
O1143 Eu1103 2.612 . S
O1143 C1159 1.276 . S
O1144 Eu1092 2.432 . S
O1144 C1166 1.264 . S
O1145 Eu1103 2.339 . S
O1145 C1166 1.254 . S
O1146 Eu1103 2.563 . S
O1146 C1159 1.235 . S
O1147 Eu1103 2.419 . S
O1147 C1167 1.249 . S
C1148 O1137 1.276 . S
C1148 O1140 1.235 . S
C1149 C1151 1.393 . S
C1149 C1153 1.395 . S
C1149 C1156 1.492 . S
C1150 C1151 1.392 . S
C1150 C1152 1.386 . S
C1151 C1149 1.393 . S
C1151 C1150 1.392 . S
C1151 H1168 0.930 . S
C1152 C1150 1.386 . S
C1152 C1154 1.395 . S
C1152 H1169 0.930 . S
C1153 C1149 1.395 . S
C1153 C1154 1.379 . S
C1153 H1170 0.930 . S
C1154 C1152 1.395 . S
C1154 C1153 1.379 . S
C1154 H1171 0.930 . S
C1155 O1138 1.264 . S
C1155 O1139 1.254 . S
C1156 Eu1092 2.848 . S
C1156 O1136 1.257 . S
C1156 O1141 1.249 . S
C1156 C1149 1.492 . S
C1157 H1122 0.931 . S
C1157 C1135 1.420 . S
C1157 C1158 1.351 . S
C1158 H1120 0.930 . S
C1158 C1126 1.423 . S
C1158 C1157 1.351 . S
C1159 O1143 1.276 . S
C1159 O1146 1.235 . S
C1160 C1161 1.393 . S
C1160 C1164 1.395 . S
C1160 C1167 1.492 . S
C1161 C1160 1.393 . S
C1161 C1162 1.392 . S
C1161 H1172 0.930 . S
C1162 C1161 1.392 . S
C1162 C1163 1.386 . S
C1163 C1162 1.386 . S
C1163 C1165 1.395 . S
C1163 H1173 0.930 . S
C1164 C1160 1.395 . S
C1164 C1165 1.379 . S
C1164 H1174 0.930 . S
C1165 C1163 1.395 . S
C1165 C1164 1.379 . S
C1165 H1175 0.930 . S
C1166 O1144 1.264 . S
C1166 O1145 1.254 . S
C1167 Eu1103 2.848 . S
C1167 O1142 1.257 . S
C1167 O1147 1.249 . S
C1167 C1160 1.492 . S
H1168 C1151 0.930 . S
H1169 C1152 0.930 . S
H1170 C1153 0.930 . S
H1171 C1154 0.930 . S
H1172 C1161 0.930 . S
H1173 C1163 0.930 . S
H1174 C1164 0.930 . S
H1175 C1165 0.930 . S
Eu1176 N1207 2.657 . S
Eu1176 N1214 2.609 . S
Eu1176 O1220 2.558 . S
Eu1176 O1221 2.612 . S
Eu1176 O1223 2.339 . S
Eu1176 O1224 2.563 . S
Eu1176 O1225 2.419 . S
Eu1176 O1227 2.380 . S
Eu1176 O1228 2.432 . S
Eu1176 C1240 2.848 . S
C1177 C1180 1.430 1_455 S
C1177 C1181 1.405 1_455 S
C1177 N1184 1.382 . S
C1178 C1180 1.420 . S
C1178 C1182 1.423 . S
C1178 C1190 1.392 . S
C1179 C1181 1.420 . S
C1179 C1182 1.351 . S
C1179 H1202 0.931 . S
C1180 C1177 1.430 1_655 S
C1180 C1178 1.420 . S
C1180 N1188 1.362 1_655 S
C1181 C1177 1.405 1_655 S
C1181 C1179 1.420 . S
C1181 C1186 1.395 . S
C1182 C1178 1.423 . S
C1182 C1179 1.351 . S
C1182 H1194 0.930 . S
C1183 C1185 1.400 . S
C1183 C1186 1.386 1_455 S
C1183 H1195 0.930 . S
N1184 C1177 1.382 . S
N1184 C1185 1.321 . S
N1184 Eu1187 2.609 . S
C1185 C1183 1.400 . S
C1185 N1184 1.321 . S
C1185 H1192 0.930 . S
C1186 C1181 1.395 . S
C1186 C1183 1.386 1_655 S
C1186 H1205 0.930 . S
Eu1187 N1184 2.609 . S
Eu1187 N1188 2.657 . S
Eu1187 O1221 2.380 . S
Eu1187 O1222 2.432 . S
Eu1187 O1226 2.558 . S
Eu1187 O1227 2.612 . S
Eu1187 O1229 2.339 . S
Eu1187 O1230 2.563 . S
Eu1187 O1231 2.419 . S
Eu1187 C1251 2.848 . S
N1188 C1180 1.362 1_455 S
N1188 Eu1187 2.657 . S
N1188 C1189 1.334 . S
C1189 N1188 1.334 . S
C1189 C1191 1.413 1_455 S
C1189 H1196 0.929 . S
C1190 C1178 1.392 . S
C1190 C1191 1.367 . S
C1190 H1198 0.930 . S
C1191 C1189 1.413 1_655 S
C1191 C1190 1.367 . S
C1191 H1193 0.930 . S
H1192 C1185 0.930 . S
H1193 C1191 0.930 . S
H1194 C1182 0.930 . S
H1195 C1183 0.930 . S
H1196 C1189 0.929 . S
H1197 C1211 0.930 . S
H1198 C1190 0.930 . S
H1199 C1217 0.930 . S
H1200 C1208 0.929 . S
H1201 C1215 0.930 . S
H1202 C1179 0.931 . S
H1203 C1209 0.930 . S
H1204 C1242 0.930 . S
H1205 C1186 0.930 . S
H1206 C1241 0.931 . S
N1207 Eu1176 2.657 . S
N1207 C1208 1.334 . S
N1207 C1212 1.362 . S
C1208 H1200 0.929 . S
C1208 N1207 1.334 . S
C1208 C1211 1.413 . S
C1209 H1203 0.930 . S
C1209 C1210 1.392 . S
C1209 C1211 1.367 . S
C1210 C1209 1.392 . S
C1210 C1212 1.420 . S
C1210 C1242 1.423 . S
C1211 H1197 0.930 . S
C1211 C1208 1.413 . S
C1211 C1209 1.367 . S
C1212 N1207 1.362 . S
C1212 C1210 1.420 . S
C1212 C1216 1.429 . S
H1213 C1218 0.930 . S
N1214 Eu1176 2.609 . S
N1214 C1216 1.377 . S
N1214 C1217 1.321 . S
C1215 H1201 0.930 . S
C1215 C1217 1.400 . S
C1215 C1218 1.386 . S
C1216 C1212 1.429 . S
C1216 N1214 1.377 . S
C1216 C1219 1.411 . S
C1217 H1199 0.930 . S
C1217 N1214 1.321 . S
C1217 C1215 1.400 . S
C1218 H1213 0.930 . S
C1218 C1215 1.386 . S
C1218 C1219 1.395 . S
C1219 C1216 1.411 . S
C1219 C1218 1.395 . S
C1219 C1241 1.420 . S
O1220 Eu1176 2.558 . S
O1220 C1240 1.257 . S
O1221 Eu1176 2.612 . S
O1221 Eu1187 2.380 . S
O1221 C1232 1.276 . S
O1222 Eu1187 2.432 . S
O1222 C1239 1.264 . S
O1223 Eu1176 2.339 . S
O1223 C1239 1.254 . S
O1224 Eu1176 2.563 . S
O1224 C1232 1.235 . S
O1225 Eu1176 2.419 . S
O1225 C1240 1.249 . S
O1226 Eu1187 2.558 . S
O1226 C1251 1.257 . S
O1227 Eu1176 2.380 . S
O1227 Eu1187 2.612 . S
O1227 C1243 1.276 . S
O1228 Eu1176 2.432 . S
O1228 C1250 1.264 . S
O1229 Eu1187 2.339 . S
O1229 C1250 1.254 . S
O1230 Eu1187 2.563 . S
O1230 C1243 1.235 . S
O1231 Eu1187 2.419 . S
O1231 C1251 1.249 . S
C1232 O1221 1.276 . S
C1232 O1224 1.235 . S
C1233 C1235 1.393 . S
C1233 C1237 1.395 . S
C1233 C1240 1.492 . S
C1234 C1235 1.392 . S
C1234 C1236 1.386 . S
C1235 C1233 1.393 . S
C1235 C1234 1.392 . S
C1235 H1252 0.930 . S
C1236 C1234 1.386 . S
C1236 C1238 1.395 . S
C1236 H1253 0.930 . S
C1237 C1233 1.395 . S
C1237 C1238 1.379 . S
C1237 H1254 0.930 . S
C1238 C1236 1.395 . S
C1238 C1237 1.379 . S
C1238 H1255 0.930 . S
C1239 O1222 1.264 . S
C1239 O1223 1.254 . S
C1240 Eu1176 2.848 . S
C1240 O1220 1.257 . S
C1240 O1225 1.249 . S
C1240 C1233 1.492 . S
C1241 H1206 0.931 . S
C1241 C1219 1.420 . S
C1241 C1242 1.351 . S
C1242 H1204 0.930 . S
C1242 C1210 1.423 . S
C1242 C1241 1.351 . S
C1243 O1227 1.276 . S
C1243 O1230 1.235 . S
C1244 C1245 1.393 . S
C1244 C1248 1.395 . S
C1244 C1251 1.492 . S
C1245 C1244 1.393 . S
C1245 C1246 1.392 . S
C1245 H1256 0.930 . S
C1246 C1245 1.392 . S
C1246 C1247 1.386 . S
C1247 C1246 1.386 . S
C1247 C1249 1.395 . S
C1247 H1257 0.930 . S
C1248 C1244 1.395 . S
C1248 C1249 1.379 . S
C1248 H1258 0.930 . S
C1249 C1247 1.395 . S
C1249 C1248 1.379 . S
C1249 H1259 0.930 . S
C1250 O1228 1.264 . S
C1250 O1229 1.254 . S
C1251 Eu1187 2.848 . S
C1251 O1226 1.257 . S
C1251 O1231 1.249 . S
C1251 C1244 1.492 . S
H1252 C1235 0.930 . S
H1253 C1236 0.930 . S
H1254 C1237 0.930 . S
H1255 C1238 0.930 . S
H1256 C1245 0.930 . S
H1257 C1247 0.930 . S
H1258 C1248 0.930 . S
H1259 C1249 0.930 . S
Eu1260 N1291 2.657 . S
Eu1260 N1298 2.609 . S
Eu1260 O1304 2.558 . S
Eu1260 O1305 2.612 . S
Eu1260 O1307 2.339 . S
Eu1260 O1308 2.563 . S
Eu1260 O1309 2.419 . S
Eu1260 O1311 2.380 . S
Eu1260 O1312 2.432 . S
Eu1260 C1324 2.848 . S
C1261 C1264 1.429 . S
C1261 C1265 1.411 . S
C1261 N1268 1.377 . S
C1262 C1264 1.420 . S
C1262 C1266 1.423 . S
C1262 C1274 1.392 . S
C1263 C1265 1.420 . S
C1263 C1266 1.351 . S
C1263 H1286 0.931 . S
C1264 C1261 1.429 . S
C1264 C1262 1.420 . S
C1264 N1272 1.362 . S
C1265 C1261 1.411 . S
C1265 C1263 1.420 . S
C1265 C1270 1.395 . S
C1266 C1262 1.423 . S
C1266 C1263 1.351 . S
C1266 H1278 0.930 . S
C1267 C1269 1.400 . S
C1267 C1270 1.386 . S
C1267 H1279 0.930 . S
N1268 C1261 1.377 . S
N1268 C1269 1.321 . S
N1268 Eu1271 2.609 . S
C1269 C1267 1.400 . S
C1269 N1268 1.321 . S
C1269 H1276 0.930 . S
C1270 C1265 1.395 . S
C1270 C1267 1.386 . S
C1270 H1289 0.930 . S
Eu1271 N1268 2.609 . S
Eu1271 N1272 2.657 . S
Eu1271 O1305 2.380 . S
Eu1271 O1306 2.432 . S
Eu1271 O1310 2.558 . S
Eu1271 O1311 2.612 . S
Eu1271 O1313 2.339 . S
Eu1271 O1314 2.563 . S
Eu1271 O1315 2.419 . S
Eu1271 C1335 2.848 . S
N1272 C1264 1.362 . S
N1272 Eu1271 2.657 . S
N1272 C1273 1.334 . S
C1273 N1272 1.334 . S
C1273 C1275 1.413 . S
C1273 H1280 0.929 . S
C1274 C1262 1.392 . S
C1274 C1275 1.367 . S
C1274 H1282 0.930 . S
C1275 C1273 1.413 . S
C1275 C1274 1.367 . S
C1275 H1277 0.930 . S
H1276 C1269 0.930 . S
H1277 C1275 0.930 . S
H1278 C1266 0.930 . S
H1279 C1267 0.930 . S
H1280 C1273 0.929 . S
H1281 C1295 0.930 . S
H1282 C1274 0.930 . S
H1283 C1301 0.930 . S
H1284 C1292 0.929 . S
H1285 C1299 0.930 . S
H1286 C1263 0.931 . S
H1287 C1293 0.930 . S
H1288 C1326 0.930 . S
H1289 C1270 0.930 . S
H1290 C1325 0.931 . S
N1291 Eu1260 2.657 . S
N1291 C1292 1.334 . S
N1291 C1296 1.362 . S
C1292 H1284 0.929 . S
C1292 N1291 1.334 . S
C1292 C1295 1.413 . S
C1293 H1287 0.930 . S
C1293 C1294 1.392 . S
C1293 C1295 1.367 . S
C1294 C1293 1.392 . S
C1294 C1296 1.420 . S
C1294 C1326 1.423 . S
C1295 H1281 0.930 . S
C1295 C1292 1.413 . S
C1295 C1293 1.367 . S
C1296 N1291 1.362 . S
C1296 C1294 1.420 . S
C1296 C1300 1.429 . S
H1297 C1302 0.930 . S
N1298 Eu1260 2.609 . S
N1298 C1300 1.377 . S
N1298 C1301 1.321 . S
C1299 H1285 0.930 . S
C1299 C1301 1.400 . S
C1299 C1302 1.386 . S
C1300 C1296 1.429 . S
C1300 N1298 1.377 . S
C1300 C1303 1.411 . S
C1301 H1283 0.930 . S
C1301 N1298 1.321 . S
C1301 C1299 1.400 . S
C1302 H1297 0.930 . S
C1302 C1299 1.386 . S
C1302 C1303 1.395 . S
C1303 C1300 1.411 . S
C1303 C1302 1.395 . S
C1303 C1325 1.420 . S
O1304 Eu1260 2.558 . S
O1304 C1324 1.257 . S
O1305 Eu1260 2.612 . S
O1305 Eu1271 2.380 . S
O1305 C1316 1.276 . S
O1306 Eu1271 2.432 . S
O1306 C1323 1.264 . S
O1307 Eu1260 2.339 . S
O1307 C1323 1.254 . S
O1308 Eu1260 2.563 . S
O1308 C1316 1.235 . S
O1309 Eu1260 2.419 . S
O1309 C1324 1.249 . S
O1310 Eu1271 2.558 . S
O1310 C1335 1.257 . S
O1311 Eu1260 2.380 . S
O1311 Eu1271 2.612 . S
O1311 C1327 1.276 . S
O1312 Eu1260 2.432 . S
O1312 C1334 1.264 . S
O1313 Eu1271 2.339 . S
O1313 C1334 1.254 . S
O1314 Eu1271 2.563 . S
O1314 C1327 1.235 . S
O1315 Eu1271 2.419 . S
O1315 C1335 1.249 . S
C1316 O1305 1.276 . S
C1316 O1308 1.235 . S
C1317 C1319 1.393 . S
C1317 C1321 1.395 . S
C1317 C1324 1.492 . S
C1318 C1319 1.392 . S
C1318 C1320 1.386 . S
C1319 C1317 1.393 . S
C1319 C1318 1.392 . S
C1319 H1336 0.930 . S
C1320 C1318 1.386 . S
C1320 C1322 1.395 . S
C1320 H1337 0.930 . S
C1321 C1317 1.395 . S
C1321 C1322 1.379 . S
C1321 H1338 0.930 . S
C1322 C1320 1.395 . S
C1322 C1321 1.379 . S
C1322 H1339 0.930 . S
C1323 O1306 1.264 . S
C1323 O1307 1.254 . S
C1324 Eu1260 2.848 . S
C1324 O1304 1.257 . S
C1324 O1309 1.249 . S
C1324 C1317 1.492 . S
C1325 H1290 0.931 . S
C1325 C1303 1.420 . S
C1325 C1326 1.351 . S
C1326 H1288 0.930 . S
C1326 C1294 1.423 . S
C1326 C1325 1.351 . S
C1327 O1311 1.276 . S
C1327 O1314 1.235 . S
C1328 C1329 1.393 . S
C1328 C1332 1.395 . S
C1328 C1335 1.492 . S
C1329 C1328 1.393 . S
C1329 C1330 1.392 . S
C1329 H1340 0.930 . S
C1330 C1329 1.392 . S
C1330 C1331 1.386 . S
C1331 C1330 1.386 . S
C1331 C1333 1.395 . S
C1331 H1341 0.930 . S
C1332 C1328 1.395 . S
C1332 C1333 1.379 . S
C1332 H1342 0.930 . S
C1333 C1331 1.395 . S
C1333 C1332 1.379 . S
C1333 H1343 0.930 . S
C1334 O1312 1.264 . S
C1334 O1313 1.254 . S
C1335 Eu1271 2.848 . S
C1335 O1310 1.257 . S
C1335 O1315 1.249 . S
C1335 C1328 1.492 . S
H1336 C1319 0.930 . S
H1337 C1320 0.930 . S
H1338 C1321 0.930 . S
H1339 C1322 0.930 . S
H1340 C1329 0.930 . S
H1341 C1331 0.930 . S
H1342 C1332 0.930 . S
H1343 C1333 0.930 . S
Eu1344 N1375 2.657 . S
Eu1344 N1382 2.609 . S
Eu1344 O1388 2.558 . S
Eu1344 O1389 2.612 . S
Eu1344 O1391 2.339 . S
Eu1344 O1392 2.563 . S
Eu1344 O1393 2.419 . S
Eu1344 O1395 2.380 . S
Eu1344 O1396 2.432 . S
Eu1344 C1408 2.848 . S
C1345 C1348 1.429 . S
C1345 C1349 1.411 . S
C1345 N1352 1.377 . S
C1346 C1348 1.420 . S
C1346 C1350 1.423 . S
C1346 C1358 1.392 . S
C1347 C1349 1.420 . S
C1347 C1350 1.351 . S
C1347 H1370 0.931 . S
C1348 C1345 1.429 . S
C1348 C1346 1.420 . S
C1348 N1356 1.362 . S
C1349 C1345 1.411 . S
C1349 C1347 1.420 . S
C1349 C1354 1.395 . S
C1350 C1346 1.423 . S
C1350 C1347 1.351 . S
C1350 H1362 0.930 . S
C1351 C1353 1.400 . S
C1351 C1354 1.386 . S
C1351 H1363 0.930 . S
N1352 C1345 1.377 . S
N1352 C1353 1.321 . S
N1352 Eu1355 2.609 . S
C1353 C1351 1.400 . S
C1353 N1352 1.321 . S
C1353 H1360 0.930 . S
C1354 C1349 1.395 . S
C1354 C1351 1.386 . S
C1354 H1373 0.930 . S
Eu1355 N1352 2.609 . S
Eu1355 N1356 2.657 . S
Eu1355 O1389 2.380 . S
Eu1355 O1390 2.432 . S
Eu1355 O1394 2.558 . S
Eu1355 O1395 2.612 . S
Eu1355 O1397 2.339 . S
Eu1355 O1398 2.563 . S
Eu1355 O1399 2.419 . S
Eu1355 C1419 2.848 . S
N1356 C1348 1.362 . S
N1356 Eu1355 2.657 . S
N1356 C1357 1.334 . S
C1357 N1356 1.334 . S
C1357 C1359 1.413 . S
C1357 H1364 0.929 . S
C1358 C1346 1.392 . S
C1358 C1359 1.367 . S
C1358 H1366 0.930 . S
C1359 C1357 1.413 . S
C1359 C1358 1.367 . S
C1359 H1361 0.930 . S
H1360 C1353 0.930 . S
H1361 C1359 0.930 . S
H1362 C1350 0.930 . S
H1363 C1351 0.930 . S
H1364 C1357 0.929 . S
H1365 C1379 0.930 . S
H1366 C1358 0.930 . S
H1367 C1385 0.930 . S
H1368 C1376 0.929 . S
H1369 C1383 0.930 . S
H1370 C1347 0.931 . S
H1371 C1377 0.930 . S
H1372 C1410 0.930 . S
H1373 C1354 0.930 . S
H1374 C1409 0.931 . S
N1375 Eu1344 2.657 . S
N1375 C1376 1.334 . S
N1375 C1380 1.362 . S
C1376 H1368 0.929 . S
C1376 N1375 1.334 . S
C1376 C1379 1.413 . S
C1377 H1371 0.930 . S
C1377 C1378 1.392 . S
C1377 C1379 1.367 . S
C1378 C1377 1.392 . S
C1378 C1380 1.420 . S
C1378 C1410 1.423 . S
C1379 H1365 0.930 . S
C1379 C1376 1.413 . S
C1379 C1377 1.367 . S
C1380 N1375 1.362 . S
C1380 C1378 1.420 . S
C1380 C1384 1.429 . S
H1381 C1386 0.930 . S
N1382 Eu1344 2.609 . S
N1382 C1384 1.377 . S
N1382 C1385 1.321 . S
C1383 H1369 0.930 . S
C1383 C1385 1.400 . S
C1383 C1386 1.386 . S
C1384 C1380 1.429 . S
C1384 N1382 1.377 . S
C1384 C1387 1.411 . S
C1385 H1367 0.930 . S
C1385 N1382 1.321 . S
C1385 C1383 1.400 . S
C1386 H1381 0.930 . S
C1386 C1383 1.386 . S
C1386 C1387 1.395 . S
C1387 C1384 1.411 . S
C1387 C1386 1.395 . S
C1387 C1409 1.420 . S
O1388 Eu1344 2.558 . S
O1388 C1408 1.257 . S
O1389 Eu1344 2.612 . S
O1389 Eu1355 2.380 . S
O1389 C1400 1.276 . S
O1390 Eu1355 2.432 . S
O1390 C1407 1.264 . S
O1391 Eu1344 2.339 . S
O1391 C1407 1.254 . S
O1392 Eu1344 2.563 . S
O1392 C1400 1.235 . S
O1393 Eu1344 2.419 . S
O1393 C1408 1.249 . S
O1394 Eu1355 2.558 . S
O1394 C1419 1.257 . S
O1395 Eu1344 2.380 . S
O1395 Eu1355 2.612 . S
O1395 C1411 1.276 . S
O1396 Eu1344 2.432 . S
O1396 C1418 1.264 . S
O1397 Eu1355 2.339 . S
O1397 C1418 1.254 . S
O1398 Eu1355 2.563 . S
O1398 C1411 1.235 . S
O1399 Eu1355 2.419 . S
O1399 C1419 1.249 . S
C1400 O1389 1.276 . S
C1400 O1392 1.235 . S
C1401 C1403 1.393 . S
C1401 C1405 1.395 . S
C1401 C1408 1.492 . S
C1402 C1403 1.392 . S
C1402 C1404 1.386 . S
C1403 C1401 1.393 . S
C1403 C1402 1.392 . S
C1403 H1420 0.930 . S
C1404 C1402 1.386 . S
C1404 C1406 1.395 . S
C1404 H1421 0.930 . S
C1405 C1401 1.395 . S
C1405 C1406 1.379 . S
C1405 H1422 0.930 . S
C1406 C1404 1.395 . S
C1406 C1405 1.379 . S
C1406 H1423 0.930 . S
C1407 O1390 1.264 . S
C1407 O1391 1.254 . S
C1408 Eu1344 2.848 . S
C1408 O1388 1.257 . S
C1408 O1393 1.249 . S
C1408 C1401 1.492 . S
C1409 H1374 0.931 . S
C1409 C1387 1.420 . S
C1409 C1410 1.351 . S
C1410 H1372 0.930 . S
C1410 C1378 1.423 . S
C1410 C1409 1.351 . S
C1411 O1395 1.276 . S
C1411 O1398 1.235 . S
C1412 C1413 1.393 . S
C1412 C1416 1.395 . S
C1412 C1419 1.492 . S
C1413 C1412 1.393 . S
C1413 C1414 1.392 . S
C1413 H1424 0.930 . S
C1414 C1413 1.392 . S
C1414 C1415 1.386 . S
C1415 C1414 1.386 . S
C1415 C1417 1.395 . S
C1415 H1425 0.930 . S
C1416 C1412 1.395 . S
C1416 C1417 1.379 . S
C1416 H1426 0.930 . S
C1417 C1415 1.395 . S
C1417 C1416 1.379 . S
C1417 H1427 0.930 . S
C1418 O1396 1.264 . S
C1418 O1397 1.254 . S
C1419 Eu1355 2.848 . S
C1419 O1394 1.257 . S
C1419 O1399 1.249 . S
C1419 C1412 1.492 . S
H1420 C1403 0.930 . S
H1421 C1404 0.930 . S
H1422 C1405 0.930 . S
H1423 C1406 0.930 . S
H1424 C1413 0.930 . S
H1425 C1415 0.930 . S
H1426 C1416 0.930 . S
H1427 C1417 0.930 . S
Eu1428 N1459 2.657 . S
Eu1428 N1466 2.609 . S
Eu1428 O1472 2.558 . S
Eu1428 O1473 2.612 . S
Eu1428 O1475 2.339 . S
Eu1428 O1476 2.563 . S
Eu1428 O1477 2.419 . S
Eu1428 O1479 2.380 . S
Eu1428 O1480 2.432 . S
Eu1428 C1492 2.848 . S
C1429 C1432 1.429 . S
C1429 C1433 1.411 . S
C1429 N1436 1.377 . S
C1430 C1432 1.420 . S
C1430 C1434 1.423 . S
C1430 C1442 1.392 . S
C1431 C1433 1.420 . S
C1431 C1434 1.351 . S
C1431 H1454 0.931 . S
C1432 C1429 1.429 . S
C1432 C1430 1.420 . S
C1432 N1440 1.362 . S
C1433 C1429 1.411 . S
C1433 C1431 1.420 . S
C1433 C1438 1.395 . S
C1434 C1430 1.423 . S
C1434 C1431 1.351 . S
C1434 H1446 0.930 . S
C1435 C1437 1.400 . S
C1435 C1438 1.386 . S
C1435 H1447 0.930 . S
N1436 C1429 1.377 . S
N1436 C1437 1.321 . S
N1436 Eu1439 2.609 . S
C1437 C1435 1.400 . S
C1437 N1436 1.321 . S
C1437 H1444 0.930 . S
C1438 C1433 1.395 . S
C1438 C1435 1.386 . S
C1438 H1457 0.930 . S
Eu1439 N1436 2.609 . S
Eu1439 N1440 2.657 . S
Eu1439 O1473 2.380 . S
Eu1439 O1474 2.432 . S
Eu1439 O1478 2.558 . S
Eu1439 O1479 2.612 . S
Eu1439 O1481 2.339 . S
Eu1439 O1482 2.563 . S
Eu1439 O1483 2.419 . S
Eu1439 C1503 2.848 . S
N1440 C1432 1.362 . S
N1440 Eu1439 2.657 . S
N1440 C1441 1.334 . S
C1441 N1440 1.334 . S
C1441 C1443 1.413 . S
C1441 H1448 0.929 . S
C1442 C1430 1.392 . S
C1442 C1443 1.367 . S
C1442 H1450 0.930 . S
C1443 C1441 1.413 . S
C1443 C1442 1.367 . S
C1443 H1445 0.930 . S
H1444 C1437 0.930 . S
H1445 C1443 0.930 . S
H1446 C1434 0.930 . S
H1447 C1435 0.930 . S
H1448 C1441 0.929 . S
H1449 C1463 0.930 . S
H1450 C1442 0.930 . S
H1451 C1469 0.930 . S
H1452 C1460 0.929 . S
H1453 C1467 0.930 . S
H1454 C1431 0.931 . S
H1455 C1461 0.930 . S
H1456 C1494 0.930 . S
H1457 C1438 0.930 . S
H1458 C1493 0.931 . S
N1459 Eu1428 2.657 . S
N1459 C1460 1.334 . S
N1459 C1464 1.362 . S
C1460 H1452 0.929 . S
C1460 N1459 1.334 . S
C1460 C1463 1.413 . S
C1461 H1455 0.930 . S
C1461 C1462 1.392 . S
C1461 C1463 1.367 . S
C1462 C1461 1.392 . S
C1462 C1464 1.420 . S
C1462 C1494 1.423 . S
C1463 H1449 0.930 . S
C1463 C1460 1.413 . S
C1463 C1461 1.367 . S
C1464 N1459 1.362 . S
C1464 C1462 1.420 . S
C1464 C1468 1.429 . S
H1465 C1470 0.930 . S
N1466 Eu1428 2.609 . S
N1466 C1468 1.377 . S
N1466 C1469 1.321 . S
C1467 H1453 0.930 . S
C1467 C1469 1.400 . S
C1467 C1470 1.386 . S
C1468 C1464 1.429 . S
C1468 N1466 1.377 . S
C1468 C1471 1.411 . S
C1469 H1451 0.930 . S
C1469 N1466 1.321 . S
C1469 C1467 1.400 . S
C1470 H1465 0.930 . S
C1470 C1467 1.386 . S
C1470 C1471 1.395 . S
C1471 C1468 1.411 . S
C1471 C1470 1.395 . S
C1471 C1493 1.420 . S
O1472 Eu1428 2.558 . S
O1472 C1492 1.257 . S
O1473 Eu1428 2.612 . S
O1473 Eu1439 2.380 . S
O1473 C1484 1.276 . S
O1474 Eu1439 2.432 . S
O1474 C1491 1.264 . S
O1475 Eu1428 2.339 . S
O1475 C1491 1.254 . S
O1476 Eu1428 2.563 . S
O1476 C1484 1.235 . S
O1477 Eu1428 2.419 . S
O1477 C1492 1.249 . S
O1478 Eu1439 2.558 . S
O1478 C1503 1.257 . S
O1479 Eu1428 2.380 . S
O1479 Eu1439 2.612 . S
O1479 C1495 1.276 . S
O1480 Eu1428 2.432 . S
O1480 C1502 1.264 . S
O1481 Eu1439 2.339 . S
O1481 C1502 1.254 . S
O1482 Eu1439 2.563 . S
O1482 C1495 1.235 . S
O1483 Eu1439 2.419 . S
O1483 C1503 1.249 . S
C1484 O1473 1.276 . S
C1484 O1476 1.235 . S
C1485 C1487 1.393 . S
C1485 C1489 1.395 . S
C1485 C1492 1.492 . S
C1486 C1487 1.392 . S
C1486 C1488 1.386 . S
C1487 C1485 1.393 . S
C1487 C1486 1.392 . S
C1487 H1504 0.930 . S
C1488 C1486 1.386 . S
C1488 C1490 1.395 . S
C1488 H1505 0.930 . S
C1489 C1485 1.395 . S
C1489 C1490 1.379 . S
C1489 H1506 0.930 . S
C1490 C1488 1.395 . S
C1490 C1489 1.379 . S
C1490 H1507 0.930 . S
C1491 O1474 1.264 . S
C1491 O1475 1.254 . S
C1492 Eu1428 2.848 . S
C1492 O1472 1.257 . S
C1492 O1477 1.249 . S
C1492 C1485 1.492 . S
C1493 H1458 0.931 . S
C1493 C1471 1.420 . S
C1493 C1494 1.351 . S
C1494 H1456 0.930 . S
C1494 C1462 1.423 . S
C1494 C1493 1.351 . S
C1495 O1479 1.276 . S
C1495 O1482 1.235 . S
C1496 C1497 1.393 . S
C1496 C1500 1.395 . S
C1496 C1503 1.492 . S
C1497 C1496 1.393 . S
C1497 C1498 1.392 . S
C1497 H1508 0.930 . S
C1498 C1497 1.392 . S
C1498 C1499 1.386 . S
C1499 C1498 1.386 . S
C1499 C1501 1.395 . S
C1499 H1509 0.930 . S
C1500 C1496 1.395 . S
C1500 C1501 1.379 . S
C1500 H1510 0.930 . S
C1501 C1499 1.395 . S
C1501 C1500 1.379 . S
C1501 H1511 0.930 . S
C1502 O1480 1.264 . S
C1502 O1481 1.254 . S
C1503 Eu1439 2.848 . S
C1503 O1478 1.257 . S
C1503 O1483 1.249 . S
C1503 C1496 1.492 . S
H1504 C1487 0.930 . S
H1505 C1488 0.930 . S
H1506 C1489 0.930 . S
H1507 C1490 0.930 . S
H1508 C1497 0.930 . S
H1509 C1499 0.930 . S
H1510 C1500 0.930 . S
H1511 C1501 0.930 . S
Eu1512 N1543 2.657 . S
Eu1512 N1550 2.609 . S
Eu1512 O1556 2.558 . S
Eu1512 O1557 2.612 . S
Eu1512 O1559 2.339 . S
Eu1512 O1560 2.563 . S
Eu1512 O1561 2.419 . S
Eu1512 O1563 2.380 . S
Eu1512 O1564 2.432 . S
Eu1512 C1576 2.848 . S
C1513 C1516 1.429 . S
C1513 C1517 1.411 . S
C1513 N1520 1.377 . S
C1514 C1516 1.420 . S
C1514 C1518 1.423 . S
C1514 C1526 1.392 . S
C1515 C1517 1.420 . S
C1515 C1518 1.351 . S
C1515 H1538 0.931 . S
C1516 C1513 1.429 . S
C1516 C1514 1.420 . S
C1516 N1524 1.362 . S
C1517 C1513 1.411 . S
C1517 C1515 1.420 . S
C1517 C1522 1.395 . S
C1518 C1514 1.423 . S
C1518 C1515 1.351 . S
C1518 H1530 0.930 . S
C1519 C1521 1.400 . S
C1519 C1522 1.386 . S
C1519 H1531 0.930 . S
N1520 C1513 1.377 . S
N1520 C1521 1.321 . S
N1520 Eu1523 2.609 . S
C1521 C1519 1.400 . S
C1521 N1520 1.321 . S
C1521 H1528 0.930 . S
C1522 C1517 1.395 . S
C1522 C1519 1.386 . S
C1522 H1541 0.930 . S
Eu1523 N1520 2.609 . S
Eu1523 N1524 2.657 . S
Eu1523 O1557 2.380 . S
Eu1523 O1558 2.432 . S
Eu1523 O1562 2.558 . S
Eu1523 O1563 2.612 . S
Eu1523 O1565 2.339 . S
Eu1523 O1566 2.563 . S
Eu1523 O1567 2.419 . S
Eu1523 C1587 2.848 . S
N1524 C1516 1.362 . S
N1524 Eu1523 2.657 . S
N1524 C1525 1.334 . S
C1525 N1524 1.334 . S
C1525 C1527 1.413 . S
C1525 H1532 0.929 . S
C1526 C1514 1.392 . S
C1526 C1527 1.367 . S
C1526 H1534 0.930 . S
C1527 C1525 1.413 . S
C1527 C1526 1.367 . S
C1527 H1529 0.930 . S
H1528 C1521 0.930 . S
H1529 C1527 0.930 . S
H1530 C1518 0.930 . S
H1531 C1519 0.930 . S
H1532 C1525 0.929 . S
H1533 C1547 0.930 . S
H1534 C1526 0.930 . S
H1535 C1553 0.930 . S
H1536 C1544 0.929 . S
H1537 C1551 0.930 . S
H1538 C1515 0.931 . S
H1539 C1545 0.930 . S
H1540 C1578 0.930 . S
H1541 C1522 0.930 . S
H1542 C1577 0.931 . S
N1543 Eu1512 2.657 . S
N1543 C1544 1.334 . S
N1543 C1548 1.362 . S
C1544 H1536 0.929 . S
C1544 N1543 1.334 . S
C1544 C1547 1.413 . S
C1545 H1539 0.930 . S
C1545 C1546 1.392 . S
C1545 C1547 1.367 . S
C1546 C1545 1.392 . S
C1546 C1548 1.420 . S
C1546 C1578 1.423 . S
C1547 H1533 0.930 . S
C1547 C1544 1.413 . S
C1547 C1545 1.367 . S
C1548 N1543 1.362 . S
C1548 C1546 1.420 . S
C1548 C1552 1.429 . S
H1549 C1554 0.930 . S
N1550 Eu1512 2.609 . S
N1550 C1552 1.377 . S
N1550 C1553 1.321 . S
C1551 H1537 0.930 . S
C1551 C1553 1.400 . S
C1551 C1554 1.386 . S
C1552 C1548 1.429 . S
C1552 N1550 1.377 . S
C1552 C1555 1.411 . S
C1553 H1535 0.930 . S
C1553 N1550 1.321 . S
C1553 C1551 1.400 . S
C1554 H1549 0.930 . S
C1554 C1551 1.386 . S
C1554 C1555 1.395 . S
C1555 C1552 1.411 . S
C1555 C1554 1.395 . S
C1555 C1577 1.420 . S
O1556 Eu1512 2.558 . S
O1556 C1576 1.257 . S
O1557 Eu1512 2.612 . S
O1557 Eu1523 2.380 . S
O1557 C1568 1.276 . S
O1558 Eu1523 2.432 . S
O1558 C1575 1.264 . S
O1559 Eu1512 2.339 . S
O1559 C1575 1.254 . S
O1560 Eu1512 2.563 . S
O1560 C1568 1.235 . S
O1561 Eu1512 2.419 . S
O1561 C1576 1.249 . S
O1562 Eu1523 2.558 . S
O1562 C1587 1.257 . S
O1563 Eu1512 2.380 . S
O1563 Eu1523 2.612 . S
O1563 C1579 1.276 . S
O1564 Eu1512 2.432 . S
O1564 C1586 1.264 . S
O1565 Eu1523 2.339 . S
O1565 C1586 1.254 . S
O1566 Eu1523 2.563 . S
O1566 C1579 1.235 . S
O1567 Eu1523 2.419 . S
O1567 C1587 1.249 . S
C1568 O1557 1.276 . S
C1568 O1560 1.235 . S
C1569 C1571 1.393 . S
C1569 C1573 1.395 . S
C1569 C1576 1.492 . S
C1570 C1571 1.392 . S
C1570 C1572 1.386 . S
C1571 C1569 1.393 . S
C1571 C1570 1.392 . S
C1571 H1588 0.930 . S
C1572 C1570 1.386 . S
C1572 C1574 1.395 . S
C1572 H1589 0.930 . S
C1573 C1569 1.395 . S
C1573 C1574 1.379 . S
C1573 H1590 0.930 . S
C1574 C1572 1.395 . S
C1574 C1573 1.379 . S
C1574 H1591 0.930 . S
C1575 O1558 1.264 . S
C1575 O1559 1.254 . S
C1576 Eu1512 2.848 . S
C1576 O1556 1.257 . S
C1576 O1561 1.249 . S
C1576 C1569 1.492 . S
C1577 H1542 0.931 . S
C1577 C1555 1.420 . S
C1577 C1578 1.351 . S
C1578 H1540 0.930 . S
C1578 C1546 1.423 . S
C1578 C1577 1.351 . S
C1579 O1563 1.276 . S
C1579 O1566 1.235 . S
C1580 C1581 1.393 . S
C1580 C1584 1.395 . S
C1580 C1587 1.492 . S
C1581 C1580 1.393 . S
C1581 C1582 1.392 . S
C1581 H1592 0.930 . S
C1582 C1581 1.392 . S
C1582 C1583 1.386 . S
C1583 C1582 1.386 . S
C1583 C1585 1.395 . S
C1583 H1593 0.930 . S
C1584 C1580 1.395 . S
C1584 C1585 1.379 . S
C1584 H1594 0.930 . S
C1585 C1583 1.395 . S
C1585 C1584 1.379 . S
C1585 H1595 0.930 . S
C1586 O1564 1.264 . S
C1586 O1565 1.254 . S
C1587 Eu1523 2.848 . S
C1587 O1562 1.257 . S
C1587 O1567 1.249 . S
C1587 C1580 1.492 . S
H1588 C1571 0.930 . S
H1589 C1572 0.930 . S
H1590 C1573 0.930 . S
H1591 C1574 0.930 . S
H1592 C1581 0.930 . S
H1593 C1583 0.930 . S
H1594 C1584 0.930 . S
H1595 C1585 0.930 . S
Eu1596 N1627 2.657 . S
Eu1596 N1634 2.609 1_554 S
Eu1596 O1640 2.558 1_554 S
Eu1596 O1641 2.612 . S
Eu1596 O1643 2.339 . S
Eu1596 O1644 2.563 . S
Eu1596 O1645 2.419 . S
Eu1596 O1647 2.380 . S
Eu1596 O1648 2.432 1_554 S
Eu1596 C1660 2.848 1_554 S
C1597 C1600 1.429 . S
C1597 C1601 1.411 . S
C1597 N1604 1.377 1_655 S
C1598 C1600 1.420 . S
C1598 C1602 1.423 . S
C1598 C1610 1.392 1_554 S
C1599 C1601 1.420 . S
C1599 C1602 1.351 . S
C1599 H1622 0.931 . S
C1600 C1597 1.429 . S
C1600 C1598 1.420 . S
C1600 N1608 1.371 . S
C1601 C1597 1.411 . S
C1601 C1599 1.420 . S
C1601 C1606 1.395 . S
C1602 C1598 1.423 . S
C1602 C1599 1.351 . S
C1602 H1614 0.930 . S
C1603 C1605 1.424 . S
C1603 C1606 1.359 1_455 S
C1603 H1615 0.936 . S
N1604 C1597 1.377 1_455 S
N1604 C1605 1.321 . S
N1604 Eu1607 2.609 . S
C1605 C1603 1.424 . S
C1605 N1604 1.321 . S
C1605 H1612 0.930 . S
C1606 C1601 1.395 . S
C1606 C1603 1.359 1_655 S
C1606 H1625 0.930 . S
Eu1607 N1604 2.609 . S
Eu1607 N1608 2.647 1_455 S
Eu1607 O1641 2.380 . S
Eu1607 O1642 2.432 . S
Eu1607 O1646 2.558 . S
Eu1607 O1647 2.612 . S
Eu1607 O1649 2.339 1_554 S
Eu1607 O1650 2.563 . S
Eu1607 O1651 2.419 1_455 S
Eu1607 C1671 2.848 1_455 S
N1608 C1600 1.371 . S
N1608 Eu1607 2.647 1_655 S
N1608 C1609 1.335 1_554 S
C1609 N1608 1.335 1_556 S
C1609 C1611 1.413 . S
C1609 H1616 0.929 1_655 S
C1610 C1598 1.392 1_556 S
C1610 C1611 1.367 . S
C1610 H1618 0.930 . S
C1611 C1609 1.413 . S
C1611 C1610 1.367 . S
C1611 H1613 0.930 . S
H1612 C1605 0.930 . S
H1613 C1611 0.930 . S
H1614 C1602 0.930 . S
H1615 C1603 0.936 . S
H1616 C1609 0.929 1_455 S
H1617 C1631 0.930 . S
H1618 C1610 0.930 . S
H1619 C1637 0.930 . S
H1620 C1628 0.929 . S
H1621 C1635 0.930 . S
H1622 C1599 0.931 . S
H1623 C1629 0.930 . S
H1624 C1662 0.930 . S
H1625 C1606 0.930 . S
H1626 C1661 0.931 . S
N1627 Eu1596 2.657 . S
N1627 C1628 1.334 . S
N1627 C1632 1.362 . S
C1628 H1620 0.929 . S
C1628 N1627 1.334 . S
C1628 C1631 1.413 . S
C1629 H1623 0.930 . S
C1629 C1630 1.392 . S
C1629 C1631 1.367 . S
C1630 C1629 1.392 . S
C1630 C1632 1.420 . S
C1630 C1662 1.423 . S
C1631 H1617 0.930 . S
C1631 C1628 1.413 . S
C1631 C1629 1.367 . S
C1632 N1627 1.362 . S
C1632 C1630 1.420 . S
C1632 C1636 1.429 1_554 S
H1633 C1638 0.930 . S
N1634 Eu1596 2.609 1_556 S
N1634 C1636 1.377 . S
N1634 C1637 1.321 . S
C1635 H1621 0.930 . S
C1635 C1637 1.400 . S
C1635 C1638 1.386 . S
C1636 C1632 1.429 1_556 S
C1636 N1634 1.377 . S
C1636 C1639 1.411 . S
C1637 H1619 0.930 . S
C1637 N1634 1.321 . S
C1637 C1635 1.400 . S
C1638 H1633 0.930 . S
C1638 C1635 1.386 . S
C1638 C1639 1.395 . S
C1639 C1636 1.411 . S
C1639 C1638 1.395 . S
C1639 C1661 1.420 . S
O1640 Eu1596 2.558 1_556 S
O1640 C1660 1.257 . S
O1641 Eu1596 2.612 . S
O1641 Eu1607 2.380 . S
O1641 C1652 1.276 . S
O1642 Eu1607 2.432 . S
O1642 C1659 1.264 . S
O1643 Eu1596 2.339 . S
O1643 C1659 1.254 . S
O1644 Eu1596 2.563 . S
O1644 C1652 1.235 . S
O1645 Eu1596 2.419 . S
O1645 C1660 1.249 1_554 S
O1646 Eu1607 2.558 . S
O1646 C1671 1.257 1_455 S
O1647 Eu1596 2.380 . S
O1647 Eu1607 2.612 . S
O1647 C1663 1.276 . S
O1648 Eu1596 2.432 1_556 S
O1648 C1670 1.264 . S
O1649 Eu1607 2.339 1_556 S
O1649 C1670 1.254 . S
O1650 Eu1607 2.563 . S
O1650 C1663 1.235 . S
O1651 Eu1607 2.419 1_655 S
O1651 C1671 1.249 . S
C1652 O1641 1.276 . S
C1652 O1644 1.235 . S
C1653 C1655 1.393 1_556 S
C1653 C1657 1.395 . S
C1653 C1660 1.492 . S
C1654 C1655 1.392 . S
C1654 C1656 1.386 1_554 S
C1655 C1653 1.393 1_554 S
C1655 C1654 1.392 . S
C1655 H1672 0.930 . S
C1656 C1654 1.386 1_556 S
C1656 C1658 1.395 . S
C1656 H1673 0.930 . S
C1657 C1653 1.395 . S
C1657 C1658 1.379 . S
C1657 H1674 0.930 . S
C1658 C1656 1.395 . S
C1658 C1657 1.379 . S
C1658 H1675 0.930 . S
C1659 O1642 1.264 . S
C1659 O1643 1.254 . S
C1660 Eu1596 2.848 1_556 S
C1660 O1640 1.257 . S
C1660 O1645 1.249 1_556 S
C1660 C1653 1.492 . S
C1661 H1626 0.931 . S
C1661 C1639 1.420 . S
C1661 C1662 1.351 1_556 S
C1662 H1624 0.930 . S
C1662 C1630 1.423 . S
C1662 C1661 1.351 1_554 S
C1663 O1647 1.276 . S
C1663 O1650 1.235 . S
C1664 C1665 1.393 . S
C1664 C1668 1.395 . S
C1664 C1671 1.492 . S
C1665 C1664 1.393 . S
C1665 C1666 1.392 . S
C1665 H1676 0.930 . S
C1666 C1665 1.392 . S
C1666 C1667 1.386 . S
C1667 C1666 1.386 . S
C1667 C1669 1.395 . S
C1667 H1677 0.930 . S
C1668 C1664 1.395 . S
C1668 C1669 1.379 . S
C1668 H1678 0.930 . S
C1669 C1667 1.395 . S
C1669 C1668 1.379 . S
C1669 H1679 0.930 . S
C1670 O1648 1.264 . S
C1670 O1649 1.254 . S
C1671 Eu1607 2.848 1_655 S
C1671 O1646 1.257 1_655 S
C1671 O1651 1.249 . S
C1671 C1664 1.492 . S
H1672 C1655 0.930 . S
H1673 C1656 0.930 . S
H1674 C1657 0.930 . S
H1675 C1658 0.930 . S
H1676 C1665 0.930 . S
H1677 C1667 0.930 . S
H1678 C1668 0.930 . S
H1679 C1669 0.930 . S
H1680 C1698 0.951 . S
H1681 C1700 0.951 . S
H1682 C1702 0.950 . S
H1683 C1703 0.950 . S
H1684 C1705 0.955 . S
H1685 C1708 0.950 . S
H1686 C1709 0.950 . S
H1687 C1711 0.950 . S
H1688 C1712 0.950 . S
H1689 C1713 0.951 . S
H1690 C1715 0.951 . S
H1691 C1717 0.950 . S
H1692 C1718 0.950 . S
H1693 C1720 0.950 . S
H1694 C1723 0.950 . S
H1695 C1724 0.950 . S
H1696 C1726 0.950 . S
H1697 C1727 0.950 . S
C1698 H1680 0.951 . S
C1698 C1699 1.366 . S
C1698 C1700 1.388 . S
C1699 C1698 1.366 . S
C1699 C1703 1.385 . S
C1700 H1681 0.951 . S
C1700 C1698 1.388 . S
C1700 C1701 1.366 . S
C1701 C1700 1.366 . S
C1701 C1702 1.414 . S
C1701 C1704 1.499 . S
C1702 H1682 0.950 . S
C1702 C1701 1.414 . S
C1702 C1703 1.374 . S
C1703 H1683 0.950 . S
C1703 C1699 1.385 . S
C1703 C1702 1.374 . S
C1704 C1701 1.499 . S
C1704 C1705 1.363 1_556 S
C1704 C1706 1.389 . S
C1705 H1684 0.955 . S
C1705 C1704 1.363 1_554 S
C1705 C1721 1.382 . S
C1706 C1704 1.389 . S
C1706 C1707 1.524 . S
C1706 C1720 1.377 . S
C1707 C1706 1.524 . S
C1707 C1708 1.397 1_455 S
C1707 C1712 1.363 . S
C1708 H1685 0.950 . S
C1708 C1707 1.397 1_655 S
C1708 C1709 1.334 . S
C1709 H1686 0.950 . S
C1709 C1708 1.334 . S
C1709 C1710 1.287 . S
C1710 C1709 1.287 . S
C1710 C1711 1.524 1_655 S
C1710 H1729 0.913 . S
C1711 H1687 0.950 . S
C1711 C1710 1.524 1_455 S
C1711 C1712 1.415 . S
C1712 H1688 0.950 . S
C1712 C1707 1.363 . S
C1712 C1711 1.415 . S
C1713 H1689 0.951 . S
C1713 C1714 1.366 . S
C1713 C1715 1.388 . S
C1714 C1713 1.366 . S
C1714 C1718 1.385 1_554 S
C1715 H1690 0.951 . S
C1715 C1713 1.388 . S
C1715 C1716 1.366 . S
C1716 C1715 1.366 . S
C1716 C1717 1.414 1_554 S
C1716 C1719 1.499 1_554 S
C1717 H1691 0.950 . S
C1717 C1716 1.414 1_556 S
C1717 C1718 1.374 . S
C1718 H1692 0.950 . S
C1718 C1714 1.385 1_556 S
C1718 C1717 1.374 . S
C1719 C1716 1.499 1_556 S
C1719 C1720 1.373 . S
C1719 C1721 1.389 1_556 S
C1720 H1693 0.950 . S
C1720 C1706 1.377 . S
C1720 C1719 1.373 . S
C1721 C1705 1.382 . S
C1721 C1719 1.389 1_554 S
C1721 C1722 1.524 . S
C1722 C1721 1.524 . S
C1722 C1723 1.397 . S
C1722 C1727 1.363 . S
C1723 H1694 0.950 . S
C1723 C1722 1.397 . S
C1723 C1724 1.334 . S
C1724 H1695 0.950 . S
C1724 C1723 1.334 . S
C1724 C1725 1.287 . S
C1725 C1724 1.287 . S
C1725 C1726 1.524 . S
C1725 H1728 0.999 . S
C1726 H1696 0.950 . S
C1726 C1725 1.524 . S
C1726 C1727 1.415 . S
C1727 H1697 0.950 . S
C1727 C1722 1.363 . S
C1727 C1726 1.415 . S
H1728 C1725 0.999 . S
H1729 C1710 0.913 . S
H1730 C1748 0.951 . S
H1731 C1750 0.951 . S
H1732 C1752 0.950 . S
H1733 C1753 0.950 . S
H1734 C1755 0.950 . S
H1735 C1758 0.950 . S
H1736 C1759 0.950 . S
H1737 C1761 0.950 . S
H1738 C1762 0.950 . S
H1739 C1763 0.951 . S
H1740 C1765 0.951 . S
H1741 C1767 0.950 . S
H1742 C1768 0.950 . S
H1743 C1770 0.950 . S
H1744 C1773 0.950 . S
H1745 C1774 0.950 . S
H1746 C1776 0.950 . S
H1747 C1777 0.950 . S
C1748 H1730 0.951 . S
C1748 C1749 1.366 . S
C1748 C1750 1.388 . S
C1749 C1748 1.366 . S
C1749 C1753 1.385 . S
C1750 H1731 0.951 . S
C1750 C1748 1.388 . S
C1750 C1751 1.366 . S
C1751 C1750 1.366 . S
C1751 C1752 1.414 . S
C1751 C1754 1.499 . S
C1752 H1732 0.950 . S
C1752 C1751 1.414 . S
C1752 C1753 1.374 . S
C1753 H1733 0.950 . S
C1753 C1749 1.385 . S
C1753 C1752 1.374 . S
C1754 C1751 1.499 . S
C1754 C1755 1.373 . S
C1754 C1756 1.389 . S
C1755 H1734 0.950 . S
C1755 C1754 1.373 . S
C1755 C1771 1.377 . S
C1756 C1754 1.389 . S
C1756 C1757 1.524 . S
C1756 C1770 1.377 . S
C1757 C1756 1.524 . S
C1757 C1758 1.397 . S
C1757 C1762 1.363 . S
C1758 H1735 0.950 . S
C1758 C1757 1.397 . S
C1758 C1759 1.334 . S
C1759 H1736 0.950 . S
C1759 C1758 1.334 . S
C1759 C1760 1.287 . S
C1760 C1759 1.287 . S
C1760 C1761 1.524 . S
C1760 H1779 0.913 . S
C1761 H1737 0.950 . S
C1761 C1760 1.524 . S
C1761 C1762 1.415 . S
C1762 H1738 0.950 . S
C1762 C1757 1.363 . S
C1762 C1761 1.415 . S
C1763 H1739 0.951 . S
C1763 C1764 1.366 . S
C1763 C1765 1.388 . S
C1764 C1763 1.366 . S
C1764 C1768 1.385 . S
C1765 H1740 0.951 . S
C1765 C1763 1.388 . S
C1765 C1766 1.366 . S
C1766 C1765 1.366 . S
C1766 C1767 1.414 . S
C1766 C1769 1.499 . S
C1767 H1741 0.950 . S
C1767 C1766 1.414 . S
C1767 C1768 1.374 . S
C1768 H1742 0.950 . S
C1768 C1764 1.385 . S
C1768 C1767 1.374 . S
C1769 C1766 1.499 . S
C1769 C1770 1.373 . S
C1769 C1771 1.389 . S
C1770 H1743 0.950 . S
C1770 C1756 1.377 . S
C1770 C1769 1.373 . S
C1771 C1755 1.377 . S
C1771 C1769 1.389 . S
C1771 C1772 1.524 . S
C1772 C1771 1.524 . S
C1772 C1773 1.397 . S
C1772 C1777 1.363 . S
C1773 H1744 0.950 . S
C1773 C1772 1.397 . S
C1773 C1774 1.334 . S
C1774 H1745 0.950 . S
C1774 C1773 1.334 . S
C1774 C1775 1.287 . S
C1775 C1774 1.287 . S
C1775 C1776 1.524 . S
C1775 H1778 0.999 . S
C1776 H1746 0.950 . S
C1776 C1775 1.524 . S
C1776 C1777 1.415 . S
C1777 H1747 0.950 . S
C1777 C1772 1.363 . S
C1777 C1776 1.415 . S
H1778 C1775 0.999 . S
H1779 C1760 0.913 . S
H1780 C1798 0.951 . S
H1781 C1800 0.951 . S
H1782 C1802 0.950 . S
H1783 C1803 0.950 . S
H1784 C1805 0.950 . S
H1785 C1808 0.950 . S
H1786 C1809 0.950 . S
H1787 C1811 0.950 . S
H1788 C1812 0.950 . S
H1789 C1813 0.951 . S
H1790 C1815 0.951 . S
H1791 C1817 0.950 . S
H1792 C1818 0.950 . S
H1793 C1820 0.950 . S
H1794 C1823 0.950 . S
H1795 C1824 0.950 . S
H1796 C1826 0.950 . S
H1797 C1827 0.950 . S
C1798 H1780 0.951 . S
C1798 C1799 1.366 . S
C1798 C1800 1.388 . S
C1799 C1798 1.366 . S
C1799 C1803 1.385 . S
C1800 H1781 0.951 . S
C1800 C1798 1.388 . S
C1800 C1801 1.366 . S
C1801 C1800 1.366 . S
C1801 C1802 1.414 . S
C1801 C1804 1.499 . S
C1802 H1782 0.950 . S
C1802 C1801 1.414 . S
C1802 C1803 1.374 . S
C1803 H1783 0.950 . S
C1803 C1799 1.385 . S
C1803 C1802 1.374 . S
C1804 C1801 1.499 . S
C1804 C1805 1.373 . S
C1804 C1806 1.389 . S
C1805 H1784 0.950 . S
C1805 C1804 1.373 . S
C1805 C1821 1.377 . S
C1806 C1804 1.389 . S
C1806 C1807 1.524 . S
C1806 C1820 1.377 . S
C1807 C1806 1.524 . S
C1807 C1808 1.397 . S
C1807 C1812 1.363 . S
C1808 H1785 0.950 . S
C1808 C1807 1.397 . S
C1808 C1809 1.334 . S
C1809 H1786 0.950 . S
C1809 C1808 1.334 . S
C1809 C1810 1.287 . S
C1810 C1809 1.287 . S
C1810 C1811 1.524 . S
C1810 H1829 0.913 . S
C1811 H1787 0.950 . S
C1811 C1810 1.524 . S
C1811 C1812 1.415 . S
C1812 H1788 0.950 . S
C1812 C1807 1.363 . S
C1812 C1811 1.415 . S
C1813 H1789 0.951 . S
C1813 C1814 1.366 . S
C1813 C1815 1.388 . S
C1814 C1813 1.366 . S
C1814 C1818 1.385 . S
C1815 H1790 0.951 . S
C1815 C1813 1.388 . S
C1815 C1816 1.366 . S
C1816 C1815 1.366 . S
C1816 C1817 1.414 . S
C1816 C1819 1.499 . S
C1817 H1791 0.950 . S
C1817 C1816 1.414 . S
C1817 C1818 1.374 . S
C1818 H1792 0.950 . S
C1818 C1814 1.385 . S
C1818 C1817 1.374 . S
C1819 C1816 1.499 . S
C1819 C1820 1.373 . S
C1819 C1821 1.389 . S
C1820 H1793 0.950 . S
C1820 C1806 1.377 . S
C1820 C1819 1.373 . S
C1821 C1805 1.377 . S
C1821 C1819 1.389 . S
C1821 C1822 1.524 . S
C1822 C1821 1.524 . S
C1822 C1823 1.397 . S
C1822 C1827 1.363 . S
C1823 H1794 0.950 . S
C1823 C1822 1.397 . S
C1823 C1824 1.334 . S
C1824 H1795 0.950 . S
C1824 C1823 1.334 . S
C1824 C1825 1.287 . S
C1825 C1824 1.287 . S
C1825 C1826 1.524 . S
C1825 H1828 0.999 . S
C1826 H1796 0.950 . S
C1826 C1825 1.524 . S
C1826 C1827 1.415 . S
C1827 H1797 0.950 . S
C1827 C1822 1.363 . S
C1827 C1826 1.415 . S
H1828 C1825 0.999 . S
H1829 C1810 0.913 . S
H1830 C1848 0.951 . S
H1831 C1850 0.951 . S
H1832 C1852 0.950 . S
H1833 C1853 0.950 . S
H1834 C1855 0.950 . S
H1835 C1858 0.950 . S
H1836 C1859 0.950 . S
H1837 C1861 0.950 . S
H1838 C1862 0.950 . S
H1839 C1863 0.951 . S
H1840 C1865 0.951 . S
H1841 C1867 0.950 . S
H1842 C1868 0.950 . S
H1843 C1870 0.950 . S
H1844 C1873 0.950 . S
H1845 C1874 0.950 . S
H1846 C1876 0.950 . S
H1847 C1877 0.950 . S
C1848 H1830 0.951 . S
C1848 C1849 1.366 . S
C1848 C1850 1.388 . S
C1849 C1848 1.366 . S
C1849 C1853 1.385 . S
C1850 H1831 0.951 . S
C1850 C1848 1.388 . S
C1850 C1851 1.366 . S
C1851 C1850 1.366 . S
C1851 C1852 1.414 . S
C1851 C1854 1.499 . S
C1852 H1832 0.950 . S
C1852 C1851 1.414 . S
C1852 C1853 1.374 . S
C1853 H1833 0.950 . S
C1853 C1849 1.385 . S
C1853 C1852 1.374 . S
C1854 C1851 1.499 . S
C1854 C1855 1.373 . S
C1854 C1856 1.389 . S
C1855 H1834 0.950 . S
C1855 C1854 1.373 . S
C1855 C1871 1.377 . S
C1856 C1854 1.389 . S
C1856 C1857 1.524 . S
C1856 C1870 1.377 . S
C1857 C1856 1.524 . S
C1857 C1858 1.397 . S
C1857 C1862 1.363 . S
C1858 H1835 0.950 . S
C1858 C1857 1.397 . S
C1858 C1859 1.334 . S
C1859 H1836 0.950 . S
C1859 C1858 1.334 . S
C1859 C1860 1.287 . S
C1860 C1859 1.287 . S
C1860 C1861 1.524 . S
C1860 H1879 0.913 . S
C1861 H1837 0.950 . S
C1861 C1860 1.524 . S
C1861 C1862 1.415 . S
C1862 H1838 0.950 . S
C1862 C1857 1.363 . S
C1862 C1861 1.415 . S
C1863 H1839 0.951 . S
C1863 C1864 1.366 . S
C1863 C1865 1.388 . S
C1864 C1863 1.366 . S
C1864 C1868 1.385 . S
C1865 H1840 0.951 . S
C1865 C1863 1.388 . S
C1865 C1866 1.366 . S
C1866 C1865 1.366 . S
C1866 C1867 1.414 . S
C1866 C1869 1.499 . S
C1867 H1841 0.950 . S
C1867 C1866 1.414 . S
C1867 C1868 1.374 . S
C1868 H1842 0.950 . S
C1868 C1864 1.385 . S
C1868 C1867 1.374 . S
C1869 C1866 1.499 . S
C1869 C1870 1.373 . S
C1869 C1871 1.389 . S
C1870 H1843 0.950 . S
C1870 C1856 1.377 . S
C1870 C1869 1.373 . S
C1871 C1855 1.377 . S
C1871 C1869 1.389 . S
C1871 C1872 1.524 . S
C1872 C1871 1.524 . S
C1872 C1873 1.397 . S
C1872 C1877 1.363 . S
C1873 H1844 0.950 . S
C1873 C1872 1.397 . S
C1873 C1874 1.334 . S
C1874 H1845 0.950 . S
C1874 C1873 1.334 . S
C1874 C1875 1.287 . S
C1875 C1874 1.287 . S
C1875 C1876 1.524 . S
C1875 H1878 0.999 . S
C1876 H1846 0.950 . S
C1876 C1875 1.524 . S
C1876 C1877 1.415 . S
C1877 H1847 0.950 . S
C1877 C1872 1.363 . S
C1877 C1876 1.415 . S
H1878 C1875 0.999 . S
H1879 C1860 0.913 . S
H1880 C1898 0.951 . S
H1881 C1900 0.951 . S
H1882 C1902 0.950 . S
H1883 C1903 0.950 1_655 S
H1884 C1905 0.950 1_655 S
H1885 C1908 0.950 . S
H1886 C1909 0.950 . S
H1887 C1911 0.950 . S
H1888 C1912 0.950 . S
H1889 C1913 0.951 . S
H1890 C1915 0.951 . S
H1891 C1917 0.950 . S
H1892 C1918 0.950 . S
H1893 C1920 0.950 . S
H1894 C1923 0.950 . S
H1895 C1924 0.950 . S
H1896 C1926 0.950 . S
H1897 C1927 0.950 . S
C1898 H1880 0.951 . S
C1898 C1899 1.366 . S
C1898 C1900 1.388 . S
C1899 C1898 1.366 . S
C1899 C1903 1.385 . S
C1900 H1881 0.951 . S
C1900 C1898 1.388 . S
C1900 C1901 1.366 . S
C1901 C1900 1.366 . S
C1901 C1902 1.414 . S
C1901 C1904 1.499 . S
C1902 H1882 0.950 . S
C1902 C1901 1.414 . S
C1902 C1903 1.374 . S
C1903 H1883 0.950 1_455 S
C1903 C1899 1.385 . S
C1903 C1902 1.374 . S
C1904 C1901 1.499 . S
C1904 C1905 1.373 . S
C1904 C1906 1.389 . S
C1905 H1884 0.950 1_455 S
C1905 C1904 1.373 . S
C1905 C1921 1.377 . S
C1906 C1904 1.389 . S
C1906 C1907 1.524 . S
C1906 C1920 1.377 . S
C1907 C1906 1.524 . S
C1907 C1908 1.397 . S
C1907 C1912 1.363 . S
C1908 H1885 0.950 . S
C1908 C1907 1.397 . S
C1908 C1909 1.334 . S
C1909 H1886 0.950 . S
C1909 C1908 1.334 . S
C1909 C1910 1.287 . S
C1910 C1909 1.287 . S
C1910 C1911 1.524 . S
C1910 H1929 0.913 . S
C1911 H1887 0.950 . S
C1911 C1910 1.524 . S
C1911 C1912 1.415 . S
C1912 H1888 0.950 . S
C1912 C1907 1.363 . S
C1912 C1911 1.415 . S
C1913 H1889 0.951 . S
C1913 C1914 1.366 . S
C1913 C1915 1.388 . S
C1914 C1913 1.366 . S
C1914 C1918 1.385 . S
C1915 H1890 0.951 . S
C1915 C1913 1.388 . S
C1915 C1916 1.366 . S
C1916 C1915 1.366 . S
C1916 C1917 1.414 . S
C1916 C1919 1.499 . S
C1917 H1891 0.950 . S
C1917 C1916 1.414 . S
C1917 C1918 1.374 . S
C1918 H1892 0.950 . S
C1918 C1914 1.385 . S
C1918 C1917 1.374 . S
C1919 C1916 1.499 . S
C1919 C1920 1.373 . S
C1919 C1921 1.389 . S
C1920 H1893 0.950 . S
C1920 C1906 1.377 . S
C1920 C1919 1.373 . S
C1921 C1905 1.377 . S
C1921 C1919 1.389 . S
C1921 C1922 1.524 1_455 S
C1922 C1921 1.524 1_655 S
C1922 C1923 1.397 . S
C1922 C1927 1.363 . S
C1923 H1894 0.950 . S
C1923 C1922 1.397 . S
C1923 C1924 1.334 . S
C1924 H1895 0.950 . S
C1924 C1923 1.334 . S
C1924 C1925 1.287 . S
C1925 C1924 1.287 . S
C1925 C1926 1.524 . S
C1925 H1928 0.999 . S
C1926 H1896 0.950 . S
C1926 C1925 1.524 . S
C1926 C1927 1.415 . S
C1927 H1897 0.950 . S
C1927 C1922 1.363 . S
C1927 C1926 1.415 . S
H1928 C1925 0.999 . S
H1929 C1910 0.913 . S
H1930 C1948 0.951 . S
H1931 C1950 0.951 . S
H1932 C1952 0.950 . S
H1933 C1953 0.950 . S
H1934 C1955 0.950 . S
H1935 C1958 0.950 . S
H1936 C1959 0.950 . S
H1937 C1961 0.950 . S
H1938 C1962 0.950 . S
H1939 C1963 0.951 . S
H1940 C1965 0.951 . S
H1941 C1967 0.950 . S
H1942 C1968 0.950 . S
H1943 C1970 0.950 . S
H1944 C1973 0.950 . S
H1945 C1974 0.950 . S
H1946 C1976 0.950 . S
H1947 C1977 0.950 . S
C1948 H1930 0.951 . S
C1948 C1949 1.366 . S
C1948 C1950 1.388 . S
C1949 C1948 1.366 . S
C1949 C1953 1.385 . S
C1950 H1931 0.951 . S
C1950 C1948 1.388 . S
C1950 C1951 1.366 . S
C1951 C1950 1.366 . S
C1951 C1952 1.414 . S
C1951 C1954 1.499 . S
C1952 H1932 0.950 . S
C1952 C1951 1.414 . S
C1952 C1953 1.374 . S
C1953 H1933 0.950 . S
C1953 C1949 1.385 . S
C1953 C1952 1.374 . S
C1954 C1951 1.499 . S
C1954 C1955 1.373 . S
C1954 C1956 1.389 . S
C1955 H1934 0.950 . S
C1955 C1954 1.373 . S
C1955 C1971 1.377 . S
C1956 C1954 1.389 . S
C1956 C1957 1.524 . S
C1956 C1970 1.377 . S
C1957 C1956 1.524 . S
C1957 C1958 1.397 . S
C1957 C1962 1.363 . S
C1958 H1935 0.950 . S
C1958 C1957 1.397 . S
C1958 C1959 1.334 . S
C1959 H1936 0.950 . S
C1959 C1958 1.334 . S
C1959 C1960 1.287 . S
C1960 C1959 1.287 . S
C1960 C1961 1.524 . S
C1960 H1979 0.913 . S
C1961 H1937 0.950 . S
C1961 C1960 1.524 . S
C1961 C1962 1.415 . S
C1962 H1938 0.950 . S
C1962 C1957 1.363 . S
C1962 C1961 1.415 . S
C1963 H1939 0.951 . S
C1963 C1964 1.366 . S
C1963 C1965 1.388 . S
C1964 C1963 1.366 . S
C1964 C1968 1.385 . S
C1965 H1940 0.951 . S
C1965 C1963 1.388 . S
C1965 C1966 1.366 . S
C1966 C1965 1.366 . S
C1966 C1967 1.414 . S
C1966 C1969 1.499 . S
C1967 H1941 0.950 . S
C1967 C1966 1.414 . S
C1967 C1968 1.374 . S
C1968 H1942 0.950 . S
C1968 C1964 1.385 . S
C1968 C1967 1.374 . S
C1969 C1966 1.499 . S
C1969 C1970 1.373 . S
C1969 C1971 1.389 . S
C1970 H1943 0.950 . S
C1970 C1956 1.377 . S
C1970 C1969 1.373 . S
C1971 C1955 1.377 . S
C1971 C1969 1.389 . S
C1971 C1972 1.524 . S
C1972 C1971 1.524 . S
C1972 C1973 1.397 . S
C1972 C1977 1.363 . S
C1973 H1944 0.950 . S
C1973 C1972 1.397 . S
C1973 C1974 1.334 . S
C1974 H1945 0.950 . S
C1974 C1973 1.334 . S
C1974 C1975 1.287 . S
C1975 C1974 1.287 . S
C1975 C1976 1.524 . S
C1975 H1978 0.999 . S
C1976 H1946 0.950 . S
C1976 C1975 1.524 . S
C1976 C1977 1.415 . S
C1977 H1947 0.950 . S
C1977 C1972 1.363 . S
C1977 C1976 1.415 . S
H1978 C1975 0.999 . S
H1979 C1960 0.913 . S
H1980 C1998 0.951 . S
H1981 C2000 0.951 . S
H1982 C2002 0.950 . S
H1983 C2003 0.950 . S
H1984 C2005 0.950 . S
H1985 C2008 0.950 . S
H1986 C2009 0.950 . S
H1987 C2011 0.950 . S
H1988 C2012 0.950 . S
H1989 C2013 0.951 . S
H1990 C2015 0.951 . S
H1991 C2017 0.950 . S
H1992 C2018 0.950 . S
H1993 C2020 0.950 . S
H1994 C2023 0.950 . S
H1995 C2024 0.950 . S
H1996 C2026 0.950 . S
H1997 C2027 0.950 . S
C1998 H1980 0.951 . S
C1998 C1999 1.366 . S
C1998 C2000 1.388 . S
C1999 C1998 1.366 . S
C1999 C2003 1.385 . S
C2000 H1981 0.951 . S
C2000 C1998 1.388 . S
C2000 C2001 1.366 . S
C2001 C2000 1.366 . S
C2001 C2002 1.414 . S
C2001 C2004 1.499 . S
C2002 H1982 0.950 . S
C2002 C2001 1.414 . S
C2002 C2003 1.374 . S
C2003 H1983 0.950 . S
C2003 C1999 1.385 . S
C2003 C2002 1.374 . S
C2004 C2001 1.499 . S
C2004 C2005 1.373 . S
C2004 C2006 1.389 . S
C2005 H1984 0.950 . S
C2005 C2004 1.373 . S
C2005 C2021 1.377 . S
C2006 C2004 1.389 . S
C2006 C2007 1.524 . S
C2006 C2020 1.377 . S
C2007 C2006 1.524 . S
C2007 C2008 1.397 . S
C2007 C2012 1.363 . S
C2008 H1985 0.950 . S
C2008 C2007 1.397 . S
C2008 C2009 1.334 . S
C2009 H1986 0.950 . S
C2009 C2008 1.334 . S
C2009 C2010 1.287 . S
C2010 C2009 1.287 . S
C2010 C2011 1.524 . S
C2010 H2029 0.913 . S
C2011 H1987 0.950 . S
C2011 C2010 1.524 . S
C2011 C2012 1.415 . S
C2012 H1988 0.950 . S
C2012 C2007 1.363 . S
C2012 C2011 1.415 . S
C2013 H1989 0.951 . S
C2013 C2014 1.366 . S
C2013 C2015 1.388 . S
C2014 C2013 1.366 . S
C2014 C2018 1.385 . S
C2015 H1990 0.951 . S
C2015 C2013 1.388 . S
C2015 C2016 1.366 . S
C2016 C2015 1.366 . S
C2016 C2017 1.414 . S
C2016 C2019 1.499 . S
C2017 H1991 0.950 . S
C2017 C2016 1.414 . S
C2017 C2018 1.374 . S
C2018 H1992 0.950 . S
C2018 C2014 1.385 . S
C2018 C2017 1.374 . S
C2019 C2016 1.499 . S
C2019 C2020 1.373 . S
C2019 C2021 1.389 . S
C2020 H1993 0.950 . S
C2020 C2006 1.377 . S
C2020 C2019 1.373 . S
C2021 C2005 1.377 . S
C2021 C2019 1.389 . S
C2021 C2022 1.524 . S
C2022 C2021 1.524 . S
C2022 C2023 1.397 . S
C2022 C2027 1.363 . S
C2023 H1994 0.950 . S
C2023 C2022 1.397 . S
C2023 C2024 1.334 . S
C2024 H1995 0.950 . S
C2024 C2023 1.334 . S
C2024 C2025 1.287 . S
C2025 C2024 1.287 . S
C2025 C2026 1.524 . S
C2025 H2028 0.999 . S
C2026 H1996 0.950 . S
C2026 C2025 1.524 . S
C2026 C2027 1.415 . S
C2027 H1997 0.950 . S
C2027 C2022 1.363 . S
C2027 C2026 1.415 . S
H2028 C2025 0.999 . S
H2029 C2010 0.913 . S
H2030 C2048 0.951 . S
H2031 C2050 0.951 . S
H2032 C2052 0.950 . S
H2033 C2053 0.950 . S
H2034 C2055 0.950 . S
H2035 C2058 0.950 . S
H2036 C2059 0.950 . S
H2037 C2061 0.950 . S
H2038 C2062 0.950 . S
H2039 C2063 0.951 . S
H2040 C2065 0.951 . S
H2041 C2067 0.950 . S
H2042 C2068 0.950 . S
H2043 C2070 0.950 . S
H2044 C2073 0.950 . S
H2045 C2074 0.950 . S
H2046 C2076 0.950 . S
H2047 C2077 0.950 . S
C2048 H2030 0.951 . S
C2048 C2049 1.366 . S
C2048 C2050 1.388 . S
C2049 C2048 1.366 . S
C2049 C2053 1.385 . S
C2050 H2031 0.951 . S
C2050 C2048 1.388 . S
C2050 C2051 1.366 . S
C2051 C2050 1.366 . S
C2051 C2052 1.414 . S
C2051 C2054 1.499 . S
C2052 H2032 0.950 . S
C2052 C2051 1.414 . S
C2052 C2053 1.374 . S
C2053 H2033 0.950 . S
C2053 C2049 1.385 . S
C2053 C2052 1.374 . S
C2054 C2051 1.499 . S
C2054 C2055 1.373 . S
C2054 C2056 1.389 . S
C2055 H2034 0.950 . S
C2055 C2054 1.373 . S
C2055 C2071 1.377 . S
C2056 C2054 1.389 . S
C2056 C2057 1.524 . S
C2056 C2070 1.377 . S
C2057 C2056 1.524 . S
C2057 C2058 1.397 . S
C2057 C2062 1.363 . S
C2058 H2035 0.950 . S
C2058 C2057 1.397 . S
C2058 C2059 1.334 . S
C2059 H2036 0.950 . S
C2059 C2058 1.334 . S
C2059 C2060 1.287 . S
C2060 C2059 1.287 . S
C2060 C2061 1.524 . S
C2060 H2079 0.913 . S
C2061 H2037 0.950 . S
C2061 C2060 1.524 . S
C2061 C2062 1.415 . S
C2062 H2038 0.950 . S
C2062 C2057 1.363 . S
C2062 C2061 1.415 . S
C2063 H2039 0.951 . S
C2063 C2064 1.366 . S
C2063 C2065 1.388 . S
C2064 C2063 1.366 . S
C2064 C2068 1.385 . S
C2065 H2040 0.951 . S
C2065 C2063 1.388 . S
C2065 C2066 1.366 . S
C2066 C2065 1.366 . S
C2066 C2067 1.414 . S
C2066 C2069 1.499 . S
C2067 H2041 0.950 . S
C2067 C2066 1.414 . S
C2067 C2068 1.374 . S
C2068 H2042 0.950 . S
C2068 C2064 1.385 . S
C2068 C2067 1.374 . S
C2069 C2066 1.499 . S
C2069 C2070 1.373 . S
C2069 C2071 1.389 . S
C2070 H2043 0.950 . S
C2070 C2056 1.377 . S
C2070 C2069 1.373 . S
C2071 C2055 1.377 . S
C2071 C2069 1.389 . S
C2071 C2072 1.524 . S
C2072 C2071 1.524 . S
C2072 C2073 1.397 . S
C2072 C2077 1.363 . S
C2073 H2044 0.950 . S
C2073 C2072 1.397 . S
C2073 C2074 1.334 . S
C2074 H2045 0.950 . S
C2074 C2073 1.334 . S
C2074 C2075 1.287 . S
C2075 C2074 1.287 . S
C2075 C2076 1.524 . S
C2075 H2078 0.999 . S
C2076 H2046 0.950 . S
C2076 C2075 1.524 . S
C2076 C2077 1.415 . S
C2077 H2047 0.950 . S
C2077 C2072 1.363 . S
C2077 C2076 1.415 . S
H2078 C2075 0.999 . S
H2079 C2060 0.913 . S
H2080 C2098 0.951 . S
H2081 C2100 0.951 . S
H2082 C2102 0.950 1_455 S
H2083 C2103 0.950 . S
H2084 C2105 0.950 . S
H2085 C2108 0.950 . S
H2086 C2109 0.950 . S
H2087 C2111 0.950 1_565 S
H2088 C2112 0.950 . S
H2089 C2113 0.951 . S
H2090 C2115 0.951 . S
H2091 C2117 0.950 1_655 S
H2092 C2118 0.950 . S
H2093 C2120 0.950 . S
H2094 C2123 0.950 . S
H2095 C2124 0.950 . S
H2096 C2126 0.950 . S
H2097 C2127 0.950 . S
C2098 H2080 0.951 . S
C2098 C2099 1.366 . S
C2098 C2100 1.388 . S
C2099 C2098 1.366 . S
C2099 C2103 1.385 . S
C2100 H2081 0.951 . S
C2100 C2098 1.388 . S
C2100 C2101 1.366 . S
C2101 C2100 1.366 . S
C2101 C2102 1.414 . S
C2101 C2104 1.499 . S
C2102 H2082 0.950 1_655 S
C2102 C2101 1.414 . S
C2102 C2103 1.374 . S
C2103 H2083 0.950 . S
C2103 C2099 1.385 . S
C2103 C2102 1.374 . S
C2104 C2101 1.499 . S
C2104 C2105 1.373 1_655 S
C2104 C2106 1.389 . S
C2105 H2084 0.950 . S
C2105 C2104 1.373 1_455 S
C2105 C2121 1.377 . S
C2106 C2104 1.389 . S
C2106 C2107 1.524 . S
C2106 C2120 1.377 . S
C2107 C2106 1.524 . S
C2107 C2108 1.397 . S
C2107 C2112 1.363 . S
C2108 H2085 0.950 . S
C2108 C2107 1.397 . S
C2108 C2109 1.334 . S
C2109 H2086 0.950 . S
C2109 C2108 1.334 . S
C2109 C2110 1.287 1_545 S
C2110 C2109 1.287 1_565 S
C2110 C2111 1.524 1_565 S
C2110 H2129 0.913 . S
C2111 H2087 0.950 1_545 S
C2111 C2110 1.524 1_545 S
C2111 C2112 1.415 . S
C2112 H2088 0.950 . S
C2112 C2107 1.363 . S
C2112 C2111 1.415 . S
C2113 H2089 0.951 . S
C2113 C2114 1.366 . S
C2113 C2115 1.388 . S
C2114 C2113 1.366 . S
C2114 C2118 1.385 . S
C2115 H2090 0.951 . S
C2115 C2113 1.388 . S
C2115 C2116 1.366 . S
C2116 C2115 1.366 . S
C2116 C2117 1.414 . S
C2116 C2119 1.499 . S
C2117 H2091 0.950 1_455 S
C2117 C2116 1.414 . S
C2117 C2118 1.374 . S
C2118 H2092 0.950 . S
C2118 C2114 1.385 . S
C2118 C2117 1.374 . S
C2119 C2116 1.499 . S
C2119 C2120 1.373 1_455 S
C2119 C2121 1.389 . S
C2120 H2093 0.950 . S
C2120 C2106 1.377 . S
C2120 C2119 1.373 1_655 S
C2121 C2105 1.377 . S
C2121 C2119 1.389 . S
C2121 C2122 1.524 . S
C2122 C2121 1.524 . S
C2122 C2123 1.397 . S
C2122 C2127 1.363 . S
C2123 H2094 0.950 . S
C2123 C2122 1.397 . S
C2123 C2124 1.334 . S
C2124 H2095 0.950 . S
C2124 C2123 1.334 . S
C2124 C2125 1.287 . S
C2125 C2124 1.287 . S
C2125 C2126 1.524 . S
C2125 H2128 0.999 . S
C2126 H2096 0.950 . S
C2126 C2125 1.524 . S
C2126 C2127 1.415 . S
C2127 H2097 0.950 . S
C2127 C2122 1.363 . S
C2127 C2126 1.415 . S
H2128 C2125 0.999 . S
H2129 C2110 0.913 . S
H2130 C2148 0.951 . S
H2131 C2150 0.951 . S
H2132 C2152 0.950 . S
H2133 C2153 0.950 . S
H2134 C2155 0.950 . S
H2135 C2158 0.950 . S
H2136 C2159 0.950 . S
H2137 C2161 0.950 . S
H2138 C2162 0.950 . S
H2139 C2163 0.951 . S
H2140 C2165 0.951 . S
H2141 C2167 0.950 . S
H2142 C2168 0.950 . S
H2143 C2170 0.950 . S
H2144 C2173 0.950 . S
H2145 C2174 0.950 . S
H2146 C2176 0.950 . S
H2147 C2177 0.950 . S
C2148 H2130 0.951 . S
C2148 C2149 1.366 . S
C2148 C2150 1.388 . S
C2149 C2148 1.366 . S
C2149 C2153 1.385 . S
C2150 H2131 0.951 . S
C2150 C2148 1.388 . S
C2150 C2151 1.366 . S
C2151 C2150 1.366 . S
C2151 C2152 1.414 . S
C2151 C2154 1.499 . S
C2152 H2132 0.950 . S
C2152 C2151 1.414 . S
C2152 C2153 1.374 . S
C2153 H2133 0.950 . S
C2153 C2149 1.385 . S
C2153 C2152 1.374 . S
C2154 C2151 1.499 . S
C2154 C2155 1.373 . S
C2154 C2156 1.389 . S
C2155 H2134 0.950 . S
C2155 C2154 1.373 . S
C2155 C2171 1.377 . S
C2156 C2154 1.389 . S
C2156 C2157 1.524 . S
C2156 C2170 1.377 . S
C2157 C2156 1.524 . S
C2157 C2158 1.397 . S
C2157 C2162 1.363 . S
C2158 H2135 0.950 . S
C2158 C2157 1.397 . S
C2158 C2159 1.334 . S
C2159 H2136 0.950 . S
C2159 C2158 1.334 . S
C2159 C2160 1.287 . S
C2160 C2159 1.287 . S
C2160 C2161 1.524 . S
C2160 H2179 0.913 . S
C2161 H2137 0.950 . S
C2161 C2160 1.524 . S
C2161 C2162 1.415 . S
C2162 H2138 0.950 . S
C2162 C2157 1.363 . S
C2162 C2161 1.415 . S
C2163 H2139 0.951 . S
C2163 C2164 1.366 . S
C2163 C2165 1.388 . S
C2164 C2163 1.366 . S
C2164 C2168 1.385 . S
C2165 H2140 0.951 . S
C2165 C2163 1.388 . S
C2165 C2166 1.366 . S
C2166 C2165 1.366 . S
C2166 C2167 1.414 . S
C2166 C2169 1.499 . S
C2167 H2141 0.950 . S
C2167 C2166 1.414 . S
C2167 C2168 1.374 . S
C2168 H2142 0.950 . S
C2168 C2164 1.385 . S
C2168 C2167 1.374 . S
C2169 C2166 1.499 . S
C2169 C2170 1.373 . S
C2169 C2171 1.389 . S
C2170 H2143 0.950 . S
C2170 C2156 1.377 . S
C2170 C2169 1.373 . S
C2171 C2155 1.377 . S
C2171 C2169 1.389 . S
C2171 C2172 1.524 . S
C2172 C2171 1.524 . S
C2172 C2173 1.397 . S
C2172 C2177 1.363 . S
C2173 H2144 0.950 . S
C2173 C2172 1.397 . S
C2173 C2174 1.334 . S
C2174 H2145 0.950 . S
C2174 C2173 1.334 . S
C2174 C2175 1.287 . S
C2175 C2174 1.287 . S
C2175 C2176 1.524 . S
C2175 H2178 0.999 . S
C2176 H2146 0.950 . S
C2176 C2175 1.524 . S
C2176 C2177 1.415 . S
C2177 H2147 0.950 . S
C2177 C2172 1.363 . S
C2177 C2176 1.415 . S
H2178 C2175 0.999 . S
H2179 C2160 0.913 . S
H2180 C2198 0.951 . S
H2181 C2200 0.951 . S
H2182 C2202 0.950 . S
H2183 C2203 0.950 . S
H2184 C2205 0.950 . S
H2185 C2208 0.950 . S
H2186 C2209 0.950 1_565 S
H2187 C2211 0.950 . S
H2188 C2212 0.950 . S
H2189 C2213 0.951 . S
H2190 C2215 0.951 . S
H2191 C2217 0.950 . S
H2192 C2218 0.950 . S
H2193 C2220 0.950 . S
H2194 C2223 0.950 . S
H2195 C2224 0.950 . S
H2196 C2226 0.950 . S
H2197 C2227 0.950 . S
C2198 H2180 0.951 . S
C2198 C2199 1.366 . S
C2198 C2200 1.388 . S
C2199 C2198 1.366 . S
C2199 C2203 1.385 . S
C2200 H2181 0.951 . S
C2200 C2198 1.388 . S
C2200 C2201 1.366 . S
C2201 C2200 1.366 . S
C2201 C2202 1.414 . S
C2201 C2204 1.499 . S
C2202 H2182 0.950 . S
C2202 C2201 1.414 . S
C2202 C2203 1.374 . S
C2203 H2183 0.950 . S
C2203 C2199 1.385 . S
C2203 C2202 1.374 . S
C2204 C2201 1.499 . S
C2204 C2205 1.373 . S
C2204 C2206 1.389 . S
C2205 H2184 0.950 . S
C2205 C2204 1.373 . S
C2205 C2221 1.377 . S
C2206 C2204 1.389 . S
C2206 C2207 1.524 . S
C2206 C2220 1.377 . S
C2207 C2206 1.524 . S
C2207 C2208 1.397 . S
C2207 C2212 1.363 . S
C2208 H2185 0.950 . S
C2208 C2207 1.397 . S
C2208 C2209 1.334 . S
C2209 H2186 0.950 1_545 S
C2209 C2208 1.334 . S
C2209 C2210 1.287 . S
C2210 C2209 1.287 . S
C2210 C2211 1.524 . S
C2210 H2229 0.913 . S
C2211 H2187 0.950 . S
C2211 C2210 1.524 . S
C2211 C2212 1.415 . S
C2212 H2188 0.950 . S
C2212 C2207 1.363 . S
C2212 C2211 1.415 . S
C2213 H2189 0.951 . S
C2213 C2214 1.366 . S
C2213 C2215 1.388 . S
C2214 C2213 1.366 . S
C2214 C2218 1.385 . S
C2215 H2190 0.951 . S
C2215 C2213 1.388 . S
C2215 C2216 1.366 . S
C2216 C2215 1.366 . S
C2216 C2217 1.414 . S
C2216 C2219 1.499 . S
C2217 H2191 0.950 . S
C2217 C2216 1.414 . S
C2217 C2218 1.374 . S
C2218 H2192 0.950 . S
C2218 C2214 1.385 . S
C2218 C2217 1.374 . S
C2219 C2216 1.499 . S
C2219 C2220 1.373 . S
C2219 C2221 1.389 . S
C2220 H2193 0.950 . S
C2220 C2206 1.377 . S
C2220 C2219 1.373 . S
C2221 C2205 1.377 . S
C2221 C2219 1.389 . S
C2221 C2222 1.524 . S
C2222 C2221 1.524 . S
C2222 C2223 1.397 . S
C2222 C2227 1.363 . S
C2223 H2194 0.950 . S
C2223 C2222 1.397 . S
C2223 C2224 1.334 . S
C2224 H2195 0.950 . S
C2224 C2223 1.334 . S
C2224 C2225 1.287 . S
C2225 C2224 1.287 . S
C2225 C2226 1.524 . S
C2225 H2228 0.999 . S
C2226 H2196 0.950 . S
C2226 C2225 1.524 . S
C2226 C2227 1.415 . S
C2227 H2197 0.950 . S
C2227 C2222 1.363 . S
C2227 C2226 1.415 . S
H2228 C2225 0.999 . S
H2229 C2210 0.913 . S
H2230 C2248 0.951 . S
H2231 C2250 0.951 . S
H2232 C2252 0.950 . S
H2233 C2253 0.950 . S
H2234 C2255 0.950 . S
H2235 C2258 0.950 . S
H2236 C2259 0.950 . S
H2237 C2261 0.950 . S
H2238 C2262 0.950 . S
H2239 C2263 0.951 . S
H2240 C2265 0.951 . S
H2241 C2267 0.950 . S
H2242 C2268 0.950 . S
H2243 C2270 0.950 . S
H2244 C2273 0.950 . S
H2245 C2274 0.950 . S
H2246 C2276 0.950 . S
H2247 C2277 0.950 . S
C2248 H2230 0.951 . S
C2248 C2249 1.366 . S
C2248 C2250 1.388 . S
C2249 C2248 1.366 . S
C2249 C2253 1.385 . S
C2250 H2231 0.951 . S
C2250 C2248 1.388 . S
C2250 C2251 1.366 . S
C2251 C2250 1.366 . S
C2251 C2252 1.414 . S
C2251 C2254 1.499 . S
C2252 H2232 0.950 . S
C2252 C2251 1.414 . S
C2252 C2253 1.374 . S
C2253 H2233 0.950 . S
C2253 C2249 1.385 . S
C2253 C2252 1.374 . S
C2254 C2251 1.499 . S
C2254 C2255 1.373 . S
C2254 C2256 1.389 . S
C2255 H2234 0.950 . S
C2255 C2254 1.373 . S
C2255 C2271 1.377 . S
C2256 C2254 1.389 . S
C2256 C2257 1.524 . S
C2256 C2270 1.377 . S
C2257 C2256 1.524 . S
C2257 C2258 1.397 . S
C2257 C2262 1.363 . S
C2258 H2235 0.950 . S
C2258 C2257 1.397 . S
C2258 C2259 1.334 . S
C2259 H2236 0.950 . S
C2259 C2258 1.334 . S
C2259 C2260 1.287 . S
C2260 C2259 1.287 . S
C2260 C2261 1.524 . S
C2260 H2279 0.913 . S
C2261 H2237 0.950 . S
C2261 C2260 1.524 . S
C2261 C2262 1.415 . S
C2262 H2238 0.950 . S
C2262 C2257 1.363 . S
C2262 C2261 1.415 . S
C2263 H2239 0.951 . S
C2263 C2264 1.366 . S
C2263 C2265 1.388 . S
C2264 C2263 1.366 . S
C2264 C2268 1.385 . S
C2265 H2240 0.951 . S
C2265 C2263 1.388 . S
C2265 C2266 1.366 . S
C2266 C2265 1.366 . S
C2266 C2267 1.414 . S
C2266 C2269 1.499 . S
C2267 H2241 0.950 . S
C2267 C2266 1.414 . S
C2267 C2268 1.374 . S
C2268 H2242 0.950 . S
C2268 C2264 1.385 . S
C2268 C2267 1.374 . S
C2269 C2266 1.499 . S
C2269 C2270 1.373 . S
C2269 C2271 1.389 . S
C2270 H2243 0.950 . S
C2270 C2256 1.377 . S
C2270 C2269 1.373 . S
C2271 C2255 1.377 . S
C2271 C2269 1.389 . S
C2271 C2272 1.524 . S
C2272 C2271 1.524 . S
C2272 C2273 1.397 . S
C2272 C2277 1.363 . S
C2273 H2244 0.950 . S
C2273 C2272 1.397 . S
C2273 C2274 1.334 . S
C2274 H2245 0.950 . S
C2274 C2273 1.334 . S
C2274 C2275 1.287 . S
C2275 C2274 1.287 . S
C2275 C2276 1.524 . S
C2275 H2278 0.999 . S
C2276 H2246 0.950 . S
C2276 C2275 1.524 . S
C2276 C2277 1.415 . S
C2277 H2247 0.950 . S
C2277 C2272 1.363 . S
C2277 C2276 1.415 . S
H2278 C2275 0.999 . S
H2279 C2260 0.913 . S
H2280 C2298 0.951 . S
H2281 C2300 0.951 . S
H2282 C2302 0.950 1_455 S
H2283 C2303 0.950 . S
H2284 C2305 0.950 . S
H2285 C2308 0.950 . S
H2286 C2309 0.950 . S
H2287 C2311 0.950 . S
H2288 C2312 0.950 . S
H2289 C2313 0.951 . S
H2290 C2315 0.951 . S
H2291 C2317 0.950 1_655 S
H2292 C2318 0.950 . S
H2293 C2320 0.950 . S
H2294 C2323 0.950 . S
H2295 C2324 0.950 1_565 S
H2296 C2326 0.950 . S
H2297 C2327 0.950 . S
C2298 H2280 0.951 . S
C2298 C2299 1.366 . S
C2298 C2300 1.388 . S
C2299 C2298 1.366 . S
C2299 C2303 1.385 . S
C2300 H2281 0.951 . S
C2300 C2298 1.388 . S
C2300 C2301 1.366 . S
C2301 C2300 1.366 . S
C2301 C2302 1.414 . S
C2301 C2304 1.499 . S
C2302 H2282 0.950 1_655 S
C2302 C2301 1.414 . S
C2302 C2303 1.374 . S
C2303 H2283 0.950 . S
C2303 C2299 1.385 . S
C2303 C2302 1.374 . S
C2304 C2301 1.499 . S
C2304 C2305 1.373 1_655 S
C2304 C2306 1.389 . S
C2305 H2284 0.950 . S
C2305 C2304 1.373 1_455 S
C2305 C2321 1.377 . S
C2306 C2304 1.389 . S
C2306 C2307 1.524 . S
C2306 C2320 1.377 . S
C2307 C2306 1.524 . S
C2307 C2308 1.397 . S
C2307 C2312 1.363 . S
C2308 H2285 0.950 . S
C2308 C2307 1.397 . S
C2308 C2309 1.334 . S
C2309 H2286 0.950 . S
C2309 C2308 1.334 . S
C2309 C2310 1.287 . S
C2310 C2309 1.287 . S
C2310 C2311 1.524 . S
C2310 H2329 0.913 . S
C2311 H2287 0.950 . S
C2311 C2310 1.524 . S
C2311 C2312 1.415 . S
C2312 H2288 0.950 . S
C2312 C2307 1.363 . S
C2312 C2311 1.415 . S
C2313 H2289 0.951 . S
C2313 C2314 1.366 . S
C2313 C2315 1.388 . S
C2314 C2313 1.366 . S
C2314 C2318 1.385 . S
C2315 H2290 0.951 . S
C2315 C2313 1.388 . S
C2315 C2316 1.366 . S
C2316 C2315 1.366 . S
C2316 C2317 1.414 . S
C2316 C2319 1.499 . S
C2317 H2291 0.950 1_455 S
C2317 C2316 1.414 . S
C2317 C2318 1.374 . S
C2318 H2292 0.950 . S
C2318 C2314 1.385 . S
C2318 C2317 1.374 . S
C2319 C2316 1.499 . S
C2319 C2320 1.373 1_455 S
C2319 C2321 1.389 . S
C2320 H2293 0.950 . S
C2320 C2306 1.377 . S
C2320 C2319 1.373 1_655 S
C2321 C2305 1.377 . S
C2321 C2319 1.389 . S
C2321 C2322 1.524 . S
C2322 C2321 1.524 . S
C2322 C2323 1.397 . S
C2322 C2327 1.363 . S
C2323 H2294 0.950 . S
C2323 C2322 1.397 . S
C2323 C2324 1.334 . S
C2324 H2295 0.950 1_545 S
C2324 C2323 1.334 . S
C2324 C2325 1.287 . S
C2325 C2324 1.287 . S
C2325 C2326 1.524 . S
C2325 H2328 0.999 . S
C2326 H2296 0.950 . S
C2326 C2325 1.524 . S
C2326 C2327 1.415 . S
C2327 H2297 0.950 . S
C2327 C2322 1.363 . S
C2327 C2326 1.415 . S
H2328 C2325 0.999 . S
H2329 C2310 0.913 . S
H2330 C2348 0.951 . S
H2331 C2350 0.951 . S
H2332 C2352 0.950 . S
H2333 C2353 0.950 . S
H2334 C2355 0.950 . S
H2335 C2358 0.950 . S
H2336 C2359 0.950 . S
H2337 C2361 0.950 . S
H2338 C2362 0.950 . S
H2339 C2363 0.951 . S
H2340 C2365 0.951 . S
H2341 C2367 0.950 . S
H2342 C2368 0.950 . S
H2343 C2370 0.950 . S
H2344 C2373 0.950 . S
H2345 C2374 0.950 . S
H2346 C2376 0.950 . S
H2347 C2377 0.950 . S
C2348 H2330 0.951 . S
C2348 C2349 1.366 . S
C2348 C2350 1.388 . S
C2349 C2348 1.366 . S
C2349 C2353 1.385 . S
C2350 H2331 0.951 . S
C2350 C2348 1.388 . S
C2350 C2351 1.366 . S
C2351 C2350 1.366 . S
C2351 C2352 1.414 . S
C2351 C2354 1.499 . S
C2352 H2332 0.950 . S
C2352 C2351 1.414 . S
C2352 C2353 1.374 . S
C2353 H2333 0.950 . S
C2353 C2349 1.385 . S
C2353 C2352 1.374 . S
C2354 C2351 1.499 . S
C2354 C2355 1.373 . S
C2354 C2356 1.389 . S
C2355 H2334 0.950 . S
C2355 C2354 1.373 . S
C2355 C2371 1.377 . S
C2356 C2354 1.389 . S
C2356 C2357 1.524 . S
C2356 C2370 1.377 . S
C2357 C2356 1.524 . S
C2357 C2358 1.397 . S
C2357 C2362 1.363 . S
C2358 H2335 0.950 . S
C2358 C2357 1.397 . S
C2358 C2359 1.334 . S
C2359 H2336 0.950 . S
C2359 C2358 1.334 . S
C2359 C2360 1.287 . S
C2360 C2359 1.287 . S
C2360 C2361 1.524 . S
C2360 H2379 0.913 . S
C2361 H2337 0.950 . S
C2361 C2360 1.524 . S
C2361 C2362 1.415 . S
C2362 H2338 0.950 . S
C2362 C2357 1.363 . S
C2362 C2361 1.415 . S
C2363 H2339 0.951 . S
C2363 C2364 1.366 . S
C2363 C2365 1.388 . S
C2364 C2363 1.366 . S
C2364 C2368 1.385 . S
C2365 H2340 0.951 . S
C2365 C2363 1.388 . S
C2365 C2366 1.366 . S
C2366 C2365 1.366 . S
C2366 C2367 1.414 . S
C2366 C2369 1.499 . S
C2367 H2341 0.950 . S
C2367 C2366 1.414 . S
C2367 C2368 1.374 . S
C2368 H2342 0.950 . S
C2368 C2364 1.385 . S
C2368 C2367 1.374 . S
C2369 C2366 1.499 . S
C2369 C2370 1.373 . S
C2369 C2371 1.389 . S
C2370 H2343 0.950 . S
C2370 C2356 1.377 . S
C2370 C2369 1.373 . S
C2371 C2355 1.377 . S
C2371 C2369 1.389 . S
C2371 C2372 1.524 . S
C2372 C2371 1.524 . S
C2372 C2373 1.397 . S
C2372 C2377 1.363 . S
C2373 H2344 0.950 . S
C2373 C2372 1.397 . S
C2373 C2374 1.334 . S
C2374 H2345 0.950 . S
C2374 C2373 1.334 . S
C2374 C2375 1.287 . S
C2375 C2374 1.287 . S
C2375 C2376 1.524 . S
C2375 H2378 0.999 . S
C2376 H2346 0.950 . S
C2376 C2375 1.524 . S
C2376 C2377 1.415 . S
C2377 H2347 0.950 . S
C2377 C2372 1.363 . S
C2377 C2376 1.415 . S
H2378 C2375 0.999 . S
H2379 C2360 0.913 . S
H2380 C2398 0.951 . S
H2381 C2400 0.951 . S
H2382 C2402 0.950 . S
H2383 C2403 0.950 . S
H2384 C2405 0.950 . S
H2385 C2408 0.950 . S
H2386 C2409 0.970 . S
H2387 C2411 0.950 . S
H2388 C2412 0.950 . S
H2389 C2413 0.951 . S
H2390 C2415 0.951 . S
H2391 C2417 0.950 . S
H2392 C2418 0.950 . S
H2393 C2420 0.950 . S
H2394 C2423 0.950 . S
H2395 C2424 0.950 . S
H2396 C2426 0.950 . S
H2397 C2427 0.950 . S
C2398 H2380 0.951 . S
C2398 C2399 1.366 . S
C2398 C2400 1.388 . S
C2399 C2398 1.366 . S
C2399 C2403 1.385 . S
C2400 H2381 0.951 . S
C2400 C2398 1.388 . S
C2400 C2401 1.366 . S
C2401 C2400 1.366 . S
C2401 C2402 1.414 . S
C2401 C2404 1.499 . S
C2402 H2382 0.950 . S
C2402 C2401 1.414 . S
C2402 C2403 1.374 . S
C2403 H2383 0.950 . S
C2403 C2399 1.385 . S
C2403 C2402 1.374 . S
C2404 C2401 1.499 . S
C2404 C2405 1.373 . S
C2404 C2406 1.389 . S
C2405 H2384 0.950 . S
C2405 C2404 1.373 . S
C2405 C2421 1.377 . S
C2406 C2404 1.389 . S
C2406 C2407 1.524 . S
C2406 C2420 1.377 . S
C2407 C2406 1.524 . S
C2407 C2408 1.397 . S
C2407 C2412 1.363 . S
C2408 H2385 0.950 . S
C2408 C2407 1.397 . S
C2408 C2409 1.334 . S
C2409 H2386 0.970 . S
C2409 C2408 1.334 . S
C2409 C2410 1.287 . S
C2410 C2409 1.287 . S
C2410 C2411 1.524 . S
C2410 H2429 0.913 . S
C2411 H2387 0.950 . S
C2411 C2410 1.524 . S
C2411 C2412 1.415 . S
C2412 H2388 0.950 . S
C2412 C2407 1.363 . S
C2412 C2411 1.415 . S
C2413 H2389 0.951 . S
C2413 C2414 1.366 . S
C2413 C2415 1.388 . S
C2414 C2413 1.366 . S
C2414 C2418 1.385 . S
C2415 H2390 0.951 . S
C2415 C2413 1.388 . S
C2415 C2416 1.366 . S
C2416 C2415 1.366 . S
C2416 C2417 1.414 . S
C2416 C2419 1.499 . S
C2417 H2391 0.950 . S
C2417 C2416 1.414 . S
C2417 C2418 1.374 . S
C2418 H2392 0.950 . S
C2418 C2414 1.385 . S
C2418 C2417 1.374 . S
C2419 C2416 1.499 . S
C2419 C2420 1.373 . S
C2419 C2421 1.389 . S
C2420 H2393 0.950 . S
C2420 C2406 1.377 . S
C2420 C2419 1.373 . S
C2421 C2405 1.377 . S
C2421 C2419 1.389 . S
C2421 C2422 1.524 . S
C2422 C2421 1.524 . S
C2422 C2423 1.397 . S
C2422 C2427 1.363 . S
C2423 H2394 0.950 . S
C2423 C2422 1.397 . S
C2423 C2424 1.334 . S
C2424 H2395 0.950 . S
C2424 C2423 1.334 . S
C2424 C2425 1.287 . S
C2425 C2424 1.287 . S
C2425 C2426 1.524 . S
C2425 H2428 0.999 . S
C2426 H2396 0.950 . S
C2426 C2425 1.524 . S
C2426 C2427 1.415 . S
C2427 H2397 0.950 . S
C2427 C2422 1.363 . S
C2427 C2426 1.415 . S
H2428 C2425 0.999 . S
H2429 C2410 0.913 . S
H2430 C2448 0.951 . S
H2431 C2450 0.951 . S
H2432 C2452 0.950 . S
H2433 C2453 0.950 . S
H2434 C2455 0.950 . S
H2435 C2458 0.950 . S
H2436 C2459 0.950 . S
H2437 C2461 0.950 . S
H2438 C2462 0.950 . S
H2439 C2463 0.951 . S
H2440 C2465 0.951 . S
H2441 C2467 0.950 . S
H2442 C2468 0.950 . S
H2443 C2470 0.950 . S
H2444 C2473 0.950 . S
H2445 C2474 0.950 . S
H2446 C2476 0.950 . S
H2447 C2477 0.950 . S
C2448 H2430 0.951 . S
C2448 C2449 1.366 . S
C2448 C2450 1.388 . S
C2449 C2448 1.366 . S
C2449 C2453 1.385 . S
C2450 H2431 0.951 . S
C2450 C2448 1.388 . S
C2450 C2451 1.366 . S
C2451 C2450 1.366 . S
C2451 C2452 1.414 . S
C2451 C2454 1.499 . S
C2452 H2432 0.950 . S
C2452 C2451 1.414 . S
C2452 C2453 1.374 . S
C2453 H2433 0.950 . S
C2453 C2449 1.385 . S
C2453 C2452 1.374 . S
C2454 C2451 1.499 . S
C2454 C2455 1.373 . S
C2454 C2456 1.389 . S
C2455 H2434 0.950 . S
C2455 C2454 1.373 . S
C2455 C2471 1.377 . S
C2456 C2454 1.389 . S
C2456 C2457 1.524 . S
C2456 C2470 1.377 . S
C2457 C2456 1.524 . S
C2457 C2458 1.397 . S
C2457 C2462 1.363 . S
C2458 H2435 0.950 . S
C2458 C2457 1.397 . S
C2458 C2459 1.334 . S
C2459 H2436 0.950 . S
C2459 C2458 1.334 . S
C2459 C2460 1.287 . S
C2460 C2459 1.287 . S
C2460 C2461 1.524 . S
C2460 H2479 0.913 . S
C2461 H2437 0.950 . S
C2461 C2460 1.524 . S
C2461 C2462 1.415 . S
C2462 H2438 0.950 . S
C2462 C2457 1.363 . S
C2462 C2461 1.415 . S
C2463 H2439 0.951 . S
C2463 C2464 1.366 . S
C2463 C2465 1.388 . S
C2464 C2463 1.366 . S
C2464 C2468 1.385 . S
C2465 H2440 0.951 . S
C2465 C2463 1.388 . S
C2465 C2466 1.366 . S
C2466 C2465 1.366 . S
C2466 C2467 1.414 . S
C2466 C2469 1.499 . S
C2467 H2441 0.950 . S
C2467 C2466 1.414 . S
C2467 C2468 1.374 . S
C2468 H2442 0.950 . S
C2468 C2464 1.385 . S
C2468 C2467 1.374 . S
C2469 C2466 1.499 . S
C2469 C2470 1.373 . S
C2469 C2471 1.389 . S
C2470 H2443 0.950 . S
C2470 C2456 1.377 . S
C2470 C2469 1.373 . S
C2471 C2455 1.377 . S
C2471 C2469 1.389 . S
C2471 C2472 1.524 . S
C2472 C2471 1.524 . S
C2472 C2473 1.397 . S
C2472 C2477 1.363 . S
C2473 H2444 0.950 . S
C2473 C2472 1.397 . S
C2473 C2474 1.334 . S
C2474 H2445 0.950 . S
C2474 C2473 1.334 . S
C2474 C2475 1.287 . S
C2475 C2474 1.287 . S
C2475 C2476 1.524 . S
C2475 H2478 0.999 . S
C2476 H2446 0.950 . S
C2476 C2475 1.524 . S
C2476 C2477 1.415 . S
C2477 H2447 0.950 . S
C2477 C2472 1.363 . S
C2477 C2476 1.415 . S
H2478 C2475 0.999 . S
H2479 C2460 0.913 . S
H2480 C2498 0.951 1_556 S
H2481 C2500 0.951 1_556 S
H2482 C2502 0.950 . S
H2483 C2503 0.950 . S
H2484 C2505 0.950 . S
H2485 C2508 0.950 1_554 S
H2486 C2509 0.950 . S
H2487 C2511 0.950 . S
H2488 C2512 0.950 . S
H2489 C2513 0.951 . S
H2490 C2515 0.951 . S
H2491 C2517 0.950 . S
H2492 C2518 0.951 1_565 S
H2493 C2520 1.004 . S
H2494 C2523 0.950 . S
H2495 C2524 0.950 . S
H2496 C2526 0.950 . S
H2497 C2527 0.950 . S
C2498 H2480 0.951 1_554 S
C2498 C2499 1.366 . S
C2498 C2500 1.388 . S
C2499 C2498 1.366 . S
C2499 C2503 1.385 . S
C2500 H2481 0.951 1_554 S
C2500 C2498 1.388 . S
C2500 C2501 1.366 . S
C2501 C2500 1.366 . S
C2501 C2502 1.414 . S
C2501 C2504 1.499 . S
C2502 H2482 0.950 . S
C2502 C2501 1.414 . S
C2502 C2503 1.374 . S
C2503 H2483 0.950 . S
C2503 C2499 1.385 . S
C2503 C2502 1.374 . S
C2504 C2501 1.499 . S
C2504 C2505 1.373 . S
C2504 C2506 1.389 . S
C2505 H2484 0.950 . S
C2505 C2504 1.373 . S
C2505 C2521 1.377 . S
C2506 C2504 1.389 . S
C2506 C2507 1.524 1_554 S
C2506 C2520 1.377 . S
C2507 C2506 1.524 1_556 S
C2507 C2508 1.397 1_565 S
C2507 C2512 1.363 . S
C2508 H2485 0.950 1_556 S
C2508 C2507 1.397 1_545 S
C2508 C2509 1.334 . S
C2509 H2486 0.950 . S
C2509 C2508 1.334 . S
C2509 C2510 1.288 . S
C2510 C2509 1.288 . S
C2510 C2511 1.514 1_545 S
C2510 H2529 0.920 . S
C2511 H2487 0.950 . S
C2511 C2510 1.514 1_565 S
C2511 C2512 1.415 . S
C2512 H2488 0.950 . S
C2512 C2507 1.363 . S
C2512 C2511 1.415 . S
C2513 H2489 0.951 . S
C2513 C2514 1.366 . S
C2513 C2515 1.388 . S
C2514 C2513 1.366 . S
C2514 C2518 1.385 . S
C2515 H2490 0.951 . S
C2515 C2513 1.388 . S
C2515 C2516 1.366 . S
C2516 C2515 1.366 . S
C2516 C2517 1.414 1_545 S
C2516 C2519 1.499 1_545 S
C2517 H2491 0.950 . S
C2517 C2516 1.414 1_565 S
C2517 C2518 1.374 1_565 S
C2518 H2492 0.951 1_545 S
C2518 C2514 1.385 . S
C2518 C2517 1.374 1_545 S
C2519 C2516 1.499 1_565 S
C2519 C2520 1.373 . S
C2519 C2521 1.389 . S
C2520 H2493 1.004 . S
C2520 C2506 1.377 . S
C2520 C2519 1.373 . S
C2521 C2505 1.377 . S
C2521 C2519 1.389 . S
C2521 C2522 1.524 . S
C2522 C2521 1.524 . S
C2522 C2523 1.397 . S
C2522 C2527 1.363 . S
C2523 H2494 0.950 . S
C2523 C2522 1.397 . S
C2523 C2524 1.334 . S
C2524 H2495 0.950 . S
C2524 C2523 1.334 . S
C2524 C2525 1.287 . S
C2525 C2524 1.287 . S
C2525 C2526 1.524 . S
C2525 H2528 0.999 . S
C2526 H2496 0.950 . S
C2526 C2525 1.524 . S
C2526 C2527 1.415 . S
C2527 H2497 0.950 . S
C2527 C2522 1.363 . S
C2527 C2526 1.415 . S
H2528 C2525 0.999 . S
H2529 C2510 0.920 . S
H2530 C2548 0.951 . S
H2531 C2550 0.951 . S
H2532 C2552 0.950 . S
H2533 C2553 0.950 . S
H2534 C2555 0.950 . S
H2535 C2558 0.950 . S
H2536 C2559 0.950 . S
H2537 C2561 0.950 . S
H2538 C2562 0.950 . S
H2539 C2563 0.951 . S
H2540 C2565 0.951 . S
H2541 C2567 0.950 . S
H2542 C2568 0.950 . S
H2543 C2570 0.950 . S
H2544 C2573 0.950 . S
H2545 C2574 0.950 . S
H2546 C2576 0.950 . S
H2547 C2577 0.950 . S
C2548 H2530 0.951 . S
C2548 C2549 1.366 . S
C2548 C2550 1.388 . S
C2549 C2548 1.366 . S
C2549 C2553 1.385 1_556 S
C2550 H2531 0.951 . S
C2550 C2548 1.388 . S
C2550 C2551 1.366 . S
C2551 C2550 1.366 . S
C2551 C2552 1.414 1_556 S
C2551 C2554 1.499 . S
C2552 H2532 0.950 . S
C2552 C2551 1.414 1_554 S
C2552 C2553 1.374 . S
C2553 H2533 0.950 . S
C2553 C2549 1.385 1_554 S
C2553 C2552 1.374 . S
C2554 C2551 1.499 . S
C2554 C2555 1.373 . S
C2554 C2556 1.389 1_556 S
C2555 H2534 0.950 . S
C2555 C2554 1.373 . S
C2555 C2571 1.377 . S
C2556 C2554 1.389 1_554 S
C2556 C2557 1.524 . S
C2556 C2570 1.377 . S
C2557 C2556 1.524 . S
C2557 C2558 1.397 . S
C2557 C2562 1.363 . S
C2558 H2535 0.950 . S
C2558 C2557 1.397 . S
C2558 C2559 1.334 . S
C2559 H2536 0.950 . S
C2559 C2558 1.334 . S
C2559 C2560 1.287 . S
C2560 C2559 1.287 . S
C2560 C2561 1.524 . S
C2560 H2579 0.913 . S
C2561 H2537 0.950 . S
C2561 C2560 1.524 . S
C2561 C2562 1.415 . S
C2562 H2538 0.950 . S
C2562 C2557 1.363 . S
C2562 C2561 1.415 . S
C2563 H2539 0.951 . S
C2563 C2564 1.366 . S
C2563 C2565 1.388 . S
C2564 C2563 1.366 . S
C2564 C2568 1.385 1_554 S
C2565 H2540 0.951 . S
C2565 C2563 1.388 . S
C2565 C2566 1.366 1_554 S
C2566 C2565 1.366 1_556 S
C2566 C2567 1.414 . S
C2566 C2569 1.499 . S
C2567 H2541 0.950 . S
C2567 C2566 1.414 . S
C2567 C2568 1.374 . S
C2568 H2542 0.950 . S
C2568 C2564 1.385 1_556 S
C2568 C2567 1.374 . S
C2569 C2566 1.499 . S
C2569 C2570 1.373 1_556 S
C2569 C2571 1.389 . S
C2570 H2543 0.950 . S
C2570 C2556 1.377 . S
C2570 C2569 1.373 1_554 S
C2571 C2555 1.377 . S
C2571 C2569 1.389 . S
C2571 C2572 1.524 . S
C2572 C2571 1.524 . S
C2572 C2573 1.397 . S
C2572 C2577 1.363 . S
C2573 H2544 0.950 . S
C2573 C2572 1.397 . S
C2573 C2574 1.334 . S
C2574 H2545 0.950 . S
C2574 C2573 1.334 . S
C2574 C2575 1.287 . S
C2575 C2574 1.287 . S
C2575 C2576 1.524 . S
C2575 H2578 0.999 . S
C2576 H2546 0.950 . S
C2576 C2575 1.524 . S
C2576 C2577 1.415 . S
C2577 H2547 0.950 . S
C2577 C2572 1.363 . S
C2577 C2576 1.415 . S
H2578 C2575 0.999 . S
H2579 C2560 0.913 . S
H2580 C2598 0.951 . S
H2581 C2600 0.951 . S
H2582 C2602 0.950 . S
H2583 C2603 0.950 . S
H2584 C2605 0.950 . S
H2585 C2608 0.950 . S
H2586 C2609 0.950 . S
H2587 C2611 0.950 . S
H2588 C2612 0.950 . S
H2589 C2613 0.951 . S
H2590 C2615 0.951 . S
H2591 C2617 0.950 . S
H2592 C2618 0.950 . S
H2593 C2620 0.950 . S
H2594 C2623 0.950 . S
H2595 C2624 0.950 . S
H2596 C2626 0.950 . S
H2597 C2627 0.950 . S
C2598 H2580 0.951 . S
C2598 C2599 1.366 . S
C2598 C2600 1.388 . S
C2599 C2598 1.366 . S
C2599 C2603 1.385 . S
C2600 H2581 0.951 . S
C2600 C2598 1.388 . S
C2600 C2601 1.366 . S
C2601 C2600 1.366 . S
C2601 C2602 1.414 . S
C2601 C2604 1.499 . S
C2602 H2582 0.950 . S
C2602 C2601 1.414 . S
C2602 C2603 1.374 . S
C2603 H2583 0.950 . S
C2603 C2599 1.385 . S
C2603 C2602 1.374 . S
C2604 C2601 1.499 . S
C2604 C2605 1.373 . S
C2604 C2606 1.389 . S
C2605 H2584 0.950 . S
C2605 C2604 1.373 . S
C2605 C2621 1.377 . S
C2606 C2604 1.389 . S
C2606 C2607 1.524 . S
C2606 C2620 1.377 . S
C2607 C2606 1.524 . S
C2607 C2608 1.397 . S
C2607 C2612 1.363 . S
C2608 H2585 0.950 . S
C2608 C2607 1.397 . S
C2608 C2609 1.334 . S
C2609 H2586 0.950 . S
C2609 C2608 1.334 . S
C2609 C2610 1.287 . S
C2610 C2609 1.287 . S
C2610 C2611 1.524 . S
C2610 H2629 0.913 . S
C2611 H2587 0.950 . S
C2611 C2610 1.524 . S
C2611 C2612 1.415 . S
C2612 H2588 0.950 . S
C2612 C2607 1.363 . S
C2612 C2611 1.415 . S
C2613 H2589 0.951 . S
C2613 C2614 1.366 . S
C2613 C2615 1.388 . S
C2614 C2613 1.366 . S
C2614 C2618 1.385 . S
C2615 H2590 0.951 . S
C2615 C2613 1.388 . S
C2615 C2616 1.366 . S
C2616 C2615 1.366 . S
C2616 C2617 1.414 . S
C2616 C2619 1.499 . S
C2617 H2591 0.950 . S
C2617 C2616 1.414 . S
C2617 C2618 1.374 . S
C2618 H2592 0.950 . S
C2618 C2614 1.385 . S
C2618 C2617 1.374 . S
C2619 C2616 1.499 . S
C2619 C2620 1.373 . S
C2619 C2621 1.389 . S
C2620 H2593 0.950 . S
C2620 C2606 1.377 . S
C2620 C2619 1.373 . S
C2621 C2605 1.377 . S
C2621 C2619 1.389 . S
C2621 C2622 1.524 . S
C2622 C2621 1.524 . S
C2622 C2623 1.397 . S
C2622 C2627 1.363 . S
C2623 H2594 0.950 . S
C2623 C2622 1.397 . S
C2623 C2624 1.334 . S
C2624 H2595 0.950 . S
C2624 C2623 1.334 . S
C2624 C2625 1.287 . S
C2625 C2624 1.287 . S
C2625 C2626 1.524 . S
C2625 H2628 0.999 . S
C2626 H2596 0.950 . S
C2626 C2625 1.524 . S
C2626 C2627 1.415 . S
C2627 H2597 0.950 . S
C2627 C2622 1.363 . S
C2627 C2626 1.415 . S
H2628 C2625 0.999 . S
H2629 C2610 0.913 . S
H2630 C2648 0.951 . S
H2631 C2650 0.951 . S
H2632 C2652 0.950 . S
H2633 C2653 0.950 . S
H2634 C2655 0.950 . S
H2635 C2658 0.950 . S
H2636 C2659 0.950 . S
H2637 C2661 0.950 . S
H2638 C2662 0.950 . S
H2639 C2663 0.951 . S
H2640 C2665 0.951 . S
H2641 C2667 0.950 . S
H2642 C2668 0.950 . S
H2643 C2670 0.950 . S
H2644 C2673 0.950 . S
H2645 C2674 0.950 . S
H2646 C2676 0.950 . S
H2647 C2677 0.950 . S
C2648 H2630 0.951 . S
C2648 C2649 1.366 . S
C2648 C2650 1.388 . S
C2649 C2648 1.366 . S
C2649 C2653 1.385 . S
C2650 H2631 0.951 . S
C2650 C2648 1.388 . S
C2650 C2651 1.366 . S
C2651 C2650 1.366 . S
C2651 C2652 1.414 . S
C2651 C2654 1.499 . S
C2652 H2632 0.950 . S
C2652 C2651 1.414 . S
C2652 C2653 1.374 . S
C2653 H2633 0.950 . S
C2653 C2649 1.385 . S
C2653 C2652 1.374 . S
C2654 C2651 1.499 . S
C2654 C2655 1.373 . S
C2654 C2656 1.389 . S
C2655 H2634 0.950 . S
C2655 C2654 1.373 . S
C2655 C2671 1.377 . S
C2656 C2654 1.389 . S
C2656 C2657 1.524 . S
C2656 C2670 1.377 . S
C2657 C2656 1.524 . S
C2657 C2658 1.397 . S
C2657 C2662 1.363 . S
C2658 H2635 0.950 . S
C2658 C2657 1.397 . S
C2658 C2659 1.334 . S
C2659 H2636 0.950 . S
C2659 C2658 1.334 . S
C2659 C2660 1.287 . S
C2660 C2659 1.287 . S
C2660 C2661 1.524 . S
C2660 H2679 0.913 . S
C2661 H2637 0.950 . S
C2661 C2660 1.524 . S
C2661 C2662 1.415 . S
C2662 H2638 0.950 . S
C2662 C2657 1.363 . S
C2662 C2661 1.415 . S
C2663 H2639 0.951 . S
C2663 C2664 1.366 . S
C2663 C2665 1.388 1_455 S
C2664 C2663 1.366 . S
C2664 C2668 1.385 1_455 S
C2665 H2640 0.951 . S
C2665 C2663 1.388 1_655 S
C2665 C2666 1.366 . S
C2666 C2665 1.366 . S
C2666 C2667 1.414 . S
C2666 C2669 1.499 . S
C2667 H2641 0.950 . S
C2667 C2666 1.414 . S
C2667 C2668 1.374 . S
C2668 H2642 0.950 . S
C2668 C2664 1.385 1_655 S
C2668 C2667 1.374 . S
C2669 C2666 1.499 . S
C2669 C2670 1.373 . S
C2669 C2671 1.389 . S
C2670 H2643 0.950 . S
C2670 C2656 1.377 . S
C2670 C2669 1.373 . S
C2671 C2655 1.377 . S
C2671 C2669 1.389 . S
C2671 C2672 1.524 . S
C2672 C2671 1.524 . S
C2672 C2673 1.397 . S
C2672 C2677 1.363 . S
C2673 H2644 0.950 . S
C2673 C2672 1.397 . S
C2673 C2674 1.334 . S
C2674 H2645 0.950 . S
C2674 C2673 1.334 . S
C2674 C2675 1.287 . S
C2675 C2674 1.287 . S
C2675 C2676 1.524 . S
C2675 H2678 0.999 . S
C2676 H2646 0.950 . S
C2676 C2675 1.524 . S
C2676 C2677 1.415 . S
C2677 H2647 0.950 . S
C2677 C2672 1.363 . S
C2677 C2676 1.415 . S
H2678 C2675 0.999 . S
H2679 C2660 0.913 . S
H2680 C2698 0.951 . S
H2681 C2700 0.951 . S
H2682 C2702 0.950 . S
H2683 C2703 0.950 . S
H2684 C2705 0.950 . S
H2685 C2708 0.950 . S
H2686 C2709 0.950 . S
H2687 C2711 0.950 . S
H2688 C2712 0.950 . S
H2689 C2713 0.951 . S
H2690 C2715 0.951 . S
H2691 C2717 0.950 . S
H2692 C2718 0.950 . S
H2693 C2720 0.950 . S
H2694 C2723 0.950 . S
H2695 C2724 0.950 . S
H2696 C2726 0.950 . S
H2697 C2727 0.950 . S
C2698 H2680 0.951 . S
C2698 C2699 1.366 . S
C2698 C2700 1.388 . S
C2699 C2698 1.366 . S
C2699 C2703 1.385 . S
C2700 H2681 0.951 . S
C2700 C2698 1.388 . S
C2700 C2701 1.366 . S
C2701 C2700 1.366 . S
C2701 C2702 1.414 . S
C2701 C2704 1.499 . S
C2702 H2682 0.950 . S
C2702 C2701 1.414 . S
C2702 C2703 1.374 . S
C2703 H2683 0.950 . S
C2703 C2699 1.385 . S
C2703 C2702 1.374 . S
C2704 C2701 1.499 . S
C2704 C2705 1.373 . S
C2704 C2706 1.389 . S
C2705 H2684 0.950 . S
C2705 C2704 1.373 . S
C2705 C2721 1.377 . S
C2706 C2704 1.389 . S
C2706 C2707 1.524 . S
C2706 C2720 1.377 . S
C2707 C2706 1.524 . S
C2707 C2708 1.397 . S
C2707 C2712 1.363 . S
C2708 H2685 0.950 . S
C2708 C2707 1.397 . S
C2708 C2709 1.334 . S
C2709 H2686 0.950 . S
C2709 C2708 1.334 . S
C2709 C2710 1.287 . S
C2710 C2709 1.287 . S
C2710 C2711 1.524 . S
C2710 H2729 0.913 . S
C2711 H2687 0.950 . S
C2711 C2710 1.524 . S
C2711 C2712 1.415 . S
C2712 H2688 0.950 . S
C2712 C2707 1.363 . S
C2712 C2711 1.415 . S
C2713 H2689 0.951 . S
C2713 C2714 1.366 . S
C2713 C2715 1.388 . S
C2714 C2713 1.366 . S
C2714 C2718 1.385 . S
C2715 H2690 0.951 . S
C2715 C2713 1.388 . S
C2715 C2716 1.366 . S
C2716 C2715 1.366 . S
C2716 C2717 1.414 . S
C2716 C2719 1.499 . S
C2717 H2691 0.950 . S
C2717 C2716 1.414 . S
C2717 C2718 1.374 . S
C2718 H2692 0.950 . S
C2718 C2714 1.385 . S
C2718 C2717 1.374 . S
C2719 C2716 1.499 . S
C2719 C2720 1.373 . S
C2719 C2721 1.389 . S
C2720 H2693 0.950 . S
C2720 C2706 1.377 . S
C2720 C2719 1.373 . S
C2721 C2705 1.377 . S
C2721 C2719 1.389 . S
C2721 C2722 1.524 . S
C2722 C2721 1.524 . S
C2722 C2723 1.397 . S
C2722 C2727 1.363 . S
C2723 H2694 0.950 . S
C2723 C2722 1.397 . S
C2723 C2724 1.334 . S
C2724 H2695 0.950 . S
C2724 C2723 1.334 . S
C2724 C2725 1.287 . S
C2725 C2724 1.287 . S
C2725 C2726 1.524 . S
C2725 H2728 0.999 . S
C2726 H2696 0.950 . S
C2726 C2725 1.524 . S
C2726 C2727 1.415 . S
C2727 H2697 0.950 . S
C2727 C2722 1.363 . S
C2727 C2726 1.415 . S
H2728 C2725 0.999 . S
H2729 C2710 0.913 . S
H2730 C2748 0.951 . S
H2731 C2750 0.951 . S
H2732 C2752 0.950 . S
H2733 C2753 0.950 . S
H2734 C2755 0.950 . S
H2735 C2758 0.950 . S
H2736 C2759 0.950 . S
H2737 C2761 0.950 . S
H2738 C2762 0.950 . S
H2739 C2763 0.951 . S
H2740 C2765 0.951 . S
H2741 C2767 0.950 . S
H2742 C2768 0.950 . S
H2743 C2770 0.950 . S
H2744 C2773 0.950 . S
H2745 C2774 0.950 . S
H2746 C2776 0.950 . S
H2747 C2777 0.950 . S
C2748 H2730 0.951 . S
C2748 C2749 1.366 . S
C2748 C2750 1.388 . S
C2749 C2748 1.366 . S
C2749 C2753 1.385 . S
C2750 H2731 0.951 . S
C2750 C2748 1.388 . S
C2750 C2751 1.366 . S
C2751 C2750 1.366 . S
C2751 C2752 1.414 . S
C2751 C2754 1.499 . S
C2752 H2732 0.950 . S
C2752 C2751 1.414 . S
C2752 C2753 1.374 . S
C2753 H2733 0.950 . S
C2753 C2749 1.385 . S
C2753 C2752 1.374 . S
C2754 C2751 1.499 . S
C2754 C2755 1.373 . S
C2754 C2756 1.389 . S
C2755 H2734 0.950 . S
C2755 C2754 1.373 . S
C2755 C2771 1.377 . S
C2756 C2754 1.389 . S
C2756 C2757 1.524 . S
C2756 C2770 1.377 . S
C2757 C2756 1.524 . S
C2757 C2758 1.397 . S
C2757 C2762 1.363 . S
C2758 H2735 0.950 . S
C2758 C2757 1.397 . S
C2758 C2759 1.334 . S
C2759 H2736 0.950 . S
C2759 C2758 1.334 . S
C2759 C2760 1.287 . S
C2760 C2759 1.287 . S
C2760 C2761 1.524 . S
C2760 H2779 0.913 . S
C2761 H2737 0.950 . S
C2761 C2760 1.524 . S
C2761 C2762 1.415 . S
C2762 H2738 0.950 . S
C2762 C2757 1.363 . S
C2762 C2761 1.415 . S
C2763 H2739 0.951 . S
C2763 C2764 1.366 . S
C2763 C2765 1.388 . S
C2764 C2763 1.366 . S
C2764 C2768 1.385 . S
C2765 H2740 0.951 . S
C2765 C2763 1.388 . S
C2765 C2766 1.366 . S
C2766 C2765 1.366 . S
C2766 C2767 1.414 . S
C2766 C2769 1.499 . S
C2767 H2741 0.950 . S
C2767 C2766 1.414 . S
C2767 C2768 1.374 . S
C2768 H2742 0.950 . S
C2768 C2764 1.385 . S
C2768 C2767 1.374 . S
C2769 C2766 1.499 . S
C2769 C2770 1.373 . S
C2769 C2771 1.389 . S
C2770 H2743 0.950 . S
C2770 C2756 1.377 . S
C2770 C2769 1.373 . S
C2771 C2755 1.377 . S
C2771 C2769 1.389 . S
C2771 C2772 1.524 . S
C2772 C2771 1.524 . S
C2772 C2773 1.397 . S
C2772 C2777 1.363 . S
C2773 H2744 0.950 . S
C2773 C2772 1.397 . S
C2773 C2774 1.334 . S
C2774 H2745 0.950 . S
C2774 C2773 1.334 . S
C2774 C2775 1.287 . S
C2775 C2774 1.287 . S
C2775 C2776 1.524 . S
C2775 H2778 0.999 . S
C2776 H2746 0.950 . S
C2776 C2775 1.524 . S
C2776 C2777 1.415 . S
C2777 H2747 0.950 . S
C2777 C2772 1.363 . S
C2777 C2776 1.415 . S
H2778 C2775 0.999 . S
H2779 C2760 0.913 . S
H2780 C2798 0.951 . S
H2781 C2800 0.951 . S
H2782 C2802 0.950 . S
H2783 C2803 0.950 . S
H2784 C2805 0.950 . S
H2785 C2808 0.950 . S
H2786 C2809 0.950 . S
H2787 C2811 0.950 . S
H2788 C2812 0.950 . S
H2789 C2813 0.951 . S
H2790 C2815 0.951 . S
H2791 C2817 0.950 . S
H2792 C2818 0.950 . S
H2793 C2820 0.950 . S
H2794 C2823 0.950 . S
H2795 C2824 0.950 . S
H2796 C2826 0.950 . S
H2797 C2827 0.950 . S
C2798 H2780 0.951 . S
C2798 C2799 1.366 . S
C2798 C2800 1.388 . S
C2799 C2798 1.366 . S
C2799 C2803 1.385 . S
C2800 H2781 0.951 . S
C2800 C2798 1.388 . S
C2800 C2801 1.366 . S
C2801 C2800 1.366 . S
C2801 C2802 1.414 . S
C2801 C2804 1.499 . S
C2802 H2782 0.950 . S
C2802 C2801 1.414 . S
C2802 C2803 1.374 . S
C2803 H2783 0.950 . S
C2803 C2799 1.385 . S
C2803 C2802 1.374 . S
C2804 C2801 1.499 . S
C2804 C2805 1.373 . S
C2804 C2806 1.389 . S
C2805 H2784 0.950 . S
C2805 C2804 1.373 . S
C2805 C2821 1.377 . S
C2806 C2804 1.389 . S
C2806 C2807 1.524 . S
C2806 C2820 1.377 . S
C2807 C2806 1.524 . S
C2807 C2808 1.397 . S
C2807 C2812 1.363 . S
C2808 H2785 0.950 . S
C2808 C2807 1.397 . S
C2808 C2809 1.334 . S
C2809 H2786 0.950 . S
C2809 C2808 1.334 . S
C2809 C2810 1.287 . S
C2810 C2809 1.287 . S
C2810 C2811 1.524 . S
C2810 H2829 0.913 . S
C2811 H2787 0.950 . S
C2811 C2810 1.524 . S
C2811 C2812 1.415 . S
C2812 H2788 0.950 . S
C2812 C2807 1.363 . S
C2812 C2811 1.415 . S
C2813 H2789 0.951 . S
C2813 C2814 1.366 . S
C2813 C2815 1.388 . S
C2814 C2813 1.366 . S
C2814 C2818 1.385 . S
C2815 H2790 0.951 . S
C2815 C2813 1.388 . S
C2815 C2816 1.366 . S
C2816 C2815 1.366 . S
C2816 C2817 1.414 . S
C2816 C2819 1.499 . S
C2817 H2791 0.950 . S
C2817 C2816 1.414 . S
C2817 C2818 1.374 . S
C2818 H2792 0.950 . S
C2818 C2814 1.385 . S
C2818 C2817 1.374 . S
C2819 C2816 1.499 . S
C2819 C2820 1.373 . S
C2819 C2821 1.389 . S
C2820 H2793 0.950 . S
C2820 C2806 1.377 . S
C2820 C2819 1.373 . S
C2821 C2805 1.377 . S
C2821 C2819 1.389 . S
C2821 C2822 1.524 . S
C2822 C2821 1.524 . S
C2822 C2823 1.397 . S
C2822 C2827 1.363 . S
C2823 H2794 0.950 . S
C2823 C2822 1.397 . S
C2823 C2824 1.334 . S
C2824 H2795 0.950 . S
C2824 C2823 1.334 . S
C2824 C2825 1.287 . S
C2825 C2824 1.287 . S
C2825 C2826 1.524 . S
C2825 H2828 0.999 . S
C2826 H2796 0.950 . S
C2826 C2825 1.524 . S
C2826 C2827 1.415 . S
C2827 H2797 0.950 . S
C2827 C2822 1.363 . S
C2827 C2826 1.415 . S
H2828 C2825 0.999 . S
H2829 C2810 0.913 . S
H2830 C2848 0.951 . S
H2831 C2850 0.951 . S
H2832 C2852 0.950 . S
H2833 C2853 0.950 . S
H2834 C2855 0.950 . S
H2835 C2858 0.950 . S
H2836 C2859 0.950 . S
H2837 C2861 0.950 . S
H2838 C2862 0.950 . S
H2839 C2863 0.951 . S
H2840 C2865 0.951 . S
H2841 C2867 0.950 . S
H2842 C2868 0.950 . S
H2843 C2870 0.950 . S
H2844 C2873 0.950 . S
H2845 C2874 0.950 . S
H2846 C2876 0.950 . S
H2847 C2877 0.950 . S
C2848 H2830 0.951 . S
C2848 C2849 1.366 . S
C2848 C2850 1.388 . S
C2849 C2848 1.366 . S
C2849 C2853 1.385 . S
C2850 H2831 0.951 . S
C2850 C2848 1.388 . S
C2850 C2851 1.366 . S
C2851 C2850 1.366 . S
C2851 C2852 1.414 . S
C2851 C2854 1.499 . S
C2852 H2832 0.950 . S
C2852 C2851 1.414 . S
C2852 C2853 1.374 . S
C2853 H2833 0.950 . S
C2853 C2849 1.385 . S
C2853 C2852 1.374 . S
C2854 C2851 1.499 . S
C2854 C2855 1.373 . S
C2854 C2856 1.389 . S
C2855 H2834 0.950 . S
C2855 C2854 1.373 . S
C2855 C2871 1.377 . S
C2856 C2854 1.389 . S
C2856 C2857 1.524 . S
C2856 C2870 1.377 . S
C2857 C2856 1.524 . S
C2857 C2858 1.397 . S
C2857 C2862 1.363 . S
C2858 H2835 0.950 . S
C2858 C2857 1.397 . S
C2858 C2859 1.334 . S
C2859 H2836 0.950 . S
C2859 C2858 1.334 . S
C2859 C2860 1.287 . S
C2860 C2859 1.287 . S
C2860 C2861 1.524 . S
C2860 H2879 0.913 . S
C2861 H2837 0.950 . S
C2861 C2860 1.524 . S
C2861 C2862 1.415 . S
C2862 H2838 0.950 . S
C2862 C2857 1.363 . S
C2862 C2861 1.415 . S
C2863 H2839 0.951 . S
C2863 C2864 1.366 . S
C2863 C2865 1.388 . S
C2864 C2863 1.366 . S
C2864 C2868 1.385 . S
C2865 H2840 0.951 . S
C2865 C2863 1.388 . S
C2865 C2866 1.366 . S
C2866 C2865 1.366 . S
C2866 C2867 1.414 . S
C2866 C2869 1.499 . S
C2867 H2841 0.950 . S
C2867 C2866 1.414 . S
C2867 C2868 1.374 . S
C2868 H2842 0.950 . S
C2868 C2864 1.385 . S
C2868 C2867 1.374 . S
C2869 C2866 1.499 . S
C2869 C2870 1.373 . S
C2869 C2871 1.389 . S
C2870 H2843 0.950 . S
C2870 C2856 1.377 . S
C2870 C2869 1.373 . S
C2871 C2855 1.377 . S
C2871 C2869 1.389 . S
C2871 C2872 1.524 . S
C2872 C2871 1.524 . S
C2872 C2873 1.397 . S
C2872 C2877 1.363 . S
C2873 H2844 0.950 . S
C2873 C2872 1.397 . S
C2873 C2874 1.334 . S
C2874 H2845 0.950 . S
C2874 C2873 1.334 . S
C2874 C2875 1.287 . S
C2875 C2874 1.287 . S
C2875 C2876 1.524 . S
C2875 H2878 0.999 . S
C2876 H2846 0.950 . S
C2876 C2875 1.524 . S
C2876 C2877 1.415 . S
C2877 H2847 0.950 . S
C2877 C2872 1.363 . S
C2877 C2876 1.415 . S
H2878 C2875 0.999 . S
H2879 C2860 0.913 . S
H2880 C2898 0.951 . S
H2881 C2900 0.951 . S
H2882 C2902 0.950 . S
H2883 C2903 0.950 . S
H2884 C2905 0.950 . S
H2885 C2908 0.950 . S
H2886 C2909 0.950 . S
H2887 C2911 0.950 . S
H2888 C2912 0.950 . S
H2889 C2913 0.917 1_545 S
H2890 C2915 0.951 . S
H2891 C2917 0.950 . S
H2892 C2918 0.950 . S
H2893 C2920 0.950 . S
H2894 C2923 0.950 . S
H2895 C2924 0.950 . S
H2896 C2926 0.950 . S
H2897 C2927 0.950 . S
C2898 H2880 0.951 . S
C2898 C2899 1.366 . S
C2898 C2900 1.388 . S
C2899 C2898 1.366 . S
C2899 C2903 1.385 . S
C2900 H2881 0.951 . S
C2900 C2898 1.388 . S
C2900 C2901 1.366 . S
C2901 C2900 1.366 . S
C2901 C2902 1.414 . S
C2901 C2904 1.499 . S
C2902 H2882 0.950 . S
C2902 C2901 1.414 . S
C2902 C2903 1.374 . S
C2903 H2883 0.950 . S
C2903 C2899 1.385 . S
C2903 C2902 1.374 . S
C2904 C2901 1.499 . S
C2904 C2905 1.373 . S
C2904 C2906 1.389 . S
C2905 H2884 0.950 . S
C2905 C2904 1.373 . S
C2905 C2921 1.377 . S
C2906 C2904 1.389 . S
C2906 C2907 1.524 . S
C2906 C2920 1.377 . S
C2907 C2906 1.524 . S
C2907 C2908 1.397 . S
C2907 C2912 1.363 . S
C2908 H2885 0.950 . S
C2908 C2907 1.397 . S
C2908 C2909 1.334 . S
C2909 H2886 0.950 . S
C2909 C2908 1.334 . S
C2909 C2910 1.287 1_554 S
C2910 C2909 1.287 1_556 S
C2910 C2911 1.524 . S
C2910 H2929 0.913 . S
C2911 H2887 0.950 . S
C2911 C2910 1.524 . S
C2911 C2912 1.415 1_556 S
C2912 H2888 0.950 . S
C2912 C2907 1.363 . S
C2912 C2911 1.415 1_554 S
C2913 H2889 0.917 1_565 S
C2913 C2914 1.366 . S
C2913 C2915 1.388 . S
C2914 C2913 1.366 . S
C2914 C2918 1.385 . S
C2915 H2890 0.951 . S
C2915 C2913 1.388 . S
C2915 C2916 1.366 . S
C2916 C2915 1.366 . S
C2916 C2917 1.414 . S
C2916 C2919 1.499 . S
C2917 H2891 0.950 . S
C2917 C2916 1.414 . S
C2917 C2918 1.374 . S
C2918 H2892 0.950 . S
C2918 C2914 1.385 . S
C2918 C2917 1.374 . S
C2919 C2916 1.499 . S
C2919 C2920 1.373 . S
C2919 C2921 1.389 . S
C2920 H2893 0.950 . S
C2920 C2906 1.377 . S
C2920 C2919 1.373 . S
C2921 C2905 1.377 . S
C2921 C2919 1.389 . S
C2921 C2922 1.524 . S
C2922 C2921 1.524 . S
C2922 C2923 1.397 . S
C2922 C2927 1.363 . S
C2923 H2894 0.950 . S
C2923 C2922 1.397 . S
C2923 C2924 1.334 . S
C2924 H2895 0.950 . S
C2924 C2923 1.334 . S
C2924 C2925 1.287 . S
C2925 C2924 1.287 . S
C2925 C2926 1.524 . S
C2925 H2928 0.999 . S
C2926 H2896 0.950 . S
C2926 C2925 1.524 . S
C2926 C2927 1.415 . S
C2927 H2897 0.950 . S
C2927 C2922 1.363 . S
C2927 C2926 1.415 . S
H2928 C2925 0.999 . S
H2929 C2910 0.913 . S
H2930 C2948 0.951 . S
H2931 C2950 0.951 . S
H2932 C2952 0.950 . S
H2933 C2953 0.950 . S
H2934 C2955 0.950 . S
H2935 C2958 0.950 . S
H2936 C2959 0.950 . S
H2937 C2961 0.950 . S
H2938 C2962 0.950 . S
H2939 C2963 0.951 . S
H2940 C2965 0.951 . S
H2941 C2967 0.950 . S
H2942 C2968 0.950 . S
H2943 C2970 0.950 . S
H2944 C2973 0.950 . S
H2945 C2974 0.950 . S
H2946 C2976 0.950 . S
H2947 C2977 0.950 . S
C2948 H2930 0.951 . S
C2948 C2949 1.366 . S
C2948 C2950 1.388 . S
C2949 C2948 1.366 . S
C2949 C2953 1.385 . S
C2950 H2931 0.951 . S
C2950 C2948 1.388 . S
C2950 C2951 1.366 . S
C2951 C2950 1.366 . S
C2951 C2952 1.414 . S
C2951 C2954 1.499 . S
C2952 H2932 0.950 . S
C2952 C2951 1.414 . S
C2952 C2953 1.374 . S
C2953 H2933 0.950 . S
C2953 C2949 1.385 . S
C2953 C2952 1.374 . S
C2954 C2951 1.499 . S
C2954 C2955 1.373 . S
C2954 C2956 1.389 . S
C2955 H2934 0.950 . S
C2955 C2954 1.373 . S
C2955 C2971 1.377 . S
C2956 C2954 1.389 . S
C2956 C2957 1.524 . S
C2956 C2970 1.377 . S
C2957 C2956 1.524 . S
C2957 C2958 1.397 . S
C2957 C2962 1.363 . S
C2958 H2935 0.950 . S
C2958 C2957 1.397 . S
C2958 C2959 1.334 . S
C2959 H2936 0.950 . S
C2959 C2958 1.334 . S
C2959 C2960 1.287 . S
C2960 C2959 1.287 . S
C2960 C2961 1.524 . S
C2960 H2979 0.913 . S
C2961 H2937 0.950 . S
C2961 C2960 1.524 . S
C2961 C2962 1.415 . S
C2962 H2938 0.950 . S
C2962 C2957 1.363 . S
C2962 C2961 1.415 . S
C2963 H2939 0.951 . S
C2963 C2964 1.366 . S
C2963 C2965 1.388 . S
C2964 C2963 1.366 . S
C2964 C2968 1.385 . S
C2965 H2940 0.951 . S
C2965 C2963 1.388 . S
C2965 C2966 1.366 . S
C2966 C2965 1.366 . S
C2966 C2967 1.414 . S
C2966 C2969 1.499 . S
C2967 H2941 0.950 . S
C2967 C2966 1.414 . S
C2967 C2968 1.374 . S
C2968 H2942 0.950 . S
C2968 C2964 1.385 . S
C2968 C2967 1.374 . S
C2969 C2966 1.499 . S
C2969 C2970 1.373 . S
C2969 C2971 1.389 . S
C2970 H2943 0.950 . S
C2970 C2956 1.377 . S
C2970 C2969 1.373 . S
C2971 C2955 1.377 . S
C2971 C2969 1.389 . S
C2971 C2972 1.524 . S
C2972 C2971 1.524 . S
C2972 C2973 1.397 . S
C2972 C2977 1.363 . S
C2973 H2944 0.950 . S
C2973 C2972 1.397 . S
C2973 C2974 1.334 . S
C2974 H2945 0.950 . S
C2974 C2973 1.334 . S
C2974 C2975 1.287 . S
C2975 C2974 1.287 . S
C2975 C2976 1.524 . S
C2975 H2978 0.999 . S
C2976 H2946 0.950 . S
C2976 C2975 1.524 . S
C2976 C2977 1.415 . S
C2977 H2947 0.950 . S
C2977 C2972 1.363 . S
C2977 C2976 1.415 . S
H2978 C2975 0.999 . S
H2979 C2960 0.913 . S
H2980 C2998 0.951 . S
H2981 C3000 0.951 . S
H2982 C3002 0.950 . S
H2983 C3003 0.950 . S
H2984 C3005 0.950 . S
H2985 C3008 0.950 . S
H2986 C3009 0.950 . S
H2987 C3011 0.950 . S
H2988 C3012 0.950 . S
H2989 C3013 0.951 . S
H2990 C3015 0.951 . S
H2991 C3017 0.950 . S
H2992 C3018 0.950 . S
H2993 C3020 0.950 . S
H2994 C3023 0.950 . S
H2995 C3024 0.950 . S
H2996 C3026 0.950 . S
H2997 C3027 0.950 . S
C2998 H2980 0.951 . S
C2998 C2999 1.366 . S
C2998 C3000 1.388 . S
C2999 C2998 1.366 . S
C2999 C3003 1.385 . S
C3000 H2981 0.951 . S
C3000 C2998 1.388 . S
C3000 C3001 1.366 . S
C3001 C3000 1.366 . S
C3001 C3002 1.414 . S
C3001 C3004 1.499 . S
C3002 H2982 0.950 . S
C3002 C3001 1.414 . S
C3002 C3003 1.374 . S
C3003 H2983 0.950 . S
C3003 C2999 1.385 . S
C3003 C3002 1.374 . S
C3004 C3001 1.499 . S
C3004 C3005 1.373 . S
C3004 C3006 1.389 . S
C3005 H2984 0.950 . S
C3005 C3004 1.373 . S
C3005 C3021 1.377 . S
C3006 C3004 1.389 . S
C3006 C3007 1.524 . S
C3006 C3020 1.377 . S
C3007 C3006 1.524 . S
C3007 C3008 1.397 . S
C3007 C3012 1.363 . S
C3008 H2985 0.950 . S
C3008 C3007 1.397 . S
C3008 C3009 1.334 . S
C3009 H2986 0.950 . S
C3009 C3008 1.334 . S
C3009 C3010 1.287 . S
C3010 C3009 1.287 . S
C3010 C3011 1.524 . S
C3010 H3029 0.913 . S
C3011 H2987 0.950 . S
C3011 C3010 1.524 . S
C3011 C3012 1.415 . S
C3012 H2988 0.950 . S
C3012 C3007 1.363 . S
C3012 C3011 1.415 . S
C3013 H2989 0.951 . S
C3013 C3014 1.366 . S
C3013 C3015 1.388 . S
C3014 C3013 1.366 . S
C3014 C3018 1.385 . S
C3015 H2990 0.951 . S
C3015 C3013 1.388 . S
C3015 C3016 1.366 . S
C3016 C3015 1.366 . S
C3016 C3017 1.414 . S
C3016 C3019 1.499 . S
C3017 H2991 0.950 . S
C3017 C3016 1.414 . S
C3017 C3018 1.374 . S
C3018 H2992 0.950 . S
C3018 C3014 1.385 . S
C3018 C3017 1.374 . S
C3019 C3016 1.499 . S
C3019 C3020 1.373 . S
C3019 C3021 1.389 . S
C3020 H2993 0.950 . S
C3020 C3006 1.377 . S
C3020 C3019 1.373 . S
C3021 C3005 1.377 . S
C3021 C3019 1.389 . S
C3021 C3022 1.524 . S
C3022 C3021 1.524 . S
C3022 C3023 1.397 . S
C3022 C3027 1.363 . S
C3023 H2994 0.950 . S
C3023 C3022 1.397 . S
C3023 C3024 1.334 . S
C3024 H2995 0.950 . S
C3024 C3023 1.334 . S
C3024 C3025 1.287 . S
C3025 C3024 1.287 . S
C3025 C3026 1.524 . S
C3025 H3028 0.999 . S
C3026 H2996 0.950 . S
C3026 C3025 1.524 . S
C3026 C3027 1.415 . S
C3027 H2997 0.950 . S
C3027 C3022 1.363 . S
C3027 C3026 1.415 . S
H3028 C3025 0.999 . S
H3029 C3010 0.913 . S
H3030 C3048 0.951 . S
H3031 C3050 0.951 . S
H3032 C3052 0.950 . S
H3033 C3053 0.950 . S
H3034 C3055 0.950 . S
H3035 C3058 0.950 . S
H3036 C3059 0.950 . S
H3037 C3061 0.950 . S
H3038 C3062 0.950 . S
H3039 C3063 0.951 . S
H3040 C3065 0.951 . S
H3041 C3067 0.950 . S
H3042 C3068 0.950 . S
H3043 C3070 0.950 . S
H3044 C3073 0.950 . S
H3045 C3074 0.950 . S
H3046 C3076 0.950 . S
H3047 C3077 0.950 . S
C3048 H3030 0.951 . S
C3048 C3049 1.366 . S
C3048 C3050 1.388 . S
C3049 C3048 1.366 . S
C3049 C3053 1.385 . S
C3050 H3031 0.951 . S
C3050 C3048 1.388 . S
C3050 C3051 1.366 . S
C3051 C3050 1.366 . S
C3051 C3052 1.414 . S
C3051 C3054 1.499 . S
C3052 H3032 0.950 . S
C3052 C3051 1.414 . S
C3052 C3053 1.374 . S
C3053 H3033 0.950 . S
C3053 C3049 1.385 . S
C3053 C3052 1.374 . S
C3054 C3051 1.499 . S
C3054 C3055 1.373 . S
C3054 C3056 1.389 . S
C3055 H3034 0.950 . S
C3055 C3054 1.373 . S
C3055 C3071 1.377 . S
C3056 C3054 1.389 . S
C3056 C3057 1.524 . S
C3056 C3070 1.377 . S
C3057 C3056 1.524 . S
C3057 C3058 1.397 . S
C3057 C3062 1.363 . S
C3058 H3035 0.950 . S
C3058 C3057 1.397 . S
C3058 C3059 1.334 . S
C3059 H3036 0.950 . S
C3059 C3058 1.334 . S
C3059 C3060 1.287 . S
C3060 C3059 1.287 . S
C3060 C3061 1.524 . S
C3060 H3079 0.913 . S
C3061 H3037 0.950 . S
C3061 C3060 1.524 . S
C3061 C3062 1.415 . S
C3062 H3038 0.950 . S
C3062 C3057 1.363 . S
C3062 C3061 1.415 . S
C3063 H3039 0.951 . S
C3063 C3064 1.366 . S
C3063 C3065 1.388 . S
C3064 C3063 1.366 . S
C3064 C3068 1.385 . S
C3065 H3040 0.951 . S
C3065 C3063 1.388 . S
C3065 C3066 1.366 . S
C3066 C3065 1.366 . S
C3066 C3067 1.414 . S
C3066 C3069 1.499 . S
C3067 H3041 0.950 . S
C3067 C3066 1.414 . S
C3067 C3068 1.374 . S
C3068 H3042 0.950 . S
C3068 C3064 1.385 . S
C3068 C3067 1.374 . S
C3069 C3066 1.499 . S
C3069 C3070 1.373 . S
C3069 C3071 1.389 . S
C3070 H3043 0.950 . S
C3070 C3056 1.377 . S
C3070 C3069 1.373 . S
C3071 C3055 1.377 . S
C3071 C3069 1.389 . S
C3071 C3072 1.524 . S
C3072 C3071 1.524 . S
C3072 C3073 1.397 . S
C3072 C3077 1.363 . S
C3073 H3044 0.950 . S
C3073 C3072 1.397 . S
C3073 C3074 1.334 . S
C3074 H3045 0.950 . S
C3074 C3073 1.334 . S
C3074 C3075 1.287 . S
C3075 C3074 1.287 . S
C3075 C3076 1.524 . S
C3075 H3078 0.999 . S
C3076 H3046 0.950 . S
C3076 C3075 1.524 . S
C3076 C3077 1.415 . S
C3077 H3047 0.950 . S
C3077 C3072 1.363 . S
C3077 C3076 1.415 . S
H3078 C3075 0.999 . S
H3079 C3060 0.913 . S
H3080 C3098 0.951 . S
H3081 C3100 0.951 . S
H3082 C3102 0.950 . S
H3083 C3103 0.950 . S
H3084 C3105 0.950 . S
H3085 C3108 0.950 . S
H3086 C3109 0.950 . S
H3087 C3111 0.950 . S
H3088 C3112 0.950 . S
H3089 C3113 0.951 . S
H3090 C3115 0.951 . S
H3091 C3117 0.950 . S
H3092 C3118 0.950 . S
H3093 C3120 0.950 . S
H3094 C3123 0.950 . S
H3095 C3124 0.950 . S
H3096 C3126 0.950 . S
H3097 C3127 0.950 . S
C3098 H3080 0.951 . S
C3098 C3099 1.366 . S
C3098 C3100 1.388 . S
C3099 C3098 1.366 . S
C3099 C3103 1.385 . S
C3100 H3081 0.951 . S
C3100 C3098 1.388 . S
C3100 C3101 1.366 . S
C3101 C3100 1.366 . S
C3101 C3102 1.414 . S
C3101 C3104 1.499 . S
C3102 H3082 0.950 . S
C3102 C3101 1.414 . S
C3102 C3103 1.374 . S
C3103 H3083 0.950 . S
C3103 C3099 1.385 . S
C3103 C3102 1.374 . S
C3104 C3101 1.499 . S
C3104 C3105 1.373 . S
C3104 C3106 1.389 . S
C3105 H3084 0.950 . S
C3105 C3104 1.373 . S
C3105 C3121 1.377 . S
C3106 C3104 1.389 . S
C3106 C3107 1.524 . S
C3106 C3120 1.377 . S
C3107 C3106 1.524 . S
C3107 C3108 1.397 . S
C3107 C3112 1.363 . S
C3108 H3085 0.950 . S
C3108 C3107 1.397 . S
C3108 C3109 1.334 . S
C3109 H3086 0.950 . S
C3109 C3108 1.334 . S
C3109 C3110 1.287 . S
C3110 C3109 1.287 . S
C3110 C3111 1.524 . S
C3110 H3129 0.913 . S
C3111 H3087 0.950 . S
C3111 C3110 1.524 . S
C3111 C3112 1.415 . S
C3112 H3088 0.950 . S
C3112 C3107 1.363 . S
C3112 C3111 1.415 . S
C3113 H3089 0.951 . S
C3113 C3114 1.366 . S
C3113 C3115 1.388 . S
C3114 C3113 1.366 . S
C3114 C3118 1.385 . S
C3115 H3090 0.951 . S
C3115 C3113 1.388 . S
C3115 C3116 1.366 . S
C3116 C3115 1.366 . S
C3116 C3117 1.414 . S
C3116 C3119 1.499 . S
C3117 H3091 0.950 . S
C3117 C3116 1.414 . S
C3117 C3118 1.374 . S
C3118 H3092 0.950 . S
C3118 C3114 1.385 . S
C3118 C3117 1.374 . S
C3119 C3116 1.499 . S
C3119 C3120 1.373 . S
C3119 C3121 1.389 . S
C3120 H3093 0.950 . S
C3120 C3106 1.377 . S
C3120 C3119 1.373 . S
C3121 C3105 1.377 . S
C3121 C3119 1.389 . S
C3121 C3122 1.524 . S
C3122 C3121 1.524 . S
C3122 C3123 1.397 . S
C3122 C3127 1.363 . S
C3123 H3094 0.950 . S
C3123 C3122 1.397 . S
C3123 C3124 1.334 . S
C3124 H3095 0.950 . S
C3124 C3123 1.334 . S
C3124 C3125 1.287 . S
C3125 C3124 1.287 . S
C3125 C3126 1.524 . S
C3125 H3128 0.999 . S
C3126 H3096 0.950 . S
C3126 C3125 1.524 . S
C3126 C3127 1.415 . S
C3127 H3097 0.950 . S
C3127 C3122 1.363 . S
C3127 C3126 1.415 . S
H3128 C3125 0.999 . S
H3129 C3110 0.913 . S
H3130 C3148 0.951 . S
H3131 C3150 0.951 . S
H3132 C3152 0.950 . S
H3133 C3153 0.950 . S
H3134 C3155 0.950 . S
H3135 C3158 0.950 . S
H3136 C3159 0.950 . S
H3137 C3161 0.950 . S
H3138 C3162 0.950 . S
H3139 C3163 0.951 . S
H3140 C3165 0.951 . S
H3141 C3167 0.950 . S
H3142 C3168 0.950 . S
H3143 C3170 0.950 . S
H3144 C3173 0.950 . S
H3145 C3174 0.950 . S
H3146 C3176 0.950 . S
H3147 C3177 0.950 . S
C3148 H3130 0.951 . S
C3148 C3149 1.366 . S
C3148 C3150 1.388 . S
C3149 C3148 1.366 . S
C3149 C3153 1.385 . S
C3150 H3131 0.951 . S
C3150 C3148 1.388 . S
C3150 C3151 1.366 . S
C3151 C3150 1.366 . S
C3151 C3152 1.414 . S
C3151 C3154 1.499 . S
C3152 H3132 0.950 . S
C3152 C3151 1.414 . S
C3152 C3153 1.374 . S
C3153 H3133 0.950 . S
C3153 C3149 1.385 . S
C3153 C3152 1.374 . S
C3154 C3151 1.499 . S
C3154 C3155 1.373 . S
C3154 C3156 1.389 . S
C3155 H3134 0.950 . S
C3155 C3154 1.373 . S
C3155 C3171 1.377 . S
C3156 C3154 1.389 . S
C3156 C3157 1.524 . S
C3156 C3170 1.377 . S
C3157 C3156 1.524 . S
C3157 C3158 1.397 . S
C3157 C3162 1.363 . S
C3158 H3135 0.950 . S
C3158 C3157 1.397 . S
C3158 C3159 1.334 . S
C3159 H3136 0.950 . S
C3159 C3158 1.334 . S
C3159 C3160 1.287 . S
C3160 C3159 1.287 . S
C3160 C3161 1.524 . S
C3160 H3179 0.913 . S
C3161 H3137 0.950 . S
C3161 C3160 1.524 . S
C3161 C3162 1.415 . S
C3162 H3138 0.950 . S
C3162 C3157 1.363 . S
C3162 C3161 1.415 . S
C3163 H3139 0.951 . S
C3163 C3164 1.366 . S
C3163 C3165 1.388 . S
C3164 C3163 1.366 . S
C3164 C3168 1.385 . S
C3165 H3140 0.951 . S
C3165 C3163 1.388 . S
C3165 C3166 1.366 . S
C3166 C3165 1.366 . S
C3166 C3167 1.414 . S
C3166 C3169 1.499 . S
C3167 H3141 0.950 . S
C3167 C3166 1.414 . S
C3167 C3168 1.374 . S
C3168 H3142 0.950 . S
C3168 C3164 1.385 . S
C3168 C3167 1.374 . S
C3169 C3166 1.499 . S
C3169 C3170 1.373 . S
C3169 C3171 1.389 . S
C3170 H3143 0.950 . S
C3170 C3156 1.377 . S
C3170 C3169 1.373 . S
C3171 C3155 1.377 . S
C3171 C3169 1.389 . S
C3171 C3172 1.524 . S
C3172 C3171 1.524 . S
C3172 C3173 1.397 . S
C3172 C3177 1.363 . S
C3173 H3144 0.950 . S
C3173 C3172 1.397 . S
C3173 C3174 1.334 . S
C3174 H3145 0.950 . S
C3174 C3173 1.334 . S
C3174 C3175 1.287 . S
C3175 C3174 1.287 . S
C3175 C3176 1.524 . S
C3175 H3178 0.999 . S
C3176 H3146 0.950 . S
C3176 C3175 1.524 . S
C3176 C3177 1.415 . S
C3177 H3147 0.950 . S
C3177 C3172 1.363 . S
C3177 C3176 1.415 . S
H3178 C3175 0.999 . S
H3179 C3160 0.913 . S
H3180 C3198 0.951 . S
H3181 C3200 0.951 . S
H3182 C3202 0.950 . S
H3183 C3203 0.950 . S
H3184 C3205 0.950 . S
H3185 C3208 0.950 . S
H3186 C3209 0.950 . S
H3187 C3211 0.950 . S
H3188 C3212 0.950 . S
H3189 C3213 0.951 . S
H3190 C3215 0.964 . S
H3191 C3217 0.950 . S
H3192 C3218 0.979 . S
H3193 C3220 0.950 . S
H3194 C3223 0.950 . S
H3195 C3224 0.950 . S
H3196 C3226 0.950 . S
H3197 C3227 0.950 . S
C3198 H3180 0.951 . S
C3198 C3199 1.366 . S
C3198 C3200 1.388 . S
C3199 C3198 1.366 . S
C3199 C3203 1.385 . S
C3200 H3181 0.951 . S
C3200 C3198 1.388 . S
C3200 C3201 1.366 . S
C3201 C3200 1.366 . S
C3201 C3202 1.414 . S
C3201 C3204 1.499 . S
C3202 H3182 0.950 . S
C3202 C3201 1.414 . S
C3202 C3203 1.374 . S
C3203 H3183 0.950 . S
C3203 C3199 1.385 . S
C3203 C3202 1.374 . S
C3204 C3201 1.499 . S
C3204 C3205 1.373 . S
C3204 C3206 1.389 . S
C3205 H3184 0.950 . S
C3205 C3204 1.373 . S
C3205 C3221 1.377 . S
C3206 C3204 1.389 . S
C3206 C3207 1.524 . S
C3206 C3220 1.377 . S
C3207 C3206 1.524 . S
C3207 C3208 1.397 . S
C3207 C3212 1.363 . S
C3208 H3185 0.950 . S
C3208 C3207 1.397 . S
C3208 C3209 1.334 . S
C3209 H3186 0.950 . S
C3209 C3208 1.334 . S
C3209 C3210 1.287 . S
C3210 C3209 1.287 . S
C3210 C3211 1.524 . S
C3210 H3229 0.913 . S
C3211 H3187 0.950 . S
C3211 C3210 1.524 . S
C3211 C3212 1.415 . S
C3212 H3188 0.950 . S
C3212 C3207 1.363 . S
C3212 C3211 1.415 . S
C3213 H3189 0.951 . S
C3213 C3214 1.366 1_564 S
C3213 C3215 1.388 1_554 S
C3214 C3213 1.366 1_546 S
C3214 C3218 1.386 . S
C3215 H3190 0.964 . S
C3215 C3213 1.388 1_556 S
C3215 C3216 1.366 . S
C3216 C3215 1.366 . S
C3216 C3217 1.414 . S
C3216 C3219 1.499 . S
C3217 H3191 0.950 . S
C3217 C3216 1.414 . S
C3217 C3218 1.344 1_565 S
C3218 H3192 0.979 . S
C3218 C3214 1.386 . S
C3218 C3217 1.344 1_545 S
C3219 C3216 1.499 . S
C3219 C3220 1.373 . S
C3219 C3221 1.389 . S
C3220 H3193 0.950 . S
C3220 C3206 1.377 . S
C3220 C3219 1.373 . S
C3221 C3205 1.377 . S
C3221 C3219 1.389 . S
C3221 C3222 1.524 . S
C3222 C3221 1.524 . S
C3222 C3223 1.397 . S
C3222 C3227 1.363 . S
C3223 H3194 0.950 . S
C3223 C3222 1.397 . S
C3223 C3224 1.334 . S
C3224 H3195 0.950 . S
C3224 C3223 1.334 . S
C3224 C3225 1.287 1_556 S
C3225 C3224 1.287 1_554 S
C3225 C3226 1.524 . S
C3225 H3228 0.999 . S
C3226 H3196 0.950 . S
C3226 C3225 1.524 . S
C3226 C3227 1.415 1_554 S
C3227 H3197 0.950 . S
C3227 C3222 1.363 . S
C3227 C3226 1.415 1_556 S
H3228 C3225 0.999 . S
H3229 C3210 0.913 . S
H3230 C3248 0.951 . S
H3231 C3250 0.951 . S
H3232 C3252 0.950 . S
H3233 C3253 0.950 . S
H3234 C3255 0.950 . S
H3235 C3258 0.950 . S
H3236 C3259 0.950 . S
H3237 C3261 0.950 . S
H3238 C3262 0.950 . S
H3239 C3263 0.951 . S
H3240 C3265 0.951 . S
H3241 C3267 0.950 . S
H3242 C3268 0.950 . S
H3243 C3270 0.950 . S
H3244 C3273 0.950 . S
H3245 C3274 0.950 . S
H3246 C3276 0.950 . S
H3247 C3277 0.950 . S
C3248 H3230 0.951 . S
C3248 C3249 1.366 . S
C3248 C3250 1.388 . S
C3249 C3248 1.366 . S
C3249 C3253 1.385 . S
C3250 H3231 0.951 . S
C3250 C3248 1.388 . S
C3250 C3251 1.366 . S
C3251 C3250 1.366 . S
C3251 C3252 1.414 . S
C3251 C3254 1.499 . S
C3252 H3232 0.950 . S
C3252 C3251 1.414 . S
C3252 C3253 1.374 . S
C3253 H3233 0.950 . S
C3253 C3249 1.385 . S
C3253 C3252 1.374 . S
C3254 C3251 1.499 . S
C3254 C3255 1.373 . S
C3254 C3256 1.389 . S
C3255 H3234 0.950 . S
C3255 C3254 1.373 . S
C3255 C3271 1.377 . S
C3256 C3254 1.389 . S
C3256 C3257 1.524 . S
C3256 C3270 1.377 . S
C3257 C3256 1.524 . S
C3257 C3258 1.397 . S
C3257 C3262 1.363 . S
C3258 H3235 0.950 . S
C3258 C3257 1.397 . S
C3258 C3259 1.334 . S
C3259 H3236 0.950 . S
C3259 C3258 1.334 . S
C3259 C3260 1.287 . S
C3260 C3259 1.287 . S
C3260 C3261 1.524 . S
C3260 H3279 0.913 . S
C3261 H3237 0.950 . S
C3261 C3260 1.524 . S
C3261 C3262 1.415 . S
C3262 H3238 0.950 . S
C3262 C3257 1.363 . S
C3262 C3261 1.415 . S
C3263 H3239 0.951 . S
C3263 C3264 1.366 . S
C3263 C3265 1.388 . S
C3264 C3263 1.366 . S
C3264 C3268 1.385 . S
C3265 H3240 0.951 . S
C3265 C3263 1.388 . S
C3265 C3266 1.366 . S
C3266 C3265 1.366 . S
C3266 C3267 1.414 . S
C3266 C3269 1.499 . S
C3267 H3241 0.950 . S
C3267 C3266 1.414 . S
C3267 C3268 1.374 . S
C3268 H3242 0.950 . S
C3268 C3264 1.385 . S
C3268 C3267 1.374 . S
C3269 C3266 1.499 . S
C3269 C3270 1.373 . S
C3269 C3271 1.389 . S
C3270 H3243 0.950 . S
C3270 C3256 1.377 . S
C3270 C3269 1.373 . S
C3271 C3255 1.377 . S
C3271 C3269 1.389 . S
C3271 C3272 1.524 . S
C3272 C3271 1.524 . S
C3272 C3273 1.397 . S
C3272 C3277 1.363 . S
C3273 H3244 0.950 . S
C3273 C3272 1.397 . S
C3273 C3274 1.334 . S
C3274 H3245 0.950 . S
C3274 C3273 1.334 . S
C3274 C3275 1.287 . S
C3275 C3274 1.287 . S
C3275 C3276 1.524 . S
C3275 H3278 0.999 . S
C3276 H3246 0.950 . S
C3276 C3275 1.524 . S
C3276 C3277 1.415 . S
C3277 H3247 0.950 . S
C3277 C3272 1.363 . S
C3277 C3276 1.415 . S
H3278 C3275 0.999 . S
H3279 C3260 0.913 . S
H3280 C3298 0.951 . S
H3281 C3300 0.951 . S
H3282 C3302 0.950 . S
H3283 C3303 0.950 . S
H3284 C3305 0.947 1_565 S
H3285 C3308 0.950 1_565 S
H3286 C3309 0.950 . S
H3287 C3311 0.950 . S
H3288 C3312 0.950 . S
H3289 C3313 0.951 1_565 S
H3290 C3315 0.951 1_565 S
H3291 C3317 0.950 . S
H3292 C3318 0.950 . S
H3293 C3320 0.950 . S
H3294 C3323 0.950 . S
H3295 C3324 0.950 . S
H3296 C3326 0.950 . S
H3297 C3327 0.950 . S
C3298 H3280 0.951 . S
C3298 C3299 1.366 . S
C3298 C3300 1.388 . S
C3299 C3298 1.366 . S
C3299 C3303 1.385 1_545 S
C3300 H3281 0.951 . S
C3300 C3298 1.388 . S
C3300 C3301 1.366 . S
C3301 C3300 1.366 . S
C3301 C3302 1.414 1_545 S
C3301 C3304 1.499 . S
C3302 H3282 0.950 . S
C3302 C3301 1.414 1_565 S
C3302 C3303 1.374 . S
C3303 H3283 0.950 . S
C3303 C3299 1.385 1_565 S
C3303 C3302 1.374 . S
C3304 C3301 1.499 . S
C3304 C3305 1.373 . S
C3304 C3306 1.389 . S
C3305 H3284 0.947 1_545 S
C3305 C3304 1.373 . S
C3305 C3321 1.377 . S
C3306 C3304 1.389 . S
C3306 C3307 1.524 . S
C3306 C3320 1.377 . S
C3307 C3306 1.524 . S
C3307 C3308 1.397 . S
C3307 C3312 1.363 . S
C3308 H3285 0.950 1_545 S
C3308 C3307 1.397 . S
C3308 C3309 1.334 . S
C3309 H3286 0.950 . S
C3309 C3308 1.334 . S
C3309 C3310 1.287 . S
C3310 C3309 1.287 . S
C3310 C3311 1.524 . S
C3310 H3329 0.913 . S
C3311 H3287 0.950 . S
C3311 C3310 1.524 . S
C3311 C3312 1.415 . S
C3312 H3288 0.950 . S
C3312 C3307 1.363 . S
C3312 C3311 1.415 . S
C3313 H3289 0.951 1_545 S
C3313 C3314 1.366 . S
C3313 C3315 1.388 . S
C3314 C3313 1.366 . S
C3314 C3318 1.385 . S
C3315 H3290 0.951 1_545 S
C3315 C3313 1.388 . S
C3315 C3316 1.366 . S
C3316 C3315 1.366 . S
C3316 C3317 1.414 . S
C3316 C3319 1.499 . S
C3317 H3291 0.950 . S
C3317 C3316 1.414 . S
C3317 C3318 1.374 . S
C3318 H3292 0.950 . S
C3318 C3314 1.385 . S
C3318 C3317 1.374 . S
C3319 C3316 1.499 . S
C3319 C3320 1.373 . S
C3319 C3321 1.389 . S
C3320 H3293 0.950 . S
C3320 C3306 1.377 . S
C3320 C3319 1.373 . S
C3321 C3305 1.377 . S
C3321 C3319 1.389 . S
C3321 C3322 1.524 . S
C3322 C3321 1.524 . S
C3322 C3323 1.397 . S
C3322 C3327 1.363 1_545 S
C3323 H3294 0.950 . S
C3323 C3322 1.397 . S
C3323 C3324 1.334 . S
C3324 H3295 0.950 . S
C3324 C3323 1.334 . S
C3324 C3325 1.287 1_545 S
C3325 C3324 1.287 1_565 S
C3325 C3326 1.524 . S
C3325 H3328 0.999 . S
C3326 H3296 0.950 . S
C3326 C3325 1.524 . S
C3326 C3327 1.415 . S
C3327 H3297 0.950 . S
C3327 C3322 1.363 1_565 S
C3327 C3326 1.415 . S
H3328 C3325 0.999 . S
H3329 C3310 0.913 . S
H3330 C3348 0.951 . S
H3331 C3350 0.951 . S
H3332 C3352 0.950 . S
H3333 C3353 0.950 . S
H3334 C3355 0.950 . S
H3335 C3358 0.950 . S
H3336 C3359 0.950 . S
H3337 C3361 0.950 . S
H3338 C3362 0.950 . S
H3339 C3363 0.951 . S
H3340 C3365 0.951 . S
H3341 C3367 0.950 . S
H3342 C3368 0.950 . S
H3343 C3370 0.950 . S
H3344 C3373 0.950 . S
H3345 C3374 0.950 . S
H3346 C3376 0.950 . S
H3347 C3377 0.950 . S
C3348 H3330 0.951 . S
C3348 C3349 1.366 . S
C3348 C3350 1.388 . S
C3349 C3348 1.366 . S
C3349 C3353 1.385 . S
C3350 H3331 0.951 . S
C3350 C3348 1.388 . S
C3350 C3351 1.366 . S
C3351 C3350 1.366 . S
C3351 C3352 1.414 . S
C3351 C3354 1.499 . S
C3352 H3332 0.950 . S
C3352 C3351 1.414 . S
C3352 C3353 1.374 . S
C3353 H3333 0.950 . S
C3353 C3349 1.385 . S
C3353 C3352 1.374 . S
C3354 C3351 1.499 . S
C3354 C3355 1.373 . S
C3354 C3356 1.389 . S
C3355 H3334 0.950 . S
C3355 C3354 1.373 . S
C3355 C3371 1.377 . S
C3356 C3354 1.389 . S
C3356 C3357 1.524 . S
C3356 C3370 1.377 . S
C3357 C3356 1.524 . S
C3357 C3358 1.397 . S
C3357 C3362 1.363 . S
C3358 H3335 0.950 . S
C3358 C3357 1.397 . S
C3358 C3359 1.334 . S
C3359 H3336 0.950 . S
C3359 C3358 1.334 . S
C3359 C3360 1.287 . S
C3360 C3359 1.287 . S
C3360 C3361 1.524 . S
C3360 H3379 0.913 . S
C3361 H3337 0.950 . S
C3361 C3360 1.524 . S
C3361 C3362 1.415 . S
C3362 H3338 0.950 . S
C3362 C3357 1.363 . S
C3362 C3361 1.415 . S
C3363 H3339 0.951 . S
C3363 C3364 1.366 . S
C3363 C3365 1.388 . S
C3364 C3363 1.366 . S
C3364 C3368 1.385 . S
C3365 H3340 0.951 . S
C3365 C3363 1.388 . S
C3365 C3366 1.366 . S
C3366 C3365 1.366 . S
C3366 C3367 1.414 . S
C3366 C3369 1.499 . S
C3367 H3341 0.950 . S
C3367 C3366 1.414 . S
C3367 C3368 1.374 . S
C3368 H3342 0.950 . S
C3368 C3364 1.385 . S
C3368 C3367 1.374 . S
C3369 C3366 1.499 . S
C3369 C3370 1.373 . S
C3369 C3371 1.389 . S
C3370 H3343 0.950 . S
C3370 C3356 1.377 . S
C3370 C3369 1.373 . S
C3371 C3355 1.377 . S
C3371 C3369 1.389 . S
C3371 C3372 1.524 . S
C3372 C3371 1.524 . S
C3372 C3373 1.397 . S
C3372 C3377 1.363 . S
C3373 H3344 0.950 . S
C3373 C3372 1.397 . S
C3373 C3374 1.334 . S
C3374 H3345 0.950 . S
C3374 C3373 1.334 . S
C3374 C3375 1.287 . S
C3375 C3374 1.287 . S
C3375 C3376 1.524 . S
C3375 H3378 0.999 . S
C3376 H3346 0.950 . S
C3376 C3375 1.524 . S
C3376 C3377 1.415 . S
C3377 H3347 0.950 . S
C3377 C3372 1.363 . S
C3377 C3376 1.415 . S
H3378 C3375 0.999 . S
H3379 C3360 0.913 . S
H3380 C3398 0.951 . S
H3381 C3400 0.951 . S
H3382 C3402 0.950 . S
H3383 C3403 0.950 . S
H3384 C3405 0.950 . S
H3385 C3408 0.950 . S
H3386 C3409 0.950 . S
H3387 C3411 0.950 . S
H3388 C3412 0.950 . S
H3389 C3413 0.951 . S
H3390 C3415 0.951 . S
H3391 C3417 0.950 . S
H3392 C3418 0.950 . S
H3393 C3420 0.950 . S
H3394 C3423 0.950 . S
H3395 C3424 0.950 . S
H3396 C3426 0.950 . S
H3397 C3427 0.950 . S
C3398 H3380 0.951 . S
C3398 C3399 1.366 . S
C3398 C3400 1.388 . S
C3399 C3398 1.366 . S
C3399 C3403 1.385 . S
C3400 H3381 0.951 . S
C3400 C3398 1.388 . S
C3400 C3401 1.366 . S
C3401 C3400 1.366 . S
C3401 C3402 1.414 . S
C3401 C3404 1.499 . S
C3402 H3382 0.950 . S
C3402 C3401 1.414 . S
C3402 C3403 1.374 . S
C3403 H3383 0.950 . S
C3403 C3399 1.385 . S
C3403 C3402 1.374 . S
C3404 C3401 1.499 . S
C3404 C3405 1.373 . S
C3404 C3406 1.389 . S
C3405 H3384 0.950 . S
C3405 C3404 1.373 . S
C3405 C3421 1.377 . S
C3406 C3404 1.389 . S
C3406 C3407 1.524 . S
C3406 C3420 1.377 . S
C3407 C3406 1.524 . S
C3407 C3408 1.397 . S
C3407 C3412 1.363 . S
C3408 H3385 0.950 . S
C3408 C3407 1.397 . S
C3408 C3409 1.334 . S
C3409 H3386 0.950 . S
C3409 C3408 1.334 . S
C3409 C3410 1.287 . S
C3410 C3409 1.287 . S
C3410 C3411 1.524 . S
C3410 H3429 0.913 . S
C3411 H3387 0.950 . S
C3411 C3410 1.524 . S
C3411 C3412 1.415 . S
C3412 H3388 0.950 . S
C3412 C3407 1.363 . S
C3412 C3411 1.415 . S
C3413 H3389 0.951 . S
C3413 C3414 1.366 . S
C3413 C3415 1.388 . S
C3414 C3413 1.366 . S
C3414 C3418 1.385 . S
C3415 H3390 0.951 . S
C3415 C3413 1.388 . S
C3415 C3416 1.366 . S
C3416 C3415 1.366 . S
C3416 C3417 1.414 . S
C3416 C3419 1.499 . S
C3417 H3391 0.950 . S
C3417 C3416 1.414 . S
C3417 C3418 1.374 . S
C3418 H3392 0.950 . S
C3418 C3414 1.385 . S
C3418 C3417 1.374 . S
C3419 C3416 1.499 . S
C3419 C3420 1.373 . S
C3419 C3421 1.389 . S
C3420 H3393 0.950 . S
C3420 C3406 1.377 . S
C3420 C3419 1.373 . S
C3421 C3405 1.377 . S
C3421 C3419 1.389 . S
C3421 C3422 1.524 . S
C3422 C3421 1.524 . S
C3422 C3423 1.397 . S
C3422 C3427 1.363 . S
C3423 H3394 0.950 . S
C3423 C3422 1.397 . S
C3423 C3424 1.334 . S
C3424 H3395 0.950 . S
C3424 C3423 1.334 . S
C3424 C3425 1.287 . S
C3425 C3424 1.287 . S
C3425 C3426 1.524 . S
C3425 H3428 0.999 . S
C3426 H3396 0.950 . S
C3426 C3425 1.524 . S
C3426 C3427 1.415 . S
C3427 H3397 0.950 . S
C3427 C3422 1.363 . S
C3427 C3426 1.415 . S
H3428 C3425 0.999 . S
H3429 C3410 0.913 . S
H3430 C3448 0.951 . S
H3431 C3450 0.951 . S
H3432 C3452 0.950 . S
H3433 C3453 0.950 . S
H3434 C3455 0.950 . S
H3435 C3458 0.950 . S
H3436 C3459 0.950 . S
H3437 C3461 0.950 . S
H3438 C3462 0.950 . S
H3439 C3463 0.951 . S
H3440 C3465 0.951 . S
H3441 C3467 0.950 . S
H3442 C3468 0.950 . S
H3443 C3470 0.950 . S
H3444 C3473 0.950 . S
H3445 C3474 0.950 . S
H3446 C3476 0.950 . S
H3447 C3477 0.950 . S
C3448 H3430 0.951 . S
C3448 C3449 1.366 . S
C3448 C3450 1.388 . S
C3449 C3448 1.366 . S
C3449 C3453 1.385 . S
C3450 H3431 0.951 . S
C3450 C3448 1.388 . S
C3450 C3451 1.366 . S
C3451 C3450 1.366 . S
C3451 C3452 1.414 . S
C3451 C3454 1.499 . S
C3452 H3432 0.950 . S
C3452 C3451 1.414 . S
C3452 C3453 1.374 . S
C3453 H3433 0.950 . S
C3453 C3449 1.385 . S
C3453 C3452 1.374 . S
C3454 C3451 1.499 . S
C3454 C3455 1.373 . S
C3454 C3456 1.389 . S
C3455 H3434 0.950 . S
C3455 C3454 1.373 . S
C3455 C3471 1.377 . S
C3456 C3454 1.389 . S
C3456 C3457 1.524 . S
C3456 C3470 1.377 . S
C3457 C3456 1.524 . S
C3457 C3458 1.397 . S
C3457 C3462 1.363 . S
C3458 H3435 0.950 . S
C3458 C3457 1.397 . S
C3458 C3459 1.334 . S
C3459 H3436 0.950 . S
C3459 C3458 1.334 . S
C3459 C3460 1.287 . S
C3460 C3459 1.287 . S
C3460 C3461 1.524 . S
C3460 H3479 0.913 . S
C3461 H3437 0.950 . S
C3461 C3460 1.524 . S
C3461 C3462 1.415 . S
C3462 H3438 0.950 . S
C3462 C3457 1.363 . S
C3462 C3461 1.415 . S
C3463 H3439 0.951 . S
C3463 C3464 1.366 . S
C3463 C3465 1.388 . S
C3464 C3463 1.366 . S
C3464 C3468 1.385 . S
C3465 H3440 0.951 . S
C3465 C3463 1.388 . S
C3465 C3466 1.366 . S
C3466 C3465 1.366 . S
C3466 C3467 1.414 . S
C3466 C3469 1.499 . S
C3467 H3441 0.950 . S
C3467 C3466 1.414 . S
C3467 C3468 1.374 . S
C3468 H3442 0.950 . S
C3468 C3464 1.385 . S
C3468 C3467 1.374 . S
C3469 C3466 1.499 . S
C3469 C3470 1.373 . S
C3469 C3471 1.389 . S
C3470 H3443 0.950 . S
C3470 C3456 1.377 . S
C3470 C3469 1.373 . S
C3471 C3455 1.377 . S
C3471 C3469 1.389 . S
C3471 C3472 1.524 . S
C3472 C3471 1.524 . S
C3472 C3473 1.397 . S
C3472 C3477 1.363 . S
C3473 H3444 0.950 . S
C3473 C3472 1.397 . S
C3473 C3474 1.334 . S
C3474 H3445 0.950 . S
C3474 C3473 1.334 . S
C3474 C3475 1.287 . S
C3475 C3474 1.287 . S
C3475 C3476 1.524 . S
C3475 H3478 0.999 . S
C3476 H3446 0.950 . S
C3476 C3475 1.524 . S
C3476 C3477 1.415 . S
C3477 H3447 0.950 . S
C3477 C3472 1.363 . S
C3477 C3476 1.415 . S
H3478 C3475 0.999 . S
H3479 C3460 0.913 . S
H3480 C3498 0.951 . S
H3481 C3500 0.951 . S
H3482 C3502 0.950 . S
H3483 C3503 0.950 . S
H3484 C3505 0.950 . S
H3485 C3508 0.950 . S
H3486 C3509 0.950 . S
H3487 C3511 0.950 . S
H3488 C3512 0.950 . S
H3489 C3513 0.951 . S
H3490 C3515 0.951 . S
H3491 C3517 0.950 . S
H3492 C3518 0.950 . S
H3493 C3520 0.937 1_565 S
H3494 C3523 0.950 . S
H3495 C3524 0.950 . S
H3496 C3526 0.950 . S
H3497 C3527 0.950 . S
C3498 H3480 0.951 . S
C3498 C3499 1.366 . S
C3498 C3500 1.388 . S
C3499 C3498 1.366 . S
C3499 C3503 1.385 1_565 S
C3500 H3481 0.951 . S
C3500 C3498 1.388 . S
C3500 C3501 1.366 1_565 S
C3501 C3500 1.366 1_545 S
C3501 C3502 1.414 . S
C3501 C3504 1.499 . S
C3502 H3482 0.950 . S
C3502 C3501 1.414 . S
C3502 C3503 1.374 . S
C3503 H3483 0.950 . S
C3503 C3499 1.385 1_545 S
C3503 C3502 1.374 . S
C3504 C3501 1.499 . S
C3504 C3505 1.373 . S
C3504 C3506 1.389 1_545 S
C3505 H3484 0.950 . S
C3505 C3504 1.373 . S
C3505 C3521 1.377 . S
C3506 C3504 1.389 1_565 S
C3506 C3507 1.524 . S
C3506 C3520 1.354 1_565 S
C3507 C3506 1.524 . S
C3507 C3508 1.397 . S
C3507 C3512 1.363 . S
C3508 H3485 0.950 . S
C3508 C3507 1.397 . S
C3508 C3509 1.334 . S
C3509 H3486 0.950 . S
C3509 C3508 1.334 . S
C3509 C3510 1.287 . S
C3510 C3509 1.287 . S
C3510 C3511 1.524 . S
C3510 H3529 0.913 . S
C3511 H3487 0.950 . S
C3511 C3510 1.524 . S
C3511 C3512 1.415 . S
C3512 H3488 0.950 . S
C3512 C3507 1.363 . S
C3512 C3511 1.415 . S
C3513 H3489 0.951 . S
C3513 C3514 1.366 . S
C3513 C3515 1.388 . S
C3514 C3513 1.366 . S
C3514 C3518 1.385 . S
C3515 H3490 0.951 . S
C3515 C3513 1.388 . S
C3515 C3516 1.366 . S
C3516 C3515 1.366 . S
C3516 C3517 1.414 . S
C3516 C3519 1.499 . S
C3517 H3491 0.950 . S
C3517 C3516 1.414 . S
C3517 C3518 1.374 . S
C3518 H3492 0.950 . S
C3518 C3514 1.385 . S
C3518 C3517 1.374 . S
C3519 C3516 1.499 . S
C3519 C3520 1.410 . S
C3519 C3521 1.389 . S
C3520 H3493 0.937 1_545 S
C3520 C3506 1.354 1_545 S
C3520 C3519 1.410 . S
C3521 C3505 1.377 . S
C3521 C3519 1.389 . S
C3521 C3522 1.524 . S
C3522 C3521 1.524 . S
C3522 C3523 1.397 . S
C3522 C3527 1.363 . S
C3523 H3494 0.950 . S
C3523 C3522 1.397 . S
C3523 C3524 1.334 . S
C3524 H3495 0.950 . S
C3524 C3523 1.334 . S
C3524 C3525 1.287 . S
C3525 C3524 1.287 . S
C3525 C3526 1.524 . S
C3525 H3528 0.999 . S
C3526 H3496 0.950 . S
C3526 C3525 1.524 . S
C3526 C3527 1.415 . S
C3527 H3497 0.950 . S
C3527 C3522 1.363 . S
C3527 C3526 1.415 . S
H3528 C3525 0.999 . S
H3529 C3510 0.913 . S
H3530 C3548 0.951 . S
H3531 C3550 0.951 . S
H3532 C3552 0.950 . S
H3533 C3553 0.950 . S
H3534 C3555 0.950 . S
H3535 C3558 0.950 . S
H3536 C3559 0.950 . S
H3537 C3561 0.950 . S
H3538 C3562 0.950 . S
H3539 C3563 0.951 . S
H3540 C3565 0.951 . S
H3541 C3567 0.950 . S
H3542 C3568 0.950 . S
H3543 C3570 0.950 . S
H3544 C3573 0.950 . S
H3545 C3574 0.950 . S
H3546 C3576 0.950 . S
H3547 C3577 0.950 . S
C3548 H3530 0.951 . S
C3548 C3549 1.366 . S
C3548 C3550 1.388 . S
C3549 C3548 1.366 . S
C3549 C3553 1.385 . S
C3550 H3531 0.951 . S
C3550 C3548 1.388 . S
C3550 C3551 1.366 . S
C3551 C3550 1.366 . S
C3551 C3552 1.414 . S
C3551 C3554 1.499 . S
C3552 H3532 0.950 . S
C3552 C3551 1.414 . S
C3552 C3553 1.374 . S
C3553 H3533 0.950 . S
C3553 C3549 1.385 . S
C3553 C3552 1.374 . S
C3554 C3551 1.499 . S
C3554 C3555 1.373 . S
C3554 C3556 1.389 . S
C3555 H3534 0.950 . S
C3555 C3554 1.373 . S
C3555 C3571 1.377 . S
C3556 C3554 1.389 . S
C3556 C3557 1.524 . S
C3556 C3570 1.377 . S
C3557 C3556 1.524 . S
C3557 C3558 1.397 . S
C3557 C3562 1.363 . S
C3558 H3535 0.950 . S
C3558 C3557 1.397 . S
C3558 C3559 1.334 . S
C3559 H3536 0.950 . S
C3559 C3558 1.334 . S
C3559 C3560 1.287 . S
C3560 C3559 1.287 . S
C3560 C3561 1.524 . S
C3560 H3579 0.913 . S
C3561 H3537 0.950 . S
C3561 C3560 1.524 . S
C3561 C3562 1.415 . S
C3562 H3538 0.950 . S
C3562 C3557 1.363 . S
C3562 C3561 1.415 . S
C3563 H3539 0.951 . S
C3563 C3564 1.366 . S
C3563 C3565 1.388 . S
C3564 C3563 1.366 . S
C3564 C3568 1.385 . S
C3565 H3540 0.951 . S
C3565 C3563 1.388 . S
C3565 C3566 1.366 . S
C3566 C3565 1.366 . S
C3566 C3567 1.414 . S
C3566 C3569 1.499 . S
C3567 H3541 0.950 . S
C3567 C3566 1.414 . S
C3567 C3568 1.374 . S
C3568 H3542 0.950 . S
C3568 C3564 1.385 . S
C3568 C3567 1.374 . S
C3569 C3566 1.499 . S
C3569 C3570 1.373 . S
C3569 C3571 1.389 . S
C3570 H3543 0.950 . S
C3570 C3556 1.377 . S
C3570 C3569 1.373 . S
C3571 C3555 1.377 . S
C3571 C3569 1.389 . S
C3571 C3572 1.524 . S
C3572 C3571 1.524 . S
C3572 C3573 1.397 . S
C3572 C3577 1.363 . S
C3573 H3544 0.950 . S
C3573 C3572 1.397 . S
C3573 C3574 1.334 . S
C3574 H3545 0.950 . S
C3574 C3573 1.334 . S
C3574 C3575 1.287 . S
C3575 C3574 1.287 . S
C3575 C3576 1.524 . S
C3575 H3578 0.999 . S
C3576 H3546 0.950 . S
C3576 C3575 1.524 . S
C3576 C3577 1.415 . S
C3577 H3547 0.950 . S
C3577 C3572 1.363 . S
C3577 C3576 1.415 . S
H3578 C3575 0.999 . S
H3579 C3560 0.913 . S
H3580 C3598 0.951 . S
H3581 C3600 0.951 . S
H3582 C3602 0.950 . S
H3583 C3603 0.950 . S
H3584 C3605 0.950 . S
H3585 C3608 0.950 . S
H3586 C3609 0.950 . S
H3587 C3611 0.950 . S
H3588 C3612 0.950 . S
H3589 C3613 0.951 . S
H3590 C3615 0.951 . S
H3591 C3617 0.950 . S
H3592 C3618 0.950 . S
H3593 C3620 0.950 . S
H3594 C3623 0.950 . S
H3595 C3624 0.950 . S
H3596 C3626 0.950 . S
H3597 C3627 0.950 1_545 S
C3598 H3580 0.951 . S
C3598 C3599 1.366 . S
C3598 C3600 1.388 . S
C3599 C3598 1.366 . S
C3599 C3603 1.385 . S
C3600 H3581 0.951 . S
C3600 C3598 1.388 . S
C3600 C3601 1.366 . S
C3601 C3600 1.366 . S
C3601 C3602 1.414 . S
C3601 C3604 1.499 . S
C3602 H3582 0.950 . S
C3602 C3601 1.414 . S
C3602 C3603 1.374 . S
C3603 H3583 0.950 . S
C3603 C3599 1.385 . S
C3603 C3602 1.374 . S
C3604 C3601 1.499 . S
C3604 C3605 1.373 . S
C3604 C3606 1.389 . S
C3605 H3584 0.950 . S
C3605 C3604 1.373 . S
C3605 C3621 1.377 . S
C3606 C3604 1.389 . S
C3606 C3607 1.524 . S
C3606 C3620 1.377 . S
C3607 C3606 1.524 . S
C3607 C3608 1.397 . S
C3607 C3612 1.363 . S
C3608 H3585 0.950 . S
C3608 C3607 1.397 . S
C3608 C3609 1.334 . S
C3609 H3586 0.950 . S
C3609 C3608 1.334 . S
C3609 C3610 1.287 . S
C3610 C3609 1.287 . S
C3610 C3611 1.524 . S
C3610 H3629 0.913 . S
C3611 H3587 0.950 . S
C3611 C3610 1.524 . S
C3611 C3612 1.415 . S
C3612 H3588 0.950 . S
C3612 C3607 1.363 . S
C3612 C3611 1.415 . S
C3613 H3589 0.951 . S
C3613 C3614 1.366 . S
C3613 C3615 1.388 . S
C3614 C3613 1.366 . S
C3614 C3618 1.385 . S
C3615 H3590 0.951 . S
C3615 C3613 1.388 . S
C3615 C3616 1.366 . S
C3616 C3615 1.366 . S
C3616 C3617 1.414 . S
C3616 C3619 1.499 . S
C3617 H3591 0.950 . S
C3617 C3616 1.414 . S
C3617 C3618 1.374 . S
C3618 H3592 0.950 . S
C3618 C3614 1.385 . S
C3618 C3617 1.374 . S
C3619 C3616 1.499 . S
C3619 C3620 1.373 . S
C3619 C3621 1.389 . S
C3620 H3593 0.950 . S
C3620 C3606 1.377 . S
C3620 C3619 1.373 . S
C3621 C3605 1.377 . S
C3621 C3619 1.389 . S
C3621 C3622 1.524 . S
C3622 C3621 1.524 . S
C3622 C3623 1.398 1_545 S
C3622 C3627 1.363 1_545 S
C3623 H3594 0.950 . S
C3623 C3622 1.398 1_565 S
C3623 C3624 1.334 . S
C3624 H3595 0.950 . S
C3624 C3623 1.334 . S
C3624 C3625 1.287 . S
C3625 C3624 1.287 . S
C3625 C3626 1.524 . S
C3625 H3628 0.999 . S
C3626 H3596 0.950 . S
C3626 C3625 1.524 . S
C3626 C3627 1.415 . S
C3627 H3597 0.950 1_565 S
C3627 C3622 1.363 1_565 S
C3627 C3626 1.415 . S
H3628 C3625 0.999 . S
H3629 C3610 0.913 . S
H3630 C3648 0.951 . S
H3631 C3650 0.951 . S
H3632 C3652 0.950 . S
H3633 C3653 0.950 . S
H3634 C3655 0.950 . S
H3635 C3658 0.950 . S
H3636 C3659 0.950 . S
H3637 C3661 0.950 . S
H3638 C3662 0.950 . S
H3639 C3663 0.951 . S
H3640 C3665 0.951 . S
H3641 C3667 0.950 . S
H3642 C3668 0.950 . S
H3643 C3670 0.950 . S
H3644 C3673 0.950 . S
H3645 C3674 0.950 . S
H3646 C3676 0.950 . S
H3647 C3677 0.950 . S
C3648 H3630 0.951 . S
C3648 C3649 1.366 . S
C3648 C3650 1.388 . S
C3649 C3648 1.366 . S
C3649 C3653 1.385 . S
C3650 H3631 0.951 . S
C3650 C3648 1.388 . S
C3650 C3651 1.366 . S
C3651 C3650 1.366 . S
C3651 C3652 1.414 . S
C3651 C3654 1.499 . S
C3652 H3632 0.950 . S
C3652 C3651 1.414 . S
C3652 C3653 1.374 . S
C3653 H3633 0.950 . S
C3653 C3649 1.385 . S
C3653 C3652 1.374 . S
C3654 C3651 1.499 . S
C3654 C3655 1.373 . S
C3654 C3656 1.389 . S
C3655 H3634 0.950 . S
C3655 C3654 1.373 . S
C3655 C3671 1.377 . S
C3656 C3654 1.389 . S
C3656 C3657 1.524 . S
C3656 C3670 1.377 . S
C3657 C3656 1.524 . S
C3657 C3658 1.397 . S
C3657 C3662 1.363 . S
C3658 H3635 0.950 . S
C3658 C3657 1.397 . S
C3658 C3659 1.334 . S
C3659 H3636 0.950 . S
C3659 C3658 1.334 . S
C3659 C3660 1.287 . S
C3660 C3659 1.287 . S
C3660 C3661 1.524 . S
C3660 H3679 0.913 . S
C3661 H3637 0.950 . S
C3661 C3660 1.524 . S
C3661 C3662 1.415 . S
C3662 H3638 0.950 . S
C3662 C3657 1.363 . S
C3662 C3661 1.415 . S
C3663 H3639 0.951 . S
C3663 C3664 1.366 . S
C3663 C3665 1.388 . S
C3664 C3663 1.366 . S
C3664 C3668 1.385 . S
C3665 H3640 0.951 . S
C3665 C3663 1.388 . S
C3665 C3666 1.366 . S
C3666 C3665 1.366 . S
C3666 C3667 1.414 . S
C3666 C3669 1.499 . S
C3667 H3641 0.950 . S
C3667 C3666 1.414 . S
C3667 C3668 1.374 . S
C3668 H3642 0.950 . S
C3668 C3664 1.385 . S
C3668 C3667 1.374 . S
C3669 C3666 1.499 . S
C3669 C3670 1.373 . S
C3669 C3671 1.389 . S
C3670 H3643 0.950 . S
C3670 C3656 1.377 . S
C3670 C3669 1.373 . S
C3671 C3655 1.377 . S
C3671 C3669 1.389 . S
C3671 C3672 1.524 . S
C3672 C3671 1.524 . S
C3672 C3673 1.397 . S
C3672 C3677 1.363 . S
C3673 H3644 0.950 . S
C3673 C3672 1.397 . S
C3673 C3674 1.334 . S
C3674 H3645 0.950 . S
C3674 C3673 1.334 . S
C3674 C3675 1.287 . S
C3675 C3674 1.287 . S
C3675 C3676 1.524 . S
C3675 H3678 0.999 . S
C3676 H3646 0.950 . S
C3676 C3675 1.524 . S
C3676 C3677 1.415 . S
C3677 H3647 0.950 . S
C3677 C3672 1.363 . S
C3677 C3676 1.415 . S
H3678 C3675 0.999 . S
H3679 C3660 0.913 . S
H3680 C3698 0.951 . S
H3681 C3700 0.951 . S
H3682 C3702 0.950 1_556 S
H3683 C3703 0.950 1_556 S
H3684 C3705 0.950 1_556 S
H3685 C3708 0.950 . S
H3686 C3709 0.950 . S
H3687 C3711 0.950 . S
H3688 C3712 0.950 . S
H3689 C3713 0.983 . S
H3690 C3715 0.937 1_556 S
H3691 C3717 0.950 . S
H3692 C3718 0.950 . S
H3693 C3720 0.950 . S
H3694 C3723 0.950 . S
H3695 C3724 0.950 . S
H3696 C3726 0.950 . S
H3697 C3727 0.950 . S
C3698 H3680 0.951 . S
C3698 C3699 1.366 . S
C3698 C3700 1.388 . S
C3699 C3698 1.366 . S
C3699 C3703 1.385 . S
C3700 H3681 0.951 . S
C3700 C3698 1.388 . S
C3700 C3701 1.366 . S
C3701 C3700 1.366 . S
C3701 C3702 1.414 . S
C3701 C3704 1.499 . S
C3702 H3682 0.950 1_554 S
C3702 C3701 1.414 . S
C3702 C3703 1.374 . S
C3703 H3683 0.950 1_554 S
C3703 C3699 1.385 . S
C3703 C3702 1.374 . S
C3704 C3701 1.499 . S
C3704 C3705 1.373 . S
C3704 C3706 1.389 . S
C3705 H3684 0.950 1_554 S
C3705 C3704 1.373 . S
C3705 C3721 1.378 . S
C3706 C3704 1.389 . S
C3706 C3707 1.524 . S
C3706 C3720 1.377 . S
C3707 C3706 1.524 . S
C3707 C3708 1.397 . S
C3707 C3712 1.363 . S
C3708 H3685 0.950 . S
C3708 C3707 1.397 . S
C3708 C3709 1.334 . S
C3709 H3686 0.950 . S
C3709 C3708 1.334 . S
C3709 C3710 1.287 . S
C3710 C3709 1.287 . S
C3710 C3711 1.524 . S
C3710 H3729 0.913 . S
C3711 H3687 0.950 . S
C3711 C3710 1.524 . S
C3711 C3712 1.415 . S
C3712 H3688 0.950 . S
C3712 C3707 1.363 . S
C3712 C3711 1.415 . S
C3713 H3689 0.983 . S
C3713 C3714 1.336 1_556 S
C3713 C3715 1.387 1_556 S
C3714 C3713 1.336 1_554 S
C3714 C3718 1.385 . S
C3715 H3690 0.937 1_554 S
C3715 C3713 1.387 1_554 S
C3715 C3716 1.380 . S
C3716 C3715 1.380 . S
C3716 C3717 1.414 . S
C3716 C3719 1.499 . S
C3717 H3691 0.950 . S
C3717 C3716 1.414 . S
C3717 C3718 1.374 . S
C3718 H3692 0.950 . S
C3718 C3714 1.385 . S
C3718 C3717 1.374 . S
C3719 C3716 1.499 . S
C3719 C3720 1.373 . S
C3719 C3721 1.418 . S
C3720 H3693 0.950 . S
C3720 C3706 1.377 . S
C3720 C3719 1.373 . S
C3721 C3705 1.378 . S
C3721 C3719 1.418 . S
C3721 C3722 1.495 1_554 S
C3722 C3721 1.495 1_556 S
C3722 C3723 1.397 . S
C3722 C3727 1.363 . S
C3723 H3694 0.950 . S
C3723 C3722 1.397 . S
C3723 C3724 1.334 . S
C3724 H3695 0.950 . S
C3724 C3723 1.334 . S
C3724 C3725 1.287 . S
C3725 C3724 1.287 . S
C3725 C3726 1.524 . S
C3725 H3728 0.999 . S
C3726 H3696 0.950 . S
C3726 C3725 1.524 . S
C3726 C3727 1.415 . S
C3727 H3697 0.950 . S
C3727 C3722 1.363 . S
C3727 C3726 1.415 . S
H3728 C3725 0.999 . S
H3729 C3710 0.913 . S
H3730 C3748 0.951 . S
H3731 C3750 0.951 . S
H3732 C3752 0.950 . S
H3733 C3753 0.950 . S
H3734 C3755 0.950 . S
H3735 C3758 0.950 . S
H3736 C3759 0.950 . S
H3737 C3761 0.950 . S
H3738 C3762 0.950 . S
H3739 C3763 0.951 . S
H3740 C3765 0.951 . S
H3741 C3767 0.950 . S
H3742 C3768 0.950 . S
H3743 C3770 0.950 . S
H3744 C3773 0.950 . S
H3745 C3774 0.950 . S
H3746 C3776 0.950 . S
H3747 C3777 0.950 . S
C3748 H3730 0.951 . S
C3748 C3749 1.366 . S
C3748 C3750 1.388 . S
C3749 C3748 1.366 . S
C3749 C3753 1.385 . S
C3750 H3731 0.951 . S
C3750 C3748 1.388 . S
C3750 C3751 1.366 . S
C3751 C3750 1.366 . S
C3751 C3752 1.414 . S
C3751 C3754 1.499 . S
C3752 H3732 0.950 . S
C3752 C3751 1.414 . S
C3752 C3753 1.374 . S
C3753 H3733 0.950 . S
C3753 C3749 1.385 . S
C3753 C3752 1.374 . S
C3754 C3751 1.499 . S
C3754 C3755 1.373 . S
C3754 C3756 1.389 . S
C3755 H3734 0.950 . S
C3755 C3754 1.373 . S
C3755 C3771 1.377 . S
C3756 C3754 1.389 . S
C3756 C3757 1.563 . S
C3756 C3770 1.377 . S
C3757 C3756 1.563 . S
C3757 C3758 1.387 1_554 S
C3757 C3762 1.334 1_554 S
C3758 H3735 0.950 . S
C3758 C3757 1.387 1_556 S
C3758 C3759 1.334 . S
C3759 H3736 0.950 . S
C3759 C3758 1.334 . S
C3759 C3760 1.287 . S
C3760 C3759 1.287 . S
C3760 C3761 1.524 . S
C3760 H3779 0.913 . S
C3761 H3737 0.950 . S
C3761 C3760 1.524 . S
C3761 C3762 1.415 . S
C3762 H3738 0.950 . S
C3762 C3757 1.334 1_556 S
C3762 C3761 1.415 . S
C3763 H3739 0.951 . S
C3763 C3764 1.366 . S
C3763 C3765 1.388 . S
C3764 C3763 1.366 . S
C3764 C3768 1.385 . S
C3765 H3740 0.951 . S
C3765 C3763 1.388 . S
C3765 C3766 1.366 . S
C3766 C3765 1.366 . S
C3766 C3767 1.414 . S
C3766 C3769 1.499 . S
C3767 H3741 0.950 . S
C3767 C3766 1.414 . S
C3767 C3768 1.374 . S
C3768 H3742 0.950 . S
C3768 C3764 1.385 . S
C3768 C3767 1.374 . S
C3769 C3766 1.499 . S
C3769 C3770 1.373 . S
C3769 C3771 1.389 . S
C3770 H3743 0.950 . S
C3770 C3756 1.377 . S
C3770 C3769 1.373 . S
C3771 C3755 1.377 . S
C3771 C3769 1.389 . S
C3771 C3772 1.524 . S
C3772 C3771 1.524 . S
C3772 C3773 1.397 . S
C3772 C3777 1.363 . S
C3773 H3744 0.950 . S
C3773 C3772 1.397 . S
C3773 C3774 1.334 . S
C3774 H3745 0.950 . S
C3774 C3773 1.334 . S
C3774 C3775 1.287 . S
C3775 C3774 1.287 . S
C3775 C3776 1.524 . S
C3775 H3778 0.999 . S
C3776 H3746 0.950 . S
C3776 C3775 1.524 . S
C3776 C3777 1.415 . S
C3777 H3747 0.950 . S
C3777 C3772 1.363 . S
C3777 C3776 1.415 . S
H3778 C3775 0.999 . S
H3779 C3760 0.913 . S
H3780 C3798 0.951 . S
H3781 C3800 0.951 . S
H3782 C3802 0.950 . S
H3783 C3803 0.950 . S
H3784 C3805 0.950 . S
H3785 C3808 0.950 . S
H3786 C3809 0.950 . S
H3787 C3811 0.950 . S
H3788 C3812 0.950 . S
H3789 C3813 0.951 . S
H3790 C3815 0.951 . S
H3791 C3817 0.950 . S
H3792 C3818 0.950 . S
H3793 C3820 0.950 . S
H3794 C3823 0.950 . S
H3795 C3824 0.950 . S
H3796 C3826 0.950 . S
H3797 C3827 0.950 . S
C3798 H3780 0.951 . S
C3798 C3799 1.366 . S
C3798 C3800 1.388 . S
C3799 C3798 1.366 . S
C3799 C3803 1.385 . S
C3800 H3781 0.951 . S
C3800 C3798 1.388 . S
C3800 C3801 1.366 . S
C3801 C3800 1.366 . S
C3801 C3802 1.414 . S
C3801 C3804 1.499 . S
C3802 H3782 0.950 . S
C3802 C3801 1.414 . S
C3802 C3803 1.374 . S
C3803 H3783 0.950 . S
C3803 C3799 1.385 . S
C3803 C3802 1.374 . S
C3804 C3801 1.499 . S
C3804 C3805 1.373 . S
C3804 C3806 1.389 . S
C3805 H3784 0.950 . S
C3805 C3804 1.373 . S
C3805 C3821 1.377 . S
C3806 C3804 1.389 . S
C3806 C3807 1.524 . S
C3806 C3820 1.377 . S
C3807 C3806 1.524 . S
C3807 C3808 1.397 . S
C3807 C3812 1.363 . S
C3808 H3785 0.950 . S
C3808 C3807 1.397 . S
C3808 C3809 1.334 . S
C3809 H3786 0.950 . S
C3809 C3808 1.334 . S
C3809 C3810 1.287 . S
C3810 C3809 1.287 . S
C3810 C3811 1.524 . S
C3810 H3829 0.913 . S
C3811 H3787 0.950 . S
C3811 C3810 1.524 . S
C3811 C3812 1.415 . S
C3812 H3788 0.950 . S
C3812 C3807 1.363 . S
C3812 C3811 1.415 . S
C3813 H3789 0.951 . S
C3813 C3814 1.366 . S
C3813 C3815 1.388 . S
C3814 C3813 1.366 . S
C3814 C3818 1.385 . S
C3815 H3790 0.951 . S
C3815 C3813 1.388 . S
C3815 C3816 1.366 . S
C3816 C3815 1.366 . S
C3816 C3817 1.414 . S
C3816 C3819 1.499 . S
C3817 H3791 0.950 . S
C3817 C3816 1.414 . S
C3817 C3818 1.374 . S
C3818 H3792 0.950 . S
C3818 C3814 1.385 . S
C3818 C3817 1.374 . S
C3819 C3816 1.499 . S
C3819 C3820 1.373 . S
C3819 C3821 1.389 . S
C3820 H3793 0.950 . S
C3820 C3806 1.377 . S
C3820 C3819 1.373 . S
C3821 C3805 1.377 . S
C3821 C3819 1.389 . S
C3821 C3822 1.524 . S
C3822 C3821 1.524 . S
C3822 C3823 1.397 . S
C3822 C3827 1.363 . S
C3823 H3794 0.950 . S
C3823 C3822 1.397 . S
C3823 C3824 1.334 . S
C3824 H3795 0.950 . S
C3824 C3823 1.334 . S
C3824 C3825 1.287 . S
C3825 C3824 1.287 . S
C3825 C3826 1.524 . S
C3825 H3828 0.999 . S
C3826 H3796 0.950 . S
C3826 C3825 1.524 . S
C3826 C3827 1.415 . S
C3827 H3797 0.950 . S
C3827 C3822 1.363 . S
C3827 C3826 1.415 . S
H3828 C3825 0.999 . S
H3829 C3810 0.913 . S
H3830 C3848 0.951 . S
H3831 C3850 0.951 . S
H3832 C3852 0.950 . S
H3833 C3853 0.950 . S
H3834 C3855 0.950 . S
H3835 C3858 0.950 . S
H3836 C3859 0.950 . S
H3837 C3861 0.950 . S
H3838 C3862 0.950 . S
H3839 C3863 0.951 . S
H3840 C3865 0.951 . S
H3841 C3867 0.950 . S
H3842 C3868 0.950 . S
H3843 C3870 0.950 . S
H3844 C3873 0.950 . S
H3845 C3874 0.950 . S
H3846 C3876 0.950 . S
H3847 C3877 0.950 . S
C3848 H3830 0.951 . S
C3848 C3849 1.366 . S
C3848 C3850 1.388 . S
C3849 C3848 1.366 . S
C3849 C3853 1.385 . S
C3850 H3831 0.951 . S
C3850 C3848 1.388 . S
C3850 C3851 1.366 . S
C3851 C3850 1.366 . S
C3851 C3852 1.414 . S
C3851 C3854 1.499 . S
C3852 H3832 0.950 . S
C3852 C3851 1.414 . S
C3852 C3853 1.374 . S
C3853 H3833 0.950 . S
C3853 C3849 1.385 . S
C3853 C3852 1.374 . S
C3854 C3851 1.499 . S
C3854 C3855 1.373 . S
C3854 C3856 1.389 . S
C3855 H3834 0.950 . S
C3855 C3854 1.373 . S
C3855 C3871 1.377 . S
C3856 C3854 1.389 . S
C3856 C3857 1.524 . S
C3856 C3870 1.377 . S
C3857 C3856 1.524 . S
C3857 C3858 1.397 . S
C3857 C3862 1.363 . S
C3858 H3835 0.950 . S
C3858 C3857 1.397 . S
C3858 C3859 1.334 . S
C3859 H3836 0.950 . S
C3859 C3858 1.334 . S
C3859 C3860 1.287 . S
C3860 C3859 1.287 . S
C3860 C3861 1.524 . S
C3860 H3879 0.913 . S
C3861 H3837 0.950 . S
C3861 C3860 1.524 . S
C3861 C3862 1.415 . S
C3862 H3838 0.950 . S
C3862 C3857 1.363 . S
C3862 C3861 1.415 . S
C3863 H3839 0.951 . S
C3863 C3864 1.366 . S
C3863 C3865 1.388 . S
C3864 C3863 1.366 . S
C3864 C3868 1.385 . S
C3865 H3840 0.951 . S
C3865 C3863 1.388 . S
C3865 C3866 1.366 . S
C3866 C3865 1.366 . S
C3866 C3867 1.414 . S
C3866 C3869 1.499 . S
C3867 H3841 0.950 . S
C3867 C3866 1.414 . S
C3867 C3868 1.374 . S
C3868 H3842 0.950 . S
C3868 C3864 1.385 . S
C3868 C3867 1.374 . S
C3869 C3866 1.499 . S
C3869 C3870 1.373 . S
C3869 C3871 1.389 . S
C3870 H3843 0.950 . S
C3870 C3856 1.377 . S
C3870 C3869 1.373 . S
C3871 C3855 1.377 . S
C3871 C3869 1.389 . S
C3871 C3872 1.524 . S
C3872 C3871 1.524 . S
C3872 C3873 1.397 . S
C3872 C3877 1.363 . S
C3873 H3844 0.950 . S
C3873 C3872 1.397 . S
C3873 C3874 1.334 . S
C3874 H3845 0.950 . S
C3874 C3873 1.334 . S
C3874 C3875 1.287 . S
C3875 C3874 1.287 . S
C3875 C3876 1.524 . S
C3875 H3878 0.999 . S
C3876 H3846 0.950 . S
C3876 C3875 1.524 . S
C3876 C3877 1.415 . S
C3877 H3847 0.950 . S
C3877 C3872 1.363 . S
C3877 C3876 1.415 . S
H3878 C3875 0.999 . S
H3879 C3860 0.913 . S
H3880 C3898 0.951 . S
H3881 C3900 0.951 . S
H3882 C3902 0.950 . S
H3883 C3903 0.950 . S
H3884 C3905 0.950 . S
H3885 C3908 0.950 . S
H3886 C3909 0.950 . S
H3887 C3911 0.950 . S
H3888 C3912 0.950 . S
H3889 C3913 0.951 . S
H3890 C3915 0.951 . S
H3891 C3917 0.950 . S
H3892 C3918 0.950 . S
H3893 C3920 0.950 . S
H3894 C3923 0.950 . S
H3895 C3924 0.950 . S
H3896 C3926 0.950 . S
H3897 C3927 0.950 . S
C3898 H3880 0.951 . S
C3898 C3899 1.366 1_565 S
C3898 C3900 1.388 . S
C3899 C3898 1.366 1_545 S
C3899 C3903 1.385 . S
C3900 H3881 0.951 . S
C3900 C3898 1.388 . S
C3900 C3901 1.366 . S
C3901 C3900 1.366 . S
C3901 C3902 1.414 . S
C3901 C3904 1.499 . S
C3902 H3882 0.950 . S
C3902 C3901 1.414 . S
C3902 C3903 1.374 1_565 S
C3903 H3883 0.950 . S
C3903 C3899 1.385 . S
C3903 C3902 1.374 1_545 S
C3904 C3901 1.499 . S
C3904 C3905 1.373 . S
C3904 C3906 1.389 . S
C3905 H3884 0.950 . S
C3905 C3904 1.373 . S
C3905 C3921 1.377 . S
C3906 C3904 1.389 . S
C3906 C3907 1.524 . S
C3906 C3920 1.377 . S
C3907 C3906 1.524 . S
C3907 C3908 1.397 . S
C3907 C3912 1.363 . S
C3908 H3885 0.950 . S
C3908 C3907 1.397 . S
C3908 C3909 1.334 . S
C3909 H3886 0.950 . S
C3909 C3908 1.334 . S
C3909 C3910 1.287 . S
C3910 C3909 1.287 . S
C3910 C3911 1.524 . S
C3910 H3929 0.913 . S
C3911 H3887 0.950 . S
C3911 C3910 1.524 . S
C3911 C3912 1.415 . S
C3912 H3888 0.950 . S
C3912 C3907 1.363 . S
C3912 C3911 1.415 . S
C3913 H3889 0.951 . S
C3913 C3914 1.366 . S
C3913 C3915 1.388 . S
C3914 C3913 1.366 . S
C3914 C3918 1.385 . S
C3915 H3890 0.951 . S
C3915 C3913 1.388 . S
C3915 C3916 1.366 . S
C3916 C3915 1.366 . S
C3916 C3917 1.414 . S
C3916 C3919 1.499 . S
C3917 H3891 0.950 . S
C3917 C3916 1.414 . S
C3917 C3918 1.374 . S
C3918 H3892 0.950 . S
C3918 C3914 1.385 . S
C3918 C3917 1.374 . S
C3919 C3916 1.499 . S
C3919 C3920 1.373 . S
C3919 C3921 1.389 . S
C3920 H3893 0.950 . S
C3920 C3906 1.377 . S
C3920 C3919 1.373 . S
C3921 C3905 1.377 . S
C3921 C3919 1.389 . S
C3921 C3922 1.524 . S
C3922 C3921 1.524 . S
C3922 C3923 1.397 . S
C3922 C3927 1.363 . S
C3923 H3894 0.950 . S
C3923 C3922 1.397 . S
C3923 C3924 1.334 . S
C3924 H3895 0.950 . S
C3924 C3923 1.334 . S
C3924 C3925 1.287 . S
C3925 C3924 1.287 . S
C3925 C3926 1.524 . S
C3925 H3928 0.999 . S
C3926 H3896 0.950 . S
C3926 C3925 1.524 . S
C3926 C3927 1.415 . S
C3927 H3897 0.950 . S
C3927 C3922 1.363 . S
C3927 C3926 1.415 . S
H3928 C3925 0.999 . S
H3929 C3910 0.913 . S
H3930 C3948 0.951 . S
H3931 C3950 0.951 . S
H3932 C3952 0.950 . S
H3933 C3953 0.950 . S
H3934 C3955 0.950 . S
H3935 C3958 0.950 . S
H3936 C3959 0.950 . S
H3937 C3961 0.950 . S
H3938 C3962 0.950 . S
H3939 C3963 0.951 1_545 S
H3940 C3965 0.951 . S
H3941 C3967 0.950 . S
H3942 C3968 0.950 . S
H3943 C3970 0.950 . S
H3944 C3973 0.950 . S
H3945 C3974 0.950 . S
H3946 C3976 0.950 . S
H3947 C3977 0.950 . S
C3948 H3930 0.951 . S
C3948 C3949 1.366 . S
C3948 C3950 1.388 . S
C3949 C3948 1.366 . S
C3949 C3953 1.385 . S
C3950 H3931 0.951 . S
C3950 C3948 1.388 . S
C3950 C3951 1.366 . S
C3951 C3950 1.366 . S
C3951 C3952 1.414 . S
C3951 C3954 1.499 . S
C3952 H3932 0.950 . S
C3952 C3951 1.414 . S
C3952 C3953 1.374 . S
C3953 H3933 0.950 . S
C3953 C3949 1.385 . S
C3953 C3952 1.374 . S
C3954 C3951 1.499 . S
C3954 C3955 1.373 . S
C3954 C3956 1.389 . S
C3955 H3934 0.950 . S
C3955 C3954 1.373 . S
C3955 C3971 1.377 . S
C3956 C3954 1.389 . S
C3956 C3957 1.524 . S
C3956 C3970 1.377 . S
C3957 C3956 1.524 . S
C3957 C3958 1.397 . S
C3957 C3962 1.363 . S
C3958 H3935 0.950 . S
C3958 C3957 1.397 . S
C3958 C3959 1.334 . S
C3959 H3936 0.950 . S
C3959 C3958 1.334 . S
C3959 C3960 1.287 . S
C3960 C3959 1.287 . S
C3960 C3961 1.524 . S
C3960 H3979 0.913 . S
C3961 H3937 0.950 . S
C3961 C3960 1.524 . S
C3961 C3962 1.415 . S
C3962 H3938 0.950 . S
C3962 C3957 1.363 . S
C3962 C3961 1.415 . S
C3963 H3939 0.951 1_565 S
C3963 C3964 1.366 . S
C3963 C3965 1.388 . S
C3964 C3963 1.366 . S
C3964 C3968 1.385 . S
C3965 H3940 0.951 . S
C3965 C3963 1.388 . S
C3965 C3966 1.366 . S
C3966 C3965 1.366 . S
C3966 C3967 1.414 . S
C3966 C3969 1.499 . S
C3967 H3941 0.950 . S
C3967 C3966 1.414 . S
C3967 C3968 1.374 . S
C3968 H3942 0.950 . S
C3968 C3964 1.385 . S
C3968 C3967 1.374 . S
C3969 C3966 1.499 . S
C3969 C3970 1.373 . S
C3969 C3971 1.389 . S
C3970 H3943 0.950 . S
C3970 C3956 1.377 . S
C3970 C3969 1.373 . S
C3971 C3955 1.377 . S
C3971 C3969 1.389 . S
C3971 C3972 1.524 . S
C3972 C3971 1.524 . S
C3972 C3973 1.397 . S
C3972 C3977 1.363 . S
C3973 H3944 0.950 . S
C3973 C3972 1.397 . S
C3973 C3974 1.334 . S
C3974 H3945 0.950 . S
C3974 C3973 1.334 . S
C3974 C3975 1.287 . S
C3975 C3974 1.287 . S
C3975 C3976 1.524 1_565 S
C3975 H3978 0.999 1_565 S
C3976 H3946 0.950 . S
C3976 C3975 1.524 1_545 S
C3976 C3977 1.415 1_545 S
C3977 H3947 0.950 . S
C3977 C3972 1.363 . S
C3977 C3976 1.415 1_565 S
H3978 C3975 0.999 1_545 S
H3979 C3960 0.913 . S
H3980 C3998 0.951 . S
H3981 C4000 0.951 . S
H3982 C4002 0.950 . S
H3983 C4003 0.950 . S
H3984 C4005 0.950 . S
H3985 C4008 0.950 . S
H3986 C4009 0.950 . S
H3987 C4011 0.950 . S
H3988 C4012 0.950 . S
H3989 C4013 0.951 . S
H3990 C4015 0.951 . S
H3991 C4017 0.950 . S
H3992 C4018 0.950 . S
H3993 C4020 0.950 . S
H3994 C4023 0.950 . S
H3995 C4024 0.950 . S
H3996 C4026 0.950 . S
H3997 C4027 0.950 . S
C3998 H3980 0.951 . S
C3998 C3999 1.366 . S
C3998 C4000 1.388 . S
C3999 C3998 1.366 . S
C3999 C4003 1.385 . S
C4000 H3981 0.951 . S
C4000 C3998 1.388 . S
C4000 C4001 1.366 . S
C4001 C4000 1.366 . S
C4001 C4002 1.414 . S
C4001 C4004 1.499 . S
C4002 H3982 0.950 . S
C4002 C4001 1.414 . S
C4002 C4003 1.374 . S
C4003 H3983 0.950 . S
C4003 C3999 1.385 . S
C4003 C4002 1.374 . S
C4004 C4001 1.499 . S
C4004 C4005 1.373 . S
C4004 C4006 1.389 . S
C4005 H3984 0.950 . S
C4005 C4004 1.373 . S
C4005 C4021 1.377 . S
C4006 C4004 1.389 . S
C4006 C4007 1.524 . S
C4006 C4020 1.377 . S
C4007 C4006 1.524 . S
C4007 C4008 1.397 . S
C4007 C4012 1.363 . S
C4008 H3985 0.950 . S
C4008 C4007 1.397 . S
C4008 C4009 1.334 . S
C4009 H3986 0.950 . S
C4009 C4008 1.334 . S
C4009 C4010 1.287 . S
C4010 C4009 1.287 . S
C4010 C4011 1.524 . S
C4010 H4029 0.913 . S
C4011 H3987 0.950 . S
C4011 C4010 1.524 . S
C4011 C4012 1.415 . S
C4012 H3988 0.950 . S
C4012 C4007 1.363 . S
C4012 C4011 1.415 . S
C4013 H3989 0.951 . S
C4013 C4014 1.366 . S
C4013 C4015 1.388 . S
C4014 C4013 1.366 . S
C4014 C4018 1.385 . S
C4015 H3990 0.951 . S
C4015 C4013 1.388 . S
C4015 C4016 1.366 . S
C4016 C4015 1.366 . S
C4016 C4017 1.414 . S
C4016 C4019 1.499 . S
C4017 H3991 0.950 . S
C4017 C4016 1.414 . S
C4017 C4018 1.374 . S
C4018 H3992 0.950 . S
C4018 C4014 1.385 . S
C4018 C4017 1.374 . S
C4019 C4016 1.499 . S
C4019 C4020 1.373 . S
C4019 C4021 1.389 . S
C4020 H3993 0.950 . S
C4020 C4006 1.377 . S
C4020 C4019 1.373 . S
C4021 C4005 1.377 . S
C4021 C4019 1.389 . S
C4021 C4022 1.524 . S
C4022 C4021 1.524 . S
C4022 C4023 1.397 . S
C4022 C4027 1.363 . S
C4023 H3994 0.950 . S
C4023 C4022 1.397 . S
C4023 C4024 1.334 . S
C4024 H3995 0.950 . S
C4024 C4023 1.334 . S
C4024 C4025 1.287 . S
C4025 C4024 1.287 . S
C4025 C4026 1.524 . S
C4025 H4028 0.999 . S
C4026 H3996 0.950 . S
C4026 C4025 1.524 . S
C4026 C4027 1.415 . S
C4027 H3997 0.950 . S
C4027 C4022 1.363 . S
C4027 C4026 1.415 . S
H4028 C4025 0.999 . S
H4029 C4010 0.913 . S
H4030 C4048 0.951 . S
H4031 C4050 0.951 . S
H4032 C4052 0.950 . S
H4033 C4053 0.950 . S
H4034 C4055 0.950 . S
H4035 C4058 0.950 . S
H4036 C4059 0.950 . S
H4037 C4061 0.950 . S
H4038 C4062 0.950 . S
H4039 C4063 0.951 . S
H4040 C4065 0.951 . S
H4041 C4067 0.950 . S
H4042 C4068 0.950 . S
H4043 C4070 0.950 . S
H4044 C4073 0.950 . S
H4045 C4074 0.950 . S
H4046 C4076 0.950 . S
H4047 C4077 0.950 . S
C4048 H4030 0.951 . S
C4048 C4049 1.366 . S
C4048 C4050 1.388 . S
C4049 C4048 1.366 . S
C4049 C4053 1.385 . S
C4050 H4031 0.951 . S
C4050 C4048 1.388 . S
C4050 C4051 1.366 . S
C4051 C4050 1.366 . S
C4051 C4052 1.414 . S
C4051 C4054 1.499 . S
C4052 H4032 0.950 . S
C4052 C4051 1.414 . S
C4052 C4053 1.374 . S
C4053 H4033 0.950 . S
C4053 C4049 1.385 . S
C4053 C4052 1.374 . S
C4054 C4051 1.499 . S
C4054 C4055 1.373 . S
C4054 C4056 1.389 . S
C4055 H4034 0.950 . S
C4055 C4054 1.373 . S
C4055 C4071 1.377 . S
C4056 C4054 1.389 . S
C4056 C4057 1.524 . S
C4056 C4070 1.377 . S
C4057 C4056 1.524 . S
C4057 C4058 1.397 . S
C4057 C4062 1.363 . S
C4058 H4035 0.950 . S
C4058 C4057 1.397 . S
C4058 C4059 1.334 . S
C4059 H4036 0.950 . S
C4059 C4058 1.334 . S
C4059 C4060 1.287 . S
C4060 C4059 1.287 . S
C4060 C4061 1.524 . S
C4060 H4079 0.913 . S
C4061 H4037 0.950 . S
C4061 C4060 1.524 . S
C4061 C4062 1.415 . S
C4062 H4038 0.950 . S
C4062 C4057 1.363 . S
C4062 C4061 1.415 . S
C4063 H4039 0.951 . S
C4063 C4064 1.366 . S
C4063 C4065 1.388 . S
C4064 C4063 1.366 . S
C4064 C4068 1.385 . S
C4065 H4040 0.951 . S
C4065 C4063 1.388 . S
C4065 C4066 1.366 . S
C4066 C4065 1.366 . S
C4066 C4067 1.414 . S
C4066 C4069 1.499 . S
C4067 H4041 0.950 . S
C4067 C4066 1.414 . S
C4067 C4068 1.374 . S
C4068 H4042 0.950 . S
C4068 C4064 1.385 . S
C4068 C4067 1.374 . S
C4069 C4066 1.499 . S
C4069 C4070 1.373 . S
C4069 C4071 1.389 . S
C4070 H4043 0.950 . S
C4070 C4056 1.377 . S
C4070 C4069 1.373 . S
C4071 C4055 1.377 . S
C4071 C4069 1.389 . S
C4071 C4072 1.524 . S
C4072 C4071 1.524 . S
C4072 C4073 1.397 . S
C4072 C4077 1.363 . S
C4073 H4044 0.950 . S
C4073 C4072 1.397 . S
C4073 C4074 1.334 . S
C4074 H4045 0.950 . S
C4074 C4073 1.334 . S
C4074 C4075 1.287 . S
C4075 C4074 1.287 . S
C4075 C4076 1.524 . S
C4075 H4078 0.999 . S
C4076 H4046 0.950 . S
C4076 C4075 1.524 . S
C4076 C4077 1.415 . S
C4077 H4047 0.950 . S
C4077 C4072 1.363 . S
C4077 C4076 1.415 . S
H4078 C4075 0.999 . S
H4079 C4060 0.913 . S
H4080 C4098 0.951 . S
H4081 C4100 0.951 . S
H4082 C4102 0.950 . S
H4083 C4103 0.950 . S
H4084 C4105 0.950 . S
H4085 C4108 0.950 . S
H4086 C4109 0.950 . S
H4087 C4111 0.950 . S
H4088 C4112 0.950 . S
H4089 C4113 0.951 . S
H4090 C4115 0.951 . S
H4091 C4117 0.950 . S
H4092 C4118 0.950 . S
H4093 C4120 0.950 . S
H4094 C4123 0.950 . S
H4095 C4124 0.950 . S
H4096 C4126 0.950 . S
H4097 C4127 0.950 . S
C4098 H4080 0.951 . S
C4098 C4099 1.366 . S
C4098 C4100 1.388 . S
C4099 C4098 1.366 . S
C4099 C4103 1.385 . S
C4100 H4081 0.951 . S
C4100 C4098 1.388 . S
C4100 C4101 1.366 . S
C4101 C4100 1.366 . S
C4101 C4102 1.414 . S
C4101 C4104 1.499 . S
C4102 H4082 0.950 . S
C4102 C4101 1.414 . S
C4102 C4103 1.374 . S
C4103 H4083 0.950 . S
C4103 C4099 1.385 . S
C4103 C4102 1.374 . S
C4104 C4101 1.499 . S
C4104 C4105 1.373 . S
C4104 C4106 1.389 . S
C4105 H4084 0.950 . S
C4105 C4104 1.373 . S
C4105 C4121 1.377 . S
C4106 C4104 1.389 . S
C4106 C4107 1.524 . S
C4106 C4120 1.377 . S
C4107 C4106 1.524 . S
C4107 C4108 1.397 . S
C4107 C4112 1.363 . S
C4108 H4085 0.950 . S
C4108 C4107 1.397 . S
C4108 C4109 1.334 . S
C4109 H4086 0.950 . S
C4109 C4108 1.334 . S
C4109 C4110 1.287 . S
C4110 C4109 1.287 . S
C4110 C4111 1.524 . S
C4110 H4129 0.913 . S
C4111 H4087 0.950 . S
C4111 C4110 1.524 . S
C4111 C4112 1.415 . S
C4112 H4088 0.950 . S
C4112 C4107 1.363 . S
C4112 C4111 1.415 . S
C4113 H4089 0.951 . S
C4113 C4114 1.366 . S
C4113 C4115 1.388 . S
C4114 C4113 1.366 . S
C4114 C4118 1.385 . S
C4115 H4090 0.951 . S
C4115 C4113 1.388 . S
C4115 C4116 1.366 . S
C4116 C4115 1.366 . S
C4116 C4117 1.414 . S
C4116 C4119 1.499 . S
C4117 H4091 0.950 . S
C4117 C4116 1.414 . S
C4117 C4118 1.374 . S
C4118 H4092 0.950 . S
C4118 C4114 1.385 . S
C4118 C4117 1.374 . S
C4119 C4116 1.499 . S
C4119 C4120 1.373 . S
C4119 C4121 1.389 . S
C4120 H4093 0.950 . S
C4120 C4106 1.377 . S
C4120 C4119 1.373 . S
C4121 C4105 1.377 . S
C4121 C4119 1.389 . S
C4121 C4122 1.524 . S
C4122 C4121 1.524 . S
C4122 C4123 1.397 . S
C4122 C4127 1.363 . S
C4123 H4094 0.950 . S
C4123 C4122 1.397 . S
C4123 C4124 1.334 . S
C4124 H4095 0.950 . S
C4124 C4123 1.334 . S
C4124 C4125 1.287 . S
C4125 C4124 1.287 . S
C4125 C4126 1.524 . S
C4125 H4128 0.999 . S
C4126 H4096 0.950 . S
C4126 C4125 1.524 . S
C4126 C4127 1.415 . S
C4127 H4097 0.950 . S
C4127 C4122 1.363 . S
C4127 C4126 1.415 . S
H4128 C4125 0.999 . S
H4129 C4110 0.913 . S
H4130 C4148 0.951 . S
H4131 C4150 0.951 . S
H4132 C4152 0.950 . S
H4133 C4153 0.950 . S
H4134 C4155 0.950 . S
H4135 C4158 0.950 . S
H4136 C4159 0.950 . S
H4137 C4161 0.950 . S
H4138 C4162 0.950 . S
H4139 C4163 0.951 . S
H4140 C4165 0.951 . S
H4141 C4167 0.950 . S
H4142 C4168 0.950 . S
H4143 C4170 0.950 . S
H4144 C4173 0.950 . S
H4145 C4174 0.950 . S
H4146 C4176 0.950 . S
H4147 C4177 0.950 . S
C4148 H4130 0.951 . S
C4148 C4149 1.366 . S
C4148 C4150 1.388 . S
C4149 C4148 1.366 . S
C4149 C4153 1.385 . S
C4150 H4131 0.951 . S
C4150 C4148 1.388 . S
C4150 C4151 1.366 . S
C4151 C4150 1.366 . S
C4151 C4152 1.414 . S
C4151 C4154 1.499 . S
C4152 H4132 0.950 . S
C4152 C4151 1.414 . S
C4152 C4153 1.374 . S
C4153 H4133 0.950 . S
C4153 C4149 1.385 . S
C4153 C4152 1.374 . S
C4154 C4151 1.499 . S
C4154 C4155 1.373 . S
C4154 C4156 1.389 . S
C4155 H4134 0.950 . S
C4155 C4154 1.373 . S
C4155 C4171 1.377 . S
C4156 C4154 1.389 . S
C4156 C4157 1.524 . S
C4156 C4170 1.377 . S
C4157 C4156 1.524 . S
C4157 C4158 1.397 . S
C4157 C4162 1.363 . S
C4158 H4135 0.950 . S
C4158 C4157 1.397 . S
C4158 C4159 1.334 . S
C4159 H4136 0.950 . S
C4159 C4158 1.334 . S
C4159 C4160 1.287 . S
C4160 C4159 1.287 . S
C4160 C4161 1.524 . S
C4160 H4179 0.913 . S
C4161 H4137 0.950 . S
C4161 C4160 1.524 . S
C4161 C4162 1.415 . S
C4162 H4138 0.950 . S
C4162 C4157 1.363 . S
C4162 C4161 1.415 . S
C4163 H4139 0.951 . S
C4163 C4164 1.366 . S
C4163 C4165 1.388 . S
C4164 C4163 1.366 . S
C4164 C4168 1.385 . S
C4165 H4140 0.951 . S
C4165 C4163 1.388 . S
C4165 C4166 1.366 . S
C4166 C4165 1.366 . S
C4166 C4167 1.414 . S
C4166 C4169 1.499 . S
C4167 H4141 0.950 . S
C4167 C4166 1.414 . S
C4167 C4168 1.374 . S
C4168 H4142 0.950 . S
C4168 C4164 1.385 . S
C4168 C4167 1.374 . S
C4169 C4166 1.499 . S
C4169 C4170 1.373 . S
C4169 C4171 1.389 . S
C4170 H4143 0.950 . S
C4170 C4156 1.377 . S
C4170 C4169 1.373 . S
C4171 C4155 1.377 . S
C4171 C4169 1.389 . S
C4171 C4172 1.524 . S
C4172 C4171 1.524 . S
C4172 C4173 1.397 . S
C4172 C4177 1.363 . S
C4173 H4144 0.950 . S
C4173 C4172 1.397 . S
C4173 C4174 1.334 . S
C4174 H4145 0.950 . S
C4174 C4173 1.334 . S
C4174 C4175 1.287 . S
C4175 C4174 1.287 . S
C4175 C4176 1.524 . S
C4175 H4178 0.999 . S
C4176 H4146 0.950 . S
C4176 C4175 1.524 . S
C4176 C4177 1.415 . S
C4177 H4147 0.950 . S
C4177 C4172 1.363 . S
C4177 C4176 1.415 . S
H4178 C4175 0.999 . S
H4179 C4160 0.913 . S
H4180 C4198 0.951 . S
H4181 C4200 0.951 . S
H4182 C4202 0.950 . S
H4183 C4203 0.950 . S
H4184 C4205 0.950 . S
H4185 C4208 0.905 1_554 S
H4186 C4209 0.950 . S
H4187 C4211 0.950 . S
H4188 C4212 0.950 . S
H4189 C4213 0.951 . S
H4190 C4215 0.951 . S
H4191 C4217 0.950 . S
H4192 C4218 0.950 . S
H4193 C4220 0.950 . S
H4194 C4223 0.950 1_455 S
H4195 C4224 0.950 . S
H4196 C4226 0.950 . S
H4197 C4227 0.950 . S
C4198 H4180 0.951 . S
C4198 C4199 1.366 . S
C4198 C4200 1.388 . S
C4199 C4198 1.366 . S
C4199 C4203 1.385 . S
C4200 H4181 0.951 . S
C4200 C4198 1.388 . S
C4200 C4201 1.366 . S
C4201 C4200 1.366 . S
C4201 C4202 1.414 . S
C4201 C4204 1.499 . S
C4202 H4182 0.950 . S
C4202 C4201 1.414 . S
C4202 C4203 1.374 . S
C4203 H4183 0.950 . S
C4203 C4199 1.385 . S
C4203 C4202 1.374 . S
C4204 C4201 1.499 . S
C4204 C4205 1.373 . S
C4204 C4206 1.389 . S
C4205 H4184 0.950 . S
C4205 C4204 1.373 . S
C4205 C4221 1.377 . S
C4206 C4204 1.389 . S
C4206 C4207 1.524 . S
C4206 C4220 1.377 . S
C4207 C4206 1.524 . S
C4207 C4208 1.397 . S
C4207 C4212 1.363 . S
C4208 H4185 0.905 1_556 S
C4208 C4207 1.397 . S
C4208 C4209 1.334 . S
C4209 H4186 0.950 . S
C4209 C4208 1.334 . S
C4209 C4210 1.287 . S
C4210 C4209 1.287 . S
C4210 C4211 1.524 . S
C4210 H4229 0.913 . S
C4211 H4187 0.950 . S
C4211 C4210 1.524 . S
C4211 C4212 1.415 . S
C4212 H4188 0.950 . S
C4212 C4207 1.363 . S
C4212 C4211 1.415 . S
C4213 H4189 0.951 . S
C4213 C4214 1.366 . S
C4213 C4215 1.388 . S
C4214 C4213 1.366 . S
C4214 C4218 1.385 1_554 S
C4215 H4190 0.951 . S
C4215 C4213 1.388 . S
C4215 C4216 1.327 1_554 S
C4216 C4215 1.327 1_556 S
C4216 C4217 1.448 . S
C4216 C4219 1.505 . S
C4217 H4191 0.950 . S
C4217 C4216 1.448 . S
C4217 C4218 1.374 . S
C4218 H4192 0.950 . S
C4218 C4214 1.385 1_556 S
C4218 C4217 1.374 . S
C4219 C4216 1.505 . S
C4219 C4220 1.373 . S
C4219 C4221 1.389 . S
C4220 H4193 0.950 . S
C4220 C4206 1.377 . S
C4220 C4219 1.373 . S
C4221 C4205 1.377 . S
C4221 C4219 1.389 . S
C4221 C4222 1.524 1_455 S
C4222 C4221 1.524 1_655 S
C4222 C4223 1.397 . S
C4222 C4227 1.363 1_556 S
C4223 H4194 0.950 1_655 S
C4223 C4222 1.397 . S
C4223 C4224 1.334 . S
C4224 H4195 0.950 . S
C4224 C4223 1.334 . S
C4224 C4225 1.287 . S
C4225 C4224 1.287 . S
C4225 C4226 1.524 1_556 S
C4225 H4228 0.999 . S
C4226 H4196 0.950 . S
C4226 C4225 1.524 1_554 S
C4226 C4227 1.415 . S
C4227 H4197 0.950 . S
C4227 C4222 1.363 1_554 S
C4227 C4226 1.415 . S
H4228 C4225 0.999 . S
H4229 C4210 0.913 . S
H4230 C4248 0.951 . S
H4231 C4250 0.949 1_655 S
H4232 C4252 0.950 . S
H4233 C4253 0.950 . S
H4234 C4255 0.950 . S
H4235 C4258 0.950 . S
H4236 C4259 0.950 . S
H4237 C4261 0.950 . S
H4238 C4262 0.950 . S
H4239 C4263 0.951 . S
H4240 C4265 0.951 . S
H4241 C4267 0.950 . S
H4242 C4268 0.950 . S
H4243 C4270 0.950 . S
H4244 C4273 0.950 . S
H4245 C4274 0.950 . S
H4246 C4276 0.950 . S
H4247 C4277 0.950 . S
C4248 H4230 0.951 . S
C4248 C4249 1.366 . S
C4248 C4250 1.388 . S
C4249 C4248 1.366 . S
C4249 C4253 1.385 . S
C4250 H4231 0.949 1_455 S
C4250 C4248 1.388 . S
C4250 C4251 1.394 . S
C4251 C4250 1.394 . S
C4251 C4252 1.431 . S
C4251 C4254 1.457 1_455 S
C4252 H4232 0.950 . S
C4252 C4251 1.431 . S
C4252 C4253 1.374 . S
C4253 H4233 0.950 . S
C4253 C4249 1.385 . S
C4253 C4252 1.374 . S
C4254 C4251 1.457 1_655 S
C4254 C4255 1.373 . S
C4254 C4256 1.389 . S
C4255 H4234 0.950 . S
C4255 C4254 1.373 . S
C4255 C4271 1.377 . S
C4256 C4254 1.389 . S
C4256 C4257 1.524 . S
C4256 C4270 1.377 . S
C4257 C4256 1.524 . S
C4257 C4258 1.397 . S
C4257 C4262 1.363 . S
C4258 H4235 0.950 . S
C4258 C4257 1.397 . S
C4258 C4259 1.334 . S
C4259 H4236 0.950 . S
C4259 C4258 1.334 . S
C4259 C4260 1.287 . S
C4260 C4259 1.287 . S
C4260 C4261 1.524 . S
C4260 H4279 0.913 . S
C4261 H4237 0.950 . S
C4261 C4260 1.524 . S
C4261 C4262 1.415 . S
C4262 H4238 0.950 . S
C4262 C4257 1.363 . S
C4262 C4261 1.415 . S
C4263 H4239 0.951 . S
C4263 C4264 1.366 . S
C4263 C4265 1.388 . S
C4264 C4263 1.366 . S
C4264 C4268 1.385 . S
C4265 H4240 0.951 . S
C4265 C4263 1.388 . S
C4265 C4266 1.366 . S
C4266 C4265 1.366 . S
C4266 C4267 1.414 . S
C4266 C4269 1.499 . S
C4267 H4241 0.950 . S
C4267 C4266 1.414 . S
C4267 C4268 1.374 . S
C4268 H4242 0.950 . S
C4268 C4264 1.385 . S
C4268 C4267 1.374 . S
C4269 C4266 1.499 . S
C4269 C4270 1.373 . S
C4269 C4271 1.389 . S
C4270 H4243 0.950 . S
C4270 C4256 1.377 . S
C4270 C4269 1.373 . S
C4271 C4255 1.377 . S
C4271 C4269 1.389 . S
C4271 C4272 1.524 . S
C4272 C4271 1.524 . S
C4272 C4273 1.397 . S
C4272 C4277 1.363 . S
C4273 H4244 0.950 . S
C4273 C4272 1.397 . S
C4273 C4274 1.334 . S
C4274 H4245 0.950 . S
C4274 C4273 1.334 . S
C4274 C4275 1.287 . S
C4275 C4274 1.287 . S
C4275 C4276 1.524 . S
C4275 H4278 0.999 . S
C4276 H4246 0.950 . S
C4276 C4275 1.524 . S
C4276 C4277 1.415 . S
C4277 H4247 0.950 . S
C4277 C4272 1.363 . S
C4277 C4276 1.415 . S
H4278 C4275 0.999 . S
H4279 C4260 0.913 . S
H4280 C4298 0.951 . S
H4281 C4300 0.951 . S
H4282 C4302 0.950 . S
H4283 C4303 0.950 . S
H4284 C4305 0.950 . S
H4285 C4308 0.950 . S
H4286 C4309 0.950 . S
H4287 C4311 0.950 . S
H4288 C4312 0.950 . S
H4289 C4313 0.951 . S
H4290 C4315 0.951 . S
H4291 C4317 0.950 . S
H4292 C4318 0.950 . S
H4293 C4320 0.950 . S
H4294 C4323 0.950 . S
H4295 C4324 0.950 . S
H4296 C4326 0.950 . S
H4297 C4327 0.950 . S
C4298 H4280 0.951 . S
C4298 C4299 1.366 . S
C4298 C4300 1.388 . S
C4299 C4298 1.366 . S
C4299 C4303 1.385 . S
C4300 H4281 0.951 . S
C4300 C4298 1.388 . S
C4300 C4301 1.366 . S
C4301 C4300 1.366 . S
C4301 C4302 1.414 . S
C4301 C4304 1.499 . S
C4302 H4282 0.950 . S
C4302 C4301 1.414 . S
C4302 C4303 1.374 . S
C4303 H4283 0.950 . S
C4303 C4299 1.385 . S
C4303 C4302 1.374 . S
C4304 C4301 1.499 . S
C4304 C4305 1.373 . S
C4304 C4306 1.389 . S
C4305 H4284 0.950 . S
C4305 C4304 1.373 . S
C4305 C4321 1.377 . S
C4306 C4304 1.389 . S
C4306 C4307 1.524 . S
C4306 C4320 1.377 . S
C4307 C4306 1.524 . S
C4307 C4308 1.397 . S
C4307 C4312 1.363 . S
C4308 H4285 0.950 . S
C4308 C4307 1.397 . S
C4308 C4309 1.334 . S
C4309 H4286 0.950 . S
C4309 C4308 1.334 . S
C4309 C4310 1.287 . S
C4310 C4309 1.287 . S
C4310 C4311 1.524 . S
C4310 H4329 0.913 . S
C4311 H4287 0.950 . S
C4311 C4310 1.524 . S
C4311 C4312 1.415 . S
C4312 H4288 0.950 . S
C4312 C4307 1.363 . S
C4312 C4311 1.415 . S
C4313 H4289 0.951 . S
C4313 C4314 1.366 . S
C4313 C4315 1.388 . S
C4314 C4313 1.366 . S
C4314 C4318 1.385 . S
C4315 H4290 0.951 . S
C4315 C4313 1.388 . S
C4315 C4316 1.366 . S
C4316 C4315 1.366 . S
C4316 C4317 1.414 . S
C4316 C4319 1.499 . S
C4317 H4291 0.950 . S
C4317 C4316 1.414 . S
C4317 C4318 1.374 . S
C4318 H4292 0.950 . S
C4318 C4314 1.385 . S
C4318 C4317 1.374 . S
C4319 C4316 1.499 . S
C4319 C4320 1.373 . S
C4319 C4321 1.389 . S
C4320 H4293 0.950 . S
C4320 C4306 1.377 . S
C4320 C4319 1.373 . S
C4321 C4305 1.377 . S
C4321 C4319 1.389 . S
C4321 C4322 1.524 . S
C4322 C4321 1.524 . S
C4322 C4323 1.397 . S
C4322 C4327 1.363 . S
C4323 H4294 0.950 . S
C4323 C4322 1.397 . S
C4323 C4324 1.334 . S
C4324 H4295 0.950 . S
C4324 C4323 1.334 . S
C4324 C4325 1.287 . S
C4325 C4324 1.287 . S
C4325 C4326 1.524 . S
C4325 H4328 0.999 . S
C4326 H4296 0.950 . S
C4326 C4325 1.524 . S
C4326 C4327 1.415 . S
C4327 H4297 0.950 . S
C4327 C4322 1.363 . S
C4327 C4326 1.415 . S
H4328 C4325 0.999 . S
H4329 C4310 0.913 . S
H4330 C4348 0.951 . S
H4331 C4350 0.951 . S
H4332 C4352 0.950 . S
H4333 C4353 0.950 . S
H4334 C4355 0.950 1_455 S
H4335 C4358 0.950 . S
H4336 C4359 0.950 . S
H4337 C4361 0.950 . S
H4338 C4362 0.950 . S
H4339 C4363 0.951 . S
H4340 C4365 0.951 . S
H4341 C4367 0.950 . S
H4342 C4368 0.950 . S
H4343 C4370 0.950 . S
H4344 C4373 0.950 . S
H4345 C4374 0.950 . S
H4346 C4376 0.950 . S
H4347 C4377 0.950 . S
C4348 H4330 0.951 . S
C4348 C4349 1.366 . S
C4348 C4350 1.388 . S
C4349 C4348 1.366 . S
C4349 C4353 1.385 . S
C4350 H4331 0.951 . S
C4350 C4348 1.388 . S
C4350 C4351 1.366 . S
C4351 C4350 1.366 . S
C4351 C4352 1.414 . S
C4351 C4354 1.499 . S
C4352 H4332 0.950 . S
C4352 C4351 1.414 . S
C4352 C4353 1.374 . S
C4353 H4333 0.950 . S
C4353 C4349 1.385 . S
C4353 C4352 1.374 . S
C4354 C4351 1.499 . S
C4354 C4355 1.373 1_455 S
C4354 C4356 1.389 1_455 S
C4355 H4334 0.950 1_655 S
C4355 C4354 1.373 1_655 S
C4355 C4371 1.377 . S
C4356 C4354 1.389 1_655 S
C4356 C4357 1.524 1_655 S
C4356 C4370 1.377 . S
C4357 C4356 1.524 1_455 S
C4357 C4358 1.397 . S
C4357 C4362 1.363 1_455 S
C4358 H4335 0.950 . S
C4358 C4357 1.397 . S
C4358 C4359 1.334 . S
C4359 H4336 0.950 . S
C4359 C4358 1.334 . S
C4359 C4360 1.287 . S
C4360 C4359 1.287 . S
C4360 C4361 1.524 . S
C4360 H4379 0.913 . S
C4361 H4337 0.950 . S
C4361 C4360 1.524 . S
C4361 C4362 1.415 1_455 S
C4362 H4338 0.950 . S
C4362 C4357 1.363 1_655 S
C4362 C4361 1.415 1_655 S
C4363 H4339 0.951 . S
C4363 C4364 1.366 . S
C4363 C4365 1.388 . S
C4364 C4363 1.366 . S
C4364 C4368 1.385 . S
C4365 H4340 0.951 . S
C4365 C4363 1.388 . S
C4365 C4366 1.366 . S
C4366 C4365 1.366 . S
C4366 C4367 1.414 . S
C4366 C4369 1.499 . S
C4367 H4341 0.950 . S
C4367 C4366 1.414 . S
C4367 C4368 1.374 . S
C4368 H4342 0.950 . S
C4368 C4364 1.385 . S
C4368 C4367 1.374 . S
C4369 C4366 1.499 . S
C4369 C4370 1.373 . S
C4369 C4371 1.389 . S
C4370 H4343 0.950 . S
C4370 C4356 1.377 . S
C4370 C4369 1.373 . S
C4371 C4355 1.377 . S
C4371 C4369 1.389 . S
C4371 C4372 1.524 . S
C4372 C4371 1.524 . S
C4372 C4373 1.397 . S
C4372 C4377 1.363 . S
C4373 H4344 0.950 . S
C4373 C4372 1.397 . S
C4373 C4374 1.334 . S
C4374 H4345 0.950 . S
C4374 C4373 1.334 . S
C4374 C4375 1.287 . S
C4375 C4374 1.287 . S
C4375 C4376 1.524 . S
C4375 H4378 0.999 . S
C4376 H4346 0.950 . S
C4376 C4375 1.524 . S
C4376 C4377 1.415 . S
C4377 H4347 0.950 . S
C4377 C4372 1.363 . S
C4377 C4376 1.415 . S
H4378 C4375 0.999 . S
H4379 C4360 0.913 . S
H4380 C4398 0.951 . S
H4381 C4400 0.951 . S
H4382 C4402 0.950 . S
H4383 C4403 0.950 . S
H4384 C4405 0.950 . S
H4385 C4408 0.950 . S
H4386 C4409 0.950 . S
H4387 C4411 0.950 . S
H4388 C4412 0.950 . S
H4389 C4413 0.951 . S
H4390 C4415 0.951 . S
H4391 C4417 0.950 . S
H4392 C4418 0.950 . S
H4393 C4420 0.950 . S
H4394 C4423 0.950 . S
H4395 C4424 0.950 . S
H4396 C4426 0.950 . S
H4397 C4427 0.950 . S
C4398 H4380 0.951 . S
C4398 C4399 1.366 . S
C4398 C4400 1.388 . S
C4399 C4398 1.366 . S
C4399 C4403 1.385 1_655 S
C4400 H4381 0.951 . S
C4400 C4398 1.388 . S
C4400 C4401 1.342 1_655 S
C4401 C4400 1.342 1_455 S
C4401 C4402 1.423 . S
C4401 C4404 1.515 . S
C4402 H4382 0.950 . S
C4402 C4401 1.423 . S
C4402 C4403 1.374 . S
C4403 H4383 0.950 . S
C4403 C4399 1.385 1_455 S
C4403 C4402 1.374 . S
C4404 C4401 1.515 . S
C4404 C4405 1.373 . S
C4404 C4406 1.389 1_455 S
C4405 H4384 0.950 . S
C4405 C4404 1.373 . S
C4405 C4421 1.377 . S
C4406 C4404 1.389 1_655 S
C4406 C4407 1.524 . S
C4406 C4420 1.377 . S
C4407 C4406 1.524 . S
C4407 C4408 1.397 . S
C4407 C4412 1.363 . S
C4408 H4385 0.950 . S
C4408 C4407 1.397 . S
C4408 C4409 1.334 . S
C4409 H4386 0.950 . S
C4409 C4408 1.334 . S
C4409 C4410 1.287 . S
C4410 C4409 1.287 . S
C4410 C4411 1.524 . S
C4410 H4429 0.913 . S
C4411 H4387 0.950 . S
C4411 C4410 1.524 . S
C4411 C4412 1.415 . S
C4412 H4388 0.950 . S
C4412 C4407 1.363 . S
C4412 C4411 1.415 . S
C4413 H4389 0.951 . S
C4413 C4414 1.366 . S
C4413 C4415 1.388 . S
C4414 C4413 1.366 . S
C4414 C4418 1.385 . S
C4415 H4390 0.951 . S
C4415 C4413 1.388 . S
C4415 C4416 1.366 . S
C4416 C4415 1.366 . S
C4416 C4417 1.414 . S
C4416 C4419 1.499 . S
C4417 H4391 0.950 . S
C4417 C4416 1.414 . S
C4417 C4418 1.374 . S
C4418 H4392 0.950 . S
C4418 C4414 1.385 . S
C4418 C4417 1.374 . S
C4419 C4416 1.499 . S
C4419 C4420 1.373 1_455 S
C4419 C4421 1.389 . S
C4420 H4393 0.950 . S
C4420 C4406 1.377 . S
C4420 C4419 1.373 1_655 S
C4421 C4405 1.377 . S
C4421 C4419 1.389 . S
C4421 C4422 1.524 . S
C4422 C4421 1.524 . S
C4422 C4423 1.397 . S
C4422 C4427 1.363 . S
C4423 H4394 0.950 . S
C4423 C4422 1.397 . S
C4423 C4424 1.334 . S
C4424 H4395 0.950 . S
C4424 C4423 1.334 . S
C4424 C4425 1.287 . S
C4425 C4424 1.287 . S
C4425 C4426 1.524 . S
C4425 H4428 0.999 . S
C4426 H4396 0.950 . S
C4426 C4425 1.524 . S
C4426 C4427 1.415 . S
C4427 H4397 0.950 . S
C4427 C4422 1.363 . S
C4427 C4426 1.415 . S
H4428 C4425 0.999 . S
H4429 C4410 0.913 . S
H4430 C4448 0.951 . S
H4431 C4450 0.951 . S
H4432 C4452 0.950 . S
H4433 C4453 0.950 . S
H4434 C4455 0.950 . S
H4435 C4458 0.950 . S
H4436 C4459 0.950 . S
H4437 C4461 0.950 . S
H4438 C4462 0.950 . S
H4439 C4463 0.951 . S
H4440 C4465 0.951 . S
H4441 C4467 0.950 . S
H4442 C4468 0.950 . S
H4443 C4470 0.950 . S
H4444 C4473 0.950 . S
H4445 C4474 0.950 . S
H4446 C4476 0.950 . S
H4447 C4477 0.950 . S
C4448 H4430 0.951 . S
C4448 C4449 1.366 . S
C4448 C4450 1.388 . S
C4449 C4448 1.366 . S
C4449 C4453 1.385 . S
C4450 H4431 0.951 . S
C4450 C4448 1.388 . S
C4450 C4451 1.366 . S
C4451 C4450 1.366 . S
C4451 C4452 1.414 . S
C4451 C4454 1.499 . S
C4452 H4432 0.950 . S
C4452 C4451 1.414 . S
C4452 C4453 1.374 . S
C4453 H4433 0.950 . S
C4453 C4449 1.385 . S
C4453 C4452 1.374 . S
C4454 C4451 1.499 . S
C4454 C4455 1.373 . S
C4454 C4456 1.389 . S
C4455 H4434 0.950 . S
C4455 C4454 1.373 . S
C4455 C4471 1.377 . S
C4456 C4454 1.389 . S
C4456 C4457 1.524 . S
C4456 C4470 1.377 . S
C4457 C4456 1.524 . S
C4457 C4458 1.397 . S
C4457 C4462 1.363 . S
C4458 H4435 0.950 . S
C4458 C4457 1.397 . S
C4458 C4459 1.334 . S
C4459 H4436 0.950 . S
C4459 C4458 1.334 . S
C4459 C4460 1.287 . S
C4460 C4459 1.287 . S
C4460 C4461 1.524 . S
C4460 H4479 0.913 . S
C4461 H4437 0.950 . S
C4461 C4460 1.524 . S
C4461 C4462 1.415 . S
C4462 H4438 0.950 . S
C4462 C4457 1.363 . S
C4462 C4461 1.415 . S
C4463 H4439 0.951 . S
C4463 C4464 1.366 . S
C4463 C4465 1.388 . S
C4464 C4463 1.366 . S
C4464 C4468 1.385 . S
C4465 H4440 0.951 . S
C4465 C4463 1.388 . S
C4465 C4466 1.366 . S
C4466 C4465 1.366 . S
C4466 C4467 1.414 . S
C4466 C4469 1.499 . S
C4467 H4441 0.950 . S
C4467 C4466 1.414 . S
C4467 C4468 1.374 . S
C4468 H4442 0.950 . S
C4468 C4464 1.385 . S
C4468 C4467 1.374 . S
C4469 C4466 1.499 . S
C4469 C4470 1.373 . S
C4469 C4471 1.389 . S
C4470 H4443 0.950 . S
C4470 C4456 1.377 . S
C4470 C4469 1.373 . S
C4471 C4455 1.377 . S
C4471 C4469 1.389 . S
C4471 C4472 1.524 . S
C4472 C4471 1.524 . S
C4472 C4473 1.397 . S
C4472 C4477 1.363 . S
C4473 H4444 0.950 . S
C4473 C4472 1.397 . S
C4473 C4474 1.334 . S
C4474 H4445 0.950 . S
C4474 C4473 1.334 . S
C4474 C4475 1.287 . S
C4475 C4474 1.287 . S
C4475 C4476 1.524 . S
C4475 H4478 0.999 . S
C4476 H4446 0.950 . S
C4476 C4475 1.524 . S
C4476 C4477 1.415 . S
C4477 H4447 0.950 . S
C4477 C4472 1.363 . S
C4477 C4476 1.415 . S
H4478 C4475 0.999 . S
H4479 C4460 0.913 . S
H4480 C4498 0.951 . S
H4481 C4500 0.951 . S
H4482 C4502 0.950 . S
H4483 C4503 0.950 . S
H4484 C4505 0.950 . S
H4485 C4508 0.950 . S
H4486 C4509 0.950 . S
H4487 C4511 0.950 . S
H4488 C4512 0.950 . S
H4489 C4513 0.951 . S
H4490 C4515 0.951 . S
H4491 C4517 0.950 . S
H4492 C4518 0.950 . S
H4493 C4520 0.950 . S
H4494 C4523 0.950 . S
H4495 C4524 0.950 . S
H4496 C4526 0.950 . S
H4497 C4527 0.950 . S
C4498 H4480 0.951 . S
C4498 C4499 1.366 . S
C4498 C4500 1.388 . S
C4499 C4498 1.366 . S
C4499 C4503 1.385 . S
C4500 H4481 0.951 . S
C4500 C4498 1.388 . S
C4500 C4501 1.366 . S
C4501 C4500 1.366 . S
C4501 C4502 1.414 . S
C4501 C4504 1.499 . S
C4502 H4482 0.950 . S
C4502 C4501 1.414 . S
C4502 C4503 1.374 . S
C4503 H4483 0.950 . S
C4503 C4499 1.385 . S
C4503 C4502 1.374 . S
C4504 C4501 1.499 . S
C4504 C4505 1.373 . S
C4504 C4506 1.389 . S
C4505 H4484 0.950 . S
C4505 C4504 1.373 . S
C4505 C4521 1.377 . S
C4506 C4504 1.389 . S
C4506 C4507 1.524 . S
C4506 C4520 1.377 . S
C4507 C4506 1.524 . S
C4507 C4508 1.397 . S
C4507 C4512 1.363 . S
C4508 H4485 0.950 . S
C4508 C4507 1.397 . S
C4508 C4509 1.334 . S
C4509 H4486 0.950 . S
C4509 C4508 1.334 . S
C4509 C4510 1.287 . S
C4510 C4509 1.287 . S
C4510 C4511 1.524 . S
C4510 H4529 0.913 . S
C4511 H4487 0.950 . S
C4511 C4510 1.524 . S
C4511 C4512 1.415 . S
C4512 H4488 0.950 . S
C4512 C4507 1.363 . S
C4512 C4511 1.415 . S
C4513 H4489 0.951 . S
C4513 C4514 1.366 . S
C4513 C4515 1.388 . S
C4514 C4513 1.366 . S
C4514 C4518 1.385 . S
C4515 H4490 0.951 . S
C4515 C4513 1.388 . S
C4515 C4516 1.366 . S
C4516 C4515 1.366 . S
C4516 C4517 1.414 . S
C4516 C4519 1.499 . S
C4517 H4491 0.950 . S
C4517 C4516 1.414 . S
C4517 C4518 1.374 . S
C4518 H4492 0.950 . S
C4518 C4514 1.385 . S
C4518 C4517 1.374 . S
C4519 C4516 1.499 . S
C4519 C4520 1.373 . S
C4519 C4521 1.389 . S
C4520 H4493 0.950 . S
C4520 C4506 1.377 . S
C4520 C4519 1.373 . S
C4521 C4505 1.377 . S
C4521 C4519 1.389 . S
C4521 C4522 1.524 . S
C4522 C4521 1.524 . S
C4522 C4523 1.397 . S
C4522 C4527 1.363 . S
C4523 H4494 0.950 . S
C4523 C4522 1.397 . S
C4523 C4524 1.334 . S
C4524 H4495 0.950 . S
C4524 C4523 1.334 . S
C4524 C4525 1.287 . S
C4525 C4524 1.287 . S
C4525 C4526 1.524 . S
C4525 H4528 0.999 . S
C4526 H4496 0.950 . S
C4526 C4525 1.524 . S
C4526 C4527 1.415 . S
C4527 H4497 0.950 . S
C4527 C4522 1.363 . S
C4527 C4526 1.415 . S
H4528 C4525 0.999 . S
H4529 C4510 0.913 . S
H4530 C4548 0.951 . S
H4531 C4550 0.951 . S
H4532 C4552 0.950 . S
H4533 C4553 0.950 . S
H4534 C4555 0.950 . S
H4535 C4558 0.950 . S
H4536 C4559 0.950 1_554 S
H4537 C4561 0.950 . S
H4538 C4562 0.950 . S
H4539 C4563 0.951 . S
H4540 C4565 0.951 . S
H4541 C4567 0.950 . S
H4542 C4568 0.950 . S
H4543 C4570 0.950 . S
H4544 C4573 0.950 . S
H4545 C4574 0.950 . S
H4546 C4576 0.950 . S
H4547 C4577 0.950 . S
C4548 H4530 0.951 . S
C4548 C4549 1.366 . S
C4548 C4550 1.388 . S
C4549 C4548 1.366 . S
C4549 C4553 1.385 . S
C4550 H4531 0.951 . S
C4550 C4548 1.388 . S
C4550 C4551 1.366 . S
C4551 C4550 1.366 . S
C4551 C4552 1.414 . S
C4551 C4554 1.499 . S
C4552 H4532 0.950 . S
C4552 C4551 1.414 . S
C4552 C4553 1.374 . S
C4553 H4533 0.950 . S
C4553 C4549 1.385 . S
C4553 C4552 1.374 . S
C4554 C4551 1.499 . S
C4554 C4555 1.373 . S
C4554 C4556 1.389 . S
C4555 H4534 0.950 . S
C4555 C4554 1.373 . S
C4555 C4571 1.377 . S
C4556 C4554 1.389 . S
C4556 C4557 1.524 . S
C4556 C4570 1.377 . S
C4557 C4556 1.524 . S
C4557 C4558 1.397 . S
C4557 C4562 1.363 . S
C4558 H4535 0.950 . S
C4558 C4557 1.397 . S
C4558 C4559 1.334 . S
C4559 H4536 0.950 1_556 S
C4559 C4558 1.334 . S
C4559 C4560 1.287 . S
C4560 C4559 1.287 . S
C4560 C4561 1.524 . S
C4560 H4579 0.913 1_556 S
C4561 H4537 0.950 . S
C4561 C4560 1.524 . S
C4561 C4562 1.415 . S
C4562 H4538 0.950 . S
C4562 C4557 1.363 . S
C4562 C4561 1.415 . S
C4563 H4539 0.951 . S
C4563 C4564 1.366 . S
C4563 C4565 1.388 . S
C4564 C4563 1.366 . S
C4564 C4568 1.385 . S
C4565 H4540 0.951 . S
C4565 C4563 1.388 . S
C4565 C4566 1.366 . S
C4566 C4565 1.366 . S
C4566 C4567 1.414 . S
C4566 C4569 1.499 . S
C4567 H4541 0.950 . S
C4567 C4566 1.414 . S
C4567 C4568 1.374 . S
C4568 H4542 0.950 . S
C4568 C4564 1.385 . S
C4568 C4567 1.374 . S
C4569 C4566 1.499 . S
C4569 C4570 1.373 . S
C4569 C4571 1.389 . S
C4570 H4543 0.950 . S
C4570 C4556 1.377 . S
C4570 C4569 1.373 . S
C4571 C4555 1.377 . S
C4571 C4569 1.389 . S
C4571 C4572 1.524 . S
C4572 C4571 1.524 . S
C4572 C4573 1.397 . S
C4572 C4577 1.363 . S
C4573 H4544 0.950 . S
C4573 C4572 1.397 . S
C4573 C4574 1.334 . S
C4574 H4545 0.950 . S
C4574 C4573 1.334 . S
C4574 C4575 1.287 . S
C4575 C4574 1.287 . S
C4575 C4576 1.524 . S
C4575 H4578 0.999 . S
C4576 H4546 0.950 . S
C4576 C4575 1.524 . S
C4576 C4577 1.415 . S
C4577 H4547 0.950 . S
C4577 C4572 1.363 . S
C4577 C4576 1.415 . S
H4578 C4575 0.999 . S
H4579 C4560 0.913 1_554 S
H4580 C4598 0.951 . S
H4581 C4600 0.951 . S
H4582 C4602 0.950 . S
H4583 C4603 0.950 . S
H4584 C4605 0.950 . S
H4585 C4608 0.950 . S
H4586 C4609 0.950 . S
H4587 C4611 0.950 . S
H4588 C4612 0.950 . S
H4589 C4613 0.951 . S
H4590 C4615 0.951 . S
H4591 C4617 0.950 . S
H4592 C4618 0.950 . S
H4593 C4620 0.950 . S
H4594 C4623 0.950 . S
H4595 C4624 0.950 . S
H4596 C4626 0.950 . S
H4597 C4627 0.950 . S
C4598 H4580 0.951 . S
C4598 C4599 1.366 . S
C4598 C4600 1.388 . S
C4599 C4598 1.366 . S
C4599 C4603 1.385 . S
C4600 H4581 0.951 . S
C4600 C4598 1.388 . S
C4600 C4601 1.366 . S
C4601 C4600 1.366 . S
C4601 C4602 1.414 . S
C4601 C4604 1.499 . S
C4602 H4582 0.950 . S
C4602 C4601 1.414 . S
C4602 C4603 1.374 . S
C4603 H4583 0.950 . S
C4603 C4599 1.385 . S
C4603 C4602 1.374 . S
C4604 C4601 1.499 . S
C4604 C4605 1.373 . S
C4604 C4606 1.389 . S
C4605 H4584 0.950 . S
C4605 C4604 1.373 . S
C4605 C4621 1.377 . S
C4606 C4604 1.389 . S
C4606 C4607 1.524 . S
C4606 C4620 1.377 . S
C4607 C4606 1.524 . S
C4607 C4608 1.397 . S
C4607 C4612 1.363 . S
C4608 H4585 0.950 . S
C4608 C4607 1.397 . S
C4608 C4609 1.334 . S
C4609 H4586 0.950 . S
C4609 C4608 1.334 . S
C4609 C4610 1.287 . S
C4610 C4609 1.287 . S
C4610 C4611 1.524 . S
C4610 H4629 0.913 . S
C4611 H4587 0.950 . S
C4611 C4610 1.524 . S
C4611 C4612 1.415 . S
C4612 H4588 0.950 . S
C4612 C4607 1.363 . S
C4612 C4611 1.415 . S
C4613 H4589 0.951 . S
C4613 C4614 1.366 . S
C4613 C4615 1.388 . S
C4614 C4613 1.366 . S
C4614 C4618 1.385 . S
C4615 H4590 0.951 . S
C4615 C4613 1.388 . S
C4615 C4616 1.366 . S
C4616 C4615 1.366 . S
C4616 C4617 1.414 . S
C4616 C4619 1.499 . S
C4617 H4591 0.950 . S
C4617 C4616 1.414 . S
C4617 C4618 1.374 . S
C4618 H4592 0.950 . S
C4618 C4614 1.385 . S
C4618 C4617 1.374 . S
C4619 C4616 1.499 . S
C4619 C4620 1.373 . S
C4619 C4621 1.389 . S
C4620 H4593 0.950 . S
C4620 C4606 1.377 . S
C4620 C4619 1.373 . S
C4621 C4605 1.377 . S
C4621 C4619 1.389 . S
C4621 C4622 1.524 . S
C4622 C4621 1.524 . S
C4622 C4623 1.397 . S
C4622 C4627 1.363 . S
C4623 H4594 0.950 . S
C4623 C4622 1.397 . S
C4623 C4624 1.334 . S
C4624 H4595 0.950 . S
C4624 C4623 1.334 . S
C4624 C4625 1.287 . S
C4625 C4624 1.287 . S
C4625 C4626 1.524 . S
C4625 H4628 0.999 . S
C4626 H4596 0.950 . S
C4626 C4625 1.524 . S
C4626 C4627 1.415 . S
C4627 H4597 0.950 . S
C4627 C4622 1.363 . S
C4627 C4626 1.415 . S
H4628 C4625 0.999 . S
H4629 C4610 0.913 . S
H4630 C4648 0.951 . S
H4631 C4650 0.951 . S
H4632 C4652 0.950 . S
H4633 C4653 0.950 . S
H4634 C4655 0.950 . S
H4635 C4658 0.950 . S
H4636 C4659 0.950 . S
H4637 C4661 0.950 . S
H4638 C4662 0.950 . S
H4639 C4663 0.951 . S
H4640 C4665 0.951 . S
H4641 C4667 0.950 . S
H4642 C4668 0.950 . S
H4643 C4670 0.950 . S
H4644 C4673 0.950 . S
H4645 C4674 0.950 . S
H4646 C4676 0.950 . S
H4647 C4677 0.950 . S
C4648 H4630 0.951 . S
C4648 C4649 1.366 . S
C4648 C4650 1.388 . S
C4649 C4648 1.366 . S
C4649 C4653 1.385 . S
C4650 H4631 0.951 . S
C4650 C4648 1.388 . S
C4650 C4651 1.366 . S
C4651 C4650 1.366 . S
C4651 C4652 1.414 . S
C4651 C4654 1.499 . S
C4652 H4632 0.950 . S
C4652 C4651 1.414 . S
C4652 C4653 1.374 . S
C4653 H4633 0.950 . S
C4653 C4649 1.385 . S
C4653 C4652 1.374 . S
C4654 C4651 1.499 . S
C4654 C4655 1.373 . S
C4654 C4656 1.389 . S
C4655 H4634 0.950 . S
C4655 C4654 1.373 . S
C4655 C4671 1.377 . S
C4656 C4654 1.389 . S
C4656 C4657 1.524 . S
C4656 C4670 1.377 . S
C4657 C4656 1.524 . S
C4657 C4658 1.397 . S
C4657 C4662 1.363 . S
C4658 H4635 0.950 . S
C4658 C4657 1.397 . S
C4658 C4659 1.334 . S
C4659 H4636 0.950 . S
C4659 C4658 1.334 . S
C4659 C4660 1.287 . S
C4660 C4659 1.287 . S
C4660 C4661 1.524 . S
C4660 H4679 0.913 . S
C4661 H4637 0.950 . S
C4661 C4660 1.524 . S
C4661 C4662 1.415 . S
C4662 H4638 0.950 . S
C4662 C4657 1.363 . S
C4662 C4661 1.415 . S
C4663 H4639 0.951 . S
C4663 C4664 1.366 . S
C4663 C4665 1.388 . S
C4664 C4663 1.366 . S
C4664 C4668 1.385 . S
C4665 H4640 0.951 . S
C4665 C4663 1.388 . S
C4665 C4666 1.366 . S
C4666 C4665 1.366 . S
C4666 C4667 1.414 . S
C4666 C4669 1.499 . S
C4667 H4641 0.950 . S
C4667 C4666 1.414 . S
C4667 C4668 1.374 . S
C4668 H4642 0.950 . S
C4668 C4664 1.385 . S
C4668 C4667 1.374 . S
C4669 C4666 1.499 . S
C4669 C4670 1.373 . S
C4669 C4671 1.389 . S
C4670 H4643 0.950 . S
C4670 C4656 1.377 . S
C4670 C4669 1.373 . S
C4671 C4655 1.377 . S
C4671 C4669 1.389 . S
C4671 C4672 1.524 . S
C4672 C4671 1.524 . S
C4672 C4673 1.397 . S
C4672 C4677 1.363 . S
C4673 H4644 0.950 . S
C4673 C4672 1.397 . S
C4673 C4674 1.334 . S
C4674 H4645 0.950 . S
C4674 C4673 1.334 . S
C4674 C4675 1.287 . S
C4675 C4674 1.287 . S
C4675 C4676 1.524 . S
C4675 H4678 0.999 . S
C4676 H4646 0.950 . S
C4676 C4675 1.524 . S
C4676 C4677 1.415 . S
C4677 H4647 0.950 . S
C4677 C4672 1.363 . S
C4677 C4676 1.415 . S
H4678 C4675 0.999 . S
H4679 C4660 0.913 . S
H4680 C4698 0.951 . S
H4681 C4700 0.951 . S
H4682 C4702 0.950 . S
H4683 C4703 0.950 . S
H4684 C4705 0.950 . S
H4685 C4708 0.950 . S
H4686 C4709 0.950 . S
H4687 C4711 0.950 . S
H4688 C4712 0.950 . S
H4689 C4713 0.951 . S
H4690 C4715 0.951 . S
H4691 C4717 0.950 . S
H4692 C4718 0.950 . S
H4693 C4720 0.950 . S
H4694 C4723 0.950 . S
H4695 C4724 0.950 . S
H4696 C4726 0.950 . S
H4697 C4727 0.950 . S
C4698 H4680 0.951 . S
C4698 C4699 1.366 . S
C4698 C4700 1.388 . S
C4699 C4698 1.366 . S
C4699 C4703 1.385 . S
C4700 H4681 0.951 . S
C4700 C4698 1.388 . S
C4700 C4701 1.366 . S
C4701 C4700 1.366 . S
C4701 C4702 1.414 . S
C4701 C4704 1.499 . S
C4702 H4682 0.950 . S
C4702 C4701 1.414 . S
C4702 C4703 1.374 . S
C4703 H4683 0.950 . S
C4703 C4699 1.385 . S
C4703 C4702 1.374 . S
C4704 C4701 1.499 . S
C4704 C4705 1.373 . S
C4704 C4706 1.389 . S
C4705 H4684 0.950 . S
C4705 C4704 1.373 . S
C4705 C4721 1.377 . S
C4706 C4704 1.389 . S
C4706 C4707 1.524 . S
C4706 C4720 1.377 . S
C4707 C4706 1.524 . S
C4707 C4708 1.397 . S
C4707 C4712 1.363 . S
C4708 H4685 0.950 . S
C4708 C4707 1.397 . S
C4708 C4709 1.334 . S
C4709 H4686 0.950 . S
C4709 C4708 1.334 . S
C4709 C4710 1.287 . S
C4710 C4709 1.287 . S
C4710 C4711 1.524 . S
C4710 H4729 0.913 . S
C4711 H4687 0.950 . S
C4711 C4710 1.524 . S
C4711 C4712 1.415 . S
C4712 H4688 0.950 . S
C4712 C4707 1.363 . S
C4712 C4711 1.415 . S
C4713 H4689 0.951 . S
C4713 C4714 1.366 . S
C4713 C4715 1.388 . S
C4714 C4713 1.366 . S
C4714 C4718 1.385 . S
C4715 H4690 0.951 . S
C4715 C4713 1.388 . S
C4715 C4716 1.366 . S
C4716 C4715 1.366 . S
C4716 C4717 1.414 . S
C4716 C4719 1.499 . S
C4717 H4691 0.950 . S
C4717 C4716 1.414 . S
C4717 C4718 1.374 . S
C4718 H4692 0.950 . S
C4718 C4714 1.385 . S
C4718 C4717 1.374 . S
C4719 C4716 1.499 . S
C4719 C4720 1.373 . S
C4719 C4721 1.389 . S
C4720 H4693 0.950 . S
C4720 C4706 1.377 . S
C4720 C4719 1.373 . S
C4721 C4705 1.377 . S
C4721 C4719 1.389 . S
C4721 C4722 1.524 . S
C4722 C4721 1.524 . S
C4722 C4723 1.397 . S
C4722 C4727 1.363 . S
C4723 H4694 0.950 . S
C4723 C4722 1.397 . S
C4723 C4724 1.334 . S
C4724 H4695 0.950 . S
C4724 C4723 1.334 . S
C4724 C4725 1.287 . S
C4725 C4724 1.287 . S
C4725 C4726 1.524 . S
C4725 H4728 0.999 . S
C4726 H4696 0.950 . S
C4726 C4725 1.524 . S
C4726 C4727 1.415 . S
C4727 H4697 0.950 . S
C4727 C4722 1.363 . S
C4727 C4726 1.415 . S
H4728 C4725 0.999 . S
H4729 C4710 0.913 . S
H4730 C4748 0.951 . S
H4731 C4750 0.951 . S
H4732 C4752 0.950 . S
H4733 C4753 0.950 . S
H4734 C4755 0.950 . S
H4735 C4758 0.950 . S
H4736 C4759 0.950 . S
H4737 C4761 0.950 . S
H4738 C4762 0.950 . S
H4739 C4763 0.951 . S
H4740 C4765 0.951 . S
H4741 C4767 0.950 . S
H4742 C4768 0.950 . S
H4743 C4770 0.950 . S
H4744 C4773 0.950 . S
H4745 C4774 0.950 . S
H4746 C4776 0.950 . S
H4747 C4777 0.950 . S
C4748 H4730 0.951 . S
C4748 C4749 1.366 . S
C4748 C4750 1.388 . S
C4749 C4748 1.366 . S
C4749 C4753 1.385 . S
C4750 H4731 0.951 . S
C4750 C4748 1.388 . S
C4750 C4751 1.366 . S
C4751 C4750 1.366 . S
C4751 C4752 1.414 . S
C4751 C4754 1.499 . S
C4752 H4732 0.950 . S
C4752 C4751 1.414 . S
C4752 C4753 1.374 . S
C4753 H4733 0.950 . S
C4753 C4749 1.385 . S
C4753 C4752 1.374 . S
C4754 C4751 1.499 . S
C4754 C4755 1.373 . S
C4754 C4756 1.389 . S
C4755 H4734 0.950 . S
C4755 C4754 1.373 . S
C4755 C4771 1.377 . S
C4756 C4754 1.389 . S
C4756 C4757 1.524 . S
C4756 C4770 1.377 . S
C4757 C4756 1.524 . S
C4757 C4758 1.397 . S
C4757 C4762 1.363 . S
C4758 H4735 0.950 . S
C4758 C4757 1.397 . S
C4758 C4759 1.334 . S
C4759 H4736 0.950 . S
C4759 C4758 1.334 . S
C4759 C4760 1.287 . S
C4760 C4759 1.287 . S
C4760 C4761 1.524 . S
C4760 H4779 0.913 . S
C4761 H4737 0.950 . S
C4761 C4760 1.524 . S
C4761 C4762 1.415 . S
C4762 H4738 0.950 . S
C4762 C4757 1.363 . S
C4762 C4761 1.415 . S
C4763 H4739 0.951 . S
C4763 C4764 1.366 . S
C4763 C4765 1.388 . S
C4764 C4763 1.366 . S
C4764 C4768 1.385 . S
C4765 H4740 0.951 . S
C4765 C4763 1.388 . S
C4765 C4766 1.366 . S
C4766 C4765 1.366 . S
C4766 C4767 1.414 . S
C4766 C4769 1.499 . S
C4767 H4741 0.950 . S
C4767 C4766 1.414 . S
C4767 C4768 1.374 . S
C4768 H4742 0.950 . S
C4768 C4764 1.385 . S
C4768 C4767 1.374 . S
C4769 C4766 1.499 . S
C4769 C4770 1.373 . S
C4769 C4771 1.389 . S
C4770 H4743 0.950 . S
C4770 C4756 1.377 . S
C4770 C4769 1.373 . S
C4771 C4755 1.377 . S
C4771 C4769 1.389 . S
C4771 C4772 1.524 . S
C4772 C4771 1.524 . S
C4772 C4773 1.397 . S
C4772 C4777 1.363 . S
C4773 H4744 0.950 . S
C4773 C4772 1.397 . S
C4773 C4774 1.334 . S
C4774 H4745 0.950 . S
C4774 C4773 1.334 . S
C4774 C4775 1.287 . S
C4775 C4774 1.287 . S
C4775 C4776 1.524 . S
C4775 H4778 0.999 . S
C4776 H4746 0.950 . S
C4776 C4775 1.524 . S
C4776 C4777 1.415 . S
C4777 H4747 0.950 . S
C4777 C4772 1.363 . S
C4777 C4776 1.415 . S
H4778 C4775 0.999 . S
H4779 C4760 0.913 . S
H4780 C4798 0.951 . S
H4781 C4800 0.951 . S
H4782 C4802 0.950 . S
H4783 C4803 0.950 . S
H4784 C4805 0.950 . S
H4785 C4808 0.950 . S
H4786 C4809 0.950 . S
H4787 C4811 0.950 . S
H4788 C4812 0.950 . S
H4789 C4813 0.951 . S
H4790 C4815 0.951 . S
H4791 C4817 0.950 . S
H4792 C4818 0.950 . S
H4793 C4820 0.950 . S
H4794 C4823 0.950 . S
H4795 C4824 0.950 . S
H4796 C4826 0.950 . S
H4797 C4827 0.950 . S
C4798 H4780 0.951 . S
C4798 C4799 1.366 . S
C4798 C4800 1.388 . S
C4799 C4798 1.366 . S
C4799 C4803 1.385 . S
C4800 H4781 0.951 . S
C4800 C4798 1.388 . S
C4800 C4801 1.366 . S
C4801 C4800 1.366 . S
C4801 C4802 1.414 . S
C4801 C4804 1.499 . S
C4802 H4782 0.950 . S
C4802 C4801 1.414 . S
C4802 C4803 1.374 . S
C4803 H4783 0.950 . S
C4803 C4799 1.385 . S
C4803 C4802 1.374 . S
C4804 C4801 1.499 . S
C4804 C4805 1.373 . S
C4804 C4806 1.389 . S
C4805 H4784 0.950 . S
C4805 C4804 1.373 . S
C4805 C4821 1.377 . S
C4806 C4804 1.389 . S
C4806 C4807 1.524 . S
C4806 C4820 1.377 . S
C4807 C4806 1.524 . S
C4807 C4808 1.397 . S
C4807 C4812 1.363 . S
C4808 H4785 0.950 . S
C4808 C4807 1.397 . S
C4808 C4809 1.334 . S
C4809 H4786 0.950 . S
C4809 C4808 1.334 . S
C4809 C4810 1.287 . S
C4810 C4809 1.287 . S
C4810 C4811 1.524 . S
C4810 H4829 0.913 . S
C4811 H4787 0.950 . S
C4811 C4810 1.524 . S
C4811 C4812 1.415 . S
C4812 H4788 0.950 . S
C4812 C4807 1.363 . S
C4812 C4811 1.415 . S
C4813 H4789 0.951 . S
C4813 C4814 1.366 . S
C4813 C4815 1.388 . S
C4814 C4813 1.366 . S
C4814 C4818 1.385 . S
C4815 H4790 0.951 . S
C4815 C4813 1.388 . S
C4815 C4816 1.366 . S
C4816 C4815 1.366 . S
C4816 C4817 1.414 . S
C4816 C4819 1.499 . S
C4817 H4791 0.950 . S
C4817 C4816 1.414 . S
C4817 C4818 1.374 . S
C4818 H4792 0.950 . S
C4818 C4814 1.385 . S
C4818 C4817 1.374 . S
C4819 C4816 1.499 . S
C4819 C4820 1.373 . S
C4819 C4821 1.389 . S
C4820 H4793 0.950 . S
C4820 C4806 1.377 . S
C4820 C4819 1.373 . S
C4821 C4805 1.377 . S
C4821 C4819 1.389 . S
C4821 C4822 1.524 . S
C4822 C4821 1.524 . S
C4822 C4823 1.397 . S
C4822 C4827 1.363 . S
C4823 H4794 0.950 . S
C4823 C4822 1.397 . S
C4823 C4824 1.334 . S
C4824 H4795 0.950 . S
C4824 C4823 1.334 . S
C4824 C4825 1.287 . S
C4825 C4824 1.287 . S
C4825 C4826 1.524 . S
C4825 H4828 0.999 . S
C4826 H4796 0.950 . S
C4826 C4825 1.524 . S
C4826 C4827 1.415 . S
C4827 H4797 0.950 . S
C4827 C4822 1.363 . S
C4827 C4826 1.415 . S
H4828 C4825 0.999 . S
H4829 C4810 0.913 . S
H4830 C4848 0.951 . S
H4831 C4850 0.951 . S
H4832 C4852 0.950 . S
H4833 C4853 0.950 . S
H4834 C4855 0.950 . S
H4835 C4858 0.950 . S
H4836 C4859 0.950 . S
H4837 C4861 0.950 . S
H4838 C4862 0.950 . S
H4839 C4863 0.951 . S
H4840 C4865 0.951 . S
H4841 C4867 0.950 . S
H4842 C4868 0.950 . S
H4843 C4870 0.950 . S
H4844 C4873 0.950 . S
H4845 C4874 0.950 . S
H4846 C4876 0.950 . S
H4847 C4877 0.950 . S
C4848 H4830 0.951 . S
C4848 C4849 1.366 . S
C4848 C4850 1.388 . S
C4849 C4848 1.366 . S
C4849 C4853 1.385 . S
C4850 H4831 0.951 . S
C4850 C4848 1.388 . S
C4850 C4851 1.366 . S
C4851 C4850 1.366 . S
C4851 C4852 1.414 . S
C4851 C4854 1.499 . S
C4852 H4832 0.950 . S
C4852 C4851 1.414 . S
C4852 C4853 1.374 . S
C4853 H4833 0.950 . S
C4853 C4849 1.385 . S
C4853 C4852 1.374 . S
C4854 C4851 1.499 . S
C4854 C4855 1.373 . S
C4854 C4856 1.389 . S
C4855 H4834 0.950 . S
C4855 C4854 1.373 . S
C4855 C4871 1.377 . S
C4856 C4854 1.389 . S
C4856 C4857 1.524 . S
C4856 C4870 1.377 . S
C4857 C4856 1.524 . S
C4857 C4858 1.397 . S
C4857 C4862 1.363 . S
C4858 H4835 0.950 . S
C4858 C4857 1.397 . S
C4858 C4859 1.334 . S
C4859 H4836 0.950 . S
C4859 C4858 1.334 . S
C4859 C4860 1.287 . S
C4860 C4859 1.287 . S
C4860 C4861 1.524 . S
C4860 H4879 0.913 . S
C4861 H4837 0.950 . S
C4861 C4860 1.524 . S
C4861 C4862 1.415 . S
C4862 H4838 0.950 . S
C4862 C4857 1.363 . S
C4862 C4861 1.415 . S
C4863 H4839 0.951 . S
C4863 C4864 1.366 . S
C4863 C4865 1.388 . S
C4864 C4863 1.366 . S
C4864 C4868 1.385 . S
C4865 H4840 0.951 . S
C4865 C4863 1.388 . S
C4865 C4866 1.366 . S
C4866 C4865 1.366 . S
C4866 C4867 1.414 . S
C4866 C4869 1.499 . S
C4867 H4841 0.950 . S
C4867 C4866 1.414 . S
C4867 C4868 1.374 . S
C4868 H4842 0.950 . S
C4868 C4864 1.385 . S
C4868 C4867 1.374 . S
C4869 C4866 1.499 . S
C4869 C4870 1.373 . S
C4869 C4871 1.389 . S
C4870 H4843 0.950 . S
C4870 C4856 1.377 . S
C4870 C4869 1.373 . S
C4871 C4855 1.377 . S
C4871 C4869 1.389 . S
C4871 C4872 1.524 . S
C4872 C4871 1.524 . S
C4872 C4873 1.397 . S
C4872 C4877 1.363 . S
C4873 H4844 0.950 . S
C4873 C4872 1.397 . S
C4873 C4874 1.334 . S
C4874 H4845 0.950 . S
C4874 C4873 1.334 . S
C4874 C4875 1.287 . S
C4875 C4874 1.287 . S
C4875 C4876 1.524 . S
C4875 H4878 0.999 . S
C4876 H4846 0.950 . S
C4876 C4875 1.524 . S
C4876 C4877 1.415 . S
C4877 H4847 0.950 . S
C4877 C4872 1.363 . S
C4877 C4876 1.415 . S
H4878 C4875 0.999 . S
H4879 C4860 0.913 . S
H4880 C4898 0.951 . S
H4881 C4900 0.951 . S
H4882 C4902 0.950 . S
H4883 C4903 0.950 . S
H4884 C4905 0.950 . S
H4885 C4908 0.950 . S
H4886 C4909 0.950 . S
H4887 C4911 0.950 . S
H4888 C4912 0.950 . S
H4889 C4913 0.951 . S
H4890 C4915 0.951 . S
H4891 C4917 0.950 . S
H4892 C4918 0.950 . S
H4893 C4920 0.950 . S
H4894 C4923 0.950 . S
H4895 C4924 0.950 . S
H4896 C4926 0.950 . S
H4897 C4927 0.950 . S
C4898 H4880 0.951 . S
C4898 C4899 1.366 . S
C4898 C4900 1.388 . S
C4899 C4898 1.366 . S
C4899 C4903 1.385 . S
C4900 H4881 0.951 . S
C4900 C4898 1.388 . S
C4900 C4901 1.366 . S
C4901 C4900 1.366 . S
C4901 C4902 1.414 . S
C4901 C4904 1.499 . S
C4902 H4882 0.950 . S
C4902 C4901 1.414 . S
C4902 C4903 1.374 . S
C4903 H4883 0.950 . S
C4903 C4899 1.385 . S
C4903 C4902 1.374 . S
C4904 C4901 1.499 . S
C4904 C4905 1.373 . S
C4904 C4906 1.389 . S
C4905 H4884 0.950 . S
C4905 C4904 1.373 . S
C4905 C4921 1.377 . S
C4906 C4904 1.389 . S
C4906 C4907 1.524 . S
C4906 C4920 1.377 . S
C4907 C4906 1.524 . S
C4907 C4908 1.397 . S
C4907 C4912 1.363 . S
C4908 H4885 0.950 . S
C4908 C4907 1.397 . S
C4908 C4909 1.334 . S
C4909 H4886 0.950 . S
C4909 C4908 1.334 . S
C4909 C4910 1.287 . S
C4910 C4909 1.287 . S
C4910 C4911 1.524 . S
C4910 H4929 0.913 . S
C4911 H4887 0.950 . S
C4911 C4910 1.524 . S
C4911 C4912 1.415 . S
C4912 H4888 0.950 . S
C4912 C4907 1.363 . S
C4912 C4911 1.415 . S
C4913 H4889 0.951 . S
C4913 C4914 1.366 . S
C4913 C4915 1.388 . S
C4914 C4913 1.366 . S
C4914 C4918 1.385 . S
C4915 H4890 0.951 . S
C4915 C4913 1.388 . S
C4915 C4916 1.366 . S
C4916 C4915 1.366 . S
C4916 C4917 1.414 . S
C4916 C4919 1.499 . S
C4917 H4891 0.950 . S
C4917 C4916 1.414 . S
C4917 C4918 1.374 . S
C4918 H4892 0.950 . S
C4918 C4914 1.385 . S
C4918 C4917 1.374 . S
C4919 C4916 1.499 . S
C4919 C4920 1.373 . S
C4919 C4921 1.389 . S
C4920 H4893 0.950 . S
C4920 C4906 1.377 . S
C4920 C4919 1.373 . S
C4921 C4905 1.377 . S
C4921 C4919 1.389 . S
C4921 C4922 1.524 . S
C4922 C4921 1.524 . S
C4922 C4923 1.397 . S
C4922 C4927 1.363 . S
C4923 H4894 0.950 . S
C4923 C4922 1.397 . S
C4923 C4924 1.334 . S
C4924 H4895 0.950 . S
C4924 C4923 1.334 . S
C4924 C4925 1.287 . S
C4925 C4924 1.287 . S
C4925 C4926 1.524 . S
C4925 H4928 0.999 . S
C4926 H4896 0.950 . S
C4926 C4925 1.524 . S
C4926 C4927 1.415 . S
C4927 H4897 0.950 . S
C4927 C4922 1.363 . S
C4927 C4926 1.415 . S
H4928 C4925 0.999 . S
H4929 C4910 0.913 . S
H4930 C4948 0.951 . S
H4931 C4950 0.951 . S
H4932 C4952 0.950 . S
H4933 C4953 0.950 . S
H4934 C4955 0.950 . S
H4935 C4958 0.950 . S
H4936 C4959 0.950 . S
H4937 C4961 0.950 . S
H4938 C4962 0.950 . S
H4939 C4963 0.951 . S
H4940 C4965 0.951 . S
H4941 C4967 0.950 . S
H4942 C4968 0.950 . S
H4943 C4970 0.950 . S
H4944 C4973 0.950 . S
H4945 C4974 0.950 . S
H4946 C4976 0.950 . S
H4947 C4977 0.950 . S
C4948 H4930 0.951 . S
C4948 C4949 1.366 . S
C4948 C4950 1.388 . S
C4949 C4948 1.366 . S
C4949 C4953 1.385 . S
C4950 H4931 0.951 . S
C4950 C4948 1.388 . S
C4950 C4951 1.366 . S
C4951 C4950 1.366 . S
C4951 C4952 1.414 . S
C4951 C4954 1.499 . S
C4952 H4932 0.950 . S
C4952 C4951 1.414 . S
C4952 C4953 1.374 . S
C4953 H4933 0.950 . S
C4953 C4949 1.385 . S
C4953 C4952 1.374 . S
C4954 C4951 1.499 . S
C4954 C4955 1.373 . S
C4954 C4956 1.389 . S
C4955 H4934 0.950 . S
C4955 C4954 1.373 . S
C4955 C4971 1.377 . S
C4956 C4954 1.389 . S
C4956 C4957 1.524 . S
C4956 C4970 1.377 . S
C4957 C4956 1.524 . S
C4957 C4958 1.397 . S
C4957 C4962 1.363 . S
C4958 H4935 0.950 . S
C4958 C4957 1.397 . S
C4958 C4959 1.334 . S
C4959 H4936 0.950 . S
C4959 C4958 1.334 . S
C4959 C4960 1.287 . S
C4960 C4959 1.287 . S
C4960 C4961 1.524 . S
C4960 H4979 0.913 . S
C4961 H4937 0.950 . S
C4961 C4960 1.524 . S
C4961 C4962 1.415 . S
C4962 H4938 0.950 . S
C4962 C4957 1.363 . S
C4962 C4961 1.415 . S
C4963 H4939 0.951 . S
C4963 C4964 1.366 . S
C4963 C4965 1.388 . S
C4964 C4963 1.366 . S
C4964 C4968 1.385 . S
C4965 H4940 0.951 . S
C4965 C4963 1.388 . S
C4965 C4966 1.366 . S
C4966 C4965 1.366 . S
C4966 C4967 1.414 . S
C4966 C4969 1.499 . S
C4967 H4941 0.950 . S
C4967 C4966 1.414 . S
C4967 C4968 1.374 . S
C4968 H4942 0.950 . S
C4968 C4964 1.385 . S
C4968 C4967 1.374 . S
C4969 C4966 1.499 . S
C4969 C4970 1.373 . S
C4969 C4971 1.389 . S
C4970 H4943 0.950 . S
C4970 C4956 1.377 . S
C4970 C4969 1.373 . S
C4971 C4955 1.377 . S
C4971 C4969 1.389 . S
C4971 C4972 1.524 . S
C4972 C4971 1.524 . S
C4972 C4973 1.397 . S
C4972 C4977 1.363 . S
C4973 H4944 0.950 . S
C4973 C4972 1.397 . S
C4973 C4974 1.334 . S
C4974 H4945 0.950 . S
C4974 C4973 1.334 . S
C4974 C4975 1.287 . S
C4975 C4974 1.287 . S
C4975 C4976 1.524 . S
C4975 H4978 0.999 . S
C4976 H4946 0.950 . S
C4976 C4975 1.524 . S
C4976 C4977 1.415 . S
C4977 H4947 0.950 . S
C4977 C4972 1.363 . S
C4977 C4976 1.415 . S
H4978 C4975 0.999 . S
H4979 C4960 0.913 . S
H4980 C4998 0.951 . S
H4981 C5000 0.951 . S
H4982 C5002 0.950 . S
H4983 C5003 0.950 . S
H4984 C5005 0.950 . S
H4985 C5008 0.950 . S
H4986 C5009 0.950 . S
H4987 C5011 0.950 . S
H4988 C5012 0.950 . S
H4989 C5013 0.951 . S
H4990 C5015 0.951 . S
H4991 C5017 0.950 . S
H4992 C5018 0.950 . S
H4993 C5020 0.950 . S
H4994 C5023 0.950 . S
H4995 C5024 0.950 . S
H4996 C5026 0.950 . S
H4997 C5027 0.950 . S
C4998 H4980 0.951 . S
C4998 C4999 1.366 . S
C4998 C5000 1.388 . S
C4999 C4998 1.366 . S
C4999 C5003 1.385 . S
C5000 H4981 0.951 . S
C5000 C4998 1.388 . S
C5000 C5001 1.366 . S
C5001 C5000 1.366 . S
C5001 C5002 1.414 . S
C5001 C5004 1.499 . S
C5002 H4982 0.950 . S
C5002 C5001 1.414 . S
C5002 C5003 1.374 . S
C5003 H4983 0.950 . S
C5003 C4999 1.385 . S
C5003 C5002 1.374 . S
C5004 C5001 1.499 . S
C5004 C5005 1.373 . S
C5004 C5006 1.389 . S
C5005 H4984 0.950 . S
C5005 C5004 1.373 . S
C5005 C5021 1.377 . S
C5006 C5004 1.389 . S
C5006 C5007 1.524 . S
C5006 C5020 1.377 . S
C5007 C5006 1.524 . S
C5007 C5008 1.397 . S
C5007 C5012 1.363 . S
C5008 H4985 0.950 . S
C5008 C5007 1.397 . S
C5008 C5009 1.334 . S
C5009 H4986 0.950 . S
C5009 C5008 1.334 . S
C5009 C5010 1.287 . S
C5010 C5009 1.287 . S
C5010 C5011 1.524 . S
C5010 H5029 0.913 . S
C5011 H4987 0.950 . S
C5011 C5010 1.524 . S
C5011 C5012 1.415 . S
C5012 H4988 0.950 . S
C5012 C5007 1.363 . S
C5012 C5011 1.415 . S
C5013 H4989 0.951 . S
C5013 C5014 1.366 . S
C5013 C5015 1.388 . S
C5014 C5013 1.366 . S
C5014 C5018 1.385 . S
C5015 H4990 0.951 . S
C5015 C5013 1.388 . S
C5015 C5016 1.366 . S
C5016 C5015 1.366 . S
C5016 C5017 1.414 . S
C5016 C5019 1.499 . S
C5017 H4991 0.950 . S
C5017 C5016 1.414 . S
C5017 C5018 1.374 . S
C5018 H4992 0.950 . S
C5018 C5014 1.385 . S
C5018 C5017 1.374 . S
C5019 C5016 1.499 . S
C5019 C5020 1.373 . S
C5019 C5021 1.389 . S
C5020 H4993 0.950 . S
C5020 C5006 1.377 . S
C5020 C5019 1.373 . S
C5021 C5005 1.377 . S
C5021 C5019 1.389 . S
C5021 C5022 1.524 . S
C5022 C5021 1.524 . S
C5022 C5023 1.397 . S
C5022 C5027 1.363 . S
C5023 H4994 0.950 . S
C5023 C5022 1.397 . S
C5023 C5024 1.334 . S
C5024 H4995 0.950 . S
C5024 C5023 1.334 . S
C5024 C5025 1.287 . S
C5025 C5024 1.287 . S
C5025 C5026 1.524 . S
C5025 H5028 0.999 . S
C5026 H4996 0.950 . S
C5026 C5025 1.524 . S
C5026 C5027 1.415 . S
C5027 H4997 0.950 . S
C5027 C5022 1.363 . S
C5027 C5026 1.415 . S
H5028 C5025 0.999 . S
H5029 C5010 0.913 . S
H5030 C5048 0.951 . S
H5031 C5050 0.951 . S
H5032 C5052 0.950 1_556 S
H5033 C5053 0.947 . S
H5034 C5055 0.923 1_556 S
H5035 C5058 0.950 . S
H5036 C5059 0.950 . S
H5037 C5061 0.950 . S
H5038 C5062 0.950 . S
H5039 C5063 0.951 1_556 S
H5040 C5065 0.951 1_556 S
H5041 C5067 0.985 . S
H5042 C5068 0.950 . S
H5043 C5070 0.950 . S
H5044 C5073 0.950 . S
H5045 C5074 0.950 . S
H5046 C5076 0.950 . S
H5047 C5077 0.950 . S
C5048 H5030 0.951 . S
C5048 C5049 1.366 . S
C5048 C5050 1.388 . S
C5049 C5048 1.366 . S
C5049 C5053 1.385 . S
C5050 H5031 0.951 . S
C5050 C5048 1.388 . S
C5050 C5051 1.366 . S
C5051 C5050 1.366 . S
C5051 C5052 1.414 . S
C5051 C5054 1.499 . S
C5052 H5032 0.950 1_554 S
C5052 C5051 1.414 . S
C5052 C5053 1.374 . S
C5053 H5033 0.947 . S
C5053 C5049 1.385 . S
C5053 C5052 1.374 . S
C5054 C5051 1.499 . S
C5054 C5055 1.409 . S
C5054 C5056 1.389 . S
C5055 H5034 0.923 1_554 S
C5055 C5054 1.409 . S
C5055 C5071 1.363 1_554 S
C5056 C5054 1.389 . S
C5056 C5057 1.524 . S
C5056 C5070 1.377 1_565 S
C5057 C5056 1.524 . S
C5057 C5058 1.397 1_565 S
C5057 C5062 1.363 . S
C5058 H5035 0.950 . S
C5058 C5057 1.397 1_545 S
C5058 C5059 1.334 . S
C5059 H5036 0.950 . S
C5059 C5058 1.334 . S
C5059 C5060 1.287 . S
C5060 C5059 1.287 . S
C5060 C5061 1.524 1_545 S
C5060 H5079 0.913 . S
C5061 H5037 0.950 . S
C5061 C5060 1.524 1_565 S
C5061 C5062 1.415 . S
C5062 H5038 0.950 . S
C5062 C5057 1.363 . S
C5062 C5061 1.415 . S
C5063 H5039 0.951 1_554 S
C5063 C5064 1.366 . S
C5063 C5065 1.388 . S
C5064 C5063 1.366 . S
C5064 C5068 1.385 . S
C5065 H5040 0.951 1_554 S
C5065 C5063 1.388 . S
C5065 C5066 1.366 . S
C5066 C5065 1.366 . S
C5066 C5067 1.414 . S
C5066 C5069 1.500 . S
C5067 H5041 0.985 . S
C5067 C5066 1.414 . S
C5067 C5068 1.374 . S
C5068 H5042 0.950 . S
C5068 C5064 1.385 . S
C5068 C5067 1.374 . S
C5069 C5066 1.500 . S
C5069 C5070 1.373 . S
C5069 C5071 1.365 1_544 S
C5070 H5043 0.950 . S
C5070 C5056 1.377 1_545 S
C5070 C5069 1.373 . S
C5071 C5055 1.363 1_556 S
C5071 C5069 1.365 1_566 S
C5071 C5072 1.556 . S
C5072 C5071 1.556 . S
C5072 C5073 1.397 . S
C5072 C5077 1.363 . S
C5073 H5044 0.950 . S
C5073 C5072 1.397 . S
C5073 C5074 1.334 . S
C5074 H5045 0.950 . S
C5074 C5073 1.334 . S
C5074 C5075 1.287 . S
C5075 C5074 1.287 . S
C5075 C5076 1.524 . S
C5075 H5078 0.999 . S
C5076 H5046 0.950 . S
C5076 C5075 1.524 . S
C5076 C5077 1.415 . S
C5077 H5047 0.950 . S
C5077 C5072 1.363 . S
C5077 C5076 1.415 . S
H5078 C5075 0.999 . S
H5079 C5060 0.913 . S
H5080 C5098 0.951 . S
H5081 C5100 0.951 . S
H5082 C5102 0.950 . S
H5083 C5103 0.950 . S
H5084 C5105 0.950 . S
H5085 C5108 0.950 . S
H5086 C5109 0.950 . S
H5087 C5111 0.950 . S
H5088 C5112 0.950 . S
H5089 C5113 0.951 . S
H5090 C5115 0.951 . S
H5091 C5117 0.950 . S
H5092 C5118 0.950 . S
H5093 C5120 0.950 . S
H5094 C5123 0.950 . S
H5095 C5124 0.950 . S
H5096 C5126 0.950 . S
H5097 C5127 0.950 . S
C5098 H5080 0.951 . S
C5098 C5099 1.366 . S
C5098 C5100 1.388 . S
C5099 C5098 1.366 . S
C5099 C5103 1.385 . S
C5100 H5081 0.951 . S
C5100 C5098 1.388 . S
C5100 C5101 1.366 . S
C5101 C5100 1.366 . S
C5101 C5102 1.414 . S
C5101 C5104 1.499 . S
C5102 H5082 0.950 . S
C5102 C5101 1.414 . S
C5102 C5103 1.374 . S
C5103 H5083 0.950 . S
C5103 C5099 1.385 . S
C5103 C5102 1.374 . S
C5104 C5101 1.499 . S
C5104 C5105 1.373 . S
C5104 C5106 1.389 . S
C5105 H5084 0.950 . S
C5105 C5104 1.373 . S
C5105 C5121 1.377 . S
C5106 C5104 1.389 . S
C5106 C5107 1.524 . S
C5106 C5120 1.377 . S
C5107 C5106 1.524 . S
C5107 C5108 1.397 . S
C5107 C5112 1.363 . S
C5108 H5085 0.950 . S
C5108 C5107 1.397 . S
C5108 C5109 1.334 . S
C5109 H5086 0.950 . S
C5109 C5108 1.334 . S
C5109 C5110 1.287 . S
C5110 C5109 1.287 . S
C5110 C5111 1.524 . S
C5110 H5129 0.913 . S
C5111 H5087 0.950 . S
C5111 C5110 1.524 . S
C5111 C5112 1.415 . S
C5112 H5088 0.950 . S
C5112 C5107 1.363 . S
C5112 C5111 1.415 . S
C5113 H5089 0.951 . S
C5113 C5114 1.366 . S
C5113 C5115 1.388 . S
C5114 C5113 1.366 . S
C5114 C5118 1.385 . S
C5115 H5090 0.951 . S
C5115 C5113 1.388 . S
C5115 C5116 1.366 . S
C5116 C5115 1.366 . S
C5116 C5117 1.414 . S
C5116 C5119 1.499 . S
C5117 H5091 0.950 . S
C5117 C5116 1.414 . S
C5117 C5118 1.374 . S
C5118 H5092 0.950 . S
C5118 C5114 1.385 . S
C5118 C5117 1.374 . S
C5119 C5116 1.499 . S
C5119 C5120 1.373 . S
C5119 C5121 1.389 . S
C5120 H5093 0.950 . S
C5120 C5106 1.377 . S
C5120 C5119 1.373 . S
C5121 C5105 1.377 . S
C5121 C5119 1.389 . S
C5121 C5122 1.524 . S
C5122 C5121 1.524 . S
C5122 C5123 1.397 . S
C5122 C5127 1.363 . S
C5123 H5094 0.950 . S
C5123 C5122 1.397 . S
C5123 C5124 1.334 . S
C5124 H5095 0.950 . S
C5124 C5123 1.334 . S
C5124 C5125 1.287 . S
C5125 C5124 1.287 . S
C5125 C5126 1.524 . S
C5125 H5128 0.999 . S
C5126 H5096 0.950 . S
C5126 C5125 1.524 . S
C5126 C5127 1.415 . S
C5127 H5097 0.950 . S
C5127 C5122 1.363 . S
C5127 C5126 1.415 . S
H5128 C5125 0.999 . S
H5129 C5110 0.913 . S
H5130 C5148 0.951 . S
H5131 C5150 0.951 . S
H5132 C5152 0.950 . S
H5133 C5153 0.950 . S
H5134 C5155 0.950 . S
H5135 C5158 0.950 . S
H5136 C5159 0.950 . S
H5137 C5161 0.950 . S
H5138 C5162 0.950 . S
H5139 C5163 0.951 . S
H5140 C5165 0.951 . S
H5141 C5167 0.950 . S
H5142 C5168 0.950 . S
H5143 C5170 0.950 . S
H5144 C5173 0.950 . S
H5145 C5174 0.950 . S
H5146 C5176 0.950 . S
H5147 C5177 0.950 . S
C5148 H5130 0.951 . S
C5148 C5149 1.370 . S
C5148 C5150 1.388 . S
C5149 C5148 1.370 . S
C5149 C5153 1.382 1_554 S
C5150 H5131 0.951 . S
C5150 C5148 1.388 . S
C5150 C5151 1.366 . S
C5151 C5150 1.366 . S
C5151 C5152 1.414 1_554 S
C5151 C5154 1.499 . S
C5152 H5132 0.950 . S
C5152 C5151 1.414 1_556 S
C5152 C5153 1.374 . S
C5153 H5133 0.950 . S
C5153 C5149 1.382 1_556 S
C5153 C5152 1.374 . S
C5154 C5151 1.499 . S
C5154 C5155 1.373 . S
C5154 C5156 1.389 . S
C5155 H5134 0.950 . S
C5155 C5154 1.373 . S
C5155 C5171 1.377 . S
C5156 C5154 1.389 . S
C5156 C5157 1.524 . S
C5156 C5170 1.377 . S
C5157 C5156 1.524 . S
C5157 C5158 1.397 1_554 S
C5157 C5162 1.363 . S
C5158 H5135 0.950 . S
C5158 C5157 1.397 1_556 S
C5158 C5159 1.334 . S
C5159 H5136 0.950 . S
C5159 C5158 1.334 . S
C5159 C5160 1.287 . S
C5160 C5159 1.287 . S
C5160 C5161 1.524 1_556 S
C5160 H5179 0.913 . S
C5161 H5137 0.950 . S
C5161 C5160 1.524 1_554 S
C5161 C5162 1.415 . S
C5162 H5138 0.950 . S
C5162 C5157 1.363 . S
C5162 C5161 1.415 . S
C5163 H5139 0.951 . S
C5163 C5164 1.366 . S
C5163 C5165 1.388 . S
C5164 C5163 1.366 . S
C5164 C5168 1.385 . S
C5165 H5140 0.951 . S
C5165 C5163 1.388 . S
C5165 C5166 1.366 . S
C5166 C5165 1.366 . S
C5166 C5167 1.414 . S
C5166 C5169 1.499 . S
C5167 H5141 0.950 . S
C5167 C5166 1.414 . S
C5167 C5168 1.374 . S
C5168 H5142 0.950 . S
C5168 C5164 1.385 . S
C5168 C5167 1.374 . S
C5169 C5166 1.499 . S
C5169 C5170 1.373 . S
C5169 C5171 1.389 . S
C5170 H5143 0.950 . S
C5170 C5156 1.377 . S
C5170 C5169 1.373 . S
C5171 C5155 1.377 . S
C5171 C5169 1.389 . S
C5171 C5172 1.524 . S
C5172 C5171 1.524 . S
C5172 C5173 1.397 . S
C5172 C5177 1.363 . S
C5173 H5144 0.950 . S
C5173 C5172 1.397 . S
C5173 C5174 1.334 . S
C5174 H5145 0.950 . S
C5174 C5173 1.334 . S
C5174 C5175 1.287 . S
C5175 C5174 1.287 . S
C5175 C5176 1.524 . S
C5175 H5178 0.999 . S
C5176 H5146 0.950 . S
C5176 C5175 1.524 . S
C5176 C5177 1.415 . S
C5177 H5147 0.950 . S
C5177 C5172 1.363 . S
C5177 C5176 1.415 . S
H5178 C5175 0.999 . S
H5179 C5160 0.913 . S
H5180 C5198 0.951 . S
H5181 C5200 0.951 . S
H5182 C5202 0.950 . S
H5183 C5203 0.950 . S
H5184 C5205 0.950 . S
H5185 C5208 0.950 . S
H5186 C5209 0.950 . S
H5187 C5211 0.950 . S
H5188 C5212 0.950 . S
H5189 C5213 0.951 . S
H5190 C5215 0.951 . S
H5191 C5217 0.950 . S
H5192 C5218 0.950 . S
H5193 C5220 0.950 . S
H5194 C5223 0.950 . S
H5195 C5224 0.950 . S
H5196 C5226 0.950 . S
H5197 C5227 0.950 . S
C5198 H5180 0.951 . S
C5198 C5199 1.366 . S
C5198 C5200 1.388 . S
C5199 C5198 1.366 . S
C5199 C5203 1.385 . S
C5200 H5181 0.951 . S
C5200 C5198 1.388 . S
C5200 C5201 1.366 . S
C5201 C5200 1.366 . S
C5201 C5202 1.414 . S
C5201 C5204 1.499 . S
C5202 H5182 0.950 . S
C5202 C5201 1.414 . S
C5202 C5203 1.374 . S
C5203 H5183 0.950 . S
C5203 C5199 1.385 . S
C5203 C5202 1.374 . S
C5204 C5201 1.499 . S
C5204 C5205 1.373 . S
C5204 C5206 1.389 . S
C5205 H5184 0.950 . S
C5205 C5204 1.373 . S
C5205 C5221 1.377 . S
C5206 C5204 1.389 . S
C5206 C5207 1.524 . S
C5206 C5220 1.377 . S
C5207 C5206 1.524 . S
C5207 C5208 1.397 . S
C5207 C5212 1.363 . S
C5208 H5185 0.950 . S
C5208 C5207 1.397 . S
C5208 C5209 1.334 . S
C5209 H5186 0.950 . S
C5209 C5208 1.334 . S
C5209 C5210 1.287 . S
C5210 C5209 1.287 . S
C5210 C5211 1.524 . S
C5210 H5229 0.913 . S
C5211 H5187 0.950 . S
C5211 C5210 1.524 . S
C5211 C5212 1.415 . S
C5212 H5188 0.950 . S
C5212 C5207 1.363 . S
C5212 C5211 1.415 . S
C5213 H5189 0.951 . S
C5213 C5214 1.366 . S
C5213 C5215 1.388 . S
C5214 C5213 1.366 . S
C5214 C5218 1.385 . S
C5215 H5190 0.951 . S
C5215 C5213 1.388 . S
C5215 C5216 1.366 . S
C5216 C5215 1.366 . S
C5216 C5217 1.414 . S
C5216 C5219 1.499 . S
C5217 H5191 0.950 . S
C5217 C5216 1.414 . S
C5217 C5218 1.374 . S
C5218 H5192 0.950 . S
C5218 C5214 1.385 . S
C5218 C5217 1.374 . S
C5219 C5216 1.499 . S
C5219 C5220 1.373 . S
C5219 C5221 1.389 . S
C5220 H5193 0.950 . S
C5220 C5206 1.377 . S
C5220 C5219 1.373 . S
C5221 C5205 1.377 . S
C5221 C5219 1.389 . S
C5221 C5222 1.524 . S
C5222 C5221 1.524 . S
C5222 C5223 1.397 . S
C5222 C5227 1.363 . S
C5223 H5194 0.950 . S
C5223 C5222 1.397 . S
C5223 C5224 1.334 . S
C5224 H5195 0.950 . S
C5224 C5223 1.334 . S
C5224 C5225 1.287 . S
C5225 C5224 1.287 . S
C5225 C5226 1.524 . S
C5225 H5228 0.999 . S
C5226 H5196 0.950 . S
C5226 C5225 1.524 . S
C5226 C5227 1.415 . S
C5227 H5197 0.950 . S
C5227 C5222 1.363 . S
C5227 C5226 1.415 . S
H5228 C5225 0.999 . S
H5229 C5210 0.913 . S
H5230 C5248 0.951 . S
H5231 C5250 0.951 . S
H5232 C5252 0.950 . S
H5233 C5253 0.950 . S
H5234 C5255 0.950 . S
H5235 C5258 0.950 . S
H5236 C5259 0.950 . S
H5237 C5261 0.950 . S
H5238 C5262 0.950 . S
H5239 C5263 0.951 . S
H5240 C5265 0.951 . S
H5241 C5267 0.950 . S
H5242 C5268 0.950 . S
H5243 C5270 0.950 . S
H5244 C5273 0.950 . S
H5245 C5274 0.950 . S
H5246 C5276 0.950 . S
H5247 C5277 0.950 . S
C5248 H5230 0.951 . S
C5248 C5249 1.366 . S
C5248 C5250 1.388 . S
C5249 C5248 1.366 . S
C5249 C5253 1.385 . S
C5250 H5231 0.951 . S
C5250 C5248 1.388 . S
C5250 C5251 1.366 . S
C5251 C5250 1.366 . S
C5251 C5252 1.414 . S
C5251 C5254 1.499 . S
C5252 H5232 0.950 . S
C5252 C5251 1.414 . S
C5252 C5253 1.374 . S
C5253 H5233 0.950 . S
C5253 C5249 1.385 . S
C5253 C5252 1.374 . S
C5254 C5251 1.499 . S
C5254 C5255 1.373 . S
C5254 C5256 1.389 . S
C5255 H5234 0.950 . S
C5255 C5254 1.373 . S
C5255 C5271 1.377 . S
C5256 C5254 1.389 . S
C5256 C5257 1.524 . S
C5256 C5270 1.377 . S
C5257 C5256 1.524 . S
C5257 C5258 1.397 . S
C5257 C5262 1.363 . S
C5258 H5235 0.950 . S
C5258 C5257 1.397 . S
C5258 C5259 1.334 . S
C5259 H5236 0.950 . S
C5259 C5258 1.334 . S
C5259 C5260 1.287 . S
C5260 C5259 1.287 . S
C5260 C5261 1.524 . S
C5260 H5279 0.913 . S
C5261 H5237 0.950 . S
C5261 C5260 1.524 . S
C5261 C5262 1.415 . S
C5262 H5238 0.950 . S
C5262 C5257 1.363 . S
C5262 C5261 1.415 . S
C5263 H5239 0.951 . S
C5263 C5264 1.366 . S
C5263 C5265 1.388 . S
C5264 C5263 1.366 . S
C5264 C5268 1.385 . S
C5265 H5240 0.951 . S
C5265 C5263 1.388 . S
C5265 C5266 1.366 . S
C5266 C5265 1.366 . S
C5266 C5267 1.414 . S
C5266 C5269 1.499 . S
C5267 H5241 0.950 . S
C5267 C5266 1.414 . S
C5267 C5268 1.374 . S
C5268 H5242 0.950 . S
C5268 C5264 1.385 . S
C5268 C5267 1.374 . S
C5269 C5266 1.499 . S
C5269 C5270 1.373 . S
C5269 C5271 1.389 . S
C5270 H5243 0.950 . S
C5270 C5256 1.377 . S
C5270 C5269 1.373 . S
C5271 C5255 1.377 . S
C5271 C5269 1.389 . S
C5271 C5272 1.524 . S
C5272 C5271 1.524 . S
C5272 C5273 1.397 . S
C5272 C5277 1.363 . S
C5273 H5244 0.950 . S
C5273 C5272 1.397 . S
C5273 C5274 1.334 . S
C5274 H5245 0.950 . S
C5274 C5273 1.334 . S
C5274 C5275 1.287 . S
C5275 C5274 1.287 . S
C5275 C5276 1.524 . S
C5275 H5278 0.999 . S
C5276 H5246 0.950 . S
C5276 C5275 1.524 . S
C5276 C5277 1.415 . S
C5277 H5247 0.950 . S
C5277 C5272 1.363 . S
C5277 C5276 1.415 . S
H5278 C5275 0.999 . S
H5279 C5260 0.913 . S
H5280 C5298 0.951 . S
H5281 C5300 0.951 . S
H5282 C5302 0.950 . S
H5283 C5303 0.950 . S
H5284 C5305 0.950 . S
H5285 C5308 0.950 . S
H5286 C5309 0.950 . S
H5287 C5311 0.950 . S
H5288 C5312 0.950 . S
H5289 C5313 0.951 . S
H5290 C5315 0.951 . S
H5291 C5317 0.950 . S
H5292 C5318 0.950 . S
H5293 C5320 0.950 . S
H5294 C5323 0.950 . S
H5295 C5324 0.950 . S
H5296 C5326 0.950 . S
H5297 C5327 0.950 . S
C5298 H5280 0.951 . S
C5298 C5299 1.366 . S
C5298 C5300 1.388 . S
C5299 C5298 1.366 . S
C5299 C5303 1.385 . S
C5300 H5281 0.951 . S
C5300 C5298 1.388 . S
C5300 C5301 1.366 . S
C5301 C5300 1.366 . S
C5301 C5302 1.414 . S
C5301 C5304 1.499 . S
C5302 H5282 0.950 . S
C5302 C5301 1.414 . S
C5302 C5303 1.374 . S
C5303 H5283 0.950 . S
C5303 C5299 1.385 . S
C5303 C5302 1.374 . S
C5304 C5301 1.499 . S
C5304 C5305 1.373 . S
C5304 C5306 1.389 . S
C5305 H5284 0.950 . S
C5305 C5304 1.373 . S
C5305 C5321 1.377 . S
C5306 C5304 1.389 . S
C5306 C5307 1.524 . S
C5306 C5320 1.377 . S
C5307 C5306 1.524 . S
C5307 C5308 1.397 . S
C5307 C5312 1.363 . S
C5308 H5285 0.950 . S
C5308 C5307 1.397 . S
C5308 C5309 1.334 . S
C5309 H5286 0.950 . S
C5309 C5308 1.334 . S
C5309 C5310 1.287 . S
C5310 C5309 1.287 . S
C5310 C5311 1.524 . S
C5310 H5329 0.913 . S
C5311 H5287 0.950 . S
C5311 C5310 1.524 . S
C5311 C5312 1.415 . S
C5312 H5288 0.950 . S
C5312 C5307 1.363 . S
C5312 C5311 1.415 . S
C5313 H5289 0.951 . S
C5313 C5314 1.366 . S
C5313 C5315 1.388 . S
C5314 C5313 1.366 . S
C5314 C5318 1.385 . S
C5315 H5290 0.951 . S
C5315 C5313 1.388 . S
C5315 C5316 1.366 . S
C5316 C5315 1.366 . S
C5316 C5317 1.414 . S
C5316 C5319 1.499 . S
C5317 H5291 0.950 . S
C5317 C5316 1.414 . S
C5317 C5318 1.374 . S
C5318 H5292 0.950 . S
C5318 C5314 1.385 . S
C5318 C5317 1.374 . S
C5319 C5316 1.499 . S
C5319 C5320 1.373 . S
C5319 C5321 1.389 . S
C5320 H5293 0.950 . S
C5320 C5306 1.377 . S
C5320 C5319 1.373 . S
C5321 C5305 1.377 . S
C5321 C5319 1.389 . S
C5321 C5322 1.524 . S
C5322 C5321 1.524 . S
C5322 C5323 1.397 . S
C5322 C5327 1.363 . S
C5323 H5294 0.950 . S
C5323 C5322 1.397 . S
C5323 C5324 1.334 . S
C5324 H5295 0.950 . S
C5324 C5323 1.334 . S
C5324 C5325 1.287 . S
C5325 C5324 1.287 . S
C5325 C5326 1.524 . S
C5325 H5328 0.999 . S
C5326 H5296 0.950 . S
C5326 C5325 1.524 . S
C5326 C5327 1.415 . S
C5327 H5297 0.950 . S
C5327 C5322 1.363 . S
C5327 C5326 1.415 . S
H5328 C5325 0.999 . S
H5329 C5310 0.913 . S
H5330 C5348 0.951 . S
H5331 C5350 0.951 . S
H5332 C5352 0.950 . S
H5333 C5353 0.950 . S
H5334 C5355 0.950 . S
H5335 C5358 0.950 . S
H5336 C5359 0.950 . S
H5337 C5361 0.950 . S
H5338 C5362 0.950 . S
H5339 C5363 0.951 . S
H5340 C5365 0.951 . S
H5341 C5367 0.950 . S
H5342 C5368 0.950 . S
H5343 C5370 0.950 . S
H5344 C5373 0.950 . S
H5345 C5374 0.950 . S
H5346 C5376 0.950 . S
H5347 C5377 0.950 . S
C5348 H5330 0.951 . S
C5348 C5349 1.366 . S
C5348 C5350 1.388 . S
C5349 C5348 1.366 . S
C5349 C5353 1.385 . S
C5350 H5331 0.951 . S
C5350 C5348 1.388 . S
C5350 C5351 1.366 . S
C5351 C5350 1.366 . S
C5351 C5352 1.414 . S
C5351 C5354 1.499 . S
C5352 H5332 0.950 . S
C5352 C5351 1.414 . S
C5352 C5353 1.374 . S
C5353 H5333 0.950 . S
C5353 C5349 1.385 . S
C5353 C5352 1.374 . S
C5354 C5351 1.499 . S
C5354 C5355 1.373 . S
C5354 C5356 1.389 . S
C5355 H5334 0.950 . S
C5355 C5354 1.373 . S
C5355 C5371 1.377 . S
C5356 C5354 1.389 . S
C5356 C5357 1.524 . S
C5356 C5370 1.377 . S
C5357 C5356 1.524 . S
C5357 C5358 1.397 . S
C5357 C5362 1.363 . S
C5358 H5335 0.950 . S
C5358 C5357 1.397 . S
C5358 C5359 1.334 . S
C5359 H5336 0.950 . S
C5359 C5358 1.334 . S
C5359 C5360 1.287 . S
C5360 C5359 1.287 . S
C5360 C5361 1.524 . S
C5360 H5379 0.913 . S
C5361 H5337 0.950 . S
C5361 C5360 1.524 . S
C5361 C5362 1.415 . S
C5362 H5338 0.950 . S
C5362 C5357 1.363 . S
C5362 C5361 1.415 . S
C5363 H5339 0.951 . S
C5363 C5364 1.366 . S
C5363 C5365 1.388 . S
C5364 C5363 1.366 . S
C5364 C5368 1.385 . S
C5365 H5340 0.951 . S
C5365 C5363 1.388 . S
C5365 C5366 1.366 . S
C5366 C5365 1.366 . S
C5366 C5367 1.414 . S
C5366 C5369 1.499 . S
C5367 H5341 0.950 . S
C5367 C5366 1.414 . S
C5367 C5368 1.374 . S
C5368 H5342 0.950 . S
C5368 C5364 1.385 . S
C5368 C5367 1.374 . S
C5369 C5366 1.499 . S
C5369 C5370 1.373 . S
C5369 C5371 1.389 . S
C5370 H5343 0.950 . S
C5370 C5356 1.377 . S
C5370 C5369 1.373 . S
C5371 C5355 1.377 . S
C5371 C5369 1.389 . S
C5371 C5372 1.524 . S
C5372 C5371 1.524 . S
C5372 C5373 1.397 . S
C5372 C5377 1.363 . S
C5373 H5344 0.950 . S
C5373 C5372 1.397 . S
C5373 C5374 1.334 . S
C5374 H5345 0.950 . S
C5374 C5373 1.334 . S
C5374 C5375 1.287 . S
C5375 C5374 1.287 . S
C5375 C5376 1.524 . S
C5375 H5378 0.999 . S
C5376 H5346 0.950 . S
C5376 C5375 1.524 . S
C5376 C5377 1.415 . S
C5377 H5347 0.950 . S
C5377 C5372 1.363 . S
C5377 C5376 1.415 . S
H5378 C5375 0.999 . S
H5379 C5360 0.913 . S
H5380 C5398 0.951 . S
H5381 C5400 0.951 . S
H5382 C5402 0.950 . S
H5383 C5403 0.950 . S
H5384 C5405 0.950 . S
H5385 C5408 0.950 . S
H5386 C5409 0.950 . S
H5387 C5411 0.950 . S
H5388 C5412 0.950 . S
H5389 C5413 0.951 . S
H5390 C5415 0.951 . S
H5391 C5417 0.950 . S
H5392 C5418 0.950 . S
H5393 C5420 0.950 . S
H5394 C5423 0.950 . S
H5395 C5424 0.950 . S
H5396 C5426 0.950 1_655 S
H5397 C5427 0.950 . S
C5398 H5380 0.951 . S
C5398 C5399 1.366 . S
C5398 C5400 1.388 . S
C5399 C5398 1.366 . S
C5399 C5403 1.385 . S
C5400 H5381 0.951 . S
C5400 C5398 1.388 . S
C5400 C5401 1.366 . S
C5401 C5400 1.366 . S
C5401 C5402 1.414 . S
C5401 C5404 1.499 . S
C5402 H5382 0.950 . S
C5402 C5401 1.414 . S
C5402 C5403 1.374 . S
C5403 H5383 0.950 . S
C5403 C5399 1.385 . S
C5403 C5402 1.374 . S
C5404 C5401 1.499 . S
C5404 C5405 1.373 . S
C5404 C5406 1.389 . S
C5405 H5384 0.950 . S
C5405 C5404 1.373 . S
C5405 C5421 1.377 . S
C5406 C5404 1.389 . S
C5406 C5407 1.524 . S
C5406 C5420 1.377 . S
C5407 C5406 1.524 . S
C5407 C5408 1.397 . S
C5407 C5412 1.363 . S
C5408 H5385 0.950 . S
C5408 C5407 1.397 . S
C5408 C5409 1.334 . S
C5409 H5386 0.950 . S
C5409 C5408 1.334 . S
C5409 C5410 1.287 . S
C5410 C5409 1.287 . S
C5410 C5411 1.524 . S
C5410 H5429 0.913 . S
C5411 H5387 0.950 . S
C5411 C5410 1.524 . S
C5411 C5412 1.415 . S
C5412 H5388 0.950 . S
C5412 C5407 1.363 . S
C5412 C5411 1.415 . S
C5413 H5389 0.951 . S
C5413 C5414 1.366 . S
C5413 C5415 1.388 . S
C5414 C5413 1.366 . S
C5414 C5418 1.385 . S
C5415 H5390 0.951 . S
C5415 C5413 1.388 . S
C5415 C5416 1.366 . S
C5416 C5415 1.366 . S
C5416 C5417 1.414 . S
C5416 C5419 1.499 . S
C5417 H5391 0.950 . S
C5417 C5416 1.414 . S
C5417 C5418 1.374 . S
C5418 H5392 0.950 . S
C5418 C5414 1.385 . S
C5418 C5417 1.374 . S
C5419 C5416 1.499 . S
C5419 C5420 1.373 . S
C5419 C5421 1.389 . S
C5420 H5393 0.950 . S
C5420 C5406 1.377 . S
C5420 C5419 1.373 . S
C5421 C5405 1.377 . S
C5421 C5419 1.389 . S
C5421 C5422 1.524 . S
C5422 C5421 1.524 . S
C5422 C5423 1.397 . S
C5422 C5427 1.363 . S
C5423 H5394 0.950 . S
C5423 C5422 1.397 . S
C5423 C5424 1.334 . S
C5424 H5395 0.950 . S
C5424 C5423 1.334 . S
C5424 C5425 1.287 . S
C5425 C5424 1.287 . S
C5425 C5426 1.524 . S
C5425 H5428 0.999 . S
C5426 H5396 0.950 1_455 S
C5426 C5425 1.524 . S
C5426 C5427 1.415 . S
C5427 H5397 0.950 . S
C5427 C5422 1.363 . S
C5427 C5426 1.415 . S
H5428 C5425 0.999 . S
H5429 C5410 0.913 . S
H5430 C5448 0.951 . S
H5431 C5450 0.951 . S
H5432 C5452 0.950 . S
H5433 C5453 0.950 . S
H5434 C5455 0.950 . S
H5435 C5458 0.950 . S
H5436 C5459 0.950 . S
H5437 C5461 0.950 . S
H5438 C5462 0.950 . S
H5439 C5463 0.951 . S
H5440 C5465 0.951 . S
H5441 C5467 0.950 . S
H5442 C5468 0.950 . S
H5443 C5470 0.950 . S
H5444 C5473 0.950 . S
H5445 C5474 0.950 . S
H5446 C5476 0.950 . S
H5447 C5477 0.950 . S
C5448 H5430 0.951 . S
C5448 C5449 1.366 . S
C5448 C5450 1.388 . S
C5449 C5448 1.366 . S
C5449 C5453 1.385 . S
C5450 H5431 0.951 . S
C5450 C5448 1.388 . S
C5450 C5451 1.366 . S
C5451 C5450 1.366 . S
C5451 C5452 1.414 . S
C5451 C5454 1.499 . S
C5452 H5432 0.950 . S
C5452 C5451 1.414 . S
C5452 C5453 1.374 . S
C5453 H5433 0.950 . S
C5453 C5449 1.385 . S
C5453 C5452 1.374 . S
C5454 C5451 1.499 . S
C5454 C5455 1.373 . S
C5454 C5456 1.389 . S
C5455 H5434 0.950 . S
C5455 C5454 1.373 . S
C5455 C5471 1.377 . S
C5456 C5454 1.389 . S
C5456 C5457 1.524 . S
C5456 C5470 1.377 . S
C5457 C5456 1.524 . S
C5457 C5458 1.397 . S
C5457 C5462 1.363 . S
C5458 H5435 0.950 . S
C5458 C5457 1.397 . S
C5458 C5459 1.334 . S
C5459 H5436 0.950 . S
C5459 C5458 1.334 . S
C5459 C5460 1.287 . S
C5460 C5459 1.287 . S
C5460 C5461 1.524 . S
C5460 H5479 0.913 . S
C5461 H5437 0.950 . S
C5461 C5460 1.524 . S
C5461 C5462 1.415 . S
C5462 H5438 0.950 . S
C5462 C5457 1.363 . S
C5462 C5461 1.415 . S
C5463 H5439 0.951 . S
C5463 C5464 1.366 . S
C5463 C5465 1.388 . S
C5464 C5463 1.366 . S
C5464 C5468 1.385 . S
C5465 H5440 0.951 . S
C5465 C5463 1.388 . S
C5465 C5466 1.366 . S
C5466 C5465 1.366 . S
C5466 C5467 1.414 . S
C5466 C5469 1.499 . S
C5467 H5441 0.950 . S
C5467 C5466 1.414 . S
C5467 C5468 1.374 . S
C5468 H5442 0.950 . S
C5468 C5464 1.385 . S
C5468 C5467 1.374 . S
C5469 C5466 1.499 . S
C5469 C5470 1.373 . S
C5469 C5471 1.389 . S
C5470 H5443 0.950 . S
C5470 C5456 1.377 . S
C5470 C5469 1.373 . S
C5471 C5455 1.377 . S
C5471 C5469 1.389 . S
C5471 C5472 1.524 . S
C5472 C5471 1.524 . S
C5472 C5473 1.397 . S
C5472 C5477 1.363 . S
C5473 H5444 0.950 . S
C5473 C5472 1.397 . S
C5473 C5474 1.334 . S
C5474 H5445 0.950 . S
C5474 C5473 1.334 . S
C5474 C5475 1.287 . S
C5475 C5474 1.287 . S
C5475 C5476 1.524 . S
C5475 H5478 0.999 . S
C5476 H5446 0.950 . S
C5476 C5475 1.524 . S
C5476 C5477 1.415 . S
C5477 H5447 0.950 . S
C5477 C5472 1.363 . S
C5477 C5476 1.415 . S
H5478 C5475 0.999 . S
H5479 C5460 0.913 . S
H5480 C5498 0.951 . S
H5481 C5500 0.951 . S
H5482 C5502 0.950 . S
H5483 C5503 0.950 . S
H5484 C5505 0.950 . S
H5485 C5508 0.950 . S
H5486 C5509 0.950 . S
H5487 C5511 0.950 . S
H5488 C5512 0.950 . S
H5489 C5513 0.951 1_554 S
H5490 C5515 0.951 . S
H5491 C5517 0.950 . S
H5492 C5518 0.950 . S
H5493 C5520 0.950 . S
H5494 C5523 0.950 . S
H5495 C5524 0.950 . S
H5496 C5526 0.950 . S
H5497 C5527 0.950 . S
C5498 H5480 0.951 . S
C5498 C5499 1.366 . S
C5498 C5500 1.388 . S
C5499 C5498 1.366 . S
C5499 C5503 1.385 . S
C5500 H5481 0.951 . S
C5500 C5498 1.388 . S
C5500 C5501 1.366 . S
C5501 C5500 1.366 . S
C5501 C5502 1.414 . S
C5501 C5504 1.499 . S
C5502 H5482 0.950 . S
C5502 C5501 1.414 . S
C5502 C5503 1.374 . S
C5503 H5483 0.950 . S
C5503 C5499 1.385 . S
C5503 C5502 1.374 . S
C5504 C5501 1.499 . S
C5504 C5505 1.373 . S
C5504 C5506 1.389 . S
C5505 H5484 0.950 . S
C5505 C5504 1.373 . S
C5505 C5521 1.377 . S
C5506 C5504 1.389 . S
C5506 C5507 1.524 . S
C5506 C5520 1.377 . S
C5507 C5506 1.524 . S
C5507 C5508 1.397 . S
C5507 C5512 1.363 . S
C5508 H5485 0.950 . S
C5508 C5507 1.397 . S
C5508 C5509 1.334 . S
C5509 H5486 0.950 . S
C5509 C5508 1.334 . S
C5509 C5510 1.287 . S
C5510 C5509 1.287 . S
C5510 C5511 1.524 . S
C5510 H5529 0.913 . S
C5511 H5487 0.950 . S
C5511 C5510 1.524 . S
C5511 C5512 1.415 . S
C5512 H5488 0.950 . S
C5512 C5507 1.363 . S
C5512 C5511 1.415 . S
C5513 H5489 0.951 1_556 S
C5513 C5514 1.366 . S
C5513 C5515 1.388 . S
C5514 C5513 1.366 . S
C5514 C5518 1.385 . S
C5515 H5490 0.951 . S
C5515 C5513 1.388 . S
C5515 C5516 1.366 . S
C5516 C5515 1.366 . S
C5516 C5517 1.414 . S
C5516 C5519 1.499 . S
C5517 H5491 0.950 . S
C5517 C5516 1.414 . S
C5517 C5518 1.374 . S
C5518 H5492 0.950 . S
C5518 C5514 1.385 . S
C5518 C5517 1.374 . S
C5519 C5516 1.499 . S
C5519 C5520 1.373 . S
C5519 C5521 1.389 . S
C5520 H5493 0.950 . S
C5520 C5506 1.377 . S
C5520 C5519 1.373 . S
C5521 C5505 1.377 . S
C5521 C5519 1.389 . S
C5521 C5522 1.524 . S
C5522 C5521 1.524 . S
C5522 C5523 1.397 . S
C5522 C5527 1.363 . S
C5523 H5494 0.950 . S
C5523 C5522 1.397 . S
C5523 C5524 1.334 . S
C5524 H5495 0.950 . S
C5524 C5523 1.334 . S
C5524 C5525 1.287 1_556 S
C5525 C5524 1.287 1_554 S
C5525 C5526 1.524 . S
C5525 H5528 0.999 . S
C5526 H5496 0.950 . S
C5526 C5525 1.524 . S
C5526 C5527 1.415 1_554 S
C5527 H5497 0.950 . S
C5527 C5522 1.363 . S
C5527 C5526 1.415 1_556 S
H5528 C5525 0.999 . S
H5529 C5510 0.913 . S
H5530 C5548 0.951 . S
H5531 C5550 0.951 . S
H5532 C5552 0.950 . S
H5533 C5553 0.950 . S
H5534 C5555 0.950 . S
H5535 C5558 0.950 . S
H5536 C5559 0.950 . S
H5537 C5561 0.950 . S
H5538 C5562 0.950 . S
H5539 C5563 0.951 . S
H5540 C5565 0.951 . S
H5541 C5567 0.950 . S
H5542 C5568 0.950 . S
H5543 C5570 0.950 . S
H5544 C5573 0.950 . S
H5545 C5574 0.950 . S
H5546 C5576 0.950 . S
H5547 C5577 0.950 . S
C5548 H5530 0.951 . S
C5548 C5549 1.366 . S
C5548 C5550 1.388 . S
C5549 C5548 1.366 . S
C5549 C5553 1.385 . S
C5550 H5531 0.951 . S
C5550 C5548 1.388 . S
C5550 C5551 1.366 . S
C5551 C5550 1.366 . S
C5551 C5552 1.414 . S
C5551 C5554 1.499 . S
C5552 H5532 0.950 . S
C5552 C5551 1.414 . S
C5552 C5553 1.374 . S
C5553 H5533 0.950 . S
C5553 C5549 1.385 . S
C5553 C5552 1.374 . S
C5554 C5551 1.499 . S
C5554 C5555 1.373 . S
C5554 C5556 1.389 . S
C5555 H5534 0.950 . S
C5555 C5554 1.373 . S
C5555 C5571 1.377 . S
C5556 C5554 1.389 . S
C5556 C5557 1.524 . S
C5556 C5570 1.377 . S
C5557 C5556 1.524 . S
C5557 C5558 1.397 . S
C5557 C5562 1.363 . S
C5558 H5535 0.950 . S
C5558 C5557 1.397 . S
C5558 C5559 1.334 . S
C5559 H5536 0.950 . S
C5559 C5558 1.334 . S
C5559 C5560 1.287 . S
C5560 C5559 1.287 . S
C5560 C5561 1.524 . S
C5560 H5579 0.913 . S
C5561 H5537 0.950 . S
C5561 C5560 1.524 . S
C5561 C5562 1.415 . S
C5562 H5538 0.950 . S
C5562 C5557 1.363 . S
C5562 C5561 1.415 . S
C5563 H5539 0.951 . S
C5563 C5564 1.366 . S
C5563 C5565 1.388 . S
C5564 C5563 1.366 . S
C5564 C5568 1.385 . S
C5565 H5540 0.951 . S
C5565 C5563 1.388 . S
C5565 C5566 1.366 . S
C5566 C5565 1.366 . S
C5566 C5567 1.414 . S
C5566 C5569 1.499 . S
C5567 H5541 0.950 . S
C5567 C5566 1.414 . S
C5567 C5568 1.374 . S
C5568 H5542 0.950 . S
C5568 C5564 1.385 . S
C5568 C5567 1.374 . S
C5569 C5566 1.499 . S
C5569 C5570 1.373 . S
C5569 C5571 1.389 . S
C5570 H5543 0.950 . S
C5570 C5556 1.377 . S
C5570 C5569 1.373 . S
C5571 C5555 1.377 . S
C5571 C5569 1.389 . S
C5571 C5572 1.524 . S
C5572 C5571 1.524 . S
C5572 C5573 1.397 . S
C5572 C5577 1.363 . S
C5573 H5544 0.950 . S
C5573 C5572 1.397 . S
C5573 C5574 1.334 . S
C5574 H5545 0.950 . S
C5574 C5573 1.334 . S
C5574 C5575 1.287 . S
C5575 C5574 1.287 . S
C5575 C5576 1.524 . S
C5575 H5578 0.999 . S
C5576 H5546 0.950 . S
C5576 C5575 1.524 . S
C5576 C5577 1.415 . S
C5577 H5547 0.950 . S
C5577 C5572 1.363 . S
C5577 C5576 1.415 . S
H5578 C5575 0.999 . S
H5579 C5560 0.913 . S
H5580 C5598 0.951 . S
H5581 C5600 0.951 . S
H5582 C5602 0.950 . S
H5583 C5603 0.950 . S
H5584 C5605 0.950 . S
H5585 C5608 0.950 . S
H5586 C5609 0.950 . S
H5587 C5611 0.950 . S
H5588 C5612 0.950 . S
H5589 C5613 0.951 . S
H5590 C5615 0.951 . S
H5591 C5617 0.950 . S
H5592 C5618 0.950 . S
H5593 C5620 0.950 . S
H5594 C5623 0.950 . S
H5595 C5624 0.950 . S
H5596 C5626 0.950 . S
H5597 C5627 0.950 . S
C5598 H5580 0.951 . S
C5598 C5599 1.366 . S
C5598 C5600 1.388 . S
C5599 C5598 1.366 . S
C5599 C5603 1.385 . S
C5600 H5581 0.951 . S
C5600 C5598 1.388 . S
C5600 C5601 1.366 . S
C5601 C5600 1.366 . S
C5601 C5602 1.414 . S
C5601 C5604 1.499 . S
C5602 H5582 0.950 . S
C5602 C5601 1.414 . S
C5602 C5603 1.374 . S
C5603 H5583 0.950 . S
C5603 C5599 1.385 . S
C5603 C5602 1.374 . S
C5604 C5601 1.499 . S
C5604 C5605 1.373 . S
C5604 C5606 1.389 . S
C5605 H5584 0.950 . S
C5605 C5604 1.373 . S
C5605 C5621 1.377 . S
C5606 C5604 1.389 . S
C5606 C5607 1.524 . S
C5606 C5620 1.377 . S
C5607 C5606 1.524 . S
C5607 C5608 1.397 . S
C5607 C5612 1.363 . S
C5608 H5585 0.950 . S
C5608 C5607 1.397 . S
C5608 C5609 1.334 . S
C5609 H5586 0.950 . S
C5609 C5608 1.334 . S
C5609 C5610 1.287 . S
C5610 C5609 1.287 . S
C5610 C5611 1.524 . S
C5610 H5629 0.913 . S
C5611 H5587 0.950 . S
C5611 C5610 1.524 . S
C5611 C5612 1.415 . S
C5612 H5588 0.950 . S
C5612 C5607 1.363 . S
C5612 C5611 1.415 . S
C5613 H5589 0.951 . S
C5613 C5614 1.366 . S
C5613 C5615 1.388 . S
C5614 C5613 1.366 . S
C5614 C5618 1.385 . S
C5615 H5590 0.951 . S
C5615 C5613 1.388 . S
C5615 C5616 1.366 . S
C5616 C5615 1.366 . S
C5616 C5617 1.414 . S
C5616 C5619 1.499 . S
C5617 H5591 0.950 . S
C5617 C5616 1.414 . S
C5617 C5618 1.374 . S
C5618 H5592 0.950 . S
C5618 C5614 1.385 . S
C5618 C5617 1.374 . S
C5619 C5616 1.499 . S
C5619 C5620 1.373 . S
C5619 C5621 1.389 . S
C5620 H5593 0.950 . S
C5620 C5606 1.377 . S
C5620 C5619 1.373 . S
C5621 C5605 1.377 . S
C5621 C5619 1.389 . S
C5621 C5622 1.524 . S
C5622 C5621 1.524 . S
C5622 C5623 1.397 . S
C5622 C5627 1.363 . S
C5623 H5594 0.950 . S
C5623 C5622 1.397 . S
C5623 C5624 1.334 . S
C5624 H5595 0.950 . S
C5624 C5623 1.334 . S
C5624 C5625 1.287 . S
C5625 C5624 1.287 . S
C5625 C5626 1.524 . S
C5625 H5628 0.999 . S
C5626 H5596 0.950 . S
C5626 C5625 1.524 . S
C5626 C5627 1.415 . S
C5627 H5597 0.950 . S
C5627 C5622 1.363 . S
C5627 C5626 1.415 . S
H5628 C5625 0.999 . S
H5629 C5610 0.913 . S
H5630 C5648 0.951 . S
H5631 C5650 0.951 . S
H5632 C5652 0.950 . S
H5633 C5653 0.950 . S
H5634 C5655 0.950 . S
H5635 C5658 0.950 . S
H5636 C5659 0.950 . S
H5637 C5661 0.950 . S
H5638 C5662 0.950 . S
H5639 C5663 0.951 . S
H5640 C5665 0.951 . S
H5641 C5667 0.950 . S
H5642 C5668 0.950 . S
H5643 C5670 0.950 . S
H5644 C5673 0.950 . S
H5645 C5674 0.950 . S
H5646 C5676 0.950 . S
H5647 C5677 0.950 . S
C5648 H5630 0.951 . S
C5648 C5649 1.366 . S
C5648 C5650 1.388 . S
C5649 C5648 1.366 . S
C5649 C5653 1.385 . S
C5650 H5631 0.951 . S
C5650 C5648 1.388 . S
C5650 C5651 1.366 . S
C5651 C5650 1.366 . S
C5651 C5652 1.414 . S
C5651 C5654 1.499 . S
C5652 H5632 0.950 . S
C5652 C5651 1.414 . S
C5652 C5653 1.374 . S
C5653 H5633 0.950 . S
C5653 C5649 1.385 . S
C5653 C5652 1.374 . S
C5654 C5651 1.499 . S
C5654 C5655 1.373 . S
C5654 C5656 1.389 . S
C5655 H5634 0.950 . S
C5655 C5654 1.373 . S
C5655 C5671 1.377 . S
C5656 C5654 1.389 . S
C5656 C5657 1.524 . S
C5656 C5670 1.377 . S
C5657 C5656 1.524 . S
C5657 C5658 1.397 . S
C5657 C5662 1.363 . S
C5658 H5635 0.950 . S
C5658 C5657 1.397 . S
C5658 C5659 1.334 . S
C5659 H5636 0.950 . S
C5659 C5658 1.334 . S
C5659 C5660 1.287 . S
C5660 C5659 1.287 . S
C5660 C5661 1.524 . S
C5660 H5679 0.913 . S
C5661 H5637 0.950 . S
C5661 C5660 1.524 . S
C5661 C5662 1.415 . S
C5662 H5638 0.950 . S
C5662 C5657 1.363 . S
C5662 C5661 1.415 . S
C5663 H5639 0.951 . S
C5663 C5664 1.366 . S
C5663 C5665 1.388 . S
C5664 C5663 1.366 . S
C5664 C5668 1.385 . S
C5665 H5640 0.951 . S
C5665 C5663 1.388 . S
C5665 C5666 1.366 . S
C5666 C5665 1.366 . S
C5666 C5667 1.414 . S
C5666 C5669 1.499 . S
C5667 H5641 0.950 . S
C5667 C5666 1.414 . S
C5667 C5668 1.374 . S
C5668 H5642 0.950 . S
C5668 C5664 1.385 . S
C5668 C5667 1.374 . S
C5669 C5666 1.499 . S
C5669 C5670 1.373 . S
C5669 C5671 1.389 . S
C5670 H5643 0.950 . S
C5670 C5656 1.377 . S
C5670 C5669 1.373 . S
C5671 C5655 1.377 . S
C5671 C5669 1.389 . S
C5671 C5672 1.524 . S
C5672 C5671 1.524 . S
C5672 C5673 1.397 . S
C5672 C5677 1.363 . S
C5673 H5644 0.950 . S
C5673 C5672 1.397 . S
C5673 C5674 1.334 . S
C5674 H5645 0.950 . S
C5674 C5673 1.334 . S
C5674 C5675 1.287 . S
C5675 C5674 1.287 . S
C5675 C5676 1.524 . S
C5675 H5678 0.999 . S
C5676 H5646 0.950 . S
C5676 C5675 1.524 . S
C5676 C5677 1.415 . S
C5677 H5647 0.950 . S
C5677 C5672 1.363 . S
C5677 C5676 1.415 . S
H5678 C5675 0.999 . S
H5679 C5660 0.913 . S
H5680 C5698 0.951 . S
H5681 C5700 0.951 . S
H5682 C5702 0.950 . S
H5683 C5703 0.950 . S
H5684 C5705 0.950 . S
H5685 C5708 0.950 . S
H5686 C5709 0.950 . S
H5687 C5711 0.950 . S
H5688 C5712 0.950 . S
H5689 C5713 0.951 . S
H5690 C5715 0.951 . S
H5691 C5717 0.950 . S
H5692 C5718 0.950 . S
H5693 C5720 0.950 . S
H5694 C5723 0.950 . S
H5695 C5724 0.950 . S
H5696 C5726 0.950 . S
H5697 C5727 0.950 . S
C5698 H5680 0.951 . S
C5698 C5699 1.366 . S
C5698 C5700 1.388 . S
C5699 C5698 1.366 . S
C5699 C5703 1.385 . S
C5700 H5681 0.951 . S
C5700 C5698 1.388 . S
C5700 C5701 1.366 . S
C5701 C5700 1.366 . S
C5701 C5702 1.414 . S
C5701 C5704 1.499 . S
C5702 H5682 0.950 . S
C5702 C5701 1.414 . S
C5702 C5703 1.374 . S
C5703 H5683 0.950 . S
C5703 C5699 1.385 . S
C5703 C5702 1.374 . S
C5704 C5701 1.499 . S
C5704 C5705 1.373 . S
C5704 C5706 1.389 . S
C5705 H5684 0.950 . S
C5705 C5704 1.373 . S
C5705 C5721 1.377 . S
C5706 C5704 1.389 . S
C5706 C5707 1.524 . S
C5706 C5720 1.377 . S
C5707 C5706 1.524 . S
C5707 C5708 1.397 . S
C5707 C5712 1.363 . S
C5708 H5685 0.950 . S
C5708 C5707 1.397 . S
C5708 C5709 1.334 . S
C5709 H5686 0.950 . S
C5709 C5708 1.334 . S
C5709 C5710 1.287 . S
C5710 C5709 1.287 . S
C5710 C5711 1.524 . S
C5710 H5729 0.913 . S
C5711 H5687 0.950 . S
C5711 C5710 1.524 . S
C5711 C5712 1.415 . S
C5712 H5688 0.950 . S
C5712 C5707 1.363 . S
C5712 C5711 1.415 . S
C5713 H5689 0.951 . S
C5713 C5714 1.366 . S
C5713 C5715 1.388 . S
C5714 C5713 1.366 . S
C5714 C5718 1.385 . S
C5715 H5690 0.951 . S
C5715 C5713 1.388 . S
C5715 C5716 1.366 . S
C5716 C5715 1.366 . S
C5716 C5717 1.414 . S
C5716 C5719 1.499 . S
C5717 H5691 0.950 . S
C5717 C5716 1.414 . S
C5717 C5718 1.374 . S
C5718 H5692 0.950 . S
C5718 C5714 1.385 . S
C5718 C5717 1.374 . S
C5719 C5716 1.499 . S
C5719 C5720 1.373 . S
C5719 C5721 1.389 . S
C5720 H5693 0.950 . S
C5720 C5706 1.377 . S
C5720 C5719 1.373 . S
C5721 C5705 1.377 . S
C5721 C5719 1.389 . S
C5721 C5722 1.524 . S
C5722 C5721 1.524 . S
C5722 C5723 1.397 . S
C5722 C5727 1.363 . S
C5723 H5694 0.950 . S
C5723 C5722 1.397 . S
C5723 C5724 1.334 . S
C5724 H5695 0.950 . S
C5724 C5723 1.334 . S
C5724 C5725 1.287 . S
C5725 C5724 1.287 . S
C5725 C5726 1.524 . S
C5725 H5728 0.999 . S
C5726 H5696 0.950 . S
C5726 C5725 1.524 . S
C5726 C5727 1.415 . S
C5727 H5697 0.950 . S
C5727 C5722 1.363 . S
C5727 C5726 1.415 . S
H5728 C5725 0.999 . S
H5729 C5710 0.913 . S
H5730 C5748 0.951 . S
H5731 C5750 0.951 . S
H5732 C5752 0.950 . S
H5733 C5753 0.950 . S
H5734 C5755 0.950 . S
H5735 C5758 0.950 . S
H5736 C5759 0.950 . S
H5737 C5761 0.950 . S
H5738 C5762 0.950 . S
H5739 C5763 0.951 . S
H5740 C5765 0.951 . S
H5741 C5767 0.950 . S
H5742 C5768 0.950 . S
H5743 C5770 0.950 . S
H5744 C5773 0.950 . S
H5745 C5774 0.950 . S
H5746 C5776 0.950 . S
H5747 C5777 0.950 . S
C5748 H5730 0.951 . S
C5748 C5749 1.366 . S
C5748 C5750 1.388 . S
C5749 C5748 1.366 . S
C5749 C5753 1.385 . S
C5750 H5731 0.951 . S
C5750 C5748 1.388 . S
C5750 C5751 1.366 . S
C5751 C5750 1.366 . S
C5751 C5752 1.414 . S
C5751 C5754 1.499 . S
C5752 H5732 0.950 . S
C5752 C5751 1.414 . S
C5752 C5753 1.374 . S
C5753 H5733 0.950 . S
C5753 C5749 1.385 . S
C5753 C5752 1.374 . S
C5754 C5751 1.499 . S
C5754 C5755 1.373 . S
C5754 C5756 1.389 . S
C5755 H5734 0.950 . S
C5755 C5754 1.373 . S
C5755 C5771 1.377 . S
C5756 C5754 1.389 . S
C5756 C5757 1.524 . S
C5756 C5770 1.377 . S
C5757 C5756 1.524 . S
C5757 C5758 1.397 . S
C5757 C5762 1.363 . S
C5758 H5735 0.950 . S
C5758 C5757 1.397 . S
C5758 C5759 1.334 . S
C5759 H5736 0.950 . S
C5759 C5758 1.334 . S
C5759 C5760 1.287 . S
C5760 C5759 1.287 . S
C5760 C5761 1.524 . S
C5760 H5779 0.913 . S
C5761 H5737 0.950 . S
C5761 C5760 1.524 . S
C5761 C5762 1.415 . S
C5762 H5738 0.950 . S
C5762 C5757 1.363 . S
C5762 C5761 1.415 . S
C5763 H5739 0.951 . S
C5763 C5764 1.366 . S
C5763 C5765 1.388 . S
C5764 C5763 1.366 . S
C5764 C5768 1.385 . S
C5765 H5740 0.951 . S
C5765 C5763 1.388 . S
C5765 C5766 1.366 . S
C5766 C5765 1.366 . S
C5766 C5767 1.414 . S
C5766 C5769 1.499 . S
C5767 H5741 0.950 . S
C5767 C5766 1.414 . S
C5767 C5768 1.374 . S
C5768 H5742 0.950 . S
C5768 C5764 1.385 . S
C5768 C5767 1.374 . S
C5769 C5766 1.499 . S
C5769 C5770 1.373 . S
C5769 C5771 1.389 . S
C5770 H5743 0.950 . S
C5770 C5756 1.377 . S
C5770 C5769 1.373 . S
C5771 C5755 1.377 . S
C5771 C5769 1.389 . S
C5771 C5772 1.524 . S
C5772 C5771 1.524 . S
C5772 C5773 1.397 . S
C5772 C5777 1.363 . S
C5773 H5744 0.950 . S
C5773 C5772 1.397 . S
C5773 C5774 1.334 . S
C5774 H5745 0.950 . S
C5774 C5773 1.334 . S
C5774 C5775 1.287 . S
C5775 C5774 1.287 . S
C5775 C5776 1.524 . S
C5775 H5778 0.999 . S
C5776 H5746 0.950 . S
C5776 C5775 1.524 . S
C5776 C5777 1.415 . S
C5777 H5747 0.950 . S
C5777 C5772 1.363 . S
C5777 C5776 1.415 . S
H5778 C5775 0.999 . S
H5779 C5760 0.913 . S
H5780 C5798 0.951 . S
H5781 C5800 0.951 . S
H5782 C5802 0.950 . S
H5783 C5803 0.950 . S
H5784 C5805 0.950 . S
H5785 C5808 0.950 . S
H5786 C5809 0.950 . S
H5787 C5811 0.950 . S
H5788 C5812 0.950 . S
H5789 C5813 0.951 . S
H5790 C5815 0.951 . S
H5791 C5817 0.950 1_655 S
H5792 C5818 0.950 . S
H5793 C5820 0.950 . S
H5794 C5823 0.950 . S
H5795 C5824 0.950 . S
H5796 C5826 0.950 . S
H5797 C5827 0.950 . S
C5798 H5780 0.951 . S
C5798 C5799 1.366 . S
C5798 C5800 1.388 . S
C5799 C5798 1.366 . S
C5799 C5803 1.385 . S
C5800 H5781 0.951 . S
C5800 C5798 1.388 . S
C5800 C5801 1.366 . S
C5801 C5800 1.366 . S
C5801 C5802 1.414 . S
C5801 C5804 1.499 . S
C5802 H5782 0.950 . S
C5802 C5801 1.414 . S
C5802 C5803 1.374 . S
C5803 H5783 0.950 . S
C5803 C5799 1.385 . S
C5803 C5802 1.374 . S
C5804 C5801 1.499 . S
C5804 C5805 1.373 . S
C5804 C5806 1.389 . S
C5805 H5784 0.950 . S
C5805 C5804 1.373 . S
C5805 C5821 1.377 . S
C5806 C5804 1.389 . S
C5806 C5807 1.524 . S
C5806 C5820 1.377 . S
C5807 C5806 1.524 . S
C5807 C5808 1.397 . S
C5807 C5812 1.363 . S
C5808 H5785 0.950 . S
C5808 C5807 1.397 . S
C5808 C5809 1.334 . S
C5809 H5786 0.950 . S
C5809 C5808 1.334 . S
C5809 C5810 1.287 . S
C5810 C5809 1.287 . S
C5810 C5811 1.524 . S
C5810 H5829 0.913 . S
C5811 H5787 0.950 . S
C5811 C5810 1.524 . S
C5811 C5812 1.415 . S
C5812 H5788 0.950 . S
C5812 C5807 1.363 . S
C5812 C5811 1.415 . S
C5813 H5789 0.951 . S
C5813 C5814 1.366 . S
C5813 C5815 1.388 . S
C5814 C5813 1.366 . S
C5814 C5818 1.385 . S
C5815 H5790 0.951 . S
C5815 C5813 1.388 . S
C5815 C5816 1.366 . S
C5816 C5815 1.366 . S
C5816 C5817 1.414 . S
C5816 C5819 1.499 1_455 S
C5817 H5791 0.950 1_455 S
C5817 C5816 1.414 . S
C5817 C5818 1.374 . S
C5818 H5792 0.950 . S
C5818 C5814 1.385 . S
C5818 C5817 1.374 . S
C5819 C5816 1.499 1_655 S
C5819 C5820 1.373 . S
C5819 C5821 1.389 . S
C5820 H5793 0.950 . S
C5820 C5806 1.377 . S
C5820 C5819 1.373 . S
C5821 C5805 1.377 . S
C5821 C5819 1.389 . S
C5821 C5822 1.524 . S
C5822 C5821 1.524 . S
C5822 C5823 1.397 . S
C5822 C5827 1.363 . S
C5823 H5794 0.950 . S
C5823 C5822 1.397 . S
C5823 C5824 1.334 . S
C5824 H5795 0.950 . S
C5824 C5823 1.334 . S
C5824 C5825 1.287 . S
C5825 C5824 1.287 . S
C5825 C5826 1.524 . S
C5825 H5828 0.999 . S
C5826 H5796 0.950 . S
C5826 C5825 1.524 . S
C5826 C5827 1.415 . S
C5827 H5797 0.950 . S
C5827 C5822 1.363 . S
C5827 C5826 1.415 . S
H5828 C5825 0.999 . S
H5829 C5810 0.913 . S
H5830 C5848 0.951 . S
H5831 C5850 0.951 . S
H5832 C5852 0.950 . S
H5833 C5853 0.950 . S
H5834 C5855 0.950 . S
H5835 C5858 0.950 . S
H5836 C5859 0.950 . S
H5837 C5861 0.950 . S
H5838 C5862 0.950 . S
H5839 C5863 0.951 . S
H5840 C5865 0.951 . S
H5841 C5867 0.950 . S
H5842 C5868 0.950 . S
H5843 C5870 0.950 . S
H5844 C5873 0.950 . S
H5845 C5874 0.950 . S
H5846 C5876 0.950 . S
H5847 C5877 0.950 . S
C5848 H5830 0.951 . S
C5848 C5849 1.366 . S
C5848 C5850 1.388 . S
C5849 C5848 1.366 . S
C5849 C5853 1.385 . S
C5850 H5831 0.951 . S
C5850 C5848 1.388 . S
C5850 C5851 1.366 . S
C5851 C5850 1.366 . S
C5851 C5852 1.414 . S
C5851 C5854 1.499 . S
C5852 H5832 0.950 . S
C5852 C5851 1.414 . S
C5852 C5853 1.374 . S
C5853 H5833 0.950 . S
C5853 C5849 1.385 . S
C5853 C5852 1.374 . S
C5854 C5851 1.499 . S
C5854 C5855 1.373 . S
C5854 C5856 1.389 . S
C5855 H5834 0.950 . S
C5855 C5854 1.373 . S
C5855 C5871 1.377 . S
C5856 C5854 1.389 . S
C5856 C5857 1.524 . S
C5856 C5870 1.377 . S
C5857 C5856 1.524 . S
C5857 C5858 1.397 . S
C5857 C5862 1.363 . S
C5858 H5835 0.950 . S
C5858 C5857 1.397 . S
C5858 C5859 1.334 . S
C5859 H5836 0.950 . S
C5859 C5858 1.334 . S
C5859 C5860 1.287 . S
C5860 C5859 1.287 . S
C5860 C5861 1.524 . S
C5860 H5879 0.913 . S
C5861 H5837 0.950 . S
C5861 C5860 1.524 . S
C5861 C5862 1.415 . S
C5862 H5838 0.950 . S
C5862 C5857 1.363 . S
C5862 C5861 1.415 . S
C5863 H5839 0.951 . S
C5863 C5864 1.366 . S
C5863 C5865 1.388 . S
C5864 C5863 1.366 . S
C5864 C5868 1.385 . S
C5865 H5840 0.951 . S
C5865 C5863 1.388 . S
C5865 C5866 1.366 . S
C5866 C5865 1.366 . S
C5866 C5867 1.414 . S
C5866 C5869 1.499 . S
C5867 H5841 0.950 . S
C5867 C5866 1.414 . S
C5867 C5868 1.374 . S
C5868 H5842 0.950 . S
C5868 C5864 1.385 . S
C5868 C5867 1.374 . S
C5869 C5866 1.499 . S
C5869 C5870 1.373 . S
C5869 C5871 1.389 . S
C5870 H5843 0.950 . S
C5870 C5856 1.377 . S
C5870 C5869 1.373 . S
C5871 C5855 1.377 . S
C5871 C5869 1.389 . S
C5871 C5872 1.524 . S
C5872 C5871 1.524 . S
C5872 C5873 1.397 . S
C5872 C5877 1.363 . S
C5873 H5844 0.950 . S
C5873 C5872 1.397 . S
C5873 C5874 1.334 . S
C5874 H5845 0.950 . S
C5874 C5873 1.334 . S
C5874 C5875 1.287 . S
C5875 C5874 1.287 . S
C5875 C5876 1.524 . S
C5875 H5878 0.999 . S
C5876 H5846 0.950 . S
C5876 C5875 1.524 . S
C5876 C5877 1.415 . S
C5877 H5847 0.950 . S
C5877 C5872 1.363 . S
C5877 C5876 1.415 . S
H5878 C5875 0.999 . S
H5879 C5860 0.913 . S
H5880 C5898 0.951 . S
H5881 C5900 0.951 . S
H5882 C5902 0.950 . S
H5883 C5903 0.950 . S
H5884 C5905 0.950 . S
H5885 C5908 0.950 . S
H5886 C5909 0.950 . S
H5887 C5911 0.950 . S
H5888 C5912 0.950 . S
H5889 C5913 0.951 . S
H5890 C5915 0.951 . S
H5891 C5917 0.950 . S
H5892 C5918 0.950 . S
H5893 C5920 0.950 . S
H5894 C5923 0.950 . S
H5895 C5924 0.950 . S
H5896 C5926 0.950 . S
H5897 C5927 0.950 . S
C5898 H5880 0.951 . S
C5898 C5899 1.366 . S
C5898 C5900 1.388 . S
C5899 C5898 1.366 . S
C5899 C5903 1.385 . S
C5900 H5881 0.951 . S
C5900 C5898 1.388 . S
C5900 C5901 1.366 . S
C5901 C5900 1.366 . S
C5901 C5902 1.414 . S
C5901 C5904 1.499 . S
C5902 H5882 0.950 . S
C5902 C5901 1.414 . S
C5902 C5903 1.374 . S
C5903 H5883 0.950 . S
C5903 C5899 1.385 . S
C5903 C5902 1.374 . S
C5904 C5901 1.499 . S
C5904 C5905 1.373 . S
C5904 C5906 1.389 . S
C5905 H5884 0.950 . S
C5905 C5904 1.373 . S
C5905 C5921 1.377 . S
C5906 C5904 1.389 . S
C5906 C5907 1.524 . S
C5906 C5920 1.377 . S
C5907 C5906 1.524 . S
C5907 C5908 1.397 . S
C5907 C5912 1.363 . S
C5908 H5885 0.950 . S
C5908 C5907 1.397 . S
C5908 C5909 1.334 . S
C5909 H5886 0.950 . S
C5909 C5908 1.334 . S
C5909 C5910 1.287 . S
C5910 C5909 1.287 . S
C5910 C5911 1.524 . S
C5910 H5929 0.913 . S
C5911 H5887 0.950 . S
C5911 C5910 1.524 . S
C5911 C5912 1.415 . S
C5912 H5888 0.950 . S
C5912 C5907 1.363 . S
C5912 C5911 1.415 . S
C5913 H5889 0.951 . S
C5913 C5914 1.366 . S
C5913 C5915 1.388 . S
C5914 C5913 1.366 . S
C5914 C5918 1.385 . S
C5915 H5890 0.951 . S
C5915 C5913 1.388 . S
C5915 C5916 1.366 . S
C5916 C5915 1.366 . S
C5916 C5917 1.414 . S
C5916 C5919 1.499 . S
C5917 H5891 0.950 . S
C5917 C5916 1.414 . S
C5917 C5918 1.374 . S
C5918 H5892 0.950 . S
C5918 C5914 1.385 . S
C5918 C5917 1.374 . S
C5919 C5916 1.499 . S
C5919 C5920 1.373 . S
C5919 C5921 1.389 . S
C5920 H5893 0.950 . S
C5920 C5906 1.377 . S
C5920 C5919 1.373 . S
C5921 C5905 1.377 . S
C5921 C5919 1.389 . S
C5921 C5922 1.524 . S
C5922 C5921 1.524 . S
C5922 C5923 1.397 . S
C5922 C5927 1.363 . S
C5923 H5894 0.950 . S
C5923 C5922 1.397 . S
C5923 C5924 1.334 . S
C5924 H5895 0.950 . S
C5924 C5923 1.334 . S
C5924 C5925 1.287 . S
C5925 C5924 1.287 . S
C5925 C5926 1.524 . S
C5925 H5928 0.999 . S
C5926 H5896 0.950 . S
C5926 C5925 1.524 . S
C5926 C5927 1.415 . S
C5927 H5897 0.950 . S
C5927 C5922 1.363 . S
C5927 C5926 1.415 . S
H5928 C5925 0.999 . S
H5929 C5910 0.913 . S
H5930 C5948 0.951 . S
H5931 C5950 0.951 . S
H5932 C5952 0.950 . S
H5933 C5953 0.950 . S
H5934 C5955 0.950 . S
H5935 C5958 0.950 . S
H5936 C5959 0.950 . S
H5937 C5961 0.950 . S
H5938 C5962 0.950 . S
H5939 C5963 0.951 . S
H5940 C5965 0.951 . S
H5941 C5967 0.950 . S
H5942 C5968 0.950 . S
H5943 C5970 0.950 . S
H5944 C5973 0.950 . S
H5945 C5974 0.950 . S
H5946 C5976 0.950 . S
H5947 C5977 0.950 . S
C5948 H5930 0.951 . S
C5948 C5949 1.366 . S
C5948 C5950 1.388 . S
C5949 C5948 1.366 . S
C5949 C5953 1.385 . S
C5950 H5931 0.951 . S
C5950 C5948 1.388 . S
C5950 C5951 1.366 . S
C5951 C5950 1.366 . S
C5951 C5952 1.414 . S
C5951 C5954 1.499 . S
C5952 H5932 0.950 . S
C5952 C5951 1.414 . S
C5952 C5953 1.374 . S
C5953 H5933 0.950 . S
C5953 C5949 1.385 . S
C5953 C5952 1.374 . S
C5954 C5951 1.499 . S
C5954 C5955 1.373 . S
C5954 C5956 1.389 . S
C5955 H5934 0.950 . S
C5955 C5954 1.373 . S
C5955 C5971 1.377 . S
C5956 C5954 1.389 . S
C5956 C5957 1.524 . S
C5956 C5970 1.377 . S
C5957 C5956 1.524 . S
C5957 C5958 1.397 . S
C5957 C5962 1.363 . S
C5958 H5935 0.950 . S
C5958 C5957 1.397 . S
C5958 C5959 1.334 . S
C5959 H5936 0.950 . S
C5959 C5958 1.334 . S
C5959 C5960 1.287 . S
C5960 C5959 1.287 . S
C5960 C5961 1.524 . S
C5960 H5979 0.913 . S
C5961 H5937 0.950 . S
C5961 C5960 1.524 . S
C5961 C5962 1.415 . S
C5962 H5938 0.950 . S
C5962 C5957 1.363 . S
C5962 C5961 1.415 . S
C5963 H5939 0.951 . S
C5963 C5964 1.366 . S
C5963 C5965 1.388 . S
C5964 C5963 1.366 . S
C5964 C5968 1.385 . S
C5965 H5940 0.951 . S
C5965 C5963 1.388 . S
C5965 C5966 1.366 . S
C5966 C5965 1.366 . S
C5966 C5967 1.414 . S
C5966 C5969 1.499 . S
C5967 H5941 0.950 . S
C5967 C5966 1.414 . S
C5967 C5968 1.374 . S
C5968 H5942 0.950 . S
C5968 C5964 1.385 . S
C5968 C5967 1.374 . S
C5969 C5966 1.499 . S
C5969 C5970 1.373 . S
C5969 C5971 1.389 . S
C5970 H5943 0.950 . S
C5970 C5956 1.377 . S
C5970 C5969 1.373 . S
C5971 C5955 1.377 . S
C5971 C5969 1.389 . S
C5971 C5972 1.524 . S
C5972 C5971 1.524 . S
C5972 C5973 1.397 . S
C5972 C5977 1.363 . S
C5973 H5944 0.950 . S
C5973 C5972 1.397 . S
C5973 C5974 1.334 . S
C5974 H5945 0.950 . S
C5974 C5973 1.334 . S
C5974 C5975 1.287 . S
C5975 C5974 1.287 . S
C5975 C5976 1.524 . S
C5975 H5978 0.999 . S
C5976 H5946 0.950 . S
C5976 C5975 1.524 . S
C5976 C5977 1.415 . S
C5977 H5947 0.950 . S
C5977 C5972 1.363 . S
C5977 C5976 1.415 . S
H5978 C5975 0.999 . S
H5979 C5960 0.913 . S
H5980 C5998 0.951 . S
H5981 C6000 0.951 . S
H5982 C6002 0.950 . S
H5983 C6003 0.950 . S
H5984 C6005 0.950 . S
H5985 C6008 0.950 . S
H5986 C6009 0.950 . S
H5987 C6011 0.950 . S
H5988 C6012 0.950 . S
H5989 C6013 0.951 . S
H5990 C6015 0.951 . S
H5991 C6017 0.950 1_455 S
H5992 C6018 0.950 . S
H5993 C6020 0.950 . S
H5994 C6023 0.931 1_455 S
H5995 C6024 0.950 . S
H5996 C6026 0.950 . S
H5997 C6027 0.950 . S
C5998 H5980 0.951 . S
C5998 C5999 1.366 . S
C5998 C6000 1.388 . S
C5999 C5998 1.366 . S
C5999 C6003 1.385 . S
C6000 H5981 0.951 . S
C6000 C5998 1.388 . S
C6000 C6001 1.366 . S
C6001 C6000 1.366 . S
C6001 C6002 1.414 . S
C6001 C6004 1.499 . S
C6002 H5982 0.950 . S
C6002 C6001 1.414 . S
C6002 C6003 1.374 . S
C6003 H5983 0.950 . S
C6003 C5999 1.385 . S
C6003 C6002 1.374 . S
C6004 C6001 1.499 . S
C6004 C6005 1.373 . S
C6004 C6006 1.389 . S
C6005 H5984 0.950 . S
C6005 C6004 1.373 . S
C6005 C6021 1.377 . S
C6006 C6004 1.389 . S
C6006 C6007 1.524 . S
C6006 C6020 1.377 . S
C6007 C6006 1.524 . S
C6007 C6008 1.397 . S
C6007 C6012 1.363 . S
C6008 H5985 0.950 . S
C6008 C6007 1.397 . S
C6008 C6009 1.334 . S
C6009 H5986 0.950 . S
C6009 C6008 1.334 . S
C6009 C6010 1.287 . S
C6010 C6009 1.287 . S
C6010 C6011 1.524 . S
C6010 H6029 0.913 . S
C6011 H5987 0.950 . S
C6011 C6010 1.524 . S
C6011 C6012 1.415 . S
C6012 H5988 0.950 . S
C6012 C6007 1.363 . S
C6012 C6011 1.415 . S
C6013 H5989 0.951 . S
C6013 C6014 1.377 . S
C6013 C6015 1.388 . S
C6014 C6013 1.377 . S
C6014 C6018 1.383 1_655 S
C6015 H5990 0.951 . S
C6015 C6013 1.388 . S
C6015 C6016 1.366 . S
C6016 C6015 1.366 . S
C6016 C6017 1.414 . S
C6016 C6019 1.499 . S
C6017 H5991 0.950 1_655 S
C6017 C6016 1.414 . S
C6017 C6018 1.374 1_655 S
C6018 H5992 0.950 . S
C6018 C6014 1.383 1_455 S
C6018 C6017 1.374 1_455 S
C6019 C6016 1.499 . S
C6019 C6020 1.373 . S
C6019 C6021 1.389 . S
C6020 H5993 0.950 . S
C6020 C6006 1.377 . S
C6020 C6019 1.373 . S
C6021 C6005 1.377 . S
C6021 C6019 1.389 . S
C6021 C6022 1.524 . S
C6022 C6021 1.524 . S
C6022 C6023 1.461 . S
C6022 C6027 1.363 . S
C6023 H5994 0.931 1_655 S
C6023 C6022 1.461 . S
C6023 C6024 1.291 1_655 S
C6024 H5995 0.950 . S
C6024 C6023 1.291 1_455 S
C6024 C6025 1.287 1_455 S
C6025 C6024 1.287 1_655 S
C6025 C6026 1.524 . S
C6025 H6028 0.999 1_655 S
C6026 H5996 0.950 . S
C6026 C6025 1.524 . S
C6026 C6027 1.415 . S
C6027 H5997 0.950 . S
C6027 C6022 1.363 . S
C6027 C6026 1.415 . S
H6028 C6025 0.999 1_455 S
H6029 C6010 0.913 . S
H6030 C6048 0.951 . S
H6031 C6050 0.951 . S
H6032 C6052 0.950 . S
H6033 C6053 0.950 . S
H6034 C6055 0.950 . S
H6035 C6058 0.950 . S
H6036 C6059 0.950 . S
H6037 C6061 0.950 . S
H6038 C6062 0.950 . S
H6039 C6063 0.951 . S
H6040 C6065 0.951 . S
H6041 C6067 0.950 . S
H6042 C6068 0.950 . S
H6043 C6070 0.950 . S
H6044 C6073 0.950 . S
H6045 C6074 0.950 . S
H6046 C6076 0.950 . S
H6047 C6077 0.950 . S
C6048 H6030 0.951 . S
C6048 C6049 1.366 . S
C6048 C6050 1.388 . S
C6049 C6048 1.366 . S
C6049 C6053 1.385 . S
C6050 H6031 0.951 . S
C6050 C6048 1.388 . S
C6050 C6051 1.366 . S
C6051 C6050 1.366 . S
C6051 C6052 1.414 . S
C6051 C6054 1.499 . S
C6052 H6032 0.950 . S
C6052 C6051 1.414 . S
C6052 C6053 1.374 . S
C6053 H6033 0.950 . S
C6053 C6049 1.385 . S
C6053 C6052 1.374 . S
C6054 C6051 1.499 . S
C6054 C6055 1.373 . S
C6054 C6056 1.389 . S
C6055 H6034 0.950 . S
C6055 C6054 1.373 . S
C6055 C6071 1.377 . S
C6056 C6054 1.389 . S
C6056 C6057 1.524 . S
C6056 C6070 1.377 . S
C6057 C6056 1.524 . S
C6057 C6058 1.397 . S
C6057 C6062 1.363 . S
C6058 H6035 0.950 . S
C6058 C6057 1.397 . S
C6058 C6059 1.334 . S
C6059 H6036 0.950 . S
C6059 C6058 1.334 . S
C6059 C6060 1.287 . S
C6060 C6059 1.287 . S
C6060 C6061 1.524 . S
C6060 H6079 0.913 . S
C6061 H6037 0.950 . S
C6061 C6060 1.524 . S
C6061 C6062 1.415 . S
C6062 H6038 0.950 . S
C6062 C6057 1.363 . S
C6062 C6061 1.415 . S
C6063 H6039 0.951 . S
C6063 C6064 1.366 . S
C6063 C6065 1.388 . S
C6064 C6063 1.366 . S
C6064 C6068 1.385 . S
C6065 H6040 0.951 . S
C6065 C6063 1.388 . S
C6065 C6066 1.366 . S
C6066 C6065 1.366 . S
C6066 C6067 1.414 . S
C6066 C6069 1.499 . S
C6067 H6041 0.950 . S
C6067 C6066 1.414 . S
C6067 C6068 1.374 . S
C6068 H6042 0.950 . S
C6068 C6064 1.385 . S
C6068 C6067 1.374 . S
C6069 C6066 1.499 . S
C6069 C6070 1.373 . S
C6069 C6071 1.389 . S
C6070 H6043 0.950 . S
C6070 C6056 1.377 . S
C6070 C6069 1.373 . S
C6071 C6055 1.377 . S
C6071 C6069 1.389 . S
C6071 C6072 1.524 . S
C6072 C6071 1.524 . S
C6072 C6073 1.397 . S
C6072 C6077 1.363 . S
C6073 H6044 0.950 . S
C6073 C6072 1.397 . S
C6073 C6074 1.334 . S
C6074 H6045 0.950 . S
C6074 C6073 1.334 . S
C6074 C6075 1.287 . S
C6075 C6074 1.287 . S
C6075 C6076 1.524 . S
C6075 H6078 0.999 . S
C6076 H6046 0.950 . S
C6076 C6075 1.524 . S
C6076 C6077 1.415 . S
C6077 H6047 0.950 . S
C6077 C6072 1.363 . S
C6077 C6076 1.415 . S
H6078 C6075 0.999 . S
H6079 C6060 0.913 . S
H6080 C6098 0.951 . S
H6081 C6100 0.951 . S
H6082 C6102 0.950 . S
H6083 C6103 0.950 . S
H6084 C6105 0.950 . S
H6085 C6108 0.950 . S
H6086 C6109 0.950 . S
H6087 C6111 0.950 . S
H6088 C6112 0.950 . S
H6089 C6113 0.951 . S
H6090 C6115 0.951 . S
H6091 C6117 0.950 . S
H6092 C6118 0.950 . S
H6093 C6120 0.950 . S
H6094 C6123 0.950 . S
H6095 C6124 0.950 . S
H6096 C6126 0.950 . S
H6097 C6127 0.950 . S
C6098 H6080 0.951 . S
C6098 C6099 1.366 . S
C6098 C6100 1.388 . S
C6099 C6098 1.366 . S
C6099 C6103 1.385 . S
C6100 H6081 0.951 . S
C6100 C6098 1.388 . S
C6100 C6101 1.366 . S
C6101 C6100 1.366 . S
C6101 C6102 1.414 . S
C6101 C6104 1.499 . S
C6102 H6082 0.950 . S
C6102 C6101 1.414 . S
C6102 C6103 1.374 . S
C6103 H6083 0.950 . S
C6103 C6099 1.385 . S
C6103 C6102 1.374 . S
C6104 C6101 1.499 . S
C6104 C6105 1.373 . S
C6104 C6106 1.389 . S
C6105 H6084 0.950 . S
C6105 C6104 1.373 . S
C6105 C6121 1.377 . S
C6106 C6104 1.389 . S
C6106 C6107 1.524 . S
C6106 C6120 1.377 . S
C6107 C6106 1.524 . S
C6107 C6108 1.397 . S
C6107 C6112 1.363 . S
C6108 H6085 0.950 . S
C6108 C6107 1.397 . S
C6108 C6109 1.334 . S
C6109 H6086 0.950 . S
C6109 C6108 1.334 . S
C6109 C6110 1.287 . S
C6110 C6109 1.287 . S
C6110 C6111 1.524 . S
C6110 H6129 0.913 . S
C6111 H6087 0.950 . S
C6111 C6110 1.524 . S
C6111 C6112 1.415 . S
C6112 H6088 0.950 . S
C6112 C6107 1.363 . S
C6112 C6111 1.415 . S
C6113 H6089 0.951 . S
C6113 C6114 1.366 . S
C6113 C6115 1.388 . S
C6114 C6113 1.366 . S
C6114 C6118 1.385 . S
C6115 H6090 0.951 . S
C6115 C6113 1.388 . S
C6115 C6116 1.366 . S
C6116 C6115 1.366 . S
C6116 C6117 1.414 . S
C6116 C6119 1.499 . S
C6117 H6091 0.950 . S
C6117 C6116 1.414 . S
C6117 C6118 1.374 . S
C6118 H6092 0.950 . S
C6118 C6114 1.385 . S
C6118 C6117 1.374 . S
C6119 C6116 1.499 . S
C6119 C6120 1.373 . S
C6119 C6121 1.389 . S
C6120 H6093 0.950 . S
C6120 C6106 1.377 . S
C6120 C6119 1.373 . S
C6121 C6105 1.377 . S
C6121 C6119 1.389 . S
C6121 C6122 1.524 . S
C6122 C6121 1.524 . S
C6122 C6123 1.397 . S
C6122 C6127 1.363 . S
C6123 H6094 0.950 . S
C6123 C6122 1.397 . S
C6123 C6124 1.334 . S
C6124 H6095 0.950 . S
C6124 C6123 1.334 . S
C6124 C6125 1.287 . S
C6125 C6124 1.287 . S
C6125 C6126 1.524 . S
C6125 H6128 0.999 . S
C6126 H6096 0.950 . S
C6126 C6125 1.524 . S
C6126 C6127 1.415 . S
C6127 H6097 0.950 . S
C6127 C6122 1.363 . S
C6127 C6126 1.415 . S
H6128 C6125 0.999 . S
H6129 C6110 0.913 . S
H6130 C6148 0.951 . S
H6131 C6150 0.951 . S
H6132 C6152 0.950 . S
H6133 C6153 0.950 . S
H6134 C6155 0.950 . S
H6135 C6158 0.950 . S
H6136 C6159 0.950 . S
H6137 C6161 0.950 . S
H6138 C6162 0.950 . S
H6139 C6163 0.951 . S
H6140 C6165 0.946 1_545 S
H6141 C6167 0.950 . S
H6142 C6168 0.965 . S
H6143 C6170 0.950 . S
H6144 C6173 0.950 . S
H6145 C6174 0.950 . S
H6146 C6176 0.950 . S
H6147 C6177 0.950 . S
C6148 H6130 0.951 . S
C6148 C6149 1.366 . S
C6148 C6150 1.388 . S
C6149 C6148 1.366 . S
C6149 C6153 1.385 . S
C6150 H6131 0.951 . S
C6150 C6148 1.388 . S
C6150 C6151 1.366 . S
C6151 C6150 1.366 . S
C6151 C6152 1.414 . S
C6151 C6154 1.499 . S
C6152 H6132 0.950 . S
C6152 C6151 1.414 . S
C6152 C6153 1.374 . S
C6153 H6133 0.950 . S
C6153 C6149 1.385 . S
C6153 C6152 1.374 . S
C6154 C6151 1.499 . S
C6154 C6155 1.373 . S
C6154 C6156 1.389 . S
C6155 H6134 0.950 . S
C6155 C6154 1.373 . S
C6155 C6171 1.377 . S
C6156 C6154 1.389 . S
C6156 C6157 1.524 . S
C6156 C6170 1.377 . S
C6157 C6156 1.524 . S
C6157 C6158 1.397 . S
C6157 C6162 1.363 . S
C6158 H6135 0.950 . S
C6158 C6157 1.397 . S
C6158 C6159 1.334 . S
C6159 H6136 0.950 . S
C6159 C6158 1.334 . S
C6159 C6160 1.287 . S
C6160 C6159 1.287 . S
C6160 C6161 1.524 . S
C6160 H6179 0.913 . S
C6161 H6137 0.950 . S
C6161 C6160 1.524 . S
C6161 C6162 1.415 . S
C6162 H6138 0.950 . S
C6162 C6157 1.363 . S
C6162 C6161 1.415 . S
C6163 H6139 0.951 . S
C6163 C6164 1.366 . S
C6163 C6165 1.385 1_545 S
C6164 C6163 1.366 . S
C6164 C6168 1.385 1_545 S
C6165 H6140 0.946 1_565 S
C6165 C6163 1.385 1_565 S
C6165 C6166 1.373 . S
C6166 C6165 1.373 . S
C6166 C6167 1.414 . S
C6166 C6169 1.499 . S
C6167 H6141 0.950 . S
C6167 C6166 1.414 . S
C6167 C6168 1.374 . S
C6168 H6142 0.965 . S
C6168 C6164 1.385 1_565 S
C6168 C6167 1.374 . S
C6169 C6166 1.499 . S
C6169 C6170 1.373 . S
C6169 C6171 1.389 . S
C6170 H6143 0.950 . S
C6170 C6156 1.377 . S
C6170 C6169 1.373 . S
C6171 C6155 1.377 . S
C6171 C6169 1.389 . S
C6171 C6172 1.524 . S
C6172 C6171 1.524 . S
C6172 C6173 1.397 . S
C6172 C6177 1.363 . S
C6173 H6144 0.950 . S
C6173 C6172 1.397 . S
C6173 C6174 1.334 . S
C6174 H6145 0.950 . S
C6174 C6173 1.334 . S
C6174 C6175 1.287 . S
C6175 C6174 1.287 . S
C6175 C6176 1.524 . S
C6175 H6178 0.999 . S
C6176 H6146 0.950 . S
C6176 C6175 1.524 . S
C6176 C6177 1.415 . S
C6177 H6147 0.950 . S
C6177 C6172 1.363 . S
C6177 C6176 1.415 . S
H6178 C6175 0.999 . S
H6179 C6160 0.913 . S
H6180 C6198 0.951 . S
H6181 C6200 0.951 . S
H6182 C6202 0.950 . S
H6183 C6203 0.950 . S
H6184 C6205 0.950 . S
H6185 C6208 0.950 . S
H6186 C6209 0.950 . S
H6187 C6211 0.950 . S
H6188 C6212 0.950 . S
H6189 C6213 0.951 . S
H6190 C6215 0.951 . S
H6191 C6217 0.950 . S
H6192 C6218 0.950 . S
H6193 C6220 0.950 . S
H6194 C6223 0.950 . S
H6195 C6224 0.950 . S
H6196 C6226 0.950 . S
H6197 C6227 0.950 . S
C6198 H6180 0.951 . S
C6198 C6199 1.366 . S
C6198 C6200 1.388 . S
C6199 C6198 1.366 . S
C6199 C6203 1.385 . S
C6200 H6181 0.951 . S
C6200 C6198 1.388 . S
C6200 C6201 1.366 . S
C6201 C6200 1.366 . S
C6201 C6202 1.414 . S
C6201 C6204 1.499 . S
C6202 H6182 0.950 . S
C6202 C6201 1.414 . S
C6202 C6203 1.374 . S
C6203 H6183 0.950 . S
C6203 C6199 1.385 . S
C6203 C6202 1.374 . S
C6204 C6201 1.499 . S
C6204 C6205 1.373 . S
C6204 C6206 1.389 . S
C6205 H6184 0.950 . S
C6205 C6204 1.373 . S
C6205 C6221 1.377 . S
C6206 C6204 1.389 . S
C6206 C6207 1.524 . S
C6206 C6220 1.377 . S
C6207 C6206 1.524 . S
C6207 C6208 1.397 . S
C6207 C6212 1.363 . S
C6208 H6185 0.950 . S
C6208 C6207 1.397 . S
C6208 C6209 1.334 . S
C6209 H6186 0.950 . S
C6209 C6208 1.334 . S
C6209 C6210 1.287 . S
C6210 C6209 1.287 . S
C6210 C6211 1.524 . S
C6210 H6229 0.913 . S
C6211 H6187 0.950 . S
C6211 C6210 1.524 . S
C6211 C6212 1.415 . S
C6212 H6188 0.950 . S
C6212 C6207 1.363 . S
C6212 C6211 1.415 . S
C6213 H6189 0.951 . S
C6213 C6214 1.366 . S
C6213 C6215 1.388 . S
C6214 C6213 1.366 . S
C6214 C6218 1.385 . S
C6215 H6190 0.951 . S
C6215 C6213 1.388 . S
C6215 C6216 1.366 . S
C6216 C6215 1.366 . S
C6216 C6217 1.414 . S
C6216 C6219 1.499 . S
C6217 H6191 0.950 . S
C6217 C6216 1.414 . S
C6217 C6218 1.374 . S
C6218 H6192 0.950 . S
C6218 C6214 1.385 . S
C6218 C6217 1.374 . S
C6219 C6216 1.499 . S
C6219 C6220 1.373 . S
C6219 C6221 1.389 . S
C6220 H6193 0.950 . S
C6220 C6206 1.377 . S
C6220 C6219 1.373 . S
C6221 C6205 1.377 . S
C6221 C6219 1.389 . S
C6221 C6222 1.524 . S
C6222 C6221 1.524 . S
C6222 C6223 1.397 . S
C6222 C6227 1.363 . S
C6223 H6194 0.950 . S
C6223 C6222 1.397 . S
C6223 C6224 1.334 . S
C6224 H6195 0.950 . S
C6224 C6223 1.334 . S
C6224 C6225 1.287 . S
C6225 C6224 1.287 . S
C6225 C6226 1.524 . S
C6225 H6228 0.999 . S
C6226 H6196 0.950 . S
C6226 C6225 1.524 . S
C6226 C6227 1.415 . S
C6227 H6197 0.950 . S
C6227 C6222 1.363 . S
C6227 C6226 1.415 . S
H6228 C6225 0.999 . S
H6229 C6210 0.913 . S
H6230 C6248 0.951 . S
H6231 C6250 0.951 . S
H6232 C6252 0.950 . S
H6233 C6253 0.950 . S
H6234 C6255 0.950 . S
H6235 C6258 0.950 . S
H6236 C6259 0.950 . S
H6237 C6261 0.950 . S
H6238 C6262 0.950 . S
H6239 C6263 0.951 . S
H6240 C6265 0.951 . S
H6241 C6267 0.950 . S
H6242 C6268 0.950 . S
H6243 C6270 0.950 1_556 S
H6244 C6273 0.950 . S
H6245 C6274 0.950 . S
H6246 C6276 0.950 . S
H6247 C6277 0.950 . S
C6248 H6230 0.951 . S
C6248 C6249 1.366 . S
C6248 C6250 1.388 . S
C6249 C6248 1.366 . S
C6249 C6253 1.385 . S
C6250 H6231 0.951 . S
C6250 C6248 1.388 . S
C6250 C6251 1.366 . S
C6251 C6250 1.366 . S
C6251 C6252 1.414 . S
C6251 C6254 1.499 . S
C6252 H6232 0.950 . S
C6252 C6251 1.414 . S
C6252 C6253 1.374 . S
C6253 H6233 0.950 . S
C6253 C6249 1.385 . S
C6253 C6252 1.374 . S
C6254 C6251 1.499 . S
C6254 C6255 1.373 . S
C6254 C6256 1.389 . S
C6255 H6234 0.950 . S
C6255 C6254 1.373 . S
C6255 C6271 1.377 . S
C6256 C6254 1.389 . S
C6256 C6257 1.524 1_554 S
C6256 C6270 1.377 . S
C6257 C6256 1.524 1_556 S
C6257 C6258 1.397 . S
C6257 C6262 1.363 . S
C6258 H6235 0.950 . S
C6258 C6257 1.397 . S
C6258 C6259 1.334 . S
C6259 H6236 0.950 . S
C6259 C6258 1.334 . S
C6259 C6260 1.287 . S
C6260 C6259 1.287 . S
C6260 C6261 1.524 . S
C6260 H6279 0.913 . S
C6261 H6237 0.950 . S
C6261 C6260 1.524 . S
C6261 C6262 1.415 . S
C6262 H6238 0.950 . S
C6262 C6257 1.363 . S
C6262 C6261 1.415 . S
C6263 H6239 0.951 . S
C6263 C6264 1.366 . S
C6263 C6265 1.388 . S
C6264 C6263 1.366 . S
C6264 C6268 1.385 . S
C6265 H6240 0.951 . S
C6265 C6263 1.388 . S
C6265 C6266 1.366 . S
C6266 C6265 1.366 . S
C6266 C6267 1.414 . S
C6266 C6269 1.499 . S
C6267 H6241 0.950 . S
C6267 C6266 1.414 . S
C6267 C6268 1.374 . S
C6268 H6242 0.950 . S
C6268 C6264 1.385 . S
C6268 C6267 1.374 . S
C6269 C6266 1.499 . S
C6269 C6270 1.373 . S
C6269 C6271 1.389 . S
C6270 H6243 0.950 1_554 S
C6270 C6256 1.377 . S
C6270 C6269 1.373 . S
C6271 C6255 1.377 . S
C6271 C6269 1.389 . S
C6271 C6272 1.524 . S
C6272 C6271 1.524 . S
C6272 C6273 1.397 . S
C6272 C6277 1.363 . S
C6273 H6244 0.950 . S
C6273 C6272 1.397 . S
C6273 C6274 1.334 . S
C6274 H6245 0.950 . S
C6274 C6273 1.334 . S
C6274 C6275 1.287 . S
C6275 C6274 1.287 . S
C6275 C6276 1.524 . S
C6275 H6278 0.999 . S
C6276 H6246 0.950 . S
C6276 C6275 1.524 . S
C6276 C6277 1.415 . S
C6277 H6247 0.950 . S
C6277 C6272 1.363 . S
C6277 C6276 1.415 . S
H6278 C6275 0.999 . S
H6279 C6260 0.913 . S
H6280 C6298 0.951 . S
H6281 C6300 0.951 . S
H6282 C6302 0.950 . S
H6283 C6303 0.950 . S
H6284 C6305 0.950 . S
H6285 C6308 0.950 . S
H6286 C6309 0.950 . S
H6287 C6311 0.950 . S
H6288 C6312 0.950 . S
H6289 C6313 0.951 . S
H6290 C6315 0.951 . S
H6291 C6317 0.950 . S
H6292 C6318 0.950 . S
H6293 C6320 0.950 . S
H6294 C6323 0.950 . S
H6295 C6324 0.950 . S
H6296 C6326 0.950 . S
H6297 C6327 0.950 . S
C6298 H6280 0.951 . S
C6298 C6299 1.366 . S
C6298 C6300 1.388 . S
C6299 C6298 1.366 . S
C6299 C6303 1.385 . S
C6300 H6281 0.951 . S
C6300 C6298 1.388 . S
C6300 C6301 1.366 . S
C6301 C6300 1.366 . S
C6301 C6302 1.414 . S
C6301 C6304 1.499 . S
C6302 H6282 0.950 . S
C6302 C6301 1.414 . S
C6302 C6303 1.374 . S
C6303 H6283 0.950 . S
C6303 C6299 1.385 . S
C6303 C6302 1.374 . S
C6304 C6301 1.499 . S
C6304 C6305 1.373 . S
C6304 C6306 1.389 . S
C6305 H6284 0.950 . S
C6305 C6304 1.373 . S
C6305 C6321 1.377 . S
C6306 C6304 1.389 . S
C6306 C6307 1.524 . S
C6306 C6320 1.377 . S
C6307 C6306 1.524 . S
C6307 C6308 1.397 . S
C6307 C6312 1.363 . S
C6308 H6285 0.950 . S
C6308 C6307 1.397 . S
C6308 C6309 1.334 . S
C6309 H6286 0.950 . S
C6309 C6308 1.334 . S
C6309 C6310 1.287 . S
C6310 C6309 1.287 . S
C6310 C6311 1.524 . S
C6310 H6329 0.913 . S
C6311 H6287 0.950 . S
C6311 C6310 1.524 . S
C6311 C6312 1.415 . S
C6312 H6288 0.950 . S
C6312 C6307 1.363 . S
C6312 C6311 1.415 . S
C6313 H6289 0.951 . S
C6313 C6314 1.366 . S
C6313 C6315 1.388 . S
C6314 C6313 1.366 . S
C6314 C6318 1.385 . S
C6315 H6290 0.951 . S
C6315 C6313 1.388 . S
C6315 C6316 1.366 . S
C6316 C6315 1.366 . S
C6316 C6317 1.414 . S
C6316 C6319 1.499 . S
C6317 H6291 0.950 . S
C6317 C6316 1.414 . S
C6317 C6318 1.374 . S
C6318 H6292 0.950 . S
C6318 C6314 1.385 . S
C6318 C6317 1.374 . S
C6319 C6316 1.499 . S
C6319 C6320 1.373 . S
C6319 C6321 1.389 . S
C6320 H6293 0.950 . S
C6320 C6306 1.377 . S
C6320 C6319 1.373 . S
C6321 C6305 1.377 . S
C6321 C6319 1.389 . S
C6321 C6322 1.524 . S
C6322 C6321 1.524 . S
C6322 C6323 1.397 . S
C6322 C6327 1.363 . S
C6323 H6294 0.950 . S
C6323 C6322 1.397 . S
C6323 C6324 1.334 . S
C6324 H6295 0.950 . S
C6324 C6323 1.334 . S
C6324 C6325 1.287 . S
C6325 C6324 1.287 . S
C6325 C6326 1.524 . S
C6325 H6328 0.999 . S
C6326 H6296 0.950 . S
C6326 C6325 1.524 . S
C6326 C6327 1.415 . S
C6327 H6297 0.950 . S
C6327 C6322 1.363 . S
C6327 C6326 1.415 . S
H6328 C6325 0.999 . S
H6329 C6310 0.913 . S
H6330 C6348 0.951 . S
H6331 C6350 0.951 . S
H6332 C6352 0.950 . S
H6333 C6353 0.950 . S
H6334 C6355 0.950 . S
H6335 C6358 0.950 . S
H6336 C6359 0.950 . S
H6337 C6361 0.950 . S
H6338 C6362 0.950 . S
H6339 C6363 0.948 1_556 S
H6340 C6365 0.951 1_556 S
H6341 C6367 0.950 . S
H6342 C6368 0.950 . S
H6343 C6370 0.950 . S
H6344 C6373 0.950 . S
H6345 C6374 0.950 . S
H6346 C6376 0.981 . S
H6347 C6377 0.950 . S
C6348 H6330 0.951 . S
C6348 C6349 1.366 . S
C6348 C6350 1.388 . S
C6349 C6348 1.366 . S
C6349 C6353 1.385 . S
C6350 H6331 0.951 . S
C6350 C6348 1.388 . S
C6350 C6351 1.366 . S
C6351 C6350 1.366 . S
C6351 C6352 1.414 . S
C6351 C6354 1.499 . S
C6352 H6332 0.950 . S
C6352 C6351 1.414 . S
C6352 C6353 1.374 . S
C6353 H6333 0.950 . S
C6353 C6349 1.385 . S
C6353 C6352 1.374 . S
C6354 C6351 1.499 . S
C6354 C6355 1.373 . S
C6354 C6356 1.389 . S
C6355 H6334 0.950 . S
C6355 C6354 1.373 . S
C6355 C6371 1.377 . S
C6356 C6354 1.389 . S
C6356 C6357 1.524 . S
C6356 C6370 1.377 . S
C6357 C6356 1.524 . S
C6357 C6358 1.397 . S
C6357 C6362 1.363 . S
C6358 H6335 0.950 . S
C6358 C6357 1.397 . S
C6358 C6359 1.334 . S
C6359 H6336 0.950 . S
C6359 C6358 1.334 . S
C6359 C6360 1.287 . S
C6360 C6359 1.287 . S
C6360 C6361 1.524 . S
C6360 H6379 0.913 . S
C6361 H6337 0.950 . S
C6361 C6360 1.524 . S
C6361 C6362 1.415 . S
C6362 H6338 0.950 . S
C6362 C6357 1.363 . S
C6362 C6361 1.415 . S
C6363 H6339 0.948 1_554 S
C6363 C6364 1.368 . S
C6363 C6365 1.389 . S
C6364 C6363 1.368 . S
C6364 C6368 1.385 . S
C6365 H6340 0.951 1_554 S
C6365 C6363 1.389 . S
C6365 C6366 1.366 . S
C6366 C6365 1.366 . S
C6366 C6367 1.414 . S
C6366 C6369 1.499 . S
C6367 H6341 0.950 . S
C6367 C6366 1.414 . S
C6367 C6368 1.374 . S
C6368 H6342 0.950 . S
C6368 C6364 1.385 . S
C6368 C6367 1.374 . S
C6369 C6366 1.499 . S
C6369 C6370 1.373 . S
C6369 C6371 1.389 . S
C6370 H6343 0.950 . S
C6370 C6356 1.377 . S
C6370 C6369 1.373 . S
C6371 C6355 1.377 . S
C6371 C6369 1.389 . S
C6371 C6372 1.524 . S
C6372 C6371 1.524 . S
C6372 C6373 1.397 . S
C6372 C6377 1.363 . S
C6373 H6344 0.950 . S
C6373 C6372 1.397 . S
C6373 C6374 1.334 . S
C6374 H6345 0.950 . S
C6374 C6373 1.334 . S
C6374 C6375 1.287 . S
C6375 C6374 1.287 . S
C6375 C6376 1.524 . S
C6375 H6378 0.999 . S
C6376 H6346 0.981 . S
C6376 C6375 1.524 . S
C6376 C6377 1.415 . S
C6377 H6347 0.950 . S
C6377 C6372 1.363 . S
C6377 C6376 1.415 . S
H6378 C6375 0.999 . S
H6379 C6360 0.913 . S
H6380 C6398 0.951 1_545 S
H6381 C6400 0.951 . S
H6382 C6402 0.950 . S
H6383 C6403 0.950 . S
H6384 C6405 0.950 . S
H6385 C6408 0.950 . S
H6386 C6409 0.950 . S
H6387 C6411 0.950 . S
H6388 C6412 0.950 . S
H6389 C6413 0.951 . S
H6390 C6415 0.951 . S
H6391 C6417 0.950 . S
H6392 C6418 0.950 . S
H6393 C6420 0.950 . S
H6394 C6423 0.950 . S
H6395 C6424 0.950 . S
H6396 C6426 0.950 . S
H6397 C6427 0.950 . S
C6398 H6380 0.951 1_565 S
C6398 C6399 1.366 1_565 S
C6398 C6400 1.388 . S
C6399 C6398 1.366 1_545 S
C6399 C6403 1.385 . S
C6400 H6381 0.951 . S
C6400 C6398 1.388 . S
C6400 C6401 1.366 . S
C6401 C6400 1.366 . S
C6401 C6402 1.414 . S
C6401 C6404 1.499 . S
C6402 H6382 0.950 . S
C6402 C6401 1.414 . S
C6402 C6403 1.374 1_565 S
C6403 H6383 0.950 . S
C6403 C6399 1.385 . S
C6403 C6402 1.374 1_545 S
C6404 C6401 1.499 . S
C6404 C6405 1.373 . S
C6404 C6406 1.389 . S
C6405 H6384 0.950 . S
C6405 C6404 1.373 . S
C6405 C6421 1.377 . S
C6406 C6404 1.389 . S
C6406 C6407 1.524 . S
C6406 C6420 1.377 . S
C6407 C6406 1.524 . S
C6407 C6408 1.397 . S
C6407 C6412 1.363 . S
C6408 H6385 0.950 . S
C6408 C6407 1.397 . S
C6408 C6409 1.334 . S
C6409 H6386 0.950 . S
C6409 C6408 1.334 . S
C6409 C6410 1.287 . S
C6410 C6409 1.287 . S
C6410 C6411 1.524 . S
C6410 H6429 0.913 . S
C6411 H6387 0.950 . S
C6411 C6410 1.524 . S
C6411 C6412 1.415 . S
C6412 H6388 0.950 . S
C6412 C6407 1.363 . S
C6412 C6411 1.415 . S
C6413 H6389 0.951 . S
C6413 C6414 1.366 . S
C6413 C6415 1.388 . S
C6414 C6413 1.366 . S
C6414 C6418 1.385 . S
C6415 H6390 0.951 . S
C6415 C6413 1.388 . S
C6415 C6416 1.366 . S
C6416 C6415 1.366 . S
C6416 C6417 1.414 . S
C6416 C6419 1.499 . S
C6417 H6391 0.950 . S
C6417 C6416 1.414 . S
C6417 C6418 1.374 . S
C6418 H6392 0.950 . S
C6418 C6414 1.385 . S
C6418 C6417 1.374 . S
C6419 C6416 1.499 . S
C6419 C6420 1.373 . S
C6419 C6421 1.389 . S
C6420 H6393 0.950 . S
C6420 C6406 1.377 . S
C6420 C6419 1.373 . S
C6421 C6405 1.377 . S
C6421 C6419 1.389 . S
C6421 C6422 1.524 . S
C6422 C6421 1.524 . S
C6422 C6423 1.397 . S
C6422 C6427 1.363 . S
C6423 H6394 0.950 . S
C6423 C6422 1.397 . S
C6423 C6424 1.334 . S
C6424 H6395 0.950 . S
C6424 C6423 1.334 . S
C6424 C6425 1.287 . S
C6425 C6424 1.287 . S
C6425 C6426 1.524 . S
C6425 H6428 0.999 . S
C6426 H6396 0.950 . S
C6426 C6425 1.524 . S
C6426 C6427 1.415 . S
C6427 H6397 0.950 . S
C6427 C6422 1.363 . S
C6427 C6426 1.415 . S
H6428 C6425 0.999 . S
H6429 C6410 0.913 . S
H6430 C6448 0.951 . S
H6431 C6450 0.951 . S
H6432 C6452 0.950 . S
H6433 C6453 0.950 . S
H6434 C6455 0.950 . S
H6435 C6458 0.950 . S
H6436 C6459 0.950 . S
H6437 C6461 0.950 . S
H6438 C6462 0.950 . S
H6439 C6463 0.951 . S
H6440 C6465 0.951 . S
H6441 C6467 0.950 . S
H6442 C6468 0.950 . S
H6443 C6470 0.950 . S
H6444 C6473 0.950 . S
H6445 C6474 0.950 . S
H6446 C6476 0.950 . S
H6447 C6477 0.950 . S
C6448 H6430 0.951 . S
C6448 C6449 1.366 . S
C6448 C6450 1.388 . S
C6449 C6448 1.366 . S
C6449 C6453 1.385 . S
C6450 H6431 0.951 . S
C6450 C6448 1.388 . S
C6450 C6451 1.366 . S
C6451 C6450 1.366 . S
C6451 C6452 1.414 . S
C6451 C6454 1.499 . S
C6452 H6432 0.950 . S
C6452 C6451 1.414 . S
C6452 C6453 1.374 . S
C6453 H6433 0.950 . S
C6453 C6449 1.385 . S
C6453 C6452 1.374 . S
C6454 C6451 1.499 . S
C6454 C6455 1.373 . S
C6454 C6456 1.389 . S
C6455 H6434 0.950 . S
C6455 C6454 1.373 . S
C6455 C6471 1.377 . S
C6456 C6454 1.389 . S
C6456 C6457 1.524 . S
C6456 C6470 1.377 . S
C6457 C6456 1.524 . S
C6457 C6458 1.397 . S
C6457 C6462 1.363 . S
C6458 H6435 0.950 . S
C6458 C6457 1.397 . S
C6458 C6459 1.334 . S
C6459 H6436 0.950 . S
C6459 C6458 1.334 . S
C6459 C6460 1.287 . S
C6460 C6459 1.287 . S
C6460 C6461 1.524 . S
C6460 H6479 0.913 . S
C6461 H6437 0.950 . S
C6461 C6460 1.524 . S
C6461 C6462 1.415 . S
C6462 H6438 0.950 . S
C6462 C6457 1.363 . S
C6462 C6461 1.415 . S
C6463 H6439 0.951 . S
C6463 C6464 1.366 . S
C6463 C6465 1.388 . S
C6464 C6463 1.366 . S
C6464 C6468 1.385 . S
C6465 H6440 0.951 . S
C6465 C6463 1.388 . S
C6465 C6466 1.366 . S
C6466 C6465 1.366 . S
C6466 C6467 1.414 . S
C6466 C6469 1.499 . S
C6467 H6441 0.950 . S
C6467 C6466 1.414 . S
C6467 C6468 1.374 . S
C6468 H6442 0.950 . S
C6468 C6464 1.385 . S
C6468 C6467 1.374 . S
C6469 C6466 1.499 . S
C6469 C6470 1.373 . S
C6469 C6471 1.389 . S
C6470 H6443 0.950 . S
C6470 C6456 1.377 . S
C6470 C6469 1.373 . S
C6471 C6455 1.377 . S
C6471 C6469 1.389 . S
C6471 C6472 1.524 . S
C6472 C6471 1.524 . S
C6472 C6473 1.397 . S
C6472 C6477 1.363 . S
C6473 H6444 0.950 . S
C6473 C6472 1.397 . S
C6473 C6474 1.334 . S
C6474 H6445 0.950 . S
C6474 C6473 1.334 . S
C6474 C6475 1.287 . S
C6475 C6474 1.287 . S
C6475 C6476 1.524 . S
C6475 H6478 0.999 . S
C6476 H6446 0.950 . S
C6476 C6475 1.524 . S
C6476 C6477 1.415 . S
C6477 H6447 0.950 . S
C6477 C6472 1.363 . S
C6477 C6476 1.415 . S
H6478 C6475 0.999 . S
H6479 C6460 0.913 . S
C1699 C111 1.522 . S
C1714 C392 1.418 . S
C1749 C64 2.162 . S
C1764 C483 2.178 . S
C1799 C77 1.347 . S
C1814 C560 1.271 . S
C1864 C658 1.364 . S
C1849 C95 1.497 . S
C1899 C25 1.381 . S
C1914 C742 1.305 . S
C1964 C814 0.903 . S
C1949 C36 0.940 . S
C2014 C903 0.637 . S
C1999 C50 0.663 . S
C2049 C11 1.175 . S
C2064 C980 1.048 . S
C2114 C399 1.870 . S
C2099 C237 1.866 . S
C2149 C245 0.491 . S
C2164 C490 0.582 . S
C2214 C567 1.038 . S
C2199 C279 0.998 . S
C2264 C644 1.404 . S
C2249 C175 1.497 1_556 S
C2299 C231 1.863 . S
C2314 C728 1.739 . S
C2364 C830 0.980 . S
C2349 C251 0.986 . S
C2414 C910 0.698 . S
C2399 C273 0.675 . S
C2464 C987 1.259 . S
C2449 C181 1.306 . S
C2514 C406 1.312 . S
C2499 C165 1.405 . S
C2549 C288 1.949 . S
C2564 C1071 1.940 . S
C2614 C1159 2.084 . S
C2599 C333 2.252 . S
C2664 C1232 0.504 . S
C2649 C316 0.355 . S
C2699 C123 0.537 . S
C2714 C994 0.572 . S
C2749 C137 1.319 . S
C2764 C574 1.249 . S
C2799 C330 2.269 . S
C2814 C1323 2.266 . S
C2864 C1400 0.681 . S
C2849 C302 0.665 . S
C2914 C403 1.577 1_565 S
C2899 C63 1.698 . S
C2964 C1418 2.214 . S
C2949 C106 2.266 . S
C2999 C97 1.416 . S
C3014 C571 1.382 . S
C3049 C81 1.575 . S
C3064 C1318 1.437 . S
C3114 C730 1.422 . S
C3099 C13 1.399 . S
C3149 C55 0.914 . S
C3164 C1162 0.890 . S
C3214 C914 0.706 . S
C3199 C35 0.707 . S
C3264 C1495 1.273 . S
C3249 C21 1.391 . S
C3314 C410 2.015 . S
C3299 C147 2.117 . S
C3364 C1402 0.607 . S
C3349 C321 0.581 . S
C3399 C119 1.120 . S
C3414 C578 1.090 . S
C3449 C293 1.573 . S
C3464 C1327 1.550 . S
C3499 C153 1.897 . S
C3514 C739 1.935 . S
C3564 C1155 1.027 . S
C3549 C315 1.089 . S
C3599 C125 0.712 . S
C3614 C898 0.722 . S
C3649 C287 1.521 . S
C3664 C1502 1.418 . S
C3699 C193 1.463 . S
C3714 C394 1.371 . S
C3749 C176 2.025 . S
C3764 C1082 1.981 . S
C3799 C263 2.215 . S
C3814 C812 2.049 . S
C3849 C246 0.535 . S
C3864 C1243 0.517 . S
C3914 C1486 0.641 . S
C3899 C277 0.631 . S
C3949 C221 1.331 . S
C3964 C562 1.277 . S
C4014 C662 2.337 . S
C3999 C260 2.362 . S
C4064 C487 0.813 . S
C4049 C204 0.816 . S
C4099 C83 1.523 . S
C4114 C1568 1.420 . S
C4164 C1407 2.178 . S
C4149 C92 2.161 . S
C4199 C105 1.347 . S
C4214 C1652 1.271 . S
C4249 C67 1.497 . S
C4264 C1330 1.365 . S
C4299 C53 1.381 . S
C4314 C1078 1.306 . S
C4364 C1150 0.901 . S
C4349 C8 0.939 . S
C4414 C1239 0.638 . S
C4399 C22 0.662 . S
C4464 C1484 1.048 . S
C4449 C39 1.175 . S
C4514 C1575 1.870 . S
C4499 C265 1.866 . S
C4549 C189 0.492 . S
C4564 C1414 0.579 . S
C4614 C1659 1.038 . S
C4599 C209 0.996 . S
C4664 C1316 1.404 . S
C4649 C217 1.497 . S
C4714 C1064 1.740 . S
C4699 C259 1.864 . S
C4749 C195 0.985 . S
C4764 C1166 0.979 . S
C4814 C1246 0.695 . S
C4799 C203 0.675 . S
C4849 C223 1.307 . S
C4864 C1491 1.258 . S
C4914 C1582 1.312 . S
C4899 C319 1.405 . S
C4949 C134 1.949 . S
C4964 C735 1.942 . S
C5014 C823 2.084 . S
C4999 C151 2.259 . S
C5064 C896 0.501 . S
C5049 C162 0.356 . S
C5114 C1498 0.571 . S
C5099 C305 0.536 . S
C5149 C291 1.317 1_554 S
C5164 C1666 1.246 . S
C5214 C651 2.265 . S
C5199 C148 2.261 . S
C5264 C476 0.683 . S
C5249 C120 0.664 . S
C5299 C91 1.698 . S
C5314 C1579 1.577 . S
C5364 C494 2.214 . S
C5349 C78 2.266 . S
C5399 C69 1.415 . S
C5414 C1663 1.382 . S
C5449 C109 1.575 . S
C5464 C646 1.437 . S
C5499 C41 1.399 . S
C5514 C1066 1.422 . S
C5564 C826 0.890 . S
C5549 C27 0.914 . S
C5599 C7 0.707 . S
C5614 C1250 0.706 . S
C5649 C49 1.390 . S
C5664 C991 1.271 . S
C5714 C1586 2.014 . S
C5699 C329 2.118 . S
C5749 C167 0.580 . S
C5764 C478 0.608 . S
C5814 C1670 1.091 . S
C5799 C301 1.119 . S
C5849 C139 1.574 . S
C5864 C655 1.558 . S
C5899 C335 1.897 . S
C5914 C1075 1.937 . S
C5964 C819 1.026 . S
C5949 C161 1.088 . S
C5999 C307 0.711 . S
C6014 C1234 0.707 1_655 S
C6064 C998 1.411 . S
C6049 C133 1.521 . S
C6114 C1570 1.370 . S
C6099 C249 1.463 . S
C6164 C746 1.982 1_655 S
C6149 C218 2.026 . S
C6199 C235 2.215 . S
C6214 C1148 2.049 . S
C6264 C907 0.517 . S
C6249 C190 0.532 . S
C6299 C207 0.630 . S
C6314 C982 0.640 . S
C6349 C179 1.331 . S
C6364 C1654 1.278 . S
C6414 C1334 2.338 . S
C6399 C232 2.362 . S
C6464 C1411 0.811 . S
C6449 C274 0.817 . S
