# Generated by pormake.
# Topology gar, (4,6)-cn, num edge types: 1
# Building blocks:
#     Node 0, Type 0, BuildingBlock: NAHDIM_clean_sbu_0, # of connection points: 4
#     Node 1, Type 0, BuildingBlock: NAHDIM_clean_sbu_0, # of connection points: 4
#     Node 2, Type 0, BuildingBlock: NAHDIM_clean_sbu_0, # of connection points: 4
#     Node 3, Type 0, BuildingBlock: NAHDIM_clean_sbu_0, # of connection points: 4
#     Node 4, Type 0, BuildingBlock: NAHDIM_clean_sbu_0, # of connection points: 4
#     Node 5, Type 0, BuildingBlock: NAHDIM_clean_sbu_0, # of connection points: 4
#     Node 6, Type 0, BuildingBlock: NAHDIM_clean_sbu_0, # of connection points: 4
#     Node 7, Type 0, BuildingBlock: NAHDIM_clean_sbu_0, # of connection points: 4
#     Node 8, Type 0, BuildingBlock: NAHDIM_clean_sbu_0, # of connection points: 4
#     Node 9, Type 0, BuildingBlock: NAHDIM_clean_sbu_0, # of connection points: 4
#     Node 10, Type 0, BuildingBlock: NAHDIM_clean_sbu_0, # of connection points: 4
#     Node 11, Type 0, BuildingBlock: NAHDIM_clean_sbu_0, # of connection points: 4
#     Node 12, Type 0, BuildingBlock: NAHDIM_clean_sbu_0, # of connection points: 4
#     Node 13, Type 0, BuildingBlock: NAHDIM_clean_sbu_0, # of connection points: 4
#     Node 14, Type 0, BuildingBlock: NAHDIM_clean_sbu_0, # of connection points: 4
#     Node 15, Type 0, BuildingBlock: NAHDIM_clean_sbu_0, # of connection points: 4
#     Node 16, Type 0, BuildingBlock: NAHDIM_clean_sbu_0, # of connection points: 4
#     Node 17, Type 0, BuildingBlock: NAHDIM_clean_sbu_0, # of connection points: 4
#     Node 18, Type 0, BuildingBlock: NAHDIM_clean_sbu_0, # of connection points: 4
#     Node 19, Type 0, BuildingBlock: NAHDIM_clean_sbu_0, # of connection points: 4
#     Node 20, Type 0, BuildingBlock: NAHDIM_clean_sbu_0, # of connection points: 4
#     Node 21, Type 0, BuildingBlock: NAHDIM_clean_sbu_0, # of connection points: 4
#     Node 22, Type 0, BuildingBlock: NAHDIM_clean_sbu_0, # of connection points: 4
#     Node 23, Type 0, BuildingBlock: NAHDIM_clean_sbu_0, # of connection points: 4
#     Node 24, Type 1, BuildingBlock: BETFEN_clean_sbu_0, # of connection points: 6
#     Node 25, Type 1, BuildingBlock: BETFEN_clean_sbu_0, # of connection points: 6
#     Node 26, Type 1, BuildingBlock: BETFEN_clean_sbu_0, # of connection points: 6
#     Node 27, Type 1, BuildingBlock: BETFEN_clean_sbu_0, # of connection points: 6
#     Node 28, Type 1, BuildingBlock: BETFEN_clean_sbu_0, # of connection points: 6
#     Node 29, Type 1, BuildingBlock: BETFEN_clean_sbu_0, # of connection points: 6
#     Node 30, Type 1, BuildingBlock: BETFEN_clean_sbu_0, # of connection points: 6
#     Node 31, Type 1, BuildingBlock: BETFEN_clean_sbu_0, # of connection points: 6
#     Node 32, Type 1, BuildingBlock: BETFEN_clean_sbu_0, # of connection points: 6
#     Node 33, Type 1, BuildingBlock: BETFEN_clean_sbu_0, # of connection points: 6
#     Node 34, Type 1, BuildingBlock: BETFEN_clean_sbu_0, # of connection points: 6
#     Node 35, Type 1, BuildingBlock: BETFEN_clean_sbu_0, # of connection points: 6
#     Node 36, Type 1, BuildingBlock: BETFEN_clean_sbu_0, # of connection points: 6
#     Node 37, Type 1, BuildingBlock: BETFEN_clean_sbu_0, # of connection points: 6
#     Node 38, Type 1, BuildingBlock: BETFEN_clean_sbu_0, # of connection points: 6
#     Node 39, Type 1, BuildingBlock: BETFEN_clean_sbu_0, # of connection points: 6
#     Edge 40, Type (0, 1), BuildingBlock: EZIPEK_clean_linker_0, # of connection points: 2
#     Edge 41, Type (0, 1), BuildingBlock: EZIPEK_clean_linker_0, # of connection points: 2
#     Edge 42, Type (0, 1), BuildingBlock: EZIPEK_clean_linker_0, # of connection points: 2
#     Edge 43, Type (0, 1), BuildingBlock: EZIPEK_clean_linker_0, # of connection points: 2
#     Edge 44, Type (0, 1), BuildingBlock: EZIPEK_clean_linker_0, # of connection points: 2
#     Edge 45, Type (0, 1), BuildingBlock: EZIPEK_clean_linker_0, # of connection points: 2
#     Edge 46, Type (0, 1), BuildingBlock: EZIPEK_clean_linker_0, # of connection points: 2
#     Edge 47, Type (0, 1), BuildingBlock: EZIPEK_clean_linker_0, # of connection points: 2
#     Edge 48, Type (0, 1), BuildingBlock: EZIPEK_clean_linker_0, # of connection points: 2
#     Edge 49, Type (0, 1), BuildingBlock: EZIPEK_clean_linker_0, # of connection points: 2
#     Edge 50, Type (0, 1), BuildingBlock: EZIPEK_clean_linker_0, # of connection points: 2
#     Edge 51, Type (0, 1), BuildingBlock: EZIPEK_clean_linker_0, # of connection points: 2
#     Edge 52, Type (0, 1), BuildingBlock: EZIPEK_clean_linker_0, # of connection points: 2
#     Edge 53, Type (0, 1), BuildingBlock: EZIPEK_clean_linker_0, # of connection points: 2
#     Edge 54, Type (0, 1), BuildingBlock: EZIPEK_clean_linker_0, # of connection points: 2
#     Edge 55, Type (0, 1), BuildingBlock: EZIPEK_clean_linker_0, # of connection points: 2
#     Edge 56, Type (0, 1), BuildingBlock: EZIPEK_clean_linker_0, # of connection points: 2
#     Edge 57, Type (0, 1), BuildingBlock: EZIPEK_clean_linker_0, # of connection points: 2
#     Edge 58, Type (0, 1), BuildingBlock: EZIPEK_clean_linker_0, # of connection points: 2
#     Edge 59, Type (0, 1), BuildingBlock: EZIPEK_clean_linker_0, # of connection points: 2
#     Edge 60, Type (0, 1), BuildingBlock: EZIPEK_clean_linker_0, # of connection points: 2
#     Edge 61, Type (0, 1), BuildingBlock: EZIPEK_clean_linker_0, # of connection points: 2
#     Edge 62, Type (0, 1), BuildingBlock: EZIPEK_clean_linker_0, # of connection points: 2
#     Edge 63, Type (0, 1), BuildingBlock: EZIPEK_clean_linker_0, # of connection points: 2
#     Edge 64, Type (0, 1), BuildingBlock: EZIPEK_clean_linker_0, # of connection points: 2
#     Edge 65, Type (0, 1), BuildingBlock: EZIPEK_clean_linker_0, # of connection points: 2
#     Edge 66, Type (0, 1), BuildingBlock: EZIPEK_clean_linker_0, # of connection points: 2
#     Edge 67, Type (0, 1), BuildingBlock: EZIPEK_clean_linker_0, # of connection points: 2
#     Edge 68, Type (0, 1), BuildingBlock: EZIPEK_clean_linker_0, # of connection points: 2
#     Edge 69, Type (0, 1), BuildingBlock: EZIPEK_clean_linker_0, # of connection points: 2
#     Edge 70, Type (0, 1), BuildingBlock: EZIPEK_clean_linker_0, # of connection points: 2
#     Edge 71, Type (0, 1), BuildingBlock: EZIPEK_clean_linker_0, # of connection points: 2
#     Edge 72, Type (0, 1), BuildingBlock: EZIPEK_clean_linker_0, # of connection points: 2
#     Edge 73, Type (0, 1), BuildingBlock: EZIPEK_clean_linker_0, # of connection points: 2
#     Edge 74, Type (0, 1), BuildingBlock: EZIPEK_clean_linker_0, # of connection points: 2
#     Edge 75, Type (0, 1), BuildingBlock: EZIPEK_clean_linker_0, # of connection points: 2
#     Edge 76, Type (0, 1), BuildingBlock: EZIPEK_clean_linker_0, # of connection points: 2
#     Edge 77, Type (0, 1), BuildingBlock: EZIPEK_clean_linker_0, # of connection points: 2
#     Edge 78, Type (0, 1), BuildingBlock: EZIPEK_clean_linker_0, # of connection points: 2
#     Edge 79, Type (0, 1), BuildingBlock: EZIPEK_clean_linker_0, # of connection points: 2
#     Edge 80, Type (0, 1), BuildingBlock: EZIPEK_clean_linker_0, # of connection points: 2
#     Edge 81, Type (0, 1), BuildingBlock: EZIPEK_clean_linker_0, # of connection points: 2
#     Edge 82, Type (0, 1), BuildingBlock: EZIPEK_clean_linker_0, # of connection points: 2
#     Edge 83, Type (0, 1), BuildingBlock: EZIPEK_clean_linker_0, # of connection points: 2
#     Edge 84, Type (0, 1), BuildingBlock: EZIPEK_clean_linker_0, # of connection points: 2
#     Edge 85, Type (0, 1), BuildingBlock: EZIPEK_clean_linker_0, # of connection points: 2
#     Edge 86, Type (0, 1), BuildingBlock: EZIPEK_clean_linker_0, # of connection points: 2
#     Edge 87, Type (0, 1), BuildingBlock: EZIPEK_clean_linker_0, # of connection points: 2
#     Edge 88, Type (0, 1), BuildingBlock: EZIPEK_clean_linker_0, # of connection points: 2
#     Edge 89, Type (0, 1), BuildingBlock: EZIPEK_clean_linker_0, # of connection points: 2
#     Edge 90, Type (0, 1), BuildingBlock: EZIPEK_clean_linker_0, # of connection points: 2
#     Edge 91, Type (0, 1), BuildingBlock: EZIPEK_clean_linker_0, # of connection points: 2
#     Edge 92, Type (0, 1), BuildingBlock: EZIPEK_clean_linker_0, # of connection points: 2
#     Edge 93, Type (0, 1), BuildingBlock: EZIPEK_clean_linker_0, # of connection points: 2
#     Edge 94, Type (0, 1), BuildingBlock: EZIPEK_clean_linker_0, # of connection points: 2
#     Edge 95, Type (0, 1), BuildingBlock: EZIPEK_clean_linker_0, # of connection points: 2
#     Edge 96, Type (0, 1), BuildingBlock: EZIPEK_clean_linker_0, # of connection points: 2
#     Edge 97, Type (0, 1), BuildingBlock: EZIPEK_clean_linker_0, # of connection points: 2
#     Edge 98, Type (0, 1), BuildingBlock: EZIPEK_clean_linker_0, # of connection points: 2
#     Edge 99, Type (0, 1), BuildingBlock: EZIPEK_clean_linker_0, # of connection points: 2
#     Edge 100, Type (0, 1), BuildingBlock: EZIPEK_clean_linker_0, # of connection points: 2
#     Edge 101, Type (0, 1), BuildingBlock: EZIPEK_clean_linker_0, # of connection points: 2
#     Edge 102, Type (0, 1), BuildingBlock: EZIPEK_clean_linker_0, # of connection points: 2
#     Edge 103, Type (0, 1), BuildingBlock: EZIPEK_clean_linker_0, # of connection points: 2
#     Edge 104, Type (0, 1), BuildingBlock: EZIPEK_clean_linker_0, # of connection points: 2
#     Edge 105, Type (0, 1), BuildingBlock: EZIPEK_clean_linker_0, # of connection points: 2
#     Edge 106, Type (0, 1), BuildingBlock: EZIPEK_clean_linker_0, # of connection points: 2
#     Edge 107, Type (0, 1), BuildingBlock: EZIPEK_clean_linker_0, # of connection points: 2
#     Edge 108, Type (0, 1), BuildingBlock: EZIPEK_clean_linker_0, # of connection points: 2
#     Edge 109, Type (0, 1), BuildingBlock: EZIPEK_clean_linker_0, # of connection points: 2
#     Edge 110, Type (0, 1), BuildingBlock: EZIPEK_clean_linker_0, # of connection points: 2
#     Edge 111, Type (0, 1), BuildingBlock: EZIPEK_clean_linker_0, # of connection points: 2
#     Edge 112, Type (0, 1), BuildingBlock: EZIPEK_clean_linker_0, # of connection points: 2
#     Edge 113, Type (0, 1), BuildingBlock: EZIPEK_clean_linker_0, # of connection points: 2
#     Edge 114, Type (0, 1), BuildingBlock: EZIPEK_clean_linker_0, # of connection points: 2
#     Edge 115, Type (0, 1), BuildingBlock: EZIPEK_clean_linker_0, # of connection points: 2
#     Edge 116, Type (0, 1), BuildingBlock: EZIPEK_clean_linker_0, # of connection points: 2
#     Edge 117, Type (0, 1), BuildingBlock: EZIPEK_clean_linker_0, # of connection points: 2
#     Edge 118, Type (0, 1), BuildingBlock: EZIPEK_clean_linker_0, # of connection points: 2
#     Edge 119, Type (0, 1), BuildingBlock: EZIPEK_clean_linker_0, # of connection points: 2
#     Edge 120, Type (0, 1), BuildingBlock: EZIPEK_clean_linker_0, # of connection points: 2
#     Edge 121, Type (0, 1), BuildingBlock: EZIPEK_clean_linker_0, # of connection points: 2
#     Edge 122, Type (0, 1), BuildingBlock: EZIPEK_clean_linker_0, # of connection points: 2
#     Edge 123, Type (0, 1), BuildingBlock: EZIPEK_clean_linker_0, # of connection points: 2
#     Edge 124, Type (0, 1), BuildingBlock: EZIPEK_clean_linker_0, # of connection points: 2
#     Edge 125, Type (0, 1), BuildingBlock: EZIPEK_clean_linker_0, # of connection points: 2
#     Edge 126, Type (0, 1), BuildingBlock: EZIPEK_clean_linker_0, # of connection points: 2
#     Edge 127, Type (0, 1), BuildingBlock: EZIPEK_clean_linker_0, # of connection points: 2
#     Edge 128, Type (0, 1), BuildingBlock: EZIPEK_clean_linker_0, # of connection points: 2
#     Edge 129, Type (0, 1), BuildingBlock: EZIPEK_clean_linker_0, # of connection points: 2
#     Edge 130, Type (0, 1), BuildingBlock: EZIPEK_clean_linker_0, # of connection points: 2
#     Edge 131, Type (0, 1), BuildingBlock: EZIPEK_clean_linker_0, # of connection points: 2
#     Edge 132, Type (0, 1), BuildingBlock: EZIPEK_clean_linker_0, # of connection points: 2
#     Edge 133, Type (0, 1), BuildingBlock: EZIPEK_clean_linker_0, # of connection points: 2
#     Edge 134, Type (0, 1), BuildingBlock: EZIPEK_clean_linker_0, # of connection points: 2
#     Edge 135, Type (0, 1), BuildingBlock: EZIPEK_clean_linker_0, # of connection points: 2
# Relax obj value: 0.271
# Max RMSD: 0.358
# Mean RMSD: 0.199
data_MOF--net-gar--node1-NAHDIM_clean_sbu_0--node2-BETFEN_clean_sbu_0--edge1-EZIPEK_clean_linker_0
_symmetry_space_group_name_H-M    P1
_symmetry_Int_Tables_number       1
_symmetry_cell_setting            triclinic
loop_
_symmetry_equiv_pos_as_xyz
'x, y, z'
_cell_length_a     50.485112
_cell_length_b     42.81792
_cell_length_c     41.87532
_cell_angle_alpha  95.124626
_cell_angle_beta   100.79581
_cell_angle_gamma 104.30411
loop_
_atom_site_label
_atom_site_type_symbol
_atom_site_fract_x
_atom_site_fract_y
_atom_site_fract_z
_atom_type_partial_charge
C0 C 0.09534 0.34127 0.39992 0.0
O1 O 0.10209 0.33619 0.4305 0.0
O2 O 0.04667 0.30462 0.44446 0.0
Zn3 Zn 0.04454 0.34742 0.42191 0.0
O4 O 0.05769 0.3923 0.45476 0.0
C5 C 0.98314 0.32367 0.37994 0.0
O6 O 0.98381 0.29333 0.38126 0.0
O7 O 0.07202 0.34788 0.39014 0.0
C8 C 0.05557 0.4192 0.44444 0.0
O9 O 0.04609 0.41867 0.41291 0.0
C10 C 0.02945 0.28266 0.45506 0.0
O11 O 1.00405 0.28551 0.45445 0.0
O12 O 1.00476 0.3467 0.39428 0.0
C13 C 0.04222 0.87787 0.6684 0.0
O14 O 0.03644 0.88278 0.63765 0.0
O15 O 0.07892 0.8234 0.61942 0.0
Zn16 Zn 0.09372 0.87003 0.64967 0.0
O17 O 0.09196 0.91231 0.62614 0.0
C18 C 0.15688 0.87681 0.67678 0.0
O19 O 0.16118 0.88244 0.64762 0.0
O20 O 0.06519 0.87104 0.67942 0.0
C21 C 0.11007 0.93586 0.61881 0.0
O22 O 0.13633 0.93498 0.62384 0.0
C23 C 0.09384 0.80434 0.61272 0.0
O24 O 0.12115 0.81466 0.62273 0.0
O25 O 0.1321 0.87236 0.68201 0.0
C26 C 0.59087 0.84771 0.90122 0.0
O27 O 0.60356 0.8662 0.92933 0.0
O28 O 0.53086 0.79863 0.94831 0.0
Zn29 Zn 0.53727 0.84246 0.92584 0.0
O30 O 0.5532 0.88762 0.95868 0.0
C31 C 0.47697 0.82437 0.88303 0.0
O32 O 0.47568 0.79376 0.88587 0.0
O33 O 0.5642 0.83669 0.89467 0.0
C34 C 0.54895 0.91454 0.95033 0.0
O35 O 0.53514 0.91428 0.92038 0.0
C36 C 0.55039 0.78659 0.962 0.0
O37 O 0.57655 0.80335 0.96548 0.0
O38 O 0.49948 0.84637 0.89685 0.0
C39 C 0.54747 0.37607 0.17472 0.0
O40 O 0.53725 0.37343 0.14307 0.0
O41 O 0.58587 0.31954 0.12966 0.0
Zn42 Zn 0.59941 0.3693 0.15316 0.0
O43 O 0.59654 0.40616 0.12177 0.0
C44 C 0.66059 0.36744 0.17876 0.0
O45 O 0.65959 0.35336 0.14928 0.0
O46 O 0.57256 0.37434 0.18457 0.0
C47 C 0.60168 0.43659 0.1329 0.0
O48 O 0.61097 0.44576 0.16466 0.0
C49 C 0.59542 0.3053 0.10781 0.0
O50 O 0.61537 0.32279 0.09564 0.0
O51 O 0.63933 0.37648 0.18454 0.0
C52 C 0.05445 0.8596 0.15808 0.0
O53 O 0.04789 0.83705 0.13235 0.0
O54 O 0.09573 0.83377 0.10859 0.0
Zn55 Zn 0.10906 0.87813 0.13873 0.0
O56 O 0.11152 0.92007 0.11487 0.0
C57 C 0.17131 0.88573 0.17231 0.0
O58 O 0.17952 0.9062 0.15228 0.0
O59 O 0.079 0.87913 0.16571 0.0
C60 C 0.09436 0.9209 0.08834 0.0
O61 O 0.07653 0.89351 0.07298 0.0
C62 C 0.1132 0.81803 0.10299 0.0
O63 O 0.14008 0.83254 0.11194 0.0
O64 O 0.14512 0.8746 0.17106 0.0
C65 C 0.58324 0.84384 0.40168 0.0
O66 O 0.58974 0.84812 0.43393 0.0
O67 O 0.52964 0.79093 0.43634 0.0
Zn68 Zn 0.5272 0.83254 0.41342 0.0
O69 O 0.53682 0.87654 0.44364 0.0
C70 C 0.46477 0.82337 0.38614 0.0
O71 O 0.4604 0.81195 0.41335 0.0
O72 O 0.55763 0.83717 0.38686 0.0
C73 C 0.53263 0.90051 0.4291 0.0
O74 O 0.52242 0.89528 0.39727 0.0
C75 C 0.53794 0.78905 0.4668 0.0
O76 O 0.54296 0.81517 0.48839 0.0
O77 O 0.48962 0.83043 0.38112 0.0
C78 C 0.55702 0.35924 0.66008 0.0
O79 O 0.54954 0.33572 0.63513 0.0
O80 O 0.59675 0.32646 0.61412 0.0
Zn81 Zn 0.61042 0.37433 0.63797 0.0
O82 O 0.60891 0.4103 0.60588 0.0
C83 C 0.67277 0.37794 0.6645 0.0
O84 O 0.67654 0.38017 0.63452 0.0
O85 O 0.58173 0.37835 0.66628 0.0
C86 C 0.60123 0.43578 0.6142 0.0
O87 O 0.59638 0.44026 0.64377 0.0
C88 C 0.6112 0.31077 0.60064 0.0
O89 O 0.63639 0.32602 0.59785 0.0
O90 O 0.64871 0.37744 0.67054 0.0
C91 C 0.08831 0.35071 0.90747 0.0
O92 O 0.0953 0.35299 0.93957 0.0
O93 O 0.03345 0.29687 0.94172 0.0
Zn94 Zn 0.03196 0.33952 0.92016 0.0
O95 O 0.0403 0.38222 0.95203 0.0
C96 C 0.97462 0.34723 0.89425 0.0
O97 O 0.976 0.35783 0.92506 0.0
O98 O 0.06261 0.34579 0.89364 0.0
C99 C 0.03962 0.40717 0.93759 0.0
O100 O 0.03497 0.40339 0.90536 0.0
C101 C 0.04883 0.29529 0.9693 0.0
O102 O 0.06353 0.32248 0.98829 0.0
O103 O 0.99449 0.33634 0.88691 0.0
C104 C 0.44238 0.24971 0.29747 0.0
O105 O 0.44424 0.22953 0.27295 0.0
O106 O 0.50247 0.21809 0.29238 0.0
Zn107 Zn 0.47976 0.21817 0.32692 0.0
O108 O 0.50134 0.21058 0.3709 0.0
C109 C 0.449 0.15233 0.30146 0.0
O110 O 0.47153 0.1501 0.29111 0.0
O111 O 0.45904 0.25286 0.32527 0.0
C112 C 0.51842 0.19316 0.36944 0.0
O113 O 0.52403 0.18509 0.34096 0.0
C114 C 0.52457 0.23971 0.29167 0.0
O115 O 0.53301 0.26635 0.31316 0.0
O116 O 0.44785 0.1791 0.31561 0.0
C117 C 0.34042 0.23062 0.51233 0.0
O118 O 0.35113 0.26219 0.52075 0.0
O119 O 0.30188 0.27029 0.55974 0.0
Zn120 Zn 0.28902 0.25027 0.51025 0.0
O121 O 0.29959 0.2836 0.47675 0.0
C122 C 0.23117 0.22385 0.52246 0.0
O123 O 0.24008 0.24794 0.5468 0.0
O124 O 0.31384 0.21904 0.50595 0.0
C125 C 0.28501 0.29063 0.45121 0.0
O126 O 0.25781 0.27758 0.4436 0.0
C127 C 0.2957 0.29366 0.57516 0.0
O128 O 0.28075 0.31046 0.55869 0.0
O129 O 0.24694 0.22145 0.50213 0.0
C130 C 0.24942 0.09116 0.90287 0.0
O131 O 0.23258 0.08681 0.92344 0.0
O132 O 0.19657 0.12295 0.83491 0.0
Zn133 Zn 0.22218 0.14078 0.87858 0.0
O134 O 0.19649 0.13504 0.9115 0.0
C135 C 0.25296 0.19049 0.84881 0.0
O136 O 0.24782 0.1647 0.82676 0.0
O137 O 0.24887 0.11276 0.88405 0.0
C138 C 0.17121 0.13556 0.90099 0.0
O139 O 0.16423 0.14461 0.87215 0.0
C140 C 0.18232 0.0934 0.82749 0.0
O141 O 0.18508 0.0725 0.8481 0.0
O142 O 0.24389 0.18725 0.87517 0.0
C143 C 0.29273 0.99257 0.04091 0.0
O144 O 0.28207 0.9617 0.0428 0.0
O145 O 0.3398 0.94986 0.08499 0.0
Zn146 Zn 0.34359 0.97068 0.04149 0.0
O147 O 0.33113 0.93705 0.99808 0.0
C148 C 0.40381 0.01235 0.0666 0.0
O149 O 0.39931 0.012 0.09648 0.0
O150 O 0.31839 1.00225 0.03919 0.0
C151 C 0.33073 0.94662 0.96986 0.0
O152 O 0.33726 0.97802 0.96831 0.0
C153 C 0.35441 0.93383 0.1016 0.0
O154 O 0.37573 0.92756 0.09105 0.0
O155 O 0.38418 0.9972 0.04222 0.0
C156 C 0.29567 0.48427 0.05104 0.0
O157 O 0.2857 0.45274 0.0501 0.0
O158 O 0.34058 0.43892 0.09687 0.0
Zn159 Zn 0.3499 0.46779 0.0596 0.0
O160 O 0.34297 0.44005 0.01397 0.0
C161 C 0.41131 0.4909 0.06053 0.0
O162 O 0.40851 0.45998 0.05101 0.0
O163 O 0.32206 0.49626 0.05488 0.0
C164 C 0.34646 0.45486 0.98924 0.0
O165 O 0.35382 0.48686 0.99372 0.0
C166 C 0.35611 0.43005 0.12028 0.0
O167 O 0.38339 0.43878 0.12328 0.0
O168 O 0.39032 0.49939 0.06775 0.0
C169 C 0.85182 0.22143 0.01849 0.0
O170 O 0.86249 0.25316 0.02335 0.0
O171 O 0.81248 0.26409 0.07142 0.0
Zn172 Zn 0.79862 0.2383 0.02295 0.0
O173 O 0.79936 0.26751 0.98459 0.0
C174 C 0.73528 0.21141 0.01546 0.0
O175 O 0.73318 0.24088 0.01165 0.0
O176 O 0.82576 0.20984 0.01749 0.0
C177 C 0.79211 0.25539 0.95405 0.0
O178 O 0.78235 0.22366 0.94622 0.0
C179 C 0.79821 0.27758 0.08781 0.0
O180 O 0.77278 0.27753 0.07326 0.0
O181 O 0.75935 0.20585 0.01941 0.0
C182 C 0.20708 0.47898 0.2687 0.0
O183 O 0.20518 0.49519 0.29584 0.0
O184 O 0.15181 0.52062 0.19301 0.0
Zn185 Zn 0.16737 0.5127 0.23977 0.0
O186 O 0.13457 0.50073 0.26184 0.0
C187 C 0.21182 0.56255 0.29183 0.0
O188 O 0.19353 0.56056 0.26477 0.0
O189 O 0.19185 0.48093 0.24138 0.0
C190 C 0.13755 0.50761 0.29268 0.0
O191 O 0.16279 0.51736 0.31139 0.0
C192 C 0.13199 0.53448 0.18997 0.0
O193 O 0.12169 0.5406 0.21559 0.0
O194 O 0.19341 0.55888 0.26512 0.0
C195 C 0.80109 0.97769 0.55443 0.0
O196 O 0.79293 0.94735 0.55967 0.0
O197 O 0.84577 0.93543 0.59745 0.0
Zn198 Zn 0.85461 0.96144 0.55777 0.0
O199 O 0.84584 0.93182 0.51259 0.0
C200 C 0.91291 0.99181 0.54736 0.0
O201 O 0.90662 0.96731 0.52366 0.0
O202 O 0.8265 0.98944 0.55258 0.0
C203 C 0.8448 0.94547 0.48656 0.0
O204 O 0.84884 0.97719 0.48969 0.0
C205 C 0.85668 0.91561 0.6131 0.0
O206 O 0.87857 0.90831 0.60503 0.0
O207 O 0.89527 0.99367 0.56541 0.0
C208 C 0.90874 0.11112 0.21226 0.0
O209 O 0.91971 0.09847 0.2372 0.0
O210 O 0.94777 0.07041 0.13745 0.0
Zn211 Zn 0.93146 0.06755 0.17841 0.0
O212 O 0.96472 0.07509 0.21552 0.0
C213 C 0.90719 0.01183 0.20899 0.0
O214 O 0.931 0.02292 0.23054 0.0
O215 O 0.9121 0.10279 0.18373 0.0
C216 C 0.98436 0.06218 0.21228 0.0
O217 O 0.98379 0.04589 0.18402 0.0
C218 C 0.96761 0.09628 0.1404 0.0
O219 O 0.97204 0.11851 0.16599 0.0
O220 O 0.90322 0.02509 0.18295 0.0
C221 C 0.34847 0.71666 0.51425 0.0
O222 O 0.35899 0.74796 0.51434 0.0
O223 O 0.31312 0.76336 0.57057 0.0
Zn224 Zn 0.29795 0.73715 0.52254 0.0
O225 O 0.29929 0.7655 0.48369 0.0
C226 C 0.23482 0.71547 0.511 0.0
O227 O 0.23565 0.74337 0.49992 0.0
O228 O 0.32319 0.70634 0.51722 0.0
C229 C 0.29083 0.75252 0.45347 0.0
O230 O 0.28001 0.72085 0.4467 0.0
C231 C 0.30039 0.78046 0.58549 0.0
O232 O 0.2768 0.78445 0.56934 0.0
O233 O 0.25774 0.70812 0.52078 0.0
C234 C 0.40652 0.61095 0.71375 0.0
O235 O 0.41522 0.59615 0.73815 0.0
O236 O 0.44857 0.57243 0.64066 0.0
Zn237 Zn 0.43346 0.5712 0.68234 0.0
O238 O 0.46672 0.58211 0.72026 0.0
C239 C 0.41387 0.51195 0.7109 0.0
O240 O 0.43997 0.51952 0.72735 0.0
O241 O 0.41252 0.60511 0.68608 0.0
C242 C 0.49135 0.58122 0.71824 0.0
O243 O 0.49721 0.57498 0.68957 0.0
C244 C 0.46491 0.59969 0.6385 0.0
O245 O 0.46753 0.62453 0.66081 0.0
O246 O 0.40689 0.52845 0.68838 0.0
C247 C 0.70235 0.9658 0.72923 0.0
O248 O 0.70712 0.98116 0.70422 0.0
O249 O 0.63457 0.99259 0.67633 0.0
Zn250 Zn 0.65539 0.99407 0.72327 0.0
O251 O 0.63015 0.99856 0.75403 0.0
C252 C 0.67329 0.06085 0.72441 0.0
O253 O 0.64618 0.05707 0.71949 0.0
O254 O 0.67948 0.96436 0.73844 0.0
C255 C 0.64101 0.01007 0.7839 0.0
O256 O 0.66822 0.01647 0.79461 0.0
C257 C 0.6088 0.99236 0.67038 0.0
O258 O 0.59309 0.97985 0.69025 0.0
O259 O 0.68306 0.03665 0.72866 0.0
C260 C 0.83924 0.73 0.01258 0.0
O261 O 0.8468 0.76193 0.01546 0.0
O262 O 0.79628 0.76984 0.05349 0.0
Zn263 Zn 0.78447 0.74258 0.00651 0.0
O264 O 0.79024 0.77009 0.96708 0.0
C265 C 0.72102 0.7148 1.00092 0.0
O266 O 0.71888 0.74457 0.99899 0.0
O267 O 0.81324 0.71531 0.00779 0.0
C268 C 0.78199 0.79444 0.95754 0.0
O269 O 0.76559 0.80618 0.97332 0.0
C270 C 0.7799 0.77197 0.07301 0.0
O271 O 0.7529 0.75894 0.06243 0.0
O272 O 0.74491 0.70919 1.00183 0.0
C273 C 0.93486 0.74996 0.81099 0.0
O274 O 0.96026 0.76808 0.8122 0.0
O275 O 0.97723 0.68272 0.79101 0.0
Zn276 Zn 0.9528 0.68703 0.82293 0.0
O277 O 0.9726 0.68201 0.86877 0.0
C278 C 0.90206 0.64561 0.78404 0.0
O279 O 0.90418 0.66891 0.76553 0.0
O280 O 0.93109 0.72063 0.81626 0.0
C281 C 0.99916 0.69124 0.87829 0.0
O282 O 0.01384 0.71147 0.86229 0.0
C283 C 0.99811 0.70352 0.7858 0.0
O284 O 1.00523 0.73358 0.80085 0.0
O285 O 0.92098 0.6475 0.80943 0.0
C286 C 0.80714 0.51431 0.56094 0.0
O287 O 0.81889 0.51117 0.5908 0.0
O288 O 0.84035 0.45438 0.58705 0.0
Zn289 Zn 0.84267 0.47321 0.54222 0.0
O290 O 0.83124 0.43773 0.50012 0.0
C291 C 0.90067 0.52087 0.56506 0.0
O292 O 0.89462 0.52588 0.59393 0.0
O293 O 0.81433 0.50119 0.5365 0.0
C294 C 0.83521 0.4459 0.47226 0.0
O295 O 0.84635 0.47669 0.47054 0.0
C296 C 0.85823 0.44498 0.60721 0.0
O297 O 0.88245 0.4451 0.5999 0.0
O298 O 0.88256 0.501 0.54201 0.0
C299 C 0.74639 0.59004 0.3902 0.0
O300 O 0.72324 0.57353 0.39744 0.0
O301 O 0.69112 0.61974 0.33654 0.0
Zn302 Zn 0.71804 0.64119 0.37923 0.0
O303 O 0.69493 0.63495 0.4145 0.0
C304 C 0.74759 0.68906 0.348 0.0
O305 O 0.74617 0.66175 0.32993 0.0
O306 O 0.74911 0.61927 0.385 0.0
C307 C 0.66969 0.63606 0.40523 0.0
O308 O 0.66237 0.64644 0.37719 0.0
C309 C 0.67446 0.59126 0.331 0.0
O310 O 0.67456 0.57189 0.35351 0.0
O311 O 0.73601 0.6878 0.37266 0.0
Pr312 Pr 0.04057 0.08951 0.0057 0.0
Pr313 Pr 0.10416 0.12456 0.04426 0.0
C314 C 0.98457 0.0801 0.99564 0.0
C315 C 0.96479 0.1007 0.99752 0.0
C316 C 0.96252 0.12451 0.97677 0.0
C317 C 0.94406 0.1439 0.97967 0.0
C318 C 0.92753 0.13995 1.00336 0.0
C319 C 0.9299 0.11634 0.02416 0.0
C320 C 0.94825 0.09694 0.02123 0.0
C321 C 0.08087 0.09444 0.96831 0.0
C322 C 0.06684 0.17283 0.01252 0.0
C323 C 0.1604 0.13554 0.0558 0.0
C324 C 0.18024 0.11515 0.05385 0.0
C325 C 0.20584 0.12237 0.07681 0.0
C326 C 0.22485 0.10358 0.07458 0.0
C327 C 0.21861 0.07717 0.04934 0.0
C328 C 0.19302 0.06996 0.02638 0.0
C329 C 0.17409 0.08875 0.0286 0.0
C330 C 0.06344 0.12166 0.0806 0.0
C331 C 0.07719 0.0411 0.03823 0.0
O332 O 1.00016 0.07798 0.02367 0.0
O333 O 0.99795 0.08153 0.97153 0.0
O334 O 0.08025 0.11531 0.99115 0.0
O335 O 0.05795 0.07025 0.96128 0.0
O336 O 0.09169 0.17197 0.02955 0.0
O337 O 0.04592 0.14591 1.00249 0.0
O338 O 0.14508 0.13827 0.02779 0.0
O339 O 0.14647 0.13249 0.07936 0.0
O340 O 0.0644 0.09998 0.05877 0.0
O341 O 0.08655 0.14555 0.08771 0.0
O342 O 0.05245 0.04212 0.02115 0.0
O343 O 0.09858 0.06779 0.04734 0.0
H344 H 0.97513 0.12837 0.95848 0.0
H345 H 0.94278 0.16216 0.96355 0.0
H346 H 0.91755 0.11298 0.04276 0.0
H347 H 0.94963 0.07902 0.03774 0.0
H348 H 0.21119 0.14261 0.09643 0.0
H349 H 0.24441 0.10956 0.09264 0.0
H350 H 0.18763 0.04967 0.00679 0.0
H351 H 0.15461 0.08267 0.01052 0.0
Pr352 Pr 0.31666 0.87848 0.2958 0.0
Pr353 Pr 0.31328 0.81941 0.26053 0.0
C354 C 0.32906 0.94022 0.32527 0.0
C355 C 0.34065 0.9718 0.31576 0.0
C356 C 0.33329 0.99924 0.32798 0.0
C357 C 0.34665 0.02995 0.32168 0.0
C358 C 0.36761 0.03316 0.30346 0.0
C359 C 0.37353 1.0055 0.28938 0.0
C360 C 0.36002 0.9749 0.29538 0.0
C361 C 0.26147 0.85111 0.25851 0.0
C362 C 0.33045 0.87992 0.22097 0.0
C363 C 0.30021 0.75733 0.23225 0.0
C364 C 0.29902 0.72789 0.24756 0.0
C365 C 0.28162 0.69816 0.23055 0.0
C366 C 0.27379 0.67221 0.2477 0.0
C367 C 0.28305 0.67604 0.28196 0.0
C368 C 0.30236 0.70489 0.2986 0.0
C369 C 0.31049 0.73071 0.28132 0.0
C370 C 0.36838 0.84645 0.29851 0.0
C371 C 0.30163 0.81831 0.33713 0.0
O372 O 0.34617 0.92185 0.3298 0.0
O373 O 0.30399 0.92436 0.30904 0.0
O374 O 0.28377 0.85246 0.24824 0.0
O375 O 0.26794 0.862 0.28968 0.0
O376 O 0.31707 0.84884 0.21626 0.0
O377 O 0.33692 0.89622 0.25097 0.0
O378 O 0.28139 0.77203 0.23788 0.0
O379 O 0.32508 0.77725 0.23574 0.0
O380 O 0.34588 0.84517 0.30821 0.0
O381 O 0.36215 0.83461 0.26758 0.0
O382 O 0.31061 0.85017 0.34045 0.0
O383 O 0.29799 0.80099 0.30809 0.0
H384 H 0.31811 0.99705 0.34341 0.0
H385 H 0.34203 0.05131 0.33269 0.0
H386 H 0.38971 0.00777 0.27531 0.0
H387 H 0.36569 0.95388 0.28539 0.0
H388 H 0.27243 0.6958 0.20461 0.0
H389 H 0.25869 0.65002 0.23469 0.0
H390 H 0.30942 0.70821 0.32506 0.0
H391 H 0.32393 0.75368 0.29471 0.0
Pr392 Pr 0.60093 0.10749 0.52447 0.0
Pr393 Pr 0.53749 0.09705 0.52702 0.0
C394 C 0.65487 0.1053 0.53079 0.0
C395 C 0.67483 0.08468 0.5343 0.0
C396 C 0.68827 0.0795 0.50852 0.0
C397 C 0.70868 0.06229 0.51186 0.0
C398 C 0.71619 0.04977 0.54108 0.0
C399 C 0.70271 0.05467 0.56688 0.0
C400 C 0.68236 0.07212 0.56363 0.0
C401 C 0.57162 0.13546 0.47666 0.0
C402 C 0.55419 0.03463 0.492 0.0
C403 C 0.48371 0.0999 0.52003 0.0
C404 C 0.46422 0.12112 0.51749 0.0
C405 C 0.46485 0.14427 0.54394 0.0
C406 C 0.44454 0.16173 0.54196 0.0
C407 C 0.42319 0.15643 0.51358 0.0
C408 C 0.42282 0.13377 0.48697 0.0
C409 C 0.44307 0.1163 0.48893 0.0
C410 C 0.56734 0.06807 0.57349 0.0
C411 C 0.5824 0.17079 0.55651 0.0
O412 O 0.64416 0.11238 0.55583 0.0
O413 O 0.63743 0.10148 0.50243 0.0
O414 O 0.56178 0.10864 0.48644 0.0
O415 O 0.5984 0.14597 0.48863 0.0
O416 O 0.53315 0.04678 0.49598 0.0
O417 O 0.58061 0.05207 0.50152 0.0
O418 O 0.49522 0.09514 0.4951 0.0
O419 O 0.50023 0.10099 0.54851 0.0
O420 O 0.57702 0.09583 0.5655 0.0
O421 O 0.5407 0.05702 0.56086 0.0
O422 O 0.60369 0.15921 0.55192 0.0
O423 O 0.55639 0.15219 0.54929 0.0
H424 H 0.68329 0.08926 0.48583 0.0
H425 H 0.71879 0.0589 0.49166 0.0
H426 H 0.70815 0.04526 0.58966 0.0
H427 H 0.67277 0.076 0.58417 0.0
H428 H 0.48071 0.14853 0.56637 0.0
H429 H 0.44527 0.17912 0.56276 0.0
H430 H 0.40658 0.12928 0.46484 0.0
H431 H 0.44185 0.09846 0.46828 0.0
Pr432 Pr 0.29447 0.36506 0.77836 0.0
Pr433 Pr 0.35557 0.35984 0.79361 0.0
C434 C 0.23989 0.36105 0.77687 0.0
C435 C 0.2187 0.35974 0.79743 0.0
C436 C 0.20694 0.38605 0.80103 0.0
C437 C 0.18586 0.38474 0.81877 0.0
C438 C 0.17622 0.35719 0.83357 0.0
C439 C 0.188 0.33089 0.83015 0.0
C440 C 0.20876 0.33197 0.8119 0.0
C441 C 0.33168 0.41359 0.75579 0.0
C442 C 0.33499 0.39384 0.85451 0.0
C443 C 0.4099 0.36302 0.79435 0.0
C444 C 0.43033 0.36355 0.77285 0.0
C445 C 0.44253 0.33752 0.77006 0.0
C446 C 0.4631 0.33831 0.75163 0.0
C447 C 0.4721 0.36526 0.73576 0.0
C448 C 0.45991 0.3913 0.73833 0.0
C449 C 0.43919 0.39045 0.75664 0.0
C450 C 0.31738 0.31127 0.81543 0.0
C451 C 0.31707 0.33491 0.71639 0.0
O452 O 0.2494 0.33553 0.77226 0.0
O453 O 0.25904 0.38863 0.77961 0.0
O454 O 0.33708 0.40244 0.78261 0.0
O455 O 0.30527 0.40237 0.74211 0.0
O456 O 0.35727 0.39074 0.84357 0.0
O457 O 0.30955 0.38386 0.83547 0.0
O458 O 0.40058 0.38872 0.79854 0.0
O459 O 0.39082 0.33565 0.79297 0.0
O460 O 0.31264 0.32166 0.7881 0.0
O461 O 0.34321 0.32408 0.83089 0.0
O462 O 0.29461 0.33876 0.72659 0.0
O463 O 0.3418 0.34185 0.7367 0.0
H464 H 0.21378 0.40754 0.78969 0.0
H465 H 0.17697 0.40522 0.82089 0.0
H466 H 0.18079 0.3093 0.84118 0.0
H467 H 0.21672 0.31091 0.80881 0.0
H468 H 0.43638 0.31665 0.78252 0.0
H469 H 0.4722 0.31797 0.74997 0.0
H470 H 0.46654 0.41233 0.72628 0.0
H471 H 0.43038 0.41102 0.75835 0.0
Pr472 Pr 0.06841 0.09296 0.50642 0.0
Pr473 Pr 0.07414 0.12652 0.56722 0.0
C474 C 0.05219 0.06159 0.44466 0.0
C475 C 0.05043 0.0673 0.41038 0.0
C476 C 0.06674 0.05457 0.39169 0.0
C477 C 0.0627 0.05592 0.35803 0.0
C478 C 0.04199 0.06957 0.34279 0.0
C479 C 0.02686 0.08402 0.36164 0.0
C480 C 0.03106 0.08296 0.39529 0.0
C481 C 0.12468 0.13156 0.52889 0.0
C482 C 0.05631 0.16707 0.50779 0.0
C483 C 0.09162 0.15392 0.63041 0.0
C484 C 0.096 0.13957 0.66064 0.0
C485 C 0.11527 0.15802 0.68841 0.0
C486 C 0.12394 0.14283 0.71499 0.0
C487 C 0.11349 0.1091 0.71388 0.0
C488 C 0.09314 0.09086 0.68683 0.0
C489 C 0.08444 0.10608 0.66025 0.0
C490 C 0.01896 0.0863 0.54646 0.0
C491 C 0.08495 0.05177 0.56526 0.0
O492 O 0.0351 0.07148 0.46056 0.0
O493 O 0.0772 0.06566 0.46266 0.0
O494 O 0.1029 0.14089 0.5306 0.0
O495 O 0.11703 0.10143 0.51535 0.0
O496 O 0.0671 0.17046 0.53951 0.0
O497 O 0.05236 0.13858 0.48977 0.0
O498 O 0.10871 0.15019 0.61144 0.0
O499 O 0.06572 0.14826 0.61437 0.0
O500 O 0.04086 0.07775 0.54387 0.0
O501 O 0.02522 0.11691 0.55832 0.0
O502 O 0.07357 0.04853 0.53383 0.0
O503 O 0.09007 0.08056 0.58313 0.0
H504 H 0.08177 0.04237 0.40286 0.0
H505 H 0.07444 0.04465 0.34359 0.0
H506 H 1.01081 0.09466 0.35002 0.0
H507 H 0.01833 0.0932 0.40911 0.0
H508 H 0.12463 0.18376 0.68884 0.0
H509 H 0.13978 0.15709 0.73581 0.0
H510 H 0.08508 0.06477 0.68568 0.0
H511 H 0.06979 0.09148 0.63876 0.0
Pr512 Pr 0.30298 0.81687 0.78829 0.0
Pr513 Pr 0.33127 0.89099 0.77688 0.0
C514 C 0.28723 0.75186 0.77495 0.0
C515 C 0.30166 0.73017 0.76062 0.0
C516 C 0.29765 0.69814 0.76757 0.0
C517 C 0.3142 0.67902 0.75743 0.0
C518 C 0.33493 0.69185 0.74039 0.0
C519 C 0.33839 0.72358 0.73264 0.0
C520 C 0.32193 0.74268 0.74281 0.0
C521 C 0.30748 0.86047 0.84485 0.0
C522 C 0.37333 0.84785 0.81143 0.0
C523 C 0.34713 0.95615 0.79051 0.0
C524 C 0.33902 0.97877 0.81307 0.0
C525 C 0.32943 1.00448 0.80112 0.0
C526 C 0.31748 0.02297 0.82048 0.0
C527 C 0.31514 0.01611 0.85212 0.0
C528 C 0.32591 0.99148 0.86479 0.0
C529 C 0.33761 0.97275 0.84532 0.0
C530 C 0.32847 0.84746 0.72062 0.0
C531 C 0.25988 0.85991 0.75678 0.0
O532 O 0.27734 0.77044 0.75527 0.0
O533 O 0.30025 0.76737 0.80426 0.0
O534 O 0.31439 0.86713 0.81817 0.0
O535 O 0.29645 0.82919 0.84232 0.0
O536 O 0.3712 0.87666 0.80368 0.0
O537 O 0.35144 0.82184 0.80533 0.0
O538 O 0.36209 0.93779 0.80393 0.0
O539 O 0.32729 0.94045 0.7653 0.0
O540 O 0.3208 0.84072 0.74697 0.0
O541 O 0.34005 0.87872 0.72395 0.0
O542 O 0.26207 0.83272 0.7686 0.0
O543 O 0.2824 0.88433 0.75798 0.0
H544 H 0.28237 0.68831 0.78164 0.0
H545 H 0.31137 0.65454 0.7636 0.0
H546 H 0.35435 0.73381 0.71958 0.0
H547 H 0.32561 0.76757 0.73766 0.0
H548 H 0.33008 0.00934 0.77628 0.0
H549 H 0.30912 0.04185 0.81036 0.0
H550 H 0.32415 0.9859 0.88915 0.0
H551 H 0.34453 0.95282 0.85507 0.0
Pr552 Pr 0.58468 0.10143 0.07441 0.0
Pr553 Pr 0.55828 0.11163 1.00152 0.0
C554 C 0.60314 0.11636 0.1397 0.0
C555 C 0.59811 0.14034 0.16374 0.0
C556 C 0.58931 0.13036 0.19192 0.0
C557 C 0.58047 0.15139 0.21242 0.0
C558 C 0.58033 0.18269 0.20502 0.0
C559 C 0.59029 0.1933 0.17768 0.0
C560 C 0.59895 0.17218 0.15705 0.0
C561 C 0.57802 0.04334 0.03185 0.0
C562 C 0.5145 0.08005 0.04765 0.0
C563 C 0.5398 0.10003 0.93619 0.0
C564 C 0.54932 0.08115 0.91207 0.0
C565 C 0.5405 0.08122 0.87833 0.0
C566 C 0.5527 0.06625 0.85612 0.0
C567 C 0.57385 0.05144 0.86772 0.0
C568 C 0.58185 0.05042 0.90136 0.0
C569 C 0.56957 0.0651 0.92339 0.0
C570 C 0.56523 0.16946 0.04508 0.0
C571 C 0.62852 0.12716 0.02553 0.0
O572 O 0.61813 0.12798 0.1189 0.0
O573 O 0.58132 0.09208 0.12602 0.0
O574 O 0.57209 0.06924 0.02395 0.0
O575 O 0.58878 0.04769 0.06322 0.0
O576 O 0.51739 0.0865 0.01806 0.0
O577 O 0.53605 0.08651 0.07307 0.0
O578 O 0.52704 0.08308 0.95611 0.0
O579 O 0.55854 0.12674 0.95129 0.0
O580 O 0.57097 0.14334 0.05211 0.0
O581 O 0.55387 0.16532 0.01396 0.0
O582 O 0.62546 0.12447 0.05596 0.0
O583 O 0.60634 0.12156 1.00108 0.0
H584 H 0.58832 0.10589 0.19741 0.0
H585 H 0.57292 0.14292 0.23354 0.0
H586 H 0.59039 0.21743 0.1717 0.0
H587 H 0.60543 0.18039 0.13534 0.0
H588 H 0.52502 0.09375 0.86933 0.0
H589 H 0.54661 0.06746 0.83014 0.0
H590 H 0.59848 0.03961 0.91059 0.0
H591 H 0.57669 0.06522 0.94946 0.0
Pr592 Pr 0.29506 0.33332 0.27748 0.0
Pr593 Pr 0.34982 0.38946 0.29709 0.0
C594 C 0.24312 0.29802 0.28003 0.0
C595 C 0.22028 0.30617 0.29441 0.0
C596 C 0.19204 0.28986 0.28087 0.0
C597 C 0.17062 0.29646 0.29538 0.0
C598 C 0.17698 0.31952 0.3238 0.0
C599 C 0.20518 0.3364 0.33685 0.0
C600 C 0.22654 0.32985 0.32231 0.0
C601 C 0.31489 0.35955 0.22386 0.0
C602 C 0.29203 0.40936 0.29187 0.0
C603 C 0.402 0.42448 0.29569 0.0
C604 C 0.42427 0.41664 0.27982 0.0
C605 C 0.45108 0.41916 0.29873 0.0
C606 C 0.47207 0.4117 0.28398 0.0
C607 C 0.46678 0.40167 0.24992 0.0
C608 C 0.4399 0.39872 0.23106 0.0
C609 C 0.41891 0.40603 0.24578 0.0
C610 C 0.32938 0.36302 0.35046 0.0
C611 C 0.35306 0.31422 0.27932 0.0
O612 O 0.26585 0.29787 0.30088 0.0
O613 O 0.2486 0.31114 0.25418 0.0
O614 O 0.3147 0.37515 0.25082 0.0
O615 O 0.30286 0.32857 0.22292 0.0
O616 O 0.31763 0.42027 0.28712 0.0
O617 O 0.28353 0.37969 0.29907 0.0
O618 O 0.3794 0.42716 0.27627 0.0
O619 O 0.39643 0.40954 0.3205 0.0
O620 O 0.33019 0.34751 0.32371 0.0
O621 O 0.34099 0.39409 0.35127 0.0
O622 O 0.32777 0.30255 0.28482 0.0
O623 O 0.36108 0.34428 0.27305 0.0
H624 H 0.18655 0.2716 0.25936 0.0
H625 H 0.14909 0.28307 0.28482 0.0
H626 H 0.21073 0.35422 0.35873 0.0
H627 H 0.24805 0.34294 0.33323 0.0
H628 H 0.45583 0.42696 0.32498 0.0
H629 H 0.49253 0.41398 0.29913 0.0
H630 H 0.43518 0.39087 0.20482 0.0
H631 H 0.39847 0.40336 0.23039 0.0
Pr632 Pr 0.56238 0.5864 0.00589 0.0
Pr633 Pr 0.57301 0.62117 0.06581 0.0
C634 C 0.54194 0.55583 0.94398 0.0
C635 C 0.54297 0.56281 0.91076 0.0
C636 C 0.56584 0.58576 0.90429 0.0
C637 C 0.5653 0.59358 0.87253 0.0
C638 C 0.54171 0.5788 0.84742 0.0
C639 C 0.51911 0.55566 0.85397 0.0
C640 C 0.51976 0.54768 0.88547 0.0
C641 C 0.61865 0.62466 0.02025 0.0
C642 C 0.55306 0.66139 0.00835 0.0
C643 C 0.59271 0.65007 0.12827 0.0
C644 C 0.59572 0.63638 0.15898 0.0
C645 C 0.58342 0.60312 0.15895 0.0
C646 C 0.59053 0.5884 0.18653 0.0
C647 C 0.60992 0.60696 0.21424 0.0
C648 C 0.621 0.64052 0.21486 0.0
C649 C 0.61399 0.65518 0.18725 0.0
C650 C 0.51698 0.58181 0.05037 0.0
C651 C 0.58202 0.54635 0.06419 0.0
O652 O 0.52842 0.57212 0.95961 0.0
O653 O 0.56508 0.5533 0.96224 0.0
O654 O 0.598 0.63458 0.02543 0.0
O655 O 0.61058 0.594 0.00863 0.0
O656 O 0.5692 0.66568 0.0378 0.0
O657 O 0.54333 0.63125 0.99266 0.0
O658 O 0.60881 0.64311 0.10923 0.0
O659 O 0.56709 0.64688 0.11249 0.0
O660 O 0.53818 0.57257 0.04644 0.0
O661 O 0.52411 0.61298 0.06005 0.0
O662 O 0.56642 0.54196 0.03439 0.0
O663 O 0.59082 0.57615 0.08059 0.0
H664 H 0.58382 0.59784 0.92379 0.0
H665 H 0.58288 0.6114 0.86764 0.0
H666 H 0.50082 0.54404 0.83467 0.0
H667 H 0.50193 0.53013 0.89025 0.0
H668 H 0.56941 0.58829 0.13708 0.0
H669 H 0.58199 0.56244 0.18575 0.0
H670 H 0.6361 0.655 0.23616 0.0
H671 H 0.62381 0.68075 0.18743 0.0
Pr672 Pr 0.80657 0.31599 0.29029 0.0
Pr673 Pr 0.83593 0.39055 0.28027 0.0
C674 C 0.78983 0.25102 0.27649 0.0
C675 C 0.80356 0.22904 0.26127 0.0
C676 C 0.80065 0.19753 0.26945 0.0
C677 C 0.81701 0.17844 0.25881 0.0
C678 C 0.83648 0.19078 0.24002 0.0
C679 C 0.83873 0.2219 0.23093 0.0
C680 C 0.82247 0.24098 0.24163 0.0
C681 C 0.81074 0.35921 0.34724 0.0
C682 C 0.8773 0.34553 0.31208 0.0
C683 C 0.85509 0.45537 0.29485 0.0
C684 C 0.84408 0.47719 0.31433 0.0
C685 C 0.85563 0.511 0.31938 0.0
C686 C 0.8429 0.53121 0.33569 0.0
C687 C 0.81854 0.51756 0.34676 0.0
C688 C 0.80768 0.48373 0.3426 0.0
C689 C 0.82048 0.46368 0.32669 0.0
C690 C 0.83068 0.34721 0.22262 0.0
C691 C 0.76446 0.36252 0.26411 0.0
O692 O 0.7798 0.26995 0.25742 0.0
O693 O 0.80357 0.26621 0.30567 0.0
O694 O 0.81818 0.36605 0.32087 0.0
O695 O 0.79942 0.32795 0.34418 0.0
O696 O 0.87559 0.37453 0.30469 0.0
O697 O 0.85505 0.31995 0.30643 0.0
O698 O 0.86629 0.43554 0.31139 0.0
O699 O 0.83816 0.44092 0.26688 0.0
O700 O 0.82387 0.34058 0.24938 0.0
O701 O 0.8423 0.37842 0.22597 0.0
O702 O 0.76657 0.33285 0.26867 0.0
O703 O 0.78724 0.38734 0.26826 0.0
H704 H 0.78646 0.18816 0.28495 0.0
H705 H 0.81511 0.15444 0.26602 0.0
H706 H 0.85371 0.23174 0.2165 0.0
H707 H 0.82537 0.2655 0.23552 0.0
H708 H 0.87385 0.52171 0.30992 0.0
H709 H 0.85123 0.55739 0.33839 0.0
H710 H 0.78854 0.47299 0.35025 0.0
H711 H 0.81136 0.43758 0.32282 0.0
Pr712 Pr 0.08016 0.60391 0.56494 0.0
Pr713 Pr 0.05639 0.61394 0.5012 0.0
C714 C 0.09249 0.60306 0.63015 0.0
C715 C 0.08051 0.61645 0.65604 0.0
C716 C 0.09823 0.63781 0.68339 0.0
C717 C 0.08697 0.65414 0.70566 0.0
C718 C 0.0579 0.6494 0.70063 0.0
C719 C 0.04018 0.62774 0.67369 0.0
C720 C 0.05135 0.61132 0.65162 0.0
C721 C 0.0779 0.55054 0.51792 0.0
C722 C 1.01106 0.58494 0.54304 0.0
C723 C 0.04149 0.61192 0.43581 0.0
C724 C 0.05087 0.5958 0.40925 0.0
C725 C 0.03117 0.57332 0.38413 0.0
C726 C 0.04008 0.55478 0.36118 0.0
C727 C 0.06876 0.55876 0.36323 0.0
C728 C 0.0884 0.58134 0.38808 0.0
C729 C 0.07957 0.59963 0.41101 0.0
C730 C 0.05977 0.66849 0.54697 0.0
C731 C 0.1258 0.63696 0.52498 0.0
O732 O 0.10715 0.62468 0.61571 0.0
O733 O 0.07594 0.57821 0.60947 0.0
O734 O 0.05874 0.56467 0.51882 0.0
O735 O 0.09912 0.56389 0.5421 0.0
O736 O 0.01455 0.58516 0.51284 0.0
O737 O 0.03268 0.59698 0.56777 0.0
O738 O 0.02713 0.59213 0.45213 0.0
O739 O 0.05982 0.63673 0.45484 0.0
O740 O 0.0783 0.65325 0.54685 0.0
O741 O 0.03828 0.6551 0.52313 0.0
O742 O 0.12164 0.63545 0.55488 0.0
O743 O 0.10473 0.62442 0.49951 0.0
H744 H 0.12075 0.64245 0.68705 0.0
H745 H 0.10086 0.67063 0.7266 0.0
H746 H 0.01767 0.6236 0.66974 0.0
H747 H 0.03711 0.59516 0.63074 0.0
H748 H 1.00894 0.56965 0.38271 0.0
H749 H 0.02476 0.53758 0.34187 0.0
H750 H 0.11064 0.58469 0.38979 0.0
H751 H 0.09526 0.61626 0.43043 0.0
Pr752 Pr 0.78894 0.862 0.27352 0.0
Pr753 Pr 0.84902 0.85612 0.28703 0.0
C754 C 0.73526 0.86267 0.27214 0.0
C755 C 0.71364 0.85894 0.29189 0.0
C756 C 0.68576 0.85552 0.27621 0.0
C757 C 0.6649 0.85297 0.29439 0.0
C758 C 0.67151 0.85329 0.32853 0.0
C759 C 0.69942 0.85645 0.34425 0.0
C760 C 0.72041 0.85972 0.32611 0.0
C761 C 0.82565 0.90999 0.24962 0.0
C762 C 0.82942 0.88712 0.34992 0.0
C763 C 0.9033 0.85917 0.28728 0.0
C764 C 0.92406 0.86006 0.26614 0.0
C765 C 0.93506 0.83323 0.26162 0.0
C766 C 0.95615 0.83441 0.24391 0.0
C767 C 0.96688 0.86253 0.2305 0.0
C768 C 0.95588 0.88935 0.23474 0.0
C769 C 0.93467 0.88815 0.25237 0.0
C770 C 0.81149 0.8071 0.30934 0.0
C771 C 0.80912 0.82887 0.21123 0.0
O772 O 0.7423 0.83656 0.26238 0.0
O773 O 0.75654 0.88856 0.28092 0.0
O774 O 0.83141 0.8996 0.27678 0.0
O775 O 0.79943 0.89779 0.23584 0.0
O776 O 0.85157 0.88633 0.33768 0.0
O777 O 0.80381 0.87596 0.33147 0.0
O778 O 0.89407 0.88487 0.29182 0.0
O779 O 0.8841 0.8318 0.28544 0.0
O780 O 0.80609 0.81765 0.28221 0.0
O781 O 0.83731 0.82043 0.32451 0.0
O782 O 0.78717 0.83269 0.22257 0.0
O783 O 0.83449 0.83756 0.23023 0.0
H784 H 0.68016 0.85514 0.24988 0.0
H785 H 0.64355 0.85065 0.28184 0.0
H786 H 0.70496 0.85691 0.37059 0.0
H787 H 0.74188 0.86292 0.33876 0.0
H788 H 0.92762 0.81143 0.27225 0.0
H789 H 0.96435 0.81347 0.24094 0.0
H790 H 0.96388 0.9113 0.22462 0.0
H791 H 0.92691 0.9094 0.25557 0.0
Pr792 Pr 0.82412 0.38892 0.80246 0.0
Pr793 Pr 0.82046 0.33137 0.76708 0.0
C794 C 0.83143 0.44439 0.84224 0.0
C795 C 0.82842 0.47626 0.83493 0.0
C796 C 0.84955 0.50405 0.85058 0.0
C797 C 0.85213 0.53303 0.8373 0.0
C798 C 0.83357 0.53439 0.80833 0.0
C799 C 0.81061 0.50768 0.79464 0.0
C800 C 0.80814 0.47856 0.8078 0.0
C801 C 0.77368 0.37189 0.75467 0.0
C802 C 0.83721 0.39367 0.7291 0.0
C803 C 0.81052 0.27237 0.73175 0.0
C804 C 0.78739 0.24311 0.72412 0.0
C805 C 0.78961 0.21554 0.70534 0.0
C806 C 0.76901 0.18624 0.70161 0.0
C807 C 0.74633 0.18459 0.71685 0.0
C808 C 0.7434 0.21259 0.73421 0.0
C809 C 0.76389 0.24188 0.73776 0.0
C810 C 0.87639 0.35913 0.80165 0.0
C811 C 0.80646 0.32477 0.84035 0.0
O812 O 0.85197 0.43612 0.83187 0.0
O813 O 0.8084 0.42065 0.83646 0.0
O814 O 0.7823 0.35185 0.77192 0.0
O815 O 0.79155 0.40016 0.7611 0.0
O816 O 0.82231 0.36322 0.72448 0.0
O817 O 0.84595 0.40895 0.75962 0.0
O818 O 0.80561 0.29749 0.71888 0.0
O819 O 0.82347 0.27956 0.76253 0.0
O820 O 0.85487 0.35723 0.81323 0.0
O821 O 0.86922 0.35033 0.7702 0.0
O822 O 0.81439 0.35677 0.84397 0.0
O823 O 0.8042 0.30802 0.81149 0.0
H824 H 0.86542 0.50263 0.87135 0.0
H825 H 0.8699 0.55366 0.84814 0.0
H826 H 0.79613 0.50856 0.77231 0.0
H827 H 0.7917 0.45731 0.79524 0.0
H828 H 0.80774 0.21638 0.69476 0.0
H829 H 0.77142 0.16456 0.68836 0.0
H830 H 0.72599 0.21136 0.74619 0.0
H831 H 0.76206 0.26319 0.7523 0.0
Pr832 Pr 0.78399 0.82693 0.76869 0.0
Pr833 Pr 0.84606 0.88514 0.79758 0.0
C834 C 0.73198 0.79538 0.77419 0.0
C835 C 0.71052 0.80353 0.79147 0.0
C836 C 0.68352 0.80183 0.77353 0.0
C837 C 0.66307 0.80919 0.78934 0.0
C838 C 0.66907 0.81844 0.82356 0.0
C839 C 0.69607 0.8204 0.84155 0.0
C840 C 0.71656 0.81313 0.82574 0.0
C841 C 0.80853 0.85421 0.71807 0.0
C842 C 0.78769 0.90818 0.78597 0.0
C843 C 0.89757 0.91982 0.79398 0.0
C844 C 0.91902 0.91359 0.7761 0.0
C845 C 0.94765 0.92657 0.79037 0.0
C846 C 0.96813 0.92027 0.77411 0.0
C847 C 0.9604 0.90077 0.74324 0.0
C848 C 0.93177 0.88766 0.72898 0.0
C849 C 0.91127 0.89393 0.74526 0.0
C850 C 0.82206 0.85733 0.84857 0.0
C851 C 0.84266 0.8047 0.77595 0.0
O852 O 0.75484 0.79147 0.79228 0.0
O853 O 0.73677 0.81053 0.74912 0.0
O854 O 0.81659 0.86138 0.74893 0.0
O855 O 0.78583 0.82979 0.71195 0.0
O856 O 0.81544 0.9186 0.79434 0.0
O857 O 0.77401 0.87694 0.77795 0.0
O858 O 0.87447 0.92357 0.77627 0.0
O859 O 0.89306 0.90241 0.81761 0.0
O860 O 0.81317 0.85099 0.81773 0.0
O861 O 0.84511 0.88112 0.85429 0.0
O862 O 0.81488 0.79379 0.77021 0.0
O863 O 0.8565 0.83596 0.78336 0.0
H864 H 0.67817 0.79463 0.74716 0.0
H865 H 0.64244 0.8074 0.77489 0.0
H866 H 0.70127 0.82743 0.86793 0.0
H867 H 0.73711 0.81499 0.84045 0.0
H868 H 0.95418 0.9416 0.81417 0.0
H869 H 0.99005 0.93072 0.78555 0.0
H870 H 0.92528 0.87267 0.70516 0.0
H871 H 0.88937 0.88335 0.73376 0.0
Pr872 Pr 0.53806 0.58714 0.50818 0.0
Pr873 Pr 0.60214 0.62467 0.54392 0.0
C874 C 0.4818 0.57531 0.49534 0.0
C875 C 0.46152 0.5953 0.49727 0.0
C876 C 0.45626 0.61586 0.47375 0.0
C877 C 0.43749 0.63486 0.47632 0.0
C878 C 0.42347 0.63372 0.50239 0.0
C879 C 0.4286 0.6132 0.52584 0.0
C880 C 0.44732 0.59418 0.52327 0.0
C881 C 0.57774 0.59316 0.46945 0.0
C882 C 0.56196 0.66954 0.51171 0.0
C883 C 0.65851 0.63765 0.55447 0.0
C884 C 0.67945 0.6184 0.55545 0.0
C885 C 0.70607 0.63013 0.57641 0.0
C886 C 0.7264 0.61288 0.57605 0.0
C887 C 0.72048 0.58352 0.55474 0.0
C888 C 0.69382 0.57168 0.53391 0.0
C889 C 0.67357 0.58896 0.53422 0.0
C890 C 0.562 0.62299 0.58112 0.0
C891 C 0.57668 0.54148 0.54281 0.0
O892 O 0.4965 0.57157 0.52333 0.0
O893 O 0.49633 0.57903 0.47237 0.0
O894 O 0.57651 0.6137 0.49196 0.0
O895 O 0.55565 0.56807 0.46332 0.0
O896 O 0.58836 0.66832 0.52089 0.0
O897 O 0.54076 0.64382 0.51132 0.0
O898 O 0.64224 0.63588 0.52569 0.0
O899 O 0.64524 0.63768 0.57862 0.0
O900 O 0.56325 0.60033 0.56063 0.0
O901 O 0.58425 0.6479 0.58604 0.0
O902 O 0.55131 0.54155 0.52676 0.0
O903 O 0.59799 0.56838 0.54923 0.0
H904 H 0.46673 0.61742 0.45338 0.0
H905 H 0.43399 0.65062 0.45803 0.0
H906 H 0.41816 0.612 0.54624 0.0
H907 H 0.4508 0.57867 0.54181 0.0
H908 H 0.71125 0.65283 0.59282 0.0
H909 H 0.74679 0.62243 0.59239 0.0
H910 H 0.68872 0.54912 0.51731 0.0
H911 H 0.65338 0.5795 0.51757 0.0
Pr912 Pr 0.0996 0.61357 0.02171 0.0
Pr913 Pr 0.03918 0.60472 0.03392 0.0
C914 C 0.15474 0.61901 0.02556 0.0
C915 C 0.17505 0.5989 0.02964 0.0
C916 C 0.19458 0.60122 0.00946 0.0
C917 C 0.21427 0.58297 0.01304 0.0
C918 C 0.21489 0.56199 0.03696 0.0
C919 C 0.19535 0.55955 0.05719 0.0
C920 C 0.17559 0.57779 0.05357 0.0
C921 C 0.06161 0.6287 0.97153 0.0
C922 C 0.05564 0.54091 0.99741 0.0
C923 C 0.98373 0.59905 0.02759 0.0
C924 C 0.96387 0.6198 0.02567 0.0
C925 C 0.94431 0.61621 0.04569 0.0
C926 C 0.92569 0.63581 0.04473 0.0
C927 C 0.92689 0.66129 0.02509 0.0
C928 C 0.9443 0.66149 1.00203 0.0
C929 C 0.96306 0.64201 1.00305 0.0
C930 C 0.07691 0.58967 0.08468 0.0
C931 C 0.08312 0.67821 0.05759 0.0
O932 O 0.14435 0.62597 0.05088 0.0
O933 O 0.13636 0.61299 0.99765 0.0
O934 O 0.0637 0.63568 1.00184 0.0
O935 O 0.08096 0.61512 0.96589 0.0
O936 O 0.03524 0.55458 1.00095 0.0
O937 O 0.0822 0.55721 0.00784 0.0
O938 O 0.99549 0.59563 1.0026 0.0
O939 O 1.0008 0.60137 0.05594 0.0
O940 O 0.07528 0.5828 0.05438 0.0
O941 O 0.05676 0.60217 0.08965 0.0
O942 O 0.10335 0.66534 0.05127 0.0
O943 O 0.05674 0.66075 0.05149 0.0
H944 H 0.19467 0.6173 0.99089 0.0
H945 H 0.22908 0.58524 0.99715 0.0
H946 H 0.19538 0.54348 0.07575 0.0
H947 H 0.1608 0.57539 0.06949 0.0
H948 H 0.94317 0.59785 0.06198 0.0
H949 H 0.91006 0.63011 0.05927 0.0
H950 H 0.94343 0.67585 0.98222 0.0
H951 H 0.97668 0.6441 0.98573 0.0
C952 C 0.0308 0.24003 0.98736 0.0
C953 C 0.05283 0.26324 0.97886 0.0
C954 C 0.08319 0.22615 0.98948 0.0
C955 C 0.06229 0.20454 1.00177 0.0
N956 N 0.01712 0.19452 0.01674 0.0
N957 N 0.10137 0.27983 0.97537 0.0
C958 C 0.03627 0.21238 1.00165 0.0
C959 C 0.07945 0.25678 0.9813 0.0
N960 N 1.00448 0.24436 0.98189 0.0
N961 N 0.10585 0.21664 0.98313 0.0
H962 H 0.0992 0.30107 0.96618 0.0
H963 H 0.12208 0.27879 0.98145 0.0
H964 H 0.10893 0.19389 0.98631 0.0
H965 H 0.12015 0.22983 0.97104 0.0
H966 H 0.98676 0.22647 0.98352 0.0
H967 H 0.99993 0.26492 0.97317 0.0
H968 H 0.99947 0.20122 0.02094 0.0
H969 H 0.01996 0.17458 0.02799 0.0
C970 C 0.19434 0.87649 0.22884 0.0
C971 C 0.19239 0.87309 0.1943 0.0
C972 C 0.22988 0.84469 0.20171 0.0
C973 C 0.2342 0.85207 0.23634 0.0
N974 N 0.21063 0.85861 0.28048 0.0
N975 N 0.20845 0.85337 0.14749 0.0
C976 C 0.21353 0.86321 0.24934 0.0
C977 C 0.21012 0.85684 0.18064 0.0
N978 N 0.17897 0.89401 0.24248 0.0
N979 N 0.24295 0.82365 0.18904 0.0
H980 H 0.19327 0.85969 0.13085 0.0
H981 H 0.22302 0.84575 0.1364 0.0
H982 H 0.25506 0.8118 0.20391 0.0
H983 H 0.2392 0.81474 0.16421 0.0
H984 H 0.18198 0.90072 0.2677 0.0
H985 H 0.16497 0.90449 0.22862 0.0
H986 H 0.19456 0.86381 0.29052 0.0
H987 H 0.22147 0.84486 0.29438 0.0
C988 C 0.55623 0.96065 0.4348 0.0
C989 C 0.53941 0.93443 0.44687 0.0
C990 C 0.53437 0.97363 0.49048 0.0
C991 C 0.54841 1.00007 0.47613 0.0
N992 N 0.56871 0.01844 0.43111 0.0
N993 N 0.50797 0.91691 0.4826 0.0
C994 C 0.55829 0.99345 0.44735 0.0
C995 C 0.5273 0.94115 0.47379 0.0
N996 N 0.57107 0.95428 0.41202 0.0
N997 N 0.52887 0.9792 0.52083 0.0
H998 H 0.50182 0.89295 0.47084 0.0
H999 H 0.4961 0.9212 0.49953 0.0
H1000 H 0.53429 1.00231 0.53418 0.0
H1001 H 0.52159 0.96064 0.53409 0.0
H1002 H 0.58613 0.97219 0.40509 0.0
H1003 H 0.57034 0.93076 0.40229 0.0
H1004 H 0.57326 0.01487 0.40802 0.0
H1005 H 0.57037 0.04273 0.4392 0.0
C1006 C 0.50919 0.36512 0.66391 0.0
C1007 C 0.53619 0.36361 0.68003 0.0
C1008 C 0.52237 0.36905 0.73314 0.0
C1009 C 0.49442 0.36608 0.71657 0.0
N1010 N 0.46021 0.35642 0.6656 0.0
N1011 N 0.567 0.35891 0.72992 0.0
C1012 C 0.48756 0.36289 0.68177 0.0
C1013 C 0.54249 0.36441 0.7147 0.0
N1014 N 0.50441 0.36987 0.63171 0.0
N1015 N 0.52988 0.37701 0.76654 0.0
H1016 H 0.58201 0.35453 0.7174 0.0
H1017 H 0.5713 0.35562 0.75452 0.0
H1018 H 0.51579 0.38077 0.78083 0.0
H1019 H 0.55054 0.38289 0.77969 0.0
H1020 H 0.48613 0.37468 0.6197 0.0
H1021 H 0.51976 0.37232 0.61789 0.0
H1022 H 0.45363 0.35017 0.64021 0.0
H1023 H 0.44371 0.35445 0.67768 0.0
C1024 C 0.07837 0.96252 0.58097 0.0
C1025 C 0.10223 0.96558 0.60653 0.0
C1026 C 0.11579 0.025 0.60396 0.0
C1027 C 0.09061 0.02237 0.58057 0.0
N1028 N 0.0442 0.98851 0.55477 0.0
N1029 N 0.13875 1.00223 0.64873 0.0
C1030 C 0.07083 0.99108 0.57139 0.0
C1031 C 0.11948 0.99758 0.61988 0.0
N1032 N 0.06341 0.93248 0.56456 0.0
N1033 N 0.13701 0.0531 0.61004 0.0
H1034 H 0.141 0.98343 0.66231 0.0
H1035 H 0.15002 0.02525 0.66113 0.0
H1036 H 0.13609 0.07312 0.59788 0.0
H1037 H 0.15674 0.05516 0.62445 0.0
H1038 H 0.04767 0.92918 0.54354 0.0
H1039 H 0.06857 0.91109 0.56975 0.0
H1040 H 0.02825 0.96687 0.55037 0.0
H1041 H 0.03711 0.00859 0.54889 0.0
C1042 C 0.43887 0.85439 0.87883 0.0
C1043 C 0.45189 0.83291 0.86374 0.0
C1044 C 0.41369 0.82168 0.81403 0.0
C1045 C 0.40138 0.84432 0.82853 0.0
N1046 N 0.40501 0.88622 0.87309 0.0
N1047 N 0.45464 0.80129 0.81452 0.0
C1048 C 0.41499 0.86209 0.86027 0.0
C1049 C 0.44002 0.81792 0.83067 0.0
N1050 N 0.44811 0.86579 0.91164 0.0
N1051 N 0.40025 0.80366 0.78416 0.0
H1052 H 0.47424 0.79886 0.82542 0.0
H1053 H 0.44877 0.79254 0.78952 0.0
H1054 H 0.38257 0.80775 0.76971 0.0
H1055 H 0.40578 0.78359 0.77435 0.0
H1056 H 0.43752 0.87813 0.92514 0.0
H1057 H 0.46507 0.86049 0.92629 0.0
H1058 H 0.41592 0.90277 0.89394 0.0
H1059 H 0.38661 0.89128 0.86189 0.0
C1060 C 0.55806 0.25205 0.08142 0.0
C1061 C 0.58616 0.26863 0.09743 0.0
C1062 C 0.60034 0.21873 0.08262 0.0
C1063 C 0.57218 0.20183 0.06717 0.0
N1064 N 0.52342 0.20035 0.05912 0.0
N1065 N 0.63204 0.26409 0.12141 0.0
C1066 C 0.55082 0.21794 0.06891 0.0
C1067 C 0.60661 0.25073 0.10055 0.0
N1068 N 0.53849 0.26918 0.07657 0.0
N1069 N 0.62152 0.20517 0.07865 0.0
H1070 H 0.63711 0.28698 0.13541 0.0
H1071 H 0.6468 0.25114 0.12748 0.0
H1072 H 0.61803 0.18211 0.06575 0.0
H1073 H 0.64263 0.2178 0.08589 0.0
H1074 H 0.51854 0.25959 0.06174 0.0
H1075 H 0.54282 0.29383 0.0855 0.0
H1076 H 0.50675 0.20953 0.06263 0.0
H1077 H 0.51749 0.17546 0.05046 0.0
C1078 C 0.12711 0.36023 0.36062 0.0
C1079 C 0.11352 0.33507 0.37673 0.0
C1080 C 0.14174 0.3002 0.35859 0.0
C1081 C 0.15438 0.32463 0.34108 0.0
N1082 N 0.1555 0.37563 0.32058 0.0
N1083 N 0.10291 0.2784 0.38384 0.0
C1084 C 0.14593 0.35399 0.34064 0.0
C1085 C 0.11938 0.30426 0.37352 0.0
N1086 N 0.12302 0.39052 0.36556 0.0
N1087 N 0.15189 0.27364 0.36227 0.0
H1088 H 0.08589 0.28013 0.39404 0.0
H1089 H 0.10421 0.25459 0.37916 0.0
H1090 H 0.1683 0.26973 0.35202 0.0
H1091 H 0.14577 0.25697 0.37792 0.0
H1092 H 0.13458 0.41089 0.35765 0.0
H1093 H 0.10927 0.39585 0.37962 0.0
H1094 H 0.14807 0.39586 0.31642 0.0
H1095 H 0.16931 0.3719 0.30589 0.0
C1096 C 1.00362 0.07717 0.1154 0.0
C1097 C 0.98849 0.10066 0.11896 0.0
C1098 C 0.02394 0.14035 0.09882 0.0
C1099 C 0.03984 0.11728 0.09793 0.0
N1100 N 0.04925 0.06869 0.11622 0.0
N1101 N 0.98152 0.15291 0.10966 0.0
C1102 C 0.03088 0.0871 0.10924 0.0
C1103 C 0.99803 0.13193 0.10948 0.0
N1104 N 0.99187 0.04509 0.11663 0.0
N1105 N 0.03383 0.17025 0.08989 0.0
H1106 H 0.96145 0.14599 0.11435 0.0
H1107 H 0.98673 0.17648 0.10404 0.0
H1108 H 0.05264 0.17703 0.08223 0.0
H1109 H 0.02398 0.18885 0.09032 0.0
H1110 H 1.00155 0.02692 0.11165 0.0
H1111 H 0.97117 0.03583 0.1182 0.0
H1112 H 0.04499 0.04844 0.12842 0.0
H1113 H 0.06986 0.07577 0.11325 0.0
C1114 C 0.27833 0.79306 0.41612 0.0
C1115 C 0.29519 0.77182 0.42549 0.0
C1116 C 0.31768 0.78319 0.3785 0.0
C1117 C 0.29891 0.8018 0.36725 0.0
N1118 N 0.25948 0.82197 0.37362 0.0
N1119 N 0.3295 0.7445 0.41393 0.0
C1120 C 0.27886 0.80626 0.38579 0.0
C1121 C 0.31437 0.76624 0.40608 0.0
N1122 N 0.26175 0.80061 0.43628 0.0
N1123 N 0.3398 0.78319 0.36399 0.0
H1124 H 0.3297 0.73379 0.43536 0.0
H1125 H 0.34072 0.73575 0.3984 0.0
H1126 H 0.34333 0.79557 0.34422 0.0
H1127 H 0.3561 0.7734 0.37324 0.0
H1128 H 0.25113 0.81845 0.43298 0.0
H1129 H 0.26015 0.79062 0.45788 0.0
H1130 H 0.24242 0.82326 0.38378 0.0
H1131 H 0.25919 0.8317 0.35162 0.0
C1132 C 0.58466 0.03626 0.65516 0.0
C1133 C 0.59865 0.01272 0.64601 0.0
C1134 C 0.59948 0.0339 0.59349 0.0
C1135 C 0.58162 0.0533 0.60039 0.0
N1136 N 0.55517 0.07107 0.63717 0.0
N1137 N 0.61514 0.9859 0.60362 0.0
C1138 C 0.57353 0.0538 0.63101 0.0
C1139 C 0.60495 0.01072 0.61437 0.0
N1140 N 0.58339 0.04357 0.68721 0.0
N1141 N 0.61183 0.0382 0.56739 0.0
H1142 H 0.61843 0.9677 0.61761 0.0
H1143 H 0.61748 0.9814 0.57958 0.0
H1144 H 0.61011 0.05701 0.55385 0.0
H1145 H 0.62654 0.02635 0.56216 0.0
H1146 H 0.5762 0.06293 0.69553 0.0
H1147 H 0.59226 0.03297 0.70638 0.0
H1148 H 0.54556 0.06885 0.65713 0.0
H1149 H 0.54834 0.08632 0.62131 0.0
C1150 C 0.35685 0.4136 0.94892 0.0
C1151 C 0.34214 0.43702 0.95528 0.0
C1152 C 0.3258 0.43483 0.89559 0.0
C1153 C 0.33818 0.40911 0.8893 0.0
N1154 N 0.36045 0.36937 0.91116 0.0
N1155 N 0.3072 0.464 0.93437 0.0
C1156 C 0.35233 0.39721 0.9163 0.0
C1157 C 0.32503 0.44588 0.92848 0.0
N1158 N 0.37615 0.40789 0.97364 0.0
N1159 N 0.31589 0.44989 0.87033 0.0
H1160 H 0.3053 0.4717 0.95797 0.0
H1161 H 0.29217 0.46835 0.91587 0.0
H1162 H 0.31702 0.44357 0.84609 0.0
H1163 H 0.3093 0.47091 0.87392 0.0
H1164 H 0.38987 0.39408 0.96962 0.0
H1165 H 0.38025 0.41923 0.99775 0.0
H1166 H 0.36796 0.35758 0.93017 0.0
H1167 H 0.35711 0.35621 0.88799 0.0
C1168 C 1.00277 0.03294 0.25625 0.0
C1169 C 1.0053 0.06186 0.24165 0.0
C1170 C 0.03997 0.09266 0.29014 0.0
C1171 C 0.0333 0.06534 0.30673 0.0
N1172 N 1.00756 0.00965 0.3068 0.0
N1173 N 0.02711 0.11878 0.24268 0.0
C1174 C 0.01498 0.03526 0.28996 0.0
C1175 C 0.02447 0.09156 0.25788 0.0
N1176 N 0.98818 1.00344 0.2382 0.0
N1177 N 0.06101 0.11948 0.30545 0.0
H1178 H 0.01732 0.11809 0.21825 0.0
H1179 H 0.03817 0.1421 0.25437 0.0
H1180 H 0.07262 0.12061 0.32914 0.0
H1181 H 0.06849 0.1394 0.29398 0.0
H1182 H 0.98825 0.98128 0.24661 0.0
H1183 H 0.97787 1.00068 0.21373 0.0
H1184 H 0.99145 0.98871 0.29695 0.0
H1185 H 0.01611 0.01003 0.33154 0.0
C1186 C 0.29041 0.78553 0.64245 0.0
C1187 C 0.30985 0.79305 0.62186 0.0
C1188 C 0.34398 0.8277 0.66989 0.0
C1189 C 0.32276 0.82503 0.68846 0.0
N1190 N 0.27387 0.80417 0.68915 0.0
N1191 N 0.35519 0.82367 0.61593 0.0
C1192 C 0.29556 0.80431 0.67405 0.0
C1193 C 0.33682 0.8145 0.63568 0.0
N1194 N 0.26707 0.75986 0.63208 0.0
N1195 N 0.37123 0.84224 0.6852 0.0
H1196 H 0.35083 0.81469 0.591 0.0
H1197 H 0.37383 0.84207 0.62367 0.0
H1198 H 0.37726 0.85109 0.71025 0.0
H1199 H 0.388 0.84235 0.67399 0.0
H1200 H 0.25357 0.75117 0.64725 0.0
H1201 H 0.26299 0.74495 0.60963 0.0
H1202 H 0.25309 0.79269 0.67775 0.0
H1203 H 0.27619 0.81813 0.71158 0.0
C1204 C 0.62762 0.05399 0.8155 0.0
C1205 C 0.62354 0.02031 0.80515 0.0
C1206 C 0.58491 0.00685 0.83386 0.0
C1207 C 0.59021 0.04047 0.84539 0.0
N1208 N 0.6176 0.0962 0.849 0.0
N1209 N 0.60092 0.96421 0.80749 0.0
C1210 C 0.61186 0.06394 0.83682 0.0
C1211 C 0.60275 0.99654 0.81501 0.0
N1212 N 0.64626 0.07756 0.80513 0.0
N1213 N 0.56245 0.98505 0.84038 0.0
H1214 H 0.6137 0.95588 0.79379 0.0
H1215 H 0.58825 0.94568 0.81666 0.0
H1216 H 0.5493 0.99189 0.85451 0.0
H1217 H 0.55561 0.96064 0.8301 0.0
H1218 H 0.65839 0.07308 0.78859 0.0
H1219 H 0.65839 0.07308 0.78859 0.0
H1220 H 0.63352 0.11406 0.84325 0.0
H1221 H 0.60703 0.10507 0.86533 0.0
C1222 C 0.32677 0.42258 0.16396 0.0
C1223 C 0.34373 0.4106 0.14503 0.0
C1224 C 0.34223 0.36505 0.17795 0.0
C1225 C 0.32357 0.37575 0.19523 0.0
N1226 N 0.2928 0.41052 0.19815 0.0
N1227 N 0.36284 0.36653 0.1299 0.0
C1228 C 0.31438 0.40335 0.18635 0.0
C1229 C 0.3501 0.38072 0.15092 0.0
N1230 N 0.32344 0.45311 0.16183 0.0
N1231 N 0.35354 0.34082 0.18817 0.0
H1232 H 0.36835 0.37673 0.10957 0.0
H1233 H 0.36542 0.34319 0.13067 0.0
H1234 H 0.34816 0.32837 0.20728 0.0
H1235 H 0.36995 0.33485 0.17948 0.0
H1236 H 0.31411 0.46466 0.17775 0.0
H1237 H 0.33235 0.46825 0.14629 0.0
H1238 H 0.28327 0.42823 0.19011 0.0
H1239 H 0.28222 0.39628 0.21311 0.0
C1240 C 0.26243 0.0175 0.07104 0.0
C1241 C 0.27532 0.01603 0.04371 0.0
C1242 C 0.25388 0.05791 0.02224 0.0
C1243 C 0.23847 0.05642 0.04751 0.0
N1244 N 0.22448 0.03032 0.0927 0.0
N1245 N 0.28003 0.0315 0.99061 0.0
C1246 C 0.24178 0.03497 0.07103 0.0
C1247 C 0.27029 0.03548 0.01863 0.0
N1248 N 0.27074 1.00328 0.09775 0.0
N1249 N 0.25341 0.08132 1.00217 0.0
H1250 H 0.29185 0.01523 0.98689 0.0
H1251 H 0.27442 0.04226 0.96994 0.0
H1252 H 0.24157 0.09797 1.00393 0.0
H1253 H 0.26659 0.08606 0.98577 0.0
H1254 H 0.2642 0.00638 0.11971 0.0
H1255 H 0.28645 0.99124 0.0993 0.0
H1256 H 0.22377 0.01228 0.1079 0.0
H1257 H 0.20898 0.04241 0.0934 0.0
C1258 C 0.69631 0.67091 0.03136 0.0
C1259 C 0.69565 0.68867 1.00407 0.0
C1260 C 0.64437 0.66466 0.98756 0.0
C1261 C 0.64517 0.64656 0.01448 0.0
N1262 N 0.67252 0.62739 0.05801 0.0
N1263 N 0.66997 0.69638 0.95219 0.0
C1264 C 0.67137 0.64808 0.03503 0.0
C1265 C 0.66985 0.68389 0.98113 0.0
N1266 N 0.72038 0.677 0.0549 0.0
N1267 N 0.61917 0.66331 0.96783 0.0
H1268 H 0.68827 0.70938 0.94608 0.0
H1269 H 0.65258 0.69128 0.93283 0.0
H1270 H 0.60051 0.64721 0.96959 0.0
H1271 H 0.6165 0.67909 0.95072 0.0
H1272 H 0.72132 0.66841 0.07746 0.0
H1273 H 0.73924 0.69249 0.053 0.0
H1274 H 0.69115 0.62429 0.07108 0.0
H1275 H 0.65473 0.61137 0.06233 0.0
C1276 C 0.76687 0.56855 0.34588 0.0
C1277 C 0.76584 0.57256 0.3797 0.0
C1278 C 0.80222 0.54396 0.39255 0.0
C1279 C 0.80189 0.53832 0.35855 0.0
N1280 N 0.78106 0.5402 0.3022 0.0
N1281 N 0.78018 0.56203 0.43499 0.0
C1282 C 0.78363 0.54949 0.33505 0.0
C1283 C 0.78284 0.55961 0.40301 0.0
N1284 N 0.75161 0.58271 0.32391 0.0
N1285 N 0.82142 0.53478 0.41471 0.0
H1286 H 0.76707 0.57454 0.44366 0.0
H1287 H 0.7897 0.5503 0.45265 0.0
H1288 H 0.83567 0.52304 0.40765 0.0
H1289 H 0.82462 0.54053 0.44004 0.0
H1290 H 0.75479 0.58495 0.30026 0.0
H1291 H 0.73649 0.59368 0.32947 0.0
H1292 H 0.76545 0.54373 0.28393 0.0
H1293 H 0.79317 0.52658 0.29298 0.0
C1294 C 0.94596 0.51858 0.54852 0.0
C1295 C 0.92906 0.53744 0.55969 0.0
C1296 C 0.96735 0.58732 0.56358 0.0
C1297 C 0.98295 0.56874 0.5492 0.0
N1298 N 0.98583 0.51678 0.52462 0.0
N1299 N 0.92191 0.59034 0.57281 0.0
C1300 C 0.97176 0.53443 0.5405 0.0
C1301 C 0.93937 0.57199 0.56609 0.0
N1302 N 0.93819 0.48547 0.5474 0.0
N1303 N 0.97919 0.6197 0.57478 0.0
H1304 H 0.90114 0.58021 0.57392 0.0
H1305 H 0.92709 0.6156 0.57426 0.0
H1306 H 0.99892 0.63216 0.5718 0.0
H1307 H 0.97033 0.63371 0.58902 0.0
H1308 H 0.95104 0.47065 0.54305 0.0
H1309 H 0.92002 0.47293 0.55405 0.0
H1310 H 0.97715 0.4926 0.51388 0.0
H1311 H 1.00559 0.52676 0.52021 0.0
C1312 C 0.39116 0.24709 0.27908 0.0
C1313 C 0.41918 0.26569 0.29335 0.0
C1314 C 0.40206 0.31318 0.3042 0.0
C1315 C 0.37496 0.29626 0.28513 0.0
N1316 N 0.34525 0.24798 0.2496 0.0
N1317 N 0.45171 0.31866 0.31263 0.0
C1318 C 0.36986 0.26339 0.27121 0.0
C1319 C 0.42479 0.29941 0.30389 0.0
N1320 N 0.38448 0.21384 0.27445 0.0
N1321 N 0.40594 0.34162 0.32423 0.0
H1322 H 0.46904 0.30973 0.31174 0.0
H1323 H 0.45656 0.34399 0.31726 0.0
H1324 H 0.38939 0.35098 0.3278 0.0
H1325 H 0.42485 0.35344 0.34048 0.0
H1326 H 0.36393 0.19928 0.26696 0.0
H1327 H 0.39893 0.20075 0.28162 0.0
H1328 H 0.34171 0.22504 0.23627 0.0
H1329 H 0.32946 0.25933 0.24262 0.0
C1330 C 0.37925 0.21557 0.48984 0.0
C1331 C 0.35968 0.20927 0.51043 0.0
C1332 C 0.37932 0.16522 0.52943 0.0
C1333 C 0.40094 0.17422 0.5119 0.0
N1334 N 0.42362 0.21071 0.47855 0.0
N1335 N 0.34355 0.18097 0.55342 0.0
C1336 C 0.40143 0.2001 0.49286 0.0
C1337 C 0.36022 0.18467 0.53103 0.0
N1338 N 0.37608 0.23557 0.46654 0.0
N1339 N 0.37665 0.1376 0.54397 0.0
H1340 H 0.32944 0.19475 0.55563 0.0
H1341 H 0.34532 0.16614 0.57168 0.0
H1342 H 0.39029 0.12289 0.54351 0.0
H1343 H 0.35959 0.12773 0.554 0.0
H1344 H 0.38781 0.23854 0.44851 0.0
H1345 H 0.35983 0.2468 0.46316 0.0
H1346 H 0.42684 0.23178 0.46751 0.0
H1347 H 0.44015 0.19995 0.48003 0.0
C1348 C 0.79215 0.72376 0.33753 0.0
C1349 C 0.76393 0.72033 0.34003 0.0
C1350 C 0.76699 0.77457 0.32362 0.0
C1351 C 0.79424 0.77656 0.318 0.0
N1352 N 0.82978 0.74903 0.31215 0.0
N1353 N 0.72276 0.74005 0.32977 0.0
C1354 C 0.80601 0.75002 0.32291 0.0
C1355 C 0.75086 0.74511 0.33158 0.0
N1356 N 0.80609 0.70246 0.35012 0.0
N1357 N 0.75682 0.8012 0.32263 0.0
H1358 H 0.71023 0.71891 0.33541 0.0
H1359 H 0.71143 0.75559 0.32002 0.0
H1360 H 0.76779 0.82296 0.31658 0.0
H1361 H 0.73863 0.80241 0.3304 0.0
H1362 H 0.8275 0.7057 0.352 0.0
H1363 H 0.79696 0.68344 0.36187 0.0
H1364 H 0.83773 0.72877 0.31216 0.0
H1365 H 0.8398 0.76688 0.29976 0.0
C1366 C 0.85624 0.6214 0.79738 0.0
C1367 C 0.87629 0.61909 0.77838 0.0
C1368 C 0.85872 0.56011 0.76759 0.0
C1369 C 0.84138 0.56212 0.79037 0.0
N1370 N 0.81682 0.59276 0.81878 0.0
N1371 N 0.89081 0.58925 0.73679 0.0
C1372 C 0.83761 0.59232 0.8022 0.0
C1373 C 0.87528 0.58932 0.76022 0.0
N1374 N 0.8563 0.65123 0.81211 0.0
N1375 N 0.86098 0.53045 0.75524 0.0
H1376 H 0.90314 0.61075 0.73146 0.0
H1377 H 0.88969 0.56864 0.72087 0.0
H1378 H 0.84856 0.5085 0.75943 0.0
H1379 H 0.87569 0.52739 0.74171 0.0
H1380 H 0.84419 0.65474 0.82895 0.0
H1381 H 0.86911 0.67284 0.80762 0.0
H1382 H 0.81179 0.6138 0.82688 0.0
H1383 H 0.80309 0.57132 0.82223 0.0
C1384 C 0.11189 0.97321 0.0645 0.0
C1385 C 0.09089 0.95269 0.07727 0.0
C1386 C 0.06115 0.99042 0.06573 0.0
C1387 C 0.0811 0.00952 0.05014 0.0
N1388 N 0.12349 0.01488 0.02986 0.0
N1389 N 0.04448 0.94063 0.08814 0.0
C1390 C 0.10604 0.99985 0.04848 0.0
C1391 C 0.06519 0.96093 0.07703 0.0
N1392 N 0.13756 0.96727 0.06757 0.0
N1393 N 0.03909 1.00135 0.07188 0.0
H1394 H 0.04762 0.92141 0.1006 0.0
H1395 H 0.0238 0.9419 0.08375 0.0
H1396 H 0.0351 0.02273 0.06499 0.0
H1397 H 0.02593 0.99083 0.08665 0.0
H1398 H 0.15491 0.98338 0.06252 0.0
H1399 H 0.14218 0.94735 0.07769 0.0
H1400 H 0.14035 0.00703 0.02465 0.0
H1401 H 0.11947 0.03329 0.0167 0.0
C1402 C 0.9458 0.38157 0.86573 0.0
C1403 C 0.95089 0.35048 0.86823 0.0
C1404 C 0.91005 0.3261 0.82265 0.0
C1405 C 0.90333 0.3566 0.82245 0.0
N1406 N 0.91371 0.4129 0.84551 0.0
N1407 N 0.93555 0.29238 0.85217 0.0
C1408 C 0.92094 0.38415 0.84453 0.0
C1409 C 0.93257 0.3226 0.84724 0.0
N1410 N 0.96536 0.40894 0.88268 0.0
N1411 N 0.89488 0.30019 0.7995 0.0
H1412 H 0.95151 0.28869 0.86992 0.0
H1413 H 0.9209 0.27076 0.84072 0.0
H1414 H 0.87722 0.30054 0.78239 0.0
H1415 H 0.90097 0.27888 0.79563 0.0
H1416 H 0.9646 0.43251 0.87925 0.0
H1417 H 0.98382 0.4083 0.89827 0.0
H1418 H 0.92321 0.43263 0.86393 0.0
H1419 H 0.89708 0.41649 0.82867 0.0
C1420 C 0.58108 0.26076 0.56183 0.0
C1421 C 0.60114 0.2746 0.59127 0.0
C1422 C 0.60793 0.22042 0.59912 0.0
C1423 C 0.58765 0.20628 0.56956 0.0
N1424 N 0.55009 0.21267 0.527 0.0
N1425 N 0.62858 0.26705 0.64198 0.0
C1426 C 0.57259 0.22627 0.5524 0.0
C1427 C 0.61317 0.25424 0.61103 0.0
N1428 N 0.57111 0.28077 0.54184 0.0
N1429 N 0.62192 0.20145 0.61622 0.0
H1430 H 0.63183 0.2913 0.6518 0.0
H1431 H 0.63593 0.25328 0.6591 0.0
H1432 H 0.61642 0.17614 0.61097 0.0
H1433 H 0.63962 0.21082 0.63505 0.0
H1434 H 0.55951 0.27276 0.5179 0.0
H1435 H 0.57617 0.30597 0.5483 0.0
H1436 H 0.53604 0.22532 0.5172 0.0
H1437 H 0.54437 0.18847 0.51627 0.0
C1438 C 0.62485 0.87697 0.38346 0.0
C1439 C 0.60578 0.84624 0.38291 0.0
C1440 C 0.62951 0.82019 0.34643 0.0
C1441 C 0.64913 0.85075 0.34777 0.0
N1442 N 0.66727 0.90784 0.36922 0.0
N1443 N 0.5921 0.78793 0.3684 0.0
C1444 C 0.64732 0.87903 0.36685 0.0
C1445 C 0.60859 0.81767 0.36545 0.0
N1446 N 0.62082 0.90436 0.39901 0.0
N1447 N 0.63082 0.79357 0.32676 0.0
H1448 H 0.57657 0.78512 0.38204 0.0
H1449 H 0.59497 0.76581 0.35948 0.0
H1450 H 0.64695 0.7938 0.31438 0.0
H1451 H 0.61526 0.77161 0.32126 0.0
H1452 H 0.63166 0.92799 0.39733 0.0
H1453 H 0.60533 0.90363 0.41245 0.0
H1454 H 0.6694 0.92844 0.38569 0.0
H1455 H 0.68287 0.91094 0.35571 0.0
C1456 C 0.06233 0.25584 0.49067 0.0
C1457 C 0.03734 0.25283 0.46692 0.0
C1458 C 0.02389 0.19351 0.47045 0.0
C1459 C 0.04993 0.19616 0.49224 0.0
N1460 N 0.09704 0.22932 0.51411 0.0
N1461 N 0.99806 0.21644 0.428 0.0
C1462 C 0.06998 0.22724 0.49983 0.0
C1463 C 0.0192 0.22095 0.45506 0.0
N1464 N 0.07844 0.28597 0.50565 0.0
N1465 N 1.00299 0.16523 0.46526 0.0
H1466 H 0.99466 0.23532 0.41509 0.0
H1467 H 0.98597 0.1935 0.41619 0.0
H1468 H 1.00524 0.14487 0.47616 0.0
H1469 H 0.98262 0.16303 0.45264 0.0
H1470 H 0.09522 0.28942 0.52556 0.0
H1471 H 0.07344 0.30744 0.50047 0.0
H1472 H 0.11318 0.25069 0.5177 0.0
H1473 H 0.1038 0.20867 0.51815 0.0
C1474 C 0.70807 0.39713 0.21538 0.0
C1475 C 0.68522 0.36869 0.20595 0.0
C1476 C 0.71091 0.34075 0.24503 0.0
C1477 C 0.73553 0.36718 0.2502 0.0
N1478 N 0.75059 0.42584 0.25513 0.0
N1479 N 0.66488 0.31284 0.21153 0.0
C1480 C 0.73227 0.39706 0.23959 0.0
C1481 C 0.6866 0.34043 0.22092 0.0
N1482 N 0.70708 0.424 0.20039 0.0
N1483 N 0.70963 0.31768 0.26564 0.0
H1484 H 0.64613 0.31211 0.19557 0.0
H1485 H 0.6661 0.29022 0.218 0.0
H1486 H 0.72499 0.32019 0.28687 0.0
H1487 H 0.69168 0.2991 0.26487 0.0
H1488 H 0.72434 0.44402 0.2029 0.0
H1489 H 0.68942 0.42536 0.18364 0.0
H1490 H 0.74838 0.44855 0.25013 0.0
H1491 H 0.76519 0.4273 0.27676 0.0
C1492 C 0.57825 0.97374 0.9659 0.0
C1493 C 0.55872 0.9466 0.97347 0.0
C1494 C 0.55048 0.98354 0.0175 0.0
C1495 C 0.57051 0.01049 0.01043 0.0
N1496 N 0.60748 0.02957 0.98234 0.0
N1497 N 0.52881 0.92497 0.00926 0.0
C1498 C 0.58541 1.0051 0.98572 0.0
C1499 C 0.54576 0.95134 1.00026 0.0
N1500 N 0.59 0.96952 0.9395 0.0
N1501 N 0.53511 0.98898 0.04004 0.0
H1502 H 0.52386 0.90152 0.9965 0.0
H1503 H 0.52109 0.92564 0.03059 0.0
H1504 H 0.53788 0.01187 0.05311 0.0
H1505 H 0.51807 0.97165 0.0441 0.0
H1506 H 0.60171 0.98859 0.93 0.0
H1507 H 0.58713 0.94676 0.92609 0.0
H1508 H 0.62147 0.02651 0.96774 0.0
H1509 H 0.61304 0.05271 0.99598 0.0
C1510 C 1.00826 0.85839 0.70487 0.0
C1511 C 0.02326 0.88402 0.69043 0.0
C1512 C 0.99628 0.91994 0.70944 0.0
C1513 C 0.98234 0.89498 0.72541 0.0
N1514 N 0.97805 0.84219 0.74289 0.0
N1515 N 0.03591 0.94112 0.68518 0.0
C1516 C 0.98925 0.86469 0.72448 0.0
C1517 C 0.01849 0.91535 0.69454 0.0
N1518 N 1.01124 0.8277 0.69868 0.0
N1519 N 0.98763 0.94769 0.70747 0.0
H1520 H 0.05276 0.93892 0.67486 0.0
H1521 H 0.03546 0.96517 0.69058 0.0
H1522 H 0.97162 0.95212 0.71819 0.0
H1523 H 0.99466 0.9651 0.69291 0.0
H1524 H 0.99866 0.80718 0.70525 0.0
H1525 H 0.02511 0.82229 0.68485 0.0
H1526 H 0.98437 0.8211 0.74615 0.0
H1527 H 0.96384 0.84578 0.75706 0.0
C1528 C 0.13142 0.14498 0.9247 0.0
C1529 C 0.14888 0.1245 0.91952 0.0
C1530 C 0.1195 0.0816 0.94323 0.0
C1531 C 0.10171 0.10194 0.94726 0.0
N1532 N 0.08571 0.14817 0.93219 0.0
N1533 N 0.15668 0.07095 0.91831 0.0
C1534 C 0.10621 0.13223 0.93513 0.0
C1535 C 0.14222 0.09213 0.92736 0.0
N1536 N 0.13942 0.17707 0.92078 0.0
N1537 N 0.11495 0.05248 0.95507 0.0
H1538 H 0.17344 0.07753 0.9069 0.0
H1539 H 0.15088 0.04616 0.91987 0.0
H1540 H 0.09754 0.04323 0.9648 0.0
H1541 H 0.12905 0.03828 0.95685 0.0
H1542 H 0.12873 0.19384 0.92689 0.0
H1543 H 0.15832 0.18772 0.91448 0.0
H1544 H 0.08652 0.1687 0.92041 0.0
H1545 H 0.06649 0.13883 0.93836 0.0
C1546 C 0.87267 0.44519 0.66916 0.0
C1547 C 0.85211 0.43409 0.6392 0.0
C1548 C 0.8202 0.40399 0.67079 0.0
C1549 C 0.84228 0.41022 0.69932 0.0
N1550 N 0.89158 0.43332 0.72297 0.0
N1551 N 0.80766 0.39702 0.61143 0.0
C1552 C 0.86907 0.43006 0.69786 0.0
C1553 C 0.8262 0.41195 0.64002 0.0
N1554 N 0.89522 0.4711 0.67077 0.0
N1555 N 0.79311 0.39162 0.67315 0.0
H1556 H 0.81153 0.40069 0.58828 0.0
H1557 H 0.78982 0.37824 0.6107 0.0
H1558 H 0.78753 0.38759 0.69541 0.0
H1559 H 0.77605 0.38936 0.65388 0.0
H1560 H 0.90936 0.48216 0.69269 0.0
H1561 H 0.89798 0.4839 0.65106 0.0
H1562 H 0.91204 0.44469 0.72156 0.0
H1563 H 0.89033 0.42192 0.7438 0.0
C1564 C 0.54814 0.19903 0.42648 0.0
C1565 C 0.52982 0.17873 0.3984 0.0
C1566 C 0.53749 0.13008 0.42209 0.0
C1567 C 0.55653 0.15024 0.45007 0.0
N1568 N 0.58296 0.2048 0.47642 0.0
N1569 N 0.50554 0.12378 0.37094 0.0
C1570 C 0.56257 0.18495 0.45161 0.0
C1571 C 0.524 0.14428 0.39677 0.0
N1572 N 0.5515 0.23194 0.42949 0.0
N1573 N 0.53317 0.097 0.41807 0.0
H1574 H 0.49405 0.13123 0.35111 0.0
H1575 H 0.49405 0.13123 0.35111 0.0
H1576 H 0.54475 0.08478 0.43298 0.0
H1577 H 0.51892 0.08157 0.39818 0.0
H1578 H 0.56109 0.24774 0.45122 0.0
H1579 H 0.54301 0.2435 0.41087 0.0
H1580 H 0.59176 0.22939 0.4759 0.0
H1581 H 0.59195 0.19696 0.49751 0.0
C1582 C 0.80986 0.81659 0.11935 0.0
C1583 C 0.79088 0.78527 0.10882 0.0
C1584 C 0.78554 0.78152 0.16585 0.0
C1585 C 0.80486 0.81272 0.17652 0.0
N1586 N 0.84283 0.8538 0.16433 0.0
N1587 N 0.76901 0.73387 0.1243 0.0
C1588 C 0.81947 0.82828 0.15367 0.0
C1589 C 0.78103 0.76658 0.13274 0.0
N1590 N 0.81764 0.83611 0.09676 0.0
N1591 N 0.77199 0.76553 0.18748 0.0
H1592 H 0.76784 0.72169 0.1012 0.0
H1593 H 0.76356 0.71824 0.1411 0.0
H1594 H 0.77708 0.77334 0.21271 0.0
H1595 H 0.75492 0.74505 0.18012 0.0
H1596 H 0.82883 0.86054 0.10317 0.0
H1597 H 0.81078 0.8289 0.0715 0.0
H1598 H 0.85582 0.86332 0.14892 0.0
H1599 H 0.85074 0.86385 0.18883 0.0
C1600 C 0.13311 0.08517 0.79777 0.0
C1601 C 0.16082 0.08419 0.79691 0.0
C1602 C 0.15194 0.0859 0.73811 0.0
C1603 C 0.12626 0.09305 0.73997 0.0
N1604 N 0.09036 0.09629 0.76965 0.0
N1605 N 0.19512 0.07721 0.76596 0.0
C1606 C 0.11588 0.09093 0.76912 0.0
C1607 C 0.16951 0.08201 0.7669 0.0
N1608 N 0.12373 0.08119 0.82611 0.0
N1609 N 0.16084 0.08424 0.70941 0.0
H1610 H 0.20844 0.07349 0.7867 0.0
H1611 H 0.2025 0.07616 0.7443 0.0
H1612 H 0.14917 0.08664 0.68683 0.0
H1613 H 0.14917 0.08664 0.68683 0.0
H1614 H 0.10333 0.07994 0.8283 0.0
H1615 H 0.13609 0.07669 0.84716 0.0
H1616 H 0.0825 0.09843 0.79074 0.0
H1617 H 0.07707 0.09938 0.74857 0.0
C1618 C 0.84249 0.39822 0.4373 0.0
C1619 C 0.82724 0.42164 0.44125 0.0
C1620 C 0.80027 0.40327 0.38386 0.0
C1621 C 0.81708 0.38181 0.3791 0.0
N1622 N 0.85481 0.35925 0.40059 0.0
N1623 N 0.79205 0.44735 0.41831 0.0
C1624 C 0.83822 0.37927 0.40577 0.0
C1625 C 0.80628 0.4244 0.41443 0.0
N1626 N 0.86114 0.39415 0.46378 0.0
N1627 N 0.77772 0.40238 0.35954 0.0
H1628 H 0.79433 0.46151 0.44076 0.0
H1629 H 0.77855 0.45325 0.3993 0.0
H1630 H 0.7731 0.38778 0.33684 0.0
H1631 H 0.76261 0.41449 0.36225 0.0
H1632 H 0.87097 0.37549 0.46404 0.0
H1633 H 0.86579 0.40851 0.4866 0.0
H1634 H 0.87236 0.35817 0.41752 0.0
H1635 H 0.85221 0.34492 0.37815 0.0
C1636 C 0.52928 0.22476 0.23457 0.0
C1637 C 0.54182 0.2325 0.26852 0.0
C1638 C 0.5832 0.21675 0.25794 0.0
C1639 C 0.56846 0.20351 0.2254 0.0
N1640 N 0.52646 0.19267 0.18282 0.0
N1641 N 0.57991 0.23312 0.31351 0.0
C1642 C 0.54135 0.20729 0.21351 0.0
C1643 C 0.56881 0.22833 0.2805 0.0
N1644 N 0.50592 0.23436 0.22252 0.0
N1645 N 0.61097 0.21823 0.26719 0.0
H1646 H 0.57012 0.24124 0.33111 0.0
H1647 H 0.59788 0.22658 0.32368 0.0
H1648 H 0.62204 0.20991 0.25111 0.0
H1649 H 0.62355 0.23048 0.28963 0.0
H1650 H 0.49727 0.23216 0.19754 0.0
H1651 H 0.49686 0.24756 0.23743 0.0
H1652 H 0.50542 0.19141 0.17435 0.0
H1653 H 0.53446 0.17962 0.16653 0.0
C1654 C 0.78762 0.79162 0.89793 0.0
C1655 C 0.79135 0.81033 0.92904 0.0
C1656 C 0.809 0.85993 0.9046 0.0
C1657 C 0.8093 0.84084 0.87508 0.0
N1658 N 0.8035 0.78704 0.84718 0.0
N1659 N 0.81083 0.86261 0.96311 0.0
C1660 C 0.79964 0.80628 0.87262 0.0
C1661 C 0.8034 0.84461 0.93262 0.0
N1662 N 0.77185 0.75996 0.892 0.0
N1663 N 0.81299 0.89277 0.90565 0.0
H1664 H 0.80822 0.85243 0.98439 0.0
H1665 H 0.82231 0.88698 0.96768 0.0
H1666 H 0.81566 0.90468 0.88535 0.0
H1667 H 0.81033 0.9075 0.92534 0.0
H1668 H 0.76581 0.74622 0.86873 0.0
H1669 H 0.76234 0.74849 0.90949 0.0
H1670 H 0.79942 0.76184 0.84584 0.0
H1671 H 0.81361 0.79659 0.82941 0.0
C1672 C 0.89497 0.20304 0.03964 0.0
C1673 C 0.8705 0.19955 0.01488 0.0
C1674 C 0.88221 0.155 0.98378 0.0
C1675 C 0.90801 0.16082 0.00692 0.0
N1676 N 0.94119 0.19428 0.05388 0.0
N1677 N 0.84344 0.1759 0.96045 0.0
C1678 C 0.91501 0.18598 0.034 0.0
C1679 C 0.86475 0.17642 0.98618 0.0
N1680 N 0.89853 0.2216 0.06923 0.0
N1681 N 0.87401 0.12848 0.95994 0.0
H1682 H 0.83051 0.19145 0.9609 0.0
H1683 H 0.84015 0.16215 0.93756 0.0
H1684 H 0.88628 0.11249 0.9572 0.0
H1685 H 0.85411 0.12081 0.94467 0.0
H1686 H 0.91439 0.22239 0.08941 0.0
H1687 H 0.884 0.23367 0.07475 0.0
H1688 H 0.94864 0.21467 0.07186 0.0
H1689 H 0.95644 0.18251 0.05042 0.0
C1690 C 0.45495 0.53722 0.08642 0.0
C1691 C 0.43764 0.51573 0.05828 0.0
C1692 C 0.47363 0.5349 0.0266 0.0
C1693 C 0.48988 0.5587 0.05362 0.0
N1694 N 0.49592 0.58242 0.10997 0.0
N1695 N 0.42814 0.49919 0.99977 0.0
C1696 C 0.48032 0.56003 0.08364 0.0
C1697 C 0.44639 0.516 0.02793 0.0
N1698 N 0.44797 0.53448 0.11626 0.0
N1699 N 0.4844 0.52958 0.99968 0.0
H1700 H 0.40786 0.48555 0.99935 0.0
H1701 H 0.43199 0.50142 0.97639 0.0
H1702 H 0.50406 0.54271 0.99751 0.0
H1703 H 0.47507 0.51005 0.98097 0.0
H1704 H 0.461 0.54652 0.13849 0.0
H1705 H 0.42976 0.51819 0.11919 0.0
H1706 H 0.48849 0.58804 0.13073 0.0
H1707 H 0.51626 0.59617 0.11095 0.0
C1708 C 0.36068 0.62506 0.70059 0.0
C1709 C 0.38889 0.63316 0.71841 0.0
C1710 C 0.38162 0.67952 0.75101 0.0
C1711 C 0.3539 0.67247 0.73196 0.0
N1712 N 0.31873 0.64294 0.68461 0.0
N1713 N 0.428 0.67142 0.7557 0.0
C1714 C 0.34395 0.64657 0.70547 0.0
C1715 C 0.3999 0.66141 0.74222 0.0
N1716 N 0.3494 0.59603 0.68033 0.0
N1717 N 0.39016 0.70274 0.77819 0.0
H1718 H 0.44204 0.65889 0.74955 0.0
H1719 H 0.43778 0.69362 0.77062 0.0
H1720 H 0.37748 0.71673 0.78536 0.0
H1721 H 0.409 0.70649 0.79509 0.0
H1722 H 0.32814 0.58716 0.66966 0.0
H1723 H 0.36079 0.57936 0.67626 0.0
H1724 H 0.31169 0.62674 0.66282 0.0
H1725 H 0.30584 0.65816 0.68761 0.0
C1726 C 0.19143 0.70771 0.53441 0.0
C1727 C 0.20737 0.69441 0.51504 0.0
C1728 C 0.17071 0.64204 0.50391 0.0
C1729 C 0.15362 0.65655 0.52044 0.0
N1730 N 0.14568 0.70559 0.54528 0.0
N1731 N 0.21028 0.65008 0.47728 0.0
C1732 C 0.16345 0.69005 0.534 0.0
C1733 C 0.19651 0.66182 0.4987 0.0
N1734 N 0.20338 0.73678 0.55442 0.0
N1735 N 0.16286 0.60916 0.49429 0.0
H1736 H 0.22908 0.66374 0.47285 0.0
H1737 H 0.20198 0.6279 0.46194 0.0
H1738 H 0.14448 0.59408 0.49827 0.0
H1739 H 0.17563 0.59653 0.48511 0.0
H1740 H 0.1939 0.74589 0.57184 0.0
H1741 H 0.22397 0.75019 0.55612 0.0
H1742 H 0.15075 0.73071 0.55211 0.0
H1743 H 0.12481 0.69403 0.54457 0.0
C1744 C 0.75353 0.97393 0.75551 0.0
C1745 C 0.72518 0.95471 0.74948 0.0
C1746 C 0.74115 0.91785 0.78514 0.0
C1747 C 0.76917 0.93086 0.78228 0.0
N1748 N 0.80242 0.97468 0.76602 0.0
N1749 N 0.69287 0.90489 0.75663 0.0
C1750 C 0.77566 0.96011 0.76815 0.0
C1751 C 0.71908 0.92591 0.76419 0.0
N1752 N 0.7594 1.00597 0.75111 0.0
N1753 N 0.7357 0.89716 0.80751 0.0
H1754 H 0.67633 0.90831 0.73958 0.0
H1755 H 0.68861 0.88207 0.76443 0.0
H1756 H 0.75175 0.89201 0.82409 0.0
H1757 H 0.71578 0.88831 0.81187 0.0
H1758 H 0.77952 0.0217 0.75784 0.0
H1759 H 0.74389 0.01791 0.74495 0.0
H1760 H 0.80713 0.99298 0.7515 0.0
H1761 H 0.81989 0.96838 0.77795 0.0
C1762 C 0.75484 0.98513 0.52602 0.0
C1763 C 0.78027 0.9974 0.54999 0.0
C1764 C 0.7649 0.04578 0.56573 0.0
C1765 C 0.73826 0.03164 0.54446 0.0
N1766 N 0.70628 0.98515 0.50836 0.0
N1767 N 0.80753 0.03704 0.59657 0.0
C1768 C 0.7328 1.00054 0.52569 0.0
C1769 C 0.78485 0.02719 0.57084 0.0
N1770 N 0.75209 0.95944 0.50264 0.0
N1771 N 0.77151 0.07737 0.58036 0.0
H1772 H 0.8224 0.02401 0.60153 0.0
H1773 H 0.81029 0.05654 0.61473 0.0
H1774 H 0.75757 0.09178 0.5772 0.0
H1775 H 0.79158 0.09016 0.5932 0.0
H1776 H 0.73529 0.95161 0.48248 0.0
H1777 H 0.76795 0.94799 0.50148 0.0
H1778 H 0.70034 0.96104 0.49711 0.0
H1779 H 0.68951 0.99542 0.50774 0.0
C1780 C 0.38928 0.49153 0.75514 0.0
C1781 C 0.39207 0.48756 0.72198 0.0
C1782 C 0.35166 0.43929 0.70973 0.0
C1783 C 0.35152 0.44016 0.74396 0.0
N1784 N 0.37005 0.46881 0.79936 0.0
N1785 N 0.37851 0.45506 0.66869 0.0
C1786 C 0.3705 0.46659 0.76671 0.0
C1787 C 0.37381 0.46092 0.69951 0.0
N1788 N 0.40309 0.52028 0.7751 0.0
N1789 N 0.33066 0.41821 0.68652 0.0
H1790 H 0.39473 0.46992 0.66034 0.0
H1791 H 0.36803 0.43383 0.65247 0.0
H1792 H 0.31536 0.39935 0.69157 0.0
H1793 H 0.3277 0.42033 0.66159 0.0
H1794 H 0.39963 0.52632 0.79832 0.0
H1795 H 0.41605 0.53975 0.76737 0.0
H1796 H 0.38636 0.4837 0.81759 0.0
H1797 H 0.35357 0.45572 0.80855 0.0
C1798 C 0.22141 0.62293 0.30524 0.0
C1799 C 0.23098 0.59468 0.30644 0.0
C1800 C 0.27874 0.62586 0.30916 0.0
C1801 C 0.26806 0.65217 0.30012 0.0
N1802 N 0.23204 0.68023 0.2986 0.0
N1803 N 0.26876 0.57247 0.3271 0.0
C1804 C 0.2403 0.65238 0.30191 0.0
C1805 C 0.25985 0.59734 0.31465 0.0
N1806 N 0.19444 0.62095 0.30742 0.0
N1807 N 0.3062 0.62739 0.31009 0.0
H1808 H 0.2546 0.55193 0.33167 0.0
H1809 H 0.28976 0.57351 0.33553 0.0
H1810 H 0.32045 0.64849 0.30687 0.0
H1811 H 0.31456 0.60764 0.31303 0.0
H1812 H 0.18539 0.64026 0.30656 0.0
H1813 H 0.18166 0.59963 0.31247 0.0
H1814 H 0.21173 0.68191 0.29767 0.0
H1815 H 0.24605 0.70228 0.29724 0.0
C1816 C 0.52489 0.72713 0.46578 0.0
C1817 C 0.54393 0.75824 0.47799 0.0
C1818 C 0.57211 0.73166 0.516 0.0
C1819 C 0.55549 0.70018 0.5004 0.0
N1820 N 0.51937 0.66938 0.45368 0.0
N1821 N 0.59013 0.78791 0.50912 0.0
C1822 C 0.53276 0.69828 0.47342 0.0
C1823 C 0.56881 0.75988 0.50153 0.0
N1824 N 0.49877 0.72483 0.44784 0.0
N1825 N 0.59023 0.73513 0.54554 0.0
H1826 H 0.58969 0.80842 0.49759 0.0
H1827 H 0.60959 0.78933 0.52387 0.0
H1828 H 0.5919 0.71566 0.55832 0.0
H1829 H 0.60094 0.7578 0.55918 0.0
H1830 H 0.48313 0.70289 0.44133 0.0
H1831 H 0.49171 0.74513 0.44269 0.0
H1832 H 0.50461 0.66761 0.43208 0.0
H1833 H 0.52513 0.6479 0.45637 0.0
C1834 C 0.70792 0.3467 0.68481 0.0
C1835 C 0.69608 0.37318 0.69039 0.0
C1836 C 0.7297 0.39076 0.74375 0.0
C1837 C 0.74428 0.36774 0.7356 0.0
N1838 N 0.7474 0.32369 0.69801 0.0
N1839 N 0.69743 0.42219 0.72457 0.0
C1840 C 0.73315 0.34536 0.70623 0.0
C1841 C 0.70722 0.39546 0.71994 0.0
N1842 N 0.69457 0.32219 0.65946 0.0
N1843 N 0.73701 0.40764 0.77477 0.0
H1844 H 0.68122 0.42668 0.70779 0.0
H1845 H 0.70686 0.44129 0.74369 0.0
H1846 H 0.75257 0.40374 0.79297 0.0
H1847 H 0.72577 0.42267 0.78346 0.0
H1848 H 0.70019 0.30051 0.65612 0.0
H1849 H 0.6762 0.32219 0.64336 0.0
H1850 H 0.74286 0.30977 0.67499 0.0
H1851 H 0.76483 0.3209 0.71396 0.0
C1852 C 0.02856 0.44732 0.97867 0.0
C1853 C 0.04474 0.44069 0.95575 0.0
C1854 C 0.06333 0.49957 0.95622 0.0
C1855 C 0.04947 0.50635 0.98149 0.0
N1856 N 0.02222 0.48608 0.02054 0.0
N1857 N 0.08288 0.46103 0.92941 0.0
C1858 C 0.03292 0.48006 0.99372 0.0
C1859 C 0.06367 0.46702 0.94651 0.0
N1860 N 1.00821 0.4227 0.98523 0.0
N1861 N 0.0753 0.52414 0.94045 0.0
H1862 H 0.08466 0.43765 0.92302 0.0
H1863 H 0.09902 0.47938 0.92486 0.0
H1864 H 0.07443 0.54809 0.94577 0.0
H1865 H 0.08328 0.52013 0.91969 0.0
H1866 H 0.99339 0.42665 0.99826 0.0
H1867 H 1.0048 0.3984 0.97579 0.0
H1868 H 0.0131 0.46786 0.03312 0.0
H1869 H 0.02431 0.50947 0.0318 0.0
C1870 C 1.00621 0.865 0.16055 0.0
C1871 C 0.03277 0.86262 0.17721 0.0
C1872 C 0.01731 0.86557 0.22949 0.0
C1873 C 0.98981 0.86379 0.21221 0.0
N1874 N 0.95697 0.857 0.16059 0.0
N1875 N 0.06208 0.85535 0.22708 0.0
C1876 C 0.98397 0.86227 0.17753 0.0
C1877 C 0.03801 0.8617 0.21164 0.0
N1878 N 1.00247 0.87113 0.12877 0.0
N1879 N 0.02385 0.87168 0.26303 0.0
H1880 H 0.07748 0.85157 0.21492 0.0
H1881 H 0.06562 0.85082 0.25133 0.0
H1882 H 1.00929 0.87471 0.27692 0.0
H1883 H 0.04421 0.87672 0.2769 0.0
H1884 H 0.98461 0.87666 0.11654 0.0
H1885 H 0.01827 0.87391 0.11558 0.0
H1886 H 0.95098 0.85192 0.13508 0.0
H1887 H 0.94009 0.85493 0.17205 0.0
C1888 C 0.57368 0.47735 0.11843 0.0
C1889 C 0.59441 0.46177 0.11177 0.0
C1890 C 0.60741 0.50198 0.07416 0.0
C1891 C 0.58652 0.51727 0.08067 0.0
N1892 N 0.54711 0.51671 0.10545 0.0
N1893 N 0.62862 0.4567 0.08014 0.0
C1894 C 0.569 0.50417 0.10192 0.0
C1895 C 0.61044 0.47329 0.08851 0.0
N1896 N 0.5584 0.46646 0.14089 0.0
N1897 N 0.62509 0.51572 0.05513 0.0
H1898 H 0.63184 0.43647 0.09078 0.0
H1899 H 0.63916 0.46144 0.06127 0.0
H1900 H 0.62324 0.53623 0.04413 0.0
H1901 H 0.64261 0.5083 0.05171 0.0
H1902 H 0.54601 0.47906 0.15088 0.0
H1903 H 0.55876 0.44487 0.15044 0.0
H1904 H 0.53147 0.50639 0.11736 0.0
H1905 H 0.54343 0.53665 0.09462 0.0
C1906 C 0.94379 0.35162 0.37784 0.0
C1907 C 0.95688 0.33085 0.36186 0.0
C1908 C 0.91745 0.31903 0.31334 0.0
C1909 C 0.90539 0.34154 0.3285 0.0
N1910 N 0.9101 0.38359 0.3734 0.0
N1911 N 0.95881 0.30004 0.31166 0.0
C1912 C 0.91963 0.35933 0.36005 0.0
C1913 C 0.94433 0.31588 0.32888 0.0
N1914 N 0.95322 0.36236 0.41075 0.0
N1915 N 0.90336 0.30073 0.28383 0.0
H1916 H 0.97885 0.29829 0.32156 0.0
H1917 H 0.9523 0.29143 0.28664 0.0
H1918 H 0.88506 0.30423 0.2702 0.0
H1919 H 0.90897 0.28089 0.27361 0.0
H1920 H 0.94263 0.37426 0.42469 0.0
H1921 H 0.97014 0.35662 0.42503 0.0
H1922 H 0.92154 0.4001 0.39409 0.0
H1923 H 0.89163 0.38884 0.36278 0.0
C1924 C 0.08487 0.7434 0.61477 0.0
C1925 C 0.08114 0.76925 0.59662 0.0
C1926 C 0.06393 0.7294 0.54575 0.0
C1927 C 0.06626 0.70322 0.56402 0.0
N1928 N 0.07648 0.68497 0.61641 0.0
N1929 N 0.06241 0.78581 0.54577 0.0
C1930 C 0.07615 0.71026 0.59871 0.0
C1931 C 0.06896 0.76179 0.56247 0.0
N1932 N 0.09655 0.75068 0.64765 0.0
N1933 N 0.05925 0.72405 0.51224 0.0
H1934 H 0.06667 0.80984 0.55683 0.0
H1935 H 0.05061 0.78141 0.5218 0.0
H1936 H 0.05734 0.70157 0.49894 0.0
H1937 H 0.06034 0.74259 0.49766 0.0
H1938 H 0.1034 0.73444 0.66202 0.0
H1939 H 0.10006 0.77373 0.66074 0.0
H1940 H 0.08296 0.68751 0.64174 0.0
H1941 H 0.06881 0.66066 0.60574 0.0
C1942 C 0.62083 0.86237 0.85982 0.0
C1943 C 0.6081 0.83876 0.87806 0.0
C1944 C 0.6319 0.80029 0.85626 0.0
C1945 C 0.64689 0.82503 0.84083 0.0
N1946 N 0.65611 0.87986 0.82802 0.0
N1947 N 0.60221 0.78567 0.89508 0.0
C1948 C 0.6413 0.85609 0.84248 0.0
C1949 C 0.61364 0.80771 0.87639 0.0
N1950 N 0.61269 0.8905 0.85843 0.0
N1951 N 0.63464 0.76937 0.85095 0.0
H1952 H 0.58781 0.78959 0.90876 0.0
H1953 H 0.60797 0.76429 0.89852 0.0
H1954 H 0.648 0.76317 0.83677 0.0
H1955 H 0.62223 0.74928 0.85836 0.0
H1956 H 0.61887 0.90756 0.84321 0.0
H1957 H 0.59783 0.89574 0.87079 0.0
H1958 H 0.65588 0.90415 0.83138 0.0
H1959 H 0.6698 0.87547 0.81355 0.0
C1960 C 0.50205 0.58006 0.61618 0.0
C1961 C 0.48584 0.6028 0.61702 0.0
C1962 C 0.52016 0.64053 0.5936 0.0
C1963 C 0.53798 0.61953 0.59763 0.0
N1964 N 0.54877 0.57362 0.62098 0.0
N1965 N 0.47819 0.65396 0.60397 0.0
C1966 C 0.52973 0.5906 0.61137 0.0
C1967 C 0.49456 0.63284 0.60483 0.0
N1968 N 0.49103 0.54809 0.61869 0.0
N1969 N 0.52728 0.6673 0.57834 0.0
H1970 H 0.45784 0.64732 0.60786 0.0
H1971 H 0.48483 0.67805 0.60004 0.0
H1972 H 0.54676 0.67515 0.57247 0.0
H1973 H 0.51367 0.68115 0.5705 0.0
H1974 H 0.50181 0.53049 0.61612 0.0
H1975 H 0.47001 0.53802 0.61831 0.0
H1976 H 0.54471 0.55428 0.63442 0.0
H1977 H 0.56955 0.58111 0.61867 0.0
C1978 C 0.77198 0.27478 0.90151 0.0
C1979 C 0.79561 0.27601 0.92677 0.0
C1980 C 0.8259 0.31123 0.89655 0.0
C1981 C 0.80256 0.30775 0.87001 0.0
N1982 N 0.75373 0.28344 0.84585 0.0
N1983 N 0.84576 0.29146 0.94571 0.0
C1984 C 0.77572 0.28861 0.87211 0.0
C1985 C 0.82272 0.29349 0.92374 0.0
N1986 N 0.74571 0.26143 0.90626 0.0
N1987 N 0.85138 0.33128 0.89572 0.0
H1988 H 0.84449 0.27885 0.96577 0.0
H1989 H 0.86621 0.30001 0.94278 0.0
H1990 H 0.85548 0.34236 0.87536 0.0
H1991 H 0.86817 0.33845 0.91591 0.0
H1992 H 0.72741 0.26249 0.89065 0.0
H1993 H 0.74218 0.25177 0.92758 0.0
H1994 H 0.73447 0.26667 0.84395 0.0
H1995 H 0.75525 0.29447 0.8248 0.0
C1996 C 0.09104 0.52979 0.1439 0.0
C1997 C 0.11982 0.54408 0.15839 0.0
C1998 C 0.12051 0.58797 0.12431 0.0
C1999 C 0.09178 0.57366 0.10969 0.0
N2000 N 0.05048 0.5287 0.10171 0.0
N2001 N 0.16345 0.58275 0.15814 0.0
C2002 C 0.07731 0.5438 0.11829 0.0
C2003 C 0.13508 0.57176 0.14699 0.0
N2004 N 0.07671 0.5032 0.15537 0.0
N2005 N 0.13341 0.61806 0.11795 0.0
H2006 H 0.17465 0.57208 0.17542 0.0
H2007 H 0.17624 0.60063 0.14832 0.0
H2008 H 0.12319 0.63066 0.10184 0.0
H2009 H 0.15335 0.63165 0.13035 0.0
H2010 H 0.05504 0.49394 0.14925 0.0
H2011 H 0.08659 0.49086 0.17219 0.0
H2012 H 0.03976 0.50513 0.10381 0.0
H2013 H 0.03924 0.53911 0.0842 0.0
C2014 C 0.85468 0.90524 0.44429 0.0
C2015 C 0.83881 0.9268 0.45258 0.0
C2016 C 0.81887 0.92431 0.39362 0.0
C2017 C 0.833 0.90085 0.38538 0.0
N2018 N 0.85939 0.86355 0.40436 0.0
N2019 N 0.7999 0.94911 0.43515 0.0
C2020 C 0.84951 0.88978 0.41114 0.0
C2021 C 0.81912 0.93394 0.4272 0.0
N2022 N 0.87557 0.90039 0.46757 0.0
N2023 N 0.80634 0.93883 0.36957 0.0
H2024 H 0.79861 0.95533 0.45936 0.0
H2025 H 0.78331 0.95206 0.41781 0.0
H2026 H 0.80678 0.93386 0.34487 0.0
H2027 H 0.79821 0.95841 0.37456 0.0
H2028 H 0.89018 0.88852 0.46196 0.0
H2029 H 0.87976 0.91018 0.49219 0.0
H2030 H 0.86867 0.85206 0.42249 0.0
H2031 H 0.85589 0.85119 0.38081 0.0
C2032 C 0.52604 0.56131 0.75657 0.0
C2033 C 0.51279 0.58612 0.74873 0.0
C2034 C 0.52893 0.61338 0.80546 0.0
C2035 C 0.53967 0.58687 0.81374 0.0
N2036 N 0.55449 0.53978 0.79612 0.0
N2037 N 0.50961 0.64073 0.76214 0.0
C2038 C 0.54085 0.56288 0.78894 0.0
C2039 C 0.517 0.61393 0.77209 0.0
N2040 N 0.52338 0.53505 0.73393 0.0
N2041 N 0.52836 0.63664 0.82971 0.0
H2042 H 0.5013 0.64178 0.73759 0.0
H2043 H 0.51409 0.6628 0.77736 0.0
H2044 H 0.5378 0.63745 0.85427 0.0
H2045 H 0.51763 0.65429 0.82581 0.0
H2046 H 0.53263 0.51636 0.73953 0.0
H2047 H 0.51173 0.53139 0.70998 0.0
H2048 H 0.56606 0.53939 0.81946 0.0
H2049 H 0.56606 0.53939 0.81946 0.0
C2050 C 0.79089 0.28371 0.14616 0.0
C2051 C 0.80884 0.29158 0.12388 0.0
C2052 C 0.84392 0.32806 0.17002 0.0
C2053 C 0.82385 0.32489 0.19021 0.0
N2054 N 0.77565 0.30306 0.19361 0.0
N2055 N 0.85208 0.32497 0.11464 0.0
C2056 C 0.79672 0.30333 0.17739 0.0
C2057 C 0.83542 0.31454 0.1359 0.0
N2058 N 0.76843 0.25687 0.13789 0.0
N2059 N 0.87138 0.3434 0.18361 0.0
H2060 H 0.84661 0.31642 0.08958 0.0
H2061 H 0.87017 0.34427 0.1214 0.0
H2062 H 0.87852 0.35244 0.20856 0.0
H2063 H 0.8874 0.34385 0.17103 0.0
H2064 H 0.75622 0.24821 0.15439 0.0
H2065 H 0.76411 0.24115 0.11598 0.0
H2066 H 0.75485 0.29038 0.1836 0.0
H2067 H 0.77829 0.31825 0.21534 0.0
C2068 C 0.09973 0.49691 0.32468 0.0
C2069 C 0.11478 0.51695 0.30522 0.0
C2070 C 0.09021 0.55836 0.31473 0.0
C2071 C 0.07918 0.54114 0.33853 0.0
N2072 N 0.07091 0.4949 0.366 0.0
N2073 N 0.12679 0.56842 0.28442 0.0
C2074 C 0.08288 0.51013 0.34299 0.0
C2075 C 0.11031 0.54789 0.30042 0.0
N2076 N 0.10205 0.46586 0.32581 0.0
N2077 N 0.08172 0.58502 0.30634 0.0
H2078 H 0.14256 0.56235 0.27451 0.0
H2079 H 0.12662 0.5926 0.2835 0.0
H2080 H 0.06703 0.59322 0.31685 0.0
H2081 H 0.08698 0.59687 0.28682 0.0
H2082 H 0.09043 0.44896 0.33771 0.0
H2083 H 0.11455 0.45617 0.31272 0.0
H2084 H 0.07304 0.47264 0.37266 0.0
H2085 H 0.07304 0.47264 0.37266 0.0
C2086 C 0.83647 0.86554 0.63878 0.0
C2087 C 0.84449 0.90008 0.64022 0.0
C2088 C 0.82771 0.90458 0.69186 0.0
C2089 C 0.82226 0.87033 0.69216 0.0
N2090 N 0.82645 0.81899 0.6681 0.0
N2091 N 0.85286 0.95253 0.67234 0.0
C2092 C 0.82808 0.85108 0.6662 0.0
C2093 C 0.84157 0.91958 0.668 0.0
N2094 N 0.83553 0.8463 0.61051 0.0
N2095 N 0.81803 0.92278 0.71303 0.0
H2096 H 0.86337 0.96445 0.65581 0.0
H2097 H 0.85417 0.96761 0.69386 0.0
H2098 H 0.80664 0.91262 0.72958 0.0
H2099 H 0.81853 0.94706 0.71156 0.0
H2100 H 0.827 0.82115 0.60655 0.0
H2101 H 0.84065 0.8557 0.58966 0.0
H2102 H 0.83347 0.80456 0.652 0.0
H2103 H 0.82067 0.80755 0.68767 0.0
C2104 C 0.78621 0.55912 0.54086 0.0
C2105 C 0.78387 0.53059 0.5563 0.0
C2106 C 0.7404 0.53723 0.57126 0.0
C2107 C 0.74203 0.56488 0.5546 0.0
N2108 N 0.76349 0.59875 0.51843 0.0
N2109 N 0.75541 0.48833 0.57933 0.0
C2110 C 0.76406 0.57477 0.53782 0.0
C2111 C 0.75998 0.51848 0.56954 0.0
N2112 N 0.81014 0.57214 0.53044 0.0
N2113 N 0.72059 0.52939 0.58959 0.0
H2114 H 0.7688 0.47349 0.57763 0.0
H2115 H 0.73701 0.47661 0.58599 0.0
H2116 H 0.70564 0.54216 0.59111 0.0
H2117 H 0.72028 0.51188 0.60535 0.0
H2118 H 0.81454 0.59475 0.52232 0.0
H2119 H 0.82669 0.56142 0.53213 0.0
H2120 H 0.7772 0.6049 0.50286 0.0
H2121 H 0.74782 0.61089 0.51593 0.0
C2122 C 0.20193 0.16501 0.52014 0.0
C2123 C 0.2038 0.1989 0.52146 0.0
C2124 C 0.15885 0.18838 0.53908 0.0
C2125 C 0.15382 0.15421 0.53104 0.0
N2126 N 0.17394 0.10986 0.51866 0.0
N2127 N 0.18038 0.24133 0.5263 0.0
C2128 C 0.17625 0.14247 0.52262 0.0
C2129 C 0.18109 0.21 0.52904 0.0
N2130 N 0.22529 0.15444 0.51943 0.0
N2131 N 0.14416 0.20054 0.55896 0.0
H2132 H 0.19541 0.25756 0.5174 0.0
H2133 H 0.16323 0.24983 0.52935 0.0
H2134 H 0.12997 0.1857 0.57001 0.0
H2135 H 0.14885 0.22526 0.56783 0.0
H2136 H 0.2263 0.13085 0.52239 0.0
H2137 H 0.24466 0.16976 0.51884 0.0
H2138 H 0.18639 0.09947 0.50618 0.0
H2139 H 0.16035 0.0933 0.52892 0.0
C2140 C 0.29599 0.08035 0.90546 0.0
C2141 C 0.26644 0.06834 0.89764 0.0
C2142 C 0.26973 0.01865 0.8665 0.0
C2143 C 0.29894 0.03277 0.87055 0.0
N2144 N 0.34051 0.07619 0.8939 0.0
N2145 N 0.22461 0.02578 0.87256 0.0
C2146 C 0.31234 0.06323 0.89045 0.0
C2147 C 0.25317 0.03703 0.8793 0.0
N2148 N 0.3082 0.10798 0.9276 0.0
N2149 N 0.25785 0.9878 0.85 0.0
H2150 H 0.21198 0.03747 0.88329 0.0
H2151 H 0.21315 1.0054 0.85571 0.0
H2152 H 0.26893 0.97456 0.83825 0.0
H2153 H 0.23747 0.97443 0.84925 0.0
H2154 H 0.32969 0.11701 0.93662 0.0
H2155 H 0.29649 0.12051 0.93917 0.0
H2156 H 0.35125 0.09979 0.90501 0.0
H2157 H 0.35318 0.06367 0.8842 0.0
C2158 C 0.44418 0.06339 0.07468 0.0
C2159 C 0.432 0.02999 0.06137 0.0
C2160 C 0.47241 0.03085 0.03597 0.0
C2161 C 0.4859 0.06317 0.05208 0.0
N2162 N 0.48575 0.10932 0.08943 0.0
N2163 N 0.43737 0.98026 0.03478 0.0
C2164 C 0.47217 0.07907 0.07243 0.0
C2165 C 0.44682 0.01332 0.0433 0.0
N2166 N 0.42845 0.08073 0.08786 0.0
N2167 N 0.48397 0.01667 0.01355 0.0
H2168 H 0.41932 0.96624 0.04054 0.0
H2169 H 0.44887 0.96622 0.02496 0.0
H2170 H 0.50337 0.02749 0.00864 0.0
H2171 H 0.47342 0.99497 0.99807 0.0
H2172 H 0.43496 0.10585 0.09484 0.0
H2173 H 0.40768 0.07057 0.08896 0.0
H2174 H 0.47842 0.12053 0.10775 0.0
H2175 H 0.50532 0.12256 0.08668 0.0
C2176 C 0.88679 0.75481 0.81509 0.0
C2177 C 0.90963 0.76145 0.79905 0.0
C2178 C 0.88366 0.78888 0.76028 0.0
C2179 C 0.86094 0.78205 0.77646 0.0
N2180 N 0.83685 0.74619 0.8092 0.0
N2181 N 0.92514 0.77493 0.74946 0.0
C2182 C 0.86113 0.76094 0.80057 0.0
C2183 C 0.90676 0.7756 0.76953 0.0
N2184 N 0.88987 0.74417 0.84503 0.0
N2185 N 0.88322 0.80837 0.7362 0.0
H2186 H 0.94137 0.76384 0.75425 0.0
H2187 H 0.92253 0.78224 0.72628 0.0
H2188 H 0.8657 0.81632 0.72713 0.0
H2189 H 0.90049 0.81759 0.72626 0.0
H2190 H 0.87459 0.74189 0.85897 0.0
H2191 H 0.90872 0.74105 0.85757 0.0
H2192 H 0.8356 0.72871 0.82506 0.0
H2193 H 0.81745 0.74796 0.79693 0.0
C2194 C 0.88136 0.71758 0.99587 0.0
C2195 C 0.8615 0.71218 0.01613 0.0
C2196 C 0.89134 0.68473 0.05034 0.0
C2197 C 0.90801 0.68459 0.02638 0.0
N2198 N 0.93015 0.72509 0.99626 0.0
N2199 N 0.84781 0.69007 0.06353 0.0
C2200 C 0.90636 0.70763 1.00414 0.0
C2201 C 0.86643 0.69537 0.04349 0.0
N2202 N 0.87644 0.73207 0.96843 0.0
N2203 N 0.90202 0.68091 0.08174 0.0
H2204 H 0.83024 0.69903 0.06083 0.0
H2205 H 0.84894 0.67481 0.08151 0.0
H2206 H 0.92272 0.68001 0.08915 0.0
H2207 H 0.89224 0.6838 0.10119 0.0
H2208 H 0.88935 0.73395 0.95154 0.0
H2209 H 0.85819 0.73925 0.96104 0.0
H2210 H 0.93049 0.74411 0.9823 0.0
H2211 H 0.94993 0.72426 0.00849 0.0
C2212 C 0.25935 0.25015 0.84272 0.0
C2213 C 0.26997 0.22237 0.84266 0.0
C2214 C 0.30938 0.25174 0.82054 0.0
C2215 C 0.3001 0.28036 0.82325 0.0
N2216 N 0.26898 0.30837 0.84265 0.0
N2217 N 0.30857 0.19944 0.83875 0.0
C2218 C 0.27587 0.28001 0.83601 0.0
C2219 C 0.29598 0.22395 0.83358 0.0
N2220 N 0.23289 0.24773 0.84745 0.0
N2221 N 0.33051 0.25071 0.80462 0.0
H2222 H 0.30003 0.17934 0.84952 0.0
H2223 H 0.3288 0.20072 0.83572 0.0
H2224 H 0.34062 0.27037 0.79436 0.0
H2225 H 0.33617 0.22944 0.79881 0.0
H2226 H 0.22295 0.26619 0.84422 0.0
H2227 H 0.21986 0.2263 0.85186 0.0
H2228 H 0.25422 0.31052 0.8565 0.0
H2229 H 0.27947 0.33024 0.83635 0.0
C2230 C 0.42473 0.1116 0.33245 0.0
C2231 C 0.42694 0.12297 0.30198 0.0
C2232 C 0.38624 0.07884 0.27363 0.0
C2233 C 0.38652 0.06529 0.3033 0.0
N2234 N 0.40936 0.06518 0.35952 0.0
N2235 N 0.41124 0.11736 0.24319 0.0
C2236 C 0.40652 0.08076 0.33242 0.0
C2237 C 0.40811 0.10655 0.27237 0.0
N2238 N 0.43989 0.13012 0.36149 0.0
N2239 N 0.36474 0.06558 0.24704 0.0
H2240 H 0.42624 0.13852 0.24163 0.0
H2241 H 0.40011 0.10446 0.2204 0.0
H2242 H 0.34835 0.04535 0.24744 0.0
H2243 H 0.36185 0.07606 0.22561 0.0
H2244 H 0.43628 0.12456 0.38429 0.0
H2245 H 0.45465 0.15233 0.3631 0.0
H2246 H 0.42588 0.07377 0.3799 0.0
H2247 H 0.39688 0.04212 0.36065 0.0
C2248 C 0.56681 0.46386 0.58583 0.0
C2249 C 0.5939 0.4586 0.59036 0.0
C2250 C 0.60678 0.50185 0.55616 0.0
C2251 C 0.58145 0.51101 0.55675 0.0
N2252 N 0.53924 0.50241 0.57843 0.0
N2253 N 0.64087 0.47506 0.58175 0.0
C2254 C 0.56182 0.49224 0.57295 0.0
C2255 C 0.61417 0.47813 0.57581 0.0
N2256 N 0.54547 0.44128 0.59345 0.0
N2257 N 0.62339 0.51487 0.53581 0.0
H2258 H 0.64687 0.45778 0.5954 0.0
H2259 H 0.65743 0.49114 0.57515 0.0
H2260 H 0.61795 0.5307 0.51992 0.0
H2261 H 0.64072 0.50719 0.53199 0.0
H2262 H 0.52462 0.44188 0.5876 0.0
H2263 H 0.54819 0.41997 0.60216 0.0
H2264 H 0.52629 0.49156 0.59331 0.0
H2265 H 0.53497 0.52365 0.57148 0.0
C2266 C 0.42506 0.85059 0.37676 0.0
C2267 C 0.44153 0.83224 0.36361 0.0
C2268 C 0.41693 0.83642 0.30821 0.0
C2269 C 0.39606 0.84729 0.32116 0.0
N2270 N 0.3829 0.86878 0.36956 0.0
N2271 N 0.45026 0.80423 0.31564 0.0
C2272 C 0.40084 0.85542 0.35599 0.0
C2273 C 0.43671 0.82427 0.32899 0.0
N2274 N 0.43369 0.86566 0.40858 0.0
N2275 N 0.41926 0.8396 0.27664 0.0
H2276 H 0.46417 0.79387 0.3298 0.0
H2277 H 0.44539 0.79529 0.29065 0.0
H2278 H 0.40819 0.85277 0.26219 0.0
H2279 H 0.43532 0.83396 0.26684 0.0
H2280 H 0.42426 0.88202 0.41869 0.0
H2281 H 0.45228 0.86495 0.42392 0.0
H2282 H 0.38222 0.86947 0.39433 0.0
H2283 H 0.36892 0.87949 0.3562 0.0
C2284 C 0.11407 0.76099 0.11248 0.0
C2285 C 0.1039 0.7821 0.09193 0.0
C2286 C 0.07686 0.73463 0.05112 0.0
C2287 C 0.0898 0.71393 0.06979 0.0
N2288 N 0.12177 0.70784 0.11794 0.0
N2289 N 0.07834 0.78966 0.03994 0.0
C2290 C 0.10887 0.72734 0.10027 0.0
C2291 C 0.08582 0.76906 0.0609 0.0
N2292 N 0.12736 0.77275 0.14447 0.0
N2293 N 0.05581 0.72161 0.02405 0.0
H2294 H 0.08438 0.81492 0.0462 0.0
H2295 H 0.06815 0.78199 0.01543 0.0
H2296 H 0.04961 0.69711 0.01423 0.0
H2297 H 0.04307 0.73486 0.01243 0.0
H2298 H 0.13272 0.7581 0.16177 0.0
H2299 H 0.13058 0.79682 0.15482 0.0
H2300 H 0.13871 0.71677 0.1378 0.0
H2301 H 0.11641 0.68264 0.11185 0.0
C2302 C 0.10693 0.32859 0.86071 0.0
C2303 C 0.11032 0.35292 0.88772 0.0
C2304 C 0.15814 0.37779 0.88142 0.0
C2305 C 0.15349 0.35575 0.85223 0.0
N2306 N 0.12091 0.31465 0.81024 0.0
N2307 N 0.13722 0.40489 0.91912 0.0
C2308 C 0.12711 0.33246 0.84072 0.0
C2309 C 0.13541 0.37873 0.89679 0.0
N2310 N 0.08535 0.30085 0.85507 0.0
N2311 N 0.18448 0.39707 0.89522 0.0
H2312 H 0.12078 0.40719 0.93011 0.0
H2313 H 0.15392 0.42585 0.92412 0.0
H2314 H 0.20181 0.39663 0.88518 0.0
H2315 H 0.18961 0.4111 0.91828 0.0
H2316 H 0.08365 0.28097 0.83779 0.0
H2317 H 0.07081 0.29611 0.86992 0.0
H2318 H 0.10098 0.29978 0.79931 0.0
H2319 H 0.13485 0.31717 0.79453 0.0
C2320 C 0.545 0.72582 0.94918 0.0
C2321 C 0.54467 0.75259 0.97166 0.0
C2322 C 0.54128 0.71608 0.01426 0.0
C2323 C 0.5466 0.69092 0.99365 0.0
N2324 N 0.55447 0.67321 0.94041 0.0
N2325 N 0.54402 0.77359 0.02658 0.0
C2326 C 0.54827 0.69596 0.96062 0.0
C2327 C 0.5431 0.74771 0.00442 0.0
N2328 N 0.54196 0.72888 0.91658 0.0
N2329 N 0.53313 0.7093 0.04279 0.0
H2330 H 0.54397 0.7965 0.01995 0.0
H2331 H 0.54653 0.77283 0.05174 0.0
H2332 H 0.52982 0.68612 0.0498 0.0
H2333 H 0.52648 0.72544 0.05747 0.0
H2334 H 0.53897 0.70952 0.89817 0.0
H2335 H 0.5397 0.75024 0.90758 0.0
H2336 H 0.55993 0.67744 0.9181 0.0
H2337 H 0.55601 0.65065 0.94648 0.0
C2338 C 0.183 0.84074 0.70653 0.0
C2339 C 0.18068 0.87246 0.70217 0.0
C2340 C 0.226 0.89468 0.74158 0.0
C2341 C 0.23119 0.86327 0.74038 0.0
N2342 N 0.21373 0.80604 0.71596 0.0
N2343 N 0.20129 0.93034 0.71434 0.0
C2344 C 0.20934 0.83609 0.72165 0.0
C2345 C 0.20263 0.89963 0.71929 0.0
N2346 N 0.15997 0.81475 0.69621 0.0
N2347 N 0.24239 0.91955 0.76521 0.0
H2348 H 0.18394 0.93496 0.69965 0.0
H2349 H 0.21809 0.9509 0.72316 0.0
H2350 H 0.25797 0.91644 0.78381 0.0
H2351 H 0.23815 0.94205 0.76893 0.0
H2352 H 0.15956 0.79139 0.7017 0.0
H2353 H 0.14041 0.81731 0.68555 0.0
H2354 H 0.19966 0.78714 0.69905 0.0
H2355 H 0.23215 0.8002 0.72502 0.0
C2356 C 0.0831 0.47872 0.45888 0.0
C2357 C 0.06379 0.45165 0.46669 0.0
C2358 C 0.05637 0.48889 0.51104 0.0
C2359 C 0.07292 0.51637 0.50033 0.0
N2360 N 0.09822 0.53735 0.46008 0.0
N2361 N 0.02903 0.43218 0.49788 0.0
C2362 C 0.08529 0.51119 0.4732 0.0
C2363 C 0.04975 0.45704 0.49235 0.0
N2364 N 0.10017 0.47331 0.43847 0.0
N2365 N 0.0474 0.49302 0.53955 0.0
H2366 H 0.02368 0.40871 0.48506 0.0
H2367 H 0.01571 0.43541 0.51336 0.0
H2368 H 0.05156 0.51573 0.55365 0.0
H2369 H 0.03783 0.47373 0.5506 0.0
H2370 H 0.11654 0.49155 0.43423 0.0
H2371 H 0.0997 0.44998 0.42826 0.0
H2372 H 0.10504 0.53523 0.4382 0.0
H2373 H 0.09963 0.56126 0.46937 0.0
C2374 C 0.50626 0.35579 0.20095 0.0
C2375 C 0.52946 0.38144 0.19834 0.0
C2376 C 0.5121 0.42026 0.23028 0.0
C2377 C 0.48932 0.39449 0.23374 0.0
N2378 N 0.46822 0.3368 0.22862 0.0
N2379 N 0.55794 0.43643 0.21701 0.0
C2380 C 0.48746 0.36194 0.2209 0.0
C2381 C 0.53352 0.41312 0.21522 0.0
N2382 N 0.50198 0.32556 0.18395 0.0
N2383 N 0.51258 0.4518 0.23986 0.0
H2384 H 0.57395 0.43211 0.20626 0.0
H2385 H 0.56344 0.45901 0.23163 0.0
H2386 H 0.49732 0.45813 0.25075 0.0
H2387 H 0.52673 0.47179 0.23455 0.0
H2388 H 0.4838 0.30679 0.18148 0.0
H2389 H 0.51614 0.31968 0.17082 0.0
H2390 H 0.46757 0.31241 0.22301 0.0
H2391 H 0.45436 0.34041 0.24329 0.0
C2392 C 0.64106 0.59227 0.43181 0.0
C2393 C 0.64783 0.6248 0.42433 0.0
C2394 C 0.60468 0.63204 0.43869 0.0
C2395 C 0.59933 0.60104 0.44943 0.0
N2396 N 0.61329 0.55222 0.45862 0.0
N2397 N 0.63922 0.67777 0.42793 0.0
C2398 C 0.61768 0.58119 0.44649 0.0
C2399 C 0.63051 0.64526 0.42992 0.0
N2400 N 0.65622 0.57151 0.42386 0.0
N2401 N 0.58445 0.64836 0.43562 0.0
H2402 H 0.65857 0.68861 0.42278 0.0
H2403 H 0.62873 0.69448 0.43492 0.0
H2404 H 0.56462 0.63835 0.43988 0.0
H2405 H 0.5861 0.66976 0.42519 0.0
H2406 H 0.65013 0.54656 0.42458 0.0
H2407 H 0.67422 0.57875 0.41476 0.0
H2408 H 0.62776 0.5385 0.4612 0.0
H2409 H 0.59571 0.5427 0.46796 0.0
C2410 C 0.32027 0.90466 0.13442 0.0
C2411 C 0.34782 0.92239 0.13317 0.0
C2412 C 0.36445 0.91256 0.19003 0.0
C2413 C 0.33661 0.89669 0.19184 0.0
N2414 N 0.28738 0.88664 0.16874 0.0
N2415 N 0.39466 0.95014 0.16345 0.0
C2416 C 0.31436 0.8954 0.16487 0.0
C2417 C 0.3695 0.92831 0.16207 0.0
N2418 N 0.29987 0.89506 0.10629 0.0
N2419 N 0.3863 0.91161 0.21438 0.0
H2420 H 0.39883 0.96318 0.14425 0.0
H2421 H 0.41024 0.95794 0.18483 0.0
H2422 H 0.38354 0.90044 0.2351 0.0
H2423 H 0.40717 0.91949 0.21271 0.0
H2424 H 0.28031 0.8792 0.10527 0.0
H2425 H 0.30329 0.90018 0.0833 0.0
H2426 H 0.27044 0.88842 0.15117 0.0
H2427 H 0.28243 0.88146 0.19109 0.0
C2428 C 1.00818 0.64024 0.89919 0.0
C2429 C 0.01406 0.67488 0.90304 0.0
C2430 C 0.0543 0.67856 0.94785 0.0
C2431 C 0.04604 0.64426 0.94685 0.0
N2432 N 0.0129 0.59251 0.92446 0.0
N2433 N 0.0401 0.72683 0.93486 0.0
C2434 C 0.02227 0.62512 0.92342 0.0
C2435 C 0.03644 0.69399 0.92847 0.0
N2436 N 0.99066 0.62173 0.87138 0.0
N2437 N 0.07969 0.69634 0.96649 0.0
H2438 H 0.02688 0.73885 0.92191 0.0
H2439 H 0.05447 0.74158 0.95498 0.0
H2440 H 0.09347 0.68586 0.98076 0.0
H2441 H 0.08809 0.72097 0.96561 0.0
H2442 H 0.98803 0.59679 0.86591 0.0
H2443 H 0.98105 0.63148 0.85195 0.0
H2444 H 0.99377 0.57805 0.91051 0.0
H2445 H 0.02324 0.5804 0.94109 0.0
C2446 C 0.32455 0.33122 0.62647 0.0
C2447 C 0.30443 0.30156 0.61186 0.0
C2448 C 0.29436 0.29219 0.6662 0.0
C2449 C 0.31444 0.32207 0.68089 0.0
N2450 N 0.35496 0.36425 0.67574 0.0
N2451 N 0.27624 0.24949 0.61925 0.0
C2452 C 0.33158 0.33972 0.66135 0.0
C2453 C 0.29118 0.2807 0.63218 0.0
N2454 N 0.33671 0.35178 0.60696 0.0
N2455 N 0.2785 0.27441 0.68485 0.0
H2456 H 0.27435 0.23985 0.59498 0.0
H2457 H 0.26822 0.23202 0.63322 0.0
H2458 H 0.28233 0.2796 0.71036 0.0
H2459 H 0.26085 0.25513 0.67494 0.0
H2460 H 0.34852 0.37567 0.61565 0.0
H2461 H 0.33362 0.34563 0.5816 0.0
H2462 H 0.37008 0.37455 0.66308 0.0
H2463 H 0.36056 0.37322 0.70063 0.0
C2464 C 0.62624 0.58729 0.30011 0.0
C2465 C 0.65292 0.58207 0.30035 0.0
C2466 C 0.64623 0.58188 0.24121 0.0
C2467 C 0.62124 0.59129 0.24161 0.0
N2468 N 0.58326 0.5943 0.26775 0.0
N2469 N 0.68385 0.56293 0.27146 0.0
C2470 C 0.6097 0.59081 0.26992 0.0
C2471 C 0.66136 0.57539 0.2708 0.0
N2472 N 0.61756 0.59041 0.32895 0.0
N2473 N 0.65616 0.58097 0.21302 0.0
H2474 H 0.69433 0.55709 0.29309 0.0
H2475 H 0.69036 0.55547 0.2506 0.0
H2476 H 0.64497 0.58438 0.1906 0.0
H2477 H 0.67582 0.57798 0.21192 0.0
H2478 H 0.59986 0.59785 0.33148 0.0
H2479 H 0.62854 0.58573 0.35088 0.0
H2480 H 0.57269 0.59233 0.28686 0.0
H2481 H 0.57097 0.59696 0.24571 0.0
C2482 C 0.30099 0.92317 0.9128 0.0
C2483 C 0.32394 0.92315 0.9385 0.0
C2484 C 0.33562 0.88161 0.90291 0.0
C2485 C 0.31407 0.88345 0.87641 0.0
N2486 N 0.27695 0.90682 0.85519 0.0
N2487 N 0.36597 0.90643 0.95589 0.0
C2488 C 0.29707 0.90468 0.88111 0.0
C2489 C 0.34192 0.9033 0.93303 0.0
N2490 N 0.28246 0.94019 0.91915 0.0
N2491 N 0.34991 0.85866 0.89952 0.0
H2492 H 0.37142 0.92188 0.97817 0.0
H2493 H 0.38172 0.89583 0.95172 0.0
H2494 H 0.34723 0.84365 0.87748 0.0
H2495 H 0.36329 0.85317 0.91902 0.0
H2496 H 0.26411 0.93975 0.90275 0.0
H2497 H 0.28436 0.95328 0.94208 0.0
H2498 H 0.26466 0.92296 0.85573 0.0
H2499 H 0.27321 0.89308 0.83217 0.0
C2500 C 0.02719 0.66595 0.77441 0.0
C2501 C 0.01613 0.6923 0.76578 0.0
C2502 C 0.03772 0.69456 0.71798 0.0
C2503 C 0.04553 0.6657 0.7244 0.0
N2504 N 0.04535 0.62167 0.75652 0.0
N2505 N 1.00824 0.72981 0.72763 0.0
C2506 C 0.03973 0.65085 0.7521 0.0
C2507 C 0.02095 0.70641 0.73728 0.0
N2508 N 0.02657 0.65601 0.80446 0.0
N2509 N 0.0465 0.71068 0.69354 0.0
H2510 H 0.9956 0.73894 0.7409 0.0
H2511 H 1.0084 0.73845 0.70519 0.0
H2512 H 0.05829 0.7022 0.67861 0.0
H2513 H 0.04414 0.73365 0.6898 0.0
H2514 H 0.03704 0.63947 0.81358 0.0
H2515 H 0.01784 0.66653 0.82174 0.0
H2516 H 0.03826 0.60756 0.7738 0.0
H2517 H 0.05541 0.61026 0.74135 0.0
C2518 C 0.2917 0.34057 0.42144 0.0
C2519 C 0.29868 0.31117 0.42799 0.0
C2520 C 0.32981 0.31969 0.38856 0.0
C2521 C 0.32018 0.34679 0.37892 0.0
N2522 N 0.28962 0.38125 0.38471 0.0
N2523 N 0.32134 0.27018 0.41361 0.0
C2524 C 0.30067 0.35692 0.39521 0.0
C2525 C 0.31703 0.30015 0.41051 0.0
N2526 N 0.27704 0.35343 0.44098 0.0
N2527 N 0.35218 0.31335 0.37794 0.0
H2528 H 0.31249 0.25504 0.42918 0.0
H2529 H 0.3317 0.25907 0.39864 0.0
H2530 H 0.36295 0.32783 0.36331 0.0
H2531 H 0.36206 0.29615 0.38665 0.0
H2532 H 0.27374 0.37642 0.44005 0.0
H2533 H 0.27031 0.3423 0.46029 0.0
H2534 H 0.27281 0.38706 0.39254 0.0
H2535 H 0.2957 0.39406 0.36611 0.0
C2536 C 0.3924 0.69991 0.53534 0.0
C2537 C 0.36668 0.69402 0.512 0.0
C2538 C 0.37686 0.64639 0.48434 0.0
C2539 C 0.40382 0.65449 0.50557 0.0
N2540 N 0.4391 0.6923 0.54782 0.0
N2541 N 0.33634 0.66445 0.46115 0.0
C2542 C 0.41208 0.68219 0.53015 0.0
C2543 C 0.35934 0.66789 0.48571 0.0
N2544 N 0.39758 0.7216 0.56326 0.0
N2545 N 0.36767 0.6177 0.46339 0.0
H2546 H 0.32307 0.67964 0.46111 0.0
H2547 H 0.3317 0.64832 0.43948 0.0
H2548 H 0.3799 0.6015 0.46155 0.0
H2549 H 0.34717 0.60866 0.44988 0.0
H2550 H 0.41455 0.72447 0.58279 0.0
H2551 H 0.38344 0.73442 0.56843 0.0
H2552 H 0.44724 0.71424 0.5636 0.0
H2553 H 0.45418 0.68022 0.54448 0.0
C2554 C 0.96362 0.02056 0.57421 0.0
C2555 C 0.93926 0.01863 0.54994 0.0
C2556 C 0.9666 0.06293 0.52552 0.0
C2557 C 0.99153 0.06289 0.54789 0.0
N2558 N 0.01408 0.04175 0.59389 0.0
N2559 N 0.91749 0.03669 0.50142 0.0
C2560 C 0.99009 0.0417 0.57237 0.0
C2561 C 0.94077 0.03962 0.52542 0.0
N2562 N 0.96126 1.00239 0.5993 0.0
N2563 N 0.96756 0.08566 0.50451 0.0
H2564 H 0.89785 0.02181 0.50184 0.0
H2565 H 0.91769 0.04777 0.48031 0.0
H2566 H 0.98616 0.10192 0.50274 0.0
H2567 H 0.94992 0.0899 0.49026 0.0
H2568 H 0.97726 1.0044 0.61966 0.0
H2569 H 0.9424 0.98647 0.60094 0.0
H2570 H 0.01551 0.02454 0.60969 0.0
H2571 H 0.03327 0.0584 0.59514 0.0
C2572 C 0.86189 0.12304 0.2016 0.0
C2573 C 0.89075 0.13283 0.21721 0.0
C2574 C 0.8839 0.18029 0.24843 0.0
C2575 C 0.85549 0.17163 0.23121 0.0
N2576 N 0.81879 0.13889 0.18688 0.0
N2577 N 0.9305 0.17377 0.25036 0.0
C2578 C 0.8449 0.14426 0.20634 0.0
C2579 C 0.90215 0.16238 0.23915 0.0
N2580 N 0.85032 0.09276 0.18373 0.0
N2581 N 0.89318 0.20485 0.27443 0.0
H2582 H 0.94451 0.16141 0.24376 0.0
H2583 H 0.94031 0.19679 0.26366 0.0
H2584 H 0.8805 0.21862 0.28201 0.0
H2585 H 0.91279 0.20994 0.29014 0.0
H2586 H 0.82884 0.08299 0.17493 0.0
H2587 H 0.8618 0.07609 0.18012 0.0
H2588 H 0.81111 0.12137 0.16608 0.0
H2589 H 0.80572 0.15389 0.18979 0.0
C2590 C 0.70697 0.17018 0.04474 0.0
C2591 C 0.70951 0.18492 0.01592 0.0
C2592 C 0.66203 0.15091 0.9889 0.0
C2593 C 0.65781 0.1407 0.01947 0.0
N2594 N 0.68162 0.12594 0.06886 0.0
N2595 N 0.68944 0.18895 0.95996 0.0
C2596 C 0.68186 0.14609 0.04534 0.0
C2597 C 0.68702 0.17509 0.98781 0.0
N2598 N 0.72796 0.18031 0.07227 0.0
N2599 N 0.64387 0.13492 0.9604 0.0
H2600 H 0.70803 0.20455 0.95711 0.0
H2601 H 0.6726 0.18632 0.94035 0.0
H2602 H 0.6287 0.11321 0.9596 0.0
H2603 H 0.64665 0.13967 0.93713 0.0
H2604 H 0.72579 0.1738 0.09521 0.0
H2605 H 0.74692 0.19717 0.07283 0.0
H2606 H 0.69913 0.12678 0.08693 0.0
H2607 H 0.66523 0.10511 0.06721 0.0
C2608 C 0.22164 0.42706 0.26294 0.0
C2609 C 0.22896 0.46132 0.27031 0.0
C2610 C 0.27749 0.46198 0.29335 0.0
C2611 C 0.27075 0.42785 0.28383 0.0
N2612 N 0.23811 0.38071 0.24843 0.0
N2613 N 0.26541 0.51171 0.282 0.0
C2614 C 0.24327 0.41107 0.26545 0.0
C2615 C 0.2574 0.47892 0.28231 0.0
N2616 N 0.19416 0.40962 0.25416 0.0
N2617 N 0.30233 0.47816 0.31414 0.0
H2618 H 0.25131 0.52452 0.27259 0.0
H2619 H 0.28633 0.52524 0.28753 0.0
H2620 H 0.31702 0.46648 0.32437 0.0
H2621 H 0.30693 0.50262 0.32394 0.0
H2622 H 0.18781 0.38429 0.25205 0.0
H2623 H 0.1777 0.42054 0.2516 0.0
H2624 H 0.21895 0.36864 0.2328 0.0
H2625 H 0.25392 0.36959 0.24617 0.0
C2626 C 0.25376 0.49831 0.01857 0.0
C2627 C 0.27589 0.50533 0.04695 0.0
C2628 C 0.25957 0.55153 0.06723 0.0
C2629 C 0.23591 0.54241 0.04053 0.0
N2630 N 0.20809 0.50396 0.99346 0.0
N2631 N 0.29713 0.5354 0.10102 0.0
C2632 C 0.23236 0.5149 0.01693 0.0
C2633 C 0.27815 0.5312 0.07198 0.0
N2634 N 0.25374 0.47663 0.99252 0.0
N2635 N 0.26471 0.58011 0.08763 0.0
H2636 H 0.31082 0.52087 0.10572 0.0
H2637 H 0.29766 0.55138 0.12154 0.0
H2638 H 0.25151 0.59544 0.08515 0.0
H2639 H 0.28318 0.58997 0.10525 0.0
H2640 H 0.23996 0.47306 0.96982 0.0
H2641 H 0.26923 0.46441 0.99246 0.0
H2642 H 0.20284 0.48196 0.97788 0.0
H2643 H 0.19201 0.51545 0.99137 0.0
C2644 C 0.87786 0.99208 0.2493 0.0
C2645 C 0.88413 0.98718 0.2178 0.0
C2646 C 0.8467 0.93609 0.20467 0.0
C2647 C 0.84437 0.93773 0.2382 0.0
N2648 N 0.85722 0.96906 0.29251 0.0
N2649 N 0.8768 0.95195 0.16688 0.0
C2650 C 0.86002 0.96612 0.26062 0.0
C2651 C 0.86899 0.95866 0.19572 0.0
N2652 N 0.8874 0.02232 0.26757 0.0
N2653 N 0.82755 0.9135 0.18093 0.0
H2654 H 0.8934 0.96732 0.15963 0.0
H2655 H 0.86851 0.92964 0.15169 0.0
H2656 H 0.81161 0.89511 0.18559 0.0
H2657 H 0.82643 0.9144 0.15593 0.0
H2658 H 0.88128 0.0284 0.28918 0.0
H2659 H 0.89891 0.04252 0.25931 0.0
H2660 H 0.87127 0.98644 0.31097 0.0
H2661 H 0.84123 0.95389 0.30087 0.0
C2662 C 0.71522 0.10721 0.74875 0.0
C2663 C 0.6921 0.09238 0.72235 0.0
C2664 C 0.70357 0.13914 0.6931 0.0
C2665 C 0.72768 0.15279 0.71838 0.0
N2666 N 0.75941 0.14833 0.76759 0.0
N2667 N 0.66777 0.09035 0.6663 0.0
C2668 C 0.73441 0.13637 0.74543 0.0
C2669 C 0.68711 0.10728 0.69365 0.0
N2670 N 0.71828 0.0942 0.77745 0.0
N2671 N 0.69627 0.15677 0.66886 0.0
H2672 H 0.65609 0.06634 0.66509 0.0
H2673 H 0.66522 0.09884 0.64369 0.0
H2674 H 0.70838 0.17992 0.66726 0.0
H2675 H 0.67723 0.14953 0.65185 0.0
H2676 H 0.73267 0.10615 0.79887 0.0
H2677 H 0.70504 0.07251 0.78091 0.0
H2678 H 0.76698 0.13539 0.78545 0.0
H2679 H 0.77377 0.17024 0.76667 0.0
loop_
_geom_bond_atom_site_label_1
_geom_bond_atom_site_label_2
_geom_bond_distance
_geom_bond_site_symmetry_2
_ccdc_geom_bond_type
C0 O1 1.160 . S
C0 O7 1.185 . S
O1 C0 1.160 . S
O2 Zn3 1.899 . S
O2 C10 1.284 . S
Zn3 O2 1.899 . S
Zn3 O4 2.032 . S
Zn3 O7 2.086 . S
Zn3 O12 1.977 1_455 S
O4 Zn3 2.032 . S
O4 C8 1.278 . S
C5 O6 1.203 . S
C5 O12 1.267 . S
O6 C5 1.203 . S
O7 C0 1.185 . S
O7 Zn3 2.086 . S
C8 O4 1.278 . S
C8 O9 1.211 1_455 S
O9 C8 1.211 1_655 S
C10 O2 1.284 . S
C10 O11 1.273 . S
O11 C10 1.273 . S
O12 Zn3 1.977 1_655 S
O12 C5 1.267 . S
C13 O14 1.160 . S
C13 O20 1.185 . S
O14 C13 1.160 . S
O15 Zn16 1.899 . S
O15 C23 1.284 . S
Zn16 O15 1.899 . S
Zn16 O17 2.032 . S
Zn16 O20 2.086 . S
Zn16 O25 1.977 . S
O17 Zn16 2.032 . S
O17 C21 1.278 . S
C18 O19 1.203 . S
C18 O25 1.267 . S
O19 C18 1.203 . S
O20 C13 1.185 . S
O20 Zn16 2.086 . S
C21 O17 1.278 . S
C21 O22 1.211 . S
O22 C21 1.211 . S
C23 O15 1.284 . S
C23 O24 1.273 . S
O24 C23 1.273 . S
O25 Zn16 1.977 . S
O25 C18 1.267 . S
C26 O27 1.160 . S
C26 O33 1.185 . S
O27 C26 1.160 . S
O28 Zn29 1.899 . S
O28 C36 1.284 . S
Zn29 O28 1.899 . S
Zn29 O30 2.032 . S
Zn29 O33 2.086 . S
Zn29 O38 1.977 . S
O30 Zn29 2.032 . S
O30 C34 1.278 . S
C31 O32 1.203 . S
C31 O38 1.267 . S
O32 C31 1.203 . S
O33 C26 1.185 . S
O33 Zn29 2.086 . S
C34 O30 1.278 . S
C34 O35 1.211 . S
O35 C34 1.211 . S
C36 O28 1.284 . S
C36 O37 1.273 . S
O37 C36 1.273 . S
O38 Zn29 1.977 . S
O38 C31 1.267 . S
C39 O40 1.160 . S
C39 O46 1.185 . S
O40 C39 1.160 . S
O41 Zn42 1.899 . S
O41 C49 1.284 . S
Zn42 O41 1.899 . S
Zn42 O43 2.032 . S
Zn42 O46 2.086 . S
Zn42 O51 1.977 . S
O43 Zn42 2.032 . S
O43 C47 1.278 . S
C44 O45 1.203 . S
C44 O51 1.267 . S
O45 C44 1.203 . S
O46 C39 1.185 . S
O46 Zn42 2.086 . S
C47 O43 1.278 . S
C47 O48 1.211 . S
O48 C47 1.211 . S
C49 O41 1.284 . S
C49 O50 1.273 . S
O50 C49 1.273 . S
O51 Zn42 1.977 . S
O51 C44 1.267 . S
C52 O53 1.160 . S
C52 O59 1.185 . S
O53 C52 1.160 . S
O54 Zn55 1.899 . S
O54 C62 1.284 . S
Zn55 O54 1.899 . S
Zn55 O56 2.032 . S
Zn55 O59 2.086 . S
Zn55 O64 1.977 . S
O56 Zn55 2.032 . S
O56 C60 1.278 . S
C57 O58 1.203 . S
C57 O64 1.267 . S
O58 C57 1.203 . S
O59 C52 1.185 . S
O59 Zn55 2.086 . S
C60 O56 1.278 . S
C60 O61 1.211 . S
O61 C60 1.211 . S
C62 O54 1.284 . S
C62 O63 1.273 . S
O63 C62 1.273 . S
O64 Zn55 1.977 . S
O64 C57 1.267 . S
C65 O66 1.160 . S
C65 O72 1.185 . S
O66 C65 1.160 . S
O67 Zn68 1.899 . S
O67 C75 1.284 . S
Zn68 O67 1.899 . S
Zn68 O69 2.032 . S
Zn68 O72 2.086 . S
Zn68 O77 1.977 . S
O69 Zn68 2.032 . S
O69 C73 1.278 . S
C70 O71 1.203 . S
C70 O77 1.267 . S
O71 C70 1.203 . S
O72 C65 1.185 . S
O72 Zn68 2.086 . S
C73 O69 1.278 . S
C73 O74 1.211 . S
O74 C73 1.211 . S
C75 O67 1.284 . S
C75 O76 1.273 . S
O76 C75 1.273 . S
O77 Zn68 1.977 . S
O77 C70 1.267 . S
C78 O79 1.160 . S
C78 O85 1.185 . S
O79 C78 1.160 . S
O80 Zn81 1.899 . S
O80 C88 1.284 . S
Zn81 O80 1.899 . S
Zn81 O82 2.032 . S
Zn81 O85 2.086 . S
Zn81 O90 1.977 . S
O82 Zn81 2.032 . S
O82 C86 1.278 . S
C83 O84 1.203 . S
C83 O90 1.267 . S
O84 C83 1.203 . S
O85 C78 1.185 . S
O85 Zn81 2.086 . S
C86 O82 1.278 . S
C86 O87 1.211 . S
O87 C86 1.211 . S
C88 O80 1.284 . S
C88 O89 1.273 . S
O89 C88 1.273 . S
O90 Zn81 1.977 . S
O90 C83 1.267 . S
C91 O92 1.160 . S
C91 O98 1.185 . S
O92 C91 1.160 . S
O93 Zn94 1.899 . S
O93 C101 1.284 . S
Zn94 O93 1.899 . S
Zn94 O95 2.032 . S
Zn94 O98 2.086 . S
Zn94 O103 1.977 1_455 S
O95 Zn94 2.032 . S
O95 C99 1.278 . S
C96 O97 1.203 . S
C96 O103 1.267 . S
O97 C96 1.203 . S
O98 C91 1.185 . S
O98 Zn94 2.086 . S
C99 O95 1.278 . S
C99 O100 1.211 . S
O100 C99 1.211 . S
C101 O93 1.284 . S
C101 O102 1.273 . S
O102 C101 1.273 . S
O103 Zn94 1.977 1_655 S
O103 C96 1.267 . S
C104 O105 1.160 . S
C104 O111 1.185 . S
O105 C104 1.160 . S
O106 Zn107 1.899 . S
O106 C114 1.284 . S
Zn107 O106 1.899 . S
Zn107 O108 2.032 . S
Zn107 O111 2.086 . S
Zn107 O116 1.977 . S
O108 Zn107 2.032 . S
O108 C112 1.278 . S
C109 O110 1.203 . S
C109 O116 1.267 . S
O110 C109 1.203 . S
O111 C104 1.185 . S
O111 Zn107 2.086 . S
C112 O108 1.278 . S
C112 O113 1.211 . S
O113 C112 1.211 . S
C114 O106 1.284 . S
C114 O115 1.273 . S
O115 C114 1.273 . S
O116 Zn107 1.977 . S
O116 C109 1.267 . S
C117 O118 1.160 . S
C117 O124 1.185 . S
O118 C117 1.160 . S
O119 Zn120 1.899 . S
O119 C127 1.284 . S
Zn120 O119 1.899 . S
Zn120 O121 2.032 . S
Zn120 O124 2.086 . S
Zn120 O129 1.977 . S
O121 Zn120 2.032 . S
O121 C125 1.278 . S
C122 O123 1.203 . S
C122 O129 1.267 . S
O123 C122 1.203 . S
O124 C117 1.185 . S
O124 Zn120 2.086 . S
C125 O121 1.278 . S
C125 O126 1.211 . S
O126 C125 1.211 . S
C127 O119 1.284 . S
C127 O128 1.273 . S
O128 C127 1.273 . S
O129 Zn120 1.977 . S
O129 C122 1.267 . S
C130 O131 1.160 . S
C130 O137 1.185 . S
O131 C130 1.160 . S
O132 Zn133 1.899 . S
O132 C140 1.284 . S
Zn133 O132 1.899 . S
Zn133 O134 2.032 . S
Zn133 O137 2.086 . S
Zn133 O142 1.977 . S
O134 Zn133 2.032 . S
O134 C138 1.278 . S
C135 O136 1.203 . S
C135 O142 1.267 . S
O136 C135 1.203 . S
O137 C130 1.185 . S
O137 Zn133 2.086 . S
C138 O134 1.278 . S
C138 O139 1.211 . S
O139 C138 1.211 . S
C140 O132 1.284 . S
C140 O141 1.273 . S
O141 C140 1.273 . S
O142 Zn133 1.977 . S
O142 C135 1.267 . S
C143 O144 1.160 . S
C143 O150 1.185 . S
O144 C143 1.160 . S
O145 Zn146 1.899 . S
O145 C153 1.284 . S
Zn146 O145 1.899 . S
Zn146 O147 2.032 . S
Zn146 O150 2.086 . S
Zn146 O155 1.977 . S
O147 Zn146 2.032 . S
O147 C151 1.278 . S
C148 O149 1.203 . S
C148 O155 1.267 . S
O149 C148 1.203 . S
O150 C143 1.185 . S
O150 Zn146 2.086 . S
C151 O147 1.278 . S
C151 O152 1.211 . S
O152 C151 1.211 . S
C153 O145 1.284 . S
C153 O154 1.273 . S
O154 C153 1.273 . S
O155 Zn146 1.977 . S
O155 C148 1.267 . S
C156 O157 1.160 . S
C156 O163 1.185 . S
O157 C156 1.160 . S
O158 Zn159 1.899 . S
O158 C166 1.284 . S
Zn159 O158 1.899 . S
Zn159 O160 2.032 . S
Zn159 O163 2.086 . S
Zn159 O168 1.977 . S
O160 Zn159 2.032 . S
O160 C164 1.278 1_554 S
C161 O162 1.203 . S
C161 O168 1.267 . S
O162 C161 1.203 . S
O163 C156 1.185 . S
O163 Zn159 2.086 . S
C164 O160 1.278 1_556 S
C164 O165 1.211 . S
O165 C164 1.211 . S
C166 O158 1.284 . S
C166 O167 1.273 . S
O167 C166 1.273 . S
O168 Zn159 1.977 . S
O168 C161 1.267 . S
C169 O170 1.160 . S
C169 O176 1.185 1_554 S
O170 C169 1.160 . S
O171 Zn172 1.899 . S
O171 C179 1.284 . S
Zn172 O171 1.899 . S
Zn172 O173 2.032 1_554 S
Zn172 O176 2.086 1_554 S
Zn172 O181 1.977 1_554 S
O173 Zn172 2.032 1_556 S
O173 C177 1.278 . S
C174 O175 1.203 1_556 S
C174 O181 1.267 . S
O175 C174 1.203 1_554 S
O176 C169 1.185 1_556 S
O176 Zn172 2.086 1_556 S
C177 O173 1.278 . S
C177 O178 1.211 . S
O178 C177 1.211 . S
C179 O171 1.284 . S
C179 O180 1.273 . S
O180 C179 1.273 . S
O181 Zn172 1.977 1_556 S
O181 C174 1.267 . S
C182 O183 1.160 . S
C182 O189 1.185 . S
O183 C182 1.160 . S
O184 Zn185 1.899 . S
O184 C192 1.284 . S
Zn185 O184 1.899 . S
Zn185 O186 2.032 . S
Zn185 O189 2.086 . S
Zn185 O194 1.977 . S
O186 Zn185 2.032 . S
O186 C190 1.278 . S
C187 O188 1.203 . S
C187 O194 1.267 . S
O188 C187 1.203 . S
O189 C182 1.185 . S
O189 Zn185 2.086 . S
C190 O186 1.278 . S
C190 O191 1.211 . S
O191 C190 1.211 . S
C192 O184 1.284 . S
C192 O193 1.273 . S
O193 C192 1.273 . S
O194 Zn185 1.977 . S
O194 C187 1.267 . S
C195 O196 1.160 . S
C195 O202 1.185 . S
O196 C195 1.160 . S
O197 Zn198 1.899 . S
O197 C205 1.284 . S
Zn198 O197 1.899 . S
Zn198 O199 2.032 . S
Zn198 O202 2.086 . S
Zn198 O207 1.977 . S
O199 Zn198 2.032 . S
O199 C203 1.278 . S
C200 O201 1.203 . S
C200 O207 1.267 . S
O201 C200 1.203 . S
O202 C195 1.185 . S
O202 Zn198 2.086 . S
C203 O199 1.278 . S
C203 O204 1.211 . S
O204 C203 1.211 . S
C205 O197 1.284 . S
C205 O206 1.273 . S
O206 C205 1.273 . S
O207 Zn198 1.977 . S
O207 C200 1.267 . S
C208 O209 1.160 . S
C208 O215 1.185 . S
O209 C208 1.160 . S
O210 Zn211 1.899 . S
O210 C218 1.284 . S
Zn211 O210 1.899 . S
Zn211 O212 2.032 . S
Zn211 O215 2.086 . S
Zn211 O220 1.977 . S
O212 Zn211 2.032 . S
O212 C216 1.278 . S
C213 O214 1.203 . S
C213 O220 1.267 1_565 S
O214 C213 1.203 . S
O215 C208 1.185 . S
O215 Zn211 2.086 . S
C216 O212 1.278 . S
C216 O217 1.211 . S
O217 C216 1.211 . S
C218 O210 1.284 . S
C218 O219 1.273 . S
O219 C218 1.273 . S
O220 Zn211 1.977 . S
O220 C213 1.267 1_545 S
C221 O222 1.160 . S
C221 O228 1.185 . S
O222 C221 1.160 . S
O223 Zn224 1.899 . S
O223 C231 1.284 . S
Zn224 O223 1.899 . S
Zn224 O225 2.032 . S
Zn224 O228 2.086 . S
Zn224 O233 1.977 . S
O225 Zn224 2.032 . S
O225 C229 1.278 . S
C226 O227 1.203 . S
C226 O233 1.267 . S
O227 C226 1.203 . S
O228 C221 1.185 . S
O228 Zn224 2.086 . S
C229 O225 1.278 . S
C229 O230 1.211 . S
O230 C229 1.211 . S
C231 O223 1.284 . S
C231 O232 1.273 . S
O232 C231 1.273 . S
O233 Zn224 1.977 . S
O233 C226 1.267 . S
C234 O235 1.160 . S
C234 O241 1.185 . S
O235 C234 1.160 . S
O236 Zn237 1.899 . S
O236 C244 1.284 . S
Zn237 O236 1.899 . S
Zn237 O238 2.032 . S
Zn237 O241 2.086 . S
Zn237 O246 1.977 . S
O238 Zn237 2.032 . S
O238 C242 1.278 . S
C239 O240 1.203 . S
C239 O246 1.267 . S
O240 C239 1.203 . S
O241 C234 1.185 . S
O241 Zn237 2.086 . S
C242 O238 1.278 . S
C242 O243 1.211 . S
O243 C242 1.211 . S
C244 O236 1.284 . S
C244 O245 1.273 . S
O245 C244 1.273 . S
O246 Zn237 1.977 . S
O246 C239 1.267 . S
C247 O248 1.160 . S
C247 O254 1.185 . S
O248 C247 1.160 . S
O249 Zn250 1.899 . S
O249 C257 1.284 . S
Zn250 O249 1.899 . S
Zn250 O251 2.032 . S
Zn250 O254 2.086 . S
Zn250 O259 1.977 1_565 S
O251 Zn250 2.032 . S
O251 C255 1.278 1_565 S
C252 O253 1.203 . S
C252 O259 1.267 . S
O253 C252 1.203 . S
O254 C247 1.185 . S
O254 Zn250 2.086 . S
C255 O251 1.278 1_545 S
C255 O256 1.211 . S
O256 C255 1.211 . S
C257 O249 1.284 . S
C257 O258 1.273 1_565 S
O258 C257 1.273 1_545 S
O259 Zn250 1.977 1_545 S
O259 C252 1.267 . S
C260 O261 1.160 . S
C260 O267 1.185 . S
O261 C260 1.160 . S
O262 Zn263 1.899 . S
O262 C270 1.284 . S
Zn263 O262 1.899 . S
Zn263 O264 2.032 1_554 S
Zn263 O267 2.086 . S
Zn263 O272 1.977 . S
O264 Zn263 2.032 1_556 S
O264 C268 1.278 . S
C265 O266 1.203 . S
C265 O272 1.267 . S
O266 C265 1.203 . S
O267 C260 1.185 . S
O267 Zn263 2.086 . S
C268 O264 1.278 . S
C268 O269 1.211 . S
O269 C268 1.211 . S
C270 O262 1.284 . S
C270 O271 1.273 . S
O271 C270 1.273 . S
O272 Zn263 1.977 . S
O272 C265 1.267 . S
C273 O274 1.160 . S
C273 O280 1.185 . S
O274 C273 1.160 . S
O275 Zn276 1.899 . S
O275 C283 1.284 1_655 S
Zn276 O275 1.899 . S
Zn276 O277 2.032 . S
Zn276 O280 2.086 . S
Zn276 O285 1.977 . S
O277 Zn276 2.032 . S
O277 C281 1.278 1_655 S
C278 O279 1.203 . S
C278 O285 1.267 . S
O279 C278 1.203 . S
O280 C273 1.185 . S
O280 Zn276 2.086 . S
C281 O277 1.278 1_455 S
C281 O282 1.211 . S
O282 C281 1.211 . S
C283 O275 1.284 1_455 S
C283 O284 1.273 . S
O284 C283 1.273 . S
O285 Zn276 1.977 . S
O285 C278 1.267 . S
C286 O287 1.160 . S
C286 O293 1.185 . S
O287 C286 1.160 . S
O288 Zn289 1.899 . S
O288 C296 1.284 . S
Zn289 O288 1.899 . S
Zn289 O290 2.032 . S
Zn289 O293 2.086 . S
Zn289 O298 1.977 . S
O290 Zn289 2.032 . S
O290 C294 1.278 . S
C291 O292 1.203 . S
C291 O298 1.267 . S
O292 C291 1.203 . S
O293 C286 1.185 . S
O293 Zn289 2.086 . S
C294 O290 1.278 . S
C294 O295 1.211 . S
O295 C294 1.211 . S
C296 O288 1.284 . S
C296 O297 1.273 . S
O297 C296 1.273 . S
O298 Zn289 1.977 . S
O298 C291 1.267 . S
C299 O300 1.160 . S
C299 O306 1.185 . S
O300 C299 1.160 . S
O301 Zn302 1.899 . S
O301 C309 1.284 . S
Zn302 O301 1.899 . S
Zn302 O303 2.032 . S
Zn302 O306 2.086 . S
Zn302 O311 1.977 . S
O303 Zn302 2.032 . S
O303 C307 1.278 . S
C304 O305 1.203 . S
C304 O311 1.267 . S
O305 C304 1.203 . S
O306 C299 1.185 . S
O306 Zn302 2.086 . S
C307 O303 1.278 . S
C307 O308 1.211 . S
O308 C307 1.211 . S
C309 O301 1.284 . S
C309 O310 1.273 . S
O310 C309 1.273 . S
O311 Zn302 1.977 . S
O311 C304 1.267 . S
Pr312 C314 2.880 1_455 S
Pr312 O332 2.562 1_455 S
Pr312 O333 2.490 1_455 S
Pr312 O334 2.695 . S
Pr312 O335 2.512 . S
Pr312 O337 2.437 . S
Pr312 O340 2.436 1_556 S
Pr312 O342 2.438 1_556 S
Pr313 C323 2.880 . S
Pr313 O334 2.436 1_554 S
Pr313 O336 2.438 . S
Pr313 O338 2.562 . S
Pr313 O339 2.490 . S
Pr313 O340 2.695 . S
Pr313 O341 2.512 . S
Pr313 O343 2.437 . S
C314 Pr312 2.880 1_655 S
C314 C315 1.491 . S
C314 O332 1.254 . S
C314 O333 1.225 . S
C315 C314 1.491 . S
C315 C316 1.392 . S
C315 C320 1.356 . S
C316 C315 1.392 . S
C316 C317 1.368 . S
C316 H344 0.929 . S
C317 C316 1.368 . S
C317 C318 1.386 . S
C317 H345 0.929 . S
C318 C317 1.386 . S
C318 C319 1.373 . S
C319 C318 1.373 . S
C319 C320 1.409 . S
C319 H346 0.931 . S
C320 C315 1.356 . S
C320 C319 1.409 . S
C320 H347 0.930 . S
C321 O334 1.270 . S
C321 O335 1.248 . S
C322 O336 1.267 . S
C322 O337 1.278 1_554 S
C323 Pr313 2.880 . S
C323 C324 1.491 . S
C323 O338 1.254 . S
C323 O339 1.225 . S
C324 C323 1.491 . S
C324 C325 1.392 . S
C324 C329 1.356 . S
C325 C324 1.392 . S
C325 C326 1.368 . S
C325 H348 0.929 . S
C326 C325 1.368 . S
C326 C327 1.386 . S
C326 H349 0.929 . S
C327 C326 1.386 . S
C327 C328 1.373 . S
C328 C327 1.373 . S
C328 C329 1.409 . S
C328 H350 0.931 . S
C329 C324 1.356 . S
C329 C328 1.409 . S
C329 H351 0.930 . S
C330 O340 1.270 . S
C330 O341 1.248 . S
C331 O342 1.267 . S
C331 O343 1.278 . S
O332 Pr312 2.562 1_655 S
O332 C314 1.254 . S
O333 Pr312 2.490 1_655 S
O333 C314 1.225 . S
O334 Pr312 2.695 . S
O334 Pr313 2.436 1_556 S
O334 C321 1.270 . S
O335 Pr312 2.512 . S
O335 C321 1.248 . S
O336 Pr313 2.438 . S
O336 C322 1.267 . S
O337 Pr312 2.437 . S
O337 C322 1.278 1_556 S
O338 Pr313 2.562 . S
O338 C323 1.254 . S
O339 Pr313 2.490 . S
O339 C323 1.225 . S
O340 Pr312 2.436 1_554 S
O340 Pr313 2.695 . S
O340 C330 1.270 . S
O341 Pr313 2.512 . S
O341 C330 1.248 . S
O342 Pr312 2.438 1_554 S
O342 C331 1.267 . S
O343 Pr313 2.437 . S
O343 C331 1.278 . S
H344 C316 0.929 . S
H345 C317 0.929 . S
H346 C319 0.931 . S
H347 C320 0.930 . S
H348 C325 0.929 . S
H349 C326 0.929 . S
H350 C328 0.931 . S
H351 C329 0.930 . S
Pr352 C354 2.880 . S
Pr352 O372 2.562 . S
Pr352 O373 2.490 . S
Pr352 O374 2.695 . S
Pr352 O375 2.512 . S
Pr352 O377 2.437 . S
Pr352 O380 2.436 . S
Pr352 O382 2.438 . S
Pr353 C363 2.880 . S
Pr353 O374 2.436 . S
Pr353 O376 2.438 . S
Pr353 O378 2.562 . S
Pr353 O379 2.490 . S
Pr353 O380 2.695 . S
Pr353 O381 2.512 . S
Pr353 O383 2.437 . S
C354 Pr352 2.880 . S
C354 C355 1.491 . S
C354 O372 1.254 . S
C354 O373 1.225 . S
C355 C354 1.491 . S
C355 C356 1.392 1_565 S
C355 C360 1.356 . S
C356 C355 1.392 1_545 S
C356 C357 1.368 . S
C356 H384 0.929 . S
C357 C356 1.368 . S
C357 C358 1.386 . S
C357 H385 0.929 . S
C358 C357 1.386 . S
C358 C359 1.373 . S
C359 C358 1.373 . S
C359 C360 1.409 1_545 S
C359 H386 0.931 . S
C360 C355 1.356 . S
C360 C359 1.409 1_565 S
C360 H387 0.930 . S
C361 O374 1.270 . S
C361 O375 1.248 . S
C362 O376 1.267 . S
C362 O377 1.278 . S
C363 Pr353 2.880 . S
C363 C364 1.491 . S
C363 O378 1.254 . S
C363 O379 1.225 . S
C364 C363 1.491 . S
C364 C365 1.392 . S
C364 C369 1.356 . S
C365 C364 1.392 . S
C365 C366 1.368 . S
C365 H388 0.929 . S
C366 C365 1.368 . S
C366 C367 1.386 . S
C366 H389 0.929 . S
C367 C366 1.386 . S
C367 C368 1.373 . S
C368 C367 1.373 . S
C368 C369 1.409 . S
C368 H390 0.931 . S
C369 C364 1.356 . S
C369 C368 1.409 . S
C369 H391 0.930 . S
C370 O380 1.270 . S
C370 O381 1.248 . S
C371 O382 1.267 . S
C371 O383 1.278 . S
O372 Pr352 2.562 . S
O372 C354 1.254 . S
O373 Pr352 2.490 . S
O373 C354 1.225 . S
O374 Pr352 2.695 . S
O374 Pr353 2.436 . S
O374 C361 1.270 . S
O375 Pr352 2.512 . S
O375 C361 1.248 . S
O376 Pr353 2.438 . S
O376 C362 1.267 . S
O377 Pr352 2.437 . S
O377 C362 1.278 . S
O378 Pr353 2.562 . S
O378 C363 1.254 . S
O379 Pr353 2.490 . S
O379 C363 1.225 . S
O380 Pr352 2.436 . S
O380 Pr353 2.695 . S
O380 C370 1.270 . S
O381 Pr353 2.512 . S
O381 C370 1.248 . S
O382 Pr352 2.438 . S
O382 C371 1.267 . S
O383 Pr353 2.437 . S
O383 C371 1.278 . S
H384 C356 0.929 . S
H385 C357 0.929 . S
H386 C359 0.931 . S
H387 C360 0.930 . S
H388 C365 0.929 . S
H389 C366 0.929 . S
H390 C368 0.931 . S
H391 C369 0.930 . S
Pr392 C394 2.880 . S
Pr392 O412 2.562 . S
Pr392 O413 2.490 . S
Pr392 O414 2.695 . S
Pr392 O415 2.512 . S
Pr392 O417 2.437 . S
Pr392 O420 2.436 . S
Pr392 O422 2.438 . S
Pr393 C403 2.880 . S
Pr393 O414 2.436 . S
Pr393 O416 2.438 . S
Pr393 O418 2.562 . S
Pr393 O419 2.490 . S
Pr393 O420 2.695 . S
Pr393 O421 2.512 . S
Pr393 O423 2.437 . S
C394 Pr392 2.880 . S
C394 C395 1.491 . S
C394 O412 1.254 . S
C394 O413 1.225 . S
C395 C394 1.491 . S
C395 C396 1.392 . S
C395 C400 1.356 . S
C396 C395 1.392 . S
C396 C397 1.368 . S
C396 H424 0.929 . S
C397 C396 1.368 . S
C397 C398 1.386 . S
C397 H425 0.929 . S
C398 C397 1.386 . S
C398 C399 1.373 . S
C399 C398 1.373 . S
C399 C400 1.409 . S
C399 H426 0.931 . S
C400 C395 1.356 . S
C400 C399 1.409 . S
C400 H427 0.930 . S
C401 O414 1.270 . S
C401 O415 1.248 . S
C402 O416 1.267 . S
C402 O417 1.278 . S
C403 Pr393 2.880 . S
C403 C404 1.491 . S
C403 O418 1.254 . S
C403 O419 1.225 . S
C404 C403 1.491 . S
C404 C405 1.392 . S
C404 C409 1.356 . S
C405 C404 1.392 . S
C405 C406 1.368 . S
C405 H428 0.929 . S
C406 C405 1.368 . S
C406 C407 1.386 . S
C406 H429 0.929 . S
C407 C406 1.386 . S
C407 C408 1.373 . S
C408 C407 1.373 . S
C408 C409 1.409 . S
C408 H430 0.931 . S
C409 C404 1.356 . S
C409 C408 1.409 . S
C409 H431 0.930 . S
C410 O420 1.270 . S
C410 O421 1.248 . S
C411 O422 1.267 . S
C411 O423 1.278 . S
O412 Pr392 2.562 . S
O412 C394 1.254 . S
O413 Pr392 2.490 . S
O413 C394 1.225 . S
O414 Pr392 2.695 . S
O414 Pr393 2.436 . S
O414 C401 1.270 . S
O415 Pr392 2.512 . S
O415 C401 1.248 . S
O416 Pr393 2.438 . S
O416 C402 1.267 . S
O417 Pr392 2.437 . S
O417 C402 1.278 . S
O418 Pr393 2.562 . S
O418 C403 1.254 . S
O419 Pr393 2.490 . S
O419 C403 1.225 . S
O420 Pr392 2.436 . S
O420 Pr393 2.695 . S
O420 C410 1.270 . S
O421 Pr393 2.512 . S
O421 C410 1.248 . S
O422 Pr392 2.438 . S
O422 C411 1.267 . S
O423 Pr393 2.437 . S
O423 C411 1.278 . S
H424 C396 0.929 . S
H425 C397 0.929 . S
H426 C399 0.931 . S
H427 C400 0.930 . S
H428 C405 0.929 . S
H429 C406 0.929 . S
H430 C408 0.931 . S
H431 C409 0.930 . S
Pr432 C434 2.880 . S
Pr432 O452 2.562 . S
Pr432 O453 2.490 . S
Pr432 O454 2.695 . S
Pr432 O455 2.512 . S
Pr432 O457 2.437 . S
Pr432 O460 2.436 . S
Pr432 O462 2.438 . S
Pr433 C443 2.880 . S
Pr433 O454 2.436 . S
Pr433 O456 2.438 . S
Pr433 O458 2.562 . S
Pr433 O459 2.490 . S
Pr433 O460 2.695 . S
Pr433 O461 2.512 . S
Pr433 O463 2.437 . S
C434 Pr432 2.880 . S
C434 C435 1.491 . S
C434 O452 1.254 . S
C434 O453 1.225 . S
C435 C434 1.491 . S
C435 C436 1.392 . S
C435 C440 1.356 . S
C436 C435 1.392 . S
C436 C437 1.368 . S
C436 H464 0.929 . S
C437 C436 1.368 . S
C437 C438 1.386 . S
C437 H465 0.929 . S
C438 C437 1.386 . S
C438 C439 1.373 . S
C439 C438 1.373 . S
C439 C440 1.409 . S
C439 H466 0.931 . S
C440 C435 1.356 . S
C440 C439 1.409 . S
C440 H467 0.930 . S
C441 O454 1.270 . S
C441 O455 1.248 . S
C442 O456 1.267 . S
C442 O457 1.278 . S
C443 Pr433 2.880 . S
C443 C444 1.491 . S
C443 O458 1.254 . S
C443 O459 1.225 . S
C444 C443 1.491 . S
C444 C445 1.392 . S
C444 C449 1.356 . S
C445 C444 1.392 . S
C445 C446 1.368 . S
C445 H468 0.929 . S
C446 C445 1.368 . S
C446 C447 1.386 . S
C446 H469 0.929 . S
C447 C446 1.386 . S
C447 C448 1.373 . S
C448 C447 1.373 . S
C448 C449 1.409 . S
C448 H470 0.931 . S
C449 C444 1.356 . S
C449 C448 1.409 . S
C449 H471 0.930 . S
C450 O460 1.270 . S
C450 O461 1.248 . S
C451 O462 1.267 . S
C451 O463 1.278 . S
O452 Pr432 2.562 . S
O452 C434 1.254 . S
O453 Pr432 2.490 . S
O453 C434 1.225 . S
O454 Pr432 2.695 . S
O454 Pr433 2.436 . S
O454 C441 1.270 . S
O455 Pr432 2.512 . S
O455 C441 1.248 . S
O456 Pr433 2.438 . S
O456 C442 1.267 . S
O457 Pr432 2.437 . S
O457 C442 1.278 . S
O458 Pr433 2.562 . S
O458 C443 1.254 . S
O459 Pr433 2.490 . S
O459 C443 1.225 . S
O460 Pr432 2.436 . S
O460 Pr433 2.695 . S
O460 C450 1.270 . S
O461 Pr433 2.512 . S
O461 C450 1.248 . S
O462 Pr432 2.438 . S
O462 C451 1.267 . S
O463 Pr433 2.437 . S
O463 C451 1.278 . S
H464 C436 0.929 . S
H465 C437 0.929 . S
H466 C439 0.931 . S
H467 C440 0.930 . S
H468 C445 0.929 . S
H469 C446 0.929 . S
H470 C448 0.931 . S
H471 C449 0.930 . S
Pr472 C474 2.880 . S
Pr472 O492 2.562 . S
Pr472 O493 2.490 . S
Pr472 O494 2.695 . S
Pr472 O495 2.512 . S
Pr472 O497 2.437 . S
Pr472 O500 2.436 . S
Pr472 O502 2.438 . S
Pr473 C483 2.880 . S
Pr473 O494 2.436 . S
Pr473 O496 2.438 . S
Pr473 O498 2.562 . S
Pr473 O499 2.490 . S
Pr473 O500 2.695 . S
Pr473 O501 2.512 . S
Pr473 O503 2.437 . S
C474 Pr472 2.880 . S
C474 C475 1.491 . S
C474 O492 1.254 . S
C474 O493 1.225 . S
C475 C474 1.491 . S
C475 C476 1.392 . S
C475 C480 1.356 1_455 S
C476 C475 1.392 . S
C476 C477 1.368 . S
C476 H504 0.929 . S
C477 C476 1.368 . S
C477 C478 1.386 1_455 S
C477 H505 0.929 . S
C478 C477 1.386 1_655 S
C478 C479 1.373 . S
C479 C478 1.373 . S
C479 C480 1.409 . S
C479 H506 0.931 . S
C480 C475 1.356 1_655 S
C480 C479 1.409 . S
C480 H507 0.930 . S
C481 O494 1.270 . S
C481 O495 1.248 . S
C482 O496 1.267 . S
C482 O497 1.278 . S
C483 Pr473 2.880 . S
C483 C484 1.491 . S
C483 O498 1.254 . S
C483 O499 1.225 . S
C484 C483 1.491 . S
C484 C485 1.392 . S
C484 C489 1.356 . S
C485 C484 1.392 . S
C485 C486 1.368 . S
C485 H508 0.929 . S
C486 C485 1.368 . S
C486 C487 1.386 . S
C486 H509 0.929 . S
C487 C486 1.386 . S
C487 C488 1.373 . S
C488 C487 1.373 . S
C488 C489 1.409 . S
C488 H510 0.931 . S
C489 C484 1.356 . S
C489 C488 1.409 . S
C489 H511 0.930 . S
C490 O500 1.270 . S
C490 O501 1.248 . S
C491 O502 1.267 . S
C491 O503 1.278 . S
O492 Pr472 2.562 . S
O492 C474 1.254 . S
O493 Pr472 2.490 . S
O493 C474 1.225 . S
O494 Pr472 2.695 . S
O494 Pr473 2.436 . S
O494 C481 1.270 . S
O495 Pr472 2.512 . S
O495 C481 1.248 . S
O496 Pr473 2.438 . S
O496 C482 1.267 . S
O497 Pr472 2.437 . S
O497 C482 1.278 . S
O498 Pr473 2.562 . S
O498 C483 1.254 . S
O499 Pr473 2.490 . S
O499 C483 1.225 . S
O500 Pr472 2.436 . S
O500 Pr473 2.695 . S
O500 C490 1.270 . S
O501 Pr473 2.512 . S
O501 C490 1.248 . S
O502 Pr472 2.438 . S
O502 C491 1.267 . S
O503 Pr473 2.437 . S
O503 C491 1.278 . S
H504 C476 0.929 . S
H505 C477 0.929 . S
H506 C479 0.931 . S
H507 C480 0.930 . S
H508 C485 0.929 . S
H509 C486 0.929 . S
H510 C488 0.931 . S
H511 C489 0.930 . S
Pr512 C514 2.880 . S
Pr512 O532 2.562 . S
Pr512 O533 2.490 . S
Pr512 O534 2.695 . S
Pr512 O535 2.512 . S
Pr512 O537 2.437 . S
Pr512 O540 2.436 . S
Pr512 O542 2.438 . S
Pr513 C523 2.880 . S
Pr513 O534 2.436 . S
Pr513 O536 2.438 . S
Pr513 O538 2.562 . S
Pr513 O539 2.490 . S
Pr513 O540 2.695 . S
Pr513 O541 2.512 . S
Pr513 O543 2.437 . S
C514 Pr512 2.880 . S
C514 C515 1.491 . S
C514 O532 1.254 . S
C514 O533 1.225 . S
C515 C514 1.491 . S
C515 C516 1.392 . S
C515 C520 1.356 . S
C516 C515 1.392 . S
C516 C517 1.368 . S
C516 H544 0.929 . S
C517 C516 1.368 . S
C517 C518 1.386 . S
C517 H545 0.929 . S
C518 C517 1.386 . S
C518 C519 1.373 . S
C519 C518 1.373 . S
C519 C520 1.409 . S
C519 H546 0.931 . S
C520 C515 1.356 . S
C520 C519 1.409 . S
C520 H547 0.930 . S
C521 O534 1.270 . S
C521 O535 1.248 . S
C522 O536 1.267 . S
C522 O537 1.278 . S
C523 Pr513 2.880 . S
C523 C524 1.491 . S
C523 O538 1.254 . S
C523 O539 1.225 . S
C524 C523 1.491 . S
C524 C525 1.392 . S
C524 C529 1.356 . S
C525 C524 1.392 . S
C525 C526 1.368 1_565 S
C525 H548 0.929 . S
C526 C525 1.368 1_545 S
C526 C527 1.386 . S
C526 H549 0.929 . S
C527 C526 1.386 . S
C527 C528 1.373 . S
C528 C527 1.373 . S
C528 C529 1.409 1_545 S
C528 H550 0.931 . S
C529 C524 1.356 . S
C529 C528 1.409 1_565 S
C529 H551 0.930 . S
C530 O540 1.270 . S
C530 O541 1.248 . S
C531 O542 1.267 . S
C531 O543 1.278 . S
O532 Pr512 2.562 . S
O532 C514 1.254 . S
O533 Pr512 2.490 . S
O533 C514 1.225 . S
O534 Pr512 2.695 . S
O534 Pr513 2.436 . S
O534 C521 1.270 . S
O535 Pr512 2.512 . S
O535 C521 1.248 . S
O536 Pr513 2.438 . S
O536 C522 1.267 . S
O537 Pr512 2.437 . S
O537 C522 1.278 . S
O538 Pr513 2.562 . S
O538 C523 1.254 . S
O539 Pr513 2.490 . S
O539 C523 1.225 . S
O540 Pr512 2.436 . S
O540 Pr513 2.695 . S
O540 C530 1.270 . S
O541 Pr513 2.512 . S
O541 C530 1.248 . S
O542 Pr512 2.438 . S
O542 C531 1.267 . S
O543 Pr513 2.437 . S
O543 C531 1.278 . S
H544 C516 0.929 . S
H545 C517 0.929 . S
H546 C519 0.931 . S
H547 C520 0.930 . S
H548 C525 0.929 . S
H549 C526 0.929 . S
H550 C528 0.931 . S
H551 C529 0.930 . S
Pr552 C554 2.880 . S
Pr552 O572 2.562 . S
Pr552 O573 2.490 . S
Pr552 O574 2.695 . S
Pr552 O575 2.512 . S
Pr552 O577 2.437 . S
Pr552 O580 2.436 . S
Pr552 O582 2.438 . S
Pr553 C563 2.880 . S
Pr553 O574 2.436 1_556 S
Pr553 O576 2.438 1_556 S
Pr553 O578 2.562 . S
Pr553 O579 2.490 . S
Pr553 O580 2.695 1_556 S
Pr553 O581 2.512 1_556 S
Pr553 O583 2.437 1_556 S
C554 Pr552 2.880 . S
C554 C555 1.491 . S
C554 O572 1.254 . S
C554 O573 1.225 . S
C555 C554 1.491 . S
C555 C556 1.392 . S
C555 C560 1.356 . S
C556 C555 1.392 . S
C556 C557 1.368 . S
C556 H584 0.929 . S
C557 C556 1.368 . S
C557 C558 1.386 . S
C557 H585 0.929 . S
C558 C557 1.386 . S
C558 C559 1.373 . S
C559 C558 1.373 . S
C559 C560 1.409 . S
C559 H586 0.931 . S
C560 C555 1.356 . S
C560 C559 1.409 . S
C560 H587 0.930 . S
C561 O574 1.270 . S
C561 O575 1.248 . S
C562 O576 1.267 . S
C562 O577 1.278 . S
C563 Pr553 2.880 . S
C563 C564 1.491 . S
C563 O578 1.254 . S
C563 O579 1.225 . S
C564 C563 1.491 . S
C564 C565 1.392 . S
C564 C569 1.356 . S
C565 C564 1.392 . S
C565 C566 1.368 . S
C565 H588 0.929 . S
C566 C565 1.368 . S
C566 C567 1.386 . S
C566 H589 0.929 . S
C567 C566 1.386 . S
C567 C568 1.373 . S
C568 C567 1.373 . S
C568 C569 1.409 . S
C568 H590 0.931 . S
C569 C564 1.356 . S
C569 C568 1.409 . S
C569 H591 0.930 . S
C570 O580 1.270 . S
C570 O581 1.248 . S
C571 O582 1.267 . S
C571 O583 1.278 . S
O572 Pr552 2.562 . S
O572 C554 1.254 . S
O573 Pr552 2.490 . S
O573 C554 1.225 . S
O574 Pr552 2.695 . S
O574 Pr553 2.436 1_554 S
O574 C561 1.270 . S
O575 Pr552 2.512 . S
O575 C561 1.248 . S
O576 Pr553 2.438 1_554 S
O576 C562 1.267 . S
O577 Pr552 2.437 . S
O577 C562 1.278 . S
O578 Pr553 2.562 . S
O578 C563 1.254 . S
O579 Pr553 2.490 . S
O579 C563 1.225 . S
O580 Pr552 2.436 . S
O580 Pr553 2.695 1_554 S
O580 C570 1.270 . S
O581 Pr553 2.512 1_554 S
O581 C570 1.248 . S
O582 Pr552 2.438 . S
O582 C571 1.267 . S
O583 Pr553 2.437 1_554 S
O583 C571 1.278 . S
H584 C556 0.929 . S
H585 C557 0.929 . S
H586 C559 0.931 . S
H587 C560 0.930 . S
H588 C565 0.929 . S
H589 C566 0.929 . S
H590 C568 0.931 . S
H591 C569 0.930 . S
Pr592 C594 2.880 . S
Pr592 O612 2.562 . S
Pr592 O613 2.490 . S
Pr592 O614 2.695 . S
Pr592 O615 2.512 . S
Pr592 O617 2.437 . S
Pr592 O620 2.436 . S
Pr592 O622 2.438 . S
Pr593 C603 2.880 . S
Pr593 O614 2.436 . S
Pr593 O616 2.438 . S
Pr593 O618 2.562 . S
Pr593 O619 2.490 . S
Pr593 O620 2.695 . S
Pr593 O621 2.512 . S
Pr593 O623 2.437 . S
C594 Pr592 2.880 . S
C594 C595 1.491 . S
C594 O612 1.254 . S
C594 O613 1.225 . S
C595 C594 1.491 . S
C595 C596 1.392 . S
C595 C600 1.356 . S
C596 C595 1.392 . S
C596 C597 1.368 . S
C596 H624 0.929 . S
C597 C596 1.368 . S
C597 C598 1.386 . S
C597 H625 0.929 . S
C598 C597 1.386 . S
C598 C599 1.373 . S
C599 C598 1.373 . S
C599 C600 1.409 . S
C599 H626 0.931 . S
C600 C595 1.356 . S
C600 C599 1.409 . S
C600 H627 0.930 . S
C601 O614 1.270 . S
C601 O615 1.248 . S
C602 O616 1.267 . S
C602 O617 1.278 . S
C603 Pr593 2.880 . S
C603 C604 1.491 . S
C603 O618 1.254 . S
C603 O619 1.225 . S
C604 C603 1.491 . S
C604 C605 1.392 . S
C604 C609 1.356 . S
C605 C604 1.392 . S
C605 C606 1.368 . S
C605 H628 0.929 . S
C606 C605 1.368 . S
C606 C607 1.386 . S
C606 H629 0.929 . S
C607 C606 1.386 . S
C607 C608 1.373 . S
C608 C607 1.373 . S
C608 C609 1.409 . S
C608 H630 0.931 . S
C609 C604 1.356 . S
C609 C608 1.409 . S
C609 H631 0.930 . S
C610 O620 1.270 . S
C610 O621 1.248 . S
C611 O622 1.267 . S
C611 O623 1.278 . S
O612 Pr592 2.562 . S
O612 C594 1.254 . S
O613 Pr592 2.490 . S
O613 C594 1.225 . S
O614 Pr592 2.695 . S
O614 Pr593 2.436 . S
O614 C601 1.270 . S
O615 Pr592 2.512 . S
O615 C601 1.248 . S
O616 Pr593 2.438 . S
O616 C602 1.267 . S
O617 Pr592 2.437 . S
O617 C602 1.278 . S
O618 Pr593 2.562 . S
O618 C603 1.254 . S
O619 Pr593 2.490 . S
O619 C603 1.225 . S
O620 Pr592 2.436 . S
O620 Pr593 2.695 . S
O620 C610 1.270 . S
O621 Pr593 2.512 . S
O621 C610 1.248 . S
O622 Pr592 2.438 . S
O622 C611 1.267 . S
O623 Pr593 2.437 . S
O623 C611 1.278 . S
H624 C596 0.929 . S
H625 C597 0.929 . S
H626 C599 0.931 . S
H627 C600 0.930 . S
H628 C605 0.929 . S
H629 C606 0.929 . S
H630 C608 0.931 . S
H631 C609 0.930 . S
Pr632 C634 2.880 . S
Pr632 O652 2.562 . S
Pr632 O653 2.490 . S
Pr632 O654 2.695 1_556 S
Pr632 O655 2.512 . S
Pr632 O657 2.437 . S
Pr632 O660 2.436 1_556 S
Pr632 O662 2.438 1_556 S
Pr633 C643 2.880 . S
Pr633 O654 2.436 . S
Pr633 O656 2.438 . S
Pr633 O658 2.562 . S
Pr633 O659 2.490 . S
Pr633 O660 2.695 . S
Pr633 O661 2.512 . S
Pr633 O663 2.437 . S
C634 Pr632 2.880 . S
C634 C635 1.491 . S
C634 O652 1.254 . S
C634 O653 1.225 . S
C635 C634 1.491 . S
C635 C636 1.392 . S
C635 C640 1.356 . S
C636 C635 1.392 . S
C636 C637 1.368 . S
C636 H664 0.929 . S
C637 C636 1.368 . S
C637 C638 1.386 . S
C637 H665 0.929 . S
C638 C637 1.386 . S
C638 C639 1.373 . S
C639 C638 1.373 . S
C639 C640 1.409 . S
C639 H666 0.931 . S
C640 C635 1.356 . S
C640 C639 1.409 . S
C640 H667 0.930 . S
C641 O654 1.270 . S
C641 O655 1.248 1_554 S
C642 O656 1.267 . S
C642 O657 1.278 1_554 S
C643 Pr633 2.880 . S
C643 C644 1.491 . S
C643 O658 1.254 . S
C643 O659 1.225 . S
C644 C643 1.491 . S
C644 C645 1.392 . S
C644 C649 1.356 . S
C645 C644 1.392 . S
C645 C646 1.368 . S
C645 H668 0.929 . S
C646 C645 1.368 . S
C646 C647 1.386 . S
C646 H669 0.929 . S
C647 C646 1.386 . S
C647 C648 1.373 . S
C648 C647 1.373 . S
C648 C649 1.409 . S
C648 H670 0.931 . S
C649 C644 1.356 . S
C649 C648 1.409 . S
C649 H671 0.930 . S
C650 O660 1.270 . S
C650 O661 1.248 . S
C651 O662 1.267 . S
C651 O663 1.278 . S
O652 Pr632 2.562 . S
O652 C634 1.254 . S
O653 Pr632 2.490 . S
O653 C634 1.225 . S
O654 Pr632 2.695 1_554 S
O654 Pr633 2.436 . S
O654 C641 1.270 . S
O655 Pr632 2.512 . S
O655 C641 1.248 1_556 S
O656 Pr633 2.438 . S
O656 C642 1.267 . S
O657 Pr632 2.437 . S
O657 C642 1.278 1_556 S
O658 Pr633 2.562 . S
O658 C643 1.254 . S
O659 Pr633 2.490 . S
O659 C643 1.225 . S
O660 Pr632 2.436 1_554 S
O660 Pr633 2.695 . S
O660 C650 1.270 . S
O661 Pr633 2.512 . S
O661 C650 1.248 . S
O662 Pr632 2.438 1_554 S
O662 C651 1.267 . S
O663 Pr633 2.437 . S
O663 C651 1.278 . S
H664 C636 0.929 . S
H665 C637 0.929 . S
H666 C639 0.931 . S
H667 C640 0.930 . S
H668 C645 0.929 . S
H669 C646 0.929 . S
H670 C648 0.931 . S
H671 C649 0.930 . S
Pr672 C674 2.880 . S
Pr672 O692 2.562 . S
Pr672 O693 2.490 . S
Pr672 O694 2.695 . S
Pr672 O695 2.512 . S
Pr672 O697 2.437 . S
Pr672 O700 2.436 . S
Pr672 O702 2.438 . S
Pr673 C683 2.880 . S
Pr673 O694 2.436 . S
Pr673 O696 2.438 . S
Pr673 O698 2.562 . S
Pr673 O699 2.490 . S
Pr673 O700 2.695 . S
Pr673 O701 2.512 . S
Pr673 O703 2.437 . S
C674 Pr672 2.880 . S
C674 C675 1.491 . S
C674 O692 1.254 . S
C674 O693 1.225 . S
C675 C674 1.491 . S
C675 C676 1.392 . S
C675 C680 1.356 . S
C676 C675 1.392 . S
C676 C677 1.368 . S
C676 H704 0.929 . S
C677 C676 1.368 . S
C677 C678 1.386 . S
C677 H705 0.929 . S
C678 C677 1.386 . S
C678 C679 1.373 . S
C679 C678 1.373 . S
C679 C680 1.409 . S
C679 H706 0.931 . S
C680 C675 1.356 . S
C680 C679 1.409 . S
C680 H707 0.930 . S
C681 O694 1.270 . S
C681 O695 1.248 . S
C682 O696 1.267 . S
C682 O697 1.278 . S
C683 Pr673 2.880 . S
C683 C684 1.491 . S
C683 O698 1.254 . S
C683 O699 1.225 . S
C684 C683 1.491 . S
C684 C685 1.392 . S
C684 C689 1.356 . S
C685 C684 1.392 . S
C685 C686 1.368 . S
C685 H708 0.929 . S
C686 C685 1.368 . S
C686 C687 1.386 . S
C686 H709 0.929 . S
C687 C686 1.386 . S
C687 C688 1.373 . S
C688 C687 1.373 . S
C688 C689 1.409 . S
C688 H710 0.931 . S
C689 C684 1.356 . S
C689 C688 1.409 . S
C689 H711 0.930 . S
C690 O700 1.270 . S
C690 O701 1.248 . S
C691 O702 1.267 . S
C691 O703 1.278 . S
O692 Pr672 2.562 . S
O692 C674 1.254 . S
O693 Pr672 2.490 . S
O693 C674 1.225 . S
O694 Pr672 2.695 . S
O694 Pr673 2.436 . S
O694 C681 1.270 . S
O695 Pr672 2.512 . S
O695 C681 1.248 . S
O696 Pr673 2.438 . S
O696 C682 1.267 . S
O697 Pr672 2.437 . S
O697 C682 1.278 . S
O698 Pr673 2.562 . S
O698 C683 1.254 . S
O699 Pr673 2.490 . S
O699 C683 1.225 . S
O700 Pr672 2.436 . S
O700 Pr673 2.695 . S
O700 C690 1.270 . S
O701 Pr673 2.512 . S
O701 C690 1.248 . S
O702 Pr672 2.438 . S
O702 C691 1.267 . S
O703 Pr673 2.437 . S
O703 C691 1.278 . S
H704 C676 0.929 . S
H705 C677 0.929 . S
H706 C679 0.931 . S
H707 C680 0.930 . S
H708 C685 0.929 . S
H709 C686 0.929 . S
H710 C688 0.931 . S
H711 C689 0.930 . S
Pr712 C714 2.880 . S
Pr712 O732 2.562 . S
Pr712 O733 2.490 . S
Pr712 O734 2.695 . S
Pr712 O735 2.512 . S
Pr712 O737 2.437 . S
Pr712 O740 2.436 . S
Pr712 O742 2.438 . S
Pr713 C723 2.880 . S
Pr713 O734 2.436 . S
Pr713 O736 2.438 . S
Pr713 O738 2.562 . S
Pr713 O739 2.490 . S
Pr713 O740 2.695 . S
Pr713 O741 2.512 . S
Pr713 O743 2.437 . S
C714 Pr712 2.880 . S
C714 C715 1.491 . S
C714 O732 1.254 . S
C714 O733 1.225 . S
C715 C714 1.491 . S
C715 C716 1.392 . S
C715 C720 1.356 . S
C716 C715 1.392 . S
C716 C717 1.368 . S
C716 H744 0.929 . S
C717 C716 1.368 . S
C717 C718 1.386 . S
C717 H745 0.929 . S
C718 C717 1.386 . S
C718 C719 1.373 . S
C719 C718 1.373 . S
C719 C720 1.409 . S
C719 H746 0.931 . S
C720 C715 1.356 . S
C720 C719 1.409 . S
C720 H747 0.930 . S
C721 O734 1.270 . S
C721 O735 1.248 . S
C722 O736 1.267 . S
C722 O737 1.278 . S
C723 Pr713 2.880 . S
C723 C724 1.491 . S
C723 O738 1.254 . S
C723 O739 1.225 . S
C724 C723 1.491 . S
C724 C725 1.392 . S
C724 C729 1.356 . S
C725 C724 1.392 . S
C725 C726 1.368 . S
C725 H748 0.929 . S
C726 C725 1.368 . S
C726 C727 1.386 . S
C726 H749 0.929 . S
C727 C726 1.386 . S
C727 C728 1.373 . S
C728 C727 1.373 . S
C728 C729 1.409 . S
C728 H750 0.931 . S
C729 C724 1.356 . S
C729 C728 1.409 . S
C729 H751 0.930 . S
C730 O740 1.270 . S
C730 O741 1.248 . S
C731 O742 1.267 . S
C731 O743 1.278 . S
O732 Pr712 2.562 . S
O732 C714 1.254 . S
O733 Pr712 2.490 . S
O733 C714 1.225 . S
O734 Pr712 2.695 . S
O734 Pr713 2.436 . S
O734 C721 1.270 . S
O735 Pr712 2.512 . S
O735 C721 1.248 . S
O736 Pr713 2.438 . S
O736 C722 1.267 . S
O737 Pr712 2.437 . S
O737 C722 1.278 . S
O738 Pr713 2.562 . S
O738 C723 1.254 . S
O739 Pr713 2.490 . S
O739 C723 1.225 . S
O740 Pr712 2.436 . S
O740 Pr713 2.695 . S
O740 C730 1.270 . S
O741 Pr713 2.512 . S
O741 C730 1.248 . S
O742 Pr712 2.438 . S
O742 C731 1.267 . S
O743 Pr713 2.437 . S
O743 C731 1.278 . S
H744 C716 0.929 . S
H745 C717 0.929 . S
H746 C719 0.931 . S
H747 C720 0.930 . S
H748 C725 0.929 . S
H749 C726 0.929 . S
H750 C728 0.931 . S
H751 C729 0.930 . S
Pr752 C754 2.880 . S
Pr752 O772 2.562 . S
Pr752 O773 2.490 . S
Pr752 O774 2.695 . S
Pr752 O775 2.512 . S
Pr752 O777 2.437 . S
Pr752 O780 2.436 . S
Pr752 O782 2.438 . S
Pr753 C763 2.880 . S
Pr753 O774 2.436 . S
Pr753 O776 2.438 . S
Pr753 O778 2.562 . S
Pr753 O779 2.490 . S
Pr753 O780 2.695 . S
Pr753 O781 2.512 . S
Pr753 O783 2.437 . S
C754 Pr752 2.880 . S
C754 C755 1.491 . S
C754 O772 1.254 . S
C754 O773 1.225 . S
C755 C754 1.491 . S
C755 C756 1.392 . S
C755 C760 1.356 . S
C756 C755 1.392 . S
C756 C757 1.368 . S
C756 H784 0.929 . S
C757 C756 1.368 . S
C757 C758 1.386 . S
C757 H785 0.929 . S
C758 C757 1.386 . S
C758 C759 1.373 . S
C759 C758 1.373 . S
C759 C760 1.409 . S
C759 H786 0.931 . S
C760 C755 1.356 . S
C760 C759 1.409 . S
C760 H787 0.930 . S
C761 O774 1.270 . S
C761 O775 1.248 . S
C762 O776 1.267 . S
C762 O777 1.278 . S
C763 Pr753 2.880 . S
C763 C764 1.491 . S
C763 O778 1.254 . S
C763 O779 1.225 . S
C764 C763 1.491 . S
C764 C765 1.392 . S
C764 C769 1.356 . S
C765 C764 1.392 . S
C765 C766 1.368 . S
C765 H788 0.929 . S
C766 C765 1.368 . S
C766 C767 1.386 . S
C766 H789 0.929 . S
C767 C766 1.386 . S
C767 C768 1.373 . S
C768 C767 1.373 . S
C768 C769 1.409 . S
C768 H790 0.931 . S
C769 C764 1.356 . S
C769 C768 1.409 . S
C769 H791 0.930 . S
C770 O780 1.270 . S
C770 O781 1.248 . S
C771 O782 1.267 . S
C771 O783 1.278 . S
O772 Pr752 2.562 . S
O772 C754 1.254 . S
O773 Pr752 2.490 . S
O773 C754 1.225 . S
O774 Pr752 2.695 . S
O774 Pr753 2.436 . S
O774 C761 1.270 . S
O775 Pr752 2.512 . S
O775 C761 1.248 . S
O776 Pr753 2.438 . S
O776 C762 1.267 . S
O777 Pr752 2.437 . S
O777 C762 1.278 . S
O778 Pr753 2.562 . S
O778 C763 1.254 . S
O779 Pr753 2.490 . S
O779 C763 1.225 . S
O780 Pr752 2.436 . S
O780 Pr753 2.695 . S
O780 C770 1.270 . S
O781 Pr753 2.512 . S
O781 C770 1.248 . S
O782 Pr752 2.438 . S
O782 C771 1.267 . S
O783 Pr753 2.437 . S
O783 C771 1.278 . S
H784 C756 0.929 . S
H785 C757 0.929 . S
H786 C759 0.931 . S
H787 C760 0.930 . S
H788 C765 0.929 . S
H789 C766 0.929 . S
H790 C768 0.931 . S
H791 C769 0.930 . S
Pr792 C794 2.880 . S
Pr792 O812 2.562 . S
Pr792 O813 2.490 . S
Pr792 O814 2.695 . S
Pr792 O815 2.512 . S
Pr792 O817 2.437 . S
Pr792 O820 2.436 . S
Pr792 O822 2.438 . S
Pr793 C803 2.880 . S
Pr793 O814 2.436 . S
Pr793 O816 2.438 . S
Pr793 O818 2.562 . S
Pr793 O819 2.490 . S
Pr793 O820 2.695 . S
Pr793 O821 2.512 . S
Pr793 O823 2.437 . S
C794 Pr792 2.880 . S
C794 C795 1.491 . S
C794 O812 1.254 . S
C794 O813 1.225 . S
C795 C794 1.491 . S
C795 C796 1.392 . S
C795 C800 1.356 . S
C796 C795 1.392 . S
C796 C797 1.368 . S
C796 H824 0.929 . S
C797 C796 1.368 . S
C797 C798 1.386 . S
C797 H825 0.929 . S
C798 C797 1.386 . S
C798 C799 1.373 . S
C799 C798 1.373 . S
C799 C800 1.409 . S
C799 H826 0.931 . S
C800 C795 1.356 . S
C800 C799 1.409 . S
C800 H827 0.930 . S
C801 O814 1.270 . S
C801 O815 1.248 . S
C802 O816 1.267 . S
C802 O817 1.278 . S
C803 Pr793 2.880 . S
C803 C804 1.491 . S
C803 O818 1.254 . S
C803 O819 1.225 . S
C804 C803 1.491 . S
C804 C805 1.392 . S
C804 C809 1.356 . S
C805 C804 1.392 . S
C805 C806 1.368 . S
C805 H828 0.929 . S
C806 C805 1.368 . S
C806 C807 1.386 . S
C806 H829 0.929 . S
C807 C806 1.386 . S
C807 C808 1.373 . S
C808 C807 1.373 . S
C808 C809 1.409 . S
C808 H830 0.931 . S
C809 C804 1.356 . S
C809 C808 1.409 . S
C809 H831 0.930 . S
C810 O820 1.270 . S
C810 O821 1.248 . S
C811 O822 1.267 . S
C811 O823 1.278 . S
O812 Pr792 2.562 . S
O812 C794 1.254 . S
O813 Pr792 2.490 . S
O813 C794 1.225 . S
O814 Pr792 2.695 . S
O814 Pr793 2.436 . S
O814 C801 1.270 . S
O815 Pr792 2.512 . S
O815 C801 1.248 . S
O816 Pr793 2.438 . S
O816 C802 1.267 . S
O817 Pr792 2.437 . S
O817 C802 1.278 . S
O818 Pr793 2.562 . S
O818 C803 1.254 . S
O819 Pr793 2.490 . S
O819 C803 1.225 . S
O820 Pr792 2.436 . S
O820 Pr793 2.695 . S
O820 C810 1.270 . S
O821 Pr793 2.512 . S
O821 C810 1.248 . S
O822 Pr792 2.438 . S
O822 C811 1.267 . S
O823 Pr793 2.437 . S
O823 C811 1.278 . S
H824 C796 0.929 . S
H825 C797 0.929 . S
H826 C799 0.931 . S
H827 C800 0.930 . S
H828 C805 0.929 . S
H829 C806 0.929 . S
H830 C808 0.931 . S
H831 C809 0.930 . S
Pr832 C834 2.880 . S
Pr832 O852 2.562 . S
Pr832 O853 2.490 . S
Pr832 O854 2.695 . S
Pr832 O855 2.512 . S
Pr832 O857 2.437 . S
Pr832 O860 2.436 . S
Pr832 O862 2.438 . S
Pr833 C843 2.880 . S
Pr833 O854 2.436 . S
Pr833 O856 2.438 . S
Pr833 O858 2.562 . S
Pr833 O859 2.490 . S
Pr833 O860 2.695 . S
Pr833 O861 2.512 . S
Pr833 O863 2.437 . S
C834 Pr832 2.880 . S
C834 C835 1.491 . S
C834 O852 1.254 . S
C834 O853 1.225 . S
C835 C834 1.491 . S
C835 C836 1.392 . S
C835 C840 1.356 . S
C836 C835 1.392 . S
C836 C837 1.368 . S
C836 H864 0.929 . S
C837 C836 1.368 . S
C837 C838 1.386 . S
C837 H865 0.929 . S
C838 C837 1.386 . S
C838 C839 1.373 . S
C839 C838 1.373 . S
C839 C840 1.409 . S
C839 H866 0.931 . S
C840 C835 1.356 . S
C840 C839 1.409 . S
C840 H867 0.930 . S
C841 O854 1.270 . S
C841 O855 1.248 . S
C842 O856 1.267 . S
C842 O857 1.278 . S
C843 Pr833 2.880 . S
C843 C844 1.491 . S
C843 O858 1.254 . S
C843 O859 1.225 . S
C844 C843 1.491 . S
C844 C845 1.392 . S
C844 C849 1.356 . S
C845 C844 1.392 . S
C845 C846 1.368 . S
C845 H868 0.929 . S
C846 C845 1.368 . S
C846 C847 1.386 . S
C846 H869 0.929 . S
C847 C846 1.386 . S
C847 C848 1.373 . S
C848 C847 1.373 . S
C848 C849 1.409 . S
C848 H870 0.931 . S
C849 C844 1.356 . S
C849 C848 1.409 . S
C849 H871 0.930 . S
C850 O860 1.270 . S
C850 O861 1.248 . S
C851 O862 1.267 . S
C851 O863 1.278 . S
O852 Pr832 2.562 . S
O852 C834 1.254 . S
O853 Pr832 2.490 . S
O853 C834 1.225 . S
O854 Pr832 2.695 . S
O854 Pr833 2.436 . S
O854 C841 1.270 . S
O855 Pr832 2.512 . S
O855 C841 1.248 . S
O856 Pr833 2.438 . S
O856 C842 1.267 . S
O857 Pr832 2.437 . S
O857 C842 1.278 . S
O858 Pr833 2.562 . S
O858 C843 1.254 . S
O859 Pr833 2.490 . S
O859 C843 1.225 . S
O860 Pr832 2.436 . S
O860 Pr833 2.695 . S
O860 C850 1.270 . S
O861 Pr833 2.512 . S
O861 C850 1.248 . S
O862 Pr832 2.438 . S
O862 C851 1.267 . S
O863 Pr833 2.437 . S
O863 C851 1.278 . S
H864 C836 0.929 . S
H865 C837 0.929 . S
H866 C839 0.931 . S
H867 C840 0.930 . S
H868 C845 0.929 . S
H869 C846 0.929 . S
H870 C848 0.931 . S
H871 C849 0.930 . S
Pr872 C874 2.880 . S
Pr872 O892 2.562 . S
Pr872 O893 2.490 . S
Pr872 O894 2.695 . S
Pr872 O895 2.512 . S
Pr872 O897 2.437 . S
Pr872 O900 2.436 . S
Pr872 O902 2.438 . S
Pr873 C883 2.880 . S
Pr873 O894 2.436 . S
Pr873 O896 2.438 . S
Pr873 O898 2.562 . S
Pr873 O899 2.490 . S
Pr873 O900 2.695 . S
Pr873 O901 2.512 . S
Pr873 O903 2.437 . S
C874 Pr872 2.880 . S
C874 C875 1.491 . S
C874 O892 1.254 . S
C874 O893 1.225 . S
C875 C874 1.491 . S
C875 C876 1.392 . S
C875 C880 1.356 . S
C876 C875 1.392 . S
C876 C877 1.368 . S
C876 H904 0.929 . S
C877 C876 1.368 . S
C877 C878 1.386 . S
C877 H905 0.929 . S
C878 C877 1.386 . S
C878 C879 1.373 . S
C879 C878 1.373 . S
C879 C880 1.409 . S
C879 H906 0.931 . S
C880 C875 1.356 . S
C880 C879 1.409 . S
C880 H907 0.930 . S
C881 O894 1.270 . S
C881 O895 1.248 . S
C882 O896 1.267 . S
C882 O897 1.278 . S
C883 Pr873 2.880 . S
C883 C884 1.491 . S
C883 O898 1.254 . S
C883 O899 1.225 . S
C884 C883 1.491 . S
C884 C885 1.392 . S
C884 C889 1.356 . S
C885 C884 1.392 . S
C885 C886 1.368 . S
C885 H908 0.929 . S
C886 C885 1.368 . S
C886 C887 1.386 . S
C886 H909 0.929 . S
C887 C886 1.386 . S
C887 C888 1.373 . S
C888 C887 1.373 . S
C888 C889 1.409 . S
C888 H910 0.931 . S
C889 C884 1.356 . S
C889 C888 1.409 . S
C889 H911 0.930 . S
C890 O900 1.270 . S
C890 O901 1.248 . S
C891 O902 1.267 . S
C891 O903 1.278 . S
O892 Pr872 2.562 . S
O892 C874 1.254 . S
O893 Pr872 2.490 . S
O893 C874 1.225 . S
O894 Pr872 2.695 . S
O894 Pr873 2.436 . S
O894 C881 1.270 . S
O895 Pr872 2.512 . S
O895 C881 1.248 . S
O896 Pr873 2.438 . S
O896 C882 1.267 . S
O897 Pr872 2.437 . S
O897 C882 1.278 . S
O898 Pr873 2.562 . S
O898 C883 1.254 . S
O899 Pr873 2.490 . S
O899 C883 1.225 . S
O900 Pr872 2.436 . S
O900 Pr873 2.695 . S
O900 C890 1.270 . S
O901 Pr873 2.512 . S
O901 C890 1.248 . S
O902 Pr872 2.438 . S
O902 C891 1.267 . S
O903 Pr873 2.437 . S
O903 C891 1.278 . S
H904 C876 0.929 . S
H905 C877 0.929 . S
H906 C879 0.931 . S
H907 C880 0.930 . S
H908 C885 0.929 . S
H909 C886 0.929 . S
H910 C888 0.931 . S
H911 C889 0.930 . S
Pr912 C914 2.880 . S
Pr912 O932 2.562 . S
Pr912 O933 2.490 1_554 S
Pr912 O934 2.695 1_554 S
Pr912 O935 2.512 1_554 S
Pr912 O937 2.437 1_554 S
Pr912 O940 2.436 . S
Pr912 O942 2.438 . S
Pr913 C923 2.880 1_455 S
Pr913 O934 2.436 1_554 S
Pr913 O936 2.438 . S
Pr913 O938 2.562 1_455 S
Pr913 O939 2.490 1_455 S
Pr913 O940 2.695 . S
Pr913 O941 2.512 . S
Pr913 O943 2.437 . S
C914 Pr912 2.880 . S
C914 C915 1.491 1_554 S
C914 O932 1.254 . S
C914 O933 1.225 1_554 S
C915 C914 1.491 1_556 S
C915 C916 1.392 . S
C915 C920 1.356 1_556 S
C916 C915 1.392 . S
C916 C917 1.368 . S
C916 H944 0.929 . S
C917 C916 1.368 . S
C917 C918 1.386 . S
C917 H945 0.929 . S
C918 C917 1.386 . S
C918 C919 1.373 1_556 S
C919 C918 1.373 1_554 S
C919 C920 1.409 . S
C919 H946 0.931 . S
C920 C915 1.356 1_554 S
C920 C919 1.409 . S
C920 H947 0.930 . S
C921 O934 1.270 . S
C921 O935 1.248 . S
C922 O936 1.267 1_556 S
C922 O937 1.278 . S
C923 Pr913 2.880 1_655 S
C923 C924 1.491 . S
C923 O938 1.254 . S
C923 O939 1.225 . S
C924 C923 1.491 . S
C924 C925 1.392 . S
C924 C929 1.356 . S
C925 C924 1.392 . S
C925 C926 1.368 . S
C925 H948 0.929 . S
C926 C925 1.368 . S
C926 C927 1.386 . S
C926 H949 0.929 . S
C927 C926 1.386 . S
C927 C928 1.373 . S
C928 C927 1.373 . S
C928 C929 1.409 . S
C928 H950 0.931 . S
C929 C924 1.356 . S
C929 C928 1.409 . S
C929 H951 0.930 . S
C930 O940 1.270 . S
C930 O941 1.248 . S
C931 O942 1.267 . S
C931 O943 1.278 . S
O932 Pr912 2.562 . S
O932 C914 1.254 . S
O933 Pr912 2.490 1_556 S
O933 C914 1.225 1_556 S
O934 Pr912 2.695 1_556 S
O934 Pr913 2.436 1_556 S
O934 C921 1.270 . S
O935 Pr912 2.512 1_556 S
O935 C921 1.248 . S
O936 Pr913 2.438 . S
O936 C922 1.267 1_554 S
O937 Pr912 2.437 1_556 S
O937 C922 1.278 . S
O938 Pr913 2.562 1_655 S
O938 C923 1.254 . S
O939 Pr913 2.490 1_655 S
O939 C923 1.225 . S
O940 Pr912 2.436 . S
O940 Pr913 2.695 . S
O940 C930 1.270 . S
O941 Pr913 2.512 . S
O941 C930 1.248 . S
O942 Pr912 2.438 . S
O942 C931 1.267 . S
O943 Pr913 2.437 . S
O943 C931 1.278 . S
H944 C916 0.929 . S
H945 C917 0.929 . S
H946 C919 0.931 . S
H947 C920 0.930 . S
H948 C925 0.929 . S
H949 C926 0.929 . S
H950 C928 0.931 . S
H951 C929 0.930 . S
C952 C953 1.363 . S
C952 C958 1.379 . S
C952 N960 1.356 1_455 S
C953 C952 1.363 . S
C953 C959 1.363 . S
C954 C955 1.363 . S
C954 C959 1.379 1_554 S
C954 N961 1.356 . S
C955 C954 1.363 . S
C955 C958 1.363 1_554 S
N956 C958 1.356 . S
N956 H968 0.984 1_455 S
N956 H969 0.985 . S
N957 C959 1.358 1_554 S
N957 H962 0.974 1_554 S
N957 H963 0.993 . S
C958 C952 1.379 . S
C958 C955 1.363 1_556 S
C958 N956 1.356 . S
C959 C953 1.363 . S
C959 C954 1.379 1_556 S
C959 N957 1.358 1_556 S
N960 C952 1.356 1_655 S
N960 H966 0.984 . S
N960 H967 0.984 . S
N961 C954 1.356 . S
N961 H964 0.984 . S
N961 H965 0.985 . S
H962 N957 0.974 1_556 S
H963 N957 0.993 . S
H964 N961 0.984 . S
H965 N961 0.985 . S
H966 N960 0.984 . S
H967 N960 0.984 . S
H968 N956 0.984 1_655 S
H969 N956 0.985 . S
C970 C971 1.363 . S
C970 C976 1.379 . S
C970 N978 1.356 . S
C971 C970 1.363 . S
C971 C977 1.363 . S
C972 C973 1.363 . S
C972 C977 1.379 . S
C972 N979 1.356 . S
C973 C972 1.363 . S
C973 C976 1.363 . S
N974 C976 1.356 . S
N974 H986 0.984 . S
N974 H987 0.985 . S
N975 C977 1.356 . S
N975 H980 0.984 . S
N975 H981 0.985 . S
C976 C970 1.379 . S
C976 C973 1.363 . S
C976 N974 1.356 . S
C977 C971 1.363 . S
C977 C972 1.379 . S
C977 N975 1.356 . S
N978 C970 1.356 . S
N978 H984 0.984 . S
N978 H985 0.984 . S
N979 C972 1.356 . S
N979 H982 0.984 . S
N979 H983 0.985 . S
H980 N975 0.984 . S
H981 N975 0.985 . S
H982 N979 0.984 . S
H983 N979 0.985 . S
H984 N978 0.984 . S
H985 N978 0.984 . S
H986 N974 0.984 . S
H987 N974 0.985 . S
C988 C989 1.363 . S
C988 C994 1.379 . S
C988 N996 1.356 . S
C989 C988 1.363 . S
C989 C995 1.363 . S
C990 C991 1.363 . S
C990 C995 1.379 . S
C990 N997 1.359 . S
C991 C990 1.363 . S
C991 C994 1.363 . S
N992 C994 1.356 1_545 S
N992 H1004 0.984 . S
N992 H1005 0.985 . S
N993 C995 1.356 . S
N993 H998 0.984 . S
N993 H999 0.985 . S
C994 C988 1.379 . S
C994 C991 1.363 . S
C994 N992 1.356 1_565 S
C995 C989 1.363 . S
C995 C990 1.379 . S
C995 N993 1.356 . S
N996 C988 1.356 . S
N996 H1002 0.984 . S
N996 H1003 0.984 . S
N997 C990 1.359 . S
N997 H1000 0.981 1_565 S
N997 H1001 0.986 . S
H998 N993 0.984 . S
H999 N993 0.985 . S
H1000 N997 0.981 1_545 S
H1001 N997 0.986 . S
H1002 N996 0.984 . S
H1003 N996 0.984 . S
H1004 N992 0.984 . S
H1005 N992 0.985 . S
C1006 C1007 1.363 . S
C1006 C1012 1.379 . S
C1006 N1014 1.356 . S
C1007 C1006 1.363 . S
C1007 C1013 1.363 . S
C1008 C1009 1.363 . S
C1008 C1013 1.379 . S
C1008 N1015 1.356 . S
C1009 C1008 1.363 . S
C1009 C1012 1.363 . S
N1010 C1012 1.356 . S
N1010 H1022 0.984 . S
N1010 H1023 0.985 . S
N1011 C1013 1.356 . S
N1011 H1016 0.984 . S
N1011 H1017 0.985 . S
C1012 C1006 1.379 . S
C1012 C1009 1.363 . S
C1012 N1010 1.356 . S
C1013 C1007 1.363 . S
C1013 C1008 1.379 . S
C1013 N1011 1.356 . S
N1014 C1006 1.356 . S
N1014 H1020 0.984 . S
N1014 H1021 0.984 . S
N1015 C1008 1.356 . S
N1015 H1018 0.984 . S
N1015 H1019 0.985 . S
H1016 N1011 0.984 . S
H1017 N1011 0.985 . S
H1018 N1015 0.984 . S
H1019 N1015 0.985 . S
H1020 N1014 0.984 . S
H1021 N1014 0.984 . S
H1022 N1010 0.984 . S
H1023 N1010 0.985 . S
C1024 C1025 1.363 . S
C1024 C1030 1.379 . S
C1024 N1032 1.356 . S
C1025 C1024 1.363 . S
C1025 C1031 1.363 . S
C1026 C1027 1.363 . S
C1026 C1031 1.379 1_545 S
C1026 N1033 1.356 . S
C1027 C1026 1.363 . S
C1027 C1030 1.363 1_545 S
N1028 C1030 1.356 . S
N1028 H1040 0.984 . S
N1028 H1041 0.985 1_565 S
N1029 C1031 1.356 . S
N1029 H1034 0.984 . S
N1029 H1035 0.985 . S
C1030 C1024 1.379 . S
C1030 C1027 1.363 1_565 S
C1030 N1028 1.356 . S
C1031 C1025 1.363 . S
C1031 C1026 1.379 1_565 S
C1031 N1029 1.356 . S
N1032 C1024 1.356 . S
N1032 H1038 0.984 . S
N1032 H1039 0.984 . S
N1033 C1026 1.356 . S
N1033 H1036 0.984 . S
N1033 H1037 0.985 . S
H1034 N1029 0.984 . S
H1035 N1029 0.985 . S
H1036 N1033 0.984 . S
H1037 N1033 0.985 . S
H1038 N1032 0.984 . S
H1039 N1032 0.984 . S
H1040 N1028 0.984 . S
H1041 N1028 0.985 1_545 S
C1042 C1043 1.363 . S
C1042 C1048 1.379 . S
C1042 N1050 1.356 . S
C1043 C1042 1.363 . S
C1043 C1049 1.363 . S
C1044 C1045 1.363 . S
C1044 C1049 1.379 . S
C1044 N1051 1.356 . S
C1045 C1044 1.363 . S
C1045 C1048 1.363 . S
N1046 C1048 1.356 . S
N1046 H1058 0.984 . S
N1046 H1059 0.985 . S
N1047 C1049 1.356 . S
N1047 H1052 0.984 . S
N1047 H1053 0.985 . S
C1048 C1042 1.379 . S
C1048 C1045 1.363 . S
C1048 N1046 1.356 . S
C1049 C1043 1.363 . S
C1049 C1044 1.379 . S
C1049 N1047 1.356 . S
N1050 C1042 1.356 . S
N1050 H1056 0.984 . S
N1050 H1057 0.984 . S
N1051 C1044 1.356 . S
N1051 H1054 0.984 . S
N1051 H1055 0.985 . S
H1052 N1047 0.984 . S
H1053 N1047 0.985 . S
H1054 N1051 0.984 . S
H1055 N1051 0.985 . S
H1056 N1050 0.984 . S
H1057 N1050 0.984 . S
H1058 N1046 0.984 . S
H1059 N1046 0.985 . S
C1060 C1061 1.363 . S
C1060 C1066 1.379 . S
C1060 N1068 1.356 . S
C1061 C1060 1.363 . S
C1061 C1067 1.363 . S
C1062 C1063 1.363 . S
C1062 C1067 1.379 . S
C1062 N1069 1.356 . S
C1063 C1062 1.363 . S
C1063 C1066 1.363 . S
N1064 C1066 1.356 . S
N1064 H1076 0.984 . S
N1064 H1077 0.985 . S
N1065 C1067 1.356 . S
N1065 H1070 0.984 . S
N1065 H1071 0.985 . S
C1066 C1060 1.379 . S
C1066 C1063 1.363 . S
C1066 N1064 1.356 . S
C1067 C1061 1.363 . S
C1067 C1062 1.379 . S
C1067 N1065 1.356 . S
N1068 C1060 1.356 . S
N1068 H1074 0.984 . S
N1068 H1075 0.984 . S
N1069 C1062 1.356 . S
N1069 H1072 0.984 . S
N1069 H1073 0.985 . S
H1070 N1065 0.984 . S
H1071 N1065 0.985 . S
H1072 N1069 0.984 . S
H1073 N1069 0.985 . S
H1074 N1068 0.984 . S
H1075 N1068 0.984 . S
H1076 N1064 0.984 . S
H1077 N1064 0.985 . S
C1078 C1079 1.363 . S
C1078 C1084 1.379 . S
C1078 N1086 1.356 . S
C1079 C1078 1.363 . S
C1079 C1085 1.363 . S
C1080 C1081 1.363 . S
C1080 C1085 1.379 . S
C1080 N1087 1.356 . S
C1081 C1080 1.363 . S
C1081 C1084 1.363 . S
N1082 C1084 1.356 . S
N1082 H1094 0.984 . S
N1082 H1095 0.985 . S
N1083 C1085 1.356 . S
N1083 H1088 0.984 . S
N1083 H1089 0.985 . S
C1084 C1078 1.379 . S
C1084 C1081 1.363 . S
C1084 N1082 1.356 . S
C1085 C1079 1.363 . S
C1085 C1080 1.379 . S
C1085 N1083 1.356 . S
N1086 C1078 1.356 . S
N1086 H1092 0.984 . S
N1086 H1093 0.984 . S
N1087 C1080 1.356 . S
N1087 H1090 0.984 . S
N1087 H1091 0.985 . S
H1088 N1083 0.984 . S
H1089 N1083 0.985 . S
H1090 N1087 0.984 . S
H1091 N1087 0.985 . S
H1092 N1086 0.984 . S
H1093 N1086 0.984 . S
H1094 N1082 0.984 . S
H1095 N1082 0.985 . S
C1096 C1097 1.363 . S
C1096 C1102 1.379 1_655 S
C1096 N1104 1.356 . S
C1097 C1096 1.363 . S
C1097 C1103 1.363 . S
C1098 C1099 1.363 1_655 S
C1098 C1103 1.379 . S
C1098 N1105 1.356 . S
C1099 C1098 1.363 1_455 S
C1099 C1102 1.363 . S
N1100 C1102 1.356 . S
N1100 H1112 0.984 . S
N1100 H1113 0.985 . S
N1101 C1103 1.356 . S
N1101 H1106 0.984 . S
N1101 H1107 0.985 . S
C1102 C1096 1.379 1_455 S
C1102 C1099 1.363 . S
C1102 N1100 1.356 . S
C1103 C1097 1.363 . S
C1103 C1098 1.379 . S
C1103 N1101 1.356 . S
N1104 C1096 1.356 . S
N1104 H1110 0.984 1_545 S
N1104 H1111 0.984 . S
N1105 C1098 1.356 . S
N1105 H1108 0.983 1_655 S
N1105 H1109 0.985 . S
H1106 N1101 0.984 . S
H1107 N1101 0.985 . S
H1108 N1105 0.983 1_455 S
H1109 N1105 0.985 . S
H1110 N1104 0.984 1_565 S
H1111 N1104 0.984 . S
H1112 N1100 0.984 . S
H1113 N1100 0.985 . S
C1114 C1115 1.363 . S
C1114 C1120 1.379 . S
C1114 N1122 1.356 . S
C1115 C1114 1.363 . S
C1115 C1121 1.363 . S
C1116 C1117 1.363 . S
C1116 C1121 1.379 . S
C1116 N1123 1.356 . S
C1117 C1116 1.363 . S
C1117 C1120 1.363 . S
N1118 C1120 1.356 . S
N1118 H1130 0.984 . S
N1118 H1131 0.985 . S
N1119 C1121 1.356 . S
N1119 H1124 0.984 . S
N1119 H1125 0.985 . S
C1120 C1114 1.379 . S
C1120 C1117 1.363 . S
C1120 N1118 1.356 . S
C1121 C1115 1.363 . S
C1121 C1116 1.379 . S
C1121 N1119 1.356 . S
N1122 C1114 1.356 . S
N1122 H1128 0.984 . S
N1122 H1129 0.984 . S
N1123 C1116 1.356 . S
N1123 H1126 0.984 . S
N1123 H1127 0.985 . S
H1124 N1119 0.984 . S
H1125 N1119 0.985 . S
H1126 N1123 0.984 . S
H1127 N1123 0.985 . S
H1128 N1122 0.984 . S
H1129 N1122 0.984 . S
H1130 N1118 0.984 . S
H1131 N1118 0.985 . S
C1132 C1133 1.363 . S
C1132 C1138 1.379 . S
C1132 N1140 1.356 . S
C1133 C1132 1.363 . S
C1133 C1139 1.363 . S
C1134 C1135 1.363 . S
C1134 C1139 1.379 . S
C1134 N1141 1.356 . S
C1135 C1134 1.363 . S
C1135 C1138 1.363 . S
N1136 C1138 1.356 . S
N1136 H1148 0.984 . S
N1136 H1149 0.985 . S
N1137 C1139 1.356 1_565 S
N1137 H1142 0.984 . S
N1137 H1143 0.985 . S
C1138 C1132 1.379 . S
C1138 C1135 1.363 . S
C1138 N1136 1.356 . S
C1139 C1133 1.363 . S
C1139 C1134 1.379 . S
C1139 N1137 1.356 1_545 S
N1140 C1132 1.356 . S
N1140 H1146 0.984 . S
N1140 H1147 0.993 . S
N1141 C1134 1.356 . S
N1141 H1144 0.984 . S
N1141 H1145 0.985 . S
H1142 N1137 0.984 . S
H1143 N1137 0.985 . S
H1144 N1141 0.984 . S
H1145 N1141 0.985 . S
H1146 N1140 0.984 . S
H1147 N1140 0.993 . S
H1148 N1136 0.984 . S
H1149 N1136 0.985 . S
C1150 C1151 1.363 . S
C1150 C1156 1.379 . S
C1150 N1158 1.356 . S
C1151 C1150 1.363 . S
C1151 C1157 1.363 . S
C1152 C1153 1.363 . S
C1152 C1157 1.379 . S
C1152 N1159 1.356 . S
C1153 C1152 1.363 . S
C1153 C1156 1.363 . S
N1154 C1156 1.356 . S
N1154 H1166 0.984 . S
N1154 H1167 0.985 . S
N1155 C1157 1.356 . S
N1155 H1160 0.984 . S
N1155 H1161 0.985 . S
C1156 C1150 1.379 . S
C1156 C1153 1.363 . S
C1156 N1154 1.356 . S
C1157 C1151 1.363 . S
C1157 C1152 1.379 . S
C1157 N1155 1.356 . S
N1158 C1150 1.356 . S
N1158 H1164 0.984 . S
N1158 H1165 0.984 . S
N1159 C1152 1.356 . S
N1159 H1162 0.984 . S
N1159 H1163 0.985 . S
H1160 N1155 0.984 . S
H1161 N1155 0.985 . S
H1162 N1159 0.984 . S
H1163 N1159 0.985 . S
H1164 N1158 0.984 . S
H1165 N1158 0.984 . S
H1166 N1154 0.984 . S
H1167 N1154 0.985 . S
C1168 C1169 1.363 . S
C1168 C1174 1.379 . S
C1168 N1176 1.356 . S
C1169 C1168 1.363 . S
C1169 C1175 1.363 . S
C1170 C1171 1.363 . S
C1170 C1175 1.379 . S
C1170 N1177 1.356 1_655 S
C1171 C1170 1.363 . S
C1171 C1174 1.363 . S
N1172 C1174 1.356 . S
N1172 H1184 0.984 . S
N1172 H1185 0.985 . S
N1173 C1175 1.356 . S
N1173 H1178 0.984 . S
N1173 H1179 0.985 . S
C1174 C1168 1.379 . S
C1174 C1171 1.363 . S
C1174 N1172 1.356 . S
C1175 C1169 1.363 . S
C1175 C1170 1.379 . S
C1175 N1173 1.356 . S
N1176 C1168 1.356 . S
N1176 H1182 0.984 1_545 S
N1176 H1183 0.984 . S
N1177 C1170 1.356 1_455 S
N1177 H1180 0.985 . S
N1177 H1181 0.985 . S
H1178 N1173 0.984 . S
H1179 N1173 0.985 . S
H1180 N1177 0.985 . S
H1181 N1177 0.985 . S
H1182 N1176 0.984 1_565 S
H1183 N1176 0.984 . S
H1184 N1172 0.984 . S
H1185 N1172 0.985 . S
C1186 C1187 1.363 . S
C1186 C1192 1.379 . S
C1186 N1194 1.356 . S
C1187 C1186 1.363 . S
C1187 C1193 1.363 . S
C1188 C1189 1.363 . S
C1188 C1193 1.379 . S
C1188 N1195 1.356 . S
C1189 C1188 1.363 . S
C1189 C1192 1.363 . S
N1190 C1192 1.356 . S
N1190 H1202 0.984 . S
N1190 H1203 0.985 . S
N1191 C1193 1.356 . S
N1191 H1196 0.984 . S
N1191 H1197 0.985 . S
C1192 C1186 1.379 . S
C1192 C1189 1.363 . S
C1192 N1190 1.356 . S
C1193 C1187 1.363 . S
C1193 C1188 1.379 . S
C1193 N1191 1.356 . S
N1194 C1186 1.356 . S
N1194 H1200 0.984 . S
N1194 H1201 0.984 . S
N1195 C1188 1.356 . S
N1195 H1198 0.984 . S
N1195 H1199 0.985 . S
H1196 N1191 0.984 . S
H1197 N1191 0.985 . S
H1198 N1195 0.984 . S
H1199 N1195 0.985 . S
H1200 N1194 0.984 . S
H1201 N1194 0.984 . S
H1202 N1190 0.984 . S
H1203 N1190 0.985 . S
C1204 C1205 1.363 . S
C1204 C1210 1.379 . S
C1204 N1212 1.356 . S
C1205 C1204 1.363 . S
C1205 C1211 1.363 . S
C1206 C1207 1.363 . S
C1206 C1211 1.379 . S
C1206 N1213 1.356 . S
C1207 C1206 1.363 . S
C1207 C1210 1.363 . S
N1208 C1210 1.356 . S
N1208 H1220 0.984 . S
N1208 H1221 0.985 . S
N1209 C1211 1.356 1_565 S
N1209 H1214 0.984 . S
N1209 H1215 0.985 . S
C1210 C1204 1.379 . S
C1210 C1207 1.363 . S
C1210 N1208 1.356 . S
C1211 C1205 1.363 . S
C1211 C1206 1.379 . S
C1211 N1209 1.356 1_545 S
N1212 C1204 1.356 . S
N1212 H1218 0.984 . S
N1212 H1219 0.984 . S
N1213 C1206 1.356 . S
N1213 H1216 0.984 . S
N1213 H1217 0.985 . S
H1214 N1209 0.984 . S
H1215 N1209 0.985 . S
H1216 N1213 0.984 . S
H1217 N1213 0.985 . S
H1218 N1212 0.984 . S
H1219 N1212 0.984 . S
H1220 N1208 0.984 . S
H1221 N1208 0.985 . S
C1222 C1223 1.363 . S
C1222 C1228 1.379 . S
C1222 N1230 1.356 . S
C1223 C1222 1.363 . S
C1223 C1229 1.363 . S
C1224 C1225 1.363 . S
C1224 C1229 1.379 . S
C1224 N1231 1.356 . S
C1225 C1224 1.363 . S
C1225 C1228 1.363 . S
N1226 C1228 1.356 . S
N1226 H1238 0.984 . S
N1226 H1239 0.985 . S
N1227 C1229 1.356 . S
N1227 H1232 0.984 . S
N1227 H1233 0.985 . S
C1228 C1222 1.379 . S
C1228 C1225 1.363 . S
C1228 N1226 1.356 . S
C1229 C1223 1.363 . S
C1229 C1224 1.379 . S
C1229 N1227 1.356 . S
N1230 C1222 1.356 . S
N1230 H1236 0.984 . S
N1230 H1237 0.984 . S
N1231 C1224 1.356 . S
N1231 H1234 0.984 . S
N1231 H1235 0.985 . S
H1232 N1227 0.984 . S
H1233 N1227 0.985 . S
H1234 N1231 0.984 . S
H1235 N1231 0.985 . S
H1236 N1230 0.984 . S
H1237 N1230 0.984 . S
H1238 N1226 0.984 . S
H1239 N1226 0.985 . S
C1240 C1241 1.363 . S
C1240 C1246 1.379 . S
C1240 N1248 1.356 1_545 S
C1241 C1240 1.363 . S
C1241 C1247 1.363 . S
C1242 C1243 1.363 . S
C1242 C1247 1.379 . S
C1242 N1249 1.356 . S
C1243 C1242 1.363 . S
C1243 C1246 1.363 . S
N1244 C1246 1.356 . S
N1244 H1256 0.984 . S
N1244 H1257 0.985 . S
N1245 C1247 1.356 . S
N1245 H1250 0.984 . S
N1245 H1251 0.985 . S
C1246 C1240 1.379 . S
C1246 C1243 1.363 . S
C1246 N1244 1.356 . S
C1247 C1241 1.363 . S
C1247 C1242 1.379 . S
C1247 N1245 1.356 . S
N1248 C1240 1.356 1_565 S
N1248 H1254 0.984 . S
N1248 H1255 0.984 . S
N1249 C1242 1.356 . S
N1249 H1252 0.984 . S
N1249 H1253 0.985 . S
H1250 N1245 0.984 . S
H1251 N1245 0.985 . S
H1252 N1249 0.984 . S
H1253 N1249 0.985 . S
H1254 N1248 0.984 . S
H1255 N1248 0.984 . S
H1256 N1244 0.984 . S
H1257 N1244 0.985 . S
C1258 C1259 1.363 . S
C1258 C1264 1.379 . S
C1258 N1266 1.356 . S
C1259 C1258 1.363 . S
C1259 C1265 1.363 1_554 S
C1260 C1261 1.377 . S
C1260 C1265 1.371 1_554 S
C1260 N1267 1.354 1_554 S
C1261 C1260 1.377 . S
C1261 C1264 1.363 . S
N1262 C1264 1.356 . S
N1262 H1274 0.984 . S
N1262 H1275 0.985 . S
N1263 C1265 1.356 . S
N1263 H1268 0.984 . S
N1263 H1269 0.985 . S
C1264 C1258 1.379 . S
C1264 C1261 1.363 . S
C1264 N1262 1.356 . S
C1265 C1259 1.363 1_556 S
C1265 C1260 1.371 1_556 S
C1265 N1263 1.356 . S
N1266 C1258 1.356 . S
N1266 H1272 0.984 . S
N1266 H1273 0.984 . S
N1267 C1260 1.354 1_556 S
N1267 H1270 0.984 . S
N1267 H1271 0.985 . S
H1268 N1263 0.984 . S
H1269 N1263 0.985 . S
H1270 N1267 0.984 . S
H1271 N1267 0.985 . S
H1272 N1266 0.984 . S
H1273 N1266 0.984 . S
H1274 N1262 0.984 . S
H1275 N1262 0.985 . S
C1276 C1277 1.363 . S
C1276 C1282 1.379 . S
C1276 N1284 1.356 . S
C1277 C1276 1.363 . S
C1277 C1283 1.363 . S
C1278 C1279 1.363 . S
C1278 C1283 1.379 . S
C1278 N1285 1.356 . S
C1279 C1278 1.363 . S
C1279 C1282 1.363 . S
N1280 C1282 1.356 . S
N1280 H1292 0.984 . S
N1280 H1293 0.985 . S
N1281 C1283 1.356 . S
N1281 H1286 0.984 . S
N1281 H1287 0.985 . S
C1282 C1276 1.379 . S
C1282 C1279 1.363 . S
C1282 N1280 1.356 . S
C1283 C1277 1.363 . S
C1283 C1278 1.379 . S
C1283 N1281 1.356 . S
N1284 C1276 1.356 . S
N1284 H1290 0.984 . S
N1284 H1291 0.984 . S
N1285 C1278 1.356 . S
N1285 H1288 0.984 . S
N1285 H1289 0.985 . S
H1286 N1281 0.984 . S
H1287 N1281 0.985 . S
H1288 N1285 0.984 . S
H1289 N1285 0.985 . S
H1290 N1284 0.984 . S
H1291 N1284 0.984 . S
H1292 N1280 0.984 . S
H1293 N1280 0.985 . S
C1294 C1295 1.363 . S
C1294 C1300 1.379 . S
C1294 N1302 1.356 . S
C1295 C1294 1.363 . S
C1295 C1301 1.363 . S
C1296 C1297 1.363 . S
C1296 C1301 1.379 . S
C1296 N1303 1.356 . S
C1297 C1296 1.363 . S
C1297 C1300 1.363 . S
N1298 C1300 1.356 . S
N1298 H1310 1.003 . S
N1298 H1311 0.985 1_655 S
N1299 C1301 1.356 . S
N1299 H1304 0.984 . S
N1299 H1305 0.985 . S
C1300 C1294 1.379 . S
C1300 C1297 1.363 . S
C1300 N1298 1.356 . S
C1301 C1295 1.363 . S
C1301 C1296 1.379 . S
C1301 N1299 1.356 . S
N1302 C1294 1.356 . S
N1302 H1308 0.984 . S
N1302 H1309 0.984 . S
N1303 C1296 1.356 . S
N1303 H1306 0.984 . S
N1303 H1307 0.985 . S
H1304 N1299 0.984 . S
H1305 N1299 0.985 . S
H1306 N1303 0.984 . S
H1307 N1303 0.985 . S
H1308 N1302 0.984 . S
H1309 N1302 0.984 . S
H1310 N1298 1.003 . S
H1311 N1298 0.985 1_455 S
C1312 C1313 1.363 . S
C1312 C1318 1.379 . S
C1312 N1320 1.356 . S
C1313 C1312 1.363 . S
C1313 C1319 1.363 . S
C1314 C1315 1.363 . S
C1314 C1319 1.379 . S
C1314 N1321 1.356 . S
C1315 C1314 1.363 . S
C1315 C1318 1.363 . S
N1316 C1318 1.356 . S
N1316 H1328 0.984 . S
N1316 H1329 0.985 . S
N1317 C1319 1.356 . S
N1317 H1322 0.984 . S
N1317 H1323 0.985 . S
C1318 C1312 1.379 . S
C1318 C1315 1.363 . S
C1318 N1316 1.356 . S
C1319 C1313 1.363 . S
C1319 C1314 1.379 . S
C1319 N1317 1.356 . S
N1320 C1312 1.356 . S
N1320 H1326 0.984 . S
N1320 H1327 0.984 . S
N1321 C1314 1.356 . S
N1321 H1324 0.984 . S
N1321 H1325 0.985 . S
H1322 N1317 0.984 . S
H1323 N1317 0.985 . S
H1324 N1321 0.984 . S
H1325 N1321 0.985 . S
H1326 N1320 0.984 . S
H1327 N1320 0.984 . S
H1328 N1316 0.984 . S
H1329 N1316 0.985 . S
C1330 C1331 1.363 . S
C1330 C1336 1.379 . S
C1330 N1338 1.356 . S
C1331 C1330 1.363 . S
C1331 C1337 1.363 . S
C1332 C1333 1.363 . S
C1332 C1337 1.379 . S
C1332 N1339 1.356 . S
C1333 C1332 1.363 . S
C1333 C1336 1.363 . S
N1334 C1336 1.356 . S
N1334 H1346 0.984 . S
N1334 H1347 0.985 . S
N1335 C1337 1.356 . S
N1335 H1340 0.984 . S
N1335 H1341 0.985 . S
C1336 C1330 1.379 . S
C1336 C1333 1.363 . S
C1336 N1334 1.356 . S
C1337 C1331 1.363 . S
C1337 C1332 1.379 . S
C1337 N1335 1.356 . S
N1338 C1330 1.356 . S
N1338 H1344 0.984 . S
N1338 H1345 0.984 . S
N1339 C1332 1.356 . S
N1339 H1342 0.984 . S
N1339 H1343 0.985 . S
H1340 N1335 0.984 . S
H1341 N1335 0.985 . S
H1342 N1339 0.984 . S
H1343 N1339 0.985 . S
H1344 N1338 0.984 . S
H1345 N1338 0.984 . S
H1346 N1334 0.984 . S
H1347 N1334 0.985 . S
C1348 C1349 1.363 . S
C1348 C1354 1.379 . S
C1348 N1356 1.356 . S
C1349 C1348 1.363 . S
C1349 C1355 1.363 . S
C1350 C1351 1.363 . S
C1350 C1355 1.379 . S
C1350 N1357 1.356 . S
C1351 C1350 1.363 . S
C1351 C1354 1.363 . S
N1352 C1354 1.356 . S
N1352 H1364 0.984 . S
N1352 H1365 0.985 . S
N1353 C1355 1.356 . S
N1353 H1358 0.984 . S
N1353 H1359 0.985 . S
C1354 C1348 1.379 . S
C1354 C1351 1.363 . S
C1354 N1352 1.356 . S
C1355 C1349 1.363 . S
C1355 C1350 1.379 . S
C1355 N1353 1.356 . S
N1356 C1348 1.356 . S
N1356 H1362 0.984 . S
N1356 H1363 0.984 . S
N1357 C1350 1.356 . S
N1357 H1360 0.984 . S
N1357 H1361 0.985 . S
H1358 N1353 0.984 . S
H1359 N1353 0.985 . S
H1360 N1357 0.984 . S
H1361 N1357 0.985 . S
H1362 N1356 0.984 . S
H1363 N1356 0.984 . S
H1364 N1352 0.984 . S
H1365 N1352 0.985 . S
C1366 C1367 1.363 . S
C1366 C1372 1.379 . S
C1366 N1374 1.356 . S
C1367 C1366 1.363 . S
C1367 C1373 1.363 . S
C1368 C1369 1.363 . S
C1368 C1373 1.379 . S
C1368 N1375 1.356 . S
C1369 C1368 1.363 . S
C1369 C1372 1.363 . S
N1370 C1372 1.356 . S
N1370 H1382 0.984 . S
N1370 H1383 0.985 . S
N1371 C1373 1.356 . S
N1371 H1376 0.984 . S
N1371 H1377 0.985 . S
C1372 C1366 1.379 . S
C1372 C1369 1.363 . S
C1372 N1370 1.356 . S
C1373 C1367 1.363 . S
C1373 C1368 1.379 . S
C1373 N1371 1.356 . S
N1374 C1366 1.356 . S
N1374 H1380 0.984 . S
N1374 H1381 0.984 . S
N1375 C1368 1.356 . S
N1375 H1378 0.984 . S
N1375 H1379 0.985 . S
H1376 N1371 0.984 . S
H1377 N1371 0.985 . S
H1378 N1375 0.984 . S
H1379 N1375 0.985 . S
H1380 N1374 0.984 . S
H1381 N1374 0.984 . S
H1382 N1370 0.984 . S
H1383 N1370 0.985 . S
C1384 C1385 1.363 . S
C1384 C1390 1.379 . S
C1384 N1392 1.356 . S
C1385 C1384 1.363 . S
C1385 C1391 1.363 . S
C1386 C1387 1.363 . S
C1386 C1391 1.379 . S
C1386 N1393 1.356 . S
C1387 C1386 1.363 . S
C1387 C1390 1.363 . S
N1388 C1390 1.356 1_545 S
N1388 H1400 0.984 . S
N1388 H1401 0.985 . S
N1389 C1391 1.356 . S
N1389 H1394 0.984 . S
N1389 H1395 0.985 . S
C1390 C1384 1.379 . S
C1390 C1387 1.363 . S
C1390 N1388 1.356 1_565 S
C1391 C1385 1.363 . S
C1391 C1386 1.379 . S
C1391 N1389 1.356 . S
N1392 C1384 1.356 . S
N1392 H1398 0.984 . S
N1392 H1399 0.984 . S
N1393 C1386 1.356 . S
N1393 H1396 0.984 . S
N1393 H1397 0.985 . S
H1394 N1389 0.984 . S
H1395 N1389 0.985 . S
H1396 N1393 0.984 . S
H1397 N1393 0.985 . S
H1398 N1392 0.984 . S
H1399 N1392 0.984 . S
H1400 N1388 0.984 . S
H1401 N1388 0.985 . S
C1402 C1403 1.363 . S
C1402 C1408 1.379 . S
C1402 N1410 1.356 . S
C1403 C1402 1.363 . S
C1403 C1409 1.363 . S
C1404 C1405 1.363 . S
C1404 C1409 1.379 . S
C1404 N1411 1.356 . S
C1405 C1404 1.363 . S
C1405 C1408 1.363 . S
N1406 C1408 1.356 . S
N1406 H1418 0.984 . S
N1406 H1419 0.985 . S
N1407 C1409 1.356 . S
N1407 H1412 0.984 . S
N1407 H1413 0.985 . S
C1408 C1402 1.379 . S
C1408 C1405 1.363 . S
C1408 N1406 1.356 . S
C1409 C1403 1.363 . S
C1409 C1404 1.379 . S
C1409 N1407 1.356 . S
N1410 C1402 1.356 . S
N1410 H1416 0.984 . S
N1410 H1417 0.984 . S
N1411 C1404 1.356 . S
N1411 H1414 0.984 . S
N1411 H1415 0.985 . S
H1412 N1407 0.984 . S
H1413 N1407 0.985 . S
H1414 N1411 0.984 . S
H1415 N1411 0.985 . S
H1416 N1410 0.984 . S
H1417 N1410 0.984 . S
H1418 N1406 0.984 . S
H1419 N1406 0.985 . S
C1420 C1421 1.363 . S
C1420 C1426 1.379 . S
C1420 N1428 1.356 . S
C1421 C1420 1.363 . S
C1421 C1427 1.363 . S
C1422 C1423 1.363 . S
C1422 C1427 1.379 . S
C1422 N1429 1.356 . S
C1423 C1422 1.363 . S
C1423 C1426 1.363 . S
N1424 C1426 1.356 . S
N1424 H1436 0.984 . S
N1424 H1437 0.985 . S
N1425 C1427 1.356 . S
N1425 H1430 0.984 . S
N1425 H1431 0.985 . S
C1426 C1420 1.379 . S
C1426 C1423 1.363 . S
C1426 N1424 1.356 . S
C1427 C1421 1.363 . S
C1427 C1422 1.379 . S
C1427 N1425 1.356 . S
N1428 C1420 1.356 . S
N1428 H1434 0.984 . S
N1428 H1435 0.984 . S
N1429 C1422 1.356 . S
N1429 H1432 0.984 . S
N1429 H1433 0.985 . S
H1430 N1425 0.984 . S
H1431 N1425 0.985 . S
H1432 N1429 0.984 . S
H1433 N1429 0.985 . S
H1434 N1428 0.984 . S
H1435 N1428 0.984 . S
H1436 N1424 0.984 . S
H1437 N1424 0.985 . S
C1438 C1439 1.363 . S
C1438 C1444 1.379 . S
C1438 N1446 1.356 . S
C1439 C1438 1.363 . S
C1439 C1445 1.363 . S
C1440 C1441 1.363 . S
C1440 C1445 1.379 . S
C1440 N1447 1.356 . S
C1441 C1440 1.363 . S
C1441 C1444 1.363 . S
N1442 C1444 1.356 . S
N1442 H1454 0.984 . S
N1442 H1455 0.985 . S
N1443 C1445 1.356 . S
N1443 H1448 0.984 . S
N1443 H1449 0.985 . S
C1444 C1438 1.379 . S
C1444 C1441 1.363 . S
C1444 N1442 1.356 . S
C1445 C1439 1.363 . S
C1445 C1440 1.379 . S
C1445 N1443 1.356 . S
N1446 C1438 1.356 . S
N1446 H1452 0.984 . S
N1446 H1453 0.984 . S
N1447 C1440 1.356 . S
N1447 H1450 0.984 . S
N1447 H1451 0.985 . S
H1448 N1443 0.984 . S
H1449 N1443 0.985 . S
H1450 N1447 0.984 . S
H1451 N1447 0.985 . S
H1452 N1446 0.984 . S
H1453 N1446 0.984 . S
H1454 N1442 0.984 . S
H1455 N1442 0.985 . S
C1456 C1457 1.363 . S
C1456 C1462 1.379 . S
C1456 N1464 1.356 . S
C1457 C1456 1.363 . S
C1457 C1463 1.363 . S
C1458 C1459 1.363 . S
C1458 C1463 1.379 . S
C1458 N1465 1.356 . S
C1459 C1458 1.363 . S
C1459 C1462 1.363 . S
N1460 C1462 1.356 . S
N1460 H1472 0.984 . S
N1460 H1473 0.985 . S
N1461 C1463 1.356 1_655 S
N1461 H1466 0.984 . S
N1461 H1467 0.985 . S
C1462 C1456 1.379 . S
C1462 C1459 1.363 . S
C1462 N1460 1.356 . S
C1463 C1457 1.363 . S
C1463 C1458 1.379 . S
C1463 N1461 1.356 1_455 S
N1464 C1456 1.356 . S
N1464 H1470 0.984 . S
N1464 H1471 0.984 . S
N1465 C1458 1.356 . S
N1465 H1468 0.984 . S
N1465 H1469 0.985 1_455 S
H1466 N1461 0.984 . S
H1467 N1461 0.985 . S
H1468 N1465 0.984 . S
H1469 N1465 0.985 1_655 S
H1470 N1464 0.984 . S
H1471 N1464 0.984 . S
H1472 N1460 0.984 . S
H1473 N1460 0.985 . S
C1474 C1475 1.363 . S
C1474 C1480 1.379 . S
C1474 N1482 1.356 . S
C1475 C1474 1.363 . S
C1475 C1481 1.363 . S
C1476 C1477 1.363 . S
C1476 C1481 1.379 . S
C1476 N1483 1.356 . S
C1477 C1476 1.363 . S
C1477 C1480 1.363 . S
N1478 C1480 1.356 . S
N1478 H1490 0.984 . S
N1478 H1491 0.985 . S
N1479 C1481 1.356 . S
N1479 H1484 0.984 . S
N1479 H1485 0.985 . S
C1480 C1474 1.379 . S
C1480 C1477 1.363 . S
C1480 N1478 1.356 . S
C1481 C1475 1.363 . S
C1481 C1476 1.379 . S
C1481 N1479 1.356 . S
N1482 C1474 1.356 . S
N1482 H1488 0.984 . S
N1482 H1489 0.984 . S
N1483 C1476 1.356 . S
N1483 H1486 0.984 . S
N1483 H1487 0.985 . S
H1484 N1479 0.984 . S
H1485 N1479 0.985 . S
H1486 N1483 0.984 . S
H1487 N1483 0.985 . S
H1488 N1482 0.984 . S
H1489 N1482 0.984 . S
H1490 N1478 0.984 . S
H1491 N1478 0.985 . S
C1492 C1493 1.363 . S
C1492 C1498 1.379 . S
C1492 N1500 1.356 . S
C1493 C1492 1.363 . S
C1493 C1499 1.363 . S
C1494 C1495 1.363 . S
C1494 C1499 1.379 1_554 S
C1494 N1501 1.356 . S
C1495 C1494 1.363 . S
C1495 C1498 1.363 1_554 S
N1496 C1498 1.356 1_545 S
N1496 H1508 0.984 . S
N1496 H1509 0.985 . S
N1497 C1499 1.356 1_554 S
N1497 H1502 0.984 1_554 S
N1497 H1503 0.985 . S
C1498 C1492 1.379 . S
C1498 C1495 1.363 1_556 S
C1498 N1496 1.356 1_565 S
C1499 C1493 1.363 . S
C1499 C1494 1.379 1_556 S
C1499 N1497 1.356 1_556 S
N1500 C1492 1.356 . S
N1500 H1506 0.984 . S
N1500 H1507 0.984 . S
N1501 C1494 1.356 . S
N1501 H1504 0.984 1_565 S
N1501 H1505 0.985 . S
H1502 N1497 0.984 1_556 S
H1503 N1497 0.985 . S
H1504 N1501 0.984 1_545 S
H1505 N1501 0.985 . S
H1506 N1500 0.984 . S
H1507 N1500 0.984 . S
H1508 N1496 0.984 . S
H1509 N1496 0.985 . S
C1510 C1511 1.363 . S
C1510 C1516 1.379 . S
C1510 N1518 1.356 . S
C1511 C1510 1.363 . S
C1511 C1517 1.363 . S
C1512 C1513 1.363 . S
C1512 C1517 1.379 . S
C1512 N1519 1.356 . S
C1513 C1512 1.363 . S
C1513 C1516 1.363 . S
N1514 C1516 1.356 1_655 S
N1514 H1526 0.984 . S
N1514 H1527 0.985 . S
N1515 C1517 1.356 . S
N1515 H1520 0.984 . S
N1515 H1521 0.985 . S
C1516 C1510 1.379 . S
C1516 C1513 1.363 . S
C1516 N1514 1.356 1_455 S
C1517 C1511 1.363 . S
C1517 C1512 1.379 . S
C1517 N1515 1.356 . S
N1518 C1510 1.356 . S
N1518 H1524 0.984 . S
N1518 H1525 0.984 . S
N1519 C1512 1.356 . S
N1519 H1522 0.984 . S
N1519 H1523 0.985 . S
H1520 N1515 0.984 . S
H1521 N1515 0.985 . S
H1522 N1519 0.984 . S
H1523 N1519 0.985 . S
H1524 N1518 0.984 . S
H1525 N1518 0.984 . S
H1526 N1514 0.984 . S
H1527 N1514 0.985 . S
C1528 C1529 1.363 . S
C1528 C1534 1.379 . S
C1528 N1536 1.356 . S
C1529 C1528 1.363 . S
C1529 C1535 1.363 . S
C1530 C1531 1.363 . S
C1530 C1535 1.379 . S
C1530 N1537 1.356 . S
C1531 C1530 1.363 . S
C1531 C1534 1.363 . S
N1532 C1534 1.321 1_554 S
N1532 H1544 1.013 . S
N1532 H1545 0.995 1_554 S
N1533 C1535 1.356 . S
N1533 H1538 0.984 . S
N1533 H1539 0.985 . S
C1534 C1528 1.379 . S
C1534 C1531 1.363 . S
C1534 N1532 1.321 1_556 S
C1535 C1529 1.363 . S
C1535 C1530 1.379 . S
C1535 N1533 1.356 . S
N1536 C1528 1.356 . S
N1536 H1542 0.984 1_556 S
N1536 H1543 0.984 . S
N1537 C1530 1.356 . S
N1537 H1540 0.984 . S
N1537 H1541 0.985 . S
H1538 N1533 0.984 . S
H1539 N1533 0.985 . S
H1540 N1537 0.984 . S
H1541 N1537 0.985 . S
H1542 N1536 0.984 1_554 S
H1543 N1536 0.984 . S
H1544 N1532 1.013 . S
H1545 N1532 0.995 1_556 S
C1546 C1547 1.363 . S
C1546 C1552 1.379 . S
C1546 N1554 1.356 . S
C1547 C1546 1.363 . S
C1547 C1553 1.363 . S
C1548 C1549 1.363 . S
C1548 C1553 1.379 . S
C1548 N1555 1.356 . S
C1549 C1548 1.363 . S
C1549 C1552 1.363 . S
N1550 C1552 1.356 . S
N1550 H1562 0.984 . S
N1550 H1563 0.985 . S
N1551 C1553 1.356 . S
N1551 H1556 0.984 . S
N1551 H1557 0.985 . S
C1552 C1546 1.379 . S
C1552 C1549 1.363 . S
C1552 N1550 1.356 . S
C1553 C1547 1.363 . S
C1553 C1548 1.379 . S
C1553 N1551 1.356 . S
N1554 C1546 1.356 . S
N1554 H1560 0.984 . S
N1554 H1561 0.984 . S
N1555 C1548 1.356 . S
N1555 H1558 0.984 . S
N1555 H1559 0.985 . S
H1556 N1551 0.984 . S
H1557 N1551 0.985 . S
H1558 N1555 0.984 . S
H1559 N1555 0.985 . S
H1560 N1554 0.984 . S
H1561 N1554 0.984 . S
H1562 N1550 0.984 . S
H1563 N1550 0.985 . S
C1564 C1565 1.363 . S
C1564 C1570 1.379 . S
C1564 N1572 1.356 . S
C1565 C1564 1.363 . S
C1565 C1571 1.363 . S
C1566 C1567 1.363 . S
C1566 C1571 1.379 . S
C1566 N1573 1.356 . S
C1567 C1566 1.363 . S
C1567 C1570 1.363 . S
N1568 C1570 1.356 . S
N1568 H1580 0.984 . S
N1568 H1581 0.985 . S
N1569 C1571 1.356 . S
N1569 H1574 0.984 . S
N1569 H1575 0.985 . S
C1570 C1564 1.379 . S
C1570 C1567 1.363 . S
C1570 N1568 1.356 . S
C1571 C1565 1.363 . S
C1571 C1566 1.379 . S
C1571 N1569 1.356 . S
N1572 C1564 1.356 . S
N1572 H1578 0.984 . S
N1572 H1579 0.984 . S
N1573 C1566 1.356 . S
N1573 H1576 0.984 . S
N1573 H1577 0.985 . S
H1574 N1569 0.984 . S
H1575 N1569 0.985 . S
H1576 N1573 0.984 . S
H1577 N1573 0.985 . S
H1578 N1572 0.984 . S
H1579 N1572 0.984 . S
H1580 N1568 0.984 . S
H1581 N1568 0.985 . S
C1582 C1583 1.363 . S
C1582 C1588 1.379 . S
C1582 N1590 1.356 . S
C1583 C1582 1.363 . S
C1583 C1589 1.363 . S
C1584 C1585 1.363 . S
C1584 C1589 1.379 . S
C1584 N1591 1.356 . S
C1585 C1584 1.363 . S
C1585 C1588 1.363 . S
N1586 C1588 1.356 . S
N1586 H1598 0.984 . S
N1586 H1599 0.985 . S
N1587 C1589 1.356 . S
N1587 H1592 0.984 . S
N1587 H1593 0.985 . S
C1588 C1582 1.379 . S
C1588 C1585 1.363 . S
C1588 N1586 1.356 . S
C1589 C1583 1.363 . S
C1589 C1584 1.379 . S
C1589 N1587 1.356 . S
N1590 C1582 1.356 . S
N1590 H1596 0.984 . S
N1590 H1597 0.984 . S
N1591 C1584 1.356 . S
N1591 H1594 0.984 . S
N1591 H1595 0.985 . S
H1592 N1587 0.984 . S
H1593 N1587 0.985 . S
H1594 N1591 0.984 . S
H1595 N1591 0.985 . S
H1596 N1590 0.984 . S
H1597 N1590 0.984 . S
H1598 N1586 0.984 . S
H1599 N1586 0.985 . S
C1600 C1601 1.363 . S
C1600 C1606 1.379 . S
C1600 N1608 1.356 . S
C1601 C1600 1.363 . S
C1601 C1607 1.363 . S
C1602 C1603 1.363 . S
C1602 C1607 1.379 . S
C1602 N1609 1.356 . S
C1603 C1602 1.363 . S
C1603 C1606 1.363 . S
N1604 C1606 1.356 . S
N1604 H1616 0.984 . S
N1604 H1617 0.985 . S
N1605 C1607 1.356 . S
N1605 H1610 0.984 . S
N1605 H1611 0.985 . S
C1606 C1600 1.379 . S
C1606 C1603 1.363 . S
C1606 N1604 1.356 . S
C1607 C1601 1.363 . S
C1607 C1602 1.379 . S
C1607 N1605 1.356 . S
N1608 C1600 1.356 . S
N1608 H1614 0.984 . S
N1608 H1615 0.984 . S
N1609 C1602 1.356 . S
N1609 H1612 0.984 . S
N1609 H1613 0.985 . S
H1610 N1605 0.984 . S
H1611 N1605 0.985 . S
H1612 N1609 0.984 . S
H1613 N1609 0.985 . S
H1614 N1608 0.984 . S
H1615 N1608 0.984 . S
H1616 N1604 0.984 . S
H1617 N1604 0.985 . S
C1618 C1619 1.363 . S
C1618 C1624 1.379 . S
C1618 N1626 1.356 . S
C1619 C1618 1.363 . S
C1619 C1625 1.363 . S
C1620 C1621 1.363 . S
C1620 C1625 1.379 . S
C1620 N1627 1.356 . S
C1621 C1620 1.363 . S
C1621 C1624 1.363 . S
N1622 C1624 1.356 . S
N1622 H1634 0.984 . S
N1622 H1635 0.985 . S
N1623 C1625 1.356 . S
N1623 H1628 0.984 . S
N1623 H1629 0.985 . S
C1624 C1618 1.379 . S
C1624 C1621 1.363 . S
C1624 N1622 1.356 . S
C1625 C1619 1.363 . S
C1625 C1620 1.379 . S
C1625 N1623 1.356 . S
N1626 C1618 1.356 . S
N1626 H1632 0.984 . S
N1626 H1633 0.984 . S
N1627 C1620 1.356 . S
N1627 H1630 0.984 . S
N1627 H1631 0.985 . S
H1628 N1623 0.984 . S
H1629 N1623 0.985 . S
H1630 N1627 0.984 . S
H1631 N1627 0.985 . S
H1632 N1626 0.984 . S
H1633 N1626 0.984 . S
H1634 N1622 0.984 . S
H1635 N1622 0.985 . S
C1636 C1637 1.363 . S
C1636 C1642 1.379 . S
C1636 N1644 1.356 . S
C1637 C1636 1.363 . S
C1637 C1643 1.363 . S
C1638 C1639 1.363 . S
C1638 C1643 1.379 . S
C1638 N1645 1.356 . S
C1639 C1638 1.363 . S
C1639 C1642 1.363 . S
N1640 C1642 1.356 . S
N1640 H1652 0.984 . S
N1640 H1653 0.985 . S
N1641 C1643 1.356 . S
N1641 H1646 0.984 . S
N1641 H1647 0.985 . S
C1642 C1636 1.379 . S
C1642 C1639 1.363 . S
C1642 N1640 1.356 . S
C1643 C1637 1.363 . S
C1643 C1638 1.379 . S
C1643 N1641 1.356 . S
N1644 C1636 1.356 . S
N1644 H1650 0.984 . S
N1644 H1651 0.984 . S
N1645 C1638 1.356 . S
N1645 H1648 0.984 . S
N1645 H1649 0.985 . S
H1646 N1641 0.984 . S
H1647 N1641 0.985 . S
H1648 N1645 0.984 . S
H1649 N1645 0.985 . S
H1650 N1644 0.984 . S
H1651 N1644 0.984 . S
H1652 N1640 0.984 . S
H1653 N1640 0.985 . S
C1654 C1655 1.363 . S
C1654 C1660 1.379 . S
C1654 N1662 1.356 . S
C1655 C1654 1.363 . S
C1655 C1661 1.363 . S
C1656 C1657 1.363 . S
C1656 C1661 1.379 . S
C1656 N1663 1.356 . S
C1657 C1656 1.363 . S
C1657 C1660 1.363 . S
N1658 C1660 1.356 . S
N1658 H1670 0.984 . S
N1658 H1671 0.985 . S
N1659 C1661 1.356 . S
N1659 H1664 0.984 . S
N1659 H1665 0.985 . S
C1660 C1654 1.379 . S
C1660 C1657 1.363 . S
C1660 N1658 1.356 . S
C1661 C1655 1.363 . S
C1661 C1656 1.379 . S
C1661 N1659 1.356 . S
N1662 C1654 1.356 . S
N1662 H1668 0.984 . S
N1662 H1669 0.984 . S
N1663 C1656 1.356 . S
N1663 H1666 0.984 . S
N1663 H1667 0.985 . S
H1664 N1659 0.984 . S
H1665 N1659 0.985 . S
H1666 N1663 0.984 . S
H1667 N1663 0.985 . S
H1668 N1662 0.984 . S
H1669 N1662 0.984 . S
H1670 N1658 0.984 . S
H1671 N1658 0.985 . S
C1672 C1673 1.363 . S
C1672 C1678 1.379 . S
C1672 N1680 1.356 1_556 S
C1673 C1672 1.363 . S
C1673 C1679 1.363 . S
C1674 C1675 1.363 . S
C1674 C1679 1.379 . S
C1674 N1681 1.356 . S
C1675 C1674 1.363 . S
C1675 C1678 1.363 . S
N1676 C1678 1.356 . S
N1676 H1688 0.984 . S
N1676 H1689 0.985 . S
N1677 C1679 1.356 . S
N1677 H1682 0.984 . S
N1677 H1683 0.985 . S
C1678 C1672 1.379 . S
C1678 C1675 1.363 . S
C1678 N1676 1.356 . S
C1679 C1673 1.363 . S
C1679 C1674 1.379 . S
C1679 N1677 1.356 . S
N1680 C1672 1.356 1_554 S
N1680 H1686 0.984 . S
N1680 H1687 0.984 . S
N1681 C1674 1.356 . S
N1681 H1684 0.984 . S
N1681 H1685 0.985 . S
H1682 N1677 0.984 . S
H1683 N1677 0.985 . S
H1684 N1681 0.984 . S
H1685 N1681 0.985 . S
H1686 N1680 0.984 . S
H1687 N1680 0.984 . S
H1688 N1676 0.984 . S
H1689 N1676 0.985 . S
C1690 C1691 1.363 . S
C1690 C1696 1.379 . S
C1690 N1698 1.356 . S
C1691 C1690 1.363 . S
C1691 C1697 1.363 . S
C1692 C1693 1.363 . S
C1692 C1697 1.379 . S
C1692 N1699 1.356 . S
C1693 C1692 1.363 . S
C1693 C1696 1.363 . S
N1694 C1696 1.356 . S
N1694 H1706 0.984 . S
N1694 H1707 0.985 . S
N1695 C1697 1.356 . S
N1695 H1700 0.984 . S
N1695 H1701 0.985 . S
C1696 C1690 1.379 . S
C1696 C1693 1.363 . S
C1696 N1694 1.356 . S
C1697 C1691 1.363 . S
C1697 C1692 1.379 . S
C1697 N1695 1.356 . S
N1698 C1690 1.356 . S
N1698 H1704 0.984 . S
N1698 H1705 0.984 . S
N1699 C1692 1.356 . S
N1699 H1702 0.984 . S
N1699 H1703 0.985 . S
H1700 N1695 0.984 . S
H1701 N1695 0.985 . S
H1702 N1699 0.984 . S
H1703 N1699 0.985 . S
H1704 N1698 0.984 . S
H1705 N1698 0.984 . S
H1706 N1694 0.984 . S
H1707 N1694 0.985 . S
C1708 C1709 1.363 . S
C1708 C1714 1.379 . S
C1708 N1716 1.356 . S
C1709 C1708 1.363 . S
C1709 C1715 1.363 . S
C1710 C1711 1.363 . S
C1710 C1715 1.379 . S
C1710 N1717 1.356 . S
C1711 C1710 1.363 . S
C1711 C1714 1.363 . S
N1712 C1714 1.356 . S
N1712 H1724 0.984 . S
N1712 H1725 0.985 . S
N1713 C1715 1.356 . S
N1713 H1718 0.984 . S
N1713 H1719 0.985 . S
C1714 C1708 1.379 . S
C1714 C1711 1.363 . S
C1714 N1712 1.356 . S
C1715 C1709 1.363 . S
C1715 C1710 1.379 . S
C1715 N1713 1.356 . S
N1716 C1708 1.356 . S
N1716 H1722 0.984 . S
N1716 H1723 0.984 . S
N1717 C1710 1.356 . S
N1717 H1720 0.984 . S
N1717 H1721 0.985 . S
H1718 N1713 0.984 . S
H1719 N1713 0.985 . S
H1720 N1717 0.984 . S
H1721 N1717 0.985 . S
H1722 N1716 0.984 . S
H1723 N1716 0.984 . S
H1724 N1712 0.984 . S
H1725 N1712 0.985 . S
C1726 C1727 1.363 . S
C1726 C1732 1.379 . S
C1726 N1734 1.356 . S
C1727 C1726 1.363 . S
C1727 C1733 1.363 . S
C1728 C1729 1.363 . S
C1728 C1733 1.379 . S
C1728 N1735 1.356 . S
C1729 C1728 1.363 . S
C1729 C1732 1.363 . S
N1730 C1732 1.356 . S
N1730 H1742 0.984 . S
N1730 H1743 0.985 . S
N1731 C1733 1.356 . S
N1731 H1736 0.984 . S
N1731 H1737 0.985 . S
C1732 C1726 1.379 . S
C1732 C1729 1.363 . S
C1732 N1730 1.356 . S
C1733 C1727 1.363 . S
C1733 C1728 1.379 . S
C1733 N1731 1.356 . S
N1734 C1726 1.356 . S
N1734 H1740 0.984 . S
N1734 H1741 0.984 . S
N1735 C1728 1.356 . S
N1735 H1738 0.984 . S
N1735 H1739 0.985 . S
H1736 N1731 0.984 . S
H1737 N1731 0.985 . S
H1738 N1735 0.984 . S
H1739 N1735 0.985 . S
H1740 N1734 0.984 . S
H1741 N1734 0.984 . S
H1742 N1730 0.984 . S
H1743 N1730 0.985 . S
C1744 C1745 1.363 . S
C1744 C1750 1.379 . S
C1744 N1752 1.356 . S
C1745 C1744 1.363 . S
C1745 C1751 1.363 . S
C1746 C1747 1.363 . S
C1746 C1751 1.379 . S
C1746 N1753 1.356 . S
C1747 C1746 1.363 . S
C1747 C1750 1.363 . S
N1748 C1750 1.356 . S
N1748 H1760 0.984 . S
N1748 H1761 0.985 . S
N1749 C1751 1.356 . S
N1749 H1754 0.984 . S
N1749 H1755 0.985 . S
C1750 C1744 1.379 . S
C1750 C1747 1.363 . S
C1750 N1748 1.356 . S
C1751 C1745 1.363 . S
C1751 C1746 1.379 . S
C1751 N1749 1.356 . S
N1752 C1744 1.356 . S
N1752 H1758 1.000 . S
N1752 H1759 0.984 . S
N1753 C1746 1.356 . S
N1753 H1756 0.984 . S
N1753 H1757 0.985 . S
H1754 N1749 0.984 . S
H1755 N1749 0.985 . S
H1756 N1753 0.984 . S
H1757 N1753 0.985 . S
H1758 N1752 1.000 . S
H1759 N1752 0.984 . S
H1760 N1748 0.984 . S
H1761 N1748 0.985 . S
C1762 C1763 1.363 1_565 S
C1762 C1768 1.379 1_565 S
C1762 N1770 1.356 . S
C1763 C1762 1.363 1_545 S
C1763 C1769 1.368 . S
C1764 C1765 1.363 . S
C1764 C1769 1.379 . S
C1764 N1771 1.356 . S
C1765 C1764 1.363 . S
C1765 C1768 1.363 . S
N1766 C1768 1.356 . S
N1766 H1778 0.984 1_545 S
N1766 H1779 0.985 . S
N1767 C1769 1.356 . S
N1767 H1772 0.984 . S
N1767 H1773 0.985 . S
C1768 C1762 1.379 1_545 S
C1768 C1765 1.363 . S
C1768 N1766 1.356 . S
C1769 C1763 1.368 . S
C1769 C1764 1.379 . S
C1769 N1767 1.356 . S
N1770 C1762 1.356 . S
N1770 H1776 0.984 . S
N1770 H1777 0.984 . S
N1771 C1764 1.356 . S
N1771 H1774 0.984 . S
N1771 H1775 0.985 . S
H1772 N1767 0.984 . S
H1773 N1767 0.985 . S
H1774 N1771 0.984 . S
H1775 N1771 0.985 . S
H1776 N1770 0.984 . S
H1777 N1770 0.984 . S
H1778 N1766 0.984 1_565 S
H1779 N1766 0.985 . S
C1780 C1781 1.363 . S
C1780 C1786 1.379 . S
C1780 N1788 1.356 . S
C1781 C1780 1.363 . S
C1781 C1787 1.363 . S
C1782 C1783 1.363 . S
C1782 C1787 1.379 . S
C1782 N1789 1.356 . S
C1783 C1782 1.363 . S
C1783 C1786 1.363 . S
N1784 C1786 1.356 . S
N1784 H1796 0.984 . S
N1784 H1797 0.985 . S
N1785 C1787 1.356 . S
N1785 H1790 0.984 . S
N1785 H1791 0.985 . S
C1786 C1780 1.379 . S
C1786 C1783 1.363 . S
C1786 N1784 1.356 . S
C1787 C1781 1.363 . S
C1787 C1782 1.379 . S
C1787 N1785 1.356 . S
N1788 C1780 1.356 . S
N1788 H1794 0.984 . S
N1788 H1795 0.984 . S
N1789 C1782 1.356 . S
N1789 H1792 0.984 . S
N1789 H1793 0.985 . S
H1790 N1785 0.984 . S
H1791 N1785 0.985 . S
H1792 N1789 0.984 . S
H1793 N1789 0.985 . S
H1794 N1788 0.984 . S
H1795 N1788 0.984 . S
H1796 N1784 0.984 . S
H1797 N1784 0.985 . S
C1798 C1799 1.363 . S
C1798 C1804 1.379 . S
C1798 N1806 1.356 . S
C1799 C1798 1.363 . S
C1799 C1805 1.363 . S
C1800 C1801 1.363 . S
C1800 C1805 1.379 . S
C1800 N1807 1.356 . S
C1801 C1800 1.363 . S
C1801 C1804 1.363 . S
N1802 C1804 1.356 . S
N1802 H1814 0.984 . S
N1802 H1815 0.985 . S
N1803 C1805 1.356 . S
N1803 H1808 0.984 . S
N1803 H1809 0.985 . S
C1804 C1798 1.379 . S
C1804 C1801 1.363 . S
C1804 N1802 1.356 . S
C1805 C1799 1.363 . S
C1805 C1800 1.379 . S
C1805 N1803 1.356 . S
N1806 C1798 1.356 . S
N1806 H1812 0.984 . S
N1806 H1813 0.984 . S
N1807 C1800 1.356 . S
N1807 H1810 0.984 . S
N1807 H1811 0.985 . S
H1808 N1803 0.984 . S
H1809 N1803 0.985 . S
H1810 N1807 0.984 . S
H1811 N1807 0.985 . S
H1812 N1806 0.984 . S
H1813 N1806 0.984 . S
H1814 N1802 0.984 . S
H1815 N1802 0.985 . S
C1816 C1817 1.363 . S
C1816 C1822 1.379 . S
C1816 N1824 1.356 . S
C1817 C1816 1.363 . S
C1817 C1823 1.363 . S
C1818 C1819 1.363 . S
C1818 C1823 1.379 . S
C1818 N1825 1.356 . S
C1819 C1818 1.363 . S
C1819 C1822 1.363 . S
N1820 C1822 1.356 . S
N1820 H1832 0.984 . S
N1820 H1833 0.985 . S
N1821 C1823 1.356 . S
N1821 H1826 0.984 . S
N1821 H1827 0.985 . S
C1822 C1816 1.379 . S
C1822 C1819 1.363 . S
C1822 N1820 1.356 . S
C1823 C1817 1.363 . S
C1823 C1818 1.379 . S
C1823 N1821 1.356 . S
N1824 C1816 1.356 . S
N1824 H1830 0.984 . S
N1824 H1831 0.984 . S
N1825 C1818 1.356 . S
N1825 H1828 0.984 . S
N1825 H1829 0.985 . S
H1826 N1821 0.984 . S
H1827 N1821 0.985 . S
H1828 N1825 0.984 . S
H1829 N1825 0.985 . S
H1830 N1824 0.984 . S
H1831 N1824 0.984 . S
H1832 N1820 0.984 . S
H1833 N1820 0.985 . S
C1834 C1835 1.363 . S
C1834 C1840 1.379 . S
C1834 N1842 1.356 . S
C1835 C1834 1.363 . S
C1835 C1841 1.363 . S
C1836 C1837 1.363 . S
C1836 C1841 1.379 . S
C1836 N1843 1.356 . S
C1837 C1836 1.363 . S
C1837 C1840 1.363 . S
N1838 C1840 1.356 . S
N1838 H1850 0.984 . S
N1838 H1851 0.985 . S
N1839 C1841 1.356 . S
N1839 H1844 0.984 . S
N1839 H1845 0.985 . S
C1840 C1834 1.379 . S
C1840 C1837 1.363 . S
C1840 N1838 1.356 . S
C1841 C1835 1.363 . S
C1841 C1836 1.379 . S
C1841 N1839 1.356 . S
N1842 C1834 1.356 . S
N1842 H1848 0.984 . S
N1842 H1849 0.984 . S
N1843 C1836 1.356 . S
N1843 H1846 0.984 . S
N1843 H1847 0.985 . S
H1844 N1839 0.984 . S
H1845 N1839 0.985 . S
H1846 N1843 0.984 . S
H1847 N1843 0.985 . S
H1848 N1842 0.984 . S
H1849 N1842 0.984 . S
H1850 N1838 0.984 . S
H1851 N1838 0.985 . S
C1852 C1853 1.363 . S
C1852 C1858 1.379 . S
C1852 N1860 1.356 . S
C1853 C1852 1.363 . S
C1853 C1859 1.363 . S
C1854 C1855 1.363 . S
C1854 C1859 1.379 . S
C1854 N1861 1.356 . S
C1855 C1854 1.363 . S
C1855 C1858 1.363 . S
N1856 C1858 1.356 1_554 S
N1856 H1868 0.984 1_455 S
N1856 H1869 0.985 . S
N1857 C1859 1.356 . S
N1857 H1862 0.984 . S
N1857 H1863 0.985 . S
C1858 C1852 1.379 . S
C1858 C1855 1.363 . S
C1858 N1856 1.356 1_556 S
C1859 C1853 1.363 . S
C1859 C1854 1.379 . S
C1859 N1857 1.356 . S
N1860 C1852 1.356 . S
N1860 H1866 0.984 1_455 S
N1860 H1867 0.984 . S
N1861 C1854 1.356 . S
N1861 H1864 0.984 . S
N1861 H1865 0.985 . S
H1862 N1857 0.984 . S
H1863 N1857 0.985 . S
H1864 N1861 0.984 . S
H1865 N1861 0.985 . S
H1866 N1860 0.984 1_655 S
H1867 N1860 0.984 . S
H1868 N1856 0.984 1_655 S
H1869 N1856 0.985 . S
C1870 C1871 1.363 1_655 S
C1870 C1876 1.379 . S
C1870 N1878 1.356 1_655 S
C1871 C1870 1.363 1_455 S
C1871 C1877 1.363 . S
C1872 C1873 1.363 . S
C1872 C1877 1.379 1_655 S
C1872 N1879 1.356 . S
C1873 C1872 1.363 . S
C1873 C1876 1.363 . S
N1874 C1876 1.356 . S
N1874 H1886 0.984 . S
N1874 H1887 0.985 . S
N1875 C1877 1.356 . S
N1875 H1880 0.984 . S
N1875 H1881 0.985 . S
C1876 C1870 1.379 . S
C1876 C1873 1.363 . S
C1876 N1874 1.356 . S
C1877 C1871 1.363 . S
C1877 C1872 1.379 1_455 S
C1877 N1875 1.356 . S
N1878 C1870 1.356 1_455 S
N1878 H1884 0.984 1_455 S
N1878 H1885 0.984 . S
N1879 C1872 1.356 . S
N1879 H1882 0.984 . S
N1879 H1883 0.985 . S
H1880 N1875 0.984 . S
H1881 N1875 0.985 . S
H1882 N1879 0.984 . S
H1883 N1879 0.985 . S
H1884 N1878 0.984 1_655 S
H1885 N1878 0.984 . S
H1886 N1874 0.984 . S
H1887 N1874 0.985 . S
C1888 C1889 1.363 . S
C1888 C1894 1.379 . S
C1888 N1896 1.356 . S
C1889 C1888 1.363 . S
C1889 C1895 1.363 . S
C1890 C1891 1.363 . S
C1890 C1895 1.379 . S
C1890 N1897 1.356 . S
C1891 C1890 1.363 . S
C1891 C1894 1.363 . S
N1892 C1894 1.356 . S
N1892 H1904 0.984 . S
N1892 H1905 0.985 . S
N1893 C1895 1.356 . S
N1893 H1898 0.984 . S
N1893 H1899 0.985 . S
C1894 C1888 1.379 . S
C1894 C1891 1.363 . S
C1894 N1892 1.356 . S
C1895 C1889 1.363 . S
C1895 C1890 1.379 . S
C1895 N1893 1.356 . S
N1896 C1888 1.356 . S
N1896 H1902 0.984 . S
N1896 H1903 0.984 . S
N1897 C1890 1.356 . S
N1897 H1900 0.984 . S
N1897 H1901 0.985 . S
H1898 N1893 0.984 . S
H1899 N1893 0.985 . S
H1900 N1897 0.984 . S
H1901 N1897 0.985 . S
H1902 N1896 0.984 . S
H1903 N1896 0.984 . S
H1904 N1892 0.984 . S
H1905 N1892 0.985 . S
C1906 C1907 1.363 . S
C1906 C1912 1.379 . S
C1906 N1914 1.356 . S
C1907 C1906 1.363 . S
C1907 C1913 1.363 . S
C1908 C1909 1.363 . S
C1908 C1913 1.379 . S
C1908 N1915 1.356 . S
C1909 C1908 1.363 . S
C1909 C1912 1.363 . S
N1910 C1912 1.356 . S
N1910 H1922 0.984 . S
N1910 H1923 0.985 . S
N1911 C1913 1.356 . S
N1911 H1916 0.984 . S
N1911 H1917 0.985 . S
C1912 C1906 1.379 . S
C1912 C1909 1.363 . S
C1912 N1910 1.356 . S
C1913 C1907 1.363 . S
C1913 C1908 1.379 . S
C1913 N1911 1.356 . S
N1914 C1906 1.356 . S
N1914 H1920 0.984 . S
N1914 H1921 0.984 . S
N1915 C1908 1.356 . S
N1915 H1918 0.984 . S
N1915 H1919 0.985 . S
H1916 N1911 0.984 . S
H1917 N1911 0.985 . S
H1918 N1915 0.984 . S
H1919 N1915 0.985 . S
H1920 N1914 0.984 . S
H1921 N1914 0.984 . S
H1922 N1910 0.984 . S
H1923 N1910 0.985 . S
C1924 C1925 1.363 . S
C1924 C1930 1.379 . S
C1924 N1932 1.356 . S
C1925 C1924 1.363 . S
C1925 C1931 1.363 . S
C1926 C1927 1.363 . S
C1926 C1931 1.379 . S
C1926 N1933 1.356 . S
C1927 C1926 1.363 . S
C1927 C1930 1.363 . S
N1928 C1930 1.356 . S
N1928 H1940 0.984 . S
N1928 H1941 0.985 . S
N1929 C1931 1.356 . S
N1929 H1934 0.984 . S
N1929 H1935 0.985 . S
C1930 C1924 1.379 . S
C1930 C1927 1.363 . S
C1930 N1928 1.356 . S
C1931 C1925 1.363 . S
C1931 C1926 1.379 . S
C1931 N1929 1.356 . S
N1932 C1924 1.356 . S
N1932 H1938 0.984 . S
N1932 H1939 0.984 . S
N1933 C1926 1.356 . S
N1933 H1936 0.984 . S
N1933 H1937 0.985 . S
H1934 N1929 0.984 . S
H1935 N1929 0.985 . S
H1936 N1933 0.984 . S
H1937 N1933 0.985 . S
H1938 N1932 0.984 . S
H1939 N1932 0.984 . S
H1940 N1928 0.984 . S
H1941 N1928 0.985 . S
C1942 C1943 1.363 . S
C1942 C1948 1.379 . S
C1942 N1950 1.356 . S
C1943 C1942 1.363 . S
C1943 C1949 1.363 . S
C1944 C1945 1.363 . S
C1944 C1949 1.379 . S
C1944 N1951 1.356 . S
C1945 C1944 1.363 . S
C1945 C1948 1.363 . S
N1946 C1948 1.356 . S
N1946 H1958 0.984 . S
N1946 H1959 0.985 . S
N1947 C1949 1.356 . S
N1947 H1952 0.984 . S
N1947 H1953 0.985 . S
C1948 C1942 1.379 . S
C1948 C1945 1.363 . S
C1948 N1946 1.356 . S
C1949 C1943 1.363 . S
C1949 C1944 1.379 . S
C1949 N1947 1.356 . S
N1950 C1942 1.356 . S
N1950 H1956 0.984 . S
N1950 H1957 0.984 . S
N1951 C1944 1.356 . S
N1951 H1954 0.984 . S
N1951 H1955 0.985 . S
H1952 N1947 0.984 . S
H1953 N1947 0.985 . S
H1954 N1951 0.984 . S
H1955 N1951 0.985 . S
H1956 N1950 0.984 . S
H1957 N1950 0.984 . S
H1958 N1946 0.984 . S
H1959 N1946 0.985 . S
C1960 C1961 1.363 . S
C1960 C1966 1.379 . S
C1960 N1968 1.356 . S
C1961 C1960 1.363 . S
C1961 C1967 1.363 . S
C1962 C1963 1.363 . S
C1962 C1967 1.379 . S
C1962 N1969 1.356 . S
C1963 C1962 1.363 . S
C1963 C1966 1.363 . S
N1964 C1966 1.356 . S
N1964 H1976 0.984 . S
N1964 H1977 0.985 . S
N1965 C1967 1.356 . S
N1965 H1970 0.984 . S
N1965 H1971 0.985 . S
C1966 C1960 1.379 . S
C1966 C1963 1.363 . S
C1966 N1964 1.356 . S
C1967 C1961 1.363 . S
C1967 C1962 1.379 . S
C1967 N1965 1.356 . S
N1968 C1960 1.356 . S
N1968 H1974 0.984 . S
N1968 H1975 0.984 . S
N1969 C1962 1.356 . S
N1969 H1972 0.984 . S
N1969 H1973 0.985 . S
H1970 N1965 0.984 . S
H1971 N1965 0.985 . S
H1972 N1969 0.984 . S
H1973 N1969 0.985 . S
H1974 N1968 0.984 . S
H1975 N1968 0.984 . S
H1976 N1964 0.984 . S
H1977 N1964 0.985 . S
C1978 C1979 1.363 . S
C1978 C1984 1.379 . S
C1978 N1986 1.356 . S
C1979 C1978 1.363 . S
C1979 C1985 1.363 . S
C1980 C1981 1.363 . S
C1980 C1985 1.379 . S
C1980 N1987 1.356 . S
C1981 C1980 1.363 . S
C1981 C1984 1.363 . S
N1982 C1984 1.356 . S
N1982 H1994 0.984 . S
N1982 H1995 0.985 . S
N1983 C1985 1.356 . S
N1983 H1988 0.984 . S
N1983 H1989 0.985 . S
C1984 C1978 1.379 . S
C1984 C1981 1.363 . S
C1984 N1982 1.356 . S
C1985 C1979 1.363 . S
C1985 C1980 1.379 . S
C1985 N1983 1.356 . S
N1986 C1978 1.356 . S
N1986 H1992 0.984 . S
N1986 H1993 0.984 . S
N1987 C1980 1.356 . S
N1987 H1990 0.984 . S
N1987 H1991 0.985 . S
H1988 N1983 0.984 . S
H1989 N1983 0.985 . S
H1990 N1987 0.984 . S
H1991 N1987 0.985 . S
H1992 N1986 0.984 . S
H1993 N1986 0.984 . S
H1994 N1982 0.984 . S
H1995 N1982 0.985 . S
C1996 C1997 1.363 . S
C1996 C2002 1.379 . S
C1996 N2004 1.356 . S
C1997 C1996 1.363 . S
C1997 C2003 1.363 . S
C1998 C1999 1.363 . S
C1998 C2003 1.379 . S
C1998 N2005 1.356 . S
C1999 C1998 1.363 . S
C1999 C2002 1.363 . S
N2000 C2002 1.356 . S
N2000 H2012 0.984 . S
N2000 H2013 0.985 . S
N2001 C2003 1.356 . S
N2001 H2006 0.984 . S
N2001 H2007 0.985 . S
C2002 C1996 1.379 . S
C2002 C1999 1.363 . S
C2002 N2000 1.356 . S
C2003 C1997 1.363 . S
C2003 C1998 1.379 . S
C2003 N2001 1.356 . S
N2004 C1996 1.356 . S
N2004 H2010 0.984 . S
N2004 H2011 0.984 . S
N2005 C1998 1.356 . S
N2005 H2008 0.984 . S
N2005 H2009 0.985 . S
H2006 N2001 0.984 . S
H2007 N2001 0.985 . S
H2008 N2005 0.984 . S
H2009 N2005 0.985 . S
H2010 N2004 0.984 . S
H2011 N2004 0.984 . S
H2012 N2000 0.984 . S
H2013 N2000 0.985 . S
C2014 C2015 1.363 . S
C2014 C2020 1.379 . S
C2014 N2022 1.356 . S
C2015 C2014 1.363 . S
C2015 C2021 1.363 . S
C2016 C2017 1.363 . S
C2016 C2021 1.379 . S
C2016 N2023 1.356 . S
C2017 C2016 1.363 . S
C2017 C2020 1.363 . S
N2018 C2020 1.356 . S
N2018 H2030 0.984 . S
N2018 H2031 0.985 . S
N2019 C2021 1.356 . S
N2019 H2024 0.984 . S
N2019 H2025 0.985 . S
C2020 C2014 1.379 . S
C2020 C2017 1.363 . S
C2020 N2018 1.356 . S
C2021 C2015 1.363 . S
C2021 C2016 1.379 . S
C2021 N2019 1.356 . S
N2022 C2014 1.356 . S
N2022 H2028 0.984 . S
N2022 H2029 0.984 . S
N2023 C2016 1.356 . S
N2023 H2026 0.984 . S
N2023 H2027 0.985 . S
H2024 N2019 0.984 . S
H2025 N2019 0.985 . S
H2026 N2023 0.984 . S
H2027 N2023 0.985 . S
H2028 N2022 0.984 . S
H2029 N2022 0.984 . S
H2030 N2018 0.984 . S
H2031 N2018 0.985 . S
C2032 C2033 1.363 . S
C2032 C2038 1.379 . S
C2032 N2040 1.356 . S
C2033 C2032 1.363 . S
C2033 C2039 1.363 . S
C2034 C2035 1.363 . S
C2034 C2039 1.379 . S
C2034 N2041 1.356 . S
C2035 C2034 1.363 . S
C2035 C2038 1.363 . S
N2036 C2038 1.356 . S
N2036 H2048 0.984 . S
N2036 H2049 0.985 . S
N2037 C2039 1.356 . S
N2037 H2042 0.984 . S
N2037 H2043 0.985 . S
C2038 C2032 1.379 . S
C2038 C2035 1.363 . S
C2038 N2036 1.356 . S
C2039 C2033 1.363 . S
C2039 C2034 1.379 . S
C2039 N2037 1.356 . S
N2040 C2032 1.356 . S
N2040 H2046 0.984 . S
N2040 H2047 0.984 . S
N2041 C2034 1.356 . S
N2041 H2044 0.984 . S
N2041 H2045 0.985 . S
H2042 N2037 0.984 . S
H2043 N2037 0.985 . S
H2044 N2041 0.984 . S
H2045 N2041 0.985 . S
H2046 N2040 0.984 . S
H2047 N2040 0.984 . S
H2048 N2036 0.984 . S
H2049 N2036 0.985 . S
C2050 C2051 1.363 . S
C2050 C2056 1.379 . S
C2050 N2058 1.356 . S
C2051 C2050 1.363 . S
C2051 C2057 1.363 . S
C2052 C2053 1.363 . S
C2052 C2057 1.379 . S
C2052 N2059 1.356 . S
C2053 C2052 1.363 . S
C2053 C2056 1.363 . S
N2054 C2056 1.356 . S
N2054 H2066 0.984 . S
N2054 H2067 0.985 . S
N2055 C2057 1.356 . S
N2055 H2060 0.984 . S
N2055 H2061 0.985 . S
C2056 C2050 1.379 . S
C2056 C2053 1.363 . S
C2056 N2054 1.356 . S
C2057 C2051 1.363 . S
C2057 C2052 1.379 . S
C2057 N2055 1.356 . S
N2058 C2050 1.356 . S
N2058 H2064 0.984 . S
N2058 H2065 0.984 . S
N2059 C2052 1.356 . S
N2059 H2062 0.984 . S
N2059 H2063 0.985 . S
H2060 N2055 0.984 . S
H2061 N2055 0.985 . S
H2062 N2059 0.984 . S
H2063 N2059 0.985 . S
H2064 N2058 0.984 . S
H2065 N2058 0.984 . S
H2066 N2054 0.984 . S
H2067 N2054 0.985 . S
C2068 C2069 1.363 . S
C2068 C2074 1.379 . S
C2068 N2076 1.356 . S
C2069 C2068 1.363 . S
C2069 C2075 1.363 . S
C2070 C2071 1.363 . S
C2070 C2075 1.379 . S
C2070 N2077 1.356 . S
C2071 C2070 1.363 . S
C2071 C2074 1.363 . S
N2072 C2074 1.356 . S
N2072 H2084 0.984 . S
N2072 H2085 0.985 . S
N2073 C2075 1.356 . S
N2073 H2078 0.984 . S
N2073 H2079 0.985 . S
C2074 C2068 1.379 . S
C2074 C2071 1.363 . S
C2074 N2072 1.356 . S
C2075 C2069 1.363 . S
C2075 C2070 1.379 . S
C2075 N2073 1.356 . S
N2076 C2068 1.356 . S
N2076 H2082 0.984 . S
N2076 H2083 0.984 . S
N2077 C2070 1.356 . S
N2077 H2080 0.984 . S
N2077 H2081 0.985 . S
H2078 N2073 0.984 . S
H2079 N2073 0.985 . S
H2080 N2077 0.984 . S
H2081 N2077 0.985 . S
H2082 N2076 0.984 . S
H2083 N2076 0.984 . S
H2084 N2072 0.984 . S
H2085 N2072 0.985 . S
C2086 C2087 1.363 . S
C2086 C2092 1.379 . S
C2086 N2094 1.356 . S
C2087 C2086 1.363 . S
C2087 C2093 1.363 . S
C2088 C2089 1.363 . S
C2088 C2093 1.379 . S
C2088 N2095 1.356 . S
C2089 C2088 1.363 . S
C2089 C2092 1.363 . S
N2090 C2092 1.356 . S
N2090 H2102 0.984 . S
N2090 H2103 0.985 . S
N2091 C2093 1.356 . S
N2091 H2096 0.984 . S
N2091 H2097 0.985 . S
C2092 C2086 1.379 . S
C2092 C2089 1.363 . S
C2092 N2090 1.356 . S
C2093 C2087 1.363 . S
C2093 C2088 1.379 . S
C2093 N2091 1.356 . S
N2094 C2086 1.356 . S
N2094 H2100 0.984 . S
N2094 H2101 0.984 . S
N2095 C2088 1.356 . S
N2095 H2098 0.984 . S
N2095 H2099 0.985 . S
H2096 N2091 0.984 . S
H2097 N2091 0.985 . S
H2098 N2095 0.984 . S
H2099 N2095 0.985 . S
H2100 N2094 0.984 . S
H2101 N2094 0.984 . S
H2102 N2090 0.984 . S
H2103 N2090 0.985 . S
C2104 C2105 1.363 . S
C2104 C2110 1.379 . S
C2104 N2112 1.356 . S
C2105 C2104 1.363 . S
C2105 C2111 1.363 . S
C2106 C2107 1.363 . S
C2106 C2111 1.379 . S
C2106 N2113 1.356 . S
C2107 C2106 1.363 . S
C2107 C2110 1.363 . S
N2108 C2110 1.356 . S
N2108 H2120 0.984 . S
N2108 H2121 0.985 . S
N2109 C2111 1.356 . S
N2109 H2114 0.984 . S
N2109 H2115 0.985 . S
C2110 C2104 1.379 . S
C2110 C2107 1.363 . S
C2110 N2108 1.356 . S
C2111 C2105 1.363 . S
C2111 C2106 1.379 . S
C2111 N2109 1.356 . S
N2112 C2104 1.356 . S
N2112 H2118 0.984 . S
N2112 H2119 0.984 . S
N2113 C2106 1.356 . S
N2113 H2116 0.984 . S
N2113 H2117 0.985 . S
H2114 N2109 0.984 . S
H2115 N2109 0.985 . S
H2116 N2113 0.984 . S
H2117 N2113 0.985 . S
H2118 N2112 0.984 . S
H2119 N2112 0.984 . S
H2120 N2108 0.984 . S
H2121 N2108 0.985 . S
C2122 C2123 1.363 . S
C2122 C2128 1.379 . S
C2122 N2130 1.356 . S
C2123 C2122 1.363 . S
C2123 C2129 1.363 . S
C2124 C2125 1.363 . S
C2124 C2129 1.379 . S
C2124 N2131 1.356 . S
C2125 C2124 1.363 . S
C2125 C2128 1.363 . S
N2126 C2128 1.356 . S
N2126 H2138 0.984 . S
N2126 H2139 0.985 . S
N2127 C2129 1.356 . S
N2127 H2132 0.984 . S
N2127 H2133 0.985 . S
C2128 C2122 1.379 . S
C2128 C2125 1.363 . S
C2128 N2126 1.356 . S
C2129 C2123 1.363 . S
C2129 C2124 1.379 . S
C2129 N2127 1.356 . S
N2130 C2122 1.356 . S
N2130 H2136 0.984 . S
N2130 H2137 0.984 . S
N2131 C2124 1.356 . S
N2131 H2134 0.984 . S
N2131 H2135 0.985 . S
H2132 N2127 0.984 . S
H2133 N2127 0.985 . S
H2134 N2131 0.984 . S
H2135 N2131 0.985 . S
H2136 N2130 0.984 . S
H2137 N2130 0.984 . S
H2138 N2126 0.984 . S
H2139 N2126 0.985 . S
C2140 C2141 1.363 . S
C2140 C2146 1.379 . S
C2140 N2148 1.356 . S
C2141 C2140 1.363 . S
C2141 C2147 1.363 . S
C2142 C2143 1.363 . S
C2142 C2147 1.379 . S
C2142 N2149 1.356 . S
C2143 C2142 1.363 . S
C2143 C2146 1.363 . S
N2144 C2146 1.356 . S
N2144 H2156 0.984 . S
N2144 H2157 0.985 . S
N2145 C2147 1.356 . S
N2145 H2150 0.984 . S
N2145 H2151 0.985 . S
C2146 C2140 1.379 . S
C2146 C2143 1.363 . S
C2146 N2144 1.356 . S
C2147 C2141 1.363 . S
C2147 C2142 1.379 . S
C2147 N2145 1.356 . S
N2148 C2140 1.356 . S
N2148 H2154 0.984 . S
N2148 H2155 0.984 . S
N2149 C2142 1.356 . S
N2149 H2152 0.984 . S
N2149 H2153 0.985 . S
H2150 N2145 0.984 . S
H2151 N2145 0.985 . S
H2152 N2149 0.984 . S
H2153 N2149 0.985 . S
H2154 N2148 0.984 . S
H2155 N2148 0.984 . S
H2156 N2144 0.984 . S
H2157 N2144 0.985 . S
C2158 C2159 1.363 . S
C2158 C2164 1.379 . S
C2158 N2166 1.356 . S
C2159 C2158 1.363 . S
C2159 C2165 1.363 . S
C2160 C2161 1.363 . S
C2160 C2165 1.379 . S
C2160 N2167 1.356 . S
C2161 C2160 1.363 . S
C2161 C2164 1.363 . S
N2162 C2164 1.356 . S
N2162 H2174 0.984 . S
N2162 H2175 0.985 . S
N2163 C2165 1.356 1_565 S
N2163 H2168 0.984 . S
N2163 H2169 0.985 . S
C2164 C2158 1.379 . S
C2164 C2161 1.363 . S
C2164 N2162 1.356 . S
C2165 C2159 1.363 . S
C2165 C2160 1.379 . S
C2165 N2163 1.356 1_545 S
N2166 C2158 1.356 . S
N2166 H2172 0.984 . S
N2166 H2173 0.984 . S
N2167 C2160 1.356 . S
N2167 H2170 0.984 . S
N2167 H2171 0.985 . S
H2168 N2163 0.984 . S
H2169 N2163 0.985 . S
H2170 N2167 0.984 . S
H2171 N2167 0.985 . S
H2172 N2166 0.984 . S
H2173 N2166 0.984 . S
H2174 N2162 0.984 . S
H2175 N2162 0.985 . S
C2176 C2177 1.363 . S
C2176 C2182 1.379 . S
C2176 N2184 1.356 . S
C2177 C2176 1.363 . S
C2177 C2183 1.363 . S
C2178 C2179 1.363 . S
C2178 C2183 1.379 . S
C2178 N2185 1.356 . S
C2179 C2178 1.363 . S
C2179 C2182 1.363 . S
N2180 C2182 1.356 . S
N2180 H2192 0.984 . S
N2180 H2193 0.985 . S
N2181 C2183 1.356 . S
N2181 H2186 0.984 . S
N2181 H2187 0.985 . S
C2182 C2176 1.379 . S
C2182 C2179 1.363 . S
C2182 N2180 1.356 . S
C2183 C2177 1.363 . S
C2183 C2178 1.379 . S
C2183 N2181 1.356 . S
N2184 C2176 1.356 . S
N2184 H2190 0.984 . S
N2184 H2191 0.984 . S
N2185 C2178 1.356 . S
N2185 H2188 0.984 . S
N2185 H2189 0.985 . S
H2186 N2181 0.984 . S
H2187 N2181 0.985 . S
H2188 N2185 0.984 . S
H2189 N2185 0.985 . S
H2190 N2184 0.984 . S
H2191 N2184 0.984 . S
H2192 N2180 0.984 . S
H2193 N2180 0.985 . S
C2194 C2195 1.363 . S
C2194 C2200 1.379 . S
C2194 N2202 1.356 1_554 S
C2195 C2194 1.363 . S
C2195 C2201 1.363 . S
C2196 C2197 1.363 . S
C2196 C2201 1.379 . S
C2196 N2203 1.356 . S
C2197 C2196 1.363 . S
C2197 C2200 1.363 . S
N2198 C2200 1.356 . S
N2198 H2210 0.984 . S
N2198 H2211 0.985 . S
N2199 C2201 1.356 . S
N2199 H2204 0.984 . S
N2199 H2205 0.985 . S
C2200 C2194 1.379 . S
C2200 C2197 1.363 . S
C2200 N2198 1.356 . S
C2201 C2195 1.363 . S
C2201 C2196 1.379 . S
C2201 N2199 1.356 . S
N2202 C2194 1.356 1_556 S
N2202 H2208 0.984 . S
N2202 H2209 0.984 . S
N2203 C2196 1.356 . S
N2203 H2206 0.984 . S
N2203 H2207 0.985 . S
H2204 N2199 0.984 . S
H2205 N2199 0.985 . S
H2206 N2203 0.984 . S
H2207 N2203 0.985 . S
H2208 N2202 0.984 . S
H2209 N2202 0.984 . S
H2210 N2198 0.984 . S
H2211 N2198 0.985 . S
C2212 C2213 1.363 . S
C2212 C2218 1.379 . S
C2212 N2220 1.356 . S
C2213 C2212 1.363 . S
C2213 C2219 1.363 . S
C2214 C2215 1.363 . S
C2214 C2219 1.379 . S
C2214 N2221 1.356 . S
C2215 C2214 1.363 . S
C2215 C2218 1.363 . S
N2216 C2218 1.356 . S
N2216 H2228 0.984 . S
N2216 H2229 0.985 . S
N2217 C2219 1.356 . S
N2217 H2222 0.984 . S
N2217 H2223 0.985 . S
C2218 C2212 1.379 . S
C2218 C2215 1.363 . S
C2218 N2216 1.356 . S
C2219 C2213 1.363 . S
C2219 C2214 1.379 . S
C2219 N2217 1.356 . S
N2220 C2212 1.356 . S
N2220 H2226 0.984 . S
N2220 H2227 0.984 . S
N2221 C2214 1.356 . S
N2221 H2224 0.984 . S
N2221 H2225 0.985 . S
H2222 N2217 0.984 . S
H2223 N2217 0.985 . S
H2224 N2221 0.984 . S
H2225 N2221 0.985 . S
H2226 N2220 0.984 . S
H2227 N2220 0.984 . S
H2228 N2216 0.984 . S
H2229 N2216 0.985 . S
C2230 C2231 1.363 . S
C2230 C2236 1.379 . S
C2230 N2238 1.356 . S
C2231 C2230 1.363 . S
C2231 C2237 1.363 . S
C2232 C2233 1.363 . S
C2232 C2237 1.379 . S
C2232 N2239 1.356 . S
C2233 C2232 1.363 . S
C2233 C2236 1.363 . S
N2234 C2236 1.356 . S
N2234 H2246 0.984 . S
N2234 H2247 0.985 . S
N2235 C2237 1.356 . S
N2235 H2240 0.984 . S
N2235 H2241 0.985 . S
C2236 C2230 1.379 . S
C2236 C2233 1.363 . S
C2236 N2234 1.356 . S
C2237 C2231 1.363 . S
C2237 C2232 1.379 . S
C2237 N2235 1.356 . S
N2238 C2230 1.356 . S
N2238 H2244 0.984 . S
N2238 H2245 0.984 . S
N2239 C2232 1.356 . S
N2239 H2242 0.984 . S
N2239 H2243 0.985 . S
H2240 N2235 0.984 . S
H2241 N2235 0.985 . S
H2242 N2239 0.984 . S
H2243 N2239 0.985 . S
H2244 N2238 0.984 . S
H2245 N2238 0.984 . S
H2246 N2234 0.984 . S
H2247 N2234 0.985 . S
C2248 C2249 1.363 . S
C2248 C2254 1.379 . S
C2248 N2256 1.356 . S
C2249 C2248 1.363 . S
C2249 C2255 1.363 . S
C2250 C2251 1.363 . S
C2250 C2255 1.379 . S
C2250 N2257 1.356 . S
C2251 C2250 1.363 . S
C2251 C2254 1.363 . S
N2252 C2254 1.356 . S
N2252 H2264 0.984 . S
N2252 H2265 0.985 . S
N2253 C2255 1.356 . S
N2253 H2258 0.984 . S
N2253 H2259 0.985 . S
C2254 C2248 1.379 . S
C2254 C2251 1.363 . S
C2254 N2252 1.356 . S
C2255 C2249 1.363 . S
C2255 C2250 1.379 . S
C2255 N2253 1.356 . S
N2256 C2248 1.356 . S
N2256 H2262 0.984 . S
N2256 H2263 0.984 . S
N2257 C2250 1.356 . S
N2257 H2260 0.984 . S
N2257 H2261 0.985 . S
H2258 N2253 0.984 . S
H2259 N2253 0.985 . S
H2260 N2257 0.984 . S
H2261 N2257 0.985 . S
H2262 N2256 0.984 . S
H2263 N2256 0.984 . S
H2264 N2252 0.984 . S
H2265 N2252 0.985 . S
C2266 C2267 1.363 . S
C2266 C2272 1.379 . S
C2266 N2274 1.356 . S
C2267 C2266 1.363 . S
C2267 C2273 1.363 . S
C2268 C2269 1.363 . S
C2268 C2273 1.379 . S
C2268 N2275 1.356 . S
C2269 C2268 1.363 . S
C2269 C2272 1.363 . S
N2270 C2272 1.356 . S
N2270 H2282 0.984 . S
N2270 H2283 0.985 . S
N2271 C2273 1.356 . S
N2271 H2276 0.984 . S
N2271 H2277 0.985 . S
C2272 C2266 1.379 . S
C2272 C2269 1.363 . S
C2272 N2270 1.356 . S
C2273 C2267 1.363 . S
C2273 C2268 1.379 . S
C2273 N2271 1.356 . S
N2274 C2266 1.356 . S
N2274 H2280 0.984 . S
N2274 H2281 0.984 . S
N2275 C2268 1.356 . S
N2275 H2278 0.984 . S
N2275 H2279 0.985 . S
H2276 N2271 0.984 . S
H2277 N2271 0.985 . S
H2278 N2275 0.984 . S
H2279 N2275 0.985 . S
H2280 N2274 0.984 . S
H2281 N2274 0.984 . S
H2282 N2270 0.984 . S
H2283 N2270 0.985 . S
C2284 C2285 1.363 . S
C2284 C2290 1.379 . S
C2284 N2292 1.356 . S
C2285 C2284 1.363 . S
C2285 C2291 1.363 . S
C2286 C2287 1.363 . S
C2286 C2291 1.379 . S
C2286 N2293 1.356 . S
C2287 C2286 1.363 . S
C2287 C2290 1.363 . S
N2288 C2290 1.356 . S
N2288 H2300 0.984 . S
N2288 H2301 0.985 . S
N2289 C2291 1.356 . S
N2289 H2294 0.984 . S
N2289 H2295 0.985 . S
C2290 C2284 1.379 . S
C2290 C2287 1.363 . S
C2290 N2288 1.356 . S
C2291 C2285 1.363 . S
C2291 C2286 1.379 . S
C2291 N2289 1.356 . S
N2292 C2284 1.356 . S
N2292 H2298 0.984 . S
N2292 H2299 0.984 . S
N2293 C2286 1.356 . S
N2293 H2296 0.984 . S
N2293 H2297 0.985 . S
H2294 N2289 0.984 . S
H2295 N2289 0.985 . S
H2296 N2293 0.984 . S
H2297 N2293 0.985 . S
H2298 N2292 0.984 . S
H2299 N2292 0.984 . S
H2300 N2288 0.984 . S
H2301 N2288 0.985 . S
C2302 C2303 1.363 . S
C2302 C2308 1.379 . S
C2302 N2310 1.356 . S
C2303 C2302 1.363 . S
C2303 C2309 1.363 . S
C2304 C2305 1.363 . S
C2304 C2309 1.379 . S
C2304 N2311 1.356 . S
C2305 C2304 1.363 . S
C2305 C2308 1.363 . S
N2306 C2308 1.356 . S
N2306 H2318 0.984 . S
N2306 H2319 0.985 . S
N2307 C2309 1.356 . S
N2307 H2312 0.984 . S
N2307 H2313 0.985 . S
C2308 C2302 1.379 . S
C2308 C2305 1.363 . S
C2308 N2306 1.356 . S
C2309 C2303 1.363 . S
C2309 C2304 1.379 . S
C2309 N2307 1.356 . S
N2310 C2302 1.356 . S
N2310 H2316 0.984 . S
N2310 H2317 0.984 . S
N2311 C2304 1.356 . S
N2311 H2314 0.984 . S
N2311 H2315 0.985 . S
H2312 N2307 0.984 . S
H2313 N2307 0.985 . S
H2314 N2311 0.984 . S
H2315 N2311 0.985 . S
H2316 N2310 0.984 . S
H2317 N2310 0.984 . S
H2318 N2306 0.984 . S
H2319 N2306 0.985 . S
C2320 C2321 1.363 . S
C2320 C2326 1.379 . S
C2320 N2328 1.356 . S
C2321 C2320 1.363 . S
C2321 C2327 1.363 . S
C2322 C2323 1.363 . S
C2322 C2327 1.379 . S
C2322 N2329 1.356 1_556 S
C2323 C2322 1.363 . S
C2323 C2326 1.363 . S
N2324 C2326 1.356 . S
N2324 H2336 0.984 . S
N2324 H2337 0.985 . S
N2325 C2327 1.356 . S
N2325 H2330 0.984 . S
N2325 H2331 0.985 1_556 S
C2326 C2320 1.379 . S
C2326 C2323 1.363 . S
C2326 N2324 1.356 . S
C2327 C2321 1.363 . S
C2327 C2322 1.379 . S
C2327 N2325 1.356 . S
N2328 C2320 1.356 . S
N2328 H2334 0.984 . S
N2328 H2335 0.984 . S
N2329 C2322 1.356 1_554 S
N2329 H2332 0.984 . S
N2329 H2333 0.985 . S
H2330 N2325 0.984 . S
H2331 N2325 0.985 1_554 S
H2332 N2329 0.984 . S
H2333 N2329 0.985 . S
H2334 N2328 0.984 . S
H2335 N2328 0.984 . S
H2336 N2324 0.984 . S
H2337 N2324 0.985 . S
C2338 C2339 1.363 . S
C2338 C2344 1.379 . S
C2338 N2346 1.356 . S
C2339 C2338 1.363 . S
C2339 C2345 1.363 . S
C2340 C2341 1.363 . S
C2340 C2345 1.379 . S
C2340 N2347 1.356 . S
C2341 C2340 1.363 . S
C2341 C2344 1.363 . S
N2342 C2344 1.356 . S
N2342 H2354 0.984 . S
N2342 H2355 0.985 . S
N2343 C2345 1.356 . S
N2343 H2348 0.984 . S
N2343 H2349 0.985 . S
C2344 C2338 1.379 . S
C2344 C2341 1.363 . S
C2344 N2342 1.356 . S
C2345 C2339 1.363 . S
C2345 C2340 1.379 . S
C2345 N2343 1.356 . S
N2346 C2338 1.356 . S
N2346 H2352 0.984 . S
N2346 H2353 0.984 . S
N2347 C2340 1.356 . S
N2347 H2350 0.984 . S
N2347 H2351 0.985 . S
H2348 N2343 0.984 . S
H2349 N2343 0.985 . S
H2350 N2347 0.984 . S
H2351 N2347 0.985 . S
H2352 N2346 0.984 . S
H2353 N2346 0.984 . S
H2354 N2342 0.984 . S
H2355 N2342 0.985 . S
C2356 C2357 1.363 . S
C2356 C2362 1.379 . S
C2356 N2364 1.356 . S
C2357 C2356 1.363 . S
C2357 C2363 1.363 . S
C2358 C2359 1.363 . S
C2358 C2363 1.379 . S
C2358 N2365 1.356 . S
C2359 C2358 1.363 . S
C2359 C2362 1.363 . S
N2360 C2362 1.356 . S
N2360 H2372 0.984 . S
N2360 H2373 0.985 . S
N2361 C2363 1.356 . S
N2361 H2366 0.984 . S
N2361 H2367 0.985 . S
C2362 C2356 1.379 . S
C2362 C2359 1.363 . S
C2362 N2360 1.356 . S
C2363 C2357 1.363 . S
C2363 C2358 1.379 . S
C2363 N2361 1.356 . S
N2364 C2356 1.356 . S
N2364 H2370 0.984 . S
N2364 H2371 0.984 . S
N2365 C2358 1.356 . S
N2365 H2368 0.984 . S
N2365 H2369 0.985 . S
H2366 N2361 0.984 . S
H2367 N2361 0.985 . S
H2368 N2365 0.984 . S
H2369 N2365 0.985 . S
H2370 N2364 0.984 . S
H2371 N2364 0.984 . S
H2372 N2360 0.984 . S
H2373 N2360 0.985 . S
C2374 C2375 1.363 . S
C2374 C2380 1.379 . S
C2374 N2382 1.356 . S
C2375 C2374 1.363 . S
C2375 C2381 1.363 . S
C2376 C2377 1.363 . S
C2376 C2381 1.379 . S
C2376 N2383 1.356 . S
C2377 C2376 1.363 . S
C2377 C2380 1.363 . S
N2378 C2380 1.356 . S
N2378 H2390 0.984 . S
N2378 H2391 0.985 . S
N2379 C2381 1.356 . S
N2379 H2384 0.984 . S
N2379 H2385 0.985 . S
C2380 C2374 1.379 . S
C2380 C2377 1.363 . S
C2380 N2378 1.356 . S
C2381 C2375 1.363 . S
C2381 C2376 1.379 . S
C2381 N2379 1.356 . S
N2382 C2374 1.356 . S
N2382 H2388 0.984 . S
N2382 H2389 0.984 . S
N2383 C2376 1.356 . S
N2383 H2386 0.984 . S
N2383 H2387 0.985 . S
H2384 N2379 0.984 . S
H2385 N2379 0.985 . S
H2386 N2383 0.984 . S
H2387 N2383 0.985 . S
H2388 N2382 0.984 . S
H2389 N2382 0.984 . S
H2390 N2378 0.984 . S
H2391 N2378 0.985 . S
C2392 C2393 1.363 . S
C2392 C2398 1.379 . S
C2392 N2400 1.356 . S
C2393 C2392 1.363 . S
C2393 C2399 1.363 . S
C2394 C2395 1.363 . S
C2394 C2399 1.379 . S
C2394 N2401 1.356 . S
C2395 C2394 1.363 . S
C2395 C2398 1.363 . S
N2396 C2398 1.356 . S
N2396 H2408 0.984 . S
N2396 H2409 0.985 . S
N2397 C2399 1.356 . S
N2397 H2402 0.984 . S
N2397 H2403 0.985 . S
C2398 C2392 1.379 . S
C2398 C2395 1.363 . S
C2398 N2396 1.356 . S
C2399 C2393 1.363 . S
C2399 C2394 1.379 . S
C2399 N2397 1.356 . S
N2400 C2392 1.356 . S
N2400 H2406 0.984 . S
N2400 H2407 0.984 . S
N2401 C2394 1.356 . S
N2401 H2404 0.984 . S
N2401 H2405 0.985 . S
H2402 N2397 0.984 . S
H2403 N2397 0.985 . S
H2404 N2401 0.984 . S
H2405 N2401 0.985 . S
H2406 N2400 0.984 . S
H2407 N2400 0.984 . S
H2408 N2396 0.984 . S
H2409 N2396 0.985 . S
C2410 C2411 1.363 . S
C2410 C2416 1.379 . S
C2410 N2418 1.356 . S
C2411 C2410 1.363 . S
C2411 C2417 1.363 . S
C2412 C2413 1.363 . S
C2412 C2417 1.379 . S
C2412 N2419 1.356 . S
C2413 C2412 1.363 . S
C2413 C2416 1.363 . S
N2414 C2416 1.356 . S
N2414 H2426 0.984 . S
N2414 H2427 0.985 . S
N2415 C2417 1.356 . S
N2415 H2420 0.984 . S
N2415 H2421 0.985 . S
C2416 C2410 1.379 . S
C2416 C2413 1.363 . S
C2416 N2414 1.356 . S
C2417 C2411 1.363 . S
C2417 C2412 1.379 . S
C2417 N2415 1.356 . S
N2418 C2410 1.356 . S
N2418 H2424 0.984 . S
N2418 H2425 0.984 . S
N2419 C2412 1.356 . S
N2419 H2422 0.984 . S
N2419 H2423 0.985 . S
H2420 N2415 0.984 . S
H2421 N2415 0.985 . S
H2422 N2419 0.984 . S
H2423 N2419 0.985 . S
H2424 N2418 0.984 . S
H2425 N2418 0.984 . S
H2426 N2414 0.984 . S
H2427 N2414 0.985 . S
C2428 C2429 1.363 . S
C2428 C2434 1.379 . S
C2428 N2436 1.356 1_455 S
C2429 C2428 1.363 . S
C2429 C2435 1.363 . S
C2430 C2431 1.363 . S
C2430 C2435 1.379 . S
C2430 N2437 1.356 . S
C2431 C2430 1.363 . S
C2431 C2434 1.363 . S
N2432 C2434 1.356 . S
N2432 H2444 0.984 1_455 S
N2432 H2445 0.985 . S
N2433 C2435 1.356 . S
N2433 H2438 0.984 . S
N2433 H2439 0.985 . S
C2434 C2428 1.379 . S
C2434 C2431 1.363 . S
C2434 N2432 1.356 . S
C2435 C2429 1.363 . S
C2435 C2430 1.379 . S
C2435 N2433 1.356 . S
N2436 C2428 1.356 1_655 S
N2436 H2442 0.984 . S
N2436 H2443 0.984 . S
N2437 C2430 1.356 . S
N2437 H2440 0.984 . S
N2437 H2441 0.985 . S
H2438 N2433 0.984 . S
H2439 N2433 0.985 . S
H2440 N2437 0.984 . S
H2441 N2437 0.985 . S
H2442 N2436 0.984 . S
H2443 N2436 0.984 . S
H2444 N2432 0.984 1_655 S
H2445 N2432 0.985 . S
C2446 C2447 1.363 . S
C2446 C2452 1.379 . S
C2446 N2454 1.356 . S
C2447 C2446 1.363 . S
C2447 C2453 1.363 . S
C2448 C2449 1.363 . S
C2448 C2453 1.379 . S
C2448 N2455 1.356 . S
C2449 C2448 1.363 . S
C2449 C2452 1.363 . S
N2450 C2452 1.356 . S
N2450 H2462 0.984 . S
N2450 H2463 0.985 . S
N2451 C2453 1.356 . S
N2451 H2456 0.984 . S
N2451 H2457 0.985 . S
C2452 C2446 1.379 . S
C2452 C2449 1.363 . S
C2452 N2450 1.356 . S
C2453 C2447 1.363 . S
C2453 C2448 1.379 . S
C2453 N2451 1.356 . S
N2454 C2446 1.356 . S
N2454 H2460 0.984 . S
N2454 H2461 0.984 . S
N2455 C2448 1.356 . S
N2455 H2458 0.984 . S
N2455 H2459 0.985 . S
H2456 N2451 0.984 . S
H2457 N2451 0.985 . S
H2458 N2455 0.984 . S
H2459 N2455 0.985 . S
H2460 N2454 0.984 . S
H2461 N2454 0.984 . S
H2462 N2450 0.984 . S
H2463 N2450 0.985 . S
C2464 C2465 1.363 . S
C2464 C2470 1.379 . S
C2464 N2472 1.356 . S
C2465 C2464 1.363 . S
C2465 C2471 1.363 . S
C2466 C2467 1.363 . S
C2466 C2471 1.379 . S
C2466 N2473 1.356 . S
C2467 C2466 1.363 . S
C2467 C2470 1.363 . S
N2468 C2470 1.356 . S
N2468 H2480 0.984 . S
N2468 H2481 0.985 . S
N2469 C2471 1.356 . S
N2469 H2474 0.984 . S
N2469 H2475 0.985 . S
C2470 C2464 1.379 . S
C2470 C2467 1.363 . S
C2470 N2468 1.356 . S
C2471 C2465 1.363 . S
C2471 C2466 1.379 . S
C2471 N2469 1.356 . S
N2472 C2464 1.356 . S
N2472 H2478 0.984 . S
N2472 H2479 0.984 . S
N2473 C2466 1.356 . S
N2473 H2476 0.984 . S
N2473 H2477 0.985 . S
H2474 N2469 0.984 . S
H2475 N2469 0.985 . S
H2476 N2473 0.984 . S
H2477 N2473 0.985 . S
H2478 N2472 0.984 . S
H2479 N2472 0.984 . S
H2480 N2468 0.984 . S
H2481 N2468 0.985 . S
C2482 C2483 1.363 . S
C2482 C2488 1.379 . S
C2482 N2490 1.356 . S
C2483 C2482 1.363 . S
C2483 C2489 1.363 . S
C2484 C2485 1.363 . S
C2484 C2489 1.379 . S
C2484 N2491 1.356 . S
C2485 C2484 1.363 . S
C2485 C2488 1.363 . S
N2486 C2488 1.356 . S
N2486 H2498 0.984 . S
N2486 H2499 0.985 . S
N2487 C2489 1.356 . S
N2487 H2492 0.984 . S
N2487 H2493 0.985 . S
C2488 C2482 1.379 . S
C2488 C2485 1.363 . S
C2488 N2486 1.356 . S
C2489 C2483 1.363 . S
C2489 C2484 1.379 . S
C2489 N2487 1.356 . S
N2490 C2482 1.356 . S
N2490 H2496 0.984 . S
N2490 H2497 0.984 . S
N2491 C2484 1.356 . S
N2491 H2494 0.984 . S
N2491 H2495 0.985 . S
H2492 N2487 0.984 . S
H2493 N2487 0.985 . S
H2494 N2491 0.984 . S
H2495 N2491 0.985 . S
H2496 N2490 0.984 . S
H2497 N2490 0.984 . S
H2498 N2486 0.984 . S
H2499 N2486 0.985 . S
C2500 C2501 1.363 . S
C2500 C2506 1.379 . S
C2500 N2508 1.356 . S
C2501 C2500 1.363 . S
C2501 C2507 1.363 . S
C2502 C2503 1.363 . S
C2502 C2507 1.379 . S
C2502 N2509 1.356 . S
C2503 C2502 1.363 . S
C2503 C2506 1.363 . S
N2504 C2506 1.356 . S
N2504 H2516 0.984 . S
N2504 H2517 0.985 . S
N2505 C2507 1.356 . S
N2505 H2510 0.984 . S
N2505 H2511 0.985 . S
C2506 C2500 1.379 . S
C2506 C2503 1.363 . S
C2506 N2504 1.356 . S
C2507 C2501 1.363 . S
C2507 C2502 1.379 . S
C2507 N2505 1.356 . S
N2508 C2500 1.356 . S
N2508 H2514 0.984 . S
N2508 H2515 0.984 . S
N2509 C2502 1.356 . S
N2509 H2512 0.984 . S
N2509 H2513 0.985 . S
H2510 N2505 0.984 . S
H2511 N2505 0.985 . S
H2512 N2509 0.984 . S
H2513 N2509 0.985 . S
H2514 N2508 0.984 . S
H2515 N2508 0.984 . S
H2516 N2504 0.984 . S
H2517 N2504 0.985 . S
C2518 C2519 1.363 . S
C2518 C2524 1.379 . S
C2518 N2526 1.356 . S
C2519 C2518 1.363 . S
C2519 C2525 1.363 . S
C2520 C2521 1.363 . S
C2520 C2525 1.379 . S
C2520 N2527 1.356 . S
C2521 C2520 1.363 . S
C2521 C2524 1.363 . S
N2522 C2524 1.356 . S
N2522 H2534 0.984 . S
N2522 H2535 0.985 . S
N2523 C2525 1.356 . S
N2523 H2528 0.984 . S
N2523 H2529 0.985 . S
C2524 C2518 1.379 . S
C2524 C2521 1.363 . S
C2524 N2522 1.356 . S
C2525 C2519 1.363 . S
C2525 C2520 1.379 . S
C2525 N2523 1.356 . S
N2526 C2518 1.356 . S
N2526 H2532 0.984 . S
N2526 H2533 0.984 . S
N2527 C2520 1.356 . S
N2527 H2530 0.984 . S
N2527 H2531 0.985 . S
H2528 N2523 0.984 . S
H2529 N2523 0.985 . S
H2530 N2527 0.984 . S
H2531 N2527 0.985 . S
H2532 N2526 0.984 . S
H2533 N2526 0.984 . S
H2534 N2522 0.984 . S
H2535 N2522 0.985 . S
C2536 C2537 1.363 . S
C2536 C2542 1.379 . S
C2536 N2544 1.356 . S
C2537 C2536 1.363 . S
C2537 C2543 1.363 . S
C2538 C2539 1.363 . S
C2538 C2543 1.379 . S
C2538 N2545 1.356 . S
C2539 C2538 1.363 . S
C2539 C2542 1.363 . S
N2540 C2542 1.356 . S
N2540 H2552 0.984 . S
N2540 H2553 0.985 . S
N2541 C2543 1.356 . S
N2541 H2546 0.984 . S
N2541 H2547 0.985 . S
C2542 C2536 1.379 . S
C2542 C2539 1.363 . S
C2542 N2540 1.356 . S
C2543 C2537 1.363 . S
C2543 C2538 1.379 . S
C2543 N2541 1.356 . S
N2544 C2536 1.356 . S
N2544 H2550 0.984 . S
N2544 H2551 0.984 . S
N2545 C2538 1.356 . S
N2545 H2548 0.984 . S
N2545 H2549 0.985 . S
H2546 N2541 0.984 . S
H2547 N2541 0.985 . S
H2548 N2545 0.984 . S
H2549 N2545 0.985 . S
H2550 N2544 0.984 . S
H2551 N2544 0.984 . S
H2552 N2540 0.984 . S
H2553 N2540 0.985 . S
C2554 C2555 1.363 . S
C2554 C2560 1.379 . S
C2554 N2562 1.356 . S
C2555 C2554 1.363 . S
C2555 C2561 1.363 . S
C2556 C2557 1.363 . S
C2556 C2561 1.379 . S
C2556 N2563 1.356 . S
C2557 C2556 1.363 . S
C2557 C2560 1.363 . S
N2558 C2560 1.356 . S
N2558 H2570 0.984 1_655 S
N2558 H2571 0.985 1_655 S
N2559 C2561 1.356 . S
N2559 H2564 0.984 . S
N2559 H2565 0.985 . S
C2560 C2554 1.379 . S
C2560 C2557 1.363 . S
C2560 N2558 1.356 . S
C2561 C2555 1.363 . S
C2561 C2556 1.379 . S
C2561 N2559 1.356 . S
N2562 C2554 1.356 . S
N2562 H2568 0.984 1_545 S
N2562 H2569 0.984 1_545 S
N2563 C2556 1.356 . S
N2563 H2566 0.984 . S
N2563 H2567 0.985 . S
H2564 N2559 0.984 . S
H2565 N2559 0.985 . S
H2566 N2563 0.984 . S
H2567 N2563 0.985 . S
H2568 N2562 0.984 1_565 S
H2569 N2562 0.984 1_565 S
H2570 N2558 0.984 1_455 S
H2571 N2558 0.985 1_455 S
C2572 C2573 1.363 . S
C2572 C2578 1.379 . S
C2572 N2580 1.356 . S
C2573 C2572 1.363 . S
C2573 C2579 1.363 . S
C2574 C2575 1.363 . S
C2574 C2579 1.379 . S
C2574 N2581 1.356 . S
C2575 C2574 1.363 . S
C2575 C2578 1.363 . S
N2576 C2578 1.356 . S
N2576 H2588 0.984 . S
N2576 H2589 0.985 . S
N2577 C2579 1.356 . S
N2577 H2582 0.984 . S
N2577 H2583 0.985 . S
C2578 C2572 1.379 . S
C2578 C2575 1.363 . S
C2578 N2576 1.356 . S
C2579 C2573 1.363 . S
C2579 C2574 1.379 . S
C2579 N2577 1.356 . S
N2580 C2572 1.356 . S
N2580 H2586 0.984 . S
N2580 H2587 0.984 . S
N2581 C2574 1.356 . S
N2581 H2584 0.984 . S
N2581 H2585 0.985 . S
H2582 N2577 0.984 . S
H2583 N2577 0.985 . S
H2584 N2581 0.984 . S
H2585 N2581 0.985 . S
H2586 N2580 0.984 . S
H2587 N2580 0.984 . S
H2588 N2576 0.984 . S
H2589 N2576 0.985 . S
C2590 C2591 1.363 1_554 S
C2590 C2596 1.379 . S
C2590 N2598 1.356 . S
C2591 C2590 1.363 1_556 S
C2591 C2597 1.363 . S
C2592 C2593 1.363 1_556 S
C2592 C2597 1.379 . S
C2592 N2599 1.356 . S
C2593 C2592 1.363 1_554 S
C2593 C2596 1.363 . S
N2594 C2596 1.356 . S
N2594 H2606 0.984 . S
N2594 H2607 0.985 . S
N2595 C2597 1.356 . S
N2595 H2600 0.984 . S
N2595 H2601 0.985 . S
C2596 C2590 1.379 . S
C2596 C2593 1.363 . S
C2596 N2594 1.356 . S
C2597 C2591 1.363 . S
C2597 C2592 1.379 . S
C2597 N2595 1.356 . S
N2598 C2590 1.356 . S
N2598 H2604 0.984 . S
N2598 H2605 0.984 . S
N2599 C2592 1.356 . S
N2599 H2602 0.984 . S
N2599 H2603 0.985 . S
H2600 N2595 0.984 . S
H2601 N2595 0.985 . S
H2602 N2599 0.984 . S
H2603 N2599 0.985 . S
H2604 N2598 0.984 . S
H2605 N2598 0.984 . S
H2606 N2594 0.984 . S
H2607 N2594 0.985 . S
C2608 C2609 1.363 . S
C2608 C2614 1.379 . S
C2608 N2616 1.356 . S
C2609 C2608 1.363 . S
C2609 C2615 1.363 . S
C2610 C2611 1.363 . S
C2610 C2615 1.379 . S
C2610 N2617 1.356 . S
C2611 C2610 1.363 . S
C2611 C2614 1.363 . S
N2612 C2614 1.356 . S
N2612 H2624 0.984 . S
N2612 H2625 0.985 . S
N2613 C2615 1.356 . S
N2613 H2618 0.984 . S
N2613 H2619 0.985 . S
C2614 C2608 1.379 . S
C2614 C2611 1.363 . S
C2614 N2612 1.356 . S
C2615 C2609 1.363 . S
C2615 C2610 1.379 . S
C2615 N2613 1.356 . S
N2616 C2608 1.356 . S
N2616 H2622 0.984 . S
N2616 H2623 0.984 . S
N2617 C2610 1.356 . S
N2617 H2620 0.984 . S
N2617 H2621 0.985 . S
H2618 N2613 0.984 . S
H2619 N2613 0.985 . S
H2620 N2617 0.984 . S
H2621 N2617 0.985 . S
H2622 N2616 0.984 . S
H2623 N2616 0.984 . S
H2624 N2612 0.984 . S
H2625 N2612 0.985 . S
C2626 C2627 1.363 1_556 S
C2626 C2632 1.379 . S
C2626 N2634 1.356 . S
C2627 C2626 1.363 1_554 S
C2627 C2633 1.363 . S
C2628 C2629 1.363 1_554 S
C2628 C2633 1.379 . S
C2628 N2635 1.356 . S
C2629 C2628 1.363 1_556 S
C2629 C2632 1.363 . S
N2630 C2632 1.356 . S
N2630 H2642 0.984 . S
N2630 H2643 0.985 . S
N2631 C2633 1.356 . S
N2631 H2636 0.984 . S
N2631 H2637 0.985 . S
C2632 C2626 1.379 . S
C2632 C2629 1.363 . S
C2632 N2630 1.356 . S
C2633 C2627 1.363 . S
C2633 C2628 1.379 . S
C2633 N2631 1.356 . S
N2634 C2626 1.356 . S
N2634 H2640 0.984 . S
N2634 H2641 0.984 1_556 S
N2635 C2628 1.356 . S
N2635 H2638 0.984 . S
N2635 H2639 0.985 . S
H2636 N2631 0.984 . S
H2637 N2631 0.985 . S
H2638 N2635 0.984 . S
H2639 N2635 0.985 . S
H2640 N2634 0.984 . S
H2641 N2634 0.984 1_554 S
H2642 N2630 0.984 . S
H2643 N2630 0.985 . S
C2644 C2645 1.363 . S
C2644 C2650 1.379 . S
C2644 N2652 1.356 . S
C2645 C2644 1.363 . S
C2645 C2651 1.363 . S
C2646 C2647 1.363 . S
C2646 C2651 1.379 . S
C2646 N2653 1.356 . S
C2647 C2646 1.363 . S
C2647 C2650 1.363 . S
N2648 C2650 1.356 . S
N2648 H2660 0.984 . S
N2648 H2661 0.985 . S
N2649 C2651 1.356 . S
N2649 H2654 0.984 . S
N2649 H2655 0.985 . S
C2650 C2644 1.379 . S
C2650 C2647 1.363 . S
C2650 N2648 1.356 . S
C2651 C2645 1.363 . S
C2651 C2646 1.379 . S
C2651 N2649 1.356 . S
N2652 C2644 1.356 . S
N2652 H2658 0.984 1_565 S
N2652 H2659 0.984 . S
N2653 C2646 1.356 . S
N2653 H2656 0.984 . S
N2653 H2657 0.985 . S
H2654 N2649 0.984 . S
H2655 N2649 0.985 . S
H2656 N2653 0.984 . S
H2657 N2653 0.985 . S
H2658 N2652 0.984 1_545 S
H2659 N2652 0.984 . S
H2660 N2648 0.984 . S
H2661 N2648 0.985 . S
C2662 C2663 1.363 . S
C2662 C2668 1.379 . S
C2662 N2670 1.356 . S
C2663 C2662 1.363 . S
C2663 C2669 1.363 . S
C2664 C2665 1.363 . S
C2664 C2669 1.379 . S
C2664 N2671 1.356 . S
C2665 C2664 1.363 . S
C2665 C2668 1.363 . S
N2666 C2668 1.356 . S
N2666 H2678 0.984 . S
N2666 H2679 0.985 . S
N2667 C2669 1.356 . S
N2667 H2672 0.984 . S
N2667 H2673 0.985 . S
C2668 C2662 1.379 . S
C2668 C2665 1.363 . S
C2668 N2666 1.356 . S
C2669 C2663 1.363 . S
C2669 C2664 1.379 . S
C2669 N2667 1.356 . S
N2670 C2662 1.356 . S
N2670 H2676 0.984 . S
N2670 H2677 0.984 . S
N2671 C2664 1.356 . S
N2671 H2674 0.984 . S
N2671 H2675 0.985 . S
H2672 N2667 0.984 . S
H2673 N2667 0.985 . S
H2674 N2671 0.984 . S
H2675 N2671 0.985 . S
H2676 N2670 0.984 . S
H2677 N2670 0.984 . S
H2678 N2666 0.984 . S
H2679 N2666 0.985 . S
C953 C101 2.239 . S
C955 C322 2.203 . S
C971 C57 1.822 . S
C973 C361 1.828 . S
C989 C73 1.660 . S
C991 C402 1.747 1_565 S
C1009 C447 1.497 . S
C1007 C78 1.448 . S
C1025 C21 2.225 . S
C1027 C491 2.217 . S
C1045 C522 1.584 . S
C1043 C31 1.630 . S
C1063 C570 2.024 . S
C1061 C49 2.040 . S
C1079 C0 1.918 . S
C1081 C598 1.832 . S
C1099 C330 1.816 . S
C1097 C218 1.695 . S
C1115 C229 1.658 . S
C1117 C371 1.642 . S
C1135 C410 1.698 . S
C1133 C257 1.595 1_545 S
C1153 C442 1.753 . S
C1151 C164 1.649 . S
C1169 C216 0.499 . S
C1171 C478 0.545 . S
C1189 C530 2.145 . S
C1187 C231 2.174 . S
C1207 C567 1.551 . S
C1205 C255 1.344 . S
C1225 C601 2.025 . S
C1223 C166 2.009 . S
C1243 C327 2.055 . S
C1241 C143 2.048 1_545 S
C1259 C265 1.925 . S
C1261 C641 1.937 . S
C1279 C687 1.612 . S
C1277 C299 1.449 . S
C1297 C722 1.721 1_655 S
C1295 C291 1.778 . S
C1313 C104 2.050 . S
C1315 C611 2.059 . S
C1331 C117 1.415 . S
C1333 C407 1.468 . S
C1349 C304 1.401 . S
C1351 C770 1.548 . S
C1369 C798 0.631 . S
C1367 C278 0.633 . S
C1387 C331 2.165 1_565 S
C1385 C60 2.251 . S
C1405 C810 1.777 . S
C1403 C96 1.824 . S
C1421 C88 1.637 . S
C1423 C411 1.633 . S
C1439 C65 1.557 . S
C1441 C758 1.470 . S
C1459 C482 2.100 . S
C1457 C10 2.116 . S
C1475 C44 1.588 . S
C1477 C691 1.567 . S
C1495 C561 1.965 1_565 S
C1493 C34 1.944 . S
C1513 C847 1.908 1_455 S
C1511 C13 2.128 . S
C1531 C321 1.859 . S
C1529 C138 1.845 . S
C1549 C802 1.514 . S
C1547 C296 1.560 . S
C1565 C112 1.363 . S
C1567 C401 1.647 . S
C1583 C270 1.642 . S
C1585 C771 1.641 . S
C1601 C140 0.495 . S
C1603 C487 0.510 . S
C1621 C681 2.080 . S
C1619 C294 2.050 . S
C1637 C114 1.586 . S
C1639 C558 1.552 . S
C1655 C268 2.005 . S
C1657 C850 2.009 . S
C1673 C169 2.345 1_556 S
C1675 C318 2.106 . S
C1691 C161 1.922 . S
C1693 C650 1.887 . S
C1709 C234 1.780 . S
C1711 C518 1.612 . S
C1727 C226 1.702 . S
C1729 C731 1.673 . S
C1747 C842 2.077 . S
C1745 C247 2.237 . S
C1763 C195 1.548 1_545 S
C1765 C398 1.447 . S
C1783 C441 1.496 . S
C1781 C239 1.470 . S
C1801 C367 0.609 . S
C1799 C187 0.569 . S
C1817 C75 2.239 . S
C1819 C882 2.203 . S
C1837 C801 1.829 . S
C1835 C83 1.822 . S
C1853 C99 1.660 . S
C1855 C922 1.747 . S
C1871 C52 1.448 . S
C1873 C767 1.497 . S
C1889 C47 2.225 . S
C1891 C651 2.217 . S
C1909 C682 1.584 . S
C1907 C5 1.630 . S
C1927 C730 2.024 . S
C1925 C23 2.040 . S
C1945 C838 1.832 . S
C1943 C26 1.918 . S
C1963 C890 1.816 . S
C1961 C244 1.695 . S
C1979 C177 1.659 . S
C1981 C811 1.646 . S
C1999 C930 1.698 . S
C1997 C192 1.597 . S
C2017 C762 1.753 . S
C2015 C203 1.649 . S
C2035 C638 0.545 . S
C2033 C242 0.499 . S
C2051 C179 2.174 . S
C2053 C690 2.141 . S
C2071 C727 1.551 . S
C2069 C190 1.346 . S
C2087 C205 2.009 . S
C2089 C841 2.025 . S
C2107 C887 2.055 . S
C2105 C286 2.048 . S
C2123 C122 1.924 . S
C2125 C481 1.937 . S
C2143 C527 1.612 . S
C2141 C130 1.449 . S
C2161 C562 1.721 . S
C2159 C148 1.778 1_545 S
C2179 C851 2.059 . S
C2177 C273 2.050 . S
C2195 C260 1.415 . S
C2197 C927 1.468 . S
C2215 C450 1.548 . S
C2213 C135 1.401 . S
C2233 C358 0.631 . S
C2231 C109 0.633 . S
C2249 C86 2.251 . S
C2251 C891 2.165 . S
C2269 C370 1.777 . S
C2267 C70 1.824 . S
C2285 C62 1.637 . S
C2287 C931 1.633 . S
C2303 C91 1.557 . S
C2305 C438 1.470 . S
C2321 C36 2.116 . S
C2323 C642 2.100 1_556 S
C2341 C531 1.567 . S
C2339 C18 1.588 . S
C2357 C8 1.943 . S
C2359 C721 1.965 . S
C2375 C39 2.127 . S
C2377 C607 1.908 . S
C2395 C881 1.859 . S
C2393 C307 1.845 . S
C2411 C153 1.560 . S
C2413 C362 1.514 . S
C2431 C921 1.647 . S
C2429 C281 1.363 . S
C2447 C127 1.642 . S
C2449 C451 1.641 . S
C2465 C309 0.495 . S
C2467 C647 0.510 . S
C2485 C521 2.080 . S
C2483 C151 2.050 1_556 S
C2501 C283 1.586 . S
C2503 C718 1.552 . S
C2521 C610 2.009 . S
C2519 C125 2.005 . S
C2539 C878 2.104 . S
C2537 C221 2.345 . S
C2557 C490 1.887 1_655 S
C2555 C200 1.922 1_545 S
C2573 C208 1.780 . S
C2575 C678 1.612 . S
C2593 C571 1.673 . S
C2591 C174 1.702 . S
C2609 C182 2.235 . S
C2611 C602 2.077 . S
C2627 C156 1.553 . S
C2629 C918 1.447 . S
C2647 C761 1.496 . S
C2645 C213 1.469 . S
C2665 C807 0.609 . S
C2663 C252 0.568 . S
