# Generated by pormake.
# Topology eea, (3,6)-cn, num edge types: 1
# Building blocks:
#     Node 0, Type 0, BuildingBlock: WUSLED_clean_sbu_0, # of connection points: 3
#     Node 1, Type 0, BuildingBlock: WUSLED_clean_sbu_0, # of connection points: 3
#     Node 2, Type 0, BuildingBlock: WUSLED_clean_sbu_0, # of connection points: 3
#     Node 3, Type 0, BuildingBlock: WUSLED_clean_sbu_0, # of connection points: 3
#     Node 4, Type 0, BuildingBlock: WUSLED_clean_sbu_0, # of connection points: 3
#     Node 5, Type 0, BuildingBlock: WUSLED_clean_sbu_0, # of connection points: 3
#     Node 6, Type 0, BuildingBlock: WUSLED_clean_sbu_0, # of connection points: 3
#     Node 7, Type 0, BuildingBlock: WUSLED_clean_sbu_0, # of connection points: 3
#     Node 8, Type 0, BuildingBlock: WUSLED_clean_sbu_0, # of connection points: 3
#     Node 9, Type 0, BuildingBlock: WUSLED_clean_sbu_0, # of connection points: 3
#     Node 10, Type 0, BuildingBlock: WUSLED_clean_sbu_0, # of connection points: 3
#     Node 11, Type 0, BuildingBlock: WUSLED_clean_sbu_0, # of connection points: 3
#     Node 12, Type 0, BuildingBlock: WUSLED_clean_sbu_0, # of connection points: 3
#     Node 13, Type 0, BuildingBlock: WUSLED_clean_sbu_0, # of connection points: 3
#     Node 14, Type 0, BuildingBlock: WUSLED_clean_sbu_0, # of connection points: 3
#     Node 15, Type 0, BuildingBlock: WUSLED_clean_sbu_0, # of connection points: 3
#     Node 16, Type 0, BuildingBlock: WUSLED_clean_sbu_0, # of connection points: 3
#     Node 17, Type 0, BuildingBlock: WUSLED_clean_sbu_0, # of connection points: 3
#     Node 18, Type 1, BuildingBlock: CUWYAW_clean_sbu_0, # of connection points: 6
#     Node 19, Type 1, BuildingBlock: CUWYAW_clean_sbu_0, # of connection points: 6
#     Node 20, Type 1, BuildingBlock: CUWYAW_clean_sbu_0, # of connection points: 6
#     Node 21, Type 1, BuildingBlock: CUWYAW_clean_sbu_0, # of connection points: 6
#     Node 22, Type 1, BuildingBlock: CUWYAW_clean_sbu_0, # of connection points: 6
#     Node 23, Type 1, BuildingBlock: CUWYAW_clean_sbu_0, # of connection points: 6
#     Node 24, Type 1, BuildingBlock: CUWYAW_clean_sbu_0, # of connection points: 6
#     Node 25, Type 1, BuildingBlock: CUWYAW_clean_sbu_0, # of connection points: 6
#     Node 26, Type 1, BuildingBlock: CUWYAW_clean_sbu_0, # of connection points: 6
#     Edge 27, Type (0, 1), BuildingBlock: CIFDUS_clean_linker_0, # of connection points: 2
#     Edge 28, Type (0, 1), BuildingBlock: CIFDUS_clean_linker_0, # of connection points: 2
#     Edge 29, Type (0, 1), BuildingBlock: CIFDUS_clean_linker_0, # of connection points: 2
#     Edge 30, Type (0, 1), BuildingBlock: CIFDUS_clean_linker_0, # of connection points: 2
#     Edge 31, Type (0, 1), BuildingBlock: CIFDUS_clean_linker_0, # of connection points: 2
#     Edge 32, Type (0, 1), BuildingBlock: CIFDUS_clean_linker_0, # of connection points: 2
#     Edge 33, Type (0, 1), BuildingBlock: CIFDUS_clean_linker_0, # of connection points: 2
#     Edge 34, Type (0, 1), BuildingBlock: CIFDUS_clean_linker_0, # of connection points: 2
#     Edge 35, Type (0, 1), BuildingBlock: CIFDUS_clean_linker_0, # of connection points: 2
#     Edge 36, Type (0, 1), BuildingBlock: CIFDUS_clean_linker_0, # of connection points: 2
#     Edge 37, Type (0, 1), BuildingBlock: CIFDUS_clean_linker_0, # of connection points: 2
#     Edge 38, Type (0, 1), BuildingBlock: CIFDUS_clean_linker_0, # of connection points: 2
#     Edge 39, Type (0, 1), BuildingBlock: CIFDUS_clean_linker_0, # of connection points: 2
#     Edge 40, Type (0, 1), BuildingBlock: CIFDUS_clean_linker_0, # of connection points: 2
#     Edge 41, Type (0, 1), BuildingBlock: CIFDUS_clean_linker_0, # of connection points: 2
#     Edge 42, Type (0, 1), BuildingBlock: CIFDUS_clean_linker_0, # of connection points: 2
#     Edge 43, Type (0, 1), BuildingBlock: CIFDUS_clean_linker_0, # of connection points: 2
#     Edge 44, Type (0, 1), BuildingBlock: CIFDUS_clean_linker_0, # of connection points: 2
#     Edge 45, Type (0, 1), BuildingBlock: CIFDUS_clean_linker_0, # of connection points: 2
#     Edge 46, Type (0, 1), BuildingBlock: CIFDUS_clean_linker_0, # of connection points: 2
#     Edge 47, Type (0, 1), BuildingBlock: CIFDUS_clean_linker_0, # of connection points: 2
#     Edge 48, Type (0, 1), BuildingBlock: CIFDUS_clean_linker_0, # of connection points: 2
#     Edge 49, Type (0, 1), BuildingBlock: CIFDUS_clean_linker_0, # of connection points: 2
#     Edge 50, Type (0, 1), BuildingBlock: CIFDUS_clean_linker_0, # of connection points: 2
#     Edge 51, Type (0, 1), BuildingBlock: CIFDUS_clean_linker_0, # of connection points: 2
#     Edge 52, Type (0, 1), BuildingBlock: CIFDUS_clean_linker_0, # of connection points: 2
#     Edge 53, Type (0, 1), BuildingBlock: CIFDUS_clean_linker_0, # of connection points: 2
#     Edge 54, Type (0, 1), BuildingBlock: CIFDUS_clean_linker_0, # of connection points: 2
#     Edge 55, Type (0, 1), BuildingBlock: CIFDUS_clean_linker_0, # of connection points: 2
#     Edge 56, Type (0, 1), BuildingBlock: CIFDUS_clean_linker_0, # of connection points: 2
#     Edge 57, Type (0, 1), BuildingBlock: CIFDUS_clean_linker_0, # of connection points: 2
#     Edge 58, Type (0, 1), BuildingBlock: CIFDUS_clean_linker_0, # of connection points: 2
#     Edge 59, Type (0, 1), BuildingBlock: CIFDUS_clean_linker_0, # of connection points: 2
#     Edge 60, Type (0, 1), BuildingBlock: CIFDUS_clean_linker_0, # of connection points: 2
#     Edge 61, Type (0, 1), BuildingBlock: CIFDUS_clean_linker_0, # of connection points: 2
#     Edge 62, Type (0, 1), BuildingBlock: CIFDUS_clean_linker_0, # of connection points: 2
#     Edge 63, Type (0, 1), BuildingBlock: CIFDUS_clean_linker_0, # of connection points: 2
#     Edge 64, Type (0, 1), BuildingBlock: CIFDUS_clean_linker_0, # of connection points: 2
#     Edge 65, Type (0, 1), BuildingBlock: CIFDUS_clean_linker_0, # of connection points: 2
#     Edge 66, Type (0, 1), BuildingBlock: CIFDUS_clean_linker_0, # of connection points: 2
#     Edge 67, Type (0, 1), BuildingBlock: CIFDUS_clean_linker_0, # of connection points: 2
#     Edge 68, Type (0, 1), BuildingBlock: CIFDUS_clean_linker_0, # of connection points: 2
#     Edge 69, Type (0, 1), BuildingBlock: CIFDUS_clean_linker_0, # of connection points: 2
#     Edge 70, Type (0, 1), BuildingBlock: CIFDUS_clean_linker_0, # of connection points: 2
#     Edge 71, Type (0, 1), BuildingBlock: CIFDUS_clean_linker_0, # of connection points: 2
#     Edge 72, Type (0, 1), BuildingBlock: CIFDUS_clean_linker_0, # of connection points: 2
#     Edge 73, Type (0, 1), BuildingBlock: CIFDUS_clean_linker_0, # of connection points: 2
#     Edge 74, Type (0, 1), BuildingBlock: CIFDUS_clean_linker_0, # of connection points: 2
#     Edge 75, Type (0, 1), BuildingBlock: CIFDUS_clean_linker_0, # of connection points: 2
#     Edge 76, Type (0, 1), BuildingBlock: CIFDUS_clean_linker_0, # of connection points: 2
#     Edge 77, Type (0, 1), BuildingBlock: CIFDUS_clean_linker_0, # of connection points: 2
#     Edge 78, Type (0, 1), BuildingBlock: CIFDUS_clean_linker_0, # of connection points: 2
#     Edge 79, Type (0, 1), BuildingBlock: CIFDUS_clean_linker_0, # of connection points: 2
#     Edge 80, Type (0, 1), BuildingBlock: CIFDUS_clean_linker_0, # of connection points: 2
# Relax obj value: 0.035
# Max RMSD: 0.128
# Mean RMSD: 0.079
data_MOF--net-eea--node1-WUSLED_clean_sbu_0--node2-CUWYAW_clean_sbu_0--edge1-CIFDUS_clean_linker_0
_symmetry_space_group_name_H-M    P1
_symmetry_Int_Tables_number       1
_symmetry_cell_setting            triclinic
loop_
_symmetry_equiv_pos_as_xyz
'x, y, z'
_cell_length_a     60.510962
_cell_length_b     60.003876
_cell_length_c     85.97028
_cell_angle_alpha  92.769269
_cell_angle_beta   92.976968
_cell_angle_gamma 119.94167
loop_
_atom_site_label
_atom_site_type_symbol
_atom_site_fract_x
_atom_site_fract_y
_atom_site_fract_z
_atom_type_partial_charge
C0 C 0.22128 0.16803 0.39786 0.0
C1 C 0.23031 0.19094 0.40755 0.0
C2 C 0.216 0.20919 0.38723 0.0
C3 C 0.22776 0.21139 0.40225 0.0
C4 C 0.20716 0.18618 0.37761 0.0
C5 C 0.20977 0.16587 0.38288 0.0
U6 U 0.2358 0.13198 0.42907 0.0
O7 O 0.21526 0.09059 0.43265 0.0
O8 O 0.25523 0.10931 0.42702 0.0
C9 C 0.23461 0.08755 0.42936 0.0
C10 C 0.22349 0.1461 0.40305 0.0
C11 C 0.2283 0.06506 0.41846 0.0
C12 C 0.21105 0.04033 0.3932 0.0
C13 C 0.21786 0.06249 0.40308 0.0
C14 C 0.22541 0.02333 0.41392 0.0
C15 C 0.21458 0.02036 0.39854 0.0
C16 C 0.23217 0.04544 0.42376 0.0
C17 C 0.25656 0.16031 0.47155 0.0
C18 C 0.26674 0.13846 0.49136 0.0
C19 C 0.26776 0.17851 0.49858 0.0
C20 C 0.26064 0.17968 0.48303 0.0
C21 C 0.27093 0.1579 0.50296 0.0
C22 C 0.25961 0.13966 0.4758 0.0
C23 C 0.249 0.16183 0.45525 0.0
O24 O 0.24678 0.15092 0.40721 0.0
O25 O 0.2066 0.13159 0.41249 0.0
O26 O 0.22511 0.14515 0.45023 0.0
O27 O 0.26531 0.16407 0.44506 0.0
H28 H 0.23921 0.19294 0.41919 0.0
H29 H 0.23461 0.22873 0.41001 0.0
H30 H 0.19842 0.18394 0.36589 0.0
H31 H 0.20278 0.14839 0.37522 0.0
H32 H 0.20306 0.03884 0.38138 0.0
H33 H 0.21479 0.07749 0.39878 0.0
H34 H 0.22806 1.00826 0.41852 0.0
H35 H 0.24012 0.04706 0.43563 0.0
H36 H 0.2693 0.12249 0.49427 0.0
H37 H 0.27046 0.19361 0.50722 0.0
H38 H 0.25824 0.1957 0.47996 0.0
H39 H 0.25655 0.12452 0.46706 0.0
C40 C 0.96647 0.17091 0.40806 0.0
C41 C 0.99054 0.17478 0.41356 0.0
C42 C 1.01228 0.21291 0.399 0.0
C43 C 1.01311 0.1955 0.40911 0.0
C44 C 0.98819 0.20917 0.39364 0.0
C45 C 0.96561 0.1884 0.39807 0.0
U46 U 0.91203 0.1302 0.4342 0.0
O47 O 0.87068 0.10539 0.42753 0.0
O48 O 0.89287 0.08854 0.43698 0.0
C49 C 0.87071 0.0841 0.4305 0.0
C50 C 0.94234 0.14761 0.41146 0.0
C51 C 0.85685 0.06158 0.41864 0.0
C52 C 0.84777 0.01911 0.408 0.0
C53 C 0.86253 0.04151 0.41806 0.0
C54 C 0.82135 0.03631 0.39873 0.0
C55 C 0.82681 0.01608 0.39831 0.0
C56 C 0.83611 0.05871 0.40881 0.0
C57 C 0.91195 0.15751 0.47606 0.0
C58 C 0.91225 0.15092 0.50388 0.0
C59 C 0.88619 0.1674 0.4929 0.0
C60 C 0.89452 0.16622 0.47815 0.0
C61 C 0.89519 0.16011 0.50602 0.0
C62 C 0.92061 0.14975 0.48911 0.0
C63 C 0.92281 0.15878 0.46075 0.0
O64 O 0.94419 0.13307 0.42183 0.0
O65 O 0.92215 0.15024 0.41262 0.0
O66 O 0.91015 0.16058 0.44843 0.0
O67 O 0.93203 0.1434 0.45786 0.0
H68 H 0.99203 0.16151 0.42105 0.0
H69 H 0.03123 0.19743 0.41328 0.0
H70 H 0.98674 0.22229 0.38599 0.0
H71 H 0.9474 0.1858 0.39344 0.0
H72 H 0.85234 1.00382 0.40817 0.0
H73 H 0.87802 0.04277 0.42567 0.0
H74 H 0.80557 0.03481 0.39132 0.0
H75 H 0.83093 0.07358 0.40908 0.0
H76 H 0.91983 0.14544 0.51372 0.0
H77 H 0.87278 0.17423 0.49403 0.0
H78 H 0.88762 0.17263 0.46845 0.0
H79 H 0.93435 0.14334 0.488 0.0
C80 C 0.86463 0.80217 0.40608 0.0
C81 C 0.84845 0.80141 0.41744 0.0
C82 C 0.82306 0.80967 0.39806 0.0
C83 C 0.82787 0.80521 0.41347 0.0
C84 C 0.8395 0.81054 0.3868 0.0
C85 C 0.86004 0.80682 0.39078 0.0
U86 U 0.90237 0.78274 0.43386 0.0
O87 O 0.92041 0.75945 0.42877 0.0
O88 O 0.944 0.7996 0.43873 0.0
C89 C 0.94366 0.77881 0.43281 0.0
C90 C 0.88614 0.79787 0.40987 0.0
C91 C 0.96317 0.78323 0.42185 0.0
C92 C 0.97823 0.78928 0.39579 0.0
C93 C 0.95897 0.7846 0.40578 0.0
C94 C 1.00588 0.79119 0.41784 0.0
C95 C 1.00203 0.7929 0.40175 0.0
C96 C 0.98668 0.78643 0.42775 0.0
C97 C 0.87774 0.76322 0.4747 0.0
C98 C 0.87208 0.76685 0.50237 0.0
C99 C 0.8778 0.73209 0.49184 0.0
C100 C 0.87999 0.74138 0.47701 0.0
C101 C 0.87341 0.74447 0.50465 0.0
C102 C 0.87416 0.77604 0.48755 0.0
C103 C 0.87702 0.77191 0.45895 0.0
O104 O 0.90342 0.81396 0.42092 0.0
O105 O 0.87986 0.77372 0.41116 0.0
O106 O 0.87135 0.75502 0.44692 0.0
O107 O 0.89522 0.7953 0.45666 0.0
H108 H 0.85167 0.79774 0.42932 0.0
H109 H 0.81548 0.80423 0.42239 0.0
H110 H 0.83663 0.81435 0.3749 0.0
H111 H 0.87237 0.80754 0.38188 0.0
H112 H 0.9747 0.79063 0.38348 0.0
H113 H 0.94094 0.78225 0.401 0.0
H114 H 0.02378 0.79345 0.42279 0.0
H115 H 0.99026 0.78535 0.44009 0.0
H116 H 0.86842 0.7767 0.5119 0.0
H117 H 0.87924 0.71501 0.49323 0.0
H118 H 0.88286 0.73114 0.46733 0.0
H119 H 0.87221 0.79283 0.48604 0.0
C120 C 0.0659 0.21834 0.61911 0.0
C121 C 0.0499 0.22305 0.60908 0.0
C122 C 0.01924 0.21184 0.62885 0.0
C123 C 0.02673 0.21978 0.6139 0.0
C124 C 0.03546 0.20718 0.63879 0.0
C125 C 0.05852 0.21042 0.63396 0.0
U126 U 0.1193 0.23676 0.59103 0.0
O127 O 0.161 0.25633 0.59697 0.0
O128 O 0.1406 0.21695 0.58555 0.0
C129 C 0.16239 0.23588 0.59233 0.0
C130 C 0.09031 0.22141 0.61447 0.0
C131 C 0.17768 0.22858 0.60278 0.0
C132 C 0.21336 0.24078 0.62239 0.0
C133 C 0.19683 0.24682 0.61398 0.0
C134 C 0.19165 0.19803 0.60886 0.0
C135 C 0.2113 0.21648 0.61969 0.0
C136 C 0.17514 0.20402 0.60048 0.0
C137 C 0.1171 0.26224 0.55111 0.0
C138 C 0.11742 0.25478 0.52297 0.0
C139 C 0.1466 0.29688 0.53617 0.0
C140 C 0.13666 0.28796 0.55038 0.0
C141 C 0.13721 0.2804 0.52228 0.0
C142 C 0.10745 0.24585 0.53719 0.0
C143 C 0.10612 0.25265 0.56611 0.0
O144 O 0.08869 0.20567 0.60272 0.0
O145 O 0.10901 0.24526 0.61386 0.0
O146 O 0.11829 0.26778 0.57893 0.0
O147 O 0.09809 0.22819 0.56786 0.0
H148 H 0.05534 0.22924 0.59756 0.0
H149 H 1.01482 0.22374 0.606 0.0
H150 H 0.03017 0.20061 0.65025 0.0
H151 H 0.07058 0.20659 0.64184 0.0
H152 H 0.22844 0.25553 0.63053 0.0
H153 H 0.19962 0.26606 0.6159 0.0
H154 H 0.1893 0.17901 0.60663 0.0
H155 H 0.16083 0.18957 0.59185 0.0
H156 H 0.10985 0.24148 0.51255 0.0
H157 H 0.16148 0.31686 0.53605 0.0
H158 H 0.14431 0.30131 0.56078 0.0
H159 H 0.09217 0.22603 0.5373 0.0
C160 C 0.80354 0.85918 0.62989 0.0
C161 C 0.796 0.83654 0.62025 0.0
C162 C 0.8108 0.81942 0.64104 0.0
C163 C 0.79954 0.81679 0.6258 0.0
C164 C 0.81818 0.84217 0.65061 0.0
C165 C 0.81459 0.86178 0.64508 0.0
U166 U 0.78824 0.89404 0.59813 0.0
O167 O 0.76616 0.91416 0.59935 0.0
O168 O 0.80676 0.93556 0.59506 0.0
C169 C 0.78611 0.93676 0.59751 0.0
C170 C 0.8001 0.88034 0.62449 0.0
C171 C 0.78983 0.95873 0.60806 0.0
C172 C 0.8069 0.98624 0.63245 0.0
C173 C 0.80271 0.96447 0.62304 0.0
C174 C 0.78508 0.99649 0.61208 0.0
C175 C 0.79825 1.00263 0.62705 0.0
C176 C 0.78094 0.9748 0.60272 0.0
C177 C 0.77159 0.86603 0.55531 0.0
C178 C 0.75702 0.88365 0.53489 0.0
C179 C 0.76572 0.84927 0.52817 0.0
C180 C 0.77252 0.84905 0.54394 0.0
C181 C 0.75781 0.86652 0.52342 0.0
C182 C 0.7639 0.88344 0.55069 0.0
C183 C 0.77857 0.86517 0.57186 0.0
O184 O 0.81728 0.89592 0.61556 0.0
O185 O 0.77661 0.87415 0.61964 0.0
O186 O 0.76112 0.86144 0.58152 0.0
O187 O 0.80177 0.88304 0.57741 0.0
H188 H 0.78747 0.83419 0.60846 0.0
H189 H 0.79382 0.79966 0.61807 0.0
H190 H 0.82649 0.84474 0.66248 0.0
H191 H 0.82043 0.87905 0.65272 0.0
H192 H 0.81682 0.99017 0.64398 0.0
H193 H 0.80968 0.95225 0.6274 0.0
H194 H 0.77845 1.00878 0.60742 0.0
H195 H 0.77106 0.97076 0.59116 0.0
H196 H 0.75132 0.89739 0.53165 0.0
H197 H 0.76623 0.83558 0.51972 0.0
H198 H 0.77837 0.83545 0.54729 0.0
H199 H 0.76319 0.89681 0.5593 0.0
C200 C 0.07422 0.86171 0.62803 0.0
C201 C 0.05745 0.84133 0.61703 0.0
C202 C 0.02653 0.82227 0.63648 0.0
C203 C 0.03382 0.8218 0.62121 0.0
C204 C 0.04356 0.84274 0.64745 0.0
C205 C 0.06713 0.86222 0.64325 0.0
U206 U 0.12574 0.89418 0.59933 0.0
O207 O 0.14931 0.93522 0.59535 0.0
O208 O 0.16777 0.91388 0.60353 0.0
C209 C 0.17089 0.93626 0.59993 0.0
C210 C 0.09909 0.88262 0.62391 0.0
C211 C 0.18938 0.95907 0.6103 0.0
C212 C 0.20128 0.9875 0.63416 0.0
C213 C 0.1834 0.96505 0.6249 0.0
C214 C 0.23124 0.99794 0.61436 0.0
C215 C 0.22542 1.00431 0.62896 0.0
C216 C 0.21341 0.97558 0.60516 0.0
C217 C 0.11812 0.86462 0.55792 0.0
C218 C 0.15372 0.88145 0.54157 0.0
C219 C 0.11136 0.84878 0.53051 0.0
C220 C 0.10179 0.84852 0.54504 0.0
C221 C 0.1375 0.86509 0.52864 0.0
C222 C 0.14411 0.88127 0.55605 0.0
C223 C 0.10802 0.86383 0.57324 0.0
O224 O 0.11655 0.87618 0.62159 0.0
O225 O 0.09804 0.89748 0.61349 0.0
O226 O 0.10244 0.88192 0.57669 0.0
O227 O 0.12043 0.86026 0.58497 0.0
H228 H 0.06264 0.84055 0.60522 0.0
H229 H 0.02135 0.80622 0.61251 0.0
H230 H 0.0385 0.844 0.65922 0.0
H231 H 0.07979 0.87783 0.6519 0.0
H232 H 0.19625 0.99162 0.64541 0.0
H233 H 0.16493 0.95248 0.62908 0.0
H234 H 0.2494 1.01054 0.60985 0.0
H235 H 0.21831 0.97133 0.59388 0.0
H236 H 0.17385 0.89449 0.54048 0.0
H237 H 0.09841 0.83579 0.52084 0.0
H238 H 0.08167 0.83557 0.54626 0.0
H239 H 0.15699 0.89402 0.56583 0.0
C240 C 0.86756 0.49031 0.72965 0.0
C241 C 0.88715 0.51222 0.72355 0.0
C242 C 0.85789 0.52822 0.71767 0.0
C243 C 0.88239 0.53098 0.71769 0.0
C244 C 0.83848 0.50657 0.72405 0.0
C245 C 0.84322 0.48784 0.72989 0.0
U246 U 0.88979 0.45802 0.75972 0.0
O247 O 0.87201 0.41727 0.76472 0.0
O248 O 0.91035 0.43672 0.75639 0.0
C249 C 0.89118 0.4149 0.76014 0.0
C250 C 0.87175 0.46916 0.73462 0.0
C251 C 0.88422 0.39175 0.74967 0.0
C252 C 0.86567 0.36546 0.72497 0.0
C253 C 0.8724 0.38793 0.73453 0.0
C254 C 0.88262 0.35056 0.74556 0.0
C255 C 0.87067 0.34645 0.73037 0.0
C256 C 0.88931 0.37296 0.75508 0.0
C257 C 0.91816 0.49305 0.80077 0.0
C258 C 0.92719 0.47439 0.82304 0.0
C259 C 0.94275 0.52033 0.82424 0.0
C260 C 0.93153 0.5174 0.8091 0.0
C261 C 0.94082 0.4989 0.8314 0.0
C262 C 0.91603 0.4715 0.80782 0.0
C263 C 0.90672 0.49078 0.7848 0.0
O264 O 0.89561 0.47446 0.73692 0.0
O265 O 0.85719 0.45488 0.74512 0.0
O266 O 0.88263 0.47264 0.78172 0.0
O267 O 0.92103 0.49231 0.77345 0.0
H268 H 0.90605 0.51465 0.72297 0.0
H269 H 0.89771 0.54719 0.71269 0.0
H270 H 0.81947 0.50394 0.72442 0.0
H271 H 0.82761 0.47113 0.73435 0.0
H272 H 0.85675 0.36309 0.71329 0.0
H273 H 0.86837 0.40227 0.73015 0.0
H274 H 0.88641 0.33624 0.75022 0.0
H275 H 0.89833 0.37553 0.76676 0.0
H276 H 0.92557 0.45755 0.82816 0.0
H277 H 0.95278 0.5394 0.83039 0.0
H278 H 0.9333 0.53424 0.80387 0.0
H279 H 0.90585 0.45252 0.80153 0.0
C280 C 0.63093 0.5037 0.73917 0.0
C281 C 0.64627 0.52514 0.74988 0.0
C282 C 0.67676 0.5456 0.73036 0.0
C283 C 0.66899 0.54589 0.74553 0.0
C284 C 0.6611 0.52408 0.71969 0.0
C285 C 0.63847 0.50339 0.72406 0.0
U286 U 0.57942 0.46755 0.76756 0.0
O287 O 0.53763 0.44345 0.76247 0.0
O288 O 0.55971 0.42638 0.77177 0.0
C289 C 0.53721 0.42229 0.76625 0.0
C290 C 0.60718 0.48136 0.74347 0.0
C291 C 0.522 0.39919 0.75525 0.0
C292 C 0.51538 0.37414 0.73057 0.0
C293 C 0.53028 0.39653 0.74069 0.0
C294 C 0.48383 0.357 0.74947 0.0
C295 C 0.49193 0.35408 0.73484 0.0
C296 C 0.49871 0.37931 0.75954 0.0
C297 C 0.58346 0.49886 0.80853 0.0
C298 C 0.55737 0.47642 0.82943 0.0
C299 C 0.58191 0.52313 0.83152 0.0
C300 C 0.5911 0.52247 0.81701 0.0
C301 C 0.56484 0.50014 0.83791 0.0
C302 C 0.56651 0.47578 0.81483 0.0
C303 C 0.5933 0.4989 0.79316 0.0
O304 O 0.60996 0.46816 0.7544 0.0
O305 O 0.58778 0.48512 0.74512 0.0
O306 O 0.5796 0.49979 0.78109 0.0
O307 O 0.6015 0.48261 0.79051 0.0
H308 H 0.64072 0.52578 0.76161 0.0
H309 H 0.68038 0.56223 0.75401 0.0
H310 H 0.6666 0.52292 0.70802 0.0
H311 H 0.62691 0.48698 0.71563 0.0
H312 H 0.52209 0.37266 0.71935 0.0
H313 H 0.54821 0.41172 0.73716 0.0
H314 H 0.46615 0.34185 0.75328 0.0
H315 H 0.49206 0.38098 0.77076 0.0
H316 H 0.54406 0.45838 0.83393 0.0
H317 H 0.58833 0.54172 0.8378 0.0
H318 H 0.6042 0.54048 0.81237 0.0
H319 H 0.56025 0.45732 0.80843 0.0
C320 C 0.53783 0.1433 0.74457 0.0
C321 C 0.52001 0.14015 0.75532 0.0
C322 C 0.49555 0.14936 0.73576 0.0
C323 C 0.49906 0.1432 0.75097 0.0
C324 C 0.51358 0.1525 0.72509 0.0
C325 C 0.53446 0.14949 0.72946 0.0
U326 U 0.57795 0.12697 0.77296 0.0
O327 O 0.59889 0.10645 0.76801 0.0
O328 O 0.61975 0.14663 0.77814 0.0
C329 C 0.6214 0.12701 0.7721 0.0
C330 C 0.56013 0.1404 0.74881 0.0
C331 C 0.64218 0.13309 0.7616 0.0
C332 C 0.66131 0.11955 0.74156 0.0
C333 C 0.64029 0.1147 0.74998 0.0
C334 C 0.68631 0.16147 0.75592 0.0
C335 C 0.68477 0.14279 0.74468 0.0
C336 C 0.66538 0.15665 0.76429 0.0
C337 C 0.5542 0.10638 0.814 0.0
C338 C 0.54472 0.07266 0.83166 0.0
C339 C 0.56033 0.11652 0.84229 0.0
C340 C 0.56151 0.12431 0.82711 0.0
C341 C 0.55155 0.09051 0.84477 0.0
C342 C 0.54598 0.08047 0.81647 0.0
C343 C 0.55257 0.11437 0.79806 0.0
O344 O 0.57669 0.15707 0.75994 0.0
O345 O 0.55523 0.11668 0.75021 0.0
O346 O 0.54814 0.09773 0.7861 0.0
O347 O 0.56923 0.13827 0.79555 0.0
H348 H 0.52229 0.13532 0.76705 0.0
H349 H 0.48545 0.14043 0.75944 0.0
H350 H 0.51179 0.15768 0.71339 0.0
H351 H 0.54808 0.15211 0.72102 0.0
H352 H 0.6595 0.10465 0.73309 0.0
H353 H 0.62285 0.09619 0.7477 0.0
H354 H 0.70394 0.17974 0.75847 0.0
H355 H 0.66765 0.17117 0.77324 0.0
H356 H 0.53816 0.05254 0.83313 0.0
H357 H 0.5654 0.13074 0.85208 0.0
H358 H 0.56748 0.14431 0.82565 0.0
H359 H 0.53992 0.06604 0.80669 0.0
C360 C 0.72908 0.54967 0.95085 0.0
C361 C 0.71307 0.55394 0.94053 0.0
C362 C 0.68247 0.54379 0.96025 0.0
C363 C 0.68993 0.55097 0.94518 0.0
C364 C 0.69872 0.5396 0.97049 0.0
C365 C 0.72175 0.54253 0.96583 0.0
U366 U 0.78139 0.56791 0.9224 0.0
O367 O 0.82326 0.58767 0.9275 0.0
O368 O 0.80256 0.54827 0.9161 0.0
C369 C 0.82454 0.56725 0.92263 0.0
C370 C 0.75341 0.55245 0.94628 0.0
C371 C 0.84021 0.55996 0.93277 0.0
C372 C 0.85565 0.5302 0.93774 0.0
C373 C 0.83899 0.53616 0.92952 0.0
C374 C 0.87493 0.57145 0.95298 0.0
C375 C 0.87418 0.54795 0.94937 0.0
C376 C 0.85822 0.57744 0.94473 0.0
C377 C 0.77477 0.59362 0.88321 0.0
C378 C 0.80481 0.60468 0.86323 0.0
C379 C 0.76921 0.61233 0.85994 0.0
C380 C 0.76107 0.60233 0.87424 0.0
C381 C 0.79128 0.61382 0.85428 0.0
C382 C 0.79665 0.59472 0.87761 0.0
C383 C 0.7659 0.58371 0.89838 0.0
O384 O 0.75157 0.53671 0.93446 0.0
O385 O 0.77219 0.57624 0.94564 0.0
O386 O 0.77957 0.59898 0.91084 0.0
O387 O 0.75899 0.5594 0.8997 0.0
H388 H 0.71847 0.55954 0.92892 0.0
H389 H 0.67802 0.55457 0.93705 0.0
H390 H 0.69344 0.53365 0.98206 0.0
H391 H 0.73383 0.53908 0.97393 0.0
H392 H 0.85428 0.51177 0.9348 0.0
H393 H 0.82556 0.52233 0.9203 0.0
H394 H 0.88912 0.58568 0.96174 0.0
H395 H 0.85997 0.5961 0.94743 0.0
H396 H 0.82199 0.60575 0.85928 0.0
H397 H 0.75813 0.61883 0.85327 0.0
H398 H 0.74406 0.60151 0.87834 0.0
H399 H 0.8075 0.58809 0.88441 0.0
C400 C 0.47786 0.18878 0.9648 0.0
C401 C 0.49938 0.18638 0.96219 0.0
C402 C 0.48188 0.1469 0.97563 0.0
C403 C 0.50134 0.1657 0.96753 0.0
C404 C 0.46014 0.14901 0.97797 0.0
C405 C 0.45823 0.16977 0.97269 0.0
U406 U 0.4659 0.2278 0.93452 0.0
O407 O 0.44673 0.25075 0.93647 0.0
O408 O 0.48707 0.26937 0.93156 0.0
C409 C 0.46768 0.27252 0.93459 0.0
C410 C 0.47646 0.21169 0.96024 0.0
C411 C 0.47367 0.29476 0.94562 0.0
C412 C 0.49246 0.32037 0.97052 0.0
C413 C 0.48597 0.29835 0.96059 0.0
C414 C 0.47403 0.33517 0.95072 0.0
C415 C 0.48668 0.33915 0.96567 0.0
C416 C 0.46762 0.31322 0.94083 0.0
C417 C 0.44663 0.19955 0.89169 0.0
C418 C 0.43794 0.22099 0.87093 0.0
C419 C 0.43454 0.17942 0.86509 0.0
C420 C 0.44146 0.17906 0.88081 0.0
C421 C 0.43264 0.20037 0.85993 0.0
C422 C 0.44489 0.22058 0.88668 0.0
C423 C 0.45361 0.19848 0.90817 0.0
O424 O 0.49407 0.22729 0.95151 0.0
O425 O 0.45354 0.20785 0.95599 0.0
O426 O 0.43685 0.19631 0.918 0.0
O427 O 0.47735 0.21518 0.91349 0.0
H428 H 0.51498 0.20067 0.95624 0.0
H429 H 0.51823 0.16453 0.96539 0.0
H430 H 0.44496 0.13507 0.98434 0.0
H431 H 0.44155 0.1712 0.97507 0.0
H432 H 0.50192 0.32265 0.98201 0.0
H433 H 0.49075 0.28426 0.96451 0.0
H434 H 0.46962 0.34933 0.94649 0.0
H435 H 0.45822 0.31084 0.92929 0.0
H436 H 0.43693 0.23753 0.86735 0.0
H437 H 0.43021 0.16305 0.85704 0.0
H438 H 0.44264 0.16263 0.88449 0.0
H439 H 0.44888 0.23663 0.89495 0.0
C440 C 0.73351 0.18983 0.95675 0.0
C441 C 0.70943 0.18573 0.95104 0.0
C442 C 0.68773 0.14863 0.9664 0.0
C443 C 0.68688 0.16541 0.95579 0.0
C444 C 0.71182 0.15267 0.97203 0.0
C445 C 0.7344 0.17306 0.96731 0.0
U446 U 0.78538 0.22704 0.92864 0.0
O447 O 0.8054 0.2683 0.92469 0.0
O448 O 0.82725 0.25067 0.9335 0.0
C449 C 0.8279 0.272 0.92986 0.0
C450 C 0.75767 0.21238 0.95268 0.0
C451 C 0.84367 0.29511 0.94073 0.0
C452 C 0.85236 0.31966 0.96585 0.0
C453 C 0.83716 0.29709 0.95595 0.0
C454 C 0.88069 0.3383 0.94541 0.0
C455 C 0.87431 0.3406 0.96068 0.0
C456 C 0.86553 0.31579 0.93556 0.0
C457 C 0.78142 0.19871 0.8873 0.0
C458 C 0.8149 0.22176 0.87011 0.0
C459 C 0.77861 0.17987 0.86107 0.0
C460 C 0.76841 0.17854 0.87548 0.0
C461 C 0.80209 0.20143 0.85824 0.0
C462 C 0.80466 0.22041 0.8845 0.0
C463 C 0.77085 0.19679 0.90255 0.0
O464 O 0.77703 0.2086 0.95082 0.0
O465 O 0.75561 0.22687 0.94236 0.0
O466 O 0.76273 0.21297 0.90581 0.0
O467 O 0.78439 0.19505 0.91438 0.0
H468 H 0.70793 0.19842 0.94306 0.0
H469 H 0.66876 0.16325 0.95139 0.0
H470 H 0.71329 0.14003 0.98007 0.0
H471 H 0.75262 0.17585 0.97207 0.0
H472 H 0.84701 0.32064 0.97758 0.0
H473 H 0.82033 0.28127 0.96014 0.0
H474 H 0.89715 0.35411 0.94092 0.0
H475 H 0.87077 0.31463 0.92381 0.0
H476 H 0.83283 0.23879 0.86827 0.0
H477 H 0.76839 0.16374 0.85229 0.0
H478 H 0.75046 0.16162 0.87745 0.0
H479 H 0.81493 0.23623 0.89348 0.0
C480 C 0.54515 0.82065 0.0607 0.0
C481 C 0.55213 0.84372 0.06971 0.0
C482 C 0.53246 0.85659 0.04914 0.0
C483 C 0.54591 0.86159 0.06395 0.0
C484 C 0.52571 0.83347 0.04019 0.0
C485 C 0.53198 0.81574 0.04592 0.0
U486 U 0.5673 0.79146 0.09276 0.0
O487 O 0.5518 0.75074 0.0972 0.0
O488 O 0.59142 0.77362 0.09119 0.0
C489 C 0.57285 0.75078 0.09408 0.0
C490 C 0.55115 0.80131 0.06639 0.0
C491 C 0.5694 0.72863 0.08389 0.0
C492 C 0.55335 0.701 0.05956 0.0
C493 C 0.55729 0.72289 0.0687 0.0
C494 C 0.57391 0.69066 0.08066 0.0
C495 C 0.56149 0.6845 0.06548 0.0
C496 C 0.5778 0.71248 0.08975 0.0
C497 C 0.58654 0.82119 0.13474 0.0
C498 C 0.59842 0.8006 0.15456 0.0
C499 C 0.59881 0.8404 0.16156 0.0
C500 C 0.5908 0.84084 0.14606 0.0
C501 C 0.60266 0.82022 0.16602 0.0
C502 C 0.59046 0.80109 0.13906 0.0
C503 C 0.57779 0.82163 0.11851 0.0
O504 O 0.5754 0.80951 0.07049 0.0
O505 O 0.53566 0.7859 0.07614 0.0
O506 O 0.55461 0.80282 0.11369 0.0
O507 O 0.59447 0.82588 0.1082 0.0
H508 H 0.56226 0.84782 0.0812 0.0
H509 H 0.55122 0.87909 0.0712 0.0
H510 H 0.51574 0.82915 0.02864 0.0
H511 H 0.52651 0.79809 0.03877 0.0
H512 H 0.54401 0.69703 0.04786 0.0
H513 H 0.55071 0.73519 0.06397 0.0
H514 H 0.58011 0.67827 0.0857 0.0
H515 H 0.5871 0.71657 0.10149 0.0
H516 H 0.60153 0.78498 0.15752 0.0
H517 H 0.60161 0.85564 0.1701 0.0
H518 H 0.58779 0.85646 0.14293 0.0
H519 H 0.58732 0.78578 0.13045 0.0
C520 C 0.29657 0.83643 0.07577 0.0
C521 C 0.31254 0.85745 0.08662 0.0
C522 C 0.3433 0.87729 0.06714 0.0
C523 C 0.33572 0.87769 0.08235 0.0
C524 C 0.32706 0.85614 0.05636 0.0
C525 C 0.30399 0.83599 0.06064 0.0
U526 U 0.24389 0.79961 0.10364 0.0
O527 O 0.20209 0.77697 0.09802 0.0
O528 O 0.22277 0.75794 0.10644 0.0
C529 C 0.20071 0.75506 0.101 0.0
C530 C 0.27225 0.8146 0.07986 0.0
C531 C 0.18534 0.73298 0.08932 0.0
C532 C 0.17873 0.71015 0.06381 0.0
C533 C 0.19354 0.73177 0.07449 0.0
C534 C 0.14738 0.69091 0.08263 0.0
C535 C 0.15547 0.68938 0.06776 0.0
C536 C 0.16217 0.71247 0.09327 0.0
C537 C 0.24717 0.82595 0.1457 0.0
C538 C 0.21094 0.80975 0.16159 0.0
C539 C 0.254 0.83664 0.17387 0.0
C540 C 0.26371 0.83844 0.15925 0.0
C541 C 0.22745 0.82232 0.17526 0.0
C542 C 0.22069 0.81147 0.14699 0.0
C543 C 0.25786 0.82818 0.1304 0.0
O544 O 0.27413 0.80009 0.09022 0.0
O545 O 0.25363 0.81942 0.08198 0.0
O546 O 0.2451 0.8311 0.11858 0.0
O547 O 0.2656 0.81179 0.12683 0.0
H548 H 0.30711 0.85816 0.09837 0.0
H549 H 0.34758 0.89375 0.09092 0.0
H550 H 0.33239 0.85486 0.04466 0.0
H551 H 0.29198 0.81989 0.05212 0.0
H552 H 0.18543 0.70978 0.05241 0.0
H553 H 0.21139 0.74746 0.07123 0.0
H554 H 0.12984 0.67518 0.0862 0.0
H555 H 0.15559 0.71302 0.1047 0.0
H556 H 0.19039 0.79882 0.16212 0.0
H557 H 0.26736 0.84622 0.1841 0.0
H558 H 0.28421 0.84957 0.15853 0.0
H559 H 0.20754 0.80157 0.13669 0.0
C560 C 0.20493 0.47978 0.07401 0.0
C561 C 0.18515 0.47371 0.08379 0.0
C562 C 0.16342 0.48671 0.06467 0.0
C563 C 0.16456 0.47716 0.07916 0.0
C564 C 0.18346 0.49288 0.05501 0.0
C565 C 0.20396 0.48943 0.05964 0.0
U566 U 0.24315 0.46332 0.10353 0.0
O567 O 0.26373 0.4421 0.09972 0.0
O568 O 0.28472 0.4825 0.10946 0.0
C569 C 0.28628 0.46261 0.10381 0.0
C570 C 0.2268 0.47643 0.07861 0.0
C571 C 0.30711 0.46829 0.09343 0.0
C572 C 0.3507 0.49708 0.08699 0.0
C573 C 0.3299 0.49231 0.09548 0.0
C574 C 0.3264 0.45411 0.07385 0.0
C575 C 0.34943 0.4779 0.07628 0.0
C576 C 0.30552 0.4493 0.08238 0.0
C577 C 0.21702 0.44547 0.14445 0.0
C578 C 0.20916 0.4136 0.16322 0.0
C579 C 0.21693 0.45595 0.17218 0.0
C580 C 0.21975 0.46304 0.15684 0.0
C581 C 0.21108 0.43096 0.17555 0.0
C582 C 0.21202 0.42073 0.14783 0.0
C583 C 0.21662 0.45247 0.12815 0.0
O584 O 0.24334 0.49329 0.08967 0.0
O585 O 0.2213 0.45264 0.08048 0.0
O586 O 0.21254 0.43511 0.11672 0.0
O587 O 0.23381 0.47606 0.12542 0.0
H588 H 0.18562 0.46627 0.09496 0.0
H589 H 0.14938 0.472 0.08683 0.0
H590 H 0.18348 0.50071 0.04392 0.0
H591 H 0.21915 0.49437 0.05199 0.0
H592 H 0.368 0.51576 0.08901 0.0
H593 H 0.33196 0.50732 0.10396 0.0
H594 H 0.32484 0.43883 0.06581 0.0
H595 H 0.28839 0.43045 0.08062 0.0
H596 H 0.20443 0.39413 0.16534 0.0
H597 H 0.21894 0.46996 0.1814 0.0
H598 H 0.22337 0.48215 0.15462 0.0
H599 H 0.20953 0.4066 0.13855 0.0
C600 C 0.39777 0.88583 0.28774 0.0
C601 C 0.38266 0.89233 0.27819 0.0
C602 C 0.35062 0.87821 0.29718 0.0
C603 C 0.35922 0.8885 0.28286 0.0
C604 C 0.36581 0.8715 0.30655 0.0
C605 C 0.38913 0.8753 0.30187 0.0
U606 U 0.45133 0.90645 0.25988 0.0
O607 O 0.49303 0.92824 0.2656 0.0
O608 O 0.47457 0.88852 0.25471 0.0
C609 C 0.49575 0.90845 0.26137 0.0
C610 C 0.42267 0.89003 0.28338 0.0
C611 C 0.51128 0.90249 0.27242 0.0
C612 C 0.53141 0.90584 0.29841 0.0
C613 C 0.51539 0.91062 0.28846 0.0
C614 C 0.53875 0.88413 0.27653 0.0
C615 C 0.54357 0.89281 0.29252 0.0
C616 C 0.5229 0.88901 0.26661 0.0
C617 C 0.44582 0.93088 0.22016 0.0
C618 C 0.47174 0.93482 0.19859 0.0
C619 C 0.44717 0.95662 0.19887 0.0
C620 C 0.43811 0.94671 0.21305 0.0
C621 C 0.46412 0.95084 0.19146 0.0
C622 C 0.46277 0.92502 0.21286 0.0
C623 C 0.43591 0.92079 0.23514 0.0
O624 O 0.4219 0.87456 0.27174 0.0
O625 O 0.44057 0.91421 0.28271 0.0
O626 O 0.44823 0.93642 0.24773 0.0
O627 O 0.42978 0.89675 0.23681 0.0
H628 H 0.38908 0.90051 0.26722 0.0
H629 H 0.34808 0.89403 0.27542 0.0
H630 H 0.35959 0.8631 0.31748 0.0
H631 H 0.40049 0.87005 0.30935 0.0
H632 H 0.53476 0.91291 0.31062 0.0
H633 H 0.50656 0.92097 0.29328 0.0
H634 H 0.54727 0.87352 0.27162 0.0
H635 H 0.5199 0.88244 0.25432 0.0
H636 H 0.48499 0.93024 0.19328 0.0
H637 H 0.44069 0.96864 0.19361 0.0
H638 H 0.42501 0.95141 0.21848 0.0
H639 H 0.4691 0.91295 0.21821 0.0
C640 C 0.14279 0.52369 0.29554 0.0
C641 C 0.166 0.52383 0.29455 0.0
C642 C 0.14868 0.48273 0.30626 0.0
C643 C 0.16888 0.50359 0.29978 0.0
C644 C 0.12534 0.48237 0.30702 0.0
C645 C 0.12247 0.50263 0.3018 0.0
U646 U 0.12725 0.56269 0.26668 0.0
O647 O 0.1077 0.58493 0.27044 0.0
O648 O 0.14741 0.60448 0.26427 0.0
C649 C 0.12808 0.60703 0.2683 0.0
C650 C 0.1405 0.54631 0.29136 0.0
C651 C 0.13445 0.62888 0.27979 0.0
C652 C 0.1527 0.65271 0.30523 0.0
C653 C 0.14598 0.63113 0.29481 0.0
C654 C 0.1361 0.66974 0.28579 0.0
C655 C 0.14799 0.6724 0.30081 0.0
C656 C 0.12943 0.64822 0.27541 0.0
C657 C 0.10436 0.53647 0.22384 0.0
C658 C 0.09519 0.56001 0.20473 0.0
C659 C 0.08793 0.51729 0.19723 0.0
C660 C 0.09649 0.51591 0.2124 0.0
C661 C 0.08708 0.53932 0.19319 0.0
C662 C 0.10374 0.55858 0.21991 0.0
C663 C 0.11292 0.53442 0.23979 0.0
O664 O 0.15704 0.56197 0.28213 0.0
O665 O 0.11723 0.54224 0.28809 0.0
O666 O 0.09714 0.53143 0.25049 0.0
O667 O 0.13694 0.55112 0.24453 0.0
H668 H 0.18218 0.53982 0.28997 0.0
H669 H 0.18703 0.5044 0.29884 0.0
H670 H 0.10949 0.46684 0.31213 0.0
H671 H 0.10446 0.50204 0.30301 0.0
H672 H 0.16155 0.65394 0.31676 0.0
H673 H 0.14996 0.61634 0.29842 0.0
H674 H 0.1325 0.68462 0.28187 0.0
H675 H 0.12062 0.64686 0.26384 0.0
H676 H 0.09508 0.57739 0.202 0.0
H677 H 0.0815 0.50085 0.18876 0.0
H678 H 0.09677 0.49864 0.21524 0.0
H679 H 0.1098 0.57469 0.22859 0.0
C680 C 0.40469 0.52138 0.28987 0.0
C681 C 0.38813 0.50055 0.27907 0.0
C682 C 0.35822 0.4808 0.29898 0.0
C683 C 0.36511 0.48045 0.28358 0.0
C684 C 0.37513 0.50167 0.30975 0.0
C685 C 0.39808 0.52171 0.30523 0.0
U686 U 0.45347 0.55691 0.26006 0.0
O687 O 0.47433 0.59827 0.25638 0.0
O688 O 0.49562 0.57908 0.26328 0.0
C689 C 0.4968 0.60107 0.26071 0.0
C690 C 0.42866 0.54315 0.28534 0.0
C691 C 0.51443 0.6241 0.27153 0.0
C692 C 0.5317 0.66964 0.27981 0.0
C693 C 0.51367 0.64707 0.27082 0.0
C694 C 0.55187 0.64694 0.29047 0.0
C695 C 0.55116 0.66996 0.28967 0.0
C696 C 0.53377 0.62431 0.28149 0.0
C697 C 0.4423 0.52764 0.21775 0.0
C698 C 0.47273 0.5476 0.19833 0.0
C699 C 0.4322 0.50858 0.1909 0.0
C700 C 0.42549 0.50833 0.20625 0.0
C701 C 0.45593 0.52819 0.18672 0.0
C702 C 0.46596 0.54734 0.2137 0.0
C703 C 0.4348 0.52688 0.23384 0.0
O704 O 0.44668 0.53796 0.28205 0.0
O705 O 0.42594 0.55785 0.27547 0.0
O706 O 0.4283 0.54397 0.23816 0.0
O707 O 0.44953 0.52453 0.24464 0.0
H708 H 0.39293 0.49992 0.26715 0.0
H709 H 0.35275 0.46459 0.27501 0.0
H710 H 0.37036 0.50288 0.32161 0.0
H711 H 0.41058 0.53768 0.31372 0.0
H712 H 0.53078 0.68707 0.27868 0.0
H713 H 0.49942 0.64779 0.26303 0.0
H714 H 0.56643 0.6464 0.29805 0.0
H715 H 0.53522 0.60711 0.28218 0.0
H716 H 0.49101 0.56316 0.19551 0.0
H717 H 0.41894 0.49313 0.18236 0.0
H718 H 0.40716 0.49295 0.20916 0.0
H719 H 0.47916 0.56249 0.22243 0.0
C720 C 0.54372 0.0249 0.06446 0.0
Eu721 Eu 0.52919 0.0213 0.03486 0.0
C722 C 0.5332 1.01251 0.07879 0.0
C723 C 0.54459 0.02617 0.09335 0.0
C724 C 0.5348 0.01514 0.10715 0.0
C725 C 0.5133 0.99017 0.10668 0.0
C726 C 0.50196 0.97646 0.092 0.0
C727 C 0.51182 0.98755 0.07817 0.0
C728 C 0.52026 0.05545 0.02042 0.0
C729 C 0.46748 0.98062 0.02772 0.0
C730 C 0.49079 0.99915 0.97159 0.0
Eu731 Eu 0.50556 1.00373 1.00125 0.0
C732 C 0.4997 1.00953 0.95643 0.0
C733 C 0.49518 0.99213 0.94353 0.0
C734 C 0.50122 1.00077 0.9287 0.0
C735 C 0.51183 0.02709 0.92634 0.0
C736 C 0.51717 0.0447 0.93939 0.0
C737 C 0.51112 0.036 0.9543 0.0
C738 C 0.51632 0.97067 0.01589 0.0
C739 C 0.56704 0.0451 1.00825 0.0
O740 O 0.5472 1.01109 0.05366 0.0
O741 O 0.53422 0.03841 0.05868 0.0
O742 O 0.53976 0.06194 0.0304 0.0
O743 O 0.50534 0.03125 0.01919 0.0
O744 O 0.48826 0.98961 0.03754 0.0
O745 O 0.46891 0.98637 0.01302 0.0
O746 O 0.48795 0.01381 0.98214 0.0
O747 O 0.50001 0.98558 0.97764 0.0
O748 O 0.49612 0.96323 1.00634 0.0
O749 O 0.5303 0.99487 0.0167 0.0
O750 O 0.5462 0.0356 0.99843 0.0
O751 O 0.56586 0.0395 0.023 0.0
H752 H 0.56113 0.04544 0.09406 0.0
H753 H 0.54427 0.0261 0.11822 0.0
H754 H 0.48524 0.95731 0.09119 0.0
H755 H 0.50273 0.9767 0.06702 0.0
H756 H 0.48644 0.97165 0.94487 0.0
H757 H 0.4973 0.98672 0.91901 0.0
H758 H 0.52521 0.06508 0.938 0.0
H759 H 0.51487 0.04989 0.96405 0.0
C760 C 1.00276 0.52459 0.05757 0.0
Eu761 Eu 1.00667 0.51742 0.02784 0.0
C762 C 0.0156 0.52607 0.07295 0.0
C763 C 1.0018 0.52122 0.08617 0.0
C764 C 1.01342 0.52256 0.10094 0.0
C765 C 0.03919 0.52881 0.10282 0.0
C766 C 0.05297 0.53354 0.08947 0.0
C767 C 0.04128 0.5322 0.07467 0.0
C768 C 0.97746 0.4734 1.00907 0.0
C769 C 0.05254 0.50433 0.02229 0.0
C770 C 0.02952 0.51167 0.96554 0.0
Eu771 Eu 0.02464 0.51778 0.99522 0.0
C772 C 0.01572 0.50782 0.95013 0.0
C773 C 0.02911 0.51232 0.93676 0.0
C774 C 0.01657 0.50872 0.92194 0.0
C775 C 0.99031 0.50063 0.92019 0.0
C776 C 0.9769 0.4961 0.93369 0.0
C777 C 0.9895 0.49964 0.94853 0.0
C778 C 0.05368 0.56161 0.01433 0.0
C779 C 0.97766 0.52886 1.00026 0.0
O780 O 0.0153 0.54339 0.04874 0.0
O781 O 0.99071 0.50197 0.04965 0.0
O782 O 0.96825 0.48289 0.01902 0.0
O783 O 1.00159 0.48669 1.01007 0.0
O784 O 0.04179 0.51286 0.03221 0.0
O785 O 0.04648 0.5014 1.00707 0.0
O786 O 0.01942 0.49264 0.97453 0.0
O787 O 0.0386 0.53425 0.97326 0.0
O788 O 0.06311 0.55206 1.0046 0.0
O789 O 0.02957 0.5484 0.01298 0.0
O790 O 0.98848 0.51992 0.99074 0.0
O791 O 0.98403 0.53299 0.01551 0.0
H792 H 0.98192 0.51632 0.08506 0.0
H793 H 1.00207 0.51832 0.11087 0.0
H794 H 0.07288 0.5386 0.09048 0.0
H795 H 0.05229 0.53605 0.06459 0.0
H796 H 0.04933 0.51851 0.93776 0.0
H797 H 0.02743 0.51196 0.91184 0.0
H798 H 0.95674 0.49011 0.93281 0.0
H799 H 0.97882 0.49598 0.95874 0.0
C800 C 0.48342 0.49397 0.96685 0.0
Eu801 Eu 0.49872 0.50653 0.99659 0.0
C802 C 0.49405 0.49228 0.95205 0.0
C803 C 0.48324 0.4951 0.93801 0.0
C804 C 0.4931 0.49392 0.92382 0.0
C805 C 0.51412 0.48994 0.92336 0.0
C806 C 0.52491 0.48706 0.93752 0.0
C807 C 0.51497 0.48822 0.95172 0.0
C808 C 0.51131 0.55168 0.01264 0.0
C809 C 0.56041 0.52692 1.00233 0.0
C810 C 0.53972 0.52559 0.05928 0.0
Eu811 Eu 0.52396 0.51398 0.02959 0.0
C812 C 0.53006 0.52587 0.07468 0.0
C813 C 0.5385 0.51715 0.08723 0.0
C814 C 0.5308 0.5182 0.10216 0.0
C815 C 0.51453 0.52816 0.10495 0.0
C816 C 0.50556 0.53635 0.09224 0.0
C817 C 0.51326 0.53523 0.07724 0.0
C818 C 0.50966 0.46825 0.01326 0.0
C819 C 0.46284 0.49526 0.02447 0.0
O820 O 0.48078 0.47724 0.97687 0.0
O821 O 0.49215 0.51716 0.97359 0.0
O822 O 0.49102 0.5387 1.00295 0.0
O823 O 0.52496 0.54116 0.01277 0.0
O824 O 0.53915 0.51466 0.99277 0.0
O825 O 0.55985 0.53239 0.0173 0.0
O826 O 0.54073 0.54241 0.04977 0.0
O827 O 0.53218 0.50295 0.05206 0.0
O828 O 0.53062 0.48093 0.02244 0.0
O829 O 0.49698 0.47967 0.01364 0.0
O830 O 0.48431 0.50661 0.03379 0.0
O831 O 0.46268 0.48989 1.00932 0.0
H832 H 0.46706 0.4982 0.938 0.0
H833 H 0.48403 0.49581 0.91317 0.0
H834 H 0.54127 0.48426 0.93766 0.0
H835 H 0.52364 0.486 0.96244 0.0
H836 H 0.55132 0.50971 0.08552 0.0
H837 H 0.53765 0.51118 0.11155 0.0
H838 H 0.49311 0.54423 0.09394 0.0
H839 H 0.50637 0.54198 0.06771 0.0
C840 C 0.20864 0.3584 0.39438 0.0
Eu841 Eu 0.19529 0.35571 0.36467 0.0
C842 C 0.1971 0.34613 0.40856 0.0
C843 C 0.20599 0.36078 0.42303 0.0
C844 C 0.19533 0.34989 0.43669 0.0
C845 C 0.17552 0.32399 0.4362 0.0
C846 C 0.16651 0.30936 0.4216 0.0
C847 C 0.1772 0.32033 0.4079 0.0
C848 C 0.18791 0.39121 0.35054 0.0
C849 C 0.13333 0.31662 0.35754 0.0
C850 C 0.15812 0.33681 0.30148 0.0
Eu851 Eu 0.17167 0.33952 0.33117 0.0
C852 C 0.16874 0.34895 0.28701 0.0
C853 C 0.1689 0.33351 0.27427 0.0
C854 C 0.17772 0.344 0.26018 0.0
C855 C 0.18647 0.37022 0.25843 0.0
C856 C 0.1865 0.38578 0.27124 0.0
C857 C 0.17778 0.37528 0.28541 0.0
C858 C 0.17868 0.30384 0.34532 0.0
C859 C 0.23373 0.3782 0.33842 0.0
O860 O 0.21177 0.34423 0.38365 0.0
O861 O 0.2005 0.37294 0.38848 0.0
O862 O 0.2075 0.39693 0.36024 0.0
O863 O 0.17239 0.36718 0.3493 0.0
O864 O 0.15409 0.32515 0.36728 0.0
O865 O 0.13481 0.3225 0.34285 0.0
O866 O 0.15436 0.3504 0.3123 0.0
O867 O 0.16695 0.32275 0.3073 0.0
O868 O 0.15926 0.2983 0.33552 0.0
O869 O 0.19437 0.32784 0.34655 0.0
O870 O 0.21302 0.37019 0.32867 0.0
O871 O 0.23206 0.37199 0.35302 0.0
H872 H 0.22116 0.38079 0.42377 0.0
H873 H 0.20241 0.36193 0.44762 0.0
H874 H 0.15142 0.28933 0.42077 0.0
H875 H 0.16995 0.30868 0.39683 0.0
H876 H 0.16184 0.31313 0.27514 0.0
H877 H 0.17708 0.33138 0.2505 0.0
H878 H 0.19333 0.4061 0.27033 0.0
H879 H 0.17794 0.38773 0.29502 0.0
C880 C 0.66489 0.85537 0.39016 0.0
Eu881 Eu 0.66996 0.84677 0.36085 0.0
C882 C 0.67573 0.85665 0.40621 0.0
C883 C 0.65888 0.84458 0.41764 0.0
C884 C 0.66818 0.84646 0.43315 0.0
C885 C 0.69463 0.8606 0.43767 0.0
C886 C 0.71159 0.87225 0.4261 0.0
C887 C 0.70223 0.87031 0.41051 0.0
C888 C 0.63717 0.80408 0.342 0.0
C889 C 0.71067 0.82601 0.35735 0.0
C890 C 0.69329 0.83453 0.29985 0.0
Eu891 Eu 0.68884 0.84308 0.32925 0.0
C892 C 0.68287 0.83615 0.28425 0.0
C893 C 0.69986 0.85043 0.27335 0.0
C894 C 0.69065 0.85178 0.25837 0.0
C895 C 0.6642 0.83869 0.25391 0.0
C896 C 0.64715 0.82446 0.26487 0.0
C897 C 0.65638 0.82327 0.27992 0.0
C898 C 0.7204 0.88657 0.34814 0.0
C899 C 0.64807 0.8636 0.332 0.0
O900 O 0.6788 0.87366 0.38132 0.0
O901 O 0.65226 0.83258 0.38244 0.0
O902 O 0.6301 0.81657 0.3513 0.0
O903 O 0.66121 0.81376 0.34363 0.0
O904 O 0.70215 0.83797 0.36653 0.0
O905 O 0.70469 0.82206 0.34212 0.0
O906 O 0.67769 0.8166 0.30833 0.0
O907 O 0.70851 0.85639 0.30811 0.0
O908 O 0.72859 0.87458 0.33927 0.0
O909 O 0.69638 0.87576 0.34613 0.0
O910 O 0.65835 0.85323 0.32313 0.0
O911 O 0.65166 0.86588 0.34745 0.0
H912 H 0.63838 0.83386 0.41459 0.0
H913 H 0.65457 0.83679 0.44163 0.0
H914 H 0.73206 0.8834 0.42916 0.0
H915 H 0.71567 0.87977 0.4019 0.0
H916 H 0.72035 0.86042 0.27639 0.0
H917 H 0.7043 0.86266 0.25016 0.0
H918 H 0.62667 0.81439 0.26185 0.0
H919 H 0.64277 0.8122 0.2881 0.0
C920 C 0.15357 0.83087 0.30538 0.0
Eu921 Eu 0.16809 0.84234 0.33526 0.0
C922 C 0.16547 0.83252 0.29043 0.0
C923 C 0.17395 0.85456 0.2821 0.0
C924 C 0.18448 0.85587 0.26782 0.0
C925 C 0.18668 0.83511 0.2614 0.0
C926 C 0.1781 0.813 0.2697 0.0
C927 C 0.16759 0.8117 0.28402 0.0
C928 C 0.18563 0.88852 0.35163 0.0
C929 C 0.22923 0.85914 0.34084 0.0
C930 C 0.20714 0.85623 0.39792 0.0
Eu931 Eu 0.19275 0.84692 0.36803 0.0
C932 C 0.19607 0.85811 0.41247 0.0
C933 C 0.16952 0.84428 0.4136 0.0
C934 C 0.15943 0.84569 0.42767 0.0
C935 C 0.17569 0.86103 0.44089 0.0
C936 C 0.20226 0.87523 0.43955 0.0
C937 C 0.21231 0.87373 0.42549 0.0
C938 C 0.17535 0.80106 0.35112 0.0
C939 C 0.13341 0.83419 0.36318 0.0
O940 O 0.15324 0.81427 0.31484 0.0
O941 O 0.15847 0.85256 0.3129 0.0
O942 O 0.16512 0.87763 0.34198 0.0
O943 O 0.19674 0.87544 0.35147 0.0
O944 O 0.20816 0.84939 0.33113 0.0
O945 O 0.22881 0.86312 0.35603 0.0
O946 O 0.21231 0.87441 0.38853 0.0
O947 O 0.19679 0.83331 0.39043 0.0
O948 O 0.19638 0.8123 0.3603 0.0
O949 O 0.16402 0.8139 0.3518 0.0
O950 O 0.15522 0.84483 0.3721 0.0
O951 O 0.13217 0.82739 0.34813 0.0
H952 H 0.17228 0.87081 0.28654 0.0
H953 H 0.19047 0.87303 0.26166 0.0
H954 H 0.1797 0.79673 0.26521 0.0
H955 H 0.16105 0.79431 0.29003 0.0
H956 H 0.15659 0.83215 0.40366 0.0
H957 H 0.13893 0.83431 0.42826 0.0
H958 H 0.21534 0.88764 0.44935 0.0
H959 H 0.23283 0.88471 0.42482 0.0
C960 C 0.87351 0.69868 0.72961 0.0
Eu961 Eu 0.86064 0.69475 0.69971 0.0
C962 C 0.86302 0.68526 0.74368 0.0
C963 C 0.86931 0.69983 0.75812 0.0
C964 C 0.85982 0.6878 0.77171 0.0
C965 C 0.84381 0.66085 0.77117 0.0
C966 C 0.83747 0.64624 0.75663 0.0
C967 C 0.84691 0.65835 0.74299 0.0
C968 C 0.85215 0.72892 0.68475 0.0
C969 C 0.79971 0.6526 0.69173 0.0
C970 C 0.82471 0.67242 0.63606 0.0
Eu971 Eu 0.83878 0.67732 0.66588 0.0
C972 C 0.83367 0.6848 0.6215 0.0
C973 C 0.85937 0.70351 0.62045 0.0
C974 C 0.8675 0.7143 0.60628 0.0
C975 C 0.85006 0.7064 0.59289 0.0
C976 C 0.82428 0.6878 0.59411 0.0
C977 C 0.8162 0.67715 0.60827 0.0
C978 C 0.84843 0.64388 0.68097 0.0
C979 C 0.90003 0.71884 0.67401 0.0
O980 O 0.87974 0.68682 0.71904 0.0
O981 O 0.86225 0.71037 0.72348 0.0
O982 O 0.87125 0.73538 0.69504 0.0
O983 O 0.83739 0.7047 0.6834 0.0
O984 O 0.8202 0.66194 0.7018 0.0
O985 O 0.80151 0.65864 0.67709 0.0
O986 O 0.81907 0.68483 0.6466 0.0
O987 O 0.83683 0.66156 0.64217 0.0
O988 O 0.82896 0.63669 0.67084 0.0
O989 O 0.86251 0.6681 0.68202 0.0
O990 O 0.87961 0.7099 0.66385 0.0
O991 O 0.89796 0.71266 0.68863 0.0
H992 H 0.88171 0.72061 0.75889 0.0
H993 H 0.86536 0.6996 0.7827 0.0
H994 H 0.82497 0.62549 0.75578 0.0
H995 H 0.84164 0.64672 0.73194 0.0
H996 H 0.87313 0.70952 0.63053 0.0
H997 H 0.88752 0.72844 0.60573 0.0
H998 H 0.81025 0.6816 0.58413 0.0
H999 H 0.79626 0.66277 0.60887 0.0
C1000 C 0.33716 0.19321 0.72855 0.0
Eu1001 Eu 0.3403 0.18305 0.69914 0.0
C1002 C 0.34869 0.19498 0.74441 0.0
C1003 C 0.33314 0.18886 0.75684 0.0
C1004 C 0.34346 0.19128 0.77215 0.0
C1005 C 0.36968 0.19998 0.7754 0.0
C1006 C 0.3852 0.20563 0.76283 0.0
C1007 C 0.37479 0.20316 0.74745 0.0
C1008 C 0.30787 0.13857 0.68165 0.0
C1009 C 0.38269 0.16493 0.69435 0.0
C1010 C 0.35904 0.16957 0.63711 0.0
Eu1011 Eu 0.35641 0.17884 0.66675 0.0
C1012 C 0.3486 0.17145 0.62159 0.0
C1013 C 0.36565 0.18571 0.6107 0.0
C1014 C 0.35653 0.18724 0.59576 0.0
C1015 C 0.33009 0.17437 0.59128 0.0
C1016 C 0.31296 0.16013 0.6022 0.0
C1017 C 0.32211 0.15875 0.61724 0.0
C1018 C 0.38746 0.22403 0.68434 0.0
C1019 C 0.31323 0.19584 0.67102 0.0
O1020 O 0.35103 0.21085 0.71935 0.0
O1021 O 0.3238 0.17017 0.72122 0.0
O1022 O 0.30057 0.15064 0.69111 0.0
O1023 O 0.33204 0.14969 0.68237 0.0
O1024 O 0.37404 0.17633 0.70386 0.0
O1025 O 0.37537 0.16013 0.67925 0.0
O1026 O 0.34335 0.15208 0.64579 0.0
O1027 O 0.37508 0.19132 0.64523 0.0
O1028 O 0.39593 0.21252 0.6753 0.0
O1029 O 0.36337 0.21178 0.68319 0.0
O1030 O 0.32315 0.1856 0.66171 0.0
O1031 O 0.31953 0.20013 0.68628 0.0
H1032 H 0.31293 0.18237 0.75472 0.0
H1033 H 0.33083 0.18622 0.78146 0.0
H1034 H 0.40548 0.21249 0.76491 0.0
H1035 H 0.38714 0.20791 0.73799 0.0
H1036 H 0.38614 0.19552 0.61373 0.0
H1037 H 0.37024 0.19812 0.58757 0.0
H1038 H 0.29248 0.15022 0.59916 0.0
H1039 H 0.30846 0.14767 0.6254 0.0
C1040 C 0.82094 0.16204 0.63639 0.0
Eu1041 Eu 0.83564 0.17256 0.66625 0.0
C1042 C 0.83115 0.15977 0.62152 0.0
C1043 C 0.82289 0.1663 0.60785 0.0
C1044 C 0.83209 0.1643 0.59357 0.0
C1045 C 0.8498 0.15568 0.59262 0.0
C1046 C 0.85815 0.14921 0.6064 0.0
C1047 C 0.84896 0.1513 0.62073 0.0
C1048 C 0.84893 0.21726 0.68342 0.0
C1049 C 0.89709 0.19212 0.67201 0.0
C1050 C 0.87447 0.18761 0.729 0.0
Eu1051 Eu 0.86007 0.17789 0.69912 0.0
C1052 C 0.8636 0.18989 0.74355 0.0
C1053 C 0.87116 0.18338 0.75748 0.0
C1054 C 0.86067 0.18473 0.77137 0.0
C1055 C 0.84232 0.19261 0.77161 0.0
C1056 C 0.83479 0.19916 0.75758 0.0
C1057 C 0.84536 0.19785 0.74368 0.0
C1058 C 0.84828 0.13393 0.68169 0.0
C1059 C 0.79915 0.16014 0.6937 0.0
O1060 O 0.81646 0.14439 0.64609 0.0
O1061 O 0.83126 0.18522 0.64348 0.0
O1062 O 0.82857 0.20515 0.6737 0.0
O1063 O 0.86186 0.20606 0.68301 0.0
O1064 O 0.87597 0.18061 0.66232 0.0
O1065 O 0.89634 0.19661 0.68712 0.0
O1066 O 0.8798 0.20558 0.7194 0.0
O1067 O 0.86376 0.1645 0.72174 0.0
O1068 O 0.86848 0.14657 0.69148 0.0
O1069 O 0.83443 0.14418 0.68215 0.0
O1070 O 0.82051 0.17116 0.70311 0.0
O1071 O 0.79927 0.15537 0.67853 0.0
H1072 H 0.80916 0.17287 0.60821 0.0
H1073 H 0.82497 0.16912 0.5832 0.0
H1074 H 0.87198 0.14279 0.60613 0.0
H1075 H 0.85576 0.14632 0.63116 0.0
H1076 H 0.88508 0.17703 0.75759 0.0
H1077 H 0.86662 0.17915 0.78187 0.0
H1078 H 0.82091 0.20554 0.75736 0.0
H1079 H 0.83927 0.20301 0.73305 0.0
H1080 H 0.35322 0.89937 0.03934 0.0
H1081 H 0.38974 0.9028 0.08458 0.0
H1082 H 0.43092 0.93578 0.0767 0.0
H1083 H 0.45698 0.96233 0.05658 0.0
H1084 H 0.42051 0.95797 1.0111 0.0
H1085 H 0.37909 0.92658 0.01945 0.0
C1086 C 0.37018 0.9072 0.04748 0.0
C1087 C 0.36824 0.89841 0.06254 0.0
C1088 C 0.39392 0.92598 0.0428 0.0
C1089 C 0.39046 0.90929 0.07298 0.0
C1090 C 0.41412 0.92806 0.06844 0.0
C1091 C 0.43999 0.95465 0.04848 0.0
C1092 C 0.44205 0.96256 0.03317 0.0
C1093 C 0.41613 0.9364 0.05332 0.0
C1094 C 0.41968 0.95231 0.02293 0.0
C1095 C 0.3959 0.93428 0.02769 0.0
H1096 H 0.13864 0.47575 0.03558 0.0
H1097 H 0.13878 0.50561 0.08227 0.0
H1098 H 0.10387 0.51278 0.07354 0.0
H1099 H 0.07431 0.51206 0.05231 0.0
H1100 H 0.07546 0.48302 1.00556 0.0
H1101 H 0.10899 0.47441 0.01464 0.0
C1102 C 0.13121 0.48402 0.04385 0.0
C1103 C 0.14151 0.49027 0.05954 0.0
C1104 C 0.11137 0.48837 0.03872 0.0
C1105 C 0.13114 0.50041 0.07014 0.0
C1106 C 0.11126 0.50468 0.06513 0.0
C1107 C 0.0818 0.50376 0.04412 0.0
C1108 C 0.07233 0.49833 0.02824 0.0
C1109 C 0.10134 0.49891 0.0494 0.0
C1110 C 0.08236 0.48755 0.01783 0.0
C1111 C 0.10159 0.48257 0.023 0.0
H1112 H 0.51827 0.65045 0.04716 0.0
H1113 H 0.5934 0.66455 0.06283 0.0
H1114 H 0.58456 0.62455 0.04825 0.0
H1115 H 0.55535 0.58537 0.03081 0.0
H1116 H 0.48063 0.57222 0.015 0.0
H1117 H 0.48956 0.61203 0.02966 0.0
C1118 C 0.53287 0.645 0.04723 0.0
C1119 C 0.55647 0.6606 0.05609 0.0
C1120 C 0.52772 0.62203 0.03877 0.0
C1121 C 0.57494 0.65283 0.05626 0.0
C1122 C 0.56995 0.62998 0.04787 0.0
C1123 C 0.54106 0.59125 0.03063 0.0
C1124 C 0.51738 0.57587 0.02182 0.0
C1125 C 0.54636 0.61436 0.03909 0.0
C1126 C 0.49905 0.58375 0.02164 0.0
C1127 C 0.50413 0.60653 0.03004 0.0
H1128 H 0.92648 0.37069 0.96407 0.0
H1129 H 0.85793 0.36552 0.98039 0.0
H1130 H 0.88373 0.40592 0.99676 0.0
H1131 H 0.92575 0.44318 1.00618 0.0
H1132 H 0.99428 0.44856 0.98981 0.0
H1133 H 0.9685 0.40796 0.97348 0.0
C1134 C 0.91714 0.37848 0.97112 0.0
C1135 C 0.89023 0.36496 0.97097 0.0
C1136 C 0.93211 0.40189 0.98042 0.0
C1137 C 0.87857 0.37522 0.98041 0.0
C1138 C 0.89332 0.39846 0.9897 0.0
C1139 C 0.93503 0.43545 0.99903 0.0
C1140 C 0.96187 0.44891 0.99913 0.0
C1141 C 0.92008 0.412 0.98977 0.0
C1142 C 0.97364 0.43867 0.98983 0.0
C1143 C 0.9589 0.4154 0.98054 0.0
H1144 H 0.67362 0.55877 0.98858 0.0
H1145 H 0.63568 0.521 0.94325 0.0
H1146 H 0.59487 0.51356 0.95194 0.0
H1147 H 0.56959 0.51607 0.97283 0.0
H1148 H 0.60779 0.55307 0.01831 0.0
H1149 H 0.64868 0.56226 1.00915 0.0
C1150 C 0.65641 0.54877 0.9806 0.0
C1151 C 0.65779 0.54034 0.9653 0.0
C1152 C 0.63296 0.54431 0.98573 0.0
C1153 C 0.63532 0.52792 0.95505 0.0
C1154 C 0.6119 0.52349 0.96005 0.0
C1155 C 0.58684 0.52625 0.98073 0.0
C1156 C 0.58543 0.53371 0.99629 0.0
C1157 C 0.61044 0.53139 0.97542 0.0
C1158 C 0.60813 0.54697 1.0063 0.0
C1159 C 0.63161 0.55225 1.00108 0.0
H1160 H 0.52449 0.15142 0.99092 0.0
H1161 H 0.44594 0.09544 0.97562 0.0
H1162 H 0.4508 0.0617 0.98758 0.0
H1163 H 0.4774 0.04837 1.00313 0.0
H1164 H 0.55564 0.10537 0.01856 0.0
H1165 H 0.55098 0.1382 1.00564 0.0
C1166 C 0.50851 0.13177 0.98999 0.0
C1167 C 0.48492 0.12601 0.98233 0.0
C1168 C 0.51138 0.11258 0.99697 0.0
C1169 C 0.46427 0.10049 0.98156 0.0
C1170 C 0.46707 0.08116 0.98835 0.0
C1171 C 0.49339 0.06795 1.00356 0.0
C1172 C 0.51678 0.07445 0.01186 0.0
C1173 C 0.49051 0.087 0.99621 0.0
C1174 C 0.53736 0.0999 0.01236 0.0
C1175 C 0.53475 0.11872 1.00495 0.0
H1176 H 0.67879 0.13165 0.99571 0.0
H1177 H 0.64207 0.11744 0.94899 0.0
H1178 H 0.60196 0.08408 0.95773 0.0
H1179 H 0.57695 0.05954 0.97865 0.0
H1180 H 0.61366 0.07293 0.0253 0.0
H1181 H 0.65417 0.10555 0.01644 0.0
C1182 C 0.66215 0.12103 0.98736 0.0
C1183 C 0.66358 0.12733 0.9717 0.0
C1184 C 0.63908 0.10163 0.99243 0.0
C1185 C 0.64156 0.11348 0.96116 0.0
C1186 C 0.61859 0.09422 0.96613 0.0
C1187 C 0.5938 0.06944 0.98691 0.0
C1188 C 0.59211 0.06372 1.00267 0.0
C1189 C 0.61706 0.08827 0.98175 0.0
C1190 C 0.61429 0.07682 0.01312 0.0
C1191 C 0.6375 0.09558 1.00806 0.0
H1192 H 0.89276 0.55718 0.98027 0.0
H1193 H 0.89965 0.52685 0.93535 0.0
H1194 H 0.93169 0.51809 0.94715 0.0
H1195 H 0.95812 0.51942 0.96995 0.0
H1196 H 0.95211 0.54979 0.01508 0.0
H1197 H 0.91957 0.55833 1.00343 0.0
C1198 C 0.90136 0.54876 0.97306 0.0
C1199 C 0.89358 0.54253 0.95693 0.0
C1200 C 0.92 0.54383 0.97994 0.0
C1201 C 0.90484 0.53142 0.94782 0.0
C1202 C 0.92334 0.52656 0.95454 0.0
C1203 C 0.94977 0.52791 0.97731 0.0
C1204 C 0.95769 0.53397 0.9934 0.0
C1205 C 0.93107 0.53269 0.97056 0.0
C1206 C 0.94645 0.5449 1.00267 0.0
C1207 C 0.92782 0.54981 0.996 0.0
H1208 H 0.45919 0.36337 0.97037 0.0
H1209 H 0.53162 0.36908 0.984 0.0
H1210 H 0.54493 0.40914 1.00006 0.0
H1211 H 0.53649 0.44331 1.00978 0.0
H1212 H 0.46414 0.43756 0.99606 0.0
H1213 H 0.45055 0.39713 0.9803 0.0
C1214 C 0.47796 0.37344 0.97677 0.0
C1215 C 0.49435 0.36313 0.97592 0.0
C1216 C 0.48561 0.39662 0.98591 0.0
C1217 C 0.51844 0.3763 0.98456 0.0
C1218 C 0.52617 0.39935 0.99367 0.0
C1219 C 0.51774 0.43315 1.00336 0.0
C1220 C 0.50143 0.44353 1.00397 0.0
C1221 C 0.50997 0.40977 0.99438 0.0
C1222 C 0.47716 0.43013 0.99563 0.0
C1223 C 0.46934 0.40695 0.98666 0.0
H1224 H 0.10336 0.66137 0.06188 0.0
H1225 H 0.17259 0.66446 0.0486 0.0
H1226 H 0.14733 0.62556 0.03087 0.0
H1227 H 0.10549 0.59005 0.01943 0.0
H1228 H 0.03631 0.58683 0.03278 0.0
H1229 H 0.06157 0.62601 0.05039 0.0
C1230 C 0.11295 0.65346 0.0552 0.0
C1231 C 0.13992 0.66595 0.05663 0.0
C1232 C 0.09828 0.6309 0.04509 0.0
C1233 C 0.15194 0.65556 0.04763 0.0
C1234 C 0.13748 0.63316 0.03755 0.0
C1235 C 0.09596 0.59796 0.02619 0.0
C1236 C 0.06905 0.58545 0.02489 0.0
C1237 C 0.11064 0.62062 0.03621 0.0
C1238 C 0.05698 0.59594 0.0337 0.0
C1239 C 0.07143 0.61841 0.04372 0.0
H1240 H 0.35288 0.46505 0.04568 0.0
H1241 H 0.39835 0.50048 0.08959 0.0
H1242 H 0.43687 0.50868 0.07744 0.0
H1243 H 0.45782 0.50616 0.05462 0.0
H1244 H 0.41348 0.47095 1.01037 0.0
H1245 H 0.37436 0.4621 0.02244 0.0
C1246 C 0.3712 0.47443 0.05259 0.0
C1247 C 0.37265 0.48236 0.06852 0.0
C1248 C 0.39349 0.47911 0.0455 0.0
C1249 C 0.39664 0.49462 0.07726 0.0
C1250 C 0.41871 0.49918 0.07035 0.0
C1251 C 0.43966 0.49648 0.04752 0.0
C1252 C 0.43871 0.48923 0.03155 0.0
C1253 C 0.41738 0.4916 0.05449 0.0
C1254 C 0.41486 0.47676 0.02267 0.0
C1255 C 0.39247 0.47171 0.02958 0.0
H1256 H 0.56135 0.90939 0.05062 0.0
H1257 H 0.48703 0.84539 0.03372 0.0
H1258 H 0.47547 0.87492 0.0222 0.0
H1259 H 0.48668 0.91881 0.01628 0.0
H1260 H 0.56079 0.98301 0.03309 0.0
H1261 H 0.57204 0.95368 0.04545 0.0
C1262 C 0.54252 0.90194 0.04458 0.0
C1263 C 0.5252 0.87511 0.04295 0.0
C1264 C 0.53594 0.9191 0.03794 0.0
C1265 C 0.50095 0.86584 0.03494 0.0
C1266 C 0.49424 0.88275 0.02839 0.0
C1267 C 0.50528 0.92637 0.02268 0.0
C1268 C 0.52288 0.95303 0.02375 0.0
C1269 C 0.51165 0.90937 0.02968 0.0
C1270 C 0.54686 0.96257 0.03213 0.0
C1271 C 0.55333 0.94579 0.03918 0.0
H1272 H 0.02107 0.23113 0.36998 0.0
H1273 H 0.05812 0.24332 0.41641 0.0
H1274 H 0.0983 0.27678 0.40781 0.0
H1275 H 0.1233 0.30174 0.38702 0.0
H1276 H 0.08644 0.2902 0.34061 0.0
H1277 H 0.04573 0.25781 0.34943 0.0
C1278 C 0.03779 0.24134 0.37831 0.0
C1279 C 0.03644 0.23444 0.39384 0.0
C1280 C 0.06093 0.26077 0.3733 0.0
C1281 C 0.05856 0.24777 0.40434 0.0
C1282 C 0.08158 0.26708 0.39945 0.0
C1283 C 0.10638 0.29231 0.37881 0.0
C1284 C 0.10808 0.29845 0.36312 0.0
C1285 C 0.08305 0.27357 0.38392 0.0
C1286 C 0.0858 0.28597 0.35274 0.0
C1287 C 0.06248 0.26734 0.35777 0.0
H1288 H 0.79019 0.7894 0.37183 0.0
H1289 H 0.80628 0.83813 0.41432 0.0
H1290 H 0.77161 0.84604 0.40612 0.0
H1291 H 0.73837 0.84122 0.38598 0.0
H1292 H 0.72372 0.79319 0.34328 0.0
H1293 H 0.75617 0.78309 0.35244 0.0
C1294 C 0.78621 0.80185 0.37929 0.0
C1295 C 0.80102 0.81335 0.39359 0.0
C1296 C 0.76649 0.80653 0.37443 0.0
C1297 C 0.79514 0.82893 0.40327 0.0
C1298 C 0.77539 0.83358 0.39855 0.0
C1299 C 0.74208 0.82831 0.37877 0.0
C1300 C 0.72868 0.81814 0.36391 0.0
C1301 C 0.76113 0.82274 0.38404 0.0
C1302 C 0.73383 0.8015 0.35471 0.0
C1303 C 0.75243 0.79568 0.35993 0.0
H1304 H 0.23913 0.99267 0.39548 0.0
H1305 H 0.17098 0.99334 0.37873 0.0
H1306 H 0.15637 0.95306 0.36264 0.0
H1307 H 0.16231 0.91698 0.35376 0.0
H1308 H 0.23017 0.91594 0.37052 0.0
H1309 H 0.24528 0.95671 0.38638 0.0
C1310 C 0.22101 0.98395 0.38839 0.0
C1311 C 0.20623 0.99616 0.38835 0.0
C1312 C 0.21256 0.96058 0.37923 0.0
C1313 C 0.18298 0.98468 0.37885 0.0
C1314 C 0.17448 0.96149 0.36972 0.0
C1315 C 0.18044 0.92571 0.36086 0.0
C1316 C 0.19503 0.91339 0.36105 0.0
C1317 C 0.18905 0.94921 0.36987 0.0
C1318 C 0.21848 0.92494 0.37029 0.0
C1319 C 0.22716 0.94829 0.37932 0.0
H1320 H 0.54365 0.70584 0.30534 0.0
H1321 H 0.60294 0.68896 0.29475 0.0
H1322 H 0.63504 0.72908 0.30965 0.0
H1323 H 0.64634 0.76927 0.32589 0.0
H1324 H 0.58644 0.78542 0.33618 0.0
H1325 H 0.55477 0.7457 0.32102 0.0
C1326 C 0.56362 0.71101 0.30615 0.0
C1327 C 0.57077 0.69431 0.2989 0.0
C1328 C 0.58199 0.73414 0.31468 0.0
C1329 C 0.59676 0.70122 0.30036 0.0
C1330 C 0.61519 0.72428 0.3088 0.0
C1331 C 0.62637 0.76409 0.32472 0.0
C1332 C 0.61876 0.78025 0.33219 0.0
C1333 C 0.60805 0.74093 0.31604 0.0
C1334 C 0.59281 0.77327 0.33062 0.0
C1335 C 0.57464 0.75053 0.32194 0.0
H1336 H 0.34148 0.88876 0.32645 0.0
H1337 H 0.3045 0.85961 0.27985 0.0
H1338 H 0.26385 0.85198 0.28902 0.0
H1339 H 0.23842 0.85199 0.31061 0.0
H1340 H 0.27604 0.88062 0.35722 0.0
H1341 H 0.31661 0.88968 0.34771 0.0
C1342 C 0.32451 0.88056 0.3183 0.0
C1343 C 0.32606 0.87458 0.30251 0.0
C1344 C 0.30121 0.876 0.32367 0.0
C1345 C 0.30394 0.86455 0.29205 0.0
C1346 C 0.28063 0.86003 0.29731 0.0
C1347 C 0.2555 0.86031 0.31868 0.0
C1348 C 0.25401 0.86548 0.33465 0.0
C1349 C 0.27898 0.86547 0.31314 0.0
C1350 C 0.27644 0.87631 0.3449 0.0
C1351 C 0.29975 0.88154 0.33947 0.0
H1352 H 0.19048 0.48831 0.3235 0.0
H1353 H 0.11487 0.43045 0.30389 0.0
H1354 H 0.12021 0.39687 0.31559 0.0
H1355 H 0.1462 0.38402 0.33201 0.0
H1356 H 0.22186 0.44236 0.35126 0.0
H1357 H 0.21675 0.47548 0.33898 0.0
C1358 C 0.17527 0.46832 0.32157 0.0
C1359 C 0.1523 0.46202 0.3128 0.0
C1360 C 0.17846 0.44912 0.32834 0.0
C1361 C 0.13265 0.43598 0.31073 0.0
C1362 C 0.13573 0.41672 0.31737 0.0
C1363 C 0.16158 0.40396 0.33341 0.0
C1364 C 0.18435 0.41071 0.34258 0.0
C1365 C 0.1585 0.42307 0.32631 0.0
C1366 C 0.20409 0.43665 0.34434 0.0
C1367 C 0.20121 0.45564 0.3373 0.0
H1368 H 0.34841 0.45803 0.32661 0.0
H1369 H 0.31149 0.45681 0.28199 0.0
H1370 H 0.27024 0.42422 0.28992 0.0
H1371 H 0.24423 0.39739 0.30987 0.0
H1372 H 0.28086 0.39929 0.35478 0.0
H1373 H 0.32245 0.43037 0.34641 0.0
C1374 C 0.33134 0.45075 0.31863 0.0
C1375 C 0.33321 0.46002 0.3037 0.0
C1376 C 0.30753 0.43214 0.32333 0.0
C1377 C 0.31083 0.44991 0.29345 0.0
C1378 C 0.28713 0.43136 0.29803 0.0
C1379 C 0.26129 0.40443 0.31783 0.0
C1380 C 0.25926 0.39594 0.33298 0.0
C1381 C 0.28521 0.42248 0.31298 0.0
C1382 C 0.28171 0.40541 0.34307 0.0
C1383 C 0.30556 0.42326 0.33829 0.0
H1384 H 0.58854 0.89691 0.28531 0.0
H1385 H 0.5395 0.87969 0.32295 0.0
H1386 H 0.56859 0.8713 0.33918 0.0
H1387 H 0.60696 0.86625 0.34205 0.0
H1388 H 0.65384 0.88129 0.30337 0.0
H1389 H 0.62655 0.89284 0.28822 0.0
C1390 C 0.58401 0.89109 0.29701 0.0
C1391 C 0.56165 0.88867 0.30278 0.0
C1392 C 0.6005 0.88583 0.30614 0.0
C1393 C 0.55661 0.88184 0.31818 0.0
C1394 C 0.57319 0.87689 0.32746 0.0
C1395 C 0.61131 0.87239 0.33039 0.0
C1396 C 0.63238 0.87285 0.32386 0.0
C1397 C 0.59509 0.87853 0.3215 0.0
C1398 C 0.63766 0.88059 0.30866 0.0
C1399 C 0.62205 0.88721 0.29996 0.0
H1400 H 0.12217 0.69842 0.30587 0.0
H1401 H 0.19241 0.69979 0.3199 0.0
H1402 H 0.2067 0.7392 0.33683 0.0
H1403 H 0.19989 0.77404 0.34719 0.0
H1404 H 0.12992 0.77301 0.33314 0.0
H1405 H 0.11512 0.73305 0.31649 0.0
C1406 C 0.14068 0.7074 0.31255 0.0
C1407 C 0.15615 0.69601 0.31157 0.0
C1408 C 0.14893 0.73027 0.3222 0.0
C1409 C 0.1799 0.7078 0.32056 0.0
C1410 C 0.1882 0.7305 0.33017 0.0
C1411 C 0.18137 0.76502 0.34051 0.0
C1412 C 0.1661 0.77657 0.3413 0.0
C1413 C 0.17294 0.74197 0.33103 0.0
C1414 C 0.14213 0.76463 0.33261 0.0
C1415 C 0.13364 0.74174 0.32313 0.0
H1416 H 0.7747 0.98982 0.39271 0.0
H1417 H 0.8419 0.98717 0.381 0.0
H1418 H 0.81505 0.94676 0.3648 0.0
H1419 H 0.77234 0.91211 0.35373 0.0
H1420 H 0.70543 0.91565 0.36488 0.0
H1421 H 0.73225 0.95572 0.38139 0.0
C1422 C 0.78355 0.9806 0.38647 0.0
C1423 C 0.81037 0.99166 0.38811 0.0
C1424 C 0.76799 0.95741 0.37708 0.0
C1425 C 0.82134 0.97904 0.38015 0.0
C1426 C 0.80599 0.95595 0.37079 0.0
C1427 C 0.76367 0.92169 0.35978 0.0
C1428 C 0.73692 0.91083 0.35815 0.0
C1429 C 0.77928 0.94493 0.36917 0.0
C1430 C 0.72595 0.92346 0.36605 0.0
C1431 C 0.74129 0.94645 0.37545 0.0
H1432 H 0.05214 0.82883 0.40802 0.0
H1433 H 0.99942 0.77083 0.37233 0.0
H1434 H 0.03502 0.77935 0.35651 0.0
H1435 H 0.08198 0.80182 0.35363 0.0
H1436 H 0.13351 0.85908 0.39025 0.0
H1437 H 0.09772 0.8521 0.4048 0.0
C1438 C 0.04838 0.81793 0.39681 0.0
C1439 C 0.02317 0.799 0.39149 0.0
C1440 C 0.06887 0.82273 0.38791 0.0
C1441 C 0.01865 0.78557 0.37672 0.0
C1442 C 0.03903 0.79035 0.3677 0.0
C1443 C 0.08528 0.81292 0.3647 0.0
C1444 C 0.11054 0.83075 0.37084 0.0
C1445 C 0.06435 0.80869 0.37326 0.0
C1446 C 0.11441 0.84496 0.38525 0.0
C1447 C 0.0939 0.84106 0.39364 0.0
H1448 H 0.17422 0.20518 0.37101 0.0
H1449 H 0.25042 0.26138 0.39062 0.0
H1450 H 0.24558 0.29599 0.37996 0.0
H1451 H 0.22013 0.31006 0.36388 0.0
H1452 H 0.14421 0.25294 0.34424 0.0
H1453 H 0.14866 0.21906 0.35588 0.0
C1454 C 0.18987 0.22497 0.37289 0.0
C1455 C 0.21274 0.23056 0.38149 0.0
C1456 C 0.18705 0.24469 0.36662 0.0
C1457 C 0.23255 0.25647 0.38411 0.0
C1458 C 0.22984 0.27628 0.37793 0.0
C1459 C 0.20457 0.29021 0.36225 0.0
C1460 C 0.18194 0.28403 0.35311 0.0
C1461 C 0.20726 0.27061 0.36901 0.0
C1462 C 0.16191 0.25823 0.35111 0.0
C1463 C 0.1644 0.23879 0.35779 0.0
H1464 H 0.68628 0.5675 0.70246 0.0
H1465 H 0.7229 0.57238 0.74795 0.0
H1466 H 0.7636 0.6065 0.74028 0.0
H1467 H 0.78927 0.6338 0.72039 0.0
H1468 H 0.75298 0.62834 0.67465 0.0
H1469 H 0.71186 0.59551 0.68268 0.0
C1470 C 0.70317 0.57592 0.71069 0.0
C1471 C 0.70138 0.56723 0.72578 0.0
C1472 C 0.72667 0.59542 0.70614 0.0
C1473 C 0.72349 0.57879 0.73634 0.0
C1474 C 0.74688 0.59823 0.73192 0.0
C1475 C 0.77238 0.62558 0.71216 0.0
C1476 C 0.77437 0.63362 0.69688 0.0
C1477 C 0.74875 0.60656 0.71682 0.0
C1478 C 0.75215 0.62262 0.68646 0.0
C1479 C 0.72857 0.60377 0.69104 0.0
H1480 H 0.46598 0.13261 0.70805 0.0
H1481 H 0.47511 0.17365 0.75269 0.0
H1482 H 0.44016 0.18094 0.74425 0.0
H1483 H 0.4083 0.1775 0.72361 0.0
H1484 H 0.40044 0.13718 0.67882 0.0
H1485 H 0.43366 0.1281 0.68787 0.0
C1486 C 0.46047 0.1433 0.71593 0.0
C1487 C 0.47337 0.15271 0.73096 0.0
C1488 C 0.44057 0.14768 0.71094 0.0
C1489 C 0.46546 0.16599 0.7411 0.0
C1490 C 0.44555 0.17033 0.73624 0.0
C1491 C 0.41372 0.16657 0.71586 0.0
C1492 C 0.40186 0.15819 0.7005 0.0
C1493 C 0.43312 0.16149 0.72111 0.0
C1494 C 0.40923 0.14405 0.69066 0.0
C1495 C 0.42828 0.13881 0.69582 0.0
H1496 H 0.89761 0.3213 0.72707 0.0
H1497 H 0.8266 0.31692 0.71119 0.0
H1498 H 0.81374 0.27687 0.69525 0.0
H1499 H 0.82231 0.24255 0.68607 0.0
H1500 H 0.89323 0.24693 0.70203 0.0
H1501 H 0.9062 0.28713 0.7179 0.0
C1502 C 0.87922 0.31151 0.72023 0.0
C1503 C 0.86313 0.32224 0.72038 0.0
C1504 C 0.87184 0.28833 0.71115 0.0
C1505 C 0.83956 0.3094 0.71118 0.0
C1506 C 0.83209 0.28635 0.70213 0.0
C1507 C 0.84061 0.25234 0.69302 0.0
C1508 C 0.85672 0.24169 0.69295 0.0
C1509 C 0.84804 0.27559 0.70204 0.0
C1510 C 0.88037 0.25459 0.70199 0.0
C1511 C 0.88785 0.27765 0.71103 0.0
H1512 H 0.21599 0.03805 0.64563 0.0
H1513 H 0.27755 0.02559 0.63357 0.0
H1514 H 0.30866 0.06629 0.64826 0.0
H1515 H 0.3185 0.1056 0.66482 0.0
H1516 H 0.25647 0.11699 0.67726 0.0
H1517 H 0.2256 0.07662 0.66231 0.0
C1518 C 0.23617 0.04403 0.64637 0.0
C1519 C 0.24431 0.02867 0.63847 0.0
C1520 C 0.25399 0.0674 0.65492 0.0
C1521 C 0.27067 0.0371 0.63935 0.0
C1522 C 0.28852 0.06036 0.64782 0.0
C1523 C 0.29823 0.09921 0.6642 0.0
C1524 C 0.28979 0.11424 0.67216 0.0
C1525 C 0.28043 0.07574 0.65564 0.0
C1526 C 0.26347 0.10573 0.67129 0.0
C1527 C 0.24576 0.08262 0.66274 0.0
H1528 H 1.01035 0.22523 0.65764 0.0
H1529 H 0.97245 0.18985 0.61191 0.0
H1530 H 0.9316 0.18165 0.62096 0.0
H1531 H 0.90627 0.18279 0.64223 0.0
H1532 H 0.94443 0.21736 0.68809 0.0
H1533 H 0.98537 0.22728 0.67863 0.0
C1534 C 0.99315 0.21559 0.64965 0.0
C1535 C 0.99455 0.20805 0.63412 0.0
C1536 C 0.96967 0.21065 0.65498 0.0
C1537 C 0.97207 0.19609 0.62388 0.0
C1538 C 0.94863 0.19122 0.62908 0.0
C1539 C 0.92354 0.19262 0.65015 0.0
C1540 C 0.92212 0.1992 0.6659 0.0
C1541 C 0.94715 0.1982 0.64466 0.0
C1542 C 0.9448 0.21195 0.67594 0.0
C1543 C 0.96829 0.21765 0.67055 0.0
H1544 H 0.85259 0.82543 0.65843 0.0
H1545 H 0.77851 0.76677 0.63719 0.0
H1546 H 0.78481 0.73327 0.64825 0.0
H1547 H 0.81087 0.72077 0.6651 0.0
H1548 H 0.88459 0.78034 0.68636 0.0
H1549 H 0.87875 0.81317 0.67437 0.0
C1550 C 0.8377 0.80534 0.65628 0.0
C1551 C 0.81501 0.79875 0.64708 0.0
C1552 C 0.84134 0.78624 0.66279 0.0
C1553 C 0.79625 0.77248 0.64414 0.0
C1554 C 0.79977 0.75329 0.65056 0.0
C1555 C 0.82565 0.74092 0.66701 0.0
C1556 C 0.84807 0.74807 0.67671 0.0
C1557 C 0.82216 0.75994 0.66005 0.0
C1558 C 0.86707 0.77428 0.67906 0.0
C1559 C 0.86379 0.79313 0.67218 0.0
H1560 H 0.01545 0.79886 0.66384 0.0
H1561 H 0.98017 0.79974 0.61911 0.0
H1562 H 0.93835 0.76738 0.62651 0.0
H1563 H 0.91151 0.73998 0.64601 0.0
H1564 H 0.94662 0.73945 0.69088 0.0
H1565 H 0.98862 0.77077 0.68317 0.0
C1566 C 0.99861 0.79212 0.65573 0.0
C1567 C 1.0011 0.80187 0.64092 0.0
C1568 C 0.9745 0.77361 0.66011 0.0
C1569 C 0.97901 0.79245 0.63049 0.0
C1570 C 0.955 0.77404 0.63476 0.0
C1571 C 0.92831 0.74648 0.65408 0.0
C1572 C 0.92573 0.73719 0.66902 0.0
C1573 C 0.95249 0.76458 0.64957 0.0
C1574 C 0.94787 0.74617 0.67932 0.0
C1575 C 0.97197 0.76414 0.67492 0.0
H1576 H 0.23165 0.22812 0.65025 0.0
H1577 H 0.23444 0.19247 0.60613 0.0
H1578 H 0.26598 0.18312 0.61809 0.0
H1579 H 0.29283 0.18505 0.64086 0.0
H1580 H 0.29063 0.22048 0.68523 0.0
H1581 H 0.25901 0.2301 0.67334 0.0
C1582 C 0.23926 0.21841 0.64326 0.0
C1583 C 0.23047 0.21085 0.62732 0.0
C1584 C 0.25755 0.2131 0.65023 0.0
C1585 C 0.24044 0.1981 0.61847 0.0
C1586 C 0.25864 0.19289 0.62527 0.0
C1587 C 0.28555 0.19495 0.64799 0.0
C1588 C 0.29423 0.20208 0.66394 0.0
C1589 C 0.26731 0.20027 0.64112 0.0
C1590 C 0.28435 0.21477 0.67293 0.0
C1591 C 0.26625 0.22028 0.66613 0.0
H1592 H 0.84193 0.03687 0.64504 0.0
H1593 H 0.76602 0.02197 0.63079 0.0
H1594 H 0.77477 0.06147 0.64595 0.0
H1595 H 0.80404 0.10035 0.6636 0.0
H1596 H 0.87955 0.11433 0.67804 0.0
H1597 H 0.87081 0.07514 0.66266 0.0
C1598 C 0.82716 0.04204 0.64539 0.0
C1599 C 0.80334 0.02633 0.63676 0.0
C1600 C 0.83226 0.06475 0.65419 0.0
C1601 C 0.78464 0.03376 0.63715 0.0
C1602 C 0.78959 0.05633 0.64589 0.0
C1603 C 0.81856 0.09481 0.66331 0.0
C1604 C 0.84239 0.11023 0.67197 0.0
C1605 C 0.81336 0.07204 0.65445 0.0
C1606 C 0.861 0.10276 0.67154 0.0
C1607 C 0.85604 0.08033 0.66273 0.0
H1608 H 0.43993 0.32731 0.7288 0.0
H1609 H 0.50807 0.32667 0.717 0.0
H1610 H 0.48195 0.28671 0.70022 0.0
H1611 H 0.43952 0.25125 0.68927 0.0
H1612 H 0.3716 0.25211 0.70125 0.0
H1613 H 0.39778 0.2923 0.71777 0.0
C1614 C 0.4491 0.31836 0.72266 0.0
C1615 C 0.47599 0.33006 0.72423 0.0
C1616 C 0.43395 0.29526 0.71311 0.0
C1617 C 0.48748 0.31834 0.7159 0.0
C1618 C 0.47253 0.29536 0.70637 0.0
C1619 C 0.4305 0.26029 0.69549 0.0
C1620 C 0.40364 0.2486 0.69413 0.0
C1621 C 0.44573 0.28357 0.70492 0.0
C1622 C 0.39221 0.26056 0.70222 0.0
C1623 C 0.40718 0.28361 0.71163 0.0
H1624 H 0.68906 0.13176 0.71388 0.0
H1625 H 0.73311 0.16303 0.75859 0.0
H1626 H 0.77175 0.17072 0.7468 0.0
H1627 H 0.79323 0.1689 0.72405 0.0
H1628 H 0.75034 0.13803 0.67901 0.0
H1629 H 0.71108 0.12957 0.69073 0.0
C1630 C 0.7071 0.14013 0.72104 0.0
C1631 C 0.70811 0.14704 0.73711 0.0
C1632 C 0.72947 0.14452 0.71415 0.0
C1633 C 0.73174 0.15799 0.74617 0.0
C1634 C 0.75388 0.16225 0.73946 0.0
C1635 C 0.77537 0.1603 0.71671 0.0
C1636 C 0.7749 0.15417 0.70061 0.0
C1637 C 0.753 0.15569 0.72348 0.0
C1638 C 0.75138 0.14297 0.69141 0.0
C1639 C 0.72889 0.13815 0.69812 0.0
H1640 H 0.88777 0.58103 0.71932 0.0
H1641 H 0.81514 0.51776 0.6992 0.0
H1642 H 0.80564 0.54788 0.68658 0.0
H1643 H 0.81821 0.59204 0.68061 0.0
H1644 H 0.89102 0.65548 0.70008 0.0
H1645 H 0.90022 0.62554 0.7135 0.0
C1646 C 0.86992 0.57381 0.71211 0.0
C1647 C 0.85219 0.54707 0.71031 0.0
C1648 C 0.8646 0.5913 0.70473 0.0
C1649 C 0.829 0.53819 0.70106 0.0
C1650 C 0.8236 0.55542 0.69372 0.0
C1651 C 0.8361 0.59931 0.68779 0.0
C1652 C 0.85392 0.62593 0.68933 0.0
C1653 C 0.84128 0.58197 0.6954 0.0
C1654 C 0.87695 0.63508 0.69875 0.0
C1655 C 0.88224 0.61795 0.70639 0.0
H1656 H 0.46922 0.92645 0.16534 0.0
H1657 H 0.4813 1.00017 0.18392 0.0
H1658 H 0.49698 0.01854 0.15938 0.0
H1659 H 0.50727 0.01382 0.13265 0.0
H1660 H 0.4959 0.94044 0.114 0.0
H1661 H 0.47976 0.92179 0.13846 0.0
C1662 C 0.47548 0.94659 0.16405 0.0
C1663 C 0.47403 0.96187 0.17648 0.0
C1664 C 0.48448 0.95708 0.14985 0.0
C1665 C 0.4819 0.98786 0.17451 0.0
C1666 C 0.49098 0.99843 0.16049 0.0
C1667 C 0.50148 0.9938 0.13396 0.0
C1668 C 0.50292 0.97862 0.12147 0.0
C1669 C 0.49235 0.98323 0.14809 0.0
C1670 C 0.49479 0.95254 0.12332 0.0
C1671 C 0.4857 0.94189 0.13736 0.0
H1672 H 0.09566 0.52245 0.16522 0.0
H1673 H 0.05592 0.55854 0.18501 0.0
H1674 H 0.03858 0.55939 0.15893 0.0
H1675 H 0.03377 0.54899 0.13055 0.0
H1676 H 0.07214 0.51146 0.11074 0.0
H1677 H 0.09097 0.51219 0.13673 0.0
C1678 C 0.08307 0.53036 0.16385 0.0
C1679 C 0.07714 0.5404 0.17714 0.0
C1680 C 0.07292 0.53057 0.14879 0.0
C1681 C 0.06114 0.55098 0.17505 0.0
C1682 C 0.05104 0.55132 0.16011 0.0
C1683 C 0.04609 0.54078 0.1319 0.0
C1684 C 0.05139 0.53008 0.11864 0.0
C1685 C 0.05666 0.54102 0.14691 0.0
C1686 C 0.06789 0.52006 0.12066 0.0
C1687 C 0.07855 0.52031 0.13555 0.0
H1688 H 0.5025 0.53954 0.17718 0.0
H1689 H 0.42546 0.51659 0.15936 0.0
H1690 H 0.43665 0.51474 0.13263 0.0
H1691 H 0.46813 0.51871 0.11423 0.0
H1692 H 0.54547 0.54301 0.13222 0.0
H1693 H 0.53431 0.54527 0.15883 0.0
C1694 C 0.48821 0.53446 0.16746 0.0
C1695 C 0.46313 0.52812 0.17036 0.0
C1696 C 0.49479 0.53352 0.15208 0.0
C1697 C 0.44482 0.52119 0.15755 0.0
C1698 C 0.45123 0.52025 0.14222 0.0
C1699 C 0.48263 0.52478 0.12395 0.0
C1700 C 0.50757 0.53043 0.12114 0.0
C1701 C 0.47613 0.52623 0.13933 0.0
C1702 C 0.52599 0.53802 0.13397 0.0
C1703 C 0.51968 0.5395 0.14924 0.0
H1704 H 0.92169 0.46881 0.85571 0.0
H1705 H 0.98846 0.537 0.84308 0.0
H1706 H 1.00917 0.54384 0.86935 0.0
H1707 H 1.00846 0.5307 0.89594 0.0
H1708 H 0.94236 0.46201 0.90867 0.0
H1709 H 0.92123 0.45533 0.88245 0.0
C1710 C 0.94086 0.48504 0.85868 0.0
C1711 C 0.95343 0.5024 0.84741 0.0
C1712 C 0.95275 0.48889 0.87388 0.0
C1713 C 0.97816 0.52352 0.85154 0.0
C1714 C 0.99009 0.5274 0.86657 0.0
C1715 C 0.98953 0.51411 0.89297 0.0
C1716 C 0.97711 0.49686 0.90431 0.0
C1717 C 0.97757 0.51024 0.87783 0.0
C1718 C 0.95231 0.47578 0.90027 0.0
C1719 C 0.94026 0.47183 0.88523 0.0
H1720 H 0.55862 0.47017 0.86222 0.0
H1721 H 0.54796 0.53242 0.84802 0.0
H1722 H 0.53193 0.53504 0.87309 0.0
H1723 H 0.521 0.51989 0.89911 0.0
H1724 H 0.53081 0.45717 0.91336 0.0
H1725 H 0.54725 0.45469 0.88835 0.0
C1726 C 0.5526 0.48417 0.86457 0.0
C1727 C 0.55461 0.50112 0.85321 0.0
C1728 C 0.54335 0.48561 0.87909 0.0
C1729 C 0.54699 0.51935 0.85658 0.0
C1730 C 0.53768 0.5208 0.87091 0.0
C1731 C 0.5265 0.5055 0.89672 0.0
C1732 C 0.52456 0.48871 0.90816 0.0
C1733 C 0.5358 0.50406 0.88226 0.0
C1734 C 0.53232 0.47055 0.90489 0.0
C1735 C 0.54158 0.46899 0.89052 0.0
H1736 H 0.512 0.04724 0.85472 0.0
H1737 H 0.58407 0.11468 0.8713 0.0
H1738 H 0.57821 0.10137 0.89792 0.0
H1739 H 0.55251 0.07036 0.91659 0.0
H1740 H 0.48031 1.00323 0.89968 0.0
H1741 H 0.48662 0.01637 0.87316 0.0
C1742 C 0.52662 0.05888 0.8641 0.0
C1743 C 0.54848 0.08192 0.86093 0.0
C1744 C 0.52313 0.05112 0.87939 0.0
C1745 C 0.56694 0.09698 0.87337 0.0
C1746 C 0.56364 0.08933 0.88861 0.0
C1747 C 0.53809 0.0587 0.90712 0.0
C1748 C 0.51605 0.0357 0.9102 0.0
C1749 C 0.54175 0.06647 0.89179 0.0
C1750 C 0.49769 0.02075 0.89769 0.0
C1751 C 0.50119 0.02833 0.88249 0.0
H1752 H 0.11188 0.27045 0.49317 0.0
H1753 H 0.18752 0.3118 0.51744 0.0
H1754 H 0.20586 0.32846 0.49311 0.0
H1755 H 0.20063 0.33145 0.46497 0.0
H1756 H 0.12509 0.29064 0.44055 0.0
H1757 H 0.10671 0.273 0.46476 0.0
C1758 C 0.1324 0.28289 0.49312 0.0
C1759 C 0.14823 0.28993 0.50721 0.0
C1760 C 0.14292 0.29239 0.47901 0.0
C1761 C 0.17478 0.30636 0.50688 0.0
C1762 C 0.18534 0.31579 0.49293 0.0
C1763 C 0.1801 0.31888 0.46493 0.0
C1764 C 0.16433 0.31254 0.45089 0.0
C1765 C 0.1696 0.30905 0.47894 0.0
C1766 C 0.13781 0.29571 0.45108 0.0
C1767 C 0.12723 0.28573 0.46498 0.0
H1768 H 0.71761 0.8707 0.51118 0.0
H1769 H 0.78064 0.86173 0.49774 0.0
H1770 H 0.76705 0.85947 0.47018 0.0
H1771 H 0.73657 0.85894 0.44977 0.0
H1772 H 0.6742 0.86897 0.4634 0.0
H1773 H 0.68828 0.87196 0.49088 0.0
C1774 C 0.7286 0.86859 0.50224 0.0
C1775 C 0.75009 0.8663 0.5066 0.0
C1776 C 0.7207 0.86734 0.48637 0.0
C1777 C 0.76381 0.86317 0.49478 0.0
C1778 C 0.75612 0.862 0.47898 0.0
C1779 C 0.72622 0.86207 0.45874 0.0
C1780 C 0.70419 0.86349 0.45443 0.0
C1781 C 0.73449 0.86389 0.47462 0.0
C1782 C 0.69092 0.8673 0.4663 0.0
C1783 C 0.69905 0.86918 0.48206 0.0
H1784 H 0.11689 0.86379 0.4993 0.0
H1785 H 0.18174 0.86517 0.52373 0.0
H1786 H 0.19922 0.86423 0.49892 0.0
H1787 H 0.19582 0.8622 0.47029 0.0
H1788 H 0.13153 0.86176 0.44572 0.0
H1789 H 0.11387 0.8625 0.47051 0.0
C1790 C 0.13477 0.86373 0.49918 0.0
C1791 C 0.14799 0.86461 0.5134 0.0
C1792 C 0.14476 0.86318 0.48483 0.0
C1793 C 0.17131 0.86485 0.51301 0.0
C1794 C 0.18127 0.86416 0.49881 0.0
C1795 C 0.17811 0.86261 0.47033 0.0
C1796 C 0.16509 0.86191 0.45607 0.0
C1797 C 0.16818 0.86334 0.48465 0.0
C1798 C 0.14186 0.86191 0.45643 0.0
C1799 C 0.13179 0.8625 0.47064 0.0
H1800 H 0.63858 0.8604 0.18594 0.0
H1801 H 0.58531 0.77844 0.18329 0.0
H1802 H 0.59921 0.77698 0.21022 0.0
H1803 H 0.62696 0.79885 0.23446 0.0
H1804 H 0.68005 0.88082 0.23714 0.0
H1805 H 0.66562 0.88242 0.21035 0.0
C1806 C 0.62981 0.84226 0.1913 0.0
C1807 C 0.61094 0.81956 0.18255 0.0
C1808 C 0.63788 0.84154 0.20682 0.0
C1809 C 0.6001 0.79615 0.18965 0.0
C1810 C 0.60793 0.79532 0.20509 0.0
C1811 C 0.63516 0.81711 0.22924 0.0
C1812 C 0.65458 0.83967 0.23781 0.0
C1813 C 0.62686 0.81787 0.21378 0.0
C1814 C 0.66528 0.86311 0.23076 0.0
C1815 C 0.65698 0.86406 0.21546 0.0
H1816 H 0.24401 0.86005 0.19941 0.0
H1817 H 0.18736 0.78023 0.18638 0.0
H1818 H 0.16987 0.77715 0.21163 0.0
H1819 H 0.17035 0.79712 0.23745 0.0
H1820 H 0.228 0.87645 0.2508 0.0
H1821 H 0.24542 0.87956 0.22551 0.0
C1822 C 0.22804 0.84185 0.20213 0.0
C1823 C 0.21705 0.82044 0.19087 0.0
C1824 C 0.21817 0.8401 0.21678 0.0
C1825 C 0.19602 0.7972 0.19462 0.0
C1826 C 0.18608 0.79534 0.20915 0.0
C1827 C 0.18691 0.81502 0.23491 0.0
C1828 C 0.19772 0.83655 0.24607 0.0
C1829 C 0.19696 0.81667 0.22032 0.0
C1830 C 0.21897 0.85967 0.24241 0.0
C1831 C 0.22907 0.86144 0.22795 0.0
H1832 H 0.2256 0.40127 0.19155 0.0
H1833 H 0.18379 0.44186 0.19586 0.0
H1834 H 0.17371 0.42789 0.222 0.0
H1835 H 0.17518 0.40272 0.24333 0.0
H1836 H 0.21634 0.36152 0.23901 0.0
H1837 H 0.22787 0.3768 0.2132 0.0
C1838 C 0.2142 0.40698 0.19818 0.0
C1839 C 0.2056 0.42272 0.19169 0.0
C1840 C 0.2082 0.39864 0.21322 0.0
C1841 C 0.19108 0.43014 0.20059 0.0
C1842 C 0.18512 0.422 0.21553 0.0
C1843 C 0.18697 0.39737 0.23684 0.0
C1844 C 0.1948 0.38092 0.24312 0.0
C1845 C 0.19347 0.40616 0.22195 0.0
C1846 C 0.20976 0.37389 0.2344 0.0
C1847 C 0.21645 0.3827 0.21965 0.0
H1848 H 0.8091 0.59667 0.83058 0.0
H1849 H 0.79388 0.65749 0.84437 0.0
H1850 H 0.80803 0.67683 0.81988 0.0
H1851 H 0.82493 0.67679 0.79458 0.0
H1852 H 0.84071 0.61646 0.78063 0.0
H1853 H 0.82602 0.59659 0.80502 0.0
C1854 C 0.80906 0.61425 0.82826 0.0
C1855 C 0.80036 0.62554 0.83933 0.0
C1856 C 0.81723 0.62533 0.81407 0.0
C1857 C 0.80015 0.64817 0.83602 0.0
C1858 C 0.80836 0.65934 0.82202 0.0
C1859 C 0.82532 0.65937 0.79691 0.0
C1860 C 0.83401 0.64821 0.78578 0.0
C1861 C 0.81694 0.64812 0.81097 0.0
C1862 C 0.8339 0.62535 0.78889 0.0
C1863 C 0.82565 0.61406 0.8029 0.0
H1864 H 0.4001 0.2158 0.84827 0.0
H1865 H 0.44728 0.18471 0.8339 0.0
H1866 H 0.43251 0.18232 0.80656 0.0
H1867 H 0.40504 0.1877 0.78673 0.0
H1868 H 0.35881 0.21991 0.80121 0.0
H1869 H 0.37446 0.2233 0.82842 0.0
C1870 C 0.40747 0.20886 0.83916 0.0
C1871 C 0.4247 0.20033 0.84321 0.0
C1872 C 0.39894 0.20758 0.82344 0.0
C1873 C 0.4337 0.19102 0.83119 0.0
C1874 C 0.42536 0.18977 0.81552 0.0
C1875 C 0.39864 0.19577 0.79581 0.0
C1876 C 0.38056 0.20329 0.79188 0.0
C1877 C 0.4078 0.19778 0.81151 0.0
C1878 C 0.37232 0.21348 0.80387 0.0
C1879 C 0.38138 0.21558 0.81946 0.0
H1880 H 0.77782 0.1866 0.82868 0.0
H1881 H 0.85226 0.21826 0.85386 0.0
H1882 H 0.87124 0.21914 0.82939 0.0
H1883 H 0.86674 0.21017 0.8009 0.0
H1884 H 0.79222 0.17733 0.77567 0.0
H1885 H 0.77335 0.1778 0.80004 0.0
C1886 C 0.79817 0.19355 0.82883 0.0
C1887 C 0.81354 0.20236 0.84315 0.0
C1888 C 0.809 0.19384 0.81468 0.0
C1889 C 0.83997 0.21168 0.84305 0.0
C1890 C 0.85085 0.21204 0.82905 0.0
C1891 C 0.84633 0.20294 0.80073 0.0
C1892 C 0.83096 0.19365 0.78643 0.0
C1893 C 0.83555 0.20305 0.81481 0.0
C1894 C 0.80461 0.18485 0.78644 0.0
C1895 C 0.79375 0.18494 0.80041 0.0
H1896 H 0.30638 0.19754 0.52335 0.0
H1897 H 0.25285 0.11559 0.5199 0.0
H1898 H 0.26587 0.11352 0.54692 0.0
H1899 H 0.29298 0.13489 0.5715 0.0
H1900 H 0.34624 0.21688 0.57488 0.0
H1901 H 0.33258 0.21904 0.54803 0.0
C1902 C 0.29733 0.17926 0.52855 0.0
C1903 C 0.27866 0.15676 0.51954 0.0
C1904 C 0.30486 0.1782 0.54412 0.0
C1905 C 0.2675 0.13317 0.52644 0.0
C1906 C 0.27482 0.13198 0.54195 0.0
C1907 C 0.30137 0.15327 0.56641 0.0
C1908 C 0.32066 0.17568 0.57519 0.0
C1909 C 0.29354 0.15436 0.5509 0.0
C1910 C 0.33158 0.19929 0.56834 0.0
C1911 C 0.32373 0.20056 0.55299 0.0
H1912 H 0.88325 0.1273 0.52935 0.0
H1913 H 0.89033 0.2 0.51859 0.0
H1914 H 0.87734 0.20512 0.54426 0.0
H1915 H 0.8638 0.18908 0.56979 0.0
H1916 H 0.85677 0.11656 0.58082 0.0
H1917 H 0.87052 0.11164 0.55527 0.0
C1918 C 0.88216 0.14437 0.53266 0.0
C1919 C 0.88756 0.16309 0.5219 0.0
C1920 C 0.87481 0.14733 0.54757 0.0
C1921 C 0.8858 0.18498 0.52643 0.0
C1922 C 0.87854 0.18804 0.54118 0.0
C1923 C 0.86512 0.1721 0.56659 0.0
C1924 C 0.85915 0.15319 0.57725 0.0
C1925 C 0.87286 0.1693 0.55182 0.0
C1926 C 0.86148 0.13157 0.57296 0.0
C1927 C 0.86919 0.12865 0.55828 0.0
H1928 H 0.89114 0.76989 0.53386 0.0
H1929 H 0.84446 0.69375 0.51014 0.0
H1930 H 0.83404 0.67528 0.53522 0.0
H1931 H 0.83669 0.6808 0.56386 0.0
H1932 H 0.88256 0.75688 0.58773 0.0
H1933 H 0.89483 0.77524 0.56268 0.0
C1934 C 0.87867 0.74926 0.53418 0.0
C1935 C 0.86861 0.73328 0.52008 0.0
C1936 C 0.87254 0.73873 0.54869 0.0
C1937 C 0.85277 0.70652 0.52076 0.0
C1938 C 0.84662 0.69593 0.53512 0.0
C1939 C 0.84928 0.70142 0.56359 0.0
C1940 C 0.85851 0.71744 0.57768 0.0
C1941 C 0.85616 0.71187 0.54914 0.0
C1942 C 0.87527 0.74406 0.5771 0.0
C1943 C 0.88219 0.7546 0.56276 0.0
loop_
_geom_bond_atom_site_label_1
_geom_bond_atom_site_label_2
_geom_bond_distance
_geom_bond_site_symmetry_2
_ccdc_geom_bond_type
C0 C1 1.264 . S
C0 C5 1.479 . S
C0 C10 1.465 . S
C1 C0 1.264 . S
C1 C3 1.339 . S
C1 H28 0.931 . S
C2 C3 1.395 . S
C2 C4 1.320 . S
C3 C1 1.339 . S
C3 C2 1.395 . S
C3 H29 0.929 . S
C4 C2 1.320 . S
C4 C5 1.405 . S
C4 H30 0.930 . S
C5 C0 1.479 . S
C5 C4 1.405 . S
C5 H31 0.931 . S
U6 O7 2.454 . S
U6 O8 2.458 . S
U6 C9 2.984 . S
U6 C10 2.847 . S
U6 C23 2.882 . S
U6 O24 2.441 . S
U6 O25 2.420 . S
U6 O26 2.455 . S
U6 O27 2.449 . S
O7 U6 2.454 . S
O7 C9 1.353 . S
O8 U6 2.458 . S
O8 C9 1.286 . S
C9 U6 2.984 . S
C9 O7 1.353 . S
C9 O8 1.286 . S
C9 C11 1.363 . S
C10 C0 1.465 . S
C10 U6 2.847 . S
C10 O24 1.249 . S
C10 O25 1.202 . S
C11 C9 1.363 . S
C11 C13 1.408 . S
C11 C16 1.342 . S
C12 C13 1.310 . S
C12 C15 1.461 . S
C12 H32 0.932 . S
C13 C11 1.408 . S
C13 C12 1.310 . S
C13 H33 0.930 . S
C14 C15 1.474 . S
C14 C16 1.285 . S
C14 H34 0.929 . S
C15 C12 1.461 . S
C15 C14 1.474 . S
C16 C11 1.342 . S
C16 C14 1.285 . S
C16 H35 0.930 . S
C17 C20 1.424 . S
C17 C22 1.245 . S
C17 C23 1.428 . S
C18 C21 1.260 . S
C18 C22 1.477 . S
C18 H36 0.932 . S
C19 C20 1.384 . S
C19 C21 1.479 . S
C19 H37 0.929 . S
C20 C17 1.424 . S
C20 C19 1.384 . S
C20 H38 0.928 . S
C21 C18 1.260 . S
C21 C19 1.479 . S
C22 C17 1.245 . S
C22 C18 1.477 . S
C22 H39 0.932 . S
C23 U6 2.882 . S
C23 C17 1.428 . S
C23 O26 1.301 . S
C23 O27 1.282 . S
O24 U6 2.441 . S
O24 C10 1.249 . S
O25 U6 2.420 . S
O25 C10 1.202 . S
O26 U6 2.455 . S
O26 C23 1.301 . S
O27 U6 2.449 . S
O27 C23 1.282 . S
H28 C1 0.931 . S
H29 C3 0.929 . S
H30 C4 0.930 . S
H31 C5 0.931 . S
H32 C12 0.932 . S
H33 C13 0.930 . S
H34 C14 0.929 . S
H35 C16 0.930 . S
H36 C18 0.932 . S
H37 C19 0.929 . S
H38 C20 0.928 . S
H39 C22 0.932 . S
C40 C41 1.264 . S
C40 C45 1.479 . S
C40 C50 1.465 . S
C41 C40 1.264 . S
C41 C43 1.339 . S
C41 H68 0.931 . S
C42 C43 1.395 . S
C42 C44 1.320 . S
C43 C41 1.339 . S
C43 C42 1.395 . S
C43 H69 0.929 . S
C44 C42 1.320 . S
C44 C45 1.405 . S
C44 H70 0.930 . S
C45 C40 1.479 . S
C45 C44 1.405 . S
C45 H71 0.931 . S
U46 O47 2.454 . S
U46 O48 2.458 . S
U46 C49 2.984 . S
U46 C50 2.847 . S
U46 C63 2.882 . S
U46 O64 2.441 . S
U46 O65 2.420 . S
U46 O66 2.455 . S
U46 O67 2.449 . S
O47 U46 2.454 . S
O47 C49 1.353 . S
O48 U46 2.458 . S
O48 C49 1.286 . S
C49 U46 2.984 . S
C49 O47 1.353 . S
C49 O48 1.286 . S
C49 C51 1.363 . S
C50 C40 1.465 . S
C50 U46 2.847 . S
C50 O64 1.249 . S
C50 O65 1.202 . S
C51 C49 1.363 . S
C51 C53 1.408 . S
C51 C56 1.342 . S
C52 C53 1.310 . S
C52 C55 1.461 . S
C52 H72 0.932 . S
C53 C51 1.408 . S
C53 C52 1.310 . S
C53 H73 0.930 . S
C54 C55 1.474 . S
C54 C56 1.285 . S
C54 H74 0.929 . S
C55 C52 1.461 . S
C55 C54 1.474 . S
C56 C51 1.342 . S
C56 C54 1.285 . S
C56 H75 0.930 . S
C57 C60 1.424 . S
C57 C62 1.245 . S
C57 C63 1.428 . S
C58 C61 1.260 . S
C58 C62 1.477 . S
C58 H76 0.932 . S
C59 C60 1.384 . S
C59 C61 1.479 . S
C59 H77 0.929 . S
C60 C57 1.424 . S
C60 C59 1.384 . S
C60 H78 0.928 . S
C61 C58 1.260 . S
C61 C59 1.479 . S
C62 C57 1.245 . S
C62 C58 1.477 . S
C62 H79 0.932 . S
C63 U46 2.882 . S
C63 C57 1.428 . S
C63 O66 1.301 . S
C63 O67 1.282 . S
O64 U46 2.441 . S
O64 C50 1.249 . S
O65 U46 2.420 . S
O65 C50 1.202 . S
O66 U46 2.455 . S
O66 C63 1.301 . S
O67 U46 2.449 . S
O67 C63 1.282 . S
H68 C41 0.931 . S
H69 C43 0.929 . S
H70 C44 0.930 . S
H71 C45 0.931 . S
H72 C52 0.932 . S
H73 C53 0.930 . S
H74 C54 0.929 . S
H75 C56 0.930 . S
H76 C58 0.932 . S
H77 C59 0.929 . S
H78 C60 0.928 . S
H79 C62 0.932 . S
C80 C81 1.264 . S
C80 C85 1.479 . S
C80 C90 1.465 . S
C81 C80 1.264 . S
C81 C83 1.339 . S
C81 H108 0.931 . S
C82 C83 1.395 . S
C82 C84 1.320 . S
C83 C81 1.339 . S
C83 C82 1.395 . S
C83 H109 0.929 . S
C84 C82 1.320 . S
C84 C85 1.405 . S
C84 H110 0.930 . S
C85 C80 1.479 . S
C85 C84 1.405 . S
C85 H111 0.931 . S
U86 O87 2.454 . S
U86 O88 2.458 . S
U86 C89 2.984 . S
U86 C90 2.847 . S
U86 C103 2.882 . S
U86 O104 2.441 . S
U86 O105 2.420 . S
U86 O106 2.455 . S
U86 O107 2.449 . S
O87 U86 2.454 . S
O87 C89 1.353 . S
O88 U86 2.458 . S
O88 C89 1.286 . S
C89 U86 2.984 . S
C89 O87 1.353 . S
C89 O88 1.286 . S
C89 C91 1.363 . S
C90 C80 1.465 . S
C90 U86 2.847 . S
C90 O104 1.249 . S
C90 O105 1.202 . S
C91 C89 1.363 . S
C91 C93 1.408 . S
C91 C96 1.342 . S
C92 C93 1.310 . S
C92 C95 1.461 . S
C92 H112 0.932 . S
C93 C91 1.408 . S
C93 C92 1.310 . S
C93 H113 0.930 . S
C94 C95 1.474 . S
C94 C96 1.285 . S
C94 H114 0.929 . S
C95 C92 1.461 . S
C95 C94 1.474 . S
C96 C91 1.342 . S
C96 C94 1.285 . S
C96 H115 0.930 . S
C97 C100 1.424 . S
C97 C102 1.245 . S
C97 C103 1.428 . S
C98 C101 1.260 . S
C98 C102 1.477 . S
C98 H116 0.932 . S
C99 C100 1.384 . S
C99 C101 1.479 . S
C99 H117 0.929 . S
C100 C97 1.424 . S
C100 C99 1.384 . S
C100 H118 0.928 . S
C101 C98 1.260 . S
C101 C99 1.479 . S
C102 C97 1.245 . S
C102 C98 1.477 . S
C102 H119 0.932 . S
C103 U86 2.882 . S
C103 C97 1.428 . S
C103 O106 1.301 . S
C103 O107 1.282 . S
O104 U86 2.441 . S
O104 C90 1.249 . S
O105 U86 2.420 . S
O105 C90 1.202 . S
O106 U86 2.455 . S
O106 C103 1.301 . S
O107 U86 2.449 . S
O107 C103 1.282 . S
H108 C81 0.931 . S
H109 C83 0.929 . S
H110 C84 0.930 . S
H111 C85 0.931 . S
H112 C92 0.932 . S
H113 C93 0.930 . S
H114 C94 0.929 . S
H115 C96 0.930 . S
H116 C98 0.932 . S
H117 C99 0.929 . S
H118 C100 0.928 . S
H119 C102 0.932 . S
C120 C121 1.264 . S
C120 C125 1.479 . S
C120 C130 1.465 . S
C121 C120 1.264 . S
C121 C123 1.339 . S
C121 H148 0.931 . S
C122 C123 1.395 . S
C122 C124 1.320 . S
C123 C121 1.339 . S
C123 C122 1.395 . S
C123 H149 0.929 . S
C124 C122 1.320 . S
C124 C125 1.405 . S
C124 H150 0.930 . S
C125 C120 1.479 . S
C125 C124 1.405 . S
C125 H151 0.931 . S
U126 O127 2.454 . S
U126 O128 2.458 . S
U126 C129 2.984 . S
U126 C130 2.847 . S
U126 C143 2.882 . S
U126 O144 2.441 . S
U126 O145 2.420 . S
U126 O146 2.455 . S
U126 O147 2.449 . S
O127 U126 2.454 . S
O127 C129 1.353 . S
O128 U126 2.458 . S
O128 C129 1.286 . S
C129 U126 2.984 . S
C129 O127 1.353 . S
C129 O128 1.286 . S
C129 C131 1.363 . S
C130 C120 1.465 . S
C130 U126 2.847 . S
C130 O144 1.249 . S
C130 O145 1.202 . S
C131 C129 1.363 . S
C131 C133 1.408 . S
C131 C136 1.342 . S
C132 C133 1.310 . S
C132 C135 1.461 . S
C132 H152 0.932 . S
C133 C131 1.408 . S
C133 C132 1.310 . S
C133 H153 0.930 . S
C134 C135 1.474 . S
C134 C136 1.285 . S
C134 H154 0.929 . S
C135 C132 1.461 . S
C135 C134 1.474 . S
C136 C131 1.342 . S
C136 C134 1.285 . S
C136 H155 0.930 . S
C137 C140 1.424 . S
C137 C142 1.245 . S
C137 C143 1.428 . S
C138 C141 1.260 . S
C138 C142 1.477 . S
C138 H156 0.932 . S
C139 C140 1.384 . S
C139 C141 1.479 . S
C139 H157 0.929 . S
C140 C137 1.424 . S
C140 C139 1.384 . S
C140 H158 0.928 . S
C141 C138 1.260 . S
C141 C139 1.479 . S
C142 C137 1.245 . S
C142 C138 1.477 . S
C142 H159 0.932 . S
C143 U126 2.882 . S
C143 C137 1.428 . S
C143 O146 1.301 . S
C143 O147 1.282 . S
O144 U126 2.441 . S
O144 C130 1.249 . S
O145 U126 2.420 . S
O145 C130 1.202 . S
O146 U126 2.455 . S
O146 C143 1.301 . S
O147 U126 2.449 . S
O147 C143 1.282 . S
H148 C121 0.931 . S
H149 C123 0.929 . S
H150 C124 0.930 . S
H151 C125 0.931 . S
H152 C132 0.932 . S
H153 C133 0.930 . S
H154 C134 0.929 . S
H155 C136 0.930 . S
H156 C138 0.932 . S
H157 C139 0.929 . S
H158 C140 0.928 . S
H159 C142 0.932 . S
C160 C161 1.264 . S
C160 C165 1.479 . S
C160 C170 1.465 . S
C161 C160 1.264 . S
C161 C163 1.339 . S
C161 H188 0.931 . S
C162 C163 1.395 . S
C162 C164 1.320 . S
C163 C161 1.339 . S
C163 C162 1.395 . S
C163 H189 0.929 . S
C164 C162 1.320 . S
C164 C165 1.405 . S
C164 H190 0.930 . S
C165 C160 1.479 . S
C165 C164 1.405 . S
C165 H191 0.931 . S
U166 O167 2.454 . S
U166 O168 2.458 . S
U166 C169 2.984 . S
U166 C170 2.847 . S
U166 C183 2.882 . S
U166 O184 2.441 . S
U166 O185 2.420 . S
U166 O186 2.455 . S
U166 O187 2.449 . S
O167 U166 2.454 . S
O167 C169 1.353 . S
O168 U166 2.458 . S
O168 C169 1.286 . S
C169 U166 2.984 . S
C169 O167 1.353 . S
C169 O168 1.286 . S
C169 C171 1.363 . S
C170 C160 1.465 . S
C170 U166 2.847 . S
C170 O184 1.249 . S
C170 O185 1.202 . S
C171 C169 1.363 . S
C171 C173 1.408 . S
C171 C176 1.342 . S
C172 C173 1.310 . S
C172 C175 1.461 . S
C172 H192 0.932 . S
C173 C171 1.408 . S
C173 C172 1.310 . S
C173 H193 0.930 . S
C174 C175 1.474 . S
C174 C176 1.285 . S
C174 H194 0.929 . S
C175 C172 1.461 . S
C175 C174 1.474 . S
C176 C171 1.342 . S
C176 C174 1.285 . S
C176 H195 0.930 . S
C177 C180 1.424 . S
C177 C182 1.245 . S
C177 C183 1.428 . S
C178 C181 1.260 . S
C178 C182 1.477 . S
C178 H196 0.932 . S
C179 C180 1.384 . S
C179 C181 1.479 . S
C179 H197 0.929 . S
C180 C177 1.424 . S
C180 C179 1.384 . S
C180 H198 0.928 . S
C181 C178 1.260 . S
C181 C179 1.479 . S
C182 C177 1.245 . S
C182 C178 1.477 . S
C182 H199 0.932 . S
C183 U166 2.882 . S
C183 C177 1.428 . S
C183 O186 1.301 . S
C183 O187 1.282 . S
O184 U166 2.441 . S
O184 C170 1.249 . S
O185 U166 2.420 . S
O185 C170 1.202 . S
O186 U166 2.455 . S
O186 C183 1.301 . S
O187 U166 2.449 . S
O187 C183 1.282 . S
H188 C161 0.931 . S
H189 C163 0.929 . S
H190 C164 0.930 . S
H191 C165 0.931 . S
H192 C172 0.932 . S
H193 C173 0.930 . S
H194 C174 0.929 . S
H195 C176 0.930 . S
H196 C178 0.932 . S
H197 C179 0.929 . S
H198 C180 0.928 . S
H199 C182 0.932 . S
C200 C201 1.264 . S
C200 C205 1.479 . S
C200 C210 1.465 . S
C201 C200 1.264 . S
C201 C203 1.339 . S
C201 H228 0.931 . S
C202 C203 1.395 . S
C202 C204 1.320 . S
C203 C201 1.339 . S
C203 C202 1.395 . S
C203 H229 0.929 . S
C204 C202 1.320 . S
C204 C205 1.405 . S
C204 H230 0.930 . S
C205 C200 1.479 . S
C205 C204 1.405 . S
C205 H231 0.931 . S
U206 O207 2.454 . S
U206 O208 2.458 . S
U206 C209 2.984 . S
U206 C210 2.847 . S
U206 C223 2.882 . S
U206 O224 2.441 . S
U206 O225 2.420 . S
U206 O226 2.455 . S
U206 O227 2.449 . S
O207 U206 2.454 . S
O207 C209 1.353 . S
O208 U206 2.458 . S
O208 C209 1.286 . S
C209 U206 2.984 . S
C209 O207 1.353 . S
C209 O208 1.286 . S
C209 C211 1.363 . S
C210 C200 1.465 . S
C210 U206 2.847 . S
C210 O224 1.249 . S
C210 O225 1.202 . S
C211 C209 1.363 . S
C211 C213 1.408 . S
C211 C216 1.342 . S
C212 C213 1.310 . S
C212 C215 1.461 . S
C212 H232 0.932 . S
C213 C211 1.408 . S
C213 C212 1.310 . S
C213 H233 0.930 . S
C214 C215 1.474 . S
C214 C216 1.285 . S
C214 H234 0.929 . S
C215 C212 1.461 . S
C215 C214 1.474 . S
C216 C211 1.342 . S
C216 C214 1.285 . S
C216 H235 0.930 . S
C217 C220 1.424 . S
C217 C222 1.245 . S
C217 C223 1.428 . S
C218 C221 1.260 . S
C218 C222 1.477 . S
C218 H236 0.932 . S
C219 C220 1.384 . S
C219 C221 1.479 . S
C219 H237 0.929 . S
C220 C217 1.424 . S
C220 C219 1.384 . S
C220 H238 0.928 . S
C221 C218 1.260 . S
C221 C219 1.479 . S
C222 C217 1.245 . S
C222 C218 1.477 . S
C222 H239 0.932 . S
C223 U206 2.882 . S
C223 C217 1.428 . S
C223 O226 1.301 . S
C223 O227 1.282 . S
O224 U206 2.441 . S
O224 C210 1.249 . S
O225 U206 2.420 . S
O225 C210 1.202 . S
O226 U206 2.455 . S
O226 C223 1.301 . S
O227 U206 2.449 . S
O227 C223 1.282 . S
H228 C201 0.931 . S
H229 C203 0.929 . S
H230 C204 0.930 . S
H231 C205 0.931 . S
H232 C212 0.932 . S
H233 C213 0.930 . S
H234 C214 0.929 . S
H235 C216 0.930 . S
H236 C218 0.932 . S
H237 C219 0.929 . S
H238 C220 0.928 . S
H239 C222 0.932 . S
C240 C241 1.264 . S
C240 C245 1.479 . S
C240 C250 1.465 . S
C241 C240 1.264 . S
C241 C243 1.339 . S
C241 H268 0.931 . S
C242 C243 1.395 . S
C242 C244 1.320 . S
C243 C241 1.339 . S
C243 C242 1.395 . S
C243 H269 0.929 . S
C244 C242 1.320 . S
C244 C245 1.405 . S
C244 H270 0.930 . S
C245 C240 1.479 . S
C245 C244 1.405 . S
C245 H271 0.931 . S
U246 O247 2.454 . S
U246 O248 2.458 . S
U246 C249 2.984 . S
U246 C250 2.847 . S
U246 C263 2.882 . S
U246 O264 2.441 . S
U246 O265 2.420 . S
U246 O266 2.455 . S
U246 O267 2.449 . S
O247 U246 2.454 . S
O247 C249 1.353 . S
O248 U246 2.458 . S
O248 C249 1.286 . S
C249 U246 2.984 . S
C249 O247 1.353 . S
C249 O248 1.286 . S
C249 C251 1.363 . S
C250 C240 1.465 . S
C250 U246 2.847 . S
C250 O264 1.249 . S
C250 O265 1.202 . S
C251 C249 1.363 . S
C251 C253 1.408 . S
C251 C256 1.342 . S
C252 C253 1.310 . S
C252 C255 1.461 . S
C252 H272 0.932 . S
C253 C251 1.408 . S
C253 C252 1.310 . S
C253 H273 0.930 . S
C254 C255 1.474 . S
C254 C256 1.285 . S
C254 H274 0.929 . S
C255 C252 1.461 . S
C255 C254 1.474 . S
C256 C251 1.342 . S
C256 C254 1.285 . S
C256 H275 0.930 . S
C257 C260 1.424 . S
C257 C262 1.245 . S
C257 C263 1.428 . S
C258 C261 1.260 . S
C258 C262 1.477 . S
C258 H276 0.932 . S
C259 C260 1.384 . S
C259 C261 1.479 . S
C259 H277 0.929 . S
C260 C257 1.424 . S
C260 C259 1.384 . S
C260 H278 0.928 . S
C261 C258 1.260 . S
C261 C259 1.479 . S
C262 C257 1.245 . S
C262 C258 1.477 . S
C262 H279 0.932 . S
C263 U246 2.882 . S
C263 C257 1.428 . S
C263 O266 1.301 . S
C263 O267 1.282 . S
O264 U246 2.441 . S
O264 C250 1.249 . S
O265 U246 2.420 . S
O265 C250 1.202 . S
O266 U246 2.455 . S
O266 C263 1.301 . S
O267 U246 2.449 . S
O267 C263 1.282 . S
H268 C241 0.931 . S
H269 C243 0.929 . S
H270 C244 0.930 . S
H271 C245 0.931 . S
H272 C252 0.932 . S
H273 C253 0.930 . S
H274 C254 0.929 . S
H275 C256 0.930 . S
H276 C258 0.932 . S
H277 C259 0.929 . S
H278 C260 0.928 . S
H279 C262 0.932 . S
C280 C281 1.264 . S
C280 C285 1.479 . S
C280 C290 1.465 . S
C281 C280 1.264 . S
C281 C283 1.339 . S
C281 H308 0.931 . S
C282 C283 1.395 . S
C282 C284 1.320 . S
C283 C281 1.339 . S
C283 C282 1.395 . S
C283 H309 0.929 . S
C284 C282 1.320 . S
C284 C285 1.405 . S
C284 H310 0.930 . S
C285 C280 1.479 . S
C285 C284 1.405 . S
C285 H311 0.931 . S
U286 O287 2.454 . S
U286 O288 2.458 . S
U286 C289 2.984 . S
U286 C290 2.847 . S
U286 C303 2.882 . S
U286 O304 2.441 . S
U286 O305 2.420 . S
U286 O306 2.455 . S
U286 O307 2.449 . S
O287 U286 2.454 . S
O287 C289 1.353 . S
O288 U286 2.458 . S
O288 C289 1.286 . S
C289 U286 2.984 . S
C289 O287 1.353 . S
C289 O288 1.286 . S
C289 C291 1.363 . S
C290 C280 1.465 . S
C290 U286 2.847 . S
C290 O304 1.249 . S
C290 O305 1.202 . S
C291 C289 1.363 . S
C291 C293 1.408 . S
C291 C296 1.342 . S
C292 C293 1.310 . S
C292 C295 1.461 . S
C292 H312 0.932 . S
C293 C291 1.408 . S
C293 C292 1.310 . S
C293 H313 0.930 . S
C294 C295 1.474 . S
C294 C296 1.285 . S
C294 H314 0.929 . S
C295 C292 1.461 . S
C295 C294 1.474 . S
C296 C291 1.342 . S
C296 C294 1.285 . S
C296 H315 0.930 . S
C297 C300 1.424 . S
C297 C302 1.245 . S
C297 C303 1.428 . S
C298 C301 1.260 . S
C298 C302 1.477 . S
C298 H316 0.932 . S
C299 C300 1.384 . S
C299 C301 1.479 . S
C299 H317 0.929 . S
C300 C297 1.424 . S
C300 C299 1.384 . S
C300 H318 0.928 . S
C301 C298 1.260 . S
C301 C299 1.479 . S
C302 C297 1.245 . S
C302 C298 1.477 . S
C302 H319 0.932 . S
C303 U286 2.882 . S
C303 C297 1.428 . S
C303 O306 1.301 . S
C303 O307 1.282 . S
O304 U286 2.441 . S
O304 C290 1.249 . S
O305 U286 2.420 . S
O305 C290 1.202 . S
O306 U286 2.455 . S
O306 C303 1.301 . S
O307 U286 2.449 . S
O307 C303 1.282 . S
H308 C281 0.931 . S
H309 C283 0.929 . S
H310 C284 0.930 . S
H311 C285 0.931 . S
H312 C292 0.932 . S
H313 C293 0.930 . S
H314 C294 0.929 . S
H315 C296 0.930 . S
H316 C298 0.932 . S
H317 C299 0.929 . S
H318 C300 0.928 . S
H319 C302 0.932 . S
C320 C321 1.264 . S
C320 C325 1.479 . S
C320 C330 1.465 . S
C321 C320 1.264 . S
C321 C323 1.339 . S
C321 H348 0.931 . S
C322 C323 1.395 . S
C322 C324 1.320 . S
C323 C321 1.339 . S
C323 C322 1.395 . S
C323 H349 0.929 . S
C324 C322 1.320 . S
C324 C325 1.405 . S
C324 H350 0.930 . S
C325 C320 1.479 . S
C325 C324 1.405 . S
C325 H351 0.931 . S
U326 O327 2.454 . S
U326 O328 2.458 . S
U326 C329 2.984 . S
U326 C330 2.847 . S
U326 C343 2.882 . S
U326 O344 2.441 . S
U326 O345 2.420 . S
U326 O346 2.455 . S
U326 O347 2.449 . S
O327 U326 2.454 . S
O327 C329 1.353 . S
O328 U326 2.458 . S
O328 C329 1.286 . S
C329 U326 2.984 . S
C329 O327 1.353 . S
C329 O328 1.286 . S
C329 C331 1.363 . S
C330 C320 1.465 . S
C330 U326 2.847 . S
C330 O344 1.249 . S
C330 O345 1.202 . S
C331 C329 1.363 . S
C331 C333 1.408 . S
C331 C336 1.342 . S
C332 C333 1.310 . S
C332 C335 1.461 . S
C332 H352 0.932 . S
C333 C331 1.408 . S
C333 C332 1.310 . S
C333 H353 0.930 . S
C334 C335 1.474 . S
C334 C336 1.285 . S
C334 H354 0.929 . S
C335 C332 1.461 . S
C335 C334 1.474 . S
C336 C331 1.342 . S
C336 C334 1.285 . S
C336 H355 0.930 . S
C337 C340 1.424 . S
C337 C342 1.245 . S
C337 C343 1.428 . S
C338 C341 1.260 . S
C338 C342 1.477 . S
C338 H356 0.932 . S
C339 C340 1.384 . S
C339 C341 1.479 . S
C339 H357 0.929 . S
C340 C337 1.424 . S
C340 C339 1.384 . S
C340 H358 0.928 . S
C341 C338 1.260 . S
C341 C339 1.479 . S
C342 C337 1.245 . S
C342 C338 1.477 . S
C342 H359 0.932 . S
C343 U326 2.882 . S
C343 C337 1.428 . S
C343 O346 1.301 . S
C343 O347 1.282 . S
O344 U326 2.441 . S
O344 C330 1.249 . S
O345 U326 2.420 . S
O345 C330 1.202 . S
O346 U326 2.455 . S
O346 C343 1.301 . S
O347 U326 2.449 . S
O347 C343 1.282 . S
H348 C321 0.931 . S
H349 C323 0.929 . S
H350 C324 0.930 . S
H351 C325 0.931 . S
H352 C332 0.932 . S
H353 C333 0.930 . S
H354 C334 0.929 . S
H355 C336 0.930 . S
H356 C338 0.932 . S
H357 C339 0.929 . S
H358 C340 0.928 . S
H359 C342 0.932 . S
C360 C361 1.264 . S
C360 C365 1.479 . S
C360 C370 1.465 . S
C361 C360 1.264 . S
C361 C363 1.339 . S
C361 H388 0.931 . S
C362 C363 1.395 . S
C362 C364 1.320 . S
C363 C361 1.339 . S
C363 C362 1.395 . S
C363 H389 0.929 . S
C364 C362 1.320 . S
C364 C365 1.405 . S
C364 H390 0.930 . S
C365 C360 1.479 . S
C365 C364 1.405 . S
C365 H391 0.931 . S
U366 O367 2.454 . S
U366 O368 2.458 . S
U366 C369 2.984 . S
U366 C370 2.847 . S
U366 C383 2.882 . S
U366 O384 2.441 . S
U366 O385 2.420 . S
U366 O386 2.455 . S
U366 O387 2.449 . S
O367 U366 2.454 . S
O367 C369 1.353 . S
O368 U366 2.458 . S
O368 C369 1.286 . S
C369 U366 2.984 . S
C369 O367 1.353 . S
C369 O368 1.286 . S
C369 C371 1.363 . S
C370 C360 1.465 . S
C370 U366 2.847 . S
C370 O384 1.249 . S
C370 O385 1.202 . S
C371 C369 1.363 . S
C371 C373 1.408 . S
C371 C376 1.342 . S
C372 C373 1.310 . S
C372 C375 1.461 . S
C372 H392 0.932 . S
C373 C371 1.408 . S
C373 C372 1.310 . S
C373 H393 0.930 . S
C374 C375 1.474 . S
C374 C376 1.285 . S
C374 H394 0.929 . S
C375 C372 1.461 . S
C375 C374 1.474 . S
C376 C371 1.342 . S
C376 C374 1.285 . S
C376 H395 0.930 . S
C377 C380 1.424 . S
C377 C382 1.245 . S
C377 C383 1.428 . S
C378 C381 1.260 . S
C378 C382 1.477 . S
C378 H396 0.932 . S
C379 C380 1.384 . S
C379 C381 1.479 . S
C379 H397 0.929 . S
C380 C377 1.424 . S
C380 C379 1.384 . S
C380 H398 0.928 . S
C381 C378 1.260 . S
C381 C379 1.479 . S
C382 C377 1.245 . S
C382 C378 1.477 . S
C382 H399 0.932 . S
C383 U366 2.882 . S
C383 C377 1.428 . S
C383 O386 1.301 . S
C383 O387 1.282 . S
O384 U366 2.441 . S
O384 C370 1.249 . S
O385 U366 2.420 . S
O385 C370 1.202 . S
O386 U366 2.455 . S
O386 C383 1.301 . S
O387 U366 2.449 . S
O387 C383 1.282 . S
H388 C361 0.931 . S
H389 C363 0.929 . S
H390 C364 0.930 . S
H391 C365 0.931 . S
H392 C372 0.932 . S
H393 C373 0.930 . S
H394 C374 0.929 . S
H395 C376 0.930 . S
H396 C378 0.932 . S
H397 C379 0.929 . S
H398 C380 0.928 . S
H399 C382 0.932 . S
C400 C401 1.264 . S
C400 C405 1.479 . S
C400 C410 1.465 . S
C401 C400 1.264 . S
C401 C403 1.339 . S
C401 H428 0.931 . S
C402 C403 1.395 . S
C402 C404 1.320 . S
C403 C401 1.339 . S
C403 C402 1.395 . S
C403 H429 0.929 . S
C404 C402 1.320 . S
C404 C405 1.405 . S
C404 H430 0.930 . S
C405 C400 1.479 . S
C405 C404 1.405 . S
C405 H431 0.931 . S
U406 O407 2.454 . S
U406 O408 2.458 . S
U406 C409 2.984 . S
U406 C410 2.847 . S
U406 C423 2.882 . S
U406 O424 2.441 . S
U406 O425 2.420 . S
U406 O426 2.455 . S
U406 O427 2.449 . S
O407 U406 2.454 . S
O407 C409 1.353 . S
O408 U406 2.458 . S
O408 C409 1.286 . S
C409 U406 2.984 . S
C409 O407 1.353 . S
C409 O408 1.286 . S
C409 C411 1.363 . S
C410 C400 1.465 . S
C410 U406 2.847 . S
C410 O424 1.249 . S
C410 O425 1.202 . S
C411 C409 1.363 . S
C411 C413 1.408 . S
C411 C416 1.342 . S
C412 C413 1.310 . S
C412 C415 1.461 . S
C412 H432 0.932 1_556 S
C413 C411 1.408 . S
C413 C412 1.310 . S
C413 H433 0.930 . S
C414 C415 1.474 . S
C414 C416 1.285 . S
C414 H434 0.929 . S
C415 C412 1.461 . S
C415 C414 1.474 . S
C416 C411 1.342 . S
C416 C414 1.285 . S
C416 H435 0.930 . S
C417 C420 1.424 . S
C417 C422 1.245 . S
C417 C423 1.428 . S
C418 C421 1.260 . S
C418 C422 1.477 . S
C418 H436 0.932 . S
C419 C420 1.384 . S
C419 C421 1.479 . S
C419 H437 0.929 . S
C420 C417 1.424 . S
C420 C419 1.384 . S
C420 H438 0.928 . S
C421 C418 1.260 . S
C421 C419 1.479 . S
C422 C417 1.245 . S
C422 C418 1.477 . S
C422 H439 0.932 . S
C423 U406 2.882 . S
C423 C417 1.428 . S
C423 O426 1.301 . S
C423 O427 1.282 . S
O424 U406 2.441 . S
O424 C410 1.249 . S
O425 U406 2.420 . S
O425 C410 1.202 . S
O426 U406 2.455 . S
O426 C423 1.301 . S
O427 U406 2.449 . S
O427 C423 1.282 . S
H428 C401 0.931 . S
H429 C403 0.929 . S
H430 C404 0.930 . S
H431 C405 0.931 . S
H432 C412 0.932 1_554 S
H433 C413 0.930 . S
H434 C414 0.929 . S
H435 C416 0.930 . S
H436 C418 0.932 . S
H437 C419 0.929 . S
H438 C420 0.928 . S
H439 C422 0.932 . S
C440 C441 1.264 . S
C440 C445 1.479 . S
C440 C450 1.465 . S
C441 C440 1.264 . S
C441 C443 1.339 . S
C441 H468 0.931 . S
C442 C443 1.395 . S
C442 C444 1.320 . S
C443 C441 1.339 . S
C443 C442 1.395 . S
C443 H469 0.929 . S
C444 C442 1.320 . S
C444 C445 1.405 . S
C444 H470 0.930 . S
C445 C440 1.479 . S
C445 C444 1.405 . S
C445 H471 0.931 . S
U446 O447 2.454 . S
U446 O448 2.458 . S
U446 C449 2.984 . S
U446 C450 2.847 . S
U446 C463 2.882 . S
U446 O464 2.441 . S
U446 O465 2.420 . S
U446 O466 2.455 . S
U446 O467 2.449 . S
O447 U446 2.454 . S
O447 C449 1.353 . S
O448 U446 2.458 . S
O448 C449 1.286 . S
C449 U446 2.984 . S
C449 O447 1.353 . S
C449 O448 1.286 . S
C449 C451 1.363 . S
C450 C440 1.465 . S
C450 U446 2.847 . S
C450 O464 1.249 . S
C450 O465 1.202 . S
C451 C449 1.363 . S
C451 C453 1.408 . S
C451 C456 1.342 . S
C452 C453 1.310 . S
C452 C455 1.461 . S
C452 H472 0.932 . S
C453 C451 1.408 . S
C453 C452 1.310 . S
C453 H473 0.930 . S
C454 C455 1.474 . S
C454 C456 1.285 . S
C454 H474 0.929 . S
C455 C452 1.461 . S
C455 C454 1.474 . S
C456 C451 1.342 . S
C456 C454 1.285 . S
C456 H475 0.930 . S
C457 C460 1.424 . S
C457 C462 1.245 . S
C457 C463 1.428 . S
C458 C461 1.260 . S
C458 C462 1.477 . S
C458 H476 0.932 . S
C459 C460 1.384 . S
C459 C461 1.479 . S
C459 H477 0.929 . S
C460 C457 1.424 . S
C460 C459 1.384 . S
C460 H478 0.928 . S
C461 C458 1.260 . S
C461 C459 1.479 . S
C462 C457 1.245 . S
C462 C458 1.477 . S
C462 H479 0.932 . S
C463 U446 2.882 . S
C463 C457 1.428 . S
C463 O466 1.301 . S
C463 O467 1.282 . S
O464 U446 2.441 . S
O464 C450 1.249 . S
O465 U446 2.420 . S
O465 C450 1.202 . S
O466 U446 2.455 . S
O466 C463 1.301 . S
O467 U446 2.449 . S
O467 C463 1.282 . S
H468 C441 0.931 . S
H469 C443 0.929 . S
H470 C444 0.930 . S
H471 C445 0.931 . S
H472 C452 0.932 . S
H473 C453 0.930 . S
H474 C454 0.929 . S
H475 C456 0.930 . S
H476 C458 0.932 . S
H477 C459 0.929 . S
H478 C460 0.928 . S
H479 C462 0.932 . S
C480 C481 1.264 . S
C480 C485 1.479 . S
C480 C490 1.465 . S
C481 C480 1.264 . S
C481 C483 1.339 . S
C481 H508 0.931 . S
C482 C483 1.395 . S
C482 C484 1.320 . S
C483 C481 1.339 . S
C483 C482 1.395 . S
C483 H509 0.929 . S
C484 C482 1.320 . S
C484 C485 1.405 . S
C484 H510 0.930 . S
C485 C480 1.479 . S
C485 C484 1.405 . S
C485 H511 0.931 . S
U486 O487 2.454 . S
U486 O488 2.458 . S
U486 C489 2.984 . S
U486 C490 2.847 . S
U486 C503 2.882 . S
U486 O504 2.441 . S
U486 O505 2.420 . S
U486 O506 2.455 . S
U486 O507 2.449 . S
O487 U486 2.454 . S
O487 C489 1.353 . S
O488 U486 2.458 . S
O488 C489 1.286 . S
C489 U486 2.984 . S
C489 O487 1.353 . S
C489 O488 1.286 . S
C489 C491 1.363 . S
C490 C480 1.465 . S
C490 U486 2.847 . S
C490 O504 1.249 . S
C490 O505 1.202 . S
C491 C489 1.363 . S
C491 C493 1.408 . S
C491 C496 1.342 . S
C492 C493 1.310 . S
C492 C495 1.461 . S
C492 H512 0.932 . S
C493 C491 1.408 . S
C493 C492 1.310 . S
C493 H513 0.930 . S
C494 C495 1.474 . S
C494 C496 1.285 . S
C494 H514 0.929 . S
C495 C492 1.461 . S
C495 C494 1.474 . S
C496 C491 1.342 . S
C496 C494 1.285 . S
C496 H515 0.930 . S
C497 C500 1.424 . S
C497 C502 1.245 . S
C497 C503 1.428 . S
C498 C501 1.260 . S
C498 C502 1.477 . S
C498 H516 0.932 . S
C499 C500 1.384 . S
C499 C501 1.479 . S
C499 H517 0.929 . S
C500 C497 1.424 . S
C500 C499 1.384 . S
C500 H518 0.928 . S
C501 C498 1.260 . S
C501 C499 1.479 . S
C502 C497 1.245 . S
C502 C498 1.477 . S
C502 H519 0.932 . S
C503 U486 2.882 . S
C503 C497 1.428 . S
C503 O506 1.301 . S
C503 O507 1.282 . S
O504 U486 2.441 . S
O504 C490 1.249 . S
O505 U486 2.420 . S
O505 C490 1.202 . S
O506 U486 2.455 . S
O506 C503 1.301 . S
O507 U486 2.449 . S
O507 C503 1.282 . S
H508 C481 0.931 . S
H509 C483 0.929 . S
H510 C484 0.930 . S
H511 C485 0.931 . S
H512 C492 0.932 . S
H513 C493 0.930 . S
H514 C494 0.929 . S
H515 C496 0.930 . S
H516 C498 0.932 . S
H517 C499 0.929 . S
H518 C500 0.928 . S
H519 C502 0.932 . S
C520 C521 1.264 . S
C520 C525 1.479 . S
C520 C530 1.465 . S
C521 C520 1.264 . S
C521 C523 1.339 . S
C521 H548 0.931 . S
C522 C523 1.395 . S
C522 C524 1.320 . S
C523 C521 1.339 . S
C523 C522 1.395 . S
C523 H549 0.929 . S
C524 C522 1.320 . S
C524 C525 1.405 . S
C524 H550 0.930 . S
C525 C520 1.479 . S
C525 C524 1.405 . S
C525 H551 0.931 . S
U526 O527 2.454 . S
U526 O528 2.458 . S
U526 C529 2.984 . S
U526 C530 2.847 . S
U526 C543 2.882 . S
U526 O544 2.441 . S
U526 O545 2.420 . S
U526 O546 2.455 . S
U526 O547 2.449 . S
O527 U526 2.454 . S
O527 C529 1.353 . S
O528 U526 2.458 . S
O528 C529 1.286 . S
C529 U526 2.984 . S
C529 O527 1.353 . S
C529 O528 1.286 . S
C529 C531 1.363 . S
C530 C520 1.465 . S
C530 U526 2.847 . S
C530 O544 1.249 . S
C530 O545 1.202 . S
C531 C529 1.363 . S
C531 C533 1.408 . S
C531 C536 1.342 . S
C532 C533 1.310 . S
C532 C535 1.461 . S
C532 H552 0.932 . S
C533 C531 1.408 . S
C533 C532 1.310 . S
C533 H553 0.930 . S
C534 C535 1.474 . S
C534 C536 1.285 . S
C534 H554 0.929 . S
C535 C532 1.461 . S
C535 C534 1.474 . S
C536 C531 1.342 . S
C536 C534 1.285 . S
C536 H555 0.930 . S
C537 C540 1.424 . S
C537 C542 1.245 . S
C537 C543 1.428 . S
C538 C541 1.260 . S
C538 C542 1.477 . S
C538 H556 0.932 . S
C539 C540 1.384 . S
C539 C541 1.479 . S
C539 H557 0.929 . S
C540 C537 1.424 . S
C540 C539 1.384 . S
C540 H558 0.928 . S
C541 C538 1.260 . S
C541 C539 1.479 . S
C542 C537 1.245 . S
C542 C538 1.477 . S
C542 H559 0.932 . S
C543 U526 2.882 . S
C543 C537 1.428 . S
C543 O546 1.301 . S
C543 O547 1.282 . S
O544 U526 2.441 . S
O544 C530 1.249 . S
O545 U526 2.420 . S
O545 C530 1.202 . S
O546 U526 2.455 . S
O546 C543 1.301 . S
O547 U526 2.449 . S
O547 C543 1.282 . S
H548 C521 0.931 . S
H549 C523 0.929 . S
H550 C524 0.930 . S
H551 C525 0.931 . S
H552 C532 0.932 . S
H553 C533 0.930 . S
H554 C534 0.929 . S
H555 C536 0.930 . S
H556 C538 0.932 . S
H557 C539 0.929 . S
H558 C540 0.928 . S
H559 C542 0.932 . S
C560 C561 1.264 . S
C560 C565 1.479 . S
C560 C570 1.465 . S
C561 C560 1.264 . S
C561 C563 1.339 . S
C561 H588 0.931 . S
C562 C563 1.395 . S
C562 C564 1.320 . S
C563 C561 1.339 . S
C563 C562 1.395 . S
C563 H589 0.929 . S
C564 C562 1.320 . S
C564 C565 1.405 . S
C564 H590 0.930 . S
C565 C560 1.479 . S
C565 C564 1.405 . S
C565 H591 0.931 . S
U566 O567 2.454 . S
U566 O568 2.458 . S
U566 C569 2.984 . S
U566 C570 2.847 . S
U566 C583 2.882 . S
U566 O584 2.441 . S
U566 O585 2.420 . S
U566 O586 2.455 . S
U566 O587 2.449 . S
O567 U566 2.454 . S
O567 C569 1.353 . S
O568 U566 2.458 . S
O568 C569 1.286 . S
C569 U566 2.984 . S
C569 O567 1.353 . S
C569 O568 1.286 . S
C569 C571 1.363 . S
C570 C560 1.465 . S
C570 U566 2.847 . S
C570 O584 1.249 . S
C570 O585 1.202 . S
C571 C569 1.363 . S
C571 C573 1.408 . S
C571 C576 1.342 . S
C572 C573 1.310 . S
C572 C575 1.461 . S
C572 H592 0.932 . S
C573 C571 1.408 . S
C573 C572 1.310 . S
C573 H593 0.930 . S
C574 C575 1.474 . S
C574 C576 1.285 . S
C574 H594 0.929 . S
C575 C572 1.461 . S
C575 C574 1.474 . S
C576 C571 1.342 . S
C576 C574 1.285 . S
C576 H595 0.930 . S
C577 C580 1.424 . S
C577 C582 1.245 . S
C577 C583 1.428 . S
C578 C581 1.260 . S
C578 C582 1.477 . S
C578 H596 0.932 . S
C579 C580 1.384 . S
C579 C581 1.479 . S
C579 H597 0.929 . S
C580 C577 1.424 . S
C580 C579 1.384 . S
C580 H598 0.928 . S
C581 C578 1.260 . S
C581 C579 1.479 . S
C582 C577 1.245 . S
C582 C578 1.477 . S
C582 H599 0.932 . S
C583 U566 2.882 . S
C583 C577 1.428 . S
C583 O586 1.301 . S
C583 O587 1.282 . S
O584 U566 2.441 . S
O584 C570 1.249 . S
O585 U566 2.420 . S
O585 C570 1.202 . S
O586 U566 2.455 . S
O586 C583 1.301 . S
O587 U566 2.449 . S
O587 C583 1.282 . S
H588 C561 0.931 . S
H589 C563 0.929 . S
H590 C564 0.930 . S
H591 C565 0.931 . S
H592 C572 0.932 . S
H593 C573 0.930 . S
H594 C574 0.929 . S
H595 C576 0.930 . S
H596 C578 0.932 . S
H597 C579 0.929 . S
H598 C580 0.928 . S
H599 C582 0.932 . S
C600 C601 1.264 . S
C600 C605 1.479 . S
C600 C610 1.465 . S
C601 C600 1.264 . S
C601 C603 1.339 . S
C601 H628 0.931 . S
C602 C603 1.395 . S
C602 C604 1.320 . S
C603 C601 1.339 . S
C603 C602 1.395 . S
C603 H629 0.929 . S
C604 C602 1.320 . S
C604 C605 1.405 . S
C604 H630 0.930 . S
C605 C600 1.479 . S
C605 C604 1.405 . S
C605 H631 0.931 . S
U606 O607 2.454 . S
U606 O608 2.458 . S
U606 C609 2.984 . S
U606 C610 2.847 . S
U606 C623 2.882 . S
U606 O624 2.441 . S
U606 O625 2.420 . S
U606 O626 2.455 . S
U606 O627 2.449 . S
O607 U606 2.454 . S
O607 C609 1.353 . S
O608 U606 2.458 . S
O608 C609 1.286 . S
C609 U606 2.984 . S
C609 O607 1.353 . S
C609 O608 1.286 . S
C609 C611 1.363 . S
C610 C600 1.465 . S
C610 U606 2.847 . S
C610 O624 1.249 . S
C610 O625 1.202 . S
C611 C609 1.363 . S
C611 C613 1.408 . S
C611 C616 1.342 . S
C612 C613 1.310 . S
C612 C615 1.461 . S
C612 H632 0.932 . S
C613 C611 1.408 . S
C613 C612 1.310 . S
C613 H633 0.930 . S
C614 C615 1.474 . S
C614 C616 1.285 . S
C614 H634 0.929 . S
C615 C612 1.461 . S
C615 C614 1.474 . S
C616 C611 1.342 . S
C616 C614 1.285 . S
C616 H635 0.930 . S
C617 C620 1.424 . S
C617 C622 1.245 . S
C617 C623 1.428 . S
C618 C621 1.260 . S
C618 C622 1.477 . S
C618 H636 0.932 . S
C619 C620 1.384 . S
C619 C621 1.479 . S
C619 H637 0.929 . S
C620 C617 1.424 . S
C620 C619 1.384 . S
C620 H638 0.928 . S
C621 C618 1.260 . S
C621 C619 1.479 . S
C622 C617 1.245 . S
C622 C618 1.477 . S
C622 H639 0.932 . S
C623 U606 2.882 . S
C623 C617 1.428 . S
C623 O626 1.301 . S
C623 O627 1.282 . S
O624 U606 2.441 . S
O624 C610 1.249 . S
O625 U606 2.420 . S
O625 C610 1.202 . S
O626 U606 2.455 . S
O626 C623 1.301 . S
O627 U606 2.449 . S
O627 C623 1.282 . S
H628 C601 0.931 . S
H629 C603 0.929 . S
H630 C604 0.930 . S
H631 C605 0.931 . S
H632 C612 0.932 . S
H633 C613 0.930 . S
H634 C614 0.929 . S
H635 C616 0.930 . S
H636 C618 0.932 . S
H637 C619 0.929 . S
H638 C620 0.928 . S
H639 C622 0.932 . S
C640 C641 1.264 . S
C640 C645 1.479 . S
C640 C650 1.465 . S
C641 C640 1.264 . S
C641 C643 1.339 . S
C641 H668 0.931 . S
C642 C643 1.395 . S
C642 C644 1.320 . S
C643 C641 1.339 . S
C643 C642 1.395 . S
C643 H669 0.929 . S
C644 C642 1.320 . S
C644 C645 1.405 . S
C644 H670 0.930 . S
C645 C640 1.479 . S
C645 C644 1.405 . S
C645 H671 0.931 . S
U646 O647 2.454 . S
U646 O648 2.458 . S
U646 C649 2.984 . S
U646 C650 2.847 . S
U646 C663 2.882 . S
U646 O664 2.441 . S
U646 O665 2.420 . S
U646 O666 2.455 . S
U646 O667 2.449 . S
O647 U646 2.454 . S
O647 C649 1.353 . S
O648 U646 2.458 . S
O648 C649 1.286 . S
C649 U646 2.984 . S
C649 O647 1.353 . S
C649 O648 1.286 . S
C649 C651 1.363 . S
C650 C640 1.465 . S
C650 U646 2.847 . S
C650 O664 1.249 . S
C650 O665 1.202 . S
C651 C649 1.363 . S
C651 C653 1.408 . S
C651 C656 1.342 . S
C652 C653 1.310 . S
C652 C655 1.461 . S
C652 H672 0.932 . S
C653 C651 1.408 . S
C653 C652 1.310 . S
C653 H673 0.930 . S
C654 C655 1.474 . S
C654 C656 1.285 . S
C654 H674 0.929 . S
C655 C652 1.461 . S
C655 C654 1.474 . S
C656 C651 1.342 . S
C656 C654 1.285 . S
C656 H675 0.930 . S
C657 C660 1.424 . S
C657 C662 1.245 . S
C657 C663 1.428 . S
C658 C661 1.285 . S
C658 C662 1.480 . S
C658 H676 0.902 1_455 S
C659 C660 1.384 . S
C659 C661 1.479 . S
C659 H677 0.948 1_455 S
C660 C657 1.424 . S
C660 C659 1.384 . S
C660 H678 0.928 . S
C661 C658 1.285 . S
C661 C659 1.479 . S
C662 C657 1.245 . S
C662 C658 1.480 . S
C662 H679 0.932 . S
C663 U646 2.882 . S
C663 C657 1.428 . S
C663 O666 1.301 . S
C663 O667 1.282 . S
O664 U646 2.441 . S
O664 C650 1.249 . S
O665 U646 2.420 . S
O665 C650 1.202 . S
O666 U646 2.455 . S
O666 C663 1.301 . S
O667 U646 2.449 . S
O667 C663 1.282 . S
H668 C641 0.931 . S
H669 C643 0.929 . S
H670 C644 0.930 . S
H671 C645 0.931 . S
H672 C652 0.932 . S
H673 C653 0.930 . S
H674 C654 0.929 . S
H675 C656 0.930 . S
H676 C658 0.902 1_655 S
H677 C659 0.948 1_655 S
H678 C660 0.928 . S
H679 C662 0.932 . S
C680 C681 1.264 . S
C680 C685 1.479 . S
C680 C690 1.465 . S
C681 C680 1.264 . S
C681 C683 1.339 . S
C681 H708 0.931 . S
C682 C683 1.395 . S
C682 C684 1.320 . S
C683 C681 1.339 . S
C683 C682 1.395 . S
C683 H709 0.929 . S
C684 C682 1.320 . S
C684 C685 1.405 . S
C684 H710 0.930 . S
C685 C680 1.479 . S
C685 C684 1.405 . S
C685 H711 0.931 . S
U686 O687 2.454 . S
U686 O688 2.458 . S
U686 C689 2.984 . S
U686 C690 2.847 . S
U686 C703 2.882 . S
U686 O704 2.441 . S
U686 O705 2.420 . S
U686 O706 2.455 . S
U686 O707 2.449 . S
O687 U686 2.454 . S
O687 C689 1.353 . S
O688 U686 2.458 . S
O688 C689 1.286 . S
C689 U686 2.984 . S
C689 O687 1.353 . S
C689 O688 1.286 . S
C689 C691 1.363 . S
C690 C680 1.465 . S
C690 U686 2.847 . S
C690 O704 1.249 . S
C690 O705 1.202 . S
C691 C689 1.363 . S
C691 C693 1.408 . S
C691 C696 1.342 . S
C692 C693 1.310 . S
C692 C695 1.461 . S
C692 H712 0.932 . S
C693 C691 1.408 . S
C693 C692 1.310 . S
C693 H713 0.930 . S
C694 C695 1.474 . S
C694 C696 1.285 . S
C694 H714 0.929 . S
C695 C692 1.461 . S
C695 C694 1.474 . S
C696 C691 1.342 . S
C696 C694 1.285 . S
C696 H715 0.930 . S
C697 C700 1.424 . S
C697 C702 1.245 . S
C697 C703 1.428 . S
C698 C701 1.260 . S
C698 C702 1.477 . S
C698 H716 0.932 . S
C699 C700 1.384 . S
C699 C701 1.479 . S
C699 H717 0.929 . S
C700 C697 1.424 . S
C700 C699 1.384 . S
C700 H718 0.928 . S
C701 C698 1.260 . S
C701 C699 1.479 . S
C702 C697 1.245 . S
C702 C698 1.477 . S
C702 H719 0.932 . S
C703 U686 2.882 . S
C703 C697 1.428 . S
C703 O706 1.301 . S
C703 O707 1.282 . S
O704 U686 2.441 . S
O704 C690 1.249 . S
O705 U686 2.420 . S
O705 C690 1.202 . S
O706 U686 2.455 . S
O706 C703 1.301 . S
O707 U686 2.449 . S
O707 C703 1.282 . S
H708 C681 0.931 . S
H709 C683 0.929 . S
H710 C684 0.930 . S
H711 C685 0.931 . S
H712 C692 0.932 . S
H713 C693 0.930 . S
H714 C694 0.929 . S
H715 C696 0.930 . S
H716 C698 0.932 . S
H717 C699 0.929 . S
H718 C700 0.928 . S
H719 C702 0.932 . S
C720 Eu721 2.835 . S
C720 C722 1.500 . S
C720 O740 1.257 1_545 S
C720 O741 1.260 . S
Eu721 C720 2.835 . S
Eu721 O740 2.473 1_545 S
Eu721 O741 2.480 . S
Eu721 O742 2.430 . S
Eu721 O743 2.670 1_554 S
Eu721 O744 2.394 1_545 S
Eu721 O749 2.355 1_545 S
Eu721 O751 2.374 . S
C722 C720 1.500 . S
C722 C723 1.377 . S
C722 C727 1.377 1_545 S
C723 C722 1.377 . S
C723 C724 1.395 . S
C723 H752 0.931 . S
C724 C723 1.395 . S
C724 C725 1.383 1_545 S
C724 H753 0.931 . S
C725 C724 1.383 1_565 S
C725 C726 1.394 . S
C726 C725 1.394 . S
C726 C727 1.378 . S
C726 H754 0.931 . S
C727 C722 1.377 1_565 S
C727 C726 1.378 . S
C727 H755 0.931 . S
C728 O742 1.297 . S
C728 O743 1.256 1_554 S
C729 O744 1.251 . S
C729 O745 1.251 1_554 S
C730 Eu731 2.835 . S
C730 C732 1.504 . S
C730 O746 1.257 1_565 S
C730 O747 1.260 . S
Eu731 C730 2.835 . S
Eu731 O743 2.355 1_565 S
Eu731 O745 2.374 . S
Eu731 O746 2.473 1_565 S
Eu731 O747 2.480 . S
Eu731 O748 2.430 . S
Eu731 O749 2.670 1_556 S
Eu731 O750 2.394 1_565 S
C732 C730 1.504 . S
C732 C733 1.400 . S
C732 C737 1.351 1_565 S
C733 C732 1.400 . S
C733 C734 1.395 . S
C733 H756 0.931 . S
C734 C733 1.395 . S
C734 C735 1.383 1_565 S
C734 H757 0.931 . S
C735 C734 1.383 1_545 S
C735 C736 1.394 . S
C736 C735 1.394 . S
C736 C737 1.378 . S
C736 H758 0.931 . S
C737 C732 1.351 1_545 S
C737 C736 1.378 . S
C737 H759 0.931 . S
C738 O748 1.259 1_554 S
C738 O749 1.270 . S
C739 O750 1.251 . S
C739 O751 1.251 1_556 S
O740 C720 1.257 1_565 S
O740 Eu721 2.473 1_565 S
O741 C720 1.260 . S
O741 Eu721 2.480 . S
O742 Eu721 2.430 . S
O742 C728 1.297 . S
O743 Eu721 2.670 1_556 S
O743 C728 1.256 1_556 S
O743 Eu731 2.355 1_545 S
O744 Eu721 2.394 1_565 S
O744 C729 1.251 . S
O745 C729 1.251 1_556 S
O745 Eu731 2.374 . S
O746 C730 1.257 1_545 S
O746 Eu731 2.473 1_545 S
O747 C730 1.260 . S
O747 Eu731 2.480 . S
O748 Eu731 2.430 . S
O748 C738 1.259 1_556 S
O749 Eu721 2.355 1_565 S
O749 Eu731 2.670 1_554 S
O749 C738 1.270 . S
O750 Eu731 2.394 1_545 S
O750 C739 1.251 . S
O751 Eu721 2.374 . S
O751 C739 1.251 1_554 S
H752 C723 0.931 . S
H753 C724 0.931 . S
H754 C726 0.931 . S
H755 C727 0.931 . S
H756 C733 0.931 . S
H757 C734 0.931 . S
H758 C736 0.931 . S
H759 C737 0.931 . S
C760 Eu761 2.835 . S
C760 C762 1.500 1_655 S
C760 O780 1.257 1_655 S
C760 O781 1.260 . S
Eu761 C760 2.835 . S
Eu761 O780 2.473 1_655 S
Eu761 O781 2.480 . S
Eu761 O782 2.430 . S
Eu761 O783 2.670 1_554 S
Eu761 O784 2.394 1_655 S
Eu761 O789 2.355 1_655 S
Eu761 O791 2.374 . S
C762 C760 1.500 1_455 S
C762 C763 1.377 1_455 S
C762 C767 1.377 . S
C763 C762 1.377 1_655 S
C763 C764 1.395 . S
C763 H792 0.931 . S
C764 C763 1.395 . S
C764 C765 1.383 1_655 S
C764 H793 0.931 . S
C765 C764 1.383 1_455 S
C765 C766 1.394 . S
C766 C765 1.394 . S
C766 C767 1.378 . S
C766 H794 0.931 . S
C767 C762 1.377 . S
C767 C766 1.378 . S
C767 H795 0.931 . S
C768 O782 1.259 1_556 S
C768 O783 1.270 . S
C769 O784 1.251 . S
C769 O785 1.251 . S
C770 Eu771 2.835 . S
C770 C772 1.500 1_455 S
C770 O786 1.257 1_455 S
C770 O787 1.260 . S
Eu771 C770 2.835 . S
Eu771 O783 2.355 1_455 S
Eu771 O785 2.374 1_556 S
Eu771 O786 2.473 1_455 S
Eu771 O787 2.480 . S
Eu771 O788 2.430 . S
Eu771 O789 2.670 1_556 S
Eu771 O790 2.394 1_455 S
C772 C770 1.500 1_655 S
C772 C773 1.377 1_655 S
C772 C777 1.377 . S
C773 C772 1.377 1_455 S
C773 C774 1.395 . S
C773 H796 0.931 . S
C774 C773 1.395 . S
C774 C775 1.383 1_455 S
C774 H797 0.931 . S
C775 C774 1.383 1_655 S
C775 C776 1.394 . S
C776 C775 1.394 . S
C776 C777 1.378 . S
C776 H798 0.931 . S
C777 C772 1.377 . S
C777 C776 1.378 . S
C777 H799 0.931 . S
C778 O788 1.259 1_554 S
C778 O789 1.270 . S
C779 O790 1.251 . S
C779 O791 1.251 1_556 S
O780 C760 1.257 1_455 S
O780 Eu761 2.473 1_455 S
O781 C760 1.260 . S
O781 Eu761 2.480 . S
O782 Eu761 2.430 . S
O782 C768 1.259 1_554 S
O783 Eu761 2.670 1_556 S
O783 C768 1.270 . S
O783 Eu771 2.355 1_655 S
O784 Eu761 2.394 1_455 S
O784 C769 1.251 . S
O785 C769 1.251 . S
O785 Eu771 2.374 1_554 S
O786 C770 1.257 1_655 S
O786 Eu771 2.473 1_655 S
O787 C770 1.260 . S
O787 Eu771 2.480 . S
O788 Eu771 2.430 . S
O788 C778 1.259 1_556 S
O789 Eu761 2.355 1_455 S
O789 Eu771 2.670 1_554 S
O789 C778 1.270 . S
O790 Eu771 2.394 1_655 S
O790 C779 1.251 . S
O791 Eu761 2.374 . S
O791 C779 1.251 1_554 S
H792 C763 0.931 . S
H793 C764 0.931 . S
H794 C766 0.931 . S
H795 C767 0.931 . S
H796 C773 0.931 . S
H797 C774 0.931 . S
H798 C776 0.931 . S
H799 C777 0.931 . S
C800 Eu801 2.835 . S
C800 C802 1.500 . S
C800 O820 1.257 . S
C800 O821 1.260 . S
Eu801 C800 2.835 . S
Eu801 O820 2.473 . S
Eu801 O821 2.480 . S
Eu801 O822 2.430 . S
Eu801 O823 2.670 1_556 S
Eu801 O824 2.394 . S
Eu801 O829 2.355 . S
Eu801 O831 2.339 1_556 S
C802 C800 1.500 . S
C802 C803 1.377 . S
C802 C807 1.377 . S
C803 C802 1.377 . S
C803 C804 1.395 . S
C803 H832 0.931 . S
C804 C803 1.395 . S
C804 C805 1.383 . S
C804 H833 0.931 . S
C805 C804 1.383 . S
C805 C806 1.394 . S
C806 C805 1.394 . S
C806 C807 1.378 . S
C806 H834 0.931 . S
C807 C802 1.377 . S
C807 C806 1.378 . S
C807 H835 0.931 . S
C808 O822 1.259 1_554 S
C808 O823 1.270 . S
C809 O824 1.251 . S
C809 O825 1.251 1_556 S
C810 Eu811 2.835 . S
C810 C812 1.500 . S
C810 O826 1.257 . S
C810 O827 1.260 . S
Eu811 C810 2.835 . S
Eu811 O823 2.355 . S
Eu811 O825 2.374 . S
Eu811 O826 2.473 . S
Eu811 O827 2.480 . S
Eu811 O828 2.430 . S
Eu811 O829 2.670 1_554 S
Eu811 O830 2.394 . S
C812 C810 1.500 . S
C812 C813 1.377 . S
C812 C817 1.377 . S
C813 C812 1.377 . S
C813 C814 1.395 . S
C813 H836 0.931 . S
C814 C813 1.395 . S
C814 C815 1.383 . S
C814 H837 0.931 . S
C815 C814 1.383 . S
C815 C816 1.394 . S
C816 C815 1.394 . S
C816 C817 1.378 . S
C816 H838 0.931 . S
C817 C812 1.377 . S
C817 C816 1.378 . S
C817 H839 0.931 . S
C818 O828 1.259 1_556 S
C818 O829 1.270 . S
C819 O830 1.251 . S
C819 O831 1.297 . S
O820 C800 1.257 . S
O820 Eu801 2.473 . S
O821 C800 1.260 . S
O821 Eu801 2.480 . S
O822 Eu801 2.430 . S
O822 C808 1.259 1_556 S
O823 Eu801 2.670 1_554 S
O823 C808 1.270 . S
O823 Eu811 2.355 . S
O824 Eu801 2.394 . S
O824 C809 1.251 . S
O825 C809 1.251 1_554 S
O825 Eu811 2.374 . S
O826 C810 1.257 . S
O826 Eu811 2.473 . S
O827 C810 1.260 . S
O827 Eu811 2.480 . S
O828 Eu811 2.430 . S
O828 C818 1.259 1_554 S
O829 Eu801 2.355 . S
O829 Eu811 2.670 1_556 S
O829 C818 1.270 . S
O830 Eu811 2.394 . S
O830 C819 1.251 . S
O831 Eu801 2.339 1_554 S
O831 C819 1.297 . S
H832 C803 0.931 . S
H833 C804 0.931 . S
H834 C806 0.931 . S
H835 C807 0.931 . S
H836 C813 0.931 . S
H837 C814 0.931 . S
H838 C816 0.931 . S
H839 C817 0.931 . S
C840 Eu841 2.835 . S
C840 C842 1.500 . S
C840 O860 1.257 . S
C840 O861 1.260 . S
Eu841 C840 2.835 . S
Eu841 O860 2.473 . S
Eu841 O861 2.480 . S
Eu841 O862 2.430 . S
Eu841 O863 2.670 . S
Eu841 O864 2.394 . S
Eu841 O869 2.355 . S
Eu841 O871 2.374 . S
C842 C840 1.500 . S
C842 C843 1.377 . S
C842 C847 1.377 . S
C843 C842 1.377 . S
C843 C844 1.395 . S
C843 H872 0.931 . S
C844 C843 1.395 . S
C844 C845 1.383 . S
C844 H873 0.931 . S
C845 C844 1.383 . S
C845 C846 1.394 . S
C846 C845 1.394 . S
C846 C847 1.378 . S
C846 H874 0.931 . S
C847 C842 1.377 . S
C847 C846 1.378 . S
C847 H875 0.931 . S
C848 O862 1.259 . S
C848 O863 1.270 . S
C849 O864 1.251 . S
C849 O865 1.251 . S
C850 Eu851 2.835 . S
C850 C852 1.500 . S
C850 O866 1.257 . S
C850 O867 1.260 . S
Eu851 C850 2.835 . S
Eu851 O863 2.355 . S
Eu851 O865 2.374 . S
Eu851 O866 2.473 . S
Eu851 O867 2.480 . S
Eu851 O868 2.430 . S
Eu851 O869 2.670 . S
Eu851 O870 2.394 . S
C852 C850 1.500 . S
C852 C853 1.377 . S
C852 C857 1.377 . S
C853 C852 1.377 . S
C853 C854 1.395 . S
C853 H876 0.931 . S
C854 C853 1.395 . S
C854 C855 1.383 . S
C854 H877 0.931 . S
C855 C854 1.383 . S
C855 C856 1.394 . S
C856 C855 1.394 . S
C856 C857 1.378 . S
C856 H878 0.931 . S
C857 C852 1.377 . S
C857 C856 1.378 . S
C857 H879 0.931 . S
C858 O868 1.259 . S
C858 O869 1.270 . S
C859 O870 1.251 . S
C859 O871 1.251 . S
O860 C840 1.257 . S
O860 Eu841 2.473 . S
O861 C840 1.260 . S
O861 Eu841 2.480 . S
O862 Eu841 2.430 . S
O862 C848 1.259 . S
O863 Eu841 2.670 . S
O863 C848 1.270 . S
O863 Eu851 2.355 . S
O864 Eu841 2.394 . S
O864 C849 1.251 . S
O865 C849 1.251 . S
O865 Eu851 2.374 . S
O866 C850 1.257 . S
O866 Eu851 2.473 . S
O867 C850 1.260 . S
O867 Eu851 2.480 . S
O868 Eu851 2.430 . S
O868 C858 1.259 . S
O869 Eu841 2.355 . S
O869 Eu851 2.670 . S
O869 C858 1.270 . S
O870 Eu851 2.394 . S
O870 C859 1.251 . S
O871 Eu841 2.374 . S
O871 C859 1.251 . S
H872 C843 0.931 . S
H873 C844 0.931 . S
H874 C846 0.931 . S
H875 C847 0.931 . S
H876 C853 0.931 . S
H877 C854 0.931 . S
H878 C856 0.931 . S
H879 C857 0.931 . S
C880 Eu881 2.835 . S
C880 C882 1.500 . S
C880 O900 1.257 . S
C880 O901 1.260 . S
Eu881 C880 2.835 . S
Eu881 O900 2.473 . S
Eu881 O901 2.480 . S
Eu881 O902 2.430 . S
Eu881 O903 2.670 . S
Eu881 O904 2.394 . S
Eu881 O909 2.355 . S
Eu881 O911 2.374 . S
C882 C880 1.500 . S
C882 C883 1.377 . S
C882 C887 1.377 . S
C883 C882 1.377 . S
C883 C884 1.395 . S
C883 H912 0.931 . S
C884 C883 1.395 . S
C884 C885 1.383 . S
C884 H913 0.931 . S
C885 C884 1.383 . S
C885 C886 1.394 . S
C886 C885 1.394 . S
C886 C887 1.378 . S
C886 H914 0.931 . S
C887 C882 1.377 . S
C887 C886 1.378 . S
C887 H915 0.931 . S
C888 O902 1.259 . S
C888 O903 1.270 . S
C889 O904 1.251 . S
C889 O905 1.251 . S
C890 Eu891 2.835 . S
C890 C892 1.500 . S
C890 O906 1.257 . S
C890 O907 1.260 . S
Eu891 C890 2.835 . S
Eu891 O903 2.355 . S
Eu891 O905 2.374 . S
Eu891 O906 2.473 . S
Eu891 O907 2.480 . S
Eu891 O908 2.430 . S
Eu891 O909 2.670 . S
Eu891 O910 2.394 . S
C892 C890 1.500 . S
C892 C893 1.377 . S
C892 C897 1.377 . S
C893 C892 1.377 . S
C893 C894 1.395 . S
C893 H916 0.931 . S
C894 C893 1.395 . S
C894 C895 1.383 . S
C894 H917 0.931 . S
C895 C894 1.383 . S
C895 C896 1.394 . S
C896 C895 1.394 . S
C896 C897 1.378 . S
C896 H918 0.931 . S
C897 C892 1.377 . S
C897 C896 1.378 . S
C897 H919 0.931 . S
C898 O908 1.259 . S
C898 O909 1.270 . S
C899 O910 1.251 . S
C899 O911 1.251 . S
O900 C880 1.257 . S
O900 Eu881 2.473 . S
O901 C880 1.260 . S
O901 Eu881 2.480 . S
O902 Eu881 2.430 . S
O902 C888 1.259 . S
O903 Eu881 2.670 . S
O903 C888 1.270 . S
O903 Eu891 2.355 . S
O904 Eu881 2.394 . S
O904 C889 1.251 . S
O905 C889 1.251 . S
O905 Eu891 2.374 . S
O906 C890 1.257 . S
O906 Eu891 2.473 . S
O907 C890 1.260 . S
O907 Eu891 2.480 . S
O908 Eu891 2.430 . S
O908 C898 1.259 . S
O909 Eu881 2.355 . S
O909 Eu891 2.670 . S
O909 C898 1.270 . S
O910 Eu891 2.394 . S
O910 C899 1.251 . S
O911 Eu881 2.374 . S
O911 C899 1.251 . S
H912 C883 0.931 . S
H913 C884 0.931 . S
H914 C886 0.931 . S
H915 C887 0.931 . S
H916 C893 0.931 . S
H917 C894 0.931 . S
H918 C896 0.931 . S
H919 C897 0.931 . S
C920 Eu921 2.835 . S
C920 C922 1.500 . S
C920 O940 1.257 . S
C920 O941 1.260 . S
Eu921 C920 2.835 . S
Eu921 O940 2.473 . S
Eu921 O941 2.480 . S
Eu921 O942 2.430 . S
Eu921 O943 2.670 . S
Eu921 O944 2.394 . S
Eu921 O949 2.355 . S
Eu921 O951 2.374 . S
C922 C920 1.500 . S
C922 C923 1.377 . S
C922 C927 1.377 . S
C923 C922 1.377 . S
C923 C924 1.395 . S
C923 H952 0.931 . S
C924 C923 1.395 . S
C924 C925 1.383 . S
C924 H953 0.931 . S
C925 C924 1.383 . S
C925 C926 1.394 . S
C926 C925 1.394 . S
C926 C927 1.378 . S
C926 H954 0.931 . S
C927 C922 1.377 . S
C927 C926 1.378 . S
C927 H955 0.931 . S
C928 O942 1.259 . S
C928 O943 1.270 . S
C929 O944 1.251 . S
C929 O945 1.251 . S
C930 Eu931 2.835 . S
C930 C932 1.500 . S
C930 O946 1.257 . S
C930 O947 1.260 . S
Eu931 C930 2.835 . S
Eu931 O943 2.355 . S
Eu931 O945 2.374 . S
Eu931 O946 2.473 . S
Eu931 O947 2.480 . S
Eu931 O948 2.430 . S
Eu931 O949 2.670 . S
Eu931 O950 2.394 . S
C932 C930 1.500 . S
C932 C933 1.377 . S
C932 C937 1.377 . S
C933 C932 1.377 . S
C933 C934 1.395 . S
C933 H956 0.931 . S
C934 C933 1.395 . S
C934 C935 1.383 . S
C934 H957 0.931 . S
C935 C934 1.383 . S
C935 C936 1.394 . S
C936 C935 1.394 . S
C936 C937 1.378 . S
C936 H958 0.931 . S
C937 C932 1.377 . S
C937 C936 1.378 . S
C937 H959 0.931 . S
C938 O948 1.259 . S
C938 O949 1.270 . S
C939 O950 1.251 . S
C939 O951 1.251 . S
O940 C920 1.257 . S
O940 Eu921 2.473 . S
O941 C920 1.260 . S
O941 Eu921 2.480 . S
O942 Eu921 2.430 . S
O942 C928 1.259 . S
O943 Eu921 2.670 . S
O943 C928 1.270 . S
O943 Eu931 2.355 . S
O944 Eu921 2.394 . S
O944 C929 1.251 . S
O945 C929 1.251 . S
O945 Eu931 2.374 . S
O946 C930 1.257 . S
O946 Eu931 2.473 . S
O947 C930 1.260 . S
O947 Eu931 2.480 . S
O948 Eu931 2.430 . S
O948 C938 1.259 . S
O949 Eu921 2.355 . S
O949 Eu931 2.670 . S
O949 C938 1.270 . S
O950 Eu931 2.394 . S
O950 C939 1.251 . S
O951 Eu921 2.374 . S
O951 C939 1.251 . S
H952 C923 0.931 . S
H953 C924 0.931 . S
H954 C926 0.931 . S
H955 C927 0.931 . S
H956 C933 0.931 . S
H957 C934 0.931 . S
H958 C936 0.931 . S
H959 C937 0.931 . S
C960 Eu961 2.835 . S
C960 C962 1.500 . S
C960 O980 1.257 . S
C960 O981 1.260 . S
Eu961 C960 2.835 . S
Eu961 O980 2.473 . S
Eu961 O981 2.480 . S
Eu961 O982 2.430 . S
Eu961 O983 2.670 . S
Eu961 O984 2.394 . S
Eu961 O989 2.355 . S
Eu961 O991 2.374 . S
C962 C960 1.500 . S
C962 C963 1.377 . S
C962 C967 1.377 . S
C963 C962 1.377 . S
C963 C964 1.395 . S
C963 H992 0.931 . S
C964 C963 1.395 . S
C964 C965 1.383 . S
C964 H993 0.931 . S
C965 C964 1.383 . S
C965 C966 1.394 . S
C966 C965 1.394 . S
C966 C967 1.378 . S
C966 H994 0.931 . S
C967 C962 1.377 . S
C967 C966 1.378 . S
C967 H995 0.931 . S
C968 O982 1.259 . S
C968 O983 1.270 . S
C969 O984 1.251 . S
C969 O985 1.251 . S
C970 Eu971 2.835 . S
C970 C972 1.500 . S
C970 O986 1.257 . S
C970 O987 1.260 . S
Eu971 C970 2.835 . S
Eu971 O983 2.355 . S
Eu971 O985 2.374 . S
Eu971 O986 2.473 . S
Eu971 O987 2.480 . S
Eu971 O988 2.430 . S
Eu971 O989 2.670 . S
Eu971 O990 2.394 . S
C972 C970 1.500 . S
C972 C973 1.377 . S
C972 C977 1.377 . S
C973 C972 1.377 . S
C973 C974 1.395 . S
C973 H996 0.931 . S
C974 C973 1.395 . S
C974 C975 1.383 . S
C974 H997 0.931 . S
C975 C974 1.383 . S
C975 C976 1.394 . S
C976 C975 1.394 . S
C976 C977 1.378 . S
C976 H998 0.931 . S
C977 C972 1.377 . S
C977 C976 1.378 . S
C977 H999 0.931 . S
C978 O988 1.259 . S
C978 O989 1.270 . S
C979 O990 1.251 . S
C979 O991 1.251 . S
O980 C960 1.257 . S
O980 Eu961 2.473 . S
O981 C960 1.260 . S
O981 Eu961 2.480 . S
O982 Eu961 2.430 . S
O982 C968 1.259 . S
O983 Eu961 2.670 . S
O983 C968 1.270 . S
O983 Eu971 2.355 . S
O984 Eu961 2.394 . S
O984 C969 1.251 . S
O985 C969 1.251 . S
O985 Eu971 2.374 . S
O986 C970 1.257 . S
O986 Eu971 2.473 . S
O987 C970 1.260 . S
O987 Eu971 2.480 . S
O988 Eu971 2.430 . S
O988 C978 1.259 . S
O989 Eu961 2.355 . S
O989 Eu971 2.670 . S
O989 C978 1.270 . S
O990 Eu971 2.394 . S
O990 C979 1.251 . S
O991 Eu961 2.374 . S
O991 C979 1.251 . S
H992 C963 0.931 . S
H993 C964 0.931 . S
H994 C966 0.931 . S
H995 C967 0.931 . S
H996 C973 0.931 . S
H997 C974 0.931 . S
H998 C976 0.931 . S
H999 C977 0.931 . S
C1000 Eu1001 2.835 . S
C1000 C1002 1.500 . S
C1000 O1020 1.257 . S
C1000 O1021 1.260 . S
Eu1001 C1000 2.835 . S
Eu1001 O1020 2.473 . S
Eu1001 O1021 2.480 . S
Eu1001 O1022 2.430 . S
Eu1001 O1023 2.670 . S
Eu1001 O1024 2.394 . S
Eu1001 O1029 2.355 . S
Eu1001 O1031 2.374 . S
C1002 C1000 1.500 . S
C1002 C1003 1.377 . S
C1002 C1007 1.377 . S
C1003 C1002 1.377 . S
C1003 C1004 1.395 . S
C1003 H1032 0.931 . S
C1004 C1003 1.395 . S
C1004 C1005 1.383 . S
C1004 H1033 0.931 . S
C1005 C1004 1.383 . S
C1005 C1006 1.394 . S
C1006 C1005 1.394 . S
C1006 C1007 1.378 . S
C1006 H1034 0.931 . S
C1007 C1002 1.377 . S
C1007 C1006 1.378 . S
C1007 H1035 0.931 . S
C1008 O1022 1.259 . S
C1008 O1023 1.270 . S
C1009 O1024 1.251 . S
C1009 O1025 1.251 . S
C1010 Eu1011 2.835 . S
C1010 C1012 1.500 . S
C1010 O1026 1.257 . S
C1010 O1027 1.260 . S
Eu1011 C1010 2.835 . S
Eu1011 O1023 2.355 . S
Eu1011 O1025 2.374 . S
Eu1011 O1026 2.473 . S
Eu1011 O1027 2.480 . S
Eu1011 O1028 2.430 . S
Eu1011 O1029 2.670 . S
Eu1011 O1030 2.394 . S
C1012 C1010 1.500 . S
C1012 C1013 1.377 . S
C1012 C1017 1.377 . S
C1013 C1012 1.377 . S
C1013 C1014 1.395 . S
C1013 H1036 0.931 . S
C1014 C1013 1.395 . S
C1014 C1015 1.383 . S
C1014 H1037 0.931 . S
C1015 C1014 1.383 . S
C1015 C1016 1.394 . S
C1016 C1015 1.394 . S
C1016 C1017 1.378 . S
C1016 H1038 0.931 . S
C1017 C1012 1.377 . S
C1017 C1016 1.378 . S
C1017 H1039 0.931 . S
C1018 O1028 1.259 . S
C1018 O1029 1.270 . S
C1019 O1030 1.251 . S
C1019 O1031 1.251 . S
O1020 C1000 1.257 . S
O1020 Eu1001 2.473 . S
O1021 C1000 1.260 . S
O1021 Eu1001 2.480 . S
O1022 Eu1001 2.430 . S
O1022 C1008 1.259 . S
O1023 Eu1001 2.670 . S
O1023 C1008 1.270 . S
O1023 Eu1011 2.355 . S
O1024 Eu1001 2.394 . S
O1024 C1009 1.251 . S
O1025 C1009 1.251 . S
O1025 Eu1011 2.374 . S
O1026 C1010 1.257 . S
O1026 Eu1011 2.473 . S
O1027 C1010 1.260 . S
O1027 Eu1011 2.480 . S
O1028 Eu1011 2.430 . S
O1028 C1018 1.259 . S
O1029 Eu1001 2.355 . S
O1029 Eu1011 2.670 . S
O1029 C1018 1.270 . S
O1030 Eu1011 2.394 . S
O1030 C1019 1.251 . S
O1031 Eu1001 2.374 . S
O1031 C1019 1.251 . S
H1032 C1003 0.931 . S
H1033 C1004 0.931 . S
H1034 C1006 0.931 . S
H1035 C1007 0.931 . S
H1036 C1013 0.931 . S
H1037 C1014 0.931 . S
H1038 C1016 0.931 . S
H1039 C1017 0.931 . S
C1040 Eu1041 2.835 . S
C1040 C1042 1.500 . S
C1040 O1060 1.257 . S
C1040 O1061 1.260 . S
Eu1041 C1040 2.835 . S
Eu1041 O1060 2.473 . S
Eu1041 O1061 2.480 . S
Eu1041 O1062 2.430 . S
Eu1041 O1063 2.670 . S
Eu1041 O1064 2.394 . S
Eu1041 O1069 2.355 . S
Eu1041 O1071 2.374 . S
C1042 C1040 1.500 . S
C1042 C1043 1.377 . S
C1042 C1047 1.377 . S
C1043 C1042 1.377 . S
C1043 C1044 1.395 . S
C1043 H1072 0.931 . S
C1044 C1043 1.395 . S
C1044 C1045 1.383 . S
C1044 H1073 0.931 . S
C1045 C1044 1.383 . S
C1045 C1046 1.394 . S
C1046 C1045 1.394 . S
C1046 C1047 1.378 . S
C1046 H1074 0.931 . S
C1047 C1042 1.377 . S
C1047 C1046 1.378 . S
C1047 H1075 0.931 . S
C1048 O1062 1.259 . S
C1048 O1063 1.270 . S
C1049 O1064 1.251 . S
C1049 O1065 1.251 . S
C1050 Eu1051 2.835 . S
C1050 C1052 1.500 . S
C1050 O1066 1.257 . S
C1050 O1067 1.260 . S
Eu1051 C1050 2.835 . S
Eu1051 O1063 2.355 . S
Eu1051 O1065 2.374 . S
Eu1051 O1066 2.473 . S
Eu1051 O1067 2.480 . S
Eu1051 O1068 2.430 . S
Eu1051 O1069 2.670 . S
Eu1051 O1070 2.394 . S
C1052 C1050 1.500 . S
C1052 C1053 1.377 . S
C1052 C1057 1.377 . S
C1053 C1052 1.377 . S
C1053 C1054 1.395 . S
C1053 H1076 0.931 . S
C1054 C1053 1.395 . S
C1054 C1055 1.383 . S
C1054 H1077 0.931 . S
C1055 C1054 1.383 . S
C1055 C1056 1.394 . S
C1056 C1055 1.394 . S
C1056 C1057 1.378 . S
C1056 H1078 0.931 . S
C1057 C1052 1.377 . S
C1057 C1056 1.378 . S
C1057 H1079 0.931 . S
C1058 O1068 1.259 . S
C1058 O1069 1.270 . S
C1059 O1070 1.251 . S
C1059 O1071 1.251 . S
O1060 C1040 1.257 . S
O1060 Eu1041 2.473 . S
O1061 C1040 1.260 . S
O1061 Eu1041 2.480 . S
O1062 Eu1041 2.430 . S
O1062 C1048 1.259 . S
O1063 Eu1041 2.670 . S
O1063 C1048 1.270 . S
O1063 Eu1051 2.355 . S
O1064 Eu1041 2.394 . S
O1064 C1049 1.251 . S
O1065 C1049 1.251 . S
O1065 Eu1051 2.374 . S
O1066 C1050 1.257 . S
O1066 Eu1051 2.473 . S
O1067 C1050 1.260 . S
O1067 Eu1051 2.480 . S
O1068 Eu1051 2.430 . S
O1068 C1058 1.259 . S
O1069 Eu1041 2.355 . S
O1069 Eu1051 2.670 . S
O1069 C1058 1.270 . S
O1070 Eu1051 2.394 . S
O1070 C1059 1.251 . S
O1071 Eu1041 2.374 . S
O1071 C1059 1.251 . S
H1072 C1043 0.931 . S
H1073 C1044 0.931 . S
H1074 C1046 0.931 . S
H1075 C1047 0.931 . S
H1076 C1053 0.931 . S
H1077 C1054 0.931 . S
H1078 C1056 0.931 . S
H1079 C1057 0.931 . S
H1080 C1086 0.930 . S
H1081 C1089 0.930 . S
H1082 C1090 0.930 . S
H1083 C1091 0.930 . S
H1084 C1094 0.930 . S
H1085 C1095 0.930 . S
C1086 H1080 0.930 . S
C1086 C1087 1.355 . S
C1086 C1088 1.415 . S
C1087 C1086 1.355 . S
C1087 C1089 1.419 . S
C1088 C1086 1.415 . S
C1088 C1093 1.425 . S
C1088 C1095 1.409 . S
C1089 H1081 0.930 . S
C1089 C1087 1.419 . S
C1089 C1090 1.362 . S
C1090 H1082 0.930 . S
C1090 C1089 1.362 . S
C1090 C1093 1.409 . S
C1091 H1083 0.930 . S
C1091 C1092 1.355 . S
C1091 C1093 1.415 . S
C1092 C1091 1.355 . S
C1092 C1094 1.419 . S
C1093 C1088 1.425 . S
C1093 C1090 1.409 . S
C1093 C1091 1.415 . S
C1094 H1084 0.930 . S
C1094 C1092 1.419 . S
C1094 C1095 1.362 . S
C1095 H1085 0.930 . S
C1095 C1088 1.409 . S
C1095 C1094 1.362 . S
H1096 C1102 0.930 . S
H1097 C1105 0.930 . S
H1098 C1106 0.930 . S
H1099 C1107 0.930 . S
H1100 C1110 0.963 . S
H1101 C1111 0.930 . S
C1102 H1096 0.930 . S
C1102 C1103 1.355 . S
C1102 C1104 1.415 . S
C1103 C1102 1.355 . S
C1103 C1105 1.419 . S
C1104 C1102 1.415 . S
C1104 C1109 1.425 . S
C1104 C1111 1.409 . S
C1105 H1097 0.930 . S
C1105 C1103 1.419 . S
C1105 C1106 1.362 . S
C1106 H1098 0.930 . S
C1106 C1105 1.362 . S
C1106 C1109 1.409 . S
C1107 H1099 0.930 . S
C1107 C1108 1.355 . S
C1107 C1109 1.415 . S
C1108 C1107 1.355 . S
C1108 C1110 1.419 . S
C1109 C1104 1.425 . S
C1109 C1106 1.409 . S
C1109 C1107 1.415 . S
C1110 H1100 0.963 . S
C1110 C1108 1.419 . S
C1110 C1111 1.362 . S
C1111 H1101 0.930 . S
C1111 C1104 1.409 . S
C1111 C1110 1.362 . S
H1112 C1118 0.930 . S
H1113 C1121 0.930 . S
H1114 C1122 0.930 . S
H1115 C1123 0.930 . S
H1116 C1126 0.930 . S
H1117 C1127 0.930 . S
C1118 H1112 0.930 . S
C1118 C1119 1.355 . S
C1118 C1120 1.415 . S
C1119 C1118 1.355 . S
C1119 C1121 1.419 . S
C1120 C1118 1.415 . S
C1120 C1125 1.425 . S
C1120 C1127 1.409 . S
C1121 H1113 0.930 . S
C1121 C1119 1.419 . S
C1121 C1122 1.362 . S
C1122 H1114 0.930 . S
C1122 C1121 1.362 . S
C1122 C1125 1.409 . S
C1123 H1115 0.930 . S
C1123 C1124 1.355 . S
C1123 C1125 1.415 . S
C1124 C1123 1.355 . S
C1124 C1126 1.419 . S
C1125 C1120 1.425 . S
C1125 C1122 1.409 . S
C1125 C1123 1.415 . S
C1126 H1116 0.930 . S
C1126 C1124 1.419 . S
C1126 C1127 1.362 . S
C1127 H1117 0.930 . S
C1127 C1120 1.409 . S
C1127 C1126 1.362 . S
H1128 C1134 0.930 . S
H1129 C1137 0.930 . S
H1130 C1138 0.930 . S
H1131 C1139 0.930 . S
H1132 C1142 0.930 . S
H1133 C1143 0.930 . S
C1134 H1128 0.930 . S
C1134 C1135 1.355 . S
C1134 C1136 1.415 . S
C1135 C1134 1.355 . S
C1135 C1137 1.419 . S
C1136 C1134 1.415 . S
C1136 C1141 1.425 . S
C1136 C1143 1.409 . S
C1137 H1129 0.930 . S
C1137 C1135 1.419 . S
C1137 C1138 1.362 . S
C1138 H1130 0.930 . S
C1138 C1137 1.362 . S
C1138 C1141 1.409 . S
C1139 H1131 0.930 . S
C1139 C1140 1.355 . S
C1139 C1141 1.415 . S
C1140 C1139 1.355 . S
C1140 C1142 1.419 . S
C1141 C1136 1.425 . S
C1141 C1138 1.409 . S
C1141 C1139 1.415 . S
C1142 H1132 0.930 . S
C1142 C1140 1.419 . S
C1142 C1143 1.362 . S
C1143 H1133 0.930 . S
C1143 C1136 1.409 . S
C1143 C1142 1.362 . S
H1144 C1150 0.930 . S
H1145 C1153 0.930 . S
H1146 C1154 0.930 . S
H1147 C1155 0.930 . S
H1148 C1158 0.930 . S
H1149 C1159 0.930 . S
C1150 H1144 0.930 . S
C1150 C1151 1.355 . S
C1150 C1152 1.415 . S
C1151 C1150 1.355 . S
C1151 C1153 1.419 . S
C1152 C1150 1.415 . S
C1152 C1157 1.425 . S
C1152 C1159 1.409 . S
C1153 H1145 0.930 . S
C1153 C1151 1.419 . S
C1153 C1154 1.362 . S
C1154 H1146 0.930 . S
C1154 C1153 1.362 . S
C1154 C1157 1.409 . S
C1155 H1147 0.930 . S
C1155 C1156 1.355 . S
C1155 C1157 1.415 . S
C1156 C1155 1.355 . S
C1156 C1158 1.419 . S
C1157 C1152 1.425 . S
C1157 C1154 1.409 . S
C1157 C1155 1.415 . S
C1158 H1148 0.930 . S
C1158 C1156 1.419 . S
C1158 C1159 1.362 . S
C1159 H1149 0.930 . S
C1159 C1152 1.409 . S
C1159 C1158 1.362 . S
H1160 C1166 0.930 . S
H1161 C1169 0.930 . S
H1162 C1170 0.930 1_554 S
H1163 C1171 0.930 1_554 S
H1164 C1174 0.930 . S
H1165 C1175 0.930 . S
C1166 H1160 0.930 . S
C1166 C1167 1.355 . S
C1166 C1168 1.415 . S
C1167 C1166 1.355 . S
C1167 C1169 1.419 . S
C1168 C1166 1.415 . S
C1168 C1173 1.425 . S
C1168 C1175 1.409 . S
C1169 H1161 0.930 . S
C1169 C1167 1.419 . S
C1169 C1170 1.362 . S
C1170 H1162 0.930 1_556 S
C1170 C1169 1.362 . S
C1170 C1173 1.409 . S
C1171 H1163 0.930 1_556 S
C1171 C1172 1.355 . S
C1171 C1173 1.415 . S
C1172 C1171 1.355 . S
C1172 C1174 1.419 . S
C1173 C1168 1.425 . S
C1173 C1170 1.409 . S
C1173 C1171 1.415 . S
C1174 H1164 0.930 . S
C1174 C1172 1.419 . S
C1174 C1175 1.362 . S
C1175 H1165 0.930 . S
C1175 C1168 1.409 . S
C1175 C1174 1.362 . S
H1176 C1182 0.930 . S
H1177 C1185 0.930 . S
H1178 C1186 0.930 . S
H1179 C1187 0.930 . S
H1180 C1190 0.930 . S
H1181 C1191 0.930 . S
C1182 H1176 0.930 . S
C1182 C1183 1.355 . S
C1182 C1184 1.415 . S
C1183 C1182 1.355 . S
C1183 C1185 1.419 . S
C1184 C1182 1.415 . S
C1184 C1189 1.425 . S
C1184 C1191 1.409 . S
C1185 H1177 0.930 . S
C1185 C1183 1.419 . S
C1185 C1186 1.362 . S
C1186 H1178 0.930 . S
C1186 C1185 1.362 . S
C1186 C1189 1.409 . S
C1187 H1179 0.930 . S
C1187 C1188 1.355 . S
C1187 C1189 1.415 . S
C1188 C1187 1.355 . S
C1188 C1190 1.419 . S
C1189 C1184 1.425 . S
C1189 C1186 1.409 . S
C1189 C1187 1.415 . S
C1190 H1180 0.930 . S
C1190 C1188 1.419 . S
C1190 C1191 1.362 . S
C1191 H1181 0.930 . S
C1191 C1184 1.409 . S
C1191 C1190 1.362 . S
H1192 C1198 0.930 . S
H1193 C1201 0.930 . S
H1194 C1202 0.930 . S
H1195 C1203 0.930 . S
H1196 C1206 0.930 . S
H1197 C1207 0.930 . S
C1198 H1192 0.930 . S
C1198 C1199 1.355 . S
C1198 C1200 1.415 . S
C1199 C1198 1.355 . S
C1199 C1201 1.419 . S
C1200 C1198 1.415 . S
C1200 C1205 1.425 . S
C1200 C1207 1.409 . S
C1201 H1193 0.930 . S
C1201 C1199 1.419 . S
C1201 C1202 1.362 . S
C1202 H1194 0.930 . S
C1202 C1201 1.362 . S
C1202 C1205 1.409 . S
C1203 H1195 0.930 . S
C1203 C1204 1.355 . S
C1203 C1205 1.415 . S
C1204 C1203 1.355 . S
C1204 C1206 1.419 . S
C1205 C1200 1.425 . S
C1205 C1202 1.409 . S
C1205 C1203 1.415 . S
C1206 H1196 0.930 . S
C1206 C1204 1.419 . S
C1206 C1207 1.362 . S
C1207 H1197 0.930 . S
C1207 C1200 1.409 . S
C1207 C1206 1.362 . S
H1208 C1214 0.930 . S
H1209 C1217 0.930 . S
H1210 C1218 0.930 . S
H1211 C1219 0.930 . S
H1212 C1222 0.930 1_554 S
H1213 C1223 0.930 1_554 S
C1214 H1208 0.930 . S
C1214 C1215 1.355 . S
C1214 C1216 1.415 . S
C1215 C1214 1.355 . S
C1215 C1217 1.419 . S
C1216 C1214 1.415 . S
C1216 C1221 1.425 . S
C1216 C1223 1.409 . S
C1217 H1209 0.930 . S
C1217 C1215 1.419 . S
C1217 C1218 1.362 . S
C1218 H1210 0.930 . S
C1218 C1217 1.362 . S
C1218 C1221 1.409 . S
C1219 H1211 0.930 . S
C1219 C1220 1.355 . S
C1219 C1221 1.415 . S
C1220 C1219 1.355 . S
C1220 C1222 1.419 . S
C1221 C1216 1.425 . S
C1221 C1218 1.409 . S
C1221 C1219 1.415 . S
C1222 H1212 0.930 1_556 S
C1222 C1220 1.419 . S
C1222 C1223 1.362 . S
C1223 H1213 0.930 1_556 S
C1223 C1216 1.409 . S
C1223 C1222 1.362 . S
H1224 C1230 0.930 . S
H1225 C1233 0.930 . S
H1226 C1234 0.930 1_556 S
H1227 C1235 0.930 1_556 S
H1228 C1238 0.930 . S
H1229 C1239 0.930 . S
C1230 H1224 0.930 . S
C1230 C1231 1.355 . S
C1230 C1232 1.415 . S
C1231 C1230 1.355 . S
C1231 C1233 1.419 . S
C1232 C1230 1.415 . S
C1232 C1237 1.425 . S
C1232 C1239 1.409 . S
C1233 H1225 0.930 . S
C1233 C1231 1.419 . S
C1233 C1234 1.362 . S
C1234 H1226 0.930 1_554 S
C1234 C1233 1.362 . S
C1234 C1237 1.409 . S
C1235 H1227 0.930 1_554 S
C1235 C1236 1.355 . S
C1235 C1237 1.415 . S
C1236 C1235 1.355 . S
C1236 C1238 1.419 . S
C1237 C1232 1.425 . S
C1237 C1234 1.409 . S
C1237 C1235 1.415 . S
C1238 H1228 0.930 . S
C1238 C1236 1.419 . S
C1238 C1239 1.362 . S
C1239 H1229 0.930 . S
C1239 C1232 1.409 . S
C1239 C1238 1.362 . S
H1240 C1246 0.930 . S
H1241 C1249 0.930 . S
H1242 C1250 0.930 . S
H1243 C1251 0.930 . S
H1244 C1254 0.930 . S
H1245 C1255 0.930 . S
C1246 H1240 0.930 . S
C1246 C1247 1.355 . S
C1246 C1248 1.415 . S
C1247 C1246 1.355 . S
C1247 C1249 1.419 . S
C1248 C1246 1.415 . S
C1248 C1253 1.425 . S
C1248 C1255 1.409 . S
C1249 H1241 0.930 . S
C1249 C1247 1.419 . S
C1249 C1250 1.362 . S
C1250 H1242 0.930 . S
C1250 C1249 1.362 . S
C1250 C1253 1.409 . S
C1251 H1243 0.930 . S
C1251 C1252 1.355 . S
C1251 C1253 1.415 . S
C1252 C1251 1.355 . S
C1252 C1254 1.419 . S
C1253 C1248 1.425 . S
C1253 C1250 1.409 . S
C1253 C1251 1.415 . S
C1254 H1244 0.930 . S
C1254 C1252 1.419 . S
C1254 C1255 1.362 . S
C1255 H1245 0.930 . S
C1255 C1248 1.409 . S
C1255 C1254 1.362 . S
H1256 C1262 0.930 . S
H1257 C1265 0.930 . S
H1258 C1266 0.930 . S
H1259 C1267 0.930 . S
H1260 C1270 0.930 . S
H1261 C1271 0.930 . S
C1262 H1256 0.930 . S
C1262 C1263 1.355 . S
C1262 C1264 1.415 . S
C1263 C1262 1.355 . S
C1263 C1265 1.419 . S
C1264 C1262 1.415 . S
C1264 C1269 1.425 . S
C1264 C1271 1.409 . S
C1265 H1257 0.930 . S
C1265 C1263 1.419 . S
C1265 C1266 1.362 . S
C1266 H1258 0.930 . S
C1266 C1265 1.362 . S
C1266 C1269 1.409 . S
C1267 H1259 0.930 . S
C1267 C1268 1.355 . S
C1267 C1269 1.415 . S
C1268 C1267 1.355 . S
C1268 C1270 1.419 . S
C1269 C1264 1.425 . S
C1269 C1266 1.409 . S
C1269 C1267 1.415 . S
C1270 H1260 0.930 . S
C1270 C1268 1.419 . S
C1270 C1271 1.362 . S
C1271 H1261 0.930 . S
C1271 C1264 1.409 . S
C1271 C1270 1.362 . S
H1272 C1278 0.930 . S
H1273 C1281 0.930 . S
H1274 C1282 0.930 . S
H1275 C1283 0.930 . S
H1276 C1286 0.930 . S
H1277 C1287 0.930 . S
C1278 H1272 0.930 . S
C1278 C1279 1.355 . S
C1278 C1280 1.415 . S
C1279 C1278 1.355 . S
C1279 C1281 1.419 . S
C1280 C1278 1.415 . S
C1280 C1285 1.425 . S
C1280 C1287 1.409 . S
C1281 H1273 0.930 . S
C1281 C1279 1.419 . S
C1281 C1282 1.362 . S
C1282 H1274 0.930 . S
C1282 C1281 1.362 . S
C1282 C1285 1.409 . S
C1283 H1275 0.930 . S
C1283 C1284 1.355 . S
C1283 C1285 1.415 . S
C1284 C1283 1.355 . S
C1284 C1286 1.419 . S
C1285 C1280 1.425 . S
C1285 C1282 1.409 . S
C1285 C1283 1.415 . S
C1286 H1276 0.930 . S
C1286 C1284 1.419 . S
C1286 C1287 1.362 . S
C1287 H1277 0.930 . S
C1287 C1280 1.409 . S
C1287 C1286 1.362 . S
H1288 C1294 0.930 . S
H1289 C1297 0.930 . S
H1290 C1298 0.930 . S
H1291 C1299 0.930 . S
H1292 C1302 0.930 . S
H1293 C1303 0.930 . S
C1294 H1288 0.930 . S
C1294 C1295 1.355 . S
C1294 C1296 1.415 . S
C1295 C1294 1.355 . S
C1295 C1297 1.419 . S
C1296 C1294 1.415 . S
C1296 C1301 1.425 . S
C1296 C1303 1.409 . S
C1297 H1289 0.930 . S
C1297 C1295 1.419 . S
C1297 C1298 1.362 . S
C1298 H1290 0.930 . S
C1298 C1297 1.362 . S
C1298 C1301 1.409 . S
C1299 H1291 0.930 . S
C1299 C1300 1.355 . S
C1299 C1301 1.415 . S
C1300 C1299 1.355 . S
C1300 C1302 1.419 . S
C1301 C1296 1.425 . S
C1301 C1298 1.409 . S
C1301 C1299 1.415 . S
C1302 H1292 0.930 . S
C1302 C1300 1.419 . S
C1302 C1303 1.362 . S
C1303 H1293 0.930 . S
C1303 C1296 1.409 . S
C1303 C1302 1.362 . S
H1304 C1310 0.930 . S
H1305 C1313 0.930 . S
H1306 C1314 0.930 . S
H1307 C1315 0.930 . S
H1308 C1318 0.930 . S
H1309 C1319 0.930 . S
C1310 H1304 0.930 . S
C1310 C1311 1.355 1_565 S
C1310 C1312 1.415 . S
C1311 C1310 1.355 1_545 S
C1311 C1313 1.419 . S
C1312 C1310 1.415 . S
C1312 C1317 1.425 . S
C1312 C1319 1.409 . S
C1313 H1305 0.930 . S
C1313 C1311 1.419 . S
C1313 C1314 1.362 1_545 S
C1314 H1306 0.930 . S
C1314 C1313 1.362 1_565 S
C1314 C1317 1.409 . S
C1315 H1307 0.930 . S
C1315 C1316 1.355 . S
C1315 C1317 1.415 . S
C1316 C1315 1.355 . S
C1316 C1318 1.419 . S
C1317 C1312 1.425 . S
C1317 C1314 1.409 . S
C1317 C1315 1.415 . S
C1318 H1308 0.930 . S
C1318 C1316 1.419 . S
C1318 C1319 1.362 . S
C1319 H1309 0.930 . S
C1319 C1312 1.409 . S
C1319 C1318 1.362 . S
H1320 C1326 0.930 . S
H1321 C1329 0.930 . S
H1322 C1330 0.930 . S
H1323 C1331 0.930 . S
H1324 C1334 0.930 . S
H1325 C1335 0.930 . S
C1326 H1320 0.930 . S
C1326 C1327 1.355 . S
C1326 C1328 1.415 . S
C1327 C1326 1.355 . S
C1327 C1329 1.419 . S
C1328 C1326 1.415 . S
C1328 C1333 1.425 . S
C1328 C1335 1.409 . S
C1329 H1321 0.930 . S
C1329 C1327 1.419 . S
C1329 C1330 1.362 . S
C1330 H1322 0.930 . S
C1330 C1329 1.362 . S
C1330 C1333 1.409 . S
C1331 H1323 0.930 . S
C1331 C1332 1.355 . S
C1331 C1333 1.415 . S
C1332 C1331 1.355 . S
C1332 C1334 1.419 . S
C1333 C1328 1.425 . S
C1333 C1330 1.409 . S
C1333 C1331 1.415 . S
C1334 H1324 0.930 . S
C1334 C1332 1.419 . S
C1334 C1335 1.362 . S
C1335 H1325 0.930 . S
C1335 C1328 1.409 . S
C1335 C1334 1.362 . S
H1336 C1342 0.930 . S
H1337 C1345 0.930 . S
H1338 C1346 0.930 . S
H1339 C1347 0.930 . S
H1340 C1350 0.930 . S
H1341 C1351 0.930 . S
C1342 H1336 0.930 . S
C1342 C1343 1.355 . S
C1342 C1344 1.415 . S
C1343 C1342 1.355 . S
C1343 C1345 1.419 . S
C1344 C1342 1.415 . S
C1344 C1349 1.425 . S
C1344 C1351 1.409 . S
C1345 H1337 0.930 . S
C1345 C1343 1.419 . S
C1345 C1346 1.362 . S
C1346 H1338 0.930 . S
C1346 C1345 1.362 . S
C1346 C1349 1.409 . S
C1347 H1339 0.930 . S
C1347 C1348 1.355 . S
C1347 C1349 1.415 . S
C1348 C1347 1.355 . S
C1348 C1350 1.419 . S
C1349 C1344 1.425 . S
C1349 C1346 1.409 . S
C1349 C1347 1.415 . S
C1350 H1340 0.930 . S
C1350 C1348 1.419 . S
C1350 C1351 1.362 . S
C1351 H1341 0.930 . S
C1351 C1344 1.409 . S
C1351 C1350 1.362 . S
H1352 C1358 0.930 . S
H1353 C1361 0.930 . S
H1354 C1362 0.930 . S
H1355 C1363 0.930 . S
H1356 C1366 0.930 . S
H1357 C1367 0.930 . S
C1358 H1352 0.930 . S
C1358 C1359 1.355 . S
C1358 C1360 1.415 . S
C1359 C1358 1.355 . S
C1359 C1361 1.419 . S
C1360 C1358 1.415 . S
C1360 C1365 1.425 . S
C1360 C1367 1.409 . S
C1361 H1353 0.930 . S
C1361 C1359 1.419 . S
C1361 C1362 1.362 . S
C1362 H1354 0.930 . S
C1362 C1361 1.362 . S
C1362 C1365 1.409 . S
C1363 H1355 0.930 . S
C1363 C1364 1.355 . S
C1363 C1365 1.415 . S
C1364 C1363 1.355 . S
C1364 C1366 1.419 . S
C1365 C1360 1.425 . S
C1365 C1362 1.409 . S
C1365 C1363 1.415 . S
C1366 H1356 0.930 . S
C1366 C1364 1.419 . S
C1366 C1367 1.362 . S
C1367 H1357 0.930 . S
C1367 C1360 1.409 . S
C1367 C1366 1.362 . S
H1368 C1374 0.930 . S
H1369 C1377 0.930 . S
H1370 C1378 0.930 . S
H1371 C1379 0.930 . S
H1372 C1382 0.930 . S
H1373 C1383 0.930 . S
C1374 H1368 0.930 . S
C1374 C1375 1.355 . S
C1374 C1376 1.415 . S
C1375 C1374 1.355 . S
C1375 C1377 1.419 . S
C1376 C1374 1.415 . S
C1376 C1381 1.425 . S
C1376 C1383 1.409 . S
C1377 H1369 0.930 . S
C1377 C1375 1.419 . S
C1377 C1378 1.362 . S
C1378 H1370 0.930 . S
C1378 C1377 1.362 . S
C1378 C1381 1.409 . S
C1379 H1371 0.930 . S
C1379 C1380 1.355 . S
C1379 C1381 1.415 . S
C1380 C1379 1.355 . S
C1380 C1382 1.419 . S
C1381 C1376 1.425 . S
C1381 C1378 1.409 . S
C1381 C1379 1.415 . S
C1382 H1372 0.930 . S
C1382 C1380 1.419 . S
C1382 C1383 1.362 . S
C1383 H1373 0.930 . S
C1383 C1376 1.409 . S
C1383 C1382 1.362 . S
H1384 C1390 0.930 . S
H1385 C1393 0.930 . S
H1386 C1394 0.930 . S
H1387 C1395 0.930 . S
H1388 C1398 0.930 . S
H1389 C1399 0.930 . S
C1390 H1384 0.930 . S
C1390 C1391 1.355 . S
C1390 C1392 1.415 . S
C1391 C1390 1.355 . S
C1391 C1393 1.419 . S
C1392 C1390 1.415 . S
C1392 C1397 1.425 . S
C1392 C1399 1.409 . S
C1393 H1385 0.930 . S
C1393 C1391 1.419 . S
C1393 C1394 1.362 . S
C1394 H1386 0.930 . S
C1394 C1393 1.362 . S
C1394 C1397 1.409 . S
C1395 H1387 0.930 . S
C1395 C1396 1.355 . S
C1395 C1397 1.415 . S
C1396 C1395 1.355 . S
C1396 C1398 1.419 . S
C1397 C1392 1.425 . S
C1397 C1394 1.409 . S
C1397 C1395 1.415 . S
C1398 H1388 0.930 . S
C1398 C1396 1.419 . S
C1398 C1399 1.362 . S
C1399 H1389 0.930 . S
C1399 C1392 1.409 . S
C1399 C1398 1.362 . S
H1400 C1406 0.930 . S
H1401 C1409 0.930 . S
H1402 C1410 0.930 . S
H1403 C1411 0.930 . S
H1404 C1414 0.930 . S
H1405 C1415 0.930 . S
C1406 H1400 0.930 . S
C1406 C1407 1.355 . S
C1406 C1408 1.415 . S
C1407 C1406 1.355 . S
C1407 C1409 1.419 . S
C1408 C1406 1.415 . S
C1408 C1413 1.425 . S
C1408 C1415 1.409 . S
C1409 H1401 0.930 . S
C1409 C1407 1.419 . S
C1409 C1410 1.362 . S
C1410 H1402 0.930 . S
C1410 C1409 1.362 . S
C1410 C1413 1.409 . S
C1411 H1403 0.930 . S
C1411 C1412 1.355 . S
C1411 C1413 1.415 . S
C1412 C1411 1.355 . S
C1412 C1414 1.419 . S
C1413 C1408 1.425 . S
C1413 C1410 1.409 . S
C1413 C1411 1.415 . S
C1414 H1404 0.930 . S
C1414 C1412 1.419 . S
C1414 C1415 1.362 . S
C1415 H1405 0.930 . S
C1415 C1408 1.409 . S
C1415 C1414 1.362 . S
H1416 C1422 0.930 . S
H1417 C1425 0.930 1_545 S
H1418 C1426 0.930 . S
H1419 C1427 0.930 . S
H1420 C1430 0.930 . S
H1421 C1431 0.930 . S
C1422 H1416 0.930 . S
C1422 C1423 1.355 1_565 S
C1422 C1424 1.415 . S
C1423 C1422 1.355 1_545 S
C1423 C1425 1.419 1_545 S
C1424 C1422 1.415 . S
C1424 C1429 1.425 . S
C1424 C1431 1.409 . S
C1425 H1417 0.930 1_565 S
C1425 C1423 1.419 1_565 S
C1425 C1426 1.362 . S
C1426 H1418 0.930 . S
C1426 C1425 1.362 . S
C1426 C1429 1.409 . S
C1427 H1419 0.930 . S
C1427 C1428 1.355 . S
C1427 C1429 1.415 . S
C1428 C1427 1.355 . S
C1428 C1430 1.419 . S
C1429 C1424 1.425 . S
C1429 C1426 1.409 . S
C1429 C1427 1.415 . S
C1430 H1420 0.930 . S
C1430 C1428 1.419 . S
C1430 C1431 1.362 . S
C1431 H1421 0.930 . S
C1431 C1424 1.409 . S
C1431 C1430 1.362 . S
H1432 C1438 0.930 . S
H1433 C1441 0.930 1_655 S
H1434 C1442 0.930 . S
H1435 C1443 0.930 . S
H1436 C1446 0.930 . S
H1437 C1447 0.930 . S
C1438 H1432 0.930 . S
C1438 C1439 1.355 . S
C1438 C1440 1.415 . S
C1439 C1438 1.355 . S
C1439 C1441 1.419 . S
C1440 C1438 1.415 . S
C1440 C1445 1.425 . S
C1440 C1447 1.409 . S
C1441 H1433 0.930 1_455 S
C1441 C1439 1.419 . S
C1441 C1442 1.362 . S
C1442 H1434 0.930 . S
C1442 C1441 1.362 . S
C1442 C1445 1.409 . S
C1443 H1435 0.930 . S
C1443 C1444 1.355 . S
C1443 C1445 1.415 . S
C1444 C1443 1.355 . S
C1444 C1446 1.419 . S
C1445 C1440 1.425 . S
C1445 C1442 1.409 . S
C1445 C1443 1.415 . S
C1446 H1436 0.930 . S
C1446 C1444 1.419 . S
C1446 C1447 1.362 . S
C1447 H1437 0.930 . S
C1447 C1440 1.409 . S
C1447 C1446 1.362 . S
H1448 C1454 0.930 . S
H1449 C1457 0.930 . S
H1450 C1458 0.930 . S
H1451 C1459 0.930 . S
H1452 C1462 0.930 . S
H1453 C1463 0.930 . S
C1454 H1448 0.930 . S
C1454 C1455 1.355 . S
C1454 C1456 1.415 . S
C1455 C1454 1.355 . S
C1455 C1457 1.419 . S
C1456 C1454 1.415 . S
C1456 C1461 1.425 . S
C1456 C1463 1.409 . S
C1457 H1449 0.930 . S
C1457 C1455 1.419 . S
C1457 C1458 1.362 . S
C1458 H1450 0.930 . S
C1458 C1457 1.362 . S
C1458 C1461 1.409 . S
C1459 H1451 0.930 . S
C1459 C1460 1.355 . S
C1459 C1461 1.415 . S
C1460 C1459 1.355 . S
C1460 C1462 1.419 . S
C1461 C1456 1.425 . S
C1461 C1458 1.409 . S
C1461 C1459 1.415 . S
C1462 H1452 0.930 . S
C1462 C1460 1.419 . S
C1462 C1463 1.362 . S
C1463 H1453 0.930 . S
C1463 C1456 1.409 . S
C1463 C1462 1.362 . S
H1464 C1470 0.930 . S
H1465 C1473 0.930 . S
H1466 C1474 0.930 . S
H1467 C1475 0.930 . S
H1468 C1478 0.930 . S
H1469 C1479 0.930 . S
C1470 H1464 0.930 . S
C1470 C1471 1.355 . S
C1470 C1472 1.415 . S
C1471 C1470 1.355 . S
C1471 C1473 1.419 . S
C1472 C1470 1.415 . S
C1472 C1477 1.425 . S
C1472 C1479 1.409 . S
C1473 H1465 0.930 . S
C1473 C1471 1.419 . S
C1473 C1474 1.362 . S
C1474 H1466 0.930 . S
C1474 C1473 1.362 . S
C1474 C1477 1.409 . S
C1475 H1467 0.930 . S
C1475 C1476 1.355 . S
C1475 C1477 1.415 . S
C1476 C1475 1.355 . S
C1476 C1478 1.419 . S
C1477 C1472 1.425 . S
C1477 C1474 1.409 . S
C1477 C1475 1.415 . S
C1478 H1468 0.930 . S
C1478 C1476 1.419 . S
C1478 C1479 1.362 . S
C1479 H1469 0.930 . S
C1479 C1472 1.409 . S
C1479 C1478 1.362 . S
H1480 C1486 0.930 . S
H1481 C1489 0.930 . S
H1482 C1490 0.930 . S
H1483 C1491 0.930 . S
H1484 C1494 0.930 . S
H1485 C1495 0.930 . S
C1486 H1480 0.930 . S
C1486 C1487 1.355 . S
C1486 C1488 1.415 . S
C1487 C1486 1.355 . S
C1487 C1489 1.419 . S
C1488 C1486 1.415 . S
C1488 C1493 1.425 . S
C1488 C1495 1.409 . S
C1489 H1481 0.930 . S
C1489 C1487 1.419 . S
C1489 C1490 1.362 . S
C1490 H1482 0.930 . S
C1490 C1489 1.362 . S
C1490 C1493 1.409 . S
C1491 H1483 0.930 . S
C1491 C1492 1.355 . S
C1491 C1493 1.415 . S
C1492 C1491 1.355 . S
C1492 C1494 1.419 . S
C1493 C1488 1.425 . S
C1493 C1490 1.409 . S
C1493 C1491 1.415 . S
C1494 H1484 0.930 . S
C1494 C1492 1.419 . S
C1494 C1495 1.362 . S
C1495 H1485 0.930 . S
C1495 C1488 1.409 . S
C1495 C1494 1.362 . S
H1496 C1502 0.930 . S
H1497 C1505 0.930 . S
H1498 C1506 0.930 . S
H1499 C1507 0.930 . S
H1500 C1510 0.930 . S
H1501 C1511 0.930 . S
C1502 H1496 0.930 . S
C1502 C1503 1.355 . S
C1502 C1504 1.415 . S
C1503 C1502 1.355 . S
C1503 C1505 1.419 . S
C1504 C1502 1.415 . S
C1504 C1509 1.425 . S
C1504 C1511 1.409 . S
C1505 H1497 0.930 . S
C1505 C1503 1.419 . S
C1505 C1506 1.362 . S
C1506 H1498 0.930 . S
C1506 C1505 1.362 . S
C1506 C1509 1.409 . S
C1507 H1499 0.930 . S
C1507 C1508 1.355 . S
C1507 C1509 1.415 . S
C1508 C1507 1.355 . S
C1508 C1510 1.419 . S
C1509 C1504 1.425 . S
C1509 C1506 1.409 . S
C1509 C1507 1.415 . S
C1510 H1500 0.930 . S
C1510 C1508 1.419 . S
C1510 C1511 1.362 . S
C1511 H1501 0.930 . S
C1511 C1504 1.409 . S
C1511 C1510 1.362 . S
H1512 C1518 0.930 . S
H1513 C1521 0.930 1_565 S
H1514 C1522 0.930 . S
H1515 C1523 0.930 . S
H1516 C1526 0.930 . S
H1517 C1527 0.930 . S
C1518 H1512 0.930 . S
C1518 C1519 1.355 1_545 S
C1518 C1520 1.415 . S
C1519 C1518 1.355 1_565 S
C1519 C1521 1.419 1_565 S
C1520 C1518 1.415 . S
C1520 C1525 1.425 . S
C1520 C1527 1.409 . S
C1521 H1513 0.930 1_545 S
C1521 C1519 1.419 1_545 S
C1521 C1522 1.362 . S
C1522 H1514 0.930 . S
C1522 C1521 1.362 . S
C1522 C1525 1.409 . S
C1523 H1515 0.930 . S
C1523 C1524 1.355 . S
C1523 C1525 1.415 . S
C1524 C1523 1.355 . S
C1524 C1526 1.419 . S
C1525 C1520 1.425 . S
C1525 C1522 1.409 . S
C1525 C1523 1.415 . S
C1526 H1516 0.930 . S
C1526 C1524 1.419 . S
C1526 C1527 1.362 . S
C1527 H1517 0.930 . S
C1527 C1520 1.409 . S
C1527 C1526 1.362 . S
H1528 C1534 0.930 . S
H1529 C1537 0.930 . S
H1530 C1538 0.930 . S
H1531 C1539 0.930 . S
H1532 C1542 0.930 . S
H1533 C1543 0.930 . S
C1534 H1528 0.930 . S
C1534 C1535 1.355 . S
C1534 C1536 1.415 . S
C1535 C1534 1.355 . S
C1535 C1537 1.419 . S
C1536 C1534 1.415 . S
C1536 C1541 1.425 . S
C1536 C1543 1.409 . S
C1537 H1529 0.930 . S
C1537 C1535 1.419 . S
C1537 C1538 1.362 . S
C1538 H1530 0.930 . S
C1538 C1537 1.362 . S
C1538 C1541 1.409 . S
C1539 H1531 0.930 . S
C1539 C1540 1.355 . S
C1539 C1541 1.415 . S
C1540 C1539 1.355 . S
C1540 C1542 1.419 . S
C1541 C1536 1.425 . S
C1541 C1538 1.409 . S
C1541 C1539 1.415 . S
C1542 H1532 0.930 . S
C1542 C1540 1.419 . S
C1542 C1543 1.362 . S
C1543 H1533 0.930 . S
C1543 C1536 1.409 . S
C1543 C1542 1.362 . S
H1544 C1550 0.930 . S
H1545 C1553 0.930 . S
H1546 C1554 0.930 . S
H1547 C1555 0.930 . S
H1548 C1558 0.930 . S
H1549 C1559 0.930 . S
C1550 H1544 0.930 . S
C1550 C1551 1.355 . S
C1550 C1552 1.415 . S
C1551 C1550 1.355 . S
C1551 C1553 1.419 . S
C1552 C1550 1.415 . S
C1552 C1557 1.425 . S
C1552 C1559 1.409 . S
C1553 H1545 0.930 . S
C1553 C1551 1.419 . S
C1553 C1554 1.362 . S
C1554 H1546 0.930 . S
C1554 C1553 1.362 . S
C1554 C1557 1.409 . S
C1555 H1547 0.930 . S
C1555 C1556 1.355 . S
C1555 C1557 1.415 . S
C1556 C1555 1.355 . S
C1556 C1558 1.419 . S
C1557 C1552 1.425 . S
C1557 C1554 1.409 . S
C1557 C1555 1.415 . S
C1558 H1548 0.930 . S
C1558 C1556 1.419 . S
C1558 C1559 1.362 . S
C1559 H1549 0.930 . S
C1559 C1552 1.409 . S
C1559 C1558 1.362 . S
H1560 C1566 0.930 . S
H1561 C1569 0.930 . S
H1562 C1570 0.930 . S
H1563 C1571 0.930 . S
H1564 C1574 0.930 . S
H1565 C1575 0.930 . S
C1566 H1560 0.930 . S
C1566 C1567 1.355 . S
C1566 C1568 1.415 . S
C1567 C1566 1.355 . S
C1567 C1569 1.419 . S
C1568 C1566 1.415 . S
C1568 C1573 1.425 . S
C1568 C1575 1.409 . S
C1569 H1561 0.930 . S
C1569 C1567 1.419 . S
C1569 C1570 1.362 . S
C1570 H1562 0.930 . S
C1570 C1569 1.362 . S
C1570 C1573 1.409 . S
C1571 H1563 0.930 . S
C1571 C1572 1.355 . S
C1571 C1573 1.415 . S
C1572 C1571 1.355 . S
C1572 C1574 1.419 . S
C1573 C1568 1.425 . S
C1573 C1570 1.409 . S
C1573 C1571 1.415 . S
C1574 H1564 0.930 . S
C1574 C1572 1.419 . S
C1574 C1575 1.362 . S
C1575 H1565 0.930 . S
C1575 C1568 1.409 . S
C1575 C1574 1.362 . S
H1576 C1582 0.930 . S
H1577 C1585 0.930 . S
H1578 C1586 0.930 . S
H1579 C1587 0.930 . S
H1580 C1590 0.930 . S
H1581 C1591 0.930 . S
C1582 H1576 0.930 . S
C1582 C1583 1.355 . S
C1582 C1584 1.415 . S
C1583 C1582 1.355 . S
C1583 C1585 1.419 . S
C1584 C1582 1.415 . S
C1584 C1589 1.425 . S
C1584 C1591 1.409 . S
C1585 H1577 0.930 . S
C1585 C1583 1.419 . S
C1585 C1586 1.362 . S
C1586 H1578 0.930 . S
C1586 C1585 1.362 . S
C1586 C1589 1.409 . S
C1587 H1579 0.930 . S
C1587 C1588 1.355 . S
C1587 C1589 1.415 . S
C1588 C1587 1.355 . S
C1588 C1590 1.419 . S
C1589 C1584 1.425 . S
C1589 C1586 1.409 . S
C1589 C1587 1.415 . S
C1590 H1580 0.930 . S
C1590 C1588 1.419 . S
C1590 C1591 1.362 . S
C1591 H1581 0.930 . S
C1591 C1584 1.409 . S
C1591 C1590 1.362 . S
H1592 C1598 0.930 . S
H1593 C1601 0.930 1_565 S
H1594 C1602 0.930 . S
H1595 C1603 0.930 . S
H1596 C1606 0.930 . S
H1597 C1607 0.930 . S
C1598 H1592 0.930 . S
C1598 C1599 1.355 1_545 S
C1598 C1600 1.415 . S
C1599 C1598 1.355 1_565 S
C1599 C1601 1.419 1_565 S
C1600 C1598 1.415 . S
C1600 C1605 1.425 . S
C1600 C1607 1.409 . S
C1601 H1593 0.930 1_545 S
C1601 C1599 1.419 1_545 S
C1601 C1602 1.362 . S
C1602 H1594 0.930 . S
C1602 C1601 1.362 . S
C1602 C1605 1.409 . S
C1603 H1595 0.930 . S
C1603 C1604 1.355 . S
C1603 C1605 1.415 . S
C1604 C1603 1.355 . S
C1604 C1606 1.419 . S
C1605 C1600 1.425 . S
C1605 C1602 1.409 . S
C1605 C1603 1.415 . S
C1606 H1596 0.930 . S
C1606 C1604 1.419 . S
C1606 C1607 1.362 . S
C1607 H1597 0.930 . S
C1607 C1600 1.409 . S
C1607 C1606 1.362 . S
H1608 C1614 0.930 . S
H1609 C1617 0.930 . S
H1610 C1618 0.930 . S
H1611 C1619 0.930 . S
H1612 C1622 0.930 . S
H1613 C1623 0.930 . S
C1614 H1608 0.930 . S
C1614 C1615 1.355 . S
C1614 C1616 1.415 . S
C1615 C1614 1.355 . S
C1615 C1617 1.419 . S
C1616 C1614 1.415 . S
C1616 C1621 1.425 . S
C1616 C1623 1.409 . S
C1617 H1609 0.930 . S
C1617 C1615 1.419 . S
C1617 C1618 1.362 . S
C1618 H1610 0.930 . S
C1618 C1617 1.362 . S
C1618 C1621 1.409 . S
C1619 H1611 0.930 . S
C1619 C1620 1.355 . S
C1619 C1621 1.415 . S
C1620 C1619 1.355 . S
C1620 C1622 1.419 . S
C1621 C1616 1.425 . S
C1621 C1618 1.409 . S
C1621 C1619 1.415 . S
C1622 H1612 0.930 . S
C1622 C1620 1.419 . S
C1622 C1623 1.362 . S
C1623 H1613 0.930 . S
C1623 C1616 1.409 . S
C1623 C1622 1.362 . S
H1624 C1630 0.930 . S
H1625 C1633 0.930 . S
H1626 C1634 0.930 . S
H1627 C1635 0.930 . S
H1628 C1638 0.930 . S
H1629 C1639 0.930 . S
C1630 H1624 0.930 . S
C1630 C1631 1.355 . S
C1630 C1632 1.415 . S
C1631 C1630 1.355 . S
C1631 C1633 1.419 . S
C1632 C1630 1.415 . S
C1632 C1637 1.425 . S
C1632 C1639 1.409 . S
C1633 H1625 0.930 . S
C1633 C1631 1.419 . S
C1633 C1634 1.362 . S
C1634 H1626 0.930 . S
C1634 C1633 1.362 . S
C1634 C1637 1.409 . S
C1635 H1627 0.930 . S
C1635 C1636 1.355 . S
C1635 C1637 1.415 . S
C1636 C1635 1.355 . S
C1636 C1638 1.419 . S
C1637 C1632 1.425 . S
C1637 C1634 1.409 . S
C1637 C1635 1.415 . S
C1638 H1628 0.930 . S
C1638 C1636 1.419 . S
C1638 C1639 1.362 . S
C1639 H1629 0.930 . S
C1639 C1632 1.409 . S
C1639 C1638 1.362 . S
H1640 C1646 0.930 . S
H1641 C1649 0.930 . S
H1642 C1650 0.930 . S
H1643 C1651 0.930 . S
H1644 C1654 0.930 . S
H1645 C1655 0.930 . S
C1646 H1640 0.930 . S
C1646 C1647 1.355 . S
C1646 C1648 1.415 . S
C1647 C1646 1.355 . S
C1647 C1649 1.419 . S
C1648 C1646 1.415 . S
C1648 C1653 1.425 . S
C1648 C1655 1.409 . S
C1649 H1641 0.930 . S
C1649 C1647 1.419 . S
C1649 C1650 1.362 . S
C1650 H1642 0.930 . S
C1650 C1649 1.362 . S
C1650 C1653 1.409 . S
C1651 H1643 0.930 . S
C1651 C1652 1.355 . S
C1651 C1653 1.415 . S
C1652 C1651 1.355 . S
C1652 C1654 1.419 . S
C1653 C1648 1.425 . S
C1653 C1650 1.409 . S
C1653 C1651 1.415 . S
C1654 H1644 0.930 . S
C1654 C1652 1.419 . S
C1654 C1655 1.362 . S
C1655 H1645 0.930 . S
C1655 C1648 1.409 . S
C1655 C1654 1.362 . S
H1656 C1662 0.930 . S
H1657 C1665 0.930 . S
H1658 C1666 0.892 1_545 S
H1659 C1667 0.930 1_545 S
H1660 C1670 0.930 . S
H1661 C1671 0.930 . S
C1662 H1656 0.930 . S
C1662 C1663 1.355 . S
C1662 C1664 1.415 . S
C1663 C1662 1.355 . S
C1663 C1665 1.419 . S
C1664 C1662 1.415 . S
C1664 C1669 1.425 . S
C1664 C1671 1.409 . S
C1665 H1657 0.930 . S
C1665 C1663 1.419 . S
C1665 C1666 1.379 . S
C1666 H1658 0.892 1_565 S
C1666 C1665 1.379 . S
C1666 C1669 1.431 . S
C1667 H1659 0.930 1_565 S
C1667 C1668 1.355 . S
C1667 C1669 1.415 . S
C1668 C1667 1.355 . S
C1668 C1670 1.419 . S
C1669 C1664 1.425 . S
C1669 C1666 1.431 . S
C1669 C1667 1.415 . S
C1670 H1660 0.930 . S
C1670 C1668 1.419 . S
C1670 C1671 1.362 . S
C1671 H1661 0.930 . S
C1671 C1664 1.409 . S
C1671 C1670 1.362 . S
H1672 C1678 0.930 . S
H1673 C1681 0.930 . S
H1674 C1682 0.930 . S
H1675 C1683 0.930 . S
H1676 C1686 0.930 . S
H1677 C1687 0.930 . S
C1678 H1672 0.930 . S
C1678 C1679 1.355 . S
C1678 C1680 1.415 . S
C1679 C1678 1.355 . S
C1679 C1681 1.419 1_455 S
C1680 C1678 1.415 . S
C1680 C1685 1.390 1_455 S
C1680 C1687 1.409 . S
C1681 H1673 0.930 . S
C1681 C1679 1.419 1_655 S
C1681 C1682 1.362 . S
C1682 H1674 0.930 . S
C1682 C1681 1.362 . S
C1682 C1685 1.444 . S
C1683 H1675 0.930 . S
C1683 C1684 1.355 1_655 S
C1683 C1685 1.415 . S
C1684 C1683 1.355 1_455 S
C1684 C1686 1.419 . S
C1685 C1680 1.390 1_655 S
C1685 C1682 1.444 . S
C1685 C1683 1.415 . S
C1686 H1676 0.930 . S
C1686 C1684 1.419 . S
C1686 C1687 1.362 . S
C1687 H1677 0.930 . S
C1687 C1680 1.409 . S
C1687 C1686 1.362 . S
H1688 C1694 0.930 . S
H1689 C1697 0.930 . S
H1690 C1698 0.930 . S
H1691 C1699 0.930 . S
H1692 C1702 0.930 . S
H1693 C1703 0.930 . S
C1694 H1688 0.930 . S
C1694 C1695 1.355 . S
C1694 C1696 1.415 . S
C1695 C1694 1.355 . S
C1695 C1697 1.419 . S
C1696 C1694 1.415 . S
C1696 C1701 1.425 . S
C1696 C1703 1.409 . S
C1697 H1689 0.930 . S
C1697 C1695 1.419 . S
C1697 C1698 1.362 . S
C1698 H1690 0.930 . S
C1698 C1697 1.362 . S
C1698 C1701 1.409 . S
C1699 H1691 0.930 . S
C1699 C1700 1.355 . S
C1699 C1701 1.415 . S
C1700 C1699 1.355 . S
C1700 C1702 1.419 . S
C1701 C1696 1.425 . S
C1701 C1698 1.409 . S
C1701 C1699 1.415 . S
C1702 H1692 0.930 . S
C1702 C1700 1.419 . S
C1702 C1703 1.362 . S
C1703 H1693 0.930 . S
C1703 C1696 1.409 . S
C1703 C1702 1.362 . S
H1704 C1710 0.930 . S
H1705 C1713 0.925 . S
H1706 C1714 0.914 . S
H1707 C1715 0.930 . S
H1708 C1718 0.930 . S
H1709 C1719 0.930 . S
C1710 H1704 0.930 . S
C1710 C1711 1.355 . S
C1710 C1712 1.415 . S
C1711 C1710 1.355 . S
C1711 C1713 1.432 1_655 S
C1712 C1710 1.415 . S
C1712 C1717 1.425 . S
C1712 C1719 1.409 . S
C1713 H1705 0.925 . S
C1713 C1711 1.432 1_455 S
C1713 C1714 1.356 1_455 S
C1714 H1706 0.914 . S
C1714 C1713 1.356 1_655 S
C1714 C1717 1.409 . S
C1715 H1707 0.930 . S
C1715 C1716 1.355 . S
C1715 C1717 1.415 . S
C1716 C1715 1.355 . S
C1716 C1718 1.419 . S
C1717 C1712 1.425 . S
C1717 C1714 1.409 . S
C1717 C1715 1.415 . S
C1718 H1708 0.930 . S
C1718 C1716 1.419 . S
C1718 C1719 1.362 . S
C1719 H1709 0.930 . S
C1719 C1712 1.409 . S
C1719 C1718 1.362 . S
H1720 C1726 0.930 . S
H1721 C1729 0.930 . S
H1722 C1730 0.930 . S
H1723 C1731 0.930 . S
H1724 C1734 0.930 . S
H1725 C1735 0.930 . S
C1726 H1720 0.930 . S
C1726 C1727 1.355 . S
C1726 C1728 1.415 . S
C1727 C1726 1.355 . S
C1727 C1729 1.419 . S
C1728 C1726 1.415 . S
C1728 C1733 1.425 . S
C1728 C1735 1.409 . S
C1729 H1721 0.930 . S
C1729 C1727 1.419 . S
C1729 C1730 1.362 . S
C1730 H1722 0.930 . S
C1730 C1729 1.362 . S
C1730 C1733 1.409 . S
C1731 H1723 0.930 . S
C1731 C1732 1.355 . S
C1731 C1733 1.415 . S
C1732 C1731 1.355 . S
C1732 C1734 1.419 . S
C1733 C1728 1.425 . S
C1733 C1730 1.409 . S
C1733 C1731 1.415 . S
C1734 H1724 0.930 . S
C1734 C1732 1.419 . S
C1734 C1735 1.362 . S
C1735 H1725 0.930 . S
C1735 C1728 1.409 . S
C1735 C1734 1.362 . S
H1736 C1742 0.930 1_565 S
H1737 C1745 0.930 . S
H1738 C1746 0.930 . S
H1739 C1747 0.930 . S
H1740 C1750 0.930 . S
H1741 C1751 0.930 . S
C1742 H1736 0.930 1_545 S
C1742 C1743 1.355 . S
C1742 C1744 1.415 . S
C1743 C1742 1.355 . S
C1743 C1745 1.419 . S
C1744 C1742 1.415 . S
C1744 C1749 1.425 . S
C1744 C1751 1.409 1_545 S
C1745 H1737 0.930 . S
C1745 C1743 1.419 . S
C1745 C1746 1.362 . S
C1746 H1738 0.930 . S
C1746 C1745 1.362 . S
C1746 C1749 1.409 . S
C1747 H1739 0.930 . S
C1747 C1748 1.355 . S
C1747 C1749 1.415 . S
C1748 C1747 1.355 . S
C1748 C1750 1.419 1_545 S
C1749 C1744 1.425 . S
C1749 C1746 1.409 . S
C1749 C1747 1.415 . S
C1750 H1740 0.930 . S
C1750 C1748 1.419 1_565 S
C1750 C1751 1.362 . S
C1751 H1741 0.930 . S
C1751 C1744 1.409 1_565 S
C1751 C1750 1.362 . S
H1752 C1758 0.930 . S
H1753 C1761 0.930 . S
H1754 C1762 0.930 . S
H1755 C1763 0.930 . S
H1756 C1766 0.930 . S
H1757 C1767 0.930 . S
C1758 H1752 0.930 . S
C1758 C1759 1.355 . S
C1758 C1760 1.415 . S
C1759 C1758 1.355 . S
C1759 C1761 1.419 . S
C1760 C1758 1.415 . S
C1760 C1765 1.425 . S
C1760 C1767 1.409 . S
C1761 H1753 0.930 . S
C1761 C1759 1.419 . S
C1761 C1762 1.362 . S
C1762 H1754 0.930 . S
C1762 C1761 1.362 . S
C1762 C1765 1.409 . S
C1763 H1755 0.930 . S
C1763 C1764 1.355 . S
C1763 C1765 1.415 . S
C1764 C1763 1.355 . S
C1764 C1766 1.419 . S
C1765 C1760 1.425 . S
C1765 C1762 1.409 . S
C1765 C1763 1.415 . S
C1766 H1756 0.930 . S
C1766 C1764 1.419 . S
C1766 C1767 1.362 . S
C1767 H1757 0.930 . S
C1767 C1760 1.409 . S
C1767 C1766 1.362 . S
H1768 C1774 0.930 . S
H1769 C1777 0.930 . S
H1770 C1778 0.930 . S
H1771 C1779 0.930 . S
H1772 C1782 0.930 . S
H1773 C1783 0.930 . S
C1774 H1768 0.930 . S
C1774 C1775 1.355 . S
C1774 C1776 1.415 . S
C1775 C1774 1.355 . S
C1775 C1777 1.419 . S
C1776 C1774 1.415 . S
C1776 C1781 1.425 . S
C1776 C1783 1.409 . S
C1777 H1769 0.930 . S
C1777 C1775 1.419 . S
C1777 C1778 1.362 . S
C1778 H1770 0.930 . S
C1778 C1777 1.362 . S
C1778 C1781 1.409 . S
C1779 H1771 0.930 . S
C1779 C1780 1.355 . S
C1779 C1781 1.415 . S
C1780 C1779 1.355 . S
C1780 C1782 1.419 . S
C1781 C1776 1.425 . S
C1781 C1778 1.409 . S
C1781 C1779 1.415 . S
C1782 H1772 0.930 . S
C1782 C1780 1.419 . S
C1782 C1783 1.362 . S
C1783 H1773 0.930 . S
C1783 C1776 1.409 . S
C1783 C1782 1.362 . S
H1784 C1790 0.930 . S
H1785 C1793 0.930 . S
H1786 C1794 0.930 . S
H1787 C1795 0.930 . S
H1788 C1798 0.930 . S
H1789 C1799 0.930 . S
C1790 H1784 0.930 . S
C1790 C1791 1.355 . S
C1790 C1792 1.415 . S
C1791 C1790 1.355 . S
C1791 C1793 1.419 . S
C1792 C1790 1.415 . S
C1792 C1797 1.425 . S
C1792 C1799 1.409 . S
C1793 H1785 0.930 . S
C1793 C1791 1.419 . S
C1793 C1794 1.362 . S
C1794 H1786 0.930 . S
C1794 C1793 1.362 . S
C1794 C1797 1.409 . S
C1795 H1787 0.930 . S
C1795 C1796 1.355 . S
C1795 C1797 1.415 . S
C1796 C1795 1.355 . S
C1796 C1798 1.419 . S
C1797 C1792 1.425 . S
C1797 C1794 1.409 . S
C1797 C1795 1.415 . S
C1798 H1788 0.930 . S
C1798 C1796 1.419 . S
C1798 C1799 1.362 . S
C1799 H1789 0.930 . S
C1799 C1792 1.409 . S
C1799 C1798 1.362 . S
H1800 C1806 0.930 . S
H1801 C1809 0.930 . S
H1802 C1810 0.930 . S
H1803 C1811 0.930 . S
H1804 C1814 0.930 . S
H1805 C1815 0.930 . S
C1806 H1800 0.930 . S
C1806 C1807 1.355 . S
C1806 C1808 1.415 . S
C1807 C1806 1.355 . S
C1807 C1809 1.419 . S
C1808 C1806 1.415 . S
C1808 C1813 1.425 . S
C1808 C1815 1.409 . S
C1809 H1801 0.930 . S
C1809 C1807 1.419 . S
C1809 C1810 1.362 . S
C1810 H1802 0.930 . S
C1810 C1809 1.362 . S
C1810 C1813 1.409 . S
C1811 H1803 0.930 . S
C1811 C1812 1.355 . S
C1811 C1813 1.415 . S
C1812 C1811 1.355 . S
C1812 C1814 1.419 . S
C1813 C1808 1.425 . S
C1813 C1810 1.409 . S
C1813 C1811 1.415 . S
C1814 H1804 0.930 . S
C1814 C1812 1.419 . S
C1814 C1815 1.362 . S
C1815 H1805 0.930 . S
C1815 C1808 1.409 . S
C1815 C1814 1.362 . S
H1816 C1822 0.930 . S
H1817 C1825 0.930 . S
H1818 C1826 0.930 . S
H1819 C1827 0.930 . S
H1820 C1830 0.930 . S
H1821 C1831 0.930 . S
C1822 H1816 0.930 . S
C1822 C1823 1.355 . S
C1822 C1824 1.415 . S
C1823 C1822 1.355 . S
C1823 C1825 1.419 . S
C1824 C1822 1.415 . S
C1824 C1829 1.425 . S
C1824 C1831 1.409 . S
C1825 H1817 0.930 . S
C1825 C1823 1.419 . S
C1825 C1826 1.362 . S
C1826 H1818 0.930 . S
C1826 C1825 1.362 . S
C1826 C1829 1.409 . S
C1827 H1819 0.930 . S
C1827 C1828 1.355 . S
C1827 C1829 1.415 . S
C1828 C1827 1.355 . S
C1828 C1830 1.419 . S
C1829 C1824 1.425 . S
C1829 C1826 1.409 . S
C1829 C1827 1.415 . S
C1830 H1820 0.930 . S
C1830 C1828 1.419 . S
C1830 C1831 1.362 . S
C1831 H1821 0.930 . S
C1831 C1824 1.409 . S
C1831 C1830 1.362 . S
H1832 C1838 0.930 . S
H1833 C1841 0.930 . S
H1834 C1842 0.930 . S
H1835 C1843 0.930 . S
H1836 C1846 0.930 . S
H1837 C1847 0.930 . S
C1838 H1832 0.930 . S
C1838 C1839 1.355 . S
C1838 C1840 1.415 . S
C1839 C1838 1.355 . S
C1839 C1841 1.419 . S
C1840 C1838 1.415 . S
C1840 C1845 1.425 . S
C1840 C1847 1.409 . S
C1841 H1833 0.930 . S
C1841 C1839 1.419 . S
C1841 C1842 1.362 . S
C1842 H1834 0.930 . S
C1842 C1841 1.362 . S
C1842 C1845 1.409 . S
C1843 H1835 0.930 . S
C1843 C1844 1.355 . S
C1843 C1845 1.415 . S
C1844 C1843 1.355 . S
C1844 C1846 1.419 . S
C1845 C1840 1.425 . S
C1845 C1842 1.409 . S
C1845 C1843 1.415 . S
C1846 H1836 0.930 . S
C1846 C1844 1.419 . S
C1846 C1847 1.362 . S
C1847 H1837 0.930 . S
C1847 C1840 1.409 . S
C1847 C1846 1.362 . S
H1848 C1854 0.930 . S
H1849 C1857 0.930 . S
H1850 C1858 0.930 . S
H1851 C1859 0.930 . S
H1852 C1862 0.930 . S
H1853 C1863 0.930 . S
C1854 H1848 0.930 . S
C1854 C1855 1.355 . S
C1854 C1856 1.415 . S
C1855 C1854 1.355 . S
C1855 C1857 1.419 . S
C1856 C1854 1.415 . S
C1856 C1861 1.425 . S
C1856 C1863 1.409 . S
C1857 H1849 0.930 . S
C1857 C1855 1.419 . S
C1857 C1858 1.362 . S
C1858 H1850 0.930 . S
C1858 C1857 1.362 . S
C1858 C1861 1.409 . S
C1859 H1851 0.930 . S
C1859 C1860 1.355 . S
C1859 C1861 1.415 . S
C1860 C1859 1.355 . S
C1860 C1862 1.419 . S
C1861 C1856 1.425 . S
C1861 C1858 1.409 . S
C1861 C1859 1.415 . S
C1862 H1852 0.930 . S
C1862 C1860 1.419 . S
C1862 C1863 1.362 . S
C1863 H1853 0.930 . S
C1863 C1856 1.409 . S
C1863 C1862 1.362 . S
H1864 C1870 0.930 . S
H1865 C1873 0.930 . S
H1866 C1874 0.930 . S
H1867 C1875 0.930 . S
H1868 C1878 0.930 . S
H1869 C1879 0.930 . S
C1870 H1864 0.930 . S
C1870 C1871 1.355 . S
C1870 C1872 1.415 . S
C1871 C1870 1.355 . S
C1871 C1873 1.419 . S
C1872 C1870 1.415 . S
C1872 C1877 1.425 . S
C1872 C1879 1.409 . S
C1873 H1865 0.930 . S
C1873 C1871 1.419 . S
C1873 C1874 1.362 . S
C1874 H1866 0.930 . S
C1874 C1873 1.362 . S
C1874 C1877 1.409 . S
C1875 H1867 0.930 . S
C1875 C1876 1.355 . S
C1875 C1877 1.415 . S
C1876 C1875 1.355 . S
C1876 C1878 1.419 . S
C1877 C1872 1.425 . S
C1877 C1874 1.409 . S
C1877 C1875 1.415 . S
C1878 H1868 0.930 . S
C1878 C1876 1.419 . S
C1878 C1879 1.362 . S
C1879 H1869 0.930 . S
C1879 C1872 1.409 . S
C1879 C1878 1.362 . S
H1880 C1886 0.930 . S
H1881 C1889 0.930 . S
H1882 C1890 0.930 . S
H1883 C1891 0.930 . S
H1884 C1894 0.930 . S
H1885 C1895 0.930 . S
C1886 H1880 0.930 . S
C1886 C1887 1.355 . S
C1886 C1888 1.415 . S
C1887 C1886 1.355 . S
C1887 C1889 1.419 . S
C1888 C1886 1.415 . S
C1888 C1893 1.425 . S
C1888 C1895 1.409 . S
C1889 H1881 0.930 . S
C1889 C1887 1.419 . S
C1889 C1890 1.362 . S
C1890 H1882 0.930 . S
C1890 C1889 1.362 . S
C1890 C1893 1.409 . S
C1891 H1883 0.930 . S
C1891 C1892 1.355 . S
C1891 C1893 1.415 . S
C1892 C1891 1.355 . S
C1892 C1894 1.419 . S
C1893 C1888 1.425 . S
C1893 C1890 1.409 . S
C1893 C1891 1.415 . S
C1894 H1884 0.930 . S
C1894 C1892 1.419 . S
C1894 C1895 1.362 . S
C1895 H1885 0.930 . S
C1895 C1888 1.409 . S
C1895 C1894 1.362 . S
H1896 C1902 0.930 . S
H1897 C1905 0.930 . S
H1898 C1906 0.930 . S
H1899 C1907 0.930 . S
H1900 C1910 0.930 . S
H1901 C1911 0.930 . S
C1902 H1896 0.930 . S
C1902 C1903 1.355 . S
C1902 C1904 1.415 . S
C1903 C1902 1.355 . S
C1903 C1905 1.419 . S
C1904 C1902 1.415 . S
C1904 C1909 1.425 . S
C1904 C1911 1.409 . S
C1905 H1897 0.930 . S
C1905 C1903 1.419 . S
C1905 C1906 1.362 . S
C1906 H1898 0.930 . S
C1906 C1905 1.362 . S
C1906 C1909 1.409 . S
C1907 H1899 0.930 . S
C1907 C1908 1.355 . S
C1907 C1909 1.415 . S
C1908 C1907 1.355 . S
C1908 C1910 1.419 . S
C1909 C1904 1.425 . S
C1909 C1906 1.409 . S
C1909 C1907 1.415 . S
C1910 H1900 0.930 . S
C1910 C1908 1.419 . S
C1910 C1911 1.362 . S
C1911 H1901 0.930 . S
C1911 C1904 1.409 . S
C1911 C1910 1.362 . S
H1912 C1918 0.930 . S
H1913 C1921 0.930 . S
H1914 C1922 0.930 . S
H1915 C1923 0.930 . S
H1916 C1926 0.930 . S
H1917 C1927 0.930 . S
C1918 H1912 0.930 . S
C1918 C1919 1.355 . S
C1918 C1920 1.415 . S
C1919 C1918 1.355 . S
C1919 C1921 1.419 . S
C1920 C1918 1.415 . S
C1920 C1925 1.425 . S
C1920 C1927 1.409 . S
C1921 H1913 0.930 . S
C1921 C1919 1.419 . S
C1921 C1922 1.362 . S
C1922 H1914 0.930 . S
C1922 C1921 1.362 . S
C1922 C1925 1.409 . S
C1923 H1915 0.930 . S
C1923 C1924 1.355 . S
C1923 C1925 1.415 . S
C1924 C1923 1.355 . S
C1924 C1926 1.419 . S
C1925 C1920 1.425 . S
C1925 C1922 1.409 . S
C1925 C1923 1.415 . S
C1926 H1916 0.930 . S
C1926 C1924 1.419 . S
C1926 C1927 1.362 . S
C1927 H1917 0.930 . S
C1927 C1920 1.409 . S
C1927 C1926 1.362 . S
H1928 C1934 0.930 . S
H1929 C1937 0.930 . S
H1930 C1938 0.930 . S
H1931 C1939 0.930 . S
H1932 C1942 0.930 . S
H1933 C1943 0.930 . S
C1934 H1928 0.930 . S
C1934 C1935 1.355 . S
C1934 C1936 1.415 . S
C1935 C1934 1.355 . S
C1935 C1937 1.419 . S
C1936 C1934 1.415 . S
C1936 C1941 1.425 . S
C1936 C1943 1.409 . S
C1937 H1929 0.930 . S
C1937 C1935 1.419 . S
C1937 C1938 1.362 . S
C1938 H1930 0.930 . S
C1938 C1937 1.362 . S
C1938 C1941 1.409 . S
C1939 H1931 0.930 . S
C1939 C1940 1.355 . S
C1939 C1941 1.415 . S
C1940 C1939 1.355 . S
C1940 C1942 1.419 . S
C1941 C1936 1.425 . S
C1941 C1938 1.409 . S
C1941 C1939 1.415 . S
C1942 H1932 0.930 . S
C1942 C1940 1.419 . S
C1942 C1943 1.362 . S
C1943 H1933 0.930 . S
C1943 C1936 1.409 . S
C1943 C1942 1.362 . S
C1087 C522 1.748 . S
C1092 C729 1.679 . S
C1103 C562 1.813 . S
C1108 C769 1.743 . S
C1119 C495 1.844 . S
C1124 C808 1.845 . S
C1135 C455 1.619 . S
C1140 C768 1.656 . S
C1156 C809 1.458 . S
C1151 C362 1.490 . S
C1167 C402 1.599 . S
C1172 C728 1.562 1_556 S
C1188 C739 1.768 . S
C1183 C442 1.729 . S
C1204 C779 1.714 . S
C1199 C375 1.753 . S
C1215 C415 1.806 . S
C1220 C818 1.837 . S
C1231 C535 1.645 . S
C1236 C778 1.668 . S
C1247 C575 1.450 . S
C1252 C819 1.419 . S
C1268 C738 1.597 . S
C1263 C482 1.440 . S
C1284 C849 1.738 . S
C1279 C42 1.787 1_455 S
C1295 C82 1.814 . S
C1300 C889 1.746 . S
C1311 C15 1.800 . S
C1316 C928 1.856 . S
C1327 C695 1.604 . S
C1332 C888 1.615 . S
C1343 C602 1.506 . S
C1348 C929 1.450 . S
C1359 C642 1.598 . S
C1364 C848 1.587 . S
C1375 C682 1.679 . S
C1380 C859 1.719 . S
C1391 C615 1.761 . S
C1396 C899 1.725 . S
C1412 C938 1.872 . S
C1407 C655 1.831 . S
C1423 C55 1.674 . S
C1428 C898 1.667 . S
C1444 C939 1.448 . S
C1439 C95 1.466 1_455 S
C1455 C2 1.532 . S
C1460 C858 1.596 . S
C1476 C969 1.681 . S
C1471 C282 1.759 . S
C1487 C322 1.808 . S
C1492 C1009 1.742 . S
C1508 C1048 1.844 . S
C1503 C255 1.792 . S
C1524 C1008 1.632 . S
C1519 C215 1.655 . S
C1540 C1049 1.449 . S
C1535 C122 1.505 1_655 S
C1551 C162 1.597 . S
C1556 C968 1.568 . S
C1567 C202 1.677 1_655 S
C1572 C979 1.718 . S
C1583 C135 1.776 . S
C1588 C1019 1.747 . S
C1604 C1058 1.830 . S
C1599 C175 1.833 . S
C1615 C295 1.614 . S
C1620 C1018 1.628 . S
C1631 C335 1.499 . S
C1636 C1059 1.486 . S
C1647 C242 1.479 . S
C1652 C978 1.617 . S
C1663 C621 1.306 . S
C1668 C725 1.305 . S
C1684 C765 1.904 . S
C1679 C661 1.908 . S
C1695 C701 1.533 . S
C1700 C815 1.617 . S
C1711 C261 1.818 . S
C1716 C775 1.899 . S
C1727 C301 1.608 . S
C1732 C805 1.609 . S
C1748 C735 1.328 . S
C1743 C341 1.325 . S
C1759 C141 1.306 . S
C1764 C845 1.308 . S
C1775 C181 1.894 . S
C1780 C885 1.877 . S
C1791 C221 1.585 . S
C1796 C935 1.626 . S
C1807 C501 1.822 . S
C1812 C895 1.912 . S
C1828 C925 1.601 . S
C1823 C541 1.598 . S
C1839 C581 1.308 . S
C1844 C855 1.319 . S
C1855 C381 1.310 . S
C1860 C965 1.303 . S
C1871 C421 1.898 . S
C1876 C1005 1.881 . S
C1892 C1055 1.629 . S
C1887 C461 1.600 . S
C1903 C21 1.825 . S
C1908 C1015 1.914 . S
C1919 C61 1.608 . S
C1924 C1045 1.602 . S
C1935 C101 1.313 . S
C1940 C975 1.324 . S
