# Generated by pormake.
# Topology nia, (6,6)-cn, num edge types: 1
# Building blocks:
#     Node 0, Type 0, BuildingBlock: KUMJIN_clean_sbu_0, # of connection points: 6
#     Node 1, Type 0, BuildingBlock: KUMJIN_clean_sbu_0, # of connection points: 6
#     Node 2, Type 1, BuildingBlock: MIDCAF_clean_sbu_0, # of connection points: 6
#     Node 3, Type 1, BuildingBlock: MIDCAF_clean_sbu_0, # of connection points: 6
#     Edge 4, Type (0, 1), BuildingBlock: MIFKUJ_clean_linker_0, # of connection points: 2
#     Edge 5, Type (0, 1), BuildingBlock: MIFKUJ_clean_linker_0, # of connection points: 2
#     Edge 6, Type (0, 1), BuildingBlock: MIFKUJ_clean_linker_0, # of connection points: 2
#     Edge 7, Type (0, 1), BuildingBlock: MIFKUJ_clean_linker_0, # of connection points: 2
#     Edge 8, Type (0, 1), BuildingBlock: MIFKUJ_clean_linker_0, # of connection points: 2
#     Edge 9, Type (0, 1), BuildingBlock: MIFKUJ_clean_linker_0, # of connection points: 2
#     Edge 10, Type (0, 1), BuildingBlock: MIFKUJ_clean_linker_0, # of connection points: 2
#     Edge 11, Type (0, 1), BuildingBlock: MIFKUJ_clean_linker_0, # of connection points: 2
#     Edge 12, Type (0, 1), BuildingBlock: MIFKUJ_clean_linker_0, # of connection points: 2
#     Edge 13, Type (0, 1), BuildingBlock: MIFKUJ_clean_linker_0, # of connection points: 2
#     Edge 14, Type (0, 1), BuildingBlock: MIFKUJ_clean_linker_0, # of connection points: 2
#     Edge 15, Type (0, 1), BuildingBlock: MIFKUJ_clean_linker_0, # of connection points: 2
# Relax obj value: 0.166
# Max RMSD: 0.278
# Mean RMSD: 0.202
data_MOF--net-nia--node1-KUMJIN_clean_sbu_0--node2-MIDCAF_clean_sbu_0--edge1-MIFKUJ_clean_linker_0
_symmetry_space_group_name_H-M    P1
_symmetry_Int_Tables_number       1
_symmetry_cell_setting            triclinic
loop_
_symmetry_equiv_pos_as_xyz
'x, y, z'
_cell_length_a     35.397327
_cell_length_b     35.208961
_cell_length_c     42.012906
_cell_angle_alpha  90.090309
_cell_angle_beta   89.863771
_cell_angle_gamma 137.6678
loop_
_atom_site_label
_atom_site_type_symbol
_atom_site_fract_x
_atom_site_fract_y
_atom_site_fract_z
_atom_type_partial_charge
Eu0 Eu 0.04028 0.99554 0.03149 0.0
C1 C 0.96946 0.01003 0.90068 0.0
C2 C 0.05542 0.10235 0.88088 0.0
C3 C 0.98544 0.02708 0.84364 0.0
C4 C 0.02109 0.06533 0.90651 0.0
C5 C 0.95045 0.99095 0.86917 0.0
C6 C 0.03792 0.08255 0.84949 0.0
C7 C 0.86167 0.90356 0.89043 0.0
N8 N 0.93666 0.97559 0.92577 0.0
C9 C 0.88277 0.92356 0.92117 0.0
C10 C 0.89601 0.93681 0.86427 0.0
Eu11 Eu 0.97438 0.01502 0.97678 0.0
N12 N 0.03672 0.08365 0.93712 0.0
C13 C 0.08393 0.13931 0.94364 0.0
C14 C 0.10571 0.15863 0.88753 0.0
C15 C 0.11961 0.17733 0.91903 0.0
H16 H 0.85632 0.89731 0.9413 0.0
H17 H 0.1578 0.22105 0.92437 0.0
H18 H 0.06398 0.11028 0.82953 0.0
H19 H 0.81875 0.86279 0.88705 0.0
H20 H 0.09522 0.15444 0.96783 0.0
H21 H 0.85456 0.77502 0.06457 0.0
H22 H 0.13334 0.18827 0.86852 0.0
H23 H 0.1421 0.10753 0.0778 0.0
H24 H 0.92291 0.85383 0.02764 0.0
H25 H 0.16153 0.13027 0.13531 0.0
H26 H 0.97178 0.01294 0.81928 0.0
H27 H 0.86453 0.79237 0.12251 0.0
H28 H 0.9208 0.85966 0.16773 0.0
H29 H 0.87955 0.92103 0.84043 0.0
H30 H 0.00336 0.95597 0.18697 0.0
N31 N 0.9706 0.91627 0.0641 0.0
C32 C 0.92793 0.86244 0.05279 0.0
C33 C 0.89457 0.82746 0.10636 0.0
C34 C 0.93972 0.88234 0.1179 0.0
C35 C 0.8889 0.81745 0.07368 0.0
C36 C 0.97754 0.92675 0.09594 0.0
H37 H 0.09253 0.05691 0.17515 0.0
N38 N 0.06154 0.02334 0.08539 0.0
C39 C 0.12267 0.08849 0.12761 0.0
C40 C 0.02423 0.9815 0.10685 0.0
C41 C 0.11161 0.07554 0.09521 0.0
C42 C 0.08353 0.04694 0.15002 0.0
C43 C 0.03423 0.99244 0.13982 0.0
O44 O 0.12188 0.03002 0.02382 0.0
O45 O 0.04611 0.02905 0.98488 0.0
O46 O 0.96842 0.95391 0.95228 0.0
O47 O 0.99345 0.92841 0.99176 0.0
O48 O 0.11885 0.08157 0.01132 0.0
O49 O 0.05582 0.94747 0.04481 0.0
O50 O 0.90279 0.9948 0.99373 0.0
O51 O 0.96893 0.98144 0.02319 0.0
O52 O 0.04041 0.05316 0.05494 0.0
O53 O 0.03489 0.08964 0.0112 0.0
O54 O 0.89576 0.92931 0.99755 0.0
O55 O 0.96491 0.06838 0.96457 0.0
C56 C 0.09767 0.07516 0.98406 0.0
C57 C 0.14845 0.0086 0.0655 0.0
C58 C 0.17726 0.98769 0.1088 0.0
C59 C 0.14057 0.96934 0.08348 0.0
C60 C 0.22156 0.04564 0.11586 0.0
C61 C 0.19395 0.06638 0.07292 0.0
C62 C 0.22969 0.08449 0.09806 0.0
C63 C 0.97423 0.92309 0.96294 0.0
C64 C 0.10957 0.99002 0.0393 0.0
C65 C 0.99611 0.94835 0.16158 0.0
C66 C 0.94906 0.89353 0.15065 0.0
C67 C 0.91751 0.93523 0.0244 0.0
C68 C 0.86967 0.01401 0.95564 0.0
C69 C 0.87444 0.05314 0.94063 0.0
C70 C 0.833 0.03444 0.91907 0.0
C71 C 0.78691 0.97663 0.91263 0.0
C72 C 0.82198 0.95605 0.94962 0.0
C73 C 0.78132 0.9377 0.92803 0.0
C74 C 0.04593 0.09101 0.04162 0.0
C75 C 0.91476 0.03341 0.97675 0.0
H76 H 0.10601 0.92482 0.07785 0.0
H77 H 0.25117 0.06134 0.13465 0.0
H78 H 0.20204 0.098 0.05944 0.0
H79 H 0.26429 0.129 0.10355 0.0
H80 H 0.91038 0.09783 0.94541 0.0
H81 H 0.75451 0.96154 0.89622 0.0
H82 H 0.81608 0.92466 0.9614 0.0
H83 H 0.74521 0.89309 0.92333 0.0
Eu84 Eu 0.98608 0.02292 0.52934 0.0
C85 C 0.97992 0.94295 0.4038 0.0
C86 C 0.91207 0.84149 0.40698 0.0
C87 C 0.93609 0.88584 0.35561 0.0
C88 C 0.95171 0.89513 0.42177 0.0
C89 C 0.97113 0.93837 0.37055 0.0
C90 C 0.90581 0.83733 0.37382 0.0
C91 C 0.03011 0.03752 0.36903 0.0
N92 N 0.01417 0.9935 0.41883 0.0
C93 C 0.03817 0.04031 0.40181 0.0
C94 C 0.99762 0.98667 0.3532 0.0
Eu95 Eu 0.04246 0.99641 0.47121 0.0
N96 N 0.95984 0.90059 0.45383 0.0
C97 C 0.92393 0.85279 0.47238 0.0
C98 C 0.87879 0.79332 0.42592 0.0
C99 C 0.88372 0.79909 0.45878 0.0
H100 H 0.06609 0.0811 0.41234 0.0
H101 H 0.85637 0.76205 0.4738 0.0
H102 H 0.87687 0.79666 0.36207 0.0
H103 H 0.05083 0.07526 0.35582 0.0
H104 H 0.92357 0.85382 0.49777 0.0
H105 H 0.17785 0.22386 0.5806 0.0
H106 H 0.84769 0.75153 0.41548 0.0
H107 H 0.86891 0.90421 0.56544 0.0
H108 H 0.1135 0.15753 0.53741 0.0
H109 H 0.83318 0.86849 0.62019 0.0
H110 H 0.93123 0.88212 0.33002 0.0
H111 H 0.15143 0.19269 0.6367 0.0
H112 H 0.0802 0.11636 0.67609 0.0
H113 H 0.99309 0.98519 0.32764 0.0
H114 H 0.98698 0.02 0.68682 0.0
N115 N 0.05157 0.08907 0.56868 0.0
C116 C 0.10131 0.14341 0.56176 0.0
C117 C 0.12288 0.16337 0.61784 0.0
C118 C 0.07088 0.1082 0.6248 0.0
C119 C 0.13794 0.18114 0.5862 0.0
C120 C 0.03541 0.07151 0.59937 0.0
H121 H 0.89456 0.92773 0.66623 0.0
N122 N 0.94978 0.98236 0.58048 0.0
C123 C 0.87552 0.91007 0.61637 0.0
C124 C 0.98312 0.01674 0.60543 0.0
C125 C 0.8958 0.93042 0.58545 0.0
C126 C 0.91033 0.94366 0.64229 0.0
C127 C 0.96462 0.99786 0.63705 0.0
O128 O 0.91469 0.0058 0.51703 0.0
O129 O 0.97872 0.99373 0.47989 0.0
O130 O 0.08959 0.08676 0.464 0.0
O131 O 0.04278 0.09727 0.49502 0.0
O132 O 0.90669 0.93962 0.50786 0.0
O133 O 0.98222 0.08006 0.5441 0.0
O134 O 0.12107 0.05035 0.44483 0.0
O135 O 0.06084 0.04535 0.51417 0.0
O136 O 0.97599 0.95643 0.55081 0.0
O137 O 0.00961 0.93725 0.51307 0.0
O138 O 0.10035 0.02217 0.51152 0.0
O139 O 0.07316 0.96395 0.45461 0.0
C140 C 0.92692 0.94808 0.47979 0.0
C141 C 0.88984 0.03134 0.55718 0.0
C142 C 0.85847 0.05783 0.59361 0.0
C143 C 0.89713 0.07301 0.57086 0.0
C144 C 0.81309 0.00123 0.60278 0.0
C145 C 0.8427 0.97456 0.56592 0.0
C146 C 0.80516 0.95985 0.58886 0.0
C147 C 0.07967 0.11494 0.47281 0.0
C148 C 0.93111 0.04672 0.53405 0.0
C149 C 0.0003 0.03394 0.66238 0.0
C150 C 0.05334 0.08888 0.65628 0.0
C151 C 0.09443 0.04814 0.52843 0.0
C152 C 0.12258 0.00266 0.40556 0.0
C153 C 0.12679 0.96681 0.39835 0.0
C154 C 0.13195 0.95833 0.36653 0.0
C155 C 0.13184 0.98526 0.34197 0.0
C156 C 0.12554 0.03135 0.3806 0.0
C157 C 0.12903 0.02181 0.34905 0.0
C158 C 0.98661 0.92911 0.54104 0.0
C159 C 0.1153 0.00987 0.439 0.0
H160 H 0.93241 0.11677 0.56386 0.0
H161 H 0.78295 0.98892 0.62019 0.0
H162 H 0.83454 0.94123 0.55502 0.0
H163 H 0.76945 0.91611 0.59561 0.0
H164 H 0.12617 0.94566 0.41744 0.0
H165 H 0.13609 0.97967 0.31735 0.0
H166 H 0.12552 0.06146 0.38534 0.0
H167 H 0.13048 0.04357 0.33003 0.0
Zn168 Zn 0.38417 0.71091 0.19226 0.0
Zn169 Zn 0.37172 0.69633 0.31472 0.0
Zn170 Zn 0.37572 0.69556 0.25216 0.0
C171 C 0.48172 0.76046 0.29932 0.0
C172 C 0.30217 0.58395 0.29383 0.0
O173 O 0.34537 0.73115 0.23667 0.0
O174 O 0.34647 0.73114 0.18404 0.0
C175 C 0.49154 0.776 0.21086 0.0
O176 O 0.46077 0.74573 0.27103 0.0
O177 O 0.45168 0.74571 0.32324 0.0
O178 O 0.31741 0.61341 0.31829 0.0
O179 O 0.31993 0.60682 0.26602 0.0
O180 O 0.46623 0.7703 0.18695 0.0
O181 O 0.46461 0.75047 0.23716 0.0
O182 O 0.32359 0.61044 0.23225 0.0
O183 O 0.3432 0.63352 0.18137 0.0
C184 C 0.3192 0.59674 0.20295 0.0
O185 O 0.33932 0.7237 0.27 0.0
O186 O 0.34338 0.72648 0.32273 0.0
C187 C 0.33578 0.7404 0.20965 0.0
C188 C 0.32992 0.73279 0.29722 0.0
Zn189 Zn 0.64991 0.33099 0.81606 0.0
Zn190 Zn 0.63399 0.31138 0.69353 0.0
Zn191 Zn 0.64112 0.32327 0.75497 0.0
C192 C 0.71597 0.42768 0.70564 0.0
C193 C 0.52872 0.25734 0.71407 0.0
O194 O 0.67197 0.28969 0.77242 0.0
O195 O 0.68633 0.30899 0.82396 0.0
C196 C 0.71574 0.43889 0.79452 0.0
O197 O 0.6996 0.40959 0.73448 0.0
O198 O 0.69524 0.39317 0.68307 0.0
O199 O 0.55561 0.26974 0.68896 0.0
O200 O 0.55288 0.27257 0.74146 0.0
O201 O 0.69686 0.41141 0.82016 0.0
O202 O 0.7013 0.41379 0.76753 0.0
O203 O 0.55612 0.27437 0.77497 0.0
O204 O 0.57021 0.27873 0.82672 0.0
C205 C 0.53767 0.26189 0.80389 0.0
O206 O 0.66762 0.28449 0.73908 0.0
O207 O 0.64954 0.26865 0.68747 0.0
C208 C 0.68905 0.29004 0.79968 0.0
C209 C 0.66687 0.26555 0.71241 0.0
H210 H 0.15546 0.90023 0.08552 0.0
H211 H 0.16635 0.84796 0.11358 0.0
H212 H 0.20197 0.93468 0.20063 0.0
H213 H 0.18997 0.98626 0.17295 0.0
H214 H 0.28532 0.94664 0.18391 0.0
H215 H 0.08725 0.79671 0.19756 0.0
H216 H 0.98821 0.72766 0.1812 0.0
H217 H 0.01073 0.65047 0.11714 0.0
H218 H 0.11014 0.71954 0.13277 0.0
H219 H 0.35712 0.81892 0.24674 0.0
H220 H 0.3143 0.85011 0.24226 0.0
H221 H 0.22415 0.74555 0.15878 0.0
H222 H 0.26108 0.70926 0.16601 0.0
H223 H 0.15995 0.74122 0.18634 0.0
H224 H 0.36123 0.90289 0.16302 0.0
H225 H 0.46185 0.97453 0.17661 0.0
H226 H 0.4351 0.03186 0.25445 0.0
H227 H 0.33437 0.96034 0.24127 0.0
C228 C 0.16378 0.90687 0.11085 0.0
C229 C 0.17263 0.94802 0.12686 0.0
C230 C 0.17015 0.87705 0.12687 0.0
C231 C 0.18532 0.88773 0.15918 0.0
C232 C 0.19068 0.92614 0.17567 0.0
C233 C 0.18398 0.95568 0.15975 0.0
C234 C 0.20208 0.86397 0.17451 0.0
C235 C 0.25766 0.90162 0.18495 0.0
C236 C 0.16618 0.80541 0.17559 0.0
C237 C 0.1063 0.76357 0.16622 0.0
C238 C 0.07121 0.76528 0.17981 0.0
C239 C 0.01497 0.72607 0.1707 0.0
C240 C 0.99321 0.68476 0.14811 0.0
C241 C 0.02764 0.68249 0.13464 0.0
C242 C 0.08392 0.72161 0.14366 0.0
C243 C 0.32628 0.80098 0.22837 0.0
C244 C 0.31072 0.76009 0.20756 0.0
C245 C 0.30288 0.81993 0.2252 0.0
C246 C 0.26625 0.80097 0.19985 0.0
C247 C 0.25158 0.76062 0.17882 0.0
C248 C 0.27322 0.74023 0.18275 0.0
C249 C 0.24455 0.82402 0.19387 0.0
C250 C 0.18771 0.78623 0.18554 0.0
C251 C 0.27967 0.88267 0.19405 0.0
C252 C 0.34028 0.92582 0.20154 0.0
C253 C 0.37685 0.93063 0.18311 0.0
C254 C 0.43388 0.97122 0.19071 0.0
C255 C 0.45483 0.00756 0.21646 0.0
C256 C 0.41885 0.00359 0.23458 0.0
C257 C 0.36184 0.96308 0.22707 0.0
H258 H 0.49898 0.03892 0.22231 0.0
H259 H 0.94966 0.65446 0.14108 0.0
H260 H 0.20174 0.14861 0.53532 0.0
H261 H 0.26064 0.18233 0.58201 0.0
H262 H 0.11428 0.04218 0.63667 0.0
H263 H 0.0569 0.00568 0.58915 0.0
H264 H 0.27868 0.21622 0.639 0.0
H265 H 0.14485 0.99791 0.6889 0.0
H266 H 0.0663 0.89798 0.6728 0.0
H267 H 0.12588 0.94297 0.5763 0.0
H268 H 0.20511 0.04302 0.59193 0.0
H269 H 0.47322 0.27433 0.74473 0.0
H270 H 0.38167 0.2331 0.72965 0.0
H271 H 0.36367 0.13277 0.65789 0.0
H272 H 0.45281 0.17161 0.67372 0.0
H273 H 0.26599 0.07473 0.67932 0.0
H274 H 0.42587 0.27248 0.64531 0.0
H275 H 0.50781 0.37442 0.65566 0.0
H276 H 0.40472 0.37327 0.7109 0.0
H277 H 0.32238 0.27112 0.70122 0.0
C278 C 0.18209 0.12587 0.55757 0.0
C279 C 0.12446 0.07529 0.55873 0.0
C280 C 0.21572 0.1452 0.58434 0.0
C281 C 0.19232 0.11426 0.61291 0.0
C282 C 0.13386 0.06612 0.61478 0.0
C283 C 0.10067 0.04559 0.58759 0.0
C284 C 0.23021 0.12855 0.63863 0.0
C285 C 0.27544 0.18508 0.64814 0.0
C286 C 0.2261 0.08808 0.65096 0.0
C287 C 0.18051 0.02784 0.64156 0.0
C288 C 0.14138 0.98634 0.66432 0.0
C289 C 0.09671 0.92975 0.65526 0.0
C290 C 0.09107 0.91418 0.62354 0.0
C291 C 0.13031 0.9551 0.60085 0.0
C292 C 0.17515 0.01171 0.6098 0.0
C293 C 0.44851 0.24192 0.72658 0.0
C294 C 0.46983 0.22587 0.71047 0.0
C295 C 0.39652 0.2188 0.71776 0.0
C296 C 0.36589 0.18035 0.69227 0.0
C297 C 0.38601 0.1621 0.67765 0.0
C298 C 0.43727 0.18459 0.68661 0.0
C299 C 0.31633 0.16299 0.67804 0.0
C300 C 0.26848 0.10567 0.67095 0.0
C301 C 0.31889 0.20296 0.66716 0.0
C302 C 0.36827 0.26422 0.67287 0.0
C303 C 0.42083 0.29398 0.65979 0.0
C304 C 0.4673 0.35175 0.66554 0.0
C305 C 0.4615 0.38027 0.68399 0.0
C306 C 0.40916 0.35112 0.69663 0.0
C307 C 0.36262 0.29329 0.69108 0.0
H308 H 0.49752 0.42498 0.68844 0.0
H309 H 0.05638 0.8704 0.61658 0.0
H310 H 0.10652 0.19847 0.02408 0.0
H311 H 0.1475 0.27696 0.05949 0.0
H312 H 0.0715 0.16581 0.14058 0.0
H313 H 0.03147 0.08755 0.10556 0.0
H314 H 0.06569 0.2492 0.1353 0.0
H315 H 0.1902 0.23324 0.13651 0.0
H316 H 0.24551 0.22374 0.1106 0.0
H317 H 0.34301 0.38001 0.06117 0.0
H318 H 0.28765 0.38999 0.08631 0.0
H319 H 0.23486 0.49557 0.23473 0.0
H320 H 0.18499 0.40143 0.21637 0.0
H321 H 0.28204 0.475 0.12949 0.0
H322 H 0.33382 0.56803 0.14851 0.0
H323 H 0.27264 0.39911 0.14737 0.0
H324 H 0.14364 0.40982 0.13698 0.0
H325 H 0.08671 0.42077 0.15744 0.0
H326 H 0.99769 0.27826 0.2191 0.0
H327 H 0.05459 0.26689 0.19921 0.0
C328 C 0.098 0.19068 0.04938 0.0
C329 C 0.06623 0.13717 0.06211 0.0
C330 C 0.1214 0.2354 0.06954 0.0
C331 C 0.11245 0.2269 0.10254 0.0
C332 C 0.07866 0.17298 0.11515 0.0
C333 C 0.05618 0.12854 0.09513 0.0
C334 C 0.14156 0.27534 0.12392 0.0
C335 C 0.11082 0.28166 0.13851 0.0
C336 C 0.20033 0.3175 0.12772 0.0
C337 C 0.23445 0.31213 0.11311 0.0
C338 C 0.22312 0.26535 0.11992 0.0
C339 C 0.2545 0.25989 0.1054 0.0
C340 C 0.29761 0.30115 0.08421 0.0
C341 C 0.30957 0.34806 0.07757 0.0
C342 C 0.27824 0.35367 0.09197 0.0
C343 C 0.24648 0.49156 0.21222 0.0
C344 C 0.2887 0.53931 0.19334 0.0
C345 C 0.21741 0.43772 0.20147 0.0
C346 C 0.22947 0.43097 0.17138 0.0
C347 C 0.27207 0.47888 0.15284 0.0
C348 C 0.30137 0.53221 0.16369 0.0
C349 C 0.19724 0.37463 0.15794 0.0
C350 C 0.22737 0.36641 0.14485 0.0
C351 C 0.13801 0.33124 0.15508 0.0
C352 C 0.10377 0.33795 0.16692 0.0
C353 C 0.11217 0.38108 0.15506 0.0
C354 C 0.07989 0.38732 0.16652 0.0
C355 C 0.03874 0.35035 0.18963 0.0
C356 C 0.02967 0.30694 0.20125 0.0
C357 C 0.06189 0.30056 0.18989 0.0
H358 H 0.01379 0.35525 0.19848 0.0
H359 H 0.32184 0.29683 0.07299 0.0
H360 H 0.82721 0.10006 0.5652 0.0
H361 H 0.81018 0.14845 0.59127 0.0
H362 H 0.87879 0.15509 0.67874 0.0
H363 H 0.8932 0.10408 0.65277 0.0
H364 H 0.78572 0.11575 0.69158 0.0
H365 H 0.94258 0.27819 0.63438 0.0
H366 H 0.00465 0.33548 0.58834 0.0
H367 H 0.87401 0.30109 0.54177 0.0
H368 H 0.81084 0.24292 0.58733 0.0
H369 H 0.76222 0.30759 0.73914 0.0
H370 H 0.8072 0.28024 0.72633 0.0
H371 H 0.67124 0.15134 0.66324 0.0
H372 H 0.62545 0.17756 0.67634 0.0
H373 H 0.81284 0.26448 0.64628 0.0
H374 H 0.6542 0.09031 0.70672 0.0
H375 H 0.59948 0.03411 0.75469 0.0
H376 H 0.7466 0.09664 0.7984 0.0
H377 H 0.80291 0.1559 0.75154 0.0
C378 C 0.84031 0.11364 0.58967 0.0
C379 C 0.86216 0.09926 0.60695 0.0
C380 C 0.83069 0.14141 0.60463 0.0
C381 C 0.84362 0.1561 0.63703 0.0
C382 C 0.86842 0.14432 0.65377 0.0
C383 C 0.87717 0.11571 0.63892 0.0
C384 C 0.82507 0.17731 0.65414 0.0
C385 C 0.7928 0.14919 0.68196 0.0
C386 C 0.83401 0.22086 0.64175 0.0
C387 C 0.87183 0.25587 0.61424 0.0
C388 C 0.92693 0.2825 0.61423 0.0
C389 C 0.96234 0.3152 0.58823 0.0
C390 C 0.94326 0.32185 0.56212 0.0
C391 C 0.88874 0.2959 0.562 0.0
C392 C 0.85314 0.26313 0.58794 0.0
C393 C 0.74077 0.27177 0.72368 0.0
C394 C 0.68957 0.24357 0.70945 0.0
C395 C 0.76659 0.25627 0.71637 0.0
C396 C 0.74168 0.21253 0.69472 0.0
C397 C 0.69034 0.1841 0.68073 0.0
C398 C 0.66435 0.19921 0.68816 0.0
C399 C 0.77246 0.20169 0.6829 0.0
C400 C 0.80703 0.23196 0.65611 0.0
C401 C 0.76657 0.1609 0.69662 0.0
C402 C 0.73326 0.12913 0.72589 0.0
C403 C 0.67543 0.09392 0.72699 0.0
C404 C 0.64397 0.0611 0.75398 0.0
C405 C 0.66966 0.06234 0.77982 0.0
C406 C 0.72686 0.09643 0.7787 0.0
C407 C 0.75862 0.12989 0.752 0.0
H408 H 0.6452 0.03664 0.80061 0.0
H409 H 0.97074 0.34718 0.54201 0.0
H410 H 0.94257 0.99778 0.07597 0.0
H411 H 0.87905 0.9714 0.11739 0.0
H412 H 0.75206 0.80072 0.0816 0.0
H413 H 0.81502 0.82895 0.03814 0.0
H414 H 0.70829 0.8313 0.08626 0.0
H415 H 0.80943 0.83884 0.1764 0.0
H416 H 0.89318 0.8846 0.20815 0.0
H417 H 0.94669 0.04072 0.20644 0.0
H418 H 0.86139 0.99486 0.17659 0.0
H419 H 0.53541 0.74144 0.2304 0.0
H420 H 0.62004 0.77346 0.20971 0.0
H421 H 0.65712 0.90087 0.15434 0.0
H422 H 0.57417 0.87079 0.17636 0.0
H423 H 0.74447 0.88709 0.20001 0.0
H424 H 0.66192 0.86759 0.07761 0.0
H425 H 0.57292 0.82019 0.05212 0.0
H426 H 0.48076 0.68444 0.11948 0.0
H427 H 0.56923 0.73053 0.14495 0.0
C428 C 0.90194 0.95416 0.07751 0.0
C429 C 0.88404 0.91528 0.05389 0.0
C430 C 0.86539 0.93879 0.10164 0.0
C431 C 0.81046 0.88361 0.10336 0.0
C432 C 0.79403 0.84367 0.08098 0.0
C433 C 0.83006 0.85961 0.05619 0.0
C434 C 0.76775 0.86988 0.12475 0.0
C435 C 0.71641 0.84298 0.11122 0.0
C436 C 0.77771 0.88586 0.1573 0.0
C437 C 0.82995 0.91388 0.17375 0.0
C438 C 0.83935 0.88302 0.18262 0.0
C439 C 0.88677 0.90882 0.20049 0.0
C440 C 0.92586 0.96583 0.20862 0.0
C441 C 0.91672 0.99675 0.19983 0.0
C442 C 0.86851 0.97071 0.18284 0.0
C443 C 0.56384 0.77887 0.21578 0.0
C444 C 0.54922 0.80477 0.2059 0.0
C445 C 0.61167 0.79652 0.20344 0.0
C446 C 0.64462 0.83936 0.18041 0.0
C447 C 0.63227 0.86784 0.17216 0.0
C448 C 0.58498 0.8507 0.1848 0.0
C449 C 0.68593 0.84823 0.16136 0.0
C450 C 0.73664 0.87463 0.17518 0.0
C451 C 0.67548 0.83172 0.12908 0.0
C452 C 0.62213 0.80284 0.11338 0.0
C453 C 0.62266 0.8275 0.08686 0.0
C454 C 0.57232 0.80087 0.07242 0.0
C455 C 0.52121 0.74944 0.08424 0.0
C456 C 0.52035 0.72438 0.11042 0.0
C457 C 0.57058 0.75076 0.12488 0.0
H458 H 0.48229 0.72895 0.07307 0.0
H459 H 0.96303 0.98595 0.22196 0.0
H460 H 0.98723 0.85296 0.52862 0.0
H461 H 0.95371 0.77705 0.56294 0.0
H462 H 0.91891 0.83235 0.63741 0.0
H463 H 0.95546 0.91022 0.60395 0.0
H464 H 0.95234 0.79392 0.66339 0.0
H465 H 0.8155 0.7247 0.58538 0.0
H466 H 0.77757 0.70843 0.53175 0.0
H467 H 0.81285 0.61934 0.50497 0.0
H468 H 0.85192 0.63594 0.55829 0.0
H469 H 0.73159 0.50968 0.73292 0.0
H470 H 0.79153 0.60561 0.71245 0.0
H471 H 0.85377 0.57678 0.63924 0.0
H472 H 0.79468 0.48188 0.65958 0.0
H473 H 0.80406 0.60321 0.6155 0.0
H474 H 0.94069 0.67439 0.69722 0.0
H475 H 0.9762 0.69263 0.75189 0.0
H476 H 0.93198 0.77502 0.77403 0.0
H477 H 0.89581 0.75692 0.71955 0.0
C478 C 0.97293 0.84941 0.55237 0.0
C479 C 0.97172 0.88643 0.56293 0.0
C480 C 0.95353 0.80574 0.57197 0.0
C481 C 0.93184 0.79767 0.60239 0.0
C482 C 0.9344 0.83695 0.61384 0.0
C483 C 0.95443 0.88102 0.59439 0.0
C484 C 0.90339 0.74644 0.6213 0.0
C485 C 0.91951 0.75213 0.65305 0.0
C486 C 0.86034 0.69183 0.60793 0.0
C487 C 0.83706 0.68197 0.57576 0.0
C488 C 0.81556 0.70201 0.56799 0.0
C489 C 0.79378 0.69266 0.53766 0.0
C490 C 0.79274 0.66281 0.51499 0.0
C491 C 0.81364 0.64241 0.52257 0.0
C492 C 0.83561 0.65178 0.55284 0.0
C493 C 0.75963 0.52471 0.71322 0.0
C494 C 0.75849 0.4884 0.6978 0.0
C495 C 0.7937 0.57941 0.70146 0.0
C496 C 0.82697 0.59826 0.6742 0.0
C497 C 0.82832 0.5631 0.6602 0.0
C498 C 0.79441 0.50881 0.6718 0.0
C499 C 0.85414 0.6506 0.65727 0.0
C500 C 0.83708 0.64498 0.62588 0.0
C501 C 0.89524 0.70482 0.6713 0.0
C502 C 0.91506 0.71381 0.70437 0.0
C503 C 0.93795 0.69583 0.71384 0.0
C504 C 0.95851 0.70646 0.74474 0.0
C505 C 0.9564 0.73503 0.76639 0.0
C506 C 0.93359 0.75291 0.75723 0.0
C507 C 0.91316 0.74257 0.72633 0.0
H508 H 0.97231 0.74319 0.7903 0.0
H509 H 0.77573 0.65548 0.49155 0.0
H510 H 0.21067 0.96969 0.39151 0.0
H511 H 0.23447 0.92292 0.37388 0.0
H512 H 0.09906 0.82519 0.30607 0.0
H513 H 0.07572 0.87283 0.32316 0.0
H514 H 0.11809 0.76672 0.34985 0.0
H515 H 0.19946 0.90735 0.26875 0.0
H516 H 0.25307 0.00215 0.24872 0.0
H517 H 0.39789 0.07302 0.30092 0.0
H518 H 0.3448 0.97871 0.32168 0.0
H519 H 0.22958 0.68155 0.27283 0.0
H520 H 0.1856 0.71173 0.27961 0.0
H521 H 0.32893 0.85575 0.33384 0.0
H522 H 0.37223 0.82533 0.32744 0.0
H523 H 0.29544 0.88359 0.28897 0.0
H524 H 0.21345 0.74407 0.37151 0.0
H525 H 0.16106 0.64974 0.39164 0.0
H526 H 0.01725 0.57597 0.33688 0.0
H527 H 0.06915 0.6699 0.31607 0.0
C528 C 0.18539 0.93754 0.37324 0.0
C529 C 0.14134 0.92475 0.35871 0.0
C530 C 0.19918 0.91115 0.36309 0.0
C531 C 0.1686 0.8709 0.33863 0.0
C532 C 0.12306 0.85619 0.32498 0.0
C533 C 0.10989 0.88339 0.33471 0.0
C534 C 0.18631 0.8464 0.32665 0.0
C535 C 0.15617 0.79166 0.33595 0.0
C536 C 0.23628 0.87932 0.30888 0.0
C537 C 0.26798 0.93618 0.29707 0.0
C538 C 0.24251 0.94328 0.27628 0.0
C539 C 0.27285 0.99686 0.2647 0.0
C540 C 0.32879 0.04358 0.2736 0.0
C541 C 0.3545 0.03682 0.29413 0.0
C542 C 0.32431 0.98334 0.30582 0.0
C543 C 0.25149 0.71972 0.28603 0.0
C544 C 0.30432 0.75161 0.2994 0.0
C545 C 0.22641 0.73677 0.28999 0.0
C546 C 0.25406 0.78595 0.30726 0.0
C547 C 0.30708 0.8179 0.32029 0.0
C548 C 0.33167 0.80049 0.31673 0.0
C549 C 0.22787 0.80412 0.31265 0.0
C550 C 0.25663 0.85794 0.30223 0.0
C551 C 0.17661 0.77022 0.32937 0.0
C552 C 0.14538 0.71385 0.34193 0.0
C553 C 0.17083 0.70766 0.36354 0.0
C554 C 0.1412 0.6543 0.37512 0.0
C555 C 0.08592 0.60686 0.36546 0.0
C556 C 0.06011 0.61273 0.34428 0.0
C557 C 0.0896 0.66602 0.3326 0.0
H558 H 0.06304 0.56557 0.37446 0.0
H559 H 0.35225 0.085 0.26454 0.0
H560 H 0.06472 0.02459 0.92543 0.0
H561 H 0.12423 0.05278 0.88023 0.0
H562 H 0.26925 0.19928 0.9323 0.0
H563 H 0.20897 0.17255 0.9771 0.0
H564 H 0.27837 0.22144 0.86833 0.0
H565 H 0.22293 0.0693 0.93481 0.0
H566 H 0.14605 0.97374 0.95753 0.0
H567 H 0.08235 0.9048 0.86368 0.0
H568 H 0.15873 0.00011 0.84046 0.0
H569 H 0.51574 0.29375 0.85163 0.0
H570 H 0.42666 0.25481 0.86764 0.0
H571 H 0.3435 0.13355 0.79124 0.0
H572 H 0.43421 0.17233 0.77534 0.0
H573 H 0.28437 0.08653 0.85015 0.0
H574 H 0.35526 0.23294 0.78286 0.0
H575 H 0.42664 0.32689 0.75784 0.0
H576 H 0.45203 0.40369 0.84664 0.0
H577 H 0.38219 0.31033 0.87247 0.0
C578 C 0.1089 0.06371 0.92695 0.0
C579 C 0.13205 0.09649 0.95484 0.0
C580 C 0.14306 0.07959 0.90109 0.0
C581 C 0.20139 0.12755 0.90307 0.0
C582 C 0.22432 0.16201 0.93022 0.0
C583 C 0.18995 0.1466 0.95588 0.0
C584 C 0.23943 0.13886 0.87884 0.0
C585 C 0.27965 0.19199 0.86422 0.0
C586 C 0.23925 0.09923 0.87214 0.0
C587 C 0.19639 0.0417 0.88594 0.0
C588 C 0.19275 0.03366 0.91904 0.0
C589 C 0.14917 0.97961 0.932 0.0
C590 C 0.10932 0.93324 0.91205 0.0
C591 C 0.1133 0.94076 0.87908 0.0
C592 C 0.15679 0.99475 0.86601 0.0
C593 C 0.4786 0.25869 0.83816 0.0
C594 C 0.48202 0.2365 0.81197 0.0
C595 C 0.42766 0.23669 0.84723 0.0
C596 C 0.37848 0.19189 0.83036 0.0
C597 C 0.3811 0.16851 0.80443 0.0
C598 C 0.43279 0.19089 0.7952 0.0
C599 C 0.3253 0.17045 0.84106 0.0
C600 C 0.28221 0.11548 0.85327 0.0
C601 C 0.32205 0.20796 0.84495 0.0
C602 C 0.36351 0.26449 0.82961 0.0
C603 C 0.37636 0.2699 0.79709 0.0
C604 C 0.41652 0.32306 0.78276 0.0
C605 C 0.44371 0.37123 0.80059 0.0
C606 C 0.43084 0.36631 0.83283 0.0
C607 C 0.39094 0.31323 0.84734 0.0
H608 H 0.47477 0.41237 0.78944 0.0
H609 H 0.07534 0.89149 0.92213 0.0
H610 H 0.05109 0.16884 0.47009 0.0
H611 H 0.08732 0.24343 0.43323 0.0
H612 H 0.20687 0.25123 0.39666 0.0
H613 H 0.1715 0.17716 0.4338 0.0
H614 H 0.25279 0.35569 0.40299 0.0
H615 H 0.08739 0.17879 0.35655 0.0
H616 H 0.98805 0.08508 0.3552 0.0
H617 H 0.93595 0.16176 0.36955 0.0
H618 H 0.03478 0.25584 0.37133 0.0
H619 H 0.32384 0.52753 0.27476 0.0
H620 H 0.28142 0.43843 0.29751 0.0
H621 H 0.1623 0.41905 0.34888 0.0
H622 H 0.2049 0.50796 0.32652 0.0
H623 H 0.11701 0.31497 0.32911 0.0
H624 H 0.27929 0.48721 0.38373 0.0
H625 H 0.37754 0.58195 0.38646 0.0
H626 H 0.43432 0.51345 0.35791 0.0
H627 H 0.33622 0.41835 0.35452 0.0
C628 C 0.08587 0.18715 0.4547 0.0
C629 C 0.10808 0.16666 0.45473 0.0
C630 C 0.10611 0.22938 0.43337 0.0
C631 C 0.14884 0.25187 0.41166 0.0
C632 C 0.17347 0.23403 0.41298 0.0
C633 C 0.15324 0.19176 0.43428 0.0
C634 C 0.16689 0.29308 0.38717 0.0
C635 C 0.2233 0.34634 0.38642 0.0
C636 C 0.12822 0.28108 0.36578 0.0
C637 C 0.06863 0.22445 0.3643 0.0
C638 C 0.05479 0.17569 0.35961 0.0
C639 C 0.99859 0.1225 0.35876 0.0
C640 C 0.95584 0.11751 0.3624 0.0
C641 C 0.96914 0.16569 0.36676 0.0
C642 C 0.02523 0.21898 0.36764 0.0
C643 C 0.28717 0.50292 0.28987 0.0
C644 C 0.26732 0.52414 0.29889 0.0
C645 C 0.2632 0.45233 0.30299 0.0
C646 C 0.21916 0.42257 0.32518 0.0
C647 C 0.19612 0.44124 0.33179 0.0
C648 C 0.22043 0.49197 0.31902 0.0
C649 C 0.20266 0.37749 0.34521 0.0
C650 C 0.14658 0.32369 0.34525 0.0
C651 C 0.24149 0.3889 0.36605 0.0
C652 C 0.30046 0.44585 0.36848 0.0
C653 C 0.31273 0.49244 0.37779 0.0
C654 C 0.36837 0.54618 0.37949 0.0
C655 C 0.41215 0.55376 0.37227 0.0
C656 C 0.40036 0.50754 0.36343 0.0
C657 C 0.34475 0.45371 0.36161 0.0
H658 H 0.45521 0.5954 0.3736 0.0
H659 H 0.91239 0.0763 0.36178 0.0
H660 H 0.82816 0.09953 0.94837 0.0
H661 H 0.8136 0.15069 0.92283 0.0
H662 H 0.82722 0.10807 0.83043 0.0
H663 H 0.84023 0.0556 0.85592 0.0
H664 H 0.8846 0.22735 0.84008 0.0
H665 H 0.70737 0.0284 0.84864 0.0
H666 H 0.63543 0.93903 0.87823 0.0
H667 H 0.61408 0.01694 0.94261 0.0
H668 H 0.68665 0.1071 0.91365 0.0
H669 H 0.64905 0.19231 0.77759 0.0
H670 H 0.68538 0.15589 0.79055 0.0
H671 H 0.81944 0.3065 0.84461 0.0
H672 H 0.78375 0.343 0.83143 0.0
H673 H 0.69007 0.13178 0.85 0.0
H674 H 0.92585 0.33207 0.85049 0.0
H675 H 0.00016 0.42 0.82004 0.0
H676 H 0.90451 0.33604 0.73425 0.0
H677 H 0.82914 0.24778 0.76444 0.0
C678 C 0.82945 0.10242 0.92264 0.0
C679 C 0.83546 0.07404 0.90399 0.0
C680 C 0.82095 0.13134 0.90812 0.0
C681 C 0.81927 0.13291 0.87482 0.0
C682 C 0.8287 0.10747 0.85617 0.0
C683 C 0.83607 0.07761 0.87067 0.0
C684 C 0.80237 0.15631 0.85952 0.0
C685 C 0.84214 0.20662 0.84221 0.0
C686 C 0.74684 0.12877 0.86205 0.0
C687 C 0.70283 0.07456 0.87924 0.0
C688 C 0.68769 0.02659 0.86929 0.0
C689 C 0.64674 0.97578 0.8859 0.0
C690 C 0.62031 0.97235 0.91234 0.0
C691 C 0.63466 0.01969 0.92216 0.0
C692 C 0.67567 0.07063 0.90565 0.0
C693 C 0.68707 0.21804 0.79152 0.0
C694 C 0.71393 0.2705 0.80335 0.0
C695 C 0.70775 0.19727 0.79896 0.0
C696 C 0.75558 0.22872 0.81824 0.0
C697 C 0.78331 0.28196 0.82914 0.0
C698 C 0.76258 0.30255 0.82184 0.0
C699 C 0.77237 0.20333 0.83043 0.0
C700 C 0.73257 0.15268 0.84761 0.0
C701 C 0.82789 0.2306 0.82771 0.0
C702 C 0.87177 0.2837 0.80968 0.0
C703 C 0.92059 0.33254 0.82516 0.0
C704 C 0.96276 0.3824 0.808 0.0
C705 C 0.95681 0.38366 0.77527 0.0
C706 C 0.90864 0.33508 0.75966 0.0
C707 C 0.86607 0.28526 0.7768 0.0
H708 H 0.98963 0.4222 0.76197 0.0
H709 H 0.58862 0.93297 0.92518 0.0
H710 H 0.82647 0.83994 0.46791 0.0
H711 H 0.75891 0.80719 0.42648 0.0
H712 H 0.87726 0.97595 0.38838 0.0
H713 H 0.94456 0.00837 0.42951 0.0
H714 H 0.71664 0.84557 0.42547 0.0
H715 H 0.86501 0.98351 0.32809 0.0
H716 H 0.93647 0.00943 0.29192 0.0
H717 H 0.84991 0.83812 0.29277 0.0
H718 H 0.7794 0.81194 0.32988 0.0
H719 H 0.5627 0.85757 0.33202 0.0
H720 H 0.64824 0.89302 0.35415 0.0
H721 H 0.61292 0.76198 0.30483 0.0
H722 H 0.52629 0.7253 0.28378 0.0
H723 H 0.73153 0.86951 0.30815 0.0
H724 H 0.56836 0.73206 0.37447 0.0
H725 H 0.4843 0.69183 0.40326 0.0
H726 H 0.5864 0.8417 0.46027 0.0
H727 H 0.67104 0.88314 0.43145 0.0
C728 C 0.83859 0.86944 0.44996 0.0
C729 C 0.89108 0.92631 0.45144 0.0
C730 C 0.8001 0.8508 0.4263 0.0
C731 C 0.81312 0.88888 0.40395 0.0
C732 C 0.86666 0.94529 0.40458 0.0
C733 C 0.90521 0.96385 0.42818 0.0
C734 C 0.76787 0.87214 0.38417 0.0
C735 C 0.72011 0.85085 0.39982 0.0
C736 C 0.77174 0.8787 0.35071 0.0
C737 C 0.81792 0.89616 0.33216 0.0
C738 C 0.86209 0.9518 0.32105 0.0
C739 C 0.90222 0.96645 0.30033 0.0
C740 C 0.89775 0.92543 0.29014 0.0
C741 C 0.85347 0.86988 0.30084 0.0
C742 C 0.81393 0.8553 0.32205 0.0
C743 C 0.57447 0.83778 0.32499 0.0
C744 C 0.53924 0.79006 0.30524 0.0
C745 C 0.62307 0.85784 0.3377 0.0
C746 C 0.6368 0.83008 0.33108 0.0
C747 C 0.60347 0.78448 0.3098 0.0
C748 C 0.55452 0.7641 0.29733 0.0
C749 C 0.68123 0.84382 0.3496 0.0
C750 C 0.72848 0.86456 0.33382 0.0
C751 C 0.67653 0.83595 0.38295 0.0
C752 C 0.6259 0.81091 0.40061 0.0
C753 C 0.57282 0.7566 0.39298 0.0
C754 C 0.52508 0.73355 0.40933 0.0
C755 C 0.52999 0.76426 0.43352 0.0
C756 C 0.58267 0.818 0.44149 0.0
C757 C 0.63054 0.84128 0.42518 0.0
H758 H 0.49299 0.74637 0.44615 0.0
H759 H 0.92882 0.93671 0.27417 0.0
H760 H 0.98178 0.93203 0.89843 0.0
H761 H 0.95669 0.86479 0.85978 0.0
H762 H 0.91126 0.75519 0.93624 0.0
H763 H 0.93909 0.82415 0.97527 0.0
H764 H 0.95605 0.74854 0.89183 0.0
H765 H 0.80524 0.73057 0.8905 0.0
H766 H 0.75818 0.75736 0.88308 0.0
H767 H 0.83348 0.82427 0.79059 0.0
H768 H 0.88005 0.79674 0.79728 0.0
H769 H 0.68529 0.48378 0.81786 0.0
H770 H 0.7471 0.58089 0.83476 0.0
H771 H 0.88921 0.62626 0.79559 0.0
H772 H 0.82639 0.52813 0.77828 0.0
H773 H 0.8156 0.68049 0.81042 0.0
H774 H 0.00142 0.72786 0.84526 0.0
H775 H 0.02589 0.67895 0.85523 0.0
H776 H 0.85864 0.53329 0.88893 0.0
H777 H 0.83346 0.58162 0.87942 0.0
C778 C 0.96658 0.89367 0.9071 0.0
C779 C 0.96142 0.88287 0.93997 0.0
C780 C 0.95207 0.8551 0.88488 0.0
C781 C 0.93065 0.80408 0.89493 0.0
C782 C 0.9275 0.79416 0.9278 0.0
C783 C 0.94315 0.83342 0.95014 0.0
C784 C 0.90916 0.75999 0.87137 0.0
C785 C 0.92561 0.734 0.8739 0.0
C786 C 0.87009 0.74117 0.84748 0.0
C787 C 0.84665 0.76243 0.84458 0.0
C788 C 0.81224 0.75162 0.86877 0.0
C789 C 0.78521 0.76636 0.86454 0.0
C790 C 0.79277 0.79241 0.83635 0.0
C791 C 0.82759 0.804 0.81238 0.0
C792 C 0.85414 0.78867 0.81632 0.0
C793 C 0.7295 0.51504 0.8119 0.0
C794 C 0.75133 0.49911 0.79668 0.0
C795 C 0.76489 0.57052 0.82157 0.0
C796 C 0.82303 0.6111 0.81662 0.0
C797 C 0.8446 0.5959 0.7996 0.0
C798 C 0.8088 0.54004 0.7896 0.0
C799 C 0.8598 0.66697 0.83221 0.0
C800 C 0.8471 0.69599 0.82783 0.0
C801 C 0.90073 0.68718 0.85502 0.0
C802 C 0.91551 0.65808 0.86132 0.0
C803 C 0.96999 0.68546 0.85487 0.0
C804 C 0.98395 0.65785 0.86043 0.0
C805 C 0.94379 0.60299 0.87261 0.0
C806 C 0.88965 0.57571 0.87941 0.0
C807 C 0.87552 0.60318 0.87394 0.0
H808 H 0.95465 0.58165 0.87685 0.0
H809 H 0.77181 0.80383 0.83314 0.0
loop_
_geom_bond_atom_site_label_1
_geom_bond_atom_site_label_2
_geom_bond_distance
_geom_bond_site_symmetry_2
_ccdc_geom_bond_type
Eu0 N31 2.657 1_455 S
Eu0 N38 2.609 . S
Eu0 O44 2.558 1_565 S
Eu0 O45 2.612 1_564 S
Eu0 O47 2.339 1_454 S
Eu0 O48 2.563 1_565 S
Eu0 O49 2.419 . S
Eu0 O51 2.380 1_455 S
Eu0 O52 2.432 1_565 S
Eu0 C64 2.848 . S
C1 C4 1.429 . S
C1 C5 1.411 . S
C1 N8 1.377 1_455 S
C2 C4 1.420 . S
C2 C6 1.423 . S
C2 C14 1.392 . S
C3 C5 1.420 . S
C3 C6 1.351 . S
C3 H26 0.931 . S
C4 C1 1.429 . S
C4 C2 1.420 . S
C4 N12 1.362 . S
C5 C1 1.411 . S
C5 C3 1.420 . S
C5 C10 1.395 1_455 S
C6 C2 1.423 . S
C6 C3 1.351 . S
C6 H18 0.930 . S
C7 C9 1.400 . S
C7 C10 1.386 1_565 S
C7 H19 0.930 . S
N8 C1 1.377 1_655 S
N8 C9 1.321 1_545 S
N8 Eu11 2.609 . S
C9 C7 1.400 . S
C9 N8 1.321 1_565 S
C9 H16 0.930 . S
C10 C5 1.395 1_655 S
C10 C7 1.386 1_545 S
C10 H29 0.930 . S
Eu11 N8 2.609 . S
Eu11 N12 2.657 1_655 S
Eu11 O45 2.380 1_655 S
Eu11 O46 2.432 1_545 S
Eu11 O50 2.558 1_545 S
Eu11 O51 2.612 1_546 S
Eu11 O53 2.339 1_656 S
Eu11 O54 2.563 1_545 S
Eu11 O55 2.419 . S
Eu11 C75 2.848 . S
N12 C4 1.362 . S
N12 Eu11 2.657 1_455 S
N12 C13 1.334 . S
C13 N12 1.334 . S
C13 C15 1.413 . S
C13 H20 0.929 . S
C14 C2 1.392 . S
C14 C15 1.367 . S
C14 H22 0.930 . S
C15 C13 1.413 . S
C15 C14 1.367 . S
C15 H17 0.930 . S
H16 C9 0.930 . S
H17 C15 0.930 . S
H18 C6 0.930 . S
H19 C7 0.930 . S
H20 C13 0.929 . S
H21 C35 0.930 . S
H22 C14 0.930 . S
H23 C41 0.930 . S
H24 C32 0.929 . S
H25 C39 0.930 . S
H26 C3 0.931 . S
H27 C33 0.930 . S
H28 C66 0.930 . S
H29 C10 0.930 . S
H30 C65 0.931 . S
N31 Eu0 2.657 1_655 S
N31 C32 1.334 . S
N31 C36 1.362 . S
C32 H24 0.929 . S
C32 N31 1.334 . S
C32 C35 1.413 . S
C33 H27 0.930 . S
C33 C34 1.392 . S
C33 C35 1.367 . S
C34 C33 1.392 . S
C34 C36 1.420 . S
C34 C66 1.423 . S
C35 H21 0.930 . S
C35 C32 1.413 . S
C35 C33 1.367 . S
C36 N31 1.362 . S
C36 C34 1.420 . S
C36 C40 1.429 . S
H37 C42 0.927 1_545 S
N38 Eu0 2.609 . S
N38 C40 1.377 1_455 S
N38 C41 1.321 1_565 S
C39 H25 0.930 . S
C39 C41 1.400 . S
C39 C42 1.378 1_545 S
C40 C36 1.429 . S
C40 N38 1.377 1_655 S
C40 C43 1.411 . S
C41 H23 0.930 . S
C41 N38 1.321 1_545 S
C41 C39 1.400 . S
C42 H37 0.927 1_565 S
C42 C39 1.378 1_565 S
C42 C43 1.406 1_455 S
C43 C40 1.411 . S
C43 C42 1.406 1_655 S
C43 C65 1.420 . S
O44 Eu0 2.558 1_545 S
O44 C64 1.257 1_545 S
O45 Eu0 2.612 1_546 S
O45 Eu11 2.380 1_455 S
O45 C56 1.276 . S
O46 Eu11 2.432 1_565 S
O46 C63 1.264 . S
O47 Eu0 2.339 1_656 S
O47 C63 1.254 . S
O48 Eu0 2.563 1_545 S
O48 C56 1.235 1_554 S
O49 Eu0 2.419 . S
O49 C64 1.249 . S
O50 Eu11 2.558 1_565 S
O50 C75 1.257 1_565 S
O51 Eu0 2.380 1_655 S
O51 Eu11 2.612 1_564 S
O51 C67 1.276 . S
O52 Eu0 2.432 1_545 S
O52 C74 1.264 . S
O53 Eu11 2.339 1_454 S
O53 C74 1.254 . S
O54 Eu11 2.563 1_565 S
O54 C67 1.235 1_556 S
O55 Eu11 2.419 . S
O55 C75 1.249 . S
C56 O45 1.276 . S
C56 O48 1.235 1_556 S
C57 C59 1.393 . S
C57 C61 1.395 . S
C57 C64 1.492 . S
C58 C59 1.392 . S
C58 C60 1.386 . S
C59 C57 1.393 . S
C59 C58 1.392 . S
C59 H76 0.930 . S
C60 C58 1.386 . S
C60 C62 1.395 . S
C60 H77 0.930 . S
C61 C57 1.395 . S
C61 C62 1.379 . S
C61 H78 0.930 . S
C62 C60 1.395 . S
C62 C61 1.379 . S
C62 H79 0.930 . S
C63 O46 1.264 . S
C63 O47 1.254 . S
C64 Eu0 2.848 . S
C64 O44 1.257 1_565 S
C64 O49 1.249 . S
C64 C57 1.492 . S
C65 H30 0.931 . S
C65 C43 1.420 . S
C65 C66 1.351 . S
C66 H28 0.930 . S
C66 C34 1.423 . S
C66 C65 1.351 . S
C67 O51 1.276 . S
C67 O54 1.235 1_554 S
C68 C69 1.393 . S
C68 C72 1.395 . S
C68 C75 1.492 . S
C69 C68 1.393 . S
C69 C70 1.392 . S
C69 H80 0.930 . S
C70 C69 1.392 . S
C70 C71 1.386 . S
C71 C70 1.386 . S
C71 C73 1.395 . S
C71 H81 0.930 . S
C72 C68 1.395 . S
C72 C73 1.379 . S
C72 H82 0.930 . S
C73 C71 1.395 . S
C73 C72 1.379 . S
C73 H83 0.930 . S
C74 O52 1.264 . S
C74 O53 1.254 . S
C75 Eu11 2.848 . S
C75 O50 1.257 1_545 S
C75 O55 1.249 . S
C75 C68 1.492 . S
H76 C59 0.930 . S
H77 C60 0.930 . S
H78 C61 0.930 . S
H79 C62 0.930 . S
H80 C69 0.930 . S
H81 C71 0.930 . S
H82 C72 0.930 . S
H83 C73 0.930 . S
Eu84 N115 2.657 1_655 S
Eu84 N122 2.609 1_655 S
Eu84 O128 2.558 . S
Eu84 O129 2.612 1_545 S
Eu84 O131 2.339 1_655 S
Eu84 O132 2.563 1_545 S
Eu84 O133 2.419 . S
Eu84 O135 2.380 1_655 S
Eu84 O136 2.432 1_545 S
Eu84 C148 2.848 . S
C85 C88 1.429 . S
C85 C89 1.411 . S
C85 N92 1.377 1_665 S
C86 C88 1.420 . S
C86 C90 1.423 . S
C86 C98 1.392 . S
C87 C89 1.420 . S
C87 C90 1.351 . S
C87 H110 0.931 . S
C88 C85 1.429 . S
C88 C86 1.420 . S
C88 N96 1.362 . S
C89 C85 1.411 . S
C89 C87 1.420 . S
C89 C94 1.395 1_665 S
C90 C86 1.423 . S
C90 C87 1.351 . S
C90 H102 0.930 . S
C91 C93 1.400 . S
C91 C94 1.386 . S
C91 H103 0.930 . S
N92 C85 1.377 1_445 S
N92 C93 1.321 . S
N92 Eu95 2.609 1_545 S
C93 C91 1.400 . S
C93 N92 1.321 . S
C93 H100 0.930 . S
C94 C89 1.395 1_445 S
C94 C91 1.386 . S
C94 H113 0.930 . S
Eu95 N92 2.609 1_565 S
Eu95 N96 2.657 1_455 S
Eu95 O129 2.380 1_455 S
Eu95 O130 2.432 1_565 S
Eu95 O134 2.558 1_565 S
Eu95 O135 2.612 1_565 S
Eu95 O137 2.339 1_455 S
Eu95 O138 2.563 1_565 S
Eu95 O139 2.419 . S
Eu95 C159 2.848 . S
N96 C88 1.362 . S
N96 Eu95 2.657 1_655 S
N96 C97 1.334 . S
C97 N96 1.334 . S
C97 C99 1.413 . S
C97 H104 0.929 . S
C98 C86 1.392 . S
C98 C99 1.367 . S
C98 H106 0.930 . S
C99 C97 1.413 . S
C99 C98 1.367 . S
C99 H101 0.930 . S
H100 C93 0.930 . S
H101 C99 0.930 . S
H102 C90 0.930 . S
H103 C91 0.930 . S
H104 C97 0.929 . S
H105 C119 0.930 . S
H106 C98 0.930 . S
H107 C125 0.930 . S
H108 C116 0.929 . S
H109 C123 0.930 . S
H110 C87 0.931 . S
H111 C117 0.930 . S
H112 C150 0.930 . S
H113 C94 0.930 . S
H114 C149 0.931 . S
N115 Eu84 2.657 1_455 S
N115 C116 1.334 . S
N115 C120 1.362 . S
C116 H108 0.929 . S
C116 N115 1.334 . S
C116 C119 1.413 . S
C117 H111 0.930 . S
C117 C118 1.392 . S
C117 C119 1.367 . S
C118 C117 1.392 . S
C118 C120 1.420 . S
C118 C150 1.423 . S
C119 H105 0.930 . S
C119 C116 1.413 . S
C119 C117 1.367 . S
C120 N115 1.362 . S
C120 C118 1.420 . S
C120 C124 1.429 . S
H121 C126 0.930 . S
N122 Eu84 2.609 1_455 S
N122 C124 1.377 . S
N122 C125 1.321 1_445 S
C123 H109 0.930 . S
C123 C125 1.400 . S
C123 C126 1.386 1_665 S
C124 C120 1.429 . S
C124 N122 1.377 . S
C124 C127 1.411 . S
C125 H107 0.930 . S
C125 N122 1.321 1_665 S
C125 C123 1.400 . S
C126 H121 0.930 . S
C126 C123 1.386 1_445 S
C126 C127 1.395 . S
C127 C124 1.411 . S
C127 C126 1.395 . S
C127 C149 1.420 . S
O128 Eu84 2.558 . S
O128 C148 1.257 . S
O129 Eu84 2.612 1_565 S
O129 Eu95 2.380 1_655 S
O129 C140 1.276 . S
O130 Eu95 2.432 1_545 S
O130 C147 1.264 . S
O131 Eu84 2.339 1_455 S
O131 C147 1.254 . S
O132 Eu84 2.563 1_565 S
O132 C140 1.235 . S
O133 Eu84 2.419 . S
O133 C148 1.249 . S
O134 Eu95 2.558 1_545 S
O134 C159 1.257 1_545 S
O135 Eu84 2.380 1_455 S
O135 Eu95 2.612 1_545 S
O135 C151 1.276 . S
O136 Eu84 2.432 1_565 S
O136 C158 1.264 . S
O137 Eu95 2.339 1_655 S
O137 C158 1.254 . S
O138 Eu95 2.563 1_545 S
O138 C151 1.235 . S
O139 Eu95 2.419 . S
O139 C159 1.249 . S
C140 O129 1.276 . S
C140 O132 1.235 . S
C141 C143 1.393 . S
C141 C145 1.395 . S
C141 C148 1.492 . S
C142 C143 1.392 . S
C142 C144 1.386 . S
C143 C141 1.393 . S
C143 C142 1.392 . S
C143 H160 0.930 . S
C144 C142 1.386 . S
C144 C146 1.395 . S
C144 H161 0.930 . S
C145 C141 1.395 . S
C145 C146 1.379 . S
C145 H162 0.930 . S
C146 C144 1.395 . S
C146 C145 1.379 . S
C146 H163 0.930 . S
C147 O130 1.264 . S
C147 O131 1.254 . S
C148 Eu84 2.848 . S
C148 O128 1.257 . S
C148 O133 1.249 . S
C148 C141 1.492 . S
C149 H114 0.931 . S
C149 C127 1.420 . S
C149 C150 1.351 . S
C150 H112 0.930 . S
C150 C118 1.423 . S
C150 C149 1.351 . S
C151 O135 1.276 . S
C151 O138 1.235 . S
C152 C153 1.393 . S
C152 C156 1.395 . S
C152 C159 1.492 . S
C153 C152 1.393 . S
C153 C154 1.392 . S
C153 H164 0.930 . S
C154 C153 1.392 . S
C154 C155 1.386 . S
C155 C154 1.386 . S
C155 C157 1.395 . S
C155 H165 0.930 . S
C156 C152 1.395 . S
C156 C157 1.379 . S
C156 H166 0.930 1_565 S
C157 C155 1.395 . S
C157 C156 1.379 . S
C157 H167 0.930 . S
C158 O136 1.264 . S
C158 O137 1.254 . S
C159 Eu95 2.848 . S
C159 O134 1.257 1_565 S
C159 O139 1.249 . S
C159 C152 1.492 . S
H160 C143 0.930 . S
H161 C144 0.930 . S
H162 C145 0.930 . S
H163 C146 0.930 . S
H164 C153 0.930 . S
H165 C155 0.930 . S
H166 C156 0.930 1_545 S
H167 C157 0.930 . S
Zn168 O174 1.920 . S
Zn168 O180 1.898 . S
Zn168 O183 1.905 . S
Zn169 O177 1.905 . S
Zn169 O178 1.898 . S
Zn169 O186 1.920 . S
Zn170 O173 2.080 . S
Zn170 O176 2.114 . S
Zn170 O179 2.120 . S
Zn170 O181 2.120 . S
Zn170 O182 2.114 . S
Zn170 O185 2.080 . S
C171 O176 1.166 . S
C171 O177 1.182 . S
C172 O178 1.167 . S
C172 O179 1.299 . S
O173 Zn170 2.080 . S
O173 C187 1.305 . S
O174 Zn168 1.920 . S
O174 C187 1.234 . S
C175 O180 1.167 . S
C175 O181 1.299 . S
O176 Zn170 2.114 . S
O176 C171 1.166 . S
O177 Zn169 1.905 . S
O177 C171 1.182 . S
O178 Zn169 1.898 . S
O178 C172 1.167 . S
O179 Zn170 2.120 . S
O179 C172 1.299 . S
O180 Zn168 1.898 . S
O180 C175 1.167 . S
O181 Zn170 2.120 . S
O181 C175 1.299 . S
O182 Zn170 2.114 . S
O182 C184 1.166 . S
O183 Zn168 1.905 . S
O183 C184 1.182 . S
C184 O182 1.166 . S
C184 O183 1.182 . S
O185 Zn170 2.080 . S
O185 C188 1.305 . S
O186 Zn169 1.920 . S
O186 C188 1.234 . S
C187 O173 1.305 . S
C187 O174 1.234 . S
C188 O185 1.305 . S
C188 O186 1.234 . S
Zn189 O195 1.920 . S
Zn189 O201 1.898 . S
Zn189 O204 1.905 . S
Zn190 O198 1.905 . S
Zn190 O199 1.898 . S
Zn190 O207 1.920 . S
Zn191 O194 2.080 . S
Zn191 O197 2.114 . S
Zn191 O200 2.120 . S
Zn191 O202 2.120 . S
Zn191 O203 2.114 . S
Zn191 O206 2.080 . S
C192 O197 1.166 . S
C192 O198 1.182 . S
C193 O199 1.167 . S
C193 O200 1.299 . S
O194 Zn191 2.080 . S
O194 C208 1.305 . S
O195 Zn189 1.920 . S
O195 C208 1.234 . S
C196 O201 1.167 . S
C196 O202 1.299 . S
O197 Zn191 2.114 . S
O197 C192 1.166 . S
O198 Zn190 1.905 . S
O198 C192 1.182 . S
O199 Zn190 1.898 . S
O199 C193 1.167 . S
O200 Zn191 2.120 . S
O200 C193 1.299 . S
O201 Zn189 1.898 . S
O201 C196 1.167 . S
O202 Zn191 2.120 . S
O202 C196 1.299 . S
O203 Zn191 2.114 . S
O203 C205 1.166 . S
O204 Zn189 1.905 . S
O204 C205 1.182 . S
C205 O203 1.166 . S
C205 O204 1.182 . S
O206 Zn191 2.080 . S
O206 C209 1.305 . S
O207 Zn190 1.920 . S
O207 C209 1.234 . S
C208 O194 1.305 . S
C208 O195 1.234 . S
C209 O206 1.305 . S
C209 O207 1.234 . S
H210 C228 0.951 . S
H211 C230 0.951 . S
H212 C232 0.950 . S
H213 C233 0.950 . S
H214 C235 0.950 . S
H215 C238 0.950 . S
H216 C239 0.950 1_655 S
H217 C241 0.950 . S
H218 C242 0.950 . S
H219 C243 0.951 . S
H220 C245 0.951 . S
H221 C247 0.950 . S
H222 C248 0.950 . S
H223 C250 0.950 . S
H224 C253 0.950 . S
H225 C254 0.950 . S
H226 C256 0.950 . S
H227 C257 0.950 . S
C228 H210 0.951 . S
C228 C229 1.366 . S
C228 C230 1.388 . S
C229 C228 1.366 . S
C229 C233 1.385 . S
C230 H211 0.951 . S
C230 C228 1.388 . S
C230 C231 1.366 . S
C231 C230 1.366 . S
C231 C232 1.414 . S
C231 C234 1.499 . S
C232 H212 0.950 . S
C232 C231 1.414 . S
C232 C233 1.374 . S
C233 H213 0.950 . S
C233 C229 1.385 . S
C233 C232 1.374 . S
C234 C231 1.499 . S
C234 C235 1.373 . S
C234 C236 1.389 . S
C235 H214 0.950 . S
C235 C234 1.373 . S
C235 C251 1.377 . S
C236 C234 1.389 . S
C236 C237 1.524 . S
C236 C250 1.377 . S
C237 C236 1.524 . S
C237 C238 1.397 . S
C237 C242 1.363 . S
C238 H215 0.950 . S
C238 C237 1.397 . S
C238 C239 1.334 . S
C239 H216 0.950 1_455 S
C239 C238 1.334 . S
C239 C240 1.287 1_455 S
C240 C239 1.287 1_655 S
C240 C241 1.524 1_655 S
C240 H259 0.913 . S
C241 H217 0.950 . S
C241 C240 1.524 1_455 S
C241 C242 1.415 . S
C242 H218 0.950 . S
C242 C237 1.363 . S
C242 C241 1.415 . S
C243 H219 0.951 . S
C243 C244 1.366 . S
C243 C245 1.388 . S
C244 C243 1.366 . S
C244 C248 1.385 . S
C245 H220 0.951 . S
C245 C243 1.388 . S
C245 C246 1.366 . S
C246 C245 1.366 . S
C246 C247 1.414 . S
C246 C249 1.499 . S
C247 H221 0.950 . S
C247 C246 1.414 . S
C247 C248 1.374 . S
C248 H222 0.950 . S
C248 C244 1.385 . S
C248 C247 1.374 . S
C249 C246 1.499 . S
C249 C250 1.373 . S
C249 C251 1.389 . S
C250 H223 0.950 . S
C250 C236 1.377 . S
C250 C249 1.373 . S
C251 C235 1.377 . S
C251 C249 1.389 . S
C251 C252 1.524 . S
C252 C251 1.524 . S
C252 C253 1.397 . S
C252 C257 1.363 . S
C253 H224 0.950 . S
C253 C252 1.397 . S
C253 C254 1.334 . S
C254 H225 0.950 . S
C254 C253 1.334 . S
C254 C255 1.287 . S
C255 C254 1.287 . S
C255 C256 1.524 . S
C255 H258 0.999 . S
C256 H226 0.950 . S
C256 C255 1.524 . S
C256 C257 1.415 . S
C257 H227 0.950 . S
C257 C252 1.363 . S
C257 C256 1.415 . S
H258 C255 0.999 . S
H259 C240 0.913 . S
H260 C278 0.951 . S
H261 C280 0.951 . S
H262 C282 0.950 . S
H263 C283 0.950 . S
H264 C285 0.950 . S
H265 C288 0.950 1_545 S
H266 C289 0.950 . S
H267 C291 0.950 . S
H268 C292 0.950 . S
H269 C293 0.951 . S
H270 C295 0.951 . S
H271 C297 0.950 . S
H272 C298 0.950 . S
H273 C300 0.950 . S
H274 C303 0.950 . S
H275 C304 0.950 . S
H276 C306 0.950 . S
H277 C307 0.950 . S
C278 H260 0.951 . S
C278 C279 1.366 . S
C278 C280 1.388 . S
C279 C278 1.366 . S
C279 C283 1.385 . S
C280 H261 0.951 . S
C280 C278 1.388 . S
C280 C281 1.366 . S
C281 C280 1.366 . S
C281 C282 1.414 . S
C281 C284 1.499 . S
C282 H262 0.950 . S
C282 C281 1.414 . S
C282 C283 1.374 . S
C283 H263 0.950 . S
C283 C279 1.385 . S
C283 C282 1.374 . S
C284 C281 1.499 . S
C284 C285 1.373 . S
C284 C286 1.389 . S
C285 H264 0.950 . S
C285 C284 1.373 . S
C285 C301 1.377 . S
C286 C284 1.389 . S
C286 C287 1.524 . S
C286 C300 1.377 . S
C287 C286 1.524 . S
C287 C288 1.397 1_545 S
C287 C292 1.363 . S
C288 H265 0.950 1_565 S
C288 C287 1.397 1_565 S
C288 C289 1.334 . S
C289 H266 0.950 . S
C289 C288 1.334 . S
C289 C290 1.287 . S
C290 C289 1.287 . S
C290 C291 1.524 . S
C290 H309 0.913 . S
C291 H267 0.950 . S
C291 C290 1.524 . S
C291 C292 1.415 1_565 S
C292 H268 0.950 . S
C292 C287 1.363 . S
C292 C291 1.415 1_545 S
C293 H269 0.951 . S
C293 C294 1.366 . S
C293 C295 1.388 . S
C294 C293 1.366 . S
C294 C298 1.385 . S
C295 H270 0.951 . S
C295 C293 1.388 . S
C295 C296 1.366 . S
C296 C295 1.366 . S
C296 C297 1.414 . S
C296 C299 1.499 . S
C297 H271 0.950 . S
C297 C296 1.414 . S
C297 C298 1.374 . S
C298 H272 0.950 . S
C298 C294 1.385 . S
C298 C297 1.374 . S
C299 C296 1.499 . S
C299 C300 1.373 . S
C299 C301 1.389 . S
C300 H273 0.950 . S
C300 C286 1.377 . S
C300 C299 1.373 . S
C301 C285 1.377 . S
C301 C299 1.389 . S
C301 C302 1.524 . S
C302 C301 1.524 . S
C302 C303 1.397 . S
C302 C307 1.363 . S
C303 H274 0.950 . S
C303 C302 1.397 . S
C303 C304 1.334 . S
C304 H275 0.950 . S
C304 C303 1.334 . S
C304 C305 1.287 . S
C305 C304 1.287 . S
C305 C306 1.524 . S
C305 H308 0.999 . S
C306 H276 0.950 . S
C306 C305 1.524 . S
C306 C307 1.415 . S
C307 H277 0.950 . S
C307 C302 1.363 . S
C307 C306 1.415 . S
H308 C305 0.999 . S
H309 C290 0.913 . S
H310 C328 0.951 . S
H311 C330 0.951 . S
H312 C332 0.950 . S
H313 C333 0.950 . S
H314 C335 0.950 . S
H315 C338 0.950 . S
H316 C339 0.950 . S
H317 C341 0.950 . S
H318 C342 0.950 . S
H319 C343 0.951 . S
H320 C345 0.951 . S
H321 C347 0.950 . S
H322 C348 0.950 . S
H323 C350 0.950 . S
H324 C353 0.950 . S
H325 C354 0.950 . S
H326 C356 0.950 1_655 S
H327 C357 0.950 . S
C328 H310 0.951 . S
C328 C329 1.366 . S
C328 C330 1.388 . S
C329 C328 1.366 . S
C329 C333 1.385 . S
C330 H311 0.951 . S
C330 C328 1.388 . S
C330 C331 1.366 . S
C331 C330 1.366 . S
C331 C332 1.414 . S
C331 C334 1.499 . S
C332 H312 0.950 . S
C332 C331 1.414 . S
C332 C333 1.374 . S
C333 H313 0.950 . S
C333 C329 1.385 . S
C333 C332 1.374 . S
C334 C331 1.499 . S
C334 C335 1.373 . S
C334 C336 1.389 . S
C335 H314 0.950 . S
C335 C334 1.373 . S
C335 C351 1.377 . S
C336 C334 1.389 . S
C336 C337 1.524 . S
C336 C350 1.377 . S
C337 C336 1.524 . S
C337 C338 1.397 . S
C337 C342 1.363 . S
C338 H315 0.950 . S
C338 C337 1.397 . S
C338 C339 1.334 . S
C339 H316 0.950 . S
C339 C338 1.334 . S
C339 C340 1.287 . S
C340 C339 1.287 . S
C340 C341 1.524 . S
C340 H359 0.913 . S
C341 H317 0.950 . S
C341 C340 1.524 . S
C341 C342 1.415 . S
C342 H318 0.950 . S
C342 C337 1.363 . S
C342 C341 1.415 . S
C343 H319 0.951 . S
C343 C344 1.366 . S
C343 C345 1.388 . S
C344 C343 1.366 . S
C344 C348 1.385 . S
C345 H320 0.951 . S
C345 C343 1.388 . S
C345 C346 1.366 . S
C346 C345 1.366 . S
C346 C347 1.414 . S
C346 C349 1.499 . S
C347 H321 0.950 . S
C347 C346 1.414 . S
C347 C348 1.374 . S
C348 H322 0.950 . S
C348 C344 1.385 . S
C348 C347 1.374 . S
C349 C346 1.499 . S
C349 C350 1.373 . S
C349 C351 1.389 . S
C350 H323 0.950 . S
C350 C336 1.377 . S
C350 C349 1.373 . S
C351 C335 1.377 . S
C351 C349 1.389 . S
C351 C352 1.524 . S
C352 C351 1.524 . S
C352 C353 1.397 . S
C352 C357 1.363 . S
C353 H324 0.950 . S
C353 C352 1.397 . S
C353 C354 1.334 . S
C354 H325 0.950 . S
C354 C353 1.334 . S
C354 C355 1.287 . S
C355 C354 1.287 . S
C355 C356 1.524 . S
C355 H358 0.999 . S
C356 H326 0.950 1_455 S
C356 C355 1.524 . S
C356 C357 1.415 . S
C357 H327 0.950 . S
C357 C352 1.363 . S
C357 C356 1.415 . S
H358 C355 0.999 . S
H359 C340 0.913 . S
H360 C378 0.951 . S
H361 C380 0.951 . S
H362 C382 0.950 . S
H363 C383 0.950 . S
H364 C385 0.950 . S
H365 C388 0.950 . S
H366 C389 0.950 . S
H367 C391 0.950 . S
H368 C392 0.950 . S
H369 C393 0.951 . S
H370 C395 0.951 . S
H371 C397 0.950 . S
H372 C398 0.950 . S
H373 C400 0.950 . S
H374 C403 0.950 . S
H375 C404 0.950 . S
H376 C406 0.950 . S
H377 C407 0.950 . S
C378 H360 0.951 . S
C378 C379 1.366 . S
C378 C380 1.388 . S
C379 C378 1.366 . S
C379 C383 1.385 . S
C380 H361 0.951 . S
C380 C378 1.388 . S
C380 C381 1.366 . S
C381 C380 1.366 . S
C381 C382 1.414 . S
C381 C384 1.499 . S
C382 H362 0.950 . S
C382 C381 1.414 . S
C382 C383 1.374 . S
C383 H363 0.950 . S
C383 C379 1.385 . S
C383 C382 1.374 . S
C384 C381 1.499 . S
C384 C385 1.373 . S
C384 C386 1.389 . S
C385 H364 0.950 . S
C385 C384 1.373 . S
C385 C401 1.377 . S
C386 C384 1.389 . S
C386 C387 1.524 . S
C386 C400 1.377 . S
C387 C386 1.524 . S
C387 C388 1.397 . S
C387 C392 1.363 . S
C388 H365 0.950 . S
C388 C387 1.397 . S
C388 C389 1.334 . S
C389 H366 0.950 . S
C389 C388 1.334 . S
C389 C390 1.287 . S
C390 C389 1.287 . S
C390 C391 1.524 . S
C390 H409 0.913 . S
C391 H367 0.950 . S
C391 C390 1.524 . S
C391 C392 1.415 . S
C392 H368 0.950 . S
C392 C387 1.363 . S
C392 C391 1.415 . S
C393 H369 0.951 . S
C393 C394 1.366 . S
C393 C395 1.388 . S
C394 C393 1.366 . S
C394 C398 1.385 . S
C395 H370 0.951 . S
C395 C393 1.388 . S
C395 C396 1.366 . S
C396 C395 1.366 . S
C396 C397 1.414 . S
C396 C399 1.499 . S
C397 H371 0.950 . S
C397 C396 1.414 . S
C397 C398 1.374 . S
C398 H372 0.950 . S
C398 C394 1.385 . S
C398 C397 1.374 . S
C399 C396 1.499 . S
C399 C400 1.373 . S
C399 C401 1.389 . S
C400 H373 0.950 . S
C400 C386 1.377 . S
C400 C399 1.373 . S
C401 C385 1.377 . S
C401 C399 1.389 . S
C401 C402 1.524 . S
C402 C401 1.524 . S
C402 C403 1.397 . S
C402 C407 1.363 . S
C403 H374 0.950 . S
C403 C402 1.397 . S
C403 C404 1.334 . S
C404 H375 0.950 . S
C404 C403 1.334 . S
C404 C405 1.287 . S
C405 C404 1.287 . S
C405 C406 1.524 . S
C405 H408 0.999 . S
C406 H376 0.950 . S
C406 C405 1.524 . S
C406 C407 1.415 . S
C407 H377 0.950 . S
C407 C402 1.363 . S
C407 C406 1.415 . S
H408 C405 0.999 . S
H409 C390 0.913 . S
H410 C428 0.951 1_545 S
H411 C430 0.951 . S
H412 C432 0.950 . S
H413 C433 0.950 . S
H414 C435 0.950 . S
H415 C438 0.950 . S
H416 C439 0.950 . S
H417 C441 0.950 1_545 S
H418 C442 0.950 . S
H419 C443 0.951 . S
H420 C445 0.951 . S
H421 C447 0.950 . S
H422 C448 0.950 . S
H423 C450 0.950 . S
H424 C453 0.950 . S
H425 C454 0.950 . S
H426 C456 0.950 . S
H427 C457 0.950 . S
C428 H410 0.951 1_565 S
C428 C429 1.366 . S
C428 C430 1.388 . S
C429 C428 1.366 . S
C429 C433 1.385 . S
C430 H411 0.951 . S
C430 C428 1.388 . S
C430 C431 1.366 . S
C431 C430 1.366 . S
C431 C432 1.414 . S
C431 C434 1.499 . S
C432 H412 0.950 . S
C432 C431 1.414 . S
C432 C433 1.374 . S
C433 H413 0.950 . S
C433 C429 1.385 . S
C433 C432 1.374 . S
C434 C431 1.499 . S
C434 C435 1.373 . S
C434 C436 1.389 . S
C435 H414 0.950 . S
C435 C434 1.373 . S
C435 C451 1.377 . S
C436 C434 1.389 . S
C436 C437 1.524 . S
C436 C450 1.377 . S
C437 C436 1.524 . S
C437 C438 1.397 . S
C437 C442 1.363 . S
C438 H415 0.950 . S
C438 C437 1.397 . S
C438 C439 1.334 . S
C439 H416 0.950 . S
C439 C438 1.334 . S
C439 C440 1.287 . S
C440 C439 1.287 . S
C440 C441 1.524 . S
C440 H459 0.913 . S
C441 H417 0.950 1_565 S
C441 C440 1.524 . S
C441 C442 1.415 . S
C442 H418 0.950 . S
C442 C437 1.363 . S
C442 C441 1.415 . S
C443 H419 0.951 . S
C443 C444 1.366 . S
C443 C445 1.388 . S
C444 C443 1.366 . S
C444 C448 1.385 . S
C445 H420 0.951 . S
C445 C443 1.388 . S
C445 C446 1.366 . S
C446 C445 1.366 . S
C446 C447 1.414 . S
C446 C449 1.499 . S
C447 H421 0.950 . S
C447 C446 1.414 . S
C447 C448 1.374 . S
C448 H422 0.950 . S
C448 C444 1.385 . S
C448 C447 1.374 . S
C449 C446 1.499 . S
C449 C450 1.373 . S
C449 C451 1.389 . S
C450 H423 0.950 . S
C450 C436 1.377 . S
C450 C449 1.373 . S
C451 C435 1.377 . S
C451 C449 1.389 . S
C451 C452 1.524 . S
C452 C451 1.524 . S
C452 C453 1.397 . S
C452 C457 1.363 . S
C453 H424 0.950 . S
C453 C452 1.397 . S
C453 C454 1.334 . S
C454 H425 0.950 . S
C454 C453 1.334 . S
C454 C455 1.287 . S
C455 C454 1.287 . S
C455 C456 1.524 . S
C455 H458 0.999 . S
C456 H426 0.950 . S
C456 C455 1.524 . S
C456 C457 1.415 . S
C457 H427 0.950 . S
C457 C452 1.363 . S
C457 C456 1.415 . S
H458 C455 0.999 . S
H459 C440 0.913 . S
H460 C478 0.951 . S
H461 C480 0.951 . S
H462 C482 0.950 . S
H463 C483 0.950 . S
H464 C485 0.950 . S
H465 C488 0.950 . S
H466 C489 0.950 . S
H467 C491 0.950 . S
H468 C492 0.950 . S
H469 C493 0.951 . S
H470 C495 0.951 . S
H471 C497 0.950 . S
H472 C498 0.950 . S
H473 C500 0.950 . S
H474 C503 0.950 . S
H475 C504 0.950 . S
H476 C506 0.950 . S
H477 C507 0.950 . S
C478 H460 0.951 . S
C478 C479 1.366 . S
C478 C480 1.388 . S
C479 C478 1.366 . S
C479 C483 1.385 . S
C480 H461 0.951 . S
C480 C478 1.388 . S
C480 C481 1.366 . S
C481 C480 1.366 . S
C481 C482 1.414 . S
C481 C484 1.499 . S
C482 H462 0.950 . S
C482 C481 1.414 . S
C482 C483 1.374 . S
C483 H463 0.950 . S
C483 C479 1.385 . S
C483 C482 1.374 . S
C484 C481 1.499 . S
C484 C485 1.373 . S
C484 C486 1.389 . S
C485 H464 0.950 . S
C485 C484 1.373 . S
C485 C501 1.377 . S
C486 C484 1.389 . S
C486 C487 1.524 . S
C486 C500 1.377 . S
C487 C486 1.524 . S
C487 C488 1.397 . S
C487 C492 1.363 . S
C488 H465 0.950 . S
C488 C487 1.397 . S
C488 C489 1.334 . S
C489 H466 0.950 . S
C489 C488 1.334 . S
C489 C490 1.287 . S
C490 C489 1.287 . S
C490 C491 1.524 . S
C490 H509 0.913 . S
C491 H467 0.950 . S
C491 C490 1.524 . S
C491 C492 1.415 . S
C492 H468 0.950 . S
C492 C487 1.363 . S
C492 C491 1.415 . S
C493 H469 0.951 . S
C493 C494 1.366 . S
C493 C495 1.388 . S
C494 C493 1.366 . S
C494 C498 1.385 . S
C495 H470 0.951 . S
C495 C493 1.388 . S
C495 C496 1.366 . S
C496 C495 1.366 . S
C496 C497 1.414 . S
C496 C499 1.499 . S
C497 H471 0.950 . S
C497 C496 1.414 . S
C497 C498 1.374 . S
C498 H472 0.950 . S
C498 C494 1.385 . S
C498 C497 1.374 . S
C499 C496 1.499 . S
C499 C500 1.373 . S
C499 C501 1.389 . S
C500 H473 0.950 . S
C500 C486 1.377 . S
C500 C499 1.373 . S
C501 C485 1.377 . S
C501 C499 1.389 . S
C501 C502 1.524 . S
C502 C501 1.524 . S
C502 C503 1.397 . S
C502 C507 1.363 . S
C503 H474 0.950 . S
C503 C502 1.397 . S
C503 C504 1.334 . S
C504 H475 0.950 . S
C504 C503 1.334 . S
C504 C505 1.287 . S
C505 C504 1.287 . S
C505 C506 1.524 . S
C505 H508 0.999 . S
C506 H476 0.950 . S
C506 C505 1.524 . S
C506 C507 1.415 . S
C507 H477 0.950 . S
C507 C502 1.363 . S
C507 C506 1.415 . S
H508 C505 0.999 . S
H509 C490 0.913 . S
H510 C528 0.951 . S
H511 C530 0.951 . S
H512 C532 0.950 . S
H513 C533 0.950 . S
H514 C535 0.950 . S
H515 C538 0.950 . S
H516 C539 0.950 . S
H517 C541 0.950 . S
H518 C542 0.950 . S
H519 C543 0.951 . S
H520 C545 0.951 . S
H521 C547 0.950 . S
H522 C548 0.950 . S
H523 C550 0.950 . S
H524 C553 0.950 . S
H525 C554 0.950 . S
H526 C556 0.950 . S
H527 C557 0.950 . S
C528 H510 0.951 . S
C528 C529 1.366 . S
C528 C530 1.388 . S
C529 C528 1.366 . S
C529 C533 1.385 . S
C530 H511 0.951 . S
C530 C528 1.388 . S
C530 C531 1.366 . S
C531 C530 1.366 . S
C531 C532 1.414 . S
C531 C534 1.499 . S
C532 H512 0.950 . S
C532 C531 1.414 . S
C532 C533 1.374 . S
C533 H513 0.950 . S
C533 C529 1.385 . S
C533 C532 1.374 . S
C534 C531 1.499 . S
C534 C535 1.373 . S
C534 C536 1.389 . S
C535 H514 0.950 . S
C535 C534 1.373 . S
C535 C551 1.377 . S
C536 C534 1.389 . S
C536 C537 1.524 . S
C536 C550 1.377 . S
C537 C536 1.524 . S
C537 C538 1.397 . S
C537 C542 1.363 . S
C538 H515 0.950 . S
C538 C537 1.397 . S
C538 C539 1.334 1_565 S
C539 H516 0.950 . S
C539 C538 1.334 1_545 S
C539 C540 1.287 . S
C540 C539 1.287 . S
C540 C541 1.524 . S
C540 H559 0.913 . S
C541 H517 0.950 . S
C541 C540 1.524 . S
C541 C542 1.415 1_545 S
C542 H518 0.950 . S
C542 C537 1.363 . S
C542 C541 1.415 1_565 S
C543 H519 0.951 . S
C543 C544 1.366 . S
C543 C545 1.388 . S
C544 C543 1.366 . S
C544 C548 1.385 . S
C545 H520 0.951 . S
C545 C543 1.388 . S
C545 C546 1.366 . S
C546 C545 1.366 . S
C546 C547 1.414 . S
C546 C549 1.499 . S
C547 H521 0.950 . S
C547 C546 1.414 . S
C547 C548 1.374 . S
C548 H522 0.950 . S
C548 C544 1.385 . S
C548 C547 1.374 . S
C549 C546 1.499 . S
C549 C550 1.373 . S
C549 C551 1.389 . S
C550 H523 0.950 . S
C550 C536 1.377 . S
C550 C549 1.373 . S
C551 C535 1.377 . S
C551 C549 1.389 . S
C551 C552 1.524 . S
C552 C551 1.524 . S
C552 C553 1.397 . S
C552 C557 1.363 . S
C553 H524 0.950 . S
C553 C552 1.397 . S
C553 C554 1.334 . S
C554 H525 0.950 . S
C554 C553 1.334 . S
C554 C555 1.287 . S
C555 C554 1.287 . S
C555 C556 1.524 . S
C555 H558 0.999 . S
C556 H526 0.950 . S
C556 C555 1.524 . S
C556 C557 1.415 . S
C557 H527 0.950 . S
C557 C552 1.363 . S
C557 C556 1.415 . S
H558 C555 0.999 . S
H559 C540 0.913 . S
H560 C578 0.951 . S
H561 C580 0.951 . S
H562 C582 0.950 . S
H563 C583 0.950 . S
H564 C585 0.950 . S
H565 C588 0.950 . S
H566 C589 0.950 . S
H567 C591 0.950 . S
H568 C592 0.950 . S
H569 C593 0.951 . S
H570 C595 0.951 . S
H571 C597 0.950 . S
H572 C598 0.950 . S
H573 C600 0.950 . S
H574 C603 0.950 . S
H575 C604 0.950 . S
H576 C606 0.950 . S
H577 C607 0.950 . S
C578 H560 0.951 . S
C578 C579 1.366 . S
C578 C580 1.388 . S
C579 C578 1.366 . S
C579 C583 1.385 . S
C580 H561 0.951 . S
C580 C578 1.388 . S
C580 C581 1.366 . S
C581 C580 1.366 . S
C581 C582 1.414 . S
C581 C584 1.499 . S
C582 H562 0.950 . S
C582 C581 1.414 . S
C582 C583 1.374 . S
C583 H563 0.950 . S
C583 C579 1.385 . S
C583 C582 1.374 . S
C584 C581 1.499 . S
C584 C585 1.373 . S
C584 C586 1.389 . S
C585 H564 0.950 . S
C585 C584 1.373 . S
C585 C601 1.377 . S
C586 C584 1.389 . S
C586 C587 1.524 . S
C586 C600 1.377 . S
C587 C586 1.524 . S
C587 C588 1.397 . S
C587 C592 1.363 . S
C588 H565 0.950 . S
C588 C587 1.397 . S
C588 C589 1.334 1_545 S
C589 H566 0.950 . S
C589 C588 1.334 1_565 S
C589 C590 1.287 . S
C590 C589 1.287 . S
C590 C591 1.524 . S
C590 H609 0.913 . S
C591 H567 0.950 . S
C591 C590 1.524 . S
C591 C592 1.415 1_565 S
C592 H568 0.950 . S
C592 C587 1.363 . S
C592 C591 1.415 1_545 S
C593 H569 0.951 . S
C593 C594 1.366 . S
C593 C595 1.388 . S
C594 C593 1.366 . S
C594 C598 1.385 . S
C595 H570 0.951 . S
C595 C593 1.388 . S
C595 C596 1.366 . S
C596 C595 1.366 . S
C596 C597 1.414 . S
C596 C599 1.499 . S
C597 H571 0.950 . S
C597 C596 1.414 . S
C597 C598 1.374 . S
C598 H572 0.950 . S
C598 C594 1.385 . S
C598 C597 1.374 . S
C599 C596 1.499 . S
C599 C600 1.373 . S
C599 C601 1.389 . S
C600 H573 0.950 . S
C600 C586 1.377 . S
C600 C599 1.373 . S
C601 C585 1.377 . S
C601 C599 1.389 . S
C601 C602 1.524 . S
C602 C601 1.524 . S
C602 C603 1.397 . S
C602 C607 1.363 . S
C603 H574 0.950 . S
C603 C602 1.397 . S
C603 C604 1.334 . S
C604 H575 0.950 . S
C604 C603 1.334 . S
C604 C605 1.287 . S
C605 C604 1.287 . S
C605 C606 1.524 . S
C605 H608 0.999 . S
C606 H576 0.950 . S
C606 C605 1.524 . S
C606 C607 1.415 . S
C607 H577 0.950 . S
C607 C602 1.363 . S
C607 C606 1.415 . S
H608 C605 0.999 . S
H609 C590 0.913 . S
H610 C628 0.951 . S
H611 C630 0.951 . S
H612 C632 0.950 . S
H613 C633 0.950 . S
H614 C635 0.950 . S
H615 C638 0.950 . S
H616 C639 0.950 . S
H617 C641 0.950 . S
H618 C642 0.950 . S
H619 C643 0.951 . S
H620 C645 0.951 . S
H621 C647 0.950 . S
H622 C648 0.950 . S
H623 C650 0.950 . S
H624 C653 0.950 . S
H625 C654 0.950 . S
H626 C656 0.950 . S
H627 C657 0.950 . S
C628 H610 0.951 . S
C628 C629 1.366 . S
C628 C630 1.388 . S
C629 C628 1.366 . S
C629 C633 1.385 . S
C630 H611 0.951 . S
C630 C628 1.388 . S
C630 C631 1.366 . S
C631 C630 1.366 . S
C631 C632 1.414 . S
C631 C634 1.499 . S
C632 H612 0.950 . S
C632 C631 1.414 . S
C632 C633 1.374 . S
C633 H613 0.950 . S
C633 C629 1.385 . S
C633 C632 1.374 . S
C634 C631 1.499 . S
C634 C635 1.373 . S
C634 C636 1.389 . S
C635 H614 0.950 . S
C635 C634 1.373 . S
C635 C651 1.377 . S
C636 C634 1.389 . S
C636 C637 1.524 . S
C636 C650 1.377 . S
C637 C636 1.524 . S
C637 C638 1.397 . S
C637 C642 1.363 . S
C638 H615 0.950 . S
C638 C637 1.397 . S
C638 C639 1.334 . S
C639 H616 0.950 . S
C639 C638 1.334 . S
C639 C640 1.287 1_455 S
C640 C639 1.287 1_655 S
C640 C641 1.524 . S
C640 H659 0.913 . S
C641 H617 0.950 . S
C641 C640 1.524 . S
C641 C642 1.415 1_655 S
C642 H618 0.950 . S
C642 C637 1.363 . S
C642 C641 1.415 1_455 S
C643 H619 0.951 . S
C643 C644 1.366 . S
C643 C645 1.388 . S
C644 C643 1.366 . S
C644 C648 1.385 . S
C645 H620 0.951 . S
C645 C643 1.388 . S
C645 C646 1.366 . S
C646 C645 1.366 . S
C646 C647 1.414 . S
C646 C649 1.499 . S
C647 H621 0.950 . S
C647 C646 1.414 . S
C647 C648 1.374 . S
C648 H622 0.950 . S
C648 C644 1.385 . S
C648 C647 1.374 . S
C649 C646 1.499 . S
C649 C650 1.373 . S
C649 C651 1.389 . S
C650 H623 0.950 . S
C650 C636 1.377 . S
C650 C649 1.373 . S
C651 C635 1.377 . S
C651 C649 1.389 . S
C651 C652 1.524 . S
C652 C651 1.524 . S
C652 C653 1.397 . S
C652 C657 1.363 . S
C653 H624 0.950 . S
C653 C652 1.397 . S
C653 C654 1.334 . S
C654 H625 0.950 . S
C654 C653 1.334 . S
C654 C655 1.287 . S
C655 C654 1.287 . S
C655 C656 1.524 . S
C655 H658 0.999 . S
C656 H626 0.950 . S
C656 C655 1.524 . S
C656 C657 1.415 . S
C657 H627 0.950 . S
C657 C652 1.363 . S
C657 C656 1.415 . S
H658 C655 0.999 . S
H659 C640 0.913 . S
H660 C678 0.951 . S
H661 C680 0.951 . S
H662 C682 0.950 . S
H663 C683 0.950 . S
H664 C685 0.950 . S
H665 C688 0.950 . S
H666 C689 0.950 . S
H667 C691 0.950 . S
H668 C692 0.950 . S
H669 C693 0.951 . S
H670 C695 0.951 . S
H671 C697 0.950 . S
H672 C698 0.950 . S
H673 C700 0.950 . S
H674 C703 0.950 . S
H675 C704 0.950 . S
H676 C706 0.950 . S
H677 C707 0.950 . S
C678 H660 0.951 . S
C678 C679 1.366 . S
C678 C680 1.388 . S
C679 C678 1.366 . S
C679 C683 1.385 . S
C680 H661 0.951 . S
C680 C678 1.388 . S
C680 C681 1.366 . S
C681 C680 1.366 . S
C681 C682 1.414 . S
C681 C684 1.499 . S
C682 H662 0.950 . S
C682 C681 1.414 . S
C682 C683 1.374 . S
C683 H663 0.950 . S
C683 C679 1.385 . S
C683 C682 1.374 . S
C684 C681 1.499 . S
C684 C685 1.373 . S
C684 C686 1.389 . S
C685 H664 0.950 . S
C685 C684 1.373 . S
C685 C701 1.377 . S
C686 C684 1.389 . S
C686 C687 1.524 . S
C686 C700 1.377 . S
C687 C686 1.524 . S
C687 C688 1.397 . S
C687 C692 1.363 . S
C688 H665 0.950 . S
C688 C687 1.397 . S
C688 C689 1.334 1_545 S
C689 H666 0.950 . S
C689 C688 1.334 1_565 S
C689 C690 1.287 . S
C690 C689 1.287 . S
C690 C691 1.524 1_565 S
C690 H709 0.913 . S
C691 H667 0.950 . S
C691 C690 1.524 1_545 S
C691 C692 1.415 . S
C692 H668 0.950 . S
C692 C687 1.363 . S
C692 C691 1.415 . S
C693 H669 0.951 . S
C693 C694 1.366 . S
C693 C695 1.388 . S
C694 C693 1.366 . S
C694 C698 1.385 . S
C695 H670 0.951 . S
C695 C693 1.388 . S
C695 C696 1.366 . S
C696 C695 1.366 . S
C696 C697 1.414 . S
C696 C699 1.499 . S
C697 H671 0.950 . S
C697 C696 1.414 . S
C697 C698 1.374 . S
C698 H672 0.950 . S
C698 C694 1.385 . S
C698 C697 1.374 . S
C699 C696 1.499 . S
C699 C700 1.373 . S
C699 C701 1.389 . S
C700 H673 0.950 . S
C700 C686 1.377 . S
C700 C699 1.373 . S
C701 C685 1.377 . S
C701 C699 1.389 . S
C701 C702 1.524 . S
C702 C701 1.524 . S
C702 C703 1.397 . S
C702 C707 1.363 . S
C703 H674 0.950 . S
C703 C702 1.397 . S
C703 C704 1.334 . S
C704 H675 0.950 . S
C704 C703 1.334 . S
C704 C705 1.287 . S
C705 C704 1.287 . S
C705 C706 1.524 . S
C705 H708 0.999 . S
C706 H676 0.950 . S
C706 C705 1.524 . S
C706 C707 1.415 . S
C707 H677 0.950 . S
C707 C702 1.363 . S
C707 C706 1.415 . S
H708 C705 0.999 . S
H709 C690 0.913 . S
H710 C728 0.951 . S
H711 C730 0.951 . S
H712 C732 0.950 . S
H713 C733 0.950 1_545 S
H714 C735 0.950 . S
H715 C738 0.950 . S
H716 C739 0.950 . S
H717 C741 0.950 . S
H718 C742 0.950 . S
H719 C743 0.951 . S
H720 C745 0.951 . S
H721 C747 0.950 . S
H722 C748 0.950 . S
H723 C750 0.950 . S
H724 C753 0.950 . S
H725 C754 0.950 . S
H726 C756 0.950 . S
H727 C757 0.950 . S
C728 H710 0.951 . S
C728 C729 1.366 . S
C728 C730 1.388 . S
C729 C728 1.366 . S
C729 C733 1.385 . S
C730 H711 0.951 . S
C730 C728 1.388 . S
C730 C731 1.366 . S
C731 C730 1.366 . S
C731 C732 1.414 . S
C731 C734 1.499 . S
C732 H712 0.950 . S
C732 C731 1.414 . S
C732 C733 1.374 . S
C733 H713 0.950 1_565 S
C733 C729 1.385 . S
C733 C732 1.374 . S
C734 C731 1.499 . S
C734 C735 1.373 . S
C734 C736 1.389 . S
C735 H714 0.950 . S
C735 C734 1.373 . S
C735 C751 1.377 . S
C736 C734 1.389 . S
C736 C737 1.524 . S
C736 C750 1.377 . S
C737 C736 1.524 . S
C737 C738 1.397 . S
C737 C742 1.363 . S
C738 H715 0.950 . S
C738 C737 1.397 . S
C738 C739 1.334 . S
C739 H716 0.950 . S
C739 C738 1.334 . S
C739 C740 1.287 . S
C740 C739 1.287 . S
C740 C741 1.524 . S
C740 H759 0.913 . S
C741 H717 0.950 . S
C741 C740 1.524 . S
C741 C742 1.415 . S
C742 H718 0.950 . S
C742 C737 1.363 . S
C742 C741 1.415 . S
C743 H719 0.951 . S
C743 C744 1.366 . S
C743 C745 1.388 . S
C744 C743 1.366 . S
C744 C748 1.385 . S
C745 H720 0.951 . S
C745 C743 1.388 . S
C745 C746 1.366 . S
C746 C745 1.366 . S
C746 C747 1.414 . S
C746 C749 1.499 . S
C747 H721 0.950 . S
C747 C746 1.414 . S
C747 C748 1.374 . S
C748 H722 0.950 . S
C748 C744 1.385 . S
C748 C747 1.374 . S
C749 C746 1.499 . S
C749 C750 1.373 . S
C749 C751 1.389 . S
C750 H723 0.950 . S
C750 C736 1.377 . S
C750 C749 1.373 . S
C751 C735 1.377 . S
C751 C749 1.389 . S
C751 C752 1.524 . S
C752 C751 1.524 . S
C752 C753 1.397 . S
C752 C757 1.363 . S
C753 H724 0.950 . S
C753 C752 1.397 . S
C753 C754 1.334 . S
C754 H725 0.950 . S
C754 C753 1.334 . S
C754 C755 1.287 . S
C755 C754 1.287 . S
C755 C756 1.524 . S
C755 H758 0.999 . S
C756 H726 0.950 . S
C756 C755 1.524 . S
C756 C757 1.415 . S
C757 H727 0.950 . S
C757 C752 1.363 . S
C757 C756 1.415 . S
H758 C755 0.999 . S
H759 C740 0.913 . S
H760 C778 0.951 . S
H761 C780 0.951 . S
H762 C782 0.950 . S
H763 C783 0.950 . S
H764 C785 0.950 . S
H765 C788 0.950 . S
H766 C789 0.950 . S
H767 C791 0.950 . S
H768 C792 0.950 . S
H769 C793 0.951 . S
H770 C795 0.951 . S
H771 C797 0.950 . S
H772 C798 0.950 . S
H773 C800 0.950 . S
H774 C803 0.950 . S
H775 C804 0.950 . S
H776 C806 0.950 . S
H777 C807 0.950 . S
C778 H760 0.951 . S
C778 C779 1.366 . S
C778 C780 1.388 . S
C779 C778 1.366 . S
C779 C783 1.385 . S
C780 H761 0.951 . S
C780 C778 1.388 . S
C780 C781 1.366 . S
C781 C780 1.366 . S
C781 C782 1.414 . S
C781 C784 1.499 . S
C782 H762 0.950 . S
C782 C781 1.414 . S
C782 C783 1.374 . S
C783 H763 0.950 . S
C783 C779 1.385 . S
C783 C782 1.374 . S
C784 C781 1.499 . S
C784 C785 1.373 . S
C784 C786 1.389 . S
C785 H764 0.950 . S
C785 C784 1.373 . S
C785 C801 1.377 . S
C786 C784 1.389 . S
C786 C787 1.524 . S
C786 C800 1.377 . S
C787 C786 1.524 . S
C787 C788 1.397 . S
C787 C792 1.363 . S
C788 H765 0.950 . S
C788 C787 1.397 . S
C788 C789 1.334 . S
C789 H766 0.950 . S
C789 C788 1.334 . S
C789 C790 1.287 . S
C790 C789 1.287 . S
C790 C791 1.524 . S
C790 H809 0.913 . S
C791 H767 0.950 . S
C791 C790 1.524 . S
C791 C792 1.415 . S
C792 H768 0.950 . S
C792 C787 1.363 . S
C792 C791 1.415 . S
C793 H769 0.951 . S
C793 C794 1.366 . S
C793 C795 1.388 . S
C794 C793 1.366 . S
C794 C798 1.385 . S
C795 H770 0.951 . S
C795 C793 1.388 . S
C795 C796 1.366 . S
C796 C795 1.366 . S
C796 C797 1.414 . S
C796 C799 1.499 . S
C797 H771 0.950 . S
C797 C796 1.414 . S
C797 C798 1.374 . S
C798 H772 0.950 . S
C798 C794 1.385 . S
C798 C797 1.374 . S
C799 C796 1.499 . S
C799 C800 1.373 . S
C799 C801 1.389 . S
C800 H773 0.950 . S
C800 C786 1.377 . S
C800 C799 1.373 . S
C801 C785 1.377 . S
C801 C799 1.389 . S
C801 C802 1.524 . S
C802 C801 1.524 . S
C802 C803 1.397 . S
C802 C807 1.363 . S
C803 H774 0.950 . S
C803 C802 1.397 . S
C803 C804 1.334 . S
C804 H775 0.950 . S
C804 C803 1.334 . S
C804 C805 1.287 . S
C805 C804 1.287 . S
C805 C806 1.524 . S
C805 H808 0.999 . S
C806 H776 0.950 . S
C806 C805 1.524 . S
C806 C807 1.415 . S
C807 H777 0.950 . S
C807 C802 1.363 . S
C807 C806 1.415 . S
H808 C805 0.999 . S
H809 C790 0.913 . S
C229 C58 1.137 . S
C244 C187 1.243 . S
C279 C151 1.551 . S
C294 C193 1.431 . S
C329 C74 1.532 . S
C344 C184 1.453 . S
C379 C142 1.136 . S
C394 C209 1.243 . S
C429 C67 1.551 . S
C444 C175 1.431 . S
C494 C192 1.452 . S
C479 C158 1.532 . S
C529 C154 1.136 . S
C544 C188 1.255 . S
C594 C205 1.471 . S
C579 C56 1.561 . S
C644 C172 1.398 . S
C629 C147 1.530 . S
C694 C208 1.254 . S
C679 C70 1.136 . S
C744 C171 1.472 . S
C729 C140 1.561 . S
C794 C196 1.397 . S
C779 C63 1.530 . S
