# Generated by pormake.
# Topology pyr, (3,6)-cn, num edge types: 1
# Building blocks:
#     Node 0, Type 0, BuildingBlock: WUSLED_clean_sbu_0, # of connection points: 3
#     Node 1, Type 0, BuildingBlock: WUSLED_clean_sbu_0, # of connection points: 3
#     Node 2, Type 0, BuildingBlock: WUSLED_clean_sbu_0, # of connection points: 3
#     Node 3, Type 0, BuildingBlock: WUSLED_clean_sbu_0, # of connection points: 3
#     Node 4, Type 0, BuildingBlock: WUSLED_clean_sbu_0, # of connection points: 3
#     Node 5, Type 0, BuildingBlock: WUSLED_clean_sbu_0, # of connection points: 3
#     Node 6, Type 0, BuildingBlock: WUSLED_clean_sbu_0, # of connection points: 3
#     Node 7, Type 0, BuildingBlock: WUSLED_clean_sbu_0, # of connection points: 3
#     Node 8, Type 1, BuildingBlock: BETGAK_clean_sbu_0, # of connection points: 6
#     Node 9, Type 1, BuildingBlock: BETGAK_clean_sbu_0, # of connection points: 6
#     Node 10, Type 1, BuildingBlock: BETGAK_clean_sbu_0, # of connection points: 6
#     Node 11, Type 1, BuildingBlock: BETGAK_clean_sbu_0, # of connection points: 6
#     Edge 12, Type (0, 1), BuildingBlock: ZUJKAS_clean_linker_0, # of connection points: 2
#     Edge 13, Type (0, 1), BuildingBlock: ZUJKAS_clean_linker_0, # of connection points: 2
#     Edge 14, Type (0, 1), BuildingBlock: ZUJKAS_clean_linker_0, # of connection points: 2
#     Edge 15, Type (0, 1), BuildingBlock: ZUJKAS_clean_linker_0, # of connection points: 2
#     Edge 16, Type (0, 1), BuildingBlock: ZUJKAS_clean_linker_0, # of connection points: 2
#     Edge 17, Type (0, 1), BuildingBlock: ZUJKAS_clean_linker_0, # of connection points: 2
#     Edge 18, Type (0, 1), BuildingBlock: ZUJKAS_clean_linker_0, # of connection points: 2
#     Edge 19, Type (0, 1), BuildingBlock: ZUJKAS_clean_linker_0, # of connection points: 2
#     Edge 20, Type (0, 1), BuildingBlock: ZUJKAS_clean_linker_0, # of connection points: 2
#     Edge 21, Type (0, 1), BuildingBlock: ZUJKAS_clean_linker_0, # of connection points: 2
#     Edge 22, Type (0, 1), BuildingBlock: ZUJKAS_clean_linker_0, # of connection points: 2
#     Edge 23, Type (0, 1), BuildingBlock: ZUJKAS_clean_linker_0, # of connection points: 2
#     Edge 24, Type (0, 1), BuildingBlock: ZUJKAS_clean_linker_0, # of connection points: 2
#     Edge 25, Type (0, 1), BuildingBlock: ZUJKAS_clean_linker_0, # of connection points: 2
#     Edge 26, Type (0, 1), BuildingBlock: ZUJKAS_clean_linker_0, # of connection points: 2
#     Edge 27, Type (0, 1), BuildingBlock: ZUJKAS_clean_linker_0, # of connection points: 2
#     Edge 28, Type (0, 1), BuildingBlock: ZUJKAS_clean_linker_0, # of connection points: 2
#     Edge 29, Type (0, 1), BuildingBlock: ZUJKAS_clean_linker_0, # of connection points: 2
#     Edge 30, Type (0, 1), BuildingBlock: ZUJKAS_clean_linker_0, # of connection points: 2
#     Edge 31, Type (0, 1), BuildingBlock: ZUJKAS_clean_linker_0, # of connection points: 2
#     Edge 32, Type (0, 1), BuildingBlock: ZUJKAS_clean_linker_0, # of connection points: 2
#     Edge 33, Type (0, 1), BuildingBlock: ZUJKAS_clean_linker_0, # of connection points: 2
#     Edge 34, Type (0, 1), BuildingBlock: ZUJKAS_clean_linker_0, # of connection points: 2
#     Edge 35, Type (0, 1), BuildingBlock: ZUJKAS_clean_linker_0, # of connection points: 2
# Relax obj value: 0.066
# Max RMSD: 0.116
# Mean RMSD: 0.051
data_MOF--net-pyr--node1-WUSLED_clean_sbu_0--node2-BETGAK_clean_sbu_0--edge1-ZUJKAS_clean_linker_0
_symmetry_space_group_name_H-M    P1
_symmetry_Int_Tables_number       1
_symmetry_cell_setting            triclinic
loop_
_symmetry_equiv_pos_as_xyz
'x, y, z'
_cell_length_a     60.583189
_cell_length_b     63.06151
_cell_length_c     57.655729
_cell_angle_alpha  91.233262
_cell_angle_beta   88.690817
_cell_angle_gamma 98.324976
loop_
_atom_site_label
_atom_site_type_symbol
_atom_site_fract_x
_atom_site_fract_y
_atom_site_fract_z
_atom_type_partial_charge
C0 C 0.2861 0.31155 0.17246 0.0
C1 C 0.26697 0.31314 0.18621 0.0
C2 C 0.25619 0.33969 0.16036 0.0
C3 C 0.25214 0.32702 0.18019 0.0
C4 C 0.27577 0.33859 0.14703 0.0
C5 C 0.29057 0.32453 0.15299 0.0
U6 U 0.29993 0.27091 0.21406 0.0
O7 O 0.30588 0.2376 0.20921 0.0
O8 O 0.33156 0.26122 0.22526 0.0
C9 C 0.32619 0.24147 0.21736 0.0
C10 C 0.30061 0.29564 0.17803 0.0
C11 C 0.3435 0.23216 0.2039 0.0
C12 C 0.35839 0.21955 0.16745 0.0
C13 C 0.34332 0.23079 0.17956 0.0
C14 C 0.37456 0.21172 0.20377 0.0
C15 C 0.37393 0.20954 0.17945 0.0
C16 C 0.35947 0.22288 0.21584 0.0
C17 C 0.2625 0.26434 0.26888 0.0
C18 C 0.25115 0.23184 0.29059 0.0
C19 C 0.24343 0.26604 0.30622 0.0
C20 C 0.25385 0.27628 0.28678 0.0
C21 C 0.24132 0.2436 0.308 0.0
C22 C 0.26171 0.24213 0.27123 0.0
C23 C 0.27034 0.27503 0.24717 0.0
O24 O 0.31353 0.30055 0.19596 0.0
O25 O 0.29043 0.27577 0.17824 0.0
O26 O 0.26582 0.26363 0.22807 0.0
O27 O 0.29056 0.2859 0.24711 0.0
H28 H 0.2633 0.30332 0.2014 0.0
H29 H 0.23738 0.32773 0.19099 0.0
H30 H 0.27927 0.34808 0.13159 0.0
H31 H 0.30525 0.32349 0.14218 0.0
H32 H 0.35767 0.21842 0.1487 0.0
H33 H 0.33117 0.23792 0.16999 0.0
H34 H 0.38611 0.20403 0.21359 0.0
H35 H 0.35979 0.22368 0.23463 0.0
H36 H 0.2497 0.21455 0.29128 0.0
H37 H 0.23644 0.27563 0.31952 0.0
H38 H 0.25444 0.29346 0.28533 0.0
H39 H 0.2684 0.23261 0.25764 0.0
C40 C 0.25263 0.87815 0.59411 0.0
C41 C 0.24655 0.89462 0.60851 0.0
C42 C 0.21148 0.89283 0.58847 0.0
C43 C 0.22616 0.90191 0.60572 0.0
C44 C 0.21752 0.87605 0.57429 0.0
C45 C 0.238 0.86875 0.57712 0.0
U46 U 0.30696 0.88545 0.62469 0.0
O47 O 0.32639 0.86231 0.63926 0.0
O48 O 0.34138 0.88435 0.61235 0.0
C49 C 0.34329 0.86751 0.62481 0.0
C50 C 0.27444 0.87125 0.59677 0.0
C51 C 0.35043 0.84937 0.61196 0.0
C52 C 0.34332 0.82074 0.58312 0.0
C53 C 0.33736 0.83912 0.59406 0.0
C54 C 0.37565 0.82305 0.6076 0.0
C55 C 0.36231 0.81233 0.59008 0.0
C56 C 0.36972 0.84144 0.61847 0.0
C57 C 0.31689 0.92705 0.67233 0.0
C58 C 0.35067 0.92855 0.69444 0.0
C59 C 0.32122 0.94836 0.70783 0.0
C60 C 0.30865 0.94095 0.68851 0.0
C61 C 0.34216 0.94186 0.71125 0.0
C62 C 0.3381 0.92117 0.67516 0.0
C63 C 0.30256 0.91701 0.65388 0.0
O64 O 0.29149 0.88549 0.59057 0.0
O65 O 0.2771 0.86249 0.6168 0.0
O66 O 0.29417 0.89699 0.65781 0.0
O67 O 0.31053 0.92006 0.63262 0.0
H68 H 0.25776 0.90207 0.62168 0.0
H69 H 0.22222 0.91511 0.61662 0.0
H70 H 0.20647 0.86866 0.56097 0.0
H71 H 0.2425 0.85597 0.56594 0.0
H72 H 0.33265 0.8127 0.56983 0.0
H73 H 0.3223 0.84505 0.58897 0.0
H74 H 0.39055 0.81707 0.61309 0.0
H75 H 0.37994 0.84922 0.63227 0.0
H76 H 0.36659 0.92303 0.69671 0.0
H77 H 0.31436 0.95882 0.72034 0.0
H78 H 0.29225 0.94555 0.68657 0.0
H79 H 0.34457 0.91023 0.66288 0.0
C80 C 0.64059 0.38409 0.80185 0.0
C81 C 0.65522 0.39116 0.78328 0.0
C82 C 0.62574 0.40687 0.76358 0.0
C83 C 0.64797 0.4025 0.76459 0.0
C84 C 0.61136 0.40009 0.78245 0.0
C85 C 0.61865 0.38897 0.80113 0.0
U86 U 0.67299 0.36249 0.85484 0.0
O87 O 0.65688 0.34419 0.88459 0.0
O88 O 0.67827 0.32879 0.86037 0.0
C89 C 0.66553 0.32673 0.87921 0.0
C90 C 0.64642 0.3694 0.82046 0.0
C91 C 0.65271 0.30509 0.88501 0.0
C92 C 0.61896 0.28187 0.89873 0.0
C93 C 0.62959 0.30173 0.8901 0.0
C94 C 0.65416 0.26825 0.89738 0.0
C95 C 0.63114 0.26486 0.90296 0.0
C96 C 0.66467 0.28792 0.88856 0.0
C97 C 0.72734 0.39802 0.88109 0.0
C98 C 0.76615 0.39629 0.89173 0.0
C99 C 0.74759 0.42496 0.90729 0.0
C100 C 0.72814 0.41655 0.89532 0.0
C101 C 0.76715 0.41524 0.90548 0.0
C102 C 0.74665 0.38791 0.87965 0.0
C103 C 0.70763 0.3917 0.86558 0.0
O104 O 0.66423 0.35982 0.81764 0.0
O105 O 0.64276 0.37449 0.84231 0.0
O106 O 0.68743 0.39173 0.87443 0.0
O107 O 0.70851 0.37625 0.85004 0.0
H108 H 0.67215 0.38752 0.78289 0.0
H109 H 0.65964 0.4072 0.7505 0.0
H110 H 0.59428 0.40329 0.78281 0.0
H111 H 0.60677 0.38362 0.81487 0.0
H112 H 0.60127 0.28014 0.90286 0.0
H113 H 0.6198 0.3146 0.88796 0.0
H114 H 0.66421 0.25566 0.89993 0.0
H115 H 0.68251 0.28992 0.88516 0.0
H116 H 0.78073 0.3883 0.88957 0.0
H117 H 0.74729 0.4393 0.91789 0.0
H118 H 0.71381 0.42502 0.89667 0.0
H119 H 0.74698 0.37384 0.86862 0.0
C120 C 0.79907 0.66022 0.37868 0.0
C121 C 0.79614 0.66637 0.40202 0.0
C122 C 0.75892 0.64462 0.40389 0.0
C123 C 0.77631 0.65871 0.41444 0.0
C124 C 0.76209 0.6387 0.38045 0.0
C125 C 0.78176 0.64641 0.36811 0.0
U126 U 0.85614 0.69553 0.35974 0.0
O127 O 0.88717 0.68335 0.34804 0.0
O128 O 0.86905 0.70041 0.3238 0.0
C129 C 0.88596 0.68985 0.32665 0.0
C130 C 0.82021 0.66652 0.36507 0.0
C131 C 0.89206 0.67538 0.30727 0.0
C132 C 0.88419 0.65515 0.27082 0.0
C133 C 0.877 0.66684 0.29005 0.0
C134 C 0.92154 0.66014 0.28566 0.0
C135 C 0.90668 0.65172 0.26815 0.0
C136 C 0.91434 0.6717 0.30482 0.0
C137 C 0.87668 0.74992 0.39493 0.0
C138 C 0.89582 0.78622 0.38746 0.0
C139 C 0.89189 0.77359 0.42676 0.0
C140 C 0.88074 0.75382 0.41866 0.0
C141 C 0.89953 0.79031 0.41139 0.0
C142 C 0.88449 0.76637 0.37936 0.0
C143 C 0.86212 0.72965 0.38779 0.0
O144 O 0.82117 0.68289 0.35118 0.0
O145 O 0.83919 0.6657 0.37539 0.0
O146 O 0.86878 0.71131 0.39249 0.0
O147 O 0.85159 0.72906 0.36803 0.0
H148 H 0.80921 0.67694 0.4107 0.0
H149 H 0.7746 0.66395 0.43231 0.0
H150 H 0.74958 0.62761 0.37163 0.0
H151 H 0.78363 0.64117 0.35024 0.0
H152 H 0.87204 0.64879 0.25805 0.0
H153 H 0.85972 0.66944 0.29124 0.0
H154 H 0.93903 0.65838 0.28433 0.0
H155 H 0.92647 0.67832 0.31753 0.0
H156 H 0.90162 0.79838 0.37489 0.0
H157 H 0.89381 0.77592 0.4453 0.0
H158 H 0.8746 0.74169 0.43119 0.0
H159 H 0.88154 0.76405 0.36096 0.0
C160 C 0.74727 0.75712 0.88637 0.0
C161 C 0.76528 0.7537 0.87172 0.0
C162 C 0.77671 0.7288 0.89918 0.0
C163 C 0.77988 0.73971 0.87808 0.0
C164 C 0.75816 0.7317 0.91343 0.0
C165 C 0.74359 0.74584 0.9071 0.0
U166 U 0.7345 0.79795 0.8443 0.0
O167 O 0.70315 0.80844 0.83341 0.0
O168 O 0.72959 0.83155 0.84898 0.0
C169 C 0.70913 0.82814 0.8412 0.0
C170 C 0.73333 0.77343 0.88056 0.0
C171 C 0.6924 0.83785 0.85511 0.0
C172 C 0.67855 0.85038 0.89208 0.0
C173 C 0.6929 0.83872 0.87945 0.0
C174 C 0.66236 0.85955 0.85627 0.0
C175 C 0.66339 0.86126 0.88059 0.0
C176 C 0.67676 0.84799 0.84367 0.0
C177 C 0.77124 0.80391 0.78942 0.0
C178 C 0.77343 0.83472 0.76449 0.0
C179 C 0.79665 0.80714 0.75617 0.0
C180 C 0.78726 0.79573 0.77534 0.0
C181 C 0.79019 0.827 0.75079 0.0
C182 C 0.76402 0.82325 0.78367 0.0
C183 C 0.76371 0.79304 0.81102 0.0
O184 O 0.74411 0.79306 0.88007 0.0
O185 O 0.72028 0.76868 0.8627 0.0
O186 O 0.74329 0.7826 0.81132 0.0
O187 O 0.7686 0.80448 0.83 0.0
H188 H 0.76834 0.76226 0.8556 0.0
H189 H 0.79383 0.7376 0.86659 0.0
H190 H 0.75537 0.72365 0.92987 0.0
H191 H 0.7298 0.74835 0.91864 0.0
H192 H 0.67954 0.85115 0.91082 0.0
H193 H 0.7048 0.83091 0.88863 0.0
H194 H 0.65107 0.8679 0.84686 0.0
H195 H 0.6762 0.84757 0.82489 0.0
H196 H 0.76791 0.84983 0.76066 0.0
H197 H 0.80973 0.80087 0.74622 0.0
H198 H 0.79309 0.78087 0.77964 0.0
H199 H 0.75162 0.82977 0.79442 0.0
C200 C 0.67544 0.19285 0.39569 0.0
C201 C 0.6826 0.17414 0.38661 0.0
C202 C 0.65441 0.17163 0.35697 0.0
C203 C 0.67216 0.16361 0.36742 0.0
C204 C 0.64698 0.19016 0.36646 0.0
C205 C 0.65749 0.20073 0.38569 0.0
U206 U 0.72275 0.1973 0.43707 0.0
O207 O 0.74673 0.22464 0.44893 0.0
O208 O 0.7246 0.20608 0.47423 0.0
C209 C 0.73866 0.22362 0.47032 0.0
C210 C 0.68732 0.20442 0.41502 0.0
C211 C 0.73137 0.24343 0.47956 0.0
C212 C 0.71391 0.27507 0.47353 0.0
C213 C 0.72254 0.25721 0.46465 0.0
C214 C 0.72272 0.26572 0.51247 0.0
C215 C 0.71369 0.2794 0.49753 0.0
C216 C 0.7316 0.24787 0.50351 0.0
C217 C 0.76186 0.15568 0.43299 0.0
C218 C 0.79846 0.16134 0.45021 0.0
C219 C 0.78145 0.12545 0.43916 0.0
C220 C 0.7628 0.13365 0.43132 0.0
C221 C 0.79945 0.13924 0.44863 0.0
C222 C 0.77973 0.1695 0.44258 0.0
C223 C 0.74202 0.16403 0.42513 0.0
O224 O 0.68625 0.19384 0.4345 0.0
O225 O 0.70758 0.21373 0.40968 0.0
O226 O 0.74594 0.18241 0.41437 0.0
O227 O 0.72546 0.16307 0.44037 0.0
H228 H 0.69645 0.16785 0.39421 0.0
H229 H 0.67805 0.14921 0.36071 0.0
H230 H 0.63348 0.19682 0.35863 0.0
H231 H 0.65185 0.21521 0.39251 0.0
H232 H 0.70663 0.28505 0.46164 0.0
H233 H 0.72176 0.2539 0.44614 0.0
H234 H 0.7227 0.2687 0.53104 0.0
H235 H 0.73816 0.23728 0.51528 0.0
H236 H 0.81201 0.17226 0.4577 0.0
H237 H 0.78189 0.10837 0.43763 0.0
H238 H 0.7491 0.12279 0.42402 0.0
H239 H 0.77917 0.18656 0.44426 0.0
C240 C 0.30397 0.66973 0.18524 0.0
C241 C 0.28455 0.67961 0.18754 0.0
C242 C 0.26395 0.65315 0.16086 0.0
C243 C 0.26495 0.67154 0.17547 0.0
C244 C 0.2836 0.64364 0.15822 0.0
C245 C 0.30315 0.65174 0.1702 0.0
U246 U 0.35878 0.70476 0.21079 0.0
O247 O 0.36797 0.70772 0.24786 0.0
O248 O 0.38912 0.69277 0.22306 0.0
C249 C 0.38587 0.69833 0.24485 0.0
C250 C 0.32382 0.67571 0.20065 0.0
C251 C 0.39236 0.6843 0.26368 0.0
C252 C 0.38409 0.65944 0.29612 0.0
C253 C 0.37689 0.67099 0.27753 0.0
C254 C 0.42224 0.67434 0.28755 0.0
C255 C 0.40698 0.66093 0.30163 0.0
C256 C 0.41507 0.68565 0.269 0.0
C257 C 0.37898 0.76171 0.17981 0.0
C258 C 0.41329 0.78516 0.16809 0.0
C259 C 0.37781 0.79787 0.16526 0.0
C260 C 0.36701 0.77833 0.1741 0.0
C261 C 0.40121 0.80178 0.16187 0.0
C262 C 0.40236 0.76543 0.17676 0.0
C263 C 0.3661 0.74023 0.18596 0.0
O264 O 0.34392 0.67543 0.19163 0.0
O265 O 0.32328 0.69123 0.21617 0.0
O266 O 0.35361 0.73844 0.20498 0.0
O267 O 0.37463 0.72268 0.18068 0.0
H268 H 0.28421 0.69325 0.19921 0.0
H269 H 0.25031 0.67933 0.17831 0.0
H270 H 0.2839 0.62973 0.14695 0.0
H271 H 0.31756 0.64344 0.16817 0.0
H272 H 0.3716 0.64924 0.30607 0.0
H273 H 0.35924 0.66961 0.27412 0.0
H274 H 0.43988 0.67665 0.29111 0.0
H275 H 0.42746 0.69597 0.259 0.0
H276 H 0.43128 0.78728 0.16624 0.0
H277 H 0.36751 0.80963 0.16038 0.0
H278 H 0.34897 0.77594 0.17574 0.0
H279 H 0.41219 0.75298 0.18071 0.0
C280 C 0.14204 0.31861 0.68619 0.0
C281 C 0.15316 0.30066 0.68868 0.0
C282 C 0.12743 0.27886 0.66221 0.0
C283 C 0.14602 0.28116 0.67686 0.0
C284 C 0.11664 0.29699 0.65938 0.0
C285 C 0.12376 0.31645 0.67122 0.0
U286 U 0.17644 0.3738 0.70654 0.0
O287 O 0.16338 0.40267 0.72023 0.0
O288 O 0.18358 0.38567 0.74244 0.0
C289 C 0.17181 0.40152 0.74093 0.0
C290 C 0.14732 0.33848 0.70113 0.0
C291 C 0.15835 0.40695 0.76185 0.0
C292 C 0.12418 0.41656 0.78036 0.0
C293 C 0.13547 0.40875 0.76099 0.0
C294 C 0.15824 0.42076 0.80194 0.0
C295 C 0.13542 0.42297 0.80117 0.0
C296 C 0.16943 0.4129 0.78268 0.0
C297 C 0.23154 0.3937 0.66867 0.0
C298 C 0.25911 0.42619 0.66886 0.0
C299 C 0.2636 0.39727 0.6418 0.0
C300 C 0.244 0.38541 0.65072 0.0
C301 C 0.27149 0.41794 0.65053 0.0
C302 C 0.23929 0.41423 0.67778 0.0
C303 C 0.21057 0.38027 0.67676 0.0
O304 O 0.16465 0.33992 0.7147 0.0
O305 O 0.14496 0.35698 0.69209 0.0
O306 O 0.19149 0.38737 0.67378 0.0
O307 O 0.21098 0.36972 0.69611 0.0
H308 H 0.16714 0.30147 0.7002 0.0
H309 H 0.15507 0.26782 0.67936 0.0
H310 H 0.1021 0.29598 0.64861 0.0
H311 H 0.11445 0.3297 0.66918 0.0
H312 H 0.10659 0.41761 0.77893 0.0
H313 H 0.12636 0.40451 0.74522 0.0
H314 H 0.16782 0.42578 0.81722 0.0
H315 H 0.18712 0.41212 0.78386 0.0
H316 H 0.26451 0.44206 0.67603 0.0
H317 H 0.2727 0.39006 0.62809 0.0
H318 H 0.23849 0.36959 0.64343 0.0
H319 H 0.23001 0.42104 0.69163 0.0
La320 La 0.02171 0.04457 0.50797 0.0
La321 La 1.01242 1.02685 0.55576 0.0
C322 C 0.02517 0.06755 0.47251 0.0
C323 C 0.0424 0.08466 0.46435 0.0
C324 C 0.06252 0.08954 0.47623 0.0
C325 C 0.07966 0.10464 0.46743 0.0
C326 C 0.0769 0.11515 0.44666 0.0
C327 C 0.05644 0.11061 0.43519 0.0
C328 C 0.03935 0.09543 0.44396 0.0
C329 C 0.05246 1.02347 0.52363 0.0
C330 C 0.03761 0.07372 0.55302 0.0
C331 C 1.0085 1.00399 0.59131 0.0
C332 C 0.99064 0.98764 0.59991 0.0
C333 C 0.96898 0.98635 0.59136 0.0
C334 C 0.95171 0.97158 0.60044 0.0
C335 C 0.95582 0.95769 0.6181 0.0
C336 C 0.97776 0.95867 0.6261 0.0
C337 C 0.995 0.97358 0.61711 0.0
C338 C 0.9814 0.04745 0.5394 0.0
C339 C 0.99687 0.99752 0.51072 0.0
O340 O 0.03144 0.04858 0.47308 0.0
O341 O 0.01409 0.0719 0.49136 0.0
O342 O 0.04797 1.02458 0.50194 0.0
O343 O 0.04164 0.03563 0.53528 0.0
O344 O 0.03196 0.07294 0.53083 0.0
O345 O 0.03484 0.05604 0.56548 0.0
O346 O 1.00345 1.02344 0.5909 0.0
O347 O 0.01882 0.99898 0.57222 0.0
O348 O 0.98551 0.04651 0.56121 0.0
O349 O 0.99259 0.03536 0.52829 0.0
O350 O 1.00259 0.99836 0.53291 0.0
O351 O 0.99943 1.01522 0.49827 0.0
H352 H 0.06511 0.08135 0.49206 0.0
H353 H 0.09512 0.10797 0.47678 0.0
H354 H 0.0539 0.11827 0.41903 0.0
H355 H 0.02394 0.09176 0.43456 0.0
H356 H 0.96536 0.99706 0.57796 0.0
H357 H 0.93503 0.97148 0.59403 0.0
H358 H 0.98162 0.94795 0.63936 0.0
H359 H 1.01168 0.97427 0.62376 0.0
La360 La 0.53863 0.03733 0.04684 0.0
La361 La 0.49667 1.02713 1.01846 0.0
C362 C 0.57205 0.05425 0.06943 0.0
C363 C 0.57567 0.06301 0.09297 0.0
C364 C 0.55782 0.06257 0.10896 0.0
C365 C 0.56159 0.07044 0.13157 0.0
C366 C 0.58329 0.0787 0.13852 0.0
C367 C 0.60107 0.07917 0.12234 0.0
C368 C 0.59726 0.07139 0.09972 0.0
C369 C 0.51328 1.00002 0.05625 0.0
C370 C 0.49498 0.05733 0.06244 0.0
C371 C 0.46166 1.0069 1.00179 0.0
C372 C 0.45448 1.00058 0.97827 0.0
C373 C 0.46607 1.01011 0.95895 0.0
C374 C 0.45908 1.00408 0.93657 0.0
C375 C 0.44048 0.98827 0.93314 0.0
C376 C 0.42918 0.97851 0.95263 0.0
C377 C 0.43613 0.98466 0.97502 0.0
C378 C 0.52281 0.06117 0.99989 0.0
C379 C 0.54148 1.01084 1.00147 0.0
O380 O 0.56544 0.03363 0.068 0.0
O381 O 0.56075 0.06491 0.05591 0.0
O382 O 0.53485 1.00348 0.05633 0.0
O383 O 0.50647 1.01759 0.05191 0.0
O384 O 0.51638 0.05641 0.06576 0.0
O385 O 0.48351 0.04577 0.04618 0.0
O386 O 0.46437 1.02754 1.00648 0.0
O387 O 0.47804 0.9976 1.00935 0.0
O388 O 0.50366 0.05249 0.99205 0.0
O389 O 0.52624 0.05008 1.01707 0.0
O390 O 0.51943 1.00707 1.00214 0.0
O391 O 0.55272 1.02555 1.01502 0.0
H392 H 0.54105 0.05594 0.10405 0.0
H393 H 0.5476 0.06968 0.14372 0.0
H394 H 0.61792 0.0857 0.12712 0.0
H395 H 0.6112 0.07181 0.08752 0.0
H396 H 0.48043 1.02233 0.9612 0.0
H397 H 0.46799 1.01209 0.92198 0.0
H398 H 0.41504 0.96603 0.95058 0.0
H399 H 0.42718 0.97699 0.98979 0.0
La400 La 0.51824 0.51621 0.51707 0.0
La401 La 0.51466 0.55208 0.54794 0.0
C402 C 0.53291 0.48672 0.49396 0.0
C403 C 0.5466 0.47026 0.49983 0.0
C404 C 0.54222 0.4498 0.48955 0.0
C405 C 0.55484 0.43388 0.49532 0.0
C406 C 0.57202 0.43819 0.51151 0.0
C407 C 0.5762 0.45868 0.52192 0.0
C408 C 0.56364 0.47459 0.51611 0.0
C409 C 0.4786 0.51393 0.53815 0.0
C410 C 0.53609 0.51521 0.56971 0.0
C411 C 0.50018 0.58129 0.57174 0.0
C412 C 0.48534 0.59711 0.56735 0.0
C413 C 0.48753 0.61624 0.58038 0.0
C414 C 0.47349 0.63143 0.57649 0.0
C415 C 0.45713 0.62774 0.55937 0.0
C416 C 0.45514 0.60864 0.54614 0.0
C417 C 0.46905 0.59336 0.55021 0.0
C418 C 0.55429 0.55425 0.52673 0.0
C419 C 0.49668 0.55298 0.49537 0.0
O420 O 0.51302 0.48467 0.50361 0.0
O421 O 0.54287 0.50656 0.49477 0.0
O422 O 0.48188 0.50829 0.51673 0.0
O423 O 0.49738 0.52006 0.54715 0.0
O424 O 0.53595 0.50724 0.54817 0.0
O425 O 0.52685 0.53259 0.57443 0.0
O426 O 0.5193 0.58394 0.56048 0.0
O427 O 0.49084 0.56126 0.57152 0.0
O428 O 0.55111 0.55969 0.54823 0.0
O429 O 0.53545 0.54831 0.51781 0.0
O430 O 0.49652 0.56072 0.517 0.0
O431 O 0.50632 0.53585 0.49052 0.0
H432 H 0.52909 0.44618 0.47701 0.0
H433 H 0.55143 0.41834 0.48674 0.0
H434 H 0.58915 0.46242 0.53464 0.0
H435 H 0.56729 0.49025 0.52435 0.0
H436 H 0.50007 0.6194 0.59361 0.0
H437 H 0.47552 0.64616 0.58674 0.0
H438 H 0.44255 0.60533 0.53299 0.0
H439 H 0.46692 0.57857 0.54012 0.0
La440 La 0.01945 0.51493 0.04347 0.0
La441 La 1.01151 0.5544 1.02276 0.0
C442 C 0.02719 0.4778 0.05271 0.0
C443 C 0.04616 0.469 0.06253 0.0
C444 C 0.04213 0.45304 0.07927 0.0
C445 C 0.05985 0.44449 0.08885 0.0
C446 C 0.08204 0.45162 0.08175 0.0
C447 C 0.08601 0.46779 0.06506 0.0
C448 C 0.06828 0.47646 0.05564 0.0
C449 C 1.00288 0.54163 0.07323 0.0
C450 C 0.05715 0.55363 0.05035 0.0
C451 C 1.00388 0.59157 1.01351 0.0
C452 C 0.98509 0.6005 1.00344 0.0
C453 C 0.98937 0.61605 0.98628 0.0
C454 C 0.97185 0.62486 0.97661 0.0
C455 C 0.94963 0.61839 0.98403 0.0
C456 C 0.9454 0.60258 1.00109 0.0
C457 C 0.96292 0.59366 1.01061 0.0
C458 C 0.0282 0.52767 0.99306 0.0
C459 C 0.97381 0.51565 1.01586 0.0
O460 O 0.01654 0.48943 0.06684 0.0
O461 O 0.03037 0.48628 0.03218 0.0
O462 O 0.01794 0.52985 0.07792 0.0
O463 O 0.99688 0.53769 0.05246 0.0
O464 O 0.05264 0.53249 0.04985 0.0
O465 O 0.0426 0.56533 0.04217 0.0
O466 O 0.01471 0.58 0.99949 0.0
O467 O 1.0004 0.58299 0.03396 0.0
O468 O 1.01313 0.53942 0.98831 0.0
O469 O 0.03414 0.53171 1.01382 0.0
O470 O 0.97836 0.5368 1.01615 0.0
O471 O 0.98831 0.50399 1.02422 0.0
H472 H 0.02522 0.44721 0.085 0.0
H473 H 0.05613 0.43239 0.10196 0.0
H474 H 0.10279 0.47352 0.05893 0.0
H475 H 0.07188 0.48891 0.04287 0.0
H476 H 1.00632 0.62142 0.98035 0.0
H477 H 0.97576 0.63666 0.96322 0.0
H478 H 0.92858 0.59736 1.00746 0.0
H479 H 0.9591 0.58154 1.02371 0.0
H480 H 0.24852 0.20828 0.33244 0.0
H481 H 0.22242 0.18737 0.35934 0.0
H482 H 0.17612 0.23266 0.35281 0.0
H483 H 0.20157 0.25319 0.32546 0.0
H484 H 0.20021 0.19924 0.40265 0.0
H485 H 0.14174 0.17397 0.33108 0.0
H486 H 0.17047 0.18541 0.32593 0.0
H487 H 0.15005 0.20242 0.3339 0.0
C488 C 0.23281 0.21382 0.33679 0.0
C489 C 0.2271 0.23234 0.32663 0.0
C490 C 0.21801 0.20194 0.35228 0.0
C491 C 0.19726 0.20836 0.35775 0.0
C492 C 0.19198 0.22735 0.34857 0.0
H493 H 0.07515 0.15403 0.4272 0.0
H494 H 0.10545 0.17719 0.40753 0.0
C495 C 0.20669 0.23918 0.33311 0.0
C496 C 0.18047 0.19462 0.3719 0.0
H497 H 0.12869 0.1652 0.36914 0.0
C498 C 0.18459 0.19169 0.39538 0.0
C499 C 0.16021 0.18476 0.36225 0.0
C500 C 0.15535 0.18659 0.33686 0.0
C501 C 0.16859 0.17961 0.40969 0.0
C502 C 0.14817 0.17001 0.40008 0.0
C503 C 0.14427 0.17274 0.37651 0.0
C504 C 0.13053 0.15693 0.41393 0.0
C505 C 0.17343 0.17769 0.43505 0.0
C506 C 0.13461 0.13791 0.42414 0.0
C507 C 0.11732 0.12466 0.43537 0.0
C508 C 0.09559 0.13008 0.43639 0.0
C509 C 0.09166 0.14933 0.4265 0.0
C510 C 0.10896 0.16261 0.41537 0.0
H511 H 0.1869 0.19041 0.4409 0.0
H512 H 0.15826 0.17862 0.44599 0.0
H513 H 0.17895 0.16194 0.43788 0.0
H514 H 0.15097 0.13295 0.42275 0.0
H515 H 0.12079 0.10976 0.4425 0.0
H516 H 0.3871 0.95422 0.71655 0.0
H517 H 0.40719 0.96082 0.75304 0.0
H518 H 0.34482 0.94927 0.79144 0.0
H519 H 0.32474 0.94204 0.75527 0.0
H520 H 0.40268 0.99121 0.78865 0.0
H521 H 0.38259 0.90824 0.82054 0.0
H522 H 0.37906 0.91501 0.79071 0.0
H523 H 0.35835 0.91946 0.81244 0.0
C524 C 0.3777 0.95301 0.73279 0.0
C525 C 0.35434 0.94755 0.73304 0.0
C526 C 0.38918 0.95684 0.75357 0.0
C527 C 0.37749 0.95511 0.77487 0.0
C528 C 0.35416 0.95026 0.77515 0.0
H529 H 0.39738 0.98006 0.91867 0.0
H530 H 0.38433 0.97116 0.87939 0.0
C531 C 0.34269 0.94643 0.75445 0.0
C532 C 0.38951 0.95864 0.79694 0.0
H533 H 0.39627 0.93523 0.84862 0.0
C534 C 0.40159 0.97892 0.80166 0.0
C535 C 0.38813 0.94246 0.81375 0.0
C536 C 0.37652 0.92 0.80905 0.0
C537 C 0.41142 0.98377 0.82329 0.0
C538 C 0.40918 0.96786 0.8404 0.0
C539 C 0.39778 0.94738 0.83541 0.0
C540 C 0.41741 0.97258 0.86409 0.0
C541 C 0.42336 1.00607 0.82809 0.0
C542 C 0.44033 0.97598 0.86839 0.0
C543 C 0.44787 0.98082 0.89087 0.0
C544 C 0.43258 0.98238 0.90937 0.0
C545 C 0.4096 0.97869 0.90492 0.0
C546 C 0.4021 0.97374 0.88248 0.0
H547 H 0.42118 1.01729 0.814 0.0
H548 H 0.41717 1.01251 0.8447 0.0
H549 H 0.44147 1.00548 0.82982 0.0
H550 H 0.45235 0.97486 0.85437 0.0
H551 H 0.46567 0.98323 0.89378 0.0
H552 H 0.58447 0.39889 0.74284 0.0
H553 H 0.57061 0.41665 0.71005 0.0
H554 H 0.63344 0.45823 0.70445 0.0
H555 H 0.64756 0.44022 0.73705 0.0
H556 H 0.56182 0.45468 0.70262 0.0
H557 H 0.62751 0.44182 0.638 0.0
H558 H 0.62522 0.42898 0.66576 0.0
H559 H 0.63884 0.45622 0.66319 0.0
C560 C 0.59545 0.41184 0.73475 0.0
C561 C 0.61732 0.4179 0.74294 0.0
C562 C 0.58744 0.42204 0.71575 0.0
C563 C 0.6009 0.43877 0.70403 0.0
C564 C 0.62269 0.44503 0.71234 0.0
H565 H 0.54262 0.52871 0.61526 0.0
H566 H 0.5583 0.51078 0.64685 0.0
C567 C 0.6308 0.43469 0.73126 0.0
C568 C 0.59183 0.44986 0.68379 0.0
H569 H 0.60291 0.46613 0.62759 0.0
C570 C 0.5709 0.45708 0.68625 0.0
C571 C 0.60313 0.4529 0.66193 0.0
C572 C 0.62479 0.44438 0.65692 0.0
C573 C 0.56131 0.46728 0.66807 0.0
C574 C 0.57306 0.47116 0.64657 0.0
C575 C 0.5938 0.46362 0.64394 0.0
C576 C 0.56402 0.48268 0.62665 0.0
C577 C 0.53824 0.47318 0.67201 0.0
C578 C 0.56263 0.47368 0.60399 0.0
C579 C 0.55386 0.48417 0.58559 0.0
C580 C 0.5462 0.50414 0.58912 0.0
C581 C 0.54803 0.51331 0.61167 0.0
C582 C 0.5569 0.50289 0.62999 0.0
H583 H 0.52883 0.4632 0.68564 0.0
H584 H 0.53966 0.49016 0.67797 0.0
H585 H 0.52847 0.47124 0.65586 0.0
H586 H 0.56803 0.45825 0.60054 0.0
H587 H 0.55285 0.47647 0.56863 0.0
H588 H 0.89275 0.65097 0.22251 0.0
H589 H 0.90659 0.63221 0.18878 0.0
H590 H 0.95397 0.60769 0.23179 0.0
H591 H 0.93958 0.62541 0.26569 0.0
H592 H 0.94654 0.6357 0.16685 0.0
H593 H 0.92796 0.55331 0.19988 0.0
H594 H 0.91731 0.57562 0.21405 0.0
H595 H 0.94531 0.57063 0.21923 0.0
C596 C 0.90583 0.64126 0.22501 0.0
C597 C 0.91482 0.63982 0.24721 0.0
C598 C 0.91392 0.63064 0.2055 0.0
C599 C 0.93119 0.61808 0.2075 0.0
C600 C 0.94032 0.61676 0.22958 0.0
H601 H 1.01351 0.54723 0.11874 0.0
H602 H 0.99533 0.56602 0.1495 0.0
C603 C 0.9322 0.62728 0.24907 0.0
C604 C 0.94002 0.6068 0.18659 0.0
H605 H 0.95252 0.55813 0.16682 0.0
C606 C 0.94761 0.61868 0.16681 0.0
C607 C 0.94145 0.58451 0.18616 0.0
C608 C 0.93236 0.57023 0.20587 0.0
C609 C 0.95726 0.6092 0.14728 0.0
C610 C 0.95922 0.58704 0.14715 0.0
C611 C 0.95123 0.5751 0.16674 0.0
C612 C 0.97043 0.57607 0.12756 0.0
C613 C 0.96603 0.62321 0.12727 0.0
C614 C 0.96267 0.57521 0.10459 0.0
C615 C 0.97316 0.56431 0.08675 0.0
C616 C 0.99162 0.55394 0.09145 0.0
C617 C 0.99934 0.55495 0.11437 0.0
C618 C 0.98889 0.56573 0.1321 0.0
H619 H 0.96804 0.64051 0.13217 0.0
H620 H 0.98236 0.61922 0.1208 0.0
H621 H 0.95409 0.62047 0.11283 0.0
H622 H 0.94825 0.58265 0.1005 0.0
H623 H 0.96667 0.5638 0.06936 0.0
H624 H 0.36266 0.18079 0.14397 0.0
H625 H 0.38568 0.15632 0.12529 0.0
H626 H 0.44102 0.18229 0.16796 0.0
H627 H 0.41809 0.20692 0.18676 0.0
H628 H 0.42601 0.16437 0.10065 0.0
H629 H 0.43503 0.11798 0.17995 0.0
H630 H 0.41487 0.13631 0.17813 0.0
H631 H 0.44377 0.14636 0.1827 0.0
C632 C 0.37981 0.18153 0.14919 0.0
C633 C 0.38849 0.19578 0.16694 0.0
C634 C 0.39291 0.16742 0.13858 0.0
C635 C 0.41493 0.1672 0.14553 0.0
C636 C 0.4239 0.18183 0.16273 0.0
H637 H 0.5126 0.08545 0.09662 0.0
H638 H 0.49422 0.11262 0.11737 0.0
C639 C 0.41078 0.19593 0.17341 0.0
C640 C 0.42835 0.15158 0.13468 0.0
H641 H 0.45428 0.10837 0.14611 0.0
C642 C 0.43222 0.15215 0.1106 0.0
C643 C 0.43653 0.1357 0.14771 0.0
C644 C 0.43223 0.13384 0.17353 0.0
C645 C 0.44394 0.13722 0.09917 0.0
C646 C 0.45168 0.12107 0.11211 0.0
C647 C 0.44829 0.12076 0.13626 0.0
C648 C 0.46251 0.10386 0.10065 0.0
C649 C 0.44803 0.13892 0.07331 0.0
C650 C 0.45056 0.08953 0.08495 0.0
C651 C 0.46093 0.07398 0.07315 0.0
C652 C 0.4835 0.07236 0.07685 0.0
C653 C 0.49522 0.08624 0.09329 0.0
C654 C 0.48477 0.10181 0.10515 0.0
H655 H 0.44643 0.15517 0.06709 0.0
H656 H 0.46489 0.13518 0.06838 0.0
H657 H 0.43551 0.12722 0.06425 0.0
H658 H 0.43323 0.09056 0.0816 0.0
H659 H 0.4513 0.06352 0.06075 0.0
H660 H 0.19401 0.90111 0.54693 0.0
H661 H 0.16245 0.92026 0.5405 0.0
H662 H 0.15081 0.92494 0.61436 0.0
H663 H 0.18213 0.90538 0.62102 0.0
H664 H 0.11485 0.91217 0.55811 0.0
H665 H 0.16465 0.98827 0.58957 0.0
H666 H 0.17753 0.96526 0.58058 0.0
H667 H 0.16267 0.96525 0.60784 0.0
C668 C 0.18442 0.90572 0.5618 0.0
C669 C 0.19068 0.90191 0.5845 0.0
C670 C 0.16648 0.91674 0.55809 0.0
C671 C 0.1546 0.92417 0.57698 0.0
C672 C 0.16003 0.9195 0.59961 0.0
H673 H 0.0631 1.01933 0.56891 0.0
H674 H 0.08559 0.99371 0.58447 0.0
C675 C 0.17794 0.90843 0.60335 0.0
C676 C 0.13758 0.93808 0.57287 0.0
H677 H 0.12921 0.9904 0.57505 0.0
C678 C 0.11782 0.92924 0.562 0.0
C679 C 0.14156 0.96027 0.57817 0.0
C680 C 0.16277 0.97048 0.58957 0.0
C681 C 0.10202 0.9422 0.55579 0.0
C682 C 0.10651 0.96458 0.56006 0.0
C683 C 0.12589 0.97325 0.57176 0.0
C684 C 0.09221 0.97947 0.55099 0.0
C685 C 0.08077 0.93181 0.54462 0.0
C686 C 0.08891 0.98017 0.52704 0.0
C687 C 0.07605 0.99463 0.5182 0.0
C688 C 0.06651 1.00878 0.53315 0.0
C689 C 0.07016 1.00841 0.55708 0.0
C690 C 0.08295 0.99383 0.56596 0.0
H691 H 0.07653 0.91476 0.54961 0.0
H692 H 0.06653 0.94038 0.5495 0.0
H693 H 0.08306 0.93219 0.52547 0.0
H694 H 0.09648 0.96969 0.51513 0.0
H695 H 0.07359 0.99471 0.49965 0.0
H696 H 0.79962 0.39517 0.92583 0.0
H697 H 0.83387 0.41154 0.94489 0.0
H698 H 0.818 0.47432 0.93071 0.0
H699 H 0.78383 0.45817 0.91178 0.0
H700 H 0.87081 0.43708 0.93033 0.0
H701 H 0.83046 0.48223 0.99838 0.0
H702 H 0.81475 0.46211 0.98021 0.0
H703 H 0.82319 0.48881 0.96972 0.0
C704 C 0.80335 0.41248 0.92668 0.0
C705 C 0.78847 0.42518 0.91731 0.0
C706 C 0.82306 0.42189 0.93774 0.0
C707 C 0.82862 0.44434 0.93991 0.0
C708 C 0.81403 0.45703 0.93014 0.0
H709 H 0.94036 0.53422 0.99605 0.0
H710 H 0.90611 0.51668 0.97796 0.0
C711 C 0.79432 0.44766 0.91919 0.0
C712 C 0.84978 0.45443 0.95183 0.0
H713 H 0.86987 0.49092 0.99415 0.0
C714 C 0.8705 0.44873 0.9444 0.0
C715 C 0.84979 0.46976 0.97028 0.0
C716 C 0.82835 0.47595 0.98029 0.0
C717 C 0.8909 0.45817 0.95429 0.0
C718 C 0.89091 0.47362 0.97263 0.0
C719 C 0.87019 0.47922 0.98013 0.0
C720 C 0.9121 0.48428 0.98406 0.0
C721 C 0.91236 0.45195 0.94438 0.0
C722 C 0.92713 0.47221 0.99412 0.0
C723 C 0.94691 0.48227 1.00454 0.0
C724 C 0.95229 0.50481 1.00545 0.0
C725 C 0.93701 0.51687 0.99577 0.0
C726 C 0.91727 0.5068 0.98535 0.0
H727 H 0.91019 0.44509 0.92652 0.0
H728 H 0.92579 0.46593 0.94392 0.0
H729 H 0.91782 0.43955 0.95541 0.0
H730 H 0.92354 0.45488 0.9941 0.0
H731 H 0.95802 0.47232 1.01184 0.0
H732 H 0.71591 0.6349 0.38758 0.0
H733 H 0.68214 0.61901 0.40829 0.0
H734 H 0.71927 0.61856 0.47102 0.0
H735 H 0.75339 0.63395 0.45033 0.0
H736 H 0.67349 0.5794 0.43211 0.0
H737 H 0.66551 0.64811 0.49195 0.0
H738 H 0.68321 0.65065 0.46624 0.0
H739 H 0.69218 0.6388 0.49179 0.0
C740 C 0.71713 0.63131 0.40574 0.0
C741 C 0.73776 0.63581 0.41707 0.0
C742 C 0.6976 0.62227 0.41764 0.0
C743 C 0.6979 0.61767 0.44136 0.0
C744 C 0.71835 0.62224 0.45284 0.0
H745 H 0.59548 0.56819 0.54421 0.0
H746 H 0.62992 0.58226 0.52327 0.0
C747 C 0.73796 0.63117 0.44091 0.0
C748 C 0.67693 0.60777 0.45385 0.0
H749 H 0.64037 0.61635 0.49813 0.0
C750 C 0.66622 0.58752 0.44651 0.0
C751 C 0.66733 0.6182 0.47276 0.0
C752 C 0.67748 0.64022 0.48111 0.0
C753 C 0.64664 0.57731 0.45772 0.0
C754 C 0.63686 0.58783 0.47652 0.0
C755 C 0.64762 0.60812 0.48381 0.0
C756 C 0.61574 0.57812 0.48906 0.0
C757 C 0.6371 0.555 0.44971 0.0
C758 C 0.59592 0.57088 0.47709 0.0
C759 C 0.57615 0.5625 0.48912 0.0
C760 C 0.57553 0.56149 0.5135 0.0
C761 C 0.59531 0.56868 0.52544 0.0
C762 C 0.61508 0.57684 0.51343 0.0
H763 H 0.64996 0.54674 0.44071 0.0
H764 H 0.62995 0.54506 0.46447 0.0
H765 H 0.62366 0.55602 0.4372 0.0
H766 H 0.59554 0.57213 0.45842 0.0
H767 H 0.5612 0.55734 0.47936 0.0
H768 H 0.21106 0.32866 0.15864 0.0
H769 H 0.18344 0.35057 0.14649 0.0
H770 H 0.23577 0.40344 0.13417 0.0
H771 H 0.26362 0.38136 0.14594 0.0
H772 H 0.17228 0.38757 0.16408 0.0
H773 H 0.20377 0.39978 0.07338 0.0
H774 H 0.21344 0.38064 0.0921 0.0
H775 H 0.22404 0.4087 0.09503 0.0
C776 C 0.21669 0.34498 0.15342 0.0
C777 C 0.23953 0.35328 0.15319 0.0
C778 C 0.20089 0.35748 0.14642 0.0
C779 C 0.20751 0.37856 0.13907 0.0
C780 C 0.23028 0.38705 0.1392 0.0
H781 H 0.12411 0.47165 0.09257 0.0
H782 H 0.15518 0.45534 0.10734 0.0
C783 C 0.24617 0.37445 0.14599 0.0
C784 C 0.19041 0.3915 0.1315 0.0
H785 H 0.1736 0.41769 0.08519 0.0
C786 C 0.17263 0.39419 0.14684 0.0
C787 C 0.19085 0.40018 0.109 0.0
C788 C 0.20892 0.39705 0.09133 0.0
C789 C 0.1552 0.40508 0.14023 0.0
C790 C 0.1555 0.41343 0.11767 0.0
C791 C 0.17351 0.41128 0.10251 0.0
C792 C 0.13665 0.42341 0.10907 0.0
C793 C 0.13648 0.40752 0.15734 0.0
C794 C 0.11606 0.41078 0.10494 0.0
C795 C 0.09838 0.41994 0.09617 0.0
C796 C 0.10088 0.44198 0.09142 0.0
C797 C 0.12161 0.45459 0.09569 0.0
C798 C 0.13936 0.44535 0.10429 0.0
H799 H 0.14097 0.40424 0.17536 0.0
H800 H 0.13193 0.42394 0.15681 0.0
H801 H 0.12154 0.39603 0.15262 0.0
H802 H 0.11377 0.39374 0.1082 0.0
H803 H 0.08289 0.4096 0.09268 0.0
H804 H 0.64798 0.24019 0.93555 0.0
H805 H 0.63096 0.2061 0.95212 0.0
H806 H 0.57228 0.20762 0.9118 0.0
H807 H 0.58931 0.24167 0.89493 0.0
H808 H 0.59124 0.19482 0.97835 0.0
H809 H 0.58771 0.14765 0.89599 0.0
H810 H 0.60432 0.1737 0.89895 0.0
H811 H 0.57472 0.17146 0.89503 0.0
C812 C 0.63152 0.23326 0.92995 0.0
C813 C 0.62026 0.24392 0.91356 0.0
C814 C 0.62168 0.21369 0.93965 0.0
C815 C 0.60033 0.2038 0.93313 0.0
C816 C 0.58889 0.21449 0.91699 0.0
H817 H 0.5116 0.08546 0.9649 0.0
H818 H 0.53087 0.11927 0.95009 0.0
C819 C 0.59863 0.23421 0.90744 0.0
C820 C 0.59008 0.1825 0.94327 0.0
H821 H 0.56922 0.13049 0.92863 0.0
C822 C 0.58654 0.18074 0.96744 0.0
C823 C 0.58385 0.16388 0.92929 0.0
C824 C 0.58799 0.16409 0.9034 0.0
C825 C 0.57646 0.16139 0.97779 0.0
C826 C 0.57012 0.14275 0.96379 0.0
C827 C 0.57393 0.14451 0.93962 0.0
C828 C 0.55856 0.12165 0.97349 0.0
C829 C 0.57193 0.16142 1.00362 0.0
C830 C 0.5675 0.11097 0.99165 0.0
C831 C 0.55627 0.09135 1.00034 0.0
C832 C 0.53585 0.08173 0.99102 0.0
C833 C 0.52722 0.09226 0.97266 0.0
C834 C 0.53833 0.11175 0.96407 0.0
H835 H 0.57189 0.17792 1.01074 0.0
H836 H 0.55563 0.15171 1.00797 0.0
H837 H 0.58523 0.15439 1.01236 0.0
H838 H 0.58332 0.11766 0.999 0.0
H839 H 0.56362 0.08371 1.01426 0.0
H840 H 0.89786 0.83092 0.3944 0.0
H841 H 0.91517 0.86563 0.40987 0.0
H842 H 0.94264 0.83397 0.46559 0.0
H843 H 0.92661 0.79925 0.44955 0.0
H844 H 0.90932 0.88652 0.4491 0.0
H845 H 0.99731 0.87257 0.44649 0.0
H846 H 0.97559 0.85449 0.43257 0.0
H847 H 0.98008 0.85275 0.46323 0.0
C848 C 0.90798 0.83118 0.40965 0.0
C849 C 0.91072 0.81188 0.42049 0.0
C850 C 0.91775 0.85122 0.41869 0.0
C851 C 0.93068 0.85273 0.43882 0.0
C852 C 0.93333 0.83353 0.44974 0.0
H853 H 0.99299 0.95719 0.52921 0.0
H854 H 0.97687 0.92285 0.51161 0.0
C855 C 0.92372 0.8135 0.44066 0.0
C856 C 0.94071 0.87428 0.44878 0.0
H857 H 0.9893 0.90303 0.46874 0.0
C858 C 0.92686 0.89011 0.45317 0.0
C859 C 0.96367 0.87932 0.45422 0.0
C860 C 0.98006 0.86397 0.44866 0.0
C861 C 0.93508 0.91031 0.4632 0.0
C862 C 0.95791 0.91515 0.46897 0.0
C863 C 0.97179 0.89942 0.46451 0.0
C864 C 0.96766 0.93636 0.47969 0.0
C865 C 0.91909 0.92617 0.46808 0.0
C866 C 0.96819 0.95564 0.46768 0.0
C867 C 0.97757 0.9754 0.47767 0.0
C868 C 0.98665 0.97649 0.50005 0.0
C869 C 0.98611 0.95714 0.51202 0.0
C870 C 0.97691 0.93739 0.50193 0.0
H871 H 0.90142 0.91844 0.46759 0.0
H872 H 0.92221 0.9341 0.48532 0.0
H873 H 0.9216 0.93877 0.45474 0.0
H874 H 0.96154 0.95541 0.45038 0.0
H875 H 0.9777 0.98982 0.46781 0.0
H876 H 0.37414 0.77889 0.61339 0.0
H877 H 0.38378 0.74527 0.59731 0.0
H878 H 0.37139 0.76522 0.5283 0.0
H879 H 0.36202 0.79933 0.54433 0.0
H880 H 0.3563 0.71354 0.56711 0.0
H881 H 0.43726 0.75054 0.52731 0.0
H882 H 0.42347 0.76437 0.54985 0.0
H883 H 0.41211 0.7614 0.52133 0.0
C884 C 0.37363 0.77623 0.59478 0.0
C885 C 0.36762 0.79182 0.58008 0.0
C886 C 0.37891 0.75694 0.58565 0.0
C887 C 0.37836 0.75289 0.56167 0.0
C888 C 0.37199 0.76819 0.54687 0.0
H889 H 0.44557 0.64346 0.51817 0.0
H890 H 0.4221 0.67159 0.5127 0.0
C891 C 0.36659 0.78756 0.55603 0.0
C892 C 0.38539 0.73283 0.55262 0.0
H893 H 0.43162 0.71328 0.53158 0.0
C894 C 0.37251 0.71339 0.55876 0.0
C895 C 0.40641 0.73276 0.54152 0.0
C896 C 0.42076 0.75332 0.53459 0.0
C897 C 0.3809 0.69394 0.55572 0.0
C898 C 0.40281 0.69411 0.54673 0.0
C899 C 0.41485 0.71329 0.5386 0.0
C900 C 0.41486 0.67559 0.54932 0.0
C901 C 0.3667 0.67351 0.56327 0.0
C902 C 0.41858 0.66872 0.57169 0.0
C903 C 0.43198 0.6529 0.57485 0.0
C904 C 0.44199 0.64369 0.55569 0.0
C905 C 0.4379 0.65024 0.53321 0.0
C906 C 0.42456 0.66625 0.53006 0.0
H907 H 0.34866 0.67468 0.56185 0.0
H908 H 0.37059 0.65951 0.55275 0.0
H909 H 0.36996 0.67069 0.58174 0.0
H910 H 0.41166 0.67609 0.58681 0.0
H911 H 0.4347 0.64801 0.59233 0.0
H912 H 0.80442 0.87014 0.75206 0.0
H913 H 0.8286 0.89115 0.72395 0.0
H914 H 0.82845 0.83502 0.67986 0.0
H915 H 0.80399 0.81385 0.70786 0.0
H916 H 0.87079 0.85503 0.69054 0.0
H917 H 0.81954 0.91433 0.65965 0.0
H918 H 0.81988 0.91293 0.69071 0.0
H919 H 0.80753 0.89003 0.67398 0.0
C920 C 0.80895 0.86237 0.73607 0.0
C921 C 0.8023 0.84029 0.73224 0.0
C922 C 0.82279 0.87443 0.72 0.0
C923 C 0.83014 0.8647 0.69971 0.0
C924 C 0.8229 0.84285 0.69539 0.0
H925 H 0.91983 0.93461 0.59639 0.0
H926 H 0.88863 0.9111 0.6143 0.0
C927 C 0.80902 0.83076 0.71145 0.0
C928 C 0.84728 0.87678 0.68442 0.0
H929 H 0.85919 0.9227 0.6534 0.0
C930 C 0.86814 0.86966 0.68214 0.0
C931 C 0.84376 0.89578 0.67336 0.0
C932 C 0.82139 0.90363 0.67433 0.0
C933 C 0.88588 0.88153 0.66993 0.0
C934 C 0.88269 0.90109 0.65994 0.0
C935 C 0.86159 0.90777 0.6613 0.0
C936 C 0.90144 0.9153 0.64904 0.0
C937 C 0.90802 0.87327 0.66809 0.0
C938 C 0.91878 0.92554 0.66274 0.0
C939 C 0.93646 0.93915 0.65268 0.0
C940 C 0.93719 0.94275 0.62865 0.0
C941 C 0.9197 0.93241 0.61497 0.0
C942 C 0.90192 0.9189 0.62512 0.0
H943 H 0.90635 0.85592 0.67196 0.0
H944 H 0.91557 0.87589 0.65046 0.0
H945 H 0.91964 0.88213 0.68074 0.0
H946 H 0.91849 0.92317 0.68131 0.0
H947 H 0.94933 0.94718 0.66383 0.0
H948 H 0.67601 0.15665 0.31942 0.0
H949 H 0.65956 0.13966 0.28408 0.0
H950 H 0.5938 0.14622 0.31071 0.0
H951 H 0.61007 0.16302 0.34644 0.0
H952 H 0.61163 0.10026 0.28678 0.0
H953 H 0.61655 0.17668 0.23873 0.0
H954 H 0.63845 0.17299 0.25831 0.0
H955 H 0.61121 0.17566 0.26968 0.0
C956 C 0.65802 0.15425 0.31792 0.0
C957 C 0.64431 0.16111 0.33573 0.0
C958 C 0.64871 0.14464 0.29771 0.0
C959 C 0.62557 0.14175 0.29497 0.0
C960 C 0.61173 0.14839 0.31267 0.0
H961 H 0.55903 0.1041 0.16468 0.0
H962 H 0.56667 0.11817 0.20408 0.0
C963 C 0.62105 0.15807 0.33293 0.0
C964 C 0.61606 0.13217 0.27326 0.0
H965 H 0.60592 0.14455 0.21763 0.0
C966 C 0.61012 0.10988 0.27168 0.0
C967 C 0.61411 0.1449 0.2538 0.0
C968 C 0.62033 0.16893 0.255 0.0
C969 C 0.60272 0.09986 0.25074 0.0
C970 C 0.60158 0.11253 0.23097 0.0
C971 C 0.60685 0.13491 0.23283 0.0
C972 C 0.59609 0.10287 0.20787 0.0
C973 C 0.5963 0.07584 0.24989 0.0
C974 C 0.61018 0.08973 0.19702 0.0
C975 C 0.60587 0.08168 0.17459 0.0
C976 C 0.58743 0.08672 0.16259 0.0
C977 C 0.57322 0.09976 0.1736 0.0
C978 C 0.57759 0.10786 0.19603 0.0
H979 H 0.59211 0.06933 0.26745 0.0
H980 H 0.5818 0.0711 0.2385 0.0
H981 H 0.61056 0.06837 0.24274 0.0
H982 H 0.62477 0.08602 0.20573 0.0
H983 H 0.61699 0.07151 0.16663 0.0
H984 H 0.44754 0.64565 0.30652 0.0
H985 H 0.46121 0.62814 0.3395 0.0
H986 H 0.39895 0.63043 0.37622 0.0
H987 H 0.38525 0.6487 0.34359 0.0
H988 H 0.46731 0.64206 0.38627 0.0
H989 H 0.40719 0.56694 0.38171 0.0
H990 H 0.41152 0.58551 0.35807 0.0
H991 H 0.39486 0.59122 0.38296 0.0
C992 C 0.43664 0.64279 0.3216 0.0
C993 C 0.41508 0.64899 0.32191 0.0
C994 C 0.44457 0.63251 0.34059 0.0
C995 C 0.43122 0.62761 0.3606 0.0
C996 C 0.40964 0.63356 0.36101 0.0
H997 H 0.4801 0.59178 0.49671 0.0
H998 H 0.46421 0.60982 0.46512 0.0
C999 C 0.40173 0.64405 0.34208 0.0
C1000 C 0.44006 0.61664 0.38094 0.0
H1001 H 0.43149 0.57104 0.41356 0.0
C1002 C 0.45937 0.62656 0.39223 0.0
C1003 C 0.43008 0.59623 0.38888 0.0
C1004 C 0.40988 0.58418 0.37722 0.0
C1005 C 0.46865 0.61693 0.41103 0.0
C1006 C 0.45851 0.59664 0.41917 0.0
C1007 C 0.43935 0.5866 0.40771 0.0
C1008 C 0.46788 0.58537 0.43897 0.0
C1009 C 0.48967 0.6284 0.42172 0.0
C1010 C 0.47499 0.56521 0.43542 0.0
C1011 C 0.48419 0.55481 0.45356 0.0
C1012 C 0.48637 0.56403 0.47609 0.0
C1013 C 0.47884 0.58404 0.47975 0.0
C1014 C 0.46982 0.59453 0.46152 0.0
H1015 H 0.49827 0.64113 0.41032 0.0
H1016 H 0.48535 0.63604 0.43841 0.0
H1017 H 0.50143 0.61697 0.42537 0.0
H1018 H 0.47373 0.55758 0.41839 0.0
H1019 H 0.48964 0.53946 0.44986 0.0
H1020 H 0.1427 0.41949 0.84822 0.0
H1021 H 0.12506 0.43602 0.88112 0.0
H1022 H 0.08373 0.46436 0.83439 0.0
H1023 H 0.10161 0.44836 0.80127 0.0
H1024 H 0.12308 0.47944 0.89192 0.0
H1025 H 0.03776 0.43548 0.88121 0.0
H1026 H 0.06187 0.42716 0.86666 0.0
H1027 H 0.04934 0.44896 0.85563 0.0
C1028 C 0.12999 0.42934 0.84473 0.0
C1029 C 0.12377 0.4324 0.82169 0.0
C1030 C 0.11977 0.43875 0.86376 0.0
C1031 C 0.10276 0.45133 0.86051 0.0
C1032 C 0.09643 0.45441 0.83761 0.0
H1033 H 0.01881 0.52319 0.94714 0.0
H1034 H 0.03747 0.50469 0.91653 0.0
C1035 C 0.10672 0.44511 0.81854 0.0
C1036 C 0.09201 0.46153 0.88095 0.0
H1037 H 0.04175 0.46434 0.90856 0.0
C1038 C 0.1053 0.47601 0.89563 0.0
C1039 C 0.0688 0.45721 0.886 0.0
C1040 C 0.05359 0.44122 0.87171 0.0
C1041 C 0.09603 0.4867 0.91452 0.0
C1042 C 0.07275 0.48247 0.91953 0.0
C1043 C 0.05954 0.46775 0.90498 0.0
C1044 C 0.06154 0.49377 0.93892 0.0
C1045 C 0.11125 0.50308 0.92836 0.0
C1046 C 0.06841 0.49384 0.96218 0.0
C1047 C 0.05774 0.5047 0.97991 0.0
C1048 C 0.03974 0.51557 0.97488 0.0
C1049 C 0.03265 0.5151 0.95174 0.0
C1050 C 0.04334 0.50442 0.93411 0.0
H1051 H 0.12693 0.50879 0.91859 0.0
H1052 H 0.1029 0.51714 0.93321 0.0
H1053 H 0.11584 0.49567 0.94452 0.0
H1054 H 0.08195 0.48534 0.96674 0.0
H1055 H 0.06358 0.50457 0.99751 0.0
H1056 H 0.61945 0.86548 0.87454 0.0
H1057 H 0.59811 0.89114 0.89402 0.0
H1058 H 0.65497 0.91469 0.93567 0.0
H1059 H 0.67654 0.88944 0.91604 0.0
H1060 H 0.58884 0.89697 0.94338 0.0
H1061 H 0.63832 0.96875 0.90383 0.0
H1062 H 0.63872 0.94195 0.89229 0.0
H1063 H 0.65433 0.95092 0.91766 0.0
C1064 C 0.62741 0.87614 0.88783 0.0
C1065 C 0.64973 0.87548 0.89366 0.0
C1066 C 0.61517 0.89072 0.89899 0.0
C1067 C 0.62509 0.90501 0.91601 0.0
C1068 C 0.64713 0.90399 0.92233 0.0
H1069 H 0.58624 1.00832 1.00113 0.0
H1070 H 0.60579 0.98262 0.9796 0.0
C1071 C 0.65934 0.88938 0.91127 0.0
C1072 C 0.61249 0.92112 0.92706 0.0
H1073 H 0.61201 0.97503 0.93327 0.0
C1074 C 0.59378 0.91404 0.9411 0.0
C1075 C 0.61904 0.94335 0.92403 0.0
C1076 C 0.63859 0.95179 0.90849 0.0
C1077 C 0.58177 0.92866 0.95274 0.0
C1078 C 0.58835 0.95094 0.94977 0.0
C1079 C 0.60697 0.95797 0.93553 0.0
C1080 C 0.57653 0.96722 0.96178 0.0
C1081 C 0.5626 0.92009 0.9687 0.0
C1082 C 0.55371 0.96755 0.95839 0.0
C1083 C 0.54244 0.98216 0.97076 0.0
C1084 C 0.55385 0.99693 0.98656 0.0
C1085 C 0.57692 0.99719 0.98912 0.0
C1086 C 0.58813 0.98247 0.97686 0.0
H1087 H 0.56352 0.90336 0.97383 0.0
H1088 H 0.56227 0.93022 0.98467 0.0
H1089 H 0.54665 0.92011 0.95962 0.0
H1090 H 0.54454 0.95633 0.94635 0.0
H1091 H 0.52471 0.98164 0.96819 0.0
H1092 H 0.84336 0.15408 0.43996 0.0
H1093 H 0.87588 0.13944 0.45387 0.0
H1094 H 0.83224 0.09078 0.49084 0.0
H1095 H 0.79974 0.10508 0.47663 0.0
H1096 H 0.88979 0.13495 0.49746 0.0
H1097 H 0.87161 0.05533 0.45409 0.0
H1098 H 0.85723 0.07744 0.44716 0.0
H1099 H 0.84879 0.06141 0.47217 0.0
C1100 C 0.84077 0.14025 0.45105 0.0
C1101 C 0.8191 0.13056 0.45709 0.0
C1102 C 0.8593 0.1319 0.45893 0.0
C1103 C 0.85643 0.1138 0.47301 0.0
C1104 C 0.8348 0.1044 0.47946 0.0
H1105 H 0.95261 0.07025 0.56242 0.0
H1106 H 0.92316 0.08756 0.54564 0.0
C1107 C 0.81627 0.11259 0.47139 0.0
C1108 C 0.87604 0.10494 0.48135 0.0
H1109 H 0.89902 0.0588 0.48357 0.0
C1110 C 0.89195 0.11835 0.49428 0.0
C1111 C 0.87899 0.0834 0.47679 0.0
C1112 C 0.86337 0.06863 0.46159 0.0
C1113 C 0.91046 0.11061 0.50337 0.0
C1114 C 0.91271 0.08874 0.49991 0.0
C1115 C 0.89711 0.07551 0.48644 0.0
C1116 C 0.93104 0.07912 0.51009 0.0
C1117 C 0.92751 0.12598 0.51629 0.0
C1118 C 0.94482 0.06816 0.49574 0.0
C1119 C 0.96126 0.05791 0.50533 0.0
C1120 C 0.9643 0.05859 0.5294 0.0
C1121 C 0.95066 0.06966 0.54378 0.0
C1122 C 0.934 0.0797 0.53419 0.0
H1123 H 0.92716 0.14282 0.51118 0.0
H1124 H 0.92369 0.12493 0.53518 0.0
H1125 H 0.94463 0.12208 0.51312 0.0
H1126 H 0.94271 0.0674 0.47712 0.0
H1127 H 0.97148 0.04934 0.4939 0.0
H1128 H 0.24759 0.61039 0.15252 0.0
H1129 H 0.21326 0.59482 0.13336 0.0
H1130 H 0.19628 0.65801 0.12384 0.0
H1131 H 0.23096 0.6738 0.14239 0.0
H1132 H 0.16953 0.59586 0.14456 0.0
H1133 H 0.18724 0.63342 0.05889 0.0
H1134 H 0.20838 0.6338 0.0805 0.0
H1135 H 0.18847 0.65235 0.08268 0.0
C1136 C 0.23683 0.62113 0.14606 0.0
C1137 C 0.24253 0.64354 0.149 0.0
C1138 C 0.21694 0.61209 0.13519 0.0
C1139 C 0.20203 0.62508 0.12661 0.0
C1140 C 0.20751 0.64746 0.12971 0.0
H1141 H 0.07241 0.59698 0.05615 0.0
H1142 H 0.10677 0.61405 0.07462 0.0
C1143 C 0.22739 0.65652 0.14067 0.0
C1144 C 0.18065 0.61514 0.11504 0.0
H1145 H 0.15091 0.61437 0.06489 0.0
C1146 C 0.16558 0.5999 0.12709 0.0
C1147 C 0.17509 0.62028 0.09222 0.0
C1148 C 0.19071 0.6357 0.07769 0.0
C1149 C 0.14531 0.59006 0.11729 0.0
C1150 C 0.13984 0.59503 0.09438 0.0
C1151 C 0.15484 0.61038 0.08238 0.0
C1152 C 0.11882 0.58443 0.0826 0.0
C1153 C 0.12965 0.5748 0.13196 0.0
C1154 C 0.11394 0.56196 0.08027 0.0
C1155 C 0.09421 0.55209 0.06968 0.0
C1156 C 0.07868 0.56435 0.06083 0.0
C1157 C 0.08381 0.58687 0.06272 0.0
C1158 C 0.10357 0.59673 0.07333 0.0
H1159 H 0.13272 0.57768 0.15077 0.0
H1160 H 0.11196 0.57626 0.12864 0.0
H1161 H 0.13235 0.55812 0.12769 0.0
H1162 H 0.12549 0.5519 0.08657 0.0
H1163 H 0.09113 0.53478 0.06853 0.0
H1164 H 0.3056 0.44409 0.67287 0.0
H1165 H 0.34028 0.4631 0.65585 0.0
H1166 H 0.31994 0.4389 0.58802 0.0
H1167 H 0.28523 0.42039 0.60469 0.0
H1168 H 0.3745 0.44666 0.63098 0.0
H1169 H 0.33741 0.50243 0.57584 0.0
H1170 H 0.3218 0.48762 0.5988 0.0
H1171 H 0.32578 0.4749 0.57109 0.0
C1172 C 0.30832 0.44306 0.65428 0.0
C1173 C 0.29241 0.43056 0.64027 0.0
C1174 C 0.3283 0.45385 0.64455 0.0
C1175 C 0.33281 0.45275 0.62051 0.0
C1176 C 0.31689 0.44043 0.60652 0.0
H1177 H 0.43907 0.49431 0.52091 0.0
H1178 H 0.4047 0.48061 0.54208 0.0
C1179 C 0.29703 0.42958 0.6162 0.0
C1180 C 0.35434 0.46381 0.61003 0.0
H1181 H 0.37558 0.49912 0.56797 0.0
C1182 C 0.37474 0.45831 0.61738 0.0
C1183 C 0.35486 0.47903 0.5922 0.0
C1184 C 0.33382 0.48653 0.58414 0.0
C1185 C 0.39535 0.46687 0.60686 0.0
C1186 C 0.39584 0.48185 0.58872 0.0
C1187 C 0.37544 0.48766 0.58175 0.0
C1188 C 0.41706 0.49091 0.57602 0.0
C1189 C 0.4163 0.45903 0.61466 0.0
C1190 C 0.43568 0.5018 0.58774 0.0
C1191 C 0.45556 0.50961 0.57557 0.0
C1192 C 0.45727 0.50693 0.55131 0.0
C1193 C 0.43845 0.49662 0.53958 0.0
C1194 C 0.41868 0.48876 0.55172 0.0
H1195 H 0.41253 0.44363 0.62395 0.0
H1196 H 0.42764 0.45677 0.59968 0.0
H1197 H 0.42523 0.47106 0.62676 0.0
H1198 H 0.43487 0.5043 0.60635 0.0
H1199 H 0.46965 0.51756 0.58518 0.0
H1200 H 0.82206 0.73853 0.89708 0.0
H1201 H 0.84973 0.71731 0.91081 0.0
H1202 H 0.79709 0.6679 0.93266 0.0
H1203 H 0.76914 0.68905 0.91883 0.0
H1204 H 0.84751 0.70012 0.96169 0.0
H1205 H 0.84615 0.63944 0.88979 0.0
H1206 H 0.83905 0.66588 0.88516 0.0
H1207 H 0.82019 0.6467 0.90105 0.0
C1208 C 0.81634 0.72301 0.9045 0.0
C1209 C 0.7934 0.71542 0.9068 0.0
C1210 C 0.83217 0.71098 0.91242 0.0
C1211 C 0.82541 0.69104 0.92258 0.0
C1212 C 0.80258 0.68323 0.92471 0.0
H1213 H 0.90711 0.59926 0.97379 0.0
H1214 H 0.87629 0.61634 0.95981 0.0
C1215 C 0.78667 0.69536 0.91694 0.0
C1216 C 0.84234 0.679 0.93192 0.0
H1217 H 0.87123 0.6373 0.91999 0.0
C1218 C 0.85268 0.68633 0.95266 0.0
C1219 C 0.8488 0.66095 0.92015 0.0
C1220 C 0.83811 0.65267 0.89774 0.0
C1221 C 0.86949 0.67612 0.96197 0.0
C1222 C 0.8766 0.65848 0.94979 0.0
C1223 C 0.86588 0.65088 0.92924 0.0
C1224 C 0.89542 0.64803 0.9579 0.0
C1225 C 0.87921 0.68417 0.98493 0.0
C1226 C 0.91654 0.66005 0.96107 0.0
C1227 C 0.93409 0.65044 0.96942 0.0
C1228 C 0.93104 0.62844 0.97444 0.0
C1229 C 0.90999 0.6163 0.97057 0.0
C1230 C 0.89238 0.626 0.96238 0.0
H1231 H 0.86749 0.69286 0.99521 0.0
H1232 H 0.88341 0.67081 0.99543 0.0
H1233 H 0.8947 0.69554 0.98174 0.0
H1234 H 0.91946 0.67697 0.9572 0.0
H1235 H 0.94994 0.66038 0.97235 0.0
H1236 H 0.44032 0.80957 0.13494 0.0
H1237 H 0.45799 0.84311 0.11791 0.0
H1238 H 0.40507 0.87531 0.14608 0.0
H1239 H 0.38821 0.84242 0.16455 0.0
H1240 H 0.44701 0.8677 0.08607 0.0
H1241 H 0.45492 0.91848 0.16556 0.0
H1242 H 0.44676 0.88988 0.16659 0.0
H1243 H 0.42648 0.90728 0.16072 0.0
C1244 C 0.43258 0.82381 0.13811 0.0
C1245 C 0.41261 0.82276 0.1515 0.0
C1246 C 0.4427 0.84315 0.12801 0.0
C1247 C 0.43332 0.86229 0.13084 0.0
C1248 C 0.41329 0.86124 0.14396 0.0
H1249 H 0.46885 0.99264 0.07145 0.0
H1250 H 0.44868 0.9597 0.0888 0.0
C1251 C 0.4033 0.84201 0.15427 0.0
C1252 C 0.44408 0.88297 0.11955 0.0
H1253 H 0.46143 0.93673 0.12975 0.0
C1254 C 0.45021 0.8827 0.0958 0.0
C1255 C 0.44847 0.90292 0.13185 0.0
C1256 C 0.44403 0.90466 0.15762 0.0
C1257 C 0.46015 0.90141 0.08421 0.0
C1258 C 0.46434 0.92129 0.09647 0.0
C1259 C 0.4581 0.92169 0.12012 0.0
C1260 C 0.47626 0.94146 0.08536 0.0
C1261 C 0.46591 0.89979 0.05871 0.0
C1262 C 0.49857 0.94254 0.07759 0.0
C1263 C 0.51012 0.96137 0.06789 0.0
C1264 C 0.49981 0.97984 0.06543 0.0
C1265 C 0.47736 0.97877 0.0729 0.0
C1266 C 0.46582 0.9599 0.08294 0.0
H1267 H 0.45688 0.88503 0.0505 0.0
H1268 H 0.4619 0.91395 0.04939 0.0
H1269 H 0.48408 0.89932 0.05655 0.0
H1270 H 0.50727 0.92884 0.0794 0.0
H1271 H 0.52737 0.96149 0.06245 0.0
H1272 H 0.10946 0.27104 0.61857 0.0
H1273 H 0.0946 0.2366 0.60041 0.0
H1274 H 0.11167 0.20366 0.66067 0.0
H1275 H 0.12594 0.23798 0.67923 0.0
H1276 H 0.11472 0.20091 0.58852 0.0
H1277 H 0.04668 0.17808 0.65301 0.0
H1278 H 0.06176 0.2049 0.65161 0.0
H1279 H 0.07381 0.18412 0.66546 0.0
C1280 C 0.10988 0.25653 0.62815 0.0
C1281 C 0.11892 0.25759 0.65057 0.0
C1282 C 0.10146 0.23673 0.61761 0.0
C1283 C 0.10157 0.21733 0.6292 0.0
C1284 C 0.11088 0.21828 0.65141 0.0
H1285 H 0.05458 0.08161 0.59689 0.0
H1286 H 0.07053 0.11596 0.61451 0.0
C1287 C 0.11937 0.23805 0.66193 0.0
C1288 C 0.09225 0.19618 0.61797 0.0
H1289 H 0.05331 0.15146 0.62511 0.0
C1290 C 0.10122 0.19016 0.5965 0.0
C1291 C 0.07464 0.18193 0.62826 0.0
C1292 C 0.06348 0.1876 0.65074 0.0
C1293 C 0.09351 0.17033 0.5854 0.0
C1294 C 0.07582 0.15608 0.59564 0.0
C1295 C 0.06685 0.16215 0.61711 0.0
C1296 C 0.06637 0.1349 0.58447 0.0
C1297 C 0.10498 0.16461 0.5631 0.0
C1298 C 0.05836 0.13372 0.56166 0.0
C1299 C 0.04937 0.11396 0.55144 0.0
C1300 C 0.04777 0.09473 0.56379 0.0
C1301 C 0.05555 0.09594 0.58672 0.0
C1302 C 0.06467 0.1157 0.59688 0.0
H1303 H 0.12211 0.17359 0.56151 0.0
H1304 H 0.10604 0.14719 0.56189 0.0
H1305 H 0.09536 0.1689 0.54819 0.0
H1306 H 0.05875 0.14816 0.55177 0.0
H1307 H 0.04339 0.11385 0.53385 0.0
H1308 H 0.71823 0.32014 0.48152 0.0
H1309 H 0.69452 0.34741 0.49132 0.0
H1310 H 0.65997 0.3064 0.54347 0.0
H1311 H 0.68355 0.27886 0.5336 0.0
H1312 H 0.64571 0.33435 0.48697 0.0
H1313 H 0.67148 0.36949 0.57341 0.0
H1314 H 0.69052 0.35769 0.55417 0.0
H1315 H 0.66878 0.34081 0.56929 0.0
C1316 C 0.70587 0.3171 0.49538 0.0
C1317 C 0.70256 0.29733 0.50665 0.0
C1318 C 0.69243 0.3327 0.50101 0.0
C1319 C 0.67559 0.32885 0.51809 0.0
C1320 C 0.67311 0.3097 0.53042 0.0
H1321 H 0.5587 0.39541 0.51867 0.0
H1322 H 0.58259 0.36767 0.52349 0.0
C1323 C 0.68658 0.29403 0.52479 0.0
C1324 C 0.6589 0.34362 0.52062 0.0
H1325 H 0.64127 0.38229 0.55577 0.0
C1326 C 0.64459 0.34474 0.50206 0.0
C1327 C 0.65762 0.35704 0.54036 0.0
C1328 C 0.67293 0.35641 0.56049 0.0
C1329 C 0.62925 0.35934 0.50247 0.0
C1330 C 0.62807 0.37296 0.5221 0.0
C1331 C 0.64216 0.37164 0.54086 0.0
C1332 C 0.61344 0.38975 0.52246 0.0
C1333 C 0.61499 0.3606 0.48154 0.0
C1334 C 0.62293 0.41131 0.52102 0.0
C1335 C 0.6094 0.42713 0.51815 0.0
C1336 C 0.58612 0.42162 0.51673 0.0
C1337 C 0.57661 0.40007 0.51926 0.0
C1338 C 0.59018 0.38426 0.52215 0.0
H1339 H 0.62079 0.35169 0.46629 0.0
H1340 H 0.59753 0.35358 0.48577 0.0
H1341 H 0.61498 0.37755 0.47667 0.0
H1342 H 0.64089 0.41578 0.52112 0.0
H1343 H 0.61725 0.44355 0.51605 0.0
loop_
_geom_bond_atom_site_label_1
_geom_bond_atom_site_label_2
_geom_bond_distance
_geom_bond_site_symmetry_2
_ccdc_geom_bond_type
C0 C1 1.264 . S
C0 C5 1.479 . S
C0 C10 1.465 . S
C1 C0 1.264 . S
C1 C3 1.339 . S
C1 H28 0.931 . S
C2 C3 1.395 . S
C2 C4 1.320 . S
C3 C1 1.339 . S
C3 C2 1.395 . S
C3 H29 0.929 . S
C4 C2 1.320 . S
C4 C5 1.405 . S
C4 H30 0.930 . S
C5 C0 1.479 . S
C5 C4 1.405 . S
C5 H31 0.931 . S
U6 O7 2.454 . S
U6 O8 2.458 . S
U6 C9 2.984 . S
U6 C10 2.847 . S
U6 C23 2.882 . S
U6 O24 2.441 . S
U6 O25 2.420 . S
U6 O26 2.455 . S
U6 O27 2.449 . S
O7 U6 2.454 . S
O7 C9 1.353 . S
O8 U6 2.458 . S
O8 C9 1.286 . S
C9 U6 2.984 . S
C9 O7 1.353 . S
C9 O8 1.286 . S
C9 C11 1.363 . S
C10 C0 1.465 . S
C10 U6 2.847 . S
C10 O24 1.249 . S
C10 O25 1.202 . S
C11 C9 1.363 . S
C11 C13 1.408 . S
C11 C16 1.342 . S
C12 C13 1.310 . S
C12 C15 1.461 . S
C12 H32 0.932 . S
C13 C11 1.408 . S
C13 C12 1.310 . S
C13 H33 0.930 . S
C14 C15 1.474 . S
C14 C16 1.285 . S
C14 H34 0.929 . S
C15 C12 1.461 . S
C15 C14 1.474 . S
C16 C11 1.342 . S
C16 C14 1.285 . S
C16 H35 0.930 . S
C17 C20 1.424 . S
C17 C22 1.245 . S
C17 C23 1.428 . S
C18 C21 1.260 . S
C18 C22 1.477 . S
C18 H36 0.932 . S
C19 C20 1.384 . S
C19 C21 1.479 . S
C19 H37 0.929 . S
C20 C17 1.424 . S
C20 C19 1.384 . S
C20 H38 0.928 . S
C21 C18 1.260 . S
C21 C19 1.479 . S
C22 C17 1.245 . S
C22 C18 1.477 . S
C22 H39 0.932 . S
C23 U6 2.882 . S
C23 C17 1.428 . S
C23 O26 1.301 . S
C23 O27 1.282 . S
O24 U6 2.441 . S
O24 C10 1.249 . S
O25 U6 2.420 . S
O25 C10 1.202 . S
O26 U6 2.455 . S
O26 C23 1.301 . S
O27 U6 2.449 . S
O27 C23 1.282 . S
H28 C1 0.931 . S
H29 C3 0.929 . S
H30 C4 0.930 . S
H31 C5 0.931 . S
H32 C12 0.932 . S
H33 C13 0.930 . S
H34 C14 0.929 . S
H35 C16 0.930 . S
H36 C18 0.932 . S
H37 C19 0.929 . S
H38 C20 0.928 . S
H39 C22 0.932 . S
C40 C41 1.264 . S
C40 C45 1.479 . S
C40 C50 1.465 . S
C41 C40 1.264 . S
C41 C43 1.339 . S
C41 H68 0.931 . S
C42 C43 1.395 . S
C42 C44 1.320 . S
C43 C41 1.339 . S
C43 C42 1.395 . S
C43 H69 0.929 . S
C44 C42 1.320 . S
C44 C45 1.405 . S
C44 H70 0.930 . S
C45 C40 1.479 . S
C45 C44 1.405 . S
C45 H71 0.931 . S
U46 O47 2.454 . S
U46 O48 2.458 . S
U46 C49 2.984 . S
U46 C50 2.847 . S
U46 C63 2.882 . S
U46 O64 2.441 . S
U46 O65 2.420 . S
U46 O66 2.455 . S
U46 O67 2.449 . S
O47 U46 2.454 . S
O47 C49 1.353 . S
O48 U46 2.458 . S
O48 C49 1.286 . S
C49 U46 2.984 . S
C49 O47 1.353 . S
C49 O48 1.286 . S
C49 C51 1.363 . S
C50 C40 1.465 . S
C50 U46 2.847 . S
C50 O64 1.249 . S
C50 O65 1.202 . S
C51 C49 1.363 . S
C51 C53 1.408 . S
C51 C56 1.342 . S
C52 C53 1.310 . S
C52 C55 1.461 . S
C52 H72 0.932 . S
C53 C51 1.408 . S
C53 C52 1.310 . S
C53 H73 0.930 . S
C54 C55 1.474 . S
C54 C56 1.285 . S
C54 H74 0.929 . S
C55 C52 1.461 . S
C55 C54 1.474 . S
C56 C51 1.342 . S
C56 C54 1.285 . S
C56 H75 0.930 . S
C57 C60 1.424 . S
C57 C62 1.245 . S
C57 C63 1.428 . S
C58 C61 1.260 . S
C58 C62 1.477 . S
C58 H76 0.932 . S
C59 C60 1.384 . S
C59 C61 1.479 . S
C59 H77 0.929 . S
C60 C57 1.424 . S
C60 C59 1.384 . S
C60 H78 0.928 . S
C61 C58 1.260 . S
C61 C59 1.479 . S
C62 C57 1.245 . S
C62 C58 1.477 . S
C62 H79 0.932 . S
C63 U46 2.882 . S
C63 C57 1.428 . S
C63 O66 1.301 . S
C63 O67 1.282 . S
O64 U46 2.441 . S
O64 C50 1.249 . S
O65 U46 2.420 . S
O65 C50 1.202 . S
O66 U46 2.455 . S
O66 C63 1.301 . S
O67 U46 2.449 . S
O67 C63 1.282 . S
H68 C41 0.931 . S
H69 C43 0.929 . S
H70 C44 0.930 . S
H71 C45 0.931 . S
H72 C52 0.932 . S
H73 C53 0.930 . S
H74 C54 0.929 . S
H75 C56 0.930 . S
H76 C58 0.932 . S
H77 C59 0.929 . S
H78 C60 0.928 . S
H79 C62 0.932 . S
C80 C81 1.264 . S
C80 C85 1.479 . S
C80 C90 1.465 . S
C81 C80 1.264 . S
C81 C83 1.339 . S
C81 H108 0.931 . S
C82 C83 1.395 . S
C82 C84 1.320 . S
C83 C81 1.339 . S
C83 C82 1.395 . S
C83 H109 0.929 . S
C84 C82 1.320 . S
C84 C85 1.405 . S
C84 H110 0.930 . S
C85 C80 1.479 . S
C85 C84 1.405 . S
C85 H111 0.931 . S
U86 O87 2.454 . S
U86 O88 2.458 . S
U86 C89 2.984 . S
U86 C90 2.847 . S
U86 C103 2.882 . S
U86 O104 2.441 . S
U86 O105 2.420 . S
U86 O106 2.455 . S
U86 O107 2.449 . S
O87 U86 2.454 . S
O87 C89 1.353 . S
O88 U86 2.458 . S
O88 C89 1.286 . S
C89 U86 2.984 . S
C89 O87 1.353 . S
C89 O88 1.286 . S
C89 C91 1.363 . S
C90 C80 1.465 . S
C90 U86 2.847 . S
C90 O104 1.249 . S
C90 O105 1.202 . S
C91 C89 1.363 . S
C91 C93 1.408 . S
C91 C96 1.342 . S
C92 C93 1.310 . S
C92 C95 1.461 . S
C92 H112 0.932 . S
C93 C91 1.408 . S
C93 C92 1.310 . S
C93 H113 0.930 . S
C94 C95 1.474 . S
C94 C96 1.285 . S
C94 H114 0.929 . S
C95 C92 1.461 . S
C95 C94 1.474 . S
C96 C91 1.342 . S
C96 C94 1.285 . S
C96 H115 0.930 . S
C97 C100 1.424 . S
C97 C102 1.245 . S
C97 C103 1.428 . S
C98 C101 1.260 . S
C98 C102 1.477 . S
C98 H116 0.932 . S
C99 C100 1.384 . S
C99 C101 1.479 . S
C99 H117 0.929 . S
C100 C97 1.424 . S
C100 C99 1.384 . S
C100 H118 0.928 . S
C101 C98 1.260 . S
C101 C99 1.479 . S
C102 C97 1.245 . S
C102 C98 1.477 . S
C102 H119 0.932 . S
C103 U86 2.882 . S
C103 C97 1.428 . S
C103 O106 1.301 . S
C103 O107 1.282 . S
O104 U86 2.441 . S
O104 C90 1.249 . S
O105 U86 2.420 . S
O105 C90 1.202 . S
O106 U86 2.455 . S
O106 C103 1.301 . S
O107 U86 2.449 . S
O107 C103 1.282 . S
H108 C81 0.931 . S
H109 C83 0.929 . S
H110 C84 0.930 . S
H111 C85 0.931 . S
H112 C92 0.932 . S
H113 C93 0.930 . S
H114 C94 0.929 . S
H115 C96 0.930 . S
H116 C98 0.932 . S
H117 C99 0.929 . S
H118 C100 0.928 . S
H119 C102 0.932 . S
C120 C121 1.264 . S
C120 C125 1.479 . S
C120 C130 1.465 . S
C121 C120 1.264 . S
C121 C123 1.339 . S
C121 H148 0.931 . S
C122 C123 1.395 . S
C122 C124 1.320 . S
C123 C121 1.339 . S
C123 C122 1.395 . S
C123 H149 0.929 . S
C124 C122 1.320 . S
C124 C125 1.405 . S
C124 H150 0.930 . S
C125 C120 1.479 . S
C125 C124 1.405 . S
C125 H151 0.931 . S
U126 O127 2.454 . S
U126 O128 2.458 . S
U126 C129 2.984 . S
U126 C130 2.847 . S
U126 C143 2.882 . S
U126 O144 2.441 . S
U126 O145 2.420 . S
U126 O146 2.455 . S
U126 O147 2.449 . S
O127 U126 2.454 . S
O127 C129 1.353 . S
O128 U126 2.458 . S
O128 C129 1.286 . S
C129 U126 2.984 . S
C129 O127 1.353 . S
C129 O128 1.286 . S
C129 C131 1.363 . S
C130 C120 1.465 . S
C130 U126 2.847 . S
C130 O144 1.249 . S
C130 O145 1.202 . S
C131 C129 1.363 . S
C131 C133 1.408 . S
C131 C136 1.342 . S
C132 C133 1.310 . S
C132 C135 1.461 . S
C132 H152 0.932 . S
C133 C131 1.408 . S
C133 C132 1.310 . S
C133 H153 0.930 . S
C134 C135 1.474 . S
C134 C136 1.285 . S
C134 H154 0.929 . S
C135 C132 1.461 . S
C135 C134 1.474 . S
C136 C131 1.342 . S
C136 C134 1.285 . S
C136 H155 0.930 . S
C137 C140 1.424 . S
C137 C142 1.245 . S
C137 C143 1.428 . S
C138 C141 1.260 . S
C138 C142 1.477 . S
C138 H156 0.932 . S
C139 C140 1.384 . S
C139 C141 1.479 . S
C139 H157 0.929 . S
C140 C137 1.424 . S
C140 C139 1.384 . S
C140 H158 0.928 . S
C141 C138 1.260 . S
C141 C139 1.479 . S
C142 C137 1.245 . S
C142 C138 1.477 . S
C142 H159 0.932 . S
C143 U126 2.882 . S
C143 C137 1.428 . S
C143 O146 1.301 . S
C143 O147 1.282 . S
O144 U126 2.441 . S
O144 C130 1.249 . S
O145 U126 2.420 . S
O145 C130 1.202 . S
O146 U126 2.455 . S
O146 C143 1.301 . S
O147 U126 2.449 . S
O147 C143 1.282 . S
H148 C121 0.931 . S
H149 C123 0.929 . S
H150 C124 0.930 . S
H151 C125 0.931 . S
H152 C132 0.932 . S
H153 C133 0.930 . S
H154 C134 0.929 . S
H155 C136 0.930 . S
H156 C138 0.932 . S
H157 C139 0.929 . S
H158 C140 0.928 . S
H159 C142 0.932 . S
C160 C161 1.264 . S
C160 C165 1.479 . S
C160 C170 1.465 . S
C161 C160 1.264 . S
C161 C163 1.339 . S
C161 H188 0.931 . S
C162 C163 1.395 . S
C162 C164 1.320 . S
C163 C161 1.339 . S
C163 C162 1.395 . S
C163 H189 0.929 . S
C164 C162 1.320 . S
C164 C165 1.405 . S
C164 H190 0.930 . S
C165 C160 1.479 . S
C165 C164 1.405 . S
C165 H191 0.931 . S
U166 O167 2.454 . S
U166 O168 2.458 . S
U166 C169 2.984 . S
U166 C170 2.847 . S
U166 C183 2.882 . S
U166 O184 2.441 . S
U166 O185 2.420 . S
U166 O186 2.455 . S
U166 O187 2.449 . S
O167 U166 2.454 . S
O167 C169 1.353 . S
O168 U166 2.458 . S
O168 C169 1.286 . S
C169 U166 2.984 . S
C169 O167 1.353 . S
C169 O168 1.286 . S
C169 C171 1.363 . S
C170 C160 1.465 . S
C170 U166 2.847 . S
C170 O184 1.249 . S
C170 O185 1.202 . S
C171 C169 1.363 . S
C171 C173 1.408 . S
C171 C176 1.342 . S
C172 C173 1.310 . S
C172 C175 1.461 . S
C172 H192 0.932 . S
C173 C171 1.408 . S
C173 C172 1.310 . S
C173 H193 0.930 . S
C174 C175 1.474 . S
C174 C176 1.285 . S
C174 H194 0.929 . S
C175 C172 1.461 . S
C175 C174 1.474 . S
C176 C171 1.342 . S
C176 C174 1.285 . S
C176 H195 0.930 . S
C177 C180 1.424 . S
C177 C182 1.245 . S
C177 C183 1.428 . S
C178 C181 1.260 . S
C178 C182 1.477 . S
C178 H196 0.932 . S
C179 C180 1.384 . S
C179 C181 1.479 . S
C179 H197 0.929 . S
C180 C177 1.424 . S
C180 C179 1.384 . S
C180 H198 0.928 . S
C181 C178 1.260 . S
C181 C179 1.479 . S
C182 C177 1.245 . S
C182 C178 1.477 . S
C182 H199 0.932 . S
C183 U166 2.882 . S
C183 C177 1.428 . S
C183 O186 1.301 . S
C183 O187 1.282 . S
O184 U166 2.441 . S
O184 C170 1.249 . S
O185 U166 2.420 . S
O185 C170 1.202 . S
O186 U166 2.455 . S
O186 C183 1.301 . S
O187 U166 2.449 . S
O187 C183 1.282 . S
H188 C161 0.931 . S
H189 C163 0.929 . S
H190 C164 0.930 . S
H191 C165 0.931 . S
H192 C172 0.932 . S
H193 C173 0.930 . S
H194 C174 0.929 . S
H195 C176 0.930 . S
H196 C178 0.932 . S
H197 C179 0.929 . S
H198 C180 0.928 . S
H199 C182 0.932 . S
C200 C201 1.264 . S
C200 C205 1.479 . S
C200 C210 1.465 . S
C201 C200 1.264 . S
C201 C203 1.339 . S
C201 H228 0.931 . S
C202 C203 1.395 . S
C202 C204 1.320 . S
C203 C201 1.339 . S
C203 C202 1.395 . S
C203 H229 0.929 . S
C204 C202 1.320 . S
C204 C205 1.405 . S
C204 H230 0.930 . S
C205 C200 1.479 . S
C205 C204 1.405 . S
C205 H231 0.931 . S
U206 O207 2.454 . S
U206 O208 2.458 . S
U206 C209 2.984 . S
U206 C210 2.847 . S
U206 C223 2.882 . S
U206 O224 2.441 . S
U206 O225 2.420 . S
U206 O226 2.455 . S
U206 O227 2.449 . S
O207 U206 2.454 . S
O207 C209 1.353 . S
O208 U206 2.458 . S
O208 C209 1.286 . S
C209 U206 2.984 . S
C209 O207 1.353 . S
C209 O208 1.286 . S
C209 C211 1.363 . S
C210 C200 1.465 . S
C210 U206 2.847 . S
C210 O224 1.249 . S
C210 O225 1.202 . S
C211 C209 1.363 . S
C211 C213 1.408 . S
C211 C216 1.342 . S
C212 C213 1.310 . S
C212 C215 1.461 . S
C212 H232 0.932 . S
C213 C211 1.408 . S
C213 C212 1.310 . S
C213 H233 0.930 . S
C214 C215 1.474 . S
C214 C216 1.285 . S
C214 H234 0.929 . S
C215 C212 1.461 . S
C215 C214 1.474 . S
C216 C211 1.342 . S
C216 C214 1.285 . S
C216 H235 0.930 . S
C217 C220 1.424 . S
C217 C222 1.245 . S
C217 C223 1.428 . S
C218 C221 1.260 . S
C218 C222 1.477 . S
C218 H236 0.932 . S
C219 C220 1.384 . S
C219 C221 1.479 . S
C219 H237 0.929 . S
C220 C217 1.424 . S
C220 C219 1.384 . S
C220 H238 0.928 . S
C221 C218 1.260 . S
C221 C219 1.479 . S
C222 C217 1.245 . S
C222 C218 1.477 . S
C222 H239 0.932 . S
C223 U206 2.882 . S
C223 C217 1.428 . S
C223 O226 1.301 . S
C223 O227 1.282 . S
O224 U206 2.441 . S
O224 C210 1.249 . S
O225 U206 2.420 . S
O225 C210 1.202 . S
O226 U206 2.455 . S
O226 C223 1.301 . S
O227 U206 2.449 . S
O227 C223 1.282 . S
H228 C201 0.931 . S
H229 C203 0.929 . S
H230 C204 0.930 . S
H231 C205 0.931 . S
H232 C212 0.932 . S
H233 C213 0.930 . S
H234 C214 0.929 . S
H235 C216 0.930 . S
H236 C218 0.932 . S
H237 C219 0.929 . S
H238 C220 0.928 . S
H239 C222 0.932 . S
C240 C241 1.264 . S
C240 C245 1.479 . S
C240 C250 1.465 . S
C241 C240 1.264 . S
C241 C243 1.339 . S
C241 H268 0.931 . S
C242 C243 1.395 . S
C242 C244 1.320 . S
C243 C241 1.339 . S
C243 C242 1.395 . S
C243 H269 0.929 . S
C244 C242 1.320 . S
C244 C245 1.405 . S
C244 H270 0.930 . S
C245 C240 1.479 . S
C245 C244 1.405 . S
C245 H271 0.931 . S
U246 O247 2.454 . S
U246 O248 2.458 . S
U246 C249 2.984 . S
U246 C250 2.847 . S
U246 C263 2.882 . S
U246 O264 2.441 . S
U246 O265 2.420 . S
U246 O266 2.455 . S
U246 O267 2.449 . S
O247 U246 2.454 . S
O247 C249 1.353 . S
O248 U246 2.458 . S
O248 C249 1.286 . S
C249 U246 2.984 . S
C249 O247 1.353 . S
C249 O248 1.286 . S
C249 C251 1.363 . S
C250 C240 1.465 . S
C250 U246 2.847 . S
C250 O264 1.249 . S
C250 O265 1.202 . S
C251 C249 1.363 . S
C251 C253 1.408 . S
C251 C256 1.342 . S
C252 C253 1.310 . S
C252 C255 1.461 . S
C252 H272 0.932 . S
C253 C251 1.408 . S
C253 C252 1.310 . S
C253 H273 0.930 . S
C254 C255 1.474 . S
C254 C256 1.285 . S
C254 H274 0.929 . S
C255 C252 1.461 . S
C255 C254 1.474 . S
C256 C251 1.342 . S
C256 C254 1.285 . S
C256 H275 0.930 . S
C257 C260 1.424 . S
C257 C262 1.245 . S
C257 C263 1.428 . S
C258 C261 1.260 . S
C258 C262 1.477 . S
C258 H276 0.932 . S
C259 C260 1.384 . S
C259 C261 1.479 . S
C259 H277 0.929 . S
C260 C257 1.424 . S
C260 C259 1.384 . S
C260 H278 0.928 . S
C261 C258 1.260 . S
C261 C259 1.479 . S
C262 C257 1.245 . S
C262 C258 1.477 . S
C262 H279 0.932 . S
C263 U246 2.882 . S
C263 C257 1.428 . S
C263 O266 1.301 . S
C263 O267 1.282 . S
O264 U246 2.441 . S
O264 C250 1.249 . S
O265 U246 2.420 . S
O265 C250 1.202 . S
O266 U246 2.455 . S
O266 C263 1.301 . S
O267 U246 2.449 . S
O267 C263 1.282 . S
H268 C241 0.931 . S
H269 C243 0.929 . S
H270 C244 0.930 . S
H271 C245 0.931 . S
H272 C252 0.932 . S
H273 C253 0.930 . S
H274 C254 0.929 . S
H275 C256 0.930 . S
H276 C258 0.932 . S
H277 C259 0.929 . S
H278 C260 0.928 . S
H279 C262 0.932 . S
C280 C281 1.264 . S
C280 C285 1.479 . S
C280 C290 1.465 . S
C281 C280 1.264 . S
C281 C283 1.339 . S
C281 H308 0.931 . S
C282 C283 1.395 . S
C282 C284 1.320 . S
C283 C281 1.339 . S
C283 C282 1.395 . S
C283 H309 0.929 . S
C284 C282 1.320 . S
C284 C285 1.405 . S
C284 H310 0.930 . S
C285 C280 1.479 . S
C285 C284 1.405 . S
C285 H311 0.931 . S
U286 O287 2.454 . S
U286 O288 2.458 . S
U286 C289 2.984 . S
U286 C290 2.847 . S
U286 C303 2.882 . S
U286 O304 2.441 . S
U286 O305 2.420 . S
U286 O306 2.455 . S
U286 O307 2.449 . S
O287 U286 2.454 . S
O287 C289 1.353 . S
O288 U286 2.458 . S
O288 C289 1.286 . S
C289 U286 2.984 . S
C289 O287 1.353 . S
C289 O288 1.286 . S
C289 C291 1.363 . S
C290 C280 1.465 . S
C290 U286 2.847 . S
C290 O304 1.249 . S
C290 O305 1.202 . S
C291 C289 1.363 . S
C291 C293 1.408 . S
C291 C296 1.342 . S
C292 C293 1.310 . S
C292 C295 1.461 . S
C292 H312 0.932 . S
C293 C291 1.408 . S
C293 C292 1.310 . S
C293 H313 0.930 . S
C294 C295 1.474 . S
C294 C296 1.285 . S
C294 H314 0.929 . S
C295 C292 1.461 . S
C295 C294 1.474 . S
C296 C291 1.342 . S
C296 C294 1.285 . S
C296 H315 0.930 . S
C297 C300 1.424 . S
C297 C302 1.245 . S
C297 C303 1.428 . S
C298 C301 1.260 . S
C298 C302 1.477 . S
C298 H316 0.932 . S
C299 C300 1.384 . S
C299 C301 1.479 . S
C299 H317 0.929 . S
C300 C297 1.424 . S
C300 C299 1.384 . S
C300 H318 0.928 . S
C301 C298 1.260 . S
C301 C299 1.479 . S
C302 C297 1.245 . S
C302 C298 1.477 . S
C302 H319 0.932 . S
C303 U286 2.882 . S
C303 C297 1.428 . S
C303 O306 1.301 . S
C303 O307 1.282 . S
O304 U286 2.441 . S
O304 C290 1.249 . S
O305 U286 2.420 . S
O305 C290 1.202 . S
O306 U286 2.455 . S
O306 C303 1.301 . S
O307 U286 2.449 . S
O307 C303 1.282 . S
H308 C281 0.931 . S
H309 C283 0.929 . S
H310 C284 0.930 . S
H311 C285 0.931 . S
H312 C292 0.932 . S
H313 C293 0.930 . S
H314 C294 0.929 . S
H315 C296 0.930 . S
H316 C298 0.932 . S
H317 C299 0.929 . S
H318 C300 0.928 . S
H319 C302 0.932 . S
La320 C322 2.928 . S
La320 O340 2.521 . S
La320 O341 2.628 . S
La320 O342 2.554 1_545 S
La320 O343 2.757 1_545 S
La320 O344 2.470 . S
La320 O349 2.482 1_455 S
La320 O351 2.503 1_445 S
La321 C331 2.910 1_545 S
La321 O343 2.472 1_645 S
La321 O345 2.523 1_655 S
La321 O346 2.511 1_545 S
La321 O347 2.605 1_545 S
La321 O348 2.567 . S
La321 O349 2.769 . S
La321 O350 2.455 1_545 S
C322 La320 2.928 . S
C322 C323 1.503 . S
C322 O340 1.261 . S
C322 O341 1.243 . S
C323 C322 1.503 . S
C323 C324 1.394 . S
C323 C328 1.373 . S
C324 C323 1.394 . S
C324 C325 1.380 . S
C324 H352 0.930 . S
C325 C324 1.380 . S
C325 C326 1.376 . S
C325 H353 0.930 . S
C326 C325 1.376 . S
C326 C327 1.370 . S
C327 C326 1.370 . S
C327 C328 1.396 . S
C327 H354 0.929 . S
C328 C323 1.373 . S
C328 C327 1.396 . S
C328 H355 0.929 . S
C329 O342 1.240 . S
C329 O343 1.289 . S
C330 O344 1.258 . S
C330 O345 1.256 . S
C331 La321 2.910 1_565 S
C331 C332 1.503 . S
C331 O346 1.261 . S
C331 O347 1.243 . S
C332 C331 1.503 . S
C332 C333 1.394 . S
C332 C337 1.373 . S
C333 C332 1.394 . S
C333 C334 1.380 . S
C333 H356 0.930 . S
C334 C333 1.380 . S
C334 C335 1.376 . S
C334 H357 0.930 . S
C335 C334 1.376 . S
C335 C336 1.370 . S
C336 C335 1.370 . S
C336 C337 1.396 . S
C336 H358 0.929 . S
C337 C332 1.373 . S
C337 C336 1.396 . S
C337 H359 0.929 . S
C338 O348 1.240 . S
C338 O349 1.289 . S
C339 O350 1.258 . S
C339 O351 1.256 . S
O340 La320 2.521 . S
O340 C322 1.261 . S
O341 La320 2.628 . S
O341 C322 1.243 . S
O342 La320 2.554 1_565 S
O342 C329 1.240 . S
O343 La320 2.757 1_565 S
O343 La321 2.472 1_465 S
O343 C329 1.289 . S
O344 La320 2.470 . S
O344 C330 1.258 . S
O345 La321 2.523 1_455 S
O345 C330 1.256 . S
O346 La321 2.511 1_565 S
O346 C331 1.261 . S
O347 La321 2.605 1_565 S
O347 C331 1.243 . S
O348 La321 2.567 . S
O348 C338 1.240 . S
O349 La320 2.482 1_655 S
O349 La321 2.769 . S
O349 C338 1.289 . S
O350 La321 2.455 1_565 S
O350 C339 1.258 . S
O351 La320 2.503 1_665 S
O351 C339 1.256 . S
H352 C324 0.930 . S
H353 C325 0.930 . S
H354 C327 0.929 . S
H355 C328 0.929 . S
H356 C333 0.930 . S
H357 C334 0.930 . S
H358 C336 0.929 . S
H359 C337 0.929 . S
La360 C362 2.928 . S
La360 O380 2.521 . S
La360 O381 2.628 . S
La360 O382 2.554 1_545 S
La360 O383 2.757 1_545 S
La360 O384 2.470 . S
La360 O389 2.482 1_554 S
La360 O391 2.503 1_544 S
La361 C371 2.928 1_545 S
La361 O383 2.482 1_546 S
La361 O385 2.503 1_556 S
La361 O386 2.521 1_545 S
La361 O387 2.628 1_545 S
La361 O388 2.554 . S
La361 O389 2.757 . S
La361 O390 2.470 1_545 S
C362 La360 2.928 . S
C362 C363 1.503 . S
C362 O380 1.261 . S
C362 O381 1.243 . S
C363 C362 1.503 . S
C363 C364 1.394 . S
C363 C368 1.373 . S
C364 C363 1.394 . S
C364 C365 1.380 . S
C364 H392 0.930 . S
C365 C364 1.380 . S
C365 C366 1.376 . S
C365 H393 0.930 . S
C366 C365 1.376 . S
C366 C367 1.370 . S
C367 C366 1.370 . S
C367 C368 1.396 . S
C367 H394 0.929 . S
C368 C363 1.373 . S
C368 C367 1.396 . S
C368 H395 0.929 . S
C369 O382 1.240 . S
C369 O383 1.289 . S
C370 O384 1.258 . S
C370 O385 1.256 . S
C371 La361 2.928 1_565 S
C371 C372 1.503 . S
C371 O386 1.261 . S
C371 O387 1.243 . S
C372 C371 1.503 . S
C372 C373 1.394 . S
C372 C377 1.373 . S
C373 C372 1.394 . S
C373 C374 1.380 . S
C373 H396 0.930 . S
C374 C373 1.380 . S
C374 C375 1.376 . S
C374 H397 0.930 . S
C375 C374 1.376 . S
C375 C376 1.370 . S
C376 C375 1.370 . S
C376 C377 1.396 . S
C376 H398 0.929 . S
C377 C372 1.373 . S
C377 C376 1.396 . S
C377 H399 0.929 . S
C378 O388 1.240 . S
C378 O389 1.289 . S
C379 O390 1.258 . S
C379 O391 1.256 . S
O380 La360 2.521 . S
O380 C362 1.261 . S
O381 La360 2.628 . S
O381 C362 1.243 . S
O382 La360 2.554 1_565 S
O382 C369 1.240 . S
O383 La360 2.757 1_565 S
O383 La361 2.482 1_564 S
O383 C369 1.289 . S
O384 La360 2.470 . S
O384 C370 1.258 . S
O385 La361 2.503 1_554 S
O385 C370 1.256 . S
O386 La361 2.521 1_565 S
O386 C371 1.261 . S
O387 La361 2.628 1_565 S
O387 C371 1.243 . S
O388 La361 2.554 . S
O388 C378 1.240 . S
O389 La360 2.482 1_556 S
O389 La361 2.757 . S
O389 C378 1.289 . S
O390 La361 2.470 1_565 S
O390 C379 1.258 . S
O391 La360 2.503 1_566 S
O391 C379 1.256 . S
H392 C364 0.930 . S
H393 C365 0.930 . S
H394 C367 0.929 . S
H395 C368 0.929 . S
H396 C373 0.930 . S
H397 C374 0.930 . S
H398 C376 0.929 . S
H399 C377 0.929 . S
La400 C402 2.928 . S
La400 O420 2.521 . S
La400 O421 2.628 . S
La400 O422 2.554 . S
La400 O423 2.757 . S
La400 O424 2.470 . S
La400 O429 2.482 . S
La400 O431 2.503 . S
La401 C411 2.928 . S
La401 O423 2.482 . S
La401 O425 2.503 . S
La401 O426 2.521 . S
La401 O427 2.628 . S
La401 O428 2.554 . S
La401 O429 2.757 . S
La401 O430 2.470 . S
C402 La400 2.928 . S
C402 C403 1.503 . S
C402 O420 1.261 . S
C402 O421 1.243 . S
C403 C402 1.503 . S
C403 C404 1.394 . S
C403 C408 1.373 . S
C404 C403 1.394 . S
C404 C405 1.380 . S
C404 H432 0.930 . S
C405 C404 1.380 . S
C405 C406 1.376 . S
C405 H433 0.930 . S
C406 C405 1.376 . S
C406 C407 1.370 . S
C407 C406 1.370 . S
C407 C408 1.396 . S
C407 H434 0.929 . S
C408 C403 1.373 . S
C408 C407 1.396 . S
C408 H435 0.929 . S
C409 O422 1.240 . S
C409 O423 1.289 . S
C410 O424 1.258 . S
C410 O425 1.256 . S
C411 La401 2.928 . S
C411 C412 1.503 . S
C411 O426 1.261 . S
C411 O427 1.243 . S
C412 C411 1.503 . S
C412 C413 1.394 . S
C412 C417 1.373 . S
C413 C412 1.394 . S
C413 C414 1.380 . S
C413 H436 0.930 . S
C414 C413 1.380 . S
C414 C415 1.376 . S
C414 H437 0.930 . S
C415 C414 1.376 . S
C415 C416 1.370 . S
C416 C415 1.370 . S
C416 C417 1.396 . S
C416 H438 0.929 . S
C417 C412 1.373 . S
C417 C416 1.396 . S
C417 H439 0.929 . S
C418 O428 1.240 . S
C418 O429 1.289 . S
C419 O430 1.258 . S
C419 O431 1.256 . S
O420 La400 2.521 . S
O420 C402 1.261 . S
O421 La400 2.628 . S
O421 C402 1.243 . S
O422 La400 2.554 . S
O422 C409 1.240 . S
O423 La400 2.757 . S
O423 La401 2.482 . S
O423 C409 1.289 . S
O424 La400 2.470 . S
O424 C410 1.258 . S
O425 La401 2.503 . S
O425 C410 1.256 . S
O426 La401 2.521 . S
O426 C411 1.261 . S
O427 La401 2.628 . S
O427 C411 1.243 . S
O428 La401 2.554 . S
O428 C418 1.240 . S
O429 La400 2.482 . S
O429 La401 2.757 . S
O429 C418 1.289 . S
O430 La401 2.470 . S
O430 C419 1.258 . S
O431 La400 2.503 . S
O431 C419 1.256 . S
H432 C404 0.930 . S
H433 C405 0.930 . S
H434 C407 0.929 . S
H435 C408 0.929 . S
H436 C413 0.930 . S
H437 C414 0.930 . S
H438 C416 0.929 . S
H439 C417 0.929 . S
La440 C442 2.928 . S
La440 O460 2.521 . S
La440 O461 2.628 . S
La440 O462 2.554 1_455 S
La440 O463 2.757 1_455 S
La440 O464 2.470 . S
La440 O469 2.482 1_554 S
La440 O471 2.503 1_454 S
La441 C451 2.925 . S
La441 O463 2.481 1_556 S
La441 O465 2.507 1_656 S
La441 O466 2.519 . S
La441 O467 2.624 . S
La441 O468 2.556 1_655 S
La441 O469 2.759 1_655 S
La441 O470 2.468 . S
C442 La440 2.928 . S
C442 C443 1.503 . S
C442 O460 1.261 . S
C442 O461 1.243 . S
C443 C442 1.503 . S
C443 C444 1.394 . S
C443 C448 1.373 . S
C444 C443 1.394 . S
C444 C445 1.380 . S
C444 H472 0.930 . S
C445 C444 1.380 . S
C445 C446 1.376 . S
C445 H473 0.930 . S
C446 C445 1.376 . S
C446 C447 1.370 . S
C447 C446 1.370 . S
C447 C448 1.396 . S
C447 H474 0.929 . S
C448 C443 1.373 . S
C448 C447 1.396 . S
C448 H475 0.929 . S
C449 O462 1.240 . S
C449 O463 1.289 . S
C450 O464 1.258 . S
C450 O465 1.256 . S
C451 La441 2.925 . S
C451 C452 1.503 . S
C451 O466 1.261 . S
C451 O467 1.243 . S
C452 C451 1.503 . S
C452 C453 1.394 . S
C452 C457 1.373 . S
C453 C452 1.394 . S
C453 C454 1.380 . S
C453 H476 0.930 . S
C454 C453 1.380 . S
C454 C455 1.376 . S
C454 H477 0.930 . S
C455 C454 1.376 . S
C455 C456 1.370 . S
C456 C455 1.370 . S
C456 C457 1.396 . S
C456 H478 0.929 . S
C457 C452 1.373 . S
C457 C456 1.396 . S
C457 H479 0.929 . S
C458 O468 1.240 . S
C458 O469 1.289 . S
C459 O470 1.258 . S
C459 O471 1.256 . S
O460 La440 2.521 . S
O460 C442 1.261 . S
O461 La440 2.628 . S
O461 C442 1.243 . S
O462 La440 2.554 1_655 S
O462 C449 1.240 . S
O463 La440 2.757 1_655 S
O463 La441 2.481 1_554 S
O463 C449 1.289 . S
O464 La440 2.470 . S
O464 C450 1.258 . S
O465 La441 2.507 1_454 S
O465 C450 1.256 . S
O466 La441 2.519 . S
O466 C451 1.261 . S
O467 La441 2.624 . S
O467 C451 1.243 . S
O468 La441 2.556 1_455 S
O468 C458 1.240 . S
O469 La440 2.482 1_556 S
O469 La441 2.759 1_455 S
O469 C458 1.289 . S
O470 La441 2.468 . S
O470 C459 1.258 . S
O471 La440 2.503 1_656 S
O471 C459 1.256 . S
H472 C444 0.930 . S
H473 C445 0.930 . S
H474 C447 0.929 . S
H475 C448 0.929 . S
H476 C453 0.930 . S
H477 C454 0.930 . S
H478 C456 0.929 . S
H479 C457 0.929 . S
H480 C488 0.929 . S
H481 C490 0.930 . S
H482 C492 0.930 . S
H483 C495 0.929 . S
H484 C498 0.930 . S
H485 C500 0.960 . S
H486 C500 0.960 . S
H487 C500 0.960 . S
C488 H480 0.929 . S
C488 C489 1.377 . S
C488 C490 1.384 . S
C489 C488 1.377 . S
C489 C495 1.390 . S
C490 H481 0.930 . S
C490 C488 1.384 . S
C490 C491 1.372 . S
C491 C490 1.372 . S
C491 C492 1.400 . S
C491 C496 1.490 . S
C492 H482 0.930 . S
C492 C491 1.400 . S
C492 C495 1.386 . S
H493 C509 0.930 . S
H494 C510 0.931 . S
C495 H483 0.929 . S
C495 C489 1.390 . S
C495 C492 1.386 . S
C496 C491 1.490 . S
C496 C498 1.395 . S
C496 C499 1.403 . S
H497 C503 0.930 . S
C498 H484 0.930 . S
C498 C496 1.395 . S
C498 C501 1.403 . S
C499 C496 1.403 . S
C499 C500 1.524 . S
C499 C503 1.400 . S
C500 H485 0.960 . S
C500 H486 0.960 . S
C500 H487 0.960 . S
C500 C499 1.524 . S
C501 C498 1.403 . S
C501 C502 1.392 . S
C501 C505 1.495 . S
C502 C501 1.392 . S
C502 C503 1.385 . S
C502 C504 1.478 . S
C503 H497 0.930 . S
C503 C499 1.400 . S
C503 C502 1.385 . S
C504 C502 1.478 . S
C504 C506 1.381 . S
C504 C510 1.383 . S
C505 C501 1.495 . S
C505 H511 0.959 . S
C505 H512 0.961 . S
C505 H513 0.960 . S
C506 C504 1.381 . S
C506 C507 1.394 . S
C506 H514 0.930 . S
C507 C506 1.394 . S
C507 C508 1.383 . S
C507 H515 0.929 . S
C508 C507 1.383 . S
C508 C509 1.377 . S
C509 H493 0.930 . S
C509 C508 1.377 . S
C509 C510 1.379 . S
C510 H494 0.931 . S
C510 C504 1.383 . S
C510 C509 1.379 . S
H511 C505 0.959 . S
H512 C505 0.961 . S
H513 C505 0.960 . S
H514 C506 0.930 . S
H515 C507 0.929 . S
H516 C524 0.929 . S
H517 C526 0.930 . S
H518 C528 0.930 . S
H519 C531 0.929 . S
H520 C534 0.930 . S
H521 C536 0.960 . S
H522 C536 0.960 . S
H523 C536 0.960 . S
C524 H516 0.929 . S
C524 C525 1.377 . S
C524 C526 1.384 . S
C525 C524 1.377 . S
C525 C531 1.390 . S
C526 H517 0.930 . S
C526 C524 1.384 . S
C526 C527 1.372 . S
C527 C526 1.372 . S
C527 C528 1.400 . S
C527 C532 1.490 . S
C528 H518 0.930 . S
C528 C527 1.400 . S
C528 C531 1.386 . S
H529 C545 0.930 . S
H530 C546 0.931 . S
C531 H519 0.929 . S
C531 C525 1.390 . S
C531 C528 1.386 . S
C532 C527 1.490 . S
C532 C534 1.395 . S
C532 C535 1.403 . S
H533 C539 0.930 . S
C534 H520 0.930 . S
C534 C532 1.395 . S
C534 C537 1.403 . S
C535 C532 1.403 . S
C535 C536 1.524 . S
C535 C539 1.400 . S
C536 H521 0.960 . S
C536 H522 0.960 . S
C536 H523 0.960 . S
C536 C535 1.524 . S
C537 C534 1.403 . S
C537 C538 1.392 . S
C537 C541 1.495 . S
C538 C537 1.392 . S
C538 C539 1.385 . S
C538 C540 1.478 . S
C539 H533 0.930 . S
C539 C535 1.400 . S
C539 C538 1.385 . S
C540 C538 1.478 . S
C540 C542 1.381 . S
C540 C546 1.383 . S
C541 C537 1.495 . S
C541 H547 0.959 . S
C541 H548 0.961 . S
C541 H549 0.960 . S
C542 C540 1.381 . S
C542 C543 1.394 . S
C542 H550 0.930 . S
C543 C542 1.394 . S
C543 C544 1.383 . S
C543 H551 0.929 . S
C544 C543 1.383 . S
C544 C545 1.377 . S
C545 H529 0.930 . S
C545 C544 1.377 . S
C545 C546 1.379 . S
C546 H530 0.931 . S
C546 C540 1.383 . S
C546 C545 1.379 . S
H547 C541 0.959 . S
H548 C541 0.961 . S
H549 C541 0.960 . S
H550 C542 0.930 . S
H551 C543 0.929 . S
H552 C560 0.929 . S
H553 C562 0.930 . S
H554 C564 0.930 . S
H555 C567 0.929 . S
H556 C570 0.930 . S
H557 C572 0.960 . S
H558 C572 0.960 . S
H559 C572 0.960 . S
C560 H552 0.929 . S
C560 C561 1.377 . S
C560 C562 1.384 . S
C561 C560 1.377 . S
C561 C567 1.390 . S
C562 H553 0.930 . S
C562 C560 1.384 . S
C562 C563 1.372 . S
C563 C562 1.372 . S
C563 C564 1.400 . S
C563 C568 1.490 . S
C564 H554 0.930 . S
C564 C563 1.400 . S
C564 C567 1.386 . S
H565 C581 0.930 . S
H566 C582 0.931 . S
C567 H555 0.929 . S
C567 C561 1.390 . S
C567 C564 1.386 . S
C568 C563 1.490 . S
C568 C570 1.395 . S
C568 C571 1.403 . S
H569 C575 0.930 . S
C570 H556 0.930 . S
C570 C568 1.395 . S
C570 C573 1.403 . S
C571 C568 1.403 . S
C571 C572 1.524 . S
C571 C575 1.400 . S
C572 H557 0.960 . S
C572 H558 0.960 . S
C572 H559 0.960 . S
C572 C571 1.524 . S
C573 C570 1.403 . S
C573 C574 1.392 . S
C573 C577 1.495 . S
C574 C573 1.392 . S
C574 C575 1.385 . S
C574 C576 1.478 . S
C575 H569 0.930 . S
C575 C571 1.400 . S
C575 C574 1.385 . S
C576 C574 1.478 . S
C576 C578 1.381 . S
C576 C582 1.383 . S
C577 C573 1.495 . S
C577 H583 0.959 . S
C577 H584 0.961 . S
C577 H585 0.960 . S
C578 C576 1.381 . S
C578 C579 1.394 . S
C578 H586 0.930 . S
C579 C578 1.394 . S
C579 C580 1.383 . S
C579 H587 0.929 . S
C580 C579 1.383 . S
C580 C581 1.377 . S
C581 H565 0.930 . S
C581 C580 1.377 . S
C581 C582 1.379 . S
C582 H566 0.931 . S
C582 C576 1.383 . S
C582 C581 1.379 . S
H583 C577 0.959 . S
H584 C577 0.961 . S
H585 C577 0.960 . S
H586 C578 0.930 . S
H587 C579 0.929 . S
H588 C596 0.929 . S
H589 C598 0.930 . S
H590 C600 0.930 . S
H591 C603 0.929 . S
H592 C606 0.930 . S
H593 C608 0.960 . S
H594 C608 0.960 . S
H595 C608 0.960 . S
C596 H588 0.929 . S
C596 C597 1.377 . S
C596 C598 1.384 . S
C597 C596 1.377 . S
C597 C603 1.390 . S
C598 H589 0.930 . S
C598 C596 1.384 . S
C598 C599 1.372 . S
C599 C598 1.372 . S
C599 C600 1.400 . S
C599 C604 1.490 . S
C600 H590 0.930 . S
C600 C599 1.400 . S
C600 C603 1.386 . S
H601 C617 0.930 . S
H602 C618 0.931 . S
C603 H591 0.929 . S
C603 C597 1.390 . S
C603 C600 1.386 . S
C604 C599 1.490 . S
C604 C606 1.395 . S
C604 C607 1.403 . S
H605 C611 0.930 . S
C606 H592 0.930 . S
C606 C604 1.395 . S
C606 C609 1.403 . S
C607 C604 1.403 . S
C607 C608 1.524 . S
C607 C611 1.400 . S
C608 H593 0.960 . S
C608 H594 0.960 . S
C608 H595 0.960 . S
C608 C607 1.524 . S
C609 C606 1.403 . S
C609 C610 1.392 . S
C609 C613 1.495 . S
C610 C609 1.392 . S
C610 C611 1.385 . S
C610 C612 1.478 . S
C611 H605 0.930 . S
C611 C607 1.400 . S
C611 C610 1.385 . S
C612 C610 1.478 . S
C612 C614 1.381 . S
C612 C618 1.383 . S
C613 C609 1.495 . S
C613 H619 0.959 . S
C613 H620 0.961 . S
C613 H621 0.960 . S
C614 C612 1.381 . S
C614 C615 1.394 . S
C614 H622 0.930 . S
C615 C614 1.394 . S
C615 C616 1.383 . S
C615 H623 0.929 . S
C616 C615 1.383 . S
C616 C617 1.377 . S
C617 H601 0.930 . S
C617 C616 1.377 . S
C617 C618 1.379 . S
C618 H602 0.931 . S
C618 C612 1.383 . S
C618 C617 1.379 . S
H619 C613 0.959 . S
H620 C613 0.961 . S
H621 C613 0.960 . S
H622 C614 0.930 . S
H623 C615 0.929 . S
H624 C632 0.929 . S
H625 C634 0.930 . S
H626 C636 0.930 . S
H627 C639 0.929 . S
H628 C642 0.930 . S
H629 C644 0.960 . S
H630 C644 0.960 . S
H631 C644 0.960 . S
C632 H624 0.929 . S
C632 C633 1.377 . S
C632 C634 1.384 . S
C633 C632 1.377 . S
C633 C639 1.390 . S
C634 H625 0.930 . S
C634 C632 1.384 . S
C634 C635 1.372 . S
C635 C634 1.372 . S
C635 C636 1.400 . S
C635 C640 1.490 . S
C636 H626 0.930 . S
C636 C635 1.400 . S
C636 C639 1.386 . S
H637 C653 0.930 . S
H638 C654 0.931 . S
C639 H627 0.929 . S
C639 C633 1.390 . S
C639 C636 1.386 . S
C640 C635 1.490 . S
C640 C642 1.395 . S
C640 C643 1.403 . S
H641 C647 0.930 . S
C642 H628 0.930 . S
C642 C640 1.395 . S
C642 C645 1.403 . S
C643 C640 1.403 . S
C643 C644 1.524 . S
C643 C647 1.400 . S
C644 H629 0.960 . S
C644 H630 0.960 . S
C644 H631 0.960 . S
C644 C643 1.524 . S
C645 C642 1.403 . S
C645 C646 1.392 . S
C645 C649 1.495 . S
C646 C645 1.392 . S
C646 C647 1.385 . S
C646 C648 1.478 . S
C647 H641 0.930 . S
C647 C643 1.400 . S
C647 C646 1.385 . S
C648 C646 1.478 . S
C648 C650 1.381 . S
C648 C654 1.383 . S
C649 C645 1.495 . S
C649 H655 0.959 . S
C649 H656 0.961 . S
C649 H657 0.960 . S
C650 C648 1.381 . S
C650 C651 1.394 . S
C650 H658 0.930 . S
C651 C650 1.394 . S
C651 C652 1.383 . S
C651 H659 0.929 . S
C652 C651 1.383 . S
C652 C653 1.377 . S
C653 H637 0.930 . S
C653 C652 1.377 . S
C653 C654 1.379 . S
C654 H638 0.931 . S
C654 C648 1.383 . S
C654 C653 1.379 . S
H655 C649 0.959 . S
H656 C649 0.961 . S
H657 C649 0.960 . S
H658 C650 0.930 . S
H659 C651 0.929 . S
H660 C668 0.929 . S
H661 C670 0.930 . S
H662 C672 0.930 . S
H663 C675 0.929 . S
H664 C678 0.930 . S
H665 C680 0.960 . S
H666 C680 0.960 . S
H667 C680 0.960 . S
C668 H660 0.929 . S
C668 C669 1.377 . S
C668 C670 1.384 . S
C669 C668 1.377 . S
C669 C675 1.390 . S
C670 H661 0.930 . S
C670 C668 1.384 . S
C670 C671 1.372 . S
C671 C670 1.372 . S
C671 C672 1.400 . S
C671 C676 1.490 . S
C672 H662 0.930 . S
C672 C671 1.400 . S
C672 C675 1.386 . S
H673 C689 0.930 . S
H674 C690 0.931 . S
C675 H663 0.929 . S
C675 C669 1.390 . S
C675 C672 1.386 . S
C676 C671 1.490 . S
C676 C678 1.395 . S
C676 C679 1.403 . S
H677 C683 0.930 . S
C678 H664 0.930 . S
C678 C676 1.395 . S
C678 C681 1.403 . S
C679 C676 1.403 . S
C679 C680 1.524 . S
C679 C683 1.400 . S
C680 H665 0.960 . S
C680 H666 0.960 . S
C680 H667 0.960 . S
C680 C679 1.524 . S
C681 C678 1.403 . S
C681 C682 1.392 . S
C681 C685 1.495 . S
C682 C681 1.392 . S
C682 C683 1.385 . S
C682 C684 1.478 . S
C683 H677 0.930 . S
C683 C679 1.400 . S
C683 C682 1.385 . S
C684 C682 1.478 . S
C684 C686 1.381 . S
C684 C690 1.383 . S
C685 C681 1.495 . S
C685 H691 0.959 . S
C685 H692 0.961 . S
C685 H693 0.960 . S
C686 C684 1.381 . S
C686 C687 1.394 . S
C686 H694 0.930 . S
C687 C686 1.394 . S
C687 C688 1.383 . S
C687 H695 0.929 . S
C688 C687 1.383 . S
C688 C689 1.377 . S
C689 H673 0.930 . S
C689 C688 1.377 . S
C689 C690 1.379 . S
C690 H674 0.931 . S
C690 C684 1.383 . S
C690 C689 1.379 . S
H691 C685 0.959 . S
H692 C685 0.961 . S
H693 C685 0.960 . S
H694 C686 0.930 . S
H695 C687 0.929 . S
H696 C704 0.929 . S
H697 C706 0.930 . S
H698 C708 0.930 . S
H699 C711 0.929 . S
H700 C714 0.930 . S
H701 C716 0.960 . S
H702 C716 0.960 . S
H703 C716 0.960 . S
C704 H696 0.929 . S
C704 C705 1.377 . S
C704 C706 1.384 . S
C705 C704 1.377 . S
C705 C711 1.390 . S
C706 H697 0.930 . S
C706 C704 1.384 . S
C706 C707 1.372 . S
C707 C706 1.372 . S
C707 C708 1.400 . S
C707 C712 1.490 . S
C708 H698 0.930 . S
C708 C707 1.400 . S
C708 C711 1.386 . S
H709 C725 0.930 . S
H710 C726 0.931 . S
C711 H699 0.929 . S
C711 C705 1.390 . S
C711 C708 1.386 . S
C712 C707 1.490 . S
C712 C714 1.395 . S
C712 C715 1.403 . S
H713 C719 0.930 . S
C714 H700 0.930 . S
C714 C712 1.395 . S
C714 C717 1.403 . S
C715 C712 1.403 . S
C715 C716 1.524 . S
C715 C719 1.400 . S
C716 H701 0.960 . S
C716 H702 0.960 . S
C716 H703 0.960 . S
C716 C715 1.524 . S
C717 C714 1.403 . S
C717 C718 1.392 . S
C717 C721 1.495 . S
C718 C717 1.392 . S
C718 C719 1.385 . S
C718 C720 1.478 . S
C719 H713 0.930 . S
C719 C715 1.400 . S
C719 C718 1.385 . S
C720 C718 1.478 . S
C720 C722 1.381 . S
C720 C726 1.383 . S
C721 C717 1.495 . S
C721 H727 0.959 . S
C721 H728 0.961 . S
C721 H729 0.960 . S
C722 C720 1.381 . S
C722 C723 1.394 . S
C722 H730 0.930 . S
C723 C722 1.394 . S
C723 C724 1.383 . S
C723 H731 0.875 1_556 S
C724 C723 1.383 . S
C724 C725 1.377 . S
C725 H709 0.930 . S
C725 C724 1.377 . S
C725 C726 1.379 . S
C726 H710 0.931 . S
C726 C720 1.383 . S
C726 C725 1.379 . S
H727 C721 0.959 . S
H728 C721 0.961 . S
H729 C721 0.960 . S
H730 C722 0.930 . S
H731 C723 0.875 1_554 S
H732 C740 0.929 . S
H733 C742 0.930 . S
H734 C744 0.930 . S
H735 C747 0.929 . S
H736 C750 0.930 . S
H737 C752 0.960 . S
H738 C752 0.960 . S
H739 C752 0.960 . S
C740 H732 0.929 . S
C740 C741 1.377 . S
C740 C742 1.384 . S
C741 C740 1.377 . S
C741 C747 1.390 . S
C742 H733 0.930 . S
C742 C740 1.384 . S
C742 C743 1.372 . S
C743 C742 1.372 . S
C743 C744 1.400 . S
C743 C748 1.490 . S
C744 H734 0.930 . S
C744 C743 1.400 . S
C744 C747 1.386 . S
H745 C761 0.930 . S
H746 C762 0.931 . S
C747 H735 0.929 . S
C747 C741 1.390 . S
C747 C744 1.386 . S
C748 C743 1.490 . S
C748 C750 1.395 . S
C748 C751 1.403 . S
H749 C755 0.930 . S
C750 H736 0.930 . S
C750 C748 1.395 . S
C750 C753 1.403 . S
C751 C748 1.403 . S
C751 C752 1.524 . S
C751 C755 1.400 . S
C752 H737 0.960 . S
C752 H738 0.960 . S
C752 H739 0.960 . S
C752 C751 1.524 . S
C753 C750 1.403 . S
C753 C754 1.392 . S
C753 C757 1.495 . S
C754 C753 1.392 . S
C754 C755 1.385 . S
C754 C756 1.478 . S
C755 H749 0.930 . S
C755 C751 1.400 . S
C755 C754 1.385 . S
C756 C754 1.478 . S
C756 C758 1.381 . S
C756 C762 1.383 . S
C757 C753 1.495 . S
C757 H763 0.959 . S
C757 H764 0.961 . S
C757 H765 0.960 . S
C758 C756 1.381 . S
C758 C759 1.394 . S
C758 H766 0.930 . S
C759 C758 1.394 . S
C759 C760 1.383 . S
C759 H767 0.929 . S
C760 C759 1.383 . S
C760 C761 1.377 . S
C761 H745 0.930 . S
C761 C760 1.377 . S
C761 C762 1.379 . S
C762 H746 0.931 . S
C762 C756 1.383 . S
C762 C761 1.379 . S
H763 C757 0.959 . S
H764 C757 0.961 . S
H765 C757 0.960 . S
H766 C758 0.930 . S
H767 C759 0.929 . S
H768 C776 0.929 . S
H769 C778 0.930 . S
H770 C780 0.930 . S
H771 C783 0.929 . S
H772 C786 0.930 . S
H773 C788 0.960 . S
H774 C788 0.960 . S
H775 C788 0.960 . S
C776 H768 0.929 . S
C776 C777 1.377 . S
C776 C778 1.384 . S
C777 C776 1.377 . S
C777 C783 1.390 . S
C778 H769 0.930 . S
C778 C776 1.384 . S
C778 C779 1.372 . S
C779 C778 1.372 . S
C779 C780 1.400 . S
C779 C784 1.490 . S
C780 H770 0.930 . S
C780 C779 1.400 . S
C780 C783 1.386 . S
H781 C797 0.930 . S
H782 C798 0.931 . S
C783 H771 0.929 . S
C783 C777 1.390 . S
C783 C780 1.386 . S
C784 C779 1.490 . S
C784 C786 1.395 . S
C784 C787 1.403 . S
H785 C791 0.930 . S
C786 H772 0.930 . S
C786 C784 1.395 . S
C786 C789 1.403 . S
C787 C784 1.403 . S
C787 C788 1.524 . S
C787 C791 1.400 . S
C788 H773 0.960 . S
C788 H774 0.960 . S
C788 H775 0.960 . S
C788 C787 1.524 . S
C789 C786 1.403 . S
C789 C790 1.392 . S
C789 C793 1.495 . S
C790 C789 1.392 . S
C790 C791 1.385 . S
C790 C792 1.478 . S
C791 H785 0.930 . S
C791 C787 1.400 . S
C791 C790 1.385 . S
C792 C790 1.478 . S
C792 C794 1.381 . S
C792 C798 1.383 . S
C793 C789 1.495 . S
C793 H799 0.959 . S
C793 H800 0.961 . S
C793 H801 0.960 . S
C794 C792 1.381 . S
C794 C795 1.394 . S
C794 H802 0.930 . S
C795 C794 1.394 . S
C795 C796 1.383 . S
C795 H803 0.929 . S
C796 C795 1.383 . S
C796 C797 1.377 . S
C797 H781 0.930 . S
C797 C796 1.377 . S
C797 C798 1.379 . S
C798 H782 0.931 . S
C798 C792 1.383 . S
C798 C797 1.379 . S
H799 C793 0.959 . S
H800 C793 0.961 . S
H801 C793 0.960 . S
H802 C794 0.930 . S
H803 C795 0.929 . S
H804 C812 0.929 . S
H805 C814 0.930 . S
H806 C816 0.930 . S
H807 C819 0.929 . S
H808 C822 0.930 . S
H809 C824 0.960 . S
H810 C824 0.960 . S
H811 C824 0.960 . S
C812 H804 0.929 . S
C812 C813 1.377 . S
C812 C814 1.384 . S
C813 C812 1.377 . S
C813 C819 1.390 . S
C814 H805 0.930 . S
C814 C812 1.384 . S
C814 C815 1.372 . S
C815 C814 1.372 . S
C815 C816 1.400 . S
C815 C820 1.490 . S
C816 H806 0.930 . S
C816 C815 1.400 . S
C816 C819 1.386 . S
H817 C833 0.930 . S
H818 C834 0.931 . S
C819 H807 0.929 . S
C819 C813 1.390 . S
C819 C816 1.386 . S
C820 C815 1.490 . S
C820 C822 1.395 . S
C820 C823 1.403 . S
H821 C827 0.930 . S
C822 H808 0.930 . S
C822 C820 1.395 . S
C822 C825 1.403 . S
C823 C820 1.403 . S
C823 C824 1.524 . S
C823 C827 1.400 . S
C824 H809 0.960 . S
C824 H810 0.960 . S
C824 H811 0.960 . S
C824 C823 1.524 . S
C825 C822 1.403 . S
C825 C826 1.392 . S
C825 C829 1.495 . S
C826 C825 1.392 . S
C826 C827 1.385 . S
C826 C828 1.478 . S
C827 H821 0.930 . S
C827 C823 1.400 . S
C827 C826 1.385 . S
C828 C826 1.478 . S
C828 C830 1.381 . S
C828 C834 1.383 . S
C829 C825 1.495 . S
C829 H835 0.959 . S
C829 H836 0.961 . S
C829 H837 0.960 . S
C830 C828 1.381 . S
C830 C831 1.394 . S
C830 H838 0.930 . S
C831 C830 1.394 . S
C831 C832 1.383 . S
C831 H839 0.929 . S
C832 C831 1.383 . S
C832 C833 1.377 . S
C833 H817 0.930 . S
C833 C832 1.377 . S
C833 C834 1.379 . S
C834 H818 0.931 . S
C834 C828 1.383 . S
C834 C833 1.379 . S
H835 C829 0.959 . S
H836 C829 0.961 . S
H837 C829 0.960 . S
H838 C830 0.930 . S
H839 C831 0.929 . S
H840 C848 0.929 . S
H841 C850 0.930 . S
H842 C852 0.930 . S
H843 C855 0.929 . S
H844 C858 0.930 . S
H845 C860 0.960 . S
H846 C860 0.960 . S
H847 C860 0.960 . S
C848 H840 0.929 . S
C848 C849 1.377 . S
C848 C850 1.384 . S
C849 C848 1.377 . S
C849 C855 1.390 . S
C850 H841 0.930 . S
C850 C848 1.384 . S
C850 C851 1.372 . S
C851 C850 1.372 . S
C851 C852 1.400 . S
C851 C856 1.490 . S
C852 H842 0.930 . S
C852 C851 1.400 . S
C852 C855 1.386 . S
H853 C869 0.930 . S
H854 C870 0.931 . S
C855 H843 0.929 . S
C855 C849 1.390 . S
C855 C852 1.386 . S
C856 C851 1.490 . S
C856 C858 1.395 . S
C856 C859 1.403 . S
H857 C863 0.930 . S
C858 H844 0.930 . S
C858 C856 1.395 . S
C858 C861 1.403 . S
C859 C856 1.403 . S
C859 C860 1.524 . S
C859 C863 1.400 . S
C860 H845 0.960 . S
C860 H846 0.960 . S
C860 H847 0.960 . S
C860 C859 1.524 . S
C861 C858 1.403 . S
C861 C862 1.392 . S
C861 C865 1.495 . S
C862 C861 1.392 . S
C862 C863 1.385 . S
C862 C864 1.478 . S
C863 H857 0.930 . S
C863 C859 1.400 . S
C863 C862 1.385 . S
C864 C862 1.478 . S
C864 C866 1.381 . S
C864 C870 1.383 . S
C865 C861 1.495 . S
C865 H871 0.959 . S
C865 H872 0.961 . S
C865 H873 0.960 . S
C866 C864 1.381 . S
C866 C867 1.394 . S
C866 H874 0.930 . S
C867 C866 1.394 . S
C867 C868 1.383 . S
C867 H875 0.929 . S
C868 C867 1.383 . S
C868 C869 1.377 . S
C869 H853 0.930 . S
C869 C868 1.377 . S
C869 C870 1.379 . S
C870 H854 0.931 . S
C870 C864 1.383 . S
C870 C869 1.379 . S
H871 C865 0.959 . S
H872 C865 0.961 . S
H873 C865 0.960 . S
H874 C866 0.930 . S
H875 C867 0.929 . S
H876 C884 0.929 . S
H877 C886 0.930 . S
H878 C888 0.930 . S
H879 C891 0.929 . S
H880 C894 0.930 . S
H881 C896 0.960 . S
H882 C896 0.960 . S
H883 C896 0.960 . S
C884 H876 0.929 . S
C884 C885 1.377 . S
C884 C886 1.384 . S
C885 C884 1.377 . S
C885 C891 1.390 . S
C886 H877 0.930 . S
C886 C884 1.384 . S
C886 C887 1.372 . S
C887 C886 1.372 . S
C887 C888 1.400 . S
C887 C892 1.490 . S
C888 H878 0.930 . S
C888 C887 1.400 . S
C888 C891 1.386 . S
H889 C905 0.930 . S
H890 C906 0.931 . S
C891 H879 0.929 . S
C891 C885 1.390 . S
C891 C888 1.386 . S
C892 C887 1.490 . S
C892 C894 1.395 . S
C892 C895 1.403 . S
H893 C899 0.930 . S
C894 H880 0.930 . S
C894 C892 1.395 . S
C894 C897 1.403 . S
C895 C892 1.403 . S
C895 C896 1.524 . S
C895 C899 1.400 . S
C896 H881 0.960 . S
C896 H882 0.960 . S
C896 H883 0.960 . S
C896 C895 1.524 . S
C897 C894 1.403 . S
C897 C898 1.392 . S
C897 C901 1.495 . S
C898 C897 1.392 . S
C898 C899 1.385 . S
C898 C900 1.478 . S
C899 H893 0.930 . S
C899 C895 1.400 . S
C899 C898 1.385 . S
C900 C898 1.478 . S
C900 C902 1.381 . S
C900 C906 1.383 . S
C901 C897 1.495 . S
C901 H907 0.959 . S
C901 H908 0.961 . S
C901 H909 0.960 . S
C902 C900 1.381 . S
C902 C903 1.394 . S
C902 H910 0.930 . S
C903 C902 1.394 . S
C903 C904 1.383 . S
C903 H911 0.929 . S
C904 C903 1.383 . S
C904 C905 1.377 . S
C905 H889 0.930 . S
C905 C904 1.377 . S
C905 C906 1.379 . S
C906 H890 0.931 . S
C906 C900 1.383 . S
C906 C905 1.379 . S
H907 C901 0.959 . S
H908 C901 0.961 . S
H909 C901 0.960 . S
H910 C902 0.930 . S
H911 C903 0.929 . S
H912 C920 0.929 . S
H913 C922 0.930 . S
H914 C924 0.930 . S
H915 C927 0.929 . S
H916 C930 0.930 . S
H917 C932 0.960 . S
H918 C932 0.960 . S
H919 C932 0.960 . S
C920 H912 0.929 . S
C920 C921 1.377 . S
C920 C922 1.384 . S
C921 C920 1.377 . S
C921 C927 1.390 . S
C922 H913 0.930 . S
C922 C920 1.384 . S
C922 C923 1.372 . S
C923 C922 1.372 . S
C923 C924 1.400 . S
C923 C928 1.490 . S
C924 H914 0.930 . S
C924 C923 1.400 . S
C924 C927 1.386 . S
H925 C941 0.930 . S
H926 C942 0.931 . S
C927 H915 0.929 . S
C927 C921 1.390 . S
C927 C924 1.386 . S
C928 C923 1.490 . S
C928 C930 1.395 . S
C928 C931 1.403 . S
H929 C935 0.930 . S
C930 H916 0.930 . S
C930 C928 1.395 . S
C930 C933 1.403 . S
C931 C928 1.403 . S
C931 C932 1.524 . S
C931 C935 1.400 . S
C932 H917 0.960 . S
C932 H918 0.960 . S
C932 H919 0.960 . S
C932 C931 1.524 . S
C933 C930 1.403 . S
C933 C934 1.392 . S
C933 C937 1.495 . S
C934 C933 1.392 . S
C934 C935 1.385 . S
C934 C936 1.478 . S
C935 H929 0.930 . S
C935 C931 1.400 . S
C935 C934 1.385 . S
C936 C934 1.478 . S
C936 C938 1.381 . S
C936 C942 1.383 . S
C937 C933 1.495 . S
C937 H943 0.959 . S
C937 H944 0.961 . S
C937 H945 0.960 . S
C938 C936 1.381 . S
C938 C939 1.394 . S
C938 H946 0.930 . S
C939 C938 1.394 . S
C939 C940 1.383 . S
C939 H947 0.929 . S
C940 C939 1.383 . S
C940 C941 1.377 . S
C941 H925 0.930 . S
C941 C940 1.377 . S
C941 C942 1.379 . S
C942 H926 0.931 . S
C942 C936 1.383 . S
C942 C941 1.379 . S
H943 C937 0.959 . S
H944 C937 0.961 . S
H945 C937 0.960 . S
H946 C938 0.930 . S
H947 C939 0.929 . S
H948 C956 0.929 . S
H949 C958 0.930 . S
H950 C960 0.930 . S
H951 C963 0.929 . S
H952 C966 0.930 . S
H953 C968 0.960 . S
H954 C968 0.960 . S
H955 C968 0.960 . S
C956 H948 0.929 . S
C956 C957 1.377 . S
C956 C958 1.384 . S
C957 C956 1.377 . S
C957 C963 1.390 . S
C958 H949 0.930 . S
C958 C956 1.384 . S
C958 C959 1.372 . S
C959 C958 1.372 . S
C959 C960 1.400 . S
C959 C964 1.490 . S
C960 H950 0.930 . S
C960 C959 1.400 . S
C960 C963 1.386 . S
H961 C977 0.930 . S
H962 C978 0.931 . S
C963 H951 0.929 . S
C963 C957 1.390 . S
C963 C960 1.386 . S
C964 C959 1.490 . S
C964 C966 1.395 . S
C964 C967 1.403 . S
H965 C971 0.930 . S
C966 H952 0.930 . S
C966 C964 1.395 . S
C966 C969 1.403 . S
C967 C964 1.403 . S
C967 C968 1.524 . S
C967 C971 1.400 . S
C968 H953 0.960 . S
C968 H954 0.960 . S
C968 H955 0.960 . S
C968 C967 1.524 . S
C969 C966 1.403 . S
C969 C970 1.392 . S
C969 C973 1.495 . S
C970 C969 1.392 . S
C970 C971 1.385 . S
C970 C972 1.478 . S
C971 H965 0.930 . S
C971 C967 1.400 . S
C971 C970 1.385 . S
C972 C970 1.478 . S
C972 C974 1.381 . S
C972 C978 1.383 . S
C973 C969 1.495 . S
C973 H979 0.959 . S
C973 H980 0.961 . S
C973 H981 0.960 . S
C974 C972 1.381 . S
C974 C975 1.394 . S
C974 H982 0.930 . S
C975 C974 1.394 . S
C975 C976 1.383 . S
C975 H983 0.929 . S
C976 C975 1.383 . S
C976 C977 1.377 . S
C977 H961 0.930 . S
C977 C976 1.377 . S
C977 C978 1.379 . S
C978 H962 0.931 . S
C978 C972 1.383 . S
C978 C977 1.379 . S
H979 C973 0.959 . S
H980 C973 0.961 . S
H981 C973 0.960 . S
H982 C974 0.930 . S
H983 C975 0.929 . S
H984 C992 0.929 . S
H985 C994 0.930 . S
H986 C996 0.930 . S
H987 C999 0.929 . S
H988 C1002 0.930 . S
H989 C1004 0.960 . S
H990 C1004 0.960 . S
H991 C1004 0.960 . S
C992 H984 0.929 . S
C992 C993 1.377 . S
C992 C994 1.384 . S
C993 C992 1.377 . S
C993 C999 1.390 . S
C994 H985 0.930 . S
C994 C992 1.384 . S
C994 C995 1.372 . S
C995 C994 1.372 . S
C995 C996 1.400 . S
C995 C1000 1.490 . S
C996 H986 0.930 . S
C996 C995 1.400 . S
C996 C999 1.386 . S
H997 C1013 0.930 . S
H998 C1014 0.931 . S
C999 H987 0.929 . S
C999 C993 1.390 . S
C999 C996 1.386 . S
C1000 C995 1.490 . S
C1000 C1002 1.395 . S
C1000 C1003 1.403 . S
H1001 C1007 0.930 . S
C1002 H988 0.930 . S
C1002 C1000 1.395 . S
C1002 C1005 1.403 . S
C1003 C1000 1.403 . S
C1003 C1004 1.524 . S
C1003 C1007 1.400 . S
C1004 H989 0.960 . S
C1004 H990 0.960 . S
C1004 H991 0.960 . S
C1004 C1003 1.524 . S
C1005 C1002 1.403 . S
C1005 C1006 1.392 . S
C1005 C1009 1.495 . S
C1006 C1005 1.392 . S
C1006 C1007 1.385 . S
C1006 C1008 1.478 . S
C1007 H1001 0.930 . S
C1007 C1003 1.400 . S
C1007 C1006 1.385 . S
C1008 C1006 1.478 . S
C1008 C1010 1.381 . S
C1008 C1014 1.383 . S
C1009 C1005 1.495 . S
C1009 H1015 0.959 . S
C1009 H1016 0.961 . S
C1009 H1017 0.960 . S
C1010 C1008 1.381 . S
C1010 C1011 1.394 . S
C1010 H1018 0.930 . S
C1011 C1010 1.394 . S
C1011 C1012 1.383 . S
C1011 H1019 0.929 . S
C1012 C1011 1.383 . S
C1012 C1013 1.377 . S
C1013 H997 0.930 . S
C1013 C1012 1.377 . S
C1013 C1014 1.379 . S
C1014 H998 0.931 . S
C1014 C1008 1.383 . S
C1014 C1013 1.379 . S
H1015 C1009 0.959 . S
H1016 C1009 0.961 . S
H1017 C1009 0.960 . S
H1018 C1010 0.930 . S
H1019 C1011 0.929 . S
H1020 C1028 0.929 . S
H1021 C1030 0.930 . S
H1022 C1032 0.930 . S
H1023 C1035 0.929 . S
H1024 C1038 0.930 . S
H1025 C1040 0.960 . S
H1026 C1040 0.960 . S
H1027 C1040 0.960 . S
C1028 H1020 0.929 . S
C1028 C1029 1.377 . S
C1028 C1030 1.384 . S
C1029 C1028 1.377 . S
C1029 C1035 1.390 . S
C1030 H1021 0.930 . S
C1030 C1028 1.384 . S
C1030 C1031 1.372 . S
C1031 C1030 1.372 . S
C1031 C1032 1.400 . S
C1031 C1036 1.490 . S
C1032 H1022 0.930 . S
C1032 C1031 1.400 . S
C1032 C1035 1.386 . S
H1033 C1049 0.930 . S
H1034 C1050 0.931 . S
C1035 H1023 0.929 . S
C1035 C1029 1.390 . S
C1035 C1032 1.386 . S
C1036 C1031 1.490 . S
C1036 C1038 1.395 . S
C1036 C1039 1.403 . S
H1037 C1043 0.930 . S
C1038 H1024 0.930 . S
C1038 C1036 1.395 . S
C1038 C1041 1.403 . S
C1039 C1036 1.403 . S
C1039 C1040 1.524 . S
C1039 C1043 1.400 . S
C1040 H1025 0.960 . S
C1040 H1026 0.960 . S
C1040 H1027 0.960 . S
C1040 C1039 1.524 . S
C1041 C1038 1.403 . S
C1041 C1042 1.392 . S
C1041 C1045 1.495 . S
C1042 C1041 1.392 . S
C1042 C1043 1.385 . S
C1042 C1044 1.478 . S
C1043 H1037 0.930 . S
C1043 C1039 1.400 . S
C1043 C1042 1.385 . S
C1044 C1042 1.478 . S
C1044 C1046 1.381 . S
C1044 C1050 1.383 . S
C1045 C1041 1.495 . S
C1045 H1051 0.959 . S
C1045 H1052 0.961 . S
C1045 H1053 0.960 . S
C1046 C1044 1.381 . S
C1046 C1047 1.394 . S
C1046 H1054 0.930 . S
C1047 C1046 1.394 . S
C1047 C1048 1.383 . S
C1047 H1055 0.929 . S
C1048 C1047 1.383 . S
C1048 C1049 1.377 . S
C1049 H1033 0.930 . S
C1049 C1048 1.377 . S
C1049 C1050 1.379 . S
C1050 H1034 0.931 . S
C1050 C1044 1.383 . S
C1050 C1049 1.379 . S
H1051 C1045 0.959 . S
H1052 C1045 0.961 . S
H1053 C1045 0.960 . S
H1054 C1046 0.930 . S
H1055 C1047 0.929 . S
H1056 C1064 0.929 . S
H1057 C1066 0.930 . S
H1058 C1068 0.930 . S
H1059 C1071 0.929 . S
H1060 C1074 0.930 . S
H1061 C1076 0.960 . S
H1062 C1076 0.960 . S
H1063 C1076 0.960 . S
C1064 H1056 0.929 . S
C1064 C1065 1.377 . S
C1064 C1066 1.384 . S
C1065 C1064 1.377 . S
C1065 C1071 1.390 . S
C1066 H1057 0.930 . S
C1066 C1064 1.384 . S
C1066 C1067 1.372 . S
C1067 C1066 1.372 . S
C1067 C1068 1.400 . S
C1067 C1072 1.490 . S
C1068 H1058 0.930 . S
C1068 C1067 1.400 . S
C1068 C1071 1.386 . S
H1069 C1085 0.930 . S
H1070 C1086 0.931 . S
C1071 H1059 0.929 . S
C1071 C1065 1.390 . S
C1071 C1068 1.386 . S
C1072 C1067 1.490 . S
C1072 C1074 1.395 . S
C1072 C1075 1.403 . S
H1073 C1079 0.930 . S
C1074 H1060 0.930 . S
C1074 C1072 1.395 . S
C1074 C1077 1.403 . S
C1075 C1072 1.403 . S
C1075 C1076 1.524 . S
C1075 C1079 1.400 . S
C1076 H1061 0.960 . S
C1076 H1062 0.960 . S
C1076 H1063 0.960 . S
C1076 C1075 1.524 . S
C1077 C1074 1.403 . S
C1077 C1078 1.392 . S
C1077 C1081 1.495 . S
C1078 C1077 1.392 . S
C1078 C1079 1.385 . S
C1078 C1080 1.478 . S
C1079 H1073 0.930 . S
C1079 C1075 1.400 . S
C1079 C1078 1.385 . S
C1080 C1078 1.478 . S
C1080 C1082 1.381 . S
C1080 C1086 1.383 . S
C1081 C1077 1.495 . S
C1081 H1087 0.959 . S
C1081 H1088 0.961 . S
C1081 H1089 0.960 . S
C1082 C1080 1.381 . S
C1082 C1083 1.394 . S
C1082 H1090 0.930 . S
C1083 C1082 1.394 . S
C1083 C1084 1.383 . S
C1083 H1091 0.929 . S
C1084 C1083 1.383 . S
C1084 C1085 1.377 . S
C1085 H1069 0.930 . S
C1085 C1084 1.377 . S
C1085 C1086 1.379 . S
C1086 H1070 0.931 . S
C1086 C1080 1.383 . S
C1086 C1085 1.379 . S
H1087 C1081 0.959 . S
H1088 C1081 0.961 . S
H1089 C1081 0.960 . S
H1090 C1082 0.930 . S
H1091 C1083 0.929 . S
H1092 C1100 0.929 . S
H1093 C1102 0.930 . S
H1094 C1104 0.930 . S
H1095 C1107 0.929 . S
H1096 C1110 0.930 . S
H1097 C1112 0.960 . S
H1098 C1112 0.960 . S
H1099 C1112 0.960 . S
C1100 H1092 0.929 . S
C1100 C1101 1.377 . S
C1100 C1102 1.384 . S
C1101 C1100 1.377 . S
C1101 C1107 1.390 . S
C1102 H1093 0.930 . S
C1102 C1100 1.384 . S
C1102 C1103 1.372 . S
C1103 C1102 1.372 . S
C1103 C1104 1.400 . S
C1103 C1108 1.490 . S
C1104 H1094 0.930 . S
C1104 C1103 1.400 . S
C1104 C1107 1.386 . S
H1105 C1121 0.930 . S
H1106 C1122 0.931 . S
C1107 H1095 0.929 . S
C1107 C1101 1.390 . S
C1107 C1104 1.386 . S
C1108 C1103 1.490 . S
C1108 C1110 1.395 . S
C1108 C1111 1.403 . S
H1109 C1115 0.930 . S
C1110 H1096 0.930 . S
C1110 C1108 1.395 . S
C1110 C1113 1.403 . S
C1111 C1108 1.403 . S
C1111 C1112 1.524 . S
C1111 C1115 1.400 . S
C1112 H1097 0.960 . S
C1112 H1098 0.960 . S
C1112 H1099 0.960 . S
C1112 C1111 1.524 . S
C1113 C1110 1.403 . S
C1113 C1114 1.392 . S
C1113 C1117 1.495 . S
C1114 C1113 1.392 . S
C1114 C1115 1.385 . S
C1114 C1116 1.478 . S
C1115 H1109 0.930 . S
C1115 C1111 1.400 . S
C1115 C1114 1.385 . S
C1116 C1114 1.478 . S
C1116 C1118 1.381 . S
C1116 C1122 1.383 . S
C1117 C1113 1.495 . S
C1117 H1123 0.959 . S
C1117 H1124 0.961 . S
C1117 H1125 0.960 . S
C1118 C1116 1.381 . S
C1118 C1119 1.394 . S
C1118 H1126 0.930 . S
C1119 C1118 1.394 . S
C1119 C1120 1.383 . S
C1119 H1127 0.929 . S
C1120 C1119 1.383 . S
C1120 C1121 1.377 . S
C1121 H1105 0.930 . S
C1121 C1120 1.377 . S
C1121 C1122 1.379 . S
C1122 H1106 0.931 . S
C1122 C1116 1.383 . S
C1122 C1121 1.379 . S
H1123 C1117 0.959 . S
H1124 C1117 0.961 . S
H1125 C1117 0.960 . S
H1126 C1118 0.930 . S
H1127 C1119 0.929 . S
H1128 C1136 0.929 . S
H1129 C1138 0.930 . S
H1130 C1140 0.930 . S
H1131 C1143 0.929 . S
H1132 C1146 0.930 . S
H1133 C1148 0.960 . S
H1134 C1148 0.960 . S
H1135 C1148 0.960 . S
C1136 H1128 0.929 . S
C1136 C1137 1.377 . S
C1136 C1138 1.384 . S
C1137 C1136 1.377 . S
C1137 C1143 1.390 . S
C1138 H1129 0.930 . S
C1138 C1136 1.384 . S
C1138 C1139 1.372 . S
C1139 C1138 1.372 . S
C1139 C1140 1.400 . S
C1139 C1144 1.490 . S
C1140 H1130 0.930 . S
C1140 C1139 1.400 . S
C1140 C1143 1.386 . S
H1141 C1157 0.930 . S
H1142 C1158 0.931 . S
C1143 H1131 0.929 . S
C1143 C1137 1.390 . S
C1143 C1140 1.386 . S
C1144 C1139 1.490 . S
C1144 C1146 1.395 . S
C1144 C1147 1.403 . S
H1145 C1151 0.930 . S
C1146 H1132 0.930 . S
C1146 C1144 1.395 . S
C1146 C1149 1.403 . S
C1147 C1144 1.403 . S
C1147 C1148 1.524 . S
C1147 C1151 1.400 . S
C1148 H1133 0.960 . S
C1148 H1134 0.960 . S
C1148 H1135 0.960 . S
C1148 C1147 1.524 . S
C1149 C1146 1.403 . S
C1149 C1150 1.392 . S
C1149 C1153 1.495 . S
C1150 C1149 1.392 . S
C1150 C1151 1.385 . S
C1150 C1152 1.478 . S
C1151 H1145 0.930 . S
C1151 C1147 1.400 . S
C1151 C1150 1.385 . S
C1152 C1150 1.478 . S
C1152 C1154 1.381 . S
C1152 C1158 1.383 . S
C1153 C1149 1.495 . S
C1153 H1159 0.959 . S
C1153 H1160 0.961 . S
C1153 H1161 0.960 . S
C1154 C1152 1.381 . S
C1154 C1155 1.394 . S
C1154 H1162 0.930 . S
C1155 C1154 1.394 . S
C1155 C1156 1.383 . S
C1155 H1163 0.929 . S
C1156 C1155 1.383 . S
C1156 C1157 1.377 . S
C1157 H1141 0.930 . S
C1157 C1156 1.377 . S
C1157 C1158 1.379 . S
C1158 H1142 0.931 . S
C1158 C1152 1.383 . S
C1158 C1157 1.379 . S
H1159 C1153 0.959 . S
H1160 C1153 0.961 . S
H1161 C1153 0.960 . S
H1162 C1154 0.930 . S
H1163 C1155 0.929 . S
H1164 C1172 0.929 . S
H1165 C1174 0.930 . S
H1166 C1176 0.930 . S
H1167 C1179 0.929 . S
H1168 C1182 0.930 . S
H1169 C1184 0.960 . S
H1170 C1184 0.960 . S
H1171 C1184 0.960 . S
C1172 H1164 0.929 . S
C1172 C1173 1.377 . S
C1172 C1174 1.384 . S
C1173 C1172 1.377 . S
C1173 C1179 1.390 . S
C1174 H1165 0.930 . S
C1174 C1172 1.384 . S
C1174 C1175 1.372 . S
C1175 C1174 1.372 . S
C1175 C1176 1.400 . S
C1175 C1180 1.490 . S
C1176 H1166 0.930 . S
C1176 C1175 1.400 . S
C1176 C1179 1.386 . S
H1177 C1193 0.930 . S
H1178 C1194 0.931 . S
C1179 H1167 0.929 . S
C1179 C1173 1.390 . S
C1179 C1176 1.386 . S
C1180 C1175 1.490 . S
C1180 C1182 1.395 . S
C1180 C1183 1.403 . S
H1181 C1187 0.930 . S
C1182 H1168 0.930 . S
C1182 C1180 1.395 . S
C1182 C1185 1.403 . S
C1183 C1180 1.403 . S
C1183 C1184 1.524 . S
C1183 C1187 1.400 . S
C1184 H1169 0.960 . S
C1184 H1170 0.960 . S
C1184 H1171 0.960 . S
C1184 C1183 1.524 . S
C1185 C1182 1.403 . S
C1185 C1186 1.392 . S
C1185 C1189 1.495 . S
C1186 C1185 1.392 . S
C1186 C1187 1.385 . S
C1186 C1188 1.478 . S
C1187 H1181 0.930 . S
C1187 C1183 1.400 . S
C1187 C1186 1.385 . S
C1188 C1186 1.478 . S
C1188 C1190 1.381 . S
C1188 C1194 1.383 . S
C1189 C1185 1.495 . S
C1189 H1195 0.959 . S
C1189 H1196 0.961 . S
C1189 H1197 0.960 . S
C1190 C1188 1.381 . S
C1190 C1191 1.394 . S
C1190 H1198 0.930 . S
C1191 C1190 1.394 . S
C1191 C1192 1.383 . S
C1191 H1199 0.929 . S
C1192 C1191 1.383 . S
C1192 C1193 1.377 . S
C1193 H1177 0.930 . S
C1193 C1192 1.377 . S
C1193 C1194 1.379 . S
C1194 H1178 0.931 . S
C1194 C1188 1.383 . S
C1194 C1193 1.379 . S
H1195 C1189 0.959 . S
H1196 C1189 0.961 . S
H1197 C1189 0.960 . S
H1198 C1190 0.930 . S
H1199 C1191 0.929 . S
H1200 C1208 0.929 . S
H1201 C1210 0.930 . S
H1202 C1212 0.930 . S
H1203 C1215 0.929 . S
H1204 C1218 0.930 . S
H1205 C1220 0.960 . S
H1206 C1220 0.960 . S
H1207 C1220 0.960 . S
C1208 H1200 0.929 . S
C1208 C1209 1.377 . S
C1208 C1210 1.384 . S
C1209 C1208 1.377 . S
C1209 C1215 1.390 . S
C1210 H1201 0.930 . S
C1210 C1208 1.384 . S
C1210 C1211 1.372 . S
C1211 C1210 1.372 . S
C1211 C1212 1.400 . S
C1211 C1216 1.490 . S
C1212 H1202 0.930 . S
C1212 C1211 1.400 . S
C1212 C1215 1.386 . S
H1213 C1229 0.930 . S
H1214 C1230 0.931 . S
C1215 H1203 0.929 . S
C1215 C1209 1.390 . S
C1215 C1212 1.386 . S
C1216 C1211 1.490 . S
C1216 C1218 1.395 . S
C1216 C1219 1.403 . S
H1217 C1223 0.930 . S
C1218 H1204 0.930 . S
C1218 C1216 1.395 . S
C1218 C1221 1.403 . S
C1219 C1216 1.403 . S
C1219 C1220 1.524 . S
C1219 C1223 1.400 . S
C1220 H1205 0.960 . S
C1220 H1206 0.960 . S
C1220 H1207 0.960 . S
C1220 C1219 1.524 . S
C1221 C1218 1.403 . S
C1221 C1222 1.392 . S
C1221 C1225 1.495 . S
C1222 C1221 1.392 . S
C1222 C1223 1.385 . S
C1222 C1224 1.478 . S
C1223 H1217 0.930 . S
C1223 C1219 1.400 . S
C1223 C1222 1.385 . S
C1224 C1222 1.478 . S
C1224 C1226 1.381 . S
C1224 C1230 1.383 . S
C1225 C1221 1.495 . S
C1225 H1231 0.959 . S
C1225 H1232 0.961 . S
C1225 H1233 0.960 . S
C1226 C1224 1.381 . S
C1226 C1227 1.394 . S
C1226 H1234 0.930 . S
C1227 C1226 1.394 . S
C1227 C1228 1.383 . S
C1227 H1235 0.929 . S
C1228 C1227 1.383 . S
C1228 C1229 1.377 . S
C1229 H1213 0.930 . S
C1229 C1228 1.377 . S
C1229 C1230 1.379 . S
C1230 H1214 0.931 . S
C1230 C1224 1.383 . S
C1230 C1229 1.379 . S
H1231 C1225 0.959 . S
H1232 C1225 0.961 . S
H1233 C1225 0.960 . S
H1234 C1226 0.930 . S
H1235 C1227 0.929 . S
H1236 C1244 0.929 . S
H1237 C1246 0.930 . S
H1238 C1248 0.930 . S
H1239 C1251 0.929 . S
H1240 C1254 0.930 . S
H1241 C1256 0.960 . S
H1242 C1256 0.960 . S
H1243 C1256 0.960 . S
C1244 H1236 0.929 . S
C1244 C1245 1.377 . S
C1244 C1246 1.384 . S
C1245 C1244 1.377 . S
C1245 C1251 1.390 . S
C1246 H1237 0.930 . S
C1246 C1244 1.384 . S
C1246 C1247 1.372 . S
C1247 C1246 1.372 . S
C1247 C1248 1.400 . S
C1247 C1252 1.490 . S
C1248 H1238 0.930 . S
C1248 C1247 1.400 . S
C1248 C1251 1.386 . S
H1249 C1265 0.930 . S
H1250 C1266 0.931 . S
C1251 H1239 0.929 . S
C1251 C1245 1.390 . S
C1251 C1248 1.386 . S
C1252 C1247 1.490 . S
C1252 C1254 1.395 . S
C1252 C1255 1.403 . S
H1253 C1259 0.930 . S
C1254 H1240 0.930 . S
C1254 C1252 1.395 . S
C1254 C1257 1.403 . S
C1255 C1252 1.403 . S
C1255 C1256 1.524 . S
C1255 C1259 1.400 . S
C1256 H1241 0.960 . S
C1256 H1242 0.960 . S
C1256 H1243 0.960 . S
C1256 C1255 1.524 . S
C1257 C1254 1.403 . S
C1257 C1258 1.392 . S
C1257 C1261 1.495 . S
C1258 C1257 1.392 . S
C1258 C1259 1.385 . S
C1258 C1260 1.478 . S
C1259 H1253 0.930 . S
C1259 C1255 1.400 . S
C1259 C1258 1.385 . S
C1260 C1258 1.478 . S
C1260 C1262 1.381 . S
C1260 C1266 1.383 . S
C1261 C1257 1.495 . S
C1261 H1267 0.959 . S
C1261 H1268 0.961 . S
C1261 H1269 0.960 . S
C1262 C1260 1.381 . S
C1262 C1263 1.394 . S
C1262 H1270 0.930 . S
C1263 C1262 1.394 . S
C1263 C1264 1.383 . S
C1263 H1271 0.929 . S
C1264 C1263 1.383 . S
C1264 C1265 1.377 . S
C1265 H1249 0.930 . S
C1265 C1264 1.377 . S
C1265 C1266 1.379 . S
C1266 H1250 0.931 . S
C1266 C1260 1.383 . S
C1266 C1265 1.379 . S
H1267 C1261 0.959 . S
H1268 C1261 0.961 . S
H1269 C1261 0.960 . S
H1270 C1262 0.930 . S
H1271 C1263 0.929 . S
H1272 C1280 0.929 . S
H1273 C1282 0.930 . S
H1274 C1284 0.930 . S
H1275 C1287 0.929 . S
H1276 C1290 0.930 . S
H1277 C1292 0.960 . S
H1278 C1292 0.960 . S
H1279 C1292 0.960 . S
C1280 H1272 0.929 . S
C1280 C1281 1.377 . S
C1280 C1282 1.384 . S
C1281 C1280 1.377 . S
C1281 C1287 1.390 . S
C1282 H1273 0.930 . S
C1282 C1280 1.384 . S
C1282 C1283 1.372 . S
C1283 C1282 1.372 . S
C1283 C1284 1.400 . S
C1283 C1288 1.490 . S
C1284 H1274 0.930 . S
C1284 C1283 1.400 . S
C1284 C1287 1.386 . S
H1285 C1301 0.930 . S
H1286 C1302 0.931 . S
C1287 H1275 0.929 . S
C1287 C1281 1.390 . S
C1287 C1284 1.386 . S
C1288 C1283 1.490 . S
C1288 C1290 1.395 . S
C1288 C1291 1.403 . S
H1289 C1295 0.930 . S
C1290 H1276 0.930 . S
C1290 C1288 1.395 . S
C1290 C1293 1.403 . S
C1291 C1288 1.403 . S
C1291 C1292 1.524 . S
C1291 C1295 1.400 . S
C1292 H1277 0.960 . S
C1292 H1278 0.960 . S
C1292 H1279 0.960 . S
C1292 C1291 1.524 . S
C1293 C1290 1.403 . S
C1293 C1294 1.392 . S
C1293 C1297 1.495 . S
C1294 C1293 1.392 . S
C1294 C1295 1.385 . S
C1294 C1296 1.478 . S
C1295 H1289 0.930 . S
C1295 C1291 1.400 . S
C1295 C1294 1.385 . S
C1296 C1294 1.478 . S
C1296 C1298 1.381 . S
C1296 C1302 1.383 . S
C1297 C1293 1.495 . S
C1297 H1303 0.959 . S
C1297 H1304 0.961 . S
C1297 H1305 0.960 . S
C1298 C1296 1.381 . S
C1298 C1299 1.394 . S
C1298 H1306 0.930 . S
C1299 C1298 1.394 . S
C1299 C1300 1.383 . S
C1299 H1307 0.929 . S
C1300 C1299 1.383 . S
C1300 C1301 1.377 . S
C1301 H1285 0.930 . S
C1301 C1300 1.377 . S
C1301 C1302 1.379 . S
C1302 H1286 0.931 . S
C1302 C1296 1.383 . S
C1302 C1301 1.379 . S
H1303 C1297 0.959 . S
H1304 C1297 0.961 . S
H1305 C1297 0.960 . S
H1306 C1298 0.930 . S
H1307 C1299 0.929 . S
H1308 C1316 0.929 . S
H1309 C1318 0.930 . S
H1310 C1320 0.930 . S
H1311 C1323 0.929 . S
H1312 C1326 0.930 . S
H1313 C1328 0.960 . S
H1314 C1328 0.960 . S
H1315 C1328 0.960 . S
C1316 H1308 0.929 . S
C1316 C1317 1.377 . S
C1316 C1318 1.384 . S
C1317 C1316 1.377 . S
C1317 C1323 1.390 . S
C1318 H1309 0.930 . S
C1318 C1316 1.384 . S
C1318 C1319 1.372 . S
C1319 C1318 1.372 . S
C1319 C1320 1.400 . S
C1319 C1324 1.490 . S
C1320 H1310 0.930 . S
C1320 C1319 1.400 . S
C1320 C1323 1.386 . S
H1321 C1337 0.930 . S
H1322 C1338 0.931 . S
C1323 H1311 0.929 . S
C1323 C1317 1.390 . S
C1323 C1320 1.386 . S
C1324 C1319 1.490 . S
C1324 C1326 1.395 . S
C1324 C1327 1.403 . S
H1325 C1331 0.930 . S
C1326 H1312 0.930 . S
C1326 C1324 1.395 . S
C1326 C1329 1.403 . S
C1327 C1324 1.403 . S
C1327 C1328 1.524 . S
C1327 C1331 1.400 . S
C1328 H1313 0.960 . S
C1328 H1314 0.960 . S
C1328 H1315 0.960 . S
C1328 C1327 1.524 . S
C1329 C1326 1.403 . S
C1329 C1330 1.392 . S
C1329 C1333 1.495 . S
C1330 C1329 1.392 . S
C1330 C1331 1.385 . S
C1330 C1332 1.478 . S
C1331 H1325 0.930 . S
C1331 C1327 1.400 . S
C1331 C1330 1.385 . S
C1332 C1330 1.478 . S
C1332 C1334 1.381 . S
C1332 C1338 1.383 . S
C1333 C1329 1.495 . S
C1333 H1339 0.959 . S
C1333 H1340 0.961 . S
C1333 H1341 0.960 . S
C1334 C1332 1.381 . S
C1334 C1335 1.394 . S
C1334 H1342 0.930 . S
C1335 C1334 1.394 . S
C1335 C1336 1.383 . S
C1335 H1343 0.929 . S
C1336 C1335 1.383 . S
C1336 C1337 1.377 . S
C1337 H1321 0.930 . S
C1337 C1336 1.377 . S
C1337 C1338 1.379 . S
C1338 H1322 0.931 . S
C1338 C1332 1.383 . S
C1338 C1337 1.379 . S
H1339 C1333 0.959 . S
H1340 C1333 0.961 . S
H1341 C1333 0.960 . S
H1342 C1334 0.930 . S
H1343 C1335 0.929 . S
C489 C21 1.233 . S
C508 C326 1.314 . S
C525 C61 0.946 . S
C544 C375 0.929 . S
C580 C410 2.357 . S
C561 C82 2.412 . S
C597 C135 2.343 . S
C616 C449 2.289 . S
C652 C370 2.602 . S
C633 C15 2.504 . S
C688 C329 0.898 . S
C669 C42 0.968 . S
C724 C459 1.840 . S
C705 C101 1.884 . S
C760 C418 1.486 . S
C741 C122 1.498 . S
C777 C2 1.732 . S
C796 C446 1.840 . S
C832 C378 2.234 . S
C813 C95 2.325 . S
C849 C141 2.379 . S
C868 C339 2.361 . S
C885 C55 0.713 . S
C904 C415 0.702 . S
C940 C335 1.350 . S
C921 C181 1.332 . S
C957 C202 0.911 . S
C976 C366 0.905 . S
C993 C255 2.455 . S
C1012 C419 2.394 . S
C1029 C295 2.317 . S
C1048 C458 2.246 . S
C1065 C175 2.492 . S
C1084 C379 2.578 . S
C1120 C338 0.953 . S
C1101 C221 0.970 . S
C1156 C450 1.763 . S
C1137 C242 1.828 . S
C1192 C409 1.542 . S
C1173 C301 1.572 . S
C1209 C162 1.802 . S
C1228 C455 1.811 . S
C1264 C369 2.286 . S
C1245 C261 2.358 . S
C1300 C330 2.347 . S
C1281 C282 2.352 . S
C1317 C215 0.763 . S
C1336 C406 0.758 . S
