# Generated by pormake.
# Topology alb, (6,12)-cn, num edge types: 1
# Building blocks:
#     Node 0, Type 0, BuildingBlock: IZENUY_clean_sbu_0, # of connection points: 6
#     Node 1, Type 0, BuildingBlock: IZENUY_clean_sbu_0, # of connection points: 6
#     Node 2, Type 1, BuildingBlock: QEWDON_clean_sbu_0, # of connection points: 12
#     Edge 3, Type (0, 1), BuildingBlock: ZUJKAS_clean_linker_0, # of connection points: 2
#     Edge 4, Type (0, 1), BuildingBlock: ZUJKAS_clean_linker_0, # of connection points: 2
#     Edge 5, Type (0, 1), BuildingBlock: ZUJKAS_clean_linker_0, # of connection points: 2
#     Edge 6, Type (0, 1), BuildingBlock: ZUJKAS_clean_linker_0, # of connection points: 2
#     Edge 7, Type (0, 1), BuildingBlock: ZUJKAS_clean_linker_0, # of connection points: 2
#     Edge 8, Type (0, 1), BuildingBlock: ZUJKAS_clean_linker_0, # of connection points: 2
#     Edge 9, Type (0, 1), BuildingBlock: ZUJKAS_clean_linker_0, # of connection points: 2
#     Edge 10, Type (0, 1), BuildingBlock: ZUJKAS_clean_linker_0, # of connection points: 2
#     Edge 11, Type (0, 1), BuildingBlock: ZUJKAS_clean_linker_0, # of connection points: 2
#     Edge 12, Type (0, 1), BuildingBlock: ZUJKAS_clean_linker_0, # of connection points: 2
#     Edge 13, Type (0, 1), BuildingBlock: ZUJKAS_clean_linker_0, # of connection points: 2
#     Edge 14, Type (0, 1), BuildingBlock: ZUJKAS_clean_linker_0, # of connection points: 2
# Relax obj value: 0.104
# Max RMSD: 0.213
# Mean RMSD: 0.115
data_MOF--net-alb--node1-IZENUY_clean_sbu_0--node2-QEWDON_clean_sbu_0--edge1-ZUJKAS_clean_linker_0
_symmetry_space_group_name_H-M    P1
_symmetry_Int_Tables_number       1
_symmetry_cell_setting            triclinic
loop_
_symmetry_equiv_pos_as_xyz
'x, y, z'
_cell_length_a     30.771459
_cell_length_b     32.101486
_cell_length_c     24.634015
_cell_angle_alpha  89.790386
_cell_angle_beta   91.455462
_cell_angle_gamma 121.48559
loop_
_atom_site_label
_atom_site_type_symbol
_atom_site_fract_x
_atom_site_fract_y
_atom_site_fract_z
_atom_type_partial_charge
Fe0 Fe 0.3056 0.71085 0.12526 0.0
Fe1 Fe 0.2984 0.61191 0.12455 0.0
O2 O 0.26833 0.64616 0.12609 0.0
Fe3 Fe 0.20078 0.61567 0.12853 0.0
O4 O 0.19611 0.66242 0.08936 0.0
O5 O 0.27421 0.71272 0.06299 0.0
O6 O 0.35596 0.71438 0.08324 0.0
C7 C 0.35736 0.68339 0.05281 0.0
C8 C 0.2286 0.69058 0.20026 0.0
O9 O 0.32822 0.63826 0.0606 0.0
C10 C 0.22441 0.5588 0.19801 0.0
O11 O 0.33982 0.71363 0.18729 0.0
O12 O 0.35505 0.65645 0.16386 0.0
O13 O 0.20443 0.64497 0.19258 0.0
O14 O 0.26229 0.71917 0.16759 0.0
C15 C 0.21225 0.55944 0.05438 0.0
O16 O 0.27131 0.58331 0.18849 0.0
O17 O 0.19278 0.5631 0.16816 0.0
C18 C 0.36342 0.69159 0.19442 0.0
O19 O 0.24704 0.56137 0.08479 0.0
O20 O 0.19274 0.58453 0.06462 0.0
C21 C 0.22689 0.69496 0.05728 0.0
Fe22 Fe 0.7181 0.40789 0.05733 0.0
Fe23 Fe 0.72511 0.31648 0.07157 0.0
O24 O 0.75534 0.38064 0.06411 0.0
Fe25 Fe 0.82303 0.41724 0.06382 0.0
O26 O 0.82513 0.45213 0.12309 0.0
O27 O 0.76351 0.46352 0.09516 0.0
O28 O 0.6867 0.38306 0.12143 0.0
C29 C 0.66241 0.33825 0.13293 0.0
C30 C 0.79307 0.46319 0.98529 0.0
O31 O 0.67012 0.30868 0.10756 0.0
C32 C 0.80639 0.33907 0.00209 0.0
O33 O 0.66629 0.35678 0.01852 0.0
O34 O 0.69145 0.30468 0.00658 0.0
O35 O 0.82568 0.46339 0.01774 0.0
O36 O 0.74601 0.4351 0.99273 0.0
C37 C 0.80404 0.34765 0.14503 0.0
O38 O 0.77417 0.31167 0.03653 0.0
O39 O 0.8256 0.38481 0.00424 0.0
C40 C 0.66293 0.32072 0.99358 0.0
O41 O 0.75634 0.32403 0.13737 0.0
O42 O 0.83307 0.37807 0.11035 0.0
C43 C 0.80043 0.47337 0.12746 0.0
Zn44 Zn 0.10605 0.11213 0.46631 0.0
Zn45 Zn 0.09852 0.01028 0.46272 0.0
O46 O 0.05575 0.03976 0.46423 0.0
H47 H 0.02007 0.0241 0.45383 0.0
C48 C 0.10135 0.1826 0.59199 0.0
O49 O 0.06073 0.16303 0.62194 0.0
Zn50 Zn 0.91839 0.91733 0.71608 0.0
Zn51 Zn 0.93179 1.00165 0.7818 0.0
O52 O 0.95397 0.98948 0.71046 0.0
H53 H 0.98477 0.01053 0.69111 0.0
Zn54 Zn 0.11516 0.10647 0.64549 0.0
O55 O 0.07235 0.03706 0.61642 0.0
Zn56 Zn 0.08742 0.99345 0.66166 0.0
H57 H 0.05881 0.03045 0.57969 0.0
Zn58 Zn 0.89023 0.95547 0.60093 0.0
O59 O 0.95746 0.97218 0.56901 0.0
H60 H 0.97856 0.00465 0.55484 0.0
Zn61 Zn 0.9379 0.91155 0.52527 0.0
C62 C 0.91023 0.05285 0.63972 0.0
O63 O 0.94354 0.06957 0.60087 0.0
O64 O 0.17617 0.13096 0.43765 0.0
O65 O 0.16894 0.05845 0.43065 0.0
O66 O 0.85811 0.95044 0.7998 0.0
O67 O 0.84722 0.88865 0.74874 0.0
O68 O 0.17123 0.11282 0.69872 0.0
O69 O 0.15067 0.03552 0.70946 0.0
C70 C 0.01238 0.91867 0.43456 0.0
O71 O 0.83135 0.90904 0.54893 0.0
O72 O 0.8696 0.88891 0.48715 0.0
O73 O 0.96042 0.07252 0.80634 0.0
C74 C 0.19443 0.10486 0.42448 0.0
O75 O 0.07609 0.15353 0.442 0.0
C76 C 0.00981 0.92178 0.74619 0.0
O77 O 0.13032 0.16526 0.59446 0.0
C78 C 0.83 0.90689 0.78182 0.0
O79 O 0.8837 0.00694 0.64743 0.0
C80 C 0.10662 0.95822 0.56139 0.0
O81 O 0.05751 0.94802 0.41899 0.0
O82 O 0.99702 0.93153 0.47516 0.0
C83 C 0.17973 0.08122 0.7197 0.0
O84 O 0.96403 0.90276 0.76113 0.0
O85 O 0.02412 0.95055 0.70578 0.0
C86 C 0.92043 0.85866 0.62393 0.0
O87 O 0.10121 0.95134 0.61226 0.0
O88 O 0.10417 0.99336 0.54086 0.0
C89 C 0.8303 0.88808 0.50456 0.0
O90 O 0.92954 0.85703 0.57428 0.0
O91 O 0.91663 0.89413 0.64008 0.0
C92 C 0.99178 0.10795 0.77752 0.0
O93 O 0.0066 0.09904 0.73176 0.0
C94 C 0.03398 0.14445 0.46074 0.0
O95 O 0.01116 0.10969 0.49664 0.0
H96 H 0.28083 0.78428 0.23904 0.0
H97 H 0.25471 0.82003 0.30888 0.0
H98 H 0.117 0.68058 0.33113 0.0
H99 H 0.1429 0.64416 0.2614 0.0
H100 H 0.10614 0.76584 0.3111 0.0
H101 H 0.24503 0.796 0.47776 0.0
H102 H 0.27169 0.81529 0.41168 0.0
H103 H 0.22813 0.75156 0.42392 0.0
C104 C 0.24515 0.76104 0.25903 0.0
C105 C 0.21387 0.7114 0.24454 0.0
C106 C 0.23048 0.78148 0.29914 0.0
C107 C 0.18424 0.75276 0.32539 0.0
C108 C 0.15303 0.70315 0.3115 0.0
H109 H 0.07683 0.86359 0.58275 0.0
H110 H 0.09144 0.8086 0.52778 0.0
C111 C 0.16792 0.68247 0.27171 0.0
C112 C 0.16728 0.77568 0.36467 0.0
H113 H 0.20017 0.83788 0.48555 0.0
C114 C 0.12615 0.78093 0.34963 0.0
C115 C 0.19345 0.79516 0.41487 0.0
C116 C 0.23681 0.78898 0.43345 0.0
C117 C 0.11199 0.80723 0.38252 0.0
C118 C 0.13962 0.82861 0.43146 0.0
C119 C 0.17928 0.82153 0.44774 0.0
C120 C 0.12996 0.86111 0.46438 0.0
C121 C 0.06871 0.8134 0.36397 0.0
C122 C 0.14712 0.9087 0.44683 0.0
C123 C 0.13943 0.94023 0.47831 0.0
C124 C 0.11365 0.92447 0.52735 0.0
C125 C 0.09655 0.87668 0.54489 0.0
C126 C 0.10477 0.84524 0.51364 0.0
H127 H 0.04351 0.78529 0.33318 0.0
H128 H 0.04554 0.81138 0.39883 0.0
H129 H 0.08462 0.84997 0.34548 0.0
H130 H 0.16718 0.92165 0.40914 0.0
H131 H 0.1545 0.97718 0.46471 0.0
H132 H 0.60597 0.2446 0.16878 0.0
H133 H 0.53016 0.20861 0.22359 0.0
H134 H 0.54536 0.34937 0.23954 0.0
H135 H 0.62129 0.3859 0.18359 0.0
H136 H 0.51335 0.22737 0.32817 0.0
H137 H 0.4004 0.2633 0.17643 0.0
H138 H 0.46043 0.2694 0.16086 0.0
H139 H 0.45927 0.31645 0.1989 0.0
C140 C 0.5935 0.26817 0.18403 0.0
C141 C 0.61955 0.31817 0.17113 0.0
C142 C 0.55009 0.24742 0.21554 0.0
C143 C 0.53147 0.27602 0.23486 0.0
C144 C 0.55844 0.32637 0.22408 0.0
H145 H 0.25821 0.20245 0.40677 0.0
H146 H 0.34069 0.24325 0.36376 0.0
C147 C 0.60207 0.34728 0.19242 0.0
C148 C 0.48313 0.25247 0.26499 0.0
H149 H 0.36076 0.22767 0.25887 0.0
C150 C 0.47998 0.22747 0.31309 0.0
C151 C 0.43949 0.25231 0.24505 0.0
C152 C 0.43966 0.27639 0.19225 0.0
C153 C 0.43462 0.20289 0.34213 0.0
C154 C 0.391 0.20268 0.32211 0.0
C155 C 0.39424 0.22787 0.27418 0.0
C156 C 0.34172 0.17724 0.3505 0.0
C157 C 0.43399 0.17806 0.39447 0.0
C158 C 0.31463 0.12633 0.35739 0.0
C159 C 0.26712 0.10263 0.38215 0.0
C160 C 0.24571 0.12943 0.40021 0.0
C161 C 0.27331 0.18047 0.39347 0.0
C162 C 0.32059 0.204 0.36878 0.0
H163 H 0.47314 0.19154 0.41094 0.0
H164 H 0.41218 0.18387 0.42565 0.0
H165 H 0.41519 0.13818 0.38687 0.0
H166 H 0.32977 0.10479 0.3427 0.0
H167 H 0.24691 0.06331 0.38643 0.0
H168 H 0.28153 0.5505 0.27907 0.0
H169 H 0.25378 0.48684 0.34749 0.0
H170 H 0.09941 0.41821 0.28422 0.0
H171 H 0.12675 0.48224 0.21539 0.0
H172 H 0.16497 0.45326 0.42766 0.0
H173 H 0.14883 0.31379 0.28097 0.0
H174 H 0.18863 0.37846 0.26832 0.0
H175 H 0.12062 0.34916 0.26283 0.0
C176 C 0.24157 0.52207 0.27968 0.0
C177 C 0.20643 0.5214 0.24139 0.0
C178 C 0.22579 0.48578 0.31901 0.0
C179 C 0.17466 0.44774 0.32071 0.0
C180 C 0.13912 0.44724 0.28338 0.0
H181 H 0.04699 0.22768 0.5774 0.0
H182 H 0.06211 0.2914 0.51248 0.0
C183 C 0.15481 0.4839 0.24419 0.0
C184 C 0.15943 0.40792 0.36058 0.0
H185 H 0.13511 0.29174 0.37257 0.0
C186 C 0.15769 0.41764 0.41571 0.0
C187 C 0.15059 0.3618 0.34482 0.0
C188 C 0.15234 0.3498 0.28609 0.0
C189 C 0.14775 0.38247 0.45566 0.0
C190 C 0.13926 0.3363 0.43997 0.0
C191 C 0.14098 0.32676 0.38468 0.0
C192 C 0.13017 0.29794 0.48026 0.0
C193 C 0.1483 0.39578 0.51444 0.0
C194 C 0.16264 0.2794 0.48314 0.0
C195 C 0.15392 0.24266 0.52002 0.0
C196 C 0.11219 0.22327 0.55461 0.0
C197 C 0.07979 0.24202 0.55179 0.0
C198 C 0.08854 0.27875 0.51483 0.0
H199 H 0.16823 0.43597 0.52074 0.0
H200 H 0.10848 0.3796 0.52763 0.0
H201 H 0.16715 0.38131 0.54077 0.0
H202 H 0.19488 0.29341 0.45675 0.0
H203 H 0.17949 0.22897 0.52082 0.0
H204 H 0.90111 0.36657 0.15481 0.0
H205 H 0.93653 0.33844 0.22524 0.0
H206 H 0.79494 0.2729 0.30998 0.0
H207 H 0.75832 0.29923 0.23808 0.0
H208 H 0.9542 0.3529 0.33215 0.0
H209 H 0.80967 0.15722 0.28971 0.0
H210 H 0.81574 0.20551 0.24692 0.0
H211 H 0.78359 0.19309 0.31031 0.0
C212 C 0.87749 0.34636 0.18853 0.0
C213 C 0.82663 0.33441 0.19047 0.0
C214 C 0.89788 0.33043 0.22889 0.0
C215 C 0.86807 0.30269 0.27231 0.0
C216 C 0.81816 0.29305 0.27603 0.0
H217 H 0.95078 0.14277 0.50048 0.0
H218 H 0.91044 0.18633 0.46488 0.0
C219 C 0.79737 0.30828 0.23508 0.0
C220 C 0.88891 0.28204 0.31162 0.0
H221 H 0.87243 0.1741 0.35655 0.0
C222 C 0.93602 0.31383 0.33798 0.0
C223 C 0.86523 0.23099 0.31905 0.0
C224 C 0.81603 0.19463 0.2897 0.0
C225 C 0.96084 0.29587 0.37013 0.0
C226 C 0.93779 0.24488 0.37612 0.0
C227 C 0.88967 0.21323 0.35205 0.0
C228 C 0.96509 0.22309 0.40181 0.0
C229 C 0.01214 0.33149 0.3961 0.0
C230 C 0.00889 0.22928 0.37786 0.0
C231 C 0.03149 0.20406 0.39752 0.0
C232 C 0.0108 0.1723 0.4416 0.0
C233 C 0.96744 0.16684 0.46627 0.0
C234 C 0.94459 0.19189 0.44629 0.0
H235 H 0.01713 0.36805 0.40208 0.0
H236 H 0.01743 0.31812 0.43589 0.0
H237 H 0.04248 0.3359 0.369 0.0
H238 H 0.02458 0.25229 0.34269 0.0
H239 H 0.0645 0.20857 0.37733 0.0
H240 H 0.42989 0.78716 0.22098 0.0
H241 H 0.50992 0.82049 0.27373 0.0
H242 H 0.47409 0.67412 0.30872 0.0
H243 H 0.39554 0.64083 0.25347 0.0
H244 H 0.53567 0.81643 0.37354 0.0
H245 H 0.61049 0.72817 0.24512 0.0
H246 H 0.55308 0.72765 0.22713 0.0
H247 H 0.55138 0.68385 0.27441 0.0
C248 C 0.439 0.76221 0.24042 0.0
C249 C 0.40711 0.71154 0.23285 0.0
C250 C 0.48472 0.78122 0.27034 0.0
C251 C 0.49874 0.74978 0.29372 0.0
C252 C 0.46504 0.69907 0.28925 0.0
H253 H 0.73457 0.84084 0.54278 0.0
H254 H 0.65459 0.80627 0.49034 0.0
C255 C 0.41999 0.68009 0.25826 0.0
C256 C 0.54878 0.77006 0.32226 0.0
H257 H 0.65547 0.7627 0.32924 0.0
C258 C 0.56203 0.80494 0.36359 0.0
C259 C 0.58376 0.75601 0.3083 0.0
C260 C 0.57421 0.72231 0.2609 0.0
C261 C 0.60877 0.82536 0.39221 0.0
C262 C 0.64216 0.80876 0.3808 0.0
C263 C 0.62947 0.77476 0.3386 0.0
C264 C 0.69039 0.8262 0.41218 0.0
C265 C 0.62216 0.86529 0.43344 0.0
C266 C 0.73684 0.84583 0.3855 0.0
C267 C 0.78254 0.86414 0.41541 0.0
C268 C 0.78234 0.86367 0.47236 0.0
C269 C 0.73572 0.84234 0.49886 0.0
C270 C 0.69009 0.82304 0.46899 0.0
H271 H 0.60188 0.88478 0.42399 0.0
H272 H 0.61029 0.84888 0.47417 0.0
H273 H 0.66377 0.89245 0.43521 0.0
H274 H 0.73787 0.84811 0.34161 0.0
H275 H 0.81809 0.88043 0.39415 0.0
H276 H 0.74402 0.50914 0.16572 0.0
H277 H 0.77207 0.57992 0.22498 0.0
H278 H 0.92216 0.60066 0.23835 0.0
H279 H 0.89386 0.52868 0.17988 0.0
H280 H 0.89006 0.61698 0.33604 0.0
H281 H 0.86097 0.71767 0.16965 0.0
H282 H 0.80472 0.66037 0.1847 0.0
H283 H 0.85915 0.66134 0.15807 0.0
C284 C 0.78299 0.52857 0.18143 0.0
C285 C 0.81698 0.51373 0.16738 0.0
C286 C 0.79898 0.56915 0.2152 0.0
C287 C 0.84954 0.59636 0.23498 0.0
C288 C 0.88303 0.5804 0.22317 0.0
H289 H 0.02464 0.8957 0.33283 0.0
H290 H 0.97987 0.81619 0.28777 0.0
C291 C 0.86685 0.5393 0.18975 0.0
C292 C 0.86785 0.6425 0.266 0.0
H293 H 0.88281 0.75543 0.25634 0.0
C294 C 0.88847 0.64729 0.31873 0.0
C295 C 0.86605 0.68214 0.24315 0.0
C296 C 0.847 0.68047 0.18562 0.0
C297 C 0.90762 0.69075 0.34914 0.0
C298 C 0.90522 0.73015 0.32646 0.0
C299 C 0.88409 0.72505 0.27395 0.0
C300 C 0.92914 0.77874 0.3538 0.0
C301 C 0.93167 0.69453 0.40448 0.0
C302 C 0.91435 0.78475 0.40534 0.0
C303 C 0.93987 0.8307 0.43126 0.0
C304 C 0.98066 0.87111 0.40609 0.0
C305 C 0.99369 0.86523 0.35361 0.0
C306 C 0.968 0.81973 0.32766 0.0
H307 H 0.94097 0.66569 0.41055 0.0
H308 H 0.9671 0.7307 0.4106 0.0
H309 H 0.90465 0.69026 0.43611 0.0
H310 H 0.88353 0.7539 0.42573 0.0
H311 H 0.92874 0.83419 0.47145 0.0
H312 H 0.2827 0.76844 0.98574 0.0
H313 H 0.25287 0.80973 0.92572 0.0
H314 H 0.09924 0.71418 0.97844 0.0
H315 H 0.12854 0.67227 0.03846 0.0
H316 H 0.10825 0.73134 0.86336 0.0
H317 H 0.21042 0.9033 0.98573 0.0
H318 H 0.24886 0.87998 0.96317 0.0
H319 H 0.19968 0.84589 0.01097 0.0
C320 C 0.24247 0.7559 0.98444 0.0
C321 C 0.20811 0.7173 0.0175 0.0
C322 C 0.22556 0.77971 0.95018 0.0
C323 C 0.17402 0.76554 0.94831 0.0
C324 C 0.13925 0.72583 0.97951 0.0
H325 H 0.00663 0.89779 0.85201 0.0
H326 H 0.05192 0.86311 0.89749 0.0
C327 C 0.15611 0.70198 0.01387 0.0
C328 C 0.15657 0.79317 0.91541 0.0
H329 H 0.16573 0.90378 0.90678 0.0
C330 C 0.1211 0.76915 0.8725 0.0
C331 C 0.17314 0.8424 0.92779 0.0
C332 C 0.20981 0.86947 0.97466 0.0
C333 C 0.10151 0.79303 0.84184 0.0
C334 C 0.11803 0.84216 0.85439 0.0
C335 C 0.15376 0.8663 0.89693 0.0
C336 C 0.0948 0.86743 0.82731 0.0
C337 C 0.06211 0.76529 0.79733 0.0
C338 C 0.10512 0.88266 0.77319 0.0
C339 C 0.07972 0.90323 0.74723 0.0
C340 C 0.04336 0.90828 0.77493 0.0
C341 C 0.03458 0.89448 0.82966 0.0
C342 C 0.06034 0.87462 0.8557 0.0
H343 H 0.04921 0.72587 0.79661 0.0
H344 H 0.02844 0.76882 0.80247 0.0
H345 H 0.07846 0.78111 0.75742 0.0
H346 H 0.13184 0.87755 0.75073 0.0
H347 H 0.08659 0.91276 0.70494 0.0
H348 H 0.62026 0.22539 0.95983 0.0
H349 H 0.53788 0.17513 0.9119 0.0
H350 H 0.52324 0.3011 0.89569 0.0
H351 H 0.60488 0.35132 0.94373 0.0
H352 H 0.44131 0.21911 0.94833 0.0
H353 H 0.48783 0.16828 0.75159 0.0
H354 H 0.51564 0.15966 0.81251 0.0
H355 H 0.53458 0.22031 0.79168 0.0
C356 C 0.60008 0.24261 0.94484 0.0
C357 C 0.6188 0.29221 0.95601 0.0
C358 C 0.55306 0.21384 0.91747 0.0
C359 C 0.52459 0.23449 0.90044 0.0
C360 C 0.54465 0.28453 0.90876 0.0
H361 H 0.24474 0.17359 0.75869 0.0
H362 H 0.32603 0.20422 0.80717 0.0
C363 C 0.59131 0.31315 0.93618 0.0
C364 C 0.47184 0.20372 0.87869 0.0
H365 H 0.40108 0.13774 0.76759 0.0
C366 C 0.43243 0.20098 0.90898 0.0
C367 C 0.46048 0.17971 0.82775 0.0
C368 C 0.50173 0.18214 0.79361 0.0
C369 C 0.38202 0.17616 0.88885 0.0
C370 C 0.37096 0.15409 0.83682 0.0
C371 C 0.4099 0.15485 0.80749 0.0
C372 C 0.32027 0.13415 0.81019 0.0
C373 C 0.34111 0.17442 0.92303 0.0
C374 C 0.29024 0.08456 0.79576 0.0
C375 C 0.24349 0.06677 0.76803 0.0
C376 C 0.22652 0.09855 0.7537 0.0
C377 C 0.25656 0.14808 0.76908 0.0
C378 C 0.30298 0.16567 0.79698 0.0
H379 H 0.35259 0.18044 0.96678 0.0
H380 H 0.33429 0.20371 0.90996 0.0
H381 H 0.3047 0.13881 0.91802 0.0
H382 H 0.3032 0.05979 0.80551 0.0
H383 H 0.22138 0.02846 0.75659 0.0
H384 H 0.26264 0.52888 0.99391 0.0
H385 H 0.22597 0.46091 0.92893 0.0
H386 H 0.07658 0.43832 0.95239 0.0
H387 H 0.11364 0.50788 0.01575 0.0
H388 H 0.16234 0.37216 0.96095 0.0
H389 H 0.06952 0.41365 0.79165 0.0
H390 H 0.11456 0.45999 0.83884 0.0
H391 H 0.04897 0.42051 0.85671 0.0
C392 C 0.22214 0.51005 0.98419 0.0
C393 C 0.19077 0.52306 0.0101 0.0
C394 C 0.20129 0.47144 0.94695 0.0
C395 C 0.14859 0.44468 0.9356 0.0
C396 C 0.11748 0.45913 0.95952 0.0
H397 H 0.97423 0.13761 0.87346 0.0
H398 H 0.01046 0.22114 0.90644 0.0
C399 C 0.13858 0.49855 0.99607 0.0
C400 C 0.12576 0.39762 0.90585 0.0
H401 H 0.04317 0.32894 0.80245 0.0
C402 C 0.13691 0.36312 0.92579 0.0
C403 C 0.09255 0.38581 0.86002 0.0
C404 C 0.08109 0.42217 0.83523 0.0
C405 C 0.11509 0.31684 0.90192 0.0
C406 C 0.08013 0.30424 0.85778 0.0
C407 C 0.06971 0.33886 0.83673 0.0
C408 C 0.05343 0.25457 0.83438 0.0
C409 C 0.12944 0.28165 0.92438 0.0
C410 C 0.06466 0.24611 0.78229 0.0
C411 C 0.04407 0.19831 0.76325 0.0
C412 C 0.01179 0.15853 0.79601 0.0
C413 C 0.99927 0.16743 0.84737 0.0
C414 C 0.01976 0.21507 0.86626 0.0
H415 H 0.16567 0.30079 0.94878 0.0
H416 H 0.09894 0.25524 0.95117 0.0
H417 H 0.13356 0.26074 0.89118 0.0
H418 H 0.09069 0.27638 0.75725 0.0
H419 H 0.05405 0.19257 0.72333 0.0
H420 H 0.76629 0.24208 0.98354 0.0
H421 H 0.79404 0.20296 0.92084 0.0
H422 H 0.9136 0.34385 0.86691 0.0
H423 H 0.88538 0.384 0.92987 0.0
H424 H 0.85912 0.27566 0.78136 0.0
H425 H 0.91972 0.19232 0.93953 0.0
H426 H 0.85669 0.18028 0.94963 0.0
H427 H 0.91025 0.2421 0.95396 0.0
C428 C 0.79872 0.2651 0.95872 0.0
C429 C 0.82392 0.31639 0.96238 0.0
C430 C 0.81471 0.24249 0.92294 0.0
C431 C 0.85665 0.27035 0.89004 0.0
C432 C 0.88143 0.3216 0.89238 0.0
H433 H 0.96274 0.15297 0.63587 0.0
H434 H 0.95477 0.20932 0.6953 0.0
C435 C 0.86527 0.34448 0.92836 0.0
C436 C 0.87301 0.24501 0.85267 0.0
H437 H 0.90208 0.15595 0.85071 0.0
C438 C 0.86974 0.2503 0.79637 0.0
C439 C 0.88676 0.21183 0.87227 0.0
C440 C 0.8941 0.20661 0.93216 0.0
C441 C 0.87709 0.22136 0.75923 0.0
C442 C 0.88875 0.18664 0.77899 0.0
C443 C 0.8935 0.18259 0.83532 0.0
C444 C 0.89409 0.15269 0.74241 0.0
C445 C 0.86948 0.22642 0.69936 0.0
C446 C 0.86394 0.10195 0.74999 0.0
C447 C 0.86894 0.06958 0.71657 0.0
C448 C 0.90432 0.08719 0.6747 0.0
C449 C 0.93471 0.13804 0.66731 0.0
C450 C 0.9299 0.1704 0.70103 0.0
H451 H 0.84752 0.24459 0.69191 0.0
H452 H 0.90722 0.2491 0.68074 0.0
H453 H 0.84916 0.19022 0.67856 0.0
H454 H 0.83626 0.08727 0.78181 0.0
H455 H 0.84516 0.03074 0.72375 0.0
H456 H 0.37884 0.62796 0.98661 0.0
H457 H 0.4523 0.65675 0.92828 0.0
H458 H 0.50371 0.80577 0.97188 0.0
H459 H 0.43033 0.77761 0.02951 0.0
H460 H 0.51114 0.79235 0.86098 0.0
H461 H 0.59763 0.70918 0.98831 0.0
H462 H 0.5336 0.66812 0.96334 0.0
H463 H 0.54602 0.71532 0.01136 0.0
C464 C 0.40552 0.6669 0.98346 0.0
C465 C 0.39883 0.70043 0.01324 0.0
C466 C 0.44769 0.68325 0.95035 0.0
C467 C 0.484 0.73336 0.94655 0.0
C468 C 0.47632 0.76692 0.97445 0.0
H469 H 0.778 0.9396 0.83748 0.0
H470 H 0.69147 0.89259 0.87022 0.0
C471 C 0.43428 0.75069 0.00746 0.0
C472 C 0.53082 0.75132 0.91476 0.0
H473 H 0.64343 0.75422 0.91272 0.0
C474 C 0.53983 0.78362 0.87195 0.0
C475 C 0.56819 0.73978 0.929 0.0
C476 C 0.56132 0.70651 0.97573 0.0
C477 C 0.58569 0.80562 0.8439 0.0
C478 C 0.62382 0.79557 0.85953 0.0
C479 C 0.61404 0.76174 0.90078 0.0
C480 C 0.67582 0.82353 0.83744 0.0
C481 C 0.59329 0.84007 0.79826 0.0
C482 C 0.69624 0.80013 0.80885 0.0
C483 C 0.74613 0.82707 0.78988 0.0
C484 C 0.77659 0.8777 0.8 0.0
C485 C 0.7558 0.90072 0.82887 0.0
C486 C 0.70609 0.87395 0.84736 0.0
H487 H 0.55628 0.83285 0.78087 0.0
H488 H 0.61473 0.87816 0.81415 0.0
H489 H 0.61551 0.83706 0.76532 0.0
H490 H 0.67357 0.76111 0.80122 0.0
H491 H 0.76104 0.80818 0.76802 0.0
H492 H 0.73518 0.47984 0.91178 0.0
H493 H 0.76511 0.54692 0.84721 0.0
H494 H 0.92069 0.59954 0.89769 0.0
H495 H 0.89134 0.533 0.96248 0.0
H496 H 0.89647 0.67197 0.89759 0.0
H497 H 0.83745 0.56865 0.70258 0.0
H498 H 0.78717 0.54701 0.75037 0.0
H499 H 0.84179 0.5422 0.76581 0.0
C500 C 0.7758 0.50528 0.9087 0.0
C501 C 0.81078 0.50095 0.94248 0.0
C502 C 0.79287 0.54351 0.87157 0.0
C503 C 0.84518 0.57798 0.86729 0.0
C504 C 0.88018 0.57328 0.90021 0.0
H505 H 0.96702 0.80595 0.61856 0.0
H506 H 0.95523 0.73983 0.67884 0.0
C507 C 0.86324 0.53508 0.9372 0.0
C508 C 0.86319 0.62054 0.83087 0.0
H509 H 0.86074 0.65219 0.6988 0.0
C510 C 0.88908 0.66766 0.85406 0.0
C511 C 0.85426 0.61499 0.774 0.0
C512 C 0.82909 0.56553 0.74652 0.0
C513 C 0.90431 0.70919 0.82217 0.0
C514 C 0.89297 0.70338 0.76573 0.0
C515 C 0.86906 0.6565 0.74218 0.0
C516 C 0.90272 0.74508 0.73102 0.0
C517 C 0.93193 0.75888 0.8493 0.0
C518 C 0.877 0.7697 0.74031 0.0
C519 C 0.88347 0.80708 0.70591 0.0
C520 C 0.91604 0.82088 0.66181 0.0
C521 C 0.9419 0.79626 0.65251 0.0
C522 C 0.93526 0.75861 0.68687 0.0
H523 H 0.9526 0.75903 0.88701 0.0
H524 H 0.95956 0.78728 0.82172 0.0
H525 H 0.90374 0.7688 0.86048 0.0
H526 H 0.85081 0.7591 0.77337 0.0
H527 H 0.8617 0.82409 0.7128 0.0
loop_
_geom_bond_atom_site_label_1
_geom_bond_atom_site_label_2
_geom_bond_distance
_geom_bond_site_symmetry_2
_ccdc_geom_bond_type
Fe0 O2 1.918 . S
Fe0 O5 1.997 . S
Fe0 O6 2.002 . S
Fe0 O11 1.976 . S
Fe0 O14 1.996 . S
Fe1 O2 1.918 . S
Fe1 O9 1.997 . S
Fe1 O12 1.996 . S
Fe1 O16 1.976 . S
Fe1 O19 2.002 . S
O2 Fe0 1.918 . S
O2 Fe1 1.918 . S
O2 Fe3 1.918 . S
Fe3 O2 1.918 . S
Fe3 O4 2.002 . S
Fe3 O13 1.976 . S
Fe3 O17 1.996 . S
Fe3 O20 1.997 . S
O4 Fe3 2.002 . S
O4 C21 1.295 . S
O5 Fe0 1.997 . S
O5 C21 1.235 . S
O6 Fe0 2.002 . S
O6 C7 1.295 . S
C7 O6 1.295 . S
C7 O9 1.235 . S
C8 O13 1.287 . S
C8 O14 1.255 . S
O9 Fe1 1.997 . S
O9 C7 1.235 . S
C10 O16 1.287 . S
C10 O17 1.255 . S
O11 Fe0 1.976 . S
O11 C18 1.287 . S
O12 Fe1 1.996 . S
O12 C18 1.255 . S
O13 Fe3 1.976 . S
O13 C8 1.287 . S
O14 Fe0 1.996 . S
O14 C8 1.255 . S
C15 O19 1.295 . S
C15 O20 1.235 . S
O16 Fe1 1.976 . S
O16 C10 1.287 . S
O17 Fe3 1.996 . S
O17 C10 1.255 . S
C18 O11 1.287 . S
C18 O12 1.255 . S
O19 Fe1 2.002 . S
O19 C15 1.295 . S
O20 Fe3 1.997 . S
O20 C15 1.235 . S
C21 O4 1.295 . S
C21 O5 1.235 . S
Fe22 O24 1.918 . S
Fe22 O27 1.997 . S
Fe22 O28 2.002 . S
Fe22 O33 1.976 1_554 S
Fe22 O36 1.996 1_554 S
Fe23 O24 1.918 . S
Fe23 O31 1.997 . S
Fe23 O34 1.996 1_554 S
Fe23 O38 1.976 1_554 S
Fe23 O41 2.002 . S
O24 Fe22 1.918 . S
O24 Fe23 1.918 . S
O24 Fe25 1.918 . S
Fe25 O24 1.918 . S
Fe25 O26 2.002 . S
Fe25 O35 1.976 1_554 S
Fe25 O39 1.996 1_554 S
Fe25 O42 1.997 . S
O26 Fe25 2.002 . S
O26 C43 1.295 . S
O27 Fe22 1.997 . S
O27 C43 1.235 . S
O28 Fe22 2.002 . S
O28 C29 1.295 . S
C29 O28 1.295 . S
C29 O31 1.235 . S
C30 O35 1.287 . S
C30 O36 1.255 . S
O31 Fe23 1.997 . S
O31 C29 1.235 . S
C32 O38 1.287 . S
C32 O39 1.255 . S
O33 Fe22 1.976 1_556 S
O33 C40 1.287 . S
O34 Fe23 1.996 1_556 S
O34 C40 1.255 . S
O35 Fe25 1.976 1_556 S
O35 C30 1.287 . S
O36 Fe22 1.996 1_556 S
O36 C30 1.255 . S
C37 O41 1.295 . S
C37 O42 1.235 . S
O38 Fe23 1.976 1_556 S
O38 C32 1.287 . S
O39 Fe25 1.996 1_556 S
O39 C32 1.255 . S
C40 O33 1.287 . S
C40 O34 1.255 . S
O41 Fe23 2.002 . S
O41 C37 1.295 . S
O42 Fe25 1.997 . S
O42 C37 1.235 . S
C43 O26 1.295 . S
C43 O27 1.235 . S
Zn44 O46 1.933 . S
Zn44 O64 1.985 . S
Zn44 O75 1.955 . S
Zn45 O46 1.911 1_565 S
Zn45 O65 1.970 1_565 S
Zn45 O81 1.945 . S
Zn45 O88 1.981 . S
O46 Zn44 1.933 . S
O46 Zn45 1.911 1_545 S
O46 H47 0.841 1_455 S
H47 O46 0.841 1_655 S
C48 O49 1.246 . S
C48 O77 1.276 . S
O49 C48 1.246 . S
Zn50 O52 1.911 . S
Zn50 O67 1.970 . S
Zn50 O84 1.945 1_655 S
Zn50 O91 1.981 . S
Zn51 O52 1.933 1_545 S
Zn51 O66 1.985 . S
Zn51 O73 1.955 1_655 S
O52 Zn50 1.911 . S
O52 Zn51 1.933 1_565 S
O52 H53 0.841 1_665 S
H53 O52 0.841 1_445 S
Zn54 O55 1.933 . S
Zn54 O68 1.985 . S
Zn54 O77 1.955 . S
O55 Zn54 1.933 . S
O55 Zn56 1.911 . S
O55 H57 0.841 . S
Zn56 O55 1.911 . S
Zn56 O69 1.970 . S
Zn56 O85 1.981 1_545 S
Zn56 O87 1.945 1_545 S
H57 O55 0.841 . S
Zn58 O59 1.933 . S
Zn58 O71 1.985 . S
Zn58 O79 1.955 1_565 S
O59 Zn58 1.933 . S
O59 H60 0.841 . S
O59 Zn61 1.911 . S
H60 O59 0.841 . S
Zn61 O59 1.911 . S
Zn61 O72 1.970 . S
Zn61 O82 1.981 . S
Zn61 O90 1.945 . S
C62 O63 1.246 . S
C62 O79 1.276 . S
O63 C62 1.246 . S
O64 Zn44 1.985 . S
O64 C74 1.245 . S
O65 Zn45 1.970 1_545 S
O65 C74 1.263 . S
O66 Zn51 1.985 . S
O66 C78 1.245 1_545 S
O67 Zn50 1.970 . S
O67 C78 1.263 . S
O68 Zn54 1.985 . S
O68 C83 1.245 . S
O69 Zn56 1.970 . S
O69 C83 1.263 . S
C70 O81 1.262 1_655 S
C70 O82 1.245 . S
O71 Zn58 1.985 . S
O71 C89 1.245 . S
O72 Zn61 1.970 . S
O72 C89 1.263 . S
O73 Zn51 1.955 1_455 S
O73 C92 1.276 . S
C74 O64 1.245 . S
C74 O65 1.263 . S
O75 Zn44 1.955 . S
O75 C94 1.276 1_455 S
C76 O84 1.262 . S
C76 O85 1.245 . S
O77 C48 1.276 . S
O77 Zn54 1.955 . S
C78 O66 1.245 1_565 S
C78 O67 1.263 . S
O79 Zn58 1.955 1_545 S
O79 C62 1.276 . S
C80 O87 1.262 . S
C80 O88 1.245 . S
O81 Zn45 1.945 . S
O81 C70 1.262 1_455 S
O82 Zn61 1.981 . S
O82 C70 1.245 . S
C83 O68 1.245 . S
C83 O69 1.263 . S
O84 Zn50 1.945 1_455 S
O84 C76 1.262 . S
O85 Zn56 1.981 1_565 S
O85 C76 1.245 . S
C86 O90 1.262 . S
C86 O91 1.245 . S
O87 Zn56 1.945 1_565 S
O87 C80 1.262 . S
O88 Zn45 1.981 . S
O88 C80 1.245 . S
C89 O71 1.245 . S
C89 O72 1.263 . S
O90 Zn61 1.945 . S
O90 C86 1.262 . S
O91 Zn50 1.981 . S
O91 C86 1.245 . S
C92 O73 1.276 . S
C92 O93 1.246 . S
O93 C92 1.246 . S
C94 O75 1.276 1_655 S
C94 O95 1.246 . S
O95 C94 1.246 . S
H96 C104 0.929 . S
H97 C106 0.930 . S
H98 C108 0.930 . S
H99 C111 0.929 . S
H100 C114 0.930 . S
H101 C116 0.960 . S
H102 C116 0.960 . S
H103 C116 0.960 . S
C104 H96 0.929 . S
C104 C105 1.377 . S
C104 C106 1.384 . S
C105 C104 1.377 . S
C105 C111 1.390 . S
C106 H97 0.930 . S
C106 C104 1.384 . S
C106 C107 1.372 . S
C107 C106 1.372 . S
C107 C108 1.400 . S
C107 C112 1.490 . S
C108 H98 0.930 . S
C108 C107 1.400 . S
C108 C111 1.386 . S
H109 C125 0.930 . S
H110 C126 0.931 . S
C111 H99 0.929 . S
C111 C105 1.390 . S
C111 C108 1.386 . S
C112 C107 1.490 . S
C112 C114 1.395 . S
C112 C115 1.403 . S
H113 C119 0.930 . S
C114 H100 0.930 . S
C114 C112 1.395 . S
C114 C117 1.403 . S
C115 C112 1.403 . S
C115 C116 1.524 . S
C115 C119 1.400 . S
C116 H101 0.960 . S
C116 H102 0.960 . S
C116 H103 0.960 . S
C116 C115 1.524 . S
C117 C114 1.403 . S
C117 C118 1.392 . S
C117 C121 1.495 . S
C118 C117 1.392 . S
C118 C119 1.385 . S
C118 C120 1.478 . S
C119 H113 0.930 . S
C119 C115 1.400 . S
C119 C118 1.385 . S
C120 C118 1.478 . S
C120 C122 1.381 . S
C120 C126 1.383 . S
C121 C117 1.495 . S
C121 H127 0.959 . S
C121 H128 0.961 . S
C121 H129 0.960 . S
C122 C120 1.381 . S
C122 C123 1.394 . S
C122 H130 0.930 . S
C123 C122 1.394 . S
C123 C124 1.383 . S
C123 H131 0.929 . S
C124 C123 1.383 . S
C124 C125 1.377 . S
C125 H109 0.930 . S
C125 C124 1.377 . S
C125 C126 1.379 . S
C126 H110 0.931 . S
C126 C120 1.383 . S
C126 C125 1.379 . S
H127 C121 0.959 . S
H128 C121 0.961 . S
H129 C121 0.960 . S
H130 C122 0.930 . S
H131 C123 0.929 . S
H132 C140 0.929 . S
H133 C142 0.930 . S
H134 C144 0.930 . S
H135 C147 0.929 . S
H136 C150 0.930 . S
H137 C152 0.960 . S
H138 C152 0.960 . S
H139 C152 0.960 . S
C140 H132 0.929 . S
C140 C141 1.377 . S
C140 C142 1.384 . S
C141 C140 1.377 . S
C141 C147 1.390 . S
C142 H133 0.930 . S
C142 C140 1.384 . S
C142 C143 1.372 . S
C143 C142 1.372 . S
C143 C144 1.400 . S
C143 C148 1.490 . S
C144 H134 0.930 . S
C144 C143 1.400 . S
C144 C147 1.386 . S
H145 C161 0.930 . S
H146 C162 0.931 . S
C147 H135 0.929 . S
C147 C141 1.390 . S
C147 C144 1.386 . S
C148 C143 1.490 . S
C148 C150 1.395 . S
C148 C151 1.403 . S
H149 C155 0.930 . S
C150 H136 0.930 . S
C150 C148 1.395 . S
C150 C153 1.403 . S
C151 C148 1.403 . S
C151 C152 1.524 . S
C151 C155 1.400 . S
C152 H137 0.960 . S
C152 H138 0.960 . S
C152 H139 0.960 . S
C152 C151 1.524 . S
C153 C150 1.403 . S
C153 C154 1.392 . S
C153 C157 1.495 . S
C154 C153 1.392 . S
C154 C155 1.385 . S
C154 C156 1.478 . S
C155 H149 0.930 . S
C155 C151 1.400 . S
C155 C154 1.385 . S
C156 C154 1.478 . S
C156 C158 1.381 . S
C156 C162 1.383 . S
C157 C153 1.495 . S
C157 H163 0.959 . S
C157 H164 0.961 . S
C157 H165 0.960 . S
C158 C156 1.381 . S
C158 C159 1.394 . S
C158 H166 0.930 . S
C159 C158 1.394 . S
C159 C160 1.383 . S
C159 H167 0.929 . S
C160 C159 1.383 . S
C160 C161 1.377 . S
C161 H145 0.930 . S
C161 C160 1.377 . S
C161 C162 1.379 . S
C162 H146 0.931 . S
C162 C156 1.383 . S
C162 C161 1.379 . S
H163 C157 0.959 . S
H164 C157 0.961 . S
H165 C157 0.960 . S
H166 C158 0.930 . S
H167 C159 0.929 . S
H168 C176 0.929 . S
H169 C178 0.930 . S
H170 C180 0.930 . S
H171 C183 0.929 . S
H172 C186 0.930 . S
H173 C188 0.960 . S
H174 C188 0.960 . S
H175 C188 0.960 . S
C176 H168 0.929 . S
C176 C177 1.377 . S
C176 C178 1.384 . S
C177 C176 1.377 . S
C177 C183 1.390 . S
C178 H169 0.930 . S
C178 C176 1.384 . S
C178 C179 1.372 . S
C179 C178 1.372 . S
C179 C180 1.400 . S
C179 C184 1.490 . S
C180 H170 0.930 . S
C180 C179 1.400 . S
C180 C183 1.386 . S
H181 C197 0.930 . S
H182 C198 0.931 . S
C183 H171 0.929 . S
C183 C177 1.390 . S
C183 C180 1.386 . S
C184 C179 1.490 . S
C184 C186 1.395 . S
C184 C187 1.403 . S
H185 C191 0.930 . S
C186 H172 0.930 . S
C186 C184 1.395 . S
C186 C189 1.403 . S
C187 C184 1.403 . S
C187 C188 1.524 . S
C187 C191 1.400 . S
C188 H173 0.960 . S
C188 H174 0.960 . S
C188 H175 0.960 . S
C188 C187 1.524 . S
C189 C186 1.403 . S
C189 C190 1.392 . S
C189 C193 1.495 . S
C190 C189 1.392 . S
C190 C191 1.385 . S
C190 C192 1.478 . S
C191 H185 0.930 . S
C191 C187 1.400 . S
C191 C190 1.385 . S
C192 C190 1.478 . S
C192 C194 1.381 . S
C192 C198 1.383 . S
C193 C189 1.495 . S
C193 H199 0.959 . S
C193 H200 0.961 . S
C193 H201 0.960 . S
C194 C192 1.381 . S
C194 C195 1.394 . S
C194 H202 0.930 . S
C195 C194 1.394 . S
C195 C196 1.383 . S
C195 H203 0.929 . S
C196 C195 1.383 . S
C196 C197 1.377 . S
C197 H181 0.930 . S
C197 C196 1.377 . S
C197 C198 1.379 . S
C198 H182 0.931 . S
C198 C192 1.383 . S
C198 C197 1.379 . S
H199 C193 0.959 . S
H200 C193 0.961 . S
H201 C193 0.960 . S
H202 C194 0.930 . S
H203 C195 0.929 . S
H204 C212 0.929 . S
H205 C214 0.930 . S
H206 C216 0.930 . S
H207 C219 0.929 . S
H208 C222 0.930 . S
H209 C224 0.960 . S
H210 C224 0.960 . S
H211 C224 0.960 . S
C212 H204 0.929 . S
C212 C213 1.377 . S
C212 C214 1.384 . S
C213 C212 1.377 . S
C213 C219 1.390 . S
C214 H205 0.930 . S
C214 C212 1.384 . S
C214 C215 1.372 . S
C215 C214 1.372 . S
C215 C216 1.400 . S
C215 C220 1.490 . S
C216 H206 0.930 . S
C216 C215 1.400 . S
C216 C219 1.386 . S
H217 C233 0.930 . S
H218 C234 0.931 . S
C219 H207 0.929 . S
C219 C213 1.390 . S
C219 C216 1.386 . S
C220 C215 1.490 . S
C220 C222 1.395 . S
C220 C223 1.403 . S
H221 C227 0.930 . S
C222 H208 0.930 . S
C222 C220 1.395 . S
C222 C225 1.403 . S
C223 C220 1.403 . S
C223 C224 1.524 . S
C223 C227 1.400 . S
C224 H209 0.960 . S
C224 H210 0.960 . S
C224 H211 0.960 . S
C224 C223 1.524 . S
C225 C222 1.403 . S
C225 C226 1.392 . S
C225 C229 1.495 . S
C226 C225 1.392 . S
C226 C227 1.385 . S
C226 C228 1.478 . S
C227 H221 0.930 . S
C227 C223 1.400 . S
C227 C226 1.385 . S
C228 C226 1.478 . S
C228 C230 1.381 . S
C228 C234 1.383 . S
C229 C225 1.495 . S
C229 H235 0.959 . S
C229 H236 0.961 . S
C229 H237 0.960 . S
C230 C228 1.381 . S
C230 C231 1.394 . S
C230 H238 0.930 . S
C231 C230 1.394 . S
C231 C232 1.383 . S
C231 H239 0.929 . S
C232 C231 1.383 . S
C232 C233 1.377 . S
C233 H217 0.930 . S
C233 C232 1.377 . S
C233 C234 1.379 . S
C234 H218 0.931 . S
C234 C228 1.383 . S
C234 C233 1.379 . S
H235 C229 0.959 . S
H236 C229 0.961 . S
H237 C229 0.960 . S
H238 C230 0.930 . S
H239 C231 0.929 . S
H240 C248 0.929 . S
H241 C250 0.930 . S
H242 C252 0.930 . S
H243 C255 0.929 . S
H244 C258 0.930 . S
H245 C260 0.960 . S
H246 C260 0.960 . S
H247 C260 0.960 . S
C248 H240 0.929 . S
C248 C249 1.377 . S
C248 C250 1.384 . S
C249 C248 1.377 . S
C249 C255 1.390 . S
C250 H241 0.930 . S
C250 C248 1.384 . S
C250 C251 1.372 . S
C251 C250 1.372 . S
C251 C252 1.400 . S
C251 C256 1.490 . S
C252 H242 0.930 . S
C252 C251 1.400 . S
C252 C255 1.386 . S
H253 C269 0.930 . S
H254 C270 0.931 . S
C255 H243 0.929 . S
C255 C249 1.390 . S
C255 C252 1.386 . S
C256 C251 1.490 . S
C256 C258 1.395 . S
C256 C259 1.403 . S
H257 C263 0.930 . S
C258 H244 0.930 . S
C258 C256 1.395 . S
C258 C261 1.403 . S
C259 C256 1.403 . S
C259 C260 1.524 . S
C259 C263 1.400 . S
C260 H245 0.960 . S
C260 H246 0.960 . S
C260 H247 0.960 . S
C260 C259 1.524 . S
C261 C258 1.403 . S
C261 C262 1.392 . S
C261 C265 1.495 . S
C262 C261 1.392 . S
C262 C263 1.385 . S
C262 C264 1.478 . S
C263 H257 0.930 . S
C263 C259 1.400 . S
C263 C262 1.385 . S
C264 C262 1.478 . S
C264 C266 1.381 . S
C264 C270 1.383 . S
C265 C261 1.495 . S
C265 H271 0.959 . S
C265 H272 0.961 . S
C265 H273 0.960 . S
C266 C264 1.381 . S
C266 C267 1.394 . S
C266 H274 0.930 . S
C267 C266 1.394 . S
C267 C268 1.383 . S
C267 H275 0.929 . S
C268 C267 1.383 . S
C268 C269 1.377 . S
C269 H253 0.930 . S
C269 C268 1.377 . S
C269 C270 1.379 . S
C270 H254 0.931 . S
C270 C264 1.383 . S
C270 C269 1.379 . S
H271 C265 0.959 . S
H272 C265 0.961 . S
H273 C265 0.960 . S
H274 C266 0.930 . S
H275 C267 0.929 . S
H276 C284 0.929 . S
H277 C286 0.930 . S
H278 C288 0.930 . S
H279 C291 0.929 . S
H280 C294 0.930 . S
H281 C296 0.960 . S
H282 C296 0.960 . S
H283 C296 0.960 . S
C284 H276 0.929 . S
C284 C285 1.377 . S
C284 C286 1.384 . S
C285 C284 1.377 . S
C285 C291 1.390 . S
C286 H277 0.930 . S
C286 C284 1.384 . S
C286 C287 1.372 . S
C287 C286 1.372 . S
C287 C288 1.400 . S
C287 C292 1.490 . S
C288 H278 0.930 . S
C288 C287 1.400 . S
C288 C291 1.386 . S
H289 C305 0.930 . S
H290 C306 0.931 . S
C291 H279 0.929 . S
C291 C285 1.390 . S
C291 C288 1.386 . S
C292 C287 1.490 . S
C292 C294 1.395 . S
C292 C295 1.403 . S
H293 C299 0.930 . S
C294 H280 0.930 . S
C294 C292 1.395 . S
C294 C297 1.403 . S
C295 C292 1.403 . S
C295 C296 1.524 . S
C295 C299 1.400 . S
C296 H281 0.960 . S
C296 H282 0.960 . S
C296 H283 0.960 . S
C296 C295 1.524 . S
C297 C294 1.403 . S
C297 C298 1.392 . S
C297 C301 1.495 . S
C298 C297 1.392 . S
C298 C299 1.385 . S
C298 C300 1.478 . S
C299 H293 0.930 . S
C299 C295 1.400 . S
C299 C298 1.385 . S
C300 C298 1.478 . S
C300 C302 1.381 . S
C300 C306 1.383 . S
C301 C297 1.495 . S
C301 H307 0.959 . S
C301 H308 0.961 . S
C301 H309 0.960 . S
C302 C300 1.381 . S
C302 C303 1.394 . S
C302 H310 0.930 . S
C303 C302 1.394 . S
C303 C304 1.383 . S
C303 H311 0.929 . S
C304 C303 1.383 . S
C304 C305 1.377 . S
C305 H289 0.930 . S
C305 C304 1.377 . S
C305 C306 1.379 . S
C306 H290 0.931 . S
C306 C300 1.383 . S
C306 C305 1.379 . S
H307 C301 0.959 . S
H308 C301 0.961 . S
H309 C301 0.960 . S
H310 C302 0.930 . S
H311 C303 0.929 . S
H312 C320 0.929 . S
H313 C322 0.930 . S
H314 C324 0.930 . S
H315 C327 0.929 . S
H316 C330 0.930 . S
H317 C332 0.960 . S
H318 C332 0.960 . S
H319 C332 0.960 1_554 S
C320 H312 0.929 . S
C320 C321 1.377 1_556 S
C320 C322 1.384 . S
C321 C320 1.377 1_554 S
C321 C327 1.390 . S
C322 H313 0.930 . S
C322 C320 1.384 . S
C322 C323 1.372 . S
C323 C322 1.372 . S
C323 C324 1.400 1_556 S
C323 C328 1.490 . S
C324 H314 0.930 . S
C324 C323 1.400 1_554 S
C324 C327 1.386 . S
H325 C341 0.930 . S
H326 C342 0.931 . S
C327 H315 0.929 . S
C327 C321 1.390 . S
C327 C324 1.386 . S
C328 C323 1.490 . S
C328 C330 1.395 . S
C328 C331 1.403 . S
H329 C335 0.930 . S
C330 H316 0.930 . S
C330 C328 1.395 . S
C330 C333 1.403 . S
C331 C328 1.403 . S
C331 C332 1.524 . S
C331 C335 1.400 . S
C332 H317 0.960 . S
C332 H318 0.960 . S
C332 H319 0.960 1_556 S
C332 C331 1.524 . S
C333 C330 1.403 . S
C333 C334 1.392 . S
C333 C337 1.495 . S
C334 C333 1.392 . S
C334 C335 1.385 . S
C334 C336 1.478 . S
C335 H329 0.930 . S
C335 C331 1.400 . S
C335 C334 1.385 . S
C336 C334 1.478 . S
C336 C338 1.381 . S
C336 C342 1.383 . S
C337 C333 1.495 . S
C337 H343 0.959 . S
C337 H344 0.961 . S
C337 H345 0.960 . S
C338 C336 1.381 . S
C338 C339 1.394 . S
C338 H346 0.930 . S
C339 C338 1.394 . S
C339 C340 1.383 . S
C339 H347 0.929 . S
C340 C339 1.383 . S
C340 C341 1.377 . S
C341 H325 0.930 . S
C341 C340 1.377 . S
C341 C342 1.379 . S
C342 H326 0.931 . S
C342 C336 1.383 . S
C342 C341 1.379 . S
H343 C337 0.959 . S
H344 C337 0.961 . S
H345 C337 0.960 . S
H346 C338 0.930 . S
H347 C339 0.929 . S
H348 C356 0.929 . S
H349 C358 0.930 . S
H350 C360 0.930 . S
H351 C363 0.929 . S
H352 C366 0.930 . S
H353 C368 0.960 . S
H354 C368 0.960 . S
H355 C368 0.960 . S
C356 H348 0.929 . S
C356 C357 1.377 . S
C356 C358 1.384 . S
C357 C356 1.377 . S
C357 C363 1.390 . S
C358 H349 0.930 . S
C358 C356 1.384 . S
C358 C359 1.372 . S
C359 C358 1.372 . S
C359 C360 1.400 . S
C359 C364 1.490 . S
C360 H350 0.930 . S
C360 C359 1.400 . S
C360 C363 1.386 . S
H361 C377 0.930 . S
H362 C378 0.931 . S
C363 H351 0.929 . S
C363 C357 1.390 . S
C363 C360 1.386 . S
C364 C359 1.490 . S
C364 C366 1.395 . S
C364 C367 1.403 . S
H365 C371 0.930 . S
C366 H352 0.930 . S
C366 C364 1.395 . S
C366 C369 1.403 . S
C367 C364 1.403 . S
C367 C368 1.524 . S
C367 C371 1.400 . S
C368 H353 0.960 . S
C368 H354 0.960 . S
C368 H355 0.960 . S
C368 C367 1.524 . S
C369 C366 1.403 . S
C369 C370 1.392 . S
C369 C373 1.495 . S
C370 C369 1.392 . S
C370 C371 1.385 . S
C370 C372 1.478 . S
C371 H365 0.930 . S
C371 C367 1.400 . S
C371 C370 1.385 . S
C372 C370 1.478 . S
C372 C374 1.381 . S
C372 C378 1.383 . S
C373 C369 1.495 . S
C373 H379 0.959 . S
C373 H380 0.961 . S
C373 H381 0.960 . S
C374 C372 1.381 . S
C374 C375 1.394 . S
C374 H382 0.930 . S
C375 C374 1.394 . S
C375 C376 1.383 . S
C375 H383 0.929 . S
C376 C375 1.383 . S
C376 C377 1.377 . S
C377 H361 0.930 . S
C377 C376 1.377 . S
C377 C378 1.379 . S
C378 H362 0.931 . S
C378 C372 1.383 . S
C378 C377 1.379 . S
H379 C373 0.959 . S
H380 C373 0.961 . S
H381 C373 0.960 . S
H382 C374 0.930 . S
H383 C375 0.929 . S
H384 C392 0.929 . S
H385 C394 0.930 1_556 S
H386 C396 0.930 . S
H387 C399 0.929 . S
H388 C402 0.930 . S
H389 C404 0.960 . S
H390 C404 0.960 . S
H391 C404 0.960 . S
C392 H384 0.929 . S
C392 C393 1.377 . S
C392 C394 1.388 . S
C393 C392 1.377 . S
C393 C399 1.390 . S
C394 H385 0.930 1_554 S
C394 C392 1.388 . S
C394 C395 1.368 1_554 S
C395 C394 1.368 1_556 S
C395 C396 1.400 . S
C395 C400 1.490 . S
C396 H386 0.930 . S
C396 C395 1.400 . S
C396 C399 1.386 1_556 S
H397 C413 0.930 . S
H398 C414 0.931 . S
C399 H387 0.929 . S
C399 C393 1.390 . S
C399 C396 1.386 1_554 S
C400 C395 1.490 . S
C400 C402 1.395 . S
C400 C403 1.403 . S
H401 C407 0.930 . S
C402 H388 0.930 . S
C402 C400 1.395 . S
C402 C405 1.403 . S
C403 C400 1.403 . S
C403 C404 1.524 . S
C403 C407 1.400 . S
C404 H389 0.960 . S
C404 H390 0.960 . S
C404 H391 0.960 . S
C404 C403 1.524 . S
C405 C402 1.403 . S
C405 C406 1.392 . S
C405 C409 1.495 . S
C406 C405 1.392 . S
C406 C407 1.385 . S
C406 C408 1.478 . S
C407 H401 0.930 . S
C407 C403 1.400 . S
C407 C406 1.385 . S
C408 C406 1.478 . S
C408 C410 1.381 . S
C408 C414 1.383 . S
C409 C405 1.495 . S
C409 H415 0.959 . S
C409 H416 0.961 . S
C409 H417 0.960 . S
C410 C408 1.381 . S
C410 C411 1.394 . S
C410 H418 0.930 . S
C411 C410 1.394 . S
C411 C412 1.383 . S
C411 H419 0.929 . S
C412 C411 1.383 . S
C412 C413 1.377 . S
C413 H397 0.930 . S
C413 C412 1.377 . S
C413 C414 1.379 . S
C414 H398 0.931 . S
C414 C408 1.383 . S
C414 C413 1.379 . S
H415 C409 0.959 . S
H416 C409 0.961 . S
H417 C409 0.960 . S
H418 C410 0.930 . S
H419 C411 0.929 . S
H420 C428 0.929 . S
H421 C430 0.930 . S
H422 C432 0.930 . S
H423 C435 0.929 . S
H424 C438 0.930 . S
H425 C440 0.960 . S
H426 C440 0.960 . S
H427 C440 0.960 . S
C428 H420 0.929 . S
C428 C429 1.377 . S
C428 C430 1.384 . S
C429 C428 1.377 . S
C429 C435 1.390 . S
C430 H421 0.930 . S
C430 C428 1.384 . S
C430 C431 1.372 . S
C431 C430 1.372 . S
C431 C432 1.400 . S
C431 C436 1.490 . S
C432 H422 0.930 . S
C432 C431 1.400 . S
C432 C435 1.386 . S
H433 C449 0.930 . S
H434 C450 0.931 . S
C435 H423 0.929 . S
C435 C429 1.390 . S
C435 C432 1.386 . S
C436 C431 1.490 . S
C436 C438 1.395 . S
C436 C439 1.403 . S
H437 C443 0.930 . S
C438 H424 0.930 . S
C438 C436 1.395 . S
C438 C441 1.403 . S
C439 C436 1.403 . S
C439 C440 1.524 . S
C439 C443 1.400 . S
C440 H425 0.960 . S
C440 H426 0.960 . S
C440 H427 0.960 . S
C440 C439 1.524 . S
C441 C438 1.403 . S
C441 C442 1.392 . S
C441 C445 1.495 . S
C442 C441 1.392 . S
C442 C443 1.385 . S
C442 C444 1.478 . S
C443 H437 0.930 . S
C443 C439 1.400 . S
C443 C442 1.385 . S
C444 C442 1.478 . S
C444 C446 1.381 . S
C444 C450 1.383 . S
C445 C441 1.495 . S
C445 H451 0.959 . S
C445 H452 0.961 . S
C445 H453 0.960 . S
C446 C444 1.381 . S
C446 C447 1.394 . S
C446 H454 0.930 . S
C447 C446 1.394 . S
C447 C448 1.383 . S
C447 H455 0.929 . S
C448 C447 1.383 . S
C448 C449 1.377 . S
C449 H433 0.930 . S
C449 C448 1.377 . S
C449 C450 1.379 . S
C450 H434 0.931 . S
C450 C444 1.383 . S
C450 C449 1.379 . S
H451 C445 0.959 . S
H452 C445 0.961 . S
H453 C445 0.960 . S
H454 C446 0.930 . S
H455 C447 0.929 . S
H456 C464 0.929 1_556 S
H457 C466 0.930 . S
H458 C468 0.930 . S
H459 C471 0.929 . S
H460 C474 0.930 . S
H461 C476 0.960 . S
H462 C476 0.960 1_556 S
H463 C476 0.960 . S
C464 H456 0.929 1_554 S
C464 C465 1.377 . S
C464 C466 1.384 1_554 S
C465 C464 1.377 . S
C465 C471 1.390 . S
C466 H457 0.930 . S
C466 C464 1.384 1_556 S
C466 C467 1.377 . S
C467 C466 1.377 . S
C467 C468 1.387 1_556 S
C467 C472 1.497 . S
C468 H458 0.930 . S
C468 C467 1.387 1_554 S
C468 C471 1.386 . S
H469 C485 0.930 . S
H470 C486 0.931 . S
C471 H459 0.929 . S
C471 C465 1.390 . S
C471 C468 1.386 . S
C472 C467 1.497 . S
C472 C474 1.395 . S
C472 C475 1.403 . S
H473 C479 0.930 . S
C474 H460 0.930 . S
C474 C472 1.395 . S
C474 C477 1.403 . S
C475 C472 1.403 . S
C475 C476 1.524 1_556 S
C475 C479 1.400 . S
C476 H461 0.960 . S
C476 H462 0.960 1_554 S
C476 H463 0.960 . S
C476 C475 1.524 1_554 S
C477 C474 1.403 . S
C477 C478 1.392 . S
C477 C481 1.495 . S
C478 C477 1.392 . S
C478 C479 1.385 . S
C478 C480 1.478 . S
C479 H473 0.930 . S
C479 C475 1.400 . S
C479 C478 1.385 . S
C480 C478 1.478 . S
C480 C482 1.381 . S
C480 C486 1.383 . S
C481 C477 1.495 . S
C481 H487 0.959 . S
C481 H488 0.961 . S
C481 H489 0.960 . S
C482 C480 1.381 . S
C482 C483 1.394 . S
C482 H490 0.930 . S
C483 C482 1.394 . S
C483 C484 1.383 . S
C483 H491 0.929 . S
C484 C483 1.383 . S
C484 C485 1.377 . S
C485 H469 0.930 . S
C485 C484 1.377 . S
C485 C486 1.379 . S
C486 H470 0.931 . S
C486 C480 1.383 . S
C486 C485 1.379 . S
H487 C481 0.959 . S
H488 C481 0.961 . S
H489 C481 0.960 . S
H490 C482 0.930 . S
H491 C483 0.929 . S
H492 C500 0.929 . S
H493 C502 0.930 . S
H494 C504 0.930 . S
H495 C507 0.929 . S
H496 C510 0.930 . S
H497 C512 0.960 . S
H498 C512 0.960 . S
H499 C512 0.960 . S
C500 H492 0.929 . S
C500 C501 1.377 . S
C500 C502 1.384 . S
C501 C500 1.377 . S
C501 C507 1.390 . S
C502 H493 0.930 . S
C502 C500 1.384 . S
C502 C503 1.372 . S
C503 C502 1.372 . S
C503 C504 1.400 . S
C503 C508 1.490 . S
C504 H494 0.930 . S
C504 C503 1.400 . S
C504 C507 1.386 . S
H505 C521 0.930 . S
H506 C522 0.931 . S
C507 H495 0.929 . S
C507 C501 1.390 . S
C507 C504 1.386 . S
C508 C503 1.490 . S
C508 C510 1.395 . S
C508 C511 1.403 . S
H509 C515 0.930 . S
C510 H496 0.930 . S
C510 C508 1.395 . S
C510 C513 1.403 . S
C511 C508 1.403 . S
C511 C512 1.524 . S
C511 C515 1.400 . S
C512 H497 0.960 . S
C512 H498 0.960 . S
C512 H499 0.960 . S
C512 C511 1.524 . S
C513 C510 1.403 . S
C513 C514 1.392 . S
C513 C517 1.495 . S
C514 C513 1.392 . S
C514 C515 1.385 . S
C514 C516 1.478 . S
C515 H509 0.930 . S
C515 C511 1.400 . S
C515 C514 1.385 . S
C516 C514 1.478 . S
C516 C518 1.381 . S
C516 C522 1.383 . S
C517 C513 1.495 . S
C517 H523 0.959 . S
C517 H524 0.961 . S
C517 H525 0.960 . S
C518 C516 1.381 . S
C518 C519 1.394 . S
C518 H526 0.930 . S
C519 C518 1.394 . S
C519 C520 1.383 . S
C519 H527 0.929 . S
C520 C519 1.383 . S
C520 C521 1.377 . S
C521 H505 0.930 . S
C521 C520 1.377 . S
C521 C522 1.379 . S
C522 H506 0.931 . S
C522 C516 1.383 . S
C522 C521 1.379 . S
H523 C517 0.959 . S
H524 C517 0.961 . S
H525 C517 0.960 . S
H526 C518 0.930 . S
H527 C519 0.929 . S
C105 C8 1.328 . S
C124 C80 1.332 . S
C160 C74 1.705 . S
C141 C29 1.697 . S
C196 C48 1.355 . S
C177 C10 1.384 . S
C232 C94 2.055 . S
C213 C37 2.110 . S
C268 C89 0.256 . S
C249 C18 0.214 . S
C285 C43 2.021 . S
C304 C70 1.974 . S
C321 C21 2.021 . S
C340 C76 1.972 . S
C357 C40 0.230 . S
C376 C83 0.346 . S
C393 C15 2.112 . S
C412 C92 2.013 . S
C429 C32 1.386 . S
C448 C62 1.375 . S
C484 C78 1.709 . S
C465 C7 1.702 . S
C501 C30 1.328 . S
C520 C86 1.323 . S
