# Generated by pormake.
# Topology iac, (4,6)-cn, num edge types: 1
# Building blocks:
#     Node 0, Type 0, BuildingBlock: NAHDIM_clean_sbu_0, # of connection points: 4
#     Node 1, Type 0, BuildingBlock: NAHDIM_clean_sbu_0, # of connection points: 4
#     Node 2, Type 0, BuildingBlock: NAHDIM_clean_sbu_0, # of connection points: 4
#     Node 3, Type 0, BuildingBlock: NAHDIM_clean_sbu_0, # of connection points: 4
#     Node 4, Type 0, BuildingBlock: NAHDIM_clean_sbu_0, # of connection points: 4
#     Node 5, Type 0, BuildingBlock: NAHDIM_clean_sbu_0, # of connection points: 4
#     Node 6, Type 0, BuildingBlock: NAHDIM_clean_sbu_0, # of connection points: 4
#     Node 7, Type 0, BuildingBlock: NAHDIM_clean_sbu_0, # of connection points: 4
#     Node 8, Type 0, BuildingBlock: NAHDIM_clean_sbu_0, # of connection points: 4
#     Node 9, Type 0, BuildingBlock: NAHDIM_clean_sbu_0, # of connection points: 4
#     Node 10, Type 0, BuildingBlock: NAHDIM_clean_sbu_0, # of connection points: 4
#     Node 11, Type 0, BuildingBlock: NAHDIM_clean_sbu_0, # of connection points: 4
#     Node 12, Type 0, BuildingBlock: NAHDIM_clean_sbu_0, # of connection points: 4
#     Node 13, Type 0, BuildingBlock: NAHDIM_clean_sbu_0, # of connection points: 4
#     Node 14, Type 0, BuildingBlock: NAHDIM_clean_sbu_0, # of connection points: 4
#     Node 15, Type 0, BuildingBlock: NAHDIM_clean_sbu_0, # of connection points: 4
#     Node 16, Type 0, BuildingBlock: NAHDIM_clean_sbu_0, # of connection points: 4
#     Node 17, Type 0, BuildingBlock: NAHDIM_clean_sbu_0, # of connection points: 4
#     Node 18, Type 0, BuildingBlock: NAHDIM_clean_sbu_0, # of connection points: 4
#     Node 19, Type 0, BuildingBlock: NAHDIM_clean_sbu_0, # of connection points: 4
#     Node 20, Type 0, BuildingBlock: NAHDIM_clean_sbu_0, # of connection points: 4
#     Node 21, Type 0, BuildingBlock: NAHDIM_clean_sbu_0, # of connection points: 4
#     Node 22, Type 0, BuildingBlock: NAHDIM_clean_sbu_0, # of connection points: 4
#     Node 23, Type 0, BuildingBlock: NAHDIM_clean_sbu_0, # of connection points: 4
#     Node 24, Type 1, BuildingBlock: FUNLAD_clean_sbu_0, # of connection points: 6
#     Node 25, Type 1, BuildingBlock: FUNLAD_clean_sbu_0, # of connection points: 6
#     Node 26, Type 1, BuildingBlock: FUNLAD_clean_sbu_0, # of connection points: 6
#     Node 27, Type 1, BuildingBlock: FUNLAD_clean_sbu_0, # of connection points: 6
#     Node 28, Type 1, BuildingBlock: FUNLAD_clean_sbu_0, # of connection points: 6
#     Node 29, Type 1, BuildingBlock: FUNLAD_clean_sbu_0, # of connection points: 6
#     Node 30, Type 1, BuildingBlock: FUNLAD_clean_sbu_0, # of connection points: 6
#     Node 31, Type 1, BuildingBlock: FUNLAD_clean_sbu_0, # of connection points: 6
#     Node 32, Type 1, BuildingBlock: FUNLAD_clean_sbu_0, # of connection points: 6
#     Node 33, Type 1, BuildingBlock: FUNLAD_clean_sbu_0, # of connection points: 6
#     Node 34, Type 1, BuildingBlock: FUNLAD_clean_sbu_0, # of connection points: 6
#     Node 35, Type 1, BuildingBlock: FUNLAD_clean_sbu_0, # of connection points: 6
#     Node 36, Type 1, BuildingBlock: FUNLAD_clean_sbu_0, # of connection points: 6
#     Node 37, Type 1, BuildingBlock: FUNLAD_clean_sbu_0, # of connection points: 6
#     Node 38, Type 1, BuildingBlock: FUNLAD_clean_sbu_0, # of connection points: 6
#     Node 39, Type 1, BuildingBlock: FUNLAD_clean_sbu_0, # of connection points: 6
#     Edge 40, Type (0, 1), BuildingBlock: XIVTED_clean_linker_0, # of connection points: 2
#     Edge 41, Type (0, 1), BuildingBlock: XIVTED_clean_linker_0, # of connection points: 2
#     Edge 42, Type (0, 1), BuildingBlock: XIVTED_clean_linker_0, # of connection points: 2
#     Edge 43, Type (0, 1), BuildingBlock: XIVTED_clean_linker_0, # of connection points: 2
#     Edge 44, Type (0, 1), BuildingBlock: XIVTED_clean_linker_0, # of connection points: 2
#     Edge 45, Type (0, 1), BuildingBlock: XIVTED_clean_linker_0, # of connection points: 2
#     Edge 46, Type (0, 1), BuildingBlock: XIVTED_clean_linker_0, # of connection points: 2
#     Edge 47, Type (0, 1), BuildingBlock: XIVTED_clean_linker_0, # of connection points: 2
#     Edge 48, Type (0, 1), BuildingBlock: XIVTED_clean_linker_0, # of connection points: 2
#     Edge 49, Type (0, 1), BuildingBlock: XIVTED_clean_linker_0, # of connection points: 2
#     Edge 50, Type (0, 1), BuildingBlock: XIVTED_clean_linker_0, # of connection points: 2
#     Edge 51, Type (0, 1), BuildingBlock: XIVTED_clean_linker_0, # of connection points: 2
#     Edge 52, Type (0, 1), BuildingBlock: XIVTED_clean_linker_0, # of connection points: 2
#     Edge 53, Type (0, 1), BuildingBlock: XIVTED_clean_linker_0, # of connection points: 2
#     Edge 54, Type (0, 1), BuildingBlock: XIVTED_clean_linker_0, # of connection points: 2
#     Edge 55, Type (0, 1), BuildingBlock: XIVTED_clean_linker_0, # of connection points: 2
#     Edge 56, Type (0, 1), BuildingBlock: XIVTED_clean_linker_0, # of connection points: 2
#     Edge 57, Type (0, 1), BuildingBlock: XIVTED_clean_linker_0, # of connection points: 2
#     Edge 58, Type (0, 1), BuildingBlock: XIVTED_clean_linker_0, # of connection points: 2
#     Edge 59, Type (0, 1), BuildingBlock: XIVTED_clean_linker_0, # of connection points: 2
#     Edge 60, Type (0, 1), BuildingBlock: XIVTED_clean_linker_0, # of connection points: 2
#     Edge 61, Type (0, 1), BuildingBlock: XIVTED_clean_linker_0, # of connection points: 2
#     Edge 62, Type (0, 1), BuildingBlock: XIVTED_clean_linker_0, # of connection points: 2
#     Edge 63, Type (0, 1), BuildingBlock: XIVTED_clean_linker_0, # of connection points: 2
#     Edge 64, Type (0, 1), BuildingBlock: XIVTED_clean_linker_0, # of connection points: 2
#     Edge 65, Type (0, 1), BuildingBlock: XIVTED_clean_linker_0, # of connection points: 2
#     Edge 66, Type (0, 1), BuildingBlock: XIVTED_clean_linker_0, # of connection points: 2
#     Edge 67, Type (0, 1), BuildingBlock: XIVTED_clean_linker_0, # of connection points: 2
#     Edge 68, Type (0, 1), BuildingBlock: XIVTED_clean_linker_0, # of connection points: 2
#     Edge 69, Type (0, 1), BuildingBlock: XIVTED_clean_linker_0, # of connection points: 2
#     Edge 70, Type (0, 1), BuildingBlock: XIVTED_clean_linker_0, # of connection points: 2
#     Edge 71, Type (0, 1), BuildingBlock: XIVTED_clean_linker_0, # of connection points: 2
#     Edge 72, Type (0, 1), BuildingBlock: XIVTED_clean_linker_0, # of connection points: 2
#     Edge 73, Type (0, 1), BuildingBlock: XIVTED_clean_linker_0, # of connection points: 2
#     Edge 74, Type (0, 1), BuildingBlock: XIVTED_clean_linker_0, # of connection points: 2
#     Edge 75, Type (0, 1), BuildingBlock: XIVTED_clean_linker_0, # of connection points: 2
#     Edge 76, Type (0, 1), BuildingBlock: XIVTED_clean_linker_0, # of connection points: 2
#     Edge 77, Type (0, 1), BuildingBlock: XIVTED_clean_linker_0, # of connection points: 2
#     Edge 78, Type (0, 1), BuildingBlock: XIVTED_clean_linker_0, # of connection points: 2
#     Edge 79, Type (0, 1), BuildingBlock: XIVTED_clean_linker_0, # of connection points: 2
#     Edge 80, Type (0, 1), BuildingBlock: XIVTED_clean_linker_0, # of connection points: 2
#     Edge 81, Type (0, 1), BuildingBlock: XIVTED_clean_linker_0, # of connection points: 2
#     Edge 82, Type (0, 1), BuildingBlock: XIVTED_clean_linker_0, # of connection points: 2
#     Edge 83, Type (0, 1), BuildingBlock: XIVTED_clean_linker_0, # of connection points: 2
#     Edge 84, Type (0, 1), BuildingBlock: XIVTED_clean_linker_0, # of connection points: 2
#     Edge 85, Type (0, 1), BuildingBlock: XIVTED_clean_linker_0, # of connection points: 2
#     Edge 86, Type (0, 1), BuildingBlock: XIVTED_clean_linker_0, # of connection points: 2
#     Edge 87, Type (0, 1), BuildingBlock: XIVTED_clean_linker_0, # of connection points: 2
#     Edge 88, Type (0, 1), BuildingBlock: XIVTED_clean_linker_0, # of connection points: 2
#     Edge 89, Type (0, 1), BuildingBlock: XIVTED_clean_linker_0, # of connection points: 2
#     Edge 90, Type (0, 1), BuildingBlock: XIVTED_clean_linker_0, # of connection points: 2
#     Edge 91, Type (0, 1), BuildingBlock: XIVTED_clean_linker_0, # of connection points: 2
#     Edge 92, Type (0, 1), BuildingBlock: XIVTED_clean_linker_0, # of connection points: 2
#     Edge 93, Type (0, 1), BuildingBlock: XIVTED_clean_linker_0, # of connection points: 2
#     Edge 94, Type (0, 1), BuildingBlock: XIVTED_clean_linker_0, # of connection points: 2
#     Edge 95, Type (0, 1), BuildingBlock: XIVTED_clean_linker_0, # of connection points: 2
#     Edge 96, Type (0, 1), BuildingBlock: XIVTED_clean_linker_0, # of connection points: 2
#     Edge 97, Type (0, 1), BuildingBlock: XIVTED_clean_linker_0, # of connection points: 2
#     Edge 98, Type (0, 1), BuildingBlock: XIVTED_clean_linker_0, # of connection points: 2
#     Edge 99, Type (0, 1), BuildingBlock: XIVTED_clean_linker_0, # of connection points: 2
#     Edge 100, Type (0, 1), BuildingBlock: XIVTED_clean_linker_0, # of connection points: 2
#     Edge 101, Type (0, 1), BuildingBlock: XIVTED_clean_linker_0, # of connection points: 2
#     Edge 102, Type (0, 1), BuildingBlock: XIVTED_clean_linker_0, # of connection points: 2
#     Edge 103, Type (0, 1), BuildingBlock: XIVTED_clean_linker_0, # of connection points: 2
#     Edge 104, Type (0, 1), BuildingBlock: XIVTED_clean_linker_0, # of connection points: 2
#     Edge 105, Type (0, 1), BuildingBlock: XIVTED_clean_linker_0, # of connection points: 2
#     Edge 106, Type (0, 1), BuildingBlock: XIVTED_clean_linker_0, # of connection points: 2
#     Edge 107, Type (0, 1), BuildingBlock: XIVTED_clean_linker_0, # of connection points: 2
#     Edge 108, Type (0, 1), BuildingBlock: XIVTED_clean_linker_0, # of connection points: 2
#     Edge 109, Type (0, 1), BuildingBlock: XIVTED_clean_linker_0, # of connection points: 2
#     Edge 110, Type (0, 1), BuildingBlock: XIVTED_clean_linker_0, # of connection points: 2
#     Edge 111, Type (0, 1), BuildingBlock: XIVTED_clean_linker_0, # of connection points: 2
#     Edge 112, Type (0, 1), BuildingBlock: XIVTED_clean_linker_0, # of connection points: 2
#     Edge 113, Type (0, 1), BuildingBlock: XIVTED_clean_linker_0, # of connection points: 2
#     Edge 114, Type (0, 1), BuildingBlock: XIVTED_clean_linker_0, # of connection points: 2
#     Edge 115, Type (0, 1), BuildingBlock: XIVTED_clean_linker_0, # of connection points: 2
#     Edge 116, Type (0, 1), BuildingBlock: XIVTED_clean_linker_0, # of connection points: 2
#     Edge 117, Type (0, 1), BuildingBlock: XIVTED_clean_linker_0, # of connection points: 2
#     Edge 118, Type (0, 1), BuildingBlock: XIVTED_clean_linker_0, # of connection points: 2
#     Edge 119, Type (0, 1), BuildingBlock: XIVTED_clean_linker_0, # of connection points: 2
#     Edge 120, Type (0, 1), BuildingBlock: XIVTED_clean_linker_0, # of connection points: 2
#     Edge 121, Type (0, 1), BuildingBlock: XIVTED_clean_linker_0, # of connection points: 2
#     Edge 122, Type (0, 1), BuildingBlock: XIVTED_clean_linker_0, # of connection points: 2
#     Edge 123, Type (0, 1), BuildingBlock: XIVTED_clean_linker_0, # of connection points: 2
#     Edge 124, Type (0, 1), BuildingBlock: XIVTED_clean_linker_0, # of connection points: 2
#     Edge 125, Type (0, 1), BuildingBlock: XIVTED_clean_linker_0, # of connection points: 2
#     Edge 126, Type (0, 1), BuildingBlock: XIVTED_clean_linker_0, # of connection points: 2
#     Edge 127, Type (0, 1), BuildingBlock: XIVTED_clean_linker_0, # of connection points: 2
#     Edge 128, Type (0, 1), BuildingBlock: XIVTED_clean_linker_0, # of connection points: 2
#     Edge 129, Type (0, 1), BuildingBlock: XIVTED_clean_linker_0, # of connection points: 2
#     Edge 130, Type (0, 1), BuildingBlock: XIVTED_clean_linker_0, # of connection points: 2
#     Edge 131, Type (0, 1), BuildingBlock: XIVTED_clean_linker_0, # of connection points: 2
#     Edge 132, Type (0, 1), BuildingBlock: XIVTED_clean_linker_0, # of connection points: 2
#     Edge 133, Type (0, 1), BuildingBlock: XIVTED_clean_linker_0, # of connection points: 2
#     Edge 134, Type (0, 1), BuildingBlock: XIVTED_clean_linker_0, # of connection points: 2
#     Edge 135, Type (0, 1), BuildingBlock: XIVTED_clean_linker_0, # of connection points: 2
# Relax obj value: 0.338
# Max RMSD: 0.281
# Mean RMSD: 0.169
data_MOF--net-iac--node1-NAHDIM_clean_sbu_0--node2-FUNLAD_clean_sbu_0--edge1-XIVTED_clean_linker_0
_symmetry_space_group_name_H-M    P1
_symmetry_Int_Tables_number       1
_symmetry_cell_setting            triclinic
loop_
_symmetry_equiv_pos_as_xyz
'x, y, z'
_cell_length_a     56.423353
_cell_length_b     53.20218
_cell_length_c     57.463593
_cell_angle_alpha  89.867048
_cell_angle_beta   92.622906
_cell_angle_gamma 90.615718
loop_
_atom_site_label
_atom_site_type_symbol
_atom_site_fract_x
_atom_site_fract_y
_atom_site_fract_z
_atom_type_partial_charge
C0 C 0.02832 0.16029 0.18408 0.0
O1 O 0.03314 0.15304 0.16299 0.0
O2 O 0.03283 0.20162 0.13721 0.0
Zn3 Zn 0.04953 0.20562 0.16843 0.0
O4 O 0.04437 0.24148 0.17726 0.0
C5 C 0.09584 0.20349 0.14824 0.0
O6 O 0.08418 0.2019 0.12799 0.0
O7 O 0.03504 0.18202 0.19096 0.0
C8 C 0.0609 0.25517 0.18633 0.0
O9 O 0.08089 0.24472 0.1936 0.0
C10 C 0.03349 0.21834 0.1214 0.0
O11 O 0.04647 0.23876 0.12478 0.0
O12 O 0.0846 0.20151 0.16683 0.0
C13 C 0.09535 0.7738 0.38137 0.0
O14 O 0.09676 0.77828 0.40388 0.0
O15 O 0.04599 0.7365 0.41179 0.0
Zn16 Zn 0.04605 0.76789 0.39149 0.0
O17 O 0.04606 0.79887 0.41205 0.0
C18 C 0.0029 0.74802 0.36875 0.0
O19 O 0.01008 0.72742 0.3794 0.0
O20 O 0.07515 0.76861 0.37172 0.0
C21 C 0.04714 0.82061 0.4029 0.0
O22 O 0.04847 0.82246 0.38019 0.0
C23 C 0.049 0.73632 0.43387 0.0
O24 O 0.05379 0.75753 0.44486 0.0
O25 O 0.01569 0.76784 0.37073 0.0
C26 C 0.50378 0.65567 0.7138 0.0
O27 O 0.51327 0.64312 0.69695 0.0
O28 O 0.50963 0.68178 0.66038 0.0
Zn29 Zn 0.52589 0.6939 0.68982 0.0
O30 O 0.52604 0.73164 0.68864 0.0
C31 C 0.57182 0.68115 0.6741 0.0
O32 O 0.56161 0.68455 0.65335 0.0
O33 O 0.50794 0.67913 0.71564 0.0
C34 C 0.54479 0.74442 0.69345 0.0
O35 O 0.56351 0.73311 0.70278 0.0
C36 C 0.50863 0.69342 0.64105 0.0
O37 O 0.51941 0.71528 0.63911 0.0
O38 O 0.55936 0.68224 0.69192 0.0
C39 C 0.58549 0.26901 0.87738 0.0
O40 O 0.58744 0.27047 0.90021 0.0
O41 O 0.53907 0.22943 0.90534 0.0
Zn42 Zn 0.53693 0.26309 0.88863 0.0
O43 O 0.53722 0.29239 0.91143 0.0
C44 C 0.48686 0.26066 0.88071 0.0
O45 O 0.48873 0.25714 0.90337 0.0
O46 O 0.56494 0.26613 0.86764 0.0
C47 C 0.53588 0.31441 0.90281 0.0
O48 O 0.53489 0.31692 0.88003 0.0
C49 C 0.54676 0.22657 0.92633 0.0
O50 O 0.55367 0.24643 0.93849 0.0
O51 O 0.50572 0.2638 0.86967 0.0
C52 C 0.17914 0.99486 0.2134 0.0
O53 O 0.16917 -0.0025 0.19244 0.0
O54 O 0.12923 0.03597 0.1974 0.0
Zn55 Zn 0.15094 0.03855 0.22629 0.0
O56 O 0.13321 0.03944 0.25564 0.0
C57 C 0.18789 0.07455 0.21433 0.0
O58 O 0.1958 0.05639 0.20141 0.0
O59 O 0.17387 0.00989 0.22946 0.0
C60 C 0.12081 0.05812 0.26117 0.0
O61 O 0.11765 0.07675 0.24633 0.0
C62 C 0.10679 0.03325 0.19728 0.0
O63 O 0.09629 0.03094 0.21712 0.0
O64 O 0.16932 0.07091 0.22562 0.0
C65 C 0.25443 0.95307 0.5533 0.0
O66 O 0.27006 0.95389 0.53707 0.0
O67 O 0.27202 0.8821 0.59125 0.0
Zn68 Zn 0.28178 0.91018 0.56991 0.0
O69 O 0.28465 0.89722 0.53725 0.0
C70 C 0.33092 0.9092 0.58257 0.0
O71 O 0.32656 0.88494 0.58115 0.0
O72 O 0.25651 0.93665 0.56936 0.0
C73 C 0.30008 0.90647 0.52409 0.0
O74 O 0.31403 0.9248 0.53188 0.0
C75 C 0.27452 0.85892 0.58667 0.0
O76 O 0.28418 0.85243 0.56723 0.0
O77 O 0.31371 0.92436 0.58016 0.0
C78 C 0.36397 0.03703 0.73205 0.0
O79 O 0.37081 0.03018 0.71147 0.0
O80 O 0.41308 -0.00331 0.72248 0.0
Zn81 Zn 0.39047 0.99343 0.74812 0.0
O82 O 0.41003 0.9899 0.77792 0.0
C83 C 0.38025 0.94145 0.73994 0.0
O84 O 0.40272 0.9415 0.73489 0.0
O85 O 0.37001 0.02397 0.74985 0.0
C86 C 0.43054 0.98018 0.77806 0.0
O87 O 0.43922 0.97296 0.75837 0.0
C88 C 0.42648 0.01598 0.72155 0.0
O89 O 0.42381 0.03458 0.73616 0.0
O90 O 0.37057 0.96208 0.74495 0.0
C91 C 0.32202 0.05371 0.00993 0.0
O92 O 0.31427 0.06923 0.99354 0.0
O93 O 0.30208 0.10571 0.04782 0.0
Zn94 Zn 0.28462 0.07483 0.03597 0.0
O95 O 0.26421 0.08573 0.00799 0.0
C96 C 0.245 0.05831 0.06576 0.0
O97 O 0.23777 0.05054 0.08598 0.0
O98 O 0.31058 0.05142 0.02834 0.0
C99 C 0.25316 0.10624 0.01021 0.0
O100 O 0.25325 0.11684 0.03085 0.0
C101 C 0.30973 0.12273 0.03441 0.0
O102 O 0.30603 0.12069 0.01177 0.0
O103 O 0.2671 0.06054 0.06292 0.0
C104 C 0.74744 0.42976 0.05169 0.0
O105 O 0.76417 0.43747 0.03813 0.0
O106 O 0.77651 0.36013 0.0857 0.0
Zn107 Zn 0.78041 0.38949 0.0639 0.0
O108 O 0.78486 0.37593 0.03185 0.0
C109 C 0.82908 0.39888 0.07607 0.0
O110 O 0.82907 0.3742 0.07581 0.0
O111 O 0.75077 0.41022 0.06413 0.0
C112 C 0.79687 0.38789 0.01719 0.0
O113 O 0.80551 0.41026 0.02256 0.0
C114 C 0.78367 0.33815 0.08117 0.0
O115 O 0.79484 0.33423 0.06197 0.0
O116 O 0.80952 0.41026 0.07272 0.0
C117 C 0.8551 0.52618 0.23117 0.0
O118 O 0.86795 0.52241 0.21303 0.0
O119 O 0.90909 0.4961 0.23078 0.0
Zn120 Zn 0.88266 0.48537 0.25104 0.0
O121 O 0.89379 0.48386 0.28462 0.0
C122 C 0.88103 0.43348 0.23521 0.0
O123 O 0.90361 0.43706 0.23144 0.0
O124 O 0.85767 0.51184 0.2488 0.0
C125 C 0.90676 0.46655 0.29332 0.0
O126 O 0.91425 0.44868 0.27985 0.0
C127 C 0.93053 0.50006 0.23768 0.0
O128 O 0.93726 0.49569 0.25946 0.0
O129 O 0.86886 0.45168 0.24227 0.0
C130 C 0.799 0.61151 0.59064 0.0
O131 O 0.7947 0.627 0.60766 0.0
O132 O 0.75558 0.5848 0.52721 0.0
Zn133 Zn 0.78608 0.58365 0.54751 0.0
O134 O 0.80997 0.60055 0.52797 0.0
C135 C 0.78343 0.52801 0.55057 0.0
O136 O 0.79312 0.50577 0.55301 0.0
O137 O 0.78195 0.60357 0.57728 0.0
C138 C 0.81285 0.5901 0.50847 0.0
O139 O 0.8049 0.56699 0.50536 0.0
C140 C 0.74127 0.60313 0.5261 0.0
O141 O 0.72096 0.60064 0.51421 0.0
O142 O 0.79626 0.5476 0.55358 0.0
C143 C 0.6992 0.49251 0.73956 0.0
O144 O 0.69095 0.50087 0.71927 0.0
O145 O 0.65358 0.53483 0.72847 0.0
Zn146 Zn 0.67695 0.53659 0.7558 0.0
O147 O 0.66018 0.54161 0.78515 0.0
C148 C 0.71895 0.56452 0.74233 0.0
O149 O 0.7233 0.54507 0.72922 0.0
O150 O 0.69508 0.50465 0.75791 0.0
C151 C 0.64343 0.55722 0.78645 0.0
O152 O 0.63618 0.56977 0.76778 0.0
C153 C 0.6349 0.52143 0.72988 0.0
O154 O 0.63074 0.51 0.7496 0.0
O155 O 0.70016 0.56495 0.75367 0.0
C156 C 0.03376 0.79977 0.88636 0.0
O157 O 0.0326 0.80465 0.90867 0.0
O158 O 0.97723 0.7631 0.90536 0.0
Zn159 Zn 0.98325 0.79532 0.88806 0.0
O160 O 0.98402 0.82523 0.90929 0.0
C161 C 0.93801 0.79657 0.86214 0.0
O162 O 0.92911 0.78971 0.88193 0.0
O163 O 0.01494 0.79426 0.87445 0.0
C164 C 0.96645 0.83664 0.91716 0.0
O165 O 0.94478 0.82893 0.91146 0.0
C166 C 0.97065 0.76273 0.92622 0.0
O167 O 0.96707 0.78403 0.93692 0.0
O168 O 0.9602 0.79982 0.86102 0.0
C169 C 0.97827 0.27125 0.66995 0.0
O170 O 0.97791 0.27145 0.64707 0.0
O171 O 0.02665 0.24078 0.64119 0.0
Zn172 Zn 0.02714 0.27203 0.66141 0.0
O173 O 0.02483 0.30406 0.64201 0.0
C174 C 0.07722 0.27078 0.67126 0.0
O175 O 0.0766 0.27235 0.64842 0.0
O176 O -0.00174 0.271 0.68114 0.0
C177 C 0.02107 0.32437 0.65284 0.0
O178 O 0.0202 0.32363 0.67564 0.0
C179 C 0.03247 0.24012 0.62008 0.0
O180 O 0.03851 0.26112 0.6097 0.0
O181 O 0.05774 0.2712 0.68158 0.0
C182 C 0.5506 0.26941 0.37281 0.0
O183 O 0.55091 0.26303 0.39493 0.0
O184 O 0.49708 0.24448 0.39681 0.0
Zn185 Zn 0.50189 0.27726 0.38056 0.0
O186 O 0.50504 0.30413 0.40481 0.0
C187 C 0.45368 0.28479 0.36547 0.0
O188 O 0.45026 0.28359 0.38791 0.0
O189 O 0.53119 0.27592 0.36267 0.0
C190 C 0.52218 0.31974 0.40656 0.0
O191 O 0.53803 0.32034 0.39053 0.0
C192 C 0.48855 0.24406 0.4169 0.0
O193 O 0.48261 0.26524 0.42665 0.0
O194 O 0.47456 0.2832 0.35841 0.0
C195 C 0.4864 0.7698 0.17671 0.0
O196 O 0.48623 0.76719 0.15397 0.0
O197 O 0.53299 0.7292 0.1521 0.0
Zn198 Zn 0.53518 0.7629 0.16864 0.0
O199 O 0.53535 0.79089 0.14455 0.0
C200 C 0.57311 0.74818 0.20272 0.0
O201 O 0.5581 0.73028 0.20812 0.0
O202 O 0.50617 0.7681 0.18823 0.0
C203 C 0.53259 0.81321 0.15171 0.0
O204 O 0.53005 0.81689 0.17406 0.0
C205 C 0.54563 0.72574 0.13463 0.0
O206 O 0.5593 0.74421 0.12775 0.0
O207 O 0.56676 0.76436 0.18737 0.0
C208 C 0.84199 0.04788 0.78205 0.0
O209 O 0.83964 0.03195 0.79932 0.0
O210 O 0.88965 0.00162 0.74108 0.0
Zn211 Zn 0.86572 0.00637 0.76538 0.0
O212 O 0.88064 0.002 0.79757 0.0
C213 C 0.82804 0.98568 0.73849 0.0
O214 O 0.83649 0.002 0.72371 0.0
O215 O 0.85303 0.04116 0.76436 0.0
C216 C 0.9029 0.00012 0.80145 0.0
O217 O 0.91665 -0.0028 0.78386 0.0
C218 C 0.90425 0.01902 0.73638 0.0
O219 O 0.90336 0.04057 0.74741 0.0
O220 O 0.83815 0.98346 0.75861 0.0
C221 C 0.82516 0.07376 0.4862 0.0
O222 O 0.81488 0.07821 0.46565 0.0
O223 O 0.78248 0.1233 0.52865 0.0
Zn224 Zn 0.78547 0.10129 0.50063 0.0
O225 O 0.78813 0.12174 0.47124 0.0
C226 C 0.73696 0.09131 0.50061 0.0
O227 O 0.73779 0.11596 0.49968 0.0
O228 O 0.81516 0.08095 0.50438 0.0
C229 C 0.77965 0.14324 0.46633 0.0
O230 O 0.76627 0.15451 0.48115 0.0
C231 C 0.79082 0.14529 0.53217 0.0
O232 O 0.80416 0.15587 0.51669 0.0
O233 O 0.75622 0.07924 0.4998 0.0
C234 C 0.68449 0.94041 0.32857 0.0
O235 O 0.68261 0.95088 0.34908 0.0
O236 O 0.62774 0.97797 0.28502 0.0
Zn237 Zn 0.64792 0.97544 0.31457 0.0
O238 O 0.62828 0.96988 0.3425 0.0
C239 C 0.68146 0.0097 0.30008 0.0
O240 O 0.68385 0.99075 0.28577 0.0
O241 O 0.6709 0.94736 0.3116 0.0
C242 C 0.62008 0.98822 0.35358 0.0
O243 O 0.62485 0.01129 0.34693 0.0
C244 C 0.61264 0.99542 0.28238 0.0
O245 O 0.6085 0.01003 0.30008 0.0
O246 O 0.66665 0.00771 0.31602 0.0
C247 C 0.70855 0.87402 0.0586 0.0
O248 O 0.69802 0.8596 0.07368 0.0
O249 O 0.78118 0.86798 0.03827 0.0
Zn250 Zn 0.7498 0.88222 0.0277 0.0
O251 O 0.74242 0.87352 0.994 0.0
C252 C 0.75496 0.93503 0.0162 0.0
O253 O 0.74962 0.92725 0.9949 0.0
O254 O 0.72689 0.86583 0.04922 0.0
C255 C 0.73167 0.85325 0.98808 0.0
O256 O 0.72453 0.83786 0.00431 0.0
C257 C 0.78703 0.8452 0.03575 0.0
O258 O 0.77323 0.83032 0.02279 0.0
O259 O 0.75405 0.91944 0.03293 0.0
C260 C 0.32763 0.59776 0.00396 0.0
O261 O 0.32668 0.62214 0.00037 0.0
O262 O 0.27989 0.62897 0.03393 0.0
Zn263 Zn 0.2788 0.60664 0.00588 0.0
O264 O 0.27742 0.62826 0.97699 0.0
C265 C 0.22959 0.59834 0.00413 0.0
O266 O 0.23096 0.62162 -0.00339 0.0
O267 O 0.30846 0.58567 0.00703 0.0
C268 C 0.28662 0.62195 0.95815 0.0
O269 O 0.29695 0.60002 0.95683 0.0
C270 C 0.27227 0.65136 0.03323 0.0
O271 O 0.26472 0.66101 0.01322 0.0
O272 O 0.24868 0.58628 0.00818 0.0
C273 C 0.18533 0.46055 0.81289 0.0
O274 O 0.1857 0.47877 0.79743 0.0
O275 O 0.12596 0.48521 0.79753 0.0
Zn276 Zn 0.14529 0.48765 0.82769 0.0
O277 O 0.12531 0.48311 0.85569 0.0
C278 C 0.15065 0.53989 0.81714 0.0
O279 O 0.12826 0.53691 0.81042 0.0
O280 O 0.16961 0.46059 0.82801 0.0
C281 C 0.1122 0.50016 0.86344 0.0
O282 O 0.11157 0.52223 0.85319 0.0
C283 C 0.10381 0.48903 0.79507 0.0
O284 O 0.09133 0.4917 0.81362 0.0
O285 O 0.16177 0.52155 0.82658 0.0
C286 C 0.1808 0.39926 0.51059 0.0
O287 O 0.17746 0.38307 0.49349 0.0
O288 O 0.20499 0.33608 0.53216 0.0
Zn289 Zn 0.22058 0.36789 0.52105 0.0
O290 O 0.22481 0.36241 0.48695 0.0
C291 C 0.2709 0.36521 0.53486 0.0
O292 O 0.27074 0.34511 0.5216 0.0
O293 O 0.19832 0.3965 0.52499 0.0
C294 C 0.2284 0.37941 0.47192 0.0
O295 O 0.23098 0.4029 0.47864 0.0
C296 C 0.21206 0.31965 0.54686 0.0
O297 O 0.19937 0.29903 0.54919 0.0
O298 O 0.25171 0.37694 0.53735 0.0
C299 C 0.38389 0.58479 0.30994 0.0
O300 O 0.40175 0.58282 0.3253 0.0
O301 O 0.42196 0.53926 0.26827 0.0
Zn302 Zn 0.39907 0.53616 0.29378 0.0
O303 O 0.41595 0.52918 0.32438 0.0
C304 C 0.38605 0.48844 0.27526 0.0
O305 O 0.40921 0.48669 0.27477 0.0
O306 O 0.37986 0.56734 0.29521 0.0
C307 C 0.40478 0.52124 0.34165 0.0
O308 O 0.38177 0.51731 0.33923 0.0
C309 C 0.44258 0.52986 0.26953 0.0
O310 O 0.4508 0.5205 0.28945 0.0
O311 O 0.37713 0.50775 0.28424 0.0
C312 C 0.97588 0.05463 0.95503 0.0
N313 N 0.94222 0.04951 0.0184 0.0
C314 C 0.92598 0.06543 0.00841 0.0
C315 C 0.90188 0.06217 0.01215 0.0
C316 C 0.89436 0.04223 0.02616 0.0
C317 C 0.91167 0.02703 0.03736 0.0
C318 C 0.93561 0.03103 0.03322 0.0
Zn319 Zn 0.97626 0.05103 0.00774 0.0
C320 C 0.99328 0.00073 0.99538 0.0
N321 N 0.04618 0.05456 0.98224 0.0
C322 C 0.05483 0.07513 0.97116 0.0
C323 C 0.06085 0.03593 0.99007 0.0
C324 C 0.08528 0.03819 0.98811 0.0
C325 C 0.09485 0.06008 0.97846 0.0
C326 C 0.07932 0.07841 0.96927 0.0
Zn327 Zn 0.01185 0.05321 0.99253 0.0
O328 O 0.96299 0.0531 0.97259 0.0
C329 C 0.994 0.10356 0.00462 0.0
O330 O -0.00171 0.05619 0.95815 0.0
H331 H 0.05385 0.02001 -0.00067 0.0
H332 H 0.93161 0.07999 -0.00335 0.0
H333 H 0.04292 0.08975 0.96503 0.0
O334 O 0.97641 0.09031 0.0105 0.0
O335 O 0.01183 0.09284 0.99644 0.0
H336 H 0.9488 0.01855 0.04092 0.0
O337 O 0.02519 0.04968 0.0271 0.0
O338 O 0.99051 0.04828 0.04281 0.0
O339 O 0.01084 0.01362 0.9888 0.0
O340 O 0.97623 0.01172 0.00462 0.0
C341 C 0.01305 0.04797 0.0451 0.0
H342 H 0.8892 0.07457 0.00343 0.0
H343 H 0.90675 0.01122 0.04808 0.0
H344 H 0.09665 0.02385 0.99584 0.0
H345 H 0.08608 0.09557 0.96173 0.0
C346 C 0.33144 0.80059 0.25182 0.0
N347 N 0.26693 0.77132 0.22375 0.0
C348 C 0.27351 0.78279 0.20384 0.0
C349 C 0.26921 0.77113 0.18236 0.0
C350 C 0.25812 0.74739 0.18139 0.0
C351 C 0.25033 0.73663 0.20208 0.0
C352 C 0.25495 0.749 0.22321 0.0
Zn353 Zn 0.27877 0.78621 0.2547 0.0
C354 C 0.30119 0.74761 0.28521 0.0
N355 N 0.30669 0.81736 0.31835 0.0
C356 C 0.31489 0.84137 0.32125 0.0
C357 C 0.302 0.80261 0.33699 0.0
C358 C 0.30433 0.81213 0.35945 0.0
C359 C 0.31104 0.83732 0.36293 0.0
C360 C 0.31722 0.85183 0.3436 0.0
Zn361 Zn 0.29556 0.80324 0.28663 0.0
O362 O 0.31327 0.7911 0.24106 0.0
C363 C 0.27282 0.84172 0.25552 0.0
O364 O 0.32949 0.80893 0.27239 0.0
H365 H 0.29501 0.78378 0.3345 0.0
H366 H 0.28315 0.80046 0.2047 0.0
H367 H 0.31834 0.85285 0.30619 0.0
O368 O 0.26872 0.82227 0.24317 0.0
O369 O 0.28404 0.83955 0.27513 0.0
H370 H 0.24987 0.74027 0.23928 0.0
O371 O 0.2617 0.79687 0.30077 0.0
O372 O 0.24468 0.78113 0.26897 0.0
O373 O 0.3068 0.76691 0.29724 0.0
O374 O 0.28882 0.75016 0.26638 0.0
C375 C 0.24337 0.78768 0.29013 0.0
H376 H 0.27575 0.77995 0.16687 0.0
H377 H 0.24147 0.71846 0.20202 0.0
H378 H 0.29984 0.80014 0.3739 0.0
H379 H 0.32243 0.87138 0.34557 0.0
C380 C 0.53515 0.00834 0.59418 0.0
N381 N 0.55978 0.9406 0.56837 0.0
C382 C 0.57348 0.94064 0.58849 0.0
C383 C 0.57564 0.91877 0.60188 0.0
C384 C 0.56357 0.89681 0.59438 0.0
C385 C 0.55158 0.89677 0.57242 0.0
C386 C 0.54982 0.91902 0.55966 0.0
Zn387 Zn 0.54752 0.97371 0.555 0.0
C388 C 0.49414 0.97231 0.55162 0.0
N389 N 0.51796 0.04224 0.53065 0.0
C390 C 0.52678 0.06473 0.53845 0.0
C391 C 0.5009 0.04084 0.51319 0.0
C392 C 0.49268 0.0626 0.50219 0.0
C393 C 0.50213 0.086 0.50923 0.0
C394 C 0.51902 0.08701 0.52794 0.0
Zn395 Zn 0.53145 0.00973 0.54366 0.0
O396 O 0.54378 0.98707 0.58948 0.0
C397 C 0.58455 0.01169 0.54703 0.0
O398 O 0.529 0.02304 0.57764 0.0
H399 H 0.49411 0.02274 0.50732 0.0
H400 H 0.58114 0.95807 0.59512 0.0
H401 H 0.54035 0.06534 0.55236 0.0
O402 O 0.58247 0.98909 0.55401 0.0
O403 O 0.56602 0.02434 0.54205 0.0
H404 H 0.5389 0.91945 0.54371 0.0
O405 O 0.53396 -0.0037 0.50951 0.0
O406 O 0.55092 0.961 0.52026 0.0
O407 O 0.49705 0.99498 0.5455 0.0
O408 O 0.51223 0.95875 0.55586 0.0
C409 C 0.54337 0.97568 0.50415 0.0
H410 H 0.58505 0.9196 0.61872 0.0
H411 H 0.54242 0.88008 0.56582 0.0
H412 H 0.47943 0.06109 0.48801 0.0
H413 H 0.52693 0.1047 0.5337 0.0
C414 C 0.29315 0.20433 0.76267 0.0
N415 N 0.26138 0.22986 0.8225 0.0
C416 C 0.25133 0.20649 0.82216 0.0
C417 C 0.24567 0.19457 0.84288 0.0
C418 C 0.24968 0.20703 0.86431 0.0
C419 C 0.25872 0.23182 0.86388 0.0
C420 C 0.26483 0.24271 0.84282 0.0
Zn421 Zn 0.27348 0.24466 0.79215 0.0
C422 C 0.32596 0.25766 0.79749 0.0
N423 N 0.30016 0.27395 0.72899 0.0
C424 C 0.29496 0.2599 0.70964 0.0
C425 C 0.30924 0.29768 0.72728 0.0
C426 C 0.31188 0.3087 0.70537 0.0
C427 C 0.30549 0.29493 0.68517 0.0
C428 C 0.29773 0.26995 0.68756 0.0
Zn429 Zn 0.28895 0.25977 0.75985 0.0
O430 O 0.28254 0.20818 0.78131 0.0
C431 C 0.23644 0.24753 0.7543 0.0
O432 O 0.29824 0.22289 0.74984 0.0
H433 H 0.31321 0.30859 0.74285 0.0
H434 H 0.24838 0.19663 0.80584 0.0
H435 H 0.28716 0.24138 0.71118 0.0
O436 O 0.23886 0.24099 0.77558 0.0
O437 O 0.25452 0.25524 0.74386 0.0
H438 H 0.27285 0.26126 0.84282 0.0
O439 O 0.27947 0.29633 0.77052 0.0
O440 O 0.26476 0.28126 0.80244 0.0
O441 O 0.32305 0.26429 0.77626 0.0
O442 O 0.30831 0.24901 0.80817 0.0
C443 C 0.26929 0.29992 0.78949 0.0
H444 H 0.23909 0.17542 0.84197 0.0
H445 H 0.26151 0.2427 0.87966 0.0
H446 H 0.31788 0.32805 0.70424 0.0
H447 H 0.29205 0.25882 0.67252 0.0
C448 C 0.09265 0.02192 0.52756 0.0
N449 N 0.05559 0.0522 0.46879 0.0
C450 C 0.07523 0.06677 0.46607 0.0
C451 C 0.0818 0.07372 0.44378 0.0
C452 C 0.06777 0.06588 0.42427 0.0
C453 C 0.04694 0.05204 0.42768 0.0
C454 C 0.04127 0.04518 0.45018 0.0
Zn455 Zn 0.04858 0.03726 0.5005 0.0
C456 C 0.04376 0.98062 0.49582 0.0
N457 N 0.03336 0.00284 0.56502 0.0
C458 C 0.04547 0.01193 0.58427 0.0
C459 C 0.01386 0.98784 0.56685 0.0
C460 C 0.0045 0.98349 0.58857 0.0
C461 C 0.01543 0.99459 0.60854 0.0
C462 C 0.03687 0.00784 0.60632 0.0
Zn463 Zn 0.04101 0.01756 0.53347 0.0
O464 O 0.08575 0.03251 0.50859 0.0
C465 C 0.04553 0.07451 0.53756 0.0
O466 O 0.07735 0.01402 0.54141 0.0
H467 H 0.00451 0.98081 0.55131 0.0
H468 H 0.08634 0.07218 0.4811 0.0
H469 H 0.0609 0.02388 0.58243 0.0
O470 O 0.0498 0.07329 0.51607 0.0
O471 O 0.04146 0.05431 0.54865 0.0
H472 H 0.02596 0.03324 0.45263 0.0
O473 O 0.00462 0.02127 0.52542 0.0
O474 O 0.01139 0.04152 0.49315 0.0
O475 O 0.04049 0.98111 0.5176 0.0
O476 O 0.04722 0.00117 0.48514 0.0
C477 C -0.00321 0.03245 0.50721 0.0
H478 H 0.098 0.08445 0.44175 0.0
H479 H 0.03589 0.0453 0.41304 0.0
H480 H 0.98786 0.97325 0.58939 0.0
H481 H 0.04615 0.01628 0.62131 0.0
C482 C 0.25406 0.74802 0.72213 0.0
N483 N 0.30882 0.70513 0.75397 0.0
C484 C 0.30648 0.68478 0.7397 0.0
C485 C 0.32542 0.66831 0.73767 0.0
C486 C 0.34681 0.67293 0.75051 0.0
C487 C 0.34885 0.69457 0.76441 0.0
C488 C 0.32957 0.71036 0.76598 0.0
Zn489 Zn 0.28058 0.72607 0.76221 0.0
C490 C 0.29323 0.78011 0.76885 0.0
N491 N 0.22263 0.76838 0.78419 0.0
C492 C 0.20076 0.76395 0.77404 0.0
C493 C 0.22587 0.78447 0.80245 0.0
C494 C 0.20643 0.79576 0.81207 0.0
C495 C 0.18348 0.79026 0.80291 0.0
C496 C 0.18082 0.77472 0.7832 0.0
Zn497 Zn 0.25052 0.74811 0.77414 0.0
O498 O 0.27126 0.7333 0.72682 0.0
C499 C 0.23776 0.69422 0.76785 0.0
O500 O 0.24206 0.75635 0.73862 0.0
H501 H 0.24345 0.78771 0.81021 0.0
H502 H 0.28971 0.68087 0.73048 0.0
H503 H 0.19867 0.75109 0.75953 0.0
O504 O 0.2592 0.69323 0.76218 0.0
O505 O 0.22901 0.71532 0.77277 0.0
H506 H 0.331 0.72642 0.77747 0.0
O507 O 0.25936 0.7396 0.80962 0.0
O508 O 0.28976 0.71903 0.79753 0.0
O509 O 0.27211 0.78065 0.77554 0.0
O510 O 0.30172 0.75936 0.76244 0.0
C511 C 0.27746 0.7262 0.81414 0.0
H512 H 0.32318 0.6519 0.72664 0.0
H513 H 0.36521 0.69935 0.77405 0.0
H514 H 0.20929 0.80794 0.82703 0.0
H515 H 0.16345 0.7697 0.77573 0.0
C516 C 0.53719 0.96403 0.04622 0.0
N517 N 0.54829 0.03517 0.07301 0.0
C518 C 0.53233 0.02845 0.08901 0.0
C519 C 0.53776 0.0319 0.11269 0.0
C520 C 0.5599 0.04216 0.1199 0.0
C521 C 0.57502 0.05117 0.10293 0.0
C522 C 0.56881 0.04749 0.07939 0.0
Zn523 Zn 0.54431 0.01973 0.04066 0.0
C524 C 0.59126 0.00075 0.02443 0.0
N525 N 0.53714 0.98306 0.97526 0.0
C526 C 0.52006 0.96487 0.97313 0.0
C527 C 0.54763 0.99264 0.95628 0.0
C528 C 0.5394 0.98561 0.93393 0.0
C529 C 0.52032 0.96851 0.93127 0.0
C530 C 0.51154 0.95709 0.9512 0.0
Zn531 Zn 0.54217 -0.00031 0.00693 0.0
O532 O 0.53832 0.98495 0.05672 0.0
C533 C 0.49498 0.01722 0.02232 0.0
O534 O 0.53879 0.96372 0.02422 0.0
H535 H 0.56122 0.00705 0.9584 0.0
H536 H 0.51626 0.01842 0.08359 0.0
H537 H 0.51177 0.95763 0.98838 0.0
O538 O 0.50707 0.02684 0.03933 0.0
O539 O 0.50546 0.0048 0.00714 0.0
H540 H 0.58121 0.05269 0.06636 0.0
O541 O 0.54565 0.03609 0.99069 0.0
O542 O 0.55028 0.0547 0.02466 0.0
O543 O 0.57865 0.99449 0.00649 0.0
O544 O 0.58154 0.01151 0.04126 0.0
C545 C 0.54915 0.0561 0.00256 0.0
H546 H 0.52569 0.0245 0.1252 0.0
H547 H 0.59214 0.05945 0.10785 0.0
H548 H 0.54662 0.99495 0.91902 0.0
H549 H 0.49712 0.94349 0.94989 0.0
C550 C 0.26361 0.24532 0.2249 0.0
N551 N 0.30802 0.2808 0.17857 0.0
C552 C 0.32105 0.25954 0.18075 0.0
C553 C 0.3314 0.24931 0.16145 0.0
C554 C 0.32851 0.26116 0.13961 0.0
C555 C 0.31652 0.28421 0.13831 0.0
C556 C 0.30621 0.29366 0.1581 0.0
Zn557 Zn 0.28836 0.29051 0.20588 0.0
C558 C 0.23792 0.30032 0.19064 0.0
N559 N 0.24659 0.30892 0.26325 0.0
C560 C 0.24874 0.29348 0.28211 0.0
C561 C 0.23547 0.33143 0.26446 0.0
C562 C 0.22731 0.33983 0.28568 0.0
C563 C 0.23052 0.32481 0.3057 0.0
C564 C 0.24072 0.30103 0.30353 0.0
Zn565 Zn 0.26538 0.29969 0.23498 0.0
O566 O 0.27829 0.25216 0.20996 0.0
C567 C 0.3153 0.28859 0.25068 0.0
O568 O 0.25526 0.26166 0.23825 0.0
H569 H 0.234 0.34346 0.24928 0.0
H570 H 0.32228 0.24962 0.1972 0.0
H571 H 0.258 0.27588 0.28095 0.0
O572 O 0.31811 0.28575 0.22906 0.0
O573 O 0.29501 0.29412 0.2576 0.0
H574 H 0.29582 0.31061 0.15682 0.0
O575 O 0.27568 0.3374 0.23127 0.0
O576 O 0.29818 0.32872 0.20226 0.0
O577 O 0.23607 0.30484 0.2122 0.0
O578 O 0.25808 0.29489 0.18311 0.0
C579 C 0.29007 0.34463 0.21623 0.0
H580 H 0.34008 0.23134 0.16344 0.0
H581 H 0.31415 0.29424 0.12197 0.0
H582 H 0.21933 0.3582 0.28659 0.0
H583 H 0.2439 0.28898 0.31854 0.0
C584 C 0.58493 0.50311 0.03663 0.0
N585 N 0.55218 0.54196 0.98126 0.0
C586 C 0.57139 0.55764 0.98197 0.0
C587 C 0.58029 0.56694 0.96141 0.0
C588 C 0.5694 0.55987 0.93992 0.0
C589 C 0.54878 0.54484 0.93978 0.0
C590 C 0.54042 0.53604 0.9608 0.0
Zn591 Zn 0.54283 0.52499 0.01117 0.0
C592 C 0.53273 0.46944 0.00293 0.0
N593 N 0.52401 0.48837 0.07349 0.0
C594 C 0.53823 0.49431 0.09248 0.0
C595 C 0.50267 0.47668 0.07571 0.0
C596 C 0.49397 0.47268 0.09781 0.0
C597 C 0.50744 0.48079 0.11763 0.0
C598 C 0.53032 0.49054 0.1148 0.0
Zn599 Zn 0.53285 0.50415 0.04272 0.0
O600 O 0.57889 0.51618 0.01887 0.0
C601 C 0.54291 0.55983 0.05072 0.0
O602 O 0.56908 0.49557 0.05007 0.0
H603 H 0.49165 0.47214 0.06037 0.0
H604 H 0.58043 0.56214 -0.00154 0.0
H605 H 0.55494 0.50399 0.0904 0.0
O606 O 0.54707 0.55949 0.02921 0.0
O607 O 0.53692 0.53948 0.06058 0.0
H608 H 0.52516 0.52356 0.96069 0.0
O609 O 0.49663 0.51291 0.0347 0.0
O610 O 0.50684 0.53373 0.00368 0.0
O611 O 0.52879 0.4692 0.02458 0.0
O612 O 0.53846 0.49008 0.99335 0.0
C613 C 0.49083 0.52614 0.01694 0.0
H614 H 0.59605 0.57877 0.96228 0.0
H615 H 0.53999 0.53871 0.9236 0.0
H616 H 0.47632 0.46482 0.0993 0.0
H617 H 0.54119 0.49736 0.12952 0.0
C618 C 0.77735 0.22189 0.21354 0.0
N619 N 0.83425 0.18701 0.25033 0.0
C620 C 0.83306 0.16707 0.23552 0.0
C621 C 0.85334 0.15324 0.2315 0.0
C622 C 0.87514 0.16019 0.2426 0.0
C623 C 0.87572 0.18081 0.2579 0.0
C624 C 0.85498 0.19388 0.26163 0.0
Zn625 Zn 0.80445 0.20639 0.25686 0.0
C626 C 0.81226 0.26162 0.25825 0.0
N627 N 0.74193 0.24544 0.27162 0.0
C628 C 0.72056 0.23766 0.26223 0.0
C629 C 0.74364 0.26379 0.28807 0.0
C630 C 0.72323 0.2738 0.29694 0.0
C631 C 0.70093 0.2647 0.28888 0.0
C632 C 0.69968 0.2471 0.27066 0.0
Zn633 Zn 0.77161 0.22661 0.26416 0.0
O634 O 0.79631 0.21085 0.22047 0.0
C635 C 0.76335 0.17169 0.26292 0.0
O636 O 0.76305 0.22932 0.22845 0.0
H637 H 0.76085 0.26971 0.29526 0.0
H638 H 0.81633 0.16188 0.2268 0.0
H639 H 0.71969 0.22306 0.24915 0.0
O640 O 0.78498 0.17204 0.25769 0.0
O641 O 0.75298 0.19229 0.2664 0.0
H642 H 0.85548 0.20967 0.27346 0.0
O643 O 0.78034 0.22403 0.29987 0.0
O644 O 0.81215 0.20238 0.29339 0.0
O645 O 0.7903 0.2606 0.26203 0.0
O646 O 0.82359 0.2413 0.25602 0.0
C647 C 0.79832 0.21207 0.30765 0.0
H648 H 0.85194 0.13737 0.21974 0.0
H649 H 0.89213 0.18732 0.26647 0.0
H650 H 0.72492 0.28763 0.31074 0.0
H651 H 0.68283 0.23942 0.26409 0.0
C652 C -0.00296 0.48817 0.56807 0.0
N653 N 0.02606 0.55436 0.59492 0.0
C654 C 0.01182 0.5499 0.61299 0.0
C655 C 0.02112 0.55021 0.6358 0.0
C656 C 0.04542 0.55494 0.64016 0.0
C657 C 0.05934 0.56162 0.62137 0.0
C658 C 0.04921 0.56122 0.5987 0.0
Zn659 Zn 0.01303 0.54261 0.56306 0.0
C660 C 0.04914 0.51673 0.53608 0.0
N661 N 0.9839 0.51241 0.49969 0.0
C662 C 0.96288 0.49959 0.49881 0.0
C663 C 0.99612 0.51666 0.48018 0.0
C664 C 0.9872 0.50796 0.45864 0.0
C665 C 0.96539 0.49502 0.45717 0.0
C666 C 0.95317 0.49081 0.47756 0.0
Zn667 Zn -0.00256 0.52572 0.53064 0.0
O668 O 0.0049 0.50749 0.57896 0.0
C669 C 0.96091 0.55126 0.55712 0.0
O670 O 0.99178 0.48997 0.54641 0.0
H671 H 0.01273 0.52702 0.48127 0.0
H672 H 0.99363 0.54387 0.60972 0.0
H673 H 0.95357 0.49632 0.51458 0.0
O674 O 0.97898 0.557 0.57007 0.0
O675 O 0.96339 0.53751 0.5394 0.0
H676 H 0.06025 0.56458 0.58408 0.0
O677 O 0.00404 0.56151 0.51507 0.0
O678 O 0.02152 0.57718 0.54686 0.0
O679 O 0.03118 0.51392 0.52221 0.0
O680 O 0.04688 0.52804 0.5553 0.0
C681 C 0.0149 0.57965 0.5255 0.0
H682 H 0.00976 0.54457 0.64961 0.0
H683 H 0.07812 0.56567 0.62404 0.0
H684 H -0.00304 0.51187 0.44321 0.0
H685 H 0.93634 0.48078 0.47707 0.0
C686 C 0.79752 0.69706 0.26429 0.0
N687 N 0.77796 0.72432 0.32829 0.0
C688 C 0.7667 0.70177 0.33047 0.0
C689 C 0.76871 0.68855 0.35149 0.0
C690 C 0.78247 0.69867 0.3703 0.0
C691 C 0.79199 0.723 0.36813 0.0
C692 C 0.7895 0.73555 0.34687 0.0
Zn693 Zn 0.78494 0.73798 0.29612 0.0
C694 C 0.83792 0.74795 0.29517 0.0
N695 N 0.80571 0.76565 0.23057 0.0
C696 C 0.79594 0.75387 0.21142 0.0
C697 C 0.82222 0.78428 0.22866 0.0
C698 C 0.82962 0.7916 0.20677 0.0
C699 C 0.81986 0.77969 0.18667 0.0
C700 C 0.80271 0.76067 0.18925 0.0
Zn701 Zn 0.79661 0.75306 0.26244 0.0
O702 O 0.78989 0.70106 0.28435 0.0
C703 C 0.74338 0.74324 0.2637 0.0
O704 O 0.80213 0.71563 0.25127 0.0
H705 H 0.82985 0.79329 0.24415 0.0
H706 H 0.75766 0.69317 0.31547 0.0
H707 H 0.78293 0.73902 0.21334 0.0
O708 O 0.74861 0.73612 0.28447 0.0
O709 O 0.75992 0.75069 0.25088 0.0
H710 H 0.79856 0.75335 0.3447 0.0
O711 O 0.79068 0.79015 0.27379 0.0
O712 O 0.7798 0.77517 0.30736 0.0
O713 O 0.83296 0.75561 0.2746 0.0
O714 O 0.8213 0.73977 0.30735 0.0
C715 C 0.78315 0.79383 0.29402 0.0
H716 H 0.76062 0.67006 0.3526 0.0
H717 H 0.80285 0.7315 0.38206 0.0
H718 H 0.84297 0.80628 0.20563 0.0
H719 H 0.79425 0.75136 0.17428 0.0
C720 C 0.82394 0.2772 0.75076 0.0
N721 N 0.75744 0.26038 0.71942 0.0
C722 C 0.76689 0.27251 0.70111 0.0
C723 C 0.76408 0.26262 0.67872 0.0
C724 C 0.75119 0.24013 0.67505 0.0
C725 C 0.7397 0.22938 0.69395 0.0
C726 C 0.74323 0.23977 0.71616 0.0
Zn727 Zn 0.77022 0.26997 0.75196 0.0
C728 C 0.78648 0.22466 0.77833 0.0
N729 N 0.80167 0.28885 0.81825 0.0
C730 C 0.81687 0.30874 0.82098 0.0
C731 C 0.79307 0.27663 0.83693 0.0
C732 C 0.79853 0.28528 0.85941 0.0
C733 C 0.81316 0.30663 0.86277 0.0
C734 C 0.82298 0.31792 0.84322 0.0
Zn735 Zn 0.78836 0.27931 0.78596 0.0
O736 O 0.805 0.27226 0.73874 0.0
C737 C 0.77204 0.32453 0.75919 0.0
O738 O 0.82268 0.28148 0.7724 0.0
H739 H 0.78098 0.26087 0.83435 0.0
H740 H 0.77817 0.28886 0.70408 0.0
H741 H 0.8235 0.31815 0.80585 0.0
O742 O 0.76485 0.308 0.74456 0.0
O743 O 0.78264 0.31776 0.77813 0.0
H744 H 0.73589 0.23044 0.73099 0.0
O745 O 0.75389 0.27697 0.79925 0.0
O746 O 0.73562 0.26766 0.76584 0.0
O747 O 0.79379 0.24081 0.79332 0.0
O748 O 0.77585 0.23193 0.75962 0.0
C749 C 0.73477 0.2719 0.78758 0.0
H750 H 0.77349 0.27155 0.66487 0.0
H751 H 0.72911 0.21237 0.69188 0.0
H752 H 0.79025 0.27613 0.87385 0.0
H753 H 0.83466 0.33415 0.84499 0.0
C754 C 0.78325 0.732 0.73851 0.0
N755 N 0.78593 0.77043 0.67532 0.0
C756 C 0.80257 0.75292 0.67098 0.0
C757 C 0.80178 0.74024 0.64966 0.0
C758 C 0.78375 0.74582 0.63281 0.0
C759 C 0.76889 0.76622 0.6367 0.0
C760 C 0.77019 0.77824 0.65824 0.0
Zn761 Zn 0.7772 0.77751 0.70884 0.0
C762 C 0.72619 0.76064 0.71395 0.0
N763 N 0.75287 0.78885 0.77715 0.0
C764 C 0.76728 0.78093 0.79527 0.0
C765 C 0.73265 0.8017 0.78083 0.0
C766 C 0.72659 0.80761 0.80346 0.0
C767 C 0.7413 0.79986 0.82243 0.0
C768 C 0.76171 0.78608 0.81816 0.0
Zn769 Zn 0.7629 0.78253 0.74394 0.0
O770 O 0.78639 0.74041 0.7182 0.0
C771 C 0.81391 0.79859 0.73994 0.0
O772 O 0.77437 0.74621 0.75346 0.0
H773 H 0.72138 0.80774 0.76619 0.0
H774 H 0.81491 0.74693 0.68479 0.0
H775 H 0.78341 0.771 0.79199 0.0
O776 O 0.81213 0.79025 0.71917 0.0
O777 O 0.79616 0.79755 0.7527 0.0
H778 H 0.7569 0.79193 0.66205 0.0
O779 O 0.75153 0.81848 0.73398 0.0
O780 O 0.76771 0.81499 0.70018 0.0
O781 O 0.72991 0.76737 0.73495 0.0
O782 O 0.74228 0.76406 0.69948 0.0
C783 C 0.75659 0.82804 0.71455 0.0
H784 H 0.81361 0.72463 0.64739 0.0
H785 H 0.75503 0.77143 0.62398 0.0
H786 H 0.71063 0.81816 0.80612 0.0
H787 H 0.77365 0.78007 0.83234 0.0
C788 C 0.49342 0.50268 0.49567 0.0
N789 N 0.46695 0.47802 0.55928 0.0
C790 C 0.44643 0.48895 0.55136 0.0
C791 C 0.42458 0.47765 0.55556 0.0
C792 C 0.42389 0.45485 0.56792 0.0
C793 C 0.44527 0.44487 0.57712 0.0
C794 C 0.46671 0.45684 0.57259 0.0
Zn795 Zn 0.49857 0.49038 0.5474 0.0
C796 C 0.52505 0.44862 0.52797 0.0
N797 N 0.56418 0.51477 0.5202 0.0
C798 C 0.56937 0.53804 0.51171 0.0
C799 C 0.58162 0.49772 0.52479 0.0
C800 C 0.60511 0.5036 0.52091 0.0
C801 C 0.6111 0.52757 0.51296 0.0
C802 C 0.59302 0.54502 0.50821 0.0
Zn803 Zn 0.53131 0.50428 0.53109 0.0
O804 O 0.48274 0.49417 0.51313 0.0
C805 C 0.50388 0.54613 0.5491 0.0
O806 O 0.51513 0.50921 0.49806 0.0
H807 H 0.57769 0.47982 0.53265 0.0
H808 H 0.44704 0.5057 0.5407 0.0
H809 H 0.55538 0.55152 0.50854 0.0
O810 O 0.49018 0.52808 0.55443 0.0
O811 O 0.52323 0.54151 0.53953 0.0
H812 H 0.48323 0.44846 0.5787 0.0
O813 O 0.54724 0.49942 0.56425 0.0
O814 O 0.51524 0.48721 0.58146 0.0
O815 O 0.53807 0.46694 0.52227 0.0
O816 O 0.50697 0.45275 0.53965 0.0
C817 C 0.53725 0.49269 0.58259 0.0
H818 H 0.40853 0.48587 0.54796 0.0
H819 H 0.44549 0.4275 0.58698 0.0
H820 H 0.61867 0.48991 0.5254 0.0
H821 H 0.59717 0.56384 0.50233 0.0
C822 C 0.02359 0.52779 0.10227 0.0
N823 N 0.05134 0.461 0.07836 0.0
C824 C 0.06578 0.46231 0.09796 0.0
C825 C 0.06979 0.44091 0.11163 0.0
C826 C 0.05869 0.41815 0.105 0.0
C827 C 0.04555 0.41694 0.08368 0.0
C828 C 0.04209 0.43872 0.07054 0.0
Zn829 Zn 0.03779 0.49308 0.06412 0.0
C830 C 0.98447 0.48852 0.05969 0.0
N831 N 0.00561 0.55959 0.03749 0.0
C832 C 0.01359 0.58249 0.04505 0.0
C833 C 0.98901 0.55736 0.01966 0.0
C834 C 0.98037 0.57868 0.00814 0.0
C835 C 0.98889 0.60253 0.01503 0.0
C836 C 0.00539 0.60433 0.03403 0.0
Zn837 Zn 0.02007 0.5278 0.05144 0.0
O838 O 0.03347 0.50705 0.09809 0.0
C839 C 0.07351 0.53181 0.0555 0.0
O840 O 0.01646 0.5416 0.08538 0.0
H841 H 0.9829 0.53895 0.01395 0.0
H842 H 0.07283 0.48029 0.10389 0.0
H843 H 0.02685 0.58377 0.05921 0.0
O844 O 0.07174 0.50951 0.06321 0.0
O845 O 0.05476 0.54391 0.04988 0.0
H846 H 0.03062 0.43814 0.05495 0.0
O847 O 0.02364 0.51364 0.01764 0.0
O848 O 0.04199 0.47961 0.02986 0.0
O849 O 0.98584 0.51122 0.053 0.0
O850 O 0.00342 0.4767 0.06483 0.0
C851 C 0.034 0.49326 0.01316 0.0
H852 H 0.08003 0.44255 0.12798 0.0
H853 H 0.03706 0.39958 0.07781 0.0
H854 H 0.96744 0.5765 0.99375 0.0
H855 H 0.01262 0.62235 0.03973 0.0
H856 H 0.99008 0.19771 0.11237 0.0
H857 H 0.03189 0.13611 0.00243 0.0
H858 H 0.05172 0.22593 0.07876 0.0
H859 H 0.9589 0.1321 0.02179 0.0
H860 H 0.03696 0.17503 0.02458 0.0
H861 H 0.97522 0.17986 0.07544 0.0
C862 C 0.00018 0.20058 0.09697 0.0
C863 C 0.02223 0.21285 0.09848 0.0
C864 C 0.01962 0.16607 0.02339 0.0
C865 C 0.00588 0.19187 0.0564 0.0
C866 C 0.01672 0.1438 0.01074 0.0
C867 C 0.99521 0.13036 0.01108 0.0
C868 C 0.00099 0.17455 0.03664 0.0
C869 C 0.97605 0.14143 0.02175 0.0
C870 C 0.9917 0.19051 0.07586 0.0
C871 C 0.03466 0.21637 0.07816 0.0
N872 N 0.97957 0.16254 0.03466 0.0
N873 N 0.02665 0.20523 0.05799 0.0
H874 H 0.14047 0.78593 0.39699 0.0
H875 H 0.19924 0.77127 0.27318 0.0
H876 H 0.09983 0.76494 0.33446 0.0
H877 H 0.23652 0.79761 0.33589 0.0
H878 H 0.16286 0.76733 0.29493 0.0
H879 H 0.17599 0.78872 0.37458 0.0
C880 C 0.13898 0.78187 0.37852 0.0
C881 C 0.11704 0.77521 0.36764 0.0
C882 C 0.17904 0.77396 0.30388 0.0
C883 C 0.15795 0.77839 0.34167 0.0
C884 C 0.19981 0.7762 0.29148 0.0
C885 C 0.22102 0.78483 0.30267 0.0
C886 C 0.1795 0.78031 0.32765 0.0
C887 C 0.22065 0.79093 0.32643 0.0
C888 C 0.15934 0.78349 0.36568 0.0
C889 C 0.11634 0.77017 0.34359 0.0
N890 N 0.20032 0.78854 0.33805 0.0
N891 N 0.13649 0.77186 0.33141 0.0
H892 H 0.58474 0.7742 0.69255 0.0
H893 H 0.52324 0.87021 0.60214 0.0
H894 H 0.51022 0.77277 0.67173 0.0
H895 H 0.59737 0.87504 0.62393 0.0
H896 H 0.51812 0.83569 0.62928 0.0
H897 H 0.58943 0.81301 0.67027 0.0
C898 C 0.56927 0.78226 0.68365 0.0
C899 C 0.54708 0.77006 0.68382 0.0
C900 C 0.53554 0.84423 0.62818 0.0
C901 C 0.55243 0.81423 0.65805 0.0
C902 C 0.53855 0.86378 0.61245 0.0
C903 C 0.56088 0.87525 0.61046 0.0
C904 C 0.55501 0.83591 0.64209 0.0
C905 C 0.57988 0.86665 0.62486 0.0
C906 C 0.57201 0.80435 0.67082 0.0
C907 C 0.52769 0.78138 0.67195 0.0
N908 N 0.57655 0.84736 0.64 0.0
N909 N 0.53088 0.80266 0.65938 0.0
H910 H 0.44378 0.25209 0.89931 0.0
H911 H 0.36825 0.2718 0.77922 0.0
H912 H 0.47569 0.26959 0.83429 0.0
H913 H 0.33805 0.24721 0.8432 0.0
H914 H 0.40747 0.27313 0.79926 0.0
H915 H 0.40478 0.25216 0.87922 0.0
C916 C 0.44261 0.25598 0.88078 0.0
C917 C 0.46312 0.26081 0.86848 0.0
C918 C 0.39225 0.26747 0.80891 0.0
C919 C 0.41828 0.26095 0.84528 0.0
C920 C 0.36982 0.26676 0.7975 0.0
C921 C 0.34977 0.25935 0.80952 0.0
C922 C 0.39469 0.26081 0.83257 0.0
C923 C 0.35296 0.253 0.83319 0.0
C924 C 0.42028 0.25599 0.8693 0.0
C925 C 0.4604 0.26572 0.84448 0.0
N926 N 0.37495 0.25387 0.84389 0.0
N927 N 0.43841 0.26567 0.83367 0.0
H928 H 0.04333 0.82419 0.45042 0.0
H929 H 0.04835 0.97477 0.44917 0.0
H930 H 0.04974 0.86953 0.38858 0.0
H931 H 0.03937 0.93189 0.5121 0.0
H932 H 0.04913 0.9359 0.42719 0.0
H933 H 0.04219 0.86275 0.47367 0.0
C934 C 0.04451 0.84222 0.44172 0.0
C935 C 0.04663 0.84359 0.41747 0.0
C936 C 0.04697 0.93487 0.44579 0.0
C937 C 0.04532 0.88774 0.44399 0.0
C938 C 0.04652 0.95714 0.45843 0.0
C939 C 0.04381 0.95668 0.4826 0.0
C940 C 0.04472 0.91171 0.45728 0.0
C941 C 0.04149 0.93316 0.49351 0.0
C942 C 0.04384 0.86421 0.45502 0.0
C943 C 0.04808 0.86747 0.40718 0.0
N944 N 0.04203 0.91159 0.48076 0.0
N945 N 0.04741 0.88851 0.42047 0.0
H946 H 0.48825 0.6682 0.7564 0.0
H947 H 0.36278 0.64981 0.71165 0.0
H948 H 0.47312 0.61908 0.69785 0.0
H949 H 0.37822 0.65816 0.78553 0.0
H950 H 0.40211 0.63222 0.70772 0.0
H951 H 0.44875 0.65921 0.77018 0.0
C952 C 0.47682 0.65493 0.74685 0.0
C953 C 0.48363 0.64478 0.72577 0.0
C954 C 0.39664 0.63721 0.72491 0.0
C955 C 0.43836 0.63503 0.7409 0.0
C956 C 0.37414 0.64727 0.72716 0.0
C957 C 0.36757 0.65635 0.74881 0.0
C958 C 0.4127 0.6368 0.74433 0.0
C959 C 0.38301 0.65241 0.76832 0.0
C960 C 0.45431 0.64973 0.75472 0.0
C961 C 0.46835 0.62752 0.71409 0.0
N962 N 0.40517 0.64362 0.76553 0.0
N963 N 0.44604 0.62381 0.7214 0.0
H964 H 0.53607 0.18112 0.90559 0.0
H965 H 0.55975 0.10162 0.02275 0.0
H966 H 0.56026 0.21386 0.97123 0.0
H967 H 0.54204 0.06748 0.95605 0.0
H968 H 0.56011 0.14279 0.004 0.0
H969 H 0.53798 0.13942 0.92357 0.0
C970 C 0.54179 0.17957 0.92378 0.0
C971 C 0.54796 0.2011 0.93692 0.0
C972 C 0.55624 0.12631 0.99341 0.0
C973 C 0.55019 0.15331 0.95763 0.0
C974 C 0.55604 0.10274 0.00412 0.0
C975 C 0.5508 0.08099 0.99098 0.0
C976 C 0.55104 0.12831 0.96934 0.0
C977 C 0.54618 0.0837 0.96688 0.0
C978 C 0.54292 0.15572 0.93402 0.0
C979 C 0.55531 0.19785 0.9604 0.0
N980 N 0.54629 0.10693 0.95686 0.0
N981 N 0.55614 0.17446 0.96999 0.0
H982 H 0.12277 0.22094 0.11264 0.0
H983 H 0.23425 0.27898 0.14709 0.0
H984 H 0.12249 0.21449 0.18762 0.0
H985 H 0.19212 0.30731 0.202 0.0
H986 H 0.19953 0.2553 0.13166 0.0
H987 H 0.15722 0.24957 0.11698 0.0
C988 C 0.13019 0.22509 0.12994 0.0
C989 C 0.11955 0.21551 0.14982 0.0
C990 C 0.19779 0.2674 0.1466 0.0
C991 C 0.15808 0.24856 0.15474 0.0
C992 C 0.21752 0.28104 0.15539 0.0
C993 C 0.21622 0.29463 0.17625 0.0
C994 C 0.17696 0.26738 0.15897 0.0
C995 C 0.19409 0.29666 0.18618 0.0
C996 C 0.14966 0.24153 0.13234 0.0
C997 C 0.12986 0.2216 0.17179 0.0
N998 N 0.17551 0.28251 0.17787 0.0
N999 N 0.14823 0.23811 0.17364 0.0
H1000 H 0.12306 0.03634 0.15333 0.0
H1001 H 0.99429 0.04335 0.08857 0.0
H1002 H 0.05822 0.03225 0.19032 0.0
H1003 H 0.06073 0.0467 0.05416 0.0
H1004 H 0.01661 0.03888 0.12611 0.0
H1005 H 0.09975 0.03947 0.1168 0.0
C1006 C 0.10389 0.03602 0.15378 0.0
C1007 C 0.09261 0.03407 0.17496 0.0
C1008 C 0.02621 0.04059 0.11028 0.0
C1009 C 0.06563 0.03777 0.13299 0.0
C1010 C 0.0135 0.04316 0.08889 0.0
C1011 C 0.02562 0.04543 0.06817 0.0
C1012 C 0.05117 0.04027 0.11087 0.0
C1013 C 0.05054 0.04504 0.06961 0.0
C1014 C 0.09054 0.03784 0.13287 0.0
C1015 C 0.06766 0.03372 0.17439 0.0
N1016 N 0.0624 0.04252 0.09051 0.0
N1017 N 0.05499 0.03562 0.15373 0.0
H1018 H 0.3327 0.9201 0.49241 0.0
H1019 H 0.27588 0.83017 0.39319 0.0
H1020 H 0.27208 0.87135 0.50124 0.0
H1021 H 0.34188 0.87056 0.38575 0.0
H1022 H 0.27336 0.84727 0.43212 0.0
H1023 H 0.33555 0.90423 0.45273 0.0
C1024 C 0.31998 0.90608 0.48602 0.0
C1025 C 0.3021 0.89702 0.50016 0.0
C1026 C 0.28846 0.85239 0.42207 0.0
C1027 C 0.30526 0.87889 0.45483 0.0
C1028 C 0.29 0.8425 0.39985 0.0
C1029 C 0.30937 0.84859 0.38634 0.0
C1030 C 0.30634 0.86868 0.43096 0.0
C1031 C 0.32669 0.86535 0.39561 0.0
C1032 C 0.32165 0.89703 0.46338 0.0
C1033 C 0.28615 0.87884 0.49098 0.0
N1034 N 0.32482 0.87476 0.41745 0.0
N1035 N 0.2881 0.87042 0.4689 0.0
H1036 H 0.44759 0.97574 0.70251 0.0
H1037 H 0.51671 0.05187 0.61082 0.0
H1038 H 0.45065 0.05679 0.70513 0.0
H1039 H 0.5358 0.97637 0.63142 0.0
H1040 H 0.49412 0.05557 0.64594 0.0
H1041 H 0.48026 0.97618 0.67621 0.0
C1042 C 0.45514 0.99365 0.69748 0.0
C1043 C 0.44626 0.01629 0.70572 0.0
C1044 C 0.50375 0.03844 0.64302 0.0
C1045 C 0.4837 0.01693 0.6757 0.0
C1046 C 0.51669 0.03632 0.62302 0.0
C1047 C 0.52772 0.01357 0.61794 0.0
C1048 C 0.50157 0.01752 0.65772 0.0
C1049 C 0.52728 0.99413 0.63445 0.0
C1050 C 0.47397 0.99388 0.6827 0.0
C1051 C 0.45694 0.03894 0.69899 0.0
N1052 N 0.5139 -0.00367 0.65334 0.0
N1053 N 0.47493 0.03873 0.68404 0.0
H1054 H 0.24085 0.08911 0.96619 0.0
H1055 H 0.27313 0.21474 0.90697 0.0
H1056 H 0.24987 0.15703 0.0067 0.0
H1057 H 0.21801 0.16832 0.87369 0.0
H1058 H 0.26855 0.19145 0.94284 0.0
H1059 H 0.2356 0.11495 0.93076 0.0
C1060 C 0.24132 0.10941 0.96765 0.0
C1061 C 0.24588 0.12097 0.98935 0.0
C1062 C 0.25734 0.18658 0.92767 0.0
C1063 C 0.24055 0.15032 0.94916 0.0
C1064 C 0.25976 0.20003 0.90708 0.0
C1065 C 0.24593 0.19375 0.88688 0.0
C1066 C 0.24152 0.16615 0.92809 0.0
C1067 C 0.22954 0.17366 0.88843 0.0
C1068 C 0.23829 0.12407 0.94752 0.0
C1069 C 0.24632 0.14733 0.99035 0.0
N1070 N 0.22806 0.16032 0.90856 0.0
N1071 N 0.24421 0.16111 0.97047 0.0
H1072 H 0.13592 0.03132 0.29933 0.0
H1073 H 0.0427 0.08298 0.38549 0.0
H1074 H 0.08678 0.0893 0.27735 0.0
H1075 H 0.11141 0.05551 0.40886 0.0
H1076 H 0.05558 0.08263 0.34519 0.0
H1077 H 0.12362 0.03601 0.33919 0.0
C1078 C 0.1224 0.04493 0.30286 0.0
C1079 C 0.11233 0.05995 0.285 0.0
C1080 C 0.06788 0.07703 0.35923 0.0
C1081 C 0.09823 0.06539 0.33062 0.0
C1082 C 0.06057 0.07721 0.38212 0.0
C1083 C 0.07607 0.06931 0.40044 0.0
C1084 C 0.0906 0.06834 0.35469 0.0
C1085 C 0.09902 0.06198 0.39525 0.0
C1086 C 0.11556 0.04773 0.32565 0.0
C1087 C 0.09501 0.0774 0.29064 0.0
N1088 N 0.10549 0.06135 0.37282 0.0
N1089 N 0.08835 0.07955 0.31301 0.0
H1090 H 0.28629 0.80904 0.58794 0.0
H1091 H 0.2227 0.78426 0.70752 0.0
H1092 H 0.24665 0.86468 0.62393 0.0
H1093 H 0.27831 0.73731 0.68304 0.0
H1094 H 0.22379 0.80872 0.67162 0.0
H1095 H 0.27661 0.77815 0.61785 0.0
C1096 C 0.27537 0.8147 0.60199 0.0
C1097 C 0.26749 0.83955 0.6036 0.0
C1098 C 0.23551 0.79284 0.67396 0.0
C1099 C 0.2562 0.8043 0.63766 0.0
C1100 C 0.23481 0.77873 0.6944 0.0
C1101 C 0.25072 0.75892 0.6985 0.0
C1102 C 0.25219 0.78709 0.65744 0.0
C1103 C 0.26589 0.75259 0.68075 0.0
C1104 C 0.26988 0.79707 0.61904 0.0
C1105 C 0.25335 0.84582 0.62215 0.0
N1106 N 0.26647 0.76683 0.6611 0.0
N1107 N 0.24823 0.82834 0.63848 0.0
H1108 H 0.4769 0.96596 0.78442 0.0
H1109 H 0.47245 0.96729 0.92304 0.0
H1110 H 0.41531 0.9857 0.82212 0.0
H1111 H 0.53823 0.96431 0.88759 0.0
H1112 H 0.4507 0.96744 0.88563 0.0
H1113 H 0.49912 0.95984 0.82158 0.0
C1114 C 0.46804 0.96897 0.80049 0.0
C1115 C 0.44425 0.97646 0.80021 0.0
C1116 C 0.46988 0.96656 0.88597 0.0
C1117 C 0.46945 0.9693 0.84258 0.0
C1118 C 0.48235 0.96615 0.90737 0.0
C1119 C 0.50725 0.96567 0.90848 0.0
C1120 C 0.48232 0.9666 0.86541 0.0
C1121 C 0.51905 0.96488 0.88751 0.0
C1122 C 0.48074 0.96548 0.82165 0.0
C1123 C 0.43365 0.98007 0.82151 0.0
N1124 N 0.50646 0.96547 0.86677 0.0
N1125 N 0.44633 0.97643 0.84183 0.0
H1126 H 0.30607 0.17055 0.01749 0.0
H1127 H 0.36623 0.22967 0.13334 0.0
H1128 H 0.33701 0.12721 0.07445 0.0
H1129 H 0.30453 0.26077 0.0969 0.0
H1130 H 0.36849 0.19821 0.1026 0.0
H1131 H 0.31835 0.20931 0.03811 0.0
C1132 C 0.31597 0.16923 0.03404 0.0
C1133 C 0.32027 0.14581 0.04455 0.0
C1134 C 0.35488 0.21241 0.10115 0.0
C1135 C 0.33461 0.18967 0.06777 0.0
C1136 C 0.35345 0.23029 0.11871 0.0
C1137 C 0.33463 0.24742 0.11822 0.0
C1138 C 0.33765 0.21196 0.0828 0.0
C1139 C 0.31923 0.24789 0.09827 0.0
C1140 C 0.3229 0.19127 0.04575 0.0
C1141 C 0.33306 0.145 0.06601 0.0
N1142 N 0.32083 0.2301 0.08154 0.0
N1143 N 0.33967 0.16666 0.07702 0.0
H1144 H 0.21053 0.09307 0.06743 0.0
H1145 H 0.13179 0.02892 0.96959 0.0
H1146 H 0.23903 0.03712 0.02277 0.0
H1147 H 0.11635 0.10239 0.99617 0.0
H1148 H 0.17265 0.03344 0.98539 0.0
H1149 H 0.17738 0.09903 0.03908 0.0
C1150 C 0.20992 0.08239 0.05138 0.0
C1151 C 0.22736 0.06468 0.04724 0.0
C1152 C 0.16051 0.04886 0.98721 0.0
C1153 C 0.18931 0.07073 0.0151 0.0
C1154 C 0.13721 0.04628 0.9782 0.0
C1155 C 0.12064 0.06518 0.98184 0.0
C1156 C 0.16705 0.07025 0.00038 0.0
C1157 C 0.12856 0.08736 0.99299 0.0
C1158 C 0.1911 0.08582 0.03516 0.0
C1159 C 0.22585 0.05106 0.02638 0.0
N1160 N 0.15106 0.08904 0.00235 0.0
N1161 N 0.20686 0.05404 0.0112 0.0
H1162 H 0.71008 0.42027 0.0793 0.0
H1163 H 0.6234 0.51642 0.0117 0.0
H1164 H 0.73223 0.46893 0.02393 0.0
H1165 H 0.60335 0.47215 0.07088 0.0
H1166 H 0.66383 0.50074 0.01697 0.0
H1167 H 0.67139 0.44039 0.07747 0.0
C1168 C 0.70686 0.43527 0.06682 0.0
C1169 C 0.72441 0.44282 0.05164 0.0
C1170 C 0.65063 0.49459 0.0289 0.0
C1171 C 0.68002 0.46591 0.0494 0.0
C1172 C 0.62753 0.50355 0.02591 0.0
C1173 C 0.6099 0.49546 0.04078 0.0
C1174 C 0.65615 0.47732 0.04681 0.0
C1175 C 0.61632 0.47883 0.05894 0.0
C1176 C 0.68474 0.44679 0.0658 0.0
C1177 C 0.71922 0.46245 0.03592 0.0
N1178 N 0.63887 0.47018 0.06133 0.0
N1179 N 0.69745 0.4732 0.0351 0.0
H1180 H 0.83466 0.42025 0.23963 0.0
H1181 H 0.85817 0.27218 0.24657 0.0
H1182 H 0.90372 0.38838 0.23079 0.0
H1183 H 0.79212 0.3076 0.26177 0.0
H1184 H 0.87517 0.31382 0.23854 0.0
H1185 H 0.81839 0.37815 0.24439 0.0
C1186 C 0.84639 0.40436 0.23849 0.0
C1187 C 0.87063 0.40787 0.235 0.0
C1188 C 0.85698 0.31238 0.24368 0.0
C1189 C 0.85213 0.35944 0.24073 0.0
C1190 C 0.84732 0.28867 0.24837 0.0
C1191 C 0.8237 0.28639 0.25488 0.0
C1192 C 0.84287 0.33385 0.24546 0.0
C1193 C 0.8104 0.30837 0.25682 0.0
C1194 C 0.8371 0.38028 0.24131 0.0
C1195 C 0.88493 0.38653 0.23351 0.0
N1196 N 0.82015 0.33108 0.25208 0.0
N1197 N 0.87549 0.36317 0.23657 0.0
H1198 H 0.8382 0.64129 0.58556 0.0
H1199 H 0.91808 0.53013 0.54445 0.0
H1200 H 0.8153 0.56409 0.58947 0.0
H1201 H 0.94989 0.5931 0.58192 0.0
H1202 H 0.87878 0.54538 0.55358 0.0
H1203 H 0.8786 0.627 0.57801 0.0
C1204 C 0.84171 0.62135 0.58458 0.0
C1205 C 0.82339 0.60368 0.58695 0.0
C1206 C 0.8944 0.5558 0.5598 0.0
C1207 C 0.8689 0.58741 0.57831 0.0
C1208 C 0.91677 0.5472 0.55454 0.0
C1209 C 0.9372 0.56035 0.56254 0.0
C1210 C 0.89245 0.57799 0.57267 0.0
C1211 C 0.93453 0.58235 0.57559 0.0
C1212 C 0.86461 0.61325 0.58031 0.0
C1213 C 0.8287 0.57812 0.58607 0.0
N1214 N 0.91248 0.59065 0.5801 0.0
N1215 N 0.85093 0.57067 0.5815 0.0
H1216 H 0.22683 0.09056 0.19113 0.0
H1217 H 0.23137 0.22495 0.25379 0.0
H1218 H 0.17799 0.11407 0.24234 0.0
H1219 H 0.27572 0.20593 0.19726 0.0
H1220 H 0.21431 0.18269 0.25217 0.0
H1221 H 0.24728 0.1313 0.19507 0.0
C1222 C 0.22042 0.10425 0.2032 0.0
C1223 C 0.20061 0.09893 0.21635 0.0
C1224 C 0.22785 0.18769 0.24018 0.0
C1225 C 0.22395 0.14542 0.22103 0.0
C1226 C 0.23767 0.21182 0.24115 0.0
C1227 C 0.2549 0.21905 0.22554 0.0
C1228 C 0.23527 0.17059 0.22347 0.0
C1229 C 0.26241 0.20118 0.20958 0.0
C1230 C 0.2321 0.12748 0.20545 0.0
C1231 C 0.19311 0.11735 0.23176 0.0
N1232 N 0.25246 0.1778 0.20887 0.0
N1233 N 0.20477 0.13973 0.23365 0.0
H1234 H 0.37191 0.88212 0.58634 0.0
H1235 H 0.45242 -0.00221 0.54735 0.0
H1236 H 0.34616 0.95774 0.5767 0.0
H1237 H 0.48099 0.92511 0.56599 0.0
H1238 H 0.4132 0.98287 0.55729 0.0
H1239 H 0.41202 0.89725 0.57939 0.0
C1240 C 0.37472 0.90196 0.58306 0.0
C1241 C 0.3556 0.91866 0.58197 0.0
C1242 C 0.42802 0.97015 0.5592 0.0
C1243 C 0.4014 0.936 0.57365 0.0
C1244 C 0.45043 0.97861 0.55337 0.0
C1245 C 0.47004 0.96265 0.55578 0.0
C1246 C 0.42509 0.9455 0.56744 0.0
C1247 C 0.46636 0.93803 0.56379 0.0
C1248 C 0.39762 0.91056 0.579 0.0
C1249 C 0.36032 0.94416 0.57768 0.0
N1250 N 0.44429 0.9302 0.56933 0.0
N1251 N 0.38271 0.952 0.57346 0.0
H1252 H 0.82526 0.5388 0.26533 0.0
H1253 H 0.8154 0.68149 0.22321 0.0
H1254 H 0.85279 0.56616 0.201 0.0
H1255 H 0.78908 0.65344 0.28783 0.0
H1256 H 0.82477 0.63846 0.21227 0.0
H1257 H 0.807 0.57949 0.27105 0.0
C1258 C 0.82722 0.55327 0.25224 0.0
C1259 C 0.84086 0.54919 0.23282 0.0
C1260 C 0.81676 0.64172 0.22875 0.0
C1261 C 0.82021 0.59597 0.23941 0.0
C1262 C 0.81144 0.66628 0.23502 0.0
C1263 C 0.80171 0.67109 0.25659 0.0
C1264 C 0.81236 0.62186 0.24418 0.0
C1265 C 0.79679 0.65064 0.27113 0.0
C1266 C 0.81681 0.57654 0.25554 0.0
C1267 C 0.84258 0.56855 0.21633 0.0
N1268 N 0.80234 0.62697 0.26473 0.0
N1269 N 0.83264 0.59123 0.22015 0.0
H1270 H 0.70815 0.45972 0.70452 0.0
H1271 H 0.77822 0.364 0.78939 0.0
H1272 H 0.72236 0.47269 0.77804 0.0
H1273 H 0.7528 0.34558 0.71939 0.0
H1274 H 0.76392 0.40683 0.7835 0.0
H1275 H 0.73016 0.42049 0.70791 0.0
C1276 C 0.71598 0.45438 0.72135 0.0
C1277 C 0.71321 0.46932 0.74109 0.0
C1278 C 0.76167 0.39345 0.76937 0.0
C1279 C 0.73844 0.42461 0.74505 0.0
C1280 C 0.7699 0.36904 0.77269 0.0
C1281 C 0.76638 0.35115 0.75495 0.0
C1282 C 0.74992 0.39995 0.74817 0.0
C1283 C 0.75561 0.35872 0.73363 0.0
C1284 C 0.72855 0.43201 0.72326 0.0
C1285 C 0.72386 0.46159 0.76242 0.0
N1286 N 0.74758 0.38253 0.7309 0.0
N1287 N 0.73592 0.43969 0.76386 0.0
H1288 H 0.93366 0.86432 0.93946 0.0
H1289 H 0.02731 0.9704 0.97848 0.0
H1290 H 0.00893 0.85864 0.93009 0.0
H1291 H 0.9546 0.96984 -0.00106 0.0
H1292 H 0.02153 0.92794 0.96314 0.0
H1293 H 0.94124 0.90183 0.96326 0.0
C1294 C 0.95177 0.87088 0.94249 0.0
C1295 C 0.97065 0.85851 0.93257 0.0
C1296 C 0.00692 0.93697 0.97127 0.0
C1297 C 0.97945 0.90133 0.95973 0.0
C1298 C 0.01023 0.9612 0.98005 0.0
C1299 C 0.99133 0.97377 0.98973 0.0
C1300 C 0.98447 0.92538 0.97192 0.0
C1301 C 0.96962 0.9609 0.99146 0.0
C1302 C 0.9561 0.89222 0.95616 0.0
C1303 C 0.9938 0.86771 0.93723 0.0
N1304 N 0.96668 0.93752 0.98232 0.0
N1305 N -0.00249 0.88869 0.95031 0.0
H1306 H 0.93322 0.2694 0.6506 0.0
H1307 H 0.86872 0.28315 0.77129 0.0
H1308 H 0.97172 0.27491 0.71708 0.0
H1309 H 0.83202 0.27114 0.7046 0.0
H1310 H 0.90663 0.28176 0.75209 0.0
H1311 H 0.89608 0.27138 0.67041 0.0
C1312 C 0.9339 0.271 0.6694 0.0
C1313 C 0.95569 0.27196 0.68217 0.0
C1314 C 0.89026 0.27946 0.74169 0.0
C1315 C 0.91296 0.27433 0.7051 0.0
C1316 C 0.86861 0.28031 0.75263 0.0
C1317 C 0.84712 0.27724 0.73956 0.0
C1318 C 0.89042 0.27559 0.71751 0.0
C1319 C 0.84809 0.27357 0.71543 0.0
C1320 C 0.91261 0.27213 0.68074 0.0
C1321 C 0.95535 0.27404 0.70654 0.0
N1322 N 0.86932 0.27286 0.70524 0.0
N1323 N 0.93431 0.2752 0.71721 0.0
H1324 H 0.49497 0.19658 0.40052 0.0
H1325 H 0.49259 0.13288 0.52599 0.0
H1326 H 0.47815 0.23724 0.4625 0.0
H1327 H 0.49801 0.09132 0.46206 0.0
H1328 H 0.48592 0.17126 0.50314 0.0
H1329 H 0.49471 0.15755 0.4228 0.0
C1330 C 0.49108 0.19727 0.4188 0.0
C1331 C 0.48676 0.22019 0.42973 0.0
C1332 C 0.4883 0.15368 0.49413 0.0
C1333 C 0.48656 0.17562 0.45536 0.0
C1334 C 0.49221 0.13184 0.50716 0.0
C1335 C 0.49591 0.10896 0.49589 0.0
C1336 C 0.48836 0.15259 0.46971 0.0
C1337 C 0.495 0.10853 0.47145 0.0
C1338 C 0.49089 0.17497 0.4315 0.0
C1339 C 0.48167 0.21997 0.45341 0.0
N1340 N 0.49152 0.13007 0.45919 0.0
N1341 N 0.48192 0.19803 0.46551 0.0
H1342 H 0.59135 0.72007 0.23933 0.0
H1343 H 0.72558 0.76438 0.22314 0.0
H1344 H 0.61132 0.77625 0.18939 0.0
H1345 H 0.7038 0.7236 0.2837 0.0
H1346 H 0.68414 0.76628 0.20899 0.0
H1347 H 0.63259 0.71887 0.25454 0.0
C1348 C 0.60436 0.73224 0.23161 0.0
C1349 C 0.59778 0.7483 0.21302 0.0
C1350 C 0.6884 0.75693 0.22539 0.0
C1351 C 0.64517 0.74678 0.23023 0.0
C1352 C 0.71211 0.75572 0.23345 0.0
C1353 C 0.71826 0.74379 0.25468 0.0
C1354 C 0.67059 0.74591 0.23847 0.0
C1355 C 0.69993 0.73302 0.26727 0.0
C1356 C 0.62792 0.73154 0.24033 0.0
C1357 C 0.61548 0.76363 0.20376 0.0
N1358 N 0.67696 0.73425 0.25895 0.0
N1359 N 0.63833 0.76237 0.21235 0.0
H1360 H 0.02315 0.19303 0.63706 0.0
H1361 H 0.05317 0.12159 0.51941 0.0
H1362 H 0.04479 0.23141 0.57512 0.0
H1363 H 0.03512 0.08371 0.58283 0.0
H1364 H 0.04976 0.162 0.53919 0.0
H1365 H 0.02663 0.15291 0.61705 0.0
C1366 C 0.02856 0.19306 0.61922 0.0
C1367 C 0.0337 0.2157 0.60778 0.0
C1368 C 0.04659 0.14485 0.54878 0.0
C1369 C 0.0378 0.16964 0.58472 0.0
C1370 C 0.04857 0.12174 0.53751 0.0
C1371 C 0.04443 0.09917 0.54946 0.0
C1372 C 0.04037 0.14544 0.57218 0.0
C1373 C 0.03849 0.10059 0.57289 0.0
C1374 C 0.0306 0.17009 0.6078 0.0
C1375 C 0.04065 0.21446 0.58465 0.0
N1376 N 0.0366 0.12329 0.58344 0.0
N1377 N 0.04251 0.19185 0.5739 0.0
H1378 H 0.55563 0.28007 0.32675 0.0
H1379 H 0.69663 0.26795 0.33582 0.0
H1380 H 0.59596 0.26268 0.39034 0.0
H1381 H 0.65616 0.27453 0.27052 0.0
H1382 H 0.66023 0.27217 0.35654 0.0
H1383 H 0.59255 0.2831 0.30635 0.0
C1384 C 0.57226 0.27687 0.33643 0.0
C1385 C 0.57274 0.27093 0.36025 0.0
C1386 C 0.65931 0.27293 0.33768 0.0
C1387 C 0.61499 0.27457 0.33705 0.0
C1388 C 0.68014 0.27081 0.32582 0.0
C1389 C 0.67941 0.27083 0.30138 0.0
C1390 C 0.63757 0.275 0.32503 0.0
C1391 C 0.65745 0.2741 0.28937 0.0
C1392 C 0.59331 0.27866 0.32477 0.0
C1393 C 0.59476 0.26711 0.37193 0.0
N1394 N 0.63734 0.2759 0.30133 0.0
N1395 N 0.61503 0.26896 0.36019 0.0
H1396 H 0.52549 0.86247 0.16195 0.0
H1397 H 0.5403 0.91445 0.03215 0.0
H1398 H 0.53867 0.81345 0.1043 0.0
H1399 H 0.52857 0.96046 0.09226 0.0
H1400 H 0.53825 0.87683 0.05708 0.0
H1401 H 0.52521 0.8982 0.13556 0.0
C1402 C 0.52833 0.85918 0.1437 0.0
C1403 C 0.53219 0.83487 0.13539 0.0
C1404 C 0.53605 0.8952 0.0647 0.0
C1405 C 0.5319 0.87603 0.10481 0.0
C1406 C 0.53715 0.91664 0.05049 0.0
C1407 C 0.53471 0.94068 0.06011 0.0
C1408 C 0.53242 0.8979 0.08863 0.0
C1409 C 0.5307 0.94241 0.084 0.0
C1410 C 0.52816 0.87967 0.12857 0.0
C1411 C 0.53568 0.83188 0.11148 0.0
N1412 N 0.52974 0.92141 0.09734 0.0
N1413 N 0.53551 0.85224 0.09701 0.0
H1414 H 0.94885 0.79247 0.81643 0.0
H1415 H 0.81998 0.83538 0.77183 0.0
H1416 H 0.89194 0.8112 0.86076 0.0
H1417 H 0.85869 0.78059 0.73397 0.0
H1418 H 0.85375 0.83989 0.79956 0.0
H1419 H 0.922 0.79932 0.7821 0.0
C1420 C 0.93078 0.79822 0.8189 0.0
C1421 C 0.92242 0.80106 0.84139 0.0
C1422 C 0.85507 0.82733 0.78488 0.0
C1423 C 0.89221 0.80955 0.80251 0.0
C1424 C 0.83594 0.82488 0.76897 0.0
C1425 C 0.83652 0.80726 0.75092 0.0
C1426 C 0.87487 0.812 0.78273 0.0
C1427 C 0.85762 0.79429 0.74778 0.0
C1428 C 0.91559 0.80212 0.79937 0.0
C1429 C 0.89895 0.80851 0.84373 0.0
N1430 N 0.87595 0.79652 0.76393 0.0
N1431 N 0.88467 0.81258 0.8245 0.0
H1432 H 0.87975 0.01005 0.84119 0.0
H1433 H -0.00158 0.0497 0.91411 0.0
H1434 H 0.94994 0.00489 0.8147 0.0
H1435 H 0.92877 0.04955 0.94233 0.0
H1436 H 0.98064 0.03592 0.8767 0.0
H1437 H 0.89727 0.02551 0.8781 0.0
C1438 C 0.89887 0.01189 0.84321 0.0
C1439 C 0.9134 0.0062 0.8248 0.0
C1440 C 0.96924 0.03908 0.89104 0.0
C1441 C 0.93354 0.02429 0.8669 0.0
C1442 C 0.97935 0.04717 0.91235 0.0
C1443 C 0.96508 0.05067 0.93143 0.0
C1444 C 0.94468 0.03447 0.88878 0.0
C1445 C 0.94048 0.047 0.92813 0.0
C1446 C 0.90885 0.02088 0.86426 0.0
C1447 C 0.93805 0.00903 0.82841 0.0
N1448 N 0.93108 0.03895 0.90726 0.0
N1449 N 0.94733 0.01801 0.84901 0.0
H1450 H 0.77066 0.12632 0.57077 0.0
H1451 H 0.75268 0.2596 0.63052 0.0
H1452 H 0.79486 0.19595 0.54074 0.0
H1453 H 0.75357 0.18923 0.66828 0.0
H1454 H 0.76142 0.23673 0.59508 0.0
H1455 H 0.75795 0.14951 0.60448 0.0
C1456 C 0.77335 0.1465 0.57128 0.0
C1457 C 0.78398 0.15922 0.55298 0.0
C1458 C 0.75948 0.22638 0.61114 0.0
C1459 C 0.76916 0.18589 0.59142 0.0
C1460 C 0.75451 0.23938 0.6314 0.0
C1461 C 0.75253 0.22643 0.6526 0.0
C1462 C 0.76223 0.20022 0.61201 0.0
C1463 C 0.75457 0.20012 0.65243 0.0
C1464 C 0.76606 0.15972 0.59053 0.0
C1465 C 0.78694 0.18539 0.55457 0.0
N1466 N 0.7594 0.18794 0.63251 0.0
N1467 N 0.77949 0.19792 0.57346 0.0
H1468 H 0.59016 0.02094 0.37336 0.0
H1469 H 0.57177 0.93946 0.48616 0.0
H1470 H 0.61637 0.94519 0.37959 0.0
H1471 H 0.52774 0.00254 0.46619 0.0
H1472 H 0.58736 0.93951 0.44702 0.0
H1473 H 0.56696 0.01388 0.40759 0.0
C1474 C 0.59098 0.00279 0.38192 0.0
C1475 C 0.60533 0.98369 0.37375 0.0
C1476 C 0.57395 0.953 0.45113 0.0
C1477 C 0.57888 0.97546 0.41303 0.0
C1478 C 0.56497 0.95291 0.47342 0.0
C1479 C 0.54874 0.97129 0.47957 0.0
C1480 C 0.56679 0.97175 0.43512 0.0
C1481 C 0.54052 0.98826 0.46235 0.0
C1482 C 0.5776 -0.00132 0.40137 0.0
C1483 C 0.60555 0.96043 0.38538 0.0
N1484 N 0.54993 0.98835 0.44107 0.0
N1485 N 0.59275 0.95705 0.40466 0.0
H1486 H 0.8177 0.8704 0.06593 0.0
H1487 H 0.82569 0.75053 0.14795 0.0
H1488 H 0.7963 0.79547 0.04456 0.0
H1489 H 0.82873 0.82762 0.17137 0.0
H1490 H 0.8286 0.76525 0.10785 0.0
H1491 H 0.83644 0.85298 0.1014 0.0
C1492 C 0.81747 0.8502 0.06837 0.0
C1493 C 0.80466 0.83443 0.05266 0.0
C1494 C 0.8291 0.77888 0.12185 0.0
C1495 C 0.82584 0.8145 0.09331 0.0
C1496 C 0.82725 0.77053 0.14472 0.0
C1497 C 0.82627 0.7879 0.16303 0.0
C1498 C 0.83003 0.80476 0.11725 0.0
C1499 C 0.82923 0.81351 0.15787 0.0
C1500 C 0.82811 0.8403 0.08869 0.0
C1501 C 0.80546 0.80839 0.05648 0.0
N1502 N 0.83058 0.82118 0.13542 0.0
N1503 N 0.81535 0.79926 0.07674 0.0
H1504 H 0.93914 0.05143 0.72316 0.0
H1505 H 0.98872 0.95749 0.62875 0.0
H1506 H 0.91136 0.97639 0.71114 0.0
H1507 H 0.01256 0.03435 0.63822 0.0
H1508 H 0.96331 0.96227 0.66181 0.0
H1509 H 0.96903 0.04384 0.6947 0.0
C1510 C 0.93933 0.03335 0.71455 0.0
C1511 C 0.92261 0.0146 0.7194 0.0
C1512 C 0.97434 0.97797 0.65679 0.0
C1513 C 0.95684 0.00573 0.68684 0.0
C1514 C 0.98882 0.97526 0.63791 0.0
C1515 C 0.00277 0.99555 0.6306 0.0
C1516 C 0.97374 0.00117 0.66837 0.0
C1517 C 0.00241 0.01805 0.64334 0.0
C1518 C 0.95645 0.02899 0.69833 0.0
C1519 C 0.92382 0.99145 0.70783 0.0
N1520 N 0.98799 0.02029 0.66144 0.0
N1521 N 0.94058 0.98771 0.69201 0.0
H1522 H 0.81001 0.12692 0.43398 0.0
H1523 H 0.77557 0.23477 0.34268 0.0
H1524 H 0.76297 0.18786 0.44847 0.0
H1525 H 0.82646 0.17695 0.32993 0.0
H1526 H 0.77405 0.22054 0.38293 0.0
H1527 H 0.81886 0.14697 0.39715 0.0
C1528 C 0.80155 0.14456 0.42944 0.0
C1529 C 0.78551 0.1556 0.44424 0.0
C1530 C 0.7858 0.21115 0.37145 0.0
C1531 C 0.79567 0.17872 0.40205 0.0
C1532 C 0.78674 0.21932 0.34846 0.0
C1533 C 0.80096 0.20681 0.33285 0.0
C1534 C 0.799 0.19016 0.37886 0.0
C1535 C 0.81517 0.18705 0.34135 0.0
C1536 C 0.80671 0.15606 0.40843 0.0
C1537 C 0.7753 0.17858 0.43753 0.0
N1538 N 0.81357 0.17909 0.36372 0.0
N1539 N 0.78042 0.18928 0.41684 0.0
H1540 H 0.57636 0.02753 0.27057 0.0
H1541 H 0.60296 0.02511 0.13565 0.0
H1542 H 0.6273 0.97851 0.24066 0.0
H1543 H 0.53635 0.05149 0.15986 0.0
H1544 H 0.61525 0.01417 0.17554 0.0
H1545 H 0.56361 0.04121 0.23121 0.0
C1546 C 0.58471 0.01949 0.25574 0.0
C1547 C 0.60291 0.00184 0.25887 0.0
C1548 C 0.59801 0.02252 0.17217 0.0
C1549 C 0.58879 0.01778 0.21407 0.0
C1550 C 0.59111 0.02913 0.14944 0.0
C1551 C 0.56862 0.03933 0.14445 0.0
C1552 C 0.5824 0.02625 0.19012 0.0
C1553 C 0.5538 0.04357 0.16299 0.0
C1554 C 0.57746 0.02735 0.23335 0.0
C1555 C 0.61314 0.99207 0.23908 0.0
N1556 N 0.56094 0.03697 0.18508 0.0
N1557 N 0.60607 0.00034 0.21754 0.0
H1558 H 0.73638 0.88335 0.94988 0.0
H1559 H 0.74139 0.76982 0.86111 0.0
H1560 H 0.72185 0.80665 0.96985 0.0
H1561 H 0.72982 0.84624 0.83848 0.0
H1562 H 0.73588 0.78286 0.90135 0.0
H1563 H 0.73554 0.87027 0.90906 0.0
C1564 C 0.73286 0.86379 0.94566 0.0
C1565 C 0.72929 0.84603 0.96327 0.0
C1566 C 0.7343 0.79672 0.88755 0.0
C1567 C 0.72857 0.83093 0.91669 0.0
C1568 C 0.73755 0.78932 0.86465 0.0
C1569 C 0.7361 0.80702 0.84653 0.0
C1570 C 0.73 0.82209 0.89239 0.0
C1571 C 0.73092 0.832 0.85197 0.0
C1572 C 0.73231 0.85636 0.92236 0.0
C1573 C 0.72469 0.82096 0.95681 0.0
N1574 N 0.72833 0.83887 0.87446 0.0
N1575 N 0.72473 0.81409 0.93405 0.0
H1576 H 0.77276 0.95488 0.05747 0.0
H1577 H 0.86055 0.04369 0.99042 0.0
H1578 H 0.76673 0.97015 0.98362 0.0
H1579 H 0.86982 0.02453 0.06331 0.0
H1580 H 0.82077 0.02552 0.98992 0.0
H1581 H 0.80218 0.98869 0.06194 0.0
C1582 C 0.77722 0.96569 0.04225 0.0
C1583 C 0.76772 0.95922 0.02002 0.0
C1584 C 0.83133 0.02564 0.00614 0.0
C1585 C 0.8016 -0.00224 0.02502 0.0
C1586 C 0.85406 0.03622 0.00651 0.0
C1587 C 0.86878 0.03533 0.02688 0.0
C1588 C 0.82326 0.01386 0.02622 0.0
C1589 C 0.85935 0.02509 0.04706 0.0
C1590 C 0.79411 0.98496 0.04482 0.0
C1591 C 0.77391 0.97415 0.00102 0.0
N1592 N 0.83732 0.01442 0.04613 0.0
N1593 N 0.7908 0.99241 0.00389 0.0
H1594 H 0.33889 0.55097 0.02131 0.0
H1595 H 0.47386 0.56031 0.98494 0.0
H1596 H 0.36897 0.61535 0.98708 0.0
H1597 H 0.45116 0.5102 0.03899 0.0
H1598 H 0.43341 0.57587 0.98005 0.0
H1599 H 0.37812 0.53125 0.02275 0.0
C1600 C 0.35369 0.56086 0.01398 0.0
C1601 C 0.35073 0.58489 0.0042 0.0
C1602 C 0.43726 0.56138 0.9929 0.0
C1603 C 0.39537 0.56244 0.0056 0.0
C1604 C 0.46033 0.55239 0.99565 0.0
C1605 C 0.46596 0.53404 0.01253 0.0
C1606 C 0.41957 0.55183 0.00698 0.0
C1607 C 0.44764 0.52448 0.02587 0.0
C1608 C 0.37603 0.54966 0.01488 0.0
C1609 C 0.37048 0.5969 0.99497 0.0
N1610 N 0.42524 0.53353 0.02285 0.0
N1611 N 0.39192 0.58554 0.99586 0.0
H1612 H 0.13114 0.58464 0.80392 0.0
H1613 H 0.25419 0.64605 0.76889 0.0
H1614 H 0.19861 0.54817 0.81578 0.0
H1615 H 0.19066 0.68923 0.77661 0.0
H1616 H 0.2329 0.6084 0.78115 0.0
H1617 H 0.15181 0.62198 0.79011 0.0
C1618 C 0.15033 0.58456 0.80378 0.0
C1619 C 0.16319 0.5633 0.81104 0.0
C1620 C 0.22361 0.6261 0.78003 0.0
C1621 C 0.18689 0.60579 0.79489 0.0
C1622 C 0.23566 0.64756 0.77282 0.0
C1623 C 0.22419 0.67084 0.77179 0.0
C1624 C 0.19986 0.62789 0.78605 0.0
C1625 C 0.20021 0.67168 0.77722 0.0
C1626 C 0.16209 0.60586 0.79585 0.0
C1627 C 0.18802 0.56422 0.81048 0.0
N1628 N 0.18884 0.65051 0.78417 0.0
N1629 N 0.19907 0.58508 0.80236 0.0
H1630 H 0.1792 0.43272 0.54671 0.0
H1631 H 0.06059 0.49642 0.49469 0.0
H1632 H 0.14435 0.41324 0.48064 0.0
H1633 H 0.08878 0.50949 0.5648 0.0
H1634 H 0.0951 0.47119 0.48714 0.0
H1635 H 0.14981 0.46557 0.55163 0.0
C1636 C 0.16546 0.43545 0.53317 0.0
C1637 C 0.16405 0.42005 0.51333 0.0
C1638 C 0.09389 0.47973 0.50413 0.0
C1639 C 0.13054 0.4576 0.51882 0.0
C1640 C 0.07419 0.4942 0.50845 0.0
C1641 C 0.07165 0.50478 0.53053 0.0
C1642 C 0.11117 0.47564 0.52203 0.0
C1643 C 0.08998 0.50153 0.54758 0.0
C1644 C 0.14872 0.45419 0.536 0.0
C1645 C 0.14597 0.42449 0.49632 0.0
N1646 N 0.10888 0.48697 0.54306 0.0
N1647 N 0.12988 0.44277 0.49951 0.0
H1648 H 0.81353 0.97239 0.69413 0.0
H1649 H 0.73489 0.86132 0.74252 0.0
H1650 H 0.79797 0.96029 0.76616 0.0
H1651 H 0.77279 0.85719 0.67906 0.0
H1652 H 0.74325 0.90634 0.74429 0.0
H1653 H 0.78518 0.93882 0.6829 0.0
C1654 C 0.80378 0.96304 0.70752 0.0
C1655 C 0.80846 0.96859 0.73115 0.0
C1656 C 0.74915 0.89568 0.72963 0.0
C1657 C 0.77595 0.93075 0.71841 0.0
C1658 C 0.74434 0.86999 0.72855 0.0
C1659 C 0.754 0.85535 0.7111 0.0
C1660 C 0.76369 0.90667 0.7132 0.0
C1661 C 0.76559 0.86769 0.69317 0.0
C1662 C 0.78762 0.94398 0.70108 0.0
C1663 C 0.79525 0.95612 0.74779 0.0
N1664 N 0.77068 0.89263 0.695 0.0
N1665 N 0.77976 0.93757 0.74112 0.0
H1666 H 0.69304 0.11185 0.50044 0.0
H1667 H 0.62795 0.98843 0.54722 0.0
H1668 H 0.72953 0.04181 0.51272 0.0
H1669 H 0.59443 0.06029 0.53588 0.0
H1670 H 0.66549 0.00695 0.53512 0.0
H1671 H 0.65657 0.09224 0.51268 0.0
C1672 C 0.69335 0.09224 0.50556 0.0
C1673 C 0.7144 0.07848 0.50563 0.0
C1674 C 0.64991 0.01863 0.53542 0.0
C1675 C 0.67256 0.05585 0.51998 0.0
C1676 C 0.62854 0.00813 0.54247 0.0
C1677 C 0.60801 0.02281 0.54252 0.0
C1678 C 0.65065 0.04394 0.52839 0.0
C1679 C 0.60975 0.04819 0.53604 0.0
C1680 C 0.67249 0.08105 0.51266 0.0
C1681 C 0.71367 0.0531 0.51238 0.0
N1682 N 0.63062 0.05787 0.52918 0.0
N1683 N 0.69307 0.04259 0.51942 0.0
H1684 H 0.21838 0.45197 0.7804 0.0
H1685 H 0.24714 0.31408 0.82865 0.0
H1686 H 0.18948 0.42031 0.84243 0.0
H1687 H 0.27297 0.34349 0.76432 0.0
H1688 H 0.23019 0.35499 0.83654 0.0
H1689 H 0.24262 0.41449 0.77678 0.0
C1690 C 0.21728 0.43725 0.79337 0.0
C1691 C 0.20168 0.43915 0.8116 0.0
C1692 C 0.23972 0.35257 0.82078 0.0
C1693 C 0.22931 0.39623 0.80752 0.0
C1694 C 0.24944 0.32921 0.81627 0.0
C1695 C 0.26126 0.32528 0.79566 0.0
C1696 C 0.24175 0.37215 0.80454 0.0
C1697 C 0.26384 0.34563 0.78035 0.0
C1698 C 0.23111 0.41585 0.79128 0.0
C1699 C 0.20108 0.41956 0.82797 0.0
N1700 N 0.25396 0.36814 0.785 0.0
N1701 N 0.21456 0.39885 0.82544 0.0
H1702 H 0.34485 0.59356 0.28141 0.0
H1703 H 0.33161 0.73601 0.32211 0.0
H1704 H 0.38913 0.62772 0.33616 0.0
H1705 H 0.29167 0.70247 0.26403 0.0
H1706 H 0.34956 0.69523 0.33076 0.0
H1707 H 0.32203 0.63205 0.27806 0.0
C1708 C 0.34973 0.60914 0.29282 0.0
C1709 C 0.36911 0.60752 0.30893 0.0
C1710 C 0.33673 0.69678 0.31625 0.0
C1711 C 0.343 0.65175 0.30513 0.0
C1712 C 0.32643 0.72003 0.31132 0.0
C1713 C 0.3103 0.72269 0.29216 0.0
C1714 C 0.33081 0.67608 0.30193 0.0
C1715 C 0.30417 0.70134 0.27884 0.0
C1716 C 0.33666 0.63113 0.2909 0.0
C1717 C 0.37443 0.62823 0.32339 0.0
N1718 N 0.31456 0.67898 0.28389 0.0
N1719 N 0.36154 0.64959 0.32103 0.0
H1720 H 0.52463 0.69557 0.5969 0.0
H1721 H 0.46471 0.56248 0.57066 0.0
H1722 H 0.47236 0.65965 0.63861 0.0
H1723 H 0.52929 0.58912 0.54089 0.0
H1724 H 0.45827 0.60459 0.58568 0.0
H1725 H 0.51678 0.66376 0.56663 0.0
C1726 C 0.51093 0.6815 0.5993 0.0
C1727 C 0.49947 0.67972 0.62037 0.0
C1728 C 0.47364 0.6013 0.57552 0.0
C1729 C 0.49061 0.64348 0.58622 0.0
C1730 C 0.47738 0.57726 0.56702 0.0
C1731 C 0.49795 0.57215 0.55514 0.0
C1732 C 0.49064 0.62028 0.57222 0.0
C1733 C 0.51348 0.59212 0.55047 0.0
C1734 C 0.50657 0.6633 0.58213 0.0
C1735 C 0.48189 0.66124 0.62273 0.0
N1736 N 0.50972 0.61526 0.5594 0.0
N1737 N 0.47825 0.64355 0.606 0.0
H1738 H 0.63125 0.27663 0.8934 0.0
H1739 H 0.68923 0.26339 0.76909 0.0
H1740 H 0.58917 0.26355 0.82988 0.0
H1741 H 0.72843 0.27897 0.83383 0.0
H1742 H 0.65231 0.26296 0.79027 0.0
H1743 H 0.66688 0.2773 0.87115 0.0
C1744 C 0.62946 0.27393 0.87473 0.0
C1745 C 0.6071 0.27001 0.86354 0.0
C1746 C 0.66903 0.26647 0.79977 0.0
C1747 C 0.64817 0.27069 0.83774 0.0
C1748 C 0.69011 0.2667 0.7877 0.0
C1749 C 0.71202 0.27123 0.79965 0.0
C1750 C 0.66992 0.27077 0.82395 0.0
C1751 C 0.71204 0.2754 0.82379 0.0
C1752 C 0.6499 0.27431 0.86198 0.0
C1753 C 0.60603 0.26665 0.83924 0.0
N1754 N 0.69141 0.27506 0.83505 0.0
N1755 N 0.62628 0.26702 0.82714 0.0
H1756 H 0.09758 0.28941 0.18896 0.0
H1757 H 0.02072 0.38978 0.11666 0.0
H1758 H 0.02197 0.28322 0.17453 0.0
H1759 H 0.09617 0.39794 0.13074 0.0
H1760 H 0.02035 0.35347 0.14246 0.0
H1761 H 0.09675 0.33223 0.17344 0.0
C1762 C 0.08071 0.29726 0.18309 0.0
C1763 C 0.05985 0.28259 0.18266 0.0
C1764 C 0.03702 0.36319 0.14004 0.0
C1765 C 0.05888 0.33132 0.16459 0.0
C1766 C 0.03727 0.38378 0.12512 0.0
C1767 C 0.05861 0.3965 0.12118 0.0
C1768 C 0.0583 0.35504 0.15104 0.0
C1769 C 0.07939 0.38847 0.13317 0.0
C1770 C 0.08029 0.32165 0.17407 0.0
C1771 C 0.03852 0.29373 0.17486 0.0
N1772 N 0.07878 0.368 0.14739 0.0
N1773 N 0.03865 0.31729 0.16583 0.0
H1774 H 0.98415 0.78434 0.33909 0.0
H1775 H 0.85523 0.72196 0.33296 0.0
H1776 H 0.96793 0.71236 0.3697 0.0
H1777 H 0.87689 0.77402 0.28008 0.0
H1778 H 0.89571 0.722 0.34964 0.0
H1779 H 0.94426 0.78444 0.31987 0.0
C1780 C 0.97227 0.76855 0.34172 0.0
C1781 C 0.9794 0.74832 0.35607 0.0
C1782 C 0.89167 0.73337 0.33435 0.0
C1783 C 0.93384 0.74851 0.33444 0.0
C1784 C 0.86851 0.73345 0.32485 0.0
C1785 C 0.86265 0.74799 0.30505 0.0
C1786 C 0.90917 0.74824 0.32427 0.0
C1787 C 0.88068 0.76245 0.29529 0.0
C1788 C 0.94959 0.76861 0.3307 0.0
C1789 C 0.96329 0.72835 0.3588 0.0
N1790 N 0.90315 0.76237 0.3051 0.0
N1791 N 0.94127 0.72906 0.34828 0.0
H1792 H 0.5354 0.36361 0.88926 0.0
H1793 H 0.52709 0.42045 0.01782 0.0
H1794 H 0.53432 0.31689 0.95072 0.0
H1795 H 0.53613 0.46495 0.95588 0.0
H1796 H 0.52742 0.38223 0.99391 0.0
H1797 H 0.53362 0.40076 0.91373 0.0
C1798 C 0.5348 0.36112 0.90794 0.0
C1799 C 0.53505 0.33701 0.9179 0.0
C1800 C 0.52928 0.40039 0.9856 0.0
C1801 C 0.53292 0.37978 0.94623 0.0
C1802 C 0.529 0.42222 -0.00078 0.0
C1803 C 0.53162 0.446 0.98889 0.0
C1804 C 0.53207 0.40237 0.96146 0.0
C1805 C 0.53412 0.44709 0.96469 0.0
C1806 C 0.53378 0.38242 0.92195 0.0
C1807 C 0.53422 0.33509 0.94227 0.0
N1808 N 0.53428 0.42567 0.95188 0.0
N1809 N 0.53317 0.35619 0.9556 0.0
H1810 H 0.01958 0.16421 0.23026 0.0
H1811 H 0.88745 0.14114 0.20048 0.0
H1812 H 0.9951 0.12649 0.16712 0.0
H1813 H 0.91416 0.15037 0.27165 0.0
H1814 H 0.9267 0.12856 0.18974 0.0
H1815 H 0.98267 0.15231 0.24807 0.0
C1816 C 0.00668 0.15283 0.22037 0.0
C1817 C 0.01007 0.14692 0.197 0.0
C1818 C 0.9239 0.13279 0.20783 0.0
C1819 C 0.96762 0.13379 0.21699 0.0
C1820 C 0.90136 0.13993 0.21403 0.0
C1821 C 0.89754 0.14758 0.23692 0.0
C1822 C 0.94288 0.13382 0.22448 0.0
C1823 C 0.91646 0.14564 0.25359 0.0
C1824 C 0.9856 0.146 0.23054 0.0
C1825 C 0.993 0.13181 0.18507 0.0
N1826 N 0.93845 0.13956 0.24693 0.0
N1827 N 0.97216 0.12638 0.19498 0.0
H1828 H 0.03438 0.69026 0.41703 0.0
H1829 H 0.0355 0.62346 0.54234 0.0
H1830 H 0.05504 0.72859 0.48104 0.0
H1831 H 0.00669 0.58916 0.47902 0.0
H1832 H 0.04474 0.66143 0.52017 0.0
H1833 H 0.02649 0.65224 0.43938 0.0
C1834 C 0.0374 0.69067 0.43578 0.0
C1835 C 0.04537 0.71273 0.44715 0.0
C1836 C 0.03637 0.64559 0.51115 0.0
C1837 C 0.03624 0.66912 0.47293 0.0
C1838 C 0.03108 0.6239 0.5238 0.0
C1839 C 0.02024 0.60306 0.51256 0.0
C1840 C 0.03092 0.64644 0.48705 0.0
C1841 C 0.01497 0.60475 0.48848 0.0
C1842 C 0.03279 0.66894 0.44856 0.0
C1843 C 0.04888 0.71207 0.47152 0.0
N1844 N 0.02039 0.62599 0.47656 0.0
N1845 N 0.04428 0.69065 0.48358 0.0
H1846 H 0.60399 0.69466 0.64186 0.0
H1847 H 0.6932 0.74191 0.74253 0.0
H1848 H 0.59859 0.67428 0.71423 0.0
H1849 H 0.71024 0.74624 0.67009 0.0
H1850 H 0.65877 0.716 0.73174 0.0
H1851 H 0.64417 0.71059 0.65072 0.0
C1852 C 0.61146 0.6929 0.65948 0.0
C1853 C 0.59774 0.68373 0.67748 0.0
C1854 C 0.67006 0.72249 0.71817 0.0
C1855 C 0.64333 0.70229 0.68772 0.0
C1856 C 0.68959 0.73756 0.7243 0.0
C1857 C 0.70445 0.74647 0.70715 0.0
C1858 C 0.66511 0.71649 0.69467 0.0
C1859 C 0.69908 0.73992 0.68383 0.0
C1860 C 0.63435 0.70215 0.66454 0.0
C1861 C 0.60837 0.68171 0.69992 0.0
N1862 N 0.67967 0.72544 0.67822 0.0
N1863 N 0.63038 0.69139 0.7045 0.0
H1864 H 0.59104 0.49844 0.72724 0.0
H1865 H 0.58477 0.50006 0.58849 0.0
H1866 H 0.64309 0.53414 0.68496 0.0
H1867 H 0.52205 0.48727 0.62746 0.0
H1868 H 0.60775 0.50639 0.62468 0.0
H1869 H 0.56652 0.48937 0.69178 0.0
C1870 C 0.59726 0.50445 0.71054 0.0
C1871 C 0.61916 0.51704 0.70903 0.0
C1872 C 0.58898 0.50216 0.62541 0.0
C1873 C 0.59144 0.50645 0.66862 0.0
C1874 C 0.57579 0.4984 0.60471 0.0
C1875 C 0.55133 0.49337 0.60491 0.0
C1876 C 0.57778 0.5008 0.64664 0.0
C1877 C 0.54085 0.4912 0.62653 0.0
C1878 C 0.58326 0.49927 0.69038 0.0
C1879 C 0.62634 0.52444 0.68699 0.0
N1880 N 0.55415 0.49505 0.64664 0.0
N1881 N 0.6126 0.51889 0.66769 0.0
H1882 H 0.8141 0.41062 0.9786 0.0
H1883 H 0.81763 0.28327 0.90549 0.0
H1884 H 0.79142 0.33856 0.00478 0.0
H1885 H 0.81483 0.35684 0.87355 0.0
H1886 H 0.81616 0.30306 0.94372 0.0
H1887 H 0.82213 0.39075 0.94142 0.0
C1888 C 0.81087 0.39063 0.97655 0.0
C1889 C 0.80188 0.37625 0.9947 0.0
C1890 C 0.81609 0.31483 0.9283 0.0
C1891 C 0.81131 0.35344 0.95247 0.0
C1892 C 0.81687 0.30356 0.90648 0.0
C1893 C 0.81605 0.31835 0.88618 0.0
C1894 C 0.81468 0.34107 0.92989 0.0
C1895 C 0.8157 0.34463 0.88864 0.0
C1896 C 0.81545 0.37933 0.95536 0.0
C1897 C 0.79809 0.3504 0.99115 0.0
N1898 N 0.81485 0.35514 0.91009 0.0
N1899 N 0.80285 0.33981 0.97043 0.0
H1900 H 0.97897 0.49622 0.23997 0.0
H1901 H 0.99085 0.56163 0.11583 0.0
H1902 H 0.9207 0.52684 0.19809 0.0
H1903 H 0.03926 0.50522 0.14287 0.0
H1904 H 0.97108 0.56097 0.15277 0.0
H1905 H 0.00635 0.51043 0.21048 0.0
C1906 C 0.972 0.50618 0.22473 0.0
C1907 C 0.94754 0.50999 0.22119 0.0
C1908 C 0.98638 0.54917 0.15075 0.0
C1909 C 0.97862 0.52665 0.18791 0.0
C1910 C -0.0022 0.54966 0.12975 0.0
C1911 C 0.01638 0.53303 0.12611 0.0
C1912 C 0.99374 0.53208 0.1682 0.0
C1913 C 0.02469 0.51802 0.14483 0.0
C1914 C 0.9876 0.51429 0.20799 0.0
C1915 C 0.9394 0.52311 0.20125 0.0
N1916 N 0.01305 0.51759 0.165 0.0
N1917 N 0.9549 0.53089 0.18531 0.0
H1918 H 0.8151 0.57528 0.46312 0.0
H1919 H 0.78716 0.71311 0.41626 0.0
H1920 H 0.81954 0.64126 0.50679 0.0
H1921 H 0.79383 0.64881 0.37139 0.0
H1922 H 0.80081 0.68746 0.44946 0.0
H1923 H 0.81083 0.60233 0.42893 0.0
C1924 C 0.81567 0.59547 0.46551 0.0
C1925 C 0.81707 0.60599 0.48791 0.0
C1926 C 0.79934 0.67899 0.43233 0.0
C1927 C 0.81166 0.63707 0.44885 0.0
C1928 C 0.79148 0.69361 0.41337 0.0
C1929 C 0.78909 0.68306 0.391 0.0
C1930 C 0.80479 0.6536 0.42894 0.0
C1931 C 0.79483 0.65763 0.38837 0.0
C1932 C 0.81306 0.61093 0.44596 0.0
C1933 C 0.81802 0.6323 0.48989 0.0
N1934 N 0.80232 0.64377 0.4071 0.0
N1935 N 0.81481 0.64694 0.47063 0.0
H1936 H 0.6015 0.58054 0.79478 0.0
H1937 H 0.61658 0.55773 0.93208 0.0
H1938 H 0.66116 0.54367 0.82939 0.0
H1939 H 0.54886 0.57394 0.89755 0.0
H1940 H 0.63527 0.5614 0.89493 0.0
H1941 H 0.58386 0.58592 0.83271 0.0
C1942 C 0.61092 0.57371 0.81034 0.0
C1943 C 0.63269 0.56143 0.80897 0.0
C1944 C 0.61635 0.56438 0.89548 0.0
C1945 C 0.61287 0.56777 0.85213 0.0
C1946 C 0.60568 0.56257 0.91675 0.0
C1947 C 0.58107 0.56544 0.91791 0.0
C1948 C 0.60237 0.56904 0.87515 0.0
C1949 C 0.56783 0.57125 0.89735 0.0
C1950 C 0.60085 0.57677 0.83191 0.0
C1951 C 0.64421 0.55299 0.82962 0.0
N1952 N 0.57864 0.5727 0.87671 0.0
N1953 N 0.63415 0.55631 0.85032 0.0
H1954 H 0.75169 0.3359 0.1153 0.0
H1955 H 0.80813 0.21781 0.17804 0.0
H1956 H 0.80631 0.29286 0.08413 0.0
H1957 H 0.7395 0.24683 0.19375 0.0
H1958 H 0.80685 0.24255 0.14206 0.0
H1959 H 0.74641 0.30214 0.14342 0.0
C1960 C 0.76253 0.31928 0.11434 0.0
C1961 C 0.77962 0.31727 0.09752 0.0
C1962 C 0.79186 0.24305 0.15315 0.0
C1963 C 0.77374 0.27853 0.12973 0.0
C1964 C 0.79252 0.22883 0.17365 0.0
C1965 C 0.7741 0.23064 0.18918 0.0
C1966 C 0.7728 0.25934 0.14838 0.0
C1967 C 0.75429 0.24517 0.18252 0.0
C1968 C 0.75938 0.29991 0.13029 0.0
C1969 C 0.79299 0.29519 0.0969 0.0
N1970 N 0.75439 0.25935 0.16287 0.0
N1971 N 0.79001 0.27678 0.11301 0.0
H1972 H 0.94293 0.44095 0.31581 0.0
H1973 H 0.92003 0.50144 0.43988 0.0
H1974 H 0.88722 0.49385 0.3275 0.0
H1975 H 0.98737 0.4706 0.42247 0.0
H1976 H 0.90415 0.49124 0.40066 0.0
H1977 H 0.95599 0.44455 0.35694 0.0
C1978 C 0.93335 0.45316 0.32706 0.0
C1979 C 0.91411 0.46731 0.31824 0.0
C1980 C 0.92236 0.48656 0.4055 0.0
C1981 C 0.92878 0.47132 0.36511 0.0
C1982 C 0.93136 0.4922 0.42787 0.0
C1983 C 0.95506 0.48697 0.43428 0.0
C1984 C 0.93713 0.47542 0.38953 0.0
C1985 C 0.96907 0.47521 0.41804 0.0
C1986 C 0.94084 0.45524 0.35046 0.0
C1987 C 0.9023 0.48281 0.33355 0.0
N1988 N 0.9599 0.46986 0.39634 0.0
N1989 N 0.90984 0.48442 0.35625 0.0
H1990 H 0.71349 0.62544 0.55722 0.0
H1991 H 0.81385 0.72126 0.60413 0.0
H1992 H 0.78001 0.63375 0.52424 0.0
H1993 H 0.73985 0.72862 0.61866 0.0
H1994 H 0.80298 0.68785 0.57608 0.0
H1995 H 0.72352 0.66246 0.58121 0.0
C1996 C 0.73025 0.63511 0.55511 0.0
C1997 C 0.74645 0.62617 0.53948 0.0
C1998 C 0.78914 0.69712 0.58518 0.0
C1999 C 0.75808 0.66828 0.56663 0.0
C2000 C 0.79533 0.7161 0.6012 0.0
C2001 C 0.77773 0.72791 0.61362 0.0
C2002 C 0.76524 0.68967 0.5819 0.0
C2003 C 0.75399 0.72043 0.60919 0.0
C2004 C 0.736 0.65617 0.56875 0.0
C2005 C 0.76777 0.63941 0.53704 0.0
N2006 N 0.74849 0.70167 0.59388 0.0
N2007 N 0.77315 0.6597 0.55067 0.0
H2008 H 0.7616 0.50667 0.51245 0.0
H2009 H 0.63484 0.56496 0.53688 0.0
H2010 H 0.74877 0.55359 0.57148 0.0
H2011 H 0.64493 0.50422 0.48896 0.0
H2012 H 0.678 0.56785 0.54419 0.0
H2013 H 0.71994 0.51103 0.49913 0.0
C2014 C 0.74989 0.51785 0.52257 0.0
C2015 C 0.75841 0.53001 0.54287 0.0
C2016 C 0.67077 0.5542 0.53176 0.0
C2017 C 0.71101 0.53512 0.52791 0.0
C2018 C 0.64624 0.55282 0.52734 0.0
C2019 C 0.63649 0.53431 0.51234 0.0
C2020 C 0.68549 0.53696 0.52103 0.0
C2021 C 0.65188 0.51871 0.50068 0.0
C2022 C 0.72622 0.52045 0.51496 0.0
C2023 C 0.7427 0.54411 0.55561 0.0
N2024 N 0.67563 0.52021 0.50544 0.0
N2025 N 0.71968 0.54636 0.54788 0.0
H2026 H 0.24034 0.98452 0.51749 0.0
H2027 H 0.11283 0.00537 0.56868 0.0
H2028 H 0.21954 0.95736 0.5845 0.0
H2029 H 0.13038 0.02803 0.4993 0.0
H2030 H 0.1539 0.99347 0.5767 0.0
H2031 H 0.20239 0.00615 0.51257 0.0
C2032 C 0.22794 0.98335 0.5313 0.0
C2033 C 0.23301 0.96883 0.55132 0.0
C2034 C 0.14888 0.00121 0.55976 0.0
C2035 C 0.18956 0.99347 0.54574 0.0
C2036 C 0.12538 0.00802 0.55515 0.0
C2037 C 0.11808 0.0174 0.53316 0.0
C2038 C 0.16527 0.0036 0.54223 0.0
C2039 C 0.13522 0.02071 0.51644 0.0
C2040 C 0.20625 0.99567 0.52844 0.0
C2041 C 0.2163 0.9681 0.56866 0.0
N2042 N 0.15801 0.01355 0.52123 0.0
N2043 N 0.19528 0.98005 0.56538 0.0
H2044 H 0.396 0.89381 0.7322 0.0
H2045 H 0.27934 0.82772 0.77912 0.0
H2046 H 0.33506 0.93434 0.75426 0.0
H2047 H 0.33788 0.7865 0.75271 0.0
H2048 H 0.30036 0.86694 0.7715 0.0
H2049 H 0.3754 0.85427 0.74004 0.0
C2050 C 0.37823 0.89441 0.73853 0.0
C2051 C 0.36726 0.91744 0.74262 0.0
C2052 C 0.30867 0.84933 0.76744 0.0
C2053 C 0.3437 0.87225 0.75186 0.0
C2054 C 0.29672 0.82689 0.7719 0.0
C2055 C 0.30685 0.80377 0.7665 0.0
C2056 C 0.33093 0.84869 0.75751 0.0
C2057 C 0.3294 0.80389 0.75714 0.0
C2058 C 0.36652 0.87182 0.74308 0.0
C2059 C 0.34422 0.91705 0.75085 0.0
N2060 N 0.34066 0.82602 0.75287 0.0
N2061 N 0.33326 0.89482 0.75529 0.0
H2062 H 0.35113 0.05209 0.97311 0.0
H2063 H 0.46659 0.00674 0.98389 0.0
H2064 H 0.34847 0.03331 0.0461 0.0
H2065 H 0.46429 0.03474 0.05423 0.0
H2066 H 0.42384 0.01222 0.97894 0.0
H2067 H 0.39321 0.04142 0.9746 0.0
C2068 C 0.35927 0.04524 0.98931 0.0
C2069 C 0.34625 0.04355 0.00948 0.0
C2070 C 0.43271 0.01744 0.99535 0.0
C2071 C 0.39433 0.03141 0.01135 0.0
C2072 C 0.4571 0.01415 -0.0017 0.0
C2073 C 0.46907 0.02053 0.01949 0.0
C2074 C 0.42011 0.02706 0.01375 0.0
C2075 C 0.4558 0.02984 0.03756 0.0
C2076 C 0.38327 0.03907 0.99014 0.0
C2077 C 0.35777 0.03478 0.03008 0.0
N2078 N 0.43195 0.03272 0.03431 0.0
N2079 N 0.38126 0.02941 0.03058 0.0
H2080 H 0.75413 0.57769 0.71301 0.0
H2081 H 0.77673 0.70732 0.77953 0.0
H2082 H 0.72255 0.59926 0.77691 0.0
H2083 H 0.79448 0.69479 0.7082 0.0
H2084 H 0.76884 0.66244 0.78369 0.0
H2085 H 0.7794 0.61553 0.71566 0.0
C2086 C 0.75273 0.59021 0.72771 0.0
C2087 C 0.73588 0.58573 0.74447 0.0
C2088 C 0.77492 0.66944 0.76726 0.0
C2089 C 0.76481 0.62852 0.74779 0.0
C2090 C 0.77954 0.69506 0.76491 0.0
C2091 C 0.78553 0.70488 0.74327 0.0
C2092 C 0.77614 0.65367 0.7478 0.0
C2093 C 0.78937 0.68805 0.72506 0.0
C2094 C 0.76717 0.6117 0.72924 0.0
C2095 C 0.73493 0.60234 0.76331 0.0
N2096 N 0.78406 0.66327 0.72756 0.0
N2097 N 0.74904 0.6231 0.76435 0.0
H2098 H 0.87348 0.38049 0.08539 0.0
H2099 H 0.94004 0.50861 0.05282 0.0
H2100 H 0.83658 0.44918 0.06805 0.0
H2101 H 0.9759 0.44019 0.07332 0.0
H2102 H 0.90193 0.48769 0.0589 0.0
H2103 H 0.91117 0.40278 0.08238 0.0
C2104 C 0.87329 0.40034 0.08114 0.0
C2105 C 0.85183 0.41296 0.07687 0.0
C2106 C 0.91816 0.47729 0.06207 0.0
C2107 C 0.89503 0.4386 0.07311 0.0
C2108 C 0.93991 0.48919 0.05852 0.0
C2109 C 0.9612 0.47611 0.06248 0.0
C2110 C 0.91771 0.45215 0.06961 0.0
C2111 C 0.95996 0.45102 0.06997 0.0
C2112 C 0.89486 0.41306 0.07937 0.0
C2113 C 0.85271 0.43871 0.0715 0.0
N2114 N 0.93861 0.43988 0.07325 0.0
N2115 N 0.87397 0.45065 0.0696 0.0
H2116 H 0.35535 0.07419 0.69971 0.0
H2117 H 0.28844 0.16148 0.78841 0.0
H2118 H 0.3425 0.0535 0.77077 0.0
H2119 H 0.31463 0.18865 0.72342 0.0
H2120 H 0.30314 0.11976 0.77969 0.0
H2121 H 0.33556 0.11423 0.70575 0.0
C2122 C 0.34821 0.07797 0.71652 0.0
C2123 C 0.35071 0.06055 0.73482 0.0
C2124 C 0.30559 0.13482 0.76728 0.0
C2125 C 0.32807 0.10623 0.74179 0.0
C2126 C 0.29715 0.15865 0.77221 0.0
C2127 C 0.30048 0.17865 0.7567 0.0
C2128 C 0.31739 0.13087 0.74664 0.0
C2129 C 0.31182 0.17381 0.73595 0.0
C2130 C 0.33699 0.10085 0.71996 0.0
C2131 C 0.34113 0.06644 0.75622 0.0
N2132 N 0.31995 0.15041 0.73156 0.0
N2133 N 0.33028 0.0888 0.75912 0.0
H2134 H 0.20475 0.98602 0.25414 0.0
H2135 H 0.25229 0.8533 0.21293 0.0
H2136 H 0.1915 0.95629 0.18486 0.0
H2137 H 0.27038 0.88559 0.28036 0.0
H2138 H 0.232 0.89197 0.20159 0.0
H2139 H 0.23053 0.9505 0.26338 0.0
C2140 C 0.20733 0.97207 0.24081 0.0
C2141 C 0.19578 0.97406 0.21872 0.0
C2142 C 0.24057 0.89072 0.2188 0.0
C2143 C 0.22532 0.93325 0.22925 0.0
C2144 C 0.25219 0.86862 0.22531 0.0
C2145 C 0.26291 0.86612 0.24772 0.0
C2146 C 0.23947 0.91047 0.23486 0.0
C2147 C 0.26231 0.88667 0.26294 0.0
C2148 C 0.22211 0.9518 0.24611 0.0
C2149 C 0.19994 0.95549 0.20214 0.0
N2150 N 0.25057 0.9079 0.2563 0.0
N2151 N 0.21424 0.93578 0.2078 0.0
H2152 H 0.55906 0.3516 0.41855 0.0
H2153 H 0.49484 0.40795 0.52671 0.0
H2154 H 0.49214 0.32377 0.44231 0.0
H2155 H 0.56326 0.43324 0.50465 0.0
H2156 H 0.49668 0.37224 0.50026 0.0
H2157 H 0.56338 0.37789 0.45324 0.0
C2158 C 0.54527 0.35104 0.43105 0.0
C2159 C 0.52505 0.33577 0.42738 0.0
C2160 C 0.51149 0.38535 0.50152 0.0
C2161 C 0.52995 0.36562 0.4672 0.0
C2162 C 0.51052 0.40564 0.51675 0.0
C2163 C 0.52868 0.42387 0.51743 0.0
C2164 C 0.53067 0.38347 0.48688 0.0
C2165 C 0.54864 0.41988 0.50428 0.0
C2166 C 0.54782 0.3659 0.45095 0.0
C2167 C 0.5079 0.33549 0.44432 0.0
N2168 N 0.54891 0.40034 0.48921 0.0
N2169 N 0.51064 0.35037 0.46341 0.0
H2170 H 0.44184 0.77173 0.15638 0.0
H2171 H 0.37613 0.80847 0.27231 0.0
H2172 H 0.47943 0.78079 0.22299 0.0
H2173 H 0.34024 0.78979 0.2066 0.0
H2174 H 0.41438 0.80202 0.25449 0.0
H2175 H 0.4049 0.78138 0.17447 0.0
C2176 C 0.44237 0.77573 0.17487 0.0
C2177 C 0.46389 0.77533 0.18816 0.0
C2178 C 0.39812 0.7995 0.24398 0.0
C2179 C 0.42124 0.78662 0.20915 0.0
C2180 C 0.37627 0.80334 0.25409 0.0
C2181 C 0.35487 0.79965 0.24097 0.0
C2182 C 0.39858 0.79205 0.22054 0.0
C2183 C 0.3562 0.7928 0.21747 0.0
C2184 C 0.42117 0.78128 0.18523 0.0
C2185 C 0.46328 0.78076 0.21207 0.0
N2186 N 0.37758 0.7892 0.20809 0.0
N2187 N 0.44231 0.78619 0.22181 0.0
H2188 H 0.96101 0.75548 0.97201 0.0
H2189 H 0.98414 0.60763 0.96771 0.0
H2190 H 0.97648 0.71519 0.90943 0.0
H2191 H 0.97798 0.64918 0.03155 0.0
H2192 H 0.97567 0.64592 0.94559 0.0
H2193 H 0.96166 0.71581 0.99347 0.0
C2194 C 0.96437 0.73828 0.96273 0.0
C2195 C 0.96895 0.73868 0.93893 0.0
C2196 C 0.976 0.64664 0.96444 0.0
C2197 C 0.96975 0.69325 0.96342 0.0
C2198 C 0.98066 0.62474 0.97709 0.0
C2199 C 0.98186 0.62524 0.00153 0.0
C2200 C 0.97251 0.66925 0.97629 0.0
C2201 C 0.97756 0.64804 0.01273 0.0
C2202 C 0.96477 0.71564 0.97502 0.0
C2203 C 0.97305 0.71579 0.9278 0.0
N2204 N 0.97318 0.66918 2e-05 0.0
N2205 N 0.97349 0.69402 0.94018 0.0
H2206 H 0.08555 0.26253 0.71835 0.0
H2207 H 0.22656 0.25535 0.70794 0.0
H2208 H 0.1215 0.27042 0.65399 0.0
H2209 H 0.19228 0.24182 0.77249 0.0
H2210 H 0.18783 0.26045 0.68819 0.0
H2211 H 0.12399 0.25513 0.73886 0.0
C2212 C 0.10149 0.2628 0.70854 0.0
C2213 C 0.10025 0.26715 0.68438 0.0
C2214 C 0.18867 0.25624 0.70665 0.0
C2215 C 0.14425 0.25856 0.70772 0.0
C2216 C 0.21085 0.25326 0.71797 0.0
C2217 C 0.21274 0.24817 0.74197 0.0
C2218 C 0.16803 0.25431 0.71934 0.0
C2219 C 0.19168 0.24566 0.75397 0.0
C2220 C 0.12342 0.25848 0.72025 0.0
C2221 C 0.1215 0.26718 0.67259 0.0
N2222 N 0.1702 0.2489 0.74256 0.0
N2223 N 0.14253 0.26298 0.68435 0.0
H2224 H 0.56665 0.71428 0.0941 0.0
H2225 H 0.52932 0.56862 0.09521 0.0
H2226 H 0.52421 0.68128 0.14706 0.0
H2227 H 0.55913 0.60576 0.03624 0.0
H2228 H 0.53003 0.60879 0.11595 0.0
H2229 H 0.5666 0.67385 0.07412 0.0
C2230 C 0.5573 0.69853 0.10156 0.0
C2231 C 0.54537 0.70124 0.12231 0.0
C2232 C 0.53643 0.60813 0.09848 0.0
C2233 C 0.54536 0.6547 0.09948 0.0
C2234 C 0.53612 0.58518 0.08665 0.0
C2235 C 0.54416 0.58379 0.06391 0.0
C2236 C 0.545 0.62986 0.08759 0.0
C2237 C 0.55271 0.60591 0.05371 0.0
C2238 C 0.55726 0.67543 0.09009 0.0
C2239 C 0.53357 0.6801 0.13108 0.0
N2240 N 0.55293 0.62798 0.06562 0.0
N2241 N 0.53392 0.65772 0.11966 0.0
H2242 H 0.0785 0.80526 0.9065 0.0
H2243 H 0.14057 0.80614 0.78413 0.0
H2244 H 0.04052 0.79961 0.8397 0.0
H2245 H 0.17813 0.79191 0.84995 0.0
H2246 H 0.10425 0.81235 0.80488 0.0
H2247 H 0.1158 0.80827 0.88643 0.0
C2248 C 0.078 0.80471 0.88765 0.0
C2249 C 0.05644 0.80189 0.87475 0.0
C2250 C 0.12053 0.80813 0.81476 0.0
C2251 C 0.09883 0.80561 0.85178 0.0
C2252 C 0.14124 0.80456 0.80294 0.0
C2253 C 0.16236 0.79819 0.81528 0.0
C2254 C 0.12097 0.80534 0.83908 0.0
C2255 C 0.16231 0.79694 0.8397 0.0
C2256 C 0.09925 0.80647 0.87622 0.0
C2257 C 0.05677 0.80146 0.85035 0.0
N2258 N 0.14186 0.80023 0.85079 0.0
N2259 N 0.07764 0.80325 0.83966 0.0
H2260 H 0.01555 0.37099 0.67146 0.0
H2261 H 0.99169 0.44093 0.54897 0.0
H2262 H 0.01607 0.33251 0.60545 0.0
H2263 H 0.00236 0.47917 0.61484 0.0
H2264 H 0.99643 0.40056 0.5693 0.0
H2265 H 0.00724 0.41025 0.6509 0.0
C2266 C 0.01395 0.37077 0.65261 0.0
C2267 C 0.01662 0.34836 0.64019 0.0
C2268 C -0.00244 0.4178 0.57929 0.0
C2269 C 0.00689 0.39349 0.61642 0.0
C2270 C 0.99467 0.44085 0.56773 0.0
C2271 C -0.00333 0.46352 0.5802 0.0
C2272 C 0.00234 0.41741 0.60352 0.0
C2273 C 0.00074 0.46222 0.60447 0.0
C2274 C 0.00917 0.39326 0.64086 0.0
C2275 C 0.01428 0.34934 0.61574 0.0
N2276 N 0.0035 0.43963 0.61527 0.0
N2277 N 0.00953 0.37153 0.60466 0.0
H2278 H 0.45493 0.28527 0.31804 0.0
H2279 H 0.31415 0.29061 0.29801 0.0
H2280 H 0.40643 0.28704 0.37402 0.0
H2281 H 0.36227 0.2824 0.24224 0.0
H2282 H 0.34779 0.28987 0.32607 0.0
H2283 H 0.42125 0.28538 0.28997 0.0
C2284 C 0.43718 0.28579 0.32444 0.0
C2285 C 0.43346 0.28612 0.34842 0.0
C2286 C 0.35101 0.28815 0.30772 0.0
C2287 C 0.39484 0.28613 0.31636 0.0
C2288 C 0.33181 0.28855 0.29166 0.0
C2289 C 0.33545 0.28663 0.26774 0.0
C2290 C 0.37404 0.28592 0.2998 0.0
C2291 C 0.35869 0.28393 0.26053 0.0
C2292 C 0.41796 0.28576 0.30839 0.0
C2293 C 0.4101 0.28677 0.3557 0.0
N2294 N 0.37715 0.28375 0.27652 0.0
N2295 N 0.39164 0.28673 0.3397 0.0
H2296 H 0.3867 0.5049 0.38257 0.0
H2297 H 0.51104 0.51849 0.4545 0.0
H2298 H 0.45197 0.52875 0.3524 0.0
H2299 H 0.44667 0.49192 0.48472 0.0
H2300 H 0.48953 0.52219 0.41688 0.0
H2301 H 0.40826 0.4997 0.42013 0.0
C2302 C 0.40556 0.50899 0.38382 0.0
C2303 C 0.41754 0.51732 0.36434 0.0
C2304 C 0.4801 0.51552 0.43173 0.0
C2305 C 0.44228 0.51148 0.40721 0.0
C2306 C 0.49238 0.51343 0.45323 0.0
C2307 C 0.48063 0.50491 0.47279 0.0
C2308 C 0.45588 0.50911 0.42975 0.0
C2309 C 0.45644 0.49858 0.47009 0.0
C2310 C 0.41786 0.50602 0.40527 0.0
C2311 C 0.44199 0.52231 0.36696 0.0
N2312 N 0.44485 0.50084 0.44896 0.0
N2313 N 0.45353 0.51937 0.38801 0.0
H2314 H 0.28302 0.6355 0.07768 0.0
H2315 H 0.24663 0.76434 0.13716 0.0
H2316 H 0.25628 0.69938 0.03853 0.0
H2317 H 0.2678 0.69775 0.17545 0.0
H2318 H 0.24948 0.74099 0.10076 0.0
H2319 H 0.27761 0.65839 0.11367 0.0
C2320 C 0.2761 0.6544 0.07664 0.0
C2321 C 0.27012 0.66556 0.05505 0.0
C2322 C 0.2533 0.73145 0.11714 0.0
C2323 C 0.26375 0.69186 0.09627 0.0
C2324 C 0.2517 0.74476 0.1379 0.0
C2325 C 0.257 0.73297 0.15935 0.0
C2326 C 0.26042 0.70624 0.11788 0.0
C2327 C 0.26327 0.70752 0.15934 0.0
C2328 C 0.27291 0.66743 0.09722 0.0
C2329 C 0.26115 0.69007 0.05479 0.0
N2330 N 0.26496 0.69507 0.13892 0.0
N2331 N 0.25825 0.70243 0.07512 0.0
H2332 H 0.11458 0.46008 0.89355 0.0
H2333 H 0.01619 0.51626 0.97382 0.0
H2334 H 0.07635 0.52865 0.87913 0.0
H2335 H 0.06507 0.45858 -0.00285 0.0
H2336 H 0.03196 0.51415 0.93513 0.0
H2337 H 0.09122 0.45343 0.92799 0.0
C2338 C 0.10118 0.47364 0.89753 0.0
C2339 C 0.09759 0.49513 0.88363 0.0
C2340 C 0.03904 0.50171 0.94862 0.0
C2341 C 0.07073 0.48748 0.92274 0.0
C2342 C 0.02996 0.5028 0.9707 0.0
C2343 C 0.03963 0.48788 0.98885 0.0
C2344 C 0.05798 0.48564 0.94463 0.0
C2345 C 0.05725 0.47058 0.9837 0.0
C2346 C 0.08786 0.46981 0.91715 0.0
C2347 C 0.07992 0.512 0.88952 0.0
N2348 N 0.06614 0.47019 0.9621 0.0
N2349 N 0.06723 0.50786 0.90867 0.0
H2350 H 0.24947 0.2883 0.55049 0.0
H2351 H 0.28588 0.34049 0.67419 0.0
H2352 H 0.22343 0.35803 0.57674 0.0
H2353 H 0.31869 0.27666 0.64319 0.0
H2354 H 0.27061 0.35346 0.63563 0.0
H2355 H 0.28168 0.28938 0.58037 0.0
C2356 C 0.25094 0.30413 0.56233 0.0
C2357 C 0.23391 0.32305 0.56136 0.0
C2358 C 0.28168 0.33698 0.63713 0.0
C2359 C 0.27008 0.32407 0.5961 0.0
C2360 C 0.2906 0.32968 0.65917 0.0
C2361 C 0.30306 0.30709 0.66195 0.0
C2362 C 0.28506 0.32141 0.61787 0.0
C2363 C 0.30859 0.29383 0.64186 0.0
C2364 C 0.2693 0.3048 0.57937 0.0
C2365 C 0.23636 0.34313 0.57703 0.0
N2366 N 0.29909 0.30085 0.62074 0.0
N2367 N 0.25387 0.34288 0.59411 0.0
H2368 H 0.48393 0.50412 0.26415 0.0
H2369 H 0.46302 0.49719 0.12581 0.0
H2370 H 0.4273 0.5415 0.22511 0.0
H2371 H 0.52734 0.47147 0.16141 0.0
H2372 H 0.44774 0.50889 0.16311 0.0
H2373 H 0.49929 0.48941 0.22745 0.0
C2374 C 0.4749 0.50951 0.24789 0.0
C2375 C 0.45425 0.52401 0.24772 0.0
C2376 C 0.46514 0.50051 0.16283 0.0
C2377 C 0.47142 0.50684 0.20584 0.0
C2378 C 0.47373 0.49343 0.14153 0.0
C2379 C 0.49652 0.48334 0.14046 0.0
C2380 C 0.4794 0.49751 0.18329 0.0
C2381 C 0.50976 0.47944 0.16144 0.0
C2382 C 0.48359 0.50097 0.22698 0.0
C2383 C 0.44324 0.53034 0.22614 0.0
N2384 N 0.50106 0.48668 0.18203 0.0
N2385 N 0.45186 0.52157 0.20611 0.0
H2386 H 0.26171 0.66565 0.95258 0.0
H2387 H 0.31419 0.69622 0.82866 0.0
H2388 H 0.31156 0.61867 0.91862 0.0
H2389 H 0.2517 0.73198 0.8532 0.0
H2390 H 0.31816 0.67299 0.86517 0.0
H2391 H 0.26193 0.69458 0.91939 0.0
C2392 C 0.27273 0.66144 0.93817 0.0
C2393 C 0.28652 0.63961 0.93827 0.0
C2394 C 0.3037 0.68609 0.86267 0.0
C2395 C 0.28703 0.67275 0.90047 0.0
C2396 C 0.30149 0.6995 0.84187 0.0
C2397 C 0.2824 0.71587 0.83774 0.0
C2398 C 0.28676 0.68905 0.87954 0.0
C2399 C 0.2666 0.71944 0.85559 0.0
C2400 C 0.27285 0.67797 0.91927 0.0
C2401 C 0.3005 0.63514 0.91919 0.0
N2402 N 0.269 0.70593 0.87567 0.0
N2403 N 0.3004 0.65158 0.90107 0.0
H2404 H 0.06073 0.51047 0.78433 0.0
H2405 H 0.08709 0.53057 0.65008 0.0
H2406 H 0.12459 0.48552 0.75319 0.0
H2407 H 0.02825 0.56458 0.68322 0.0
H2408 H 0.10118 0.514 0.6877 0.0
H2409 H 0.04748 0.5286 0.74691 0.0
C2410 C 0.07181 0.50847 0.76956 0.0
C2411 C 0.09383 0.49651 0.77192 0.0
C2412 C 0.0853 0.52529 0.6868 0.0
C2413 C 0.07897 0.51758 0.72918 0.0
C2414 C 0.07741 0.53507 0.66534 0.0
C2415 C 0.05639 0.54896 0.66344 0.0
C2416 C 0.07202 0.52925 0.70651 0.0
C2417 C 0.04435 0.55367 0.68382 0.0
C2418 C 0.06435 0.51906 0.74826 0.0
C2419 C 0.10751 0.49464 0.7522 0.0
N2420 N 0.05223 0.54365 0.70447 0.0
N2421 N 0.09989 0.50514 0.7317 0.0
H2422 H 0.23654 0.40997 0.43438 0.0
H2423 H 0.21049 0.2997 0.3417 0.0
H2424 H 0.21803 0.33364 0.45245 0.0
H2425 H 0.23993 0.37189 0.32332 0.0
H2426 H 0.20835 0.31397 0.38187 0.0
H2427 H 0.23395 0.39817 0.39311 0.0
C2428 C 0.23197 0.39076 0.4297 0.0
C2429 C 0.22762 0.37275 0.44692 0.0
C2430 C 0.21512 0.32678 0.36902 0.0
C2431 C 0.22438 0.35923 0.39984 0.0
C2432 C 0.21632 0.31864 0.34608 0.0
C2433 C 0.2256 0.33454 0.32916 0.0
C2434 C 0.22329 0.35101 0.37517 0.0
C2435 C 0.23251 0.35905 0.33576 0.0
C2436 C 0.23045 0.38406 0.40616 0.0
C2437 C 0.22168 0.34815 0.43983 0.0
N2438 N 0.23141 0.36647 0.35831 0.0
N2439 N 0.22023 0.34215 0.41688 0.0
H2440 H 0.31538 0.34501 0.53413 0.0
H2441 H 0.37942 0.47216 0.57647 0.0
H2442 H 0.27782 0.40933 0.55867 0.0
H2443 H 0.41705 0.40444 0.56107 0.0
H2444 H 0.34202 0.44849 0.57293 0.0
H2445 H 0.35285 0.3652 0.54694 0.0
C2446 C 0.31499 0.36327 0.54239 0.0
C2447 C 0.29346 0.37566 0.54499 0.0
C2448 C 0.35849 0.43873 0.57063 0.0
C2449 C 0.33626 0.39896 0.55957 0.0
C2450 C 0.37982 0.45226 0.57258 0.0
C2451 C 0.40138 0.4403 0.56894 0.0
C2452 C 0.35868 0.4131 0.56473 0.0
C2453 C 0.40088 0.4144 0.5642 0.0
C2454 C 0.33639 0.37479 0.54974 0.0
C2455 C 0.29401 0.39918 0.55607 0.0
N2456 N 0.37987 0.40175 0.56195 0.0
N2457 N 0.31507 0.41019 0.56268 0.0
H2458 H 0.85574 0.06711 0.45119 0.0
H2459 H 0.96192 0.02038 0.53673 0.0
H2460 H 0.84985 0.05737 0.52533 0.0
H2461 H 0.97277 0.05115 0.46837 0.0
H2462 H 0.91942 0.02706 0.53069 0.0
H2463 H 0.89722 0.05429 0.45522 0.0
C2464 C 0.86307 0.06199 0.46828 0.0
C2465 C 0.84937 0.06347 0.48801 0.0
C2466 C 0.93108 0.03228 0.51698 0.0
C2467 C 0.89675 0.04885 0.49266 0.0
C2468 C 0.95536 0.02844 0.52037 0.0
C2469 C 0.97095 0.03542 0.50307 0.0
C2470 C 0.92224 0.04301 0.49607 0.0
C2471 C 0.96139 0.04568 0.48222 0.0
C2472 C 0.88678 0.05481 0.47055 0.0
C2473 C 0.85981 0.05666 0.50969 0.0
N2474 N 0.93761 0.04922 0.47931 0.0
N2475 N 0.88291 0.04971 0.51145 0.0
H2476 H 0.67321 0.05614 0.31845 0.0
H2477 H 0.77821 0.12422 0.25302 0.0
H2478 H 0.71884 0.01739 0.27243 0.0
H2479 H 0.72061 0.1643 0.28253 0.0
H2480 H 0.75881 0.08451 0.26285 0.0
H2481 H 0.69307 0.09578 0.309 0.0
C2482 C 0.68753 0.05595 0.30653 0.0
C2483 C 0.69435 0.03348 0.29615 0.0
C2484 C 0.75037 0.10202 0.26705 0.0
C2485 C 0.71702 0.07863 0.28522 0.0
C2486 C 0.76141 0.12467 0.26141 0.0
C2487 C 0.75098 0.14759 0.26692 0.0
C2488 C 0.72892 0.1023 0.27851 0.0
C2489 C 0.72923 0.14706 0.27786 0.0
C2490 C 0.69874 0.07857 0.30102 0.0
C2491 C 0.71294 0.0343 0.28074 0.0
N2492 N 0.71899 0.12477 0.28343 0.0
N2493 N 0.72364 0.05651 0.27575 0.0
H2494 H 0.70952 0.89962 0.01719 0.0
H2495 H 0.61832 0.98088 0.99095 0.0
H2496 H 0.68456 0.90457 0.08679 0.0
H2497 H 0.61983 -0.00123 0.06423 0.0
H2498 H 0.65347 0.95553 -0.00242 0.0
H2499 H 0.68861 0.93835 0.00697 0.0
C2500 C 0.69996 0.90913 0.03041 0.0
C2501 C 0.69868 0.8989 0.05282 0.0
C2502 C 0.6468 0.96564 0.01216 0.0
C2503 C 0.67358 0.94242 0.04102 0.0
C2504 C 0.62652 0.98009 0.00836 0.0
C2505 C 0.61585 0.99157 0.02714 0.0
C2506 C 0.6564 0.96251 0.03497 0.0
C2507 C 0.62731 0.99003 0.04927 0.0
C2508 C 0.68764 0.93104 0.02448 0.0
C2509 C 0.68574 0.91171 0.06922 0.0
N2510 N 0.64665 0.97524 0.05266 0.0
N2511 N 0.67354 0.93267 0.06294 0.0
H2512 H 0.39938 0.45063 0.24688 0.0
H2513 H 0.27298 0.38469 0.23956 0.0
H2514 H 0.33777 0.48303 0.27657 0.0
H2515 H 0.33078 0.36239 0.19771 0.0
H2516 H 0.29505 0.42283 0.25062 0.0
H2517 H 0.37384 0.41935 0.22718 0.0
C2518 C 0.38046 0.45112 0.24931 0.0
C2519 C 0.3707 0.46927 0.2636 0.0
C2520 C 0.30272 0.40984 0.23867 0.0
C2521 C 0.34133 0.43361 0.24093 0.0
C2522 C 0.2901 0.38811 0.23227 0.0
C2523 C 0.30025 0.37019 0.21799 0.0
C2524 C 0.32577 0.41345 0.23098 0.0
C2525 C 0.32237 0.37563 0.2089 0.0
C2526 C 0.36586 0.4334 0.23786 0.0
C2527 C 0.34604 0.46924 0.26584 0.0
N2528 N 0.33462 0.39658 0.21592 0.0
N2529 N 0.3322 0.45151 0.25478 0.0
H2530 H 0.18603 0.61971 -0.00231 0.0
H2531 H 0.11703 0.51015 0.06319 0.0
H2532 H 0.22034 0.55332 0.02566 0.0
H2533 H 0.08369 0.57741 0.03592 0.0
H2534 H 0.15517 0.52589 0.05046 0.0
H2535 H 0.14839 0.60419 0.01147 0.0
C2536 C 0.18564 0.60176 0.0066 0.0
C2537 C 0.20642 0.58781 0.01055 0.0
C2538 C 0.13953 0.53727 0.04739 0.0
C2539 C 0.16327 0.57001 0.02662 0.0
C2540 C 0.11775 0.52836 0.05477 0.0
C2541 C 0.09709 0.54246 0.05058 0.0
C2542 C 0.14067 0.56042 0.03569 0.0
C2543 C 0.09912 0.56589 0.03953 0.0
C2544 C 0.16411 0.59295 0.01456 0.0
C2545 C 0.20476 0.56468 0.02219 0.0
N2546 N 0.12049 0.57406 0.03237 0.0
N2547 N 0.18356 0.55653 0.02989 0.0
H2548 H 0.70987 0.91317 0.36154 0.0
H2549 H 0.77808 0.83567 0.26656 0.0
H2550 H 0.70064 0.9243 0.28725 0.0
H2551 H 0.76952 0.80916 0.3368 0.0
H2552 H 0.75766 0.87428 0.27615 0.0
H2553 H 0.73893 0.88038 0.35456 0.0
C2554 C 0.71405 0.90882 0.3438 0.0
C2555 C 0.70262 0.92122 0.32493 0.0
C2556 C 0.76053 0.86013 0.28953 0.0
C2557 C 0.73595 0.88416 0.31689 0.0
C2558 C 0.77233 0.83815 0.28413 0.0
C2559 C 0.77519 0.81901 0.30081 0.0
C2560 C 0.75167 0.86301 0.31179 0.0
C2561 C 0.76742 0.82331 0.32332 0.0
C2562 C 0.73061 0.89015 0.33984 0.0
C2563 C 0.70878 0.91496 0.30229 0.0
N2564 N 0.75579 0.84479 0.3281 0.0
N2565 N 0.72499 0.89684 0.29891 0.0
H2566 H 0.82584 0.07157 0.8203 0.0
H2567 H 0.80534 0.20122 0.8174 0.0
H2568 H 0.83555 0.08187 0.74677 0.0
H2569 H 0.78017 0.18714 0.74644 0.0
H2570 H 0.81755 0.15731 0.82069 0.0
H2571 H 0.81 0.1141 0.82209 0.0
C2572 C 0.82469 0.08281 0.80456 0.0
C2573 C 0.83218 0.07331 0.78338 0.0
C2574 C 0.80887 0.16373 0.8046 0.0
C2575 C 0.81438 0.12186 0.78537 0.0
C2576 C 0.80207 0.18881 0.80266 0.0
C2577 C 0.79177 0.19781 0.78162 0.0
C2578 C 0.80548 0.14774 0.78529 0.0
C2579 C 0.78802 0.18099 0.76301 0.0
C2580 C 0.81585 0.10713 0.80566 0.0
C2581 C 0.83019 0.08857 0.76349 0.0
N2582 N 0.79517 0.15683 0.7652 0.0
N2583 N 0.82136 0.11208 0.76496 0.0
loop_
_geom_bond_atom_site_label_1
_geom_bond_atom_site_label_2
_geom_bond_distance
_geom_bond_site_symmetry_2
_ccdc_geom_bond_type
C0 O1 1.160 . S
C0 O7 1.185 . S
O1 C0 1.160 . S
O2 Zn3 1.899 . S
O2 C10 1.284 . S
Zn3 O2 1.899 . S
Zn3 O4 2.032 . S
Zn3 O7 2.086 . S
Zn3 O12 1.977 . S
O4 Zn3 2.032 . S
O4 C8 1.278 . S
C5 O6 1.203 . S
C5 O12 1.267 . S
O6 C5 1.203 . S
O7 C0 1.185 . S
O7 Zn3 2.086 . S
C8 O4 1.278 . S
C8 O9 1.211 . S
O9 C8 1.211 . S
C10 O2 1.284 . S
C10 O11 1.273 . S
O11 C10 1.273 . S
O12 Zn3 1.977 . S
O12 C5 1.267 . S
C13 O14 1.160 . S
C13 O20 1.185 . S
O14 C13 1.160 . S
O15 Zn16 1.899 . S
O15 C23 1.284 . S
Zn16 O15 1.899 . S
Zn16 O17 2.032 . S
Zn16 O20 2.086 . S
Zn16 O25 1.977 . S
O17 Zn16 2.032 . S
O17 C21 1.278 . S
C18 O19 1.203 . S
C18 O25 1.267 1_655 S
O19 C18 1.203 . S
O20 C13 1.185 . S
O20 Zn16 2.086 . S
C21 O17 1.278 . S
C21 O22 1.211 . S
O22 C21 1.211 . S
C23 O15 1.284 . S
C23 O24 1.273 . S
O24 C23 1.273 . S
O25 Zn16 1.977 . S
O25 C18 1.267 1_455 S
C26 O27 1.160 . S
C26 O33 1.185 . S
O27 C26 1.160 . S
O28 Zn29 1.899 . S
O28 C36 1.284 . S
Zn29 O28 1.899 . S
Zn29 O30 2.032 . S
Zn29 O33 2.086 . S
Zn29 O38 1.977 . S
O30 Zn29 2.032 . S
O30 C34 1.278 . S
C31 O32 1.203 . S
C31 O38 1.267 . S
O32 C31 1.203 . S
O33 C26 1.185 . S
O33 Zn29 2.086 . S
C34 O30 1.278 . S
C34 O35 1.211 . S
O35 C34 1.211 . S
C36 O28 1.284 . S
C36 O37 1.273 . S
O37 C36 1.273 . S
O38 Zn29 1.977 . S
O38 C31 1.267 . S
C39 O40 1.160 . S
C39 O46 1.185 . S
O40 C39 1.160 . S
O41 Zn42 1.899 . S
O41 C49 1.284 . S
Zn42 O41 1.899 . S
Zn42 O43 2.032 . S
Zn42 O46 2.086 . S
Zn42 O51 1.977 . S
O43 Zn42 2.032 . S
O43 C47 1.278 . S
C44 O45 1.203 . S
C44 O51 1.267 . S
O45 C44 1.203 . S
O46 C39 1.185 . S
O46 Zn42 2.086 . S
C47 O43 1.278 . S
C47 O48 1.211 . S
O48 C47 1.211 . S
C49 O41 1.284 . S
C49 O50 1.273 . S
O50 C49 1.273 . S
O51 Zn42 1.977 . S
O51 C44 1.267 . S
C52 O53 1.160 . S
C52 O59 1.185 . S
O53 C52 1.160 . S
O54 Zn55 1.899 . S
O54 C62 1.284 . S
Zn55 O54 1.899 . S
Zn55 O56 2.032 . S
Zn55 O59 2.086 1_545 S
Zn55 O64 1.977 . S
O56 Zn55 2.032 . S
O56 C60 1.278 . S
C57 O58 1.203 . S
C57 O64 1.267 . S
O58 C57 1.203 . S
O59 C52 1.185 . S
O59 Zn55 2.086 1_565 S
C60 O56 1.278 . S
C60 O61 1.211 . S
O61 C60 1.211 . S
C62 O54 1.284 . S
C62 O63 1.273 . S
O63 C62 1.273 . S
O64 Zn55 1.977 . S
O64 C57 1.267 . S
C65 O66 1.160 . S
C65 O72 1.185 . S
O66 C65 1.160 . S
O67 Zn68 1.899 . S
O67 C75 1.284 . S
Zn68 O67 1.899 . S
Zn68 O69 2.032 . S
Zn68 O72 2.086 . S
Zn68 O77 1.977 . S
O69 Zn68 2.032 . S
O69 C73 1.278 . S
C70 O71 1.203 . S
C70 O77 1.267 . S
O71 C70 1.203 . S
O72 C65 1.185 . S
O72 Zn68 2.086 . S
C73 O69 1.278 . S
C73 O74 1.211 . S
O74 C73 1.211 . S
C75 O67 1.284 . S
C75 O76 1.273 . S
O76 C75 1.273 . S
O77 Zn68 1.977 . S
O77 C70 1.267 . S
C78 O79 1.160 . S
C78 O85 1.185 . S
O79 C78 1.160 . S
O80 Zn81 1.899 . S
O80 C88 1.284 . S
Zn81 O80 1.899 . S
Zn81 O82 2.032 . S
Zn81 O85 2.086 . S
Zn81 O90 1.977 1_545 S
O82 Zn81 2.032 . S
O82 C86 1.278 . S
C83 O84 1.203 . S
C83 O90 1.267 . S
O84 C83 1.203 . S
O85 C78 1.185 . S
O85 Zn81 2.086 . S
C86 O82 1.278 . S
C86 O87 1.211 1_545 S
O87 C86 1.211 1_565 S
C88 O80 1.284 . S
C88 O89 1.290 . S
O89 C88 1.290 . S
O90 Zn81 1.977 1_565 S
O90 C83 1.267 . S
C91 O92 1.160 . S
C91 O98 1.185 . S
O92 C91 1.160 . S
O93 Zn94 1.899 . S
O93 C101 1.284 . S
Zn94 O93 1.899 . S
Zn94 O95 2.032 . S
Zn94 O98 2.086 . S
Zn94 O103 1.977 . S
O95 Zn94 2.032 . S
O95 C99 1.278 1_554 S
C96 O97 1.203 . S
C96 O103 1.267 . S
O97 C96 1.203 . S
O98 C91 1.185 . S
O98 Zn94 2.086 . S
C99 O95 1.278 1_556 S
C99 O100 1.211 . S
O100 C99 1.211 . S
C101 O93 1.284 . S
C101 O102 1.273 . S
O102 C101 1.273 . S
O103 Zn94 1.977 . S
O103 C96 1.267 . S
C104 O105 1.160 . S
C104 O111 1.185 . S
O105 C104 1.160 . S
O106 Zn107 1.899 . S
O106 C114 1.284 . S
Zn107 O106 1.899 . S
Zn107 O108 2.032 . S
Zn107 O111 2.086 . S
Zn107 O116 1.977 . S
O108 Zn107 2.032 . S
O108 C112 1.278 . S
C109 O110 1.203 . S
C109 O116 1.267 . S
O110 C109 1.203 . S
O111 C104 1.185 . S
O111 Zn107 2.086 . S
C112 O108 1.278 . S
C112 O113 1.211 . S
O113 C112 1.211 . S
C114 O106 1.284 . S
C114 O115 1.273 . S
O115 C114 1.273 . S
O116 Zn107 1.977 . S
O116 C109 1.267 . S
C117 O118 1.160 . S
C117 O124 1.185 . S
O118 C117 1.160 . S
O119 Zn120 1.899 . S
O119 C127 1.284 . S
Zn120 O119 1.899 . S
Zn120 O121 2.032 . S
Zn120 O124 2.086 . S
Zn120 O129 1.977 . S
O121 Zn120 2.032 . S
O121 C125 1.278 . S
C122 O123 1.203 . S
C122 O129 1.267 . S
O123 C122 1.203 . S
O124 C117 1.185 . S
O124 Zn120 2.086 . S
C125 O121 1.278 . S
C125 O126 1.211 . S
O126 C125 1.211 . S
C127 O119 1.284 . S
C127 O128 1.273 . S
O128 C127 1.273 . S
O129 Zn120 1.977 . S
O129 C122 1.267 . S
C130 O131 1.160 . S
C130 O137 1.185 . S
O131 C130 1.160 . S
O132 Zn133 1.899 . S
O132 C140 1.284 . S
Zn133 O132 1.899 . S
Zn133 O134 2.032 . S
Zn133 O137 2.086 . S
Zn133 O142 1.977 . S
O134 Zn133 2.032 . S
O134 C138 1.278 . S
C135 O136 1.203 . S
C135 O142 1.267 . S
O136 C135 1.203 . S
O137 C130 1.185 . S
O137 Zn133 2.086 . S
C138 O134 1.278 . S
C138 O139 1.211 . S
O139 C138 1.211 . S
C140 O132 1.284 . S
C140 O141 1.273 . S
O141 C140 1.273 . S
O142 Zn133 1.977 . S
O142 C135 1.267 . S
C143 O144 1.160 . S
C143 O150 1.185 . S
O144 C143 1.160 . S
O145 Zn146 1.899 . S
O145 C153 1.284 . S
Zn146 O145 1.899 . S
Zn146 O147 2.032 . S
Zn146 O150 2.086 . S
Zn146 O155 1.977 . S
O147 Zn146 2.032 . S
O147 C151 1.278 . S
C148 O149 1.203 . S
C148 O155 1.267 . S
O149 C148 1.203 . S
O150 C143 1.185 . S
O150 Zn146 2.086 . S
C151 O147 1.278 . S
C151 O152 1.211 . S
O152 C151 1.211 . S
C153 O145 1.284 . S
C153 O154 1.273 . S
O154 C153 1.273 . S
O155 Zn146 1.977 . S
O155 C148 1.267 . S
C156 O157 1.160 . S
C156 O163 1.185 . S
O157 C156 1.160 . S
O158 Zn159 1.899 . S
O158 C166 1.284 1_455 S
Zn159 O158 1.899 . S
Zn159 O160 2.032 . S
Zn159 O163 2.086 . S
Zn159 O168 1.977 1_455 S
O160 Zn159 2.032 . S
O160 C164 1.278 1_455 S
C161 O162 1.203 . S
C161 O168 1.267 . S
O162 C161 1.203 . S
O163 C156 1.185 . S
O163 Zn159 2.086 . S
C164 O160 1.278 1_655 S
C164 O165 1.211 . S
O165 C164 1.211 . S
C166 O158 1.284 1_655 S
C166 O167 1.273 . S
O167 C166 1.273 . S
O168 Zn159 1.977 1_655 S
O168 C161 1.267 . S
C169 O170 1.160 . S
C169 O176 1.185 1_655 S
O170 C169 1.160 . S
O171 Zn172 1.899 . S
O171 C179 1.284 . S
Zn172 O171 1.899 . S
Zn172 O173 2.032 . S
Zn172 O176 2.086 . S
Zn172 O181 1.977 . S
O173 Zn172 2.032 . S
O173 C177 1.278 . S
C174 O175 1.203 . S
C174 O181 1.267 . S
O175 C174 1.203 . S
O176 C169 1.185 1_455 S
O176 Zn172 2.086 . S
C177 O173 1.278 . S
C177 O178 1.211 . S
O178 C177 1.211 . S
C179 O171 1.284 . S
C179 O180 1.273 . S
O180 C179 1.273 . S
O181 Zn172 1.977 . S
O181 C174 1.267 . S
C182 O183 1.160 . S
C182 O189 1.185 . S
O183 C182 1.160 . S
O184 Zn185 1.899 . S
O184 C192 1.284 . S
Zn185 O184 1.899 . S
Zn185 O186 2.032 . S
Zn185 O189 2.086 . S
Zn185 O194 1.977 . S
O186 Zn185 2.032 . S
O186 C190 1.278 . S
C187 O188 1.203 . S
C187 O194 1.267 . S
O188 C187 1.203 . S
O189 C182 1.185 . S
O189 Zn185 2.086 . S
C190 O186 1.278 . S
C190 O191 1.211 . S
O191 C190 1.211 . S
C192 O184 1.284 . S
C192 O193 1.273 . S
O193 C192 1.273 . S
O194 Zn185 1.977 . S
O194 C187 1.267 . S
C195 O196 1.160 . S
C195 O202 1.185 . S
O196 C195 1.160 . S
O197 Zn198 1.899 . S
O197 C205 1.284 . S
Zn198 O197 1.899 . S
Zn198 O199 2.032 . S
Zn198 O202 2.086 . S
Zn198 O207 1.977 . S
O199 Zn198 2.032 . S
O199 C203 1.278 . S
C200 O201 1.203 . S
C200 O207 1.267 . S
O201 C200 1.203 . S
O202 C195 1.185 . S
O202 Zn198 2.086 . S
C203 O199 1.278 . S
C203 O204 1.211 . S
O204 C203 1.211 . S
C205 O197 1.284 . S
C205 O206 1.273 . S
O206 C205 1.273 . S
O207 Zn198 1.977 . S
O207 C200 1.267 . S
C208 O209 1.160 . S
C208 O215 1.185 . S
O209 C208 1.160 . S
O210 Zn211 1.899 . S
O210 C218 1.284 . S
Zn211 O210 1.899 . S
Zn211 O212 2.032 . S
Zn211 O215 2.086 . S
Zn211 O220 1.977 1_545 S
O212 Zn211 2.032 . S
O212 C216 1.278 . S
C213 O214 1.203 . S
C213 O220 1.267 . S
O214 C213 1.203 . S
O215 C208 1.185 . S
O215 Zn211 2.086 . S
C216 O212 1.278 . S
C216 O217 1.211 1_545 S
O217 C216 1.211 1_565 S
C218 O210 1.284 . S
C218 O219 1.273 1_545 S
O219 C218 1.273 1_565 S
O220 Zn211 1.977 1_565 S
O220 C213 1.267 . S
C221 O222 1.160 . S
C221 O228 1.185 . S
O222 C221 1.160 . S
O223 Zn224 1.899 . S
O223 C231 1.284 . S
Zn224 O223 1.899 . S
Zn224 O225 2.032 . S
Zn224 O228 2.086 . S
Zn224 O233 1.977 . S
O225 Zn224 2.032 . S
O225 C229 1.278 . S
C226 O227 1.203 . S
C226 O233 1.267 . S
O227 C226 1.203 . S
O228 C221 1.185 . S
O228 Zn224 2.086 . S
C229 O225 1.278 . S
C229 O230 1.211 . S
O230 C229 1.211 . S
C231 O223 1.284 . S
C231 O232 1.273 . S
O232 C231 1.273 . S
O233 Zn224 1.977 . S
O233 C226 1.267 . S
C234 O235 1.160 . S
C234 O241 1.185 . S
O235 C234 1.160 . S
O236 Zn237 1.899 . S
O236 C244 1.284 . S
Zn237 O236 1.899 . S
Zn237 O238 2.032 . S
Zn237 O241 2.086 1_545 S
Zn237 O246 1.977 . S
O238 Zn237 2.032 . S
O238 C242 1.278 . S
C239 O240 1.203 . S
C239 O246 1.267 . S
O240 C239 1.203 . S
O241 C234 1.185 . S
O241 Zn237 2.086 1_565 S
C242 O238 1.278 . S
C242 O243 1.211 . S
O243 C242 1.211 . S
C244 O236 1.284 . S
C244 O245 1.273 . S
O245 C244 1.273 . S
O246 Zn237 1.977 . S
O246 C239 1.267 . S
C247 O248 1.160 . S
C247 O254 1.185 . S
O248 C247 1.160 . S
O249 Zn250 1.899 . S
O249 C257 1.284 . S
Zn250 O249 1.899 . S
Zn250 O251 2.016 1_554 S
Zn250 O254 2.086 . S
Zn250 O259 1.977 . S
O251 Zn250 2.016 1_556 S
O251 C255 1.288 . S
C252 O253 1.203 . S
C252 O259 1.267 . S
O253 C252 1.203 . S
O254 C247 1.185 . S
O254 Zn250 2.086 . S
C255 O251 1.288 . S
C255 O256 1.211 . S
O256 C255 1.211 . S
C257 O249 1.284 . S
C257 O258 1.273 . S
O258 C257 1.273 . S
O259 Zn250 1.977 . S
O259 C252 1.267 . S
C260 O261 1.160 . S
C260 O267 1.185 1_554 S
O261 C260 1.160 . S
O262 Zn263 1.899 . S
O262 C270 1.284 . S
Zn263 O262 1.899 . S
Zn263 O264 2.032 1_554 S
Zn263 O267 2.086 1_554 S
Zn263 O272 1.977 1_554 S
O264 Zn263 2.032 1_556 S
O264 C268 1.278 . S
C265 O266 1.203 . S
C265 O272 1.267 1_554 S
O266 C265 1.203 . S
O267 C260 1.185 1_556 S
O267 Zn263 2.086 1_556 S
C268 O264 1.278 . S
C268 O269 1.211 . S
O269 C268 1.211 . S
C270 O262 1.284 . S
C270 O271 1.273 . S
O271 C270 1.273 . S
O272 Zn263 1.977 1_556 S
O272 C265 1.267 1_556 S
C273 O274 1.160 . S
C273 O280 1.185 . S
O274 C273 1.160 . S
O275 Zn276 1.899 . S
O275 C283 1.284 . S
Zn276 O275 1.899 . S
Zn276 O277 2.032 . S
Zn276 O280 2.086 . S
Zn276 O285 1.977 . S
O277 Zn276 2.032 . S
O277 C281 1.278 . S
C278 O279 1.203 . S
C278 O285 1.267 . S
O279 C278 1.203 . S
O280 C273 1.185 . S
O280 Zn276 2.086 . S
C281 O277 1.278 . S
C281 O282 1.211 . S
O282 C281 1.211 . S
C283 O275 1.284 . S
C283 O284 1.273 . S
O284 C283 1.273 . S
O285 Zn276 1.977 . S
O285 C278 1.267 . S
C286 O287 1.160 . S
C286 O293 1.185 . S
O287 C286 1.160 . S
O288 Zn289 1.899 . S
O288 C296 1.284 . S
Zn289 O288 1.899 . S
Zn289 O290 2.032 . S
Zn289 O293 2.086 . S
Zn289 O298 1.977 . S
O290 Zn289 2.032 . S
O290 C294 1.278 . S
C291 O292 1.203 . S
C291 O298 1.267 . S
O292 C291 1.203 . S
O293 C286 1.185 . S
O293 Zn289 2.086 . S
C294 O290 1.278 . S
C294 O295 1.211 . S
O295 C294 1.211 . S
C296 O288 1.284 . S
C296 O297 1.273 . S
O297 C296 1.273 . S
O298 Zn289 1.977 . S
O298 C291 1.267 . S
C299 O300 1.160 . S
C299 O306 1.185 . S
O300 C299 1.160 . S
O301 Zn302 1.899 . S
O301 C309 1.284 . S
Zn302 O301 1.899 . S
Zn302 O303 2.032 . S
Zn302 O306 2.086 . S
Zn302 O311 1.977 . S
O303 Zn302 2.032 . S
O303 C307 1.278 . S
C304 O305 1.203 . S
C304 O311 1.267 . S
O305 C304 1.203 . S
O306 C299 1.185 . S
O306 Zn302 2.086 . S
C307 O303 1.278 . S
C307 O308 1.211 . S
O308 C307 1.211 . S
C309 O301 1.284 . S
C309 O310 1.273 . S
O310 C309 1.273 . S
O311 Zn302 1.977 . S
O311 C304 1.267 . S
C312 O328 1.251 1_456 S
C312 O330 1.254 . S
N313 C314 1.333 1_565 S
N313 C318 1.307 . S
N313 Zn319 2.020 1_665 S
C314 N313 1.333 1_545 S
C314 C315 1.379 . S
C314 H332 0.952 . S
C315 C314 1.379 . S
C315 C316 1.390 1_545 S
C315 H342 0.949 . S
C316 C315 1.390 1_565 S
C316 C317 1.357 . S
C317 C316 1.357 . S
C317 C318 1.370 . S
C317 H343 0.950 . S
C318 N313 1.307 . S
C318 C317 1.370 . S
C318 H336 0.948 . S
Zn319 N313 2.020 1_445 S
Zn319 O328 2.039 1_455 S
Zn319 O334 2.034 . S
Zn319 O338 2.025 1_545 S
Zn319 O340 2.024 1_545 S
C320 O339 1.246 . S
C320 O340 1.249 . S
N321 C322 1.307 1_554 S
N321 C323 1.333 . S
N321 Zn327 2.020 . S
C322 N321 1.307 1_556 S
C322 C326 1.370 . S
C322 H333 0.948 . S
C323 N321 1.333 . S
C323 C324 1.379 . S
C323 H331 0.952 . S
C324 C323 1.379 . S
C324 C325 1.390 . S
C324 H344 0.949 . S
C325 C324 1.390 . S
C325 C326 1.357 1_554 S
C326 C322 1.370 . S
C326 C325 1.357 1_556 S
C326 H345 0.950 . S
Zn327 N321 2.020 . S
Zn327 O330 2.025 1_554 S
Zn327 O335 2.024 . S
Zn327 O337 2.039 . S
Zn327 O339 2.034 1_545 S
O328 C312 1.251 1_654 S
O328 Zn319 2.039 1_655 S
C329 O334 1.246 . S
C329 O335 1.249 . S
O330 C312 1.254 . S
O330 Zn327 2.025 1_556 S
H331 C323 0.952 . S
H332 C314 0.952 . S
H333 C322 0.948 . S
O334 Zn319 2.034 . S
O334 C329 1.246 . S
O335 Zn327 2.024 . S
O335 C329 1.249 . S
H336 C318 0.948 . S
O337 Zn327 2.039 . S
O337 C341 1.264 . S
O338 Zn319 2.025 1_565 S
O338 C341 1.249 1_565 S
O339 C320 1.246 . S
O339 Zn327 2.034 1_565 S
O340 Zn319 2.024 1_565 S
O340 C320 1.249 . S
C341 O337 1.264 . S
C341 O338 1.249 1_545 S
H342 C315 0.949 . S
H343 C317 0.950 . S
H344 C324 0.949 . S
H345 C326 0.950 . S
C346 O362 1.251 . S
C346 O364 1.254 . S
N347 C348 1.333 . S
N347 C352 1.307 . S
N347 Zn353 2.020 . S
C348 N347 1.333 . S
C348 C349 1.379 . S
C348 H366 0.952 . S
C349 C348 1.379 . S
C349 C350 1.390 . S
C349 H376 0.949 . S
C350 C349 1.390 . S
C350 C351 1.357 . S
C351 C350 1.357 . S
C351 C352 1.370 . S
C351 H377 0.950 . S
C352 N347 1.307 . S
C352 C351 1.370 . S
C352 H370 0.948 . S
Zn353 N347 2.020 . S
Zn353 O362 2.039 . S
Zn353 O368 2.034 . S
Zn353 O372 2.025 . S
Zn353 O374 2.024 . S
C354 O373 1.246 . S
C354 O374 1.249 . S
N355 C356 1.307 . S
N355 C357 1.333 . S
N355 Zn361 2.020 . S
C356 N355 1.307 . S
C356 C360 1.370 . S
C356 H367 0.948 . S
C357 N355 1.333 . S
C357 C358 1.379 . S
C357 H365 0.952 . S
C358 C357 1.379 . S
C358 C359 1.390 . S
C358 H378 0.949 . S
C359 C358 1.390 . S
C359 C360 1.357 . S
C360 C356 1.370 . S
C360 C359 1.357 . S
C360 H379 0.950 . S
Zn361 N355 2.020 . S
Zn361 O364 2.025 . S
Zn361 O369 2.024 . S
Zn361 O371 2.039 . S
Zn361 O373 2.034 . S
O362 C346 1.251 . S
O362 Zn353 2.039 . S
C363 O368 1.246 . S
C363 O369 1.249 . S
O364 C346 1.254 . S
O364 Zn361 2.025 . S
H365 C357 0.952 . S
H366 C348 0.952 . S
H367 C356 0.948 . S
O368 Zn353 2.034 . S
O368 C363 1.246 . S
O369 Zn361 2.024 . S
O369 C363 1.249 . S
H370 C352 0.948 . S
O371 Zn361 2.039 . S
O371 C375 1.251 . S
O372 Zn353 2.025 . S
O372 C375 1.254 . S
O373 C354 1.246 . S
O373 Zn361 2.034 . S
O374 Zn353 2.024 . S
O374 C354 1.249 . S
C375 O371 1.251 . S
C375 O372 1.254 . S
H376 C349 0.949 . S
H377 C351 0.950 . S
H378 C358 0.949 . S
H379 C360 0.950 . S
C380 O396 1.263 . S
C380 O398 1.254 . S
N381 C382 1.333 . S
N381 C386 1.307 . S
N381 Zn387 2.020 . S
C382 N381 1.333 . S
C382 C383 1.379 . S
C382 H400 0.952 . S
C383 C382 1.379 . S
C383 C384 1.390 . S
C383 H410 0.949 . S
C384 C383 1.390 . S
C384 C385 1.357 . S
C385 C384 1.357 . S
C385 C386 1.370 . S
C385 H411 0.950 . S
C386 N381 1.307 . S
C386 C385 1.370 . S
C386 H404 0.948 . S
Zn387 N381 2.020 . S
Zn387 O396 2.034 1_565 S
Zn387 O402 2.034 1_565 S
Zn387 O406 2.025 . S
Zn387 O408 2.024 . S
C388 O407 1.246 1_565 S
C388 O408 1.249 . S
N389 C390 1.307 . S
N389 C391 1.333 . S
N389 Zn395 2.020 . S
C390 N389 1.307 . S
C390 C394 1.370 . S
C390 H401 0.948 . S
C391 N389 1.333 . S
C391 C392 1.379 . S
C391 H399 0.952 . S
C392 C391 1.379 . S
C392 C393 1.390 . S
C392 H412 0.949 . S
C393 C392 1.390 . S
C393 C394 1.357 . S
C394 C390 1.370 . S
C394 C393 1.357 . S
C394 H413 0.950 . S
Zn395 N389 2.020 . S
Zn395 O398 2.025 . S
Zn395 O403 2.024 . S
Zn395 O405 2.039 . S
Zn395 O407 2.034 . S
O396 C380 1.263 . S
O396 Zn387 2.034 1_545 S
C397 O402 1.246 . S
C397 O403 1.249 . S
O398 C380 1.254 . S
O398 Zn395 2.025 . S
H399 C391 0.952 . S
H400 C382 0.952 . S
H401 C390 0.948 . S
O402 Zn387 2.034 1_545 S
O402 C397 1.246 . S
O403 Zn395 2.024 . S
O403 C397 1.249 . S
H404 C386 0.948 . S
O405 Zn395 2.039 . S
O405 C409 1.290 . S
O406 Zn387 2.025 . S
O406 C409 1.223 1_565 S
O407 C388 1.246 1_545 S
O407 Zn395 2.034 . S
O408 Zn387 2.024 . S
O408 C388 1.249 . S
C409 O405 1.290 . S
C409 O406 1.223 1_545 S
H410 C383 0.949 . S
H411 C385 0.950 . S
H412 C392 0.949 . S
H413 C394 0.950 . S
C414 O430 1.251 . S
C414 O432 1.254 . S
N415 C416 1.333 . S
N415 C420 1.307 . S
N415 Zn421 2.020 . S
C416 N415 1.333 . S
C416 C417 1.379 . S
C416 H434 0.952 . S
C417 C416 1.379 . S
C417 C418 1.390 . S
C417 H444 0.949 . S
C418 C417 1.390 . S
C418 C419 1.357 . S
C419 C418 1.357 . S
C419 C420 1.370 . S
C419 H445 0.950 . S
C420 N415 1.307 . S
C420 C419 1.370 . S
C420 H438 0.948 . S
Zn421 N415 2.020 . S
Zn421 O430 2.039 . S
Zn421 O436 2.034 . S
Zn421 O440 2.025 . S
Zn421 O442 2.024 . S
C422 O441 1.246 . S
C422 O442 1.249 . S
N423 C424 1.307 . S
N423 C425 1.333 . S
N423 Zn429 2.020 . S
C424 N423 1.307 . S
C424 C428 1.370 . S
C424 H435 0.948 . S
C425 N423 1.333 . S
C425 C426 1.379 . S
C425 H433 0.952 . S
C426 C425 1.379 . S
C426 C427 1.390 . S
C426 H446 0.949 . S
C427 C426 1.390 . S
C427 C428 1.357 . S
C428 C424 1.370 . S
C428 C427 1.357 . S
C428 H447 0.950 . S
Zn429 N423 2.020 . S
Zn429 O432 2.025 . S
Zn429 O437 2.024 . S
Zn429 O439 2.039 . S
Zn429 O441 2.034 . S
O430 C414 1.251 . S
O430 Zn421 2.039 . S
C431 O436 1.246 . S
C431 O437 1.249 . S
O432 C414 1.254 . S
O432 Zn429 2.025 . S
H433 C425 0.952 . S
H434 C416 0.952 . S
H435 C424 0.948 . S
O436 Zn421 2.034 . S
O436 C431 1.246 . S
O437 Zn429 2.024 . S
O437 C431 1.249 . S
H438 C420 0.948 . S
O439 Zn429 2.039 . S
O439 C443 1.251 . S
O440 Zn421 2.025 . S
O440 C443 1.254 . S
O441 C422 1.246 . S
O441 Zn429 2.034 . S
O442 Zn421 2.024 . S
O442 C422 1.249 . S
C443 O439 1.251 . S
C443 O440 1.254 . S
H444 C417 0.949 . S
H445 C419 0.950 . S
H446 C426 0.949 . S
H447 C428 0.950 . S
C448 O464 1.251 1_565 S
C448 O466 1.254 . S
N449 C450 1.333 . S
N449 C454 1.307 . S
N449 Zn455 2.020 . S
C450 N449 1.333 . S
C450 C451 1.379 . S
C450 H468 0.952 . S
C451 C450 1.379 . S
C451 C452 1.390 . S
C451 H478 0.949 . S
C452 C451 1.390 . S
C452 C453 1.357 . S
C453 C452 1.357 . S
C453 C454 1.370 . S
C453 H479 0.950 . S
C454 N449 1.307 . S
C454 C453 1.370 . S
C454 H472 0.948 . S
Zn455 N449 2.020 . S
Zn455 O464 2.039 . S
Zn455 O470 2.034 . S
Zn455 O474 2.025 . S
Zn455 O476 2.024 1_545 S
C456 O475 1.246 . S
C456 O476 1.249 . S
N457 C458 1.307 . S
N457 C459 1.333 1_455 S
N457 Zn463 2.020 1_565 S
C458 N457 1.307 . S
C458 C462 1.370 . S
C458 H469 0.959 . S
C459 N457 1.333 1_655 S
C459 C460 1.379 . S
C459 H467 0.952 . S
C460 C459 1.379 . S
C460 C461 1.390 . S
C460 H480 0.949 . S
C461 C460 1.390 . S
C461 C462 1.357 1_655 S
C462 C458 1.370 . S
C462 C461 1.357 1_455 S
C462 H481 0.950 . S
Zn463 N457 2.020 1_545 S
Zn463 O466 2.025 1_545 S
Zn463 O471 2.024 . S
Zn463 O473 2.039 1_455 S
Zn463 O475 2.034 1_545 S
O464 C448 1.251 1_545 S
O464 Zn455 2.039 . S
C465 O470 1.246 . S
C465 O471 1.249 . S
O466 C448 1.254 . S
O466 Zn463 2.025 1_565 S
H467 C459 0.952 . S
H468 C450 0.952 . S
H469 C458 0.959 . S
O470 Zn455 2.034 . S
O470 C465 1.246 . S
O471 Zn463 2.024 . S
O471 C465 1.249 . S
H472 C454 0.948 . S
O473 Zn463 2.039 1_655 S
O473 C477 1.251 . S
O474 Zn455 2.025 . S
O474 C477 1.254 1_455 S
O475 C456 1.246 . S
O475 Zn463 2.034 1_565 S
O476 Zn455 2.024 1_565 S
O476 C456 1.249 . S
C477 O473 1.251 . S
C477 O474 1.254 1_655 S
H478 C451 0.949 . S
H479 C453 0.950 . S
H480 C460 0.949 . S
H481 C462 0.950 . S
C482 O498 1.251 . S
C482 O500 1.254 . S
N483 C484 1.333 . S
N483 C488 1.307 . S
N483 Zn489 2.020 . S
C484 N483 1.333 . S
C484 C485 1.379 . S
C484 H502 0.952 . S
C485 C484 1.379 . S
C485 C486 1.390 . S
C485 H512 0.949 . S
C486 C485 1.390 . S
C486 C487 1.357 . S
C487 C486 1.357 . S
C487 C488 1.370 . S
C487 H513 0.950 . S
C488 N483 1.307 . S
C488 C487 1.370 . S
C488 H506 0.948 . S
Zn489 N483 2.020 . S
Zn489 O498 2.039 . S
Zn489 O504 2.034 . S
Zn489 O508 2.025 . S
Zn489 O510 2.024 . S
C490 O509 1.246 . S
C490 O510 1.249 . S
N491 C492 1.307 . S
N491 C493 1.333 . S
N491 Zn497 2.020 . S
C492 N491 1.307 . S
C492 C496 1.370 . S
C492 H503 0.948 . S
C493 N491 1.333 . S
C493 C494 1.379 . S
C493 H501 0.952 . S
C494 C493 1.379 . S
C494 C495 1.390 . S
C494 H514 0.949 . S
C495 C494 1.390 . S
C495 C496 1.357 . S
C496 C492 1.370 . S
C496 C495 1.357 . S
C496 H515 0.950 . S
Zn497 N491 2.020 . S
Zn497 O500 2.025 . S
Zn497 O505 2.024 . S
Zn497 O507 2.039 . S
Zn497 O509 2.034 . S
O498 C482 1.251 . S
O498 Zn489 2.039 . S
C499 O504 1.246 . S
C499 O505 1.249 . S
O500 C482 1.254 . S
O500 Zn497 2.025 . S
H501 C493 0.952 . S
H502 C484 0.952 . S
H503 C492 0.948 . S
O504 Zn489 2.034 . S
O504 C499 1.246 . S
O505 Zn497 2.024 . S
O505 C499 1.249 . S
H506 C488 0.948 . S
O507 Zn497 2.039 . S
O507 C511 1.251 . S
O508 Zn489 2.025 . S
O508 C511 1.254 . S
O509 C490 1.246 . S
O509 Zn497 2.034 . S
O510 Zn489 2.024 . S
O510 C490 1.249 . S
C511 O507 1.251 . S
C511 O508 1.254 . S
H512 C485 0.949 . S
H513 C487 0.950 . S
H514 C494 0.949 . S
H515 C496 0.950 . S
C516 O532 1.251 . S
C516 O534 1.254 . S
N517 C518 1.333 . S
N517 C522 1.307 . S
N517 Zn523 2.020 . S
C518 N517 1.333 . S
C518 C519 1.379 . S
C518 H536 0.952 . S
C519 C518 1.379 . S
C519 C520 1.390 . S
C519 H546 0.949 . S
C520 C519 1.390 . S
C520 C521 1.357 . S
C521 C520 1.357 . S
C521 C522 1.370 . S
C521 H547 0.950 . S
C522 N517 1.307 . S
C522 C521 1.370 . S
C522 H540 0.948 . S
Zn523 N517 2.020 . S
Zn523 O532 2.039 1_545 S
Zn523 O538 2.034 . S
Zn523 O542 2.025 . S
Zn523 O544 2.024 . S
C524 O543 1.273 . S
C524 O544 1.249 1_565 S
N525 C526 1.307 . S
N525 C527 1.333 1_565 S
N525 Zn531 2.020 1_566 S
C526 N525 1.307 . S
C526 C530 1.370 . S
C526 H537 0.948 . S
C527 N525 1.333 1_545 S
C527 C528 1.379 . S
C527 H535 0.952 . S
C528 C527 1.379 . S
C528 C529 1.390 1_545 S
C528 H548 0.949 . S
C529 C528 1.390 1_565 S
C529 C530 1.357 . S
C530 C526 1.370 . S
C530 C529 1.357 . S
C530 H549 0.950 . S
Zn531 N525 2.020 1_544 S
Zn531 O534 2.025 1_545 S
Zn531 O539 2.024 . S
Zn531 O541 2.039 1_554 S
Zn531 O543 2.038 1_545 S
O532 C516 1.251 . S
O532 Zn523 2.039 1_565 S
C533 O538 1.246 . S
C533 O539 1.249 . S
O534 C516 1.254 . S
O534 Zn531 2.025 1_565 S
H535 C527 0.952 . S
H536 C518 0.952 . S
H537 C526 0.948 . S
O538 Zn523 2.034 . S
O538 C533 1.246 . S
O539 Zn531 2.024 . S
O539 C533 1.249 . S
H540 C522 0.948 . S
O541 Zn531 2.039 1_556 S
O541 C545 1.251 1_556 S
O542 Zn523 2.025 . S
O542 C545 1.254 . S
O543 C524 1.273 . S
O543 Zn531 2.038 1_565 S
O544 Zn523 2.024 . S
O544 C524 1.249 1_545 S
C545 O541 1.251 1_554 S
C545 O542 1.254 . S
H546 C519 0.949 . S
H547 C521 0.950 . S
H548 C528 0.949 . S
H549 C530 0.950 . S
C550 O566 1.251 . S
C550 O568 1.254 . S
N551 C552 1.333 . S
N551 C556 1.307 . S
N551 Zn557 2.020 . S
C552 N551 1.333 . S
C552 C553 1.379 . S
C552 H570 0.952 . S
C553 C552 1.379 . S
C553 C554 1.390 . S
C553 H580 0.949 . S
C554 C553 1.390 . S
C554 C555 1.357 . S
C555 C554 1.357 . S
C555 C556 1.370 . S
C555 H581 0.950 . S
C556 N551 1.307 . S
C556 C555 1.370 . S
C556 H574 0.948 . S
Zn557 N551 2.020 . S
Zn557 O566 2.039 . S
Zn557 O572 2.034 . S
Zn557 O576 2.025 . S
Zn557 O578 2.024 . S
C558 O577 1.246 . S
C558 O578 1.249 . S
N559 C560 1.307 . S
N559 C561 1.333 . S
N559 Zn565 2.020 . S
C560 N559 1.307 . S
C560 C564 1.370 . S
C560 H571 0.948 . S
C561 N559 1.333 . S
C561 C562 1.379 . S
C561 H569 0.952 . S
C562 C561 1.379 . S
C562 C563 1.390 . S
C562 H582 0.949 . S
C563 C562 1.390 . S
C563 C564 1.357 . S
C564 C560 1.370 . S
C564 C563 1.357 . S
C564 H583 0.950 . S
Zn565 N559 2.020 . S
Zn565 O568 2.025 . S
Zn565 O573 2.024 . S
Zn565 O575 2.039 . S
Zn565 O577 2.034 . S
O566 C550 1.251 . S
O566 Zn557 2.039 . S
C567 O572 1.246 . S
C567 O573 1.249 . S
O568 C550 1.254 . S
O568 Zn565 2.025 . S
H569 C561 0.952 . S
H570 C552 0.952 . S
H571 C560 0.948 . S
O572 Zn557 2.034 . S
O572 C567 1.246 . S
O573 Zn565 2.024 . S
O573 C567 1.249 . S
H574 C556 0.948 . S
O575 Zn565 2.039 . S
O575 C579 1.251 . S
O576 Zn557 2.025 . S
O576 C579 1.254 . S
O577 C558 1.246 . S
O577 Zn565 2.034 . S
O578 Zn557 2.024 . S
O578 C558 1.249 . S
C579 O575 1.251 . S
C579 O576 1.254 . S
H580 C553 0.949 . S
H581 C555 0.950 . S
H582 C562 0.949 . S
H583 C564 0.950 . S
C584 O600 1.251 . S
C584 O602 1.254 . S
N585 C586 1.333 . S
N585 C590 1.307 . S
N585 Zn591 2.020 1_556 S
C586 N585 1.333 . S
C586 C587 1.379 . S
C586 H604 0.952 . S
C587 C586 1.379 . S
C587 C588 1.390 . S
C587 H614 0.949 . S
C588 C587 1.390 . S
C588 C589 1.357 . S
C589 C588 1.357 . S
C589 C590 1.370 . S
C589 H615 0.950 . S
C590 N585 1.307 . S
C590 C589 1.370 . S
C590 H608 0.948 . S
Zn591 N585 2.020 1_554 S
Zn591 O600 2.039 . S
Zn591 O606 2.034 . S
Zn591 O610 2.025 1_554 S
Zn591 O612 2.024 1_554 S
C592 O611 1.246 . S
C592 O612 1.249 1_554 S
N593 C594 1.307 . S
N593 C595 1.333 . S
N593 Zn599 2.020 . S
C594 N593 1.307 . S
C594 C598 1.370 . S
C594 H605 0.948 . S
C595 N593 1.333 . S
C595 C596 1.379 . S
C595 H603 0.952 . S
C596 C595 1.379 . S
C596 C597 1.390 . S
C596 H616 0.949 . S
C597 C596 1.390 . S
C597 C598 1.357 . S
C598 C594 1.370 . S
C598 C597 1.357 . S
C598 H617 0.950 . S
Zn599 N593 2.020 . S
Zn599 O602 2.025 . S
Zn599 O607 2.024 . S
Zn599 O609 2.039 . S
Zn599 O611 2.034 . S
O600 C584 1.251 . S
O600 Zn591 2.039 . S
C601 O606 1.246 . S
C601 O607 1.249 . S
O602 C584 1.254 . S
O602 Zn599 2.025 . S
H603 C595 0.952 . S
H604 C586 0.952 . S
H605 C594 0.948 . S
O606 Zn591 2.034 . S
O606 C601 1.246 . S
O607 Zn599 2.024 . S
O607 C601 1.249 . S
H608 C590 0.948 . S
O609 Zn599 2.039 . S
O609 C613 1.251 . S
O610 Zn591 2.025 1_556 S
O610 C613 1.254 1_556 S
O611 C592 1.246 . S
O611 Zn599 2.034 . S
O612 Zn591 2.024 1_556 S
O612 C592 1.249 1_556 S
C613 O609 1.251 . S
C613 O610 1.254 1_554 S
H614 C587 0.949 . S
H615 C589 0.950 . S
H616 C596 0.949 . S
H617 C598 0.950 . S
C618 O634 1.251 . S
C618 O636 1.254 . S
N619 C620 1.333 . S
N619 C624 1.307 . S
N619 Zn625 2.020 . S
C620 N619 1.333 . S
C620 C621 1.379 . S
C620 H638 0.952 . S
C621 C620 1.379 . S
C621 C622 1.390 . S
C621 H648 0.949 . S
C622 C621 1.390 . S
C622 C623 1.357 . S
C623 C622 1.357 . S
C623 C624 1.370 . S
C623 H649 0.950 . S
C624 N619 1.307 . S
C624 C623 1.370 . S
C624 H642 0.948 . S
Zn625 N619 2.020 . S
Zn625 O634 2.039 . S
Zn625 O640 2.034 . S
Zn625 O644 2.025 . S
Zn625 O646 2.024 . S
C626 O645 1.246 . S
C626 O646 1.249 . S
N627 C628 1.307 . S
N627 C629 1.333 . S
N627 Zn633 2.020 . S
C628 N627 1.307 . S
C628 C632 1.370 . S
C628 H639 0.948 . S
C629 N627 1.333 . S
C629 C630 1.379 . S
C629 H637 0.952 . S
C630 C629 1.379 . S
C630 C631 1.390 . S
C630 H650 0.949 . S
C631 C630 1.390 . S
C631 C632 1.357 . S
C632 C628 1.370 . S
C632 C631 1.357 . S
C632 H651 0.950 . S
Zn633 N627 2.020 . S
Zn633 O636 2.025 . S
Zn633 O641 2.024 . S
Zn633 O643 2.039 . S
Zn633 O645 2.034 . S
O634 C618 1.251 . S
O634 Zn625 2.039 . S
C635 O640 1.246 . S
C635 O641 1.249 . S
O636 C618 1.254 . S
O636 Zn633 2.025 . S
H637 C629 0.952 . S
H638 C620 0.952 . S
H639 C628 0.948 . S
O640 Zn625 2.034 . S
O640 C635 1.246 . S
O641 Zn633 2.024 . S
O641 C635 1.249 . S
H642 C624 0.948 . S
O643 Zn633 2.039 . S
O643 C647 1.251 . S
O644 Zn625 2.025 . S
O644 C647 1.254 . S
O645 C626 1.246 . S
O645 Zn633 2.034 . S
O646 Zn625 2.024 . S
O646 C626 1.249 . S
C647 O643 1.251 . S
C647 O644 1.254 . S
H648 C621 0.949 . S
H649 C623 0.950 . S
H650 C630 0.949 . S
H651 C632 0.950 . S
C652 O668 1.251 . S
C652 O670 1.254 . S
N653 C654 1.333 . S
N653 C658 1.307 . S
N653 Zn659 2.020 . S
C654 N653 1.333 . S
C654 C655 1.379 . S
C654 H672 0.952 . S
C655 C654 1.379 . S
C655 C656 1.390 . S
C655 H682 0.949 . S
C656 C655 1.390 . S
C656 C657 1.357 . S
C657 C656 1.357 . S
C657 C658 1.370 . S
C657 H683 0.950 . S
C658 N653 1.307 . S
C658 C657 1.370 . S
C658 H676 0.948 . S
Zn659 N653 2.020 . S
Zn659 O668 2.039 . S
Zn659 O674 2.034 . S
Zn659 O678 2.025 . S
Zn659 O680 2.024 . S
C660 O679 1.246 . S
C660 O680 1.249 . S
N661 C662 1.307 1_455 S
N661 C663 1.333 . S
N661 Zn667 2.020 . S
C662 N661 1.307 1_655 S
C662 C666 1.370 . S
C662 H673 0.948 . S
C663 N661 1.333 . S
C663 C664 1.379 . S
C663 H671 0.952 . S
C664 C663 1.379 . S
C664 C665 1.390 1_455 S
C664 H684 0.949 . S
C665 C664 1.390 1_655 S
C665 C666 1.357 . S
C666 C662 1.370 . S
C666 C665 1.357 . S
C666 H685 0.950 . S
Zn667 N661 2.020 . S
Zn667 O670 2.025 . S
Zn667 O675 2.024 1_455 S
Zn667 O677 2.039 . S
Zn667 O679 2.034 . S
O668 C652 1.251 . S
O668 Zn659 2.039 . S
C669 O674 1.246 1_655 S
C669 O675 1.249 . S
O670 C652 1.254 . S
O670 Zn667 2.025 . S
H671 C663 0.952 . S
H672 C654 0.952 . S
H673 C662 0.948 . S
O674 Zn659 2.034 . S
O674 C669 1.246 1_455 S
O675 Zn667 2.024 1_655 S
O675 C669 1.249 . S
H676 C658 0.948 . S
O677 Zn667 2.039 . S
O677 C681 1.251 . S
O678 Zn659 2.025 . S
O678 C681 1.254 . S
O679 C660 1.246 . S
O679 Zn667 2.034 . S
O680 Zn659 2.024 . S
O680 C660 1.249 . S
C681 O677 1.251 . S
C681 O678 1.254 . S
H682 C655 0.949 . S
H683 C657 0.950 . S
H684 C664 0.949 . S
H685 C666 0.950 . S
C686 O702 1.251 . S
C686 O704 1.254 . S
N687 C688 1.333 . S
N687 C692 1.307 . S
N687 Zn693 2.020 . S
C688 N687 1.333 . S
C688 C689 1.379 . S
C688 H706 0.952 . S
C689 C688 1.379 . S
C689 C690 1.390 . S
C689 H716 0.949 . S
C690 C689 1.390 . S
C690 C691 1.357 . S
C691 C690 1.357 . S
C691 C692 1.370 . S
C691 H717 0.950 . S
C692 N687 1.307 . S
C692 C691 1.370 . S
C692 H710 0.948 . S
Zn693 N687 2.020 . S
Zn693 O702 2.039 . S
Zn693 O708 2.034 . S
Zn693 O712 2.025 . S
Zn693 O714 2.024 . S
C694 O713 1.246 . S
C694 O714 1.249 . S
N695 C696 1.307 . S
N695 C697 1.333 . S
N695 Zn701 2.020 . S
C696 N695 1.307 . S
C696 C700 1.370 . S
C696 H707 0.948 . S
C697 N695 1.333 . S
C697 C698 1.379 . S
C697 H705 0.952 . S
C698 C697 1.379 . S
C698 C699 1.390 . S
C698 H718 0.949 . S
C699 C698 1.390 . S
C699 C700 1.357 . S
C700 C696 1.370 . S
C700 C699 1.357 . S
C700 H719 0.950 . S
Zn701 N695 2.020 . S
Zn701 O704 2.025 . S
Zn701 O709 2.024 . S
Zn701 O711 2.039 . S
Zn701 O713 2.034 . S
O702 C686 1.251 . S
O702 Zn693 2.039 . S
C703 O708 1.246 . S
C703 O709 1.249 . S
O704 C686 1.254 . S
O704 Zn701 2.025 . S
H705 C697 0.952 . S
H706 C688 0.952 . S
H707 C696 0.948 . S
O708 Zn693 2.034 . S
O708 C703 1.246 . S
O709 Zn701 2.024 . S
O709 C703 1.249 . S
H710 C692 0.948 . S
O711 Zn701 2.039 . S
O711 C715 1.251 . S
O712 Zn693 2.025 . S
O712 C715 1.254 . S
O713 C694 1.246 . S
O713 Zn701 2.034 . S
O714 Zn693 2.024 . S
O714 C694 1.249 . S
C715 O711 1.251 . S
C715 O712 1.254 . S
H716 C689 0.949 . S
H717 C691 0.950 . S
H718 C698 0.949 . S
H719 C700 0.950 . S
C720 O736 1.251 . S
C720 O738 1.254 . S
N721 C722 1.333 . S
N721 C726 1.307 . S
N721 Zn727 2.020 . S
C722 N721 1.333 . S
C722 C723 1.379 . S
C722 H740 0.952 . S
C723 C722 1.379 . S
C723 C724 1.390 . S
C723 H750 0.949 . S
C724 C723 1.390 . S
C724 C725 1.357 . S
C725 C724 1.357 . S
C725 C726 1.370 . S
C725 H751 0.950 . S
C726 N721 1.307 . S
C726 C725 1.370 . S
C726 H744 0.948 . S
Zn727 N721 2.020 . S
Zn727 O736 2.039 . S
Zn727 O742 2.034 . S
Zn727 O746 2.025 . S
Zn727 O748 2.024 . S
C728 O747 1.246 . S
C728 O748 1.249 . S
N729 C730 1.307 . S
N729 C731 1.333 . S
N729 Zn735 2.020 . S
C730 N729 1.307 . S
C730 C734 1.370 . S
C730 H741 0.948 . S
C731 N729 1.333 . S
C731 C732 1.379 . S
C731 H739 0.952 . S
C732 C731 1.379 . S
C732 C733 1.390 . S
C732 H752 0.949 . S
C733 C732 1.390 . S
C733 C734 1.357 . S
C734 C730 1.370 . S
C734 C733 1.357 . S
C734 H753 0.950 . S
Zn735 N729 2.020 . S
Zn735 O738 2.025 . S
Zn735 O743 2.024 . S
Zn735 O745 2.039 . S
Zn735 O747 2.034 . S
O736 C720 1.251 . S
O736 Zn727 2.039 . S
C737 O742 1.246 . S
C737 O743 1.249 . S
O738 C720 1.254 . S
O738 Zn735 2.025 . S
H739 C731 0.952 . S
H740 C722 0.952 . S
H741 C730 0.948 . S
O742 Zn727 2.034 . S
O742 C737 1.246 . S
O743 Zn735 2.024 . S
O743 C737 1.249 . S
H744 C726 0.948 . S
O745 Zn735 2.039 . S
O745 C749 1.251 . S
O746 Zn727 2.025 . S
O746 C749 1.254 . S
O747 C728 1.246 . S
O747 Zn735 2.034 . S
O748 Zn727 2.024 . S
O748 C728 1.249 . S
C749 O745 1.251 . S
C749 O746 1.254 . S
H750 C723 0.949 . S
H751 C725 0.950 . S
H752 C732 0.949 . S
H753 C734 0.950 . S
C754 O770 1.251 . S
C754 O772 1.254 . S
N755 C756 1.333 . S
N755 C760 1.307 . S
N755 Zn761 2.020 . S
C756 N755 1.333 . S
C756 C757 1.379 . S
C756 H774 0.952 . S
C757 C756 1.379 . S
C757 C758 1.390 . S
C757 H784 0.949 . S
C758 C757 1.390 . S
C758 C759 1.357 . S
C759 C758 1.357 . S
C759 C760 1.370 . S
C759 H785 0.950 . S
C760 N755 1.307 . S
C760 C759 1.370 . S
C760 H778 0.948 . S
Zn761 N755 2.020 . S
Zn761 O770 2.039 . S
Zn761 O776 2.034 . S
Zn761 O780 2.025 . S
Zn761 O782 2.024 . S
C762 O781 1.246 . S
C762 O782 1.249 . S
N763 C764 1.307 . S
N763 C765 1.333 . S
N763 Zn769 2.020 . S
C764 N763 1.307 . S
C764 C768 1.370 . S
C764 H775 0.948 . S
C765 N763 1.333 . S
C765 C766 1.379 . S
C765 H773 0.952 . S
C766 C765 1.379 . S
C766 C767 1.390 . S
C766 H786 0.949 . S
C767 C766 1.390 . S
C767 C768 1.357 . S
C768 C764 1.370 . S
C768 C767 1.357 . S
C768 H787 0.950 . S
Zn769 N763 2.020 . S
Zn769 O772 2.025 . S
Zn769 O777 2.024 . S
Zn769 O779 2.039 . S
Zn769 O781 2.034 . S
O770 C754 1.251 . S
O770 Zn761 2.039 . S
C771 O776 1.246 . S
C771 O777 1.249 . S
O772 C754 1.254 . S
O772 Zn769 2.025 . S
H773 C765 0.952 . S
H774 C756 0.952 . S
H775 C764 0.948 . S
O776 Zn761 2.034 . S
O776 C771 1.246 . S
O777 Zn769 2.024 . S
O777 C771 1.249 . S
H778 C760 0.948 . S
O779 Zn769 2.039 . S
O779 C783 1.251 . S
O780 Zn761 2.025 . S
O780 C783 1.254 . S
O781 C762 1.246 . S
O781 Zn769 2.034 . S
O782 Zn761 2.024 . S
O782 C762 1.249 . S
C783 O779 1.251 . S
C783 O780 1.254 . S
H784 C757 0.949 . S
H785 C759 0.950 . S
H786 C766 0.949 . S
H787 C768 0.950 . S
C788 O804 1.251 . S
C788 O806 1.254 . S
N789 C790 1.333 . S
N789 C794 1.307 . S
N789 Zn795 2.020 . S
C790 N789 1.333 . S
C790 C791 1.379 . S
C790 H808 0.952 . S
C791 C790 1.379 . S
C791 C792 1.390 . S
C791 H818 0.949 . S
C792 C791 1.390 . S
C792 C793 1.357 . S
C793 C792 1.357 . S
C793 C794 1.370 . S
C793 H819 0.950 . S
C794 N789 1.307 . S
C794 C793 1.370 . S
C794 H812 0.948 . S
Zn795 N789 2.020 . S
Zn795 O804 2.039 . S
Zn795 O810 2.034 . S
Zn795 O814 2.025 . S
Zn795 O816 2.024 . S
C796 O815 1.246 . S
C796 O816 1.249 . S
N797 C798 1.307 . S
N797 C799 1.333 . S
N797 Zn803 2.020 . S
C798 N797 1.307 . S
C798 C802 1.370 . S
C798 H809 0.948 . S
C799 N797 1.333 . S
C799 C800 1.379 . S
C799 H807 0.952 . S
C800 C799 1.379 . S
C800 C801 1.390 . S
C800 H820 0.949 . S
C801 C800 1.390 . S
C801 C802 1.357 . S
C802 C798 1.370 . S
C802 C801 1.357 . S
C802 H821 0.950 . S
Zn803 N797 2.020 . S
Zn803 O806 2.025 . S
Zn803 O811 2.024 . S
Zn803 O813 2.039 . S
Zn803 O815 2.034 . S
O804 C788 1.251 . S
O804 Zn795 2.039 . S
C805 O810 1.246 . S
C805 O811 1.249 . S
O806 C788 1.254 . S
O806 Zn803 2.025 . S
H807 C799 0.952 . S
H808 C790 0.952 . S
H809 C798 0.948 . S
O810 Zn795 2.034 . S
O810 C805 1.246 . S
O811 Zn803 2.024 . S
O811 C805 1.249 . S
H812 C794 0.948 . S
O813 Zn803 2.039 . S
O813 C817 1.251 . S
O814 Zn795 2.025 . S
O814 C817 1.254 . S
O815 C796 1.246 . S
O815 Zn803 2.034 . S
O816 Zn795 2.024 . S
O816 C796 1.249 . S
C817 O813 1.251 . S
C817 O814 1.254 . S
H818 C791 0.949 . S
H819 C793 0.950 . S
H820 C800 0.949 . S
H821 C802 0.950 . S
C822 O838 1.251 . S
C822 O840 1.254 . S
N823 C824 1.333 . S
N823 C828 1.307 . S
N823 Zn829 2.020 . S
C824 N823 1.333 . S
C824 C825 1.379 . S
C824 H842 0.952 . S
C825 C824 1.379 . S
C825 C826 1.390 . S
C825 H852 0.949 . S
C826 C825 1.390 . S
C826 C827 1.357 . S
C827 C826 1.357 . S
C827 C828 1.370 . S
C827 H853 0.950 . S
C828 N823 1.307 . S
C828 C827 1.370 . S
C828 H846 0.948 . S
Zn829 N823 2.020 . S
Zn829 O838 2.039 . S
Zn829 O844 2.034 . S
Zn829 O848 2.025 . S
Zn829 O850 2.049 . S
C830 O849 1.246 . S
C830 O850 1.233 1_655 S
N831 C832 1.307 . S
N831 C833 1.333 1_554 S
N831 Zn837 2.020 . S
C832 N831 1.307 . S
C832 C836 1.370 . S
C832 H843 0.948 . S
C833 N831 1.333 1_556 S
C833 C834 1.377 1_455 S
C833 H841 0.952 . S
C834 C833 1.377 1_655 S
C834 C835 1.391 . S
C834 H854 0.950 . S
C835 C834 1.391 . S
C835 C836 1.357 1_656 S
C836 C832 1.370 . S
C836 C835 1.357 1_454 S
C836 H855 0.950 . S
Zn837 N831 2.020 . S
Zn837 O840 2.025 . S
Zn837 O845 2.024 . S
Zn837 O847 2.039 1_554 S
Zn837 O849 2.034 1_455 S
O838 C822 1.251 . S
O838 Zn829 2.039 . S
C839 O844 1.246 . S
C839 O845 1.249 . S
O840 C822 1.254 . S
O840 Zn837 2.025 . S
H841 C833 0.952 . S
H842 C824 0.952 . S
H843 C832 0.948 . S
O844 Zn829 2.034 . S
O844 C839 1.246 . S
O845 Zn837 2.024 . S
O845 C839 1.249 . S
H846 C828 0.948 . S
O847 Zn837 2.039 1_556 S
O847 C851 1.251 . S
O848 Zn829 2.025 . S
O848 C851 1.254 1_554 S
O849 C830 1.246 . S
O849 Zn837 2.034 1_655 S
O850 Zn829 2.049 . S
O850 C830 1.233 1_455 S
C851 O847 1.251 . S
C851 O848 1.254 1_556 S
H852 C825 0.949 . S
H853 C827 0.950 . S
H854 C834 0.950 . S
H855 C836 0.950 . S
H856 C862 0.930 . S
H857 C866 0.930 . S
H858 C871 0.929 . S
H859 C869 0.905 1_655 S
H860 C864 0.929 . S
H861 C870 0.929 . S
C862 H856 0.930 . S
C862 C863 1.367 . S
C862 C870 1.378 . S
C863 C862 1.367 . S
C863 C871 1.433 . S
C864 H860 0.929 . S
C864 C866 1.378 . S
C864 C868 1.350 . S
C865 C868 1.463 . S
C865 C870 1.350 . S
C865 N873 1.427 . S
C866 H857 0.930 . S
C866 C864 1.378 . S
C866 C867 1.367 . S
C867 C866 1.367 . S
C867 C869 1.433 . S
C868 C864 1.350 . S
C868 C865 1.463 . S
C868 N872 1.427 . S
C869 H859 0.905 1_455 S
C869 C867 1.433 . S
C869 N872 1.384 . S
C870 H861 0.929 . S
C870 C862 1.378 . S
C870 C865 1.350 . S
C871 H858 0.929 . S
C871 C863 1.433 . S
C871 N873 1.384 . S
N872 C868 1.427 . S
N872 C869 1.384 . S
N873 C865 1.427 . S
N873 C871 1.384 . S
H874 C880 0.930 . S
H875 C884 0.930 . S
H876 C889 0.929 . S
H877 C887 0.929 . S
H878 C882 0.929 . S
H879 C888 0.929 . S
C880 H874 0.930 . S
C880 C881 1.367 . S
C880 C888 1.378 . S
C881 C880 1.367 . S
C881 C889 1.433 . S
C882 H878 0.929 . S
C882 C884 1.378 . S
C882 C886 1.350 . S
C883 C886 1.463 . S
C883 C888 1.350 . S
C883 N891 1.427 . S
C884 H875 0.930 . S
C884 C882 1.378 . S
C884 C885 1.367 . S
C885 C884 1.367 . S
C885 C887 1.433 . S
C886 C882 1.350 . S
C886 C883 1.463 . S
C886 N890 1.427 . S
C887 H877 0.929 . S
C887 C885 1.433 . S
C887 N890 1.384 . S
C888 H879 0.929 . S
C888 C880 1.378 . S
C888 C883 1.350 . S
C889 H876 0.929 . S
C889 C881 1.433 . S
C889 N891 1.384 . S
N890 C886 1.427 . S
N890 C887 1.384 . S
N891 C883 1.427 . S
N891 C889 1.384 . S
H892 C898 0.930 . S
H893 C902 0.930 . S
H894 C907 0.929 . S
H895 C905 0.929 . S
H896 C900 0.929 . S
H897 C906 0.929 . S
C898 H892 0.930 . S
C898 C899 1.367 . S
C898 C906 1.378 . S
C899 C898 1.367 . S
C899 C907 1.433 . S
C900 H896 0.929 . S
C900 C902 1.378 . S
C900 C904 1.350 . S
C901 C904 1.463 . S
C901 C906 1.350 . S
C901 N909 1.427 . S
C902 H893 0.930 . S
C902 C900 1.378 . S
C902 C903 1.367 . S
C903 C902 1.367 . S
C903 C905 1.433 . S
C904 C900 1.350 . S
C904 C901 1.463 . S
C904 N908 1.427 . S
C905 H895 0.929 . S
C905 C903 1.433 . S
C905 N908 1.384 . S
C906 H897 0.929 . S
C906 C898 1.378 . S
C906 C901 1.350 . S
C907 H894 0.929 . S
C907 C899 1.433 . S
C907 N909 1.384 . S
N908 C904 1.427 . S
N908 C905 1.384 . S
N909 C901 1.427 . S
N909 C907 1.384 . S
H910 C916 0.930 . S
H911 C920 0.930 . S
H912 C925 0.929 . S
H913 C923 0.929 . S
H914 C918 0.929 . S
H915 C924 0.929 . S
C916 H910 0.930 . S
C916 C917 1.367 . S
C916 C924 1.378 . S
C917 C916 1.367 . S
C917 C925 1.433 . S
C918 H914 0.929 . S
C918 C920 1.378 . S
C918 C922 1.350 . S
C919 C922 1.463 . S
C919 C924 1.350 . S
C919 N927 1.427 . S
C920 H911 0.930 . S
C920 C918 1.378 . S
C920 C921 1.367 . S
C921 C920 1.367 . S
C921 C923 1.433 . S
C922 C918 1.350 . S
C922 C919 1.463 . S
C922 N926 1.427 . S
C923 H913 0.929 . S
C923 C921 1.433 . S
C923 N926 1.384 . S
C924 H915 0.929 . S
C924 C916 1.378 . S
C924 C919 1.350 . S
C925 H912 0.929 . S
C925 C917 1.433 . S
C925 N927 1.384 . S
N926 C922 1.427 . S
N926 C923 1.384 . S
N927 C919 1.427 . S
N927 C925 1.384 . S
H928 C934 0.930 . S
H929 C938 0.930 . S
H930 C943 0.929 . S
H931 C941 0.929 . S
H932 C936 0.929 . S
H933 C942 0.929 . S
C934 H928 0.930 . S
C934 C935 1.367 . S
C934 C942 1.378 . S
C935 C934 1.367 . S
C935 C943 1.433 . S
C936 H932 0.929 . S
C936 C938 1.378 . S
C936 C940 1.350 . S
C937 C940 1.463 . S
C937 C942 1.350 . S
C937 N945 1.427 . S
C938 H929 0.930 . S
C938 C936 1.378 . S
C938 C939 1.367 . S
C939 C938 1.367 . S
C939 C941 1.433 . S
C940 C936 1.350 . S
C940 C937 1.463 . S
C940 N944 1.427 . S
C941 H931 0.929 . S
C941 C939 1.433 . S
C941 N944 1.384 . S
C942 H933 0.929 . S
C942 C934 1.378 . S
C942 C937 1.350 . S
C943 H930 0.929 . S
C943 C935 1.433 . S
C943 N945 1.384 . S
N944 C940 1.427 . S
N944 C941 1.384 . S
N945 C937 1.427 . S
N945 C943 1.384 . S
H946 C952 0.930 . S
H947 C956 0.930 . S
H948 C961 0.929 . S
H949 C959 0.929 . S
H950 C954 0.929 . S
H951 C960 0.929 . S
C952 H946 0.930 . S
C952 C953 1.367 . S
C952 C960 1.378 . S
C953 C952 1.367 . S
C953 C961 1.433 . S
C954 H950 0.929 . S
C954 C956 1.378 . S
C954 C958 1.350 . S
C955 C958 1.463 . S
C955 C960 1.350 . S
C955 N963 1.427 . S
C956 H947 0.930 . S
C956 C954 1.378 . S
C956 C957 1.367 . S
C957 C956 1.367 . S
C957 C959 1.433 . S
C958 C954 1.350 . S
C958 C955 1.463 . S
C958 N962 1.427 . S
C959 H949 0.929 . S
C959 C957 1.433 . S
C959 N962 1.384 . S
C960 H951 0.929 . S
C960 C952 1.378 . S
C960 C955 1.350 . S
C961 H948 0.929 . S
C961 C953 1.433 . S
C961 N963 1.384 . S
N962 C958 1.427 . S
N962 C959 1.384 . S
N963 C955 1.427 . S
N963 C961 1.384 . S
H964 C970 0.930 . S
H965 C974 0.930 . S
H966 C979 0.929 . S
H967 C977 0.929 . S
H968 C972 0.929 1_554 S
H969 C978 0.929 . S
C970 H964 0.930 . S
C970 C971 1.367 . S
C970 C978 1.378 . S
C971 C970 1.367 . S
C971 C979 1.433 . S
C972 H968 0.929 1_556 S
C972 C974 1.378 1_556 S
C972 C976 1.350 . S
C973 C976 1.463 . S
C973 C978 1.350 . S
C973 N981 1.427 . S
C974 H965 0.930 . S
C974 C972 1.378 1_554 S
C974 C975 1.367 1_554 S
C975 C974 1.367 1_556 S
C975 C977 1.433 . S
C976 C972 1.350 . S
C976 C973 1.463 . S
C976 N980 1.427 . S
C977 H967 0.929 . S
C977 C975 1.433 . S
C977 N980 1.384 . S
C978 H969 0.929 . S
C978 C970 1.378 . S
C978 C973 1.350 . S
C979 H966 0.929 . S
C979 C971 1.433 . S
C979 N981 1.384 . S
N980 C976 1.427 . S
N980 C977 1.384 . S
N981 C973 1.427 . S
N981 C979 1.384 . S
H982 C988 0.930 . S
H983 C992 0.930 . S
H984 C997 0.929 . S
H985 C995 0.929 . S
H986 C990 0.929 . S
H987 C996 0.929 . S
C988 H982 0.930 . S
C988 C989 1.367 . S
C988 C996 1.378 . S
C989 C988 1.367 . S
C989 C997 1.433 . S
C990 H986 0.929 . S
C990 C992 1.378 . S
C990 C994 1.350 . S
C991 C994 1.463 . S
C991 C996 1.350 . S
C991 N999 1.427 . S
C992 H983 0.930 . S
C992 C990 1.378 . S
C992 C993 1.367 . S
C993 C992 1.367 . S
C993 C995 1.433 . S
C994 C990 1.350 . S
C994 C991 1.463 . S
C994 N998 1.427 . S
C995 H985 0.929 . S
C995 C993 1.433 . S
C995 N998 1.384 . S
C996 H987 0.929 . S
C996 C988 1.378 . S
C996 C991 1.350 . S
C997 H984 0.929 . S
C997 C989 1.433 . S
C997 N999 1.384 . S
N998 C994 1.427 . S
N998 C995 1.384 . S
N999 C991 1.427 . S
N999 C997 1.384 . S
H1000 C1006 0.930 . S
H1001 C1010 0.930 . S
H1002 C1015 0.929 . S
H1003 C1013 0.929 . S
H1004 C1008 0.929 . S
H1005 C1014 0.929 1_565 S
C1006 H1000 0.930 . S
C1006 C1007 1.367 . S
C1006 C1014 1.378 . S
C1007 C1006 1.367 . S
C1007 C1015 1.433 . S
C1008 H1004 0.929 . S
C1008 C1010 1.378 . S
C1008 C1012 1.350 . S
C1009 C1012 1.463 . S
C1009 C1014 1.350 . S
C1009 N1017 1.427 . S
C1010 H1001 0.930 . S
C1010 C1008 1.378 . S
C1010 C1011 1.353 1_545 S
C1011 C1010 1.353 1_565 S
C1011 C1013 1.443 . S
C1012 C1008 1.350 . S
C1012 C1009 1.463 . S
C1012 N1016 1.427 1_545 S
C1013 H1003 0.929 . S
C1013 C1011 1.443 . S
C1013 N1016 1.384 . S
C1014 H1005 0.929 1_545 S
C1014 C1006 1.378 . S
C1014 C1009 1.350 . S
C1015 H1002 0.929 . S
C1015 C1007 1.433 . S
C1015 N1017 1.384 . S
N1016 C1012 1.427 1_565 S
N1016 C1013 1.384 . S
N1017 C1009 1.427 . S
N1017 C1015 1.384 . S
H1018 C1024 0.930 . S
H1019 C1028 0.930 . S
H1020 C1033 0.929 . S
H1021 C1031 0.929 . S
H1022 C1026 0.929 . S
H1023 C1032 0.929 . S
C1024 H1018 0.930 . S
C1024 C1025 1.367 . S
C1024 C1032 1.378 . S
C1025 C1024 1.367 . S
C1025 C1033 1.433 . S
C1026 H1022 0.929 . S
C1026 C1028 1.378 . S
C1026 C1030 1.350 . S
C1027 C1030 1.463 . S
C1027 C1032 1.350 . S
C1027 N1035 1.427 . S
C1028 H1019 0.930 . S
C1028 C1026 1.378 . S
C1028 C1029 1.367 . S
C1029 C1028 1.367 . S
C1029 C1031 1.433 . S
C1030 C1026 1.350 . S
C1030 C1027 1.463 . S
C1030 N1034 1.427 . S
C1031 H1021 0.929 . S
C1031 C1029 1.433 . S
C1031 N1034 1.384 . S
C1032 H1023 0.929 . S
C1032 C1024 1.378 . S
C1032 C1027 1.350 . S
C1033 H1020 0.929 . S
C1033 C1025 1.433 . S
C1033 N1035 1.384 . S
N1034 C1030 1.427 . S
N1034 C1031 1.384 . S
N1035 C1027 1.427 . S
N1035 C1033 1.384 . S
H1036 C1042 0.930 . S
H1037 C1046 0.930 . S
H1038 C1051 0.929 . S
H1039 C1049 0.929 1_565 S
H1040 C1044 0.929 . S
H1041 C1050 0.929 . S
C1042 H1036 0.930 . S
C1042 C1043 1.367 1_565 S
C1042 C1050 1.378 . S
C1043 C1042 1.367 1_545 S
C1043 C1051 1.433 . S
C1044 H1040 0.929 . S
C1044 C1046 1.378 . S
C1044 C1048 1.350 . S
C1045 C1048 1.463 . S
C1045 C1050 1.350 1_545 S
C1045 N1053 1.427 . S
C1046 H1037 0.930 . S
C1046 C1044 1.378 . S
C1046 C1047 1.367 . S
C1047 C1046 1.367 . S
C1047 C1049 1.433 . S
C1048 C1044 1.350 . S
C1048 C1045 1.463 . S
C1048 N1052 1.427 1_545 S
C1049 H1039 0.929 1_545 S
C1049 C1047 1.433 . S
C1049 N1052 1.384 1_545 S
C1050 H1041 0.929 . S
C1050 C1042 1.378 . S
C1050 C1045 1.350 1_565 S
C1051 H1038 0.929 . S
C1051 C1043 1.433 . S
C1051 N1053 1.384 . S
N1052 C1048 1.427 1_565 S
N1052 C1049 1.384 1_565 S
N1053 C1045 1.427 . S
N1053 C1051 1.384 . S
H1054 C1060 0.930 . S
H1055 C1064 0.930 . S
H1056 C1069 0.929 . S
H1057 C1067 0.929 . S
H1058 C1062 0.929 . S
H1059 C1068 0.929 . S
C1060 H1054 0.930 . S
C1060 C1061 1.367 . S
C1060 C1068 1.378 . S
C1061 C1060 1.367 . S
C1061 C1069 1.433 . S
C1062 H1058 0.929 . S
C1062 C1064 1.378 . S
C1062 C1066 1.350 . S
C1063 C1066 1.463 . S
C1063 C1068 1.350 . S
C1063 N1071 1.427 . S
C1064 H1055 0.930 . S
C1064 C1062 1.378 . S
C1064 C1065 1.367 . S
C1065 C1064 1.367 . S
C1065 C1067 1.433 . S
C1066 C1062 1.350 . S
C1066 C1063 1.463 . S
C1066 N1070 1.427 . S
C1067 H1057 0.929 . S
C1067 C1065 1.433 . S
C1067 N1070 1.384 . S
C1068 H1059 0.929 . S
C1068 C1060 1.378 . S
C1068 C1063 1.350 . S
C1069 H1056 0.929 . S
C1069 C1061 1.433 . S
C1069 N1071 1.384 . S
N1070 C1066 1.427 . S
N1070 C1067 1.384 . S
N1071 C1063 1.427 . S
N1071 C1069 1.384 . S
H1072 C1078 0.930 1_565 S
H1073 C1082 0.930 . S
H1074 C1087 0.929 . S
H1075 C1085 0.929 . S
H1076 C1080 0.929 . S
H1077 C1086 0.929 . S
C1078 H1072 0.930 1_545 S
C1078 C1079 1.367 . S
C1078 C1086 1.378 . S
C1079 C1078 1.367 . S
C1079 C1087 1.433 . S
C1080 H1076 0.929 . S
C1080 C1082 1.378 . S
C1080 C1084 1.350 . S
C1081 C1084 1.463 . S
C1081 C1086 1.350 . S
C1081 N1089 1.427 . S
C1082 H1073 0.930 . S
C1082 C1080 1.378 . S
C1082 C1083 1.367 . S
C1083 C1082 1.367 . S
C1083 C1085 1.433 . S
C1084 C1080 1.350 . S
C1084 C1081 1.463 . S
C1084 N1088 1.427 . S
C1085 H1075 0.929 . S
C1085 C1083 1.433 . S
C1085 N1088 1.384 . S
C1086 H1077 0.929 . S
C1086 C1078 1.378 . S
C1086 C1081 1.350 . S
C1087 H1074 0.929 . S
C1087 C1079 1.433 . S
C1087 N1089 1.384 . S
N1088 C1084 1.427 . S
N1088 C1085 1.384 . S
N1089 C1081 1.427 . S
N1089 C1087 1.384 . S
H1090 C1096 0.930 . S
H1091 C1100 0.930 . S
H1092 C1105 0.929 . S
H1093 C1103 0.929 . S
H1094 C1098 0.929 . S
H1095 C1104 0.929 . S
C1096 H1090 0.930 . S
C1096 C1097 1.367 . S
C1096 C1104 1.378 . S
C1097 C1096 1.367 . S
C1097 C1105 1.433 . S
C1098 H1094 0.929 . S
C1098 C1100 1.378 . S
C1098 C1102 1.350 . S
C1099 C1102 1.463 . S
C1099 C1104 1.350 . S
C1099 N1107 1.427 . S
C1100 H1091 0.930 . S
C1100 C1098 1.378 . S
C1100 C1101 1.367 . S
C1101 C1100 1.367 . S
C1101 C1103 1.433 . S
C1102 C1098 1.350 . S
C1102 C1099 1.463 . S
C1102 N1106 1.427 . S
C1103 H1093 0.929 . S
C1103 C1101 1.433 . S
C1103 N1106 1.384 . S
C1104 H1095 0.929 . S
C1104 C1096 1.378 . S
C1104 C1099 1.350 . S
C1105 H1092 0.929 . S
C1105 C1097 1.433 . S
C1105 N1107 1.384 . S
N1106 C1102 1.427 . S
N1106 C1103 1.384 . S
N1107 C1099 1.427 . S
N1107 C1105 1.384 . S
H1108 C1114 0.930 . S
H1109 C1118 0.930 . S
H1110 C1123 0.929 . S
H1111 C1121 0.929 . S
H1112 C1116 0.929 . S
H1113 C1122 0.929 . S
C1114 H1108 0.930 . S
C1114 C1115 1.367 1_565 S
C1114 C1122 1.378 . S
C1115 C1114 1.367 1_545 S
C1115 C1123 1.433 . S
C1116 H1112 0.929 . S
C1116 C1118 1.378 . S
C1116 C1120 1.350 1_545 S
C1117 C1120 1.465 . S
C1117 C1122 1.360 . S
C1117 N1125 1.414 1_565 S
C1118 H1109 0.930 . S
C1118 C1116 1.378 . S
C1118 C1119 1.367 1_545 S
C1119 C1118 1.367 1_565 S
C1119 C1121 1.433 . S
C1120 C1116 1.350 1_565 S
C1120 C1117 1.465 . S
C1120 N1124 1.427 . S
C1121 H1111 0.929 . S
C1121 C1119 1.433 . S
C1121 N1124 1.384 . S
C1122 H1113 0.929 . S
C1122 C1114 1.378 . S
C1122 C1117 1.360 . S
C1123 H1110 0.929 . S
C1123 C1115 1.433 . S
C1123 N1125 1.384 . S
N1124 C1120 1.427 . S
N1124 C1121 1.384 . S
N1125 C1117 1.414 1_545 S
N1125 C1123 1.384 . S
H1126 C1132 0.930 . S
H1127 C1136 0.930 . S
H1128 C1141 0.929 . S
H1129 C1139 0.929 . S
H1130 C1134 0.929 . S
H1131 C1140 0.929 . S
C1132 H1126 0.930 . S
C1132 C1133 1.367 . S
C1132 C1140 1.378 . S
C1133 C1132 1.367 . S
C1133 C1141 1.433 . S
C1134 H1130 0.929 . S
C1134 C1136 1.378 . S
C1134 C1138 1.350 . S
C1135 C1138 1.463 . S
C1135 C1140 1.350 . S
C1135 N1143 1.427 . S
C1136 H1127 0.930 . S
C1136 C1134 1.378 . S
C1136 C1137 1.367 . S
C1137 C1136 1.367 . S
C1137 C1139 1.433 . S
C1138 C1134 1.350 . S
C1138 C1135 1.463 . S
C1138 N1142 1.427 . S
C1139 H1129 0.929 . S
C1139 C1137 1.433 . S
C1139 N1142 1.384 . S
C1140 H1131 0.929 . S
C1140 C1132 1.378 . S
C1140 C1135 1.350 . S
C1141 H1128 0.929 . S
C1141 C1133 1.433 . S
C1141 N1143 1.384 . S
N1142 C1138 1.427 . S
N1142 C1139 1.384 . S
N1143 C1135 1.427 . S
N1143 C1141 1.384 . S
H1144 C1150 0.930 . S
H1145 C1154 0.930 . S
H1146 C1159 0.929 . S
H1147 C1157 0.929 . S
H1148 C1152 0.929 . S
H1149 C1158 0.929 . S
C1150 H1144 0.930 . S
C1150 C1151 1.367 . S
C1150 C1158 1.378 . S
C1151 C1150 1.367 . S
C1151 C1159 1.433 . S
C1152 H1148 0.929 . S
C1152 C1154 1.378 . S
C1152 C1156 1.350 . S
C1153 C1156 1.463 . S
C1153 C1158 1.350 . S
C1153 N1161 1.427 . S
C1154 H1145 0.930 . S
C1154 C1152 1.378 . S
C1154 C1155 1.367 1_554 S
C1155 C1154 1.367 1_556 S
C1155 C1157 1.433 . S
C1156 C1152 1.350 . S
C1156 C1153 1.463 . S
C1156 N1160 1.427 . S
C1157 H1147 0.929 . S
C1157 C1155 1.433 . S
C1157 N1160 1.384 1_556 S
C1158 H1149 0.929 . S
C1158 C1150 1.378 . S
C1158 C1153 1.350 . S
C1159 H1146 0.929 . S
C1159 C1151 1.433 . S
C1159 N1161 1.384 . S
N1160 C1156 1.427 . S
N1160 C1157 1.384 1_554 S
N1161 C1153 1.427 . S
N1161 C1159 1.384 . S
H1162 C1168 0.930 . S
H1163 C1172 0.930 . S
H1164 C1177 0.929 . S
H1165 C1175 0.929 . S
H1166 C1170 0.929 . S
H1167 C1176 0.929 . S
C1168 H1162 0.930 . S
C1168 C1169 1.367 . S
C1168 C1176 1.378 . S
C1169 C1168 1.367 . S
C1169 C1177 1.433 . S
C1170 H1166 0.929 . S
C1170 C1172 1.378 . S
C1170 C1174 1.350 . S
C1171 C1174 1.463 . S
C1171 C1176 1.350 . S
C1171 N1179 1.427 . S
C1172 H1163 0.930 . S
C1172 C1170 1.378 . S
C1172 C1173 1.367 . S
C1173 C1172 1.367 . S
C1173 C1175 1.433 . S
C1174 C1170 1.350 . S
C1174 C1171 1.463 . S
C1174 N1178 1.427 . S
C1175 H1165 0.929 . S
C1175 C1173 1.433 . S
C1175 N1178 1.384 . S
C1176 H1167 0.929 . S
C1176 C1168 1.378 . S
C1176 C1171 1.350 . S
C1177 H1164 0.929 . S
C1177 C1169 1.433 . S
C1177 N1179 1.384 . S
N1178 C1174 1.427 . S
N1178 C1175 1.384 . S
N1179 C1171 1.427 . S
N1179 C1177 1.384 . S
H1180 C1186 0.930 . S
H1181 C1190 0.930 . S
H1182 C1195 0.929 . S
H1183 C1193 0.929 . S
H1184 C1188 0.929 . S
H1185 C1194 0.929 . S
C1186 H1180 0.930 . S
C1186 C1187 1.367 . S
C1186 C1194 1.378 . S
C1187 C1186 1.367 . S
C1187 C1195 1.433 . S
C1188 H1184 0.929 . S
C1188 C1190 1.378 . S
C1188 C1192 1.350 . S
C1189 C1192 1.463 . S
C1189 C1194 1.350 . S
C1189 N1197 1.427 . S
C1190 H1181 0.930 . S
C1190 C1188 1.378 . S
C1190 C1191 1.367 . S
C1191 C1190 1.367 . S
C1191 C1193 1.433 . S
C1192 C1188 1.350 . S
C1192 C1189 1.463 . S
C1192 N1196 1.427 . S
C1193 H1183 0.929 . S
C1193 C1191 1.433 . S
C1193 N1196 1.384 . S
C1194 H1185 0.929 . S
C1194 C1186 1.378 . S
C1194 C1189 1.350 . S
C1195 H1182 0.929 . S
C1195 C1187 1.433 . S
C1195 N1197 1.384 . S
N1196 C1192 1.427 . S
N1196 C1193 1.384 . S
N1197 C1189 1.427 . S
N1197 C1195 1.384 . S
H1198 C1204 0.930 . S
H1199 C1208 0.930 . S
H1200 C1213 0.929 . S
H1201 C1211 0.929 . S
H1202 C1206 0.929 . S
H1203 C1212 0.929 . S
C1204 H1198 0.930 . S
C1204 C1205 1.367 . S
C1204 C1212 1.378 . S
C1205 C1204 1.367 . S
C1205 C1213 1.433 . S
C1206 H1202 0.929 . S
C1206 C1208 1.378 . S
C1206 C1210 1.350 . S
C1207 C1210 1.463 . S
C1207 C1212 1.350 . S
C1207 N1215 1.427 . S
C1208 H1199 0.930 . S
C1208 C1206 1.378 . S
C1208 C1209 1.367 . S
C1209 C1208 1.367 . S
C1209 C1211 1.433 . S
C1210 C1206 1.350 . S
C1210 C1207 1.463 . S
C1210 N1214 1.427 . S
C1211 H1201 0.929 . S
C1211 C1209 1.433 . S
C1211 N1214 1.384 . S
C1212 H1203 0.929 . S
C1212 C1204 1.378 . S
C1212 C1207 1.350 . S
C1213 H1200 0.929 . S
C1213 C1205 1.433 . S
C1213 N1215 1.384 . S
N1214 C1210 1.427 . S
N1214 C1211 1.384 . S
N1215 C1207 1.427 . S
N1215 C1213 1.384 . S
H1216 C1222 0.930 . S
H1217 C1226 0.930 . S
H1218 C1231 0.929 . S
H1219 C1229 0.929 . S
H1220 C1224 0.929 . S
H1221 C1230 0.929 . S
C1222 H1216 0.930 . S
C1222 C1223 1.367 . S
C1222 C1230 1.378 . S
C1223 C1222 1.367 . S
C1223 C1231 1.433 . S
C1224 H1220 0.929 . S
C1224 C1226 1.378 . S
C1224 C1228 1.350 . S
C1225 C1228 1.463 . S
C1225 C1230 1.350 . S
C1225 N1233 1.427 . S
C1226 H1217 0.930 . S
C1226 C1224 1.378 . S
C1226 C1227 1.367 . S
C1227 C1226 1.367 . S
C1227 C1229 1.433 . S
C1228 C1224 1.350 . S
C1228 C1225 1.463 . S
C1228 N1232 1.427 . S
C1229 H1219 0.929 . S
C1229 C1227 1.433 . S
C1229 N1232 1.384 . S
C1230 H1221 0.929 . S
C1230 C1222 1.378 . S
C1230 C1225 1.350 . S
C1231 H1218 0.929 . S
C1231 C1223 1.433 . S
C1231 N1233 1.384 . S
N1232 C1228 1.427 . S
N1232 C1229 1.384 . S
N1233 C1225 1.427 . S
N1233 C1231 1.384 . S
H1234 C1240 0.930 . S
H1235 C1244 0.930 1_545 S
H1236 C1249 0.929 . S
H1237 C1247 0.929 . S
H1238 C1242 0.929 . S
H1239 C1248 0.929 . S
C1240 H1234 0.930 . S
C1240 C1241 1.367 . S
C1240 C1248 1.378 . S
C1241 C1240 1.367 . S
C1241 C1249 1.433 . S
C1242 H1238 0.929 . S
C1242 C1244 1.378 . S
C1242 C1246 1.350 . S
C1243 C1246 1.463 . S
C1243 C1248 1.350 . S
C1243 N1251 1.427 . S
C1244 H1235 0.930 1_565 S
C1244 C1242 1.378 . S
C1244 C1245 1.367 . S
C1245 C1244 1.367 . S
C1245 C1247 1.433 . S
C1246 C1242 1.350 . S
C1246 C1243 1.463 . S
C1246 N1250 1.427 . S
C1247 H1237 0.929 . S
C1247 C1245 1.433 . S
C1247 N1250 1.384 . S
C1248 H1239 0.929 . S
C1248 C1240 1.378 . S
C1248 C1243 1.350 . S
C1249 H1236 0.929 . S
C1249 C1241 1.433 . S
C1249 N1251 1.384 . S
N1250 C1246 1.427 . S
N1250 C1247 1.384 . S
N1251 C1243 1.427 . S
N1251 C1249 1.384 . S
H1252 C1258 0.930 . S
H1253 C1262 0.930 . S
H1254 C1267 0.929 . S
H1255 C1265 0.929 . S
H1256 C1260 0.929 . S
H1257 C1266 0.929 . S
C1258 H1252 0.930 . S
C1258 C1259 1.367 . S
C1258 C1266 1.378 . S
C1259 C1258 1.367 . S
C1259 C1267 1.433 . S
C1260 H1256 0.929 . S
C1260 C1262 1.378 . S
C1260 C1264 1.350 . S
C1261 C1264 1.463 . S
C1261 C1266 1.350 . S
C1261 N1269 1.427 . S
C1262 H1253 0.930 . S
C1262 C1260 1.378 . S
C1262 C1263 1.367 . S
C1263 C1262 1.367 . S
C1263 C1265 1.433 . S
C1264 C1260 1.350 . S
C1264 C1261 1.463 . S
C1264 N1268 1.427 . S
C1265 H1255 0.929 . S
C1265 C1263 1.433 . S
C1265 N1268 1.384 . S
C1266 H1257 0.929 . S
C1266 C1258 1.378 . S
C1266 C1261 1.350 . S
C1267 H1254 0.929 . S
C1267 C1259 1.433 . S
C1267 N1269 1.384 . S
N1268 C1264 1.427 . S
N1268 C1265 1.384 . S
N1269 C1261 1.427 . S
N1269 C1267 1.384 . S
H1270 C1276 0.930 . S
H1271 C1280 0.930 . S
H1272 C1285 0.929 . S
H1273 C1283 0.929 . S
H1274 C1278 0.929 . S
H1275 C1284 0.929 . S
C1276 H1270 0.930 . S
C1276 C1277 1.367 . S
C1276 C1284 1.378 . S
C1277 C1276 1.367 . S
C1277 C1285 1.433 . S
C1278 H1274 0.929 . S
C1278 C1280 1.378 . S
C1278 C1282 1.350 . S
C1279 C1282 1.463 . S
C1279 C1284 1.350 . S
C1279 N1287 1.427 . S
C1280 H1271 0.930 . S
C1280 C1278 1.378 . S
C1280 C1281 1.367 . S
C1281 C1280 1.367 . S
C1281 C1283 1.433 . S
C1282 C1278 1.350 . S
C1282 C1279 1.463 . S
C1282 N1286 1.427 . S
C1283 H1273 0.929 . S
C1283 C1281 1.433 . S
C1283 N1286 1.384 . S
C1284 H1275 0.929 . S
C1284 C1276 1.378 . S
C1284 C1279 1.350 . S
C1285 H1272 0.929 . S
C1285 C1277 1.433 . S
C1285 N1287 1.384 . S
N1286 C1282 1.427 . S
N1286 C1283 1.384 . S
N1287 C1279 1.427 . S
N1287 C1285 1.384 . S
H1288 C1294 0.930 . S
H1289 C1298 0.930 . S
H1290 C1303 0.929 . S
H1291 C1301 0.929 . S
H1292 C1296 0.929 . S
H1293 C1302 0.929 . S
C1294 H1288 0.930 . S
C1294 C1295 1.367 1_655 S
C1294 C1302 1.378 . S
C1295 C1294 1.367 1_455 S
C1295 C1303 1.433 . S
C1296 H1292 0.929 . S
C1296 C1298 1.378 1_556 S
C1296 C1300 1.350 . S
C1297 C1300 1.463 . S
C1297 C1302 1.350 1_455 S
C1297 N1305 1.427 . S
C1298 H1289 0.930 . S
C1298 C1296 1.378 1_554 S
C1298 C1299 1.370 . S
C1299 C1298 1.370 . S
C1299 C1301 1.415 1_554 S
C1300 C1296 1.350 . S
C1300 C1297 1.463 . S
C1300 N1304 1.427 . S
C1301 H1291 0.929 . S
C1301 C1299 1.415 1_556 S
C1301 N1304 1.384 . S
C1302 H1293 0.929 . S
C1302 C1294 1.378 . S
C1302 C1297 1.350 1_655 S
C1303 H1290 0.929 . S
C1303 C1295 1.433 . S
C1303 N1305 1.384 . S
N1304 C1300 1.427 . S
N1304 C1301 1.384 . S
N1305 C1297 1.427 . S
N1305 C1303 1.384 . S
H1306 C1312 0.930 . S
H1307 C1316 0.930 . S
H1308 C1321 0.929 . S
H1309 C1319 0.929 . S
H1310 C1314 0.929 . S
H1311 C1320 0.929 . S
C1312 H1306 0.930 . S
C1312 C1313 1.367 . S
C1312 C1320 1.378 . S
C1313 C1312 1.367 . S
C1313 C1321 1.433 . S
C1314 H1310 0.929 . S
C1314 C1316 1.378 . S
C1314 C1318 1.350 . S
C1315 C1318 1.463 . S
C1315 C1320 1.350 . S
C1315 N1323 1.427 . S
C1316 H1307 0.930 . S
C1316 C1314 1.378 . S
C1316 C1317 1.367 . S
C1317 C1316 1.367 . S
C1317 C1319 1.433 . S
C1318 C1314 1.350 . S
C1318 C1315 1.463 . S
C1318 N1322 1.427 . S
C1319 H1309 0.929 . S
C1319 C1317 1.433 . S
C1319 N1322 1.384 . S
C1320 H1311 0.929 . S
C1320 C1312 1.378 . S
C1320 C1315 1.350 . S
C1321 H1308 0.929 . S
C1321 C1313 1.433 . S
C1321 N1323 1.384 . S
N1322 C1318 1.427 . S
N1322 C1319 1.384 . S
N1323 C1315 1.427 . S
N1323 C1321 1.384 . S
H1324 C1330 0.930 . S
H1325 C1334 0.930 . S
H1326 C1339 0.929 . S
H1327 C1337 0.929 . S
H1328 C1332 0.929 . S
H1329 C1338 0.929 . S
C1330 H1324 0.930 . S
C1330 C1331 1.367 . S
C1330 C1338 1.378 . S
C1331 C1330 1.367 . S
C1331 C1339 1.433 . S
C1332 H1328 0.929 . S
C1332 C1334 1.378 . S
C1332 C1336 1.350 . S
C1333 C1336 1.463 . S
C1333 C1338 1.350 . S
C1333 N1341 1.427 . S
C1334 H1325 0.930 . S
C1334 C1332 1.378 . S
C1334 C1335 1.367 . S
C1335 C1334 1.367 . S
C1335 C1337 1.433 . S
C1336 C1332 1.350 . S
C1336 C1333 1.463 . S
C1336 N1340 1.427 . S
C1337 H1327 0.929 . S
C1337 C1335 1.433 . S
C1337 N1340 1.384 . S
C1338 H1329 0.929 . S
C1338 C1330 1.378 . S
C1338 C1333 1.350 . S
C1339 H1326 0.929 . S
C1339 C1331 1.433 . S
C1339 N1341 1.384 . S
N1340 C1336 1.427 . S
N1340 C1337 1.384 . S
N1341 C1333 1.427 . S
N1341 C1339 1.384 . S
H1342 C1348 0.930 . S
H1343 C1352 0.930 . S
H1344 C1357 0.929 . S
H1345 C1355 0.929 . S
H1346 C1350 0.929 . S
H1347 C1356 0.929 . S
C1348 H1342 0.930 . S
C1348 C1349 1.367 . S
C1348 C1356 1.378 . S
C1349 C1348 1.367 . S
C1349 C1357 1.433 . S
C1350 H1346 0.929 . S
C1350 C1352 1.378 . S
C1350 C1354 1.350 . S
C1351 C1354 1.463 . S
C1351 C1356 1.350 . S
C1351 N1359 1.427 . S
C1352 H1343 0.930 . S
C1352 C1350 1.378 . S
C1352 C1353 1.367 . S
C1353 C1352 1.367 . S
C1353 C1355 1.433 . S
C1354 C1350 1.350 . S
C1354 C1351 1.463 . S
C1354 N1358 1.427 . S
C1355 H1345 0.929 . S
C1355 C1353 1.433 . S
C1355 N1358 1.384 . S
C1356 H1347 0.929 . S
C1356 C1348 1.378 . S
C1356 C1351 1.350 . S
C1357 H1344 0.929 . S
C1357 C1349 1.433 . S
C1357 N1359 1.384 . S
N1358 C1354 1.427 . S
N1358 C1355 1.384 . S
N1359 C1351 1.427 . S
N1359 C1357 1.384 . S
H1360 C1366 0.930 . S
H1361 C1370 0.930 . S
H1362 C1375 0.929 . S
H1363 C1373 0.929 . S
H1364 C1368 0.929 . S
H1365 C1374 0.929 . S
C1366 H1360 0.930 . S
C1366 C1367 1.367 . S
C1366 C1374 1.378 . S
C1367 C1366 1.367 . S
C1367 C1375 1.433 . S
C1368 H1364 0.929 . S
C1368 C1370 1.378 . S
C1368 C1372 1.350 . S
C1369 C1372 1.463 . S
C1369 C1374 1.350 . S
C1369 N1377 1.427 . S
C1370 H1361 0.930 . S
C1370 C1368 1.378 . S
C1370 C1371 1.367 . S
C1371 C1370 1.367 . S
C1371 C1373 1.433 . S
C1372 C1368 1.350 . S
C1372 C1369 1.463 . S
C1372 N1376 1.427 . S
C1373 H1363 0.929 . S
C1373 C1371 1.433 . S
C1373 N1376 1.384 . S
C1374 H1365 0.929 . S
C1374 C1366 1.378 . S
C1374 C1369 1.350 . S
C1375 H1362 0.929 . S
C1375 C1367 1.433 . S
C1375 N1377 1.384 . S
N1376 C1372 1.427 . S
N1376 C1373 1.384 . S
N1377 C1369 1.427 . S
N1377 C1375 1.384 . S
H1378 C1384 0.930 . S
H1379 C1388 0.930 . S
H1380 C1393 0.929 . S
H1381 C1391 0.929 . S
H1382 C1386 0.929 . S
H1383 C1392 0.929 . S
C1384 H1378 0.930 . S
C1384 C1385 1.367 . S
C1384 C1392 1.378 . S
C1385 C1384 1.367 . S
C1385 C1393 1.433 . S
C1386 H1382 0.929 . S
C1386 C1388 1.378 . S
C1386 C1390 1.350 . S
C1387 C1390 1.463 . S
C1387 C1392 1.350 . S
C1387 N1395 1.427 . S
C1388 H1379 0.930 . S
C1388 C1386 1.378 . S
C1388 C1389 1.367 . S
C1389 C1388 1.367 . S
C1389 C1391 1.433 . S
C1390 C1386 1.350 . S
C1390 C1387 1.463 . S
C1390 N1394 1.427 . S
C1391 H1381 0.929 . S
C1391 C1389 1.433 . S
C1391 N1394 1.384 . S
C1392 H1383 0.929 . S
C1392 C1384 1.378 . S
C1392 C1387 1.350 . S
C1393 H1380 0.929 . S
C1393 C1385 1.433 . S
C1393 N1395 1.384 . S
N1394 C1390 1.427 . S
N1394 C1391 1.384 . S
N1395 C1387 1.427 . S
N1395 C1393 1.384 . S
H1396 C1402 0.930 . S
H1397 C1406 0.930 . S
H1398 C1411 0.929 . S
H1399 C1409 0.929 . S
H1400 C1404 0.929 . S
H1401 C1410 0.929 . S
C1402 H1396 0.930 . S
C1402 C1403 1.367 . S
C1402 C1410 1.378 . S
C1403 C1402 1.367 . S
C1403 C1411 1.433 . S
C1404 H1400 0.929 . S
C1404 C1406 1.378 . S
C1404 C1408 1.350 . S
C1405 C1408 1.463 . S
C1405 C1410 1.350 . S
C1405 N1413 1.427 . S
C1406 H1397 0.930 . S
C1406 C1404 1.378 . S
C1406 C1407 1.367 . S
C1407 C1406 1.367 . S
C1407 C1409 1.433 . S
C1408 C1404 1.350 . S
C1408 C1405 1.463 . S
C1408 N1412 1.427 . S
C1409 H1399 0.929 . S
C1409 C1407 1.433 . S
C1409 N1412 1.384 . S
C1410 H1401 0.929 . S
C1410 C1402 1.378 . S
C1410 C1405 1.350 . S
C1411 H1398 0.929 . S
C1411 C1403 1.433 . S
C1411 N1413 1.384 . S
N1412 C1408 1.427 . S
N1412 C1409 1.384 . S
N1413 C1405 1.427 . S
N1413 C1411 1.384 . S
H1414 C1420 0.930 . S
H1415 C1424 0.930 . S
H1416 C1429 0.929 . S
H1417 C1427 0.929 . S
H1418 C1422 0.929 . S
H1419 C1428 0.929 . S
C1420 H1414 0.930 . S
C1420 C1421 1.367 . S
C1420 C1428 1.378 . S
C1421 C1420 1.367 . S
C1421 C1429 1.433 . S
C1422 H1418 0.929 . S
C1422 C1424 1.378 . S
C1422 C1426 1.350 . S
C1423 C1426 1.463 . S
C1423 C1428 1.350 . S
C1423 N1431 1.427 . S
C1424 H1415 0.930 . S
C1424 C1422 1.378 . S
C1424 C1425 1.367 . S
C1425 C1424 1.367 . S
C1425 C1427 1.433 . S
C1426 C1422 1.350 . S
C1426 C1423 1.463 . S
C1426 N1430 1.427 . S
C1427 H1417 0.929 . S
C1427 C1425 1.433 . S
C1427 N1430 1.384 . S
C1428 H1419 0.929 . S
C1428 C1420 1.378 . S
C1428 C1423 1.350 . S
C1429 H1416 0.929 . S
C1429 C1421 1.433 . S
C1429 N1431 1.384 . S
N1430 C1426 1.427 . S
N1430 C1427 1.384 . S
N1431 C1423 1.427 . S
N1431 C1429 1.384 . S
H1432 C1438 0.930 . S
H1433 C1442 0.930 1_465 S
H1434 C1447 0.929 . S
H1435 C1445 0.929 . S
H1436 C1440 0.940 . S
H1437 C1446 0.929 . S
C1438 H1432 0.930 . S
C1438 C1439 1.367 . S
C1438 C1446 1.378 . S
C1439 C1438 1.367 . S
C1439 C1447 1.433 1_545 S
C1440 H1436 0.940 . S
C1440 C1442 1.376 1_565 S
C1440 C1444 1.340 1_565 S
C1441 C1444 1.463 . S
C1441 C1446 1.350 . S
C1441 N1449 1.427 1_545 S
C1442 H1433 0.930 1_645 S
C1442 C1440 1.376 1_545 S
C1442 C1443 1.367 1_655 S
C1443 C1442 1.367 1_455 S
C1443 C1445 1.433 1_455 S
C1444 C1440 1.340 1_545 S
C1444 C1441 1.463 . S
C1444 N1448 1.427 . S
C1445 H1435 0.929 . S
C1445 C1443 1.433 1_655 S
C1445 N1448 1.384 . S
C1446 H1437 0.929 . S
C1446 C1438 1.378 . S
C1446 C1441 1.350 . S
C1447 H1434 0.929 . S
C1447 C1439 1.433 1_565 S
C1447 N1449 1.384 . S
N1448 C1444 1.427 . S
N1448 C1445 1.384 . S
N1449 C1441 1.427 1_565 S
N1449 C1447 1.384 . S
H1450 C1456 0.930 . S
H1451 C1460 0.930 . S
H1452 C1465 0.929 . S
H1453 C1463 0.929 . S
H1454 C1458 0.929 . S
H1455 C1464 0.929 . S
C1456 H1450 0.930 . S
C1456 C1457 1.367 . S
C1456 C1464 1.378 . S
C1457 C1456 1.367 . S
C1457 C1465 1.433 . S
C1458 H1454 0.929 . S
C1458 C1460 1.378 . S
C1458 C1462 1.350 . S
C1459 C1462 1.463 . S
C1459 C1464 1.350 . S
C1459 N1467 1.427 . S
C1460 H1451 0.930 . S
C1460 C1458 1.378 . S
C1460 C1461 1.367 . S
C1461 C1460 1.367 . S
C1461 C1463 1.433 . S
C1462 C1458 1.350 . S
C1462 C1459 1.463 . S
C1462 N1466 1.427 . S
C1463 H1453 0.929 . S
C1463 C1461 1.433 . S
C1463 N1466 1.384 . S
C1464 H1455 0.929 . S
C1464 C1456 1.378 . S
C1464 C1459 1.350 . S
C1465 H1452 0.929 . S
C1465 C1457 1.433 . S
C1465 N1467 1.384 . S
N1466 C1462 1.427 . S
N1466 C1463 1.384 . S
N1467 C1459 1.427 . S
N1467 C1465 1.384 . S
H1468 C1474 0.930 . S
H1469 C1478 0.930 . S
H1470 C1483 0.929 . S
H1471 C1481 0.929 . S
H1472 C1476 0.929 . S
H1473 C1482 0.929 . S
C1474 H1468 0.930 . S
C1474 C1475 1.367 . S
C1474 C1482 1.378 . S
C1475 C1474 1.367 . S
C1475 C1483 1.433 1_545 S
C1476 H1472 0.929 . S
C1476 C1478 1.378 . S
C1476 C1480 1.350 1_565 S
C1477 C1480 1.463 . S
C1477 C1482 1.350 . S
C1477 N1485 1.427 1_545 S
C1478 H1469 0.930 . S
C1478 C1476 1.378 . S
C1478 C1479 1.392 . S
C1479 C1478 1.392 . S
C1479 C1481 1.405 1_565 S
C1480 C1476 1.350 1_545 S
C1480 C1477 1.463 . S
C1480 N1484 1.427 . S
C1481 H1471 0.929 . S
C1481 C1479 1.405 1_545 S
C1481 N1484 1.384 . S
C1482 H1473 0.929 . S
C1482 C1474 1.378 . S
C1482 C1477 1.350 . S
C1483 H1470 0.929 . S
C1483 C1475 1.433 1_565 S
C1483 N1485 1.384 . S
N1484 C1480 1.427 . S
N1484 C1481 1.384 . S
N1485 C1477 1.427 1_565 S
N1485 C1483 1.384 . S
H1486 C1492 0.930 . S
H1487 C1496 0.930 . S
H1488 C1501 0.929 . S
H1489 C1499 0.929 . S
H1490 C1494 0.929 . S
H1491 C1500 0.929 . S
C1492 H1486 0.930 . S
C1492 C1493 1.367 . S
C1492 C1500 1.378 . S
C1493 C1492 1.367 . S
C1493 C1501 1.433 . S
C1494 H1490 0.929 . S
C1494 C1496 1.378 . S
C1494 C1498 1.350 . S
C1495 C1498 1.463 . S
C1495 C1500 1.350 . S
C1495 N1503 1.427 . S
C1496 H1487 0.930 . S
C1496 C1494 1.378 . S
C1496 C1497 1.367 . S
C1497 C1496 1.367 . S
C1497 C1499 1.433 . S
C1498 C1494 1.350 . S
C1498 C1495 1.463 . S
C1498 N1502 1.427 . S
C1499 H1489 0.929 . S
C1499 C1497 1.433 . S
C1499 N1502 1.384 . S
C1500 H1491 0.929 . S
C1500 C1492 1.378 . S
C1500 C1495 1.350 . S
C1501 H1488 0.929 . S
C1501 C1493 1.433 . S
C1501 N1503 1.384 . S
N1502 C1498 1.427 . S
N1502 C1499 1.384 . S
N1503 C1495 1.427 . S
N1503 C1501 1.384 . S
H1504 C1510 0.930 . S
H1505 C1514 0.930 . S
H1506 C1519 0.929 . S
H1507 C1517 0.907 1_445 S
H1508 C1512 0.929 . S
H1509 C1518 0.929 . S
C1510 H1504 0.930 . S
C1510 C1511 1.367 . S
C1510 C1518 1.378 . S
C1511 C1510 1.367 . S
C1511 C1519 1.433 1_545 S
C1512 H1508 0.929 . S
C1512 C1514 1.378 . S
C1512 C1516 1.350 . S
C1513 C1516 1.463 . S
C1513 C1518 1.350 1_565 S
C1513 N1521 1.427 . S
C1514 H1505 0.930 . S
C1514 C1512 1.378 . S
C1514 C1515 1.367 . S
C1515 C1514 1.367 . S
C1515 C1517 1.464 . S
C1516 C1512 1.350 . S
C1516 C1513 1.463 . S
C1516 N1520 1.427 1_565 S
C1517 H1507 0.907 1_665 S
C1517 C1515 1.464 . S
C1517 N1520 1.377 1_565 S
C1518 H1509 0.929 . S
C1518 C1510 1.378 . S
C1518 C1513 1.350 1_545 S
C1519 H1506 0.929 . S
C1519 C1511 1.433 1_565 S
C1519 N1521 1.384 . S
N1520 C1516 1.427 1_545 S
N1520 C1517 1.377 1_545 S
N1521 C1513 1.427 . S
N1521 C1519 1.384 . S
H1522 C1528 0.930 . S
H1523 C1532 0.930 . S
H1524 C1537 0.929 . S
H1525 C1535 0.929 . S
H1526 C1530 0.929 . S
H1527 C1536 0.929 . S
C1528 H1522 0.930 . S
C1528 C1529 1.367 . S
C1528 C1536 1.378 . S
C1529 C1528 1.367 . S
C1529 C1537 1.433 . S
C1530 H1526 0.929 . S
C1530 C1532 1.378 . S
C1530 C1534 1.350 . S
C1531 C1534 1.463 . S
C1531 C1536 1.350 . S
C1531 N1539 1.427 . S
C1532 H1523 0.930 . S
C1532 C1530 1.378 . S
C1532 C1533 1.367 . S
C1533 C1532 1.367 . S
C1533 C1535 1.433 . S
C1534 C1530 1.350 . S
C1534 C1531 1.463 . S
C1534 N1538 1.427 . S
C1535 H1525 0.929 . S
C1535 C1533 1.433 . S
C1535 N1538 1.384 . S
C1536 H1527 0.929 . S
C1536 C1528 1.378 . S
C1536 C1531 1.350 . S
C1537 H1524 0.929 . S
C1537 C1529 1.433 . S
C1537 N1539 1.384 . S
N1538 C1534 1.427 . S
N1538 C1535 1.384 . S
N1539 C1531 1.427 . S
N1539 C1537 1.384 . S
H1540 C1546 0.930 . S
H1541 C1550 0.930 . S
H1542 C1555 0.926 1_565 S
H1543 C1553 0.929 . S
H1544 C1548 0.929 . S
H1545 C1554 0.929 . S
C1546 H1540 0.930 . S
C1546 C1547 1.367 . S
C1546 C1554 1.378 . S
C1547 C1546 1.367 . S
C1547 C1555 1.433 . S
C1548 H1544 0.929 . S
C1548 C1550 1.378 . S
C1548 C1552 1.350 . S
C1549 C1552 1.463 . S
C1549 C1554 1.350 . S
C1549 N1557 1.427 . S
C1550 H1541 0.930 . S
C1550 C1548 1.378 . S
C1550 C1551 1.367 . S
C1551 C1550 1.367 . S
C1551 C1553 1.433 . S
C1552 C1548 1.350 . S
C1552 C1549 1.463 . S
C1552 N1556 1.427 . S
C1553 H1543 0.929 . S
C1553 C1551 1.433 . S
C1553 N1556 1.384 . S
C1554 H1545 0.929 . S
C1554 C1546 1.378 . S
C1554 C1549 1.350 . S
C1555 H1542 0.926 1_545 S
C1555 C1547 1.433 . S
C1555 N1557 1.384 . S
N1556 C1552 1.427 . S
N1556 C1553 1.384 . S
N1557 C1549 1.427 . S
N1557 C1555 1.384 . S
H1558 C1564 0.930 . S
H1559 C1568 0.930 . S
H1560 C1573 0.929 . S
H1561 C1571 0.929 . S
H1562 C1566 0.929 . S
H1563 C1572 0.929 . S
C1564 H1558 0.930 . S
C1564 C1565 1.367 . S
C1564 C1572 1.378 . S
C1565 C1564 1.367 . S
C1565 C1573 1.433 . S
C1566 H1562 0.929 . S
C1566 C1568 1.378 . S
C1566 C1570 1.350 . S
C1567 C1570 1.463 . S
C1567 C1572 1.350 . S
C1567 N1575 1.427 . S
C1568 H1559 0.930 . S
C1568 C1566 1.378 . S
C1568 C1569 1.367 . S
C1569 C1568 1.367 . S
C1569 C1571 1.433 . S
C1570 C1566 1.350 . S
C1570 C1567 1.463 . S
C1570 N1574 1.427 . S
C1571 H1561 0.929 . S
C1571 C1569 1.433 . S
C1571 N1574 1.384 . S
C1572 H1563 0.929 . S
C1572 C1564 1.378 . S
C1572 C1567 1.350 . S
C1573 H1560 0.929 . S
C1573 C1565 1.433 . S
C1573 N1575 1.384 . S
N1574 C1570 1.427 . S
N1574 C1571 1.384 . S
N1575 C1567 1.427 . S
N1575 C1573 1.384 . S
H1576 C1582 0.930 . S
H1577 C1586 0.930 . S
H1578 C1591 0.929 1_556 S
H1579 C1589 0.929 . S
H1580 C1584 0.929 . S
H1581 C1590 0.929 . S
C1582 H1576 0.930 . S
C1582 C1583 1.367 . S
C1582 C1590 1.378 . S
C1583 C1582 1.367 . S
C1583 C1591 1.433 . S
C1584 H1580 0.929 . S
C1584 C1586 1.378 . S
C1584 C1588 1.350 . S
C1585 C1588 1.463 . S
C1585 C1590 1.350 . S
C1585 N1593 1.427 . S
C1586 H1577 0.930 . S
C1586 C1584 1.378 . S
C1586 C1587 1.367 . S
C1587 C1586 1.367 . S
C1587 C1589 1.433 . S
C1588 C1584 1.350 . S
C1588 C1585 1.463 . S
C1588 N1592 1.427 . S
C1589 H1579 0.929 . S
C1589 C1587 1.433 . S
C1589 N1592 1.384 . S
C1590 H1581 0.929 . S
C1590 C1582 1.378 . S
C1590 C1585 1.350 . S
C1591 H1578 0.929 1_554 S
C1591 C1583 1.433 . S
C1591 N1593 1.384 . S
N1592 C1588 1.427 . S
N1592 C1589 1.384 . S
N1593 C1585 1.427 . S
N1593 C1591 1.384 . S
H1594 C1600 0.930 . S
H1595 C1604 0.930 . S
H1596 C1609 0.929 . S
H1597 C1607 0.929 . S
H1598 C1602 0.929 . S
H1599 C1608 0.929 . S
C1600 H1594 0.930 . S
C1600 C1601 1.365 1_556 S
C1600 C1608 1.378 . S
C1601 C1600 1.365 1_554 S
C1601 C1609 1.436 . S
C1602 H1598 0.929 . S
C1602 C1604 1.378 . S
C1602 C1606 1.350 . S
C1603 C1606 1.463 . S
C1603 C1608 1.350 1_554 S
C1603 N1611 1.427 . S
C1604 H1595 0.930 . S
C1604 C1602 1.378 . S
C1604 C1605 1.367 . S
C1605 C1604 1.367 . S
C1605 C1607 1.433 1_554 S
C1606 C1602 1.350 . S
C1606 C1603 1.463 . S
C1606 N1610 1.427 1_554 S
C1607 H1597 0.929 . S
C1607 C1605 1.433 1_556 S
C1607 N1610 1.384 . S
C1608 H1599 0.929 . S
C1608 C1600 1.378 . S
C1608 C1603 1.350 1_556 S
C1609 H1596 0.929 . S
C1609 C1601 1.436 . S
C1609 N1611 1.384 . S
N1610 C1606 1.427 1_556 S
N1610 C1607 1.384 . S
N1611 C1603 1.427 . S
N1611 C1609 1.384 . S
H1612 C1618 0.930 . S
H1613 C1622 0.930 . S
H1614 C1627 0.929 . S
H1615 C1625 0.929 . S
H1616 C1620 0.929 . S
H1617 C1626 0.929 . S
C1618 H1612 0.930 . S
C1618 C1619 1.367 . S
C1618 C1626 1.378 . S
C1619 C1618 1.367 . S
C1619 C1627 1.433 . S
C1620 H1616 0.929 . S
C1620 C1622 1.378 . S
C1620 C1624 1.350 . S
C1621 C1624 1.463 . S
C1621 C1626 1.350 . S
C1621 N1629 1.427 . S
C1622 H1613 0.930 . S
C1622 C1620 1.378 . S
C1622 C1623 1.367 . S
C1623 C1622 1.367 . S
C1623 C1625 1.433 . S
C1624 C1620 1.350 . S
C1624 C1621 1.463 . S
C1624 N1628 1.427 . S
C1625 H1615 0.929 . S
C1625 C1623 1.433 . S
C1625 N1628 1.384 . S
C1626 H1617 0.929 . S
C1626 C1618 1.378 . S
C1626 C1621 1.350 . S
C1627 H1614 0.929 . S
C1627 C1619 1.433 . S
C1627 N1629 1.384 . S
N1628 C1624 1.427 . S
N1628 C1625 1.384 . S
N1629 C1621 1.427 . S
N1629 C1627 1.384 . S
H1630 C1636 0.930 . S
H1631 C1640 0.930 . S
H1632 C1645 0.929 . S
H1633 C1643 0.929 . S
H1634 C1638 0.929 . S
H1635 C1644 0.929 . S
C1636 H1630 0.930 . S
C1636 C1637 1.367 . S
C1636 C1644 1.378 . S
C1637 C1636 1.367 . S
C1637 C1645 1.433 . S
C1638 H1634 0.929 . S
C1638 C1640 1.378 . S
C1638 C1642 1.350 . S
C1639 C1642 1.463 . S
C1639 C1644 1.350 . S
C1639 N1647 1.427 . S
C1640 H1631 0.930 . S
C1640 C1638 1.378 . S
C1640 C1641 1.367 . S
C1641 C1640 1.367 . S
C1641 C1643 1.433 . S
C1642 C1638 1.350 . S
C1642 C1639 1.463 . S
C1642 N1646 1.427 . S
C1643 H1633 0.929 . S
C1643 C1641 1.433 . S
C1643 N1646 1.384 . S
C1644 H1635 0.929 . S
C1644 C1636 1.378 . S
C1644 C1639 1.350 . S
C1645 H1632 0.929 . S
C1645 C1637 1.433 . S
C1645 N1647 1.384 . S
N1646 C1642 1.427 . S
N1646 C1643 1.384 . S
N1647 C1639 1.427 . S
N1647 C1645 1.384 . S
H1648 C1654 0.930 . S
H1649 C1658 0.930 . S
H1650 C1663 0.929 . S
H1651 C1661 0.929 . S
H1652 C1656 0.929 . S
H1653 C1662 0.929 . S
C1654 H1648 0.930 . S
C1654 C1655 1.367 . S
C1654 C1662 1.378 . S
C1655 C1654 1.367 . S
C1655 C1663 1.433 . S
C1656 H1652 0.929 . S
C1656 C1658 1.378 . S
C1656 C1660 1.350 . S
C1657 C1660 1.463 . S
C1657 C1662 1.350 . S
C1657 N1665 1.427 . S
C1658 H1649 0.930 . S
C1658 C1656 1.378 . S
C1658 C1659 1.367 . S
C1659 C1658 1.367 . S
C1659 C1661 1.433 . S
C1660 C1656 1.350 . S
C1660 C1657 1.463 . S
C1660 N1664 1.427 . S
C1661 H1651 0.929 . S
C1661 C1659 1.433 . S
C1661 N1664 1.384 . S
C1662 H1653 0.929 . S
C1662 C1654 1.378 . S
C1662 C1657 1.350 . S
C1663 H1650 0.929 . S
C1663 C1655 1.433 . S
C1663 N1665 1.384 . S
N1664 C1660 1.427 . S
N1664 C1661 1.384 . S
N1665 C1657 1.427 . S
N1665 C1663 1.384 . S
H1666 C1672 0.930 . S
H1667 C1676 0.930 . S
H1668 C1681 0.929 . S
H1669 C1679 0.929 . S
H1670 C1674 0.929 . S
H1671 C1680 0.929 . S
C1672 H1666 0.930 . S
C1672 C1673 1.367 . S
C1672 C1680 1.378 . S
C1673 C1672 1.367 . S
C1673 C1681 1.433 . S
C1674 H1670 0.929 . S
C1674 C1676 1.378 . S
C1674 C1678 1.350 . S
C1675 C1678 1.463 . S
C1675 C1680 1.350 . S
C1675 N1683 1.427 . S
C1676 H1667 0.930 . S
C1676 C1674 1.378 . S
C1676 C1677 1.367 . S
C1677 C1676 1.367 . S
C1677 C1679 1.433 . S
C1678 C1674 1.350 . S
C1678 C1675 1.463 . S
C1678 N1682 1.427 . S
C1679 H1669 0.929 . S
C1679 C1677 1.433 . S
C1679 N1682 1.384 . S
C1680 H1671 0.929 . S
C1680 C1672 1.378 . S
C1680 C1675 1.350 . S
C1681 H1668 0.929 . S
C1681 C1673 1.433 . S
C1681 N1683 1.384 . S
N1682 C1678 1.427 . S
N1682 C1679 1.384 . S
N1683 C1675 1.427 . S
N1683 C1681 1.384 . S
H1684 C1690 0.930 . S
H1685 C1694 0.930 . S
H1686 C1699 0.929 . S
H1687 C1697 0.929 . S
H1688 C1692 0.929 . S
H1689 C1698 0.929 . S
C1690 H1684 0.930 . S
C1690 C1691 1.367 . S
C1690 C1698 1.378 . S
C1691 C1690 1.367 . S
C1691 C1699 1.433 . S
C1692 H1688 0.929 . S
C1692 C1694 1.378 . S
C1692 C1696 1.350 . S
C1693 C1696 1.463 . S
C1693 C1698 1.350 . S
C1693 N1701 1.427 . S
C1694 H1685 0.930 . S
C1694 C1692 1.378 . S
C1694 C1695 1.367 . S
C1695 C1694 1.367 . S
C1695 C1697 1.433 . S
C1696 C1692 1.350 . S
C1696 C1693 1.463 . S
C1696 N1700 1.427 . S
C1697 H1687 0.929 . S
C1697 C1695 1.433 . S
C1697 N1700 1.384 . S
C1698 H1689 0.929 . S
C1698 C1690 1.378 . S
C1698 C1693 1.350 . S
C1699 H1686 0.929 . S
C1699 C1691 1.433 . S
C1699 N1701 1.384 . S
N1700 C1696 1.427 . S
N1700 C1697 1.384 . S
N1701 C1693 1.427 . S
N1701 C1699 1.384 . S
H1702 C1708 0.930 . S
H1703 C1712 0.930 . S
H1704 C1717 0.929 . S
H1705 C1715 0.929 . S
H1706 C1710 0.929 . S
H1707 C1716 0.929 . S
C1708 H1702 0.930 . S
C1708 C1709 1.367 . S
C1708 C1716 1.378 . S
C1709 C1708 1.367 . S
C1709 C1717 1.433 . S
C1710 H1706 0.929 . S
C1710 C1712 1.378 . S
C1710 C1714 1.350 . S
C1711 C1714 1.463 . S
C1711 C1716 1.350 . S
C1711 N1719 1.427 . S
C1712 H1703 0.930 . S
C1712 C1710 1.378 . S
C1712 C1713 1.367 . S
C1713 C1712 1.367 . S
C1713 C1715 1.433 . S
C1714 C1710 1.350 . S
C1714 C1711 1.463 . S
C1714 N1718 1.427 . S
C1715 H1705 0.929 . S
C1715 C1713 1.433 . S
C1715 N1718 1.384 . S
C1716 H1707 0.929 . S
C1716 C1708 1.378 . S
C1716 C1711 1.350 . S
C1717 H1704 0.929 . S
C1717 C1709 1.433 . S
C1717 N1719 1.384 . S
N1718 C1714 1.427 . S
N1718 C1715 1.384 . S
N1719 C1711 1.427 . S
N1719 C1717 1.384 . S
H1720 C1726 0.930 . S
H1721 C1730 0.930 . S
H1722 C1735 0.929 . S
H1723 C1733 0.929 . S
H1724 C1728 0.929 . S
H1725 C1734 0.929 . S
C1726 H1720 0.930 . S
C1726 C1727 1.367 . S
C1726 C1734 1.378 . S
C1727 C1726 1.367 . S
C1727 C1735 1.433 . S
C1728 H1724 0.929 . S
C1728 C1730 1.378 . S
C1728 C1732 1.350 . S
C1729 C1732 1.463 . S
C1729 C1734 1.350 . S
C1729 N1737 1.427 . S
C1730 H1721 0.930 . S
C1730 C1728 1.378 . S
C1730 C1731 1.367 . S
C1731 C1730 1.367 . S
C1731 C1733 1.433 . S
C1732 C1728 1.350 . S
C1732 C1729 1.463 . S
C1732 N1736 1.427 . S
C1733 H1723 0.929 . S
C1733 C1731 1.433 . S
C1733 N1736 1.384 . S
C1734 H1725 0.929 . S
C1734 C1726 1.378 . S
C1734 C1729 1.350 . S
C1735 H1722 0.929 . S
C1735 C1727 1.433 . S
C1735 N1737 1.384 . S
N1736 C1732 1.427 . S
N1736 C1733 1.384 . S
N1737 C1729 1.427 . S
N1737 C1735 1.384 . S
H1738 C1744 0.930 . S
H1739 C1748 0.930 . S
H1740 C1753 0.929 . S
H1741 C1751 0.929 . S
H1742 C1746 0.929 . S
H1743 C1752 0.929 . S
C1744 H1738 0.930 . S
C1744 C1745 1.367 . S
C1744 C1752 1.378 . S
C1745 C1744 1.367 . S
C1745 C1753 1.433 . S
C1746 H1742 0.929 . S
C1746 C1748 1.378 . S
C1746 C1750 1.350 . S
C1747 C1750 1.463 . S
C1747 C1752 1.350 . S
C1747 N1755 1.427 . S
C1748 H1739 0.930 . S
C1748 C1746 1.378 . S
C1748 C1749 1.367 . S
C1749 C1748 1.367 . S
C1749 C1751 1.433 . S
C1750 C1746 1.350 . S
C1750 C1747 1.463 . S
C1750 N1754 1.427 . S
C1751 H1741 0.929 . S
C1751 C1749 1.433 . S
C1751 N1754 1.384 . S
C1752 H1743 0.929 . S
C1752 C1744 1.378 . S
C1752 C1747 1.350 . S
C1753 H1740 0.929 . S
C1753 C1745 1.433 . S
C1753 N1755 1.384 . S
N1754 C1750 1.427 . S
N1754 C1751 1.384 . S
N1755 C1747 1.427 . S
N1755 C1753 1.384 . S
H1756 C1762 0.930 . S
H1757 C1766 0.930 . S
H1758 C1771 0.929 . S
H1759 C1769 0.929 . S
H1760 C1764 0.929 . S
H1761 C1770 0.929 . S
C1762 H1756 0.930 . S
C1762 C1763 1.367 . S
C1762 C1770 1.378 . S
C1763 C1762 1.367 . S
C1763 C1771 1.433 . S
C1764 H1760 0.929 . S
C1764 C1766 1.378 . S
C1764 C1768 1.350 . S
C1765 C1768 1.463 . S
C1765 C1770 1.350 . S
C1765 N1773 1.427 . S
C1766 H1757 0.930 . S
C1766 C1764 1.378 . S
C1766 C1767 1.367 . S
C1767 C1766 1.367 . S
C1767 C1769 1.433 . S
C1768 C1764 1.350 . S
C1768 C1765 1.463 . S
C1768 N1772 1.427 . S
C1769 H1759 0.929 . S
C1769 C1767 1.433 . S
C1769 N1772 1.384 . S
C1770 H1761 0.929 . S
C1770 C1762 1.378 . S
C1770 C1765 1.350 . S
C1771 H1758 0.929 . S
C1771 C1763 1.433 . S
C1771 N1773 1.384 . S
N1772 C1768 1.427 . S
N1772 C1769 1.384 . S
N1773 C1765 1.427 . S
N1773 C1771 1.384 . S
H1774 C1780 0.930 . S
H1775 C1784 0.930 . S
H1776 C1789 0.929 . S
H1777 C1787 0.929 . S
H1778 C1782 0.929 . S
H1779 C1788 0.929 . S
C1780 H1774 0.930 . S
C1780 C1781 1.367 . S
C1780 C1788 1.378 . S
C1781 C1780 1.367 . S
C1781 C1789 1.433 . S
C1782 H1778 0.929 . S
C1782 C1784 1.378 . S
C1782 C1786 1.350 . S
C1783 C1786 1.463 . S
C1783 C1788 1.350 . S
C1783 N1791 1.427 . S
C1784 H1775 0.930 . S
C1784 C1782 1.378 . S
C1784 C1785 1.367 . S
C1785 C1784 1.367 . S
C1785 C1787 1.433 . S
C1786 C1782 1.350 . S
C1786 C1783 1.463 . S
C1786 N1790 1.427 . S
C1787 H1777 0.929 . S
C1787 C1785 1.433 . S
C1787 N1790 1.384 . S
C1788 H1779 0.929 . S
C1788 C1780 1.378 . S
C1788 C1783 1.350 . S
C1789 H1776 0.929 . S
C1789 C1781 1.433 . S
C1789 N1791 1.384 . S
N1790 C1786 1.427 . S
N1790 C1787 1.384 . S
N1791 C1783 1.427 . S
N1791 C1789 1.384 . S
H1792 C1798 0.930 . S
H1793 C1802 0.930 . S
H1794 C1807 0.929 . S
H1795 C1805 0.929 . S
H1796 C1800 0.929 1_554 S
H1797 C1806 0.929 . S
C1798 H1792 0.930 . S
C1798 C1799 1.367 . S
C1798 C1806 1.378 . S
C1799 C1798 1.367 . S
C1799 C1807 1.433 . S
C1800 H1796 0.929 1_556 S
C1800 C1802 1.378 1_556 S
C1800 C1804 1.350 . S
C1801 C1804 1.463 . S
C1801 C1806 1.350 . S
C1801 N1809 1.427 . S
C1802 H1793 0.930 . S
C1802 C1800 1.378 1_554 S
C1802 C1803 1.365 1_554 S
C1803 C1802 1.365 1_556 S
C1803 C1805 1.436 . S
C1804 C1800 1.350 . S
C1804 C1801 1.463 . S
C1804 N1808 1.427 . S
C1805 H1795 0.929 . S
C1805 C1803 1.436 . S
C1805 N1808 1.384 . S
C1806 H1797 0.929 . S
C1806 C1798 1.378 . S
C1806 C1801 1.350 . S
C1807 H1794 0.929 . S
C1807 C1799 1.433 . S
C1807 N1809 1.384 . S
N1808 C1804 1.427 . S
N1808 C1805 1.384 . S
N1809 C1801 1.427 . S
N1809 C1807 1.384 . S
H1810 C1816 0.930 . S
H1811 C1820 0.930 . S
H1812 C1825 0.929 . S
H1813 C1823 0.929 . S
H1814 C1818 0.929 . S
H1815 C1824 0.929 . S
C1816 H1810 0.930 . S
C1816 C1817 1.367 . S
C1816 C1824 1.378 1_455 S
C1817 C1816 1.367 . S
C1817 C1825 1.433 1_455 S
C1818 H1814 0.929 . S
C1818 C1820 1.378 . S
C1818 C1822 1.350 . S
C1819 C1822 1.463 . S
C1819 C1824 1.350 . S
C1819 N1827 1.427 . S
C1820 H1811 0.930 . S
C1820 C1818 1.378 . S
C1820 C1821 1.367 . S
C1821 C1820 1.367 . S
C1821 C1823 1.433 . S
C1822 C1818 1.350 . S
C1822 C1819 1.463 . S
C1822 N1826 1.427 . S
C1823 H1813 0.929 . S
C1823 C1821 1.433 . S
C1823 N1826 1.384 . S
C1824 H1815 0.929 . S
C1824 C1816 1.378 1_655 S
C1824 C1819 1.350 . S
C1825 H1812 0.929 . S
C1825 C1817 1.433 1_655 S
C1825 N1827 1.384 . S
N1826 C1822 1.427 . S
N1826 C1823 1.384 . S
N1827 C1819 1.427 . S
N1827 C1825 1.384 . S
H1828 C1834 0.930 . S
H1829 C1838 0.930 . S
H1830 C1843 0.929 . S
H1831 C1841 0.929 . S
H1832 C1836 0.929 . S
H1833 C1842 0.929 . S
C1834 H1828 0.930 . S
C1834 C1835 1.367 . S
C1834 C1842 1.378 . S
C1835 C1834 1.367 . S
C1835 C1843 1.433 . S
C1836 H1832 0.929 . S
C1836 C1838 1.378 . S
C1836 C1840 1.350 . S
C1837 C1840 1.463 . S
C1837 C1842 1.350 . S
C1837 N1845 1.427 . S
C1838 H1829 0.930 . S
C1838 C1836 1.378 . S
C1838 C1839 1.367 . S
C1839 C1838 1.367 . S
C1839 C1841 1.433 . S
C1840 C1836 1.350 . S
C1840 C1837 1.463 . S
C1840 N1844 1.427 . S
C1841 H1831 0.929 . S
C1841 C1839 1.433 . S
C1841 N1844 1.384 . S
C1842 H1833 0.929 . S
C1842 C1834 1.378 . S
C1842 C1837 1.350 . S
C1843 H1830 0.929 . S
C1843 C1835 1.433 . S
C1843 N1845 1.384 . S
N1844 C1840 1.427 . S
N1844 C1841 1.384 . S
N1845 C1837 1.427 . S
N1845 C1843 1.384 . S
H1846 C1852 0.930 . S
H1847 C1856 0.930 . S
H1848 C1861 0.929 . S
H1849 C1859 0.929 . S
H1850 C1854 0.929 . S
H1851 C1860 0.929 . S
C1852 H1846 0.930 . S
C1852 C1853 1.367 . S
C1852 C1860 1.378 . S
C1853 C1852 1.367 . S
C1853 C1861 1.433 . S
C1854 H1850 0.929 . S
C1854 C1856 1.378 . S
C1854 C1858 1.350 . S
C1855 C1858 1.463 . S
C1855 C1860 1.350 . S
C1855 N1863 1.427 . S
C1856 H1847 0.930 . S
C1856 C1854 1.378 . S
C1856 C1857 1.367 . S
C1857 C1856 1.367 . S
C1857 C1859 1.433 . S
C1858 C1854 1.350 . S
C1858 C1855 1.463 . S
C1858 N1862 1.427 . S
C1859 H1849 0.929 . S
C1859 C1857 1.433 . S
C1859 N1862 1.384 . S
C1860 H1851 0.929 . S
C1860 C1852 1.378 . S
C1860 C1855 1.350 . S
C1861 H1848 0.929 . S
C1861 C1853 1.433 . S
C1861 N1863 1.384 . S
N1862 C1858 1.427 . S
N1862 C1859 1.384 . S
N1863 C1855 1.427 . S
N1863 C1861 1.384 . S
H1864 C1870 0.930 . S
H1865 C1874 0.930 . S
H1866 C1879 0.929 . S
H1867 C1877 0.929 . S
H1868 C1872 0.929 . S
H1869 C1878 0.929 . S
C1870 H1864 0.930 . S
C1870 C1871 1.367 . S
C1870 C1878 1.378 . S
C1871 C1870 1.367 . S
C1871 C1879 1.433 . S
C1872 H1868 0.929 . S
C1872 C1874 1.378 . S
C1872 C1876 1.350 . S
C1873 C1876 1.463 . S
C1873 C1878 1.350 . S
C1873 N1881 1.427 . S
C1874 H1865 0.930 . S
C1874 C1872 1.378 . S
C1874 C1875 1.367 . S
C1875 C1874 1.367 . S
C1875 C1877 1.433 . S
C1876 C1872 1.350 . S
C1876 C1873 1.463 . S
C1876 N1880 1.427 . S
C1877 H1867 0.929 . S
C1877 C1875 1.433 . S
C1877 N1880 1.384 . S
C1878 H1869 0.929 . S
C1878 C1870 1.378 . S
C1878 C1873 1.350 . S
C1879 H1866 0.929 . S
C1879 C1871 1.433 . S
C1879 N1881 1.384 . S
N1880 C1876 1.427 . S
N1880 C1877 1.384 . S
N1881 C1873 1.427 . S
N1881 C1879 1.384 . S
H1882 C1888 0.930 . S
H1883 C1892 0.930 . S
H1884 C1897 0.925 1_554 S
H1885 C1895 0.929 . S
H1886 C1890 0.929 . S
H1887 C1896 0.929 . S
C1888 H1882 0.930 . S
C1888 C1889 1.367 1_556 S
C1888 C1896 1.378 . S
C1889 C1888 1.367 1_554 S
C1889 C1897 1.433 1_554 S
C1890 H1886 0.929 . S
C1890 C1892 1.378 . S
C1890 C1894 1.350 . S
C1891 C1894 1.463 . S
C1891 C1896 1.350 . S
C1891 N1899 1.427 . S
C1892 H1883 0.930 . S
C1892 C1890 1.378 . S
C1892 C1893 1.367 . S
C1893 C1892 1.367 . S
C1893 C1895 1.433 . S
C1894 C1890 1.350 . S
C1894 C1891 1.463 . S
C1894 N1898 1.427 . S
C1895 H1885 0.929 . S
C1895 C1893 1.433 . S
C1895 N1898 1.384 . S
C1896 H1887 0.929 . S
C1896 C1888 1.378 . S
C1896 C1891 1.350 . S
C1897 H1884 0.925 1_556 S
C1897 C1889 1.433 1_556 S
C1897 N1899 1.388 . S
N1898 C1894 1.427 . S
N1898 C1895 1.384 . S
N1899 C1891 1.427 . S
N1899 C1897 1.388 . S
H1900 C1906 0.930 . S
H1901 C1910 0.930 . S
H1902 C1915 0.929 . S
H1903 C1913 0.929 . S
H1904 C1908 0.929 . S
H1905 C1914 0.929 . S
C1906 H1900 0.930 . S
C1906 C1907 1.367 . S
C1906 C1914 1.378 . S
C1907 C1906 1.367 . S
C1907 C1915 1.433 . S
C1908 H1904 0.929 . S
C1908 C1910 1.378 . S
C1908 C1912 1.350 . S
C1909 C1912 1.463 . S
C1909 C1914 1.350 . S
C1909 N1917 1.427 . S
C1910 H1901 0.930 . S
C1910 C1908 1.378 . S
C1910 C1911 1.367 1_655 S
C1911 C1910 1.367 1_455 S
C1911 C1913 1.433 . S
C1912 C1908 1.350 . S
C1912 C1909 1.463 . S
C1912 N1916 1.427 . S
C1913 H1903 0.929 . S
C1913 C1911 1.433 . S
C1913 N1916 1.384 1_455 S
C1914 H1905 0.929 . S
C1914 C1906 1.378 . S
C1914 C1909 1.350 . S
C1915 H1902 0.929 . S
C1915 C1907 1.433 . S
C1915 N1917 1.384 . S
N1916 C1912 1.427 . S
N1916 C1913 1.384 1_655 S
N1917 C1909 1.427 . S
N1917 C1915 1.384 . S
H1918 C1924 0.930 . S
H1919 C1928 0.930 . S
H1920 C1933 0.929 . S
H1921 C1931 0.929 . S
H1922 C1926 0.929 . S
H1923 C1932 0.929 . S
C1924 H1918 0.930 . S
C1924 C1925 1.367 . S
C1924 C1932 1.378 . S
C1925 C1924 1.367 . S
C1925 C1933 1.433 . S
C1926 H1922 0.929 . S
C1926 C1928 1.378 . S
C1926 C1930 1.350 . S
C1927 C1930 1.463 . S
C1927 C1932 1.350 . S
C1927 N1935 1.427 . S
C1928 H1919 0.930 . S
C1928 C1926 1.378 . S
C1928 C1929 1.367 . S
C1929 C1928 1.367 . S
C1929 C1931 1.433 . S
C1930 C1926 1.350 . S
C1930 C1927 1.463 . S
C1930 N1934 1.427 . S
C1931 H1921 0.929 . S
C1931 C1929 1.433 . S
C1931 N1934 1.384 . S
C1932 H1923 0.929 . S
C1932 C1924 1.378 . S
C1932 C1927 1.350 . S
C1933 H1920 0.929 . S
C1933 C1925 1.433 . S
C1933 N1935 1.384 . S
N1934 C1930 1.427 . S
N1934 C1931 1.384 . S
N1935 C1927 1.427 . S
N1935 C1933 1.384 . S
H1936 C1942 0.930 . S
H1937 C1946 0.930 . S
H1938 C1951 0.929 . S
H1939 C1949 0.929 . S
H1940 C1944 0.929 . S
H1941 C1950 0.929 . S
C1942 H1936 0.930 . S
C1942 C1943 1.367 . S
C1942 C1950 1.378 . S
C1943 C1942 1.367 . S
C1943 C1951 1.433 . S
C1944 H1940 0.929 . S
C1944 C1946 1.378 . S
C1944 C1948 1.350 . S
C1945 C1948 1.463 . S
C1945 C1950 1.350 . S
C1945 N1953 1.427 . S
C1946 H1937 0.930 . S
C1946 C1944 1.378 . S
C1946 C1947 1.367 . S
C1947 C1946 1.367 . S
C1947 C1949 1.433 . S
C1948 C1944 1.350 . S
C1948 C1945 1.463 . S
C1948 N1952 1.427 . S
C1949 H1939 0.929 . S
C1949 C1947 1.433 . S
C1949 N1952 1.384 . S
C1950 H1941 0.929 . S
C1950 C1942 1.378 . S
C1950 C1945 1.350 . S
C1951 H1938 0.929 . S
C1951 C1943 1.433 . S
C1951 N1953 1.384 . S
N1952 C1948 1.427 . S
N1952 C1949 1.384 . S
N1953 C1945 1.427 . S
N1953 C1951 1.384 . S
H1954 C1960 0.930 . S
H1955 C1964 0.930 . S
H1956 C1969 0.929 . S
H1957 C1967 0.929 . S
H1958 C1962 0.929 . S
H1959 C1968 0.929 . S
C1960 H1954 0.930 . S
C1960 C1961 1.367 . S
C1960 C1968 1.378 . S
C1961 C1960 1.367 . S
C1961 C1969 1.433 . S
C1962 H1958 0.929 . S
C1962 C1964 1.378 . S
C1962 C1966 1.350 . S
C1963 C1966 1.463 . S
C1963 C1968 1.350 . S
C1963 N1971 1.427 . S
C1964 H1955 0.930 . S
C1964 C1962 1.378 . S
C1964 C1965 1.367 . S
C1965 C1964 1.367 . S
C1965 C1967 1.433 . S
C1966 C1962 1.350 . S
C1966 C1963 1.463 . S
C1966 N1970 1.427 . S
C1967 H1957 0.929 . S
C1967 C1965 1.433 . S
C1967 N1970 1.384 . S
C1968 H1959 0.929 . S
C1968 C1960 1.378 . S
C1968 C1963 1.350 . S
C1969 H1956 0.929 . S
C1969 C1961 1.433 . S
C1969 N1971 1.384 . S
N1970 C1966 1.427 . S
N1970 C1967 1.384 . S
N1971 C1963 1.427 . S
N1971 C1969 1.384 . S
H1972 C1978 0.930 . S
H1973 C1982 0.930 . S
H1974 C1987 0.929 . S
H1975 C1985 0.929 1_455 S
H1976 C1980 0.929 . S
H1977 C1986 0.929 . S
C1978 H1972 0.930 . S
C1978 C1979 1.367 . S
C1978 C1986 1.378 . S
C1979 C1978 1.367 . S
C1979 C1987 1.433 . S
C1980 H1976 0.929 . S
C1980 C1982 1.378 . S
C1980 C1984 1.350 . S
C1981 C1984 1.463 . S
C1981 C1986 1.350 . S
C1981 N1989 1.427 . S
C1982 H1973 0.930 . S
C1982 C1980 1.378 . S
C1982 C1983 1.367 . S
C1983 C1982 1.367 . S
C1983 C1985 1.433 . S
C1984 C1980 1.350 . S
C1984 C1981 1.463 . S
C1984 N1988 1.427 . S
C1985 H1975 0.929 1_655 S
C1985 C1983 1.433 . S
C1985 N1988 1.384 . S
C1986 H1977 0.929 . S
C1986 C1978 1.378 . S
C1986 C1981 1.350 . S
C1987 H1974 0.929 . S
C1987 C1979 1.433 . S
C1987 N1989 1.384 . S
N1988 C1984 1.427 . S
N1988 C1985 1.384 . S
N1989 C1981 1.427 . S
N1989 C1987 1.384 . S
H1990 C1996 0.930 . S
H1991 C2000 0.930 . S
H1992 C2005 0.929 . S
H1993 C2003 0.929 . S
H1994 C1998 0.929 . S
H1995 C2004 0.929 . S
C1996 H1990 0.930 . S
C1996 C1997 1.367 . S
C1996 C2004 1.378 . S
C1997 C1996 1.367 . S
C1997 C2005 1.433 . S
C1998 H1994 0.929 . S
C1998 C2000 1.378 . S
C1998 C2002 1.350 . S
C1999 C2002 1.463 . S
C1999 C2004 1.350 . S
C1999 N2007 1.427 . S
C2000 H1991 0.930 . S
C2000 C1998 1.378 . S
C2000 C2001 1.367 . S
C2001 C2000 1.367 . S
C2001 C2003 1.433 . S
C2002 C1998 1.350 . S
C2002 C1999 1.463 . S
C2002 N2006 1.427 . S
C2003 H1993 0.929 . S
C2003 C2001 1.433 . S
C2003 N2006 1.384 . S
C2004 H1995 0.929 . S
C2004 C1996 1.378 . S
C2004 C1999 1.350 . S
C2005 H1992 0.929 . S
C2005 C1997 1.433 . S
C2005 N2007 1.384 . S
N2006 C2002 1.427 . S
N2006 C2003 1.384 . S
N2007 C1999 1.427 . S
N2007 C2005 1.384 . S
H2008 C2014 0.930 . S
H2009 C2018 0.930 . S
H2010 C2023 0.929 . S
H2011 C2021 0.929 . S
H2012 C2016 0.929 . S
H2013 C2022 0.929 . S
C2014 H2008 0.930 . S
C2014 C2015 1.367 . S
C2014 C2022 1.378 . S
C2015 C2014 1.367 . S
C2015 C2023 1.433 . S
C2016 H2012 0.929 . S
C2016 C2018 1.378 . S
C2016 C2020 1.350 . S
C2017 C2020 1.463 . S
C2017 C2022 1.350 . S
C2017 N2025 1.427 . S
C2018 H2009 0.930 . S
C2018 C2016 1.378 . S
C2018 C2019 1.367 . S
C2019 C2018 1.367 . S
C2019 C2021 1.433 . S
C2020 C2016 1.350 . S
C2020 C2017 1.463 . S
C2020 N2024 1.427 . S
C2021 H2011 0.929 . S
C2021 C2019 1.433 . S
C2021 N2024 1.384 . S
C2022 H2013 0.929 . S
C2022 C2014 1.378 . S
C2022 C2017 1.350 . S
C2023 H2010 0.929 . S
C2023 C2015 1.433 . S
C2023 N2025 1.384 . S
N2024 C2020 1.427 . S
N2024 C2021 1.384 . S
N2025 C2017 1.427 . S
N2025 C2023 1.384 . S
H2026 C2032 0.930 . S
H2027 C2036 0.930 1_545 S
H2028 C2041 0.929 . S
H2029 C2039 0.929 . S
H2030 C2034 0.929 . S
H2031 C2040 0.929 . S
C2032 H2026 0.930 . S
C2032 C2033 1.367 . S
C2032 C2040 1.378 . S
C2033 C2032 1.367 . S
C2033 C2041 1.433 . S
C2034 H2030 0.929 . S
C2034 C2036 1.378 . S
C2034 C2038 1.350 . S
C2035 C2038 1.463 . S
C2035 C2040 1.350 . S
C2035 N2043 1.427 . S
C2036 H2027 0.930 1_565 S
C2036 C2034 1.378 . S
C2036 C2037 1.367 . S
C2037 C2036 1.367 . S
C2037 C2039 1.433 . S
C2038 C2034 1.350 . S
C2038 C2035 1.463 . S
C2038 N2042 1.427 . S
C2039 H2029 0.929 . S
C2039 C2037 1.433 . S
C2039 N2042 1.384 . S
C2040 H2031 0.929 . S
C2040 C2032 1.378 . S
C2040 C2035 1.350 . S
C2041 H2028 0.929 . S
C2041 C2033 1.433 . S
C2041 N2043 1.384 . S
N2042 C2038 1.427 . S
N2042 C2039 1.384 . S
N2043 C2035 1.427 . S
N2043 C2041 1.384 . S
H2044 C2050 0.930 . S
H2045 C2054 0.930 . S
H2046 C2059 0.929 . S
H2047 C2057 0.929 . S
H2048 C2052 0.929 . S
H2049 C2058 0.929 . S
C2050 H2044 0.930 . S
C2050 C2051 1.367 . S
C2050 C2058 1.378 . S
C2051 C2050 1.367 . S
C2051 C2059 1.433 . S
C2052 H2048 0.929 . S
C2052 C2054 1.378 . S
C2052 C2056 1.350 . S
C2053 C2056 1.463 . S
C2053 C2058 1.350 . S
C2053 N2061 1.427 . S
C2054 H2045 0.930 . S
C2054 C2052 1.378 . S
C2054 C2055 1.367 . S
C2055 C2054 1.367 . S
C2055 C2057 1.433 . S
C2056 C2052 1.350 . S
C2056 C2053 1.463 . S
C2056 N2060 1.427 . S
C2057 H2047 0.929 . S
C2057 C2055 1.433 . S
C2057 N2060 1.384 . S
C2058 H2049 0.929 . S
C2058 C2050 1.378 . S
C2058 C2053 1.350 . S
C2059 H2046 0.929 . S
C2059 C2051 1.433 . S
C2059 N2061 1.384 . S
N2060 C2056 1.427 . S
N2060 C2057 1.384 . S
N2061 C2053 1.427 . S
N2061 C2059 1.384 . S
H2062 C2068 0.930 . S
H2063 C2072 0.930 . S
H2064 C2077 0.929 . S
H2065 C2075 0.929 . S
H2066 C2070 0.929 . S
H2067 C2076 0.929 . S
C2068 H2062 0.930 . S
C2068 C2069 1.367 . S
C2068 C2076 1.378 . S
C2069 C2068 1.367 . S
C2069 C2077 1.433 . S
C2070 H2066 0.929 . S
C2070 C2072 1.378 . S
C2070 C2074 1.350 . S
C2071 C2074 1.463 . S
C2071 C2076 1.350 . S
C2071 N2079 1.427 . S
C2072 H2063 0.930 . S
C2072 C2070 1.378 . S
C2072 C2073 1.367 . S
C2073 C2072 1.367 . S
C2073 C2075 1.433 . S
C2074 C2070 1.350 . S
C2074 C2071 1.463 . S
C2074 N2078 1.427 . S
C2075 H2065 0.929 . S
C2075 C2073 1.433 . S
C2075 N2078 1.384 . S
C2076 H2067 0.929 . S
C2076 C2068 1.378 . S
C2076 C2071 1.350 . S
C2077 H2064 0.929 . S
C2077 C2069 1.433 . S
C2077 N2079 1.384 . S
N2078 C2074 1.427 . S
N2078 C2075 1.384 . S
N2079 C2071 1.427 . S
N2079 C2077 1.384 . S
H2080 C2086 0.930 . S
H2081 C2090 0.930 . S
H2082 C2095 0.929 . S
H2083 C2093 0.929 . S
H2084 C2088 0.929 . S
H2085 C2094 0.929 . S
C2086 H2080 0.930 . S
C2086 C2087 1.367 . S
C2086 C2094 1.378 . S
C2087 C2086 1.367 . S
C2087 C2095 1.433 . S
C2088 H2084 0.929 . S
C2088 C2090 1.378 . S
C2088 C2092 1.350 . S
C2089 C2092 1.463 . S
C2089 C2094 1.350 . S
C2089 N2097 1.427 . S
C2090 H2081 0.930 . S
C2090 C2088 1.378 . S
C2090 C2091 1.367 . S
C2091 C2090 1.367 . S
C2091 C2093 1.433 . S
C2092 C2088 1.350 . S
C2092 C2089 1.463 . S
C2092 N2096 1.427 . S
C2093 H2083 0.929 . S
C2093 C2091 1.433 . S
C2093 N2096 1.384 . S
C2094 H2085 0.929 . S
C2094 C2086 1.378 . S
C2094 C2089 1.350 . S
C2095 H2082 0.929 . S
C2095 C2087 1.433 . S
C2095 N2097 1.384 . S
N2096 C2092 1.427 . S
N2096 C2093 1.384 . S
N2097 C2089 1.427 . S
N2097 C2095 1.384 . S
H2098 C2104 0.930 . S
H2099 C2108 0.930 1_556 S
H2100 C2113 0.929 . S
H2101 C2111 0.929 . S
H2102 C2106 0.929 1_556 S
H2103 C2112 0.929 . S
C2104 H2098 0.930 . S
C2104 C2105 1.367 . S
C2104 C2112 1.378 . S
C2105 C2104 1.367 . S
C2105 C2113 1.433 . S
C2106 H2102 0.929 1_554 S
C2106 C2108 1.378 . S
C2106 C2110 1.350 . S
C2107 C2110 1.463 . S
C2107 C2112 1.350 . S
C2107 N2115 1.427 . S
C2108 H2099 0.930 1_554 S
C2108 C2106 1.378 . S
C2108 C2109 1.367 . S
C2109 C2108 1.367 . S
C2109 C2111 1.433 . S
C2110 C2106 1.350 . S
C2110 C2107 1.463 . S
C2110 N2114 1.427 . S
C2111 H2101 0.929 . S
C2111 C2109 1.433 . S
C2111 N2114 1.384 . S
C2112 H2103 0.929 . S
C2112 C2104 1.378 . S
C2112 C2107 1.350 . S
C2113 H2100 0.929 . S
C2113 C2105 1.433 . S
C2113 N2115 1.384 . S
N2114 C2110 1.427 . S
N2114 C2111 1.384 . S
N2115 C2107 1.427 . S
N2115 C2113 1.384 . S
H2116 C2122 0.930 . S
H2117 C2126 0.930 . S
H2118 C2131 0.929 . S
H2119 C2129 0.929 . S
H2120 C2124 0.929 . S
H2121 C2130 0.929 . S
C2122 H2116 0.930 . S
C2122 C2123 1.367 . S
C2122 C2130 1.378 . S
C2123 C2122 1.367 . S
C2123 C2131 1.433 . S
C2124 H2120 0.929 . S
C2124 C2126 1.378 . S
C2124 C2128 1.350 . S
C2125 C2128 1.463 . S
C2125 C2130 1.350 . S
C2125 N2133 1.427 . S
C2126 H2117 0.930 . S
C2126 C2124 1.378 . S
C2126 C2127 1.367 . S
C2127 C2126 1.367 . S
C2127 C2129 1.433 . S
C2128 C2124 1.350 . S
C2128 C2125 1.463 . S
C2128 N2132 1.427 . S
C2129 H2119 0.929 . S
C2129 C2127 1.433 . S
C2129 N2132 1.384 . S
C2130 H2121 0.929 . S
C2130 C2122 1.378 . S
C2130 C2125 1.350 . S
C2131 H2118 0.929 . S
C2131 C2123 1.433 . S
C2131 N2133 1.384 . S
N2132 C2128 1.427 . S
N2132 C2129 1.384 . S
N2133 C2125 1.427 . S
N2133 C2131 1.384 . S
H2134 C2140 0.930 . S
H2135 C2144 0.930 . S
H2136 C2149 0.929 . S
H2137 C2147 0.929 . S
H2138 C2142 0.929 . S
H2139 C2148 0.929 . S
C2140 H2134 0.930 . S
C2140 C2141 1.367 . S
C2140 C2148 1.378 . S
C2141 C2140 1.367 . S
C2141 C2149 1.433 . S
C2142 H2138 0.929 . S
C2142 C2144 1.378 . S
C2142 C2146 1.350 . S
C2143 C2146 1.463 . S
C2143 C2148 1.350 . S
C2143 N2151 1.427 . S
C2144 H2135 0.930 . S
C2144 C2142 1.378 . S
C2144 C2145 1.367 . S
C2145 C2144 1.367 . S
C2145 C2147 1.433 . S
C2146 C2142 1.350 . S
C2146 C2143 1.463 . S
C2146 N2150 1.427 . S
C2147 H2137 0.929 . S
C2147 C2145 1.433 . S
C2147 N2150 1.384 . S
C2148 H2139 0.929 . S
C2148 C2140 1.378 . S
C2148 C2143 1.350 . S
C2149 H2136 0.929 . S
C2149 C2141 1.433 . S
C2149 N2151 1.384 . S
N2150 C2146 1.427 . S
N2150 C2147 1.384 . S
N2151 C2143 1.427 . S
N2151 C2149 1.384 . S
H2152 C2158 0.930 . S
H2153 C2162 0.930 . S
H2154 C2167 0.929 . S
H2155 C2165 0.929 . S
H2156 C2160 0.929 . S
H2157 C2166 0.929 . S
C2158 H2152 0.930 . S
C2158 C2159 1.367 . S
C2158 C2166 1.378 . S
C2159 C2158 1.367 . S
C2159 C2167 1.433 . S
C2160 H2156 0.929 . S
C2160 C2162 1.378 . S
C2160 C2164 1.350 . S
C2161 C2164 1.463 . S
C2161 C2166 1.350 . S
C2161 N2169 1.427 . S
C2162 H2153 0.930 . S
C2162 C2160 1.378 . S
C2162 C2163 1.367 . S
C2163 C2162 1.367 . S
C2163 C2165 1.433 . S
C2164 C2160 1.350 . S
C2164 C2161 1.463 . S
C2164 N2168 1.427 . S
C2165 H2155 0.929 . S
C2165 C2163 1.433 . S
C2165 N2168 1.384 . S
C2166 H2157 0.929 . S
C2166 C2158 1.378 . S
C2166 C2161 1.350 . S
C2167 H2154 0.929 . S
C2167 C2159 1.433 . S
C2167 N2169 1.384 . S
N2168 C2164 1.427 . S
N2168 C2165 1.384 . S
N2169 C2161 1.427 . S
N2169 C2167 1.384 . S
H2170 C2176 0.930 . S
H2171 C2180 0.930 . S
H2172 C2185 0.929 . S
H2173 C2183 0.929 . S
H2174 C2178 0.929 . S
H2175 C2184 0.929 . S
C2176 H2170 0.930 . S
C2176 C2177 1.367 . S
C2176 C2184 1.378 . S
C2177 C2176 1.367 . S
C2177 C2185 1.433 . S
C2178 H2174 0.929 . S
C2178 C2180 1.378 . S
C2178 C2182 1.350 . S
C2179 C2182 1.463 . S
C2179 C2184 1.350 . S
C2179 N2187 1.427 . S
C2180 H2171 0.930 . S
C2180 C2178 1.378 . S
C2180 C2181 1.367 . S
C2181 C2180 1.367 . S
C2181 C2183 1.433 . S
C2182 C2178 1.350 . S
C2182 C2179 1.463 . S
C2182 N2186 1.427 . S
C2183 H2173 0.929 . S
C2183 C2181 1.433 . S
C2183 N2186 1.384 . S
C2184 H2175 0.929 . S
C2184 C2176 1.378 . S
C2184 C2179 1.350 . S
C2185 H2172 0.929 . S
C2185 C2177 1.433 . S
C2185 N2187 1.384 . S
N2186 C2182 1.427 . S
N2186 C2183 1.384 . S
N2187 C2179 1.427 . S
N2187 C2185 1.384 . S
H2188 C2194 0.930 . S
H2189 C2198 0.930 . S
H2190 C2203 0.929 . S
H2191 C2201 0.929 1_554 S
H2192 C2196 0.929 . S
H2193 C2202 0.929 . S
C2194 H2188 0.930 . S
C2194 C2195 1.367 . S
C2194 C2202 1.378 . S
C2195 C2194 1.367 . S
C2195 C2203 1.433 1_655 S
C2196 H2192 0.929 . S
C2196 C2198 1.378 . S
C2196 C2200 1.350 1_455 S
C2197 C2200 1.463 . S
C2197 C2202 1.350 . S
C2197 N2205 1.427 1_655 S
C2198 H2189 0.930 . S
C2198 C2196 1.378 . S
C2198 C2199 1.367 1_455 S
C2199 C2198 1.367 1_655 S
C2199 C2201 1.433 . S
C2200 C2196 1.350 1_655 S
C2200 C2197 1.463 . S
C2200 N2204 1.427 . S
C2201 H2191 0.929 1_556 S
C2201 C2199 1.433 . S
C2201 N2204 1.384 . S
C2202 H2193 0.929 . S
C2202 C2194 1.378 . S
C2202 C2197 1.350 . S
C2203 H2190 0.929 . S
C2203 C2195 1.433 1_455 S
C2203 N2205 1.384 . S
N2204 C2200 1.427 . S
N2204 C2201 1.384 . S
N2205 C2197 1.427 1_455 S
N2205 C2203 1.384 . S
H2206 C2212 0.930 . S
H2207 C2216 0.930 . S
H2208 C2221 0.929 . S
H2209 C2219 0.929 . S
H2210 C2214 0.929 . S
H2211 C2220 0.929 . S
C2212 H2206 0.930 . S
C2212 C2213 1.367 . S
C2212 C2220 1.378 . S
C2213 C2212 1.367 . S
C2213 C2221 1.433 . S
C2214 H2210 0.929 . S
C2214 C2216 1.378 . S
C2214 C2218 1.350 . S
C2215 C2218 1.463 . S
C2215 C2220 1.350 . S
C2215 N2223 1.427 . S
C2216 H2207 0.930 . S
C2216 C2214 1.378 . S
C2216 C2217 1.367 . S
C2217 C2216 1.367 . S
C2217 C2219 1.433 . S
C2218 C2214 1.350 . S
C2218 C2215 1.463 . S
C2218 N2222 1.427 . S
C2219 H2209 0.929 . S
C2219 C2217 1.433 . S
C2219 N2222 1.384 . S
C2220 H2211 0.929 . S
C2220 C2212 1.378 . S
C2220 C2215 1.350 . S
C2221 H2208 0.929 . S
C2221 C2213 1.433 . S
C2221 N2223 1.384 . S
N2222 C2218 1.427 . S
N2222 C2219 1.384 . S
N2223 C2215 1.427 . S
N2223 C2221 1.384 . S
H2224 C2230 0.930 . S
H2225 C2234 0.930 . S
H2226 C2239 0.929 . S
H2227 C2237 0.929 . S
H2228 C2232 0.929 . S
H2229 C2238 0.929 . S
C2230 H2224 0.930 . S
C2230 C2231 1.367 . S
C2230 C2238 1.378 . S
C2231 C2230 1.367 . S
C2231 C2239 1.433 . S
C2232 H2228 0.929 . S
C2232 C2234 1.378 . S
C2232 C2236 1.350 . S
C2233 C2236 1.463 . S
C2233 C2238 1.350 . S
C2233 N2241 1.427 . S
C2234 H2225 0.930 . S
C2234 C2232 1.378 . S
C2234 C2235 1.367 . S
C2235 C2234 1.367 . S
C2235 C2237 1.433 . S
C2236 C2232 1.350 . S
C2236 C2233 1.463 . S
C2236 N2240 1.427 . S
C2237 H2227 0.929 . S
C2237 C2235 1.433 . S
C2237 N2240 1.384 . S
C2238 H2229 0.929 . S
C2238 C2230 1.378 . S
C2238 C2233 1.350 . S
C2239 H2226 0.929 . S
C2239 C2231 1.433 . S
C2239 N2241 1.384 . S
N2240 C2236 1.427 . S
N2240 C2237 1.384 . S
N2241 C2233 1.427 . S
N2241 C2239 1.384 . S
H2242 C2248 0.930 . S
H2243 C2252 0.930 . S
H2244 C2257 0.929 . S
H2245 C2255 0.929 . S
H2246 C2250 0.929 . S
H2247 C2256 0.929 . S
C2248 H2242 0.930 . S
C2248 C2249 1.367 . S
C2248 C2256 1.378 . S
C2249 C2248 1.367 . S
C2249 C2257 1.433 . S
C2250 H2246 0.929 . S
C2250 C2252 1.378 . S
C2250 C2254 1.350 . S
C2251 C2254 1.463 . S
C2251 C2256 1.350 . S
C2251 N2259 1.427 . S
C2252 H2243 0.930 . S
C2252 C2250 1.378 . S
C2252 C2253 1.367 . S
C2253 C2252 1.367 . S
C2253 C2255 1.433 . S
C2254 C2250 1.350 . S
C2254 C2251 1.463 . S
C2254 N2258 1.427 . S
C2255 H2245 0.929 . S
C2255 C2253 1.433 . S
C2255 N2258 1.384 . S
C2256 H2247 0.929 . S
C2256 C2248 1.378 . S
C2256 C2251 1.350 . S
C2257 H2244 0.929 . S
C2257 C2249 1.433 . S
C2257 N2259 1.384 . S
N2258 C2254 1.427 . S
N2258 C2255 1.384 . S
N2259 C2251 1.427 . S
N2259 C2257 1.384 . S
H2260 C2266 0.930 . S
H2261 C2270 0.930 . S
H2262 C2275 0.929 . S
H2263 C2273 0.929 . S
H2264 C2268 0.929 . S
H2265 C2274 0.929 . S
C2266 H2260 0.930 . S
C2266 C2267 1.367 . S
C2266 C2274 1.378 . S
C2267 C2266 1.367 . S
C2267 C2275 1.433 . S
C2268 H2264 0.929 . S
C2268 C2270 1.378 . S
C2268 C2272 1.350 . S
C2269 C2272 1.463 . S
C2269 C2274 1.350 . S
C2269 N2277 1.427 . S
C2270 H2261 0.930 . S
C2270 C2268 1.378 . S
C2270 C2271 1.367 . S
C2271 C2270 1.367 . S
C2271 C2273 1.433 . S
C2272 C2268 1.350 . S
C2272 C2269 1.463 . S
C2272 N2276 1.427 . S
C2273 H2263 0.929 . S
C2273 C2271 1.433 . S
C2273 N2276 1.384 . S
C2274 H2265 0.929 . S
C2274 C2266 1.378 . S
C2274 C2269 1.350 . S
C2275 H2262 0.929 . S
C2275 C2267 1.433 . S
C2275 N2277 1.384 . S
N2276 C2272 1.427 . S
N2276 C2273 1.384 . S
N2277 C2269 1.427 . S
N2277 C2275 1.384 . S
H2278 C2284 0.930 . S
H2279 C2288 0.930 . S
H2280 C2293 0.929 . S
H2281 C2291 0.929 . S
H2282 C2286 0.929 . S
H2283 C2292 0.929 . S
C2284 H2278 0.930 . S
C2284 C2285 1.367 . S
C2284 C2292 1.378 . S
C2285 C2284 1.367 . S
C2285 C2293 1.433 . S
C2286 H2282 0.929 . S
C2286 C2288 1.378 . S
C2286 C2290 1.350 . S
C2287 C2290 1.463 . S
C2287 C2292 1.350 . S
C2287 N2295 1.427 . S
C2288 H2279 0.930 . S
C2288 C2286 1.378 . S
C2288 C2289 1.367 . S
C2289 C2288 1.367 . S
C2289 C2291 1.433 . S
C2290 C2286 1.350 . S
C2290 C2287 1.463 . S
C2290 N2294 1.427 . S
C2291 H2281 0.929 . S
C2291 C2289 1.433 . S
C2291 N2294 1.384 . S
C2292 H2283 0.929 . S
C2292 C2284 1.378 . S
C2292 C2287 1.350 . S
C2293 H2280 0.929 . S
C2293 C2285 1.433 . S
C2293 N2295 1.384 . S
N2294 C2290 1.427 . S
N2294 C2291 1.384 . S
N2295 C2287 1.427 . S
N2295 C2293 1.384 . S
H2296 C2302 0.930 . S
H2297 C2306 0.930 . S
H2298 C2311 0.929 . S
H2299 C2309 0.929 . S
H2300 C2304 0.929 . S
H2301 C2310 0.929 . S
C2302 H2296 0.930 . S
C2302 C2303 1.367 . S
C2302 C2310 1.378 . S
C2303 C2302 1.367 . S
C2303 C2311 1.433 . S
C2304 H2300 0.929 . S
C2304 C2306 1.378 . S
C2304 C2308 1.350 . S
C2305 C2308 1.463 . S
C2305 C2310 1.350 . S
C2305 N2313 1.427 . S
C2306 H2297 0.930 . S
C2306 C2304 1.378 . S
C2306 C2307 1.367 . S
C2307 C2306 1.367 . S
C2307 C2309 1.433 . S
C2308 C2304 1.350 . S
C2308 C2305 1.463 . S
C2308 N2312 1.427 . S
C2309 H2299 0.929 . S
C2309 C2307 1.433 . S
C2309 N2312 1.384 . S
C2310 H2301 0.929 . S
C2310 C2302 1.378 . S
C2310 C2305 1.350 . S
C2311 H2298 0.929 . S
C2311 C2303 1.433 . S
C2311 N2313 1.384 . S
N2312 C2308 1.427 . S
N2312 C2309 1.384 . S
N2313 C2305 1.427 . S
N2313 C2311 1.384 . S
H2314 C2320 0.930 . S
H2315 C2324 0.930 . S
H2316 C2329 0.929 . S
H2317 C2327 0.929 . S
H2318 C2322 0.929 . S
H2319 C2328 0.929 . S
C2320 H2314 0.930 . S
C2320 C2321 1.367 . S
C2320 C2328 1.378 . S
C2321 C2320 1.367 . S
C2321 C2329 1.433 . S
C2322 H2318 0.929 . S
C2322 C2324 1.378 . S
C2322 C2326 1.350 . S
C2323 C2326 1.463 . S
C2323 C2328 1.350 . S
C2323 N2331 1.427 . S
C2324 H2315 0.930 . S
C2324 C2322 1.378 . S
C2324 C2325 1.367 . S
C2325 C2324 1.367 . S
C2325 C2327 1.433 . S
C2326 C2322 1.350 . S
C2326 C2323 1.463 . S
C2326 N2330 1.427 . S
C2327 H2317 0.929 . S
C2327 C2325 1.433 . S
C2327 N2330 1.384 . S
C2328 H2319 0.929 . S
C2328 C2320 1.378 . S
C2328 C2323 1.350 . S
C2329 H2316 0.929 . S
C2329 C2321 1.433 . S
C2329 N2331 1.384 . S
N2330 C2326 1.427 . S
N2330 C2327 1.384 . S
N2331 C2323 1.427 . S
N2331 C2329 1.384 . S
H2332 C2338 0.930 . S
H2333 C2342 0.930 . S
H2334 C2347 0.929 . S
H2335 C2345 0.929 . S
H2336 C2340 0.929 . S
H2337 C2346 0.929 . S
C2338 H2332 0.930 . S
C2338 C2339 1.367 . S
C2338 C2346 1.378 . S
C2339 C2338 1.367 . S
C2339 C2347 1.433 . S
C2340 H2336 0.929 . S
C2340 C2342 1.378 . S
C2340 C2344 1.350 . S
C2341 C2344 1.463 . S
C2341 C2346 1.350 . S
C2341 N2349 1.427 . S
C2342 H2333 0.930 . S
C2342 C2340 1.378 . S
C2342 C2343 1.367 . S
C2343 C2342 1.367 . S
C2343 C2345 1.433 . S
C2344 C2340 1.350 . S
C2344 C2341 1.463 . S
C2344 N2348 1.427 . S
C2345 H2335 0.929 . S
C2345 C2343 1.433 . S
C2345 N2348 1.384 . S
C2346 H2337 0.929 . S
C2346 C2338 1.378 . S
C2346 C2341 1.350 . S
C2347 H2334 0.929 . S
C2347 C2339 1.433 . S
C2347 N2349 1.384 . S
N2348 C2344 1.427 . S
N2348 C2345 1.384 . S
N2349 C2341 1.427 . S
N2349 C2347 1.384 . S
H2350 C2356 0.930 . S
H2351 C2360 0.930 . S
H2352 C2365 0.929 . S
H2353 C2363 0.929 . S
H2354 C2358 0.929 . S
H2355 C2364 0.929 . S
C2356 H2350 0.930 . S
C2356 C2357 1.367 . S
C2356 C2364 1.378 . S
C2357 C2356 1.367 . S
C2357 C2365 1.433 . S
C2358 H2354 0.929 . S
C2358 C2360 1.378 . S
C2358 C2362 1.350 . S
C2359 C2362 1.463 . S
C2359 C2364 1.350 . S
C2359 N2367 1.427 . S
C2360 H2351 0.930 . S
C2360 C2358 1.378 . S
C2360 C2361 1.367 . S
C2361 C2360 1.367 . S
C2361 C2363 1.433 . S
C2362 C2358 1.350 . S
C2362 C2359 1.463 . S
C2362 N2366 1.427 . S
C2363 H2353 0.929 . S
C2363 C2361 1.433 . S
C2363 N2366 1.384 . S
C2364 H2355 0.929 . S
C2364 C2356 1.378 . S
C2364 C2359 1.350 . S
C2365 H2352 0.929 . S
C2365 C2357 1.433 . S
C2365 N2367 1.384 . S
N2366 C2362 1.427 . S
N2366 C2363 1.384 . S
N2367 C2359 1.427 . S
N2367 C2365 1.384 . S
H2368 C2374 0.930 . S
H2369 C2378 0.930 . S
H2370 C2383 0.929 . S
H2371 C2381 0.929 . S
H2372 C2376 0.929 . S
H2373 C2382 0.929 . S
C2374 H2368 0.930 . S
C2374 C2375 1.367 . S
C2374 C2382 1.378 . S
C2375 C2374 1.367 . S
C2375 C2383 1.433 . S
C2376 H2372 0.929 . S
C2376 C2378 1.378 . S
C2376 C2380 1.350 . S
C2377 C2380 1.463 . S
C2377 C2382 1.350 . S
C2377 N2385 1.427 . S
C2378 H2369 0.930 . S
C2378 C2376 1.378 . S
C2378 C2379 1.367 . S
C2379 C2378 1.367 . S
C2379 C2381 1.433 . S
C2380 C2376 1.350 . S
C2380 C2377 1.463 . S
C2380 N2384 1.427 . S
C2381 H2371 0.929 . S
C2381 C2379 1.433 . S
C2381 N2384 1.384 . S
C2382 H2373 0.929 . S
C2382 C2374 1.378 . S
C2382 C2377 1.350 . S
C2383 H2370 0.929 . S
C2383 C2375 1.433 . S
C2383 N2385 1.384 . S
N2384 C2380 1.427 . S
N2384 C2381 1.384 . S
N2385 C2377 1.427 . S
N2385 C2383 1.384 . S
H2386 C2392 0.930 . S
H2387 C2396 0.930 . S
H2388 C2401 0.929 . S
H2389 C2399 0.929 . S
H2390 C2394 0.929 . S
H2391 C2400 0.929 . S
C2392 H2386 0.930 . S
C2392 C2393 1.367 . S
C2392 C2400 1.378 . S
C2393 C2392 1.367 . S
C2393 C2401 1.433 . S
C2394 H2390 0.929 . S
C2394 C2396 1.378 . S
C2394 C2398 1.350 . S
C2395 C2398 1.463 . S
C2395 C2400 1.350 . S
C2395 N2403 1.427 . S
C2396 H2387 0.930 . S
C2396 C2394 1.378 . S
C2396 C2397 1.367 . S
C2397 C2396 1.367 . S
C2397 C2399 1.433 . S
C2398 C2394 1.350 . S
C2398 C2395 1.463 . S
C2398 N2402 1.427 . S
C2399 H2389 0.929 . S
C2399 C2397 1.433 . S
C2399 N2402 1.384 . S
C2400 H2391 0.929 . S
C2400 C2392 1.378 . S
C2400 C2395 1.350 . S
C2401 H2388 0.929 . S
C2401 C2393 1.433 . S
C2401 N2403 1.384 . S
N2402 C2398 1.427 . S
N2402 C2399 1.384 . S
N2403 C2395 1.427 . S
N2403 C2401 1.384 . S
H2404 C2410 0.930 . S
H2405 C2414 0.930 . S
H2406 C2419 0.929 . S
H2407 C2417 0.929 . S
H2408 C2412 0.929 . S
H2409 C2418 0.929 . S
C2410 H2404 0.930 . S
C2410 C2411 1.367 . S
C2410 C2418 1.378 . S
C2411 C2410 1.367 . S
C2411 C2419 1.433 . S
C2412 H2408 0.929 . S
C2412 C2414 1.378 . S
C2412 C2416 1.350 . S
C2413 C2416 1.463 . S
C2413 C2418 1.350 . S
C2413 N2421 1.427 . S
C2414 H2405 0.930 . S
C2414 C2412 1.378 . S
C2414 C2415 1.367 . S
C2415 C2414 1.367 . S
C2415 C2417 1.433 . S
C2416 C2412 1.350 . S
C2416 C2413 1.463 . S
C2416 N2420 1.427 . S
C2417 H2407 0.929 . S
C2417 C2415 1.433 . S
C2417 N2420 1.384 . S
C2418 H2409 0.929 . S
C2418 C2410 1.378 . S
C2418 C2413 1.350 . S
C2419 H2406 0.929 . S
C2419 C2411 1.433 . S
C2419 N2421 1.384 . S
N2420 C2416 1.427 . S
N2420 C2417 1.384 . S
N2421 C2413 1.427 . S
N2421 C2419 1.384 . S
H2422 C2428 0.930 . S
H2423 C2432 0.930 . S
H2424 C2437 0.929 . S
H2425 C2435 0.929 . S
H2426 C2430 0.929 . S
H2427 C2436 0.929 . S
C2428 H2422 0.930 . S
C2428 C2429 1.367 . S
C2428 C2436 1.378 . S
C2429 C2428 1.367 . S
C2429 C2437 1.433 . S
C2430 H2426 0.929 . S
C2430 C2432 1.378 . S
C2430 C2434 1.350 . S
C2431 C2434 1.463 . S
C2431 C2436 1.350 . S
C2431 N2439 1.427 . S
C2432 H2423 0.930 . S
C2432 C2430 1.378 . S
C2432 C2433 1.367 . S
C2433 C2432 1.367 . S
C2433 C2435 1.433 . S
C2434 C2430 1.350 . S
C2434 C2431 1.463 . S
C2434 N2438 1.427 . S
C2435 H2425 0.929 . S
C2435 C2433 1.433 . S
C2435 N2438 1.384 . S
C2436 H2427 0.929 . S
C2436 C2428 1.378 . S
C2436 C2431 1.350 . S
C2437 H2424 0.929 . S
C2437 C2429 1.433 . S
C2437 N2439 1.384 . S
N2438 C2434 1.427 . S
N2438 C2435 1.384 . S
N2439 C2431 1.427 . S
N2439 C2437 1.384 . S
H2440 C2446 0.930 . S
H2441 C2450 0.930 . S
H2442 C2455 0.929 . S
H2443 C2453 0.929 . S
H2444 C2448 0.929 . S
H2445 C2454 0.929 . S
C2446 H2440 0.930 . S
C2446 C2447 1.367 . S
C2446 C2454 1.378 . S
C2447 C2446 1.367 . S
C2447 C2455 1.433 . S
C2448 H2444 0.929 . S
C2448 C2450 1.378 . S
C2448 C2452 1.350 . S
C2449 C2452 1.463 . S
C2449 C2454 1.350 . S
C2449 N2457 1.427 . S
C2450 H2441 0.930 . S
C2450 C2448 1.378 . S
C2450 C2451 1.367 . S
C2451 C2450 1.367 . S
C2451 C2453 1.433 . S
C2452 C2448 1.350 . S
C2452 C2449 1.463 . S
C2452 N2456 1.427 . S
C2453 H2443 0.929 . S
C2453 C2451 1.433 . S
C2453 N2456 1.384 . S
C2454 H2445 0.929 . S
C2454 C2446 1.378 . S
C2454 C2449 1.350 . S
C2455 H2442 0.929 . S
C2455 C2447 1.433 . S
C2455 N2457 1.384 . S
N2456 C2452 1.427 . S
N2456 C2453 1.384 . S
N2457 C2449 1.427 . S
N2457 C2455 1.384 . S
H2458 C2464 0.930 . S
H2459 C2468 0.930 . S
H2460 C2473 0.929 . S
H2461 C2471 0.929 . S
H2462 C2466 0.929 . S
H2463 C2472 0.929 . S
C2464 H2458 0.930 . S
C2464 C2465 1.367 . S
C2464 C2472 1.378 . S
C2465 C2464 1.367 . S
C2465 C2473 1.433 . S
C2466 H2462 0.929 . S
C2466 C2468 1.378 . S
C2466 C2470 1.350 . S
C2467 C2470 1.463 . S
C2467 C2472 1.350 . S
C2467 N2475 1.427 . S
C2468 H2459 0.930 . S
C2468 C2466 1.378 . S
C2468 C2469 1.367 . S
C2469 C2468 1.367 . S
C2469 C2471 1.433 . S
C2470 C2466 1.350 . S
C2470 C2467 1.463 . S
C2470 N2474 1.427 . S
C2471 H2461 0.929 . S
C2471 C2469 1.433 . S
C2471 N2474 1.384 . S
C2472 H2463 0.929 . S
C2472 C2464 1.378 . S
C2472 C2467 1.350 . S
C2473 H2460 0.929 . S
C2473 C2465 1.433 . S
C2473 N2475 1.384 . S
N2474 C2470 1.427 . S
N2474 C2471 1.384 . S
N2475 C2467 1.427 . S
N2475 C2473 1.384 . S
H2476 C2482 0.930 . S
H2477 C2486 0.930 . S
H2478 C2491 0.929 . S
H2479 C2489 0.929 . S
H2480 C2484 0.929 . S
H2481 C2490 0.929 . S
C2482 H2476 0.930 . S
C2482 C2483 1.367 . S
C2482 C2490 1.378 . S
C2483 C2482 1.367 . S
C2483 C2491 1.433 . S
C2484 H2480 0.929 . S
C2484 C2486 1.378 . S
C2484 C2488 1.350 . S
C2485 C2488 1.463 . S
C2485 C2490 1.350 . S
C2485 N2493 1.427 . S
C2486 H2477 0.930 . S
C2486 C2484 1.378 . S
C2486 C2487 1.367 . S
C2487 C2486 1.367 . S
C2487 C2489 1.433 . S
C2488 C2484 1.350 . S
C2488 C2485 1.463 . S
C2488 N2492 1.427 . S
C2489 H2479 0.929 . S
C2489 C2487 1.433 . S
C2489 N2492 1.384 . S
C2490 H2481 0.929 . S
C2490 C2482 1.378 . S
C2490 C2485 1.350 . S
C2491 H2478 0.929 . S
C2491 C2483 1.433 . S
C2491 N2493 1.384 . S
N2492 C2488 1.427 . S
N2492 C2489 1.384 . S
N2493 C2485 1.427 . S
N2493 C2491 1.384 . S
H2494 C2500 0.912 1_556 S
H2495 C2504 0.930 . S
H2496 C2509 0.929 . S
H2497 C2507 0.929 . S
H2498 C2502 0.929 . S
H2499 C2508 0.929 . S
C2500 H2494 0.912 1_554 S
C2500 C2501 1.386 . S
C2500 C2508 1.377 1_554 S
C2501 C2500 1.386 . S
C2501 C2509 1.433 . S
C2502 H2498 0.929 . S
C2502 C2504 1.378 . S
C2502 C2506 1.350 . S
C2503 C2506 1.463 . S
C2503 C2508 1.350 1_554 S
C2503 N2511 1.427 . S
C2504 H2495 0.930 . S
C2504 C2502 1.378 . S
C2504 C2505 1.367 . S
C2505 C2504 1.367 . S
C2505 C2507 1.433 1_554 S
C2506 C2502 1.350 . S
C2506 C2503 1.463 . S
C2506 N2510 1.427 1_554 S
C2507 H2497 0.929 . S
C2507 C2505 1.433 1_556 S
C2507 N2510 1.384 . S
C2508 H2499 0.929 . S
C2508 C2500 1.377 1_556 S
C2508 C2503 1.350 1_556 S
C2509 H2496 0.929 . S
C2509 C2501 1.433 . S
C2509 N2511 1.384 . S
N2510 C2506 1.427 1_556 S
N2510 C2507 1.384 . S
N2511 C2503 1.427 . S
N2511 C2509 1.384 . S
H2512 C2518 0.930 . S
H2513 C2522 0.930 . S
H2514 C2527 0.929 . S
H2515 C2525 0.929 . S
H2516 C2520 0.929 . S
H2517 C2526 0.929 . S
C2518 H2512 0.930 . S
C2518 C2519 1.367 . S
C2518 C2526 1.378 . S
C2519 C2518 1.367 . S
C2519 C2527 1.433 . S
C2520 H2516 0.929 . S
C2520 C2522 1.378 . S
C2520 C2524 1.350 . S
C2521 C2524 1.463 . S
C2521 C2526 1.350 . S
C2521 N2529 1.427 . S
C2522 H2513 0.930 . S
C2522 C2520 1.378 . S
C2522 C2523 1.367 . S
C2523 C2522 1.367 . S
C2523 C2525 1.433 . S
C2524 C2520 1.350 . S
C2524 C2521 1.463 . S
C2524 N2528 1.427 . S
C2525 H2515 0.929 . S
C2525 C2523 1.433 . S
C2525 N2528 1.384 . S
C2526 H2517 0.929 . S
C2526 C2518 1.378 . S
C2526 C2521 1.350 . S
C2527 H2514 0.929 . S
C2527 C2519 1.433 . S
C2527 N2529 1.384 . S
N2528 C2524 1.427 . S
N2528 C2525 1.384 . S
N2529 C2521 1.427 . S
N2529 C2527 1.384 . S
H2530 C2536 0.930 . S
H2531 C2540 0.930 . S
H2532 C2545 0.929 . S
H2533 C2543 0.929 . S
H2534 C2538 0.929 . S
H2535 C2544 0.929 . S
C2536 H2530 0.930 . S
C2536 C2537 1.367 1_556 S
C2536 C2544 1.378 . S
C2537 C2536 1.367 1_554 S
C2537 C2545 1.433 . S
C2538 H2534 0.929 . S
C2538 C2540 1.378 . S
C2538 C2542 1.350 . S
C2539 C2542 1.463 . S
C2539 C2544 1.350 1_554 S
C2539 N2547 1.427 . S
C2540 H2531 0.930 . S
C2540 C2538 1.378 . S
C2540 C2541 1.367 . S
C2541 C2540 1.367 . S
C2541 C2543 1.433 . S
C2542 C2538 1.350 . S
C2542 C2539 1.463 . S
C2542 N2546 1.427 . S
C2543 H2533 0.929 . S
C2543 C2541 1.433 . S
C2543 N2546 1.384 . S
C2544 H2535 0.929 . S
C2544 C2536 1.378 . S
C2544 C2539 1.350 1_556 S
C2545 H2532 0.929 . S
C2545 C2537 1.433 . S
C2545 N2547 1.384 . S
N2546 C2542 1.427 . S
N2546 C2543 1.384 . S
N2547 C2539 1.427 . S
N2547 C2545 1.384 . S
H2548 C2554 0.930 . S
H2549 C2558 0.930 . S
H2550 C2563 0.929 . S
H2551 C2561 0.929 . S
H2552 C2556 0.929 . S
H2553 C2562 0.929 . S
C2554 H2548 0.930 . S
C2554 C2555 1.367 . S
C2554 C2562 1.378 . S
C2555 C2554 1.367 . S
C2555 C2563 1.433 . S
C2556 H2552 0.929 . S
C2556 C2558 1.378 . S
C2556 C2560 1.350 . S
C2557 C2560 1.463 . S
C2557 C2562 1.350 . S
C2557 N2565 1.427 . S
C2558 H2549 0.930 . S
C2558 C2556 1.378 . S
C2558 C2559 1.367 . S
C2559 C2558 1.367 . S
C2559 C2561 1.433 . S
C2560 C2556 1.350 . S
C2560 C2557 1.463 . S
C2560 N2564 1.427 . S
C2561 H2551 0.929 . S
C2561 C2559 1.433 . S
C2561 N2564 1.384 . S
C2562 H2553 0.929 . S
C2562 C2554 1.378 . S
C2562 C2557 1.350 . S
C2563 H2550 0.929 . S
C2563 C2555 1.433 . S
C2563 N2565 1.384 . S
N2564 C2560 1.427 . S
N2564 C2561 1.384 . S
N2565 C2557 1.427 . S
N2565 C2563 1.384 . S
H2566 C2572 0.930 . S
H2567 C2576 0.930 . S
H2568 C2581 0.929 . S
H2569 C2579 0.929 . S
H2570 C2574 0.929 . S
H2571 C2580 0.929 . S
C2572 H2566 0.930 . S
C2572 C2573 1.367 . S
C2572 C2580 1.378 . S
C2573 C2572 1.367 . S
C2573 C2581 1.433 . S
C2574 H2570 0.929 . S
C2574 C2576 1.378 . S
C2574 C2578 1.350 . S
C2575 C2578 1.463 . S
C2575 C2580 1.350 . S
C2575 N2583 1.427 . S
C2576 H2567 0.930 . S
C2576 C2574 1.378 . S
C2576 C2577 1.367 . S
C2577 C2576 1.367 . S
C2577 C2579 1.433 . S
C2578 C2574 1.350 . S
C2578 C2575 1.463 . S
C2578 N2582 1.427 . S
C2579 H2569 0.929 . S
C2579 C2577 1.433 . S
C2579 N2582 1.384 . S
C2580 H2571 0.929 . S
C2580 C2572 1.378 . S
C2580 C2575 1.350 . S
C2581 H2568 0.929 . S
C2581 C2573 1.433 . S
C2581 N2583 1.384 . S
N2582 C2578 1.427 . S
N2582 C2579 1.384 . S
N2583 C2575 1.427 . S
N2583 C2581 1.384 . S
C867 C329 0.942 . S
C863 C10 0.944 . S
C881 C13 1.703 . S
C885 C375 1.746 . S
C899 C34 0.855 . S
C903 C384 0.869 . S
C921 C422 1.562 . S
C917 C44 1.550 . S
C935 C21 1.519 . S
C939 C456 1.540 . S
C957 C486 0.712 . S
C953 C26 0.713 . S
C975 C545 1.561 1_556 S
C971 C49 1.566 . S
C989 C5 0.878 . S
C993 C558 0.882 . S
C1007 C62 1.246 . S
C1011 C341 1.225 1_565 S
C1025 C73 1.043 . S
C1029 C359 1.084 . S
C1047 C380 1.542 . S
C1043 C88 1.549 . S
C1065 C418 0.748 . S
C1061 C99 0.740 . S
C1079 C60 1.166 . S
C1083 C452 1.200 . S
C1101 C482 1.454 . S
C1097 C75 1.462 . S
C1119 C529 1.145 . S
C1115 C86 1.114 . S
C1137 C554 0.621 . S
C1133 C101 0.608 . S
C1155 C325 0.627 1_556 S
C1151 C96 0.626 . S
C1173 C584 1.529 . S
C1169 C104 1.481 . S
C1187 C122 1.288 . S
C1191 C626 1.282 . S
C1209 C669 0.418 . S
C1205 C130 0.480 . S
C1223 C57 1.205 . S
C1227 C550 1.204 . S
C1245 C388 1.418 . S
C1241 C70 1.394 . S
C1259 C117 1.191 . S
C1263 C686 1.205 . S
C1281 C737 1.413 . S
C1277 C143 1.389 . S
C1295 C164 1.039 1_455 S
C1299 C320 1.048 . S
C1317 C720 1.829 . S
C1313 C169 1.806 . S
C1331 C192 0.903 . S
C1335 C393 0.900 . S
C1349 C200 1.647 . S
C1353 C703 1.660 . S
C1371 C465 1.631 . S
C1367 C179 1.642 . S
C1389 C631 0.756 . S
C1385 C182 0.773 . S
C1407 C516 1.663 . S
C1403 C203 1.639 . S
C1425 C771 0.957 . S
C1421 C161 0.954 . S
C1443 C312 1.308 . S
C1439 C216 1.329 . S
C1457 C231 1.151 . S
C1461 C724 1.143 . S
C1479 C409 1.633 1_565 S
C1475 C242 1.640 . S
C1493 C257 0.802 . S
C1497 C699 0.794 . S
C1511 C218 1.275 . S
C1515 C461 1.257 . S
C1529 C229 1.563 . S
C1533 C647 1.543 . S
C1551 C520 1.195 . S
C1547 C244 1.210 . S
C1565 C255 0.659 . S
C1569 C767 0.676 . S
C1583 C252 0.679 . S
C1587 C316 0.653 . S
C1601 C260 1.541 . S
C1605 C613 1.596 . S
C1619 C278 1.330 . S
C1623 C499 1.374 . S
C1637 C286 0.513 . S
C1641 C660 0.499 . S
C1659 C783 1.260 . S
C1655 C213 1.248 . S
C1677 C397 1.498 . S
C1673 C226 1.437 . S
C1695 C443 1.272 . S
C1691 C273 1.209 . S
C1713 C354 1.489 . S
C1709 C299 1.447 . S
C1727 C36 0.940 . S
C1731 C805 0.948 . S
C1749 C749 1.744 . S
C1745 C39 1.695 . S
C1767 C826 0.865 . S
C1763 C8 0.853 . S
C1781 C18 1.555 . S
C1785 C694 1.555 . S
C1799 C47 1.510 . S
C1803 C592 1.544 1_556 S
C1821 C622 0.721 . S
C1817 C0 0.732 . S
C1839 C681 1.561 . S
C1835 C23 1.566 . S
C1857 C762 0.883 . S
C1853 C31 0.876 . S
C1875 C817 1.223 . S
C1871 C153 1.240 . S
C1889 C112 1.047 . S
C1893 C733 1.089 . S
C1907 C127 1.542 . S
C1911 C822 1.533 . S
C1929 C690 0.759 . S
C1925 C138 0.755 . S
C1947 C588 1.191 . S
C1943 C151 1.159 . S
C1961 C114 1.462 . S
C1965 C618 1.452 . S
C1983 C665 1.148 . S
C1979 C125 1.124 . S
C1997 C140 0.619 . S
C2001 C758 0.629 . S
C2019 C801 0.623 . S
C2015 C135 0.662 . S
C2037 C448 1.531 . S
C2033 C65 1.483 . S
C2055 C490 1.293 . S
C2051 C83 1.281 . S
C2069 C91 0.466 . S
C2073 C533 0.405 . S
C2091 C754 1.203 . S
C2087 C148 1.209 . S
C2105 C109 1.403 . S
C2109 C830 1.427 . S
C2127 C414 1.203 . S
C2123 C78 1.178 . S
C2145 C363 1.419 . S
C2141 C52 1.400 . S
C2159 C190 1.040 . S
C2163 C796 1.031 . S
C2181 C346 1.826 . S
C2177 C195 1.810 . S
C2199 C835 0.894 . S
C2195 C166 0.898 . S
C2213 C174 1.651 . S
C2217 C431 1.658 . S
C2231 C205 1.637 . S
C2235 C601 1.624 . S
C2249 C156 0.749 . S
C2253 C495 0.758 . S
C2267 C177 1.639 . S
C2271 C652 1.663 . S
C2285 C187 0.940 . S
C2289 C567 0.951 . S
C2307 C788 1.320 . S
C2303 C307 1.321 . S
C2321 C270 1.150 . S
C2325 C350 1.137 . S
C2343 C851 1.630 . S
C2339 C281 1.647 . S
C2357 C296 0.787 . S
C2361 C427 0.788 . S
C2375 C309 1.271 . S
C2379 C597 1.248 . S
C2397 C511 1.544 . S
C2393 C268 1.566 . S
C2411 C283 1.211 . S
C2415 C656 1.195 . S
C2433 C563 0.673 . S
C2429 C294 0.663 . S
C2451 C792 0.658 . S
C2447 C291 0.661 . S
C2469 C477 1.597 . S
C2465 C221 1.531 . S
C2483 C239 1.336 . S
C2487 C635 1.374 . S
C2505 C524 0.472 . S
C2501 C247 0.526 . S
C2523 C579 1.264 . S
C2519 C304 1.246 . S
C2537 C265 1.445 . S
C2541 C839 1.506 . S
C2559 C715 1.269 . S
C2555 C234 1.218 . S
C2577 C728 1.488 . S
C2573 C208 1.442 . S
