# Generated by pormake.
# Topology ibd, (4,6)-cn, num edge types: 1
# Building blocks:
#     Node 0, Type 0, BuildingBlock: GALJAG_clean_sbu_0, # of connection points: 4
#     Node 1, Type 0, BuildingBlock: GALJAG_clean_sbu_0, # of connection points: 4
#     Node 2, Type 0, BuildingBlock: GALJAG_clean_sbu_0, # of connection points: 4
#     Node 3, Type 0, BuildingBlock: GALJAG_clean_sbu_0, # of connection points: 4
#     Node 4, Type 0, BuildingBlock: GALJAG_clean_sbu_0, # of connection points: 4
#     Node 5, Type 0, BuildingBlock: GALJAG_clean_sbu_0, # of connection points: 4
#     Node 6, Type 0, BuildingBlock: GALJAG_clean_sbu_0, # of connection points: 4
#     Node 7, Type 0, BuildingBlock: GALJAG_clean_sbu_0, # of connection points: 4
#     Node 8, Type 0, BuildingBlock: GALJAG_clean_sbu_0, # of connection points: 4
#     Node 9, Type 0, BuildingBlock: GALJAG_clean_sbu_0, # of connection points: 4
#     Node 10, Type 0, BuildingBlock: GALJAG_clean_sbu_0, # of connection points: 4
#     Node 11, Type 0, BuildingBlock: GALJAG_clean_sbu_0, # of connection points: 4
#     Node 12, Type 0, BuildingBlock: GALJAG_clean_sbu_0, # of connection points: 4
#     Node 13, Type 0, BuildingBlock: GALJAG_clean_sbu_0, # of connection points: 4
#     Node 14, Type 0, BuildingBlock: GALJAG_clean_sbu_0, # of connection points: 4
#     Node 15, Type 0, BuildingBlock: GALJAG_clean_sbu_0, # of connection points: 4
#     Node 16, Type 0, BuildingBlock: GALJAG_clean_sbu_0, # of connection points: 4
#     Node 17, Type 0, BuildingBlock: GALJAG_clean_sbu_0, # of connection points: 4
#     Node 18, Type 0, BuildingBlock: GALJAG_clean_sbu_0, # of connection points: 4
#     Node 19, Type 0, BuildingBlock: GALJAG_clean_sbu_0, # of connection points: 4
#     Node 20, Type 0, BuildingBlock: GALJAG_clean_sbu_0, # of connection points: 4
#     Node 21, Type 0, BuildingBlock: GALJAG_clean_sbu_0, # of connection points: 4
#     Node 22, Type 0, BuildingBlock: GALJAG_clean_sbu_0, # of connection points: 4
#     Node 23, Type 0, BuildingBlock: GALJAG_clean_sbu_0, # of connection points: 4
#     Node 24, Type 1, BuildingBlock: IZENUY_clean_sbu_0, # of connection points: 6
#     Node 25, Type 1, BuildingBlock: IZENUY_clean_sbu_0, # of connection points: 6
#     Node 26, Type 1, BuildingBlock: IZENUY_clean_sbu_0, # of connection points: 6
#     Node 27, Type 1, BuildingBlock: IZENUY_clean_sbu_0, # of connection points: 6
#     Node 28, Type 1, BuildingBlock: IZENUY_clean_sbu_0, # of connection points: 6
#     Node 29, Type 1, BuildingBlock: IZENUY_clean_sbu_0, # of connection points: 6
#     Node 30, Type 1, BuildingBlock: IZENUY_clean_sbu_0, # of connection points: 6
#     Node 31, Type 1, BuildingBlock: IZENUY_clean_sbu_0, # of connection points: 6
#     Node 32, Type 1, BuildingBlock: IZENUY_clean_sbu_0, # of connection points: 6
#     Node 33, Type 1, BuildingBlock: IZENUY_clean_sbu_0, # of connection points: 6
#     Node 34, Type 1, BuildingBlock: IZENUY_clean_sbu_0, # of connection points: 6
#     Node 35, Type 1, BuildingBlock: IZENUY_clean_sbu_0, # of connection points: 6
#     Node 36, Type 1, BuildingBlock: IZENUY_clean_sbu_0, # of connection points: 6
#     Node 37, Type 1, BuildingBlock: IZENUY_clean_sbu_0, # of connection points: 6
#     Node 38, Type 1, BuildingBlock: IZENUY_clean_sbu_0, # of connection points: 6
#     Node 39, Type 1, BuildingBlock: IZENUY_clean_sbu_0, # of connection points: 6
#     Edge 40, Type (0, 1), BuildingBlock: OJICUG_clean_linker_0, # of connection points: 2
#     Edge 41, Type (0, 1), BuildingBlock: OJICUG_clean_linker_0, # of connection points: 2
#     Edge 42, Type (0, 1), BuildingBlock: OJICUG_clean_linker_0, # of connection points: 2
#     Edge 43, Type (0, 1), BuildingBlock: OJICUG_clean_linker_0, # of connection points: 2
#     Edge 44, Type (0, 1), BuildingBlock: OJICUG_clean_linker_0, # of connection points: 2
#     Edge 45, Type (0, 1), BuildingBlock: OJICUG_clean_linker_0, # of connection points: 2
#     Edge 46, Type (0, 1), BuildingBlock: OJICUG_clean_linker_0, # of connection points: 2
#     Edge 47, Type (0, 1), BuildingBlock: OJICUG_clean_linker_0, # of connection points: 2
#     Edge 48, Type (0, 1), BuildingBlock: OJICUG_clean_linker_0, # of connection points: 2
#     Edge 49, Type (0, 1), BuildingBlock: OJICUG_clean_linker_0, # of connection points: 2
#     Edge 50, Type (0, 1), BuildingBlock: OJICUG_clean_linker_0, # of connection points: 2
#     Edge 51, Type (0, 1), BuildingBlock: OJICUG_clean_linker_0, # of connection points: 2
#     Edge 52, Type (0, 1), BuildingBlock: OJICUG_clean_linker_0, # of connection points: 2
#     Edge 53, Type (0, 1), BuildingBlock: OJICUG_clean_linker_0, # of connection points: 2
#     Edge 54, Type (0, 1), BuildingBlock: OJICUG_clean_linker_0, # of connection points: 2
#     Edge 55, Type (0, 1), BuildingBlock: OJICUG_clean_linker_0, # of connection points: 2
#     Edge 56, Type (0, 1), BuildingBlock: OJICUG_clean_linker_0, # of connection points: 2
#     Edge 57, Type (0, 1), BuildingBlock: OJICUG_clean_linker_0, # of connection points: 2
#     Edge 58, Type (0, 1), BuildingBlock: OJICUG_clean_linker_0, # of connection points: 2
#     Edge 59, Type (0, 1), BuildingBlock: OJICUG_clean_linker_0, # of connection points: 2
#     Edge 60, Type (0, 1), BuildingBlock: OJICUG_clean_linker_0, # of connection points: 2
#     Edge 61, Type (0, 1), BuildingBlock: OJICUG_clean_linker_0, # of connection points: 2
#     Edge 62, Type (0, 1), BuildingBlock: OJICUG_clean_linker_0, # of connection points: 2
#     Edge 63, Type (0, 1), BuildingBlock: OJICUG_clean_linker_0, # of connection points: 2
#     Edge 64, Type (0, 1), BuildingBlock: OJICUG_clean_linker_0, # of connection points: 2
#     Edge 65, Type (0, 1), BuildingBlock: OJICUG_clean_linker_0, # of connection points: 2
#     Edge 66, Type (0, 1), BuildingBlock: OJICUG_clean_linker_0, # of connection points: 2
#     Edge 67, Type (0, 1), BuildingBlock: OJICUG_clean_linker_0, # of connection points: 2
#     Edge 68, Type (0, 1), BuildingBlock: OJICUG_clean_linker_0, # of connection points: 2
#     Edge 69, Type (0, 1), BuildingBlock: OJICUG_clean_linker_0, # of connection points: 2
#     Edge 70, Type (0, 1), BuildingBlock: OJICUG_clean_linker_0, # of connection points: 2
#     Edge 71, Type (0, 1), BuildingBlock: OJICUG_clean_linker_0, # of connection points: 2
#     Edge 72, Type (0, 1), BuildingBlock: OJICUG_clean_linker_0, # of connection points: 2
#     Edge 73, Type (0, 1), BuildingBlock: OJICUG_clean_linker_0, # of connection points: 2
#     Edge 74, Type (0, 1), BuildingBlock: OJICUG_clean_linker_0, # of connection points: 2
#     Edge 75, Type (0, 1), BuildingBlock: OJICUG_clean_linker_0, # of connection points: 2
#     Edge 76, Type (0, 1), BuildingBlock: OJICUG_clean_linker_0, # of connection points: 2
#     Edge 77, Type (0, 1), BuildingBlock: OJICUG_clean_linker_0, # of connection points: 2
#     Edge 78, Type (0, 1), BuildingBlock: OJICUG_clean_linker_0, # of connection points: 2
#     Edge 79, Type (0, 1), BuildingBlock: OJICUG_clean_linker_0, # of connection points: 2
#     Edge 80, Type (0, 1), BuildingBlock: OJICUG_clean_linker_0, # of connection points: 2
#     Edge 81, Type (0, 1), BuildingBlock: OJICUG_clean_linker_0, # of connection points: 2
#     Edge 82, Type (0, 1), BuildingBlock: OJICUG_clean_linker_0, # of connection points: 2
#     Edge 83, Type (0, 1), BuildingBlock: OJICUG_clean_linker_0, # of connection points: 2
#     Edge 84, Type (0, 1), BuildingBlock: OJICUG_clean_linker_0, # of connection points: 2
#     Edge 85, Type (0, 1), BuildingBlock: OJICUG_clean_linker_0, # of connection points: 2
#     Edge 86, Type (0, 1), BuildingBlock: OJICUG_clean_linker_0, # of connection points: 2
#     Edge 87, Type (0, 1), BuildingBlock: OJICUG_clean_linker_0, # of connection points: 2
#     Edge 88, Type (0, 1), BuildingBlock: OJICUG_clean_linker_0, # of connection points: 2
#     Edge 89, Type (0, 1), BuildingBlock: OJICUG_clean_linker_0, # of connection points: 2
#     Edge 90, Type (0, 1), BuildingBlock: OJICUG_clean_linker_0, # of connection points: 2
#     Edge 91, Type (0, 1), BuildingBlock: OJICUG_clean_linker_0, # of connection points: 2
#     Edge 92, Type (0, 1), BuildingBlock: OJICUG_clean_linker_0, # of connection points: 2
#     Edge 93, Type (0, 1), BuildingBlock: OJICUG_clean_linker_0, # of connection points: 2
#     Edge 94, Type (0, 1), BuildingBlock: OJICUG_clean_linker_0, # of connection points: 2
#     Edge 95, Type (0, 1), BuildingBlock: OJICUG_clean_linker_0, # of connection points: 2
#     Edge 96, Type (0, 1), BuildingBlock: OJICUG_clean_linker_0, # of connection points: 2
#     Edge 97, Type (0, 1), BuildingBlock: OJICUG_clean_linker_0, # of connection points: 2
#     Edge 98, Type (0, 1), BuildingBlock: OJICUG_clean_linker_0, # of connection points: 2
#     Edge 99, Type (0, 1), BuildingBlock: OJICUG_clean_linker_0, # of connection points: 2
#     Edge 100, Type (0, 1), BuildingBlock: OJICUG_clean_linker_0, # of connection points: 2
#     Edge 101, Type (0, 1), BuildingBlock: OJICUG_clean_linker_0, # of connection points: 2
#     Edge 102, Type (0, 1), BuildingBlock: OJICUG_clean_linker_0, # of connection points: 2
#     Edge 103, Type (0, 1), BuildingBlock: OJICUG_clean_linker_0, # of connection points: 2
#     Edge 104, Type (0, 1), BuildingBlock: OJICUG_clean_linker_0, # of connection points: 2
#     Edge 105, Type (0, 1), BuildingBlock: OJICUG_clean_linker_0, # of connection points: 2
#     Edge 106, Type (0, 1), BuildingBlock: OJICUG_clean_linker_0, # of connection points: 2
#     Edge 107, Type (0, 1), BuildingBlock: OJICUG_clean_linker_0, # of connection points: 2
#     Edge 108, Type (0, 1), BuildingBlock: OJICUG_clean_linker_0, # of connection points: 2
#     Edge 109, Type (0, 1), BuildingBlock: OJICUG_clean_linker_0, # of connection points: 2
#     Edge 110, Type (0, 1), BuildingBlock: OJICUG_clean_linker_0, # of connection points: 2
#     Edge 111, Type (0, 1), BuildingBlock: OJICUG_clean_linker_0, # of connection points: 2
#     Edge 112, Type (0, 1), BuildingBlock: OJICUG_clean_linker_0, # of connection points: 2
#     Edge 113, Type (0, 1), BuildingBlock: OJICUG_clean_linker_0, # of connection points: 2
#     Edge 114, Type (0, 1), BuildingBlock: OJICUG_clean_linker_0, # of connection points: 2
#     Edge 115, Type (0, 1), BuildingBlock: OJICUG_clean_linker_0, # of connection points: 2
#     Edge 116, Type (0, 1), BuildingBlock: OJICUG_clean_linker_0, # of connection points: 2
#     Edge 117, Type (0, 1), BuildingBlock: OJICUG_clean_linker_0, # of connection points: 2
#     Edge 118, Type (0, 1), BuildingBlock: OJICUG_clean_linker_0, # of connection points: 2
#     Edge 119, Type (0, 1), BuildingBlock: OJICUG_clean_linker_0, # of connection points: 2
#     Edge 120, Type (0, 1), BuildingBlock: OJICUG_clean_linker_0, # of connection points: 2
#     Edge 121, Type (0, 1), BuildingBlock: OJICUG_clean_linker_0, # of connection points: 2
#     Edge 122, Type (0, 1), BuildingBlock: OJICUG_clean_linker_0, # of connection points: 2
#     Edge 123, Type (0, 1), BuildingBlock: OJICUG_clean_linker_0, # of connection points: 2
#     Edge 124, Type (0, 1), BuildingBlock: OJICUG_clean_linker_0, # of connection points: 2
#     Edge 125, Type (0, 1), BuildingBlock: OJICUG_clean_linker_0, # of connection points: 2
#     Edge 126, Type (0, 1), BuildingBlock: OJICUG_clean_linker_0, # of connection points: 2
#     Edge 127, Type (0, 1), BuildingBlock: OJICUG_clean_linker_0, # of connection points: 2
#     Edge 128, Type (0, 1), BuildingBlock: OJICUG_clean_linker_0, # of connection points: 2
#     Edge 129, Type (0, 1), BuildingBlock: OJICUG_clean_linker_0, # of connection points: 2
#     Edge 130, Type (0, 1), BuildingBlock: OJICUG_clean_linker_0, # of connection points: 2
#     Edge 131, Type (0, 1), BuildingBlock: OJICUG_clean_linker_0, # of connection points: 2
#     Edge 132, Type (0, 1), BuildingBlock: OJICUG_clean_linker_0, # of connection points: 2
#     Edge 133, Type (0, 1), BuildingBlock: OJICUG_clean_linker_0, # of connection points: 2
#     Edge 134, Type (0, 1), BuildingBlock: OJICUG_clean_linker_0, # of connection points: 2
#     Edge 135, Type (0, 1), BuildingBlock: OJICUG_clean_linker_0, # of connection points: 2
# Relax obj value: 0.206
# Max RMSD: 0.229
# Mean RMSD: 0.214
data_MOF--net-ibd--node1-GALJAG_clean_sbu_0--node2-IZENUY_clean_sbu_0--edge1-OJICUG_clean_linker_0
_symmetry_space_group_name_H-M    P1
_symmetry_Int_Tables_number       1
_symmetry_cell_setting            triclinic
loop_
_symmetry_equiv_pos_as_xyz
'x, y, z'
_cell_length_a     36.744605
_cell_length_b     36.733546
_cell_length_c     36.73841
_cell_angle_alpha  90.060426
_cell_angle_beta   90.056541
_cell_angle_gamma 90.06087
loop_
_atom_site_label
_atom_site_type_symbol
_atom_site_fract_x
_atom_site_fract_y
_atom_site_fract_z
_atom_type_partial_charge
In0 In -0.00157 0.25015 0.37267 0.0
O1 O 0.04167 0.25348 0.32843 0.0
O2 O 0.02502 0.20094 0.34593 0.0
C3 C 0.02887 0.29664 0.42069 0.0
C4 C 0.95187 0.28059 0.32486 0.0
C5 C 0.96802 0.20354 0.4204 0.0
O6 O 0.04755 0.27696 0.39964 0.0
O7 O 0.9949 0.29373 0.41661 0.0
O8 O 0.94935 0.22322 0.39935 0.0
O9 O 0.00199 0.20658 0.41655 0.0
C10 C 0.04448 0.21948 0.32458 0.0
O11 O 0.97179 0.29928 0.34575 0.0
O12 O 0.95457 0.24663 0.32899 0.0
In13 In -0.00274 0.74934 0.62315 0.0
O14 O 0.97019 0.79827 0.65001 0.0
O15 O 0.95368 0.74549 0.66697 0.0
C16 C 0.02764 0.79596 0.57536 0.0
C17 C 0.0439 0.71916 0.67104 0.0
C18 C 0.96668 0.70293 0.57515 0.0
O19 O 0.04633 0.77616 0.59628 0.0
O20 O 0.99368 0.79311 0.57945 0.0
O21 O 0.00066 0.70588 0.57902 0.0
O22 O 0.9481 0.72249 0.59638 0.0
C23 C 0.95054 0.77945 0.67096 0.0
O24 O 0.0244 0.70037 0.64984 0.0
O25 O 0.0407 0.75312 0.66722 0.0
In26 In 0.49635 0.74973 0.87315 0.0
O27 O 0.52294 0.7006 0.84618 0.0
O28 O 0.53996 0.75323 0.8293 0.0
C29 C 0.52673 0.79605 0.92131 0.0
C30 C 0.45003 0.78059 0.8254 0.0
C31 C 0.46599 0.70314 0.92096 0.0
O32 O 0.54543 0.77649 0.90016 0.0
O33 O 0.49277 0.79311 0.91727 0.0
O34 O 0.44728 0.7227 0.89983 0.0
O35 O 0.49995 0.7062 0.91706 0.0
C36 C 0.54271 0.71926 0.82521 0.0
O37 O 0.45265 0.74658 0.82926 0.0
O38 O 0.46988 0.79907 0.84653 0.0
In39 In 0.49781 0.25122 0.12299 0.0
O40 O 0.52427 0.20197 0.14976 0.0
O41 O 0.54094 0.25452 0.16739 0.0
C42 C 0.46728 0.20512 0.07467 0.0
C43 C 0.45112 0.28156 0.17069 0.0
C44 C 0.52904 0.29739 0.07539 0.0
O45 O 0.44866 0.22477 0.0958 0.0
O46 O 0.50124 0.20785 0.07879 0.0
O47 O 0.49502 0.29506 0.07933 0.0
O48 O 0.54735 0.27742 0.09647 0.0
C49 C 0.54376 0.22052 0.17116 0.0
O50 O 0.471 0.30031 0.14988 0.0
O51 O 0.45396 0.24759 0.16654 0.0
In52 In -0.00398 0.74955 0.12295 0.0
O53 O 0.94656 0.77539 0.0959 0.0
O54 O -0.00106 0.79322 0.07911 0.0
C55 C 0.94986 0.71878 0.17086 0.0
C56 C 0.02707 0.70352 0.07501 0.0
C57 C 0.0421 0.78053 0.17099 0.0
O58 O 0.95237 0.75277 0.16674 0.0
O59 O 0.96978 0.70024 0.14993 0.0
O60 O 0.0396 0.74653 0.16691 0.0
O61 O 0.02223 0.79899 0.14993 0.0
C62 C 0.96495 0.79541 0.07493 0.0
O63 O 0.04547 0.72352 0.09606 0.0
O64 O 0.99308 0.70583 0.07906 0.0
In65 In 0.49571 0.7496 0.37392 0.0
O66 O 0.54477 0.72264 0.40063 0.0
O67 O 0.49212 0.70616 0.41794 0.0
C68 C 0.44941 0.7191 0.32578 0.0
C69 C 0.46538 0.79618 0.42175 0.0
C70 C 0.54213 0.78021 0.32614 0.0
O71 O 0.46896 0.70046 0.34697 0.0
O72 O 0.45228 0.75308 0.32981 0.0
O73 O 0.52239 0.79881 0.3472 0.0
O74 O 0.53936 0.74623 0.33011 0.0
C75 C 0.52609 0.70308 0.42178 0.0
O76 O 0.49934 0.79327 0.41777 0.0
O77 O 0.44666 0.77641 0.40075 0.0
In78 In 0.4948 0.24965 0.62279 0.0
O79 O 0.5438 0.22254 0.59623 0.0
O80 O 0.49115 0.20615 0.57871 0.0
C81 C 0.54164 0.27955 0.67078 0.0
C82 C 0.46472 0.29632 0.57489 0.0
C83 C 0.448 0.21951 0.67051 0.0
O84 O 0.53828 0.24562 0.66677 0.0
O85 O 0.52217 0.29847 0.64975 0.0
O86 O 0.45137 0.25347 0.66678 0.0
O87 O 0.46737 0.20072 0.64927 0.0
C88 C 0.52511 0.20302 0.57498 0.0
O89 O 0.44591 0.2768 0.59596 0.0
O90 O 0.49866 0.29319 0.57889 0.0
In91 In 0.99508 0.25039 0.87232 0.0
O92 O 0.99133 0.20684 0.91618 0.0
O93 O 0.04405 0.22342 0.89916 0.0
C94 C 0.94909 0.2195 0.82413 0.0
C95 C 0.96466 0.29665 0.92042 0.0
C96 C 0.04161 0.28123 0.82475 0.0
O97 O 0.96874 0.20105 0.84539 0.0
O98 O 0.95171 0.25351 0.82809 0.0
O99 O 0.02148 0.29973 0.84552 0.0
O100 O 0.03913 0.24724 0.82887 0.0
C101 C 0.02528 0.20378 0.92017 0.0
O102 O 0.94596 0.2771 0.89917 0.0
O103 O -0.00138 0.29375 0.91647 0.0
In104 In 0.37033 0.00051 0.24681 0.0
O105 O 0.32639 0.95685 0.24367 0.0
O106 O 0.34352 0.97423 0.29615 0.0
C107 C 0.41831 0.96972 0.2007 0.0
C108 C 0.3224 0.04665 0.21599 0.0
C109 C 0.41831 0.03117 0.29315 0.0
O110 O 0.39706 0.9512 0.2203 0.0
O111 O 0.41444 0.00372 0.20344 0.0
O112 O 0.39742 0.04977 0.27322 0.0
O113 O 0.41409 -0.00281 0.29056 0.0
C114 C 0.32244 0.95432 0.27767 0.0
O115 O 0.32655 0.0442 0.24998 0.0
O116 O 0.34336 0.02672 0.19748 0.0
In117 In 0.24633 0.12535 0.49845 0.0
O118 O 0.1973 0.15214 0.52532 0.0
O119 O 0.24999 0.16939 0.54194 0.0
C120 C 0.19992 0.07732 0.46793 0.0
C121 C 0.27654 0.17326 0.45186 0.0
C122 C 0.29279 0.07764 0.52915 0.0
O123 O 0.20277 0.08136 0.5019 0.0
O124 O 0.21962 0.09839 0.4493 0.0
O125 O 0.29003 0.08156 0.49516 0.0
O126 O 0.273 0.09869 0.5477 0.0
C127 C 0.21603 0.17329 0.54493 0.0
O128 O 0.29531 0.15215 0.47139 0.0
O129 O 0.24259 0.16933 0.45499 0.0
In130 In 0.12116 -0.00179 0.74986 0.0
O131 O 0.09412 0.94881 0.77589 0.0
O132 O 0.07719 0.00127 0.79338 0.0
C133 C 0.16925 0.95227 0.71901 0.0
C134 C 0.07346 0.02896 0.70339 0.0
C135 C 0.16907 0.04455 0.78068 0.0
O136 O 0.16531 0.95487 0.75301 0.0
O137 O 0.14802 0.97194 0.70053 0.0
O138 O 0.16467 0.04223 0.74671 0.0
O139 O 0.14838 0.02435 0.79921 0.0
C140 C 0.07307 0.96727 0.79576 0.0
O141 O 0.09421 0.04751 0.72358 0.0
O142 O 0.07758 0.99497 0.70586 0.0
In143 In 0.24816 0.87507 -0.0017 0.0
O144 O 0.20447 0.91875 0.99423 0.0
O145 O 0.22073 0.90182 0.04709 0.0
C146 C 0.21795 0.82711 0.95162 0.0
C147 C 0.29481 0.92304 0.96828 0.0
C148 C 0.27829 0.82721 0.04498 0.0
O149 O 0.19922 0.84841 0.97097 0.0
O150 O 0.25191 0.83089 0.95493 0.0
O151 O 0.29708 0.84835 0.02552 0.0
O152 O 0.24434 0.83115 0.04181 0.0
C153 C 0.20112 0.92272 0.02817 0.0
O154 O 0.29133 0.91942 0.00223 0.0
O155 O 0.27563 0.90159 0.94946 0.0
In156 In 0.24519 0.37463 -0.00144 0.0
O157 O 0.29431 0.34791 0.9718 0.0
O158 O 0.2417 0.3306 0.95502 0.0
C159 C 0.19892 0.42264 0.96813 0.0
C160 C 0.21447 0.32671 0.04476 0.0
C161 C 0.29181 0.42251 0.02898 0.0
O162 O 0.21836 0.40135 0.94946 0.0
O163 O 0.20194 0.41881 0.0021 0.0
O164 O 0.27211 0.40148 0.04768 0.0
O165 O 0.28884 0.41848 0.99501 0.0
C166 C 0.27567 0.32673 0.95214 0.0
O167 O 0.24846 0.33068 0.04209 0.0
O168 O 0.19594 0.34786 0.02507 0.0
In169 In 0.74743 0.12341 -0.0013 0.0
O170 O 0.72065 0.09674 0.04786 0.0
O171 O 0.70357 0.07969 0.99527 0.0
C172 C 0.77763 0.17151 0.04521 0.0
C173 C 0.79371 0.07542 0.96818 0.0
C174 C 0.71749 0.17121 0.95186 0.0
O175 O 0.79641 0.15023 0.02588 0.0
O176 O 0.74368 0.16762 0.04196 0.0
O177 O 0.75142 0.16734 0.95524 0.0
O178 O 0.6986 0.1501 0.97129 0.0
C179 C 0.70077 0.07575 0.02925 0.0
O180 O 0.77415 0.09663 0.94958 0.0
O181 O 0.79082 0.07931 0.00217 0.0
In182 In 0.12129 0.50039 0.24744 0.0
O183 O 0.14798 0.47343 0.2965 0.0
O184 O 0.16521 0.45688 0.24383 0.0
C185 C 0.07356 0.53076 0.29405 0.0
C186 C 0.16927 0.54687 0.21719 0.0
C187 C 0.07329 0.46998 0.20096 0.0
O188 O 0.09454 0.54947 0.27433 0.0
O189 O 0.07754 0.49678 0.29112 0.0
O190 O 0.07711 0.50396 0.2041 0.0
O191 O 0.09457 0.45131 0.22039 0.0
C192 C 0.1691 0.45385 0.2778 0.0
O193 O 0.14808 0.52733 0.19844 0.0
O194 O 0.16534 0.54386 0.25115 0.0
In195 In 0.74528 0.87436 0.49704 0.0
O196 O 0.74206 0.83029 0.45349 0.0
O197 O 0.79455 0.84769 0.4705 0.0
C198 C 0.6988 0.92229 0.46672 0.0
C199 C 0.71473 0.82649 0.54344 0.0
C200 C 0.7919 0.92226 0.52743 0.0
O201 O 0.71837 0.9012 0.44798 0.0
O202 O 0.70182 0.91833 0.50068 0.0
O203 O 0.77216 0.90128 0.54613 0.0
O204 O 0.7889 0.91826 0.49346 0.0
C205 C 0.77606 0.82646 0.45077 0.0
O206 O 0.74869 0.83075 0.5409 0.0
O207 O 0.69611 0.84726 0.52343 0.0
In208 In 0.8706 -0.00027 0.24922 0.0
O209 O 0.9147 0.00335 0.29266 0.0
O210 O 0.89738 0.95067 0.27607 0.0
C211 C 0.8228 0.04627 0.27964 0.0
C212 C 0.91837 0.02996 0.2025 0.0
C213 C 0.82257 0.95318 0.21893 0.0
O214 O 0.84386 0.02662 0.29832 0.0
O215 O 0.82677 0.04335 0.24567 0.0
O216 O 0.84372 0.97271 0.20021 0.0
O217 O 0.82652 0.95628 0.25289 0.0
C218 C 0.91858 0.96938 0.29564 0.0
O219 O 0.91434 0.996 0.20552 0.0
O220 O 0.89744 0.04873 0.22221 0.0
In221 In 0.24682 0.62555 0.49788 0.0
O222 O 0.27329 0.59857 0.44868 0.0
O223 O 0.29037 0.58162 0.50126 0.0
C224 C 0.21612 0.67338 0.45153 0.0
C225 C 0.20065 0.57764 0.52872 0.0
C226 C 0.27741 0.67356 0.54424 0.0
O227 O 0.19757 0.65223 0.47122 0.0
O228 O 0.25011 0.66951 0.45435 0.0
O229 O 0.24344 0.66943 0.54153 0.0
O230 O 0.29603 0.6526 0.52439 0.0
C231 C 0.29303 0.57752 0.46728 0.0
O232 O 0.22049 0.59877 0.54721 0.0
O233 O 0.2032 0.5816 0.49472 0.0
In234 In 0.37262 0.49834 0.75023 0.0
O235 O 0.41659 0.50157 0.79383 0.0
O236 O 0.39935 0.44905 0.7767 0.0
C237 C 0.32479 0.54492 0.78053 0.0
C238 C 0.42049 0.52893 0.70388 0.0
C239 C 0.32448 0.4522 0.71953 0.0
O240 O 0.34561 0.52506 0.79929 0.0
O241 O 0.32903 0.54214 0.74659 0.0
O242 O 0.34591 0.47158 0.70099 0.0
O243 O 0.32824 0.45516 0.75352 0.0
C244 C 0.42053 0.46757 0.79645 0.0
O245 O 0.41643 0.49495 0.70656 0.0
O246 O 0.39956 0.54753 0.72374 0.0
In247 In 0.62192 0.00191 0.74728 0.0
O248 O 0.649 0.97581 0.79664 0.0
O249 O 0.66525 0.95776 0.74415 0.0
C250 C 0.57401 0.03277 0.79344 0.0
C251 C 0.67005 0.04769 0.71617 0.0
C252 C 0.57377 0.97108 0.70124 0.0
O253 O 0.5783 -0.00121 0.79111 0.0
O254 O 0.59483 0.05129 0.77338 0.0
O255 O 0.57782 0.00508 0.70382 0.0
O256 O 0.59489 0.95258 0.72101 0.0
C257 C 0.66955 0.95545 0.77813 0.0
O258 O 0.64886 0.02779 0.6978 0.0
O259 O 0.66604 0.0454 0.75018 0.0
In260 In 0.74475 0.62409 -0.00102 0.0
O261 O 0.69565 0.65077 0.02589 0.0
O262 O 0.74831 0.66806 0.04254 0.0
C263 C 0.69876 0.57592 0.9681 0.0
C264 C 0.77498 0.67197 0.95243 0.0
C265 C 0.79132 0.57632 0.02943 0.0
O266 O 0.70154 0.57973 0.00211 0.0
O267 O 0.7182 0.59738 0.94966 0.0
O268 O 0.7886 0.58049 0.99547 0.0
O269 O 0.77143 0.59718 0.04811 0.0
C270 C 0.71435 0.67194 0.04552 0.0
O271 O 0.79374 0.65091 0.97203 0.0
O272 O 0.74103 0.66806 0.95554 0.0
In273 In 0.87223 0.50092 0.74744 0.0
O274 O 0.82831 0.4573 0.74368 0.0
O275 O 0.84557 0.47374 0.79642 0.0
C276 C 0.92012 0.4706 0.70091 0.0
C277 C 0.82425 0.54736 0.7172 0.0
C278 C 0.92016 0.53141 0.79397 0.0
O279 O 0.89895 0.45189 0.72043 0.0
O280 O 0.91624 0.50457 0.70398 0.0
O281 O 0.89911 0.55007 0.77427 0.0
O282 O 0.91611 0.49744 0.79109 0.0
C283 C 0.82447 0.45413 0.77764 0.0
O284 O 0.82822 0.54432 0.75116 0.0
O285 O 0.84538 0.52784 0.69845 0.0
In286 In 0.74728 0.37443 0.49856 0.0
O287 O 0.70362 0.41821 0.4954 0.0
O288 O 0.72112 0.40146 0.54792 0.0
C289 C 0.71604 0.3265 0.45251 0.0
C290 C 0.79338 0.42245 0.46781 0.0
C291 C 0.77847 0.32642 0.54438 0.0
O292 O 0.69773 0.34744 0.47264 0.0
O293 O 0.75005 0.33065 0.45472 0.0
O294 O 0.7968 0.34741 0.52433 0.0
O295 O 0.74447 0.33059 0.54225 0.0
C296 C 0.70115 0.42237 0.52939 0.0
O297 O 0.7908 0.41845 0.5018 0.0
O298 O 0.77355 0.40134 0.44926 0.0
In299 In 0.62139 0.4993 0.24826 0.0
O300 O 0.57745 0.50311 0.29172 0.0
O301 O 0.59444 0.45036 0.27518 0.0
C302 C 0.66926 0.45266 0.2181 0.0
C303 C 0.57359 0.52966 0.20166 0.0
C304 C 0.66931 0.54582 0.2787 0.0
O305 O 0.66537 0.45585 0.25205 0.0
O306 O 0.6481 0.47211 0.19931 0.0
O307 O 0.66537 0.54283 0.24472 0.0
O308 O 0.64817 0.52622 0.29736 0.0
C309 C 0.57339 0.46916 0.29473 0.0
O310 O 0.59483 0.54836 0.22119 0.0
O311 O 0.57737 0.49568 0.20474 0.0
Fe312 Fe 0.11994 0.09015 0.15577 0.0
Fe313 Fe 0.08581 0.15801 0.12175 0.0
O314 O 0.11979 0.12403 0.1217 0.0
Fe315 Fe 0.15366 0.12399 0.08762 0.0
O316 O 0.13998 0.07925 0.07199 0.0
O317 O 0.13899 0.05442 0.12631 0.0
O318 O 0.0752 0.07434 0.14234 0.0
C319 C 0.04726 0.09424 0.1424 0.0
C320 C 0.19255 0.10398 0.15132 0.0
O321 O 0.05023 0.12859 0.14114 0.0
C322 C 0.14952 0.19665 0.1014 0.0
O323 O 0.10097 0.11971 0.19145 0.0
O324 O 0.09969 0.17389 0.16632 0.0
O325 O 0.18944 0.10493 0.11697 0.0
O326 O 0.16468 0.10389 0.17131 0.0
C327 C 0.08972 0.14418 0.04914 0.0
O328 O 0.11518 0.19366 0.10242 0.0
O329 O 0.16942 0.16871 0.10121 0.0
C330 C 0.10005 0.15408 0.19432 0.0
O331 O 0.06989 0.14423 0.07714 0.0
O332 O 0.12407 0.14308 0.05203 0.0
C333 C 0.14011 0.05135 0.09196 0.0
Fe334 Fe 0.08713 0.84111 0.37325 0.0
Fe335 Fe 0.12081 0.90926 0.33929 0.0
O336 O 0.12107 0.87519 0.37318 0.0
Fe337 Fe 0.15526 0.87522 0.40701 0.0
O338 O 0.17096 0.83059 0.39317 0.0
O339 O 0.11673 0.80548 0.3922 0.0
O340 O 0.10054 0.8255 0.32847 0.0
C341 C 0.1004 0.84547 0.30057 0.0
C342 C 0.09171 0.85473 0.44589 0.0
O343 O 0.10143 0.87983 0.30364 0.0
C344 C 0.14141 0.94782 0.4031 0.0
O345 O 0.05131 0.87052 0.35433 0.0
O346 O 0.07622 0.92485 0.35325 0.0
O347 O 0.12604 0.8559 0.44277 0.0
O348 O 0.07165 0.85466 0.41803 0.0
C349 C 0.19345 0.8957 0.34304 0.0
O350 O 0.14013 0.94492 0.36874 0.0
O351 O 0.14164 0.91983 0.42293 0.0
C352 C 0.04829 0.90488 0.35341 0.0
O353 O 0.16538 0.89574 0.32328 0.0
O354 O 0.19071 0.89454 0.37741 0.0
C355 C 0.15109 0.80259 0.39315 0.0
Fe356 Fe 0.37155 0.90968 0.65769 0.0
Fe357 Fe 0.33744 0.87562 0.58971 0.0
O358 O 0.37154 0.87572 0.62362 0.0
Fe359 Fe 0.40561 0.84185 0.62347 0.0
O360 O 0.39211 0.82602 0.66811 0.0
O361 O 0.39094 0.88024 0.69325 0.0
O362 O 0.327 0.89582 0.6735 0.0
C363 C 0.29898 0.89559 0.65366 0.0
C364 C 0.44412 0.90579 0.64374 0.0
O365 O 0.30183 0.89464 0.61929 0.0
C366 C 0.40116 0.85558 0.5509 0.0
O367 O 0.35217 0.94531 0.62835 0.0
O368 O 0.35094 0.92035 0.57405 0.0
O369 O 0.44124 0.87142 0.64265 0.0
O370 O 0.41612 0.9256 0.64395 0.0
C371 C 0.34187 0.803 0.60324 0.0
O372 O 0.36682 0.85657 0.55394 0.0
O373 O 0.42116 0.85562 0.5788 0.0
C374 C 0.35103 0.9483 0.594 0.0
O375 O 0.32188 0.83088 0.60331 0.0
O376 O 0.37621 0.8061 0.60426 0.0
C377 C 0.39204 0.84588 0.69612 0.0
Fe378 Fe 0.40505 0.15989 0.87267 0.0
Fe379 Fe 0.3715 0.09127 0.83934 0.0
O380 O 0.37151 0.12541 0.87321 0.0
Fe381 Fe 0.33797 0.12508 0.90762 0.0
O382 O 0.32148 0.16948 0.89402 0.0
O383 O 0.37539 0.19522 0.8921 0.0
O384 O 0.3906 0.17522 0.82812 0.0
C385 C 0.39041 0.15518 0.80024 0.0
C386 C 0.402 0.14644 0.9454 0.0
O387 O 0.3898 0.12082 0.80334 0.0
C388 C 0.35254 0.05263 0.90351 0.0
O389 O 0.44085 0.13086 0.85314 0.0
O390 O 0.41655 0.07624 0.85248 0.0
O391 O 0.36763 0.14484 0.94285 0.0
O392 O 0.42155 0.14668 0.91721 0.0
C393 C 0.29876 0.10398 0.84438 0.0
O394 O 0.35319 0.05547 0.86914 0.0
O395 O 0.35239 0.08067 0.92334 0.0
C396 C 0.44424 0.09654 0.85213 0.0
O397 O 0.32645 0.10422 0.82413 0.0
O398 O 0.30216 0.10526 0.87869 0.0
C399 C 0.34103 0.19771 0.8936 0.0
Fe400 Fe 0.58951 0.33891 0.87238 0.0
Fe401 Fe 0.62323 0.40706 0.83846 0.0
O402 O 0.62351 0.37294 0.87229 0.0
Fe403 Fe 0.6577 0.37289 0.90612 0.0
O404 O 0.67337 0.32827 0.89221 0.0
O405 O 0.61909 0.30327 0.89132 0.0
O406 O 0.60284 0.32329 0.82757 0.0
C407 C 0.60264 0.34329 0.7997 0.0
C408 C 0.59416 0.35275 0.94501 0.0
O409 O 0.60387 0.37765 0.80279 0.0
C410 C 0.6436 0.4455 0.90236 0.0
O411 O 0.55371 0.36832 0.85349 0.0
O412 O 0.57864 0.42263 0.85243 0.0
O413 O 0.62849 0.35358 0.94187 0.0
O414 O 0.57409 0.35253 0.91715 0.0
C415 C 0.69591 0.39364 0.8422 0.0
O416 O 0.64248 0.44269 0.86799 0.0
O417 O 0.64408 0.41746 0.92211 0.0
C418 C 0.5507 0.40267 0.85267 0.0
O419 O 0.66784 0.39362 0.82243 0.0
O420 O 0.69315 0.39228 0.87656 0.0
C421 C 0.65344 0.3003 0.89226 0.0
Fe422 Fe 0.83696 0.37422 0.08947 0.0
Fe423 Fe 0.87119 0.40848 0.15731 0.0
O424 O 0.87117 0.37447 0.12328 0.0
Fe425 Fe 0.90536 0.34071 0.12305 0.0
O426 O 0.92068 0.35444 0.07828 0.0
O427 O 0.86625 0.35523 0.05362 0.0
O428 O 0.85024 0.419 0.07371 0.0
C429 C 0.85028 0.44696 0.09365 0.0
C430 C 0.84166 0.30162 0.10317 0.0
O431 O 0.8516 0.444 0.128 0.0
C432 C 0.89218 0.34484 0.19577 0.0
O433 O 0.8014 0.39317 0.11913 0.0
O434 O 0.82669 0.39453 0.17327 0.0
O435 O 0.87599 0.30483 0.10405 0.0
O436 O 0.82159 0.32944 0.10318 0.0
C437 C 0.94374 0.40481 0.14312 0.0
O438 O 0.89079 0.37918 0.19284 0.0
O439 O 0.89215 0.32491 0.16781 0.0
C440 C 0.79862 0.39428 0.1535 0.0
O441 O 0.91567 0.42453 0.14342 0.0
O442 O 0.94097 0.37043 0.14201 0.0
C443 C 0.90058 0.35437 0.05044 0.0
Fe444 Fe 0.83766 0.62445 0.40709 0.0
Fe445 Fe 0.90541 0.6587 0.37292 0.0
O446 O 0.87155 0.62454 0.37304 0.0
Fe447 Fe 0.87159 0.59047 0.33909 0.0
O448 O 0.82687 0.60394 0.32339 0.0
O449 O 0.802 0.60508 0.37769 0.0
O450 O 0.82174 0.66901 0.39342 0.0
C451 C 0.84152 0.69707 0.39321 0.0
C452 C 0.85156 0.55187 0.40294 0.0
O453 O 0.87588 0.69429 0.39209 0.0
C454 C 0.9442 0.59499 0.35275 0.0
O455 O 0.86715 0.64382 0.44269 0.0
O456 O 0.92131 0.64524 0.41757 0.0
O457 O 0.85254 0.55479 0.36858 0.0
O458 O 0.8515 0.57986 0.42283 0.0
C459 C 0.89158 0.65424 0.30033 0.0
O460 O 0.94111 0.62934 0.35374 0.0
O461 O 0.91631 0.57495 0.35275 0.0
C462 C 0.90151 0.64505 0.44557 0.0
O463 O 0.89158 0.67424 0.32824 0.0
O464 O 0.89064 0.61989 0.30338 0.0
C465 C 0.79896 0.604 0.34333 0.0
Fe466 Fe 0.90389 0.83892 0.87247 0.0
Fe467 Fe 0.83617 0.87321 0.90655 0.0
O468 O 0.87016 0.87312 0.87259 0.0
Fe469 Fe 0.87045 0.90727 0.83879 0.0
O470 O 0.91522 0.92262 0.85261 0.0
O471 O 0.9398 0.8682 0.85347 0.0
O472 O 0.9197 0.85235 0.9172 0.0
C473 C 0.8998 0.8525 0.94514 0.0
C474 C 0.89034 0.84347 0.79986 0.0
O475 O 0.86546 0.85367 0.94215 0.0
C476 C 0.79772 0.89422 0.84282 0.0
O477 O 0.87417 0.80339 0.89147 0.0
O478 O 0.82009 0.8287 0.89264 0.0
O479 O 0.88941 0.87782 0.803 0.0
O480 O 0.89015 0.82344 0.82771 0.0
C481 C 0.85059 0.94575 0.9028 0.0
O482 O 0.80067 0.89283 0.87717 0.0
O483 O 0.82567 0.89403 0.82294 0.0
C484 C 0.8398 0.80062 0.89257 0.0
O485 O 0.8502 0.9177 0.92254 0.0
O486 O 0.85158 0.94294 0.86843 0.0
C487 C 0.94302 0.90254 0.85264 0.0
Fe488 Fe 0.87262 0.08995 0.65559 0.0
Fe489 Fe 0.83906 0.12378 0.58734 0.0
O490 O 0.87292 0.12379 0.62149 0.0
Fe491 Fe 0.90704 0.15769 0.62157 0.0
O492 O 0.89321 0.17366 0.66609 0.0
O493 O 0.89174 0.11951 0.69127 0.0
O494 O 0.82797 0.10385 0.67104 0.0
C495 C 0.8001 0.10401 0.65101 0.0
C496 C 0.9453 0.09384 0.64242 0.0
O497 O 0.80318 0.10483 0.61667 0.0
C498 C 0.90312 0.14378 0.54898 0.0
O499 O 0.85338 0.05422 0.62614 0.0
O500 O 0.85256 0.079 0.57179 0.0
O501 O 0.94248 0.1282 0.6411 0.0
O502 O 0.91727 0.07401 0.64225 0.0
C503 C 0.8435 0.19644 0.60101 0.0
O504 O 0.86875 0.14276 0.55179 0.0
O505 O 0.92292 0.14379 0.57704 0.0
C506 C 0.85233 0.05112 0.59179 0.0
O507 O 0.82349 0.16854 0.60084 0.0
O508 O 0.87783 0.19338 0.60211 0.0
C509 C 0.89281 0.15388 0.69411 0.0
Fe510 Fe 0.6205 0.091 0.33907 0.0
Fe511 Fe 0.65422 0.12448 0.40753 0.0
O512 O 0.62045 0.1248 0.37329 0.0
Fe513 Fe 0.58663 0.15894 0.37326 0.0
O514 O 0.60068 0.17488 0.32882 0.0
O515 O 0.60169 0.12074 0.30348 0.0
O516 O 0.66532 0.10458 0.32375 0.0
C517 C 0.69315 0.10447 0.34386 0.0
C518 C 0.54783 0.0954 0.35228 0.0
O519 O 0.68998 0.10536 0.3782 0.0
C520 C 0.59024 0.14473 0.44581 0.0
O521 O 0.63934 0.05509 0.3684 0.0
O522 O 0.64028 0.07975 0.42284 0.0
O523 O 0.55096 0.12974 0.35359 0.0
O524 O 0.57567 0.07537 0.3523 0.0
C525 C 0.65047 0.19721 0.39425 0.0
O526 O 0.62461 0.14354 0.4431 0.0
O527 O 0.57053 0.14507 0.4177 0.0
C528 C 0.64025 0.05191 0.40273 0.0
O529 O 0.67023 0.16918 0.39431 0.0
O530 O 0.61611 0.19439 0.39294 0.0
C531 C 0.60085 0.15512 0.30074 0.0
Fe532 Fe 0.58646 0.8405 0.12386 0.0
Fe533 Fe 0.65473 0.87416 0.09017 0.0
O534 O 0.6206 0.87439 0.12398 0.0
Fe535 Fe 0.62059 0.9085 0.1579 0.0
O536 O 0.57605 0.92432 0.14397 0.0
O537 O 0.55086 0.87012 0.14283 0.0
O538 O 0.57097 0.8541 0.0791 0.0
C539 C 0.591 0.85407 0.05125 0.0
C540 C 0.60001 0.84484 0.19654 0.0
O541 O 0.62534 0.85499 0.0544 0.0
C542 C 0.69317 0.89454 0.15413 0.0
O543 O 0.6158 0.80468 0.10486 0.0
O544 O 0.67018 0.82946 0.10399 0.0
O545 O 0.60116 0.8792 0.19352 0.0
O546 O 0.5999 0.82486 0.16861 0.0
C547 C 0.64135 0.94686 0.09411 0.0
O548 O 0.69035 0.8933 0.11977 0.0
O549 O 0.66514 0.89479 0.1739 0.0
C550 C 0.65014 0.80157 0.10396 0.0
O551 O 0.64138 0.91883 0.07427 0.0
O552 O 0.64004 0.94403 0.12847 0.0
C553 C 0.54802 0.90449 0.14377 0.0
Fe554 Fe 0.4059 0.65844 0.12306 0.0
Fe555 Fe 0.33775 0.62463 0.08905 0.0
O556 O 0.37176 0.62455 0.12306 0.0
Fe557 Fe 0.37161 0.59061 0.15707 0.0
O558 O 0.41619 0.57469 0.14346 0.0
O559 O 0.44143 0.62887 0.14225 0.0
O560 O 0.42153 0.6447 0.07838 0.0
C561 C 0.4016 0.64466 0.05042 0.0
C562 C 0.39212 0.6544 0.19569 0.0
O563 O 0.36725 0.64365 0.05339 0.0
C564 C 0.29906 0.60464 0.15284 0.0
O565 O 0.37661 0.69419 0.10389 0.0
O566 O 0.32224 0.66939 0.10267 0.0
O567 O 0.39093 0.62004 0.19273 0.0
O568 O 0.39236 0.67427 0.16773 0.0
C569 C 0.35108 0.55194 0.0933 0.0
O570 O 0.30202 0.60563 0.11849 0.0
O571 O 0.32701 0.60446 0.17277 0.0
C572 C 0.34228 0.69728 0.10281 0.0
O573 O 0.35116 0.57986 0.07335 0.0
O574 O 0.35224 0.55497 0.12765 0.0
C575 C 0.44424 0.5945 0.14336 0.0
Fe576 Fe 0.12258 0.5911 0.83925 0.0
Fe577 Fe 0.15635 0.62503 0.90746 0.0
O578 O 0.12259 0.62517 0.8732 0.0
Fe579 Fe 0.08885 0.65938 0.87291 0.0
O580 O 0.10284 0.6749 0.82829 0.0
O581 O 0.10385 0.62056 0.80339 0.0
O582 O 0.16747 0.60443 0.82387 0.0
C583 C 0.19527 0.6043 0.84402 0.0
C584 C 0.0499 0.59574 0.85247 0.0
O585 O 0.19205 0.60548 0.87835 0.0
C586 C 0.0925 0.64582 0.9456 0.0
O587 O 0.14127 0.5554 0.86891 0.0
O588 O 0.14221 0.5805 0.92316 0.0
O589 O 0.05308 0.63008 0.85356 0.0
O590 O 0.07772 0.57567 0.85256 0.0
C591 C 0.15285 0.69764 0.89348 0.0
O592 O 0.12685 0.64455 0.94287 0.0
O593 O 0.07276 0.64596 0.9175 0.0
C594 C 0.14202 0.55249 0.90328 0.0
O595 O 0.17253 0.66954 0.89383 0.0
O596 O 0.11848 0.69491 0.89219 0.0
C597 C 0.10289 0.65492 0.80037 0.0
Fe598 Fe 0.1564 0.3754 0.58974 0.0
Fe599 Fe 0.088 0.34173 0.62314 0.0
O600 O 0.12216 0.37559 0.62344 0.0
Fe601 Fe 0.12207 0.40964 0.65742 0.0
O602 O 0.16654 0.39581 0.67354 0.0
O603 O 0.19192 0.3945 0.61949 0.0
O604 O 0.17181 0.3307 0.60355 0.0
C605 C 0.15177 0.30282 0.60346 0.0
C606 C 0.14291 0.44808 0.59376 0.0
O607 O 0.11743 0.30592 0.60425 0.0
C608 C 0.04955 0.40574 0.64305 0.0
O609 O 0.12716 0.35626 0.55382 0.0
O610 O 0.0727 0.35537 0.57832 0.0
O611 O 0.14166 0.44519 0.62811 0.0
O612 O 0.14305 0.42009 0.57387 0.0
C613 C 0.10114 0.34597 0.69589 0.0
O614 O 0.05235 0.37137 0.64198 0.0
O615 O 0.0776 0.42554 0.64338 0.0
C616 C 0.09283 0.35529 0.55054 0.0
O617 O 0.10121 0.32602 0.66794 0.0
O618 O 0.10245 0.38032 0.69293 0.0
C619 C 0.19464 0.39552 0.65387 0.0
Fe620 Fe 0.65521 0.62439 0.58922 0.0
Fe621 Fe 0.62182 0.59055 0.65752 0.0
O622 O 0.6214 0.62434 0.62336 0.0
Fe623 Fe 0.5872 0.65809 0.62335 0.0
O624 O 0.57132 0.6441 0.5788 0.0
O625 O 0.62545 0.64316 0.5536 0.0
O626 O 0.64177 0.57951 0.57378 0.0
C627 C 0.64206 0.55168 0.59384 0.0
C628 C 0.65064 0.69708 0.60261 0.0
O629 O 0.64112 0.55486 0.62818 0.0
C630 C 0.60129 0.65442 0.69594 0.0
O631 O 0.69115 0.60567 0.61861 0.0
O632 O 0.66646 0.60468 0.67299 0.0
O633 O 0.61632 0.69388 0.60388 0.0
O634 O 0.67071 0.66926 0.60259 0.0
C635 C 0.54911 0.59408 0.64415 0.0
O636 O 0.60261 0.62005 0.69312 0.0
O637 O 0.60097 0.67417 0.6679 0.0
C638 C 0.69431 0.60486 0.65296 0.0
O639 O 0.5772 0.57438 0.64415 0.0
O640 O 0.55184 0.62846 0.64282 0.0
C641 C 0.59109 0.64409 0.55076 0.0
Fe642 Fe 0.40483 0.34112 0.37257 0.0
Fe643 Fe 0.37105 0.40922 0.3387 0.0
O644 O 0.37091 0.37515 0.37258 0.0
Fe645 Fe 0.33686 0.37512 0.40649 0.0
O646 O 0.32109 0.33045 0.39273 0.0
O647 O 0.3753 0.30543 0.39155 0.0
O648 O 0.39127 0.32551 0.32777 0.0
C649 C 0.39139 0.34552 0.2999 0.0
C650 C 0.40055 0.35474 0.44524 0.0
O651 O 0.39031 0.37986 0.30301 0.0
C652 C 0.35069 0.44777 0.40251 0.0
O653 O 0.44057 0.3706 0.35362 0.0
O654 O 0.41571 0.4249 0.35257 0.0
O655 O 0.36621 0.35591 0.4422 0.0
O656 O 0.4205 0.35464 0.41733 0.0
C657 C 0.29842 0.39546 0.34259 0.0
O658 O 0.35183 0.44484 0.36816 0.0
O659 O 0.35053 0.41979 0.42235 0.0
C660 C 0.44361 0.40495 0.35269 0.0
O661 O 0.32641 0.3956 0.32277 0.0
O662 O 0.3013 0.39433 0.37695 0.0
C663 C 0.34095 0.30248 0.39267 0.0
C664 C 0.07843 0.22472 0.26601 0.0
C665 C 0.06485 0.20286 0.29426 0.0
H666 H 0.10043 0.2264 0.21214 0.0
C667 C 0.06724 0.16485 0.29119 0.0
H668 H 0.07704 0.25413 0.26769 0.0
C669 C 0.08082 0.14893 0.25946 0.0
C670 C 0.0919 0.17077 0.23005 0.0
H671 H 0.05716 0.14734 0.31266 0.0
H672 H 0.08081 0.11952 0.25732 0.0
C673 C 0.09171 0.20882 0.23413 0.0
C674 C 0.02186 0.83126 0.51764 0.0
C675 C 0.04399 0.81696 0.54534 0.0
H676 H 0.01963 0.85468 0.46439 0.0
C677 C 0.08196 0.81944 0.54199 0.0
H678 H 0.99247 0.82983 0.51956 0.0
C679 C 0.09755 0.83388 0.51048 0.0
C680 C 0.07542 0.84574 0.48158 0.0
H681 H 0.09967 0.80881 0.56303 0.0
H682 H 0.12693 0.83393 0.50807 0.0
C683 C 0.03742 0.8454 0.48599 0.0
C684 C 0.42698 0.83527 0.79231 0.0
C685 C 0.42922 0.79725 0.79539 0.0
H686 H 0.41287 0.88056 0.75867 0.0
C687 C 0.4149 0.77538 0.76744 0.0
H688 H 0.43763 0.85278 0.81355 0.0
C689 C 0.40098 0.79124 0.73583 0.0
C690 C 0.40087 0.82928 0.73171 0.0
H691 H 0.41615 0.74596 0.76914 0.0
H692 H 0.39167 0.77364 0.71404 0.0
C693 C 0.41275 0.85115 0.76085 0.0
C694 C 0.41283 0.18123 0.04166 0.0
C695 C 0.4508 0.18434 0.04448 0.0
H696 H 0.36756 0.16619 0.0083 0.0
C697 C 0.47271 0.1708 0.01625 0.0
H698 H 0.3953 0.19127 0.06312 0.0
C699 C 0.45686 0.15671 0.98465 0.0
C700 C 0.4188 0.15562 0.98085 0.0
H701 H 0.50209 0.17277 0.01773 0.0
H702 H 0.47445 0.14799 0.96266 0.0
C703 C 0.39697 0.16681 0.01023 0.0
C704 C 0.07733 0.77521 0.22886 0.0
C705 C 0.06286 0.79716 0.20112 0.0
H706 H 0.1008 0.77331 0.28215 0.0
C707 C 0.06499 0.83517 0.20447 0.0
H708 H 0.07617 0.7458 0.22695 0.0
C709 C 0.07931 0.85096 0.23599 0.0
C710 C 0.0914 0.82899 0.26492 0.0
H711 H 0.05422 0.85274 0.1834 0.0
H712 H 0.07913 0.88035 0.23839 0.0
C713 C 0.09135 0.79097 0.26053 0.0
C714 C 0.47114 0.83172 0.47942 0.0
C715 C 0.44903 0.81733 0.45169 0.0
H716 H 0.47331 0.85538 0.53262 0.0
C717 C 0.41106 0.81995 0.4549 0.0
H718 H 0.50052 0.83021 0.4776 0.0
C719 C 0.39544 0.83458 0.48631 0.0
C720 C 0.41753 0.84651 0.51526 0.0
H721 H 0.39337 0.80928 0.43382 0.0
H722 H 0.36606 0.83472 0.48862 0.0
C723 C 0.45554 0.84605 0.51098 0.0
C724 C 0.41314 0.22527 0.72849 0.0
C725 C 0.42701 0.20317 0.70054 0.0
H726 H 0.39039 0.22738 0.78204 0.0
C727 C 0.42424 0.16519 0.70368 0.0
H728 H 0.41476 0.25466 0.72673 0.0
C729 C 0.41008 0.14954 0.73528 0.0
C730 C 0.39879 0.1716 0.76447 0.0
H731 H 0.4345 0.14752 0.68243 0.0
H732 H 0.40987 0.12014 0.73752 0.0
C733 C 0.39927 0.20963 0.76023 0.0
C734 C 0.0195 0.16856 0.97795 0.0
C735 C 0.04158 0.1826 0.9501 0.0
H736 H 0.01742 0.14514 0.03121 0.0
C737 C 0.07954 0.17959 0.95314 0.0
H738 H 0.99012 0.17039 0.97626 0.0
C739 C 0.0952 0.16491 0.9845 0.0
C740 C 0.07318 0.15332 0.01358 0.0
H741 H 0.09721 0.18998 0.93196 0.0
H742 H 0.1246 0.16445 0.98666 0.0
C743 C 0.03515 0.15418 0.00947 0.0
C744 C 0.26446 0.08162 0.22145 0.0
C745 C 0.29224 0.06731 0.19945 0.0
H746 H 0.21105 0.10468 0.22344 0.0
C747 C 0.28885 0.0694 0.16145 0.0
H748 H 0.26641 0.08049 0.25085 0.0
C749 C 0.25724 0.08347 0.14572 0.0
C750 C 0.22827 0.09533 0.16773 0.0
H751 H 0.30995 0.05875 0.14384 0.0
H752 H 0.25481 0.08323 0.11633 0.0
C753 C 0.2327 0.09538 0.20574 0.0
C754 C 0.17632 0.04409 0.41346 0.0
C755 C 0.179 0.04722 0.45145 0.0
H756 H 0.16172 0.01037 0.3683 0.0
C757 C 0.16497 0.01929 0.47344 0.0
H758 H 0.18673 0.06533 0.39587 0.0
C759 C 0.1509 0.98763 0.45769 0.0
C760 C 0.15035 0.98346 0.41966 0.0
H761 H 0.16656 0.02103 0.50284 0.0
H762 H 0.14184 0.96584 0.47536 0.0
C763 C 0.16194 0.01259 0.3977 0.0
C764 C 0.22752 0.91781 0.72422 0.0
C765 C 0.19943 0.93175 0.70236 0.0
H766 H 0.28114 0.89521 0.72593 0.0
C767 C 0.2025 0.92944 0.66434 0.0
H768 H 0.22583 0.91912 0.75363 0.0
C769 C 0.23408 0.91554 0.64845 0.0
C770 C 0.26334 0.90406 0.6703 0.0
H771 H 0.18115 0.93979 0.64684 0.0
H772 H 0.23623 0.9156 0.61904 0.0
C773 C 0.25925 0.90421 0.70834 0.0
C774 C 0.3293 0.98136 0.97395 0.0
C775 C 0.31577 0.95313 0.95194 0.0
H776 H 0.35182 0.03507 0.97588 0.0
C777 C 0.31889 0.95597 0.91398 0.0
H778 H 0.32738 0.97984 0.00334 0.0
C779 C 0.33309 0.98751 0.89822 0.0
C780 C 0.34407 0.01696 0.92016 0.0
H781 H 0.3089 0.9345 0.89636 0.0
H782 H 0.3336 0.9895 0.86881 0.0
C783 C 0.34321 0.01305 0.95821 0.0
C784 C 0.28947 0.93105 0.33232 0.0
C785 C 0.29245 0.93346 0.29431 0.0
H786 H 0.256 0.91663 0.37762 0.0
C787 C 0.26449 0.91915 0.27244 0.0
H788 H 0.31072 0.94169 0.34982 0.0
C789 C 0.23297 0.90505 0.28832 0.0
C790 C 0.22896 0.90473 0.32637 0.0
H791 H 0.26612 0.92053 0.24304 0.0
H792 H 0.21117 0.89574 0.27074 0.0
C793 C 0.2581 0.91664 0.34822 0.0
C794 C 0.32796 0.0198 0.52375 0.0
C795 C 0.31366 0.04763 0.54571 0.0
H796 H 0.35124 0.96647 0.52183 0.0
C797 C 0.31601 0.04445 0.58371 0.0
H798 H 0.32664 0.02159 0.49434 0.0
C799 C 0.3303 0.01297 0.59949 0.0
C800 C 0.34215 0.98393 0.57752 0.0
H801 H 0.30539 0.0656 0.6013 0.0
H802 H 0.33025 0.01069 0.62888 0.0
C803 C 0.34195 0.98817 0.5395 0.0
C804 C 0.20304 0.0673 0.83508 0.0
C805 C 0.19918 0.0655 0.7971 0.0
H806 H 0.2374 0.08146 0.87991 0.0
C807 C 0.22643 0.08054 0.77492 0.0
H808 H 0.18236 0.05607 0.85283 0.0
C809 C 0.25812 0.09483 0.79037 0.0
C810 C 0.26302 0.0946 0.82832 0.0
H811 H 0.22412 0.07965 0.74554 0.0
H812 H 0.27937 0.10474 0.77251 0.0
C813 C 0.23458 0.0819 0.85057 0.0
C814 C 0.17644 0.95565 0.08226 0.0
C815 C 0.1796 0.95249 0.04431 0.0
H816 H 0.16084 0.98919 0.12716 0.0
C817 C 0.16532 0.98011 0.02208 0.0
H818 H 0.18701 0.93465 0.10003 0.0
C819 C 0.15055 0.01153 0.03758 0.0
C820 C 0.14955 0.01578 0.0756 0.0
H821 H 0.16724 0.97833 0.99271 0.0
H822 H 0.14133 0.03311 0.01974 0.0
C823 C 0.16138 0.98691 0.09776 0.0
C824 C 0.21985 0.26847 0.07926 0.0
C825 C 0.19791 0.29647 0.0653 0.0
H826 H 0.22172 0.21484 0.10184 0.0
C827 C 0.15991 0.29322 0.06754 0.0
H828 H 0.24925 0.2703 0.078 0.0
C829 C 0.14411 0.26154 0.08139 0.0
C830 C 0.16605 0.23237 0.0929 0.0
H831 H 0.14235 0.31449 0.05716 0.0
H832 H 0.11472 0.25924 0.08128 0.0
C833 C 0.20407 0.23665 0.09281 0.0
C834 C 0.66335 0.20418 0.92743 0.0
C835 C 0.70129 0.20115 0.93061 0.0
H836 H 0.61839 0.23773 0.91216 0.0
C837 C 0.72346 0.22903 0.91673 0.0
H838 H 0.64562 0.18297 0.93769 0.0
C839 C 0.70791 0.26058 0.90234 0.0
C840 C 0.66989 0.2647 0.90134 0.0
H841 H 0.75283 0.22735 0.91869 0.0
H842 H 0.7257 0.28235 0.89343 0.0
C843 C 0.64779 0.23558 0.91274 0.0
C844 C 0.01498 0.47543 0.16648 0.0
C845 C 0.04316 0.4535 0.1801 0.0
H846 H 0.96134 0.4772 0.14384 0.0
C847 C 0.04024 0.41551 0.17714 0.0
H848 H 0.01656 0.50482 0.16828 0.0
C849 C 0.00871 0.39966 0.16294 0.0
C850 C 0.97935 0.42153 0.1518 0.0
H851 H 0.06167 0.39796 0.18723 0.0
H852 H 0.00668 0.37025 0.16252 0.0
C853 C 0.9833 0.45959 0.15257 0.0
C854 C 0.77088 0.7683 0.41594 0.0
C855 C 0.79271 0.7964 0.43003 0.0
H856 H 0.76923 0.71477 0.393 0.0
C857 C 0.83072 0.79344 0.42764 0.0
H858 H 0.74148 0.76991 0.41731 0.0
C859 C 0.84665 0.76195 0.41352 0.0
C860 C 0.82484 0.73267 0.40189 0.0
H861 H 0.8482 0.81479 0.43811 0.0
H862 H 0.87605 0.75986 0.41353 0.0
C863 C 0.78679 0.73667 0.40212 0.0
C864 C 0.95144 0.08424 0.17839 0.0
C865 C 0.94827 0.04627 0.18126 0.0
H866 H 0.98503 0.12927 0.16322 0.0
C867 C 0.97599 0.02415 0.16702 0.0
H868 H 0.93037 0.10195 0.18895 0.0
C869 C 0.00748 0.03975 0.15252 0.0
C870 C 0.0117 0.07779 0.15176 0.0
H871 H 0.97421 0.99476 0.16874 0.0
H872 H 0.0291 0.02199 0.14329 0.0
C873 C 0.98277 0.09987 0.16359 0.0
C874 C 0.27181 0.73131 0.57963 0.0
C875 C 0.29386 0.70361 0.56524 0.0
H876 H 0.26973 0.78455 0.6032 0.0
C877 C 0.33184 0.70694 0.56769 0.0
H878 H 0.24242 0.7294 0.57823 0.0
C879 C 0.34751 0.73842 0.58221 0.0
C880 C 0.32547 0.76733 0.59418 0.0
H881 H 0.34949 0.68589 0.557 0.0
H882 H 0.3769 0.74081 0.58224 0.0
C883 C 0.28746 0.76295 0.59385 0.0
C884 C 0.01581 0.52501 0.3293 0.0
C885 C 0.04356 0.54712 0.31507 0.0
H886 H 0.96253 0.52284 0.35263 0.0
C887 C 0.04031 0.58511 0.31765 0.0
H888 H 0.01766 0.49562 0.32781 0.0
C889 C 0.00883 0.60073 0.33207 0.0
C890 C 0.97986 0.57863 0.34383 0.0
H891 H 0.0614 0.6028 0.30709 0.0
H892 H 0.00649 0.63012 0.33218 0.0
C893 C 0.98418 0.54061 0.34343 0.0
C894 C 0.47882 0.47295 0.83097 0.0
C895 C 0.45078 0.451 0.81697 0.0
H896 H 0.53252 0.47485 0.85347 0.0
C897 C 0.45401 0.41299 0.81913 0.0
H898 H 0.477 0.50236 0.82979 0.0
C899 C 0.48572 0.3972 0.83289 0.0
C900 C 0.51494 0.41917 0.84438 0.0
H901 H 0.4327 0.39541 0.80873 0.0
H902 H 0.48801 0.36781 0.83269 0.0
C903 C 0.51068 0.45719 0.84443 0.0
C904 C 0.91482 0.77354 0.72841 0.0
C905 C 0.92922 0.79571 0.70082 0.0
H906 H 0.89093 0.77128 0.78145 0.0
C907 C 0.92639 0.83368 0.70406 0.0
H908 H 0.91648 0.74415 0.72656 0.0
C909 C 0.91154 0.84925 0.73539 0.0
C910 C 0.8996 0.82711 0.76424 0.0
H911 H 0.93706 0.85142 0.68307 0.0
H912 H 0.91125 0.87864 0.73774 0.0
C913 C 0.90026 0.78909 0.7599 0.0
C914 C 0.97355 0.16812 0.47809 0.0
C915 C 0.95158 0.1823 0.45021 0.0
H916 H 0.97543 0.14454 0.53129 0.0
C917 C 0.9136 0.17937 0.4531 0.0
H918 H 0.00294 0.16988 0.47651 0.0
C919 C 0.89782 0.16464 0.48436 0.0
C920 C 0.91974 0.15292 0.51348 0.0
H921 H 0.89602 0.18987 0.43189 0.0
H922 H 0.86842 0.16426 0.48642 0.0
C923 C 0.95778 0.15368 0.50951 0.0
C924 C 0.57819 0.2258 0.22952 0.0
C925 C 0.56439 0.20393 0.20132 0.0
H926 H 0.60081 0.22748 0.28319 0.0
C927 C 0.56697 0.16592 0.20421 0.0
H928 H 0.57668 0.2552 0.22796 0.0
C929 C 0.58099 0.15001 0.23575 0.0
C930 C 0.59233 0.17185 0.26513 0.0
H931 H 0.55673 0.14841 0.18277 0.0
H932 H 0.58113 0.1206 0.23777 0.0
C933 C 0.59192 0.20991 0.26121 0.0
C934 C 0.58108 0.81941 0.95487 0.0
C935 C 0.5431 0.81687 0.95152 0.0
H936 H 0.62609 0.83376 0.98888 0.0
C937 C 0.52101 0.83093 0.97935 0.0
H938 H 0.59876 0.80898 0.93372 0.0
C939 C 0.53661 0.84488 0.01112 0.0
C940 C 0.57462 0.84526 0.01551 0.0
H941 H 0.49162 0.82946 0.97744 0.0
H942 H 0.51885 0.85397 0.03282 0.0
C943 C 0.5967 0.83366 0.98649 0.0
C944 C 0.91482 0.22461 0.76567 0.0
C945 C 0.92862 0.2028 0.79386 0.0
H946 H 0.89244 0.2262 0.71191 0.0
C947 C 0.92628 0.16478 0.7908 0.0
H948 H 0.91616 0.25402 0.76735 0.0
C949 C 0.9125 0.14881 0.75914 0.0
C950 C 0.90117 0.1706 0.7298 0.0
H951 H 0.93654 0.14732 0.81222 0.0
H952 H 0.91255 0.1194 0.757 0.0
C953 C 0.90134 0.20866 0.73387 0.0
C954 C 0.57956 0.17913 0.54217 0.0
C955 C 0.54158 0.18204 0.54499 0.0
H956 H 0.62482 0.16445 0.50875 0.0
C957 C 0.51966 0.16822 0.51683 0.0
H958 H 0.59711 0.18936 0.56358 0.0
C959 C 0.53549 0.1542 0.48525 0.0
C960 C 0.57354 0.15349 0.48137 0.0
H961 H 0.49027 0.16998 0.51834 0.0
H962 H 0.51789 0.14533 0.46328 0.0
C963 C 0.59541 0.16481 0.51073 0.0
C964 C 0.56528 0.83471 0.2928 0.0
C965 C 0.56292 0.79671 0.29605 0.0
H966 H 0.57944 0.87983 0.25893 0.0
C967 C 0.57709 0.77469 0.26819 0.0
H968 H 0.55475 0.85234 0.31396 0.0
C969 C 0.59097 0.79039 0.23649 0.0
C970 C 0.5912 0.82841 0.2322 0.0
H971 H 0.57574 0.74529 0.27002 0.0
H972 H 0.60016 0.77268 0.21478 0.0
C973 C 0.57947 0.85043 0.26125 0.0
C974 C 0.97015 0.83027 0.01689 0.0
C975 C 0.94826 0.81592 0.04474 0.0
H976 H 0.97194 0.85332 0.96346 0.0
C977 C 0.91025 0.81783 0.0414 0.0
H978 H -0.00045 0.82926 0.01879 0.0
C979 C 0.89441 0.83182 0.00981 0.0
C980 C 0.91632 0.84378 0.9808 0.0
H981 H 0.89273 0.80713 0.06255 0.0
H982 H 0.86502 0.83147 0.00743 0.0
C983 C 0.95433 0.84394 0.98515 0.0
C984 C 0.72663 0.91906 0.77266 0.0
C985 C 0.69926 0.93412 0.79467 0.0
H986 H 0.77931 0.89436 0.77066 0.0
C987 C 0.70254 0.9318 0.83266 0.0
H988 H 0.72475 0.92034 0.74326 0.0
C989 C 0.73367 0.91668 0.84839 0.0
C990 C 0.76228 0.90397 0.82638 0.0
H991 H 0.68174 0.94301 0.85028 0.0
H992 H 0.73606 0.91675 0.87778 0.0
C993 C 0.75792 0.90425 0.78836 0.0
C994 C 0.81589 0.95538 0.5818 0.0
C995 C 0.8132 0.95214 0.54382 0.0
H996 H 0.831 0.98905 0.62684 0.0
C997 C 0.82774 0.97973 0.52174 0.0
H998 H 0.80509 0.93441 0.59948 0.0
C999 C 0.84235 0.0112 0.53737 0.0
C1000 C 0.84293 0.01553 0.57539 0.0
H1001 H 0.82618 0.97788 0.49235 0.0
H1002 H 0.85182 0.03275 0.51961 0.0
C1003 C 0.83079 0.9867 0.59745 0.0
C1004 C 0.76496 0.08138 0.27393 0.0
C1005 C 0.79271 0.06716 0.29603 0.0
H1006 H 0.71162 0.10459 0.27174 0.0
C1007 C 0.78937 0.06958 0.33402 0.0
H1008 H 0.76686 0.08 0.24454 0.0
C1009 C 0.75782 0.08387 0.34963 0.0
C1010 C 0.72886 0.09564 0.32753 0.0
H1011 H 0.81046 0.05902 0.35171 0.0
H1012 H 0.75542 0.08387 0.37902 0.0
C1013 C 0.73326 0.09537 0.28952 0.0
C1014 C 0.67708 0.04281 0.08374 0.0
C1015 C 0.67967 0.04585 0.04575 0.0
H1016 H 0.66232 0.00929 0.12892 0.0
C1017 C 0.66533 0.01799 0.02377 0.0
H1018 H 0.68773 0.06398 0.10133 0.0
C1019 C 0.65103 0.98649 0.03952 0.0
C1020 C 0.65054 0.98239 0.07756 0.0
H1021 H 0.66685 0.01966 0.99437 0.0
H1022 H 0.64171 0.96475 0.02186 0.0
C1023 C 0.66246 0.01146 0.09951 0.0
C1024 C 0.70362 0.06983 0.66142 0.0
C1025 C 0.70028 0.06811 0.69944 0.0
H1026 H 0.73767 0.08311 0.61618 0.0
C1027 C 0.72817 0.08255 0.7213 0.0
H1028 H 0.68244 0.05908 0.6439 0.0
C1029 C 0.75997 0.09605 0.70547 0.0
C1030 C 0.76434 0.09562 0.66747 0.0
H1031 H 0.72627 0.0817 0.75071 0.0
H1032 H 0.78169 0.10546 0.72309 0.0
C1033 C 0.73528 0.08364 0.64556 0.0
C1034 C 0.66358 0.98007 0.47255 0.0
C1035 C 0.67782 0.95236 0.45039 0.0
H1036 H 0.64026 0.03337 0.47483 0.0
C1037 C 0.67527 0.9557 0.41242 0.0
H1038 H 0.66504 0.97815 0.50194 0.0
C1039 C 0.66087 0.98724 0.39686 0.0
C1040 C 0.6491 0.01617 0.41901 0.0
H1041 H 0.68584 0.93464 0.39469 0.0
H1042 H 0.66079 0.98965 0.36748 0.0
C1043 C 0.64947 0.01175 0.45701 0.0
C1044 C 0.78949 0.9292 0.16456 0.0
C1045 C 0.79248 0.93219 0.20254 0.0
H1046 H 0.7559 0.91433 0.1194 0.0
C1047 C 0.76444 0.91842 0.22454 0.0
H1048 H 0.81081 0.9394 0.14695 0.0
C1049 C 0.7328 0.9043 0.2088 0.0
C1050 C 0.72877 0.90346 0.17075 0.0
H1051 H 0.76608 0.92025 0.25393 0.0
H1052 H 0.71094 0.89545 0.22647 0.0
C1053 C 0.75801 0.91478 0.14881 0.0
C1054 C 0.82807 0.01709 0.97349 0.0
C1055 C 0.81439 0.04529 0.95162 0.0
H1056 H 0.85049 0.96339 0.97516 0.0
C1057 C 0.81706 0.04235 0.91362 0.0
H1058 H 0.82648 0.01869 0.00289 0.0
C1059 C 0.83101 0.01078 0.89771 0.0
C1060 C 0.84219 0.9814 0.91953 0.0
H1061 H 0.80692 0.06379 0.89612 0.0
H1062 H 0.8312 0.00872 0.8683 0.0
C1063 C 0.84172 0.98537 0.9576 0.0
C1064 C 0.76935 0.72975 0.9172 0.0
C1065 C 0.79135 0.70182 0.93119 0.0
H1066 H 0.76744 0.783 0.89373 0.0
C1067 C 0.82931 0.70468 0.92805 0.0
H1068 H 0.73997 0.7282 0.91913 0.0
C1069 C 0.84506 0.73595 0.91328 0.0
C1070 C 0.82314 0.76512 0.90174 0.0
H1071 H 0.84691 0.68343 0.9384 0.0
H1072 H 0.87447 0.73798 0.91272 0.0
C1073 C 0.78509 0.76119 0.90273 0.0
C1074 C 0.27239 0.76911 0.07965 0.0
C1075 C 0.29455 0.79703 0.06584 0.0
H1076 H 0.27013 0.71557 0.10241 0.0
C1077 C 0.33252 0.79377 0.06858 0.0
H1078 H 0.24301 0.77095 0.07802 0.0
C1079 C 0.34808 0.76213 0.08275 0.0
C1080 C 0.32594 0.73301 0.09409 0.0
H1081 H 0.35025 0.81498 0.05833 0.0
H1082 H 0.37746 0.75981 0.083 0.0
C1083 C 0.28793 0.73733 0.09353 0.0
C1084 C 0.95371 0.58584 0.81727 0.0
C1085 C 0.95029 0.54784 0.81487 0.0
H1086 H 0.98772 0.63087 0.83161 0.0
C1087 C 0.97802 0.52576 0.82916 0.0
H1088 H 0.93265 0.60351 0.80664 0.0
C1089 C 0.00973 0.54138 0.84322 0.0
C1090 C 0.01419 0.57939 0.84349 0.0
H1091 H 0.97606 0.49636 0.8278 0.0
H1092 H 0.03134 0.52361 0.85251 0.0
C1093 C 0.98528 0.60148 0.83162 0.0
C1094 C 0.16169 0.20657 0.56846 0.0
C1095 C 0.19966 0.20335 0.56591 0.0
H1096 H 0.11668 0.2404 0.58294 0.0
C1097 C 0.22176 0.23117 0.58014 0.0
H1098 H 0.14401 0.18543 0.55791 0.0
C1099 C 0.20615 0.26283 0.59424 0.0
C1100 C 0.16814 0.26712 0.59461 0.0
H1101 H 0.25115 0.22934 0.57867 0.0
H1102 H 0.22392 0.28453 0.60344 0.0
C1103 C 0.14606 0.23809 0.58286 0.0
C1104 C 0.03935 0.91264 0.81812 0.0
C1105 C 0.04286 0.95065 0.8163 0.0
H1106 H 0.00518 0.86751 0.83161 0.0
C1107 C 0.01514 0.97262 0.83077 0.0
H1108 H 0.0604 0.89505 0.80734 0.0
C1109 C 0.98334 0.9569 0.84442 0.0
C1110 C 0.9788 0.9189 0.8441 0.0
H1111 H 0.01717 0.00203 0.82986 0.0
H1112 H 0.96175 0.97459 0.85386 0.0
C1113 C 0.0077 0.89689 0.83207 0.0
C1114 C 0.72108 0.26857 0.41731 0.0
C1115 C 0.69928 0.29643 0.43178 0.0
H1116 H 0.7227 0.21524 0.39388 0.0
C1117 C 0.66126 0.29326 0.42968 0.0
H1118 H 0.75049 0.27034 0.41846 0.0
C1119 C 0.64531 0.26181 0.41538 0.0
C1120 C 0.66712 0.23277 0.40329 0.0
H1121 H 0.6438 0.31443 0.44046 0.0
H1122 H 0.61592 0.25955 0.41558 0.0
C1123 C 0.70515 0.23696 0.40333 0.0
C1124 C 0.95313 0.4162 0.67712 0.0
C1125 C 0.95018 0.45418 0.68003 0.0
H1126 H 0.98669 0.37101 0.66254 0.0
C1127 C 0.97829 0.47617 0.66632 0.0
H1128 H 0.93175 0.3986 0.68727 0.0
C1129 C 0.00994 0.46041 0.65241 0.0
C1130 C 0.01393 0.42236 0.65169 0.0
H1131 H 0.97669 0.50557 0.66809 0.0
H1132 H 0.03187 0.47807 0.64363 0.0
C1133 C 0.98462 0.40042 0.6629 0.0
C1134 C 0.51546 0.5241 0.16686 0.0
C1135 C 0.54353 0.54609 0.18073 0.0
H1136 H 0.46195 0.52218 0.14391 0.0
C1137 C 0.54056 0.58408 0.17794 0.0
H1138 H 0.51708 0.4947 0.16853 0.0
C1139 C 0.50908 0.59985 0.16364 0.0
C1140 C 0.47982 0.5779 0.15221 0.0
H1141 H 0.5619 0.60169 0.18824 0.0
H1142 H 0.507 0.62926 0.16334 0.0
C1143 C 0.48383 0.53985 0.15285 0.0
C1144 C 0.57762 0.72482 0.76722 0.0
C1145 C 0.56364 0.70282 0.79517 0.0
H1146 H 0.60074 0.72673 0.71382 0.0
C1147 C 0.5664 0.66483 0.79211 0.0
H1148 H 0.57597 0.75421 0.76891 0.0
C1149 C 0.58081 0.64906 0.76067 0.0
C1150 C 0.59235 0.67102 0.73152 0.0
H1151 H 0.55603 0.64723 0.81336 0.0
H1152 H 0.58108 0.61965 0.75851 0.0
C1153 C 0.59172 0.70907 0.73562 0.0
C1154 C 0.58382 0.31927 0.04168 0.0
C1155 C 0.54581 0.31773 0.04514 0.0
H1156 H 0.62904 0.33209 0.00743 0.0
C1157 C 0.52396 0.33207 0.01724 0.0
H1158 H 0.60132 0.30858 0.06287 0.0
C1159 C 0.53977 0.34525 0.98531 0.0
C1160 C 0.57775 0.3446 0.98083 0.0
H1161 H 0.49455 0.33136 0.01922 0.0
H1162 H 0.52216 0.35459 0.96359 0.0
C1163 C 0.59967 0.33277 0.0099 0.0
C1164 C 0.91641 0.27483 0.26715 0.0
C1165 C 0.93078 0.29695 0.29488 0.0
H1166 H 0.89269 0.27265 0.21397 0.0
C1167 C 0.92819 0.33493 0.29165 0.0
H1168 H 0.91793 0.24544 0.26897 0.0
C1169 C 0.91351 0.35055 0.26026 0.0
C1170 C 0.90152 0.32845 0.23134 0.0
H1171 H 0.93888 0.35263 0.31272 0.0
H1172 H 0.91335 0.37994 0.25796 0.0
C1173 C 0.90204 0.29043 0.2356 0.0
C1174 C 0.91212 0.6795 0.54197 0.0
C1175 C 0.95012 0.68212 0.54502 0.0
H1176 H 0.86686 0.66514 0.50828 0.0
C1177 C 0.97202 0.66819 0.51698 0.0
H1178 H 0.89459 0.68985 0.56329 0.0
C1179 C 0.95618 0.65429 0.48529 0.0
C1180 C 0.91814 0.65383 0.4812 0.0
H1181 H 0.00142 0.66973 0.51866 0.0
H1182 H 0.97379 0.64529 0.46343 0.0
C1183 C 0.89627 0.66531 0.51043 0.0
C1184 C 0.57726 0.27346 0.72835 0.0
C1185 C 0.56306 0.29571 0.70071 0.0
H1186 H 0.6012 0.27108 0.78141 0.0
C1187 C 0.56622 0.33365 0.70392 0.0
H1188 H 0.57532 0.24408 0.72653 0.0
C1189 C 0.58126 0.34914 0.73525 0.0
C1190 C 0.59307 0.32695 0.76412 0.0
H1191 H 0.5557 0.35145 0.68291 0.0
H1192 H 0.58185 0.37854 0.73756 0.0
C1193 C 0.59201 0.28893 0.75983 0.0
C1194 C 0.91032 0.31975 0.95403 0.0
C1195 C 0.94829 0.31739 0.95064 0.0
H1196 H 0.86536 0.33388 0.98809 0.0
C1197 C 0.97042 0.33155 0.97847 0.0
H1198 H 0.8926 0.30923 0.93289 0.0
C1199 C 0.95487 0.34542 0.01025 0.0
C1200 C 0.91687 0.34563 0.01468 0.0
H1201 H -0.00019 0.33022 0.97653 0.0
H1202 H 0.97267 0.3546 0.03193 0.0
C1203 C 0.89474 0.33392 0.98567 0.0
C1204 C 0.92674 0.66429 0.20423 0.0
C1205 C 0.92902 0.70229 0.20092 0.0
H1206 H 0.9125 0.61921 0.23809 0.0
C1207 C 0.91464 0.72432 0.22866 0.0
H1208 H 0.93743 0.64665 0.18315 0.0
C1209 C 0.90062 0.70865 0.26031 0.0
C1210 C 0.90046 0.67064 0.26467 0.0
H1211 H 0.91591 0.75373 0.22678 0.0
H1212 H 0.89127 0.72638 0.28195 0.0
C1213 C 0.9124 0.6486 0.23572 0.0
C1214 C 0.52058 0.66802 0.4797 0.0
C1215 C 0.54254 0.68202 0.45172 0.0
H1216 H 0.51874 0.64477 0.53304 0.0
C1217 C 0.58051 0.67911 0.45466 0.0
H1218 H 0.49119 0.66977 0.4781 0.0
C1219 C 0.59631 0.66458 0.48602 0.0
C1220 C 0.57442 0.65304 0.51521 0.0
H1221 H 0.59808 0.68947 0.43339 0.0
H1222 H 0.62572 0.66421 0.48809 0.0
C1223 C 0.53637 0.65378 0.51121 0.0
C1224 C 0.76623 0.58215 0.72297 0.0
C1225 C 0.79409 0.56819 0.70086 0.0
H1226 H 0.71272 0.60496 0.72513 0.0
C1227 C 0.79079 0.57077 0.66288 0.0
H1228 H 0.76811 0.58065 0.75235 0.0
C1229 C 0.75916 0.58489 0.64725 0.0
C1230 C 0.73008 0.59634 0.66934 0.0
H1231 H 0.81197 0.56042 0.64519 0.0
H1232 H 0.7568 0.58499 0.61786 0.0
C1233 C 0.73445 0.59598 0.70736 0.0
C1234 C 0.665 0.51717 0.97315 0.0
C1235 C 0.6785 0.54553 0.95138 0.0
H1236 H 0.64317 0.46318 0.97468 0.0
C1237 C 0.67617 0.54251 0.91335 0.0
H1238 H 0.66635 0.51882 0.00256 0.0
C1239 C 0.66271 0.51072 0.89735 0.0
C1240 C 0.6517 0.48123 0.91911 0.0
H1241 H 0.6862 0.56406 0.89592 0.0
H1242 H 0.66275 0.50862 0.86794 0.0
C1243 C 0.65184 0.48525 0.95717 0.0
C1244 C 0.70225 0.42856 0.16382 0.0
C1245 C 0.69932 0.43168 0.20178 0.0
H1246 H 0.73577 0.41367 0.11871 0.0
C1247 C 0.72743 0.41807 0.22384 0.0
H1248 H 0.68088 0.43863 0.14617 0.0
C1249 C 0.75906 0.40403 0.20815 0.0
C1250 C 0.76303 0.40309 0.1701 0.0
H1251 H 0.72584 0.42001 0.25322 0.0
H1252 H 0.78098 0.39533 0.22584 0.0
C1253 C 0.73372 0.41422 0.14812 0.0
C1254 C 0.81656 0.45567 0.41327 0.0
C1255 C 0.8142 0.45252 0.45127 0.0
H1256 H 0.83083 0.48939 0.3681 0.0
C1257 C 0.82848 0.48042 0.47324 0.0
H1258 H 0.80595 0.43447 0.39568 0.0
C1259 C 0.84248 0.51205 0.45748 0.0
C1260 C 0.84271 0.51624 0.41946 0.0
H1261 H 0.82715 0.47866 0.50264 0.0
H1262 H 0.85175 0.53381 0.47515 0.0
C1263 C 0.83087 0.48715 0.3975 0.0
C1264 C 0.79174 0.42966 0.83192 0.0
C1265 C 0.79462 0.43281 0.79396 0.0
H1266 H 0.75847 0.41417 0.87702 0.0
C1267 C 0.7667 0.41874 0.7719 0.0
H1268 H 0.81298 0.44008 0.84958 0.0
C1269 C 0.7353 0.40413 0.78757 0.0
C1270 C 0.73136 0.40309 0.82562 0.0
H1271 H 0.76825 0.42068 0.74252 0.0
H1272 H 0.71351 0.39505 0.76986 0.0
C1273 C 0.7605 0.41475 0.84761 0.0
C1274 C 0.81489 0.54302 0.08376 0.0
C1275 C 0.81229 0.54627 0.04578 0.0
H1276 H 0.82955 0.50923 0.12876 0.0
C1277 C 0.82645 0.51849 0.02366 0.0
H1278 H 0.80437 0.56412 0.10145 0.0
C1279 C 0.84062 0.48686 0.03925 0.0
C1280 C 0.84114 0.48257 0.07726 0.0
H1281 H 0.82491 0.52033 0.99427 0.0
H1282 H 0.8498 0.46519 0.02148 0.0
C1283 C 0.82937 0.51154 0.09937 0.0
C1284 C 0.70264 0.56931 0.33314 0.0
C1285 C 0.69942 0.56672 0.29515 0.0
H1286 H 0.73649 0.58371 0.37826 0.0
C1287 C 0.72731 0.58077 0.27312 0.0
H1288 H 0.68144 0.55888 0.35076 0.0
C1289 C 0.75902 0.59474 0.28883 0.0
C1290 C 0.76329 0.59516 0.32685 0.0
H1291 H 0.7255 0.57925 0.24373 0.0
H1292 H 0.78077 0.60382 0.27112 0.0
C1293 C 0.7342 0.58358 0.34886 0.0
C1294 C 0.67813 0.45586 0.58389 0.0
C1295 C 0.68024 0.4524 0.5459 0.0
H1296 H 0.6638 0.4898 0.62894 0.0
C1297 C 0.66553 0.47993 0.52385 0.0
H1298 H 0.68908 0.43495 0.60154 0.0
C1299 C 0.6513 0.51153 0.53949 0.0
C1300 C 0.65126 0.51604 0.57749 0.0
H1301 H 0.66667 0.47793 0.49445 0.0
H1302 H 0.64167 0.533 0.52175 0.0
C1303 C 0.66359 0.4873 0.59956 0.0
C1304 C 0.72044 0.76896 0.57907 0.0
C1305 C 0.69832 0.79647 0.56443 0.0
H1306 H 0.72267 0.71587 0.60287 0.0
C1307 C 0.66034 0.79295 0.56665 0.0
H1308 H 0.74983 0.771 0.57785 0.0
C1309 C 0.64476 0.76148 0.5812 0.0
C1310 C 0.66689 0.73276 0.59344 0.0
H1311 H 0.64264 0.81385 0.55575 0.0
H1312 H 0.61539 0.75894 0.58105 0.0
C1313 C 0.70488 0.73733 0.59331 0.0
C1314 C 0.22149 0.7313 0.41646 0.0
C1315 C 0.19956 0.70338 0.43064 0.0
H1316 H 0.22334 0.78466 0.39323 0.0
C1317 C 0.16157 0.70644 0.42812 0.0
H1318 H 0.25089 0.72962 0.41793 0.0
C1319 C 0.14576 0.73787 0.41376 0.0
C1320 C 0.16767 0.76699 0.40203 0.0
H1321 H 0.14401 0.68521 0.43864 0.0
H1322 H 0.11636 0.74004 0.41368 0.0
C1323 C 0.2057 0.76288 0.40241 0.0
C1324 C 0.54049 0.91644 0.67815 0.0
C1325 C 0.54361 0.95445 0.68055 0.0
H1326 H 0.50674 0.87115 0.66402 0.0
C1327 C 0.51561 0.97634 0.66649 0.0
H1328 H 0.56177 0.89892 0.68858 0.0
C1329 C 0.48391 0.96048 0.65268 0.0
C1330 C 0.47976 0.92243 0.65242 0.0
H1331 H 0.51735 0.00575 0.66787 0.0
H1332 H 0.46208 0.97807 0.64359 0.0
C1333 C 0.50894 0.90056 0.66403 0.0
C1334 C 0.27028 0.26844 0.91757 0.0
C1335 C 0.29217 0.29671 0.93122 0.0
H1336 H 0.26859 0.21485 0.89473 0.0
C1337 C 0.33014 0.29401 0.92816 0.0
H1338 H 0.24089 0.26984 0.91947 0.0
C1339 C 0.34603 0.26262 0.91378 0.0
C1340 C 0.32422 0.23317 0.90256 0.0
H1341 H 0.34765 0.31551 0.93828 0.0
H1342 H 0.37544 0.26076 0.91325 0.0
C1343 C 0.28615 0.23689 0.9035 0.0
C1344 C 0.45335 0.58344 0.68006 0.0
C1345 C 0.45039 0.54545 0.68281 0.0
H1346 H 0.4867 0.62869 0.66505 0.0
C1347 C 0.47826 0.52351 0.66858 0.0
H1348 H 0.43216 0.601 0.69062 0.0
C1349 C 0.50969 0.53933 0.65418 0.0
C1350 C 0.51368 0.57739 0.65349 0.0
H1351 H 0.47665 0.49411 0.67024 0.0
H1352 H 0.53143 0.52172 0.64495 0.0
C1353 C 0.48461 0.59928 0.66535 0.0
C1354 C 0.77178 0.22961 0.07999 0.0
C1355 C 0.79393 0.20174 0.06608 0.0
H1356 H 0.76952 0.28313 0.10288 0.0
C1357 C 0.83189 0.2051 0.06878 0.0
H1358 H 0.7424 0.22769 0.0784 0.0
C1359 C 0.84746 0.23677 0.083 0.0
C1360 C 0.82533 0.26583 0.09443 0.0
H1361 H 0.84962 0.18392 0.05846 0.0
H1362 H 0.87685 0.23916 0.08321 0.0
C1363 C 0.78733 0.26142 0.09392 0.0
C1364 C 0.54008 0.08721 0.81597 0.0
C1365 C 0.54387 0.04922 0.81423 0.0
H1366 H 0.50576 0.13206 0.8299 0.0
C1367 C 0.51652 0.02705 0.82914 0.0
H1368 H 0.56083 0.10495 0.80484 0.0
C1369 C 0.48481 0.04252 0.84324 0.0
C1370 C 0.47998 0.08047 0.84294 0.0
H1371 H 0.51877 -0.00234 0.82829 0.0
H1372 H 0.4635 0.02466 0.85306 0.0
C1373 C 0.50851 0.10271 0.83038 0.0
C1374 C 0.97665 0.97502 0.3305 0.0
C1375 C 0.9487 0.95297 0.31648 0.0
H1376 H 0.03016 0.97708 0.35344 0.0
C1377 C 0.95187 0.91498 0.31904 0.0
H1378 H 0.97488 0.00442 0.32902 0.0
C1379 C 0.98344 0.89929 0.33322 0.0
C1380 C 0.01259 0.92132 0.34476 0.0
H1381 H 0.93063 0.89733 0.30863 0.0
H1382 H 0.98569 0.86989 0.33332 0.0
C1383 C 0.00837 0.95935 0.3444 0.0
C1384 C 0.41557 0.27566 0.22826 0.0
C1385 C 0.42995 0.29784 0.20065 0.0
H1386 H 0.39186 0.27336 0.28138 0.0
C1387 C 0.4273 0.33581 0.20401 0.0
H1388 H 0.41713 0.24627 0.22633 0.0
C1389 C 0.4126 0.35135 0.23543 0.0
C1390 C 0.40065 0.32919 0.26426 0.0
H1391 H 0.43797 0.35356 0.18304 0.0
H1392 H 0.41241 0.38074 0.23785 0.0
C1393 C 0.40118 0.29118 0.25984 0.0
C1394 C 0.41166 0.67943 0.95417 0.0
C1395 C 0.44963 0.68219 0.95102 0.0
H1396 H 0.36662 0.6648 0.98789 0.0
C1397 C 0.47171 0.66822 0.97893 0.0
H1398 H 0.39399 0.68979 0.93296 0.0
C1399 C 0.45607 0.65415 0.01058 0.0
C1400 C 0.41805 0.65355 0.01478 0.0
H1401 H 0.50109 0.66986 0.97718 0.0
H1402 H 0.47381 0.64514 0.03235 0.0
C1403 C 0.39601 0.66506 0.98567 0.0
C1404 C 0.0678 0.66487 0.70417 0.0
C1405 C 0.06501 0.70284 0.70104 0.0
H1406 H 0.0826 0.61985 0.73786 0.0
C1407 C 0.07913 0.72496 0.72889 0.0
H1408 H 0.05734 0.64717 0.68299 0.0
C1409 C 0.09337 0.70936 0.7605 0.0
C1410 C 0.09398 0.67133 0.7647 0.0
H1411 H 0.07748 0.75435 0.72714 0.0
H1412 H 0.10248 0.72713 0.78223 0.0
C1413 C 0.08233 0.64924 0.73562 0.0
C1414 C 0.0832 0.31999 0.45433 0.0
C1415 C 0.04522 0.31759 0.45083 0.0
H1416 H 0.12812 0.3344 0.48845 0.0
C1417 C 0.02307 0.33196 0.47847 0.0
H1418 H 0.10092 0.30932 0.43334 0.0
C1419 C 0.0386 0.34607 0.51021 0.0
C1420 C 0.07659 0.34633 0.51477 0.0
H1421 H 0.99369 0.3306 0.47644 0.0
H1422 H 0.02079 0.3554 0.53176 0.0
C1423 C 0.09875 0.33441 0.48593 0.0
C1424 C 0.42613 0.66466 0.29229 0.0
C1425 C 0.42874 0.70266 0.2955 0.0
H1426 H 0.41191 0.61953 0.25836 0.0
C1427 C 0.41499 0.72467 0.26745 0.0
H1428 H 0.43634 0.64704 0.3136 0.0
C1429 C 0.40126 0.70896 0.23563 0.0
C1430 C 0.40079 0.67092 0.2314 0.0
H1431 H 0.41654 0.75407 0.26925 0.0
H1432 H 0.39239 0.72665 0.21379 0.0
C1433 C 0.41209 0.64893 0.26062 0.0
C1434 C 0.08176 0.68065 0.04183 0.0
C1435 C 0.04375 0.68288 0.04488 0.0
H1436 H 0.12707 0.66659 0.0082 0.0
C1437 C 0.02191 0.66868 0.01685 0.0
H1438 H 0.09925 0.69122 0.06313 0.0
C1439 C 0.0378 0.65485 0.98521 0.0
C1440 C 0.07583 0.65469 0.98115 0.0
H1441 H 0.99251 0.66994 0.01852 0.0
H1442 H 0.02023 0.64561 0.96337 0.0
C1443 C 0.09767 0.66649 0.01034 0.0
C1444 C 0.06494 0.33579 0.79161 0.0
C1445 C 0.06267 0.29778 0.79487 0.0
H1446 H 0.07949 0.38092 0.75793 0.0
C1447 C 0.07732 0.27579 0.76724 0.0
H1448 H 0.05404 0.3534 0.8126 0.0
C1449 C 0.09164 0.29151 0.73574 0.0
C1450 C 0.09184 0.32953 0.73144 0.0
H1451 H 0.07605 0.24639 0.76908 0.0
H1452 H 0.10122 0.27381 0.71418 0.0
C1453 C 0.07958 0.35153 0.76028 0.0
C1454 C 0.41048 0.32011 0.54156 0.0
C1455 C 0.44844 0.31727 0.54478 0.0
H1456 H 0.36549 0.33478 0.50773 0.0
C1457 C 0.47058 0.33113 0.51688 0.0
H1458 H 0.39278 0.30983 0.56276 0.0
C1459 C 0.45499 0.34518 0.48518 0.0
C1460 C 0.41697 0.34586 0.48092 0.0
H1461 H 0.49995 0.32942 0.51868 0.0
H1462 H 0.47276 0.3541 0.46343 0.0
C1463 C 0.39488 0.33445 0.51001 0.0
C1464 C 0.20219 0.43015 0.33221 0.0
C1465 C 0.19913 0.43291 0.29423 0.0
H1466 H 0.23582 0.41554 0.37737 0.0
C1467 C 0.22709 0.41897 0.27223 0.0
H1468 H 0.18093 0.44049 0.34982 0.0
C1469 C 0.25871 0.40493 0.28797 0.0
C1470 C 0.26282 0.40433 0.32601 0.0
H1471 H 0.22539 0.42062 0.24283 0.0
H1472 H 0.28051 0.39594 0.27029 0.0
C1473 C 0.23365 0.41581 0.34797 0.0
C1474 C 0.31557 0.45584 0.08332 0.0
C1475 C 0.31287 0.45257 0.04535 0.0
H1476 H 0.33039 0.48965 0.12835 0.0
C1477 C 0.32706 0.48034 0.02325 0.0
H1478 H 0.30504 0.43474 0.10101 0.0
C1479 C 0.34132 0.51198 0.03886 0.0
C1480 C 0.34191 0.51629 0.07687 0.0
H1481 H 0.32546 0.47849 0.99386 0.0
H1482 H 0.35052 0.53363 0.0211 0.0
C1483 C 0.33015 0.48732 0.09895 0.0
C1484 C 0.29121 0.56846 0.83472 0.0
C1485 C 0.29473 0.56596 0.79676 0.0
H1486 H 0.25716 0.58315 0.87952 0.0
C1487 C 0.26719 0.58035 0.77449 0.0
H1488 H 0.31212 0.55776 0.85253 0.0
C1489 C 0.23553 0.59464 0.78989 0.0
C1490 C 0.23096 0.59505 0.82787 0.0
H1491 H 0.26923 0.57891 0.74511 0.0
H1492 H 0.21405 0.604 0.77199 0.0
C1493 C 0.2597 0.58306 0.85015 0.0
C1494 C 0.1657 0.51958 0.52341 0.0
C1495 C 0.17995 0.54753 0.54533 0.0
H1496 H 0.14258 0.46613 0.52156 0.0
C1497 C 0.17774 0.54436 0.58334 0.0
H1498 H 0.16693 0.52135 0.494 0.0
C1499 C 0.16359 0.51283 0.59916 0.0
C1500 C 0.15175 0.48371 0.57723 0.0
H1501 H 0.18835 0.56559 0.60089 0.0
H1502 H 0.16372 0.51058 0.62855 0.0
C1503 C 0.15185 0.4879 0.5392 0.0
C1504 C 0.20258 0.57041 0.16288 0.0
C1505 C 0.19943 0.56771 0.20085 0.0
H1506 H 0.2364 0.58481 0.11784 0.0
C1507 C 0.22743 0.58157 0.22295 0.0
H1508 H 0.18129 0.56013 0.1452 0.0
C1509 C 0.25918 0.59544 0.20732 0.0
C1510 C 0.26337 0.59597 0.16929 0.0
H1511 H 0.22567 0.57996 0.25233 0.0
H1512 H 0.281 0.60436 0.22506 0.0
C1513 C 0.23417 0.58459 0.14723 0.0
C1514 C 0.17556 0.45586 0.91368 0.0
C1515 C 0.17824 0.45282 0.95167 0.0
H1516 H 0.16139 0.48961 0.86851 0.0
C1517 C 0.16456 0.48095 0.97365 0.0
H1518 H 0.18569 0.43447 0.89609 0.0
C1519 C 0.15089 0.51272 0.9579 0.0
C1520 C 0.15042 0.5168 0.91986 0.0
H1521 H 0.16616 0.47928 0.00305 0.0
H1522 H 0.14212 0.53465 0.97556 0.0
C1523 C 0.16159 0.48748 0.89791 0.0
C1524 C 0.29135 0.42891 0.66489 0.0
C1525 C 0.29423 0.43163 0.70289 0.0
H1526 H 0.25774 0.41476 0.6195 0.0
C1527 C 0.26592 0.4181 0.7247 0.0
H1528 H 0.31287 0.43893 0.64743 0.0
C1529 C 0.23416 0.40452 0.70875 0.0
C1530 C 0.23026 0.40397 0.67068 0.0
H1531 H 0.26746 0.41974 0.75411 0.0
H1532 H 0.21211 0.39584 0.72628 0.0
C1533 C 0.25974 0.41502 0.64892 0.0
C1534 C 0.31626 0.54415 0.41282 0.0
C1535 C 0.31374 0.54734 0.45081 0.0
H1536 H 0.33053 0.51033 0.36767 0.0
C1537 C 0.32768 0.51938 0.47281 0.0
H1538 H 0.30591 0.5654 0.39521 0.0
C1539 C 0.34152 0.48765 0.45708 0.0
C1540 C 0.34193 0.48343 0.41905 0.0
H1541 H 0.3262 0.52116 0.50221 0.0
H1542 H 0.35053 0.46586 0.47477 0.0
C1543 C 0.33041 0.51258 0.39707 0.0
C1544 C 0.33083 0.20636 0.42786 0.0
C1545 C 0.29287 0.20326 0.43078 0.0
H1546 H 0.37588 0.23999 0.41289 0.0
C1547 C 0.27078 0.23113 0.41677 0.0
H1548 H 0.3485 0.18518 0.43823 0.0
C1549 C 0.28642 0.26271 0.4025 0.0
C1550 C 0.32445 0.26687 0.40172 0.0
H1551 H 0.2414 0.2294 0.41854 0.0
H1552 H 0.26869 0.28445 0.39347 0.0
C1553 C 0.34648 0.23779 0.41328 0.0
C1554 C 0.83319 0.29278 0.56652 0.0
C1555 C 0.79518 0.29619 0.56479 0.0
H1556 H 0.87838 0.2587 0.5799 0.0
C1557 C 0.77329 0.26837 0.57923 0.0
H1558 H 0.85072 0.31391 0.55576 0.0
C1559 C 0.78908 0.23657 0.59278 0.0
C1560 C 0.82707 0.23215 0.59241 0.0
H1561 H 0.74389 0.27031 0.57836 0.0
H1562 H 0.77145 0.2149 0.60221 0.0
C1563 C 0.84901 0.26114 0.58039 0.0
C1564 C 0.47601 0.02549 0.32858 0.0
C1565 C 0.4484 0.0476 0.3141 0.0
H1566 H 0.52919 0.0233 0.35224 0.0
C1567 C 0.45185 0.08559 0.31645 0.0
H1568 H 0.47401 -0.00391 0.32726 0.0
C1569 C 0.48336 0.1012 0.33098 0.0
C1570 C 0.51216 0.07909 0.34306 0.0
H1571 H 0.43088 0.10328 0.30568 0.0
H1572 H 0.48585 0.13059 0.33095 0.0
C1573 C 0.50766 0.04108 0.3428 0.0
C1574 C 0.72007 0.72982 0.08072 0.0
C1575 C 0.69797 0.70202 0.06647 0.0
H1576 H 0.72226 0.7832 0.104 0.0
C1577 C 0.66 0.7053 0.06897 0.0
H1578 H 0.74946 0.72796 0.07929 0.0
C1579 C 0.64438 0.73684 0.08333 0.0
C1580 C 0.66648 0.76586 0.09511 0.0
H1581 H 0.6423 0.68417 0.0584 0.0
H1582 H 0.615 0.73919 0.08339 0.0
C1583 C 0.70449 0.76151 0.09478 0.0
C1584 C 0.51534 0.47501 0.32945 0.0
C1585 C 0.54324 0.45288 0.31561 0.0
H1586 H 0.46183 0.47719 0.35228 0.0
C1587 C 0.54001 0.41491 0.31839 0.0
H1588 H 0.51716 0.5044 0.32779 0.0
C1589 C 0.50843 0.3993 0.33262 0.0
C1590 C 0.47932 0.42139 0.34398 0.0
H1591 H 0.56122 0.3972 0.30813 0.0
H1592 H 0.50614 0.3699 0.3329 0.0
C1593 C 0.4836 0.45942 0.34339 0.0
C1594 C 0.16356 0.79416 0.92755 0.0
C1595 C 0.20153 0.79701 0.93068 0.0
H1596 H 0.11831 0.76066 0.91274 0.0
C1597 C 0.22346 0.76878 0.91716 0.0
H1598 H 0.146 0.81562 0.93756 0.0
C1599 C 0.20764 0.73712 0.9032 0.0
C1600 C 0.16958 0.73323 0.90226 0.0
H1601 H 0.25284 0.77031 0.9191 0.0
H1602 H 0.22524 0.71512 0.89455 0.0
C1603 C 0.14772 0.76264 0.91329 0.0
C1604 C 0.47658 0.97501 0.16624 0.0
C1605 C 0.44848 0.95312 0.1801 0.0
H1606 H 0.53021 0.97678 0.14365 0.0
C1607 C 0.45152 0.91511 0.17764 0.0
H1608 H 0.47491 0.00442 0.16766 0.0
C1609 C 0.48309 0.89924 0.16368 0.0
C1610 C 0.51238 0.92112 0.15229 0.0
H1611 H 0.43016 0.89758 0.18793 0.0
H1612 H 0.48522 0.86984 0.16364 0.0
C1613 C 0.50831 0.95917 0.15258 0.0
C1614 C 0.01615 0.02351 0.66723 0.0
C1615 C 0.04374 0.04549 0.68207 0.0
H1616 H 0.9633 0.0216 0.64278 0.0
C1617 C 0.04067 0.08349 0.67957 0.0
H1618 H 0.01786 0.99411 0.66865 0.0
C1619 C 0.00954 0.09927 0.66452 0.0
C1620 C 0.98072 0.07731 0.65205 0.0
H1621 H 0.06165 0.10109 0.6906 0.0
H1622 H 0.00733 0.12867 0.66445 0.0
C1623 C 0.98485 0.03927 0.65249 0.0
loop_
_geom_bond_atom_site_label_1
_geom_bond_atom_site_label_2
_geom_bond_distance
_geom_bond_site_symmetry_2
_ccdc_geom_bond_type
In0 O1 2.294 . S
In0 O2 2.326 1_455 S
In0 O6 2.266 . S
In0 O7 2.326 1_455 S
In0 O8 2.266 1_455 S
In0 O9 2.326 . S
In0 O11 2.294 1_455 S
In0 O12 2.326 . S
O1 In0 2.294 . S
O1 C10 1.240 . S
O2 In0 2.326 1_655 S
O2 C10 1.252 1_655 S
C3 O6 1.252 . S
C3 O7 1.260 1_455 S
C4 O11 1.240 . S
C4 O12 1.252 1_655 S
C5 O8 1.252 . S
C5 O9 1.260 1_655 S
O6 In0 2.266 . S
O6 C3 1.252 . S
O7 In0 2.326 1_655 S
O7 C3 1.260 1_655 S
O8 In0 2.266 1_655 S
O8 C5 1.252 . S
O9 In0 2.326 . S
O9 C5 1.260 1_455 S
C10 O1 1.240 . S
C10 O2 1.252 1_455 S
O11 In0 2.294 1_655 S
O11 C4 1.240 . S
O12 In0 2.326 . S
O12 C4 1.252 1_455 S
In13 O14 2.294 1_455 S
In13 O15 2.326 1_455 S
In13 O19 2.266 . S
In13 O20 2.326 . S
In13 O21 2.266 1_455 S
In13 O22 2.326 1_455 S
In13 O24 2.294 . S
In13 O25 2.326 . S
O14 In13 2.294 1_655 S
O14 C23 1.240 . S
O15 In13 2.326 1_655 S
O15 C23 1.252 . S
C16 O19 1.252 . S
C16 O20 1.260 . S
C17 O24 1.240 . S
C17 O25 1.252 . S
C18 O21 1.252 . S
C18 O22 1.260 . S
O19 In13 2.266 . S
O19 C16 1.252 . S
O20 In13 2.326 . S
O20 C16 1.260 . S
O21 In13 2.266 1_655 S
O21 C18 1.252 . S
O22 In13 2.326 1_655 S
O22 C18 1.260 . S
C23 O14 1.240 . S
C23 O15 1.252 . S
O24 In13 2.294 . S
O24 C17 1.240 . S
O25 In13 2.326 . S
O25 C17 1.252 . S
In26 O27 2.294 . S
In26 O28 2.326 . S
In26 O32 2.266 . S
In26 O33 2.326 . S
In26 O34 2.266 . S
In26 O35 2.326 . S
In26 O37 2.294 . S
In26 O38 2.326 . S
O27 In26 2.294 . S
O27 C36 1.240 . S
O28 In26 2.326 . S
O28 C36 1.252 . S
C29 O32 1.252 . S
C29 O33 1.260 . S
C30 O37 1.240 . S
C30 O38 1.252 . S
C31 O34 1.252 . S
C31 O35 1.260 . S
O32 In26 2.266 . S
O32 C29 1.252 . S
O33 In26 2.326 . S
O33 C29 1.260 . S
O34 In26 2.266 . S
O34 C31 1.252 . S
O35 In26 2.326 . S
O35 C31 1.260 . S
C36 O27 1.240 . S
C36 O28 1.252 . S
O37 In26 2.294 . S
O37 C30 1.240 . S
O38 In26 2.326 . S
O38 C30 1.252 . S
In39 O40 2.294 . S
In39 O41 2.326 . S
In39 O45 2.266 . S
In39 O46 2.326 . S
In39 O47 2.266 . S
In39 O48 2.326 . S
In39 O50 2.294 . S
In39 O51 2.326 . S
O40 In39 2.294 . S
O40 C49 1.240 . S
O41 In39 2.326 . S
O41 C49 1.252 . S
C42 O45 1.252 . S
C42 O46 1.260 . S
C43 O50 1.240 . S
C43 O51 1.252 . S
C44 O47 1.252 . S
C44 O48 1.260 . S
O45 In39 2.266 . S
O45 C42 1.252 . S
O46 In39 2.326 . S
O46 C42 1.260 . S
O47 In39 2.266 . S
O47 C44 1.252 . S
O48 In39 2.326 . S
O48 C44 1.260 . S
C49 O40 1.240 . S
C49 O41 1.252 . S
O50 In39 2.294 . S
O50 C43 1.240 . S
O51 In39 2.326 . S
O51 C43 1.252 . S
In52 O53 2.279 1_455 S
In52 O54 2.328 . S
In52 O58 2.251 1_455 S
In52 O59 2.328 . S
In52 O60 2.281 . S
In52 O61 2.323 1_455 S
In52 O63 2.309 . S
In52 O64 2.324 1_455 S
O53 In52 2.279 1_655 S
O53 C62 1.240 . S
O54 In52 2.328 . S
O54 C62 1.252 1_455 S
C55 O58 1.252 . S
C55 O59 1.260 1_655 S
C56 O63 1.240 . S
C56 O64 1.252 1_455 S
C57 O60 1.252 . S
C57 O61 1.260 1_455 S
O58 In52 2.251 1_655 S
O58 C55 1.252 . S
O59 In52 2.328 . S
O59 C55 1.260 1_455 S
O60 In52 2.281 . S
O60 C57 1.252 . S
O61 In52 2.323 1_655 S
O61 C57 1.260 1_655 S
C62 O53 1.240 . S
C62 O54 1.252 1_655 S
O63 In52 2.309 . S
O63 C56 1.240 . S
O64 In52 2.324 1_655 S
O64 C56 1.252 1_655 S
In65 O66 2.294 . S
In65 O67 2.326 . S
In65 O71 2.266 . S
In65 O72 2.326 . S
In65 O73 2.266 . S
In65 O74 2.326 . S
In65 O76 2.294 . S
In65 O77 2.326 . S
O66 In65 2.294 . S
O66 C75 1.240 . S
O67 In65 2.326 . S
O67 C75 1.252 . S
C68 O71 1.252 . S
C68 O72 1.260 . S
C69 O76 1.240 . S
C69 O77 1.252 . S
C70 O73 1.252 . S
C70 O74 1.260 . S
O71 In65 2.266 . S
O71 C68 1.252 . S
O72 In65 2.326 . S
O72 C68 1.260 . S
O73 In65 2.266 . S
O73 C70 1.252 . S
O74 In65 2.326 . S
O74 C70 1.260 . S
C75 O66 1.240 . S
C75 O67 1.252 . S
O76 In65 2.294 . S
O76 C69 1.240 . S
O77 In65 2.326 . S
O77 C69 1.252 . S
In78 O79 2.294 . S
In78 O80 2.326 . S
In78 O84 2.266 . S
In78 O85 2.326 . S
In78 O86 2.266 . S
In78 O87 2.326 . S
In78 O89 2.294 . S
In78 O90 2.326 . S
O79 In78 2.294 . S
O79 C88 1.240 . S
O80 In78 2.326 . S
O80 C88 1.252 . S
C81 O84 1.252 . S
C81 O85 1.260 . S
C82 O89 1.240 . S
C82 O90 1.252 . S
C83 O86 1.252 . S
C83 O87 1.260 . S
O84 In78 2.266 . S
O84 C81 1.252 . S
O85 In78 2.326 . S
O85 C81 1.260 . S
O86 In78 2.266 . S
O86 C83 1.252 . S
O87 In78 2.326 . S
O87 C83 1.260 . S
C88 O79 1.240 . S
C88 O80 1.252 . S
O89 In78 2.294 . S
O89 C82 1.240 . S
O90 In78 2.326 . S
O90 C82 1.252 . S
In91 O92 2.299 . S
In91 O93 2.336 . S
In91 O97 2.261 1_455 S
In91 O98 2.316 1_455 S
In91 O99 2.271 . S
In91 O100 2.335 . S
In91 O102 2.289 1_455 S
In91 O103 2.317 1_455 S
O92 In91 2.299 . S
O92 C101 1.240 . S
O93 In91 2.336 . S
O93 C101 1.252 . S
C94 O97 1.252 . S
C94 O98 1.260 . S
C95 O102 1.240 . S
C95 O103 1.252 . S
C96 O99 1.252 . S
C96 O100 1.260 . S
O97 In91 2.261 1_655 S
O97 C94 1.252 . S
O98 In91 2.316 1_655 S
O98 C94 1.260 . S
O99 In91 2.271 . S
O99 C96 1.252 . S
O100 In91 2.335 . S
O100 C96 1.260 . S
C101 O92 1.240 . S
C101 O93 1.252 . S
O102 In91 2.289 1_655 S
O102 C95 1.240 . S
O103 In91 2.317 1_655 S
O103 C95 1.252 . S
In104 O105 2.294 1_545 S
In104 O106 2.326 . S
In104 O110 2.266 1_545 S
In104 O111 2.326 . S
In104 O112 2.266 . S
In104 O113 2.326 1_545 S
In104 O115 2.294 . S
In104 O116 2.326 1_545 S
O105 In104 2.294 1_565 S
O105 C114 1.240 . S
O106 In104 2.326 . S
O106 C114 1.252 1_545 S
C107 O110 1.252 . S
C107 O111 1.260 1_565 S
C108 O115 1.240 . S
C108 O116 1.252 1_545 S
C109 O112 1.252 . S
C109 O113 1.260 1_545 S
O110 In104 2.266 1_565 S
O110 C107 1.252 . S
O111 In104 2.326 . S
O111 C107 1.260 1_545 S
O112 In104 2.266 . S
O112 C109 1.252 . S
O113 In104 2.326 1_565 S
O113 C109 1.260 1_565 S
C114 O105 1.240 . S
C114 O106 1.252 1_565 S
O115 In104 2.294 . S
O115 C108 1.240 . S
O116 In104 2.326 1_565 S
O116 C108 1.252 1_565 S
In117 O118 2.294 . S
In117 O119 2.326 . S
In117 O123 2.266 . S
In117 O124 2.326 . S
In117 O125 2.266 . S
In117 O126 2.326 . S
In117 O128 2.294 . S
In117 O129 2.326 . S
O118 In117 2.294 . S
O118 C127 1.240 . S
O119 In117 2.326 . S
O119 C127 1.252 . S
C120 O123 1.252 . S
C120 O124 1.260 . S
C121 O128 1.240 . S
C121 O129 1.252 . S
C122 O125 1.252 . S
C122 O126 1.260 . S
O123 In117 2.266 . S
O123 C120 1.252 . S
O124 In117 2.326 . S
O124 C120 1.260 . S
O125 In117 2.266 . S
O125 C122 1.252 . S
O126 In117 2.326 . S
O126 C122 1.260 . S
C127 O118 1.240 . S
C127 O119 1.252 . S
O128 In117 2.294 . S
O128 C121 1.240 . S
O129 In117 2.326 . S
O129 C121 1.252 . S
In130 O131 2.294 1_545 S
In130 O132 2.326 . S
In130 O136 2.266 1_545 S
In130 O137 2.326 . S
In130 O138 2.266 . S
In130 O139 2.326 1_545 S
In130 O141 2.294 . S
In130 O142 2.326 1_545 S
O131 In130 2.294 1_565 S
O131 C140 1.240 . S
O132 In130 2.326 . S
O132 C140 1.252 1_545 S
C133 O136 1.252 . S
C133 O137 1.260 1_565 S
C134 O141 1.240 . S
C134 O142 1.252 1_545 S
C135 O138 1.252 . S
C135 O139 1.260 1_545 S
O136 In130 2.266 1_565 S
O136 C133 1.252 . S
O137 In130 2.326 . S
O137 C133 1.260 1_545 S
O138 In130 2.266 . S
O138 C135 1.252 . S
O139 In130 2.326 1_565 S
O139 C135 1.260 1_565 S
C140 O131 1.240 . S
C140 O132 1.252 1_565 S
O141 In130 2.294 . S
O141 C134 1.240 . S
O142 In130 2.326 1_565 S
O142 C134 1.252 1_565 S
In143 O144 2.294 . S
In143 O145 2.326 . S
In143 O149 2.266 1_554 S
In143 O150 2.326 1_554 S
In143 O151 2.266 . S
In143 O152 2.326 . S
In143 O154 2.294 1_554 S
In143 O155 2.326 1_554 S
O144 In143 2.294 . S
O144 C153 1.240 . S
O145 In143 2.326 . S
O145 C153 1.252 . S
C146 O149 1.252 . S
C146 O150 1.260 . S
C147 O154 1.240 . S
C147 O155 1.252 . S
C148 O151 1.252 . S
C148 O152 1.260 . S
O149 In143 2.266 1_556 S
O149 C146 1.252 . S
O150 In143 2.326 1_556 S
O150 C146 1.260 . S
O151 In143 2.266 . S
O151 C148 1.252 . S
O152 In143 2.326 . S
O152 C148 1.260 . S
C153 O144 1.240 . S
C153 O145 1.252 . S
O154 In143 2.294 1_556 S
O154 C147 1.240 . S
O155 In143 2.326 1_556 S
O155 C147 1.252 . S
In156 O157 2.280 1_554 S
In156 O158 2.328 . S
In156 O162 2.253 1_554 S
In156 O163 2.328 . S
In156 O164 2.280 . S
In156 O165 2.323 1_554 S
In156 O167 2.307 . S
In156 O168 2.324 1_554 S
O157 In156 2.280 1_556 S
O157 C166 1.240 . S
O158 In156 2.328 . S
O158 C166 1.252 1_554 S
C159 O162 1.252 . S
C159 O163 1.260 1_556 S
C160 O167 1.240 . S
C160 O168 1.252 1_554 S
C161 O164 1.252 . S
C161 O165 1.260 1_554 S
O162 In156 2.253 1_556 S
O162 C159 1.252 . S
O163 In156 2.328 . S
O163 C159 1.260 1_554 S
O164 In156 2.280 . S
O164 C161 1.252 . S
O165 In156 2.323 1_556 S
O165 C161 1.260 1_556 S
C166 O157 1.240 . S
C166 O158 1.252 1_556 S
O167 In156 2.307 . S
O167 C160 1.240 . S
O168 In156 2.324 1_556 S
O168 C160 1.252 1_556 S
In169 O170 2.297 . S
In169 O171 2.326 1_554 S
In169 O175 2.270 . S
In169 O176 2.325 1_554 S
In169 O177 2.263 1_554 S
In169 O178 2.326 . S
In169 O180 2.290 1_554 S
In169 O181 2.327 . S
O170 In169 2.297 . S
O170 C179 1.240 . S
O171 In169 2.326 1_556 S
O171 C179 1.252 1_556 S
C172 O175 1.252 . S
C172 O176 1.260 1_554 S
C173 O180 1.240 . S
C173 O181 1.252 1_556 S
C174 O177 1.252 . S
C174 O178 1.260 1_556 S
O175 In169 2.270 . S
O175 C172 1.252 . S
O176 In169 2.325 1_556 S
O176 C172 1.260 1_556 S
O177 In169 2.263 1_556 S
O177 C174 1.252 . S
O178 In169 2.326 . S
O178 C174 1.260 1_554 S
C179 O170 1.240 . S
C179 O171 1.252 1_554 S
O180 In169 2.290 1_556 S
O180 C173 1.240 . S
O181 In169 2.327 . S
O181 C173 1.252 1_554 S
In182 O183 2.294 . S
In182 O184 2.326 . S
In182 O188 2.266 . S
In182 O189 2.326 . S
In182 O190 2.266 . S
In182 O191 2.326 . S
In182 O193 2.294 . S
In182 O194 2.326 . S
O183 In182 2.294 . S
O183 C192 1.240 . S
O184 In182 2.326 . S
O184 C192 1.252 . S
C185 O188 1.252 . S
C185 O189 1.260 . S
C186 O193 1.240 . S
C186 O194 1.252 . S
C187 O190 1.252 . S
C187 O191 1.260 . S
O188 In182 2.266 . S
O188 C185 1.252 . S
O189 In182 2.326 . S
O189 C185 1.260 . S
O190 In182 2.266 . S
O190 C187 1.252 . S
O191 In182 2.326 . S
O191 C187 1.260 . S
C192 O183 1.240 . S
C192 O184 1.252 . S
O193 In182 2.294 . S
O193 C186 1.240 . S
O194 In182 2.326 . S
O194 C186 1.252 . S
In195 O196 2.294 . S
In195 O197 2.326 . S
In195 O201 2.266 . S
In195 O202 2.326 . S
In195 O203 2.266 . S
In195 O204 2.326 . S
In195 O206 2.294 . S
In195 O207 2.326 . S
O196 In195 2.294 . S
O196 C205 1.240 . S
O197 In195 2.326 . S
O197 C205 1.252 . S
C198 O201 1.252 . S
C198 O202 1.260 . S
C199 O206 1.240 . S
C199 O207 1.252 . S
C200 O203 1.252 . S
C200 O204 1.260 . S
O201 In195 2.266 . S
O201 C198 1.252 . S
O202 In195 2.326 . S
O202 C198 1.260 . S
O203 In195 2.266 . S
O203 C200 1.252 . S
O204 In195 2.326 . S
O204 C200 1.260 . S
C205 O196 1.240 . S
C205 O197 1.252 . S
O206 In195 2.294 . S
O206 C199 1.240 . S
O207 In195 2.326 . S
O207 C199 1.252 . S
In208 O209 2.294 1_545 S
In208 O210 2.326 1_545 S
In208 O214 2.266 . S
In208 O215 2.326 . S
In208 O216 2.266 1_545 S
In208 O217 2.326 1_545 S
In208 O219 2.294 . S
In208 O220 2.326 . S
O209 In208 2.294 1_565 S
O209 C218 1.240 . S
O210 In208 2.326 1_565 S
O210 C218 1.252 . S
C211 O214 1.252 . S
C211 O215 1.260 . S
C212 O219 1.240 . S
C212 O220 1.252 . S
C213 O216 1.252 . S
C213 O217 1.260 . S
O214 In208 2.266 . S
O214 C211 1.252 . S
O215 In208 2.326 . S
O215 C211 1.260 . S
O216 In208 2.266 1_565 S
O216 C213 1.252 . S
O217 In208 2.326 1_565 S
O217 C213 1.260 . S
C218 O209 1.240 . S
C218 O210 1.252 . S
O219 In208 2.294 . S
O219 C212 1.240 . S
O220 In208 2.326 . S
O220 C212 1.252 . S
In221 O222 2.294 . S
In221 O223 2.326 . S
In221 O227 2.266 . S
In221 O228 2.326 . S
In221 O229 2.266 . S
In221 O230 2.326 . S
In221 O232 2.294 . S
In221 O233 2.326 . S
O222 In221 2.294 . S
O222 C231 1.240 . S
O223 In221 2.326 . S
O223 C231 1.252 . S
C224 O227 1.252 . S
C224 O228 1.260 . S
C225 O232 1.240 . S
C225 O233 1.252 . S
C226 O229 1.252 . S
C226 O230 1.260 . S
O227 In221 2.266 . S
O227 C224 1.252 . S
O228 In221 2.326 . S
O228 C224 1.260 . S
O229 In221 2.266 . S
O229 C226 1.252 . S
O230 In221 2.326 . S
O230 C226 1.260 . S
C231 O222 1.240 . S
C231 O223 1.252 . S
O232 In221 2.294 . S
O232 C225 1.240 . S
O233 In221 2.326 . S
O233 C225 1.252 . S
In234 O235 2.294 . S
In234 O236 2.326 . S
In234 O240 2.266 . S
In234 O241 2.326 . S
In234 O242 2.266 . S
In234 O243 2.326 . S
In234 O245 2.294 . S
In234 O246 2.326 . S
O235 In234 2.294 . S
O235 C244 1.240 . S
O236 In234 2.326 . S
O236 C244 1.252 . S
C237 O240 1.252 . S
C237 O241 1.260 . S
C238 O245 1.240 . S
C238 O246 1.252 . S
C239 O242 1.252 . S
C239 O243 1.260 . S
O240 In234 2.266 . S
O240 C237 1.252 . S
O241 In234 2.326 . S
O241 C237 1.260 . S
O242 In234 2.266 . S
O242 C239 1.252 . S
O243 In234 2.326 . S
O243 C239 1.260 . S
C244 O235 1.240 . S
C244 O236 1.252 . S
O245 In234 2.294 . S
O245 C238 1.240 . S
O246 In234 2.326 . S
O246 C238 1.252 . S
In247 O248 2.294 1_545 S
In247 O249 2.326 1_545 S
In247 O253 2.266 . S
In247 O254 2.326 . S
In247 O255 2.266 1_545 S
In247 O256 2.326 1_545 S
In247 O258 2.294 . S
In247 O259 2.326 . S
O248 In247 2.294 1_565 S
O248 C257 1.240 . S
O249 In247 2.326 1_565 S
O249 C257 1.252 . S
C250 O253 1.252 . S
C250 O254 1.260 . S
C251 O258 1.240 . S
C251 O259 1.252 . S
C252 O255 1.252 . S
C252 O256 1.260 . S
O253 In247 2.266 . S
O253 C250 1.252 . S
O254 In247 2.326 . S
O254 C250 1.260 . S
O255 In247 2.266 1_565 S
O255 C252 1.252 . S
O256 In247 2.326 1_565 S
O256 C252 1.260 . S
C257 O248 1.240 . S
C257 O249 1.252 . S
O258 In247 2.294 . S
O258 C251 1.240 . S
O259 In247 2.326 . S
O259 C251 1.252 . S
In260 O261 2.294 . S
In260 O262 2.326 . S
In260 O266 2.266 1_554 S
In260 O267 2.326 1_554 S
In260 O268 2.266 . S
In260 O269 2.326 . S
In260 O271 2.294 1_554 S
In260 O272 2.326 1_554 S
O261 In260 2.294 . S
O261 C270 1.240 . S
O262 In260 2.326 . S
O262 C270 1.252 . S
C263 O266 1.252 . S
C263 O267 1.260 . S
C264 O271 1.240 . S
C264 O272 1.252 . S
C265 O268 1.252 . S
C265 O269 1.260 . S
O266 In260 2.266 1_556 S
O266 C263 1.252 . S
O267 In260 2.326 1_556 S
O267 C263 1.260 . S
O268 In260 2.266 . S
O268 C265 1.252 . S
O269 In260 2.326 . S
O269 C265 1.260 . S
C270 O261 1.240 . S
C270 O262 1.252 . S
O271 In260 2.294 1_556 S
O271 C264 1.240 . S
O272 In260 2.326 1_556 S
O272 C264 1.252 . S
In273 O274 2.294 . S
In273 O275 2.326 . S
In273 O279 2.266 . S
In273 O280 2.326 . S
In273 O281 2.266 . S
In273 O282 2.326 . S
In273 O284 2.294 . S
In273 O285 2.326 . S
O274 In273 2.294 . S
O274 C283 1.240 . S
O275 In273 2.326 . S
O275 C283 1.252 . S
C276 O279 1.252 . S
C276 O280 1.260 . S
C277 O284 1.240 . S
C277 O285 1.252 . S
C278 O281 1.252 . S
C278 O282 1.260 . S
O279 In273 2.266 . S
O279 C276 1.252 . S
O280 In273 2.326 . S
O280 C276 1.260 . S
O281 In273 2.266 . S
O281 C278 1.252 . S
O282 In273 2.326 . S
O282 C278 1.260 . S
C283 O274 1.240 . S
C283 O275 1.252 . S
O284 In273 2.294 . S
O284 C277 1.240 . S
O285 In273 2.326 . S
O285 C277 1.252 . S
In286 O287 2.294 . S
In286 O288 2.326 . S
In286 O292 2.266 . S
In286 O293 2.326 . S
In286 O294 2.266 . S
In286 O295 2.326 . S
In286 O297 2.294 . S
In286 O298 2.326 . S
O287 In286 2.294 . S
O287 C296 1.240 . S
O288 In286 2.326 . S
O288 C296 1.252 . S
C289 O292 1.252 . S
C289 O293 1.260 . S
C290 O297 1.240 . S
C290 O298 1.252 . S
C291 O294 1.252 . S
C291 O295 1.260 . S
O292 In286 2.266 . S
O292 C289 1.252 . S
O293 In286 2.326 . S
O293 C289 1.260 . S
O294 In286 2.266 . S
O294 C291 1.252 . S
O295 In286 2.326 . S
O295 C291 1.260 . S
C296 O287 1.240 . S
C296 O288 1.252 . S
O297 In286 2.294 . S
O297 C290 1.240 . S
O298 In286 2.326 . S
O298 C290 1.252 . S
In299 O300 2.294 . S
In299 O301 2.326 . S
In299 O305 2.266 . S
In299 O306 2.326 . S
In299 O307 2.266 . S
In299 O308 2.326 . S
In299 O310 2.294 . S
In299 O311 2.326 . S
O300 In299 2.294 . S
O300 C309 1.240 . S
O301 In299 2.326 . S
O301 C309 1.252 . S
C302 O305 1.252 . S
C302 O306 1.260 . S
C303 O310 1.240 . S
C303 O311 1.252 . S
C304 O307 1.252 . S
C304 O308 1.260 . S
O305 In299 2.266 . S
O305 C302 1.252 . S
O306 In299 2.326 . S
O306 C302 1.260 . S
O307 In299 2.266 . S
O307 C304 1.252 . S
O308 In299 2.326 . S
O308 C304 1.260 . S
C309 O300 1.240 . S
C309 O301 1.252 . S
O310 In299 2.294 . S
O310 C303 1.240 . S
O311 In299 2.326 . S
O311 C303 1.252 . S
Fe312 O314 1.918 . S
Fe312 O317 1.997 . S
Fe312 O318 2.002 . S
Fe312 O323 1.976 . S
Fe312 O326 1.996 . S
Fe313 O314 1.918 . S
Fe313 O321 1.997 . S
Fe313 O324 1.996 . S
Fe313 O328 1.976 . S
Fe313 O331 2.002 . S
O314 Fe312 1.918 . S
O314 Fe313 1.918 . S
O314 Fe315 1.918 . S
Fe315 O314 1.918 . S
Fe315 O316 2.002 . S
Fe315 O325 1.976 . S
Fe315 O329 1.996 . S
Fe315 O332 1.997 . S
O316 Fe315 2.002 . S
O316 C333 1.295 . S
O317 Fe312 1.997 . S
O317 C333 1.235 . S
O318 Fe312 2.002 . S
O318 C319 1.295 . S
C319 O318 1.295 . S
C319 O321 1.235 . S
C320 O325 1.287 . S
C320 O326 1.255 . S
O321 Fe313 1.997 . S
O321 C319 1.235 . S
C322 O328 1.287 . S
C322 O329 1.255 . S
O323 Fe312 1.976 . S
O323 C330 1.287 . S
O324 Fe313 1.996 . S
O324 C330 1.255 . S
O325 Fe315 1.976 . S
O325 C320 1.287 . S
O326 Fe312 1.996 . S
O326 C320 1.255 . S
C327 O331 1.295 . S
C327 O332 1.235 . S
O328 Fe313 1.976 . S
O328 C322 1.287 . S
O329 Fe315 1.996 . S
O329 C322 1.255 . S
C330 O323 1.287 . S
C330 O324 1.255 . S
O331 Fe313 2.002 . S
O331 C327 1.295 . S
O332 Fe315 1.997 . S
O332 C327 1.235 . S
C333 O316 1.295 . S
C333 O317 1.235 . S
Fe334 O336 1.918 . S
Fe334 O339 1.997 . S
Fe334 O340 2.002 . S
Fe334 O345 1.976 . S
Fe334 O348 1.996 . S
Fe335 O336 1.918 . S
Fe335 O343 1.997 . S
Fe335 O346 1.996 . S
Fe335 O350 1.976 . S
Fe335 O353 2.002 . S
O336 Fe334 1.918 . S
O336 Fe335 1.918 . S
O336 Fe337 1.918 . S
Fe337 O336 1.918 . S
Fe337 O338 2.002 . S
Fe337 O347 1.976 . S
Fe337 O351 1.996 . S
Fe337 O354 1.997 . S
O338 Fe337 2.002 . S
O338 C355 1.295 . S
O339 Fe334 1.997 . S
O339 C355 1.235 . S
O340 Fe334 2.002 . S
O340 C341 1.295 . S
C341 O340 1.295 . S
C341 O343 1.235 . S
C342 O347 1.287 . S
C342 O348 1.255 . S
O343 Fe335 1.997 . S
O343 C341 1.235 . S
C344 O350 1.287 . S
C344 O351 1.255 . S
O345 Fe334 1.976 . S
O345 C352 1.287 . S
O346 Fe335 1.996 . S
O346 C352 1.255 . S
O347 Fe337 1.976 . S
O347 C342 1.287 . S
O348 Fe334 1.996 . S
O348 C342 1.255 . S
C349 O353 1.295 . S
C349 O354 1.235 . S
O350 Fe335 1.976 . S
O350 C344 1.287 . S
O351 Fe337 1.996 . S
O351 C344 1.255 . S
C352 O345 1.287 . S
C352 O346 1.255 . S
O353 Fe335 2.002 . S
O353 C349 1.295 . S
O354 Fe337 1.997 . S
O354 C349 1.235 . S
C355 O338 1.295 . S
C355 O339 1.235 . S
Fe356 O358 1.918 . S
Fe356 O361 1.997 . S
Fe356 O362 2.002 . S
Fe356 O367 1.976 . S
Fe356 O370 1.996 . S
Fe357 O358 1.918 . S
Fe357 O365 1.997 . S
Fe357 O368 1.996 . S
Fe357 O372 1.976 . S
Fe357 O375 2.002 . S
O358 Fe356 1.918 . S
O358 Fe357 1.918 . S
O358 Fe359 1.918 . S
Fe359 O358 1.918 . S
Fe359 O360 2.002 . S
Fe359 O369 1.976 . S
Fe359 O373 1.996 . S
Fe359 O376 1.997 . S
O360 Fe359 2.002 . S
O360 C377 1.295 . S
O361 Fe356 1.997 . S
O361 C377 1.235 . S
O362 Fe356 2.002 . S
O362 C363 1.295 . S
C363 O362 1.295 . S
C363 O365 1.235 . S
C364 O369 1.287 . S
C364 O370 1.255 . S
O365 Fe357 1.997 . S
O365 C363 1.235 . S
C366 O372 1.287 . S
C366 O373 1.255 . S
O367 Fe356 1.976 . S
O367 C374 1.287 . S
O368 Fe357 1.996 . S
O368 C374 1.255 . S
O369 Fe359 1.976 . S
O369 C364 1.287 . S
O370 Fe356 1.996 . S
O370 C364 1.255 . S
C371 O375 1.295 . S
C371 O376 1.235 . S
O372 Fe357 1.976 . S
O372 C366 1.287 . S
O373 Fe359 1.996 . S
O373 C366 1.255 . S
C374 O367 1.287 . S
C374 O368 1.255 . S
O375 Fe357 2.002 . S
O375 C371 1.295 . S
O376 Fe359 1.997 . S
O376 C371 1.235 . S
C377 O360 1.295 . S
C377 O361 1.235 . S
Fe378 O380 1.918 . S
Fe378 O383 1.997 . S
Fe378 O384 2.002 . S
Fe378 O389 1.976 . S
Fe378 O392 1.996 . S
Fe379 O380 1.918 . S
Fe379 O387 1.997 . S
Fe379 O390 1.996 . S
Fe379 O394 1.976 . S
Fe379 O397 2.002 . S
O380 Fe378 1.918 . S
O380 Fe379 1.918 . S
O380 Fe381 1.918 . S
Fe381 O380 1.918 . S
Fe381 O382 2.002 . S
Fe381 O391 1.976 . S
Fe381 O395 1.996 . S
Fe381 O398 1.997 . S
O382 Fe381 2.002 . S
O382 C399 1.295 . S
O383 Fe378 1.997 . S
O383 C399 1.235 . S
O384 Fe378 2.002 . S
O384 C385 1.295 . S
C385 O384 1.295 . S
C385 O387 1.235 . S
C386 O391 1.287 . S
C386 O392 1.255 . S
O387 Fe379 1.997 . S
O387 C385 1.235 . S
C388 O394 1.287 . S
C388 O395 1.255 . S
O389 Fe378 1.976 . S
O389 C396 1.287 . S
O390 Fe379 1.996 . S
O390 C396 1.255 . S
O391 Fe381 1.976 . S
O391 C386 1.287 . S
O392 Fe378 1.996 . S
O392 C386 1.255 . S
C393 O397 1.295 . S
C393 O398 1.235 . S
O394 Fe379 1.976 . S
O394 C388 1.287 . S
O395 Fe381 1.996 . S
O395 C388 1.255 . S
C396 O389 1.287 . S
C396 O390 1.255 . S
O397 Fe379 2.002 . S
O397 C393 1.295 . S
O398 Fe381 1.997 . S
O398 C393 1.235 . S
C399 O382 1.295 . S
C399 O383 1.235 . S
Fe400 O402 1.918 . S
Fe400 O405 1.997 . S
Fe400 O406 2.002 . S
Fe400 O411 1.976 . S
Fe400 O414 1.996 . S
Fe401 O402 1.918 . S
Fe401 O409 1.997 . S
Fe401 O412 1.996 . S
Fe401 O416 1.976 . S
Fe401 O419 2.002 . S
O402 Fe400 1.918 . S
O402 Fe401 1.918 . S
O402 Fe403 1.918 . S
Fe403 O402 1.918 . S
Fe403 O404 2.002 . S
Fe403 O413 1.976 . S
Fe403 O417 1.996 . S
Fe403 O420 1.997 . S
O404 Fe403 2.002 . S
O404 C421 1.295 . S
O405 Fe400 1.997 . S
O405 C421 1.235 . S
O406 Fe400 2.002 . S
O406 C407 1.295 . S
C407 O406 1.295 . S
C407 O409 1.235 . S
C408 O413 1.287 . S
C408 O414 1.255 . S
O409 Fe401 1.997 . S
O409 C407 1.235 . S
C410 O416 1.287 . S
C410 O417 1.255 . S
O411 Fe400 1.976 . S
O411 C418 1.287 . S
O412 Fe401 1.996 . S
O412 C418 1.255 . S
O413 Fe403 1.976 . S
O413 C408 1.287 . S
O414 Fe400 1.996 . S
O414 C408 1.255 . S
C415 O419 1.295 . S
C415 O420 1.235 . S
O416 Fe401 1.976 . S
O416 C410 1.287 . S
O417 Fe403 1.996 . S
O417 C410 1.255 . S
C418 O411 1.287 . S
C418 O412 1.255 . S
O419 Fe401 2.002 . S
O419 C415 1.295 . S
O420 Fe403 1.997 . S
O420 C415 1.235 . S
C421 O404 1.295 . S
C421 O405 1.235 . S
Fe422 O424 1.918 . S
Fe422 O427 1.997 . S
Fe422 O428 2.002 . S
Fe422 O433 1.976 . S
Fe422 O436 1.996 . S
Fe423 O424 1.918 . S
Fe423 O431 1.997 . S
Fe423 O434 1.996 . S
Fe423 O438 1.976 . S
Fe423 O441 2.002 . S
O424 Fe422 1.918 . S
O424 Fe423 1.918 . S
O424 Fe425 1.918 . S
Fe425 O424 1.918 . S
Fe425 O426 2.002 . S
Fe425 O435 1.976 . S
Fe425 O439 1.996 . S
Fe425 O442 1.997 . S
O426 Fe425 2.002 . S
O426 C443 1.295 . S
O427 Fe422 1.997 . S
O427 C443 1.235 . S
O428 Fe422 2.002 . S
O428 C429 1.295 . S
C429 O428 1.295 . S
C429 O431 1.235 . S
C430 O435 1.287 . S
C430 O436 1.255 . S
O431 Fe423 1.997 . S
O431 C429 1.235 . S
C432 O438 1.287 . S
C432 O439 1.255 . S
O433 Fe422 1.976 . S
O433 C440 1.287 . S
O434 Fe423 1.996 . S
O434 C440 1.255 . S
O435 Fe425 1.976 . S
O435 C430 1.287 . S
O436 Fe422 1.996 . S
O436 C430 1.255 . S
C437 O441 1.295 . S
C437 O442 1.235 . S
O438 Fe423 1.976 . S
O438 C432 1.287 . S
O439 Fe425 1.996 . S
O439 C432 1.255 . S
C440 O433 1.287 . S
C440 O434 1.255 . S
O441 Fe423 2.002 . S
O441 C437 1.295 . S
O442 Fe425 1.997 . S
O442 C437 1.235 . S
C443 O426 1.295 . S
C443 O427 1.235 . S
Fe444 O446 1.918 . S
Fe444 O449 1.997 . S
Fe444 O450 2.002 . S
Fe444 O455 1.976 . S
Fe444 O458 1.996 . S
Fe445 O446 1.918 . S
Fe445 O453 1.997 . S
Fe445 O456 1.996 . S
Fe445 O460 1.976 . S
Fe445 O463 2.002 . S
O446 Fe444 1.918 . S
O446 Fe445 1.918 . S
O446 Fe447 1.918 . S
Fe447 O446 1.918 . S
Fe447 O448 2.002 . S
Fe447 O457 1.976 . S
Fe447 O461 1.996 . S
Fe447 O464 1.997 . S
O448 Fe447 2.002 . S
O448 C465 1.295 . S
O449 Fe444 1.997 . S
O449 C465 1.235 . S
O450 Fe444 2.002 . S
O450 C451 1.295 . S
C451 O450 1.295 . S
C451 O453 1.235 . S
C452 O457 1.287 . S
C452 O458 1.255 . S
O453 Fe445 1.997 . S
O453 C451 1.235 . S
C454 O460 1.287 . S
C454 O461 1.255 . S
O455 Fe444 1.976 . S
O455 C462 1.287 . S
O456 Fe445 1.996 . S
O456 C462 1.255 . S
O457 Fe447 1.976 . S
O457 C452 1.287 . S
O458 Fe444 1.996 . S
O458 C452 1.255 . S
C459 O463 1.295 . S
C459 O464 1.235 . S
O460 Fe445 1.976 . S
O460 C454 1.287 . S
O461 Fe447 1.996 . S
O461 C454 1.255 . S
C462 O455 1.287 . S
C462 O456 1.255 . S
O463 Fe445 2.002 . S
O463 C459 1.295 . S
O464 Fe447 1.997 . S
O464 C459 1.235 . S
C465 O448 1.295 . S
C465 O449 1.235 . S
Fe466 O468 1.918 . S
Fe466 O471 1.997 . S
Fe466 O472 2.002 . S
Fe466 O477 1.976 . S
Fe466 O480 1.996 . S
Fe467 O468 1.918 . S
Fe467 O475 1.997 . S
Fe467 O478 1.996 . S
Fe467 O482 1.976 . S
Fe467 O485 2.002 . S
O468 Fe466 1.918 . S
O468 Fe467 1.918 . S
O468 Fe469 1.918 . S
Fe469 O468 1.918 . S
Fe469 O470 2.002 . S
Fe469 O479 1.976 . S
Fe469 O483 1.996 . S
Fe469 O486 1.997 . S
O470 Fe469 2.002 . S
O470 C487 1.295 . S
O471 Fe466 1.997 . S
O471 C487 1.235 . S
O472 Fe466 2.002 . S
O472 C473 1.295 . S
C473 O472 1.295 . S
C473 O475 1.235 . S
C474 O479 1.287 . S
C474 O480 1.255 . S
O475 Fe467 1.997 . S
O475 C473 1.235 . S
C476 O482 1.287 . S
C476 O483 1.255 . S
O477 Fe466 1.976 . S
O477 C484 1.287 . S
O478 Fe467 1.996 . S
O478 C484 1.255 . S
O479 Fe469 1.976 . S
O479 C474 1.287 . S
O480 Fe466 1.996 . S
O480 C474 1.255 . S
C481 O485 1.295 . S
C481 O486 1.235 . S
O482 Fe467 1.976 . S
O482 C476 1.287 . S
O483 Fe469 1.996 . S
O483 C476 1.255 . S
C484 O477 1.287 . S
C484 O478 1.255 . S
O485 Fe467 2.002 . S
O485 C481 1.295 . S
O486 Fe469 1.997 . S
O486 C481 1.235 . S
C487 O470 1.295 . S
C487 O471 1.235 . S
Fe488 O490 1.918 . S
Fe488 O493 1.997 . S
Fe488 O494 2.002 . S
Fe488 O499 1.976 . S
Fe488 O502 1.996 . S
Fe489 O490 1.918 . S
Fe489 O497 1.997 . S
Fe489 O500 1.996 . S
Fe489 O504 1.976 . S
Fe489 O507 2.002 . S
O490 Fe488 1.918 . S
O490 Fe489 1.918 . S
O490 Fe491 1.918 . S
Fe491 O490 1.918 . S
Fe491 O492 2.002 . S
Fe491 O501 1.976 . S
Fe491 O505 1.996 . S
Fe491 O508 1.997 . S
O492 Fe491 2.002 . S
O492 C509 1.295 . S
O493 Fe488 1.997 . S
O493 C509 1.235 . S
O494 Fe488 2.002 . S
O494 C495 1.295 . S
C495 O494 1.295 . S
C495 O497 1.235 . S
C496 O501 1.287 . S
C496 O502 1.255 . S
O497 Fe489 1.997 . S
O497 C495 1.235 . S
C498 O504 1.287 . S
C498 O505 1.255 . S
O499 Fe488 1.976 . S
O499 C506 1.287 . S
O500 Fe489 1.996 . S
O500 C506 1.255 . S
O501 Fe491 1.976 . S
O501 C496 1.287 . S
O502 Fe488 1.996 . S
O502 C496 1.255 . S
C503 O507 1.295 . S
C503 O508 1.235 . S
O504 Fe489 1.976 . S
O504 C498 1.287 . S
O505 Fe491 1.996 . S
O505 C498 1.255 . S
C506 O499 1.287 . S
C506 O500 1.255 . S
O507 Fe489 2.002 . S
O507 C503 1.295 . S
O508 Fe491 1.997 . S
O508 C503 1.235 . S
C509 O492 1.295 . S
C509 O493 1.235 . S
Fe510 O512 1.918 . S
Fe510 O515 1.997 . S
Fe510 O516 2.002 . S
Fe510 O521 1.976 . S
Fe510 O524 1.996 . S
Fe511 O512 1.918 . S
Fe511 O519 1.997 . S
Fe511 O522 1.996 . S
Fe511 O526 1.976 . S
Fe511 O529 2.002 . S
O512 Fe510 1.918 . S
O512 Fe511 1.918 . S
O512 Fe513 1.918 . S
Fe513 O512 1.918 . S
Fe513 O514 2.002 . S
Fe513 O523 1.976 . S
Fe513 O527 1.996 . S
Fe513 O530 1.997 . S
O514 Fe513 2.002 . S
O514 C531 1.295 . S
O515 Fe510 1.997 . S
O515 C531 1.235 . S
O516 Fe510 2.002 . S
O516 C517 1.295 . S
C517 O516 1.295 . S
C517 O519 1.235 . S
C518 O523 1.287 . S
C518 O524 1.255 . S
O519 Fe511 1.997 . S
O519 C517 1.235 . S
C520 O526 1.287 . S
C520 O527 1.255 . S
O521 Fe510 1.976 . S
O521 C528 1.287 . S
O522 Fe511 1.996 . S
O522 C528 1.255 . S
O523 Fe513 1.976 . S
O523 C518 1.287 . S
O524 Fe510 1.996 . S
O524 C518 1.255 . S
C525 O529 1.295 . S
C525 O530 1.235 . S
O526 Fe511 1.976 . S
O526 C520 1.287 . S
O527 Fe513 1.996 . S
O527 C520 1.255 . S
C528 O521 1.287 . S
C528 O522 1.255 . S
O529 Fe511 2.002 . S
O529 C525 1.295 . S
O530 Fe513 1.997 . S
O530 C525 1.235 . S
C531 O514 1.295 . S
C531 O515 1.235 . S
Fe532 O534 1.918 . S
Fe532 O537 1.997 . S
Fe532 O538 2.002 . S
Fe532 O543 1.976 . S
Fe532 O546 1.996 . S
Fe533 O534 1.918 . S
Fe533 O541 1.997 . S
Fe533 O544 1.996 . S
Fe533 O548 1.976 . S
Fe533 O551 2.002 . S
O534 Fe532 1.918 . S
O534 Fe533 1.918 . S
O534 Fe535 1.918 . S
Fe535 O534 1.918 . S
Fe535 O536 2.002 . S
Fe535 O545 1.976 . S
Fe535 O549 1.996 . S
Fe535 O552 1.997 . S
O536 Fe535 2.002 . S
O536 C553 1.295 . S
O537 Fe532 1.997 . S
O537 C553 1.235 . S
O538 Fe532 2.002 . S
O538 C539 1.295 . S
C539 O538 1.295 . S
C539 O541 1.235 . S
C540 O545 1.287 . S
C540 O546 1.255 . S
O541 Fe533 1.997 . S
O541 C539 1.235 . S
C542 O548 1.287 . S
C542 O549 1.255 . S
O543 Fe532 1.976 . S
O543 C550 1.287 . S
O544 Fe533 1.996 . S
O544 C550 1.255 . S
O545 Fe535 1.976 . S
O545 C540 1.287 . S
O546 Fe532 1.996 . S
O546 C540 1.255 . S
C547 O551 1.295 . S
C547 O552 1.235 . S
O548 Fe533 1.976 . S
O548 C542 1.287 . S
O549 Fe535 1.996 . S
O549 C542 1.255 . S
C550 O543 1.287 . S
C550 O544 1.255 . S
O551 Fe533 2.002 . S
O551 C547 1.295 . S
O552 Fe535 1.997 . S
O552 C547 1.235 . S
C553 O536 1.295 . S
C553 O537 1.235 . S
Fe554 O556 1.918 . S
Fe554 O559 1.997 . S
Fe554 O560 2.002 . S
Fe554 O565 1.976 . S
Fe554 O568 1.996 . S
Fe555 O556 1.918 . S
Fe555 O563 1.997 . S
Fe555 O566 1.996 . S
Fe555 O570 1.976 . S
Fe555 O573 2.002 . S
O556 Fe554 1.918 . S
O556 Fe555 1.918 . S
O556 Fe557 1.918 . S
Fe557 O556 1.918 . S
Fe557 O558 2.002 . S
Fe557 O567 1.976 . S
Fe557 O571 1.996 . S
Fe557 O574 1.997 . S
O558 Fe557 2.002 . S
O558 C575 1.295 . S
O559 Fe554 1.997 . S
O559 C575 1.235 . S
O560 Fe554 2.002 . S
O560 C561 1.295 . S
C561 O560 1.295 . S
C561 O563 1.235 . S
C562 O567 1.287 . S
C562 O568 1.255 . S
O563 Fe555 1.997 . S
O563 C561 1.235 . S
C564 O570 1.287 . S
C564 O571 1.255 . S
O565 Fe554 1.976 . S
O565 C572 1.287 . S
O566 Fe555 1.996 . S
O566 C572 1.255 . S
O567 Fe557 1.976 . S
O567 C562 1.287 . S
O568 Fe554 1.996 . S
O568 C562 1.255 . S
C569 O573 1.295 . S
C569 O574 1.235 . S
O570 Fe555 1.976 . S
O570 C564 1.287 . S
O571 Fe557 1.996 . S
O571 C564 1.255 . S
C572 O565 1.287 . S
C572 O566 1.255 . S
O573 Fe555 2.002 . S
O573 C569 1.295 . S
O574 Fe557 1.997 . S
O574 C569 1.235 . S
C575 O558 1.295 . S
C575 O559 1.235 . S
Fe576 O578 1.918 . S
Fe576 O581 1.997 . S
Fe576 O582 2.002 . S
Fe576 O587 1.976 . S
Fe576 O590 1.996 . S
Fe577 O578 1.918 . S
Fe577 O585 1.997 . S
Fe577 O588 1.996 . S
Fe577 O592 1.976 . S
Fe577 O595 2.002 . S
O578 Fe576 1.918 . S
O578 Fe577 1.918 . S
O578 Fe579 1.918 . S
Fe579 O578 1.918 . S
Fe579 O580 2.002 . S
Fe579 O589 1.976 . S
Fe579 O593 1.996 . S
Fe579 O596 1.997 . S
O580 Fe579 2.002 . S
O580 C597 1.295 . S
O581 Fe576 1.997 . S
O581 C597 1.235 . S
O582 Fe576 2.002 . S
O582 C583 1.295 . S
C583 O582 1.295 . S
C583 O585 1.235 . S
C584 O589 1.287 . S
C584 O590 1.255 . S
O585 Fe577 1.997 . S
O585 C583 1.235 . S
C586 O592 1.287 . S
C586 O593 1.255 . S
O587 Fe576 1.976 . S
O587 C594 1.287 . S
O588 Fe577 1.996 . S
O588 C594 1.255 . S
O589 Fe579 1.976 . S
O589 C584 1.287 . S
O590 Fe576 1.996 . S
O590 C584 1.255 . S
C591 O595 1.295 . S
C591 O596 1.235 . S
O592 Fe577 1.976 . S
O592 C586 1.287 . S
O593 Fe579 1.996 . S
O593 C586 1.255 . S
C594 O587 1.287 . S
C594 O588 1.255 . S
O595 Fe577 2.002 . S
O595 C591 1.295 . S
O596 Fe579 1.997 . S
O596 C591 1.235 . S
C597 O580 1.295 . S
C597 O581 1.235 . S
Fe598 O600 1.918 . S
Fe598 O603 1.997 . S
Fe598 O604 2.002 . S
Fe598 O609 1.976 . S
Fe598 O612 1.996 . S
Fe599 O600 1.918 . S
Fe599 O607 1.997 . S
Fe599 O610 1.996 . S
Fe599 O614 1.976 . S
Fe599 O617 2.002 . S
O600 Fe598 1.918 . S
O600 Fe599 1.918 . S
O600 Fe601 1.918 . S
Fe601 O600 1.918 . S
Fe601 O602 2.002 . S
Fe601 O611 1.976 . S
Fe601 O615 1.996 . S
Fe601 O618 1.997 . S
O602 Fe601 2.002 . S
O602 C619 1.295 . S
O603 Fe598 1.997 . S
O603 C619 1.235 . S
O604 Fe598 2.002 . S
O604 C605 1.295 . S
C605 O604 1.295 . S
C605 O607 1.235 . S
C606 O611 1.287 . S
C606 O612 1.255 . S
O607 Fe599 1.997 . S
O607 C605 1.235 . S
C608 O614 1.287 . S
C608 O615 1.255 . S
O609 Fe598 1.976 . S
O609 C616 1.287 . S
O610 Fe599 1.996 . S
O610 C616 1.255 . S
O611 Fe601 1.976 . S
O611 C606 1.287 . S
O612 Fe598 1.996 . S
O612 C606 1.255 . S
C613 O617 1.295 . S
C613 O618 1.235 . S
O614 Fe599 1.976 . S
O614 C608 1.287 . S
O615 Fe601 1.996 . S
O615 C608 1.255 . S
C616 O609 1.287 . S
C616 O610 1.255 . S
O617 Fe599 2.002 . S
O617 C613 1.295 . S
O618 Fe601 1.997 . S
O618 C613 1.235 . S
C619 O602 1.295 . S
C619 O603 1.235 . S
Fe620 O622 1.918 . S
Fe620 O625 1.997 . S
Fe620 O626 2.002 . S
Fe620 O631 1.976 . S
Fe620 O634 1.996 . S
Fe621 O622 1.918 . S
Fe621 O629 1.997 . S
Fe621 O632 1.996 . S
Fe621 O636 1.976 . S
Fe621 O639 2.002 . S
O622 Fe620 1.918 . S
O622 Fe621 1.918 . S
O622 Fe623 1.918 . S
Fe623 O622 1.918 . S
Fe623 O624 2.002 . S
Fe623 O633 1.976 . S
Fe623 O637 1.996 . S
Fe623 O640 1.997 . S
O624 Fe623 2.002 . S
O624 C641 1.295 . S
O625 Fe620 1.997 . S
O625 C641 1.235 . S
O626 Fe620 2.002 . S
O626 C627 1.295 . S
C627 O626 1.295 . S
C627 O629 1.235 . S
C628 O633 1.287 . S
C628 O634 1.255 . S
O629 Fe621 1.997 . S
O629 C627 1.235 . S
C630 O636 1.287 . S
C630 O637 1.255 . S
O631 Fe620 1.976 . S
O631 C638 1.287 . S
O632 Fe621 1.996 . S
O632 C638 1.255 . S
O633 Fe623 1.976 . S
O633 C628 1.287 . S
O634 Fe620 1.996 . S
O634 C628 1.255 . S
C635 O639 1.295 . S
C635 O640 1.235 . S
O636 Fe621 1.976 . S
O636 C630 1.287 . S
O637 Fe623 1.996 . S
O637 C630 1.255 . S
C638 O631 1.287 . S
C638 O632 1.255 . S
O639 Fe621 2.002 . S
O639 C635 1.295 . S
O640 Fe623 1.997 . S
O640 C635 1.235 . S
C641 O624 1.295 . S
C641 O625 1.235 . S
Fe642 O644 1.918 . S
Fe642 O647 1.997 . S
Fe642 O648 2.002 . S
Fe642 O653 1.976 . S
Fe642 O656 1.996 . S
Fe643 O644 1.918 . S
Fe643 O651 1.997 . S
Fe643 O654 1.996 . S
Fe643 O658 1.976 . S
Fe643 O661 2.002 . S
O644 Fe642 1.918 . S
O644 Fe643 1.918 . S
O644 Fe645 1.918 . S
Fe645 O644 1.918 . S
Fe645 O646 2.002 . S
Fe645 O655 1.976 . S
Fe645 O659 1.996 . S
Fe645 O662 1.997 . S
O646 Fe645 2.002 . S
O646 C663 1.295 . S
O647 Fe642 1.997 . S
O647 C663 1.235 . S
O648 Fe642 2.002 . S
O648 C649 1.295 . S
C649 O648 1.295 . S
C649 O651 1.235 . S
C650 O655 1.287 . S
C650 O656 1.255 . S
O651 Fe643 1.997 . S
O651 C649 1.235 . S
C652 O658 1.287 . S
C652 O659 1.255 . S
O653 Fe642 1.976 . S
O653 C660 1.287 . S
O654 Fe643 1.996 . S
O654 C660 1.255 . S
O655 Fe645 1.976 . S
O655 C650 1.287 . S
O656 Fe642 1.996 . S
O656 C650 1.255 . S
C657 O661 1.295 . S
C657 O662 1.235 . S
O658 Fe643 1.976 . S
O658 C652 1.287 . S
O659 Fe645 1.996 . S
O659 C652 1.255 . S
C660 O653 1.287 . S
C660 O654 1.255 . S
O661 Fe643 2.002 . S
O661 C657 1.295 . S
O662 Fe645 1.997 . S
O662 C657 1.235 . S
C663 O646 1.295 . S
C663 O647 1.235 . S
C664 C665 1.387 . S
C664 H668 0.950 . S
C664 C673 1.390 . S
C665 C664 1.387 . S
C665 C667 1.387 . S
H666 C673 0.950 . S
C667 C665 1.387 . S
C667 C669 1.390 . S
C667 H671 0.950 . S
H668 C664 0.950 . S
C669 C667 1.390 . S
C669 C670 1.387 . S
C669 H672 0.950 . S
C670 C669 1.387 . S
C670 C673 1.387 . S
H671 C667 0.950 . S
H672 C669 0.950 . S
C673 C664 1.390 . S
C673 H666 0.950 . S
C673 C670 1.387 . S
C674 C675 1.387 . S
C674 H678 0.950 . S
C674 C683 1.390 . S
C675 C674 1.387 . S
C675 C677 1.387 . S
H676 C683 0.950 . S
C677 C675 1.387 . S
C677 C679 1.390 . S
C677 H681 0.950 . S
H678 C674 0.950 . S
C679 C677 1.390 . S
C679 C680 1.387 . S
C679 H682 0.950 . S
C680 C679 1.387 . S
C680 C683 1.387 . S
H681 C677 0.950 . S
H682 C679 0.950 . S
C683 C674 1.390 . S
C683 H676 0.950 . S
C683 C680 1.387 . S
C684 C685 1.387 . S
C684 H688 0.950 . S
C684 C693 1.390 . S
C685 C684 1.387 . S
C685 C687 1.387 . S
H686 C693 0.950 . S
C687 C685 1.387 . S
C687 C689 1.390 . S
C687 H691 0.950 . S
H688 C684 0.950 . S
C689 C687 1.390 . S
C689 C690 1.387 . S
C689 H692 0.950 . S
C690 C689 1.387 . S
C690 C693 1.387 . S
H691 C687 0.950 . S
H692 C689 0.950 . S
C693 C684 1.390 . S
C693 H686 0.950 . S
C693 C690 1.387 . S
C694 C695 1.387 . S
C694 H698 0.950 . S
C694 C703 1.390 . S
C695 C694 1.387 . S
C695 C697 1.387 . S
H696 C703 0.950 . S
C697 C695 1.387 . S
C697 C699 1.390 1_554 S
C697 H701 0.950 . S
H698 C694 0.950 . S
C699 C697 1.390 1_556 S
C699 C700 1.387 . S
C699 H702 0.950 . S
C700 C699 1.387 . S
C700 C703 1.387 1_556 S
H701 C697 0.950 . S
H702 C699 0.950 . S
C703 C694 1.390 . S
C703 H696 0.950 . S
C703 C700 1.387 1_554 S
C704 C705 1.387 . S
C704 H708 0.950 . S
C704 C713 1.390 . S
C705 C704 1.387 . S
C705 C707 1.387 . S
H706 C713 0.950 . S
C707 C705 1.387 . S
C707 C709 1.390 . S
C707 H711 0.950 . S
H708 C704 0.950 . S
C709 C707 1.390 . S
C709 C710 1.387 . S
C709 H712 0.950 . S
C710 C709 1.387 . S
C710 C713 1.387 . S
H711 C707 0.950 . S
H712 C709 0.950 . S
C713 C704 1.390 . S
C713 H706 0.950 . S
C713 C710 1.387 . S
C714 C715 1.387 . S
C714 H718 0.950 . S
C714 C723 1.390 . S
C715 C714 1.387 . S
C715 C717 1.387 . S
H716 C723 0.950 . S
C717 C715 1.387 . S
C717 C719 1.390 . S
C717 H721 0.950 . S
H718 C714 0.950 . S
C719 C717 1.390 . S
C719 C720 1.387 . S
C719 H722 0.950 . S
C720 C719 1.387 . S
C720 C723 1.387 . S
H721 C717 0.950 . S
H722 C719 0.950 . S
C723 C714 1.390 . S
C723 H716 0.950 . S
C723 C720 1.387 . S
C724 C725 1.387 . S
C724 H728 0.950 . S
C724 C733 1.390 . S
C725 C724 1.387 . S
C725 C727 1.387 . S
H726 C733 0.950 . S
C727 C725 1.387 . S
C727 C729 1.390 . S
C727 H731 0.950 . S
H728 C724 0.950 . S
C729 C727 1.390 . S
C729 C730 1.387 . S
C729 H732 0.950 . S
C730 C729 1.387 . S
C730 C733 1.387 . S
H731 C727 0.950 . S
H732 C729 0.950 . S
C733 C724 1.390 . S
C733 H726 0.950 . S
C733 C730 1.387 . S
C734 C735 1.387 . S
C734 H738 0.950 . S
C734 C743 1.390 . S
C735 C734 1.387 . S
C735 C737 1.387 . S
H736 C743 0.950 . S
C737 C735 1.387 . S
C737 C739 1.390 1_556 S
C737 H741 0.950 . S
H738 C734 0.950 . S
C739 C737 1.390 1_554 S
C739 C740 1.387 . S
C739 H742 0.950 . S
C740 C739 1.387 . S
C740 C743 1.387 1_554 S
H741 C737 0.950 . S
H742 C739 0.950 . S
C743 C734 1.390 . S
C743 H736 0.950 . S
C743 C740 1.387 1_556 S
C744 C745 1.387 . S
C744 H748 0.950 . S
C744 C753 1.390 . S
C745 C744 1.387 . S
C745 C747 1.387 . S
H746 C753 0.950 . S
C747 C745 1.387 . S
C747 C749 1.390 . S
C747 H751 0.950 . S
H748 C744 0.950 . S
C749 C747 1.390 . S
C749 C750 1.387 . S
C749 H752 0.950 . S
C750 C749 1.387 . S
C750 C753 1.387 . S
H751 C747 0.950 . S
H752 C749 0.950 . S
C753 C744 1.390 . S
C753 H746 0.950 . S
C753 C750 1.387 . S
C754 C755 1.387 . S
C754 H758 0.950 . S
C754 C763 1.390 . S
C755 C754 1.387 . S
C755 C757 1.387 . S
H756 C763 0.950 . S
C757 C755 1.387 . S
C757 C759 1.390 . S
C757 H761 0.950 . S
H758 C754 0.950 . S
C759 C757 1.390 . S
C759 C760 1.387 1_545 S
C759 H762 0.950 1_545 S
C760 C759 1.387 1_565 S
C760 C763 1.387 1_565 S
H761 C757 0.950 . S
H762 C759 0.950 1_565 S
C763 C754 1.390 . S
C763 H756 0.950 . S
C763 C760 1.387 1_545 S
C764 C765 1.387 . S
C764 H768 0.950 . S
C764 C773 1.390 . S
C765 C764 1.387 . S
C765 C767 1.387 . S
H766 C773 0.950 . S
C767 C765 1.387 . S
C767 C769 1.390 . S
C767 H771 0.950 . S
H768 C764 0.950 . S
C769 C767 1.390 . S
C769 C770 1.387 . S
C769 H772 0.950 . S
C770 C769 1.387 . S
C770 C773 1.387 . S
H771 C767 0.950 . S
H772 C769 0.950 . S
C773 C764 1.390 . S
C773 H766 0.950 . S
C773 C770 1.387 . S
C774 C775 1.387 . S
C774 H778 0.950 . S
C774 C783 1.390 1_565 S
C775 C774 1.387 . S
C775 C777 1.387 . S
H776 C783 0.950 . S
C777 C775 1.387 . S
C777 C779 1.402 . S
C777 H781 0.950 . S
H778 C774 0.950 . S
C779 C777 1.402 . S
C779 C780 1.381 1_565 S
C779 H782 0.945 1_565 S
C780 C779 1.381 1_545 S
C780 C783 1.387 . S
H781 C777 0.950 . S
H782 C779 0.945 1_545 S
C783 C774 1.390 1_545 S
C783 H776 0.950 . S
C783 C780 1.387 . S
C784 C785 1.387 . S
C784 H788 0.950 . S
C784 C793 1.390 . S
C785 C784 1.387 . S
C785 C787 1.387 . S
H786 C793 0.950 . S
C787 C785 1.387 . S
C787 C789 1.390 . S
C787 H791 0.950 . S
H788 C784 0.950 . S
C789 C787 1.390 . S
C789 C790 1.387 . S
C789 H792 0.950 . S
C790 C789 1.387 . S
C790 C793 1.387 . S
H791 C787 0.950 . S
H792 C789 0.950 . S
C793 C784 1.390 . S
C793 H786 0.950 . S
C793 C790 1.387 . S
C794 C795 1.387 . S
C794 H798 0.950 . S
C794 C803 1.390 . S
C795 C794 1.387 . S
C795 C797 1.387 . S
H796 C803 0.950 1_565 S
C797 C795 1.387 . S
C797 C799 1.390 . S
C797 H801 0.950 . S
H798 C794 0.950 . S
C799 C797 1.390 . S
C799 C800 1.387 1_545 S
C799 H802 0.950 . S
C800 C799 1.387 1_565 S
C800 C803 1.387 1_565 S
H801 C797 0.950 . S
H802 C799 0.950 . S
C803 C794 1.390 . S
C803 H796 0.950 1_545 S
C803 C800 1.387 1_545 S
C804 C805 1.387 . S
C804 H808 0.950 . S
C804 C813 1.390 . S
C805 C804 1.387 . S
C805 C807 1.387 . S
H806 C813 0.950 . S
C807 C805 1.387 . S
C807 C809 1.390 . S
C807 H811 0.950 . S
H808 C804 0.950 . S
C809 C807 1.390 . S
C809 C810 1.387 . S
C809 H812 0.950 . S
C810 C809 1.387 . S
C810 C813 1.387 . S
H811 C807 0.950 . S
H812 C809 0.950 . S
C813 C804 1.390 . S
C813 H806 0.950 . S
C813 C810 1.387 . S
C814 C815 1.387 . S
C814 H818 0.950 . S
C814 C823 1.390 1_565 S
C815 C814 1.387 . S
C815 C817 1.387 . S
H816 C823 0.950 . S
C817 C815 1.387 . S
C817 C819 1.390 . S
C817 H821 0.950 . S
H818 C814 0.950 . S
C819 C817 1.390 . S
C819 C820 1.387 1_565 S
C819 H822 0.950 . S
C820 C819 1.387 1_545 S
C820 C823 1.387 . S
H821 C817 0.950 . S
H822 C819 0.950 . S
C823 C814 1.390 1_545 S
C823 H816 0.950 . S
C823 C820 1.387 . S
C824 C825 1.387 . S
C824 H828 0.950 . S
C824 C833 1.390 . S
C825 C824 1.387 . S
C825 C827 1.387 . S
H826 C833 0.950 . S
C827 C825 1.387 . S
C827 C829 1.390 . S
C827 H831 0.950 . S
H828 C824 0.950 . S
C829 C827 1.390 . S
C829 C830 1.387 . S
C829 H832 0.950 . S
C830 C829 1.387 . S
C830 C833 1.387 . S
H831 C827 0.950 . S
H832 C829 0.950 . S
C833 C824 1.390 . S
C833 H826 0.950 . S
C833 C830 1.387 . S
C834 C835 1.387 . S
C834 H838 0.950 . S
C834 C843 1.390 . S
C835 C834 1.387 . S
C835 C837 1.387 . S
H836 C843 0.950 . S
C837 C835 1.387 . S
C837 C839 1.390 . S
C837 H841 0.950 . S
H838 C834 0.950 . S
C839 C837 1.390 . S
C839 C840 1.387 . S
C839 H842 0.950 . S
C840 C839 1.387 . S
C840 C843 1.387 . S
H841 C837 0.950 . S
H842 C839 0.950 . S
C843 C834 1.390 . S
C843 H836 0.950 . S
C843 C840 1.387 . S
C844 C845 1.387 . S
C844 H848 0.950 . S
C844 C853 1.390 . S
C845 C844 1.387 . S
C845 C847 1.387 . S
H846 C853 0.950 1_655 S
C847 C845 1.387 . S
C847 C849 1.373 1_455 S
C847 H851 0.950 . S
H848 C844 0.950 . S
C849 C847 1.373 1_655 S
C849 C850 1.395 . S
C849 H852 0.960 . S
C850 C849 1.395 . S
C850 C853 1.387 1_655 S
H851 C847 0.950 . S
H852 C849 0.960 . S
C853 C844 1.390 . S
C853 H846 0.950 1_455 S
C853 C850 1.387 1_455 S
C854 C855 1.387 . S
C854 H858 0.950 . S
C854 C863 1.390 . S
C855 C854 1.387 . S
C855 C857 1.387 . S
H856 C863 0.950 . S
C857 C855 1.387 . S
C857 C859 1.390 . S
C857 H861 0.950 . S
H858 C854 0.950 . S
C859 C857 1.390 . S
C859 C860 1.387 . S
C859 H862 0.950 . S
C860 C859 1.387 . S
C860 C863 1.387 . S
H861 C857 0.950 . S
H862 C859 0.950 . S
C863 C854 1.390 . S
C863 H856 0.950 . S
C863 C860 1.387 . S
C864 C865 1.387 . S
C864 H868 0.950 . S
C864 C873 1.390 . S
C865 C864 1.387 . S
C865 C867 1.387 . S
H866 C873 0.950 1_455 S
C867 C865 1.387 . S
C867 C869 1.390 1_655 S
C867 H871 0.950 . S
H868 C864 0.950 . S
C869 C867 1.390 1_455 S
C869 C870 1.387 . S
C869 H872 0.950 . S
C870 C869 1.387 . S
C870 C873 1.387 1_455 S
H871 C867 0.950 . S
H872 C869 0.950 . S
C873 C864 1.390 . S
C873 H866 0.950 1_655 S
C873 C870 1.387 1_655 S
C874 C875 1.387 . S
C874 H878 0.950 . S
C874 C883 1.390 . S
C875 C874 1.387 . S
C875 C877 1.387 . S
H876 C883 0.950 . S
C877 C875 1.387 . S
C877 C879 1.390 . S
C877 H881 0.950 . S
H878 C874 0.950 . S
C879 C877 1.390 . S
C879 C880 1.387 . S
C879 H882 0.950 . S
C880 C879 1.387 . S
C880 C883 1.387 . S
H881 C877 0.950 . S
H882 C879 0.950 . S
C883 C874 1.390 . S
C883 H876 0.950 . S
C883 C880 1.387 . S
C884 C885 1.387 . S
C884 H888 0.950 . S
C884 C893 1.390 1_455 S
C885 C884 1.387 . S
C885 C887 1.387 . S
H886 C893 0.950 . S
C887 C885 1.387 . S
C887 C889 1.390 . S
C887 H891 0.950 . S
H888 C884 0.950 . S
C889 C887 1.390 . S
C889 C890 1.387 1_455 S
C889 H892 0.950 . S
C890 C889 1.387 1_655 S
C890 C893 1.387 . S
H891 C887 0.950 . S
H892 C889 0.950 . S
C893 C884 1.390 1_655 S
C893 H886 0.950 . S
C893 C890 1.387 . S
C894 C895 1.387 . S
C894 H898 0.950 . S
C894 C903 1.390 . S
C895 C894 1.387 . S
C895 C897 1.387 . S
H896 C903 0.950 . S
C897 C895 1.387 . S
C897 C899 1.390 . S
C897 H901 0.950 . S
H898 C894 0.950 . S
C899 C897 1.390 . S
C899 C900 1.387 . S
C899 H902 0.950 . S
C900 C899 1.387 . S
C900 C903 1.387 . S
H901 C897 0.950 . S
H902 C899 0.950 . S
C903 C894 1.390 . S
C903 H896 0.950 . S
C903 C900 1.387 . S
C904 C905 1.387 . S
C904 H908 0.950 . S
C904 C913 1.390 . S
C905 C904 1.387 . S
C905 C907 1.387 . S
H906 C913 0.950 . S
C907 C905 1.387 . S
C907 C909 1.390 . S
C907 H911 0.950 . S
H908 C904 0.950 . S
C909 C907 1.390 . S
C909 C910 1.387 . S
C909 H912 0.950 . S
C910 C909 1.387 . S
C910 C913 1.387 . S
H911 C907 0.950 . S
H912 C909 0.950 . S
C913 C904 1.390 . S
C913 H906 0.950 . S
C913 C910 1.387 . S
C914 C915 1.387 . S
C914 H918 0.950 . S
C914 C923 1.390 . S
C915 C914 1.387 . S
C915 C917 1.387 . S
H916 C923 0.950 . S
C917 C915 1.387 . S
C917 C919 1.390 . S
C917 H921 0.950 . S
H918 C914 0.950 . S
C919 C917 1.390 . S
C919 C920 1.387 . S
C919 H922 0.950 . S
C920 C919 1.387 . S
C920 C923 1.387 . S
H921 C917 0.950 . S
H922 C919 0.950 . S
C923 C914 1.390 . S
C923 H916 0.950 . S
C923 C920 1.387 . S
C924 C925 1.387 . S
C924 H928 0.950 . S
C924 C933 1.390 . S
C925 C924 1.387 . S
C925 C927 1.387 . S
H926 C933 0.950 . S
C927 C925 1.387 . S
C927 C929 1.390 . S
C927 H931 0.950 . S
H928 C924 0.950 . S
C929 C927 1.390 . S
C929 C930 1.387 . S
C929 H932 0.950 . S
C930 C929 1.387 . S
C930 C933 1.387 . S
H931 C927 0.950 . S
H932 C929 0.950 . S
C933 C924 1.390 . S
C933 H926 0.950 . S
C933 C930 1.387 . S
C934 C935 1.387 . S
C934 H938 0.950 . S
C934 C943 1.390 . S
C935 C934 1.387 . S
C935 C937 1.387 . S
H936 C943 0.950 . S
C937 C935 1.387 . S
C937 C939 1.390 1_556 S
C937 H941 0.950 . S
H938 C934 0.950 . S
C939 C937 1.390 1_554 S
C939 C940 1.387 . S
C939 H942 0.950 . S
C940 C939 1.387 . S
C940 C943 1.387 1_554 S
H941 C937 0.950 . S
H942 C939 0.950 . S
C943 C934 1.390 . S
C943 H936 0.950 . S
C943 C940 1.387 1_556 S
C944 C945 1.387 . S
C944 H948 0.950 . S
C944 C953 1.390 . S
C945 C944 1.387 . S
C945 C947 1.387 . S
H946 C953 0.950 . S
C947 C945 1.387 . S
C947 C949 1.390 . S
C947 H951 0.950 . S
H948 C944 0.950 . S
C949 C947 1.390 . S
C949 C950 1.387 . S
C949 H952 0.950 . S
C950 C949 1.387 . S
C950 C953 1.387 . S
H951 C947 0.950 . S
H952 C949 0.950 . S
C953 C944 1.390 . S
C953 H946 0.950 . S
C953 C950 1.387 . S
C954 C955 1.387 . S
C954 H958 0.950 . S
C954 C963 1.390 . S
C955 C954 1.387 . S
C955 C957 1.387 . S
H956 C963 0.950 . S
C957 C955 1.387 . S
C957 C959 1.390 . S
C957 H961 0.950 . S
H958 C954 0.950 . S
C959 C957 1.390 . S
C959 C960 1.387 . S
C959 H962 0.950 . S
C960 C959 1.387 . S
C960 C963 1.387 . S
H961 C957 0.950 . S
H962 C959 0.950 . S
C963 C954 1.390 . S
C963 H956 0.950 . S
C963 C960 1.387 . S
C964 C965 1.387 . S
C964 H968 0.950 . S
C964 C973 1.390 . S
C965 C964 1.387 . S
C965 C967 1.387 . S
H966 C973 0.950 . S
C967 C965 1.387 . S
C967 C969 1.390 . S
C967 H971 0.950 . S
H968 C964 0.950 . S
C969 C967 1.390 . S
C969 C970 1.387 . S
C969 H972 0.950 . S
C970 C969 1.387 . S
C970 C973 1.387 . S
H971 C967 0.950 . S
H972 C969 0.950 . S
C973 C964 1.390 . S
C973 H966 0.950 . S
C973 C970 1.387 . S
C974 C975 1.387 . S
C974 H978 0.919 1_655 S
C974 C983 1.390 1_554 S
C975 C974 1.387 . S
C975 C977 1.387 . S
H976 C983 0.950 . S
C977 C975 1.387 . S
C977 C979 1.390 . S
C977 H981 0.950 . S
H978 C974 0.919 1_455 S
C979 C977 1.390 . S
C979 C980 1.387 1_554 S
C979 H982 0.950 . S
C980 C979 1.387 1_556 S
C980 C983 1.387 . S
H981 C977 0.950 . S
H982 C979 0.950 . S
C983 C974 1.390 1_556 S
C983 H976 0.950 . S
C983 C980 1.387 . S
C984 C985 1.387 . S
C984 H988 0.950 . S
C984 C993 1.390 . S
C985 C984 1.387 . S
C985 C987 1.387 . S
H986 C993 0.950 . S
C987 C985 1.387 . S
C987 C989 1.390 . S
C987 H991 0.950 . S
H988 C984 0.950 . S
C989 C987 1.390 . S
C989 C990 1.387 . S
C989 H992 0.950 . S
C990 C989 1.387 . S
C990 C993 1.387 . S
H991 C987 0.950 . S
H992 C989 0.950 . S
C993 C984 1.390 . S
C993 H986 0.950 . S
C993 C990 1.387 . S
C994 C995 1.387 . S
C994 H998 0.950 . S
C994 C1003 1.390 . S
C995 C994 1.387 . S
C995 C997 1.387 . S
H996 C1003 0.950 . S
C997 C995 1.387 . S
C997 C999 1.390 1_565 S
C997 H1001 0.950 . S
H998 C994 0.950 . S
C999 C997 1.390 1_545 S
C999 C1000 1.387 . S
C999 H1002 0.950 . S
C1000 C999 1.387 . S
C1000 C1003 1.387 1_545 S
H1001 C997 0.950 . S
H1002 C999 0.950 . S
C1003 C994 1.390 . S
C1003 H996 0.950 . S
C1003 C1000 1.387 1_565 S
C1004 C1005 1.387 . S
C1004 H1008 0.950 . S
C1004 C1013 1.390 . S
C1005 C1004 1.387 . S
C1005 C1007 1.387 . S
H1006 C1013 0.950 . S
C1007 C1005 1.387 . S
C1007 C1009 1.390 . S
C1007 H1011 0.950 . S
H1008 C1004 0.950 . S
C1009 C1007 1.390 . S
C1009 C1010 1.387 . S
C1009 H1012 0.950 . S
C1010 C1009 1.387 . S
C1010 C1013 1.387 . S
H1011 C1007 0.950 . S
H1012 C1009 0.950 . S
C1013 C1004 1.390 . S
C1013 H1006 0.950 . S
C1013 C1010 1.387 . S
C1014 C1015 1.387 . S
C1014 H1018 0.950 . S
C1014 C1023 1.390 . S
C1015 C1014 1.387 . S
C1015 C1017 1.387 . S
H1016 C1023 0.950 . S
C1017 C1015 1.387 . S
C1017 C1019 1.390 1_545 S
C1017 H1021 0.950 1_554 S
H1018 C1014 0.950 . S
C1019 C1017 1.390 1_565 S
C1019 C1020 1.387 . S
C1019 H1022 0.950 . S
C1020 C1019 1.387 . S
C1020 C1023 1.387 1_565 S
H1021 C1017 0.950 1_556 S
H1022 C1019 0.950 . S
C1023 C1014 1.390 . S
C1023 H1016 0.950 . S
C1023 C1020 1.387 1_545 S
C1024 C1025 1.387 . S
C1024 H1028 0.950 . S
C1024 C1033 1.390 . S
C1025 C1024 1.387 . S
C1025 C1027 1.387 . S
H1026 C1033 0.950 . S
C1027 C1025 1.387 . S
C1027 C1029 1.390 . S
C1027 H1031 0.950 . S
H1028 C1024 0.950 . S
C1029 C1027 1.390 . S
C1029 C1030 1.387 . S
C1029 H1032 0.950 . S
C1030 C1029 1.387 . S
C1030 C1033 1.387 . S
H1031 C1027 0.950 . S
H1032 C1029 0.950 . S
C1033 C1024 1.390 . S
C1033 H1026 0.950 . S
C1033 C1030 1.387 . S
C1034 C1035 1.387 . S
C1034 H1038 0.950 . S
C1034 C1043 1.390 1_565 S
C1035 C1034 1.387 . S
C1035 C1037 1.387 . S
H1036 C1043 0.950 . S
C1037 C1035 1.387 . S
C1037 C1039 1.390 . S
C1037 H1041 0.950 . S
H1038 C1034 0.950 . S
C1039 C1037 1.390 . S
C1039 C1040 1.387 1_565 S
C1039 H1042 0.950 . S
C1040 C1039 1.387 1_545 S
C1040 C1043 1.387 . S
H1041 C1037 0.950 . S
H1042 C1039 0.950 . S
C1043 C1034 1.390 1_545 S
C1043 H1036 0.950 . S
C1043 C1040 1.387 . S
C1044 C1045 1.387 . S
C1044 H1048 0.950 . S
C1044 C1053 1.390 . S
C1045 C1044 1.387 . S
C1045 C1047 1.387 . S
H1046 C1053 0.950 . S
C1047 C1045 1.387 . S
C1047 C1049 1.390 . S
C1047 H1051 0.950 . S
H1048 C1044 0.950 . S
C1049 C1047 1.390 . S
C1049 C1050 1.387 . S
C1049 H1052 0.950 . S
C1050 C1049 1.387 . S
C1050 C1053 1.387 . S
H1051 C1047 0.950 . S
H1052 C1049 0.950 . S
C1053 C1044 1.390 . S
C1053 H1046 0.950 . S
C1053 C1050 1.387 . S
C1054 C1055 1.387 . S
C1054 H1058 0.950 . S
C1054 C1063 1.390 . S
C1055 C1054 1.387 . S
C1055 C1057 1.387 . S
H1056 C1063 0.950 . S
C1057 C1055 1.387 . S
C1057 C1059 1.390 1_545 S
C1057 H1061 0.950 . S
H1058 C1054 0.950 . S
C1059 C1057 1.390 1_565 S
C1059 C1060 1.387 . S
C1059 H1062 0.950 . S
C1060 C1059 1.387 . S
C1060 C1063 1.387 1_565 S
H1061 C1057 0.950 . S
H1062 C1059 0.950 . S
C1063 C1054 1.390 . S
C1063 H1056 0.950 . S
C1063 C1060 1.387 1_545 S
C1064 C1065 1.387 . S
C1064 H1068 0.950 . S
C1064 C1073 1.390 . S
C1065 C1064 1.387 . S
C1065 C1067 1.387 . S
H1066 C1073 0.950 . S
C1067 C1065 1.387 . S
C1067 C1069 1.390 . S
C1067 H1071 0.950 . S
H1068 C1064 0.950 . S
C1069 C1067 1.390 . S
C1069 C1070 1.387 . S
C1069 H1072 0.950 . S
C1070 C1069 1.387 . S
C1070 C1073 1.387 . S
H1071 C1067 0.950 . S
H1072 C1069 0.950 . S
C1073 C1064 1.390 . S
C1073 H1066 0.950 . S
C1073 C1070 1.387 . S
C1074 C1075 1.387 . S
C1074 H1078 0.950 . S
C1074 C1083 1.390 . S
C1075 C1074 1.387 . S
C1075 C1077 1.387 . S
H1076 C1083 0.950 . S
C1077 C1075 1.387 . S
C1077 C1079 1.390 . S
C1077 H1081 0.950 . S
H1078 C1074 0.950 . S
C1079 C1077 1.390 . S
C1079 C1080 1.387 . S
C1079 H1082 0.950 . S
C1080 C1079 1.387 . S
C1080 C1083 1.387 . S
H1081 C1077 0.950 . S
H1082 C1079 0.950 . S
C1083 C1074 1.390 . S
C1083 H1076 0.950 . S
C1083 C1080 1.387 . S
C1084 C1085 1.387 . S
C1084 H1088 0.950 . S
C1084 C1093 1.390 . S
C1085 C1084 1.387 . S
C1085 C1087 1.387 . S
H1086 C1093 0.950 1_455 S
C1087 C1085 1.387 . S
C1087 C1089 1.406 . S
C1087 H1091 0.950 . S
H1088 C1084 0.950 . S
C1089 C1087 1.406 . S
C1089 C1090 1.381 1_655 S
C1089 H1092 0.941 1_655 S
C1090 C1089 1.381 1_455 S
C1090 C1093 1.387 1_455 S
H1091 C1087 0.950 . S
H1092 C1089 0.941 1_455 S
C1093 C1084 1.390 . S
C1093 H1086 0.950 1_655 S
C1093 C1090 1.387 1_655 S
C1094 C1095 1.387 . S
C1094 H1098 0.950 . S
C1094 C1103 1.390 . S
C1095 C1094 1.387 . S
C1095 C1097 1.387 . S
H1096 C1103 0.950 . S
C1097 C1095 1.387 . S
C1097 C1099 1.390 . S
C1097 H1101 0.950 . S
H1098 C1094 0.950 . S
C1099 C1097 1.390 . S
C1099 C1100 1.387 . S
C1099 H1102 0.950 . S
C1100 C1099 1.387 . S
C1100 C1103 1.387 . S
H1101 C1097 0.950 . S
H1102 C1099 0.950 . S
C1103 C1094 1.390 . S
C1103 H1096 0.950 . S
C1103 C1100 1.387 . S
C1104 C1105 1.387 . S
C1104 H1108 0.950 . S
C1104 C1113 1.390 . S
C1105 C1104 1.387 . S
C1105 C1107 1.387 . S
H1106 C1113 0.950 . S
C1107 C1105 1.387 . S
C1107 C1109 1.390 1_455 S
C1107 H1111 0.950 1_565 S
H1108 C1104 0.950 . S
C1109 C1107 1.390 1_655 S
C1109 C1110 1.387 . S
C1109 H1112 0.950 . S
C1110 C1109 1.387 . S
C1110 C1113 1.387 1_655 S
H1111 C1107 0.950 1_545 S
H1112 C1109 0.950 . S
C1113 C1104 1.390 . S
C1113 H1106 0.950 . S
C1113 C1110 1.387 1_455 S
C1114 C1115 1.387 . S
C1114 H1118 0.950 . S
C1114 C1123 1.390 . S
C1115 C1114 1.387 . S
C1115 C1117 1.387 . S
H1116 C1123 0.950 . S
C1117 C1115 1.387 . S
C1117 C1119 1.390 . S
C1117 H1121 0.950 . S
H1118 C1114 0.950 . S
C1119 C1117 1.390 . S
C1119 C1120 1.387 . S
C1119 H1122 0.950 . S
C1120 C1119 1.387 . S
C1120 C1123 1.387 . S
H1121 C1117 0.950 . S
H1122 C1119 0.950 . S
C1123 C1114 1.390 . S
C1123 H1116 0.950 . S
C1123 C1120 1.387 . S
C1124 C1125 1.387 . S
C1124 H1128 0.950 . S
C1124 C1133 1.390 . S
C1125 C1124 1.387 . S
C1125 C1127 1.387 . S
H1126 C1133 0.956 . S
C1127 C1125 1.387 . S
C1127 C1129 1.390 1_655 S
C1127 H1131 0.950 . S
H1128 C1124 0.950 . S
C1129 C1127 1.390 1_455 S
C1129 C1130 1.387 . S
C1129 H1132 0.950 . S
C1130 C1129 1.387 . S
C1130 C1133 1.387 1_455 S
H1131 C1127 0.950 . S
H1132 C1129 0.950 . S
C1133 C1124 1.390 . S
C1133 H1126 0.956 . S
C1133 C1130 1.387 1_655 S
C1134 C1135 1.387 . S
C1134 H1138 0.950 . S
C1134 C1143 1.390 . S
C1135 C1134 1.387 . S
C1135 C1137 1.387 . S
H1136 C1143 0.950 . S
C1137 C1135 1.387 . S
C1137 C1139 1.390 . S
C1137 H1141 0.950 . S
H1138 C1134 0.950 . S
C1139 C1137 1.390 . S
C1139 C1140 1.387 . S
C1139 H1142 0.950 . S
C1140 C1139 1.387 . S
C1140 C1143 1.387 . S
H1141 C1137 0.950 . S
H1142 C1139 0.950 . S
C1143 C1134 1.390 . S
C1143 H1136 0.950 . S
C1143 C1140 1.387 . S
C1144 C1145 1.387 . S
C1144 H1148 0.950 . S
C1144 C1153 1.390 . S
C1145 C1144 1.387 . S
C1145 C1147 1.387 . S
H1146 C1153 0.950 . S
C1147 C1145 1.387 . S
C1147 C1149 1.390 . S
C1147 H1151 0.950 . S
H1148 C1144 0.950 . S
C1149 C1147 1.390 . S
C1149 C1150 1.387 . S
C1149 H1152 0.950 . S
C1150 C1149 1.387 . S
C1150 C1153 1.387 . S
H1151 C1147 0.950 . S
H1152 C1149 0.950 . S
C1153 C1144 1.390 . S
C1153 H1146 0.950 . S
C1153 C1150 1.387 . S
C1154 C1155 1.387 . S
C1154 H1158 0.950 . S
C1154 C1163 1.390 1_554 S
C1155 C1154 1.387 . S
C1155 C1157 1.387 . S
H1156 C1163 0.950 . S
C1157 C1155 1.387 . S
C1157 C1159 1.390 . S
C1157 H1161 0.950 . S
H1158 C1154 0.950 . S
C1159 C1157 1.390 . S
C1159 C1160 1.387 1_554 S
C1159 H1162 0.950 . S
C1160 C1159 1.387 1_556 S
C1160 C1163 1.387 . S
H1161 C1157 0.950 . S
H1162 C1159 0.950 . S
C1163 C1154 1.390 1_556 S
C1163 H1156 0.950 . S
C1163 C1160 1.387 . S
C1164 C1165 1.387 . S
C1164 H1168 0.950 . S
C1164 C1173 1.390 . S
C1165 C1164 1.387 . S
C1165 C1167 1.387 . S
H1166 C1173 0.950 . S
C1167 C1165 1.387 . S
C1167 C1169 1.390 . S
C1167 H1171 0.950 . S
H1168 C1164 0.950 . S
C1169 C1167 1.390 . S
C1169 C1170 1.387 . S
C1169 H1172 0.950 . S
C1170 C1169 1.387 . S
C1170 C1173 1.387 . S
H1171 C1167 0.950 . S
H1172 C1169 0.950 . S
C1173 C1164 1.390 . S
C1173 H1166 0.950 . S
C1173 C1170 1.387 . S
C1174 C1175 1.387 . S
C1174 H1178 0.950 . S
C1174 C1183 1.390 . S
C1175 C1174 1.387 . S
C1175 C1177 1.387 . S
H1176 C1183 0.950 . S
C1177 C1175 1.387 . S
C1177 C1179 1.390 . S
C1177 H1181 0.950 . S
H1178 C1174 0.950 . S
C1179 C1177 1.390 . S
C1179 C1180 1.387 . S
C1179 H1182 0.950 . S
C1180 C1179 1.387 . S
C1180 C1183 1.387 . S
H1181 C1177 0.950 . S
H1182 C1179 0.950 . S
C1183 C1174 1.390 . S
C1183 H1176 0.950 . S
C1183 C1180 1.387 . S
C1184 C1185 1.387 . S
C1184 H1188 0.950 . S
C1184 C1193 1.390 . S
C1185 C1184 1.387 . S
C1185 C1187 1.387 . S
H1186 C1193 0.950 . S
C1187 C1185 1.387 . S
C1187 C1189 1.390 . S
C1187 H1191 0.950 . S
H1188 C1184 0.950 . S
C1189 C1187 1.390 . S
C1189 C1190 1.387 . S
C1189 H1192 0.950 . S
C1190 C1189 1.387 . S
C1190 C1193 1.387 . S
H1191 C1187 0.950 . S
H1192 C1189 0.950 . S
C1193 C1184 1.390 . S
C1193 H1186 0.950 . S
C1193 C1190 1.387 . S
C1194 C1195 1.387 . S
C1194 H1198 0.950 . S
C1194 C1203 1.390 . S
C1195 C1194 1.387 . S
C1195 C1197 1.387 . S
H1196 C1203 0.950 . S
C1197 C1195 1.387 . S
C1197 C1199 1.390 1_556 S
C1197 H1201 0.950 . S
H1198 C1194 0.950 . S
C1199 C1197 1.390 1_554 S
C1199 C1200 1.387 . S
C1199 H1202 0.950 . S
C1200 C1199 1.387 . S
C1200 C1203 1.387 1_554 S
H1201 C1197 0.950 . S
H1202 C1199 0.950 . S
C1203 C1194 1.390 . S
C1203 H1196 0.950 . S
C1203 C1200 1.387 1_556 S
C1204 C1205 1.387 . S
C1204 H1208 0.950 . S
C1204 C1213 1.390 . S
C1205 C1204 1.387 . S
C1205 C1207 1.387 . S
H1206 C1213 0.950 . S
C1207 C1205 1.387 . S
C1207 C1209 1.390 . S
C1207 H1211 0.950 . S
H1208 C1204 0.950 . S
C1209 C1207 1.390 . S
C1209 C1210 1.387 . S
C1209 H1212 0.950 . S
C1210 C1209 1.387 . S
C1210 C1213 1.387 . S
H1211 C1207 0.950 . S
H1212 C1209 0.950 . S
C1213 C1204 1.390 . S
C1213 H1206 0.950 . S
C1213 C1210 1.387 . S
C1214 C1215 1.387 . S
C1214 H1218 0.950 . S
C1214 C1223 1.390 . S
C1215 C1214 1.387 . S
C1215 C1217 1.387 . S
H1216 C1223 0.950 . S
C1217 C1215 1.387 . S
C1217 C1219 1.390 . S
C1217 H1221 0.950 . S
H1218 C1214 0.950 . S
C1219 C1217 1.390 . S
C1219 C1220 1.387 . S
C1219 H1222 0.950 . S
C1220 C1219 1.387 . S
C1220 C1223 1.387 . S
H1221 C1217 0.950 . S
H1222 C1219 0.950 . S
C1223 C1214 1.390 . S
C1223 H1216 0.950 . S
C1223 C1220 1.387 . S
C1224 C1225 1.387 . S
C1224 H1228 0.950 . S
C1224 C1233 1.390 . S
C1225 C1224 1.387 . S
C1225 C1227 1.387 . S
H1226 C1233 0.950 . S
C1227 C1225 1.387 . S
C1227 C1229 1.390 . S
C1227 H1231 0.950 . S
H1228 C1224 0.950 . S
C1229 C1227 1.390 . S
C1229 C1230 1.387 . S
C1229 H1232 0.950 . S
C1230 C1229 1.387 . S
C1230 C1233 1.387 . S
H1231 C1227 0.950 . S
H1232 C1229 0.950 . S
C1233 C1224 1.390 . S
C1233 H1226 0.950 . S
C1233 C1230 1.387 . S
C1234 C1235 1.387 . S
C1234 H1238 0.950 . S
C1234 C1243 1.390 . S
C1235 C1234 1.387 . S
C1235 C1237 1.387 . S
H1236 C1243 0.950 . S
C1237 C1235 1.387 . S
C1237 C1239 1.390 . S
C1237 H1241 0.950 . S
H1238 C1234 0.950 . S
C1239 C1237 1.390 . S
C1239 C1240 1.387 . S
C1239 H1242 0.950 . S
C1240 C1239 1.387 . S
C1240 C1243 1.387 . S
H1241 C1237 0.950 . S
H1242 C1239 0.950 . S
C1243 C1234 1.390 . S
C1243 H1236 0.950 . S
C1243 C1240 1.387 . S
C1244 C1245 1.387 . S
C1244 H1248 0.950 . S
C1244 C1253 1.390 . S
C1245 C1244 1.387 . S
C1245 C1247 1.387 . S
H1246 C1253 0.950 . S
C1247 C1245 1.387 . S
C1247 C1249 1.390 . S
C1247 H1251 0.950 . S
H1248 C1244 0.950 . S
C1249 C1247 1.390 . S
C1249 C1250 1.387 . S
C1249 H1252 0.950 . S
C1250 C1249 1.387 . S
C1250 C1253 1.387 . S
H1251 C1247 0.950 . S
H1252 C1249 0.950 . S
C1253 C1244 1.390 . S
C1253 H1246 0.950 . S
C1253 C1250 1.387 . S
C1254 C1255 1.387 . S
C1254 H1258 0.950 . S
C1254 C1263 1.390 . S
C1255 C1254 1.387 . S
C1255 C1257 1.387 . S
H1256 C1263 0.950 . S
C1257 C1255 1.387 . S
C1257 C1259 1.390 . S
C1257 H1261 0.950 . S
H1258 C1254 0.950 . S
C1259 C1257 1.390 . S
C1259 C1260 1.387 . S
C1259 H1262 0.950 . S
C1260 C1259 1.387 . S
C1260 C1263 1.387 . S
H1261 C1257 0.950 . S
H1262 C1259 0.950 . S
C1263 C1254 1.390 . S
C1263 H1256 0.950 . S
C1263 C1260 1.387 . S
C1264 C1265 1.387 . S
C1264 H1268 0.950 . S
C1264 C1273 1.390 . S
C1265 C1264 1.387 . S
C1265 C1267 1.387 . S
H1266 C1273 0.950 . S
C1267 C1265 1.387 . S
C1267 C1269 1.390 . S
C1267 H1271 0.950 . S
H1268 C1264 0.950 . S
C1269 C1267 1.390 . S
C1269 C1270 1.387 . S
C1269 H1272 0.950 . S
C1270 C1269 1.387 . S
C1270 C1273 1.387 . S
H1271 C1267 0.950 . S
H1272 C1269 0.950 . S
C1273 C1264 1.390 . S
C1273 H1266 0.950 . S
C1273 C1270 1.387 . S
C1274 C1275 1.387 . S
C1274 H1278 0.950 . S
C1274 C1283 1.390 . S
C1275 C1274 1.387 . S
C1275 C1277 1.387 . S
H1276 C1283 0.950 . S
C1277 C1275 1.387 . S
C1277 C1279 1.390 . S
C1277 H1281 0.950 . S
H1278 C1274 0.950 . S
C1279 C1277 1.390 . S
C1279 C1280 1.387 . S
C1279 H1282 0.950 . S
C1280 C1279 1.387 . S
C1280 C1283 1.387 . S
H1281 C1277 0.950 . S
H1282 C1279 0.950 . S
C1283 C1274 1.390 . S
C1283 H1276 0.950 . S
C1283 C1280 1.387 . S
C1284 C1285 1.387 . S
C1284 H1288 0.950 . S
C1284 C1293 1.390 . S
C1285 C1284 1.387 . S
C1285 C1287 1.387 . S
H1286 C1293 0.950 . S
C1287 C1285 1.387 . S
C1287 C1289 1.390 . S
C1287 H1291 0.950 . S
H1288 C1284 0.950 . S
C1289 C1287 1.390 . S
C1289 C1290 1.387 . S
C1289 H1292 0.950 . S
C1290 C1289 1.387 . S
C1290 C1293 1.387 . S
H1291 C1287 0.950 . S
H1292 C1289 0.950 . S
C1293 C1284 1.390 . S
C1293 H1286 0.950 . S
C1293 C1290 1.387 . S
C1294 C1295 1.387 . S
C1294 H1298 0.950 . S
C1294 C1303 1.390 . S
C1295 C1294 1.387 . S
C1295 C1297 1.387 . S
H1296 C1303 0.950 . S
C1297 C1295 1.387 . S
C1297 C1299 1.390 . S
C1297 H1301 0.950 . S
H1298 C1294 0.950 . S
C1299 C1297 1.390 . S
C1299 C1300 1.387 . S
C1299 H1302 0.950 . S
C1300 C1299 1.387 . S
C1300 C1303 1.387 . S
H1301 C1297 0.950 . S
H1302 C1299 0.950 . S
C1303 C1294 1.390 . S
C1303 H1296 0.950 . S
C1303 C1300 1.387 . S
C1304 C1305 1.387 . S
C1304 H1308 0.950 . S
C1304 C1313 1.390 . S
C1305 C1304 1.387 . S
C1305 C1307 1.387 . S
H1306 C1313 0.950 . S
C1307 C1305 1.387 . S
C1307 C1309 1.390 . S
C1307 H1311 0.950 . S
H1308 C1304 0.950 . S
C1309 C1307 1.390 . S
C1309 C1310 1.387 . S
C1309 H1312 0.950 . S
C1310 C1309 1.387 . S
C1310 C1313 1.387 . S
H1311 C1307 0.950 . S
H1312 C1309 0.950 . S
C1313 C1304 1.390 . S
C1313 H1306 0.950 . S
C1313 C1310 1.387 . S
C1314 C1315 1.387 . S
C1314 H1318 0.950 . S
C1314 C1323 1.390 . S
C1315 C1314 1.387 . S
C1315 C1317 1.387 . S
H1316 C1323 0.950 . S
C1317 C1315 1.387 . S
C1317 C1319 1.390 . S
C1317 H1321 0.950 . S
H1318 C1314 0.950 . S
C1319 C1317 1.390 . S
C1319 C1320 1.387 . S
C1319 H1322 0.950 . S
C1320 C1319 1.387 . S
C1320 C1323 1.387 . S
H1321 C1317 0.950 . S
H1322 C1319 0.950 . S
C1323 C1314 1.390 . S
C1323 H1316 0.950 . S
C1323 C1320 1.387 . S
C1324 C1325 1.387 . S
C1324 H1328 0.950 . S
C1324 C1333 1.390 . S
C1325 C1324 1.387 . S
C1325 C1327 1.387 . S
H1326 C1333 0.950 . S
C1327 C1325 1.387 . S
C1327 C1329 1.390 . S
C1327 H1331 0.950 . S
H1328 C1324 0.950 . S
C1329 C1327 1.390 . S
C1329 C1330 1.387 . S
C1329 H1332 0.950 . S
C1330 C1329 1.387 . S
C1330 C1333 1.387 . S
H1331 C1327 0.950 . S
H1332 C1329 0.950 . S
C1333 C1324 1.390 . S
C1333 H1326 0.950 . S
C1333 C1330 1.387 . S
C1334 C1335 1.387 . S
C1334 H1338 0.950 . S
C1334 C1343 1.390 . S
C1335 C1334 1.387 . S
C1335 C1337 1.387 . S
H1336 C1343 0.950 . S
C1337 C1335 1.387 . S
C1337 C1339 1.390 . S
C1337 H1341 0.950 . S
H1338 C1334 0.950 . S
C1339 C1337 1.390 . S
C1339 C1340 1.387 . S
C1339 H1342 0.950 . S
C1340 C1339 1.387 . S
C1340 C1343 1.387 . S
H1341 C1337 0.950 . S
H1342 C1339 0.950 . S
C1343 C1334 1.390 . S
C1343 H1336 0.950 . S
C1343 C1340 1.387 . S
C1344 C1345 1.387 . S
C1344 H1348 0.950 . S
C1344 C1353 1.390 . S
C1345 C1344 1.387 . S
C1345 C1347 1.387 . S
H1346 C1353 0.950 . S
C1347 C1345 1.387 . S
C1347 C1349 1.390 . S
C1347 H1351 0.950 . S
H1348 C1344 0.950 . S
C1349 C1347 1.390 . S
C1349 C1350 1.387 . S
C1349 H1352 0.950 . S
C1350 C1349 1.387 . S
C1350 C1353 1.387 . S
H1351 C1347 0.950 . S
H1352 C1349 0.950 . S
C1353 C1344 1.390 . S
C1353 H1346 0.950 . S
C1353 C1350 1.387 . S
C1354 C1355 1.387 . S
C1354 H1358 0.950 . S
C1354 C1363 1.390 . S
C1355 C1354 1.387 . S
C1355 C1357 1.387 . S
H1356 C1363 0.950 . S
C1357 C1355 1.387 . S
C1357 C1359 1.390 . S
C1357 H1361 0.950 . S
H1358 C1354 0.950 . S
C1359 C1357 1.390 . S
C1359 C1360 1.387 . S
C1359 H1362 0.950 . S
C1360 C1359 1.387 . S
C1360 C1363 1.387 . S
H1361 C1357 0.950 . S
H1362 C1359 0.950 . S
C1363 C1354 1.390 . S
C1363 H1356 0.950 . S
C1363 C1360 1.387 . S
C1364 C1365 1.387 . S
C1364 H1368 0.950 . S
C1364 C1373 1.390 . S
C1365 C1364 1.387 . S
C1365 C1367 1.387 . S
H1366 C1373 0.950 . S
C1367 C1365 1.387 . S
C1367 C1369 1.390 . S
C1367 H1371 0.950 . S
H1368 C1364 0.950 . S
C1369 C1367 1.390 . S
C1369 C1370 1.387 . S
C1369 H1372 0.950 . S
C1370 C1369 1.387 . S
C1370 C1373 1.387 . S
H1371 C1367 0.950 . S
H1372 C1369 0.950 . S
C1373 C1364 1.390 . S
C1373 H1366 0.950 . S
C1373 C1370 1.387 . S
C1374 C1375 1.387 . S
C1374 H1378 0.950 . S
C1374 C1383 1.390 1_655 S
C1375 C1374 1.387 . S
C1375 C1377 1.387 . S
H1376 C1383 0.950 . S
C1377 C1375 1.387 . S
C1377 C1379 1.390 . S
C1377 H1381 0.950 . S
H1378 C1374 0.950 . S
C1379 C1377 1.390 . S
C1379 C1380 1.387 1_655 S
C1379 H1382 0.950 . S
C1380 C1379 1.387 1_455 S
C1380 C1383 1.387 . S
H1381 C1377 0.950 . S
H1382 C1379 0.950 . S
C1383 C1374 1.390 1_455 S
C1383 H1376 0.950 . S
C1383 C1380 1.387 . S
C1384 C1385 1.387 . S
C1384 H1388 0.950 . S
C1384 C1393 1.390 . S
C1385 C1384 1.387 . S
C1385 C1387 1.387 . S
H1386 C1393 0.950 . S
C1387 C1385 1.387 . S
C1387 C1389 1.390 . S
C1387 H1391 0.950 . S
H1388 C1384 0.950 . S
C1389 C1387 1.390 . S
C1389 C1390 1.387 . S
C1389 H1392 0.950 . S
C1390 C1389 1.387 . S
C1390 C1393 1.387 . S
H1391 C1387 0.950 . S
H1392 C1389 0.950 . S
C1393 C1384 1.390 . S
C1393 H1386 0.950 . S
C1393 C1390 1.387 . S
C1394 C1395 1.387 . S
C1394 H1398 0.950 . S
C1394 C1403 1.390 . S
C1395 C1394 1.387 . S
C1395 C1397 1.387 . S
H1396 C1403 0.950 . S
C1397 C1395 1.387 . S
C1397 C1399 1.390 1_556 S
C1397 H1401 0.950 . S
H1398 C1394 0.950 . S
C1399 C1397 1.390 1_554 S
C1399 C1400 1.387 . S
C1399 H1402 0.950 . S
C1400 C1399 1.387 . S
C1400 C1403 1.387 1_554 S
H1401 C1397 0.950 . S
H1402 C1399 0.950 . S
C1403 C1394 1.390 . S
C1403 H1396 0.950 . S
C1403 C1400 1.387 1_556 S
C1404 C1405 1.387 . S
C1404 H1408 0.950 . S
C1404 C1413 1.390 . S
C1405 C1404 1.387 . S
C1405 C1407 1.387 . S
H1406 C1413 0.950 . S
C1407 C1405 1.387 . S
C1407 C1409 1.390 . S
C1407 H1411 0.950 . S
H1408 C1404 0.950 . S
C1409 C1407 1.390 . S
C1409 C1410 1.387 . S
C1409 H1412 0.950 . S
C1410 C1409 1.387 . S
C1410 C1413 1.387 . S
H1411 C1407 0.950 . S
H1412 C1409 0.950 . S
C1413 C1404 1.390 . S
C1413 H1406 0.950 . S
C1413 C1410 1.387 . S
C1414 C1415 1.387 . S
C1414 H1418 0.950 . S
C1414 C1423 1.390 . S
C1415 C1414 1.387 . S
C1415 C1417 1.387 . S
H1416 C1423 0.950 . S
C1417 C1415 1.387 . S
C1417 C1419 1.390 . S
C1417 H1421 0.950 . S
H1418 C1414 0.950 . S
C1419 C1417 1.390 . S
C1419 C1420 1.387 . S
C1419 H1422 0.950 . S
C1420 C1419 1.387 . S
C1420 C1423 1.387 . S
H1421 C1417 0.950 . S
H1422 C1419 0.950 . S
C1423 C1414 1.390 . S
C1423 H1416 0.950 . S
C1423 C1420 1.387 . S
C1424 C1425 1.387 . S
C1424 H1428 0.950 . S
C1424 C1433 1.390 . S
C1425 C1424 1.387 . S
C1425 C1427 1.387 . S
H1426 C1433 0.950 . S
C1427 C1425 1.387 . S
C1427 C1429 1.390 . S
C1427 H1431 0.950 . S
H1428 C1424 0.950 . S
C1429 C1427 1.390 . S
C1429 C1430 1.387 . S
C1429 H1432 0.950 . S
C1430 C1429 1.387 . S
C1430 C1433 1.387 . S
H1431 C1427 0.950 . S
H1432 C1429 0.950 . S
C1433 C1424 1.390 . S
C1433 H1426 0.950 . S
C1433 C1430 1.387 . S
C1434 C1435 1.387 . S
C1434 H1438 0.950 . S
C1434 C1443 1.390 1_554 S
C1435 C1434 1.387 . S
C1435 C1437 1.387 . S
H1436 C1443 0.950 . S
C1437 C1435 1.387 . S
C1437 C1439 1.390 . S
C1437 H1441 0.950 . S
H1438 C1434 0.950 . S
C1439 C1437 1.390 . S
C1439 C1440 1.387 1_554 S
C1439 H1442 0.950 . S
C1440 C1439 1.387 1_556 S
C1440 C1443 1.387 . S
H1441 C1437 0.950 . S
H1442 C1439 0.950 . S
C1443 C1434 1.390 1_556 S
C1443 H1436 0.950 . S
C1443 C1440 1.387 . S
C1444 C1445 1.387 . S
C1444 H1448 0.950 . S
C1444 C1453 1.390 . S
C1445 C1444 1.387 . S
C1445 C1447 1.387 . S
H1446 C1453 0.950 . S
C1447 C1445 1.387 . S
C1447 C1449 1.390 . S
C1447 H1451 0.950 . S
H1448 C1444 0.950 . S
C1449 C1447 1.390 . S
C1449 C1450 1.387 . S
C1449 H1452 0.950 . S
C1450 C1449 1.387 . S
C1450 C1453 1.387 . S
H1451 C1447 0.950 . S
H1452 C1449 0.950 . S
C1453 C1444 1.390 . S
C1453 H1446 0.950 . S
C1453 C1450 1.387 . S
C1454 C1455 1.387 . S
C1454 H1458 0.950 . S
C1454 C1463 1.390 . S
C1455 C1454 1.387 . S
C1455 C1457 1.387 . S
H1456 C1463 0.950 . S
C1457 C1455 1.387 . S
C1457 C1459 1.390 . S
C1457 H1461 0.950 . S
H1458 C1454 0.950 . S
C1459 C1457 1.390 . S
C1459 C1460 1.387 . S
C1459 H1462 0.950 . S
C1460 C1459 1.387 . S
C1460 C1463 1.387 . S
H1461 C1457 0.950 . S
H1462 C1459 0.950 . S
C1463 C1454 1.390 . S
C1463 H1456 0.950 . S
C1463 C1460 1.387 . S
C1464 C1465 1.387 . S
C1464 H1468 0.950 . S
C1464 C1473 1.390 . S
C1465 C1464 1.387 . S
C1465 C1467 1.387 . S
H1466 C1473 0.950 . S
C1467 C1465 1.387 . S
C1467 C1469 1.390 . S
C1467 H1471 0.950 . S
H1468 C1464 0.950 . S
C1469 C1467 1.390 . S
C1469 C1470 1.387 . S
C1469 H1472 0.950 . S
C1470 C1469 1.387 . S
C1470 C1473 1.387 . S
H1471 C1467 0.950 . S
H1472 C1469 0.950 . S
C1473 C1464 1.390 . S
C1473 H1466 0.950 . S
C1473 C1470 1.387 . S
C1474 C1475 1.387 . S
C1474 H1478 0.950 . S
C1474 C1483 1.390 . S
C1475 C1474 1.387 . S
C1475 C1477 1.387 . S
H1476 C1483 0.950 . S
C1477 C1475 1.387 . S
C1477 C1479 1.390 . S
C1477 H1481 0.950 . S
H1478 C1474 0.950 . S
C1479 C1477 1.390 . S
C1479 C1480 1.387 . S
C1479 H1482 0.950 . S
C1480 C1479 1.387 . S
C1480 C1483 1.387 . S
H1481 C1477 0.950 . S
H1482 C1479 0.950 . S
C1483 C1474 1.390 . S
C1483 H1476 0.950 . S
C1483 C1480 1.387 . S
C1484 C1485 1.387 . S
C1484 H1488 0.950 . S
C1484 C1493 1.390 . S
C1485 C1484 1.387 . S
C1485 C1487 1.387 . S
H1486 C1493 0.950 . S
C1487 C1485 1.387 . S
C1487 C1489 1.390 . S
C1487 H1491 0.950 . S
H1488 C1484 0.950 . S
C1489 C1487 1.390 . S
C1489 C1490 1.387 . S
C1489 H1492 0.950 . S
C1490 C1489 1.387 . S
C1490 C1493 1.387 . S
H1491 C1487 0.950 . S
H1492 C1489 0.950 . S
C1493 C1484 1.390 . S
C1493 H1486 0.950 . S
C1493 C1490 1.387 . S
C1494 C1495 1.387 . S
C1494 H1498 0.950 . S
C1494 C1503 1.390 . S
C1495 C1494 1.387 . S
C1495 C1497 1.387 . S
H1496 C1503 0.950 . S
C1497 C1495 1.387 . S
C1497 C1499 1.390 . S
C1497 H1501 0.950 . S
H1498 C1494 0.950 . S
C1499 C1497 1.390 . S
C1499 C1500 1.387 . S
C1499 H1502 0.950 . S
C1500 C1499 1.387 . S
C1500 C1503 1.387 . S
H1501 C1497 0.950 . S
H1502 C1499 0.950 . S
C1503 C1494 1.390 . S
C1503 H1496 0.950 . S
C1503 C1500 1.387 . S
C1504 C1505 1.387 . S
C1504 H1508 0.950 . S
C1504 C1513 1.390 . S
C1505 C1504 1.387 . S
C1505 C1507 1.387 . S
H1506 C1513 0.950 . S
C1507 C1505 1.387 . S
C1507 C1509 1.390 . S
C1507 H1511 0.950 . S
H1508 C1504 0.950 . S
C1509 C1507 1.390 . S
C1509 C1510 1.387 . S
C1509 H1512 0.950 . S
C1510 C1509 1.387 . S
C1510 C1513 1.387 . S
H1511 C1507 0.950 . S
H1512 C1509 0.950 . S
C1513 C1504 1.390 . S
C1513 H1506 0.950 . S
C1513 C1510 1.387 . S
C1514 C1515 1.387 . S
C1514 H1518 0.950 . S
C1514 C1523 1.390 . S
C1515 C1514 1.387 . S
C1515 C1517 1.387 . S
H1516 C1523 0.950 . S
C1517 C1515 1.387 . S
C1517 C1519 1.390 . S
C1517 H1521 0.950 . S
H1518 C1514 0.950 . S
C1519 C1517 1.390 . S
C1519 C1520 1.387 . S
C1519 H1522 0.950 . S
C1520 C1519 1.387 . S
C1520 C1523 1.387 . S
H1521 C1517 0.950 . S
H1522 C1519 0.950 . S
C1523 C1514 1.390 . S
C1523 H1516 0.950 . S
C1523 C1520 1.387 . S
C1524 C1525 1.387 . S
C1524 H1528 0.950 . S
C1524 C1533 1.390 . S
C1525 C1524 1.387 . S
C1525 C1527 1.387 . S
H1526 C1533 0.950 . S
C1527 C1525 1.387 . S
C1527 C1529 1.390 . S
C1527 H1531 0.950 . S
H1528 C1524 0.950 . S
C1529 C1527 1.390 . S
C1529 C1530 1.387 . S
C1529 H1532 0.950 . S
C1530 C1529 1.387 . S
C1530 C1533 1.387 . S
H1531 C1527 0.950 . S
H1532 C1529 0.950 . S
C1533 C1524 1.390 . S
C1533 H1526 0.950 . S
C1533 C1530 1.387 . S
C1534 C1535 1.387 . S
C1534 H1538 0.950 . S
C1534 C1543 1.390 . S
C1535 C1534 1.387 . S
C1535 C1537 1.387 . S
H1536 C1543 0.950 . S
C1537 C1535 1.387 . S
C1537 C1539 1.390 . S
C1537 H1541 0.950 . S
H1538 C1534 0.950 . S
C1539 C1537 1.390 . S
C1539 C1540 1.387 . S
C1539 H1542 0.950 . S
C1540 C1539 1.387 . S
C1540 C1543 1.387 . S
H1541 C1537 0.950 . S
H1542 C1539 0.950 . S
C1543 C1534 1.390 . S
C1543 H1536 0.950 . S
C1543 C1540 1.387 . S
C1544 C1545 1.387 . S
C1544 H1548 0.950 . S
C1544 C1553 1.390 . S
C1545 C1544 1.387 . S
C1545 C1547 1.387 . S
H1546 C1553 0.950 . S
C1547 C1545 1.387 . S
C1547 C1549 1.390 . S
C1547 H1551 0.950 . S
H1548 C1544 0.950 . S
C1549 C1547 1.390 . S
C1549 C1550 1.387 . S
C1549 H1552 0.950 . S
C1550 C1549 1.387 . S
C1550 C1553 1.387 . S
H1551 C1547 0.950 . S
H1552 C1549 0.950 . S
C1553 C1544 1.390 . S
C1553 H1546 0.950 . S
C1553 C1550 1.387 . S
C1554 C1555 1.387 . S
C1554 H1558 0.950 . S
C1554 C1563 1.390 . S
C1555 C1554 1.387 . S
C1555 C1557 1.387 . S
H1556 C1563 0.950 . S
C1557 C1555 1.387 . S
C1557 C1559 1.390 . S
C1557 H1561 0.950 . S
H1558 C1554 0.950 . S
C1559 C1557 1.390 . S
C1559 C1560 1.387 . S
C1559 H1562 0.950 . S
C1560 C1559 1.387 . S
C1560 C1563 1.387 . S
H1561 C1557 0.950 . S
H1562 C1559 0.950 . S
C1563 C1554 1.390 . S
C1563 H1556 0.950 . S
C1563 C1560 1.387 . S
C1564 C1565 1.387 . S
C1564 H1568 0.950 . S
C1564 C1573 1.390 . S
C1565 C1564 1.387 . S
C1565 C1567 1.387 . S
H1566 C1573 0.950 . S
C1567 C1565 1.387 . S
C1567 C1569 1.390 . S
C1567 H1571 0.950 . S
H1568 C1564 0.950 . S
C1569 C1567 1.390 . S
C1569 C1570 1.387 . S
C1569 H1572 0.950 . S
C1570 C1569 1.387 . S
C1570 C1573 1.387 . S
H1571 C1567 0.950 . S
H1572 C1569 0.950 . S
C1573 C1564 1.390 . S
C1573 H1566 0.950 . S
C1573 C1570 1.387 . S
C1574 C1575 1.387 . S
C1574 H1578 0.950 . S
C1574 C1583 1.390 . S
C1575 C1574 1.387 . S
C1575 C1577 1.387 . S
H1576 C1583 0.950 . S
C1577 C1575 1.387 . S
C1577 C1579 1.390 . S
C1577 H1581 0.950 . S
H1578 C1574 0.950 . S
C1579 C1577 1.390 . S
C1579 C1580 1.387 . S
C1579 H1582 0.950 . S
C1580 C1579 1.387 . S
C1580 C1583 1.387 . S
H1581 C1577 0.950 . S
H1582 C1579 0.950 . S
C1583 C1574 1.390 . S
C1583 H1576 0.950 . S
C1583 C1580 1.387 . S
C1584 C1585 1.387 . S
C1584 H1588 0.950 . S
C1584 C1593 1.390 . S
C1585 C1584 1.387 . S
C1585 C1587 1.387 . S
H1586 C1593 0.950 . S
C1587 C1585 1.387 . S
C1587 C1589 1.390 . S
C1587 H1591 0.950 . S
H1588 C1584 0.950 . S
C1589 C1587 1.390 . S
C1589 C1590 1.387 . S
C1589 H1592 0.950 . S
C1590 C1589 1.387 . S
C1590 C1593 1.387 . S
H1591 C1587 0.950 . S
H1592 C1589 0.950 . S
C1593 C1584 1.390 . S
C1593 H1586 0.950 . S
C1593 C1590 1.387 . S
C1594 C1595 1.387 . S
C1594 H1598 0.950 . S
C1594 C1603 1.390 . S
C1595 C1594 1.387 . S
C1595 C1597 1.387 . S
H1596 C1603 0.950 . S
C1597 C1595 1.387 . S
C1597 C1599 1.390 . S
C1597 H1601 0.950 . S
H1598 C1594 0.950 . S
C1599 C1597 1.390 . S
C1599 C1600 1.387 . S
C1599 H1602 0.950 . S
C1600 C1599 1.387 . S
C1600 C1603 1.387 . S
H1601 C1597 0.950 . S
H1602 C1599 0.950 . S
C1603 C1594 1.390 . S
C1603 H1596 0.950 . S
C1603 C1600 1.387 . S
C1604 C1605 1.387 . S
C1604 H1608 0.959 . S
C1604 C1613 1.390 . S
C1605 C1604 1.387 . S
C1605 C1607 1.387 . S
H1606 C1613 0.950 . S
C1607 C1605 1.387 . S
C1607 C1609 1.390 . S
C1607 H1611 0.950 . S
H1608 C1604 0.959 . S
C1609 C1607 1.390 . S
C1609 C1610 1.387 . S
C1609 H1612 0.950 . S
C1610 C1609 1.387 . S
C1610 C1613 1.387 . S
H1611 C1607 0.950 . S
H1612 C1609 0.950 . S
C1613 C1604 1.390 . S
C1613 H1606 0.950 . S
C1613 C1610 1.387 . S
C1614 C1615 1.387 . S
C1614 H1618 0.950 . S
C1614 C1623 1.390 . S
C1615 C1614 1.387 . S
C1615 C1617 1.387 . S
H1616 C1623 0.950 . S
C1617 C1615 1.387 . S
C1617 C1619 1.390 1_455 S
C1617 H1621 0.950 . S
H1618 C1614 0.950 . S
C1619 C1617 1.390 1_655 S
C1619 C1620 1.387 . S
C1619 H1622 0.950 . S
C1620 C1619 1.387 . S
C1620 C1623 1.387 1_655 S
H1621 C1617 0.950 . S
H1622 C1619 0.950 . S
C1623 C1614 1.390 . S
C1623 H1616 0.950 . S
C1623 C1620 1.387 1_455 S
C670 C330 1.329 . S
C665 C10 1.350 . S
C675 C16 1.372 . S
C680 C342 1.342 . S
C690 C377 1.340 . S
C685 C30 1.391 . S
C700 C386 1.341 . S
C695 C42 1.365 . S
C710 C341 1.344 . S
C705 C57 1.400 . S
C715 C69 1.369 . S
C720 C366 1.346 . S
C730 C385 1.332 . S
C725 C83 1.387 . S
C735 C101 1.397 . S
C740 C327 1.347 . S
C745 C108 1.368 . S
C750 C320 1.348 . S
C760 C344 1.348 . S
C755 C120 1.374 . S
C770 C363 1.344 . S
C765 C133 1.400 . S
C780 C388 1.349 . S
C775 C147 1.370 . S
C790 C349 1.319 . S
C785 C114 1.371 . S
C800 C374 1.341 . S
C795 C122 1.366 . S
C805 C135 1.391 . S
C810 C393 1.331 . S
C820 C333 1.327 . S
C815 C153 1.379 . S
C825 C160 1.361 . S
C830 C322 1.339 . S
C835 C174 1.390 . S
C840 C421 1.335 . S
C850 C437 1.335 . S
C845 C187 1.389 . S
C860 C451 1.325 . S
C855 C205 1.373 . S
C865 C212 1.386 . S
C870 C319 1.335 . S
C875 C226 1.406 . S
C880 C371 1.346 . S
C890 C454 1.349 . S
C885 C185 1.379 . S
C900 C418 1.364 . S
C895 C244 1.386 . S
C910 C474 1.305 . S
C905 C23 1.319 . S
C920 C498 1.306 . S
C915 C5 1.324 . S
C925 C49 1.352 . S
C930 C531 1.316 . S
C935 C29 1.366 . S
C940 C539 1.335 . S
C945 C94 1.369 . S
C950 C509 1.329 . S
C955 C88 1.336 . S
C960 C520 1.320 . S
C970 C540 1.323 . S
C965 C70 1.340 . S
C975 C62 1.357 . S
C980 C473 1.323 . S
C985 C257 1.319 . S
C990 C476 1.301 . S
C1000 C506 1.322 . S
C995 C200 1.337 . S
C1010 C517 1.330 . S
C1005 C211 1.364 . S
C1020 C547 1.331 . S
C1015 C179 1.362 . S
C1030 C495 1.321 . S
C1025 C251 1.351 . S
C1040 C528 1.309 . S
C1035 C198 1.329 . S
C1050 C542 1.321 . S
C1045 C213 1.342 . S
C1055 C173 1.362 . S
C1060 C481 1.321 . S
C1070 C484 1.297 . S
C1065 C264 1.311 . S
C1075 C148 1.349 . S
C1080 C572 1.326 . S
C1090 C584 1.332 . S
C1085 C278 1.346 . S
C1095 C127 1.359 . S
C1100 C605 1.328 . S
C1110 C487 1.341 . S
C1105 C140 1.370 . S
C1120 C525 1.313 . S
C1115 C289 1.350 . S
C1130 C608 1.289 . S
C1125 C276 1.307 . S
C1135 C303 1.343 . S
C1140 C575 1.310 . S
C1145 C36 1.368 . S
C1150 C630 1.346 . S
C1155 C44 1.362 . S
C1160 C408 1.337 . S
C1170 C432 1.327 . S
C1165 C4 1.348 . S
C1175 C18 1.375 . S
C1180 C462 1.345 . S
C1185 C81 1.384 . S
C1190 C407 1.330 . S
C1195 C95 1.389 . S
C1200 C443 1.339 . S
C1210 C459 1.343 . S
C1205 C55 1.404 . S
C1220 C641 1.331 . S
C1215 C75 1.384 . S
C1230 C638 1.335 . S
C1225 C277 1.355 . S
C1240 C410 1.348 . S
C1235 C263 1.375 . S
C1250 C440 1.355 . S
C1245 C302 1.385 . S
C1255 C290 1.383 . S
C1260 C452 1.360 . S
C1270 C415 1.322 . S
C1265 C283 1.375 . S
C1275 C265 1.372 . S
C1280 C429 1.315 . S
C1290 C465 1.327 . S
C1285 C304 1.385 . S
C1295 C296 1.393 . S
C1300 C627 1.339 . S
C1310 C628 1.345 . S
C1305 C199 1.368 . S
C1315 C224 1.391 . S
C1320 C355 1.331 . S
C1330 C364 1.329 . S
C1325 C252 1.354 . S
C1335 C166 1.367 . S
C1340 C399 1.321 . S
C1350 C635 1.332 . S
C1345 C238 1.383 . S
C1360 C430 1.350 . S
C1355 C172 1.378 . S
C1370 C396 1.339 . S
C1365 C250 1.367 . S
C1380 C352 1.349 . S
C1375 C218 1.372 . S
C1385 C43 1.355 . S
C1390 C649 1.323 . S
C1395 C31 1.351 . S
C1400 C561 1.317 . S
C1405 C17 1.344 . S
C1410 C597 1.320 . S
C1420 C616 1.307 . S
C1415 C3 1.324 . S
C1430 C562 1.312 . S
C1425 C68 1.329 . S
C1435 C56 1.340 . S
C1440 C586 1.323 . S
C1450 C613 1.334 . S
C1445 C96 1.370 . S
C1455 C82 1.343 . S
C1460 C650 1.325 . S
C1470 C657 1.329 . S
C1465 C192 1.352 . S
C1475 C161 1.351 . S
C1480 C569 1.320 . S
C1485 C237 1.363 . S
C1490 C583 1.328 . S
C1500 C606 1.316 . S
C1495 C225 1.331 . S
C1510 C564 1.312 . S
C1505 C186 1.328 . S
C1515 C159 1.332 . S
C1520 C594 1.310 . S
C1530 C619 1.324 . S
C1525 C239 1.358 . S
C1540 C652 1.328 . S
C1535 C231 1.341 . S
C1550 C663 1.309 . S
C1545 C121 1.340 . S
C1560 C503 1.350 . S
C1555 C291 1.385 . S
C1565 C109 1.350 . S
C1570 C518 1.325 . S
C1575 C270 1.339 . S
C1580 C550 1.325 . S
C1590 C660 1.332 . S
C1585 C309 1.351 . S
C1600 C591 1.310 . S
C1595 C146 1.346 . S
C1610 C553 1.311 . S
C1605 C107 1.349 . S
C1620 C496 1.312 . S
C1615 C134 1.331 . S
