# Generated by pormake.
# Topology zzz, (3,6)-cn, num edge types: 1
# Building blocks:
#     Node 0, Type 0, BuildingBlock: OLANEW_clean_sbu_2, # of connection points: 3
#     Node 1, Type 0, BuildingBlock: OLANEW_clean_sbu_2, # of connection points: 3
#     Node 2, Type 0, BuildingBlock: OLANEW_clean_sbu_2, # of connection points: 3
#     Node 3, Type 0, BuildingBlock: OLANEW_clean_sbu_2, # of connection points: 3
#     Node 4, Type 0, BuildingBlock: OLANEW_clean_sbu_2, # of connection points: 3
#     Node 5, Type 0, BuildingBlock: OLANEW_clean_sbu_2, # of connection points: 3
#     Node 6, Type 0, BuildingBlock: OLANEW_clean_sbu_2, # of connection points: 3
#     Node 7, Type 0, BuildingBlock: OLANEW_clean_sbu_2, # of connection points: 3
#     Node 8, Type 1, BuildingBlock: BETFEN_clean_sbu_0, # of connection points: 6
#     Node 9, Type 1, BuildingBlock: BETFEN_clean_sbu_0, # of connection points: 6
#     Node 10, Type 1, BuildingBlock: BETFEN_clean_sbu_0, # of connection points: 6
#     Node 11, Type 1, BuildingBlock: BETFEN_clean_sbu_0, # of connection points: 6
#     Edge 12, Type (0, 1), BuildingBlock: XUDNAN_clean_linker_2, # of connection points: 2
#     Edge 13, Type (0, 1), BuildingBlock: XUDNAN_clean_linker_2, # of connection points: 2
#     Edge 14, Type (0, 1), BuildingBlock: XUDNAN_clean_linker_2, # of connection points: 2
#     Edge 15, Type (0, 1), BuildingBlock: XUDNAN_clean_linker_2, # of connection points: 2
#     Edge 16, Type (0, 1), BuildingBlock: XUDNAN_clean_linker_2, # of connection points: 2
#     Edge 17, Type (0, 1), BuildingBlock: XUDNAN_clean_linker_2, # of connection points: 2
#     Edge 18, Type (0, 1), BuildingBlock: XUDNAN_clean_linker_2, # of connection points: 2
#     Edge 19, Type (0, 1), BuildingBlock: XUDNAN_clean_linker_2, # of connection points: 2
#     Edge 20, Type (0, 1), BuildingBlock: XUDNAN_clean_linker_2, # of connection points: 2
#     Edge 21, Type (0, 1), BuildingBlock: XUDNAN_clean_linker_2, # of connection points: 2
#     Edge 22, Type (0, 1), BuildingBlock: XUDNAN_clean_linker_2, # of connection points: 2
#     Edge 23, Type (0, 1), BuildingBlock: XUDNAN_clean_linker_2, # of connection points: 2
#     Edge 24, Type (0, 1), BuildingBlock: XUDNAN_clean_linker_2, # of connection points: 2
#     Edge 25, Type (0, 1), BuildingBlock: XUDNAN_clean_linker_2, # of connection points: 2
#     Edge 26, Type (0, 1), BuildingBlock: XUDNAN_clean_linker_2, # of connection points: 2
#     Edge 27, Type (0, 1), BuildingBlock: XUDNAN_clean_linker_2, # of connection points: 2
#     Edge 28, Type (0, 1), BuildingBlock: XUDNAN_clean_linker_2, # of connection points: 2
#     Edge 29, Type (0, 1), BuildingBlock: XUDNAN_clean_linker_2, # of connection points: 2
#     Edge 30, Type (0, 1), BuildingBlock: XUDNAN_clean_linker_2, # of connection points: 2
#     Edge 31, Type (0, 1), BuildingBlock: XUDNAN_clean_linker_2, # of connection points: 2
#     Edge 32, Type (0, 1), BuildingBlock: XUDNAN_clean_linker_2, # of connection points: 2
#     Edge 33, Type (0, 1), BuildingBlock: XUDNAN_clean_linker_2, # of connection points: 2
#     Edge 34, Type (0, 1), BuildingBlock: XUDNAN_clean_linker_2, # of connection points: 2
#     Edge 35, Type (0, 1), BuildingBlock: XUDNAN_clean_linker_2, # of connection points: 2
# Relax obj value: 0.254
# Max RMSD: 0.192
# Mean RMSD: 0.172
data_MOF--net-zzz--node1-OLANEW_clean_sbu_2--node2-BETFEN_clean_sbu_0--edge1-XUDNAN_clean_linker_2
_symmetry_space_group_name_H-M    P1
_symmetry_Int_Tables_number       1
_symmetry_cell_setting            triclinic
loop_
_symmetry_equiv_pos_as_xyz
'x, y, z'
_cell_length_a     56.742377
_cell_length_b     56.650152
_cell_length_c     15.170596
_cell_angle_alpha  89.868052
_cell_angle_beta   89.943849
_cell_angle_gamma 89.999599
loop_
_atom_site_label
_atom_site_type_symbol
_atom_site_fract_x
_atom_site_fract_y
_atom_site_fract_z
_atom_type_partial_charge
O0 O 0.71198 0.45 0.27558 0.0
Cd1 Cd 0.67601 0.4308 0.32968 0.0
O2 O 0.72975 0.41562 0.27497 0.0
Cd3 Cd 0.76309 0.39672 0.28164 0.0
O4 O 0.79454 0.41 0.34586 0.0
C5 C 0.79007 0.42308 0.41172 0.0
O6 O 0.76803 0.42578 0.43647 0.0
C7 C 0.73048 0.43784 0.26291 0.0
C8 C 0.63613 0.44761 0.24318 0.0
O9 O 0.64441 0.45833 0.31068 0.0
O10 O 0.64658 0.4288 0.21725 0.0
O11 O 0.92034 0.72295 0.26166 0.0
Cd12 Cd 0.91409 0.68075 0.28592 0.0
O13 O 0.94851 0.72309 0.36086 0.0
Cd14 Cd 0.96986 0.74491 0.44723 0.0
O15 O 0.97128 0.77852 0.51552 0.0
C16 C 0.95963 0.78088 0.58647 0.0
O17 O 0.9484 0.76257 0.61928 0.0
C18 C 0.93578 0.73409 0.30553 0.0
C19 C 0.92407 0.65374 0.13734 0.0
O20 O 0.90405 0.6639 0.14671 0.0
O21 O 0.9395 0.65643 0.19818 0.0
O22 O 0.76917 0.95049 0.31273 0.0
Cd23 Cd 0.80432 0.9435 0.40228 0.0
O24 O 0.77829 0.98711 0.344 0.0
Cd25 Cd 0.76762 0.02408 0.34302 0.0
O26 O 0.73146 0.03625 0.35491 0.0
C27 C 0.7199 0.02429 0.41111 0.0
O28 O 0.73099 0.00803 0.45698 0.0
C29 C 0.76514 0.97242 0.30412 0.0
C30 C 0.84113 0.96649 0.3163 0.0
O31 O 0.83816 0.94419 0.3077 0.0
O32 O 0.82744 0.97773 0.36857 0.0
O33 O 0.58542 0.78247 0.08449 0.0
Cd34 Cd 0.60941 0.81823 0.08991 0.0
O35 O 0.58939 0.77877 0.22777 0.0
Cd36 Cd 0.58582 0.75744 0.34721 0.0
O37 O 0.57564 0.72219 0.38939 0.0
C38 C 0.56561 0.71617 0.46085 0.0
O39 O 0.56153 0.73207 0.52186 0.0
C40 C 0.58109 0.77121 0.15516 0.0
C41 C 0.5847 0.8576 0.02977 0.0
O42 O 0.5967 0.84479 0.97656 0.0
O43 O 0.58443 0.85177 0.11146 0.0
O44 O 0.25919 0.41688 0.31695 0.0
Cd45 Cd 0.29625 0.39963 0.26671 0.0
O46 O 0.24847 0.42471 0.18154 0.0
Cd47 Cd 0.22744 0.43789 0.07042 0.0
O48 O 0.19565 0.44858 0.99961 0.0
C49 C 0.19597 0.46298 0.93536 0.0
O50 O 0.21629 0.47113 0.90705 0.0
C51 C 0.24407 0.42542 0.26403 0.0
C52 C 0.33395 0.42649 0.32781 0.0
O53 O 0.32543 0.42995 0.25063 0.0
O54 O 0.32485 0.41014 0.3754 0.0
O55 O 0.99361 0.25011 0.18518 0.0
Cd56 Cd 0.00235 0.29099 0.14423 0.0
O57 O 0.01776 0.24177 0.07771 0.0
Cd58 Cd 0.04067 0.22138 0.99039 0.0
O59 O 0.06656 0.21764 0.88444 0.0
C60 C 0.07135 0.19896 0.84181 0.0
O61 O 0.08603 0.20027 0.77496 0.0
C62 C 0.00416 0.23469 0.13898 0.0
C63 C 0.00458 0.32202 0.28629 0.0
O64 O 0.98571 0.32009 0.24042 0.0
O65 O 0.02226 0.30907 0.26572 0.0
O66 O 0.21377 0.0409 0.23468 0.0
Cd67 Cd 0.17578 0.05845 0.19766 0.0
O68 O 0.2313 0.06819 0.15558 0.0
Cd69 Cd 0.26301 0.08289 0.09533 0.0
O70 O 0.29895 0.08762 0.04822 0.0
C71 C 0.30611 0.07639 0.98094 0.0
O72 O 0.29121 0.06291 0.93796 0.0
C73 C 0.23259 0.05023 0.20579 0.0
C74 C 0.14075 0.03891 0.30348 0.0
O75 O 0.14535 0.03035 0.22724 0.0
O76 O 0.1525 0.05695 0.32905 0.0
O77 O 0.53669 0.25272 0.03578 0.0
Cd78 Cd 0.51907 0.21423 0.00495 0.0
O79 O 0.50244 0.26648 0.99662 0.0
Cd80 Cd 0.47081 0.28751 0.96621 0.0
O81 O 0.43503 0.2887 0.91194 0.0
C82 C 0.42423 0.30652 0.8809 0.0
O83 O 0.40357 0.30356 0.84367 0.0
C84 C 0.52321 0.2704 0.02502 0.0
C85 C 0.5123 0.18809 0.15903 0.0
O86 O 0.53027 0.18448 0.1096 0.0
O87 O 0.49751 0.204 0.13562 0.0
Pr88 Pr 0.00594 0.9807 0.9165 0.0
Pr89 Pr 0.98602 0.99894 0.72091 0.0
C90 C 0.01134 0.95973 0.07438 0.0
C91 C 0.00021 0.93914 0.11649 0.0
C92 C 0.01093 0.92782 0.18832 0.0
C93 C 0.00081 0.90742 0.22465 0.0
C94 C 0.97972 0.89827 0.18995 0.0
C95 C 0.96902 0.90982 0.11844 0.0
C96 C 0.97928 0.92993 0.08172 0.0
C97 C 0.03717 0.98201 0.77574 0.0
C98 C 0.97581 0.94414 0.78136 0.0
C99 C 0.98584 0.01313 0.5518 0.0
C100 C 0.98474 0.03523 0.50076 0.0
C101 C 0.97358 0.03554 0.4184 0.0
C102 C 0.97385 0.056 0.36654 0.0
C103 C 0.98541 0.0765 0.39607 0.0
C104 C 0.99624 0.07617 0.47953 0.0
C105 C 0.99582 0.05579 0.53148 0.0
C106 C 0.95361 0.00654 0.8579 0.0
C107 C 0.01191 0.03662 0.86316 0.0
O108 O 0.99773 0.97818 0.06212 0.0
O109 O 0.0247 0.95494 0.00623 0.0
O110 O 0.01597 0.97556 0.77253 0.0
O111 O 0.04356 0.98737 0.85576 0.0
O112 O 0.97771 0.95877 0.7136 0.0
O113 O 0.98245 0.94969 0.86251 0.0
O114 O 0.00514 0.00979 0.59762 0.0
O115 O 0.9666 0.00639 0.59289 0.0
O116 O 0.97376 0.99776 0.86079 0.0
O117 O 0.94902 0.01284 0.77706 0.0
O118 O 0.01017 0.02153 0.92987 0.0
O119 O 0.00681 0.031 0.78041 0.0
H120 H 0.02724 0.93457 0.21548 0.0
H121 H 0.00942 0.89879 0.27968 0.0
H122 H 0.95302 0.90293 0.08933 0.0
H123 H 0.97092 0.93827 0.02577 0.0
H124 H 0.96493 0.01985 0.39364 0.0
H125 H 0.96503 0.05572 0.30328 0.0
H126 H 0.00563 0.09146 0.50389 0.0
H127 H 0.00458 0.05597 0.59488 0.0
Pr128 Pr 0.52331 0.03874 0.76482 0.0
Pr129 Pr 0.49663 0.02426 0.59513 0.0
C130 C 0.55039 0.03958 0.91076 0.0
C131 C 0.57386 0.03218 0.94122 0.0
C132 C 0.59321 0.03174 0.8836 0.0
C133 C 0.61555 0.0256 0.91493 0.0
C134 C 0.61889 0.01957 0.00412 0.0
C135 C 0.5993 0.01926 0.06086 0.0
C136 C 0.57698 0.02558 0.02962 0.0
C137 C 0.51227 0.07589 0.65198 0.0
C138 C 0.55361 0.02419 0.5845 0.0
C139 C 0.46866 0.01965 0.45288 0.0
C140 C 0.44333 0.01846 0.43257 0.0
C141 C 0.43546 0.00345 0.36543 0.0
C142 C 0.41154 0.00245 0.34376 0.0
C143 C 0.3951 0.0166 0.38861 0.0
C144 C 0.40302 0.03141 0.45668 0.0
C145 C 0.4269 0.03225 0.47886 0.0
C146 C 0.50895 0.9875 0.70798 0.0
C147 C 0.46635 0.04501 0.76937 0.0
O148 O 0.53537 0.02269 0.89397 0.0
O149 O 0.54947 0.057 0.85394 0.0
O150 O 0.5198 0.05596 0.62874 0.0
O151 O 0.51118 0.07782 0.73739 0.0
O152 O 0.53438 0.02792 0.53782 0.0
O153 O 0.55302 0.02331 0.67174 0.0
O154 O 0.47675 0.03998 0.48041 0.0
O155 O 0.47766 0.00157 0.49474 0.0
O156 O 0.50035 0.00702 0.73102 0.0
O157 O 0.51098 0.98603 0.62282 0.0
O158 O 0.48547 0.04371 0.81831 0.0
O159 O 0.46644 0.04 0.68424 0.0
H160 H 0.59112 0.03644 0.81476 0.0
H161 H 0.63028 0.02574 0.86955 0.0
H162 H 0.60136 0.01489 0.12998 0.0
H163 H 0.5622 0.02568 0.07487 0.0
H164 H 0.44788 0.99265 0.32915 0.0
H165 H 0.406 0.99104 0.29048 0.0
H166 H 0.39071 0.04233 0.49286 0.0
H167 H 0.43253 0.04379 0.53165 0.0
Pr168 Pr 0.48661 0.52543 0.78964 0.0
Pr169 Pr 0.50384 0.49979 0.61759 0.0
C170 C 0.48132 0.55122 0.93687 0.0
C171 C 0.49103 0.57357 0.97067 0.0
C172 C 0.49589 0.57601 0.06075 0.0
C173 C 0.50484 0.59727 0.09356 0.0
C174 C 0.50908 0.61651 0.03672 0.0
C175 C 0.50442 0.61384 0.9462 0.0
C176 C 0.49554 0.59259 0.91354 0.0
C177 C 0.45166 0.51428 0.66794 0.0
C178 C 0.51054 0.55797 0.6308 0.0
C179 C 0.51388 0.48392 0.45478 0.0
C180 C 0.52083 0.46287 0.40381 0.0
C181 C 0.54213 0.46293 0.35635 0.0
C182 C 0.54837 0.44366 0.30374 0.0
C183 C 0.53322 0.42417 0.29686 0.0
C184 C 0.512 0.42407 0.34478 0.0
C185 C 0.50588 0.44318 0.39787 0.0
C186 C 0.53296 0.49492 0.76417 0.0
C187 C 0.47895 0.46804 0.77232 0.0
O188 O 0.49597 0.53337 0.93194 0.0
O189 O 0.46723 0.55289 0.86877 0.0
O190 O 0.47171 0.52245 0.64953 0.0
O191 O 0.44862 0.51242 0.75261 0.0
O192 O 0.51168 0.53886 0.58178 0.0
O193 O 0.50276 0.55753 0.71276 0.0
O194 O 0.49245 0.48451 0.48744 0.0
O195 O 0.52976 0.49337 0.50649 0.0
O196 O 0.5228 0.51368 0.74063 0.0
O197 O 0.52942 0.478 0.70802 0.0
O198 O 0.48405 0.48532 0.82797 0.0
O199 O 0.48098 0.47072 0.68589 0.0
H200 H 0.49271 0.56148 0.10578 0.0
H201 H 0.50858 0.59858 0.16337 0.0
H202 H 0.50717 0.62832 0.9006 0.0
H203 H 0.49197 0.59114 0.84368 0.0
H204 H 0.55384 0.47803 0.35916 0.0
H205 H 0.56477 0.44416 0.26719 0.0
H206 H 0.50017 0.40908 0.34163 0.0
H207 H 0.48934 0.44257 0.43354 0.0
Pr208 Pr 0.97843 0.49262 0.79957 0.0
Pr209 Pr 0.99113 0.50026 0.60151 0.0
C210 C 0.95836 0.49473 0.9608 0.0
C211 C 0.93463 0.49185 0.99853 0.0
C212 C 0.91593 0.48367 0.94648 0.0
C213 C 0.89342 0.48098 0.98278 0.0
C214 C 0.88919 0.48636 0.072 0.0
C215 C 0.90805 0.49461 0.12376 0.0
C216 C 0.93056 0.49736 0.08722 0.0
C217 C 0.99128 0.45211 0.70851 0.0
C218 C 0.93618 0.4903 0.6424 0.0
C219 C 0.01251 0.4982 0.44392 0.0
C220 C 0.03767 0.49637 0.421 0.0
C221 C 0.05453 0.51003 0.4656 0.0
C222 C 0.07853 0.50533 0.45566 0.0
C223 C 0.08617 0.48687 0.40098 0.0
C224 C 0.0693 0.47393 0.35322 0.0
C225 C 0.04526 0.47862 0.36335 0.0
C226 C 0.97651 0.54032 0.69075 0.0
C227 C 0.03391 0.49865 0.75498 0.0
O228 O 0.96155 0.51327 0.91063 0.0
O229 O 0.96821 0.47566 0.92925 0.0
O230 O 0.97823 0.46832 0.67966 0.0
O231 O 0.99748 0.45579 0.78988 0.0
O232 O 0.95242 0.48926 0.58035 0.0
O233 O 0.94157 0.49398 0.72628 0.0
O234 O 0.00373 0.47958 0.48319 0.0
O235 O 0.00549 0.5181 0.47913 0.0
O236 O 0.99042 0.52491 0.72105 0.0
O237 O 0.97054 0.53594 0.60956 0.0
O238 O 0.01834 0.50063 0.81922 0.0
O239 O 0.02765 0.49598 0.67182 0.0
H240 H 0.91876 0.47936 0.87778 0.0
H241 H 0.87927 0.47493 0.94062 0.0
H242 H 0.90553 0.49863 0.19287 0.0
H243 H 0.94481 0.50368 0.12836 0.0
H244 H 0.04916 0.52378 0.51087 0.0
H245 H 0.09109 0.51585 0.49224 0.0
H246 H 0.0746 0.45944 0.31114 0.0
H247 H 0.03255 0.46769 0.32918 0.0
H248 H 0.13145 0.04901 0.47677 0.0
H249 H 0.10981 0.00369 0.26101 0.0
H250 H 0.08097 0.98419 0.35899 0.0
H251 H 0.12847 0.0054 0.64506 0.0
H252 H 0.11726 0.02513 0.72823 0.0
H253 H 0.1354 0.03645 0.64032 0.0
H254 H 0.10266 0.0664 0.59834 0.0
H255 H 0.08452 0.05525 0.68658 0.0
H256 H 0.07334 0.05581 0.57546 0.0
H257 H 0.05464 0.96959 0.47992 0.0
H258 H 0.03277 0.96058 0.61703 0.0
H259 H 0.07267 0.01423 0.75536 0.0
C260 C 0.12052 0.03512 0.44988 0.0
C261 C 0.12283 0.0279 0.36117 0.0
C262 C 0.10834 0.00951 0.32874 0.0
C263 C 0.0919 0.99834 0.38383 0.0
C264 C 0.09026 0.00571 0.47115 0.0
C265 C 0.10414 0.02368 0.50407 0.0
C266 C 0.09925 0.02786 0.60099 0.0
C267 C 0.12142 0.02344 0.65692 0.0
C268 C 0.08936 0.05281 0.61618 0.0
C269 C 0.08067 0.00921 0.61766 0.0
C270 C 0.07557 0.99681 0.54164 0.0
C271 C 0.05855 0.9791 0.53994 0.0
C272 C 0.0463 0.97407 0.61793 0.0
C273 C 0.0513 0.98656 0.69637 0.0
C274 C 0.06883 0.00419 0.69641 0.0
H275 H 0.5303 0.14459 0.19904 0.0
H276 H 0.48628 0.20058 0.3034 0.0
H277 H 0.48121 0.178 0.44197 0.0
H278 H 0.49608 0.09661 0.29188 0.0
H279 H 0.52155 0.07849 0.31333 0.0
H280 H 0.52191 0.09925 0.22324 0.0
H281 H 0.55969 0.1185 0.28684 0.0
H282 H 0.55939 0.09778 0.37702 0.0
H283 H 0.55964 0.12905 0.39888 0.0
H284 H 0.48272 0.14992 0.57234 0.0
H285 H 0.48821 0.11714 0.67915 0.0
H286 H 0.52889 0.07879 0.48423 0.0
C287 C 0.51963 0.15211 0.25113 0.0
C288 C 0.50881 0.17439 0.24096 0.0
C289 C 0.49471 0.18351 0.31001 0.0
C290 C 0.49178 0.17086 0.38893 0.0
C291 C 0.50276 0.14895 0.39701 0.0
C292 C 0.51616 0.13953 0.32949 0.0
C293 C 0.52556 0.11537 0.35369 0.0
C294 C 0.51568 0.09631 0.29186 0.0
C295 C 0.55268 0.11518 0.35416 0.0
C296 C 0.51568 0.11284 0.44584 0.0
C297 C 0.50272 0.13243 0.4701 0.0
C298 C 0.49264 0.1344 0.55374 0.0
C299 C 0.49588 0.11579 0.61395 0.0
C300 C 0.5088 0.09549 0.58949 0.0
C301 C 0.51869 0.09403 0.5043 0.0
H302 H 0.34899 0.43018 0.49854 0.0
H303 H 0.36254 0.45643 0.23427 0.0
H304 H 0.39443 0.48176 0.29225 0.0
H305 H 0.35747 0.48501 0.60922 0.0
H306 H 0.37138 0.47195 0.70433 0.0
H307 H 0.35034 0.4552 0.64146 0.0
H308 H 0.38129 0.42208 0.61957 0.0
H309 H 0.40259 0.43872 0.68179 0.0
H310 H 0.40944 0.42926 0.57136 0.0
H311 H 0.42527 0.50381 0.37944 0.0
H312 H 0.45153 0.52209 0.49035 0.0
H313 H 0.41624 0.48273 0.69744 0.0
C314 C 0.35875 0.44113 0.4527 0.0
C315 C 0.35338 0.44127 0.36182 0.0
C316 C 0.36639 0.45605 0.30417 0.0
C317 C 0.38454 0.47047 0.33644 0.0
C318 C 0.38928 0.47002 0.42655 0.0
C319 C 0.37669 0.45581 0.48389 0.0
C320 C 0.38486 0.459 0.57806 0.0
C321 C 0.36482 0.46835 0.6367 0.0
C322 C 0.39515 0.43589 0.6149 0.0
C323 C 0.40388 0.47736 0.5649 0.0
C324 C 0.40638 0.48331 0.47696 0.0
C325 C 0.42335 0.49942 0.44854 0.0
C326 C 0.43815 0.5097 0.5118 0.0
C327 C 0.43563 0.50401 0.60218 0.0
C328 C 0.41825 0.48768 0.62884 0.0
H329 H 0.97694 0.36089 0.31409 0.0
H330 H 0.03586 0.32176 0.4233 0.0
H331 H 0.0387 0.35054 0.54517 0.0
H332 H 0.00043 0.41846 0.36164 0.0
H333 H 0.97207 0.43114 0.38664 0.0
H334 H 0.97422 0.40701 0.30997 0.0
H335 H 0.94422 0.38316 0.40339 0.0
H336 H 0.94214 0.40713 0.48075 0.0
H337 H 0.95006 0.37802 0.51866 0.0
H338 H 0.03457 0.38337 0.6568 0.0
H339 H 0.025 0.41895 0.74481 0.0
H340 H 0.97033 0.43736 0.55721 0.0
C341 C 0.99032 0.35828 0.36402 0.0
C342 C 0.00607 0.33901 0.35981 0.0
C343 C 0.0236 0.3364 0.42549 0.0
C344 C 0.02533 0.35262 0.49496 0.0
C345 C 0.00957 0.37148 0.49704 0.0
C346 C 0.99254 0.3745 0.43287 0.0
C347 C 0.97831 0.39671 0.44848 0.0
C348 C 0.98146 0.41437 0.37214 0.0
C349 C 0.95214 0.39089 0.46374 0.0
C350 C 0.98987 0.40558 0.53187 0.0
C351 C 0.00776 0.39075 0.55928 0.0
C352 C 0.02065 0.39517 0.63576 0.0
C353 C 0.0151 0.41533 0.68535 0.0
C354 C 0.99702 0.43081 0.65748 0.0
C355 C 0.98434 0.42585 0.57972 0.0
H356 H 0.88392 0.9506 0.25865 0.0
H357 H 0.83651 0.01054 0.24705 0.0
H358 H 0.86221 0.02949 0.13577 0.0
H359 H 0.93842 0.98646 0.23268 0.0
H360 H 0.95323 0.96469 0.16694 0.0
H361 H 0.93253 0.95553 0.25041 0.0
H362 H 0.9084 0.93224 0.13833 0.0
H363 H 0.92796 0.94036 0.05008 0.0
H364 H 0.89703 0.94675 0.04135 0.0
H365 H 0.88914 0.03817 0.00752 0.0
H366 H 0.91858 0.03863 0.88651 0.0
H367 H 0.9507 0.97542 0.99322 0.0
C368 C 0.8793 0.96796 0.2341 0.0
C369 C 0.85832 0.97917 0.26101 0.0
C370 C 0.85269 0.00182 0.22762 0.0
C371 C 0.86712 0.01267 0.16429 0.0
C372 C 0.88743 0.00089 0.13728 0.0
C373 C 0.89387 0.97934 0.17291 0.0
C374 C 0.91627 0.97014 0.13121 0.0
C375 C 0.93628 0.96913 0.19936 0.0
C376 C 0.91217 0.94595 0.08775 0.0
C377 C 0.92071 0.98921 0.06318 0.0
C378 C 0.90388 0.00681 0.06758 0.0
C379 C 0.90284 0.0249 0.00508 0.0
C380 C 0.91948 0.02498 0.93649 0.0
C381 C 0.93703 0.00733 0.93223 0.0
C382 C 0.93782 0.98947 0.99695 0.0
H383 H 0.58124 0.87386 0.85979 0.0
H384 H 0.55836 0.88851 0.12737 0.0
H385 H 0.53623 0.92323 0.07389 0.0
H386 H 0.58893 0.93446 0.79296 0.0
H387 H 0.57832 0.92954 0.6826 0.0
H388 H 0.59246 0.90594 0.74213 0.0
H389 H 0.55577 0.87943 0.71817 0.0
H390 H 0.5415 0.90298 0.65878 0.0
H391 H 0.52721 0.8898 0.75298 0.0
H392 H 0.51672 0.95643 0.99138 0.0
H393 H 0.50112 0.98569 0.88521 0.0
H394 H 0.53645 0.94909 0.67175 0.0
C395 C 0.57159 0.88436 0.90724 0.0
C396 C 0.57152 0.87846 0.99781 0.0
C397 C 0.55866 0.89268 0.05767 0.0
C398 C 0.54604 0.91243 0.02795 0.0
C399 C 0.54645 0.91771 0.93823 0.0
C400 C 0.55889 0.9041 0.87873 0.0
C401 C 0.55642 0.91357 0.78576 0.0
C402 C 0.58046 0.92134 0.74872 0.0
C403 C 0.54451 0.89536 0.72539 0.0
C404 C 0.54054 0.93457 0.8022 0.0
C405 C 0.53506 0.9367 0.89062 0.0
C406 C 0.52087 0.95492 0.92198 0.0
C407 C 0.51212 0.97144 0.86132 0.0
C408 C 0.51759 0.96957 0.77055 0.0
C409 C 0.53188 0.95083 0.74076 0.0
H410 H 0.61015 0.42581 0.11502 0.0
H411 H 0.61729 0.49188 0.25669 0.0
H412 H 0.58803 0.51027 0.15783 0.0
H413 H 0.60797 0.44816 0.90808 0.0
H414 H 0.58591 0.42843 0.86483 0.0
H415 H 0.60411 0.41918 0.9554 0.0
H416 H 0.56701 0.41042 0.04959 0.0
H417 H 0.54853 0.41937 0.95893 0.0
H418 H 0.5452 0.43317 0.0651 0.0
H419 H 0.5635 0.52317 0.02928 0.0
H420 H 0.54277 0.52864 0.88736 0.0
H421 H 0.55059 0.45396 0.83212 0.0
C422 C 0.60515 0.44399 0.12648 0.0
C423 C 0.61611 0.45748 0.19302 0.0
C424 C 0.60909 0.48121 0.20614 0.0
C425 C 0.59246 0.4918 0.15039 0.0
C426 C 0.58268 0.47829 0.08311 0.0
C427 C 0.58837 0.45474 0.07214 0.0
C428 C 0.57652 0.44455 0.99134 0.0
C429 C 0.59472 0.4345 0.9261 0.0
C430 C 0.55823 0.42577 0.01783 0.0
C431 C 0.56468 0.46645 0.95515 0.0
C432 C 0.56807 0.48564 0.00985 0.0
C433 C 0.56025 0.50817 0.98695 0.0
C434 C 0.54861 0.51114 0.90616 0.0
C435 C 0.545 0.4917 0.84937 0.0
C436 C 0.553 0.4691 0.87466 0.0
H437 H 0.95863 0.62031 0.11771 0.0
H438 H 0.90066 0.65417 0.9802 0.0
H439 H 0.9087 0.62968 0.84907 0.0
H440 H 0.99771 0.61417 0.9317 0.0
H441 H 0.00821 0.58544 0.96453 0.0
H442 H 0.99846 0.60615 0.04675 0.0
H443 H 0.9686 0.5753 0.10668 0.0
H444 H 0.97846 0.55452 0.02494 0.0
H445 H 0.94769 0.5621 0.03219 0.0
H446 H 0.92288 0.60154 0.73337 0.0
H447 H 0.94114 0.57022 0.64306 0.0
H448 H 0.98916 0.55394 0.85715 0.0
C449 C 0.94774 0.62269 0.05976 0.0
C450 C 0.92911 0.63924 0.05878 0.0
C451 C 0.91503 0.64159 0.98226 0.0
C452 C 0.91949 0.62781 0.90745 0.0
C453 C 0.93794 0.61162 0.91062 0.0
C454 C 0.95174 0.60884 0.98495 0.0
C455 C 0.96989 0.58953 0.97224 0.0
C456 C 0.99506 0.59942 0.9792 0.0
C457 C 0.96591 0.56916 0.03791 0.0
C458 C 0.96425 0.58203 0.87892 0.0
C459 C 0.94582 0.59505 0.84448 0.0
C460 C 0.93733 0.59123 0.75958 0.0
C461 C 0.94783 0.57346 0.70877 0.0
C462 C 0.96649 0.55971 0.74332 0.0
C463 C 0.97488 0.56419 0.82922 0.0
H464 H 0.99437 0.21472 0.29846 0.0
H465 H 0.00624 0.19748 0.02353 0.0
H466 H 0.00102 0.15511 0.05796 0.0
H467 H 0.02558 0.16587 0.38955 0.0
H468 H 0.00532 0.16153 0.47974 0.0
H469 H 0.00906 0.19048 0.43257 0.0
H470 H 0.96413 0.19299 0.40311 0.0
H471 H 0.96026 0.16403 0.45026 0.0
H472 H 0.94994 0.17009 0.34017 0.0
H473 H 0.99579 0.1145 0.124 0.0
H474 H 0.99182 0.07879 0.21642 0.0
H475 H 0.98245 0.12293 0.44757 0.0
C476 C 0.99585 0.20202 0.24547 0.0
C477 C 0.00107 0.20932 0.15856 0.0
C478 C 0.00289 0.19222 0.09098 0.0
C479 C -0.00023 0.16814 0.10979 0.0
C480 C 0.99499 0.1615 0.19653 0.0
C481 C 0.99305 0.17796 0.26326 0.0
C482 C 0.98829 0.16623 0.35127 0.0
C483 C 0.00826 0.17133 0.41714 0.0
C484 C 0.96422 0.17379 0.38835 0.0
C485 C 0.98814 0.14057 0.32386 0.0
C486 C 0.99186 0.1382 0.23431 0.0
C487 C 0.99286 0.11613 0.19418 0.0
C488 C 0.99036 0.09595 0.24722 0.0
C489 C 0.98679 0.09797 0.33948 0.0
C490 C 0.98543 0.12068 0.37758 0.0
H491 H 0.27212 0.07438 0.25385 0.0
H492 H 0.24458 0.0037 0.21798 0.0
H493 H 0.28321 0.98699 0.26204 0.0
H494 H 0.33057 0.06365 0.17398 0.0
H495 H 0.34468 0.08218 0.25463 0.0
H496 H 0.31505 0.08859 0.21983 0.0
H497 H 0.30058 0.08684 0.38142 0.0
H498 H 0.33016 0.08059 0.41755 0.0
H499 H 0.30646 0.06088 0.44676 0.0
H500 H 0.32543 0.97829 0.30592 0.0
H501 H 0.36719 0.97821 0.35303 0.0
H502 H 0.36625 0.05472 0.36431 0.0
C503 C 0.27437 0.0554 0.25394 0.0
C504 C 0.25565 0.04026 0.23074 0.0
C505 C 0.25888 0.01552 0.23485 0.0
C506 C 0.28071 0.00592 0.25969 0.0
C507 C 0.29891 0.02135 0.28169 0.0
C508 C 0.29588 0.04556 0.27984 0.0
C509 C 0.31797 0.05829 0.30901 0.0
C510 C 0.32763 0.07411 0.23492 0.0
C511 C 0.31352 0.07249 0.39372 0.0
C512 C 0.33406 0.03751 0.32615 0.0
C513 C 0.3228 0.01634 0.30991 0.0
C514 C 0.33438 0.99477 0.31918 0.0
C515 C 0.35809 0.9949 0.34553 0.0
C516 C 0.3699 0.01645 0.3627 0.0
C517 C 0.35759 0.03796 0.35305 0.0
H518 H 0.49894 0.31267 0.01835 0.0
H519 H 0.56645 0.28243 0.09084 0.0
H520 H 0.57907 0.32105 0.14859 0.0
H521 H 0.52197 0.37356 0.96349 0.0
H522 H 0.49549 0.38654 0.00707 0.0
H523 H 0.49454 0.35777 0.95595 0.0
H524 H 0.47532 0.34098 0.10144 0.0
H525 H 0.47693 0.36984 0.15012 0.0
H526 H 0.49063 0.34504 0.20414 0.0
H527 H 0.5823 0.3617 0.21618 0.0
H528 H 0.57481 0.39959 0.2925 0.0
H529 H 0.50505 0.40243 0.17688 0.0
C530 C 0.51652 0.31409 0.04434 0.0
C531 C 0.53156 0.29433 0.04989 0.0
C532 C 0.5545 0.29727 0.0855 0.0
C533 C 0.56193 0.31921 0.11817 0.0
C534 C 0.54634 0.33816 0.1139 0.0
C535 C 0.52418 0.33581 0.07725 0.0
C536 C 0.50986 0.35808 0.08826 0.0
C537 C 0.50515 0.36967 0.99834 0.0
C538 C 0.48683 0.35319 0.13895 0.0
C539 C 0.52675 0.37275 0.14201 0.0
C540 C 0.54803 0.36133 0.15391 0.0
C541 C 0.56583 0.37094 0.20615 0.0
C542 C 0.56145 0.39244 0.24917 0.0
C543 C 0.53931 0.40372 0.24087 0.0
C544 C 0.52209 0.39405 0.18458 0.0
H545 H 0.20184 0.43557 0.17902 0.0
H546 H 0.23588 0.43851 0.43456 0.0
H547 H 0.19969 0.45568 0.49791 0.0
H548 H 0.1721 0.49421 0.20911 0.0
H549 H 0.14745 0.48485 0.14352 0.0
H550 H 0.1765 0.47362 0.12091 0.0
H551 H 0.15991 0.43071 0.13671 0.0
H552 H 0.13113 0.44194 0.16314 0.0
H553 H 0.14578 0.42221 0.23844 0.0
H554 H 0.15893 0.47125 0.53386 0.0
H555 H 0.11734 0.48405 0.53866 0.0
H556 H 0.11209 0.4744 0.25557 0.0
C557 C 0.20241 0.44077 0.2469 0.0
C558 C 0.22225 0.43626 0.30041 0.0
C559 C 0.22103 0.44187 0.3915 0.0
C560 C 0.20058 0.45177 0.42819 0.0
C561 C 0.18159 0.45638 0.37273 0.0
C562 C 0.18249 0.45138 0.28379 0.0
C563 C 0.15984 0.45827 0.238 0.0
C564 C 0.1642 0.47892 0.17403 0.0
C565 C 0.1485 0.43702 0.19134 0.0
C566 C 0.14542 0.46634 0.31602 0.0
C567 C 0.1584 0.4656 0.393 0.0
C568 C 0.14871 0.47215 0.47375 0.0
C569 C 0.12511 0.47953 0.4757 0.0
C570 C 0.11147 0.48029 0.3974 0.0
C571 C 0.12195 0.47378 0.31662 0.0
H572 H 0.97605 0.75979 0.28281 0.0
H573 H 0.90022 0.76633 0.30616 0.0
H574 H 0.9037 0.80982 0.29394 0.0
H575 H 0.99343 0.81331 0.39943 0.0
H576 H 0.01671 0.82 0.32289 0.0
H577 H 0.00814 0.78977 0.34193 0.0
H578 H 0.00126 0.78466 0.17396 0.0
H579 H 0.0096 0.81493 0.15568 0.0
H580 H 0.98142 0.80442 0.11754 0.0
H581 H 0.91527 0.85217 0.2734 0.0
H582 H 0.93372 0.89031 0.23389 0.0
H583 H 0.00203 0.85617 0.2204 0.0
C584 C 0.96026 0.77048 0.2866 0.0
C585 C 0.93788 0.75992 0.29676 0.0
C586 C 0.91749 0.77424 0.29878 0.0
C587 C 0.91934 0.79889 0.29259 0.0
C588 C 0.94169 0.80883 0.28329 0.0
C589 C 0.96179 0.79507 0.27921 0.0
C590 C 0.98343 0.80997 0.26051 0.0
C591 C 0.00147 0.80814 0.33569 0.0
C592 C 0.99457 0.80309 0.17165 0.0
C593 C 0.97242 0.8343 0.25612 0.0
C594 C 0.94833 0.83325 0.26962 0.0
C595 C 0.93412 0.85324 0.26335 0.0
C596 C 0.94472 0.87478 0.24075 0.0
C597 C 0.96927 0.87615 0.22468 0.0
C598 C 0.9833 0.85571 0.2342 0.0
H599 H 0.71949 0.95574 0.29164 0.0
H600 H 0.76756 0.00855 0.18842 0.0
H601 H 0.73539 0.02595 0.10072 0.0
H602 H 0.68646 0.94861 0.08453 0.0
H603 H 0.65856 0.94442 0.13927 0.0
H604 H 0.68547 0.93552 0.1929 0.0
H605 H 0.67492 0.96152 0.32751 0.0
H606 H 0.64799 0.97039 0.27404 0.0
H607 H 0.66861 0.99232 0.31094 0.0
H608 H 0.69862 0.03835 0.02772 0.0
H609 H 0.65861 0.04494 0.9699 0.0
H610 H 0.63343 0.98415 0.11727 0.0
C611 C 0.72316 0.97084 0.24991 0.0
C612 C 0.74583 0.98117 0.24781 0.0
C613 C 0.75013 0.00079 0.19231 0.0
C614 C 0.73203 0.01071 0.14201 0.0
C615 C 0.70974 0.00061 0.1471 0.0
C616 C 0.70516 0.98102 0.1989 0.0
C617 C 0.67948 0.97372 0.19129 0.0
C618 C 0.67738 0.9491 0.14949 0.0
C619 C 0.66702 0.97454 0.28129 0.0
C620 C 0.67034 0.99273 0.12936 0.0
C621 C 0.68824 0.00782 0.10405 0.0
C622 C 0.68443 0.02661 0.04657 0.0
C623 C 0.66168 0.03013 0.01369 0.0
C624 C 0.64294 0.015 0.03861 0.0
C625 C 0.64739 0.99608 0.09748 0.0
H626 H 0.58243 0.73716 0.02764 0.0
H627 H 0.54808 0.75572 0.27328 0.0
H628 H 0.52688 0.71761 0.27259 0.0
H629 H 0.53158 0.70875 0.93034 0.0
H630 H 0.54862 0.68619 0.87617 0.0
H631 H 0.56146 0.71473 0.89656 0.0
H632 H 0.59602 0.695 0.98051 0.0
H633 H 0.58335 0.66639 0.96011 0.0
H634 H 0.58976 0.67542 0.07141 0.0
H635 H 0.51005 0.67711 0.24637 0.0
H636 H 0.4965 0.63849 0.19111 0.0
H637 H 0.54146 0.64659 0.9611 0.0
C638 C 0.57039 0.73319 0.08109 0.0
C639 C 0.56743 0.749 0.15208 0.0
C640 C 0.55129 0.74341 0.22015 0.0
C641 C 0.539 0.72192 0.21983 0.0
C642 C 0.54283 0.70638 0.15023 0.0
C643 C 0.55792 0.71185 0.08155 0.0
C644 C 0.55853 0.69224 0.01382 0.0
C645 C 0.54951 0.70101 0.92391 0.0
C646 C 0.58339 0.68164 0.00606 0.0
C647 C 0.54149 0.67489 0.05531 0.0
C648 C 0.53271 0.68332 0.13412 0.0
C649 C 0.51675 0.67035 0.18457 0.0
C650 C 0.50932 0.64832 0.15294 0.0
C651 C 0.51785 0.63944 0.0716 0.0
C652 C 0.53431 0.65295 0.02285 0.0
H653 H 0.76487 0.42294 0.14925 0.0
H654 H 0.74695 0.47943 0.32949 0.0
H655 H 0.78575 0.49808 0.30149 0.0
H656 H 0.82649 0.41816 0.20703 0.0
H657 H 0.83546 0.41235 0.09539 0.0
H658 H 0.80643 0.40395 0.13194 0.0
H659 H 0.78869 0.42828 0.00223 0.0
H660 H 0.81781 0.43706 0.96799 0.0
H661 H 0.79589 0.45916 0.99198 0.0
H662 H 0.82686 0.51018 0.25448 0.0
H663 H 0.86644 0.51545 0.1894 0.0
H664 H 0.85761 0.45038 0.04249 0.0
C665 C 0.76921 0.43915 0.18325 0.0
C666 C 0.75311 0.44962 0.24243 0.0
C667 C 0.75909 0.47116 0.2839 0.0
C668 C 0.78111 0.48178 0.26876 0.0
C669 C 0.79679 0.47076 0.21117 0.0
C670 C 0.79105 0.44998 0.16868 0.0
C671 C 0.81085 0.4419 0.10886 0.0
C672 C 0.82035 0.41766 0.13757 0.0
C673 C 0.80283 0.44159 0.01204 0.0
C674 C 0.82874 0.46124 0.12493 0.0
C675 C 0.8203 0.47775 0.18398 0.0
C676 C 0.83365 0.49732 0.20834 0.0
C677 C 0.85618 0.50009 0.17135 0.0
C678 C 0.86524 0.48333 0.11084 0.0
C679 C 0.85119 0.46367 0.08772 0.0
H680 H 0.05845 0.16424 0.72862 0.0
H681 H 0.06051 0.18198 0.00637 0.0
H682 H 0.04515 0.14225 0.04358 0.0
H683 H 0.004 0.13043 0.73867 0.0
H684 H 0.01372 0.1092 0.65818 0.0
H685 H 0.02445 0.1391 0.65352 0.0
H686 H 0.06761 0.124 0.65974 0.0
H687 H 0.05681 0.09415 0.66257 0.0
H688 H 0.07639 0.10445 0.74777 0.0
H689 H 0.03165 0.09947 0.04954 0.0
H690 H 0.01825 0.0585 0.02356 0.0
H691 H 0.02433 0.06996 0.74121 0.0
C692 C 0.05545 0.15981 0.79723 0.0
C693 C 0.06047 0.17613 0.86469 0.0
C694 C 0.05634 0.16982 0.9537 0.0
C695 C 0.04779 0.14727 0.9754 0.0
C696 C 0.0431 0.1315 0.90714 0.0
C697 C 0.04653 0.13763 0.81978 0.0
C698 C 0.04011 0.11761 0.75861 0.0
C699 C 0.01933 0.1245 0.69874 0.0
C700 C 0.06152 0.10958 0.70403 0.0
C701 C 0.03295 0.09906 0.8252 0.0
C702 C 0.03481 0.10731 0.91054 0.0
C703 C 0.02977 0.09295 0.98295 0.0
C704 C 0.02232 0.06966 0.96753 0.0
C705 C 0.02006 0.06101 0.88035 0.0
C706 C 0.02557 0.07601 0.8087 0.0
H707 H 0.32727 0.05512 0.83883 0.0
H708 H 0.34211 0.09839 0.06818 0.0
H709 H 0.38462 0.09564 0.03671 0.0
H710 H 0.37535 0.01625 0.85928 0.0
H711 H 0.38139 0.01438 0.74282 0.0
H712 H 0.35194 0.02054 0.78054 0.0
H713 H 0.35111 0.05867 0.68607 0.0
H714 H 0.38057 0.05261 0.64797 0.0
H715 H 0.374 0.08043 0.69977 0.0
H716 H 0.42538 0.08541 0.98851 0.0
H717 H 0.46201 0.07143 0.9183 0.0
H718 H 0.42093 0.03675 0.71489 0.0
C719 C 0.33943 0.06426 0.88186 0.0
C720 C 0.33135 0.07674 0.95662 0.0
C721 C 0.34785 0.08853 0.01102 0.0
C722 C 0.37205 0.08711 0.99365 0.0
C723 C 0.37944 0.07421 0.92068 0.0
C724 C 0.36365 0.06331 0.86474 0.0
C725 C 0.37631 0.05044 0.7911 0.0
C726 C 0.37092 0.02383 0.79366 0.0
C727 C 0.37012 0.06119 0.70089 0.0
C728 C 0.40169 0.05539 0.81563 0.0
C729 C 0.40307 0.06906 0.8908 0.0
C730 C 0.42456 0.07497 0.92896 0.0
C731 C 0.44525 0.06682 0.88889 0.0
C732 C 0.44429 0.0531 0.81105 0.0
C733 C 0.4222 0.04743 0.77384 0.0
H734 H 0.4373 0.33371 0.74182 0.0
H735 H 0.43318 0.33273 0.02679 0.0
H736 H 0.44593 0.37465 0.03097 0.0
H737 H 0.49043 0.37012 0.73004 0.0
H738 H 0.48087 0.38531 0.63183 0.0
H739 H 0.47146 0.35542 0.65229 0.0
H740 H 0.42773 0.36847 0.63892 0.0
H741 H 0.43727 0.39823 0.61788 0.0
H742 H 0.41703 0.39222 0.70698 0.0
H743 H 0.4591 0.41668 0.00293 0.0
H744 H 0.47192 0.45545 0.94542 0.0
H745 H 0.46821 0.42817 0.6784 0.0
C746 C 0.43952 0.34229 0.805 0.0
C747 C 0.43458 0.33021 0.88411 0.0
C748 C 0.43731 0.34181 0.96578 0.0
C749 C 0.44439 0.36555 0.96864 0.0
C750 C 0.44925 0.37706 0.88932 0.0
C751 C 0.44719 0.36572 0.80909 0.0
C752 C 0.45361 0.38193 0.73345 0.0
C753 C 0.47539 0.37264 0.68401 0.0
C754 C 0.43264 0.38542 0.67066 0.0
C755 C 0.45923 0.40432 0.7834 0.0
C756 C 0.45672 0.40116 0.87324 0.0
C757 C 0.46111 0.41936 0.93266 0.0
C758 C 0.46838 0.44133 0.89932 0.0
C759 C 0.47105 0.44493 0.80736 0.0
C760 C 0.46633 0.42609 0.74903 0.0
H761 H 0.15092 0.45539 0.99598 0.0
H762 H 0.19034 0.48932 0.78537 0.0
H763 H 0.15308 0.50371 0.72067 0.0
H764 H 0.10208 0.43681 0.86507 0.0
H765 H 0.08044 0.44234 0.94961 0.0
H766 H 0.11022 0.4349 0.97974 0.0
H767 H 0.11213 0.4726 0.07288 0.0
H768 H 0.08299 0.48144 0.04054 0.0
H769 H 0.10756 0.50103 0.022 0.0
H770 H 0.11176 0.51333 0.67639 0.0
H771 H 0.06884 0.51736 0.65486 0.0
H772 H 0.0562 0.47867 0.89716 0.0
C773 C 0.15177 0.46593 0.9365 0.0
C774 C 0.17359 0.47128 0.89584 0.0
C775 C 0.17387 0.48505 0.81783 0.0
C776 C 0.15281 0.49336 0.7807 0.0
C777 C 0.13166 0.48796 0.82297 0.0
C778 C 0.13095 0.47462 0.89926 0.0
C779 C 0.10581 0.47107 0.93078 0.0
C780 C 0.09926 0.44471 0.93127 0.0
C781 C 0.10192 0.48223 0.02192 0.0
C782 C 0.0925 0.48441 0.86 0.0
C783 C 0.10777 0.49395 0.79838 0.0
C784 C 0.09966 0.50611 0.72458 0.0
C785 C 0.07528 0.50827 0.71281 0.0
C786 C 0.05933 0.4985 0.7747 0.0
C787 C 0.06806 0.48674 0.84993 0.0
H788 H 0.96854 0.82416 0.51362 0.0
H789 H 0.94681 0.79006 0.7568 0.0
H790 H 0.94509 0.82896 0.83005 0.0
H791 H 0.00633 0.86619 0.60927 0.0
H792 H 0.99878 0.88957 0.53359 0.0
H793 H 0.99656 0.85929 0.4992 0.0
H794 H 0.95292 0.86581 0.45721 0.0
H795 H 0.95488 0.89616 0.49168 0.0
H796 H 0.93262 0.87714 0.53823 0.0
H797 H 0.94881 0.87093 0.87942 0.0
H798 H 0.95767 0.91311 0.90187 0.0
H799 H 0.97645 0.91987 0.62546 0.0
C800 C 0.96351 0.82485 0.5823 0.0
C801 C 0.95809 0.8041 0.62989 0.0
C802 C 0.95107 0.80577 0.71921 0.0
C803 C 0.94999 0.82777 0.76124 0.0
C804 C 0.9557 0.84787 0.71257 0.0
C805 C 0.96221 0.84663 0.62493 0.0
C806 C 0.96833 0.87074 0.58827 0.0
C807 C 0.99403 0.87148 0.55574 0.0
C808 C 0.95115 0.87788 0.51451 0.0
C809 C 0.96487 0.88569 0.66989 0.0
C810 C 0.9574 0.87218 0.74063 0.0
C811 C 0.95439 0.88176 0.82435 0.0
C812 C 0.95956 0.90571 0.83653 0.0
C813 C 0.96766 0.91978 0.7654 0.0
C814 C 0.96987 0.90968 0.68073 0.0
H815 H 0.69241 0.00754 0.54465 0.0
H816 H 0.68936 0.04718 0.29969 0.0
H817 H 0.64595 0.04955 0.31333 0.0
H818 H 0.63949 0.97395 0.51253 0.0
H819 H 0.63089 0.97504 0.62689 0.0
H820 H 0.66163 0.9761 0.59727 0.0
H821 H 0.66657 0.01538 0.68281 0.0
H822 H 0.63596 0.01416 0.71361 0.0
H823 H 0.64738 0.03987 0.65791 0.0
H824 H 0.60281 0.04668 0.35287 0.0
H825 H 0.56369 0.0427 0.42255 0.0
H826 H 0.5955 0.00628 0.64468 0.0
C827 C 0.68264 0.0168 0.49393 0.0
C828 C 0.6942 0.0272 0.42114 0.0
C829 C 0.68083 0.03928 0.35644 0.0
C830 C 0.65618 0.04056 0.36331 0.0
C831 C 0.64533 0.02983 0.43556 0.0
C832 C 0.65817 0.01845 0.50026 0.0
C833 C 0.6424 0.00901 0.57273 0.0
C834 C 0.64368 0.98192 0.5776 0.0
C835 C 0.64845 0.0203 0.66202 0.0
C836 C 0.61865 0.01715 0.5395 0.0
C837 C 0.62065 0.02873 0.45947 0.0
C838 C 0.60105 0.0377 0.41557 0.0
C839 C 0.5789 0.03521 0.4555 0.0
C840 C 0.5766 0.02416 0.53902 0.0
C841 C 0.59674 0.01483 0.5809 0.0
H842 H 0.55012 0.69385 0.61233 0.0
H843 H 0.56234 0.68289 0.33245 0.0
H844 H 0.5484 0.64203 0.3464 0.0
H845 H 0.56955 0.63613 0.68234 0.0
H846 H 0.54757 0.63339 0.7677 0.0
H847 H 0.55803 0.66215 0.73529 0.0
H848 H 0.51495 0.67493 0.70468 0.0
H849 H 0.50456 0.64599 0.73528 0.0
H850 H 0.49727 0.65808 0.62872 0.0
H851 H 0.53426 0.60266 0.38867 0.0
H852 H 0.52073 0.5659 0.45784 0.0
H853 H 0.51771 0.60108 0.71208 0.0
C854 C 0.5498 0.68284 0.5541 0.0
C855 C 0.55736 0.69159 0.47133 0.0
C856 C 0.55677 0.6766 0.39666 0.0
C857 C 0.54882 0.65335 0.40376 0.0
C858 C 0.54164 0.64524 0.48608 0.0
C859 C 0.54207 0.65938 0.56014 0.0
C860 C 0.53379 0.64584 0.64096 0.0
C861 C 0.55341 0.64428 0.71067 0.0
C862 C 0.5113 0.65687 0.67965 0.0
C863 C 0.5288 0.6219 0.60035 0.0
C864 C 0.5334 0.62211 0.5109 0.0
C865 C 0.53055 0.60221 0.45865 0.0
C866 C 0.52289 0.58137 0.49883 0.0
C867 C 0.51815 0.58053 0.59057 0.0
C868 C 0.52104 0.60117 0.64182 0.0
H869 H 0.83589 0.4291 0.3585 0.0
H870 H 0.78692 0.4462 0.56892 0.0
H871 H 0.81846 0.46762 0.64696 0.0
H872 H 0.88595 0.41891 0.49291 0.0
H873 H 0.90648 0.43207 0.41651 0.0
H874 H 0.87973 0.41888 0.37636 0.0
H875 H 0.86883 0.45824 0.29864 0.0
H876 H 0.8956 0.47143 0.33906 0.0
H877 H 0.86759 0.48508 0.36219 0.0
H878 H 0.85585 0.48498 0.70648 0.0
H879 H 0.89645 0.49752 0.74191 0.0
H880 H 0.92044 0.47012 0.49012 0.0
C881 C 0.83178 0.43736 0.42088 0.0
C882 C 0.80901 0.43586 0.45794 0.0
C883 C 0.80428 0.44709 0.5394 0.0
C884 C 0.82205 0.45934 0.58414 0.0
C885 C 0.84434 0.46042 0.54596 0.0
C886 C 0.84924 0.44984 0.46598 0.0
C887 C 0.87477 0.45323 0.44009 0.0
C888 C 0.88747 0.42935 0.43101 0.0
C889 C 0.87681 0.46787 0.35495 0.0
C890 C 0.88356 0.4669 0.51908 0.0
C891 C 0.86574 0.47096 0.57925 0.0
C892 C 0.86992 0.48216 0.65945 0.0
C893 C 0.89302 0.48917 0.67908 0.0
C894 C 0.91156 0.48495 0.6186 0.0
C895 C 0.9066 0.47396 0.53717 0.0
loop_
_geom_bond_atom_site_label_1
_geom_bond_atom_site_label_2
_geom_bond_distance
_geom_bond_site_symmetry_2
_ccdc_geom_bond_type
O0 Cd1 2.300 . S
O0 C7 1.275 . S
Cd1 O0 2.300 . S
Cd1 O9 2.381 . S
Cd1 O10 2.378 . S
O2 Cd3 2.385 . S
O2 C7 1.255 . S
Cd3 O2 2.385 . S
Cd3 O4 2.317 . S
O4 Cd3 2.317 . S
O4 C5 1.232 . S
C5 O4 1.232 . S
C5 O6 1.218 . S
O6 C5 1.218 . S
C7 O0 1.275 . S
C7 O2 1.255 . S
C8 O9 1.258 . S
C8 O10 1.256 . S
O9 Cd1 2.381 . S
O9 C8 1.258 . S
O10 Cd1 2.378 . S
O10 C8 1.256 . S
O11 Cd12 2.300 1_655 S
O11 C18 1.275 1_655 S
Cd12 O11 2.300 1_455 S
Cd12 O20 2.381 1_455 S
Cd12 O21 2.378 . S
O13 Cd14 2.385 . S
O13 C18 1.255 . S
Cd14 O13 2.385 . S
Cd14 O15 2.317 . S
O15 Cd14 2.317 . S
O15 C16 1.232 . S
C16 O15 1.232 . S
C16 O17 1.218 . S
O17 C16 1.218 . S
C18 O11 1.275 1_455 S
C18 O13 1.255 . S
C19 O20 1.258 1_455 S
C19 O21 1.256 . S
O20 Cd12 2.381 1_655 S
O20 C19 1.258 1_655 S
O21 Cd12 2.378 . S
O21 C19 1.256 . S
O22 Cd23 2.300 1_565 S
O22 C29 1.275 1_565 S
Cd23 O22 2.300 1_545 S
Cd23 O31 2.381 1_545 S
Cd23 O32 2.378 . S
O24 Cd25 2.385 . S
O24 C29 1.255 . S
Cd25 O24 2.385 . S
Cd25 O26 2.317 . S
O26 Cd25 2.317 . S
O26 C27 1.232 . S
C27 O26 1.232 . S
C27 O28 1.218 . S
O28 C27 1.218 . S
C29 O22 1.275 1_545 S
C29 O24 1.255 . S
C30 O31 1.258 1_545 S
C30 O32 1.256 . S
O31 Cd23 2.381 1_565 S
O31 C30 1.258 1_565 S
O32 Cd23 2.378 . S
O32 C30 1.256 . S
O33 Cd34 2.300 . S
O33 C40 1.275 . S
Cd34 O33 2.300 . S
Cd34 O42 2.381 . S
Cd34 O43 2.378 . S
O35 Cd36 2.385 . S
O35 C40 1.255 . S
Cd36 O35 2.385 . S
Cd36 O37 2.317 . S
O37 Cd36 2.317 . S
O37 C38 1.232 . S
C38 O37 1.232 . S
C38 O39 1.218 . S
O39 C38 1.218 . S
C40 O33 1.275 . S
C40 O35 1.255 . S
C41 O42 1.258 . S
C41 O43 1.256 . S
O42 Cd34 2.381 . S
O42 C41 1.258 . S
O43 Cd34 2.378 . S
O43 C41 1.256 . S
O44 Cd45 2.300 . S
O44 C51 1.275 . S
Cd45 O44 2.300 . S
Cd45 O53 2.381 . S
Cd45 O54 2.378 . S
O46 Cd47 2.385 1_554 S
O46 C51 1.255 . S
Cd47 O46 2.385 1_556 S
Cd47 O48 2.317 . S
O48 Cd47 2.317 . S
O48 C49 1.232 . S
C49 O48 1.232 . S
C49 O50 1.218 . S
O50 C49 1.218 . S
C51 O44 1.275 . S
C51 O46 1.255 . S
C52 O53 1.258 . S
C52 O54 1.256 . S
O53 Cd45 2.381 . S
O53 C52 1.258 . S
O54 Cd45 2.378 . S
O54 C52 1.256 . S
O55 Cd56 2.300 1_655 S
O55 C62 1.275 1_655 S
Cd56 O55 2.300 1_455 S
Cd56 O64 2.381 1_455 S
Cd56 O65 2.378 . S
O57 Cd58 2.385 1_554 S
O57 C62 1.255 . S
Cd58 O57 2.385 1_556 S
Cd58 O59 2.317 . S
O59 Cd58 2.317 . S
O59 C60 1.232 . S
C60 O59 1.232 . S
C60 O61 1.218 . S
O61 C60 1.218 . S
C62 O55 1.275 1_455 S
C62 O57 1.255 . S
C63 O64 1.258 1_455 S
C63 O65 1.256 . S
O64 Cd56 2.381 1_655 S
O64 C63 1.258 1_655 S
O65 Cd56 2.378 . S
O65 C63 1.256 . S
O66 Cd67 2.300 1_565 S
O66 C73 1.275 1_565 S
Cd67 O66 2.300 1_545 S
Cd67 O75 2.381 1_545 S
Cd67 O76 2.378 . S
O68 Cd69 2.385 1_554 S
O68 C73 1.255 . S
Cd69 O68 2.385 1_556 S
Cd69 O70 2.317 . S
O70 Cd69 2.317 . S
O70 C71 1.232 . S
C71 O70 1.232 . S
C71 O72 1.218 . S
O72 C71 1.218 . S
C73 O66 1.275 1_545 S
C73 O68 1.255 . S
C74 O75 1.258 1_545 S
C74 O76 1.256 . S
O75 Cd67 2.381 1_565 S
O75 C74 1.258 1_565 S
O76 Cd67 2.378 . S
O76 C74 1.256 . S
O77 Cd78 2.300 . S
O77 C84 1.275 . S
Cd78 O77 2.300 . S
Cd78 O86 2.381 . S
Cd78 O87 2.378 . S
O79 Cd80 2.385 1_554 S
O79 C84 1.255 . S
Cd80 O79 2.385 1_556 S
Cd80 O81 2.317 . S
O81 Cd80 2.317 . S
O81 C82 1.232 . S
C82 O81 1.232 . S
C82 O83 1.218 . S
O83 C82 1.218 . S
C84 O77 1.275 . S
C84 O79 1.255 . S
C85 O86 1.258 . S
C85 O87 1.256 . S
O86 Cd78 2.381 . S
O86 C85 1.258 . S
O87 Cd78 2.378 . S
O87 C85 1.256 . S
Pr88 C90 2.880 . S
Pr88 O108 2.562 . S
Pr88 O109 2.490 . S
Pr88 O110 2.695 1_565 S
Pr88 O111 2.512 . S
Pr88 O113 2.437 . S
Pr88 O116 2.436 1_455 S
Pr88 O118 2.438 1_565 S
Pr89 C99 2.880 . S
Pr89 O110 2.436 1_655 S
Pr89 O112 2.438 1_545 S
Pr89 O114 2.562 . S
Pr89 O115 2.490 . S
Pr89 O116 2.695 1_545 S
Pr89 O117 2.512 . S
Pr89 O119 2.437 . S
C90 Pr88 2.880 . S
C90 C91 1.491 . S
C90 O108 1.254 . S
C90 O109 1.225 . S
C91 C90 1.491 . S
C91 C92 1.392 . S
C91 C96 1.356 . S
C92 C91 1.392 . S
C92 C93 1.370 . S
C92 H120 0.929 . S
C93 C92 1.370 . S
C93 C94 1.385 1_556 S
C93 H121 0.928 1_556 S
C94 C93 1.385 1_554 S
C94 C95 1.373 . S
C95 C94 1.373 . S
C95 C96 1.409 1_554 S
C95 H122 0.931 1_455 S
C96 C91 1.356 . S
C96 C95 1.409 1_556 S
C96 H123 0.930 1_455 S
C97 O110 1.270 1_565 S
C97 O111 1.248 . S
C98 O112 1.267 . S
C98 O113 1.278 1_655 S
C99 Pr89 2.880 . S
C99 C100 1.491 . S
C99 O114 1.254 . S
C99 O115 1.225 . S
C100 C99 1.491 . S
C100 C101 1.392 . S
C100 C105 1.356 . S
C101 C100 1.392 . S
C101 C102 1.368 . S
C101 H124 0.929 . S
C102 C101 1.368 . S
C102 C103 1.386 . S
C102 H125 0.929 . S
C103 C102 1.386 . S
C103 C104 1.373 . S
C104 C103 1.373 . S
C104 C105 1.409 . S
C104 H126 0.931 1_655 S
C105 C100 1.356 . S
C105 C104 1.409 . S
C105 H127 0.930 1_655 S
C106 O116 1.270 1_545 S
C106 O117 1.248 . S
C107 O118 1.267 . S
C107 O119 1.278 1_455 S
O108 Pr88 2.562 . S
O108 C90 1.254 . S
O109 Pr88 2.490 . S
O109 C90 1.225 . S
O110 Pr88 2.695 1_545 S
O110 Pr89 2.436 1_455 S
O110 C97 1.270 1_545 S
O111 Pr88 2.512 . S
O111 C97 1.248 . S
O112 Pr89 2.438 1_565 S
O112 C98 1.267 . S
O113 Pr88 2.437 . S
O113 C98 1.278 1_455 S
O114 Pr89 2.562 . S
O114 C99 1.254 . S
O115 Pr89 2.490 . S
O115 C99 1.225 . S
O116 Pr88 2.436 1_655 S
O116 Pr89 2.695 1_565 S
O116 C106 1.270 1_565 S
O117 Pr89 2.512 . S
O117 C106 1.248 . S
O118 Pr88 2.438 1_545 S
O118 C107 1.267 . S
O119 Pr89 2.437 . S
O119 C107 1.278 1_655 S
H120 C92 0.929 . S
H121 C93 0.928 1_554 S
H122 C95 0.931 1_655 S
H123 C96 0.930 1_655 S
H124 C101 0.929 . S
H125 C102 0.929 . S
H126 C104 0.931 1_455 S
H127 C105 0.930 1_455 S
Pr128 C130 2.880 . S
Pr128 O148 2.562 . S
Pr128 O149 2.490 . S
Pr128 O150 2.695 . S
Pr128 O151 2.512 . S
Pr128 O153 2.437 . S
Pr128 O156 2.436 1_545 S
Pr128 O158 2.438 . S
Pr129 C139 2.880 . S
Pr129 O150 2.436 1_565 S
Pr129 O152 2.438 . S
Pr129 O154 2.562 . S
Pr129 O155 2.490 . S
Pr129 O156 2.695 . S
Pr129 O157 2.512 . S
Pr129 O159 2.437 . S
C130 Pr128 2.880 . S
C130 C131 1.491 . S
C130 O148 1.254 . S
C130 O149 1.225 . S
C131 C130 1.491 . S
C131 C132 1.392 . S
C131 C136 1.356 . S
C132 C131 1.392 . S
C132 C133 1.368 . S
C132 H160 0.929 . S
C133 C132 1.368 . S
C133 C134 1.386 1_556 S
C133 H161 0.929 1_556 S
C134 C133 1.386 1_554 S
C134 C135 1.373 . S
C135 C134 1.373 . S
C135 C136 1.409 1_554 S
C135 H162 0.931 1_545 S
C136 C131 1.356 . S
C136 C135 1.409 1_556 S
C136 H163 0.930 1_545 S
C137 O150 1.270 . S
C137 O151 1.248 . S
C138 O152 1.267 . S
C138 O153 1.278 1_565 S
C139 Pr129 2.880 . S
C139 C140 1.491 . S
C139 O154 1.254 . S
C139 O155 1.225 . S
C140 C139 1.491 . S
C140 C141 1.392 . S
C140 C145 1.356 . S
C141 C140 1.392 . S
C141 C142 1.368 . S
C141 H164 0.929 . S
C142 C141 1.368 . S
C142 C143 1.386 . S
C142 H165 0.929 . S
C143 C142 1.386 . S
C143 C144 1.373 . S
C144 C143 1.373 . S
C144 C145 1.409 . S
C144 H166 0.931 1_565 S
C145 C140 1.356 . S
C145 C144 1.409 . S
C145 H167 0.930 1_565 S
C146 O156 1.270 . S
C146 O157 1.248 . S
C147 O158 1.267 . S
C147 O159 1.278 1_545 S
O148 Pr128 2.562 . S
O148 C130 1.254 . S
O149 Pr128 2.490 . S
O149 C130 1.225 . S
O150 Pr128 2.695 . S
O150 Pr129 2.436 1_545 S
O150 C137 1.270 . S
O151 Pr128 2.512 . S
O151 C137 1.248 . S
O152 Pr129 2.438 . S
O152 C138 1.267 . S
O153 Pr128 2.437 . S
O153 C138 1.278 1_545 S
O154 Pr129 2.562 . S
O154 C139 1.254 . S
O155 Pr129 2.490 . S
O155 C139 1.225 . S
O156 Pr128 2.436 1_565 S
O156 Pr129 2.695 . S
O156 C146 1.270 . S
O157 Pr129 2.512 . S
O157 C146 1.248 . S
O158 Pr128 2.438 . S
O158 C147 1.267 . S
O159 Pr129 2.437 . S
O159 C147 1.278 1_565 S
H160 C132 0.929 . S
H161 C133 0.929 1_554 S
H162 C135 0.931 1_565 S
H163 C136 0.930 1_565 S
H164 C141 0.929 . S
H165 C142 0.929 . S
H166 C144 0.931 1_545 S
H167 C145 0.930 1_545 S
Pr168 C170 2.880 . S
Pr168 O188 2.562 . S
Pr168 O189 2.490 . S
Pr168 O190 2.695 . S
Pr168 O191 2.512 . S
Pr168 O193 2.437 . S
Pr168 O196 2.436 . S
Pr168 O198 2.438 . S
Pr169 C179 2.880 . S
Pr169 O190 2.436 . S
Pr169 O192 2.438 . S
Pr169 O194 2.562 . S
Pr169 O195 2.490 . S
Pr169 O196 2.695 . S
Pr169 O197 2.512 . S
Pr169 O199 2.437 . S
C170 Pr168 2.880 . S
C170 C171 1.491 . S
C170 O188 1.254 . S
C170 O189 1.225 . S
C171 C170 1.491 . S
C171 C172 1.392 . S
C171 C176 1.356 . S
C172 C171 1.392 . S
C172 C173 1.364 1_556 S
C172 H200 0.929 . S
C173 C172 1.364 1_554 S
C173 C174 1.388 . S
C173 H201 0.930 . S
C174 C173 1.388 . S
C174 C175 1.373 . S
C175 C174 1.373 . S
C175 C176 1.409 1_554 S
C175 H202 0.931 . S
C176 C171 1.356 . S
C176 C175 1.409 1_556 S
C176 H203 0.930 . S
C177 O190 1.270 . S
C177 O191 1.248 . S
C178 O192 1.267 . S
C178 O193 1.278 . S
C179 Pr169 2.880 . S
C179 C180 1.491 . S
C179 O194 1.254 . S
C179 O195 1.225 . S
C180 C179 1.491 . S
C180 C181 1.392 . S
C180 C185 1.356 . S
C181 C180 1.392 . S
C181 C182 1.368 . S
C181 H204 0.929 . S
C182 C181 1.368 . S
C182 C183 1.386 . S
C182 H205 0.929 . S
C183 C182 1.386 . S
C183 C184 1.373 . S
C184 C183 1.373 . S
C184 C185 1.409 . S
C184 H206 0.931 . S
C185 C180 1.356 . S
C185 C184 1.409 . S
C185 H207 0.930 . S
C186 O196 1.270 . S
C186 O197 1.248 . S
C187 O198 1.267 . S
C187 O199 1.278 . S
O188 Pr168 2.562 . S
O188 C170 1.254 . S
O189 Pr168 2.490 . S
O189 C170 1.225 . S
O190 Pr168 2.695 . S
O190 Pr169 2.436 . S
O190 C177 1.270 . S
O191 Pr168 2.512 . S
O191 C177 1.248 . S
O192 Pr169 2.438 . S
O192 C178 1.267 . S
O193 Pr168 2.437 . S
O193 C178 1.278 . S
O194 Pr169 2.562 . S
O194 C179 1.254 . S
O195 Pr169 2.490 . S
O195 C179 1.225 . S
O196 Pr168 2.436 . S
O196 Pr169 2.695 . S
O196 C186 1.270 . S
O197 Pr169 2.512 . S
O197 C186 1.248 . S
O198 Pr168 2.438 . S
O198 C187 1.267 . S
O199 Pr169 2.437 . S
O199 C187 1.278 . S
H200 C172 0.929 . S
H201 C173 0.930 . S
H202 C175 0.931 . S
H203 C176 0.930 . S
H204 C181 0.929 . S
H205 C182 0.929 . S
H206 C184 0.931 . S
H207 C185 0.930 . S
Pr208 C210 2.880 . S
Pr208 O228 2.562 . S
Pr208 O229 2.490 . S
Pr208 O230 2.695 1_655 S
Pr208 O231 2.512 . S
Pr208 O233 2.437 . S
Pr208 O236 2.436 . S
Pr208 O238 2.438 1_655 S
Pr209 C219 2.880 . S
Pr209 O230 2.436 . S
Pr209 O232 2.438 1_455 S
Pr209 O234 2.562 . S
Pr209 O235 2.490 . S
Pr209 O236 2.695 1_455 S
Pr209 O237 2.512 . S
Pr209 O239 2.437 . S
C210 Pr208 2.880 . S
C210 C211 1.491 . S
C210 O228 1.254 . S
C210 O229 1.225 . S
C211 C210 1.491 . S
C211 C212 1.392 . S
C211 C216 1.356 . S
C212 C211 1.392 . S
C212 C213 1.366 1_556 S
C212 H240 0.929 . S
C213 C212 1.366 1_554 S
C213 C214 1.387 . S
C213 H241 0.930 . S
C214 C213 1.387 . S
C214 C215 1.373 . S
C215 C214 1.373 . S
C215 C216 1.409 1_554 S
C215 H242 0.931 . S
C216 C211 1.356 . S
C216 C215 1.409 1_556 S
C216 H243 0.930 . S
C217 O230 1.256 1_655 S
C217 O231 1.272 . S
C218 O232 1.267 . S
C218 O233 1.278 . S
C219 Pr209 2.880 . S
C219 C220 1.491 . S
C219 O234 1.254 . S
C219 O235 1.225 . S
C220 C219 1.491 . S
C220 C221 1.392 . S
C220 C225 1.356 . S
C221 C220 1.392 . S
C221 C222 1.368 . S
C221 H244 0.929 . S
C222 C221 1.368 . S
C222 C223 1.386 . S
C222 H245 0.929 . S
C223 C222 1.386 . S
C223 C224 1.373 . S
C224 C223 1.373 . S
C224 C225 1.409 . S
C224 H246 0.931 . S
C225 C220 1.356 . S
C225 C224 1.409 . S
C225 H247 0.930 . S
C226 O236 1.270 1_455 S
C226 O237 1.248 . S
C227 O238 1.267 . S
C227 O239 1.278 . S
O228 Pr208 2.562 . S
O228 C210 1.254 . S
O229 Pr208 2.490 . S
O229 C210 1.225 . S
O230 Pr208 2.695 1_455 S
O230 Pr209 2.436 . S
O230 C217 1.256 1_455 S
O231 Pr208 2.512 . S
O231 C217 1.272 . S
O232 Pr209 2.438 1_655 S
O232 C218 1.267 . S
O233 Pr208 2.437 . S
O233 C218 1.278 . S
O234 Pr209 2.562 . S
O234 C219 1.254 . S
O235 Pr209 2.490 . S
O235 C219 1.225 . S
O236 Pr208 2.436 . S
O236 Pr209 2.695 1_655 S
O236 C226 1.270 1_655 S
O237 Pr209 2.512 . S
O237 C226 1.248 . S
O238 Pr208 2.438 1_455 S
O238 C227 1.267 . S
O239 Pr209 2.437 . S
O239 C227 1.278 . S
H240 C212 0.929 . S
H241 C213 0.930 . S
H242 C215 0.931 . S
H243 C216 0.930 . S
H244 C221 0.929 . S
H245 C222 0.929 . S
H246 C224 0.931 . S
H247 C225 0.930 . S
H248 C260 0.930 . S
H249 C262 0.930 . S
H250 C263 0.930 . S
H251 C267 0.959 . S
H252 C267 0.959 . S
H253 C267 0.961 . S
H254 C268 0.960 . S
H255 C268 0.961 . S
H256 C268 0.959 . S
H257 C271 0.929 . S
H258 C272 0.931 . S
H259 C274 0.930 . S
C260 H248 0.930 . S
C260 C261 1.399 1_545 S
C260 C265 1.399 . S
C261 C260 1.399 1_565 S
C261 C262 1.376 . S
C262 H249 0.930 . S
C262 C261 1.376 . S
C262 C263 1.388 . S
C263 H250 0.930 . S
C263 C262 1.388 . S
C263 C264 1.390 . S
C264 C263 1.390 . S
C264 C265 1.394 1_565 S
C264 C270 1.465 . S
C265 C260 1.399 . S
C265 C264 1.394 1_545 S
C265 C266 1.516 . S
C266 C265 1.516 . S
C266 C267 1.502 . S
C266 C268 1.561 . S
C266 C269 1.526 . S
C267 H251 0.959 . S
C267 H252 0.959 . S
C267 H253 0.961 . S
C267 C266 1.502 . S
C268 H254 0.960 . S
C268 H255 0.961 . S
C268 H256 0.959 . S
C268 C266 1.561 . S
C269 C266 1.526 . S
C269 C270 1.396 1_545 S
C269 C274 1.390 . S
C270 C264 1.465 . S
C270 C269 1.396 1_565 S
C270 C271 1.399 . S
C271 H257 0.929 . S
C271 C270 1.399 . S
C271 C272 1.385 . S
C272 H258 0.931 . S
C272 C271 1.385 . S
C272 C273 1.389 . S
C273 C272 1.389 . S
C273 C274 1.387 1_565 S
C274 H259 0.930 . S
C274 C269 1.390 . S
C274 C273 1.387 1_545 S
H275 C287 0.930 . S
H276 C289 0.930 . S
H277 C290 0.930 . S
H278 C294 0.959 . S
H279 C294 0.959 . S
H280 C294 0.961 . S
H281 C295 0.960 . S
H282 C295 0.961 . S
H283 C295 0.959 . S
H284 C298 0.929 . S
H285 C299 0.931 . S
H286 C301 0.930 . S
C287 H275 0.930 . S
C287 C288 1.399 . S
C287 C292 1.399 . S
C288 C287 1.399 . S
C288 C289 1.376 . S
C289 H276 0.930 . S
C289 C288 1.376 . S
C289 C290 1.388 . S
C290 H277 0.930 . S
C290 C289 1.388 . S
C290 C291 1.390 . S
C291 C290 1.390 . S
C291 C292 1.394 . S
C291 C297 1.465 . S
C292 C287 1.399 . S
C292 C291 1.394 . S
C292 C293 1.516 . S
C293 C292 1.516 . S
C293 C294 1.502 . S
C293 C295 1.561 . S
C293 C296 1.526 . S
C294 H278 0.959 . S
C294 H279 0.959 . S
C294 H280 0.961 . S
C294 C293 1.502 . S
C295 H281 0.960 . S
C295 H282 0.961 . S
C295 H283 0.959 . S
C295 C293 1.561 . S
C296 C293 1.526 . S
C296 C297 1.396 . S
C296 C301 1.390 . S
C297 C291 1.465 . S
C297 C296 1.396 . S
C297 C298 1.399 . S
C298 H284 0.929 . S
C298 C297 1.399 . S
C298 C299 1.385 . S
C299 H285 0.931 . S
C299 C298 1.385 . S
C299 C300 1.389 . S
C300 C299 1.389 . S
C300 C301 1.387 . S
C301 H286 0.930 . S
C301 C296 1.390 . S
C301 C300 1.387 . S
H302 C314 0.930 . S
H303 C316 0.930 . S
H304 C317 0.930 . S
H305 C321 0.959 . S
H306 C321 0.959 . S
H307 C321 0.961 . S
H308 C322 0.960 . S
H309 C322 0.961 . S
H310 C322 0.959 . S
H311 C325 0.929 . S
H312 C326 0.931 . S
H313 C328 0.930 . S
C314 H302 0.930 . S
C314 C315 1.399 . S
C314 C319 1.399 . S
C315 C314 1.399 . S
C315 C316 1.376 . S
C316 H303 0.930 . S
C316 C315 1.376 . S
C316 C317 1.388 . S
C317 H304 0.930 . S
C317 C316 1.388 . S
C317 C318 1.390 . S
C318 C317 1.390 . S
C318 C319 1.394 . S
C318 C324 1.465 . S
C319 C314 1.399 . S
C319 C318 1.394 . S
C319 C320 1.516 . S
C320 C319 1.516 . S
C320 C321 1.502 . S
C320 C322 1.561 . S
C320 C323 1.526 . S
C321 H305 0.959 . S
C321 H306 0.959 . S
C321 H307 0.961 . S
C321 C320 1.502 . S
C322 H308 0.960 . S
C322 H309 0.961 . S
C322 H310 0.959 . S
C322 C320 1.561 . S
C323 C320 1.526 . S
C323 C324 1.396 . S
C323 C328 1.390 . S
C324 C318 1.465 . S
C324 C323 1.396 . S
C324 C325 1.399 . S
C325 H311 0.929 . S
C325 C324 1.399 . S
C325 C326 1.385 . S
C326 H312 0.931 . S
C326 C325 1.385 . S
C326 C327 1.389 . S
C327 C326 1.389 . S
C327 C328 1.387 . S
C328 H313 0.930 . S
C328 C323 1.390 . S
C328 C327 1.387 . S
H329 C341 0.930 . S
H330 C343 0.930 . S
H331 C344 0.930 . S
H332 C348 0.959 . S
H333 C348 0.959 . S
H334 C348 0.961 . S
H335 C349 0.960 . S
H336 C349 0.961 . S
H337 C349 0.959 . S
H338 C352 0.929 . S
H339 C353 0.931 . S
H340 C355 0.930 . S
C341 H329 0.930 . S
C341 C342 1.399 1_655 S
C341 C346 1.399 . S
C342 C341 1.399 1_455 S
C342 C343 1.376 . S
C343 H330 0.930 . S
C343 C342 1.376 . S
C343 C344 1.388 . S
C344 H331 0.930 . S
C344 C343 1.388 . S
C344 C345 1.390 . S
C345 C344 1.390 . S
C345 C346 1.394 1_455 S
C345 C351 1.465 . S
C346 C341 1.399 . S
C346 C345 1.394 1_655 S
C346 C347 1.516 . S
C347 C346 1.516 . S
C347 C348 1.502 . S
C347 C349 1.561 1_655 S
C347 C350 1.526 . S
C348 H332 0.959 . S
C348 H333 0.959 . S
C348 H334 0.961 . S
C348 C347 1.502 . S
C349 H335 0.960 . S
C349 H336 0.961 . S
C349 H337 0.959 . S
C349 C347 1.561 1_455 S
C350 C347 1.526 . S
C350 C351 1.396 1_655 S
C350 C355 1.390 . S
C351 C345 1.465 . S
C351 C350 1.396 1_455 S
C351 C352 1.399 . S
C352 H338 0.929 . S
C352 C351 1.399 . S
C352 C353 1.385 . S
C353 H339 0.931 . S
C353 C352 1.385 . S
C353 C354 1.389 . S
C354 C353 1.389 . S
C354 C355 1.387 1_455 S
C355 H340 0.930 . S
C355 C350 1.390 . S
C355 C354 1.387 1_655 S
H356 C368 0.930 . S
H357 C370 0.930 . S
H358 C371 0.930 . S
H359 C375 0.959 . S
H360 C375 0.959 . S
H361 C375 0.961 . S
H362 C376 0.960 . S
H363 C376 0.962 . S
H364 C376 0.959 1_556 S
H365 C379 0.929 . S
H366 C380 0.931 . S
H367 C382 0.930 . S
C368 H356 0.930 . S
C368 C369 1.399 1_565 S
C368 C373 1.399 . S
C369 C368 1.399 1_545 S
C369 C370 1.376 . S
C370 H357 0.930 . S
C370 C369 1.376 . S
C370 C371 1.388 . S
C371 H358 0.930 . S
C371 C370 1.388 . S
C371 C372 1.390 . S
C372 C371 1.390 . S
C372 C373 1.394 1_545 S
C372 C378 1.463 1_554 S
C373 C368 1.399 . S
C373 C372 1.394 1_565 S
C373 C374 1.516 . S
C374 C373 1.516 . S
C374 C375 1.502 . S
C374 C376 1.561 . S
C374 C377 1.526 1_554 S
C375 H359 0.959 . S
C375 H360 0.959 . S
C375 H361 0.961 . S
C375 C374 1.502 . S
C376 H362 0.960 . S
C376 H363 0.962 . S
C376 H364 0.959 1_554 S
C376 C374 1.561 . S
C377 C374 1.526 1_556 S
C377 C378 1.396 1_565 S
C377 C382 1.390 . S
C378 C372 1.463 1_556 S
C378 C377 1.396 1_545 S
C378 C379 1.401 . S
C379 H365 0.929 . S
C379 C378 1.401 . S
C379 C380 1.385 . S
C380 H366 0.931 . S
C380 C379 1.385 . S
C380 C381 1.389 . S
C381 C380 1.389 . S
C381 C382 1.387 1_545 S
C382 H367 0.930 . S
C382 C377 1.390 . S
C382 C381 1.387 1_565 S
H383 C395 0.930 . S
H384 C397 0.930 . S
H385 C398 0.930 . S
H386 C402 0.959 . S
H387 C402 0.959 . S
H388 C402 0.961 . S
H389 C403 0.960 . S
H390 C403 0.961 . S
H391 C403 0.959 . S
H392 C406 0.929 . S
H393 C407 0.931 . S
H394 C409 0.930 . S
C395 H383 0.930 . S
C395 C396 1.399 . S
C395 C400 1.399 . S
C396 C395 1.399 . S
C396 C397 1.376 . S
C397 H384 0.930 . S
C397 C396 1.376 . S
C397 C398 1.388 . S
C398 H385 0.930 . S
C398 C397 1.388 . S
C398 C399 1.390 . S
C399 C398 1.390 . S
C399 C400 1.394 . S
C399 C405 1.465 . S
C400 C395 1.399 . S
C400 C399 1.394 . S
C400 C401 1.516 1_554 S
C401 C400 1.516 1_556 S
C401 C402 1.502 . S
C401 C403 1.561 . S
C401 C404 1.526 . S
C402 H386 0.959 . S
C402 H387 0.959 . S
C402 H388 0.961 . S
C402 C401 1.502 . S
C403 H389 0.960 . S
C403 H390 0.961 . S
C403 H391 0.959 . S
C403 C401 1.561 . S
C404 C401 1.526 . S
C404 C405 1.396 1_556 S
C404 C409 1.390 . S
C405 C399 1.465 . S
C405 C404 1.396 1_554 S
C405 C406 1.399 . S
C406 H392 0.929 . S
C406 C405 1.399 . S
C406 C407 1.385 1_554 S
C407 H393 0.931 . S
C407 C406 1.385 1_556 S
C407 C408 1.389 . S
C408 C407 1.389 . S
C408 C409 1.387 . S
C409 H394 0.930 . S
C409 C404 1.390 . S
C409 C408 1.387 . S
H410 C422 0.930 . S
H411 C424 0.930 . S
H412 C425 0.930 . S
H413 C429 0.959 . S
H414 C429 0.959 . S
H415 C429 0.961 1_554 S
H416 C430 0.960 . S
H417 C430 0.961 . S
H418 C430 0.959 . S
H419 C433 0.929 1_554 S
H420 C434 0.931 . S
H421 C436 0.930 . S
C422 H410 0.930 . S
C422 C423 1.399 . S
C422 C427 1.399 . S
C423 C422 1.399 . S
C423 C424 1.376 . S
C424 H411 0.930 . S
C424 C423 1.376 . S
C424 C425 1.388 . S
C425 H412 0.930 . S
C425 C424 1.388 . S
C425 C426 1.390 . S
C426 C425 1.390 . S
C426 C427 1.394 . S
C426 C432 1.465 . S
C427 C422 1.399 . S
C427 C426 1.394 . S
C427 C428 1.516 . S
C428 C427 1.516 . S
C428 C429 1.502 1_554 S
C428 C430 1.561 . S
C428 C431 1.526 1_554 S
C429 H413 0.959 . S
C429 H414 0.959 . S
C429 H415 0.961 1_556 S
C429 C428 1.502 1_556 S
C430 H416 0.960 . S
C430 H417 0.961 . S
C430 H418 0.959 . S
C430 C428 1.561 . S
C431 C428 1.526 1_556 S
C431 C432 1.396 1_556 S
C431 C436 1.390 . S
C432 C426 1.465 . S
C432 C431 1.396 1_554 S
C432 C433 1.399 1_554 S
C433 H419 0.929 1_556 S
C433 C432 1.399 1_556 S
C433 C434 1.385 . S
C434 H420 0.931 . S
C434 C433 1.385 . S
C434 C435 1.389 . S
C435 C434 1.389 . S
C435 C436 1.387 . S
C436 H421 0.930 . S
C436 C431 1.390 . S
C436 C435 1.387 . S
H437 C449 0.930 . S
H438 C451 0.930 . S
H439 C452 0.930 . S
H440 C456 0.959 . S
H441 C456 0.959 . S
H442 C456 0.961 . S
H443 C457 0.960 1_455 S
H444 C457 0.961 1_455 S
H445 C457 0.959 . S
H446 C460 0.929 . S
H447 C461 0.931 . S
H448 C463 0.930 . S
C449 H437 0.930 . S
C449 C450 1.399 1_455 S
C449 C454 1.399 . S
C450 C449 1.399 1_655 S
C450 C451 1.376 . S
C451 H438 0.930 . S
C451 C450 1.376 . S
C451 C452 1.388 . S
C452 H439 0.930 . S
C452 C451 1.388 . S
C452 C453 1.390 . S
C453 C452 1.390 . S
C453 C454 1.394 1_655 S
C453 C459 1.465 1_554 S
C454 C449 1.399 . S
C454 C453 1.394 1_455 S
C454 C455 1.516 . S
C455 C454 1.516 . S
C455 C456 1.502 . S
C455 C457 1.561 1_455 S
C455 C458 1.526 . S
C456 H440 0.959 . S
C456 H441 0.959 . S
C456 H442 0.961 . S
C456 C455 1.502 . S
C457 H443 0.960 1_655 S
C457 H444 0.961 1_655 S
C457 H445 0.959 . S
C457 C455 1.561 1_655 S
C458 C455 1.526 . S
C458 C459 1.396 1_454 S
C458 C463 1.390 1_554 S
C459 C453 1.465 1_556 S
C459 C458 1.396 1_656 S
C459 C460 1.399 . S
C460 H446 0.929 . S
C460 C459 1.399 . S
C460 C461 1.385 . S
C461 H447 0.931 . S
C461 C460 1.385 . S
C461 C462 1.389 . S
C462 C461 1.389 . S
C462 C463 1.387 1_655 S
C463 H448 0.930 . S
C463 C458 1.390 1_556 S
C463 C462 1.387 1_455 S
H464 C476 0.930 1_455 S
H465 C478 0.930 . S
H466 C479 0.930 . S
H467 C483 0.959 . S
H468 C483 0.959 . S
H469 C483 0.961 . S
H470 C484 0.960 . S
H471 C484 0.961 . S
H472 C484 0.959 . S
H473 C487 0.929 . S
H474 C488 0.931 . S
H475 C490 0.930 . S
C476 H464 0.930 1_655 S
C476 C477 1.400 . S
C476 C481 1.399 . S
C477 C476 1.400 . S
C477 C478 1.383 . S
C478 H465 0.930 . S
C478 C477 1.383 . S
C478 C479 1.388 . S
C479 H466 0.930 . S
C479 C478 1.388 . S
C479 C480 1.390 . S
C480 C479 1.390 . S
C480 C481 1.394 . S
C480 C486 1.465 . S
C481 C476 1.399 . S
C481 C480 1.394 . S
C481 C482 1.516 . S
C482 C481 1.516 . S
C482 C483 1.502 1_655 S
C482 C484 1.561 . S
C482 C485 1.526 . S
C483 H467 0.959 . S
C483 H468 0.959 . S
C483 H469 0.961 . S
C483 C482 1.502 1_455 S
C484 H470 0.960 . S
C484 H471 0.961 . S
C484 H472 0.959 . S
C484 C482 1.561 . S
C485 C482 1.526 . S
C485 C486 1.396 . S
C485 C490 1.390 . S
C486 C480 1.465 . S
C486 C485 1.396 . S
C486 C487 1.399 . S
C487 H473 0.929 . S
C487 C486 1.399 . S
C487 C488 1.385 . S
C488 H474 0.931 . S
C488 C487 1.385 . S
C488 C489 1.389 . S
C489 C488 1.389 . S
C489 C490 1.387 . S
C490 H475 0.930 . S
C490 C485 1.390 . S
C490 C489 1.387 . S
H491 C503 0.930 . S
H492 C505 0.930 . S
H493 C506 0.930 . S
H494 C510 0.959 1_565 S
H495 C510 0.959 . S
H496 C510 0.961 . S
H497 C511 0.960 . S
H498 C511 0.961 . S
H499 C511 0.959 . S
H500 C514 0.929 . S
H501 C515 0.931 . S
H502 C517 0.930 . S
C503 H491 0.930 . S
C503 C504 1.393 1_545 S
C503 C508 1.394 1_545 S
C504 C503 1.393 1_565 S
C504 C505 1.388 . S
C505 H492 0.930 . S
C505 C504 1.388 . S
C505 C506 1.388 . S
C506 H493 0.930 . S
C506 C505 1.388 . S
C506 C507 1.390 . S
C507 C506 1.390 . S
C507 C508 1.403 . S
C507 C513 1.465 . S
C508 C503 1.394 1_565 S
C508 C507 1.403 . S
C508 C509 1.513 1_565 S
C509 C508 1.513 1_545 S
C509 C510 1.502 . S
C509 C511 1.561 . S
C509 C512 1.526 1_545 S
C510 H494 0.959 1_545 S
C510 H495 0.959 . S
C510 H496 0.961 . S
C510 C509 1.502 . S
C511 H497 0.960 . S
C511 H498 0.961 . S
C511 H499 0.959 . S
C511 C509 1.561 . S
C512 C509 1.526 1_565 S
C512 C513 1.396 . S
C512 C517 1.390 . S
C513 C507 1.465 . S
C513 C512 1.396 . S
C513 C514 1.399 . S
C514 H500 0.929 . S
C514 C513 1.399 . S
C514 C515 1.385 . S
C515 H501 0.931 . S
C515 C514 1.385 . S
C515 C516 1.389 . S
C516 C515 1.389 . S
C516 C517 1.387 . S
C517 H502 0.930 . S
C517 C512 1.390 . S
C517 C516 1.387 . S
H518 C530 0.930 . S
H519 C532 0.930 . S
H520 C533 0.930 . S
H521 C537 0.959 . S
H522 C537 0.959 . S
H523 C537 0.961 . S
H524 C538 0.960 . S
H525 C538 0.961 . S
H526 C538 0.959 . S
H527 C541 0.929 . S
H528 C542 0.931 . S
H529 C544 0.930 . S
C530 H518 0.930 . S
C530 C531 1.399 . S
C530 C535 1.399 . S
C531 C530 1.399 . S
C531 C532 1.376 . S
C532 H519 0.930 . S
C532 C531 1.376 . S
C532 C533 1.388 . S
C533 H520 0.930 . S
C533 C532 1.388 . S
C533 C534 1.390 . S
C534 C533 1.390 . S
C534 C535 1.394 . S
C534 C540 1.465 . S
C535 C530 1.399 . S
C535 C534 1.394 . S
C535 C536 1.516 . S
C536 C535 1.516 . S
C536 C537 1.502 . S
C536 C538 1.561 . S
C536 C539 1.526 . S
C537 H521 0.959 . S
C537 H522 0.959 . S
C537 H523 0.961 . S
C537 C536 1.502 . S
C538 H524 0.960 . S
C538 H525 0.961 . S
C538 H526 0.959 . S
C538 C536 1.561 . S
C539 C536 1.526 . S
C539 C540 1.396 . S
C539 C544 1.390 . S
C540 C534 1.465 . S
C540 C539 1.396 . S
C540 C541 1.399 . S
C541 H527 0.929 . S
C541 C540 1.399 . S
C541 C542 1.385 . S
C542 H528 0.931 . S
C542 C541 1.385 . S
C542 C543 1.389 . S
C543 C542 1.389 . S
C543 C544 1.387 . S
C544 H529 0.930 . S
C544 C539 1.390 . S
C544 C543 1.387 . S
H545 C557 0.930 . S
H546 C559 0.930 . S
H547 C560 0.930 . S
H548 C564 0.959 . S
H549 C564 0.959 . S
H550 C564 0.961 . S
H551 C565 0.960 . S
H552 C565 0.961 . S
H553 C565 0.959 . S
H554 C568 0.929 . S
H555 C569 0.931 . S
H556 C571 0.930 . S
C557 H545 0.930 . S
C557 C558 1.399 . S
C557 C562 1.399 . S
C558 C557 1.399 . S
C558 C559 1.376 . S
C559 H546 0.930 . S
C559 C558 1.376 . S
C559 C560 1.388 . S
C560 H547 0.930 . S
C560 C559 1.388 . S
C560 C561 1.390 . S
C561 C560 1.390 . S
C561 C562 1.394 . S
C561 C567 1.465 . S
C562 C557 1.399 . S
C562 C561 1.394 . S
C562 C563 1.516 . S
C563 C562 1.516 . S
C563 C564 1.502 . S
C563 C565 1.561 . S
C563 C566 1.526 . S
C564 H548 0.959 . S
C564 H549 0.959 . S
C564 H550 0.961 . S
C564 C563 1.502 . S
C565 H551 0.960 . S
C565 H552 0.961 . S
C565 H553 0.959 . S
C565 C563 1.561 . S
C566 C563 1.526 . S
C566 C567 1.396 . S
C566 C571 1.390 . S
C567 C561 1.465 . S
C567 C566 1.396 . S
C567 C568 1.399 . S
C568 H554 0.929 . S
C568 C567 1.399 . S
C568 C569 1.385 . S
C569 H555 0.931 . S
C569 C568 1.385 . S
C569 C570 1.389 . S
C570 C569 1.389 . S
C570 C571 1.387 . S
C571 H556 0.930 . S
C571 C566 1.390 . S
C571 C570 1.387 . S
H572 C584 0.930 . S
H573 C586 0.930 . S
H574 C587 0.930 . S
H575 C591 0.959 . S
H576 C591 0.959 . S
H577 C591 0.961 . S
H578 C592 0.959 1_554 S
H579 C592 0.970 . S
H580 C592 0.961 . S
H581 C595 0.929 1_655 S
H582 C596 0.931 . S
H583 C598 0.930 1_556 S
C584 H572 0.930 . S
C584 C585 1.399 1_455 S
C584 C589 1.399 . S
C585 C584 1.399 1_655 S
C585 C586 1.376 . S
C586 H573 0.930 . S
C586 C585 1.376 . S
C586 C587 1.388 . S
C587 H574 0.930 . S
C587 C586 1.388 . S
C587 C588 1.390 1_655 S
C588 C587 1.390 1_455 S
C588 C589 1.394 . S
C588 C594 1.465 . S
C589 C584 1.399 . S
C589 C588 1.394 . S
C589 C590 1.516 . S
C590 C589 1.516 . S
C590 C591 1.502 . S
C590 C592 1.551 1_554 S
C590 C593 1.526 . S
C591 H575 0.959 . S
C591 H576 0.959 . S
C591 H577 0.961 . S
C591 C590 1.502 . S
C592 H578 0.959 1_556 S
C592 H579 0.970 . S
C592 H580 0.961 . S
C592 C590 1.551 1_556 S
C593 C590 1.526 . S
C593 C594 1.396 . S
C593 C598 1.390 . S
C594 C588 1.465 . S
C594 C593 1.396 . S
C594 C595 1.399 . S
C595 H581 0.929 1_455 S
C595 C594 1.399 . S
C595 C596 1.385 . S
C596 H582 0.931 . S
C596 C595 1.385 . S
C596 C597 1.389 . S
C597 C596 1.389 . S
C597 C598 1.387 . S
C598 H583 0.930 1_554 S
C598 C593 1.390 . S
C598 C597 1.387 . S
H599 C611 0.930 . S
H600 C613 0.930 . S
H601 C614 0.930 . S
H602 C618 0.959 1_554 S
H603 C618 0.959 . S
H604 C618 0.961 . S
H605 C619 0.960 . S
H606 C619 0.961 1_556 S
H607 C619 0.959 . S
H608 C622 0.929 . S
H609 C623 0.931 . S
H610 C625 0.930 1_556 S
C611 H599 0.930 . S
C611 C612 1.404 . S
C611 C616 1.399 1_565 S
C612 C611 1.404 . S
C612 C613 1.359 1_565 S
C613 H600 0.930 . S
C613 C612 1.359 1_545 S
C613 C614 1.388 . S
C614 H601 0.930 . S
C614 C613 1.388 . S
C614 C615 1.390 . S
C615 C614 1.390 . S
C615 C616 1.394 . S
C615 C621 1.465 . S
C616 C611 1.399 1_545 S
C616 C615 1.394 . S
C616 C617 1.516 . S
C617 C616 1.516 . S
C617 C618 1.502 1_554 S
C617 C619 1.561 1_545 S
C617 C620 1.526 . S
C618 H602 0.959 1_556 S
C618 H603 0.959 . S
C618 H604 0.961 . S
C618 C617 1.502 1_556 S
C619 H605 0.960 . S
C619 H606 0.961 1_554 S
C619 H607 0.959 . S
C619 C617 1.561 1_565 S
C620 C617 1.526 . S
C620 C621 1.396 . S
C620 C625 1.390 . S
C621 C615 1.465 . S
C621 C620 1.396 . S
C621 C622 1.399 . S
C622 H608 0.929 . S
C622 C621 1.399 . S
C622 C623 1.385 . S
C623 H609 0.931 . S
C623 C622 1.385 . S
C623 C624 1.389 . S
C624 C623 1.389 . S
C624 C625 1.387 . S
C625 H610 0.930 1_554 S
C625 C620 1.390 . S
C625 C624 1.387 . S
H626 C638 0.930 . S
H627 C640 0.930 . S
H628 C641 0.930 . S
H629 C645 0.959 . S
H630 C645 0.959 . S
H631 C645 0.961 . S
H632 C646 0.960 . S
H633 C646 0.961 . S
H634 C646 0.959 . S
H635 C649 0.929 . S
H636 C650 0.931 . S
H637 C652 0.930 . S
C638 H626 0.930 . S
C638 C639 1.399 . S
C638 C643 1.399 . S
C639 C638 1.399 . S
C639 C640 1.376 . S
C640 H627 0.930 . S
C640 C639 1.376 . S
C640 C641 1.388 . S
C641 H628 0.930 . S
C641 C640 1.388 . S
C641 C642 1.390 . S
C642 C641 1.390 . S
C642 C643 1.394 . S
C642 C648 1.465 . S
C643 C638 1.399 . S
C643 C642 1.394 . S
C643 C644 1.516 . S
C644 C643 1.516 . S
C644 C645 1.502 . S
C644 C646 1.561 . S
C644 C647 1.526 . S
C645 H629 0.959 . S
C645 H630 0.959 . S
C645 H631 0.961 . S
C645 C644 1.502 . S
C646 H632 0.960 . S
C646 H633 0.961 . S
C646 H634 0.959 . S
C646 C644 1.561 . S
C647 C644 1.526 . S
C647 C648 1.396 . S
C647 C652 1.390 . S
C648 C642 1.465 . S
C648 C647 1.396 . S
C648 C649 1.399 . S
C649 H635 0.929 . S
C649 C648 1.399 . S
C649 C650 1.385 1_554 S
C650 H636 0.931 . S
C650 C649 1.385 1_556 S
C650 C651 1.389 1_556 S
C651 C650 1.389 1_554 S
C651 C652 1.387 . S
C652 H637 0.930 . S
C652 C647 1.390 . S
C652 C651 1.387 . S
H653 C665 0.930 . S
H654 C667 0.930 . S
H655 C668 0.930 . S
H656 C672 0.959 . S
H657 C672 0.959 . S
H658 C672 0.961 . S
H659 C673 0.960 . S
H660 C673 0.961 . S
H661 C673 0.959 . S
H662 C676 0.929 1_556 S
H663 C677 0.931 . S
H664 C679 0.930 . S
C665 H653 0.930 . S
C665 C666 1.399 . S
C665 C670 1.399 . S
C666 C665 1.399 . S
C666 C667 1.376 . S
C667 H654 0.930 . S
C667 C666 1.376 . S
C667 C668 1.388 . S
C668 H655 0.930 . S
C668 C667 1.388 . S
C668 C669 1.390 . S
C669 C668 1.390 . S
C669 C670 1.394 . S
C669 C675 1.465 . S
C670 C665 1.399 . S
C670 C669 1.394 . S
C670 C671 1.516 . S
C671 C670 1.516 . S
C671 C672 1.502 . S
C671 C673 1.561 . S
C671 C674 1.526 . S
C672 H656 0.959 . S
C672 H657 0.959 . S
C672 H658 0.961 . S
C672 C671 1.502 . S
C673 H659 0.960 . S
C673 H660 0.961 . S
C673 H661 0.959 . S
C673 C671 1.561 . S
C674 C671 1.526 . S
C674 C675 1.396 . S
C674 C679 1.390 . S
C675 C669 1.465 . S
C675 C674 1.396 . S
C675 C676 1.399 . S
C676 H662 0.929 1_554 S
C676 C675 1.399 . S
C676 C677 1.385 1_554 S
C677 H663 0.931 . S
C677 C676 1.385 1_556 S
C677 C678 1.389 1_556 S
C678 C677 1.389 1_554 S
C678 C679 1.387 . S
C679 H664 0.930 . S
C679 C674 1.390 . S
C679 C678 1.387 . S
H680 C692 0.930 . S
H681 C694 0.930 . S
H682 C695 0.930 . S
H683 C699 0.959 . S
H684 C699 0.959 . S
H685 C699 0.961 . S
H686 C700 0.960 . S
H687 C700 0.961 . S
H688 C700 0.959 . S
H689 C703 0.929 . S
H690 C704 0.931 . S
H691 C706 0.930 . S
C692 H680 0.930 . S
C692 C693 1.399 . S
C692 C697 1.399 . S
C693 C692 1.399 . S
C693 C694 1.376 . S
C694 H681 0.930 . S
C694 C693 1.376 . S
C694 C695 1.388 . S
C695 H682 0.930 . S
C695 C694 1.388 . S
C695 C696 1.390 . S
C696 C695 1.390 . S
C696 C697 1.394 . S
C696 C702 1.465 . S
C697 C692 1.399 . S
C697 C696 1.394 . S
C697 C698 1.516 . S
C698 C697 1.516 . S
C698 C699 1.502 1_455 S
C698 C700 1.561 . S
C698 C701 1.526 . S
C699 H683 0.959 . S
C699 H684 0.959 . S
C699 H685 0.961 . S
C699 C698 1.502 1_655 S
C700 H686 0.960 . S
C700 H687 0.961 . S
C700 H688 0.959 . S
C700 C698 1.561 . S
C701 C698 1.526 . S
C701 C702 1.396 . S
C701 C706 1.390 . S
C702 C696 1.465 . S
C702 C701 1.396 . S
C702 C703 1.399 . S
C703 H689 0.929 . S
C703 C702 1.399 . S
C703 C704 1.385 . S
C704 H690 0.931 . S
C704 C703 1.385 . S
C704 C705 1.389 . S
C705 C704 1.389 . S
C705 C706 1.387 . S
C706 H691 0.930 . S
C706 C701 1.390 . S
C706 C705 1.387 . S
H707 C719 0.930 . S
H708 C721 0.930 . S
H709 C722 0.930 . S
H710 C726 0.959 . S
H711 C726 0.959 . S
H712 C726 0.961 . S
H713 C727 0.960 . S
H714 C727 0.961 . S
H715 C727 0.959 . S
H716 C730 0.929 . S
H717 C731 0.931 . S
H718 C733 0.930 . S
C719 H707 0.930 . S
C719 C720 1.399 1_565 S
C719 C724 1.399 . S
C720 C719 1.399 1_545 S
C720 C721 1.376 . S
C721 H708 0.930 . S
C721 C720 1.376 . S
C721 C722 1.388 . S
C722 H709 0.930 . S
C722 C721 1.388 . S
C722 C723 1.390 . S
C723 C722 1.390 . S
C723 C724 1.394 1_545 S
C723 C729 1.465 . S
C724 C719 1.399 . S
C724 C723 1.394 1_565 S
C724 C725 1.516 . S
C725 C724 1.516 . S
C725 C726 1.502 . S
C725 C727 1.561 . S
C725 C728 1.526 . S
C726 H710 0.959 . S
C726 H711 0.959 . S
C726 H712 0.961 . S
C726 C725 1.502 . S
C727 H713 0.960 . S
C727 H714 0.961 . S
C727 H715 0.959 . S
C727 C725 1.561 . S
C728 C725 1.526 . S
C728 C729 1.396 1_565 S
C728 C733 1.390 . S
C729 C723 1.465 . S
C729 C728 1.396 1_545 S
C729 C730 1.399 . S
C730 H716 0.929 . S
C730 C729 1.399 . S
C730 C731 1.385 . S
C731 H717 0.931 . S
C731 C730 1.385 . S
C731 C732 1.389 . S
C732 C731 1.389 . S
C732 C733 1.387 1_545 S
C733 H718 0.930 . S
C733 C728 1.390 . S
C733 C732 1.387 1_565 S
H734 C746 0.930 . S
H735 C748 0.930 . S
H736 C749 0.930 . S
H737 C753 0.959 . S
H738 C753 0.959 . S
H739 C753 0.961 . S
H740 C754 0.960 . S
H741 C754 0.961 . S
H742 C754 0.959 . S
H743 C757 0.929 . S
H744 C758 0.931 . S
H745 C760 0.930 . S
C746 H734 0.930 . S
C746 C747 1.399 . S
C746 C751 1.399 . S
C747 C746 1.399 . S
C747 C748 1.376 . S
C748 H735 0.930 . S
C748 C747 1.376 . S
C748 C749 1.388 . S
C749 H736 0.930 . S
C749 C748 1.388 . S
C749 C750 1.390 . S
C750 C749 1.390 . S
C750 C751 1.394 . S
C750 C756 1.465 . S
C751 C746 1.399 . S
C751 C750 1.394 . S
C751 C752 1.516 . S
C752 C751 1.516 . S
C752 C753 1.502 . S
C752 C754 1.561 . S
C752 C755 1.526 . S
C753 H737 0.959 . S
C753 H738 0.959 . S
C753 H739 0.961 . S
C753 C752 1.502 . S
C754 H740 0.960 . S
C754 H741 0.961 . S
C754 H742 0.959 . S
C754 C752 1.561 . S
C755 C752 1.526 . S
C755 C756 1.396 . S
C755 C760 1.390 . S
C756 C750 1.465 . S
C756 C755 1.396 . S
C756 C757 1.399 . S
C757 H743 0.929 . S
C757 C756 1.399 . S
C757 C758 1.385 . S
C758 H744 0.931 . S
C758 C757 1.385 . S
C758 C759 1.389 . S
C759 C758 1.389 . S
C759 C760 1.387 . S
C760 H745 0.930 . S
C760 C755 1.390 . S
C760 C759 1.387 . S
H761 C773 0.930 . S
H762 C775 0.930 . S
H763 C776 0.930 . S
H764 C780 0.959 . S
H765 C780 0.959 . S
H766 C780 0.961 . S
H767 C781 0.960 . S
H768 C781 0.961 . S
H769 C781 0.959 . S
H770 C784 0.929 . S
H771 C785 0.931 . S
H772 C787 0.930 . S
C773 H761 0.930 . S
C773 C774 1.399 . S
C773 C778 1.399 . S
C774 C773 1.399 . S
C774 C775 1.376 . S
C775 H762 0.930 . S
C775 C774 1.376 . S
C775 C776 1.388 . S
C776 H763 0.930 . S
C776 C775 1.388 . S
C776 C777 1.390 . S
C777 C776 1.390 . S
C777 C778 1.394 . S
C777 C783 1.465 . S
C778 C773 1.399 . S
C778 C777 1.394 . S
C778 C779 1.516 . S
C779 C778 1.516 . S
C779 C780 1.502 . S
C779 C781 1.561 . S
C779 C782 1.526 . S
C780 H764 0.959 . S
C780 H765 0.959 . S
C780 H766 0.961 . S
C780 C779 1.502 . S
C781 H767 0.960 . S
C781 H768 0.961 . S
C781 H769 0.959 . S
C781 C779 1.561 . S
C782 C779 1.526 . S
C782 C783 1.396 . S
C782 C787 1.390 . S
C783 C777 1.465 . S
C783 C782 1.396 . S
C783 C784 1.399 . S
C784 H770 0.929 . S
C784 C783 1.399 . S
C784 C785 1.385 . S
C785 H771 0.931 . S
C785 C784 1.385 . S
C785 C786 1.389 . S
C786 C785 1.389 . S
C786 C787 1.387 . S
C787 H772 0.930 . S
C787 C782 1.390 . S
C787 C786 1.387 . S
H788 C800 0.930 . S
H789 C802 0.930 . S
H790 C803 0.930 . S
H791 C807 0.959 . S
H792 C807 0.959 . S
H793 C807 0.961 . S
H794 C808 0.960 . S
H795 C808 0.961 . S
H796 C808 0.959 . S
H797 C811 0.929 . S
H798 C812 0.931 . S
H799 C814 0.931 1_455 S
C800 H788 0.930 . S
C800 C801 1.399 1_455 S
C800 C805 1.399 1_455 S
C801 C800 1.399 1_655 S
C801 C802 1.376 . S
C802 H789 0.930 . S
C802 C801 1.376 . S
C802 C803 1.388 . S
C803 H790 0.930 . S
C803 C802 1.388 . S
C803 C804 1.390 . S
C804 C803 1.390 . S
C804 C805 1.394 . S
C804 C810 1.465 . S
C805 C800 1.399 1_655 S
C805 C804 1.394 . S
C805 C806 1.515 1_655 S
C806 C805 1.515 1_455 S
C806 C807 1.511 . S
C806 C808 1.554 1_455 S
C806 C809 1.523 1_455 S
C807 H791 0.959 . S
C807 H792 0.959 . S
C807 H793 0.961 . S
C807 C806 1.511 . S
C808 H794 0.960 . S
C808 H795 0.961 . S
C808 H796 0.959 . S
C808 C806 1.554 1_655 S
C809 C806 1.523 1_655 S
C809 C810 1.396 . S
C809 C814 1.390 . S
C810 C804 1.465 . S
C810 C809 1.396 . S
C810 C811 1.399 . S
C811 H797 0.929 . S
C811 C810 1.399 . S
C811 C812 1.385 . S
C812 H798 0.931 . S
C812 C811 1.385 . S
C812 C813 1.389 . S
C813 C812 1.389 . S
C813 C814 1.387 . S
C814 H799 0.931 1_655 S
C814 C809 1.390 . S
C814 C813 1.387 . S
H815 C827 0.930 . S
H816 C829 0.930 . S
H817 C830 0.930 . S
H818 C834 0.959 1_565 S
H819 C834 0.959 . S
H820 C834 0.961 . S
H821 C835 0.960 . S
H822 C835 0.961 . S
H823 C835 0.959 . S
H824 C838 0.929 . S
H825 C839 0.931 . S
H826 C841 0.930 1_545 S
C827 H815 0.930 . S
C827 C828 1.399 1_545 S
C827 C832 1.399 . S
C828 C827 1.399 1_565 S
C828 C829 1.376 . S
C829 H816 0.930 . S
C829 C828 1.376 . S
C829 C830 1.388 . S
C830 H817 0.930 . S
C830 C829 1.388 . S
C830 C831 1.390 . S
C831 C830 1.390 . S
C831 C832 1.394 1_565 S
C831 C837 1.465 . S
C832 C827 1.399 . S
C832 C831 1.394 1_545 S
C832 C833 1.516 . S
C833 C832 1.516 . S
C833 C834 1.502 . S
C833 C835 1.561 . S
C833 C836 1.526 1_545 S
C834 H818 0.959 1_545 S
C834 H819 0.959 . S
C834 H820 0.961 . S
C834 C833 1.502 . S
C835 H821 0.960 . S
C835 H822 0.961 . S
C835 H823 0.959 . S
C835 C833 1.561 . S
C836 C833 1.526 1_565 S
C836 C837 1.396 . S
C836 C841 1.390 . S
C837 C831 1.465 . S
C837 C836 1.396 . S
C837 C838 1.399 . S
C838 H824 0.929 . S
C838 C837 1.399 . S
C838 C839 1.385 . S
C839 H825 0.931 . S
C839 C838 1.385 . S
C839 C840 1.389 . S
C840 C839 1.389 . S
C840 C841 1.386 . S
C841 H826 0.930 1_565 S
C841 C836 1.390 . S
C841 C840 1.386 . S
H842 C854 0.930 . S
H843 C856 0.930 . S
H844 C857 0.930 . S
H845 C861 0.959 . S
H846 C861 0.959 . S
H847 C861 0.961 . S
H848 C862 0.960 . S
H849 C862 0.961 . S
H850 C862 0.959 . S
H851 C865 0.929 . S
H852 C866 0.931 . S
H853 C868 0.930 . S
C854 H842 0.930 . S
C854 C855 1.399 . S
C854 C859 1.399 . S
C855 C854 1.399 . S
C855 C856 1.376 . S
C856 H843 0.930 . S
C856 C855 1.376 . S
C856 C857 1.388 . S
C857 H844 0.930 . S
C857 C856 1.388 . S
C857 C858 1.390 . S
C858 C857 1.390 . S
C858 C859 1.394 . S
C858 C864 1.465 . S
C859 C854 1.399 . S
C859 C858 1.394 . S
C859 C860 1.516 . S
C860 C859 1.516 . S
C860 C861 1.502 . S
C860 C862 1.561 . S
C860 C863 1.526 . S
C861 H845 0.959 . S
C861 H846 0.959 . S
C861 H847 0.961 . S
C861 C860 1.502 . S
C862 H848 0.960 . S
C862 H849 0.961 . S
C862 H850 0.959 . S
C862 C860 1.561 . S
C863 C860 1.526 . S
C863 C864 1.396 . S
C863 C868 1.390 . S
C864 C858 1.465 . S
C864 C863 1.396 . S
C864 C865 1.399 . S
C865 H851 0.929 . S
C865 C864 1.399 . S
C865 C866 1.385 . S
C866 H852 0.931 . S
C866 C865 1.385 . S
C866 C867 1.389 . S
C867 C866 1.389 . S
C867 C868 1.387 . S
C868 H853 0.930 . S
C868 C863 1.390 . S
C868 C867 1.387 . S
H869 C881 0.930 . S
H870 C883 0.930 . S
H871 C884 0.930 . S
H872 C888 0.959 . S
H873 C888 0.959 . S
H874 C888 0.961 . S
H875 C889 0.960 . S
H876 C889 0.961 . S
H877 C889 0.959 . S
H878 C892 0.929 . S
H879 C893 0.931 . S
H880 C895 0.930 . S
C881 H869 0.930 . S
C881 C882 1.399 . S
C881 C886 1.399 . S
C882 C881 1.399 . S
C882 C883 1.376 . S
C883 H870 0.930 . S
C883 C882 1.376 . S
C883 C884 1.388 . S
C884 H871 0.930 . S
C884 C883 1.388 . S
C884 C885 1.390 . S
C885 C884 1.390 . S
C885 C886 1.394 . S
C885 C891 1.465 . S
C886 C881 1.399 . S
C886 C885 1.394 . S
C886 C887 1.516 . S
C887 C886 1.516 . S
C887 C888 1.502 . S
C887 C889 1.561 . S
C887 C890 1.526 . S
C888 H872 0.959 . S
C888 H873 0.959 . S
C888 H874 0.961 . S
C888 C887 1.502 . S
C889 H875 0.960 . S
C889 H876 0.961 . S
C889 H877 0.959 . S
C889 C887 1.561 . S
C890 C887 1.526 . S
C890 C891 1.396 . S
C890 C895 1.390 . S
C891 C885 1.465 . S
C891 C890 1.396 . S
C891 C892 1.399 . S
C892 H878 0.929 . S
C892 C891 1.399 . S
C892 C893 1.385 . S
C893 H879 0.931 . S
C893 C892 1.385 . S
C893 C894 1.389 . S
C894 C893 1.389 . S
C894 C895 1.387 . S
C895 H880 0.930 . S
C895 C890 1.390 . S
C895 C894 1.387 . S
C261 C74 1.801 1_565 S
C273 C97 1.856 . S
C300 C137 1.886 . S
C288 C85 1.763 . S
C327 C177 1.870 . S
C315 C52 1.815 . S
C354 C217 1.877 1_455 S
C342 C63 1.785 . S
C381 C106 1.857 . S
C369 C30 1.740 . S
C396 C41 1.802 . S
C408 C146 1.877 . S
C423 C8 1.811 . S
C435 C186 1.887 . S
C450 C19 1.766 1_655 S
C462 C226 1.877 1_655 S
C489 C103 0.630 . S
C477 C62 0.602 1_655 S
C516 C143 0.668 . S
C504 C73 0.566 1_565 S
C543 C183 0.592 . S
C531 C84 0.564 . S
C558 C51 0.560 . S
C570 C223 0.616 . S
C585 C18 0.727 1_655 S
C597 C94 0.546 . S
C624 C134 0.631 . S
C612 C29 0.638 1_565 S
C651 C174 0.659 . S
C639 C40 0.526 . S
C666 C7 0.647 . S
C678 C214 0.562 . S
C693 C60 1.654 . S
C705 C107 2.239 . S
C720 C71 1.698 . S
C732 C147 2.246 . S
C759 C187 2.234 . S
C747 C82 1.630 . S
C786 C227 2.217 . S
C774 C49 1.733 . S
C801 C16 1.844 1_655 S
C813 C98 2.254 . S
C840 C138 2.240 . S
C828 C27 1.741 1_565 S
C867 C178 2.218 . S
C855 C38 1.716 . S
C882 C5 1.842 . S
C894 C218 2.245 . S
