# Generated by pormake.
# Topology tph, (6,8)-cn, num edge types: 1
# Building blocks:
#     Node 0, Type 0, BuildingBlock: IZENUY_clean_sbu_0, # of connection points: 6
#     Node 1, Type 0, BuildingBlock: IZENUY_clean_sbu_0, # of connection points: 6
#     Node 2, Type 0, BuildingBlock: IZENUY_clean_sbu_0, # of connection points: 6
#     Node 3, Type 0, BuildingBlock: IZENUY_clean_sbu_0, # of connection points: 6
#     Node 4, Type 0, BuildingBlock: IZENUY_clean_sbu_0, # of connection points: 6
#     Node 5, Type 0, BuildingBlock: IZENUY_clean_sbu_0, # of connection points: 6
#     Node 6, Type 0, BuildingBlock: IZENUY_clean_sbu_0, # of connection points: 6
#     Node 7, Type 0, BuildingBlock: IZENUY_clean_sbu_0, # of connection points: 6
#     Node 8, Type 0, BuildingBlock: IZENUY_clean_sbu_0, # of connection points: 6
#     Node 9, Type 0, BuildingBlock: IZENUY_clean_sbu_0, # of connection points: 6
#     Node 10, Type 0, BuildingBlock: IZENUY_clean_sbu_0, # of connection points: 6
#     Node 11, Type 0, BuildingBlock: IZENUY_clean_sbu_0, # of connection points: 6
#     Node 12, Type 0, BuildingBlock: IZENUY_clean_sbu_0, # of connection points: 6
#     Node 13, Type 0, BuildingBlock: IZENUY_clean_sbu_0, # of connection points: 6
#     Node 14, Type 0, BuildingBlock: IZENUY_clean_sbu_0, # of connection points: 6
#     Node 15, Type 0, BuildingBlock: IZENUY_clean_sbu_0, # of connection points: 6
#     Node 16, Type 1, BuildingBlock: TAGTUT_clean_sbu_3, # of connection points: 8
#     Node 17, Type 1, BuildingBlock: TAGTUT_clean_sbu_3, # of connection points: 8
#     Node 18, Type 1, BuildingBlock: TAGTUT_clean_sbu_3, # of connection points: 8
#     Node 19, Type 1, BuildingBlock: TAGTUT_clean_sbu_3, # of connection points: 8
#     Node 20, Type 1, BuildingBlock: TAGTUT_clean_sbu_3, # of connection points: 8
#     Node 21, Type 1, BuildingBlock: TAGTUT_clean_sbu_3, # of connection points: 8
#     Node 22, Type 1, BuildingBlock: TAGTUT_clean_sbu_3, # of connection points: 8
#     Node 23, Type 1, BuildingBlock: TAGTUT_clean_sbu_3, # of connection points: 8
#     Node 24, Type 1, BuildingBlock: TAGTUT_clean_sbu_3, # of connection points: 8
#     Node 25, Type 1, BuildingBlock: TAGTUT_clean_sbu_3, # of connection points: 8
#     Node 26, Type 1, BuildingBlock: TAGTUT_clean_sbu_3, # of connection points: 8
#     Node 27, Type 1, BuildingBlock: TAGTUT_clean_sbu_3, # of connection points: 8
#     Edge 28, Type (0, 1), BuildingBlock: ZUJKAS_clean_linker_0, # of connection points: 2
#     Edge 29, Type (0, 1), BuildingBlock: ZUJKAS_clean_linker_0, # of connection points: 2
#     Edge 30, Type (0, 1), BuildingBlock: ZUJKAS_clean_linker_0, # of connection points: 2
#     Edge 31, Type (0, 1), BuildingBlock: ZUJKAS_clean_linker_0, # of connection points: 2
#     Edge 32, Type (0, 1), BuildingBlock: ZUJKAS_clean_linker_0, # of connection points: 2
#     Edge 33, Type (0, 1), BuildingBlock: ZUJKAS_clean_linker_0, # of connection points: 2
#     Edge 34, Type (0, 1), BuildingBlock: ZUJKAS_clean_linker_0, # of connection points: 2
#     Edge 35, Type (0, 1), BuildingBlock: ZUJKAS_clean_linker_0, # of connection points: 2
#     Edge 36, Type (0, 1), BuildingBlock: ZUJKAS_clean_linker_0, # of connection points: 2
#     Edge 37, Type (0, 1), BuildingBlock: ZUJKAS_clean_linker_0, # of connection points: 2
#     Edge 38, Type (0, 1), BuildingBlock: ZUJKAS_clean_linker_0, # of connection points: 2
#     Edge 39, Type (0, 1), BuildingBlock: ZUJKAS_clean_linker_0, # of connection points: 2
#     Edge 40, Type (0, 1), BuildingBlock: ZUJKAS_clean_linker_0, # of connection points: 2
#     Edge 41, Type (0, 1), BuildingBlock: ZUJKAS_clean_linker_0, # of connection points: 2
#     Edge 42, Type (0, 1), BuildingBlock: ZUJKAS_clean_linker_0, # of connection points: 2
#     Edge 43, Type (0, 1), BuildingBlock: ZUJKAS_clean_linker_0, # of connection points: 2
#     Edge 44, Type (0, 1), BuildingBlock: ZUJKAS_clean_linker_0, # of connection points: 2
#     Edge 45, Type (0, 1), BuildingBlock: ZUJKAS_clean_linker_0, # of connection points: 2
#     Edge 46, Type (0, 1), BuildingBlock: ZUJKAS_clean_linker_0, # of connection points: 2
#     Edge 47, Type (0, 1), BuildingBlock: ZUJKAS_clean_linker_0, # of connection points: 2
#     Edge 48, Type (0, 1), BuildingBlock: ZUJKAS_clean_linker_0, # of connection points: 2
#     Edge 49, Type (0, 1), BuildingBlock: ZUJKAS_clean_linker_0, # of connection points: 2
#     Edge 50, Type (0, 1), BuildingBlock: ZUJKAS_clean_linker_0, # of connection points: 2
#     Edge 51, Type (0, 1), BuildingBlock: ZUJKAS_clean_linker_0, # of connection points: 2
#     Edge 52, Type (0, 1), BuildingBlock: ZUJKAS_clean_linker_0, # of connection points: 2
#     Edge 53, Type (0, 1), BuildingBlock: ZUJKAS_clean_linker_0, # of connection points: 2
#     Edge 54, Type (0, 1), BuildingBlock: ZUJKAS_clean_linker_0, # of connection points: 2
#     Edge 55, Type (0, 1), BuildingBlock: ZUJKAS_clean_linker_0, # of connection points: 2
#     Edge 56, Type (0, 1), BuildingBlock: ZUJKAS_clean_linker_0, # of connection points: 2
#     Edge 57, Type (0, 1), BuildingBlock: ZUJKAS_clean_linker_0, # of connection points: 2
#     Edge 58, Type (0, 1), BuildingBlock: ZUJKAS_clean_linker_0, # of connection points: 2
#     Edge 59, Type (0, 1), BuildingBlock: ZUJKAS_clean_linker_0, # of connection points: 2
#     Edge 60, Type (0, 1), BuildingBlock: ZUJKAS_clean_linker_0, # of connection points: 2
#     Edge 61, Type (0, 1), BuildingBlock: ZUJKAS_clean_linker_0, # of connection points: 2
#     Edge 62, Type (0, 1), BuildingBlock: ZUJKAS_clean_linker_0, # of connection points: 2
#     Edge 63, Type (0, 1), BuildingBlock: ZUJKAS_clean_linker_0, # of connection points: 2
#     Edge 64, Type (0, 1), BuildingBlock: ZUJKAS_clean_linker_0, # of connection points: 2
#     Edge 65, Type (0, 1), BuildingBlock: ZUJKAS_clean_linker_0, # of connection points: 2
#     Edge 66, Type (0, 1), BuildingBlock: ZUJKAS_clean_linker_0, # of connection points: 2
#     Edge 67, Type (0, 1), BuildingBlock: ZUJKAS_clean_linker_0, # of connection points: 2
#     Edge 68, Type (0, 1), BuildingBlock: ZUJKAS_clean_linker_0, # of connection points: 2
#     Edge 69, Type (0, 1), BuildingBlock: ZUJKAS_clean_linker_0, # of connection points: 2
#     Edge 70, Type (0, 1), BuildingBlock: ZUJKAS_clean_linker_0, # of connection points: 2
#     Edge 71, Type (0, 1), BuildingBlock: ZUJKAS_clean_linker_0, # of connection points: 2
#     Edge 72, Type (0, 1), BuildingBlock: ZUJKAS_clean_linker_0, # of connection points: 2
#     Edge 73, Type (0, 1), BuildingBlock: ZUJKAS_clean_linker_0, # of connection points: 2
#     Edge 74, Type (0, 1), BuildingBlock: ZUJKAS_clean_linker_0, # of connection points: 2
#     Edge 75, Type (0, 1), BuildingBlock: ZUJKAS_clean_linker_0, # of connection points: 2
#     Edge 76, Type (0, 1), BuildingBlock: ZUJKAS_clean_linker_0, # of connection points: 2
#     Edge 77, Type (0, 1), BuildingBlock: ZUJKAS_clean_linker_0, # of connection points: 2
#     Edge 78, Type (0, 1), BuildingBlock: ZUJKAS_clean_linker_0, # of connection points: 2
#     Edge 79, Type (0, 1), BuildingBlock: ZUJKAS_clean_linker_0, # of connection points: 2
#     Edge 80, Type (0, 1), BuildingBlock: ZUJKAS_clean_linker_0, # of connection points: 2
#     Edge 81, Type (0, 1), BuildingBlock: ZUJKAS_clean_linker_0, # of connection points: 2
#     Edge 82, Type (0, 1), BuildingBlock: ZUJKAS_clean_linker_0, # of connection points: 2
#     Edge 83, Type (0, 1), BuildingBlock: ZUJKAS_clean_linker_0, # of connection points: 2
#     Edge 84, Type (0, 1), BuildingBlock: ZUJKAS_clean_linker_0, # of connection points: 2
#     Edge 85, Type (0, 1), BuildingBlock: ZUJKAS_clean_linker_0, # of connection points: 2
#     Edge 86, Type (0, 1), BuildingBlock: ZUJKAS_clean_linker_0, # of connection points: 2
#     Edge 87, Type (0, 1), BuildingBlock: ZUJKAS_clean_linker_0, # of connection points: 2
#     Edge 88, Type (0, 1), BuildingBlock: ZUJKAS_clean_linker_0, # of connection points: 2
#     Edge 89, Type (0, 1), BuildingBlock: ZUJKAS_clean_linker_0, # of connection points: 2
#     Edge 90, Type (0, 1), BuildingBlock: ZUJKAS_clean_linker_0, # of connection points: 2
#     Edge 91, Type (0, 1), BuildingBlock: ZUJKAS_clean_linker_0, # of connection points: 2
#     Edge 92, Type (0, 1), BuildingBlock: ZUJKAS_clean_linker_0, # of connection points: 2
#     Edge 93, Type (0, 1), BuildingBlock: ZUJKAS_clean_linker_0, # of connection points: 2
#     Edge 94, Type (0, 1), BuildingBlock: ZUJKAS_clean_linker_0, # of connection points: 2
#     Edge 95, Type (0, 1), BuildingBlock: ZUJKAS_clean_linker_0, # of connection points: 2
#     Edge 96, Type (0, 1), BuildingBlock: ZUJKAS_clean_linker_0, # of connection points: 2
#     Edge 97, Type (0, 1), BuildingBlock: ZUJKAS_clean_linker_0, # of connection points: 2
#     Edge 98, Type (0, 1), BuildingBlock: ZUJKAS_clean_linker_0, # of connection points: 2
#     Edge 99, Type (0, 1), BuildingBlock: ZUJKAS_clean_linker_0, # of connection points: 2
#     Edge 100, Type (0, 1), BuildingBlock: ZUJKAS_clean_linker_0, # of connection points: 2
#     Edge 101, Type (0, 1), BuildingBlock: ZUJKAS_clean_linker_0, # of connection points: 2
#     Edge 102, Type (0, 1), BuildingBlock: ZUJKAS_clean_linker_0, # of connection points: 2
#     Edge 103, Type (0, 1), BuildingBlock: ZUJKAS_clean_linker_0, # of connection points: 2
#     Edge 104, Type (0, 1), BuildingBlock: ZUJKAS_clean_linker_0, # of connection points: 2
#     Edge 105, Type (0, 1), BuildingBlock: ZUJKAS_clean_linker_0, # of connection points: 2
#     Edge 106, Type (0, 1), BuildingBlock: ZUJKAS_clean_linker_0, # of connection points: 2
#     Edge 107, Type (0, 1), BuildingBlock: ZUJKAS_clean_linker_0, # of connection points: 2
#     Edge 108, Type (0, 1), BuildingBlock: ZUJKAS_clean_linker_0, # of connection points: 2
#     Edge 109, Type (0, 1), BuildingBlock: ZUJKAS_clean_linker_0, # of connection points: 2
#     Edge 110, Type (0, 1), BuildingBlock: ZUJKAS_clean_linker_0, # of connection points: 2
#     Edge 111, Type (0, 1), BuildingBlock: ZUJKAS_clean_linker_0, # of connection points: 2
#     Edge 112, Type (0, 1), BuildingBlock: ZUJKAS_clean_linker_0, # of connection points: 2
#     Edge 113, Type (0, 1), BuildingBlock: ZUJKAS_clean_linker_0, # of connection points: 2
#     Edge 114, Type (0, 1), BuildingBlock: ZUJKAS_clean_linker_0, # of connection points: 2
#     Edge 115, Type (0, 1), BuildingBlock: ZUJKAS_clean_linker_0, # of connection points: 2
#     Edge 116, Type (0, 1), BuildingBlock: ZUJKAS_clean_linker_0, # of connection points: 2
#     Edge 117, Type (0, 1), BuildingBlock: ZUJKAS_clean_linker_0, # of connection points: 2
#     Edge 118, Type (0, 1), BuildingBlock: ZUJKAS_clean_linker_0, # of connection points: 2
#     Edge 119, Type (0, 1), BuildingBlock: ZUJKAS_clean_linker_0, # of connection points: 2
#     Edge 120, Type (0, 1), BuildingBlock: ZUJKAS_clean_linker_0, # of connection points: 2
#     Edge 121, Type (0, 1), BuildingBlock: ZUJKAS_clean_linker_0, # of connection points: 2
#     Edge 122, Type (0, 1), BuildingBlock: ZUJKAS_clean_linker_0, # of connection points: 2
#     Edge 123, Type (0, 1), BuildingBlock: ZUJKAS_clean_linker_0, # of connection points: 2
# Relax obj value: 0.177
# Max RMSD: 0.260
# Mean RMSD: 0.252
data_MOF--net-tph--node1-IZENUY_clean_sbu_0--node2-TAGTUT_clean_sbu_3--edge1-ZUJKAS_clean_linker_0
_symmetry_space_group_name_H-M    P1
_symmetry_Int_Tables_number       1
_symmetry_cell_setting            triclinic
loop_
_symmetry_equiv_pos_as_xyz
'x, y, z'
_cell_length_a     60.074745
_cell_length_b     60.073431
_cell_length_c     60.092097
_cell_angle_alpha  89.495326
_cell_angle_beta   89.992905
_cell_angle_gamma 89.55365
loop_
_atom_site_label
_atom_site_type_symbol
_atom_site_fract_x
_atom_site_fract_y
_atom_site_fract_z
_atom_type_partial_charge
Fe0 Fe 0.19127 0.19782 0.16104 0.0
Fe1 Fe 0.16099 0.20023 0.20178 0.0
O2 O 0.1825 0.1868 0.18688 0.0
Fe3 Fe 0.19506 0.16231 0.1977 0.0
O4 O 0.1867 0.1465 0.17377 0.0
O5 O 0.19839 0.17057 0.14879 0.0
O6 O 0.16389 0.19454 0.14933 0.0
C7 C 0.14658 0.20352 0.15704 0.0
C8 C 0.23127 0.18584 0.17817 0.0
O9 O 0.14613 0.2106 0.17685 0.0
C10 C 0.19098 0.18606 0.23577 0.0
O11 O 0.18579 0.22714 0.16848 0.0
O12 O 0.17702 0.22534 0.20392 0.0
O13 O 0.22273 0.16799 0.18561 0.0
O14 O 0.2191 0.2016 0.1713 0.0
C15 C 0.14932 0.15691 0.20757 0.0
O16 O 0.17178 0.1923 0.22942 0.0
O17 O 0.20411 0.17651 0.22248 0.0
C18 C 0.18371 0.23634 0.18732 0.0
O19 O 0.14377 0.17591 0.20039 0.0
O20 O 0.16957 0.15213 0.21143 0.0
C21 C 0.19215 0.1511 0.15404 0.0
Fe22 Fe 0.44751 0.56291 0.09686 0.0
Fe23 Fe 0.4433 0.59777 0.05958 0.0
O24 O 0.43192 0.57548 0.07511 0.0
Fe25 Fe 0.40479 0.56596 0.0694 0.0
O26 O 0.39569 0.57282 0.09708 0.0
O27 O 0.42309 0.55553 0.11416 0.0
O28 O 0.44825 0.58877 0.11173 0.0
C29 C 0.4553 0.60691 0.10386 0.0
C30 C 0.42978 0.52627 0.07798 0.0
O31 O 0.45894 0.60923 0.08318 0.0
C32 C 0.4198 0.57262 0.02725 0.0
O33 O 0.47483 0.56814 0.08396 0.0
O34 O 0.46672 0.58087 0.0506 0.0
O35 O 0.41117 0.53653 0.07707 0.0
O36 O 0.44736 0.53647 0.08286 0.0
C37 C 0.40061 0.61287 0.06528 0.0
O38 O 0.42914 0.59043 0.03342 0.0
O39 O 0.41226 0.55893 0.04129 0.0
C40 C 0.4805 0.57223 0.06401 0.0
O41 O 0.42108 0.61619 0.06779 0.0
O42 O 0.39352 0.59355 0.06086 0.0
C43 C 0.40423 0.5651 0.11461 0.0
Fe44 Fe 0.7949 0.30373 0.14982 0.0
Fe45 Fe 0.83376 0.30113 0.18271 0.0
O46 O 0.81003 0.3151 0.17214 0.0
Fe47 Fe 0.80125 0.34041 0.1839 0.0
O48 O 0.80495 0.3548 0.1578 0.0
O49 O 0.78573 0.33109 0.13819 0.0
O50 O 0.81883 0.30546 0.1318 0.0
C51 C 0.83698 0.29549 0.13567 0.0
C52 C 0.76073 0.31791 0.17564 0.0
O53 O 0.84207 0.28937 0.15538 0.0
C54 C 0.81263 0.31831 0.22164 0.0
O55 O 0.80126 0.27433 0.1573 0.0
O56 O 0.81747 0.27699 0.18987 0.0
O57 O 0.77133 0.3358 0.17876 0.0
O58 O 0.7702 0.30142 0.16678 0.0
C59 C 0.84845 0.34366 0.18405 0.0
O60 O 0.82974 0.3106 0.21181 0.0
O61 O 0.79717 0.32736 0.21063 0.0
C62 C 0.80722 0.26563 0.17573 0.0
O63 O 0.85146 0.32446 0.17632 0.0
O64 O 0.82948 0.34966 0.1912 0.0
C65 C 0.7941 0.35029 0.14056 0.0
Fe66 Fe 0.55863 0.92922 0.10443 0.0
Fe67 Fe 0.57284 0.89635 0.06814 0.0
O68 O 0.57663 0.92169 0.08236 0.0
Fe69 Fe 0.59901 0.93923 0.07498 0.0
O70 O 0.61102 0.93597 0.10225 0.0
O71 O 0.58033 0.94326 0.12077 0.0
O72 O 0.56603 0.90457 0.11996 0.0
C73 C 0.56508 0.88493 0.11313 0.0
C74 C 0.5641 0.96991 0.08576 0.0
O75 O 0.5624 0.88073 0.09267 0.0
C76 C 0.58528 0.92726 0.03384 0.0
O77 O 0.53383 0.91607 0.09219 0.0
O78 O 0.5452 0.90435 0.05947 0.0
O79 O 0.58452 0.9652 0.08279 0.0
O80 O 0.55042 0.95478 0.09047 0.0
C81 C 0.61801 0.8963 0.072 0.0
O82 O 0.58294 0.90741 0.04105 0.0
O83 O 0.58819 0.94307 0.04718 0.0
C84 C 0.52968 0.90938 0.07264 0.0
O85 O 0.60005 0.88657 0.0762 0.0
O86 O 0.61795 0.9166 0.06611 0.0
C87 C 0.60122 0.94015 0.12027 0.0
Fe88 Fe 0.18861 0.84451 0.29549 0.0
Fe89 Fe 0.1857 0.81019 0.33336 0.0
O90 O 0.17541 0.82147 0.30817 0.0
Fe91 Fe 0.15177 0.80966 0.29571 0.0
O92 O 0.13656 0.83536 0.29818 0.0
O93 O 0.16252 0.85656 0.28359 0.0
O94 O 0.18376 0.86159 0.31957 0.0
C95 C 0.19076 0.85683 0.3388 0.0
C96 C 0.17948 0.82017 0.25882 0.0
O97 O 0.19588 0.83694 0.34406 0.0
C98 C 0.17237 0.77189 0.30919 0.0
O99 O 0.21692 0.83661 0.30535 0.0
O100 O 0.21212 0.80366 0.32069 0.0
O101 O 0.16043 0.81605 0.26691 0.0
O102 O 0.19434 0.82885 0.27063 0.0
C103 C 0.14148 0.80822 0.34178 0.0
O104 O 0.17716 0.78133 0.32737 0.0
O105 O 0.16578 0.78325 0.29275 0.0
C106 C 0.22483 0.81823 0.31265 0.0
O107 O 0.15991 0.8162 0.34744 0.0
O108 O 0.13861 0.8011 0.32219 0.0
C109 C 0.14244 0.8535 0.28953 0.0
Fe110 Fe 0.10369 0.56003 0.93617 0.0
Fe111 Fe 0.06841 0.56831 0.90014 0.0
O112 O 0.08206 0.57671 0.92468 0.0
Fe113 Fe 0.07456 0.60203 0.93753 0.0
O114 O 0.10216 0.61274 0.93365 0.0
O115 O 0.11959 0.58355 0.94742 0.0
O116 O 0.1201 0.56327 0.91139 0.0
C117 C 0.11373 0.55883 0.89205 0.0
C118 C 0.08258 0.57219 0.97415 0.0
O119 O 0.09342 0.55512 0.88776 0.0
C120 C 0.03352 0.58704 0.92657 0.0
O121 O 0.09213 0.5334 0.92651 0.0
O122 O 0.05936 0.54269 0.91309 0.0
O123 O 0.08078 0.59184 0.96615 0.0
O124 O 0.08841 0.55625 0.96185 0.0
C125 C 0.07295 0.61268 0.89138 0.0
O126 O 0.04111 0.5806 0.90793 0.0
O127 O 0.04647 0.59279 0.94191 0.0
C128 C 0.0727 0.52808 0.92036 0.0
O129 O 0.07682 0.59302 0.88556 0.0
O130 O 0.06708 0.6169 0.91123 0.0
C131 C 0.11973 0.60359 0.94065 0.0
Fe132 Fe 0.80784 0.65441 0.31134 0.0
Fe133 Fe 0.84366 0.6899 0.31431 0.0
O134 O 0.81881 0.67809 0.3243 0.0
Fe135 Fe 0.80491 0.68991 0.3472 0.0
O136 O 0.78038 0.6954 0.33066 0.0
O137 O 0.77826 0.66159 0.31736 0.0
O138 O 0.80464 0.66936 0.28544 0.0
C139 C 0.82094 0.677 0.27476 0.0
C140 C 0.80059 0.64325 0.35435 0.0
O141 O 0.8388 0.68203 0.28487 0.0
C142 C 0.84745 0.69362 0.36146 0.0
O143 O 0.83541 0.64284 0.30293 0.0
O144 O 0.85898 0.66456 0.32002 0.0
O145 O 0.79378 0.66303 0.35773 0.0
O146 O 0.8106 0.63839 0.33663 0.0
C147 C 0.82072 0.72768 0.32284 0.0
O148 O 0.85299 0.69982 0.34195 0.0
O149 O 0.82869 0.68508 0.36496 0.0
C150 C 0.8548 0.64647 0.31055 0.0
O151 O 0.82966 0.71583 0.30811 0.0
O152 O 0.81369 0.71884 0.3408 0.0
C153 C 0.76915 0.68022 0.32183 0.0
Fe154 Fe 0.9028 0.93809 0.94121 0.0
Fe155 Fe 0.93861 0.93749 0.90495 0.0
O156 O 0.92771 0.92693 0.93021 0.0
Fe157 Fe 0.94165 0.9048 0.94405 0.0
O158 O 0.91805 0.88714 0.94104 0.0
O159 O 0.8927 0.91103 0.95245 0.0
O160 O 0.88759 0.93128 0.91653 0.0
C161 C 0.89215 0.93761 0.89713 0.0
C162 C 0.92618 0.93179 0.97956 0.0
O163 O 0.91123 0.94543 0.89271 0.0
C164 C 0.97736 0.92867 0.93121 0.0
O165 O 0.90864 0.96695 0.93142 0.0
O166 O 0.94237 0.96454 0.91702 0.0
O167 O 0.93316 0.91327 0.97226 0.0
O168 O 0.91634 0.94542 0.96688 0.0
C169 C 0.94323 0.89293 0.8992 0.0
O170 O 0.9681 0.93137 0.91231 0.0
O171 O 0.96626 0.92143 0.94747 0.0
C172 C 0.92696 0.97588 0.9257 0.0
O173 O 0.93496 0.91087 0.89196 0.0
O174 O 0.95219 0.89188 0.91827 0.0
C175 C 0.89836 0.89145 0.94666 0.0
Fe176 Fe 0.40217 0.43952 0.44035 0.0
Fe177 Fe 0.4367 0.43431 0.40306 0.0
O178 O 0.42541 0.42554 0.42884 0.0
Fe179 Fe 0.43719 0.40235 0.44302 0.0
O180 O 0.41171 0.38717 0.4405 0.0
O181 O 0.38991 0.41401 0.4528 0.0
O182 O 0.38542 0.43359 0.41647 0.0
C183 C 0.39002 0.43791 0.39652 0.0
C184 C 0.42575 0.43161 0.47807 0.0
O185 O 0.40964 0.44344 0.39093 0.0
C186 C 0.47483 0.42312 0.42955 0.0
O187 O 0.41004 0.46733 0.42948 0.0
O188 O 0.4426 0.46166 0.41368 0.0
O189 O 0.42982 0.41215 0.4711 0.0
O190 O 0.41755 0.44617 0.46525 0.0
C191 C 0.43842 0.38925 0.39826 0.0
O192 O 0.46575 0.42652 0.41064 0.0
O193 O 0.46342 0.41645 0.44589 0.0
C194 C 0.42848 0.47465 0.42219 0.0
O195 O 0.43129 0.40759 0.39082 0.0
O196 O 0.44644 0.38787 0.41771 0.0
C197 C 0.39302 0.39391 0.44708 0.0
Fe198 Fe 0.29606 0.8043 0.65188 0.0
Fe199 Fe 0.30054 0.84013 0.68724 0.0
O200 O 0.31052 0.81568 0.67463 0.0
Fe201 Fe 0.33491 0.8026 0.68483 0.0
O202 O 0.31978 0.7776 0.69148 0.0
O203 O 0.30342 0.77499 0.65891 0.0
O204 O 0.27129 0.8006 0.66839 0.0
C205 C 0.26105 0.81633 0.67771 0.0
C206 C 0.33843 0.79786 0.63772 0.0
O207 O 0.27088 0.83445 0.68181 0.0
C208 C 0.34752 0.8457 0.68735 0.0
O209 O 0.28611 0.83161 0.6408 0.0
O210 O 0.30363 0.85561 0.66171 0.0
O211 O 0.34373 0.79165 0.65733 0.0
O212 O 0.32002 0.80736 0.63409 0.0
C213 C 0.31312 0.81772 0.72427 0.0
O214 O 0.32835 0.85036 0.69494 0.0
O215 O 0.35136 0.82697 0.6788 0.0
C216 C 0.29368 0.85103 0.64396 0.0
O217 O 0.29704 0.82592 0.71349 0.0
O218 O 0.33057 0.81127 0.71414 0.0
C219 C 0.30968 0.7662 0.67723 0.0
Fe220 Fe 0.07003 0.39821 0.56844 0.0
Fe221 Fe 0.0983 0.44004 0.57352 0.0
O222 O 0.07561 0.4235 0.58212 0.0
Fe223 Fe 0.05901 0.432 0.60489 0.0
O224 O 0.06646 0.40736 0.62043 0.0
O225 O 0.06019 0.38337 0.59376 0.0
O226 O 0.09722 0.38732 0.57523 0.0
C227 C 0.11537 0.39633 0.57021 0.0
C228 C 0.02768 0.41287 0.57505 0.0
O229 O 0.11589 0.41659 0.56423 0.0
C230 C 0.06503 0.47212 0.58521 0.0
O231 O 0.07932 0.40848 0.54076 0.0
O232 O 0.08645 0.44394 0.54611 0.0
O233 O 0.03321 0.41938 0.5943 0.0
O234 O 0.04228 0.40737 0.56104 0.0
C235 C 0.10258 0.44166 0.61863 0.0
O236 O 0.08514 0.4666 0.58156 0.0
O237 O 0.05098 0.4576 0.5908 0.0
C238 C 0.0824 0.42807 0.53314 0.0
O239 O 0.11142 0.43671 0.60032 0.0
O240 O 0.08187 0.44563 0.61987 0.0
C241 C 0.06434 0.38769 0.61397 0.0
Fe242 Fe 0.94721 0.06751 0.59639 0.0
Fe243 Fe 0.94522 0.10013 0.55709 0.0
O244 O 0.93297 0.07853 0.57298 0.0
Fe245 Fe 0.9064 0.06844 0.56606 0.0
O246 O 0.89542 0.07601 0.59288 0.0
O247 O 0.92199 0.06025 0.61242 0.0
O248 O 0.94597 0.09427 0.60962 0.0
C249 C 0.95346 0.11191 0.60112 0.0
C250 C 0.93167 0.02954 0.57803 0.0
O251 O 0.95961 0.11266 0.58097 0.0
C252 C 0.92339 0.07391 0.52454 0.0
O253 O 0.97524 0.07278 0.58498 0.0
O254 O 0.96894 0.0826 0.55027 0.0
O255 O 0.91301 0.03937 0.57491 0.0
O256 O 0.94857 0.04033 0.58401 0.0
C257 C 0.90223 0.11521 0.56044 0.0
O258 O 0.93239 0.09191 0.53055 0.0
O259 O 0.91554 0.06055 0.53867 0.0
C260 C 0.98195 0.07509 0.56506 0.0
O261 O 0.92261 0.11881 0.56331 0.0
O262 O 0.89535 0.09574 0.55621 0.0
C263 C 0.90293 0.06926 0.61123 0.0
Fe264 Fe 0.6947 0.69785 0.66047 0.0
Fe265 Fe 0.69723 0.66257 0.69751 0.0
O266 O 0.68539 0.68729 0.68634 0.0
Fe267 Fe 0.66412 0.7015 0.70096 0.0
O268 O 0.68085 0.72614 0.70294 0.0
O269 O 0.68998 0.72741 0.6676 0.0
O270 O 0.72265 0.70088 0.67082 0.0
C271 C 0.73425 0.68479 0.67792 0.0
C272 C 0.65018 0.70468 0.65604 0.0
O273 O 0.72509 0.66743 0.6857 0.0
C274 C 0.65127 0.6586 0.70717 0.0
O275 O 0.70105 0.67033 0.64846 0.0
O276 O 0.68889 0.64667 0.67364 0.0
O277 O 0.64969 0.71197 0.67577 0.0
O278 O 0.66735 0.69521 0.64862 0.0
C279 C 0.6934 0.68681 0.73534 0.0
O280 O 0.67136 0.65314 0.71094 0.0
O281 O 0.64621 0.67768 0.69987 0.0
C282 C 0.69457 0.65099 0.65392 0.0
O283 O 0.70636 0.67676 0.72227 0.0
O284 O 0.67447 0.6936 0.72876 0.0
C285 C 0.6879 0.73685 0.68631 0.0
Fe286 Fe 0.68939 0.34098 0.79263 0.0
Fe287 Fe 0.68507 0.30947 0.83269 0.0
O288 O 0.67504 0.31968 0.80697 0.0
Fe289 Fe 0.65046 0.30863 0.79563 0.0
O290 O 0.63694 0.33536 0.79675 0.0
O291 O 0.66385 0.35376 0.78022 0.0
O292 O 0.68594 0.35994 0.81552 0.0
C293 C 0.69273 0.356 0.83501 0.0
C294 C 0.67807 0.31524 0.7577 0.0
O295 O 0.69684 0.33624 0.8415 0.0
C296 C 0.66908 0.27057 0.81115 0.0
O297 O 0.71732 0.33216 0.80271 0.0
O298 O 0.71097 0.30062 0.82026 0.0
O299 O 0.65895 0.31284 0.76636 0.0
O300 O 0.69377 0.32324 0.7689 0.0
C301 C 0.64085 0.311 0.84163 0.0
O302 O 0.67482 0.28083 0.82861 0.0
O303 O 0.66272 0.28123 0.79414 0.0
C304 C 0.72435 0.31395 0.81119 0.0
O305 O 0.65988 0.31794 0.8466 0.0
O306 O 0.63727 0.30251 0.82275 0.0
C307 C 0.64373 0.35242 0.78667 0.0
Fe308 Fe 0.60167 0.06076 0.43857 0.0
Fe309 Fe 0.5701 0.07171 0.39973 0.0
O310 O 0.58154 0.07836 0.42589 0.0
Fe311 Fe 0.57308 0.10308 0.43936 0.0
O312 O 0.60084 0.11381 0.43767 0.0
O313 O 0.61718 0.08384 0.45145 0.0
O314 O 0.62026 0.06394 0.41549 0.0
C315 C 0.61584 0.06077 0.39534 0.0
C316 C 0.57836 0.07229 0.47535 0.0
O317 O 0.59588 0.05885 0.38873 0.0
C318 C 0.53326 0.08835 0.42478 0.0
O319 O 0.59018 0.03478 0.42729 0.0
O320 O 0.5596 0.0455 0.41003 0.0
O321 O 0.57774 0.09214 0.46792 0.0
O322 O 0.58423 0.0566 0.46282 0.0
C323 C 0.57515 0.1163 0.39418 0.0
O324 O 0.54228 0.08383 0.40615 0.0
O325 O 0.54495 0.09327 0.44142 0.0
C326 C 0.57146 0.03036 0.41867 0.0
O327 O 0.58017 0.09719 0.38757 0.0
O328 O 0.56693 0.11902 0.41341 0.0
C329 C 0.61791 0.10414 0.44533 0.0
Fe330 Fe 0.30853 0.1537 0.81253 0.0
Fe331 Fe 0.34459 0.18895 0.81523 0.0
O332 O 0.31953 0.17755 0.82515 0.0
Fe333 Fe 0.30547 0.18991 0.84767 0.0
O334 O 0.2811 0.1952 0.83082 0.0
O335 O 0.27891 0.16114 0.8182 0.0
O336 O 0.30564 0.16818 0.78632 0.0
C337 C 0.32208 0.17567 0.77571 0.0
C338 C 0.30096 0.14345 0.8557 0.0
O339 O 0.33991 0.18064 0.78589 0.0
C340 C 0.3479 0.19351 0.86233 0.0
O341 O 0.33609 0.14182 0.80453 0.0
O342 O 0.35965 0.16359 0.82154 0.0
O343 O 0.29413 0.16329 0.85862 0.0
O344 O 0.31101 0.13817 0.83813 0.0
C345 C 0.32164 0.22702 0.82264 0.0
O346 O 0.35372 0.19934 0.8428 0.0
O347 O 0.32901 0.18525 0.86576 0.0
C348 C 0.35545 0.14541 0.81223 0.0
O349 O 0.33087 0.21483 0.80838 0.0
O350 O 0.31446 0.21869 0.84078 0.0
C351 C 0.26982 0.17986 0.82234 0.0
C352 C 0.04323 0.22449 0.88329 0.0
C353 C 0.0186 0.24788 0.96505 0.0
C354 C 0.95323 0.24373 0.93972 0.0
Mg355 Mg 0.01734 0.23151 0.83709 0.0
Mg356 Mg 0.98363 0.27389 0.82859 0.0
O357 O 0.99018 0.24898 0.8462 0.0
Mg358 Mg 0.99693 0.25293 0.87848 0.0
O359 O 0.00531 0.25404 0.91069 0.0
Mg360 Mg 0.00158 0.22172 0.91903 0.0
Mg361 Mg 0.99135 0.2744 0.92932 0.0
C362 C 0.95024 0.2813 0.86881 0.0
O363 O 0.00807 0.29 0.87559 0.0
O364 O 0.99986 0.227 0.80342 0.0
O365 O 0.99726 0.30358 0.90894 0.0
O366 O 0.03495 0.26218 0.821 0.0
O367 O 0.97651 0.25611 0.79838 0.0
O368 O 0.01327 0.29231 0.82273 0.0
O369 O 0.9861 0.21697 0.88426 0.0
O370 O 0.99903 0.20154 0.85311 0.0
C371 C 0.98882 0.19995 0.87183 0.0
C372 C 0.98534 0.2378 0.79181 0.0
O373 O 0.96086 0.2677 0.88184 0.0
O374 O 0.01731 0.23046 0.95285 0.0
O375 O 0.9574 0.28697 0.84944 0.0
O376 O 0.96686 0.22765 0.93599 0.0
O377 O 0.01012 0.2667 0.95915 0.0
O378 O 0.95812 0.26376 0.93479 0.0
O379 O 0.03152 0.23845 0.87197 0.0
O380 O 0.03604 0.21662 0.90188 0.0
C381 C 0.03161 0.28299 0.81742 0.0
C382 C 0.00488 0.30626 0.88913 0.0
C383 C 0.54292 0.7249 0.38327 0.0
C384 C 0.51989 0.75008 0.46436 0.0
C385 C 0.45383 0.74586 0.44056 0.0
Mg386 Mg 0.51705 0.73137 0.33715 0.0
Mg387 Mg 0.48383 0.77392 0.32811 0.0
O388 O 0.48985 0.74899 0.34595 0.0
Mg389 Mg 0.49675 0.75346 0.37816 0.0
O390 O 0.50528 0.75512 0.41028 0.0
Mg391 Mg 0.50158 0.72298 0.41932 0.0
Mg392 Mg 0.49203 0.77607 0.42878 0.0
C393 C 0.45058 0.7824 0.36823 0.0
O394 O 0.50812 0.79039 0.3745 0.0
O395 O 0.49968 0.7266 0.30341 0.0
O396 O 0.49769 0.80482 0.40766 0.0
O397 O 0.53482 0.76168 0.32066 0.0
O398 O 0.47696 0.75612 0.29783 0.0
O399 O 0.51364 0.79213 0.32229 0.0
O400 O 0.48574 0.71755 0.38468 0.0
O401 O 0.4989 0.70168 0.35383 0.0
C402 C 0.4887 0.70029 0.37257 0.0
C403 C 0.48557 0.73762 0.29149 0.0
O404 O 0.46089 0.76871 0.38141 0.0
O405 O 0.51799 0.7324 0.45264 0.0
O406 O 0.4578 0.78767 0.34878 0.0
O407 O 0.46714 0.72956 0.43668 0.0
O408 O 0.51154 0.76889 0.45826 0.0
O409 O 0.45889 0.76579 0.43535 0.0
O410 O 0.53121 0.73874 0.37184 0.0
O411 O 0.53582 0.71732 0.402 0.0
C412 C 0.53181 0.78251 0.31695 0.0
C413 C 0.50509 0.80694 0.38771 0.0
C414 C 0.98105 0.80306 0.62911 0.0
C415 C 0.97098 0.76715 0.70888 0.0
C416 C 0.02446 0.72517 0.69109 0.0
Mg417 Mg 0.99989 0.78154 0.58409 0.0
Mg418 Mg 0.99679 0.72817 0.57436 0.0
O419 O 0.00694 0.74994 0.59361 0.0
Mg420 Mg 0.99487 0.75075 0.6247 0.0
O421 O 0.98387 0.75453 0.65594 0.0
Mg422 Mg 0.00786 0.77449 0.66755 0.0
Mg423 Mg 0.97724 0.72984 0.67377 0.0
C424 C 0.00862 0.6981 0.61645 0.0
O425 O 0.96217 0.7325 0.61714 0.0
O426 O 0.01923 0.77394 0.55184 0.0
O427 O 0.9567 0.71332 0.6493 0.0
O428 O 0.96751 0.77213 0.5645 0.0
O429 O 0.01683 0.73711 0.54581 0.0
O430 O 0.96307 0.73538 0.56635 0.0
O431 O 0.02644 0.76834 0.63457 0.0
O432 O 0.03184 0.78962 0.60428 0.0
C433 C 0.03767 0.78295 0.62385 0.0
C434 C 0.02344 0.75661 0.54012 0.0
O435 O 0.00909 0.71471 0.62989 0.0
O436 O 0.98611 0.77828 0.69869 0.0
O437 O 0.00314 0.69991 0.59586 0.0
O438 O 0.02652 0.74593 0.68659 0.0
O439 O 0.96429 0.74815 0.70204 0.0
O440 O 0.0075 0.71436 0.68466 0.0
O441 O 0.98095 0.78555 0.61706 0.0
O442 O 0.98922 0.80251 0.64882 0.0
C443 C 0.95615 0.75463 0.56052 0.0
C444 C 0.9521 0.71758 0.62879 0.0
C445 C 0.86632 0.98645 0.20198 0.0
C446 C 0.78635 0.98369 0.24343 0.0
C447 C 0.81368 0.0338 0.28261 0.0
Mg448 Mg 0.91312 0.00243 0.22229 0.0
Mg449 Mg 0.92429 0.99535 0.27537 0.0
O450 O 0.90501 0.00772 0.25436 0.0
Mg451 Mg 0.87327 0.99792 0.25408 0.0
O452 O 0.84131 0.9894 0.25105 0.0
Mg453 Mg 0.83073 0.01517 0.23205 0.0
Mg454 Mg 0.82544 0.98557 0.27755 0.0
C455 C 0.88385 0.00921 0.30642 0.0
O456 O 0.87882 0.96342 0.27136 0.0
O457 O 0.9462 0.02019 0.23001 0.0
O458 O 0.84754 0.96094 0.2922 0.0
O459 O 0.93201 0.96912 0.23 0.0
O460 O 0.95281 0.0152 0.26663 0.0
O461 O 0.93171 0.96191 0.26638 0.0
O462 O 0.86499 0.03095 0.23734 0.0
O463 O 0.89437 0.03567 0.21518 0.0
C464 C 0.8755 0.04236 0.22271 0.0
C465 C 0.95824 0.023 0.24745 0.0
O466 O 0.87021 0.01131 0.29 0.0
O467 O 0.7972 0.99667 0.23025 0.0
O468 O 0.90387 0.00188 0.30426 0.0
O469 O 0.81546 0.03472 0.26143 0.0
O470 O 0.79413 0.97712 0.26228 0.0
O471 O 0.82046 0.0168 0.29353 0.0
O472 O 0.87893 0.98528 0.21912 0.0
O473 O 0.84694 0.99561 0.20301 0.0
C474 C 0.93686 0.95647 0.24659 0.0
C475 C 0.86687 0.95377 0.2864 0.0
C476 C 0.22077 0.87373 0.03443 0.0
C477 C 0.24031 0.95845 0.02249 0.0
C478 C 0.24762 0.93978 0.95455 0.0
Mg479 Mg 0.23295 0.83072 0.00568 0.0
Mg480 Mg 0.27901 0.82743 0.9768 0.0
O481 O 0.25254 0.84319 0.98149 0.0
Mg482 Mg 0.25408 0.87479 0.99181 0.0
O483 O 0.25225 0.90599 0.0036 0.0
Mg484 Mg 0.22028 0.91333 0.99653 0.0
Mg485 Mg 0.27303 0.92758 0.99659 0.0
C486 C 0.28752 0.87114 0.94808 0.0
O487 O 0.28969 0.87222 0.00719 0.0
O488 O 0.23222 0.79856 0.98521 0.0
O489 O 0.30165 0.90791 0.0065 0.0
O490 O 0.26251 0.81446 0.0254 0.0
O491 O 0.26427 0.79658 0.96585 0.0
O492 O 0.29459 0.82037 0.00794 0.0
O493 O 0.21938 0.88012 0.97754 0.0
O494 O 0.20395 0.84743 0.98599 0.0
C495 C 0.20258 0.86711 0.97754 0.0
C496 C 0.24542 0.7885 0.97171 0.0
O497 O 0.27234 0.88248 0.95826 0.0
O498 O 0.22423 0.9458 0.01664 0.0
O499 O 0.29343 0.85136 0.95405 0.0
O500 O 0.22991 0.93366 0.96474 0.0
O501 O 0.26055 0.95434 0.01706 0.0
O502 O 0.26694 0.93615 0.96268 0.0
O503 O 0.23639 0.86423 0.02346 0.0
O504 O 0.21261 0.89261 0.02821 0.0
C505 C 0.28374 0.81261 0.02444 0.0
C506 C 0.30466 0.88707 0.01056 0.0
C507 C 0.12356 0.4607 0.22164 0.0
C508 C 0.04004 0.47142 0.24406 0.0
C509 C 0.05658 0.53973 0.25058 0.0
Mg510 Mg 0.16695 0.48943 0.23121 0.0
Mg511 Mg 0.17292 0.52127 0.27488 0.0
O512 O 0.15508 0.51379 0.25074 0.0
Mg513 Mg 0.12348 0.50335 0.25409 0.0
O514 O 0.09228 0.49162 0.25386 0.0
Mg515 Mg 0.08373 0.49872 0.22216 0.0
Mg516 Mg 0.07104 0.49752 0.27554 0.0
C517 C 0.12787 0.54765 0.28591 0.0
O518 O 0.12718 0.4884 0.29037 0.0
O519 O 0.1987 0.51005 0.22728 0.0
O520 O 0.09203 0.49059 0.30404 0.0
O521 O 0.1851 0.47096 0.26053 0.0
O522 O 0.20202 0.53289 0.25649 0.0
O523 O 0.18269 0.49118 0.29137 0.0
O524 O 0.11683 0.51765 0.21902 0.0
O525 O 0.14897 0.50826 0.20282 0.0
C526 C 0.12944 0.51702 0.20177 0.0
C527 C 0.20916 0.52516 0.23792 0.0
O528 O 0.11603 0.53661 0.27199 0.0
O529 O 0.05184 0.47861 0.22777 0.0
O530 O 0.14844 0.54313 0.29005 0.0
O531 O 0.063 0.53053 0.23243 0.0
O532 O 0.04481 0.47556 0.2644 0.0
O533 O 0.06038 0.53085 0.26956 0.0
O534 O 0.13364 0.4716 0.23678 0.0
O535 O 0.10445 0.46697 0.21416 0.0
C536 C 0.18911 0.47369 0.28128 0.0
C537 C 0.11293 0.48662 0.30638 0.0
C538 C 0.7058 0.63131 0.01795 0.0
C539 C 0.74586 0.70979 0.02812 0.0
C540 C 0.78747 0.68805 0.97655 0.0
Mg541 Mg 0.72542 0.58559 0.99935 0.0
Mg542 Mg 0.77821 0.57098 0.00245 0.0
O543 O 0.75772 0.59292 0.99446 0.0
Mg544 Mg 0.75836 0.62403 0.00641 0.0
O545 O 0.7556 0.65554 0.01701 0.0
Mg546 Mg 0.7367 0.66838 0.99231 0.0
Mg547 Mg 0.78118 0.67168 0.02345 0.0
C548 C 0.81059 0.61176 0.99253 0.0
O549 O 0.7752 0.61587 0.04058 0.0
O550 O 0.73127 0.55375 0.97906 0.0
O551 O 0.79533 0.64713 0.04599 0.0
O552 O 0.73291 0.56439 0.03132 0.0
O553 O 0.76785 0.54551 0.97936 0.0
O554 O 0.76966 0.56023 0.0352 0.0
O555 O 0.74233 0.63524 0.97399 0.0
O556 O 0.71962 0.60675 0.96748 0.0
C557 C 0.72777 0.62569 0.96191 0.0
C558 C 0.74785 0.54155 0.97318 0.0
O559 O 0.79489 0.62655 0.99297 0.0
O560 O 0.73376 0.69999 0.01359 0.0
O561 O 0.80742 0.59108 0.99709 0.0
O562 O 0.76643 0.68561 0.97461 0.0
O563 O 0.76466 0.70183 0.03469 0.0
O564 O 0.79795 0.68008 0.99328 0.0
O565 O 0.72287 0.61842 0.01871 0.0
O566 O 0.70725 0.65114 0.01001 0.0
C567 C 0.74987 0.5571 0.04216 0.0
C568 C 0.78984 0.62714 0.05134 0.0
C569 C 0.20798 0.13262 0.51849 0.0
C570 C 0.24722 0.21146 0.52721 0.0
C571 C 0.2891 0.18912 0.47574 0.0
Mg572 Mg 0.22799 0.08671 0.50029 0.0
Mg573 Mg 0.28113 0.07282 0.5025 0.0
O574 O 0.26007 0.09434 0.49471 0.0
Mg575 Mg 0.26036 0.12556 0.50639 0.0
O576 O 0.25743 0.15714 0.51671 0.0
Mg577 Mg 0.23838 0.1695 0.49193 0.0
Mg578 Mg 0.28281 0.17364 0.52306 0.0
C579 C 0.31245 0.11414 0.49154 0.0
O580 O 0.27761 0.11789 0.54048 0.0
O581 O 0.2339 0.05453 0.48078 0.0
O582 O 0.29725 0.14946 0.54582 0.0
O583 O 0.23633 0.06612 0.53241 0.0
O584 O 0.27054 0.04653 0.4803 0.0
O585 O 0.27323 0.06257 0.5356 0.0
O586 O 0.24388 0.13614 0.47405 0.0
O587 O 0.22143 0.1073 0.46818 0.0
C588 C 0.22927 0.12628 0.46228 0.0
C589 C 0.25037 0.04222 0.47488 0.0
O590 O 0.29643 0.12852 0.49238 0.0
O591 O 0.23537 0.20137 0.5127 0.0
O592 O 0.31001 0.09338 0.49626 0.0
O593 O 0.26807 0.18648 0.47371 0.0
O594 O 0.26603 0.20376 0.53404 0.0
O595 O 0.2995 0.18177 0.49278 0.0
O596 O 0.22511 0.11978 0.51914 0.0
O597 O 0.20924 0.15237 0.5103 0.0
C598 C 0.25362 0.05917 0.54297 0.0
C599 C 0.29207 0.12941 0.55122 0.0
C600 C 0.37675 0.54222 0.72319 0.0
C601 C 0.46 0.52361 0.74511 0.0
C602 C 0.43961 0.45682 0.74471 0.0
Mg603 Mg 0.33232 0.51479 0.73324 0.0
Mg604 Mg 0.32783 0.48345 0.77774 0.0
O605 O 0.34346 0.48866 0.75136 0.0
Mg606 Mg 0.37544 0.4973 0.75388 0.0
O607 O 0.40713 0.50729 0.75355 0.0
Mg608 Mg 0.41448 0.50243 0.72126 0.0
Mg609 Mg 0.4274 0.49576 0.77405 0.0
C610 C 0.36993 0.45211 0.78509 0.0
O611 O 0.37312 0.51001 0.7902 0.0
O612 O 0.29898 0.49617 0.73146 0.0
O613 O 0.40746 0.50154 0.80339 0.0
O614 O 0.31749 0.53338 0.76363 0.0
O615 O 0.2964 0.47507 0.76251 0.0
O616 O 0.32281 0.51399 0.79486 0.0
O617 O 0.38035 0.48531 0.71848 0.0
O618 O 0.34788 0.49589 0.70345 0.0
C619 C 0.36723 0.4868 0.70172 0.0
C620 C 0.28838 0.48245 0.74406 0.0
O621 O 0.38159 0.46246 0.77029 0.0
O622 O 0.44769 0.52004 0.72805 0.0
O623 O 0.3505 0.45872 0.79124 0.0
O624 O 0.43366 0.4691 0.72818 0.0
O625 O 0.45508 0.51656 0.7647 0.0
O626 O 0.43562 0.46258 0.76468 0.0
O627 O 0.36665 0.53064 0.73799 0.0
O628 O 0.39543 0.53563 0.71509 0.0
C629 C 0.3159 0.53145 0.78479 0.0
C630 C 0.38728 0.50817 0.8062 0.0
C631 C 0.72086 0.37636 0.53378 0.0
C632 C 0.73894 0.46043 0.51804 0.0
C633 C 0.74394 0.44 0.45041 0.0
Mg634 Mg 0.7329 0.33235 0.50696 0.0
Mg635 Mg 0.77803 0.32814 0.47676 0.0
O636 O 0.75162 0.34391 0.48163 0.0
Mg637 Mg 0.75306 0.37604 0.49035 0.0
O638 O 0.75104 0.40773 0.50057 0.0
Mg639 Mg 0.71867 0.41427 0.49412 0.0
Mg640 Mg 0.77114 0.42934 0.49184 0.0
C641 C 0.78532 0.37075 0.44598 0.0
O642 O 0.78939 0.37478 0.50456 0.0
O643 O 0.73184 0.29921 0.48813 0.0
O644 O 0.80087 0.4102 0.499 0.0
O645 O 0.76322 0.31715 0.52633 0.0
O646 O 0.76328 0.29657 0.46787 0.0
O647 O 0.79466 0.32285 0.50767 0.0
O648 O 0.71783 0.3802 0.47676 0.0
O649 O 0.70313 0.34777 0.48733 0.0
C650 C 0.70125 0.36696 0.47786 0.0
C651 C 0.74472 0.28859 0.47476 0.0
O652 O 0.77028 0.38241 0.45601 0.0
O653 O 0.72283 0.44761 0.51263 0.0
O654 O 0.79148 0.35125 0.45257 0.0
O655 O 0.72668 0.43368 0.46122 0.0
O656 O 0.7592 0.45627 0.51263 0.0
O657 O 0.76352 0.4372 0.45816 0.0
O658 O 0.73653 0.36676 0.52298 0.0
O659 O 0.71207 0.39468 0.52678 0.0
C660 C 0.78443 0.31552 0.52476 0.0
C661 C 0.80462 0.3898 0.50451 0.0
C662 C 0.6294 0.01663 0.70221 0.0
C663 C 0.70931 0.0273 0.73696 0.0
C664 C 0.69156 0.97511 0.78067 0.0
Mg665 Mg 0.58452 0.99649 0.72332 0.0
Mg666 Mg 0.57292 0.99622 0.77682 0.0
O667 O 0.59383 0.98994 0.75492 0.0
Mg668 Mg 0.62466 0.0027 0.75451 0.0
O669 O 0.65585 0.01416 0.75064 0.0
Mg670 Mg 0.66821 0.99017 0.73096 0.0
Mg671 Mg 0.67386 0.02226 0.77446 0.0
C672 C 0.6155 0.98612 0.80693 0.0
O673 O 0.61643 0.03581 0.77249 0.0
O674 O 0.55343 0.97529 0.72977 0.0
O675 O 0.64889 0.04312 0.79021 0.0
O676 O 0.56296 0.02784 0.73354 0.0
O677 O 0.5466 0.97402 0.7665 0.0
O678 O 0.56187 0.02937 0.77068 0.0
O679 O 0.63562 0.97118 0.73708 0.0
O680 O 0.60609 0.96541 0.71519 0.0
C681 C 0.62556 0.95984 0.72226 0.0
C682 C 0.54185 0.96864 0.74645 0.0
O683 O 0.62947 0.98814 0.7907 0.0
O684 O 0.69921 0.01177 0.72659 0.0
O685 O 0.5945 0.98969 0.80493 0.0
O686 O 0.68731 0.97218 0.76 0.0
O687 O 0.70219 0.03494 0.75557 0.0
O688 O 0.68492 0.9925 0.79078 0.0
O689 O 0.61694 0.01651 0.71957 0.0
O690 O 0.64928 0.00867 0.70292 0.0
C691 C 0.55703 0.0375 0.75162 0.0
C692 C 0.62814 0.047 0.7864 0.0
C693 C 0.4783 0.29949 0.1335 0.0
C694 C 0.47228 0.25988 0.21206 0.0
C695 C 0.52666 0.22091 0.19074 0.0
Mg696 Mg 0.49752 0.28158 0.08724 0.0
Mg697 Mg 0.50026 0.22868 0.07414 0.0
O698 O 0.50672 0.25016 0.0951 0.0
Mg699 Mg 0.49502 0.24838 0.12635 0.0
O700 O 0.48441 0.25008 0.15795 0.0
Mg701 Mg 0.50762 0.27064 0.17003 0.0
Mg702 Mg 0.47879 0.22459 0.17495 0.0
C703 C 0.51499 0.19782 0.1148 0.0
O704 O 0.46304 0.22885 0.11858 0.0
O705 O 0.51743 0.2778 0.0546 0.0
O706 O 0.45798 0.20877 0.15024 0.0
O707 O 0.46604 0.27006 0.06735 0.0
O708 O 0.51982 0.24133 0.04684 0.0
O709 O 0.46611 0.23293 0.06563 0.0
O710 O 0.52583 0.26722 0.13645 0.0
O711 O 0.52866 0.29106 0.10772 0.0
C712 C 0.53563 0.28338 0.12653 0.0
C713 C 0.52398 0.26174 0.04219 0.0
O714 O 0.51154 0.21302 0.12946 0.0
O715 O 0.48663 0.27199 0.20189 0.0
O716 O 0.51083 0.20052 0.094 0.0
O717 O 0.52797 0.24192 0.18718 0.0
O718 O 0.46601 0.24099 0.20455 0.0
O719 O 0.50987 0.20986 0.18425 0.0
O720 O 0.47892 0.28259 0.12062 0.0
O721 O 0.48696 0.2985 0.15301 0.0
C722 C 0.45689 0.25173 0.06165 0.0
C723 C 0.45308 0.21359 0.1299 0.0
H724 H 0.10154 0.37631 0.63612 0.0
H725 H 0.1041 0.35426 0.67048 0.0
H726 H 0.03396 0.33987 0.666 0.0
H727 H 0.03168 0.36134 0.6311 0.0
H728 H 0.08401 0.36539 0.70738 0.0
H729 H 0.05739 0.28039 0.68603 0.0
H730 H 0.06492 0.30066 0.66506 0.0
H731 H 0.03738 0.30081 0.67694 0.0
C732 C 0.08691 0.36762 0.64206 0.0
C733 C 0.06652 0.37004 0.63088 0.0
C734 C 0.08833 0.35521 0.66176 0.0
C735 C 0.06928 0.34522 0.67082 0.0
C736 C 0.04902 0.34688 0.65909 0.0
H737 H 0.02904 0.32667 0.80428 0.0
H738 H 0.04353 0.34198 0.76966 0.0
C739 C 0.04769 0.35911 0.63916 0.0
C740 C 0.07005 0.3355 0.69368 0.0
H741 H 0.0545 0.2904 0.72471 0.0
C742 C 0.07789 0.34883 0.7111 0.0
C743 C 0.06244 0.31379 0.69861 0.0
C744 C 0.05529 0.29801 0.68062 0.0
C745 C 0.07732 0.34147 0.73333 0.0
C746 C 0.06819 0.32041 0.7384 0.0
C747 C 0.06137 0.30664 0.72091 0.0
C748 C 0.0636 0.31305 0.76164 0.0
C749 C 0.08635 0.35645 0.75115 0.0
C750 C 0.07063 0.29195 0.76919 0.0
C751 C 0.06221 0.28303 0.78905 0.0
C752 C 0.04635 0.29495 0.80155 0.0
C753 C 0.04111 0.31694 0.79506 0.0
C754 C 0.04948 0.3258 0.7752 0.0
H755 H 0.09967 0.36736 0.74445 0.0
H756 H 0.07275 0.36738 0.75731 0.0
H757 H 0.09316 0.34671 0.76543 0.0
H758 H 0.0816 0.28185 0.75906 0.0
H759 H 0.06671 0.26608 0.79352 0.0
H760 H 0.61892 0.73816 0.65864 0.0
H761 H 0.59311 0.75017 0.62909 0.0
H762 H 0.6154 0.69566 0.58828 0.0
H763 H 0.64123 0.68377 0.61736 0.0
H764 H 0.61897 0.73896 0.56856 0.0
H765 H 0.5347 0.72271 0.60376 0.0
H766 H 0.55428 0.73756 0.62067 0.0
H767 H 0.55938 0.70886 0.61432 0.0
C768 C 0.61793 0.7285 0.64354 0.0
C769 C 0.63221 0.71017 0.64018 0.0
C770 C 0.6032 0.73536 0.62673 0.0
C771 C 0.60243 0.72378 0.60657 0.0
C772 C 0.61585 0.70484 0.60372 0.0
H773 H 0.5453 0.71542 0.4798 0.0
H774 H 0.5646 0.71243 0.51544 0.0
C775 C 0.63059 0.69809 0.62034 0.0
C776 C 0.58928 0.73218 0.58748 0.0
H777 H 0.53645 0.73649 0.56694 0.0
C778 C 0.60091 0.7387 0.56828 0.0
C779 C 0.56577 0.73193 0.58732 0.0
C780 C 0.55267 0.7248 0.60753 0.0
C781 C 0.58965 0.74409 0.54857 0.0
C782 C 0.56623 0.7428 0.54808 0.0
C783 C 0.55446 0.7374 0.56753 0.0
C784 C 0.55402 0.74484 0.52691 0.0
C785 C 0.60285 0.7504 0.52813 0.0
C786 C 0.54167 0.76407 0.52177 0.0
C787 C 0.53071 0.76595 0.5013 0.0
C788 C 0.53181 0.74849 0.48584 0.0
C789 C 0.54409 0.72917 0.49128 0.0
C790 C 0.55513 0.72741 0.51162 0.0
H791 H 0.62026 0.75487 0.53231 0.0
H792 H 0.60331 0.73609 0.51657 0.0
H793 H 0.59483 0.76465 0.51928 0.0
H794 H 0.5407 0.77765 0.53348 0.0
H795 H 0.52127 0.78098 0.49768 0.0
H796 H 0.91824 0.13026 0.62137 0.0
H797 H 0.9184 0.16022 0.64861 0.0
H798 H 0.98936 0.16726 0.63965 0.0
H799 H 0.98888 0.13799 0.61139 0.0
H800 H 0.93887 0.1543 0.68596 0.0
H801 H 0.97169 0.23115 0.64745 0.0
H802 H 0.96183 0.20814 0.63109 0.0
H803 H 0.98973 0.2079 0.64212 0.0
C804 C 0.93372 0.13872 0.62484 0.0
C805 C 0.9536 0.13195 0.61465 0.0
C806 C 0.9338 0.15583 0.64027 0.0
C807 C 0.95386 0.16607 0.64611 0.0
C808 C 0.9736 0.16002 0.63502 0.0
H809 H 0.99971 0.19918 0.77294 0.0
H810 H 0.98953 0.18435 0.73683 0.0
C811 C 0.97341 0.14319 0.6191 0.0
C812 C 0.9547 0.17993 0.66629 0.0
H813 H 0.97619 0.22763 0.68762 0.0
C814 C 0.94659 0.17057 0.68616 0.0
C815 C 0.96459 0.20121 0.66658 0.0
C816 C 0.97222 0.21277 0.64559 0.0
C817 C 0.94919 0.18133 0.70648 0.0
C818 C 0.96067 0.20171 0.707 0.0
C819 C 0.96765 0.2118 0.68708 0.0
C820 C 0.96723 0.21156 0.72832 0.0
C821 C 0.94021 0.17047 0.72735 0.0
C822 C 0.95833 0.232 0.73516 0.0
C823 C 0.96411 0.24059 0.7559 0.0
C824 C 0.97898 0.22888 0.76992 0.0
C825 C 0.9881 0.20858 0.76268 0.0
C826 C 0.98231 0.20005 0.74205 0.0
H827 H 0.92664 0.15864 0.72352 0.0
H828 H 0.9538 0.16099 0.73571 0.0
H829 H 0.9338 0.18312 0.73914 0.0
H830 H 0.94671 0.24109 0.72464 0.0
H831 H 0.95691 0.25635 0.76091 0.0
H832 H 0.33653 0.81466 0.59558 0.0
H833 H 0.35401 0.79978 0.5622 0.0
H834 H 0.3868 0.74897 0.60163 0.0
H835 H 0.36954 0.76407 0.63542 0.0
H836 H 0.41429 0.76736 0.56989 0.0
H837 H 0.33458 0.74358 0.53103 0.0
H838 H 0.33488 0.77237 0.53867 0.0
H839 H 0.33667 0.75115 0.55996 0.0
C840 C 0.34758 0.80039 0.59724 0.0
C841 C 0.3515 0.79044 0.61817 0.0
C842 C 0.35739 0.79178 0.57807 0.0
C843 C 0.37113 0.77283 0.5793 0.0
C844 C 0.37598 0.76343 0.60027 0.0
H845 H 0.44803 0.71212 0.47088 0.0
H846 H 0.4255 0.71434 0.50474 0.0
C847 C 0.36623 0.77215 0.61957 0.0
C848 C 0.38061 0.76323 0.5586 0.0
H849 H 0.36628 0.74552 0.50662 0.0
C850 C 0.40382 0.7622 0.5562 0.0
C851 C 0.3669 0.75637 0.54077 0.0
C852 C 0.34188 0.75569 0.54279 0.0
C853 C 0.41367 0.75569 0.53605 0.0
C854 C 0.39993 0.7498 0.51791 0.0
C855 C 0.37675 0.75005 0.52055 0.0
C856 C 0.40946 0.74544 0.49558 0.0
C857 C 0.4387 0.75621 0.53393 0.0
C858 C 0.40665 0.76133 0.47857 0.0
C859 C 0.4194 0.76008 0.45915 0.0
C860 C 0.43515 0.74286 0.45642 0.0
C861 C 0.43607 0.7256 0.47242 0.0
C862 C 0.42338 0.72696 0.49192 0.0
H863 H 0.44672 0.76432 0.54838 0.0
H864 H 0.44523 0.73892 0.53283 0.0
H865 H 0.44364 0.76522 0.5185 0.0
H866 H 0.39583 0.77562 0.48099 0.0
H867 H 0.41818 0.77355 0.4471 0.0
H868 H 0.09422 0.61027 0.85177 0.0
H869 H 0.09129 0.63539 0.82015 0.0
H870 H 0.04944 0.67953 0.85827 0.0
H871 H 0.05213 0.65394 0.89044 0.0
H872 H 0.031 0.66883 0.81856 0.0
H873 H 0.11765 0.6946 0.8035 0.0
H874 H 0.11598 0.66492 0.80617 0.0
H875 H 0.10886 0.68221 0.82952 0.0
C876 C 0.08471 0.62551 0.85372 0.0
C877 C 0.07331 0.63004 0.87367 0.0
C878 C 0.08324 0.64002 0.83558 0.0
C879 C 0.07047 0.65957 0.83686 0.0
C880 C 0.0596 0.66463 0.85699 0.0
H881 H 0.05321 0.74606 0.71942 0.0
H882 H 0.06645 0.73143 0.75519 0.0
C883 C 0.06117 0.65005 0.87536 0.0
C884 C 0.06651 0.67291 0.81626 0.0
H885 H 0.09322 0.69541 0.77119 0.0
C886 C 0.04459 0.67502 0.80842 0.0
C887 C 0.08419 0.68119 0.80303 0.0
C888 C 0.10795 0.68082 0.81113 0.0
C889 C 0.03999 0.68398 0.78725 0.0
C890 C 0.05782 0.6906 0.77333 0.0
C891 C 0.07963 0.68979 0.78165 0.0
C892 C 0.05386 0.69825 0.75008 0.0
C893 C 0.01603 0.68605 0.77989 0.0
C894 C 0.04379 0.68402 0.73473 0.0
C895 C 0.03622 0.69228 0.71424 0.0
C896 C 0.03867 0.71494 0.70869 0.0
C897 C 0.05095 0.72854 0.72313 0.0
C898 C 0.05843 0.72026 0.74369 0.0
H899 H 0.00445 0.68608 0.79431 0.0
H900 H 0.01326 0.70152 0.77 0.0
H901 H 0.01181 0.67164 0.7693 0.0
H902 H 0.04065 0.6668 0.73911 0.0
H903 H 0.02709 0.68125 0.70345 0.0
H904 H 0.84597 0.67571 0.40313 0.0
H905 H 0.86331 0.6899 0.43686 0.0
H906 H 0.89539 0.74139 0.39841 0.0
H907 H 0.87802 0.72725 0.36437 0.0
H908 H 0.91057 0.69701 0.4459 0.0
H909 H 0.85927 0.77457 0.44868 0.0
H910 H 0.85123 0.75071 0.43252 0.0
H911 H 0.87333 0.76829 0.42299 0.0
C912 C 0.85691 0.68991 0.40177 0.0
C913 C 0.8606 0.70039 0.38108 0.0
C914 C 0.86675 0.69802 0.42107 0.0
C915 C 0.88029 0.7169 0.42016 0.0
C916 C 0.8847 0.72698 0.39947 0.0
H917 H 0.95052 0.78423 0.52622 0.0
H918 H 0.9296 0.77709 0.49211 0.0
C919 C 0.87498 0.71874 0.38003 0.0
C920 C 0.88964 0.72584 0.44105 0.0
H921 H 0.88517 0.76883 0.47775 0.0
C922 C 0.90508 0.71273 0.45285 0.0
C923 C 0.88246 0.7464 0.44998 0.0
C924 C 0.86556 0.76085 0.43804 0.0
C925 C 0.91356 0.71959 0.4734 0.0
C926 C 0.90588 0.73983 0.48273 0.0
C927 C 0.89078 0.7532 0.4707 0.0
C928 C 0.91388 0.74729 0.50479 0.0
C929 C 0.93095 0.70521 0.48477 0.0
C930 C 0.91062 0.73388 0.52374 0.0
C931 C 0.9226 0.73786 0.54321 0.0
C932 C 0.93781 0.7555 0.54412 0.0
C933 C 0.93888 0.77055 0.52608 0.0
C934 C 0.92706 0.76639 0.50648 0.0
H935 H 0.93913 0.6936 0.47296 0.0
H936 H 0.94397 0.71555 0.49263 0.0
H937 H 0.9229 0.69508 0.49799 0.0
H938 H 0.90006 0.71937 0.52295 0.0
H939 H 0.9213 0.72609 0.55691 0.0
H940 H 0.90612 0.87681 0.88076 0.0
H941 H 0.90333 0.84715 0.85334 0.0
H942 H 0.97439 0.83631 0.85759 0.0
H943 H 0.97686 0.86515 0.88612 0.0
H944 H 0.91995 0.85072 0.81478 0.0
H945 H 0.95503 0.77366 0.85127 0.0
H946 H 0.94739 0.79723 0.86816 0.0
H947 H 0.97426 0.79598 0.85478 0.0
C948 C 0.92101 0.8676 0.8762 0.0
C949 C 0.94173 0.87315 0.88526 0.0
C950 C 0.91941 0.85067 0.86063 0.0
C951 C 0.9386 0.83935 0.85345 0.0
C952 C 0.95924 0.84432 0.86327 0.0
H953 H 0.97805 0.80846 0.72548 0.0
H954 H 0.96578 0.82323 0.7609 0.0
C955 C 0.96073 0.86092 0.87937 0.0
C956 C 0.93755 0.82519 0.83339 0.0
H957 H 0.95794 0.7773 0.81073 0.0
C958 C 0.92778 0.83441 0.81413 0.0
C959 C 0.94737 0.80373 0.83245 0.0
C960 C 0.95635 0.79201 0.85288 0.0
C961 C 0.929 0.82352 0.79369 0.0
C962 C 0.94086 0.8032 0.79232 0.0
C963 C 0.94916 0.7931 0.8118 0.0
C964 C 0.9473 0.79392 0.77056 0.0
C965 C 0.91823 0.83431 0.77358 0.0
C966 C 0.94128 0.77231 0.76441 0.0
C967 C 0.94841 0.76366 0.74402 0.0
C968 C 0.96186 0.77646 0.7297 0.0
C969 C 0.96768 0.79813 0.73601 0.0
C970 C 0.96056 0.80669 0.75624 0.0
H971 H 0.90376 0.84482 0.77845 0.0
H972 H 0.93049 0.84526 0.76517 0.0
H973 H 0.91255 0.82167 0.7615 0.0
H974 H 0.93118 0.76217 0.77539 0.0
H975 H 0.94377 0.74685 0.73972 0.0
H976 H 0.14187 0.82285 0.3845 0.0
H977 H 0.11816 0.81065 0.4151 0.0
H978 H 0.08033 0.77024 0.37009 0.0
H979 H 0.10416 0.78225 0.3391 0.0
H980 H 0.05596 0.79991 0.4056 0.0
H981 H 0.12158 0.74168 0.43658 0.0
H982 H 0.13081 0.76913 0.42894 0.0
H983 H 0.12011 0.75104 0.40794 0.0
C984 C 0.12839 0.81155 0.38097 0.0
C985 C 0.12506 0.80331 0.3594 0.0
C986 C 0.1149 0.8046 0.39849 0.0
C987 C 0.09782 0.78936 0.39478 0.0
C988 C 0.09358 0.78195 0.37316 0.0
H989 H 0.03446 0.72465 0.50959 0.0
H990 H 0.05068 0.73043 0.47262 0.0
C991 C 0.10716 0.78887 0.35552 0.0
C992 C 0.0852 0.78066 0.41391 0.0
H993 H 0.09198 0.75012 0.46155 0.0
C994 C 0.06362 0.78874 0.4177 0.0
C995 C 0.09525 0.7659 0.42941 0.0
C996 C 0.11816 0.75623 0.42553 0.0
C997 C 0.05222 0.78334 0.43736 0.0
C998 C 0.06289 0.76978 0.45357 0.0
C999 C 0.08396 0.76067 0.44915 0.0
C1000 C 0.05316 0.76615 0.47584 0.0
C1001 C 0.02904 0.79252 0.44083 0.0
C1002 C 0.04985 0.78428 0.49001 0.0
C1003 C 0.04076 0.78107 0.51113 0.0
C1004 C 0.03486 0.75962 0.5185 0.0
C1005 C 0.03877 0.74139 0.50443 0.0
C1006 C 0.04795 0.74464 0.48329 0.0
H1007 H 0.02094 0.79696 0.42475 0.0
H1008 H 0.01844 0.78034 0.44983 0.0
H1009 H 0.02999 0.80784 0.45095 0.0
H1010 H 0.0543 0.80094 0.48472 0.0
H1011 H 0.03808 0.79549 0.52152 0.0
H1012 H 0.65829 0.04872 0.40477 0.0
H1013 H 0.69099 0.05335 0.38137 0.0
H1014 H 0.64949 0.07654 0.32726 0.0
H1015 H 0.61624 0.07176 0.3508 0.0
H1016 H 0.68386 0.04592 0.31503 0.0
H1017 H 0.7174 0.11438 0.36558 0.0
H1018 H 0.71015 0.09067 0.38234 0.0
H1019 H 0.68874 0.10563 0.36735 0.0
C1020 C 0.65601 0.05459 0.38781 0.0
C1021 C 0.63471 0.06 0.37963 0.0
C1022 C 0.67476 0.05743 0.37455 0.0
C1023 C 0.67269 0.06597 0.35288 0.0
C1024 C 0.65139 0.07026 0.34411 0.0
H1025 H 0.78779 0.06632 0.2632 0.0
H1026 H 0.75322 0.08117 0.27872 0.0
C1027 C 0.63245 0.06731 0.35745 0.0
C1028 C 0.69309 0.06989 0.33966 0.0
H1029 H 0.74426 0.09397 0.34343 0.0
C1030 C 0.69688 0.05687 0.3208 0.0
C1031 C 0.70996 0.0843 0.34724 0.0
C1032 C 0.70628 0.09971 0.36661 0.0
C1033 C 0.7178 0.05648 0.31039 0.0
C1034 C 0.73517 0.06972 0.31898 0.0
C1035 C 0.73092 0.08383 0.33695 0.0
C1036 C 0.75839 0.06666 0.31137 0.0
C1037 C 0.72162 0.04073 0.29128 0.0
C1038 C 0.77351 0.05522 0.32519 0.0
C1039 C 0.79334 0.04675 0.31644 0.0
C1040 C 0.79821 0.04951 0.29369 0.0
C1041 C 0.78441 0.06356 0.28071 0.0
C1042 C 0.76455 0.07198 0.28949 0.0
H1043 H 0.70717 0.02967 0.28846 0.0
H1044 H 0.72455 0.05048 0.2758 0.0
H1045 H 0.7366 0.03022 0.29441 0.0
H1046 H 0.76912 0.05119 0.34223 0.0
H1047 H 0.80375 0.03632 0.327 0.0
H1048 H 0.32281 0.10497 0.8647 0.0
H1049 H 0.30749 0.07127 0.88154 0.0
H1050 H 0.24583 0.10598 0.89468 0.0
H1051 H 0.26121 0.14004 0.8778 0.0
H1052 H 0.28661 0.06434 0.92602 0.0
H1053 H 0.23067 0.05053 0.85345 0.0
H1054 H 0.2546 0.06846 0.85155 0.0
H1055 H 0.23044 0.07736 0.86664 0.0
C1056 C 0.30616 0.10556 0.87161 0.0
C1057 C 0.29318 0.12505 0.86999 0.0
C1058 C 0.29742 0.08632 0.88114 0.0
C1059 C 0.27546 0.08612 0.88898 0.0
C1060 C 0.26276 0.10584 0.88847 0.0
H1061 H 0.21276 0.96778 0.94509 0.0
H1062 H 0.2161 0.00377 0.92609 0.0
C1063 C 0.27163 0.12529 0.8791 0.0
C1064 C 0.26598 0.06483 0.89678 0.0
H1065 H 0.23339 0.02164 0.88011 0.0
C1066 C 0.27472 0.05514 0.91619 0.0
C1067 C 0.25052 0.05292 0.8838 0.0
C1068 C 0.24098 0.06268 0.86262 0.0
C1069 C 0.26888 0.03352 0.9227 0.0
C1070 C 0.25428 0.02117 0.90917 0.0
C1071 C 0.24475 0.03115 0.89024 0.0
C1072 C 0.24961 0.99762 0.91444 0.0
C1073 C 0.27875 0.02383 0.94381 0.0
C1074 C 0.26674 0.98175 0.91266 0.0
C1075 C 0.26493 0.96121 0.92349 0.0
C1076 C 0.24595 0.95631 0.93626 0.0
C1077 C 0.22763 0.97107 0.93545 0.0
C1078 C 0.22953 0.99171 0.92469 0.0
H1079 H 0.28574 0.03692 0.95466 0.0
H1080 H 0.26602 0.01444 0.95336 0.0
H1081 H 0.29239 0.01209 0.93946 0.0
H1082 H 0.28226 0.986 0.90455 0.0
H1083 H 0.27921 0.95007 0.9236 0.0
H1084 H 0.34986 0.41847 0.40238 0.0
H1085 H 0.31799 0.41895 0.37767 0.0
H1086 H 0.35546 0.45597 0.32881 0.0
H1087 H 0.38792 0.45577 0.3539 0.0
H1088 H 0.31449 0.47475 0.33791 0.0
H1089 H 0.30372 0.38518 0.32151 0.0
H1090 H 0.30621 0.39038 0.35074 0.0
H1091 H 0.32926 0.39633 0.33252 0.0
C1092 C 0.35156 0.4266 0.38631 0.0
C1093 C 0.37148 0.43726 0.3802 0.0
C1094 C 0.33329 0.4266 0.37205 0.0
C1095 C 0.3344 0.43711 0.3512 0.0
C1096 C 0.35434 0.44752 0.34476 0.0
H1097 H 0.21892 0.44502 0.26181 0.0
H1098 H 0.25473 0.43335 0.27762 0.0
C1099 C 0.37284 0.44743 0.35908 0.0
C1100 C 0.31389 0.43893 0.33746 0.0
H1101 H 0.27065 0.40831 0.31733 0.0
C1102 C 0.30512 0.46022 0.33304 0.0
C1103 C 0.30169 0.41997 0.33094 0.0
C1104 C 0.31083 0.39669 0.33397 0.0
C1105 C 0.28397 0.46305 0.32346 0.0
C1106 C 0.27109 0.44409 0.31848 0.0
C1107 C 0.28035 0.4228 0.32164 0.0
C1108 C 0.24787 0.44642 0.31034 0.0
C1109 C 0.2754 0.48636 0.31907 0.0
C1110 C 0.23159 0.45616 0.32396 0.0
C1111 C 0.21107 0.46276 0.31504 0.0
C1112 C 0.20648 0.45976 0.2923 0.0
C1113 C 0.22187 0.44766 0.27936 0.0
C1114 C 0.24246 0.44111 0.28832 0.0
H1115 H 0.28911 0.49866 0.31864 0.0
H1116 H 0.26622 0.4873 0.30304 0.0
H1117 H 0.26375 0.49116 0.33257 0.0
H1118 H 0.23531 0.45997 0.34114 0.0
H1119 H 0.19954 0.47179 0.32556 0.0
H1120 H 0.70163 0.39857 0.822 0.0
H1121 H 0.71309 0.42947 0.84528 0.0
H1122 H 0.70808 0.38741 0.90365 0.0
H1123 H 0.69752 0.35606 0.88024 0.0
H1124 H 0.69216 0.45051 0.87652 0.0
H1125 H 0.76841 0.41305 0.91312 0.0
H1126 H 0.75377 0.40046 0.89031 0.0
H1127 H 0.74427 0.39648 0.91849 0.0
C1128 C 0.70302 0.39586 0.83979 0.0
C1129 C 0.69878 0.37486 0.84931 0.0
C1130 C 0.70962 0.41354 0.85308 0.0
C1131 C 0.71188 0.41067 0.87617 0.0
C1132 C 0.70714 0.38985 0.8858 0.0
H1133 H 0.7087 0.51962 0.96882 0.0
H1134 H 0.70081 0.48779 0.94532 0.0
C1135 C 0.70091 0.372 0.87244 0.0
C1136 C 0.71835 0.4298 0.89013 0.0
H1137 H 0.755 0.44647 0.92996 0.0
C1138 C 0.70601 0.44965 0.88808 0.0
C1139 C 0.73668 0.42884 0.90492 0.0
C1140 C 0.75169 0.40864 0.90669 0.0
C1141 C 0.71122 0.46843 0.90065 0.0
C1142 C 0.72874 0.46707 0.91636 0.0
C1143 C 0.74139 0.44739 0.91812 0.0
C1144 C 0.73396 0.48581 0.93131 0.0
C1145 C 0.69814 0.48965 0.89659 0.0
C1146 C 0.75554 0.49462 0.93206 0.0
C1147 C 0.76025 0.51258 0.9459 0.0
C1148 C 0.74339 0.5221 0.95904 0.0
C1149 C 0.72195 0.51292 0.95857 0.0
C1150 C 0.71737 0.49479 0.94505 0.0
H1151 H 0.69089 0.49013 0.87958 0.0
H1152 H 0.68416 0.49055 0.90863 0.0
H1153 H 0.70869 0.50457 0.89871 0.0
H1154 H 0.76864 0.4878 0.92172 0.0
H1155 H 0.77694 0.51927 0.94599 0.0
H1156 H 0.64424 0.92747 0.12579 0.0
H1157 H 0.66755 0.93201 0.15832 0.0
H1158 H 0.61256 0.96174 0.19376 0.0
H1159 H 0.5888 0.9574 0.16077 0.0
H1160 H 0.65062 0.98675 0.19518 0.0
H1161 H 0.67152 0.90018 0.21791 0.0
H1162 H 0.67481 0.904 0.18849 0.0
H1163 H 0.64765 0.90731 0.20088 0.0
C1164 C 0.63694 0.93485 0.1405 0.0
C1165 C 0.61472 0.94229 0.14064 0.0
C1166 C 0.65024 0.93712 0.15924 0.0
C1167 C 0.64163 0.94672 0.17861 0.0
C1168 C 0.61936 0.95397 0.17903 0.0
H1169 H 0.75647 0.95949 0.26811 0.0
H1170 H 0.71777 0.95129 0.25864 0.0
C1171 C 0.60589 0.95157 0.16019 0.0
C1172 C 0.65708 0.95143 0.19705 0.0
H1173 H 0.70152 0.92752 0.22344 0.0
C1174 C 0.66131 0.97376 0.20202 0.0
C1175 C 0.67069 0.93449 0.20645 0.0
C1176 C 0.66573 0.91015 0.20333 0.0
C1177 C 0.68041 0.9797 0.21387 0.0
C1178 C 0.69571 0.96287 0.22042 0.0
C1179 C 0.69005 0.94044 0.21788 0.0
C1180 C 0.71877 0.96825 0.22677 0.0
C1181 C 0.68468 0.004 0.21815 0.0
C1182 C 0.73226 0.9799 0.21167 0.0
C1183 C 0.75432 0.98451 0.2169 0.0
C1184 C 0.76342 0.97738 0.23731 0.0
C1185 C 0.74999 0.96523 0.25223 0.0
C1186 C 0.72785 0.96063 0.24695 0.0
H1187 H 0.66879 0.01342 0.2198 0.0
H1188 H 0.69471 0.0063 0.23347 0.0
H1189 H 0.69391 0.01121 0.20384 0.0
H1190 H 0.72575 0.98531 0.19568 0.0
H1191 H 0.76416 0.99378 0.20495 0.0
H1192 H 0.2109 0.15215 0.11235 0.0
H1193 H 0.21819 0.12042 0.08797 0.0
H1194 H 0.18629 0.07665 0.13521 0.0
H1195 H 0.17904 0.10805 0.15967 0.0
H1196 H 0.22951 0.06302 0.12216 0.0
H1197 H 0.17526 0.08291 0.04956 0.0
H1198 H 0.19332 0.10483 0.05851 0.0
H1199 H 0.17132 0.09555 0.07645 0.0
C1200 C 0.20513 0.13583 0.11739 0.0
C1201 C 0.1945 0.13263 0.13802 0.0
C1202 C 0.20926 0.11774 0.10341 0.0
C1203 C 0.20269 0.09624 0.10978 0.0
C1204 C 0.1915 0.09313 0.13002 0.0
H1205 H 0.19965 0.97274 0.03759 0.0
H1206 H 0.19125 0.00653 0.05842 0.0
C1207 C 0.18737 0.11113 0.14397 0.0
C1208 C 0.20867 0.07667 0.0962 0.0
H1209 H 0.1992 0.0516 0.04636 0.0
C1210 C 0.22292 0.06052 0.10557 0.0
C1211 C 0.1999 0.07344 0.07466 0.0
C1212 C 0.18395 0.08997 0.06417 0.0
C1213 C 0.22865 0.04114 0.09398 0.0
C1214 C 0.2201 0.03802 0.07232 0.0
C1215 C 0.20582 0.05416 0.06293 0.0
C1216 C 0.22535 0.01777 0.05942 0.0
C1217 C 0.24336 0.02395 0.10521 0.0
C1218 C 0.24729 0.01301 0.05296 0.0
C1219 C 0.2522 0.99366 0.04114 0.0
C1220 C 0.2352 0.97876 0.03543 0.0
C1221 C 0.21318 0.98375 0.04177 0.0
C1222 C 0.20831 0.0031 0.0536 0.0
H1223 H 0.24424 0.02643 0.12349 0.0
H1224 H 0.23727 0.00687 0.102 0.0
H1225 H 0.26049 0.02523 0.09843 0.0
H1226 H 0.26062 0.02432 0.057 0.0
H1227 H 0.26931 0.99047 0.03638 0.0
H1228 H 0.39596 0.5299 0.14245 0.0
H1229 H 0.3654 0.52759 0.16958 0.0
H1230 H 0.35066 0.59727 0.15889 0.0
H1231 H 0.38041 0.59933 0.13116 0.0
H1232 H 0.35041 0.549 0.20832 0.0
H1233 H 0.29511 0.56692 0.13611 0.0
H1234 H 0.3244 0.56113 0.13295 0.0
H1235 H 0.31505 0.58828 0.14147 0.0
C1236 C 0.38655 0.5448 0.14642 0.0
C1237 C 0.39022 0.56471 0.13465 0.0
C1238 C 0.36912 0.54349 0.16185 0.0
C1239 C 0.35543 0.56215 0.1658 0.0
C1240 C 0.36067 0.58257 0.15568 0.0
H1241 H 0.23765 0.55689 0.25442 0.0
H1242 H 0.27377 0.56805 0.23889 0.0
C1243 C 0.37769 0.58376 0.13996 0.0
C1244 C 0.33418 0.5596 0.17806 0.0
H1245 H 0.27787 0.56251 0.1709 0.0
C1246 C 0.33452 0.55207 0.20025 0.0
C1247 C 0.31348 0.56339 0.16734 0.0
C1248 C 0.31188 0.57017 0.14311 0.0
C1249 C 0.31464 0.54793 0.21191 0.0
C1250 C 0.294 0.55177 0.20114 0.0
C1251 C 0.29374 0.55978 0.17916 0.0
C1252 C 0.27247 0.54527 0.21121 0.0
C1253 C 0.31584 0.53861 0.23527 0.0
C1254 C 0.25961 0.5292 0.20054 0.0
C1255 C 0.23901 0.52307 0.2091 0.0
C1256 C 0.2307 0.53281 0.22866 0.0
C1257 C 0.24355 0.54905 0.23935 0.0
C1258 C 0.26427 0.5553 0.23062 0.0
H1259 H 0.33292 0.53289 0.23969 0.0
H1260 H 0.31079 0.55171 0.2472 0.0
H1261 H 0.30425 0.52443 0.2373 0.0
H1262 H 0.26559 0.52129 0.18551 0.0
H1263 H 0.22971 0.51047 0.20039 0.0
H1264 H 0.75447 0.35616 0.11848 0.0
H1265 H 0.73989 0.39146 0.10324 0.0
H1266 H 0.80268 0.42288 0.11688 0.0
H1267 H 0.81715 0.38795 0.13228 0.0
H1268 H 0.76519 0.44448 0.13591 0.0
H1269 H 0.75307 0.42747 0.04574 0.0
H1270 H 0.7414 0.4079 0.06525 0.0
H1271 H 0.77105 0.41047 0.06309 0.0
C1272 C 0.76536 0.37042 0.11752 0.0
C1273 C 0.78695 0.36934 0.12653 0.0
C1274 C 0.75698 0.39059 0.10893 0.0
C1275 C 0.7702 0.40979 0.10903 0.0
C1276 C 0.79217 0.4083 0.11678 0.0
H1277 H 0.77988 0.54405 0.07383 0.0
H1278 H 0.77978 0.50868 0.09399 0.0
C1279 C 0.80046 0.38831 0.12544 0.0
C1280 C 0.76099 0.43192 0.10271 0.0
H1281 H 0.74431 0.46345 0.05818 0.0
C1282 C 0.76038 0.44859 0.11896 0.0
C1283 C 0.75446 0.43714 0.08068 0.0
C1284 C 0.75509 0.41992 0.06257 0.0
C1285 C 0.75429 0.47058 0.11357 0.0
C1286 C 0.74894 0.47609 0.0913 0.0
C1287 C 0.74838 0.45917 0.07529 0.0
C1288 C 0.74662 0.49951 0.08358 0.0
C1289 C 0.75405 0.48779 0.13169 0.0
C1290 C 0.72768 0.50654 0.0717 0.0
C1291 C 0.72766 0.5269 0.06019 0.0
C1292 C 0.74678 0.54029 0.06003 0.0
C1293 C 0.76492 0.5341 0.07358 0.0
C1294 C 0.76486 0.51386 0.08518 0.0
H1295 H 0.75095 0.48003 0.14825 0.0
H1296 H 0.77053 0.49597 0.13233 0.0
H1297 H 0.74115 0.50078 0.12853 0.0
H1298 H 0.71344 0.49569 0.07025 0.0
H1299 H 0.71345 0.5311 0.04983 0.0
H1300 H 0.41014 0.65421 0.08051 0.0
H1301 H 0.38654 0.68725 0.08016 0.0
H1302 H 0.33284 0.6494 0.05212 0.0
H1303 H 0.35666 0.61593 0.05217 0.0
H1304 H 0.34143 0.68838 0.02905 0.0
H1305 H 0.33438 0.70622 0.11894 0.0
H1306 H 0.36273 0.70222 0.11036 0.0
H1307 H 0.34347 0.67949 0.10861 0.0
C1308 C 0.39326 0.65275 0.07439 0.0
C1309 C 0.38535 0.63239 0.06619 0.0
C1310 C 0.37968 0.67168 0.07446 0.0
C1311 C 0.35779 0.67076 0.06649 0.0
C1312 C 0.34964 0.65042 0.05857 0.0
H1313 H 0.26497 0.78309 0.05395 0.0
H1314 H 0.28236 0.74868 0.06771 0.0
C1315 C 0.36325 0.63132 0.05858 0.0
C1316 C 0.34441 0.69158 0.06458 0.0
H1317 H 0.32667 0.73697 0.0939 0.0
C1318 C 0.3379 0.69881 0.04328 0.0
C1319 C 0.33972 0.70519 0.08317 0.0
C1320 C 0.34524 0.69779 0.10658 0.0
C1321 C 0.32776 0.71969 0.03995 0.0
C1322 C 0.32423 0.7338 0.05836 0.0
C1323 C 0.32976 0.72624 0.0798 0.0
C1324 C 0.3151 0.75657 0.05516 0.0
C1325 C 0.32123 0.72675 0.01666 0.0
C1326 C 0.32812 0.77294 0.04484 0.0
C1327 C 0.31831 0.79268 0.03703 0.0
C1328 C 0.29523 0.79628 0.03927 0.0
C1329 C 0.28275 0.78087 0.05182 0.0
C1330 C 0.29262 0.76111 0.05964 0.0
H1331 H 0.32136 0.71253 0.00496 0.0
H1332 H 0.30437 0.73447 0.0166 0.0
H1333 H 0.33315 0.73938 0.01045 0.0
H1334 H 0.34557 0.76978 0.04145 0.0
H1335 H 0.3285 0.80425 0.02767 0.0
H1336 H 0.37942 0.37008 0.48316 0.0
H1337 H 0.3581 0.33533 0.48207 0.0
H1338 H 0.34694 0.34504 0.41172 0.0
H1339 H 0.36854 0.37949 0.41279 0.0
H1340 H 0.31502 0.32282 0.46767 0.0
H1341 H 0.382 0.28605 0.41537 0.0
H1342 H 0.38519 0.31216 0.42958 0.0
H1343 H 0.36925 0.31094 0.40434 0.0
C1344 C 0.37165 0.36515 0.46772 0.0
C1345 C 0.37516 0.37748 0.44815 0.0
C1346 C 0.35968 0.34526 0.46703 0.0
C1347 C 0.35132 0.33742 0.44672 0.0
C1348 C 0.35355 0.35061 0.42747 0.0
H1349 H 0.27013 0.21717 0.44473 0.0
H1350 H 0.2852 0.253 0.43282 0.0
C1351 C 0.36557 0.37041 0.42815 0.0
C1352 C 0.34187 0.31473 0.44544 0.0
H1353 H 0.35165 0.26292 0.42421 0.0
C1354 C 0.32286 0.30977 0.458 0.0
C1355 C 0.35238 0.29768 0.43301 0.0
C1356 C 0.37344 0.30182 0.41994 0.0
C1357 C 0.31418 0.28814 0.45869 0.0
C1358 C 0.32462 0.2711 0.4462 0.0
C1359 C 0.34351 0.2761 0.43346 0.0
C1360 C 0.31739 0.24761 0.44812 0.0
C1361 C 0.29444 0.28349 0.47354 0.0
C1362 C 0.33116 0.23199 0.45896 0.0
C1363 C 0.3227 0.21138 0.46564 0.0
C1364 C 0.30025 0.20614 0.46168 0.0
C1365 C 0.2874 0.22073 0.44833 0.0
C1366 C 0.2959 0.24135 0.44167 0.0
H1367 H 0.29097 0.29741 0.48512 0.0
H1368 H 0.27943 0.28105 0.46311 0.0
H1369 H 0.29723 0.26805 0.48349 0.0
H1370 H 0.34792 0.23639 0.46381 0.0
H1371 H 0.33319 0.20044 0.4756 0.0
H1372 H 0.60836 0.36672 0.8102 0.0
H1373 H 0.57516 0.38561 0.79589 0.0
H1374 H 0.60603 0.39186 0.73136 0.0
H1375 H 0.63962 0.3728 0.74576 0.0
H1376 H 0.56845 0.42799 0.77364 0.0
H1377 H 0.54778 0.35487 0.72118 0.0
H1378 H 0.5679 0.35304 0.74347 0.0
H1379 H 0.57485 0.3672 0.71805 0.0
C1380 C 0.60831 0.37263 0.79311 0.0
C1381 C 0.62652 0.36838 0.77908 0.0
C1382 C 0.58931 0.38333 0.78493 0.0
C1383 C 0.58801 0.38977 0.7625 0.0
C1384 C 0.60666 0.38675 0.74867 0.0
H1385 H 0.46611 0.45038 0.70817 0.0
H1386 H 0.50254 0.4319 0.7086 0.0
C1387 C 0.6259 0.37617 0.75696 0.0
C1388 C 0.56651 0.39842 0.75381 0.0
H1389 H 0.5204 0.38287 0.72452 0.0
C1390 C 0.55811 0.41834 0.76257 0.0
C1391 C 0.553 0.38568 0.73948 0.0
C1392 C 0.56116 0.36393 0.73 0.0
C1393 C 0.53631 0.4255 0.75799 0.0
C1394 C 0.52246 0.41224 0.74455 0.0
C1395 C 0.53109 0.39285 0.73492 0.0
C1396 C 0.49865 0.41801 0.74164 0.0
C1397 C 0.52792 0.44689 0.76812 0.0
C1398 C 0.48392 0.41501 0.7595 0.0
C1399 C 0.46307 0.42546 0.75933 0.0
C1400 C 0.4567 0.43922 0.74132 0.0
C1401 C 0.47045 0.43995 0.72233 0.0
C1402 C 0.49137 0.4295 0.72256 0.0
H1403 H 0.5417 0.4571 0.77478 0.0
H1404 H 0.51853 0.45693 0.75561 0.0
H1405 H 0.51638 0.44291 0.782 0.0
H1406 H 0.48924 0.40601 0.7743 0.0
H1407 H 0.45282 0.42438 0.77413 0.0
H1408 H 0.65877 0.09064 0.46188 0.0
H1409 H 0.69249 0.11343 0.4651 0.0
H1410 H 0.65687 0.16968 0.43716 0.0
H1411 H 0.62368 0.14741 0.43368 0.0
H1412 H 0.70063 0.16266 0.41918 0.0
H1413 H 0.69821 0.16373 0.51202 0.0
H1414 H 0.69884 0.13752 0.4977 0.0
H1415 H 0.67442 0.15484 0.49619 0.0
C1416 C 0.65821 0.10787 0.45646 0.0
C1417 C 0.63845 0.11727 0.44779 0.0
C1418 C 0.67746 0.12081 0.45825 0.0
C1419 C 0.6771 0.14321 0.45137 0.0
C1420 C 0.65753 0.15238 0.44242 0.0
H1421 H 0.70431 0.26911 0.47984 0.0
H1422 H 0.69474 0.23041 0.47347 0.0
C1423 C 0.63847 0.13961 0.44064 0.0
C1424 C 0.69623 0.15815 0.45447 0.0
H1425 H 0.71734 0.19242 0.49395 0.0
C1426 C 0.70502 0.16876 0.43553 0.0
C1427 C 0.70186 0.16591 0.47585 0.0
C1428 C 0.6929 0.15503 0.4967 0.0
C1429 C 0.71726 0.18845 0.43734 0.0
C1430 C 0.72093 0.19743 0.45864 0.0
C1431 C 0.71429 0.18546 0.47765 0.0
C1432 C 0.72738 0.22089 0.46148 0.0
C1433 C 0.72425 0.20067 0.41647 0.0
C1434 C 0.74883 0.22842 0.45638 0.0
C1435 C 0.75436 0.25074 0.45984 0.0
C1436 C 0.73852 0.2657 0.4686 0.0
C1437 C 0.71694 0.25806 0.47317 0.0
C1438 C 0.71146 0.23591 0.46964 0.0
H1439 H 0.71912 0.19189 0.40113 0.0
H1440 H 0.71686 0.21767 0.41621 0.0
H1441 H 0.74262 0.20242 0.41628 0.0
H1442 H 0.76136 0.217 0.45016 0.0
H1443 H 0.77118 0.25608 0.45631 0.0
H1444 H 0.8587 0.61895 0.27443 0.0
H1445 H 0.89292 0.60094 0.26081 0.0
H1446 H 0.92872 0.62536 0.31767 0.0
H1447 H 0.89481 0.64317 0.33136 0.0
H1448 H 0.93385 0.62379 0.2505 0.0
H1449 H 0.94605 0.55901 0.3157 0.0
H1450 H 0.91959 0.57275 0.31103 0.0
H1451 H 0.94104 0.5863 0.32666 0.0
C1452 C 0.87374 0.61995 0.2843 0.0
C1453 C 0.87403 0.63234 0.30407 0.0
C1454 C 0.89331 0.60986 0.27639 0.0
C1455 C 0.91334 0.61172 0.28829 0.0
C1456 C 0.91342 0.62345 0.30836 0.0
H1457 H 0.05019 0.57193 0.28155 0.0
H1458 H 0.01546 0.59238 0.28779 0.0
C1459 C 0.89401 0.63364 0.31616 0.0
C1460 C 0.93452 0.60243 0.27947 0.0
H1461 H 0.97747 0.56738 0.29303 0.0
C1462 C 0.94332 0.61127 0.25962 0.0
C1463 C 0.94684 0.58614 0.29141 0.0
C1464 C 0.93783 0.57532 0.31227 0.0
C1465 C 0.96455 0.60485 0.2519 0.0
C1466 C 0.97711 0.58902 0.26423 0.0
C1467 C 0.96798 0.57977 0.28373 0.0
C1468 C 0.99973 0.58143 0.25745 0.0
C1469 C 0.97364 0.61559 0.23106 0.0
C1470 C 0.00296 0.56956 0.23765 0.0
C1471 C 0.02301 0.55809 0.23388 0.0
C1472 C 0.03994 0.55803 0.25005 0.0
C1473 C 0.03743 0.57165 0.2688 0.0
C1474 C 0.01752 0.58322 0.27246 0.0
H1475 H 0.96455 0.63121 0.22673 0.0
H1476 H 0.9916 0.61938 0.23296 0.0
H1477 H 0.97185 0.60392 0.21697 0.0
H1478 H 0.98941 0.56767 0.22595 0.0
H1479 H 0.0243 0.54749 0.21943 0.0
H1480 H 0.15725 0.40755 0.55539 0.0
H1481 H 0.18966 0.38264 0.55188 0.0
H1482 H 0.15137 0.32857 0.57947 0.0
H1483 H 0.11941 0.35315 0.58351 0.0
H1484 H 0.19486 0.3292 0.59522 0.0
H1485 H 0.19117 0.33608 0.50263 0.0
H1486 H 0.19509 0.36125 0.51807 0.0
H1487 H 0.16915 0.34672 0.52004 0.0
C1488 C 0.15586 0.39039 0.56088 0.0
C1489 C 0.13563 0.38223 0.56934 0.0
C1490 C 0.17435 0.37621 0.55883 0.0
C1491 C 0.17279 0.3537 0.56513 0.0
C1492 C 0.15294 0.34587 0.5745 0.0
H1493 H 0.20582 0.22945 0.52203 0.0
H1494 H 0.19308 0.26643 0.5325 0.0
C1495 C 0.13459 0.35995 0.57662 0.0
C1496 C 0.19079 0.33745 0.56051 0.0
H1497 H 0.21268 0.30728 0.51785 0.0
C1498 C 0.19928 0.3247 0.57834 0.0
C1499 C 0.19641 0.33166 0.53844 0.0
C1500 C 0.18746 0.3445 0.51862 0.0
C1501 C 0.21179 0.30525 0.57461 0.0
C1502 C 0.2161 0.2987 0.55251 0.0
C1503 C 0.20921 0.31243 0.53477 0.0
C1504 C 0.22436 0.27613 0.54723 0.0
C1505 C 0.21877 0.29095 0.59419 0.0
C1506 C 0.24613 0.26923 0.55236 0.0
C1507 C 0.2535 0.24789 0.54651 0.0
C1508 C 0.2392 0.23329 0.53528 0.0
C1509 C 0.21731 0.24025 0.53055 0.0
C1510 C 0.21 0.26143 0.53647 0.0
H1511 H 0.21223 0.29739 0.61021 0.0
H1512 H 0.21282 0.27364 0.59201 0.0
H1513 H 0.23721 0.29034 0.59517 0.0
H1514 H 0.2575 0.28045 0.56049 0.0
H1515 H 0.27051 0.24307 0.55024 0.0
H1516 H 0.65366 0.61322 0.71028 0.0
H1517 H 0.62272 0.58753 0.71672 0.0
H1518 H 0.57777 0.64339 0.72389 0.0
H1519 H 0.60826 0.66899 0.71672 0.0
H1520 H 0.59399 0.58131 0.75084 0.0
H1521 H 0.54773 0.6086 0.67573 0.0
H1522 H 0.57614 0.61659 0.6808 0.0
H1523 H 0.55349 0.63153 0.69365 0.0
C1524 C 0.63717 0.61996 0.7133 0.0
C1525 C 0.63326 0.64304 0.7127 0.0
C1526 C 0.61955 0.60531 0.71696 0.0
C1527 C 0.59789 0.6136 0.72021 0.0
C1528 C 0.59423 0.63666 0.72071 0.0
H1529 H 0.48319 0.5477 0.77557 0.0
H1530 H 0.51787 0.56795 0.76947 0.0
C1531 C 0.61169 0.65126 0.71671 0.0
C1532 C 0.57895 0.59828 0.72285 0.0
H1533 H 0.5271 0.58781 0.70276 0.0
C1534 C 0.57943 0.58252 0.74021 0.0
C1535 C 0.56022 0.59958 0.70863 0.0
C1536 C 0.55945 0.61482 0.68852 0.0
C1537 C 0.56126 0.56851 0.74423 0.0
C1538 C 0.54192 0.57091 0.73094 0.0
C1539 C 0.5418 0.58619 0.71315 0.0
C1540 C 0.5215 0.55793 0.7351 0.0
C1541 C 0.56313 0.55117 0.76248 0.0
C1542 C 0.51165 0.54619 0.71763 0.0
C1543 C 0.49155 0.53522 0.72089 0.0
C1544 C 0.48107 0.53555 0.74177 0.0
C1545 C 0.49103 0.54707 0.75935 0.0
C1546 C 0.51095 0.55843 0.75594 0.0
H1547 H 0.58078 0.54656 0.76575 0.0
H1548 H 0.55611 0.55804 0.77808 0.0
H1549 H 0.55385 0.53587 0.75823 0.0
H1550 H 0.51946 0.54564 0.70139 0.0
H1551 H 0.48435 0.52628 0.7071 0.0
H1552 H 0.39125 0.83961 0.67613 0.0
H1553 H 0.42301 0.86166 0.68801 0.0
H1554 H 0.37881 0.90684 0.72205 0.0
H1555 H 0.3468 0.88497 0.71018 0.0
H1556 H 0.41305 0.92773 0.69657 0.0
H1557 H 0.44595 0.86174 0.75312 0.0
H1558 H 0.44077 0.85261 0.72522 0.0
H1559 H 0.4179 0.86155 0.74232 0.0
C1560 C 0.38821 0.85432 0.686 0.0
C1561 C 0.36648 0.8604 0.69238 0.0
C1562 C 0.4064 0.8668 0.69289 0.0
C1563 C 0.40323 0.88554 0.70629 0.0
C1564 C 0.38156 0.89227 0.71189 0.0
H1565 H 0.51075 0.95337 0.77639 0.0
H1566 H 0.47612 0.93379 0.76802 0.0
C1567 C 0.36331 0.87977 0.70504 0.0
C1568 C 0.42261 0.898 0.71452 0.0
H1569 H 0.46993 0.89234 0.74558 0.0
C1570 C 0.42541 0.92009 0.70742 0.0
C1571 C 0.43845 0.88806 0.72899 0.0
C1572 C 0.43559 0.86475 0.73806 0.0
C1573 C 0.44419 0.93225 0.7137 0.0
C1574 C 0.46062 0.92189 0.7272 0.0
C1575 C 0.45737 0.90012 0.73505 0.0
C1576 C 0.48175 0.93309 0.73248 0.0
C1577 C 0.44636 0.95603 0.70577 0.0
C1578 C 0.49655 0.93856 0.71531 0.0
C1579 C 0.51629 0.94961 0.71999 0.0
C1580 C 0.52169 0.95536 0.74199 0.0
C1581 C 0.5071 0.94924 0.75927 0.0
C1582 C 0.4873 0.93811 0.75454 0.0
H1583 H 0.43 0.96327 0.70084 0.0
H1584 H 0.45377 0.96658 0.71887 0.0
H1585 H 0.45746 0.95655 0.69101 0.0
H1586 H 0.49276 0.93438 0.69824 0.0
H1587 H 0.52716 0.95389 0.70625 0.0
H1588 H 0.6026 0.8718 0.13383 0.0
H1589 H 0.60527 0.84993 0.16835 0.0
H1590 H 0.53442 0.83874 0.16629 0.0
H1591 H 0.53194 0.86018 0.13141 0.0
H1592 H 0.58597 0.8626 0.20598 0.0
H1593 H 0.55659 0.77818 0.1858 0.0
H1594 H 0.56471 0.79797 0.16457 0.0
H1595 H 0.53727 0.79922 0.17661 0.0
C1596 C 0.5878 0.86381 0.14032 0.0
C1597 C 0.56715 0.86712 0.12985 0.0
C1598 C 0.5893 0.85151 0.16011 0.0
C1599 C 0.5701 0.84249 0.16987 0.0
C1600 C 0.54956 0.84501 0.15882 0.0
H1601 H 0.52973 0.82604 0.30319 0.0
H1602 H 0.54467 0.84078 0.26849 0.0
C1603 C 0.54811 0.85721 0.13889 0.0
C1604 C 0.57109 0.83294 0.19276 0.0
H1605 H 0.55457 0.78864 0.22441 0.0
C1606 C 0.57945 0.84625 0.20995 0.0
C1607 C 0.56292 0.81151 0.19799 0.0
C1608 C 0.55509 0.79582 0.18022 0.0
C1609 C 0.57878 0.83918 0.23228 0.0
C1610 C 0.56913 0.81843 0.23764 0.0
C1611 C 0.56185 0.80464 0.22036 0.0
C1612 C 0.56441 0.81149 0.26096 0.0
C1613 C 0.5882 0.85416 0.2499 0.0
C1614 C 0.57116 0.79042 0.26882 0.0
C1615 C 0.56252 0.78185 0.28873 0.0
C1616 C 0.54671 0.7941 0.30098 0.0
C1617 C 0.54176 0.81607 0.29417 0.0
C1618 C 0.55038 0.82459 0.27428 0.0
H1619 H 0.60163 0.86481 0.24302 0.0
H1620 H 0.57481 0.86532 0.2561 0.0
H1621 H 0.59496 0.8444 0.26419 0.0
H1622 H 0.58205 0.78005 0.25887 0.0
H1623 H 0.56682 0.76491 0.29345 0.0
H1624 H 0.1381 0.18375 0.11754 0.0
H1625 H 0.11029 0.19472 0.08986 0.0
H1626 H 0.08575 0.24595 0.13349 0.0
H1627 H 0.11361 0.235 0.16155 0.0
H1628 H 0.05915 0.20112 0.09647 0.0
H1629 H 0.10833 0.27569 0.0714 0.0
H1630 H 0.12145 0.2521 0.08501 0.0
H1631 H 0.10322 0.26994 0.10046 0.0
C1632 C 0.12665 0.19721 0.12138 0.0
C1633 C 0.12813 0.20866 0.14161 0.0
C1634 C 0.11076 0.20338 0.1056 0.0
C1635 C 0.0962 0.22118 0.10968 0.0
C1636 C 0.09699 0.23219 0.13013 0.0
H1637 H 0.01982 0.27883 0.99833 0.0
H1638 H 0.03564 0.27415 0.03563 0.0
C1639 C 0.11282 0.22588 0.1461 0.0
C1640 C 0.08123 0.22879 0.09172 0.0
H1641 H 0.07888 0.26538 0.04809 0.0
C1642 C 0.06313 0.21541 0.08609 0.0
C1643 C 0.08652 0.2475 0.07841 0.0
C1644 C 0.10594 0.26223 0.08395 0.0
C1645 C 0.05067 0.21974 0.0668 0.0
C1646 C 0.05696 0.23751 0.05259 0.0
C1647 C 0.07424 0.25168 0.05896 0.0
C1648 C 0.04717 0.24043 0.03019 0.0
C1649 C 0.03121 0.20494 0.06159 0.0
C1650 C 0.04898 0.22323 0.01466 0.0
C1651 C 0.04001 0.22581 0.9934 0.0
C1652 C 0.02925 0.24577 0.98716 0.0
C1653 C 0.02799 0.26323 0.00259 0.0
C1654 C 0.03693 0.26058 0.02393 0.0
H1655 H 0.02411 0.19749 0.07699 0.0
H1656 H 0.01786 0.21428 0.05267 0.0
H1657 H 0.03695 0.19111 0.05085 0.0
H1658 H 0.05743 0.20779 0.01896 0.0
H1659 H 0.04147 0.21208 0.98191 0.0
H1660 H 0.46502 0.65033 0.09331 0.0
H1661 H 0.46848 0.68151 0.11923 0.0
H1662 H 0.45745 0.63667 0.17451 0.0
H1663 H 0.45389 0.60567 0.14905 0.0
H1664 H 0.43001 0.67765 0.17288 0.0
H1665 H 0.52146 0.69104 0.16446 0.0
H1666 H 0.50438 0.68952 0.13987 0.0
H1667 H 0.50895 0.66505 0.15657 0.0
C1668 C 0.4636 0.64711 0.11101 0.0
C1669 C 0.45928 0.62552 0.11915 0.0
C1670 C 0.4655 0.66492 0.12573 0.0
C1671 C 0.46315 0.66127 0.14867 0.0
C1672 C 0.45917 0.63975 0.15679 0.0
H1673 H 0.49823 0.698 0.27355 0.0
H1674 H 0.49138 0.68489 0.23599 0.0
C1675 C 0.45725 0.62205 0.14221 0.0
C1676 C 0.46483 0.67952 0.16475 0.0
H1677 H 0.5034 0.7077 0.19474 0.0
C1678 C 0.4459 0.6848 0.17737 0.0
C1679 C 0.48563 0.68867 0.17036 0.0
C1680 C 0.50637 0.68336 0.15722 0.0
C1681 C 0.44756 0.6976 0.19666 0.0
C1682 C 0.46867 0.70537 0.20319 0.0
C1683 C 0.48727 0.70161 0.18957 0.0
C1684 C 0.47248 0.714 0.22572 0.0
C1685 C 0.42715 0.7012 0.21086 0.0
C1686 C 0.46387 0.73465 0.23236 0.0
C1687 C 0.46763 0.74219 0.25397 0.0
C1688 C 0.48015 0.7292 0.26914 0.0
C1689 C 0.48855 0.70845 0.26234 0.0
C1690 C 0.48475 0.70096 0.24085 0.0
H1691 H 0.41236 0.69243 0.20427 0.0
H1692 H 0.43034 0.69526 0.22813 0.0
H1693 H 0.42322 0.71925 0.21158 0.0
H1694 H 0.45445 0.74495 0.2208 0.0
H1695 H 0.46106 0.75833 0.25863 0.0
H1696 H 0.86611 0.26005 0.13355 0.0
H1697 H 0.88365 0.24475 0.10006 0.0
H1698 H 0.85466 0.29784 0.0606 0.0
H1699 H 0.83674 0.31282 0.09374 0.0
H1700 H 0.84803 0.2575 0.0418 0.0
H1701 H 0.93701 0.26635 0.0653 0.0
H1702 H 0.92056 0.25065 0.08471 0.0
H1703 H 0.91484 0.2798 0.08046 0.0
C1704 C 0.86383 0.26866 0.11779 0.0
C1705 C 0.85008 0.28767 0.1163 0.0
C1706 C 0.87385 0.2599 0.09865 0.0
C1707 C 0.87059 0.27022 0.0778 0.0
C1708 C 0.85735 0.28952 0.07646 0.0
H1709 H 0.91666 0.27043 0.94514 0.0
H1710 H 0.89341 0.27208 0.97839 0.0
C1711 C 0.8472 0.29813 0.09546 0.0
C1712 C 0.88028 0.26078 0.05711 0.0
H1713 H 0.92949 0.24938 0.03098 0.0
C1714 C 0.86585 0.25559 0.0395 0.0
C1715 C 0.90352 0.25815 0.05411 0.0
C1716 C 0.91994 0.26419 0.07204 0.0
C1717 C 0.87404 0.24839 0.01885 0.0
C1718 C 0.89726 0.24643 0.01567 0.0
C1719 C 0.91166 0.25077 0.03351 0.0
C1720 C 0.90725 0.2422 0.99348 0.0
C1721 C 0.85779 0.24319 0.00052 0.0
C1722 C 0.9221 0.22433 0.99044 0.0
C1723 C 0.93534 0.22324 0.9713 0.0
C1724 C 0.93426 0.2403 0.95512 0.0
C1725 C 0.91792 0.25704 0.9573 0.0
C1726 C 0.90457 0.258 0.97633 0.0
H1727 H 0.84112 0.23898 0.0073 0.0
H1728 H 0.85585 0.25802 0.98954 0.0
H1729 H 0.86387 0.22912 0.99024 0.0
H1730 H 0.92443 0.21198 0.0035 0.0
H1731 H 0.94783 0.21019 0.97025 0.0
H1732 H 0.54008 0.14153 0.37968 0.0
H1733 H 0.53862 0.16299 0.34473 0.0
H1734 H 0.60919 0.1525 0.33573 0.0
H1735 H 0.61033 0.13004 0.36993 0.0
H1736 H 0.55681 0.19868 0.3259 0.0
H1737 H 0.58612 0.1237 0.28097 0.0
H1738 H 0.57912 0.12303 0.31011 0.0
H1739 H 0.60574 0.13336 0.3011 0.0
C1740 C 0.55534 0.14441 0.37052 0.0
C1741 C 0.57532 0.13425 0.37739 0.0
C1742 C 0.55451 0.15652 0.35049 0.0
C1743 C 0.57368 0.15878 0.33719 0.0
C1744 C 0.59404 0.15037 0.34525 0.0
H1745 H 0.56024 0.24018 0.2149 0.0
H1746 H 0.57628 0.22562 0.24958 0.0
C1747 C 0.59476 0.13784 0.36495 0.0
C1748 C 0.57196 0.16837 0.3143 0.0
H1749 H 0.5805 0.15619 0.25945 0.0
C1750 C 0.5621 0.18946 0.31137 0.0
C1751 C 0.57857 0.15617 0.29526 0.0
C1752 C 0.58776 0.13274 0.29693 0.0
C1753 C 0.55827 0.1985 0.29003 0.0
C1754 C 0.5652 0.18644 0.27101 0.0
C1755 C 0.57551 0.16558 0.27398 0.0
C1756 C 0.55953 0.1939 0.24798 0.0
C1757 C 0.54578 0.22034 0.2881 0.0
C1758 C 0.54651 0.18017 0.23449 0.0
C1759 C 0.53779 0.1882 0.2144 0.0
C1760 C 0.54169 0.21027 0.20745 0.0
C1761 C 0.55664 0.2232 0.21984 0.0
C1762 C 0.56557 0.21502 0.23988 0.0
H1763 H 0.53719 0.22473 0.30386 0.0
H1764 H 0.55768 0.23383 0.28412 0.0
H1765 H 0.53317 0.21976 0.27461 0.0
H1766 H 0.54187 0.16367 0.24015 0.0
H1767 H 0.5266 0.17762 0.20523 0.0
H1768 H 0.34706 0.17485 0.90363 0.0
H1769 H 0.36334 0.18935 0.93771 0.0
H1770 H 0.39326 0.24289 0.90026 0.0
H1771 H 0.37734 0.22808 0.86581 0.0
H1772 H 0.42127 0.22597 0.93197 0.0
H1773 H 0.33908 0.24305 0.96992 0.0
H1774 H 0.34199 0.21452 0.96184 0.0
H1775 H 0.34227 0.23617 0.94091 0.0
C1776 C 0.35733 0.18957 0.90259 0.0
C1777 C 0.36081 0.2004 0.88206 0.0
C1778 C 0.36641 0.19798 0.92213 0.0
C1779 C 0.37887 0.21763 0.92167 0.0
C1780 C 0.38342 0.22787 0.90104 0.0
H1781 H 0.44561 0.28475 0.03207 0.0
H1782 H 0.42382 0.27994 0.99803 0.0
C1783 C 0.37447 0.2193 0.88136 0.0
C1784 C 0.38714 0.22727 0.94279 0.0
H1785 H 0.37043 0.24298 0.99481 0.0
C1786 C 0.41013 0.23004 0.94557 0.0
C1787 C 0.37256 0.23276 0.96051 0.0
C1788 C 0.34759 0.2317 0.95809 0.0
C1789 C 0.41901 0.23703 0.96595 0.0
C1790 C 0.4045 0.24151 0.98394 0.0
C1791 C 0.38148 0.23947 0.98099 0.0
C1792 C 0.41328 0.24656 0.00635 0.0
C1793 C 0.44394 0.23871 0.96846 0.0
C1794 C 0.41334 0.22991 0.02285 0.0
C1795 C 0.42574 0.23259 0.0423 0.0
C1796 C 0.43819 0.25203 0.04561 0.0
C1797 C 0.43614 0.26962 0.0301 0.0
C1798 C 0.42388 0.26683 0.01052 0.0
H1799 H 0.45299 0.23217 0.95374 0.0
H1800 H 0.44855 0.25642 0.97063 0.0
H1801 H 0.44959 0.22939 0.98349 0.0
H1802 H 0.40512 0.21421 0.01997 0.0
H1803 H 0.42691 0.21878 0.05398 0.0
H1804 H 0.42258 0.3871 0.35588 0.0
H1805 H 0.42354 0.35554 0.33092 0.0
H1806 H 0.45464 0.31512 0.38201 0.0
H1807 H 0.4541 0.34701 0.40725 0.0
H1808 H 0.47676 0.31293 0.34328 0.0
H1809 H 0.38788 0.29926 0.32622 0.0
H1810 H 0.39424 0.32816 0.32262 0.0
H1811 H 0.39726 0.31529 0.34969 0.0
C1812 C 0.4295 0.37149 0.36197 0.0
C1813 C 0.43846 0.36965 0.38352 0.0
C1814 C 0.42972 0.35333 0.34774 0.0
C1815 C 0.43867 0.33281 0.35477 0.0
C1816 C 0.44738 0.33075 0.37637 0.0
H1817 H 0.44816 0.23674 0.24361 0.0
H1818 H 0.43863 0.2492 0.28135 0.0
C1819 C 0.44718 0.349 0.3907 0.0
C1820 C 0.44122 0.31467 0.33843 0.0
H1821 H 0.41359 0.29009 0.29564 0.0
C1822 C 0.46285 0.30737 0.33331 0.0
C1823 C 0.42307 0.30701 0.32565 0.0
C1824 C 0.3993 0.31267 0.33153 0.0
C1825 C 0.46701 0.29458 0.31437 0.0
C1826 C 0.44915 0.28929 0.30011 0.0
C1827 C 0.42729 0.29455 0.30643 0.0
C1828 C 0.45336 0.2817 0.27719 0.0
C1829 C 0.49068 0.28798 0.30899 0.0
C1830 C 0.464 0.29618 0.26231 0.0
C1831 C 0.46932 0.28928 0.24093 0.0
C1832 C 0.46405 0.26768 0.23389 0.0
C1833 C 0.45247 0.25346 0.24853 0.0
C1834 C 0.44709 0.26048 0.27008 0.0
H1835 H 0.50111 0.28711 0.32425 0.0
H1836 H 0.49134 0.27161 0.30056 0.0
H1837 H 0.49798 0.30064 0.29765 0.0
H1838 H 0.46854 0.31281 0.26741 0.0
H1839 H 0.478 0.30079 0.23008 0.0
H1840 H 0.60499 0.28313 0.84396 0.0
H1841 H 0.58182 0.27582 0.87677 0.0
H1842 H 0.61635 0.32698 0.91261 0.0
H1843 H 0.63965 0.33421 0.88015 0.0
H1844 H 0.61704 0.2847 0.93324 0.0
H1845 H 0.53139 0.31077 0.90855 0.0
H1846 H 0.54584 0.29284 0.88948 0.0
H1847 H 0.55591 0.32046 0.89412 0.0
C1848 C 0.60725 0.29318 0.85866 0.0
C1849 C 0.62425 0.30909 0.8596 0.0
C1850 C 0.59398 0.28901 0.87734 0.0
C1851 C 0.59741 0.3009 0.89703 0.0
C1852 C 0.61352 0.31762 0.89755 0.0
H1853 H 0.53143 0.30293 0.02404 0.0
H1854 H 0.54898 0.31162 0.98836 0.0
C1855 C 0.62681 0.32171 0.87901 0.0
C1856 C 0.58604 0.29446 0.91784 0.0
H1857 H 0.53541 0.29247 0.94348 0.0
C1858 C 0.59919 0.28637 0.93549 0.0
C1859 C 0.56279 0.29674 0.92062 0.0
C1860 C 0.54809 0.30582 0.90228 0.0
C1861 C 0.58969 0.28055 0.95597 0.0
C1862 C 0.56646 0.28273 0.95873 0.0
C1863 C 0.55324 0.29077 0.94112 0.0
C1864 C 0.55574 0.27728 0.9801 0.0
C1865 C 0.60453 0.27251 0.97469 0.0
C1866 C 0.55389 0.25508 0.98714 0.0
C1867 C 0.5439 0.25 0.00751 0.0
C1868 C 0.53564 0.26709 0.02116 0.0
C1869 C 0.53769 0.28935 0.01402 0.0
C1870 C 0.54759 0.29438 0.9936 0.0
H1871 H 0.62246 0.27485 0.97085 0.0
H1872 H 0.60049 0.28148 0.99027 0.0
H1873 H 0.60163 0.25452 0.97774 0.0
H1874 H 0.56008 0.2417 0.97681 0.0
H1875 H 0.54252 0.23268 0.01246 0.0
H1876 H 0.13814 0.52373 0.87722 0.0
H1877 H 0.17283 0.52613 0.85565 0.0
H1878 H 0.16278 0.59695 0.84759 0.0
H1879 H 0.12842 0.59455 0.8695 0.0
H1880 H 0.18444 0.5429 0.81287 0.0
H1881 H 0.22227 0.59157 0.88131 0.0
H1882 H 0.19626 0.57707 0.88447 0.0
H1883 H 0.19715 0.60311 0.8696 0.0
C1884 C 0.14303 0.5396 0.87013 0.0
C1885 C 0.13057 0.55889 0.87448 0.0
C1886 C 0.16285 0.54103 0.858 0.0
C1887 C 0.17051 0.56179 0.85036 0.0
C1888 C 0.1573 0.58084 0.85359 0.0
H1889 H 0.28979 0.56494 0.76734 0.0
H1890 H 0.25482 0.57806 0.78348 0.0
C1891 C 0.13755 0.57942 0.86576 0.0
C1892 C 0.19302 0.56362 0.84051 0.0
H1893 H 0.24507 0.58391 0.85034 0.0
C1894 C 0.19765 0.55207 0.82088 0.0
C1895 C 0.21024 0.5754 0.85124 0.0
C1896 C 0.20639 0.58736 0.87292 0.0
C1897 C 0.21918 0.55163 0.81183 0.0
C1898 C 0.23643 0.5634 0.82256 0.0
C1899 C 0.23172 0.57524 0.84201 0.0
C1900 C 0.25984 0.56131 0.8151 0.0
C1901 C 0.22349 0.5377 0.79144 0.0
C1902 C 0.27511 0.54938 0.82832 0.0
C1903 C 0.29524 0.54201 0.81925 0.0
C1904 C 0.30025 0.54633 0.79675 0.0
C1905 C 0.2863 0.56095 0.7846 0.0
C1906 C 0.26618 0.56834 0.79372 0.0
H1907 H 0.20936 0.52652 0.78766 0.0
H1908 H 0.22607 0.54882 0.77685 0.0
H1909 H 0.23875 0.52736 0.79366 0.0
H1910 H 0.27065 0.54409 0.84501 0.0
H1911 H 0.30578 0.53114 0.82924 0.0
H1912 H 0.76135 0.63977 0.37738 0.0
H1913 H 0.74597 0.60558 0.39398 0.0
H1914 H 0.80655 0.57024 0.3779 0.0
H1915 H 0.82188 0.60406 0.36143 0.0
H1916 H 0.7406 0.56423 0.36927 0.0
H1917 H 0.79432 0.55341 0.4436 0.0
H1918 H 0.79079 0.5799 0.4295 0.0
H1919 H 0.8097 0.55932 0.41864 0.0
C1920 C 0.77157 0.62485 0.37803 0.0
C1921 C 0.79285 0.62453 0.36827 0.0
C1922 C 0.7627 0.60533 0.38727 0.0
C1923 C 0.77518 0.58547 0.38721 0.0
C1924 C 0.79676 0.58546 0.37834 0.0
H1925 H 0.77363 0.44847 0.41723 0.0
H1926 H 0.7771 0.48422 0.39796 0.0
C1927 C 0.8055 0.60478 0.36895 0.0
C1928 C 0.76554 0.56422 0.39504 0.0
H1929 H 0.77588 0.52084 0.43056 0.0
C1930 C 0.74799 0.55484 0.38292 0.0
C1931 C 0.77526 0.55209 0.41282 0.0
C1932 C 0.79342 0.56176 0.42704 0.0
C1933 C 0.74069 0.53307 0.38747 0.0
C1934 C 0.75124 0.52059 0.4045 0.0
C1935 C 0.76809 0.53037 0.41721 0.0
C1936 C 0.74556 0.4972 0.40962 0.0
C1937 C 0.72247 0.52316 0.37355 0.0
C1938 C 0.72594 0.49216 0.4212 0.0
C1939 C 0.72382 0.4716 0.4321 0.0
C1940 C 0.7415 0.45609 0.43183 0.0
C1941 C 0.75983 0.46016 0.41787 0.0
C1942 C 0.76187 0.48062 0.40692 0.0
H1943 H 0.71776 0.53409 0.35928 0.0
H1944 H 0.72783 0.50668 0.36713 0.0
H1945 H 0.70752 0.52048 0.38406 0.0
H1946 H 0.71324 0.50482 0.42359 0.0
H1947 H 0.70953 0.46901 0.4428 0.0
H1948 H 0.85375 0.91437 0.8999 0.0
H1949 H 0.82186 0.91587 0.87518 0.0
H1950 H 0.85682 0.96096 0.83149 0.0
H1951 H 0.88911 0.9599 0.85673 0.0
H1952 H 0.8156 0.97618 0.84187 0.0
H1953 H 0.80852 0.88868 0.8158 0.0
H1954 H 0.81028 0.89056 0.8455 0.0
H1955 H 0.8334 0.8994 0.82858 0.0
C1956 C 0.85487 0.92449 0.88493 0.0
C1957 C 0.87398 0.9372 0.8804 0.0
C1958 C 0.83663 0.92508 0.87063 0.0
C1959 C 0.83701 0.93819 0.85125 0.0
C1960 C 0.85624 0.95053 0.84628 0.0
H1961 H 0.72257 0.94799 0.76093 0.0
H1962 H 0.75832 0.93667 0.7771 0.0
C1963 C 0.87468 0.94991 0.86067 0.0
C1964 C 0.81637 0.94062 0.83773 0.0
H1965 H 0.77454 0.91074 0.81388 0.0
C1966 C 0.80683 0.9619 0.83543 0.0
C1967 C 0.80495 0.92203 0.8291 0.0
C1968 C 0.81496 0.89893 0.82966 0.0
C1969 C 0.78573 0.96496 0.8258 0.0
C1970 C 0.7736 0.94619 0.8187 0.0
C1971 C 0.78361 0.92504 0.81984 0.0
C1972 C 0.75051 0.94851 0.8101 0.0
C1973 C 0.77655 0.98833 0.82345 0.0
C1974 C 0.73371 0.95742 0.82367 0.0
C1975 C 0.71325 0.96388 0.81452 0.0
C1976 C 0.70918 0.96145 0.79161 0.0
C1977 C 0.72512 0.95016 0.77862 0.0
C1978 C 0.74567 0.94381 0.7878 0.0
H1979 H 0.78996 0.00094 0.82403 0.0
H1980 H 0.76726 0.99045 0.80759 0.0
H1981 H 0.76491 0.99167 0.83739 0.0
H1982 H 0.73692 0.96064 0.84109 0.0
H1983 H 0.70127 0.97228 0.82507 0.0
H1984 H 0.19873 0.85422 0.38362 0.0
H1985 H 0.20855 0.88474 0.40851 0.0
H1986 H 0.20604 0.93083 0.35308 0.0
H1987 H 0.19544 0.90078 0.32842 0.0
H1988 H 0.24361 0.91175 0.40882 0.0
H1989 H 0.1673 0.96247 0.39679 0.0
H1990 H 0.16959 0.93423 0.38709 0.0
H1991 H 0.18076 0.95687 0.3708 0.0
C1992 C 0.20005 0.87092 0.37683 0.0
C1993 C 0.19606 0.87514 0.35413 0.0
C1994 C 0.20572 0.88831 0.39103 0.0
C1995 C 0.2076 0.91014 0.38273 0.0
C1996 C 0.20401 0.91427 0.36 0.0
H1997 H 0.27717 0.02005 0.44529 0.0
H1998 H 0.26752 0.98713 0.42353 0.0
C1999 C 0.19804 0.89702 0.34589 0.0
C2000 C 0.21382 0.92861 0.39762 0.0
H2001 H 0.1983 0.98092 0.41312 0.0
C2002 C 0.23361 0.9268 0.40997 0.0
C2003 C 0.20059 0.9481 0.39935 0.0
C2004 C 0.17827 0.95045 0.38798 0.0
C2005 C 0.24077 0.94417 0.42366 0.0
C2006 C 0.22813 0.96414 0.42442 0.0
C2007 C 0.20816 0.96573 0.41234 0.0
C2008 C 0.23473 0.98344 0.43809 0.0
C2009 C 0.26151 0.94073 0.43746 0.0
C2010 C 0.21937 0.99263 0.45307 0.0
C2011 C 0.22459 0.0117 0.46493 0.0
C2012 C 0.24543 0.02185 0.46233 0.0
C2013 C 0.26105 0.01245 0.4477 0.0
C2014 C 0.25561 0.99355 0.43542 0.0
H2015 H 0.26511 0.92276 0.44027 0.0
H2016 H 0.27593 0.94798 0.4285 0.0
H2017 H 0.26 0.94896 0.45387 0.0
H2018 H 0.20318 0.98514 0.45546 0.0
H2019 H 0.2123 0.01842 0.47629 0.0
H2020 H 0.14647 0.43094 0.62189 0.0
H2021 H 0.17058 0.43436 0.65405 0.0
H2022 H 0.1156 0.45959 0.69281 0.0
H2023 H 0.09108 0.45643 0.6603 0.0
H2024 H 0.15282 0.48552 0.69552 0.0
H2025 H 0.17651 0.39803 0.71097 0.0
H2026 H 0.17938 0.4045 0.68195 0.0
H2027 H 0.15227 0.40583 0.69477 0.0
C2028 C 0.13936 0.43713 0.63724 0.0
C2029 C 0.11687 0.44358 0.63849 0.0
C2030 C 0.15314 0.43876 0.65573 0.0
C2031 C 0.14474 0.4467 0.67595 0.0
C2032 C 0.12228 0.4531 0.6774 0.0
H2033 H 0.25898 0.45608 0.76713 0.0
H2034 H 0.22052 0.44748 0.75684 0.0
C2035 C 0.10836 0.4514 0.65882 0.0
C2036 C 0.16037 0.4504 0.69448 0.0
H2037 H 0.20535 0.42572 0.71923 0.0
C2038 C 0.16389 0.47235 0.70133 0.0
C2039 C 0.17446 0.43316 0.70252 0.0
C2040 C 0.17027 0.40903 0.69734 0.0
C2041 C 0.1827 0.47783 0.71385 0.0
C2042 C 0.19842 0.46098 0.71918 0.0
C2043 C 0.19352 0.4387 0.71465 0.0
C2044 C 0.22126 0.46651 0.72613 0.0
C2045 C 0.18622 0.50179 0.72015 0.0
C2046 C 0.23449 0.47949 0.71194 0.0
C2047 C 0.25637 0.48431 0.71761 0.0
C2048 C 0.26558 0.47609 0.73758 0.0
C2049 C 0.25241 0.46268 0.75162 0.0
C2050 C 0.23042 0.45784 0.74587 0.0
H2051 H 0.17005 0.51063 0.72229 0.0
H2052 H 0.19596 0.5031 0.73579 0.0
H2053 H 0.19546 0.51038 0.70663 0.0
H2054 H 0.22792 0.48577 0.69629 0.0
H2055 H 0.26601 0.49457 0.70633 0.0
H2056 H 0.6985 0.65335 0.60848 0.0
H2057 H 0.70336 0.62229 0.58266 0.0
H2058 H 0.70181 0.57596 0.63792 0.0
H2059 H 0.696 0.6066 0.66351 0.0
H2060 H 0.73567 0.59311 0.57879 0.0
H2061 H 0.65894 0.54673 0.59759 0.0
H2062 H 0.66333 0.57463 0.6074 0.0
H2063 H 0.6746 0.55104 0.62252 0.0
C2064 C 0.6989 0.6365 0.61504 0.0
C2065 C 0.69666 0.63243 0.63801 0.0
C2066 C 0.70172 0.61877 0.6003 0.0
C2067 C 0.70249 0.59671 0.60828 0.0
C2068 C 0.70051 0.59272 0.63123 0.0
H2069 H 0.76639 0.48404 0.54528 0.0
H2070 H 0.75725 0.51779 0.56598 0.0
C2071 C 0.69733 0.61033 0.64589 0.0
C2072 C 0.70647 0.57787 0.59289 0.0
H2073 H 0.68838 0.52583 0.58011 0.0
C2074 C 0.72516 0.57852 0.57885 0.0
C2075 C 0.69255 0.55897 0.5926 0.0
C2076 C 0.67111 0.55791 0.60566 0.0
C2077 C 0.73073 0.56049 0.56515 0.0
C2078 C 0.71773 0.54093 0.56613 0.0
C2079 C 0.69861 0.54063 0.57959 0.0
C2080 C 0.72352 0.52058 0.55341 0.0
C2081 C 0.7503 0.56281 0.54957 0.0
C2082 C 0.70739 0.51033 0.54013 0.0
C2083 C 0.71238 0.49069 0.52885 0.0
C2084 C 0.73371 0.48101 0.53037 0.0
C2085 C 0.74989 0.49126 0.5436 0.0
C2086 C 0.74473 0.51068 0.55527 0.0
H2087 H 0.75338 0.58055 0.54527 0.0
H2088 H 0.76549 0.55619 0.55789 0.0
H2089 H 0.74768 0.55349 0.53393 0.0
H2090 H 0.69089 0.51756 0.53847 0.0
H2091 H 0.69959 0.48326 0.51868 0.0
H2092 H 0.89604 0.03644 0.64225 0.0
H2093 H 0.86516 0.03477 0.66903 0.0
H2094 H 0.84556 0.10169 0.65061 0.0
H2095 H 0.87564 0.10296 0.62319 0.0
H2096 H 0.84864 0.05857 0.70493 0.0
H2097 H 0.79214 0.06596 0.63198 0.0
H2098 H 0.82174 0.06198 0.62907 0.0
H2099 H 0.8105 0.08912 0.63511 0.0
C2100 C 0.88538 0.0509 0.64432 0.0
C2101 C 0.88785 0.06967 0.6305 0.0
C2102 C 0.86778 0.04997 0.65959 0.0
C2103 C 0.85272 0.0679 0.66136 0.0
C2104 C 0.8566 0.08745 0.64906 0.0
H2105 H 0.73561 0.06196 0.75113 0.0
H2106 H 0.77088 0.07444 0.73465 0.0
C2107 C 0.8738 0.08819 0.6335 0.0
C2108 C 0.8317 0.06525 0.67399 0.0
H2109 H 0.77534 0.06376 0.66717 0.0
C2110 C 0.83258 0.05983 0.69676 0.0
C2111 C 0.81077 0.06668 0.66319 0.0
C2112 C 0.80864 0.07104 0.63847 0.0
C2113 C 0.81307 0.05541 0.70893 0.0
C2114 C 0.79221 0.05684 0.69806 0.0
C2115 C 0.79136 0.06287 0.67548 0.0
C2116 C 0.77123 0.04959 0.70877 0.0
C2117 C 0.81497 0.04828 0.73299 0.0
C2118 C 0.75958 0.03185 0.69944 0.0
C2119 C 0.73945 0.02496 0.70851 0.0
C2120 C 0.73043 0.03558 0.72727 0.0
C2121 C 0.74211 0.05341 0.7367 0.0
C2122 C 0.76234 0.06044 0.72743 0.0
H2123 H 0.83241 0.04416 0.73773 0.0
H2124 H 0.80904 0.06201 0.74376 0.0
H2125 H 0.80441 0.03354 0.73637 0.0
H2126 H 0.76612 0.02324 0.68504 0.0
H2127 H 0.73109 0.0111 0.70081 0.0
H2128 H 0.31785 0.88796 0.63607 0.0
H2129 H 0.30533 0.92255 0.61837 0.0
H2130 H 0.24268 0.89219 0.60201 0.0
H2131 H 0.25524 0.85719 0.61983 0.0
H2132 H 0.28832 0.93118 0.57345 0.0
H2133 H 0.22718 0.94858 0.64105 0.0
H2134 H 0.24963 0.92868 0.6446 0.0
H2135 H 0.2262 0.92196 0.62752 0.0
C2136 C 0.30156 0.88849 0.62832 0.0
C2137 C 0.28749 0.86993 0.62933 0.0
C2138 C 0.29442 0.90827 0.61829 0.0
C2139 C 0.27297 0.91 0.60925 0.0
C2140 C 0.25921 0.8912 0.60917 0.0
H2141 H 0.21783 0.03232 0.55086 0.0
H2142 H 0.21953 0.99586 0.56927 0.0
C2143 C 0.26648 0.87119 0.61908 0.0
C2144 C 0.26518 0.93191 0.60075 0.0
H2145 H 0.233 0.97698 0.61445 0.0
C2146 C 0.27601 0.94109 0.58222 0.0
C2147 C 0.24914 0.94476 0.61231 0.0
C2148 C 0.23735 0.93567 0.63256 0.0
C2149 C 0.27166 0.96301 0.57524 0.0
C2150 C 0.25642 0.97624 0.5874 0.0
C2151 C 0.24485 0.96682 0.60538 0.0
C2152 C 0.25299 3e-05 0.58168 0.0
C2153 C 0.28367 0.97198 0.55503 0.0
C2154 C 0.27063 0.01499 0.58403 0.0
C2155 C 0.26974 0.03583 0.57357 0.0
C2156 C 0.25116 0.04201 0.56062 0.0
C2157 C 0.2324 0.02809 0.56068 0.0
C2158 C 0.23337 0.00715 0.57108 0.0
H2159 H 0.29067 0.9584 0.54466 0.0
H2160 H 0.27232 0.98235 0.54458 0.0
H2161 H 0.29763 0.98261 0.5605 0.0
H2162 H 0.28577 0.00988 0.59249 0.0
H2163 H 0.28436 0.04626 0.57405 0.0
H2164 H 0.85929 0.11904 0.54422 0.0
H2165 H 0.83567 0.15274 0.54392 0.0
H2166 H 0.88698 0.18859 0.57831 0.0
H2167 H 0.91037 0.15538 0.57885 0.0
H2168 H 0.84314 0.19737 0.5944 0.0
H2169 H 0.85062 0.20618 0.50235 0.0
H2170 H 0.84006 0.18014 0.51272 0.0
H2171 H 0.86836 0.18767 0.51832 0.0
C2172 C 0.86541 0.13408 0.55184 0.0
C2173 C 0.88685 0.13462 0.56118 0.0
C2174 C 0.85195 0.1533 0.55163 0.0
C2175 C 0.85972 0.17323 0.56088 0.0
C2176 C 0.88068 0.17344 0.57104 0.0
H2177 H 0.82942 0.30861 0.52777 0.0
H2178 H 0.8475 0.2743 0.54058 0.0
C2179 C 0.8941 0.15443 0.57115 0.0
C2180 C 0.84694 0.19439 0.55891 0.0
H2181 H 0.83109 0.23425 0.52119 0.0
C2182 C 0.84026 0.20538 0.5784 0.0
C2183 C 0.84357 0.20492 0.53803 0.0
C2184 C 0.85113 0.19429 0.51662 0.0
C2185 C 0.83047 0.22673 0.57753 0.0
C2186 C 0.8273 0.23727 0.55666 0.0
C2187 C 0.83367 0.22614 0.53719 0.0
C2188 C 0.81753 0.25993 0.55428 0.0
C2189 C 0.82418 0.23814 0.5989 0.0
C2190 C 0.79495 0.26377 0.55894 0.0
C2191 C 0.78453 0.28347 0.55172 0.0
C2192 C 0.7965 0.29949 0.53943 0.0
C2193 C 0.81963 0.29657 0.53696 0.0
C2194 C 0.83 0.27689 0.54419 0.0
H2195 H 0.83156 0.22966 0.61369 0.0
H2196 H 0.82965 0.25576 0.59858 0.0
H2197 H 0.8058 0.23809 0.60073 0.0
H2198 H 0.78498 0.25084 0.56658 0.0
H2199 H 0.7667 0.28512 0.55394 0.0
H2200 H 0.85734 0.88769 0.96758 0.0
H2201 H 0.83322 0.85462 0.96806 0.0
H2202 H 0.87977 0.82029 0.92553 0.0
H2203 H 0.90336 0.85276 0.92465 0.0
H2204 H 0.83607 0.81304 0.91346 0.0
H2205 H 0.85016 0.79849 0.00408 0.0
H2206 H 0.83824 0.82493 0.99613 0.0
H2207 H 0.86631 0.81822 0.98822 0.0
C2208 C 0.86225 0.87312 0.95825 0.0
C2209 C 0.88247 0.87271 0.94649 0.0
C2210 C 0.84854 0.85424 0.95858 0.0
C2211 C 0.8549 0.83489 0.94706 0.0
C2212 C 0.87454 0.83496 0.93458 0.0
H2213 H 0.8319 0.69774 0.97478 0.0
H2214 H 0.84756 0.73363 0.96399 0.0
C2215 C 0.88814 0.85357 0.9343 0.0
C2216 C 0.84225 0.81383 0.94875 0.0
H2217 H 0.83077 0.77114 0.98467 0.0
C2218 C 0.83462 0.80396 0.92906 0.0
C2219 C 0.84074 0.80189 0.96907 0.0
C2220 C 0.8494 0.81125 0.9906 0.0
C2221 C 0.82608 0.78223 0.92906 0.0
C2222 C 0.82491 0.77021 0.94934 0.0
C2223 C 0.83189 0.78034 0.9691 0.0
C2224 C 0.8167 0.74701 0.95074 0.0
C2225 C 0.81924 0.77203 0.90729 0.0
C2226 C 0.7945 0.74213 0.9456 0.0
C2227 C 0.78555 0.72148 0.9515 0.0
C2228 C 0.79855 0.70554 0.96307 0.0
C2229 C 0.82136 0.70968 0.9661 0.0
C2230 C 0.83031 0.73027 0.96007 0.0
H2231 H 0.82628 0.78117 0.8928 0.0
H2232 H 0.82464 0.75433 0.90645 0.0
H2233 H 0.80082 0.7726 0.90588 0.0
H2234 H 0.78364 0.75482 0.93857 0.0
H2235 H 0.76792 0.71891 0.94887 0.0
H2236 H 0.13802 0.87821 0.25105 0.0
H2237 H 0.10394 0.89754 0.23823 0.0
H2238 H 0.07207 0.88195 0.30072 0.0
H2239 H 0.10571 0.86282 0.31344 0.0
H2240 H 0.06126 0.87567 0.23486 0.0
H2241 H 0.05723 0.94822 0.29089 0.0
H2242 H 0.08275 0.93299 0.28577 0.0
H2243 H 0.06278 0.92261 0.30554 0.0
C2244 C 0.12395 0.8796 0.26223 0.0
C2245 C 0.12447 0.86919 0.28327 0.0
C2246 C 0.10446 0.8904 0.25484 0.0
C2247 C 0.08555 0.89126 0.26859 0.0
C2248 C 0.08655 0.88177 0.28996 0.0
H2249 H 0.94895 0.92406 0.27652 0.0
H2250 H 0.98528 0.90564 0.27807 0.0
C2251 C 0.10578 0.87085 0.29721 0.0
C2252 C 0.06403 0.90038 0.26045 0.0
H2253 H 0.02262 0.93663 0.27484 0.0
C2254 C 0.05292 0.8893 0.24325 0.0
C2255 C 0.05321 0.91811 0.27147 0.0
C2256 C 0.06469 0.93132 0.2893 0.0
C2257 C 0.03077 0.89472 0.23766 0.0
C2258 C 0.01963 0.91164 0.24955 0.0
C2259 C 0.03111 0.92338 0.26601 0.0
C2260 C 0.99593 0.91747 0.24572 0.0
C2261 C 0.01907 0.88175 0.21983 0.0
C2262 C 0.98939 0.92905 0.22641 0.0
C2263 C 0.96851 0.93954 0.2254 0.0
C2264 C 0.95405 0.93885 0.24386 0.0
C2265 C 0.95974 0.92512 0.26211 0.0
C2266 C 0.98055 0.91464 0.26307 0.0
H2267 H 0.02898 0.8671 0.21436 0.0
H2268 H 0.00263 0.87598 0.22594 0.0
H2269 H 0.01606 0.89274 0.20518 0.0
H2270 H 0.00106 0.93154 0.2129 0.0
H2271 H 0.96472 0.94997 0.21108 0.0
H2272 H 0.16148 0.59078 0.95515 0.0
H2273 H 0.19487 0.61412 0.95703 0.0
H2274 H 0.15726 0.66975 0.93046 0.0
H2275 H 0.12434 0.64684 0.9282 0.0
H2276 H 0.20035 0.66478 0.91161 0.0
H2277 H 0.20076 0.66308 0.00453 0.0
H2278 H 0.20215 0.63721 0.98969 0.0
H2279 H 0.17702 0.65353 0.98903 0.0
C2280 C 0.16041 0.60798 0.94969 0.0
C2281 C 0.14017 0.61704 0.94184 0.0
C2282 C 0.17948 0.62124 0.95072 0.0
C2283 C 0.17845 0.64365 0.94396 0.0
C2284 C 0.15843 0.65245 0.93563 0.0
H2285 H 0.20472 0.7692 0.97462 0.0
H2286 H 0.19518 0.73084 0.96646 0.0
C2287 C 0.13954 0.63933 0.93456 0.0
C2288 C 0.19729 0.65898 0.94688 0.0
H2289 H 0.21949 0.69213 0.98675 0.0
C2290 C 0.20525 0.67035 0.92801 0.0
C2291 C 0.20359 0.66609 0.96832 0.0
C2292 C 0.19548 0.65448 0.98914 0.0
C2293 C 0.21741 0.69007 0.93007 0.0
C2294 C 0.22178 0.6983 0.95153 0.0
C2295 C 0.21592 0.68567 0.97034 0.0
C2296 C 0.22809 0.72169 0.95494 0.0
C2297 C 0.2236 0.7031 0.90945 0.0
C2298 C 0.24967 0.72929 0.95064 0.0
C2299 C 0.2552 0.75139 0.95518 0.0
C2300 C 0.23921 0.76603 0.96421 0.0
C2301 C 0.21746 0.75838 0.96781 0.0
C2302 C 0.21199 0.73644 0.96322 0.0
H2303 H 0.21883 0.6944 0.89394 0.0
H2304 H 0.21527 0.71966 0.90965 0.0
H2305 H 0.24184 0.70591 0.90919 0.0
H2306 H 0.2623 0.71805 0.9443 0.0
H2307 H 0.27215 0.75677 0.95235 0.0
H2308 H 0.359 0.1168 0.77693 0.0
H2309 H 0.39305 0.09843 0.76342 0.0
H2310 H 0.42955 0.12463 0.819 0.0
H2311 H 0.3958 0.14281 0.83259 0.0
H2312 H 0.43371 0.12089 0.75178 0.0
H2313 H 0.44708 0.05834 0.81889 0.0
H2314 H 0.42054 0.07192 0.81424 0.0
H2315 H 0.44227 0.086 0.829 0.0
C2316 C 0.37415 0.11814 0.78656 0.0
C2317 C 0.37466 0.13115 0.80592 0.0
C2318 C 0.39364 0.10783 0.77871 0.0
C2319 C 0.41382 0.11007 0.79027 0.0
C2320 C 0.41414 0.12242 0.80996 0.0
H2321 H 0.55072 0.0702 0.7821 0.0
H2322 H 0.51596 0.09049 0.78859 0.0
C2323 C 0.39481 0.13283 0.8177 0.0
C2324 C 0.4349 0.10052 0.78143 0.0
H2325 H 0.47806 0.06587 0.79535 0.0
C2326 C 0.44334 0.10867 0.76114 0.0
C2327 C 0.44743 0.08462 0.79368 0.0
C2328 C 0.43881 0.07453 0.81506 0.0
C2329 C 0.46441 0.10196 0.75323 0.0
C2330 C 0.47718 0.0865 0.76584 0.0
C2331 C 0.46842 0.07796 0.78582 0.0
C2332 C 0.49968 0.07867 0.75888 0.0
C2333 C 0.47312 0.11199 0.73189 0.0
C2334 C 0.50258 0.06628 0.73935 0.0
C2335 C 0.52264 0.05488 0.73542 0.0
C2336 C 0.53995 0.05542 0.75118 0.0
C2337 C 0.53769 0.06945 0.76967 0.0
C2338 C 0.51775 0.08094 0.77347 0.0
H2339 H 0.464 0.12751 0.72725 0.0
H2340 H 0.49113 0.11577 0.7333 0.0
H2341 H 0.47099 0.0999 0.71822 0.0
H2342 H 0.48881 0.06402 0.72799 0.0
H2343 H 0.52374 0.04397 0.7212 0.0
H2344 H 0.65897 0.90722 0.05445 0.0
H2345 H 0.69137 0.8823 0.05051 0.0
H2346 H 0.65561 0.83009 0.08451 0.0
H2347 H 0.6238 0.85474 0.08904 0.0
H2348 H 0.6999 0.83066 0.09608 0.0
H2349 H 0.68855 0.83353 0.00394 0.0
H2350 H 0.69429 0.85928 0.01773 0.0
H2351 H 0.66831 0.84547 0.02257 0.0
C2352 C 0.65822 0.89053 0.06136 0.0
C2353 C 0.63866 0.88278 0.0716 0.0
C2354 C 0.67668 0.87631 0.05904 0.0
C2355 C 0.67571 0.85422 0.06686 0.0
C2356 C 0.65671 0.84703 0.07828 0.0
H2357 H 0.70434 0.72797 0.02469 0.0
H2358 H 0.69243 0.76528 0.03507 0.0
C2359 C 0.63843 0.86113 0.08067 0.0
C2360 C 0.69311 0.83752 0.06151 0.0
H2361 H 0.71077 0.80506 0.0186 0.0
C2362 C 0.7028 0.82533 0.07911 0.0
C2363 C 0.69673 0.83063 0.03934 0.0
C2364 C 0.68639 0.84276 0.01975 0.0
C2365 C 0.71447 0.80539 0.07526 0.0
C2366 C 0.71681 0.7978 0.05319 0.0
C2367 C 0.70878 0.81096 0.0355 0.0
C2368 C 0.72446 0.77493 0.04818 0.0
C2369 C 0.72269 0.79177 0.09485 0.0
C2370 C 0.74636 0.76786 0.05247 0.0
C2371 C 0.75321 0.74633 0.04671 0.0
C2372 C 0.7383 0.7317 0.03637 0.0
C2373 C 0.71629 0.7388 0.03252 0.0
C2374 C 0.70946 0.76016 0.03839 0.0
H2375 H 0.71698 0.79867 0.11099 0.0
H2376 H 0.71685 0.77433 0.09359 0.0
H2377 H 0.74115 0.79143 0.09483 0.0
H2378 H 0.75825 0.77911 0.05978 0.0
H2379 H 0.77034 0.74142 0.04972 0.0
H2380 H 0.15378 0.11531 0.2265 0.0
H2381 H 0.12383 0.08949 0.23631 0.0
H2382 H 0.0752 0.13655 0.21122 0.0
H2383 H 0.10471 0.1624 0.20155 0.0
H2384 H 0.06597 0.11873 0.25443 0.0
H2385 H 0.08523 0.05366 0.19164 0.0
H2386 H 0.10762 0.06226 0.20942 0.0
H2387 H 0.09606 0.08155 0.18953 0.0
C2388 C 0.13671 0.12012 0.22304 0.0
C2389 C 0.13163 0.14093 0.21329 0.0
C2390 C 0.11967 0.10533 0.22858 0.0
C2391 C 0.0974 0.11115 0.22435 0.0
C2392 C 0.09232 0.13183 0.21462 0.0
H2393 H 0.97467 0.04381 0.21034 0.0
H2394 H 0.00972 0.0638 0.20671 0.0
C2395 C 0.10924 0.14656 0.2091 0.0
C2396 C 0.07907 0.09599 0.23015 0.0
H2397 H 0.05379 0.04805 0.21429 0.0
C2398 C 0.06338 0.10313 0.24588 0.0
C2399 C 0.0758 0.07582 0.21876 0.0
C2400 C 0.09194 0.06781 0.20127 0.0
C2401 C 0.04407 0.09089 0.25011 0.0
C2402 C 0.04063 0.07086 0.2385 0.0
C2403 C 0.05661 0.0634 0.22319 0.0
C2404 C 0.0198 0.05822 0.24087 0.0
C2405 C 0.02705 0.09998 0.26621 0.0
C2406 C 0.01402 0.04838 0.26127 0.0
C2407 C 0.99393 0.03704 0.26348 0.0
C2408 C 0.97938 0.03525 0.24524 0.0
C2409 C 0.98543 0.04492 0.22474 0.0
C2410 C 0.00548 0.05628 0.22259 0.0
H2411 H 0.03019 0.11768 0.27032 0.0
H2412 H 0.00999 0.09865 0.25926 0.0
H2413 H 0.0277 0.09012 0.28189 0.0
H2414 H 0.02506 0.04945 0.27547 0.0
H2415 H 0.9899 0.02962 0.27945 0.0
H2416 H 0.84897 0.38828 0.1926 0.0
H2417 H 0.8813 0.41096 0.20196 0.0
H2418 H 0.92394 0.35318 0.1961 0.0
H2419 H 0.89201 0.33072 0.18585 0.0
H2420 H 0.90863 0.408 0.23629 0.0
H2421 H 0.9578 0.39675 0.15933 0.0
H2422 H 0.92912 0.38835 0.16145 0.0
H2423 H 0.95105 0.37056 0.17202 0.0
C2424 C 0.86531 0.38052 0.19299 0.0
C2425 C 0.86798 0.35778 0.18829 0.0
C2426 C 0.88373 0.39346 0.19841 0.0
C2427 C 0.9051 0.38385 0.19937 0.0
C2428 C 0.90775 0.36112 0.1948 0.0
H2429 H 0.01829 0.44063 0.26998 0.0
H2430 H 0.98519 0.41929 0.25989 0.0
C2431 C 0.88943 0.34828 0.18903 0.0
C2432 C 0.92452 0.39734 0.20601 0.0
H2433 H 0.97728 0.41122 0.19061 0.0
C2434 C 0.92358 0.40889 0.22622 0.0
C2435 C 0.94392 0.39869 0.19274 0.0
C2436 C 0.94546 0.38812 0.17008 0.0
C2437 C 0.94162 0.42156 0.23364 0.0
C2438 C 0.96139 0.42204 0.22085 0.0
C2439 C 0.96222 0.41063 0.20056 0.0
C2440 C 0.98116 0.43503 0.22753 0.0
C2441 C 0.93903 0.43469 0.25479 0.0
C2442 C 0.99026 0.45046 0.2125 0.0
C2443 C 0.0094 0.46213 0.21797 0.0
C2444 C 0.01975 0.45884 0.23873 0.0
C2445 C 0.01055 0.44359 0.25394 0.0
C2446 C 0.99155 0.43154 0.24825 0.0
H2447 H 0.92123 0.43784 0.25878 0.0
H2448 H 0.9464 0.42505 0.26884 0.0
H2449 H 0.94766 0.45093 0.25357 0.0
H2450 H 0.98255 0.45346 0.19644 0.0
H2451 H 0.01597 0.47392 0.20597 0.0
H2452 H 0.246 0.21858 0.82424 0.0
H2453 H 0.20627 0.22308 0.83161 0.0
H2454 H 0.19785 0.15199 0.82887 0.0
H2455 H 0.23783 0.14725 0.82141 0.0
H2456 H 0.16203 0.17967 0.80782 0.0
H2457 H 0.18237 0.20389 0.89438 0.0
H2458 H 0.19692 0.21924 0.87317 0.0
H2459 H 0.20209 0.1899 0.87652 0.0
C2460 C 0.23569 0.20387 0.82482 0.0
C2461 C 0.24519 0.18252 0.82243 0.0
C2462 C 0.21297 0.20649 0.82911 0.0
C2463 C 0.19919 0.18786 0.83121 0.0
C2464 C 0.20824 0.16659 0.82742 0.0
H2465 H 0.07198 0.19363 0.90154 0.0
H2466 H 0.10884 0.18265 0.88803 0.0
C2467 C 0.23107 0.16392 0.82307 0.0
C2468 C 0.1758 0.19072 0.83883 0.0
H2469 H 0.14496 0.20923 0.88282 0.0
C2470 C 0.15824 0.18599 0.82425 0.0
C2471 C 0.17088 0.19866 0.8604 0.0
C2472 C 0.18901 0.20305 0.87715 0.0
C2473 C 0.1359 0.18968 0.83046 0.0
C2474 C 0.13105 0.19855 0.85171 0.0
C2475 C 0.14863 0.2026 0.86648 0.0
C2476 C 0.10795 0.20414 0.85895 0.0
C2477 C 0.1177 0.18389 0.81427 0.0
C2478 C 0.09514 0.21996 0.84719 0.0
C2479 C 0.07402 0.22629 0.85488 0.0
C2480 C 0.06528 0.21706 0.87462 0.0
C2481 C 0.07811 0.20109 0.88628 0.0
C2482 C 0.09922 0.19477 0.87857 0.0
H2483 H 0.12353 0.17157 0.80183 0.0
H2484 H 0.10297 0.17705 0.82306 0.0
H2485 H 0.11242 0.19917 0.80513 0.0
H2486 H 0.10168 0.22786 0.83232 0.0
H2487 H 0.06476 0.23874 0.84554 0.0
H2488 H 0.39946 0.50942 0.43038 0.0
H2489 H 0.40674 0.54941 0.42615 0.0
H2490 H 0.47463 0.53484 0.40779 0.0
H2491 H 0.46765 0.49511 0.41208 0.0
H2492 H 0.46993 0.57063 0.4383 0.0
H2493 H 0.41455 0.58005 0.36449 0.0
H2494 H 0.40231 0.5682 0.38915 0.0
H2495 H 0.42375 0.55318 0.37473 0.0
C2496 C 0.41598 0.51474 0.42561 0.0
C2497 C 0.43289 0.49899 0.42137 0.0
C2498 C 0.42008 0.5376 0.42309 0.0
C2499 C 0.44116 0.5451 0.41637 0.0
C2500 C 0.45823 0.52945 0.41291 0.0
H2501 H 0.49067 0.66077 0.35039 0.0
H2502 H 0.47776 0.62436 0.36292 0.0
C2503 C 0.45415 0.50669 0.41531 0.0
C2504 C 0.44555 0.5691 0.41214 0.0
H2505 H 0.43399 0.6118 0.37587 0.0
C2506 C 0.46189 0.57975 0.42483 0.0
C2507 C 0.43521 0.58087 0.39439 0.0
C2508 C 0.41808 0.57005 0.37974 0.0
C2509 C 0.46846 0.6017 0.42001 0.0
C2510 C 0.4583 0.61336 0.40209 0.0
C2511 C 0.44166 0.60286 0.38968 0.0
C2512 C 0.4659 0.63579 0.39485 0.0
C2513 C 0.48686 0.61193 0.4335 0.0
C2514 C 0.46341 0.65444 0.4086 0.0
C2515 C 0.4708 0.67542 0.40146 0.0
C2516 C 0.48082 0.67814 0.38043 0.0
C2517 C 0.48313 0.65938 0.36672 0.0
C2518 C 0.47569 0.6385 0.37382 0.0
H2519 H 0.49563 0.5994 0.44408 0.0
H2520 H 0.4992 0.62008 0.42242 0.0
H2521 H 0.47969 0.62486 0.44451 0.0
H2522 H 0.45563 0.6528 0.42478 0.0
H2523 H 0.46863 0.68948 0.41242 0.0
H2524 H 0.75823 0.34393 0.80571 0.0
H2525 H 0.79663 0.34001 0.81887 0.0
H2526 H 0.78341 0.27272 0.84028 0.0
H2527 H 0.74501 0.27648 0.82738 0.0
H2528 H 0.8035 0.2987 0.87323 0.0
H2529 H 0.84896 0.30468 0.79295 0.0
H2530 H 0.82959 0.32703 0.79783 0.0
H2531 H 0.81949 0.29918 0.79445 0.0
C2532 C 0.7636 0.32812 0.81276 0.0
C2533 C 0.74849 0.31052 0.81546 0.0
C2534 C 0.78557 0.32593 0.82033 0.0
C2535 C 0.79289 0.30606 0.83054 0.0
C2536 C 0.77808 0.28823 0.83254 0.0
H2537 H 0.91666 0.25615 0.88607 0.0
H2538 H 0.87689 0.26376 0.88058 0.0
C2539 C 0.75616 0.29039 0.82502 0.0
C2540 C 0.8157 0.30407 0.83991 0.0
H2541 H 0.87064 0.30518 0.82573 0.0
C2542 C 0.81822 0.3001 0.86287 0.0
C2543 C 0.83483 0.30589 0.82637 0.0
C2544 C 0.83319 0.30923 0.8015 0.0
C2545 C 0.83942 0.2982 0.8727 0.0
C2546 C 0.85855 0.30002 0.85914 0.0
C2547 C 0.85597 0.30399 0.83618 0.0
C2548 C 0.88155 0.29729 0.86793 0.0
C2549 C 0.84114 0.29463 0.89752 0.0
C2550 C 0.89732 0.31388 0.86362 0.0
C2551 C 0.91996 0.30947 0.86657 0.0
C2552 C 0.92728 0.28842 0.87399 0.0
C2553 C 0.91143 0.27262 0.88062 0.0
C2554 C 0.88868 0.27695 0.8774 0.0
H2555 H 0.82568 0.29997 0.90618 0.0
H2556 H 0.84376 0.27664 0.90104 0.0
H2557 H 0.85542 0.30386 0.90453 0.0
H2558 H 0.89221 0.32972 0.85642 0.0
H2559 H 0.93187 0.32192 0.8613 0.0
H2560 H 0.53061 0.01501 0.40653 0.0
H2561 H 0.52035 0.97673 0.39789 0.0
H2562 H 0.58674 0.95436 0.41422 0.0
H2563 H 0.59725 0.99268 0.42308 0.0
H2564 H 0.56325 0.94116 0.36799 0.0
H2565 H 0.51822 0.92267 0.44699 0.0
H2566 H 0.51364 0.94944 0.43393 0.0
H2567 H 0.5404 0.94278 0.44548 0.0
C2568 C 0.54302 0.00196 0.40847 0.0
C2569 C 0.56476 0.00691 0.41552 0.0
C2570 C 0.53713 0.98013 0.40347 0.0
C2571 C 0.55284 0.96286 0.40531 0.0
C2572 C 0.57445 0.96757 0.41263 0.0
H2573 H 0.54603 0.82151 0.37526 0.0
H2574 H 0.55839 0.86032 0.37619 0.0
C2575 C 0.58034 0.98942 0.41784 0.0
C2576 C 0.54651 0.93988 0.39963 0.0
H2577 H 0.51663 0.89579 0.41887 0.0
C2578 C 0.55312 0.93111 0.37907 0.0
C2579 C 0.53323 0.92704 0.41412 0.0
C2580 C 0.52596 0.93578 0.43645 0.0
C2581 C 0.54634 0.90982 0.3724 0.0
C2582 C 0.53301 0.89691 0.38693 0.0
C2583 C 0.52669 0.90572 0.40762 0.0
C2584 C 0.52539 0.87412 0.38147 0.0
C2585 C 0.553 0.90165 0.34967 0.0
C2586 C 0.50271 0.86896 0.38352 0.0
C2587 C 0.49578 0.84686 0.38339 0.0
C2588 C 0.51133 0.82955 0.38081 0.0
C2589 C 0.53373 0.83468 0.37681 0.0
C2590 C 0.54077 0.85686 0.37736 0.0
H2591 H 0.55712 0.91569 0.33828 0.0
H2592 H 0.56805 0.89093 0.35127 0.0
H2593 H 0.53956 0.8917 0.34203 0.0
H2594 H 0.49053 0.88196 0.38664 0.0
H2595 H 0.47845 0.84319 0.38672 0.0
H2596 H 0.23208 0.84723 0.69513 0.0
H2597 H 0.1913 0.84581 0.69507 0.0
H2598 H 0.1942 0.78119 0.66439 0.0
H2599 H 0.23454 0.78208 0.6651 0.0
H2600 H 0.16485 0.84485 0.66024 0.0
H2601 H 0.148 0.76982 0.71033 0.0
H2602 H 0.17494 0.7829 0.71021 0.0
H2603 H 0.16776 0.76299 0.68912 0.0
C2604 C 0.22399 0.83253 0.68882 0.0
C2605 C 0.23659 0.81478 0.68011 0.0
C2606 C 0.2007 0.83176 0.68877 0.0
C2607 C 0.18967 0.81323 0.68007 0.0
C2608 C 0.20227 0.79536 0.67182 0.0
H2609 H 0.07357 0.80112 0.60293 0.0
H2610 H 0.10874 0.81206 0.61974 0.0
C2611 C 0.22543 0.79601 0.67205 0.0
C2612 C 0.16514 0.81318 0.67743 0.0
H2613 H 0.12056 0.77869 0.6815 0.0
C2614 C 0.15502 0.83063 0.66534 0.0
C2615 C 0.15209 0.79497 0.68456 0.0
C2616 C 0.16127 0.77678 0.6995 0.0
C2617 C 0.13265 0.82949 0.65873 0.0
C2618 C 0.12037 0.81004 0.66366 0.0
C2619 C 0.13003 0.79343 0.67723 0.0
C2620 C 0.09822 0.80571 0.65371 0.0
C2621 C 0.12261 0.84905 0.6463 0.0
C2622 C 0.08068 0.798 0.66706 0.0
C2623 C 0.0608 0.79107 0.6574 0.0
C2624 C 0.05794 0.792 0.63419 0.0
C2625 C 0.07519 0.80045 0.62088 0.0
C2626 C 0.09525 0.80693 0.63052 0.0
H2627 H 0.1303 0.8649 0.65162 0.0
H2628 H 0.12593 0.8472 0.62824 0.0
H2629 H 0.10435 0.85025 0.64892 0.0
H2630 H 0.08256 0.7968 0.68497 0.0
H2631 H 0.04783 0.78472 0.66813 0.0
H2632 H 0.09351 0.5074 0.58537 0.0
H2633 H 0.08525 0.54565 0.59606 0.0
H2634 H 0.01573 0.52948 0.60268 0.0
H2635 H 0.02393 0.4909 0.59264 0.0
H2636 H 0.05971 0.57744 0.57839 0.0
H2637 H 0.02771 0.55674 0.66244 0.0
H2638 H 0.04182 0.53656 0.64529 0.0
H2639 H 0.01281 0.54288 0.64081 0.0
C2640 C 0.0764 0.51196 0.58892 0.0
C2641 C 0.0594 0.49597 0.58834 0.0
C2642 C 0.07174 0.53385 0.59513 0.0
C2643 C 0.04999 0.5403 0.60083 0.0
C2644 C 0.03277 0.52471 0.59911 0.0
H2645 H 0.98183 0.66256 0.61604 0.0
H2646 H 0.99369 0.62352 0.61703 0.0
C2647 C 0.03744 0.50272 0.59309 0.0
C2648 C 0.04535 0.56342 0.60815 0.0
H2649 H 0.02125 0.59409 0.64951 0.0
C2650 C 0.05158 0.58107 0.59408 0.0
C2651 C 0.0349 0.56818 0.62874 0.0
C2652 C 0.02913 0.5501 0.6453 0.0
C2653 C 0.04687 0.60326 0.5996 0.0
C2654 C 0.03573 0.60793 0.61978 0.0
C2655 C 0.0299 0.59039 0.63411 0.0
C2656 C 0.028 0.63076 0.62482 0.0
C2657 C 0.05304 0.62156 0.58342 0.0
C2658 C 0.04316 0.64761 0.63011 0.0
C2659 C 0.0363 0.66997 0.6299 0.0
C2660 C 0.01429 0.67554 0.62423 0.0
C2661 C 0.99882 0.65854 0.62072 0.0
C2662 C 0.00559 0.63629 0.62119 0.0
H2663 H 0.05955 0.61495 0.56746 0.0
H2664 H 0.03833 0.63232 0.57983 0.0
H2665 H 0.06602 0.63216 0.59095 0.0
H2666 H 0.06054 0.64358 0.63295 0.0
H2667 H 0.04854 0.68288 0.63227 0.0
H2668 H 0.76297 0.64922 0.68028 0.0
H2669 H 0.80072 0.64713 0.66512 0.0
H2670 H 0.79703 0.71656 0.64659 0.0
H2671 H 0.75931 0.71888 0.66153 0.0
H2672 H 0.8119 0.68602 0.61163 0.0
H2673 H 0.85729 0.67591 0.69204 0.0
H2674 H 0.83452 0.65737 0.68701 0.0
H2675 H 0.82914 0.68653 0.69066 0.0
C2676 C 0.77031 0.66415 0.67333 0.0
C2677 C 0.75813 0.68423 0.67211 0.0
C2678 C 0.79181 0.66287 0.66457 0.0
C2679 C 0.80147 0.68166 0.65465 0.0
C2680 C 0.78968 0.70185 0.65402 0.0
H2681 H 0.91775 0.73668 0.60621 0.0
H2682 H 0.88001 0.72199 0.6057 0.0
C2683 C 0.76822 0.70317 0.66273 0.0
C2684 C 0.824 0.68052 0.64501 0.0
H2685 H 0.8786 0.67801 0.65964 0.0
C2686 C 0.82656 0.68398 0.622 0.0
C2687 C 0.84293 0.67764 0.65862 0.0
C2688 C 0.84101 0.67428 0.68348 0.0
C2689 C 0.84777 0.68537 0.61232 0.0
C2690 C 0.86674 0.68363 0.62613 0.0
C2691 C 0.86406 0.67914 0.64898 0.0
C2692 C 0.88939 0.68932 0.61835 0.0
C2693 C 0.84961 0.689 0.58753 0.0
C2694 C 0.90737 0.67548 0.62436 0.0
C2695 C 0.92881 0.6841 0.62525 0.0
C2696 C 0.93253 0.70649 0.61968 0.0
C2697 C 0.91519 0.71933 0.6105 0.0
C2698 C 0.8936 0.71086 0.6101 0.0
H2699 H 0.83538 0.68134 0.5787 0.0
H2700 H 0.84914 0.70714 0.58387 0.0
H2701 H 0.86537 0.68198 0.58084 0.0
H2702 H 0.90451 0.65879 0.63065 0.0
H2703 H 0.94207 0.67391 0.63226 0.0
H2704 H 0.89821 0.99885 0.57236 0.0
H2705 H 0.90148 0.95813 0.57499 0.0
H2706 H 0.97213 0.96382 0.58596 0.0
H2707 H 0.96918 0.00412 0.5829 0.0
H2708 H 0.9621 0.92962 0.55765 0.0
H2709 H 0.91021 0.92567 0.63432 0.0
H2710 H 0.89726 0.93803 0.61021 0.0
H2711 H 0.92039 0.95161 0.62311 0.0
C2712 C 0.91446 0.9914 0.57512 0.0
C2713 C 0.93337 0.00483 0.57769 0.0
C2714 C 0.91628 0.96812 0.57675 0.0
C2715 C 0.93701 0.95792 0.58105 0.0
C2716 C 0.95596 0.97128 0.58271 0.0
H2717 H 0.98216 0.84349 0.64932 0.0
H2718 H 0.96905 0.87923 0.63502 0.0
C2719 C 0.95419 0.9944 0.58105 0.0
C2720 C 0.93924 0.93351 0.58494 0.0
H2721 H 0.92683 0.89241 0.62248 0.0
C2722 C 0.95414 0.92135 0.57162 0.0
C2723 C 0.92897 0.92282 0.6033 0.0
C2724 C 0.91343 0.93515 0.61871 0.0
C2725 C 0.95976 0.89911 0.57669 0.0
C2726 C 0.94992 0.88861 0.59538 0.0
C2727 C 0.93429 0.90047 0.60811 0.0
C2728 C 0.95746 0.86637 0.6036 0.0
C2729 C 0.97713 0.88746 0.56276 0.0
C2730 C 0.95525 0.84709 0.59073 0.0
C2731 C 0.96291 0.82643 0.59887 0.0
C2732 C 0.97278 0.82471 0.62008 0.0
C2733 C 0.97469 0.84408 0.63292 0.0
C2734 C 0.96713 0.8646 0.62479 0.0
H2735 H 0.98601 0.89917 0.55151 0.0
H2736 H 0.98957 0.87885 0.57354 0.0
H2737 H 0.96896 0.87472 0.55236 0.0
H2738 H 0.9475 0.84798 0.57448 0.0
H2739 H 0.96102 0.81185 0.5886 0.0
H2740 H 0.80454 0.23318 0.14394 0.0
H2741 H 0.81223 0.19333 0.14921 0.0
H2742 H 0.81784 0.20307 0.21999 0.0
H2743 H 0.81048 0.24279 0.21487 0.0
H2744 H 0.85505 0.18326 0.20119 0.0
H2745 H 0.77785 0.14008 0.17545 0.0
H2746 H 0.78835 0.16032 0.15597 0.0
H2747 H 0.77821 0.16923 0.18257 0.0
C2748 C 0.80676 0.22671 0.16068 0.0
C2749 C 0.80704 0.24116 0.17898 0.0
C2750 C 0.81115 0.20392 0.16367 0.0
C2751 C 0.8156 0.19523 0.18501 0.0
C2752 C 0.81452 0.20943 0.20338 0.0
H2753 H 0.83722 0.06288 0.23671 0.0
H2754 H 0.82251 0.09918 0.22533 0.0
C2755 C 0.81028 0.23213 0.20042 0.0
C2756 C 0.82375 0.17202 0.18815 0.0
H2757 H 0.8094 0.11735 0.18331 0.0
C2758 C 0.84508 0.16885 0.19723 0.0
C2759 C 0.81068 0.15327 0.18304 0.0
C2760 C 0.78742 0.15577 0.17388 0.0
C2761 C 0.85365 0.14747 0.20157 0.0
C2762 C 0.84069 0.12868 0.19629 0.0
C2763 C 0.81937 0.1318 0.18711 0.0
C2764 C 0.84862 0.10576 0.20144 0.0
C2765 C 0.87624 0.1452 0.2124 0.0
C2766 C 0.86794 0.09715 0.19143 0.0
C2767 C 0.87645 0.07634 0.19795 0.0
C2768 C 0.86573 0.0637 0.21454 0.0
C2769 C 0.84592 0.07208 0.22391 0.0
C2770 C 0.83744 0.09286 0.21739 0.0
H2771 H 0.88181 0.16111 0.21978 0.0
H2772 H 0.87606 0.13222 0.22567 0.0
H2773 H 0.88866 0.14016 0.1997 0.0
H2774 H 0.87665 0.10672 0.17884 0.0
H2775 H 0.89164 0.07036 0.19025 0.0
H2776 H 0.51603 0.88462 0.03737 0.0
H2777 H 0.47818 0.87424 0.02762 0.0
H2778 H 0.45285 0.9121 0.0829 0.0
H2779 H 0.49092 0.92199 0.09333 0.0
H2780 H 0.43309 0.87173 0.08013 0.0
H2781 H 0.43259 0.91277 0.99698 0.0
H2782 H 0.45465 0.89276 0.00045 0.0
H2783 H 0.45423 0.91749 0.01713 0.0
C2784 C 0.50243 0.89094 0.0474 0.0
C2785 C 0.50651 0.90432 0.06606 0.0
C2786 C 0.48076 0.88502 0.04172 0.0
C2787 C 0.46264 0.8927 0.05427 0.0
C2788 C 0.4666 0.90604 0.07293 0.0
H2789 H 0.32462 0.90645 0.04526 0.0
H2790 H 0.36323 0.90186 0.05717 0.0
C2791 C 0.48835 0.91176 0.07882 0.0
C2792 C 0.43956 0.88669 0.04806 0.0
H2793 H 0.40124 0.89113 0.00624 0.0
C2794 C 0.42617 0.87589 0.06394 0.0
C2795 C 0.43056 0.892 0.02687 0.0
C2796 C 0.44366 0.90457 0.00945 0.0
C2797 C 0.4039 0.87071 0.05933 0.0
C2798 C 0.39487 0.87642 0.03835 0.0
C2799 C 0.40841 0.88647 0.0222 0.0
C2800 C 0.37069 0.87551 0.03397 0.0
C2801 C 0.38998 0.85961 0.07705 0.0
C2802 C 0.36199 0.86181 0.01729 0.0
C2803 C 0.3397 0.86419 0.01067 0.0
C2804 C 0.32623 0.88069 0.0203 0.0
C2805 C 0.33475 0.89359 0.03765 0.0
C2806 C 0.35673 0.89093 0.04452 0.0
H2807 H 0.40048 0.85137 0.08998 0.0
H2808 H 0.37945 0.87237 0.0853 0.0
H2809 H 0.37879 0.84706 0.06963 0.0
H2810 H 0.37266 0.84999 0.00882 0.0
H2811 H 0.33347 0.85424 0.9971 0.0
H2812 H 0.16931 0.26174 0.22182 0.0
H2813 H 0.16587 0.30196 0.22299 0.0
H2814 H 0.19748 0.30721 0.15868 0.0
H2815 H 0.20005 0.26649 0.15688 0.0
H2816 H 0.19359 0.3352 0.22262 0.0
H2817 H 0.14076 0.34051 0.14672 0.0
H2818 H 0.14839 0.31429 0.15948 0.0
H2819 H 0.1681 0.32907 0.14246 0.0
C2820 C 0.17571 0.27136 0.20792 0.0
C2821 C 0.18466 0.26086 0.18908 0.0
C2822 C 0.17375 0.29444 0.20865 0.0
C2823 C 0.18095 0.30763 0.19071 0.0
C2824 C 0.19119 0.29733 0.17242 0.0
H2825 H 0.16793 0.4508 0.21832 0.0
H2826 H 0.18483 0.41552 0.20726 0.0
C2827 C 0.19282 0.27409 0.1715 0.0
C2828 C 0.1767 0.33198 0.19125 0.0
H2829 H 0.14704 0.37373 0.16584 0.0
C2830 C 0.18358 0.34371 0.21011 0.0
C2831 C 0.16347 0.34298 0.17497 0.0
C2832 C 0.15456 0.33108 0.15485 0.0
C2833 C 0.17661 0.3657 0.21381 0.0
C2834 C 0.16323 0.37667 0.19762 0.0
C2835 C 0.15733 0.36531 0.17819 0.0
C2836 C 0.15344 0.39906 0.20148 0.0
C2837 C 0.1825 0.37631 0.23572 0.0
C2838 C 0.13023 0.40208 0.20045 0.0
C2839 C 0.12058 0.42249 0.20605 0.0
C2840 C 0.13393 0.44013 0.21314 0.0
C2841 C 0.15719 0.4374 0.21328 0.0
C2842 C 0.16687 0.41717 0.20711 0.0
H2843 H 0.18762 0.36371 0.24842 0.0
H2844 H 0.19667 0.38778 0.2332 0.0
H2845 H 0.16823 0.38597 0.24246 0.0
H2846 H 0.1195 0.38839 0.19605 0.0
H2847 H 0.1026 0.42413 0.20579 0.0
H2848 H 0.49991 0.58493 0.02458 0.0
H2849 H 0.53959 0.58978 0.01722 0.0
H2850 H 0.5552 0.56339 0.08237 0.0
H2851 H 0.51557 0.55865 0.09 0.0
H2852 H 0.57394 0.60447 0.07417 0.0
H2853 H 0.59149 0.54728 0.00433 0.0
H2854 H 0.56787 0.5652 0.99958 0.0
H2855 H 0.56704 0.54481 0.02165 0.0
C2856 C 0.51177 0.57968 0.03719 0.0
C2857 C 0.50447 0.57154 0.05796 0.0
C2858 C 0.53449 0.58239 0.0329 0.0
C2859 C 0.55038 0.57683 0.0492 0.0
C2860 C 0.54322 0.56775 0.06954 0.0
H2861 H 0.69477 0.58885 0.03117 0.0
H2862 H 0.65769 0.57452 0.03982 0.0
C2863 C 0.52053 0.56501 0.07385 0.0
C2864 C 0.57416 0.58263 0.04593 0.0
H2865 H 0.61869 0.57531 0.0113 0.0
C2866 C 0.58379 0.59791 0.06056 0.0
C2867 C 0.58706 0.57394 0.02828 0.0
C2868 C 0.57794 0.55673 0.01267 0.0
C2869 C 0.60571 0.60528 0.05758 0.0
C2870 C 0.61826 0.59737 0.03935 0.0
C2871 C 0.60895 0.5815 0.02516 0.0
C2872 C 0.64079 0.60601 0.03434 0.0
C2873 C 0.61524 0.62157 0.07393 0.0
C2874 C 0.64355 0.62842 0.02829 0.0
C2875 C 0.66467 0.63665 0.02326 0.0
C2876 C 0.68353 0.62261 0.02413 0.0
C2877 C 0.68069 0.60014 0.0303 0.0
C2878 C 0.65949 0.5919 0.03522 0.0
H2879 H 0.60582 0.62161 0.08984 0.0
H2880 H 0.63298 0.61763 0.07754 0.0
H2881 H 0.61436 0.6386 0.06666 0.0
H2882 H 0.62929 0.63953 0.02723 0.0
H2883 H 0.66616 0.65401 0.01853 0.0
H2884 H 0.8328 0.75153 0.28607 0.0
H2885 H 0.84462 0.79024 0.28444 0.0
H2886 H 0.8282 0.79801 0.35377 0.0
H2887 H 0.81642 0.75899 0.35572 0.0
H2888 H 0.81379 0.83397 0.32203 0.0
H2889 H 0.90349 0.81167 0.31588 0.0
H2890 H 0.88534 0.79729 0.29715 0.0
H2891 H 0.88284 0.79265 0.3266 0.0
C2892 C 0.83143 0.76147 0.30097 0.0
C2893 C 0.82383 0.75207 0.3211 0.0
C2894 C 0.83836 0.78355 0.30001 0.0
C2895 C 0.83779 0.79673 0.31911 0.0
C2896 C 0.82901 0.78793 0.33893 0.0
H2897 H 0.86231 0.93875 0.32878 0.0
H2898 H 0.8594 0.89965 0.34002 0.0
C2899 C 0.82212 0.76571 0.33996 0.0
C2900 C 0.84644 0.8197 0.31812 0.0
H2901 H 0.89375 0.84951 0.3085 0.0
C2902 C 0.83129 0.83745 0.31939 0.0
C2903 C 0.86928 0.82403 0.31452 0.0
C2904 C 0.88627 0.80545 0.31362 0.0
C2905 C 0.83822 0.8595 0.31626 0.0
C2906 C 0.86108 0.8639 0.3124 0.0
C2907 C 0.87631 0.84612 0.31159 0.0
C2908 C 0.86898 0.88681 0.30786 0.0
C2909 C 0.82081 0.87778 0.31608 0.0
C2910 C 0.87749 0.89244 0.28677 0.0
C2911 C 0.87975 0.91481 0.28051 0.0
C2912 C 0.87326 0.9317 0.29521 0.0
C2913 C 0.86727 0.92598 0.31712 0.0
C2914 C 0.86538 0.90367 0.32347 0.0
H2915 H 0.80374 0.87111 0.31398 0.0
H2916 H 0.82133 0.88675 0.33213 0.0
H2917 H 0.824 0.88997 0.30247 0.0
H2918 H 0.88061 0.87963 0.27456 0.0
H2919 H 0.88429 0.91881 0.26349 0.0
H2920 H 0.0089 0.93188 0.89806 0.0
H2921 H 0.04923 0.92632 0.90196 0.0
H2922 H 0.04165 0.91985 0.97307 0.0
H2923 H 0.00168 0.92587 0.96945 0.0
H2924 H 0.07896 0.94337 0.96175 0.0
H2925 H 0.07468 0.86432 0.91449 0.0
H2926 H 0.06509 0.88875 0.89981 0.0
H2927 H 0.0501 0.87893 0.9238 0.0
C2928 C 0.01588 0.92969 0.91456 0.0
C2929 C 0.00198 0.92902 0.93341 0.0
C2930 C 0.03892 0.92631 0.91674 0.0
C2931 C 0.0484 0.92213 0.93777 0.0
C2932 C 0.03472 0.92286 0.95667 0.0
H2933 H 0.16197 0.84698 0.98107 0.0
H2934 H 0.12572 0.86183 0.96972 0.0
C2935 C 0.01181 0.92627 0.95453 0.0
C2936 C 0.07223 0.91571 0.94032 0.0
H2937 H 0.10958 0.87417 0.92885 0.0
C2938 C 0.08576 0.92837 0.95437 0.0
C2939 C 0.08096 0.89594 0.93094 0.0
C2940 C 0.06697 0.88104 0.91656 0.0
C2941 C 0.10758 0.92158 0.95968 0.0
C2942 C 0.11629 0.90178 0.95034 0.0
C2943 C 0.10293 0.88939 0.9359 0.0
C2944 C 0.1386 0.89279 0.95652 0.0
C2945 C 0.12074 0.93514 0.97604 0.0
C2946 C 0.15801 0.90508 0.95256 0.0
C2947 C 0.17882 0.89667 0.95917 0.0
C2948 C 0.18066 0.87569 0.96968 0.0
C2949 C 0.16122 0.86319 0.97307 0.0
C2950 C 0.14045 0.87166 0.96656 0.0
H2951 H 0.10992 0.94673 0.98556 0.0
H2952 H 0.12978 0.92416 0.98801 0.0
H2953 H 0.13319 0.9452 0.96687 0.0
H2954 H 0.15708 0.92119 0.94438 0.0
H2955 H 0.19343 0.90665 0.95606 0.0
H2956 H 0.16244 0.74672 0.27309 0.0
H2957 H 0.14913 0.70856 0.27305 0.0
H2958 H 0.16017 0.70362 0.34385 0.0
H2959 H 0.17298 0.74222 0.34422 0.0
H2960 H 0.16867 0.66991 0.28473 0.0
H2961 H 0.09523 0.68548 0.33873 0.0
H2962 H 0.11153 0.70772 0.32682 0.0
H2963 H 0.12141 0.69281 0.35097 0.0
C2964 C 0.16226 0.73751 0.28867 0.0
C2965 C 0.16855 0.74762 0.30871 0.0
C2966 C 0.15455 0.71571 0.28861 0.0
C2967 C 0.15305 0.70351 0.30854 0.0
C2968 C 0.16056 0.71302 0.3284 0.0
H2969 H 0.13677 0.56501 0.32639 0.0
H2970 H 0.13653 0.60474 0.33459 0.0
C2971 C 0.16821 0.73495 0.32851 0.0
C2972 C 0.14386 0.68074 0.30819 0.0
H2973 H 0.10226 0.6478 0.32864 0.0
C2974 C 0.15409 0.66514 0.29424 0.0
C2975 C 0.12472 0.67464 0.32054 0.0
C2976 C 0.11242 0.69108 0.33496 0.0
C2977 C 0.14592 0.64349 0.29249 0.0
C2978 C 0.12697 0.63731 0.30499 0.0
C2979 C 0.11667 0.65279 0.31899 0.0
C2980 C 0.11906 0.61418 0.30448 0.0
C2981 C 0.15779 0.62719 0.27752 0.0
C2982 C 0.10769 0.60639 0.28573 0.0
C2983 C 0.10765 0.58362 0.28106 0.0
C2984 C 0.11931 0.56869 0.29499 0.0
C2985 C 0.12788 0.57629 0.3153 0.0
C2986 C 0.12771 0.59895 0.32004 0.0
H2987 H 0.17329 0.63418 0.2703 0.0
H2988 H 0.16209 0.61175 0.28692 0.0
H2989 H 0.1466 0.6225 0.26365 0.0
H2990 H 0.10095 0.61802 0.27356 0.0
H2991 H 0.10091 0.57816 0.26532 0.0
H2992 H 0.0005 0.58879 0.89476 0.0
H2993 H 0.96145 0.59996 0.90017 0.0
H2994 H 0.97316 0.60626 0.97062 0.0
H2995 H 0.01191 0.59543 0.96543 0.0
H2996 H 0.92857 0.58102 0.92557 0.0
H2997 H 0.94456 0.66601 0.95563 0.0
H2998 H 0.96561 0.64953 0.9418 0.0
H2999 H 0.96038 0.64572 0.9711 0.0
C3000 C 0.99469 0.59244 0.9114 0.0
C3001 C 0.00939 0.5914 0.92963 0.0
C3002 C 0.97244 0.59897 0.91444 0.0
C3003 C 0.9646 0.60465 0.9357 0.0
C3004 C 0.97903 0.60275 0.95396 0.0
H3005 H 0.84901 0.59339 0.00724 0.0
H3006 H 0.88562 0.59614 0.99008 0.0
C3007 C 0.00116 0.59631 0.95097 0.0
C3008 C 0.94109 0.61144 0.93935 0.0
H3009 H 0.90919 0.6498 0.96676 0.0
C3010 C 0.92426 0.59634 0.93404 0.0
C3011 C 0.93537 0.63159 0.95012 0.0
C3012 C 0.95244 0.64924 0.95476 0.0
C3013 C 0.90222 0.6 0.94087 0.0
C3014 C 0.89697 0.61911 0.95346 0.0
C3015 C 0.91336 0.63507 0.95727 0.0
C3016 C 0.87558 0.62072 0.96552 0.0
C3017 C 0.88487 0.58277 0.93571 0.0
C3018 C 0.85812 0.63457 0.95805 0.0
C3019 C 0.837 0.63315 0.968 0.0
C3020 C 0.83329 0.61774 0.98535 0.0
C3021 C 0.85133 0.60522 0.99372 0.0
C3022 C 0.87224 0.60673 0.98394 0.0
H3023 H 0.89009 0.57192 0.92174 0.0
H3024 H 0.88226 0.57208 0.95063 0.0
H3025 H 0.86872 0.59085 0.93144 0.0
H3026 H 0.86052 0.64558 0.94389 0.0
H3027 H 0.82336 0.64295 0.96121 0.0
H3028 H 0.15329 0.79958 0.22791 0.0
H3029 H 0.15807 0.79989 0.1874 0.0
H3030 H 0.21799 0.83833 0.19454 0.0
H3031 H 0.21385 0.83736 0.23473 0.0
H3032 H 0.15688 0.834 0.16032 0.0
H3033 H 0.23902 0.79415 0.15043 0.0
H3034 H 0.22391 0.79295 0.17636 0.0
H3035 H 0.24125 0.81651 0.16978 0.0
C3036 C 0.16771 0.80772 0.22082 0.0
C3037 C 0.18321 0.8184 0.23456 0.0
C3038 C 0.17041 0.80789 0.19769 0.0
C3039 C 0.18861 0.81878 0.1879 0.0
C3040 C 0.20421 0.82918 0.20165 0.0
H3041 H 0.19863 0.89344 0.06869 0.0
H3042 H 0.18829 0.87674 0.10427 0.0
C3043 C 0.2017 0.82877 0.2247 0.0
C3044 C 0.1904 0.82123 0.16337 0.0
H3045 H 0.22832 0.82051 0.12118 0.0
C3046 C 0.17236 0.83059 0.15165 0.0
C3047 C 0.21034 0.81629 0.15182 0.0
C3048 C 0.22959 0.80417 0.16276 0.0
C3049 C 0.17426 0.83659 0.12911 0.0
C3050 C 0.195 0.83389 0.11825 0.0
C3051 C 0.21252 0.82306 0.12955 0.0
C3052 C 0.19949 0.84348 0.09585 0.0
C3053 C 0.15403 0.84594 0.11732 0.0
C3054 C 0.20977 0.83056 0.07936 0.0
C3055 C 0.21627 0.84025 0.05919 0.0
C3056 C 0.21241 0.86302 0.05501 0.0
C3057 C 0.20158 0.8758 0.07127 0.0
C3058 C 0.19546 0.86619 0.09159 0.0
H3059 H 0.13849 0.83891 0.12443 0.0
H3060 H 0.15333 0.86424 0.11966 0.0
H3061 H 0.15444 0.84242 0.09922 0.0
H3062 H 0.21318 0.81303 0.08227 0.0
H3063 H 0.22453 0.82993 0.04701 0.0
H3064 H 0.22419 0.16295 0.25705 0.0
H3065 H 0.22935 0.15834 0.29706 0.0
H3066 H 0.17551 0.20463 0.3091 0.0
H3067 H 0.16968 0.20875 0.26895 0.0
H3068 H 0.23888 0.1852 0.33091 0.0
H3069 H 0.1542 0.15039 0.34238 0.0
H3070 H 0.16606 0.15539 0.31526 0.0
H3071 H 0.15452 0.17808 0.33095 0.0
C3072 C 0.21357 0.17236 0.26816 0.0
C3073 C 0.19629 0.18597 0.25981 0.0
C3074 C 0.21655 0.16969 0.29106 0.0
C3075 C 0.20245 0.1807 0.30607 0.0
C3076 C 0.18614 0.19545 0.29781 0.0
H3077 H 0.23364 0.16964 0.44868 0.0
H3078 H 0.22549 0.18533 0.41191 0.0
C3079 C 0.18294 0.19791 0.27487 0.0
C3080 C 0.20439 0.17583 0.33023 0.0
H3081 H 0.1762 0.15395 0.37456 0.0
C3082 C 0.22516 0.17849 0.34052 0.0
C3083 C 0.1865 0.1668 0.34263 0.0
C3084 C 0.16412 0.16228 0.33224 0.0
C3085 C 0.22872 0.1719 0.36271 0.0
C3086 C 0.21077 0.16306 0.37517 0.0
C3087 C 0.18987 0.16089 0.36503 0.0
C3088 C 0.21374 0.15437 0.39817 0.0
C3089 C 0.25193 0.1735 0.37218 0.0
C3090 C 0.20868 0.13208 0.40306 0.0
C3091 C 0.21286 0.12319 0.42421 0.0
C3092 C 0.22239 0.13639 0.44082 0.0
C3093 C 0.22661 0.15895 0.43616 0.0
C3094 C 0.22209 0.16792 0.41509 0.0
H3095 H 0.26468 0.17511 0.35888 0.0
H3096 H 0.25297 0.18846 0.38281 0.0
H3097 H 0.25609 0.15865 0.38254 0.0
H3098 H 0.2021 0.12133 0.39029 0.0
H3099 H 0.20942 0.10575 0.42725 0.0
H3100 H 0.40583 0.53439 0.00787 0.0
H3101 H 0.39458 0.52905 0.96932 0.0
H3102 H 0.40944 0.59773 0.95446 0.0
H3103 H 0.42121 0.60315 0.99307 0.0
H3104 H 0.36107 0.55047 0.94486 0.0
H3105 H 0.44488 0.56394 0.90757 0.0
H3106 H 0.44096 0.55974 0.93706 0.0
H3107 H 0.43414 0.58613 0.92441 0.0
C3108 C 0.40688 0.54835 0.9964 0.0
C3109 C 0.41455 0.56917 0.0035 0.0
C3110 C 0.4003 0.5453 0.9744 0.0
C3111 C 0.40122 0.56297 0.95905 0.0
C3112 C 0.40887 0.5838 0.96601 0.0
H3113 H 0.36079 0.54332 0.81872 0.0
H3114 H 0.3593 0.55961 0.85621 0.0
C3115 C 0.41564 0.58685 0.98804 0.0
C3116 C 0.39463 0.55909 0.93569 0.0
H3117 H 0.41613 0.55379 0.88347 0.0
C3118 C 0.37297 0.55155 0.93133 0.0
C3119 C 0.41024 0.5605 0.91813 0.0
C3120 C 0.43391 0.56785 0.92192 0.0
C3121 C 0.36685 0.5444 0.91001 0.0
C3122 C 0.38277 0.54493 0.8928 0.0
C3123 C 0.40399 0.55357 0.89684 0.0
C3124 C 0.37922 0.53351 0.87151 0.0
C3125 C 0.34394 0.53512 0.9062 0.0
C3126 C 0.39013 0.51315 0.86813 0.0
C3127 C 0.39113 0.50401 0.84698 0.0
C3128 C 0.38115 0.51506 0.82883 0.0
C3129 C 0.36854 0.53449 0.83251 0.0
C3130 C 0.36774 0.54382 0.85382 0.0
H3131 H 0.33317 0.53657 0.92115 0.0
H3132 H 0.33583 0.54405 0.89208 0.0
H3133 H 0.34534 0.5173 0.90161 0.0
H3134 H 0.399 0.50497 0.88166 0.0
H3135 H 0.40078 0.4889 0.84459 0.0
H3136 H 0.77723 0.32957 0.24752 0.0
H3137 H 0.77796 0.34277 0.28575 0.0
H3138 H 0.8484 0.32908 0.2894 0.0
H3139 H 0.84796 0.31593 0.25078 0.0
H3140 H 0.8194 0.31526 0.32819 0.0
H3141 H 0.80895 0.40366 0.30214 0.0
H3142 H 0.79005 0.38441 0.28955 0.0
H3143 H 0.81929 0.3824 0.28361 0.0
C3144 C 0.79289 0.32907 0.25647 0.0
C3145 C 0.8126 0.32188 0.246 0.0
C3146 C 0.79326 0.33677 0.27828 0.0
C3147 C 0.81331 0.33741 0.29012 0.0
C3148 C 0.83281 0.32896 0.28034 0.0
H3149 H 0.82767 0.36797 0.43068 0.0
H3150 H 0.83812 0.36433 0.39153 0.0
C3151 C 0.83249 0.32128 0.25837 0.0
C3152 C 0.81361 0.34711 0.31266 0.0
H3153 H 0.80366 0.39547 0.34064 0.0
C3154 C 0.81635 0.33283 0.33099 0.0
C3155 C 0.80943 0.37003 0.3161 0.0
C3156 C 0.80692 0.38612 0.29684 0.0
C3157 C 0.814 0.34068 0.3528 0.0
C3158 C 0.80944 0.3636 0.35632 0.0
C3159 C 0.80729 0.37799 0.33792 0.0
C3160 C 0.80525 0.37234 0.37896 0.0
C3161 C 0.81529 0.3241 0.37181 0.0
C3162 C 0.78398 0.38034 0.38467 0.0
C3163 C 0.77815 0.38307 0.40706 0.0
C3164 C 0.7935 0.37755 0.42387 0.0
C3165 C 0.81553 0.37224 0.41797 0.0
C3166 C 0.82143 0.36988 0.39564 0.0
H3167 H 0.81374 0.30667 0.36599 0.0
H3168 H 0.83161 0.32562 0.38026 0.0
H3169 H 0.80198 0.32732 0.38422 0.0
H3170 H 0.77131 0.38258 0.372 0.0
H3171 H 0.76102 0.38703 0.41119 0.0
H3172 H 0.08378 0.46787 0.51086 0.0
H3173 H 0.09305 0.47449 0.47182 0.0
H3174 H 0.09857 0.40372 0.46146 0.0
H3175 H 0.08879 0.39692 0.50048 0.0
H3176 H 0.13147 0.46356 0.45053 0.0
H3177 H 0.06019 0.42243 0.40927 0.0
H3178 H 0.06029 0.42854 0.43861 0.0
H3179 H 0.07543 0.40486 0.42828 0.0
C3180 C 0.08663 0.45366 0.50023 0.0
C3181 C 0.08545 0.43184 0.50884 0.0
C3182 C 0.09203 0.45749 0.47789 0.0
C3183 C 0.0964 0.43963 0.46359 0.0
C3184 C 0.09486 0.41778 0.472 0.0
H3185 H 0.12718 0.44564 0.32041 0.0
H3186 H 0.12759 0.43224 0.35926 0.0
C3187 C 0.08928 0.41392 0.49436 0.0
C3188 C 0.10337 0.44412 0.44018 0.0
H3189 H 0.08847 0.43645 0.38591 0.0
C3190 C 0.1221 0.45754 0.43641 0.0
C3191 C 0.09128 0.43614 0.4217 0.0
C3192 C 0.07057 0.42235 0.42458 0.0
C3193 C 0.12877 0.46354 0.41477 0.0
C3194 C 0.11633 0.45608 0.39636 0.0
C3195 C 0.09809 0.44203 0.40005 0.0
C3196 C 0.12038 0.46452 0.37339 0.0
C3197 C 0.14897 0.47802 0.41177 0.0
C3198 C 0.11682 0.48716 0.3685 0.0
C3199 C 0.11656 0.49474 0.34645 0.0
C3200 C 0.12008 0.47988 0.32889 0.0
C3201 C 0.125 0.45748 0.33374 0.0
C3202 C 0.12501 0.44981 0.35587 0.0
H3203 H 0.16027 0.47684 0.42638 0.0
H3204 H 0.15841 0.47335 0.3966 0.0
H3205 H 0.14353 0.49563 0.40993 0.0
H3206 H 0.11278 0.49874 0.38164 0.0
H3207 H 0.1122 0.51197 0.34304 0.0
H3208 H 0.3578 0.17116 0.74754 0.0
H3209 H 0.35669 0.16 0.70834 0.0
H3210 H 0.28493 0.16148 0.71008 0.0
H3211 H 0.28586 0.17291 0.74887 0.0
H3212 H 0.3367 0.12088 0.69199 0.0
H3213 H 0.29904 0.19641 0.65352 0.0
H3214 H 0.31132 0.19649 0.68093 0.0
H3215 H 0.28351 0.18634 0.67699 0.0
C3216 C 0.34182 0.16972 0.73936 0.0
C3217 C 0.32191 0.17302 0.75126 0.0
C3218 C 0.34121 0.16311 0.71706 0.0
C3219 C 0.32073 0.16001 0.7063 0.0
C3220 C 0.30091 0.16408 0.71795 0.0
H3221 H 0.26913 0.10872 0.58448 0.0
H3222 H 0.27884 0.11099 0.62405 0.0
C3223 C 0.30149 0.17059 0.74015 0.0
C3224 C 0.31976 0.15151 0.68326 0.0
H3225 H 0.29804 0.16319 0.63198 0.0
C3226 C 0.32847 0.1302 0.67878 0.0
C3227 C 0.30903 0.16371 0.66608 0.0
C3228 C 0.30038 0.18709 0.66952 0.0
C3229 C 0.32611 0.12058 0.65766 0.0
C3230 C 0.31472 0.13254 0.64084 0.0
C3231 C 0.30645 0.15396 0.64516 0.0
C3232 C 0.31185 0.12387 0.61812 0.0
C3233 C 0.33546 0.09769 0.65335 0.0
C3234 C 0.3277 0.12918 0.60187 0.0
C3235 C 0.32216 0.12801 0.57937 0.0
C3236 C 0.3007 0.12152 0.57285 0.0
C3237 C 0.28585 0.11356 0.58906 0.0
C3238 C 0.29132 0.11497 0.61165 0.0
H3239 H 0.34344 0.09024 0.66838 0.0
H3240 H 0.32195 0.08657 0.64767 0.0
H3241 H 0.34798 0.09862 0.63978 0.0
H3242 H 0.34355 0.13621 0.60659 0.0
H3243 H 0.33387 0.13429 0.56716 0.0
H3244 H 0.43423 0.47095 0.49835 0.0
H3245 H 0.42953 0.47964 0.53778 0.0
H3246 H 0.41056 0.41161 0.55094 0.0
H3247 H 0.41662 0.40262 0.51186 0.0
H3248 H 0.39349 0.47998 0.55942 0.0
H3249 H 0.44874 0.42039 0.60328 0.0
H3250 H 0.45025 0.42472 0.57359 0.0
H3251 H 0.4301 0.40587 0.58537 0.0
C3252 C 0.42966 0.45775 0.50984 0.0
C3253 C 0.42594 0.4361 0.50215 0.0
C3254 C 0.42689 0.46272 0.53234 0.0
C3255 C 0.41991 0.44625 0.54751 0.0
C3256 C 0.41664 0.42448 0.53985 0.0
H3257 H 0.34227 0.47826 0.66482 0.0
H3258 H 0.35549 0.46787 0.62787 0.0
C3259 C 0.41998 0.41936 0.51744 0.0
C3260 C 0.41385 0.45239 0.57069 0.0
H3261 H 0.419 0.43626 0.62509 0.0
C3262 C 0.39936 0.47057 0.57378 0.0
C3263 C 0.42165 0.44037 0.58955 0.0
C3264 C 0.43874 0.42192 0.58778 0.0
C3265 C 0.39212 0.47679 0.59503 0.0
C3266 C 0.39867 0.46382 0.61373 0.0
C3267 C 0.41359 0.44597 0.61074 0.0
C3268 C 0.39048 0.46871 0.63653 0.0
C3269 C 0.37791 0.49751 0.59713 0.0
C3270 C 0.40562 0.47136 0.65409 0.0
C3271 C 0.39805 0.47662 0.6754 0.0
C3272 C 0.37519 0.4797 0.67954 0.0
C3273 C 0.36001 0.47643 0.66209 0.0
C3274 C 0.36757 0.47066 0.6409 0.0
H3275 H 0.38076 0.50923 0.58302 0.0
H3276 H 0.36008 0.49283 0.59685 0.0
H3277 H 0.38135 0.50637 0.61288 0.0
H3278 H 0.42336 0.46973 0.65123 0.0
H3279 H 0.4102 0.47876 0.68845 0.0
H3280 H 0.5857 0.10144 0.50932 0.0
H3281 H 0.58991 0.09249 0.54892 0.0
H3282 H 0.57178 0.02446 0.53614 0.0
H3283 H 0.56853 0.03308 0.49639 0.0
H3284 H 0.56506 0.07662 0.58228 0.0
H3285 H 0.63179 0.01538 0.56349 0.0
H3286 H 0.62023 0.03369 0.54253 0.0
H3287 H 0.60582 0.00869 0.55059 0.0
C3288 C 0.58232 0.08463 0.51498 0.0
C3289 C 0.5771 0.06789 0.49966 0.0
C3290 C 0.58475 0.07952 0.53765 0.0
C3291 C 0.5818 0.05763 0.54549 0.0
C3292 C 0.5749 0.04129 0.53044 0.0
H3293 H 0.58576 0.02109 0.68828 0.0
H3294 H 0.57259 0.0313 0.65091 0.0
C3295 C 0.57287 0.04628 0.50773 0.0
C3296 C 0.58722 0.05169 0.56905 0.0
H3297 H 0.62005 0.01737 0.60089 0.0
C3298 C 0.57709 0.06366 0.58638 0.0
C3299 C 0.6032 0.03503 0.57445 0.0
C3300 C 0.61606 0.02262 0.5568 0.0
C3301 C 0.58252 0.05948 0.60885 0.0
C3302 C 0.59809 0.04242 0.61422 0.0
C3303 C 0.60802 0.03035 0.59687 0.0
C3304 C 0.60547 0.03744 0.63748 0.0
C3305 C 0.57211 0.07391 0.62651 0.0
C3306 C 0.62831 0.03715 0.64245 0.0
C3307 C 0.63586 0.0308 0.66355 0.0
C3308 C 0.62077 0.02478 0.68041 0.0
C3309 C 0.59783 0.02571 0.67573 0.0
C3310 C 0.59027 0.03173 0.65437 0.0
H3311 H 0.56569 0.08986 0.61942 0.0
H3312 H 0.55787 0.06499 0.63411 0.0
H3313 H 0.58425 0.07772 0.63985 0.0
H3314 H 0.64043 0.04155 0.62982 0.0
H3315 H 0.65363 0.03047 0.6666 0.0
H3316 H 0.73717 0.64765 0.3216 0.0
H3317 H 0.69721 0.65263 0.32869 0.0
H3318 H 0.70574 0.72381 0.3296 0.0
H3319 H 0.7455 0.71901 0.32275 0.0
H3320 H 0.68543 0.70708 0.36759 0.0
H3321 H 0.64407 0.6758 0.29141 0.0
H3322 H 0.66442 0.65738 0.30376 0.0
H3323 H 0.67309 0.68347 0.29196 0.0
C3324 C 0.73042 0.66437 0.32269 0.0
C3325 C 0.74456 0.68293 0.32169 0.0
C3326 C 0.70755 0.6672 0.32676 0.0
C3327 C 0.69845 0.68861 0.32966 0.0
C3328 C 0.71238 0.70714 0.32748 0.0
H3329 H 0.5638 0.73799 0.34478 0.0
H3330 H 0.60089 0.72743 0.33174 0.0
C3331 C 0.73513 0.70435 0.32352 0.0
C3332 C 0.67501 0.69187 0.33704 0.0
H3333 H 0.62066 0.68526 0.32172 0.0
C3334 C 0.67127 0.70225 0.35757 0.0
C3335 C 0.65656 0.68569 0.32391 0.0
C3336 C 0.65961 0.67512 0.30144 0.0
C3337 C 0.64965 0.70675 0.36528 0.0
C3338 C 0.63116 0.70037 0.3523 0.0
C3339 C 0.63485 0.68995 0.33175 0.0
C3340 C 0.60795 0.70528 0.35946 0.0
C3341 C 0.6468 0.71886 0.38702 0.0
C3342 C 0.59936 0.696 0.37917 0.0
C3343 C 0.57811 0.70204 0.38672 0.0
C3344 C 0.56496 0.71744 0.37465 0.0
C3345 C 0.5734 0.72614 0.35454 0.0
C3346 C 0.59462 0.72008 0.34701 0.0
H3347 H 0.66244 0.72699 0.39236 0.0
H3348 H 0.63351 0.73175 0.38567 0.0
H3349 H 0.64191 0.70679 0.40018 0.0
H3350 H 0.60922 0.68429 0.38888 0.0
H3351 H 0.57215 0.69487 0.40218 0.0
H3352 H 0.8969 0.00835 0.91351 0.0
H3353 H 0.90507 0.0479 0.9067 0.0
H3354 H 0.97155 0.03773 0.93217 0.0
H3355 H 0.9638 0.99821 0.93787 0.0
H3356 H 0.9185 0.08379 0.92959 0.0
H3357 H 0.98487 0.0595 0.87057 0.0
H3358 H 0.96585 0.03958 0.88237 0.0
H3359 H 0.98988 0.04831 0.89787 0.0
C3360 C 0.91309 0.01474 0.91801 0.0
C3361 C 0.92982 0.00027 0.92598 0.0
C3362 C 0.91779 0.03728 0.91405 0.0
C3363 C 0.93918 0.04567 0.91825 0.0
C3364 C 0.9552 0.03154 0.92804 0.0
H3365 H 0.97863 0.18573 0.9142 0.0
H3366 H 0.96564 0.14893 0.9258 0.0
C3367 C 0.95069 0.00901 0.93151 0.0
C3368 C 0.94531 0.06866 0.9112 0.0
H3369 H 0.98366 0.09757 0.88083 0.0
C3370 C 0.93267 0.08684 0.91882 0.0
C3371 C 0.96349 0.07266 0.89672 0.0
C3372 C 0.97664 0.05397 0.88621 0.0
C3373 C 0.93801 0.10887 0.91275 0.0
C3374 C 0.95693 0.11289 0.89923 0.0
C3375 C 0.96931 0.09464 0.89138 0.0
C3376 C 0.96408 0.1357 0.89241 0.0
C3377 C 0.92294 0.12748 0.92045 0.0
C3378 C 0.96829 0.14048 0.86986 0.0
C3379 C 0.97637 0.16128 0.86329 0.0
C3380 C 0.9802 0.17796 0.87906 0.0
C3381 C 0.97572 0.17332 0.90161 0.0
C3382 C 0.96805 0.15231 0.90824 0.0
H3383 H 0.90592 0.12136 0.92418 0.0
H3384 H 0.92976 0.13459 0.93598 0.0
H3385 H 0.92166 0.14096 0.90775 0.0
H3386 H 0.96541 0.12803 0.85727 0.0
H3387 H 0.97948 0.16433 0.84577 0.0
H3388 H 0.24687 0.78087 0.32692 0.0
H3389 H 0.2852 0.77797 0.34005 0.0
H3390 H 0.29622 0.84653 0.32176 0.0
H3391 H 0.25764 0.84973 0.30858 0.0
H3392 H 0.33125 0.81466 0.30964 0.0
H3393 H 0.30672 0.8082 0.39857 0.0
H3394 H 0.29279 0.78938 0.38022 0.0
H3395 H 0.28816 0.81883 0.37726 0.0
C3396 C 0.25744 0.79533 0.32543 0.0
C3397 C 0.24906 0.81562 0.31686 0.0
C3398 C 0.27931 0.79365 0.33313 0.0
C3399 C 0.29331 0.81218 0.33241 0.0
C3400 C 0.28552 0.83212 0.32272 0.0
H3401 H 0.43409 0.82408 0.36236 0.0
H3402 H 0.39478 0.83375 0.35736 0.0
C3403 C 0.26353 0.83387 0.31505 0.0
C3404 C 0.31609 0.81056 0.34179 0.0
H3405 H 0.34474 0.80081 0.39013 0.0
C3406 C 0.33425 0.81188 0.32725 0.0
C3407 C 0.31986 0.80678 0.36478 0.0
C3408 C 0.30089 0.80588 0.3812 0.0
C3409 C 0.35613 0.80882 0.33495 0.0
C3410 C 0.35996 0.80495 0.35796 0.0
C3411 C 0.34178 0.80389 0.37256 0.0
C3412 C 0.38278 0.80114 0.36676 0.0
C3413 C 0.37487 0.8089 0.31819 0.0
C3414 C 0.38886 0.78029 0.37577 0.0
C3415 C 0.41136 0.77492 0.37922 0.0
C3416 C 0.42792 0.7903 0.37346 0.0
C3417 C 0.42159 0.81193 0.36684 0.0
C3418 C 0.39918 0.81738 0.36374 0.0
H3419 H 0.3687 0.80653 0.30095 0.0
H3420 H 0.38347 0.82517 0.31875 0.0
H3421 H 0.38725 0.79559 0.32203 0.0
H3422 H 0.37642 0.76759 0.37845 0.0
H3423 H 0.41583 0.75808 0.38415 0.0
H3424 H 0.10129 0.49235 0.91936 0.0
H3425 H 0.09276 0.45432 0.90808 0.0
H3426 H 0.02329 0.47209 0.9022 0.0
H3427 H 0.03173 0.51023 0.91288 0.0
H3428 H 0.0668 0.42273 0.92545 0.0
H3429 H 0.03468 0.44539 0.84199 0.0
H3430 H 0.04935 0.4649 0.85922 0.0
H3431 H 0.02011 0.45998 0.86351 0.0
C3432 C 0.08416 0.48812 0.91588 0.0
C3433 C 0.0672 0.50438 0.91685 0.0
C3434 C 0.07934 0.4664 0.90928 0.0
C3435 C 0.0575 0.46054 0.90359 0.0
C3436 C 0.04039 0.47643 0.90571 0.0
H3437 H 0.98345 0.34432 0.89986 0.0
H3438 H 0.99851 0.38193 0.89846 0.0
C3439 C 0.0452 0.49817 0.91209 0.0
C3440 C 0.05241 0.43767 0.89603 0.0
H3441 H 0.02501 0.4088 0.85574 0.0
C3442 C 0.05808 0.41966 0.90999 0.0
C3443 C 0.04125 0.43361 0.87569 0.0
C3444 C 0.03622 0.45199 0.85914 0.0
C3445 C 0.0517 0.3979 0.90481 0.0
C3446 C 0.0393 0.3941 0.88525 0.0
C3447 C 0.03451 0.41186 0.87074 0.0
C3448 C 0.02877 0.37235 0.88148 0.0
C3449 C 0.05724 0.37914 0.92078 0.0
C3450 C 0.04044 0.35476 0.87142 0.0
C3451 C 0.03171 0.33317 0.87195 0.0
C3452 C 0.01145 0.32906 0.8829 0.0
C3453 C 0.99917 0.34705 0.89144 0.0
C3454 C 0.00772 0.36852 0.89065 0.0
H3455 H 0.06816 0.3846 0.93458 0.0
H3456 H 0.04165 0.37239 0.92798 0.0
H3457 H 0.06569 0.36541 0.91176 0.0
H3458 H 0.05677 0.35751 0.86431 0.0
H3459 H 0.04153 0.31953 0.86537 0.0
H3460 H 0.7335 0.28192 0.17351 0.0
H3461 H 0.69298 0.28214 0.17058 0.0
H3462 H 0.69175 0.35324 0.17953 0.0
H3463 H 0.73247 0.35329 0.1825 0.0
H3464 H 0.65515 0.32246 0.20277 0.0
H3465 H 0.66735 0.31572 0.1113 0.0
H3466 H 0.68386 0.29714 0.12833 0.0
H3467 H 0.68843 0.32659 0.12959 0.0
C3468 C 0.72465 0.29758 0.17527 0.0
C3469 C 0.73623 0.31764 0.1779 0.0
C3470 C 0.70151 0.29764 0.17365 0.0
C3471 C 0.68955 0.31772 0.17465 0.0
C3472 C 0.70081 0.3376 0.17875 0.0
H3473 H 0.55826 0.32064 0.11343 0.0
H3474 H 0.59396 0.33367 0.12759 0.0
C3475 C 0.72404 0.33758 0.18042 0.0
C3476 C 0.6657 0.31796 0.16887 0.0
H3477 H 0.63101 0.30944 0.12502 0.0
C3478 C 0.64974 0.31991 0.18577 0.0
C3479 C 0.65885 0.31502 0.14663 0.0
C3480 C 0.67546 0.31366 0.12782 0.0
C3481 C 0.62693 0.31793 0.18104 0.0
C3482 C 0.62016 0.31357 0.15894 0.0
C3483 C 0.63618 0.31272 0.14196 0.0
C3484 C 0.59691 0.30811 0.15306 0.0
C3485 C 0.61037 0.32034 0.19974 0.0
C3486 C 0.58655 0.28964 0.16291 0.0
C3487 C 0.56612 0.2822 0.15492 0.0
C3488 C 0.55582 0.29291 0.13668 0.0
C3489 C 0.56582 0.31193 0.12739 0.0
C3490 C 0.58618 0.31945 0.13551 0.0
H3491 H 0.61703 0.33094 0.21321 0.0
H3492 H 0.59442 0.32765 0.19373 0.0
H3493 H 0.60696 0.30367 0.20702 0.0
H3494 H 0.59476 0.28026 0.17606 0.0
H3495 H 0.55895 0.26745 0.16241 0.0
H3496 H 0.58808 0.00729 0.07597 0.0
H3497 H 0.57936 0.04559 0.08645 0.0
H3498 H 0.51694 0.02419 0.11453 0.0
H3499 H 0.5252 0.98594 0.10357 0.0
H3500 H 0.51211 0.06251 0.09203 0.0
H3501 H 0.58424 0.06946 0.14872 0.0
H3502 H 0.59255 0.06221 0.12103 0.0
H3503 H 0.57575 0.04326 0.1371 0.0
C3504 C 0.57238 0.01075 0.08416 0.0
C3505 C 0.55744 0.99348 0.08909 0.0
C3506 C 0.56754 0.03262 0.09039 0.0
C3507 C 0.54784 0.03764 0.10196 0.0
C3508 C 0.53239 0.02066 0.10591 0.0
H3509 H 0.49783 0.16894 0.14558 0.0
H3510 H 0.50588 0.12866 0.1476 0.0
C3511 C 0.53711 0.99879 0.09951 0.0
C3512 C 0.54326 0.06065 0.10968 0.0
H3513 H 0.56589 0.10378 0.13851 0.0
C3514 C 0.52368 0.0714 0.10251 0.0
C3515 C 0.55825 0.07218 0.1236 0.0
C3516 C 0.57875 0.0611 0.13326 0.0
C3517 C 0.51928 0.09371 0.10785 0.0
C3518 C 0.53483 0.10552 0.12078 0.0
C3519 C 0.554 0.0946 0.12865 0.0
C3520 C 0.53273 0.12988 0.12361 0.0
C3521 C 0.49859 0.10489 0.09873 0.0
C3522 C 0.54586 0.14383 0.11031 0.0
C3523 C 0.54122 0.16657 0.10907 0.0
C3524 C 0.52364 0.17579 0.1214 0.0
C3525 C 0.51169 0.16219 0.13621 0.0
C3526 C 0.51615 0.13924 0.13721 0.0
H3527 H 0.48907 0.09385 0.08752 0.0
H3528 H 0.48759 0.10985 0.11271 0.0
H3529 H 0.50308 0.12025 0.0894 0.0
H3530 H 0.55869 0.1369 0.09969 0.0
H3531 H 0.5505 0.17677 0.0974 0.0
H3532 H 0.25485 0.22184 0.16419 0.0
H3533 H 0.29256 0.22219 0.14935 0.0
H3534 H 0.2998 0.15218 0.16446 0.0
H3535 H 0.26168 0.15149 0.17897 0.0
H3536 H 0.33174 0.21196 0.1697 0.0
H3537 H 0.31715 0.15549 0.09849 0.0
H3538 H 0.29471 0.16777 0.11431 0.0
H3539 H 0.30985 0.14422 0.12529 0.0
C3540 C 0.26446 0.2065 0.16451 0.0
C3541 C 0.25519 0.18658 0.1726 0.0
C3542 C 0.28598 0.20673 0.15593 0.0
C3543 C 0.29869 0.18709 0.15527 0.0
C3544 C 0.28996 0.16737 0.16426 0.0
H3545 H 0.43711 0.17236 0.13899 0.0
H3546 H 0.39776 0.16266 0.13825 0.0
C3547 C 0.26833 0.16709 0.17284 0.0
C3548 C 0.32135 0.18772 0.14577 0.0
H3549 H 0.35454 0.16697 0.10448 0.0
C3550 C 0.33667 0.20222 0.15538 0.0
C3551 C 0.32763 0.17502 0.12701 0.0
C3552 C 0.31145 0.15988 0.1155 0.0
C3553 C 0.35824 0.20421 0.14694 0.0
C3554 C 0.36459 0.19143 0.1283 0.0
C3555 C 0.34939 0.17686 0.11862 0.0
C3556 C 0.38767 0.1923 0.12014 0.0
C3557 C 0.37427 0.21975 0.15822 0.0
C3558 C 0.39504 0.2112 0.10849 0.0
C3559 C 0.41758 0.21677 0.10882 0.0
C3560 C 0.43267 0.20357 0.12109 0.0
C3561 C 0.42567 0.18297 0.12973 0.0
C3562 C 0.40323 0.17734 0.12923 0.0
H3563 H 0.36725 0.22697 0.17368 0.0
H3564 H 0.38997 0.2108 0.16246 0.0
H3565 H 0.37851 0.23361 0.14668 0.0
H3566 H 0.38313 0.22289 0.10139 0.0
H3567 H 0.42258 0.23268 0.1019 0.0
H3568 H 0.46396 0.50085 0.0629 0.0
H3569 H 0.46891 0.46066 0.0671 0.0
H3570 H 0.40402 0.45607 0.09755 0.0
H3571 H 0.39864 0.49629 0.09242 0.0
H3572 H 0.47227 0.44027 0.10486 0.0
H3573 H 0.40243 0.4019 0.05953 0.0
H3574 H 0.40955 0.43086 0.05606 0.0
H3575 H 0.39296 0.42195 0.07941 0.0
C3576 C 0.45051 0.49117 0.06996 0.0
C3577 C 0.43091 0.50168 0.07731 0.0
C3578 C 0.45336 0.46819 0.0724 0.0
C3579 C 0.43682 0.45517 0.08255 0.0
C3580 C 0.41683 0.46555 0.08917 0.0
H3581 H 0.46865 0.33623 0.1581 0.0
H3582 H 0.45729 0.37305 0.14488 0.0
C3583 C 0.41379 0.48858 0.08632 0.0
C3584 C 0.44173 0.43146 0.08842 0.0
H3585 H 0.42195 0.3783 0.08559 0.0
C3586 C 0.46131 0.42675 0.10041 0.0
C3587 C 0.42763 0.41367 0.08251 0.0
C3588 C 0.4071 0.4173 0.06847 0.0
C3589 C 0.46702 0.40498 0.10693 0.0
C3590 C 0.45236 0.38734 0.10206 0.0
C3591 C 0.43302 0.39187 0.08962 0.0
C3592 C 0.45691 0.36424 0.11005 0.0
C3593 C 0.48892 0.4011 0.11873 0.0
C3594 C 0.45932 0.34662 0.09499 0.0
C3595 C 0.46553 0.3253 0.10256 0.0
C3596 C 0.46956 0.32129 0.12533 0.0
C3597 C 0.4661 0.33877 0.14041 0.0
C3598 C 0.45967 0.35991 0.13287 0.0
H3599 H 0.50093 0.41463 0.11507 0.0
H3600 H 0.48604 0.4008 0.13697 0.0
H3601 H 0.49661 0.38499 0.11388 0.0
H3602 H 0.45706 0.34951 0.07731 0.0
H3603 H 0.46778 0.31221 0.09051 0.0
H3604 H 0.30679 0.73371 0.64544 0.0
H3605 H 0.31406 0.69376 0.65075 0.0
H3606 H 0.32022 0.7036 0.72147 0.0
H3607 H 0.31326 0.74336 0.71631 0.0
H3608 H 0.35707 0.6832 0.70241 0.0
H3609 H 0.27897 0.64109 0.67755 0.0
H3610 H 0.2896 0.66118 0.65798 0.0
H3611 H 0.27982 0.67023 0.68467 0.0
C3612 C 0.30908 0.72725 0.66217 0.0
C3613 C 0.3096 0.74172 0.68044 0.0
C3614 C 0.31323 0.7044 0.66518 0.0
C3615 C 0.31766 0.6957 0.68652 0.0
C3616 C 0.31689 0.70996 0.70486 0.0
H3617 H 0.33883 0.56279 0.73826 0.0
H3618 H 0.32405 0.59929 0.72736 0.0
C3619 C 0.31289 0.73269 0.70187 0.0
C3620 C 0.32547 0.67239 0.68972 0.0
H3621 H 0.31021 0.61791 0.68536 0.0
C3622 C 0.34683 0.66892 0.69864 0.0
C3623 C 0.31205 0.65381 0.68488 0.0
C3624 C 0.28875 0.65663 0.6759 0.0
C3625 C 0.3551 0.64744 0.70302 0.0
C3626 C 0.34181 0.62882 0.69797 0.0
C3627 C 0.32043 0.63222 0.68901 0.0
C3628 C 0.34961 0.6058 0.70286 0.0
C3629 C 0.37779 0.64488 0.71359 0.0
C3630 C 0.36859 0.59712 0.69233 0.0
C3631 C 0.37715 0.57626 0.69857 0.0
C3632 C 0.36679 0.56361 0.7154 0.0
C3633 C 0.34726 0.57203 0.72528 0.0
C3634 C 0.33874 0.5929 0.71904 0.0
H3635 H 0.38363 0.66071 0.72094 0.0
H3636 H 0.3776 0.63187 0.72684 0.0
H3637 H 0.39 0.63973 0.70074 0.0
H3638 H 0.37705 0.60669 0.67956 0.0
H3639 H 0.3921 0.57024 0.69045 0.0
H3640 H 0.99227 0.41273 0.60388 0.0
H3641 H 0.95384 0.40213 0.59591 0.0
H3642 H 0.97105 0.3921 0.52702 0.0
H3643 H 0.00949 0.40217 0.53488 0.0
H3644 H 0.92392 0.42099 0.56879 0.0
H3645 H 0.93911 0.33482 0.54087 0.0
H3646 H 0.96004 0.35079 0.55504 0.0
H3647 H 0.95574 0.35429 0.52554 0.0
C3648 C 0.98788 0.40829 0.58702 0.0
C3649 C 0.00401 0.4082 0.57004 0.0
C3650 C 0.96593 0.40211 0.58253 0.0
C3651 C 0.95969 0.3957 0.561 0.0
C3652 C 0.97562 0.39621 0.54392 0.0
H3653 H 0.8423 0.40867 0.48926 0.0
H3654 H 0.8794 0.40598 0.50537 0.0
C3655 C 0.99756 0.40225 0.5484 0.0
C3656 C 0.93626 0.38987 0.55598 0.0
H3657 H 0.90413 0.35169 0.52924 0.0
C3658 C 0.91956 0.40562 0.56058 0.0
C3659 C 0.93043 0.36965 0.54556 0.0
C3660 C 0.94726 0.35133 0.5417 0.0
C3661 C 0.89754 0.40238 0.5537 0.0
C3662 C 0.89214 0.38303 0.54168 0.0
C3663 C 0.90842 0.36659 0.5383 0.0
C3664 C 0.87049 0.38135 0.53016 0.0
C3665 C 0.88034 0.42014 0.55847 0.0
C3666 C 0.85346 0.36748 0.53813 0.0
C3667 C 0.83204 0.36888 0.5288 0.0
C3668 C 0.82758 0.3843 0.51159 0.0
C3669 C 0.84516 0.39689 0.50274 0.0
C3670 C 0.86638 0.39538 0.51189 0.0
H3671 H 0.88561 0.43111 0.57227 0.0
H3672 H 0.87792 0.43064 0.54336 0.0
H3673 H 0.86408 0.41258 0.56281 0.0
H3674 H 0.85645 0.35644 0.55218 0.0
H3675 H 0.81878 0.35899 0.5359 0.0
H3676 H 0.67517 0.76253 0.72125 0.0
H3677 H 0.67182 0.80272 0.72229 0.0
H3678 H 0.70085 0.80757 0.65675 0.0
H3679 H 0.70327 0.76682 0.65509 0.0
H3680 H 0.69918 0.8361 0.72067 0.0
H3681 H 0.64372 0.8406 0.64661 0.0
H3682 H 0.65194 0.8145 0.65922 0.0
H3683 H 0.671 0.82937 0.64155 0.0
C3684 C 0.68103 0.77203 0.70704 0.0
C3685 C 0.68917 0.76139 0.68791 0.0
C3686 C 0.67913 0.79512 0.7077 0.0
C3687 C 0.6856 0.80821 0.68941 0.0
C3688 C 0.69512 0.79779 0.6708 0.0
H3689 H 0.67014 0.95123 0.71799 0.0
H3690 H 0.68782 0.9165 0.7063 0.0
C3691 C 0.69668 0.77452 0.66995 0.0
C3692 C 0.68121 0.83256 0.68995 0.0
H3693 H 0.64994 0.8738 0.66566 0.0
C3694 C 0.68859 0.84444 0.70853 0.0
C3695 C 0.66726 0.84336 0.67414 0.0
C3696 C 0.65784 0.83132 0.65435 0.0
C3697 C 0.68134 0.86629 0.71253 0.0
C3698 C 0.66714 0.87701 0.69688 0.0
C3699 C 0.66083 0.86558 0.67762 0.0
C3700 C 0.65681 0.8991 0.70124 0.0
C3701 C 0.68779 0.87696 0.73425 0.0
C3702 C 0.63351 0.90141 0.70088 0.0
C3703 C 0.6234 0.92151 0.70681 0.0
C3704 C 0.63638 0.93954 0.71361 0.0
C3705 C 0.6597 0.93751 0.71318 0.0
C3706 C 0.66983 0.91759 0.70666 0.0
H3707 H 0.69372 0.86446 0.74668 0.0
H3708 H 0.70155 0.88883 0.73123 0.0
H3709 H 0.67354 0.88621 0.74158 0.0
H3710 H 0.62308 0.88743 0.69668 0.0
H3711 H 0.60539 0.9226 0.707 0.0
H3712 H 0.00258 0.06824 0.52507 0.0
H3713 H 0.04232 0.07189 0.51675 0.0
H3714 H 0.05514 0.08654 0.58574 0.0
H3715 H 0.01587 0.08159 0.59428 0.0
H3716 H 0.06582 0.10646 0.51823 0.0
H3717 H 0.10614 0.04664 0.57563 0.0
H3718 H 0.0765 0.04668 0.57091 0.0
H3719 H 0.08859 0.0651 0.59108 0.0
C3720 C 0.01402 0.07165 0.53852 0.0
C3721 C 0.00613 0.07446 0.56033 0.0
C3722 C 0.03673 0.07381 0.53377 0.0
C3723 C 0.05195 0.07918 0.55065 0.0
C3724 C 0.04404 0.08162 0.57251 0.0
H3725 H 0.17031 0.15656 0.52746 0.0
H3726 H 0.13313 0.14252 0.53536 0.0
C3727 C 0.02147 0.07894 0.57736 0.0
C3728 C 0.07553 0.08445 0.54511 0.0
H3729 H 0.1292 0.07704 0.56272 0.0
C3730 C 0.07967 0.09971 0.52777 0.0
C3731 C 0.09381 0.07544 0.5572 0.0
C3732 C 0.09102 0.05737 0.57455 0.0
C3733 C 0.10131 0.10678 0.52272 0.0
C3734 C 0.11936 0.09922 0.53604 0.0
C3735 C 0.11537 0.08329 0.5528 0.0
C3736 C 0.14239 0.10771 0.53286 0.0
C3737 C 0.10452 0.12204 0.50289 0.0
C3738 C 0.1604 0.09289 0.53032 0.0
C3739 C 0.18189 0.10091 0.52651 0.0
C3740 C 0.18577 0.12393 0.5248 0.0
C3741 C 0.16786 0.13872 0.52821 0.0
C3742 C 0.1465 0.1307 0.53252 0.0
H3743 H 0.09114 0.1198 0.49036 0.0
H3744 H 0.10377 0.13959 0.50845 0.0
H3745 H 0.12082 0.11904 0.49468 0.0
H3746 H 0.15777 0.07507 0.53083 0.0
H3747 H 0.19528 0.08902 0.52431 0.0
H3748 H 0.31911 0.25943 0.85464 0.0
H3749 H 0.33002 0.29856 0.85046 0.0
H3750 H 0.34263 0.2881 0.78065 0.0
H3751 H 0.33123 0.24953 0.78448 0.0
H3752 H 0.37118 0.31382 0.83745 0.0
H3753 H 0.30678 0.34485 0.77886 0.0
H3754 H 0.30406 0.31882 0.79379 0.0
H3755 H 0.32043 0.32032 0.76871 0.0
C3756 C 0.32359 0.26567 0.83829 0.0
C3757 C 0.32424 0.25138 0.81988 0.0
C3758 C 0.33003 0.28795 0.83597 0.0
C3759 C 0.33699 0.29629 0.8152 0.0
C3760 C 0.33693 0.2822 0.79673 0.0
H3761 H 0.38901 0.41877 0.7611 0.0
H3762 H 0.38603 0.37902 0.77018 0.0
C3763 C 0.33047 0.26008 0.799 0.0
C3764 C 0.34558 0.31926 0.81282 0.0
H3765 H 0.33951 0.36694 0.78207 0.0
C3766 C 0.36415 0.32553 0.82549 0.0
C3767 C 0.33641 0.3345 0.79717 0.0
C3768 C 0.31568 0.32937 0.78404 0.0
C3769 C 0.37406 0.34648 0.82255 0.0
C3770 C 0.3652 0.36139 0.80651 0.0
C3771 C 0.34655 0.35522 0.79402 0.0
C3772 C 0.37357 0.38431 0.80352 0.0
C3773 C 0.39405 0.35251 0.83633 0.0
C3774 C 0.36868 0.40028 0.81969 0.0
C3775 C 0.37022 0.42289 0.81449 0.0
C3776 C 0.37675 0.42984 0.79307 0.0
C3777 C 0.38414 0.41386 0.77778 0.0
C3778 C 0.38229 0.39117 0.7829 0.0
H3779 H 0.40146 0.33774 0.84488 0.0
H3780 H 0.40695 0.36047 0.82575 0.0
H3781 H 0.38895 0.3647 0.84917 0.0
H3782 H 0.36171 0.39533 0.83559 0.0
H3783 H 0.36439 0.43493 0.82653 0.0
H3784 H 0.49887 0.42031 0.46798 0.0
H3785 H 0.5389 0.41518 0.47206 0.0
H3786 H 0.547 0.42024 0.40091 0.0
H3787 H 0.50662 0.42509 0.39658 0.0
H3788 H 0.56801 0.3834 0.4187 0.0
H3789 H 0.59068 0.45776 0.467 0.0
H3790 H 0.56802 0.44295 0.47952 0.0
H3791 H 0.56449 0.45559 0.45246 0.0
C3792 C 0.50913 0.42068 0.45315 0.0
C3793 C 0.49946 0.42306 0.43192 0.0
C3794 C 0.5321 0.4179 0.45556 0.0
C3795 C 0.54604 0.41759 0.43683 0.0
C3796 C 0.53657 0.42056 0.41561 0.0
H3797 H 0.69065 0.40619 0.45646 0.0
H3798 H 0.65393 0.41907 0.44405 0.0
C3799 C 0.5135 0.42342 0.41317 0.0
C3800 C 0.57013 0.41231 0.43952 0.0
H3801 H 0.61648 0.42688 0.46876 0.0
C3802 C 0.57871 0.3931 0.42938 0.0
C3803 C 0.58421 0.42508 0.45323 0.0
C3804 C 0.57645 0.44662 0.46348 0.0
C3805 C 0.60062 0.38574 0.43343 0.0
C3806 C 0.6142 0.3977 0.44833 0.0
C3807 C 0.60599 0.41752 0.45759 0.0
C3808 C 0.63664 0.38953 0.45516 0.0
C3809 C 0.60896 0.36516 0.42177 0.0
C3810 C 0.63916 0.36872 0.46573 0.0
C3811 C 0.66013 0.36129 0.47284 0.0
C3812 C 0.67907 0.37461 0.46974 0.0
C3813 C 0.67648 0.39549 0.45917 0.0
C3814 C 0.65548 0.40289 0.45204 0.0
H3815 H 0.59953 0.36214 0.40619 0.0
H3816 H 0.62692 0.36649 0.41764 0.0
H3817 H 0.60669 0.3505 0.43286 0.0
H3818 H 0.62481 0.35833 0.46881 0.0
H3819 H 0.66142 0.3452 0.48103 0.0
H3820 H 0.65367 0.24432 0.77777 0.0
H3821 H 0.64076 0.20606 0.78077 0.0
H3822 H 0.66062 0.20359 0.84967 0.0
H3823 H 0.6735 0.24218 0.847 0.0
H3824 H 0.6739 0.16588 0.82052 0.0
H3825 H 0.58369 0.18643 0.81702 0.0
H3826 H 0.6006 0.19996 0.79632 0.0
H3827 H 0.60451 0.20634 0.82519 0.0
C3828 C 0.65548 0.23568 0.79357 0.0
C3829 C 0.66448 0.24642 0.81222 0.0
C3830 C 0.64789 0.21388 0.79527 0.0
C3831 C 0.64922 0.20233 0.81557 0.0
C3832 C 0.65916 0.21247 0.83396 0.0
H3833 H 0.63097 0.05975 0.8294 0.0
H3834 H 0.63046 0.09845 0.84176 0.0
C3835 C 0.66665 0.23443 0.83234 0.0
C3836 C 0.64085 0.17935 0.8171 0.0
H3837 H 0.59382 0.14842 0.81099 0.0
C3838 C 0.65637 0.16197 0.81889 0.0
C3839 C 0.61797 0.17451 0.81479 0.0
C3840 C 0.60065 0.19277 0.8134 0.0
C3841 C 0.6498 0.13973 0.81717 0.0
C3842 C 0.62691 0.1348 0.81433 0.0
C3843 C 0.61127 0.15224 0.81336 0.0
C3844 C 0.61955 0.11179 0.81 0.0
C3845 C 0.66764 0.12185 0.81702 0.0
C3846 C 0.61111 0.10641 0.78893 0.0
C3847 C 0.61071 0.08423 0.78208 0.0
C3848 C 0.61906 0.06742 0.79618 0.0
C3849 C 0.62459 0.07255 0.81824 0.0
C3850 C 0.62452 0.09464 0.82522 0.0
H3851 H 0.68452 0.12887 0.81453 0.0
H3852 H 0.66758 0.11284 0.83321 0.0
H3853 H 0.66451 0.10962 0.80364 0.0
H3854 H 0.60695 0.11943 0.77702 0.0
H3855 H 0.60644 0.08062 0.76498 0.0
H3856 H 0.50826 0.08436 0.462 0.0
H3857 H 0.4695 0.09541 0.46711 0.0
H3858 H 0.4647 0.11276 0.39745 0.0
H3859 H 0.50368 0.10118 0.3921 0.0
H3860 H 0.45291 0.13795 0.45992 0.0
H3861 H 0.40847 0.07607 0.4079 0.0
H3862 H 0.43713 0.0722 0.41618 0.0
H3863 H 0.4301 0.09188 0.39461 0.0
C3864 C 0.49886 0.09017 0.44766 0.0
C3865 C 0.50897 0.09189 0.42664 0.0
C3866 C 0.47674 0.09658 0.45063 0.0
C3867 C 0.46421 0.10498 0.4327 0.0
C3868 C 0.47398 0.10608 0.41147 0.0
H3869 H 0.32285 0.14199 0.45675 0.0
H3870 H 0.35983 0.14584 0.43932 0.0
C3871 C 0.4962 0.09941 0.40841 0.0
C3872 C 0.44129 0.11324 0.43695 0.0
H3873 H 0.38658 0.10042 0.42918 0.0
C3874 C 0.43839 0.13004 0.45285 0.0
C3875 C 0.42236 0.10304 0.4276 0.0
C3876 C 0.42451 0.0847 0.41072 0.0
C3877 C 0.41717 0.13584 0.46073 0.0
C3878 C 0.39843 0.12465 0.45242 0.0
C3879 C 0.40109 0.10905 0.43536 0.0
C3880 C 0.37681 0.12563 0.4641 0.0
C3881 C 0.41493 0.15298 0.47878 0.0
C3882 C 0.37442 0.11348 0.48394 0.0
C3883 C 0.35352 0.11103 0.49363 0.0
C3884 C 0.33466 0.12092 0.4838 0.0
C3885 C 0.33723 0.13437 0.46472 0.0
C3886 C 0.35822 0.13647 0.45472 0.0
H3887 H 0.43 0.1635 0.47999 0.0
H3888 H 0.40018 0.16385 0.47571 0.0
H3889 H 0.41248 0.14438 0.49501 0.0
H3890 H 0.38859 0.10494 0.49134 0.0
H3891 H 0.35195 0.1006 0.50835 0.0
H3892 H 0.71678 0.31724 0.73402 0.0
H3893 H 0.72067 0.32269 0.69391 0.0
H3894 H 0.64976 0.31613 0.68578 0.0
H3895 H 0.64558 0.31063 0.72602 0.0
H3896 H 0.68077 0.29505 0.65062 0.0
H3897 H 0.69417 0.38448 0.66931 0.0
H3898 H 0.7109 0.36498 0.68501 0.0
H3899 H 0.68127 0.36555 0.68885 0.0
C3900 C 0.70202 0.31649 0.72371 0.0
C3901 C 0.68082 0.31384 0.73327 0.0
C3902 C 0.70431 0.31959 0.70079 0.0
C3903 C 0.68547 0.3201 0.68705 0.0
C3904 C 0.66446 0.31582 0.69622 0.0
H3905 H 0.6856 0.38965 0.55948 0.0
H3906 H 0.67407 0.37422 0.59542 0.0
C3907 C 0.66213 0.31267 0.7192 0.0
C3908 C 0.68758 0.32754 0.66367 0.0
H3909 H 0.70036 0.3732 0.63223 0.0
C3910 C 0.68491 0.31214 0.6465 0.0
C3911 C 0.6926 0.34993 0.65845 0.0
C3912 C 0.69475 0.3673 0.67631 0.0
C3913 C 0.68789 0.31847 0.62412 0.0
C3914 C 0.69389 0.34068 0.61899 0.0
C3915 C 0.69583 0.35617 0.63619 0.0
C3916 C 0.69917 0.34819 0.59606 0.0
C3917 C 0.68454 0.3014 0.60621 0.0
C3918 C 0.71704 0.3386 0.58447 0.0
C3919 C 0.72368 0.34738 0.56394 0.0
C3920 C 0.71269 0.36605 0.55469 0.0
C3921 C 0.69447 0.37531 0.56613 0.0
C3922 C 0.68781 0.36648 0.58665 0.0
H3923 H 0.67376 0.28759 0.61206 0.0
H3924 H 0.67698 0.30905 0.59108 0.0
H3925 H 0.70092 0.29415 0.60155 0.0
H3926 H 0.7264 0.32485 0.59167 0.0
H3927 H 0.73787 0.33993 0.55569 0.0
H3928 H 0.72602 0.66327 0.75707 0.0
H3929 H 0.73063 0.6587 0.79715 0.0
H3930 H 0.67749 0.70598 0.80842 0.0
H3931 H 0.67221 0.71009 0.7682 0.0
H3932 H 0.74012 0.6855 0.83121 0.0
H3933 H 0.65473 0.65198 0.84123 0.0
H3934 H 0.66713 0.65676 0.81432 0.0
H3935 H 0.65571 0.67965 0.82981 0.0
C3936 C 0.71545 0.67291 0.76802 0.0
C3937 C 0.6985 0.68678 0.75943 0.0
C3938 C 0.71811 0.67027 0.79097 0.0
C3939 C 0.70403 0.68156 0.80577 0.0
C3940 C 0.6881 0.69659 0.79728 0.0
H3941 H 0.7328 0.66914 0.94884 0.0
H3942 H 0.72541 0.68528 0.91209 0.0
C3943 C 0.68521 0.69904 0.7743 0.0
C3944 C 0.70551 0.67664 0.82995 0.0
H3945 H 0.67634 0.65493 0.87371 0.0
C3946 C 0.72616 0.67896 0.84058 0.0
C3947 C 0.68731 0.66781 0.84203 0.0
C3948 C 0.66502 0.66368 0.83127 0.0
C3949 C 0.72928 0.67221 0.86278 0.0
C3950 C 0.71103 0.66354 0.8749 0.0
C3951 C 0.69025 0.66173 0.86444 0.0
C3952 C 0.71354 0.65459 0.89785 0.0
C3953 C 0.75236 0.67345 0.87263 0.0
C3954 C 0.70816 0.63232 0.90243 0.0
C3955 C 0.71192 0.62317 0.92355 0.0
C3956 C 0.72132 0.6361 0.94045 0.0
C3957 C 0.72585 0.65865 0.93609 0.0
C3958 C 0.72177 0.66788 0.91504 0.0
H3959 H 0.76534 0.67504 0.85955 0.0
H3960 H 0.7534 0.68828 0.88344 0.0
H3961 H 0.75619 0.65845 0.8829 0.0
H3962 H 0.70166 0.62178 0.88945 0.0
H3963 H 0.70825 0.60574 0.92636 0.0
H3964 H 0.92123 0.10488 0.49084 0.0
H3965 H 0.90681 0.09934 0.45314 0.0
H3966 H 0.89896 0.0293 0.46724 0.0
H3967 H 0.91275 0.03476 0.50495 0.0
H3968 H 0.921 0.07433 0.41932 0.0
H3969 H 0.83778 0.04516 0.44455 0.0
H3970 H 0.85665 0.0581 0.46382 0.0
H3971 H 0.85913 0.02883 0.45782 0.0
C3972 C 0.91662 0.08827 0.48581 0.0
C3973 C 0.91795 0.07027 0.50089 0.0
C3974 C 0.90822 0.08517 0.46435 0.0
C3975 C 0.90108 0.06406 0.45767 0.0
C3976 C 0.90353 0.0459 0.47234 0.0
H3977 H 0.89434 0.98944 0.3455 0.0
H3978 H 0.89249 0.00625 0.38229 0.0
C3979 C 0.9117 0.049 0.49378 0.0
C3980 C 0.89194 0.06057 0.43509 0.0
H3981 H 0.85012 0.03415 0.40758 0.0
C3982 C 0.90521 0.06612 0.4167 0.0
C3983 C 0.87116 0.05012 0.43166 0.0
C3984 C 0.85527 0.04545 0.45053 0.0
C3985 C 0.89912 0.05984 0.39515 0.0
C3986 C 0.87936 0.04766 0.39204 0.0
C3987 C 0.8653 0.04344 0.41013 0.0
C3988 C 0.87541 0.03606 0.37094 0.0
C3989 C 0.91454 0.06487 0.37597 0.0
C3990 C 0.86537 0.0469 0.35271 0.0
C3991 C 0.86616 0.03715 0.33162 0.0
C3992 C 0.87734 0.01674 0.32871 0.0
C3993 C 0.88577 0.00526 0.34736 0.0
C3994 C 0.8847 0.0148 0.36834 0.0
H3995 H 0.92832 0.07606 0.38083 0.0
H3996 H 0.92184 0.04909 0.36967 0.0
H3997 H 0.90509 0.07278 0.3621 0.0
H3998 H 0.85818 0.06337 0.35454 0.0
H3999 H 0.85963 0.04632 0.31741 0.0
H4000 H 0.27786 0.82816 0.75078 0.0
H4001 H 0.27894 0.84177 0.78887 0.0
H4002 H 0.34978 0.83013 0.79126 0.0
H4003 H 0.34899 0.81662 0.75278 0.0
H4004 H 0.32107 0.81568 0.83082 0.0
H4005 H 0.30953 0.90378 0.80399 0.0
H4006 H 0.29105 0.88397 0.79163 0.0
H4007 H 0.32031 0.88254 0.78569 0.0
C4008 C 0.29368 0.82818 0.75943 0.0
C4009 C 0.31339 0.82146 0.74863 0.0
C4010 C 0.29426 0.83612 0.78115 0.0
C4011 C 0.3145 0.83743 0.7926 0.0
C4012 C 0.33403 0.82947 0.78251 0.0
H4013 H 0.32996 0.86875 0.93285 0.0
H4014 H 0.34029 0.86518 0.89366 0.0
C4015 C 0.33351 0.82158 0.76062 0.0
C4016 C 0.31497 0.84736 0.81504 0.0
H4017 H 0.30527 0.89598 0.84264 0.0
C4018 C 0.31799 0.83328 0.83348 0.0
C4019 C 0.31076 0.8703 0.8183 0.0
C4020 C 0.30788 0.88614 0.79889 0.0
C4021 C 0.31591 0.84135 0.85524 0.0
C4022 C 0.31137 0.8643 0.85859 0.0
C4023 C 0.30892 0.87848 0.84007 0.0
C4024 C 0.30739 0.87325 0.88121 0.0
C4025 C 0.31743 0.82493 0.87438 0.0
C4026 C 0.28618 0.88137 0.887 0.0
C4027 C 0.28045 0.88412 0.90941 0.0
C4028 C 0.29581 0.87846 0.92618 0.0
C4029 C 0.31782 0.87314 0.92019 0.0
C4030 C 0.32364 0.8708 0.89783 0.0
H4031 H 0.3158 0.80745 0.86874 0.0
H4032 H 0.33387 0.82652 0.8826 0.0
H4033 H 0.30428 0.82827 0.88693 0.0
H4034 H 0.27346 0.88364 0.87439 0.0
H4035 H 0.26333 0.88808 0.91359 0.0
H4036 H 0.58752 0.96768 0.01288 0.0
H4037 H 0.59586 0.97536 0.97387 0.0
H4038 H 0.59881 0.90496 0.96079 0.0
H4039 H 0.59062 0.897 8e-05 0.0
H4040 H 0.63555 0.93014 0.94298 0.0
H4041 H 0.55393 0.96769 0.9204 0.0
H4042 H 0.56622 0.97955 0.94477 0.0
H4043 H 0.5579 0.95085 0.94514 0.0
C4044 C 0.58973 0.95376 0.00174 0.0
C4045 C 0.58832 0.9317 0.00967 0.0
C4046 C 0.59446 0.95821 0.97939 0.0
C4047 C 0.59779 0.94075 0.96438 0.0
C4048 C 0.59624 0.91869 0.9721 0.0
H4049 H 0.6264 0.94459 0.82177 0.0
H4050 H 0.62547 0.93229 0.86085 0.0
C4051 C 0.59142 0.91418 0.99453 0.0
C4052 C 0.60324 0.94578 0.94077 0.0
H4053 H 0.58361 0.9734 0.89486 0.0
C4054 C 0.62415 0.93942 0.93234 0.0
C4055 C 0.58833 0.95785 0.92693 0.0
C4056 C 0.56525 0.96422 0.93466 0.0
C4057 C 0.63084 0.94555 0.91068 0.0
C4058 C 0.61611 0.95813 0.89709 0.0
C4059 C 0.59503 0.964 0.90539 0.0
C4060 C 0.62187 0.96551 0.87414 0.0
C4061 C 0.6538 0.93912 0.90275 0.0
C4062 C 0.6209 0.98827 0.86864 0.0
C4063 C 0.62143 0.99524 0.84641 0.0
C4064 C 0.62311 0.97959 0.82929 0.0
C4065 C 0.62576 0.95696 0.83477 0.0
C4066 C 0.62512 0.94994 0.85708 0.0
H4067 H 0.66486 0.93414 0.91677 0.0
H4068 H 0.65249 0.9248 0.8913 0.0
H4069 H 0.66161 0.95309 0.89346 0.0
H4070 H 0.61831 0.00056 0.8815 0.0
H4071 H 0.61884 0.01272 0.84251 0.0
H4072 H 0.7847 0.67406 0.24801 0.0
H4073 H 0.78366 0.66117 0.20969 0.0
H4074 H 0.85543 0.65972 0.2078 0.0
H4075 H 0.85663 0.67223 0.24656 0.0
H4076 H 0.80017 0.67789 0.17088 0.0
H4077 H 0.83942 0.59597 0.19083 0.0
H4078 H 0.82953 0.61466 0.21208 0.0
H4079 H 0.8555 0.61989 0.19824 0.0
C4080 C 0.8003 0.67133 0.23937 0.0
C4081 C 0.82075 0.67403 0.25036 0.0
C4082 C 0.79967 0.66387 0.21748 0.0
C4083 C 0.81945 0.65892 0.2061 0.0
C4084 C 0.83996 0.66291 0.2165 0.0
H4085 H 0.83174 0.63125 0.06726 0.0
H4086 H 0.84119 0.63374 0.10671 0.0
C4087 C 0.84062 0.67041 0.23851 0.0
C4088 C 0.81821 0.64937 0.18347 0.0
H4089 H 0.83018 0.60289 0.15301 0.0
C4090 C 0.80676 0.66151 0.167 0.0
C4091 C 0.82669 0.62788 0.1785 0.0
C4092 C 0.83832 0.6137 0.19585 0.0
C4093 C 0.80356 0.65283 0.1457 0.0
C4094 C 0.81197 0.63139 0.14074 0.0
C4095 C 0.82365 0.61925 0.15703 0.0
C4096 C 0.8092 0.62218 0.11822 0.0
C4097 C 0.79118 0.66661 0.12851 0.0
C4098 C 0.78867 0.61326 0.11179 0.0
C4099 C 0.7833 0.61156 0.08919 0.0
C4100 C 0.79834 0.61912 0.07297 0.0
C4101 C 0.81988 0.62532 0.0795 0.0
C4102 C 0.82529 0.62681 0.10201 0.0
H4103 H 0.78677 0.68346 0.13467 0.0
H4104 H 0.80146 0.66844 0.11325 0.0
H4105 H 0.77562 0.658 0.12377 0.0
H4106 H 0.77604 0.60968 0.12417 0.0
H4107 H 0.76654 0.60691 0.0846 0.0
H4108 H 0.93552 0.90265 0.01386 0.0
H4109 H 0.9303 0.90916 0.05376 0.0
H4110 H 0.91117 0.97718 0.03979 0.0
H4111 H 0.91652 0.97098 9e-05 0.0
H4112 H 0.93955 0.9716 0.07756 0.0
H4113 H 0.86629 0.91536 0.0792 0.0
H4114 H 0.89197 0.90368 0.06906 0.0
H4115 H 0.87831 0.92549 0.05355 0.0
C4116 C 0.93054 0.91909 0.01931 0.0
C4117 C 0.92615 0.93622 0.00377 0.0
C4118 C 0.92745 0.92273 0.04209 0.0
C4119 C 0.91999 0.94354 0.04963 0.0
C4120 C 0.91683 0.96097 0.03427 0.0
H4121 H 0.84557 0.98873 0.16145 0.0
H4122 H 0.86023 0.97684 0.1255 0.0
C4123 C 0.91983 0.95736 0.01157 0.0
C4124 C 0.91406 0.94705 0.07325 0.0
H4125 H 0.87497 0.93383 0.11235 0.0
C4126 C 0.92562 0.96317 0.08531 0.0
C4127 C 0.89567 0.9362 0.08312 0.0
C4128 C 0.88217 0.91932 0.0706 0.0
C4129 C 0.91901 0.96905 0.10691 0.0
C4130 C 0.9005 0.95834 0.11669 0.0
C4131 C 0.88922 0.94191 0.10479 0.0
C4132 C 0.89169 0.96494 0.13869 0.0
C4133 C 0.9313 0.98729 0.11873 0.0
C4134 C 0.90442 0.96188 0.15804 0.0
C4135 C 0.8961 0.96866 0.17864 0.0
C4136 C 0.87486 0.97859 0.18026 0.0
C4137 C 0.86201 0.98122 0.16084 0.0
C4138 C 0.87034 0.97442 0.14027 0.0
H4139 H 0.94232 0.99677 0.10728 0.0
H4140 H 0.91941 0.99908 0.12659 0.0
H4141 H 0.94178 0.97983 0.1321 0.0
H4142 H 0.92079 0.95423 0.15721 0.0
H4143 H 0.90636 0.96617 0.19325 0.0
H4144 H 0.07545 0.60286 0.00727 0.0
H4145 H 0.07801 0.59671 0.04758 0.0
H4146 H 0.09077 0.5269 0.03688 0.0
H4147 H 0.08781 0.53274 0.99678 0.0
H4148 H 0.06262 0.53393 0.07241 0.0
H4149 H 0.13761 0.58718 0.07863 0.0
H4150 H 0.11332 0.6007 0.06729 0.0
H4151 H 0.12648 0.57846 0.05227 0.0
C4152 C 0.07856 0.58615 0.01349 0.0
C4153 C 0.08168 0.56836 0.99867 0.0
C4154 C 0.08016 0.58269 0.03656 0.0
C4155 C 0.08504 0.56141 0.04529 0.0
C4156 C 0.08711 0.54349 0.03059 0.0
H4157 H 0.15171 0.51659 0.1622 0.0
H4158 H 0.13861 0.5288 0.12578 0.0
C4159 C 0.08546 0.5469 0.00759 0.0
C4160 C 0.08907 0.55775 0.06954 0.0
H4161 H 0.12499 0.57029 0.11165 0.0
C4162 C 0.07611 0.54204 0.08108 0.0
C4163 C 0.10683 0.56816 0.08079 0.0
C4164 C 0.12202 0.58443 0.06914 0.0
C4165 C 0.08073 0.53612 0.10334 0.0
C4166 C 0.09861 0.54641 0.11451 0.0
C4167 C 0.11119 0.56252 0.10314 0.0
C4168 C 0.10603 0.5392 0.13715 0.0
C4169 C 0.0671 0.51816 0.11438 0.0
C4170 C 0.09213 0.54109 0.15589 0.0
C4171 C 0.0996 0.53399 0.17697 0.0
C4172 C 0.12115 0.52497 0.1797 0.0
C4173 C 0.13501 0.52338 0.16087 0.0
C4174 C 0.12756 0.53042 0.13993 0.0
H4175 H 0.0569 0.50889 0.1022 0.0
H4176 H 0.07802 0.50613 0.12342 0.0
H4177 H 0.05567 0.52585 0.12667 0.0
H4178 H 0.07558 0.54817 0.15426 0.0
H4179 H 0.08851 0.53558 0.19109 0.0
loop_
_geom_bond_atom_site_label_1
_geom_bond_atom_site_label_2
_geom_bond_distance
_geom_bond_site_symmetry_2
_ccdc_geom_bond_type
Fe0 O2 1.918 . S
Fe0 O5 1.997 . S
Fe0 O6 2.002 . S
Fe0 O11 1.976 . S
Fe0 O14 1.996 . S
Fe1 O2 1.918 . S
Fe1 O9 1.997 . S
Fe1 O12 1.996 . S
Fe1 O16 1.976 . S
Fe1 O19 2.002 . S
O2 Fe0 1.918 . S
O2 Fe1 1.918 . S
O2 Fe3 1.918 . S
Fe3 O2 1.918 . S
Fe3 O4 2.002 . S
Fe3 O13 1.976 . S
Fe3 O17 1.996 . S
Fe3 O20 1.997 . S
O4 Fe3 2.002 . S
O4 C21 1.295 . S
O5 Fe0 1.997 . S
O5 C21 1.235 . S
O6 Fe0 2.002 . S
O6 C7 1.295 . S
C7 O6 1.295 . S
C7 O9 1.235 . S
C8 O13 1.287 . S
C8 O14 1.255 . S
O9 Fe1 1.997 . S
O9 C7 1.235 . S
C10 O16 1.287 . S
C10 O17 1.255 . S
O11 Fe0 1.976 . S
O11 C18 1.287 . S
O12 Fe1 1.996 . S
O12 C18 1.255 . S
O13 Fe3 1.976 . S
O13 C8 1.287 . S
O14 Fe0 1.996 . S
O14 C8 1.255 . S
C15 O19 1.295 . S
C15 O20 1.235 . S
O16 Fe1 1.976 . S
O16 C10 1.287 . S
O17 Fe3 1.996 . S
O17 C10 1.255 . S
C18 O11 1.287 . S
C18 O12 1.255 . S
O19 Fe1 2.002 . S
O19 C15 1.295 . S
O20 Fe3 1.997 . S
O20 C15 1.235 . S
C21 O4 1.295 . S
C21 O5 1.235 . S
Fe22 O24 1.918 . S
Fe22 O27 1.997 . S
Fe22 O28 2.002 . S
Fe22 O33 1.976 . S
Fe22 O36 1.996 . S
Fe23 O24 1.918 . S
Fe23 O31 1.997 . S
Fe23 O34 1.996 . S
Fe23 O38 1.976 . S
Fe23 O41 2.002 . S
O24 Fe22 1.918 . S
O24 Fe23 1.918 . S
O24 Fe25 1.918 . S
Fe25 O24 1.918 . S
Fe25 O26 2.002 . S
Fe25 O35 1.976 . S
Fe25 O39 1.996 . S
Fe25 O42 1.997 . S
O26 Fe25 2.002 . S
O26 C43 1.295 . S
O27 Fe22 1.997 . S
O27 C43 1.235 . S
O28 Fe22 2.002 . S
O28 C29 1.295 . S
C29 O28 1.295 . S
C29 O31 1.235 . S
C30 O35 1.287 . S
C30 O36 1.255 . S
O31 Fe23 1.997 . S
O31 C29 1.235 . S
C32 O38 1.287 . S
C32 O39 1.255 . S
O33 Fe22 1.976 . S
O33 C40 1.287 . S
O34 Fe23 1.996 . S
O34 C40 1.255 . S
O35 Fe25 1.976 . S
O35 C30 1.287 . S
O36 Fe22 1.996 . S
O36 C30 1.255 . S
C37 O41 1.295 . S
C37 O42 1.235 . S
O38 Fe23 1.976 . S
O38 C32 1.287 . S
O39 Fe25 1.996 . S
O39 C32 1.255 . S
C40 O33 1.287 . S
C40 O34 1.255 . S
O41 Fe23 2.002 . S
O41 C37 1.295 . S
O42 Fe25 1.997 . S
O42 C37 1.235 . S
C43 O26 1.295 . S
C43 O27 1.235 . S
Fe44 O46 1.918 . S
Fe44 O49 1.997 . S
Fe44 O50 2.002 . S
Fe44 O55 1.976 . S
Fe44 O58 1.996 . S
Fe45 O46 1.918 . S
Fe45 O53 1.997 . S
Fe45 O56 1.996 . S
Fe45 O60 1.976 . S
Fe45 O63 2.002 . S
O46 Fe44 1.918 . S
O46 Fe45 1.918 . S
O46 Fe47 1.918 . S
Fe47 O46 1.918 . S
Fe47 O48 2.002 . S
Fe47 O57 1.976 . S
Fe47 O61 1.996 . S
Fe47 O64 1.997 . S
O48 Fe47 2.002 . S
O48 C65 1.295 . S
O49 Fe44 1.997 . S
O49 C65 1.235 . S
O50 Fe44 2.002 . S
O50 C51 1.295 . S
C51 O50 1.295 . S
C51 O53 1.235 . S
C52 O57 1.287 . S
C52 O58 1.255 . S
O53 Fe45 1.997 . S
O53 C51 1.235 . S
C54 O60 1.287 . S
C54 O61 1.255 . S
O55 Fe44 1.976 . S
O55 C62 1.287 . S
O56 Fe45 1.996 . S
O56 C62 1.255 . S
O57 Fe47 1.976 . S
O57 C52 1.287 . S
O58 Fe44 1.996 . S
O58 C52 1.255 . S
C59 O63 1.295 . S
C59 O64 1.235 . S
O60 Fe45 1.976 . S
O60 C54 1.287 . S
O61 Fe47 1.996 . S
O61 C54 1.255 . S
C62 O55 1.287 . S
C62 O56 1.255 . S
O63 Fe45 2.002 . S
O63 C59 1.295 . S
O64 Fe47 1.997 . S
O64 C59 1.235 . S
C65 O48 1.295 . S
C65 O49 1.235 . S
Fe66 O68 1.918 . S
Fe66 O71 1.997 . S
Fe66 O72 2.002 . S
Fe66 O77 1.976 . S
Fe66 O80 1.996 . S
Fe67 O68 1.918 . S
Fe67 O75 1.997 . S
Fe67 O78 1.996 . S
Fe67 O82 1.976 . S
Fe67 O85 2.002 . S
O68 Fe66 1.918 . S
O68 Fe67 1.918 . S
O68 Fe69 1.918 . S
Fe69 O68 1.918 . S
Fe69 O70 2.002 . S
Fe69 O79 1.976 . S
Fe69 O83 1.996 . S
Fe69 O86 1.997 . S
O70 Fe69 2.002 . S
O70 C87 1.295 . S
O71 Fe66 1.997 . S
O71 C87 1.235 . S
O72 Fe66 2.002 . S
O72 C73 1.295 . S
C73 O72 1.295 . S
C73 O75 1.235 . S
C74 O79 1.287 . S
C74 O80 1.255 . S
O75 Fe67 1.997 . S
O75 C73 1.235 . S
C76 O82 1.287 . S
C76 O83 1.255 . S
O77 Fe66 1.976 . S
O77 C84 1.287 . S
O78 Fe67 1.996 . S
O78 C84 1.255 . S
O79 Fe69 1.976 . S
O79 C74 1.287 . S
O80 Fe66 1.996 . S
O80 C74 1.255 . S
C81 O85 1.295 . S
C81 O86 1.235 . S
O82 Fe67 1.976 . S
O82 C76 1.287 . S
O83 Fe69 1.996 . S
O83 C76 1.255 . S
C84 O77 1.287 . S
C84 O78 1.255 . S
O85 Fe67 2.002 . S
O85 C81 1.295 . S
O86 Fe69 1.997 . S
O86 C81 1.235 . S
C87 O70 1.295 . S
C87 O71 1.235 . S
Fe88 O90 1.918 . S
Fe88 O93 1.997 . S
Fe88 O94 2.002 . S
Fe88 O99 1.976 . S
Fe88 O102 1.996 . S
Fe89 O90 1.918 . S
Fe89 O97 1.997 . S
Fe89 O100 1.996 . S
Fe89 O104 1.976 . S
Fe89 O107 2.002 . S
O90 Fe88 1.918 . S
O90 Fe89 1.918 . S
O90 Fe91 1.918 . S
Fe91 O90 1.918 . S
Fe91 O92 2.002 . S
Fe91 O101 1.976 . S
Fe91 O105 1.996 . S
Fe91 O108 1.997 . S
O92 Fe91 2.002 . S
O92 C109 1.295 . S
O93 Fe88 1.997 . S
O93 C109 1.235 . S
O94 Fe88 2.002 . S
O94 C95 1.295 . S
C95 O94 1.295 . S
C95 O97 1.235 . S
C96 O101 1.287 . S
C96 O102 1.255 . S
O97 Fe89 1.997 . S
O97 C95 1.235 . S
C98 O104 1.287 . S
C98 O105 1.255 . S
O99 Fe88 1.976 . S
O99 C106 1.287 . S
O100 Fe89 1.996 . S
O100 C106 1.255 . S
O101 Fe91 1.976 . S
O101 C96 1.287 . S
O102 Fe88 1.996 . S
O102 C96 1.255 . S
C103 O107 1.295 . S
C103 O108 1.235 . S
O104 Fe89 1.976 . S
O104 C98 1.287 . S
O105 Fe91 1.996 . S
O105 C98 1.255 . S
C106 O99 1.287 . S
C106 O100 1.255 . S
O107 Fe89 2.002 . S
O107 C103 1.295 . S
O108 Fe91 1.997 . S
O108 C103 1.235 . S
C109 O92 1.295 . S
C109 O93 1.235 . S
Fe110 O112 1.918 . S
Fe110 O115 1.997 . S
Fe110 O116 2.002 . S
Fe110 O121 1.976 . S
Fe110 O124 1.996 . S
Fe111 O112 1.918 . S
Fe111 O119 1.997 . S
Fe111 O122 1.996 . S
Fe111 O126 1.976 . S
Fe111 O129 2.002 . S
O112 Fe110 1.918 . S
O112 Fe111 1.918 . S
O112 Fe113 1.918 . S
Fe113 O112 1.918 . S
Fe113 O114 2.002 . S
Fe113 O123 1.976 . S
Fe113 O127 1.996 . S
Fe113 O130 1.997 . S
O114 Fe113 2.002 . S
O114 C131 1.295 . S
O115 Fe110 1.997 . S
O115 C131 1.235 . S
O116 Fe110 2.002 . S
O116 C117 1.295 . S
C117 O116 1.295 . S
C117 O119 1.235 . S
C118 O123 1.287 . S
C118 O124 1.255 . S
O119 Fe111 1.997 . S
O119 C117 1.235 . S
C120 O126 1.287 . S
C120 O127 1.255 . S
O121 Fe110 1.976 . S
O121 C128 1.287 . S
O122 Fe111 1.996 . S
O122 C128 1.255 . S
O123 Fe113 1.976 . S
O123 C118 1.287 . S
O124 Fe110 1.996 . S
O124 C118 1.255 . S
C125 O129 1.295 . S
C125 O130 1.235 . S
O126 Fe111 1.976 . S
O126 C120 1.287 . S
O127 Fe113 1.996 . S
O127 C120 1.255 . S
C128 O121 1.287 . S
C128 O122 1.255 . S
O129 Fe111 2.002 . S
O129 C125 1.295 . S
O130 Fe113 1.997 . S
O130 C125 1.235 . S
C131 O114 1.295 . S
C131 O115 1.235 . S
Fe132 O134 1.918 . S
Fe132 O137 1.997 . S
Fe132 O138 2.002 . S
Fe132 O143 1.976 . S
Fe132 O146 1.996 . S
Fe133 O134 1.918 . S
Fe133 O141 1.997 . S
Fe133 O144 1.996 . S
Fe133 O148 1.976 . S
Fe133 O151 2.002 . S
O134 Fe132 1.918 . S
O134 Fe133 1.918 . S
O134 Fe135 1.918 . S
Fe135 O134 1.918 . S
Fe135 O136 2.002 . S
Fe135 O145 1.976 . S
Fe135 O149 1.996 . S
Fe135 O152 1.997 . S
O136 Fe135 2.002 . S
O136 C153 1.295 . S
O137 Fe132 1.997 . S
O137 C153 1.235 . S
O138 Fe132 2.002 . S
O138 C139 1.295 . S
C139 O138 1.295 . S
C139 O141 1.235 . S
C140 O145 1.287 . S
C140 O146 1.255 . S
O141 Fe133 1.997 . S
O141 C139 1.235 . S
C142 O148 1.287 . S
C142 O149 1.255 . S
O143 Fe132 1.976 . S
O143 C150 1.287 . S
O144 Fe133 1.996 . S
O144 C150 1.255 . S
O145 Fe135 1.976 . S
O145 C140 1.287 . S
O146 Fe132 1.996 . S
O146 C140 1.255 . S
C147 O151 1.295 . S
C147 O152 1.235 . S
O148 Fe133 1.976 . S
O148 C142 1.287 . S
O149 Fe135 1.996 . S
O149 C142 1.255 . S
C150 O143 1.287 . S
C150 O144 1.255 . S
O151 Fe133 2.002 . S
O151 C147 1.295 . S
O152 Fe135 1.997 . S
O152 C147 1.235 . S
C153 O136 1.295 . S
C153 O137 1.235 . S
Fe154 O156 1.918 . S
Fe154 O159 1.997 . S
Fe154 O160 2.002 . S
Fe154 O165 1.976 . S
Fe154 O168 1.996 . S
Fe155 O156 1.918 . S
Fe155 O163 1.997 . S
Fe155 O166 1.996 . S
Fe155 O170 1.976 . S
Fe155 O173 2.002 . S
O156 Fe154 1.918 . S
O156 Fe155 1.918 . S
O156 Fe157 1.918 . S
Fe157 O156 1.918 . S
Fe157 O158 2.002 . S
Fe157 O167 1.976 . S
Fe157 O171 1.996 . S
Fe157 O174 1.997 . S
O158 Fe157 2.002 . S
O158 C175 1.295 . S
O159 Fe154 1.997 . S
O159 C175 1.235 . S
O160 Fe154 2.002 . S
O160 C161 1.295 . S
C161 O160 1.295 . S
C161 O163 1.235 . S
C162 O167 1.287 . S
C162 O168 1.255 . S
O163 Fe155 1.997 . S
O163 C161 1.235 . S
C164 O170 1.287 . S
C164 O171 1.255 . S
O165 Fe154 1.976 . S
O165 C172 1.287 . S
O166 Fe155 1.996 . S
O166 C172 1.255 . S
O167 Fe157 1.976 . S
O167 C162 1.287 . S
O168 Fe154 1.996 . S
O168 C162 1.255 . S
C169 O173 1.295 . S
C169 O174 1.235 . S
O170 Fe155 1.976 . S
O170 C164 1.287 . S
O171 Fe157 1.996 . S
O171 C164 1.255 . S
C172 O165 1.287 . S
C172 O166 1.255 . S
O173 Fe155 2.002 . S
O173 C169 1.295 . S
O174 Fe157 1.997 . S
O174 C169 1.235 . S
C175 O158 1.295 . S
C175 O159 1.235 . S
Fe176 O178 1.918 . S
Fe176 O181 1.997 . S
Fe176 O182 2.002 . S
Fe176 O187 1.976 . S
Fe176 O190 1.996 . S
Fe177 O178 1.918 . S
Fe177 O185 1.997 . S
Fe177 O188 1.996 . S
Fe177 O192 1.976 . S
Fe177 O195 2.002 . S
O178 Fe176 1.918 . S
O178 Fe177 1.918 . S
O178 Fe179 1.918 . S
Fe179 O178 1.918 . S
Fe179 O180 2.002 . S
Fe179 O189 1.976 . S
Fe179 O193 1.996 . S
Fe179 O196 1.997 . S
O180 Fe179 2.002 . S
O180 C197 1.295 . S
O181 Fe176 1.997 . S
O181 C197 1.235 . S
O182 Fe176 2.002 . S
O182 C183 1.295 . S
C183 O182 1.295 . S
C183 O185 1.235 . S
C184 O189 1.287 . S
C184 O190 1.255 . S
O185 Fe177 1.997 . S
O185 C183 1.235 . S
C186 O192 1.287 . S
C186 O193 1.255 . S
O187 Fe176 1.976 . S
O187 C194 1.287 . S
O188 Fe177 1.996 . S
O188 C194 1.255 . S
O189 Fe179 1.976 . S
O189 C184 1.287 . S
O190 Fe176 1.996 . S
O190 C184 1.255 . S
C191 O195 1.295 . S
C191 O196 1.235 . S
O192 Fe177 1.976 . S
O192 C186 1.287 . S
O193 Fe179 1.996 . S
O193 C186 1.255 . S
C194 O187 1.287 . S
C194 O188 1.255 . S
O195 Fe177 2.002 . S
O195 C191 1.295 . S
O196 Fe179 1.997 . S
O196 C191 1.235 . S
C197 O180 1.295 . S
C197 O181 1.235 . S
Fe198 O200 1.918 . S
Fe198 O203 1.997 . S
Fe198 O204 2.002 . S
Fe198 O209 1.976 . S
Fe198 O212 1.996 . S
Fe199 O200 1.918 . S
Fe199 O207 1.997 . S
Fe199 O210 1.996 . S
Fe199 O214 1.976 . S
Fe199 O217 2.002 . S
O200 Fe198 1.918 . S
O200 Fe199 1.918 . S
O200 Fe201 1.918 . S
Fe201 O200 1.918 . S
Fe201 O202 2.002 . S
Fe201 O211 1.976 . S
Fe201 O215 1.996 . S
Fe201 O218 1.997 . S
O202 Fe201 2.002 . S
O202 C219 1.295 . S
O203 Fe198 1.997 . S
O203 C219 1.235 . S
O204 Fe198 2.002 . S
O204 C205 1.295 . S
C205 O204 1.295 . S
C205 O207 1.235 . S
C206 O211 1.287 . S
C206 O212 1.255 . S
O207 Fe199 1.997 . S
O207 C205 1.235 . S
C208 O214 1.287 . S
C208 O215 1.255 . S
O209 Fe198 1.976 . S
O209 C216 1.287 . S
O210 Fe199 1.996 . S
O210 C216 1.255 . S
O211 Fe201 1.976 . S
O211 C206 1.287 . S
O212 Fe198 1.996 . S
O212 C206 1.255 . S
C213 O217 1.295 . S
C213 O218 1.235 . S
O214 Fe199 1.976 . S
O214 C208 1.287 . S
O215 Fe201 1.996 . S
O215 C208 1.255 . S
C216 O209 1.287 . S
C216 O210 1.255 . S
O217 Fe199 2.002 . S
O217 C213 1.295 . S
O218 Fe201 1.997 . S
O218 C213 1.235 . S
C219 O202 1.295 . S
C219 O203 1.235 . S
Fe220 O222 1.918 . S
Fe220 O225 1.997 . S
Fe220 O226 2.002 . S
Fe220 O231 1.976 . S
Fe220 O234 1.996 . S
Fe221 O222 1.918 . S
Fe221 O229 1.997 . S
Fe221 O232 1.996 . S
Fe221 O236 1.976 . S
Fe221 O239 2.002 . S
O222 Fe220 1.918 . S
O222 Fe221 1.918 . S
O222 Fe223 1.918 . S
Fe223 O222 1.918 . S
Fe223 O224 2.002 . S
Fe223 O233 1.976 . S
Fe223 O237 1.996 . S
Fe223 O240 1.997 . S
O224 Fe223 2.002 . S
O224 C241 1.295 . S
O225 Fe220 1.997 . S
O225 C241 1.235 . S
O226 Fe220 2.002 . S
O226 C227 1.295 . S
C227 O226 1.295 . S
C227 O229 1.235 . S
C228 O233 1.287 . S
C228 O234 1.255 . S
O229 Fe221 1.997 . S
O229 C227 1.235 . S
C230 O236 1.287 . S
C230 O237 1.255 . S
O231 Fe220 1.976 . S
O231 C238 1.287 . S
O232 Fe221 1.996 . S
O232 C238 1.255 . S
O233 Fe223 1.976 . S
O233 C228 1.287 . S
O234 Fe220 1.996 . S
O234 C228 1.255 . S
C235 O239 1.295 . S
C235 O240 1.235 . S
O236 Fe221 1.976 . S
O236 C230 1.287 . S
O237 Fe223 1.996 . S
O237 C230 1.255 . S
C238 O231 1.287 . S
C238 O232 1.255 . S
O239 Fe221 2.002 . S
O239 C235 1.295 . S
O240 Fe223 1.997 . S
O240 C235 1.235 . S
C241 O224 1.295 . S
C241 O225 1.235 . S
Fe242 O244 1.918 . S
Fe242 O247 1.997 . S
Fe242 O248 2.002 . S
Fe242 O253 1.976 . S
Fe242 O256 1.996 . S
Fe243 O244 1.918 . S
Fe243 O251 1.997 . S
Fe243 O254 1.996 . S
Fe243 O258 1.976 . S
Fe243 O261 2.002 . S
O244 Fe242 1.918 . S
O244 Fe243 1.918 . S
O244 Fe245 1.918 . S
Fe245 O244 1.918 . S
Fe245 O246 2.002 . S
Fe245 O255 1.976 . S
Fe245 O259 1.996 . S
Fe245 O262 1.997 . S
O246 Fe245 2.002 . S
O246 C263 1.295 . S
O247 Fe242 1.997 . S
O247 C263 1.235 . S
O248 Fe242 2.002 . S
O248 C249 1.295 . S
C249 O248 1.295 . S
C249 O251 1.235 . S
C250 O255 1.287 . S
C250 O256 1.255 . S
O251 Fe243 1.997 . S
O251 C249 1.235 . S
C252 O258 1.287 . S
C252 O259 1.255 . S
O253 Fe242 1.976 . S
O253 C260 1.287 . S
O254 Fe243 1.996 . S
O254 C260 1.255 . S
O255 Fe245 1.976 . S
O255 C250 1.287 . S
O256 Fe242 1.996 . S
O256 C250 1.255 . S
C257 O261 1.295 . S
C257 O262 1.235 . S
O258 Fe243 1.976 . S
O258 C252 1.287 . S
O259 Fe245 1.996 . S
O259 C252 1.255 . S
C260 O253 1.287 . S
C260 O254 1.255 . S
O261 Fe243 2.002 . S
O261 C257 1.295 . S
O262 Fe245 1.997 . S
O262 C257 1.235 . S
C263 O246 1.295 . S
C263 O247 1.235 . S
Fe264 O266 1.918 . S
Fe264 O269 1.997 . S
Fe264 O270 2.002 . S
Fe264 O275 1.976 . S
Fe264 O278 1.996 . S
Fe265 O266 1.918 . S
Fe265 O273 1.997 . S
Fe265 O276 1.996 . S
Fe265 O280 1.976 . S
Fe265 O283 2.002 . S
O266 Fe264 1.918 . S
O266 Fe265 1.918 . S
O266 Fe267 1.918 . S
Fe267 O266 1.918 . S
Fe267 O268 2.002 . S
Fe267 O277 1.976 . S
Fe267 O281 1.996 . S
Fe267 O284 1.997 . S
O268 Fe267 2.002 . S
O268 C285 1.295 . S
O269 Fe264 1.997 . S
O269 C285 1.235 . S
O270 Fe264 2.002 . S
O270 C271 1.295 . S
C271 O270 1.295 . S
C271 O273 1.235 . S
C272 O277 1.287 . S
C272 O278 1.255 . S
O273 Fe265 1.997 . S
O273 C271 1.235 . S
C274 O280 1.287 . S
C274 O281 1.255 . S
O275 Fe264 1.976 . S
O275 C282 1.287 . S
O276 Fe265 1.996 . S
O276 C282 1.255 . S
O277 Fe267 1.976 . S
O277 C272 1.287 . S
O278 Fe264 1.996 . S
O278 C272 1.255 . S
C279 O283 1.295 . S
C279 O284 1.235 . S
O280 Fe265 1.976 . S
O280 C274 1.287 . S
O281 Fe267 1.996 . S
O281 C274 1.255 . S
C282 O275 1.287 . S
C282 O276 1.255 . S
O283 Fe265 2.002 . S
O283 C279 1.295 . S
O284 Fe267 1.997 . S
O284 C279 1.235 . S
C285 O268 1.295 . S
C285 O269 1.235 . S
Fe286 O288 1.918 . S
Fe286 O291 1.997 . S
Fe286 O292 2.002 . S
Fe286 O297 1.976 . S
Fe286 O300 1.996 . S
Fe287 O288 1.918 . S
Fe287 O295 1.997 . S
Fe287 O298 1.996 . S
Fe287 O302 1.976 . S
Fe287 O305 2.002 . S
O288 Fe286 1.918 . S
O288 Fe287 1.918 . S
O288 Fe289 1.918 . S
Fe289 O288 1.918 . S
Fe289 O290 2.002 . S
Fe289 O299 1.976 . S
Fe289 O303 1.996 . S
Fe289 O306 1.997 . S
O290 Fe289 2.002 . S
O290 C307 1.295 . S
O291 Fe286 1.997 . S
O291 C307 1.235 . S
O292 Fe286 2.002 . S
O292 C293 1.295 . S
C293 O292 1.295 . S
C293 O295 1.235 . S
C294 O299 1.287 . S
C294 O300 1.255 . S
O295 Fe287 1.997 . S
O295 C293 1.235 . S
C296 O302 1.287 . S
C296 O303 1.255 . S
O297 Fe286 1.976 . S
O297 C304 1.287 . S
O298 Fe287 1.996 . S
O298 C304 1.255 . S
O299 Fe289 1.976 . S
O299 C294 1.287 . S
O300 Fe286 1.996 . S
O300 C294 1.255 . S
C301 O305 1.295 . S
C301 O306 1.235 . S
O302 Fe287 1.976 . S
O302 C296 1.287 . S
O303 Fe289 1.996 . S
O303 C296 1.255 . S
C304 O297 1.287 . S
C304 O298 1.255 . S
O305 Fe287 2.002 . S
O305 C301 1.295 . S
O306 Fe289 1.997 . S
O306 C301 1.235 . S
C307 O290 1.295 . S
C307 O291 1.235 . S
Fe308 O310 1.918 . S
Fe308 O313 1.997 . S
Fe308 O314 2.002 . S
Fe308 O319 1.976 . S
Fe308 O322 1.996 . S
Fe309 O310 1.918 . S
Fe309 O317 1.997 . S
Fe309 O320 1.996 . S
Fe309 O324 1.976 . S
Fe309 O327 2.002 . S
O310 Fe308 1.918 . S
O310 Fe309 1.918 . S
O310 Fe311 1.918 . S
Fe311 O310 1.918 . S
Fe311 O312 2.002 . S
Fe311 O321 1.976 . S
Fe311 O325 1.996 . S
Fe311 O328 1.997 . S
O312 Fe311 2.002 . S
O312 C329 1.295 . S
O313 Fe308 1.997 . S
O313 C329 1.235 . S
O314 Fe308 2.002 . S
O314 C315 1.295 . S
C315 O314 1.295 . S
C315 O317 1.235 . S
C316 O321 1.287 . S
C316 O322 1.255 . S
O317 Fe309 1.997 . S
O317 C315 1.235 . S
C318 O324 1.287 . S
C318 O325 1.255 . S
O319 Fe308 1.976 . S
O319 C326 1.287 . S
O320 Fe309 1.996 . S
O320 C326 1.255 . S
O321 Fe311 1.976 . S
O321 C316 1.287 . S
O322 Fe308 1.996 . S
O322 C316 1.255 . S
C323 O327 1.295 . S
C323 O328 1.235 . S
O324 Fe309 1.976 . S
O324 C318 1.287 . S
O325 Fe311 1.996 . S
O325 C318 1.255 . S
C326 O319 1.287 . S
C326 O320 1.255 . S
O327 Fe309 2.002 . S
O327 C323 1.295 . S
O328 Fe311 1.997 . S
O328 C323 1.235 . S
C329 O312 1.295 . S
C329 O313 1.235 . S
Fe330 O332 1.918 . S
Fe330 O335 1.997 . S
Fe330 O336 2.002 . S
Fe330 O341 1.976 . S
Fe330 O344 1.996 . S
Fe331 O332 1.918 . S
Fe331 O339 1.997 . S
Fe331 O342 1.996 . S
Fe331 O346 1.976 . S
Fe331 O349 2.002 . S
O332 Fe330 1.918 . S
O332 Fe331 1.918 . S
O332 Fe333 1.918 . S
Fe333 O332 1.918 . S
Fe333 O334 2.002 . S
Fe333 O343 1.976 . S
Fe333 O347 1.996 . S
Fe333 O350 1.997 . S
O334 Fe333 2.002 . S
O334 C351 1.295 . S
O335 Fe330 1.997 . S
O335 C351 1.235 . S
O336 Fe330 2.002 . S
O336 C337 1.295 . S
C337 O336 1.295 . S
C337 O339 1.235 . S
C338 O343 1.287 . S
C338 O344 1.255 . S
O339 Fe331 1.997 . S
O339 C337 1.235 . S
C340 O346 1.287 . S
C340 O347 1.255 . S
O341 Fe330 1.976 . S
O341 C348 1.287 . S
O342 Fe331 1.996 . S
O342 C348 1.255 . S
O343 Fe333 1.976 . S
O343 C338 1.287 . S
O344 Fe330 1.996 . S
O344 C338 1.255 . S
C345 O349 1.295 . S
C345 O350 1.235 . S
O346 Fe331 1.976 . S
O346 C340 1.287 . S
O347 Fe333 1.996 . S
O347 C340 1.255 . S
C348 O341 1.287 . S
C348 O342 1.255 . S
O349 Fe331 2.002 . S
O349 C345 1.295 . S
O350 Fe333 1.997 . S
O350 C345 1.235 . S
C351 O334 1.295 . S
C351 O335 1.235 . S
C352 O379 1.312 . S
C352 O380 1.208 . S
C353 O374 1.331 . S
C353 O377 1.244 . S
C354 O376 1.264 . S
C354 O378 1.273 . S
Mg355 O357 1.936 1_455 S
Mg355 O364 2.081 1_455 S
Mg355 O366 2.023 . S
Mg355 O370 2.028 1_455 S
Mg355 O379 2.291 . S
Mg356 O357 1.963 . S
Mg356 O367 1.942 . S
Mg356 O368 1.955 1_655 S
Mg356 O375 1.986 . S
O357 Mg355 1.936 1_655 S
O357 Mg356 1.963 . S
O357 Mg358 1.923 . S
Mg358 O357 1.923 . S
Mg358 O359 1.906 1_655 S
Mg358 O363 2.003 1_655 S
Mg358 O369 2.119 . S
Mg358 O373 2.047 . S
Mg358 O379 2.083 1_655 S
O359 Mg358 1.906 1_455 S
O359 Mg360 1.936 . S
O359 Mg361 1.963 1_455 S
Mg360 O359 1.936 . S
Mg360 O369 2.291 1_455 S
Mg360 O374 2.081 . S
Mg360 O376 2.023 1_455 S
Mg360 O380 2.031 . S
Mg361 O359 1.963 1_655 S
Mg361 O365 1.986 1_655 S
Mg361 O377 1.942 1_655 S
Mg361 O378 1.955 . S
C362 O373 1.191 . S
C362 O375 1.307 . S
O363 Mg358 2.003 1_455 S
O363 C382 1.191 . S
O364 Mg355 2.081 1_655 S
O364 C372 1.331 . S
O365 Mg361 1.986 1_455 S
O365 C382 1.307 . S
O366 Mg355 2.023 . S
O366 C381 1.264 . S
O367 Mg356 1.942 . S
O367 C372 1.244 . S
O368 Mg356 1.955 1_455 S
O368 C381 1.273 . S
O369 Mg358 2.119 . S
O369 Mg360 2.291 1_655 S
O369 C371 1.312 . S
O370 Mg355 2.028 1_655 S
O370 C371 1.211 . S
C371 O369 1.312 . S
C371 O370 1.211 . S
C372 O364 1.331 . S
C372 O367 1.244 . S
O373 Mg358 2.047 . S
O373 C362 1.191 . S
O374 C353 1.331 . S
O374 Mg360 2.081 . S
O375 Mg356 1.986 . S
O375 C362 1.307 . S
O376 C354 1.264 . S
O376 Mg360 2.023 1_655 S
O377 C353 1.244 . S
O377 Mg361 1.942 1_455 S
O378 C354 1.273 . S
O378 Mg361 1.955 . S
O379 C352 1.312 . S
O379 Mg355 2.291 . S
O379 Mg358 2.083 1_455 S
O380 C352 1.208 . S
O380 Mg360 2.031 . S
C381 O366 1.264 . S
C381 O368 1.273 . S
C382 O363 1.191 . S
C382 O365 1.307 . S
C383 O410 1.312 . S
C383 O411 1.208 . S
C384 O405 1.331 . S
C384 O408 1.244 . S
C385 O407 1.264 . S
C385 O409 1.273 . S
Mg386 O388 1.936 . S
Mg386 O395 2.081 . S
Mg386 O397 2.023 . S
Mg386 O401 2.031 . S
Mg386 O410 2.291 . S
Mg387 O388 1.963 . S
Mg387 O398 1.942 . S
Mg387 O399 1.955 . S
Mg387 O406 1.986 . S
O388 Mg386 1.936 . S
O388 Mg387 1.963 . S
O388 Mg389 1.915 . S
Mg389 O388 1.915 . S
Mg389 O390 1.915 . S
Mg389 O394 2.013 . S
Mg389 O400 2.114 . S
Mg389 O404 2.013 . S
Mg389 O410 2.114 . S
O390 Mg389 1.915 . S
O390 Mg391 1.936 . S
O390 Mg392 1.963 . S
Mg391 O390 1.936 . S
Mg391 O400 2.291 . S
Mg391 O405 2.081 . S
Mg391 O407 2.023 . S
Mg391 O411 2.031 . S
Mg392 O390 1.963 . S
Mg392 O396 1.986 . S
Mg392 O408 1.942 . S
Mg392 O409 1.955 . S
C393 O404 1.191 . S
C393 O406 1.307 . S
O394 Mg389 2.013 . S
O394 C413 1.191 . S
O395 Mg386 2.081 . S
O395 C403 1.331 . S
O396 Mg392 1.986 . S
O396 C413 1.307 . S
O397 Mg386 2.023 . S
O397 C412 1.264 . S
O398 Mg387 1.942 . S
O398 C403 1.244 . S
O399 Mg387 1.955 . S
O399 C412 1.273 . S
O400 Mg389 2.114 . S
O400 Mg391 2.291 . S
O400 C402 1.312 . S
O401 Mg386 2.031 . S
O401 C402 1.208 . S
C402 O400 1.312 . S
C402 O401 1.208 . S
C403 O395 1.331 . S
C403 O398 1.244 . S
O404 Mg389 2.013 . S
O404 C393 1.191 . S
O405 C384 1.331 . S
O405 Mg391 2.081 . S
O406 Mg387 1.986 . S
O406 C393 1.307 . S
O407 C385 1.264 . S
O407 Mg391 2.023 . S
O408 C384 1.244 . S
O408 Mg392 1.942 . S
O409 C385 1.273 . S
O409 Mg392 1.955 . S
O410 C383 1.312 . S
O410 Mg386 2.291 . S
O410 Mg389 2.114 . S
O411 C383 1.208 . S
O411 Mg391 2.031 . S
C412 O397 1.264 . S
C412 O399 1.273 . S
C413 O394 1.191 . S
C413 O396 1.307 . S
C414 O441 1.312 . S
C414 O442 1.217 . S
C415 O436 1.331 . S
C415 O439 1.244 . S
C416 O438 1.264 . S
C416 O440 1.273 . S
Mg417 O419 1.936 . S
Mg417 O426 2.081 . S
Mg417 O428 2.023 1_455 S
Mg417 O432 2.031 . S
Mg417 O441 2.291 1_455 S
Mg418 O419 1.963 1_655 S
Mg418 O429 1.942 1_655 S
Mg418 O430 1.955 . S
Mg418 O437 1.986 1_655 S
O419 Mg417 1.936 . S
O419 Mg418 1.963 1_455 S
O419 Mg420 1.904 1_455 S
Mg420 O419 1.904 1_655 S
Mg420 O421 1.926 . S
Mg420 O425 2.055 . S
Mg420 O431 2.075 1_655 S
Mg420 O435 2.001 1_655 S
Mg420 O441 2.120 . S
O421 Mg420 1.926 . S
O421 Mg422 1.936 1_655 S
O421 Mg423 1.963 . S
Mg422 O421 1.936 1_455 S
Mg422 O431 2.291 . S
Mg422 O436 2.081 1_455 S
Mg422 O438 2.023 . S
Mg422 O442 2.022 1_455 S
Mg423 O421 1.963 . S
Mg423 O427 1.986 . S
Mg423 O439 1.942 . S
Mg423 O440 1.955 1_655 S
C424 O435 1.191 . S
C424 O437 1.307 . S
O425 Mg420 2.055 . S
O425 C444 1.191 . S
O426 Mg417 2.081 . S
O426 C434 1.331 . S
O427 Mg423 1.986 . S
O427 C444 1.307 . S
O428 Mg417 2.023 1_655 S
O428 C443 1.264 . S
O429 Mg418 1.942 1_455 S
O429 C434 1.244 . S
O430 Mg418 1.955 . S
O430 C443 1.273 . S
O431 Mg420 2.075 1_455 S
O431 Mg422 2.291 . S
O431 C433 1.312 . S
O432 Mg417 2.031 . S
O432 C433 1.208 . S
C433 O431 1.312 . S
C433 O432 1.208 . S
C434 O426 1.331 . S
C434 O429 1.244 . S
O435 Mg420 2.001 1_455 S
O435 C424 1.191 . S
O436 C415 1.331 . S
O436 Mg422 2.081 1_655 S
O437 Mg418 1.986 1_455 S
O437 C424 1.307 . S
O438 C416 1.264 . S
O438 Mg422 2.023 . S
O439 C415 1.244 . S
O439 Mg423 1.942 . S
O440 C416 1.273 . S
O440 Mg423 1.955 1_455 S
O441 C414 1.312 . S
O441 Mg417 2.291 1_655 S
O441 Mg420 2.120 . S
O442 C414 1.217 . S
O442 Mg422 2.022 1_655 S
C443 O428 1.264 . S
C443 O430 1.273 . S
C444 O425 1.191 . S
C444 O427 1.307 . S
C445 O472 1.312 . S
C445 O473 1.214 . S
C446 O467 1.331 . S
C446 O470 1.244 . S
C447 O469 1.264 . S
C447 O471 1.273 . S
Mg448 O450 1.936 . S
Mg448 O457 2.081 . S
Mg448 O459 2.023 1_545 S
Mg448 O463 2.031 . S
Mg448 O472 2.291 1_545 S
Mg449 O450 1.963 1_565 S
Mg449 O460 1.942 1_565 S
Mg449 O461 1.955 . S
Mg449 O468 1.986 1_565 S
O450 Mg448 1.936 . S
O450 Mg449 1.963 1_545 S
O450 Mg451 1.904 1_545 S
Mg451 O450 1.904 1_565 S
Mg451 O452 1.926 . S
Mg451 O456 2.055 . S
Mg451 O462 2.075 1_565 S
Mg451 O466 2.001 1_565 S
Mg451 O472 2.120 . S
O452 Mg451 1.926 . S
O452 Mg453 1.936 1_565 S
O452 Mg454 1.963 . S
Mg453 O452 1.936 1_545 S
Mg453 O462 2.291 . S
Mg453 O467 2.081 1_545 S
Mg453 O469 2.023 . S
Mg453 O473 2.025 1_545 S
Mg454 O452 1.963 . S
Mg454 O458 1.986 . S
Mg454 O470 1.942 . S
Mg454 O471 1.955 1_565 S
C455 O466 1.191 . S
C455 O468 1.307 . S
O456 Mg451 2.055 . S
O456 C475 1.191 . S
O457 Mg448 2.081 . S
O457 C465 1.331 . S
O458 Mg454 1.986 . S
O458 C475 1.307 . S
O459 Mg448 2.023 1_565 S
O459 C474 1.264 . S
O460 Mg449 1.942 1_545 S
O460 C465 1.244 . S
O461 Mg449 1.955 . S
O461 C474 1.273 . S
O462 Mg451 2.075 1_545 S
O462 Mg453 2.291 . S
O462 C464 1.312 . S
O463 Mg448 2.031 . S
O463 C464 1.208 . S
C464 O462 1.312 . S
C464 O463 1.208 . S
C465 O457 1.331 . S
C465 O460 1.244 . S
O466 Mg451 2.001 1_545 S
O466 C455 1.191 . S
O467 C446 1.331 . S
O467 Mg453 2.081 1_565 S
O468 Mg449 1.986 1_545 S
O468 C455 1.307 . S
O469 C447 1.264 . S
O469 Mg453 2.023 . S
O470 C446 1.244 . S
O470 Mg454 1.942 . S
O471 C447 1.273 . S
O471 Mg454 1.955 1_545 S
O472 C445 1.312 . S
O472 Mg448 2.291 1_565 S
O472 Mg451 2.120 . S
O473 C445 1.214 . S
O473 Mg453 2.025 1_565 S
C474 O459 1.264 . S
C474 O461 1.273 . S
C475 O456 1.191 . S
C475 O458 1.307 . S
C476 O503 1.312 . S
C476 O504 1.208 . S
C477 O498 1.331 . S
C477 O501 1.244 . S
C478 O500 1.264 . S
C478 O502 1.273 . S
Mg479 O481 1.936 1_554 S
Mg479 O488 2.081 1_554 S
Mg479 O490 2.023 . S
Mg479 O494 2.023 1_554 S
Mg479 O503 2.291 . S
Mg480 O481 1.963 . S
Mg480 O491 1.942 . S
Mg480 O492 1.955 1_556 S
Mg480 O499 1.986 . S
O481 Mg479 1.936 1_556 S
O481 Mg480 1.963 . S
O481 Mg482 1.926 . S
Mg482 O481 1.926 . S
Mg482 O483 1.904 1_556 S
Mg482 O487 2.001 1_556 S
Mg482 O493 2.120 . S
Mg482 O497 2.055 . S
Mg482 O503 2.075 1_556 S
O483 Mg482 1.904 1_554 S
O483 Mg484 1.936 . S
O483 Mg485 1.963 1_554 S
Mg484 O483 1.936 . S
Mg484 O493 2.291 1_554 S
Mg484 O498 2.081 . S
Mg484 O500 2.023 1_554 S
Mg484 O504 2.031 . S
Mg485 O483 1.963 1_556 S
Mg485 O489 1.986 1_556 S
Mg485 O501 1.942 1_556 S
Mg485 O502 1.955 . S
C486 O497 1.191 . S
C486 O499 1.307 . S
O487 Mg482 2.001 1_554 S
O487 C506 1.191 . S
O488 Mg479 2.081 1_556 S
O488 C496 1.331 . S
O489 Mg485 1.986 1_554 S
O489 C506 1.307 . S
O490 Mg479 2.023 . S
O490 C505 1.264 . S
O491 Mg480 1.942 . S
O491 C496 1.244 . S
O492 Mg480 1.955 1_554 S
O492 C505 1.273 . S
O493 Mg482 2.120 . S
O493 Mg484 2.291 1_556 S
O493 C495 1.312 . S
O494 Mg479 2.023 1_556 S
O494 C495 1.216 . S
C495 O493 1.312 . S
C495 O494 1.216 . S
C496 O488 1.331 . S
C496 O491 1.244 . S
O497 Mg482 2.055 . S
O497 C486 1.191 . S
O498 C477 1.331 . S
O498 Mg484 2.081 . S
O499 Mg480 1.986 . S
O499 C486 1.307 . S
O500 C478 1.264 . S
O500 Mg484 2.023 1_556 S
O501 C477 1.244 . S
O501 Mg485 1.942 1_554 S
O502 C478 1.273 . S
O502 Mg485 1.955 . S
O503 C476 1.312 . S
O503 Mg479 2.291 . S
O503 Mg482 2.075 1_554 S
O504 C476 1.208 . S
O504 Mg484 2.031 . S
C505 O490 1.264 . S
C505 O492 1.273 . S
C506 O487 1.191 . S
C506 O489 1.307 . S
C507 O534 1.312 . S
C507 O535 1.208 . S
C508 O529 1.331 . S
C508 O532 1.244 . S
C509 O531 1.264 . S
C509 O533 1.273 . S
Mg510 O512 1.936 . S
Mg510 O519 2.081 . S
Mg510 O521 2.023 . S
Mg510 O525 2.031 . S
Mg510 O534 2.291 . S
Mg511 O512 1.963 . S
Mg511 O522 1.942 . S
Mg511 O523 1.955 . S
Mg511 O530 1.986 . S
O512 Mg510 1.936 . S
O512 Mg511 1.963 . S
O512 Mg513 1.915 . S
Mg513 O512 1.915 . S
Mg513 O514 1.915 . S
Mg513 O518 2.013 . S
Mg513 O524 2.114 . S
Mg513 O528 2.013 . S
Mg513 O534 2.114 . S
O514 Mg513 1.915 . S
O514 Mg515 1.936 . S
O514 Mg516 1.963 . S
Mg515 O514 1.936 . S
Mg515 O524 2.291 . S
Mg515 O529 2.081 . S
Mg515 O531 2.023 . S
Mg515 O535 2.031 . S
Mg516 O514 1.963 . S
Mg516 O520 1.986 . S
Mg516 O532 1.942 . S
Mg516 O533 1.955 . S
C517 O528 1.191 . S
C517 O530 1.307 . S
O518 Mg513 2.013 . S
O518 C537 1.191 . S
O519 Mg510 2.081 . S
O519 C527 1.331 . S
O520 Mg516 1.986 . S
O520 C537 1.307 . S
O521 Mg510 2.023 . S
O521 C536 1.264 . S
O522 Mg511 1.942 . S
O522 C527 1.244 . S
O523 Mg511 1.955 . S
O523 C536 1.273 . S
O524 Mg513 2.114 . S
O524 Mg515 2.291 . S
O524 C526 1.312 . S
O525 Mg510 2.031 . S
O525 C526 1.208 . S
C526 O524 1.312 . S
C526 O525 1.208 . S
C527 O519 1.331 . S
C527 O522 1.244 . S
O528 Mg513 2.013 . S
O528 C517 1.191 . S
O529 C508 1.331 . S
O529 Mg515 2.081 . S
O530 Mg511 1.986 . S
O530 C517 1.307 . S
O531 C509 1.264 . S
O531 Mg515 2.023 . S
O532 C508 1.244 . S
O532 Mg516 1.942 . S
O533 C509 1.273 . S
O533 Mg516 1.955 . S
O534 C507 1.312 . S
O534 Mg510 2.291 . S
O534 Mg513 2.114 . S
O535 C507 1.208 . S
O535 Mg515 2.031 . S
C536 O521 1.264 . S
C536 O523 1.273 . S
C537 O518 1.191 . S
C537 O520 1.307 . S
C538 O565 1.312 . S
C538 O566 1.208 . S
C539 O560 1.331 . S
C539 O563 1.244 . S
C540 O562 1.264 . S
C540 O564 1.273 . S
Mg541 O543 1.936 . S
Mg541 O550 2.081 . S
Mg541 O552 2.023 1_556 S
Mg541 O556 2.031 . S
Mg541 O565 2.291 1_556 S
Mg542 O543 1.963 1_554 S
Mg542 O553 1.942 1_554 S
Mg542 O554 1.955 . S
Mg542 O561 1.986 1_554 S
O543 Mg541 1.936 . S
O543 Mg542 1.963 1_556 S
O543 Mg544 1.915 1_556 S
Mg544 O543 1.915 1_554 S
Mg544 O545 1.915 . S
Mg544 O549 2.013 . S
Mg544 O555 2.114 1_554 S
Mg544 O559 2.013 1_554 S
Mg544 O565 2.114 . S
O545 Mg544 1.915 . S
O545 Mg546 1.936 1_554 S
O545 Mg547 1.963 . S
Mg546 O545 1.936 1_556 S
Mg546 O555 2.291 . S
Mg546 O560 2.081 1_556 S
Mg546 O562 2.023 . S
Mg546 O566 2.031 1_556 S
Mg547 O545 1.963 . S
Mg547 O551 1.986 . S
Mg547 O563 1.942 . S
Mg547 O564 1.955 1_554 S
C548 O559 1.191 . S
C548 O561 1.307 . S
O549 Mg544 2.013 . S
O549 C568 1.191 . S
O550 Mg541 2.081 . S
O550 C558 1.331 . S
O551 Mg547 1.986 . S
O551 C568 1.307 . S
O552 Mg541 2.023 1_554 S
O552 C567 1.264 . S
O553 Mg542 1.942 1_556 S
O553 C558 1.244 . S
O554 Mg542 1.955 . S
O554 C567 1.273 . S
O555 Mg544 2.114 1_556 S
O555 Mg546 2.291 . S
O555 C557 1.312 . S
O556 Mg541 2.031 . S
O556 C557 1.208 . S
C557 O555 1.312 . S
C557 O556 1.208 . S
C558 O550 1.331 . S
C558 O553 1.244 . S
O559 Mg544 2.013 1_556 S
O559 C548 1.191 . S
O560 C539 1.331 . S
O560 Mg546 2.081 1_554 S
O561 Mg542 1.986 1_556 S
O561 C548 1.307 . S
O562 C540 1.264 . S
O562 Mg546 2.023 . S
O563 C539 1.244 . S
O563 Mg547 1.942 . S
O564 C540 1.273 . S
O564 Mg547 1.955 1_556 S
O565 C538 1.312 . S
O565 Mg541 2.291 1_554 S
O565 Mg544 2.114 . S
O566 C538 1.208 . S
O566 Mg546 2.031 1_554 S
C567 O552 1.264 . S
C567 O554 1.273 . S
C568 O549 1.191 . S
C568 O551 1.307 . S
C569 O596 1.312 . S
C569 O597 1.208 . S
C570 O591 1.331 . S
C570 O594 1.244 . S
C571 O593 1.264 . S
C571 O595 1.273 . S
Mg572 O574 1.936 . S
Mg572 O581 2.081 . S
Mg572 O583 2.023 . S
Mg572 O587 2.031 . S
Mg572 O596 2.291 . S
Mg573 O574 1.963 . S
Mg573 O584 1.942 . S
Mg573 O585 1.955 . S
Mg573 O592 1.986 . S
O574 Mg572 1.936 . S
O574 Mg573 1.963 . S
O574 Mg575 1.915 . S
Mg575 O574 1.915 . S
Mg575 O576 1.915 . S
Mg575 O580 2.013 . S
Mg575 O586 2.114 . S
Mg575 O590 2.013 . S
Mg575 O596 2.114 . S
O576 Mg575 1.915 . S
O576 Mg577 1.936 . S
O576 Mg578 1.963 . S
Mg577 O576 1.936 . S
Mg577 O586 2.291 . S
Mg577 O591 2.081 . S
Mg577 O593 2.023 . S
Mg577 O597 2.031 . S
Mg578 O576 1.963 . S
Mg578 O582 1.986 . S
Mg578 O594 1.942 . S
Mg578 O595 1.955 . S
C579 O590 1.191 . S
C579 O592 1.307 . S
O580 Mg575 2.013 . S
O580 C599 1.191 . S
O581 Mg572 2.081 . S
O581 C589 1.331 . S
O582 Mg578 1.986 . S
O582 C599 1.307 . S
O583 Mg572 2.023 . S
O583 C598 1.264 . S
O584 Mg573 1.942 . S
O584 C589 1.244 . S
O585 Mg573 1.955 . S
O585 C598 1.273 . S
O586 Mg575 2.114 . S
O586 Mg577 2.291 . S
O586 C588 1.312 . S
O587 Mg572 2.031 . S
O587 C588 1.208 . S
C588 O586 1.312 . S
C588 O587 1.208 . S
C589 O581 1.331 . S
C589 O584 1.244 . S
O590 Mg575 2.013 . S
O590 C579 1.191 . S
O591 C570 1.331 . S
O591 Mg577 2.081 . S
O592 Mg573 1.986 . S
O592 C579 1.307 . S
O593 C571 1.264 . S
O593 Mg577 2.023 . S
O594 C570 1.244 . S
O594 Mg578 1.942 . S
O595 C571 1.273 . S
O595 Mg578 1.955 . S
O596 C569 1.312 . S
O596 Mg572 2.291 . S
O596 Mg575 2.114 . S
O597 C569 1.208 . S
O597 Mg577 2.031 . S
C598 O583 1.264 . S
C598 O585 1.273 . S
C599 O580 1.191 . S
C599 O582 1.307 . S
C600 O627 1.312 . S
C600 O628 1.208 . S
C601 O622 1.331 . S
C601 O625 1.244 . S
C602 O624 1.264 . S
C602 O626 1.273 . S
Mg603 O605 1.936 . S
Mg603 O612 2.081 . S
Mg603 O614 2.023 . S
Mg603 O618 2.031 . S
Mg603 O627 2.291 . S
Mg604 O605 1.963 . S
Mg604 O615 1.942 . S
Mg604 O616 1.955 . S
Mg604 O623 1.986 . S
O605 Mg603 1.936 . S
O605 Mg604 1.963 . S
O605 Mg606 1.915 . S
Mg606 O605 1.915 . S
Mg606 O607 1.915 . S
Mg606 O611 2.013 . S
Mg606 O617 2.114 . S
Mg606 O621 2.013 . S
Mg606 O627 2.114 . S
O607 Mg606 1.915 . S
O607 Mg608 1.936 . S
O607 Mg609 1.963 . S
Mg608 O607 1.936 . S
Mg608 O617 2.291 . S
Mg608 O622 2.081 . S
Mg608 O624 2.023 . S
Mg608 O628 2.031 . S
Mg609 O607 1.963 . S
Mg609 O613 1.986 . S
Mg609 O625 1.942 . S
Mg609 O626 1.955 . S
C610 O621 1.191 . S
C610 O623 1.307 . S
O611 Mg606 2.013 . S
O611 C630 1.191 . S
O612 Mg603 2.081 . S
O612 C620 1.331 . S
O613 Mg609 1.986 . S
O613 C630 1.307 . S
O614 Mg603 2.023 . S
O614 C629 1.264 . S
O615 Mg604 1.942 . S
O615 C620 1.244 . S
O616 Mg604 1.955 . S
O616 C629 1.273 . S
O617 Mg606 2.114 . S
O617 Mg608 2.291 . S
O617 C619 1.312 . S
O618 Mg603 2.031 . S
O618 C619 1.208 . S
C619 O617 1.312 . S
C619 O618 1.208 . S
C620 O612 1.331 . S
C620 O615 1.244 . S
O621 Mg606 2.013 . S
O621 C610 1.191 . S
O622 C601 1.331 . S
O622 Mg608 2.081 . S
O623 Mg604 1.986 . S
O623 C610 1.307 . S
O624 C602 1.264 . S
O624 Mg608 2.023 . S
O625 C601 1.244 . S
O625 Mg609 1.942 . S
O626 C602 1.273 . S
O626 Mg609 1.955 . S
O627 C600 1.312 . S
O627 Mg603 2.291 . S
O627 Mg606 2.114 . S
O628 C600 1.208 . S
O628 Mg608 2.031 . S
C629 O614 1.264 . S
C629 O616 1.273 . S
C630 O611 1.191 . S
C630 O613 1.307 . S
C631 O658 1.312 . S
C631 O659 1.208 . S
C632 O653 1.331 . S
C632 O656 1.244 . S
C633 O655 1.264 . S
C633 O657 1.273 . S
Mg634 O636 1.936 . S
Mg634 O643 2.081 . S
Mg634 O645 2.023 . S
Mg634 O649 2.031 . S
Mg634 O658 2.291 . S
Mg635 O636 1.963 . S
Mg635 O646 1.942 . S
Mg635 O647 1.955 . S
Mg635 O654 1.986 . S
O636 Mg634 1.936 . S
O636 Mg635 1.963 . S
O636 Mg637 1.915 . S
Mg637 O636 1.915 . S
Mg637 O638 1.915 . S
Mg637 O642 2.013 . S
Mg637 O648 2.114 . S
Mg637 O652 2.013 . S
Mg637 O658 2.114 . S
O638 Mg637 1.915 . S
O638 Mg639 1.936 . S
O638 Mg640 1.963 . S
Mg639 O638 1.936 . S
Mg639 O648 2.291 . S
Mg639 O653 2.081 . S
Mg639 O655 2.023 . S
Mg639 O659 2.031 . S
Mg640 O638 1.963 . S
Mg640 O644 1.986 . S
Mg640 O656 1.942 . S
Mg640 O657 1.955 . S
C641 O652 1.191 . S
C641 O654 1.307 . S
O642 Mg637 2.013 . S
O642 C661 1.191 . S
O643 Mg634 2.081 . S
O643 C651 1.331 . S
O644 Mg640 1.986 . S
O644 C661 1.307 . S
O645 Mg634 2.023 . S
O645 C660 1.264 . S
O646 Mg635 1.942 . S
O646 C651 1.244 . S
O647 Mg635 1.955 . S
O647 C660 1.273 . S
O648 Mg637 2.114 . S
O648 Mg639 2.291 . S
O648 C650 1.312 . S
O649 Mg634 2.031 . S
O649 C650 1.208 . S
C650 O648 1.312 . S
C650 O649 1.208 . S
C651 O643 1.331 . S
C651 O646 1.244 . S
O652 Mg637 2.013 . S
O652 C641 1.191 . S
O653 C632 1.331 . S
O653 Mg639 2.081 . S
O654 Mg635 1.986 . S
O654 C641 1.307 . S
O655 C633 1.264 . S
O655 Mg639 2.023 . S
O656 C632 1.244 . S
O656 Mg640 1.942 . S
O657 C633 1.273 . S
O657 Mg640 1.955 . S
O658 C631 1.312 . S
O658 Mg634 2.291 . S
O658 Mg637 2.114 . S
O659 C631 1.208 . S
O659 Mg639 2.031 . S
C660 O645 1.264 . S
C660 O647 1.273 . S
C661 O642 1.191 . S
C661 O644 1.307 . S
C662 O689 1.312 . S
C662 O690 1.208 . S
C663 O684 1.331 . S
C663 O687 1.244 . S
C664 O686 1.264 . S
C664 O688 1.273 . S
Mg665 O667 1.936 . S
Mg665 O674 2.081 . S
Mg665 O676 2.023 1_565 S
Mg665 O680 2.031 . S
Mg665 O689 2.291 1_565 S
Mg666 O667 1.963 1_545 S
Mg666 O677 1.942 1_545 S
Mg666 O678 1.955 . S
Mg666 O685 1.986 1_545 S
O667 Mg665 1.936 . S
O667 Mg666 1.963 1_565 S
O667 Mg668 1.915 1_565 S
Mg668 O667 1.915 1_545 S
Mg668 O669 1.915 . S
Mg668 O673 2.013 . S
Mg668 O679 2.114 1_545 S
Mg668 O683 2.013 1_545 S
Mg668 O689 2.114 . S
O669 Mg668 1.915 . S
O669 Mg670 1.936 1_545 S
O669 Mg671 1.963 . S
Mg670 O669 1.936 1_565 S
Mg670 O679 2.291 . S
Mg670 O684 2.081 1_565 S
Mg670 O686 2.023 . S
Mg670 O690 2.031 1_565 S
Mg671 O669 1.963 . S
Mg671 O675 1.986 . S
Mg671 O687 1.942 . S
Mg671 O688 1.955 1_545 S
C672 O683 1.191 . S
C672 O685 1.307 . S
O673 Mg668 2.013 . S
O673 C692 1.191 . S
O674 Mg665 2.081 . S
O674 C682 1.331 . S
O675 Mg671 1.986 . S
O675 C692 1.307 . S
O676 Mg665 2.023 1_545 S
O676 C691 1.264 . S
O677 Mg666 1.942 1_565 S
O677 C682 1.244 . S
O678 Mg666 1.955 . S
O678 C691 1.273 . S
O679 Mg668 2.114 1_565 S
O679 Mg670 2.291 . S
O679 C681 1.312 . S
O680 Mg665 2.031 . S
O680 C681 1.208 . S
C681 O679 1.312 . S
C681 O680 1.208 . S
C682 O674 1.331 . S
C682 O677 1.244 . S
O683 Mg668 2.013 1_565 S
O683 C672 1.191 . S
O684 C663 1.331 . S
O684 Mg670 2.081 1_545 S
O685 Mg666 1.986 1_565 S
O685 C672 1.307 . S
O686 C664 1.264 . S
O686 Mg670 2.023 . S
O687 C663 1.244 . S
O687 Mg671 1.942 . S
O688 C664 1.273 . S
O688 Mg671 1.955 1_565 S
O689 C662 1.312 . S
O689 Mg665 2.291 1_545 S
O689 Mg668 2.114 . S
O690 C662 1.208 . S
O690 Mg670 2.031 1_545 S
C691 O676 1.264 . S
C691 O678 1.273 . S
C692 O673 1.191 . S
C692 O675 1.307 . S
C693 O720 1.312 . S
C693 O721 1.208 . S
C694 O715 1.331 . S
C694 O718 1.244 . S
C695 O717 1.264 . S
C695 O719 1.273 . S
Mg696 O698 1.936 . S
Mg696 O705 2.081 . S
Mg696 O707 2.023 . S
Mg696 O711 2.031 . S
Mg696 O720 2.291 . S
Mg697 O698 1.963 . S
Mg697 O708 1.942 . S
Mg697 O709 1.955 . S
Mg697 O716 1.986 . S
O698 Mg696 1.936 . S
O698 Mg697 1.963 . S
O698 Mg699 1.915 . S
Mg699 O698 1.915 . S
Mg699 O700 1.915 . S
Mg699 O704 2.013 . S
Mg699 O710 2.114 . S
Mg699 O714 2.013 . S
Mg699 O720 2.114 . S
O700 Mg699 1.915 . S
O700 Mg701 1.936 . S
O700 Mg702 1.963 . S
Mg701 O700 1.936 . S
Mg701 O710 2.291 . S
Mg701 O715 2.081 . S
Mg701 O717 2.023 . S
Mg701 O721 2.031 . S
Mg702 O700 1.963 . S
Mg702 O706 1.986 . S
Mg702 O718 1.942 . S
Mg702 O719 1.955 . S
C703 O714 1.191 . S
C703 O716 1.307 . S
O704 Mg699 2.013 . S
O704 C723 1.191 . S
O705 Mg696 2.081 . S
O705 C713 1.331 . S
O706 Mg702 1.986 . S
O706 C723 1.307 . S
O707 Mg696 2.023 . S
O707 C722 1.264 . S
O708 Mg697 1.942 . S
O708 C713 1.244 . S
O709 Mg697 1.955 . S
O709 C722 1.273 . S
O710 Mg699 2.114 . S
O710 Mg701 2.291 . S
O710 C712 1.312 . S
O711 Mg696 2.031 . S
O711 C712 1.208 . S
C712 O710 1.312 . S
C712 O711 1.208 . S
C713 O705 1.331 . S
C713 O708 1.244 . S
O714 Mg699 2.013 . S
O714 C703 1.191 . S
O715 C694 1.331 . S
O715 Mg701 2.081 . S
O716 Mg697 1.986 . S
O716 C703 1.307 . S
O717 C695 1.264 . S
O717 Mg701 2.023 . S
O718 C694 1.244 . S
O718 Mg702 1.942 . S
O719 C695 1.273 . S
O719 Mg702 1.955 . S
O720 C693 1.312 . S
O720 Mg696 2.291 . S
O720 Mg699 2.114 . S
O721 C693 1.208 . S
O721 Mg701 2.031 . S
C722 O707 1.264 . S
C722 O709 1.273 . S
C723 O704 1.191 . S
C723 O706 1.307 . S
H724 C732 0.929 . S
H725 C734 0.930 . S
H726 C736 0.930 . S
H727 C739 0.929 . S
H728 C742 0.930 . S
H729 C744 0.960 . S
H730 C744 0.960 . S
H731 C744 0.960 . S
C732 H724 0.929 . S
C732 C733 1.377 . S
C732 C734 1.384 . S
C733 C732 1.377 . S
C733 C739 1.390 . S
C734 H725 0.930 . S
C734 C732 1.384 . S
C734 C735 1.372 . S
C735 C734 1.372 . S
C735 C736 1.400 . S
C735 C740 1.490 . S
C736 H726 0.930 . S
C736 C735 1.400 . S
C736 C739 1.386 . S
H737 C753 0.930 . S
H738 C754 0.931 . S
C739 H727 0.929 . S
C739 C733 1.390 . S
C739 C736 1.386 . S
C740 C735 1.490 . S
C740 C742 1.395 . S
C740 C743 1.403 . S
H741 C747 0.930 . S
C742 H728 0.930 . S
C742 C740 1.395 . S
C742 C745 1.403 . S
C743 C740 1.403 . S
C743 C744 1.524 . S
C743 C747 1.400 . S
C744 H729 0.960 . S
C744 H730 0.960 . S
C744 H731 0.960 . S
C744 C743 1.524 . S
C745 C742 1.403 . S
C745 C746 1.392 . S
C745 C749 1.495 . S
C746 C745 1.392 . S
C746 C747 1.385 . S
C746 C748 1.478 . S
C747 H741 0.930 . S
C747 C743 1.400 . S
C747 C746 1.385 . S
C748 C746 1.478 . S
C748 C750 1.381 . S
C748 C754 1.383 . S
C749 C745 1.495 . S
C749 H755 0.959 . S
C749 H756 0.961 . S
C749 H757 0.960 . S
C750 C748 1.381 . S
C750 C751 1.394 . S
C750 H758 0.930 . S
C751 C750 1.394 . S
C751 C752 1.383 . S
C751 H759 0.929 . S
C752 C751 1.383 . S
C752 C753 1.377 . S
C753 H737 0.930 . S
C753 C752 1.377 . S
C753 C754 1.379 . S
C754 H738 0.931 . S
C754 C748 1.383 . S
C754 C753 1.379 . S
H755 C749 0.959 . S
H756 C749 0.961 . S
H757 C749 0.960 . S
H758 C750 0.930 . S
H759 C751 0.929 . S
H760 C768 0.929 . S
H761 C770 0.930 . S
H762 C772 0.930 . S
H763 C775 0.929 . S
H764 C778 0.930 . S
H765 C780 0.960 . S
H766 C780 0.960 . S
H767 C780 0.960 . S
C768 H760 0.929 . S
C768 C769 1.377 . S
C768 C770 1.384 . S
C769 C768 1.377 . S
C769 C775 1.390 . S
C770 H761 0.930 . S
C770 C768 1.384 . S
C770 C771 1.372 . S
C771 C770 1.372 . S
C771 C772 1.400 . S
C771 C776 1.490 . S
C772 H762 0.930 . S
C772 C771 1.400 . S
C772 C775 1.386 . S
H773 C789 0.930 . S
H774 C790 0.931 . S
C775 H763 0.929 . S
C775 C769 1.390 . S
C775 C772 1.386 . S
C776 C771 1.490 . S
C776 C778 1.395 . S
C776 C779 1.403 . S
H777 C783 0.930 . S
C778 H764 0.930 . S
C778 C776 1.395 . S
C778 C781 1.403 . S
C779 C776 1.403 . S
C779 C780 1.524 . S
C779 C783 1.400 . S
C780 H765 0.960 . S
C780 H766 0.960 . S
C780 H767 0.960 . S
C780 C779 1.524 . S
C781 C778 1.403 . S
C781 C782 1.392 . S
C781 C785 1.495 . S
C782 C781 1.392 . S
C782 C783 1.385 . S
C782 C784 1.478 . S
C783 H777 0.930 . S
C783 C779 1.400 . S
C783 C782 1.385 . S
C784 C782 1.478 . S
C784 C786 1.381 . S
C784 C790 1.383 . S
C785 C781 1.495 . S
C785 H791 0.959 . S
C785 H792 0.961 . S
C785 H793 0.960 . S
C786 C784 1.381 . S
C786 C787 1.394 . S
C786 H794 0.930 . S
C787 C786 1.394 . S
C787 C788 1.383 . S
C787 H795 0.929 . S
C788 C787 1.383 . S
C788 C789 1.377 . S
C789 H773 0.930 . S
C789 C788 1.377 . S
C789 C790 1.379 . S
C790 H774 0.931 . S
C790 C784 1.383 . S
C790 C789 1.379 . S
H791 C785 0.959 . S
H792 C785 0.961 . S
H793 C785 0.960 . S
H794 C786 0.930 . S
H795 C787 0.929 . S
H796 C804 0.929 . S
H797 C806 0.930 . S
H798 C808 0.930 . S
H799 C811 0.929 . S
H800 C814 0.930 . S
H801 C816 0.960 . S
H802 C816 0.960 . S
H803 C816 0.960 . S
C804 H796 0.929 . S
C804 C805 1.377 . S
C804 C806 1.384 . S
C805 C804 1.377 . S
C805 C811 1.390 . S
C806 H797 0.930 . S
C806 C804 1.384 . S
C806 C807 1.372 . S
C807 C806 1.372 . S
C807 C808 1.400 . S
C807 C812 1.490 . S
C808 H798 0.930 . S
C808 C807 1.400 . S
C808 C811 1.386 . S
H809 C825 0.930 . S
H810 C826 0.931 . S
C811 H799 0.929 . S
C811 C805 1.390 . S
C811 C808 1.386 . S
C812 C807 1.490 . S
C812 C814 1.395 . S
C812 C815 1.403 . S
H813 C819 0.930 . S
C814 H800 0.930 . S
C814 C812 1.395 . S
C814 C817 1.403 . S
C815 C812 1.403 . S
C815 C816 1.524 . S
C815 C819 1.400 . S
C816 H801 0.960 . S
C816 H802 0.960 . S
C816 H803 0.960 . S
C816 C815 1.524 . S
C817 C814 1.403 . S
C817 C818 1.392 . S
C817 C821 1.495 . S
C818 C817 1.392 . S
C818 C819 1.385 . S
C818 C820 1.478 . S
C819 H813 0.930 . S
C819 C815 1.400 . S
C819 C818 1.385 . S
C820 C818 1.478 . S
C820 C822 1.381 . S
C820 C826 1.383 . S
C821 C817 1.495 . S
C821 H827 0.959 . S
C821 H828 0.961 . S
C821 H829 0.960 . S
C822 C820 1.381 . S
C822 C823 1.394 . S
C822 H830 0.930 . S
C823 C822 1.394 . S
C823 C824 1.383 . S
C823 H831 0.929 . S
C824 C823 1.383 . S
C824 C825 1.377 . S
C825 H809 0.930 . S
C825 C824 1.377 . S
C825 C826 1.379 . S
C826 H810 0.931 . S
C826 C820 1.383 . S
C826 C825 1.379 . S
H827 C821 0.959 . S
H828 C821 0.961 . S
H829 C821 0.960 . S
H830 C822 0.930 . S
H831 C823 0.929 . S
H832 C840 0.929 . S
H833 C842 0.930 . S
H834 C844 0.930 . S
H835 C847 0.929 . S
H836 C850 0.930 . S
H837 C852 0.960 . S
H838 C852 0.960 . S
H839 C852 0.960 . S
C840 H832 0.929 . S
C840 C841 1.377 . S
C840 C842 1.384 . S
C841 C840 1.377 . S
C841 C847 1.390 . S
C842 H833 0.930 . S
C842 C840 1.384 . S
C842 C843 1.372 . S
C843 C842 1.372 . S
C843 C844 1.400 . S
C843 C848 1.490 . S
C844 H834 0.930 . S
C844 C843 1.400 . S
C844 C847 1.386 . S
H845 C861 0.930 . S
H846 C862 0.931 . S
C847 H835 0.929 . S
C847 C841 1.390 . S
C847 C844 1.386 . S
C848 C843 1.490 . S
C848 C850 1.395 . S
C848 C851 1.403 . S
H849 C855 0.930 . S
C850 H836 0.930 . S
C850 C848 1.395 . S
C850 C853 1.403 . S
C851 C848 1.403 . S
C851 C852 1.524 . S
C851 C855 1.400 . S
C852 H837 0.960 . S
C852 H838 0.960 . S
C852 H839 0.960 . S
C852 C851 1.524 . S
C853 C850 1.403 . S
C853 C854 1.392 . S
C853 C857 1.495 . S
C854 C853 1.392 . S
C854 C855 1.385 . S
C854 C856 1.478 . S
C855 H849 0.930 . S
C855 C851 1.400 . S
C855 C854 1.385 . S
C856 C854 1.478 . S
C856 C858 1.381 . S
C856 C862 1.383 . S
C857 C853 1.495 . S
C857 H863 0.959 . S
C857 H864 0.961 . S
C857 H865 0.960 . S
C858 C856 1.381 . S
C858 C859 1.394 . S
C858 H866 0.930 . S
C859 C858 1.394 . S
C859 C860 1.383 . S
C859 H867 0.929 . S
C860 C859 1.383 . S
C860 C861 1.377 . S
C861 H845 0.930 . S
C861 C860 1.377 . S
C861 C862 1.379 . S
C862 H846 0.931 . S
C862 C856 1.383 . S
C862 C861 1.379 . S
H863 C857 0.959 . S
H864 C857 0.961 . S
H865 C857 0.960 . S
H866 C858 0.930 . S
H867 C859 0.929 . S
H868 C876 0.929 . S
H869 C878 0.930 . S
H870 C880 0.930 . S
H871 C883 0.929 . S
H872 C886 0.930 . S
H873 C888 0.960 . S
H874 C888 0.960 . S
H875 C888 0.960 . S
C876 H868 0.929 . S
C876 C877 1.377 . S
C876 C878 1.384 . S
C877 C876 1.377 . S
C877 C883 1.390 . S
C878 H869 0.930 . S
C878 C876 1.384 . S
C878 C879 1.372 . S
C879 C878 1.372 . S
C879 C880 1.400 . S
C879 C884 1.490 . S
C880 H870 0.930 . S
C880 C879 1.400 . S
C880 C883 1.386 . S
H881 C897 0.930 . S
H882 C898 0.931 . S
C883 H871 0.929 . S
C883 C877 1.390 . S
C883 C880 1.386 . S
C884 C879 1.490 . S
C884 C886 1.395 . S
C884 C887 1.403 . S
H885 C891 0.930 . S
C886 H872 0.930 . S
C886 C884 1.395 . S
C886 C889 1.403 . S
C887 C884 1.403 . S
C887 C888 1.524 . S
C887 C891 1.400 . S
C888 H873 0.960 . S
C888 H874 0.960 . S
C888 H875 0.960 . S
C888 C887 1.524 . S
C889 C886 1.403 . S
C889 C890 1.392 . S
C889 C893 1.495 . S
C890 C889 1.392 . S
C890 C891 1.385 . S
C890 C892 1.478 . S
C891 H885 0.930 . S
C891 C887 1.400 . S
C891 C890 1.385 . S
C892 C890 1.478 . S
C892 C894 1.381 . S
C892 C898 1.383 . S
C893 C889 1.495 . S
C893 H899 0.959 1_455 S
C893 H900 0.961 1_455 S
C893 H901 0.960 . S
C894 C892 1.381 . S
C894 C895 1.394 . S
C894 H902 0.930 . S
C895 C894 1.394 . S
C895 C896 1.383 . S
C895 H903 0.929 . S
C896 C895 1.383 . S
C896 C897 1.377 . S
C897 H881 0.930 . S
C897 C896 1.377 . S
C897 C898 1.379 . S
C898 H882 0.931 . S
C898 C892 1.383 . S
C898 C897 1.379 . S
H899 C893 0.959 1_655 S
H900 C893 0.961 1_655 S
H901 C893 0.960 . S
H902 C894 0.930 . S
H903 C895 0.929 . S
H904 C912 0.929 . S
H905 C914 0.930 . S
H906 C916 0.930 . S
H907 C919 0.929 . S
H908 C922 0.930 . S
H909 C924 0.960 . S
H910 C924 0.960 . S
H911 C924 0.960 . S
C912 H904 0.929 . S
C912 C913 1.377 . S
C912 C914 1.384 . S
C913 C912 1.377 . S
C913 C919 1.390 . S
C914 H905 0.930 . S
C914 C912 1.384 . S
C914 C915 1.372 . S
C915 C914 1.372 . S
C915 C916 1.400 . S
C915 C920 1.490 . S
C916 H906 0.930 . S
C916 C915 1.400 . S
C916 C919 1.386 . S
H917 C933 0.930 . S
H918 C934 0.931 . S
C919 H907 0.929 . S
C919 C913 1.390 . S
C919 C916 1.386 . S
C920 C915 1.490 . S
C920 C922 1.395 . S
C920 C923 1.403 . S
H921 C927 0.930 . S
C922 H908 0.930 . S
C922 C920 1.395 . S
C922 C925 1.403 . S
C923 C920 1.403 . S
C923 C924 1.524 . S
C923 C927 1.400 . S
C924 H909 0.960 . S
C924 H910 0.960 . S
C924 H911 0.960 . S
C924 C923 1.524 . S
C925 C922 1.403 . S
C925 C926 1.392 . S
C925 C929 1.495 . S
C926 C925 1.392 . S
C926 C927 1.385 . S
C926 C928 1.478 . S
C927 H921 0.930 . S
C927 C923 1.400 . S
C927 C926 1.385 . S
C928 C926 1.478 . S
C928 C930 1.381 . S
C928 C934 1.383 . S
C929 C925 1.495 . S
C929 H935 0.959 . S
C929 H936 0.961 . S
C929 H937 0.960 . S
C930 C928 1.381 . S
C930 C931 1.394 . S
C930 H938 0.930 . S
C931 C930 1.394 . S
C931 C932 1.383 . S
C931 H939 0.929 . S
C932 C931 1.383 . S
C932 C933 1.377 . S
C933 H917 0.930 . S
C933 C932 1.377 . S
C933 C934 1.379 . S
C934 H918 0.931 . S
C934 C928 1.383 . S
C934 C933 1.379 . S
H935 C929 0.959 . S
H936 C929 0.961 . S
H937 C929 0.960 . S
H938 C930 0.930 . S
H939 C931 0.929 . S
H940 C948 0.929 . S
H941 C950 0.930 . S
H942 C952 0.930 . S
H943 C955 0.929 . S
H944 C958 0.930 . S
H945 C960 0.960 . S
H946 C960 0.960 . S
H947 C960 0.960 . S
C948 H940 0.929 . S
C948 C949 1.377 . S
C948 C950 1.384 . S
C949 C948 1.377 . S
C949 C955 1.390 . S
C950 H941 0.930 . S
C950 C948 1.384 . S
C950 C951 1.372 . S
C951 C950 1.372 . S
C951 C952 1.400 . S
C951 C956 1.490 . S
C952 H942 0.930 . S
C952 C951 1.400 . S
C952 C955 1.386 . S
H953 C969 0.930 . S
H954 C970 0.931 . S
C955 H943 0.929 . S
C955 C949 1.390 . S
C955 C952 1.386 . S
C956 C951 1.490 . S
C956 C958 1.395 . S
C956 C959 1.403 . S
H957 C963 0.930 . S
C958 H944 0.930 . S
C958 C956 1.395 . S
C958 C961 1.403 . S
C959 C956 1.403 . S
C959 C960 1.524 . S
C959 C963 1.400 . S
C960 H945 0.960 . S
C960 H946 0.960 . S
C960 H947 0.960 . S
C960 C959 1.524 . S
C961 C958 1.403 . S
C961 C962 1.392 . S
C961 C965 1.495 . S
C962 C961 1.392 . S
C962 C963 1.385 . S
C962 C964 1.478 . S
C963 H957 0.930 . S
C963 C959 1.400 . S
C963 C962 1.385 . S
C964 C962 1.478 . S
C964 C966 1.381 . S
C964 C970 1.383 . S
C965 C961 1.495 . S
C965 H971 0.959 . S
C965 H972 0.961 . S
C965 H973 0.960 . S
C966 C964 1.381 . S
C966 C967 1.394 . S
C966 H974 0.930 . S
C967 C966 1.394 . S
C967 C968 1.383 . S
C967 H975 0.929 . S
C968 C967 1.383 . S
C968 C969 1.377 . S
C969 H953 0.930 . S
C969 C968 1.377 . S
C969 C970 1.379 . S
C970 H954 0.931 . S
C970 C964 1.383 . S
C970 C969 1.379 . S
H971 C965 0.959 . S
H972 C965 0.961 . S
H973 C965 0.960 . S
H974 C966 0.930 . S
H975 C967 0.929 . S
H976 C984 0.929 . S
H977 C986 0.930 . S
H978 C988 0.930 . S
H979 C991 0.929 . S
H980 C994 0.930 . S
H981 C996 0.960 . S
H982 C996 0.960 . S
H983 C996 0.960 . S
C984 H976 0.929 . S
C984 C985 1.377 . S
C984 C986 1.384 . S
C985 C984 1.377 . S
C985 C991 1.390 . S
C986 H977 0.930 . S
C986 C984 1.384 . S
C986 C987 1.372 . S
C987 C986 1.372 . S
C987 C988 1.400 . S
C987 C992 1.490 . S
C988 H978 0.930 . S
C988 C987 1.400 . S
C988 C991 1.386 . S
H989 C1005 0.930 . S
H990 C1006 0.931 . S
C991 H979 0.929 . S
C991 C985 1.390 . S
C991 C988 1.386 . S
C992 C987 1.490 . S
C992 C994 1.395 . S
C992 C995 1.403 . S
H993 C999 0.930 . S
C994 H980 0.930 . S
C994 C992 1.395 . S
C994 C997 1.403 . S
C995 C992 1.403 . S
C995 C996 1.524 . S
C995 C999 1.400 . S
C996 H981 0.960 . S
C996 H982 0.960 . S
C996 H983 0.960 . S
C996 C995 1.524 . S
C997 C994 1.403 . S
C997 C998 1.392 . S
C997 C1001 1.495 . S
C998 C997 1.392 . S
C998 C999 1.385 . S
C998 C1000 1.478 . S
C999 H993 0.930 . S
C999 C995 1.400 . S
C999 C998 1.385 . S
C1000 C998 1.478 . S
C1000 C1002 1.381 . S
C1000 C1006 1.383 . S
C1001 C997 1.495 . S
C1001 H1007 0.959 . S
C1001 H1008 0.961 . S
C1001 H1009 0.960 . S
C1002 C1000 1.381 . S
C1002 C1003 1.394 . S
C1002 H1010 0.930 . S
C1003 C1002 1.394 . S
C1003 C1004 1.383 . S
C1003 H1011 0.929 . S
C1004 C1003 1.383 . S
C1004 C1005 1.377 . S
C1005 H989 0.930 . S
C1005 C1004 1.377 . S
C1005 C1006 1.379 . S
C1006 H990 0.931 . S
C1006 C1000 1.383 . S
C1006 C1005 1.379 . S
H1007 C1001 0.959 . S
H1008 C1001 0.961 . S
H1009 C1001 0.960 . S
H1010 C1002 0.930 . S
H1011 C1003 0.929 . S
H1012 C1020 0.929 . S
H1013 C1022 0.930 . S
H1014 C1024 0.930 . S
H1015 C1027 0.929 . S
H1016 C1030 0.930 . S
H1017 C1032 0.960 . S
H1018 C1032 0.960 . S
H1019 C1032 0.960 . S
C1020 H1012 0.929 . S
C1020 C1021 1.377 . S
C1020 C1022 1.384 . S
C1021 C1020 1.377 . S
C1021 C1027 1.390 . S
C1022 H1013 0.930 . S
C1022 C1020 1.384 . S
C1022 C1023 1.372 . S
C1023 C1022 1.372 . S
C1023 C1024 1.400 . S
C1023 C1028 1.490 . S
C1024 H1014 0.930 . S
C1024 C1023 1.400 . S
C1024 C1027 1.386 . S
H1025 C1041 0.930 . S
H1026 C1042 0.931 . S
C1027 H1015 0.929 . S
C1027 C1021 1.390 . S
C1027 C1024 1.386 . S
C1028 C1023 1.490 . S
C1028 C1030 1.395 . S
C1028 C1031 1.403 . S
H1029 C1035 0.930 . S
C1030 H1016 0.930 . S
C1030 C1028 1.395 . S
C1030 C1033 1.403 . S
C1031 C1028 1.403 . S
C1031 C1032 1.524 . S
C1031 C1035 1.400 . S
C1032 H1017 0.960 . S
C1032 H1018 0.960 . S
C1032 H1019 0.960 . S
C1032 C1031 1.524 . S
C1033 C1030 1.403 . S
C1033 C1034 1.392 . S
C1033 C1037 1.495 . S
C1034 C1033 1.392 . S
C1034 C1035 1.385 . S
C1034 C1036 1.478 . S
C1035 H1029 0.930 . S
C1035 C1031 1.400 . S
C1035 C1034 1.385 . S
C1036 C1034 1.478 . S
C1036 C1038 1.381 . S
C1036 C1042 1.383 . S
C1037 C1033 1.495 . S
C1037 H1043 0.959 . S
C1037 H1044 0.961 . S
C1037 H1045 0.960 . S
C1038 C1036 1.381 . S
C1038 C1039 1.394 . S
C1038 H1046 0.930 . S
C1039 C1038 1.394 . S
C1039 C1040 1.383 . S
C1039 H1047 0.929 . S
C1040 C1039 1.383 . S
C1040 C1041 1.377 . S
C1041 H1025 0.930 . S
C1041 C1040 1.377 . S
C1041 C1042 1.379 . S
C1042 H1026 0.931 . S
C1042 C1036 1.383 . S
C1042 C1041 1.379 . S
H1043 C1037 0.959 . S
H1044 C1037 0.961 . S
H1045 C1037 0.960 . S
H1046 C1038 0.930 . S
H1047 C1039 0.929 . S
H1048 C1056 0.929 . S
H1049 C1058 0.930 . S
H1050 C1060 0.930 . S
H1051 C1063 0.929 . S
H1052 C1066 0.930 . S
H1053 C1068 0.960 . S
H1054 C1068 0.960 . S
H1055 C1068 0.960 . S
C1056 H1048 0.929 . S
C1056 C1057 1.377 . S
C1056 C1058 1.384 . S
C1057 C1056 1.377 . S
C1057 C1063 1.390 . S
C1058 H1049 0.930 . S
C1058 C1056 1.384 . S
C1058 C1059 1.372 . S
C1059 C1058 1.372 . S
C1059 C1060 1.400 . S
C1059 C1064 1.490 . S
C1060 H1050 0.930 . S
C1060 C1059 1.400 . S
C1060 C1063 1.386 . S
H1061 C1077 0.930 . S
H1062 C1078 0.931 . S
C1063 H1051 0.929 . S
C1063 C1057 1.390 . S
C1063 C1060 1.386 . S
C1064 C1059 1.490 . S
C1064 C1066 1.395 . S
C1064 C1067 1.403 . S
H1065 C1071 0.930 . S
C1066 H1052 0.930 . S
C1066 C1064 1.395 . S
C1066 C1069 1.403 . S
C1067 C1064 1.403 . S
C1067 C1068 1.524 . S
C1067 C1071 1.400 . S
C1068 H1053 0.960 . S
C1068 H1054 0.960 . S
C1068 H1055 0.960 . S
C1068 C1067 1.524 . S
C1069 C1066 1.403 . S
C1069 C1070 1.392 . S
C1069 C1073 1.495 . S
C1070 C1069 1.392 . S
C1070 C1071 1.385 . S
C1070 C1072 1.478 . S
C1071 H1065 0.930 . S
C1071 C1067 1.400 . S
C1071 C1070 1.385 . S
C1072 C1070 1.478 . S
C1072 C1074 1.381 1_545 S
C1072 C1078 1.383 . S
C1073 C1069 1.495 . S
C1073 H1079 0.959 . S
C1073 H1080 0.961 . S
C1073 H1081 0.960 1_545 S
C1074 C1072 1.381 1_565 S
C1074 C1075 1.394 . S
C1074 H1082 0.930 . S
C1075 C1074 1.394 . S
C1075 C1076 1.383 . S
C1075 H1083 0.929 . S
C1076 C1075 1.383 . S
C1076 C1077 1.377 . S
C1077 H1061 0.930 . S
C1077 C1076 1.377 . S
C1077 C1078 1.379 1_565 S
C1078 H1062 0.931 . S
C1078 C1072 1.383 . S
C1078 C1077 1.379 1_545 S
H1079 C1073 0.959 . S
H1080 C1073 0.961 . S
H1081 C1073 0.960 1_565 S
H1082 C1074 0.930 . S
H1083 C1075 0.929 . S
H1084 C1092 0.929 . S
H1085 C1094 0.930 . S
H1086 C1096 0.930 . S
H1087 C1099 0.929 . S
H1088 C1102 0.930 . S
H1089 C1104 0.960 . S
H1090 C1104 0.960 . S
H1091 C1104 0.960 . S
C1092 H1084 0.929 . S
C1092 C1093 1.377 . S
C1092 C1094 1.384 . S
C1093 C1092 1.377 . S
C1093 C1099 1.390 . S
C1094 H1085 0.930 . S
C1094 C1092 1.384 . S
C1094 C1095 1.372 . S
C1095 C1094 1.372 . S
C1095 C1096 1.400 . S
C1095 C1100 1.490 . S
C1096 H1086 0.930 . S
C1096 C1095 1.400 . S
C1096 C1099 1.386 . S
H1097 C1113 0.930 . S
H1098 C1114 0.931 . S
C1099 H1087 0.929 . S
C1099 C1093 1.390 . S
C1099 C1096 1.386 . S
C1100 C1095 1.490 . S
C1100 C1102 1.395 . S
C1100 C1103 1.403 . S
H1101 C1107 0.930 . S
C1102 H1088 0.930 . S
C1102 C1100 1.395 . S
C1102 C1105 1.403 . S
C1103 C1100 1.403 . S
C1103 C1104 1.524 . S
C1103 C1107 1.400 . S
C1104 H1089 0.960 . S
C1104 H1090 0.960 . S
C1104 H1091 0.960 . S
C1104 C1103 1.524 . S
C1105 C1102 1.403 . S
C1105 C1106 1.392 . S
C1105 C1109 1.495 . S
C1106 C1105 1.392 . S
C1106 C1107 1.385 . S
C1106 C1108 1.478 . S
C1107 H1101 0.930 . S
C1107 C1103 1.400 . S
C1107 C1106 1.385 . S
C1108 C1106 1.478 . S
C1108 C1110 1.381 . S
C1108 C1114 1.383 . S
C1109 C1105 1.495 . S
C1109 H1115 0.959 . S
C1109 H1116 0.961 . S
C1109 H1117 0.960 . S
C1110 C1108 1.381 . S
C1110 C1111 1.394 . S
C1110 H1118 0.930 . S
C1111 C1110 1.394 . S
C1111 C1112 1.383 . S
C1111 H1119 0.929 . S
C1112 C1111 1.383 . S
C1112 C1113 1.377 . S
C1113 H1097 0.930 . S
C1113 C1112 1.377 . S
C1113 C1114 1.379 . S
C1114 H1098 0.931 . S
C1114 C1108 1.383 . S
C1114 C1113 1.379 . S
H1115 C1109 0.959 . S
H1116 C1109 0.961 . S
H1117 C1109 0.960 . S
H1118 C1110 0.930 . S
H1119 C1111 0.929 . S
H1120 C1128 0.929 . S
H1121 C1130 0.930 . S
H1122 C1132 0.930 . S
H1123 C1135 0.929 . S
H1124 C1138 0.930 . S
H1125 C1140 0.960 . S
H1126 C1140 0.960 . S
H1127 C1140 0.960 . S
C1128 H1120 0.929 . S
C1128 C1129 1.377 . S
C1128 C1130 1.384 . S
C1129 C1128 1.377 . S
C1129 C1135 1.390 . S
C1130 H1121 0.930 . S
C1130 C1128 1.384 . S
C1130 C1131 1.372 . S
C1131 C1130 1.372 . S
C1131 C1132 1.400 . S
C1131 C1136 1.490 . S
C1132 H1122 0.930 . S
C1132 C1131 1.400 . S
C1132 C1135 1.386 . S
H1133 C1149 0.930 . S
H1134 C1150 0.931 . S
C1135 H1123 0.929 . S
C1135 C1129 1.390 . S
C1135 C1132 1.386 . S
C1136 C1131 1.490 . S
C1136 C1138 1.395 . S
C1136 C1139 1.403 . S
H1137 C1143 0.930 . S
C1138 H1124 0.930 . S
C1138 C1136 1.395 . S
C1138 C1141 1.403 . S
C1139 C1136 1.403 . S
C1139 C1140 1.524 . S
C1139 C1143 1.400 . S
C1140 H1125 0.960 . S
C1140 H1126 0.960 . S
C1140 H1127 0.960 . S
C1140 C1139 1.524 . S
C1141 C1138 1.403 . S
C1141 C1142 1.392 . S
C1141 C1145 1.495 . S
C1142 C1141 1.392 . S
C1142 C1143 1.385 . S
C1142 C1144 1.478 . S
C1143 H1137 0.930 . S
C1143 C1139 1.400 . S
C1143 C1142 1.385 . S
C1144 C1142 1.478 . S
C1144 C1146 1.381 . S
C1144 C1150 1.383 . S
C1145 C1141 1.495 . S
C1145 H1151 0.959 . S
C1145 H1152 0.961 . S
C1145 H1153 0.960 . S
C1146 C1144 1.381 . S
C1146 C1147 1.394 . S
C1146 H1154 0.930 . S
C1147 C1146 1.394 . S
C1147 C1148 1.383 . S
C1147 H1155 0.929 . S
C1148 C1147 1.383 . S
C1148 C1149 1.377 . S
C1149 H1133 0.930 . S
C1149 C1148 1.377 . S
C1149 C1150 1.379 . S
C1150 H1134 0.931 . S
C1150 C1144 1.383 . S
C1150 C1149 1.379 . S
H1151 C1145 0.959 . S
H1152 C1145 0.961 . S
H1153 C1145 0.960 . S
H1154 C1146 0.930 . S
H1155 C1147 0.929 . S
H1156 C1164 0.929 . S
H1157 C1166 0.930 . S
H1158 C1168 0.930 . S
H1159 C1171 0.929 . S
H1160 C1174 0.930 . S
H1161 C1176 0.960 . S
H1162 C1176 0.960 . S
H1163 C1176 0.960 . S
C1164 H1156 0.929 . S
C1164 C1165 1.377 . S
C1164 C1166 1.384 . S
C1165 C1164 1.377 . S
C1165 C1171 1.390 . S
C1166 H1157 0.930 . S
C1166 C1164 1.384 . S
C1166 C1167 1.372 . S
C1167 C1166 1.372 . S
C1167 C1168 1.400 . S
C1167 C1172 1.490 . S
C1168 H1158 0.930 . S
C1168 C1167 1.400 . S
C1168 C1171 1.386 . S
H1169 C1185 0.930 . S
H1170 C1186 0.931 . S
C1171 H1159 0.929 . S
C1171 C1165 1.390 . S
C1171 C1168 1.386 . S
C1172 C1167 1.490 . S
C1172 C1174 1.395 . S
C1172 C1175 1.403 . S
H1173 C1179 0.930 . S
C1174 H1160 0.930 . S
C1174 C1172 1.395 . S
C1174 C1177 1.403 . S
C1175 C1172 1.403 . S
C1175 C1176 1.524 . S
C1175 C1179 1.400 . S
C1176 H1161 0.960 . S
C1176 H1162 0.960 . S
C1176 H1163 0.960 . S
C1176 C1175 1.524 . S
C1177 C1174 1.403 . S
C1177 C1178 1.392 . S
C1177 C1181 1.495 . S
C1178 C1177 1.392 . S
C1178 C1179 1.385 . S
C1178 C1180 1.478 . S
C1179 H1173 0.930 . S
C1179 C1175 1.400 . S
C1179 C1178 1.385 . S
C1180 C1178 1.478 . S
C1180 C1182 1.381 . S
C1180 C1186 1.383 . S
C1181 C1177 1.495 . S
C1181 H1187 0.954 1_565 S
C1181 H1188 0.961 . S
C1181 H1189 0.960 1_565 S
C1182 C1180 1.381 . S
C1182 C1183 1.394 . S
C1182 H1190 0.930 . S
C1183 C1182 1.394 . S
C1183 C1184 1.383 . S
C1183 H1191 0.929 . S
C1184 C1183 1.383 . S
C1184 C1185 1.377 . S
C1185 H1169 0.930 . S
C1185 C1184 1.377 . S
C1185 C1186 1.379 . S
C1186 H1170 0.931 . S
C1186 C1180 1.383 . S
C1186 C1185 1.379 . S
H1187 C1181 0.954 1_545 S
H1188 C1181 0.961 . S
H1189 C1181 0.960 1_545 S
H1190 C1182 0.930 . S
H1191 C1183 0.929 . S
H1192 C1200 0.929 . S
H1193 C1202 0.930 . S
H1194 C1204 0.930 . S
H1195 C1207 0.929 . S
H1196 C1210 0.930 . S
H1197 C1212 0.960 . S
H1198 C1212 0.960 . S
H1199 C1212 0.960 . S
C1200 H1192 0.929 . S
C1200 C1201 1.377 . S
C1200 C1202 1.384 . S
C1201 C1200 1.377 . S
C1201 C1207 1.390 . S
C1202 H1193 0.930 . S
C1202 C1200 1.384 . S
C1202 C1203 1.372 . S
C1203 C1202 1.372 . S
C1203 C1204 1.400 . S
C1203 C1208 1.490 . S
C1204 H1194 0.930 . S
C1204 C1203 1.400 . S
C1204 C1207 1.386 . S
H1205 C1221 0.930 . S
H1206 C1222 0.931 . S
C1207 H1195 0.929 . S
C1207 C1201 1.390 . S
C1207 C1204 1.386 . S
C1208 C1203 1.490 . S
C1208 C1210 1.395 . S
C1208 C1211 1.403 . S
H1209 C1215 0.930 . S
C1210 H1196 0.930 . S
C1210 C1208 1.395 . S
C1210 C1213 1.403 . S
C1211 C1208 1.403 . S
C1211 C1212 1.524 . S
C1211 C1215 1.400 . S
C1212 H1197 0.960 . S
C1212 H1198 0.960 . S
C1212 H1199 0.960 . S
C1212 C1211 1.524 . S
C1213 C1210 1.403 . S
C1213 C1214 1.392 . S
C1213 C1217 1.495 . S
C1214 C1213 1.392 . S
C1214 C1215 1.385 . S
C1214 C1216 1.478 . S
C1215 H1209 0.930 . S
C1215 C1211 1.400 . S
C1215 C1214 1.385 . S
C1216 C1214 1.478 . S
C1216 C1218 1.381 . S
C1216 C1222 1.383 1_545 S
C1217 C1213 1.495 . S
C1217 H1223 0.959 . S
C1217 H1224 0.961 . S
C1217 H1225 0.960 . S
C1218 C1216 1.381 . S
C1218 C1219 1.394 1_545 S
C1218 H1226 0.930 . S
C1219 C1218 1.394 1_565 S
C1219 C1220 1.383 . S
C1219 H1227 0.929 . S
C1220 C1219 1.383 . S
C1220 C1221 1.377 . S
C1221 H1205 0.930 . S
C1221 C1220 1.377 . S
C1221 C1222 1.379 . S
C1222 H1206 0.931 . S
C1222 C1216 1.383 1_565 S
C1222 C1221 1.379 . S
H1223 C1217 0.959 . S
H1224 C1217 0.961 . S
H1225 C1217 0.960 . S
H1226 C1218 0.930 . S
H1227 C1219 0.929 . S
H1228 C1236 0.929 . S
H1229 C1238 0.930 . S
H1230 C1240 0.930 . S
H1231 C1243 0.929 . S
H1232 C1246 0.930 . S
H1233 C1248 0.960 . S
H1234 C1248 0.960 . S
H1235 C1248 0.960 . S
C1236 H1228 0.929 . S
C1236 C1237 1.377 . S
C1236 C1238 1.384 . S
C1237 C1236 1.377 . S
C1237 C1243 1.390 . S
C1238 H1229 0.930 . S
C1238 C1236 1.384 . S
C1238 C1239 1.372 . S
C1239 C1238 1.372 . S
C1239 C1240 1.400 . S
C1239 C1244 1.490 . S
C1240 H1230 0.930 . S
C1240 C1239 1.400 . S
C1240 C1243 1.386 . S
H1241 C1257 0.930 . S
H1242 C1258 0.931 . S
C1243 H1231 0.929 . S
C1243 C1237 1.390 . S
C1243 C1240 1.386 . S
C1244 C1239 1.490 . S
C1244 C1246 1.395 . S
C1244 C1247 1.403 . S
H1245 C1251 0.930 . S
C1246 H1232 0.930 . S
C1246 C1244 1.395 . S
C1246 C1249 1.403 . S
C1247 C1244 1.403 . S
C1247 C1248 1.524 . S
C1247 C1251 1.400 . S
C1248 H1233 0.960 . S
C1248 H1234 0.960 . S
C1248 H1235 0.960 . S
C1248 C1247 1.524 . S
C1249 C1246 1.403 . S
C1249 C1250 1.392 . S
C1249 C1253 1.495 . S
C1250 C1249 1.392 . S
C1250 C1251 1.385 . S
C1250 C1252 1.478 . S
C1251 H1245 0.930 . S
C1251 C1247 1.400 . S
C1251 C1250 1.385 . S
C1252 C1250 1.478 . S
C1252 C1254 1.381 . S
C1252 C1258 1.383 . S
C1253 C1249 1.495 . S
C1253 H1259 0.959 . S
C1253 H1260 0.961 . S
C1253 H1261 0.960 . S
C1254 C1252 1.381 . S
C1254 C1255 1.394 . S
C1254 H1262 0.930 . S
C1255 C1254 1.394 . S
C1255 C1256 1.383 . S
C1255 H1263 0.929 . S
C1256 C1255 1.383 . S
C1256 C1257 1.377 . S
C1257 H1241 0.930 . S
C1257 C1256 1.377 . S
C1257 C1258 1.379 . S
C1258 H1242 0.931 . S
C1258 C1252 1.383 . S
C1258 C1257 1.379 . S
H1259 C1253 0.959 . S
H1260 C1253 0.961 . S
H1261 C1253 0.960 . S
H1262 C1254 0.930 . S
H1263 C1255 0.929 . S
H1264 C1272 0.929 . S
H1265 C1274 0.930 . S
H1266 C1276 0.930 . S
H1267 C1279 0.929 . S
H1268 C1282 0.930 . S
H1269 C1284 0.960 . S
H1270 C1284 0.960 . S
H1271 C1284 0.960 . S
C1272 H1264 0.929 . S
C1272 C1273 1.377 . S
C1272 C1274 1.384 . S
C1273 C1272 1.377 . S
C1273 C1279 1.390 . S
C1274 H1265 0.930 . S
C1274 C1272 1.384 . S
C1274 C1275 1.372 . S
C1275 C1274 1.372 . S
C1275 C1276 1.400 . S
C1275 C1280 1.490 . S
C1276 H1266 0.930 . S
C1276 C1275 1.400 . S
C1276 C1279 1.386 . S
H1277 C1293 0.930 . S
H1278 C1294 0.931 . S
C1279 H1267 0.929 . S
C1279 C1273 1.390 . S
C1279 C1276 1.386 . S
C1280 C1275 1.490 . S
C1280 C1282 1.395 . S
C1280 C1283 1.403 . S
H1281 C1287 0.930 . S
C1282 H1268 0.930 . S
C1282 C1280 1.395 . S
C1282 C1285 1.403 . S
C1283 C1280 1.403 . S
C1283 C1284 1.524 . S
C1283 C1287 1.400 . S
C1284 H1269 0.960 . S
C1284 H1270 0.960 . S
C1284 H1271 0.960 . S
C1284 C1283 1.524 . S
C1285 C1282 1.403 . S
C1285 C1286 1.392 . S
C1285 C1289 1.495 . S
C1286 C1285 1.392 . S
C1286 C1287 1.385 . S
C1286 C1288 1.478 . S
C1287 H1281 0.930 . S
C1287 C1283 1.400 . S
C1287 C1286 1.385 . S
C1288 C1286 1.478 . S
C1288 C1290 1.381 . S
C1288 C1294 1.383 . S
C1289 C1285 1.495 . S
C1289 H1295 0.959 . S
C1289 H1296 0.961 . S
C1289 H1297 0.960 . S
C1290 C1288 1.381 . S
C1290 C1291 1.394 . S
C1290 H1298 0.930 . S
C1291 C1290 1.394 . S
C1291 C1292 1.383 . S
C1291 H1299 0.929 . S
C1292 C1291 1.383 . S
C1292 C1293 1.377 . S
C1293 H1277 0.930 . S
C1293 C1292 1.377 . S
C1293 C1294 1.379 . S
C1294 H1278 0.931 . S
C1294 C1288 1.383 . S
C1294 C1293 1.379 . S
H1295 C1289 0.959 . S
H1296 C1289 0.961 . S
H1297 C1289 0.960 . S
H1298 C1290 0.930 . S
H1299 C1291 0.929 . S
H1300 C1308 0.929 . S
H1301 C1310 0.930 . S
H1302 C1312 0.930 . S
H1303 C1315 0.929 . S
H1304 C1318 0.930 . S
H1305 C1320 0.960 . S
H1306 C1320 0.960 . S
H1307 C1320 0.960 . S
C1308 H1300 0.929 . S
C1308 C1309 1.377 . S
C1308 C1310 1.384 . S
C1309 C1308 1.377 . S
C1309 C1315 1.390 . S
C1310 H1301 0.930 . S
C1310 C1308 1.384 . S
C1310 C1311 1.372 . S
C1311 C1310 1.372 . S
C1311 C1312 1.400 . S
C1311 C1316 1.490 . S
C1312 H1302 0.930 . S
C1312 C1311 1.400 . S
C1312 C1315 1.386 . S
H1313 C1329 0.930 . S
H1314 C1330 0.931 . S
C1315 H1303 0.929 . S
C1315 C1309 1.390 . S
C1315 C1312 1.386 . S
C1316 C1311 1.490 . S
C1316 C1318 1.395 . S
C1316 C1319 1.403 . S
H1317 C1323 0.930 . S
C1318 H1304 0.930 . S
C1318 C1316 1.395 . S
C1318 C1321 1.403 . S
C1319 C1316 1.403 . S
C1319 C1320 1.524 . S
C1319 C1323 1.400 . S
C1320 H1305 0.960 . S
C1320 H1306 0.960 . S
C1320 H1307 0.960 . S
C1320 C1319 1.524 . S
C1321 C1318 1.403 . S
C1321 C1322 1.392 . S
C1321 C1325 1.495 . S
C1322 C1321 1.392 . S
C1322 C1323 1.385 . S
C1322 C1324 1.478 . S
C1323 H1317 0.930 . S
C1323 C1319 1.400 . S
C1323 C1322 1.385 . S
C1324 C1322 1.478 . S
C1324 C1326 1.381 . S
C1324 C1330 1.383 . S
C1325 C1321 1.495 . S
C1325 H1331 0.959 1_554 S
C1325 H1332 0.961 . S
C1325 H1333 0.960 1_554 S
C1326 C1324 1.381 . S
C1326 C1327 1.394 . S
C1326 H1334 0.930 . S
C1327 C1326 1.394 . S
C1327 C1328 1.383 . S
C1327 H1335 0.929 . S
C1328 C1327 1.383 . S
C1328 C1329 1.377 . S
C1329 H1313 0.930 . S
C1329 C1328 1.377 . S
C1329 C1330 1.379 . S
C1330 H1314 0.931 . S
C1330 C1324 1.383 . S
C1330 C1329 1.379 . S
H1331 C1325 0.959 1_556 S
H1332 C1325 0.961 . S
H1333 C1325 0.960 1_556 S
H1334 C1326 0.930 . S
H1335 C1327 0.929 . S
H1336 C1344 0.929 . S
H1337 C1346 0.930 . S
H1338 C1348 0.930 . S
H1339 C1351 0.929 . S
H1340 C1354 0.930 . S
H1341 C1356 0.960 . S
H1342 C1356 0.960 . S
H1343 C1356 0.960 . S
C1344 H1336 0.929 . S
C1344 C1345 1.377 . S
C1344 C1346 1.384 . S
C1345 C1344 1.377 . S
C1345 C1351 1.390 . S
C1346 H1337 0.930 . S
C1346 C1344 1.384 . S
C1346 C1347 1.372 . S
C1347 C1346 1.372 . S
C1347 C1348 1.400 . S
C1347 C1352 1.490 . S
C1348 H1338 0.930 . S
C1348 C1347 1.400 . S
C1348 C1351 1.386 . S
H1349 C1365 0.930 . S
H1350 C1366 0.931 . S
C1351 H1339 0.929 . S
C1351 C1345 1.390 . S
C1351 C1348 1.386 . S
C1352 C1347 1.490 . S
C1352 C1354 1.395 . S
C1352 C1355 1.403 . S
H1353 C1359 0.930 . S
C1354 H1340 0.930 . S
C1354 C1352 1.395 . S
C1354 C1357 1.403 . S
C1355 C1352 1.403 . S
C1355 C1356 1.524 . S
C1355 C1359 1.400 . S
C1356 H1341 0.960 . S
C1356 H1342 0.960 . S
C1356 H1343 0.960 . S
C1356 C1355 1.524 . S
C1357 C1354 1.403 . S
C1357 C1358 1.392 . S
C1357 C1361 1.495 . S
C1358 C1357 1.392 . S
C1358 C1359 1.385 . S
C1358 C1360 1.478 . S
C1359 H1353 0.930 . S
C1359 C1355 1.400 . S
C1359 C1358 1.385 . S
C1360 C1358 1.478 . S
C1360 C1362 1.381 . S
C1360 C1366 1.383 . S
C1361 C1357 1.495 . S
C1361 H1367 0.959 . S
C1361 H1368 0.961 . S
C1361 H1369 0.960 . S
C1362 C1360 1.381 . S
C1362 C1363 1.394 . S
C1362 H1370 0.930 . S
C1363 C1362 1.394 . S
C1363 C1364 1.383 . S
C1363 H1371 0.929 . S
C1364 C1363 1.383 . S
C1364 C1365 1.377 . S
C1365 H1349 0.930 . S
C1365 C1364 1.377 . S
C1365 C1366 1.379 . S
C1366 H1350 0.931 . S
C1366 C1360 1.383 . S
C1366 C1365 1.379 . S
H1367 C1361 0.959 . S
H1368 C1361 0.961 . S
H1369 C1361 0.960 . S
H1370 C1362 0.930 . S
H1371 C1363 0.929 . S
H1372 C1380 0.929 . S
H1373 C1382 0.930 . S
H1374 C1384 0.930 . S
H1375 C1387 0.929 . S
H1376 C1390 0.930 . S
H1377 C1392 0.960 . S
H1378 C1392 0.960 . S
H1379 C1392 0.960 . S
C1380 H1372 0.929 . S
C1380 C1381 1.377 . S
C1380 C1382 1.384 . S
C1381 C1380 1.377 . S
C1381 C1387 1.390 . S
C1382 H1373 0.930 . S
C1382 C1380 1.384 . S
C1382 C1383 1.372 . S
C1383 C1382 1.372 . S
C1383 C1384 1.400 . S
C1383 C1388 1.490 . S
C1384 H1374 0.930 . S
C1384 C1383 1.400 . S
C1384 C1387 1.386 . S
H1385 C1401 0.930 . S
H1386 C1402 0.931 . S
C1387 H1375 0.929 . S
C1387 C1381 1.390 . S
C1387 C1384 1.386 . S
C1388 C1383 1.490 . S
C1388 C1390 1.395 . S
C1388 C1391 1.403 . S
H1389 C1395 0.930 . S
C1390 H1376 0.930 . S
C1390 C1388 1.395 . S
C1390 C1393 1.403 . S
C1391 C1388 1.403 . S
C1391 C1392 1.524 . S
C1391 C1395 1.400 . S
C1392 H1377 0.960 . S
C1392 H1378 0.960 . S
C1392 H1379 0.960 . S
C1392 C1391 1.524 . S
C1393 C1390 1.403 . S
C1393 C1394 1.392 . S
C1393 C1397 1.495 . S
C1394 C1393 1.392 . S
C1394 C1395 1.385 . S
C1394 C1396 1.478 . S
C1395 H1389 0.930 . S
C1395 C1391 1.400 . S
C1395 C1394 1.385 . S
C1396 C1394 1.478 . S
C1396 C1398 1.381 . S
C1396 C1402 1.383 . S
C1397 C1393 1.495 . S
C1397 H1403 0.959 . S
C1397 H1404 0.961 . S
C1397 H1405 0.960 . S
C1398 C1396 1.381 . S
C1398 C1399 1.394 . S
C1398 H1406 0.930 . S
C1399 C1398 1.394 . S
C1399 C1400 1.383 . S
C1399 H1407 0.929 . S
C1400 C1399 1.383 . S
C1400 C1401 1.377 . S
C1401 H1385 0.930 . S
C1401 C1400 1.377 . S
C1401 C1402 1.379 . S
C1402 H1386 0.931 . S
C1402 C1396 1.383 . S
C1402 C1401 1.379 . S
H1403 C1397 0.959 . S
H1404 C1397 0.961 . S
H1405 C1397 0.960 . S
H1406 C1398 0.930 . S
H1407 C1399 0.929 . S
H1408 C1416 0.929 . S
H1409 C1418 0.930 . S
H1410 C1420 0.930 . S
H1411 C1423 0.929 . S
H1412 C1426 0.930 . S
H1413 C1428 0.960 . S
H1414 C1428 0.960 . S
H1415 C1428 0.960 . S
C1416 H1408 0.929 . S
C1416 C1417 1.377 . S
C1416 C1418 1.384 . S
C1417 C1416 1.377 . S
C1417 C1423 1.390 . S
C1418 H1409 0.930 . S
C1418 C1416 1.384 . S
C1418 C1419 1.372 . S
C1419 C1418 1.372 . S
C1419 C1420 1.400 . S
C1419 C1424 1.490 . S
C1420 H1410 0.930 . S
C1420 C1419 1.400 . S
C1420 C1423 1.386 . S
H1421 C1437 0.930 . S
H1422 C1438 0.931 . S
C1423 H1411 0.929 . S
C1423 C1417 1.390 . S
C1423 C1420 1.386 . S
C1424 C1419 1.490 . S
C1424 C1426 1.395 . S
C1424 C1427 1.403 . S
H1425 C1431 0.930 . S
C1426 H1412 0.930 . S
C1426 C1424 1.395 . S
C1426 C1429 1.403 . S
C1427 C1424 1.403 . S
C1427 C1428 1.524 . S
C1427 C1431 1.400 . S
C1428 H1413 0.960 . S
C1428 H1414 0.960 . S
C1428 H1415 0.960 . S
C1428 C1427 1.524 . S
C1429 C1426 1.403 . S
C1429 C1430 1.392 . S
C1429 C1433 1.495 . S
C1430 C1429 1.392 . S
C1430 C1431 1.385 . S
C1430 C1432 1.478 . S
C1431 H1425 0.930 . S
C1431 C1427 1.400 . S
C1431 C1430 1.385 . S
C1432 C1430 1.478 . S
C1432 C1434 1.381 . S
C1432 C1438 1.383 . S
C1433 C1429 1.495 . S
C1433 H1439 0.959 . S
C1433 H1440 0.961 . S
C1433 H1441 0.960 . S
C1434 C1432 1.381 . S
C1434 C1435 1.394 . S
C1434 H1442 0.930 . S
C1435 C1434 1.394 . S
C1435 C1436 1.383 . S
C1435 H1443 0.929 . S
C1436 C1435 1.383 . S
C1436 C1437 1.377 . S
C1437 H1421 0.930 . S
C1437 C1436 1.377 . S
C1437 C1438 1.379 . S
C1438 H1422 0.931 . S
C1438 C1432 1.383 . S
C1438 C1437 1.379 . S
H1439 C1433 0.959 . S
H1440 C1433 0.961 . S
H1441 C1433 0.960 . S
H1442 C1434 0.930 . S
H1443 C1435 0.929 . S
H1444 C1452 0.929 . S
H1445 C1454 0.930 . S
H1446 C1456 0.930 . S
H1447 C1459 0.929 . S
H1448 C1462 0.930 . S
H1449 C1464 0.960 . S
H1450 C1464 0.960 . S
H1451 C1464 0.960 . S
C1452 H1444 0.929 . S
C1452 C1453 1.377 . S
C1452 C1454 1.384 . S
C1453 C1452 1.377 . S
C1453 C1459 1.390 . S
C1454 H1445 0.930 . S
C1454 C1452 1.384 . S
C1454 C1455 1.372 . S
C1455 C1454 1.372 . S
C1455 C1456 1.400 . S
C1455 C1460 1.490 . S
C1456 H1446 0.930 . S
C1456 C1455 1.400 . S
C1456 C1459 1.386 . S
H1457 C1473 0.930 . S
H1458 C1474 0.931 . S
C1459 H1447 0.929 . S
C1459 C1453 1.390 . S
C1459 C1456 1.386 . S
C1460 C1455 1.490 . S
C1460 C1462 1.395 . S
C1460 C1463 1.403 . S
H1461 C1467 0.930 . S
C1462 H1448 0.930 . S
C1462 C1460 1.395 . S
C1462 C1465 1.403 . S
C1463 C1460 1.403 . S
C1463 C1464 1.524 . S
C1463 C1467 1.400 . S
C1464 H1449 0.960 . S
C1464 H1450 0.960 . S
C1464 H1451 0.960 . S
C1464 C1463 1.524 . S
C1465 C1462 1.403 . S
C1465 C1466 1.392 . S
C1465 C1469 1.495 . S
C1466 C1465 1.392 . S
C1466 C1467 1.385 . S
C1466 C1468 1.478 . S
C1467 H1461 0.930 . S
C1467 C1463 1.400 . S
C1467 C1466 1.385 . S
C1468 C1466 1.478 . S
C1468 C1470 1.381 . S
C1468 C1474 1.383 1_655 S
C1469 C1465 1.495 . S
C1469 H1475 0.959 . S
C1469 H1476 0.961 . S
C1469 H1477 0.960 . S
C1470 C1468 1.381 . S
C1470 C1471 1.394 1_655 S
C1470 H1478 0.930 . S
C1471 C1470 1.394 1_455 S
C1471 C1472 1.383 . S
C1471 H1479 0.929 . S
C1472 C1471 1.383 . S
C1472 C1473 1.377 . S
C1473 H1457 0.930 . S
C1473 C1472 1.377 . S
C1473 C1474 1.379 . S
C1474 H1458 0.931 . S
C1474 C1468 1.383 1_455 S
C1474 C1473 1.379 . S
H1475 C1469 0.959 . S
H1476 C1469 0.961 . S
H1477 C1469 0.960 . S
H1478 C1470 0.930 . S
H1479 C1471 0.929 . S
H1480 C1488 0.929 . S
H1481 C1490 0.930 . S
H1482 C1492 0.930 . S
H1483 C1495 0.929 . S
H1484 C1498 0.930 . S
H1485 C1500 0.960 . S
H1486 C1500 0.960 . S
H1487 C1500 0.960 . S
C1488 H1480 0.929 . S
C1488 C1489 1.377 . S
C1488 C1490 1.384 . S
C1489 C1488 1.377 . S
C1489 C1495 1.390 . S
C1490 H1481 0.930 . S
C1490 C1488 1.384 . S
C1490 C1491 1.372 . S
C1491 C1490 1.372 . S
C1491 C1492 1.400 . S
C1491 C1496 1.490 . S
C1492 H1482 0.930 . S
C1492 C1491 1.400 . S
C1492 C1495 1.386 . S
H1493 C1509 0.930 . S
H1494 C1510 0.931 . S
C1495 H1483 0.929 . S
C1495 C1489 1.390 . S
C1495 C1492 1.386 . S
C1496 C1491 1.490 . S
C1496 C1498 1.395 . S
C1496 C1499 1.403 . S
H1497 C1503 0.930 . S
C1498 H1484 0.930 . S
C1498 C1496 1.395 . S
C1498 C1501 1.403 . S
C1499 C1496 1.403 . S
C1499 C1500 1.524 . S
C1499 C1503 1.400 . S
C1500 H1485 0.960 . S
C1500 H1486 0.960 . S
C1500 H1487 0.960 . S
C1500 C1499 1.524 . S
C1501 C1498 1.403 . S
C1501 C1502 1.392 . S
C1501 C1505 1.495 . S
C1502 C1501 1.392 . S
C1502 C1503 1.385 . S
C1502 C1504 1.478 . S
C1503 H1497 0.930 . S
C1503 C1499 1.400 . S
C1503 C1502 1.385 . S
C1504 C1502 1.478 . S
C1504 C1506 1.381 . S
C1504 C1510 1.383 . S
C1505 C1501 1.495 . S
C1505 H1511 0.959 . S
C1505 H1512 0.961 . S
C1505 H1513 0.960 . S
C1506 C1504 1.381 . S
C1506 C1507 1.394 . S
C1506 H1514 0.930 . S
C1507 C1506 1.394 . S
C1507 C1508 1.383 . S
C1507 H1515 0.929 . S
C1508 C1507 1.383 . S
C1508 C1509 1.377 . S
C1509 H1493 0.930 . S
C1509 C1508 1.377 . S
C1509 C1510 1.379 . S
C1510 H1494 0.931 . S
C1510 C1504 1.383 . S
C1510 C1509 1.379 . S
H1511 C1505 0.959 . S
H1512 C1505 0.961 . S
H1513 C1505 0.960 . S
H1514 C1506 0.930 . S
H1515 C1507 0.929 . S
H1516 C1524 0.929 . S
H1517 C1526 0.930 . S
H1518 C1528 0.930 . S
H1519 C1531 0.929 . S
H1520 C1534 0.930 . S
H1521 C1536 0.960 . S
H1522 C1536 0.960 . S
H1523 C1536 0.960 . S
C1524 H1516 0.929 . S
C1524 C1525 1.377 . S
C1524 C1526 1.384 . S
C1525 C1524 1.377 . S
C1525 C1531 1.390 . S
C1526 H1517 0.930 . S
C1526 C1524 1.384 . S
C1526 C1527 1.372 . S
C1527 C1526 1.372 . S
C1527 C1528 1.400 . S
C1527 C1532 1.490 . S
C1528 H1518 0.930 . S
C1528 C1527 1.400 . S
C1528 C1531 1.386 . S
H1529 C1545 0.930 . S
H1530 C1546 0.931 . S
C1531 H1519 0.929 . S
C1531 C1525 1.390 . S
C1531 C1528 1.386 . S
C1532 C1527 1.490 . S
C1532 C1534 1.395 . S
C1532 C1535 1.403 . S
H1533 C1539 0.930 . S
C1534 H1520 0.930 . S
C1534 C1532 1.395 . S
C1534 C1537 1.403 . S
C1535 C1532 1.403 . S
C1535 C1536 1.524 . S
C1535 C1539 1.400 . S
C1536 H1521 0.960 . S
C1536 H1522 0.960 . S
C1536 H1523 0.960 . S
C1536 C1535 1.524 . S
C1537 C1534 1.403 . S
C1537 C1538 1.392 . S
C1537 C1541 1.495 . S
C1538 C1537 1.392 . S
C1538 C1539 1.385 . S
C1538 C1540 1.478 . S
C1539 H1533 0.930 . S
C1539 C1535 1.400 . S
C1539 C1538 1.385 . S
C1540 C1538 1.478 . S
C1540 C1542 1.381 . S
C1540 C1546 1.383 . S
C1541 C1537 1.495 . S
C1541 H1547 0.959 . S
C1541 H1548 0.961 . S
C1541 H1549 0.960 . S
C1542 C1540 1.381 . S
C1542 C1543 1.394 . S
C1542 H1550 0.930 . S
C1543 C1542 1.394 . S
C1543 C1544 1.383 . S
C1543 H1551 0.929 . S
C1544 C1543 1.383 . S
C1544 C1545 1.377 . S
C1545 H1529 0.930 . S
C1545 C1544 1.377 . S
C1545 C1546 1.379 . S
C1546 H1530 0.931 . S
C1546 C1540 1.383 . S
C1546 C1545 1.379 . S
H1547 C1541 0.959 . S
H1548 C1541 0.961 . S
H1549 C1541 0.960 . S
H1550 C1542 0.930 . S
H1551 C1543 0.929 . S
H1552 C1560 0.929 . S
H1553 C1562 0.930 . S
H1554 C1564 0.930 . S
H1555 C1567 0.929 . S
H1556 C1570 0.930 . S
H1557 C1572 0.960 . S
H1558 C1572 0.960 . S
H1559 C1572 0.960 . S
C1560 H1552 0.929 . S
C1560 C1561 1.377 . S
C1560 C1562 1.384 . S
C1561 C1560 1.377 . S
C1561 C1567 1.390 . S
C1562 H1553 0.930 . S
C1562 C1560 1.384 . S
C1562 C1563 1.372 . S
C1563 C1562 1.372 . S
C1563 C1564 1.400 . S
C1563 C1568 1.490 . S
C1564 H1554 0.930 . S
C1564 C1563 1.400 . S
C1564 C1567 1.386 . S
H1565 C1581 0.930 . S
H1566 C1582 0.931 . S
C1567 H1555 0.929 . S
C1567 C1561 1.390 . S
C1567 C1564 1.386 . S
C1568 C1563 1.490 . S
C1568 C1570 1.395 . S
C1568 C1571 1.403 . S
H1569 C1575 0.930 . S
C1570 H1556 0.930 . S
C1570 C1568 1.395 . S
C1570 C1573 1.403 . S
C1571 C1568 1.403 . S
C1571 C1572 1.524 . S
C1571 C1575 1.400 . S
C1572 H1557 0.960 . S
C1572 H1558 0.960 . S
C1572 H1559 0.960 . S
C1572 C1571 1.524 . S
C1573 C1570 1.403 . S
C1573 C1574 1.392 . S
C1573 C1577 1.495 . S
C1574 C1573 1.392 . S
C1574 C1575 1.385 . S
C1574 C1576 1.478 . S
C1575 H1569 0.930 . S
C1575 C1571 1.400 . S
C1575 C1574 1.385 . S
C1576 C1574 1.478 . S
C1576 C1578 1.381 . S
C1576 C1582 1.383 . S
C1577 C1573 1.495 . S
C1577 H1583 0.959 . S
C1577 H1584 0.961 . S
C1577 H1585 0.960 . S
C1578 C1576 1.381 . S
C1578 C1579 1.394 . S
C1578 H1586 0.930 . S
C1579 C1578 1.394 . S
C1579 C1580 1.383 . S
C1579 H1587 0.929 . S
C1580 C1579 1.383 . S
C1580 C1581 1.377 . S
C1581 H1565 0.930 . S
C1581 C1580 1.377 . S
C1581 C1582 1.379 . S
C1582 H1566 0.931 . S
C1582 C1576 1.383 . S
C1582 C1581 1.379 . S
H1583 C1577 0.959 . S
H1584 C1577 0.961 . S
H1585 C1577 0.960 . S
H1586 C1578 0.930 . S
H1587 C1579 0.929 . S
H1588 C1596 0.929 . S
H1589 C1598 0.930 . S
H1590 C1600 0.930 . S
H1591 C1603 0.929 . S
H1592 C1606 0.930 . S
H1593 C1608 0.960 . S
H1594 C1608 0.960 . S
H1595 C1608 0.960 . S
C1596 H1588 0.929 . S
C1596 C1597 1.377 . S
C1596 C1598 1.384 . S
C1597 C1596 1.377 . S
C1597 C1603 1.390 . S
C1598 H1589 0.930 . S
C1598 C1596 1.384 . S
C1598 C1599 1.372 . S
C1599 C1598 1.372 . S
C1599 C1600 1.400 . S
C1599 C1604 1.490 . S
C1600 H1590 0.930 . S
C1600 C1599 1.400 . S
C1600 C1603 1.386 . S
H1601 C1617 0.930 . S
H1602 C1618 0.931 . S
C1603 H1591 0.929 . S
C1603 C1597 1.390 . S
C1603 C1600 1.386 . S
C1604 C1599 1.490 . S
C1604 C1606 1.395 . S
C1604 C1607 1.403 . S
H1605 C1611 0.930 . S
C1606 H1592 0.930 . S
C1606 C1604 1.395 . S
C1606 C1609 1.403 . S
C1607 C1604 1.403 . S
C1607 C1608 1.524 . S
C1607 C1611 1.400 . S
C1608 H1593 0.960 . S
C1608 H1594 0.960 . S
C1608 H1595 0.960 . S
C1608 C1607 1.524 . S
C1609 C1606 1.403 . S
C1609 C1610 1.392 . S
C1609 C1613 1.495 . S
C1610 C1609 1.392 . S
C1610 C1611 1.385 . S
C1610 C1612 1.478 . S
C1611 H1605 0.930 . S
C1611 C1607 1.400 . S
C1611 C1610 1.385 . S
C1612 C1610 1.478 . S
C1612 C1614 1.381 . S
C1612 C1618 1.383 . S
C1613 C1609 1.495 . S
C1613 H1619 0.959 . S
C1613 H1620 0.961 . S
C1613 H1621 0.960 . S
C1614 C1612 1.381 . S
C1614 C1615 1.394 . S
C1614 H1622 0.930 . S
C1615 C1614 1.394 . S
C1615 C1616 1.383 . S
C1615 H1623 0.929 . S
C1616 C1615 1.383 . S
C1616 C1617 1.377 . S
C1617 H1601 0.930 . S
C1617 C1616 1.377 . S
C1617 C1618 1.379 . S
C1618 H1602 0.931 . S
C1618 C1612 1.383 . S
C1618 C1617 1.379 . S
H1619 C1613 0.959 . S
H1620 C1613 0.961 . S
H1621 C1613 0.960 . S
H1622 C1614 0.930 . S
H1623 C1615 0.929 . S
H1624 C1632 0.929 . S
H1625 C1634 0.930 . S
H1626 C1636 0.930 . S
H1627 C1639 0.929 . S
H1628 C1642 0.930 . S
H1629 C1644 0.960 . S
H1630 C1644 0.960 . S
H1631 C1644 0.960 . S
C1632 H1624 0.929 . S
C1632 C1633 1.377 . S
C1632 C1634 1.384 . S
C1633 C1632 1.377 . S
C1633 C1639 1.390 . S
C1634 H1625 0.930 . S
C1634 C1632 1.384 . S
C1634 C1635 1.372 . S
C1635 C1634 1.372 . S
C1635 C1636 1.400 . S
C1635 C1640 1.490 . S
C1636 H1626 0.930 . S
C1636 C1635 1.400 . S
C1636 C1639 1.386 . S
H1637 C1653 0.930 . S
H1638 C1654 0.931 . S
C1639 H1627 0.929 . S
C1639 C1633 1.390 . S
C1639 C1636 1.386 . S
C1640 C1635 1.490 . S
C1640 C1642 1.395 . S
C1640 C1643 1.403 . S
H1641 C1647 0.930 . S
C1642 H1628 0.930 . S
C1642 C1640 1.395 . S
C1642 C1645 1.403 . S
C1643 C1640 1.403 . S
C1643 C1644 1.524 . S
C1643 C1647 1.400 . S
C1644 H1629 0.960 . S
C1644 H1630 0.960 . S
C1644 H1631 0.960 . S
C1644 C1643 1.524 . S
C1645 C1642 1.403 . S
C1645 C1646 1.392 . S
C1645 C1649 1.495 . S
C1646 C1645 1.392 . S
C1646 C1647 1.385 . S
C1646 C1648 1.478 . S
C1647 H1641 0.930 . S
C1647 C1643 1.400 . S
C1647 C1646 1.385 . S
C1648 C1646 1.478 . S
C1648 C1650 1.381 1_554 S
C1648 C1654 1.383 . S
C1649 C1645 1.495 . S
C1649 H1655 0.959 . S
C1649 H1656 0.961 . S
C1649 H1657 0.960 . S
C1650 C1648 1.381 1_556 S
C1650 C1651 1.394 . S
C1650 H1658 0.930 . S
C1651 C1650 1.394 . S
C1651 C1652 1.383 . S
C1651 H1659 0.929 . S
C1652 C1651 1.383 . S
C1652 C1653 1.377 . S
C1653 H1637 0.930 . S
C1653 C1652 1.377 . S
C1653 C1654 1.379 1_556 S
C1654 H1638 0.931 . S
C1654 C1648 1.383 . S
C1654 C1653 1.379 1_554 S
H1655 C1649 0.959 . S
H1656 C1649 0.961 . S
H1657 C1649 0.960 . S
H1658 C1650 0.930 . S
H1659 C1651 0.929 . S
H1660 C1668 0.929 . S
H1661 C1670 0.930 . S
H1662 C1672 0.930 . S
H1663 C1675 0.929 . S
H1664 C1678 0.930 . S
H1665 C1680 0.960 . S
H1666 C1680 0.960 . S
H1667 C1680 0.960 . S
C1668 H1660 0.929 . S
C1668 C1669 1.377 . S
C1668 C1670 1.384 . S
C1669 C1668 1.377 . S
C1669 C1675 1.390 . S
C1670 H1661 0.930 . S
C1670 C1668 1.384 . S
C1670 C1671 1.372 . S
C1671 C1670 1.372 . S
C1671 C1672 1.400 . S
C1671 C1676 1.490 . S
C1672 H1662 0.930 . S
C1672 C1671 1.400 . S
C1672 C1675 1.386 . S
H1673 C1689 0.930 . S
H1674 C1690 0.931 . S
C1675 H1663 0.929 . S
C1675 C1669 1.390 . S
C1675 C1672 1.386 . S
C1676 C1671 1.490 . S
C1676 C1678 1.395 . S
C1676 C1679 1.403 . S
H1677 C1683 0.930 . S
C1678 H1664 0.930 . S
C1678 C1676 1.395 . S
C1678 C1681 1.403 . S
C1679 C1676 1.403 . S
C1679 C1680 1.524 . S
C1679 C1683 1.400 . S
C1680 H1665 0.960 . S
C1680 H1666 0.960 . S
C1680 H1667 0.960 . S
C1680 C1679 1.524 . S
C1681 C1678 1.403 . S
C1681 C1682 1.392 . S
C1681 C1685 1.495 . S
C1682 C1681 1.392 . S
C1682 C1683 1.385 . S
C1682 C1684 1.478 . S
C1683 H1677 0.930 . S
C1683 C1679 1.400 . S
C1683 C1682 1.385 . S
C1684 C1682 1.478 . S
C1684 C1686 1.381 . S
C1684 C1690 1.383 . S
C1685 C1681 1.495 . S
C1685 H1691 0.959 . S
C1685 H1692 0.961 . S
C1685 H1693 0.960 . S
C1686 C1684 1.381 . S
C1686 C1687 1.394 . S
C1686 H1694 0.930 . S
C1687 C1686 1.394 . S
C1687 C1688 1.383 . S
C1687 H1695 0.929 . S
C1688 C1687 1.383 . S
C1688 C1689 1.377 . S
C1689 H1673 0.930 . S
C1689 C1688 1.377 . S
C1689 C1690 1.379 . S
C1690 H1674 0.931 . S
C1690 C1684 1.383 . S
C1690 C1689 1.379 . S
H1691 C1685 0.959 . S
H1692 C1685 0.961 . S
H1693 C1685 0.960 . S
H1694 C1686 0.930 . S
H1695 C1687 0.929 . S
H1696 C1704 0.929 . S
H1697 C1706 0.930 . S
H1698 C1708 0.930 . S
H1699 C1711 0.929 . S
H1700 C1714 0.930 . S
H1701 C1716 0.960 . S
H1702 C1716 0.960 . S
H1703 C1716 0.960 . S
C1704 H1696 0.929 . S
C1704 C1705 1.377 . S
C1704 C1706 1.384 . S
C1705 C1704 1.377 . S
C1705 C1711 1.390 . S
C1706 H1697 0.930 . S
C1706 C1704 1.384 . S
C1706 C1707 1.372 . S
C1707 C1706 1.372 . S
C1707 C1708 1.400 . S
C1707 C1712 1.490 . S
C1708 H1698 0.930 . S
C1708 C1707 1.400 . S
C1708 C1711 1.386 . S
H1709 C1725 0.930 . S
H1710 C1726 0.931 . S
C1711 H1699 0.929 . S
C1711 C1705 1.390 . S
C1711 C1708 1.386 . S
C1712 C1707 1.490 . S
C1712 C1714 1.395 . S
C1712 C1715 1.403 . S
H1713 C1719 0.930 . S
C1714 H1700 0.930 . S
C1714 C1712 1.395 . S
C1714 C1717 1.403 . S
C1715 C1712 1.403 . S
C1715 C1716 1.524 . S
C1715 C1719 1.400 . S
C1716 H1701 0.960 . S
C1716 H1702 0.960 . S
C1716 H1703 0.960 . S
C1716 C1715 1.524 . S
C1717 C1714 1.403 . S
C1717 C1718 1.392 . S
C1717 C1721 1.495 . S
C1718 C1717 1.392 . S
C1718 C1719 1.385 . S
C1718 C1720 1.478 . S
C1719 H1713 0.930 . S
C1719 C1715 1.400 . S
C1719 C1718 1.385 . S
C1720 C1718 1.478 . S
C1720 C1722 1.381 1_554 S
C1720 C1726 1.383 1_554 S
C1721 C1717 1.495 . S
C1721 H1727 0.959 . S
C1721 H1728 0.961 1_554 S
C1721 H1729 0.960 . S
C1722 C1720 1.381 1_556 S
C1722 C1723 1.394 . S
C1722 H1730 0.930 1_556 S
C1723 C1722 1.394 . S
C1723 C1724 1.383 . S
C1723 H1731 0.929 . S
C1724 C1723 1.383 . S
C1724 C1725 1.377 . S
C1725 H1709 0.930 . S
C1725 C1724 1.377 . S
C1725 C1726 1.379 . S
C1726 H1710 0.931 . S
C1726 C1720 1.383 1_556 S
C1726 C1725 1.379 . S
H1727 C1721 0.959 . S
H1728 C1721 0.961 1_556 S
H1729 C1721 0.960 . S
H1730 C1722 0.930 1_554 S
H1731 C1723 0.929 . S
H1732 C1740 0.929 . S
H1733 C1742 0.930 . S
H1734 C1744 0.930 . S
H1735 C1747 0.929 . S
H1736 C1750 0.930 . S
H1737 C1752 0.960 . S
H1738 C1752 0.960 . S
H1739 C1752 0.960 . S
C1740 H1732 0.929 . S
C1740 C1741 1.377 . S
C1740 C1742 1.384 . S
C1741 C1740 1.377 . S
C1741 C1747 1.390 . S
C1742 H1733 0.930 . S
C1742 C1740 1.384 . S
C1742 C1743 1.372 . S
C1743 C1742 1.372 . S
C1743 C1744 1.400 . S
C1743 C1748 1.490 . S
C1744 H1734 0.930 . S
C1744 C1743 1.400 . S
C1744 C1747 1.386 . S
H1745 C1761 0.930 . S
H1746 C1762 0.931 . S
C1747 H1735 0.929 . S
C1747 C1741 1.390 . S
C1747 C1744 1.386 . S
C1748 C1743 1.490 . S
C1748 C1750 1.395 . S
C1748 C1751 1.403 . S
H1749 C1755 0.930 . S
C1750 H1736 0.930 . S
C1750 C1748 1.395 . S
C1750 C1753 1.403 . S
C1751 C1748 1.403 . S
C1751 C1752 1.524 . S
C1751 C1755 1.400 . S
C1752 H1737 0.960 . S
C1752 H1738 0.960 . S
C1752 H1739 0.960 . S
C1752 C1751 1.524 . S
C1753 C1750 1.403 . S
C1753 C1754 1.392 . S
C1753 C1757 1.495 . S
C1754 C1753 1.392 . S
C1754 C1755 1.385 . S
C1754 C1756 1.478 . S
C1755 H1749 0.930 . S
C1755 C1751 1.400 . S
C1755 C1754 1.385 . S
C1756 C1754 1.478 . S
C1756 C1758 1.381 . S
C1756 C1762 1.383 . S
C1757 C1753 1.495 . S
C1757 H1763 0.959 . S
C1757 H1764 0.961 . S
C1757 H1765 0.960 . S
C1758 C1756 1.381 . S
C1758 C1759 1.394 . S
C1758 H1766 0.930 . S
C1759 C1758 1.394 . S
C1759 C1760 1.383 . S
C1759 H1767 0.929 . S
C1760 C1759 1.383 . S
C1760 C1761 1.377 . S
C1761 H1745 0.930 . S
C1761 C1760 1.377 . S
C1761 C1762 1.379 . S
C1762 H1746 0.931 . S
C1762 C1756 1.383 . S
C1762 C1761 1.379 . S
H1763 C1757 0.959 . S
H1764 C1757 0.961 . S
H1765 C1757 0.960 . S
H1766 C1758 0.930 . S
H1767 C1759 0.929 . S
H1768 C1776 0.929 . S
H1769 C1778 0.930 . S
H1770 C1780 0.930 . S
H1771 C1783 0.929 . S
H1772 C1786 0.930 . S
H1773 C1788 0.960 . S
H1774 C1788 0.960 . S
H1775 C1788 0.960 . S
C1776 H1768 0.929 . S
C1776 C1777 1.377 . S
C1776 C1778 1.384 . S
C1777 C1776 1.377 . S
C1777 C1783 1.390 . S
C1778 H1769 0.930 . S
C1778 C1776 1.384 . S
C1778 C1779 1.372 . S
C1779 C1778 1.372 . S
C1779 C1780 1.400 . S
C1779 C1784 1.490 . S
C1780 H1770 0.930 . S
C1780 C1779 1.400 . S
C1780 C1783 1.386 . S
H1781 C1797 0.930 . S
H1782 C1798 0.931 1_556 S
C1783 H1771 0.929 . S
C1783 C1777 1.390 . S
C1783 C1780 1.386 . S
C1784 C1779 1.490 . S
C1784 C1786 1.395 . S
C1784 C1787 1.403 . S
H1785 C1791 0.930 . S
C1786 H1772 0.930 . S
C1786 C1784 1.395 . S
C1786 C1789 1.403 . S
C1787 C1784 1.403 . S
C1787 C1788 1.524 . S
C1787 C1791 1.400 . S
C1788 H1773 0.960 . S
C1788 H1774 0.960 . S
C1788 H1775 0.960 . S
C1788 C1787 1.524 . S
C1789 C1786 1.403 . S
C1789 C1790 1.392 . S
C1789 C1793 1.495 . S
C1790 C1789 1.392 . S
C1790 C1791 1.385 . S
C1790 C1792 1.478 . S
C1791 H1785 0.930 . S
C1791 C1787 1.400 . S
C1791 C1790 1.385 . S
C1792 C1790 1.478 . S
C1792 C1794 1.381 1_556 S
C1792 C1798 1.383 1_556 S
C1793 C1789 1.495 . S
C1793 H1799 0.959 . S
C1793 H1800 0.961 . S
C1793 H1801 0.960 . S
C1794 C1792 1.381 1_554 S
C1794 C1795 1.394 . S
C1794 H1802 0.930 . S
C1795 C1794 1.394 . S
C1795 C1796 1.383 . S
C1795 H1803 0.929 . S
C1796 C1795 1.383 . S
C1796 C1797 1.377 . S
C1797 H1781 0.930 . S
C1797 C1796 1.377 . S
C1797 C1798 1.379 . S
C1798 H1782 0.931 1_554 S
C1798 C1792 1.383 1_554 S
C1798 C1797 1.379 . S
H1799 C1793 0.959 . S
H1800 C1793 0.961 . S
H1801 C1793 0.960 . S
H1802 C1794 0.930 . S
H1803 C1795 0.929 . S
H1804 C1812 0.929 . S
H1805 C1814 0.930 . S
H1806 C1816 0.930 . S
H1807 C1819 0.929 . S
H1808 C1822 0.930 . S
H1809 C1824 0.960 . S
H1810 C1824 0.960 . S
H1811 C1824 0.960 . S
C1812 H1804 0.929 . S
C1812 C1813 1.377 . S
C1812 C1814 1.384 . S
C1813 C1812 1.377 . S
C1813 C1819 1.390 . S
C1814 H1805 0.930 . S
C1814 C1812 1.384 . S
C1814 C1815 1.372 . S
C1815 C1814 1.372 . S
C1815 C1816 1.400 . S
C1815 C1820 1.490 . S
C1816 H1806 0.930 . S
C1816 C1815 1.400 . S
C1816 C1819 1.386 . S
H1817 C1833 0.930 . S
H1818 C1834 0.931 . S
C1819 H1807 0.929 . S
C1819 C1813 1.390 . S
C1819 C1816 1.386 . S
C1820 C1815 1.490 . S
C1820 C1822 1.395 . S
C1820 C1823 1.403 . S
H1821 C1827 0.930 . S
C1822 H1808 0.930 . S
C1822 C1820 1.395 . S
C1822 C1825 1.403 . S
C1823 C1820 1.403 . S
C1823 C1824 1.524 . S
C1823 C1827 1.400 . S
C1824 H1809 0.960 . S
C1824 H1810 0.960 . S
C1824 H1811 0.960 . S
C1824 C1823 1.524 . S
C1825 C1822 1.403 . S
C1825 C1826 1.392 . S
C1825 C1829 1.495 . S
C1826 C1825 1.392 . S
C1826 C1827 1.385 . S
C1826 C1828 1.478 . S
C1827 H1821 0.930 . S
C1827 C1823 1.400 . S
C1827 C1826 1.385 . S
C1828 C1826 1.478 . S
C1828 C1830 1.381 . S
C1828 C1834 1.383 . S
C1829 C1825 1.495 . S
C1829 H1835 0.959 . S
C1829 H1836 0.961 . S
C1829 H1837 0.960 . S
C1830 C1828 1.381 . S
C1830 C1831 1.394 . S
C1830 H1838 0.930 . S
C1831 C1830 1.394 . S
C1831 C1832 1.383 . S
C1831 H1839 0.929 . S
C1832 C1831 1.383 . S
C1832 C1833 1.377 . S
C1833 H1817 0.930 . S
C1833 C1832 1.377 . S
C1833 C1834 1.379 . S
C1834 H1818 0.931 . S
C1834 C1828 1.383 . S
C1834 C1833 1.379 . S
H1835 C1829 0.959 . S
H1836 C1829 0.961 . S
H1837 C1829 0.960 . S
H1838 C1830 0.930 . S
H1839 C1831 0.929 . S
H1840 C1848 0.929 . S
H1841 C1850 0.930 . S
H1842 C1852 0.930 . S
H1843 C1855 0.929 . S
H1844 C1858 0.930 . S
H1845 C1860 0.960 . S
H1846 C1860 0.960 . S
H1847 C1860 0.960 . S
C1848 H1840 0.929 . S
C1848 C1849 1.377 . S
C1848 C1850 1.384 . S
C1849 C1848 1.377 . S
C1849 C1855 1.390 . S
C1850 H1841 0.930 . S
C1850 C1848 1.384 . S
C1850 C1851 1.372 . S
C1851 C1850 1.372 . S
C1851 C1852 1.400 . S
C1851 C1856 1.490 . S
C1852 H1842 0.930 . S
C1852 C1851 1.400 . S
C1852 C1855 1.386 . S
H1853 C1869 0.930 . S
H1854 C1870 0.929 1_556 S
C1855 H1843 0.929 . S
C1855 C1849 1.390 . S
C1855 C1852 1.386 . S
C1856 C1851 1.490 . S
C1856 C1858 1.395 . S
C1856 C1859 1.403 . S
H1857 C1863 0.930 . S
C1858 H1844 0.930 . S
C1858 C1856 1.395 . S
C1858 C1861 1.403 . S
C1859 C1856 1.403 . S
C1859 C1860 1.524 . S
C1859 C1863 1.400 . S
C1860 H1845 0.960 . S
C1860 H1846 0.960 . S
C1860 H1847 0.960 . S
C1860 C1859 1.524 . S
C1861 C1858 1.403 . S
C1861 C1862 1.392 . S
C1861 C1865 1.495 . S
C1862 C1861 1.392 . S
C1862 C1863 1.385 . S
C1862 C1864 1.478 . S
C1863 H1857 0.930 . S
C1863 C1859 1.400 . S
C1863 C1862 1.385 . S
C1864 C1862 1.478 . S
C1864 C1866 1.380 . S
C1864 C1870 1.383 1_556 S
C1865 C1861 1.495 . S
C1865 H1871 0.959 . S
C1865 H1872 0.965 . S
C1865 H1873 0.960 . S
C1866 C1864 1.380 . S
C1866 C1867 1.397 1_556 S
C1866 H1874 0.929 . S
C1867 C1866 1.397 1_554 S
C1867 C1868 1.383 . S
C1867 H1875 0.929 . S
C1868 C1867 1.383 . S
C1868 C1869 1.377 . S
C1869 H1853 0.930 . S
C1869 C1868 1.377 . S
C1869 C1870 1.379 . S
C1870 H1854 0.929 1_554 S
C1870 C1864 1.383 1_554 S
C1870 C1869 1.379 . S
H1871 C1865 0.959 . S
H1872 C1865 0.965 . S
H1873 C1865 0.960 . S
H1874 C1866 0.929 . S
H1875 C1867 0.929 . S
H1876 C1884 0.929 . S
H1877 C1886 0.930 . S
H1878 C1888 0.930 . S
H1879 C1891 0.929 . S
H1880 C1894 0.930 . S
H1881 C1896 0.960 . S
H1882 C1896 0.960 . S
H1883 C1896 0.960 . S
C1884 H1876 0.929 . S
C1884 C1885 1.377 . S
C1884 C1886 1.384 . S
C1885 C1884 1.377 . S
C1885 C1891 1.390 . S
C1886 H1877 0.930 . S
C1886 C1884 1.384 . S
C1886 C1887 1.372 . S
C1887 C1886 1.372 . S
C1887 C1888 1.400 . S
C1887 C1892 1.490 . S
C1888 H1878 0.930 . S
C1888 C1887 1.400 . S
C1888 C1891 1.386 . S
H1889 C1905 0.930 . S
H1890 C1906 0.931 . S
C1891 H1879 0.929 . S
C1891 C1885 1.390 . S
C1891 C1888 1.386 . S
C1892 C1887 1.490 . S
C1892 C1894 1.395 . S
C1892 C1895 1.403 . S
H1893 C1899 0.930 . S
C1894 H1880 0.930 . S
C1894 C1892 1.395 . S
C1894 C1897 1.403 . S
C1895 C1892 1.403 . S
C1895 C1896 1.524 . S
C1895 C1899 1.400 . S
C1896 H1881 0.960 . S
C1896 H1882 0.960 . S
C1896 H1883 0.960 . S
C1896 C1895 1.524 . S
C1897 C1894 1.403 . S
C1897 C1898 1.392 . S
C1897 C1901 1.495 . S
C1898 C1897 1.392 . S
C1898 C1899 1.385 . S
C1898 C1900 1.478 . S
C1899 H1893 0.930 . S
C1899 C1895 1.400 . S
C1899 C1898 1.385 . S
C1900 C1898 1.478 . S
C1900 C1902 1.381 . S
C1900 C1906 1.383 . S
C1901 C1897 1.495 . S
C1901 H1907 0.959 . S
C1901 H1908 0.961 . S
C1901 H1909 0.960 . S
C1902 C1900 1.381 . S
C1902 C1903 1.394 . S
C1902 H1910 0.930 . S
C1903 C1902 1.394 . S
C1903 C1904 1.383 . S
C1903 H1911 0.929 . S
C1904 C1903 1.383 . S
C1904 C1905 1.377 . S
C1905 H1889 0.930 . S
C1905 C1904 1.377 . S
C1905 C1906 1.379 . S
C1906 H1890 0.931 . S
C1906 C1900 1.383 . S
C1906 C1905 1.379 . S
H1907 C1901 0.959 . S
H1908 C1901 0.961 . S
H1909 C1901 0.960 . S
H1910 C1902 0.930 . S
H1911 C1903 0.929 . S
H1912 C1920 0.929 . S
H1913 C1922 0.930 . S
H1914 C1924 0.930 . S
H1915 C1927 0.929 . S
H1916 C1930 0.930 . S
H1917 C1932 0.960 . S
H1918 C1932 0.960 . S
H1919 C1932 0.960 . S
C1920 H1912 0.929 . S
C1920 C1921 1.377 . S
C1920 C1922 1.384 . S
C1921 C1920 1.377 . S
C1921 C1927 1.390 . S
C1922 H1913 0.930 . S
C1922 C1920 1.384 . S
C1922 C1923 1.372 . S
C1923 C1922 1.372 . S
C1923 C1924 1.400 . S
C1923 C1928 1.490 . S
C1924 H1914 0.930 . S
C1924 C1923 1.400 . S
C1924 C1927 1.386 . S
H1925 C1941 0.930 . S
H1926 C1942 0.931 . S
C1927 H1915 0.929 . S
C1927 C1921 1.390 . S
C1927 C1924 1.386 . S
C1928 C1923 1.490 . S
C1928 C1930 1.395 . S
C1928 C1931 1.403 . S
H1929 C1935 0.930 . S
C1930 H1916 0.930 . S
C1930 C1928 1.395 . S
C1930 C1933 1.403 . S
C1931 C1928 1.403 . S
C1931 C1932 1.524 . S
C1931 C1935 1.400 . S
C1932 H1917 0.960 . S
C1932 H1918 0.960 . S
C1932 H1919 0.960 . S
C1932 C1931 1.524 . S
C1933 C1930 1.403 . S
C1933 C1934 1.392 . S
C1933 C1937 1.495 . S
C1934 C1933 1.392 . S
C1934 C1935 1.385 . S
C1934 C1936 1.478 . S
C1935 H1929 0.930 . S
C1935 C1931 1.400 . S
C1935 C1934 1.385 . S
C1936 C1934 1.478 . S
C1936 C1938 1.381 . S
C1936 C1942 1.383 . S
C1937 C1933 1.495 . S
C1937 H1943 0.959 . S
C1937 H1944 0.961 . S
C1937 H1945 0.960 . S
C1938 C1936 1.381 . S
C1938 C1939 1.394 . S
C1938 H1946 0.930 . S
C1939 C1938 1.394 . S
C1939 C1940 1.383 . S
C1939 H1947 0.929 . S
C1940 C1939 1.383 . S
C1940 C1941 1.377 . S
C1941 H1925 0.930 . S
C1941 C1940 1.377 . S
C1941 C1942 1.379 . S
C1942 H1926 0.931 . S
C1942 C1936 1.383 . S
C1942 C1941 1.379 . S
H1943 C1937 0.959 . S
H1944 C1937 0.961 . S
H1945 C1937 0.960 . S
H1946 C1938 0.930 . S
H1947 C1939 0.929 . S
H1948 C1956 0.929 . S
H1949 C1958 0.930 . S
H1950 C1960 0.930 . S
H1951 C1963 0.929 . S
H1952 C1966 0.930 . S
H1953 C1968 0.960 . S
H1954 C1968 0.960 . S
H1955 C1968 0.960 . S
C1956 H1948 0.929 . S
C1956 C1957 1.377 . S
C1956 C1958 1.384 . S
C1957 C1956 1.377 . S
C1957 C1963 1.390 . S
C1958 H1949 0.930 . S
C1958 C1956 1.384 . S
C1958 C1959 1.372 . S
C1959 C1958 1.372 . S
C1959 C1960 1.400 . S
C1959 C1964 1.490 . S
C1960 H1950 0.930 . S
C1960 C1959 1.400 . S
C1960 C1963 1.386 . S
H1961 C1977 0.930 . S
H1962 C1978 0.931 . S
C1963 H1951 0.929 . S
C1963 C1957 1.390 . S
C1963 C1960 1.386 . S
C1964 C1959 1.490 . S
C1964 C1966 1.395 . S
C1964 C1967 1.403 . S
H1965 C1971 0.930 . S
C1966 H1952 0.930 . S
C1966 C1964 1.395 . S
C1966 C1969 1.403 . S
C1967 C1964 1.403 . S
C1967 C1968 1.524 . S
C1967 C1971 1.400 . S
C1968 H1953 0.960 . S
C1968 H1954 0.960 . S
C1968 H1955 0.960 . S
C1968 C1967 1.524 . S
C1969 C1966 1.403 . S
C1969 C1970 1.392 . S
C1969 C1973 1.495 . S
C1970 C1969 1.392 . S
C1970 C1971 1.385 . S
C1970 C1972 1.478 . S
C1971 H1965 0.930 . S
C1971 C1967 1.400 . S
C1971 C1970 1.385 . S
C1972 C1970 1.478 . S
C1972 C1974 1.381 . S
C1972 C1978 1.383 . S
C1973 C1969 1.495 . S
C1973 H1979 0.959 1_565 S
C1973 H1980 0.961 . S
C1973 H1981 0.960 1_565 S
C1974 C1972 1.381 . S
C1974 C1975 1.394 . S
C1974 H1982 0.930 . S
C1975 C1974 1.394 . S
C1975 C1976 1.383 . S
C1975 H1983 0.929 . S
C1976 C1975 1.383 . S
C1976 C1977 1.377 . S
C1977 H1961 0.930 . S
C1977 C1976 1.377 . S
C1977 C1978 1.379 . S
C1978 H1962 0.931 . S
C1978 C1972 1.383 . S
C1978 C1977 1.379 . S
H1979 C1973 0.959 1_545 S
H1980 C1973 0.961 . S
H1981 C1973 0.960 1_545 S
H1982 C1974 0.930 . S
H1983 C1975 0.929 . S
H1984 C1992 0.929 . S
H1985 C1994 0.930 . S
H1986 C1996 0.930 . S
H1987 C1999 0.929 . S
H1988 C2002 0.930 . S
H1989 C2004 0.960 . S
H1990 C2004 0.960 . S
H1991 C2004 0.960 . S
C1992 H1984 0.929 . S
C1992 C1993 1.377 . S
C1992 C1994 1.384 . S
C1993 C1992 1.377 . S
C1993 C1999 1.390 . S
C1994 H1985 0.930 . S
C1994 C1992 1.384 . S
C1994 C1995 1.372 . S
C1995 C1994 1.372 . S
C1995 C1996 1.400 . S
C1995 C2000 1.490 . S
C1996 H1986 0.930 . S
C1996 C1995 1.400 . S
C1996 C1999 1.386 . S
H1997 C2013 0.930 . S
H1998 C2014 0.919 1_565 S
C1999 H1987 0.929 . S
C1999 C1993 1.390 . S
C1999 C1996 1.386 . S
C2000 C1995 1.490 . S
C2000 C2002 1.395 . S
C2000 C2003 1.403 . S
H2001 C2007 0.930 . S
C2002 H1988 0.930 . S
C2002 C2000 1.395 . S
C2002 C2005 1.403 . S
C2003 C2000 1.403 . S
C2003 C2004 1.524 . S
C2003 C2007 1.400 . S
C2004 H1989 0.960 . S
C2004 H1990 0.960 . S
C2004 H1991 0.960 . S
C2004 C2003 1.524 . S
C2005 C2002 1.403 . S
C2005 C2006 1.392 . S
C2005 C2009 1.495 . S
C2006 C2005 1.392 . S
C2006 C2007 1.385 . S
C2006 C2008 1.478 . S
C2007 H2001 0.930 . S
C2007 C2003 1.400 . S
C2007 C2006 1.385 . S
C2008 C2006 1.478 . S
C2008 C2010 1.381 . S
C2008 C2014 1.363 1_565 S
C2009 C2005 1.495 . S
C2009 H2015 0.959 . S
C2009 H2016 0.961 . S
C2009 H2017 0.960 . S
C2010 C2008 1.381 . S
C2010 C2011 1.394 1_565 S
C2010 H2018 0.930 . S
C2011 C2010 1.394 1_545 S
C2011 C2012 1.383 . S
C2011 H2019 0.929 . S
C2012 C2011 1.383 . S
C2012 C2013 1.377 . S
C2013 H1997 0.930 . S
C2013 C2012 1.377 . S
C2013 C2014 1.412 . S
C2014 H1998 0.919 1_545 S
C2014 C2008 1.363 1_545 S
C2014 C2013 1.412 . S
H2015 C2009 0.959 . S
H2016 C2009 0.961 . S
H2017 C2009 0.960 . S
H2018 C2010 0.930 . S
H2019 C2011 0.929 . S
H2020 C2028 0.929 . S
H2021 C2030 0.930 . S
H2022 C2032 0.930 . S
H2023 C2035 0.929 . S
H2024 C2038 0.930 . S
H2025 C2040 0.960 . S
H2026 C2040 0.960 . S
H2027 C2040 0.960 . S
C2028 H2020 0.929 . S
C2028 C2029 1.377 . S
C2028 C2030 1.384 . S
C2029 C2028 1.377 . S
C2029 C2035 1.390 . S
C2030 H2021 0.930 . S
C2030 C2028 1.384 . S
C2030 C2031 1.372 . S
C2031 C2030 1.372 . S
C2031 C2032 1.400 . S
C2031 C2036 1.490 . S
C2032 H2022 0.930 . S
C2032 C2031 1.400 . S
C2032 C2035 1.386 . S
H2033 C2049 0.930 . S
H2034 C2050 0.931 . S
C2035 H2023 0.929 . S
C2035 C2029 1.390 . S
C2035 C2032 1.386 . S
C2036 C2031 1.490 . S
C2036 C2038 1.395 . S
C2036 C2039 1.403 . S
H2037 C2043 0.930 . S
C2038 H2024 0.930 . S
C2038 C2036 1.395 . S
C2038 C2041 1.403 . S
C2039 C2036 1.403 . S
C2039 C2040 1.524 . S
C2039 C2043 1.400 . S
C2040 H2025 0.960 . S
C2040 H2026 0.960 . S
C2040 H2027 0.960 . S
C2040 C2039 1.524 . S
C2041 C2038 1.403 . S
C2041 C2042 1.392 . S
C2041 C2045 1.495 . S
C2042 C2041 1.392 . S
C2042 C2043 1.385 . S
C2042 C2044 1.478 . S
C2043 H2037 0.930 . S
C2043 C2039 1.400 . S
C2043 C2042 1.385 . S
C2044 C2042 1.478 . S
C2044 C2046 1.381 . S
C2044 C2050 1.383 . S
C2045 C2041 1.495 . S
C2045 H2051 0.959 . S
C2045 H2052 0.961 . S
C2045 H2053 0.960 . S
C2046 C2044 1.381 . S
C2046 C2047 1.394 . S
C2046 H2054 0.930 . S
C2047 C2046 1.394 . S
C2047 C2048 1.383 . S
C2047 H2055 0.929 . S
C2048 C2047 1.383 . S
C2048 C2049 1.377 . S
C2049 H2033 0.930 . S
C2049 C2048 1.377 . S
C2049 C2050 1.379 . S
C2050 H2034 0.931 . S
C2050 C2044 1.383 . S
C2050 C2049 1.379 . S
H2051 C2045 0.959 . S
H2052 C2045 0.961 . S
H2053 C2045 0.960 . S
H2054 C2046 0.930 . S
H2055 C2047 0.929 . S
H2056 C2064 0.929 . S
H2057 C2066 0.930 . S
H2058 C2068 0.930 . S
H2059 C2071 0.929 . S
H2060 C2074 0.930 . S
H2061 C2076 0.960 . S
H2062 C2076 0.960 . S
H2063 C2076 0.960 . S
C2064 H2056 0.929 . S
C2064 C2065 1.377 . S
C2064 C2066 1.384 . S
C2065 C2064 1.377 . S
C2065 C2071 1.390 . S
C2066 H2057 0.930 . S
C2066 C2064 1.384 . S
C2066 C2067 1.372 . S
C2067 C2066 1.372 . S
C2067 C2068 1.400 . S
C2067 C2072 1.490 . S
C2068 H2058 0.930 . S
C2068 C2067 1.400 . S
C2068 C2071 1.386 . S
H2069 C2085 0.930 . S
H2070 C2086 0.931 . S
C2071 H2059 0.929 . S
C2071 C2065 1.390 . S
C2071 C2068 1.386 . S
C2072 C2067 1.490 . S
C2072 C2074 1.395 . S
C2072 C2075 1.403 . S
H2073 C2079 0.930 . S
C2074 H2060 0.930 . S
C2074 C2072 1.395 . S
C2074 C2077 1.403 . S
C2075 C2072 1.403 . S
C2075 C2076 1.524 . S
C2075 C2079 1.400 . S
C2076 H2061 0.960 . S
C2076 H2062 0.960 . S
C2076 H2063 0.960 . S
C2076 C2075 1.524 . S
C2077 C2074 1.403 . S
C2077 C2078 1.392 . S
C2077 C2081 1.495 . S
C2078 C2077 1.392 . S
C2078 C2079 1.385 . S
C2078 C2080 1.478 . S
C2079 H2073 0.930 . S
C2079 C2075 1.400 . S
C2079 C2078 1.385 . S
C2080 C2078 1.478 . S
C2080 C2082 1.381 . S
C2080 C2086 1.383 . S
C2081 C2077 1.495 . S
C2081 H2087 0.959 . S
C2081 H2088 0.961 . S
C2081 H2089 0.960 . S
C2082 C2080 1.381 . S
C2082 C2083 1.394 . S
C2082 H2090 0.930 . S
C2083 C2082 1.394 . S
C2083 C2084 1.383 . S
C2083 H2091 0.929 . S
C2084 C2083 1.383 . S
C2084 C2085 1.377 . S
C2085 H2069 0.930 . S
C2085 C2084 1.377 . S
C2085 C2086 1.379 . S
C2086 H2070 0.931 . S
C2086 C2080 1.383 . S
C2086 C2085 1.379 . S
H2087 C2081 0.959 . S
H2088 C2081 0.961 . S
H2089 C2081 0.960 . S
H2090 C2082 0.930 . S
H2091 C2083 0.929 . S
H2092 C2100 0.929 . S
H2093 C2102 0.930 . S
H2094 C2104 0.930 . S
H2095 C2107 0.929 . S
H2096 C2110 0.930 . S
H2097 C2112 0.960 . S
H2098 C2112 0.960 . S
H2099 C2112 0.960 . S
C2100 H2092 0.929 . S
C2100 C2101 1.377 . S
C2100 C2102 1.384 . S
C2101 C2100 1.377 . S
C2101 C2107 1.390 . S
C2102 H2093 0.930 . S
C2102 C2100 1.384 . S
C2102 C2103 1.372 . S
C2103 C2102 1.372 . S
C2103 C2104 1.400 . S
C2103 C2108 1.490 . S
C2104 H2094 0.930 . S
C2104 C2103 1.400 . S
C2104 C2107 1.386 . S
H2105 C2121 0.930 . S
H2106 C2122 0.931 . S
C2107 H2095 0.929 . S
C2107 C2101 1.390 . S
C2107 C2104 1.386 . S
C2108 C2103 1.490 . S
C2108 C2110 1.395 . S
C2108 C2111 1.403 . S
H2109 C2115 0.930 . S
C2110 H2096 0.930 . S
C2110 C2108 1.395 . S
C2110 C2113 1.403 . S
C2111 C2108 1.403 . S
C2111 C2112 1.524 . S
C2111 C2115 1.400 . S
C2112 H2097 0.960 . S
C2112 H2098 0.960 . S
C2112 H2099 0.960 . S
C2112 C2111 1.524 . S
C2113 C2110 1.403 . S
C2113 C2114 1.392 . S
C2113 C2117 1.495 . S
C2114 C2113 1.392 . S
C2114 C2115 1.385 . S
C2114 C2116 1.478 . S
C2115 H2109 0.930 . S
C2115 C2111 1.400 . S
C2115 C2114 1.385 . S
C2116 C2114 1.478 . S
C2116 C2118 1.381 . S
C2116 C2122 1.383 . S
C2117 C2113 1.495 . S
C2117 H2123 0.959 . S
C2117 H2124 0.961 . S
C2117 H2125 0.960 . S
C2118 C2116 1.381 . S
C2118 C2119 1.394 . S
C2118 H2126 0.930 . S
C2119 C2118 1.394 . S
C2119 C2120 1.383 . S
C2119 H2127 0.929 . S
C2120 C2119 1.383 . S
C2120 C2121 1.377 . S
C2121 H2105 0.930 . S
C2121 C2120 1.377 . S
C2121 C2122 1.379 . S
C2122 H2106 0.931 . S
C2122 C2116 1.383 . S
C2122 C2121 1.379 . S
H2123 C2117 0.959 . S
H2124 C2117 0.961 . S
H2125 C2117 0.960 . S
H2126 C2118 0.930 . S
H2127 C2119 0.929 . S
H2128 C2136 0.929 . S
H2129 C2138 0.930 . S
H2130 C2140 0.930 . S
H2131 C2143 0.929 . S
H2132 C2146 0.930 . S
H2133 C2148 0.960 . S
H2134 C2148 0.960 . S
H2135 C2148 0.960 . S
C2136 H2128 0.929 . S
C2136 C2137 1.377 . S
C2136 C2138 1.384 . S
C2137 C2136 1.377 . S
C2137 C2143 1.390 . S
C2138 H2129 0.930 . S
C2138 C2136 1.384 . S
C2138 C2139 1.372 . S
C2139 C2138 1.372 . S
C2139 C2140 1.400 . S
C2139 C2144 1.490 . S
C2140 H2130 0.930 . S
C2140 C2139 1.400 . S
C2140 C2143 1.386 . S
H2141 C2157 0.930 . S
H2142 C2158 0.931 . S
C2143 H2131 0.929 . S
C2143 C2137 1.390 . S
C2143 C2140 1.386 . S
C2144 C2139 1.490 . S
C2144 C2146 1.395 . S
C2144 C2147 1.403 . S
H2145 C2151 0.930 . S
C2146 H2132 0.930 . S
C2146 C2144 1.395 . S
C2146 C2149 1.403 . S
C2147 C2144 1.403 . S
C2147 C2148 1.524 . S
C2147 C2151 1.400 . S
C2148 H2133 0.960 . S
C2148 H2134 0.960 . S
C2148 H2135 0.960 . S
C2148 C2147 1.524 . S
C2149 C2146 1.403 . S
C2149 C2150 1.392 . S
C2149 C2153 1.495 . S
C2150 C2149 1.392 . S
C2150 C2151 1.385 . S
C2150 C2152 1.478 . S
C2151 H2145 0.930 . S
C2151 C2147 1.400 . S
C2151 C2150 1.385 . S
C2152 C2150 1.478 . S
C2152 C2154 1.381 1_565 S
C2152 C2158 1.383 . S
C2153 C2149 1.495 . S
C2153 H2159 0.959 . S
C2153 H2160 0.961 . S
C2153 H2161 0.960 . S
C2154 C2152 1.381 1_545 S
C2154 C2155 1.394 . S
C2154 H2162 0.930 . S
C2155 C2154 1.394 . S
C2155 C2156 1.383 . S
C2155 H2163 0.929 . S
C2156 C2155 1.383 . S
C2156 C2157 1.377 . S
C2157 H2141 0.930 . S
C2157 C2156 1.377 . S
C2157 C2158 1.379 1_545 S
C2158 H2142 0.931 . S
C2158 C2152 1.383 . S
C2158 C2157 1.379 1_565 S
H2159 C2153 0.959 . S
H2160 C2153 0.961 . S
H2161 C2153 0.960 . S
H2162 C2154 0.930 . S
H2163 C2155 0.929 . S
H2164 C2172 0.929 . S
H2165 C2174 0.930 . S
H2166 C2176 0.930 . S
H2167 C2179 0.929 . S
H2168 C2182 0.930 . S
H2169 C2184 0.960 . S
H2170 C2184 0.960 . S
H2171 C2184 0.960 . S
C2172 H2164 0.929 . S
C2172 C2173 1.377 . S
C2172 C2174 1.384 . S
C2173 C2172 1.377 . S
C2173 C2179 1.390 . S
C2174 H2165 0.930 . S
C2174 C2172 1.384 . S
C2174 C2175 1.372 . S
C2175 C2174 1.372 . S
C2175 C2176 1.400 . S
C2175 C2180 1.490 . S
C2176 H2166 0.930 . S
C2176 C2175 1.400 . S
C2176 C2179 1.386 . S
H2177 C2193 0.930 . S
H2178 C2194 0.931 . S
C2179 H2167 0.929 . S
C2179 C2173 1.390 . S
C2179 C2176 1.386 . S
C2180 C2175 1.490 . S
C2180 C2182 1.395 . S
C2180 C2183 1.403 . S
H2181 C2187 0.930 . S
C2182 H2168 0.930 . S
C2182 C2180 1.395 . S
C2182 C2185 1.403 . S
C2183 C2180 1.403 . S
C2183 C2184 1.524 . S
C2183 C2187 1.400 . S
C2184 H2169 0.960 . S
C2184 H2170 0.960 . S
C2184 H2171 0.960 . S
C2184 C2183 1.524 . S
C2185 C2182 1.403 . S
C2185 C2186 1.392 . S
C2185 C2189 1.495 . S
C2186 C2185 1.392 . S
C2186 C2187 1.385 . S
C2186 C2188 1.478 . S
C2187 H2181 0.930 . S
C2187 C2183 1.400 . S
C2187 C2186 1.385 . S
C2188 C2186 1.478 . S
C2188 C2190 1.381 . S
C2188 C2194 1.383 . S
C2189 C2185 1.495 . S
C2189 H2195 0.959 . S
C2189 H2196 0.961 . S
C2189 H2197 0.960 . S
C2190 C2188 1.381 . S
C2190 C2191 1.394 . S
C2190 H2198 0.930 . S
C2191 C2190 1.394 . S
C2191 C2192 1.383 . S
C2191 H2199 0.929 . S
C2192 C2191 1.383 . S
C2192 C2193 1.377 . S
C2193 H2177 0.930 . S
C2193 C2192 1.377 . S
C2193 C2194 1.379 . S
C2194 H2178 0.931 . S
C2194 C2188 1.383 . S
C2194 C2193 1.379 . S
H2195 C2189 0.959 . S
H2196 C2189 0.961 . S
H2197 C2189 0.960 . S
H2198 C2190 0.930 . S
H2199 C2191 0.929 . S
H2200 C2208 0.929 . S
H2201 C2210 0.930 . S
H2202 C2212 0.930 . S
H2203 C2215 0.929 . S
H2204 C2218 0.930 . S
H2205 C2220 0.960 . S
H2206 C2220 0.960 . S
H2207 C2220 0.960 . S
C2208 H2200 0.929 . S
C2208 C2209 1.377 . S
C2208 C2210 1.384 . S
C2209 C2208 1.377 . S
C2209 C2215 1.390 . S
C2210 H2201 0.930 . S
C2210 C2208 1.384 . S
C2210 C2211 1.372 . S
C2211 C2210 1.372 . S
C2211 C2212 1.400 . S
C2211 C2216 1.490 . S
C2212 H2202 0.930 . S
C2212 C2211 1.400 . S
C2212 C2215 1.386 . S
H2213 C2229 0.930 . S
H2214 C2230 0.931 . S
C2215 H2203 0.929 . S
C2215 C2209 1.390 . S
C2215 C2212 1.386 . S
C2216 C2211 1.490 . S
C2216 C2218 1.395 . S
C2216 C2219 1.403 . S
H2217 C2223 0.930 . S
C2218 H2204 0.930 . S
C2218 C2216 1.395 . S
C2218 C2221 1.403 . S
C2219 C2216 1.403 . S
C2219 C2220 1.524 . S
C2219 C2223 1.400 . S
C2220 H2205 0.960 . S
C2220 H2206 0.960 . S
C2220 H2207 0.960 . S
C2220 C2219 1.524 . S
C2221 C2218 1.403 . S
C2221 C2222 1.392 . S
C2221 C2225 1.495 . S
C2222 C2221 1.392 . S
C2222 C2223 1.385 . S
C2222 C2224 1.478 . S
C2223 H2217 0.930 . S
C2223 C2219 1.400 . S
C2223 C2222 1.385 . S
C2224 C2222 1.478 . S
C2224 C2226 1.381 . S
C2224 C2230 1.383 . S
C2225 C2221 1.495 . S
C2225 H2231 0.959 . S
C2225 H2232 0.961 . S
C2225 H2233 0.960 . S
C2226 C2224 1.381 . S
C2226 C2227 1.394 . S
C2226 H2234 0.930 . S
C2227 C2226 1.394 . S
C2227 C2228 1.383 . S
C2227 H2235 0.929 . S
C2228 C2227 1.383 . S
C2228 C2229 1.377 . S
C2229 H2213 0.930 . S
C2229 C2228 1.377 . S
C2229 C2230 1.379 . S
C2230 H2214 0.931 . S
C2230 C2224 1.383 . S
C2230 C2229 1.379 . S
H2231 C2225 0.959 . S
H2232 C2225 0.961 . S
H2233 C2225 0.960 . S
H2234 C2226 0.930 . S
H2235 C2227 0.929 . S
H2236 C2244 0.929 . S
H2237 C2246 0.930 . S
H2238 C2248 0.930 . S
H2239 C2251 0.929 . S
H2240 C2254 0.930 . S
H2241 C2256 0.960 . S
H2242 C2256 0.960 . S
H2243 C2256 0.960 . S
C2244 H2236 0.929 . S
C2244 C2245 1.377 . S
C2244 C2246 1.384 . S
C2245 C2244 1.377 . S
C2245 C2251 1.390 . S
C2246 H2237 0.930 . S
C2246 C2244 1.384 . S
C2246 C2247 1.372 . S
C2247 C2246 1.372 . S
C2247 C2248 1.400 . S
C2247 C2252 1.490 . S
C2248 H2238 0.930 . S
C2248 C2247 1.400 . S
C2248 C2251 1.386 . S
H2249 C2265 0.930 . S
H2250 C2266 0.931 . S
C2251 H2239 0.929 . S
C2251 C2245 1.390 . S
C2251 C2248 1.386 . S
C2252 C2247 1.490 . S
C2252 C2254 1.395 . S
C2252 C2255 1.403 . S
H2253 C2259 0.930 . S
C2254 H2240 0.930 . S
C2254 C2252 1.395 . S
C2254 C2257 1.403 . S
C2255 C2252 1.403 . S
C2255 C2256 1.524 . S
C2255 C2259 1.400 . S
C2256 H2241 0.960 . S
C2256 H2242 0.960 . S
C2256 H2243 0.960 . S
C2256 C2255 1.524 . S
C2257 C2254 1.403 . S
C2257 C2258 1.392 . S
C2257 C2261 1.495 . S
C2258 C2257 1.392 . S
C2258 C2259 1.385 . S
C2258 C2260 1.478 . S
C2259 H2253 0.930 . S
C2259 C2255 1.400 . S
C2259 C2258 1.385 . S
C2260 C2258 1.478 . S
C2260 C2262 1.381 . S
C2260 C2266 1.383 1_455 S
C2261 C2257 1.495 . S
C2261 H2267 0.959 . S
C2261 H2268 0.961 . S
C2261 H2269 0.960 . S
C2262 C2260 1.381 . S
C2262 C2263 1.394 1_455 S
C2262 H2270 0.930 . S
C2263 C2262 1.394 1_655 S
C2263 C2264 1.383 . S
C2263 H2271 0.929 . S
C2264 C2263 1.383 . S
C2264 C2265 1.377 . S
C2265 H2249 0.930 . S
C2265 C2264 1.377 . S
C2265 C2266 1.379 . S
C2266 H2250 0.931 . S
C2266 C2260 1.383 1_655 S
C2266 C2265 1.379 . S
H2267 C2261 0.959 . S
H2268 C2261 0.961 . S
H2269 C2261 0.960 . S
H2270 C2262 0.930 . S
H2271 C2263 0.929 . S
H2272 C2280 0.929 . S
H2273 C2282 0.930 . S
H2274 C2284 0.930 . S
H2275 C2287 0.929 . S
H2276 C2290 0.930 . S
H2277 C2292 0.960 . S
H2278 C2292 0.960 . S
H2279 C2292 0.960 . S
C2280 H2272 0.929 . S
C2280 C2281 1.377 . S
C2280 C2282 1.384 . S
C2281 C2280 1.377 . S
C2281 C2287 1.390 . S
C2282 H2273 0.930 . S
C2282 C2280 1.384 . S
C2282 C2283 1.372 . S
C2283 C2282 1.372 . S
C2283 C2284 1.400 . S
C2283 C2288 1.490 . S
C2284 H2274 0.930 . S
C2284 C2283 1.400 . S
C2284 C2287 1.386 . S
H2285 C2301 0.930 . S
H2286 C2302 0.931 . S
C2287 H2275 0.929 . S
C2287 C2281 1.390 . S
C2287 C2284 1.386 . S
C2288 C2283 1.490 . S
C2288 C2290 1.395 . S
C2288 C2291 1.403 . S
H2289 C2295 0.930 . S
C2290 H2276 0.930 . S
C2290 C2288 1.395 . S
C2290 C2293 1.403 . S
C2291 C2288 1.403 . S
C2291 C2292 1.524 . S
C2291 C2295 1.400 . S
C2292 H2277 0.960 . S
C2292 H2278 0.960 . S
C2292 H2279 0.960 . S
C2292 C2291 1.524 . S
C2293 C2290 1.403 . S
C2293 C2294 1.392 . S
C2293 C2297 1.495 . S
C2294 C2293 1.392 . S
C2294 C2295 1.385 . S
C2294 C2296 1.478 . S
C2295 H2289 0.930 . S
C2295 C2291 1.400 . S
C2295 C2294 1.385 . S
C2296 C2294 1.478 . S
C2296 C2298 1.381 . S
C2296 C2302 1.383 . S
C2297 C2293 1.495 . S
C2297 H2303 0.959 . S
C2297 H2304 0.961 . S
C2297 H2305 0.960 . S
C2298 C2296 1.381 . S
C2298 C2299 1.394 . S
C2298 H2306 0.930 . S
C2299 C2298 1.394 . S
C2299 C2300 1.383 . S
C2299 H2307 0.929 . S
C2300 C2299 1.383 . S
C2300 C2301 1.377 . S
C2301 H2285 0.930 . S
C2301 C2300 1.377 . S
C2301 C2302 1.379 . S
C2302 H2286 0.931 . S
C2302 C2296 1.383 . S
C2302 C2301 1.379 . S
H2303 C2297 0.959 . S
H2304 C2297 0.961 . S
H2305 C2297 0.960 . S
H2306 C2298 0.930 . S
H2307 C2299 0.929 . S
H2308 C2316 0.929 . S
H2309 C2318 0.930 . S
H2310 C2320 0.930 . S
H2311 C2323 0.929 . S
H2312 C2326 0.930 . S
H2313 C2328 0.960 . S
H2314 C2328 0.960 . S
H2315 C2328 0.960 . S
C2316 H2308 0.929 . S
C2316 C2317 1.377 . S
C2316 C2318 1.384 . S
C2317 C2316 1.377 . S
C2317 C2323 1.390 . S
C2318 H2309 0.930 . S
C2318 C2316 1.384 . S
C2318 C2319 1.372 . S
C2319 C2318 1.372 . S
C2319 C2320 1.400 . S
C2319 C2324 1.490 . S
C2320 H2310 0.930 . S
C2320 C2319 1.400 . S
C2320 C2323 1.386 . S
H2321 C2337 0.930 . S
H2322 C2338 0.931 . S
C2323 H2311 0.929 . S
C2323 C2317 1.390 . S
C2323 C2320 1.386 . S
C2324 C2319 1.490 . S
C2324 C2326 1.395 . S
C2324 C2327 1.403 . S
H2325 C2331 0.930 . S
C2326 H2312 0.930 . S
C2326 C2324 1.395 . S
C2326 C2329 1.403 . S
C2327 C2324 1.403 . S
C2327 C2328 1.524 . S
C2327 C2331 1.400 . S
C2328 H2313 0.960 . S
C2328 H2314 0.960 . S
C2328 H2315 0.960 . S
C2328 C2327 1.524 . S
C2329 C2326 1.403 . S
C2329 C2330 1.392 . S
C2329 C2333 1.495 . S
C2330 C2329 1.392 . S
C2330 C2331 1.385 . S
C2330 C2332 1.478 . S
C2331 H2325 0.930 . S
C2331 C2327 1.400 . S
C2331 C2330 1.385 . S
C2332 C2330 1.478 . S
C2332 C2334 1.381 . S
C2332 C2338 1.383 . S
C2333 C2329 1.495 . S
C2333 H2339 0.959 . S
C2333 H2340 0.961 . S
C2333 H2341 0.960 . S
C2334 C2332 1.381 . S
C2334 C2335 1.394 . S
C2334 H2342 0.930 . S
C2335 C2334 1.394 . S
C2335 C2336 1.383 . S
C2335 H2343 0.929 . S
C2336 C2335 1.383 . S
C2336 C2337 1.377 . S
C2337 H2321 0.930 . S
C2337 C2336 1.377 . S
C2337 C2338 1.379 . S
C2338 H2322 0.931 . S
C2338 C2332 1.383 . S
C2338 C2337 1.379 . S
H2339 C2333 0.959 . S
H2340 C2333 0.961 . S
H2341 C2333 0.960 . S
H2342 C2334 0.930 . S
H2343 C2335 0.929 . S
H2344 C2352 0.929 . S
H2345 C2354 0.930 . S
H2346 C2356 0.930 . S
H2347 C2359 0.929 . S
H2348 C2362 0.930 . S
H2349 C2364 0.960 . S
H2350 C2364 0.960 . S
H2351 C2364 0.960 . S
C2352 H2344 0.929 . S
C2352 C2353 1.377 . S
C2352 C2354 1.384 . S
C2353 C2352 1.377 . S
C2353 C2359 1.390 . S
C2354 H2345 0.930 . S
C2354 C2352 1.384 . S
C2354 C2355 1.372 . S
C2355 C2354 1.372 . S
C2355 C2356 1.400 . S
C2355 C2360 1.490 . S
C2356 H2346 0.930 . S
C2356 C2355 1.400 . S
C2356 C2359 1.386 . S
H2357 C2373 0.930 . S
H2358 C2374 0.931 . S
C2359 H2347 0.929 . S
C2359 C2353 1.390 . S
C2359 C2356 1.386 . S
C2360 C2355 1.490 . S
C2360 C2362 1.395 . S
C2360 C2363 1.403 . S
H2361 C2367 0.930 . S
C2362 H2348 0.930 . S
C2362 C2360 1.395 . S
C2362 C2365 1.403 . S
C2363 C2360 1.403 . S
C2363 C2364 1.524 . S
C2363 C2367 1.400 . S
C2364 H2349 0.960 . S
C2364 H2350 0.960 . S
C2364 H2351 0.960 . S
C2364 C2363 1.524 . S
C2365 C2362 1.403 . S
C2365 C2366 1.392 . S
C2365 C2369 1.495 . S
C2366 C2365 1.392 . S
C2366 C2367 1.385 . S
C2366 C2368 1.478 . S
C2367 H2361 0.930 . S
C2367 C2363 1.400 . S
C2367 C2366 1.385 . S
C2368 C2366 1.478 . S
C2368 C2370 1.381 . S
C2368 C2374 1.383 . S
C2369 C2365 1.495 . S
C2369 H2375 0.959 . S
C2369 H2376 0.961 . S
C2369 H2377 0.960 . S
C2370 C2368 1.381 . S
C2370 C2371 1.394 . S
C2370 H2378 0.930 . S
C2371 C2370 1.394 . S
C2371 C2372 1.383 . S
C2371 H2379 0.929 . S
C2372 C2371 1.383 . S
C2372 C2373 1.377 . S
C2373 H2357 0.930 . S
C2373 C2372 1.377 . S
C2373 C2374 1.379 . S
C2374 H2358 0.931 . S
C2374 C2368 1.383 . S
C2374 C2373 1.379 . S
H2375 C2369 0.959 . S
H2376 C2369 0.961 . S
H2377 C2369 0.960 . S
H2378 C2370 0.930 . S
H2379 C2371 0.929 . S
H2380 C2388 0.929 . S
H2381 C2390 0.930 . S
H2382 C2392 0.930 . S
H2383 C2395 0.929 . S
H2384 C2398 0.930 . S
H2385 C2400 0.960 . S
H2386 C2400 0.960 . S
H2387 C2400 0.960 . S
C2388 H2380 0.929 . S
C2388 C2389 1.377 . S
C2388 C2390 1.384 . S
C2389 C2388 1.377 . S
C2389 C2395 1.390 . S
C2390 H2381 0.930 . S
C2390 C2388 1.384 . S
C2390 C2391 1.372 . S
C2391 C2390 1.372 . S
C2391 C2392 1.400 . S
C2391 C2396 1.490 . S
C2392 H2382 0.930 . S
C2392 C2391 1.400 . S
C2392 C2395 1.386 . S
H2393 C2409 0.930 . S
H2394 C2410 0.931 . S
C2395 H2383 0.929 . S
C2395 C2389 1.390 . S
C2395 C2392 1.386 . S
C2396 C2391 1.490 . S
C2396 C2398 1.395 . S
C2396 C2399 1.403 . S
H2397 C2403 0.930 . S
C2398 H2384 0.930 . S
C2398 C2396 1.395 . S
C2398 C2401 1.403 . S
C2399 C2396 1.403 . S
C2399 C2400 1.524 . S
C2399 C2403 1.400 . S
C2400 H2385 0.960 . S
C2400 H2386 0.960 . S
C2400 H2387 0.960 . S
C2400 C2399 1.524 . S
C2401 C2398 1.403 . S
C2401 C2402 1.392 . S
C2401 C2405 1.495 . S
C2402 C2401 1.392 . S
C2402 C2403 1.385 . S
C2402 C2404 1.478 . S
C2403 H2397 0.930 . S
C2403 C2399 1.400 . S
C2403 C2402 1.385 . S
C2404 C2402 1.478 . S
C2404 C2406 1.381 . S
C2404 C2410 1.383 1_455 S
C2405 C2401 1.495 . S
C2405 H2411 0.959 . S
C2405 H2412 0.961 . S
C2405 H2413 0.960 . S
C2406 C2404 1.381 . S
C2406 C2407 1.394 1_455 S
C2406 H2414 0.930 . S
C2407 C2406 1.394 1_655 S
C2407 C2408 1.383 . S
C2407 H2415 0.929 . S
C2408 C2407 1.383 . S
C2408 C2409 1.377 . S
C2409 H2393 0.930 . S
C2409 C2408 1.377 . S
C2409 C2410 1.379 . S
C2410 H2394 0.931 . S
C2410 C2404 1.383 1_655 S
C2410 C2409 1.379 . S
H2411 C2405 0.959 . S
H2412 C2405 0.961 . S
H2413 C2405 0.960 . S
H2414 C2406 0.930 . S
H2415 C2407 0.929 . S
H2416 C2424 0.929 . S
H2417 C2426 0.930 . S
H2418 C2428 0.930 . S
H2419 C2431 0.929 . S
H2420 C2434 0.930 . S
H2421 C2436 0.960 . S
H2422 C2436 0.960 . S
H2423 C2436 0.960 . S
C2424 H2416 0.929 . S
C2424 C2425 1.377 . S
C2424 C2426 1.384 . S
C2425 C2424 1.377 . S
C2425 C2431 1.390 . S
C2426 H2417 0.930 . S
C2426 C2424 1.384 . S
C2426 C2427 1.372 . S
C2427 C2426 1.372 . S
C2427 C2428 1.400 . S
C2427 C2432 1.490 . S
C2428 H2418 0.930 . S
C2428 C2427 1.400 . S
C2428 C2431 1.386 . S
H2429 C2445 0.930 . S
H2430 C2446 0.930 1_655 S
C2431 H2419 0.929 . S
C2431 C2425 1.390 . S
C2431 C2428 1.386 . S
C2432 C2427 1.490 . S
C2432 C2434 1.395 . S
C2432 C2435 1.403 . S
H2433 C2439 0.930 . S
C2434 H2420 0.930 . S
C2434 C2432 1.395 . S
C2434 C2437 1.403 . S
C2435 C2432 1.403 . S
C2435 C2436 1.524 . S
C2435 C2439 1.400 . S
C2436 H2421 0.960 . S
C2436 H2422 0.960 . S
C2436 H2423 0.960 . S
C2436 C2435 1.524 . S
C2437 C2434 1.403 . S
C2437 C2438 1.392 . S
C2437 C2441 1.495 . S
C2438 C2437 1.392 . S
C2438 C2439 1.385 . S
C2438 C2440 1.478 . S
C2439 H2433 0.930 . S
C2439 C2435 1.400 . S
C2439 C2438 1.385 . S
C2440 C2438 1.478 . S
C2440 C2442 1.381 . S
C2440 C2446 1.381 1_655 S
C2441 C2437 1.495 . S
C2441 H2447 0.959 . S
C2441 H2448 0.961 . S
C2441 H2449 0.960 . S
C2442 C2440 1.381 . S
C2442 C2443 1.394 1_655 S
C2442 H2450 0.930 . S
C2443 C2442 1.394 1_455 S
C2443 C2444 1.383 . S
C2443 H2451 0.929 . S
C2444 C2443 1.383 . S
C2444 C2445 1.377 . S
C2445 H2429 0.930 . S
C2445 C2444 1.377 . S
C2445 C2446 1.383 . S
C2446 H2430 0.930 1_455 S
C2446 C2440 1.381 1_455 S
C2446 C2445 1.383 . S
H2447 C2441 0.959 . S
H2448 C2441 0.961 . S
H2449 C2441 0.960 . S
H2450 C2442 0.930 . S
H2451 C2443 0.929 . S
H2452 C2460 0.929 . S
H2453 C2462 0.930 . S
H2454 C2464 0.930 . S
H2455 C2467 0.929 . S
H2456 C2470 0.930 . S
H2457 C2472 0.960 . S
H2458 C2472 0.960 . S
H2459 C2472 0.960 . S
C2460 H2452 0.929 . S
C2460 C2461 1.377 . S
C2460 C2462 1.384 . S
C2461 C2460 1.377 . S
C2461 C2467 1.390 . S
C2462 H2453 0.930 . S
C2462 C2460 1.384 . S
C2462 C2463 1.372 . S
C2463 C2462 1.372 . S
C2463 C2464 1.400 . S
C2463 C2468 1.490 . S
C2464 H2454 0.930 . S
C2464 C2463 1.400 . S
C2464 C2467 1.386 . S
H2465 C2481 0.930 . S
H2466 C2482 0.931 . S
C2467 H2455 0.929 . S
C2467 C2461 1.390 . S
C2467 C2464 1.386 . S
C2468 C2463 1.490 . S
C2468 C2470 1.395 . S
C2468 C2471 1.403 . S
H2469 C2475 0.930 . S
C2470 H2456 0.930 . S
C2470 C2468 1.395 . S
C2470 C2473 1.403 . S
C2471 C2468 1.403 . S
C2471 C2472 1.524 . S
C2471 C2475 1.400 . S
C2472 H2457 0.960 . S
C2472 H2458 0.960 . S
C2472 H2459 0.960 . S
C2472 C2471 1.524 . S
C2473 C2470 1.403 . S
C2473 C2474 1.392 . S
C2473 C2477 1.495 . S
C2474 C2473 1.392 . S
C2474 C2475 1.385 . S
C2474 C2476 1.478 . S
C2475 H2469 0.930 . S
C2475 C2471 1.400 . S
C2475 C2474 1.385 . S
C2476 C2474 1.478 . S
C2476 C2478 1.381 . S
C2476 C2482 1.383 . S
C2477 C2473 1.495 . S
C2477 H2483 0.959 . S
C2477 H2484 0.961 . S
C2477 H2485 0.960 . S
C2478 C2476 1.381 . S
C2478 C2479 1.394 . S
C2478 H2486 0.930 . S
C2479 C2478 1.394 . S
C2479 C2480 1.383 . S
C2479 H2487 0.929 . S
C2480 C2479 1.383 . S
C2480 C2481 1.377 . S
C2481 H2465 0.930 . S
C2481 C2480 1.377 . S
C2481 C2482 1.379 . S
C2482 H2466 0.931 . S
C2482 C2476 1.383 . S
C2482 C2481 1.379 . S
H2483 C2477 0.959 . S
H2484 C2477 0.961 . S
H2485 C2477 0.960 . S
H2486 C2478 0.930 . S
H2487 C2479 0.929 . S
H2488 C2496 0.929 . S
H2489 C2498 0.930 . S
H2490 C2500 0.930 . S
H2491 C2503 0.929 . S
H2492 C2506 0.930 . S
H2493 C2508 0.960 . S
H2494 C2508 0.960 . S
H2495 C2508 0.960 . S
C2496 H2488 0.929 . S
C2496 C2497 1.377 . S
C2496 C2498 1.384 . S
C2497 C2496 1.377 . S
C2497 C2503 1.390 . S
C2498 H2489 0.930 . S
C2498 C2496 1.384 . S
C2498 C2499 1.372 . S
C2499 C2498 1.372 . S
C2499 C2500 1.400 . S
C2499 C2504 1.490 . S
C2500 H2490 0.930 . S
C2500 C2499 1.400 . S
C2500 C2503 1.386 . S
H2501 C2517 0.930 . S
H2502 C2518 0.931 . S
C2503 H2491 0.929 . S
C2503 C2497 1.390 . S
C2503 C2500 1.386 . S
C2504 C2499 1.490 . S
C2504 C2506 1.395 . S
C2504 C2507 1.403 . S
H2505 C2511 0.930 . S
C2506 H2492 0.930 . S
C2506 C2504 1.395 . S
C2506 C2509 1.403 . S
C2507 C2504 1.403 . S
C2507 C2508 1.524 . S
C2507 C2511 1.400 . S
C2508 H2493 0.960 . S
C2508 H2494 0.960 . S
C2508 H2495 0.960 . S
C2508 C2507 1.524 . S
C2509 C2506 1.403 . S
C2509 C2510 1.392 . S
C2509 C2513 1.495 . S
C2510 C2509 1.392 . S
C2510 C2511 1.385 . S
C2510 C2512 1.478 . S
C2511 H2505 0.930 . S
C2511 C2507 1.400 . S
C2511 C2510 1.385 . S
C2512 C2510 1.478 . S
C2512 C2514 1.381 . S
C2512 C2518 1.383 . S
C2513 C2509 1.495 . S
C2513 H2519 0.959 . S
C2513 H2520 0.961 . S
C2513 H2521 0.960 . S
C2514 C2512 1.381 . S
C2514 C2515 1.394 . S
C2514 H2522 0.930 . S
C2515 C2514 1.394 . S
C2515 C2516 1.383 . S
C2515 H2523 0.929 . S
C2516 C2515 1.383 . S
C2516 C2517 1.377 . S
C2517 H2501 0.930 . S
C2517 C2516 1.377 . S
C2517 C2518 1.379 . S
C2518 H2502 0.931 . S
C2518 C2512 1.383 . S
C2518 C2517 1.379 . S
H2519 C2513 0.959 . S
H2520 C2513 0.961 . S
H2521 C2513 0.960 . S
H2522 C2514 0.930 . S
H2523 C2515 0.929 . S
H2524 C2532 0.929 . S
H2525 C2534 0.930 . S
H2526 C2536 0.930 . S
H2527 C2539 0.929 . S
H2528 C2542 0.930 . S
H2529 C2544 0.960 . S
H2530 C2544 0.960 . S
H2531 C2544 0.960 . S
C2532 H2524 0.929 . S
C2532 C2533 1.377 . S
C2532 C2534 1.384 . S
C2533 C2532 1.377 . S
C2533 C2539 1.390 . S
C2534 H2525 0.930 . S
C2534 C2532 1.384 . S
C2534 C2535 1.372 . S
C2535 C2534 1.372 . S
C2535 C2536 1.400 . S
C2535 C2540 1.490 . S
C2536 H2526 0.930 . S
C2536 C2535 1.400 . S
C2536 C2539 1.386 . S
H2537 C2553 0.930 . S
H2538 C2554 0.931 . S
C2539 H2527 0.929 . S
C2539 C2533 1.390 . S
C2539 C2536 1.386 . S
C2540 C2535 1.490 . S
C2540 C2542 1.395 . S
C2540 C2543 1.403 . S
H2541 C2547 0.930 . S
C2542 H2528 0.930 . S
C2542 C2540 1.395 . S
C2542 C2545 1.403 . S
C2543 C2540 1.403 . S
C2543 C2544 1.524 . S
C2543 C2547 1.400 . S
C2544 H2529 0.960 . S
C2544 H2530 0.960 . S
C2544 H2531 0.960 . S
C2544 C2543 1.524 . S
C2545 C2542 1.403 . S
C2545 C2546 1.392 . S
C2545 C2549 1.495 . S
C2546 C2545 1.392 . S
C2546 C2547 1.385 . S
C2546 C2548 1.478 . S
C2547 H2541 0.930 . S
C2547 C2543 1.400 . S
C2547 C2546 1.385 . S
C2548 C2546 1.478 . S
C2548 C2550 1.381 . S
C2548 C2554 1.383 . S
C2549 C2545 1.495 . S
C2549 H2555 0.959 . S
C2549 H2556 0.961 . S
C2549 H2557 0.960 . S
C2550 C2548 1.381 . S
C2550 C2551 1.394 . S
C2550 H2558 0.930 . S
C2551 C2550 1.394 . S
C2551 C2552 1.383 . S
C2551 H2559 0.929 . S
C2552 C2551 1.383 . S
C2552 C2553 1.377 . S
C2553 H2537 0.930 . S
C2553 C2552 1.377 . S
C2553 C2554 1.379 . S
C2554 H2538 0.931 . S
C2554 C2548 1.383 . S
C2554 C2553 1.379 . S
H2555 C2549 0.959 . S
H2556 C2549 0.961 . S
H2557 C2549 0.960 . S
H2558 C2550 0.930 . S
H2559 C2551 0.929 . S
H2560 C2568 0.929 1_545 S
H2561 C2570 0.930 . S
H2562 C2572 0.930 . S
H2563 C2575 0.929 . S
H2564 C2578 0.930 . S
H2565 C2580 0.960 . S
H2566 C2580 0.960 . S
H2567 C2580 0.960 . S
C2568 H2560 0.929 1_565 S
C2568 C2569 1.377 1_565 S
C2568 C2570 1.384 . S
C2569 C2568 1.377 1_545 S
C2569 C2575 1.390 1_545 S
C2570 H2561 0.930 . S
C2570 C2568 1.384 . S
C2570 C2571 1.372 . S
C2571 C2570 1.372 . S
C2571 C2572 1.400 . S
C2571 C2576 1.490 . S
C2572 H2562 0.930 . S
C2572 C2571 1.400 . S
C2572 C2575 1.386 . S
H2573 C2589 0.930 . S
H2574 C2590 0.931 . S
C2575 H2563 0.929 . S
C2575 C2569 1.390 1_565 S
C2575 C2572 1.386 . S
C2576 C2571 1.490 . S
C2576 C2578 1.395 . S
C2576 C2579 1.403 . S
H2577 C2583 0.930 . S
C2578 H2564 0.930 . S
C2578 C2576 1.395 . S
C2578 C2581 1.403 . S
C2579 C2576 1.403 . S
C2579 C2580 1.524 . S
C2579 C2583 1.400 . S
C2580 H2565 0.960 . S
C2580 H2566 0.960 . S
C2580 H2567 0.960 . S
C2580 C2579 1.524 . S
C2581 C2578 1.403 . S
C2581 C2582 1.392 . S
C2581 C2585 1.495 . S
C2582 C2581 1.392 . S
C2582 C2583 1.385 . S
C2582 C2584 1.478 . S
C2583 H2577 0.930 . S
C2583 C2579 1.400 . S
C2583 C2582 1.385 . S
C2584 C2582 1.478 . S
C2584 C2586 1.381 . S
C2584 C2590 1.383 . S
C2585 C2581 1.495 . S
C2585 H2591 0.959 . S
C2585 H2592 0.961 . S
C2585 H2593 0.960 . S
C2586 C2584 1.381 . S
C2586 C2587 1.394 . S
C2586 H2594 0.930 . S
C2587 C2586 1.394 . S
C2587 C2588 1.383 . S
C2587 H2595 0.929 . S
C2588 C2587 1.383 . S
C2588 C2589 1.377 . S
C2589 H2573 0.930 . S
C2589 C2588 1.377 . S
C2589 C2590 1.379 . S
C2590 H2574 0.931 . S
C2590 C2584 1.383 . S
C2590 C2589 1.379 . S
H2591 C2585 0.959 . S
H2592 C2585 0.961 . S
H2593 C2585 0.960 . S
H2594 C2586 0.930 . S
H2595 C2587 0.929 . S
H2596 C2604 0.929 . S
H2597 C2606 0.930 . S
H2598 C2608 0.930 . S
H2599 C2611 0.929 . S
H2600 C2614 0.930 . S
H2601 C2616 0.960 . S
H2602 C2616 0.960 . S
H2603 C2616 0.960 . S
C2604 H2596 0.929 . S
C2604 C2605 1.377 . S
C2604 C2606 1.384 . S
C2605 C2604 1.377 . S
C2605 C2611 1.390 . S
C2606 H2597 0.930 . S
C2606 C2604 1.384 . S
C2606 C2607 1.372 . S
C2607 C2606 1.372 . S
C2607 C2608 1.400 . S
C2607 C2612 1.490 . S
C2608 H2598 0.930 . S
C2608 C2607 1.400 . S
C2608 C2611 1.386 . S
H2609 C2625 0.930 . S
H2610 C2626 0.931 . S
C2611 H2599 0.929 . S
C2611 C2605 1.390 . S
C2611 C2608 1.386 . S
C2612 C2607 1.490 . S
C2612 C2614 1.395 . S
C2612 C2615 1.403 . S
H2613 C2619 0.930 . S
C2614 H2600 0.930 . S
C2614 C2612 1.395 . S
C2614 C2617 1.403 . S
C2615 C2612 1.403 . S
C2615 C2616 1.524 . S
C2615 C2619 1.400 . S
C2616 H2601 0.960 . S
C2616 H2602 0.960 . S
C2616 H2603 0.960 . S
C2616 C2615 1.524 . S
C2617 C2614 1.403 . S
C2617 C2618 1.392 . S
C2617 C2621 1.495 . S
C2618 C2617 1.392 . S
C2618 C2619 1.385 . S
C2618 C2620 1.478 . S
C2619 H2613 0.930 . S
C2619 C2615 1.400 . S
C2619 C2618 1.385 . S
C2620 C2618 1.478 . S
C2620 C2622 1.381 . S
C2620 C2626 1.383 . S
C2621 C2617 1.495 . S
C2621 H2627 0.959 . S
C2621 H2628 0.961 . S
C2621 H2629 0.960 . S
C2622 C2620 1.381 . S
C2622 C2623 1.394 . S
C2622 H2630 0.930 . S
C2623 C2622 1.394 . S
C2623 C2624 1.383 . S
C2623 H2631 0.929 . S
C2624 C2623 1.383 . S
C2624 C2625 1.377 . S
C2625 H2609 0.930 . S
C2625 C2624 1.377 . S
C2625 C2626 1.379 . S
C2626 H2610 0.931 . S
C2626 C2620 1.383 . S
C2626 C2625 1.379 . S
H2627 C2621 0.959 . S
H2628 C2621 0.961 . S
H2629 C2621 0.960 . S
H2630 C2622 0.930 . S
H2631 C2623 0.929 . S
H2632 C2640 0.929 . S
H2633 C2642 0.930 . S
H2634 C2644 0.930 . S
H2635 C2647 0.929 . S
H2636 C2650 0.930 . S
H2637 C2652 0.960 . S
H2638 C2652 0.960 . S
H2639 C2652 0.960 . S
C2640 H2632 0.929 . S
C2640 C2641 1.377 . S
C2640 C2642 1.384 . S
C2641 C2640 1.377 . S
C2641 C2647 1.390 . S
C2642 H2633 0.930 . S
C2642 C2640 1.384 . S
C2642 C2643 1.372 . S
C2643 C2642 1.372 . S
C2643 C2644 1.400 . S
C2643 C2648 1.490 . S
C2644 H2634 0.930 . S
C2644 C2643 1.400 . S
C2644 C2647 1.386 . S
H2645 C2661 0.930 1_655 S
H2646 C2662 0.931 . S
C2647 H2635 0.929 . S
C2647 C2641 1.390 . S
C2647 C2644 1.386 . S
C2648 C2643 1.490 . S
C2648 C2650 1.395 . S
C2648 C2651 1.403 . S
H2649 C2655 0.930 . S
C2650 H2636 0.930 . S
C2650 C2648 1.395 . S
C2650 C2653 1.403 . S
C2651 C2648 1.403 . S
C2651 C2652 1.524 . S
C2651 C2655 1.400 . S
C2652 H2637 0.960 . S
C2652 H2638 0.960 . S
C2652 H2639 0.960 . S
C2652 C2651 1.524 . S
C2653 C2650 1.403 . S
C2653 C2654 1.392 . S
C2653 C2657 1.495 . S
C2654 C2653 1.392 . S
C2654 C2655 1.385 . S
C2654 C2656 1.478 . S
C2655 H2649 0.930 . S
C2655 C2651 1.400 . S
C2655 C2654 1.385 . S
C2656 C2654 1.478 . S
C2656 C2658 1.381 . S
C2656 C2662 1.383 . S
C2657 C2653 1.495 . S
C2657 H2663 0.959 . S
C2657 H2664 0.961 . S
C2657 H2665 0.960 . S
C2658 C2656 1.381 . S
C2658 C2659 1.394 . S
C2658 H2666 0.930 . S
C2659 C2658 1.394 . S
C2659 C2660 1.383 . S
C2659 H2667 0.929 . S
C2660 C2659 1.383 . S
C2660 C2661 1.377 . S
C2661 H2645 0.930 1_455 S
C2661 C2660 1.377 . S
C2661 C2662 1.379 . S
C2662 H2646 0.931 . S
C2662 C2656 1.383 . S
C2662 C2661 1.379 . S
H2663 C2657 0.959 . S
H2664 C2657 0.961 . S
H2665 C2657 0.960 . S
H2666 C2658 0.930 . S
H2667 C2659 0.929 . S
H2668 C2676 0.929 . S
H2669 C2678 0.930 . S
H2670 C2680 0.930 . S
H2671 C2683 0.929 . S
H2672 C2686 0.930 . S
H2673 C2688 0.960 . S
H2674 C2688 0.960 . S
H2675 C2688 0.960 . S
C2676 H2668 0.929 . S
C2676 C2677 1.377 . S
C2676 C2678 1.384 . S
C2677 C2676 1.377 . S
C2677 C2683 1.390 . S
C2678 H2669 0.930 . S
C2678 C2676 1.384 . S
C2678 C2679 1.372 . S
C2679 C2678 1.372 . S
C2679 C2680 1.400 . S
C2679 C2684 1.490 . S
C2680 H2670 0.930 . S
C2680 C2679 1.400 . S
C2680 C2683 1.386 . S
H2681 C2697 0.930 . S
H2682 C2698 0.931 . S
C2683 H2671 0.929 . S
C2683 C2677 1.390 . S
C2683 C2680 1.386 . S
C2684 C2679 1.490 . S
C2684 C2686 1.395 . S
C2684 C2687 1.403 . S
H2685 C2691 0.930 . S
C2686 H2672 0.930 . S
C2686 C2684 1.395 . S
C2686 C2689 1.403 . S
C2687 C2684 1.403 . S
C2687 C2688 1.524 . S
C2687 C2691 1.400 . S
C2688 H2673 0.960 . S
C2688 H2674 0.960 . S
C2688 H2675 0.960 . S
C2688 C2687 1.524 . S
C2689 C2686 1.403 . S
C2689 C2690 1.392 . S
C2689 C2693 1.495 . S
C2690 C2689 1.392 . S
C2690 C2691 1.385 . S
C2690 C2692 1.478 . S
C2691 H2685 0.930 . S
C2691 C2687 1.400 . S
C2691 C2690 1.385 . S
C2692 C2690 1.478 . S
C2692 C2694 1.381 . S
C2692 C2698 1.383 . S
C2693 C2689 1.495 . S
C2693 H2699 0.959 . S
C2693 H2700 0.961 . S
C2693 H2701 0.960 . S
C2694 C2692 1.381 . S
C2694 C2695 1.394 . S
C2694 H2702 0.930 . S
C2695 C2694 1.394 . S
C2695 C2696 1.383 . S
C2695 H2703 0.929 . S
C2696 C2695 1.383 . S
C2696 C2697 1.377 . S
C2697 H2681 0.930 . S
C2697 C2696 1.377 . S
C2697 C2698 1.379 . S
C2698 H2682 0.931 . S
C2698 C2692 1.383 . S
C2698 C2697 1.379 . S
H2699 C2693 0.959 . S
H2700 C2693 0.961 . S
H2701 C2693 0.960 . S
H2702 C2694 0.930 . S
H2703 C2695 0.929 . S
H2704 C2712 0.929 . S
H2705 C2714 0.930 . S
H2706 C2716 0.930 . S
H2707 C2719 0.929 1_545 S
H2708 C2722 0.930 . S
H2709 C2724 0.960 . S
H2710 C2724 0.960 . S
H2711 C2724 0.960 . S
C2712 H2704 0.929 . S
C2712 C2713 1.377 1_565 S
C2712 C2714 1.384 . S
C2713 C2712 1.377 1_545 S
C2713 C2719 1.390 1_545 S
C2714 H2705 0.930 . S
C2714 C2712 1.384 . S
C2714 C2715 1.372 . S
C2715 C2714 1.372 . S
C2715 C2716 1.400 . S
C2715 C2720 1.490 . S
C2716 H2706 0.930 . S
C2716 C2715 1.400 . S
C2716 C2719 1.386 . S
H2717 C2733 0.930 1_455 S
H2718 C2734 0.931 . S
C2719 H2707 0.929 1_565 S
C2719 C2713 1.390 1_565 S
C2719 C2716 1.386 . S
C2720 C2715 1.490 . S
C2720 C2722 1.395 . S
C2720 C2723 1.403 . S
H2721 C2727 0.930 . S
C2722 H2708 0.930 . S
C2722 C2720 1.395 . S
C2722 C2725 1.403 . S
C2723 C2720 1.403 . S
C2723 C2724 1.524 . S
C2723 C2727 1.400 . S
C2724 H2709 0.960 . S
C2724 H2710 0.960 . S
C2724 H2711 0.960 . S
C2724 C2723 1.524 . S
C2725 C2722 1.403 . S
C2725 C2726 1.392 . S
C2725 C2729 1.495 . S
C2726 C2725 1.392 . S
C2726 C2727 1.385 . S
C2726 C2728 1.478 . S
C2727 H2721 0.930 . S
C2727 C2723 1.400 . S
C2727 C2726 1.385 . S
C2728 C2726 1.478 . S
C2728 C2730 1.381 . S
C2728 C2734 1.383 . S
C2729 C2725 1.495 . S
C2729 H2735 0.959 . S
C2729 H2736 0.961 . S
C2729 H2737 0.960 . S
C2730 C2728 1.381 . S
C2730 C2731 1.394 . S
C2730 H2738 0.930 . S
C2731 C2730 1.394 . S
C2731 C2732 1.383 . S
C2731 H2739 0.929 . S
C2732 C2731 1.383 . S
C2732 C2733 1.377 . S
C2733 H2717 0.930 1_655 S
C2733 C2732 1.377 . S
C2733 C2734 1.379 . S
C2734 H2718 0.931 . S
C2734 C2728 1.383 . S
C2734 C2733 1.379 . S
H2735 C2729 0.959 . S
H2736 C2729 0.961 . S
H2737 C2729 0.960 . S
H2738 C2730 0.930 . S
H2739 C2731 0.929 . S
H2740 C2748 0.929 . S
H2741 C2750 0.930 . S
H2742 C2752 0.930 . S
H2743 C2755 0.929 . S
H2744 C2758 0.930 . S
H2745 C2760 0.960 . S
H2746 C2760 0.960 . S
H2747 C2760 0.960 . S
C2748 H2740 0.929 . S
C2748 C2749 1.377 . S
C2748 C2750 1.384 . S
C2749 C2748 1.377 . S
C2749 C2755 1.390 . S
C2750 H2741 0.930 . S
C2750 C2748 1.384 . S
C2750 C2751 1.372 . S
C2751 C2750 1.372 . S
C2751 C2752 1.400 . S
C2751 C2756 1.490 . S
C2752 H2742 0.930 . S
C2752 C2751 1.400 . S
C2752 C2755 1.386 . S
H2753 C2769 0.930 . S
H2754 C2770 0.931 . S
C2755 H2743 0.929 . S
C2755 C2749 1.390 . S
C2755 C2752 1.386 . S
C2756 C2751 1.490 . S
C2756 C2758 1.395 . S
C2756 C2759 1.403 . S
H2757 C2763 0.930 . S
C2758 H2744 0.930 . S
C2758 C2756 1.395 . S
C2758 C2761 1.403 . S
C2759 C2756 1.403 . S
C2759 C2760 1.524 . S
C2759 C2763 1.400 . S
C2760 H2745 0.960 . S
C2760 H2746 0.960 . S
C2760 H2747 0.960 . S
C2760 C2759 1.524 . S
C2761 C2758 1.403 . S
C2761 C2762 1.392 . S
C2761 C2765 1.495 . S
C2762 C2761 1.392 . S
C2762 C2763 1.385 . S
C2762 C2764 1.478 . S
C2763 H2757 0.930 . S
C2763 C2759 1.400 . S
C2763 C2762 1.385 . S
C2764 C2762 1.478 . S
C2764 C2766 1.381 . S
C2764 C2770 1.383 . S
C2765 C2761 1.495 . S
C2765 H2771 0.959 . S
C2765 H2772 0.961 . S
C2765 H2773 0.960 . S
C2766 C2764 1.381 . S
C2766 C2767 1.394 . S
C2766 H2774 0.930 . S
C2767 C2766 1.394 . S
C2767 C2768 1.383 . S
C2767 H2775 0.929 . S
C2768 C2767 1.383 . S
C2768 C2769 1.377 . S
C2769 H2753 0.930 . S
C2769 C2768 1.377 . S
C2769 C2770 1.379 . S
C2770 H2754 0.931 . S
C2770 C2764 1.383 . S
C2770 C2769 1.379 . S
H2771 C2765 0.959 . S
H2772 C2765 0.961 . S
H2773 C2765 0.960 . S
H2774 C2766 0.930 . S
H2775 C2767 0.929 . S
H2776 C2784 0.929 . S
H2777 C2786 0.930 . S
H2778 C2788 0.930 . S
H2779 C2791 0.929 . S
H2780 C2794 0.930 . S
H2781 C2796 0.960 . S
H2782 C2796 0.960 . S
H2783 C2796 0.960 . S
C2784 H2776 0.929 . S
C2784 C2785 1.377 . S
C2784 C2786 1.384 . S
C2785 C2784 1.377 . S
C2785 C2791 1.390 . S
C2786 H2777 0.930 . S
C2786 C2784 1.384 . S
C2786 C2787 1.372 . S
C2787 C2786 1.372 . S
C2787 C2788 1.400 . S
C2787 C2792 1.490 . S
C2788 H2778 0.930 . S
C2788 C2787 1.400 . S
C2788 C2791 1.386 . S
H2789 C2805 0.930 . S
H2790 C2806 0.931 . S
C2791 H2779 0.929 . S
C2791 C2785 1.390 . S
C2791 C2788 1.386 . S
C2792 C2787 1.490 . S
C2792 C2794 1.395 . S
C2792 C2795 1.403 . S
H2793 C2799 0.930 . S
C2794 H2780 0.930 . S
C2794 C2792 1.395 . S
C2794 C2797 1.403 . S
C2795 C2792 1.403 . S
C2795 C2796 1.524 . S
C2795 C2799 1.400 . S
C2796 H2781 0.960 . S
C2796 H2782 0.960 . S
C2796 H2783 0.960 . S
C2796 C2795 1.524 . S
C2797 C2794 1.403 . S
C2797 C2798 1.392 . S
C2797 C2801 1.495 . S
C2798 C2797 1.392 . S
C2798 C2799 1.385 . S
C2798 C2800 1.478 . S
C2799 H2793 0.930 . S
C2799 C2795 1.400 . S
C2799 C2798 1.385 . S
C2800 C2798 1.478 . S
C2800 C2802 1.381 . S
C2800 C2806 1.383 . S
C2801 C2797 1.495 . S
C2801 H2807 0.959 . S
C2801 H2808 0.961 . S
C2801 H2809 0.960 . S
C2802 C2800 1.381 . S
C2802 C2803 1.394 . S
C2802 H2810 0.930 . S
C2803 C2802 1.394 . S
C2803 C2804 1.383 . S
C2803 H2811 0.929 . S
C2804 C2803 1.383 . S
C2804 C2805 1.377 . S
C2805 H2789 0.930 . S
C2805 C2804 1.377 . S
C2805 C2806 1.379 . S
C2806 H2790 0.931 . S
C2806 C2800 1.383 . S
C2806 C2805 1.379 . S
H2807 C2801 0.959 . S
H2808 C2801 0.961 . S
H2809 C2801 0.960 . S
H2810 C2802 0.930 . S
H2811 C2803 0.929 . S
H2812 C2820 0.929 . S
H2813 C2822 0.930 . S
H2814 C2824 0.930 . S
H2815 C2827 0.929 . S
H2816 C2830 0.930 . S
H2817 C2832 0.960 . S
H2818 C2832 0.960 . S
H2819 C2832 0.960 . S
C2820 H2812 0.929 . S
C2820 C2821 1.377 . S
C2820 C2822 1.384 . S
C2821 C2820 1.377 . S
C2821 C2827 1.390 . S
C2822 H2813 0.930 . S
C2822 C2820 1.384 . S
C2822 C2823 1.372 . S
C2823 C2822 1.372 . S
C2823 C2824 1.400 . S
C2823 C2828 1.490 . S
C2824 H2814 0.930 . S
C2824 C2823 1.400 . S
C2824 C2827 1.386 . S
H2825 C2841 0.930 . S
H2826 C2842 0.931 . S
C2827 H2815 0.929 . S
C2827 C2821 1.390 . S
C2827 C2824 1.386 . S
C2828 C2823 1.490 . S
C2828 C2830 1.395 . S
C2828 C2831 1.403 . S
H2829 C2835 0.930 . S
C2830 H2816 0.930 . S
C2830 C2828 1.395 . S
C2830 C2833 1.403 . S
C2831 C2828 1.403 . S
C2831 C2832 1.524 . S
C2831 C2835 1.400 . S
C2832 H2817 0.960 . S
C2832 H2818 0.960 . S
C2832 H2819 0.960 . S
C2832 C2831 1.524 . S
C2833 C2830 1.403 . S
C2833 C2834 1.392 . S
C2833 C2837 1.495 . S
C2834 C2833 1.392 . S
C2834 C2835 1.385 . S
C2834 C2836 1.478 . S
C2835 H2829 0.930 . S
C2835 C2831 1.400 . S
C2835 C2834 1.385 . S
C2836 C2834 1.478 . S
C2836 C2838 1.381 . S
C2836 C2842 1.383 . S
C2837 C2833 1.495 . S
C2837 H2843 0.959 . S
C2837 H2844 0.961 . S
C2837 H2845 0.960 . S
C2838 C2836 1.381 . S
C2838 C2839 1.394 . S
C2838 H2846 0.930 . S
C2839 C2838 1.394 . S
C2839 C2840 1.383 . S
C2839 H2847 0.929 . S
C2840 C2839 1.383 . S
C2840 C2841 1.377 . S
C2841 H2825 0.930 . S
C2841 C2840 1.377 . S
C2841 C2842 1.379 . S
C2842 H2826 0.931 . S
C2842 C2836 1.383 . S
C2842 C2841 1.379 . S
H2843 C2837 0.959 . S
H2844 C2837 0.961 . S
H2845 C2837 0.960 . S
H2846 C2838 0.930 . S
H2847 C2839 0.929 . S
H2848 C2856 0.929 . S
H2849 C2858 0.930 . S
H2850 C2860 0.930 . S
H2851 C2863 0.929 . S
H2852 C2866 0.930 . S
H2853 C2868 0.960 . S
H2854 C2868 0.960 . S
H2855 C2868 0.960 . S
C2856 H2848 0.929 . S
C2856 C2857 1.377 . S
C2856 C2858 1.384 . S
C2857 C2856 1.377 . S
C2857 C2863 1.390 . S
C2858 H2849 0.930 . S
C2858 C2856 1.384 . S
C2858 C2859 1.372 . S
C2859 C2858 1.372 . S
C2859 C2860 1.400 . S
C2859 C2864 1.490 . S
C2860 H2850 0.930 . S
C2860 C2859 1.400 . S
C2860 C2863 1.386 . S
H2861 C2877 0.930 . S
H2862 C2878 0.931 . S
C2863 H2851 0.929 . S
C2863 C2857 1.390 . S
C2863 C2860 1.386 . S
C2864 C2859 1.490 . S
C2864 C2866 1.395 . S
C2864 C2867 1.403 . S
H2865 C2871 0.930 . S
C2866 H2852 0.930 . S
C2866 C2864 1.395 . S
C2866 C2869 1.403 . S
C2867 C2864 1.403 . S
C2867 C2868 1.524 . S
C2867 C2871 1.400 . S
C2868 H2853 0.960 . S
C2868 H2854 0.960 . S
C2868 H2855 0.960 . S
C2868 C2867 1.524 . S
C2869 C2866 1.403 . S
C2869 C2870 1.392 . S
C2869 C2873 1.495 . S
C2870 C2869 1.392 . S
C2870 C2871 1.385 . S
C2870 C2872 1.478 . S
C2871 H2865 0.930 . S
C2871 C2867 1.400 . S
C2871 C2870 1.385 . S
C2872 C2870 1.478 . S
C2872 C2874 1.381 . S
C2872 C2878 1.383 . S
C2873 C2869 1.495 . S
C2873 H2879 0.959 . S
C2873 H2880 0.961 . S
C2873 H2881 0.960 . S
C2874 C2872 1.381 . S
C2874 C2875 1.394 . S
C2874 H2882 0.930 . S
C2875 C2874 1.394 . S
C2875 C2876 1.383 . S
C2875 H2883 0.929 . S
C2876 C2875 1.383 . S
C2876 C2877 1.377 . S
C2877 H2861 0.930 . S
C2877 C2876 1.377 . S
C2877 C2878 1.379 . S
C2878 H2862 0.931 . S
C2878 C2872 1.383 . S
C2878 C2877 1.379 . S
H2879 C2873 0.959 . S
H2880 C2873 0.961 . S
H2881 C2873 0.960 . S
H2882 C2874 0.930 . S
H2883 C2875 0.929 . S
H2884 C2892 0.929 . S
H2885 C2894 0.930 . S
H2886 C2896 0.930 . S
H2887 C2899 0.929 . S
H2888 C2902 0.930 . S
H2889 C2904 0.960 . S
H2890 C2904 0.960 . S
H2891 C2904 0.960 . S
C2892 H2884 0.929 . S
C2892 C2893 1.377 . S
C2892 C2894 1.384 . S
C2893 C2892 1.377 . S
C2893 C2899 1.390 . S
C2894 H2885 0.930 . S
C2894 C2892 1.384 . S
C2894 C2895 1.372 . S
C2895 C2894 1.372 . S
C2895 C2896 1.400 . S
C2895 C2900 1.490 . S
C2896 H2886 0.930 . S
C2896 C2895 1.400 . S
C2896 C2899 1.386 . S
H2897 C2913 0.930 . S
H2898 C2914 0.931 . S
C2899 H2887 0.929 . S
C2899 C2893 1.390 . S
C2899 C2896 1.386 . S
C2900 C2895 1.490 . S
C2900 C2902 1.395 . S
C2900 C2903 1.403 . S
H2901 C2907 0.930 . S
C2902 H2888 0.930 . S
C2902 C2900 1.395 . S
C2902 C2905 1.403 . S
C2903 C2900 1.403 . S
C2903 C2904 1.524 . S
C2903 C2907 1.400 . S
C2904 H2889 0.960 . S
C2904 H2890 0.960 . S
C2904 H2891 0.960 . S
C2904 C2903 1.524 . S
C2905 C2902 1.403 . S
C2905 C2906 1.392 . S
C2905 C2909 1.495 . S
C2906 C2905 1.392 . S
C2906 C2907 1.385 . S
C2906 C2908 1.478 . S
C2907 H2901 0.930 . S
C2907 C2903 1.400 . S
C2907 C2906 1.385 . S
C2908 C2906 1.478 . S
C2908 C2910 1.381 . S
C2908 C2914 1.383 . S
C2909 C2905 1.495 . S
C2909 H2915 0.959 . S
C2909 H2916 0.961 . S
C2909 H2917 0.960 . S
C2910 C2908 1.381 . S
C2910 C2911 1.394 . S
C2910 H2918 0.930 . S
C2911 C2910 1.394 . S
C2911 C2912 1.383 . S
C2911 H2919 0.929 . S
C2912 C2911 1.383 . S
C2912 C2913 1.377 . S
C2913 H2897 0.930 . S
C2913 C2912 1.377 . S
C2913 C2914 1.379 . S
C2914 H2898 0.931 . S
C2914 C2908 1.383 . S
C2914 C2913 1.379 . S
H2915 C2909 0.959 . S
H2916 C2909 0.961 . S
H2917 C2909 0.960 . S
H2918 C2910 0.930 . S
H2919 C2911 0.929 . S
H2920 C2928 0.929 . S
H2921 C2930 0.930 . S
H2922 C2932 0.930 . S
H2923 C2935 0.929 1_655 S
H2924 C2938 0.930 . S
H2925 C2940 0.960 . S
H2926 C2940 0.960 . S
H2927 C2940 0.960 . S
C2928 H2920 0.929 . S
C2928 C2929 1.377 1_455 S
C2928 C2930 1.384 . S
C2929 C2928 1.377 1_655 S
C2929 C2935 1.390 1_655 S
C2930 H2921 0.930 . S
C2930 C2928 1.384 . S
C2930 C2931 1.372 . S
C2931 C2930 1.372 . S
C2931 C2932 1.400 . S
C2931 C2936 1.490 . S
C2932 H2922 0.930 . S
C2932 C2931 1.400 . S
C2932 C2935 1.386 . S
H2933 C2949 0.930 . S
H2934 C2950 0.931 . S
C2935 H2923 0.929 1_455 S
C2935 C2929 1.390 1_455 S
C2935 C2932 1.386 . S
C2936 C2931 1.490 . S
C2936 C2938 1.395 . S
C2936 C2939 1.403 . S
H2937 C2943 0.930 . S
C2938 H2924 0.930 . S
C2938 C2936 1.395 . S
C2938 C2941 1.403 . S
C2939 C2936 1.403 . S
C2939 C2940 1.524 . S
C2939 C2943 1.400 . S
C2940 H2925 0.960 . S
C2940 H2926 0.960 . S
C2940 H2927 0.960 . S
C2940 C2939 1.524 . S
C2941 C2938 1.403 . S
C2941 C2942 1.392 . S
C2941 C2945 1.495 . S
C2942 C2941 1.392 . S
C2942 C2943 1.385 . S
C2942 C2944 1.478 . S
C2943 H2937 0.930 . S
C2943 C2939 1.400 . S
C2943 C2942 1.385 . S
C2944 C2942 1.478 . S
C2944 C2946 1.381 . S
C2944 C2950 1.383 . S
C2945 C2941 1.495 . S
C2945 H2951 0.959 . S
C2945 H2952 0.961 1_556 S
C2945 H2953 0.960 . S
C2946 C2944 1.381 . S
C2946 C2947 1.394 . S
C2946 H2954 0.930 . S
C2947 C2946 1.394 . S
C2947 C2948 1.383 . S
C2947 H2955 0.929 . S
C2948 C2947 1.383 . S
C2948 C2949 1.377 . S
C2949 H2933 0.930 . S
C2949 C2948 1.377 . S
C2949 C2950 1.379 . S
C2950 H2934 0.931 . S
C2950 C2944 1.383 . S
C2950 C2949 1.379 . S
H2951 C2945 0.959 . S
H2952 C2945 0.961 1_554 S
H2953 C2945 0.960 . S
H2954 C2946 0.930 . S
H2955 C2947 0.929 . S
H2956 C2964 0.929 . S
H2957 C2966 0.930 . S
H2958 C2968 0.930 . S
H2959 C2971 0.929 . S
H2960 C2974 0.930 . S
H2961 C2976 0.960 . S
H2962 C2976 0.960 . S
H2963 C2976 0.960 . S
C2964 H2956 0.929 . S
C2964 C2965 1.377 . S
C2964 C2966 1.384 . S
C2965 C2964 1.377 . S
C2965 C2971 1.390 . S
C2966 H2957 0.930 . S
C2966 C2964 1.384 . S
C2966 C2967 1.372 . S
C2967 C2966 1.372 . S
C2967 C2968 1.400 . S
C2967 C2972 1.490 . S
C2968 H2958 0.930 . S
C2968 C2967 1.400 . S
C2968 C2971 1.386 . S
H2969 C2985 0.930 . S
H2970 C2986 0.931 . S
C2971 H2959 0.929 . S
C2971 C2965 1.390 . S
C2971 C2968 1.386 . S
C2972 C2967 1.490 . S
C2972 C2974 1.395 . S
C2972 C2975 1.403 . S
H2973 C2979 0.930 . S
C2974 H2960 0.930 . S
C2974 C2972 1.395 . S
C2974 C2977 1.403 . S
C2975 C2972 1.403 . S
C2975 C2976 1.524 . S
C2975 C2979 1.400 . S
C2976 H2961 0.960 . S
C2976 H2962 0.960 . S
C2976 H2963 0.960 . S
C2976 C2975 1.524 . S
C2977 C2974 1.403 . S
C2977 C2978 1.392 . S
C2977 C2981 1.495 . S
C2978 C2977 1.392 . S
C2978 C2979 1.385 . S
C2978 C2980 1.478 . S
C2979 H2973 0.930 . S
C2979 C2975 1.400 . S
C2979 C2978 1.385 . S
C2980 C2978 1.478 . S
C2980 C2982 1.381 . S
C2980 C2986 1.383 . S
C2981 C2977 1.495 . S
C2981 H2987 0.959 . S
C2981 H2988 0.961 . S
C2981 H2989 0.960 . S
C2982 C2980 1.381 . S
C2982 C2983 1.394 . S
C2982 H2990 0.930 . S
C2983 C2982 1.394 . S
C2983 C2984 1.383 . S
C2983 H2991 0.929 . S
C2984 C2983 1.383 . S
C2984 C2985 1.377 . S
C2985 H2969 0.930 . S
C2985 C2984 1.377 . S
C2985 C2986 1.379 . S
C2986 H2970 0.931 . S
C2986 C2980 1.383 . S
C2986 C2985 1.379 . S
H2987 C2981 0.959 . S
H2988 C2981 0.961 . S
H2989 C2981 0.960 . S
H2990 C2982 0.930 . S
H2991 C2983 0.929 . S
H2992 C3000 0.929 . S
H2993 C3002 0.930 . S
H2994 C3004 0.930 . S
H2995 C3007 0.929 1_455 S
H2996 C3010 0.930 . S
H2997 C3012 0.960 . S
H2998 C3012 0.960 . S
H2999 C3012 0.960 . S
C3000 H2992 0.929 . S
C3000 C3001 1.377 1_655 S
C3000 C3002 1.384 . S
C3001 C3000 1.377 1_455 S
C3001 C3007 1.390 1_455 S
C3002 H2993 0.930 . S
C3002 C3000 1.384 . S
C3002 C3003 1.372 . S
C3003 C3002 1.372 . S
C3003 C3004 1.400 . S
C3003 C3008 1.490 . S
C3004 H2994 0.930 . S
C3004 C3003 1.400 . S
C3004 C3007 1.386 . S
H3005 C3021 0.928 . S
H3006 C3022 0.931 . S
C3007 H2995 0.929 1_655 S
C3007 C3001 1.390 1_655 S
C3007 C3004 1.386 . S
C3008 C3003 1.490 . S
C3008 C3010 1.395 . S
C3008 C3011 1.403 . S
H3009 C3015 0.930 . S
C3010 H2996 0.930 . S
C3010 C3008 1.395 . S
C3010 C3013 1.403 . S
C3011 C3008 1.403 . S
C3011 C3012 1.524 . S
C3011 C3015 1.400 . S
C3012 H2997 0.960 . S
C3012 H2998 0.960 . S
C3012 H2999 0.960 . S
C3012 C3011 1.524 . S
C3013 C3010 1.403 . S
C3013 C3014 1.392 . S
C3013 C3017 1.495 . S
C3014 C3013 1.392 . S
C3014 C3015 1.385 . S
C3014 C3016 1.478 . S
C3015 H3009 0.930 . S
C3015 C3011 1.400 . S
C3015 C3014 1.385 . S
C3016 C3014 1.478 . S
C3016 C3018 1.381 . S
C3016 C3022 1.383 . S
C3017 C3013 1.495 . S
C3017 H3023 0.959 . S
C3017 H3024 0.961 . S
C3017 H3025 0.960 . S
C3018 C3016 1.381 . S
C3018 C3019 1.394 . S
C3018 H3026 0.930 . S
C3019 C3018 1.394 . S
C3019 C3020 1.383 . S
C3019 H3027 0.929 . S
C3020 C3019 1.383 . S
C3020 C3021 1.377 . S
C3021 H3005 0.928 . S
C3021 C3020 1.377 . S
C3021 C3022 1.379 . S
C3022 H3006 0.931 . S
C3022 C3016 1.383 . S
C3022 C3021 1.379 . S
H3023 C3017 0.959 . S
H3024 C3017 0.961 . S
H3025 C3017 0.960 . S
H3026 C3018 0.930 . S
H3027 C3019 0.929 . S
H3028 C3036 0.929 . S
H3029 C3038 0.930 . S
H3030 C3040 0.930 . S
H3031 C3043 0.929 . S
H3032 C3046 0.930 . S
H3033 C3048 0.960 . S
H3034 C3048 0.960 . S
H3035 C3048 0.960 . S
C3036 H3028 0.929 . S
C3036 C3037 1.377 . S
C3036 C3038 1.384 . S
C3037 C3036 1.377 . S
C3037 C3043 1.390 . S
C3038 H3029 0.930 . S
C3038 C3036 1.384 . S
C3038 C3039 1.372 . S
C3039 C3038 1.372 . S
C3039 C3040 1.400 . S
C3039 C3044 1.490 . S
C3040 H3030 0.930 . S
C3040 C3039 1.400 . S
C3040 C3043 1.386 . S
H3041 C3057 0.930 . S
H3042 C3058 0.931 . S
C3043 H3031 0.929 . S
C3043 C3037 1.390 . S
C3043 C3040 1.386 . S
C3044 C3039 1.490 . S
C3044 C3046 1.395 . S
C3044 C3047 1.403 . S
H3045 C3051 0.930 . S
C3046 H3032 0.930 . S
C3046 C3044 1.395 . S
C3046 C3049 1.403 . S
C3047 C3044 1.403 . S
C3047 C3048 1.524 . S
C3047 C3051 1.400 . S
C3048 H3033 0.960 . S
C3048 H3034 0.960 . S
C3048 H3035 0.960 . S
C3048 C3047 1.524 . S
C3049 C3046 1.403 . S
C3049 C3050 1.392 . S
C3049 C3053 1.495 . S
C3050 C3049 1.392 . S
C3050 C3051 1.385 . S
C3050 C3052 1.478 . S
C3051 H3045 0.930 . S
C3051 C3047 1.400 . S
C3051 C3050 1.385 . S
C3052 C3050 1.478 . S
C3052 C3054 1.381 . S
C3052 C3058 1.383 . S
C3053 C3049 1.495 . S
C3053 H3059 0.959 . S
C3053 H3060 0.961 . S
C3053 H3061 0.960 . S
C3054 C3052 1.381 . S
C3054 C3055 1.394 . S
C3054 H3062 0.930 . S
C3055 C3054 1.394 . S
C3055 C3056 1.383 . S
C3055 H3063 0.929 . S
C3056 C3055 1.383 . S
C3056 C3057 1.377 . S
C3057 H3041 0.930 . S
C3057 C3056 1.377 . S
C3057 C3058 1.379 . S
C3058 H3042 0.931 . S
C3058 C3052 1.383 . S
C3058 C3057 1.379 . S
H3059 C3053 0.959 . S
H3060 C3053 0.961 . S
H3061 C3053 0.960 . S
H3062 C3054 0.930 . S
H3063 C3055 0.929 . S
H3064 C3072 0.929 . S
H3065 C3074 0.930 . S
H3066 C3076 0.930 . S
H3067 C3079 0.929 . S
H3068 C3082 0.930 . S
H3069 C3084 0.960 . S
H3070 C3084 0.960 . S
H3071 C3084 0.960 . S
C3072 H3064 0.929 . S
C3072 C3073 1.377 . S
C3072 C3074 1.384 . S
C3073 C3072 1.377 . S
C3073 C3079 1.390 . S
C3074 H3065 0.930 . S
C3074 C3072 1.384 . S
C3074 C3075 1.372 . S
C3075 C3074 1.372 . S
C3075 C3076 1.400 . S
C3075 C3080 1.490 . S
C3076 H3066 0.930 . S
C3076 C3075 1.400 . S
C3076 C3079 1.386 . S
H3077 C3093 0.930 . S
H3078 C3094 0.931 . S
C3079 H3067 0.929 . S
C3079 C3073 1.390 . S
C3079 C3076 1.386 . S
C3080 C3075 1.490 . S
C3080 C3082 1.395 . S
C3080 C3083 1.403 . S
H3081 C3087 0.930 . S
C3082 H3068 0.930 . S
C3082 C3080 1.395 . S
C3082 C3085 1.403 . S
C3083 C3080 1.403 . S
C3083 C3084 1.524 . S
C3083 C3087 1.400 . S
C3084 H3069 0.960 . S
C3084 H3070 0.960 . S
C3084 H3071 0.960 . S
C3084 C3083 1.524 . S
C3085 C3082 1.403 . S
C3085 C3086 1.392 . S
C3085 C3089 1.495 . S
C3086 C3085 1.392 . S
C3086 C3087 1.385 . S
C3086 C3088 1.478 . S
C3087 H3081 0.930 . S
C3087 C3083 1.400 . S
C3087 C3086 1.385 . S
C3088 C3086 1.478 . S
C3088 C3090 1.381 . S
C3088 C3094 1.383 . S
C3089 C3085 1.495 . S
C3089 H3095 0.959 . S
C3089 H3096 0.961 . S
C3089 H3097 0.960 . S
C3090 C3088 1.381 . S
C3090 C3091 1.394 . S
C3090 H3098 0.930 . S
C3091 C3090 1.394 . S
C3091 C3092 1.383 . S
C3091 H3099 0.929 . S
C3092 C3091 1.383 . S
C3092 C3093 1.377 . S
C3093 H3077 0.930 . S
C3093 C3092 1.377 . S
C3093 C3094 1.379 . S
C3094 H3078 0.931 . S
C3094 C3088 1.383 . S
C3094 C3093 1.379 . S
H3095 C3089 0.959 . S
H3096 C3089 0.961 . S
H3097 C3089 0.960 . S
H3098 C3090 0.930 . S
H3099 C3091 0.929 . S
H3100 C3108 0.894 1_554 S
H3101 C3110 0.930 . S
H3102 C3112 0.930 . S
H3103 C3115 0.929 . S
H3104 C3118 0.930 . S
H3105 C3120 0.960 . S
H3106 C3120 0.960 . S
H3107 C3120 0.960 . S
C3108 H3100 0.894 1_556 S
C3108 C3109 1.369 1_556 S
C3108 C3110 1.429 . S
C3109 C3108 1.369 1_554 S
C3109 C3115 1.390 1_554 S
C3110 H3101 0.930 . S
C3110 C3108 1.429 . S
C3110 C3111 1.372 . S
C3111 C3110 1.372 . S
C3111 C3112 1.400 . S
C3111 C3116 1.490 . S
C3112 H3102 0.930 . S
C3112 C3111 1.400 . S
C3112 C3115 1.386 . S
H3113 C3129 0.930 . S
H3114 C3130 0.931 . S
C3115 H3103 0.929 . S
C3115 C3109 1.390 1_556 S
C3115 C3112 1.386 . S
C3116 C3111 1.490 . S
C3116 C3118 1.395 . S
C3116 C3119 1.403 . S
H3117 C3123 0.930 . S
C3118 H3104 0.930 . S
C3118 C3116 1.395 . S
C3118 C3121 1.403 . S
C3119 C3116 1.403 . S
C3119 C3120 1.524 . S
C3119 C3123 1.400 . S
C3120 H3105 0.960 . S
C3120 H3106 0.960 . S
C3120 H3107 0.960 . S
C3120 C3119 1.524 . S
C3121 C3118 1.403 . S
C3121 C3122 1.392 . S
C3121 C3125 1.495 . S
C3122 C3121 1.392 . S
C3122 C3123 1.385 . S
C3122 C3124 1.478 . S
C3123 H3117 0.930 . S
C3123 C3119 1.400 . S
C3123 C3122 1.385 . S
C3124 C3122 1.478 . S
C3124 C3126 1.381 . S
C3124 C3130 1.383 . S
C3125 C3121 1.495 . S
C3125 H3131 0.959 . S
C3125 H3132 0.961 . S
C3125 H3133 0.960 . S
C3126 C3124 1.381 . S
C3126 C3127 1.394 . S
C3126 H3134 0.930 . S
C3127 C3126 1.394 . S
C3127 C3128 1.383 . S
C3127 H3135 0.929 . S
C3128 C3127 1.383 . S
C3128 C3129 1.377 . S
C3129 H3113 0.930 . S
C3129 C3128 1.377 . S
C3129 C3130 1.379 . S
C3130 H3114 0.931 . S
C3130 C3124 1.383 . S
C3130 C3129 1.379 . S
H3131 C3125 0.959 . S
H3132 C3125 0.961 . S
H3133 C3125 0.960 . S
H3134 C3126 0.930 . S
H3135 C3127 0.929 . S
H3136 C3144 0.929 . S
H3137 C3146 0.930 . S
H3138 C3148 0.930 . S
H3139 C3151 0.929 . S
H3140 C3154 0.930 . S
H3141 C3156 0.960 . S
H3142 C3156 0.960 . S
H3143 C3156 0.960 . S
C3144 H3136 0.929 . S
C3144 C3145 1.377 . S
C3144 C3146 1.384 . S
C3145 C3144 1.377 . S
C3145 C3151 1.390 . S
C3146 H3137 0.930 . S
C3146 C3144 1.384 . S
C3146 C3147 1.372 . S
C3147 C3146 1.372 . S
C3147 C3148 1.400 . S
C3147 C3152 1.490 . S
C3148 H3138 0.930 . S
C3148 C3147 1.400 . S
C3148 C3151 1.386 . S
H3149 C3165 0.930 . S
H3150 C3166 0.931 . S
C3151 H3139 0.929 . S
C3151 C3145 1.390 . S
C3151 C3148 1.386 . S
C3152 C3147 1.490 . S
C3152 C3154 1.395 . S
C3152 C3155 1.403 . S
H3153 C3159 0.930 . S
C3154 H3140 0.930 . S
C3154 C3152 1.395 . S
C3154 C3157 1.403 . S
C3155 C3152 1.403 . S
C3155 C3156 1.524 . S
C3155 C3159 1.400 . S
C3156 H3141 0.960 . S
C3156 H3142 0.960 . S
C3156 H3143 0.960 . S
C3156 C3155 1.524 . S
C3157 C3154 1.403 . S
C3157 C3158 1.392 . S
C3157 C3161 1.495 . S
C3158 C3157 1.392 . S
C3158 C3159 1.385 . S
C3158 C3160 1.478 . S
C3159 H3153 0.930 . S
C3159 C3155 1.400 . S
C3159 C3158 1.385 . S
C3160 C3158 1.478 . S
C3160 C3162 1.381 . S
C3160 C3166 1.383 . S
C3161 C3157 1.495 . S
C3161 H3167 0.959 . S
C3161 H3168 0.961 . S
C3161 H3169 0.960 . S
C3162 C3160 1.381 . S
C3162 C3163 1.394 . S
C3162 H3170 0.930 . S
C3163 C3162 1.394 . S
C3163 C3164 1.383 . S
C3163 H3171 0.929 . S
C3164 C3163 1.383 . S
C3164 C3165 1.377 . S
C3165 H3149 0.930 . S
C3165 C3164 1.377 . S
C3165 C3166 1.379 . S
C3166 H3150 0.931 . S
C3166 C3160 1.383 . S
C3166 C3165 1.379 . S
H3167 C3161 0.959 . S
H3168 C3161 0.961 . S
H3169 C3161 0.960 . S
H3170 C3162 0.930 . S
H3171 C3163 0.929 . S
H3172 C3180 0.929 . S
H3173 C3182 0.930 . S
H3174 C3184 0.930 . S
H3175 C3187 0.929 . S
H3176 C3190 0.930 . S
H3177 C3192 0.960 . S
H3178 C3192 0.960 . S
H3179 C3192 0.960 . S
C3180 H3172 0.929 . S
C3180 C3181 1.377 . S
C3180 C3182 1.384 . S
C3181 C3180 1.377 . S
C3181 C3187 1.390 . S
C3182 H3173 0.930 . S
C3182 C3180 1.384 . S
C3182 C3183 1.372 . S
C3183 C3182 1.372 . S
C3183 C3184 1.400 . S
C3183 C3188 1.490 . S
C3184 H3174 0.930 . S
C3184 C3183 1.400 . S
C3184 C3187 1.386 . S
H3185 C3201 0.930 . S
H3186 C3202 0.931 . S
C3187 H3175 0.929 . S
C3187 C3181 1.390 . S
C3187 C3184 1.386 . S
C3188 C3183 1.490 . S
C3188 C3190 1.395 . S
C3188 C3191 1.403 . S
H3189 C3195 0.930 . S
C3190 H3176 0.930 . S
C3190 C3188 1.395 . S
C3190 C3193 1.403 . S
C3191 C3188 1.403 . S
C3191 C3192 1.524 . S
C3191 C3195 1.400 . S
C3192 H3177 0.960 . S
C3192 H3178 0.960 . S
C3192 H3179 0.960 . S
C3192 C3191 1.524 . S
C3193 C3190 1.403 . S
C3193 C3194 1.392 . S
C3193 C3197 1.495 . S
C3194 C3193 1.392 . S
C3194 C3195 1.385 . S
C3194 C3196 1.478 . S
C3195 H3189 0.930 . S
C3195 C3191 1.400 . S
C3195 C3194 1.385 . S
C3196 C3194 1.478 . S
C3196 C3198 1.381 . S
C3196 C3202 1.383 . S
C3197 C3193 1.495 . S
C3197 H3203 0.959 . S
C3197 H3204 0.961 . S
C3197 H3205 0.960 . S
C3198 C3196 1.381 . S
C3198 C3199 1.394 . S
C3198 H3206 0.930 . S
C3199 C3198 1.394 . S
C3199 C3200 1.383 . S
C3199 H3207 0.929 . S
C3200 C3199 1.383 . S
C3200 C3201 1.377 . S
C3201 H3185 0.930 . S
C3201 C3200 1.377 . S
C3201 C3202 1.379 . S
C3202 H3186 0.931 . S
C3202 C3196 1.383 . S
C3202 C3201 1.379 . S
H3203 C3197 0.959 . S
H3204 C3197 0.961 . S
H3205 C3197 0.960 . S
H3206 C3198 0.930 . S
H3207 C3199 0.929 . S
H3208 C3216 0.929 . S
H3209 C3218 0.930 . S
H3210 C3220 0.930 . S
H3211 C3223 0.929 . S
H3212 C3226 0.930 . S
H3213 C3228 0.960 . S
H3214 C3228 0.960 . S
H3215 C3228 0.960 . S
C3216 H3208 0.929 . S
C3216 C3217 1.377 . S
C3216 C3218 1.384 . S
C3217 C3216 1.377 . S
C3217 C3223 1.390 . S
C3218 H3209 0.930 . S
C3218 C3216 1.384 . S
C3218 C3219 1.372 . S
C3219 C3218 1.372 . S
C3219 C3220 1.400 . S
C3219 C3224 1.490 . S
C3220 H3210 0.930 . S
C3220 C3219 1.400 . S
C3220 C3223 1.386 . S
H3221 C3237 0.930 . S
H3222 C3238 0.931 . S
C3223 H3211 0.929 . S
C3223 C3217 1.390 . S
C3223 C3220 1.386 . S
C3224 C3219 1.490 . S
C3224 C3226 1.395 . S
C3224 C3227 1.403 . S
H3225 C3231 0.930 . S
C3226 H3212 0.930 . S
C3226 C3224 1.395 . S
C3226 C3229 1.403 . S
C3227 C3224 1.403 . S
C3227 C3228 1.524 . S
C3227 C3231 1.400 . S
C3228 H3213 0.960 . S
C3228 H3214 0.960 . S
C3228 H3215 0.960 . S
C3228 C3227 1.524 . S
C3229 C3226 1.403 . S
C3229 C3230 1.392 . S
C3229 C3233 1.495 . S
C3230 C3229 1.392 . S
C3230 C3231 1.385 . S
C3230 C3232 1.478 . S
C3231 H3225 0.930 . S
C3231 C3227 1.400 . S
C3231 C3230 1.385 . S
C3232 C3230 1.478 . S
C3232 C3234 1.381 . S
C3232 C3238 1.383 . S
C3233 C3229 1.495 . S
C3233 H3239 0.959 . S
C3233 H3240 0.961 . S
C3233 H3241 0.960 . S
C3234 C3232 1.381 . S
C3234 C3235 1.394 . S
C3234 H3242 0.930 . S
C3235 C3234 1.394 . S
C3235 C3236 1.383 . S
C3235 H3243 0.929 . S
C3236 C3235 1.383 . S
C3236 C3237 1.377 . S
C3237 H3221 0.930 . S
C3237 C3236 1.377 . S
C3237 C3238 1.379 . S
C3238 H3222 0.931 . S
C3238 C3232 1.383 . S
C3238 C3237 1.379 . S
H3239 C3233 0.959 . S
H3240 C3233 0.961 . S
H3241 C3233 0.960 . S
H3242 C3234 0.930 . S
H3243 C3235 0.929 . S
H3244 C3252 0.929 . S
H3245 C3254 0.930 . S
H3246 C3256 0.930 . S
H3247 C3259 0.929 . S
H3248 C3262 0.930 . S
H3249 C3264 0.960 . S
H3250 C3264 0.960 . S
H3251 C3264 0.960 . S
C3252 H3244 0.929 . S
C3252 C3253 1.377 . S
C3252 C3254 1.384 . S
C3253 C3252 1.377 . S
C3253 C3259 1.390 . S
C3254 H3245 0.930 . S
C3254 C3252 1.384 . S
C3254 C3255 1.372 . S
C3255 C3254 1.372 . S
C3255 C3256 1.400 . S
C3255 C3260 1.490 . S
C3256 H3246 0.930 . S
C3256 C3255 1.400 . S
C3256 C3259 1.386 . S
H3257 C3273 0.930 . S
H3258 C3274 0.931 . S
C3259 H3247 0.929 . S
C3259 C3253 1.390 . S
C3259 C3256 1.386 . S
C3260 C3255 1.490 . S
C3260 C3262 1.395 . S
C3260 C3263 1.403 . S
H3261 C3267 0.930 . S
C3262 H3248 0.930 . S
C3262 C3260 1.395 . S
C3262 C3265 1.403 . S
C3263 C3260 1.403 . S
C3263 C3264 1.524 . S
C3263 C3267 1.400 . S
C3264 H3249 0.960 . S
C3264 H3250 0.960 . S
C3264 H3251 0.960 . S
C3264 C3263 1.524 . S
C3265 C3262 1.403 . S
C3265 C3266 1.392 . S
C3265 C3269 1.495 . S
C3266 C3265 1.392 . S
C3266 C3267 1.385 . S
C3266 C3268 1.478 . S
C3267 H3261 0.930 . S
C3267 C3263 1.400 . S
C3267 C3266 1.385 . S
C3268 C3266 1.478 . S
C3268 C3270 1.381 . S
C3268 C3274 1.383 . S
C3269 C3265 1.495 . S
C3269 H3275 0.959 . S
C3269 H3276 0.961 . S
C3269 H3277 0.960 . S
C3270 C3268 1.381 . S
C3270 C3271 1.394 . S
C3270 H3278 0.930 . S
C3271 C3270 1.394 . S
C3271 C3272 1.383 . S
C3271 H3279 0.929 . S
C3272 C3271 1.383 . S
C3272 C3273 1.377 . S
C3273 H3257 0.930 . S
C3273 C3272 1.377 . S
C3273 C3274 1.379 . S
C3274 H3258 0.931 . S
C3274 C3268 1.383 . S
C3274 C3273 1.379 . S
H3275 C3269 0.959 . S
H3276 C3269 0.961 . S
H3277 C3269 0.960 . S
H3278 C3270 0.930 . S
H3279 C3271 0.929 . S
H3280 C3288 0.929 . S
H3281 C3290 0.930 . S
H3282 C3292 0.930 . S
H3283 C3295 0.929 . S
H3284 C3298 0.930 . S
H3285 C3300 0.960 . S
H3286 C3300 0.960 . S
H3287 C3300 0.960 . S
C3288 H3280 0.929 . S
C3288 C3289 1.377 . S
C3288 C3290 1.384 . S
C3289 C3288 1.377 . S
C3289 C3295 1.390 . S
C3290 H3281 0.930 . S
C3290 C3288 1.384 . S
C3290 C3291 1.372 . S
C3291 C3290 1.372 . S
C3291 C3292 1.400 . S
C3291 C3296 1.490 . S
C3292 H3282 0.930 . S
C3292 C3291 1.400 . S
C3292 C3295 1.386 . S
H3293 C3309 0.930 . S
H3294 C3310 0.931 . S
C3295 H3283 0.929 . S
C3295 C3289 1.390 . S
C3295 C3292 1.386 . S
C3296 C3291 1.490 . S
C3296 C3298 1.395 . S
C3296 C3299 1.403 . S
H3297 C3303 0.930 . S
C3298 H3284 0.930 . S
C3298 C3296 1.395 . S
C3298 C3301 1.403 . S
C3299 C3296 1.403 . S
C3299 C3300 1.524 . S
C3299 C3303 1.400 . S
C3300 H3285 0.960 . S
C3300 H3286 0.960 . S
C3300 H3287 0.960 . S
C3300 C3299 1.524 . S
C3301 C3298 1.403 . S
C3301 C3302 1.392 . S
C3301 C3305 1.495 . S
C3302 C3301 1.392 . S
C3302 C3303 1.385 . S
C3302 C3304 1.478 . S
C3303 H3297 0.930 . S
C3303 C3299 1.400 . S
C3303 C3302 1.385 . S
C3304 C3302 1.478 . S
C3304 C3306 1.381 . S
C3304 C3310 1.383 . S
C3305 C3301 1.495 . S
C3305 H3311 0.959 . S
C3305 H3312 0.961 . S
C3305 H3313 0.960 . S
C3306 C3304 1.381 . S
C3306 C3307 1.394 . S
C3306 H3314 0.930 . S
C3307 C3306 1.394 . S
C3307 C3308 1.383 . S
C3307 H3315 0.929 . S
C3308 C3307 1.383 . S
C3308 C3309 1.377 . S
C3309 H3293 0.930 . S
C3309 C3308 1.377 . S
C3309 C3310 1.379 . S
C3310 H3294 0.931 . S
C3310 C3304 1.383 . S
C3310 C3309 1.379 . S
H3311 C3305 0.959 . S
H3312 C3305 0.961 . S
H3313 C3305 0.960 . S
H3314 C3306 0.930 . S
H3315 C3307 0.929 . S
H3316 C3324 0.929 . S
H3317 C3326 0.930 . S
H3318 C3328 0.930 . S
H3319 C3331 0.929 . S
H3320 C3334 0.930 . S
H3321 C3336 0.960 . S
H3322 C3336 0.960 . S
H3323 C3336 0.960 . S
C3324 H3316 0.929 . S
C3324 C3325 1.377 . S
C3324 C3326 1.384 . S
C3325 C3324 1.377 . S
C3325 C3331 1.390 . S
C3326 H3317 0.930 . S
C3326 C3324 1.384 . S
C3326 C3327 1.372 . S
C3327 C3326 1.372 . S
C3327 C3328 1.400 . S
C3327 C3332 1.490 . S
C3328 H3318 0.930 . S
C3328 C3327 1.400 . S
C3328 C3331 1.386 . S
H3329 C3345 0.930 . S
H3330 C3346 0.931 . S
C3331 H3319 0.929 . S
C3331 C3325 1.390 . S
C3331 C3328 1.386 . S
C3332 C3327 1.490 . S
C3332 C3334 1.395 . S
C3332 C3335 1.403 . S
H3333 C3339 0.930 . S
C3334 H3320 0.930 . S
C3334 C3332 1.395 . S
C3334 C3337 1.403 . S
C3335 C3332 1.403 . S
C3335 C3336 1.524 . S
C3335 C3339 1.400 . S
C3336 H3321 0.960 . S
C3336 H3322 0.960 . S
C3336 H3323 0.960 . S
C3336 C3335 1.524 . S
C3337 C3334 1.403 . S
C3337 C3338 1.392 . S
C3337 C3341 1.495 . S
C3338 C3337 1.392 . S
C3338 C3339 1.385 . S
C3338 C3340 1.478 . S
C3339 H3333 0.930 . S
C3339 C3335 1.400 . S
C3339 C3338 1.385 . S
C3340 C3338 1.478 . S
C3340 C3342 1.381 . S
C3340 C3346 1.383 . S
C3341 C3337 1.495 . S
C3341 H3347 0.959 . S
C3341 H3348 0.961 . S
C3341 H3349 0.960 . S
C3342 C3340 1.381 . S
C3342 C3343 1.394 . S
C3342 H3350 0.930 . S
C3343 C3342 1.394 . S
C3343 C3344 1.383 . S
C3343 H3351 0.929 . S
C3344 C3343 1.383 . S
C3344 C3345 1.377 . S
C3345 H3329 0.930 . S
C3345 C3344 1.377 . S
C3345 C3346 1.379 . S
C3346 H3330 0.931 . S
C3346 C3340 1.383 . S
C3346 C3345 1.379 . S
H3347 C3341 0.959 . S
H3348 C3341 0.961 . S
H3349 C3341 0.960 . S
H3350 C3342 0.930 . S
H3351 C3343 0.929 . S
H3352 C3360 0.929 . S
H3353 C3362 0.930 . S
H3354 C3364 0.930 . S
H3355 C3367 0.929 . S
H3356 C3370 0.930 . S
H3357 C3372 0.960 . S
H3358 C3372 0.960 . S
H3359 C3372 0.960 . S
C3360 H3352 0.929 . S
C3360 C3361 1.365 1_545 S
C3360 C3362 1.384 . S
C3361 C3360 1.365 1_565 S
C3361 C3367 1.378 1_565 S
C3362 H3353 0.930 . S
C3362 C3360 1.384 . S
C3362 C3363 1.372 . S
C3363 C3362 1.372 . S
C3363 C3364 1.400 . S
C3363 C3368 1.490 . S
C3364 H3354 0.930 . S
C3364 C3363 1.400 . S
C3364 C3367 1.386 . S
H3365 C3381 0.930 . S
H3366 C3382 0.931 . S
C3367 H3355 0.929 . S
C3367 C3361 1.378 1_545 S
C3367 C3364 1.386 . S
C3368 C3363 1.490 . S
C3368 C3370 1.395 . S
C3368 C3371 1.403 . S
H3369 C3375 0.930 . S
C3370 H3356 0.930 . S
C3370 C3368 1.395 . S
C3370 C3373 1.403 . S
C3371 C3368 1.403 . S
C3371 C3372 1.524 . S
C3371 C3375 1.400 . S
C3372 H3357 0.960 . S
C3372 H3358 0.960 . S
C3372 H3359 0.960 . S
C3372 C3371 1.524 . S
C3373 C3370 1.403 . S
C3373 C3374 1.392 . S
C3373 C3377 1.495 . S
C3374 C3373 1.392 . S
C3374 C3375 1.385 . S
C3374 C3376 1.478 . S
C3375 H3369 0.930 . S
C3375 C3371 1.400 . S
C3375 C3374 1.385 . S
C3376 C3374 1.478 . S
C3376 C3378 1.381 . S
C3376 C3382 1.383 . S
C3377 C3373 1.495 . S
C3377 H3383 0.959 . S
C3377 H3384 0.961 . S
C3377 H3385 0.960 . S
C3378 C3376 1.381 . S
C3378 C3379 1.394 . S
C3378 H3386 0.930 . S
C3379 C3378 1.394 . S
C3379 C3380 1.383 . S
C3379 H3387 0.929 . S
C3380 C3379 1.383 . S
C3380 C3381 1.377 . S
C3381 H3365 0.930 . S
C3381 C3380 1.377 . S
C3381 C3382 1.379 . S
C3382 H3366 0.931 . S
C3382 C3376 1.383 . S
C3382 C3381 1.379 . S
H3383 C3377 0.959 . S
H3384 C3377 0.961 . S
H3385 C3377 0.960 . S
H3386 C3378 0.930 . S
H3387 C3379 0.929 . S
H3388 C3396 0.929 . S
H3389 C3398 0.930 . S
H3390 C3400 0.930 . S
H3391 C3403 0.929 . S
H3392 C3406 0.930 . S
H3393 C3408 0.960 . S
H3394 C3408 0.960 . S
H3395 C3408 0.960 . S
C3396 H3388 0.929 . S
C3396 C3397 1.377 . S
C3396 C3398 1.384 . S
C3397 C3396 1.377 . S
C3397 C3403 1.390 . S
C3398 H3389 0.930 . S
C3398 C3396 1.384 . S
C3398 C3399 1.372 . S
C3399 C3398 1.372 . S
C3399 C3400 1.400 . S
C3399 C3404 1.490 . S
C3400 H3390 0.930 . S
C3400 C3399 1.400 . S
C3400 C3403 1.386 . S
H3401 C3417 0.930 . S
H3402 C3418 0.931 . S
C3403 H3391 0.929 . S
C3403 C3397 1.390 . S
C3403 C3400 1.386 . S
C3404 C3399 1.490 . S
C3404 C3406 1.395 . S
C3404 C3407 1.403 . S
H3405 C3411 0.930 . S
C3406 H3392 0.930 . S
C3406 C3404 1.395 . S
C3406 C3409 1.403 . S
C3407 C3404 1.403 . S
C3407 C3408 1.524 . S
C3407 C3411 1.400 . S
C3408 H3393 0.960 . S
C3408 H3394 0.960 . S
C3408 H3395 0.960 . S
C3408 C3407 1.524 . S
C3409 C3406 1.403 . S
C3409 C3410 1.392 . S
C3409 C3413 1.495 . S
C3410 C3409 1.392 . S
C3410 C3411 1.385 . S
C3410 C3412 1.478 . S
C3411 H3405 0.930 . S
C3411 C3407 1.400 . S
C3411 C3410 1.385 . S
C3412 C3410 1.478 . S
C3412 C3414 1.381 . S
C3412 C3418 1.383 . S
C3413 C3409 1.495 . S
C3413 H3419 0.959 . S
C3413 H3420 0.961 . S
C3413 H3421 0.960 . S
C3414 C3412 1.381 . S
C3414 C3415 1.394 . S
C3414 H3422 0.930 . S
C3415 C3414 1.394 . S
C3415 C3416 1.383 . S
C3415 H3423 0.929 . S
C3416 C3415 1.383 . S
C3416 C3417 1.377 . S
C3417 H3401 0.930 . S
C3417 C3416 1.377 . S
C3417 C3418 1.379 . S
C3418 H3402 0.931 . S
C3418 C3412 1.383 . S
C3418 C3417 1.379 . S
H3419 C3413 0.959 . S
H3420 C3413 0.961 . S
H3421 C3413 0.960 . S
H3422 C3414 0.930 . S
H3423 C3415 0.929 . S
H3424 C3432 0.929 . S
H3425 C3434 0.930 . S
H3426 C3436 0.930 . S
H3427 C3439 0.929 . S
H3428 C3442 0.930 . S
H3429 C3444 0.960 . S
H3430 C3444 0.960 . S
H3431 C3444 0.960 . S
C3432 H3424 0.929 . S
C3432 C3433 1.377 . S
C3432 C3434 1.384 . S
C3433 C3432 1.377 . S
C3433 C3439 1.390 . S
C3434 H3425 0.930 . S
C3434 C3432 1.384 . S
C3434 C3435 1.372 . S
C3435 C3434 1.372 . S
C3435 C3436 1.400 . S
C3435 C3440 1.490 . S
C3436 H3426 0.930 . S
C3436 C3435 1.400 . S
C3436 C3439 1.386 . S
H3437 C3453 0.930 . S
H3438 C3454 0.931 . S
C3439 H3427 0.929 . S
C3439 C3433 1.390 . S
C3439 C3436 1.386 . S
C3440 C3435 1.490 . S
C3440 C3442 1.395 . S
C3440 C3443 1.403 . S
H3441 C3447 0.930 . S
C3442 H3428 0.930 . S
C3442 C3440 1.395 . S
C3442 C3445 1.403 . S
C3443 C3440 1.403 . S
C3443 C3444 1.524 . S
C3443 C3447 1.400 . S
C3444 H3429 0.960 . S
C3444 H3430 0.960 . S
C3444 H3431 0.960 . S
C3444 C3443 1.524 . S
C3445 C3442 1.403 . S
C3445 C3446 1.392 . S
C3445 C3449 1.495 . S
C3446 C3445 1.392 . S
C3446 C3447 1.385 . S
C3446 C3448 1.478 . S
C3447 H3441 0.930 . S
C3447 C3443 1.400 . S
C3447 C3446 1.385 . S
C3448 C3446 1.478 . S
C3448 C3450 1.381 . S
C3448 C3454 1.383 . S
C3449 C3445 1.495 . S
C3449 H3455 0.959 . S
C3449 H3456 0.961 . S
C3449 H3457 0.960 . S
C3450 C3448 1.381 . S
C3450 C3451 1.394 . S
C3450 H3458 0.930 . S
C3451 C3450 1.394 . S
C3451 C3452 1.383 . S
C3451 H3459 0.929 . S
C3452 C3451 1.383 . S
C3452 C3453 1.377 . S
C3453 H3437 0.930 . S
C3453 C3452 1.377 . S
C3453 C3454 1.379 . S
C3454 H3438 0.931 . S
C3454 C3448 1.383 . S
C3454 C3453 1.379 . S
H3455 C3449 0.959 . S
H3456 C3449 0.961 . S
H3457 C3449 0.960 . S
H3458 C3450 0.930 . S
H3459 C3451 0.929 . S
H3460 C3468 0.929 . S
H3461 C3470 0.930 . S
H3462 C3472 0.930 . S
H3463 C3475 0.929 . S
H3464 C3478 0.930 . S
H3465 C3480 0.960 . S
H3466 C3480 0.960 . S
H3467 C3480 0.960 . S
C3468 H3460 0.929 . S
C3468 C3469 1.377 . S
C3468 C3470 1.384 . S
C3469 C3468 1.377 . S
C3469 C3475 1.390 . S
C3470 H3461 0.930 . S
C3470 C3468 1.384 . S
C3470 C3471 1.372 . S
C3471 C3470 1.372 . S
C3471 C3472 1.400 . S
C3471 C3476 1.490 . S
C3472 H3462 0.930 . S
C3472 C3471 1.400 . S
C3472 C3475 1.386 . S
H3473 C3489 0.930 . S
H3474 C3490 0.931 . S
C3475 H3463 0.929 . S
C3475 C3469 1.390 . S
C3475 C3472 1.386 . S
C3476 C3471 1.490 . S
C3476 C3478 1.395 . S
C3476 C3479 1.403 . S
H3477 C3483 0.930 . S
C3478 H3464 0.930 . S
C3478 C3476 1.395 . S
C3478 C3481 1.403 . S
C3479 C3476 1.403 . S
C3479 C3480 1.524 . S
C3479 C3483 1.400 . S
C3480 H3465 0.960 . S
C3480 H3466 0.960 . S
C3480 H3467 0.960 . S
C3480 C3479 1.524 . S
C3481 C3478 1.403 . S
C3481 C3482 1.392 . S
C3481 C3485 1.495 . S
C3482 C3481 1.392 . S
C3482 C3483 1.385 . S
C3482 C3484 1.478 . S
C3483 H3477 0.930 . S
C3483 C3479 1.400 . S
C3483 C3482 1.385 . S
C3484 C3482 1.478 . S
C3484 C3486 1.381 . S
C3484 C3490 1.383 . S
C3485 C3481 1.495 . S
C3485 H3491 0.959 . S
C3485 H3492 0.961 . S
C3485 H3493 0.960 . S
C3486 C3484 1.381 . S
C3486 C3487 1.394 . S
C3486 H3494 0.930 . S
C3487 C3486 1.394 . S
C3487 C3488 1.383 . S
C3487 H3495 0.929 . S
C3488 C3487 1.383 . S
C3488 C3489 1.377 . S
C3489 H3473 0.930 . S
C3489 C3488 1.377 . S
C3489 C3490 1.379 . S
C3490 H3474 0.931 . S
C3490 C3484 1.383 . S
C3490 C3489 1.379 . S
H3491 C3485 0.959 . S
H3492 C3485 0.961 . S
H3493 C3485 0.960 . S
H3494 C3486 0.930 . S
H3495 C3487 0.929 . S
H3496 C3504 0.929 . S
H3497 C3506 0.930 . S
H3498 C3508 0.930 . S
H3499 C3511 0.929 1_565 S
H3500 C3514 0.930 . S
H3501 C3516 0.960 . S
H3502 C3516 0.960 . S
H3503 C3516 0.960 . S
C3504 H3496 0.929 . S
C3504 C3505 1.377 1_545 S
C3504 C3506 1.384 . S
C3505 C3504 1.377 1_565 S
C3505 C3511 1.390 1_565 S
C3506 H3497 0.930 . S
C3506 C3504 1.384 . S
C3506 C3507 1.372 . S
C3507 C3506 1.372 . S
C3507 C3508 1.400 . S
C3507 C3512 1.490 . S
C3508 H3498 0.930 . S
C3508 C3507 1.400 . S
C3508 C3511 1.386 . S
H3509 C3525 0.930 . S
H3510 C3526 0.931 . S
C3511 H3499 0.929 1_545 S
C3511 C3505 1.390 1_545 S
C3511 C3508 1.386 . S
C3512 C3507 1.490 . S
C3512 C3514 1.395 . S
C3512 C3515 1.403 . S
H3513 C3519 0.930 . S
C3514 H3500 0.930 . S
C3514 C3512 1.395 . S
C3514 C3517 1.403 . S
C3515 C3512 1.403 . S
C3515 C3516 1.524 . S
C3515 C3519 1.400 . S
C3516 H3501 0.960 . S
C3516 H3502 0.960 . S
C3516 H3503 0.960 . S
C3516 C3515 1.524 . S
C3517 C3514 1.403 . S
C3517 C3518 1.392 . S
C3517 C3521 1.495 . S
C3518 C3517 1.392 . S
C3518 C3519 1.385 . S
C3518 C3520 1.478 . S
C3519 H3513 0.930 . S
C3519 C3515 1.400 . S
C3519 C3518 1.385 . S
C3520 C3518 1.478 . S
C3520 C3522 1.381 . S
C3520 C3526 1.383 . S
C3521 C3517 1.495 . S
C3521 H3527 0.959 . S
C3521 H3528 0.961 . S
C3521 H3529 0.960 . S
C3522 C3520 1.381 . S
C3522 C3523 1.394 . S
C3522 H3530 0.930 . S
C3523 C3522 1.394 . S
C3523 C3524 1.383 . S
C3523 H3531 0.929 . S
C3524 C3523 1.383 . S
C3524 C3525 1.377 . S
C3525 H3509 0.930 . S
C3525 C3524 1.377 . S
C3525 C3526 1.379 . S
C3526 H3510 0.931 . S
C3526 C3520 1.383 . S
C3526 C3525 1.379 . S
H3527 C3521 0.959 . S
H3528 C3521 0.961 . S
H3529 C3521 0.960 . S
H3530 C3522 0.930 . S
H3531 C3523 0.929 . S
H3532 C3540 0.929 . S
H3533 C3542 0.930 . S
H3534 C3544 0.930 . S
H3535 C3547 0.929 . S
H3536 C3550 0.930 . S
H3537 C3552 0.960 . S
H3538 C3552 0.960 . S
H3539 C3552 0.960 . S
C3540 H3532 0.929 . S
C3540 C3541 1.377 . S
C3540 C3542 1.384 . S
C3541 C3540 1.377 . S
C3541 C3547 1.390 . S
C3542 H3533 0.930 . S
C3542 C3540 1.384 . S
C3542 C3543 1.372 . S
C3543 C3542 1.372 . S
C3543 C3544 1.400 . S
C3543 C3548 1.490 . S
C3544 H3534 0.930 . S
C3544 C3543 1.400 . S
C3544 C3547 1.386 . S
H3545 C3561 0.930 . S
H3546 C3562 0.931 . S
C3547 H3535 0.929 . S
C3547 C3541 1.390 . S
C3547 C3544 1.386 . S
C3548 C3543 1.490 . S
C3548 C3550 1.395 . S
C3548 C3551 1.403 . S
H3549 C3555 0.930 . S
C3550 H3536 0.930 . S
C3550 C3548 1.395 . S
C3550 C3553 1.403 . S
C3551 C3548 1.403 . S
C3551 C3552 1.524 . S
C3551 C3555 1.400 . S
C3552 H3537 0.960 . S
C3552 H3538 0.960 . S
C3552 H3539 0.960 . S
C3552 C3551 1.524 . S
C3553 C3550 1.403 . S
C3553 C3554 1.392 . S
C3553 C3557 1.495 . S
C3554 C3553 1.392 . S
C3554 C3555 1.385 . S
C3554 C3556 1.478 . S
C3555 H3549 0.930 . S
C3555 C3551 1.400 . S
C3555 C3554 1.385 . S
C3556 C3554 1.478 . S
C3556 C3558 1.381 . S
C3556 C3562 1.383 . S
C3557 C3553 1.495 . S
C3557 H3563 0.959 . S
C3557 H3564 0.961 . S
C3557 H3565 0.960 . S
C3558 C3556 1.381 . S
C3558 C3559 1.394 . S
C3558 H3566 0.930 . S
C3559 C3558 1.394 . S
C3559 C3560 1.383 . S
C3559 H3567 0.929 . S
C3560 C3559 1.383 . S
C3560 C3561 1.377 . S
C3561 H3545 0.930 . S
C3561 C3560 1.377 . S
C3561 C3562 1.379 . S
C3562 H3546 0.931 . S
C3562 C3556 1.383 . S
C3562 C3561 1.379 . S
H3563 C3557 0.959 . S
H3564 C3557 0.961 . S
H3565 C3557 0.960 . S
H3566 C3558 0.930 . S
H3567 C3559 0.929 . S
H3568 C3576 0.929 . S
H3569 C3578 0.930 . S
H3570 C3580 0.930 . S
H3571 C3583 0.929 . S
H3572 C3586 0.930 . S
H3573 C3588 0.960 . S
H3574 C3588 0.960 . S
H3575 C3588 0.960 . S
C3576 H3568 0.929 . S
C3576 C3577 1.377 . S
C3576 C3578 1.384 . S
C3577 C3576 1.377 . S
C3577 C3583 1.390 . S
C3578 H3569 0.930 . S
C3578 C3576 1.384 . S
C3578 C3579 1.372 . S
C3579 C3578 1.372 . S
C3579 C3580 1.400 . S
C3579 C3584 1.490 . S
C3580 H3570 0.930 . S
C3580 C3579 1.400 . S
C3580 C3583 1.386 . S
H3581 C3597 0.930 . S
H3582 C3598 0.931 . S
C3583 H3571 0.929 . S
C3583 C3577 1.390 . S
C3583 C3580 1.386 . S
C3584 C3579 1.490 . S
C3584 C3586 1.395 . S
C3584 C3587 1.403 . S
H3585 C3591 0.930 . S
C3586 H3572 0.930 . S
C3586 C3584 1.395 . S
C3586 C3589 1.403 . S
C3587 C3584 1.403 . S
C3587 C3588 1.524 . S
C3587 C3591 1.400 . S
C3588 H3573 0.960 . S
C3588 H3574 0.960 . S
C3588 H3575 0.960 . S
C3588 C3587 1.524 . S
C3589 C3586 1.403 . S
C3589 C3590 1.392 . S
C3589 C3593 1.495 . S
C3590 C3589 1.392 . S
C3590 C3591 1.385 . S
C3590 C3592 1.478 . S
C3591 H3585 0.930 . S
C3591 C3587 1.400 . S
C3591 C3590 1.385 . S
C3592 C3590 1.478 . S
C3592 C3594 1.381 . S
C3592 C3598 1.383 . S
C3593 C3589 1.495 . S
C3593 H3599 0.959 . S
C3593 H3600 0.961 . S
C3593 H3601 0.960 . S
C3594 C3592 1.381 . S
C3594 C3595 1.394 . S
C3594 H3602 0.930 . S
C3595 C3594 1.394 . S
C3595 C3596 1.383 . S
C3595 H3603 0.929 . S
C3596 C3595 1.383 . S
C3596 C3597 1.377 . S
C3597 H3581 0.930 . S
C3597 C3596 1.377 . S
C3597 C3598 1.379 . S
C3598 H3582 0.931 . S
C3598 C3592 1.383 . S
C3598 C3597 1.379 . S
H3599 C3593 0.959 . S
H3600 C3593 0.961 . S
H3601 C3593 0.960 . S
H3602 C3594 0.930 . S
H3603 C3595 0.929 . S
H3604 C3612 0.929 . S
H3605 C3614 0.930 . S
H3606 C3616 0.930 . S
H3607 C3619 0.929 . S
H3608 C3622 0.930 . S
H3609 C3624 0.960 . S
H3610 C3624 0.960 . S
H3611 C3624 0.960 . S
C3612 H3604 0.929 . S
C3612 C3613 1.377 . S
C3612 C3614 1.384 . S
C3613 C3612 1.377 . S
C3613 C3619 1.390 . S
C3614 H3605 0.930 . S
C3614 C3612 1.384 . S
C3614 C3615 1.372 . S
C3615 C3614 1.372 . S
C3615 C3616 1.400 . S
C3615 C3620 1.490 . S
C3616 H3606 0.930 . S
C3616 C3615 1.400 . S
C3616 C3619 1.386 . S
H3617 C3633 0.930 . S
H3618 C3634 0.931 . S
C3619 H3607 0.929 . S
C3619 C3613 1.390 . S
C3619 C3616 1.386 . S
C3620 C3615 1.490 . S
C3620 C3622 1.395 . S
C3620 C3623 1.403 . S
H3621 C3627 0.930 . S
C3622 H3608 0.930 . S
C3622 C3620 1.395 . S
C3622 C3625 1.403 . S
C3623 C3620 1.403 . S
C3623 C3624 1.524 . S
C3623 C3627 1.400 . S
C3624 H3609 0.960 . S
C3624 H3610 0.960 . S
C3624 H3611 0.960 . S
C3624 C3623 1.524 . S
C3625 C3622 1.403 . S
C3625 C3626 1.392 . S
C3625 C3629 1.495 . S
C3626 C3625 1.392 . S
C3626 C3627 1.385 . S
C3626 C3628 1.478 . S
C3627 H3621 0.930 . S
C3627 C3623 1.400 . S
C3627 C3626 1.385 . S
C3628 C3626 1.478 . S
C3628 C3630 1.381 . S
C3628 C3634 1.383 . S
C3629 C3625 1.495 . S
C3629 H3635 0.959 . S
C3629 H3636 0.961 . S
C3629 H3637 0.960 . S
C3630 C3628 1.381 . S
C3630 C3631 1.394 . S
C3630 H3638 0.930 . S
C3631 C3630 1.394 . S
C3631 C3632 1.383 . S
C3631 H3639 0.929 . S
C3632 C3631 1.383 . S
C3632 C3633 1.377 . S
C3633 H3617 0.930 . S
C3633 C3632 1.377 . S
C3633 C3634 1.379 . S
C3634 H3618 0.931 . S
C3634 C3628 1.383 . S
C3634 C3633 1.379 . S
H3635 C3629 0.959 . S
H3636 C3629 0.961 . S
H3637 C3629 0.960 . S
H3638 C3630 0.930 . S
H3639 C3631 0.929 . S
H3640 C3648 0.929 . S
H3641 C3650 0.930 . S
H3642 C3652 0.930 . S
H3643 C3655 0.929 1_455 S
H3644 C3658 0.930 . S
H3645 C3660 0.960 . S
H3646 C3660 0.960 . S
H3647 C3660 0.960 . S
C3648 H3640 0.929 . S
C3648 C3649 1.377 1_655 S
C3648 C3650 1.384 . S
C3649 C3648 1.377 1_455 S
C3649 C3655 1.390 1_455 S
C3650 H3641 0.930 . S
C3650 C3648 1.384 . S
C3650 C3651 1.372 . S
C3651 C3650 1.372 . S
C3651 C3652 1.400 . S
C3651 C3656 1.490 . S
C3652 H3642 0.930 . S
C3652 C3651 1.400 . S
C3652 C3655 1.386 . S
H3653 C3669 0.930 . S
H3654 C3670 0.931 . S
C3655 H3643 0.929 1_655 S
C3655 C3649 1.390 1_655 S
C3655 C3652 1.386 . S
C3656 C3651 1.490 . S
C3656 C3658 1.395 . S
C3656 C3659 1.403 . S
H3657 C3663 0.930 . S
C3658 H3644 0.930 . S
C3658 C3656 1.395 . S
C3658 C3661 1.403 . S
C3659 C3656 1.403 . S
C3659 C3660 1.524 . S
C3659 C3663 1.400 . S
C3660 H3645 0.960 . S
C3660 H3646 0.960 . S
C3660 H3647 0.960 . S
C3660 C3659 1.524 . S
C3661 C3658 1.403 . S
C3661 C3662 1.392 . S
C3661 C3665 1.495 . S
C3662 C3661 1.392 . S
C3662 C3663 1.385 . S
C3662 C3664 1.478 . S
C3663 H3657 0.930 . S
C3663 C3659 1.400 . S
C3663 C3662 1.385 . S
C3664 C3662 1.478 . S
C3664 C3666 1.381 . S
C3664 C3670 1.383 . S
C3665 C3661 1.495 . S
C3665 H3671 0.959 . S
C3665 H3672 0.961 . S
C3665 H3673 0.960 . S
C3666 C3664 1.381 . S
C3666 C3667 1.394 . S
C3666 H3674 0.930 . S
C3667 C3666 1.394 . S
C3667 C3668 1.383 . S
C3667 H3675 0.929 . S
C3668 C3667 1.383 . S
C3668 C3669 1.377 . S
C3669 H3653 0.930 . S
C3669 C3668 1.377 . S
C3669 C3670 1.379 . S
C3670 H3654 0.931 . S
C3670 C3664 1.383 . S
C3670 C3669 1.379 . S
H3671 C3665 0.959 . S
H3672 C3665 0.961 . S
H3673 C3665 0.960 . S
H3674 C3666 0.930 . S
H3675 C3667 0.929 . S
H3676 C3684 0.929 . S
H3677 C3686 0.930 . S
H3678 C3688 0.930 . S
H3679 C3691 0.929 . S
H3680 C3694 0.930 . S
H3681 C3696 0.960 . S
H3682 C3696 0.960 . S
H3683 C3696 0.960 . S
C3684 H3676 0.929 . S
C3684 C3685 1.377 . S
C3684 C3686 1.384 . S
C3685 C3684 1.377 . S
C3685 C3691 1.390 . S
C3686 H3677 0.930 . S
C3686 C3684 1.384 . S
C3686 C3687 1.372 . S
C3687 C3686 1.372 . S
C3687 C3688 1.400 . S
C3687 C3692 1.490 . S
C3688 H3678 0.930 . S
C3688 C3687 1.400 . S
C3688 C3691 1.386 . S
H3689 C3705 0.930 . S
H3690 C3706 0.931 . S
C3691 H3679 0.929 . S
C3691 C3685 1.390 . S
C3691 C3688 1.386 . S
C3692 C3687 1.490 . S
C3692 C3694 1.395 . S
C3692 C3695 1.403 . S
H3693 C3699 0.930 . S
C3694 H3680 0.930 . S
C3694 C3692 1.395 . S
C3694 C3697 1.403 . S
C3695 C3692 1.403 . S
C3695 C3696 1.524 . S
C3695 C3699 1.400 . S
C3696 H3681 0.960 . S
C3696 H3682 0.960 . S
C3696 H3683 0.960 . S
C3696 C3695 1.524 . S
C3697 C3694 1.403 . S
C3697 C3698 1.392 . S
C3697 C3701 1.495 . S
C3698 C3697 1.392 . S
C3698 C3699 1.385 . S
C3698 C3700 1.478 . S
C3699 H3693 0.930 . S
C3699 C3695 1.400 . S
C3699 C3698 1.385 . S
C3700 C3698 1.478 . S
C3700 C3702 1.381 . S
C3700 C3706 1.383 . S
C3701 C3697 1.495 . S
C3701 H3707 0.959 . S
C3701 H3708 0.961 . S
C3701 H3709 0.960 . S
C3702 C3700 1.381 . S
C3702 C3703 1.394 . S
C3702 H3710 0.930 . S
C3703 C3702 1.394 . S
C3703 C3704 1.383 . S
C3703 H3711 0.929 . S
C3704 C3703 1.383 . S
C3704 C3705 1.377 . S
C3705 H3689 0.930 . S
C3705 C3704 1.377 . S
C3705 C3706 1.379 . S
C3706 H3690 0.931 . S
C3706 C3700 1.383 . S
C3706 C3705 1.379 . S
H3707 C3701 0.959 . S
H3708 C3701 0.961 . S
H3709 C3701 0.960 . S
H3710 C3702 0.930 . S
H3711 C3703 0.929 . S
H3712 C3720 0.929 1_655 S
H3713 C3722 0.930 . S
H3714 C3724 0.930 . S
H3715 C3727 0.929 . S
H3716 C3730 0.930 . S
H3717 C3732 0.960 . S
H3718 C3732 0.960 . S
H3719 C3732 0.960 . S
C3720 H3712 0.929 1_455 S
C3720 C3721 1.377 1_455 S
C3720 C3722 1.384 . S
C3721 C3720 1.377 1_655 S
C3721 C3727 1.390 1_655 S
C3722 H3713 0.930 . S
C3722 C3720 1.384 . S
C3722 C3723 1.372 . S
C3723 C3722 1.372 . S
C3723 C3724 1.400 . S
C3723 C3728 1.490 . S
C3724 H3714 0.930 . S
C3724 C3723 1.400 . S
C3724 C3727 1.386 . S
H3725 C3741 0.930 . S
H3726 C3742 0.931 . S
C3727 H3715 0.929 . S
C3727 C3721 1.390 1_455 S
C3727 C3724 1.386 . S
C3728 C3723 1.490 . S
C3728 C3730 1.395 . S
C3728 C3731 1.403 . S
H3729 C3735 0.930 . S
C3730 H3716 0.930 . S
C3730 C3728 1.395 . S
C3730 C3733 1.403 . S
C3731 C3728 1.403 . S
C3731 C3732 1.524 . S
C3731 C3735 1.400 . S
C3732 H3717 0.960 . S
C3732 H3718 0.960 . S
C3732 H3719 0.960 . S
C3732 C3731 1.524 . S
C3733 C3730 1.403 . S
C3733 C3734 1.392 . S
C3733 C3737 1.495 . S
C3734 C3733 1.392 . S
C3734 C3735 1.385 . S
C3734 C3736 1.478 . S
C3735 H3729 0.930 . S
C3735 C3731 1.400 . S
C3735 C3734 1.385 . S
C3736 C3734 1.478 . S
C3736 C3738 1.381 . S
C3736 C3742 1.383 . S
C3737 C3733 1.495 . S
C3737 H3743 0.959 . S
C3737 H3744 0.961 . S
C3737 H3745 0.960 . S
C3738 C3736 1.381 . S
C3738 C3739 1.394 . S
C3738 H3746 0.930 . S
C3739 C3738 1.394 . S
C3739 C3740 1.383 . S
C3739 H3747 0.929 . S
C3740 C3739 1.383 . S
C3740 C3741 1.377 . S
C3741 H3725 0.930 . S
C3741 C3740 1.377 . S
C3741 C3742 1.379 . S
C3742 H3726 0.931 . S
C3742 C3736 1.383 . S
C3742 C3741 1.379 . S
H3743 C3737 0.959 . S
H3744 C3737 0.961 . S
H3745 C3737 0.960 . S
H3746 C3738 0.930 . S
H3747 C3739 0.929 . S
H3748 C3756 0.929 . S
H3749 C3758 0.930 . S
H3750 C3760 0.930 . S
H3751 C3763 0.929 . S
H3752 C3766 0.930 . S
H3753 C3768 0.960 . S
H3754 C3768 0.960 . S
H3755 C3768 0.960 . S
C3756 H3748 0.929 . S
C3756 C3757 1.377 . S
C3756 C3758 1.384 . S
C3757 C3756 1.377 . S
C3757 C3763 1.390 . S
C3758 H3749 0.930 . S
C3758 C3756 1.384 . S
C3758 C3759 1.372 . S
C3759 C3758 1.372 . S
C3759 C3760 1.400 . S
C3759 C3764 1.490 . S
C3760 H3750 0.930 . S
C3760 C3759 1.400 . S
C3760 C3763 1.386 . S
H3761 C3777 0.930 . S
H3762 C3778 0.931 . S
C3763 H3751 0.929 . S
C3763 C3757 1.390 . S
C3763 C3760 1.386 . S
C3764 C3759 1.490 . S
C3764 C3766 1.395 . S
C3764 C3767 1.403 . S
H3765 C3771 0.930 . S
C3766 H3752 0.930 . S
C3766 C3764 1.395 . S
C3766 C3769 1.403 . S
C3767 C3764 1.403 . S
C3767 C3768 1.524 . S
C3767 C3771 1.400 . S
C3768 H3753 0.960 . S
C3768 H3754 0.960 . S
C3768 H3755 0.960 . S
C3768 C3767 1.524 . S
C3769 C3766 1.403 . S
C3769 C3770 1.392 . S
C3769 C3773 1.495 . S
C3770 C3769 1.392 . S
C3770 C3771 1.385 . S
C3770 C3772 1.478 . S
C3771 H3765 0.930 . S
C3771 C3767 1.400 . S
C3771 C3770 1.385 . S
C3772 C3770 1.478 . S
C3772 C3774 1.381 . S
C3772 C3778 1.383 . S
C3773 C3769 1.495 . S
C3773 H3779 0.959 . S
C3773 H3780 0.961 . S
C3773 H3781 0.960 . S
C3774 C3772 1.381 . S
C3774 C3775 1.394 . S
C3774 H3782 0.930 . S
C3775 C3774 1.394 . S
C3775 C3776 1.383 . S
C3775 H3783 0.929 . S
C3776 C3775 1.383 . S
C3776 C3777 1.377 . S
C3777 H3761 0.930 . S
C3777 C3776 1.377 . S
C3777 C3778 1.379 . S
C3778 H3762 0.931 . S
C3778 C3772 1.383 . S
C3778 C3777 1.379 . S
H3779 C3773 0.959 . S
H3780 C3773 0.961 . S
H3781 C3773 0.960 . S
H3782 C3774 0.930 . S
H3783 C3775 0.929 . S
H3784 C3792 0.929 . S
H3785 C3794 0.930 . S
H3786 C3796 0.930 . S
H3787 C3799 0.929 . S
H3788 C3802 0.930 . S
H3789 C3804 0.960 . S
H3790 C3804 0.960 . S
H3791 C3804 0.960 . S
C3792 H3784 0.929 . S
C3792 C3793 1.377 . S
C3792 C3794 1.384 . S
C3793 C3792 1.377 . S
C3793 C3799 1.390 . S
C3794 H3785 0.930 . S
C3794 C3792 1.384 . S
C3794 C3795 1.372 . S
C3795 C3794 1.372 . S
C3795 C3796 1.400 . S
C3795 C3800 1.490 . S
C3796 H3786 0.930 . S
C3796 C3795 1.400 . S
C3796 C3799 1.386 . S
H3797 C3813 0.930 . S
H3798 C3814 0.931 . S
C3799 H3787 0.929 . S
C3799 C3793 1.390 . S
C3799 C3796 1.386 . S
C3800 C3795 1.490 . S
C3800 C3802 1.395 . S
C3800 C3803 1.403 . S
H3801 C3807 0.930 . S
C3802 H3788 0.930 . S
C3802 C3800 1.395 . S
C3802 C3805 1.403 . S
C3803 C3800 1.403 . S
C3803 C3804 1.524 . S
C3803 C3807 1.400 . S
C3804 H3789 0.960 . S
C3804 H3790 0.960 . S
C3804 H3791 0.960 . S
C3804 C3803 1.524 . S
C3805 C3802 1.403 . S
C3805 C3806 1.392 . S
C3805 C3809 1.495 . S
C3806 C3805 1.392 . S
C3806 C3807 1.385 . S
C3806 C3808 1.478 . S
C3807 H3801 0.930 . S
C3807 C3803 1.400 . S
C3807 C3806 1.385 . S
C3808 C3806 1.478 . S
C3808 C3810 1.381 . S
C3808 C3814 1.383 . S
C3809 C3805 1.495 . S
C3809 H3815 0.959 . S
C3809 H3816 0.961 . S
C3809 H3817 0.960 . S
C3810 C3808 1.381 . S
C3810 C3811 1.394 . S
C3810 H3818 0.930 . S
C3811 C3810 1.394 . S
C3811 C3812 1.383 . S
C3811 H3819 0.929 . S
C3812 C3811 1.383 . S
C3812 C3813 1.377 . S
C3813 H3797 0.930 . S
C3813 C3812 1.377 . S
C3813 C3814 1.379 . S
C3814 H3798 0.931 . S
C3814 C3808 1.383 . S
C3814 C3813 1.379 . S
H3815 C3809 0.959 . S
H3816 C3809 0.961 . S
H3817 C3809 0.960 . S
H3818 C3810 0.930 . S
H3819 C3811 0.929 . S
H3820 C3828 0.929 . S
H3821 C3830 0.930 . S
H3822 C3832 0.930 . S
H3823 C3835 0.929 . S
H3824 C3838 0.930 . S
H3825 C3840 0.960 . S
H3826 C3840 0.960 . S
H3827 C3840 0.960 . S
C3828 H3820 0.929 . S
C3828 C3829 1.377 . S
C3828 C3830 1.384 . S
C3829 C3828 1.377 . S
C3829 C3835 1.390 . S
C3830 H3821 0.930 . S
C3830 C3828 1.384 . S
C3830 C3831 1.372 . S
C3831 C3830 1.372 . S
C3831 C3832 1.400 . S
C3831 C3836 1.490 . S
C3832 H3822 0.930 . S
C3832 C3831 1.400 . S
C3832 C3835 1.386 . S
H3833 C3849 0.930 . S
H3834 C3850 0.931 . S
C3835 H3823 0.929 . S
C3835 C3829 1.390 . S
C3835 C3832 1.386 . S
C3836 C3831 1.490 . S
C3836 C3838 1.395 . S
C3836 C3839 1.403 . S
H3837 C3843 0.930 . S
C3838 H3824 0.930 . S
C3838 C3836 1.395 . S
C3838 C3841 1.403 . S
C3839 C3836 1.403 . S
C3839 C3840 1.524 . S
C3839 C3843 1.400 . S
C3840 H3825 0.960 . S
C3840 H3826 0.960 . S
C3840 H3827 0.960 . S
C3840 C3839 1.524 . S
C3841 C3838 1.403 . S
C3841 C3842 1.392 . S
C3841 C3845 1.495 . S
C3842 C3841 1.392 . S
C3842 C3843 1.385 . S
C3842 C3844 1.478 . S
C3843 H3837 0.930 . S
C3843 C3839 1.400 . S
C3843 C3842 1.385 . S
C3844 C3842 1.478 . S
C3844 C3846 1.381 . S
C3844 C3850 1.383 . S
C3845 C3841 1.495 . S
C3845 H3851 0.959 . S
C3845 H3852 0.961 . S
C3845 H3853 0.960 . S
C3846 C3844 1.381 . S
C3846 C3847 1.394 . S
C3846 H3854 0.930 . S
C3847 C3846 1.394 . S
C3847 C3848 1.383 . S
C3847 H3855 0.929 . S
C3848 C3847 1.383 . S
C3848 C3849 1.377 . S
C3849 H3833 0.930 . S
C3849 C3848 1.377 . S
C3849 C3850 1.379 . S
C3850 H3834 0.931 . S
C3850 C3844 1.383 . S
C3850 C3849 1.379 . S
H3851 C3845 0.959 . S
H3852 C3845 0.961 . S
H3853 C3845 0.960 . S
H3854 C3846 0.930 . S
H3855 C3847 0.929 . S
H3856 C3864 0.929 . S
H3857 C3866 0.930 . S
H3858 C3868 0.930 . S
H3859 C3871 0.929 . S
H3860 C3874 0.930 . S
H3861 C3876 0.960 . S
H3862 C3876 0.960 . S
H3863 C3876 0.960 . S
C3864 H3856 0.929 . S
C3864 C3865 1.377 . S
C3864 C3866 1.384 . S
C3865 C3864 1.377 . S
C3865 C3871 1.390 . S
C3866 H3857 0.930 . S
C3866 C3864 1.384 . S
C3866 C3867 1.372 . S
C3867 C3866 1.372 . S
C3867 C3868 1.400 . S
C3867 C3872 1.490 . S
C3868 H3858 0.930 . S
C3868 C3867 1.400 . S
C3868 C3871 1.386 . S
H3869 C3885 0.930 . S
H3870 C3886 0.931 . S
C3871 H3859 0.929 . S
C3871 C3865 1.390 . S
C3871 C3868 1.386 . S
C3872 C3867 1.490 . S
C3872 C3874 1.395 . S
C3872 C3875 1.403 . S
H3873 C3879 0.930 . S
C3874 H3860 0.930 . S
C3874 C3872 1.395 . S
C3874 C3877 1.403 . S
C3875 C3872 1.403 . S
C3875 C3876 1.524 . S
C3875 C3879 1.400 . S
C3876 H3861 0.960 . S
C3876 H3862 0.960 . S
C3876 H3863 0.960 . S
C3876 C3875 1.524 . S
C3877 C3874 1.403 . S
C3877 C3878 1.392 . S
C3877 C3881 1.495 . S
C3878 C3877 1.392 . S
C3878 C3879 1.385 . S
C3878 C3880 1.478 . S
C3879 H3873 0.930 . S
C3879 C3875 1.400 . S
C3879 C3878 1.385 . S
C3880 C3878 1.478 . S
C3880 C3882 1.381 . S
C3880 C3886 1.383 . S
C3881 C3877 1.495 . S
C3881 H3887 0.959 . S
C3881 H3888 0.961 . S
C3881 H3889 0.960 . S
C3882 C3880 1.381 . S
C3882 C3883 1.394 . S
C3882 H3890 0.930 . S
C3883 C3882 1.394 . S
C3883 C3884 1.383 . S
C3883 H3891 0.929 . S
C3884 C3883 1.383 . S
C3884 C3885 1.377 . S
C3885 H3869 0.930 . S
C3885 C3884 1.377 . S
C3885 C3886 1.379 . S
C3886 H3870 0.931 . S
C3886 C3880 1.383 . S
C3886 C3885 1.379 . S
H3887 C3881 0.959 . S
H3888 C3881 0.961 . S
H3889 C3881 0.960 . S
H3890 C3882 0.930 . S
H3891 C3883 0.929 . S
H3892 C3900 0.929 . S
H3893 C3902 0.930 . S
H3894 C3904 0.930 . S
H3895 C3907 0.929 . S
H3896 C3910 0.930 . S
H3897 C3912 0.960 . S
H3898 C3912 0.960 . S
H3899 C3912 0.960 . S
C3900 H3892 0.929 . S
C3900 C3901 1.377 . S
C3900 C3902 1.384 . S
C3901 C3900 1.377 . S
C3901 C3907 1.390 . S
C3902 H3893 0.930 . S
C3902 C3900 1.384 . S
C3902 C3903 1.372 . S
C3903 C3902 1.372 . S
C3903 C3904 1.400 . S
C3903 C3908 1.490 . S
C3904 H3894 0.930 . S
C3904 C3903 1.400 . S
C3904 C3907 1.386 . S
H3905 C3921 0.930 . S
H3906 C3922 0.931 . S
C3907 H3895 0.929 . S
C3907 C3901 1.390 . S
C3907 C3904 1.386 . S
C3908 C3903 1.490 . S
C3908 C3910 1.395 . S
C3908 C3911 1.403 . S
H3909 C3915 0.930 . S
C3910 H3896 0.930 . S
C3910 C3908 1.395 . S
C3910 C3913 1.403 . S
C3911 C3908 1.403 . S
C3911 C3912 1.524 . S
C3911 C3915 1.400 . S
C3912 H3897 0.960 . S
C3912 H3898 0.960 . S
C3912 H3899 0.960 . S
C3912 C3911 1.524 . S
C3913 C3910 1.403 . S
C3913 C3914 1.392 . S
C3913 C3917 1.495 . S
C3914 C3913 1.392 . S
C3914 C3915 1.385 . S
C3914 C3916 1.478 . S
C3915 H3909 0.930 . S
C3915 C3911 1.400 . S
C3915 C3914 1.385 . S
C3916 C3914 1.478 . S
C3916 C3918 1.381 . S
C3916 C3922 1.383 . S
C3917 C3913 1.495 . S
C3917 H3923 0.959 . S
C3917 H3924 0.961 . S
C3917 H3925 0.960 . S
C3918 C3916 1.381 . S
C3918 C3919 1.394 . S
C3918 H3926 0.930 . S
C3919 C3918 1.394 . S
C3919 C3920 1.383 . S
C3919 H3927 0.929 . S
C3920 C3919 1.383 . S
C3920 C3921 1.377 . S
C3921 H3905 0.930 . S
C3921 C3920 1.377 . S
C3921 C3922 1.379 . S
C3922 H3906 0.931 . S
C3922 C3916 1.383 . S
C3922 C3921 1.379 . S
H3923 C3917 0.959 . S
H3924 C3917 0.961 . S
H3925 C3917 0.960 . S
H3926 C3918 0.930 . S
H3927 C3919 0.929 . S
H3928 C3936 0.929 . S
H3929 C3938 0.930 . S
H3930 C3940 0.930 . S
H3931 C3943 0.929 . S
H3932 C3946 0.930 . S
H3933 C3948 0.960 . S
H3934 C3948 0.960 . S
H3935 C3948 0.960 . S
C3936 H3928 0.929 . S
C3936 C3937 1.377 . S
C3936 C3938 1.384 . S
C3937 C3936 1.377 . S
C3937 C3943 1.390 . S
C3938 H3929 0.930 . S
C3938 C3936 1.384 . S
C3938 C3939 1.372 . S
C3939 C3938 1.372 . S
C3939 C3940 1.400 . S
C3939 C3944 1.490 . S
C3940 H3930 0.930 . S
C3940 C3939 1.400 . S
C3940 C3943 1.386 . S
H3941 C3957 0.930 . S
H3942 C3958 0.931 . S
C3943 H3931 0.929 . S
C3943 C3937 1.390 . S
C3943 C3940 1.386 . S
C3944 C3939 1.490 . S
C3944 C3946 1.395 . S
C3944 C3947 1.403 . S
H3945 C3951 0.930 . S
C3946 H3932 0.930 . S
C3946 C3944 1.395 . S
C3946 C3949 1.403 . S
C3947 C3944 1.403 . S
C3947 C3948 1.524 . S
C3947 C3951 1.400 . S
C3948 H3933 0.960 . S
C3948 H3934 0.960 . S
C3948 H3935 0.960 . S
C3948 C3947 1.524 . S
C3949 C3946 1.403 . S
C3949 C3950 1.392 . S
C3949 C3953 1.495 . S
C3950 C3949 1.392 . S
C3950 C3951 1.385 . S
C3950 C3952 1.478 . S
C3951 H3945 0.930 . S
C3951 C3947 1.400 . S
C3951 C3950 1.385 . S
C3952 C3950 1.478 . S
C3952 C3954 1.381 . S
C3952 C3958 1.383 . S
C3953 C3949 1.495 . S
C3953 H3959 0.959 . S
C3953 H3960 0.961 . S
C3953 H3961 0.960 . S
C3954 C3952 1.381 . S
C3954 C3955 1.394 . S
C3954 H3962 0.930 . S
C3955 C3954 1.394 . S
C3955 C3956 1.383 . S
C3955 H3963 0.929 . S
C3956 C3955 1.383 . S
C3956 C3957 1.377 . S
C3957 H3941 0.930 . S
C3957 C3956 1.377 . S
C3957 C3958 1.379 . S
C3958 H3942 0.931 . S
C3958 C3952 1.383 . S
C3958 C3957 1.379 . S
H3959 C3953 0.959 . S
H3960 C3953 0.961 . S
H3961 C3953 0.960 . S
H3962 C3954 0.930 . S
H3963 C3955 0.929 . S
H3964 C3972 0.929 . S
H3965 C3974 0.930 . S
H3966 C3976 0.930 . S
H3967 C3979 0.929 . S
H3968 C3982 0.930 . S
H3969 C3984 0.960 . S
H3970 C3984 0.960 . S
H3971 C3984 0.960 . S
C3972 H3964 0.929 . S
C3972 C3973 1.377 . S
C3972 C3974 1.384 . S
C3973 C3972 1.377 . S
C3973 C3979 1.390 . S
C3974 H3965 0.930 . S
C3974 C3972 1.384 . S
C3974 C3975 1.372 . S
C3975 C3974 1.372 . S
C3975 C3976 1.400 . S
C3975 C3980 1.490 . S
C3976 H3966 0.930 . S
C3976 C3975 1.400 . S
C3976 C3979 1.386 . S
H3977 C3993 0.930 1_565 S
H3978 C3994 0.931 . S
C3979 H3967 0.929 . S
C3979 C3973 1.390 . S
C3979 C3976 1.386 . S
C3980 C3975 1.490 . S
C3980 C3982 1.395 . S
C3980 C3983 1.403 . S
H3981 C3987 0.930 . S
C3982 H3968 0.930 . S
C3982 C3980 1.395 . S
C3982 C3985 1.403 . S
C3983 C3980 1.403 . S
C3983 C3984 1.524 . S
C3983 C3987 1.400 . S
C3984 H3969 0.960 . S
C3984 H3970 0.960 . S
C3984 H3971 0.960 . S
C3984 C3983 1.524 . S
C3985 C3982 1.403 . S
C3985 C3986 1.392 . S
C3985 C3989 1.495 . S
C3986 C3985 1.392 . S
C3986 C3987 1.385 . S
C3986 C3988 1.478 . S
C3987 H3981 0.930 . S
C3987 C3983 1.400 . S
C3987 C3986 1.385 . S
C3988 C3986 1.478 . S
C3988 C3990 1.381 . S
C3988 C3994 1.383 . S
C3989 C3985 1.495 . S
C3989 H3995 0.959 . S
C3989 H3996 0.961 . S
C3989 H3997 0.960 . S
C3990 C3988 1.381 . S
C3990 C3991 1.394 . S
C3990 H3998 0.930 . S
C3991 C3990 1.394 . S
C3991 C3992 1.383 . S
C3991 H3999 0.929 . S
C3992 C3991 1.383 . S
C3992 C3993 1.377 . S
C3993 H3977 0.930 1_545 S
C3993 C3992 1.377 . S
C3993 C3994 1.379 . S
C3994 H3978 0.931 . S
C3994 C3988 1.383 . S
C3994 C3993 1.379 . S
H3995 C3989 0.959 . S
H3996 C3989 0.961 . S
H3997 C3989 0.960 . S
H3998 C3990 0.930 . S
H3999 C3991 0.929 . S
H4000 C4008 0.929 . S
H4001 C4010 0.930 . S
H4002 C4012 0.930 . S
H4003 C4015 0.929 . S
H4004 C4018 0.930 . S
H4005 C4020 0.960 . S
H4006 C4020 0.960 . S
H4007 C4020 0.960 . S
C4008 H4000 0.929 . S
C4008 C4009 1.377 . S
C4008 C4010 1.384 . S
C4009 C4008 1.377 . S
C4009 C4015 1.390 . S
C4010 H4001 0.930 . S
C4010 C4008 1.384 . S
C4010 C4011 1.372 . S
C4011 C4010 1.372 . S
C4011 C4012 1.400 . S
C4011 C4016 1.490 . S
C4012 H4002 0.930 . S
C4012 C4011 1.400 . S
C4012 C4015 1.386 . S
H4013 C4029 0.930 . S
H4014 C4030 0.931 . S
C4015 H4003 0.929 . S
C4015 C4009 1.390 . S
C4015 C4012 1.386 . S
C4016 C4011 1.490 . S
C4016 C4018 1.395 . S
C4016 C4019 1.403 . S
H4017 C4023 0.930 . S
C4018 H4004 0.930 . S
C4018 C4016 1.395 . S
C4018 C4021 1.403 . S
C4019 C4016 1.403 . S
C4019 C4020 1.524 . S
C4019 C4023 1.400 . S
C4020 H4005 0.960 . S
C4020 H4006 0.960 . S
C4020 H4007 0.960 . S
C4020 C4019 1.524 . S
C4021 C4018 1.403 . S
C4021 C4022 1.392 . S
C4021 C4025 1.495 . S
C4022 C4021 1.392 . S
C4022 C4023 1.385 . S
C4022 C4024 1.478 . S
C4023 H4017 0.930 . S
C4023 C4019 1.400 . S
C4023 C4022 1.385 . S
C4024 C4022 1.478 . S
C4024 C4026 1.381 . S
C4024 C4030 1.383 . S
C4025 C4021 1.495 . S
C4025 H4031 0.959 . S
C4025 H4032 0.961 . S
C4025 H4033 0.960 . S
C4026 C4024 1.381 . S
C4026 C4027 1.394 . S
C4026 H4034 0.930 . S
C4027 C4026 1.394 . S
C4027 C4028 1.383 . S
C4027 H4035 0.929 . S
C4028 C4027 1.383 . S
C4028 C4029 1.377 . S
C4029 H4013 0.930 . S
C4029 C4028 1.377 . S
C4029 C4030 1.379 . S
C4030 H4014 0.931 . S
C4030 C4024 1.383 . S
C4030 C4029 1.379 . S
H4031 C4025 0.959 . S
H4032 C4025 0.961 . S
H4033 C4025 0.960 . S
H4034 C4026 0.930 . S
H4035 C4027 0.929 . S
H4036 C4044 0.898 1_554 S
H4037 C4046 0.930 . S
H4038 C4048 0.930 . S
H4039 C4051 0.929 . S
H4040 C4054 0.930 . S
H4041 C4056 0.960 . S
H4042 C4056 0.960 . S
H4043 C4056 0.960 . S
C4044 H4036 0.898 1_556 S
C4044 C4045 1.365 1_556 S
C4044 C4046 1.429 . S
C4045 C4044 1.365 1_554 S
C4045 C4051 1.390 1_554 S
C4046 H4037 0.930 . S
C4046 C4044 1.429 . S
C4046 C4047 1.372 . S
C4047 C4046 1.372 . S
C4047 C4048 1.400 . S
C4047 C4052 1.490 . S
C4048 H4038 0.930 . S
C4048 C4047 1.400 . S
C4048 C4051 1.386 . S
H4049 C4065 0.930 . S
H4050 C4066 0.931 . S
C4051 H4039 0.929 . S
C4051 C4045 1.390 1_556 S
C4051 C4048 1.386 . S
C4052 C4047 1.490 . S
C4052 C4054 1.395 . S
C4052 C4055 1.403 . S
H4053 C4059 0.930 . S
C4054 H4040 0.930 . S
C4054 C4052 1.395 . S
C4054 C4057 1.403 . S
C4055 C4052 1.403 . S
C4055 C4056 1.524 . S
C4055 C4059 1.400 . S
C4056 H4041 0.960 . S
C4056 H4042 0.960 . S
C4056 H4043 0.960 . S
C4056 C4055 1.524 . S
C4057 C4054 1.403 . S
C4057 C4058 1.392 . S
C4057 C4061 1.495 . S
C4058 C4057 1.392 . S
C4058 C4059 1.385 . S
C4058 C4060 1.478 . S
C4059 H4053 0.930 . S
C4059 C4055 1.400 . S
C4059 C4058 1.385 . S
C4060 C4058 1.478 . S
C4060 C4062 1.381 . S
C4060 C4066 1.383 . S
C4061 C4057 1.495 . S
C4061 H4067 0.959 . S
C4061 H4068 0.961 . S
C4061 H4069 0.960 . S
C4062 C4060 1.381 . S
C4062 C4063 1.394 . S
C4062 H4070 0.930 . S
C4063 C4062 1.394 . S
C4063 C4064 1.383 . S
C4063 H4071 0.929 . S
C4064 C4063 1.383 . S
C4064 C4065 1.377 . S
C4065 H4049 0.930 . S
C4065 C4064 1.377 . S
C4065 C4066 1.379 . S
C4066 H4050 0.931 . S
C4066 C4060 1.383 . S
C4066 C4065 1.379 . S
H4067 C4061 0.959 . S
H4068 C4061 0.961 . S
H4069 C4061 0.960 . S
H4070 C4062 0.930 . S
H4071 C4063 0.929 . S
H4072 C4080 0.929 . S
H4073 C4082 0.930 . S
H4074 C4084 0.930 . S
H4075 C4087 0.929 . S
H4076 C4090 0.930 . S
H4077 C4092 0.960 . S
H4078 C4092 0.960 . S
H4079 C4092 0.960 . S
C4080 H4072 0.929 . S
C4080 C4081 1.377 . S
C4080 C4082 1.384 . S
C4081 C4080 1.377 . S
C4081 C4087 1.390 . S
C4082 H4073 0.930 . S
C4082 C4080 1.384 . S
C4082 C4083 1.372 . S
C4083 C4082 1.372 . S
C4083 C4084 1.400 . S
C4083 C4088 1.490 . S
C4084 H4074 0.930 . S
C4084 C4083 1.400 . S
C4084 C4087 1.386 . S
H4085 C4101 0.930 . S
H4086 C4102 0.931 . S
C4087 H4075 0.929 . S
C4087 C4081 1.390 . S
C4087 C4084 1.386 . S
C4088 C4083 1.490 . S
C4088 C4090 1.395 . S
C4088 C4091 1.403 . S
H4089 C4095 0.930 . S
C4090 H4076 0.930 . S
C4090 C4088 1.395 . S
C4090 C4093 1.403 . S
C4091 C4088 1.403 . S
C4091 C4092 1.524 . S
C4091 C4095 1.400 . S
C4092 H4077 0.960 . S
C4092 H4078 0.960 . S
C4092 H4079 0.960 . S
C4092 C4091 1.524 . S
C4093 C4090 1.403 . S
C4093 C4094 1.392 . S
C4093 C4097 1.495 . S
C4094 C4093 1.392 . S
C4094 C4095 1.385 . S
C4094 C4096 1.478 . S
C4095 H4089 0.930 . S
C4095 C4091 1.400 . S
C4095 C4094 1.385 . S
C4096 C4094 1.478 . S
C4096 C4098 1.381 . S
C4096 C4102 1.383 . S
C4097 C4093 1.495 . S
C4097 H4103 0.959 . S
C4097 H4104 0.961 . S
C4097 H4105 0.960 . S
C4098 C4096 1.381 . S
C4098 C4099 1.394 . S
C4098 H4106 0.930 . S
C4099 C4098 1.394 . S
C4099 C4100 1.383 . S
C4099 H4107 0.929 . S
C4100 C4099 1.383 . S
C4100 C4101 1.377 . S
C4101 H4085 0.930 . S
C4101 C4100 1.377 . S
C4101 C4102 1.379 . S
C4102 H4086 0.931 . S
C4102 C4096 1.383 . S
C4102 C4101 1.379 . S
H4103 C4097 0.959 . S
H4104 C4097 0.961 . S
H4105 C4097 0.960 . S
H4106 C4098 0.930 . S
H4107 C4099 0.929 . S
H4108 C4116 0.929 . S
H4109 C4118 0.930 . S
H4110 C4120 0.930 . S
H4111 C4123 0.929 1_556 S
H4112 C4126 0.930 . S
H4113 C4128 0.960 . S
H4114 C4128 0.960 . S
H4115 C4128 0.960 . S
C4116 H4108 0.929 . S
C4116 C4117 1.385 . S
C4116 C4118 1.384 . S
C4117 C4116 1.385 . S
C4117 C4123 1.393 . S
C4118 H4109 0.930 . S
C4118 C4116 1.384 . S
C4118 C4119 1.372 . S
C4119 C4118 1.372 . S
C4119 C4120 1.400 . S
C4119 C4124 1.490 . S
C4120 H4110 0.930 . S
C4120 C4119 1.400 . S
C4120 C4123 1.386 . S
H4121 C4137 0.930 . S
H4122 C4138 0.931 . S
C4123 H4111 0.929 1_554 S
C4123 C4117 1.393 . S
C4123 C4120 1.386 . S
C4124 C4119 1.490 . S
C4124 C4126 1.395 . S
C4124 C4127 1.403 . S
H4125 C4131 0.930 . S
C4126 H4112 0.930 . S
C4126 C4124 1.395 . S
C4126 C4129 1.403 . S
C4127 C4124 1.403 . S
C4127 C4128 1.524 . S
C4127 C4131 1.400 . S
C4128 H4113 0.960 . S
C4128 H4114 0.960 . S
C4128 H4115 0.960 . S
C4128 C4127 1.524 . S
C4129 C4126 1.403 . S
C4129 C4130 1.392 . S
C4129 C4133 1.495 . S
C4130 C4129 1.392 . S
C4130 C4131 1.385 . S
C4130 C4132 1.478 . S
C4131 H4125 0.930 . S
C4131 C4127 1.400 . S
C4131 C4130 1.385 . S
C4132 C4130 1.478 . S
C4132 C4134 1.381 . S
C4132 C4138 1.383 . S
C4133 C4129 1.495 . S
C4133 H4139 0.959 . S
C4133 H4140 0.961 . S
C4133 H4141 0.960 . S
C4134 C4132 1.381 . S
C4134 C4135 1.394 . S
C4134 H4142 0.930 . S
C4135 C4134 1.394 . S
C4135 C4136 1.383 . S
C4135 H4143 0.929 . S
C4136 C4135 1.383 . S
C4136 C4137 1.377 . S
C4137 H4121 0.930 . S
C4137 C4136 1.377 . S
C4137 C4138 1.379 . S
C4138 H4122 0.931 . S
C4138 C4132 1.383 . S
C4138 C4137 1.379 . S
H4139 C4133 0.959 . S
H4140 C4133 0.961 . S
H4141 C4133 0.960 . S
H4142 C4134 0.930 . S
H4143 C4135 0.929 . S
H4144 C4152 0.929 . S
H4145 C4154 0.930 . S
H4146 C4156 0.930 . S
H4147 C4159 0.929 1_556 S
H4148 C4162 0.930 . S
H4149 C4164 0.960 . S
H4150 C4164 0.960 . S
H4151 C4164 0.960 . S
C4152 H4144 0.929 . S
C4152 C4153 1.377 1_554 S
C4152 C4154 1.384 . S
C4153 C4152 1.377 1_556 S
C4153 C4159 1.390 1_556 S
C4154 H4145 0.930 . S
C4154 C4152 1.384 . S
C4154 C4155 1.372 . S
C4155 C4154 1.372 . S
C4155 C4156 1.400 . S
C4155 C4160 1.490 . S
C4156 H4146 0.930 . S
C4156 C4155 1.400 . S
C4156 C4159 1.386 . S
H4157 C4173 0.930 . S
H4158 C4174 0.931 . S
C4159 H4147 0.929 1_554 S
C4159 C4153 1.390 1_554 S
C4159 C4156 1.386 . S
C4160 C4155 1.490 . S
C4160 C4162 1.395 . S
C4160 C4163 1.403 . S
H4161 C4167 0.930 . S
C4162 H4148 0.930 . S
C4162 C4160 1.395 . S
C4162 C4165 1.403 . S
C4163 C4160 1.403 . S
C4163 C4164 1.524 . S
C4163 C4167 1.400 . S
C4164 H4149 0.960 . S
C4164 H4150 0.960 . S
C4164 H4151 0.960 . S
C4164 C4163 1.524 . S
C4165 C4162 1.403 . S
C4165 C4166 1.392 . S
C4165 C4169 1.495 . S
C4166 C4165 1.392 . S
C4166 C4167 1.385 . S
C4166 C4168 1.478 . S
C4167 H4161 0.930 . S
C4167 C4163 1.400 . S
C4167 C4166 1.385 . S
C4168 C4166 1.478 . S
C4168 C4170 1.381 . S
C4168 C4174 1.383 . S
C4169 C4165 1.495 . S
C4169 H4175 0.959 . S
C4169 H4176 0.961 . S
C4169 H4177 0.960 . S
C4170 C4168 1.381 . S
C4170 C4171 1.394 . S
C4170 H4178 0.930 . S
C4171 C4170 1.394 . S
C4171 C4172 1.383 . S
C4171 H4179 0.929 . S
C4172 C4171 1.383 . S
C4172 C4173 1.377 . S
C4173 H4157 0.930 . S
C4173 C4172 1.377 . S
C4173 C4174 1.379 . S
C4174 H4158 0.931 . S
C4174 C4168 1.383 . S
C4174 C4173 1.379 . S
H4175 C4169 0.959 . S
H4176 C4169 0.961 . S
H4177 C4169 0.960 . S
H4178 C4170 0.930 . S
H4179 C4171 0.929 . S
C752 C381 1.073 . S
C733 C241 1.094 . S
C788 C384 1.510 . S
C769 C272 1.591 . S
C824 C372 0.974 . S
C805 C249 0.973 . S
C841 C206 1.751 . S
C860 C385 1.599 . S
C896 C416 1.021 . S
C877 C125 1.094 . S
C913 C142 1.763 . S
C932 C443 1.612 . S
C968 C415 0.957 . S
C949 C169 0.965 . S
C985 C103 1.652 . S
C1004 C434 1.523 . S
C1021 C315 1.114 . S
C1040 C447 1.056 . S
C1057 C338 1.700 . S
C1076 C478 1.562 . S
C1112 C536 1.058 . S
C1093 C183 1.113 . S
C1148 C558 1.599 . S
C1129 C293 1.678 . S
C1184 C446 0.891 . S
C1165 C87 0.957 . S
C1220 C477 1.624 . S
C1201 C21 1.686 . S
C1237 C43 0.944 . S
C1256 C527 0.883 . S
C1273 C65 1.762 . S
C1292 C567 1.669 . S
C1309 C37 1.111 . S
C1328 C505 1.026 . S
C1364 C571 1.064 . S
C1345 C197 1.136 . S
C1381 C307 1.779 . S
C1400 C602 1.660 . S
C1436 C651 0.930 . S
C1417 C329 0.945 . S
C1453 C150 1.737 . S
C1472 C509 1.641 . S
C1508 C570 0.945 . S
C1489 C227 0.927 . S
C1544 C601 1.501 . S
C1525 C274 1.608 . S
C1580 C682 1.485 . S
C1561 C208 1.620 . S
C1597 C73 1.085 . S
C1616 C412 1.059 . S
C1633 C7 1.621 . S
C1652 C353 1.513 . S
C1688 C403 0.982 . S
C1669 C29 0.964 . S
C1705 C51 1.786 . S
C1724 C354 1.692 . S
C1741 C323 1.104 . S
C1760 C695 1.025 . S
C1777 C340 1.752 . S
C1796 C722 1.604 . S
C1832 C694 0.929 . S
C1813 C191 0.973 . S
C1849 C301 1.641 . S
C1868 C713 1.572 . S
C1885 C117 1.101 . S
C1904 C629 1.051 . S
C1940 C633 1.619 . S
C1921 C140 1.711 . S
C1976 C664 1.014 . S
C1957 C161 1.094 . S
C2012 C589 1.581 . S
C1993 C95 1.688 . S
C2048 C620 0.908 . S
C2029 C235 0.954 . S
C2065 C282 1.635 . S
C2084 C632 1.537 . S
C2101 C263 0.939 . S
C2120 C663 0.913 . S
C2156 C598 1.556 . S
C2137 C216 1.706 . S
C2173 C257 1.118 . S
C2192 C660 1.114 . S
C2228 C540 1.126 . S
C2209 C175 1.137 . S
C2245 C109 1.766 . S
C2264 C474 1.675 . S
C2281 C131 0.943 . S
C2300 C496 0.953 . S
C2317 C348 1.754 . S
C2336 C691 1.634 . S
C2353 C81 0.923 . S
C2372 C539 0.914 . S
C2389 C15 1.652 . S
C2408 C465 1.570 . S
C2444 C508 1.557 . S
C2425 C59 1.663 . S
C2480 C352 1.340 . S
C2461 C351 1.323 . S
C2516 C402 1.910 . S
C2497 C194 1.895 . S
C2552 C362 1.200 . S
C2533 C304 1.203 . S
C2588 C413 1.779 . S
C2569 C326 1.791 . S
C2624 C433 1.300 . S
C2605 C205 1.294 . S
C2641 C230 1.778 . S
C2660 C424 1.727 . S
C2677 C271 1.209 . S
C2696 C444 1.222 . S
C2713 C250 1.856 . S
C2732 C414 1.855 . S
C2768 C464 1.278 . S
C2749 C62 1.242 . S
C2804 C506 1.762 . S
C2785 C84 1.774 . S
C2821 C18 1.222 . S
C2840 C507 1.258 . S
C2876 C538 1.857 . S
C2857 C40 1.861 . S
C2893 C147 1.257 . S
C2912 C475 1.207 . S
C2948 C495 1.869 . S
C2929 C164 1.885 . S
C2984 C517 1.176 . S
C2965 C98 1.199 . S
C3001 C120 1.796 . S
C3020 C548 1.766 . S
C3056 C476 1.190 . S
C3037 C96 1.200 . S
C3073 C10 1.200 . S
C3092 C588 1.236 . S
C3109 C32 1.765 . S
C3128 C630 1.760 . S
C3145 C54 1.243 . S
C3164 C641 1.165 . S
C3200 C537 1.783 . S
C3181 C238 1.825 . S
C3236 C599 1.260 . S
C3217 C337 1.292 . S
C3253 C184 1.868 . S
C3272 C619 1.847 . S
C3308 C662 1.898 . S
C3289 C316 1.888 . S
C3344 C383 1.347 . S
C3325 C153 1.327 . S
C3361 C172 1.916 . S
C3380 C371 1.906 . S
C3397 C106 1.199 . S
C3416 C393 1.129 . S
C3433 C128 1.790 . S
C3452 C382 1.760 . S
C3488 C712 1.267 . S
C3469 C52 1.243 . S
C3524 C703 1.734 . S
C3505 C74 1.786 . S
C3541 C8 1.162 . S
C3560 C723 1.087 . S
C3577 C30 1.863 . S
C3596 C693 1.841 . S
C3613 C219 1.292 . S
C3632 C600 1.324 . S
C3668 C661 1.731 . S
C3649 C228 1.760 . S
C3704 C681 1.312 . S
C3685 C285 1.264 . S
C3721 C260 1.849 . S
C3740 C569 1.827 . S
C3776 C610 1.244 . S
C3757 C345 1.265 . S
C3793 C186 1.906 . S
C3812 C650 1.884 . S
C3848 C692 1.138 . S
C3829 C296 1.209 . S
C3865 C318 1.824 . S
C3884 C579 1.781 . S
C3901 C294 1.195 . S
C3920 C631 1.201 . S
C3937 C279 1.242 . S
C3956 C557 1.289 . S
C3992 C455 1.747 . S
C3973 C252 1.787 . S
C4009 C213 1.288 . S
C4028 C486 1.231 . S
C4045 C76 1.798 . S
C4064 C672 1.787 . S
C4081 C139 1.285 . S
C4100 C568 1.276 . S
C4136 C445 1.841 . S
C4117 C162 1.841 1_554 S
C4153 C118 1.875 . S
C4172 C526 1.867 . S
