# Generated by pormake.
# Topology zzz, (3,6)-cn, num edge types: 1
# Building blocks:
#     Node 0, Type 0, BuildingBlock: OLANEW_clean_sbu_2, # of connection points: 3
#     Node 1, Type 0, BuildingBlock: OLANEW_clean_sbu_2, # of connection points: 3
#     Node 2, Type 0, BuildingBlock: OLANEW_clean_sbu_2, # of connection points: 3
#     Node 3, Type 0, BuildingBlock: OLANEW_clean_sbu_2, # of connection points: 3
#     Node 4, Type 0, BuildingBlock: OLANEW_clean_sbu_2, # of connection points: 3
#     Node 5, Type 0, BuildingBlock: OLANEW_clean_sbu_2, # of connection points: 3
#     Node 6, Type 0, BuildingBlock: OLANEW_clean_sbu_2, # of connection points: 3
#     Node 7, Type 0, BuildingBlock: OLANEW_clean_sbu_2, # of connection points: 3
#     Node 8, Type 1, BuildingBlock: BETDEL_clean_sbu_0, # of connection points: 6
#     Node 9, Type 1, BuildingBlock: BETDEL_clean_sbu_0, # of connection points: 6
#     Node 10, Type 1, BuildingBlock: BETDEL_clean_sbu_0, # of connection points: 6
#     Node 11, Type 1, BuildingBlock: BETDEL_clean_sbu_0, # of connection points: 6
#     Edge 12, Type (0, 1), BuildingBlock: MIFKUJ_clean_linker_0, # of connection points: 2
#     Edge 13, Type (0, 1), BuildingBlock: MIFKUJ_clean_linker_0, # of connection points: 2
#     Edge 14, Type (0, 1), BuildingBlock: MIFKUJ_clean_linker_0, # of connection points: 2
#     Edge 15, Type (0, 1), BuildingBlock: MIFKUJ_clean_linker_0, # of connection points: 2
#     Edge 16, Type (0, 1), BuildingBlock: MIFKUJ_clean_linker_0, # of connection points: 2
#     Edge 17, Type (0, 1), BuildingBlock: MIFKUJ_clean_linker_0, # of connection points: 2
#     Edge 18, Type (0, 1), BuildingBlock: MIFKUJ_clean_linker_0, # of connection points: 2
#     Edge 19, Type (0, 1), BuildingBlock: MIFKUJ_clean_linker_0, # of connection points: 2
#     Edge 20, Type (0, 1), BuildingBlock: MIFKUJ_clean_linker_0, # of connection points: 2
#     Edge 21, Type (0, 1), BuildingBlock: MIFKUJ_clean_linker_0, # of connection points: 2
#     Edge 22, Type (0, 1), BuildingBlock: MIFKUJ_clean_linker_0, # of connection points: 2
#     Edge 23, Type (0, 1), BuildingBlock: MIFKUJ_clean_linker_0, # of connection points: 2
#     Edge 24, Type (0, 1), BuildingBlock: MIFKUJ_clean_linker_0, # of connection points: 2
#     Edge 25, Type (0, 1), BuildingBlock: MIFKUJ_clean_linker_0, # of connection points: 2
#     Edge 26, Type (0, 1), BuildingBlock: MIFKUJ_clean_linker_0, # of connection points: 2
#     Edge 27, Type (0, 1), BuildingBlock: MIFKUJ_clean_linker_0, # of connection points: 2
#     Edge 28, Type (0, 1), BuildingBlock: MIFKUJ_clean_linker_0, # of connection points: 2
#     Edge 29, Type (0, 1), BuildingBlock: MIFKUJ_clean_linker_0, # of connection points: 2
#     Edge 30, Type (0, 1), BuildingBlock: MIFKUJ_clean_linker_0, # of connection points: 2
#     Edge 31, Type (0, 1), BuildingBlock: MIFKUJ_clean_linker_0, # of connection points: 2
#     Edge 32, Type (0, 1), BuildingBlock: MIFKUJ_clean_linker_0, # of connection points: 2
#     Edge 33, Type (0, 1), BuildingBlock: MIFKUJ_clean_linker_0, # of connection points: 2
#     Edge 34, Type (0, 1), BuildingBlock: MIFKUJ_clean_linker_0, # of connection points: 2
#     Edge 35, Type (0, 1), BuildingBlock: MIFKUJ_clean_linker_0, # of connection points: 2
# Relax obj value: 0.148
# Max RMSD: 0.170
# Mean RMSD: 0.119
data_MOF--net-zzz--node1-OLANEW_clean_sbu_2--node2-BETDEL_clean_sbu_0--edge1-MIFKUJ_clean_linker_0
_symmetry_space_group_name_H-M    P1
_symmetry_Int_Tables_number       1
_symmetry_cell_setting            triclinic
loop_
_symmetry_equiv_pos_as_xyz
'x, y, z'
_cell_length_a     67.981839
_cell_length_b     67.989761
_cell_length_c     21.264406
_cell_angle_alpha  91.572048
_cell_angle_beta   88.735562
_cell_angle_gamma 95.90149
loop_
_atom_site_label
_atom_site_type_symbol
_atom_site_fract_x
_atom_site_fract_y
_atom_site_fract_z
_atom_type_partial_charge
O0 O 0.7718 0.5373 0.02798 0.0
Cd1 Cd 0.74728 0.54968 0.10007 0.0
O2 O 0.76349 0.50607 0.04931 0.0
Cd3 Cd 0.75114 0.51454 0.14038 0.0
O4 O 0.77218 0.51675 0.21708 0.0
C5 C 0.78835 0.52711 0.20423 0.0
O6 O 0.78974 0.53695 0.15175 0.0
C7 C 0.77323 0.51907 0.01594 0.0
C8 C 0.71113 0.54453 0.03986 0.0
O9 O 0.72355 0.55963 0.02945 0.0
O10 O 0.71552 0.53212 0.08026 0.0
O11 O 0.88095 0.74772 0.88343 0.0
Cd12 Cd 0.86467 0.71511 0.91061 0.0
O13 O 0.89037 0.75276 0.98131 0.0
Cd14 Cd 0.90358 0.77334 0.05327 0.0
O15 O 0.91461 0.79815 0.11478 0.0
C16 C 0.91436 0.8158 0.09671 0.0
O17 O 0.90738 0.8188 0.04105 0.0
C18 C 0.88991 0.75871 0.92529 0.0
C19 C 0.88436 0.68366 0.86251 0.0
O20 O 0.87121 0.69094 0.83051 0.0
O21 O 0.88831 0.69136 0.91707 0.0
O22 O 0.73194 0.90054 0.85282 0.0
Cd23 Cd 0.75288 0.87565 0.88429 0.0
O24 O 0.7338 0.9144 0.94691 0.0
Cd25 Cd 0.72839 0.93528 0.02413 0.0
O26 O 0.71297 0.94695 0.10595 0.0
C27 C 0.70434 0.93411 0.14231 0.0
O28 O 0.70603 0.91532 0.12977 0.0
C29 C 0.72745 0.91416 0.89095 0.0
C30 C 0.79158 0.88955 0.85294 0.0
O31 O 0.78056 0.87938 0.81324 0.0
O32 O 0.78447 0.89258 0.90829 0.0
O33 O 0.59676 0.7359 0.92628 0.0
Cd34 Cd 0.61043 0.7705 0.93248 0.0
O35 O 0.58326 0.73885 0.02027 0.0
Cd36 Cd 0.56877 0.72625 0.10481 0.0
O37 O 0.56112 0.70883 0.18806 0.0
C38 C 0.57467 0.69958 0.20991 0.0
O39 O 0.59221 0.70134 0.18221 0.0
C40 C 0.58655 0.72823 0.97177 0.0
C41 C 0.58795 0.79574 0.87038 0.0
O42 O 0.6014 0.78701 0.84105 0.0
O43 O 0.58496 0.79233 0.92899 0.0
O44 O 0.25398 0.58855 0.30639 0.0
Cd45 Cd 0.28713 0.60369 0.28063 0.0
O46 O 0.24493 0.59992 0.21726 0.0
Cd47 Cd 0.22357 0.60065 0.14262 0.0
O48 O 0.20214 0.59177 0.07 0.0
C49 C 0.18392 0.58961 0.08543 0.0
O50 O 0.17859 0.59388 0.14349 0.0
C51 C 0.24056 0.59037 0.26706 0.0
C52 C 0.31574 0.58346 0.3347 0.0
O53 O 0.3089 0.5982 0.36343 0.0
O54 O 0.30908 0.57833 0.2801 0.0
O55 O 0.11276 0.24295 0.32693 0.0
Cd56 Cd 0.13139 0.27422 0.29787 0.0
O57 O 0.12862 0.22813 0.25152 0.0
Cd58 Cd 0.1329 0.20262 0.18991 0.0
O59 O 0.12826 0.17889 0.11891 0.0
C60 C 0.11636 0.18108 0.07492 0.0
O61 O 0.10804 0.19765 0.07305 0.0
C62 C 0.11604 0.2272 0.29677 0.0
C63 C 0.11239 0.30693 0.33789 0.0
O64 O 0.10983 0.29942 0.28236 0.0
O65 O 0.12392 0.29897 0.3743 0.0
O66 O 0.2667 0.00498 0.19303 0.0
Cd67 Cd 0.23829 0.0113 0.13191 0.0
O68 O 0.28239 0.02902 0.14025 0.0
Cd69 Cd 0.30711 0.04945 0.10807 0.0
O70 O 0.33068 0.05803 0.04065 0.0
C71 C 0.32809 0.05065 0.98555 0.0
O72 O 0.31151 0.03959 0.97365 0.0
C73 C 0.28263 0.01577 0.18121 0.0
C74 C 0.20484 0.00882 0.20918 0.0
O75 O 0.20963 0.99369 0.17741 0.0
O76 O 0.21574 0.02524 0.20343 0.0
O77 O 0.44367 0.26219 0.18719 0.0
Cd78 Cd 0.43582 0.23102 0.12922 0.0
O79 O 0.47458 0.26384 0.15367 0.0
Cd80 Cd 0.46607 0.24578 0.07033 0.0
O81 O 0.45897 0.26265 0.98942 0.0
C82 C 0.44745 0.2758 0.00311 0.0
O83 O 0.43928 0.27603 0.05964 0.0
C84 C 0.46137 0.27026 0.18975 0.0
C85 C 0.45268 0.20158 0.19176 0.0
O86 O 0.46225 0.21126 0.14798 0.0
O87 O 0.43499 0.20552 0.20482 0.0
Dy88 Dy 0.00042 0.97661 0.68254 0.0
C89 C 0.01786 0.04332 0.51835 0.0
C90 C 0.98711 0.94618 0.75863 0.0
Dy91 Dy 0.00368 0.0113 0.58658 0.0
O92 O 0.00221 0.94625 0.7201 0.0
O93 O 0.97934 0.96278 0.75573 0.0
O94 O 0.03358 0.97647 0.67633 0.0
O95 O 0.01771 0.98456 0.59892 0.0
C96 C 0.03468 0.98331 0.6196 0.0
C97 C 0.96884 0.00364 0.64571 0.0
O98 O 0.994 0.98643 0.52005 0.0
O99 O 0.98352 0.9638 0.5979 0.0
O100 O 0.00076 0.04129 0.5473 0.0
O101 O 0.02685 0.02756 0.52483 0.0
O102 O 0.97065 0.0107 0.58935 0.0
O103 O 0.98568 0.00294 0.6688 0.0
O104 O 0.0119 0.00105 0.74782 0.0
O105 O 0.022 0.02318 0.66858 0.0
C106 C 0.98466 0.96928 0.53807 0.0
C107 C 0.02177 0.01757 0.72785 0.0
Dy108 Dy 0.50155 0.99744 0.53644 0.0
C109 C 0.57922 0.01718 0.63965 0.0
C110 C 0.46504 0.99295 0.48433 0.0
Dy111 Dy 0.54083 0.01357 0.60208 0.0
O112 O 0.48164 0.99688 0.45371 0.0
O113 O 0.46834 0.99108 0.54377 0.0
O114 O 0.51853 0.97739 0.47579 0.0
O115 O 0.53216 0.00506 0.50687 0.0
C116 C 0.5349 0.98904 0.47845 0.0
C117 C 0.50766 0.02117 0.66273 0.0
O118 O 0.53686 0.03945 0.54291 0.0
O119 O 0.50323 0.0305 0.52899 0.0
O120 O 0.56427 0.02187 0.67397 0.0
O121 O 0.57321 0.01095 0.58443 0.0
O122 O 0.52405 0.03284 0.66699 0.0
O123 O 0.51047 0.00565 0.63164 0.0
O124 O 0.50455 0.97101 0.59365 0.0
O125 O 0.5368 0.98118 0.62535 0.0
C126 C 0.5191 0.04356 0.52595 0.0
C127 C 0.52118 0.96771 0.62118 0.0
Dy128 Dy 0.50283 0.50792 0.71264 0.0
C129 C 0.50324 0.46073 0.48505 0.0
C130 C 0.51044 0.53245 0.81497 0.0
Dy131 Dy 0.50925 0.48582 0.58637 0.0
O132 O 0.49368 0.52992 0.78609 0.0
O133 O 0.5227 0.52115 0.78887 0.0
O134 O 0.47003 0.5018 0.70324 0.0
O135 O 0.48828 0.50563 0.6224 0.0
C136 C 0.47078 0.50114 0.64192 0.0
C137 C 0.54125 0.49373 0.65629 0.0
O138 O 0.51444 0.51617 0.54983 0.0
O139 O 0.51656 0.53194 0.64873 0.0
O140 O 0.52025 0.46577 0.51071 0.0
O141 O 0.48966 0.46995 0.51356 0.0
O142 O 0.54208 0.49302 0.59511 0.0
O143 O 0.52393 0.48852 0.67602 0.0
O144 O 0.49641 0.47719 0.74777 0.0
O145 O 0.49504 0.46199 0.64831 0.0
C146 C 0.51857 0.53207 0.58638 0.0
C147 C 0.49254 0.46139 0.71027 0.0
Dy148 Dy 0.98839 0.49448 0.63721 0.0
C149 C 0.04494 0.51146 0.43492 0.0
C150 C 0.95786 0.49377 0.72228 0.0
Dy151 Dy 0.0147 0.50713 0.52172 0.0
O152 O 0.96482 0.47812 0.69772 0.0
O153 O 0.96803 0.50958 0.70199 0.0
O154 O 0.0038 0.46722 0.64512 0.0
O155 O 0.00042 0.47923 0.55565 0.0
C156 C 0.00833 0.46633 0.5853 0.0
C157 C 0.99508 0.53528 0.57594 0.0
O158 O 0.98707 0.4966 0.47033 0.0
O159 O 0.9668 0.4959 0.56007 0.0
O160 O 0.03218 0.52411 0.44649 0.0
O161 O 0.04086 0.49611 0.46978 0.0
O162 O 0.99929 0.53479 0.51605 0.0
O163 O 0.003 0.52203 0.60316 0.0
O164 O 0.01537 0.50514 0.68979 0.0
O165 O 0.03635 0.50898 0.60178 0.0
C166 C 0.96932 0.4953 0.49815 0.0
C167 C 0.03323 0.50874 0.66384 0.0
H168 H 0.17755 0.97692 0.22518 0.0
H169 H 0.1492 0.97415 0.29806 0.0
H170 H 0.16486 0.03408 0.36501 0.0
H171 H 0.19302 0.03713 0.29125 0.0
H172 H 0.14697 0.97598 0.42193 0.0
H173 H 0.12314 0.05494 0.40646 0.0
H174 H 0.12385 0.08161 0.32997 0.0
H175 H 0.12412 0.03898 0.1773 0.0
H176 H 0.12333 0.01203 0.25294 0.0
H177 H 0.07288 0.98703 0.65945 0.0
H178 H 0.10298 0.99342 0.59394 0.0
H179 H 0.06716 0.99482 0.42927 0.0
H180 H 0.03731 0.98887 0.49427 0.0
H181 H 0.09595 0.02322 0.42472 0.0
H182 H 0.0896 0.95352 0.46566 0.0
H183 H 0.08653 0.92418 0.53221 0.0
H184 H 0.14229 0.94366 0.61611 0.0
H185 H 0.14556 0.97327 0.55056 0.0
C186 C 0.17492 0.98955 0.2552 0.0
C187 C 0.18747 0.00727 0.25231 0.0
C188 C 0.15876 0.98791 0.297 0.0
C189 C 0.15487 0.00394 0.33668 0.0
C190 C 0.16744 0.02162 0.33417 0.0
C191 C 0.18354 0.02332 0.29209 0.0
C192 C 0.13767 0.00205 0.38077 0.0
C193 C 0.13585 0.98635 0.42272 0.0
C194 C 0.12306 0.01544 0.38127 0.0
C195 C 0.12342 0.03152 0.33538 0.0
C196 C 0.12331 0.05127 0.35657 0.0
C197 C 0.12373 0.06643 0.31334 0.0
C198 C 0.12409 0.06201 0.24879 0.0
C199 C 0.12395 0.0424 0.22731 0.0
C200 C 0.12357 0.02717 0.27034 0.0
C201 C 0.07154 0.98876 0.60929 0.0
C202 C 0.05288 0.98744 0.58173 0.0
C203 C 0.08867 0.99239 0.57198 0.0
C204 C 0.08729 0.99444 0.50666 0.0
C205 C 0.06858 0.99339 0.47955 0.0
C206 C 0.05155 0.98993 0.51672 0.0
C207 C 0.10517 0.99708 0.46561 0.0
C208 C 0.10718 0.01297 0.42442 0.0
C209 C 0.11962 0.9835 0.46443 0.0
C210 C 0.11771 0.96571 0.50376 0.0
C211 C 0.10113 0.95162 0.49866 0.0
C212 C 0.09937 0.93493 0.53613 0.0
C213 C 0.11418 0.93209 0.5785 0.0
C214 C 0.13081 0.9459 0.58336 0.0
C215 C 0.13263 0.96264 0.54604 0.0
H216 H 0.11279 0.91915 0.60746 0.0
H217 H 0.12444 0.07376 0.21536 0.0
H218 H 0.49012 0.19047 0.17684 0.0
H219 H 0.50558 0.16645 0.23788 0.0
H220 H 0.45174 0.15501 0.34792 0.0
H221 H 0.43627 0.17914 0.28775 0.0
H222 H 0.48374 0.15917 0.42175 0.0
H223 H 0.46394 0.12301 0.23111 0.0
H224 H 0.46281 0.11691 0.11633 0.0
H225 H 0.52595 0.11663 0.10807 0.0
H226 H 0.52747 0.12299 0.22279 0.0
H227 H 0.48608 0.0627 0.5361 0.0
H228 H 0.47979 0.09319 0.48554 0.0
H229 H 0.53936 0.0991 0.40918 0.0
H230 H 0.54586 0.06853 0.46065 0.0
H231 H 0.50988 0.10057 0.3191 0.0
H232 H 0.52792 0.13036 0.5161 0.0
H233 H 0.52788 0.13546 0.6312 0.0
H234 H 0.46716 0.14756 0.62918 0.0
H235 H 0.46659 0.14189 0.51432 0.0
C236 C 0.48155 0.1828 0.21393 0.0
C237 C 0.46193 0.18666 0.2273 0.0
C238 C 0.49041 0.16907 0.24871 0.0
C239 C 0.47977 0.15886 0.29722 0.0
C240 C 0.46023 0.16276 0.31081 0.0
C241 C 0.45138 0.17649 0.27613 0.0
C242 C 0.48885 0.14398 0.33372 0.0
C243 C 0.48932 0.14625 0.3995 0.0
C244 C 0.49674 0.12751 0.3043 0.0
C245 C 0.49585 0.12373 0.23536 0.0
C246 C 0.4776 0.12183 0.20472 0.0
C247 C 0.47688 0.11828 0.1397 0.0
C248 C 0.4943 0.11645 0.10489 0.0
C249 C 0.51247 0.1181 0.13507 0.0
C250 C 0.51327 0.12167 0.20009 0.0
C251 C 0.49794 0.07065 0.50928 0.0
C252 C 0.51643 0.06323 0.50189 0.0
C253 C 0.49436 0.08811 0.48074 0.0
C254 C 0.50913 0.0984 0.44379 0.0
C255 C 0.52781 0.09136 0.43774 0.0
C256 C 0.53153 0.07399 0.46728 0.0
C257 C 0.50428 0.11547 0.40739 0.0
C258 C 0.50459 0.11361 0.34151 0.0
C259 C 0.49695 0.13222 0.43688 0.0
C260 C 0.49716 0.13545 0.50635 0.0
C261 C 0.51445 0.13381 0.54018 0.0
C262 C 0.51455 0.13683 0.60548 0.0
C263 C 0.4975 0.14173 0.63754 0.0
C264 C 0.48034 0.1437 0.60433 0.0
C265 C 0.48013 0.14056 0.53909 0.0
H266 H 0.4976 0.14408 0.68808 0.0
H267 H 0.49371 0.1137 0.05456 0.0
H268 H 0.33129 0.55014 0.28968 0.0
H269 H 0.35666 0.5327 0.33785 0.0
H270 H 0.35976 0.57498 0.49321 0.0
H271 H 0.33453 0.59254 0.44541 0.0
H272 H 0.39615 0.56848 0.44796 0.0
H273 H 0.33613 0.52975 0.51156 0.0
H274 H 0.30416 0.50988 0.49469 0.0
H275 H 0.33326 0.46759 0.3827 0.0
H276 H 0.36539 0.48737 0.39822 0.0
H277 H 0.43201 0.49831 0.67952 0.0
H278 H 0.4043 0.50817 0.62017 0.0
H279 H 0.44282 0.51868 0.45804 0.0
H280 H 0.47056 0.50888 0.51703 0.0
H281 H 0.38543 0.49784 0.50528 0.0
H282 H 0.43421 0.56448 0.40583 0.0
H283 H 0.46517 0.58534 0.42995 0.0
H284 H 0.45671 0.57313 0.62628 0.0
H285 H 0.42557 0.55249 0.60347 0.0
C286 C 0.33736 0.55571 0.33415 0.0
C287 C 0.33091 0.57273 0.36375 0.0
C288 C 0.35178 0.54568 0.36168 0.0
C289 C 0.35998 0.5525 0.41922 0.0
C290 C 0.35361 0.5695 0.44873 0.0
C291 C 0.33916 0.57948 0.42142 0.0
C292 C 0.37552 0.54222 0.44834 0.0
C293 C 0.39382 0.55301 0.46015 0.0
C294 C 0.37241 0.52208 0.46471 0.0
C295 C 0.35312 0.51015 0.45551 0.0
C296 C 0.33569 0.5163 0.4829 0.0
C297 C 0.31754 0.50504 0.47367 0.0
C298 C 0.31667 0.48751 0.43749 0.0
C299 C 0.33395 0.48118 0.41062 0.0
C300 C 0.35213 0.49241 0.41967 0.0
C301 C 0.43444 0.50228 0.63078 0.0
C302 C 0.45345 0.50316 0.60312 0.0
C303 C 0.4186 0.50783 0.5969 0.0
C304 C 0.42163 0.51441 0.53515 0.0
C305 C 0.44027 0.51382 0.50591 0.0
C306 C 0.45608 0.50821 0.53964 0.0
C307 C 0.40604 0.52409 0.50427 0.0
C308 C 0.38778 0.51323 0.49224 0.0
C309 C 0.40905 0.54427 0.48842 0.0
C310 C 0.42768 0.55678 0.50279 0.0
C311 C 0.43894 0.5663 0.45415 0.0
C312 C 0.45651 0.57808 0.46759 0.0
C313 C 0.46289 0.58053 0.52958 0.0
C314 C 0.45176 0.57118 0.57827 0.0
C315 C 0.43416 0.55943 0.5651 0.0
H316 H 0.47641 0.58975 0.53994 0.0
H317 H 0.30261 0.47881 0.4304 0.0
H318 H 0.0918 0.33068 0.26752 0.0
H319 H 0.07448 0.35881 0.30463 0.0
H320 H 0.09245 0.35009 0.49423 0.0
H321 H 0.1099 0.32209 0.45762 0.0
H322 H 0.05208 0.354 0.48396 0.0
H323 H 0.11484 0.38705 0.41534 0.0
H324 H 0.14201 0.39577 0.33923 0.0
H325 H 0.10148 0.41936 0.21644 0.0
H326 H 0.07399 0.41051 0.29146 0.0
H327 H 0.02816 0.43984 0.64455 0.0
H328 H 0.04595 0.4136 0.59692 0.0
H329 H 0.03143 0.43167 0.41201 0.0
H330 H 0.01395 0.45837 0.45974 0.0
H331 H 0.06863 0.42275 0.41291 0.0
H332 H 0.00613 0.39104 0.479 0.0
H333 H 0.97812 0.38214 0.5519 0.0
H334 H 0.01659 0.3554 0.67414 0.0
H335 H 0.04491 0.36439 0.6024 0.0
C336 C 0.09212 0.3348 0.31708 0.0
C337 C 0.1022 0.32416 0.35968 0.0
C338 C 0.08229 0.35091 0.33811 0.0
C339 C 0.08228 0.35655 0.40209 0.0
C340 C 0.09231 0.34595 0.44465 0.0
C341 C 0.1023 0.33 0.42361 0.0
C342 C 0.07134 0.37314 0.42528 0.0
C343 C 0.05582 0.36908 0.46902 0.0
C344 C 0.07581 0.39264 0.40389 0.0
C345 C 0.09231 0.3979 0.35868 0.0
C346 C 0.11168 0.39391 0.37182 0.0
C347 C 0.12715 0.39892 0.32894 0.0
C348 C 0.12347 0.40806 0.27294 0.0
C349 C 0.10431 0.41225 0.25977 0.0
C350 C 0.08878 0.40725 0.30247 0.0
C351 C 0.02879 0.43824 0.59374 0.0
C352 C 0.01955 0.45098 0.55579 0.0
C353 C 0.03889 0.4232 0.56656 0.0
C354 C 0.03969 0.42041 0.50091 0.0
C355 C 0.03091 0.43348 0.46277 0.0
C356 C 0.0209 0.44867 0.49003 0.0
C357 C 0.04954 0.40369 0.47257 0.0
C358 C 0.06479 0.40767 0.42769 0.0
C359 C 0.04468 0.38403 0.4923 0.0
C360 C 0.02768 0.37855 0.53556 0.0
C361 C 0.00865 0.38339 0.52166 0.0
C362 C 0.99271 0.37831 0.56274 0.0
C363 C 0.99559 0.36825 0.61768 0.0
C364 C 0.0144 0.36321 0.63159 0.0
C365 C 0.03039 0.36828 0.5907 0.0
H366 H 0.98323 0.36432 0.64942 0.0
H367 H 0.13547 0.41194 0.23982 0.0
H368 H 0.82016 0.90799 0.92878 0.0
H369 H 0.85168 0.9257 0.89611 0.0
H370 H 0.83901 0.91004 0.70208 0.0
H371 H 0.8078 0.89179 0.73455 0.0
H372 H 0.87656 0.90793 0.72235 0.0
H373 H 0.8308 0.95589 0.76726 0.0
H374 H 0.80672 0.97292 0.83134 0.0
H375 H 0.85085 0.98907 0.97002 0.0
H376 H 0.87514 0.9719 0.90711 0.0
H377 H 0.93922 0.98497 0.57588 0.0
H378 H 0.91039 0.96364 0.61362 0.0
H379 H 0.92919 0.97469 0.80498 0.0
H380 H 0.9581 0.99611 0.76724 0.0
H381 H 0.88952 0.9785 0.78883 0.0
H382 H 0.93629 0.9334 0.73122 0.0
H383 H 0.95925 0.91506 0.66693 0.0
H384 H 0.912 0.89391 0.54404 0.0
H385 H 0.88881 0.91223 0.60766 0.0
C386 C 0.82419 0.90814 0.87923 0.0
C387 C 0.81144 0.89863 0.83418 0.0
C388 C 0.84216 0.91835 0.86059 0.0
C389 C 0.84751 0.91954 0.79653 0.0
C390 C 0.83516 0.90938 0.75174 0.0
C391 C 0.81731 0.89897 0.77039 0.0
C392 C 0.86558 0.93196 0.77582 0.0
C393 C 0.87929 0.92344 0.73606 0.0
C394 C 0.86928 0.95209 0.7949 0.0
C395 C 0.85472 0.96243 0.83281 0.0
C396 C 0.83532 0.96295 0.81166 0.0
C397 C 0.82165 0.97264 0.84772 0.0
C398 C 0.82724 0.98202 0.90481 0.0
C399 C 0.84654 0.98177 0.92585 0.0
C400 C 0.86027 0.97207 0.89 0.0
C401 C 0.93707 0.98299 0.62603 0.0
C402 C 0.9508 0.9921 0.66887 0.0
C403 C 0.92074 0.97066 0.64741 0.0
C404 C 0.91783 0.96741 0.71197 0.0
C405 C 0.93126 0.97695 0.75494 0.0
C406 C 0.9477 0.98914 0.73347 0.0
C407 C 0.90044 0.95452 0.73482 0.0
C408 C 0.88682 0.96299 0.77499 0.0
C409 C 0.89668 0.93445 0.71496 0.0
C410 C 0.91083 0.92429 0.67439 0.0
C411 C 0.93085 0.92498 0.69032 0.0
C412 C 0.94388 0.91453 0.6541 0.0
C413 C 0.93706 0.90326 0.60162 0.0
C414 C 0.91725 0.90259 0.58489 0.0
C415 C 0.90415 0.913 0.62113 0.0
H416 H 0.94712 0.89502 0.57401 0.0
H417 H 0.81663 0.98953 0.93266 0.0
H418 H 0.56203 0.81999 0.92279 0.0
H419 H 0.54614 0.84563 0.87113 0.0
H420 H 0.5725 0.82924 0.69338 0.0
H421 H 0.58886 0.80387 0.7451 0.0
H422 H 0.57854 0.86707 0.71084 0.0
H423 H 0.52186 0.82028 0.72332 0.0
H424 H 0.49715 0.79614 0.77301 0.0
H425 H 0.4789 0.84165 0.89862 0.0
H426 H 0.50368 0.86601 0.85028 0.0
H427 H 0.50198 0.93186 0.58508 0.0
H428 H 0.50886 0.89912 0.62011 0.0
H429 H 0.55091 0.92686 0.75211 0.0
H430 H 0.54431 0.95948 0.71719 0.0
H431 H 0.50831 0.88012 0.73785 0.0
H432 H 0.59363 0.90241 0.73292 0.0
H433 H 0.61803 0.92523 0.67672 0.0
H434 H 0.57817 0.92673 0.52354 0.0
H435 H 0.5539 0.90318 0.57733 0.0
C436 C 0.56426 0.82167 0.87256 0.0
C437 C 0.57681 0.80997 0.83811 0.0
C438 C 0.55504 0.83627 0.84296 0.0
C439 C 0.55797 0.83928 0.77819 0.0
C440 C 0.57002 0.8272 0.74338 0.0
C441 C 0.57936 0.81269 0.77303 0.0
C442 C 0.54988 0.85612 0.74809 0.0
C443 C 0.56315 0.86982 0.71641 0.0
C444 C 0.52971 0.85954 0.75423 0.0
C445 C 0.51473 0.84495 0.78339 0.0
C446 C 0.51267 0.82511 0.76183 0.0
C447 C 0.49864 0.8114 0.78971 0.0
C448 C 0.48649 0.81735 0.83901 0.0
C449 C 0.48832 0.83705 0.86044 0.0
C450 C 0.50234 0.85083 0.83275 0.0
C451 C 0.51246 0.93094 0.62226 0.0
C452 C 0.52294 0.94815 0.64757 0.0
C453 C 0.51636 0.91228 0.64218 0.0
C454 C 0.53074 0.91068 0.68762 0.0
C455 C 0.54014 0.92788 0.71591 0.0
C456 C 0.53638 0.94644 0.69583 0.0
C457 C 0.53715 0.89125 0.70294 0.0
C458 C 0.52362 0.87716 0.73178 0.0
C459 C 0.55705 0.88728 0.69331 0.0
C460 C 0.57179 0.90117 0.65972 0.0
C461 C 0.59011 0.90745 0.687 0.0
C462 C 0.60396 0.92049 0.65544 0.0
C463 C 0.59959 0.92756 0.59683 0.0
C464 C 0.58149 0.92135 0.56915 0.0
C465 C 0.5677 0.90809 0.60008 0.0
H466 H 0.61026 0.9378 0.57276 0.0
H467 H 0.47563 0.80671 0.86053 0.0
H468 H 0.67672 0.52278 0.07388 0.0
H469 H 0.64689 0.5158 0.01154 0.0
H470 H 0.67486 0.55033 0.86061 0.0
H471 H 0.70416 0.55831 0.92442 0.0
H472 H 0.63927 0.55699 0.86569 0.0
H473 H 0.67054 0.49721 0.86288 0.0
H474 H 0.68549 0.46912 0.90664 0.0
H475 H 0.63064 0.45016 0.00128 0.0
H476 H 0.61543 0.47829 0.95872 0.0
H477 H 0.57664 0.51319 0.6217 0.0
H478 H 0.60478 0.5236 0.68921 0.0
H479 H 0.57198 0.49889 0.84949 0.0
H480 H 0.54395 0.4882 0.78197 0.0
H481 H 0.60947 0.48762 0.8395 0.0
H482 H 0.57883 0.54876 0.829 0.0
H483 H 0.56601 0.57647 0.77541 0.0
H484 H 0.62328 0.59192 0.69111 0.0
H485 H 0.63627 0.56413 0.74334 0.0
C486 C 0.67639 0.52899 0.02758 0.0
C487 C 0.69274 0.54103 0.00385 0.0
C488 C 0.65941 0.52487 0.99174 0.0
C489 C 0.65873 0.53213 0.9306 0.0
C490 C 0.67496 0.54451 0.90751 0.0
C491 C 0.69173 0.54905 0.94399 0.0
C492 C 0.64127 0.52671 0.89036 0.0
C493 C 0.63293 0.54177 0.85942 0.0
C494 C 0.63281 0.50689 0.88236 0.0
C495 C 0.64192 0.48998 0.90816 0.0
C496 C 0.66171 0.48713 0.89342 0.0
C497 C 0.67022 0.47119 0.91794 0.0
C498 C 0.65904 0.4579 0.95686 0.0
C499 C 0.6393 0.46049 0.97122 0.0
C500 C 0.63072 0.47642 0.94688 0.0
C501 C 0.57547 0.51001 0.67136 0.0
C502 C 0.55815 0.49999 0.69684 0.0
C503 C 0.59147 0.51609 0.7099 0.0
C504 C 0.59037 0.51223 0.77448 0.0
C505 C 0.57309 0.50211 0.79984 0.0
C506 C 0.55709 0.49606 0.76134 0.0
C507 C 0.60755 0.51788 0.81518 0.0
C508 C 0.61583 0.50283 0.84605 0.0
C509 C 0.61631 0.53762 0.82145 0.0
C510 C 0.60842 0.55423 0.78963 0.0
C511 C 0.58858 0.55796 0.79855 0.0
C512 C 0.58131 0.5737 0.76854 0.0
C513 C 0.59383 0.58591 0.72978 0.0
C514 C 0.6136 0.58242 0.72106 0.0
C515 C 0.62091 0.56669 0.75088 0.0
H516 H 0.58827 0.5981 0.70658 0.0
H517 H 0.66565 0.44556 0.97578 0.0
H518 H 0.88015 0.6651 0.74707 0.0
H519 H 0.89783 0.63805 0.70443 0.0
H520 H 0.92937 0.63697 0.87799 0.0
H521 H 0.91199 0.66428 0.92055 0.0
H522 H 0.95416 0.63575 0.78347 0.0
H523 H 0.89266 0.6004 0.83685 0.0
H524 H 0.85663 0.59132 0.84156 0.0
H525 H 0.85605 0.58203 0.64105 0.0
H526 H 0.89204 0.5913 0.63495 0.0
H527 H 0.9941 0.54488 0.70087 0.0
H528 H 0.9743 0.56873 0.75431 0.0
H529 H 0.94972 0.58179 0.57674 0.0
H530 H 0.96945 0.55788 0.52305 0.0
H531 H 0.92141 0.57521 0.67954 0.0
H532 H 0.98423 0.61292 0.6312 0.0
H533 H 0.02061 0.61903 0.63361 0.0
H534 H 0.01837 0.62076 0.83561 0.0
H535 H 0.98197 0.61437 0.8344 0.0
C536 C 0.89078 0.65906 0.77632 0.0
C537 C 0.89469 0.66689 0.83719 0.0
C538 C 0.90079 0.64348 0.752 0.0
C539 C 0.91479 0.63529 0.78822 0.0
C540 C 0.91862 0.64301 0.84916 0.0
C541 C 0.90866 0.65863 0.87345 0.0
C542 C 0.92616 0.61941 0.76124 0.0
C543 C 0.94693 0.62239 0.76165 0.0
C544 C 0.91681 0.602 0.73216 0.0
C545 C 0.89504 0.59687 0.73536 0.0
C546 C 0.88482 0.59668 0.79363 0.0
C547 C 0.8644 0.59143 0.79658 0.0
C548 C 0.85403 0.58621 0.74162 0.0
C549 C 0.86408 0.58615 0.68359 0.0
C550 C 0.8845 0.5914 0.68036 0.0
C551 C 0.98439 0.5528 0.67337 0.0
C552 C 0.98324 0.54962 0.60796 0.0
C553 C 0.97317 0.56641 0.70385 0.0
C554 C 0.96063 0.577 0.66933 0.0
C555 C 0.95931 0.57369 0.60408 0.0
C556 C 0.97064 0.56017 0.5735 0.0
C557 C 0.94916 0.59185 0.70108 0.0
C558 C 0.92847 0.58861 0.70161 0.0
C559 C 0.95854 0.60883 0.73198 0.0
C560 C 0.98039 0.61299 0.7327 0.0
C561 C 0.9915 0.61446 0.67613 0.0
C562 C 0.01212 0.618 0.67728 0.0
C563 C 0.02179 0.62024 0.73473 0.0
C564 C 0.01086 0.619 0.79115 0.0
C565 C 0.99023 0.61544 0.79026 0.0
H566 H 0.03776 0.62299 0.73552 0.0
H567 H 0.83823 0.58214 0.74406 0.0
H568 H 0.13164 0.19259 0.31343 0.0
H569 H 0.11464 0.16166 0.35142 0.0
H570 H 0.05924 0.18767 0.35552 0.0
H571 H 0.07669 0.21917 0.32274 0.0
H572 H 0.05932 0.16763 0.45139 0.0
H573 H 0.07477 0.15041 0.23441 0.0
H574 H 0.0957 0.14603 0.14069 0.0
H575 H 0.13137 0.10997 0.24369 0.0
H576 H 0.11022 0.11384 0.3382 0.0
H577 H -0.00013 0.07596 0.48977 0.0
H578 H 0.01561 0.10736 0.45023 0.0
H579 H 0.07244 0.08422 0.45072 0.0
H580 H 0.05658 0.05259 0.48699 0.0
H581 H 0.07063 0.10293 0.35139 0.0
H582 H 0.05606 0.12087 0.5691 0.0
H583 H 0.03461 0.12427 0.6634 0.0
H584 H 0.99792 0.15915 0.56006 0.0
H585 H 0.01914 0.15592 0.4654 0.0
C586 C 0.1158 0.19158 0.32197 0.0
C587 C 0.10539 0.20811 0.31457 0.0
C588 C 0.10602 0.17383 0.34327 0.0
C589 C 0.08545 0.17197 0.3549 0.0
C590 C 0.07506 0.18857 0.34689 0.0
C591 C 0.08499 0.20654 0.32778 0.0
C592 C 0.07485 0.153 0.37717 0.0
C593 C 0.06161 0.15353 0.42876 0.0
C594 C 0.07809 0.13441 0.34934 0.0
C595 C 0.09102 0.13247 0.2932 0.0
C596 C 0.08719 0.1417 0.23719 0.0
C597 C 0.09913 0.13931 0.18389 0.0
C598 C 0.115 0.12781 0.18612 0.0
C599 C 0.119 0.11875 0.24188 0.0
C600 C 0.10699 0.12095 0.29521 0.0
C601 C 0.0157 0.07759 0.48087 0.0
C602 C 0.02701 0.06186 0.49107 0.0
C603 C 0.02474 0.09563 0.4591 0.0
C604 C 0.04534 0.09843 0.44876 0.0
C605 C 0.05655 0.08254 0.45834 0.0
C606 C 0.04748 0.06442 0.47897 0.0
C607 C 0.05525 0.11755 0.42579 0.0
C608 C 0.06833 0.11704 0.37396 0.0
C609 C 0.05188 0.13612 0.4536 0.0
C610 C 0.03901 0.1379 0.51017 0.0
C611 C 0.0433 0.12907 0.56652 0.0
C612 C 0.03123 0.13102 0.61998 0.0
C613 C 0.01485 0.14179 0.61757 0.0
C614 C 0.01057 0.15075 0.56181 0.0
C615 C 0.02264 0.14891 0.50832 0.0
H616 H 0.00553 0.14328 0.65899 0.0
H617 H 0.12412 0.12573 0.1447 0.0
H618 H 0.32096 0.02049 0.13672 0.0
H619 H 0.3508 0.01498 0.19291 0.0
H620 H 0.31517 0.9968 0.35563 0.0
H621 H 0.2853 0.003 0.30029 0.0
H622 H 0.34736 0.0212 0.38906 0.0
H623 H 0.33385 0.96323 0.25789 0.0
H624 H 0.32736 0.94395 0.15932 0.0
H625 H 0.38382 0.96728 0.08381 0.0
H626 H 0.39039 0.98715 0.18109 0.0
H627 H 0.42872 0.98535 0.54165 0.0
H628 H 0.3963 0.98685 0.49436 0.0
H629 H 0.42508 0.00238 0.31697 0.0
H630 H 0.45726 0.00029 0.36335 0.0
H631 H 0.3945 0.97677 0.29712 0.0
H632 H 0.40596 0.03806 0.41885 0.0
H633 H 0.41322 0.05809 0.51546 0.0
H634 H 0.36198 0.02866 0.60734 0.0
H635 H 0.35435 0.0085 0.51088 0.0
C636 C 0.31951 0.01585 0.18497 0.0
C637 C 0.30084 0.01265 0.21463 0.0
C638 C 0.33655 0.01235 0.2167 0.0
C639 C 0.3352 0.00535 0.27837 0.0
C640 C 0.31656 0.00221 0.30813 0.0
C641 C 0.29952 0.00569 0.27639 0.0
C642 C 0.35323 0.00132 0.31179 0.0
C643 C 0.35753 0.01125 0.3694 0.0
C644 C 0.36663 0.98857 0.28572 0.0
C645 C 0.36253 0.97684 0.22666 0.0
C646 C 0.34478 0.96445 0.21997 0.0
C647 C 0.34108 0.9534 0.16428 0.0
C648 C 0.35512 0.95446 0.11518 0.0
C649 C 0.37289 0.96655 0.12168 0.0
C650 C 0.3766 0.97773 0.17706 0.0
C651 C 0.42803 0.9889 0.49244 0.0
C652 C 0.44543 0.99269 0.45606 0.0
C653 C 0.40955 0.9899 0.4656 0.0
C654 C 0.40826 0.995 0.40227 0.0
C655 C 0.42568 0.9984 0.36584 0.0
C656 C 0.44407 0.99724 0.39242 0.0
C657 C 0.38889 0.99703 0.37347 0.0
C658 C 0.38428 0.98663 0.31689 0.0
C659 C 0.37529 0.00946 0.40018 0.0
C660 C 0.37971 0.02166 0.45796 0.0
C661 C 0.3963 0.0358 0.45978 0.0
C662 C 0.40047 0.04719 0.51449 0.0
C663 C 0.38816 0.04457 0.56773 0.0
C664 C 0.37154 0.03065 0.56613 0.0
C665 C 0.36724 0.01929 0.51138 0.0
H666 H 0.39144 0.05337 0.61012 0.0
H667 H 0.35226 0.94585 0.07218 0.0
H668 H 0.43552 0.29228 0.2531 0.0
H669 H 0.44292 0.32487 0.30335 0.0
H670 H 0.50507 0.32244 0.26287 0.0
H671 H 0.49785 0.28981 0.21236 0.0
H672 H 0.49715 0.33831 0.38353 0.0
H673 H 0.48037 0.34732 0.16713 0.0
H674 H 0.45953 0.34253 0.07368 0.0
H675 H 0.41192 0.3667 0.17553 0.0
H676 H 0.43256 0.37156 0.26988 0.0
H677 H 0.52999 0.43878 0.42723 0.0
H678 H 0.52295 0.40658 0.37371 0.0
H679 H 0.46032 0.41119 0.39599 0.0
H680 H 0.4673 0.44361 0.44805 0.0
H681 H 0.46832 0.39397 0.28539 0.0
H682 H 0.48447 0.38566 0.50125 0.0
H683 H 0.50522 0.3916 0.59499 0.0
H684 H 0.55285 0.36614 0.49752 0.0
H685 H 0.53245 0.36022 0.40298 0.0
C686 C 0.45081 0.2985 0.25578 0.0
C687 C 0.46609 0.2885 0.22832 0.0
C688 C 0.45499 0.31717 0.28423 0.0
C689 C 0.4745 0.32614 0.28592 0.0
C690 C 0.48991 0.31577 0.26175 0.0
C691 C 0.48574 0.29714 0.23287 0.0
C692 C 0.47873 0.34674 0.30984 0.0
C693 C 0.49103 0.35052 0.36175 0.0
C694 C 0.47037 0.36257 0.28217 0.0
C695 C 0.45792 0.3596 0.22567 0.0
C696 C 0.4654 0.35146 0.16973 0.0
C697 C 0.45362 0.34877 0.11655 0.0
C698 C 0.43434 0.35421 0.11868 0.0
C699 C 0.42684 0.36245 0.17398 0.0
C700 C 0.43859 0.36521 0.22728 0.0
C701 C 0.51474 0.43312 0.41932 0.0
C702 C 0.49918 0.44355 0.44209 0.0
C703 C 0.51073 0.41467 0.38927 0.0
C704 C 0.49112 0.40629 0.38241 0.0
C705 C 0.47557 0.41733 0.40126 0.0
C706 C 0.47957 0.43585 0.43087 0.0
C707 C 0.48681 0.38561 0.35904 0.0
C708 C 0.47444 0.38179 0.30732 0.0
C709 C 0.49494 0.36972 0.38736 0.0
C710 C 0.50701 0.37268 0.44483 0.0
C711 C 0.49939 0.38139 0.49975 0.0
C712 C 0.51109 0.38475 0.55302 0.0
C713 C 0.53037 0.37935 0.55203 0.0
C714 C 0.53793 0.37037 0.49809 0.0
C715 C 0.5263 0.36697 0.4447 0.0
H716 H 0.53949 0.38215 0.59301 0.0
H717 H 0.4252 0.35211 0.07754 0.0
H718 H 0.22934 0.55336 0.30915 0.0
H719 H 0.19546 0.53804 0.32793 0.0
H720 H 0.17248 0.5917 0.27305 0.0
H721 H 0.20627 0.60681 0.25238 0.0
H722 H 0.15545 0.57668 0.38357 0.0
H723 H 0.16827 0.55411 0.17258 0.0
H724 H 0.18786 0.53893 0.08896 0.0
H725 H 0.18256 0.48433 0.18779 0.0
H726 H 0.16306 0.49931 0.27229 0.0
H727 H 0.05541 0.54378 0.3649 0.0
H728 H 0.0885 0.55498 0.3246 0.0
H729 H 0.10989 0.50123 0.38581 0.0
H730 H 0.07665 0.48982 0.42585 0.0
H731 H 0.12778 0.51554 0.27021 0.0
H732 H 0.11483 0.53904 0.48258 0.0
H733 H 0.09484 0.55491 0.56384 0.0
H734 H 0.10027 0.6085 0.45977 0.0
H735 H 0.12012 0.59288 0.37759 0.0
C736 C 0.217 0.56178 0.30075 0.0
C737 C 0.22028 0.58112 0.27849 0.0
C738 C 0.19771 0.55303 0.31126 0.0
C739 C 0.18148 0.56366 0.30095 0.0
C740 C 0.18481 0.58318 0.28051 0.0
C741 C 0.20406 0.59175 0.2685 0.0
C742 C 0.16101 0.5546 0.31265 0.0
C743 C 0.14935 0.56344 0.3583 0.0
C744 C 0.15317 0.53715 0.28037 0.0
C745 C 0.16446 0.52792 0.22908 0.0
C746 C 0.17142 0.53893 0.17664 0.0
C747 C 0.1825 0.53036 0.12913 0.0
C748 C 0.18663 0.51073 0.1334 0.0
C749 C 0.17946 0.49957 0.18479 0.0
C750 C 0.16835 0.50808 0.23243 0.0
C751 C 0.06704 0.53412 0.36831 0.0
C752 C 0.06357 0.51605 0.39907 0.0
C753 C 0.08593 0.54055 0.34541 0.0
C754 C 0.10168 0.52908 0.3533 0.0
C755 C 0.09792 0.51031 0.37948 0.0
C756 C 0.07896 0.50383 0.40235 0.0
C757 C 0.12227 0.5377 0.34096 0.0
C758 C 0.13394 0.52876 0.29546 0.0
C759 C 0.13016 0.55513 0.37327 0.0
C760 C 0.11879 0.56474 0.42368 0.0
C761 C 0.11169 0.55419 0.47694 0.0
C762 C 0.10039 0.56313 0.52315 0.0
C763 C 0.09621 0.58266 0.51673 0.0
C764 C 0.10349 0.59336 0.46453 0.0
C765 C 0.11479 0.58448 0.41819 0.0
H766 H 0.08731 0.58952 0.55214 0.0
H767 H 0.19524 0.50412 0.09663 0.0
H768 H 0.87382 0.78782 0.86479 0.0
H769 H 0.88917 0.8214 0.84528 0.0
H770 H 0.94309 0.80696 0.92863 0.0
H771 H 0.9273 0.77389 0.95134 0.0
H772 H 0.93701 0.84101 0.96894 0.0
H773 H 0.93517 0.81031 0.76237 0.0
H774 H 0.92048 0.79317 0.66826 0.0
H775 H 0.88477 0.84079 0.64275 0.0
H776 H 0.89901 0.85807 0.73732 0.0
H777 H 0.00022 0.90975 0.75941 0.0
H778 H 0.98268 0.87953 0.80156 0.0
H779 H 0.93616 0.9129 0.87386 0.0
H780 H 0.95405 0.94337 0.83417 0.0
H781 H 0.93661 0.87167 0.76013 0.0
H782 H 0.93782 0.8999 0.98028 0.0
H783 H 0.95612 0.91648 0.06926 0.0
H784 H 0.99679 0.87212 0.06099 0.0
H785 H 0.97885 0.85546 0.97139 0.0
C786 C 0.88897 0.7919 0.87856 0.0
C787 C 0.89943 0.77843 0.90964 0.0
C788 C 0.89778 0.81102 0.86722 0.0
C789 C 0.91742 0.81673 0.88481 0.0
C790 C 0.92792 0.80302 0.91484 0.0
C791 C 0.91895 0.78412 0.92762 0.0
C792 C 0.92702 0.83702 0.87323 0.0
C793 C 0.93682 0.84763 0.92316 0.0
C794 C 0.92679 0.84591 0.81371 0.0
C795 C 0.91794 0.83534 0.75752 0.0
C796 C 0.92402 0.81702 0.73713 0.0
C797 C 0.9158 0.80729 0.68362 0.0
C798 C 0.90164 0.81584 0.64971 0.0
C799 C 0.89568 0.83415 0.66919 0.0
C800 C 0.90381 0.8439 0.72277 0.0
C801 C 0.98656 0.91074 0.78599 0.0
C802 C 0.97838 0.92881 0.79314 0.0
C803 C 0.97658 0.8935 0.80997 0.0
C804 C 0.95827 0.89408 0.84126 0.0
C805 C 0.95048 0.91225 0.851 0.0
C806 C 0.96066 0.92959 0.82802 0.0
C807 C 0.94631 0.87534 0.85565 0.0
C808 C 0.93627 0.86504 0.80606 0.0
C809 C 0.94647 0.86665 0.91501 0.0
C810 C 0.95727 0.87671 0.96844 0.0
C811 C 0.95084 0.89388 0.99684 0.0
C812 C 0.9611 0.90324 0.04752 0.0
C813 C 0.97771 0.89545 0.07037 0.0
C814 C 0.98399 0.8782 0.04299 0.0
C815 C 0.9738 0.8688 0.99229 0.0
H816 H 0.98568 0.90274 0.10941 0.0
H817 H 0.89533 0.80831 0.60822 0.0
H818 H 0.72478 0.92648 0.77144 0.0
H819 H 0.7033 0.94981 0.73225 0.0
H820 H 0.68098 0.95955 0.92089 0.0
H821 H 0.7014 0.93516 0.9595 0.0
H822 H 0.65197 0.95335 0.84496 0.0
H823 H 0.71311 0.99547 0.83757 0.0
H824 H 0.74813 0.00479 0.80926 0.0
H825 H 0.7345 0.99852 0.61304 0.0
H826 H 0.69944 0.9889 0.64013 0.0
H827 H 0.59206 0.02466 0.75905 0.0
H828 H 0.6217 0.01369 0.80456 0.0
H829 H 0.64024 0.99291 0.62136 0.0
H830 H 0.6106 0.00387 0.5755 0.0
H831 H 0.67243 0.00783 0.69922 0.0
H832 H 0.61398 0.9625 0.70318 0.0
H833 H 0.57895 0.95202 0.72474 0.0
H834 H 0.58774 0.9628 0.92269 0.0
H835 H 0.62302 0.97368 0.90183 0.0
C836 C 0.7154 0.9337 0.80471 0.0
C837 C 0.71521 0.92931 0.86898 0.0
C838 C 0.7033 0.94725 0.7823 0.0
C839 C 0.69086 0.95687 0.82377 0.0
C840 C 0.6907 0.95257 0.88808 0.0
C841 C 0.70266 0.93884 0.91041 0.0
C842 C 0.67673 0.96996 0.79927 0.0
C843 C 0.65659 0.96558 0.81448 0.0
C844 C 0.68257 0.98548 0.75738 0.0
C845 C 0.70366 0.99132 0.74096 0.0
C846 C 0.7176 0.99594 0.78839 0.0
C847 C 0.73746 0.0013 0.77255 0.0
C848 C 0.74355 0.00221 0.70941 0.0
C849 C 0.72977 0.9978 0.66195 0.0
C850 C 0.7099 0.99242 0.67752 0.0
C851 C 0.60275 0.01829 0.7282 0.0
C852 C 0.59896 0.01487 0.66398 0.0
C853 C 0.61967 0.01205 0.75423 0.0
C854 C 0.633 0.00227 0.71642 0.0
C855 C 0.63014 0.00046 0.65128 0.0
C856 C 0.61317 0.00664 0.62522 0.0
C857 C 0.64795 0.99128 0.74592 0.0
C858 C 0.66805 0.99589 0.73105 0.0
C859 C 0.64216 0.97582 0.78773 0.0
C860 C 0.62106 0.96913 0.80085 0.0
C861 C 0.60842 0.96279 0.75127 0.0
C862 C 0.5885 0.95676 0.76341 0.0
C863 C 0.58102 0.95679 0.82513 0.0
C864 C 0.59353 0.96281 0.87487 0.0
C865 C 0.61351 0.96892 0.8629 0.0
H866 H 0.56555 0.95214 0.83448 0.0
H867 H 0.75893 0.00636 0.69726 0.0
H868 H 0.60594 0.69781 0.92575 0.0
H869 H 0.59324 0.66293 0.91538 0.0
H870 H 0.53713 0.67644 0.99564 0.0
H871 H 0.55026 0.71117 0.00906 0.0
H872 H 0.54368 0.64333 0.03644 0.0
H873 H 0.54712 0.66968 0.83026 0.0
H874 H 0.56124 0.68574 0.7345 0.0
H875 H 0.60167 0.64142 0.71123 0.0
H876 H 0.58802 0.62529 0.80744 0.0
H877 H 0.48861 0.56198 0.85647 0.0
H878 H 0.50168 0.59385 0.90392 0.0
H879 H 0.55938 0.57318 0.91313 0.0
H880 H 0.54624 0.54109 0.86788 0.0
H881 H 0.55193 0.60879 0.83061 0.0
H882 H 0.54504 0.58175 0.03832 0.0
H883 H 0.52722 0.56561 0.12826 0.0
H884 H 0.48848 0.61167 0.14018 0.0
H885 H 0.5059 0.62796 0.04959 0.0
C886 C 0.59095 0.69325 0.94158 0.0
C887 C 0.57908 0.7071 0.96832 0.0
C888 C 0.58364 0.67334 0.93528 0.0
C889 C 0.56403 0.66703 0.95332 0.0
C890 C 0.55229 0.68086 0.9813 0.0
C891 C 0.55979 0.7007 0.98905 0.0
C892 C 0.55565 0.64615 0.94191 0.0
C893 C 0.54535 0.63589 0.99118 0.0
C894 C 0.5579 0.63624 0.88298 0.0
C895 C 0.56672 0.64643 0.8266 0.0
C896 C 0.55923 0.66354 0.80529 0.0
C897 C 0.56711 0.67262 0.7508 0.0
C898 C 0.5824 0.66466 0.71696 0.0
C899 C 0.58988 0.64763 0.73763 0.0
C900 C 0.58209 0.63851 0.79214 0.0
C901 C 0.50389 0.564 0.87083 0.0
C902 C 0.51656 0.54926 0.85772 0.0
C903 C 0.51133 0.58218 0.89779 0.0
C904 C 0.53148 0.5858 0.91153 0.0
C905 C 0.54378 0.57058 0.90282 0.0
C906 C 0.53629 0.55234 0.87685 0.0
C907 C 0.54028 0.60618 0.92511 0.0
C908 C 0.55049 0.61631 0.87592 0.0
C909 C 0.5375 0.61604 0.98334 0.0
C910 C 0.52664 0.60595 0.0366 0.0
C911 C 0.53251 0.58826 0.05934 0.0
C912 C 0.52254 0.57914 0.1107 0.0
C913 C 0.50668 0.58757 0.13978 0.0
C914 C 0.50074 0.60514 0.11752 0.0
C915 C 0.51066 0.61432 0.06619 0.0
H916 H 0.49903 0.58052 0.17969 0.0
H917 H 0.5884 0.67165 0.67459 0.0
H918 H 0.79735 0.54317 0.94006 0.0
H919 H 0.82601 0.53447 0.8788 0.0
H920 H 0.8119 0.47315 0.92492 0.0
H921 H 0.7833 0.48181 0.98749 0.0
H922 H 0.84843 0.48477 0.95295 0.0
H923 H 0.80993 0.48885 0.77334 0.0
H924 H 0.78777 0.50206 0.69856 0.0
H925 H 0.83082 0.55158 0.66557 0.0
H926 H 0.85308 0.53904 0.74162 0.0
H927 H 0.9334 0.46211 0.76356 0.0
H928 H 0.89968 0.46269 0.80705 0.0
H929 H 0.90557 0.52635 0.79791 0.0
H930 H 0.93915 0.52589 0.75517 0.0
H931 H 0.87138 0.50834 0.74272 0.0
H932 H 0.90778 0.50511 0.93436 0.0
H933 H 0.92968 0.49063 0.00723 0.0
H934 H 0.88967 0.43754 0.01349 0.0
H935 H 0.86772 0.45156 0.93952 0.0
C936 C 0.80005 0.52776 0.93612 0.0
C937 C 0.78813 0.51322 0.96922 0.0
C938 C 0.81642 0.52278 0.90068 0.0
C939 C 0.82109 0.50314 0.89711 0.0
C940 C 0.80857 0.48841 0.92711 0.0
C941 C 0.79219 0.49338 0.96271 0.0
C942 C 0.84026 0.49856 0.86868 0.0
C943 C 0.85328 0.48953 0.90641 0.0
C944 C 0.84668 0.50504 0.80823 0.0
C945 C 0.83312 0.51306 0.76381 0.0
C946 C 0.81459 0.50272 0.75092 0.0
C947 C 0.80201 0.51009 0.70822 0.0
C948 C 0.80786 0.52771 0.67759 0.0
C949 C 0.82629 0.53801 0.68966 0.0
C950 C 0.83889 0.53079 0.73264 0.0
C951 C 0.92758 0.47621 0.77201 0.0
C952 C 0.93884 0.49395 0.75639 0.0
C953 C 0.90835 0.47652 0.79655 0.0
C954 C 0.90019 0.49456 0.80539 0.0
C955 C 0.91162 0.51229 0.79116 0.0
C956 C 0.93083 0.512 0.76725 0.0
C957 C 0.87953 0.49513 0.82785 0.0
C958 C 0.86632 0.50337 0.78891 0.0
C959 C 0.87287 0.48781 0.88695 0.0
C960 C 0.88624 0.47928 0.93069 0.0
C961 C 0.90379 0.49024 0.95052 0.0
C962 C 0.9162 0.48213 0.99214 0.0
C963 C 0.91111 0.46315 0.0148 0.0
C964 C 0.89362 0.45222 0.99577 0.0
C965 C 0.88121 0.46023 0.95391 0.0
H966 H 0.92069 0.45693 0.04724 0.0
H967 H 0.79814 0.53334 0.64434 0.0
H968 H 0.08478 0.17764 0.99673 0.0
H969 H 0.07112 0.14799 0.93862 0.0
H970 H 0.11876 0.11648 0.00054 0.0
H971 H 0.13308 0.1464 0.05656 0.0
H972 H 0.09014 0.12332 0.84277 0.0
H973 H 0.09369 0.07218 0.04977 0.0
H974 H 0.09008 0.07143 0.16552 0.0
H975 H 0.05256 0.11847 0.16307 0.0
H976 H 0.05616 0.11965 0.04743 0.0
H977 H 0.06081 0.02875 0.71678 0.0
H978 H 0.08029 0.05389 0.78042 0.0
H979 H 0.0288 0.06122 0.89797 0.0
H980 H 0.00968 0.03508 0.83648 0.0
H981 H 0.06073 0.06631 0.96622 0.0
H982 H 0.04215 0.08918 0.76289 0.0
H983 H 0.0419 0.08621 0.64695 0.0
H984 H 0.10527 0.09637 0.64 0.0
H985 H 0.10596 0.09874 0.75592 0.0
C986 C 0.0926 0.16455 0.997 0.0
C987 C 0.10982 0.16423 0.03225 0.0
C988 C 0.0847 0.1476 0.96406 0.0
C989 C 0.09376 0.13003 0.9664 0.0
C990 C 0.11143 0.12987 0.99905 0.0
C991 C 0.11956 0.14694 0.03096 0.0
C992 C 0.0845 0.11179 0.93543 0.0
C993 C 0.08378 0.1108 0.86959 0.0
C994 C 0.07617 0.09556 0.9706 0.0
C995 C 0.07538 0.09614 0.04022 0.0
C996 C 0.08486 0.0825 0.07411 0.0
C997 C 0.0828 0.08199 0.13963 0.0
C998 C 0.07111 0.0949 0.17164 0.0
C999 C 0.06163 0.10849 0.13822 0.0
C1000 C 0.06383 0.10923 0.07277 0.0
C1001 C 0.05387 0.03545 0.75723 0.0
C1002 C 0.03383 0.03026 0.77193 0.0
C1003 C 0.06493 0.04984 0.79327 0.0
C1004 C 0.05584 0.05986 0.84275 0.0
C1005 C 0.03608 0.05378 0.85973 0.0
C1006 C 0.02516 0.03892 0.82472 0.0
C1007 C 0.0663 0.07771 0.87329 0.0
C1008 C 0.06728 0.07869 0.9391 0.0
C1009 C 0.07469 0.09401 0.83794 0.0
C1010 C 0.07411 0.09395 0.76815 0.0
C1011 C 0.05603 0.09075 0.73665 0.0
C1012 C 0.05582 0.08905 0.67096 0.0
C1013 C 0.07357 0.09101 0.63623 0.0
C1014 C 0.09155 0.09479 0.66702 0.0
C1015 C 0.09186 0.09627 0.73271 0.0
H1016 H 0.07339 0.08966 0.58544 0.0
H1017 H 0.06944 0.0944 0.22232 0.0
H1018 H 0.32993 0.03023 0.87376 0.0
H1019 H 0.35894 0.02834 0.8049 0.0
H1020 H 0.39216 0.07227 0.9211 0.0
H1021 H 0.36325 0.07414 0.991 0.0
H1022 H 0.39892 0.07287 0.77502 0.0
H1023 H 0.39679 0.03059 0.96228 0.0
H1024 H 0.37858 0.00543 0.02908 0.0
H1025 H 0.37117 0.96543 0.86959 0.0
H1026 H 0.38908 0.99047 0.80175 0.0
H1027 H 0.49862 0.05507 0.72293 0.0
H1028 H 0.46642 0.06205 0.76695 0.0
H1029 H 0.44106 0.0042 0.70395 0.0
H1030 H 0.47347 0.99679 0.66373 0.0
H1031 H 0.42826 0.01053 0.81458 0.0
H1032 H 0.43314 0.04719 0.62939 0.0
H1033 H 0.44831 0.07045 0.55115 0.0
H1034 H 0.44683 0.11849 0.68587 0.0
H1035 H 0.43217 0.09543 0.76568 0.0
C1036 C 0.34324 0.03984 0.884 0.0
C1037 C 0.34441 0.05211 0.93839 0.0
C1038 C 0.35976 0.03879 0.8444 0.0
C1039 C 0.3776 0.05012 0.85826 0.0
C1040 C 0.37842 0.06351 0.90966 0.0
C1041 C 0.36195 0.06443 0.94974 0.0
C1042 C 0.39603 0.0457 0.82549 0.0
C1043 C 0.40554 0.05938 0.78384 0.0
C1044 C 0.40406 0.02772 0.83539 0.0
C1045 C 0.3941 0.01243 0.87692 0.0
C1046 C 0.3912 0.01645 0.94148 0.0
C1047 C 0.38094 0.00222 0.9795 0.0
C1048 C 0.37365 0.98388 0.95349 0.0
C1049 C 0.37678 0.97966 0.88961 0.0
C1050 C 0.387 0.99385 0.85139 0.0
C1051 C 0.48615 0.04387 0.71871 0.0
C1052 C 0.48839 0.0255 0.68927 0.0
C1053 C 0.46774 0.04792 0.7433 0.0
C1054 C 0.45122 0.03378 0.73773 0.0
C1055 C 0.45355 0.01538 0.70855 0.0
C1056 C 0.472 0.01123 0.68498 0.0
C1057 C 0.43167 0.03788 0.76437 0.0
C1058 C 0.42182 0.02407 0.80508 0.0
C1059 C 0.42309 0.05548 0.75184 0.0
C1060 C 0.4317 0.06952 0.70382 0.0
C1061 C 0.43622 0.06268 0.64263 0.0
C1062 C 0.44474 0.07583 0.59796 0.0
C1063 C 0.44853 0.09592 0.61352 0.0
C1064 C 0.44389 0.10291 0.67388 0.0
C1065 C 0.43548 0.0898 0.71891 0.0
H1066 H 0.455 0.10604 0.57865 0.0
H1067 H 0.36557 0.97293 0.98276 0.0
H1068 H 0.43367 0.31095 0.03464 0.0
H1069 H 0.43778 0.34112 0.97552 0.0
H1070 H 0.46272 0.30982 0.81876 0.0
H1071 H 0.45974 0.27958 0.87973 0.0
H1072 H 0.48501 0.34063 0.83791 0.0
H1073 H 0.41505 0.33108 0.81784 0.0
H1074 H 0.38026 0.32392 0.85261 0.0
H1075 H 0.38583 0.37506 0.97644 0.0
H1076 H 0.42071 0.38242 0.94292 0.0
H1077 H 0.48949 0.42542 0.64946 0.0
H1078 H 0.47858 0.39325 0.69242 0.0
H1079 H 0.46899 0.42065 0.87427 0.0
H1080 H 0.47998 0.45324 0.83158 0.0
H1081 H 0.43767 0.39143 0.83394 0.0
H1082 H 0.50904 0.39927 0.85079 0.0
H1083 H 0.5432 0.40565 0.80938 0.0
H1084 H 0.53345 0.35585 0.68124 0.0
H1085 H 0.49907 0.34949 0.72072 0.0
C1086 C 0.43969 0.31032 0.98711 0.0
C1087 C 0.44653 0.29288 0.96205 0.0
C1088 C 0.44188 0.32765 0.95301 0.0
C1089 C 0.45039 0.32787 0.89227 0.0
C1090 C 0.45619 0.31013 0.86566 0.0
C1091 C 0.4544 0.29281 0.90038 0.0
C1092 C 0.45513 0.34698 0.85991 0.0
C1093 C 0.47443 0.35149 0.83581 0.0
C1094 C 0.44158 0.36148 0.8582 0.0
C1095 C 0.42053 0.35724 0.87802 0.0
C1096 C 0.40888 0.34075 0.85268 0.0
C1097 C 0.38914 0.33666 0.87215 0.0
C1098 C 0.38085 0.34901 0.91674 0.0
C1099 C 0.39227 0.36551 0.94186 0.0
C1100 C 0.41201 0.36968 0.92252 0.0
C1101 C 0.48502 0.42474 0.69863 0.0
C1102 C 0.48569 0.44197 0.73723 0.0
C1103 C 0.47881 0.40628 0.72303 0.0
C1104 C 0.4731 0.40459 0.78648 0.0
C1105 C 0.47336 0.42171 0.82508 0.0
C1106 C 0.47973 0.44027 0.80075 0.0
C1107 C 0.4674 0.38483 0.81261 0.0
C1108 C 0.44801 0.38032 0.83552 0.0
C1109 C 0.48071 0.37016 0.81202 0.0
C1110 C 0.50141 0.37403 0.78829 0.0
C1111 C 0.51411 0.38981 0.8133 0.0
C1112 C 0.53352 0.39342 0.79018 0.0
C1113 C 0.54047 0.38121 0.74252 0.0
C1114 C 0.52803 0.36534 0.718 0.0
C1115 C 0.50858 0.36174 0.74066 0.0
H1116 H 0.5555 0.38402 0.72471 0.0
H1117 H 0.36557 0.34581 0.9318 0.0
H1118 H 0.14542 0.57608 0.1098 0.0
H1119 H 0.12112 0.56098 0.03532 0.0
H1120 H 0.16429 0.56894 0.8841 0.0
H1121 H 0.18883 0.58397 0.95844 0.0
H1122 H 0.1261 0.58084 0.85726 0.0
H1123 H 0.15487 0.52343 0.93162 0.0
H1124 H 0.16593 0.50263 0.01434 0.0
H1125 H 0.10739 0.4967 0.09633 0.0
H1126 H 0.09592 0.51726 0.01327 0.0
H1127 H 0.07132 0.52212 0.63021 0.0
H1128 H 0.09812 0.53441 0.70014 0.0
H1129 H 0.06005 0.52096 0.86158 0.0
H1130 H 0.03325 0.50842 0.7923 0.0
H1131 H 0.09673 0.51146 0.88159 0.0
H1132 H 0.06694 0.56721 0.81161 0.0
H1133 H 0.05436 0.58925 0.73523 0.0
H1134 H 0.11264 0.6008 0.65388 0.0
H1135 H 0.12552 0.57852 0.72922 0.0
C1136 C 0.14975 0.57471 0.06067 0.0
C1137 C 0.16904 0.58121 0.03993 0.0
C1138 C 0.13587 0.566 0.01829 0.0
C1139 C 0.14101 0.56375 0.95445 0.0
C1140 C 0.16011 0.57055 0.93329 0.0
C1141 C 0.17409 0.57908 0.9758 0.0
C1142 C 0.12635 0.55427 0.90991 0.0
C1143 C 0.11992 0.56556 0.86168 0.0
C1144 C 0.11788 0.53459 0.91732 0.0
C1145 C 0.12458 0.52194 0.96654 0.0
C1146 C 0.14438 0.51771 0.96738 0.0
C1147 C 0.15071 0.50594 0.01426 0.0
C1148 C 0.13741 0.49845 0.06089 0.0
C1149 C 0.11768 0.50253 0.06025 0.0
C1150 C 0.11123 0.51414 0.01305 0.0
C1151 C 0.06869 0.52154 0.68059 0.0
C1152 C 0.05007 0.51443 0.70565 0.0
C1153 C 0.08401 0.52866 0.72046 0.0
C1154 C 0.08096 0.52884 0.78599 0.0
C1155 C 0.06269 0.52098 0.81114 0.0
C1156 C 0.04736 0.5139 0.77138 0.0
C1157 C 0.09651 0.53797 0.82833 0.0
C1158 C 0.10304 0.52666 0.87647 0.0
C1159 C 0.10483 0.55778 0.82147 0.0
C1160 C 0.09716 0.57105 0.77565 0.0
C1161 C 0.07704 0.5743 0.77706 0.0
C1162 C 0.06986 0.58687 0.73406 0.0
C1163 C 0.0827 0.59644 0.68978 0.0
C1164 C 0.10273 0.5934 0.68828 0.0
C1165 C 0.10998 0.58079 0.7311 0.0
H1166 H 0.07711 0.60623 0.6567 0.0
H1167 H 0.14237 0.48944 0.09737 0.0
H1168 H 0.92512 0.81489 0.21954 0.0
H1169 H 0.93556 0.8429 0.28955 0.0
H1170 H 0.92969 0.88311 0.13924 0.0
H1171 H 0.91935 0.85511 0.06852 0.0
H1172 H 0.96363 0.89255 0.20384 0.0
H1173 H 0.89493 0.87763 0.2541 0.0
H1174 H 0.86454 0.85679 0.28427 0.0
H1175 H 0.89051 0.84391 0.45877 0.0
H1176 H 0.9212 0.8644 0.42922 0.0
H1177 H 0.97613 0.97644 0.41573 0.0
H1178 H 0.96268 0.95238 0.33584 0.0
H1179 H 0.9612 0.90596 0.47062 0.0
H1180 H 0.97396 0.92988 0.55086 0.0
H1181 H 0.92859 0.90204 0.40771 0.0
H1182 H 0.99813 0.91379 0.35382 0.0
H1183 H 0.02907 0.93389 0.32431 0.0
H1184 H 0.00203 0.95211 0.15783 0.0
H1185 H 0.97082 0.93237 0.18693 0.0
C1186 C 0.92607 0.82968 0.20124 0.0
C1187 C 0.92126 0.83276 0.13856 0.0
C1188 C 0.93194 0.84568 0.24144 0.0
C1189 C 0.93309 0.86511 0.21989 0.0
C1190 C 0.92878 0.86824 0.15691 0.0
C1191 C 0.92282 0.85222 0.11665 0.0
C1192 C 0.93896 0.88206 0.26322 0.0
C1193 C 0.95578 0.89488 0.24789 0.0
C1194 C 0.92889 0.88482 0.32129 0.0
C1195 C 0.91046 0.8724 0.33908 0.0
C1196 C 0.89424 0.8702 0.29863 0.0
C1197 C 0.87694 0.85847 0.31568 0.0
C1198 C 0.87562 0.84898 0.37331 0.0
C1199 C 0.89157 0.85124 0.41408 0.0
C1200 C 0.90892 0.86291 0.3972 0.0
C1201 C 0.97285 0.96111 0.42834 0.0
C1202 C 0.97607 0.95508 0.48968 0.0
C1203 C 0.96525 0.94737 0.38258 0.0
C1204 C 0.96108 0.92731 0.3971 0.0
C1205 C 0.96415 0.92136 0.45846 0.0
C1206 C 0.97148 0.93508 0.5043 0.0
C1207 C 0.95356 0.91232 0.34896 0.0
C1208 C 0.93636 0.89988 0.36332 0.0
C1209 C 0.96335 0.90984 0.29022 0.0
C1210 C 0.98207 0.92181 0.27297 0.0
C1211 C 0.99872 0.92224 0.31124 0.0
C1212 C 0.01632 0.93354 0.29455 0.0
C1213 C 0.01749 0.94433 0.23935 0.0
C1214 C 0.00108 0.9438 0.20068 0.0
C1215 C 0.98343 0.93257 0.21727 0.0
H1216 H 0.03113 0.95305 0.22647 0.0
H1217 H 0.8622 0.83993 0.38644 0.0
H1218 H 0.6988 0.97152 0.18642 0.0
H1219 H 0.67299 0.98083 0.26055 0.0
H1220 H 0.65301 0.91925 0.28574 0.0
H1221 H 0.6788 0.90978 0.21276 0.0
H1222 H 0.62429 0.94281 0.24149 0.0
H1223 H 0.67167 0.94273 0.40439 0.0
H1224 H 0.7027 0.95182 0.46075 0.0
H1225 H 0.69065 0.0126 0.46979 0.0
H1226 H 0.65968 0.00394 0.41245 0.0
H1227 H 0.54493 0.95215 0.45159 0.0
H1228 H 0.57643 0.94294 0.40844 0.0
H1229 H 0.59971 0.00444 0.40861 0.0
H1230 H 0.56821 0.0137 0.45295 0.0
H1231 H 0.62754 0.98109 0.44369 0.0
H1232 H 0.58192 0.98208 0.27492 0.0
H1233 H 0.55043 0.97351 0.22039 0.0
H1234 H 0.55959 0.91196 0.22107 0.0
H1235 H 0.59102 0.92014 0.27641 0.0
C1236 C 0.68916 0.95996 0.20872 0.0
C1237 C 0.6907 0.93991 0.19315 0.0
C1238 C 0.67452 0.96531 0.2513 0.0
C1239 C 0.66115 0.95071 0.27851 0.0
C1240 C 0.66325 0.93071 0.2653 0.0
C1241 C 0.67799 0.92535 0.22345 0.0
C1242 C 0.64342 0.9562 0.31359 0.0
C1243 C 0.62499 0.95093 0.2862 0.0
C1244 C 0.64447 0.96735 0.3708 0.0
C1245 C 0.66346 0.97271 0.40324 0.0
C1246 C 0.67577 0.95809 0.41745 0.0
C1247 C 0.69332 0.96315 0.44985 0.0
C1248 C 0.69868 0.98279 0.46868 0.0
C1249 C 0.68651 0.9974 0.45505 0.0
C1250 C 0.66895 0.99242 0.42259 0.0
C1251 C 0.5568 0.96369 0.44254 0.0
C1252 C 0.55416 0.98363 0.45483 0.0
C1253 C 0.57477 0.95842 0.41807 0.0
C1254 C 0.59029 0.97303 0.40439 0.0
C1255 C 0.58791 0.99294 0.41874 0.0
C1256 C 0.56993 0.99821 0.44374 0.0
C1257 C 0.60848 0.96758 0.37161 0.0
C1258 C 0.62692 0.97294 0.39906 0.0
C1259 C 0.60756 0.95666 0.31395 0.0
C1260 C 0.58872 0.95171 0.28032 0.0
C1261 C 0.57715 0.9667 0.26383 0.0
C1262 C 0.55932 0.96192 0.23272 0.0
C1263 C 0.55299 0.9422 0.21741 0.0
C1264 C 0.5645 0.92723 0.23303 0.0
C1265 C 0.58233 0.93193 0.26422 0.0
H1266 H 0.53918 0.93853 0.19333 0.0
H1267 H 0.71222 0.98666 0.49401 0.0
H1268 H 0.59864 0.6735 0.25417 0.0
H1269 H 0.59014 0.64781 0.331 0.0
H1270 H 0.53271 0.66844 0.36086 0.0
H1271 H 0.541 0.69421 0.28345 0.0
H1272 H 0.55253 0.65506 0.47517 0.0
H1273 H 0.53363 0.63507 0.26234 0.0
H1274 H 0.54173 0.63266 0.14923 0.0
H1275 H 0.58646 0.59455 0.18663 0.0
H1276 H 0.5792 0.59745 0.30058 0.0
H1277 H 0.50245 0.56687 0.59955 0.0
H1278 H 0.5125 0.5975 0.54399 0.0
H1279 H 0.56056 0.56996 0.45338 0.0
H1280 H 0.54944 0.53896 0.50514 0.0
H1281 H 0.54538 0.58842 0.37192 0.0
H1282 H 0.56368 0.60652 0.58556 0.0
H1283 H 0.55667 0.61007 0.69949 0.0
H1284 H 0.51521 0.65171 0.66389 0.0
H1285 H 0.52131 0.6479 0.54969 0.0
C1286 C 0.58432 0.67284 0.27777 0.0
C1287 C 0.57038 0.68572 0.26205 0.0
C1288 C 0.57954 0.6582 0.32188 0.0
C1289 C 0.56079 0.65624 0.35127 0.0
C1290 C 0.54728 0.66983 0.33879 0.0
C1291 C 0.55199 0.6844 0.29418 0.0
C1292 C 0.55446 0.63848 0.38807 0.0
C1293 C 0.55081 0.64045 0.45296 0.0
C1294 C 0.55255 0.6195 0.35875 0.0
C1295 C 0.55605 0.6167 0.29006 0.0
C1296 C 0.54529 0.62628 0.24653 0.0
C1297 C 0.54976 0.62486 0.18224 0.0
C1298 C 0.56465 0.61351 0.16069 0.0
C1299 C 0.57498 0.60341 0.20342 0.0
C1300 C 0.57074 0.60499 0.26791 0.0
C1301 C 0.51519 0.56752 0.56784 0.0
C1302 C 0.52526 0.55076 0.5563 0.0
C1303 C 0.52102 0.58502 0.53644 0.0
C1304 C 0.53754 0.58627 0.49515 0.0
C1305 C 0.54776 0.56946 0.48478 0.0
C1306 C 0.54149 0.55178 0.51441 0.0
C1307 C 0.54372 0.60466 0.46033 0.0
C1308 C 0.54723 0.60289 0.39512 0.0
C1309 C 0.5457 0.62375 0.48985 0.0
C1310 C 0.5428 0.62675 0.55883 0.0
C1311 C 0.553 0.61638 0.60193 0.0
C1312 C 0.54916 0.61839 0.66655 0.0
C1313 C 0.53549 0.63104 0.68879 0.0
C1314 C 0.52574 0.64185 0.64654 0.0
C1315 C 0.52934 0.63974 0.58184 0.0
H1316 H 0.53245 0.63246 0.73878 0.0
H1317 H 0.56814 0.6125 0.11088 0.0
H1318 H 0.82578 0.54353 0.17826 0.0
H1319 H 0.85613 0.53753 0.23014 0.0
H1320 H 0.82231 0.50119 0.36536 0.0
H1321 H 0.79165 0.50701 0.3133 0.0
H1322 H 0.85403 0.52694 0.41792 0.0
H1323 H 0.84299 0.47754 0.25371 0.0
H1324 H 0.83543 0.46529 0.14579 0.0
H1325 H 0.8868 0.50047 0.07502 0.0
H1326 H 0.89469 0.51291 0.18255 0.0
H1327 H 0.93246 0.47959 0.5316 0.0
H1328 H 0.9015 0.48462 0.48174 0.0
H1329 H 0.93401 0.51596 0.33229 0.0
H1330 H 0.96528 0.51066 0.3818 0.0
H1331 H 0.90246 0.49276 0.28822 0.0
H1332 H 0.91432 0.54063 0.4578 0.0
H1333 H 0.92088 0.55233 0.56686 0.0
H1334 H 0.86696 0.51979 0.63009 0.0
H1335 H 0.86018 0.50765 0.52166 0.0
C1336 C 0.82468 0.53447 0.21954 0.0
C1337 C 0.80627 0.52561 0.24136 0.0
C1338 C 0.84209 0.53101 0.24897 0.0
C1339 C 0.84145 0.51871 0.30095 0.0
C1340 C 0.82307 0.51068 0.32508 0.0
C1341 C 0.80559 0.51401 0.29529 0.0
C1342 C 0.8601 0.51353 0.32774 0.0
C1343 C 0.86454 0.51924 0.39004 0.0
C1344 C 0.87388 0.50381 0.29072 0.0
C1345 C 0.86933 0.49627 0.22604 0.0
C1346 C 0.85262 0.48273 0.21505 0.0
C1347 C 0.84832 0.4757 0.15401 0.0
C1348 C 0.86065 0.48206 0.10362 0.0
C1349 C 0.87733 0.49546 0.11412 0.0
C1350 C 0.88175 0.50248 0.17513 0.0
C1351 C 0.93306 0.48726 0.48749 0.0
C1352 C 0.95127 0.49487 0.46072 0.0
C1353 C 0.91534 0.49025 0.45936 0.0
C1354 C 0.91544 0.50117 0.40438 0.0
C1355 C 0.93362 0.50767 0.37516 0.0
C1356 C 0.95146 0.50452 0.40315 0.0
C1357 C 0.89656 0.50622 0.37866 0.0
C1358 C 0.89203 0.50049 0.31637 0.0
C1359 C 0.88267 0.51584 0.41603 0.0
C1360 C 0.88684 0.52305 0.48153 0.0
C1361 C 0.90395 0.53581 0.49502 0.0
C1362 C 0.90769 0.54256 0.55678 0.0
C1363 C 0.89438 0.53678 0.60546 0.0
C1364 C 0.87728 0.52425 0.59244 0.0
C1365 C 0.87347 0.51744 0.53081 0.0
H1366 H 0.89729 0.54203 0.65321 0.0
H1367 H 0.85729 0.47657 0.05652 0.0
loop_
_geom_bond_atom_site_label_1
_geom_bond_atom_site_label_2
_geom_bond_distance
_geom_bond_site_symmetry_2
_ccdc_geom_bond_type
O0 Cd1 2.300 1_556 S
O0 C7 1.275 . S
Cd1 O0 2.300 1_554 S
Cd1 O9 2.381 1_554 S
Cd1 O10 2.378 . S
O2 Cd3 2.385 . S
O2 C7 1.255 1_554 S
Cd3 O2 2.385 . S
Cd3 O4 2.317 . S
O4 Cd3 2.317 . S
O4 C5 1.232 . S
C5 O4 1.232 . S
C5 O6 1.218 . S
O6 C5 1.218 . S
C7 O0 1.275 . S
C7 O2 1.255 1_556 S
C8 O9 1.258 . S
C8 O10 1.256 1_556 S
O9 Cd1 2.381 1_556 S
O9 C8 1.258 . S
O10 Cd1 2.378 . S
O10 C8 1.256 1_554 S
O11 Cd12 2.300 . S
O11 C18 1.275 . S
Cd12 O11 2.300 . S
Cd12 O20 2.381 . S
Cd12 O21 2.378 1_556 S
O13 Cd14 2.379 1_655 S
O13 C18 1.255 1_554 S
Cd14 O13 2.379 1_455 S
Cd14 O15 2.312 1_455 S
O15 Cd14 2.312 1_655 S
O15 C16 1.232 . S
C16 O15 1.232 . S
C16 O17 1.218 . S
O17 C16 1.218 . S
C18 O11 1.275 . S
C18 O13 1.255 1_556 S
C19 O20 1.258 . S
C19 O21 1.256 1_556 S
O20 Cd12 2.381 . S
O20 C19 1.258 . S
O21 Cd12 2.378 1_554 S
O21 C19 1.256 1_554 S
O22 Cd23 2.309 1_556 S
O22 C29 1.275 . S
Cd23 O22 2.309 1_554 S
Cd23 O31 2.394 1_554 S
Cd23 O32 2.379 1_565 S
O24 Cd25 2.385 . S
O24 C29 1.255 1_544 S
Cd25 O24 2.385 . S
Cd25 O26 2.317 . S
O26 Cd25 2.317 . S
O26 C27 1.232 1_545 S
C27 O26 1.232 1_565 S
C27 O28 1.218 1_565 S
O28 C27 1.218 1_545 S
C29 O22 1.275 . S
C29 O24 1.255 1_566 S
C30 O31 1.258 . S
C30 O32 1.256 1_566 S
O31 Cd23 2.394 1_556 S
O31 C30 1.258 . S
O32 Cd23 2.379 1_545 S
O32 C30 1.256 1_544 S
O33 Cd34 2.300 1_556 S
O33 C40 1.275 1_556 S
Cd34 O33 2.300 1_554 S
Cd34 O42 2.381 1_554 S
Cd34 O43 2.378 . S
O35 Cd36 2.385 . S
O35 C40 1.255 . S
Cd36 O35 2.385 . S
Cd36 O37 2.317 . S
O37 Cd36 2.317 . S
O37 C38 1.232 . S
C38 O37 1.232 . S
C38 O39 1.218 . S
O39 C38 1.218 . S
C40 O33 1.275 1_554 S
C40 O35 1.255 . S
C41 O42 1.257 1_554 S
C41 O43 1.256 . S
O42 Cd34 2.381 1_556 S
O42 C41 1.257 1_556 S
O43 Cd34 2.378 . S
O43 C41 1.256 . S
O44 Cd45 2.300 . S
O44 C51 1.275 . S
Cd45 O44 2.300 . S
Cd45 O53 2.381 . S
Cd45 O54 2.378 . S
O46 Cd47 2.385 . S
O46 C51 1.255 . S
Cd47 O46 2.385 . S
Cd47 O48 2.317 . S
O48 Cd47 2.317 . S
O48 C49 1.232 . S
C49 O48 1.232 . S
C49 O50 1.218 . S
O50 C49 1.218 . S
C51 O44 1.275 . S
C51 O46 1.255 . S
C52 O53 1.258 . S
C52 O54 1.256 . S
O53 Cd45 2.381 . S
O53 C52 1.258 . S
O54 Cd45 2.378 . S
O54 C52 1.256 . S
O55 Cd56 2.300 . S
O55 C62 1.275 . S
Cd56 O55 2.300 . S
Cd56 O64 2.381 . S
Cd56 O65 2.378 . S
O57 Cd58 2.385 . S
O57 C62 1.255 . S
Cd58 O57 2.385 . S
Cd58 O59 2.317 . S
O59 Cd58 2.317 . S
O59 C60 1.232 . S
C60 O59 1.232 . S
C60 O61 1.218 . S
O61 C60 1.218 . S
C62 O55 1.275 . S
C62 O57 1.255 . S
C63 O64 1.258 . S
C63 O65 1.256 . S
O64 Cd56 2.381 . S
O64 C63 1.258 . S
O65 Cd56 2.378 . S
O65 C63 1.256 . S
O66 Cd67 2.300 . S
O66 C73 1.275 . S
Cd67 O66 2.300 . S
Cd67 O75 2.381 . S
Cd67 O76 2.378 . S
O68 Cd69 2.385 . S
O68 C73 1.255 . S
Cd69 O68 2.385 . S
Cd69 O70 2.317 . S
O70 Cd69 2.317 . S
O70 C71 1.232 . S
C71 O70 1.232 . S
C71 O72 1.218 . S
O72 C71 1.218 . S
C73 O66 1.275 . S
C73 O68 1.255 . S
C74 O75 1.258 . S
C74 O76 1.256 . S
O75 Cd67 2.381 . S
O75 C74 1.258 . S
O76 Cd67 2.378 . S
O76 C74 1.256 . S
O77 Cd78 2.300 . S
O77 C84 1.275 . S
Cd78 O77 2.300 . S
Cd78 O86 2.381 . S
Cd78 O87 2.378 . S
O79 Cd80 2.385 . S
O79 C84 1.255 . S
Cd80 O79 2.385 . S
Cd80 O81 2.317 . S
O81 Cd80 2.317 . S
O81 C82 1.232 1_554 S
C82 O81 1.232 1_556 S
C82 O83 1.218 . S
O83 C82 1.218 . S
C84 O77 1.275 . S
C84 O79 1.255 . S
C85 O86 1.258 . S
C85 O87 1.256 . S
O86 Cd78 2.381 . S
O86 C85 1.258 . S
O87 Cd78 2.378 . S
O87 C85 1.256 . S
Dy88 O92 2.398 . S
Dy88 O93 2.491 1_455 S
Dy88 O94 2.403 . S
Dy88 O95 2.664 1_565 S
Dy88 O99 2.326 . S
Dy88 O103 2.310 1_455 S
Dy88 O104 2.351 1_565 S
C89 O100 1.185 1_455 S
C89 O101 1.355 . S
C90 O92 1.185 . S
C90 O93 1.355 1_455 S
Dy91 O95 2.357 . S
Dy91 O98 2.348 1_445 S
Dy91 O100 2.379 1_455 S
Dy91 O101 2.521 . S
Dy91 O102 2.355 1_455 S
Dy91 O103 2.651 1_445 S
Dy91 O105 2.334 . S
O92 Dy88 2.398 . S
O92 C90 1.185 . S
O93 Dy88 2.491 1_655 S
O93 C90 1.355 1_655 S
O94 Dy88 2.403 . S
O94 C96 1.273 . S
O95 Dy88 2.664 1_545 S
O95 Dy91 2.357 . S
O95 C96 1.256 1_545 S
C96 O94 1.273 . S
C96 O95 1.256 1_565 S
C97 O102 1.254 . S
C97 O103 1.268 1_545 S
O98 Dy91 2.348 1_665 S
O98 C106 1.268 . S
O99 Dy88 2.326 . S
O99 C106 1.231 1_455 S
O100 C89 1.185 1_655 S
O100 Dy91 2.379 1_655 S
O101 C89 1.355 . S
O101 Dy91 2.521 . S
O102 Dy91 2.355 1_655 S
O102 C97 1.254 . S
O103 Dy88 2.310 1_655 S
O103 Dy91 2.651 1_665 S
O103 C97 1.268 1_565 S
O104 Dy88 2.351 1_545 S
O104 C107 1.249 . S
O105 Dy91 2.334 . S
O105 C107 1.267 . S
C106 O98 1.268 . S
C106 O99 1.231 1_655 S
C107 O104 1.249 . S
C107 O105 1.267 . S
Dy108 O112 2.398 . S
Dy108 O113 2.470 1_565 S
Dy108 O114 2.403 . S
Dy108 O115 2.664 . S
Dy108 O119 2.326 1_565 S
Dy108 O123 2.310 1_565 S
Dy108 O124 2.351 . S
C109 O120 1.185 . S
C109 O121 1.355 . S
C110 O112 1.185 . S
C110 O113 1.347 1_565 S
Dy111 O115 2.310 1_545 S
Dy111 O118 2.351 . S
Dy111 O120 2.398 . S
Dy111 O121 2.491 . S
Dy111 O122 2.403 . S
Dy111 O123 2.664 . S
Dy111 O125 2.326 1_545 S
O112 Dy108 2.398 . S
O112 C110 1.185 . S
O113 Dy108 2.470 1_545 S
O113 C110 1.347 1_545 S
O114 Dy108 2.403 . S
O114 C116 1.254 . S
O115 Dy108 2.664 . S
O115 Dy111 2.310 1_565 S
O115 C116 1.268 . S
C116 O114 1.254 . S
C116 O115 1.268 . S
C117 O122 1.254 . S
C117 O123 1.268 . S
O118 Dy111 2.351 . S
O118 C126 1.249 . S
O119 Dy108 2.326 1_545 S
O119 C126 1.267 . S
O120 C109 1.185 . S
O120 Dy111 2.398 . S
O121 C109 1.355 . S
O121 Dy111 2.491 . S
O122 Dy111 2.403 . S
O122 C117 1.254 . S
O123 Dy108 2.310 1_545 S
O123 Dy111 2.664 . S
O123 C117 1.268 . S
O124 Dy108 2.351 . S
O124 C127 1.249 . S
O125 Dy111 2.326 1_565 S
O125 C127 1.267 . S
C126 O118 1.249 . S
C126 O119 1.267 . S
C127 O124 1.249 . S
C127 O125 1.267 . S
Dy128 O132 2.398 . S
Dy128 O133 2.491 . S
Dy128 O134 2.403 . S
Dy128 O135 2.664 . S
Dy128 O139 2.326 . S
Dy128 O143 2.310 . S
Dy128 O144 2.351 . S
C129 O140 1.185 . S
C129 O141 1.355 . S
C130 O132 1.185 . S
C130 O133 1.355 . S
Dy131 O135 2.310 . S
Dy131 O138 2.351 . S
Dy131 O140 2.398 . S
Dy131 O141 2.491 . S
Dy131 O142 2.403 . S
Dy131 O143 2.664 . S
Dy131 O145 2.326 . S
O132 Dy128 2.398 . S
O132 C130 1.185 . S
O133 Dy128 2.491 . S
O133 C130 1.355 . S
O134 Dy128 2.403 . S
O134 C136 1.254 . S
O135 Dy128 2.664 . S
O135 Dy131 2.310 . S
O135 C136 1.268 . S
C136 O134 1.254 . S
C136 O135 1.268 . S
C137 O142 1.254 . S
C137 O143 1.268 . S
O138 Dy131 2.351 . S
O138 C146 1.249 . S
O139 Dy128 2.326 . S
O139 C146 1.267 . S
O140 C129 1.185 . S
O140 Dy131 2.398 . S
O141 C129 1.355 . S
O141 Dy131 2.491 . S
O142 Dy131 2.403 . S
O142 C137 1.254 . S
O143 Dy128 2.310 . S
O143 Dy131 2.664 . S
O143 C137 1.268 . S
O144 Dy128 2.351 . S
O144 C147 1.249 . S
O145 Dy131 2.326 . S
O145 C147 1.267 . S
C146 O138 1.249 . S
C146 O139 1.267 . S
C147 O144 1.249 . S
C147 O145 1.267 . S
Dy148 O152 2.398 . S
Dy148 O153 2.491 . S
Dy148 O154 2.403 . S
Dy148 O155 2.664 1_655 S
Dy148 O159 2.326 . S
Dy148 O163 2.307 1_655 S
Dy148 O164 2.351 1_655 S
C149 O160 1.185 . S
C149 O161 1.355 . S
C150 O152 1.185 . S
C150 O153 1.355 . S
Dy151 O155 2.310 . S
Dy151 O158 2.351 1_455 S
Dy151 O160 2.398 . S
Dy151 O161 2.491 . S
Dy151 O162 2.403 . S
Dy151 O163 2.677 . S
Dy151 O165 2.326 . S
O152 Dy148 2.398 . S
O152 C150 1.185 . S
O153 Dy148 2.491 . S
O153 C150 1.355 . S
O154 Dy148 2.403 . S
O154 C156 1.254 1_655 S
O155 Dy148 2.664 1_455 S
O155 Dy151 2.310 . S
O155 C156 1.268 . S
C156 O154 1.254 1_455 S
C156 O155 1.268 . S
C157 O162 1.254 . S
C157 O163 1.272 . S
O158 Dy151 2.351 1_655 S
O158 C166 1.249 . S
O159 Dy148 2.326 . S
O159 C166 1.267 . S
O160 C149 1.185 . S
O160 Dy151 2.398 . S
O161 C149 1.355 . S
O161 Dy151 2.491 . S
O162 Dy151 2.403 . S
O162 C157 1.254 . S
O163 Dy148 2.307 1_455 S
O163 Dy151 2.677 . S
O163 C157 1.272 . S
O164 Dy148 2.351 1_455 S
O164 C167 1.249 . S
O165 Dy151 2.326 . S
O165 C167 1.267 . S
C166 O158 1.249 . S
C166 O159 1.267 . S
C167 O164 1.249 . S
C167 O165 1.267 . S
H168 C186 0.951 . S
H169 C188 0.951 . S
H170 C190 0.950 . S
H171 C191 0.950 . S
H172 C193 0.950 . S
H173 C196 0.950 . S
H174 C197 0.950 . S
H175 C199 0.950 . S
H176 C200 0.950 . S
H177 C201 0.951 . S
H178 C203 0.951 . S
H179 C205 0.950 . S
H180 C206 0.950 . S
H181 C208 0.950 . S
H182 C211 0.950 . S
H183 C212 0.950 . S
H184 C214 0.950 . S
H185 C215 0.950 . S
C186 H168 0.951 . S
C186 C187 1.366 . S
C186 C188 1.388 . S
C187 C186 1.366 . S
C187 C191 1.385 . S
C188 H169 0.951 . S
C188 C186 1.388 . S
C188 C189 1.366 . S
C189 C188 1.366 . S
C189 C190 1.414 . S
C189 C192 1.499 . S
C190 H170 0.950 . S
C190 C189 1.414 . S
C190 C191 1.374 . S
C191 H171 0.950 . S
C191 C187 1.385 . S
C191 C190 1.374 . S
C192 C189 1.499 . S
C192 C193 1.373 1_545 S
C192 C194 1.389 . S
C193 H172 0.950 . S
C193 C192 1.373 1_565 S
C193 C209 1.377 . S
C194 C192 1.389 . S
C194 C195 1.524 . S
C194 C208 1.377 . S
C195 C194 1.524 . S
C195 C196 1.397 . S
C195 C200 1.363 . S
C196 H173 0.950 . S
C196 C195 1.397 . S
C196 C197 1.334 . S
C197 H174 0.950 . S
C197 C196 1.334 . S
C197 C198 1.287 . S
C198 C197 1.287 . S
C198 C199 1.524 . S
C198 H217 0.913 . S
C199 H175 0.950 . S
C199 C198 1.524 . S
C199 C200 1.415 . S
C200 H176 0.950 . S
C200 C195 1.363 . S
C200 C199 1.415 . S
C201 H177 0.951 . S
C201 C202 1.366 . S
C201 C203 1.388 . S
C202 C201 1.366 . S
C202 C206 1.385 . S
C203 H178 0.951 . S
C203 C201 1.388 . S
C203 C204 1.366 . S
C204 C203 1.366 . S
C204 C205 1.414 . S
C204 C207 1.499 . S
C205 H179 0.950 . S
C205 C204 1.414 . S
C205 C206 1.374 . S
C206 H180 0.950 . S
C206 C202 1.385 . S
C206 C205 1.374 . S
C207 C204 1.499 . S
C207 C208 1.373 . S
C207 C209 1.389 1_545 S
C208 H181 0.950 . S
C208 C194 1.377 . S
C208 C207 1.373 . S
C209 C193 1.377 . S
C209 C207 1.389 1_565 S
C209 C210 1.524 . S
C210 C209 1.524 . S
C210 C211 1.397 . S
C210 C215 1.363 . S
C211 H182 0.950 . S
C211 C210 1.397 . S
C211 C212 1.334 . S
C212 H183 0.950 . S
C212 C211 1.334 . S
C212 C213 1.287 . S
C213 C212 1.287 . S
C213 C214 1.524 . S
C213 H216 0.999 . S
C214 H184 0.950 . S
C214 C213 1.524 . S
C214 C215 1.415 . S
C215 H185 0.950 . S
C215 C210 1.363 . S
C215 C214 1.415 . S
H216 C213 0.999 . S
H217 C198 0.913 . S
H218 C236 0.951 . S
H219 C238 0.951 . S
H220 C240 0.950 . S
H221 C241 0.950 . S
H222 C243 0.950 . S
H223 C246 0.950 . S
H224 C247 0.950 . S
H225 C249 0.950 . S
H226 C250 0.950 . S
H227 C251 0.951 . S
H228 C253 0.951 . S
H229 C255 0.950 . S
H230 C256 0.950 . S
H231 C258 0.950 . S
H232 C261 0.950 . S
H233 C262 0.950 . S
H234 C264 0.950 . S
H235 C265 0.950 . S
C236 H218 0.951 . S
C236 C237 1.366 . S
C236 C238 1.388 . S
C237 C236 1.366 . S
C237 C241 1.385 . S
C238 H219 0.951 . S
C238 C236 1.388 . S
C238 C239 1.366 . S
C239 C238 1.366 . S
C239 C240 1.414 . S
C239 C242 1.499 . S
C240 H220 0.950 . S
C240 C239 1.414 . S
C240 C241 1.374 . S
C241 H221 0.950 . S
C241 C237 1.385 . S
C241 C240 1.374 . S
C242 C239 1.499 . S
C242 C243 1.373 . S
C242 C244 1.389 . S
C243 H222 0.950 . S
C243 C242 1.373 . S
C243 C259 1.377 . S
C244 C242 1.389 . S
C244 C245 1.524 . S
C244 C258 1.377 . S
C245 C244 1.524 . S
C245 C246 1.397 . S
C245 C250 1.363 . S
C246 H223 0.950 . S
C246 C245 1.397 . S
C246 C247 1.334 . S
C247 H224 0.950 . S
C247 C246 1.334 . S
C247 C248 1.287 . S
C248 C247 1.287 . S
C248 C249 1.524 . S
C248 H267 0.913 . S
C249 H225 0.950 . S
C249 C248 1.524 . S
C249 C250 1.415 . S
C250 H226 0.950 . S
C250 C245 1.363 . S
C250 C249 1.415 . S
C251 H227 0.951 . S
C251 C252 1.366 . S
C251 C253 1.388 . S
C252 C251 1.366 . S
C252 C256 1.385 . S
C253 H228 0.951 . S
C253 C251 1.388 . S
C253 C254 1.366 . S
C254 C253 1.366 . S
C254 C255 1.414 . S
C254 C257 1.499 . S
C255 H229 0.950 . S
C255 C254 1.414 . S
C255 C256 1.374 . S
C256 H230 0.950 . S
C256 C252 1.385 . S
C256 C255 1.374 . S
C257 C254 1.499 . S
C257 C258 1.373 . S
C257 C259 1.389 . S
C258 H231 0.950 . S
C258 C244 1.377 . S
C258 C257 1.373 . S
C259 C243 1.377 . S
C259 C257 1.389 . S
C259 C260 1.524 . S
C260 C259 1.524 . S
C260 C261 1.397 . S
C260 C265 1.363 . S
C261 H232 0.950 . S
C261 C260 1.397 . S
C261 C262 1.334 . S
C262 H233 0.950 . S
C262 C261 1.334 . S
C262 C263 1.287 . S
C263 C262 1.287 . S
C263 C264 1.524 . S
C263 H266 0.999 . S
C264 H234 0.950 . S
C264 C263 1.524 . S
C264 C265 1.415 . S
C265 H235 0.950 . S
C265 C260 1.363 . S
C265 C264 1.415 . S
H266 C263 0.999 . S
H267 C248 0.913 . S
H268 C286 0.951 . S
H269 C288 0.951 . S
H270 C290 0.950 . S
H271 C291 0.950 . S
H272 C293 0.950 . S
H273 C296 0.950 . S
H274 C297 0.950 . S
H275 C299 0.950 . S
H276 C300 0.950 . S
H277 C301 0.951 . S
H278 C303 0.951 . S
H279 C305 0.950 . S
H280 C306 0.950 . S
H281 C308 0.950 . S
H282 C311 0.950 . S
H283 C312 0.950 . S
H284 C314 0.950 . S
H285 C315 0.950 . S
C286 H268 0.951 . S
C286 C287 1.366 . S
C286 C288 1.388 . S
C287 C286 1.366 . S
C287 C291 1.385 . S
C288 H269 0.951 . S
C288 C286 1.388 . S
C288 C289 1.366 . S
C289 C288 1.366 . S
C289 C290 1.414 . S
C289 C292 1.499 . S
C290 H270 0.950 . S
C290 C289 1.414 . S
C290 C291 1.374 . S
C291 H271 0.950 . S
C291 C287 1.385 . S
C291 C290 1.374 . S
C292 C289 1.499 . S
C292 C293 1.373 . S
C292 C294 1.389 . S
C293 H272 0.950 . S
C293 C292 1.373 . S
C293 C309 1.377 . S
C294 C292 1.389 . S
C294 C295 1.524 . S
C294 C308 1.377 . S
C295 C294 1.524 . S
C295 C296 1.397 . S
C295 C300 1.363 . S
C296 H273 0.950 . S
C296 C295 1.397 . S
C296 C297 1.334 . S
C297 H274 0.950 . S
C297 C296 1.334 . S
C297 C298 1.287 . S
C298 C297 1.287 . S
C298 C299 1.524 . S
C298 H317 0.913 . S
C299 H275 0.950 . S
C299 C298 1.524 . S
C299 C300 1.415 . S
C300 H276 0.950 . S
C300 C295 1.363 . S
C300 C299 1.415 . S
C301 H277 0.951 . S
C301 C302 1.366 . S
C301 C303 1.388 . S
C302 C301 1.366 . S
C302 C306 1.385 . S
C303 H278 0.951 . S
C303 C301 1.388 . S
C303 C304 1.366 . S
C304 C303 1.366 . S
C304 C305 1.414 . S
C304 C307 1.499 . S
C305 H279 0.950 . S
C305 C304 1.414 . S
C305 C306 1.374 . S
C306 H280 0.950 . S
C306 C302 1.385 . S
C306 C305 1.374 . S
C307 C304 1.499 . S
C307 C308 1.373 . S
C307 C309 1.389 . S
C308 H281 0.950 . S
C308 C294 1.377 . S
C308 C307 1.373 . S
C309 C293 1.377 . S
C309 C307 1.389 . S
C309 C310 1.524 . S
C310 C309 1.524 . S
C310 C311 1.397 . S
C310 C315 1.363 . S
C311 H282 0.950 . S
C311 C310 1.397 . S
C311 C312 1.334 . S
C312 H283 0.950 . S
C312 C311 1.334 . S
C312 C313 1.287 . S
C313 C312 1.287 . S
C313 C314 1.524 . S
C313 H316 0.999 . S
C314 H284 0.950 . S
C314 C313 1.524 . S
C314 C315 1.415 . S
C315 H285 0.950 . S
C315 C310 1.363 . S
C315 C314 1.415 . S
H316 C313 0.999 . S
H317 C298 0.913 . S
H318 C336 0.951 . S
H319 C338 0.951 . S
H320 C340 0.950 . S
H321 C341 0.950 . S
H322 C343 0.950 . S
H323 C346 0.950 . S
H324 C347 0.950 . S
H325 C349 0.950 . S
H326 C350 0.950 . S
H327 C351 0.951 . S
H328 C353 0.951 . S
H329 C355 0.950 . S
H330 C356 0.950 1_655 S
H331 C358 0.950 . S
H332 C361 0.950 . S
H333 C362 0.950 1_655 S
H334 C364 0.950 . S
H335 C365 0.950 . S
C336 H318 0.951 . S
C336 C337 1.366 . S
C336 C338 1.388 . S
C337 C336 1.366 . S
C337 C341 1.385 . S
C338 H319 0.951 . S
C338 C336 1.388 . S
C338 C339 1.366 . S
C339 C338 1.366 . S
C339 C340 1.414 . S
C339 C342 1.499 . S
C340 H320 0.950 . S
C340 C339 1.414 . S
C340 C341 1.374 . S
C341 H321 0.950 . S
C341 C337 1.385 . S
C341 C340 1.374 . S
C342 C339 1.499 . S
C342 C343 1.373 . S
C342 C344 1.389 . S
C343 H322 0.950 . S
C343 C342 1.373 . S
C343 C359 1.377 . S
C344 C342 1.389 . S
C344 C345 1.524 . S
C344 C358 1.377 . S
C345 C344 1.524 . S
C345 C346 1.397 . S
C345 C350 1.363 . S
C346 H323 0.950 . S
C346 C345 1.397 . S
C346 C347 1.334 . S
C347 H324 0.950 . S
C347 C346 1.334 . S
C347 C348 1.287 . S
C348 C347 1.287 . S
C348 C349 1.524 . S
C348 H367 0.913 . S
C349 H325 0.950 . S
C349 C348 1.524 . S
C349 C350 1.415 . S
C350 H326 0.950 . S
C350 C345 1.363 . S
C350 C349 1.415 . S
C351 H327 0.951 . S
C351 C352 1.366 . S
C351 C353 1.388 . S
C352 C351 1.366 . S
C352 C356 1.385 . S
C353 H328 0.951 . S
C353 C351 1.388 . S
C353 C354 1.366 . S
C354 C353 1.366 . S
C354 C355 1.414 . S
C354 C357 1.499 . S
C355 H329 0.950 . S
C355 C354 1.414 . S
C355 C356 1.374 . S
C356 H330 0.950 1_455 S
C356 C352 1.385 . S
C356 C355 1.374 . S
C357 C354 1.499 . S
C357 C358 1.373 . S
C357 C359 1.389 . S
C358 H331 0.950 . S
C358 C344 1.377 . S
C358 C357 1.373 . S
C359 C343 1.377 . S
C359 C357 1.389 . S
C359 C360 1.524 . S
C360 C359 1.524 . S
C360 C361 1.397 . S
C360 C365 1.363 . S
C361 H332 0.950 . S
C361 C360 1.397 . S
C361 C362 1.334 . S
C362 H333 0.950 1_455 S
C362 C361 1.334 . S
C362 C363 1.287 . S
C363 C362 1.287 . S
C363 C364 1.524 . S
C363 H366 0.999 . S
C364 H334 0.950 . S
C364 C363 1.524 . S
C364 C365 1.415 . S
C365 H335 0.950 . S
C365 C360 1.363 . S
C365 C364 1.415 . S
H366 C363 0.999 . S
H367 C348 0.913 . S
H368 C386 0.951 1_554 S
H369 C388 0.951 . S
H370 C390 0.950 . S
H371 C391 0.950 . S
H372 C393 0.950 . S
H373 C396 0.950 . S
H374 C397 0.950 . S
H375 C399 0.950 1_554 S
H376 C400 0.950 . S
H377 C401 0.951 . S
H378 C403 0.951 . S
H379 C405 0.952 . S
H380 C406 0.950 . S
H381 C408 0.950 . S
H382 C411 0.950 . S
H383 C412 0.950 . S
H384 C414 0.950 . S
H385 C415 0.950 . S
C386 H368 0.951 1_556 S
C386 C387 1.366 . S
C386 C388 1.388 . S
C387 C386 1.366 . S
C387 C391 1.385 . S
C388 H369 0.951 . S
C388 C386 1.388 . S
C388 C389 1.366 . S
C389 C388 1.366 . S
C389 C390 1.414 . S
C389 C392 1.499 . S
C390 H370 0.950 . S
C390 C389 1.414 . S
C390 C391 1.374 . S
C391 H371 0.950 . S
C391 C387 1.385 . S
C391 C390 1.374 . S
C392 C389 1.499 . S
C392 C393 1.373 . S
C392 C394 1.389 1_565 S
C393 H372 0.950 . S
C393 C392 1.373 . S
C393 C409 1.377 . S
C394 C392 1.389 1_545 S
C394 C395 1.524 . S
C394 C408 1.377 . S
C395 C394 1.524 . S
C395 C396 1.397 . S
C395 C400 1.363 . S
C396 H373 0.950 . S
C396 C395 1.397 . S
C396 C397 1.334 . S
C397 H374 0.950 . S
C397 C396 1.334 . S
C397 C398 1.287 . S
C398 C397 1.287 . S
C398 C399 1.524 . S
C398 H417 0.913 . S
C399 H375 0.950 1_556 S
C399 C398 1.524 . S
C399 C400 1.415 . S
C400 H376 0.950 . S
C400 C395 1.363 . S
C400 C399 1.415 . S
C401 H377 0.951 . S
C401 C402 1.366 1_565 S
C401 C403 1.388 . S
C402 C401 1.366 1_545 S
C402 C406 1.384 . S
C403 H378 0.951 . S
C403 C401 1.388 . S
C403 C404 1.366 . S
C404 C403 1.366 . S
C404 C405 1.412 1_565 S
C404 C407 1.499 . S
C405 H379 0.952 . S
C405 C404 1.412 1_545 S
C405 C406 1.374 . S
C406 H380 0.950 . S
C406 C402 1.384 . S
C406 C405 1.374 . S
C407 C404 1.499 . S
C407 C408 1.373 1_565 S
C407 C409 1.389 . S
C408 H381 0.950 . S
C408 C394 1.377 . S
C408 C407 1.373 1_545 S
C409 C393 1.377 . S
C409 C407 1.389 . S
C409 C410 1.524 . S
C410 C409 1.524 . S
C410 C411 1.397 . S
C410 C415 1.363 . S
C411 H382 0.950 . S
C411 C410 1.397 . S
C411 C412 1.334 . S
C412 H383 0.950 . S
C412 C411 1.334 . S
C412 C413 1.287 . S
C413 C412 1.287 . S
C413 C414 1.524 . S
C413 H416 0.999 . S
C414 H384 0.950 . S
C414 C413 1.524 . S
C414 C415 1.415 . S
C415 H385 0.950 . S
C415 C410 1.363 . S
C415 C414 1.415 . S
H416 C413 0.999 . S
H417 C398 0.913 . S
H418 C436 0.951 . S
H419 C438 0.952 . S
H420 C440 0.950 . S
H421 C441 0.950 . S
H422 C443 0.950 . S
H423 C446 0.950 . S
H424 C447 0.950 . S
H425 C449 0.950 . S
H426 C450 0.950 . S
H427 C451 0.951 . S
H428 C453 0.951 . S
H429 C455 0.950 . S
H430 C456 0.950 . S
H431 C458 0.950 . S
H432 C461 0.950 . S
H433 C462 0.950 . S
H434 C464 0.950 . S
H435 C465 0.950 . S
C436 H418 0.951 . S
C436 C437 1.366 1_554 S
C436 C438 1.388 1_554 S
C437 C436 1.366 1_556 S
C437 C441 1.385 . S
C438 H419 0.952 . S
C438 C436 1.388 1_556 S
C438 C439 1.366 . S
C439 C438 1.366 . S
C439 C440 1.414 . S
C439 C442 1.499 . S
C440 H420 0.950 . S
C440 C439 1.414 . S
C440 C441 1.374 . S
C441 H421 0.950 . S
C441 C437 1.385 . S
C441 C440 1.374 . S
C442 C439 1.499 . S
C442 C443 1.373 . S
C442 C444 1.389 . S
C443 H422 0.950 . S
C443 C442 1.373 . S
C443 C459 1.377 . S
C444 C442 1.389 . S
C444 C445 1.524 . S
C444 C458 1.377 . S
C445 C444 1.524 . S
C445 C446 1.397 . S
C445 C450 1.363 . S
C446 H423 0.950 . S
C446 C445 1.397 . S
C446 C447 1.334 . S
C447 H424 0.950 . S
C447 C446 1.334 . S
C447 C448 1.287 1_556 S
C448 C447 1.287 1_554 S
C448 C449 1.524 . S
C448 H467 0.913 . S
C449 H425 0.950 . S
C449 C448 1.524 . S
C449 C450 1.415 1_554 S
C450 H426 0.950 . S
C450 C445 1.363 . S
C450 C449 1.415 1_556 S
C451 H427 0.951 . S
C451 C452 1.366 . S
C451 C453 1.388 . S
C452 C451 1.366 . S
C452 C456 1.385 . S
C453 H428 0.951 . S
C453 C451 1.388 . S
C453 C454 1.366 . S
C454 C453 1.366 . S
C454 C455 1.414 . S
C454 C457 1.499 . S
C455 H429 0.950 . S
C455 C454 1.414 . S
C455 C456 1.374 . S
C456 H430 0.950 . S
C456 C452 1.385 . S
C456 C455 1.374 . S
C457 C454 1.499 . S
C457 C458 1.373 . S
C457 C459 1.389 . S
C458 H431 0.950 . S
C458 C444 1.377 . S
C458 C457 1.373 . S
C459 C443 1.377 . S
C459 C457 1.389 . S
C459 C460 1.524 . S
C460 C459 1.524 . S
C460 C461 1.397 . S
C460 C465 1.363 . S
C461 H432 0.950 . S
C461 C460 1.397 . S
C461 C462 1.334 . S
C462 H433 0.950 . S
C462 C461 1.334 . S
C462 C463 1.287 . S
C463 C462 1.287 . S
C463 C464 1.524 . S
C463 H466 0.999 . S
C464 H434 0.950 . S
C464 C463 1.524 . S
C464 C465 1.415 . S
C465 H435 0.950 . S
C465 C460 1.363 . S
C465 C464 1.415 . S
H466 C463 0.999 . S
H467 C448 0.913 . S
H468 C486 0.951 1_554 S
H469 C488 0.951 . S
H470 C490 0.950 . S
H471 C491 0.950 . S
H472 C493 0.950 . S
H473 C496 0.950 . S
H474 C497 0.950 . S
H475 C499 0.950 . S
H476 C500 0.950 . S
H477 C501 0.951 . S
H478 C503 0.951 . S
H479 C505 0.950 . S
H480 C506 0.950 . S
H481 C508 0.950 . S
H482 C511 0.950 . S
H483 C512 0.950 . S
H484 C514 0.950 . S
H485 C515 0.950 . S
C486 H468 0.951 1_556 S
C486 C487 1.366 . S
C486 C488 1.388 . S
C487 C486 1.366 . S
C487 C491 1.385 . S
C488 H469 0.951 . S
C488 C486 1.388 . S
C488 C489 1.366 . S
C489 C488 1.366 . S
C489 C490 1.414 . S
C489 C492 1.499 . S
C490 H470 0.950 . S
C490 C489 1.414 . S
C490 C491 1.374 . S
C491 H471 0.950 . S
C491 C487 1.385 . S
C491 C490 1.374 . S
C492 C489 1.499 . S
C492 C493 1.373 . S
C492 C494 1.389 . S
C493 H472 0.950 . S
C493 C492 1.373 . S
C493 C509 1.377 . S
C494 C492 1.389 . S
C494 C495 1.524 . S
C494 C508 1.377 . S
C495 C494 1.524 . S
C495 C496 1.397 . S
C495 C500 1.363 . S
C496 H473 0.950 . S
C496 C495 1.397 . S
C496 C497 1.334 . S
C497 H474 0.950 . S
C497 C496 1.334 . S
C497 C498 1.287 . S
C498 C497 1.287 . S
C498 C499 1.524 . S
C498 H517 0.913 . S
C499 H475 0.950 . S
C499 C498 1.524 . S
C499 C500 1.415 . S
C500 H476 0.950 . S
C500 C495 1.363 . S
C500 C499 1.415 . S
C501 H477 0.951 . S
C501 C502 1.366 . S
C501 C503 1.388 . S
C502 C501 1.366 . S
C502 C506 1.385 . S
C503 H478 0.951 . S
C503 C501 1.388 . S
C503 C504 1.366 . S
C504 C503 1.366 . S
C504 C505 1.414 . S
C504 C507 1.499 . S
C505 H479 0.950 . S
C505 C504 1.414 . S
C505 C506 1.374 . S
C506 H480 0.950 . S
C506 C502 1.385 . S
C506 C505 1.374 . S
C507 C504 1.499 . S
C507 C508 1.373 . S
C507 C509 1.389 . S
C508 H481 0.950 . S
C508 C494 1.377 . S
C508 C507 1.373 . S
C509 C493 1.377 . S
C509 C507 1.389 . S
C509 C510 1.524 . S
C510 C509 1.524 . S
C510 C511 1.397 . S
C510 C515 1.363 . S
C511 H482 0.950 . S
C511 C510 1.397 . S
C511 C512 1.334 . S
C512 H483 0.950 . S
C512 C511 1.334 . S
C512 C513 1.287 . S
C513 C512 1.287 . S
C513 C514 1.524 . S
C513 H516 0.999 . S
C514 H484 0.950 . S
C514 C513 1.524 . S
C514 C515 1.415 . S
C515 H485 0.950 . S
C515 C510 1.363 . S
C515 C514 1.415 . S
H516 C513 0.999 . S
H517 C498 0.913 . S
H518 C536 0.951 . S
H519 C538 0.951 . S
H520 C540 0.950 . S
H521 C541 0.950 1_554 S
H522 C543 0.934 1_455 S
H523 C546 0.950 . S
H524 C547 0.950 . S
H525 C549 0.950 . S
H526 C550 0.950 . S
H527 C551 0.954 . S
H528 C553 0.951 . S
H529 C555 0.950 . S
H530 C556 0.950 . S
H531 C558 0.950 . S
H532 C561 0.950 . S
H533 C562 0.950 . S
H534 C564 0.950 . S
H535 C565 0.950 . S
C536 H518 0.951 . S
C536 C537 1.366 . S
C536 C538 1.388 . S
C537 C536 1.366 . S
C537 C541 1.385 . S
C538 H519 0.951 . S
C538 C536 1.388 . S
C538 C539 1.366 . S
C539 C538 1.366 . S
C539 C540 1.414 . S
C539 C542 1.499 . S
C540 H520 0.950 . S
C540 C539 1.414 . S
C540 C541 1.374 . S
C541 H521 0.950 1_556 S
C541 C537 1.385 . S
C541 C540 1.374 . S
C542 C539 1.499 . S
C542 C543 1.373 . S
C542 C544 1.389 . S
C543 H522 0.934 1_655 S
C543 C542 1.373 . S
C543 C559 1.377 . S
C544 C542 1.389 . S
C544 C545 1.524 . S
C544 C558 1.377 . S
C545 C544 1.524 . S
C545 C546 1.397 . S
C545 C550 1.363 . S
C546 H523 0.950 . S
C546 C545 1.397 . S
C546 C547 1.334 . S
C547 H524 0.950 . S
C547 C546 1.334 . S
C547 C548 1.287 . S
C548 C547 1.287 . S
C548 C549 1.524 . S
C548 H567 0.913 . S
C549 H525 0.950 . S
C549 C548 1.524 . S
C549 C550 1.415 . S
C550 H526 0.950 . S
C550 C545 1.363 . S
C550 C549 1.415 . S
C551 H527 0.954 . S
C551 C552 1.366 1_455 S
C551 C553 1.385 1_455 S
C552 C551 1.366 1_655 S
C552 C556 1.384 . S
C553 H528 0.951 . S
C553 C551 1.385 1_655 S
C553 C554 1.366 . S
C554 C553 1.366 . S
C554 C555 1.414 . S
C554 C557 1.499 . S
C555 H529 0.950 . S
C555 C554 1.414 . S
C555 C556 1.374 . S
C556 H530 0.950 . S
C556 C552 1.384 . S
C556 C555 1.374 . S
C557 C554 1.499 . S
C557 C558 1.373 . S
C557 C559 1.389 . S
C558 H531 0.950 . S
C558 C544 1.377 . S
C558 C557 1.373 . S
C559 C543 1.377 . S
C559 C557 1.389 . S
C559 C560 1.524 1_655 S
C560 C559 1.524 1_455 S
C560 C561 1.397 . S
C560 C565 1.363 . S
C561 H532 0.950 . S
C561 C560 1.397 . S
C561 C562 1.334 . S
C562 H533 0.950 . S
C562 C561 1.334 . S
C562 C563 1.287 . S
C563 C562 1.287 . S
C563 C564 1.524 . S
C563 H566 0.999 . S
C564 H534 0.950 . S
C564 C563 1.524 . S
C564 C565 1.415 . S
C565 H535 0.950 . S
C565 C560 1.363 . S
C565 C564 1.415 . S
H566 C563 0.999 . S
H567 C548 0.913 . S
H568 C586 0.951 . S
H569 C588 0.951 . S
H570 C590 0.950 . S
H571 C591 0.950 . S
H572 C593 0.950 . S
H573 C596 0.950 . S
H574 C597 0.950 . S
H575 C599 0.950 . S
H576 C600 0.950 . S
H577 C601 0.951 . S
H578 C603 0.951 1_655 S
H579 C605 0.950 . S
H580 C606 0.950 . S
H581 C608 0.950 . S
H582 C611 0.950 . S
H583 C612 0.950 . S
H584 C614 0.950 . S
H585 C615 0.950 . S
C586 H568 0.951 . S
C586 C587 1.366 . S
C586 C588 1.388 . S
C587 C586 1.366 . S
C587 C591 1.385 . S
C588 H569 0.951 . S
C588 C586 1.388 . S
C588 C589 1.366 . S
C589 C588 1.366 . S
C589 C590 1.414 . S
C589 C592 1.499 . S
C590 H570 0.950 . S
C590 C589 1.414 . S
C590 C591 1.374 . S
C591 H571 0.950 . S
C591 C587 1.385 . S
C591 C590 1.374 . S
C592 C589 1.499 . S
C592 C593 1.373 . S
C592 C594 1.389 . S
C593 H572 0.950 . S
C593 C592 1.373 . S
C593 C609 1.377 . S
C594 C592 1.389 . S
C594 C595 1.524 . S
C594 C608 1.377 . S
C595 C594 1.524 . S
C595 C596 1.397 . S
C595 C600 1.363 . S
C596 H573 0.950 . S
C596 C595 1.397 . S
C596 C597 1.334 . S
C597 H574 0.950 . S
C597 C596 1.334 . S
C597 C598 1.287 . S
C598 C597 1.287 . S
C598 C599 1.524 . S
C598 H617 0.913 . S
C599 H575 0.950 . S
C599 C598 1.524 . S
C599 C600 1.415 . S
C600 H576 0.950 . S
C600 C595 1.363 . S
C600 C599 1.415 . S
C601 H577 0.951 . S
C601 C602 1.366 1_655 S
C601 C603 1.388 1_655 S
C602 C601 1.366 1_455 S
C602 C606 1.385 . S
C603 H578 0.951 1_455 S
C603 C601 1.388 1_455 S
C603 C604 1.366 . S
C604 C603 1.366 . S
C604 C605 1.414 . S
C604 C607 1.499 . S
C605 H579 0.950 . S
C605 C604 1.414 . S
C605 C606 1.374 . S
C606 H580 0.950 . S
C606 C602 1.385 . S
C606 C605 1.374 . S
C607 C604 1.499 . S
C607 C608 1.373 . S
C607 C609 1.389 . S
C608 H581 0.950 . S
C608 C594 1.377 . S
C608 C607 1.373 . S
C609 C593 1.377 . S
C609 C607 1.389 . S
C609 C610 1.524 . S
C610 C609 1.524 . S
C610 C611 1.397 . S
C610 C615 1.364 1_455 S
C611 H582 0.950 . S
C611 C610 1.397 . S
C611 C612 1.334 . S
C612 H583 0.950 . S
C612 C611 1.334 . S
C612 C613 1.287 . S
C613 C612 1.287 . S
C613 C614 1.524 1_455 S
C613 H616 0.991 1_455 S
C614 H584 0.950 . S
C614 C613 1.524 1_655 S
C614 C615 1.414 . S
C615 H585 0.950 . S
C615 C610 1.364 1_655 S
C615 C614 1.414 . S
H616 C613 0.991 1_655 S
H617 C598 0.913 . S
H618 C636 0.951 . S
H619 C638 0.951 . S
H620 C640 0.950 1_565 S
H621 C641 0.950 1_565 S
H622 C643 0.950 . S
H623 C646 0.950 . S
H624 C647 0.950 . S
H625 C649 0.950 . S
H626 C650 0.950 . S
H627 C651 0.951 . S
H628 C653 0.951 . S
H629 C655 0.950 . S
H630 C656 0.950 . S
H631 C658 0.950 . S
H632 C661 0.950 . S
H633 C662 0.950 . S
H634 C664 0.950 . S
H635 C665 0.950 1_565 S
C636 H618 0.951 . S
C636 C637 1.366 . S
C636 C638 1.388 . S
C637 C636 1.366 . S
C637 C641 1.385 . S
C638 H619 0.951 . S
C638 C636 1.388 . S
C638 C639 1.366 . S
C639 C638 1.366 . S
C639 C640 1.414 . S
C639 C642 1.499 . S
C640 H620 0.950 1_545 S
C640 C639 1.414 . S
C640 C641 1.374 . S
C641 H621 0.950 1_545 S
C641 C637 1.385 . S
C641 C640 1.374 . S
C642 C639 1.499 . S
C642 C643 1.373 . S
C642 C644 1.389 . S
C643 H622 0.950 . S
C643 C642 1.373 . S
C643 C659 1.377 . S
C644 C642 1.389 . S
C644 C645 1.524 . S
C644 C658 1.377 . S
C645 C644 1.524 . S
C645 C646 1.397 1_545 S
C645 C650 1.363 . S
C646 H623 0.950 . S
C646 C645 1.397 1_565 S
C646 C647 1.334 . S
C647 H624 0.950 . S
C647 C646 1.334 . S
C647 C648 1.287 . S
C648 C647 1.287 . S
C648 C649 1.524 1_565 S
C648 H667 0.913 . S
C649 H625 0.950 . S
C649 C648 1.524 1_545 S
C649 C650 1.415 . S
C650 H626 0.950 . S
C650 C645 1.363 . S
C650 C649 1.415 . S
C651 H627 0.951 . S
C651 C652 1.366 . S
C651 C653 1.388 . S
C652 C651 1.366 . S
C652 C656 1.385 1_565 S
C653 H628 0.951 . S
C653 C651 1.388 . S
C653 C654 1.366 1_565 S
C654 C653 1.366 1_545 S
C654 C655 1.414 . S
C654 C657 1.499 . S
C655 H629 0.950 . S
C655 C654 1.414 . S
C655 C656 1.374 . S
C656 H630 0.950 . S
C656 C652 1.385 1_545 S
C656 C655 1.374 . S
C657 C654 1.499 . S
C657 C658 1.373 . S
C657 C659 1.389 . S
C658 H631 0.950 . S
C658 C644 1.377 . S
C658 C657 1.373 . S
C659 C643 1.377 . S
C659 C657 1.389 . S
C659 C660 1.524 . S
C660 C659 1.524 . S
C660 C661 1.397 . S
C660 C665 1.363 . S
C661 H632 0.950 . S
C661 C660 1.397 . S
C661 C662 1.334 . S
C662 H633 0.950 . S
C662 C661 1.334 . S
C662 C663 1.287 . S
C663 C662 1.287 . S
C663 C664 1.524 . S
C663 H666 0.999 . S
C664 H634 0.950 . S
C664 C663 1.524 . S
C664 C665 1.415 . S
C665 H635 0.950 1_545 S
C665 C660 1.363 . S
C665 C664 1.415 . S
H666 C663 0.999 . S
H667 C648 0.913 . S
H668 C686 0.951 . S
H669 C688 0.951 . S
H670 C690 0.950 . S
H671 C691 0.950 . S
H672 C693 0.950 . S
H673 C696 0.950 . S
H674 C697 0.950 . S
H675 C699 0.950 . S
H676 C700 0.950 . S
H677 C701 0.951 . S
H678 C703 0.951 . S
H679 C705 0.950 . S
H680 C706 0.950 . S
H681 C708 0.950 . S
H682 C711 0.950 . S
H683 C712 0.950 . S
H684 C714 0.950 . S
H685 C715 0.950 . S
C686 H668 0.951 . S
C686 C687 1.366 . S
C686 C688 1.388 . S
C687 C686 1.366 . S
C687 C691 1.385 . S
C688 H669 0.951 . S
C688 C686 1.388 . S
C688 C689 1.366 . S
C689 C688 1.366 . S
C689 C690 1.414 . S
C689 C692 1.499 . S
C690 H670 0.950 . S
C690 C689 1.414 . S
C690 C691 1.374 . S
C691 H671 0.950 . S
C691 C687 1.385 . S
C691 C690 1.374 . S
C692 C689 1.499 . S
C692 C693 1.373 . S
C692 C694 1.389 . S
C693 H672 0.950 . S
C693 C692 1.373 . S
C693 C709 1.377 . S
C694 C692 1.389 . S
C694 C695 1.524 . S
C694 C708 1.377 . S
C695 C694 1.524 . S
C695 C696 1.397 . S
C695 C700 1.363 . S
C696 H673 0.950 . S
C696 C695 1.397 . S
C696 C697 1.334 . S
C697 H674 0.950 . S
C697 C696 1.334 . S
C697 C698 1.287 . S
C698 C697 1.287 . S
C698 C699 1.524 . S
C698 H717 0.913 . S
C699 H675 0.950 . S
C699 C698 1.524 . S
C699 C700 1.415 . S
C700 H676 0.950 . S
C700 C695 1.363 . S
C700 C699 1.415 . S
C701 H677 0.951 . S
C701 C702 1.366 . S
C701 C703 1.388 . S
C702 C701 1.366 . S
C702 C706 1.385 . S
C703 H678 0.951 . S
C703 C701 1.388 . S
C703 C704 1.366 . S
C704 C703 1.366 . S
C704 C705 1.414 . S
C704 C707 1.499 . S
C705 H679 0.950 . S
C705 C704 1.414 . S
C705 C706 1.374 . S
C706 H680 0.950 . S
C706 C702 1.385 . S
C706 C705 1.374 . S
C707 C704 1.499 . S
C707 C708 1.373 . S
C707 C709 1.389 . S
C708 H681 0.950 . S
C708 C694 1.377 . S
C708 C707 1.373 . S
C709 C693 1.377 . S
C709 C707 1.389 . S
C709 C710 1.524 . S
C710 C709 1.524 . S
C710 C711 1.397 . S
C710 C715 1.363 . S
C711 H682 0.950 . S
C711 C710 1.397 . S
C711 C712 1.334 . S
C712 H683 0.950 . S
C712 C711 1.334 . S
C712 C713 1.287 . S
C713 C712 1.287 . S
C713 C714 1.524 . S
C713 H716 0.999 . S
C714 H684 0.950 . S
C714 C713 1.524 . S
C714 C715 1.415 . S
C715 H685 0.950 . S
C715 C710 1.363 . S
C715 C714 1.415 . S
H716 C713 0.999 . S
H717 C698 0.913 . S
H718 C736 0.951 . S
H719 C738 0.951 . S
H720 C740 0.950 . S
H721 C741 0.950 . S
H722 C743 0.950 . S
H723 C746 0.950 . S
H724 C747 0.950 . S
H725 C749 0.950 . S
H726 C750 0.950 . S
H727 C751 0.951 . S
H728 C753 0.951 . S
H729 C755 0.950 . S
H730 C756 0.950 . S
H731 C758 0.950 . S
H732 C761 0.950 . S
H733 C762 0.950 . S
H734 C764 0.950 . S
H735 C765 0.950 . S
C736 H718 0.951 . S
C736 C737 1.366 . S
C736 C738 1.388 . S
C737 C736 1.366 . S
C737 C741 1.385 . S
C738 H719 0.951 . S
C738 C736 1.388 . S
C738 C739 1.366 . S
C739 C738 1.366 . S
C739 C740 1.414 . S
C739 C742 1.499 . S
C740 H720 0.950 . S
C740 C739 1.414 . S
C740 C741 1.374 . S
C741 H721 0.950 . S
C741 C737 1.385 . S
C741 C740 1.374 . S
C742 C739 1.499 . S
C742 C743 1.373 . S
C742 C744 1.389 . S
C743 H722 0.950 . S
C743 C742 1.373 . S
C743 C759 1.377 . S
C744 C742 1.389 . S
C744 C745 1.524 . S
C744 C758 1.377 . S
C745 C744 1.524 . S
C745 C746 1.397 . S
C745 C750 1.363 . S
C746 H723 0.950 . S
C746 C745 1.397 . S
C746 C747 1.334 . S
C747 H724 0.950 . S
C747 C746 1.334 . S
C747 C748 1.287 . S
C748 C747 1.287 . S
C748 C749 1.524 . S
C748 H767 0.913 . S
C749 H725 0.950 . S
C749 C748 1.524 . S
C749 C750 1.415 . S
C750 H726 0.950 . S
C750 C745 1.363 . S
C750 C749 1.415 . S
C751 H727 0.951 . S
C751 C752 1.366 . S
C751 C753 1.388 . S
C752 C751 1.366 . S
C752 C756 1.385 . S
C753 H728 0.951 . S
C753 C751 1.388 . S
C753 C754 1.366 . S
C754 C753 1.366 . S
C754 C755 1.414 . S
C754 C757 1.499 . S
C755 H729 0.950 . S
C755 C754 1.414 . S
C755 C756 1.374 . S
C756 H730 0.950 . S
C756 C752 1.385 . S
C756 C755 1.374 . S
C757 C754 1.499 . S
C757 C758 1.373 . S
C757 C759 1.389 . S
C758 H731 0.950 . S
C758 C744 1.377 . S
C758 C757 1.373 . S
C759 C743 1.377 . S
C759 C757 1.389 . S
C759 C760 1.524 . S
C760 C759 1.524 . S
C760 C761 1.397 . S
C760 C765 1.363 . S
C761 H732 0.950 . S
C761 C760 1.397 . S
C761 C762 1.334 . S
C762 H733 0.950 . S
C762 C761 1.334 . S
C762 C763 1.287 . S
C763 C762 1.287 . S
C763 C764 1.524 . S
C763 H766 0.999 . S
C764 H734 0.950 . S
C764 C763 1.524 . S
C764 C765 1.415 . S
C765 H735 0.950 . S
C765 C760 1.363 . S
C765 C764 1.415 . S
H766 C763 0.999 . S
H767 C748 0.913 . S
H768 C786 0.951 1_554 S
H769 C788 0.951 . S
H770 C790 0.950 . S
H771 C791 0.950 . S
H772 C793 0.950 1_455 S
H773 C796 0.950 . S
H774 C797 0.950 . S
H775 C799 0.950 . S
H776 C800 0.950 . S
H777 C801 0.951 . S
H778 C803 0.951 . S
H779 C805 0.950 . S
H780 C806 0.950 . S
H781 C808 0.950 . S
H782 C811 0.950 . S
H783 C812 0.950 . S
H784 C814 0.950 . S
H785 C815 0.950 . S
C786 H768 0.951 1_556 S
C786 C787 1.366 . S
C786 C788 1.388 . S
C787 C786 1.366 . S
C787 C791 1.385 . S
C788 H769 0.951 . S
C788 C786 1.388 . S
C788 C789 1.366 . S
C789 C788 1.366 . S
C789 C790 1.414 . S
C789 C792 1.499 . S
C790 H770 0.950 . S
C790 C789 1.414 . S
C790 C791 1.374 . S
C791 H771 0.950 . S
C791 C787 1.385 . S
C791 C790 1.374 . S
C792 C789 1.499 . S
C792 C793 1.373 . S
C792 C794 1.389 . S
C793 H772 0.950 1_655 S
C793 C792 1.373 . S
C793 C809 1.377 1_655 S
C794 C792 1.389 . S
C794 C795 1.524 . S
C794 C808 1.377 . S
C795 C794 1.524 . S
C795 C796 1.397 . S
C795 C800 1.363 . S
C796 H773 0.950 . S
C796 C795 1.397 . S
C796 C797 1.334 . S
C797 H774 0.950 . S
C797 C796 1.334 . S
C797 C798 1.287 . S
C798 C797 1.287 . S
C798 C799 1.524 . S
C798 H817 0.913 . S
C799 H775 0.950 . S
C799 C798 1.524 . S
C799 C800 1.415 . S
C800 H776 0.950 . S
C800 C795 1.363 . S
C800 C799 1.415 . S
C801 H777 0.951 . S
C801 C802 1.366 . S
C801 C803 1.388 . S
C802 C801 1.366 . S
C802 C806 1.385 1_455 S
C803 H778 0.951 . S
C803 C801 1.388 . S
C803 C804 1.366 1_455 S
C804 C803 1.366 1_655 S
C804 C805 1.414 . S
C804 C807 1.499 . S
C805 H779 0.950 . S
C805 C804 1.414 . S
C805 C806 1.374 . S
C806 H780 0.950 . S
C806 C802 1.385 1_655 S
C806 C805 1.374 . S
C807 C804 1.499 . S
C807 C808 1.373 . S
C807 C809 1.389 1_655 S
C808 H781 0.950 . S
C808 C794 1.377 . S
C808 C807 1.373 . S
C809 C793 1.377 1_455 S
C809 C807 1.389 1_455 S
C809 C810 1.524 . S
C810 C809 1.524 . S
C810 C811 1.397 . S
C810 C815 1.363 . S
C811 H782 0.950 . S
C811 C810 1.397 . S
C811 C812 1.334 . S
C812 H783 0.950 . S
C812 C811 1.334 . S
C812 C813 1.287 . S
C813 C812 1.287 . S
C813 C814 1.524 . S
C813 H816 0.999 . S
C814 H784 0.950 . S
C814 C813 1.524 . S
C814 C815 1.415 . S
C815 H785 0.950 . S
C815 C810 1.363 . S
C815 C814 1.415 . S
H816 C813 0.999 . S
H817 C798 0.913 . S
H818 C836 0.951 . S
H819 C838 0.951 . S
H820 C840 0.950 . S
H821 C841 0.963 1_554 S
H822 C843 0.950 . S
H823 C846 0.950 . S
H824 C847 0.950 . S
H825 C849 0.950 . S
H826 C850 0.950 . S
H827 C851 0.951 . S
H828 C853 0.951 . S
H829 C855 0.950 . S
H830 C856 0.950 . S
H831 C858 0.950 . S
H832 C861 0.950 . S
H833 C862 0.950 . S
H834 C864 0.950 . S
H835 C865 0.950 1_554 S
C836 H818 0.951 . S
C836 C837 1.366 . S
C836 C838 1.388 . S
C837 C836 1.366 . S
C837 C841 1.366 1_565 S
C838 H819 0.951 . S
C838 C836 1.388 . S
C838 C839 1.366 . S
C839 C838 1.366 . S
C839 C840 1.414 1_565 S
C839 C842 1.499 . S
C840 H820 0.950 . S
C840 C839 1.414 1_545 S
C840 C841 1.380 . S
C841 H821 0.963 1_556 S
C841 C837 1.366 1_545 S
C841 C840 1.380 . S
C842 C839 1.499 . S
C842 C843 1.373 . S
C842 C844 1.389 . S
C843 H822 0.950 . S
C843 C842 1.373 . S
C843 C859 1.377 . S
C844 C842 1.389 . S
C844 C845 1.524 . S
C844 C858 1.377 . S
C845 C844 1.524 . S
C845 C846 1.397 1_565 S
C845 C850 1.363 . S
C846 H823 0.950 . S
C846 C845 1.397 1_545 S
C846 C847 1.334 . S
C847 H824 0.950 . S
C847 C846 1.334 . S
C847 C848 1.287 . S
C848 C847 1.287 . S
C848 C849 1.524 1_545 S
C848 H867 0.913 . S
C849 H825 0.950 . S
C849 C848 1.524 1_565 S
C849 C850 1.415 . S
C850 H826 0.950 . S
C850 C845 1.363 . S
C850 C849 1.415 . S
C851 H827 0.951 . S
C851 C852 1.366 . S
C851 C853 1.388 . S
C852 C851 1.366 . S
C852 C856 1.385 1_545 S
C853 H828 0.951 . S
C853 C851 1.388 . S
C853 C854 1.347 1_545 S
C854 C853 1.347 1_565 S
C854 C855 1.426 . S
C854 C857 1.505 . S
C855 H829 0.950 . S
C855 C854 1.426 . S
C855 C856 1.374 . S
C856 H830 0.950 . S
C856 C852 1.385 1_565 S
C856 C855 1.374 . S
C857 C854 1.505 . S
C857 C858 1.373 . S
C857 C859 1.389 . S
C858 H831 0.950 . S
C858 C844 1.377 . S
C858 C857 1.373 . S
C859 C843 1.377 . S
C859 C857 1.389 . S
C859 C860 1.524 . S
C860 C859 1.524 . S
C860 C861 1.397 . S
C860 C865 1.363 1_565 S
C861 H832 0.950 . S
C861 C860 1.397 . S
C861 C862 1.334 . S
C862 H833 0.950 . S
C862 C861 1.334 . S
C862 C863 1.287 1_556 S
C863 C862 1.287 1_554 S
C863 C864 1.524 1_565 S
C863 H866 0.999 . S
C864 H834 0.950 . S
C864 C863 1.524 1_545 S
C864 C865 1.415 1_554 S
C865 H835 0.950 1_556 S
C865 C860 1.363 1_545 S
C865 C864 1.415 1_556 S
H866 C863 0.999 . S
H867 C848 0.913 . S
H868 C886 0.951 . S
H869 C888 0.951 . S
H870 C890 0.950 . S
H871 C891 0.950 . S
H872 C893 0.950 . S
H873 C896 0.950 . S
H874 C897 0.950 . S
H875 C899 0.950 . S
H876 C900 0.950 . S
H877 C901 0.951 . S
H878 C903 0.951 . S
H879 C905 0.950 . S
H880 C906 0.950 . S
H881 C908 0.950 . S
H882 C911 0.950 . S
H883 C912 0.950 . S
H884 C914 0.950 . S
H885 C915 0.950 . S
C886 H868 0.951 . S
C886 C887 1.366 . S
C886 C888 1.388 . S
C887 C886 1.366 . S
C887 C891 1.385 . S
C888 H869 0.951 . S
C888 C886 1.388 . S
C888 C889 1.366 . S
C889 C888 1.366 . S
C889 C890 1.414 . S
C889 C892 1.499 . S
C890 H870 0.950 . S
C890 C889 1.414 . S
C890 C891 1.374 . S
C891 H871 0.950 . S
C891 C887 1.385 . S
C891 C890 1.374 . S
C892 C889 1.499 . S
C892 C893 1.373 . S
C892 C894 1.389 . S
C893 H872 0.950 . S
C893 C892 1.373 . S
C893 C909 1.377 . S
C894 C892 1.389 . S
C894 C895 1.524 . S
C894 C908 1.377 . S
C895 C894 1.524 . S
C895 C896 1.397 . S
C895 C900 1.363 . S
C896 H873 0.950 . S
C896 C895 1.397 . S
C896 C897 1.334 . S
C897 H874 0.950 . S
C897 C896 1.334 . S
C897 C898 1.287 . S
C898 C897 1.287 . S
C898 C899 1.524 . S
C898 H917 0.913 . S
C899 H875 0.950 . S
C899 C898 1.524 . S
C899 C900 1.415 . S
C900 H876 0.950 . S
C900 C895 1.363 . S
C900 C899 1.415 . S
C901 H877 0.951 . S
C901 C902 1.366 . S
C901 C903 1.388 . S
C902 C901 1.366 . S
C902 C906 1.385 . S
C903 H878 0.951 . S
C903 C901 1.388 . S
C903 C904 1.366 . S
C904 C903 1.366 . S
C904 C905 1.414 . S
C904 C907 1.499 . S
C905 H879 0.950 . S
C905 C904 1.414 . S
C905 C906 1.374 . S
C906 H880 0.950 . S
C906 C902 1.385 . S
C906 C905 1.374 . S
C907 C904 1.499 . S
C907 C908 1.373 . S
C907 C909 1.389 . S
C908 H881 0.950 . S
C908 C894 1.377 . S
C908 C907 1.373 . S
C909 C893 1.377 . S
C909 C907 1.389 . S
C909 C910 1.524 . S
C910 C909 1.524 . S
C910 C911 1.397 . S
C910 C915 1.363 . S
C911 H882 0.950 . S
C911 C910 1.397 . S
C911 C912 1.334 . S
C912 H883 0.950 . S
C912 C911 1.334 . S
C912 C913 1.287 . S
C913 C912 1.287 . S
C913 C914 1.524 . S
C913 H916 0.999 1_556 S
C914 H884 0.950 . S
C914 C913 1.524 . S
C914 C915 1.415 . S
C915 H885 0.950 . S
C915 C910 1.363 . S
C915 C914 1.415 . S
H916 C913 0.999 1_554 S
H917 C898 0.913 . S
H918 C936 0.951 . S
H919 C938 0.951 . S
H920 C940 0.950 . S
H921 C941 0.950 1_554 S
H922 C943 0.950 . S
H923 C946 0.950 . S
H924 C947 0.950 . S
H925 C949 0.950 . S
H926 C950 0.950 . S
H927 C951 0.951 . S
H928 C953 0.951 . S
H929 C955 0.950 . S
H930 C956 0.950 . S
H931 C958 0.950 . S
H932 C961 0.950 . S
H933 C962 0.950 . S
H934 C964 0.950 1_554 S
H935 C965 0.950 . S
C936 H918 0.951 . S
C936 C937 1.366 . S
C936 C938 1.388 . S
C937 C936 1.366 . S
C937 C941 1.385 . S
C938 H919 0.951 . S
C938 C936 1.388 . S
C938 C939 1.366 . S
C939 C938 1.366 . S
C939 C940 1.414 . S
C939 C942 1.499 . S
C940 H920 0.950 . S
C940 C939 1.414 . S
C940 C941 1.374 . S
C941 H921 0.950 1_556 S
C941 C937 1.385 . S
C941 C940 1.374 . S
C942 C939 1.499 . S
C942 C943 1.373 . S
C942 C944 1.389 . S
C943 H922 0.950 . S
C943 C942 1.373 . S
C943 C959 1.377 . S
C944 C942 1.389 . S
C944 C945 1.524 . S
C944 C958 1.377 . S
C945 C944 1.524 . S
C945 C946 1.397 . S
C945 C950 1.363 . S
C946 H923 0.950 . S
C946 C945 1.397 . S
C946 C947 1.334 . S
C947 H924 0.950 . S
C947 C946 1.334 . S
C947 C948 1.287 . S
C948 C947 1.287 . S
C948 C949 1.524 . S
C948 H967 0.913 . S
C949 H925 0.950 . S
C949 C948 1.524 . S
C949 C950 1.415 . S
C950 H926 0.950 . S
C950 C945 1.363 . S
C950 C949 1.415 . S
C951 H927 0.951 . S
C951 C952 1.366 . S
C951 C953 1.388 . S
C952 C951 1.366 . S
C952 C956 1.385 . S
C953 H928 0.951 . S
C953 C951 1.388 . S
C953 C954 1.366 . S
C954 C953 1.366 . S
C954 C955 1.414 . S
C954 C957 1.499 . S
C955 H929 0.950 . S
C955 C954 1.414 . S
C955 C956 1.374 . S
C956 H930 0.950 . S
C956 C952 1.385 . S
C956 C955 1.374 . S
C957 C954 1.499 . S
C957 C958 1.373 . S
C957 C959 1.389 . S
C958 H931 0.950 . S
C958 C944 1.377 . S
C958 C957 1.373 . S
C959 C943 1.377 . S
C959 C957 1.389 . S
C959 C960 1.524 . S
C960 C959 1.524 . S
C960 C961 1.397 . S
C960 C965 1.363 . S
C961 H932 0.950 . S
C961 C960 1.397 . S
C961 C962 1.334 . S
C962 H933 0.950 . S
C962 C961 1.334 . S
C962 C963 1.287 . S
C963 C962 1.287 . S
C963 C964 1.524 . S
C963 H966 0.999 . S
C964 H934 0.950 1_556 S
C964 C963 1.524 . S
C964 C965 1.415 . S
C965 H935 0.950 . S
C965 C960 1.363 . S
C965 C964 1.415 . S
H966 C963 0.999 . S
H967 C948 0.913 . S
H968 C986 0.951 1_554 S
H969 C988 0.951 . S
H970 C990 0.950 . S
H971 C991 0.950 . S
H972 C993 0.950 . S
H973 C996 0.950 . S
H974 C997 0.950 . S
H975 C999 0.950 1_655 S
H976 C1000 0.924 1_655 S
H977 C1001 0.951 . S
H978 C1003 0.951 . S
H979 C1005 0.950 . S
H980 C1006 0.950 1_655 S
H981 C1008 0.950 . S
H982 C1011 0.950 . S
H983 C1012 0.950 . S
H984 C1014 0.950 . S
H985 C1015 0.950 . S
C986 H968 0.951 1_556 S
C986 C987 1.366 . S
C986 C988 1.388 . S
C987 C986 1.366 . S
C987 C991 1.385 . S
C988 H969 0.951 . S
C988 C986 1.388 . S
C988 C989 1.366 . S
C989 C988 1.366 . S
C989 C990 1.414 . S
C989 C992 1.499 . S
C990 H970 0.950 . S
C990 C989 1.414 . S
C990 C991 1.374 . S
C991 H971 0.950 . S
C991 C987 1.385 . S
C991 C990 1.374 . S
C992 C989 1.499 . S
C992 C993 1.373 . S
C992 C994 1.389 . S
C993 H972 0.950 . S
C993 C992 1.373 . S
C993 C1009 1.377 . S
C994 C992 1.389 . S
C994 C995 1.524 . S
C994 C1008 1.377 . S
C995 C994 1.524 . S
C995 C996 1.397 1_556 S
C995 C1000 1.363 . S
C996 H973 0.950 . S
C996 C995 1.397 1_554 S
C996 C997 1.334 . S
C997 H974 0.950 . S
C997 C996 1.334 . S
C997 C998 1.287 . S
C998 C997 1.287 . S
C998 C999 1.524 . S
C998 H1017 0.913 . S
C999 H975 0.950 1_455 S
C999 C998 1.524 . S
C999 C1000 1.415 1_554 S
C1000 H976 0.924 1_455 S
C1000 C995 1.363 . S
C1000 C999 1.415 1_556 S
C1001 H977 0.951 . S
C1001 C1002 1.366 . S
C1001 C1003 1.388 . S
C1002 C1001 1.366 . S
C1002 C1006 1.385 . S
C1003 H978 0.951 . S
C1003 C1001 1.388 . S
C1003 C1004 1.366 . S
C1004 C1003 1.366 . S
C1004 C1005 1.414 . S
C1004 C1007 1.499 . S
C1005 H979 0.950 . S
C1005 C1004 1.414 . S
C1005 C1006 1.374 . S
C1006 H980 0.950 1_455 S
C1006 C1002 1.385 . S
C1006 C1005 1.374 . S
C1007 C1004 1.499 . S
C1007 C1008 1.373 . S
C1007 C1009 1.389 . S
C1008 H981 0.950 . S
C1008 C994 1.377 . S
C1008 C1007 1.373 . S
C1009 C993 1.377 . S
C1009 C1007 1.389 . S
C1009 C1010 1.524 . S
C1010 C1009 1.524 . S
C1010 C1011 1.397 . S
C1010 C1015 1.363 . S
C1011 H982 0.950 . S
C1011 C1010 1.397 . S
C1011 C1012 1.334 . S
C1012 H983 0.950 . S
C1012 C1011 1.334 . S
C1012 C1013 1.287 . S
C1013 C1012 1.287 . S
C1013 C1014 1.524 . S
C1013 H1016 0.999 . S
C1014 H984 0.950 . S
C1014 C1013 1.524 . S
C1014 C1015 1.415 . S
C1015 H985 0.950 . S
C1015 C1010 1.363 . S
C1015 C1014 1.415 . S
H1016 C1013 0.999 . S
H1017 C998 0.913 . S
H1018 C1036 0.951 . S
H1019 C1038 0.951 . S
H1020 C1040 0.950 1_554 S
H1021 C1041 0.950 . S
H1022 C1043 0.950 . S
H1023 C1046 0.950 . S
H1024 C1047 0.950 . S
H1025 C1049 0.950 . S
H1026 C1050 0.950 . S
H1027 C1051 0.951 . S
H1028 C1053 0.951 . S
H1029 C1055 0.950 . S
H1030 C1056 0.950 . S
H1031 C1058 0.969 . S
H1032 C1061 0.950 . S
H1033 C1062 0.950 . S
H1034 C1064 0.950 1_554 S
H1035 C1065 0.950 . S
C1036 H1018 0.951 . S
C1036 C1037 1.366 . S
C1036 C1038 1.388 . S
C1037 C1036 1.366 . S
C1037 C1041 1.385 1_556 S
C1038 H1019 0.951 . S
C1038 C1036 1.388 . S
C1038 C1039 1.366 . S
C1039 C1038 1.366 . S
C1039 C1040 1.414 . S
C1039 C1042 1.499 . S
C1040 H1020 0.950 1_556 S
C1040 C1039 1.414 . S
C1040 C1041 1.374 1_556 S
C1041 H1021 0.950 . S
C1041 C1037 1.385 1_554 S
C1041 C1040 1.374 1_554 S
C1042 C1039 1.499 . S
C1042 C1043 1.373 . S
C1042 C1044 1.360 1_545 S
C1043 H1022 0.950 . S
C1043 C1042 1.373 . S
C1043 C1059 1.377 . S
C1044 C1042 1.360 1_565 S
C1044 C1045 1.556 . S
C1044 C1058 1.378 . S
C1045 C1044 1.556 . S
C1045 C1046 1.397 . S
C1045 C1050 1.363 . S
C1046 H1023 0.950 . S
C1046 C1045 1.397 . S
C1046 C1047 1.334 . S
C1047 H1024 0.950 . S
C1047 C1046 1.334 . S
C1047 C1048 1.287 . S
C1048 C1047 1.287 . S
C1048 C1049 1.524 . S
C1048 H1067 0.913 . S
C1049 H1025 0.950 . S
C1049 C1048 1.524 . S
C1049 C1050 1.415 . S
C1050 H1026 0.950 . S
C1050 C1045 1.363 . S
C1050 C1049 1.415 . S
C1051 H1027 0.951 . S
C1051 C1052 1.366 . S
C1051 C1053 1.388 . S
C1052 C1051 1.366 . S
C1052 C1056 1.385 . S
C1053 H1028 0.951 . S
C1053 C1051 1.388 . S
C1053 C1054 1.366 . S
C1054 C1053 1.366 . S
C1054 C1055 1.414 . S
C1054 C1057 1.499 . S
C1055 H1029 0.950 . S
C1055 C1054 1.414 . S
C1055 C1056 1.374 . S
C1056 H1030 0.950 . S
C1056 C1052 1.385 . S
C1056 C1055 1.374 . S
C1057 C1054 1.499 . S
C1057 C1058 1.357 1_545 S
C1057 C1059 1.389 . S
C1058 H1031 0.969 . S
C1058 C1044 1.378 . S
C1058 C1057 1.357 1_565 S
C1059 C1043 1.377 . S
C1059 C1057 1.389 . S
C1059 C1060 1.524 . S
C1060 C1059 1.524 . S
C1060 C1061 1.397 . S
C1060 C1065 1.363 . S
C1061 H1032 0.950 . S
C1061 C1060 1.397 . S
C1061 C1062 1.334 . S
C1062 H1033 0.950 . S
C1062 C1061 1.334 . S
C1062 C1063 1.287 . S
C1063 C1062 1.287 . S
C1063 C1064 1.524 . S
C1063 H1066 0.999 . S
C1064 H1034 0.950 1_556 S
C1064 C1063 1.524 . S
C1064 C1065 1.415 . S
C1065 H1035 0.950 . S
C1065 C1060 1.363 . S
C1065 C1064 1.415 . S
H1066 C1063 0.999 . S
H1067 C1048 0.913 . S
H1068 C1086 0.951 . S
H1069 C1088 0.951 . S
H1070 C1090 0.950 . S
H1071 C1091 0.950 . S
H1072 C1093 0.950 . S
H1073 C1096 0.950 . S
H1074 C1097 0.950 . S
H1075 C1099 0.950 . S
H1076 C1100 0.950 . S
H1077 C1101 0.951 . S
H1078 C1103 0.951 . S
H1079 C1105 0.950 . S
H1080 C1106 0.950 . S
H1081 C1108 0.950 . S
H1082 C1111 0.950 . S
H1083 C1112 0.950 . S
H1084 C1114 0.950 . S
H1085 C1115 0.950 . S
C1086 H1068 0.951 . S
C1086 C1087 1.366 . S
C1086 C1088 1.388 . S
C1087 C1086 1.366 . S
C1087 C1091 1.385 . S
C1088 H1069 0.951 . S
C1088 C1086 1.388 . S
C1088 C1089 1.366 . S
C1089 C1088 1.366 . S
C1089 C1090 1.414 . S
C1089 C1092 1.499 . S
C1090 H1070 0.950 . S
C1090 C1089 1.414 . S
C1090 C1091 1.374 . S
C1091 H1071 0.950 . S
C1091 C1087 1.385 . S
C1091 C1090 1.374 . S
C1092 C1089 1.499 . S
C1092 C1093 1.373 . S
C1092 C1094 1.389 . S
C1093 H1072 0.950 . S
C1093 C1092 1.373 . S
C1093 C1109 1.377 . S
C1094 C1092 1.389 . S
C1094 C1095 1.524 . S
C1094 C1108 1.377 . S
C1095 C1094 1.524 . S
C1095 C1096 1.397 . S
C1095 C1100 1.363 . S
C1096 H1073 0.950 . S
C1096 C1095 1.397 . S
C1096 C1097 1.334 . S
C1097 H1074 0.950 . S
C1097 C1096 1.334 . S
C1097 C1098 1.287 . S
C1098 C1097 1.287 . S
C1098 C1099 1.524 . S
C1098 H1117 0.913 . S
C1099 H1075 0.950 . S
C1099 C1098 1.524 . S
C1099 C1100 1.415 . S
C1100 H1076 0.950 . S
C1100 C1095 1.363 . S
C1100 C1099 1.415 . S
C1101 H1077 0.951 . S
C1101 C1102 1.366 . S
C1101 C1103 1.388 . S
C1102 C1101 1.366 . S
C1102 C1106 1.385 . S
C1103 H1078 0.951 . S
C1103 C1101 1.388 . S
C1103 C1104 1.366 . S
C1104 C1103 1.366 . S
C1104 C1105 1.414 . S
C1104 C1107 1.499 . S
C1105 H1079 0.950 . S
C1105 C1104 1.414 . S
C1105 C1106 1.374 . S
C1106 H1080 0.950 . S
C1106 C1102 1.385 . S
C1106 C1105 1.374 . S
C1107 C1104 1.499 . S
C1107 C1108 1.373 . S
C1107 C1109 1.389 . S
C1108 H1081 0.950 . S
C1108 C1094 1.377 . S
C1108 C1107 1.373 . S
C1109 C1093 1.377 . S
C1109 C1107 1.389 . S
C1109 C1110 1.524 . S
C1110 C1109 1.524 . S
C1110 C1111 1.397 . S
C1110 C1115 1.363 . S
C1111 H1082 0.950 . S
C1111 C1110 1.397 . S
C1111 C1112 1.334 . S
C1112 H1083 0.950 . S
C1112 C1111 1.334 . S
C1112 C1113 1.287 . S
C1113 C1112 1.287 . S
C1113 C1114 1.524 . S
C1113 H1116 0.999 . S
C1114 H1084 0.950 . S
C1114 C1113 1.524 . S
C1114 C1115 1.415 . S
C1115 H1085 0.950 . S
C1115 C1110 1.363 . S
C1115 C1114 1.415 . S
H1116 C1113 0.999 . S
H1117 C1098 0.913 . S
H1118 C1136 0.951 1_554 S
H1119 C1138 0.951 . S
H1120 C1140 0.950 . S
H1121 C1141 0.950 . S
H1122 C1143 0.950 . S
H1123 C1146 0.950 . S
H1124 C1147 0.950 . S
H1125 C1149 0.950 . S
H1126 C1150 0.950 1_556 S
H1127 C1151 0.951 . S
H1128 C1153 0.951 . S
H1129 C1155 0.950 . S
H1130 C1156 0.950 . S
H1131 C1158 0.950 . S
H1132 C1161 0.950 . S
H1133 C1162 0.950 . S
H1134 C1164 0.950 . S
H1135 C1165 0.950 . S
C1136 H1118 0.951 1_556 S
C1136 C1137 1.366 . S
C1136 C1138 1.388 . S
C1137 C1136 1.366 . S
C1137 C1141 1.385 . S
C1138 H1119 0.951 . S
C1138 C1136 1.388 . S
C1138 C1139 1.366 . S
C1139 C1138 1.366 . S
C1139 C1140 1.414 . S
C1139 C1142 1.499 . S
C1140 H1120 0.950 . S
C1140 C1139 1.414 . S
C1140 C1141 1.374 . S
C1141 H1121 0.950 . S
C1141 C1137 1.385 . S
C1141 C1140 1.374 . S
C1142 C1139 1.499 . S
C1142 C1143 1.373 . S
C1142 C1144 1.389 . S
C1143 H1122 0.950 . S
C1143 C1142 1.373 . S
C1143 C1159 1.377 . S
C1144 C1142 1.389 . S
C1144 C1145 1.524 . S
C1144 C1158 1.377 . S
C1145 C1144 1.524 . S
C1145 C1146 1.397 . S
C1145 C1150 1.363 1_556 S
C1146 H1123 0.950 . S
C1146 C1145 1.397 . S
C1146 C1147 1.334 1_556 S
C1147 H1124 0.950 . S
C1147 C1146 1.334 1_554 S
C1147 C1148 1.287 . S
C1148 C1147 1.287 . S
C1148 C1149 1.524 . S
C1148 H1167 0.913 . S
C1149 H1125 0.950 . S
C1149 C1148 1.524 . S
C1149 C1150 1.415 . S
C1150 H1126 0.950 1_554 S
C1150 C1145 1.363 1_554 S
C1150 C1149 1.415 . S
C1151 H1127 0.951 . S
C1151 C1152 1.366 . S
C1151 C1153 1.388 . S
C1152 C1151 1.366 . S
C1152 C1156 1.385 . S
C1153 H1128 0.951 . S
C1153 C1151 1.388 . S
C1153 C1154 1.366 . S
C1154 C1153 1.366 . S
C1154 C1155 1.414 . S
C1154 C1157 1.499 . S
C1155 H1129 0.950 . S
C1155 C1154 1.414 . S
C1155 C1156 1.374 . S
C1156 H1130 0.950 . S
C1156 C1152 1.385 . S
C1156 C1155 1.374 . S
C1157 C1154 1.499 . S
C1157 C1158 1.373 . S
C1157 C1159 1.389 . S
C1158 H1131 0.950 . S
C1158 C1144 1.377 . S
C1158 C1157 1.373 . S
C1159 C1143 1.377 . S
C1159 C1157 1.389 . S
C1159 C1160 1.524 . S
C1160 C1159 1.524 . S
C1160 C1161 1.397 . S
C1160 C1165 1.363 . S
C1161 H1132 0.950 . S
C1161 C1160 1.397 . S
C1161 C1162 1.334 . S
C1162 H1133 0.950 . S
C1162 C1161 1.334 . S
C1162 C1163 1.287 . S
C1163 C1162 1.287 . S
C1163 C1164 1.524 . S
C1163 H1166 0.999 . S
C1164 H1134 0.950 . S
C1164 C1163 1.524 . S
C1164 C1165 1.415 . S
C1165 H1135 0.950 . S
C1165 C1160 1.363 . S
C1165 C1164 1.415 . S
H1166 C1163 0.999 . S
H1167 C1148 0.913 . S
H1168 C1186 0.951 . S
H1169 C1188 0.951 . S
H1170 C1190 0.950 . S
H1171 C1191 0.950 . S
H1172 C1193 0.950 . S
H1173 C1196 0.950 . S
H1174 C1197 0.950 . S
H1175 C1199 0.950 . S
H1176 C1200 0.950 . S
H1177 C1201 0.951 . S
H1178 C1203 0.951 . S
H1179 C1205 0.943 1_455 S
H1180 C1206 0.950 . S
H1181 C1208 0.950 . S
H1182 C1211 0.950 . S
H1183 C1212 0.950 . S
H1184 C1214 0.950 . S
H1185 C1215 0.950 . S
C1186 H1168 0.951 . S
C1186 C1187 1.366 . S
C1186 C1188 1.388 . S
C1187 C1186 1.366 . S
C1187 C1191 1.385 . S
C1188 H1169 0.951 . S
C1188 C1186 1.388 . S
C1188 C1189 1.366 . S
C1189 C1188 1.366 . S
C1189 C1190 1.414 . S
C1189 C1192 1.499 . S
C1190 H1170 0.950 . S
C1190 C1189 1.414 . S
C1190 C1191 1.374 . S
C1191 H1171 0.950 . S
C1191 C1187 1.385 . S
C1191 C1190 1.374 . S
C1192 C1189 1.499 . S
C1192 C1193 1.373 . S
C1192 C1194 1.389 . S
C1193 H1172 0.950 . S
C1193 C1192 1.373 . S
C1193 C1209 1.377 . S
C1194 C1192 1.389 . S
C1194 C1195 1.524 . S
C1194 C1208 1.377 . S
C1195 C1194 1.524 . S
C1195 C1196 1.397 . S
C1195 C1200 1.363 . S
C1196 H1173 0.950 . S
C1196 C1195 1.397 . S
C1196 C1197 1.334 . S
C1197 H1174 0.950 . S
C1197 C1196 1.334 . S
C1197 C1198 1.287 . S
C1198 C1197 1.287 . S
C1198 C1199 1.524 . S
C1198 H1217 0.913 . S
C1199 H1175 0.950 . S
C1199 C1198 1.524 . S
C1199 C1200 1.415 . S
C1200 H1176 0.950 . S
C1200 C1195 1.363 . S
C1200 C1199 1.415 . S
C1201 H1177 0.951 . S
C1201 C1202 1.366 . S
C1201 C1203 1.388 . S
C1202 C1201 1.366 . S
C1202 C1206 1.385 1_655 S
C1203 H1178 0.951 . S
C1203 C1201 1.388 . S
C1203 C1204 1.366 . S
C1204 C1203 1.366 . S
C1204 C1205 1.422 . S
C1204 C1207 1.499 . S
C1205 H1179 0.943 1_655 S
C1205 C1204 1.422 . S
C1205 C1206 1.373 1_655 S
C1206 H1180 0.950 . S
C1206 C1202 1.385 1_455 S
C1206 C1205 1.373 1_455 S
C1207 C1204 1.499 . S
C1207 C1208 1.373 . S
C1207 C1209 1.389 . S
C1208 H1181 0.950 . S
C1208 C1194 1.377 . S
C1208 C1207 1.373 . S
C1209 C1193 1.377 . S
C1209 C1207 1.389 . S
C1209 C1210 1.524 . S
C1210 C1209 1.524 . S
C1210 C1211 1.397 1_655 S
C1210 C1215 1.363 . S
C1211 H1182 0.950 . S
C1211 C1210 1.397 1_455 S
C1211 C1212 1.334 . S
C1212 H1183 0.950 . S
C1212 C1211 1.334 . S
C1212 C1213 1.287 1_455 S
C1213 C1212 1.287 1_655 S
C1213 C1214 1.524 . S
C1213 H1216 1.000 . S
C1214 H1184 0.950 . S
C1214 C1213 1.524 . S
C1214 C1215 1.415 . S
C1215 H1185 0.950 . S
C1215 C1210 1.363 . S
C1215 C1214 1.415 . S
H1216 C1213 1.000 . S
H1217 C1198 0.913 . S
H1218 C1236 0.980 . S
H1219 C1238 0.951 . S
H1220 C1240 0.950 . S
H1221 C1241 0.950 . S
H1222 C1243 0.950 . S
H1223 C1246 0.950 . S
H1224 C1247 0.950 . S
H1225 C1249 0.950 . S
H1226 C1250 0.950 . S
H1227 C1251 0.951 . S
H1228 C1253 0.951 . S
H1229 C1255 0.950 . S
H1230 C1256 0.950 . S
H1231 C1258 0.950 . S
H1232 C1261 0.950 . S
H1233 C1262 0.950 . S
H1234 C1264 0.950 . S
H1235 C1265 0.950 . S
C1236 H1218 0.980 . S
C1236 C1237 1.332 1_545 S
C1236 C1238 1.395 . S
C1237 C1236 1.332 1_565 S
C1237 C1241 1.385 . S
C1238 H1219 0.951 . S
C1238 C1236 1.395 . S
C1238 C1239 1.366 1_545 S
C1239 C1238 1.366 1_565 S
C1239 C1240 1.414 . S
C1239 C1242 1.499 . S
C1240 H1220 0.950 . S
C1240 C1239 1.414 . S
C1240 C1241 1.374 . S
C1241 H1221 0.950 . S
C1241 C1237 1.385 . S
C1241 C1240 1.374 . S
C1242 C1239 1.499 . S
C1242 C1243 1.373 . S
C1242 C1244 1.389 1_565 S
C1243 H1222 0.950 . S
C1243 C1242 1.373 . S
C1243 C1259 1.377 . S
C1244 C1242 1.389 1_545 S
C1244 C1245 1.524 . S
C1244 C1258 1.377 . S
C1245 C1244 1.524 . S
C1245 C1246 1.397 . S
C1245 C1250 1.363 . S
C1246 H1223 0.950 . S
C1246 C1245 1.397 . S
C1246 C1247 1.334 . S
C1247 H1224 0.950 . S
C1247 C1246 1.334 . S
C1247 C1248 1.287 . S
C1248 C1247 1.287 . S
C1248 C1249 1.524 . S
C1248 H1267 0.913 . S
C1249 H1225 0.950 . S
C1249 C1248 1.524 . S
C1249 C1250 1.415 . S
C1250 H1226 0.950 . S
C1250 C1245 1.363 . S
C1250 C1249 1.415 . S
C1251 H1227 0.951 . S
C1251 C1252 1.366 . S
C1251 C1253 1.388 . S
C1252 C1251 1.366 . S
C1252 C1256 1.385 1_565 S
C1253 H1228 0.951 . S
C1253 C1251 1.388 . S
C1253 C1254 1.366 . S
C1254 C1253 1.366 . S
C1254 C1255 1.414 1_565 S
C1254 C1257 1.499 . S
C1255 H1229 0.950 . S
C1255 C1254 1.414 1_545 S
C1255 C1256 1.374 . S
C1256 H1230 0.950 . S
C1256 C1252 1.385 1_545 S
C1256 C1255 1.374 . S
C1257 C1254 1.499 . S
C1257 C1258 1.373 1_565 S
C1257 C1259 1.389 . S
C1258 H1231 0.950 . S
C1258 C1244 1.377 . S
C1258 C1257 1.373 1_545 S
C1259 C1243 1.377 . S
C1259 C1257 1.389 . S
C1259 C1260 1.524 . S
C1260 C1259 1.524 . S
C1260 C1261 1.397 . S
C1260 C1265 1.363 . S
C1261 H1232 0.950 . S
C1261 C1260 1.397 . S
C1261 C1262 1.334 . S
C1262 H1233 0.950 . S
C1262 C1261 1.334 . S
C1262 C1263 1.287 . S
C1263 C1262 1.287 . S
C1263 C1264 1.524 . S
C1263 H1266 0.999 . S
C1264 H1234 0.950 . S
C1264 C1263 1.524 . S
C1264 C1265 1.415 . S
C1265 H1235 0.950 . S
C1265 C1260 1.363 . S
C1265 C1264 1.415 . S
H1266 C1263 0.999 . S
H1267 C1248 0.913 . S
H1268 C1286 0.951 . S
H1269 C1288 0.951 . S
H1270 C1290 0.950 . S
H1271 C1291 0.950 . S
H1272 C1293 0.950 . S
H1273 C1296 0.950 . S
H1274 C1297 0.950 . S
H1275 C1299 0.950 . S
H1276 C1300 0.950 . S
H1277 C1301 0.951 . S
H1278 C1303 0.951 . S
H1279 C1305 0.950 . S
H1280 C1306 0.950 . S
H1281 C1308 0.950 . S
H1282 C1311 0.950 . S
H1283 C1312 0.950 . S
H1284 C1314 0.950 . S
H1285 C1315 0.950 . S
C1286 H1268 0.951 . S
C1286 C1287 1.366 . S
C1286 C1288 1.388 . S
C1287 C1286 1.366 . S
C1287 C1291 1.385 . S
C1288 H1269 0.951 . S
C1288 C1286 1.388 . S
C1288 C1289 1.366 . S
C1289 C1288 1.366 . S
C1289 C1290 1.414 . S
C1289 C1292 1.499 . S
C1290 H1270 0.950 . S
C1290 C1289 1.414 . S
C1290 C1291 1.374 . S
C1291 H1271 0.950 . S
C1291 C1287 1.385 . S
C1291 C1290 1.374 . S
C1292 C1289 1.499 . S
C1292 C1293 1.373 . S
C1292 C1294 1.389 . S
C1293 H1272 0.950 . S
C1293 C1292 1.373 . S
C1293 C1309 1.377 . S
C1294 C1292 1.389 . S
C1294 C1295 1.524 . S
C1294 C1308 1.377 . S
C1295 C1294 1.524 . S
C1295 C1296 1.397 . S
C1295 C1300 1.363 . S
C1296 H1273 0.950 . S
C1296 C1295 1.397 . S
C1296 C1297 1.334 . S
C1297 H1274 0.950 . S
C1297 C1296 1.334 . S
C1297 C1298 1.287 . S
C1298 C1297 1.287 . S
C1298 C1299 1.524 . S
C1298 H1317 0.913 . S
C1299 H1275 0.950 . S
C1299 C1298 1.524 . S
C1299 C1300 1.415 . S
C1300 H1276 0.950 . S
C1300 C1295 1.363 . S
C1300 C1299 1.415 . S
C1301 H1277 0.951 . S
C1301 C1302 1.366 . S
C1301 C1303 1.388 . S
C1302 C1301 1.366 . S
C1302 C1306 1.385 . S
C1303 H1278 0.951 . S
C1303 C1301 1.388 . S
C1303 C1304 1.366 . S
C1304 C1303 1.366 . S
C1304 C1305 1.414 . S
C1304 C1307 1.499 . S
C1305 H1279 0.950 . S
C1305 C1304 1.414 . S
C1305 C1306 1.374 . S
C1306 H1280 0.950 . S
C1306 C1302 1.385 . S
C1306 C1305 1.374 . S
C1307 C1304 1.499 . S
C1307 C1308 1.373 . S
C1307 C1309 1.389 . S
C1308 H1281 0.950 . S
C1308 C1294 1.377 . S
C1308 C1307 1.373 . S
C1309 C1293 1.377 . S
C1309 C1307 1.389 . S
C1309 C1310 1.524 . S
C1310 C1309 1.524 . S
C1310 C1311 1.397 . S
C1310 C1315 1.363 . S
C1311 H1282 0.950 . S
C1311 C1310 1.397 . S
C1311 C1312 1.334 . S
C1312 H1283 0.950 . S
C1312 C1311 1.334 . S
C1312 C1313 1.287 . S
C1313 C1312 1.287 . S
C1313 C1314 1.524 . S
C1313 H1316 0.999 . S
C1314 H1284 0.950 . S
C1314 C1313 1.524 . S
C1314 C1315 1.415 . S
C1315 H1285 0.950 . S
C1315 C1310 1.363 . S
C1315 C1314 1.415 . S
H1316 C1313 0.999 . S
H1317 C1298 0.913 . S
H1318 C1336 0.951 . S
H1319 C1338 0.951 . S
H1320 C1340 0.950 . S
H1321 C1341 0.950 . S
H1322 C1343 0.950 . S
H1323 C1346 0.950 . S
H1324 C1347 0.950 . S
H1325 C1349 0.950 . S
H1326 C1350 0.950 . S
H1327 C1351 0.951 . S
H1328 C1353 0.951 . S
H1329 C1355 0.950 . S
H1330 C1356 0.950 . S
H1331 C1358 0.950 . S
H1332 C1361 0.950 . S
H1333 C1362 0.950 . S
H1334 C1364 0.950 . S
H1335 C1365 0.950 . S
C1336 H1318 0.951 . S
C1336 C1337 1.366 . S
C1336 C1338 1.388 . S
C1337 C1336 1.366 . S
C1337 C1341 1.385 . S
C1338 H1319 0.951 . S
C1338 C1336 1.388 . S
C1338 C1339 1.366 . S
C1339 C1338 1.366 . S
C1339 C1340 1.414 . S
C1339 C1342 1.499 . S
C1340 H1320 0.950 . S
C1340 C1339 1.414 . S
C1340 C1341 1.374 . S
C1341 H1321 0.950 . S
C1341 C1337 1.385 . S
C1341 C1340 1.374 . S
C1342 C1339 1.499 . S
C1342 C1343 1.373 . S
C1342 C1344 1.389 . S
C1343 H1322 0.950 . S
C1343 C1342 1.373 . S
C1343 C1359 1.377 . S
C1344 C1342 1.389 . S
C1344 C1345 1.524 . S
C1344 C1358 1.377 . S
C1345 C1344 1.524 . S
C1345 C1346 1.397 . S
C1345 C1350 1.363 . S
C1346 H1323 0.950 . S
C1346 C1345 1.397 . S
C1346 C1347 1.334 . S
C1347 H1324 0.950 . S
C1347 C1346 1.334 . S
C1347 C1348 1.287 . S
C1348 C1347 1.287 . S
C1348 C1349 1.524 . S
C1348 H1367 0.913 . S
C1349 H1325 0.950 . S
C1349 C1348 1.524 . S
C1349 C1350 1.415 . S
C1350 H1326 0.950 . S
C1350 C1345 1.363 . S
C1350 C1349 1.415 . S
C1351 H1327 0.951 . S
C1351 C1352 1.366 . S
C1351 C1353 1.388 . S
C1352 C1351 1.366 . S
C1352 C1356 1.385 . S
C1353 H1328 0.951 . S
C1353 C1351 1.388 . S
C1353 C1354 1.366 . S
C1354 C1353 1.366 . S
C1354 C1355 1.414 . S
C1354 C1357 1.499 . S
C1355 H1329 0.950 . S
C1355 C1354 1.414 . S
C1355 C1356 1.374 . S
C1356 H1330 0.950 . S
C1356 C1352 1.385 . S
C1356 C1355 1.374 . S
C1357 C1354 1.499 . S
C1357 C1358 1.373 . S
C1357 C1359 1.389 . S
C1358 H1331 0.950 . S
C1358 C1344 1.377 . S
C1358 C1357 1.373 . S
C1359 C1343 1.377 . S
C1359 C1357 1.389 . S
C1359 C1360 1.524 . S
C1360 C1359 1.524 . S
C1360 C1361 1.397 . S
C1360 C1365 1.363 . S
C1361 H1332 0.950 . S
C1361 C1360 1.397 . S
C1361 C1362 1.334 . S
C1362 H1333 0.950 . S
C1362 C1361 1.334 . S
C1362 C1363 1.287 . S
C1363 C1362 1.287 . S
C1363 C1364 1.524 . S
C1363 H1366 0.999 . S
C1364 H1334 0.950 . S
C1364 C1363 1.524 . S
C1364 C1365 1.415 . S
C1365 H1335 0.950 . S
C1365 C1360 1.363 . S
C1365 C1364 1.415 . S
H1366 C1363 0.999 . S
H1367 C1348 0.913 . S
C187 C74 1.559 . S
C202 C96 1.566 1_545 S
C252 C126 1.938 . S
C237 C85 1.926 . S
C302 C136 1.417 . S
C287 C52 1.388 . S
C352 C156 1.301 . S
C337 C63 1.292 . S
C402 C97 1.567 . S
C387 C30 1.547 . S
C437 C41 1.865 1_556 S
C452 C127 1.938 . S
C487 C8 1.411 . S
C502 C137 1.417 . S
C537 C19 1.261 . S
C552 C157 1.301 1_655 S
C602 C89 0.716 . S
C587 C62 0.715 . S
C652 C110 0.274 . S
C637 C73 0.254 . S
C702 C129 1.019 . S
C687 C84 1.025 . S
C737 C51 0.612 . S
C752 C149 0.602 . S
C787 C18 0.721 . S
C802 C90 0.717 . S
C852 C109 0.272 . S
C837 C29 0.354 . S
C902 C130 1.020 . S
C887 C40 0.973 1_556 S
C937 C7 0.602 . S
C952 C150 0.603 . S
C987 C60 1.440 1_556 S
C1002 C107 1.669 . S
C1037 C71 1.060 1_556 S
C1052 C117 1.282 . S
C1102 C147 1.872 . S
C1087 C82 1.647 . S
C1152 C167 1.812 . S
C1137 C49 1.419 1_556 S
C1187 C16 1.295 . S
C1202 C106 1.683 . S
C1252 C116 1.282 . S
C1237 C27 1.033 . S
C1302 C146 1.872 . S
C1287 C38 1.402 . S
C1337 C5 1.571 . S
C1352 C166 1.812 . S
