# Generated by pormake.
# Topology zzz, (3,6)-cn, num edge types: 1
# Building blocks:
#     Node 0, Type 0, BuildingBlock: WUSLED_clean_sbu_0, # of connection points: 3
#     Node 1, Type 0, BuildingBlock: WUSLED_clean_sbu_0, # of connection points: 3
#     Node 2, Type 0, BuildingBlock: WUSLED_clean_sbu_0, # of connection points: 3
#     Node 3, Type 0, BuildingBlock: WUSLED_clean_sbu_0, # of connection points: 3
#     Node 4, Type 0, BuildingBlock: WUSLED_clean_sbu_0, # of connection points: 3
#     Node 5, Type 0, BuildingBlock: WUSLED_clean_sbu_0, # of connection points: 3
#     Node 6, Type 0, BuildingBlock: WUSLED_clean_sbu_0, # of connection points: 3
#     Node 7, Type 0, BuildingBlock: WUSLED_clean_sbu_0, # of connection points: 3
#     Node 8, Type 1, BuildingBlock: BETFEN_clean_sbu_0, # of connection points: 6
#     Node 9, Type 1, BuildingBlock: BETFEN_clean_sbu_0, # of connection points: 6
#     Node 10, Type 1, BuildingBlock: BETFEN_clean_sbu_0, # of connection points: 6
#     Node 11, Type 1, BuildingBlock: BETFEN_clean_sbu_0, # of connection points: 6
#     Edge 12, Type (0, 1), BuildingBlock: AJUNOK_clean_linker_0, # of connection points: 2
#     Edge 13, Type (0, 1), BuildingBlock: AJUNOK_clean_linker_0, # of connection points: 2
#     Edge 14, Type (0, 1), BuildingBlock: AJUNOK_clean_linker_0, # of connection points: 2
#     Edge 15, Type (0, 1), BuildingBlock: AJUNOK_clean_linker_0, # of connection points: 2
#     Edge 16, Type (0, 1), BuildingBlock: AJUNOK_clean_linker_0, # of connection points: 2
#     Edge 17, Type (0, 1), BuildingBlock: AJUNOK_clean_linker_0, # of connection points: 2
#     Edge 18, Type (0, 1), BuildingBlock: AJUNOK_clean_linker_0, # of connection points: 2
#     Edge 19, Type (0, 1), BuildingBlock: AJUNOK_clean_linker_0, # of connection points: 2
#     Edge 20, Type (0, 1), BuildingBlock: AJUNOK_clean_linker_0, # of connection points: 2
#     Edge 21, Type (0, 1), BuildingBlock: AJUNOK_clean_linker_0, # of connection points: 2
#     Edge 22, Type (0, 1), BuildingBlock: AJUNOK_clean_linker_0, # of connection points: 2
#     Edge 23, Type (0, 1), BuildingBlock: AJUNOK_clean_linker_0, # of connection points: 2
#     Edge 24, Type (0, 1), BuildingBlock: AJUNOK_clean_linker_0, # of connection points: 2
#     Edge 25, Type (0, 1), BuildingBlock: AJUNOK_clean_linker_0, # of connection points: 2
#     Edge 26, Type (0, 1), BuildingBlock: AJUNOK_clean_linker_0, # of connection points: 2
#     Edge 27, Type (0, 1), BuildingBlock: AJUNOK_clean_linker_0, # of connection points: 2
#     Edge 28, Type (0, 1), BuildingBlock: AJUNOK_clean_linker_0, # of connection points: 2
#     Edge 29, Type (0, 1), BuildingBlock: AJUNOK_clean_linker_0, # of connection points: 2
#     Edge 30, Type (0, 1), BuildingBlock: AJUNOK_clean_linker_0, # of connection points: 2
#     Edge 31, Type (0, 1), BuildingBlock: AJUNOK_clean_linker_0, # of connection points: 2
#     Edge 32, Type (0, 1), BuildingBlock: AJUNOK_clean_linker_0, # of connection points: 2
#     Edge 33, Type (0, 1), BuildingBlock: AJUNOK_clean_linker_0, # of connection points: 2
#     Edge 34, Type (0, 1), BuildingBlock: AJUNOK_clean_linker_0, # of connection points: 2
#     Edge 35, Type (0, 1), BuildingBlock: AJUNOK_clean_linker_0, # of connection points: 2
# Relax obj value: 0.462
# Max RMSD: 0.260
# Mean RMSD: 0.249
data_MOF--net-zzz--node1-WUSLED_clean_sbu_0--node2-BETFEN_clean_sbu_0--edge1-AJUNOK_clean_linker_0
_symmetry_space_group_name_H-M    P1
_symmetry_Int_Tables_number       1
_symmetry_cell_setting            triclinic
loop_
_symmetry_equiv_pos_as_xyz
'x, y, z'
_cell_length_a     50.355854
_cell_length_b     50.447735
_cell_length_c     15.576547
_cell_angle_alpha  89.861816
_cell_angle_beta   89.814243
_cell_angle_gamma 89.986485
loop_
_atom_site_label
_atom_site_type_symbol
_atom_site_fract_x
_atom_site_fract_y
_atom_site_fract_z
_atom_type_partial_charge
C0 C 0.79562 0.53074 0.54802 0.0
C1 C 0.80994 0.50729 0.53117 0.0
C2 C 0.84997 0.52537 0.59908 0.0
C3 C 0.83667 0.50467 0.55625 0.0
C4 C 0.83549 0.54863 0.61693 0.0
C5 C 0.80879 0.55127 0.59168 0.0
U6 U 0.73953 0.53258 0.37832 0.0
O7 O 0.7054 0.5595 0.36223 0.0
O8 O 0.6985 0.51702 0.38016 0.0
C9 C 0.68796 0.54009 0.36034 0.0
C10 C 0.76704 0.53405 0.52249 0.0
C11 C 0.66926 0.54023 0.28639 0.0
C12 C 0.62381 0.53961 0.23143 0.0
C13 C 0.64171 0.539 0.30062 0.0
C14 C 0.66072 0.54246 0.13221 0.0
C15 C 0.63303 0.54168 0.14615 0.0
C16 C 0.67858 0.54176 0.20137 0.0
C17 C 0.79694 0.51692 0.23802 0.0
C18 C 0.83441 0.49738 0.16462 0.0
C19 C 0.84001 0.5157 0.30732 0.0
C20 C 0.81327 0.52279 0.30831 0.0
C21 C 0.85081 0.50291 0.23543 0.0
C22 C 0.80759 0.50426 0.1661 0.0
C23 C 0.76849 0.52222 0.24331 0.0
O24 O 0.7612 0.55531 0.47726 0.0
O25 O 0.75436 0.51286 0.4955 0.0
O26 O 0.76225 0.54649 0.26635 0.0
O27 O 0.75504 0.50391 0.28489 0.0
H28 H 0.80056 0.49093 0.49816 0.0
H29 H 0.84684 0.48622 0.54277 0.0
H30 H 0.84495 0.56504 0.64947 0.0
H31 H 0.79839 0.56952 0.60631 0.0
H32 H 0.6027 0.53891 0.24481 0.0
H33 H 0.63398 0.53776 0.36548 0.0
H34 H 0.66863 0.54336 0.06755 0.0
H35 H 0.69973 0.54246 0.18843 0.0
H36 H 0.84238 0.48781 0.10794 0.0
H37 H 0.8521 0.51992 0.36302 0.0
H38 H 0.80519 0.53255 0.36436 0.0
H39 H 0.79515 0.49947 0.11168 0.0
C40 C 1.01197 0.79445 0.54091 0.0
C41 C 0.03139 0.81065 0.50215 0.0
C42 C 1.01802 0.84862 0.59065 0.0
C43 C 0.03426 0.83739 0.52631 0.0
C44 C 0.99908 0.83215 0.63074 0.0
C45 C 0.99602 0.80553 0.60585 0.0
U46 U 1.01107 0.73792 0.37284 0.0
O47 O 0.98281 0.70502 0.3535 0.0
O48 O 0.02449 0.69632 0.38127 0.0
C49 C 1.00151 0.6868 0.35565 0.0
C50 C 1.00802 0.76614 0.51537 0.0
C51 C 1.00203 0.66729 0.28298 0.0
C52 C 0.02605 0.63664 0.18861 0.0
C53 C 0.02582 0.65499 0.25649 0.0
C54 C 0.97866 0.64188 0.17266 0.0
C55 C 1.00246 0.62981 0.14548 0.0
C56 C 0.97842 0.6602 0.24053 0.0
C57 C 0.03314 0.79265 0.22697 0.0
C58 C 0.06229 0.82534 0.16333 0.0
C59 C 0.03221 0.83806 0.27804 0.0
C60 C 1.02268 0.81212 0.28185 0.0
C61 C 0.05237 0.84475 0.21959 0.0
C62 C 0.0528 0.79943 0.16731 0.0
C63 C 0.02563 0.76484 0.23733 0.0
O64 O 0.98747 0.76119 0.46605 0.0
O65 O 0.02927 0.75272 0.49228 0.0
O66 O 0.04234 0.75097 0.28382 0.0
O67 O 1.00058 0.76048 0.25699 0.0
H68 H 0.0443 0.80268 0.45281 0.0
H69 H 0.04936 0.84927 0.49486 0.0
H70 H 0.98619 0.84004 0.68028 0.0
H71 H 0.981 0.79355 0.63733 0.0
H72 H 0.04487 0.62822 0.16882 0.0
H73 H 0.04441 0.65966 0.28777 0.0
H74 H 0.96006 0.63702 0.14167 0.0
H75 H 0.95964 0.66886 0.25971 0.0
H76 H 0.07725 0.83027 0.11578 0.0
H77 H 0.02409 0.85279 0.32131 0.0
H78 H 1.00754 0.80715 0.32877 0.0
H79 H 0.06109 0.7846 0.12474 0.0
C80 C 0.74851 1.00986 0.54212 0.0
C81 C 0.73551 0.03449 0.5332 0.0
C82 C 0.6942 1.01628 0.59325 0.0
C83 C 0.70874 0.03758 0.55786 0.0
C84 C 0.7074 0.99187 0.60381 0.0
C85 C 0.73406 0.9887 0.57835 0.0
U86 U 0.80614 1.01147 0.37544 0.0
O87 O 0.838 0.98234 0.35034 0.0
O88 O 0.84829 1.02299 0.38646 0.0
C89 C 0.85698 1.00011 0.35714 0.0
C90 C 0.77698 1.0058 0.5159 0.0
C91 C 0.87684 1.00083 0.28549 0.0
C92 C 0.91091 0.97814 0.20068 0.0
C93 C 0.89232 0.97825 0.26818 0.0
C94 C 0.89951 0.02348 0.16683 0.0
C95 C 0.91461 1.00066 0.14835 0.0
C96 C 0.88079 0.02355 0.23419 0.0
C97 C 0.75193 0.037 0.23789 0.0
C98 C 0.71548 0.05746 0.16229 0.0
C99 C 0.70834 0.03876 0.30418 0.0
C100 C 0.73491 0.03123 0.30681 0.0
C101 C 0.69829 0.05168 0.23141 0.0
C102 C 0.74221 0.05026 0.16574 0.0
C103 C 0.77988 0.02965 0.24359 0.0
O104 O 0.78169 0.98641 0.46165 0.0
O105 O 0.79131 0.02703 0.49917 0.0
O106 O 0.78405 1.00423 0.25649 0.0
O107 O 0.79391 0.04496 0.29429 0.0
H108 H 0.74593 0.05135 0.50622 0.0
H109 H 0.69948 0.0568 0.54994 0.0
H110 H 0.69694 0.97501 0.63065 0.0
H111 H 0.74344 0.96956 0.58695 0.0
H112 H 0.92253 0.96039 0.18973 0.0
H113 H 0.88998 0.96054 0.30694 0.0
H114 H 0.90178 0.04117 0.12794 0.0
H115 H 0.86928 0.04134 0.24557 0.0
H116 H 0.70813 0.06712 0.1049 0.0
H117 H 0.6957 0.0344 0.35877 0.0
H118 H 0.74228 1.02076 0.36242 0.0
H119 H 0.75519 0.05485 0.11212 0.0
C120 C 0.52133 0.75097 0.55102 0.0
C121 C 0.5056 0.73201 0.50858 0.0
C122 C 0.52046 0.69694 0.60663 0.0
C123 C 0.50534 0.70537 0.53562 0.0
C124 C 0.53606 0.71596 0.64923 0.0
C125 C 0.53648 0.74256 0.62177 0.0
U126 U 0.52902 0.80612 0.3794 0.0
O127 O 0.54953 0.84485 0.38062 0.0
O128 O 0.5065 0.84323 0.36232 0.0
C129 C 0.52789 0.85815 0.36101 0.0
C130 C 0.52194 0.7795 0.52392 0.0
C131 C 0.53001 0.87696 0.28756 0.0
C132 C 0.5314 0.92245 0.23338 0.0
C133 C 0.52998 0.90442 0.30224 0.0
C134 C 0.53291 0.88584 0.13361 0.0
C135 C 0.53271 0.91346 0.14779 0.0
C136 C 0.53155 0.86784 0.20254 0.0
C137 C 0.53511 0.74715 0.23771 0.0
C138 C 0.52056 0.70893 0.15746 0.0
C139 C 0.53064 0.70448 0.30896 0.0
C140 C 0.53763 0.73126 0.31143 0.0
C141 C 0.52121 0.69334 0.23251 0.0
C142 C 0.52731 0.73571 0.16021 0.0
C143 C 0.53603 0.77602 0.24505 0.0
O144 O 0.5451 0.78898 0.49944 0.0
O145 O 0.50232 0.78795 0.47544 0.0
O146 O 0.513 0.78656 0.2652 0.0
O147 O 0.55591 0.78566 0.28972 0.0
H148 H 0.49364 0.73768 0.45389 0.0
H149 H 0.49312 0.69133 0.50114 0.0
H150 H 0.54833 0.71021 0.7031 0.0
H151 H 0.54875 0.75662 0.65598 0.0
H152 H 0.5318 0.94346 0.24746 0.0
H153 H 0.52885 0.91199 0.3672 0.0
H154 H 0.53373 0.87809 0.06887 0.0
H155 H 0.53153 0.84676 0.18942 0.0
H156 H 0.51379 0.70064 0.09727 0.0
H157 H 0.53125 0.69296 0.36764 0.0
H158 H 0.5436 0.73991 0.37189 0.0
H159 H 0.52514 0.74774 0.10294 0.0
C160 C 0.24088 0.51269 0.95864 0.0
C161 C 0.22031 0.52191 1.01194 0.0
C162 C 0.1884 0.51957 0.89331 0.0
C163 C 0.1945 0.52541 0.97959 0.0
C164 C 0.20919 0.5106 0.83998 0.0
C165 C 0.23506 0.50733 0.87219 0.0
U166 U 0.29962 0.52309 0.117 0.0
O167 O 0.34312 0.52236 0.09779 0.0
O168 O 0.32406 0.49202 0.17771 0.0
C169 C 0.34657 0.50248 0.15156 0.0
C170 C 0.26795 0.50691 0.99262 0.0
C171 C 0.36748 0.50528 0.21855 0.0
C172 C 0.39839 0.484 0.31779 0.0
C173 C 0.37917 0.48233 0.25303 0.0
C174 C 0.39515 0.5318 0.31448 0.0
C175 C 0.40666 0.50873 0.34972 0.0
C176 C 0.37575 0.5301 0.24977 0.0
C177 C 0.25545 0.5745 0.22138 0.0
C178 C 0.21946 0.59021 0.31115 0.0
C179 C 0.21305 0.5861 0.15755 0.0
C180 C 0.23932 0.57753 0.14861 0.0
C181 C 0.20262 0.59157 0.23943 0.0
C182 C 0.24565 0.58171 0.30213 0.0
C183 C 0.28092 0.56054 0.21636 0.0
O184 O 0.28618 0.5253 0.98188 0.0
O185 O 0.26905 0.49572 0.06883 0.0
O186 O 0.27941 0.53522 0.23553 0.0
O187 O 0.29567 0.56544 0.14832 0.0
H188 H 0.22403 0.52593 0.07908 0.0
H189 H 0.17916 0.53242 0.02259 0.0
H190 H 0.20534 0.5052 0.77398 0.0
H191 H 0.25045 0.49989 0.82984 0.0
H192 H 0.40684 0.46585 0.34299 0.0
H193 H 0.37324 0.46295 0.23021 0.0
H194 H 0.40063 0.55116 0.33847 0.0
H195 H 0.36702 0.54818 0.225 0.0
H196 H 0.21193 0.59408 0.37513 0.0
H197 H 0.20061 0.58735 0.1011 0.0
H198 H 0.2466 0.57205 0.08559 0.0
H199 H 0.25781 0.57935 0.35894 0.0
C200 C 0.03647 0.23929 0.95759 0.0
C201 C 0.05825 0.22191 0.95287 0.0
C202 C 0.03039 0.18633 0.89568 0.0
C203 C 0.05526 0.19586 0.92283 0.0
C204 C 1.00847 0.20369 0.9005 0.0
C205 C 1.01145 0.22983 0.93111 0.0
U206 U 1.0239 0.29964 0.10821 0.0
O207 O 1.02168 0.34309 0.08657 0.0
O208 O 0.05414 0.32615 0.16204 0.0
C209 C 0.04176 0.34788 0.13818 0.0
C210 C 0.04087 0.26721 0.98693 0.0
C211 C 0.03768 0.3681 0.20687 0.0
C212 C 0.03553 0.41457 0.25159 0.0
C213 C 0.03676 0.39528 0.18641 0.0
C214 C 0.03545 0.37985 0.35881 0.0
C215 C 0.03559 0.40708 0.33875 0.0
C216 C 0.03641 0.36065 0.29391 0.0
C217 C 0.9756 0.2537 0.21821 0.0
C218 C 0.94102 0.22551 0.27645 0.0
C219 C 0.9788 0.20602 0.2031 0.0
C220 C 0.98881 0.23127 0.1865 0.0
C221 C 0.95511 0.20284 0.25009 0.0
C222 C 0.9513 0.25079 0.26097 0.0
C223 C 0.98797 0.27987 0.2116 0.0
O224 O 1.02165 0.28454 0.97527 0.0
O225 O 0.05279 0.27006 0.06132 0.0
O226 O 1.01344 0.28031 0.22976 0.0
O227 O 0.98187 0.29358 0.14262 0.0
H228 H 0.07781 0.22855 0.97204 0.0
H229 H 0.07261 0.1832 0.91988 0.0
H230 H 0.98892 0.19697 0.88179 0.0
H231 H 0.99417 0.24257 0.93393 0.0
H232 H 0.03547 0.43534 0.23389 0.0
H233 H 0.03763 0.40164 0.11998 0.0
H234 H 0.03488 0.37337 0.42514 0.0
H235 H 0.03676 0.33991 0.31212 0.0
H236 H 0.92265 0.22364 0.31233 0.0
H237 H 0.99052 0.18906 0.18368 0.0
H238 H 1.00754 0.23322 0.15261 0.0
H239 H 0.94077 0.26798 0.28508 0.0
C240 C 0.30094 0.03171 0.93292 0.0
C241 C 0.3216 0.03101 0.99333 0.0
C242 C 0.35499 0.0278 0.87889 0.0
C243 C 0.34818 0.02873 0.96681 0.0
C244 C 0.33418 0.02795 0.81861 0.0
C245 C 0.30752 0.02986 0.84535 0.0
U246 U 0.24427 0.02368 0.09775 0.0
O247 O 0.20158 1.01401 0.08484 0.0
O248 O 0.21367 0.0525 0.13625 0.0
C249 C 0.19388 0.03611 0.1221 0.0
C250 C 0.27272 0.03524 0.95999 0.0
C251 C 0.17403 0.0336 0.19274 0.0
C252 C 0.12773 0.03394 0.24043 0.0
C253 C 0.14675 0.0345 0.17418 0.0
C254 C 0.16292 0.03114 0.34529 0.0
C255 C 0.13553 0.03243 0.32712 0.0
C256 C 0.18192 0.03164 0.27902 0.0
C257 C 0.29861 0.99124 0.22484 0.0
C258 C 0.339 0.98979 0.30835 0.0
C259 C 0.34055 0.97988 0.15618 0.0
C260 C 0.3131 0.98376 0.15142 0.0
C261 C 0.35377 0.98333 0.2345 0.0
C262 C 0.31167 0.99376 0.30348 0.0
C263 C 0.27068 0.9993 0.21867 0.0
O264 O 0.25832 1.01359 0.967 0.0
O265 O 0.26855 0.05191 0.02337 0.0
O266 O 0.26699 0.02509 0.21782 0.0
O267 O 0.25634 0.98667 0.16144 0.0
H268 H 0.31721 0.03253 0.06122 0.0
H269 H 0.36345 0.02785 1.01551 0.0
H270 H 0.33853 0.0273 0.75052 0.0
H271 H 0.29201 0.03039 0.79733 0.0
H272 H 0.10692 0.03542 0.22374 0.0
H273 H 0.14013 0.03615 0.10826 0.0
H274 H 0.16969 0.02977 0.41108 0.0
H275 H 0.2028 0.03087 0.29528 0.0
H276 H 0.34873 0.99221 0.36979 0.0
H277 H 0.35152 0.97516 0.09826 0.0
H278 H 0.30338 0.98195 0.08977 0.0
H279 H 0.30084 0.99961 0.36062 0.0
C280 C 0.50953 0.30519 0.9604 0.0
C281 C 0.4898 0.32442 0.97537 0.0
C282 C 0.51579 0.35848 0.90081 0.0
C283 C 0.49293 0.35061 0.94652 0.0
C284 C 0.53566 0.33932 0.88603 0.0
C285 C 0.53255 0.31302 0.91522 0.0
U286 U 0.52029 0.2434 0.10731 0.0
O287 O 0.52186 0.20039 0.081 0.0
O288 O 0.48943 0.2167 0.1586 0.0
C289 C 0.50125 0.19518 0.13048 0.0
C290 C 0.50472 0.277 0.98719 0.0
C291 C 0.50413 0.17351 0.19475 0.0
C292 C 0.48399 0.13665 0.27315 0.0
C293 C 0.48279 0.1561 0.20876 0.0
C294 C 0.52835 0.151 0.30951 0.0
C295 C 0.50659 0.13411 0.32548 0.0
C296 C 0.52708 0.17062 0.24519 0.0
C297 C 0.56759 0.28831 0.22245 0.0
C298 C 0.58333 0.32345 0.31452 0.0
C299 C 0.57543 0.33222 0.16359 0.0
C300 C 0.5679 0.30583 0.15224 0.0
C301 C 0.58232 0.34148 0.24556 0.0
C302 C 0.57601 0.29705 0.30298 0.0
C303 C 0.55528 0.26216 0.2149 0.0
O304 O 0.52399 0.25968 0.97578 0.0
O305 O 0.49203 0.27345 0.0602 0.0
O306 O 0.52964 0.26208 0.23064 0.0
O307 O 0.56191 0.24843 0.14645 0.0
H308 H 0.47164 0.31912 1.0087 0.0
H309 H 0.47713 0.36467 0.95882 0.0
H310 H 0.55376 0.3447 0.85256 0.0
H311 H 0.54816 0.29883 0.90189 0.0
H312 H 0.46706 0.12371 0.28261 0.0
H313 H 0.4649 0.15785 0.1707 0.0
H314 H 0.54603 0.14961 0.34869 0.0
H315 H 0.54379 0.18386 0.23604 0.0
H316 H 0.58832 0.33008 0.37858 0.0
H317 H 0.57489 0.34559 0.10909 0.0
H318 H 0.56125 0.29939 0.08958 0.0
H319 H 0.57562 0.28381 0.35787 0.0
Pr320 Pr 0.04558 1.01479 0.78547 0.0
Pr321 Pr 1.00163 1.02188 0.6841 0.0
C322 C 0.08471 1.00189 0.89641 0.0
C323 C 0.08787 0.98443 0.97158 0.0
C324 C 0.10209 0.96072 0.96279 0.0
C325 C 0.10111 0.94158 0.02722 0.0
C326 C 0.08619 0.94602 0.10226 0.0
C327 C 0.07406 0.97078 0.11456 0.0
C328 C 0.0749 0.9899 0.04974 0.0
C329 C 0.06199 0.0327 0.62128 0.0
C330 C 1.02239 0.9616 0.68856 0.0
C331 C 0.96224 0.03523 0.57482 0.0
C332 C 0.95632 0.05611 0.51192 0.0
C333 C 0.93191 0.06942 0.51647 0.0
C334 C 0.92696 0.09113 0.46322 0.0
C335 C 0.94626 0.09958 0.40403 0.0
C336 C 0.97021 0.0855 0.39682 0.0
C337 C 0.97527 0.06397 0.45061 0.0
C338 C 0.98571 1.00308 0.84777 0.0
C339 C 0.02447 0.07483 0.78245 0.0
O340 O 0.06944 1.02254 0.90554 0.0
O341 O 0.08131 0.99012 0.82271 0.0
O342 O 0.04461 1.01517 0.6352 0.0
O343 O 0.07002 0.04256 0.69314 0.0
O344 O 1.01177 0.97921 0.63694 0.0
O345 O 0.03252 0.96981 0.76207 0.0
O346 O 0.98123 1.01869 0.55555 0.0
O347 O 0.96266 0.0425 0.65506 0.0
O348 O 1.0026 1.02116 0.83438 0.0
O349 O 0.97792 0.99315 0.77558 0.0
O350 O 0.03469 0.05704 0.83415 0.0
O351 O 1.01435 0.06677 0.70885 0.0
H352 H 0.11255 0.95621 0.90363 0.0
H353 H 0.11024 0.92252 1.01493 0.0
H354 H 0.06249 0.97467 0.17189 0.0
H355 H 0.06414 1.00824 0.0591 0.0
H356 H 0.91705 0.06359 0.56333 0.0
H357 H 0.90844 0.10188 0.47011 0.0
H358 H 0.9856 0.09204 0.35286 0.0
H359 H 0.99435 0.05413 0.44621 0.0
Pr360 Pr 0.52781 0.04389 0.78542 0.0
Pr361 Pr 0.52127 1.00154 0.67814 0.0
C362 C 0.54084 0.07952 0.90678 0.0
C363 C 0.55667 0.07592 0.98402 0.0
C364 C 0.56101 0.09679 0.04135 0.0
C365 C 0.57882 0.09347 0.10927 0.0
C366 C 0.59253 0.06933 0.11949 0.0
C367 C 0.5867 0.04811 0.0643 0.0
C368 C 0.56875 0.05132 0.99779 0.0
C369 C 0.51102 0.06254 0.62291 0.0
C370 C 0.58102 1.02215 0.68966 0.0
C371 C 0.50927 0.96431 0.55974 0.0
C372 C 0.49667 0.96379 0.47508 0.0
C373 C 0.47988 0.94264 0.45484 0.0
C374 C 0.46238 0.94473 0.38597 0.0
C375 C 0.46157 0.96801 0.33613 0.0
C376 C 0.48063 0.98786 0.35068 0.0
C377 C 0.49791 0.9859 0.42034 0.0
C378 C 0.53589 0.98327 0.84416 0.0
C379 C 0.46765 0.02447 0.77449 0.0
O380 O 0.51847 0.06661 0.90676 0.0
O381 O 0.55395 0.07695 0.83485 0.0
O382 O 0.52851 0.04497 0.63458 0.0
O383 O 0.50133 0.07022 0.6956 0.0
O384 O 0.56349 1.01497 0.63221 0.0
O385 O 0.57235 0.02898 0.76641 0.0
O386 O 0.53243 0.97567 0.56484 0.0
O387 O 0.49362 0.97058 0.62333 0.0
O388 O 0.51898 1.00098 0.82814 0.0
O389 O 0.54658 0.97516 0.77336 0.0
O390 O 0.48524 0.03298 0.82959 0.0
O391 O 0.47616 1.01493 0.70033 0.0
H392 H 0.55148 0.11582 0.03168 0.0
H393 H 0.58295 0.11013 0.15088 0.0
H394 H 0.59744 0.02955 0.06804 0.0
H395 H 0.56537 0.03497 0.95411 0.0
H396 H 0.47872 0.92543 0.49649 0.0
H397 H 0.44772 0.92925 0.37772 0.0
H398 H 0.48055 1.00593 0.31291 0.0
H399 H 0.51081 1.00247 0.43495 0.0
Pr400 Pr 0.50012 0.52994 0.80501 0.0
Pr401 Pr 0.54138 0.52343 0.68731 0.0
C402 C 0.46723 0.54223 0.93591 0.0
C403 C 0.47322 0.55428 1.01877 0.0
C404 C 0.45286 0.56381 0.07169 0.0
C405 C 0.45893 0.5809 0.13937 0.0
C406 C 0.48535 0.58893 0.15328 0.0
C407 C 0.50581 0.57695 0.10553 0.0
C408 C 0.49976 0.55971 0.03888 0.0
C409 C 0.47918 0.51422 0.6445 0.0
C410 C 0.5218 0.58393 0.70567 0.0
C411 C 0.57622 0.51007 0.56239 0.0
C412 C 0.5782 0.48894 0.49874 0.0
C413 C 0.60178 0.48524 0.4523 0.0
C414 C 0.60403 0.46412 0.39474 0.0
C415 C 0.58262 0.44667 0.38292 0.0
C416 C 0.5589 0.4508 0.42877 0.0
C417 C 0.5567 0.4718 0.48618 0.0
C418 C 0.56159 0.5403 0.84766 0.0
C419 C 0.52151 0.47043 0.79181 0.0
O420 O 0.47689 0.51856 0.92427 0.0
O421 O 0.47115 0.55775 0.86996 0.0
O422 O 0.4972 0.53127 0.65517 0.0
O423 O 0.47188 0.50451 0.71775 0.0
O424 O 0.53132 0.56703 0.64953 0.0
O425 O 0.51274 0.57486 0.77989 0.0
O426 O 0.55675 0.52674 0.55126 0.0
O427 O 0.57883 0.50272 0.64225 0.0
O428 O 0.5442 0.52259 0.83713 0.0
O429 O 0.56836 0.55042 0.77426 0.0
O430 O 0.51427 0.48814 0.84868 0.0
O431 O 0.52826 0.47874 0.71427 0.0
H432 H 0.43227 0.55958 0.05707 0.0
H433 H 0.44282 0.58971 0.17571 0.0
H434 H 0.5263 0.583 0.11309 0.0
H435 H 0.5157 0.55243 0.99837 0.0
H436 H 0.61856 0.49833 0.4618 0.0
H437 H 0.62257 0.46114 0.36063 0.0
H438 H 0.54238 0.43718 0.42269 0.0
H439 H 0.53842 0.47433 0.5222 0.0
Pr440 Pr 1.01719 0.50032 0.7909 0.0
Pr441 Pr 1.02329 0.54252 0.6778 0.0
C442 C 1.00542 0.46592 0.91787 0.0
C443 C 0.99158 0.47116 0.99836 0.0
C444 C 0.98653 0.45098 0.058 0.0
C445 C 0.96944 0.45579 0.12724 0.0
C446 C 0.95706 0.48069 0.13622 0.0
C447 C 0.96411 0.50131 0.07967 0.0
C448 C 0.98136 0.49661 1.01183 0.0
C449 C 0.03418 0.481 0.62932 0.0
C450 C 0.96308 0.52186 0.6955 0.0
C451 C 0.03541 0.57917 0.55681 0.0
C452 C 0.05571 0.58262 0.49047 0.0
C453 C 0.05862 0.6071 0.44871 0.0
C454 C 0.07924 0.61087 0.38958 0.0
C455 C 0.0969 0.59008 0.37123 0.0
C456 C 0.09341 0.5654 0.41184 0.0
C457 C 0.07297 0.5617 0.47103 0.0
C458 C 1.00627 0.561 0.84072 0.0
C459 C 0.07665 0.52239 0.77965 0.0
O460 O 0.02843 0.47745 0.91052 0.0
O461 O 0.99083 0.46871 0.84928 0.0
O462 O 1.01658 0.49851 0.64046 0.0
O463 O 0.04381 0.47366 0.70242 0.0
O464 O 0.98002 0.53119 0.6389 0.0
O465 O 0.97206 0.51326 0.77009 0.0
O466 O 1.01874 0.5598 0.54459 0.0
O467 O 0.04375 0.58042 0.63584 0.0
O468 O 0.02411 0.54391 0.82772 0.0
O469 O 0.99602 0.56843 0.76839 0.0
O470 O 0.05895 0.51411 0.83542 0.0
O471 O 0.06835 0.53011 0.70316 0.0
H472 H 0.99463 0.4313 0.04864 0.0
H473 H 0.96447 0.43959 0.17015 0.0
H474 H 0.95453 0.5205 0.08253 0.0
H475 H 0.98525 0.51242 0.96621 0.0
H476 H 0.04538 0.62342 0.46332 0.0
H477 H 0.08177 0.63011 0.35962 0.0
H478 H 0.10721 0.54929 0.40064 0.0
H479 H 0.07104 0.54274 0.50334 0.0
C480 C 0.11949 0.04962 0.47028 0.0
C481 C 0.11544 0.03304 0.3988 0.0
C482 C 0.1016 0.05006 0.53989 0.0
C483 C 0.07883 0.03381 0.54183 0.0
H484 H 0.13675 0.06243 0.47265 0.0
H485 H 0.10601 0.06292 0.59354 0.0
S486 S 0.05862 0.98695 0.3705 0.0
N487 N 0.08655 1.00008 0.33423 0.0
N488 N 0.05292 1.00104 0.46439 0.0
C489 C 0.07416 1.01754 0.46998 0.0
C490 C 0.09241 1.01712 0.39885 0.0
C491 C 0.52818 0.09699 0.41035 0.0
C492 C 0.50688 0.11482 0.399 0.0
C493 C 0.52895 0.0793 0.48075 0.0
C494 C 0.5087 0.07909 0.54353 0.0
H495 H 0.54439 0.09672 0.36448 0.0
H496 H 0.54592 0.06626 0.48728 0.0
S497 S 0.44848 0.12155 0.54346 0.0
N498 N 0.46492 0.13076 0.45649 0.0
N499 N 0.46646 0.09791 0.58811 0.0
C500 C 0.48718 0.09656 0.53214 0.0
C501 C 0.48625 0.11429 0.46025 0.0
C502 C 0.42287 0.49375 0.495 0.0
C503 C 0.42621 0.51012 0.4223 0.0
C504 C 0.44037 0.4949 0.56514 0.0
C505 C 0.46219 0.51239 0.56598 0.0
H506 H 0.40619 0.48022 0.49863 0.0
H507 H 0.43651 0.48214 0.61979 0.0
S508 S 0.48114 0.55823 0.38904 0.0
N509 N 0.45399 0.5435 0.35385 0.0
N510 N 0.48682 0.54569 0.48535 0.0
C511 C 0.46621 0.52845 0.49282 0.0
C512 C 0.44825 0.52737 0.42139 0.0
C513 C 1.01819 0.44831 0.41337 0.0
C514 C 0.03667 0.42733 0.40913 0.0
C515 C 1.01795 0.46621 0.48305 0.0
C516 C 0.03631 0.46395 0.551 0.0
H517 H 1.00326 0.4504 0.36386 0.0
H518 H 1.0028 0.48145 0.48483 0.0
S519 S 0.09106 0.41477 0.56429 0.0
N520 N 0.07534 0.40706 0.47492 0.0
N521 N 0.07501 0.44043 0.60467 0.0
C522 C 0.05565 0.44385 0.54504 0.0
C523 C 0.05579 0.42564 0.47465 0.0
C524 C 0.95216 1.02094 0.06127 0.0
C525 C 0.93372 1.00021 0.07385 0.0
C526 C 0.96967 1.02122 0.99025 0.0
C527 C 0.96924 1.001 0.92786 0.0
H528 H 0.95303 0.03714 0.10667 0.0
H529 H 0.98313 0.03783 0.98301 0.0
S530 S 0.92507 0.94208 0.9307 0.0
N531 N 0.91652 0.95875 1.01759 0.0
N532 N 0.94913 0.95936 0.88493 0.0
C533 C 0.9512 0.97999 0.94039 0.0
C534 C 0.93358 0.97958 1.01297 0.0
C535 C 0.55175 0.92797 1.00455 0.0
C536 C 0.53405 0.93255 0.07333 0.0
C537 C 0.55274 0.94485 0.93238 0.0
C538 C 0.53603 0.96716 0.92524 0.0
H539 H 0.56504 0.91107 1.0063 0.0
H540 H 0.56649 0.9401 0.88107 0.0
S541 S 0.48599 0.98835 0.08708 0.0
N542 N 0.49925 0.96131 0.12885 0.0
N543 N 0.50145 0.99317 0.99469 0.0
C544 C 0.51859 0.97234 0.99424 0.0
C545 C 0.5175 0.95509 0.0677 0.0
C546 C 0.59255 0.52474 0.06665 0.0
C547 C 0.61392 0.54276 0.07202 0.0
C548 C 0.57528 0.52455 0.99542 0.0
C549 C 0.57854 0.54242 0.92635 0.0
H550 H 0.58956 0.51014 0.11686 0.0
H551 H 0.55962 0.50985 0.99365 0.0
S552 S 0.62914 0.59583 0.91367 0.0
N553 N 0.63565 0.58056 1.00509 0.0
N554 N 0.60354 0.58009 0.87184 0.0
C555 C 0.59912 0.56122 0.93262 0.0
C556 C 0.6167 0.56139 1.00499 0.0
C557 C 0.9886 0.6173 0.99493 0.0
C558 C 1.00269 0.61101 0.07043 0.0
C559 C 0.9893 0.60072 0.92224 0.0
C560 C 1.00415 0.57704 0.92138 0.0
H561 H 0.97739 0.63559 0.99102 0.0
H562 H 0.97853 0.60688 0.86555 0.0
S563 S 0.0425 0.54989 0.10501 0.0
N564 N 0.03037 0.57815 0.14146 0.0
N565 N 0.03198 0.54732 1.00505 0.0
C566 C 1.01769 0.57005 0.99723 0.0
C567 C 1.01695 0.58692 0.07141 0.0
C568 C 0.94154 0.17329 0.3707 0.0
C569 C 0.94757 0.17627 0.28289 0.0
C570 C 0.93937 0.14819 0.4081 0.0
C571 C 0.94333 0.12518 0.35923 0.0
H572 H 0.94015 0.19042 0.41225 0.0
H573 H 0.93627 0.14685 0.47687 0.0
S574 S 0.95528 0.12187 0.12473 0.0
N575 N 0.95402 0.15392 0.14599 0.0
N576 N 0.9506 0.10657 0.21745 0.0
C577 C 0.94765 0.12771 0.27056 0.0
C578 C 0.9496 0.15331 0.23208 0.0
C579 C 0.39711 1.00138 0.28261 0.0
C580 C 0.38301 0.98123 0.24062 0.0
C581 C 0.42367 0.99794 0.30536 0.0
C582 C 0.43717 0.97418 0.28693 0.0
H583 H 0.38709 1.01938 0.30243 0.0
H584 H 0.4329 1.01318 0.34402 0.0
S585 S 0.41069 0.91757 0.16245 0.0
N586 N 0.38537 0.93827 0.17051 0.0
N587 N 0.43578 0.93201 0.21187 0.0
C588 C 0.42411 0.95501 0.23708 0.0
C589 C 0.3969 0.95849 0.21411 0.0
C590 C 0.60622 0.37891 0.31604 0.0
C591 C 0.58549 0.37016 0.26281 0.0
C592 C 0.60632 0.40464 0.34938 0.0
C593 C 0.58564 0.42243 0.33075 0.0
H594 H 0.62171 0.3653 0.33577 0.0
H595 H 0.62168 0.40999 0.39469 0.0
S596 S 0.5289 0.41071 0.18485 0.0
N597 N 0.54519 0.3823 0.18606 0.0
N598 N 0.54582 0.43089 0.2475 0.0
C599 C 0.56603 0.41472 0.27202 0.0
C600 C 0.56587 0.38852 0.23815 0.0
C601 C 0.16481 0.61501 0.31052 0.0
C602 C 0.17374 0.59534 0.25339 0.0
C603 C 0.13882 0.61467 0.34267 0.0
C604 C 0.12097 0.59462 0.31876 0.0
H605 H 0.17852 0.62974 0.33478 0.0
H606 H 0.13338 0.62893 0.39156 0.0
S607 S 0.13298 0.5413 0.16031 0.0
N608 N 0.16161 0.55712 0.16679 0.0
N609 N 0.11253 0.55705 0.22569 0.0
C610 C 0.12879 0.57644 0.25551 0.0
C611 C 0.15526 0.57669 0.22302 0.0
C612 C 0.04343 0.89281 0.19901 0.0
C613 C 0.06186 0.87231 0.21213 0.0
C614 C 0.05184 0.91786 0.17176 0.0
C615 C 0.07892 0.92316 0.157 0.0
H616 H 1.02232 0.88891 0.20313 0.0
H617 H 0.03681 0.93233 0.15493 0.0
S618 S 0.13518 0.87801 0.20304 0.0
N619 N 0.10841 0.86015 0.22381 0.0
N620 N 0.12429 0.90747 0.1729 0.0
C621 C 0.09763 0.90372 0.17936 0.0
C622 C 0.08907 0.87818 0.20676 0.0
C623 C 0.66201 0.08287 0.19187 0.0
C624 C 0.66975 0.05808 0.22453 0.0
C625 C 0.63583 0.08754 0.16682 0.0
C626 C 0.61645 0.06757 0.17411 0.0
H627 H 0.67667 0.09823 0.18051 0.0
H628 H 0.63143 0.10604 0.13448 0.0
S629 S 0.62534 1.00117 0.27245 0.0
N630 N 0.65528 1.01451 0.27348 0.0
N631 N 0.6056 0.02395 0.23099 0.0
C632 C 0.62325 0.04385 0.21626 0.0
C633 C 0.65005 0.03889 0.24024 0.0
C634 C 0.48546 0.66215 0.19067 0.0
C635 C 0.51006 0.66623 0.2308 0.0
C636 C 0.47613 0.63666 0.17434 0.0
C637 C 0.49103 0.61421 0.19777 0.0
H638 H 0.47392 0.67884 0.16764 0.0
H639 H 0.45821 0.63471 0.13659 0.0
S640 S 0.55391 0.61416 0.321 0.0
N641 N 0.54728 0.64588 0.30523 0.0
N642 N 0.52933 0.59761 0.27599 0.0
C643 C 0.51427 0.61797 0.24614 0.0
C644 C 0.52389 0.64408 0.26245 0.0
C645 C 0.88638 0.47025 0.20283 0.0
C646 C 0.87918 0.49555 0.2322 0.0
C647 C 0.91267 0.46443 0.18134 0.0
C648 C 0.9327 0.48372 0.18884 0.0
H649 H 0.87131 0.45536 0.1912 0.0
H650 H 0.91671 0.44552 0.15122 0.0
S651 S 0.92504 0.55099 0.28122 0.0
N652 N 0.89461 0.5388 0.27974 0.0
N653 N 0.94443 0.52731 0.24339 0.0
C654 C 0.92625 0.508 0.22801 0.0
C655 C 0.89934 0.51409 0.24857 0.0
C656 C 0.03925 0.13739 0.91269 0.0
C657 C 0.02762 0.15812 0.86521 0.0
C658 C 0.03792 0.11086 0.88532 0.0
C659 C 0.02504 0.10356 0.80853 0.0
H660 H 0.04944 0.14165 0.97221 0.0
H661 H 0.0473 0.09595 0.92514 0.0
S662 S 0.99149 0.15023 0.65918 0.0
N663 N 1.00281 0.16947 0.7366 0.0
N664 N 1.00028 0.11971 0.68519 0.0
C665 C 1.01319 0.12408 0.76026 0.0
C666 C 1.01443 0.15122 0.7886 0.0
C667 C 0.39257 1.01065 0.78413 0.0
C668 C 0.38363 0.02759 0.85039 0.0
C669 C 0.41953 1.01001 0.75821 0.0
C670 C 0.43873 0.02622 0.79763 0.0
H671 H 0.37872 0.99739 0.75305 0.0
H672 H 0.42544 0.9963 0.70826 0.0
S673 S 0.42525 0.07641 0.96695 0.0
N674 N 0.39607 0.0627 0.94889 0.0
N675 N 0.44624 0.0612 0.90217 0.0
C676 C 0.42985 0.04377 0.86216 0.0
C677 C 0.40252 0.04452 0.888 0.0
C678 C 0.51245 0.40766 0.92715 0.0
C679 C 0.51871 0.38676 0.87088 0.0
C680 C 0.51377 0.43432 0.90093 0.0
C681 C 0.5213 0.4416 0.81667 0.0
H682 H 0.50645 0.4034 0.9926 0.0
H683 H 0.50861 0.44935 0.94759 0.0
S684 S 0.53962 0.39458 0.64313 0.0
N685 N 0.53273 0.37526 0.72609 0.0
N686 N 0.53531 0.4253 0.67689 0.0
C687 C 0.52789 0.42093 0.75966 0.0
C688 C 0.52662 0.39363 0.78663 0.0
C689 C 0.1393 0.51158 0.91355 0.0
C690 C 0.16015 0.52115 0.86153 0.0
C691 C 0.11274 0.51218 0.88613 0.0
C692 C 0.10545 0.52234 0.80501 0.0
H693 H 0.14352 0.50309 0.97593 0.0
H694 H 0.09779 0.50437 0.92946 0.0
S695 S 0.15205 0.55111 0.64478 0.0
N696 N 0.17138 0.54215 0.72532 0.0
N697 N 0.12154 0.54289 0.6735 0.0
C698 C 0.126 0.53218 0.7522 0.0
C699 C 0.15323 0.53163 0.78038 0.0
C700 C 1.02193 0.8854 0.70145 0.0
C701 C 1.02024 0.87748 0.61468 0.0
C702 C 1.0233 0.91244 0.72505 0.0
C703 C 1.02244 0.93284 0.66303 0.0
H704 H 1.0223 0.87053 0.75171 0.0
H705 H 0.02446 0.91739 0.79255 0.0
S706 S 1.01832 0.92286 0.42679 0.0
N707 N 1.01813 0.89253 0.4667 0.0
N708 N 1.02032 0.94288 0.51025 0.0
C709 C 1.0209 0.92512 0.57602 0.0
C710 C 1.01993 0.89767 0.55209 0.0
C711 C 0.65622 1.01021 0.6995 0.0
C712 C 0.66539 1.01924 0.61868 0.0
C713 C 0.62917 1.01203 0.72359 0.0
C714 C 0.60997 1.02232 0.66702 0.0
H715 H 0.67012 1.00168 0.74475 0.0
H716 H 0.62314 1.00461 0.78598 0.0
S717 S 0.62327 0.04994 0.45019 0.0
N718 N 0.65271 0.04 0.48386 0.0
N719 N 0.60219 0.04274 0.5282 0.0
C720 C 0.61885 0.0317 0.58671 0.0
C721 C 0.6464 0.03037 0.56286 0.0
C722 C 0.52426 0.64806 0.57332 0.0
C723 C 0.52049 0.66831 0.63431 0.0
C724 C 0.5248 0.62111 0.59732 0.0
C725 C 0.52123 0.61296 0.68345 0.0
H726 H 0.52719 0.65309 0.50627 0.0
H727 H 0.52786 0.60652 0.54734 0.0
S728 S 0.50969 0.658 0.86818 0.0
N729 N 0.51256 0.67817 0.78495 0.0
N730 N 0.51336 0.62772 0.82981 0.0
C731 C 0.51714 0.63298 0.74506 0.0
C732 C 0.51687 0.66051 0.72068 0.0
C733 C 0.88743 0.53078 0.70708 0.0
C734 C 0.87882 0.52299 0.62453 0.0
C735 C 0.91447 0.52949 0.73125 0.0
C736 C 0.93418 0.52095 0.67323 0.0
H737 H 0.87311 0.53791 0.75365 0.0
H738 H 0.92007 0.53598 0.79491 0.0
S739 S 0.92257 0.49691 0.45172 0.0
N740 N 0.89271 0.50528 0.48638 0.0
N741 N 0.94309 0.50334 0.53134 0.0
C742 C 0.92587 0.51273 0.59131 0.0
C743 C 0.89839 0.51359 0.56715 0.0
loop_
_geom_bond_atom_site_label_1
_geom_bond_atom_site_label_2
_geom_bond_distance
_geom_bond_site_symmetry_2
_ccdc_geom_bond_type
C0 C1 1.264 . S
C0 C5 1.479 . S
C0 C10 1.465 . S
C1 C0 1.264 . S
C1 C3 1.339 . S
C1 H28 0.931 . S
C2 C3 1.395 . S
C2 C4 1.320 . S
C3 C1 1.339 . S
C3 C2 1.395 . S
C3 H29 0.929 . S
C4 C2 1.320 . S
C4 C5 1.405 . S
C4 H30 0.930 . S
C5 C0 1.479 . S
C5 C4 1.405 . S
C5 H31 0.931 . S
U6 O7 2.454 . S
U6 O8 2.458 . S
U6 C9 2.984 . S
U6 C10 2.847 . S
U6 C23 2.882 . S
U6 O24 2.441 . S
U6 O25 2.420 . S
U6 O26 2.455 . S
U6 O27 2.449 . S
O7 U6 2.454 . S
O7 C9 1.353 . S
O8 U6 2.458 . S
O8 C9 1.286 . S
C9 U6 2.984 . S
C9 O7 1.353 . S
C9 O8 1.286 . S
C9 C11 1.363 . S
C10 C0 1.465 . S
C10 U6 2.847 . S
C10 O24 1.249 . S
C10 O25 1.202 . S
C11 C9 1.363 . S
C11 C13 1.408 . S
C11 C16 1.342 . S
C12 C13 1.310 . S
C12 C15 1.461 . S
C12 H32 0.932 . S
C13 C11 1.408 . S
C13 C12 1.310 . S
C13 H33 0.930 . S
C14 C15 1.474 . S
C14 C16 1.285 . S
C14 H34 0.929 . S
C15 C12 1.461 . S
C15 C14 1.474 . S
C16 C11 1.342 . S
C16 C14 1.285 . S
C16 H35 0.930 . S
C17 C20 1.424 . S
C17 C22 1.245 . S
C17 C23 1.428 . S
C18 C21 1.260 . S
C18 C22 1.477 . S
C18 H36 0.932 . S
C19 C20 1.384 . S
C19 C21 1.479 . S
C19 H37 0.929 . S
C20 C17 1.424 . S
C20 C19 1.384 . S
C20 H38 0.928 . S
C21 C18 1.260 . S
C21 C19 1.479 . S
C22 C17 1.245 . S
C22 C18 1.477 . S
C22 H39 0.932 . S
C23 U6 2.882 . S
C23 C17 1.428 . S
C23 O26 1.301 . S
C23 O27 1.282 . S
O24 U6 2.441 . S
O24 C10 1.249 . S
O25 U6 2.420 . S
O25 C10 1.202 . S
O26 U6 2.455 . S
O26 C23 1.301 . S
O27 U6 2.449 . S
O27 C23 1.282 . S
H28 C1 0.931 . S
H29 C3 0.929 . S
H30 C4 0.930 . S
H31 C5 0.931 . S
H32 C12 0.932 . S
H33 C13 0.930 . S
H34 C14 0.929 . S
H35 C16 0.930 . S
H36 C18 0.932 . S
H37 C19 0.929 . S
H38 C20 0.928 . S
H39 C22 0.932 . S
C40 C41 1.264 . S
C40 C45 1.479 . S
C40 C50 1.465 . S
C41 C40 1.264 . S
C41 C43 1.339 . S
C41 H68 0.931 . S
C42 C43 1.395 . S
C42 C44 1.320 . S
C43 C41 1.339 . S
C43 C42 1.395 . S
C43 H69 0.929 . S
C44 C42 1.320 . S
C44 C45 1.405 . S
C44 H70 0.921 1_455 S
C45 C40 1.479 . S
C45 C44 1.405 . S
C45 H71 0.931 . S
U46 O47 2.454 . S
U46 O48 2.458 . S
U46 C49 2.984 . S
U46 C50 2.847 . S
U46 C63 2.882 . S
U46 O64 2.441 . S
U46 O65 2.420 . S
U46 O66 2.455 . S
U46 O67 2.449 . S
O47 U46 2.454 . S
O47 C49 1.353 . S
O48 U46 2.458 . S
O48 C49 1.286 . S
C49 U46 2.984 . S
C49 O47 1.353 . S
C49 O48 1.286 . S
C49 C51 1.363 . S
C50 C40 1.465 . S
C50 U46 2.847 . S
C50 O64 1.249 . S
C50 O65 1.202 . S
C51 C49 1.363 . S
C51 C53 1.408 . S
C51 C56 1.342 . S
C52 C53 1.310 . S
C52 C55 1.461 . S
C52 H72 0.932 . S
C53 C51 1.408 . S
C53 C52 1.310 . S
C53 H73 0.930 . S
C54 C55 1.474 1_655 S
C54 C56 1.285 1_655 S
C54 H74 0.930 . S
C55 C52 1.461 . S
C55 C54 1.474 1_455 S
C56 C51 1.342 . S
C56 C54 1.285 1_455 S
C56 H75 0.933 . S
C57 C60 1.424 . S
C57 C62 1.245 . S
C57 C63 1.428 . S
C58 C61 1.260 . S
C58 C62 1.477 . S
C58 H76 0.932 . S
C59 C60 1.384 . S
C59 C61 1.479 . S
C59 H77 0.929 . S
C60 C57 1.424 . S
C60 C59 1.384 . S
C60 H78 0.928 . S
C61 C58 1.260 . S
C61 C59 1.479 . S
C62 C57 1.245 . S
C62 C58 1.477 . S
C62 H79 0.932 . S
C63 U46 2.882 . S
C63 C57 1.428 . S
C63 O66 1.301 . S
C63 O67 1.282 . S
O64 U46 2.441 . S
O64 C50 1.249 . S
O65 U46 2.420 . S
O65 C50 1.202 . S
O66 U46 2.455 . S
O66 C63 1.301 . S
O67 U46 2.449 . S
O67 C63 1.282 . S
H68 C41 0.931 . S
H69 C43 0.929 . S
H70 C44 0.921 1_655 S
H71 C45 0.931 . S
H72 C52 0.932 . S
H73 C53 0.930 . S
H74 C54 0.930 . S
H75 C56 0.933 . S
H76 C58 0.932 . S
H77 C59 0.929 . S
H78 C60 0.928 . S
H79 C62 0.932 . S
C80 C81 1.264 . S
C80 C85 1.479 . S
C80 C90 1.465 . S
C81 C80 1.264 . S
C81 C83 1.339 . S
C81 H108 0.931 . S
C82 C83 1.395 . S
C82 C84 1.320 . S
C83 C81 1.339 . S
C83 C82 1.395 . S
C83 H109 0.929 . S
C84 C82 1.320 . S
C84 C85 1.405 . S
C84 H110 0.921 1_545 S
C85 C80 1.479 . S
C85 C84 1.405 . S
C85 H111 0.931 . S
U86 O87 2.454 . S
U86 O88 2.458 . S
U86 C89 2.984 . S
U86 C90 2.847 . S
U86 C103 2.882 . S
U86 O104 2.441 . S
U86 O105 2.420 . S
U86 O106 2.455 . S
U86 O107 2.449 . S
O87 U86 2.454 . S
O87 C89 1.353 . S
O88 U86 2.458 . S
O88 C89 1.286 . S
C89 U86 2.984 . S
C89 O87 1.353 . S
C89 O88 1.286 . S
C89 C91 1.363 . S
C90 C80 1.465 . S
C90 U86 2.847 . S
C90 O104 1.249 . S
C90 O105 1.202 . S
C91 C89 1.363 . S
C91 C93 1.408 . S
C91 C96 1.342 . S
C92 C93 1.310 . S
C92 C95 1.461 . S
C92 H112 0.932 . S
C93 C91 1.408 . S
C93 C92 1.310 . S
C93 H113 0.930 . S
C94 C95 1.474 1_565 S
C94 C96 1.285 1_565 S
C94 H114 0.931 . S
C95 C92 1.461 . S
C95 C94 1.474 1_545 S
C96 C91 1.342 . S
C96 C94 1.285 1_545 S
C96 H115 0.933 . S
C97 C100 1.424 . S
C97 C102 1.245 . S
C97 C103 1.428 . S
C98 C101 1.260 . S
C98 C102 1.477 . S
C98 H116 0.932 . S
C99 C100 1.384 . S
C99 C101 1.479 . S
C99 H117 0.929 . S
C100 C97 1.424 . S
C100 C99 1.384 . S
C100 H118 0.928 . S
C101 C98 1.260 . S
C101 C99 1.479 . S
C102 C97 1.245 . S
C102 C98 1.477 . S
C102 H119 0.932 . S
C103 U86 2.882 . S
C103 C97 1.428 . S
C103 O106 1.301 . S
C103 O107 1.282 . S
O104 U86 2.441 . S
O104 C90 1.249 . S
O105 U86 2.420 . S
O105 C90 1.202 . S
O106 U86 2.455 . S
O106 C103 1.301 . S
O107 U86 2.449 . S
O107 C103 1.282 . S
H108 C81 0.931 . S
H109 C83 0.929 . S
H110 C84 0.921 1_565 S
H111 C85 0.931 . S
H112 C92 0.932 . S
H113 C93 0.930 . S
H114 C94 0.931 . S
H115 C96 0.933 . S
H116 C98 0.932 . S
H117 C99 0.929 . S
H118 C100 0.928 . S
H119 C102 0.932 . S
C120 C121 1.264 . S
C120 C125 1.479 . S
C120 C130 1.465 . S
C121 C120 1.264 . S
C121 C123 1.339 . S
C121 H148 0.931 . S
C122 C123 1.395 . S
C122 C124 1.320 . S
C123 C121 1.339 . S
C123 C122 1.395 . S
C123 H149 0.929 . S
C124 C122 1.320 . S
C124 C125 1.405 . S
C124 H150 0.930 . S
C125 C120 1.479 . S
C125 C124 1.405 . S
C125 H151 0.931 . S
U126 O127 2.454 . S
U126 O128 2.458 . S
U126 C129 2.984 . S
U126 C130 2.847 . S
U126 C143 2.882 . S
U126 O144 2.441 . S
U126 O145 2.420 . S
U126 O146 2.455 . S
U126 O147 2.449 . S
O127 U126 2.454 . S
O127 C129 1.353 . S
O128 U126 2.458 . S
O128 C129 1.286 . S
C129 U126 2.984 . S
C129 O127 1.353 . S
C129 O128 1.286 . S
C129 C131 1.363 . S
C130 C120 1.465 . S
C130 U126 2.847 . S
C130 O144 1.249 . S
C130 O145 1.202 . S
C131 C129 1.363 . S
C131 C133 1.408 . S
C131 C136 1.342 . S
C132 C133 1.310 . S
C132 C135 1.461 . S
C132 H152 0.932 . S
C133 C131 1.408 . S
C133 C132 1.310 . S
C133 H153 0.930 . S
C134 C135 1.474 . S
C134 C136 1.285 . S
C134 H154 0.929 . S
C135 C132 1.461 . S
C135 C134 1.474 . S
C136 C131 1.342 . S
C136 C134 1.285 . S
C136 H155 0.930 . S
C137 C140 1.424 . S
C137 C142 1.245 . S
C137 C143 1.428 . S
C138 C141 1.260 . S
C138 C142 1.477 . S
C138 H156 0.932 . S
C139 C140 1.384 . S
C139 C141 1.479 . S
C139 H157 0.929 . S
C140 C137 1.424 . S
C140 C139 1.384 . S
C140 H158 0.928 . S
C141 C138 1.260 . S
C141 C139 1.479 . S
C142 C137 1.245 . S
C142 C138 1.477 . S
C142 H159 0.932 . S
C143 U126 2.882 . S
C143 C137 1.428 . S
C143 O146 1.301 . S
C143 O147 1.282 . S
O144 U126 2.441 . S
O144 C130 1.249 . S
O145 U126 2.420 . S
O145 C130 1.202 . S
O146 U126 2.455 . S
O146 C143 1.301 . S
O147 U126 2.449 . S
O147 C143 1.282 . S
H148 C121 0.931 . S
H149 C123 0.929 . S
H150 C124 0.930 . S
H151 C125 0.931 . S
H152 C132 0.932 . S
H153 C133 0.930 . S
H154 C134 0.929 . S
H155 C136 0.930 . S
H156 C138 0.932 . S
H157 C139 0.929 . S
H158 C140 0.928 . S
H159 C142 0.932 . S
C160 C161 1.264 . S
C160 C165 1.479 . S
C160 C170 1.465 . S
C161 C160 1.264 . S
C161 C163 1.339 . S
C161 H188 0.931 . S
C162 C163 1.395 . S
C162 C164 1.320 . S
C163 C161 1.339 . S
C163 C162 1.395 . S
C163 H189 0.929 . S
C164 C162 1.320 . S
C164 C165 1.405 . S
C164 H190 0.930 . S
C165 C160 1.479 . S
C165 C164 1.405 . S
C165 H191 0.931 . S
U166 O167 2.454 . S
U166 O168 2.458 . S
U166 C169 2.984 . S
U166 C170 2.847 1_554 S
U166 C183 2.882 . S
U166 O184 2.441 1_554 S
U166 O185 2.420 1_554 S
U166 O186 2.455 . S
U166 O187 2.449 . S
O167 U166 2.454 . S
O167 C169 1.353 . S
O168 U166 2.458 . S
O168 C169 1.286 . S
C169 U166 2.984 . S
C169 O167 1.353 . S
C169 O168 1.286 . S
C169 C171 1.363 . S
C170 C160 1.465 . S
C170 U166 2.847 1_556 S
C170 O184 1.249 . S
C170 O185 1.202 . S
C171 C169 1.363 . S
C171 C173 1.408 . S
C171 C176 1.342 . S
C172 C173 1.310 . S
C172 C175 1.461 . S
C172 H192 0.932 . S
C173 C171 1.408 . S
C173 C172 1.310 . S
C173 H193 0.930 1_554 S
C174 C175 1.474 . S
C174 C176 1.285 . S
C174 H194 0.929 . S
C175 C172 1.461 . S
C175 C174 1.474 . S
C176 C171 1.342 . S
C176 C174 1.285 . S
C176 H195 0.930 . S
C177 C180 1.424 . S
C177 C182 1.245 . S
C177 C183 1.428 . S
C178 C181 1.260 . S
C178 C182 1.477 . S
C178 H196 0.932 . S
C179 C180 1.384 . S
C179 C181 1.479 . S
C179 H197 0.929 . S
C180 C177 1.424 . S
C180 C179 1.384 . S
C180 H198 0.928 . S
C181 C178 1.260 . S
C181 C179 1.479 . S
C182 C177 1.245 . S
C182 C178 1.477 . S
C182 H199 0.932 . S
C183 U166 2.882 . S
C183 C177 1.428 . S
C183 O186 1.301 . S
C183 O187 1.282 . S
O184 U166 2.441 1_556 S
O184 C170 1.249 . S
O185 U166 2.420 1_556 S
O185 C170 1.202 . S
O186 U166 2.455 . S
O186 C183 1.301 . S
O187 U166 2.449 . S
O187 C183 1.282 . S
H188 C161 0.931 . S
H189 C163 0.929 . S
H190 C164 0.930 . S
H191 C165 0.931 . S
H192 C172 0.932 . S
H193 C173 0.930 1_556 S
H194 C174 0.929 . S
H195 C176 0.930 . S
H196 C178 0.932 . S
H197 C179 0.929 . S
H198 C180 0.928 . S
H199 C182 0.932 . S
C200 C201 1.264 . S
C200 C205 1.479 . S
C200 C210 1.465 . S
C201 C200 1.264 . S
C201 C203 1.339 . S
C201 H228 0.931 . S
C202 C203 1.395 . S
C202 C204 1.320 . S
C203 C201 1.339 . S
C203 C202 1.395 . S
C203 H229 0.929 . S
C204 C202 1.320 . S
C204 C205 1.405 . S
C204 H230 0.923 1_455 S
C205 C200 1.479 . S
C205 C204 1.405 . S
C205 H231 0.931 . S
U206 O207 2.454 . S
U206 O208 2.458 . S
U206 C209 2.984 . S
U206 C210 2.847 1_554 S
U206 C223 2.882 . S
U206 O224 2.441 1_554 S
U206 O225 2.420 1_554 S
U206 O226 2.455 . S
U206 O227 2.449 . S
O207 U206 2.454 . S
O207 C209 1.353 . S
O208 U206 2.458 . S
O208 C209 1.286 . S
C209 U206 2.984 . S
C209 O207 1.353 . S
C209 O208 1.286 . S
C209 C211 1.363 . S
C210 C200 1.465 . S
C210 U206 2.847 1_556 S
C210 O224 1.249 . S
C210 O225 1.202 . S
C211 C209 1.363 . S
C211 C213 1.408 . S
C211 C216 1.342 . S
C212 C213 1.310 . S
C212 C215 1.462 . S
C212 H232 0.932 . S
C213 C211 1.408 . S
C213 C212 1.310 . S
C213 H233 0.930 1_554 S
C214 C215 1.474 1_655 S
C214 C216 1.286 1_655 S
C214 H234 0.929 . S
C215 C212 1.462 . S
C215 C214 1.474 1_455 S
C216 C211 1.342 . S
C216 C214 1.286 1_455 S
C216 H235 0.930 . S
C217 C220 1.424 . S
C217 C222 1.245 . S
C217 C223 1.428 . S
C218 C221 1.260 . S
C218 C222 1.477 . S
C218 H236 0.932 . S
C219 C220 1.384 . S
C219 C221 1.479 . S
C219 H237 0.929 . S
C220 C217 1.424 . S
C220 C219 1.384 . S
C220 H238 0.928 . S
C221 C218 1.260 . S
C221 C219 1.479 . S
C222 C217 1.245 . S
C222 C218 1.477 . S
C222 H239 0.932 . S
C223 U206 2.882 . S
C223 C217 1.428 . S
C223 O226 1.301 . S
C223 O227 1.282 . S
O224 U206 2.441 1_556 S
O224 C210 1.249 . S
O225 U206 2.420 1_556 S
O225 C210 1.202 . S
O226 U206 2.455 . S
O226 C223 1.301 . S
O227 U206 2.449 . S
O227 C223 1.282 . S
H228 C201 0.931 . S
H229 C203 0.929 . S
H230 C204 0.923 1_655 S
H231 C205 0.931 . S
H232 C212 0.932 . S
H233 C213 0.930 1_556 S
H234 C214 0.929 . S
H235 C216 0.930 . S
H236 C218 0.932 . S
H237 C219 0.929 . S
H238 C220 0.928 . S
H239 C222 0.932 . S
C240 C241 1.264 . S
C240 C245 1.479 . S
C240 C250 1.465 . S
C241 C240 1.264 . S
C241 C243 1.339 . S
C241 H268 0.931 . S
C242 C243 1.395 . S
C242 C244 1.320 . S
C243 C241 1.339 . S
C243 C242 1.395 . S
C243 H269 0.929 . S
C244 C242 1.320 . S
C244 C245 1.405 . S
C244 H270 0.923 1_545 S
C245 C240 1.479 . S
C245 C244 1.405 . S
C245 H271 0.931 . S
U246 O247 2.454 . S
U246 O248 2.458 . S
U246 C249 2.984 . S
U246 C250 2.847 1_554 S
U246 C263 2.882 . S
U246 O264 2.441 1_554 S
U246 O265 2.420 1_554 S
U246 O266 2.455 . S
U246 O267 2.449 . S
O247 U246 2.454 . S
O247 C249 1.353 . S
O248 U246 2.458 . S
O248 C249 1.286 . S
C249 U246 2.984 . S
C249 O247 1.353 . S
C249 O248 1.286 . S
C249 C251 1.363 . S
C250 C240 1.465 . S
C250 U246 2.847 1_556 S
C250 O264 1.249 . S
C250 O265 1.202 . S
C251 C249 1.363 . S
C251 C253 1.408 . S
C251 C256 1.342 . S
C252 C253 1.310 . S
C252 C255 1.462 . S
C252 H272 0.932 . S
C253 C251 1.408 . S
C253 C252 1.310 . S
C253 H273 0.930 1_554 S
C254 C255 1.474 1_565 S
C254 C256 1.286 1_565 S
C254 H274 0.929 . S
C255 C252 1.462 . S
C255 C254 1.474 1_545 S
C256 C251 1.342 . S
C256 C254 1.286 1_545 S
C256 H275 0.930 . S
C257 C260 1.424 . S
C257 C262 1.245 . S
C257 C263 1.428 . S
C258 C261 1.260 . S
C258 C262 1.477 . S
C258 H276 0.932 . S
C259 C260 1.384 . S
C259 C261 1.479 . S
C259 H277 0.929 . S
C260 C257 1.424 . S
C260 C259 1.384 . S
C260 H278 0.928 . S
C261 C258 1.260 . S
C261 C259 1.479 . S
C262 C257 1.245 . S
C262 C258 1.477 . S
C262 H279 0.932 . S
C263 U246 2.882 . S
C263 C257 1.428 . S
C263 O266 1.301 . S
C263 O267 1.282 . S
O264 U246 2.441 1_556 S
O264 C250 1.249 . S
O265 U246 2.420 1_556 S
O265 C250 1.202 . S
O266 U246 2.455 . S
O266 C263 1.301 . S
O267 U246 2.449 . S
O267 C263 1.282 . S
H268 C241 0.931 . S
H269 C243 0.929 . S
H270 C244 0.923 1_565 S
H271 C245 0.931 . S
H272 C252 0.932 . S
H273 C253 0.930 1_556 S
H274 C254 0.929 . S
H275 C256 0.930 . S
H276 C258 0.932 . S
H277 C259 0.929 . S
H278 C260 0.928 . S
H279 C262 0.932 . S
C280 C281 1.264 . S
C280 C285 1.479 . S
C280 C290 1.465 . S
C281 C280 1.264 . S
C281 C283 1.339 . S
C281 H308 0.931 . S
C282 C283 1.395 . S
C282 C284 1.320 . S
C283 C281 1.339 . S
C283 C282 1.395 . S
C283 H309 0.929 . S
C284 C282 1.320 . S
C284 C285 1.405 . S
C284 H310 0.930 . S
C285 C280 1.479 . S
C285 C284 1.405 . S
C285 H311 0.931 . S
U286 O287 2.454 . S
U286 O288 2.458 . S
U286 C289 2.984 . S
U286 C290 2.847 1_554 S
U286 C303 2.882 . S
U286 O304 2.441 1_554 S
U286 O305 2.420 1_554 S
U286 O306 2.455 . S
U286 O307 2.449 . S
O287 U286 2.454 . S
O287 C289 1.353 . S
O288 U286 2.458 . S
O288 C289 1.286 . S
C289 U286 2.984 . S
C289 O287 1.353 . S
C289 O288 1.286 . S
C289 C291 1.363 . S
C290 C280 1.465 . S
C290 U286 2.847 1_556 S
C290 O304 1.249 . S
C290 O305 1.202 . S
C291 C289 1.363 . S
C291 C293 1.408 . S
C291 C296 1.342 . S
C292 C293 1.310 . S
C292 C295 1.461 . S
C292 H312 0.932 . S
C293 C291 1.408 . S
C293 C292 1.310 . S
C293 H313 0.930 1_554 S
C294 C295 1.474 . S
C294 C296 1.285 . S
C294 H314 0.929 . S
C295 C292 1.461 . S
C295 C294 1.474 . S
C296 C291 1.342 . S
C296 C294 1.285 . S
C296 H315 0.930 . S
C297 C300 1.424 . S
C297 C302 1.245 . S
C297 C303 1.428 . S
C298 C301 1.260 . S
C298 C302 1.477 . S
C298 H316 0.932 . S
C299 C300 1.384 . S
C299 C301 1.479 . S
C299 H317 0.929 . S
C300 C297 1.424 . S
C300 C299 1.384 . S
C300 H318 0.928 . S
C301 C298 1.260 . S
C301 C299 1.479 . S
C302 C297 1.245 . S
C302 C298 1.477 . S
C302 H319 0.932 . S
C303 U286 2.882 . S
C303 C297 1.428 . S
C303 O306 1.301 . S
C303 O307 1.282 . S
O304 U286 2.441 1_556 S
O304 C290 1.249 . S
O305 U286 2.420 1_556 S
O305 C290 1.202 . S
O306 U286 2.455 . S
O306 C303 1.301 . S
O307 U286 2.449 . S
O307 C303 1.282 . S
H308 C281 0.931 . S
H309 C283 0.929 . S
H310 C284 0.930 . S
H311 C285 0.931 . S
H312 C292 0.932 . S
H313 C293 0.930 1_556 S
H314 C294 0.929 . S
H315 C296 0.930 . S
H316 C298 0.932 . S
H317 C299 0.929 . S
H318 C300 0.928 . S
H319 C302 0.932 . S
Pr320 C322 2.880 . S
Pr320 O340 2.562 . S
Pr320 O341 2.490 . S
Pr320 O342 2.695 1_565 S
Pr320 O343 2.512 . S
Pr320 O345 2.437 . S
Pr320 O348 2.436 1_455 S
Pr320 O350 2.438 1_565 S
Pr321 C331 2.880 . S
Pr321 O342 2.436 1_655 S
Pr321 O344 2.438 1_545 S
Pr321 O346 2.562 . S
Pr321 O347 2.490 . S
Pr321 O348 2.695 1_545 S
Pr321 O349 2.512 . S
Pr321 O351 2.437 . S
C322 Pr320 2.880 . S
C322 C323 1.491 . S
C322 O340 1.254 . S
C322 O341 1.225 . S
C323 C322 1.491 . S
C323 C324 1.392 . S
C323 C328 1.356 . S
C324 C323 1.392 . S
C324 C325 1.368 . S
C324 H352 0.929 . S
C325 C324 1.368 . S
C325 C326 1.386 1_556 S
C325 H353 0.929 . S
C326 C325 1.386 1_554 S
C326 C327 1.373 1_554 S
C327 C326 1.373 1_556 S
C327 C328 1.409 . S
C327 H354 0.931 1_556 S
C328 C323 1.356 . S
C328 C327 1.409 . S
C328 H355 0.930 1_455 S
C329 O342 1.270 1_565 S
C329 O343 1.248 . S
C330 O344 1.267 . S
C330 O345 1.278 1_655 S
C331 Pr321 2.880 . S
C331 C332 1.491 . S
C331 O346 1.254 . S
C331 O347 1.225 . S
C332 C331 1.491 . S
C332 C333 1.392 . S
C332 C337 1.356 . S
C333 C332 1.392 . S
C333 C334 1.368 . S
C333 H356 0.929 . S
C334 C333 1.368 . S
C334 C335 1.386 . S
C334 H357 0.929 . S
C335 C334 1.386 . S
C335 C336 1.373 . S
C336 C335 1.373 . S
C336 C337 1.409 . S
C336 H358 0.931 . S
C337 C332 1.356 . S
C337 C336 1.409 . S
C337 H359 0.930 1_655 S
C338 O348 1.270 1_545 S
C338 O349 1.248 . S
C339 O350 1.267 . S
C339 O351 1.278 1_455 S
O340 Pr320 2.562 . S
O340 C322 1.254 . S
O341 Pr320 2.490 . S
O341 C322 1.225 . S
O342 Pr320 2.695 1_545 S
O342 Pr321 2.436 1_455 S
O342 C329 1.270 1_545 S
O343 Pr320 2.512 . S
O343 C329 1.248 . S
O344 Pr321 2.438 1_565 S
O344 C330 1.267 . S
O345 Pr320 2.437 . S
O345 C330 1.278 1_455 S
O346 Pr321 2.562 . S
O346 C331 1.254 . S
O347 Pr321 2.490 . S
O347 C331 1.225 . S
O348 Pr320 2.436 1_655 S
O348 Pr321 2.695 1_565 S
O348 C338 1.270 1_565 S
O349 Pr321 2.512 . S
O349 C338 1.248 . S
O350 Pr320 2.438 1_545 S
O350 C339 1.267 . S
O351 Pr321 2.437 . S
O351 C339 1.278 1_655 S
H352 C324 0.929 . S
H353 C325 0.929 . S
H354 C327 0.931 1_554 S
H355 C328 0.930 1_655 S
H356 C333 0.929 . S
H357 C334 0.929 . S
H358 C336 0.931 . S
H359 C337 0.930 1_455 S
Pr360 C362 2.880 . S
Pr360 O380 2.562 . S
Pr360 O381 2.490 . S
Pr360 O382 2.695 . S
Pr360 O383 2.512 . S
Pr360 O385 2.437 . S
Pr360 O388 2.436 1_545 S
Pr360 O390 2.438 . S
Pr361 C371 2.880 . S
Pr361 O382 2.436 1_565 S
Pr361 O384 2.438 . S
Pr361 O386 2.562 . S
Pr361 O387 2.490 . S
Pr361 O388 2.695 . S
Pr361 O389 2.512 . S
Pr361 O391 2.437 . S
C362 Pr360 2.880 . S
C362 C363 1.491 . S
C362 O380 1.254 . S
C362 O381 1.225 . S
C363 C362 1.491 . S
C363 C364 1.392 . S
C363 C368 1.356 . S
C364 C363 1.392 . S
C364 C365 1.368 . S
C364 H392 0.929 . S
C365 C364 1.368 . S
C365 C366 1.386 1_556 S
C365 H393 0.929 . S
C366 C365 1.386 1_554 S
C366 C367 1.373 1_554 S
C367 C366 1.373 1_556 S
C367 C368 1.409 . S
C367 H394 0.940 1_556 S
C368 C363 1.356 . S
C368 C367 1.409 . S
C368 H395 0.930 1_545 S
C369 O382 1.270 . S
C369 O383 1.248 . S
C370 O384 1.267 . S
C370 O385 1.278 1_565 S
C371 Pr361 2.880 . S
C371 C372 1.491 . S
C371 O386 1.254 . S
C371 O387 1.225 . S
C372 C371 1.491 . S
C372 C373 1.392 . S
C372 C377 1.356 . S
C373 C372 1.392 . S
C373 C374 1.368 . S
C373 H396 0.929 . S
C374 C373 1.368 . S
C374 C375 1.386 . S
C374 H397 0.929 . S
C375 C374 1.386 . S
C375 C376 1.373 . S
C376 C375 1.373 . S
C376 C377 1.409 . S
C376 H398 0.932 . S
C377 C372 1.356 . S
C377 C376 1.409 . S
C377 H399 0.930 1_565 S
C378 O388 1.270 . S
C378 O389 1.248 . S
C379 O390 1.267 . S
C379 O391 1.278 1_545 S
O380 Pr360 2.562 . S
O380 C362 1.254 . S
O381 Pr360 2.490 . S
O381 C362 1.225 . S
O382 Pr360 2.695 . S
O382 Pr361 2.436 1_545 S
O382 C369 1.270 . S
O383 Pr360 2.512 . S
O383 C369 1.248 . S
O384 Pr361 2.438 . S
O384 C370 1.267 . S
O385 Pr360 2.437 . S
O385 C370 1.278 1_545 S
O386 Pr361 2.562 . S
O386 C371 1.254 . S
O387 Pr361 2.490 . S
O387 C371 1.225 . S
O388 Pr360 2.436 1_565 S
O388 Pr361 2.695 . S
O388 C378 1.270 . S
O389 Pr361 2.512 . S
O389 C378 1.248 . S
O390 Pr360 2.438 . S
O390 C379 1.267 . S
O391 Pr361 2.437 . S
O391 C379 1.278 1_565 S
H392 C364 0.929 . S
H393 C365 0.929 . S
H394 C367 0.940 1_554 S
H395 C368 0.930 1_565 S
H396 C373 0.929 . S
H397 C374 0.929 . S
H398 C376 0.932 . S
H399 C377 0.930 1_545 S
Pr400 C402 2.880 . S
Pr400 O420 2.562 . S
Pr400 O421 2.490 . S
Pr400 O422 2.695 . S
Pr400 O423 2.512 . S
Pr400 O425 2.437 . S
Pr400 O428 2.436 . S
Pr400 O430 2.438 . S
Pr401 C411 2.880 . S
Pr401 O422 2.436 . S
Pr401 O424 2.438 . S
Pr401 O426 2.562 . S
Pr401 O427 2.490 . S
Pr401 O428 2.695 . S
Pr401 O429 2.512 . S
Pr401 O431 2.437 . S
C402 Pr400 2.880 . S
C402 C403 1.491 . S
C402 O420 1.254 . S
C402 O421 1.225 . S
C403 C402 1.491 . S
C403 C404 1.392 . S
C403 C408 1.356 . S
C404 C403 1.392 . S
C404 C405 1.368 . S
C404 H432 0.929 . S
C405 C404 1.368 . S
C405 C406 1.386 1_556 S
C405 H433 0.929 . S
C406 C405 1.386 1_554 S
C406 C407 1.374 . S
C407 C406 1.374 . S
C407 C408 1.403 1_554 S
C407 H434 0.935 . S
C408 C403 1.356 . S
C408 C407 1.403 1_556 S
C408 H435 0.930 . S
C409 O422 1.270 . S
C409 O423 1.248 . S
C410 O424 1.267 . S
C410 O425 1.278 . S
C411 Pr401 2.880 . S
C411 C412 1.491 . S
C411 O426 1.254 . S
C411 O427 1.225 . S
C412 C411 1.491 . S
C412 C413 1.392 . S
C412 C417 1.356 . S
C413 C412 1.392 . S
C413 C414 1.368 . S
C413 H436 0.929 . S
C414 C413 1.368 . S
C414 C415 1.386 . S
C414 H437 0.929 . S
C415 C414 1.386 . S
C415 C416 1.373 . S
C416 C415 1.373 . S
C416 C417 1.409 . S
C416 H438 0.931 . S
C417 C412 1.356 . S
C417 C416 1.409 . S
C417 H439 0.930 . S
C418 O428 1.270 . S
C418 O429 1.248 . S
C419 O430 1.267 . S
C419 O431 1.278 . S
O420 Pr400 2.562 . S
O420 C402 1.254 . S
O421 Pr400 2.490 . S
O421 C402 1.225 . S
O422 Pr400 2.695 . S
O422 Pr401 2.436 . S
O422 C409 1.270 . S
O423 Pr400 2.512 . S
O423 C409 1.248 . S
O424 Pr401 2.438 . S
O424 C410 1.267 . S
O425 Pr400 2.437 . S
O425 C410 1.278 . S
O426 Pr401 2.562 . S
O426 C411 1.254 . S
O427 Pr401 2.490 . S
O427 C411 1.225 . S
O428 Pr400 2.436 . S
O428 Pr401 2.695 . S
O428 C418 1.270 . S
O429 Pr401 2.512 . S
O429 C418 1.248 . S
O430 Pr400 2.438 . S
O430 C419 1.267 . S
O431 Pr401 2.437 . S
O431 C419 1.278 . S
H432 C404 0.929 . S
H433 C405 0.929 . S
H434 C407 0.935 . S
H435 C408 0.930 . S
H436 C413 0.929 . S
H437 C414 0.929 . S
H438 C416 0.931 . S
H439 C417 0.930 . S
Pr440 C442 2.880 . S
Pr440 O460 2.562 . S
Pr440 O461 2.490 . S
Pr440 O462 2.695 1_655 S
Pr440 O463 2.512 . S
Pr440 O465 2.437 . S
Pr440 O468 2.436 . S
Pr440 O470 2.438 1_655 S
Pr441 C451 2.880 . S
Pr441 O462 2.436 . S
Pr441 O464 2.438 1_455 S
Pr441 O466 2.562 . S
Pr441 O467 2.490 . S
Pr441 O468 2.695 1_455 S
Pr441 O469 2.512 . S
Pr441 O471 2.437 . S
C442 Pr440 2.880 . S
C442 C443 1.491 . S
C442 O460 1.254 . S
C442 O461 1.225 . S
C443 C442 1.491 . S
C443 C444 1.392 . S
C443 C448 1.356 . S
C444 C443 1.392 . S
C444 C445 1.368 . S
C444 H472 0.929 . S
C445 C444 1.368 . S
C445 C446 1.386 1_556 S
C445 H473 0.929 . S
C446 C445 1.386 1_554 S
C446 C447 1.372 1_554 S
C447 C446 1.372 1_556 S
C447 C448 1.412 . S
C447 H474 0.928 1_556 S
C448 C443 1.356 . S
C448 C447 1.412 . S
C448 H475 0.930 . S
C449 O462 1.263 1_655 S
C449 O463 1.261 . S
C450 O464 1.267 . S
C450 O465 1.278 . S
C451 Pr441 2.880 . S
C451 C452 1.491 . S
C451 O466 1.254 . S
C451 O467 1.225 . S
C452 C451 1.491 . S
C452 C453 1.392 . S
C452 C457 1.356 . S
C453 C452 1.392 . S
C453 C454 1.368 . S
C453 H476 0.929 . S
C454 C453 1.368 . S
C454 C455 1.386 . S
C454 H477 0.929 . S
C455 C454 1.386 . S
C455 C456 1.373 . S
C456 C455 1.373 . S
C456 C457 1.409 . S
C456 H478 0.931 . S
C457 C452 1.356 . S
C457 C456 1.409 . S
C457 H479 0.930 . S
C458 O468 1.260 1_455 S
C458 O469 1.267 . S
C459 O470 1.267 . S
C459 O471 1.278 . S
O460 Pr440 2.562 . S
O460 C442 1.254 . S
O461 Pr440 2.490 . S
O461 C442 1.225 . S
O462 Pr440 2.695 1_455 S
O462 Pr441 2.436 . S
O462 C449 1.263 1_455 S
O463 Pr440 2.512 . S
O463 C449 1.261 . S
O464 Pr441 2.438 1_655 S
O464 C450 1.267 . S
O465 Pr440 2.437 . S
O465 C450 1.278 . S
O466 Pr441 2.562 . S
O466 C451 1.254 . S
O467 Pr441 2.490 . S
O467 C451 1.225 . S
O468 Pr440 2.436 . S
O468 Pr441 2.695 1_655 S
O468 C458 1.260 1_655 S
O469 Pr441 2.512 . S
O469 C458 1.267 . S
O470 Pr440 2.438 1_455 S
O470 C459 1.267 . S
O471 Pr441 2.437 . S
O471 C459 1.278 . S
H472 C444 0.929 . S
H473 C445 0.929 . S
H474 C447 0.928 1_554 S
H475 C448 0.930 . S
H476 C453 0.929 . S
H477 C454 0.929 . S
H478 C456 0.931 . S
H479 C457 0.930 . S
C480 C481 1.374 . S
C480 C482 1.419 . S
C480 H484 0.930 . S
C481 C480 1.374 . S
C481 C490 1.424 1_545 S
C482 C480 1.419 . S
C482 C483 1.386 . S
C482 H485 0.929 . S
C483 C482 1.386 . S
C483 C489 1.405 1_545 S
H484 C480 0.930 . S
H485 C482 0.929 . S
S486 N487 1.613 . S
S486 N488 1.610 . S
N487 S486 1.613 . S
N487 C490 1.350 . S
N488 S486 1.610 . S
N488 C489 1.351 . S
C489 C483 1.405 1_565 S
C489 N488 1.351 . S
C489 C490 1.434 . S
C490 C481 1.424 1_565 S
C490 N487 1.350 . S
C490 C489 1.434 . S
C491 C492 1.369 . S
C491 C493 1.419 . S
C491 H495 0.930 . S
C492 C491 1.369 . S
C492 C501 1.429 . S
C493 C491 1.419 . S
C493 C494 1.363 . S
C493 H496 0.929 . S
C494 C493 1.363 . S
C494 C500 1.428 . S
H495 C491 0.930 . S
H496 C493 0.929 . S
S497 N498 1.613 . S
S497 N499 1.610 . S
N498 S497 1.613 . S
N498 C501 1.350 . S
N499 S497 1.610 . S
N499 C500 1.351 . S
C500 C494 1.428 . S
C500 N499 1.351 . S
C500 C501 1.434 . S
C501 C492 1.429 . S
C501 N498 1.350 . S
C501 C500 1.434 . S
C502 C503 1.369 . S
C502 C504 1.419 . S
C502 H506 0.930 . S
C503 C502 1.369 . S
C503 C512 1.429 . S
C504 C502 1.419 . S
C504 C505 1.363 . S
C504 H507 0.929 . S
C505 C504 1.363 . S
C505 C511 1.428 . S
H506 C502 0.930 . S
H507 C504 0.929 . S
S508 N509 1.613 . S
S508 N510 1.610 . S
N509 S508 1.613 . S
N509 C512 1.350 . S
N510 S508 1.610 . S
N510 C511 1.351 . S
C511 C505 1.428 . S
C511 N510 1.351 . S
C511 C512 1.434 . S
C512 C503 1.429 . S
C512 N509 1.350 . S
C512 C511 1.434 . S
C513 C514 1.337 1_655 S
C513 C515 1.419 . S
C513 H517 0.930 . S
C514 C513 1.337 1_455 S
C514 C523 1.463 . S
C515 C513 1.419 . S
C515 C516 1.363 1_655 S
C515 H518 0.929 . S
C516 C515 1.363 1_455 S
C516 C522 1.428 . S
H517 C513 0.930 . S
H518 C515 0.929 . S
S519 N520 1.613 . S
S519 N521 1.610 . S
N520 S519 1.613 . S
N520 C523 1.350 . S
N521 S519 1.610 . S
N521 C522 1.351 . S
C522 C516 1.428 . S
C522 N521 1.351 . S
C522 C523 1.434 . S
C523 C514 1.463 . S
C523 N520 1.350 . S
C523 C522 1.434 . S
C524 C525 1.351 1_545 S
C524 C526 1.419 . S
C524 H528 0.930 . S
C525 C524 1.351 1_565 S
C525 C534 1.448 . S
C526 C524 1.419 . S
C526 C527 1.328 1_544 S
C526 H529 0.929 1_554 S
C527 C526 1.328 1_566 S
C527 C533 1.464 1_556 S
H528 C524 0.930 . S
H529 C526 0.929 1_556 S
S530 N531 1.613 . S
S530 N532 1.610 1_554 S
N531 S530 1.613 . S
N531 C534 1.350 . S
N532 S530 1.610 1_556 S
N532 C533 1.351 1_556 S
C533 C527 1.464 1_554 S
C533 N532 1.351 1_554 S
C533 C534 1.434 . S
C534 C525 1.448 . S
C534 N531 1.350 . S
C534 C533 1.434 . S
C535 C536 1.369 . S
C535 C537 1.419 . S
C535 H539 0.930 . S
C536 C535 1.369 . S
C536 C545 1.429 . S
C537 C535 1.419 . S
C537 C538 1.363 1_554 S
C537 H540 0.929 1_554 S
C538 C537 1.363 1_556 S
C538 C544 1.428 1_556 S
H539 C535 0.930 . S
H540 C537 0.929 1_556 S
S541 N542 1.613 . S
S541 N543 1.610 1_554 S
N542 S541 1.613 . S
N542 C545 1.350 . S
N543 S541 1.610 1_556 S
N543 C544 1.351 1_556 S
C544 C538 1.428 1_554 S
C544 N543 1.351 1_554 S
C544 C545 1.434 . S
C545 C536 1.429 . S
C545 N542 1.350 . S
C545 C544 1.434 . S
C546 C547 1.369 . S
C546 C548 1.419 . S
C546 H550 0.930 . S
C547 C546 1.369 . S
C547 C556 1.429 . S
C548 C546 1.419 . S
C548 C549 1.363 1_554 S
C548 H551 0.929 1_554 S
C549 C548 1.363 1_556 S
C549 C555 1.428 1_556 S
H550 C546 0.930 . S
H551 C548 0.929 1_556 S
S552 N553 1.613 . S
S552 N554 1.610 1_554 S
N553 S552 1.613 . S
N553 C556 1.350 . S
N554 S552 1.610 1_556 S
N554 C555 1.351 1_556 S
C555 C549 1.428 1_554 S
C555 N554 1.351 1_554 S
C555 C556 1.434 . S
C556 C547 1.429 . S
C556 N553 1.350 . S
C556 C555 1.434 . S
C557 C558 1.353 1_455 S
C557 C559 1.419 . S
C557 H561 0.930 . S
C558 C557 1.353 1_655 S
C558 C567 1.447 . S
C559 C557 1.419 . S
C559 C560 1.363 1_454 S
C559 H562 0.929 1_554 S
C560 C559 1.363 1_656 S
C560 C566 1.428 1_556 S
H561 C557 0.930 . S
H562 C559 0.929 1_556 S
S563 N564 1.613 . S
S563 N565 1.610 1_554 S
N564 S563 1.613 . S
N564 C567 1.350 . S
N565 S563 1.610 1_556 S
N565 C566 1.351 1_556 S
C566 C560 1.428 1_554 S
C566 N565 1.351 1_554 S
C566 C567 1.434 . S
C567 C558 1.447 . S
C567 N564 1.350 . S
C567 C566 1.434 . S
C568 C569 1.369 . S
C568 C570 1.419 . S
C568 H572 0.932 . S
C569 C568 1.369 . S
C569 C578 1.429 . S
C570 C568 1.419 . S
C570 C571 1.363 . S
C570 H573 0.929 . S
C571 C570 1.363 . S
C571 C577 1.428 . S
H572 C568 0.932 . S
H573 C570 0.929 . S
S574 N575 1.613 . S
S574 N576 1.610 . S
N575 S574 1.613 . S
N575 C578 1.350 . S
N576 S574 1.610 . S
N576 C577 1.351 . S
C577 C571 1.428 . S
C577 N576 1.351 . S
C577 C578 1.434 . S
C578 C569 1.429 . S
C578 N575 1.350 . S
C578 C577 1.434 . S
C579 C580 1.369 1_545 S
C579 C581 1.419 1_545 S
C579 H583 0.930 . S
C580 C579 1.369 1_565 S
C580 C589 1.429 . S
C581 C579 1.419 1_565 S
C581 C582 1.363 . S
C581 H584 0.929 . S
C582 C581 1.363 . S
C582 C588 1.428 . S
H583 C579 0.930 . S
H584 C581 0.929 . S
S585 N586 1.613 . S
S585 N587 1.610 . S
N586 S585 1.613 . S
N586 C589 1.350 . S
N587 S585 1.610 . S
N587 C588 1.351 . S
C588 C582 1.428 . S
C588 N587 1.351 . S
C588 C589 1.434 . S
C589 C580 1.429 . S
C589 N586 1.350 . S
C589 C588 1.434 . S
C590 C591 1.369 . S
C590 C592 1.419 . S
C590 H594 0.930 . S
C591 C590 1.369 . S
C591 C600 1.429 . S
C592 C590 1.419 . S
C592 C593 1.363 . S
C592 H595 0.929 . S
C593 C592 1.363 . S
C593 C599 1.428 . S
H594 C590 0.930 . S
H595 C592 0.929 . S
S596 N597 1.613 . S
S596 N598 1.610 . S
N597 S596 1.613 . S
N597 C600 1.350 . S
N598 S596 1.610 . S
N598 C599 1.351 . S
C599 C593 1.428 . S
C599 N598 1.351 . S
C599 C600 1.434 . S
C600 C591 1.429 . S
C600 N597 1.350 . S
C600 C599 1.434 . S
C601 C602 1.369 . S
C601 C603 1.419 . S
C601 H605 0.930 . S
C602 C601 1.369 . S
C602 C611 1.429 . S
C603 C601 1.419 . S
C603 C604 1.363 . S
C603 H606 0.929 . S
C604 C603 1.363 . S
C604 C610 1.428 . S
H605 C601 0.930 . S
H606 C603 0.929 . S
S607 N608 1.613 . S
S607 N609 1.610 . S
N608 S607 1.613 . S
N608 C611 1.350 . S
N609 S607 1.610 . S
N609 C610 1.351 . S
C610 C604 1.428 . S
C610 N609 1.351 . S
C610 C611 1.434 . S
C611 C602 1.429 . S
C611 N608 1.350 . S
C611 C610 1.434 . S
C612 C613 1.369 1_655 S
C612 C614 1.419 1_655 S
C612 H616 0.930 . S
C613 C612 1.369 1_455 S
C613 C622 1.429 . S
C614 C612 1.419 1_455 S
C614 C615 1.363 . S
C614 H617 0.929 1_554 S
C615 C614 1.363 . S
C615 C621 1.428 . S
H616 C612 0.930 . S
H617 C614 0.929 1_556 S
S618 N619 1.613 . S
S618 N620 1.610 . S
N619 S618 1.613 . S
N619 C622 1.350 . S
N620 S618 1.610 . S
N620 C621 1.351 . S
C621 C615 1.428 . S
C621 N620 1.351 . S
C621 C622 1.434 . S
C622 C613 1.429 . S
C622 N619 1.350 . S
C622 C621 1.434 . S
C623 C624 1.407 . S
C623 C625 1.419 1_554 S
C623 H627 0.930 1_554 S
C624 C623 1.407 . S
C624 C633 1.425 1_545 S
C625 C623 1.419 1_556 S
C625 C626 1.363 1_556 S
C625 H628 0.929 . S
C626 C625 1.363 1_554 S
C626 C632 1.428 . S
H627 C623 0.930 1_556 S
H628 C625 0.929 . S
S629 N630 1.613 . S
S629 N631 1.610 1_565 S
N630 S629 1.613 . S
N630 C633 1.350 . S
N631 S629 1.610 1_545 S
N631 C632 1.351 . S
C632 C626 1.428 . S
C632 N631 1.351 . S
C632 C633 1.434 1_545 S
C633 C624 1.425 1_565 S
C633 N630 1.350 . S
C633 C632 1.434 1_565 S
C634 C635 1.369 . S
C634 C636 1.419 . S
C634 H638 0.930 . S
C635 C634 1.369 . S
C635 C644 1.429 . S
C636 C634 1.419 . S
C636 C637 1.363 . S
C636 H639 0.929 . S
C637 C636 1.363 . S
C637 C643 1.428 . S
H638 C634 0.930 . S
H639 C636 0.929 . S
S640 N641 1.613 . S
S640 N642 1.610 . S
N641 S640 1.613 . S
N641 C644 1.350 . S
N642 S640 1.610 . S
N642 C643 1.351 . S
C643 C637 1.428 . S
C643 N642 1.351 . S
C643 C644 1.434 . S
C644 C635 1.429 . S
C644 N641 1.350 . S
C644 C643 1.434 . S
C645 C646 1.369 1_556 S
C645 C647 1.419 . S
C645 H649 0.930 . S
C646 C645 1.369 1_554 S
C646 C655 1.429 . S
C647 C645 1.419 . S
C647 C648 1.363 1_556 S
C647 H650 0.929 . S
C648 C647 1.363 1_554 S
C648 C654 1.428 . S
H649 C645 0.930 . S
H650 C647 0.929 . S
S651 N652 1.613 . S
S651 N653 1.610 . S
N652 S651 1.613 . S
N652 C655 1.350 . S
N653 S651 1.610 . S
N653 C654 1.351 . S
C654 C648 1.428 . S
C654 N653 1.351 . S
C654 C655 1.434 . S
C655 C646 1.429 . S
C655 N652 1.350 . S
C655 C654 1.434 . S
C656 C657 1.369 . S
C656 C658 1.419 . S
C656 H660 0.930 . S
C657 C656 1.369 . S
C657 C666 1.429 . S
C658 C656 1.419 . S
C658 C659 1.363 . S
C658 H661 0.929 . S
C659 C658 1.363 . S
C659 C665 1.428 . S
H660 C656 0.930 . S
H661 C658 0.929 . S
S662 N663 1.613 . S
S662 N664 1.610 1_655 S
N663 S662 1.613 . S
N663 C666 1.350 1_655 S
N664 S662 1.610 1_455 S
N664 C665 1.351 . S
C665 C659 1.428 . S
C665 N664 1.351 . S
C665 C666 1.434 . S
C666 C657 1.429 . S
C666 N663 1.350 1_455 S
C666 C665 1.434 . S
C667 C668 1.369 1_565 S
C667 C669 1.419 . S
C667 H671 0.930 . S
C668 C667 1.369 1_545 S
C668 C677 1.429 . S
C669 C667 1.419 . S
C669 C670 1.363 1_565 S
C669 H672 0.929 . S
C670 C669 1.363 1_545 S
C670 C676 1.428 . S
H671 C667 0.930 . S
H672 C669 0.929 . S
S673 N674 1.613 . S
S673 N675 1.610 . S
N674 S673 1.613 . S
N674 C677 1.350 . S
N675 S673 1.610 . S
N675 C676 1.351 . S
C676 C670 1.428 . S
C676 N675 1.351 . S
C676 C677 1.434 . S
C677 C668 1.429 . S
C677 N674 1.350 . S
C677 C676 1.434 . S
C678 C679 1.369 . S
C678 C680 1.419 . S
C678 H682 0.930 . S
C679 C678 1.369 . S
C679 C688 1.429 . S
C680 C678 1.419 . S
C680 C681 1.363 . S
C680 H683 0.929 . S
C681 C680 1.363 . S
C681 C687 1.428 . S
H682 C678 0.930 . S
H683 C680 0.929 . S
S684 N685 1.613 . S
S684 N686 1.610 . S
N685 S684 1.613 . S
N685 C688 1.350 . S
N686 S684 1.610 . S
N686 C687 1.351 . S
C687 C681 1.428 . S
C687 N686 1.351 . S
C687 C688 1.434 . S
C688 C679 1.429 . S
C688 N685 1.350 . S
C688 C687 1.434 . S
C689 C690 1.369 . S
C689 C691 1.419 . S
C689 H693 0.930 . S
C690 C689 1.369 . S
C690 C699 1.429 . S
C691 C689 1.419 . S
C691 C692 1.363 . S
C691 H694 0.929 . S
C692 C691 1.363 . S
C692 C698 1.428 . S
H693 C689 0.930 . S
H694 C691 0.929 . S
S695 N696 1.613 . S
S695 N697 1.610 . S
N696 S695 1.613 . S
N696 C699 1.350 . S
N697 S695 1.610 . S
N697 C698 1.351 . S
C698 C692 1.428 . S
C698 N697 1.351 . S
C698 C699 1.434 . S
C699 C690 1.429 . S
C699 N696 1.350 . S
C699 C698 1.434 . S
C700 C701 1.365 1_455 S
C700 C702 1.417 1_455 S
C700 H704 0.936 . S
C701 C700 1.365 1_655 S
C701 C710 1.429 . S
C702 C700 1.417 1_655 S
C702 C703 1.363 . S
C702 H705 0.929 1_655 S
C703 C702 1.363 . S
C703 C709 1.428 . S
H704 C700 0.936 . S
H705 C702 0.929 1_455 S
S706 N707 1.613 . S
S706 N708 1.610 . S
N707 S706 1.613 . S
N707 C710 1.350 . S
N708 S706 1.610 . S
N708 C709 1.351 . S
C709 C703 1.428 . S
C709 N708 1.351 . S
C709 C710 1.434 . S
C710 C701 1.429 . S
C710 N707 1.350 . S
C710 C709 1.434 . S
C711 C712 1.369 . S
C711 C713 1.419 . S
C711 H715 0.930 . S
C712 C711 1.369 . S
C712 C721 1.421 1_565 S
C713 C711 1.419 . S
C713 C714 1.363 . S
C713 H716 0.929 . S
C714 C713 1.363 . S
C714 C720 1.428 . S
H715 C711 0.930 . S
H716 C713 0.929 . S
S717 N718 1.613 . S
S717 N719 1.610 . S
N718 S717 1.613 . S
N718 C721 1.365 . S
N719 S717 1.610 . S
N719 C720 1.351 1_545 S
C720 C714 1.428 . S
C720 N719 1.351 1_565 S
C720 C721 1.431 1_565 S
C721 C712 1.421 1_545 S
C721 N718 1.365 . S
C721 C720 1.431 1_545 S
C722 C723 1.369 . S
C722 C724 1.419 . S
C722 H726 0.930 . S
C723 C722 1.369 . S
C723 C732 1.429 . S
C724 C722 1.419 . S
C724 C725 1.363 . S
C724 H727 0.929 . S
C725 C724 1.363 . S
C725 C731 1.428 . S
H726 C722 0.930 . S
H727 C724 0.929 . S
S728 N729 1.613 . S
S728 N730 1.610 . S
N729 S728 1.613 . S
N729 C732 1.350 . S
N730 S728 1.610 . S
N730 C731 1.351 . S
C731 C725 1.428 . S
C731 N730 1.351 . S
C731 C732 1.434 . S
C732 C723 1.429 . S
C732 N729 1.350 . S
C732 C731 1.434 . S
C733 C734 1.369 . S
C733 C735 1.419 . S
C733 H737 0.930 . S
C734 C733 1.369 . S
C734 C743 1.429 . S
C735 C733 1.419 . S
C735 C736 1.363 . S
C735 H738 0.929 . S
C736 C735 1.363 . S
C736 C742 1.428 . S
H737 C733 0.930 . S
H738 C735 0.929 . S
S739 N740 1.613 . S
S739 N741 1.610 . S
N740 S739 1.613 . S
N740 C743 1.350 . S
N741 S739 1.610 . S
N741 C742 1.351 . S
C742 C736 1.428 . S
C742 N741 1.351 . S
C742 C743 1.434 . S
C743 C734 1.429 . S
C743 N740 1.350 . S
C743 C742 1.434 . S
C481 C255 2.623 . S
C483 C329 2.961 1_545 S
C494 C369 2.980 . S
C492 C295 2.633 . S
C505 C409 2.982 . S
C503 C175 2.642 . S
C516 C449 2.967 1_455 S
C514 C215 2.620 . S
C527 C338 2.964 1_565 S
C525 C95 2.625 1_565 S
C536 C135 2.639 . S
C538 C378 2.980 . S
C547 C15 2.640 . S
C549 C418 2.983 . S
C558 C55 2.628 1_655 S
C560 C458 2.964 1_655 S
C571 C335 0.807 . S
C569 C221 0.798 1_655 S
C582 C375 0.806 . S
C580 C261 0.804 1_565 S
C593 C415 0.761 . S
C591 C301 0.775 . S
C602 C181 0.776 . S
C604 C455 0.758 . S
C613 C61 0.769 . S
C615 C326 0.812 . S
C626 C366 0.789 . S
C624 C101 0.797 . S
C637 C406 0.758 . S
C635 C141 0.779 . S
C646 C21 0.768 . S
C648 C446 0.771 . S
C657 C202 3.600 . S
C659 C339 4.066 . S
C668 C242 3.570 . S
C670 C379 4.051 . S
C681 C419 4.045 . S
C679 C282 3.563 . S
C692 C459 4.067 . S
C690 C162 3.581 . S
C701 C42 3.618 1_655 S
C703 C330 4.078 . S
C714 C370 4.050 . S
C712 C82 3.594 1_565 S
C725 C410 4.045 . S
C723 C122 3.603 . S
C734 C2 3.619 . S
C736 C450 4.074 . S
