# Generated by pormake.
# Topology nia, (6,6)-cn, num edge types: 1
# Building blocks:
#     Node 0, Type 0, BuildingBlock: CUWYAW_clean_sbu_0, # of connection points: 6
#     Node 1, Type 0, BuildingBlock: CUWYAW_clean_sbu_0, # of connection points: 6
#     Node 2, Type 1, BuildingBlock: MIDCAF_clean_sbu_0, # of connection points: 6
#     Node 3, Type 1, BuildingBlock: MIDCAF_clean_sbu_0, # of connection points: 6
#     Edge 4, Type (0, 1), BuildingBlock: EZIPEK_clean_linker_0, # of connection points: 2
#     Edge 5, Type (0, 1), BuildingBlock: EZIPEK_clean_linker_0, # of connection points: 2
#     Edge 6, Type (0, 1), BuildingBlock: EZIPEK_clean_linker_0, # of connection points: 2
#     Edge 7, Type (0, 1), BuildingBlock: EZIPEK_clean_linker_0, # of connection points: 2
#     Edge 8, Type (0, 1), BuildingBlock: EZIPEK_clean_linker_0, # of connection points: 2
#     Edge 9, Type (0, 1), BuildingBlock: EZIPEK_clean_linker_0, # of connection points: 2
#     Edge 10, Type (0, 1), BuildingBlock: EZIPEK_clean_linker_0, # of connection points: 2
#     Edge 11, Type (0, 1), BuildingBlock: EZIPEK_clean_linker_0, # of connection points: 2
#     Edge 12, Type (0, 1), BuildingBlock: EZIPEK_clean_linker_0, # of connection points: 2
#     Edge 13, Type (0, 1), BuildingBlock: EZIPEK_clean_linker_0, # of connection points: 2
#     Edge 14, Type (0, 1), BuildingBlock: EZIPEK_clean_linker_0, # of connection points: 2
#     Edge 15, Type (0, 1), BuildingBlock: EZIPEK_clean_linker_0, # of connection points: 2
# Relax obj value: 0.336
# Max RMSD: 0.286
# Mean RMSD: 0.252
data_MOF--net-nia--node1-CUWYAW_clean_sbu_0--node2-MIDCAF_clean_sbu_0--edge1-EZIPEK_clean_linker_0
_symmetry_space_group_name_H-M    P1
_symmetry_Int_Tables_number       1
_symmetry_cell_setting            triclinic
loop_
_symmetry_equiv_pos_as_xyz
'x, y, z'
_cell_length_a     22.17727
_cell_length_b     19.45596
_cell_length_c     27.229952
_cell_angle_alpha  105.8834
_cell_angle_beta   66.068096
_cell_angle_gamma 129.94516
loop_
_atom_site_label
_atom_site_type_symbol
_atom_site_fract_x
_atom_site_fract_y
_atom_site_fract_z
_atom_type_partial_charge
C0 C 0.07791 0.8954 0.04782 0.0
Eu1 Eu 0.01918 0.96417 0.03163 0.0
C2 C 0.06689 0.84556 0.0864 0.0
C3 C 0.0667 0.87734 0.13946 0.0
C4 C 0.0784 0.84302 0.17069 0.0
C5 C 0.09038 0.77704 0.14902 0.0
C6 C 0.08175 0.73888 0.09834 0.0
C7 C 0.0702 0.77319 0.06712 0.0
C8 C 0.86381 0.92417 0.08843 0.0
C9 C 0.93963 0.88615 0.93586 0.0
C10 C 0.93434 0.14513 0.97314 0.0
Eu11 Eu 0.99759 0.08045 0.98755 0.0
C12 C 0.94715 0.2047 0.94125 0.0
C13 C 0.00937 0.2361 0.89141 0.0
C14 C 0.00867 0.27739 0.85709 0.0
C15 C 0.94504 0.28571 0.87259 0.0
C16 C 0.88695 0.26006 0.92399 0.0
C17 C 0.88798 0.21969 0.95812 0.0
C18 C 0.15285 0.11978 0.93126 0.0
C19 C 0.0725 0.15839 0.08555 0.0
O20 O 0.0233 0.85223 0.02226 0.0
O21 O 0.10367 0.97802 0.06109 0.0
O22 O 0.89198 0.8876 0.09572 0.0
O23 O 0.92127 0.9795 0.05099 0.0
O24 O 0.98694 0.88957 0.95573 0.0
O25 O 0.92618 0.94641 0.94798 0.0
O26 O 0.97701 0.18139 0.0066 0.0
O27 O 0.9261 0.073 0.94822 0.0
O28 O 0.1253 0.1559 0.92241 0.0
O29 O 0.09518 0.06466 0.96858 0.0
O30 O 0.03179 0.1592 0.06168 0.0
O31 O 0.08245 0.09563 0.07673 0.0
H32 H 0.06365 0.93286 0.15538 0.0
H33 H 0.08529 0.87314 0.20975 0.0
H34 H 0.09122 0.68809 0.08112 0.0
H35 H 0.07036 0.74787 0.02636 0.0
H36 H 0.05535 0.22447 0.87812 0.0
H37 H 0.05428 0.29782 0.81761 0.0
H38 H 0.83795 0.2669 0.93653 0.0
H39 H 0.83958 0.19544 0.99646 0.0
C40 C 0.85086 0.88652 0.44256 0.0
Eu41 Eu 0.94962 0.96121 0.49817 0.0
C42 C 0.81896 0.91462 0.42123 0.0
C43 C 0.76636 0.93716 0.45573 0.0
C44 C 0.72026 0.94118 0.43546 0.0
C45 C 0.72693 0.92283 0.38082 0.0
C46 C 0.78883 0.91473 0.34542 0.0
C47 C 0.83419 0.90963 0.36566 0.0
C48 C 0.92361 0.86605 0.57194 0.0
C49 C 0.94543 0.10608 0.58559 0.0
C50 C 0.20411 0.18186 0.5706 0.0
Eu51 Eu 0.08953 0.0803 0.52466 0.0
C52 C 0.24303 0.16161 0.59021 0.0
C53 C 0.28099 0.21734 0.62934 0.0
C54 C 0.32548 0.20375 0.64425 0.0
C55 C 0.33238 0.13446 0.62003 0.0
C56 C 0.28854 0.0739 0.58419 0.0
C57 C 0.24385 0.08756 0.56928 0.0
C58 C 0.09927 0.14519 0.44155 0.0
C59 C 0.0869 0.92877 0.44315 0.0
O60 O 0.92964 0.92205 0.42042 0.0
O61 O 0.82491 0.87953 0.49487 0.0
O62 O 0.87013 0.84298 0.551 0.0
O63 O 0.98972 0.944 0.55741 0.0
O64 O 0.90905 0.04542 0.55084 0.0
O65 O 0.01308 0.12443 0.58707 0.0
O66 O 0.12616 0.14418 0.59681 0.0
O67 O 0.21975 0.17588 0.51861 0.0
O68 O 0.15411 0.13947 0.44168 0.0
O69 O 0.03873 0.10882 0.48371 0.0
O70 O 0.11664 0.98112 0.48218 0.0
O71 O 0.02897 0.9223 0.43524 0.0
H72 H 0.75535 0.94397 0.49874 0.0
H73 H 0.67253 0.94752 0.46318 0.0
H74 H 0.79485 0.90123 0.30312 0.0
H75 H 0.87591 0.89426 0.33834 0.0
H76 H 0.27977 0.27388 0.64628 0.0
H77 H 0.36058 0.25214 0.67113 0.0
H78 H 0.29461 0.02123 0.56455 0.0
H79 H 0.21389 0.04342 0.5393 0.0
Zn80 Zn 0.36793 0.64183 0.13343 0.0
Zn81 Zn 0.25377 0.63848 0.37246 0.0
Zn82 Zn 0.30801 0.63265 0.27144 0.0
C83 C 0.43342 0.75089 0.32889 0.0
C84 C 0.20383 0.46794 0.36003 0.0
O85 O 0.25428 0.6722 0.24383 0.0
O86 O 0.30388 0.68865 0.15409 0.0
C87 C 0.50624 0.74377 0.17714 0.0
O88 O 0.42353 0.72118 0.28261 0.0
O89 O 0.3722 0.72589 0.3712 0.0
O90 O 0.19461 0.51776 0.39816 0.0
O91 O 0.2407 0.49672 0.31105 0.0
O92 O 0.48278 0.72069 0.13627 0.0
O93 O 0.45216 0.71761 0.22512 0.0
O94 O 0.24198 0.49007 0.25817 0.0
O95 O 0.29614 0.54093 0.17884 0.0
C96 C 0.24923 0.47495 0.20842 0.0
O97 O 0.24316 0.70001 0.30133 0.0
O98 O 0.19357 0.68877 0.3896 0.0
C99 C 0.25727 0.69017 0.20021 0.0
C100 C 0.2041 0.71578 0.3477 0.0
Zn101 Zn 0.66117 0.37254 0.84648 0.0
Zn102 Zn 0.7889 0.40645 0.65299 0.0
Zn103 Zn 0.70768 0.3911 0.74942 0.0
C104 C 0.82155 0.56898 0.67296 0.0
C105 C 0.60835 0.27942 0.67717 0.0
O106 O 0.76629 0.35067 0.77039 0.0
O107 O 0.72065 0.33952 0.85867 0.0
C108 C 0.76295 0.55832 0.82388 0.0
O109 O 0.77863 0.53202 0.71966 0.0
O110 O 0.83877 0.52688 0.63275 0.0
O111 O 0.67833 0.30699 0.64287 0.0
O112 O 0.60172 0.30737 0.72604 0.0
O113 O 0.71557 0.50317 0.86172 0.0
O114 O 0.76882 0.53019 0.77489 0.0
O115 O 0.56199 0.31429 0.78547 0.0
O116 O 0.53951 0.28805 0.86643 0.0
C117 C 0.51058 0.28347 0.83321 0.0
O118 O 0.77091 0.3189 0.71502 0.0
O119 O 0.85931 0.36866 0.63384 0.0
C120 C 0.76786 0.33794 0.81363 0.0
C121 C 0.82502 0.31773 0.67185 0.0
C122 C 0.08195 0.68435 0.20334 0.0
C123 C 0.12979 0.76213 0.17318 0.0
C124 C 0.25602 0.80532 0.18114 0.0
C125 C 0.21032 0.72058 0.2026 0.0
N126 N 0.08044 0.57652 0.23316 0.0
N127 N 0.26353 0.8934 0.12841 0.0
C128 C 0.12305 0.6597 0.21454 0.0
C129 C 0.21714 0.82254 0.16133 0.0
N130 N 0.99762 0.6342 0.2207 0.0
N131 N 0.33706 0.86887 0.17939 0.0
H132 H 0.23796 0.90967 0.11318 0.0
H133 H 0.3278 0.93242 0.11288 0.0
H134 H 0.3666 0.85791 0.19452 0.0
H135 H 0.37208 0.93487 0.16834 0.0
H136 H 0.95926 0.5812 0.24701 0.0
H137 H 0.96636 0.65064 0.21227 0.0
H138 H 0.01829 0.52538 0.23664 0.0
H139 H 0.10845 0.55695 0.24269 0.0
C140 C 0.48091 0.21344 0.59172 0.0
C141 C 0.40222 0.14318 0.62191 0.0
C142 C 0.46424 0.14448 0.67876 0.0
C143 C 0.53792 0.22839 0.65689 0.0
N144 N 0.61078 0.3511 0.59832 0.0
N145 N 0.31638 0.0359 0.69196 0.0
C146 C 0.54567 0.26465 0.61414 0.0
C147 C 0.39318 0.10545 0.66425 0.0
N148 N 0.4919 0.23464 0.54347 0.0
N149 N 0.46225 0.10344 0.71342 0.0
H150 H 0.26452 0.00495 0.68025 0.0
H151 H 0.30393 0.01186 0.72727 0.0
H152 H 0.51377 0.13126 0.72461 0.0
H153 H 0.4118 0.03914 0.72769 0.0
H154 H 0.54995 0.28179 0.51803 0.0
H155 H 0.44413 0.19813 0.52658 0.0
H156 H 0.61405 0.38239 0.57082 0.0
H157 H 0.65656 0.3954 0.61697 0.0
C158 C 0.20336 0.29855 0.10031 0.0
C159 C 0.11615 0.23631 0.11963 0.0
C160 C 0.11435 0.33245 0.19857 0.0
C161 C 0.20187 0.38561 0.18379 0.0
N162 N 0.32979 0.41202 0.12312 0.0
N163 N 0.98799 0.18774 0.19057 0.0
C164 C 0.24629 0.36558 0.13565 0.0
C165 C 0.07137 0.25096 0.17005 0.0
N166 N 0.24458 0.29846 0.04713 0.0
N167 N 0.07278 0.36327 0.23607 0.0
H168 H 0.95438 0.12773 0.17021 0.0
H169 H 0.954 0.19209 0.22957 0.0
H170 H 0.10203 0.42446 0.25652 0.0
H171 H 0.01019 0.33129 0.24354 0.0
H172 H 0.30733 0.34855 0.02991 0.0
H173 H 0.21371 0.25501 0.01927 0.0
H174 H 0.36392 0.39555 0.09007 0.0
H175 H 0.36319 0.46076 0.14875 0.0
C176 C 0.82657 0.11437 0.64018 0.0
C177 C 0.9135 0.15875 0.61916 0.0
C178 C 0.93443 0.30096 0.6559 0.0
C179 C 0.85015 0.25954 0.66536 0.0
N180 N 0.71479 0.12509 0.66432 0.0
N181 N 0.0514 0.30118 0.60194 0.0
C182 C 0.79558 0.16548 0.65744 0.0
C183 C 0.96798 0.25377 0.62651 0.0
N184 N 0.77346 0.02339 0.64518 0.0
N185 N 0.98281 0.38621 0.6748 0.0
H186 H 0.0801 0.27249 0.57728 0.0
H187 H 0.09178 0.37101 0.60138 0.0
H188 H 0.95935 0.4218 0.69667 0.0
H189 H 0.04272 0.41698 0.67402 0.0
H190 H 0.70999 0.98819 0.66444 0.0
H191 H 0.79395 0.98445 0.63589 0.0
H192 H 0.67463 0.05874 0.65286 0.0
H193 H 0.68927 0.15956 0.67854 0.0
C194 C 0.73336 0.90954 0.09884 0.0
C195 C 0.77567 0.8956 0.11824 0.0
C196 C 0.64078 0.78937 0.18403 0.0
C197 C 0.59951 0.80572 0.16582 0.0
N198 N 0.61491 0.90718 0.11897 0.0
N199 N 0.76976 0.85125 0.19589 0.0
C200 C 0.6488 0.87433 0.12753 0.0
C201 C 0.72942 0.84465 0.16604 0.0
N202 N 0.77135 0.95287 0.05202 0.0
N203 N 0.59636 0.71842 0.21614 0.0
H204 H 0.83349 0.89897 0.18861 0.0
H205 H 0.73872 0.81882 0.23228 0.0
H206 H 0.53197 0.67478 0.22875 0.0
H207 H 0.62379 0.69843 0.22599 0.0
H208 H 0.7397 0.95375 0.03276 0.0
H209 H 0.83287 0.98237 0.03042 0.0
H210 H 0.64935 0.96238 0.09508 0.0
H211 H 0.55482 0.88626 0.141 0.0
C212 C 0.96294 0.79703 0.61097 0.0
C213 C 0.90443 0.80705 0.61102 0.0
C214 C 0.79237 0.67178 0.66614 0.0
C215 C 0.84993 0.65925 0.66353 0.0
N216 N 0.99107 0.72354 0.64853 0.0
N217 N 0.77079 0.77509 0.65819 0.0
C218 C 0.93567 0.72665 0.64083 0.0
C219 C 0.82141 0.75094 0.64484 0.0
N220 N 0.04381 0.85158 0.58086 0.0
N221 N 0.70945 0.60599 0.68624 0.0
H222 H 0.79174 0.83574 0.64659 0.0
H223 H 0.71183 0.74106 0.68618 0.0
H224 H 0.68552 0.54826 0.70352 0.0
H225 H 0.66457 0.60624 0.68265 0.0
H226 H 0.08598 0.83868 0.57231 0.0
H227 H 0.06883 0.90929 0.56355 0.0
H228 H 0.0545 0.77488 0.638 0.0
H229 H 0.97223 0.67307 0.67055 0.0
C230 C 0.19959 0.91617 0.37714 0.0
C231 C 0.11566 0.87368 0.40966 0.0
C232 C 0.0876 0.72672 0.37974 0.0
C233 C 0.17344 0.76907 0.35527 0.0
N234 N 0.31242 0.90473 0.32906 0.0
N235 N 0.97995 0.73706 0.44488 0.0
C236 C 0.22968 0.86409 0.35266 0.0
C237 C 0.05932 0.77844 0.41099 0.0
N238 N 0.25014 0.00621 0.36887 0.0
N239 N 0.03303 0.63632 0.37288 0.0
H240 H 0.95676 0.77187 0.46905 0.0
H241 H 0.9389 0.66868 0.45243 0.0
H242 H 0.05277 0.59768 0.34998 0.0
H243 H 0.96922 0.6017 0.38497 0.0
H244 H 0.30954 0.04031 0.34152 0.0
H245 H 0.23002 0.04586 0.38612 0.0
H246 H 0.35803 0.97338 0.33155 0.0
H247 H 0.3358 0.86875 0.30861 0.0
C248 C 0.27773 0.16247 0.84728 0.0
C249 C 0.24114 0.1492 0.90389 0.0
C250 C 0.38063 0.24083 0.91152 0.0
C251 C 0.41853 0.24589 0.85461 0.0
N252 N 0.40195 0.23988 0.77101 0.0
N253 N 0.261 0.15257 0.98539 0.0
C254 C 0.36663 0.21352 0.8228 0.0
C255 C 0.29347 0.18049 0.93434 0.0
N256 N 0.22661 0.12215 0.81652 0.0
N257 N 0.42686 0.30182 0.94457 0.0
H258 H 0.19802 0.10633 1.0028 0.0
H259 H 0.29741 0.16793 0.00748 0.0
H260 H 0.48747 0.35893 0.93007 0.0
H261 H 0.40116 0.30416 0.98608 0.0
H262 H 0.24641 0.11996 0.77474 0.0
H263 H 0.16225 0.08259 0.83292 0.0
H264 H 0.36885 0.22629 0.74709 0.0
H265 H 0.46526 0.28625 0.7541 0.0
C266 C 0.18279 0.31336 0.43754 0.0
C267 C 0.12648 0.22648 0.41847 0.0
C268 C 0.12069 0.29653 0.3587 0.0
C269 C 0.18195 0.38337 0.37485 0.0
N270 N 0.28457 0.47247 0.42106 0.0
N271 N 0.05109 0.13574 0.35492 0.0
C272 C 0.21676 0.39088 0.41172 0.0
C273 C 0.09836 0.21826 0.37711 0.0
N274 N 0.20202 0.32255 0.48183 0.0
N275 N 0.08057 0.28864 0.32822 0.0
H276 H 0.0327 0.0776 0.36815 0.0
H277 H 0.03547 0.12578 0.32103 0.0
H278 H 0.09357 0.34445 0.31638 0.0
H279 H 0.0301 0.22779 0.31885 0.0
H280 H 0.23421 0.38368 0.5016 0.0
H281 H 0.17886 0.2684 0.50242 0.0
H282 H 0.31848 0.48077 0.44259 0.0
H283 H 0.31248 0.5309 0.40259 0.0
C284 C 0.94746 0.39744 0.84342 0.0
C285 C 0.93126 0.31286 0.83511 0.0
C286 C 0.82025 0.2503 0.7993 0.0
C287 C 0.83178 0.3326 0.81169 0.0
N288 N 0.91921 0.49141 0.83011 0.0
N289 N 0.87595 0.17105 0.78776 0.0
C290 C 0.90044 0.40891 0.8282 0.0
C291 C 0.87623 0.2438 0.80639 0.0
N292 N 0.00376 0.46415 0.86916 0.0
N293 N 0.7527 0.17706 0.78466 0.0
H294 H 0.91642 0.16514 0.79309 0.0
H295 H 0.84208 0.12187 0.76261 0.0
H296 H 0.71064 0.18002 0.77897 0.0
H297 H 0.73606 0.11262 0.78076 0.0
H298 H 0.01169 0.52416 0.88268 0.0
H299 H 0.04109 0.45744 0.87838 0.0
H300 H 0.97205 0.55076 0.83798 0.0
H301 H 0.88505 0.50113 0.8194 0.0
C302 C 0.64412 0.93411 0.34658 0.0
C303 C 0.6541 0.88135 0.36474 0.0
C304 C 0.52833 0.74404 0.34767 0.0
C305 C 0.5139 0.79684 0.33479 0.0
N306 N 0.55195 0.93986 0.32395 0.0
N307 N 0.59983 0.73742 0.39108 0.0
C308 C 0.57033 0.89147 0.33443 0.0
C309 C 0.59468 0.7866 0.36753 0.0
N310 N 0.70533 0.02425 0.34071 0.0
N311 N 0.47919 0.65297 0.33993 0.0
H312 H 0.6483 0.76468 0.40543 0.0
H313 H 0.55237 0.67012 0.40056 0.0
H314 H 0.42977 0.61905 0.32499 0.0
H315 H 0.49224 0.61187 0.343 0.0
H316 H 0.70544 0.06563 0.3232 0.0
H317 H 0.75902 0.05703 0.35064 0.0
H318 H 0.58608 0.00923 0.32834 0.0
H319 H 0.49963 0.9097 0.31299 0.0
C320 C 0.94279 0.78866 0.85395 0.0
C321 C 0.89685 0.80975 0.90027 0.0
C322 C 0.7699 0.68629 0.87756 0.0
C323 C 0.81283 0.65466 0.83852 0.0
N324 N 0.94089 0.67341 0.79019 0.0
N325 N 0.76344 0.76971 0.96072 0.0
C326 C 0.89985 0.70594 0.82607 0.0
C327 C 0.80957 0.75718 0.91291 0.0
N328 N 0.02719 0.84818 0.83612 0.0
N329 N 0.69034 0.6467 0.88143 0.0
H330 H 0.78884 0.81649 0.98987 0.0
H331 H 0.69896 0.72709 0.97401 0.0
H332 H 0.66055 0.59474 0.85538 0.0
H333 H 0.65774 0.67151 0.90626 0.0
H334 H 0.06348 0.84017 0.7997 0.0
H335 H 0.06045 0.91006 0.85508 0.0
H336 H 0.00201 0.70214 0.78502 0.0
H337 H 0.91258 0.61469 0.76765 0.0
loop_
_geom_bond_atom_site_label_1
_geom_bond_atom_site_label_2
_geom_bond_distance
_geom_bond_site_symmetry_2
_ccdc_geom_bond_type
C0 Eu1 2.835 . S
C0 C2 1.500 . S
C0 O20 1.257 . S
C0 O21 1.260 1_455 S
Eu1 C0 2.835 . S
Eu1 O20 2.473 . S
Eu1 O21 2.480 1_455 S
Eu1 O22 2.430 1_455 S
Eu1 O23 2.670 1_455 S
Eu1 O24 2.394 1_455 S
Eu1 O29 2.355 1_564 S
Eu1 O31 2.374 1_565 S
C2 C0 1.500 . S
C2 C3 1.377 . S
C2 C7 1.377 . S
C3 C2 1.377 . S
C3 C4 1.395 . S
C3 H32 0.931 1_455 S
C4 C3 1.395 . S
C4 C5 1.383 . S
C4 H33 0.931 1_455 S
C5 C4 1.383 . S
C5 C6 1.394 . S
C6 C5 1.394 . S
C6 C7 1.378 . S
C6 H34 0.931 . S
C7 C2 1.377 . S
C7 C6 1.378 . S
C7 H35 0.931 . S
C8 O22 1.259 . S
C8 O23 1.270 . S
C9 O24 1.251 1_556 S
C9 O25 1.251 . S
C10 Eu11 2.835 . S
C10 C12 1.500 . S
C10 O26 1.257 . S
C10 O27 1.260 1_655 S
Eu11 C10 2.835 . S
Eu11 O23 2.355 1_546 S
Eu11 O25 2.374 1_545 S
Eu11 O26 2.473 . S
Eu11 O27 2.480 1_655 S
Eu11 O28 2.430 1_655 S
Eu11 O29 2.670 1_655 S
Eu11 O30 2.394 1_656 S
C12 C10 1.500 . S
C12 C13 1.377 1_655 S
C12 C17 1.377 . S
C13 C12 1.377 1_455 S
C13 C14 1.395 . S
C13 H36 0.931 . S
C14 C13 1.395 . S
C14 C15 1.383 1_455 S
C14 H37 0.931 . S
C15 C14 1.383 1_655 S
C15 C16 1.394 . S
C16 C15 1.394 . S
C16 C17 1.378 . S
C16 H38 0.931 . S
C17 C12 1.377 . S
C17 C16 1.378 . S
C17 H39 0.931 1_556 S
C18 O28 1.259 . S
C18 O29 1.270 . S
C19 O30 1.251 . S
C19 O31 1.251 . S
O20 C0 1.257 . S
O20 Eu1 2.473 . S
O21 C0 1.260 1_655 S
O21 Eu1 2.480 1_655 S
O22 Eu1 2.430 1_655 S
O22 C8 1.259 . S
O23 Eu1 2.670 1_655 S
O23 C8 1.270 . S
O23 Eu11 2.355 1_564 S
O24 Eu1 2.394 1_655 S
O24 C9 1.251 1_554 S
O25 C9 1.251 . S
O25 Eu11 2.374 1_565 S
O26 C10 1.257 . S
O26 Eu11 2.473 . S
O27 C10 1.260 1_455 S
O27 Eu11 2.480 1_455 S
O28 Eu11 2.430 1_455 S
O28 C18 1.259 . S
O29 Eu1 2.355 1_546 S
O29 Eu11 2.670 1_455 S
O29 C18 1.270 . S
O30 Eu11 2.394 1_454 S
O30 C19 1.251 . S
O31 Eu1 2.374 1_545 S
O31 C19 1.251 . S
H32 C3 0.931 1_655 S
H33 C4 0.931 1_655 S
H34 C6 0.931 . S
H35 C7 0.931 . S
H36 C13 0.931 . S
H37 C14 0.931 . S
H38 C16 0.931 . S
H39 C17 0.931 1_554 S
C40 Eu41 2.835 . S
C40 C42 1.500 . S
C40 O60 1.257 . S
C40 O61 1.260 . S
Eu41 C40 2.835 . S
Eu41 O60 2.473 . S
Eu41 O61 2.480 . S
Eu41 O62 2.430 . S
Eu41 O63 2.670 . S
Eu41 O64 2.394 . S
Eu41 O69 2.355 1_665 S
Eu41 O71 2.374 1_655 S
C42 C40 1.500 . S
C42 C43 1.377 . S
C42 C47 1.377 . S
C43 C42 1.377 . S
C43 C44 1.395 . S
C43 H72 0.931 . S
C44 C43 1.395 . S
C44 C45 1.383 . S
C44 H73 0.931 . S
C45 C44 1.383 . S
C45 C46 1.394 . S
C46 C45 1.394 . S
C46 C47 1.378 . S
C46 H74 0.931 . S
C47 C42 1.377 . S
C47 C46 1.378 . S
C47 H75 0.931 1_565 S
C48 O62 1.259 . S
C48 O63 1.270 . S
C49 O64 1.251 1_545 S
C49 O65 1.251 . S
C50 Eu51 2.835 . S
C50 C52 1.500 . S
C50 O66 1.257 . S
C50 O67 1.260 . S
Eu51 C50 2.835 . S
Eu51 O63 2.355 1_445 S
Eu51 O65 2.374 1_455 S
Eu51 O66 2.473 . S
Eu51 O67 2.480 . S
Eu51 O68 2.430 . S
Eu51 O69 2.670 . S
Eu51 O70 2.394 . S
C52 C50 1.500 . S
C52 C53 1.377 . S
C52 C57 1.377 . S
C53 C52 1.377 . S
C53 C54 1.395 . S
C53 H76 0.931 . S
C54 C53 1.395 . S
C54 C55 1.383 . S
C54 H77 0.931 . S
C55 C54 1.383 . S
C55 C56 1.394 . S
C56 C55 1.394 . S
C56 C57 1.378 . S
C56 H78 0.931 . S
C57 C52 1.377 . S
C57 C56 1.378 . S
C57 H79 0.931 . S
C58 O68 1.259 . S
C58 O69 1.270 . S
C59 O70 1.251 1_565 S
C59 O71 1.251 . S
O60 C40 1.257 . S
O60 Eu41 2.473 . S
O61 C40 1.260 . S
O61 Eu41 2.480 . S
O62 Eu41 2.430 . S
O62 C48 1.259 . S
O63 Eu41 2.670 . S
O63 C48 1.270 . S
O63 Eu51 2.355 1_665 S
O64 Eu41 2.394 . S
O64 C49 1.251 1_565 S
O65 C49 1.251 . S
O65 Eu51 2.374 1_655 S
O66 C50 1.257 . S
O66 Eu51 2.473 . S
O67 C50 1.260 . S
O67 Eu51 2.480 . S
O68 Eu51 2.430 . S
O68 C58 1.259 . S
O69 Eu41 2.355 1_445 S
O69 Eu51 2.670 . S
O69 C58 1.270 . S
O70 Eu51 2.394 . S
O70 C59 1.251 1_545 S
O71 Eu41 2.374 1_455 S
O71 C59 1.251 . S
H72 C43 0.931 . S
H73 C44 0.931 . S
H74 C46 0.931 . S
H75 C47 0.931 1_545 S
H76 C53 0.931 . S
H77 C54 0.931 . S
H78 C56 0.931 . S
H79 C57 0.931 . S
Zn80 O86 1.920 . S
Zn80 O92 1.898 . S
Zn80 O95 1.905 . S
Zn81 O89 1.905 . S
Zn81 O90 1.898 . S
Zn81 O98 1.920 . S
Zn82 O85 2.080 . S
Zn82 O88 2.114 . S
Zn82 O91 2.120 . S
Zn82 O93 2.120 . S
Zn82 O94 2.114 . S
Zn82 O97 2.080 . S
C83 O88 1.166 . S
C83 O89 1.182 . S
C84 O90 1.167 . S
C84 O91 1.299 . S
O85 Zn82 2.080 . S
O85 C99 1.305 . S
O86 Zn80 1.920 . S
O86 C99 1.234 . S
C87 O92 1.167 . S
C87 O93 1.299 . S
O88 Zn82 2.114 . S
O88 C83 1.166 . S
O89 Zn81 1.905 . S
O89 C83 1.182 . S
O90 Zn81 1.898 . S
O90 C84 1.167 . S
O91 Zn82 2.120 . S
O91 C84 1.299 . S
O92 Zn80 1.898 . S
O92 C87 1.167 . S
O93 Zn82 2.120 . S
O93 C87 1.299 . S
O94 Zn82 2.114 . S
O94 C96 1.166 . S
O95 Zn80 1.905 . S
O95 C96 1.182 . S
C96 O94 1.166 . S
C96 O95 1.182 . S
O97 Zn82 2.080 . S
O97 C100 1.305 . S
O98 Zn81 1.920 . S
O98 C100 1.234 . S
C99 O85 1.305 . S
C99 O86 1.234 . S
C100 O97 1.305 . S
C100 O98 1.234 . S
Zn101 O107 1.920 . S
Zn101 O113 1.898 . S
Zn101 O116 1.905 . S
Zn102 O110 1.905 . S
Zn102 O111 1.898 . S
Zn102 O119 1.920 . S
Zn103 O106 2.080 . S
Zn103 O109 2.114 . S
Zn103 O112 2.120 . S
Zn103 O114 2.120 . S
Zn103 O115 2.114 . S
Zn103 O118 2.080 . S
C104 O109 1.166 . S
C104 O110 1.182 . S
C105 O111 1.167 . S
C105 O112 1.299 . S
O106 Zn103 2.080 . S
O106 C120 1.305 . S
O107 Zn101 1.920 . S
O107 C120 1.234 . S
C108 O113 1.167 . S
C108 O114 1.299 . S
O109 Zn103 2.114 . S
O109 C104 1.166 . S
O110 Zn102 1.905 . S
O110 C104 1.182 . S
O111 Zn102 1.898 . S
O111 C105 1.167 . S
O112 Zn103 2.120 . S
O112 C105 1.299 . S
O113 Zn101 1.898 . S
O113 C108 1.167 . S
O114 Zn103 2.120 . S
O114 C108 1.299 . S
O115 Zn103 2.114 . S
O115 C117 1.166 . S
O116 Zn101 1.905 . S
O116 C117 1.182 . S
C117 O115 1.166 . S
C117 O116 1.182 . S
O118 Zn103 2.080 . S
O118 C121 1.305 . S
O119 Zn102 1.920 . S
O119 C121 1.234 . S
C120 O106 1.305 . S
C120 O107 1.234 . S
C121 O118 1.305 . S
C121 O119 1.234 . S
C122 C123 1.363 . S
C122 C128 1.379 . S
C122 N130 1.356 1_455 S
C123 C122 1.363 . S
C123 C129 1.363 . S
C124 C125 1.363 . S
C124 C129 1.379 . S
C124 N131 1.356 . S
C125 C124 1.363 . S
C125 C128 1.363 . S
N126 C128 1.356 . S
N126 H138 0.984 . S
N126 H139 0.985 . S
N127 C129 1.356 . S
N127 H132 0.984 . S
N127 H133 0.985 . S
C128 C122 1.379 . S
C128 C125 1.363 . S
C128 N126 1.356 . S
C129 C123 1.363 . S
C129 C124 1.379 . S
C129 N127 1.356 . S
N130 C122 1.356 1_655 S
N130 H136 0.984 . S
N130 H137 0.984 . S
N131 C124 1.356 . S
N131 H134 0.984 . S
N131 H135 0.985 . S
H132 N127 0.984 . S
H133 N127 0.985 . S
H134 N131 0.984 . S
H135 N131 0.985 . S
H136 N130 0.984 . S
H137 N130 0.984 . S
H138 N126 0.984 . S
H139 N126 0.985 . S
C140 C141 1.363 . S
C140 C146 1.379 . S
C140 N148 1.356 . S
C141 C140 1.363 . S
C141 C147 1.363 . S
C142 C143 1.363 . S
C142 C147 1.379 . S
C142 N149 1.356 . S
C143 C142 1.363 . S
C143 C146 1.363 . S
N144 C146 1.356 . S
N144 H156 0.984 . S
N144 H157 0.985 . S
N145 C147 1.356 . S
N145 H150 0.984 . S
N145 H151 0.985 . S
C146 C140 1.379 . S
C146 C143 1.363 . S
C146 N144 1.356 . S
C147 C141 1.363 . S
C147 C142 1.379 . S
C147 N145 1.356 . S
N148 C140 1.356 . S
N148 H154 0.984 . S
N148 H155 0.984 . S
N149 C142 1.356 . S
N149 H152 0.984 . S
N149 H153 0.985 . S
H150 N145 0.984 . S
H151 N145 0.985 . S
H152 N149 0.984 . S
H153 N149 0.985 . S
H154 N148 0.984 . S
H155 N148 0.984 . S
H156 N144 0.984 . S
H157 N144 0.985 . S
C158 C159 1.363 . S
C158 C164 1.379 . S
C158 N166 1.356 . S
C159 C158 1.363 . S
C159 C165 1.363 . S
C160 C161 1.363 . S
C160 C165 1.379 . S
C160 N167 1.356 . S
C161 C160 1.363 . S
C161 C164 1.363 . S
N162 C164 1.356 . S
N162 H174 0.984 . S
N162 H175 0.985 . S
N163 C165 1.356 . S
N163 H168 0.984 1_455 S
N163 H169 0.985 1_455 S
C164 C158 1.379 . S
C164 C161 1.363 . S
C164 N162 1.356 . S
C165 C159 1.363 . S
C165 C160 1.379 . S
C165 N163 1.356 . S
N166 C158 1.356 . S
N166 H172 0.984 1_554 S
N166 H173 0.984 . S
N167 C160 1.356 . S
N167 H170 0.984 . S
N167 H171 0.985 . S
H168 N163 0.984 1_655 S
H169 N163 0.985 1_655 S
H170 N167 0.984 . S
H171 N167 0.985 . S
H172 N166 0.984 1_556 S
H173 N166 0.984 . S
H174 N162 0.984 . S
H175 N162 0.985 . S
C176 C177 1.363 . S
C176 C182 1.379 . S
C176 N184 1.356 . S
C177 C176 1.363 . S
C177 C183 1.363 . S
C178 C179 1.363 . S
C178 C183 1.379 . S
C178 N185 1.356 1_655 S
C179 C178 1.363 . S
C179 C182 1.363 . S
N180 C182 1.356 . S
N180 H192 0.984 . S
N180 H193 0.985 . S
N181 C183 1.356 1_455 S
N181 H186 0.984 1_455 S
N181 H187 0.985 . S
C182 C176 1.379 . S
C182 C179 1.363 . S
C182 N180 1.356 . S
C183 C177 1.363 . S
C183 C178 1.379 . S
C183 N181 1.356 1_655 S
N184 C176 1.356 . S
N184 H190 0.984 . S
N184 H191 0.984 . S
N185 C178 1.356 1_455 S
N185 H188 0.984 1_455 S
N185 H189 0.985 . S
H186 N181 0.984 1_655 S
H187 N181 0.985 . S
H188 N185 0.984 1_655 S
H189 N185 0.985 . S
H190 N184 0.984 . S
H191 N184 0.984 . S
H192 N180 0.984 . S
H193 N180 0.985 . S
C194 C195 1.363 . S
C194 C200 1.379 . S
C194 N202 1.356 . S
C195 C194 1.363 . S
C195 C201 1.363 . S
C196 C197 1.363 . S
C196 C201 1.379 . S
C196 N203 1.356 . S
C197 C196 1.363 . S
C197 C200 1.363 . S
N198 C200 1.356 . S
N198 H210 0.984 . S
N198 H211 0.985 . S
N199 C201 1.356 . S
N199 H204 0.984 . S
N199 H205 0.985 . S
C200 C194 1.379 . S
C200 C197 1.363 . S
C200 N198 1.356 . S
C201 C195 1.363 . S
C201 C196 1.379 . S
C201 N199 1.356 . S
N202 C194 1.356 . S
N202 H208 0.984 1_554 S
N202 H209 0.984 . S
N203 C196 1.356 . S
N203 H206 0.984 . S
N203 H207 0.985 . S
H204 N199 0.984 . S
H205 N199 0.985 . S
H206 N203 0.984 . S
H207 N203 0.985 . S
H208 N202 0.984 1_556 S
H209 N202 0.984 . S
H210 N198 0.984 . S
H211 N198 0.985 . S
C212 C213 1.363 . S
C212 C218 1.379 . S
C212 N220 1.356 1_655 S
C213 C212 1.363 . S
C213 C219 1.363 . S
C214 C215 1.363 . S
C214 C219 1.379 . S
C214 N221 1.356 . S
C215 C214 1.363 . S
C215 C218 1.363 . S
N216 C218 1.356 . S
N216 H228 0.984 1_655 S
N216 H229 0.985 . S
N217 C219 1.356 . S
N217 H222 0.984 . S
N217 H223 0.985 . S
C218 C212 1.379 . S
C218 C215 1.363 . S
C218 N216 1.356 . S
C219 C213 1.363 . S
C219 C214 1.379 . S
C219 N217 1.356 . S
N220 C212 1.356 1_455 S
N220 H226 0.984 . S
N220 H227 0.984 . S
N221 C214 1.356 . S
N221 H224 0.984 . S
N221 H225 0.985 . S
H222 N217 0.984 . S
H223 N217 0.985 . S
H224 N221 0.984 . S
H225 N221 0.985 . S
H226 N220 0.984 . S
H227 N220 0.984 . S
H228 N216 0.984 1_455 S
H229 N216 0.985 . S
C230 C231 1.363 . S
C230 C236 1.379 . S
C230 N238 1.356 1_565 S
C231 C230 1.363 . S
C231 C237 1.363 . S
C232 C233 1.363 . S
C232 C237 1.379 . S
C232 N239 1.356 . S
C233 C232 1.363 . S
C233 C236 1.363 . S
N234 C236 1.356 . S
N234 H246 0.984 . S
N234 H247 0.985 . S
N235 C237 1.356 . S
N235 H240 0.984 . S
N235 H241 0.985 . S
C236 C230 1.379 . S
C236 C233 1.363 . S
C236 N234 1.356 . S
C237 C231 1.363 . S
C237 C232 1.379 . S
C237 N235 1.356 . S
N238 C230 1.356 1_545 S
N238 H244 0.984 . S
N238 H245 0.984 . S
N239 C232 1.356 . S
N239 H242 0.984 . S
N239 H243 0.985 . S
H240 N235 0.984 . S
H241 N235 0.985 . S
H242 N239 0.984 . S
H243 N239 0.985 . S
H244 N238 0.984 . S
H245 N238 0.984 . S
H246 N234 0.984 . S
H247 N234 0.985 . S
C248 C249 1.363 . S
C248 C254 1.379 . S
C248 N256 1.356 . S
C249 C248 1.363 . S
C249 C255 1.363 . S
C250 C251 1.363 . S
C250 C255 1.379 . S
C250 N257 1.356 . S
C251 C250 1.363 . S
C251 C254 1.363 . S
N252 C254 1.356 . S
N252 H264 0.984 . S
N252 H265 0.985 . S
N253 C255 1.356 . S
N253 H258 0.984 . S
N253 H259 0.985 1_556 S
C254 C248 1.379 . S
C254 C251 1.363 . S
C254 N252 1.356 . S
C255 C249 1.363 . S
C255 C250 1.379 . S
C255 N253 1.356 . S
N256 C248 1.356 . S
N256 H262 0.984 . S
N256 H263 0.984 . S
N257 C250 1.356 . S
N257 H260 0.984 . S
N257 H261 0.985 . S
H258 N253 0.984 . S
H259 N253 0.985 1_554 S
H260 N257 0.984 . S
H261 N257 0.985 . S
H262 N256 0.984 . S
H263 N256 0.984 . S
H264 N252 0.984 . S
H265 N252 0.985 . S
C266 C267 1.363 . S
C266 C272 1.379 . S
C266 N274 1.356 . S
C267 C266 1.363 . S
C267 C273 1.363 . S
C268 C269 1.363 . S
C268 C273 1.379 . S
C268 N275 1.356 . S
C269 C268 1.363 . S
C269 C272 1.363 . S
N270 C272 1.356 . S
N270 H282 0.984 . S
N270 H283 0.985 . S
N271 C273 1.356 . S
N271 H276 0.984 . S
N271 H277 0.985 . S
C272 C266 1.379 . S
C272 C269 1.363 . S
C272 N270 1.356 . S
C273 C267 1.363 . S
C273 C268 1.379 . S
C273 N271 1.356 . S
N274 C266 1.356 . S
N274 H280 0.984 . S
N274 H281 0.984 . S
N275 C268 1.356 . S
N275 H278 0.984 . S
N275 H279 0.985 . S
H276 N271 0.984 . S
H277 N271 0.985 . S
H278 N275 0.984 . S
H279 N275 0.985 . S
H280 N274 0.984 . S
H281 N274 0.984 . S
H282 N270 0.984 . S
H283 N270 0.985 . S
C284 C285 1.363 . S
C284 C290 1.379 . S
C284 N292 1.356 . S
C285 C284 1.363 . S
C285 C291 1.363 . S
C286 C287 1.363 . S
C286 C291 1.379 . S
C286 N293 1.356 . S
C287 C286 1.363 . S
C287 C290 1.363 . S
N288 C290 1.356 . S
N288 H300 0.984 . S
N288 H301 0.985 . S
N289 C291 1.356 . S
N289 H294 0.984 . S
N289 H295 0.985 . S
C290 C284 1.379 . S
C290 C287 1.363 . S
C290 N288 1.356 . S
C291 C285 1.363 . S
C291 C286 1.379 . S
C291 N289 1.356 . S
N292 C284 1.356 . S
N292 H298 0.984 . S
N292 H299 0.984 . S
N293 C286 1.356 . S
N293 H296 0.984 . S
N293 H297 0.985 . S
H294 N289 0.984 . S
H295 N289 0.985 . S
H296 N293 0.984 . S
H297 N293 0.985 . S
H298 N292 0.984 . S
H299 N292 0.984 . S
H300 N288 0.984 . S
H301 N288 0.985 . S
C302 C303 1.363 . S
C302 C308 1.379 . S
C302 N310 1.356 . S
C303 C302 1.363 . S
C303 C309 1.363 . S
C304 C305 1.363 . S
C304 C309 1.379 . S
C304 N311 1.356 . S
C305 C304 1.363 . S
C305 C308 1.363 . S
N306 C308 1.356 . S
N306 H318 0.984 . S
N306 H319 0.985 . S
N307 C309 1.356 . S
N307 H312 0.984 . S
N307 H313 0.985 . S
C308 C302 1.379 . S
C308 C305 1.363 . S
C308 N306 1.356 . S
C309 C303 1.363 . S
C309 C304 1.379 . S
C309 N307 1.356 . S
N310 C302 1.356 . S
N310 H316 0.984 . S
N310 H317 0.984 . S
N311 C304 1.356 . S
N311 H314 0.984 . S
N311 H315 0.985 . S
H312 N307 0.984 . S
H313 N307 0.985 . S
H314 N311 0.984 . S
H315 N311 0.985 . S
H316 N310 0.984 . S
H317 N310 0.984 . S
H318 N306 0.984 . S
H319 N306 0.985 . S
C320 C321 1.363 . S
C320 C326 1.379 . S
C320 N328 1.356 1_655 S
C321 C320 1.363 . S
C321 C327 1.363 . S
C322 C323 1.363 . S
C322 C327 1.379 . S
C322 N329 1.356 . S
C323 C322 1.363 . S
C323 C326 1.363 . S
N324 C326 1.356 . S
N324 H336 0.984 1_655 S
N324 H337 0.985 . S
N325 C327 1.356 . S
N325 H330 0.984 . S
N325 H331 0.985 . S
C326 C320 1.379 . S
C326 C323 1.363 . S
C326 N324 1.356 . S
C327 C321 1.363 . S
C327 C322 1.379 . S
C327 N325 1.356 . S
N328 C320 1.356 1_455 S
N328 H334 0.984 . S
N328 H335 0.984 . S
N329 C322 1.356 . S
N329 H332 0.984 . S
N329 H333 0.985 . S
H330 N325 0.984 . S
H331 N325 0.985 . S
H332 N329 0.984 . S
H333 N329 0.985 . S
H334 N328 0.984 . S
H335 N328 0.984 . S
H336 N324 0.984 1_455 S
H337 N324 0.985 . S
C123 C5 1.398 . S
C125 C99 1.277 . S
C141 C55 1.122 . S
C143 C105 0.991 . S
C159 C19 1.513 . S
C161 C96 1.422 . S
C177 C49 2.247 . S
C179 C121 2.134 . S
C195 C8 2.033 . S
C197 C87 1.961 . S
C215 C104 1.791 . S
C213 C48 1.875 . S
C231 C59 1.919 . S
C233 C100 1.856 . S
C251 C117 2.157 . S
C249 C18 2.211 . S
C269 C84 2.103 . S
C267 C58 2.306 . S
C287 C120 1.416 . S
C285 C15 1.617 . S
C305 C83 1.051 . S
C303 C45 1.196 . S
C323 C108 1.105 . S
C321 C9 1.201 . S
