# Generated by pormake.
# Topology ctn, (3,4)-cn, num edge types: 1
# Building blocks:
#     Node 0, Type 0, BuildingBlock: WUSLED_clean_sbu_0, # of connection points: 3
#     Node 1, Type 0, BuildingBlock: WUSLED_clean_sbu_0, # of connection points: 3
#     Node 2, Type 0, BuildingBlock: WUSLED_clean_sbu_0, # of connection points: 3
#     Node 3, Type 0, BuildingBlock: WUSLED_clean_sbu_0, # of connection points: 3
#     Node 4, Type 0, BuildingBlock: WUSLED_clean_sbu_0, # of connection points: 3
#     Node 5, Type 0, BuildingBlock: WUSLED_clean_sbu_0, # of connection points: 3
#     Node 6, Type 0, BuildingBlock: WUSLED_clean_sbu_0, # of connection points: 3
#     Node 7, Type 0, BuildingBlock: WUSLED_clean_sbu_0, # of connection points: 3
#     Node 8, Type 0, BuildingBlock: WUSLED_clean_sbu_0, # of connection points: 3
#     Node 9, Type 0, BuildingBlock: WUSLED_clean_sbu_0, # of connection points: 3
#     Node 10, Type 0, BuildingBlock: WUSLED_clean_sbu_0, # of connection points: 3
#     Node 11, Type 0, BuildingBlock: WUSLED_clean_sbu_0, # of connection points: 3
#     Node 12, Type 0, BuildingBlock: WUSLED_clean_sbu_0, # of connection points: 3
#     Node 13, Type 0, BuildingBlock: WUSLED_clean_sbu_0, # of connection points: 3
#     Node 14, Type 0, BuildingBlock: WUSLED_clean_sbu_0, # of connection points: 3
#     Node 15, Type 0, BuildingBlock: WUSLED_clean_sbu_0, # of connection points: 3
#     Node 16, Type 1, BuildingBlock: NAHDIM_clean_sbu_0, # of connection points: 4
#     Node 17, Type 1, BuildingBlock: NAHDIM_clean_sbu_0, # of connection points: 4
#     Node 18, Type 1, BuildingBlock: NAHDIM_clean_sbu_0, # of connection points: 4
#     Node 19, Type 1, BuildingBlock: NAHDIM_clean_sbu_0, # of connection points: 4
#     Node 20, Type 1, BuildingBlock: NAHDIM_clean_sbu_0, # of connection points: 4
#     Node 21, Type 1, BuildingBlock: NAHDIM_clean_sbu_0, # of connection points: 4
#     Node 22, Type 1, BuildingBlock: NAHDIM_clean_sbu_0, # of connection points: 4
#     Node 23, Type 1, BuildingBlock: NAHDIM_clean_sbu_0, # of connection points: 4
#     Node 24, Type 1, BuildingBlock: NAHDIM_clean_sbu_0, # of connection points: 4
#     Node 25, Type 1, BuildingBlock: NAHDIM_clean_sbu_0, # of connection points: 4
#     Node 26, Type 1, BuildingBlock: NAHDIM_clean_sbu_0, # of connection points: 4
#     Node 27, Type 1, BuildingBlock: NAHDIM_clean_sbu_0, # of connection points: 4
#     Edge 28, Type (0, 1), BuildingBlock: ZUJKAS_clean_linker_0, # of connection points: 2
#     Edge 29, Type (0, 1), BuildingBlock: ZUJKAS_clean_linker_0, # of connection points: 2
#     Edge 30, Type (0, 1), BuildingBlock: ZUJKAS_clean_linker_0, # of connection points: 2
#     Edge 31, Type (0, 1), BuildingBlock: ZUJKAS_clean_linker_0, # of connection points: 2
#     Edge 32, Type (0, 1), BuildingBlock: ZUJKAS_clean_linker_0, # of connection points: 2
#     Edge 33, Type (0, 1), BuildingBlock: ZUJKAS_clean_linker_0, # of connection points: 2
#     Edge 34, Type (0, 1), BuildingBlock: ZUJKAS_clean_linker_0, # of connection points: 2
#     Edge 35, Type (0, 1), BuildingBlock: ZUJKAS_clean_linker_0, # of connection points: 2
#     Edge 36, Type (0, 1), BuildingBlock: ZUJKAS_clean_linker_0, # of connection points: 2
#     Edge 37, Type (0, 1), BuildingBlock: ZUJKAS_clean_linker_0, # of connection points: 2
#     Edge 38, Type (0, 1), BuildingBlock: ZUJKAS_clean_linker_0, # of connection points: 2
#     Edge 39, Type (0, 1), BuildingBlock: ZUJKAS_clean_linker_0, # of connection points: 2
#     Edge 40, Type (0, 1), BuildingBlock: ZUJKAS_clean_linker_0, # of connection points: 2
#     Edge 41, Type (0, 1), BuildingBlock: ZUJKAS_clean_linker_0, # of connection points: 2
#     Edge 42, Type (0, 1), BuildingBlock: ZUJKAS_clean_linker_0, # of connection points: 2
#     Edge 43, Type (0, 1), BuildingBlock: ZUJKAS_clean_linker_0, # of connection points: 2
#     Edge 44, Type (0, 1), BuildingBlock: ZUJKAS_clean_linker_0, # of connection points: 2
#     Edge 45, Type (0, 1), BuildingBlock: ZUJKAS_clean_linker_0, # of connection points: 2
#     Edge 46, Type (0, 1), BuildingBlock: ZUJKAS_clean_linker_0, # of connection points: 2
#     Edge 47, Type (0, 1), BuildingBlock: ZUJKAS_clean_linker_0, # of connection points: 2
#     Edge 48, Type (0, 1), BuildingBlock: ZUJKAS_clean_linker_0, # of connection points: 2
#     Edge 49, Type (0, 1), BuildingBlock: ZUJKAS_clean_linker_0, # of connection points: 2
#     Edge 50, Type (0, 1), BuildingBlock: ZUJKAS_clean_linker_0, # of connection points: 2
#     Edge 51, Type (0, 1), BuildingBlock: ZUJKAS_clean_linker_0, # of connection points: 2
#     Edge 52, Type (0, 1), BuildingBlock: ZUJKAS_clean_linker_0, # of connection points: 2
#     Edge 53, Type (0, 1), BuildingBlock: ZUJKAS_clean_linker_0, # of connection points: 2
#     Edge 54, Type (0, 1), BuildingBlock: ZUJKAS_clean_linker_0, # of connection points: 2
#     Edge 55, Type (0, 1), BuildingBlock: ZUJKAS_clean_linker_0, # of connection points: 2
#     Edge 56, Type (0, 1), BuildingBlock: ZUJKAS_clean_linker_0, # of connection points: 2
#     Edge 57, Type (0, 1), BuildingBlock: ZUJKAS_clean_linker_0, # of connection points: 2
#     Edge 58, Type (0, 1), BuildingBlock: ZUJKAS_clean_linker_0, # of connection points: 2
#     Edge 59, Type (0, 1), BuildingBlock: ZUJKAS_clean_linker_0, # of connection points: 2
#     Edge 60, Type (0, 1), BuildingBlock: ZUJKAS_clean_linker_0, # of connection points: 2
#     Edge 61, Type (0, 1), BuildingBlock: ZUJKAS_clean_linker_0, # of connection points: 2
#     Edge 62, Type (0, 1), BuildingBlock: ZUJKAS_clean_linker_0, # of connection points: 2
#     Edge 63, Type (0, 1), BuildingBlock: ZUJKAS_clean_linker_0, # of connection points: 2
#     Edge 64, Type (0, 1), BuildingBlock: ZUJKAS_clean_linker_0, # of connection points: 2
#     Edge 65, Type (0, 1), BuildingBlock: ZUJKAS_clean_linker_0, # of connection points: 2
#     Edge 66, Type (0, 1), BuildingBlock: ZUJKAS_clean_linker_0, # of connection points: 2
#     Edge 67, Type (0, 1), BuildingBlock: ZUJKAS_clean_linker_0, # of connection points: 2
#     Edge 68, Type (0, 1), BuildingBlock: ZUJKAS_clean_linker_0, # of connection points: 2
#     Edge 69, Type (0, 1), BuildingBlock: ZUJKAS_clean_linker_0, # of connection points: 2
#     Edge 70, Type (0, 1), BuildingBlock: ZUJKAS_clean_linker_0, # of connection points: 2
#     Edge 71, Type (0, 1), BuildingBlock: ZUJKAS_clean_linker_0, # of connection points: 2
#     Edge 72, Type (0, 1), BuildingBlock: ZUJKAS_clean_linker_0, # of connection points: 2
#     Edge 73, Type (0, 1), BuildingBlock: ZUJKAS_clean_linker_0, # of connection points: 2
#     Edge 74, Type (0, 1), BuildingBlock: ZUJKAS_clean_linker_0, # of connection points: 2
#     Edge 75, Type (0, 1), BuildingBlock: ZUJKAS_clean_linker_0, # of connection points: 2
# Relax obj value: 0.002
# Max RMSD: 0.034
# Mean RMSD: 0.020
data_MOF--net-ctn--node1-WUSLED_clean_sbu_0--node2-NAHDIM_clean_sbu_0--edge1-ZUJKAS_clean_linker_0
_symmetry_space_group_name_H-M    P1
_symmetry_Int_Tables_number       1
_symmetry_cell_setting            triclinic
loop_
_symmetry_equiv_pos_as_xyz
'x, y, z'
_cell_length_a     87.072569
_cell_length_b     87.881798
_cell_length_c     86.9719
_cell_angle_alpha  91.53688
_cell_angle_beta   90.022643
_cell_angle_gamma 91.747637
loop_
_atom_site_label
_atom_site_type_symbol
_atom_site_fract_x
_atom_site_fract_y
_atom_site_fract_z
_atom_type_partial_charge
C0 C 0.02036 0.06802 0.0863 0.0
C1 C 0.02045 0.05341 0.09245 0.0
C2 C 1.00314 0.06145 0.11299 0.0
C3 C 0.01186 0.05014 0.10565 0.0
C4 C 1.00323 0.07609 0.1068 0.0
C5 C 0.01175 0.07932 0.09359 0.0
U6 U 0.05284 0.06143 0.05714 0.0
O7 O 0.05249 0.06284 0.03191 0.0
O8 O 0.06774 0.07825 0.04557 0.0
C9 C 0.0621 0.07467 0.03189 0.0
C10 C 0.02901 0.07175 0.07226 0.0
C11 C 0.05738 0.08758 0.02272 0.0
C12 C 0.03982 0.10781 0.01742 0.0
C13 C 0.04404 0.09551 0.02629 0.0
C14 C 0.06225 0.10435 1.00139 0.0
C15 C 0.0489 0.1124 1.00487 0.0
C16 C 0.06643 0.09207 0.01023 0.0
C17 C 0.08086 0.02901 0.06294 0.0
C18 C 0.09806 0.01852 0.04361 0.0
C19 C 0.10132 0.01249 0.07039 0.0
C20 C 0.08886 0.02148 0.07431 0.0
C21 C 0.10603 0.01077 0.05498 0.0
C22 C 0.08561 0.02758 0.04756 0.0
C23 C 0.06752 0.03807 0.06743 0.0
O24 O 0.0431 0.07719 0.07441 0.0
O25 O 0.02786 0.06171 0.0608 0.0
O26 O 0.05542 0.03668 0.05839 0.0
O27 O 0.07063 0.0522 0.07199 0.0
H28 H 0.02712 0.04455 0.08703 0.0
H29 H 0.01217 0.0388 0.11021 0.0
H30 H 0.9965 0.08501 0.11202 0.0
H31 H 0.01152 0.09065 0.089 0.0
H32 H 0.02957 0.11384 0.02054 0.0
H33 H 0.03694 0.09223 0.03595 0.0
H34 H 0.06939 0.1074 0.99168 0.0
H35 H 0.07675 0.08605 1.00728 0.0
H36 H 0.10125 0.01737 0.03161 0.0
H37 H 0.10733 1.00697 0.0795 0.0
H38 H 0.08543 0.02252 0.08626 0.0
H39 H 0.07961 0.03334 0.03859 0.0
C40 C 0.28527 0.74243 0.18972 0.0
C41 C 0.28995 0.75769 0.19258 0.0
C42 C 0.28419 0.7638 0.16602 0.0
C43 C 0.28935 0.76829 0.18085 0.0
C44 C 0.27973 0.74846 0.1632 0.0
C45 C 0.28024 0.73791 0.17493 0.0
U46 U 0.30187 0.72507 0.22611 0.0
O47 O 0.28979 0.71559 0.24612 0.0
O48 O 0.30429 0.70102 0.23173 0.0
C49 C 0.29446 0.70174 0.24318 0.0
C50 C 0.28522 0.73108 0.20194 0.0
C51 C 0.28251 0.68952 0.24341 0.0
C52 C 0.2627 0.67359 0.23074 0.0
C53 C 0.27363 0.68561 0.23034 0.0
C54 C 0.26924 0.66946 0.25735 0.0
C55 C 0.26041 0.66532 0.24426 0.0
C56 C 0.28017 0.68142 0.25691 0.0
C57 C 0.33823 0.74268 0.24512 0.0
C58 C 0.34761 0.73603 0.27036 0.0
C59 C 0.36376 0.75115 0.25357 0.0
C60 C 0.35216 0.75054 0.24242 0.0
C61 C 0.36163 0.74393 0.2677 0.0
C62 C 0.33602 0.73535 0.25914 0.0
C63 C 0.32621 0.74226 0.23317 0.0
O64 O 0.29648 0.72146 0.20148 0.0
O65 O 0.28211 0.73612 0.21593 0.0
O66 O 0.31226 0.74534 0.23785 0.0
O67 O 0.32653 0.73065 0.22334 0.0
H68 H 0.29399 0.76143 0.20388 0.0
H69 H 0.29303 0.77998 0.18336 0.0
H70 H 0.27553 0.74464 0.15198 0.0
H71 H 0.27655 0.7262 0.17249 0.0
H72 H 0.25598 0.67082 0.22051 0.0
H73 H 0.27522 0.69179 0.21982 0.0
H74 H 0.26794 0.66323 0.26788 0.0
H75 H 0.28695 0.68426 0.26711 0.0
H76 H 0.34566 0.73021 0.28103 0.0
H77 H 0.37432 0.7575 0.25122 0.0
H78 H 0.35407 0.75626 0.23168 0.0
H79 H 0.32537 0.72913 0.26139 0.0
C80 C 0.96411 0.44873 0.0177 0.0
C81 C 0.9786 0.4424 0.01939 0.0
C82 C 0.97208 0.42278 0.99985 0.0
C83 C 0.98256 0.42955 0.01053 0.0
C84 C 0.9575 0.4291 0.99841 0.0
C85 C 0.95358 0.44195 1.00723 0.0
U86 U 0.96913 0.47705 0.05181 0.0
O87 O 0.96762 0.50206 0.05245 0.0
O88 O 0.95165 0.48813 0.06608 0.0
C89 C 0.95535 0.5018 0.06124 0.0
C90 C 0.95978 0.46244 0.02659 0.0
C91 C 0.94249 0.51095 0.0561 0.0
C92 C 0.91852 0.51349 0.04213 0.0
C93 C 0.93087 0.50468 0.04646 0.0
C94 C 0.92943 0.53501 0.05679 0.0
C95 C 0.91759 0.52877 0.04732 0.0
C96 C 0.94172 0.52618 0.06114 0.0
C97 C 1.00078 0.4707 0.08179 0.0
C98 C 0.01101 0.48927 0.10069 0.0
C99 C 0.01613 0.46252 0.10321 0.0
C100 C 1.00765 0.45911 0.08985 0.0
C101 C 0.01797 0.47764 0.10879 0.0
C102 C 1.00243 0.48582 0.08733 0.0
C103 C 0.99214 0.46667 0.06759 0.0
O104 O 0.95373 0.46003 0.04018 0.0
O105 O 0.96983 0.47391 0.02665 0.0
O106 O 0.99397 0.47595 0.05608 0.0
O107 O 0.9778 0.46201 0.0695 0.0
H108 H 0.98689 0.44746 0.02745 0.0
H109 H 0.99393 0.4251 0.01185 0.0
H110 H 0.94902 0.42406 0.99055 0.0
H111 H 0.94231 0.44662 1.00584 0.0
H112 H 0.90957 0.50824 0.03496 0.0
H113 H 0.93127 0.49293 0.04241 0.0
H114 H 0.92928 0.54679 0.06078 0.0
H115 H 0.95062 0.53125 0.06852 0.0
H116 H 0.01207 0.50101 0.10476 0.0
H117 H 0.02149 0.45331 0.10903 0.0
H118 H 1.00653 0.44737 0.08574 0.0
H119 H 0.99714 0.49495 0.08132 0.0
C120 C 0.71544 0.77516 0.192 0.0
C121 C 0.72547 0.78166 0.18121 0.0
C122 C 0.72415 0.75821 0.16549 0.0
C123 C 0.72976 0.77327 0.16806 0.0
C124 C 0.71418 0.75176 0.17645 0.0
C125 C 0.70987 0.76017 0.18955 0.0
U126 U 0.72072 0.80829 0.2212 0.0
O127 O 0.70359 0.82265 0.23249 0.0
O128 O 0.71826 0.80852 0.24642 0.0
C129 C 0.70652 0.81757 0.24624 0.0
C130 C 0.71074 0.78375 0.2059 0.0
C131 C 0.69308 0.81271 0.25538 0.0
C132 C 0.66812 0.79975 0.2577 0.0
C133 C 0.68094 0.80386 0.24882 0.0
C134 C 0.67958 0.81303 0.27983 0.0
C135 C 0.66727 0.80432 0.27332 0.0
C136 C 0.69232 0.81718 0.27094 0.0
C137 C 0.75446 0.83694 0.21629 0.0
C138 C 0.75853 0.85981 0.23234 0.0
C139 C 0.77764 0.85269 0.21345 0.0
C140 C 0.76858 0.8399 0.20908 0.0
C141 C 0.77276 0.86281 0.22515 0.0
C142 C 0.74947 0.84695 0.22797 0.0
C143 C 0.74521 0.82335 0.21145 0.0
O144 O 0.72019 0.78337 0.21765 0.0
O145 O 0.70552 0.7974 0.20365 0.0
O146 O 0.73122 0.82584 0.20663 0.0
O147 O 0.74586 0.81168 0.22054 0.0
H148 H 0.72993 0.79322 0.18293 0.0
H149 H 0.73732 0.77867 0.15981 0.0
H150 H 0.70984 0.74013 0.17503 0.0
H151 H 0.7022 0.75493 0.19782 0.0
H152 H 0.65893 0.7929 0.25238 0.0
H153 H 0.68135 0.8002 0.23684 0.0
H154 H 0.67923 0.81689 0.29175 0.0
H155 H 0.70157 0.82403 0.27619 0.0
H156 H 0.7545 0.86728 0.24148 0.0
H157 H 0.7884 0.85475 0.20751 0.0
H158 H 0.77259 0.83231 0.20002 0.0
H159 H 0.73861 0.8448 0.23371 0.0
C160 C 0.01628 0.97493 0.44414 0.0
C161 C 0.02296 0.9843 0.43299 0.0
C162 C 0.99893 0.98358 0.4185 0.0
C163 C 0.01438 0.98855 0.42026 0.0
C164 C 0.99226 0.97437 0.42985 0.0
C165 C 1.00087 0.97008 0.44252 0.0
U166 U 0.05031 0.97916 0.47206 0.0
O167 O 0.05123 0.97579 0.497 0.0
O168 O 0.06492 0.96155 0.48144 0.0
C169 C 0.06017 0.96404 0.4956 0.0
C170 C 0.0252 0.96991 0.45738 0.0
C171 C 0.05543 0.9504 0.50415 0.0
C172 C 0.03573 0.93306 0.51408 0.0
C173 C 0.03992 0.94572 0.50538 0.0
C174 C 0.0625 0.92942 0.52011 0.0
C175 C 0.04697 0.92479 0.52161 0.0
C176 C 0.06667 0.94211 0.51149 0.0
C177 C 0.07937 0.01268 0.46784 0.0
C178 C 0.10501 0.01482 0.47901 0.0
C179 C 0.0932 0.03713 0.46903 0.0
C180 C 0.08013 0.02829 0.46495 0.0
C181 C 0.10583 0.0305 0.47606 0.0
C182 C 0.09186 1.00599 0.47499 0.0
C183 C 0.0655 1.00368 0.46317 0.0
O184 O 0.03887 0.96472 0.4542 0.0
O185 O 0.02511 0.97894 0.46967 0.0
O186 O 0.05393 1.00409 0.47285 0.0
O187 O 0.06772 0.98999 0.45728 0.0
H188 H 0.03483 0.98826 0.43409 0.0
H189 H 0.01981 0.9958 0.41183 0.0
H190 H 0.98046 0.9702 0.42878 0.0
H191 H 0.99552 0.96283 0.451 0.0
H192 H 0.02369 0.92969 0.51484 0.0
H193 H 0.03106 0.95191 0.49971 0.0
H194 H 0.07144 0.92344 0.52589 0.0
H195 H 0.07869 0.94555 0.5107 0.0
H196 H 0.11446 1.0094 0.48456 0.0
H197 H 0.09352 0.04911 0.46642 0.0
H198 H 0.07062 0.03366 0.45943 0.0
H199 H 0.09147 0.99396 0.47743 0.0
C200 C 0.20985 0.75937 0.83596 0.0
C201 C 0.22349 0.75646 0.84381 0.0
C202 C 0.21797 0.7764 0.86292 0.0
C203 C 0.22753 0.76493 0.85717 0.0
C204 C 0.20428 0.77918 0.85499 0.0
C205 C 0.20029 0.77074 0.84164 0.0
U206 U 0.21541 0.72701 0.80622 0.0
O207 O 0.1981 0.71209 0.79445 0.0
O208 O 0.21317 0.72712 0.78101 0.0
C209 C 0.20125 0.71759 0.78086 0.0
C210 C 0.20543 0.75074 0.82183 0.0
C211 C 0.18794 0.72227 0.77188 0.0
C212 C 0.16639 0.73875 0.76812 0.0
C213 C 0.17898 0.73445 0.77688 0.0
C214 C 0.17164 0.71875 0.74931 0.0
C215 C 0.16257 0.73096 0.7542 0.0
C216 C 0.18419 0.71447 0.75808 0.0
C217 C 0.24863 0.69963 0.81104 0.0
C218 C 0.2508 0.67467 0.79856 0.0
C219 C 0.27295 0.68678 0.81118 0.0
C220 C 0.26415 0.69931 0.81523 0.0
C221 C 0.26637 0.67425 0.80289 0.0
C222 C 0.24202 0.68728 0.80255 0.0
C223 C 0.23955 0.7128 0.81593 0.0
O224 O 0.21513 0.75181 0.8103 0.0
O225 O 0.20011 0.73678 0.82378 0.0
O226 O 0.22547 0.70972 0.82063 0.0
O227 O 0.24053 0.72468 0.80707 0.0
H228 H 0.231 0.74767 0.83961 0.0
H229 H 0.23806 0.76238 0.86308 0.0
H230 H 0.19676 0.78805 0.85894 0.0
H231 H 0.18973 0.77316 0.8357 0.0
H232 H 0.15978 0.7483 0.77215 0.0
H233 H 0.18176 0.74064 0.78751 0.0
H234 H 0.16892 0.71236 0.7388 0.0
H235 H 0.19096 0.70501 0.75407 0.0
H236 H 0.24543 0.66529 0.79202 0.0
H237 H 0.28484 0.68676 0.81485 0.0
H238 H 0.26945 0.70873 0.8218 0.0
H239 H 0.23006 0.68734 0.79911 0.0
C240 C 0.96543 0.5844 0.50885 0.0
C241 C 0.97862 0.5929 0.50471 0.0
C242 C 0.97405 0.61131 0.5256 0.0
C243 C 0.9829 0.60624 0.51302 0.0
C244 C 0.96084 0.60269 0.52965 0.0
C245 C 0.95659 0.58937 0.52135 0.0
U246 U 0.97056 0.55471 0.47629 0.0
O247 O 0.96763 0.52975 0.47667 0.0
O248 O 0.95314 0.5429 0.46162 0.0
C249 C 0.95579 0.52951 0.46728 0.0
C250 C 0.96073 0.57032 0.50034 0.0
C251 C 0.94214 0.52076 0.4724 0.0
C252 C 0.91988 0.51777 0.48906 0.0
C253 C 0.93289 0.52622 0.48442 0.0
C254 C 0.92528 0.4983 0.46974 0.0
C255 C 0.91588 0.5037 0.48174 0.0
C256 C 0.93826 0.50675 0.46513 0.0
C257 C 1.00427 0.55963 0.44806 0.0
C258 C 0.01103 0.54093 0.42826 0.0
C259 C 0.0248 0.56528 0.43 0.0
C260 C 0.01571 0.5696 0.44252 0.0
C261 C 0.02266 0.55086 0.42274 0.0
C262 C 1.00191 0.54528 0.44082 0.0
C263 C 0.99508 0.56444 0.46143 0.0
O264 O 0.95561 0.57212 0.48631 0.0
O265 O 0.97012 0.55896 0.50133 0.0
O266 O 0.99567 0.55573 0.47346 0.0
O267 O 0.98114 0.56885 0.4584 0.0
H268 H 0.98557 0.58922 0.49505 0.0
H269 H 0.99304 0.61267 0.50949 0.0
H270 H 0.95388 0.6061 0.53939 0.0
H271 H 0.9464 0.58291 0.52474 0.0
H272 H 0.91283 0.52236 0.49822 0.0
H273 H 0.93572 0.53704 0.49017 0.0
H274 H 0.92272 0.48742 0.46401 0.0
H275 H 0.94531 0.50233 0.45586 0.0
H276 H 1.00915 0.5297 0.42305 0.0
H277 H 0.03344 0.57333 0.42592 0.0
H278 H 0.01764 0.58075 0.44792 0.0
H279 H 0.9931 0.53743 0.44495 0.0
C280 C 0.78515 0.79253 0.84169 0.0
C281 C 0.79281 0.77877 0.83989 0.0
C282 C 0.7832 0.77051 0.86479 0.0
C283 C 0.79184 0.76785 0.85134 0.0
C284 C 0.77578 0.78446 0.86658 0.0
C285 C 0.77674 0.79533 0.85514 0.0
U286 U 0.80248 0.81022 0.80546 0.0
O287 O 0.79085 0.81949 0.78546 0.0
O288 O 0.8059 0.83438 0.79988 0.0
C289 C 0.79601 0.83346 0.78844 0.0
C290 C 0.78557 0.80401 0.82965 0.0
C291 C 0.7844 0.8453 0.78842 0.0
C292 C 0.76098 0.8563 0.79834 0.0
C293 C 0.77199 0.84501 0.79871 0.0
C294 C 0.77474 0.86829 0.77748 0.0
C295 C 0.76219 0.86807 0.78767 0.0
C296 C 0.78572 0.85702 0.77786 0.0
C297 C 0.83774 0.79244 0.78639 0.0
C298 C 0.85012 0.8022 0.76344 0.0
C299 C 0.85979 0.77983 0.77541 0.0
C300 C 0.84838 0.78081 0.78666 0.0
C301 C 0.8608 0.79047 0.76361 0.0
C302 C 0.83867 0.80316 0.77472 0.0
C303 C 0.82582 0.79311 0.79835 0.0
O304 O 0.7974 0.81367 0.8301 0.0
O305 O 0.78218 0.79896 0.81566 0.0
O306 O 0.81169 0.78998 0.79369 0.0
O307 O 0.82686 0.80486 0.808 0.0
H308 H 0.79941 0.77642 0.82958 0.0
H309 H 0.79758 0.7572 0.84949 0.0
H310 H 0.76927 0.78704 0.87688 0.0
H311 H 0.77083 0.80592 0.85677 0.0
H312 H 0.75139 0.85568 0.80626 0.0
H313 H 0.77079 0.83602 0.80695 0.0
H314 H 0.7762 0.87729 0.76929 0.0
H315 H 0.79527 0.85745 0.76988 0.0
H316 H 0.85046 0.81049 0.75445 0.0
H317 H 0.86795 0.77081 0.77607 0.0
H318 H 0.84787 0.77248 0.79562 0.0
H319 H 0.83051 0.81221 0.77433 0.0
C320 C 0.28391 0.2895 0.33826 0.0
C321 C 0.29494 0.27819 0.3385 0.0
C322 C 0.28259 0.26707 0.36096 0.0
C323 C 0.29431 0.26708 0.34978 0.0
C324 C 0.27165 0.27853 0.36065 0.0
C325 C 0.27232 0.28961 0.34941 0.0
U326 U 0.3006 0.30805 0.30211 0.0
O327 O 0.28839 0.31765 0.28258 0.0
O328 O 0.30373 0.33232 0.29695 0.0
C329 C 0.29358 0.33158 0.28574 0.0
C330 C 0.28415 0.3012 0.32645 0.0
C331 C 0.28197 0.34346 0.28596 0.0
C332 C 0.26398 0.35968 0.29953 0.0
C333 C 0.27471 0.3481 0.29964 0.0
C334 C 0.26746 0.36187 0.27204 0.0
C335 C 0.26025 0.36673 0.28571 0.0
C336 C 0.27821 0.35037 0.27218 0.0
C337 C 0.33552 0.29109 0.28149 0.0
C338 C 0.35459 0.30376 0.26539 0.0
C339 C 0.35067 0.27639 0.26325 0.0
C340 C 0.33933 0.27709 0.27462 0.0
C341 C 0.35852 0.28971 0.25857 0.0
C342 C 0.34315 0.30446 0.27669 0.0
C343 C 0.32386 0.29134 0.29384 0.0
O344 O 0.29596 0.31088 0.32689 0.0
O345 O 0.28058 0.29636 0.31243 0.0
O346 O 0.30963 0.28813 0.28953 0.0
O347 O 0.32501 0.30267 0.30401 0.0
H348 H 0.30397 0.27792 0.32994 0.0
H349 H 0.30283 0.25836 0.34959 0.0
H350 H 0.26263 0.27904 0.3692 0.0
H351 H 0.26374 0.29829 0.34943 0.0
H352 H 0.25852 0.36303 0.31023 0.0
H353 H 0.27737 0.34283 0.3104 0.0
H354 H 0.26501 0.36716 0.26124 0.0
H355 H 0.2837 0.34696 0.26151 0.0
H356 H 0.3603 0.31424 0.26191 0.0
H357 H 0.35352 0.26537 0.25836 0.0
H358 H 0.33362 0.26663 0.27817 0.0
H359 H 0.34036 0.31544 0.28173 0.0
C360 C 0.46545 0.95045 0.51708 0.0
C361 C 0.478 0.94181 0.52125 0.0
C362 C 0.47351 0.92471 0.499 0.0
C363 C 0.482 0.92904 0.5123 0.0
C364 C 0.46087 0.93341 0.49499 0.0
C365 C 0.4569 0.94615 0.50395 0.0
U366 U 0.47071 0.97848 0.55141 0.0
O367 O 0.46916 1.00345 0.55223 0.0
O368 O 0.45328 0.98944 0.56587 0.0
C369 C 0.45698 1.00315 0.56115 0.0
C370 C 0.46113 0.96403 0.52617 0.0
C371 C 0.44408 0.01228 0.55615 0.0
C372 C 0.42204 0.01607 0.53964 0.0
C373 C 0.43436 1.00726 0.54405 0.0
C374 C 0.42913 0.03505 0.55928 0.0
C375 C 0.41923 0.03007 0.54725 0.0
C376 C 0.44141 0.02624 0.56368 0.0
C377 C 0.50269 0.97262 0.58095 0.0
C378 C 0.51138 0.99146 0.6003 0.0
C379 C 0.51985 0.96552 0.60142 0.0
C380 C 0.51125 0.96165 0.58824 0.0
C381 C 0.52013 0.98051 0.60759 0.0
C382 C 0.50272 0.98755 0.58711 0.0
C383 C 0.49399 0.96824 0.5669 0.0
O384 O 0.45531 0.96145 0.53983 0.0
O385 O 0.47116 0.97551 0.52622 0.0
O386 O 0.4956 0.97746 0.55531 0.0
O387 O 0.47971 0.9635 0.569 0.0
H388 H 0.48475 0.945 0.53137 0.0
H389 H 0.49188 0.9227 0.51564 0.0
H390 H 0.45393 0.9303 0.485 0.0
H391 H 0.44713 0.95266 0.50059 0.0
H392 H 0.41458 0.0118 0.53043 0.0
H393 H 0.43626 0.99649 0.5381 0.0
H394 H 0.4275 0.04587 0.56523 0.0
H395 H 0.44884 0.03033 0.573 0.0
H396 H 0.51142 1.00314 0.60462 0.0
H397 H 0.52619 0.95672 0.60686 0.0
H398 H 0.51129 0.95004 0.5837 0.0
H399 H 0.49615 0.99618 0.58166 0.0
C400 C 0.21563 0.2764 0.69219 0.0
C401 C 0.22802 0.2813 0.68307 0.0
C402 C 0.22431 0.25899 0.666 0.0
C403 C 0.23232 0.27268 0.67008 0.0
C404 C 0.21192 0.25416 0.67525 0.0
C405 C 0.20763 0.2628 0.6882 0.0
U406 U 0.22058 0.31054 0.72016 0.0
O407 O 0.2032 0.32517 0.73069 0.0
O408 O 0.21795 0.31184 0.74533 0.0
C409 C 0.20616 0.3208 0.74469 0.0
C410 C 0.21086 0.28536 0.70581 0.0
C411 C 0.19271 0.31629 0.75393 0.0
C412 C 0.17095 0.29918 0.75916 0.0
C413 C 0.18382 0.30311 0.75024 0.0
C414 C 0.17581 0.32156 0.77552 0.0
C415 C 0.16675 0.30842 0.77188 0.0
C416 C 0.18864 0.32544 0.76663 0.0
C417 C 0.25369 0.33958 0.71401 0.0
C418 C 0.25838 0.36195 0.73062 0.0
C419 C 0.27473 0.3574 0.70854 0.0
C420 C 0.2662 0.34406 0.70489 0.0
C421 C 0.27092 0.36656 0.72142 0.0
C422 C 0.24982 0.34858 0.72692 0.0
C423 C 0.24482 0.32558 0.70978 0.0
O424 O 0.22038 0.28555 0.71755 0.0
O425 O 0.20547 0.29882 0.70304 0.0
O426 O 0.2308 0.32753 0.70476 0.0
O427 O 0.24567 0.31438 0.71944 0.0
H428 H 0.23436 0.29178 0.68601 0.0
H429 H 0.24202 0.27664 0.66334 0.0
H430 H 0.20535 0.24382 0.67234 0.0
H431 H 0.198 0.25887 0.69509 0.0
H432 H 0.16416 0.28907 0.75594 0.0
H433 H 0.18679 0.29592 0.74044 0.0
H434 H 0.17309 0.32879 0.78536 0.0
H435 H 0.19541 0.33563 0.76968 0.0
H436 H 0.25503 0.36881 0.74052 0.0
H437 H 0.28444 0.36045 0.70135 0.0
H438 H 0.26938 0.33721 0.69491 0.0
H439 H 0.24016 0.3453 0.73408 0.0
C440 C 0.78401 0.24285 0.68912 0.0
C441 C 0.78932 0.25793 0.69196 0.0
C442 C 0.78308 0.26443 0.66562 0.0
C443 C 0.78879 0.26864 0.68032 0.0
C444 C 0.77793 0.24927 0.66284 0.0
C445 C 0.77837 0.23862 0.67448 0.0
U446 U 0.80102 0.22549 0.72522 0.0
O447 O 0.78928 0.21566 0.74524 0.0
O448 O 0.8039 0.20144 0.73063 0.0
C449 C 0.79414 0.2019 0.74214 0.0
C450 C 0.78409 0.23138 0.70121 0.0
C451 C 0.78231 0.18957 0.74223 0.0
C452 C 0.76108 0.17513 0.73015 0.0
C453 C 0.77209 0.18709 0.72987 0.0
C454 C 0.77033 0.16814 0.75518 0.0
C455 C 0.76008 0.16549 0.74282 0.0
C456 C 0.78133 0.18005 0.75487 0.0
C457 C 0.83724 0.24402 0.74391 0.0
C458 C 0.85203 0.23262 0.76411 0.0
C459 C 0.85858 0.25817 0.75602 0.0
C460 C 0.84655 0.25725 0.74536 0.0
C461 C 0.86159 0.24583 0.76544 0.0
C462 C 0.83995 0.23173 0.75342 0.0
C463 C 0.82501 0.24321 0.73218 0.0
O464 O 0.79551 0.22194 0.70063 0.0
O465 O 0.78098 0.23627 0.71526 0.0
O466 O 0.81107 0.24588 0.73715 0.0
O467 O 0.82548 0.23165 0.72231 0.0
H468 H 0.79383 0.26143 0.70315 0.0
H469 H 0.79299 0.28017 0.68279 0.0
H470 H 0.7733 0.24568 0.65172 0.0
H471 H 0.77421 0.22706 0.67207 0.0
H472 H 0.75327 0.17352 0.72051 0.0
H473 H 0.77265 0.19439 0.72003 0.0
H474 H 0.77005 0.16082 0.76502 0.0
H475 H 0.78916 0.18178 0.7645 0.0
H476 H 0.85408 0.22287 0.77109 0.0
H477 H 0.8655 0.26861 0.75691 0.0
H478 H 0.84457 0.26688 0.73816 0.0
H479 H 0.83285 0.2214 0.75246 0.0
C480 C 0.518 0.56286 0.58336 0.0
C481 C 0.52446 0.55429 0.59498 0.0
C482 C 0.50039 0.55478 0.60938 0.0
C483 C 0.51574 0.5503 0.60789 0.0
C484 C 0.49397 0.56318 0.59754 0.0
C485 C 0.5027 0.56718 0.58469 0.0
U486 U 0.55199 0.55882 0.5556 0.0
O487 O 0.55279 0.5611 0.53048 0.0
O488 O 0.56675 0.57664 0.54533 0.0
C489 C 0.56189 0.57332 0.5313 0.0
C490 C 0.52703 0.56756 0.56987 0.0
C491 C 0.55711 0.58635 0.52231 0.0
C492 C 0.53779 0.60395 0.51433 0.0
C493 C 0.54207 0.59164 0.52313 0.0
C494 C 0.56357 0.60591 0.50397 0.0
C495 C 0.5485 0.61124 0.50463 0.0
C496 C 0.56781 0.59359 0.51272 0.0
C497 C 0.5808 0.52714 0.5616 0.0
C498 C 0.60041 0.51967 0.54321 0.0
C499 C 0.60003 0.50912 0.56865 0.0
C500 C 0.58719 0.51762 0.5724 0.0
C501 C 0.60676 0.50992 0.55397 0.0
C502 C 0.58754 0.52821 0.547 0.0
C503 C 0.567 0.53561 0.56578 0.0
O504 O 0.54079 0.57353 0.57279 0.0
O505 O 0.52679 0.55791 0.55806 0.0
O506 O 0.55541 0.53416 0.55611 0.0
O507 O 0.56945 0.54969 0.5709 0.0
H508 H 0.53626 0.55081 0.59414 0.0
H509 H 0.52112 0.54397 0.61682 0.0
H510 H 0.48213 0.56658 0.59813 0.0
H511 H 0.4975 0.57372 0.57579 0.0
H512 H 0.52614 0.60786 0.51524 0.0
H513 H 0.53366 0.58624 0.53056 0.0
H514 H 0.57205 0.61112 0.4965 0.0
H515 H 0.57946 0.58966 0.51193 0.0
H516 H 0.60519 0.52048 0.53176 0.0
H517 H 0.60476 0.50198 0.57732 0.0
H518 H 0.58219 0.51672 0.58376 0.0
H519 H 0.58277 0.53553 0.5385 0.0
C520 C 0.51438 0.47343 0.94618 0.0
C521 C 0.52009 0.48411 0.93573 0.0
C522 C 0.4966 0.48106 0.92046 0.0
C523 C 0.51127 0.48789 0.92298 0.0
C524 C 0.49094 0.47048 0.9311 0.0
C525 C 0.49976 0.46671 0.9438 0.0
U526 U 0.54898 0.47856 0.9734 0.0
O527 O 0.54988 0.47679 0.99862 0.0
O528 O 0.5631 0.4613 0.98391 0.0
C529 C 0.55848 0.46476 0.99794 0.0
C530 C 0.52345 0.46911 0.95958 0.0
C531 C 0.55334 0.45188 1.00737 0.0
C532 C 0.54027 0.42724 0.01024 0.0
C533 C 0.54459 0.43953 1.00109 0.0
C534 C 0.55309 0.43964 0.03211 0.0
C535 C 0.54449 0.42713 0.02587 0.0
C536 C 0.55748 0.45185 0.02294 0.0
C537 C 0.57913 0.51047 0.96692 0.0
C538 C 0.6013 0.51517 0.98358 0.0
C539 C 0.5975 0.53102 0.96161 0.0
C540 C 0.58406 0.52262 0.95787 0.0
C541 C 0.60632 0.52741 0.97452 0.0
C542 C 0.58782 0.50677 0.9798 0.0
C543 C 0.56489 0.50189 0.96276 0.0
O544 O 0.53692 0.4634 0.95652 0.0
O545 O 0.5238 0.47896 0.97123 0.0
O546 O 0.55344 0.5033 0.97248 0.0
O547 O 0.56662 0.48778 0.9578 0.0
H548 H 0.53137 0.48943 0.93741 0.0
H549 H 0.51605 0.49598 0.91496 0.0
H550 H 0.47961 0.46519 0.9297 0.0
H551 H 0.49513 0.45851 0.9518 0.0
H552 H 0.5335 0.41787 1.00512 0.0
H553 H 0.54118 0.43936 0.9891 0.0
H554 H 0.55671 0.43985 0.04404 0.0
H555 H 0.56424 0.46126 0.028 0.0
H556 H 0.60788 0.51198 0.99349 0.0
H557 H 0.60086 0.54049 0.95451 0.0
H558 H 0.57745 0.52567 0.94791 0.0
H559 H 0.58419 0.49738 0.98691 0.0
C560 C 0.71153 0.26163 0.33422 0.0
C561 C 0.72357 0.25759 0.34388 0.0
C562 C 0.71945 0.28006 0.36031 0.0
C563 C 0.72749 0.26672 0.35684 0.0
C564 C 0.70739 0.28398 0.35054 0.0
C565 C 0.70348 0.27485 0.33764 0.0
U566 U 0.71671 0.22791 0.30573 0.0
O567 O 0.69896 0.21262 0.29504 0.0
O568 O 0.7138 0.22695 0.28061 0.0
C569 C 0.70168 0.21768 0.28119 0.0
C570 C 0.70705 0.25224 0.32059 0.0
C571 C 0.68809 0.22213 0.27242 0.0
C572 C 0.67203 0.24142 0.26168 0.0
C573 C 0.68476 0.23751 0.27043 0.0
C574 C 0.66557 0.21469 0.25712 0.0
C575 C 0.6623 0.23005 0.25489 0.0
C576 C 0.67836 0.21078 0.26575 0.0
C577 C 0.75011 0.20075 0.31054 0.0
C578 C 0.75194 0.17525 0.29921 0.0
C579 C 0.77464 0.18827 0.30977 0.0
C580 C 0.76589 0.20085 0.31375 0.0
C581 C 0.76777 0.17526 0.30253 0.0
C582 C 0.74319 0.18791 0.30312 0.0
C583 C 0.74114 0.21407 0.31527 0.0
O584 O 0.71654 0.25285 0.30886 0.0
O585 O 0.70191 0.23836 0.32331 0.0
O586 O 0.72721 0.21116 0.32049 0.0
O587 O 0.74185 0.22563 0.30599 0.0
H588 H 0.72993 0.24741 0.34138 0.0
H589 H 0.73693 0.26345 0.36403 0.0
H590 H 0.70079 0.29401 0.35298 0.0
H591 H 0.69411 0.2781 0.33035 0.0
H592 H 0.66972 0.25336 0.26034 0.0
H593 H 0.69202 0.24649 0.27557 0.0
H594 H 0.6584 0.20566 0.25193 0.0
H595 H 0.68072 0.19886 0.26714 0.0
H596 H 0.74633 0.16549 0.29349 0.0
H597 H 0.78675 0.1886 0.31266 0.0
H598 H 0.77143 0.21065 0.31948 0.0
H599 H 0.73104 0.18762 0.30043 0.0
C600 C 0.46442 0.08153 0.01019 0.0
C601 C 0.47761 0.09028 1.00655 0.0
C602 C 0.47279 0.10767 0.02827 0.0
C603 C 0.48176 0.10326 0.01551 0.0
C604 C 0.45954 0.09885 0.03173 0.0
C605 C 0.45542 0.08593 0.02279 0.0
U606 U 0.46903 0.05265 0.97649 0.0
O607 O 0.46575 0.02771 0.97642 0.0
O608 O 0.45111 0.04138 0.96202 0.0
C609 C 0.45371 0.02783 0.96732 0.0
C610 C 0.4598 0.06777 1.00112 0.0
C611 C 0.44006 0.01916 0.97258 0.0
C612 C 0.41798 0.01629 0.9895 0.0
C613 C 0.43099 0.02466 0.98473 0.0
C614 C 0.42304 0.99681 0.97008 0.0
C615 C 0.41381 1.00226 0.9822 0.0
C616 C 0.43602 1.00519 0.96533 0.0
C617 C 0.502 0.05732 0.94706 0.0
C618 C 0.50823 0.06053 0.91998 0.0
C619 C 0.52273 0.04321 0.93504 0.0
C620 C 0.51381 0.04679 0.94796 0.0
C621 C 0.52015 0.05014 0.92091 0.0
C622 C 0.49932 0.06412 0.93289 0.0
C623 C 0.49326 0.06207 0.96098 0.0
O624 O 0.45453 0.07005 0.98723 0.0
O625 O 0.46922 0.05639 1.00161 0.0
O626 O 0.49408 0.05338 0.97302 0.0
O627 O 0.47937 0.06706 0.9587 0.0
H628 H 0.4847 0.08702 0.99685 0.0
H629 H 0.4921 0.1097 0.0126 0.0
H630 H 0.45222 0.10203 0.04128 0.0
H631 H 0.44516 0.07934 0.02571 0.0
H632 H 0.41106 0.02092 0.99875 0.0
H633 H 0.43395 0.03546 0.99046 0.0
H634 H 0.42034 0.98596 0.96436 0.0
H635 H 0.44293 1.00074 0.95598 0.0
H636 H 0.50579 0.06596 0.90925 0.0
H637 H 0.53195 0.03533 0.93626 0.0
H638 H 0.51639 0.04151 0.95873 0.0
H639 H 0.49045 0.0724 0.9318 0.0
C640 C 0.2346 0.91586 0.0197 0.0
O641 O 0.24382 0.919 1.00818 0.0
O642 O 0.24915 0.87663 1.00445 0.0
Zn643 Zn 0.25492 0.89053 0.02278 0.0
O644 O 0.27377 0.90351 0.01751 0.0
C645 C 0.26713 0.86587 0.04035 0.0
O646 O 0.273 0.86199 0.02695 0.0
O647 O 0.23709 0.90424 0.02765 0.0
C648 C 0.28161 0.91108 0.0276 0.0
O649 O 0.27744 0.91049 0.0421 0.0
C650 C 0.259 0.87293 0.99431 0.0
O651 O 0.27322 0.87821 0.99578 0.0
O652 O 0.25913 0.87773 0.0414 0.0
C653 C 0.15939 0.49358 0.27713 0.0
O654 O 0.16192 0.50558 0.28622 0.0
O655 O 0.12102 0.5143 0.28352 0.0
Zn656 Zn 0.13552 0.51245 0.26526 0.0
O657 O 0.14932 0.53143 0.2642 0.0
C658 C 0.11225 0.50001 0.24444 0.0
O659 O 0.10981 0.49086 0.25595 0.0
O660 O 0.14863 0.49384 0.26725 0.0
C661 C 0.15827 0.53336 0.25282 0.0
O662 O 0.15843 0.52287 0.24178 0.0
C663 C 0.12483 0.52169 0.29579 0.0
O664 O 0.13859 0.52821 0.29674 0.0
O665 O 0.12283 0.51028 0.24569 0.0
C666 C 0.78927 0.61999 1.00645 0.0
O667 O 0.78255 0.61793 0.99299 0.0
O668 O 0.77114 0.65603 0.99229 0.0
Zn669 Zn 0.76581 0.64245 0.01017 0.0
O670 O 0.74789 0.62821 1.00414 0.0
C671 C 0.76891 0.66582 0.03422 0.0
O672 O 0.78262 0.66762 0.02809 0.0
O673 O 0.78416 0.63 0.01581 0.0
C674 C 0.73965 0.62192 0.01439 0.0
O675 O 0.74299 0.62471 0.02895 0.0
C676 C 0.76111 0.66503 0.98755 0.0
O677 O 0.74765 0.66518 0.99438 0.0
O678 O 0.75969 0.65568 0.0285 0.0
C679 C 0.85843 0.04242 0.27544 0.0
O680 O 0.85314 0.02926 0.28036 0.0
O681 O 0.89649 0.02027 0.28441 0.0
Zn682 Zn 0.88368 0.02389 0.26532 0.0
O683 O 0.86894 1.00586 0.26135 0.0
C684 C 0.90657 0.03799 0.24559 0.0
O685 O 0.907 0.04829 0.25684 0.0
O686 O 0.87139 0.043 0.26869 0.0
C687 C 0.87378 0.99245 0.25927 0.0
O688 O 0.88864 0.99031 0.25973 0.0
C689 C 0.91002 0.0152 0.2836 0.0
O690 O 0.91595 0.0122 0.27001 0.0
O691 O 0.89745 0.02648 0.24665 0.0
C692 C 0.29281 0.12327 0.50528 0.0
O693 O 0.28796 0.12351 0.49098 0.0
O694 O 0.2721 0.15665 0.49202 0.0
Zn695 Zn 0.26736 0.14348 0.51048 0.0
O696 O 0.24936 0.12879 0.50562 0.0
C697 C 0.26353 0.17116 0.52969 0.0
O698 O 0.26836 0.17819 0.51737 0.0
O699 O 0.28589 0.13105 0.51553 0.0
C700 C 0.23571 0.13158 0.50981 0.0
O701 O 0.23311 0.14442 0.51731 0.0
C702 C 0.26138 0.16204 0.48405 0.0
O703 O 0.24705 0.1589 0.48781 0.0
O704 O 0.26229 0.15669 0.52932 0.0
C705 C 0.35782 0.54207 0.77501 0.0
O706 O 0.35216 0.52854 0.77836 0.0
O707 O 0.39843 0.52207 0.78428 0.0
Zn708 Zn 0.3846 0.52483 0.76575 0.0
O709 O 0.37091 0.50592 0.76213 0.0
C710 C 0.40727 0.51915 0.74173 0.0
O711 O 0.40855 0.50617 0.7487 0.0
O712 O 0.37138 0.54323 0.76961 0.0
C713 C 0.36514 0.50241 0.74902 0.0
O714 O 0.36815 0.51127 0.7374 0.0
C715 C 0.40122 0.50892 0.7892 0.0
O716 O 0.39499 0.49687 0.78211 0.0
O717 O 0.3978 0.52875 0.74694 0.0
C718 C 0.73804 0.41809 0.5206 0.0
O719 O 0.74932 0.42338 0.51204 0.0
O720 O 0.75223 0.37661 0.50425 0.0
Zn721 Zn 0.7572 0.39137 0.52203 0.0
O722 O 0.77609 0.40421 0.51655 0.0
C723 C 0.76872 0.36698 0.54004 0.0
O724 O 0.774 0.3626 0.52653 0.0
O725 O 0.73895 0.40485 0.52605 0.0
C726 C 0.78382 0.41197 0.52658 0.0
O727 O 0.77951 0.41162 0.54105 0.0
C728 C 0.75016 0.38127 0.49071 0.0
O729 O 0.75109 0.39596 0.48831 0.0
O730 O 0.76129 0.37921 0.54109 0.0
C731 C 0.65506 0.98993 0.78048 0.0
O732 O 0.65038 0.99694 0.79308 0.0
O733 O 0.62245 0.01408 0.78413 0.0
Zn734 Zn 0.63636 0.01224 0.76536 0.0
O735 O 0.6495 0.03159 0.76341 0.0
C736 C 0.61133 0.01577 0.74337 0.0
O737 O 0.6069 0.02614 0.75344 0.0
O738 O 0.65051 0.99444 0.76751 0.0
C739 C 0.65643 0.03467 0.75096 0.0
O740 O 0.65491 0.02515 0.73911 0.0
C741 C 0.61829 0.02703 0.7892 0.0
O742 O 0.62307 0.03931 0.78211 0.0
O743 O 0.62345 1.00854 0.74603 0.0
C744 C 1.0087 0.23714 0.90932 0.0
O745 O 0.99426 0.23988 0.90633 0.0
O746 O 0.99553 0.25911 0.87744 0.0
Zn747 Zn 0.01476 0.26372 0.8904 0.0
O748 O 0.01147 0.28223 0.90451 0.0
C749 C 0.03811 0.28052 0.87262 0.0
O750 O 0.03096 0.29253 0.87787 0.0
O751 O 0.01921 0.2457 0.90372 0.0
C752 C 1.00278 0.29296 0.90086 0.0
O753 O 0.99577 0.29218 0.88747 0.0
C754 C 0.99454 0.26354 0.86367 0.0
O755 O 1.00622 0.27113 0.85772 0.0
O756 O 0.03329 0.26734 0.87645 0.0
C757 C 0.50951 0.73429 0.40643 0.0
O758 O 0.49645 0.7337 0.39886 0.0
O759 O 0.49627 0.75948 0.37728 0.0
Zn760 Zn 0.51434 0.76397 0.39172 0.0
O761 O 0.50999 0.78215 0.4058 0.0
C762 C 0.53253 0.7735 0.36535 0.0
O763 O 0.51892 0.77573 0.35944 0.0
O764 O 0.51859 0.7458 0.405 0.0
C765 C 0.50606 0.79486 0.40061 0.0
O766 O 0.50471 0.79626 0.38567 0.0
C767 C 0.48235 0.76148 0.38107 0.0
O768 O 0.47924 0.76628 0.39513 0.0
O769 O 0.53342 0.76864 0.37897 0.0
C770 C 1.0091 0.80214 0.62339 0.0
O771 O 0.99768 0.8038 0.63309 0.0
O772 O 0.99289 0.77722 0.65096 0.0
Zn773 Zn 0.01113 0.77219 0.63728 0.0
O774 O 1.00552 0.75351 0.62396 0.0
C775 C 0.02999 0.76915 0.66499 0.0
O776 O 0.01759 0.77369 0.67215 0.0
O777 O 0.0164 0.7898 0.62325 0.0
C778 C 0.01573 0.74493 0.61833 0.0
O779 O 0.03028 0.74831 0.62119 0.0
C780 C 0.98438 0.76665 0.65642 0.0
O781 O 0.98754 0.75242 0.65308 0.0
O782 O 0.02985 0.76781 0.65038 0.0
C783 C 0.51343 0.30227 0.12682 0.0
O784 O 0.50874 0.30523 0.14092 0.0
O785 O 0.49377 0.27462 0.15084 0.0
Zn786 Zn 0.51182 0.27062 0.1366 0.0
O787 O 0.50775 0.25175 0.12297 0.0
C788 C 0.53003 0.26089 0.16225 0.0
O789 O 0.51652 0.25587 0.16697 0.0
O790 O 0.51549 0.28851 0.12261 0.0
C791 C 0.50311 0.23894 0.12798 0.0
O792 O 0.50056 0.23761 0.14277 0.0
C793 C 0.47989 0.27105 0.14742 0.0
O794 O 0.47681 0.26458 0.13393 0.0
O795 O 0.53095 0.26768 0.14952 0.0
H796 H 0.2464 0.7882 0.8712 0.0
H797 H 0.25323 0.80383 0.89406 0.0
H798 H 0.20607 0.80153 0.9091 0.0
H799 H 0.19921 0.78555 0.88653 0.0
H800 H 0.24155 0.83221 0.90263 0.0
H801 H 0.22964 0.78974 0.94755 0.0
H802 H 0.2316 0.78445 0.92746 0.0
H803 H 0.214 0.79223 0.93448 0.0
C804 C 0.23752 0.7908 0.8795 0.0
C805 C 0.22226 0.78557 0.87703 0.0
C806 C 0.24143 0.79983 0.8925 0.0
C807 C 0.2302 0.8037 0.90339 0.0
C808 C 0.21497 0.79847 0.901 0.0
H809 H 0.23059 0.86016 0.98735 0.0
H810 H 0.22352 0.84362 0.96517 0.0
C811 C 0.21105 0.78948 0.88799 0.0
C812 C 0.23431 0.8137 0.91691 0.0
H813 H 0.23479 0.81523 0.95622 0.0
C814 C 0.24015 0.82848 0.91435 0.0
C815 C 0.23239 0.80884 0.93219 0.0
C816 C 0.22669 0.79291 0.93565 0.0
C817 C 0.24391 0.83861 0.92664 0.0
C818 C 0.24206 0.83373 0.94193 0.0
C819 C 0.23617 0.81896 0.9445 0.0
C820 C 0.24638 0.84372 0.9554 0.0
C821 C 0.24952 0.85456 0.92314 0.0
C822 C 0.26161 0.8491 0.95741 0.0
C823 C 0.26567 0.85856 0.97003 0.0
C824 C 0.2546 0.86278 0.981 0.0
C825 C 0.23939 0.85719 0.97909 0.0
C826 C 0.23533 0.84771 0.96644 0.0
H827 H 0.24631 0.85777 0.91132 0.0
H828 H 0.24479 0.863 0.93147 0.0
H829 H 0.26224 0.85523 0.92401 0.0
H830 H 0.2704 0.8459 0.94923 0.0
H831 H 0.27752 0.86255 0.97118 0.0
H832 H 0.05363 0.55625 0.41942 0.0
H833 H 0.06978 0.54977 0.3974 0.0
H834 H 0.03075 0.52803 0.37442 0.0
H835 H 0.01433 0.53497 0.3962 0.0
H836 H 0.07635 0.52161 0.3844 0.0
H837 H 0.0471 0.55718 0.3421 0.0
H838 H 0.04392 0.55917 0.36255 0.0
H839 H 0.03475 0.54374 0.3517 0.0
C840 C 0.0484 0.55025 0.40962 0.0
C841 C 0.03261 0.54629 0.40955 0.0
C842 C 0.0577 0.54645 0.39707 0.0
C843 C 0.05145 0.53863 0.38414 0.0
C844 C 0.03578 0.53433 0.38414 0.0
H845 H 0.09478 0.51139 0.29707 0.0
H846 H 0.07671 0.51438 0.31848 0.0
C847 C 0.02644 0.53815 0.39669 0.0
C848 C 0.06144 0.53497 0.37076 0.0
H849 H 0.06703 0.54188 0.33264 0.0
C850 C 0.07429 0.52603 0.37308 0.0
C851 C 0.05874 0.54069 0.35597 0.0
C852 C 0.04546 0.55084 0.35289 0.0
C853 C 0.08452 0.52269 0.36105 0.0
C854 C 0.08197 0.52864 0.34634 0.0
C855 C 0.06896 0.53732 0.34392 0.0
C856 C 0.093 0.5265 0.33348 0.0
C857 C 0.09793 0.51273 0.36416 0.0
C858 C 0.1081 0.53245 0.33474 0.0
C859 C 0.11843 0.5308 0.32255 0.0
C860 C 0.11386 0.52319 0.30878 0.0
C861 C 0.0987 0.51726 0.30752 0.0
C862 C 0.08835 0.51897 0.31974 0.0
H863 H 0.09595 0.50577 0.37449 0.0
H864 H 0.10017 0.50499 0.35416 0.0
H865 H 0.10838 0.52004 0.36624 0.0
H866 H 0.11186 0.53857 0.34512 0.0
H867 H 0.12998 0.53557 0.3239 0.0
H868 H 0.80539 0.75184 0.87553 0.0
H869 H 0.80272 0.73264 0.89534 0.0
H870 H 0.75522 0.74383 0.90156 0.0
H871 H 0.7576 0.76258 0.88144 0.0
H872 H 0.7948 0.73637 0.92597 0.0
H873 H 0.75232 0.69783 0.89606 0.0
H874 H 0.763 0.71259 0.88628 0.0
H875 H 0.74629 0.71715 0.89746 0.0
C876 C 0.79431 0.75006 0.88094 0.0
C877 C 0.7817 0.75876 0.87682 0.0
C878 C 0.79283 0.73915 0.89235 0.0
C879 C 0.77871 0.73662 0.89978 0.0
C880 C 0.76615 0.74535 0.89578 0.0
H881 H 0.74182 0.68502 0.97458 0.0
H882 H 0.74712 0.70192 0.95325 0.0
C883 C 0.7676 0.75623 0.88439 0.0
C884 C 0.77714 0.7252 0.91205 0.0
H885 H 0.75587 0.69398 0.9229 0.0
C886 C 0.78641 0.72699 0.92524 0.0
C887 C 0.76621 0.71295 0.91108 0.0
C888 C 0.75649 0.70989 0.89689 0.0
C889 C 0.78464 0.71722 0.9377 0.0
C890 C 0.77344 0.70521 0.93687 0.0
C891 C 0.76441 0.70323 0.92355 0.0
C892 C 0.7705 0.6949 0.94989 0.0
C893 C 0.79439 0.72014 0.95188 0.0
C894 C 0.78185 0.68522 0.95503 0.0
C895 C 0.77886 0.6755 0.96726 0.0
C896 C 0.76442 0.67525 0.97455 0.0
C897 C 0.75307 0.68491 0.96928 0.0
C898 C 0.75606 0.69458 0.95706 0.0
H899 H 0.80003 0.73166 0.95201 0.0
H900 H 0.78737 0.719 0.96247 0.0
H901 H 0.80352 0.71161 0.95218 0.0
H902 H 0.79299 0.68508 0.94949 0.0
H903 H 0.78784 0.66817 0.97098 0.0
H904 H 0.96903 0.99248 0.41747 0.0
H905 H 0.95385 0.99818 0.39472 0.0
H906 H 0.99309 0.99003 0.36579 0.0
H907 H 1.00827 0.98402 0.38842 0.0
H908 H 0.95974 0.02077 0.37193 0.0
H909 H 0.95856 0.96189 0.34696 0.0
H910 H 0.96367 0.96617 0.36677 0.0
H911 H 0.97735 0.96965 0.35171 0.0
C912 C 0.97441 0.9918 0.40626 0.0
C913 C 0.98985 0.9877 0.40477 0.0
C914 C 0.96574 0.99515 0.39329 0.0
C915 C 0.97228 0.99433 0.37856 0.0
C916 C 0.98776 0.99052 0.37704 0.0
H917 H 0.93956 1.00577 0.28561 0.0
H918 H 0.9544 1.00133 0.30883 0.0
C919 C 0.99646 0.98724 0.39 0.0
C920 C 0.96292 0.99745 0.36478 0.0
H921 H 0.94848 0.98103 0.33156 0.0
C922 C 0.95721 0.01208 0.36312 0.0
C923 C 0.95965 0.98609 0.35331 0.0
C924 C 0.96499 0.97002 0.35477 0.0
C925 C 0.9486 0.01576 0.35012 0.0
C926 C 0.94534 1.0044 0.33863 0.0
C927 C 0.951 0.98974 0.34035 0.0
C928 C 0.93627 1.00748 0.32461 0.0
C929 C 0.94345 0.0319 0.34861 0.0
C930 C 0.92106 0.0123 0.32572 0.0
C931 C 0.91254 0.01491 0.31243 0.0
C932 C 0.91901 0.01261 0.29776 0.0
C933 C 0.9342 1.00768 0.29671 0.0
C934 C 0.94272 1.00512 0.30998 0.0
H935 H 0.95028 0.04001 0.3561 0.0
H936 H 0.94443 0.0356 0.33654 0.0
H937 H 0.93124 0.03252 0.35213 0.0
H938 H 0.91571 0.01386 0.33686 0.0
H939 H 0.90084 0.01861 0.31367 0.0
H940 H 0.2331 0.26921 0.63767 0.0
H941 H 0.2399 0.25401 0.61481 0.0
H942 H 0.2324 0.21284 0.63995 0.0
H943 H 0.2257 0.22791 0.66288 0.0
H944 H 0.26329 0.23286 0.6108 0.0
H945 H 0.20565 0.20536 0.60152 0.0
H946 H 0.20874 0.22184 0.6141 0.0
H947 H 0.21342 0.20324 0.62044 0.0
C948 C 0.233 0.25692 0.63839 0.0
C949 C 0.22875 0.24979 0.65212 0.0
C950 C 0.23682 0.24825 0.62528 0.0
C951 C 0.2364 0.23228 0.62559 0.0
C952 C 0.23244 0.22513 0.63933 0.0
H953 H 0.25441 0.16035 0.55766 0.0
H954 H 0.24831 0.17516 0.581 0.0
C955 C 0.22861 0.23378 0.65244 0.0
C956 C 0.24033 0.22313 0.6116 0.0
H957 H 0.22588 0.19631 0.58587 0.0
C958 C 0.2551 0.22491 0.60531 0.0
C959 C 0.22965 0.21271 0.60448 0.0
C960 C 0.21343 0.21072 0.61037 0.0
C961 C 0.25955 0.21641 0.59223 0.0
C962 C 0.24884 0.20605 0.58505 0.0
C963 C 0.23409 0.20423 0.59138 0.0
C964 C 0.25265 0.1971 0.57087 0.0
C965 C 0.2758 0.21836 0.58642 0.0
C966 C 0.25691 0.2045 0.55735 0.0
C967 C 0.26045 0.19607 0.54401 0.0
C968 C 0.25967 0.18005 0.54386 0.0
C969 C 0.25518 0.17267 0.55737 0.0
C970 C 0.25168 0.18112 0.57073 0.0
H971 H 0.28362 0.22328 0.59548 0.0
H972 H 0.28035 0.20732 0.58227 0.0
H973 H 0.27596 0.22626 0.57667 0.0
H974 H 0.25738 0.21681 0.55706 0.0
H975 H 0.26374 0.20215 0.53379 0.0
H976 H 0.47987 0.57253 0.625 0.0
H977 H 0.46434 0.56594 0.64739 0.0
H978 H 0.48437 0.52171 0.64777 0.0
H979 H 0.4998 0.52808 0.62519 0.0
H980 H 0.44269 0.54138 0.6502 0.0
H981 H 0.49039 0.53814 0.69234 0.0
H982 H 0.49271 0.54723 0.67407 0.0
H983 H 0.49255 0.52683 0.67499 0.0
C984 C 0.48092 0.56135 0.62974 0.0
C985 C 0.49112 0.55084 0.62324 0.0
C986 C 0.47209 0.55764 0.64262 0.0
C987 C 0.47333 0.54341 0.64937 0.0
C988 C 0.48345 0.53287 0.64293 0.0
H989 H 0.42864 0.5012 0.72777 0.0
H990 H 0.44429 0.50687 0.70515 0.0
C991 C 0.49228 0.53655 0.63002 0.0
C992 C 0.46373 0.53952 0.66292 0.0
H993 H 0.46557 0.53057 0.70085 0.0
C994 C 0.44768 0.53905 0.66129 0.0
C995 C 0.47027 0.53644 0.67736 0.0
C996 C 0.48742 0.53729 0.67991 0.0
C997 C 0.43799 0.53541 0.67366 0.0
C998 C 0.44451 0.53246 0.68815 0.0
C999 C 0.46058 0.53284 0.68975 0.0
C1000 C 0.43488 0.52904 0.70182 0.0
C1001 C 0.42085 0.53445 0.67102 0.0
C1002 C 0.4245 0.53969 0.70759 0.0
C1003 C 0.4155 0.53648 0.72051 0.0
C1004 C 0.41678 0.52257 0.728 0.0
C1005 C 0.42731 0.51199 0.72227 0.0
C1006 C 0.43629 0.51522 0.70935 0.0
H1007 H 0.418 0.53287 0.65861 0.0
H1008 H 0.41544 0.5249 0.67739 0.0
H1009 H 0.41573 0.5452 0.67519 0.0
H1010 H 0.42344 0.55057 0.70218 0.0
H1011 H 0.40759 0.54493 0.72465 0.0
H1012 H 0.77375 0.29395 0.66788 0.0
H1013 H 0.77142 0.3121 0.64716 0.0
H1014 H 0.78855 0.27878 0.61469 0.0
H1015 H 0.79079 0.26058 0.63529 0.0
H1016 H 0.7927 0.32452 0.62737 0.0
H1017 H 0.74877 0.29027 0.59447 0.0
H1018 H 0.754 0.28605 0.61394 0.0
H1019 H 0.76583 0.28 0.59809 0.0
C1020 C 0.77711 0.29053 0.65634 0.0
C1021 C 0.78231 0.27576 0.65322 0.0
C1022 C 0.77572 0.30089 0.6445 0.0
C1023 C 0.77949 0.2967 0.6293 0.0
C1024 C 0.78515 0.28214 0.62624 0.0
H1025 H 0.78203 0.33925 0.54095 0.0
H1026 H 0.7848 0.32301 0.56308 0.0
C1027 C 0.78645 0.27175 0.63804 0.0
C1028 C 0.77758 0.30754 0.61663 0.0
H1029 H 0.76024 0.3114 0.58174 0.0
C1030 C 0.78552 0.3217 0.61745 0.0
C1031 C 0.76813 0.3039 0.60371 0.0
C1032 C 0.75857 0.2893 0.60253 0.0
C1033 C 0.78463 0.33211 0.60548 0.0
C1034 C 0.77544 0.32831 0.59244 0.0
C1035 C 0.76735 0.31425 0.59172 0.0
C1036 C 0.77424 0.3386 0.57925 0.0
C1037 C 0.79383 0.34691 0.60668 0.0
C1038 C 0.76733 0.35278 0.58098 0.0
C1039 C 0.76567 0.36211 0.5683 0.0
C1040 C 0.77089 0.35742 0.55366 0.0
C1041 C 0.77791 0.34326 0.55204 0.0
C1042 C 0.77949 0.33393 0.56468 0.0
H1043 H 0.80272 0.34675 0.61584 0.0
H1044 H 0.79954 0.34941 0.59557 0.0
H1045 H 0.786 0.35632 0.60946 0.0
H1046 H 0.76297 0.35651 0.59207 0.0
H1047 H 0.76018 0.37293 0.56996 0.0
H1048 H 0.54885 0.97085 0.61483 0.0
H1049 H 0.56398 0.97696 0.63797 0.0
H1050 H 0.52843 1.00619 0.6547 0.0
H1051 H 0.51291 0.99964 0.6319 0.0
H1052 H 0.57559 1.0044 0.64907 0.0
H1053 H 0.53494 0.97937 0.69124 0.0
H1054 H 0.53312 0.97571 0.6708 0.0
H1055 H 0.52657 0.99324 0.67928 0.0
C1056 C 0.54412 0.97841 0.62352 0.0
C1057 C 0.52955 0.98462 0.62152 0.0
C1058 C 0.55285 0.98199 0.6367 0.0
C1059 C 0.54724 0.99183 0.64821 0.0
C1060 C 0.53286 0.99831 0.64614 0.0
H1061 H 0.58407 0.02798 0.73515 0.0
H1062 H 0.5689 0.02241 0.71189 0.0
C1063 C 0.52408 0.9947 0.63298 0.0
C1064 C 0.55658 0.99547 0.66224 0.0
H1065 H 0.55624 0.9938 0.70147 0.0
C1066 C 0.57138 1.00202 0.66052 0.0
C1067 C 0.5511 0.99236 0.67719 0.0
C1068 C 0.53563 0.98465 0.67979 0.0
C1069 C 0.58073 1.00576 0.67334 0.0
C1070 C 0.57522 1.00269 0.68827 0.0
C1071 C 0.56043 0.99618 0.69001 0.0
C1072 C 0.58463 1.00615 0.70226 0.0
C1073 C 0.59632 0.01324 0.67081 0.0
C1074 C 0.59846 0.99874 0.70465 0.0
C1075 C 0.60717 1.00187 0.71797 0.0
C1076 C 0.60219 0.01246 0.72918 0.0
C1077 C 0.58829 0.0198 0.72676 0.0
C1078 C 0.57958 0.01662 0.71347 0.0
H1079 H 0.59733 0.01812 0.65919 0.0
H1080 H 0.59869 0.02244 0.67957 0.0
H1081 H 0.60528 1.00462 0.67189 0.0
H1082 H 0.60245 0.99041 0.69628 0.0
H1083 H 0.61778 0.99597 0.71948 0.0
H1084 H 0.8628 0.23541 0.79498 0.0
H1085 H 0.88445 0.23764 0.81304 0.0
H1086 H 0.91179 0.26049 0.77885 0.0
H1087 H 0.89039 0.25817 0.76072 0.0
H1088 H 0.91494 0.22705 0.81014 0.0
H1089 H 0.91437 0.28999 0.81634 0.0
H1090 H 0.89847 0.27882 0.80818 0.0
H1091 H 0.91515 0.28315 0.79672 0.0
C1092 C 0.87346 0.2408 0.79126 0.0
C1093 C 0.87478 0.24675 0.77642 0.0
C1094 C 0.88579 0.24212 0.80162 0.0
C1095 C 0.89963 0.24948 0.79739 0.0
C1096 C 0.9011 0.2551 0.78249 0.0
H1097 H 0.98911 0.27178 0.83417 0.0
H1098 H 0.96565 0.2676 0.81908 0.0
C1099 C 0.88882 0.25378 0.77214 0.0
C1100 C 0.91264 0.25126 0.80842 0.0
H1101 H 0.93641 0.27801 0.82604 0.0
C1102 C 0.91956 0.23818 0.81377 0.0
C1103 C 0.91859 0.26579 0.81317 0.0
C1104 C 0.91119 0.28025 0.80844 0.0
C1105 C 0.93268 0.23925 0.82323 0.0
C1106 C 0.93888 0.2538 0.82764 0.0
C1107 C 0.9317 0.26686 0.82259 0.0
C1108 C 0.95317 0.25581 0.83691 0.0
C1109 C 0.94015 0.22483 0.82795 0.0
C1110 C 0.95396 0.25062 0.85202 0.0
C1111 C 0.96742 0.25298 0.86073 0.0
C1112 C 0.98031 0.26065 0.85449 0.0
C1113 C 0.97944 0.26581 0.83935 0.0
C1114 C 0.96602 0.26345 0.83069 0.0
H1115 H 0.93602 0.21479 0.82092 0.0
H1116 H 0.95284 0.22593 0.82688 0.0
H1117 H 0.93738 0.22268 0.84016 0.0
H1118 H 0.9441 0.24493 0.85716 0.0
H1119 H 0.96768 0.24892 0.87237 0.0
H1120 H 0.48293 0.89689 0.5084 0.0
H1121 H 0.48958 0.87476 0.49229 0.0
H1122 H 0.47986 0.89971 0.45159 0.0
H1123 H 0.47367 0.92199 0.46753 0.0
H1124 H 0.47103 0.85836 0.47112 0.0
H1125 H 0.52231 0.88335 0.44231 0.0
H1126 H 0.514 0.89193 0.45934 0.0
H1127 H 0.50552 0.89457 0.44077 0.0
C1128 C 0.48243 0.89775 0.49602 0.0
C1129 C 0.47779 0.91126 0.48928 0.0
C1130 C 0.48614 0.88505 0.48683 0.0
C1131 C 0.48543 0.88564 0.47073 0.0
C1132 C 0.48077 0.89907 0.46397 0.0
H1133 H 0.49738 0.82342 0.3932 0.0
H1134 H 0.49238 0.84496 0.41068 0.0
C1135 C 0.47705 0.91175 0.47313 0.0
C1136 C 0.48905 0.87206 0.46097 0.0
H1137 H 0.51227 0.8598 0.4318 0.0
C1138 C 0.48013 0.85862 0.46261 0.0
C1139 C 0.50091 0.87243 0.44986 0.0
C1140 C 0.51134 0.88629 0.44802 0.0
C1141 C 0.48247 0.84568 0.45314 0.0
C1142 C 0.49421 0.84611 0.44189 0.0
C1143 C 0.50324 0.8595 0.44038 0.0
C1144 C 0.49718 0.83288 0.43141 0.0
C1145 C 0.47203 0.83182 0.45493 0.0
C1146 C 0.50169 0.81895 0.43723 0.0
C1147 C 0.50454 0.80658 0.42726 0.0
C1148 C 0.50302 0.80793 0.41124 0.0
C1149 C 0.49863 0.82195 0.40546 0.0
C1150 C 0.49578 0.8343 0.41543 0.0
H1151 H 0.46136 0.83459 0.46129 0.0
H1152 H 0.46881 0.82665 0.44354 0.0
H1153 H 0.47813 0.82319 0.4615 0.0
H1154 H 0.50314 0.81768 0.44949 0.0
H1155 H 0.50799 0.79599 0.43211 0.0
H1156 H 0.15687 0.28022 0.78145 0.0
H1157 H 0.13447 0.27403 0.79744 0.0
H1158 H 0.12344 0.32152 0.80014 0.0
H1159 H 0.14543 0.32773 0.78382 0.0
H1160 H 0.1283 0.2843 0.82723 0.0
H1161 H 0.08252 0.3013 0.78749 0.0
H1162 H 0.10205 0.29859 0.78128 0.0
H1163 H 0.09692 0.31604 0.79099 0.0
C1164 C 0.14953 0.28931 0.78525 0.0
C1165 C 0.15296 0.30448 0.78131 0.0
C1166 C 0.13679 0.28577 0.79447 0.0
C1167 C 0.12715 0.29728 0.79982 0.0
C1168 C 0.13054 0.3124 0.79592 0.0
H1169 H 0.05027 0.30697 0.86123 0.0
H1170 H 0.07192 0.31006 0.8436 0.0
C1171 C 0.14325 0.31596 0.78673 0.0
C1172 C 0.11386 0.29362 0.80995 0.0
H1173 H 0.07506 0.29734 0.81352 0.0
C1174 C 0.11663 0.28699 0.82417 0.0
C1175 C 0.09864 0.29713 0.80595 0.0
C1176 C 0.0948 0.30352 0.79053 0.0
C1177 C 0.10468 0.28429 0.83471 0.0
C1178 C 0.08951 0.28812 0.83083 0.0
C1179 C 0.08671 0.29448 0.81651 0.0
C1180 C 0.07645 0.28603 0.84165 0.0
C1181 C 0.10844 0.27784 0.85012 0.0
C1182 C 0.07171 0.27146 0.84632 0.0
C1183 C 0.0593 0.26963 0.85642 0.0
C1184 C 0.05137 0.28235 0.86201 0.0
C1185 C 0.05612 0.29692 0.85722 0.0
C1186 C 0.06849 0.29872 0.84711 0.0
H1187 H 0.12095 0.27866 0.85263 0.0
H1188 H 0.10221 0.28385 0.8595 0.0
H1189 H 0.10477 0.26563 0.85015 0.0
H1190 H 0.07752 0.26148 0.84205 0.0
H1191 H 0.0559 0.25825 0.8598 0.0
H1192 H 0.565 0.63765 0.49939 0.0
H1193 H 0.55799 0.65866 0.48314 0.0
H1194 H 0.51499 0.63532 0.47195 0.0
H1195 H 0.52191 0.61427 0.4882 0.0
H1196 H 0.55184 0.65805 0.45211 0.0
H1197 H 0.50101 0.67751 0.48474 0.0
H1198 H 0.51459 0.66469 0.49261 0.0
H1199 H 0.50005 0.65765 0.47932 0.0
C1200 C 0.55405 0.63697 0.49346 0.0
C1201 C 0.544 0.62427 0.49513 0.0
C1202 C 0.55004 0.64902 0.48422 0.0
C1203 C 0.53587 0.64869 0.47649 0.0
C1204 C 0.52582 0.63602 0.47809 0.0
H1205 H 0.4928 0.70809 0.4119 0.0
H1206 H 0.49949 0.68737 0.42866 0.0
C1207 C 0.5298 0.62398 0.48738 0.0
C1208 C 0.5319 0.66134 0.46631 0.0
H1209 H 0.50525 0.68833 0.46031 0.0
C1210 C 0.54169 0.66472 0.45395 0.0
C1211 C 0.51864 0.67003 0.46869 0.0
C1212 C 0.50803 0.66741 0.48214 0.0
C1213 C 0.53846 0.67636 0.44377 0.0
C1214 C 0.5252 0.68504 0.44614 0.0
C1215 C 0.5154 0.68166 0.45849 0.0
C1216 C 0.52127 0.69766 0.43593 0.0
C1217 C 0.5491 0.67903 0.43034 0.0
C1218 C 0.53122 0.71044 0.43456 0.0
C1219 C 0.52744 0.72231 0.42496 0.0
C1220 C 0.51358 0.72169 0.4166 0.0
C1221 C 0.50358 0.70894 0.41812 0.0
C1222 C 0.50737 0.69708 0.42772 0.0
H1223 H 0.55631 0.66905 0.42787 0.0
H1224 H 0.54252 0.68154 0.41982 0.0
H1225 H 0.55688 0.68897 0.43309 0.0
H1226 H 0.54186 0.71129 0.44102 0.0
H1227 H 0.53537 0.73199 0.42415 0.0
H1228 H 0.87091 0.76464 0.74903 0.0
H1229 H 0.89159 0.76246 0.7302 0.0
H1230 H 0.89859 0.81125 0.73163 0.0
H1231 H 0.8782 0.81352 0.75088 0.0
H1232 H 0.89446 0.77491 0.7011 0.0
H1233 H 0.94175 0.79599 0.73979 0.0
H1234 H 0.92301 0.79037 0.74691 0.0
H1235 H 0.92595 0.80852 0.73817 0.0
C1236 C 0.87694 0.77492 0.74548 0.0
C1237 C 0.87297 0.78926 0.75161 0.0
C1238 C 0.8887 0.77365 0.73462 0.0
C1239 C 0.89681 0.78666 0.72968 0.0
C1240 C 0.89268 0.80103 0.73549 0.0
H1241 H 0.97525 0.79474 0.66684 0.0
H1242 H 0.9536 0.80037 0.68387 0.0
C1243 C 0.8809 0.80232 0.74637 0.0
C1244 C 0.90952 0.78508 0.71839 0.0
H1245 H 0.9483 0.79044 0.71395 0.0
C1246 C 0.90623 0.77833 0.7039 0.0
C1247 C 0.92487 0.7896 0.72203 0.0
C1248 C 0.9292 0.79641 0.7376 0.0
C1249 C 0.91785 0.77595 0.69297 0.0
C1250 C 0.93324 0.78018 0.69672 0.0
C1251 C 0.9365 0.78721 0.71109 0.0
C1252 C 0.94619 0.77682 0.68616 0.0
C1253 C 0.91353 0.76902 0.67745 0.0
C1254 C 0.94932 0.76171 0.68193 0.0
C1255 C 0.96167 0.75845 0.67224 0.0
C1256 C 0.97121 0.77024 0.6666 0.0
C1257 C 0.9681 0.78539 0.67092 0.0
C1258 C 0.95574 0.78863 0.68067 0.0
H1259 H 0.90118 0.77047 0.67482 0.0
H1260 H 0.92054 0.77417 0.66817 0.0
H1261 H 0.91563 0.75663 0.67742 0.0
H1262 H 0.94231 0.75239 0.68629 0.0
H1263 H 0.96375 0.74666 0.66922 0.0
H1264 H 0.061 0.89735 0.52314 0.0
H1265 H 0.05432 0.87605 0.53969 0.0
H1266 H 0.01658 0.90108 0.5586 0.0
H1267 H 0.02314 0.92238 0.54206 0.0
H1268 H 0.05351 0.87552 0.57112 0.0
H1269 H 0.99576 0.8604 0.54745 0.0
H1270 H 1.00924 0.87283 0.53772 0.0
H1271 H 0.99795 0.88003 0.55348 0.0
C1272 C 0.05126 0.89832 0.53081 0.0
C1273 C 0.04257 0.91157 0.53123 0.0
C1274 C 0.04743 0.88611 0.54023 0.0
C1275 C 0.0348 0.88684 0.55023 0.0
C1276 C 0.02612 0.90006 0.5507 0.0
H1277 H 0.99578 0.82976 0.62086 0.0
H1278 H 1.00249 0.85001 0.60312 0.0
C1279 C 0.02991 0.91225 0.54124 0.0
C1280 C 0.03111 0.87404 0.5606 0.0
H1281 H 1.00248 0.84884 0.57086 0.0
C1282 C 0.04239 0.86961 0.57098 0.0
C1283 C 0.01659 0.86633 0.56044 0.0
C1284 C 1.00423 0.87002 0.54908 0.0
C1285 C 0.03945 0.85794 0.58143 0.0
C1286 C 0.02489 0.85034 0.58136 0.0
C1287 C 0.01363 0.8547 0.57093 0.0
C1288 C 0.02101 0.83797 0.59217 0.0
C1289 C 0.05181 0.85414 0.59274 0.0
C1290 C 0.0291 0.82438 0.59183 0.0
C1291 C 0.0253 0.81275 0.60199 0.0
C1292 C 0.01327 0.81446 0.61264 0.0
C1293 C 1.00513 0.82805 0.61285 0.0
C1294 C 1.00893 0.83965 0.60269 0.0
H1295 H 0.06078 0.86337 0.59384 0.0
H1296 H 0.04686 0.85207 0.60429 0.0
H1297 H 0.05746 0.84361 0.58871 0.0
H1298 H 0.03827 0.82271 0.5836 0.0
H1299 H 0.03176 0.80241 0.60144 0.0
H1300 H 0.13414 0.7395 0.76429 0.0
H1301 H 0.11205 0.74631 0.74875 0.0
H1302 H 0.13852 0.73942 0.70741 0.0
H1303 H 0.16069 0.73272 0.72283 0.0
H1304 H 0.10941 0.76968 0.72742 0.0
H1305 H 0.09977 0.71267 0.69937 0.0
H1306 H 0.11179 0.71569 0.71616 0.0
H1307 H 0.11894 0.72052 0.69748 0.0
C1308 C 0.13532 0.73954 0.7519 0.0
C1309 C 0.14919 0.73545 0.74482 0.0
C1310 C 0.12265 0.74337 0.74303 0.0
C1311 C 0.12355 0.74312 0.72691 0.0
C1312 C 0.13744 0.73933 0.71981 0.0
H1313 H 0.05809 0.76062 0.65399 0.0
H1314 H 0.08097 0.75489 0.66891 0.0
C1315 C 0.15011 0.7355 0.72866 0.0
C1316 C 0.11001 0.74699 0.71754 0.0
H1317 H 0.08488 0.73265 0.69023 0.0
C1318 C 0.104 0.76157 0.71932 0.0
C1319 C 0.10301 0.73642 0.70693 0.0
C1320 C 0.10859 0.7204 0.70492 0.0
C1321 C 0.09133 0.76595 0.71065 0.0
C1322 C 0.08425 0.75534 0.70012 0.0
C1323 C 0.09031 0.74078 0.69828 0.0
C1324 C 0.07041 0.75903 0.69108 0.0
C1325 C 0.08583 0.78201 0.71262 0.0
C1326 C 0.05679 0.76307 0.69858 0.0
C1327 C 0.04372 0.7664 0.69009 0.0
C1328 C 0.04393 0.76562 0.67391 0.0
C1329 C 0.05753 0.76138 0.66643 0.0
C1330 C 0.07062 0.75809 0.67494 0.0
H1331 H 0.09493 0.7898 0.71758 0.0
H1332 H 0.08207 0.78652 0.70147 0.0
H1333 H 0.07591 0.78205 0.72061 0.0
H1334 H 0.05621 0.7635 0.71102 0.0
H1335 H 0.03342 0.7695 0.69625 0.0
H1336 H 0.95529 0.63342 0.53703 0.0
H1337 H 0.96257 0.65624 0.55236 0.0
H1338 H 1.01014 0.64418 0.54982 0.0
H1339 H 1.00296 0.62125 0.53457 0.0
H1340 H 0.97764 0.65799 0.5808 0.0
H1341 H 0.01138 0.68854 0.53641 0.0
H1342 H 0.99857 0.67253 0.53175 0.0
H1343 H 0.0173 0.66947 0.53959 0.0
C1344 C 0.9673 0.63557 0.53976 0.0
C1345 C 0.97854 0.62548 0.53454 0.0
C1346 C 0.97145 0.64867 0.54847 0.0
C1347 C 0.98691 0.65203 0.55207 0.0
C1348 C 0.99817 0.642 0.5469 0.0
H1349 H 0.03468 0.72384 0.60543 0.0
H1350 H 0.02744 0.70127 0.5897 0.0
C1351 C 0.99404 0.62889 0.53817 0.0
C1352 C 0.99117 0.66576 0.56167 0.0
H1353 H 0.01231 0.69917 0.56176 0.0
C1354 C 0.98516 0.66704 0.57662 0.0
C1355 C 1.00102 0.67753 0.55622 0.0
C1356 C 1.00736 0.67707 0.54007 0.0
C1357 C 0.98895 0.67961 0.58635 0.0
C1358 C 0.99878 0.69141 0.58089 0.0
C1359 C 1.00478 0.69013 0.56594 0.0
C1360 C 1.00304 0.70513 0.59052 0.0
C1361 C 0.9827 0.67997 0.60254 0.0
C1362 C 0.99173 0.71492 0.59608 0.0
C1363 C 0.99582 0.72783 0.60513 0.0
C1364 C 0.01133 0.73127 0.6087 0.0
C1365 C 0.02263 0.72153 0.60295 0.0
C1366 C 0.01852 0.70862 0.59393 0.0
H1367 H 0.97891 0.66845 0.60622 0.0
H1368 H 0.99143 0.68468 0.61082 0.0
H1369 H 0.97259 0.68736 0.60305 0.0
H1370 H 0.97974 0.71265 0.59332 0.0
H1371 H 0.98683 0.73513 0.60928 0.0
H1372 H 0.804 0.86452 0.2289 0.0
H1373 H 0.82017 0.88703 0.2353 0.0
H1374 H 0.77996 0.91441 0.23808 0.0
H1375 H 0.76367 0.89193 0.23162 0.0
H1376 H 0.82308 0.91365 0.21899 0.0
H1377 H 0.80229 0.92586 0.27829 0.0
H1378 H 0.79829 0.90792 0.26827 0.0
H1379 H 0.78749 0.92436 0.26388 0.0
C1380 C 0.79857 0.87533 0.23085 0.0
C1381 C 0.78252 0.87641 0.22972 0.0
C1382 C 0.80784 0.88817 0.23458 0.0
C1383 C 0.80128 0.90238 0.23735 0.0
C1384 C 0.78526 0.90351 0.23632 0.0
H1385 H 0.84232 0.99279 0.25731 0.0
H1386 H 0.82451 0.97121 0.25173 0.0
C1387 C 0.77596 0.89065 0.23262 0.0
C1388 C 0.81133 0.91605 0.24066 0.0
H1389 H 0.81966 0.94403 0.26771 0.0
C1390 C 0.82235 0.92027 0.22966 0.0
C1391 C 0.81031 0.92474 0.25454 0.0
C1392 C 0.79906 0.92046 0.267 0.0
C1393 C 0.83233 0.93296 0.23212 0.0
C1394 C 0.83146 0.94153 0.24609 0.0
C1395 C 0.82031 0.93744 0.25701 0.0
C1396 C 0.84225 0.95457 0.24967 0.0
C1397 C 0.84357 0.93722 0.21963 0.0
C1398 C 0.85811 0.95235 0.25062 0.0
C1399 C 0.86832 0.96463 0.25378 0.0
C1400 C 0.86286 0.97941 0.25617 0.0
C1401 C 0.84693 0.98157 0.25548 0.0
C1402 C 0.83672 0.96925 0.25231 0.0
H1403 H 0.83999 0.93225 0.20826 0.0
H1404 H 0.84479 0.94978 0.21871 0.0
H1405 H 0.855 0.93278 0.22243 0.0
H1406 H 0.86262 0.94107 0.24895 0.0
H1407 H 0.88049 0.96252 0.25434 0.0
H1408 H 0.75996 0.14515 0.3064 0.0
H1409 H 0.77569 0.123 0.3011 0.0
H1410 H 0.81227 0.15249 0.28469 0.0
H1411 H 0.79665 0.17469 0.29004 0.0
H1412 H 0.78835 0.11209 0.27425 0.0
H1413 H 0.83444 0.12807 0.31626 0.0
H1414 H 0.81626 0.13738 0.31607 0.0
H1415 H 0.83101 0.14244 0.30249 0.0
C1416 C 0.77131 0.14692 0.30156 0.0
C1417 C 0.77708 0.16171 0.29875 0.0
C1418 C 0.78032 0.13425 0.2986 0.0
C1419 C 0.79529 0.13609 0.29278 0.0
C1420 C 0.80093 0.1508 0.28958 0.0
H1421 H 0.86633 0.07179 0.26793 0.0
H1422 H 0.85098 0.09454 0.27156 0.0
C1423 C 0.79196 0.16349 0.29261 0.0
C1424 C 0.8049 0.12259 0.28993 0.0
H1425 H 0.83891 0.10685 0.2996 0.0
C1426 C 0.79938 0.11093 0.27983 0.0
C1427 C 0.81932 0.12107 0.2972 0.0
C1428 C 0.82557 0.13283 0.30872 0.0
C1429 C 0.80794 0.0979 0.27669 0.0
C1430 C 0.82232 0.09638 0.28398 0.0
C1431 C 0.8279 0.10807 0.29398 0.0
C1432 C 0.83157 0.08257 0.28168 0.0
C1433 C 0.80161 0.08596 0.26541 0.0
C1434 C 0.82584 0.06834 0.28635 0.0
C1435 C 0.83457 0.05534 0.28433 0.0
C1436 C 0.84927 0.05631 0.27764 0.0
C1437 C 0.85504 0.07062 0.27308 0.0
C1438 C 0.8463 0.08364 0.27515 0.0
H1439 H 0.79257 0.09052 0.25796 0.0
H1440 H 0.81088 0.08141 0.25799 0.0
H1441 H 0.79642 0.07636 0.27185 0.0
H1442 H 0.81462 0.06729 0.29167 0.0
H1443 H 0.82978 0.04453 0.28804 0.0
H1444 H 0.39274 0.98642 0.96402 0.0
H1445 H 0.37033 0.97126 0.97216 0.0
H1446 H 0.38084 0.98267 0.0196 0.0
H1447 H 0.40341 0.99773 0.01159 0.0
H1448 H 0.36959 0.94605 0.9915 0.0
H1449 H 0.33536 0.99324 0.01584 0.0
H1450 H 0.35163 0.99648 1.00336 0.0
H1451 H 0.35456 0.99243 0.02327 0.0
C1452 C 0.39036 0.98566 0.9762 0.0
C1453 C 0.39991 0.99332 0.98715 0.0
C1454 C 0.37748 0.97704 0.98083 0.0
C1455 C 0.37379 0.97598 0.99647 0.0
C1456 C 0.38328 0.98359 1.00744 0.0
H1457 H 0.30125 0.92804 0.0463 0.0
H1458 H 0.32377 0.94341 0.03876 0.0
C1459 C 0.39618 0.9922 1.00283 0.0
C1460 C 0.36027 0.96654 1.00128 0.0
H1461 H 0.32569 0.96814 0.01971 0.0
C1462 C 0.35996 0.95088 0.99762 0.0
C1463 C 0.34775 0.97286 1.00932 0.0
C1464 C 0.3472 0.98969 0.01309 0.0
C1465 C 0.34757 0.94132 1.00196 0.0
C1466 C 0.33498 0.94764 1.0099 0.0
C1467 C 0.33533 0.9633 0.01362 0.0
C1468 C 0.32132 0.93822 0.01441 0.0
C1469 C 0.34823 0.92447 0.99828 0.0
C1470 C 0.31233 0.93033 1.00321 0.0
C1471 C 0.29947 0.92149 1.00749 0.0
C1472 C 0.29525 0.92046 0.02305 0.0
C1473 C 0.30418 0.92853 0.03422 0.0
C1474 C 0.31706 0.93735 0.02993 0.0
H1475 H 0.36019 0.92092 0.9961 0.0
H1476 H 0.34335 0.91768 1.0078 0.0
H1477 H 0.34139 0.92173 0.98774 0.0
H1478 H 0.31518 0.9311 0.99113 0.0
H1479 H 0.2928 0.91552 0.99857 0.0
H1480 H 0.23753 0.37119 0.26461 0.0
H1481 H 0.22009 0.39248 0.2636 0.0
H1482 H 0.23999 0.41175 0.30541 0.0
H1483 H 0.25769 0.39066 0.30636 0.0
H1484 H 0.1982 0.40271 0.286 0.0
H1485 H 0.24362 0.44674 0.27453 0.0
H1486 H 0.24676 0.4266 0.27208 0.0
H1487 H 0.24692 0.43534 0.29099 0.0
C1488 C 0.23827 0.38 0.27355 0.0
C1489 C 0.2491 0.37926 0.28551 0.0
C1490 C 0.22822 0.39211 0.273 0.0
C1491 C 0.22888 0.40381 0.28431 0.0
C1492 C 0.23944 0.40296 0.29644 0.0
H1493 H 0.18218 0.48899 0.298 0.0
H1494 H 0.19838 0.4669 0.29989 0.0
C1495 C 0.24944 0.39082 0.29705 0.0
C1496 C 0.21856 0.41691 0.28335 0.0
H1497 H 0.21852 0.45541 0.27893 0.0
C1498 C 0.20262 0.41424 0.28441 0.0
C1499 C 0.22436 0.43192 0.28129 0.0
C1500 C 0.24134 0.43538 0.27952 0.0
C1501 C 0.19233 0.42624 0.28375 0.0
C1502 C 0.19812 0.44127 0.28164 0.0
C1503 C 0.21408 0.44391 0.28056 0.0
C1504 C 0.18789 0.45447 0.2806 0.0
C1505 C 0.17538 0.42274 0.28573 0.0
C1506 C 0.17665 0.45493 0.26904 0.0
C1507 C 0.16729 0.46755 0.26796 0.0
C1508 C 0.1691 0.48005 0.27834 0.0
C1509 C 0.18044 0.47958 0.28983 0.0
C1510 C 0.18974 0.46695 0.29092 0.0
H1511 H 0.17326 0.41172 0.29145 0.0
H1512 H 0.16982 0.43187 0.2926 0.0
H1513 H 0.16981 0.42194 0.27425 0.0
H1514 H 0.17523 0.44562 0.26071 0.0
H1515 H 0.15875 0.46757 0.25891 0.0
H1516 H 0.10724 0.05912 0.48934 0.0
H1517 H 0.13014 0.07511 0.49508 0.0
H1518 H 0.15893 0.03931 0.47815 0.0
H1519 H 0.13605 0.02331 0.4721 0.0
H1520 H 0.15574 0.06871 0.51453 0.0
H1521 H 0.17317 0.07717 0.45376 0.0
H1522 H 0.15414 0.0704 0.45899 0.0
H1523 H 0.16994 0.05776 0.45924 0.0
C1524 C 0.11844 0.05467 0.48673 0.0
C1525 C 0.1198 0.03997 0.48016 0.0
C1526 C 0.13151 0.0638 0.4901 0.0
C1527 C 0.14622 0.05848 0.48685 0.0
C1528 C 0.14767 0.04372 0.48055 0.0
H1529 H 0.23703 0.10334 0.49566 0.0
H1530 H 0.21572 0.08503 0.49055 0.0
C1531 C 0.13459 0.03454 0.47723 0.0
C1532 C 0.15999 0.06841 0.49016 0.0
H1533 H 0.18964 0.08784 0.47301 0.0
C1534 C 0.16317 0.07289 0.50547 0.0
C1535 C 0.1697 0.07378 0.47831 0.0
C1536 C 0.16657 0.06966 0.46162 0.0
C1537 C 0.17583 0.08256 0.50926 0.0
C1538 C 0.18537 0.08821 0.49739 0.0
C1539 C 0.18232 0.08353 0.48209 0.0
C1540 C 0.19831 0.09928 0.50056 0.0
C1541 C 0.17898 0.08647 0.52599 0.0
C1542 C 0.19559 0.11348 0.50766 0.0
C1543 C 0.20773 0.12394 0.51063 0.0
C1544 C 0.22286 0.12049 0.50644 0.0
C1545 C 0.22553 0.10635 0.49909 0.0
C1546 C 0.21337 0.09587 0.49615 0.0
H1547 H 0.17366 0.07787 0.53365 0.0
H1548 H 0.19152 0.08729 0.52836 0.0
H1549 H 0.174 0.09764 0.52897 0.0
H1550 H 0.18404 0.11654 0.51081 0.0
H1551 H 0.20522 0.13475 0.51619 0.0
H1552 H 0.74253 0.15604 0.76715 0.0
H1553 H 0.72457 0.13412 0.76798 0.0
H1554 H 0.73316 0.12405 0.72002 0.0
H1555 H 0.75147 0.14571 0.71918 0.0
H1556 H 0.69769 0.1275 0.75061 0.0
H1557 H 0.74145 0.08362 0.74071 0.0
H1558 H 0.74651 0.10312 0.74604 0.0
H1559 H 0.74121 0.09812 0.72655 0.0
C1560 C 0.74071 0.1491 0.7568 0.0
C1561 C 0.74856 0.15258 0.74313 0.0
C1562 C 0.73036 0.13663 0.75727 0.0
C1563 C 0.7277 0.12731 0.74413 0.0
C1564 C 0.73523 0.13093 0.73037 0.0
H1565 H 0.67261 0.04457 0.72598 0.0
H1566 H 0.68925 0.06738 0.72426 0.0
C1567 C 0.74557 0.14343 0.72987 0.0
C1568 C 0.71705 0.11381 0.74486 0.0
H1569 H 0.71544 0.075 0.74099 0.0
C1570 C 0.70156 0.11601 0.74854 0.0
C1571 C 0.72213 0.09883 0.74216 0.0
C1572 C 0.73875 0.09569 0.73877 0.0
C1573 C 0.69096 0.10366 0.74936 0.0
C1574 C 0.69606 0.08868 0.74671 0.0
C1575 C 0.71154 0.08648 0.74299 0.0
C1576 C 0.68556 0.07508 0.74776 0.0
C1577 C 0.67434 0.10681 0.75272 0.0
C1578 C 0.67801 0.07173 0.76159 0.0
C1579 C 0.66845 0.0587 0.76262 0.0
C1580 C 0.66633 0.04867 0.74985 0.0
C1581 C 0.67395 0.05204 0.73603 0.0
C1582 C 0.68349 0.06508 0.73502 0.0
H1583 H 0.67157 0.11877 0.75031 0.0
H1584 H 0.66656 0.09907 0.74581 0.0
H1585 H 0.67201 0.1049 0.76507 0.0
H1586 H 0.67969 0.07909 0.77168 0.0
H1587 H 0.66283 0.05642 0.77346 0.0
H1588 H 0.40854 0.03529 0.51816 0.0
H1589 H 0.38716 0.05111 0.51091 0.0
H1590 H 0.37872 0.06198 0.55872 0.0
H1591 H 0.3999 0.04608 0.56611 0.0
H1592 H 0.35577 0.04879 0.51956 0.0
H1593 H 0.38265 0.10404 0.53917 0.0
H1594 H 0.39351 0.087 0.53645 0.0
H1595 H 0.38208 0.08965 0.55346 0.0
C1596 C 0.40207 0.04095 0.52716 0.0
C1597 C 0.40605 0.03947 0.54273 0.0
C1598 C 0.3899 0.05005 0.52297 0.0
C1599 C 0.38152 0.05794 0.53425 0.0
C1600 C 0.38526 0.05629 0.5498 0.0
H1601 H 0.30478 0.11887 0.53394 0.0
H1602 H 0.32608 0.10277 0.54069 0.0
C1603 C 0.3974 0.04719 0.554 0.0
C1604 C 0.3687 0.06771 0.5298 0.0
H1605 H 0.35645 0.10429 0.53172 0.0
C1606 C 0.35594 0.06094 0.52213 0.0
C1607 C 0.36893 0.08355 0.53322 0.0
C1608 C 0.38257 0.09156 0.5409 0.0
C1609 C 0.34325 0.06952 0.51808 0.0
C1610 C 0.34348 0.08538 0.5215 0.0
C1611 C 0.35627 0.09214 0.52913 0.0
C1612 C 0.33055 0.09515 0.5173 0.0
C1613 C 0.32956 0.06144 0.51055 0.0
C1614 C 0.32611 0.09643 0.50188 0.0
C1615 C 0.3139 0.10559 0.49798 0.0
C1616 C 0.30595 0.11379 0.50942 0.0
C1617 C 0.31061 0.11269 0.52484 0.0
C1618 C 0.3228 0.10349 0.52872 0.0
H1619 H 0.32941 0.04901 0.51257 0.0
H1620 H 0.31864 0.06614 0.51487 0.0
H1621 H 0.3301 0.06304 0.49794 0.0
H1622 H 0.33215 0.0904 0.49282 0.0
H1623 H 0.31072 0.10624 0.48598 0.0
H1624 H 0.61184 0.48043 0.56163 0.0
H1625 H 0.63428 0.4653 0.55577 0.0
H1626 H 0.65442 0.50259 0.53075 0.0
H1627 H 0.63226 0.51805 0.53705 0.0
H1628 H 0.64607 0.45612 0.52771 0.0
H1629 H 0.68897 0.49245 0.55999 0.0
H1630 H 0.66853 0.49444 0.56238 0.0
H1631 H 0.67818 0.5024 0.54604 0.0
C1632 C 0.62113 0.48552 0.55506 0.0
C1633 C 0.62027 0.50055 0.54995 0.0
C1634 C 0.63391 0.4768 0.55162 0.0
C1635 C 0.64616 0.48288 0.54304 0.0
C1636 C 0.64525 0.49775 0.53766 0.0
H1637 H 0.73286 0.44691 0.51104 0.0
H1638 H 0.71042 0.46233 0.51617 0.0
C1639 C 0.63247 0.50652 0.54111 0.0
C1640 C 0.65976 0.47354 0.53958 0.0
H1641 H 0.69864 0.47226 0.54458 0.0
C1642 C 0.65756 0.45962 0.53144 0.0
C1643 C 0.67476 0.47812 0.54445 0.0
C1644 C 0.67779 0.49259 0.55382 0.0
C1645 C 0.66994 0.45027 0.52784 0.0
C1646 C 0.68493 0.45484 0.53274 0.0
C1647 C 0.68715 0.46878 0.54082 0.0
C1648 C 0.69846 0.44533 0.52959 0.0
C1649 C 0.66692 0.43573 0.51857 0.0
C1650 C 0.69929 0.43069 0.53558 0.0
C1651 C 0.71212 0.42183 0.53268 0.0
C1652 C 0.72442 0.42746 0.52377 0.0
C1653 C 0.72359 0.44218 0.51791 0.0
C1654 C 0.71078 0.45104 0.52084 0.0
H1655 H 0.65574 0.43581 0.51242 0.0
H1656 H 0.67619 0.43385 0.51002 0.0
H1657 H 0.66658 0.42598 0.52642 0.0
H1658 H 0.69007 0.42617 0.54263 0.0
H1659 H 0.7124 0.41058 0.53744 0.0
H1660 H 0.72106 0.31122 0.36244 0.0
H1661 H 0.72659 0.32737 0.3852 0.0
H1662 H 0.7325 0.28746 0.41209 0.0
H1663 H 0.72689 0.27118 0.38936 0.0
H1664 H 0.71055 0.32818 0.41281 0.0
H1665 H 0.77127 0.31318 0.42236 0.0
H1666 H 0.76124 0.30863 0.40458 0.0
H1667 H 0.75789 0.29723 0.42116 0.0
C1668 C 0.72351 0.30585 0.37319 0.0
C1669 C 0.72351 0.28988 0.37405 0.0
C1670 C 0.72673 0.31511 0.38618 0.0
C1671 C 0.73013 0.30865 0.40032 0.0
C1672 C 0.73023 0.29272 0.40124 0.0
H1673 H 0.74915 0.35004 0.49121 0.0
H1674 H 0.74385 0.33209 0.46966 0.0
C1675 C 0.72702 0.28342 0.38822 0.0
C1676 C 0.73298 0.31864 0.41415 0.0
H1677 H 0.75992 0.32906 0.44135 0.0
C1678 C 0.72136 0.32839 0.41903 0.0
C1679 C 0.74705 0.31884 0.42232 0.0
C1680 C 0.76015 0.30902 0.4173 0.0
C1681 C 0.7234 0.3383 0.43185 0.0
C1682 C 0.73754 0.33866 0.43989 0.0
C1683 C 0.74909 0.32876 0.43516 0.0
C1684 C 0.74069 0.34954 0.45296 0.0
C1685 C 0.71032 0.34818 0.43682 0.0
C1686 C 0.74086 0.36529 0.45068 0.0
C1687 C 0.74389 0.37557 0.46295 0.0
C1688 C 0.74688 0.3703 0.47775 0.0
C1689 C 0.74683 0.35449 0.47998 0.0
C1690 C 0.74383 0.34421 0.46767 0.0
H1691 H 0.69913 0.34371 0.43217 0.0
H1692 H 0.70953 0.34905 0.44955 0.0
H1693 H 0.71235 0.35981 0.43244 0.0
H1694 H 0.73875 0.36965 0.43937 0.0
H1695 H 0.74391 0.38765 0.46079 0.0
H1696 H 0.53139 0.02267 0.91102 0.0
H1697 H 0.54843 0.01771 0.88915 0.0
H1698 H 0.54821 0.0652 0.87799 0.0
H1699 H 0.5316 0.07034 0.90003 0.0
H1700 H 0.54377 0.02283 0.85758 0.0
H1701 H 0.59413 0.05652 0.88023 0.0
H1702 H 0.5781 0.05095 0.8922 0.0
H1703 H 0.57672 0.06694 0.87985 0.0
C1704 C 0.53509 0.03209 0.90401 0.0
C1705 C 0.53015 0.04692 0.90735 0.0
C1706 C 0.54475 0.02921 0.89145 0.0
C1707 C 0.54978 0.04112 0.88207 0.0
C1708 C 0.5447 0.05588 0.88523 0.0
H1709 H 0.60611 0.05289 0.80157 0.0
H1710 H 0.58942 0.05532 0.82399 0.0
C1711 C 0.53503 0.05876 0.89774 0.0
C1712 C 0.5602 0.03814 0.86887 0.0
H1713 H 0.59524 0.04827 0.854 0.0
C1714 C 0.55508 0.02828 0.85683 0.0
C1715 C 0.57496 0.04524 0.86793 0.0
C1716 C 0.5814 0.05539 0.8808 0.0
C1717 C 0.5641 0.02575 0.84365 0.0
C1718 C 0.57877 0.03306 0.8426 0.0
C1719 C 0.58398 0.04271 0.85477 0.0
C1720 C 0.58873 0.03128 0.82882 0.0
C1721 C 0.55763 0.0157 0.83073 0.0
C1722 C 0.59404 0.01696 0.8241 0.0
C1723 C 0.60358 0.01551 0.81119 0.0
C1724 C 0.6081 0.02839 0.80284 0.0
C1725 C 0.60286 0.04272 0.8077 0.0
C1726 C 0.59331 0.04414 0.82054 0.0
H1727 H 0.54496 0.01407 0.83165 0.0
H1728 H 0.56039 0.02056 0.81937 0.0
H1729 H 0.56279 1.00433 0.83119 0.0
H1730 H 0.59094 1.00692 0.83049 0.0
H1731 H 0.60749 1.00432 0.80784 0.0
H1732 H 0.30617 0.25505 0.37731 0.0
H1733 H 0.30433 0.23592 0.39728 0.0
H1734 H 0.25508 0.23349 0.39195 0.0
H1735 H 0.25683 0.25219 0.37172 0.0
H1736 H 0.28864 0.23766 0.42515 0.0
H1737 H 0.26612 0.18877 0.38951 0.0
H1738 H 0.2746 0.20567 0.38124 0.0
H1739 H 0.25501 0.20551 0.38781 0.0
C1740 C 0.29497 0.25027 0.38021 0.0
C1741 C 0.28165 0.25517 0.37287 0.0
C1742 C 0.29393 0.2394 0.3917 0.0
C1743 C 0.27959 0.2331 0.39597 0.0
C1744 C 0.2663 0.23796 0.38866 0.0
H1745 H 0.24103 0.17478 0.46463 0.0
H1746 H 0.24662 0.1917 0.44338 0.0
C1747 C 0.26731 0.24881 0.37721 0.0
C1748 C 0.27838 0.22191 0.40848 0.0
H1749 H 0.26426 0.18636 0.41675 0.0
C1750 C 0.28348 0.22637 0.42329 0.0
C1751 C 0.27165 0.20718 0.40604 0.0
C1752 C 0.26666 0.20142 0.39026 0.0
C1753 C 0.28149 0.21673 0.43584 0.0
C1754 C 0.27442 0.20215 0.43345 0.0
C1755 C 0.26963 0.19756 0.41858 0.0
C1756 C 0.27128 0.19171 0.44634 0.0
C1757 C 0.28645 0.22246 0.45164 0.0
C1758 C 0.28331 0.18591 0.45497 0.0
C1759 C 0.28016 0.17621 0.46718 0.0
C1760 C 0.2649 0.17207 0.47094 0.0
C1761 C 0.25291 0.17775 0.46211 0.0
C1762 C 0.25608 0.18742 0.44993 0.0
H1763 H 0.28855 0.235 0.45207 0.0
H1764 H 0.27763 0.21948 0.46036 0.0
H1765 H 0.29728 0.217 0.45482 0.0
H1766 H 0.29515 0.18885 0.45224 0.0
H1767 H 0.28967 0.17199 0.47369 0.0
H1768 H 0.493 0.50903 0.90768 0.0
H1769 H 0.47696 0.5151 0.88564 0.0
H1770 H 0.46292 0.46779 0.88031 0.0
H1771 H 0.47899 0.4616 0.90216 0.0
H1772 H 0.47756 0.50402 0.85496 0.0
H1773 H 0.42193 0.4894 0.8827 0.0
H1774 H 0.43959 0.49209 0.89345 0.0
H1775 H 0.43545 0.4744 0.88318 0.0
C1776 C 0.4866 0.4999 0.90175 0.0
C1777 C 0.48719 0.48484 0.90681 0.0
C1778 C 0.47737 0.5034 0.8892 0.0
C1779 C 0.46851 0.49195 0.88152 0.0
C1780 C 0.46935 0.47688 0.88631 0.0
H1781 H 0.40781 0.48258 0.80349 0.0
H1782 H 0.42436 0.47947 0.82581 0.0
C1783 C 0.47855 0.47336 0.89882 0.0
C1784 C 0.45849 0.49565 0.86837 0.0
H1785 H 0.42134 0.49305 0.85567 0.0
C1786 C 0.46525 0.50177 0.85515 0.0
C1787 C 0.44241 0.49274 0.86866 0.0
C1788 C 0.43437 0.48693 0.88281 0.0
C1789 C 0.45644 0.50454 0.84201 0.0
C1790 C 0.44042 0.5013 0.8422 0.0
C1791 C 0.43363 0.49546 0.85552 0.0
C1792 C 0.43054 0.50341 0.82853 0.0
C1793 C 0.46439 0.51043 0.82786 0.0
C1794 C 0.42839 0.51795 0.82272 0.0
C1795 C 0.41887 0.51979 0.80995 0.0
C1796 C 0.41132 0.50712 0.80276 0.0
C1797 C 0.41347 0.49259 0.80869 0.0
C1798 C 0.42292 0.49078 0.82147 0.0
H1799 H 0.47705 0.50929 0.82848 0.0
H1800 H 0.46004 0.50424 0.81736 0.0
H1801 H 0.46197 0.52267 0.82671 0.0
H1802 H 0.43395 0.52789 0.82815 0.0
H1803 H 0.41744 0.53114 0.80572 0.0
H1804 H 0.75241 0.7575 0.15147 0.0
H1805 H 0.75976 0.74254 0.12866 0.0
H1806 H 0.7138 0.72301 0.12545 0.0
H1807 H 0.70618 0.73837 0.14782 0.0
H1808 H 0.75954 0.71156 0.12444 0.0
H1809 H 0.72099 0.73671 0.08188 0.0
H1810 H 0.72458 0.74536 0.10064 0.0
H1811 H 0.71104 0.72958 0.09839 0.0
C1812 C 0.74378 0.75023 0.14577 0.0
C1813 C 0.72867 0.74922 0.15149 0.0
C1814 C 0.74804 0.74159 0.13278 0.0
C1815 C 0.73728 0.73182 0.12518 0.0
C1816 C 0.72223 0.7307 0.1309 0.0
H1817 H 0.74113 0.66582 0.04908 0.0
H1818 H 0.73373 0.68177 0.07123 0.0
C1819 C 0.71794 0.73936 0.14385 0.0
C1820 C 0.74195 0.72238 0.11162 0.0
H1821 H 0.73359 0.71419 0.07383 0.0
C1822 C 0.75393 0.71221 0.11335 0.0
C1823 C 0.73462 0.7232 0.09714 0.0
C1824 C 0.72219 0.7344 0.09432 0.0
C1825 C 0.75857 0.70265 0.1011 0.0
C1826 C 0.75117 0.70342 0.08667 0.0
C1827 C 0.73921 0.71359 0.08492 0.0
C1828 C 0.75572 0.69379 0.07323 0.0
C1829 C 0.77114 0.69158 0.1038 0.0
C1830 C 0.77047 0.69539 0.06688 0.0
C1831 C 0.77474 0.68632 0.05422 0.0
C1832 C 0.76431 0.67548 0.04761 0.0
C1833 C 0.74947 0.67401 0.05391 0.0
C1834 C 0.74521 0.68313 0.06656 0.0
H1835 H 0.77301 0.68979 0.11626 0.0
H1836 H 0.7684 0.68039 0.09805 0.0
H1837 H 0.78205 0.69614 0.0989 0.0
H1838 H 0.77868 0.70374 0.07167 0.0
H1839 H 0.78623 0.68782 0.04962 0.0
H1840 H 0.99996 0.07927 0.13905 0.0
H1841 H 0.98382 0.07423 0.16145 0.0
H1842 H 0.96893 0.03107 0.14091 0.0
H1843 H 0.98509 0.03603 0.11845 0.0
H1844 H 0.95247 0.06975 0.16232 0.0
H1845 H 0.98116 0.01896 0.18392 0.0
H1846 H 0.9899 0.0312 0.16983 0.0
H1847 H 0.9753 0.01726 0.16414 0.0
C1848 C 0.99326 0.0687 0.13929 0.0
C1849 C 0.99384 0.05805 0.12694 0.0
C1850 C 0.98408 0.0658 0.15214 0.0
C1851 C 0.9753 0.05218 0.15297 0.0
C1852 C 0.97587 0.0415 0.1407 0.0
H1853 H 0.90898 0.01869 0.22042 0.0
H1854 H 0.92535 0.02205 0.19778 0.0
C1855 C 0.98511 0.04436 0.12785 0.0
C1856 C 0.96508 0.04954 0.16641 0.0
H1857 H 0.95772 0.02549 0.19595 0.0
C1858 C 0.95366 0.0601 0.1697 0.0
C1859 C 0.96657 0.0369 0.176 0.0
C1860 C 0.97898 0.02549 0.17342 0.0
C1861 C 0.94365 0.05832 0.18223 0.0
C1862 C 0.94522 0.04576 0.19189 0.0
C1863 C 0.95652 0.03511 0.18853 0.0
C1864 C 0.93542 0.04366 0.20571 0.0
C1865 C 0.93129 0.06977 0.18485 0.0
C1866 C 0.93581 0.05458 0.21779 0.0
C1867 C 0.92647 0.05271 0.23073 0.0
C1868 C 0.91659 0.03982 0.2319 0.0
C1869 C 0.91639 0.02878 0.21987 0.0
C1870 C 0.92576 0.03066 0.20693 0.0
H1871 H 0.929 0.07622 0.17432 0.0
H1872 H 0.9204 0.06412 0.18862 0.0
H1873 H 0.93508 0.07807 0.19403 0.0
H1874 H 0.94339 0.06455 0.21724 0.0
H1875 H 0.92701 0.06139 0.2398 0.0
H1876 H 0.27355 0.79286 0.16797 0.0
H1877 H 0.2708 0.8108 0.14712 0.0
H1878 H 0.29001 0.77823 0.11514 0.0
H1879 H 0.29268 0.76023 0.13586 0.0
H1880 H 0.29187 0.82408 0.12772 0.0
H1881 H 0.25008 0.78786 0.09408 0.0
H1882 H 0.25516 0.78392 0.11366 0.0
H1883 H 0.26758 0.77843 0.09806 0.0
C1884 C 0.27729 0.78956 0.15651 0.0
C1885 C 0.2832 0.77504 0.15355 0.0
C1886 C 0.27566 0.79981 0.1446 0.0
C1887 C 0.27989 0.79575 0.12949 0.0
C1888 C 0.28625 0.78146 0.12661 0.0
H1889 H 0.28159 0.83873 0.0412 0.0
H1890 H 0.28481 0.82244 0.06325 0.0
C1891 C 0.2878 0.77119 0.13848 0.0
C1892 C 0.27771 0.80645 0.11675 0.0
H1893 H 0.26068 0.80953 0.08159 0.0
C1894 C 0.28497 0.82095 0.11768 0.0
C1895 C 0.26863 0.80239 0.10367 0.0
C1896 C 0.25979 0.78737 0.10233 0.0
C1897 C 0.28375 0.8313 0.10571 0.0
C1898 C 0.27491 0.8271 0.09253 0.0
C1899 C 0.26752 0.81269 0.09167 0.0
C1900 C 0.27333 0.83739 0.07938 0.0
C1901 C 0.29224 0.8465 0.10706 0.0
C1902 C 0.26572 0.85119 0.0811 0.0
C1903 C 0.2638 0.86054 0.06848 0.0
C1904 C 0.26945 0.85624 0.05389 0.0
C1905 C 0.27713 0.84243 0.05225 0.0
C1906 C 0.27897 0.83308 0.06485 0.0
H1907 H 0.30106 0.84672 0.1163 0.0
H1908 H 0.29792 0.84932 0.09602 0.0
H1909 H 0.28393 0.8555 0.10981 0.0
H1910 H 0.26106 0.85462 0.09216 0.0
H1911 H 0.2578 0.87107 0.07015 0.0
H1912 H 0.01804 0.46204 0.13563 0.0
H1913 H 0.03415 0.46705 0.15834 0.0
H1914 H 0.05516 0.50602 0.13668 0.0
H1915 H 0.03904 0.5011 0.1139 0.0
H1916 H 0.06566 0.46741 0.16003 0.0
H1917 H 0.04389 0.52366 0.17877 0.0
H1918 H 0.03388 0.51136 0.16488 0.0
H1919 H 0.05032 0.5227 0.15916 0.0
C1920 C 0.02607 0.47169 0.13569 0.0
C1921 C 0.02724 0.48117 0.12293 0.0
C1922 C 0.03524 0.47457 0.14871 0.0
C1923 C 0.04574 0.48701 0.14932 0.0
C1924 C 0.04689 0.49656 0.13664 0.0
H1925 H 0.11379 0.51724 0.21856 0.0
H1926 H 0.09811 0.51417 0.1952 0.0
C1927 C 0.03768 0.49372 0.12361 0.0
C1928 C 0.05591 0.48952 0.16296 0.0
H1929 H 0.0657 0.51504 0.19195 0.0
C1930 C 0.06563 0.47781 0.16703 0.0
C1931 C 0.05594 0.50313 0.17205 0.0
C1932 C 0.04536 0.5159 0.16861 0.0
C1933 C 0.07541 0.47935 0.17986 0.0
C1934 C 0.07531 0.49288 0.18905 0.0
C1935 C 0.06576 0.50468 0.18489 0.0
C1936 C 0.08477 0.4948 0.20324 0.0
C1937 C 0.08592 0.46654 0.18336 0.0
C1938 C 0.08233 0.48507 0.21559 0.0
C1939 C 0.09126 0.48678 0.22893 0.0
C1940 C 0.10278 0.49832 0.23025 0.0
C1941 C 0.10507 0.50819 0.21792 0.0
C1942 C 0.0961 0.50648 0.20457 0.0
H1943 H 0.08763 0.45894 0.17313 0.0
H1944 H 0.09731 0.47103 0.18743 0.0
H1945 H 0.08073 0.45958 0.19258 0.0
H1946 H 0.07346 0.47617 0.21495 0.0
H1947 H 0.0891 0.47903 0.23822 0.0
H1948 H 0.35864 0.74875 0.29884 0.0
H1949 H 0.37911 0.75112 0.31817 0.0
H1950 H 0.41294 0.7433 0.28286 0.0
H1951 H 0.39258 0.74096 0.2635 0.0
H1952 H 0.40106 0.73096 0.32687 0.0
H1953 H 0.42897 0.78283 0.30316 0.0
H1954 H 0.41011 0.77594 0.29717 0.0
H1955 H 0.427 0.76728 0.28944 0.0
C1956 C 0.37043 0.74743 0.2952 0.0
C1957 C 0.37397 0.7448 0.27959 0.0
C1958 C 0.38212 0.74885 0.30626 0.0
C1959 C 0.39759 0.74769 0.30193 0.0
C1960 C 0.40113 0.74465 0.28642 0.0
H1961 H 0.48491 0.75329 0.35057 0.0
H1962 H 0.46421 0.74936 0.33169 0.0
C1963 C 0.38946 0.7433 0.27536 0.0
C1964 C 0.41001 0.74958 0.31363 0.0
H1965 H 0.44242 0.77076 0.32298 0.0
C1966 C 0.41006 0.73971 0.32607 0.0
C1967 C 0.42176 0.76101 0.31258 0.0
C1968 C 0.42193 0.77247 0.29996 0.0
C1969 C 0.4217 0.74076 0.3373 0.0
C1970 C 0.43348 0.75213 0.33618 0.0
C1971 C 0.43341 0.76201 0.32377 0.0
C1972 C 0.44594 0.75406 0.34782 0.0
C1973 C 0.42146 0.72951 0.3501 0.0
C1974 C 0.44255 0.75812 0.36314 0.0
C1975 C 0.45436 0.76039 0.37396 0.0
C1976 C 0.46981 0.75871 0.36967 0.0
C1977 C 0.47315 0.75463 0.3543 0.0
C1978 C 0.46133 0.7524 0.34348 0.0
H1979 H 0.41401 0.71933 0.34726 0.0
H1980 H 0.43323 0.72572 0.35262 0.0
H1981 H 0.4169 0.73505 0.36069 0.0
H1982 H 0.43078 0.75974 0.36668 0.0
H1983 H 0.45136 0.76359 0.38567 0.0
H1984 H 0.96514 0.41683 0.96949 0.0
H1985 H 0.97137 0.39443 0.95375 0.0
H1986 H 0.99548 0.37607 0.99203 0.0
H1987 H 0.98875 0.39817 1.00809 0.0
H1988 H 0.99946 0.38356 0.94543 0.0
H1989 H 0.9669 0.34058 0.97915 0.0
H1990 H 0.9644 0.36078 0.98188 0.0
H1991 H 0.9807 0.35192 0.99013 0.0
C1992 C 0.97157 0.40794 0.97467 0.0
C1993 C 0.97629 0.40927 0.99014 0.0
C1994 C 0.97524 0.39518 0.96559 0.0
C1995 C 0.98368 0.38344 0.97176 0.0
C1996 C 0.98868 0.38483 0.9871 0.0
H1997 H 0.01417 0.29764 0.93011 0.0
H1998 H 0.01041 0.31965 0.94747 0.0
C1999 C 0.98498 0.39758 0.99622 0.0
C2000 C 0.98739 0.36989 0.96199 0.0
H2001 H 0.98208 0.33123 0.95862 0.0
C2002 C 0.99566 0.37212 0.94832 0.0
C2003 C 0.98246 0.35495 0.96577 0.0
C2004 C 0.973 0.35187 0.97995 0.0
C2005 C 0.99913 0.35985 0.93837 0.0
C2006 C 0.99403 0.34495 0.94206 0.0
C2007 C 0.98599 0.34266 0.95583 0.0
C2008 C 0.99645 0.33167 0.93149 0.0
C2009 C 1.00835 0.36291 0.92403 0.0
C2010 C 0.9897 0.33104 0.91683 0.0
C2011 C 0.99179 0.31849 0.90691 0.0
C2012 C 1.00065 0.30625 0.91146 0.0
C2013 C 1.00732 0.30687 0.92622 0.0
C2014 C 1.00518 0.31944 0.93616 0.0
H2015 H 0.01477 0.37402 0.92491 0.0
H2016 H 0.01665 0.35377 0.92175 0.0
H2017 H 1.00044 0.36323 0.91405 0.0
H2018 H 0.98269 0.34022 0.91309 0.0
H2019 H 0.98642 0.31838 0.89567 0.0
H2020 H 0.63689 0.80486 0.26506 0.0
H2021 H 0.61438 0.79915 0.281 0.0
H2022 H 0.64401 0.78883 0.31881 0.0
H2023 H 0.66656 0.79455 0.30298 0.0
H2024 H 0.60522 0.77283 0.29554 0.0
H2025 H 0.61584 0.81984 0.33847 0.0
H2026 H 0.62587 0.81882 0.32033 0.0
H2027 H 0.63168 0.80739 0.33604 0.0
C2028 C 0.63863 0.80127 0.27674 0.0
C2029 C 0.65355 0.80027 0.28278 0.0
C2030 C 0.62574 0.79807 0.28585 0.0
C2031 C 0.62749 0.79385 0.3012 0.0
C2032 C 0.64236 0.79246 0.30714 0.0
H2033 H 0.56262 0.77047 0.37394 0.0
H2034 H 0.58567 0.77493 0.35834 0.0
C2035 C 0.65525 0.79571 0.29806 0.0
C2036 C 0.61375 0.79075 0.31092 0.0
H2037 H 0.59576 0.80201 0.34407 0.0
C2038 C 0.60313 0.77924 0.30612 0.0
C2039 C 0.61103 0.79911 0.32475 0.0
C2040 C 0.62162 0.81208 0.33016 0.0
C2041 C 0.58998 0.77574 0.31487 0.0
C2042 C 0.58725 0.78412 0.32867 0.0
C2043 C 0.5979 0.79557 0.33351 0.0
C2044 C 0.57325 0.78138 0.33809 0.0
C2045 C 0.57924 0.76292 0.30939 0.0
C2046 C 0.55863 0.78374 0.33197 0.0
C2047 C 0.54545 0.78123 0.34085 0.0
C2048 C 0.5466 0.77636 0.35608 0.0
C2049 C 0.5613 0.77417 0.36225 0.0
C2050 C 0.57449 0.77672 0.35335 0.0
H2051 H 0.58492 0.75515 0.30101 0.0
H2052 H 0.57495 0.75616 0.31919 0.0
H2053 H 0.56921 0.76775 0.30359 0.0
H2054 H 0.55741 0.78763 0.32034 0.0
H2055 H 0.53434 0.78311 0.33574 0.0
H2056 H 0.02012 0.11972 0.99504 0.0
H2057 H 0.01318 0.14089 0.97892 0.0
H2058 H 0.06073 0.15588 0.97711 0.0
H2059 H 0.06776 0.13486 0.99328 0.0
H2060 H 0.01774 0.17244 0.98388 0.0
H2061 H 0.04861 0.15253 0.93163 0.0
H2062 H 0.04469 0.14039 0.94767 0.0
H2063 H 0.06035 0.1542 0.94861 0.0
C2064 C 0.0291 0.12758 0.99131 0.0
C2065 C 0.04453 0.12549 0.99538 0.0
C2066 C 0.02511 0.13964 0.98204 0.0
C2067 C 0.03647 0.14981 0.97657 0.0
C2068 C 0.05182 0.14796 0.98087 0.0
H2069 H 0.03724 0.2292 0.91909 0.0
H2070 H 0.04362 0.20823 0.93567 0.0
C2071 C 0.05582 0.13591 0.99012 0.0
C2072 C 0.03225 0.16248 0.96655 0.0
H2073 H 0.03858 0.17731 0.9311 0.0
C2074 C 0.02223 0.17347 0.97231 0.0
C2075 C 0.03813 0.16383 0.95146 0.0
C2076 C 0.04843 0.15205 0.94439 0.0
C2077 C 0.01819 0.18595 0.96352 0.0
C2078 C 0.0241 0.18731 0.94844 0.0
C2079 C 0.03408 0.17628 0.94266 0.0
C2080 C 0.0201 0.2001 0.93844 0.0
C2081 C 1.00796 0.19776 0.97064 0.0
C2082 C 1.00478 0.2024 0.9343 0.0
C2083 C 1.00108 0.21442 0.92486 0.0
C2084 C 0.01266 0.22431 0.91923 0.0
C2085 C 0.02803 0.22183 0.92323 0.0
C2086 C 0.0317 0.20984 0.93271 0.0
H2087 H 1.00789 0.19731 0.98339 0.0
H2088 H 0.01167 0.20941 0.96729 0.0
H2089 H 0.996 0.19559 0.96654 0.0
H2090 H 0.99566 0.19482 0.93826 0.0
H2091 H 0.98914 0.2159 0.92192 0.0
H2092 H 0.35846 0.27289 0.23157 0.0
H2093 H 0.37927 0.27072 0.21276 0.0
H2094 H 0.40736 0.30242 0.24 0.0
H2095 H 0.38667 0.30453 0.25896 0.0
H2096 H 0.39503 0.29548 0.19604 0.0
H2097 H 0.43388 0.26366 0.23355 0.0
H2098 H 0.41351 0.26481 0.23718 0.0
H2099 H 0.42614 0.28081 0.24174 0.0
C2100 C 0.36909 0.27935 0.2336 0.0
C2101 C 0.37093 0.28883 0.24681 0.0
C2102 C 0.38094 0.27816 0.2228 0.0
C2103 C 0.39491 0.28628 0.22507 0.0
C2104 C 0.39672 0.29593 0.23811 0.0
H2105 H 0.48181 0.28636 0.17527 0.0
H2106 H 0.46113 0.29081 0.19375 0.0
C2107 C 0.38484 0.29722 0.24887 0.0
C2108 C 0.40758 0.28463 0.21379 0.0
H2109 H 0.44351 0.27062 0.20931 0.0
C2110 C 0.40564 0.29004 0.19891 0.0
C2111 C 0.42141 0.2776 0.21762 0.0
C2112 C 0.42392 0.27127 0.23334 0.0
C2113 C 0.41725 0.28876 0.18776 0.0
C2114 C 0.43103 0.28149 0.19149 0.0
C2115 C 0.43297 0.27618 0.20644 0.0
C2116 C 0.44348 0.27909 0.18003 0.0
C2117 C 0.41477 0.29551 0.17222 0.0
C2118 C 0.44051 0.27088 0.16621 0.0
C2119 C 0.45229 0.26841 0.15557 0.0
C2120 C 0.46736 0.27391 0.15861 0.0
C2121 C 0.47034 0.28199 0.17254 0.0
C2122 C 0.45853 0.28454 0.18313 0.0
H2123 H 0.40608 0.30451 0.17276 0.0
H2124 H 0.42564 0.30048 0.16758 0.0
H2125 H 0.41048 0.28642 0.16406 0.0
H2126 H 0.42911 0.2662 0.16372 0.0
H2127 H 0.4496 0.26202 0.14504 0.0
H2128 H 0.54547 0.39667 0.01835 0.0
H2129 H 0.5392 0.37511 0.03477 0.0
H2130 H 0.52803 0.40624 0.07196 0.0
H2131 H 0.53395 0.42782 0.05556 0.0
H2132 H 0.55311 0.36866 0.06325 0.0
H2133 H 0.49046 0.37666 0.06983 0.0
H2134 H 0.50167 0.38562 0.05493 0.0
H2135 H 0.50219 0.39338 0.07426 0.0
C2136 C 0.54145 0.39893 0.02995 0.0
C2137 C 0.54018 0.41398 0.03563 0.0
C2138 C 0.53796 0.38659 0.03934 0.0
C2139 C 0.53298 0.38906 0.05453 0.0
C2140 C 0.53162 0.40406 0.0602 0.0
H2141 H 0.51027 0.33287 0.1322 0.0
H2142 H 0.51521 0.35354 0.1144 0.0
C2143 C 0.53516 0.41639 0.05086 0.0
C2144 C 0.52978 0.37598 0.06465 0.0
H2145 H 0.50169 0.35876 0.0861 0.0
C2146 C 0.54185 0.36641 0.06816 0.0
C2147 C 0.51509 0.37311 0.07109 0.0
C2148 C 0.50155 0.38263 0.06725 0.0
C2149 C 0.53972 0.35428 0.07824 0.0
C2150 C 0.52504 0.35145 0.08474 0.0
C2151 C 0.51295 0.36095 0.08113 0.0
C2152 C 0.52203 0.33879 0.09545 0.0
C2153 C 0.55333 0.3449 0.08218 0.0
C2154 C 0.52403 0.32359 0.09068 0.0
C2155 C 0.52125 0.31173 0.10084 0.0
C2156 C 0.51631 0.31483 0.11598 0.0
C2157 C 0.51412 0.33006 0.12066 0.0
C2158 C 0.51691 0.3419 0.11048 0.0
H2159 H 0.56439 0.35089 0.0795 0.0
H2160 H 0.55328 0.34209 0.09456 0.0
H2161 H 0.55276 0.33406 0.07533 0.0
H2162 H 0.52766 0.32088 0.07904 0.0
H2163 H 0.52296 0.30014 0.09681 0.0
H2164 H 0.63311 0.21756 0.25534 0.0
H2165 H 0.6112 0.22392 0.23929 0.0
H2166 H 0.63908 0.25823 0.21709 0.0
H2167 H 0.66111 0.25185 0.233 0.0
H2168 H 0.59785 0.2545 0.23639 0.0
H2169 H 0.62022 0.23002 0.18142 0.0
H2170 H 0.62722 0.22453 0.19997 0.0
H2171 H 0.63303 0.24259 0.19237 0.0
C2172 C 0.63461 0.2264 0.24698 0.0
C2173 C 0.64888 0.23416 0.24541 0.0
C2174 C 0.62207 0.23006 0.23788 0.0
C2175 C 0.62357 0.24143 0.22692 0.0
C2176 C 0.63773 0.24931 0.22539 0.0
H2177 H 0.55943 0.27208 0.1576 0.0
H2178 H 0.58218 0.26825 0.17349 0.0
C2179 C 0.65026 0.24573 0.23457 0.0
C2180 C 0.61027 0.2451 0.21717 0.0
H2181 H 0.59659 0.24234 0.18035 0.0
C2182 C 0.59755 0.25186 0.22414 0.0
C2183 C 0.60999 0.24175 0.20118 0.0
C2184 C 0.62327 0.23423 0.19322 0.0
C2185 C 0.58455 0.25542 0.21551 0.0
C2186 C 0.58408 0.25172 0.19956 0.0
C2187 C 0.59692 0.24515 0.19257 0.0
C2188 C 0.57024 0.2542 0.19 0.0
C2189 C 0.57156 0.26336 0.22356 0.0
C2190 C 0.556 0.24741 0.19384 0.0
C2191 C 0.54299 0.24965 0.18486 0.0
C2192 C 0.54394 0.25858 0.17169 0.0
C2193 C 0.55827 0.26517 0.16769 0.0
C2194 C 0.57129 0.26299 0.17676 0.0
H2195 H 0.5756 0.26958 0.23418 0.0
H2196 H 0.5661 0.27156 0.21593 0.0
H2197 H 0.56271 0.25475 0.22698 0.0
H2198 H 0.55497 0.24023 0.20374 0.0
H2199 H 0.53219 0.24427 0.1882 0.0
H2200 H 0.47149 0.11087 0.05965 0.0
H2201 H 0.47744 0.13363 0.07555 0.0
H2202 H 0.49047 0.15811 0.03504 0.0
H2203 H 0.48406 0.13549 0.01896 0.0
H2204 H 0.50497 0.15037 0.07903 0.0
H2205 H 0.45927 0.18599 0.0556 0.0
H2206 H 0.45954 0.16565 0.05223 0.0
H2207 H 0.47201 0.17807 0.04147 0.0
C2208 C 0.47546 0.12113 0.05408 0.0
C2209 C 0.47714 0.12137 0.03799 0.0
C2210 C 0.47897 0.13411 0.06321 0.0
C2211 C 0.48416 0.14765 0.05648 0.0
C2212 C 0.4862 0.14787 0.04047 0.0
H2213 H 0.50706 0.23773 0.09668 0.0
H2214 H 0.50319 0.21566 0.07917 0.0
C2215 C 0.4827 0.13487 0.0313 0.0
C2216 C 0.4875 0.16146 0.06631 0.0
H2217 H 0.47644 0.19794 0.07355 0.0
C2218 C 0.49874 0.16078 0.07784 0.0
C2219 C 0.47938 0.17504 0.06472 0.0
C2220 C 0.46678 0.17627 0.05293 0.0
C2221 C 0.50212 0.17331 0.08777 0.0
C2222 C 0.49385 0.18682 0.08631 0.0
C2223 C 0.48276 0.18758 0.07465 0.0
C2224 C 0.49629 0.20016 0.09699 0.0
C2225 C 0.51466 0.17205 0.0996 0.0
C2226 C 0.4935 0.19885 0.1128 0.0
C2227 C 0.4957 0.21144 0.12284 0.0
C2228 C 0.50066 0.22564 0.11727 0.0
C2229 C 0.50328 0.22696 0.10138 0.0
C2230 C 0.50106 0.21436 0.09134 0.0
H2231 H 0.52261 0.16281 0.09649 0.0
H2232 H 0.52143 0.18292 0.10096 0.0
H2233 H 0.5094 0.16938 0.11087 0.0
H2234 H 0.48949 0.1881 0.11737 0.0
H2235 H 0.49348 0.21001 0.13498 0.0
H2236 H 0.28197 0.38784 0.70147 0.0
H2237 H 0.2976 0.41083 0.70742 0.0
H2238 H 0.29566 0.40101 0.75569 0.0
H2239 H 0.28035 0.37772 0.74981 0.0
H2240 H 0.29052 0.43611 0.72648 0.0
H2241 H 0.34197 0.40705 0.74757 0.0
H2242 H 0.32688 0.39713 0.73674 0.0
H2243 H 0.32418 0.40181 0.75677 0.0
C2244 C 0.28499 0.39047 0.71335 0.0
C2245 C 0.28 0.38084 0.72515 0.0
C2246 C 0.29384 0.40367 0.71673 0.0
C2247 C 0.29799 0.40752 0.73196 0.0
C2248 C 0.29282 0.39812 0.74382 0.0
H2249 H 0.35517 0.48248 0.77089 0.0
H2250 H 0.33835 0.45982 0.76721 0.0
C2251 C 0.28393 0.3849 0.74045 0.0
C2252 C 0.3076 0.42148 0.73537 0.0
H2253 H 0.34255 0.43393 0.74943 0.0
C2254 C 0.3019 0.43565 0.7315 0.0
C2255 C 0.32241 0.42085 0.74197 0.0
C2256 C 0.32933 0.4059 0.74591 0.0
C2257 C 0.31057 0.44922 0.73412 0.0
C2258 C 0.3255 0.44857 0.74048 0.0
C2259 C 0.33112 0.43441 0.74454 0.0
C2260 C 0.33561 0.46241 0.7427 0.0
C2261 C 0.30355 0.46414 0.73027 0.0
C2262 C 0.33985 0.4713 0.73012 0.0
C2263 C 0.3494 0.48428 0.73219 0.0
C2264 C 0.35507 0.48858 0.74687 0.0
C2265 C 0.35099 0.47953 0.75943 0.0
C2266 C 0.34138 0.46656 0.75735 0.0
H2267 H 0.2908 0.46313 0.72989 0.0
H2268 H 0.30696 0.47326 0.73878 0.0
H2269 H 0.3076 0.46762 0.71876 0.0
H2270 H 0.33586 0.46812 0.71865 0.0
H2271 H 0.3524 0.49089 0.72224 0.0
H2272 H 0.2578 0.64407 0.80468 0.0
H2273 H 0.27352 0.62189 0.79941 0.0
H2274 H 0.31164 0.65156 0.78708 0.0
H2275 H 0.29603 0.67378 0.79238 0.0
H2276 H 0.28804 0.6121 0.77298 0.0
H2277 H 0.3309 0.62522 0.81905 0.0
H2278 H 0.31291 0.63479 0.81798 0.0
H2279 H 0.32872 0.64037 0.80586 0.0
C2280 C 0.2695 0.64587 0.80073 0.0
C2281 C 0.27569 0.66071 0.79906 0.0
C2282 C 0.27849 0.63318 0.79779 0.0
C2283 C 0.29386 0.63505 0.79314 0.0
C2284 C 0.29995 0.64983 0.79106 0.0
H2285 H 0.36621 0.57192 0.77022 0.0
H2286 H 0.35057 0.59441 0.77414 0.0
C2287 C 0.29099 0.66253 0.79406 0.0
C2288 C 0.30345 0.62154 0.79035 0.0
H2289 H 0.33645 0.60488 0.80163 0.0
C2290 C 0.2986 0.61049 0.77929 0.0
C2291 C 0.31724 0.61944 0.79858 0.0
C2292 C 0.32271 0.6305 0.81114 0.0
C2293 C 0.30724 0.59754 0.77607 0.0
C2294 C 0.32102 0.59546 0.78429 0.0
C2295 C 0.32591 0.60652 0.79531 0.0
C2296 C 0.33041 0.58177 0.78178 0.0
C2297 C 0.3017 0.58631 0.7637 0.0
C2298 C 0.32433 0.56722 0.78497 0.0
C2299 C 0.33324 0.55436 0.78278 0.0
C2300 C 0.34844 0.55578 0.7774 0.0
C2301 C 0.35454 0.5704 0.77434 0.0
C2302 C 0.34563 0.58327 0.77657 0.0
H2303 H 0.29328 0.59139 0.7559 0.0
H2304 H 0.31147 0.58211 0.75673 0.0
H2305 H 0.29598 0.57638 0.76916 0.0
H2306 H 0.31272 0.56582 0.78929 0.0
H2307 H 0.32818 0.5433 0.78532 0.0
H2308 H 0.8951 0.48769 0.46338 0.0
H2309 H 0.87267 0.47242 0.47132 0.0
H2310 H 0.88266 0.48396 0.51884 0.0
H2311 H 0.90522 0.49913 0.51103 0.0
H2312 H 0.87179 0.44726 0.49063 0.0
H2313 H 0.83719 0.49431 0.51467 0.0
H2314 H 0.85359 0.49761 0.50237 0.0
H2315 H 0.85632 0.49358 0.52232 0.0
C2316 C 0.89259 0.48694 0.47554 0.0
C2317 C 0.90199 0.49468 0.48657 0.0
C2318 C 0.87971 0.47826 0.48005 0.0
C2319 C 0.87587 0.47721 0.49565 0.0
C2320 C 0.88521 0.48487 0.50671 0.0
H2321 H 0.80336 0.42908 0.54524 0.0
H2322 H 0.82582 0.44452 0.53768 0.0
C2323 C 0.89811 0.49356 0.50222 0.0
C2324 C 0.86233 0.46771 0.50035 0.0
H2325 H 0.82763 0.46917 0.51859 0.0
C2326 C 0.8621 0.45205 0.49669 0.0
C2327 C 0.84973 0.47398 0.5083 0.0
C2328 C 0.84909 0.49081 0.51205 0.0
C2329 C 0.84972 0.44244 0.50096 0.0
C2330 C 0.83707 0.44871 0.50885 0.0
C2331 C 0.83733 0.46437 0.51255 0.0
C2332 C 0.82345 0.43923 0.51335 0.0
C2333 C 0.85047 0.4256 0.4973 0.0
C2334 C 0.81451 0.43125 0.50216 0.0
C2335 C 0.80168 0.42236 0.50645 0.0
C2336 C 0.79744 0.42137 0.52201 0.0
C2337 C 0.80631 0.42954 0.53316 0.0
C2338 C 0.81915 0.43839 0.52886 0.0
H2339 H 0.86245 0.4221 0.49515 0.0
H2340 H 0.8456 0.41879 0.50682 0.0
H2341 H 0.84366 0.42282 0.48676 0.0
H2342 H 0.81739 0.43199 0.49009 0.0
H2343 H 0.79505 0.41633 0.49754 0.0
H2344 H 0.74799 0.88263 0.81187 0.0
H2345 H 0.72901 0.90257 0.81083 0.0
H2346 H 0.73129 0.90109 0.7613 0.0
H2347 H 0.74985 0.88083 0.7622 0.0
H2348 H 0.73246 0.93125 0.79817 0.0
H2349 H 0.68514 0.89796 0.76916 0.0
H2350 H 0.70136 0.88907 0.77774 0.0
H2351 H 0.70313 0.89736 0.75912 0.0
C2352 C 0.74428 0.88636 0.80074 0.0
C2353 C 0.75045 0.88007 0.78712 0.0
C2354 C 0.7335 0.89785 0.80017 0.0
C2355 C 0.72856 0.90319 0.78598 0.0
C2356 C 0.7347 0.89696 0.77237 0.0
H2357 H 0.6683 0.97393 0.7567 0.0
H2358 H 0.68617 0.95306 0.75836 0.0
C2359 C 0.74547 0.88549 0.77293 0.0
C2360 C 0.71742 0.91566 0.78541 0.0
H2361 H 0.68228 0.92474 0.7714 0.0
C2362 C 0.72144 0.9298 0.79241 0.0
C2363 C 0.70306 0.91378 0.77784 0.0
C2364 C 0.69781 0.89869 0.77065 0.0
C2365 C 0.71167 0.94221 0.79176 0.0
C2366 C 0.69732 0.94035 0.78415 0.0
C2367 C 0.69327 0.92618 0.7772 0.0
C2368 C 0.68638 0.95296 0.78324 0.0
C2369 C 0.71698 0.95732 0.79887 0.0
C2370 C 0.68036 0.95971 0.79666 0.0
C2371 C 0.67018 0.97168 0.79575 0.0
C2372 C 0.66569 0.97707 0.78139 0.0
C2373 C 0.67153 0.9701 0.76795 0.0
C2374 C 0.68175 0.95816 0.76888 0.0
H2375 H 0.72964 0.95796 0.8005 0.0
H2376 H 0.7136 0.9669 0.79166 0.0
H2377 H 0.71156 0.95879 0.81034 0.0
H2378 H 0.68348 0.95567 0.80786 0.0
H2379 H 0.66582 0.97668 0.80633 0.0
H2380 H 0.61659 0.53697 1.00314 0.0
H2381 H 0.63966 0.55251 1.0095 0.0
H2382 H 0.65136 0.55405 0.9614 0.0
H2383 H 0.62845 0.5384 0.95494 0.0
H2384 H 0.67093 0.54699 1.0031 0.0
H2385 H 0.65182 0.59921 0.97504 0.0
H2386 H 0.6388 0.58348 0.97922 0.0
H2387 H 0.65136 0.58236 0.96287 0.0
C2388 C 0.62414 0.54049 0.99392 0.0
C2389 C 0.62058 0.5365 0.97851 0.0
C2390 C 0.63728 0.54944 0.99757 0.0
C2391 C 0.64709 0.55466 0.98591 0.0
C2392 C 0.64377 0.55045 0.97056 0.0
H2393 H 0.7301 0.6127 0.98544 0.0
H2394 H 0.7081 0.59587 0.97852 0.0
C2395 C 0.63065 0.5415 0.96689 0.0
C2396 C 0.66085 0.56442 0.98981 0.0
H2397 H 0.67736 0.59965 0.98444 0.0
C2398 C 0.67233 0.55852 0.99907 0.0
C2399 C 0.66267 0.57944 0.98448 0.0
C2400 C 0.65047 0.58659 0.97496 0.0
C2401 C 0.68569 0.56716 1.00298 0.0
C2402 C 0.68747 0.58223 0.99774 0.0
C2403 C 0.676 0.5881 0.98842 0.0
C2404 C 0.701 0.5922 1.002 0.0
C2405 C 0.69791 0.55994 0.01241 0.0
C2406 C 0.70423 0.59589 0.01749 0.0
C2407 C 0.71682 0.60545 0.02149 0.0
C2408 C 0.72637 0.61167 0.01007 0.0
C2409 C 0.72302 0.60809 0.99454 0.0
C2410 C 0.71043 0.59847 0.99055 0.0
H2411 H 0.69691 0.5473 0.01169 0.0
H2412 H 0.7096 0.56356 1.00859 0.0
H2413 H 0.69659 0.56352 0.02466 0.0
H2414 H 0.69691 0.5915 0.02652 0.0
H2415 H 0.71898 0.60805 0.03356 0.0
H2416 H 0.24032 0.65797 0.26737 0.0
H2417 H 0.22278 0.63573 0.26859 0.0
H2418 H 0.23707 0.62101 0.22328 0.0
H2419 H 0.25492 0.64301 0.2221 0.0
H2420 H 0.1982 0.62636 0.24877 0.0
H2421 H 0.24376 0.58351 0.24962 0.0
H2422 H 0.2477 0.60357 0.25332 0.0
H2423 H 0.24502 0.59638 0.23393 0.0
C2424 C 0.23982 0.64995 0.2577 0.0
C2425 C 0.24913 0.65223 0.24468 0.0
C2426 C 0.22972 0.63729 0.25839 0.0
C2427 C 0.22879 0.62659 0.24613 0.0
C2428 C 0.23779 0.62899 0.23298 0.0
H2429 H 0.17799 0.54119 0.22966 0.0
H2430 H 0.19456 0.56405 0.22811 0.0
C2431 C 0.24787 0.64167 0.23226 0.0
C2432 C 0.21841 0.61292 0.24714 0.0
H2433 H 0.21808 0.57404 0.24747 0.0
C2434 C 0.20253 0.61492 0.24854 0.0
C2435 C 0.22409 0.598 0.24684 0.0
C2436 C 0.24108 0.59517 0.24598 0.0
C2437 C 0.19215 0.60239 0.24934 0.0
C2438 C 0.19784 0.58746 0.24905 0.0
C2439 C 0.21373 0.58548 0.24767 0.0
C2440 C 0.18752 0.57371 0.25004 0.0
C2441 C 0.17516 0.60524 0.25012 0.0
C2442 C 0.17815 0.57144 0.26297 0.0
C2443 C 0.16861 0.55837 0.26388 0.0
C2444 C 0.16835 0.54725 0.25193 0.0
C2445 C 0.17787 0.54951 0.23907 0.0
C2446 C 0.18737 0.56258 0.23816 0.0
H2447 H 0.1725 0.61678 0.24613 0.0
H2448 H 0.16851 0.59665 0.24303 0.0
H2449 H 0.17124 0.60441 0.26221 0.0
H2450 H 0.17833 0.5797 0.27244 0.0
H2451 H 0.16151 0.55696 0.274 0.0
H2452 H 0.90246 0.52923 0.01956 0.0
H2453 H 0.88072 0.54474 0.01269 0.0
H2454 H 0.8809 0.56509 0.05834 0.0
H2455 H 0.90241 0.54949 0.06542 0.0
H2456 H 0.85118 0.5461 0.02684 0.0
H2457 H 0.88257 0.60206 0.03004 0.0
H2458 H 0.8923 0.58421 0.02896 0.0
H2459 H 0.88424 0.5908 0.04686 0.0
C2460 C 0.89782 0.53692 0.0282 0.0
C2461 C 0.9043 0.53815 0.04303 0.0
C2462 C 0.88544 0.54583 0.02421 0.0
C2463 C 0.87935 0.55624 0.03492 0.0
C2464 C 0.88563 0.55738 0.04978 0.0
H2465 H 0.80543 0.62071 0.03358 0.0
H2466 H 0.82699 0.60496 0.04048 0.0
C2467 C 0.89797 0.54845 0.05379 0.0
C2468 C 0.86623 0.56572 0.03067 0.0
H2469 H 0.85556 0.60252 0.02679 0.0
C2470 C 0.85214 0.55844 0.02675 0.0
C2471 C 0.8675 0.58181 0.03063 0.0
C2472 C 0.88249 0.59022 0.03421 0.0
C2473 C 0.83921 0.56682 0.02306 0.0
C2474 C 0.84048 0.58292 0.02296 0.0
C2475 C 0.85458 0.59019 0.02689 0.0
C2476 C 0.82736 0.59243 0.01873 0.0
C2477 C 0.8242 0.55835 0.01966 0.0
C2478 C 0.82053 0.59079 1.00413 0.0
C2479 C 0.80819 0.59974 1.00017 0.0
C2480 C 0.80248 0.61063 0.01068 0.0
C2481 C 0.80949 0.61241 0.02522 0.0
C2482 C 0.82183 0.60342 0.02918 0.0
H2483 H 0.82403 0.5467 0.02433 0.0
H2484 H 0.81435 0.56458 0.02456 0.0
H2485 H 0.82259 0.55725 1.00702 0.0
H2486 H 0.82481 0.58264 0.99574 0.0
H2487 H 0.80315 0.59813 0.98883 0.0
H2488 H 0.12876 0.01571 0.03357 0.0
H2489 H 0.15017 0.99935 0.02696 0.0
H2490 H 0.13478 0.96739 0.06085 0.0
H2491 H 0.11304 0.9833 0.06707 0.0
H2492 H 0.17371 0.99029 0.04523 0.0
H2493 H 0.14002 0.93971 0.02338 0.0
H2494 H 0.13158 0.95804 0.02654 0.0
H2495 H 0.13461 0.94577 0.04243 0.0
C2496 C 0.12977 1.00508 0.03945 0.0
C2497 C 0.1191 1.00084 0.05083 0.0
C2498 C 0.14209 0.99579 0.03573 0.0
C2499 C 0.14397 0.98201 0.04323 0.0
C2500 C 0.13342 0.9778 0.05467 0.0
H2501 H 0.21256 0.91212 0.04195 0.0
H2502 H 0.19086 0.92844 0.04765 0.0
C2503 C 0.12108 0.98704 0.05836 0.0
C2504 C 0.15722 0.97228 0.03946 0.0
H2505 H 0.1667 0.93636 0.02765 0.0
C2506 C 0.17217 0.97853 0.04128 0.0
C2507 C 0.15523 0.95692 0.03433 0.0
C2508 C 0.1395 0.94974 0.03141 0.0
C2509 C 0.18516 0.96976 0.03843 0.0
C2510 C 0.18315 0.95438 0.03343 0.0
C2511 C 0.16821 0.94813 0.03156 0.0
C2512 C 0.1964 0.94458 0.02999 0.0
C2513 C 0.20092 0.97694 0.04114 0.0
C2514 C 0.20663 0.94814 0.01806 0.0
C2515 C 0.21903 0.93883 0.01475 0.0
C2516 C 0.22144 0.92573 0.02329 0.0
C2517 C 0.21109 0.92214 0.03518 0.0
C2518 C 0.19867 0.93145 0.03844 0.0
H2519 H 0.20047 0.98746 0.04848 0.0
H2520 H 0.20863 0.96885 0.04667 0.0
H2521 H 0.20604 0.98005 0.02993 0.0
H2522 H 0.20495 0.95806 0.0112 0.0
H2523 H 0.22671 0.94191 1.00547 0.0
loop_
_geom_bond_atom_site_label_1
_geom_bond_atom_site_label_2
_geom_bond_distance
_geom_bond_site_symmetry_2
_ccdc_geom_bond_type
C0 C1 1.264 . S
C0 C5 1.479 1_455 S
C0 C10 1.465 . S
C1 C0 1.264 . S
C1 C3 1.339 1_455 S
C1 H28 0.931 . S
C2 C3 1.395 . S
C2 C4 1.320 . S
C3 C1 1.339 1_655 S
C3 C2 1.395 . S
C3 H29 0.929 . S
C4 C2 1.320 . S
C4 C5 1.405 . S
C4 H30 0.930 . S
C5 C0 1.479 1_655 S
C5 C4 1.405 . S
C5 H31 0.931 . S
U6 O7 2.454 . S
U6 O8 2.458 . S
U6 C9 2.984 . S
U6 C10 2.847 . S
U6 C23 2.882 . S
U6 O24 2.441 . S
U6 O25 2.420 . S
U6 O26 2.455 . S
U6 O27 2.449 . S
O7 U6 2.454 . S
O7 C9 1.353 . S
O8 U6 2.458 . S
O8 C9 1.286 . S
C9 U6 2.984 . S
C9 O7 1.353 . S
C9 O8 1.286 . S
C9 C11 1.363 . S
C10 C0 1.465 . S
C10 U6 2.847 . S
C10 O24 1.249 . S
C10 O25 1.202 . S
C11 C9 1.363 . S
C11 C13 1.408 . S
C11 C16 1.342 . S
C12 C13 1.310 . S
C12 C15 1.461 1_554 S
C12 H32 0.932 . S
C13 C11 1.408 . S
C13 C12 1.310 . S
C13 H33 0.930 . S
C14 C15 1.474 . S
C14 C16 1.285 1_556 S
C14 H34 0.929 . S
C15 C12 1.461 1_556 S
C15 C14 1.474 . S
C16 C11 1.342 . S
C16 C14 1.285 1_554 S
C16 H35 0.930 . S
C17 C20 1.424 . S
C17 C22 1.245 . S
C17 C23 1.428 . S
C18 C21 1.260 1_545 S
C18 C22 1.477 . S
C18 H36 0.932 . S
C19 C20 1.384 1_565 S
C19 C21 1.479 . S
C19 H37 0.929 . S
C20 C17 1.424 . S
C20 C19 1.384 1_545 S
C20 H38 0.928 . S
C21 C18 1.260 1_565 S
C21 C19 1.479 . S
C22 C17 1.245 . S
C22 C18 1.477 . S
C22 H39 0.932 . S
C23 U6 2.882 . S
C23 C17 1.428 . S
C23 O26 1.301 . S
C23 O27 1.282 . S
O24 U6 2.441 . S
O24 C10 1.249 . S
O25 U6 2.420 . S
O25 C10 1.202 . S
O26 U6 2.455 . S
O26 C23 1.301 . S
O27 U6 2.449 . S
O27 C23 1.282 . S
H28 C1 0.931 . S
H29 C3 0.929 . S
H30 C4 0.930 . S
H31 C5 0.931 . S
H32 C12 0.932 . S
H33 C13 0.930 . S
H34 C14 0.929 . S
H35 C16 0.930 . S
H36 C18 0.932 . S
H37 C19 0.929 . S
H38 C20 0.928 . S
H39 C22 0.932 . S
C40 C41 1.264 . S
C40 C45 1.479 . S
C40 C50 1.465 . S
C41 C40 1.264 . S
C41 C43 1.339 . S
C41 H68 0.931 . S
C42 C43 1.395 . S
C42 C44 1.320 . S
C43 C41 1.339 . S
C43 C42 1.395 . S
C43 H69 0.929 . S
C44 C42 1.320 . S
C44 C45 1.405 . S
C44 H70 0.930 . S
C45 C40 1.479 . S
C45 C44 1.405 . S
C45 H71 0.931 . S
U46 O47 2.454 . S
U46 O48 2.458 . S
U46 C49 2.984 . S
U46 C50 2.847 . S
U46 C63 2.882 . S
U46 O64 2.441 . S
U46 O65 2.420 . S
U46 O66 2.455 . S
U46 O67 2.449 . S
O47 U46 2.454 . S
O47 C49 1.353 . S
O48 U46 2.458 . S
O48 C49 1.286 . S
C49 U46 2.984 . S
C49 O47 1.353 . S
C49 O48 1.286 . S
C49 C51 1.363 . S
C50 C40 1.465 . S
C50 U46 2.847 . S
C50 O64 1.249 . S
C50 O65 1.202 . S
C51 C49 1.363 . S
C51 C53 1.408 . S
C51 C56 1.342 . S
C52 C53 1.310 . S
C52 C55 1.461 . S
C52 H72 0.932 . S
C53 C51 1.408 . S
C53 C52 1.310 . S
C53 H73 0.930 . S
C54 C55 1.474 . S
C54 C56 1.285 . S
C54 H74 0.929 . S
C55 C52 1.461 . S
C55 C54 1.474 . S
C56 C51 1.342 . S
C56 C54 1.285 . S
C56 H75 0.930 . S
C57 C60 1.424 . S
C57 C62 1.245 . S
C57 C63 1.428 . S
C58 C61 1.260 . S
C58 C62 1.477 . S
C58 H76 0.932 . S
C59 C60 1.384 . S
C59 C61 1.479 . S
C59 H77 0.929 . S
C60 C57 1.424 . S
C60 C59 1.384 . S
C60 H78 0.928 . S
C61 C58 1.260 . S
C61 C59 1.479 . S
C62 C57 1.245 . S
C62 C58 1.477 . S
C62 H79 0.932 . S
C63 U46 2.882 . S
C63 C57 1.428 . S
C63 O66 1.301 . S
C63 O67 1.282 . S
O64 U46 2.441 . S
O64 C50 1.249 . S
O65 U46 2.420 . S
O65 C50 1.202 . S
O66 U46 2.455 . S
O66 C63 1.301 . S
O67 U46 2.449 . S
O67 C63 1.282 . S
H68 C41 0.931 . S
H69 C43 0.929 . S
H70 C44 0.930 . S
H71 C45 0.931 . S
H72 C52 0.932 . S
H73 C53 0.930 . S
H74 C54 0.929 . S
H75 C56 0.930 . S
H76 C58 0.932 . S
H77 C59 0.929 . S
H78 C60 0.928 . S
H79 C62 0.932 . S
C80 C81 1.264 . S
C80 C85 1.479 1_554 S
C80 C90 1.465 . S
C81 C80 1.264 . S
C81 C83 1.339 1_554 S
C81 H108 0.931 . S
C82 C83 1.395 . S
C82 C84 1.320 . S
C83 C81 1.339 1_556 S
C83 C82 1.395 . S
C83 H109 0.943 . S
C84 C82 1.320 . S
C84 C85 1.405 . S
C84 H110 0.930 . S
C85 C80 1.479 1_556 S
C85 C84 1.405 . S
C85 H111 0.931 . S
U86 O87 2.454 . S
U86 O88 2.458 . S
U86 C89 2.984 . S
U86 C90 2.847 . S
U86 C103 2.882 . S
U86 O104 2.441 . S
U86 O105 2.420 . S
U86 O106 2.455 . S
U86 O107 2.449 . S
O87 U86 2.454 . S
O87 C89 1.353 . S
O88 U86 2.458 . S
O88 C89 1.286 . S
C89 U86 2.984 . S
C89 O87 1.353 . S
C89 O88 1.286 . S
C89 C91 1.363 . S
C90 C80 1.465 . S
C90 U86 2.847 . S
C90 O104 1.249 . S
C90 O105 1.202 . S
C91 C89 1.363 . S
C91 C93 1.408 . S
C91 C96 1.342 . S
C92 C93 1.310 . S
C92 C95 1.461 . S
C92 H112 0.932 . S
C93 C91 1.408 . S
C93 C92 1.310 . S
C93 H113 0.930 . S
C94 C95 1.474 . S
C94 C96 1.285 . S
C94 H114 0.929 . S
C95 C92 1.461 . S
C95 C94 1.474 . S
C96 C91 1.342 . S
C96 C94 1.285 . S
C96 H115 0.930 . S
C97 C100 1.424 1_655 S
C97 C102 1.245 . S
C97 C103 1.428 . S
C98 C101 1.260 . S
C98 C102 1.477 1_455 S
C98 H116 0.932 . S
C99 C100 1.384 . S
C99 C101 1.479 . S
C99 H117 0.929 . S
C100 C97 1.424 1_455 S
C100 C99 1.384 . S
C100 H118 0.928 . S
C101 C98 1.260 . S
C101 C99 1.479 . S
C102 C97 1.245 . S
C102 C98 1.477 1_655 S
C102 H119 0.932 . S
C103 U86 2.882 . S
C103 C97 1.428 . S
C103 O106 1.301 . S
C103 O107 1.282 . S
O104 U86 2.441 . S
O104 C90 1.249 . S
O105 U86 2.420 . S
O105 C90 1.202 . S
O106 U86 2.455 . S
O106 C103 1.301 . S
O107 U86 2.449 . S
O107 C103 1.282 . S
H108 C81 0.931 . S
H109 C83 0.943 . S
H110 C84 0.930 . S
H111 C85 0.931 . S
H112 C92 0.932 . S
H113 C93 0.930 . S
H114 C94 0.929 . S
H115 C96 0.930 . S
H116 C98 0.932 . S
H117 C99 0.929 . S
H118 C100 0.928 . S
H119 C102 0.932 . S
C120 C121 1.264 . S
C120 C125 1.479 . S
C120 C130 1.465 . S
C121 C120 1.264 . S
C121 C123 1.339 . S
C121 H148 0.931 . S
C122 C123 1.395 . S
C122 C124 1.320 . S
C123 C121 1.339 . S
C123 C122 1.395 . S
C123 H149 0.929 . S
C124 C122 1.320 . S
C124 C125 1.405 . S
C124 H150 0.930 . S
C125 C120 1.479 . S
C125 C124 1.405 . S
C125 H151 0.931 . S
U126 O127 2.454 . S
U126 O128 2.458 . S
U126 C129 2.984 . S
U126 C130 2.847 . S
U126 C143 2.882 . S
U126 O144 2.441 . S
U126 O145 2.420 . S
U126 O146 2.455 . S
U126 O147 2.449 . S
O127 U126 2.454 . S
O127 C129 1.353 . S
O128 U126 2.458 . S
O128 C129 1.286 . S
C129 U126 2.984 . S
C129 O127 1.353 . S
C129 O128 1.286 . S
C129 C131 1.363 . S
C130 C120 1.465 . S
C130 U126 2.847 . S
C130 O144 1.249 . S
C130 O145 1.202 . S
C131 C129 1.363 . S
C131 C133 1.408 . S
C131 C136 1.342 . S
C132 C133 1.310 . S
C132 C135 1.461 . S
C132 H152 0.932 . S
C133 C131 1.408 . S
C133 C132 1.310 . S
C133 H153 0.930 . S
C134 C135 1.474 . S
C134 C136 1.285 . S
C134 H154 0.929 . S
C135 C132 1.461 . S
C135 C134 1.474 . S
C136 C131 1.342 . S
C136 C134 1.285 . S
C136 H155 0.930 . S
C137 C140 1.424 . S
C137 C142 1.245 . S
C137 C143 1.428 . S
C138 C141 1.260 . S
C138 C142 1.477 . S
C138 H156 0.932 . S
C139 C140 1.384 . S
C139 C141 1.479 . S
C139 H157 0.929 . S
C140 C137 1.424 . S
C140 C139 1.384 . S
C140 H158 0.928 . S
C141 C138 1.260 . S
C141 C139 1.479 . S
C142 C137 1.245 . S
C142 C138 1.477 . S
C142 H159 0.932 . S
C143 U126 2.882 . S
C143 C137 1.428 . S
C143 O146 1.301 . S
C143 O147 1.282 . S
O144 U126 2.441 . S
O144 C130 1.249 . S
O145 U126 2.420 . S
O145 C130 1.202 . S
O146 U126 2.455 . S
O146 C143 1.301 . S
O147 U126 2.449 . S
O147 C143 1.282 . S
H148 C121 0.931 . S
H149 C123 0.929 . S
H150 C124 0.930 . S
H151 C125 0.931 . S
H152 C132 0.932 . S
H153 C133 0.930 . S
H154 C134 0.929 . S
H155 C136 0.930 . S
H156 C138 0.932 . S
H157 C139 0.929 . S
H158 C140 0.928 . S
H159 C142 0.932 . S
C160 C161 1.264 . S
C160 C165 1.479 1_455 S
C160 C170 1.465 . S
C161 C160 1.264 . S
C161 C163 1.304 1_455 S
C161 H188 0.931 1_565 S
C162 C163 1.441 . S
C162 C164 1.320 . S
C163 C161 1.304 1_655 S
C163 C162 1.441 . S
C163 H189 0.919 1_665 S
C164 C162 1.320 . S
C164 C165 1.405 . S
C164 H190 0.930 . S
C165 C160 1.479 1_655 S
C165 C164 1.405 . S
C165 H191 0.931 . S
U166 O167 2.454 . S
U166 O168 2.458 . S
U166 C169 2.984 . S
U166 C170 2.847 . S
U166 C183 2.882 . S
U166 O184 2.441 . S
U166 O185 2.420 . S
U166 O186 2.455 . S
U166 O187 2.478 . S
O167 U166 2.454 . S
O167 C169 1.353 . S
O168 U166 2.458 . S
O168 C169 1.286 . S
C169 U166 2.984 . S
C169 O167 1.353 . S
C169 O168 1.286 . S
C169 C171 1.363 . S
C170 C160 1.465 . S
C170 U166 2.847 . S
C170 O184 1.249 . S
C170 O185 1.202 . S
C171 C169 1.363 . S
C171 C173 1.408 . S
C171 C176 1.342 . S
C172 C173 1.310 . S
C172 C175 1.461 . S
C172 H192 0.932 . S
C173 C171 1.408 . S
C173 C172 1.310 . S
C173 H193 0.930 . S
C174 C175 1.474 . S
C174 C176 1.285 . S
C174 H194 0.929 . S
C175 C172 1.461 . S
C175 C174 1.474 . S
C176 C171 1.342 . S
C176 C174 1.285 . S
C176 H195 0.930 . S
C177 C180 1.424 . S
C177 C182 1.245 . S
C177 C183 1.428 1_545 S
C178 C181 1.260 . S
C178 C182 1.477 . S
C178 H196 0.932 . S
C179 C180 1.384 . S
C179 C181 1.479 . S
C179 H197 0.929 . S
C180 C177 1.424 . S
C180 C179 1.384 . S
C180 H198 0.928 . S
C181 C178 1.260 . S
C181 C179 1.479 . S
C182 C177 1.245 . S
C182 C178 1.477 . S
C182 H199 0.932 1_545 S
C183 U166 2.882 . S
C183 C177 1.428 1_565 S
C183 O186 1.301 . S
C183 O187 1.291 . S
O184 U166 2.441 . S
O184 C170 1.249 . S
O185 U166 2.420 . S
O185 C170 1.202 . S
O186 U166 2.455 . S
O186 C183 1.301 . S
O187 U166 2.478 . S
O187 C183 1.291 . S
H188 C161 0.931 1_545 S
H189 C163 0.919 1_445 S
H190 C164 0.930 . S
H191 C165 0.931 . S
H192 C172 0.932 . S
H193 C173 0.930 . S
H194 C174 0.929 . S
H195 C176 0.930 . S
H196 C178 0.932 . S
H197 C179 0.929 . S
H198 C180 0.928 . S
H199 C182 0.932 1_565 S
C200 C201 1.264 . S
C200 C205 1.479 . S
C200 C210 1.465 . S
C201 C200 1.264 . S
C201 C203 1.339 . S
C201 H228 0.931 . S
C202 C203 1.395 . S
C202 C204 1.320 . S
C203 C201 1.339 . S
C203 C202 1.395 . S
C203 H229 0.929 . S
C204 C202 1.320 . S
C204 C205 1.405 . S
C204 H230 0.930 . S
C205 C200 1.479 . S
C205 C204 1.405 . S
C205 H231 0.931 . S
U206 O207 2.454 . S
U206 O208 2.458 . S
U206 C209 2.984 . S
U206 C210 2.847 . S
U206 C223 2.882 . S
U206 O224 2.441 . S
U206 O225 2.420 . S
U206 O226 2.455 . S
U206 O227 2.449 . S
O207 U206 2.454 . S
O207 C209 1.353 . S
O208 U206 2.458 . S
O208 C209 1.286 . S
C209 U206 2.984 . S
C209 O207 1.353 . S
C209 O208 1.286 . S
C209 C211 1.363 . S
C210 C200 1.465 . S
C210 U206 2.847 . S
C210 O224 1.249 . S
C210 O225 1.202 . S
C211 C209 1.363 . S
C211 C213 1.408 . S
C211 C216 1.342 . S
C212 C213 1.310 . S
C212 C215 1.461 . S
C212 H232 0.932 . S
C213 C211 1.408 . S
C213 C212 1.310 . S
C213 H233 0.930 . S
C214 C215 1.474 . S
C214 C216 1.285 . S
C214 H234 0.929 . S
C215 C212 1.461 . S
C215 C214 1.474 . S
C216 C211 1.342 . S
C216 C214 1.285 . S
C216 H235 0.930 . S
C217 C220 1.424 . S
C217 C222 1.245 . S
C217 C223 1.428 . S
C218 C221 1.260 . S
C218 C222 1.477 . S
C218 H236 0.932 . S
C219 C220 1.384 . S
C219 C221 1.479 . S
C219 H237 0.929 . S
C220 C217 1.424 . S
C220 C219 1.384 . S
C220 H238 0.928 . S
C221 C218 1.260 . S
C221 C219 1.479 . S
C222 C217 1.245 . S
C222 C218 1.477 . S
C222 H239 0.932 . S
C223 U206 2.882 . S
C223 C217 1.428 . S
C223 O226 1.301 . S
C223 O227 1.282 . S
O224 U206 2.441 . S
O224 C210 1.249 . S
O225 U206 2.420 . S
O225 C210 1.202 . S
O226 U206 2.455 . S
O226 C223 1.301 . S
O227 U206 2.449 . S
O227 C223 1.282 . S
H228 C201 0.931 . S
H229 C203 0.929 . S
H230 C204 0.930 . S
H231 C205 0.931 . S
H232 C212 0.932 . S
H233 C213 0.930 . S
H234 C214 0.929 . S
H235 C216 0.930 . S
H236 C218 0.932 . S
H237 C219 0.929 . S
H238 C220 0.928 . S
H239 C222 0.932 . S
C240 C241 1.264 . S
C240 C245 1.479 . S
C240 C250 1.465 . S
C241 C240 1.264 . S
C241 C243 1.339 . S
C241 H268 0.931 . S
C242 C243 1.395 . S
C242 C244 1.320 . S
C243 C241 1.339 . S
C243 C242 1.395 . S
C243 H269 0.929 . S
C244 C242 1.320 . S
C244 C245 1.405 . S
C244 H270 0.930 . S
C245 C240 1.479 . S
C245 C244 1.405 . S
C245 H271 0.931 . S
U246 O247 2.454 . S
U246 O248 2.458 . S
U246 C249 2.984 . S
U246 C250 2.847 . S
U246 C263 2.882 . S
U246 O264 2.441 . S
U246 O265 2.420 . S
U246 O266 2.455 . S
U246 O267 2.449 . S
O247 U246 2.454 . S
O247 C249 1.353 . S
O248 U246 2.458 . S
O248 C249 1.286 . S
C249 U246 2.984 . S
C249 O247 1.353 . S
C249 O248 1.286 . S
C249 C251 1.363 . S
C250 C240 1.465 . S
C250 U246 2.847 . S
C250 O264 1.249 . S
C250 O265 1.202 . S
C251 C249 1.363 . S
C251 C253 1.408 . S
C251 C256 1.342 . S
C252 C253 1.310 . S
C252 C255 1.461 . S
C252 H272 0.932 . S
C253 C251 1.408 . S
C253 C252 1.310 . S
C253 H273 0.930 . S
C254 C255 1.474 . S
C254 C256 1.285 . S
C254 H274 0.929 . S
C255 C252 1.461 . S
C255 C254 1.474 . S
C256 C251 1.342 . S
C256 C254 1.285 . S
C256 H275 0.930 . S
C257 C260 1.424 1_655 S
C257 C262 1.245 . S
C257 C263 1.428 . S
C258 C261 1.260 . S
C258 C262 1.477 1_455 S
C258 H276 0.932 . S
C259 C260 1.384 . S
C259 C261 1.479 . S
C259 H277 0.929 . S
C260 C257 1.424 1_455 S
C260 C259 1.384 . S
C260 H278 0.928 . S
C261 C258 1.260 . S
C261 C259 1.479 . S
C262 C257 1.245 . S
C262 C258 1.477 1_655 S
C262 H279 0.932 . S
C263 U246 2.882 . S
C263 C257 1.428 . S
C263 O266 1.301 . S
C263 O267 1.282 . S
O264 U246 2.441 . S
O264 C250 1.249 . S
O265 U246 2.420 . S
O265 C250 1.202 . S
O266 U246 2.455 . S
O266 C263 1.301 . S
O267 U246 2.449 . S
O267 C263 1.282 . S
H268 C241 0.931 . S
H269 C243 0.929 . S
H270 C244 0.930 . S
H271 C245 0.931 . S
H272 C252 0.932 . S
H273 C253 0.930 . S
H274 C254 0.929 . S
H275 C256 0.930 . S
H276 C258 0.932 . S
H277 C259 0.929 . S
H278 C260 0.928 . S
H279 C262 0.932 . S
C280 C281 1.264 . S
C280 C285 1.479 . S
C280 C290 1.465 . S
C281 C280 1.264 . S
C281 C283 1.339 . S
C281 H308 0.931 . S
C282 C283 1.395 . S
C282 C284 1.320 . S
C283 C281 1.339 . S
C283 C282 1.395 . S
C283 H309 0.929 . S
C284 C282 1.320 . S
C284 C285 1.405 . S
C284 H310 0.930 . S
C285 C280 1.479 . S
C285 C284 1.405 . S
C285 H311 0.931 . S
U286 O287 2.454 . S
U286 O288 2.458 . S
U286 C289 2.984 . S
U286 C290 2.847 . S
U286 C303 2.882 . S
U286 O304 2.441 . S
U286 O305 2.420 . S
U286 O306 2.455 . S
U286 O307 2.449 . S
O287 U286 2.454 . S
O287 C289 1.353 . S
O288 U286 2.458 . S
O288 C289 1.286 . S
C289 U286 2.984 . S
C289 O287 1.353 . S
C289 O288 1.286 . S
C289 C291 1.363 . S
C290 C280 1.465 . S
C290 U286 2.847 . S
C290 O304 1.249 . S
C290 O305 1.202 . S
C291 C289 1.363 . S
C291 C293 1.408 . S
C291 C296 1.342 . S
C292 C293 1.310 . S
C292 C295 1.461 . S
C292 H312 0.932 . S
C293 C291 1.408 . S
C293 C292 1.310 . S
C293 H313 0.930 . S
C294 C295 1.474 . S
C294 C296 1.285 . S
C294 H314 0.929 . S
C295 C292 1.461 . S
C295 C294 1.474 . S
C296 C291 1.342 . S
C296 C294 1.285 . S
C296 H315 0.930 . S
C297 C300 1.424 . S
C297 C302 1.245 . S
C297 C303 1.428 . S
C298 C301 1.260 . S
C298 C302 1.477 . S
C298 H316 0.932 . S
C299 C300 1.384 . S
C299 C301 1.479 . S
C299 H317 0.929 . S
C300 C297 1.424 . S
C300 C299 1.384 . S
C300 H318 0.928 . S
C301 C298 1.260 . S
C301 C299 1.479 . S
C302 C297 1.245 . S
C302 C298 1.477 . S
C302 H319 0.932 . S
C303 U286 2.882 . S
C303 C297 1.428 . S
C303 O306 1.301 . S
C303 O307 1.282 . S
O304 U286 2.441 . S
O304 C290 1.249 . S
O305 U286 2.420 . S
O305 C290 1.202 . S
O306 U286 2.455 . S
O306 C303 1.301 . S
O307 U286 2.449 . S
O307 C303 1.282 . S
H308 C281 0.931 . S
H309 C283 0.929 . S
H310 C284 0.930 . S
H311 C285 0.931 . S
H312 C292 0.932 . S
H313 C293 0.930 . S
H314 C294 0.929 . S
H315 C296 0.930 . S
H316 C298 0.932 . S
H317 C299 0.929 . S
H318 C300 0.928 . S
H319 C302 0.932 . S
C320 C321 1.264 . S
C320 C325 1.479 . S
C320 C330 1.465 . S
C321 C320 1.264 . S
C321 C323 1.339 . S
C321 H348 0.931 . S
C322 C323 1.395 . S
C322 C324 1.320 . S
C323 C321 1.339 . S
C323 C322 1.395 . S
C323 H349 0.929 . S
C324 C322 1.320 . S
C324 C325 1.405 . S
C324 H350 0.930 . S
C325 C320 1.479 . S
C325 C324 1.405 . S
C325 H351 0.931 . S
U326 O327 2.454 . S
U326 O328 2.458 . S
U326 C329 2.984 . S
U326 C330 2.847 . S
U326 C343 2.882 . S
U326 O344 2.441 . S
U326 O345 2.420 . S
U326 O346 2.455 . S
U326 O347 2.449 . S
O327 U326 2.454 . S
O327 C329 1.353 . S
O328 U326 2.458 . S
O328 C329 1.286 . S
C329 U326 2.984 . S
C329 O327 1.353 . S
C329 O328 1.286 . S
C329 C331 1.363 . S
C330 C320 1.465 . S
C330 U326 2.847 . S
C330 O344 1.249 . S
C330 O345 1.202 . S
C331 C329 1.363 . S
C331 C333 1.408 . S
C331 C336 1.342 . S
C332 C333 1.310 . S
C332 C335 1.461 . S
C332 H352 0.932 . S
C333 C331 1.408 . S
C333 C332 1.310 . S
C333 H353 0.930 . S
C334 C335 1.474 . S
C334 C336 1.285 . S
C334 H354 0.929 . S
C335 C332 1.461 . S
C335 C334 1.474 . S
C336 C331 1.342 . S
C336 C334 1.285 . S
C336 H355 0.930 . S
C337 C340 1.424 . S
C337 C342 1.245 . S
C337 C343 1.428 . S
C338 C341 1.260 . S
C338 C342 1.477 . S
C338 H356 0.932 . S
C339 C340 1.384 . S
C339 C341 1.479 . S
C339 H357 0.929 . S
C340 C337 1.424 . S
C340 C339 1.384 . S
C340 H358 0.928 . S
C341 C338 1.260 . S
C341 C339 1.479 . S
C342 C337 1.245 . S
C342 C338 1.477 . S
C342 H359 0.932 . S
C343 U326 2.882 . S
C343 C337 1.428 . S
C343 O346 1.301 . S
C343 O347 1.282 . S
O344 U326 2.441 . S
O344 C330 1.249 . S
O345 U326 2.420 . S
O345 C330 1.202 . S
O346 U326 2.455 . S
O346 C343 1.301 . S
O347 U326 2.449 . S
O347 C343 1.282 . S
H348 C321 0.931 . S
H349 C323 0.929 . S
H350 C324 0.930 . S
H351 C325 0.931 . S
H352 C332 0.932 . S
H353 C333 0.930 . S
H354 C334 0.929 . S
H355 C336 0.930 . S
H356 C338 0.932 . S
H357 C339 0.929 . S
H358 C340 0.928 . S
H359 C342 0.932 . S
C360 C361 1.264 . S
C360 C365 1.479 . S
C360 C370 1.465 . S
C361 C360 1.264 . S
C361 C363 1.339 . S
C361 H388 0.931 . S
C362 C363 1.395 . S
C362 C364 1.320 . S
C363 C361 1.339 . S
C363 C362 1.395 . S
C363 H389 0.929 . S
C364 C362 1.320 . S
C364 C365 1.405 . S
C364 H390 0.930 . S
C365 C360 1.479 . S
C365 C364 1.405 . S
C365 H391 0.931 . S
U366 O367 2.454 . S
U366 O368 2.458 . S
U366 C369 2.984 . S
U366 C370 2.847 . S
U366 C383 2.882 . S
U366 O384 2.441 . S
U366 O385 2.420 . S
U366 O386 2.455 . S
U366 O387 2.449 . S
O367 U366 2.454 . S
O367 C369 1.353 . S
O368 U366 2.458 . S
O368 C369 1.286 . S
C369 U366 2.984 . S
C369 O367 1.353 . S
C369 O368 1.286 . S
C369 C371 1.336 1_565 S
C370 C360 1.465 . S
C370 U366 2.847 . S
C370 O384 1.249 . S
C370 O385 1.202 . S
C371 C369 1.336 1_545 S
C371 C373 1.403 1_545 S
C371 C376 1.372 . S
C372 C373 1.310 1_545 S
C372 C375 1.461 . S
C372 H392 0.932 . S
C373 C371 1.403 1_565 S
C373 C372 1.310 1_565 S
C373 H393 0.930 . S
C374 C375 1.474 . S
C374 C376 1.285 . S
C374 H394 0.929 . S
C375 C372 1.461 . S
C375 C374 1.474 . S
C376 C371 1.372 . S
C376 C374 1.285 . S
C376 H395 0.930 . S
C377 C380 1.424 . S
C377 C382 1.245 . S
C377 C383 1.428 . S
C378 C381 1.260 . S
C378 C382 1.477 . S
C378 H396 0.932 . S
C379 C380 1.384 . S
C379 C381 1.479 . S
C379 H397 0.929 . S
C380 C377 1.424 . S
C380 C379 1.384 . S
C380 H398 0.928 . S
C381 C378 1.260 . S
C381 C379 1.479 . S
C382 C377 1.245 . S
C382 C378 1.477 . S
C382 H399 0.932 . S
C383 U366 2.882 . S
C383 C377 1.428 . S
C383 O386 1.301 . S
C383 O387 1.282 . S
O384 U366 2.441 . S
O384 C370 1.249 . S
O385 U366 2.420 . S
O385 C370 1.202 . S
O386 U366 2.455 . S
O386 C383 1.301 . S
O387 U366 2.449 . S
O387 C383 1.282 . S
H388 C361 0.931 . S
H389 C363 0.929 . S
H390 C364 0.930 . S
H391 C365 0.931 . S
H392 C372 0.932 . S
H393 C373 0.930 . S
H394 C374 0.929 . S
H395 C376 0.930 . S
H396 C378 0.932 . S
H397 C379 0.929 . S
H398 C380 0.928 . S
H399 C382 0.932 . S
C400 C401 1.264 . S
C400 C405 1.479 . S
C400 C410 1.465 . S
C401 C400 1.264 . S
C401 C403 1.339 . S
C401 H428 0.931 . S
C402 C403 1.395 . S
C402 C404 1.320 . S
C403 C401 1.339 . S
C403 C402 1.395 . S
C403 H429 0.929 . S
C404 C402 1.320 . S
C404 C405 1.405 . S
C404 H430 0.930 . S
C405 C400 1.479 . S
C405 C404 1.405 . S
C405 H431 0.931 . S
U406 O407 2.454 . S
U406 O408 2.458 . S
U406 C409 2.984 . S
U406 C410 2.847 . S
U406 C423 2.882 . S
U406 O424 2.441 . S
U406 O425 2.420 . S
U406 O426 2.455 . S
U406 O427 2.449 . S
O407 U406 2.454 . S
O407 C409 1.353 . S
O408 U406 2.458 . S
O408 C409 1.286 . S
C409 U406 2.984 . S
C409 O407 1.353 . S
C409 O408 1.286 . S
C409 C411 1.363 . S
C410 C400 1.465 . S
C410 U406 2.847 . S
C410 O424 1.249 . S
C410 O425 1.202 . S
C411 C409 1.363 . S
C411 C413 1.408 . S
C411 C416 1.342 . S
C412 C413 1.310 . S
C412 C415 1.461 . S
C412 H432 0.932 . S
C413 C411 1.408 . S
C413 C412 1.310 . S
C413 H433 0.930 . S
C414 C415 1.474 . S
C414 C416 1.285 . S
C414 H434 0.929 . S
C415 C412 1.461 . S
C415 C414 1.474 . S
C416 C411 1.342 . S
C416 C414 1.285 . S
C416 H435 0.930 . S
C417 C420 1.424 . S
C417 C422 1.245 . S
C417 C423 1.428 . S
C418 C421 1.260 . S
C418 C422 1.477 . S
C418 H436 0.932 . S
C419 C420 1.384 . S
C419 C421 1.479 . S
C419 H437 0.929 . S
C420 C417 1.424 . S
C420 C419 1.384 . S
C420 H438 0.928 . S
C421 C418 1.260 . S
C421 C419 1.479 . S
C422 C417 1.245 . S
C422 C418 1.477 . S
C422 H439 0.932 . S
C423 U406 2.882 . S
C423 C417 1.428 . S
C423 O426 1.301 . S
C423 O427 1.282 . S
O424 U406 2.441 . S
O424 C410 1.249 . S
O425 U406 2.420 . S
O425 C410 1.202 . S
O426 U406 2.455 . S
O426 C423 1.301 . S
O427 U406 2.449 . S
O427 C423 1.282 . S
H428 C401 0.931 . S
H429 C403 0.929 . S
H430 C404 0.930 . S
H431 C405 0.931 . S
H432 C412 0.932 . S
H433 C413 0.930 . S
H434 C414 0.929 . S
H435 C416 0.930 . S
H436 C418 0.932 . S
H437 C419 0.929 . S
H438 C420 0.928 . S
H439 C422 0.932 . S
C440 C441 1.264 . S
C440 C445 1.479 . S
C440 C450 1.465 . S
C441 C440 1.264 . S
C441 C443 1.339 . S
C441 H468 0.931 . S
C442 C443 1.395 . S
C442 C444 1.320 . S
C443 C441 1.339 . S
C443 C442 1.395 . S
C443 H469 0.929 . S
C444 C442 1.320 . S
C444 C445 1.405 . S
C444 H470 0.930 . S
C445 C440 1.479 . S
C445 C444 1.405 . S
C445 H471 0.931 . S
U446 O447 2.454 . S
U446 O448 2.458 . S
U446 C449 2.984 . S
U446 C450 2.847 . S
U446 C463 2.882 . S
U446 O464 2.441 . S
U446 O465 2.420 . S
U446 O466 2.455 . S
U446 O467 2.449 . S
O447 U446 2.454 . S
O447 C449 1.353 . S
O448 U446 2.458 . S
O448 C449 1.286 . S
C449 U446 2.984 . S
C449 O447 1.353 . S
C449 O448 1.286 . S
C449 C451 1.363 . S
C450 C440 1.465 . S
C450 U446 2.847 . S
C450 O464 1.249 . S
C450 O465 1.202 . S
C451 C449 1.363 . S
C451 C453 1.408 . S
C451 C456 1.342 . S
C452 C453 1.310 . S
C452 C455 1.461 . S
C452 H472 0.932 . S
C453 C451 1.408 . S
C453 C452 1.310 . S
C453 H473 0.930 . S
C454 C455 1.474 . S
C454 C456 1.285 . S
C454 H474 0.929 . S
C455 C452 1.461 . S
C455 C454 1.474 . S
C456 C451 1.342 . S
C456 C454 1.285 . S
C456 H475 0.930 . S
C457 C460 1.424 . S
C457 C462 1.245 . S
C457 C463 1.428 . S
C458 C461 1.260 . S
C458 C462 1.477 . S
C458 H476 0.932 . S
C459 C460 1.384 . S
C459 C461 1.479 . S
C459 H477 0.929 . S
C460 C457 1.424 . S
C460 C459 1.384 . S
C460 H478 0.928 . S
C461 C458 1.260 . S
C461 C459 1.479 . S
C462 C457 1.245 . S
C462 C458 1.477 . S
C462 H479 0.932 . S
C463 U446 2.882 . S
C463 C457 1.428 . S
C463 O466 1.301 . S
C463 O467 1.282 . S
O464 U446 2.441 . S
O464 C450 1.249 . S
O465 U446 2.420 . S
O465 C450 1.202 . S
O466 U446 2.455 . S
O466 C463 1.301 . S
O467 U446 2.449 . S
O467 C463 1.282 . S
H468 C441 0.931 . S
H469 C443 0.929 . S
H470 C444 0.930 . S
H471 C445 0.931 . S
H472 C452 0.932 . S
H473 C453 0.930 . S
H474 C454 0.929 . S
H475 C456 0.930 . S
H476 C458 0.932 . S
H477 C459 0.929 . S
H478 C460 0.928 . S
H479 C462 0.932 . S
C480 C481 1.264 . S
C480 C485 1.479 . S
C480 C490 1.465 . S
C481 C480 1.264 . S
C481 C483 1.339 . S
C481 H508 0.931 . S
C482 C483 1.395 . S
C482 C484 1.320 . S
C483 C481 1.339 . S
C483 C482 1.395 . S
C483 H509 0.929 . S
C484 C482 1.320 . S
C484 C485 1.405 . S
C484 H510 0.930 . S
C485 C480 1.479 . S
C485 C484 1.405 . S
C485 H511 0.931 . S
U486 O487 2.454 . S
U486 O488 2.458 . S
U486 C489 2.984 . S
U486 C490 2.847 . S
U486 C503 2.882 . S
U486 O504 2.441 . S
U486 O505 2.420 . S
U486 O506 2.455 . S
U486 O507 2.449 . S
O487 U486 2.454 . S
O487 C489 1.353 . S
O488 U486 2.458 . S
O488 C489 1.286 . S
C489 U486 2.984 . S
C489 O487 1.353 . S
C489 O488 1.286 . S
C489 C491 1.363 . S
C490 C480 1.465 . S
C490 U486 2.847 . S
C490 O504 1.249 . S
C490 O505 1.202 . S
C491 C489 1.363 . S
C491 C493 1.408 . S
C491 C496 1.342 . S
C492 C493 1.310 . S
C492 C495 1.461 . S
C492 H512 0.932 . S
C493 C491 1.408 . S
C493 C492 1.310 . S
C493 H513 0.930 . S
C494 C495 1.474 . S
C494 C496 1.285 . S
C494 H514 0.929 . S
C495 C492 1.461 . S
C495 C494 1.474 . S
C496 C491 1.342 . S
C496 C494 1.285 . S
C496 H515 0.930 . S
C497 C500 1.424 . S
C497 C502 1.245 . S
C497 C503 1.428 . S
C498 C501 1.260 . S
C498 C502 1.477 . S
C498 H516 0.932 . S
C499 C500 1.384 . S
C499 C501 1.479 . S
C499 H517 0.929 . S
C500 C497 1.424 . S
C500 C499 1.384 . S
C500 H518 0.928 . S
C501 C498 1.260 . S
C501 C499 1.479 . S
C502 C497 1.245 . S
C502 C498 1.477 . S
C502 H519 0.932 . S
C503 U486 2.882 . S
C503 C497 1.428 . S
C503 O506 1.301 . S
C503 O507 1.282 . S
O504 U486 2.441 . S
O504 C490 1.249 . S
O505 U486 2.420 . S
O505 C490 1.202 . S
O506 U486 2.455 . S
O506 C503 1.301 . S
O507 U486 2.449 . S
O507 C503 1.282 . S
H508 C481 0.931 . S
H509 C483 0.929 . S
H510 C484 0.930 . S
H511 C485 0.931 . S
H512 C492 0.932 . S
H513 C493 0.930 . S
H514 C494 0.929 . S
H515 C496 0.930 . S
H516 C498 0.932 . S
H517 C499 0.929 . S
H518 C500 0.928 . S
H519 C502 0.932 . S
C520 C521 1.264 . S
C520 C525 1.479 . S
C520 C530 1.465 . S
C521 C520 1.264 . S
C521 C523 1.339 . S
C521 H548 0.931 . S
C522 C523 1.395 . S
C522 C524 1.320 . S
C523 C521 1.339 . S
C523 C522 1.395 . S
C523 H549 0.929 . S
C524 C522 1.320 . S
C524 C525 1.405 . S
C524 H550 0.930 . S
C525 C520 1.479 . S
C525 C524 1.405 . S
C525 H551 0.931 . S
U526 O527 2.454 . S
U526 O528 2.458 . S
U526 C529 2.984 . S
U526 C530 2.847 . S
U526 C543 2.882 . S
U526 O544 2.441 . S
U526 O545 2.420 . S
U526 O546 2.455 . S
U526 O547 2.449 . S
O527 U526 2.454 . S
O527 C529 1.353 . S
O528 U526 2.458 . S
O528 C529 1.286 . S
C529 U526 2.984 . S
C529 O527 1.353 . S
C529 O528 1.286 . S
C529 C531 1.363 . S
C530 C520 1.465 . S
C530 U526 2.847 . S
C530 O544 1.249 . S
C530 O545 1.202 . S
C531 C529 1.363 . S
C531 C533 1.408 . S
C531 C536 1.342 1_556 S
C532 C533 1.343 . S
C532 C535 1.423 1_556 S
C532 H552 0.940 . S
C533 C531 1.408 . S
C533 C532 1.343 . S
C533 H553 0.930 . S
C534 C535 1.474 . S
C534 C536 1.285 . S
C534 H554 0.929 . S
C535 C532 1.423 1_554 S
C535 C534 1.474 . S
C536 C531 1.342 1_554 S
C536 C534 1.285 . S
C536 H555 0.930 . S
C537 C540 1.424 . S
C537 C542 1.245 . S
C537 C543 1.428 . S
C538 C541 1.260 . S
C538 C542 1.477 . S
C538 H556 0.932 . S
C539 C540 1.384 . S
C539 C541 1.479 . S
C539 H557 0.929 . S
C540 C537 1.424 . S
C540 C539 1.384 . S
C540 H558 0.928 . S
C541 C538 1.260 . S
C541 C539 1.479 . S
C542 C537 1.245 . S
C542 C538 1.477 . S
C542 H559 0.932 . S
C543 U526 2.882 . S
C543 C537 1.428 . S
C543 O546 1.301 . S
C543 O547 1.282 . S
O544 U526 2.441 . S
O544 C530 1.249 . S
O545 U526 2.420 . S
O545 C530 1.202 . S
O546 U526 2.455 . S
O546 C543 1.301 . S
O547 U526 2.449 . S
O547 C543 1.282 . S
H548 C521 0.931 . S
H549 C523 0.929 . S
H550 C524 0.930 . S
H551 C525 0.931 . S
H552 C532 0.940 . S
H553 C533 0.930 . S
H554 C534 0.929 . S
H555 C536 0.930 . S
H556 C538 0.932 . S
H557 C539 0.929 . S
H558 C540 0.928 . S
H559 C542 0.932 . S
C560 C561 1.264 . S
C560 C565 1.479 . S
C560 C570 1.465 . S
C561 C560 1.264 . S
C561 C563 1.339 . S
C561 H588 0.931 . S
C562 C563 1.395 . S
C562 C564 1.320 . S
C563 C561 1.339 . S
C563 C562 1.395 . S
C563 H589 0.929 . S
C564 C562 1.320 . S
C564 C565 1.405 . S
C564 H590 0.930 . S
C565 C560 1.479 . S
C565 C564 1.405 . S
C565 H591 0.931 . S
U566 O567 2.454 . S
U566 O568 2.458 . S
U566 C569 2.984 . S
U566 C570 2.847 . S
U566 C583 2.882 . S
U566 O584 2.441 . S
U566 O585 2.420 . S
U566 O586 2.455 . S
U566 O587 2.449 . S
O567 U566 2.454 . S
O567 C569 1.353 . S
O568 U566 2.458 . S
O568 C569 1.286 . S
C569 U566 2.984 . S
C569 O567 1.353 . S
C569 O568 1.286 . S
C569 C571 1.363 . S
C570 C560 1.465 . S
C570 U566 2.847 . S
C570 O584 1.249 . S
C570 O585 1.202 . S
C571 C569 1.363 . S
C571 C573 1.408 . S
C571 C576 1.342 . S
C572 C573 1.310 . S
C572 C575 1.461 . S
C572 H592 0.932 . S
C573 C571 1.408 . S
C573 C572 1.310 . S
C573 H593 0.930 . S
C574 C575 1.474 . S
C574 C576 1.285 . S
C574 H594 0.929 . S
C575 C572 1.461 . S
C575 C574 1.474 . S
C576 C571 1.342 . S
C576 C574 1.285 . S
C576 H595 0.930 . S
C577 C580 1.424 . S
C577 C582 1.245 . S
C577 C583 1.428 . S
C578 C581 1.260 . S
C578 C582 1.477 . S
C578 H596 0.932 . S
C579 C580 1.384 . S
C579 C581 1.479 . S
C579 H597 0.929 . S
C580 C577 1.424 . S
C580 C579 1.384 . S
C580 H598 0.928 . S
C581 C578 1.260 . S
C581 C579 1.479 . S
C582 C577 1.245 . S
C582 C578 1.477 . S
C582 H599 0.932 . S
C583 U566 2.882 . S
C583 C577 1.428 . S
C583 O586 1.301 . S
C583 O587 1.282 . S
O584 U566 2.441 . S
O584 C570 1.249 . S
O585 U566 2.420 . S
O585 C570 1.202 . S
O586 U566 2.455 . S
O586 C583 1.301 . S
O587 U566 2.449 . S
O587 C583 1.282 . S
H588 C561 0.931 . S
H589 C563 0.929 . S
H590 C564 0.930 . S
H591 C565 0.931 . S
H592 C572 0.932 . S
H593 C573 0.930 . S
H594 C574 0.929 . S
H595 C576 0.930 . S
H596 C578 0.932 . S
H597 C579 0.929 . S
H598 C580 0.928 . S
H599 C582 0.932 . S
C600 C601 1.265 1_554 S
C600 C605 1.479 . S
C600 C610 1.465 1_554 S
C601 C600 1.265 1_556 S
C601 C603 1.341 1_556 S
C601 H628 0.927 . S
C602 C603 1.395 . S
C602 C604 1.320 . S
C603 C601 1.341 1_554 S
C603 C602 1.395 . S
C603 H629 0.929 . S
C604 C602 1.320 . S
C604 C605 1.405 . S
C604 H630 0.930 . S
C605 C600 1.479 . S
C605 C604 1.405 . S
C605 H631 0.931 . S
U606 O607 2.454 . S
U606 O608 2.458 . S
U606 C609 2.984 . S
U606 C610 2.847 . S
U606 C623 2.882 . S
U606 O624 2.441 . S
U606 O625 2.420 . S
U606 O626 2.455 . S
U606 O627 2.449 . S
O607 U606 2.454 . S
O607 C609 1.353 . S
O608 U606 2.458 . S
O608 C609 1.286 . S
C609 U606 2.984 . S
C609 O607 1.353 . S
C609 O608 1.286 . S
C609 C611 1.363 . S
C610 C600 1.465 1_556 S
C610 U606 2.847 . S
C610 O624 1.249 . S
C610 O625 1.202 . S
C611 C609 1.363 . S
C611 C613 1.408 . S
C611 C616 1.342 1_545 S
C612 C613 1.310 . S
C612 C615 1.461 1_545 S
C612 H632 0.922 1_556 S
C613 C611 1.408 . S
C613 C612 1.310 . S
C613 H633 0.930 . S
C614 C615 1.474 . S
C614 C616 1.285 . S
C614 H634 0.929 . S
C615 C612 1.461 1_565 S
C615 C614 1.474 . S
C616 C611 1.342 1_565 S
C616 C614 1.285 . S
C616 H635 0.930 . S
C617 C620 1.424 . S
C617 C622 1.245 . S
C617 C623 1.428 . S
C618 C621 1.260 . S
C618 C622 1.477 . S
C618 H636 0.932 . S
C619 C620 1.384 . S
C619 C621 1.479 . S
C619 H637 0.929 . S
C620 C617 1.424 . S
C620 C619 1.384 . S
C620 H638 0.928 . S
C621 C618 1.260 . S
C621 C619 1.479 . S
C622 C617 1.245 . S
C622 C618 1.477 . S
C622 H639 0.932 . S
C623 U606 2.882 . S
C623 C617 1.428 . S
C623 O626 1.301 . S
C623 O627 1.282 . S
O624 U606 2.441 . S
O624 C610 1.249 . S
O625 U606 2.420 . S
O625 C610 1.202 . S
O626 U606 2.455 . S
O626 C623 1.301 . S
O627 U606 2.449 . S
O627 C623 1.282 . S
H628 C601 0.927 . S
H629 C603 0.929 . S
H630 C604 0.930 . S
H631 C605 0.931 . S
H632 C612 0.922 1_554 S
H633 C613 0.930 . S
H634 C614 0.929 . S
H635 C616 0.930 . S
H636 C618 0.932 . S
H637 C619 0.929 . S
H638 C620 0.928 . S
H639 C622 0.932 . S
C640 O641 1.160 . S
C640 O647 1.185 . S
O641 C640 1.160 . S
O642 Zn643 1.899 . S
O642 C650 1.284 1_554 S
Zn643 O642 1.899 . S
Zn643 O644 2.032 . S
Zn643 O647 2.086 . S
Zn643 O652 1.977 . S
O644 Zn643 2.032 . S
O644 C648 1.278 . S
C645 O646 1.203 . S
C645 O652 1.267 . S
O646 C645 1.203 . S
O647 C640 1.185 . S
O647 Zn643 2.086 . S
C648 O644 1.278 . S
C648 O649 1.211 . S
O649 C648 1.211 . S
C650 O642 1.284 1_556 S
C650 O651 1.273 . S
O651 C650 1.273 . S
O652 Zn643 1.977 . S
O652 C645 1.267 . S
C653 O654 1.160 . S
C653 O660 1.185 . S
O654 C653 1.160 . S
O655 Zn656 1.899 . S
O655 C663 1.284 . S
Zn656 O655 1.899 . S
Zn656 O657 2.032 . S
Zn656 O660 2.086 . S
Zn656 O665 1.977 . S
O657 Zn656 2.032 . S
O657 C661 1.278 . S
C658 O659 1.203 . S
C658 O665 1.267 . S
O659 C658 1.203 . S
O660 C653 1.185 . S
O660 Zn656 2.086 . S
C661 O657 1.278 . S
C661 O662 1.211 . S
O662 C661 1.211 . S
C663 O655 1.284 . S
C663 O664 1.273 . S
O664 C663 1.273 . S
O665 Zn656 1.977 . S
O665 C658 1.267 . S
C666 O667 1.160 1_554 S
C666 O673 1.185 . S
O667 C666 1.160 1_556 S
O668 Zn669 1.899 1_556 S
O668 C676 1.284 . S
Zn669 O668 1.899 1_554 S
Zn669 O670 2.032 1_554 S
Zn669 O673 2.086 . S
Zn669 O678 1.977 . S
O670 Zn669 2.032 1_556 S
O670 C674 1.278 . S
C671 O672 1.203 . S
C671 O678 1.267 . S
O672 C671 1.203 . S
O673 C666 1.185 . S
O673 Zn669 2.086 . S
C674 O670 1.278 . S
C674 O675 1.211 1_556 S
O675 C674 1.211 1_554 S
C676 O668 1.284 . S
C676 O677 1.273 . S
O677 C676 1.273 . S
O678 Zn669 1.977 . S
O678 C671 1.267 . S
C679 O680 1.160 . S
C679 O686 1.185 . S
O680 C679 1.160 . S
O681 Zn682 1.899 . S
O681 C689 1.284 . S
Zn682 O681 1.899 . S
Zn682 O683 2.032 . S
Zn682 O686 2.086 . S
Zn682 O691 1.977 . S
O683 Zn682 2.032 . S
O683 C687 1.278 1_545 S
C684 O685 1.203 . S
C684 O691 1.267 . S
O685 C684 1.203 . S
O686 C679 1.185 . S
O686 Zn682 2.086 . S
C687 O683 1.278 1_565 S
C687 O688 1.211 . S
O688 C687 1.211 . S
C689 O681 1.284 . S
C689 O690 1.273 1_545 S
O690 C689 1.273 1_565 S
O691 Zn682 1.977 . S
O691 C684 1.267 . S
C692 O693 1.160 . S
C692 O699 1.185 . S
O693 C692 1.160 . S
O694 Zn695 1.899 . S
O694 C702 1.284 . S
Zn695 O694 1.899 . S
Zn695 O696 2.032 . S
Zn695 O699 2.086 . S
Zn695 O704 1.977 . S
O696 Zn695 2.032 . S
O696 C700 1.278 . S
C697 O698 1.203 . S
C697 O704 1.267 . S
O698 C697 1.203 . S
O699 C692 1.185 . S
O699 Zn695 2.086 . S
C700 O696 1.278 . S
C700 O701 1.211 . S
O701 C700 1.211 . S
C702 O694 1.284 . S
C702 O703 1.273 . S
O703 C702 1.273 . S
O704 Zn695 1.977 . S
O704 C697 1.267 . S
C705 O706 1.160 . S
C705 O712 1.185 . S
O706 C705 1.160 . S
O707 Zn708 1.899 . S
O707 C715 1.284 . S
Zn708 O707 1.899 . S
Zn708 O709 2.032 . S
Zn708 O712 2.086 . S
Zn708 O717 1.977 . S
O709 Zn708 2.032 . S
O709 C713 1.278 . S
C710 O711 1.203 . S
C710 O717 1.267 . S
O711 C710 1.203 . S
O712 C705 1.185 . S
O712 Zn708 2.086 . S
C713 O709 1.278 . S
C713 O714 1.211 . S
O714 C713 1.211 . S
C715 O707 1.284 . S
C715 O716 1.273 . S
O716 C715 1.273 . S
O717 Zn708 1.977 . S
O717 C710 1.267 . S
C718 O719 1.160 . S
C718 O725 1.185 . S
O719 C718 1.160 . S
O720 Zn721 1.899 . S
O720 C728 1.284 . S
Zn721 O720 1.899 . S
Zn721 O722 2.032 . S
Zn721 O725 2.086 . S
Zn721 O730 1.977 . S
O722 Zn721 2.032 . S
O722 C726 1.278 . S
C723 O724 1.203 . S
C723 O730 1.267 . S
O724 C723 1.203 . S
O725 C718 1.185 . S
O725 Zn721 2.086 . S
C726 O722 1.278 . S
C726 O727 1.211 . S
O727 C726 1.211 . S
C728 O720 1.284 . S
C728 O729 1.273 . S
O729 C728 1.273 . S
O730 Zn721 1.977 . S
O730 C723 1.267 . S
C731 O732 1.160 . S
C731 O738 1.185 . S
O732 C731 1.160 . S
O733 Zn734 1.899 . S
O733 C741 1.284 1_565 S
Zn734 O733 1.899 . S
Zn734 O735 2.032 1_565 S
Zn734 O738 2.086 . S
Zn734 O743 1.977 . S
O735 Zn734 2.032 1_545 S
O735 C739 1.278 . S
C736 O737 1.158 1_565 S
C736 O743 1.305 . S
O737 C736 1.158 1_545 S
O738 C731 1.185 . S
O738 Zn734 2.086 . S
C739 O735 1.278 . S
C739 O740 1.211 . S
O740 C739 1.211 . S
C741 O733 1.284 1_545 S
C741 O742 1.273 . S
O742 C741 1.273 . S
O743 Zn734 1.977 . S
O743 C736 1.305 . S
C744 O745 1.160 1_455 S
C744 O751 1.185 . S
O745 C744 1.160 1_655 S
O746 Zn747 1.899 1_655 S
O746 C754 1.284 . S
Zn747 O746 1.899 1_455 S
Zn747 O748 2.032 . S
Zn747 O751 2.086 . S
Zn747 O756 1.977 . S
O748 Zn747 2.032 . S
O748 C752 1.278 . S
C749 O750 1.203 . S
C749 O756 1.267 . S
O750 C749 1.203 . S
O751 C744 1.185 . S
O751 Zn747 2.086 . S
C752 O748 1.278 . S
C752 O753 1.211 . S
O753 C752 1.211 . S
C754 O746 1.284 . S
C754 O755 1.273 . S
O755 C754 1.273 . S
O756 Zn747 1.977 . S
O756 C749 1.267 . S
C757 O758 1.160 . S
C757 O764 1.185 . S
O758 C757 1.160 . S
O759 Zn760 1.899 . S
O759 C767 1.284 . S
Zn760 O759 1.899 . S
Zn760 O761 2.032 . S
Zn760 O764 2.086 . S
Zn760 O769 1.977 . S
O761 Zn760 2.032 . S
O761 C765 1.278 . S
C762 O763 1.203 . S
C762 O769 1.267 . S
O763 C762 1.203 . S
O764 C757 1.185 . S
O764 Zn760 2.086 . S
C765 O761 1.278 . S
C765 O766 1.211 . S
O766 C765 1.211 . S
C767 O759 1.284 . S
C767 O768 1.273 . S
O768 C767 1.273 . S
O769 Zn760 1.977 . S
O769 C762 1.267 . S
C770 O771 1.160 1_455 S
C770 O777 1.185 . S
O771 C770 1.160 1_655 S
O772 Zn773 1.899 1_655 S
O772 C780 1.284 . S
Zn773 O772 1.899 1_455 S
Zn773 O774 2.031 . S
Zn773 O777 2.086 . S
Zn773 O782 1.977 . S
O774 Zn773 2.031 . S
O774 C778 1.277 . S
C775 O776 1.203 . S
C775 O782 1.267 . S
O776 C775 1.203 . S
O777 C770 1.185 . S
O777 Zn773 2.086 . S
C778 O774 1.277 . S
C778 O779 1.211 . S
O779 C778 1.211 . S
C780 O772 1.284 . S
C780 O781 1.273 . S
O781 C780 1.273 . S
O782 Zn773 1.977 . S
O782 C775 1.267 . S
C783 O784 1.160 . S
C783 O790 1.185 . S
O784 C783 1.160 . S
O785 Zn786 1.899 . S
O785 C793 1.284 . S
Zn786 O785 1.899 . S
Zn786 O787 2.032 . S
Zn786 O790 2.086 . S
Zn786 O795 1.977 . S
O787 Zn786 2.032 . S
O787 C791 1.278 . S
C788 O789 1.203 . S
C788 O795 1.267 . S
O789 C788 1.203 . S
O790 C783 1.185 . S
O790 Zn786 2.086 . S
C791 O787 1.278 . S
C791 O792 1.211 . S
O792 C791 1.211 . S
C793 O785 1.284 . S
C793 O794 1.273 . S
O794 C793 1.273 . S
O795 Zn786 1.977 . S
O795 C788 1.267 . S
H796 C804 0.929 . S
H797 C806 0.930 . S
H798 C808 0.930 . S
H799 C811 0.929 . S
H800 C814 0.930 . S
H801 C816 0.960 . S
H802 C816 0.960 . S
H803 C816 0.960 . S
C804 H796 0.929 . S
C804 C805 1.377 . S
C804 C806 1.384 . S
C805 C804 1.377 . S
C805 C811 1.390 . S
C806 H797 0.930 . S
C806 C804 1.384 . S
C806 C807 1.372 . S
C807 C806 1.372 . S
C807 C808 1.400 . S
C807 C812 1.490 . S
C808 H798 0.930 . S
C808 C807 1.400 . S
C808 C811 1.386 . S
H809 C825 0.930 . S
H810 C826 0.931 . S
C811 H799 0.929 . S
C811 C805 1.390 . S
C811 C808 1.386 . S
C812 C807 1.490 . S
C812 C814 1.395 . S
C812 C815 1.403 . S
H813 C819 0.930 . S
C814 H800 0.930 . S
C814 C812 1.395 . S
C814 C817 1.403 . S
C815 C812 1.403 . S
C815 C816 1.524 . S
C815 C819 1.400 . S
C816 H801 0.960 . S
C816 H802 0.960 . S
C816 H803 0.960 . S
C816 C815 1.524 . S
C817 C814 1.403 . S
C817 C818 1.392 . S
C817 C821 1.495 . S
C818 C817 1.392 . S
C818 C819 1.385 . S
C818 C820 1.478 . S
C819 H813 0.930 . S
C819 C815 1.400 . S
C819 C818 1.385 . S
C820 C818 1.478 . S
C820 C822 1.381 . S
C820 C826 1.383 . S
C821 C817 1.495 . S
C821 H827 0.959 . S
C821 H828 0.961 . S
C821 H829 0.960 . S
C822 C820 1.381 . S
C822 C823 1.394 . S
C822 H830 0.930 . S
C823 C822 1.394 . S
C823 C824 1.383 . S
C823 H831 0.929 . S
C824 C823 1.383 . S
C824 C825 1.377 . S
C825 H809 0.930 . S
C825 C824 1.377 . S
C825 C826 1.379 . S
C826 H810 0.931 . S
C826 C820 1.383 . S
C826 C825 1.379 . S
H827 C821 0.959 . S
H828 C821 0.961 . S
H829 C821 0.960 . S
H830 C822 0.930 . S
H831 C823 0.929 . S
H832 C840 0.929 . S
H833 C842 0.930 . S
H834 C844 0.930 . S
H835 C847 0.929 . S
H836 C850 0.930 . S
H837 C852 0.960 . S
H838 C852 0.960 . S
H839 C852 0.960 . S
C840 H832 0.929 . S
C840 C841 1.377 . S
C840 C842 1.384 . S
C841 C840 1.377 . S
C841 C847 1.390 . S
C842 H833 0.930 . S
C842 C840 1.384 . S
C842 C843 1.372 . S
C843 C842 1.372 . S
C843 C844 1.400 . S
C843 C848 1.490 . S
C844 H834 0.930 . S
C844 C843 1.400 . S
C844 C847 1.386 . S
H845 C861 0.930 . S
H846 C862 0.931 . S
C847 H835 0.929 . S
C847 C841 1.390 . S
C847 C844 1.386 . S
C848 C843 1.490 . S
C848 C850 1.395 . S
C848 C851 1.403 . S
H849 C855 0.930 . S
C850 H836 0.930 . S
C850 C848 1.395 . S
C850 C853 1.403 . S
C851 C848 1.403 . S
C851 C852 1.524 . S
C851 C855 1.400 . S
C852 H837 0.960 . S
C852 H838 0.960 . S
C852 H839 0.960 . S
C852 C851 1.524 . S
C853 C850 1.403 . S
C853 C854 1.392 . S
C853 C857 1.495 . S
C854 C853 1.392 . S
C854 C855 1.385 . S
C854 C856 1.478 . S
C855 H849 0.930 . S
C855 C851 1.400 . S
C855 C854 1.385 . S
C856 C854 1.478 . S
C856 C858 1.381 . S
C856 C862 1.383 . S
C857 C853 1.495 . S
C857 H863 0.959 . S
C857 H864 0.961 . S
C857 H865 0.960 . S
C858 C856 1.381 . S
C858 C859 1.394 . S
C858 H866 0.930 . S
C859 C858 1.394 . S
C859 C860 1.383 . S
C859 H867 0.929 . S
C860 C859 1.383 . S
C860 C861 1.377 . S
C861 H845 0.930 . S
C861 C860 1.377 . S
C861 C862 1.379 . S
C862 H846 0.931 . S
C862 C856 1.383 . S
C862 C861 1.379 . S
H863 C857 0.959 . S
H864 C857 0.961 . S
H865 C857 0.960 . S
H866 C858 0.930 . S
H867 C859 0.929 . S
H868 C876 0.929 . S
H869 C878 0.930 . S
H870 C880 0.930 . S
H871 C883 0.929 . S
H872 C886 0.930 . S
H873 C888 0.960 . S
H874 C888 0.960 . S
H875 C888 0.960 . S
C876 H868 0.929 . S
C876 C877 1.377 . S
C876 C878 1.384 . S
C877 C876 1.377 . S
C877 C883 1.390 . S
C878 H869 0.930 . S
C878 C876 1.384 . S
C878 C879 1.372 . S
C879 C878 1.372 . S
C879 C880 1.400 . S
C879 C884 1.490 . S
C880 H870 0.930 . S
C880 C879 1.400 . S
C880 C883 1.386 . S
H881 C897 0.930 . S
H882 C898 0.931 . S
C883 H871 0.929 . S
C883 C877 1.390 . S
C883 C880 1.386 . S
C884 C879 1.490 . S
C884 C886 1.395 . S
C884 C887 1.403 . S
H885 C891 0.930 . S
C886 H872 0.930 . S
C886 C884 1.395 . S
C886 C889 1.403 . S
C887 C884 1.403 . S
C887 C888 1.524 . S
C887 C891 1.400 . S
C888 H873 0.960 . S
C888 H874 0.960 . S
C888 H875 0.960 . S
C888 C887 1.524 . S
C889 C886 1.403 . S
C889 C890 1.392 . S
C889 C893 1.495 . S
C890 C889 1.392 . S
C890 C891 1.385 . S
C890 C892 1.478 . S
C891 H885 0.930 . S
C891 C887 1.400 . S
C891 C890 1.385 . S
C892 C890 1.478 . S
C892 C894 1.381 . S
C892 C898 1.383 . S
C893 C889 1.495 . S
C893 H899 0.959 . S
C893 H900 0.961 . S
C893 H901 0.960 . S
C894 C892 1.381 . S
C894 C895 1.394 . S
C894 H902 0.930 . S
C895 C894 1.394 . S
C895 C896 1.383 . S
C895 H903 0.929 . S
C896 C895 1.383 . S
C896 C897 1.377 . S
C897 H881 0.930 . S
C897 C896 1.377 . S
C897 C898 1.379 . S
C898 H882 0.931 . S
C898 C892 1.383 . S
C898 C897 1.379 . S
H899 C893 0.959 . S
H900 C893 0.961 . S
H901 C893 0.960 . S
H902 C894 0.930 . S
H903 C895 0.929 . S
H904 C912 0.929 . S
H905 C914 0.930 1_545 S
H906 C916 0.930 . S
H907 C919 0.929 . S
H908 C922 0.930 . S
H909 C924 0.960 . S
H910 C924 0.960 . S
H911 C924 0.960 . S
C912 H904 0.929 . S
C912 C913 1.377 . S
C912 C914 1.384 . S
C913 C912 1.377 . S
C913 C919 1.390 . S
C914 H905 0.930 1_565 S
C914 C912 1.384 . S
C914 C915 1.372 . S
C915 C914 1.372 . S
C915 C916 1.400 . S
C915 C920 1.490 . S
C916 H906 0.930 . S
C916 C915 1.400 . S
C916 C919 1.386 . S
H917 C933 0.930 . S
H918 C934 0.932 1_565 S
C919 H907 0.929 . S
C919 C913 1.390 . S
C919 C916 1.386 . S
C920 C915 1.490 . S
C920 C922 1.395 1_565 S
C920 C923 1.403 . S
H921 C927 0.930 . S
C922 H908 0.930 . S
C922 C920 1.395 1_545 S
C922 C925 1.403 . S
C923 C920 1.403 . S
C923 C924 1.524 . S
C923 C927 1.400 . S
C924 H909 0.960 . S
C924 H910 0.960 . S
C924 H911 0.960 . S
C924 C923 1.524 . S
C925 C922 1.403 . S
C925 C926 1.392 . S
C925 C929 1.495 . S
C926 C925 1.392 . S
C926 C927 1.385 1_545 S
C926 C928 1.478 . S
C927 H921 0.930 . S
C927 C923 1.400 . S
C927 C926 1.385 1_565 S
C928 C926 1.478 . S
C928 C930 1.381 . S
C928 C934 1.383 . S
C929 C925 1.495 . S
C929 H935 0.959 . S
C929 H936 0.961 . S
C929 H937 0.960 . S
C930 C928 1.381 . S
C930 C931 1.394 . S
C930 H938 0.930 . S
C931 C930 1.394 . S
C931 C932 1.383 . S
C931 H939 0.929 . S
C932 C931 1.383 . S
C932 C933 1.377 . S
C933 H917 0.930 . S
C933 C932 1.377 . S
C933 C934 1.379 . S
C934 H918 0.932 1_545 S
C934 C928 1.383 . S
C934 C933 1.379 . S
H935 C929 0.959 . S
H936 C929 0.961 . S
H937 C929 0.960 . S
H938 C930 0.930 . S
H939 C931 0.929 . S
H940 C948 0.929 . S
H941 C950 0.930 . S
H942 C952 0.930 . S
H943 C955 0.929 . S
H944 C958 0.930 . S
H945 C960 0.960 . S
H946 C960 0.960 . S
H947 C960 0.960 . S
C948 H940 0.929 . S
C948 C949 1.377 . S
C948 C950 1.384 . S
C949 C948 1.377 . S
C949 C955 1.390 . S
C950 H941 0.930 . S
C950 C948 1.384 . S
C950 C951 1.372 . S
C951 C950 1.372 . S
C951 C952 1.400 . S
C951 C956 1.490 . S
C952 H942 0.930 . S
C952 C951 1.400 . S
C952 C955 1.386 . S
H953 C969 0.930 . S
H954 C970 0.931 . S
C955 H943 0.929 . S
C955 C949 1.390 . S
C955 C952 1.386 . S
C956 C951 1.490 . S
C956 C958 1.395 . S
C956 C959 1.403 . S
H957 C963 0.930 . S
C958 H944 0.930 . S
C958 C956 1.395 . S
C958 C961 1.403 . S
C959 C956 1.403 . S
C959 C960 1.524 . S
C959 C963 1.400 . S
C960 H945 0.960 . S
C960 H946 0.960 . S
C960 H947 0.960 . S
C960 C959 1.524 . S
C961 C958 1.403 . S
C961 C962 1.392 . S
C961 C965 1.495 . S
C962 C961 1.392 . S
C962 C963 1.385 . S
C962 C964 1.478 . S
C963 H957 0.930 . S
C963 C959 1.400 . S
C963 C962 1.385 . S
C964 C962 1.478 . S
C964 C966 1.381 . S
C964 C970 1.383 . S
C965 C961 1.495 . S
C965 H971 0.959 . S
C965 H972 0.961 . S
C965 H973 0.960 . S
C966 C964 1.381 . S
C966 C967 1.394 . S
C966 H974 0.930 . S
C967 C966 1.394 . S
C967 C968 1.383 . S
C967 H975 0.929 . S
C968 C967 1.383 . S
C968 C969 1.377 . S
C969 H953 0.930 . S
C969 C968 1.377 . S
C969 C970 1.379 . S
C970 H954 0.931 . S
C970 C964 1.383 . S
C970 C969 1.379 . S
H971 C965 0.959 . S
H972 C965 0.961 . S
H973 C965 0.960 . S
H974 C966 0.930 . S
H975 C967 0.929 . S
H976 C984 0.929 . S
H977 C986 0.930 . S
H978 C988 0.930 . S
H979 C991 0.929 . S
H980 C994 0.930 . S
H981 C996 0.960 . S
H982 C996 0.960 . S
H983 C996 0.960 . S
C984 H976 0.929 . S
C984 C985 1.377 . S
C984 C986 1.384 . S
C985 C984 1.377 . S
C985 C991 1.390 . S
C986 H977 0.930 . S
C986 C984 1.384 . S
C986 C987 1.372 . S
C987 C986 1.372 . S
C987 C988 1.400 . S
C987 C992 1.490 . S
C988 H978 0.930 . S
C988 C987 1.400 . S
C988 C991 1.386 . S
H989 C1005 0.930 . S
H990 C1006 0.931 . S
C991 H979 0.929 . S
C991 C985 1.390 . S
C991 C988 1.386 . S
C992 C987 1.490 . S
C992 C994 1.395 . S
C992 C995 1.403 . S
H993 C999 0.930 . S
C994 H980 0.930 . S
C994 C992 1.395 . S
C994 C997 1.403 . S
C995 C992 1.403 . S
C995 C996 1.524 . S
C995 C999 1.400 . S
C996 H981 0.960 . S
C996 H982 0.960 . S
C996 H983 0.960 . S
C996 C995 1.524 . S
C997 C994 1.403 . S
C997 C998 1.392 . S
C997 C1001 1.495 . S
C998 C997 1.392 . S
C998 C999 1.385 . S
C998 C1000 1.478 . S
C999 H993 0.930 . S
C999 C995 1.400 . S
C999 C998 1.385 . S
C1000 C998 1.478 . S
C1000 C1002 1.381 . S
C1000 C1006 1.383 . S
C1001 C997 1.495 . S
C1001 H1007 0.959 . S
C1001 H1008 0.961 . S
C1001 H1009 0.960 . S
C1002 C1000 1.381 . S
C1002 C1003 1.394 . S
C1002 H1010 0.930 . S
C1003 C1002 1.394 . S
C1003 C1004 1.383 . S
C1003 H1011 0.929 . S
C1004 C1003 1.383 . S
C1004 C1005 1.377 . S
C1005 H989 0.930 . S
C1005 C1004 1.377 . S
C1005 C1006 1.379 . S
C1006 H990 0.931 . S
C1006 C1000 1.383 . S
C1006 C1005 1.379 . S
H1007 C1001 0.959 . S
H1008 C1001 0.961 . S
H1009 C1001 0.960 . S
H1010 C1002 0.930 . S
H1011 C1003 0.929 . S
H1012 C1020 0.929 . S
H1013 C1022 0.930 . S
H1014 C1024 0.930 . S
H1015 C1027 0.929 . S
H1016 C1030 0.930 . S
H1017 C1032 0.960 . S
H1018 C1032 0.960 . S
H1019 C1032 0.960 . S
C1020 H1012 0.929 . S
C1020 C1021 1.377 . S
C1020 C1022 1.384 . S
C1021 C1020 1.377 . S
C1021 C1027 1.390 . S
C1022 H1013 0.930 . S
C1022 C1020 1.384 . S
C1022 C1023 1.372 . S
C1023 C1022 1.372 . S
C1023 C1024 1.400 . S
C1023 C1028 1.490 . S
C1024 H1014 0.930 . S
C1024 C1023 1.400 . S
C1024 C1027 1.386 . S
H1025 C1041 0.930 . S
H1026 C1042 0.931 . S
C1027 H1015 0.929 . S
C1027 C1021 1.390 . S
C1027 C1024 1.386 . S
C1028 C1023 1.490 . S
C1028 C1030 1.395 . S
C1028 C1031 1.403 . S
H1029 C1035 0.930 . S
C1030 H1016 0.930 . S
C1030 C1028 1.395 . S
C1030 C1033 1.403 . S
C1031 C1028 1.403 . S
C1031 C1032 1.524 . S
C1031 C1035 1.400 . S
C1032 H1017 0.960 . S
C1032 H1018 0.960 . S
C1032 H1019 0.960 . S
C1032 C1031 1.524 . S
C1033 C1030 1.403 . S
C1033 C1034 1.392 . S
C1033 C1037 1.495 . S
C1034 C1033 1.392 . S
C1034 C1035 1.385 . S
C1034 C1036 1.478 . S
C1035 H1029 0.930 . S
C1035 C1031 1.400 . S
C1035 C1034 1.385 . S
C1036 C1034 1.478 . S
C1036 C1038 1.381 . S
C1036 C1042 1.383 . S
C1037 C1033 1.495 . S
C1037 H1043 0.959 . S
C1037 H1044 0.961 . S
C1037 H1045 0.960 . S
C1038 C1036 1.381 . S
C1038 C1039 1.394 . S
C1038 H1046 0.930 . S
C1039 C1038 1.394 . S
C1039 C1040 1.383 . S
C1039 H1047 0.929 . S
C1040 C1039 1.383 . S
C1040 C1041 1.377 . S
C1041 H1025 0.930 . S
C1041 C1040 1.377 . S
C1041 C1042 1.379 . S
C1042 H1026 0.931 . S
C1042 C1036 1.383 . S
C1042 C1041 1.379 . S
H1043 C1037 0.959 . S
H1044 C1037 0.961 . S
H1045 C1037 0.960 . S
H1046 C1038 0.930 . S
H1047 C1039 0.929 . S
H1048 C1056 0.929 . S
H1049 C1058 0.930 . S
H1050 C1060 0.930 . S
H1051 C1063 0.929 . S
H1052 C1066 0.930 . S
H1053 C1068 0.960 . S
H1054 C1068 0.960 . S
H1055 C1068 0.960 . S
C1056 H1048 0.929 . S
C1056 C1057 1.377 . S
C1056 C1058 1.384 . S
C1057 C1056 1.377 . S
C1057 C1063 1.390 . S
C1058 H1049 0.930 . S
C1058 C1056 1.384 . S
C1058 C1059 1.372 . S
C1059 C1058 1.372 . S
C1059 C1060 1.400 . S
C1059 C1064 1.490 . S
C1060 H1050 0.930 . S
C1060 C1059 1.400 . S
C1060 C1063 1.386 . S
H1061 C1077 0.930 . S
H1062 C1078 0.931 . S
C1063 H1051 0.929 . S
C1063 C1057 1.390 . S
C1063 C1060 1.386 . S
C1064 C1059 1.490 . S
C1064 C1066 1.395 . S
C1064 C1067 1.403 . S
H1065 C1071 0.930 . S
C1066 H1052 0.930 . S
C1066 C1064 1.395 . S
C1066 C1069 1.403 . S
C1067 C1064 1.403 . S
C1067 C1068 1.524 . S
C1067 C1071 1.400 . S
C1068 H1053 0.960 . S
C1068 H1054 0.960 . S
C1068 H1055 0.960 . S
C1068 C1067 1.524 . S
C1069 C1066 1.403 . S
C1069 C1070 1.392 . S
C1069 C1073 1.495 1_565 S
C1070 C1069 1.392 . S
C1070 C1071 1.385 . S
C1070 C1072 1.478 . S
C1071 H1065 0.930 . S
C1071 C1067 1.400 . S
C1071 C1070 1.385 . S
C1072 C1070 1.478 . S
C1072 C1074 1.381 . S
C1072 C1078 1.383 1_565 S
C1073 C1069 1.495 1_545 S
C1073 H1079 0.959 . S
C1073 H1080 0.961 . S
C1073 H1081 0.960 1_545 S
C1074 C1072 1.381 . S
C1074 C1075 1.394 . S
C1074 H1082 0.930 . S
C1075 C1074 1.394 . S
C1075 C1076 1.383 . S
C1075 H1083 0.929 . S
C1076 C1075 1.383 . S
C1076 C1077 1.377 1_565 S
C1077 H1061 0.930 . S
C1077 C1076 1.377 1_545 S
C1077 C1078 1.379 . S
C1078 H1062 0.931 . S
C1078 C1072 1.383 1_545 S
C1078 C1077 1.379 . S
H1079 C1073 0.959 . S
H1080 C1073 0.961 . S
H1081 C1073 0.960 1_565 S
H1082 C1074 0.930 . S
H1083 C1075 0.929 . S
H1084 C1092 0.929 . S
H1085 C1094 0.930 . S
H1086 C1096 0.930 . S
H1087 C1099 0.929 . S
H1088 C1102 0.930 . S
H1089 C1104 0.960 . S
H1090 C1104 0.960 . S
H1091 C1104 0.960 . S
C1092 H1084 0.929 . S
C1092 C1093 1.377 . S
C1092 C1094 1.384 . S
C1093 C1092 1.377 . S
C1093 C1099 1.390 . S
C1094 H1085 0.930 . S
C1094 C1092 1.384 . S
C1094 C1095 1.372 . S
C1095 C1094 1.372 . S
C1095 C1096 1.400 . S
C1095 C1100 1.490 . S
C1096 H1086 0.930 . S
C1096 C1095 1.400 . S
C1096 C1099 1.386 . S
H1097 C1113 0.930 . S
H1098 C1114 0.931 . S
C1099 H1087 0.929 . S
C1099 C1093 1.390 . S
C1099 C1096 1.386 . S
C1100 C1095 1.490 . S
C1100 C1102 1.395 . S
C1100 C1103 1.403 . S
H1101 C1107 0.930 . S
C1102 H1088 0.930 . S
C1102 C1100 1.395 . S
C1102 C1105 1.403 . S
C1103 C1100 1.403 . S
C1103 C1104 1.524 . S
C1103 C1107 1.400 . S
C1104 H1089 0.960 . S
C1104 H1090 0.960 . S
C1104 H1091 0.960 . S
C1104 C1103 1.524 . S
C1105 C1102 1.403 . S
C1105 C1106 1.392 . S
C1105 C1109 1.495 . S
C1106 C1105 1.392 . S
C1106 C1107 1.385 . S
C1106 C1108 1.478 . S
C1107 H1101 0.930 . S
C1107 C1103 1.400 . S
C1107 C1106 1.385 . S
C1108 C1106 1.478 . S
C1108 C1110 1.381 . S
C1108 C1114 1.383 . S
C1109 C1105 1.495 . S
C1109 H1115 0.959 . S
C1109 H1116 0.961 . S
C1109 H1117 0.960 . S
C1110 C1108 1.381 . S
C1110 C1111 1.394 . S
C1110 H1118 0.930 . S
C1111 C1110 1.394 . S
C1111 C1112 1.383 . S
C1111 H1119 0.929 . S
C1112 C1111 1.383 . S
C1112 C1113 1.377 . S
C1113 H1097 0.930 . S
C1113 C1112 1.377 . S
C1113 C1114 1.379 . S
C1114 H1098 0.931 . S
C1114 C1108 1.383 . S
C1114 C1113 1.379 . S
H1115 C1109 0.959 . S
H1116 C1109 0.961 . S
H1117 C1109 0.960 . S
H1118 C1110 0.930 . S
H1119 C1111 0.929 . S
H1120 C1128 0.929 . S
H1121 C1130 0.930 . S
H1122 C1132 0.930 . S
H1123 C1135 0.929 . S
H1124 C1138 0.930 . S
H1125 C1140 0.960 . S
H1126 C1140 0.960 . S
H1127 C1140 0.960 . S
C1128 H1120 0.929 . S
C1128 C1129 1.377 . S
C1128 C1130 1.384 . S
C1129 C1128 1.377 . S
C1129 C1135 1.390 . S
C1130 H1121 0.930 . S
C1130 C1128 1.384 . S
C1130 C1131 1.372 . S
C1131 C1130 1.372 . S
C1131 C1132 1.400 . S
C1131 C1136 1.490 . S
C1132 H1122 0.930 . S
C1132 C1131 1.400 . S
C1132 C1135 1.386 . S
H1133 C1149 0.930 . S
H1134 C1150 0.931 . S
C1135 H1123 0.929 . S
C1135 C1129 1.390 . S
C1135 C1132 1.386 . S
C1136 C1131 1.490 . S
C1136 C1138 1.395 . S
C1136 C1139 1.403 . S
H1137 C1143 0.930 . S
C1138 H1124 0.930 . S
C1138 C1136 1.395 . S
C1138 C1141 1.403 . S
C1139 C1136 1.403 . S
C1139 C1140 1.524 . S
C1139 C1143 1.400 . S
C1140 H1125 0.960 . S
C1140 H1126 0.960 . S
C1140 H1127 0.960 . S
C1140 C1139 1.524 . S
C1141 C1138 1.403 . S
C1141 C1142 1.392 . S
C1141 C1145 1.495 . S
C1142 C1141 1.392 . S
C1142 C1143 1.385 . S
C1142 C1144 1.478 . S
C1143 H1137 0.930 . S
C1143 C1139 1.400 . S
C1143 C1142 1.385 . S
C1144 C1142 1.478 . S
C1144 C1146 1.381 . S
C1144 C1150 1.383 . S
C1145 C1141 1.495 . S
C1145 H1151 0.959 . S
C1145 H1152 0.961 . S
C1145 H1153 0.960 . S
C1146 C1144 1.381 . S
C1146 C1147 1.394 . S
C1146 H1154 0.930 . S
C1147 C1146 1.394 . S
C1147 C1148 1.383 . S
C1147 H1155 0.929 . S
C1148 C1147 1.383 . S
C1148 C1149 1.377 . S
C1149 H1133 0.930 . S
C1149 C1148 1.377 . S
C1149 C1150 1.379 . S
C1150 H1134 0.931 . S
C1150 C1144 1.383 . S
C1150 C1149 1.379 . S
H1151 C1145 0.959 . S
H1152 C1145 0.961 . S
H1153 C1145 0.960 . S
H1154 C1146 0.930 . S
H1155 C1147 0.929 . S
H1156 C1164 0.929 . S
H1157 C1166 0.930 . S
H1158 C1168 0.930 . S
H1159 C1171 0.929 . S
H1160 C1174 0.930 . S
H1161 C1176 0.960 . S
H1162 C1176 0.960 . S
H1163 C1176 0.960 . S
C1164 H1156 0.929 . S
C1164 C1165 1.377 . S
C1164 C1166 1.384 . S
C1165 C1164 1.377 . S
C1165 C1171 1.390 . S
C1166 H1157 0.930 . S
C1166 C1164 1.384 . S
C1166 C1167 1.372 . S
C1167 C1166 1.372 . S
C1167 C1168 1.400 . S
C1167 C1172 1.490 . S
C1168 H1158 0.930 . S
C1168 C1167 1.400 . S
C1168 C1171 1.386 . S
H1169 C1185 0.930 . S
H1170 C1186 0.931 . S
C1171 H1159 0.929 . S
C1171 C1165 1.390 . S
C1171 C1168 1.386 . S
C1172 C1167 1.490 . S
C1172 C1174 1.395 . S
C1172 C1175 1.403 . S
H1173 C1179 0.930 . S
C1174 H1160 0.930 . S
C1174 C1172 1.395 . S
C1174 C1177 1.403 . S
C1175 C1172 1.403 . S
C1175 C1176 1.524 . S
C1175 C1179 1.400 . S
C1176 H1161 0.960 . S
C1176 H1162 0.960 . S
C1176 H1163 0.960 . S
C1176 C1175 1.524 . S
C1177 C1174 1.403 . S
C1177 C1178 1.392 . S
C1177 C1181 1.495 . S
C1178 C1177 1.392 . S
C1178 C1179 1.385 . S
C1178 C1180 1.478 . S
C1179 H1173 0.930 . S
C1179 C1175 1.400 . S
C1179 C1178 1.385 . S
C1180 C1178 1.478 . S
C1180 C1182 1.381 . S
C1180 C1186 1.383 . S
C1181 C1177 1.495 . S
C1181 H1187 0.959 . S
C1181 H1188 0.961 . S
C1181 H1189 0.960 . S
C1182 C1180 1.381 . S
C1182 C1183 1.394 . S
C1182 H1190 0.930 . S
C1183 C1182 1.394 . S
C1183 C1184 1.383 . S
C1183 H1191 0.929 . S
C1184 C1183 1.383 . S
C1184 C1185 1.377 . S
C1185 H1169 0.930 . S
C1185 C1184 1.377 . S
C1185 C1186 1.379 . S
C1186 H1170 0.931 . S
C1186 C1180 1.383 . S
C1186 C1185 1.379 . S
H1187 C1181 0.959 . S
H1188 C1181 0.961 . S
H1189 C1181 0.960 . S
H1190 C1182 0.930 . S
H1191 C1183 0.929 . S
H1192 C1200 0.929 . S
H1193 C1202 0.930 . S
H1194 C1204 0.930 . S
H1195 C1207 0.929 . S
H1196 C1210 0.930 . S
H1197 C1212 0.960 . S
H1198 C1212 0.960 . S
H1199 C1212 0.960 . S
C1200 H1192 0.929 . S
C1200 C1201 1.377 . S
C1200 C1202 1.384 . S
C1201 C1200 1.377 . S
C1201 C1207 1.390 . S
C1202 H1193 0.930 . S
C1202 C1200 1.384 . S
C1202 C1203 1.372 . S
C1203 C1202 1.372 . S
C1203 C1204 1.400 . S
C1203 C1208 1.490 . S
C1204 H1194 0.930 . S
C1204 C1203 1.400 . S
C1204 C1207 1.386 . S
H1205 C1221 0.930 . S
H1206 C1222 0.931 . S
C1207 H1195 0.929 . S
C1207 C1201 1.390 . S
C1207 C1204 1.386 . S
C1208 C1203 1.490 . S
C1208 C1210 1.395 . S
C1208 C1211 1.403 . S
H1209 C1215 0.930 . S
C1210 H1196 0.930 . S
C1210 C1208 1.395 . S
C1210 C1213 1.403 . S
C1211 C1208 1.403 . S
C1211 C1212 1.524 . S
C1211 C1215 1.400 . S
C1212 H1197 0.960 . S
C1212 H1198 0.960 . S
C1212 H1199 0.960 . S
C1212 C1211 1.524 . S
C1213 C1210 1.403 . S
C1213 C1214 1.392 . S
C1213 C1217 1.495 . S
C1214 C1213 1.392 . S
C1214 C1215 1.385 . S
C1214 C1216 1.478 . S
C1215 H1209 0.930 . S
C1215 C1211 1.400 . S
C1215 C1214 1.385 . S
C1216 C1214 1.478 . S
C1216 C1218 1.381 . S
C1216 C1222 1.383 . S
C1217 C1213 1.495 . S
C1217 H1223 0.959 . S
C1217 H1224 0.961 . S
C1217 H1225 0.960 . S
C1218 C1216 1.381 . S
C1218 C1219 1.394 . S
C1218 H1226 0.930 . S
C1219 C1218 1.394 . S
C1219 C1220 1.383 . S
C1219 H1227 0.929 . S
C1220 C1219 1.383 . S
C1220 C1221 1.377 . S
C1221 H1205 0.930 . S
C1221 C1220 1.377 . S
C1221 C1222 1.379 . S
C1222 H1206 0.931 . S
C1222 C1216 1.383 . S
C1222 C1221 1.379 . S
H1223 C1217 0.959 . S
H1224 C1217 0.961 . S
H1225 C1217 0.960 . S
H1226 C1218 0.930 . S
H1227 C1219 0.929 . S
H1228 C1236 0.929 . S
H1229 C1238 0.930 . S
H1230 C1240 0.930 . S
H1231 C1243 0.929 . S
H1232 C1246 0.930 . S
H1233 C1248 0.960 . S
H1234 C1248 0.960 . S
H1235 C1248 0.960 . S
C1236 H1228 0.929 . S
C1236 C1237 1.377 . S
C1236 C1238 1.384 . S
C1237 C1236 1.377 . S
C1237 C1243 1.390 . S
C1238 H1229 0.930 . S
C1238 C1236 1.384 . S
C1238 C1239 1.372 . S
C1239 C1238 1.372 . S
C1239 C1240 1.400 . S
C1239 C1244 1.490 . S
C1240 H1230 0.930 . S
C1240 C1239 1.400 . S
C1240 C1243 1.386 . S
H1241 C1257 0.930 . S
H1242 C1258 0.931 . S
C1243 H1231 0.929 . S
C1243 C1237 1.390 . S
C1243 C1240 1.386 . S
C1244 C1239 1.490 . S
C1244 C1246 1.395 . S
C1244 C1247 1.403 . S
H1245 C1251 0.930 . S
C1246 H1232 0.930 . S
C1246 C1244 1.395 . S
C1246 C1249 1.403 . S
C1247 C1244 1.403 . S
C1247 C1248 1.524 . S
C1247 C1251 1.400 . S
C1248 H1233 0.960 . S
C1248 H1234 0.960 . S
C1248 H1235 0.960 . S
C1248 C1247 1.524 . S
C1249 C1246 1.403 . S
C1249 C1250 1.392 . S
C1249 C1253 1.495 . S
C1250 C1249 1.392 . S
C1250 C1251 1.385 . S
C1250 C1252 1.478 . S
C1251 H1245 0.930 . S
C1251 C1247 1.400 . S
C1251 C1250 1.385 . S
C1252 C1250 1.478 . S
C1252 C1254 1.381 . S
C1252 C1258 1.383 . S
C1253 C1249 1.495 . S
C1253 H1259 0.959 . S
C1253 H1260 0.961 . S
C1253 H1261 0.960 . S
C1254 C1252 1.381 . S
C1254 C1255 1.394 . S
C1254 H1262 0.930 . S
C1255 C1254 1.394 . S
C1255 C1256 1.383 . S
C1255 H1263 0.929 . S
C1256 C1255 1.383 . S
C1256 C1257 1.377 . S
C1257 H1241 0.930 . S
C1257 C1256 1.377 . S
C1257 C1258 1.379 . S
C1258 H1242 0.931 . S
C1258 C1252 1.383 . S
C1258 C1257 1.379 . S
H1259 C1253 0.959 . S
H1260 C1253 0.961 . S
H1261 C1253 0.960 . S
H1262 C1254 0.930 . S
H1263 C1255 0.929 . S
H1264 C1272 0.929 . S
H1265 C1274 0.930 . S
H1266 C1276 0.930 . S
H1267 C1279 0.929 . S
H1268 C1282 0.930 . S
H1269 C1284 0.960 . S
H1270 C1284 0.960 . S
H1271 C1284 0.960 . S
C1272 H1264 0.929 . S
C1272 C1273 1.377 . S
C1272 C1274 1.384 . S
C1273 C1272 1.377 . S
C1273 C1279 1.390 . S
C1274 H1265 0.930 . S
C1274 C1272 1.384 . S
C1274 C1275 1.372 . S
C1275 C1274 1.372 . S
C1275 C1276 1.400 . S
C1275 C1280 1.490 . S
C1276 H1266 0.930 . S
C1276 C1275 1.400 . S
C1276 C1279 1.386 . S
H1277 C1293 0.920 1_655 S
H1278 C1294 0.931 . S
C1279 H1267 0.929 . S
C1279 C1273 1.390 . S
C1279 C1276 1.386 . S
C1280 C1275 1.490 . S
C1280 C1282 1.395 . S
C1280 C1283 1.403 . S
H1281 C1287 0.930 1_655 S
C1282 H1268 0.930 . S
C1282 C1280 1.395 . S
C1282 C1285 1.403 . S
C1283 C1280 1.403 . S
C1283 C1284 1.524 1_455 S
C1283 C1287 1.400 . S
C1284 H1269 0.960 . S
C1284 H1270 0.960 . S
C1284 H1271 0.960 . S
C1284 C1283 1.524 1_655 S
C1285 C1282 1.403 . S
C1285 C1286 1.392 . S
C1285 C1289 1.495 . S
C1286 C1285 1.392 . S
C1286 C1287 1.385 . S
C1286 C1288 1.478 . S
C1287 H1281 0.930 1_455 S
C1287 C1283 1.400 . S
C1287 C1286 1.385 . S
C1288 C1286 1.478 . S
C1288 C1290 1.381 . S
C1288 C1294 1.383 . S
C1289 C1285 1.495 . S
C1289 H1295 0.959 . S
C1289 H1296 0.961 . S
C1289 H1297 0.960 . S
C1290 C1288 1.381 . S
C1290 C1291 1.394 . S
C1290 H1298 0.930 . S
C1291 C1290 1.394 . S
C1291 C1292 1.383 . S
C1291 H1299 0.929 . S
C1292 C1291 1.383 . S
C1292 C1293 1.377 . S
C1293 H1277 0.920 1_455 S
C1293 C1292 1.377 . S
C1293 C1294 1.379 . S
C1294 H1278 0.931 . S
C1294 C1288 1.383 . S
C1294 C1293 1.379 . S
H1295 C1289 0.959 . S
H1296 C1289 0.961 . S
H1297 C1289 0.960 . S
H1298 C1290 0.930 . S
H1299 C1291 0.929 . S
H1300 C1308 0.929 . S
H1301 C1310 0.930 . S
H1302 C1312 0.930 . S
H1303 C1315 0.929 . S
H1304 C1318 0.930 . S
H1305 C1320 0.960 . S
H1306 C1320 0.960 . S
H1307 C1320 0.960 . S
C1308 H1300 0.929 . S
C1308 C1309 1.377 . S
C1308 C1310 1.384 . S
C1309 C1308 1.377 . S
C1309 C1315 1.390 . S
C1310 H1301 0.930 . S
C1310 C1308 1.384 . S
C1310 C1311 1.372 . S
C1311 C1310 1.372 . S
C1311 C1312 1.400 . S
C1311 C1316 1.490 . S
C1312 H1302 0.930 . S
C1312 C1311 1.400 . S
C1312 C1315 1.386 . S
H1313 C1329 0.930 . S
H1314 C1330 0.931 . S
C1315 H1303 0.929 . S
C1315 C1309 1.390 . S
C1315 C1312 1.386 . S
C1316 C1311 1.490 . S
C1316 C1318 1.395 . S
C1316 C1319 1.403 . S
H1317 C1323 0.930 . S
C1318 H1304 0.930 . S
C1318 C1316 1.395 . S
C1318 C1321 1.403 . S
C1319 C1316 1.403 . S
C1319 C1320 1.524 . S
C1319 C1323 1.400 . S
C1320 H1305 0.960 . S
C1320 H1306 0.960 . S
C1320 H1307 0.960 . S
C1320 C1319 1.524 . S
C1321 C1318 1.403 . S
C1321 C1322 1.392 . S
C1321 C1325 1.495 . S
C1322 C1321 1.392 . S
C1322 C1323 1.385 . S
C1322 C1324 1.478 . S
C1323 H1317 0.930 . S
C1323 C1319 1.400 . S
C1323 C1322 1.385 . S
C1324 C1322 1.478 . S
C1324 C1326 1.381 . S
C1324 C1330 1.383 . S
C1325 C1321 1.495 . S
C1325 H1331 0.959 . S
C1325 H1332 0.961 . S
C1325 H1333 0.960 . S
C1326 C1324 1.381 . S
C1326 C1327 1.394 . S
C1326 H1334 0.930 . S
C1327 C1326 1.394 . S
C1327 C1328 1.383 . S
C1327 H1335 0.929 . S
C1328 C1327 1.383 . S
C1328 C1329 1.377 . S
C1329 H1313 0.930 . S
C1329 C1328 1.377 . S
C1329 C1330 1.379 . S
C1330 H1314 0.931 . S
C1330 C1324 1.383 . S
C1330 C1329 1.379 . S
H1331 C1325 0.959 . S
H1332 C1325 0.961 . S
H1333 C1325 0.960 . S
H1334 C1326 0.930 . S
H1335 C1327 0.929 . S
H1336 C1344 0.929 . S
H1337 C1346 0.930 . S
H1338 C1348 0.930 1_455 S
H1339 C1351 0.929 1_455 S
H1340 C1354 0.930 . S
H1341 C1356 0.960 . S
H1342 C1356 0.957 1_655 S
H1343 C1356 0.960 . S
C1344 H1336 0.929 . S
C1344 C1345 1.377 . S
C1344 C1346 1.384 . S
C1345 C1344 1.377 . S
C1345 C1351 1.390 . S
C1346 H1337 0.930 . S
C1346 C1344 1.384 . S
C1346 C1347 1.372 . S
C1347 C1346 1.372 . S
C1347 C1348 1.400 . S
C1347 C1352 1.490 . S
C1348 H1338 0.930 1_655 S
C1348 C1347 1.400 . S
C1348 C1351 1.386 . S
H1349 C1365 0.930 . S
H1350 C1366 0.931 . S
C1351 H1339 0.929 1_655 S
C1351 C1345 1.390 . S
C1351 C1348 1.386 . S
C1352 C1347 1.490 . S
C1352 C1354 1.395 . S
C1352 C1355 1.403 . S
H1353 C1359 0.930 1_455 S
C1354 H1340 0.930 . S
C1354 C1352 1.395 . S
C1354 C1357 1.403 . S
C1355 C1352 1.403 . S
C1355 C1356 1.524 1_655 S
C1355 C1359 1.400 . S
C1356 H1341 0.960 . S
C1356 H1342 0.957 1_455 S
C1356 H1343 0.960 . S
C1356 C1355 1.524 1_455 S
C1357 C1354 1.403 . S
C1357 C1358 1.392 . S
C1357 C1361 1.495 . S
C1358 C1357 1.392 . S
C1358 C1359 1.385 . S
C1358 C1360 1.478 . S
C1359 H1353 0.930 1_655 S
C1359 C1355 1.400 . S
C1359 C1358 1.385 . S
C1360 C1358 1.478 . S
C1360 C1362 1.381 . S
C1360 C1366 1.383 1_655 S
C1361 C1357 1.495 . S
C1361 H1367 0.959 . S
C1361 H1368 0.961 . S
C1361 H1369 0.960 . S
C1362 C1360 1.381 . S
C1362 C1363 1.394 . S
C1362 H1370 0.930 . S
C1363 C1362 1.394 . S
C1363 C1364 1.383 . S
C1363 H1371 0.929 . S
C1364 C1363 1.383 . S
C1364 C1365 1.377 1_655 S
C1365 H1349 0.930 . S
C1365 C1364 1.377 1_455 S
C1365 C1366 1.379 . S
C1366 H1350 0.931 . S
C1366 C1360 1.383 1_455 S
C1366 C1365 1.379 . S
H1367 C1361 0.959 . S
H1368 C1361 0.961 . S
H1369 C1361 0.960 . S
H1370 C1362 0.930 . S
H1371 C1363 0.929 . S
H1372 C1380 0.929 . S
H1373 C1382 0.930 . S
H1374 C1384 0.930 . S
H1375 C1387 0.929 . S
H1376 C1390 0.930 . S
H1377 C1392 0.960 . S
H1378 C1392 0.960 . S
H1379 C1392 0.960 . S
C1380 H1372 0.929 . S
C1380 C1381 1.377 . S
C1380 C1382 1.384 . S
C1381 C1380 1.377 . S
C1381 C1387 1.390 . S
C1382 H1373 0.930 . S
C1382 C1380 1.384 . S
C1382 C1383 1.372 . S
C1383 C1382 1.372 . S
C1383 C1384 1.400 . S
C1383 C1388 1.490 . S
C1384 H1374 0.930 . S
C1384 C1383 1.400 . S
C1384 C1387 1.386 . S
H1385 C1401 0.930 . S
H1386 C1402 0.931 . S
C1387 H1375 0.929 . S
C1387 C1381 1.390 . S
C1387 C1384 1.386 . S
C1388 C1383 1.490 . S
C1388 C1390 1.395 . S
C1388 C1391 1.403 . S
H1389 C1395 0.930 . S
C1390 H1376 0.930 . S
C1390 C1388 1.395 . S
C1390 C1393 1.403 . S
C1391 C1388 1.403 . S
C1391 C1392 1.524 . S
C1391 C1395 1.400 . S
C1392 H1377 0.960 . S
C1392 H1378 0.960 . S
C1392 H1379 0.960 . S
C1392 C1391 1.524 . S
C1393 C1390 1.403 . S
C1393 C1394 1.392 . S
C1393 C1397 1.495 . S
C1394 C1393 1.392 . S
C1394 C1395 1.385 . S
C1394 C1396 1.478 . S
C1395 H1389 0.930 . S
C1395 C1391 1.400 . S
C1395 C1394 1.385 . S
C1396 C1394 1.478 . S
C1396 C1398 1.381 . S
C1396 C1402 1.383 . S
C1397 C1393 1.495 . S
C1397 H1403 0.959 . S
C1397 H1404 0.961 . S
C1397 H1405 0.960 . S
C1398 C1396 1.381 . S
C1398 C1399 1.394 . S
C1398 H1406 0.930 . S
C1399 C1398 1.394 . S
C1399 C1400 1.383 . S
C1399 H1407 0.929 . S
C1400 C1399 1.383 . S
C1400 C1401 1.377 . S
C1401 H1385 0.930 . S
C1401 C1400 1.377 . S
C1401 C1402 1.379 . S
C1402 H1386 0.931 . S
C1402 C1396 1.383 . S
C1402 C1401 1.379 . S
H1403 C1397 0.959 . S
H1404 C1397 0.961 . S
H1405 C1397 0.960 . S
H1406 C1398 0.930 . S
H1407 C1399 0.929 . S
H1408 C1416 0.929 . S
H1409 C1418 0.930 . S
H1410 C1420 0.930 . S
H1411 C1423 0.929 . S
H1412 C1426 0.930 . S
H1413 C1428 0.960 . S
H1414 C1428 0.960 . S
H1415 C1428 0.960 . S
C1416 H1408 0.929 . S
C1416 C1417 1.377 . S
C1416 C1418 1.384 . S
C1417 C1416 1.377 . S
C1417 C1423 1.390 . S
C1418 H1409 0.930 . S
C1418 C1416 1.384 . S
C1418 C1419 1.372 . S
C1419 C1418 1.372 . S
C1419 C1420 1.400 . S
C1419 C1424 1.490 . S
C1420 H1410 0.930 . S
C1420 C1419 1.400 . S
C1420 C1423 1.386 . S
H1421 C1437 0.930 . S
H1422 C1438 0.931 . S
C1423 H1411 0.929 . S
C1423 C1417 1.390 . S
C1423 C1420 1.386 . S
C1424 C1419 1.490 . S
C1424 C1426 1.395 . S
C1424 C1427 1.403 . S
H1425 C1431 0.930 . S
C1426 H1412 0.930 . S
C1426 C1424 1.395 . S
C1426 C1429 1.403 . S
C1427 C1424 1.403 . S
C1427 C1428 1.524 . S
C1427 C1431 1.400 . S
C1428 H1413 0.960 . S
C1428 H1414 0.960 . S
C1428 H1415 0.960 . S
C1428 C1427 1.524 . S
C1429 C1426 1.403 . S
C1429 C1430 1.392 . S
C1429 C1433 1.495 . S
C1430 C1429 1.392 . S
C1430 C1431 1.385 . S
C1430 C1432 1.478 . S
C1431 H1425 0.930 . S
C1431 C1427 1.400 . S
C1431 C1430 1.385 . S
C1432 C1430 1.478 . S
C1432 C1434 1.381 . S
C1432 C1438 1.383 . S
C1433 C1429 1.495 . S
C1433 H1439 0.959 . S
C1433 H1440 0.961 . S
C1433 H1441 0.960 . S
C1434 C1432 1.381 . S
C1434 C1435 1.394 . S
C1434 H1442 0.930 . S
C1435 C1434 1.394 . S
C1435 C1436 1.383 . S
C1435 H1443 0.929 . S
C1436 C1435 1.383 . S
C1436 C1437 1.377 . S
C1437 H1421 0.930 . S
C1437 C1436 1.377 . S
C1437 C1438 1.379 . S
C1438 H1422 0.931 . S
C1438 C1432 1.383 . S
C1438 C1437 1.379 . S
H1439 C1433 0.959 . S
H1440 C1433 0.961 . S
H1441 C1433 0.960 . S
H1442 C1434 0.930 . S
H1443 C1435 0.929 . S
H1444 C1452 0.929 . S
H1445 C1454 0.930 . S
H1446 C1456 0.930 . S
H1447 C1459 0.929 1_554 S
H1448 C1462 0.930 . S
H1449 C1464 0.960 . S
H1450 C1464 0.960 1_556 S
H1451 C1464 0.960 . S
C1452 H1444 0.929 . S
C1452 C1453 1.377 . S
C1452 C1454 1.384 . S
C1453 C1452 1.377 . S
C1453 C1459 1.390 . S
C1454 H1445 0.930 . S
C1454 C1452 1.384 . S
C1454 C1455 1.372 . S
C1455 C1454 1.372 . S
C1455 C1456 1.400 1_556 S
C1455 C1460 1.490 . S
C1456 H1446 0.930 . S
C1456 C1455 1.400 1_554 S
C1456 C1459 1.386 1_554 S
H1457 C1473 0.930 . S
H1458 C1474 0.931 . S
C1459 H1447 0.929 1_556 S
C1459 C1453 1.390 . S
C1459 C1456 1.386 1_556 S
C1460 C1455 1.490 . S
C1460 C1462 1.395 . S
C1460 C1463 1.403 . S
H1461 C1467 0.930 . S
C1462 H1448 0.930 . S
C1462 C1460 1.395 . S
C1462 C1465 1.403 . S
C1463 C1460 1.403 . S
C1463 C1464 1.524 1_556 S
C1463 C1467 1.400 1_556 S
C1464 H1449 0.960 . S
C1464 H1450 0.960 1_554 S
C1464 H1451 0.960 . S
C1464 C1463 1.524 1_554 S
C1465 C1462 1.403 . S
C1465 C1466 1.392 . S
C1465 C1469 1.495 . S
C1466 C1465 1.392 . S
C1466 C1467 1.385 1_556 S
C1466 C1468 1.475 1_556 S
C1467 H1461 0.930 . S
C1467 C1463 1.400 1_554 S
C1467 C1466 1.385 1_554 S
C1468 C1466 1.475 1_554 S
C1468 C1470 1.373 1_554 S
C1468 C1474 1.393 . S
C1469 C1465 1.495 . S
C1469 H1475 0.959 . S
C1469 H1476 0.961 . S
C1469 H1477 0.960 . S
C1470 C1468 1.373 1_556 S
C1470 C1471 1.394 . S
C1470 H1478 0.930 . S
C1471 C1470 1.394 . S
C1471 C1472 1.383 1_556 S
C1471 H1479 0.929 . S
C1472 C1471 1.383 1_554 S
C1472 C1473 1.377 . S
C1473 H1457 0.930 . S
C1473 C1472 1.377 . S
C1473 C1474 1.379 . S
C1474 H1458 0.931 . S
C1474 C1468 1.393 . S
C1474 C1473 1.379 . S
H1475 C1469 0.959 . S
H1476 C1469 0.961 . S
H1477 C1469 0.960 . S
H1478 C1470 0.930 . S
H1479 C1471 0.929 . S
H1480 C1488 0.929 . S
H1481 C1490 0.930 . S
H1482 C1492 0.930 . S
H1483 C1495 0.929 . S
H1484 C1498 0.930 . S
H1485 C1500 0.960 . S
H1486 C1500 0.960 . S
H1487 C1500 0.960 . S
C1488 H1480 0.929 . S
C1488 C1489 1.377 . S
C1488 C1490 1.384 . S
C1489 C1488 1.377 . S
C1489 C1495 1.390 . S
C1490 H1481 0.930 . S
C1490 C1488 1.384 . S
C1490 C1491 1.372 . S
C1491 C1490 1.372 . S
C1491 C1492 1.400 . S
C1491 C1496 1.490 . S
C1492 H1482 0.930 . S
C1492 C1491 1.400 . S
C1492 C1495 1.386 . S
H1493 C1509 0.930 . S
H1494 C1510 0.931 . S
C1495 H1483 0.929 . S
C1495 C1489 1.390 . S
C1495 C1492 1.386 . S
C1496 C1491 1.490 . S
C1496 C1498 1.395 . S
C1496 C1499 1.403 . S
H1497 C1503 0.930 . S
C1498 H1484 0.930 . S
C1498 C1496 1.395 . S
C1498 C1501 1.403 . S
C1499 C1496 1.403 . S
C1499 C1500 1.524 . S
C1499 C1503 1.400 . S
C1500 H1485 0.960 . S
C1500 H1486 0.960 . S
C1500 H1487 0.960 . S
C1500 C1499 1.524 . S
C1501 C1498 1.403 . S
C1501 C1502 1.392 . S
C1501 C1505 1.495 . S
C1502 C1501 1.392 . S
C1502 C1503 1.385 . S
C1502 C1504 1.478 . S
C1503 H1497 0.930 . S
C1503 C1499 1.400 . S
C1503 C1502 1.385 . S
C1504 C1502 1.478 . S
C1504 C1506 1.381 . S
C1504 C1510 1.383 . S
C1505 C1501 1.495 . S
C1505 H1511 0.959 . S
C1505 H1512 0.961 . S
C1505 H1513 0.960 . S
C1506 C1504 1.381 . S
C1506 C1507 1.394 . S
C1506 H1514 0.930 . S
C1507 C1506 1.394 . S
C1507 C1508 1.383 . S
C1507 H1515 0.929 . S
C1508 C1507 1.383 . S
C1508 C1509 1.377 . S
C1509 H1493 0.930 . S
C1509 C1508 1.377 . S
C1509 C1510 1.379 . S
C1510 H1494 0.931 . S
C1510 C1504 1.383 . S
C1510 C1509 1.379 . S
H1511 C1505 0.959 . S
H1512 C1505 0.961 . S
H1513 C1505 0.960 . S
H1514 C1506 0.930 . S
H1515 C1507 0.929 . S
H1516 C1524 0.929 . S
H1517 C1526 0.930 . S
H1518 C1528 0.930 . S
H1519 C1531 0.929 . S
H1520 C1534 0.930 . S
H1521 C1536 0.960 . S
H1522 C1536 0.960 . S
H1523 C1536 0.960 . S
C1524 H1516 0.929 . S
C1524 C1525 1.377 . S
C1524 C1526 1.384 . S
C1525 C1524 1.377 . S
C1525 C1531 1.390 . S
C1526 H1517 0.930 . S
C1526 C1524 1.384 . S
C1526 C1527 1.372 . S
C1527 C1526 1.372 . S
C1527 C1528 1.400 . S
C1527 C1532 1.490 . S
C1528 H1518 0.930 . S
C1528 C1527 1.400 . S
C1528 C1531 1.386 . S
H1529 C1545 0.930 . S
H1530 C1546 0.931 . S
C1531 H1519 0.929 . S
C1531 C1525 1.390 . S
C1531 C1528 1.386 . S
C1532 C1527 1.490 . S
C1532 C1534 1.395 . S
C1532 C1535 1.403 . S
H1533 C1539 0.930 . S
C1534 H1520 0.930 . S
C1534 C1532 1.395 . S
C1534 C1537 1.403 . S
C1535 C1532 1.403 . S
C1535 C1536 1.524 . S
C1535 C1539 1.400 . S
C1536 H1521 0.960 . S
C1536 H1522 0.960 . S
C1536 H1523 0.960 . S
C1536 C1535 1.524 . S
C1537 C1534 1.403 . S
C1537 C1538 1.392 . S
C1537 C1541 1.495 . S
C1538 C1537 1.392 . S
C1538 C1539 1.385 . S
C1538 C1540 1.478 . S
C1539 H1533 0.930 . S
C1539 C1535 1.400 . S
C1539 C1538 1.385 . S
C1540 C1538 1.478 . S
C1540 C1542 1.381 . S
C1540 C1546 1.383 . S
C1541 C1537 1.495 . S
C1541 H1547 0.959 . S
C1541 H1548 0.961 . S
C1541 H1549 0.960 . S
C1542 C1540 1.381 . S
C1542 C1543 1.394 . S
C1542 H1550 0.930 . S
C1543 C1542 1.394 . S
C1543 C1544 1.383 . S
C1543 H1551 0.929 . S
C1544 C1543 1.383 . S
C1544 C1545 1.377 . S
C1545 H1529 0.930 . S
C1545 C1544 1.377 . S
C1545 C1546 1.379 . S
C1546 H1530 0.931 . S
C1546 C1540 1.383 . S
C1546 C1545 1.379 . S
H1547 C1541 0.959 . S
H1548 C1541 0.961 . S
H1549 C1541 0.960 . S
H1550 C1542 0.930 . S
H1551 C1543 0.929 . S
H1552 C1560 0.929 . S
H1553 C1562 0.930 . S
H1554 C1564 0.930 . S
H1555 C1567 0.929 . S
H1556 C1570 0.930 . S
H1557 C1572 0.960 . S
H1558 C1572 0.960 . S
H1559 C1572 0.960 . S
C1560 H1552 0.929 . S
C1560 C1561 1.377 . S
C1560 C1562 1.384 . S
C1561 C1560 1.377 . S
C1561 C1567 1.390 . S
C1562 H1553 0.930 . S
C1562 C1560 1.384 . S
C1562 C1563 1.372 . S
C1563 C1562 1.372 . S
C1563 C1564 1.400 . S
C1563 C1568 1.490 . S
C1564 H1554 0.930 . S
C1564 C1563 1.400 . S
C1564 C1567 1.386 . S
H1565 C1581 0.930 . S
H1566 C1582 0.931 . S
C1567 H1555 0.929 . S
C1567 C1561 1.390 . S
C1567 C1564 1.386 . S
C1568 C1563 1.490 . S
C1568 C1570 1.395 . S
C1568 C1571 1.403 . S
H1569 C1575 0.930 . S
C1570 H1556 0.930 . S
C1570 C1568 1.395 . S
C1570 C1573 1.403 . S
C1571 C1568 1.403 . S
C1571 C1572 1.524 . S
C1571 C1575 1.400 . S
C1572 H1557 0.960 . S
C1572 H1558 0.960 . S
C1572 H1559 0.960 . S
C1572 C1571 1.524 . S
C1573 C1570 1.403 . S
C1573 C1574 1.392 . S
C1573 C1577 1.495 . S
C1574 C1573 1.392 . S
C1574 C1575 1.385 . S
C1574 C1576 1.478 . S
C1575 H1569 0.930 . S
C1575 C1571 1.400 . S
C1575 C1574 1.385 . S
C1576 C1574 1.478 . S
C1576 C1578 1.381 . S
C1576 C1582 1.383 . S
C1577 C1573 1.495 . S
C1577 H1583 0.959 . S
C1577 H1584 0.961 . S
C1577 H1585 0.960 . S
C1578 C1576 1.381 . S
C1578 C1579 1.394 . S
C1578 H1586 0.930 . S
C1579 C1578 1.394 . S
C1579 C1580 1.383 . S
C1579 H1587 0.929 . S
C1580 C1579 1.383 . S
C1580 C1581 1.377 . S
C1581 H1565 0.930 . S
C1581 C1580 1.377 . S
C1581 C1582 1.379 . S
C1582 H1566 0.931 . S
C1582 C1576 1.383 . S
C1582 C1581 1.379 . S
H1583 C1577 0.959 . S
H1584 C1577 0.961 . S
H1585 C1577 0.960 . S
H1586 C1578 0.930 . S
H1587 C1579 0.929 . S
H1588 C1596 0.929 . S
H1589 C1598 0.930 . S
H1590 C1600 0.930 . S
H1591 C1603 0.929 . S
H1592 C1606 0.930 . S
H1593 C1608 0.960 . S
H1594 C1608 0.960 . S
H1595 C1608 0.960 . S
C1596 H1588 0.929 . S
C1596 C1597 1.377 . S
C1596 C1598 1.384 . S
C1597 C1596 1.377 . S
C1597 C1603 1.390 . S
C1598 H1589 0.930 . S
C1598 C1596 1.384 . S
C1598 C1599 1.372 . S
C1599 C1598 1.372 . S
C1599 C1600 1.400 . S
C1599 C1604 1.490 . S
C1600 H1590 0.930 . S
C1600 C1599 1.400 . S
C1600 C1603 1.386 . S
H1601 C1617 0.930 . S
H1602 C1618 0.931 . S
C1603 H1591 0.929 . S
C1603 C1597 1.390 . S
C1603 C1600 1.386 . S
C1604 C1599 1.490 . S
C1604 C1606 1.395 . S
C1604 C1607 1.403 . S
H1605 C1611 0.930 . S
C1606 H1592 0.930 . S
C1606 C1604 1.395 . S
C1606 C1609 1.403 . S
C1607 C1604 1.403 . S
C1607 C1608 1.524 . S
C1607 C1611 1.400 . S
C1608 H1593 0.960 . S
C1608 H1594 0.960 . S
C1608 H1595 0.960 . S
C1608 C1607 1.524 . S
C1609 C1606 1.403 . S
C1609 C1610 1.392 . S
C1609 C1613 1.495 . S
C1610 C1609 1.392 . S
C1610 C1611 1.385 . S
C1610 C1612 1.478 . S
C1611 H1605 0.930 . S
C1611 C1607 1.400 . S
C1611 C1610 1.385 . S
C1612 C1610 1.478 . S
C1612 C1614 1.381 . S
C1612 C1618 1.383 . S
C1613 C1609 1.495 . S
C1613 H1619 0.959 . S
C1613 H1620 0.961 . S
C1613 H1621 0.960 . S
C1614 C1612 1.381 . S
C1614 C1615 1.394 . S
C1614 H1622 0.930 . S
C1615 C1614 1.394 . S
C1615 C1616 1.383 . S
C1615 H1623 0.929 . S
C1616 C1615 1.383 . S
C1616 C1617 1.377 . S
C1617 H1601 0.930 . S
C1617 C1616 1.377 . S
C1617 C1618 1.379 . S
C1618 H1602 0.931 . S
C1618 C1612 1.383 . S
C1618 C1617 1.379 . S
H1619 C1613 0.959 . S
H1620 C1613 0.961 . S
H1621 C1613 0.960 . S
H1622 C1614 0.930 . S
H1623 C1615 0.929 . S
H1624 C1632 0.929 . S
H1625 C1634 0.930 . S
H1626 C1636 0.930 . S
H1627 C1639 0.929 . S
H1628 C1642 0.930 . S
H1629 C1644 0.960 . S
H1630 C1644 0.960 . S
H1631 C1644 0.960 . S
C1632 H1624 0.929 . S
C1632 C1633 1.377 . S
C1632 C1634 1.384 . S
C1633 C1632 1.377 . S
C1633 C1639 1.390 . S
C1634 H1625 0.930 . S
C1634 C1632 1.384 . S
C1634 C1635 1.372 . S
C1635 C1634 1.372 . S
C1635 C1636 1.400 . S
C1635 C1640 1.490 . S
C1636 H1626 0.930 . S
C1636 C1635 1.400 . S
C1636 C1639 1.386 . S
H1637 C1653 0.930 . S
H1638 C1654 0.931 . S
C1639 H1627 0.929 . S
C1639 C1633 1.390 . S
C1639 C1636 1.386 . S
C1640 C1635 1.490 . S
C1640 C1642 1.395 . S
C1640 C1643 1.403 . S
H1641 C1647 0.930 . S
C1642 H1628 0.930 . S
C1642 C1640 1.395 . S
C1642 C1645 1.403 . S
C1643 C1640 1.403 . S
C1643 C1644 1.524 . S
C1643 C1647 1.400 . S
C1644 H1629 0.960 . S
C1644 H1630 0.960 . S
C1644 H1631 0.960 . S
C1644 C1643 1.524 . S
C1645 C1642 1.403 . S
C1645 C1646 1.392 . S
C1645 C1649 1.495 . S
C1646 C1645 1.392 . S
C1646 C1647 1.385 . S
C1646 C1648 1.478 . S
C1647 H1641 0.930 . S
C1647 C1643 1.400 . S
C1647 C1646 1.385 . S
C1648 C1646 1.478 . S
C1648 C1650 1.381 . S
C1648 C1654 1.383 . S
C1649 C1645 1.495 . S
C1649 H1655 0.959 . S
C1649 H1656 0.961 . S
C1649 H1657 0.960 . S
C1650 C1648 1.381 . S
C1650 C1651 1.394 . S
C1650 H1658 0.930 . S
C1651 C1650 1.394 . S
C1651 C1652 1.383 . S
C1651 H1659 0.929 . S
C1652 C1651 1.383 . S
C1652 C1653 1.377 . S
C1653 H1637 0.930 . S
C1653 C1652 1.377 . S
C1653 C1654 1.379 . S
C1654 H1638 0.931 . S
C1654 C1648 1.383 . S
C1654 C1653 1.379 . S
H1655 C1649 0.959 . S
H1656 C1649 0.961 . S
H1657 C1649 0.960 . S
H1658 C1650 0.930 . S
H1659 C1651 0.929 . S
H1660 C1668 0.929 . S
H1661 C1670 0.930 . S
H1662 C1672 0.930 . S
H1663 C1675 0.929 . S
H1664 C1678 0.930 . S
H1665 C1680 0.960 . S
H1666 C1680 0.960 . S
H1667 C1680 0.960 . S
C1668 H1660 0.929 . S
C1668 C1669 1.377 . S
C1668 C1670 1.384 . S
C1669 C1668 1.377 . S
C1669 C1675 1.390 . S
C1670 H1661 0.930 . S
C1670 C1668 1.384 . S
C1670 C1671 1.372 . S
C1671 C1670 1.372 . S
C1671 C1672 1.400 . S
C1671 C1676 1.490 . S
C1672 H1662 0.930 . S
C1672 C1671 1.400 . S
C1672 C1675 1.386 . S
H1673 C1689 0.930 . S
H1674 C1690 0.931 . S
C1675 H1663 0.929 . S
C1675 C1669 1.390 . S
C1675 C1672 1.386 . S
C1676 C1671 1.490 . S
C1676 C1678 1.395 . S
C1676 C1679 1.403 . S
H1677 C1683 0.930 . S
C1678 H1664 0.930 . S
C1678 C1676 1.395 . S
C1678 C1681 1.403 . S
C1679 C1676 1.403 . S
C1679 C1680 1.524 . S
C1679 C1683 1.400 . S
C1680 H1665 0.960 . S
C1680 H1666 0.960 . S
C1680 H1667 0.960 . S
C1680 C1679 1.524 . S
C1681 C1678 1.403 . S
C1681 C1682 1.392 . S
C1681 C1685 1.495 . S
C1682 C1681 1.392 . S
C1682 C1683 1.385 . S
C1682 C1684 1.478 . S
C1683 H1677 0.930 . S
C1683 C1679 1.400 . S
C1683 C1682 1.385 . S
C1684 C1682 1.478 . S
C1684 C1686 1.381 . S
C1684 C1690 1.383 . S
C1685 C1681 1.495 . S
C1685 H1691 0.959 . S
C1685 H1692 0.961 . S
C1685 H1693 0.960 . S
C1686 C1684 1.381 . S
C1686 C1687 1.394 . S
C1686 H1694 0.930 . S
C1687 C1686 1.394 . S
C1687 C1688 1.383 . S
C1687 H1695 0.929 . S
C1688 C1687 1.383 . S
C1688 C1689 1.377 . S
C1689 H1673 0.930 . S
C1689 C1688 1.377 . S
C1689 C1690 1.379 . S
C1690 H1674 0.931 . S
C1690 C1684 1.383 . S
C1690 C1689 1.379 . S
H1691 C1685 0.959 . S
H1692 C1685 0.961 . S
H1693 C1685 0.960 . S
H1694 C1686 0.930 . S
H1695 C1687 0.929 . S
H1696 C1704 0.929 . S
H1697 C1706 0.930 . S
H1698 C1708 0.930 . S
H1699 C1711 0.929 . S
H1700 C1714 0.930 1_565 S
H1701 C1716 0.960 . S
H1702 C1716 0.960 . S
H1703 C1716 0.960 . S
C1704 H1696 0.929 . S
C1704 C1705 1.377 . S
C1704 C1706 1.384 . S
C1705 C1704 1.377 . S
C1705 C1711 1.390 . S
C1706 H1697 0.930 . S
C1706 C1704 1.384 . S
C1706 C1707 1.372 . S
C1707 C1706 1.372 . S
C1707 C1708 1.400 . S
C1707 C1712 1.490 . S
C1708 H1698 0.930 . S
C1708 C1707 1.400 . S
C1708 C1711 1.386 . S
H1709 C1725 0.930 . S
H1710 C1726 0.931 . S
C1711 H1699 0.929 . S
C1711 C1705 1.390 . S
C1711 C1708 1.386 . S
C1712 C1707 1.490 . S
C1712 C1714 1.395 . S
C1712 C1715 1.403 . S
H1713 C1719 0.930 . S
C1714 H1700 0.930 1_545 S
C1714 C1712 1.395 . S
C1714 C1717 1.408 . S
C1715 C1712 1.403 . S
C1715 C1716 1.524 . S
C1715 C1719 1.400 . S
C1716 H1701 0.960 . S
C1716 H1702 0.960 . S
C1716 H1703 0.960 . S
C1716 C1715 1.524 . S
C1717 C1714 1.408 . S
C1717 C1718 1.407 . S
C1717 C1721 1.476 1_545 S
C1718 C1717 1.407 . S
C1718 C1719 1.385 . S
C1718 C1720 1.478 . S
C1719 H1713 0.930 . S
C1719 C1715 1.400 . S
C1719 C1718 1.385 . S
C1720 C1718 1.478 . S
C1720 C1722 1.381 . S
C1720 C1726 1.383 . S
C1721 C1717 1.476 1_565 S
C1721 H1727 0.959 . S
C1721 H1728 0.961 . S
C1721 H1729 0.960 . S
C1722 C1720 1.381 . S
C1722 C1723 1.394 . S
C1722 H1730 0.930 . S
C1723 C1722 1.394 . S
C1723 C1724 1.383 . S
C1723 H1731 0.929 . S
C1724 C1723 1.383 . S
C1724 C1725 1.377 . S
C1725 H1709 0.930 . S
C1725 C1724 1.377 . S
C1725 C1726 1.379 . S
C1726 H1710 0.931 . S
C1726 C1720 1.383 . S
C1726 C1725 1.379 . S
H1727 C1721 0.959 . S
H1728 C1721 0.961 . S
H1729 C1721 0.960 . S
H1730 C1722 0.930 . S
H1731 C1723 0.929 . S
H1732 C1740 0.929 . S
H1733 C1742 0.930 . S
H1734 C1744 0.930 . S
H1735 C1747 0.929 . S
H1736 C1750 0.930 . S
H1737 C1752 0.960 . S
H1738 C1752 0.960 . S
H1739 C1752 0.960 . S
C1740 H1732 0.929 . S
C1740 C1741 1.377 . S
C1740 C1742 1.384 . S
C1741 C1740 1.377 . S
C1741 C1747 1.390 . S
C1742 H1733 0.930 . S
C1742 C1740 1.384 . S
C1742 C1743 1.372 . S
C1743 C1742 1.372 . S
C1743 C1744 1.400 . S
C1743 C1748 1.490 . S
C1744 H1734 0.930 . S
C1744 C1743 1.400 . S
C1744 C1747 1.386 . S
H1745 C1761 0.930 . S
H1746 C1762 0.931 . S
C1747 H1735 0.929 . S
C1747 C1741 1.390 . S
C1747 C1744 1.386 . S
C1748 C1743 1.490 . S
C1748 C1750 1.395 . S
C1748 C1751 1.403 . S
H1749 C1755 0.930 . S
C1750 H1736 0.930 . S
C1750 C1748 1.395 . S
C1750 C1753 1.403 . S
C1751 C1748 1.403 . S
C1751 C1752 1.524 . S
C1751 C1755 1.400 . S
C1752 H1737 0.960 . S
C1752 H1738 0.960 . S
C1752 H1739 0.960 . S
C1752 C1751 1.524 . S
C1753 C1750 1.403 . S
C1753 C1754 1.392 . S
C1753 C1757 1.495 . S
C1754 C1753 1.392 . S
C1754 C1755 1.385 . S
C1754 C1756 1.478 . S
C1755 H1749 0.930 . S
C1755 C1751 1.400 . S
C1755 C1754 1.385 . S
C1756 C1754 1.478 . S
C1756 C1758 1.381 . S
C1756 C1762 1.383 . S
C1757 C1753 1.495 . S
C1757 H1763 0.959 . S
C1757 H1764 0.961 . S
C1757 H1765 0.960 . S
C1758 C1756 1.381 . S
C1758 C1759 1.394 . S
C1758 H1766 0.930 . S
C1759 C1758 1.394 . S
C1759 C1760 1.383 . S
C1759 H1767 0.929 . S
C1760 C1759 1.383 . S
C1760 C1761 1.377 . S
C1761 H1745 0.930 . S
C1761 C1760 1.377 . S
C1761 C1762 1.379 . S
C1762 H1746 0.931 . S
C1762 C1756 1.383 . S
C1762 C1761 1.379 . S
H1763 C1757 0.959 . S
H1764 C1757 0.961 . S
H1765 C1757 0.960 . S
H1766 C1758 0.930 . S
H1767 C1759 0.929 . S
H1768 C1776 0.929 . S
H1769 C1778 0.930 . S
H1770 C1780 0.930 . S
H1771 C1783 0.929 . S
H1772 C1786 0.930 . S
H1773 C1788 0.960 . S
H1774 C1788 0.960 . S
H1775 C1788 0.960 . S
C1776 H1768 0.929 . S
C1776 C1777 1.377 . S
C1776 C1778 1.384 . S
C1777 C1776 1.377 . S
C1777 C1783 1.390 . S
C1778 H1769 0.930 . S
C1778 C1776 1.384 . S
C1778 C1779 1.372 . S
C1779 C1778 1.372 . S
C1779 C1780 1.400 . S
C1779 C1784 1.490 . S
C1780 H1770 0.930 . S
C1780 C1779 1.400 . S
C1780 C1783 1.386 . S
H1781 C1797 0.930 . S
H1782 C1798 0.931 . S
C1783 H1771 0.929 . S
C1783 C1777 1.390 . S
C1783 C1780 1.386 . S
C1784 C1779 1.490 . S
C1784 C1786 1.395 . S
C1784 C1787 1.403 . S
H1785 C1791 0.930 . S
C1786 H1772 0.930 . S
C1786 C1784 1.395 . S
C1786 C1789 1.403 . S
C1787 C1784 1.403 . S
C1787 C1788 1.524 . S
C1787 C1791 1.400 . S
C1788 H1773 0.960 . S
C1788 H1774 0.960 . S
C1788 H1775 0.960 . S
C1788 C1787 1.524 . S
C1789 C1786 1.403 . S
C1789 C1790 1.392 . S
C1789 C1793 1.495 . S
C1790 C1789 1.392 . S
C1790 C1791 1.385 . S
C1790 C1792 1.478 . S
C1791 H1785 0.930 . S
C1791 C1787 1.400 . S
C1791 C1790 1.385 . S
C1792 C1790 1.478 . S
C1792 C1794 1.381 . S
C1792 C1798 1.383 . S
C1793 C1789 1.495 . S
C1793 H1799 0.959 . S
C1793 H1800 0.961 . S
C1793 H1801 0.960 . S
C1794 C1792 1.381 . S
C1794 C1795 1.394 . S
C1794 H1802 0.930 . S
C1795 C1794 1.394 . S
C1795 C1796 1.383 . S
C1795 H1803 0.929 . S
C1796 C1795 1.383 . S
C1796 C1797 1.377 . S
C1797 H1781 0.930 . S
C1797 C1796 1.377 . S
C1797 C1798 1.379 . S
C1798 H1782 0.931 . S
C1798 C1792 1.383 . S
C1798 C1797 1.379 . S
H1799 C1793 0.959 . S
H1800 C1793 0.961 . S
H1801 C1793 0.960 . S
H1802 C1794 0.930 . S
H1803 C1795 0.929 . S
H1804 C1812 0.929 . S
H1805 C1814 0.930 . S
H1806 C1816 0.930 . S
H1807 C1819 0.929 . S
H1808 C1822 0.930 . S
H1809 C1824 0.960 . S
H1810 C1824 0.960 . S
H1811 C1824 0.960 . S
C1812 H1804 0.929 . S
C1812 C1813 1.377 . S
C1812 C1814 1.384 . S
C1813 C1812 1.377 . S
C1813 C1819 1.390 . S
C1814 H1805 0.930 . S
C1814 C1812 1.384 . S
C1814 C1815 1.372 . S
C1815 C1814 1.372 . S
C1815 C1816 1.400 . S
C1815 C1820 1.490 . S
C1816 H1806 0.930 . S
C1816 C1815 1.400 . S
C1816 C1819 1.386 . S
H1817 C1833 0.930 . S
H1818 C1834 0.931 . S
C1819 H1807 0.929 . S
C1819 C1813 1.390 . S
C1819 C1816 1.386 . S
C1820 C1815 1.490 . S
C1820 C1822 1.395 . S
C1820 C1823 1.403 . S
H1821 C1827 0.930 . S
C1822 H1808 0.930 . S
C1822 C1820 1.395 . S
C1822 C1825 1.403 . S
C1823 C1820 1.403 . S
C1823 C1824 1.524 . S
C1823 C1827 1.400 . S
C1824 H1809 0.960 . S
C1824 H1810 0.960 . S
C1824 H1811 0.960 . S
C1824 C1823 1.524 . S
C1825 C1822 1.403 . S
C1825 C1826 1.392 . S
C1825 C1829 1.495 . S
C1826 C1825 1.392 . S
C1826 C1827 1.385 . S
C1826 C1828 1.478 . S
C1827 H1821 0.930 . S
C1827 C1823 1.400 . S
C1827 C1826 1.385 . S
C1828 C1826 1.478 . S
C1828 C1830 1.381 . S
C1828 C1834 1.383 . S
C1829 C1825 1.495 . S
C1829 H1835 0.959 . S
C1829 H1836 0.961 . S
C1829 H1837 0.960 . S
C1830 C1828 1.381 . S
C1830 C1831 1.394 . S
C1830 H1838 0.930 . S
C1831 C1830 1.394 . S
C1831 C1832 1.383 . S
C1831 H1839 0.929 . S
C1832 C1831 1.383 . S
C1832 C1833 1.377 . S
C1833 H1817 0.930 . S
C1833 C1832 1.377 . S
C1833 C1834 1.379 . S
C1834 H1818 0.931 . S
C1834 C1828 1.383 . S
C1834 C1833 1.379 . S
H1835 C1829 0.959 . S
H1836 C1829 0.961 . S
H1837 C1829 0.960 . S
H1838 C1830 0.930 . S
H1839 C1831 0.929 . S
H1840 C1848 0.929 . S
H1841 C1850 0.930 . S
H1842 C1852 0.930 . S
H1843 C1855 0.929 . S
H1844 C1858 0.930 . S
H1845 C1860 0.960 1_565 S
H1846 C1860 0.960 . S
H1847 C1860 0.960 1_565 S
C1848 H1840 0.929 . S
C1848 C1849 1.377 . S
C1848 C1850 1.384 . S
C1849 C1848 1.377 . S
C1849 C1855 1.390 . S
C1850 H1841 0.930 . S
C1850 C1848 1.384 . S
C1850 C1851 1.372 . S
C1851 C1850 1.372 . S
C1851 C1852 1.400 . S
C1851 C1856 1.490 . S
C1852 H1842 0.930 . S
C1852 C1851 1.400 . S
C1852 C1855 1.386 . S
H1853 C1869 0.930 . S
H1854 C1870 0.931 . S
C1855 H1843 0.929 . S
C1855 C1849 1.390 . S
C1855 C1852 1.386 . S
C1856 C1851 1.490 . S
C1856 C1858 1.395 . S
C1856 C1859 1.403 . S
H1857 C1863 0.930 . S
C1858 H1844 0.930 . S
C1858 C1856 1.395 . S
C1858 C1861 1.403 . S
C1859 C1856 1.403 . S
C1859 C1860 1.524 . S
C1859 C1863 1.400 . S
C1860 H1845 0.960 1_545 S
C1860 H1846 0.960 . S
C1860 H1847 0.960 1_545 S
C1860 C1859 1.524 . S
C1861 C1858 1.403 . S
C1861 C1862 1.392 . S
C1861 C1865 1.495 . S
C1862 C1861 1.392 . S
C1862 C1863 1.385 . S
C1862 C1864 1.478 . S
C1863 H1857 0.930 . S
C1863 C1859 1.400 . S
C1863 C1862 1.385 . S
C1864 C1862 1.478 . S
C1864 C1866 1.381 . S
C1864 C1870 1.383 . S
C1865 C1861 1.495 . S
C1865 H1871 0.959 . S
C1865 H1872 0.961 . S
C1865 H1873 0.960 . S
C1866 C1864 1.381 . S
C1866 C1867 1.394 . S
C1866 H1874 0.930 . S
C1867 C1866 1.394 . S
C1867 C1868 1.383 . S
C1867 H1875 0.929 . S
C1868 C1867 1.383 . S
C1868 C1869 1.377 . S
C1869 H1853 0.930 . S
C1869 C1868 1.377 . S
C1869 C1870 1.379 . S
C1870 H1854 0.931 . S
C1870 C1864 1.383 . S
C1870 C1869 1.379 . S
H1871 C1865 0.959 . S
H1872 C1865 0.961 . S
H1873 C1865 0.960 . S
H1874 C1866 0.930 . S
H1875 C1867 0.929 . S
H1876 C1884 0.929 . S
H1877 C1886 0.930 . S
H1878 C1888 0.930 . S
H1879 C1891 0.929 . S
H1880 C1894 0.930 . S
H1881 C1896 0.960 . S
H1882 C1896 0.960 . S
H1883 C1896 0.960 . S
C1884 H1876 0.929 . S
C1884 C1885 1.377 . S
C1884 C1886 1.384 . S
C1885 C1884 1.377 . S
C1885 C1891 1.390 . S
C1886 H1877 0.930 . S
C1886 C1884 1.384 . S
C1886 C1887 1.372 . S
C1887 C1886 1.372 . S
C1887 C1888 1.400 . S
C1887 C1892 1.490 . S
C1888 H1878 0.930 . S
C1888 C1887 1.400 . S
C1888 C1891 1.386 . S
H1889 C1905 0.930 . S
H1890 C1906 0.931 . S
C1891 H1879 0.929 . S
C1891 C1885 1.390 . S
C1891 C1888 1.386 . S
C1892 C1887 1.490 . S
C1892 C1894 1.395 . S
C1892 C1895 1.403 . S
H1893 C1899 0.930 . S
C1894 H1880 0.930 . S
C1894 C1892 1.395 . S
C1894 C1897 1.403 . S
C1895 C1892 1.403 . S
C1895 C1896 1.524 . S
C1895 C1899 1.400 . S
C1896 H1881 0.960 . S
C1896 H1882 0.960 . S
C1896 H1883 0.960 . S
C1896 C1895 1.524 . S
C1897 C1894 1.403 . S
C1897 C1898 1.392 . S
C1897 C1901 1.495 . S
C1898 C1897 1.392 . S
C1898 C1899 1.385 . S
C1898 C1900 1.478 . S
C1899 H1893 0.930 . S
C1899 C1895 1.400 . S
C1899 C1898 1.385 . S
C1900 C1898 1.478 . S
C1900 C1902 1.381 . S
C1900 C1906 1.383 . S
C1901 C1897 1.495 . S
C1901 H1907 0.959 . S
C1901 H1908 0.961 . S
C1901 H1909 0.960 . S
C1902 C1900 1.381 . S
C1902 C1903 1.394 . S
C1902 H1910 0.930 . S
C1903 C1902 1.394 . S
C1903 C1904 1.383 . S
C1903 H1911 0.929 . S
C1904 C1903 1.383 . S
C1904 C1905 1.377 . S
C1905 H1889 0.930 . S
C1905 C1904 1.377 . S
C1905 C1906 1.379 . S
C1906 H1890 0.931 . S
C1906 C1900 1.383 . S
C1906 C1905 1.379 . S
H1907 C1901 0.959 . S
H1908 C1901 0.961 . S
H1909 C1901 0.960 . S
H1910 C1902 0.930 . S
H1911 C1903 0.929 . S
H1912 C1920 0.929 . S
H1913 C1922 0.930 . S
H1914 C1924 0.930 . S
H1915 C1927 0.929 . S
H1916 C1930 0.930 . S
H1917 C1932 0.960 . S
H1918 C1932 0.960 . S
H1919 C1932 0.960 . S
C1920 H1912 0.929 . S
C1920 C1921 1.377 . S
C1920 C1922 1.384 . S
C1921 C1920 1.377 . S
C1921 C1927 1.390 . S
C1922 H1913 0.930 . S
C1922 C1920 1.384 . S
C1922 C1923 1.372 . S
C1923 C1922 1.372 . S
C1923 C1924 1.400 . S
C1923 C1928 1.490 . S
C1924 H1914 0.930 . S
C1924 C1923 1.400 . S
C1924 C1927 1.386 . S
H1925 C1941 0.930 . S
H1926 C1942 0.931 . S
C1927 H1915 0.929 . S
C1927 C1921 1.390 . S
C1927 C1924 1.386 . S
C1928 C1923 1.490 . S
C1928 C1930 1.395 . S
C1928 C1931 1.403 . S
H1929 C1935 0.930 . S
C1930 H1916 0.930 . S
C1930 C1928 1.395 . S
C1930 C1933 1.403 . S
C1931 C1928 1.403 . S
C1931 C1932 1.524 . S
C1931 C1935 1.400 . S
C1932 H1917 0.960 . S
C1932 H1918 0.960 . S
C1932 H1919 0.960 . S
C1932 C1931 1.524 . S
C1933 C1930 1.403 . S
C1933 C1934 1.392 . S
C1933 C1937 1.495 . S
C1934 C1933 1.392 . S
C1934 C1935 1.385 . S
C1934 C1936 1.478 . S
C1935 H1929 0.930 . S
C1935 C1931 1.400 . S
C1935 C1934 1.385 . S
C1936 C1934 1.478 . S
C1936 C1938 1.381 . S
C1936 C1942 1.383 . S
C1937 C1933 1.495 . S
C1937 H1943 0.959 . S
C1937 H1944 0.961 . S
C1937 H1945 0.960 . S
C1938 C1936 1.381 . S
C1938 C1939 1.394 . S
C1938 H1946 0.930 . S
C1939 C1938 1.394 . S
C1939 C1940 1.383 . S
C1939 H1947 0.929 . S
C1940 C1939 1.383 . S
C1940 C1941 1.377 . S
C1941 H1925 0.930 . S
C1941 C1940 1.377 . S
C1941 C1942 1.379 . S
C1942 H1926 0.931 . S
C1942 C1936 1.383 . S
C1942 C1941 1.379 . S
H1943 C1937 0.959 . S
H1944 C1937 0.961 . S
H1945 C1937 0.960 . S
H1946 C1938 0.930 . S
H1947 C1939 0.929 . S
H1948 C1956 0.929 . S
H1949 C1958 0.930 . S
H1950 C1960 0.930 . S
H1951 C1963 0.929 . S
H1952 C1966 0.930 . S
H1953 C1968 0.960 . S
H1954 C1968 0.960 . S
H1955 C1968 0.960 . S
C1956 H1948 0.929 . S
C1956 C1957 1.377 . S
C1956 C1958 1.384 . S
C1957 C1956 1.377 . S
C1957 C1963 1.390 . S
C1958 H1949 0.930 . S
C1958 C1956 1.384 . S
C1958 C1959 1.372 . S
C1959 C1958 1.372 . S
C1959 C1960 1.400 . S
C1959 C1964 1.490 . S
C1960 H1950 0.930 . S
C1960 C1959 1.400 . S
C1960 C1963 1.386 . S
H1961 C1977 0.930 . S
H1962 C1978 0.931 . S
C1963 H1951 0.929 . S
C1963 C1957 1.390 . S
C1963 C1960 1.386 . S
C1964 C1959 1.490 . S
C1964 C1966 1.395 . S
C1964 C1967 1.403 . S
H1965 C1971 0.930 . S
C1966 H1952 0.930 . S
C1966 C1964 1.395 . S
C1966 C1969 1.403 . S
C1967 C1964 1.403 . S
C1967 C1968 1.524 . S
C1967 C1971 1.400 . S
C1968 H1953 0.960 . S
C1968 H1954 0.960 . S
C1968 H1955 0.960 . S
C1968 C1967 1.524 . S
C1969 C1966 1.403 . S
C1969 C1970 1.392 . S
C1969 C1973 1.495 . S
C1970 C1969 1.392 . S
C1970 C1971 1.385 . S
C1970 C1972 1.478 . S
C1971 H1965 0.930 . S
C1971 C1967 1.400 . S
C1971 C1970 1.385 . S
C1972 C1970 1.478 . S
C1972 C1974 1.381 . S
C1972 C1978 1.383 . S
C1973 C1969 1.495 . S
C1973 H1979 0.959 . S
C1973 H1980 0.961 . S
C1973 H1981 0.960 . S
C1974 C1972 1.381 . S
C1974 C1975 1.394 . S
C1974 H1982 0.930 . S
C1975 C1974 1.394 . S
C1975 C1976 1.383 . S
C1975 H1983 0.929 . S
C1976 C1975 1.383 . S
C1976 C1977 1.377 . S
C1977 H1961 0.930 . S
C1977 C1976 1.377 . S
C1977 C1978 1.379 . S
C1978 H1962 0.931 . S
C1978 C1972 1.383 . S
C1978 C1977 1.379 . S
H1979 C1973 0.959 . S
H1980 C1973 0.961 . S
H1981 C1973 0.960 . S
H1982 C1974 0.930 . S
H1983 C1975 0.929 . S
H1984 C1992 0.929 . S
H1985 C1994 0.930 . S
H1986 C1996 0.930 . S
H1987 C1999 0.929 . S
H1988 C2002 0.940 . S
H1989 C2004 0.960 . S
H1990 C2004 0.960 . S
H1991 C2004 0.960 . S
C1992 H1984 0.929 . S
C1992 C1993 1.377 . S
C1992 C1994 1.384 . S
C1993 C1992 1.377 . S
C1993 C1999 1.390 . S
C1994 H1985 0.930 . S
C1994 C1992 1.384 . S
C1994 C1995 1.372 . S
C1995 C1994 1.372 . S
C1995 C1996 1.400 . S
C1995 C2000 1.490 . S
C1996 H1986 0.930 . S
C1996 C1995 1.400 . S
C1996 C1999 1.386 . S
H1997 C2013 0.930 . S
H1998 C2014 0.931 . S
C1999 H1987 0.929 . S
C1999 C1993 1.390 . S
C1999 C1996 1.386 . S
C2000 C1995 1.490 . S
C2000 C2002 1.395 . S
C2000 C2003 1.403 . S
H2001 C2007 0.930 . S
C2002 H1988 0.940 . S
C2002 C2000 1.395 . S
C2002 C2005 1.403 . S
C2003 C2000 1.403 . S
C2003 C2004 1.524 . S
C2003 C2007 1.400 . S
C2004 H1989 0.960 . S
C2004 H1990 0.960 . S
C2004 H1991 0.960 . S
C2004 C2003 1.524 . S
C2005 C2002 1.403 . S
C2005 C2006 1.392 . S
C2005 C2009 1.495 1_655 S
C2006 C2005 1.392 . S
C2006 C2007 1.385 . S
C2006 C2008 1.478 . S
C2007 H2001 0.930 . S
C2007 C2003 1.400 . S
C2007 C2006 1.385 . S
C2008 C2006 1.478 . S
C2008 C2010 1.381 . S
C2008 C2014 1.383 1_655 S
C2009 C2005 1.495 1_455 S
C2009 H2015 0.959 . S
C2009 H2016 0.961 . S
C2009 H2017 0.960 . S
C2010 C2008 1.381 . S
C2010 C2011 1.394 . S
C2010 H2018 0.930 . S
C2011 C2010 1.394 . S
C2011 C2012 1.383 . S
C2011 H2019 0.929 . S
C2012 C2011 1.383 . S
C2012 C2013 1.377 1_655 S
C2013 H1997 0.930 . S
C2013 C2012 1.377 1_455 S
C2013 C2014 1.379 . S
C2014 H1998 0.931 . S
C2014 C2008 1.383 1_455 S
C2014 C2013 1.379 . S
H2015 C2009 0.959 . S
H2016 C2009 0.961 . S
H2017 C2009 0.960 . S
H2018 C2010 0.930 . S
H2019 C2011 0.929 . S
H2020 C2028 0.929 . S
H2021 C2030 0.930 . S
H2022 C2032 0.930 . S
H2023 C2035 0.929 . S
H2024 C2038 0.930 . S
H2025 C2040 0.960 . S
H2026 C2040 0.960 . S
H2027 C2040 0.960 . S
C2028 H2020 0.929 . S
C2028 C2029 1.377 . S
C2028 C2030 1.384 . S
C2029 C2028 1.377 . S
C2029 C2035 1.390 . S
C2030 H2021 0.930 . S
C2030 C2028 1.384 . S
C2030 C2031 1.372 . S
C2031 C2030 1.372 . S
C2031 C2032 1.400 . S
C2031 C2036 1.490 . S
C2032 H2022 0.930 . S
C2032 C2031 1.400 . S
C2032 C2035 1.386 . S
H2033 C2049 0.930 . S
H2034 C2050 0.931 . S
C2035 H2023 0.929 . S
C2035 C2029 1.390 . S
C2035 C2032 1.386 . S
C2036 C2031 1.490 . S
C2036 C2038 1.395 . S
C2036 C2039 1.403 . S
H2037 C2043 0.930 . S
C2038 H2024 0.930 . S
C2038 C2036 1.395 . S
C2038 C2041 1.403 . S
C2039 C2036 1.403 . S
C2039 C2040 1.524 . S
C2039 C2043 1.400 . S
C2040 H2025 0.960 . S
C2040 H2026 0.960 . S
C2040 H2027 0.960 . S
C2040 C2039 1.524 . S
C2041 C2038 1.403 . S
C2041 C2042 1.392 . S
C2041 C2045 1.495 . S
C2042 C2041 1.392 . S
C2042 C2043 1.385 . S
C2042 C2044 1.478 . S
C2043 H2037 0.930 . S
C2043 C2039 1.400 . S
C2043 C2042 1.385 . S
C2044 C2042 1.478 . S
C2044 C2046 1.381 . S
C2044 C2050 1.383 . S
C2045 C2041 1.495 . S
C2045 H2051 0.959 . S
C2045 H2052 0.961 . S
C2045 H2053 0.960 . S
C2046 C2044 1.381 . S
C2046 C2047 1.394 . S
C2046 H2054 0.930 . S
C2047 C2046 1.394 . S
C2047 C2048 1.383 . S
C2047 H2055 0.929 . S
C2048 C2047 1.383 . S
C2048 C2049 1.377 . S
C2049 H2033 0.930 . S
C2049 C2048 1.377 . S
C2049 C2050 1.379 . S
C2050 H2034 0.931 . S
C2050 C2044 1.383 . S
C2050 C2049 1.379 . S
H2051 C2045 0.959 . S
H2052 C2045 0.961 . S
H2053 C2045 0.960 . S
H2054 C2046 0.930 . S
H2055 C2047 0.929 . S
H2056 C2064 0.929 . S
H2057 C2066 0.930 . S
H2058 C2068 0.930 . S
H2059 C2071 0.929 . S
H2060 C2074 0.930 1_655 S
H2061 C2076 0.960 . S
H2062 C2076 0.960 . S
H2063 C2076 0.960 . S
C2064 H2056 0.929 . S
C2064 C2065 1.377 . S
C2064 C2066 1.384 . S
C2065 C2064 1.377 . S
C2065 C2071 1.390 . S
C2066 H2057 0.930 . S
C2066 C2064 1.384 . S
C2066 C2067 1.372 . S
C2067 C2066 1.372 . S
C2067 C2068 1.400 . S
C2067 C2072 1.490 . S
C2068 H2058 0.930 . S
C2068 C2067 1.400 . S
C2068 C2071 1.386 . S
H2069 C2085 0.930 . S
H2070 C2086 0.931 . S
C2071 H2059 0.929 . S
C2071 C2065 1.390 . S
C2071 C2068 1.386 . S
C2072 C2067 1.490 . S
C2072 C2074 1.395 . S
C2072 C2075 1.403 . S
H2073 C2079 0.930 . S
C2074 H2060 0.930 1_455 S
C2074 C2072 1.395 . S
C2074 C2077 1.403 . S
C2075 C2072 1.403 . S
C2075 C2076 1.524 . S
C2075 C2079 1.400 . S
C2076 H2061 0.960 . S
C2076 H2062 0.960 . S
C2076 H2063 0.960 . S
C2076 C2075 1.524 . S
C2077 C2074 1.403 . S
C2077 C2078 1.392 . S
C2077 C2081 1.495 1_455 S
C2078 C2077 1.392 . S
C2078 C2079 1.385 . S
C2078 C2080 1.478 . S
C2079 H2073 0.930 . S
C2079 C2075 1.400 . S
C2079 C2078 1.385 . S
C2080 C2078 1.478 . S
C2080 C2082 1.339 1_455 S
C2080 C2086 1.383 . S
C2081 C2077 1.495 1_655 S
C2081 H2087 0.959 . S
C2081 H2088 0.961 . S
C2081 H2089 0.960 . S
C2082 C2080 1.339 1_655 S
C2082 C2083 1.401 . S
C2082 H2090 0.968 . S
C2083 C2082 1.401 . S
C2083 C2084 1.383 1_655 S
C2083 H2091 0.929 . S
C2084 C2083 1.383 1_455 S
C2084 C2085 1.377 . S
C2085 H2069 0.930 . S
C2085 C2084 1.377 . S
C2085 C2086 1.379 . S
C2086 H2070 0.931 . S
C2086 C2080 1.383 . S
C2086 C2085 1.379 . S
H2087 C2081 0.959 . S
H2088 C2081 0.961 . S
H2089 C2081 0.960 . S
H2090 C2082 0.968 . S
H2091 C2083 0.929 . S
H2092 C2100 0.929 . S
H2093 C2102 0.930 . S
H2094 C2104 0.930 . S
H2095 C2107 0.929 . S
H2096 C2110 0.930 . S
H2097 C2112 0.960 . S
H2098 C2112 0.960 . S
H2099 C2112 0.960 . S
C2100 H2092 0.929 . S
C2100 C2101 1.377 . S
C2100 C2102 1.384 . S
C2101 C2100 1.377 . S
C2101 C2107 1.390 . S
C2102 H2093 0.930 . S
C2102 C2100 1.384 . S
C2102 C2103 1.372 . S
C2103 C2102 1.372 . S
C2103 C2104 1.400 . S
C2103 C2108 1.490 . S
C2104 H2094 0.930 . S
C2104 C2103 1.400 . S
C2104 C2107 1.386 . S
H2105 C2121 0.930 . S
H2106 C2122 0.931 . S
C2107 H2095 0.929 . S
C2107 C2101 1.390 . S
C2107 C2104 1.386 . S
C2108 C2103 1.490 . S
C2108 C2110 1.395 . S
C2108 C2111 1.403 . S
H2109 C2115 0.930 . S
C2110 H2096 0.930 . S
C2110 C2108 1.395 . S
C2110 C2113 1.403 . S
C2111 C2108 1.403 . S
C2111 C2112 1.524 . S
C2111 C2115 1.400 . S
C2112 H2097 0.960 . S
C2112 H2098 0.960 . S
C2112 H2099 0.960 . S
C2112 C2111 1.524 . S
C2113 C2110 1.403 . S
C2113 C2114 1.392 . S
C2113 C2117 1.495 . S
C2114 C2113 1.392 . S
C2114 C2115 1.385 . S
C2114 C2116 1.478 . S
C2115 H2109 0.930 . S
C2115 C2111 1.400 . S
C2115 C2114 1.385 . S
C2116 C2114 1.478 . S
C2116 C2118 1.381 . S
C2116 C2122 1.383 . S
C2117 C2113 1.495 . S
C2117 H2123 0.959 . S
C2117 H2124 0.961 . S
C2117 H2125 0.960 . S
C2118 C2116 1.381 . S
C2118 C2119 1.394 . S
C2118 H2126 0.930 . S
C2119 C2118 1.394 . S
C2119 C2120 1.383 . S
C2119 H2127 0.929 . S
C2120 C2119 1.383 . S
C2120 C2121 1.377 . S
C2121 H2105 0.930 . S
C2121 C2120 1.377 . S
C2121 C2122 1.379 . S
C2122 H2106 0.931 . S
C2122 C2116 1.383 . S
C2122 C2121 1.379 . S
H2123 C2117 0.959 . S
H2124 C2117 0.961 . S
H2125 C2117 0.960 . S
H2126 C2118 0.930 . S
H2127 C2119 0.929 . S
H2128 C2136 0.929 . S
H2129 C2138 0.930 . S
H2130 C2140 0.930 . S
H2131 C2143 0.929 . S
H2132 C2146 0.930 . S
H2133 C2148 0.960 . S
H2134 C2148 0.960 . S
H2135 C2148 0.960 . S
C2136 H2128 0.929 . S
C2136 C2137 1.377 . S
C2136 C2138 1.384 . S
C2137 C2136 1.377 . S
C2137 C2143 1.390 . S
C2138 H2129 0.930 . S
C2138 C2136 1.384 . S
C2138 C2139 1.372 . S
C2139 C2138 1.372 . S
C2139 C2140 1.400 . S
C2139 C2144 1.490 . S
C2140 H2130 0.930 . S
C2140 C2139 1.400 . S
C2140 C2143 1.386 . S
H2141 C2157 0.930 . S
H2142 C2158 0.931 . S
C2143 H2131 0.929 . S
C2143 C2137 1.390 . S
C2143 C2140 1.386 . S
C2144 C2139 1.490 . S
C2144 C2146 1.395 . S
C2144 C2147 1.403 . S
H2145 C2151 0.930 . S
C2146 H2132 0.930 . S
C2146 C2144 1.395 . S
C2146 C2149 1.403 . S
C2147 C2144 1.403 . S
C2147 C2148 1.524 . S
C2147 C2151 1.400 . S
C2148 H2133 0.960 . S
C2148 H2134 0.960 . S
C2148 H2135 0.960 . S
C2148 C2147 1.524 . S
C2149 C2146 1.403 . S
C2149 C2150 1.392 . S
C2149 C2153 1.495 . S
C2150 C2149 1.392 . S
C2150 C2151 1.385 . S
C2150 C2152 1.478 . S
C2151 H2145 0.930 . S
C2151 C2147 1.400 . S
C2151 C2150 1.385 . S
C2152 C2150 1.478 . S
C2152 C2154 1.381 . S
C2152 C2158 1.383 . S
C2153 C2149 1.495 . S
C2153 H2159 0.959 . S
C2153 H2160 0.961 . S
C2153 H2161 0.960 . S
C2154 C2152 1.381 . S
C2154 C2155 1.394 . S
C2154 H2162 0.930 . S
C2155 C2154 1.394 . S
C2155 C2156 1.383 . S
C2155 H2163 0.929 . S
C2156 C2155 1.383 . S
C2156 C2157 1.377 . S
C2157 H2141 0.930 . S
C2157 C2156 1.377 . S
C2157 C2158 1.379 . S
C2158 H2142 0.931 . S
C2158 C2152 1.383 . S
C2158 C2157 1.379 . S
H2159 C2153 0.959 . S
H2160 C2153 0.961 . S
H2161 C2153 0.960 . S
H2162 C2154 0.930 . S
H2163 C2155 0.929 . S
H2164 C2172 0.929 . S
H2165 C2174 0.930 . S
H2166 C2176 0.930 . S
H2167 C2179 0.929 . S
H2168 C2182 0.930 . S
H2169 C2184 0.960 . S
H2170 C2184 0.960 . S
H2171 C2184 0.960 . S
C2172 H2164 0.929 . S
C2172 C2173 1.377 . S
C2172 C2174 1.384 . S
C2173 C2172 1.377 . S
C2173 C2179 1.390 . S
C2174 H2165 0.930 . S
C2174 C2172 1.384 . S
C2174 C2175 1.372 . S
C2175 C2174 1.372 . S
C2175 C2176 1.400 . S
C2175 C2180 1.490 . S
C2176 H2166 0.930 . S
C2176 C2175 1.400 . S
C2176 C2179 1.386 . S
H2177 C2193 0.930 . S
H2178 C2194 0.931 . S
C2179 H2167 0.929 . S
C2179 C2173 1.390 . S
C2179 C2176 1.386 . S
C2180 C2175 1.490 . S
C2180 C2182 1.395 . S
C2180 C2183 1.403 . S
H2181 C2187 0.930 . S
C2182 H2168 0.930 . S
C2182 C2180 1.395 . S
C2182 C2185 1.403 . S
C2183 C2180 1.403 . S
C2183 C2184 1.524 . S
C2183 C2187 1.400 . S
C2184 H2169 0.960 . S
C2184 H2170 0.960 . S
C2184 H2171 0.960 . S
C2184 C2183 1.524 . S
C2185 C2182 1.403 . S
C2185 C2186 1.392 . S
C2185 C2189 1.495 . S
C2186 C2185 1.392 . S
C2186 C2187 1.385 . S
C2186 C2188 1.478 . S
C2187 H2181 0.930 . S
C2187 C2183 1.400 . S
C2187 C2186 1.385 . S
C2188 C2186 1.478 . S
C2188 C2190 1.381 . S
C2188 C2194 1.383 . S
C2189 C2185 1.495 . S
C2189 H2195 0.959 . S
C2189 H2196 0.961 . S
C2189 H2197 0.960 . S
C2190 C2188 1.381 . S
C2190 C2191 1.394 . S
C2190 H2198 0.930 . S
C2191 C2190 1.394 . S
C2191 C2192 1.383 . S
C2191 H2199 0.929 . S
C2192 C2191 1.383 . S
C2192 C2193 1.377 . S
C2193 H2177 0.930 . S
C2193 C2192 1.377 . S
C2193 C2194 1.379 . S
C2194 H2178 0.931 . S
C2194 C2188 1.383 . S
C2194 C2193 1.379 . S
H2195 C2189 0.959 . S
H2196 C2189 0.961 . S
H2197 C2189 0.960 . S
H2198 C2190 0.930 . S
H2199 C2191 0.929 . S
H2200 C2208 0.929 . S
H2201 C2210 0.930 . S
H2202 C2212 0.930 . S
H2203 C2215 0.929 . S
H2204 C2218 0.930 . S
H2205 C2220 0.960 . S
H2206 C2220 0.960 . S
H2207 C2220 0.960 . S
C2208 H2200 0.929 . S
C2208 C2209 1.377 . S
C2208 C2210 1.384 . S
C2209 C2208 1.377 . S
C2209 C2215 1.390 . S
C2210 H2201 0.930 . S
C2210 C2208 1.384 . S
C2210 C2211 1.372 . S
C2211 C2210 1.372 . S
C2211 C2212 1.400 . S
C2211 C2216 1.490 . S
C2212 H2202 0.930 . S
C2212 C2211 1.400 . S
C2212 C2215 1.386 . S
H2213 C2229 0.930 . S
H2214 C2230 0.931 . S
C2215 H2203 0.929 . S
C2215 C2209 1.390 . S
C2215 C2212 1.386 . S
C2216 C2211 1.490 . S
C2216 C2218 1.395 . S
C2216 C2219 1.403 . S
H2217 C2223 0.930 . S
C2218 H2204 0.930 . S
C2218 C2216 1.395 . S
C2218 C2221 1.403 . S
C2219 C2216 1.403 . S
C2219 C2220 1.524 . S
C2219 C2223 1.400 . S
C2220 H2205 0.960 . S
C2220 H2206 0.960 . S
C2220 H2207 0.960 . S
C2220 C2219 1.524 . S
C2221 C2218 1.403 . S
C2221 C2222 1.392 . S
C2221 C2225 1.495 . S
C2222 C2221 1.392 . S
C2222 C2223 1.385 . S
C2222 C2224 1.478 . S
C2223 H2217 0.930 . S
C2223 C2219 1.400 . S
C2223 C2222 1.385 . S
C2224 C2222 1.478 . S
C2224 C2226 1.381 . S
C2224 C2230 1.383 . S
C2225 C2221 1.495 . S
C2225 H2231 0.959 . S
C2225 H2232 0.961 . S
C2225 H2233 0.960 . S
C2226 C2224 1.381 . S
C2226 C2227 1.394 . S
C2226 H2234 0.930 . S
C2227 C2226 1.394 . S
C2227 C2228 1.383 . S
C2227 H2235 0.929 . S
C2228 C2227 1.383 . S
C2228 C2229 1.377 . S
C2229 H2213 0.930 . S
C2229 C2228 1.377 . S
C2229 C2230 1.379 . S
C2230 H2214 0.931 . S
C2230 C2224 1.383 . S
C2230 C2229 1.379 . S
H2231 C2225 0.959 . S
H2232 C2225 0.961 . S
H2233 C2225 0.960 . S
H2234 C2226 0.930 . S
H2235 C2227 0.929 . S
H2236 C2244 0.929 . S
H2237 C2246 0.930 . S
H2238 C2248 0.930 . S
H2239 C2251 0.929 . S
H2240 C2254 0.930 . S
H2241 C2256 0.960 . S
H2242 C2256 0.960 . S
H2243 C2256 0.960 . S
C2244 H2236 0.929 . S
C2244 C2245 1.377 . S
C2244 C2246 1.384 . S
C2245 C2244 1.377 . S
C2245 C2251 1.390 . S
C2246 H2237 0.930 . S
C2246 C2244 1.384 . S
C2246 C2247 1.372 . S
C2247 C2246 1.372 . S
C2247 C2248 1.400 . S
C2247 C2252 1.490 . S
C2248 H2238 0.930 . S
C2248 C2247 1.400 . S
C2248 C2251 1.386 . S
H2249 C2265 0.930 . S
H2250 C2266 0.931 . S
C2251 H2239 0.929 . S
C2251 C2245 1.390 . S
C2251 C2248 1.386 . S
C2252 C2247 1.490 . S
C2252 C2254 1.395 . S
C2252 C2255 1.403 . S
H2253 C2259 0.930 . S
C2254 H2240 0.930 . S
C2254 C2252 1.395 . S
C2254 C2257 1.403 . S
C2255 C2252 1.403 . S
C2255 C2256 1.524 . S
C2255 C2259 1.400 . S
C2256 H2241 0.960 . S
C2256 H2242 0.960 . S
C2256 H2243 0.960 . S
C2256 C2255 1.524 . S
C2257 C2254 1.403 . S
C2257 C2258 1.392 . S
C2257 C2261 1.495 . S
C2258 C2257 1.392 . S
C2258 C2259 1.385 . S
C2258 C2260 1.478 . S
C2259 H2253 0.930 . S
C2259 C2255 1.400 . S
C2259 C2258 1.385 . S
C2260 C2258 1.478 . S
C2260 C2262 1.381 . S
C2260 C2266 1.383 . S
C2261 C2257 1.495 . S
C2261 H2267 0.959 . S
C2261 H2268 0.961 . S
C2261 H2269 0.960 . S
C2262 C2260 1.381 . S
C2262 C2263 1.394 . S
C2262 H2270 0.930 . S
C2263 C2262 1.394 . S
C2263 C2264 1.383 . S
C2263 H2271 0.929 . S
C2264 C2263 1.383 . S
C2264 C2265 1.377 . S
C2265 H2249 0.930 . S
C2265 C2264 1.377 . S
C2265 C2266 1.379 . S
C2266 H2250 0.931 . S
C2266 C2260 1.383 . S
C2266 C2265 1.379 . S
H2267 C2261 0.959 . S
H2268 C2261 0.961 . S
H2269 C2261 0.960 . S
H2270 C2262 0.930 . S
H2271 C2263 0.929 . S
H2272 C2280 0.929 . S
H2273 C2282 0.930 . S
H2274 C2284 0.930 . S
H2275 C2287 0.929 . S
H2276 C2290 0.930 . S
H2277 C2292 0.960 . S
H2278 C2292 0.960 . S
H2279 C2292 0.960 . S
C2280 H2272 0.929 . S
C2280 C2281 1.377 . S
C2280 C2282 1.384 . S
C2281 C2280 1.377 . S
C2281 C2287 1.390 . S
C2282 H2273 0.930 . S
C2282 C2280 1.384 . S
C2282 C2283 1.372 . S
C2283 C2282 1.372 . S
C2283 C2284 1.400 . S
C2283 C2288 1.490 . S
C2284 H2274 0.930 . S
C2284 C2283 1.400 . S
C2284 C2287 1.386 . S
H2285 C2301 0.930 . S
H2286 C2302 0.931 . S
C2287 H2275 0.929 . S
C2287 C2281 1.390 . S
C2287 C2284 1.386 . S
C2288 C2283 1.490 . S
C2288 C2290 1.395 . S
C2288 C2291 1.403 . S
H2289 C2295 0.930 . S
C2290 H2276 0.930 . S
C2290 C2288 1.395 . S
C2290 C2293 1.403 . S
C2291 C2288 1.403 . S
C2291 C2292 1.524 . S
C2291 C2295 1.400 . S
C2292 H2277 0.960 . S
C2292 H2278 0.960 . S
C2292 H2279 0.960 . S
C2292 C2291 1.524 . S
C2293 C2290 1.403 . S
C2293 C2294 1.392 . S
C2293 C2297 1.495 . S
C2294 C2293 1.392 . S
C2294 C2295 1.385 . S
C2294 C2296 1.478 . S
C2295 H2289 0.930 . S
C2295 C2291 1.400 . S
C2295 C2294 1.385 . S
C2296 C2294 1.478 . S
C2296 C2298 1.381 . S
C2296 C2302 1.383 . S
C2297 C2293 1.495 . S
C2297 H2303 0.959 . S
C2297 H2304 0.961 . S
C2297 H2305 0.960 . S
C2298 C2296 1.381 . S
C2298 C2299 1.394 . S
C2298 H2306 0.930 . S
C2299 C2298 1.394 . S
C2299 C2300 1.383 . S
C2299 H2307 0.929 . S
C2300 C2299 1.383 . S
C2300 C2301 1.377 . S
C2301 H2285 0.930 . S
C2301 C2300 1.377 . S
C2301 C2302 1.379 . S
C2302 H2286 0.931 . S
C2302 C2296 1.383 . S
C2302 C2301 1.379 . S
H2303 C2297 0.959 . S
H2304 C2297 0.961 . S
H2305 C2297 0.960 . S
H2306 C2298 0.930 . S
H2307 C2299 0.929 . S
H2308 C2316 0.929 . S
H2309 C2318 0.930 . S
H2310 C2320 0.930 . S
H2311 C2323 0.929 . S
H2312 C2326 0.930 . S
H2313 C2328 0.960 . S
H2314 C2328 0.960 . S
H2315 C2328 0.960 . S
C2316 H2308 0.929 . S
C2316 C2317 1.377 . S
C2316 C2318 1.384 . S
C2317 C2316 1.377 . S
C2317 C2323 1.390 . S
C2318 H2309 0.930 . S
C2318 C2316 1.384 . S
C2318 C2319 1.372 . S
C2319 C2318 1.372 . S
C2319 C2320 1.400 . S
C2319 C2324 1.490 . S
C2320 H2310 0.930 . S
C2320 C2319 1.400 . S
C2320 C2323 1.386 . S
H2321 C2337 0.930 . S
H2322 C2338 0.931 . S
C2323 H2311 0.929 . S
C2323 C2317 1.390 . S
C2323 C2320 1.386 . S
C2324 C2319 1.490 . S
C2324 C2326 1.395 . S
C2324 C2327 1.403 . S
H2325 C2331 0.930 . S
C2326 H2312 0.930 . S
C2326 C2324 1.395 . S
C2326 C2329 1.403 . S
C2327 C2324 1.403 . S
C2327 C2328 1.524 . S
C2327 C2331 1.400 . S
C2328 H2313 0.960 . S
C2328 H2314 0.960 . S
C2328 H2315 0.960 . S
C2328 C2327 1.524 . S
C2329 C2326 1.403 . S
C2329 C2330 1.392 . S
C2329 C2333 1.495 . S
C2330 C2329 1.392 . S
C2330 C2331 1.385 . S
C2330 C2332 1.478 . S
C2331 H2325 0.930 . S
C2331 C2327 1.400 . S
C2331 C2330 1.385 . S
C2332 C2330 1.478 . S
C2332 C2334 1.381 . S
C2332 C2338 1.383 . S
C2333 C2329 1.495 . S
C2333 H2339 0.959 . S
C2333 H2340 0.961 . S
C2333 H2341 0.960 . S
C2334 C2332 1.381 . S
C2334 C2335 1.394 . S
C2334 H2342 0.930 . S
C2335 C2334 1.394 . S
C2335 C2336 1.383 . S
C2335 H2343 0.929 . S
C2336 C2335 1.383 . S
C2336 C2337 1.377 . S
C2337 H2321 0.930 . S
C2337 C2336 1.377 . S
C2337 C2338 1.379 . S
C2338 H2322 0.931 . S
C2338 C2332 1.383 . S
C2338 C2337 1.379 . S
H2339 C2333 0.959 . S
H2340 C2333 0.961 . S
H2341 C2333 0.960 . S
H2342 C2334 0.930 . S
H2343 C2335 0.929 . S
H2344 C2352 0.929 . S
H2345 C2354 0.930 . S
H2346 C2356 0.930 . S
H2347 C2359 0.929 . S
H2348 C2362 0.930 . S
H2349 C2364 0.960 . S
H2350 C2364 0.960 . S
H2351 C2364 0.960 . S
C2352 H2344 0.929 . S
C2352 C2353 1.377 . S
C2352 C2354 1.384 . S
C2353 C2352 1.377 . S
C2353 C2359 1.390 . S
C2354 H2345 0.930 . S
C2354 C2352 1.384 . S
C2354 C2355 1.372 . S
C2355 C2354 1.372 . S
C2355 C2356 1.400 . S
C2355 C2360 1.490 . S
C2356 H2346 0.930 . S
C2356 C2355 1.400 . S
C2356 C2359 1.386 . S
H2357 C2373 0.930 . S
H2358 C2374 0.931 . S
C2359 H2347 0.929 . S
C2359 C2353 1.390 . S
C2359 C2356 1.386 . S
C2360 C2355 1.490 . S
C2360 C2362 1.395 . S
C2360 C2363 1.403 . S
H2361 C2367 0.930 . S
C2362 H2348 0.930 . S
C2362 C2360 1.395 . S
C2362 C2365 1.403 . S
C2363 C2360 1.403 . S
C2363 C2364 1.524 . S
C2363 C2367 1.400 . S
C2364 H2349 0.960 . S
C2364 H2350 0.960 . S
C2364 H2351 0.960 . S
C2364 C2363 1.524 . S
C2365 C2362 1.403 . S
C2365 C2366 1.392 . S
C2365 C2369 1.495 . S
C2366 C2365 1.392 . S
C2366 C2367 1.385 . S
C2366 C2368 1.478 . S
C2367 H2361 0.930 . S
C2367 C2363 1.400 . S
C2367 C2366 1.385 . S
C2368 C2366 1.478 . S
C2368 C2370 1.381 . S
C2368 C2374 1.383 . S
C2369 C2365 1.495 . S
C2369 H2375 0.959 . S
C2369 H2376 0.961 . S
C2369 H2377 0.960 . S
C2370 C2368 1.381 . S
C2370 C2371 1.394 . S
C2370 H2378 0.930 . S
C2371 C2370 1.394 . S
C2371 C2372 1.383 . S
C2371 H2379 0.929 . S
C2372 C2371 1.383 . S
C2372 C2373 1.377 . S
C2373 H2357 0.930 . S
C2373 C2372 1.377 . S
C2373 C2374 1.379 . S
C2374 H2358 0.931 . S
C2374 C2368 1.383 . S
C2374 C2373 1.379 . S
H2375 C2369 0.959 . S
H2376 C2369 0.961 . S
H2377 C2369 0.960 . S
H2378 C2370 0.930 . S
H2379 C2371 0.929 . S
H2380 C2388 0.929 . S
H2381 C2390 0.930 1_554 S
H2382 C2392 0.930 . S
H2383 C2395 0.929 . S
H2384 C2398 0.959 . S
H2385 C2400 0.960 . S
H2386 C2400 0.960 . S
H2387 C2400 0.960 . S
C2388 H2380 0.929 . S
C2388 C2389 1.377 . S
C2388 C2390 1.384 . S
C2389 C2388 1.377 . S
C2389 C2395 1.390 . S
C2390 H2381 0.930 1_556 S
C2390 C2388 1.384 . S
C2390 C2391 1.372 . S
C2391 C2390 1.372 . S
C2391 C2392 1.400 . S
C2391 C2396 1.490 . S
C2392 H2382 0.930 . S
C2392 C2391 1.400 . S
C2392 C2395 1.386 . S
H2393 C2409 0.930 . S
H2394 C2410 0.931 . S
C2395 H2383 0.929 . S
C2395 C2389 1.390 . S
C2395 C2392 1.386 . S
C2396 C2391 1.490 . S
C2396 C2398 1.395 . S
C2396 C2399 1.403 . S
H2397 C2403 0.930 . S
C2398 H2384 0.959 . S
C2398 C2396 1.395 . S
C2398 C2401 1.403 . S
C2399 C2396 1.403 . S
C2399 C2400 1.524 . S
C2399 C2403 1.400 . S
C2400 H2385 0.960 . S
C2400 H2386 0.960 . S
C2400 H2387 0.960 . S
C2400 C2399 1.524 . S
C2401 C2398 1.403 . S
C2401 C2402 1.392 . S
C2401 C2405 1.495 1_556 S
C2402 C2401 1.392 . S
C2402 C2403 1.385 . S
C2402 C2404 1.478 . S
C2403 H2397 0.930 . S
C2403 C2399 1.400 . S
C2403 C2402 1.385 . S
C2404 C2402 1.478 . S
C2404 C2406 1.381 1_556 S
C2404 C2410 1.383 . S
C2405 C2401 1.495 1_554 S
C2405 H2411 0.959 . S
C2405 H2412 0.961 . S
C2405 H2413 0.960 . S
C2406 C2404 1.381 1_554 S
C2406 C2407 1.394 . S
C2406 H2414 0.930 . S
C2407 C2406 1.394 . S
C2407 C2408 1.383 1_554 S
C2407 H2415 0.929 . S
C2408 C2407 1.383 1_556 S
C2408 C2409 1.377 . S
C2409 H2393 0.930 . S
C2409 C2408 1.377 . S
C2409 C2410 1.379 . S
C2410 H2394 0.931 . S
C2410 C2404 1.383 . S
C2410 C2409 1.379 . S
H2411 C2405 0.959 . S
H2412 C2405 0.961 . S
H2413 C2405 0.960 . S
H2414 C2406 0.930 . S
H2415 C2407 0.929 . S
H2416 C2424 0.929 . S
H2417 C2426 0.930 . S
H2418 C2428 0.930 . S
H2419 C2431 0.929 . S
H2420 C2434 0.930 . S
H2421 C2436 0.960 . S
H2422 C2436 0.960 . S
H2423 C2436 0.960 . S
C2424 H2416 0.929 . S
C2424 C2425 1.377 . S
C2424 C2426 1.384 . S
C2425 C2424 1.377 . S
C2425 C2431 1.390 . S
C2426 H2417 0.930 . S
C2426 C2424 1.384 . S
C2426 C2427 1.372 . S
C2427 C2426 1.372 . S
C2427 C2428 1.400 . S
C2427 C2432 1.490 . S
C2428 H2418 0.930 . S
C2428 C2427 1.400 . S
C2428 C2431 1.386 . S
H2429 C2445 0.930 . S
H2430 C2446 0.931 . S
C2431 H2419 0.929 . S
C2431 C2425 1.390 . S
C2431 C2428 1.386 . S
C2432 C2427 1.490 . S
C2432 C2434 1.395 . S
C2432 C2435 1.403 . S
H2433 C2439 0.930 . S
C2434 H2420 0.930 . S
C2434 C2432 1.395 . S
C2434 C2437 1.403 . S
C2435 C2432 1.403 . S
C2435 C2436 1.524 . S
C2435 C2439 1.400 . S
C2436 H2421 0.960 . S
C2436 H2422 0.960 . S
C2436 H2423 0.960 . S
C2436 C2435 1.524 . S
C2437 C2434 1.403 . S
C2437 C2438 1.392 . S
C2437 C2441 1.495 . S
C2438 C2437 1.392 . S
C2438 C2439 1.385 . S
C2438 C2440 1.478 . S
C2439 H2433 0.930 . S
C2439 C2435 1.400 . S
C2439 C2438 1.385 . S
C2440 C2438 1.478 . S
C2440 C2442 1.381 . S
C2440 C2446 1.383 . S
C2441 C2437 1.495 . S
C2441 H2447 0.959 . S
C2441 H2448 0.961 . S
C2441 H2449 0.960 . S
C2442 C2440 1.381 . S
C2442 C2443 1.394 . S
C2442 H2450 0.930 . S
C2443 C2442 1.394 . S
C2443 C2444 1.383 . S
C2443 H2451 0.929 . S
C2444 C2443 1.383 . S
C2444 C2445 1.377 . S
C2445 H2429 0.930 . S
C2445 C2444 1.377 . S
C2445 C2446 1.379 . S
C2446 H2430 0.931 . S
C2446 C2440 1.383 . S
C2446 C2445 1.379 . S
H2447 C2441 0.959 . S
H2448 C2441 0.961 . S
H2449 C2441 0.960 . S
H2450 C2442 0.930 . S
H2451 C2443 0.929 . S
H2452 C2460 0.929 . S
H2453 C2462 0.871 1_556 S
H2454 C2464 0.930 . S
H2455 C2467 0.929 . S
H2456 C2470 0.930 . S
H2457 C2472 0.960 . S
H2458 C2472 0.960 . S
H2459 C2472 0.960 . S
C2460 H2452 0.929 . S
C2460 C2461 1.377 . S
C2460 C2462 1.384 . S
C2461 C2460 1.377 . S
C2461 C2467 1.390 . S
C2462 H2453 0.871 1_554 S
C2462 C2460 1.384 . S
C2462 C2463 1.372 . S
C2463 C2462 1.372 . S
C2463 C2464 1.400 . S
C2463 C2468 1.490 . S
C2464 H2454 0.930 . S
C2464 C2463 1.400 . S
C2464 C2467 1.386 . S
H2465 C2481 0.930 . S
H2466 C2482 0.931 . S
C2467 H2455 0.929 . S
C2467 C2461 1.390 . S
C2467 C2464 1.386 . S
C2468 C2463 1.490 . S
C2468 C2470 1.395 . S
C2468 C2471 1.403 . S
H2469 C2475 0.930 . S
C2470 H2456 0.930 . S
C2470 C2468 1.395 . S
C2470 C2473 1.403 . S
C2471 C2468 1.403 . S
C2471 C2472 1.524 . S
C2471 C2475 1.400 . S
C2472 H2457 0.960 . S
C2472 H2458 0.960 . S
C2472 H2459 0.960 . S
C2472 C2471 1.524 . S
C2473 C2470 1.403 . S
C2473 C2474 1.392 . S
C2473 C2477 1.495 . S
C2474 C2473 1.392 . S
C2474 C2475 1.385 . S
C2474 C2476 1.478 . S
C2475 H2469 0.930 . S
C2475 C2471 1.400 . S
C2475 C2474 1.385 . S
C2476 C2474 1.478 . S
C2476 C2478 1.381 1_554 S
C2476 C2482 1.383 . S
C2477 C2473 1.495 . S
C2477 H2483 0.959 . S
C2477 H2484 0.961 . S
C2477 H2485 0.960 . S
C2478 C2476 1.381 1_556 S
C2478 C2479 1.394 . S
C2478 H2486 0.930 . S
C2479 C2478 1.394 . S
C2479 C2480 1.383 1_556 S
C2479 H2487 0.929 . S
C2480 C2479 1.383 1_554 S
C2480 C2481 1.377 . S
C2481 H2465 0.930 . S
C2481 C2480 1.377 . S
C2481 C2482 1.379 . S
C2482 H2466 0.931 . S
C2482 C2476 1.383 . S
C2482 C2481 1.379 . S
H2483 C2477 0.959 . S
H2484 C2477 0.961 . S
H2485 C2477 0.960 . S
H2486 C2478 0.930 . S
H2487 C2479 0.929 . S
H2488 C2496 0.929 . S
H2489 C2498 0.930 . S
H2490 C2500 0.930 . S
H2491 C2503 0.929 . S
H2492 C2506 0.930 . S
H2493 C2508 0.960 . S
H2494 C2508 0.960 . S
H2495 C2508 0.960 . S
C2496 H2488 0.929 . S
C2496 C2497 1.377 . S
C2496 C2498 1.384 . S
C2497 C2496 1.377 . S
C2497 C2503 1.390 . S
C2498 H2489 0.930 . S
C2498 C2496 1.384 . S
C2498 C2499 1.372 . S
C2499 C2498 1.372 . S
C2499 C2500 1.400 . S
C2499 C2504 1.490 . S
C2500 H2490 0.930 . S
C2500 C2499 1.400 . S
C2500 C2503 1.386 . S
H2501 C2517 0.930 . S
H2502 C2518 0.931 . S
C2503 H2491 0.929 . S
C2503 C2497 1.390 . S
C2503 C2500 1.386 . S
C2504 C2499 1.490 . S
C2504 C2506 1.395 . S
C2504 C2507 1.403 . S
H2505 C2511 0.930 . S
C2506 H2492 0.930 . S
C2506 C2504 1.395 . S
C2506 C2509 1.403 . S
C2507 C2504 1.403 . S
C2507 C2508 1.524 . S
C2507 C2511 1.400 . S
C2508 H2493 0.960 . S
C2508 H2494 0.960 . S
C2508 H2495 0.960 . S
C2508 C2507 1.524 . S
C2509 C2506 1.403 . S
C2509 C2510 1.392 . S
C2509 C2513 1.495 . S
C2510 C2509 1.392 . S
C2510 C2511 1.385 . S
C2510 C2512 1.478 . S
C2511 H2505 0.930 . S
C2511 C2507 1.400 . S
C2511 C2510 1.385 . S
C2512 C2510 1.478 . S
C2512 C2514 1.381 . S
C2512 C2518 1.383 . S
C2513 C2509 1.495 . S
C2513 H2519 0.959 . S
C2513 H2520 0.961 . S
C2513 H2521 0.960 . S
C2514 C2512 1.381 . S
C2514 C2515 1.394 . S
C2514 H2522 0.930 . S
C2515 C2514 1.394 . S
C2515 C2516 1.383 . S
C2515 H2523 0.929 . S
C2516 C2515 1.383 . S
C2516 C2517 1.377 . S
C2517 H2501 0.930 . S
C2517 C2516 1.377 . S
C2517 C2518 1.379 . S
C2518 H2502 0.931 . S
C2518 C2512 1.383 . S
C2518 C2517 1.379 . S
H2519 C2513 0.959 . S
H2520 C2513 0.961 . S
H2521 C2513 0.960 . S
H2522 C2514 0.930 . S
H2523 C2515 0.929 . S
C824 C650 1.368 . S
C805 C202 1.384 . S
C860 C663 1.641 . S
C841 C261 1.646 . S
C877 C282 1.432 . S
C896 C676 1.449 . S
C932 C689 1.543 . S
C913 C162 1.533 . S
C968 C697 1.439 . S
C949 C402 1.462 . S
C1004 C710 1.415 . S
C985 C482 1.417 . S
C1021 C442 1.512 . S
C1040 C723 1.503 . S
C1076 C736 1.527 . S
C1057 C381 1.526 . S
C1093 C461 1.455 . S
C1112 C754 1.465 . S
C1148 C765 1.506 . S
C1129 C362 1.511 . S
C1165 C415 1.401 . S
C1184 C749 1.393 . S
C1220 C757 1.488 . S
C1201 C495 1.508 . S
C1237 C301 1.530 . S
C1256 C780 1.513 . S
C1273 C175 1.543 . S
C1292 C770 1.520 . S
C1309 C215 1.465 . S
C1328 C775 1.431 . S
C1345 C242 1.550 . S
C1364 C778 1.520 1_655 S
C1381 C141 1.480 . S
C1400 C687 1.434 . S
C1417 C581 1.442 . S
C1436 C679 1.442 . S
C1472 C648 1.498 . S
C1453 C615 1.538 . S
C1508 C653 1.461 . S
C1489 C335 1.494 . S
C1525 C181 1.608 . S
C1544 C700 1.571 . S
C1580 C739 1.482 . S
C1561 C455 1.516 . S
C1616 C692 1.434 . S
C1597 C375 1.461 . S
C1652 C718 1.483 . S
C1633 C501 1.531 . S
C1688 C728 1.392 . S
C1669 C562 1.385 . S
C1705 C621 1.645 . S
C1724 C741 1.646 . S
C1741 C322 1.434 . S
C1760 C702 1.444 . S
C1796 C715 1.533 . S
C1777 C522 1.533 . S
C1813 C122 1.465 . S
C1832 C671 1.456 . S
C1868 C684 1.420 . S
C1849 C2 1.419 . S
C1904 C645 1.504 . S
C1885 C42 1.512 . S
C1940 C658 1.526 . S
C1921 C101 1.527 . S
C1957 C61 1.457 . S
C1976 C767 1.455 . S
C1993 C82 1.511 . S
C2012 C752 1.467 1_655 S
C2029 C135 1.401 . S
C2048 C762 1.360 . S
C2065 C15 1.509 . S
C2084 C744 1.474 . S
C2120 C793 1.518 . S
C2101 C341 1.528 . S
C2156 C783 1.525 . S
C2137 C535 1.544 . S
C2192 C788 1.416 . S
C2173 C575 1.465 . S
C2209 C602 1.548 . S
C2228 C791 1.506 . S
C2245 C421 1.480 . S
C2264 C713 1.445 . S
C2300 C705 1.442 . S
C2281 C221 1.442 . S
C2336 C726 1.499 . S
C2317 C255 1.538 . S
C2372 C731 1.464 . S
C2353 C295 1.496 . S
C2389 C541 1.607 . S
C2408 C674 1.588 . S
C2444 C661 1.477 . S
C2425 C55 1.518 . S
C2461 C95 1.461 . S
C2480 C666 1.444 . S
C2516 C640 1.520 . S
C2497 C21 1.529 . S
