# Generated by pormake.
# Topology gar, (4,6)-cn, num edge types: 1
# Building blocks:
#     Node 0, Type 0, BuildingBlock: NAHDIM_clean_sbu_0, # of connection points: 4
#     Node 1, Type 0, BuildingBlock: NAHDIM_clean_sbu_0, # of connection points: 4
#     Node 2, Type 0, BuildingBlock: NAHDIM_clean_sbu_0, # of connection points: 4
#     Node 3, Type 0, BuildingBlock: NAHDIM_clean_sbu_0, # of connection points: 4
#     Node 4, Type 0, BuildingBlock: NAHDIM_clean_sbu_0, # of connection points: 4
#     Node 5, Type 0, BuildingBlock: NAHDIM_clean_sbu_0, # of connection points: 4
#     Node 6, Type 0, BuildingBlock: NAHDIM_clean_sbu_0, # of connection points: 4
#     Node 7, Type 0, BuildingBlock: NAHDIM_clean_sbu_0, # of connection points: 4
#     Node 8, Type 0, BuildingBlock: NAHDIM_clean_sbu_0, # of connection points: 4
#     Node 9, Type 0, BuildingBlock: NAHDIM_clean_sbu_0, # of connection points: 4
#     Node 10, Type 0, BuildingBlock: NAHDIM_clean_sbu_0, # of connection points: 4
#     Node 11, Type 0, BuildingBlock: NAHDIM_clean_sbu_0, # of connection points: 4
#     Node 12, Type 0, BuildingBlock: NAHDIM_clean_sbu_0, # of connection points: 4
#     Node 13, Type 0, BuildingBlock: NAHDIM_clean_sbu_0, # of connection points: 4
#     Node 14, Type 0, BuildingBlock: NAHDIM_clean_sbu_0, # of connection points: 4
#     Node 15, Type 0, BuildingBlock: NAHDIM_clean_sbu_0, # of connection points: 4
#     Node 16, Type 0, BuildingBlock: NAHDIM_clean_sbu_0, # of connection points: 4
#     Node 17, Type 0, BuildingBlock: NAHDIM_clean_sbu_0, # of connection points: 4
#     Node 18, Type 0, BuildingBlock: NAHDIM_clean_sbu_0, # of connection points: 4
#     Node 19, Type 0, BuildingBlock: NAHDIM_clean_sbu_0, # of connection points: 4
#     Node 20, Type 0, BuildingBlock: NAHDIM_clean_sbu_0, # of connection points: 4
#     Node 21, Type 0, BuildingBlock: NAHDIM_clean_sbu_0, # of connection points: 4
#     Node 22, Type 0, BuildingBlock: NAHDIM_clean_sbu_0, # of connection points: 4
#     Node 23, Type 0, BuildingBlock: NAHDIM_clean_sbu_0, # of connection points: 4
#     Node 24, Type 1, BuildingBlock: NUHQIS_clean_sbu_0, # of connection points: 6
#     Node 25, Type 1, BuildingBlock: NUHQIS_clean_sbu_0, # of connection points: 6
#     Node 26, Type 1, BuildingBlock: NUHQIS_clean_sbu_0, # of connection points: 6
#     Node 27, Type 1, BuildingBlock: NUHQIS_clean_sbu_0, # of connection points: 6
#     Node 28, Type 1, BuildingBlock: NUHQIS_clean_sbu_0, # of connection points: 6
#     Node 29, Type 1, BuildingBlock: NUHQIS_clean_sbu_0, # of connection points: 6
#     Node 30, Type 1, BuildingBlock: NUHQIS_clean_sbu_0, # of connection points: 6
#     Node 31, Type 1, BuildingBlock: NUHQIS_clean_sbu_0, # of connection points: 6
#     Node 32, Type 1, BuildingBlock: NUHQIS_clean_sbu_0, # of connection points: 6
#     Node 33, Type 1, BuildingBlock: NUHQIS_clean_sbu_0, # of connection points: 6
#     Node 34, Type 1, BuildingBlock: NUHQIS_clean_sbu_0, # of connection points: 6
#     Node 35, Type 1, BuildingBlock: NUHQIS_clean_sbu_0, # of connection points: 6
#     Node 36, Type 1, BuildingBlock: NUHQIS_clean_sbu_0, # of connection points: 6
#     Node 37, Type 1, BuildingBlock: NUHQIS_clean_sbu_0, # of connection points: 6
#     Node 38, Type 1, BuildingBlock: NUHQIS_clean_sbu_0, # of connection points: 6
#     Node 39, Type 1, BuildingBlock: NUHQIS_clean_sbu_0, # of connection points: 6
#     Edge 40, Type (0, 1), BuildingBlock: TEMPAE_clean_linker_10, # of connection points: 2
#     Edge 41, Type (0, 1), BuildingBlock: TEMPAE_clean_linker_10, # of connection points: 2
#     Edge 42, Type (0, 1), BuildingBlock: TEMPAE_clean_linker_10, # of connection points: 2
#     Edge 43, Type (0, 1), BuildingBlock: TEMPAE_clean_linker_10, # of connection points: 2
#     Edge 44, Type (0, 1), BuildingBlock: TEMPAE_clean_linker_10, # of connection points: 2
#     Edge 45, Type (0, 1), BuildingBlock: TEMPAE_clean_linker_10, # of connection points: 2
#     Edge 46, Type (0, 1), BuildingBlock: TEMPAE_clean_linker_10, # of connection points: 2
#     Edge 47, Type (0, 1), BuildingBlock: TEMPAE_clean_linker_10, # of connection points: 2
#     Edge 48, Type (0, 1), BuildingBlock: TEMPAE_clean_linker_10, # of connection points: 2
#     Edge 49, Type (0, 1), BuildingBlock: TEMPAE_clean_linker_10, # of connection points: 2
#     Edge 50, Type (0, 1), BuildingBlock: TEMPAE_clean_linker_10, # of connection points: 2
#     Edge 51, Type (0, 1), BuildingBlock: TEMPAE_clean_linker_10, # of connection points: 2
#     Edge 52, Type (0, 1), BuildingBlock: TEMPAE_clean_linker_10, # of connection points: 2
#     Edge 53, Type (0, 1), BuildingBlock: TEMPAE_clean_linker_10, # of connection points: 2
#     Edge 54, Type (0, 1), BuildingBlock: TEMPAE_clean_linker_10, # of connection points: 2
#     Edge 55, Type (0, 1), BuildingBlock: TEMPAE_clean_linker_10, # of connection points: 2
#     Edge 56, Type (0, 1), BuildingBlock: TEMPAE_clean_linker_10, # of connection points: 2
#     Edge 57, Type (0, 1), BuildingBlock: TEMPAE_clean_linker_10, # of connection points: 2
#     Edge 58, Type (0, 1), BuildingBlock: TEMPAE_clean_linker_10, # of connection points: 2
#     Edge 59, Type (0, 1), BuildingBlock: TEMPAE_clean_linker_10, # of connection points: 2
#     Edge 60, Type (0, 1), BuildingBlock: TEMPAE_clean_linker_10, # of connection points: 2
#     Edge 61, Type (0, 1), BuildingBlock: TEMPAE_clean_linker_10, # of connection points: 2
#     Edge 62, Type (0, 1), BuildingBlock: TEMPAE_clean_linker_10, # of connection points: 2
#     Edge 63, Type (0, 1), BuildingBlock: TEMPAE_clean_linker_10, # of connection points: 2
#     Edge 64, Type (0, 1), BuildingBlock: TEMPAE_clean_linker_10, # of connection points: 2
#     Edge 65, Type (0, 1), BuildingBlock: TEMPAE_clean_linker_10, # of connection points: 2
#     Edge 66, Type (0, 1), BuildingBlock: TEMPAE_clean_linker_10, # of connection points: 2
#     Edge 67, Type (0, 1), BuildingBlock: TEMPAE_clean_linker_10, # of connection points: 2
#     Edge 68, Type (0, 1), BuildingBlock: TEMPAE_clean_linker_10, # of connection points: 2
#     Edge 69, Type (0, 1), BuildingBlock: TEMPAE_clean_linker_10, # of connection points: 2
#     Edge 70, Type (0, 1), BuildingBlock: TEMPAE_clean_linker_10, # of connection points: 2
#     Edge 71, Type (0, 1), BuildingBlock: TEMPAE_clean_linker_10, # of connection points: 2
#     Edge 72, Type (0, 1), BuildingBlock: TEMPAE_clean_linker_10, # of connection points: 2
#     Edge 73, Type (0, 1), BuildingBlock: TEMPAE_clean_linker_10, # of connection points: 2
#     Edge 74, Type (0, 1), BuildingBlock: TEMPAE_clean_linker_10, # of connection points: 2
#     Edge 75, Type (0, 1), BuildingBlock: TEMPAE_clean_linker_10, # of connection points: 2
#     Edge 76, Type (0, 1), BuildingBlock: TEMPAE_clean_linker_10, # of connection points: 2
#     Edge 77, Type (0, 1), BuildingBlock: TEMPAE_clean_linker_10, # of connection points: 2
#     Edge 78, Type (0, 1), BuildingBlock: TEMPAE_clean_linker_10, # of connection points: 2
#     Edge 79, Type (0, 1), BuildingBlock: TEMPAE_clean_linker_10, # of connection points: 2
#     Edge 80, Type (0, 1), BuildingBlock: TEMPAE_clean_linker_10, # of connection points: 2
#     Edge 81, Type (0, 1), BuildingBlock: TEMPAE_clean_linker_10, # of connection points: 2
#     Edge 82, Type (0, 1), BuildingBlock: TEMPAE_clean_linker_10, # of connection points: 2
#     Edge 83, Type (0, 1), BuildingBlock: TEMPAE_clean_linker_10, # of connection points: 2
#     Edge 84, Type (0, 1), BuildingBlock: TEMPAE_clean_linker_10, # of connection points: 2
#     Edge 85, Type (0, 1), BuildingBlock: TEMPAE_clean_linker_10, # of connection points: 2
#     Edge 86, Type (0, 1), BuildingBlock: TEMPAE_clean_linker_10, # of connection points: 2
#     Edge 87, Type (0, 1), BuildingBlock: TEMPAE_clean_linker_10, # of connection points: 2
#     Edge 88, Type (0, 1), BuildingBlock: TEMPAE_clean_linker_10, # of connection points: 2
#     Edge 89, Type (0, 1), BuildingBlock: TEMPAE_clean_linker_10, # of connection points: 2
#     Edge 90, Type (0, 1), BuildingBlock: TEMPAE_clean_linker_10, # of connection points: 2
#     Edge 91, Type (0, 1), BuildingBlock: TEMPAE_clean_linker_10, # of connection points: 2
#     Edge 92, Type (0, 1), BuildingBlock: TEMPAE_clean_linker_10, # of connection points: 2
#     Edge 93, Type (0, 1), BuildingBlock: TEMPAE_clean_linker_10, # of connection points: 2
#     Edge 94, Type (0, 1), BuildingBlock: TEMPAE_clean_linker_10, # of connection points: 2
#     Edge 95, Type (0, 1), BuildingBlock: TEMPAE_clean_linker_10, # of connection points: 2
#     Edge 96, Type (0, 1), BuildingBlock: TEMPAE_clean_linker_10, # of connection points: 2
#     Edge 97, Type (0, 1), BuildingBlock: TEMPAE_clean_linker_10, # of connection points: 2
#     Edge 98, Type (0, 1), BuildingBlock: TEMPAE_clean_linker_10, # of connection points: 2
#     Edge 99, Type (0, 1), BuildingBlock: TEMPAE_clean_linker_10, # of connection points: 2
#     Edge 100, Type (0, 1), BuildingBlock: TEMPAE_clean_linker_10, # of connection points: 2
#     Edge 101, Type (0, 1), BuildingBlock: TEMPAE_clean_linker_10, # of connection points: 2
#     Edge 102, Type (0, 1), BuildingBlock: TEMPAE_clean_linker_10, # of connection points: 2
#     Edge 103, Type (0, 1), BuildingBlock: TEMPAE_clean_linker_10, # of connection points: 2
#     Edge 104, Type (0, 1), BuildingBlock: TEMPAE_clean_linker_10, # of connection points: 2
#     Edge 105, Type (0, 1), BuildingBlock: TEMPAE_clean_linker_10, # of connection points: 2
#     Edge 106, Type (0, 1), BuildingBlock: TEMPAE_clean_linker_10, # of connection points: 2
#     Edge 107, Type (0, 1), BuildingBlock: TEMPAE_clean_linker_10, # of connection points: 2
#     Edge 108, Type (0, 1), BuildingBlock: TEMPAE_clean_linker_10, # of connection points: 2
#     Edge 109, Type (0, 1), BuildingBlock: TEMPAE_clean_linker_10, # of connection points: 2
#     Edge 110, Type (0, 1), BuildingBlock: TEMPAE_clean_linker_10, # of connection points: 2
#     Edge 111, Type (0, 1), BuildingBlock: TEMPAE_clean_linker_10, # of connection points: 2
#     Edge 112, Type (0, 1), BuildingBlock: TEMPAE_clean_linker_10, # of connection points: 2
#     Edge 113, Type (0, 1), BuildingBlock: TEMPAE_clean_linker_10, # of connection points: 2
#     Edge 114, Type (0, 1), BuildingBlock: TEMPAE_clean_linker_10, # of connection points: 2
#     Edge 115, Type (0, 1), BuildingBlock: TEMPAE_clean_linker_10, # of connection points: 2
#     Edge 116, Type (0, 1), BuildingBlock: TEMPAE_clean_linker_10, # of connection points: 2
#     Edge 117, Type (0, 1), BuildingBlock: TEMPAE_clean_linker_10, # of connection points: 2
#     Edge 118, Type (0, 1), BuildingBlock: TEMPAE_clean_linker_10, # of connection points: 2
#     Edge 119, Type (0, 1), BuildingBlock: TEMPAE_clean_linker_10, # of connection points: 2
#     Edge 120, Type (0, 1), BuildingBlock: TEMPAE_clean_linker_10, # of connection points: 2
#     Edge 121, Type (0, 1), BuildingBlock: TEMPAE_clean_linker_10, # of connection points: 2
#     Edge 122, Type (0, 1), BuildingBlock: TEMPAE_clean_linker_10, # of connection points: 2
#     Edge 123, Type (0, 1), BuildingBlock: TEMPAE_clean_linker_10, # of connection points: 2
#     Edge 124, Type (0, 1), BuildingBlock: TEMPAE_clean_linker_10, # of connection points: 2
#     Edge 125, Type (0, 1), BuildingBlock: TEMPAE_clean_linker_10, # of connection points: 2
#     Edge 126, Type (0, 1), BuildingBlock: TEMPAE_clean_linker_10, # of connection points: 2
#     Edge 127, Type (0, 1), BuildingBlock: TEMPAE_clean_linker_10, # of connection points: 2
#     Edge 128, Type (0, 1), BuildingBlock: TEMPAE_clean_linker_10, # of connection points: 2
#     Edge 129, Type (0, 1), BuildingBlock: TEMPAE_clean_linker_10, # of connection points: 2
#     Edge 130, Type (0, 1), BuildingBlock: TEMPAE_clean_linker_10, # of connection points: 2
#     Edge 131, Type (0, 1), BuildingBlock: TEMPAE_clean_linker_10, # of connection points: 2
#     Edge 132, Type (0, 1), BuildingBlock: TEMPAE_clean_linker_10, # of connection points: 2
#     Edge 133, Type (0, 1), BuildingBlock: TEMPAE_clean_linker_10, # of connection points: 2
#     Edge 134, Type (0, 1), BuildingBlock: TEMPAE_clean_linker_10, # of connection points: 2
#     Edge 135, Type (0, 1), BuildingBlock: TEMPAE_clean_linker_10, # of connection points: 2
# Relax obj value: 0.232
# Max RMSD: 0.322
# Mean RMSD: 0.166
data_MOF--net-gar--node1-NAHDIM_clean_sbu_0--node2-NUHQIS_clean_sbu_0--edge1-TEMPAE_clean_linker_10
_symmetry_space_group_name_H-M    P1
_symmetry_Int_Tables_number       1
_symmetry_cell_setting            triclinic
loop_
_symmetry_equiv_pos_as_xyz
'x, y, z'
_cell_length_a     59.469527
_cell_length_b     60.612307
_cell_length_c     56.697666
_cell_angle_alpha  93.263475
_cell_angle_beta   97.326711
_cell_angle_gamma 101.50824
loop_
_atom_site_label
_atom_site_type_symbol
_atom_site_fract_x
_atom_site_fract_y
_atom_site_fract_z
_atom_type_partial_charge
C0 C 0.13298 0.29024 0.39318 0.0
O1 O 0.13674 0.28162 0.4137 0.0
O2 O 0.08228 0.26064 0.43114 0.0
Zn3 Zn 0.08246 0.29263 0.41038 0.0
O4 O 0.08572 0.32614 0.43339 0.0
C5 C 0.02907 0.29107 0.39412 0.0
O6 O 0.0293 0.29462 0.41723 0.0
O7 O 0.11289 0.29581 0.38813 0.0
C8 C 0.07374 0.34191 0.43013 0.0
O9 O 0.0576 0.33872 0.41147 0.0
C10 C 0.06658 0.24195 0.42983 0.0
O11 O 0.04734 0.24094 0.41519 0.0
O12 O 0.04842 0.2889 0.38689 0.0
C13 C 1.00869 0.80486 0.67418 0.0
O14 O 1.00836 0.81947 0.65795 0.0
O15 O 0.05685 0.7661 0.6327 0.0
Zn16 Zn 0.05712 0.79925 0.65483 0.0
O17 O 0.05682 0.83123 0.63405 0.0
C18 C 0.10978 0.80009 0.67172 0.0
O19 O 0.10863 0.7937 0.64898 0.0
O20 O 0.02625 0.79483 0.67617 0.0
C21 C 0.07296 0.84933 0.63376 0.0
O22 O 0.09317 0.84965 0.64638 0.0
C23 C 0.04637 0.74543 0.63505 0.0
O24 O 0.03239 0.74269 0.6513 0.0
O25 O 0.09092 0.80396 0.6788 0.0
C26 C 0.63311 0.7918 0.89618 0.0
O27 O 0.63869 0.78922 0.91888 0.0
O28 O 0.57695 0.75832 0.93148 0.0
Zn29 Zn 0.58077 0.79072 0.91099 0.0
O30 O 0.58248 0.82371 0.93383 0.0
C31 C 0.52991 0.79615 0.89358 0.0
O32 O 0.53311 0.80655 0.91509 0.0
O33 O 0.61159 0.79301 0.88932 0.0
C34 C 0.58526 0.84417 0.927 0.0
O35 O 0.58907 0.84657 0.90488 0.0
C36 C 0.58795 0.74167 0.93111 0.0
O37 O 0.60453 0.74331 0.91767 0.0
O38 O 0.54697 0.78786 0.88728 0.0
C39 C 0.50982 0.30157 0.17257 0.0
O40 O 0.50596 0.30997 0.15193 0.0
O41 O 0.55391 0.26289 0.13273 0.0
Zn42 Zn 0.55873 0.29759 0.15349 0.0
O43 O 0.55813 0.32886 0.13179 0.0
C44 C 0.60326 0.29245 0.19039 0.0
O45 O 0.5886 0.27863 0.20103 0.0
O46 O 0.52975 0.29563 0.17741 0.0
C47 C 0.57395 0.34746 0.13309 0.0
O48 O 0.59309 0.34838 0.14785 0.0
C49 C 0.56994 0.25128 0.1306 0.0
O50 O 0.59116 0.261 0.1401 0.0
O51 O 0.59481 0.30207 0.17249 0.0
C52 C 0.1013 0.85674 0.19581 0.0
O53 O 0.11843 0.84597 0.19886 0.0
O54 O 0.13173 0.84877 0.14777 0.0
Zn55 Zn 0.13113 0.87774 0.16608 0.0
O56 O 0.1313 0.90215 0.14399 0.0
C57 C 0.17905 0.88991 0.18798 0.0
O58 O 0.18328 0.89284 0.16605 0.0
O59 O 0.10255 0.87247 0.18184 0.0
C60 C 0.13775 0.90039 0.12354 0.0
O61 O 0.14513 0.88231 0.11687 0.0
C62 C 0.11326 0.83753 0.13541 0.0
O63 O 0.09416 0.84542 0.13452 0.0
O64 O 0.1582 0.88467 0.19186 0.0
C65 C 0.57227 0.7269 0.39738 0.0
O66 O 0.57627 0.73666 0.41923 0.0
O67 O 0.52805 0.71116 0.43644 0.0
Zn68 Zn 0.52631 0.72566 0.40564 0.0
O69 O 0.53062 0.75916 0.41155 0.0
C70 C 0.47825 0.71982 0.39322 0.0
O71 O 0.48064 0.72894 0.41523 0.0
O72 O 0.55145 0.71972 0.38764 0.0
C73 C 0.52897 0.77089 0.39379 0.0
O74 O 0.52469 0.7607 0.37212 0.0
C75 C 0.53525 0.7225 0.45649 0.0
O76 O 0.54086 0.74464 0.45734 0.0
O77 O 0.49583 0.71499 0.38531 0.0
C78 C 0.58614 0.34541 0.68285 0.0
O79 O 0.58646 0.33616 0.66141 0.0
O80 O 0.63365 0.34287 0.65508 0.0
Zn81 Zn 0.6299 0.37024 0.67452 0.0
O82 O 0.62358 0.3941 0.65341 0.0
C83 C 0.67788 0.38828 0.69039 0.0
O84 O 0.67794 0.39063 0.66749 0.0
O85 O 0.60305 0.36096 0.69231 0.0
C86 C 0.61303 0.38901 0.63228 0.0
O87 O 0.60664 0.36767 0.62403 0.0
C88 C 0.64091 0.32736 0.66597 0.0
O89 O 0.64687 0.33042 0.68924 0.0
O90 O 0.65873 0.38104 0.69781 0.0
C91 C 0.0613 0.20627 0.88271 0.0
O92 O 0.0592 0.18987 0.89698 0.0
O93 O 0.0299 0.20435 0.93354 0.0
Zn94 Zn 0.02481 0.22201 0.90521 0.0
O95 O 0.02834 0.25467 0.91611 0.0
C96 C 0.97586 0.21631 0.89451 0.0
O97 O 0.97866 0.22656 0.91605 0.0
O98 O 0.04853 0.22068 0.88352 0.0
C99 C 0.024 0.26879 0.90135 0.0
O100 O 1.01697 0.26169 0.87878 0.0
C101 C 0.02956 0.21265 0.95457 0.0
O102 O 0.02503 0.23286 0.95772 0.0
O103 O 0.99334 0.2113 0.88647 0.0
C104 C 0.47126 0.11907 0.28053 0.0
O105 O 0.49108 0.13345 0.28112 0.0
O106 O 0.52367 0.09777 0.2982 0.0
Zn107 Zn 0.49829 0.1019 0.31716 0.0
O108 O 0.50656 0.13262 0.3357 0.0
C109 C 0.50222 0.06031 0.33934 0.0
O110 O 0.52351 0.065 0.33423 0.0
O111 O 0.47022 0.10302 0.29406 0.0
C112 C 0.52017 0.13923 0.35501 0.0
O113 O 0.52497 0.16076 0.36257 0.0
C114 C 0.54287 0.1117 0.29897 0.0
O115 O 0.5473 0.13027 0.31334 0.0
O116 O 0.48933 0.07451 0.33542 0.0
C117 C 0.38018 0.13212 0.54025 0.0
O118 O 0.37161 0.12908 0.56034 0.0
O119 O 0.34096 0.17923 0.56193 0.0
Zn120 Zn 0.33958 0.16168 0.52597 0.0
O121 O 0.34139 0.18423 0.49566 0.0
C122 C 0.2928 0.1319 0.53707 0.0
O123 O 0.30373 0.13508 0.55903 0.0
O124 O 0.36997 0.1436 0.52505 0.0
C125 C 0.32533 0.18443 0.4779 0.0
O126 O 0.30518 0.17078 0.47795 0.0
C127 C 0.34206 0.20012 0.56912 0.0
O128 O 0.34392 0.21501 0.55316 0.0
O129 O 0.30421 0.14006 0.52043 0.0
C130 C 0.23028 0.02134 0.86087 0.0
O131 O 0.21072 0.01221 0.86822 0.0
O132 O 0.18652 0.04858 0.81784 0.0
Zn133 Zn 0.20861 0.05918 0.84776 0.0
O134 O 0.19058 0.05979 0.87491 0.0
C135 C 0.23317 0.10547 0.8613 0.0
O136 O 0.22915 0.10115 0.88299 0.0
O137 O 0.23231 0.04033 0.85219 0.0
C138 C 0.17688 0.07343 0.87431 0.0
O139 O 0.17554 0.08612 0.85636 0.0
C140 C 0.16775 0.03402 0.81696 0.0
O141 O 0.1628 0.02426 0.83631 0.0
O142 O 0.22575 0.09031 0.84413 0.0
C143 C 0.28382 0.91889 0.04778 0.0
O144 O 0.27124 0.89923 0.03856 0.0
O145 O 0.32111 0.87647 0.0721 0.0
Zn146 Zn 0.32424 0.89771 0.04562 0.0
O147 O 0.31403 0.88162 0.01222 0.0
C148 C 0.36578 0.92372 0.03087 0.0
O149 O 0.35262 0.92133 0.01006 0.0
O150 O 0.30576 0.92152 0.05158 0.0
C151 C 0.3265 0.86935 1.00346 0.0
O152 O 0.34519 0.86631 0.01685 0.0
C153 C 0.33854 0.87001 0.08273 0.0
O154 O 0.35872 0.87591 0.07522 0.0
O155 O 0.35751 0.9147 0.04847 0.0
C156 C 0.25881 0.44627 0.04787 0.0
O157 O 0.26199 0.43687 0.06801 0.0
O158 O 0.3009 0.40543 0.06797 0.0
Zn159 Zn 0.30269 0.42501 0.03538 0.0
O160 O 0.30035 0.40492 1.00055 0.0
C161 C 0.35614 0.44166 0.03556 0.0
O162 O 0.35495 0.41984 0.03191 0.0
O163 O 0.27297 0.44398 0.03261 0.0
C164 C 0.30764 0.38681 0.99501 0.0
O165 O 0.31705 0.37687 0.01254 0.0
C166 C 0.31553 0.39486 0.07893 0.0
O167 O 0.33458 0.39435 0.06967 0.0
O168 O 0.33706 0.44819 0.03804 0.0
C169 C 0.83561 0.1618 0.99812 0.0
O170 O 0.82566 0.16532 0.97702 0.0
O171 O 0.80761 0.20721 0.04638 0.0
Zn172 Zn 0.80534 0.18938 0.0142 0.0
O173 O 0.8102 0.20839 0.98608 0.0
C174 C 0.75601 0.17368 0.01326 0.0
O175 O 0.75762 0.19409 0.02338 0.0
O176 O 0.82956 0.17035 0.01669 0.0
C177 C 0.79591 0.21933 0.97625 0.0
O178 O 0.777 0.22026 0.98563 0.0
C179 C 0.82602 0.21076 0.06148 0.0
O180 O 0.84452 0.20453 0.05529 0.0
O181 O 0.77415 0.168 1.0075 0.0
C182 C 0.15861 0.42503 0.27262 0.0
O183 O 0.1441 0.40768 0.26054 0.0
O184 O 0.12762 0.42271 0.2162 0.0
Zn185 Zn 0.13456 0.45033 0.23985 0.0
O186 O 0.10644 0.4552 0.25377 0.0
C187 C 0.14096 0.49674 0.22757 0.0
O188 O 0.12076 0.49523 0.23509 0.0
O189 O 0.15758 0.44488 0.26711 0.0
C190 C 0.09437 0.44102 0.26521 0.0
O191 O 0.09941 0.42102 0.26728 0.0
C192 C 0.11995 0.42031 0.19404 0.0
O193 O 0.11872 0.40078 0.18211 0.0
O194 O 0.14974 0.47924 0.22661 0.0
C195 C 0.75655 0.9486 0.54939 0.0
O196 O 0.76467 0.94792 0.57193 0.0
O197 O 0.80238 0.90421 0.56928 0.0
Zn198 Zn 0.79944 0.92405 0.53673 0.0
O199 O 0.79789 0.90439 0.50196 0.0
C200 C 0.85233 0.9412 0.53737 0.0
O201 O 0.85111 0.91929 0.5369 0.0
O202 O 0.76775 0.94076 0.53359 0.0
C203 C 0.80648 0.88711 0.49639 0.0
O204 O 0.81678 0.87778 0.51388 0.0
C205 C 0.78743 0.89736 0.58352 0.0
O206 O 0.76653 0.90131 0.57818 0.0
O207 O 0.83314 0.94809 0.53805 0.0
C208 C 0.87714 0.06501 0.18437 0.0
O209 O 0.89793 0.07352 0.17937 0.0
O210 O 0.92406 0.03352 0.18475 0.0
Zn211 Zn 0.89927 0.03099 0.20575 0.0
O212 O 0.91542 0.04398 0.23828 0.0
C213 C 0.88206 0.98209 0.19373 0.0
O214 O 0.88643 0.98544 0.17193 0.0
O215 O 0.87396 0.04694 0.19488 0.0
C216 C 0.90719 0.03775 0.25699 0.0
O217 O 0.88629 0.02497 0.25488 0.0
C218 C 0.94209 0.02704 0.19378 0.0
O219 O 0.9421 0.01816 0.21439 0.0
O220 O 0.88592 0.99873 0.20936 0.0
C221 C 0.35306 0.68335 0.52462 0.0
O222 O 0.35705 0.70525 0.52271 0.0
O223 O 0.31319 0.70958 0.55997 0.0
Zn224 Zn 0.30749 0.69051 0.52811 0.0
O225 O 0.30781 0.70845 0.49884 0.0
C226 C 0.25915 0.67187 0.53206 0.0
O227 O 0.25968 0.69215 0.54193 0.0
O228 O 0.33288 0.6732 0.52752 0.0
C229 C 0.28988 0.71312 0.48712 0.0
O230 O 0.26992 0.70797 0.4952 0.0
C231 C 0.30771 0.69964 0.57827 0.0
O232 O 0.29846 0.67793 0.57578 0.0
O233 O 0.27734 0.66758 0.5249 0.0
C234 C 0.37558 0.55435 0.69132 0.0
O235 O 0.38625 0.55651 0.67241 0.0
O236 O 0.42133 0.52687 0.67803 0.0
Zn237 Zn 0.40004 0.51803 0.70189 0.0
O238 O 0.41981 0.51889 0.7334 0.0
C239 C 0.38879 0.47019 0.68731 0.0
O240 O 0.40904 0.47377 0.67965 0.0
O241 O 0.37899 0.53935 0.7053 0.0
C242 C 0.41104 0.51101 0.75123 0.0
O243 O 0.38865 0.50257 0.74889 0.0
C244 C 0.43648 0.54497 0.68397 0.0
O245 O 0.4361 0.55674 0.70407 0.0
O246 O 0.38126 0.48684 0.69538 0.0
C247 C 0.65925 0.94939 0.78263 0.0
O248 O 0.65283 0.96727 0.79154 0.0
O249 O 0.61441 0.94547 0.71213 0.0
Zn250 Zn 0.62879 0.95846 0.74514 0.0
O251 O 0.60444 0.96267 0.76514 0.0
C252 C 0.64458 1.00222 0.7269 0.0
O253 O 0.62742 0.99515 0.70942 0.0
O254 O 0.65001 0.94082 0.7618 0.0
C255 C 0.58901 0.9736 0.75825 0.0
O256 O 0.58826 0.98119 0.73698 0.0
C257 C 0.59327 0.93541 0.70727 0.0
O258 O 0.58137 0.92979 0.72479 0.0
O259 O 0.64818 0.98936 0.74328 0.0
C260 C 0.89314 0.64659 0.0243 0.0
O261 O 0.89468 0.66135 1.00817 0.0
O262 O 0.84673 0.68579 0.06294 0.0
Zn263 Zn 0.84466 0.66275 0.03041 0.0
O264 O 0.84606 0.68141 0.99695 0.0
C265 C 0.79127 0.64667 0.03124 0.0
O266 O 0.79289 0.66858 0.03468 0.0
O267 O 0.87483 0.64419 0.03512 0.0
C268 C 0.82911 0.68505 0.98184 0.0
O269 O 0.80798 0.67722 0.98628 0.0
C270 C 0.83826 0.67935 0.08197 0.0
O271 O 0.82847 0.65789 0.08177 0.0
O272 O 0.81013 0.63978 0.02859 0.0
C273 C 0.93538 0.6236 0.83216 0.0
O274 O 0.95264 0.63943 0.8429 0.0
O275 O 0.98441 0.63941 0.80003 0.0
Zn276 Zn 0.97136 0.60833 0.80997 0.0
O277 O 0.99063 0.60283 0.83975 0.0
C278 C 0.9816 0.56849 0.78541 0.0
O279 O 1.00222 0.57491 0.79805 0.0
O280 O 0.93951 0.60859 0.81775 0.0
C281 C 1.01265 0.60767 0.84302 0.0
O282 O 0.02378 0.61723 0.82644 0.0
C283 C 0.99878 0.64592 0.78581 0.0
O284 O 1.00618 0.66767 0.78453 0.0
O285 O 0.96707 0.58125 0.78611 0.0
C286 C 0.79676 0.42108 0.55966 0.0
O287 O 0.80835 0.41329 0.57748 0.0
O288 O 0.82089 0.37306 0.55874 0.0
Zn289 Zn 0.82194 0.39536 0.5334 0.0
O290 O 0.81488 0.3796 0.49995 0.0
C291 C 0.8614 0.4261 0.52061 0.0
O292 O 0.8493 0.42199 0.49919 0.0
O293 O 0.79917 0.41518 0.53839 0.0
C294 C 0.82902 0.3687 0.49222 0.0
O295 O 0.8477 0.36713 0.50657 0.0
C296 C 0.83901 0.36723 0.56859 0.0
O297 O 0.85891 0.37482 0.5611 0.0
O298 O 0.85337 0.41629 0.5379 0.0
C299 C 0.76663 0.52431 0.35662 0.0
O300 O 0.74512 0.51906 0.34585 0.0
O301 O 0.73596 0.56347 0.33099 0.0
Zn302 Zn 0.75411 0.56646 0.36385 0.0
O303 O 0.7313 0.56211 0.38679 0.0
C304 C 0.76832 0.61377 0.38104 0.0
O305 O 0.75083 0.60943 0.39325 0.0
O306 O 0.77458 0.54413 0.36643 0.0
C307 C 0.73056 0.54871 0.40319 0.0
O308 O 0.74625 0.53628 0.40647 0.0
C309 C 0.72365 0.57809 0.32681 0.0
O310 O 0.72343 0.59361 0.34388 0.0
O311 O 0.77336 0.59776 0.36869 0.0
Tb312 Tb 0.06653 0.06014 0.05066 0.0
Eu313 Eu 0.11899 0.08118 0.08058 0.0
C314 C 0.10722 0.08151 0.02398 0.0
C315 C 0.10442 0.03072 0.0524 0.0
C316 C 1.00489 0.05758 0.02786 0.0
C317 C 0.96832 0.0595 1.00434 0.0
C318 C 0.9871 0.0489 0.00901 0.0
C319 C 1.00373 0.07699 0.04197 0.0
C320 C 0.98505 0.08759 0.03731 0.0
C321 C 0.96718 0.07901 0.01841 0.0
C322 C 0.02453 0.04634 0.03286 0.0
O323 O 0.07314 0.04494 0.08376 0.0
O324 O 0.09242 0.07668 0.10578 0.0
O325 O 0.10443 0.11127 0.07109 0.0
O326 O 0.06616 0.09332 0.06757 0.0
C327 C 0.07739 0.0575 0.10394 0.0
O328 O 0.14403 0.07841 0.11137 0.0
O329 O 0.15352 0.10305 0.08617 0.0
O330 O 0.12232 0.07819 0.04171 0.0
O331 O 0.08519 0.07994 0.02589 0.0
O332 O 0.08507 0.03436 0.04082 0.0
O333 O 0.11706 0.0446 0.06998 0.0
C334 C 0.08231 0.11183 0.06848 0.0
O335 O 0.0413 0.05153 0.02014 0.0
O336 O 0.03241 0.04613 0.05536 0.0
C337 C 0.17961 0.07959 0.09771 0.0
C338 C 0.208 0.04876 0.08847 0.0
C339 C 0.20913 0.05892 0.1117 0.0
C340 C 0.19497 0.07415 0.11629 0.0
C341 C 0.17924 0.07023 0.07438 0.0
C342 C 0.19326 0.05504 0.06982 0.0
C343 C 0.16102 0.0912 0.10289 0.0
H344 H 0.95484 0.05259 0.98958 0.0
H345 H 0.98772 0.03392 0.99793 0.0
H346 H 1.01714 0.08381 0.05678 0.0
H347 H 0.98438 0.10229 0.04876 0.0
H348 H 0.22049 0.05466 0.12644 0.0
H349 H 0.19525 0.08086 0.13447 0.0
H350 H 0.16715 0.07365 0.05978 0.0
H351 H 0.19152 0.04729 0.05181 0.0
Tb352 Tb 0.33166 0.80719 0.2964 0.0
Eu353 Eu 0.29774 0.76028 0.26627 0.0
C354 C 0.28079 0.80613 0.27578 0.0
C355 C 0.30252 0.76906 0.32389 0.0
C356 C 0.37707 0.86114 0.31947 0.0
C357 C 0.3919 0.89899 0.30847 0.0
C358 C 0.37478 0.87914 0.30542 0.0
C359 C 0.39727 0.86308 0.33594 0.0
C360 C 0.41445 0.88291 0.33895 0.0
C361 C 0.41173 0.90133 0.32566 0.0
C362 C 0.35738 0.84192 0.31988 0.0
O363 O 0.35319 0.78446 0.28539 0.0
O364 O 0.32835 0.75078 0.28697 0.0
O365 O 0.31902 0.7786 0.24032 0.0
O366 O 0.33017 0.81459 0.25921 0.0
C367 C 0.34944 0.76296 0.28932 0.0
O368 O 0.29423 0.73033 0.24158 0.0
O369 O 0.26368 0.73897 0.25406 0.0
O370 O 0.28111 0.78976 0.2598 0.0
O371 O 0.2959 0.81052 0.29528 0.0
O372 O 0.32028 0.78595 0.32396 0.0
O373 O 0.28988 0.75849 0.30416 0.0
C374 C 0.3268 0.80048 0.23996 0.0
O375 O 0.33793 0.84193 0.30637 0.0
O376 O 0.36164 0.82168 0.32067 0.0
C377 C 0.2615 0.70021 0.2412 0.0
C378 C 0.23798 0.65441 0.23658 0.0
C379 C 0.25273 0.66271 0.22015 0.0
C380 C 0.2643 0.68536 0.22242 0.0
C381 C 0.24733 0.69188 0.2581 0.0
C382 C 0.2357 0.6692 0.25582 0.0
C383 C 0.27182 0.72452 0.24132 0.0
H384 H 0.38903 0.91289 0.29811 0.0
H385 H 0.35933 0.87834 0.29274 0.0
H386 H 0.39939 0.84955 0.34718 0.0
H387 H 0.42963 0.88397 0.35208 0.0
H388 H 0.25521 0.65175 0.20537 0.0
H389 H 0.27506 0.69141 0.20912 0.0
H390 H 0.24476 0.70298 0.27273 0.0
H391 H 0.22432 0.66344 0.26869 0.0
Tb392 Tb 0.5529 0.0205 0.51585 0.0
Eu393 Eu 0.58495 0.06343 0.5488 0.0
C394 C 0.56048 0.01924 0.57062 0.0
C395 C 0.5288 0.06189 0.53358 0.0
C396 C 0.53121 0.97063 0.47081 0.0
C397 C 0.51476 0.94431 0.43621 0.0
C398 C 0.51369 0.96285 0.45149 0.0
C399 C 0.55056 0.96056 0.47388 0.0
C400 C 0.55157 0.94192 0.45873 0.0
C401 C 0.53333 0.93316 0.44017 0.0
C402 C 0.52812 0.988 0.4885 0.0
O403 O 0.57403 0.04092 0.49333 0.0
O404 O 0.57492 0.0747 0.51283 0.0
O405 O 0.61106 0.04263 0.53752 0.0
O406 O 0.5865 1.0088 0.52394 0.0
C407 C 0.57474 0.06259 0.49299 0.0
O408 O 0.61532 0.09101 0.55352 0.0
O409 O 0.59441 0.08473 0.58223 0.0
O410 O 0.5796 0.0345 0.57168 0.0
O411 O 0.54484 0.01567 0.55164 0.0
O412 O 0.52814 0.04377 0.51886 0.0
O413 O 0.54816 0.07088 0.54823 0.0
C414 C 0.60795 0.02081 0.53068 0.0
O415 O 0.53647 0.98636 0.51058 0.0
O416 O 0.53233 1.00879 0.48278 0.0
C417 C 0.61459 0.1221 0.58009 0.0
C418 C 0.62033 0.16876 0.59199 0.0
C419 C 0.63875 0.15773 0.59762 0.0
C420 C 0.63587 0.13459 0.59171 0.0
C421 C 0.5962 0.13299 0.57403 0.0
C422 C 0.59904 0.15619 0.58 0.0
C423 C 0.61199 0.09773 0.57485 0.0
H424 H 0.50065 0.93821 0.42182 0.0
H425 H 0.49874 0.9706 0.44873 0.0
H426 H 0.5644 0.96646 0.48859 0.0
H427 H 0.56602 0.93363 0.46243 0.0
H428 H 0.65522 0.16686 0.60716 0.0
H429 H 0.65021 0.12638 0.59651 0.0
H430 H 0.57967 0.12352 0.56491 0.0
H431 H 0.58462 0.16429 0.57527 0.0
Tb432 Tb 0.29496 0.28956 0.77283 0.0
Eu433 Eu 0.34843 0.28894 0.79344 0.0
C434 C 0.33555 0.32601 0.7583 0.0
C435 C 0.32555 0.26794 0.73836 0.0
C436 C 0.23269 0.27702 0.77236 0.0
C437 C 0.19158 0.26239 0.77162 0.0
C438 C 0.20995 0.27319 0.76052 0.0
C439 C 0.23697 0.26986 0.79529 0.0
C440 C 0.21869 0.25905 0.80635 0.0
C441 C 0.19579 0.25526 0.79468 0.0
C442 C 0.25224 0.2871 0.76047 0.0
O443 O 0.29497 0.25665 0.78561 0.0
O444 O 0.32645 0.26527 0.81439 0.0
O445 O 0.33813 0.31309 0.82068 0.0
O446 O 0.29871 0.30183 0.81146 0.0
C447 C 0.30644 0.25251 0.80551 0.0
O448 O 0.37499 0.26934 0.80178 0.0
O449 O 0.38331 0.30574 0.8095 0.0
O450 O 0.35122 0.31515 0.76715 0.0
O451 O 0.31365 0.3205 0.7612 0.0
O452 O 0.30822 0.2784 0.74023 0.0
O453 O 0.3409 0.2674 0.75732 0.0
C454 C 0.31719 0.31292 0.82618 0.0
O455 O 0.26617 0.3049 0.77195 0.0
O456 O 0.26363 0.27269 0.75257 0.0
C457 C 0.41139 0.28901 0.79499 0.0
C458 C 0.4498 0.29699 0.7702 0.0
C459 C 0.45298 0.29647 0.79516 0.0
C460 C 0.43385 0.29256 0.80749 0.0
C461 C 0.40813 0.28881 0.77004 0.0
C462 C 0.42718 0.29272 0.75773 0.0
C463 C 0.3914 0.28731 0.80785 0.0
H464 H 0.17407 0.25989 0.76233 0.0
H465 H 0.20644 0.27845 0.74272 0.0
H466 H 0.25451 0.27242 0.80454 0.0
H467 H 0.2225 0.25346 0.82396 0.0
H468 H 0.47024 0.2999 0.8052 0.0
H469 H 0.43658 0.29292 0.82679 0.0
H470 H 0.39084 0.28619 0.76014 0.0
H471 H 0.42423 0.29274 0.73847 0.0
Tb472 Tb 0.06741 0.03385 0.50744 0.0
Eu473 Eu 0.07098 0.05878 0.55882 0.0
C474 C 0.11725 0.06076 0.53246 0.0
C475 C 0.07198 1.00372 0.55359 0.0
C476 C 0.04655 0.01925 0.44406 0.0
C477 C 0.03515 0.01544 0.40116 0.0
C478 C 0.0499 1.01181 0.42119 0.0
C479 C 0.0284 0.03042 0.44674 0.0
C480 C 1.01361 0.03393 0.42682 0.0
C481 C 1.01682 0.02654 0.40377 0.0
C482 C 0.06225 0.01608 0.46515 0.0
O483 O 0.03027 0.03123 0.51216 0.0
O484 O 0.03398 0.03793 0.55255 0.0
O485 O 0.06473 0.08723 0.53482 0.0
O486 O 0.06752 0.06975 0.4988 0.0
C487 C 1.02091 0.03011 0.53215 0.0
O488 O 0.05675 0.07666 0.58599 0.0
O489 O 0.09174 0.07079 0.59315 0.0
O490 O 0.10637 0.07126 0.54688 0.0
O491 O 0.10559 0.04246 0.51906 0.0
O492 O 0.06989 1.00483 0.53006 0.0
O493 O 0.07409 0.02249 0.56764 0.0
C494 C 0.06609 0.08829 0.51176 0.0
O495 O 0.07812 0.03376 0.47349 0.0
O496 O 0.05224 1.00654 0.48215 0.0
C497 C 0.07033 0.06871 0.62484 0.0
C498 C 0.07076 0.05 0.66909 0.0
C499 C 0.0611 0.03638 0.64788 0.0
C500 C 0.06092 0.04569 0.62589 0.0
C501 C 0.07852 0.08262 0.64594 0.0
C502 C 0.0787 0.07337 0.66791 0.0
C503 C 0.07481 0.07752 0.60203 0.0
H504 H 0.03828 1.00981 0.38364 0.0
H505 H 0.06398 1.00336 0.41882 0.0
H506 H 0.02566 0.03643 0.46429 0.0
H507 H 0.9995 0.04223 0.42952 0.0
H508 H 0.05471 0.01839 0.64822 0.0
H509 H 0.05459 0.03471 0.60965 0.0
H510 H 0.08602 0.10037 0.64537 0.0
H511 H 0.08663 0.0843 0.68381 0.0
Tb512 Tb 0.30937 0.77442 0.79258 0.0
Eu513 Eu 0.32907 0.82434 0.77801 0.0
C514 C 0.31155 0.81599 0.82903 0.0
C515 C 0.2734 0.80258 0.76671 0.0
C516 C 0.30294 0.71372 0.79429 0.0
C517 C 0.33199 0.69716 0.77778 0.0
C518 C 0.32551 0.71563 0.78868 0.0
C519 C 0.28713 0.693 0.78957 0.0
C520 C 0.29359 0.67448 0.77856 0.0
C521 C 0.31594 0.67656 0.77216 0.0
C522 C 0.29485 0.73409 0.80109 0.0
O523 O 0.32614 0.76938 0.76115 0.0
O524 O 0.32256 0.80187 0.74403 0.0
O525 O 0.36153 0.80957 0.7874 0.0
O526 O 0.34622 0.78181 0.8099 0.0
C527 C 0.32488 0.78086 0.74226 0.0
O528 O 0.32559 0.854 0.7588 0.0
O529 O 0.35791 0.85336 0.78053 0.0
O530 O 0.32594 0.8285 0.81705 0.0
O531 O 0.29988 0.79589 0.82017 0.0
O532 O 0.27877 0.78287 0.77093 0.0
O533 O 0.28947 0.82134 0.77198 0.0
C534 C 0.36458 0.79492 0.8033 0.0
O535 O 0.30907 0.74897 0.81635 0.0
O536 O 0.28613 0.74345 0.78302 0.0
C537 C 0.34439 0.88712 0.78197 0.0
C538 C 0.33268 0.92467 0.80497 0.0
C539 C 0.33679 0.92488 0.78104 0.0
C540 C 0.34248 0.90613 0.76957 0.0
C541 C 0.34199 0.88756 0.80627 0.0
C542 C 0.33616 0.90613 0.81768 0.0
C543 C 0.34551 0.86582 0.76906 0.0
H544 H 0.34922 0.6993 0.77275 0.0
H545 H 0.33779 0.73168 0.79169 0.0
H546 H 0.26953 0.69141 0.79346 0.0
H547 H 0.28099 0.65871 0.77458 0.0
H548 H 0.33458 0.93909 0.7709 0.0
H549 H 0.34424 0.90604 0.75079 0.0
H550 H 0.34336 0.873 0.81612 0.0
H551 H 0.33288 0.90525 0.836 0.0
Tb552 Tb 0.57822 0.03697 0.05682 0.0
Eu553 Eu 0.55286 0.04887 1.00752 0.0
C554 C 0.57095 1.0003 0.0108 0.0
C555 C 0.60719 0.06399 0.0214 0.0
C556 C 0.60709 0.04303 0.11885 0.0
C557 C 0.61616 0.0802 0.14033 0.0
C558 C 0.6116 0.06665 0.1188 0.0
C559 C 0.6089 0.03315 0.14051 0.0
C560 C 0.61337 0.04665 0.16204 0.0
C561 C 0.61601 0.07027 0.16216 0.0
C562 C 0.59674 0.02874 0.09694 0.0
O563 O 0.56773 0.06965 0.06729 0.0
O564 O 0.55978 0.08265 0.0306 0.0
O565 O 0.52698 0.04135 0.03305 0.0
O566 O 0.54413 0.01483 0.04902 0.0
C567 C 0.5635 0.08635 0.05414 0.0
O568 O 0.5501 0.06847 0.9765 0.0
O569 O 0.52121 0.04212 0.98206 0.0
O570 O 0.55654 1.01177 0.99965 0.0
O571 O 0.58331 1.00899 0.03169 0.0
O572 O 0.60361 0.06224 0.0436 0.0
O573 O 0.59076 0.05553 1.00369 0.0
C574 C 0.52536 0.02253 0.04333 0.0
O575 O 0.57457 0.02763 0.09129 0.0
O576 O 0.60778 0.03169 0.07851 0.0
C577 C 0.52688 0.04817 0.9424 0.0
C578 C 0.52474 0.0333 0.8942 0.0
C579 C 0.52562 0.01808 0.91191 0.0
C580 C 0.52682 0.02548 0.93585 0.0
C581 C 0.52519 0.06323 0.92472 0.0
C582 C 0.52422 0.05587 0.90075 0.0
C583 C 0.5297 0.05654 0.9676 0.0
H584 H 0.61837 0.09833 0.13984 0.0
H585 H 0.61016 0.07453 0.10214 0.0
H586 H 0.60526 0.01493 0.14081 0.0
H587 H 0.61281 0.0384 0.17846 0.0
H588 H 0.52651 1.00069 0.90737 0.0
H589 H 0.52832 0.0136 0.94926 0.0
H590 H 0.52523 0.0808 0.92952 0.0
H591 H 0.5236 0.06791 0.88739 0.0
Tb592 Tb 0.33197 0.31763 0.29566 0.0
Eu593 Eu 0.30836 0.27055 0.26669 0.0
C594 C 0.32867 0.2718 0.32325 0.0
C595 C 0.36422 0.29273 0.26471 0.0
C596 C 0.33808 0.36877 0.33557 0.0
C597 C 0.30283 0.37067 0.35219 0.0
C598 C 0.31871 0.35818 0.34553 0.0
C599 C 0.34322 0.39237 0.33579 0.0
C600 C 0.32736 0.40487 0.34246 0.0
C601 C 0.30603 0.3938 0.34863 0.0
C602 C 0.34809 0.35559 0.31874 0.0
O603 O 0.3272 0.32644 0.25793 0.0
O604 O 0.29959 0.29631 0.24058 0.0
O605 O 0.27843 0.27852 0.28579 0.0
O606 O 0.29494 0.31433 0.30237 0.0
C607 C 0.31215 0.31667 0.23926 0.0
O608 O 0.29931 0.2492 0.23311 0.0
O609 O 0.28904 0.23573 0.26535 0.0
O610 O 0.32516 0.26025 0.30216 0.0
O611 O 0.32957 0.29382 0.32426 0.0
O612 O 0.36294 0.30852 0.28152 0.0
O613 O 0.34556 0.27688 0.25675 0.0
C614 C 0.27698 0.29685 0.29886 0.0
O615 O 0.35352 0.33684 0.32536 0.0
O616 O 0.33645 0.35276 0.29738 0.0
C617 C 0.30216 0.21134 0.23875 0.0
C618 C 0.32904 0.17807 0.23723 0.0
C619 C 0.33143 0.1953 0.22163 0.0
C620 C 0.31812 0.21181 0.22238 0.0
C621 C 0.29835 0.19296 0.25281 0.0
C622 C 0.31176 0.17654 0.25215 0.0
C623 C 0.29157 0.23101 0.24327 0.0
H624 H 0.2868 0.36167 0.3573 0.0
H625 H 0.31444 0.33995 0.34558 0.0
H626 H 0.35812 0.40085 0.32821 0.0
H627 H 0.33059 0.4228 0.34019 0.0
H628 H 0.34471 0.19695 0.21004 0.0
H629 H 0.32132 0.22559 0.21108 0.0
H630 H 0.28593 0.19197 0.26533 0.0
H631 H 0.30942 0.16324 0.26415 0.0
Tb632 Tb 0.57152 0.53309 1.00823 0.0
Eu633 Eu 0.57522 0.55759 0.06054 0.0
C634 C 0.6225 0.55824 0.03614 0.0
C635 C 0.57682 0.50294 0.05451 0.0
C636 C 0.55044 0.51243 0.94531 0.0
C637 C 0.53852 0.50271 0.90288 0.0
C638 C 0.55465 0.50366 0.92331 0.0
C639 C 0.52991 0.52017 0.94677 0.0
C640 C 0.51374 0.51917 0.9264 0.0
C641 C 0.51791 0.51053 0.90419 0.0
C642 C 0.56762 0.5139 0.96659 0.0
O643 O 0.5345 0.52636 0.01362 0.0
O644 O 0.53603 0.5449 0.05035 0.0
O645 O 0.57311 0.58667 0.03606 0.0
O646 O 0.56512 0.56721 0.99916 0.0
C647 C 0.5241 0.53174 0.03173 0.0
O648 O 0.56539 0.55826 0.09638 0.0
O649 O 0.5886 0.58702 0.0861 0.0
O650 O 0.61341 0.56057 0.05595 0.0
O651 O 0.6092 0.54836 0.01636 0.0
O652 O 0.57747 0.50511 0.03135 0.0
O653 O 0.57636 0.52088 0.06874 0.0
C654 C 0.56895 0.5867 0.01255 0.0
O655 O 0.58006 0.53393 0.97337 0.0
O656 O 0.5601 0.50388 0.98456 0.0
C657 C 0.59485 0.57805 0.12587 0.0
C658 C 0.62388 0.57767 0.16903 0.0
C659 C 0.60227 0.58378 0.16905 0.0
C660 C 0.58788 0.58398 0.14761 0.0
C661 C 0.61638 0.57194 0.12571 0.0
C662 C 0.63084 0.57185 0.14713 0.0
C663 C 0.57926 0.57756 0.10354 0.0
H664 H 0.54238 0.49626 0.88598 0.0
H665 H 0.5705 0.49774 0.9219 0.0
H666 H 0.52642 0.52705 0.96367 0.0
H667 H 0.49793 0.52506 0.92806 0.0
H668 H 0.59657 0.58855 0.18565 0.0
H669 H 0.57126 0.58866 0.148 0.0
H670 H 0.62193 0.56708 0.10905 0.0
H671 H 0.64727 0.56683 0.1466 0.0
Tb672 Tb 0.81234 0.26824 0.28212 0.0
Eu673 Eu 0.83141 0.31832 0.26743 0.0
C674 C 0.81789 0.31056 0.31967 0.0
C675 C 0.77652 0.2951 0.25578 0.0
C676 C 0.78879 0.20758 0.27484 0.0
C677 C 0.7855 0.16713 0.26963 0.0
C678 C 0.78603 0.18657 0.28431 0.0
C679 C 0.78881 0.20877 0.25021 0.0
C680 C 0.78865 0.18942 0.23558 0.0
C681 C 0.78831 0.16861 0.24542 0.0
C682 C 0.79586 0.22831 0.29082 0.0
O683 O 0.82585 0.26235 0.24873 0.0
O684 O 0.82514 0.29625 0.23322 0.0
O685 O 0.86434 0.30613 0.28186 0.0
O686 O 0.84827 0.27662 0.30195 0.0
C687 C 0.82623 0.27491 0.23059 0.0
O688 O 0.82502 0.35063 0.25658 0.0
O689 O 0.85971 0.34438 0.25906 0.0
O690 O 0.83106 0.32327 0.30674 0.0
O691 O 0.80629 0.29015 0.31157 0.0
O692 O 0.78328 0.27566 0.25708 0.0
O693 O 0.79171 0.31395 0.26348 0.0
C694 C 0.86681 0.2909 0.29724 0.0
O695 O 0.81791 0.23711 0.29308 0.0
O696 O 0.78346 0.24356 0.28738 0.0
C697 C 0.85503 0.38068 0.27178 0.0
C698 C 0.85811 0.41913 0.30306 0.0
C699 C 0.86465 0.3997 0.3117 0.0
C700 C 0.86294 0.38053 0.29617 0.0
C701 C 0.85065 0.40063 0.26278 0.0
C702 C 0.85215 0.41972 0.27827 0.0
C703 C 0.84688 0.35942 0.2568 0.0
H704 H 0.78459 0.15121 0.2776 0.0
H705 H 0.78587 0.18539 0.30329 0.0
H706 H 0.79077 0.22492 0.24261 0.0
H707 H 0.7908 0.19124 0.21707 0.0
H708 H 0.86961 0.3988 0.33062 0.0
H709 H 0.86625 0.36516 0.30347 0.0
H710 H 0.84428 0.40092 0.24404 0.0
H711 H 0.84666 0.43421 0.27095 0.0
Tb712 Tb 0.07315 0.53719 0.55931 0.0
Eu713 Eu 0.0533 0.55041 0.50755 0.0
C714 C 0.07076 0.50103 0.51431 0.0
C715 C 0.10862 0.56067 0.52625 0.0
C716 C 0.07377 0.53725 0.62314 0.0
C717 C 0.04546 0.55551 0.63895 0.0
C718 C 0.05367 0.54614 0.61963 0.0
C719 C 0.08527 0.53732 0.64632 0.0
C720 C 0.07696 0.54667 0.66579 0.0
C721 C 0.0572 0.55623 0.66219 0.0
C722 C 0.08319 0.52942 0.60226 0.0
O723 O 0.06391 0.57115 0.56696 0.0
O724 O 0.05586 0.5838 0.53003 0.0
O725 O 0.02358 0.5446 0.52871 0.0
O726 O 0.03763 0.51869 0.54981 0.0
C727 C 0.05943 0.5876 0.55356 0.0
O728 O 0.05424 0.56887 0.47562 0.0
O729 O 0.02496 0.54185 0.47798 0.0
O730 O 0.05935 0.51388 0.50121 0.0
O731 O 0.07959 0.50813 0.53685 0.0
O732 O 0.10511 0.55018 0.54551 0.0
O733 O 0.09167 0.5627 0.50985 0.0
C734 C 1.02007 0.52697 0.5409 0.0
O735 O 0.06834 0.51551 0.58669 0.0
O736 O 0.09539 0.54534 0.59195 0.0
C737 C 0.03879 0.54433 0.4414 0.0
C738 C 0.04368 0.52088 0.39876 0.0
C739 C 0.02679 0.53415 0.399 0.0
C740 C 0.02436 0.54582 0.42026 0.0
C741 C 0.05554 0.53103 0.44121 0.0
C742 C 0.05793 0.51937 0.42012 0.0
C743 C 0.03576 0.55537 0.46407 0.0
H744 H 0.03002 0.56246 0.63567 0.0
H745 H 0.04453 0.54623 0.60185 0.0
H746 H 0.10089 0.53063 0.64928 0.0
H747 H 0.0864 0.54714 0.68353 0.0
H748 H 1.01567 0.53568 0.38276 0.0
H749 H 1.0112 0.55587 0.42022 0.0
H750 H 0.06665 0.5295 0.45746 0.0
H751 H 0.07079 0.50895 0.42061 0.0
Tb752 Tb 0.79959 0.79293 0.2747 0.0
Eu753 Eu 0.85388 0.79721 0.29413 0.0
C754 C 0.83694 0.83198 0.25941 0.0
C755 C 0.83116 0.77248 0.24081 0.0
C756 C 0.73687 0.77803 0.27315 0.0
C757 C 0.69563 0.7702 0.27505 0.0
C758 C 0.71432 0.77903 0.26336 0.0
C759 C 0.74063 0.76788 0.29452 0.0
C760 C 0.722 0.75903 0.30618 0.0
C761 C 0.69933 0.76027 0.29667 0.0
C762 C 0.75662 0.78788 0.26149 0.0
O763 O 0.80239 0.76124 0.28977 0.0
O764 O 0.8347 0.77358 0.31704 0.0
O765 O 0.84119 0.82034 0.32075 0.0
O766 O 0.80242 0.80464 0.3132 0.0
C767 C 0.81547 0.75899 0.30952 0.0
O768 O 0.88315 0.78118 0.30345 0.0
O769 O 0.88766 0.81763 0.30885 0.0
O770 O 0.85321 0.82083 0.26533 0.0
O771 O 0.81614 0.82598 0.26544 0.0
O772 O 0.8137 0.7828 0.24228 0.0
O773 O 0.84665 0.77288 0.25992 0.0
C774 C 0.82027 0.8177 0.32715 0.0
O775 O 0.76959 0.80647 0.27235 0.0
O776 O 0.76899 0.77373 0.25505 0.0
C777 C 0.91875 0.80342 0.29749 0.0
C778 C 0.95926 0.81196 0.27596 0.0
C779 C 0.96057 0.80961 0.30061 0.0
C780 C 0.94041 0.80538 0.3113 0.0
C781 C 0.91727 0.8053 0.27285 0.0
C782 C 0.93739 0.80954 0.26214 0.0
C783 C 0.89783 0.80044 0.30897 0.0
H784 H 0.6783 0.77121 0.26724 0.0
H785 H 0.71121 0.78678 0.24683 0.0
H786 H 0.75803 0.76708 0.30235 0.0
H787 H 0.72542 0.75179 0.32296 0.0
H788 H 0.97717 0.81113 0.31163 0.0
H789 H 0.94176 0.80395 0.33037 0.0
H790 H 0.90059 0.80392 0.262 0.0
H791 H 0.93585 0.81154 0.24318 0.0
Tb792 Tb 0.8463 0.30702 0.78183 0.0
Eu793 Eu 0.80584 0.26328 0.75602 0.0
C794 C 0.79578 0.31361 0.76356 0.0
C795 C 0.81604 0.27467 0.81362 0.0
C796 C 0.88857 0.36246 0.79187 0.0
C797 C 0.88509 0.40157 0.78899 0.0
C798 C 0.87598 0.37959 0.79429 0.0
C799 C 0.91021 0.36768 0.78376 0.0
C800 C 0.9192 0.38957 0.77826 0.0
C801 C 0.90684 0.40679 0.78103 0.0
C802 C 0.87977 0.33918 0.79783 0.0
O803 O 0.86163 0.27817 0.77365 0.0
O804 O 0.83249 0.24862 0.77743 0.0
O805 O 0.82817 0.27754 0.72875 0.0
O806 O 0.83871 0.31403 0.74499 0.0
C807 C 0.85456 0.25771 0.77993 0.0
O808 O 0.79731 0.23324 0.73085 0.0
O809 O 0.77006 0.2448 0.7472 0.0
O810 O 0.79106 0.29408 0.75075 0.0
O811 O 0.81475 0.32034 0.77903 0.0
O812 O 0.83566 0.28865 0.81178 0.0
O813 O 0.80086 0.2654 0.7949 0.0
C814 C 0.83508 0.29918 0.72649 0.0
O815 O 0.86028 0.33503 0.8067 0.0
O816 O 0.88095 0.32316 0.78201 0.0
C817 C 0.76398 0.20572 0.73462 0.0
C818 C 0.74056 0.16059 0.73544 0.0
C819 C 0.7468 0.16887 0.71402 0.0
C820 C 0.75837 0.19122 0.71364 0.0
C821 C 0.75813 0.19753 0.75618 0.0
C822 C 0.74642 0.17512 0.75657 0.0
C823 C 0.77533 0.22935 0.73312 0.0
H824 H 0.87514 0.41452 0.79115 0.0
H825 H 0.8592 0.3761 0.80039 0.0
H826 H 0.9203 0.3548 0.78184 0.0
H827 H 0.93612 0.39316 0.77247 0.0
H828 H 0.74225 0.15821 0.69742 0.0
H829 H 0.7627 0.19729 0.69683 0.0
H830 H 0.76244 0.20846 0.77262 0.0
H831 H 0.74202 0.16913 0.77337 0.0
Tb832 Tb 0.83051 0.81457 0.79699 0.0
Eu833 Eu 0.80641 0.76773 0.7678 0.0
C834 C 0.82901 0.768 0.82407 0.0
C835 C 0.86143 0.79063 0.7641 0.0
C836 C 0.83681 0.87209 0.82379 0.0
C837 C 0.81692 0.89294 0.84928 0.0
C838 C 0.83188 0.87817 0.84656 0.0
C839 C 0.82822 0.88258 0.80412 0.0
C840 C 0.81342 0.89739 0.80686 0.0
C841 C 0.80684 0.90197 0.82928 0.0
C842 C 0.8474 0.85236 0.82023 0.0
O843 O 0.81973 0.82592 0.76114 0.0
O844 O 0.80081 0.79272 0.73976 0.0
O845 O 0.77913 0.77495 0.79124 0.0
O846 O 0.79321 0.81245 0.80195 0.0
C847 C 0.80881 0.81477 0.74073 0.0
O848 O 0.80862 0.73639 0.74857 0.0
O849 O 0.7749 0.74321 0.75243 0.0
O850 O 0.82077 0.75606 0.80348 0.0
O851 O 0.83371 0.79035 0.82492 0.0
O852 O 0.86101 0.80424 0.7832 0.0
O853 O 0.84207 0.77649 0.75447 0.0
C854 C 0.77654 0.79417 0.80167 0.0
O855 O 0.83792 0.83445 0.82973 0.0
O856 O 0.85124 0.84726 0.79872 0.0
C857 C 0.78105 0.70619 0.75666 0.0
C858 C 0.79129 0.66798 0.77774 0.0
C859 C 0.7849 0.6672 0.75285 0.0
C860 C 0.78016 0.68638 0.74234 0.0
C861 C 0.78337 0.70568 0.78156 0.0
C862 C 0.78849 0.68668 0.79207 0.0
C863 C 0.78645 0.72804 0.74657 0.0
H864 H 0.81233 0.89639 0.8668 0.0
H865 H 0.83837 0.87035 0.862 0.0
H866 H 0.83164 0.87826 0.78631 0.0
H867 H 0.80576 0.90386 0.79103 0.0
H868 H 0.78619 0.65274 0.74137 0.0
H869 H 0.77827 0.68644 0.72308 0.0
H870 H 0.78392 0.72082 0.79292 0.0
H871 H 0.79302 0.68785 0.81127 0.0
Tb872 Tb 0.57009 0.56485 0.53223 0.0
Eu873 Eu 0.61658 0.57682 0.57268 0.0
C874 C 0.61834 0.56568 0.51718 0.0
C875 C 0.5916 0.52653 0.55429 0.0
C876 C 0.5148 0.57277 0.50357 0.0
C877 C 0.4754 0.57697 0.4913 0.0
C878 C 0.49312 0.56506 0.48969 0.0
C879 C 0.51873 0.5926 0.51886 0.0
C880 C 0.50105 0.60437 0.52062 0.0
C881 C 0.47913 0.59662 0.507 0.0
C882 C 0.53288 0.55947 0.50383 0.0
O883 O 0.56037 0.57979 0.56395 0.0
O884 O 0.58563 0.5684 0.59211 0.0
O885 O 0.60382 0.60915 0.57042 0.0
O886 O 0.58738 0.59997 0.53136 0.0
C887 C 0.56591 0.57445 0.58565 0.0
O888 O 0.63596 0.56885 0.60528 0.0
O889 O 0.65199 0.59533 0.58498 0.0
O890 O 0.62702 0.57982 0.53605 0.0
O891 O 0.59676 0.55444 0.51425 0.0
O892 O 0.57227 0.53354 0.54857 0.0
O893 O 0.61161 0.5407 0.55863 0.0
C894 C 0.59518 0.61486 0.54981 0.0
O895 O 0.55285 0.57014 0.49896 0.0
O896 O 0.5353 0.54834 0.52266 0.0
C897 C 0.67334 0.56838 0.59742 0.0
C898 C 0.70267 0.53803 0.59118 0.0
C899 C 0.70522 0.5513 0.61293 0.0
C900 C 0.69044 0.56628 0.61611 0.0
C901 C 0.67154 0.55581 0.57542 0.0
C902 C 0.68598 0.54074 0.57236 0.0
C903 C 0.65539 0.58124 0.60101 0.0
H904 H 0.4586 0.57046 0.48078 0.0
H905 H 0.48976 0.54964 0.478 0.0
H906 H 0.53539 0.59882 0.52974 0.0
H907 H 0.50459 0.61958 0.53264 0.0
H908 H 0.71796 0.5494 0.62771 0.0
H909 H 0.69189 0.57565 0.63327 0.0
H910 H 0.65839 0.55709 0.56078 0.0
H911 H 0.68385 0.53089 0.55536 0.0
Tb912 Tb 0.0603 0.52453 0.03052 0.0
Eu913 Eu 0.09433 0.57113 0.0535 0.0
C914 C 0.07677 0.53175 0.08477 0.0
C915 C 0.03736 0.56789 0.04275 0.0
C916 C 0.03426 0.46817 0.99706 0.0
C917 C 1.01381 0.43766 0.96788 0.0
C918 C 1.01425 0.45764 0.98158 0.0
C919 C 0.05418 0.45895 0.99809 0.0
C920 C 0.05373 0.43886 0.98448 0.0
C921 C 0.03338 0.42778 0.96955 0.0
C922 C 0.03351 0.48812 0.01262 0.0
O923 O 0.07674 0.53981 1.00154 0.0
O924 O 0.08166 0.57647 0.01597 0.0
O925 O 0.11963 0.54893 0.04303 0.0
O926 O 0.09472 0.51428 0.03501 0.0
C927 C 0.07902 0.56128 0.998 0.0
O928 O 0.12233 0.59996 0.05156 0.0
O929 O 0.10682 0.59564 0.0842 0.0
O930 O 0.09503 0.54593 0.0805 0.0
O931 O 0.05829 0.52658 0.06867 0.0
O932 O 0.03586 0.54821 0.03044 0.0
O933 O 0.05751 0.5782 0.05534 0.0
C934 C 0.11621 0.52667 0.0385 0.0
O935 O 0.04587 0.49055 0.03367 0.0
O936 O 0.03506 0.50713 1.00274 0.0
C937 C 0.12072 0.63266 0.07533 0.0
C938 C 0.11761 0.67801 0.08321 0.0
C939 C 0.10283 0.664 0.06456 0.0
C940 C 0.10429 0.64137 0.06072 0.0
C941 C 0.13584 0.64673 0.09352 0.0
C942 C 0.1343 0.66924 0.09746 0.0
C943 C 0.12136 0.60868 0.07294 0.0
H944 H 0.99803 0.42976 0.95623 0.0
H945 H 0.99878 0.46465 0.98044 0.0
H946 H 0.06988 0.46693 0.00984 0.0
H947 H 0.06902 0.4316 0.98631 0.0
H948 H 0.08973 0.67035 0.05346 0.0
H949 H 0.09233 0.63058 0.04672 0.0
H950 H 0.14854 0.64017 0.10497 0.0
H951 H 0.14604 0.67979 0.11178 0.0
C952 C 0.03898 0.21064 0.99862 0.0
C953 C 0.03566 0.20023 0.97532 0.0
C954 C 0.04622 0.19942 0.01829 0.0
C955 C 0.05011 0.17732 0.01447 0.0
C956 C 0.04615 0.16651 0.99106 0.0
C957 C 0.03903 0.17812 0.97178 0.0
C958 C 0.05011 0.21133 0.04303 0.0
C959 C 0.04983 0.14278 0.98629 0.0
C960 C 0.09087 0.14989 0.05324 0.0
C961 C 0.07508 0.13282 0.0617 0.0
C962 C 0.08308 0.1662 0.03966 0.0
C963 C 0.05899 0.16538 0.03461 0.0
C964 C 0.04331 0.15005 0.0457 0.0
C965 C 0.05158 0.13393 0.05922 0.0
C966 C 0.10043 0.18259 0.02851 0.0
C967 C 1.01752 0.1488 0.0411 0.0
H968 H 0.03637 0.22773 1.00149 0.0
H969 H 0.03635 0.16991 0.95385 0.0
H970 H 0.03998 0.20078 0.05498 0.0
H971 H 0.06867 0.21384 0.05065 0.0
H972 H 0.04514 0.22805 0.0431 0.0
H973 H 0.04545 0.13664 0.96709 0.0
H974 H 0.06821 0.14219 0.99222 0.0
H975 H 0.039 0.13097 0.99663 0.0
H976 H 0.10914 0.1494 0.05535 0.0
H977 H 0.03934 0.12121 0.06632 0.0
H978 H 0.09632 0.19966 0.02919 0.0
H979 H 0.09964 0.17676 0.00945 0.0
H980 H 0.11842 0.18388 0.03751 0.0
H981 H 1.01344 0.16573 0.03914 0.0
H982 H 1.00873 0.14104 0.05567 0.0
H983 H 1.01033 0.13819 0.0242 0.0
C984 C 0.21937 0.88507 0.20089 0.0
C985 C 0.19762 0.88702 0.20675 0.0
C986 C 0.2347 0.87604 0.21654 0.0
C987 C 0.22802 0.86891 0.23845 0.0
C988 C 0.20742 0.87349 0.24567 0.0
C989 C 0.19242 0.88253 0.2297 0.0
C990 C 0.25683 0.87186 0.20843 0.0
C991 C 0.19992 0.86656 0.26909 0.0
C992 C 0.24542 0.81417 0.25291 0.0
C993 C 0.2652 0.82165 0.26979 0.0
C994 C 0.23258 0.82937 0.24347 0.0
C995 C 0.23983 0.85269 0.25101 0.0
C996 C 0.25901 0.86021 0.2691 0.0
C997 C 0.27149 0.84451 0.27839 0.0
C998 C 0.21193 0.82057 0.2245 0.0
C999 C 0.26721 0.8849 0.27761 0.0
H1000 H 0.2237 0.88887 0.18336 0.0
H1001 H 0.17584 0.88449 0.23458 0.0
H1002 H 0.27146 0.87628 0.22326 0.0
H1003 H 0.25466 0.85363 0.20277 0.0
H1004 H 0.26141 0.8817 0.19316 0.0
H1005 H 0.18636 0.87537 0.27422 0.0
H1006 H 0.1927 0.84809 0.26744 0.0
H1007 H 0.21486 0.8701 0.28361 0.0
H1008 H 0.24044 0.79645 0.24641 0.0
H1009 H 0.28691 0.85037 0.29135 0.0
H1010 H 0.21549 0.82739 0.20729 0.0
H1011 H 0.19643 0.82631 0.2294 0.0
H1012 H 0.20778 0.80182 0.22177 0.0
H1013 H 0.2766 0.89377 0.26403 0.0
H1014 H 0.27914 0.88738 0.29474 0.0
H1015 H 0.25236 0.89296 0.27992 0.0
C1016 C 0.53632 0.80631 0.42074 0.0
C1017 C 0.53099 0.79557 0.39757 0.0
C1018 C 0.53729 0.8295 0.42483 0.0
C1019 C 0.5328 0.84227 0.40528 0.0
C1020 C 0.52791 0.83167 0.38178 0.0
C1021 C 0.52707 0.80839 0.37819 0.0
C1022 C 0.5426 0.84023 0.45018 0.0
C1023 C 0.52305 0.84479 0.36054 0.0
C1024 C 0.51176 0.89467 0.42344 0.0
C1025 C 0.53247 0.91105 0.42704 0.0
C1026 C 0.51133 0.87246 0.41483 0.0
C1027 C 0.53214 0.86646 0.40983 0.0
C1028 C 0.55277 0.88321 0.41191 0.0
C1029 C 0.55269 0.90536 0.4205 0.0
C1030 C 0.48895 0.85508 0.41274 0.0
C1031 C 0.57524 0.87746 0.40651 0.0
H1032 H 0.53948 0.79655 0.43579 0.0
H1033 H 0.52296 0.8002 0.36022 0.0
H1034 H 0.55764 0.85466 0.45189 0.0
H1035 H 0.52757 0.84698 0.45489 0.0
H1036 H 0.54652 0.82809 0.46329 0.0
H1037 H 0.5211 0.83439 0.34334 0.0
H1038 H 0.50686 0.85105 0.36155 0.0
H1039 H 0.53724 0.8598 0.36069 0.0
H1040 H 0.49611 0.89883 0.42869 0.0
H1041 H 0.56865 0.91805 0.42287 0.0
H1042 H 0.49026 0.84336 0.42697 0.0
H1043 H 0.48569 0.84483 0.39535 0.0
H1044 H 0.47383 0.86295 0.41451 0.0
H1045 H 0.58159 0.86718 0.42046 0.0
H1046 H 0.58889 0.89282 0.40598 0.0
H1047 H 0.57254 0.8672 0.38916 0.0
C1048 C 0.54889 0.31908 0.6864 0.0
C1049 C 0.56645 0.33765 0.69591 0.0
C1050 C 0.53005 0.31157 0.69854 0.0
C1051 C 0.52873 0.32301 0.72061 0.0
C1052 C 0.54646 0.34167 0.73038 0.0
C1053 C 0.56516 0.34874 0.71793 0.0
C1054 C 0.51146 0.29155 0.68764 0.0
C1055 C 0.54552 0.35433 0.75385 0.0
C1056 C 0.46966 0.31902 0.74019 0.0
C1057 C 0.46993 0.30319 0.75726 0.0
C1058 C 0.48867 0.32553 0.72806 0.0
C1059 C 0.50839 0.31594 0.73311 0.0
C1060 C 0.50875 0.29986 0.75023 0.0
C1061 C 0.48949 0.29371 0.76219 0.0
C1062 C 0.48774 0.34285 0.71002 0.0
C1063 C 0.52947 0.28921 0.75593 0.0
H1064 H 0.54983 0.31036 0.66944 0.0
H1065 H 0.57867 0.36311 0.72538 0.0
H1066 H 0.5093 0.27831 0.70038 0.0
H1067 H 0.49461 0.2968 0.68392 0.0
H1068 H 0.51548 0.28406 0.67074 0.0
H1069 H 0.56096 0.3682 0.75924 0.0
H1070 H 0.52978 0.36167 0.75249 0.0
H1071 H 0.54429 0.34257 0.76814 0.0
H1072 H 0.45469 0.32664 0.73663 0.0
H1073 H 0.48963 0.28134 0.77526 0.0
H1074 H 0.49035 0.33574 0.69235 0.0
H1075 H 0.50196 0.35784 0.71549 0.0
H1076 H 0.47098 0.34849 0.70801 0.0
H1077 H 0.53308 0.28056 0.73948 0.0
H1078 H 0.52686 0.27676 0.76949 0.0
H1079 H 0.54507 0.30248 0.7627 0.0
C1080 C 0.09087 0.88676 0.6173 0.0
C1081 C 0.0706 0.8707 0.62004 0.0
C1082 C 0.0905 0.90745 0.60632 0.0
C1083 C 0.06927 0.91357 0.59745 0.0
C1084 C 0.0486 0.89746 0.59994 0.0
C1085 C 0.04946 0.87657 0.61088 0.0
C1086 C 0.11327 0.92301 0.60436 0.0
C1087 C 0.0253 0.9025 0.59129 0.0
C1088 C 0.07087 0.97841 0.58945 0.0
C1089 C 0.07135 0.98057 0.56472 0.0
C1090 C 0.06968 0.95719 0.59996 0.0
C1091 C 0.06905 0.93662 0.58594 0.0
C1092 C 0.06952 0.93869 0.56097 0.0
C1093 C 0.07051 0.9601 0.55087 0.0
C1094 C 0.06914 0.95689 0.62645 0.0
C1095 C 0.0692 0.91807 0.54468 0.0
H1096 H 0.10756 0.8832 0.62393 0.0
H1097 H 0.03344 0.86505 0.61267 0.0
H1098 H 0.11429 0.92634 0.58545 0.0
H1099 H 0.11444 0.9395 0.6145 0.0
H1100 H 0.12842 0.91592 0.61128 0.0
H1101 H 1.01076 0.8887 0.59409 0.0
H1102 H 0.02343 0.9184 0.60083 0.0
H1103 H 0.02398 0.90515 0.57201 0.0
H1104 H 0.07129 0.99349 0.60086 0.0
H1105 H 0.07074 0.96076 0.53185 0.0
H1106 H 0.08473 0.95147 0.63508 0.0
H1107 H 0.05377 0.94442 0.6299 0.0
H1108 H 0.06859 0.97369 0.63499 0.0
H1109 H 0.08459 0.91088 0.55037 0.0
H1110 H 0.06919 0.92188 0.52575 0.0
H1111 H 0.05362 0.90488 0.54597 0.0
C1112 C 0.49036 0.80698 0.88618 0.0
C1113 C 0.50634 0.79489 0.87799 0.0
C1114 C 0.46804 0.80635 0.8733 0.0
C1115 C 0.46045 0.79317 0.85112 0.0
C1116 C 0.47642 0.78091 0.84254 0.0
C1117 C 0.49892 0.78193 0.85585 0.0
C1118 C 0.45242 0.81997 0.88365 0.0
C1119 C 0.46963 0.76647 0.81921 0.0
C1120 C 0.39333 0.77751 0.83077 0.0
C1121 C 0.38926 0.79361 0.81453 0.0
C1122 C 0.41608 0.77671 0.84199 0.0
C1123 C 0.43598 0.79244 0.83736 0.0
C1124 C 0.432 0.80852 0.82074 0.0
C1125 C 0.40909 0.80888 0.80967 0.0
C1126 C 0.41875 0.7591 0.85928 0.0
C1127 C 0.45205 0.82587 0.81497 0.0
H1128 H 0.49529 0.81722 0.90304 0.0
H1129 H 0.51059 0.77237 0.84896 0.0
H1130 H 0.4476 0.83202 0.87087 0.0
H1131 H 0.43613 0.8086 0.88663 0.0
H1132 H 0.46069 0.82964 0.90085 0.0
H1133 H 0.48362 0.75798 0.81467 0.0
H1134 H 0.45385 0.7534 0.82011 0.0
H1135 H 0.4653 0.77701 0.8046 0.0
H1136 H 0.3786 0.76548 0.83495 0.0
H1137 H 0.40672 0.82152 0.79736 0.0
H1138 H 0.42535 0.76747 0.87745 0.0
H1139 H 0.43166 0.74943 0.85424 0.0
H1140 H 0.40212 0.74708 0.85993 0.0
H1141 H 0.4602 0.83705 0.83126 0.0
H1142 H 0.44661 0.83649 0.80086 0.0
H1143 H 0.46549 0.8174 0.80899 0.0
C1144 C 0.58599 0.21852 0.11301 0.0
C1145 C 0.56637 0.22694 0.11819 0.0
C1146 C 0.5847 0.19601 0.10305 0.0
C1147 C 0.56317 0.18021 0.09783 0.0
C1148 C 0.54313 0.18846 0.10287 0.0
C1149 C 0.54489 0.21136 0.11272 0.0
C1150 C 0.60679 0.18912 0.09812 0.0
C1151 C 0.51963 0.17286 0.09809 0.0
C1152 C 0.55939 0.12803 0.05164 0.0
C1153 C 0.56278 0.11008 0.06575 0.0
C1154 C 0.55903 0.15023 0.06163 0.0
C1155 C 0.56194 0.1556 0.08683 0.0
C1156 C 0.56513 0.13751 0.10123 0.0
C1157 C 0.56561 0.11543 0.09074 0.0
C1158 C 0.55589 0.16822 0.04495 0.0
C1159 C 0.56834 0.1415 0.12804 0.0
H1160 H 0.60288 0.22973 0.11682 0.0
H1161 H 0.52939 0.21686 0.11656 0.0
H1162 H 0.60961 0.17473 0.10856 0.0
H1163 H 0.60534 0.18331 0.07897 0.0
H1164 H 0.62221 0.20313 0.1027 0.0
H1165 H 0.50566 0.18124 0.10293 0.0
H1166 H 0.51561 0.16666 0.07893 0.0
H1167 H 0.51972 0.15786 0.10843 0.0
H1168 H 0.5572 0.12483 0.0324 0.0
H1169 H 0.56831 0.10229 0.10231 0.0
H1170 H 0.57145 0.18217 0.04803 0.0
H1171 H 0.54089 0.17554 0.04861 0.0
H1172 H 0.55307 0.16161 0.02589 0.0
H1173 H 0.585 0.1535 0.1343 0.0
H1174 H 0.56841 0.12564 0.13691 0.0
H1175 H 0.5543 0.14929 0.13372 0.0
C1176 C 0.15214 0.30126 0.35446 0.0
C1177 C 0.15291 0.29277 0.37727 0.0
C1178 C 0.17126 0.30293 0.34074 0.0
C1179 C 0.19231 0.29599 0.34945 0.0
C1180 C 0.19312 0.28767 0.37246 0.0
C1181 C 0.17395 0.28618 0.38566 0.0
C1182 C 0.16898 0.31233 0.31674 0.0
C1183 C 0.21459 0.28026 0.38343 0.0
C1184 C 0.23572 0.27862 0.308 0.0
C1185 C 0.25463 0.29741 0.31056 0.0
C1186 C 0.21555 0.27826 0.31967 0.0
C1187 C 0.21329 0.29709 0.3349 0.0
C1188 C 0.23214 0.31627 0.33724 0.0
C1189 C 0.25212 0.31619 0.32532 0.0
C1190 C 0.19662 0.25725 0.31596 0.0
C1191 C 0.23176 0.33695 0.35312 0.0
H1192 H 0.13656 0.30664 0.3472 0.0
H1193 H 0.17565 0.27964 0.40303 0.0
H1194 H 0.18297 0.32747 0.31666 0.0
H1195 H 0.17112 0.29966 0.30273 0.0
H1196 H 0.15196 0.31708 0.31209 0.0
H1197 H 0.21298 0.27426 0.4014 0.0
H1198 H 0.21815 0.26644 0.37171 0.0
H1199 H 0.22978 0.29454 0.38498 0.0
H1200 H 0.23674 0.26378 0.29695 0.0
H1201 H 0.26607 0.33098 0.32789 0.0
H1202 H 0.17969 0.26164 0.30987 0.0
H1203 H 0.19518 0.24954 0.33313 0.0
H1204 H 0.19985 0.24448 0.30266 0.0
H1205 H 0.214 0.34025 0.3523 0.0
H1206 H 0.24341 0.35215 0.34817 0.0
H1207 H 0.23779 0.33424 0.37186 0.0
C1208 C 0.96323 0.03953 0.15991 0.0
C1209 C 0.96331 0.03084 0.18229 0.0
C1210 C 0.98347 0.04381 0.14921 0.0
C1211 C 1.00426 0.03937 0.16125 0.0
C1212 C 1.00449 0.03068 0.18387 0.0
C1213 C 0.98397 0.02645 0.1941 0.0
C1214 C 0.98257 0.05296 0.12494 0.0
C1215 C 0.02638 0.0258 0.1972 0.0
C1216 C 0.04759 0.0303 0.12039 0.0
C1217 C 0.06176 0.05195 0.12191 0.0
C1218 C 0.02949 0.02566 0.13407 0.0
C1219 C 0.0255 0.0431 0.14961 0.0
C1220 C 0.04069 0.06457 0.15242 0.0
C1221 C 0.05875 0.06875 0.13852 0.0
C1222 C 1.01378 1.00248 0.13075 0.0
C1223 C 0.03701 0.08352 0.16899 0.0
H1224 H 0.94733 0.04299 0.15072 0.0
H1225 H 0.9842 0.01985 0.21148 0.0
H1226 H 0.99534 0.06916 0.12578 0.0
H1227 H 0.98736 0.04096 0.11191 0.0
H1228 H 0.96512 0.05585 0.11816 0.0
H1229 H 0.02377 0.01964 0.21494 0.0
H1230 H 0.03257 0.01286 0.18659 0.0
H1231 H 0.0403 0.04129 0.19978 0.0
H1232 H 0.05003 0.01719 0.10773 0.0
H1233 H 0.06966 0.0855 0.13972 0.0
H1234 H 0.9964 1.00366 0.12179 0.0
H1235 H 1.01148 0.99579 0.14828 0.0
H1236 H 1.0206 0.99023 0.11978 0.0
H1237 H 1.02107 0.08917 0.16174 0.0
H1238 H 0.0518 0.09827 0.1712 0.0
H1239 H 0.03448 0.07759 0.1868 0.0
C1240 C 0.3105 0.72227 0.45185 0.0
C1241 C 0.29101 0.72226 0.46344 0.0
C1242 C 0.31121 0.72953 0.4288 0.0
C1243 C 0.29209 0.73728 0.41714 0.0
C1244 C 0.27249 0.7376 0.42886 0.0
C1245 C 0.27212 0.72996 0.45179 0.0
C1246 C 0.33238 0.72877 0.41686 0.0
C1247 C 0.25194 0.7461 0.4172 0.0
C1248 C 0.30537 0.77597 0.36809 0.0
C1249 C 0.29768 0.76119 0.34738 0.0
C1250 C 0.303 0.76856 0.39081 0.0
C1251 C 0.29297 0.74568 0.39298 0.0
C1252 C 0.28465 0.73076 0.37213 0.0
C1253 C 0.28693 0.73874 0.34953 0.0
C1254 C 0.31175 0.78512 0.41252 0.0
C1255 C 0.27406 0.70619 0.37372 0.0
H1256 H 0.3251 0.71619 0.46061 0.0
H1257 H 0.257 0.73004 0.4606 0.0
H1258 H 0.32728 0.71834 0.39956 0.0
H1259 H 0.34054 0.74604 0.41297 0.0
H1260 H 0.3455 0.72169 0.42805 0.0
H1261 H 0.23805 0.74529 0.4287 0.0
H1262 H 0.25754 0.76386 0.41305 0.0
H1263 H 0.24458 0.73596 0.40006 0.0
H1264 H 0.31352 0.7934 0.36658 0.0
H1265 H 0.2811 0.7272 0.33362 0.0
H1266 H 0.3264 0.77996 0.42341 0.0
H1267 H 0.29788 0.7851 0.42389 0.0
H1268 H 0.31776 0.80263 0.40772 0.0
H1269 H 0.2872 0.6978 0.38304 0.0
H1270 H 0.26754 0.69702 0.35586 0.0
H1271 H 0.25951 0.70467 0.38437 0.0
C1272 C 0.59338 0.93917 0.66394 0.0
C1273 C 0.58113 0.93764 0.6835 0.0
C1274 C 0.58522 0.94856 0.64338 0.0
C1275 C 0.5646 0.95698 0.64269 0.0
C1276 C 0.55089 0.95315 0.66129 0.0
C1277 C 0.55926 0.94329 0.68148 0.0
C1278 C 0.60002 0.95174 0.62358 0.0
C1279 C 0.52879 0.96182 0.66121 0.0
C1280 C 0.57037 1.01148 0.61277 0.0
C1281 C 0.55802 1.0042 0.59005 0.0
C1282 C 0.57143 0.99644 0.63051 0.0
C1283 C 0.56016 0.97346 0.62521 0.0
C1284 C 0.54664 0.96625 0.6027 0.0
C1285 C 0.5456 0.9818 0.58536 0.0
C1286 C 0.5857 1.00494 0.6545 0.0
C1287 C 0.53456 0.94188 0.59636 0.0
H1288 H 0.6102 0.93459 0.66542 0.0
H1289 H 0.54973 0.94216 0.6966 0.0
H1290 H 0.58911 0.94785 0.60587 0.0
H1291 H 0.60935 0.96963 0.6247 0.0
H1292 H 0.61306 0.94088 0.62479 0.0
H1293 H 0.51788 0.95349 0.67401 0.0
H1294 H 0.5332 0.98026 0.66643 0.0
H1295 H 0.51852 0.95918 0.64315 0.0
H1296 H 0.57982 0.02884 0.61648 0.0
H1297 H 0.53616 0.97609 0.56772 0.0
H1298 H 0.6013 0.99739 0.65675 0.0
H1299 H 0.57557 0.99975 0.66912 0.0
H1300 H 0.59149 0.02363 0.65646 0.0
H1301 H 0.54759 0.93171 0.59305 0.0
H1302 H 0.52154 0.93984 0.58006 0.0
H1303 H 0.52581 0.93486 0.61127 0.0
C1304 C 0.30243 0.38835 0.94881 0.0
C1305 C 0.3067 0.3767 0.96924 0.0
C1306 C 0.3033 0.37893 0.92523 0.0
C1307 C 0.30833 0.35702 0.92131 0.0
C1308 C 0.31217 0.3451 0.94185 0.0
C1309 C 0.31145 0.35495 0.96509 0.0
C1310 C 0.29921 0.3927 0.9044 0.0
C1311 C 0.31734 0.32177 0.93934 0.0
C1312 C 0.293 0.32244 0.85875 0.0
C1313 C 0.31454 0.32486 0.85008 0.0
C1314 C 0.29066 0.33292 0.88132 0.0
C1315 C 0.31019 0.34667 0.89617 0.0
C1316 C 0.33188 0.34946 0.88731 0.0
C1317 C 0.33377 0.33862 0.86482 0.0
C1318 C 0.26714 0.3289 0.8895 0.0
C1319 C 0.35337 0.36384 0.9018 0.0
H1320 H 0.29889 0.40512 0.95125 0.0
H1321 H 0.31477 0.34539 0.98026 0.0
H1322 H 0.31492 0.39606 0.8954 0.0
H1323 H 0.2848 0.38307 0.89108 0.0
H1324 H 0.29498 0.4091 0.90993 0.0
H1325 H 0.31904 0.31417 0.95668 0.0
H1326 H 0.30336 0.31045 0.92683 0.0
H1327 H 0.33371 0.32254 0.93168 0.0
H1328 H 0.27784 0.31197 0.84801 0.0
H1329 H 0.35059 0.34096 0.85879 0.0
H1330 H 0.26226 0.34527 0.89365 0.0
H1331 H 0.26776 0.32015 0.90616 0.0
H1332 H 0.25345 0.31852 0.87589 0.0
H1333 H 0.35038 0.38096 0.90641 0.0
H1334 H 0.36869 0.36551 0.89218 0.0
H1335 H 0.35737 0.3563 0.91881 0.0
C1336 C 0.91414 0.03313 0.30071 0.0
C1337 C 0.92266 0.04094 0.28008 0.0
C1338 C 0.92925 0.03272 0.32175 0.0
C1339 C 0.95343 0.04015 0.32206 0.0
C1340 C 0.96202 0.04914 0.30171 0.0
C1341 C 0.94652 0.04954 0.28099 0.0
C1342 C 0.91944 0.02331 0.34324 0.0
C1343 C 0.9877 0.05717 0.30133 0.0
C1344 C 0.99323 0.05067 0.38132 0.0
C1345 C 1.00093 0.03027 0.38262 0.0
C1346 C 0.97769 0.05414 0.36178 0.0
C1347 C 0.96984 0.03687 0.34298 0.0
C1348 C 0.97771 0.01634 0.34404 0.0
C1349 C 0.99309 0.01325 0.36388 0.0
C1350 C 0.96964 0.07623 0.36127 0.0
C1351 C 0.96979 0.99755 0.32426 0.0
H1352 H 0.89573 0.02658 0.3002 0.0
H1353 H 0.95328 0.05563 0.26515 0.0
H1354 H 0.92467 1.00703 0.34643 0.0
H1355 H 0.92649 0.03501 0.35944 0.0
H1356 H 0.90021 0.02034 0.34091 0.0
H1357 H 0.99141 0.06546 0.28487 0.0
H1358 H 0.99554 0.06925 0.31703 0.0
H1359 H 0.99634 0.04256 0.30241 0.0
H1360 H 0.99949 0.06404 0.39556 0.0
H1361 H 0.99867 0.99733 0.3649 0.0
H1362 H 0.95046 0.07302 0.35986 0.0
H1363 H 0.97447 0.08479 0.34531 0.0
H1364 H 0.9772 0.08785 0.37744 0.0
H1365 H 0.95067 0.99182 0.32223 0.0
H1366 H 0.97783 0.98278 0.32764 0.0
H1367 H 0.97417 1.00383 0.30706 0.0
C1368 C 0.33014 0.73028 0.60889 0.0
C1369 C 0.31131 0.7121 0.60213 0.0
C1370 C 0.33411 0.74141 0.63198 0.0
C1371 C 0.31842 0.7347 0.64837 0.0
C1372 C 0.2992 0.71655 0.64142 0.0
C1373 C 0.29611 0.70525 0.61855 0.0
C1374 C 0.35516 0.76024 0.63892 0.0
C1375 C 0.28162 0.7093 0.65799 0.0
C1376 C 0.33417 0.75043 0.71542 0.0
C1377 C 0.32467 0.76965 0.71826 0.0
C1378 C 0.33301 0.73931 0.69266 0.0
C1379 C 0.32145 0.7472 0.67241 0.0
C1380 C 0.31183 0.76659 0.67525 0.0
C1381 C 0.31385 0.77773 0.69805 0.0
C1382 C 0.34395 0.719 0.69033 0.0
C1383 C 0.2987 0.77516 0.65433 0.0
H1384 H 0.34207 0.73542 0.59631 0.0
H1385 H 0.28147 0.69126 0.61333 0.0
H1386 H 0.34971 0.77636 0.6429 0.0
H1387 H 0.36555 0.75665 0.6554 0.0
H1388 H 0.36638 0.76256 0.62464 0.0
H1389 H 0.2674 0.69516 0.6497 0.0
H1390 H 0.29019 0.70391 0.67457 0.0
H1391 H 0.27394 0.72378 0.66323 0.0
H1392 H 0.34258 0.74412 0.73097 0.0
H1393 H 0.30619 0.7924 0.70014 0.0
H1394 H 0.35581 0.72123 0.67663 0.0
H1395 H 0.33034 0.70366 0.68429 0.0
H1396 H 0.35384 0.7161 0.70745 0.0
H1397 H 0.30996 0.77923 0.64034 0.0
H1398 H 0.29229 0.79048 0.65954 0.0
H1399 H 0.28365 0.76179 0.64625 0.0
C1400 C 0.55626 0.99129 0.76769 0.0
C1401 C 0.5739 0.97985 0.77509 0.0
C1402 C 0.54369 0.99958 0.78426 0.0
C1403 C 0.54922 0.99661 0.80873 0.0
C1404 C 0.56624 0.98413 0.8161 0.0
C1405 C 0.57824 0.97576 0.79915 0.0
C1406 C 0.52528 0.01235 0.77576 0.0
C1407 C 0.57273 0.98067 0.84208 0.0
C1408 C 0.54476 0.03867 0.85846 0.0
C1409 C 0.52728 0.0261 0.86953 0.0
C1410 C 0.55092 0.02993 0.8374 0.0
C1411 C 0.5391 1.00821 0.82714 0.0
C1412 C 0.52002 0.99637 0.83705 0.0
C1413 C 0.51446 1.00539 0.85835 0.0
C1414 C 0.57147 0.04303 0.82746 0.0
C1415 C 0.50665 0.97344 0.82623 0.0
H1416 H 0.55266 0.99428 0.74905 0.0
H1417 H 0.59176 0.96684 0.80499 0.0
H1418 H 0.50948 1.00684 0.7842 0.0
H1419 H 0.53175 0.03065 0.78103 0.0
H1420 H 0.52048 1.01002 0.75605 0.0
H1421 H 0.58556 0.96967 0.84466 0.0
H1422 H 0.58023 0.99725 0.85227 0.0
H1423 H 0.5571 0.97297 0.84984 0.0
H1424 H 0.55479 0.05462 0.86719 0.0
H1425 H 0.50073 0.99581 0.8668 0.0
H1426 H 0.56738 0.04357 0.8079 0.0
H1427 H 0.58628 0.03445 0.83072 0.0
H1428 H 0.57701 0.06064 0.83583 0.0
H1429 H 0.50332 0.97312 0.8065 0.0
H1430 H 0.48984 0.96859 0.83312 0.0
H1431 H 0.51703 0.96054 0.83065 0.0
C1432 C 0.32804 0.36975 0.11089 0.0
C1433 C 0.31236 0.38319 0.10221 0.0
C1434 C 0.32685 0.35918 0.13266 0.0
C1435 C 0.30958 0.36179 0.14718 0.0
C1436 C 0.29351 0.37521 0.13857 0.0
C1437 C 0.295 0.38555 0.11646 0.0
C1438 C 0.34443 0.34518 0.14022 0.0
C1439 C 0.27477 0.3789 0.15297 0.0
C1440 C 0.29679 0.31778 0.19452 0.0
C1441 C 0.31026 0.32863 0.21594 0.0
C1442 C 0.29598 0.32835 0.17255 0.0
C1443 C 0.3088 0.35072 0.17123 0.0
C1444 C 0.32207 0.36188 0.1929 0.0
C1445 C 0.32271 0.35087 0.21457 0.0
C1446 C 0.28165 0.31525 0.15044 0.0
C1447 C 0.33607 0.38558 0.19316 0.0
H1448 H 0.34162 0.36741 0.10055 0.0
H1449 H 0.28271 0.39578 0.11055 0.0
H1450 H 0.35478 0.35256 0.15756 0.0
H1451 H 0.33546 0.3278 0.14285 0.0
H1452 H 0.35646 0.34415 0.12693 0.0
H1453 H 0.26336 0.38934 0.14409 0.0
H1454 H 0.26398 0.3624 0.15593 0.0
H1455 H 0.28272 0.38741 0.17078 0.0
H1456 H 0.28706 0.30068 0.19475 0.0
H1457 H 0.33327 0.35981 0.23057 0.0
H1458 H 0.29312 0.31248 0.13707 0.0
H1459 H 0.26928 0.32507 0.14225 0.0
H1460 H 0.27177 0.29857 0.15425 0.0
H1461 H 0.34985 0.38564 0.18167 0.0
H1462 H 0.34433 0.39269 0.21142 0.0
H1463 H 0.32484 0.39681 0.18571 0.0
C1464 C 0.28616 0.95785 0.06649 0.0
C1465 C 0.27271 0.93783 0.05421 0.0
C1466 C 0.27604 0.97594 0.07287 0.0
C1467 C 0.25189 0.97412 0.06664 0.0
C1468 C 0.23816 0.95398 0.05427 0.0
C1469 C 0.24872 0.93602 0.04832 0.0
C1470 C 0.29122 0.99704 0.08627 0.0
C1471 C 0.21232 0.95134 0.04738 0.0
C1472 C 0.22208 0.01381 0.09973 0.0
C1473 C 0.22075 0.03052 0.08373 0.0
C1474 C 0.23224 0.99542 0.09447 0.0
C1475 C 0.24115 0.99356 0.07262 0.0
C1476 C 0.24009 1.01045 0.05651 0.0
C1477 C 0.23009 0.02878 0.06234 0.0
C1478 C 0.2331 0.97779 0.11215 0.0
C1479 C 0.2492 1.00897 0.03293 0.0
H1480 H 0.30468 0.9594 0.07126 0.0
H1481 H 0.23818 0.92061 0.03891 0.0
H1482 H 0.29049 1.01174 0.0756 0.0
H1483 H 0.28475 1.00068 0.10328 0.0
H1484 H 0.3096 0.99555 0.09034 0.0
H1485 H 0.20454 0.93564 0.03568 0.0
H1486 H 0.20381 0.95082 0.0637 0.0
H1487 H 0.20841 0.96602 0.03801 0.0
H1488 H 0.2145 0.0147 0.11606 0.0
H1489 H 0.22943 0.04171 0.04998 0.0
H1490 H 0.25114 0.97546 0.11666 0.0
H1491 H 0.22244 0.96131 0.10409 0.0
H1492 H 0.22659 0.98235 0.1289 0.0
H1493 H 0.26792 1.00861 0.03597 0.0
H1494 H 0.24686 0.02337 0.02227 0.0
H1495 H 0.24012 0.99301 0.0223 0.0
C1496 C 0.74731 0.64075 0.02891 0.0
C1497 C 0.76727 0.63122 0.03084 0.0
C1498 C 0.72466 0.62788 0.02961 0.0
C1499 C 0.72098 0.60437 0.03263 0.0
C1500 C 0.74097 0.59446 0.03446 0.0
C1501 C 0.76361 0.6078 0.03342 0.0
C1502 C 0.70449 0.63966 0.02722 0.0
C1503 C 0.73848 0.56967 0.03787 0.0
C1504 C 0.66342 0.57833 0.05641 0.0
C1505 C 0.64833 0.56824 0.03563 0.0
C1506 C 0.68696 0.58921 0.05582 0.0
C1507 C 0.69632 0.5906 0.03388 0.0
C1508 C 0.6813 0.58013 0.01292 0.0
C1509 C 0.65789 0.56918 0.01404 0.0
C1510 C 0.70176 0.59974 0.07884 0.0
C1511 C 0.68976 0.58105 0.98896 0.0
H1512 H 0.74933 0.65867 0.02681 0.0
H1513 H 0.77849 0.59991 0.03512 0.0
H1514 H 0.69134 0.63136 0.01199 0.0
H1515 H 0.69598 0.63829 0.04354 0.0
H1516 H 0.70986 0.65784 0.02439 0.0
H1517 H 0.75531 0.56421 0.0388 0.0
H1518 H 0.7311 0.56592 0.05457 0.0
H1519 H 0.72621 0.5595 0.02296 0.0
H1520 H 0.65673 0.57802 0.07332 0.0
H1521 H 0.64683 0.56178 0.99767 0.0
H1522 H 0.70626 0.61836 0.07835 0.0
H1523 H 0.71826 0.59367 0.08102 0.0
H1524 H 0.69286 0.59583 0.09465 0.0
H1525 H 0.69388 0.59886 0.98448 0.0
H1526 H 0.67672 0.57111 0.97447 0.0
H1527 H 0.70596 0.57453 0.98959 0.0
C1528 C 0.80373 0.51215 0.3696 0.0
C1529 C 0.78217 0.5083 0.35503 0.0
C1530 C 0.81958 0.49826 0.36651 0.0
C1531 C 0.81384 0.48055 0.34806 0.0
C1532 C 0.79174 0.4761 0.33392 0.0
C1533 C 0.77608 0.48991 0.33775 0.0
C1534 C 0.84267 0.50304 0.3824 0.0
C1535 C 0.78496 0.45736 0.31398 0.0
C1536 C 0.85636 0.45934 0.31364 0.0
C1537 C 0.85325 0.43691 0.31961 0.0
C1538 C 0.84521 0.47465 0.32446 0.0
C1539 C 0.83118 0.46744 0.34209 0.0
C1540 C 0.83062 0.44585 0.3505 0.0
C1541 C 0.84146 0.43071 0.33896 0.0
C1542 C 0.84635 0.4976 0.31507 0.0
C1543 C 0.81655 0.43783 0.36989 0.0
H1544 H 0.80839 0.52624 0.38318 0.0
H1545 H 0.75943 0.48686 0.32648 0.0
H1546 H 0.8471 0.48712 0.38839 0.0
H1547 H 0.85646 0.51098 0.37225 0.0
H1548 H 0.84281 0.51462 0.39834 0.0
H1549 H 0.76697 0.45594 0.30492 0.0
H1550 H 0.79696 0.46044 0.30049 0.0
H1551 H 0.78639 0.44093 0.32105 0.0
H1552 H 0.86603 0.46444 0.29919 0.0
H1553 H 0.83888 0.41344 0.3438 0.0
H1554 H 0.84914 0.51098 0.32994 0.0
H1555 H 0.82959 0.49787 0.30405 0.0
H1556 H 0.86039 0.50175 0.30386 0.0
H1557 H 0.81785 0.45164 0.38403 0.0
H1558 H 0.82225 0.42331 0.37816 0.0
H1559 H 0.79803 0.4323 0.36214 0.0
C1560 C 0.89311 0.45275 0.5474 0.0
C1561 C 0.88403 0.44214 0.52459 0.0
C1562 C 0.91457 0.46807 0.55139 0.0
C1563 C 0.92746 0.47241 0.53221 0.0
C1564 C 0.91832 0.46177 0.50913 0.0
C1565 C 0.89658 0.44696 0.50555 0.0
C1566 C 0.92353 0.47945 0.57613 0.0
C1567 C 0.93178 0.46558 0.48833 0.0
C1568 C 0.97694 0.52345 0.53469 0.0
C1569 C 0.99625 0.51388 0.54093 0.0
C1570 C 0.95433 0.51036 0.53267 0.0
C1571 C 0.95106 0.4871 0.53645 0.0
C1572 C 0.97049 0.47751 0.54325 0.0
C1573 C 0.99281 0.49107 0.54566 0.0
C1574 C 0.93397 0.52127 0.52595 0.0
C1575 C 0.96777 0.45269 0.54704 0.0
H1576 H 0.88333 0.44925 0.56213 0.0
H1577 H 0.88965 0.43872 0.48791 0.0
H1578 H 0.9396 0.47401 0.58331 0.0
H1579 H 0.92803 0.49805 0.57543 0.0
H1580 H 0.91069 0.47544 0.5887 0.0
H1581 H 0.92209 0.45624 0.47147 0.0
H1582 H 0.93596 0.48384 0.48563 0.0
H1583 H 0.94847 0.46005 0.49222 0.0
H1584 H 0.97951 0.54109 0.53114 0.0
H1585 H 1.00764 0.4835 0.55037 0.0
H1586 H 0.92131 0.51762 0.53873 0.0
H1587 H 0.92489 0.51409 0.50802 0.0
H1588 H 0.93934 0.53988 0.52565 0.0
H1589 H 0.95623 0.44816 0.56068 0.0
H1590 H 0.98463 0.448 0.55284 0.0
H1591 H 0.95953 0.4424 0.5302 0.0
C1592 C 0.42879 0.10772 0.26571 0.0
C1593 C 0.4497 0.12369 0.2676 0.0
C1594 C 0.40763 0.11333 0.25713 0.0
C1595 C 0.40744 0.13551 0.25071 0.0
C1596 C 0.42863 0.15117 0.25101 0.0
C1597 C 0.44954 0.145 0.25928 0.0
C1598 C 0.38542 0.096 0.25648 0.0
C1599 C 0.42915 0.17506 0.24442 0.0
C1600 C 0.35432 0.15418 0.22076 0.0
C1601 C 0.34675 0.16405 0.24044 0.0
C1602 C 0.37336 0.14361 0.22383 0.0
C1603 C 0.38529 0.14344 0.24706 0.0
C1604 C 0.37712 0.15264 0.26703 0.0
C1605 C 0.35788 0.1627 0.26347 0.0
C1606 C 0.38126 0.1335 0.2022 0.0
C1607 C 0.3895 0.15304 0.2921 0.0
H1608 H 0.42883 0.09109 0.2718 0.0
H1609 H 0.46564 0.15739 0.26055 0.0
H1610 H 0.3764 0.10021 0.27157 0.0
H1611 H 0.37357 0.09614 0.23973 0.0
H1612 H 0.38868 0.07868 0.25796 0.0
H1613 H 0.44701 0.18441 0.2433 0.0
H1614 H 0.41823 0.17505 0.22703 0.0
H1615 H 0.4219 0.18434 0.25805 0.0
H1616 H 0.34564 0.15515 0.20295 0.0
H1617 H 0.3523 0.17064 0.27869 0.0
H1618 H 0.38474 0.11651 0.20535 0.0
H1619 H 0.3977 0.14429 0.19876 0.0
H1620 H 0.36823 0.13201 0.18599 0.0
H1621 H 0.39128 0.13575 0.29622 0.0
H1622 H 0.38028 0.15992 0.30573 0.0
H1623 H 0.40724 0.16361 0.29361 0.0
C1624 C 0.4089 0.10677 0.55285 0.0
C1625 C 0.40177 0.12195 0.53673 0.0
C1626 C 0.42901 0.0974 0.55158 0.0
C1627 C 0.44357 0.10304 0.53378 0.0
C1628 C 0.43656 0.1183 0.51728 0.0
C1629 C 0.41605 0.12735 0.51883 0.0
C1630 C 0.43473 0.08127 0.56963 0.0
C1631 C 0.45101 0.12536 0.49796 0.0
C1632 C 0.50761 0.09337 0.54651 0.0
C1633 C 0.50709 0.07268 0.53329 0.0
C1634 C 0.48769 0.1035 0.54634 0.0
C1635 C 0.46583 0.09302 0.53279 0.0
C1636 C 0.46523 0.07218 0.51934 0.0
C1637 C 0.48545 0.06253 0.51965 0.0
C1638 C 0.49011 0.12561 0.56096 0.0
C1639 C 0.44289 0.05973 0.50469 0.0
H1640 H 0.39857 0.10202 0.56689 0.0
H1641 H 0.41144 0.13898 0.50615 0.0
H1642 H 0.43577 0.06496 0.56035 0.0
H1643 H 0.45195 0.08828 0.58023 0.0
H1644 H 0.42167 0.07794 0.58206 0.0
H1645 H 0.44367 0.13713 0.4864 0.0
H1646 H 0.46887 0.13372 0.50612 0.0
H1647 H 0.45237 0.11025 0.48667 0.0
H1648 H 0.52379 0.10187 0.55714 0.0
H1649 H 0.48416 0.04669 0.5092 0.0
H1650 H 0.47878 0.12327 0.57512 0.0
H1651 H 0.48432 0.13825 0.54951 0.0
H1652 H 0.50823 0.13249 0.5695 0.0
H1653 H 0.42951 0.05503 0.51652 0.0
H1654 H 0.44498 0.04414 0.49468 0.0
H1655 H 0.43633 0.07087 0.49181 0.0
C1656 C 0.76859 0.65513 0.38432 0.0
C1657 C 0.77869 0.63728 0.37716 0.0
C1658 C 0.77531 0.67668 0.37645 0.0
C1659 C 0.79243 0.68029 0.3611 0.0
C1660 C 0.80386 0.66279 0.35529 0.0
C1661 C 0.7969 0.6415 0.36348 0.0
C1662 C 0.76301 0.6951 0.38328 0.0
C1663 C 0.82232 0.66606 0.33906 0.0
C1664 C 0.78991 0.72195 0.31415 0.0
C1665 C 0.80864 0.7395 0.32341 0.0
C1666 C 0.78395 0.70288 0.3267 0.0
C1667 C 0.79692 0.70149 0.34912 0.0
C1668 C 0.81521 0.71956 0.35903 0.0
C1669 C 0.82094 0.73834 0.34599 0.0
C1670 C 0.76431 0.68388 0.31556 0.0
C1671 C 0.82913 0.71878 0.38306 0.0
H1672 H 0.75459 0.65202 0.395 0.0
H1673 H 0.80498 0.62785 0.35812 0.0
H1674 H 0.77562 0.71127 0.3887 0.0
H1675 H 0.751 0.6979 0.36762 0.0
H1676 H 0.75282 0.69071 0.39808 0.0
H1677 H 0.83086 0.65139 0.33796 0.0
H1678 H 0.8144 0.66844 0.32082 0.0
H1679 H 0.83577 0.68145 0.34537 0.0
H1680 H 0.7802 0.72283 0.29682 0.0
H1681 H 0.83523 0.75201 0.35343 0.0
H1682 H 0.75149 0.67974 0.32809 0.0
H1683 H 0.77113 0.66847 0.31186 0.0
H1684 H 0.75522 0.68811 0.29859 0.0
H1685 H 0.81743 0.71433 0.3966 0.0
H1686 H 0.84121 0.73513 0.3893 0.0
H1687 H 0.83941 0.70545 0.38198 0.0
C1688 C 0.98599 0.52837 0.78258 0.0
C1689 C 0.9732 0.54464 0.77576 0.0
C1690 C 0.97576 0.50526 0.77932 0.0
C1691 C 0.95233 0.4983 0.76869 0.0
C1692 C 0.94024 0.51449 0.75935 0.0
C1693 C 0.95081 0.53751 0.76306 0.0
C1694 C 0.98935 0.48855 0.7894 0.0
C1695 C 0.91544 0.50772 0.74733 0.0
C1696 C 0.92785 0.4351 0.75646 0.0
C1697 C 0.91725 0.43035 0.77686 0.0
C1698 C 0.93887 0.45725 0.75313 0.0
C1699 C 0.93956 0.47492 0.77081 0.0
C1700 C 0.92857 0.47021 0.79126 0.0
C1701 C 0.91746 0.44802 0.79396 0.0
C1702 C 0.95004 0.46169 0.73093 0.0
C1703 C 0.92905 0.48855 0.81064 0.0
H1704 H 1.00342 0.53369 0.79213 0.0
H1705 H 0.94096 0.54997 0.75732 0.0
H1706 H 0.98281 0.48276 0.80596 0.0
H1707 H 0.98704 0.47344 0.77664 0.0
H1708 H 1.00816 0.49609 0.79379 0.0
H1709 H 0.91005 0.52143 0.73724 0.0
H1710 H 0.91294 0.49232 0.73495 0.0
H1711 H 0.90384 0.50378 0.76106 0.0
H1712 H 0.92753 0.42146 0.74311 0.0
H1713 H 0.90954 0.44437 0.80988 0.0
H1714 H 0.96906 0.4674 0.73585 0.0
H1715 H 0.94361 0.47544 0.72186 0.0
H1716 H 0.94656 0.44642 0.71814 0.0
H1717 H 0.94725 0.49612 0.81835 0.0
H1718 H 0.91947 0.48211 0.82528 0.0
H1719 H 0.92129 0.50224 0.80304 0.0
C1720 C 0.12985 0.9381 0.11534 0.0
C1721 C 0.13567 0.91808 0.10707 0.0
C1722 C 0.12633 0.95462 0.09991 0.0
C1723 C 0.12859 0.95099 0.07549 0.0
C1724 C 0.13512 0.93111 0.06707 0.0
C1725 C 0.13863 0.91482 0.08303 0.0
C1726 C 0.11989 0.97587 0.10981 0.0
C1727 C 0.13814 0.92701 0.04127 0.0
C1728 C 0.09419 0.98892 0.04513 0.0
C1729 C 0.11108 1.00892 0.04834 0.0
C1730 C 0.10027 0.9684 0.05054 0.0
C1731 C 0.12367 0.96826 0.05926 0.0
C1732 C 0.14111 0.98771 0.05846 0.0
C1733 C 0.13454 1.00794 0.05308 0.0
C1734 C 0.08123 0.9478 0.05047 0.0
C1735 C 0.16636 0.98833 0.06687 0.0
H1736 H 0.12779 0.94084 0.13394 0.0
H1737 H 0.14326 0.89938 0.07658 0.0
H1738 H 0.1327 0.99096 0.10648 0.0
H1739 H 0.10267 0.97738 0.10072 0.0
H1740 H 0.1192 0.97612 0.12931 0.0
H1741 H 0.14355 0.91078 0.03764 0.0
H1742 H 0.12164 0.92682 0.02958 0.0
H1743 H 0.15135 0.94096 0.03628 0.0
H1744 H 0.07604 0.98964 0.04113 0.0
H1745 H 0.14766 0.02341 0.05489 0.0
H1746 H 0.07656 0.94644 0.06876 0.0
H1747 H 0.08699 0.93216 0.04517 0.0
H1748 H 0.06543 0.94891 0.03821 0.0
H1749 H 0.17048 0.99478 0.08598 0.0
H1750 H 0.17759 1.0 0.0567 0.0
H1751 H 0.17067 0.97142 0.06507 0.0
C1752 C 0.93723 0.22631 0.88457 0.0
C1753 C 0.95419 0.21501 0.87803 0.0
C1754 C 0.91906 0.22938 0.86758 0.0
C1755 C 0.91782 0.22079 0.84359 0.0
C1756 C 0.93362 0.20759 0.83739 0.0
C1757 C 0.9517 0.20491 0.85469 0.0
C1758 C 0.90235 0.24336 0.87494 0.0
C1759 C 0.93246 0.1977 0.8121 0.0
C1760 C 0.86389 0.22552 0.80228 0.0
C1761 C 0.87145 0.24623 0.79291 0.0
C1762 C 0.87906 0.21637 0.81803 0.0
C1763 C 0.90219 0.22835 0.82465 0.0
C1764 C 0.91021 0.24864 0.81427 0.0
C1765 C 0.89476 0.25727 0.79844 0.0
C1766 C 0.86998 0.19456 0.8285 0.0
C1767 C 0.93482 0.26191 0.82088 0.0
H1768 H 0.9389 0.23397 0.90262 0.0
H1769 H 0.96455 0.19584 0.84959 0.0
H1770 H 0.90572 0.25986 0.86708 0.0
H1771 H 0.88421 0.23481 0.8681 0.0
H1772 H 0.90402 0.24661 0.89464 0.0
H1773 H 0.94346 0.18496 0.81102 0.0
H1774 H 0.91434 0.18966 0.80453 0.0
H1775 H 0.93852 0.2114 0.8008 0.0
H1776 H 0.84589 0.21685 0.79808 0.0
H1777 H 0.90077 0.27324 0.79125 0.0
H1778 H 0.86755 0.19826 0.84729 0.0
H1779 H 0.88254 0.18326 0.82858 0.0
H1780 H 0.85307 0.18544 0.81852 0.0
H1781 H 0.9379 0.26793 0.8401 0.0
H1782 H 0.93858 0.27679 0.81035 0.0
H1783 H 0.94727 0.25096 0.818 0.0
C1784 C 0.63074 0.30091 0.6289 0.0
C1785 C 0.6402 0.30527 0.65309 0.0
C1786 C 0.62797 0.27937 0.61709 0.0
C1787 C 0.63485 0.26182 0.62978 0.0
C1788 C 0.64514 0.26632 0.65395 0.0
C1789 C 0.6477 0.288 0.66532 0.0
C1790 C 0.61703 0.2752 0.59126 0.0
C1791 C 0.6528 0.24804 0.66803 0.0
C1792 C 0.60598 0.20074 0.61057 0.0
C1793 C 0.62319 0.19308 0.59966 0.0
C1794 C 0.60931 0.22327 0.61988 0.0
C1795 C 0.63036 0.23847 0.6182 0.0
C1796 C 0.64748 0.23104 0.6065 0.0
C1797 C 0.64369 0.20841 0.59736 0.0
C1798 C 0.59065 0.2306 0.63225 0.0
C1799 C 0.67006 0.24682 0.60422 0.0
H1800 H 0.62493 0.31419 0.61931 0.0
H1801 H 0.65513 0.29127 0.68397 0.0
H1802 H 0.6282 0.26747 0.58047 0.0
H1803 H 0.60015 0.26308 0.58973 0.0
H1804 H 0.61405 0.29097 0.58352 0.0
H1805 H 0.66151 0.25457 0.68632 0.0
H1806 H 0.63755 0.23451 0.66948 0.0
H1807 H 0.66489 0.24019 0.65867 0.0
H1808 H 0.59022 0.18892 0.61262 0.0
H1809 H 0.6569 0.20261 0.58863 0.0
H1810 H 0.58583 0.24568 0.62444 0.0
H1811 H 0.59729 0.23548 0.65141 0.0
H1812 H 0.5748 0.21705 0.63088 0.0
H1813 H 0.66666 0.2622 0.59595 0.0
H1814 H 0.68097 0.23875 0.59335 0.0
H1815 H 0.68002 0.25236 0.62221 0.0
C1816 C 0.58695 0.71789 0.35936 0.0
C1817 C 0.59147 0.72706 0.38319 0.0
C1818 C 0.60445 0.7206 0.34475 0.0
C1819 C 0.62693 0.73281 0.35421 0.0
C1820 C 0.63192 0.74101 0.37858 0.0
C1821 C 0.61411 0.73799 0.39282 0.0
C1822 C 0.59856 0.71146 0.31887 0.0
C1823 C 0.65575 0.75405 0.38931 0.0
C1824 C 0.67805 0.73184 0.32073 0.0
C1825 C 0.67983 0.75228 0.30998 0.0
C1826 C 0.66058 0.72495 0.3348 0.0
C1827 C 0.64463 0.73891 0.33819 0.0
C1828 C 0.64602 0.7593 0.32694 0.0
C1829 C 0.66362 0.76573 0.31295 0.0
C1830 C 0.65947 0.70302 0.3464 0.0
C1831 C 0.62933 0.77466 0.33021 0.0
H1832 H 0.56952 0.70925 0.35185 0.0
H1833 H 0.61778 0.74499 0.41125 0.0
H1834 H 0.599 0.72571 0.30738 0.0
H1835 H 0.61158 0.70192 0.31386 0.0
H1836 H 0.5811 0.70021 0.315 0.0
H1837 H 0.65731 0.75751 0.40897 0.0
H1838 H 0.66916 0.74461 0.38528 0.0
H1839 H 0.65951 0.77043 0.38127 0.0
H1840 H 0.69044 0.72129 0.31823 0.0
H1841 H 0.66513 0.78169 0.30495 0.0
H1842 H 0.64192 0.69212 0.34172 0.0
H1843 H 0.66266 0.70649 0.36609 0.0
H1844 H 0.67242 0.69355 0.34095 0.0
H1845 H 0.61121 0.7652 0.32493 0.0
H1846 H 0.6323 0.78952 0.31955 0.0
H1847 H 0.63114 0.78079 0.34931 0.0
C1848 C 0.04836 0.20347 0.44393 0.0
C1849 C 0.06847 0.22065 0.44381 0.0
C1850 C 0.04849 0.18284 0.45509 0.0
C1851 C 0.06935 0.17797 0.46689 0.0
C1852 C 0.08984 0.1952 0.46705 0.0
C1853 C 0.08919 0.21599 0.45583 0.0
C1854 C 0.0259 0.16601 0.45408 0.0
C1855 C 0.11277 0.19153 0.47894 0.0
C1856 C 0.06462 0.13122 0.51319 0.0
C1857 C 0.06678 0.11123 0.50019 0.0
C1858 C 0.06574 0.15256 0.50296 0.0
C1859 C 0.06938 0.15505 0.4787 0.0
C1860 C 0.07173 0.13498 0.46553 0.0
C1861 C 0.07038 0.1138 0.47615 0.0
C1862 C 0.06278 0.17263 0.51829 0.0
C1863 C 0.0757 0.13582 0.43984 0.0
H1864 H 0.03197 0.20608 0.43505 0.0
H1865 H 0.10511 0.22841 0.45614 0.0
H1866 H 0.02697 0.14985 0.44454 0.0
H1867 H 0.02255 0.16236 0.47242 0.0
H1868 H 1.01095 0.17214 0.44492 0.0
H1869 H 0.12719 0.2061 0.47793 0.0
H1870 H 0.11179 0.18868 0.49797 0.0
H1871 H 0.11678 0.17613 0.47035 0.0
H1872 H 0.06194 0.13025 0.53168 0.0
H1873 H 0.07229 0.09909 0.46543 0.0
H1874 H 0.04741 0.17883 0.51034 0.0
H1875 H 0.07808 0.18665 0.51894 0.0
H1876 H 0.06056 0.16854 0.53682 0.0
H1877 H 0.06064 0.14039 0.42907 0.0
H1878 H 0.07826 0.11942 0.43204 0.0
H1879 H 0.09115 0.14911 0.43841 0.0
C1880 C 0.63679 0.28933 0.22225 0.0
C1881 C 0.62934 0.29542 0.19929 0.0
C1882 C 0.66053 0.29011 0.23094 0.0
C1883 C 0.67814 0.29677 0.21645 0.0
C1884 C 0.67085 0.30311 0.19325 0.0
C1885 C 0.64687 0.30255 0.18511 0.0
C1886 C 0.66672 0.28356 0.25585 0.0
C1887 C 0.68843 0.31003 0.1767 0.0
C1888 C 0.74253 0.31554 0.24731 0.0
C1889 C 0.75153 0.29574 0.24517 0.0
C1890 C 0.71918 0.31619 0.238 0.0
C1891 C 0.70383 0.2967 0.22559 0.0
C1892 C 0.71296 0.27679 0.22302 0.0
C1893 C 0.73625 0.2765 0.23285 0.0
C1894 C 0.71078 0.33781 0.24188 0.0
C1895 C 0.69799 0.25553 0.20986 0.0
H1896 H 0.62387 0.28378 0.2337 0.0
H1897 H 0.64181 0.30711 0.1673 0.0
H1898 H 0.67452 0.26841 0.25505 0.0
H1899 H 0.67987 0.29739 0.26634 0.0
H1900 H 0.65142 0.27979 0.26545 0.0
H1901 H 0.68043 0.31475 0.15943 0.0
H1902 H 0.70196 0.32459 0.18525 0.0
H1903 H 0.69723 0.29593 0.17311 0.0
H1904 H 0.7537 0.33063 0.2567 0.0
H1905 H 0.74255 0.26101 0.23074 0.0
H1906 H 0.69613 0.33487 0.25244 0.0
H1907 H 0.70419 0.34335 0.22449 0.0
H1908 H 0.72464 0.35166 0.2514 0.0
H1909 H 0.68316 0.2494 0.21951 0.0
H1910 H 0.70772 0.24182 0.20797 0.0
H1911 H 0.6907 0.25913 0.19182 0.0
C1912 C 0.59501 0.88738 0.93605 0.0
C1913 C 0.58418 0.86595 0.94245 0.0
C1914 C 0.59311 0.90836 0.94774 0.0
C1915 C 0.57953 0.90901 0.96663 0.0
C1916 C 0.56861 0.88747 0.97344 0.0
C1917 C 0.57114 0.86654 0.96161 0.0
C1918 C 0.60568 0.93008 0.93952 0.0
C1919 C 0.55362 0.8865 0.99301 0.0
C1920 C 0.59005 0.96513 0.00927 0.0
C1921 C 0.57305 0.9768 0.99968 0.0
C1922 C 0.59215 0.94346 0.99912 0.0
C1923 C 0.57673 0.93209 0.97868 0.0
C1924 C 0.55936 0.94367 0.96911 0.0
C1925 C 0.55785 0.96547 0.9794 0.0
C1926 C 0.61131 0.9328 0.01025 0.0
C1927 C 0.54214 0.93297 0.94769 0.0
H1928 H 0.60518 0.88786 0.92147 0.0
H1929 H 0.56222 0.85062 0.96693 0.0
H1930 H 0.59296 0.93995 0.93222 0.0
H1931 H 0.61698 0.9406 0.95486 0.0
H1932 H 0.61651 0.9271 0.92556 0.0
H1933 H 0.5465 0.86888 0.99676 0.0
H1934 H 0.56378 0.89583 0.00963 0.0
H1935 H 0.539 0.89493 0.9879 0.0
H1936 H 0.6021 0.97309 0.02479 0.0
H1937 H 0.54445 0.97363 0.97146 0.0
H1938 H 0.62297 0.93038 0.99696 0.0
H1939 H 0.60392 0.91585 0.01562 0.0
H1940 H 0.62177 0.94321 0.02616 0.0
H1941 H 0.55132 0.93102 0.9321 0.0
H1942 H 0.52885 0.94312 0.94294 0.0
H1943 H 0.53327 0.91581 0.95123 0.0
C1944 C 0.98533 0.78617 0.70734 0.0
C1945 C 0.98811 0.80117 0.68916 0.0
C1946 C 0.96575 0.7836 0.72043 0.0
C1947 C 0.94785 0.79619 0.71573 0.0
C1948 C 0.9507 0.81127 0.69747 0.0
C1949 C 0.97025 0.8135 0.68479 0.0
C1950 C 0.9642 0.76723 0.73945 0.0
C1951 C 0.93283 0.82528 0.6911 0.0
C1952 C 0.88465 0.77712 0.7321 0.0
C1953 C 0.88407 0.79134 0.75266 0.0
C1954 C 0.90497 0.77808 0.7206 0.0
C1955 C 0.92617 0.7937 0.72932 0.0
C1956 C 0.92581 0.80792 0.75024 0.0
C1957 C 0.90521 0.80662 0.76142 0.0
C1958 C 0.90354 0.76241 0.69859 0.0
C1959 C 0.94732 0.825 0.76076 0.0
H1960 H 0.99845 0.77633 0.71141 0.0
H1961 H 0.97142 0.82525 0.67108 0.0
H1962 H 0.9634 0.77623 0.75683 0.0
H1963 H 0.948 0.75414 0.73504 0.0
H1964 H 0.97919 0.75877 0.74146 0.0
H1965 H 0.93725 0.83638 0.67671 0.0
H1966 H 0.91564 0.81405 0.68516 0.0
H1967 H 0.93118 0.83598 0.70706 0.0
H1968 H 0.86891 0.76516 0.72464 0.0
H1969 H 0.90568 0.81792 0.77706 0.0
H1970 H 0.9175 0.75267 0.70089 0.0
H1971 H 0.90623 0.77243 0.68303 0.0
H1972 H 0.88655 0.75036 0.69452 0.0
H1973 H 0.96218 0.81653 0.76428 0.0
H1974 H 0.94511 0.834 0.77766 0.0
H1975 H 0.95182 0.83763 0.7478 0.0
C1976 C 0.15486 0.09536 0.89796 0.0
C1977 C 0.16364 0.07583 0.89418 0.0
C1978 C 0.14375 0.09852 0.91788 0.0
C1979 C 0.14114 0.08158 0.93407 0.0
C1980 C 0.14912 0.06142 0.92975 0.0
C1981 C 0.16045 0.05887 0.90993 0.0
C1982 C 0.13567 0.12031 0.92213 0.0
C1983 C 0.14629 0.04281 0.94645 0.0
C1984 C 0.13853 0.09356 0.99949 0.0
C1985 C 0.11504 0.0851 1.00066 0.0
C1986 C 0.14698 0.09399 0.97757 0.0
C1987 C 0.1316 0.08534 0.95646 0.0
C1988 C 0.10763 0.07796 0.95739 0.0
C1989 C 0.09957 0.07812 0.97956 0.0
C1990 C 0.1726 0.10243 0.9772 0.0
C1991 C 0.09079 0.06841 0.93525 0.0
H1992 H 0.15735 0.10852 0.8858 0.0
H1993 H 0.167 0.04365 0.90687 0.0
H1994 H 0.11737 0.11678 0.92548 0.0
H1995 H 0.14624 0.13016 0.93828 0.0
H1996 H 0.13716 0.1309 0.90681 0.0
H1997 H 0.15185 0.02753 0.93952 0.0
H1998 H 0.15677 0.04893 0.96407 0.0
H1999 H 0.12792 0.03793 0.94936 0.0
H2000 H 0.15045 0.09924 0.0158 0.0
H2001 H 0.08138 0.07152 0.98046 0.0
H2002 H 0.17545 0.11427 0.96313 0.0
H2003 H 0.18067 0.08797 0.97293 0.0
H2004 H 0.18162 0.11114 0.99462 0.0
H2005 H 0.09342 0.07951 0.92052 0.0
H2006 H 0.07247 0.0662 0.9385 0.0
H2007 H 0.09391 0.05169 0.92917 0.0
C2008 C 0.85809 0.34749 0.60062 0.0
C2009 C 0.83813 0.35403 0.58983 0.0
C2010 C 0.8581 0.33683 0.62199 0.0
C2011 C 0.83771 0.33268 0.63289 0.0
C2012 C 0.81729 0.33854 0.62168 0.0
C2013 C 0.81773 0.34908 0.60026 0.0
C2014 C 0.8802 0.33076 0.63334 0.0
C2015 C 0.7952 0.33448 0.63278 0.0
C2016 C 0.83176 0.2923 0.6819 0.0
C2017 C 0.83717 0.30736 0.70252 0.0
C2018 C 0.83221 0.30023 0.65909 0.0
C2019 C 0.83815 0.32376 0.65686 0.0
C2020 C 0.84405 0.339 0.67762 0.0
C2021 C 0.84353 0.33063 0.70014 0.0
C2022 C 0.8259 0.28347 0.63735 0.0
C2023 C 0.85047 0.36423 0.67606 0.0
H2024 H 0.87391 0.35114 0.59266 0.0
H2025 H 0.80221 0.35406 0.59208 0.0
H2026 H 0.8867 0.34126 0.65044 0.0
H2027 H 0.87684 0.31283 0.63751 0.0
H2028 H 0.894 0.33342 0.62168 0.0
H2029 H 0.78042 0.33856 0.62103 0.0
H2030 H 0.79053 0.31659 0.63682 0.0
H2031 H 0.79787 0.34507 0.64994 0.0
H2032 H 0.8268 0.27431 0.68352 0.0
H2033 H 0.84776 0.34246 0.71592 0.0
H2034 H 0.84002 0.28593 0.62611 0.0
H2035 H 0.8101 0.28635 0.62635 0.0
H2036 H 0.82264 0.2657 0.64212 0.0
H2037 H 0.8653 0.3684 0.6659 0.0
H2038 H 0.85522 0.37375 0.69393 0.0
H2039 H 0.83569 0.37012 0.66628 0.0
C2040 C 0.51565 0.10646 0.3792 0.0
C2041 C 0.53021 0.12327 0.36921 0.0
C2042 C 0.52479 0.09385 0.39655 0.0
C2043 C 0.54906 0.09835 0.40394 0.0
C2044 C 0.56392 0.1141 0.39239 0.0
C2045 C 0.55425 0.12671 0.37537 0.0
C2046 C 0.50831 0.07725 0.40844 0.0
C2047 C 0.5899 0.11886 0.39927 0.0
C2048 C 0.56653 0.09428 0.46969 0.0
C2049 C 0.5714 0.0726 0.46998 0.0
C2050 C 0.55976 0.10296 0.44822 0.0
C2051 C 0.55828 0.08983 0.42639 0.0
C2052 C 0.56439 0.06843 0.42639 0.0
C2053 C 0.5707 0.05994 0.44827 0.0
C2054 C 0.55314 0.12578 0.44902 0.0
C2055 C 0.56349 0.05423 0.4034 0.0
H2056 H 0.49702 0.10421 0.37461 0.0
H2057 H 0.56541 0.13983 0.36751 0.0
H2058 H 0.51439 0.0612 0.41012 0.0
H2059 H 0.50763 0.08443 0.42673 0.0
H2060 H 0.49047 0.07343 0.39842 0.0
H2061 H 0.59904 0.12807 0.38569 0.0
H2062 H 0.5947 0.12937 0.41654 0.0
H2063 H 0.59608 0.10292 0.40164 0.0
H2064 H 0.567 0.10417 0.48636 0.0
H2065 H 0.57451 0.04319 0.44837 0.0
H2066 H 0.5347 0.1239 0.44121 0.0
H2067 H 0.56373 0.13725 0.43819 0.0
H2068 H 0.55551 0.13391 0.46748 0.0
H2069 H 0.54519 0.04786 0.39527 0.0
H2070 H 0.57174 0.03951 0.40627 0.0
H2071 H 0.57228 0.06455 0.39036 0.0
C2072 C 0.8278 0.68582 0.12376 0.0
C2073 C 0.83857 0.69488 0.10454 0.0
C2074 C 0.82727 0.69897 0.14519 0.0
C2075 C 0.83782 0.72233 0.14841 0.0
C2076 C 0.8488 0.73174 0.12917 0.0
C2077 C 0.84903 0.7181 0.1077 0.0
C2078 C 0.81521 0.68766 0.16455 0.0
C2079 C 0.86039 0.75639 0.13129 0.0
C2080 C 0.81663 0.75891 0.19658 0.0
C2081 C 0.83341 0.7603 0.21694 0.0
C2082 C 0.81815 0.74732 0.17439 0.0
C2083 C 0.83699 0.73653 0.17173 0.0
C2084 C 0.85418 0.73815 0.1921 0.0
C2085 C 0.8522 0.74981 0.21413 0.0
C2086 C 0.79918 0.7463 0.15374 0.0
C2087 C 0.87468 0.72721 0.19076 0.0
H2088 H 0.81951 0.66807 0.12212 0.0
H2089 H 0.85746 0.72567 0.0934 0.0
H2090 H 0.82758 0.68939 0.18127 0.0
H2091 H 0.80099 0.69609 0.16842 0.0
H2092 H 0.80782 0.66942 0.1596 0.0
H2093 H 0.86838 0.76137 0.11519 0.0
H2094 H 0.84754 0.76693 0.13408 0.0
H2095 H 0.87404 0.76017 0.1471 0.0
H2096 H 0.80196 0.76677 0.198 0.0
H2097 H 0.86548 0.75058 0.22931 0.0
H2098 H 0.79005 0.7285 0.14879 0.0
H2099 H 0.80673 0.75268 0.1379 0.0
H2100 H 0.78627 0.75634 0.15798 0.0
H2101 H 0.86863 0.70862 0.18744 0.0
H2102 H 0.88731 0.73094 0.20742 0.0
H2103 H 0.8837 0.73311 0.17559 0.0
C2104 C 0.12873 0.01605 0.79418 0.0
C2105 C 0.15063 0.03026 0.79503 0.0
C2106 C 0.11169 0.01435 0.77417 0.0
C2107 C 0.11668 0.02736 0.75481 0.0
C2108 C 0.13905 0.04101 0.75524 0.0
C2109 C 0.15574 0.04218 0.77526 0.0
C2110 C 0.08817 0.99933 0.77416 0.0
C2111 C 0.14516 0.05513 0.73491 0.0
C2112 C 0.08615 0.02076 0.69179 0.0
C2113 C 0.07602 0.0398 0.69179 0.0
C2114 C 0.09728 0.01468 0.71301 0.0
C2115 C 0.09851 0.02814 0.73453 0.0
C2116 C 0.08593 0.04564 0.73505 0.0
C2117 C 0.07471 0.05119 0.71363 0.0
C2118 C 0.1099 0.99546 0.71184 0.0
C2119 C 0.08654 0.06022 0.75771 0.0
H2120 H 0.12468 1.00669 0.80936 0.0
H2121 H 0.17265 0.05307 0.77566 0.0
H2122 H 0.07551 1.0099 0.77756 0.0
H2123 H 0.08187 0.98967 0.75654 0.0
H2124 H 0.08845 0.98724 0.78816 0.0
H2125 H 0.16353 0.06438 0.73782 0.0
H2126 H 0.14209 0.04423 0.71794 0.0
H2127 H 0.13389 0.06764 0.73276 0.0
H2128 H 0.08721 1.01176 0.67503 0.0
H2129 H 0.06634 0.06553 0.71378 0.0
H2130 H 0.10847 0.98576 0.72779 0.0
H2131 H 0.12857 1.00238 0.71144 0.0
H2132 H 0.10308 0.98374 0.69556 0.0
H2133 H 0.08413 0.04972 0.77294 0.0
H2134 H 0.07299 0.07051 0.75599 0.0
H2135 H 0.10374 0.07187 0.76195 0.0
C2136 C 0.8064 0.36222 0.45096 0.0
C2137 C 0.82541 0.35924 0.46695 0.0
C2138 C 0.80351 0.35425 0.42675 0.0
C2139 C 0.82003 0.34303 0.41832 0.0
C2140 C 0.83906 0.33969 0.43443 0.0
C2141 C 0.84151 0.34781 0.4585 0.0
C2142 C 0.783 0.35814 0.41013 0.0
C2143 C 0.85708 0.32784 0.42614 0.0
C2144 C 0.80551 0.30533 0.36009 0.0
C2145 C 0.81682 0.31932 0.34443 0.0
C2146 C 0.8059 0.31301 0.38404 0.0
C2147 C 0.81784 0.33522 0.39255 0.0
C2148 C 0.82871 0.34964 0.37667 0.0
C2149 C 0.82807 0.34153 0.35284 0.0
C2150 C 0.79406 0.29715 0.4004 0.0
C2151 C 0.84151 0.37348 0.38497 0.0
H2152 H 0.79387 0.37105 0.45729 0.0
H2153 H 0.85626 0.3454 0.47067 0.0
H2154 H 0.78913 0.36905 0.3962 0.0
H2155 H 0.773 0.34186 0.40087 0.0
H2156 H 0.77119 0.3663 0.41966 0.0
H2157 H 0.87054 0.32611 0.44101 0.0
H2158 H 0.84869 0.31075 0.41762 0.0
H2159 H 0.86572 0.3374 0.4125 0.0
H2160 H 0.79676 0.28817 0.3538 0.0
H2161 H 0.83674 0.35258 0.3409 0.0
H2162 H 0.78182 0.30516 0.40935 0.0
H2163 H 0.80716 0.29352 0.41459 0.0
H2164 H 0.78439 0.28089 0.39074 0.0
H2165 H 0.82969 0.3831 0.39254 0.0
H2166 H 0.84878 0.38263 0.37031 0.0
H2167 H 0.85593 0.37319 0.39937 0.0
C2168 C 0.55387 0.08799 0.2668 0.0
C2169 C 0.55911 0.10776 0.28227 0.0
C2170 C 0.56769 0.08478 0.24923 0.0
C2171 C 0.58735 0.10171 0.24713 0.0
C2172 C 0.59344 0.12122 0.26341 0.0
C2173 C 0.57917 0.12406 0.2808 0.0
C2174 C 0.56063 0.06364 0.23227 0.0
C2175 C 0.61441 0.13949 0.26184 0.0
C2176 C 0.62434 0.07866 0.20664 0.0
C2177 C 0.6142 0.0836 0.18437 0.0
C2178 C 0.61748 0.08646 0.22782 0.0
C2179 C 0.6001 0.09942 0.22656 0.0
C2180 C 0.59178 0.10656 0.20438 0.0
C2181 C 0.59891 0.09853 0.18353 0.0
C2182 C 0.62717 0.07896 0.25122 0.0
C2183 C 0.57339 0.12057 0.20225 0.0
H2184 H 0.53854 0.0752 0.26796 0.0
H2185 H 0.58342 0.13933 0.2928 0.0
H2186 H 0.55608 0.06823 0.21385 0.0
H2187 H 0.57528 0.05483 0.23214 0.0
H2188 H 0.5455 0.05166 0.23706 0.0
H2189 H 0.61884 0.15168 0.27796 0.0
H2190 H 0.62965 0.13204 0.25949 0.0
H2191 H 0.61093 0.14892 0.24604 0.0
H2192 H 0.63654 0.06752 0.20743 0.0
H2193 H 0.59087 0.10238 0.16644 0.0
H2194 H 0.61443 0.06466 0.25632 0.0
H2195 H 0.63027 0.0928 0.26568 0.0
H2196 H 0.64364 0.07325 0.24997 0.0
H2197 H 0.55641 0.10976 0.20414 0.0
H2198 H 0.57174 0.12787 0.18473 0.0
H2199 H 0.57727 0.13454 0.21662 0.0
C2200 C 0.81208 0.70331 0.94589 0.0
C2201 C 0.83182 0.69782 0.9591 0.0
C2202 C 0.81288 0.71447 0.92444 0.0
C2203 C 0.83399 0.72069 0.91484 0.0
C2204 C 0.85411 0.71524 0.92795 0.0
C2205 C 0.85285 0.70412 0.94966 0.0
C2206 C 0.79079 0.71962 0.91193 0.0
C2207 C 0.8771 0.72099 0.91883 0.0
C2208 C 0.82854 0.73212 0.84701 0.0
C2209 C 0.83205 0.75592 0.84724 0.0
C2210 C 0.82989 0.72067 0.86842 0.0
C2211 C 0.83469 0.73289 0.89141 0.0
C2212 C 0.83858 0.75693 0.89173 0.0
C2213 C 0.83731 0.76795 0.87005 0.0
C2214 C 0.82561 0.69522 0.8663 0.0
C2215 C 0.84357 0.77119 0.91521 0.0
H2216 H 0.79554 0.69886 0.95239 0.0
H2217 H 0.86837 0.70013 0.95908 0.0
H2218 H 0.79301 0.73806 0.91024 0.0
H2219 H 0.78679 0.71109 0.8936 0.0
H2220 H 0.77575 0.71409 0.92152 0.0
H2221 H 0.89121 0.71593 0.93071 0.0
H2222 H 0.87574 0.71238 0.90074 0.0
H2223 H 0.88184 0.73944 0.91719 0.0
H2224 H 0.82447 0.72222 0.82992 0.0
H2225 H 0.84 0.78621 0.87108 0.0
H2226 H 0.80876 0.68825 0.87225 0.0
H2227 H 0.83926 0.68935 0.87803 0.0
H2228 H 0.8252 0.6882 0.84769 0.0
H2229 H 0.82841 0.76738 0.92498 0.0
H2230 H 0.8474 0.78956 0.91285 0.0
H2231 H 0.85854 0.76702 0.92653 0.0
C2232 C 0.8625 0.14111 0.97991 0.0
C2233 C 0.85407 0.14855 1.00029 0.0
C2234 C 0.88049 0.12914 0.98179 0.0
C2235 C 0.89018 0.12441 1.00459 0.0
C2236 C 0.88151 0.13156 0.0252 0.0
C2237 C 0.86361 0.1436 0.02281 0.0
C2238 C 0.88937 0.12187 0.95943 0.0
C2239 C 0.89135 0.12674 0.04981 0.0
C2240 C 0.92454 0.07789 0.0098 0.0
C2241 C 0.94739 0.09042 0.01367 0.0
C2242 C 0.9057 0.0887 1.00654 0.0
C2243 C 0.90987 0.11257 1.00701 0.0
C2244 C 0.93293 0.12525 0.01041 0.0
C2245 C 0.95139 0.11402 0.01373 0.0
C2246 C 0.88134 0.07464 1.0031 0.0
C2247 C 0.93813 0.15071 0.01083 0.0
H2248 H 0.85525 0.14488 0.96244 0.0
H2249 H 0.85717 0.14922 0.03865 0.0
H2250 H 0.90794 0.12998 0.96022 0.0
H2251 H 0.88816 0.10333 0.9581 0.0
H2252 H 0.87959 0.12639 0.94301 0.0
H2253 H 0.88217 0.13281 0.06395 0.0
H2254 H 0.89022 0.10831 0.05061 0.0
H2255 H 0.90997 0.13505 0.05375 0.0
H2256 H 0.92138 0.05966 0.00995 0.0
H2257 H 0.96902 0.12372 0.01637 0.0
H2258 H 0.87149 0.07828 0.98632 0.0
H2259 H 0.87216 0.07913 0.01795 0.0
H2260 H 0.88105 0.05623 1.00243 0.0
H2261 H 0.92983 0.156 0.99404 0.0
H2262 H 0.95704 0.15799 0.01302 0.0
H2263 H 0.93076 0.15801 0.02573 0.0
C2264 C 0.38308 0.48042 0.03171 0.0
C2265 C 0.37994 0.45747 0.0364 0.0
C2266 C 0.4056 0.49393 0.0306 0.0
C2267 C 0.42596 0.48472 0.03462 0.0
C2268 C 0.42279 0.46176 0.03991 0.0
C2269 C 0.40024 0.44864 0.04052 0.0
C2270 C 0.40755 0.51808 0.0246 0.0
C2271 C 0.4434 0.4508 0.04483 0.0
C2272 C 0.48418 0.50928 0.01141 0.0
C2273 C 0.49831 0.52148 0.03179 0.0
C2274 C 0.46068 0.49819 0.01183 0.0
C2275 C 0.45048 0.49865 0.03325 0.0
C2276 C 0.46455 0.51121 0.05377 0.0
C2277 C 0.48788 0.52242 0.05276 0.0
C2278 C 0.44685 0.48549 0.98926 0.0
C2279 C 0.45519 0.51222 0.07721 0.0
H2280 H 0.36789 0.48771 0.02823 0.0
H2281 H 0.39855 0.4311 0.04427 0.0
H2282 H 0.41924 0.52961 0.03895 0.0
H2283 H 0.41537 0.52044 1.00792 0.0
H2284 H 0.39047 0.52305 0.0222 0.0
H2285 H 0.43839 0.43313 0.04957 0.0
H2286 H 0.45242 0.45073 0.02887 0.0
H2287 H 0.456 0.46068 0.05968 0.0
H2288 H 0.49157 0.50815 0.99499 0.0
H2289 H 0.49824 0.53146 0.06883 0.0
H2290 H 0.43003 0.49081 0.9855 0.0
H2291 H 0.44294 0.46713 0.99157 0.0
H2292 H 0.45623 0.48824 0.97359 0.0
H2293 H 0.43868 0.51824 0.0749 0.0
H2294 H 0.46757 0.52353 0.09127 0.0
H2295 H 0.45136 0.49502 0.08344 0.0
C2296 C 0.36519 0.59221 0.68945 0.0
C2297 C 0.36203 0.57088 0.69833 0.0
C2298 C 0.35539 0.60926 0.69917 0.0
C2299 C 0.34206 0.60466 0.71797 0.0
C2300 C 0.33742 0.58265 0.72572 0.0
C2301 C 0.34753 0.56603 0.71584 0.0
C2302 C 0.36063 0.63257 0.69045 0.0
C2303 C 0.32303 0.57705 0.74554 0.0
C2304 C 0.3438 0.65206 0.76487 0.0
C2305 C 0.32228 0.65776 0.75856 0.0
C2306 C 0.35051 0.63496 0.75157 0.0
C2307 C 0.33529 0.62331 0.73149 0.0
C2308 C 0.31353 0.62897 0.72499 0.0
C2309 C 0.30725 0.64618 0.73867 0.0
C2310 C 0.37385 0.62927 0.7591 0.0
C2311 C 0.29695 0.6169 0.70365 0.0
H2312 H 0.37634 0.59599 0.67587 0.0
H2313 H 0.34477 0.54943 0.72251 0.0
H2314 H 0.34462 0.63937 0.68726 0.0
H2315 H 0.37284 0.64421 0.70434 0.0
H2316 H 0.36857 0.63262 0.67374 0.0
H2317 H 0.31883 0.5586 0.74751 0.0
H2318 H 0.3327 0.58575 0.76268 0.0
H2319 H 0.30661 0.58314 0.74223 0.0
H2320 H 0.35534 0.66093 0.78035 0.0
H2321 H 0.29075 0.65086 0.73354 0.0
H2322 H 0.38427 0.63098 0.74416 0.0
H2323 H 0.37148 0.61145 0.7636 0.0
H2324 H 0.38382 0.64033 0.77482 0.0
H2325 H 0.3054 0.61863 0.68731 0.0
H2326 H 0.28079 0.62357 0.70083 0.0
H2327 H 0.29225 0.59859 0.70599 0.0
C2328 C 0.21791 0.65857 0.53826 0.0
C2329 C 0.23776 0.65406 0.52967 0.0
C2330 C 0.19762 0.64181 0.53644 0.0
C2331 C 0.19714 0.62 0.52574 0.0
C2332 C 0.21704 0.61534 0.5169 0.0
C2333 C 0.23713 0.63243 0.51898 0.0
C2334 C 0.17671 0.64742 0.5461 0.0
C2335 C 0.21714 0.59229 0.50535 0.0
C2336 C 0.15053 0.5739 0.54304 0.0
C2337 C 0.13247 0.57277 0.52418 0.0
C2338 C 0.17211 0.58844 0.54323 0.0
C2339 C 0.17575 0.60212 0.52409 0.0
C2340 C 0.15814 0.6 0.5043 0.0
C2341 C 0.1367 0.58535 0.50458 0.0
C2342 C 0.19054 0.59012 0.56459 0.0
C2343 C 0.16144 0.61416 0.48345 0.0
H2344 H 0.21823 0.67522 0.54654 0.0
H2345 H 0.25239 0.6288 0.51226 0.0
H2346 H 0.1617 0.64449 0.53167 0.0
H2347 H 0.17181 0.63615 0.56017 0.0
H2348 H 0.17988 0.66523 0.55376 0.0
H2349 H 0.23393 0.5915 0.49909 0.0
H2350 H 0.21359 0.57935 0.51822 0.0
H2351 H 0.20314 0.58775 0.4899 0.0
H2352 H 0.14753 0.5642 0.55823 0.0
H2353 H 0.12296 0.58451 0.48982 0.0
H2354 H 0.19304 0.60685 0.5747 0.0
H2355 H 0.20737 0.58879 0.55878 0.0
H2356 H 0.18589 0.57678 0.57682 0.0
H2357 H 0.1623 0.63213 0.48928 0.0
H2358 H 0.14709 0.60879 0.46839 0.0
H2359 H 0.17805 0.61317 0.47691 0.0
C2360 C 0.68725 0.92366 0.78478 0.0
C2361 C 0.67924 0.94163 0.79512 0.0
C2362 C 0.70804 0.91817 0.79465 0.0
C2363 C 0.72109 0.93097 0.81536 0.0
C2364 C 0.71243 0.94824 0.8267 0.0
C2365 C 0.69157 0.95339 0.81641 0.0
C2366 C 0.71659 0.89938 0.78223 0.0
C2367 C 0.72573 0.96202 0.84897 0.0
C2368 C 0.76872 0.90347 0.84262 0.0
C2369 C 0.78707 0.91324 0.83074 0.0
C2370 C 0.74748 0.91038 0.83936 0.0
C2371 C 0.74459 0.92728 0.82373 0.0
C2372 C 0.7637 0.93861 0.81347 0.0
C2373 C 0.78478 0.93149 0.81718 0.0
C2374 C 0.72763 0.89825 0.85101 0.0
C2375 C 0.76137 0.95694 0.79692 0.0
H2376 H 0.67771 0.91436 0.76845 0.0
H2377 H 0.68541 0.96722 0.82462 0.0
H2378 H 0.73288 0.90647 0.77523 0.0
H2379 H 0.72057 0.88706 0.79505 0.0
H2380 H 0.70374 0.89022 0.76713 0.0
H2381 H 0.71516 0.97253 0.85745 0.0
H2382 H 0.73176 0.95087 0.86217 0.0
H2383 H 0.74135 0.97338 0.84439 0.0
H2384 H 0.77034 0.88931 0.85308 0.0
H2385 H 0.79908 0.93935 0.80835 0.0
H2386 H 0.71572 0.88578 0.83766 0.0
H2387 H 0.71751 0.91024 0.85759 0.0
H2388 H 0.73378 0.88911 0.86617 0.0
H2389 H 0.75039 0.94938 0.77996 0.0
H2390 H 0.77843 0.96582 0.79271 0.0
H2391 H 0.75274 0.96955 0.80492 0.0
C2392 C 0.7252 0.96391 0.52121 0.0
C2393 C 0.73418 0.95825 0.54389 0.0
C2394 C 0.70485 0.97361 0.51753 0.0
C2395 C 0.69233 0.97785 0.53675 0.0
C2396 C 0.70118 0.97183 0.55947 0.0
C2397 C 0.72152 0.96247 0.56268 0.0
C2398 C 0.69683 0.97961 0.4929 0.0
C2399 C 0.68913 0.97539 0.5808 0.0
C2400 C 0.65237 0.02256 0.53645 0.0
C2401 C 0.62942 1.00964 0.5311 0.0
C2402 C 0.67249 0.01271 0.53762 0.0
C2403 C 0.67052 0.98888 0.5336 0.0
C2404 C 0.64741 0.97572 0.52801 0.0
C2405 C 0.62754 0.98605 0.52675 0.0
C2406 C 0.69611 0.02803 0.5435 0.0
C2407 C 0.64356 0.9504 0.52373 0.0
H2408 H 0.73425 0.96109 0.50628 0.0
H2409 H 0.72754 0.95835 0.58041 0.0
H2410 H 0.67866 0.97062 0.4869 0.0
H2411 H 0.69711 0.99799 0.49329 0.0
H2412 H 0.70784 0.97525 0.47966 0.0
H2413 H 0.69739 0.9693 0.59717 0.0
H2414 H 0.68932 0.99362 0.58433 0.0
H2415 H 0.6707 0.96641 0.57707 0.0
H2416 H 0.65475 0.0407 0.5399 0.0
H2417 H 0.61035 0.97542 0.52264 0.0
H2418 H 0.70706 0.02503 0.52968 0.0
H2419 H 0.70486 0.02415 0.56077 0.0
H2420 H 0.6952 0.04618 0.54475 0.0
H2421 H 0.65339 0.94583 0.50948 0.0
H2422 H 0.62495 0.94238 0.51853 0.0
H2423 H 0.65021 0.94329 0.54018 0.0
C2424 C 0.36238 0.44463 0.70924 0.0
C2425 C 0.37749 0.44723 0.69203 0.0
C2426 C 0.35465 0.42353 0.71743 0.0
C2427 C 0.36162 0.40441 0.70765 0.0
C2428 C 0.37545 0.40658 0.68901 0.0
C2429 C 0.38355 0.42811 0.68163 0.0
C2430 C 0.34029 0.42201 0.73768 0.0
C2431 C 0.38251 0.38637 0.67763 0.0
C2432 C 0.36485 0.35903 0.75022 0.0
C2433 C 0.34281 0.34512 0.74425 0.0
C2434 C 0.37153 0.37804 0.73783 0.0
C2435 C 0.35601 0.38274 0.71858 0.0
C2436 C 0.33423 0.36798 0.71164 0.0
C2437 C 0.3277 0.3495 0.72486 0.0
C2438 C 0.3947 0.3937 0.74612 0.0
C2439 C 0.31758 0.37208 0.69074 0.0
H2440 H 0.35765 0.45933 0.71743 0.0
H2441 H 0.39508 0.43004 0.6682 0.0
H2442 H 0.32408 0.40904 0.73277 0.0
H2443 H 0.35012 0.41675 0.75362 0.0
H2444 H 0.33565 0.43835 0.74266 0.0
H2445 H 0.39007 0.39027 0.66103 0.0
H2446 H 0.39563 0.38079 0.69032 0.0
H2447 H 0.3674 0.37202 0.67337 0.0
H2448 H 0.37651 0.35555 0.76521 0.0
H2449 H 0.31081 0.33842 0.71999 0.0
H2450 H 0.39196 0.41045 0.75266 0.0
H2451 H 0.40486 0.39639 0.73106 0.0
H2452 H 0.40511 0.38708 0.76071 0.0
H2453 H 0.31048 0.38711 0.69533 0.0
H2454 H 0.30287 0.35743 0.68565 0.0
H2455 H 0.32672 0.37565 0.67505 0.0
C2456 C 0.17803 0.522 0.22054 0.0
C2457 C 0.1547 0.51926 0.22395 0.0
C2458 C 0.19201 0.54365 0.22053 0.0
C2459 C 0.18242 0.56299 0.22399 0.0
C2460 C 0.15859 0.56027 0.22614 0.0
C2461 C 0.14504 0.53847 0.22607 0.0
C2462 C 0.21728 0.54583 0.2179 0.0
C2463 C 0.14762 0.58043 0.22963 0.0
C2464 C 0.22162 0.6178 0.25285 0.0
C2465 C 0.22446 0.63065 0.23322 0.0
C2466 C 0.20829 0.59566 0.25 0.0
C2467 C 0.19754 0.58605 0.22695 0.0
C2468 C 0.2006 0.59877 0.207 0.0
C2469 C 0.21397 0.62091 0.21038 0.0
C2470 C 0.20547 0.58265 0.27174 0.0
C2471 C 0.18941 0.58914 0.18215 0.0
H2472 H 0.18563 0.50726 0.21876 0.0
H2473 H 0.12697 0.53654 0.22845 0.0
H2474 H 0.22197 0.55731 0.20393 0.0
H2475 H 0.22818 0.55338 0.2349 0.0
H2476 H 0.22157 0.52925 0.21321 0.0
H2477 H 0.12854 0.57545 0.22924 0.0
H2478 H 0.15526 0.58991 0.24707 0.0
H2479 H 0.15123 0.59211 0.21558 0.0
H2480 H 0.22991 0.62504 0.2705 0.0
H2481 H 0.21577 0.63079 0.19513 0.0
H2482 H 0.21138 0.56653 0.26938 0.0
H2483 H 0.18687 0.57832 0.27398 0.0
H2484 H 0.21537 0.59233 0.28833 0.0
H2485 H 0.19445 0.5729 0.17775 0.0
H2486 H 0.1943 0.60083 0.16839 0.0
H2487 H 0.17026 0.58551 0.18125 0.0
C2488 C 0.55559 0.72222 0.4979 0.0
C2489 C 0.54095 0.7106 0.47773 0.0
C2490 C 0.5649 0.71037 0.51598 0.0
C2491 C 0.55942 0.68648 0.51367 0.0
C2492 C 0.5429 0.67484 0.4945 0.0
C2493 C 0.53387 0.68707 0.47678 0.0
C2494 C 0.58205 0.72336 0.53641 0.0
C2495 C 0.53636 0.64934 0.49139 0.0
C2496 C 0.6016 0.64929 0.52873 0.0
C2497 C 0.59195 0.63784 0.5469 0.0
C2498 C 0.59276 0.66724 0.51953 0.0
C2499 C 0.57347 0.67335 0.52847 0.0
C2500 C 0.5652 0.66326 0.54849 0.0
C2501 C 0.57465 0.6455 0.55757 0.0
C2502 C 0.60234 0.67777 0.49842 0.0
C2503 C 0.54472 0.66936 0.55851 0.0
H2504 H 0.56092 0.74046 0.4989 0.0
H2505 H 0.52221 0.67801 0.46146 0.0
H2506 H 0.57988 0.71541 0.55335 0.0
H2507 H 0.59991 0.7233 0.53271 0.0
H2508 H 0.58023 0.74121 0.5388 0.0
H2509 H 0.52024 0.64317 0.47858 0.0
H2510 H 0.5506 0.6427 0.48455 0.0
H2511 H 0.53387 0.64227 0.50866 0.0
H2512 H 0.61485 0.64305 0.52044 0.0
H2513 H 0.56698 0.63622 0.57139 0.0
H2514 H 0.60462 0.69642 0.50057 0.0
H2515 H 0.58992 0.67155 0.48195 0.0
H2516 H 0.61926 0.67352 0.49595 0.0
H2517 H 0.54579 0.68788 0.55933 0.0
H2518 H 0.54348 0.66357 0.57664 0.0
H2519 H 0.52853 0.66117 0.54665 0.0
C2520 C 0.7199 0.3872 0.69611 0.0
C2521 C 0.69968 0.3881 0.70606 0.0
C2522 C 0.73846 0.38016 0.70919 0.0
C2523 C 0.73669 0.37414 0.73275 0.0
C2524 C 0.71774 0.37811 0.7439 0.0
C2525 C 0.69934 0.38497 0.73036 0.0
C2526 C 0.75859 0.37652 0.69678 0.0
C2527 C 0.71558 0.37258 0.76924 0.0
C2528 C 0.75799 0.32081 0.7453 0.0
C2529 C 0.77992 0.3292 0.75849 0.0
C2530 C 0.74359 0.33532 0.73753 0.0
C2531 C 0.75123 0.35891 0.74318 0.0
C2532 C 0.77286 0.3675 0.75751 0.0
C2533 C 0.78705 0.3525 0.76498 0.0
C2534 C 0.72051 0.32537 0.72245 0.0
C2535 C 0.78148 0.39251 0.76408 0.0
H2536 H 0.72048 0.39 0.67746 0.0
H2537 H 0.68397 0.3862 0.73835 0.0
H2538 H 0.77522 0.3821 0.70886 0.0
H2539 H 0.75655 0.35821 0.6916 0.0
H2540 H 0.75953 0.3857 0.6804 0.0
H2541 H 0.70297 0.38118 0.77688 0.0
H2542 H 0.70945 0.35408 0.76953 0.0
H2543 H 0.7326 0.37751 0.7808 0.0
H2544 H 0.75222 0.30281 0.74048 0.0
H2545 H 0.80402 0.35911 0.77515 0.0
H2546 H 0.7202 0.33177 0.70448 0.0
H2547 H 0.70625 0.33062 0.73068 0.0
H2548 H 0.71695 0.30661 0.72024 0.0
H2549 H 0.78791 0.40063 0.7485 0.0
H2550 H 0.79591 0.39597 0.77919 0.0
H2551 H 0.76731 0.40055 0.76892 0.0
C2552 C 0.03589 0.30051 0.93339 0.0
C2553 C 0.02652 0.29282 0.90969 0.0
C2554 C 0.03778 0.32306 0.94186 0.0
C2555 C 0.03 0.33827 0.92629 0.0
C2556 C 1.0209 0.33076 0.90224 0.0
C2557 C 1.0193 0.30809 0.89419 0.0
C2558 C 0.04768 0.33049 0.96762 0.0
C2559 C 1.01235 0.34652 0.88518 0.0
C2560 C 1.01234 0.38813 0.9566 0.0
C2561 C 0.03207 0.40533 0.95693 0.0
C2562 C 1.01119 0.36642 0.94602 0.0
C2563 C 0.03032 0.36172 0.93565 0.0
C2564 C 0.05011 0.37908 0.93545 0.0
C2565 C 0.05075 0.40072 0.94609 0.0
C2566 C 0.98978 0.34832 0.9466 0.0
C2567 C 0.07081 0.37465 0.92451 0.0
H2568 H 0.04163 0.28885 0.94545 0.0
H2569 H 1.01205 0.30227 0.87585 0.0
H2570 H 0.06232 0.34524 0.96868 0.0
H2571 H 0.03425 0.33591 0.97714 0.0
H2572 H 0.05393 0.31683 0.97708 0.0
H2573 H 1.00687 0.33834 0.86674 0.0
H2574 H 0.99739 0.35232 0.89142 0.0
H2575 H 0.02613 0.36175 0.88475 0.0
H2576 H 0.99799 0.39145 0.96528 0.0
H2577 H 0.06592 0.41402 0.94604 0.0
H2578 H 0.99431 0.33487 0.95764 0.0
H2579 H 0.98285 0.34032 0.92835 0.0
H2580 H 0.97589 0.35508 0.95407 0.0
H2581 H 0.07861 0.36215 0.93449 0.0
H2582 H 0.08433 0.39025 0.92469 0.0
H2583 H 0.06533 0.36726 0.90581 0.0
C2584 C 0.06204 0.86104 0.20413 0.0
C2585 C 0.08076 0.85019 0.208 0.0
C2586 C 0.04233 0.85468 0.21535 0.0
C2587 C 0.04137 0.83708 0.23079 0.0
C2588 C 0.06022 0.82612 0.23486 0.0
C2589 C 0.0797 0.83281 0.2234 0.0
C2590 C 0.0225 0.86673 0.21062 0.0
C2591 C 0.05978 0.8073 0.25126 0.0
C2592 C 0.99937 0.83444 0.27601 0.0
C2593 C 0.98065 0.81773 0.26479 0.0
C2594 C 1.01936 0.84076 0.26523 0.0
C2595 C 1.02059 0.83013 0.2427 0.0
C2596 C 1.00187 0.81306 0.2314 0.0
C2597 C 0.9821 0.80705 0.2426 0.0
C2598 C 0.03901 0.85903 0.27779 0.0
C2599 C 1.00266 0.80129 0.20741 0.0
H2600 H 0.06273 0.87447 0.19224 0.0
H2601 H 0.0941 0.82434 0.22649 0.0
H2602 H 1.00646 0.85443 0.20287 0.0
H2603 H 1.01909 0.87454 0.22763 0.0
H2604 H 0.02602 0.88013 0.1982 0.0
H2605 H 0.07591 0.80057 0.25256 0.0
H2606 H 0.05747 0.81347 0.26941 0.0
H2607 H 0.04483 0.79324 0.24476 0.0
H2608 H 0.99818 0.84295 0.293 0.0
H2609 H 0.96777 0.79394 0.23402 0.0
H2610 H 0.04194 0.87355 0.26669 0.0
H2611 H 0.0553 0.8526 0.28026 0.0
H2612 H 0.03555 0.86519 0.29553 0.0
H2613 H 1.00469 0.81382 0.1939 0.0
H2614 H 0.98676 0.78816 0.2012 0.0
H2615 H 1.01789 0.79322 0.20835 0.0
C2616 C 0.55173 0.37408 0.10765 0.0
C2617 C 0.57239 0.36876 0.11903 0.0
C2618 C 0.55144 0.39502 0.09663 0.0
C2619 C 0.57226 0.41172 0.09633 0.0
C2620 C 0.59305 0.40613 0.10738 0.0
C2621 C 0.59283 0.38538 0.11837 0.0
C2622 C 0.52857 0.39946 0.08554 0.0
C2623 C 0.61595 0.42236 0.10786 0.0
C2624 C 0.57711 0.45961 0.0512 0.0
C2625 C 0.57594 0.47949 0.06504 0.0
C2626 C 0.57563 0.43792 0.06079 0.0
C2627 C 0.5726 0.43498 0.08515 0.0
C2628 C 0.57123 0.45495 0.09912 0.0
C2629 C 0.57293 0.47644 0.08915 0.0
C2630 C 0.57751 0.41795 0.04465 0.0
C2631 C 0.56795 0.45367 0.12496 0.0
H2632 H 0.53558 0.36211 0.10779 0.0
H2633 H 0.60918 0.38224 0.12673 0.0
H2634 H 0.52516 0.41484 0.09478 0.0
H2635 H 0.52922 0.40275 0.06656 0.0
H2636 H 0.51393 0.3851 0.0865 0.0
H2637 H 0.63081 0.41559 0.11621 0.0
H2638 H 0.61876 0.42623 0.08943 0.0
H2639 H 0.61575 0.43853 0.11796 0.0
H2640 H 0.57926 0.46095 0.03262 0.0
H2641 H 0.57174 0.49103 0.1005 0.0
H2642 H 0.56192 0.40427 0.04411 0.0
H2643 H 0.59273 0.41111 0.05183 0.0
H2644 H 0.57935 0.42239 0.02615 0.0
H2645 H 0.55228 0.44069 0.12652 0.0
H2646 H 0.56613 0.47009 0.13343 0.0
H2647 H 0.58297 0.44842 0.13504 0.0
C2648 C 0.98865 0.29996 0.38693 0.0
C2649 C 1.00626 0.29093 0.37771 0.0
C2650 C 0.96679 0.29982 0.37327 0.0
C2651 C 0.96133 0.29006 0.3493 0.0
C2652 C 0.97899 0.28092 0.33971 0.0
C2653 C 1.00104 0.28162 0.35376 0.0
C2654 C 0.94939 0.31026 0.38471 0.0
C2655 C 0.97442 0.27003 0.31453 0.0
C2656 C 0.89529 0.27242 0.32384 0.0
C2657 C 0.89115 0.29021 0.30994 0.0
C2658 C 0.91779 0.27181 0.33589 0.0
C2659 C 0.93729 0.28955 0.33471 0.0
C2660 C 0.93322 0.30751 0.32065 0.0
C2661 C 0.91062 0.30754 0.30851 0.0
C2662 C 0.92062 0.25207 0.35018 0.0
C2663 C 0.95278 0.32714 0.31879 0.0
H2664 H 0.99197 0.30742 0.40518 0.0
H2665 H 1.01402 0.27444 0.34608 0.0
H2666 H 0.94424 0.32359 0.37388 0.0
H2667 H 0.93349 0.29726 0.38531 0.0
H2668 H 0.95626 0.31784 0.40316 0.0
H2669 H 0.9895 0.26356 0.30945 0.0
H2670 H 0.95916 0.2558 0.31258 0.0
H2671 H 0.9702 0.2824 0.30187 0.0
H2672 H 0.88083 0.25877 0.32532 0.0
H2673 H 0.90818 0.32154 0.2981 0.0
H2674 H 0.92569 0.258 0.36936 0.0
H2675 H 0.93473 0.24439 0.34449 0.0
H2676 H 0.90446 0.23884 0.3482 0.0
H2677 H 0.9595 0.33597 0.33675 0.0
H2678 H 0.94731 0.33952 0.30675 0.0
H2679 H 0.96733 0.32096 0.31209 0.0
C2680 C 0.06936 0.72103 0.61102 0.0
C2681 C 0.04912 0.72367 0.62061 0.0
C2682 C 0.07194 0.69963 0.6003 0.0
C2683 C 0.05384 0.67976 0.59833 0.0
C2684 C 0.03327 0.6826 0.60749 0.0
C2685 C 0.03135 0.70389 0.61847 0.0
C2686 C 0.0945 0.69818 0.59151 0.0
C2687 C 1.01298 0.66288 0.60583 0.0
C2688 C 0.05093 0.62804 0.55155 0.0
C2689 C 0.05812 0.61118 0.56524 0.0
C2690 C 0.04967 0.64992 0.56181 0.0
C2691 C 0.05606 0.65624 0.58681 0.0
C2692 C 0.0635 0.63936 0.60074 0.0
C2693 C 0.0643 0.61745 0.59004 0.0
C2694 C 0.04105 0.66631 0.5457 0.0
C2695 C 0.07073 0.64442 0.62727 0.0
H2696 H 0.08361 0.73553 0.61257 0.0
H2697 H 1.0155 0.70499 0.62559 0.0
H2698 H 0.1024 0.68547 0.60104 0.0
H2699 H 0.0913 0.69239 0.57224 0.0
H2700 H 0.10706 0.71464 0.59422 0.0
H2701 H 0.99768 0.66775 0.61238 0.0
H2702 H 1.00789 0.65558 0.58705 0.0
H2703 H 1.018 0.6494 0.6165 0.0
H2704 H 0.04597 0.62408 0.53249 0.0
H2705 H 0.06997 0.60518 0.60129 0.0
H2706 H 0.05438 0.68215 0.54686 0.0
H2707 H 0.02536 0.67084 0.55165 0.0
H2708 H 0.03672 0.6593 0.52676 0.0
H2709 H 0.08432 0.66015 0.63094 0.0
H2710 H 0.07747 0.63046 0.63564 0.0
H2711 H 0.05572 0.64732 0.63589 0.0
C2712 C 0.6506 0.79675 0.85549 0.0
C2713 C 0.65275 0.79287 0.88002 0.0
C2714 C 0.66964 0.79767 0.84175 0.0
C2715 C 0.69199 0.79459 0.85217 0.0
C2716 C 0.69411 0.79069 0.87682 0.0
C2717 C 0.67502 0.78994 0.89003 0.0
C2718 C 0.66577 0.80201 0.81581 0.0
C2719 C 0.71684 0.78716 0.88951 0.0
C2720 C 0.73722 0.77503 0.81454 0.0
C2721 C 0.75437 0.79481 0.81363 0.0
C2722 C 0.71709 0.77486 0.8262 0.0
C2723 C 0.71298 0.79498 0.83775 0.0
C2724 C 0.73005 0.81509 0.83662 0.0
C2725 C 0.75013 0.81477 0.8249 0.0
C2726 C 0.70024 0.75275 0.82649 0.0
C2727 C 0.7273 0.8372 0.84819 0.0
H2728 H 0.63402 0.79916 0.84692 0.0
H2729 H 0.67775 0.7869 0.90872 0.0
H2730 H 0.67827 0.81736 0.81254 0.0
H2731 H 0.66904 0.78768 0.80461 0.0
H2732 H 0.64789 0.8043 0.81002 0.0
H2733 H 0.71614 0.78439 0.90862 0.0
H2734 H 0.7217 0.77232 0.88069 0.0
H2735 H 0.73079 0.80207 0.88835 0.0
H2736 H 0.73964 0.75928 0.80626 0.0
H2737 H 0.76273 0.83036 0.82477 0.0
H2738 H 0.68249 0.75441 0.8192 0.0
H2739 H 0.69981 0.74826 0.84515 0.0
H2740 H 0.70487 0.73872 0.81596 0.0
H2741 H 0.70987 0.84037 0.8419 0.0
H2742 H 0.74064 0.85163 0.84431 0.0
H2743 H 0.72869 0.83641 0.86781 0.0
C2744 C 0.47202 0.57172 0.6763 0.0
C2745 C 0.45524 0.55182 0.66951 0.0
C2746 C 0.49078 0.57767 0.66363 0.0
C2747 C 0.49276 0.56334 0.64378 0.0
C2748 C 0.47564 0.54347 0.63654 0.0
C2749 C 0.45703 0.53797 0.64948 0.0
C2750 C 0.50866 0.59908 0.67168 0.0
C2751 C 0.4772 0.52779 0.61539 0.0
C2752 C 0.52943 0.58379 0.59648 0.0
C2753 C 0.54885 0.57425 0.60239 0.0
C2754 C 0.51144 0.58122 0.61042 0.0
C2755 C 0.51291 0.56877 0.6307 0.0
C2756 C 0.53297 0.56005 0.63743 0.0
C2757 C 0.55079 0.56296 0.6232 0.0
C2758 C 0.4904 0.59093 0.60279 0.0
C2759 C 0.53509 0.54667 0.65898 0.0
H2760 H 0.4707 0.58253 0.69174 0.0
H2761 H 0.44412 0.52257 0.64413 0.0
H2762 H 0.5258 0.59488 0.67709 0.0
H2763 H 0.51051 0.61003 0.65673 0.0
H2764 H 0.50413 0.6088 0.68695 0.0
H2765 H 0.46223 0.51321 0.61188 0.0
H2766 H 0.47797 0.53714 0.59916 0.0
H2767 H 0.49337 0.52124 0.61856 0.0
H2768 H 0.52793 0.59275 0.58052 0.0
H2769 H 0.56575 0.55556 0.62782 0.0
H2770 H 0.48612 0.60081 0.61806 0.0
H2771 H 0.47522 0.57699 0.59674 0.0
H2772 H 0.49298 0.60203 0.588 0.0
H2773 H 0.53163 0.55619 0.67495 0.0
H2774 H 0.55253 0.5426 0.66285 0.0
H2775 H 0.52194 0.53061 0.65592 0.0
C2776 C 0.81662 0.22371 0.94034 0.0
C2777 C 0.7995 0.22911 0.95322 0.0
C2778 C 0.81914 0.23155 0.91775 0.0
C2779 C 0.80437 0.24535 0.90787 0.0
C2780 C 0.78741 0.25129 0.921 0.0
C2781 C 0.78509 0.243 0.94343 0.0
C2782 C 0.83736 0.22472 0.90428 0.0
C2783 C 0.77157 0.26625 0.91127 0.0
C2784 C 0.82477 0.28064 0.85822 0.0
C2785 C 0.81192 0.26783 0.83772 0.0
C2786 C 0.82216 0.27377 0.88114 0.0
C2787 C 0.80655 0.2534 0.88369 0.0
C2788 C 0.79336 0.24048 0.86309 0.0
C2789 C 0.79608 0.24793 0.84038 0.0
C2790 C 0.83632 0.28818 0.90263 0.0
C2791 C 0.77675 0.21852 0.86502 0.0
H2792 H 0.82777 0.21291 0.94766 0.0
H2793 H 0.77187 0.24733 0.95325 0.0
H2794 H 0.82903 0.21534 0.88697 0.0
H2795 H 0.84954 0.23996 0.90021 0.0
H2796 H 0.84748 0.21392 0.91443 0.0
H2797 H 0.75983 0.26994 0.92402 0.0
H2798 H 0.78198 0.28247 0.90699 0.0
H2799 H 0.76087 0.25801 0.89442 0.0
H2800 H 0.83699 0.2961 0.85639 0.0
H2801 H 0.78623 0.23781 0.82466 0.0
H2802 H 0.84817 0.27859 0.91221 0.0
H2803 H 0.82477 0.29251 0.91528 0.0
H2804 H 0.84684 0.30409 0.89769 0.0
H2805 H 0.78634 0.20644 0.87354 0.0
H2806 H 0.76754 0.21062 0.84734 0.0
H2807 H 0.7637 0.2214 0.87654 0.0
C2808 C 0.11859 0.44203 0.15834 0.0
C2809 C 0.11317 0.43902 0.18138 0.0
C2810 C 0.11121 0.45882 0.14526 0.0
C2811 C 0.09765 0.47262 0.15534 0.0
C2812 C 0.09213 0.46965 0.17866 0.0
C2813 C 0.10006 0.45286 0.19147 0.0
C2814 C 0.11774 0.46164 0.12054 0.0
C2815 C 0.07759 0.48393 0.18991 0.0
C2816 C 0.09812 0.52586 0.12386 0.0
C2817 C 0.07883 0.51894 0.1061 0.0
C2818 C 0.10349 0.51158 0.14136 0.0
C2819 C 0.08922 0.48988 0.14104 0.0
C2820 C 0.06857 0.48364 0.12453 0.0
C2821 C 0.06359 0.49829 0.10721 0.0
C2822 C 0.12551 0.519 0.15885 0.0
C2823 C 0.05273 0.46074 0.1239 0.0
H2824 H 0.12869 0.43122 0.15055 0.0
H2825 H 0.09532 0.45002 0.20899 0.0
H2826 H 0.10186 0.45859 0.10718 0.0
H2827 H 0.1272 0.47921 0.11946 0.0
H2828 H 0.12883 0.44988 0.11557 0.0
H2829 H 0.07399 0.47879 0.20778 0.0
H2830 H 0.08665 0.50194 0.19183 0.0
H2831 H 0.06086 0.48269 0.17823 0.0
H2832 H 0.10981 0.54197 0.12334 0.0
H2833 H 0.04859 0.49288 0.09363 0.0
H2834 H 0.13883 0.50997 0.15359 0.0
H2835 H 0.12247 0.51466 0.17706 0.0
H2836 H 0.13255 0.53747 0.1594 0.0
H2837 H 0.06111 0.44762 0.11648 0.0
H2838 H 0.03579 0.45984 0.11266 0.0
H2839 H 0.04958 0.45662 0.14217 0.0
C2840 C 0.80045 0.88875 0.45028 0.0
C2841 C 0.80619 0.87748 0.47061 0.0
C2842 C 0.80188 0.87993 0.42663 0.0
C2843 C 0.80906 0.85906 0.42259 0.0
C2844 C 0.81444 0.84751 0.44302 0.0
C2845 C 0.81307 0.85675 0.46633 0.0
C2846 C 0.79602 0.89322 0.40588 0.0
C2847 C 0.82196 0.82526 0.44034 0.0
C2848 C 0.79564 0.82444 0.36019 0.0
C2849 C 0.817 0.82897 0.35112 0.0
C2850 C 0.79271 0.83427 0.38283 0.0
C2851 C 0.81145 0.8494 0.39737 0.0
C2852 C 0.83293 0.85428 0.38813 0.0
C2853 C 0.83543 0.84411 0.36554 0.0
C2854 C 0.76948 0.82806 0.39141 0.0
C2855 C 0.85358 0.8702 0.40235 0.0
H2856 H 0.79525 0.90476 0.45284 0.0
H2857 H 0.81759 0.84753 0.48144 0.0
H2858 H 0.81142 0.89805 0.39665 0.0
H2859 H 0.7821 0.88262 0.39272 0.0
H2860 H 0.79025 0.90879 0.41154 0.0
H2861 H 0.82483 0.81784 0.45767 0.0
H2862 H 0.80865 0.81299 0.42804 0.0
H2863 H 0.83827 0.82763 0.43236 0.0
H2864 H 0.7811 0.81287 0.34968 0.0
H2865 H 0.85209 0.84804 0.35919 0.0
H2866 H 0.76304 0.84355 0.39579 0.0
H2867 H 0.7713 0.81934 0.40802 0.0
H2868 H 0.75632 0.81683 0.37794 0.0
H2869 H 0.84897 0.88659 0.40706 0.0
H2870 H 0.86873 0.87335 0.39247 0.0
H2871 H 0.85872 0.86306 0.41931 0.0
C2872 C 0.44999 0.51938 0.77621 0.0
C2873 C 0.42601 0.51094 0.77415 0.0
C2874 C 0.46451 0.51914 0.79766 0.0
C2875 C 0.45482 0.51031 0.81755 0.0
C2876 C 0.43063 0.50187 0.81566 0.0
C2877 C 0.41649 0.50226 0.79395 0.0
C2878 C 0.49025 0.52826 0.799 0.0
C2879 C 0.41971 0.49239 0.83656 0.0
C2880 C 0.49565 0.49133 0.86546 0.0
C2881 C 0.50106 0.51008 0.88239 0.0
C2882 C 0.48032 0.49102 0.84444 0.0
C2883 C 0.47011 0.50989 0.84029 0.0
C2884 C 0.47516 0.5287 0.85748 0.0
C2885 C 0.49063 0.52859 0.8783 0.0
C2886 C 0.47529 0.47064 0.8265 0.0
C2887 C 0.46459 0.54913 0.85366 0.0
H2888 H 0.45749 0.52611 0.761 0.0
H2889 H 0.39798 0.49572 0.7925 0.0
H2890 H 0.49607 0.54227 0.81331 0.0
H2891 H 0.49988 0.51484 0.80365 0.0
H2892 H 0.49501 0.53461 0.78193 0.0
H2893 H 0.4006 0.48663 0.83221 0.0
H2894 H 0.42721 0.47789 0.84234 0.0
H2895 H 0.42357 0.50538 0.85192 0.0
H2896 H 0.50339 0.47684 0.8687 0.0
H2897 H 0.49496 0.54326 0.89116 0.0
H2898 H 0.48102 0.47569 0.80936 0.0
H2899 H 0.45636 0.46364 0.82285 0.0
H2900 H 0.48415 0.4571 0.83272 0.0
H2901 H 0.47032 0.55714 0.83772 0.0
H2902 H 0.4695 0.56193 0.86925 0.0
H2903 H 0.44541 0.54395 0.8502 0.0
C2904 C 0.80555 0.22248 0.09477 0.0
C2905 C 0.82623 0.22016 0.08635 0.0
C2906 C 0.80553 0.23038 0.1186 0.0
C2907 C 0.82669 0.23635 0.13436 0.0
C2908 C 0.8476 0.23407 0.12595 0.0
C2909 C 0.84711 0.22593 0.10212 0.0
C2910 C 0.78283 0.23239 0.1269 0.0
C2911 C 0.87055 0.24037 0.14209 0.0
C2912 C 0.82959 0.27872 0.18734 0.0
C2913 C 0.8273 0.26485 0.20628 0.0
C2914 C 0.82961 0.26965 0.164 0.0
C2915 C 0.82713 0.24605 0.15928 0.0
C2916 C 0.8251 0.2319 0.17832 0.0
C2917 C 0.82525 0.24148 0.20159 0.0
C2918 C 0.83214 0.28539 0.14433 0.0
C2919 C 0.82228 0.20661 0.17406 0.0
H2920 H 0.78931 0.21787 0.08282 0.0
H2921 H 0.86318 0.22416 0.09585 0.0
H2922 H 0.78018 0.22248 0.14255 0.0
H2923 H 0.78326 0.25028 0.13272 0.0
H2924 H 0.76779 0.22634 0.11271 0.0
H2925 H 0.88521 0.23722 0.13297 0.0
H2926 H 0.87402 0.25852 0.14855 0.0
H2927 H 0.86994 0.23056 0.15802 0.0
H2928 H 0.83129 0.2968 0.19068 0.0
H2929 H 0.82347 0.23058 0.21603 0.0
H2930 H 0.8166 0.28096 0.13054 0.0
H2931 H 0.84732 0.28347 0.13549 0.0
H2932 H 0.83436 0.30339 0.15103 0.0
H2933 H 0.80507 0.19939 0.16353 0.0
H2934 H 0.82359 0.19829 0.191 0.0
H2935 H 0.83559 0.20242 0.16355 0.0
C2936 C 0.07189 0.46963 0.27624 0.0
C2937 C 0.07839 0.44896 0.28002 0.0
C2938 C 0.06155 0.48022 0.29329 0.0
C2939 C 0.0578 0.46991 0.31461 0.0
C2940 C 0.06216 0.448 0.31738 0.0
C2941 C 0.07235 0.43771 0.29994 0.0
C2942 C 0.05678 0.5034 0.28947 0.0
C2943 C 0.05826 0.43639 0.33982 0.0
C2944 C 0.06926 0.50892 0.37119 0.0
C2945 C 0.04683 0.50871 0.37641 0.0
C2946 C 0.07292 0.49647 0.35103 0.0
C2947 C 0.05364 0.48359 0.33554 0.0
C2948 C 0.03088 0.48372 0.3403 0.0
C2949 C 0.02772 0.4963 0.36077 0.0
C2950 C 0.09752 0.4969 0.34652 0.0
C2951 C 1.00995 0.47027 0.32407 0.0
H2952 H 0.07613 0.47822 0.26062 0.0
H2953 H 0.07715 0.42163 0.30286 0.0
H2954 H 0.03999 0.50503 0.29518 0.0
H2955 H 0.07056 0.51633 0.30045 0.0
H2956 H 0.05649 0.50714 0.27049 0.0
H2957 H 0.05877 0.41818 0.33756 0.0
H2958 H 0.07201 0.4446 0.35458 0.0
H2959 H 0.04135 0.43801 0.34524 0.0
H2960 H 0.08405 0.51883 0.383 0.0
H2961 H 1.01035 0.49598 0.36485 0.0
H2962 H 0.10003 0.50313 0.32882 0.0
H2963 H 0.10091 0.47955 0.34625 0.0
H2964 H 0.11055 0.50787 0.36031 0.0
H2965 H 1.0108 0.47444 0.30536 0.0
H2966 H 0.99345 0.47346 0.32933 0.0
H2967 H 1.00979 0.45197 0.32449 0.0
C2968 C 0.81342 0.87847 0.6138 0.0
C2969 C 0.79248 0.88544 0.60651 0.0
C2970 C 0.81704 0.86727 0.63526 0.0
C2971 C 0.79951 0.86275 0.65052 0.0
C2972 C 0.77852 0.86993 0.64326 0.0
C2973 C 0.77533 0.88086 0.62181 0.0
C2974 C 0.83975 0.86011 0.64159 0.0
C2975 C 0.75911 0.86603 0.65827 0.0
C2976 C 0.79713 0.81544 0.69522 0.0
C2977 C 0.80617 0.82725 0.71777 0.0
C2978 C 0.79539 0.8265 0.67361 0.0
C2979 C 0.80268 0.85041 0.67371 0.0
C2980 C 0.81182 0.86246 0.69641 0.0
C2981 C 0.81353 0.85094 0.71776 0.0
C2982 C 0.78558 0.81241 0.65044 0.0
C2983 C 0.81973 0.88779 0.69822 0.0
H2984 H 0.82704 0.88163 0.60266 0.0
H2985 H 0.75899 0.88594 0.61707 0.0
H2986 H 0.84831 0.86819 0.65939 0.0
H2987 H 0.83657 0.84156 0.64276 0.0
H2988 H 0.85174 0.86466 0.62831 0.0
H2989 H 0.74398 0.87285 0.65073 0.0
H2990 H 0.75326 0.84767 0.65976 0.0
H2991 H 0.7654 0.87413 0.67661 0.0
H2992 H 0.79147 0.79724 0.69433 0.0
H2993 H 0.82068 0.86066 0.73462 0.0
H2994 H 0.79811 0.81548 0.63746 0.0
H2995 H 0.7695 0.81744 0.64253 0.0
H2996 H 0.7815 0.79405 0.65282 0.0
H2997 H 0.83325 0.89261 0.68658 0.0
H2998 H 0.82684 0.8949 0.71679 0.0
H2999 H 0.80499 0.89563 0.69182 0.0
C3000 C 0.77606 0.44065 0.58733 0.0
C3001 C 0.78217 0.4375 0.56447 0.0
C3002 C 0.76297 0.45673 0.59248 0.0
C3003 C 0.75612 0.47021 0.57443 0.0
C3004 C 0.76217 0.46708 0.55129 0.0
C3005 C 0.77499 0.45063 0.54654 0.0
C3006 C 0.75647 0.45929 0.61724 0.0
C3007 C 0.75534 0.48128 0.53163 0.0
C3008 C 0.70529 0.49845 0.57962 0.0
C3009 C 0.71652 0.52058 0.58815 0.0
C3010 C 0.71796 0.48179 0.57549 0.0
C3011 C 0.74247 0.4875 0.57968 0.0
C3012 C 0.75391 0.50979 0.58856 0.0
C3013 C 0.74075 0.52606 0.5929 0.0
C3014 C 0.7051 0.45815 0.56643 0.0
C3015 C 0.78003 0.51656 0.59298 0.0
H3016 H 0.78146 0.43048 0.60124 0.0
H3017 H 0.77977 0.44838 0.52888 0.0
H3018 H 0.76385 0.47671 0.62544 0.0
H3019 H 0.73735 0.45662 0.61624 0.0
H3020 H 0.76275 0.44718 0.62912 0.0
H3021 H 0.76163 0.47691 0.5147 0.0
H3022 H 0.73619 0.47898 0.5282 0.0
H3023 H 0.76247 0.49943 0.53721 0.0
H3024 H 0.68652 0.4942 0.57621 0.0
H3025 H 0.74939 0.54322 0.59936 0.0
H3026 H 0.7106 0.44578 0.57843 0.0
H3027 H 0.70937 0.45375 0.54851 0.0
H3028 H 0.686 0.45625 0.56516 0.0
H3029 H 0.78715 0.50571 0.60584 0.0
H3030 H 0.78624 0.53451 0.6001 0.0
H3031 H 0.78713 0.51398 0.5761 0.0
C3032 C 0.25109 0.12235 0.51352 0.0
C3033 C 0.26723 0.11958 0.53307 0.0
C3034 C 0.22685 0.11254 0.51186 0.0
C3035 C 0.21802 0.09915 0.52992 0.0
C3036 C 0.23442 0.0958 0.54922 0.0
C3037 C 0.25832 0.10603 0.55062 0.0
C3038 C 0.21051 0.11709 0.49101 0.0
C3039 C 0.22665 0.08161 0.56887 0.0
C3040 C 0.15402 0.09199 0.54225 0.0
C3041 C 0.14302 0.07034 0.53127 0.0
C3042 C 0.17779 0.10159 0.54136 0.0
C3043 C 0.19183 0.08945 0.52943 0.0
C3044 C 0.18086 0.06759 0.51825 0.0
C3045 C 0.15687 0.05849 0.51912 0.0
C3046 C 0.18796 0.12491 0.55342 0.0
C3047 C 0.19464 0.05354 0.50558 0.0
H3048 H 0.25724 0.13283 0.49986 0.0
H3049 H 0.27018 0.10347 0.56588 0.0
H3050 H 0.20018 0.10093 0.48177 0.0
H3051 H 0.19812 0.12667 0.49752 0.0
H3052 H 0.21979 0.12691 0.47791 0.0
H3053 H 0.24145 0.07929 0.58188 0.0
H3054 H 0.21498 0.08972 0.5786 0.0
H3055 H 0.21663 0.06473 0.56118 0.0
H3056 H 0.14393 0.10171 0.55159 0.0
H3057 H 0.14903 0.04185 0.51045 0.0
H3058 H 0.19606 0.136 0.54056 0.0
H3059 H 0.20181 0.12401 0.5682 0.0
H3060 H 0.17475 0.13284 0.56079 0.0
H3061 H 0.2026 0.06299 0.49149 0.0
H3062 H 0.18382 0.03718 0.49727 0.0
H3063 H 0.20899 0.05008 0.5184 0.0
C3064 C 0.27027 0.0196 0.85348 0.0
C3065 C 0.24892 1.00866 0.85954 0.0
C3066 C 0.28676 1.00733 0.8479 0.0
C3067 C 0.28174 0.9836 0.8484 0.0
C3068 C 0.26107 0.97267 0.85641 0.0
C3069 C 0.24485 0.98539 0.86193 0.0
C3070 C 0.30868 0.01961 0.83962 0.0
C3071 C 0.25529 0.94736 0.85741 0.0
C3072 C 0.30352 0.94908 0.80212 0.0
C3073 C 0.32179 0.94204 0.81569 0.0
C3074 C 0.29075 0.96302 0.81254 0.0
C3075 C 0.29626 0.96999 0.83721 0.0
C3076 C 0.31514 0.9636 0.85091 0.0
C3077 C 0.32775 0.9497 0.83995 0.0
C3078 C 0.27081 0.96966 0.79726 0.0
C3079 C 0.32153 0.97083 0.87724 0.0
H3080 H 0.27372 0.03768 0.85201 0.0
H3081 H 0.22848 0.97688 0.86681 0.0
H3082 H 0.32397 0.01359 0.84806 0.0
H3083 H 0.30746 0.01606 0.82003 0.0
H3084 H 0.31162 0.03819 0.84372 0.0
H3085 H 0.24028 0.9419 0.86708 0.0
H3086 H 0.25098 0.93905 0.83898 0.0
H3087 H 0.27041 0.94134 0.86624 0.0
H3088 H 0.29848 0.94288 0.7835 0.0
H3089 H 0.34199 0.94446 0.85048 0.0
H3090 H 0.27297 0.98831 0.7985 0.0
H3091 H 0.25428 0.96264 0.80385 0.0
H3092 H 0.26937 0.96349 0.77819 0.0
H3093 H 0.32382 0.98942 0.88042 0.0
H3094 H 0.3377 0.96579 0.88495 0.0
H3095 H 0.30727 0.96306 0.88691 0.0
C3096 C 0.40065 0.94309 0.01406 0.0
C3097 C 0.38963 0.93758 0.03401 0.0
C3098 C 0.42301 0.95673 0.01667 0.0
C3099 C 0.43446 0.96538 0.03977 0.0
C3100 C 0.42344 0.95985 0.05999 0.0
C3101 C 0.40123 0.94584 0.05688 0.0
C3102 C 0.43435 0.96192 0.99469 0.0
C3103 C 0.43497 0.96902 0.08487 0.0
C3104 C 0.49992 0.98512 0.047 0.0
C3105 C 0.5023 1.00835 0.04466 0.0
C3106 C 0.47796 0.97097 0.04582 0.0
C3107 C 0.45792 0.98036 0.04265 0.0
C3108 C 0.46026 1.00394 0.0412 0.0
C3109 C 0.48243 0.01764 0.04201 0.0
C3110 C 0.47617 0.94587 0.04709 0.0
C3111 C 0.43933 0.01464 0.03824 0.0
H3112 H 0.39184 0.93665 0.99635 0.0
H3113 H 0.39275 0.94174 0.07237 0.0
H3114 H 0.43787 0.9804 0.99302 0.0
H3115 H 0.45127 0.95664 0.99629 0.0
H3116 H 0.42342 0.95328 0.97809 0.0
H3117 H 0.42407 0.96311 0.09872 0.0
H3118 H 0.45181 0.9638 0.08878 0.0
H3119 H 0.43867 0.98777 0.08617 0.0
H3120 H 0.5152 0.9778 0.0489 0.0
H3121 H 0.48418 0.0356 0.04031 0.0
H3122 H 0.46678 0.93672 0.03004 0.0
H3123 H 0.46605 0.9398 0.06143 0.0
H3124 H 0.49344 0.94135 0.05047 0.0
H3125 H 0.42859 1.00837 0.02079 0.0
H3126 H 0.44419 0.03337 0.0391 0.0
H3127 H 0.42838 1.00978 0.05233 0.0
C3128 C 0.89298 0.60676 0.82553 0.0
C3129 C 0.91111 0.62544 0.8331 0.0
C3130 C 0.86995 0.60938 0.82109 0.0
C3131 C 0.86517 0.63126 0.82366 0.0
C3132 C 0.8831 0.64971 0.8337 0.0
C3133 C 0.90589 0.64651 0.83853 0.0
C3134 C 0.85119 0.58912 0.81136 0.0
C3135 C 0.87876 0.67335 0.83679 0.0
C3136 C 0.82455 0.64923 0.77552 0.0
C3137 C 0.80652 0.65314 0.78786 0.0
C3138 C 0.84301 0.6408 0.78668 0.0
C3139 C 0.84345 0.63589 0.81082 0.0
C3140 C 0.8244 0.63787 0.82283 0.0
C3141 C 0.80615 0.64664 0.81123 0.0
C3142 C 0.86299 0.63902 0.77313 0.0
C3143 C 0.82391 0.63204 0.84829 0.0
H3144 H 0.8969 0.59029 0.82183 0.0
H3145 H 0.91982 0.66095 0.84464 0.0
H3146 H 0.83465 0.59006 0.81807 0.0
H3147 H 0.84807 0.58868 0.7916 0.0
H3148 H 0.85623 0.57309 0.81618 0.0
H3149 H 0.89371 0.6852 0.84754 0.0
H3150 H 0.87554 0.67979 0.81899 0.0
H3151 H 0.86316 0.67337 0.84556 0.0
H3152 H 0.82535 0.65452 0.75766 0.0
H3153 H 0.79218 0.64941 0.82082 0.0
H3154 H 0.86684 0.62188 0.77366 0.0
H3155 H 0.8788 0.65126 0.78164 0.0
H3156 H 0.85942 0.64252 0.75415 0.0
H3157 H 0.8297 0.61594 0.85094 0.0
H3158 H 0.80632 0.63055 0.85352 0.0
H3159 H 0.83603 0.64542 0.86046 0.0
C3160 C 0.93123 0.63679 0.01418 0.0
C3161 C 0.91331 0.63366 0.02876 0.0
C3162 C 0.95063 0.62605 0.01721 0.0
C3163 C 0.95327 0.61128 0.03554 0.0
C3164 C 0.9353 0.60788 0.05043 0.0
C3165 C 0.91583 0.61888 0.04692 0.0
C3166 C 0.96851 0.63064 1.00049 0.0
C3167 C 0.93669 0.59257 0.07033 0.0
C3168 C 0.99425 0.56837 0.02785 0.0
C3169 C 1.01566 0.57876 0.04178 0.0
C3170 C 0.97415 0.57829 0.02615 0.0
C3171 C 0.97456 0.59953 0.03866 0.0
C3172 C 0.99605 0.61002 0.05295 0.0
C3173 C 1.01594 0.59974 0.05429 0.0
C3174 C 0.95235 0.56599 0.01046 0.0
C3175 C 0.99819 0.6325 0.06678 0.0
H3176 H 0.9302 0.64791 0.99997 0.0
H3177 H 0.90267 0.61595 0.0586 0.0
H3178 H 0.98578 0.63804 0.0108 0.0
H3179 H 0.9699 0.61456 0.99097 0.0
H3180 H 0.96429 0.64237 0.98705 0.0
H3181 H 0.92181 0.59149 0.08053 0.0
H3182 H 0.93711 0.57533 0.06293 0.0
H3183 H 0.95301 0.59879 0.08277 0.0
H3184 H 0.99314 0.55231 0.01788 0.0
H3185 H 0.03192 0.60839 0.06517 0.0
H3186 H 0.94802 0.57636 0.9957 0.0
H3187 H 0.9376 0.56346 0.02087 0.0
H3188 H 0.95408 0.54928 1.00267 0.0
H3189 H 0.99569 0.64549 0.05424 0.0
H3190 H 1.01533 0.63817 0.07802 0.0
H3191 H 0.98441 0.63142 0.0784 0.0
C3192 C 0.24759 0.14687 0.87234 0.0
C3193 C 0.24595 0.12781 0.85652 0.0
C3194 C 0.25841 0.16839 0.86691 0.0
C3195 C 0.26801 0.17066 0.84536 0.0
C3196 C 0.26717 0.15132 0.82982 0.0
C3197 C 0.256 0.13015 0.83551 0.0
C3198 C 0.25877 0.18873 0.88371 0.0
C3199 C 0.27747 0.15305 0.80679 0.0
C3200 C 0.27273 0.22353 0.81275 0.0
C3201 C 0.29656 0.23275 0.81762 0.0
C3202 C 0.26298 0.20406 0.82295 0.0
C3203 C 0.27753 0.19328 0.83796 0.0
C3204 C 0.30148 0.20295 0.84367 0.0
C3205 C 0.31072 0.22276 0.83356 0.0
C3206 C 0.23726 0.19451 0.81678 0.0
C3207 C 0.3175 0.19177 0.85947 0.0
H3208 H 0.23978 0.14509 0.88858 0.0
H3209 H 0.255 0.1154 0.82337 0.0
H3210 H 0.27662 0.19906 0.88803 0.0
H3211 H 0.2478 0.19958 0.87492 0.0
H3212 H 0.25225 0.18392 0.9006 0.0
H3213 H 0.27684 0.1362 0.7976 0.0
H3214 H 0.26785 0.1627 0.79454 0.0
H3215 H 0.29579 0.16235 0.81032 0.0
H3216 H 0.26167 0.23138 0.80069 0.0
H3217 H 0.32914 0.22993 0.83741 0.0
H3218 H 0.22942 0.19053 0.83318 0.0
H3219 H 0.23438 0.1785 0.80524 0.0
H3220 H 0.22804 0.20635 0.80722 0.0
H3221 H 0.31031 0.18756 0.87616 0.0
H3222 H 0.33511 0.20262 0.86419 0.0
H3223 H 0.31908 0.17568 0.85013 0.0
C3224 C 0.50469 0.02002 0.34467 0.0
C3225 C 0.49182 0.03708 0.34469 0.0
C3226 C 0.49386 0.99718 0.34477 0.0
C3227 C 0.4696 0.99129 0.34488 0.0
C3228 C 0.4569 1.00858 0.34687 0.0
C3229 C 0.46816 0.03125 0.34682 0.0
C3230 C 0.50813 0.9793 0.34312 0.0
C3231 C 0.43106 1.00308 0.34736 0.0
C3232 C 0.43451 0.93653 0.31181 0.0
C3233 C 0.42866 0.92339 0.33057 0.0
C3234 C 0.44846 0.95834 0.31627 0.0
C3235 C 0.457 0.96726 0.3401 0.0
C3236 C 0.45213 0.95372 0.3591 0.0
C3237 C 0.43792 0.932 0.35412 0.0
C3238 C 0.45341 0.97213 0.29544 0.0
C3239 C 0.46114 0.96247 0.38472 0.0
H3240 H 0.52305 0.02435 0.34334 0.0
H3241 H 0.4581 0.04431 0.34717 0.0
H3242 H 0.5036 0.9663 0.3557 0.0
H3243 H 0.50431 0.97065 0.32484 0.0
H3244 H 0.52702 0.9866 0.34698 0.0
H3245 H 0.42417 0.01839 0.35145 0.0
H3246 H 0.42209 0.99493 0.32971 0.0
H3247 H 0.42673 0.99095 0.36084 0.0
H3248 H 0.42787 0.92988 0.29355 0.0
H3249 H 0.43336 0.92212 0.3688 0.0
H3250 H 0.47237 0.97824 0.29612 0.0
H3251 H 0.44554 0.98722 0.29654 0.0
H3252 H 0.44644 0.96236 0.27797 0.0
H3253 H 0.47995 0.97002 0.3868 0.0
H3254 H 0.45827 0.94896 0.39713 0.0
H3255 H 0.45222 0.97599 0.39006 0.0
C3256 C 0.612 0.42935 0.6275 0.0
C3257 C 0.60771 0.40702 0.6174 0.0
C3258 C 0.60724 0.44678 0.61383 0.0
C3259 C 0.59808 0.44177 0.58938 0.0
C3260 C 0.59355 0.41926 0.57903 0.0
C3261 C 0.59837 0.40207 0.59323 0.0
C3262 C 0.61227 0.47062 0.62553 0.0
C3263 C 0.58404 0.41345 0.55295 0.0
C3264 C 0.57177 0.48913 0.56539 0.0
C3265 C 0.59115 0.50265 0.55802 0.0
C3266 C 0.5731 0.4681 0.57395 0.0
C3267 C 0.59421 0.46053 0.57479 0.0
C3268 C 0.61302 0.47316 0.56512 0.0
C3269 C 0.61131 0.49419 0.55701 0.0
C3270 C 0.55268 0.45506 0.5841 0.0
C3271 C 0.63571 0.46551 0.5653 0.0
H3272 H 0.61912 0.43329 0.64619 0.0
H3273 H 0.59504 0.38482 0.58532 0.0
H3274 H 0.62566 0.48153 0.61697 0.0
H3275 H 0.59642 0.47775 0.62308 0.0
H3276 H 0.61853 0.47148 0.64494 0.0
H3277 H 0.58055 0.39498 0.54789 0.0
H3278 H 0.56773 0.41956 0.54866 0.0
H3279 H 0.59658 0.4221 0.54183 0.0
H3280 H 0.55614 0.49564 0.5661 0.0
H3281 H 0.62622 0.50451 0.55092 0.0
H3282 H 0.55635 0.45708 0.60388 0.0
H3283 H 0.54974 0.43676 0.57851 0.0
H3284 H 0.53653 0.46112 0.5785 0.0
H3285 H 0.64556 0.46889 0.58358 0.0
H3286 H 0.64657 0.4746 0.55289 0.0
H3287 H 0.63274 0.4471 0.56033 0.0
C3288 C 0.43855 0.72763 0.38463 0.0
C3289 C 0.45708 0.71983 0.37649 0.0
C3290 C 0.42031 0.73181 0.36849 0.0
C3291 C 0.42068 0.72807 0.34368 0.0
C3292 C 0.43846 0.71871 0.3354 0.0
C3293 C 0.45648 0.71465 0.35194 0.0
C3294 C 0.4014 0.74152 0.37798 0.0
C3295 C 0.43925 0.71428 0.30907 0.0
C3296 C 0.3648 0.73029 0.3046 0.0
C3297 C 0.36886 0.75306 0.29961 0.0
C3298 C 0.38194 0.72153 0.31799 0.0
C3299 C 0.40358 0.73591 0.32658 0.0
C3300 C 0.40827 0.75851 0.32038 0.0
C3301 C 0.39084 0.76682 0.30691 0.0
C3302 C 0.37642 0.69728 0.32408 0.0
C3303 C 0.43126 0.77431 0.32912 0.0
H3304 H 0.4388 0.73147 0.40358 0.0
H3305 H 0.47067 0.70846 0.34551 0.0
H3306 H 0.40264 0.75916 0.3731 0.0
H3307 H 0.38408 0.73172 0.36981 0.0
H3308 H 0.40256 0.74158 0.3977 0.0
H3309 H 0.45242 0.70426 0.30566 0.0
H3310 H 0.42207 0.70516 0.29978 0.0
H3311 H 0.44357 0.73062 0.30107 0.0
H3312 H 0.3479 0.71947 0.29887 0.0
H3313 H 0.39414 0.7844 0.30307 0.0
H3314 H 0.37459 0.69686 0.34328 0.0
H3315 H 0.39073 0.6887 0.32096 0.0
H3316 H 0.36008 0.68758 0.31348 0.0
H3317 H 0.43334 0.77748 0.34883 0.0
H3318 H 0.43277 0.79081 0.32121 0.0
H3319 H 0.44575 0.76651 0.32477 0.0
C3320 C 0.13388 0.80812 0.12205 0.0
C3321 C 0.113 0.81508 0.12373 0.0
C3322 C 0.13395 0.78614 0.11303 0.0
C3323 C 0.11261 0.77075 0.10574 0.0
C3324 C 0.09146 0.77793 0.10649 0.0
C3325 C 0.09191 0.8001 0.1154 0.0
C3326 C 0.15685 0.77913 0.11228 0.0
C3327 C 0.06839 0.76191 0.09898 0.0
C3328 C 0.11403 0.71611 0.07033 0.0
C3329 C 0.1152 0.7015 0.08852 0.0
C3330 C 0.1128 0.73872 0.07555 0.0
C3331 C 0.1125 0.74666 0.09945 0.0
C3332 C 0.11304 0.73176 0.11775 0.0
C3333 C 0.11446 0.70937 0.11206 0.0
C3334 C 0.11241 0.75422 0.05566 0.0
C3335 C 0.1125 0.73956 0.14343 0.0
H3336 H 0.15024 0.81971 0.12825 0.0
H3337 H 0.07571 0.80541 0.11663 0.0
H3338 H 0.15886 0.7665 0.12539 0.0
H3339 H 0.15737 0.77099 0.09438 0.0
H3340 H 0.17182 0.79366 0.11649 0.0
H3341 H 0.05363 0.77066 0.09858 0.0
H3342 H 0.06784 0.75332 0.08105 0.0
H3343 H 0.06604 0.7486 0.11165 0.0
H3344 H 0.1147 0.71001 0.05213 0.0
H3345 H 0.11497 0.69794 0.12606 0.0
H3346 H 0.12822 0.76788 0.05878 0.0
H3347 H 0.09729 0.76241 0.05539 0.0
H3348 H 0.11159 0.74514 0.03789 0.0
H3349 H 0.12808 0.75291 0.15003 0.0
H3350 H 0.11202 0.72557 0.15531 0.0
H3351 H 0.0971 0.74705 0.1448 0.0
C3352 C 0.0812 0.22691 0.85189 0.0
C3353 C 0.07965 0.2094 0.86715 0.0
C3354 C 0.09973 0.23188 0.83881 0.0
C3355 C 0.11713 0.21897 0.84094 0.0
C3356 C 0.11513 0.20054 0.85535 0.0
C3357 C 0.09637 0.19597 0.86835 0.0
C3358 C 0.10123 0.25166 0.8236 0.0
C3359 C 0.13329 0.1863 0.85785 0.0
C3360 C 0.15809 0.22795 0.79465 0.0
C3361 C 0.17634 0.24457 0.80689 0.0
C3362 C 0.13908 0.21861 0.80584 0.0
C3363 C 0.13832 0.22623 0.82974 0.0
C3364 C 0.15705 0.24249 0.84238 0.0
C3365 C 0.17583 0.25145 0.8308 0.0
C3366 C 0.11949 0.20116 0.7919 0.0
C3367 C 0.15681 0.25115 0.86785 0.0
H3368 H 0.06824 0.23724 0.85065 0.0
H3369 H 0.09521 0.18233 0.88 0.0
H3370 H 0.11644 0.26509 0.83114 0.0
H3371 H 0.10375 0.2464 0.80523 0.0
H3372 H 0.08546 0.25898 0.82257 0.0
H3373 H 0.1279 0.17113 0.86752 0.0
H3374 H 0.13702 0.18078 0.84003 0.0
H3375 H 0.14969 0.19653 0.86777 0.0
H3376 H 0.15862 0.22236 0.77626 0.0
H3377 H 0.18979 0.26445 0.84026 0.0
H3378 H 0.10375 0.20839 0.78871 0.0
H3379 H 0.11516 0.18628 0.80225 0.0
H3380 H 0.12378 0.19541 0.77437 0.0
H3381 H 0.14261 0.26049 0.86853 0.0
H3382 H 0.17342 0.26263 0.87565 0.0
H3383 H 0.15341 0.23684 0.87915 0.0
C3384 C 0.56243 0.71114 0.95389 0.0
C3385 C 0.58334 0.72 0.94505 0.0
C3386 C 0.55866 0.68992 0.96479 0.0
C3387 C 0.5761 0.67658 0.96762 0.0
C3388 C 0.59727 0.68574 0.95913 0.0
C3389 C 0.60045 0.70664 0.94811 0.0
C3390 C 0.5356 0.68152 0.97299 0.0
C3391 C 0.61693 0.6733 0.9616 0.0
C3392 C 0.57679 0.63076 0.01467 0.0
C3393 C 0.56935 0.60961 1.001 0.0
C3394 C 0.57859 0.6521 1.00437 0.0
C3395 C 0.57264 0.65338 0.97931 0.0
C3396 C 0.56473 0.63209 0.96544 0.0
C3397 C 0.56336 0.61094 0.97618 0.0
C3398 C 0.58747 0.67353 0.02051 0.0
C3399 C 0.55784 0.63159 0.93888 0.0
H3400 H 0.54868 0.7205 0.95181 0.0
H3401 H 0.61682 0.71259 0.94172 0.0
H3402 H 0.52727 0.66481 0.96345 0.0
H3403 H 0.53816 0.6791 0.99232 0.0
H3404 H 0.52367 0.69334 0.9698 0.0
H3405 H 0.63261 0.68262 0.95496 0.0
H3406 H 0.62163 0.67047 0.9806 0.0
H3407 H 0.61138 0.65646 0.95149 0.0
H3408 H 0.58175 0.63074 0.03372 0.0
H3409 H 0.55762 0.59528 0.96488 0.0
H3410 H 0.57484 0.68475 0.01851 0.0
H3411 H 0.6039 0.68281 0.0153 0.0
H3412 H 0.59068 0.67021 0.03959 0.0
H3413 H 0.54489 0.64226 0.93498 0.0
H3414 H 0.55043 0.61419 0.93056 0.0
H3415 H 0.5732 0.63876 0.93042 0.0
C3416 C 0.13652 0.80577 0.71295 0.0
C3417 C 0.13321 0.8021 0.68781 0.0
C3418 C 0.15858 0.80655 0.72707 0.0
C3419 C 0.17836 0.80371 0.71618 0.0
C3420 C 0.17506 0.80029 0.69086 0.0
C3421 C 0.15301 0.7995 0.67731 0.0
C3422 C 0.16065 0.81018 0.75383 0.0
C3423 C 0.19499 0.79723 0.67785 0.0
C3424 C 0.24235 0.82351 0.74817 0.0
C3425 C 0.24871 0.80327 0.75496 0.0
C3426 C 0.21973 0.82401 0.73633 0.0
C3427 C 0.20229 0.80382 0.73083 0.0
C3428 C 0.20851 0.78343 0.73801 0.0
C3429 C 0.23125 0.78339 0.74973 0.0
C3430 C 0.21462 0.84629 0.72922 0.0
C3431 C 0.19113 0.76132 0.7329 0.0
H3432 H 0.12181 0.80778 0.72171 0.0
H3433 H 0.15133 0.79671 0.65807 0.0
H3434 H 0.1658 0.79544 0.76207 0.0
H3435 H 0.17446 0.82522 0.7605 0.0
H3436 H 0.14417 0.81259 0.75982 0.0
H3437 H 0.19006 0.79524 0.65816 0.0
H3438 H 0.20962 0.81199 0.68252 0.0
H3439 H 0.20138 0.78208 0.68349 0.0
H3440 H 0.25525 0.83912 0.75181 0.0
H3441 H 0.23539 0.7675 0.75464 0.0
H3442 H 0.19888 0.84933 0.73636 0.0
H3443 H 0.21102 0.8458 0.70949 0.0
H3444 H 0.22925 0.86069 0.73576 0.0
H3445 H 0.17493 0.76272 0.7401 0.0
H3446 H 0.19783 0.7471 0.74074 0.0
H3447 H 0.18656 0.75726 0.71333 0.0
C3448 C 0.09676 0.3802 0.45312 0.0
C3449 C 0.07599 0.36376 0.44676 0.0
C3450 C 0.09722 0.40227 0.46444 0.0
C3451 C 0.07653 0.40873 0.47029 0.0
C3452 C 0.05574 0.39187 0.46453 0.0
C3453 C 0.0557 0.3703 0.45274 0.0
C3454 C 0.11994 0.41914 0.46929 0.0
C3455 C 0.0331 0.39674 0.47044 0.0
C3456 C 0.07884 0.46037 0.51716 0.0
C3457 C 0.07325 0.47767 0.50315 0.0
C3458 C 0.08009 0.43842 0.50696 0.0
C3459 C 0.07627 0.43289 0.4817 0.0
C3460 C 0.07113 0.45048 0.46748 0.0
C3461 C 0.06942 0.47207 0.47815 0.0
C3462 C 0.08502 0.42082 0.52348 0.0
C3463 C 0.0673 0.44652 0.44064 0.0
H3464 H 0.11262 0.37626 0.44821 0.0
H3465 H 0.03931 0.3584 0.44781 0.0
H3466 H 0.11882 0.43387 0.45876 0.0
H3467 H 0.12359 0.42554 0.4884 0.0
H3468 H 0.13465 0.41181 0.46463 0.0
H3469 H 1.01877 0.38158 0.46689 0.0
H3470 H 0.03498 0.40302 0.48951 0.0
H3471 H 0.02824 0.41021 0.45965 0.0
H3472 H 0.08175 0.46378 0.53639 0.0
H3473 H 0.06516 0.48476 0.46665 0.0
H3474 H 0.10066 0.41479 0.51947 0.0
H3475 H 0.07032 0.40599 0.52055 0.0
H3476 H 0.08776 0.42734 0.54256 0.0
H3477 H 0.08207 0.4403 0.43445 0.0
H3478 H 0.06534 0.46207 0.43183 0.0
H3479 H 0.05147 0.43328 0.43478 0.0
C3480 C 0.47029 0.30872 0.18159 0.0
C3481 C 0.49012 0.29963 0.18872 0.0
C3482 C 0.45107 0.30729 0.1947 0.0
C3483 C 0.45051 0.29633 0.21624 0.0
C3484 C 0.47045 0.28711 0.2238 0.0
C3485 C 0.48969 0.28885 0.21024 0.0
C3486 C 0.43102 0.31762 0.18519 0.0
C3487 C 0.4714 0.27513 0.24633 0.0
C3488 C 0.4069 0.31075 0.25922 0.0
C3489 C 0.38704 0.29302 0.25363 0.0
C3490 C 0.42742 0.31171 0.24795 0.0
C3491 C 0.42909 0.29454 0.23023 0.0
C3492 C 0.40925 0.27641 0.22485 0.0
C3493 C 0.38893 0.27592 0.23629 0.0
C3494 C 0.44738 0.33159 0.25479 0.0
C3495 C 0.40926 0.25744 0.20648 0.0
H3496 H 0.4696 0.3172 0.16529 0.0
H3497 H 0.50433 0.28153 0.2165 0.0
H3498 H 0.41487 0.30439 0.18155 0.0
H3499 H 0.42826 0.33038 0.19875 0.0
H3500 H 0.43382 0.32588 0.16851 0.0
H3501 H 0.48785 0.26917 0.25041 0.0
H3502 H 0.46954 0.2866 0.2616 0.0
H3503 H 0.45668 0.26037 0.24461 0.0
H3504 H 0.40633 0.32432 0.27227 0.0
H3505 H 0.37422 0.26198 0.23131 0.0
H3506 H 0.45006 0.34149 0.23914 0.0
H3507 H 0.46359 0.32562 0.2602 0.0
H3508 H 0.44441 0.34295 0.26964 0.0
H3509 H 0.41024 0.26412 0.18874 0.0
H3510 H 0.3935 0.24379 0.20515 0.0
H3511 H 0.42477 0.25008 0.21094 0.0
C3512 C 0.71292 0.53596 0.43921 0.0
C3513 C 0.71247 0.54803 0.41885 0.0
C3514 C 0.69663 0.53671 0.45495 0.0
C3515 C 0.67962 0.54981 0.45007 0.0
C3516 C 0.67856 0.56129 0.42908 0.0
C3517 C 0.695 0.56026 0.41373 0.0
C3518 C 0.69814 0.52421 0.47719 0.0
C3519 C 0.66065 0.57544 0.4233 0.0
C3520 C 0.6269 0.54336 0.48221 0.0
C3521 C 0.63376 0.56157 0.49977 0.0
C3522 C 0.64189 0.53892 0.46621 0.0
C3523 C 0.66409 0.55314 0.46776 0.0
C3524 C 0.67112 0.57147 0.48549 0.0
C3525 C 0.65589 0.57541 0.50134 0.0
C3526 C 0.63396 0.51914 0.44755 0.0
C3527 C 0.69461 0.58713 0.48752 0.0
H3528 H 0.72632 0.5264 0.44319 0.0
H3529 H 0.69439 0.56946 0.3979 0.0
H3530 H 0.70309 0.53651 0.49317 0.0
H3531 H 0.68099 0.51359 0.47879 0.0
H3532 H 0.71108 0.51327 0.47734 0.0
H3533 H 0.66122 0.58204 0.40546 0.0
H3534 H 0.64299 0.56536 0.42381 0.0
H3535 H 0.6636 0.58998 0.43694 0.0
H3536 H 0.60991 0.53245 0.4811 0.0
H3537 H 0.66133 0.58948 0.5149 0.0
H3538 H 0.64656 0.50786 0.44881 0.0
H3539 H 0.63325 0.52529 0.42947 0.0
H3540 H 0.61658 0.50911 0.44944 0.0
H3541 H 0.70851 0.57732 0.48978 0.0
H3542 H 0.69763 0.60022 0.50277 0.0
H3543 H 0.69618 0.59573 0.47086 0.0
C3544 C 0.31589 0.85369 0.11447 0.0
C3545 C 0.3367 0.85781 0.10466 0.0
C3546 C 0.3145 0.84366 0.13615 0.0
C3547 C 0.33437 0.83753 0.14833 0.0
C3548 C 0.35527 0.84118 0.13827 0.0
C3549 C 0.35618 0.85126 0.1166 0.0
C3550 C 0.29188 0.84005 0.14628 0.0
C3551 C 0.37683 0.83488 0.15066 0.0
C3552 C 0.33707 0.83319 0.21531 0.0
C3553 C 0.33035 0.80978 0.21666 0.0
C3554 C 0.33868 0.84239 0.19324 0.0
C3555 C 0.33347 0.82788 0.17192 0.0
C3556 C 0.32712 0.80423 0.17315 0.0
C3557 C 0.32564 0.79547 0.19546 0.0
C3558 C 0.34556 0.86771 0.19273 0.0
C3559 C 0.32146 0.78819 0.15083 0.0
H3560 H 0.30074 0.85869 0.10543 0.0
H3561 H 0.37234 0.85433 0.10921 0.0
H3562 H 0.28635 0.82204 0.14958 0.0
H3563 H 0.29422 0.85014 0.1637 0.0
H3564 H 0.27779 0.84495 0.13421 0.0
H3565 H 0.39147 0.83806 0.14009 0.0
H3566 H 0.3823 0.84475 0.16826 0.0
H3567 H 0.37317 0.81675 0.15404 0.0
H3568 H 0.34071 0.84445 0.2315 0.0
H3569 H 0.32039 0.77737 0.19621 0.0
H3570 H 0.33124 0.87408 0.18269 0.0
H3571 H 0.36088 0.87211 0.18331 0.0
H3572 H 0.34974 0.87662 0.21092 0.0
H3573 H 0.30631 0.79177 0.13928 0.0
H3574 H 0.31744 0.77022 0.15484 0.0
H3575 H 0.33624 0.79072 0.14045 0.0
C3576 C 1.01358 0.59441 0.88381 0.0
C3577 C 0.02544 0.60137 0.86481 0.0
C3578 C 0.02514 0.58786 0.90446 0.0
C3579 C 0.04914 0.58809 0.90607 0.0
C3580 C 0.06125 0.59501 0.88693 0.0
C3581 C 0.04925 0.6017 0.86651 0.0
C3582 C 1.01166 0.58081 0.92463 0.0
C3583 C 0.0868 0.59529 0.88804 0.0
C3584 C 0.07743 0.59128 0.96995 0.0
C3585 C 0.07575 0.56831 0.97349 0.0
C3586 C 0.07028 0.59813 0.94755 0.0
C3587 C 0.06138 0.58161 0.92821 0.0
C3588 C 0.0614 0.55858 0.93119 0.0
C3589 C 0.06856 0.55217 0.95386 0.0
C3590 C 0.07056 0.62286 0.94509 0.0
C3591 C 0.05228 0.54053 0.91087 0.0
H3592 H 0.9952 0.59417 0.88264 0.0
H3593 H 0.05846 0.60692 0.85179 0.0
H3594 H 1.01284 0.56332 0.92854 0.0
H3595 H 1.01922 0.592 0.94108 0.0
H3596 H 0.99306 0.58152 0.92047 0.0
H3597 H 0.09357 0.60071 0.87145 0.0
H3598 H 0.09672 0.6069 0.90334 0.0
H3599 H 0.09007 0.5782 0.89103 0.0
H3600 H 0.08324 0.60391 0.98496 0.0
H3601 H 0.0674 0.53441 0.9564 0.0
H3602 H 0.05253 0.62558 0.94317 0.0
H3603 H 0.07795 0.62834 0.92886 0.0
H3604 H 0.08072 0.63377 0.96083 0.0
H3605 H 0.03313 0.53807 0.90711 0.0
H3606 H 0.05671 0.52409 0.91505 0.0
H3607 H 0.05932 0.54573 0.89437 0.0
C3608 C 0.34675 0.23176 0.60239 0.0
C3609 C 0.34068 0.20839 0.59499 0.0
C3610 C 0.34469 0.24064 0.62564 0.0
C3611 C 0.33593 0.22615 0.64272 0.0
C3612 C 0.32986 0.20249 0.63551 0.0
C3613 C 0.33241 0.19397 0.61209 0.0
C3614 C 0.35185 0.26582 0.63187 0.0
C3615 C 0.32021 0.18607 0.65251 0.0
C3616 C 0.34826 0.249 0.71011 0.0
C3617 C 0.32802 0.2567 0.71406 0.0
C3618 C 0.35093 0.23895 0.68747 0.0
C3619 C 0.33289 0.23593 0.66768 0.0
C3620 C 0.31231 0.2434 0.67167 0.0
C3621 C 0.31022 0.25366 0.69439 0.0
C3622 C 0.37341 0.23188 0.68466 0.0
C3623 C 0.29233 0.24065 0.65174 0.0
H3624 H 0.35323 0.2434 0.58981 0.0
H3625 H 0.32741 0.17597 0.60703 0.0
H3626 H 0.33668 0.27264 0.63596 0.0
H3627 H 0.36499 0.26951 0.64811 0.0
H3628 H 0.35919 0.27489 0.61719 0.0
H3629 H 0.31646 0.16828 0.64468 0.0
H3630 H 0.33267 0.18769 0.66915 0.0
H3631 H 0.30398 0.19013 0.65755 0.0
H3632 H 0.36235 0.25112 0.72473 0.0
H3633 H 0.2944 0.25929 0.69672 0.0
H3634 H 0.3818 0.24136 0.67082 0.0
H3635 H 0.36999 0.21366 0.6785 0.0
H3636 H 0.38571 0.2349 0.70155 0.0
H3637 H 0.29778 0.2508 0.637 0.0
H3638 H 0.27703 0.24605 0.6577 0.0
H3639 H 0.2871 0.22272 0.64439 0.0
C3640 C 0.70757 0.55989 0.28574 0.0
C3641 C 0.70971 0.5778 0.30321 0.0
C3642 C 0.69402 0.55938 0.26347 0.0
C3643 C 0.68249 0.57726 0.25857 0.0
C3644 C 0.68482 0.59551 0.27603 0.0
C3645 C 0.69834 0.59552 0.29816 0.0
C3646 C 0.69184 0.53961 0.24527 0.0
C3647 C 0.6729 0.61496 0.27139 0.0
C3648 C 0.66279 0.58671 0.19428 0.0
C3649 C 0.63901 0.5772 0.1918 0.0
C3650 C 0.67722 0.58667 0.21586 0.0
C3651 C 0.66764 0.57677 0.23534 0.0
C3652 C 0.6437 0.56691 0.23284 0.0
C3653 C 0.62966 0.5673 0.2111 0.0
C3654 C 0.70264 0.59752 0.21795 0.0
C3655 C 0.63289 0.55607 0.25318 0.0
H3656 H 0.7163 0.54614 0.28953 0.0
H3657 H 0.70001 0.60949 0.31152 0.0
H3658 H 0.67339 0.53083 0.24079 0.0
H3659 H 0.6977 0.54567 0.22853 0.0
H3660 H 0.70215 0.5272 0.25175 0.0
H3661 H 0.67695 0.62812 0.28665 0.0
H3662 H 0.67822 0.6229 0.25526 0.0
H3663 H 0.65385 0.60866 0.26787 0.0
H3664 H 0.67002 0.59458 0.17945 0.0
H3665 H 0.61134 0.55966 0.20912 0.0
H3666 H 0.71337 0.58514 0.22335 0.0
H3667 H 0.70702 0.61177 0.23204 0.0
H3668 H 0.70748 0.604 0.20095 0.0
H3669 H 0.64185 0.54257 0.25925 0.0
H3670 H 0.61412 0.54863 0.24812 0.0
H3671 H 0.63501 0.56882 0.26858 0.0
C3672 C 0.33626 0.84809 0.96826 0.0
C3673 C 0.32136 0.86025 0.97796 0.0
C3674 C 0.33271 0.84062 0.9439 0.0
C3675 C 0.31372 0.84533 0.92871 0.0
C3676 C 0.29826 0.85712 0.93845 0.0
C3677 C 0.30227 0.86447 0.96293 0.0
C3678 C 0.34966 0.82815 0.93429 0.0
C3679 C 0.27777 0.86241 0.92291 0.0
C3680 C 0.32145 0.8461 0.86316 0.0
C3681 C 0.30973 0.82429 0.85383 0.0
C3682 C 0.32209 0.85346 0.88723 0.0
C3683 C 0.31078 0.83866 0.90252 0.0
C3684 C 0.2981 0.81696 0.89303 0.0
C3685 C 0.29771 0.81004 0.86882 0.0
C3686 C 0.3357 0.87679 0.8965 0.0
C3687 C 0.28568 0.8007 0.90867 0.0
H3688 H 0.35105 0.8447 0.97965 0.0
H3689 H 0.29064 0.87384 0.97021 0.0
H3690 H 0.34033 0.81162 0.92503 0.0
H3691 H 0.35848 0.83802 0.92096 0.0
H3692 H 0.36307 0.82513 0.94856 0.0
H3693 H 0.26663 0.87055 0.9334 0.0
H3694 H 0.28395 0.87389 0.90946 0.0
H3695 H 0.26709 0.84671 0.91301 0.0
H3696 H 0.3307 0.85735 0.85181 0.0
H3697 H 0.28857 0.79316 0.86187 0.0
H3698 H 0.35093 0.87537 0.90939 0.0
H3699 H 0.32492 0.88611 0.90617 0.0
H3700 H 0.34194 0.88688 0.88197 0.0
H3701 H 0.29856 0.79551 0.92198 0.0
H3702 H 0.27493 0.78529 0.89822 0.0
H3703 H 0.27438 0.80902 0.91871 0.0
C3704 C 0.03134 0.63207 0.77102 0.0
C3705 C 1.00747 0.62974 0.77104 0.0
C3706 C 0.03994 0.61834 0.75516 0.0
C3707 C 0.0242 0.60226 0.73872 0.0
C3708 C 1.00005 0.59948 0.73918 0.0
C3709 C 0.99196 0.61346 0.75526 0.0
C3710 C 0.06581 0.62176 0.75527 0.0
C3711 C 0.98272 0.58246 0.72201 0.0
C3712 C 0.04363 0.5891 0.67945 0.0
C3713 C 0.0493 0.56795 0.68223 0.0
C3714 C 0.03544 0.60036 0.69771 0.0
C3715 C 0.03289 0.59025 0.71938 0.0
C3716 C 0.03879 0.56898 0.72246 0.0
C3717 C 0.04702 0.55807 0.70381 0.0
C3718 C 0.02945 0.62308 0.69376 0.0
C3719 C 0.03617 0.5577 0.74531 0.0
H3720 H 0.04325 0.64491 0.78316 0.0
H3721 H 0.97348 0.61222 0.75494 0.0
H3722 H 0.07131 0.60533 0.75588 0.0
H3723 H 0.07046 0.62897 0.73856 0.0
H3724 H 0.0757 0.63333 0.77066 0.0
H3725 H 0.96476 0.58094 0.7262 0.0
H3726 H 0.98319 0.58758 0.70356 0.0
H3727 H 0.98726 0.56559 0.72238 0.0
H3728 H 0.04575 0.59695 0.66293 0.0
H3729 H 0.05126 0.54165 0.70592 0.0
H3730 H 0.04008 0.6361 0.70745 0.0
H3731 H 1.01099 0.62238 0.69569 0.0
H3732 H 0.03239 0.62855 0.67582 0.0
H3733 H 0.04603 0.56913 0.76078 0.0
H3734 H 0.04229 0.54155 0.7452 0.0
H3735 H 1.01769 0.55422 0.74803 0.0
C3736 C 0.30825 0.20129 0.44099 0.0
C3737 C 0.32815 0.19909 0.45656 0.0
C3738 C 0.30939 0.21335 0.42015 0.0
C3739 C 0.33107 0.22381 0.41361 0.0
C3740 C 0.35134 0.22187 0.42926 0.0
C3741 C 0.34969 0.20982 0.45032 0.0
C3742 C 0.28706 0.21476 0.40492 0.0
C3743 C 0.37499 0.23232 0.42352 0.0
C3744 C 0.33129 0.23651 0.34645 0.0
C3745 C 0.33068 0.25972 0.34649 0.0
C3746 C 0.33215 0.225 0.36784 0.0
C3747 C 0.33217 0.2365 0.39054 0.0
C3748 C 0.33175 0.25997 0.3907 0.0
C3749 C 0.33113 0.2711 0.36909 0.0
C3750 C 0.33272 0.20022 0.36602 0.0
C3751 C 0.33143 0.27338 0.41383 0.0
H3752 H 0.29134 0.1934 0.44507 0.0
H3753 H 0.36537 0.20842 0.46163 0.0
H3754 H 0.2862 0.23271 0.40306 0.0
H3755 H 0.28648 0.20669 0.38673 0.0
H3756 H 0.27152 0.20639 0.41247 0.0
H3757 H 0.38913 0.22972 0.43718 0.0
H3758 H 0.37741 0.22488 0.40591 0.0
H3759 H 0.37644 0.25072 0.42216 0.0
H3760 H 0.33095 0.22712 0.32952 0.0
H3761 H 0.33055 0.28888 0.36994 0.0
H3762 H 0.31666 0.19033 0.3714 0.0
H3763 H 0.34754 0.19712 0.37845 0.0
H3764 H 0.33423 0.19384 0.34765 0.0
H3765 H 0.31541 0.26644 0.42137 0.0
H3766 H 0.3321 0.29156 0.4115 0.0
H3767 H 0.34635 0.27186 0.42708 0.0
C3768 C 0.39384 0.68172 0.51928 0.0
C3769 C 0.37156 0.67053 0.52254 0.0
C3770 C 0.41139 0.66971 0.51676 0.0
C3771 C 0.40652 0.64594 0.51746 0.0
C3772 C 0.38412 0.63455 0.52084 0.0
C3773 C 0.36691 0.64698 0.52337 0.0
C3774 C 0.43514 0.68244 0.51328 0.0
C3775 C 0.37829 0.60921 0.52167 0.0
C3776 C 0.44558 0.61266 0.48949 0.0
C3777 C 0.46021 0.60889 0.5096 0.0
C3778 C 0.42793 0.62461 0.4918 0.0
C3779 C 0.42492 0.633 0.51475 0.0
C3780 C 0.43955 0.62913 0.53512 0.0
C3781 C 0.45697 0.61707 0.53231 0.0
C3782 C 0.41263 0.62839 0.46966 0.0
C3783 C 0.43685 0.63779 0.5599 0.0
H3784 H 0.3976 0.6999 0.51863 0.0
H3785 H 0.34974 0.63818 0.52585 0.0
H3786 H 0.44835 0.67939 0.5277 0.0
H3787 H 0.43973 0.6762 0.49612 0.0
H3788 H 0.43613 0.70093 0.51325 0.0
H3789 H 0.36003 0.60292 0.52445 0.0
H3790 H 0.38118 0.60079 0.50475 0.0
H3791 H 0.3899 0.60409 0.53631 0.0
H3792 H 0.44817 0.60658 0.4719 0.0
H3793 H 0.46798 0.61389 0.54796 0.0
H3794 H 0.4144 0.64677 0.46791 0.0
H3795 H 0.39419 0.62141 0.47113 0.0
H3796 H 0.41698 0.62041 0.45318 0.0
H3797 H 0.43906 0.65645 0.56102 0.0
H3798 H 0.44961 0.63326 0.57388 0.0
H3799 H 0.41913 0.63076 0.56378 0.0
C3800 C 0.89608 0.94683 0.53791 0.0
C3801 C 0.87622 0.9565 0.5367 0.0
C3802 C 0.91867 0.95959 0.53673 0.0
C3803 C 0.92241 0.98317 0.53415 0.0
C3804 C 0.90253 0.99322 0.53295 0.0
C3805 C 0.87992 0.97995 0.53426 0.0
C3806 C 0.93872 0.94764 0.53831 0.0
C3807 C 0.90514 0.01813 0.53016 0.0
C3808 C 0.98557 0.01752 0.55366 0.0
C3809 C 0.99517 0.01941 0.53212 0.0
C3810 C 0.96213 1.00658 0.55445 0.0
C3811 C 0.94712 0.99694 0.5332 0.0
C3812 C 0.95654 0.99915 0.51132 0.0
C3813 C 0.98013 1.01016 0.51104 0.0
C3814 C 0.95359 1.00487 0.57835 0.0
C3815 C 0.94176 0.9894 0.48804 0.0
H3816 H 0.89407 0.92888 0.53981 0.0
H3817 H 0.86513 0.98796 0.53317 0.0
H3818 H 0.94729 0.94975 0.52208 0.0
H3819 H 0.95186 0.95526 0.55381 0.0
H3820 H 0.93321 0.92928 0.54023 0.0
H3821 H 0.88833 0.02362 0.52928 0.0
H3822 H 0.91729 0.02795 0.54537 0.0
H3823 H 0.91272 0.0223 0.51366 0.0
H3824 H 0.99656 0.02435 0.57025 0.0
H3825 H 0.98688 1.01123 0.49418 0.0
H3826 H 0.94923 0.98687 0.58212 0.0
H3827 H 0.93751 1.01156 0.57806 0.0
H3828 H 0.96667 0.01425 0.59313 0.0
H3829 H 0.93702 0.97073 0.4879 0.0
H3830 H 0.95077 0.99372 0.4724 0.0
H3831 H 0.92539 0.99568 0.48614 0.0
C3832 C 0.86458 0.10172 0.18072 0.0
C3833 C 0.85885 0.07837 0.18256 0.0
C3834 C 0.84903 0.11547 0.18548 0.0
C3835 C 0.82732 0.1055 0.19203 0.0
C3836 C 0.82034 0.08171 0.19072 0.0
C3837 C 0.83628 0.06839 0.18614 0.0
C3838 C 0.85693 0.1408 0.18622 0.0
C3839 C 0.79701 0.07043 0.19672 0.0
C3840 C 0.8113 0.13868 0.24334 0.0
C3841 C 0.79516 0.14994 0.23183 0.0
C3842 C 0.82116 0.12362 0.23056 0.0
C3843 C 0.81482 0.11967 0.20551 0.0
C3844 C 0.79777 0.13013 0.19381 0.0
C3845 C 0.78819 0.14527 0.20713 0.0
C3846 C 0.83928 0.11279 0.24381 0.0
C3847 C 0.7904 0.12624 0.16719 0.0
H3848 H 0.88187 0.10952 0.17756 0.0
H3849 H 0.83154 0.05025 0.18696 0.0
H3850 H 0.84279 0.14856 0.17796 0.0
H3851 H 0.86163 0.14792 0.20509 0.0
H3852 H 0.87228 0.14567 0.17689 0.0
H3853 H 0.79233 0.05228 0.19008 0.0
H3854 H 0.79747 0.07165 0.21639 0.0
H3855 H 0.78325 0.07898 0.18904 0.0
H3856 H 0.81727 0.14253 0.26227 0.0
H3857 H 0.77566 0.15385 0.19811 0.0
H3858 H 0.85619 0.11842 0.23736 0.0
H3859 H 0.83435 0.09414 0.24038 0.0
H3860 H 0.84167 0.11711 0.2634 0.0
H3861 H 0.80334 0.1371 0.15808 0.0
H3862 H 0.77328 0.1306 0.16192 0.0
H3863 H 0.78948 0.10842 0.16069 0.0
C3864 C 0.71359 0.16357 0.01599 0.0
C3865 C 0.73367 0.15705 0.01015 0.0
C3866 C 0.69274 0.14768 0.01503 0.0
C3867 C 0.69195 0.12468 1.00816 0.0
C3868 C 0.7119 0.11812 1.0013 0.0
C3869 C 0.73252 0.1344 1.00234 0.0
C3870 C 0.6718 0.15537 0.02237 0.0
C3871 C 0.71175 0.09376 0.99391 0.0
C3872 C 0.64816 0.0833 0.03548 0.0
C3873 C 0.62958 0.07755 0.01681 0.0
C3874 C 0.66881 0.098 0.03256 0.0
C3875 C 0.67097 0.10732 0.01044 0.0
C3876 C 0.65263 0.10097 0.9912 0.0
C3877 C 0.63213 0.08607 0.99459 0.0
C3878 C 0.68801 0.10416 0.05347 0.0
C3879 C 0.65434 0.11058 0.96736 0.0
H3880 H 0.71425 0.18105 0.02185 0.0
H3881 H 0.74792 0.12921 0.99769 0.0
H3882 H 0.65648 0.14924 0.00856 0.0
H3883 H 0.66762 0.14805 0.03918 0.0
H3884 H 0.67466 0.17406 0.02525 0.0
H3885 H 0.72788 0.09179 0.98684 0.0
H3886 H 0.70994 0.08363 0.00951 0.0
H3887 H 0.6967 0.08664 0.98009 0.0
H3888 H 0.64644 0.07662 0.05265 0.0
H3889 H 0.61784 0.08174 0.9801 0.0
H3890 H 0.69075 0.12243 0.05918 0.0
H3891 H 0.70452 0.10107 0.04819 0.0
H3892 H 0.68412 0.09441 0.069 0.0
H3893 H 0.65487 0.129 0.96937 0.0
H3894 H 0.63944 0.10253 0.95367 0.0
H3895 H 0.67062 0.10835 0.96085 0.0
C3896 C 0.18412 0.40039 0.29022 0.0
C3897 C 0.1777 0.42142 0.29041 0.0
C3898 C 0.20429 0.39754 0.30435 0.0
C3899 C 0.21808 0.41604 0.31946 0.0
C3900 C 0.21061 0.43675 0.32124 0.0
C3901 C 0.19064 0.4393 0.30643 0.0
C3902 C 0.21172 0.3752 0.30173 0.0
C3903 C 0.22446 0.45664 0.33763 0.0
C3904 C 0.2677 0.39999 0.35922 0.0
C3905 C 0.28545 0.40433 0.34493 0.0
C3906 C 0.24595 0.40519 0.35208 0.0
C3907 C 0.24189 0.41465 0.33006 0.0
C3908 C 0.26025 0.4205 0.31648 0.0
C3909 C 0.28176 0.41538 0.32413 0.0
C3910 C 0.22696 0.39936 0.36736 0.0
C3911 C 0.25666 0.43039 0.29273 0.0
H3912 H 0.17412 0.38646 0.27799 0.0
H3913 H 0.18553 0.4555 0.30694 0.0
H3914 H 0.22806 0.37754 0.29377 0.0
H3915 H 0.21521 0.36882 0.31945 0.0
H3916 H 0.19842 0.36215 0.29026 0.0
H3917 H 0.21412 0.46967 0.3406 0.0
H3918 H 0.23077 0.45113 0.35514 0.0
H3919 H 0.23986 0.46456 0.32964 0.0
H3920 H 0.27048 0.39158 0.37537 0.0
H3921 H 0.29513 0.41844 0.31268 0.0
H3922 H 0.21369 0.38474 0.35851 0.0
H3923 H 0.21818 0.41372 0.36953 0.0
H3924 H 0.23368 0.39495 0.38529 0.0
H3925 H 0.24443 0.41775 0.27978 0.0
H3926 H 0.2731 0.43538 0.28518 0.0
H3927 H 0.24888 0.44545 0.29459 0.0
C3928 C 0.2306 0.46751 0.02274 0.0
C3929 C 0.23846 0.45899 0.0443 0.0
C3930 C 0.2111 0.47848 0.02037 0.0
C3931 C 0.19861 0.48148 0.03994 0.0
C3932 C 0.20665 0.47305 0.06167 0.0
C3933 C 0.22593 0.46214 0.06349 0.0
C3934 C 0.20369 0.48677 0.99667 0.0
C3935 C 0.19476 0.47554 0.08336 0.0
C3936 C 0.16046 0.52748 0.04348 0.0
C3937 C 0.1373 0.51517 0.03788 0.0
C3938 C 0.18013 0.51704 0.04371 0.0
C3939 C 0.1774 0.4933 0.03808 0.0
C3940 C 0.15408 0.48082 0.03211 0.0
C3941 C 0.1347 0.49167 0.03216 0.0
C3942 C 0.20407 0.53158 0.05048 0.0
C3943 C 0.14946 0.45567 0.02586 0.0
H3944 H 0.23953 0.46544 1.00752 0.0
H3945 H 0.23123 0.45597 0.08044 0.0
H3946 H 0.18543 0.47847 0.98999 0.0
H3947 H 0.20445 0.50522 0.99884 0.0
H3948 H 0.21473 0.48334 0.98307 0.0
H3949 H 0.20297 0.46849 0.09911 0.0
H3950 H 0.19517 0.49365 0.08805 0.0
H3951 H 0.17627 0.46679 0.07939 0.0
H3952 H 0.16335 0.54552 0.04805 0.0
H3953 H 0.1173 0.48152 0.02775 0.0
H3954 H 0.21485 0.52947 0.03625 0.0
H3955 H 0.21264 0.52611 0.06703 0.0
H3956 H 0.20373 0.54977 0.05347 0.0
H3957 H 0.15935 0.45182 0.01137 0.0
H3958 H 0.13076 0.44837 0.02007 0.0
H3959 H 0.15551 0.44721 0.04159 0.0
C3960 C 0.87179 0.95604 0.22487 0.0
C3961 C 0.87386 0.9591 0.20084 0.0
C3962 C 0.86499 0.93447 0.23245 0.0
C3963 C 0.85995 0.91545 0.21557 0.0
C3964 C 0.86159 0.91836 0.1912 0.0
C3965 C 0.86863 0.94021 0.1841 0.0
C3966 C 0.86359 0.93206 0.25865 0.0
C3967 C 0.85616 0.89839 0.17275 0.0
C3968 C 0.86541 0.86093 0.24284 0.0
C3969 C 0.84245 0.85225 0.24621 0.0
C3970 C 0.8712 0.881 0.23183 0.0
C3971 C 0.85359 0.89256 0.22386 0.0
C3972 C 0.83024 0.88336 0.22618 0.0
C3973 C 0.82495 0.86334 0.23744 0.0
C3974 C 0.89633 0.89038 0.22981 0.0
C3975 C 0.81098 0.89516 0.21769 0.0
H3976 H 0.87582 0.97051 0.23797 0.0
H3977 H 0.87015 0.94248 0.1655 0.0
H3978 H 0.8459 0.92328 0.26105 0.0
H3979 H 0.87578 0.92157 0.2658 0.0
H3980 H 0.86785 0.94862 0.26941 0.0
H3981 H 0.85736 0.90358 0.1544 0.0
H3982 H 0.86839 0.88704 0.17685 0.0
H3983 H 0.83844 0.88843 0.17324 0.0
H3984 H 0.87904 0.85242 0.24944 0.0
H3985 H 0.80713 0.8566 0.23971 0.0
H3986 H 0.9026 0.90624 0.24162 0.0
H3987 H 0.89825 0.89462 0.2113 0.0
H3988 H 0.90761 0.87835 0.23491 0.0
H3989 H 0.81287 0.91114 0.22903 0.0
H3990 H 0.79356 0.88459 0.2184 0.0
H3991 H 0.81204 0.89966 0.19911 0.0
C3992 C 0.67789 0.03234 0.74647 0.0
C3993 C 0.65923 0.02519 0.72806 0.0
C3994 C 0.69164 0.0542 0.74821 0.0
C3995 C 0.68659 0.06932 0.73116 0.0
C3996 C 0.66787 0.0622 0.71244 0.0
C3997 C 0.65442 0.0402 0.7111 0.0
C3998 C 0.71152 0.06115 0.76835 0.0
C3999 C 0.66196 0.07788 0.69393 0.0
C4000 C 0.70806 0.13235 0.74744 0.0
C4001 C 0.72743 0.13703 0.73541 0.0
C4002 C 0.69467 0.11035 0.74633 0.0
C4003 C 0.70088 0.09262 0.73293 0.0
C4004 C 0.72066 0.09717 0.7211 0.0
C4005 C 0.73369 0.11932 0.72247 0.0
C4006 C 0.67366 0.10614 0.75915 0.0
C4007 C 0.72794 0.07867 0.70681 0.0
H4008 H 0.68176 0.02086 0.75965 0.0
H4009 H 0.64003 0.03482 0.69683 0.0
H4010 H 0.70893 0.07585 0.77948 0.0
H4011 H 0.71332 0.04728 0.77998 0.0
H4012 H 0.72801 0.06653 0.76104 0.0
H4013 H 0.6469 0.06972 0.68048 0.0
H4014 H 0.65793 0.09316 0.70273 0.0
H4015 H 0.67709 0.08359 0.68455 0.0
H4016 H 0.703 0.14602 0.75723 0.0
H4017 H 0.74882 0.12281 0.71338 0.0
H4018 H 0.67511 0.09305 0.77184 0.0
H4019 H 0.65783 0.09961 0.7461 0.0
H4020 H 0.67144 0.12167 0.76916 0.0
H4021 H 0.73093 0.06502 0.71831 0.0
H4022 H 0.74399 0.08495 0.699 0.0
H4023 H 0.71388 0.07104 0.69211 0.0
loop_
_geom_bond_atom_site_label_1
_geom_bond_atom_site_label_2
_geom_bond_distance
_geom_bond_site_symmetry_2
_ccdc_geom_bond_type
C0 O1 1.160 . S
C0 O7 1.185 . S
O1 C0 1.160 . S
O2 Zn3 1.899 . S
O2 C10 1.284 . S
Zn3 O2 1.899 . S
Zn3 O4 2.032 . S
Zn3 O7 2.086 . S
Zn3 O12 1.977 . S
O4 Zn3 2.032 . S
O4 C8 1.278 . S
C5 O6 1.203 . S
C5 O12 1.267 . S
O6 C5 1.203 . S
O7 C0 1.185 . S
O7 Zn3 2.086 . S
C8 O4 1.278 . S
C8 O9 1.211 . S
O9 C8 1.211 . S
C10 O2 1.284 . S
C10 O11 1.273 . S
O11 C10 1.273 . S
O12 Zn3 1.977 . S
O12 C5 1.267 . S
C13 O14 1.160 1_455 S
C13 O20 1.185 . S
O14 C13 1.160 1_655 S
O15 Zn16 1.899 . S
O15 C23 1.284 . S
Zn16 O15 1.899 . S
Zn16 O17 2.032 . S
Zn16 O20 2.086 . S
Zn16 O25 1.977 . S
O17 Zn16 2.032 . S
O17 C21 1.278 . S
C18 O19 1.203 . S
C18 O25 1.267 . S
O19 C18 1.203 . S
O20 C13 1.185 . S
O20 Zn16 2.086 . S
C21 O17 1.278 . S
C21 O22 1.211 . S
O22 C21 1.211 . S
C23 O15 1.284 . S
C23 O24 1.273 . S
O24 C23 1.273 . S
O25 Zn16 1.977 . S
O25 C18 1.267 . S
C26 O27 1.160 . S
C26 O33 1.185 . S
O27 C26 1.160 . S
O28 Zn29 1.899 . S
O28 C36 1.284 . S
Zn29 O28 1.899 . S
Zn29 O30 2.032 . S
Zn29 O33 2.086 . S
Zn29 O38 1.977 . S
O30 Zn29 2.032 . S
O30 C34 1.278 . S
C31 O32 1.203 . S
C31 O38 1.267 . S
O32 C31 1.203 . S
O33 C26 1.185 . S
O33 Zn29 2.086 . S
C34 O30 1.278 . S
C34 O35 1.211 . S
O35 C34 1.211 . S
C36 O28 1.284 . S
C36 O37 1.273 . S
O37 C36 1.273 . S
O38 Zn29 1.977 . S
O38 C31 1.267 . S
C39 O40 1.160 . S
C39 O46 1.185 . S
O40 C39 1.160 . S
O41 Zn42 1.899 . S
O41 C49 1.284 . S
Zn42 O41 1.899 . S
Zn42 O43 2.032 . S
Zn42 O46 2.086 . S
Zn42 O51 1.977 . S
O43 Zn42 2.032 . S
O43 C47 1.278 . S
C44 O45 1.203 . S
C44 O51 1.267 . S
O45 C44 1.203 . S
O46 C39 1.185 . S
O46 Zn42 2.086 . S
C47 O43 1.278 . S
C47 O48 1.211 . S
O48 C47 1.211 . S
C49 O41 1.284 . S
C49 O50 1.273 . S
O50 C49 1.273 . S
O51 Zn42 1.977 . S
O51 C44 1.267 . S
C52 O53 1.160 . S
C52 O59 1.185 . S
O53 C52 1.160 . S
O54 Zn55 1.899 . S
O54 C62 1.284 . S
Zn55 O54 1.899 . S
Zn55 O56 2.032 . S
Zn55 O59 2.086 . S
Zn55 O64 1.977 . S
O56 Zn55 2.032 . S
O56 C60 1.278 . S
C57 O58 1.203 . S
C57 O64 1.267 . S
O58 C57 1.203 . S
O59 C52 1.185 . S
O59 Zn55 2.086 . S
C60 O56 1.278 . S
C60 O61 1.211 . S
O61 C60 1.211 . S
C62 O54 1.284 . S
C62 O63 1.273 . S
O63 C62 1.273 . S
O64 Zn55 1.977 . S
O64 C57 1.267 . S
C65 O66 1.160 . S
C65 O72 1.185 . S
O66 C65 1.160 . S
O67 Zn68 1.899 . S
O67 C75 1.284 . S
Zn68 O67 1.899 . S
Zn68 O69 2.032 . S
Zn68 O72 2.086 . S
Zn68 O77 1.977 . S
O69 Zn68 2.032 . S
O69 C73 1.278 . S
C70 O71 1.203 . S
C70 O77 1.267 . S
O71 C70 1.203 . S
O72 C65 1.185 . S
O72 Zn68 2.086 . S
C73 O69 1.278 . S
C73 O74 1.211 . S
O74 C73 1.211 . S
C75 O67 1.284 . S
C75 O76 1.273 . S
O76 C75 1.273 . S
O77 Zn68 1.977 . S
O77 C70 1.267 . S
C78 O79 1.160 . S
C78 O85 1.185 . S
O79 C78 1.160 . S
O80 Zn81 1.899 . S
O80 C88 1.284 . S
Zn81 O80 1.899 . S
Zn81 O82 2.032 . S
Zn81 O85 2.086 . S
Zn81 O90 1.977 . S
O82 Zn81 2.032 . S
O82 C86 1.278 . S
C83 O84 1.203 . S
C83 O90 1.267 . S
O84 C83 1.203 . S
O85 C78 1.185 . S
O85 Zn81 2.086 . S
C86 O82 1.278 . S
C86 O87 1.211 . S
O87 C86 1.211 . S
C88 O80 1.284 . S
C88 O89 1.273 . S
O89 C88 1.273 . S
O90 Zn81 1.977 . S
O90 C83 1.267 . S
C91 O92 1.160 . S
C91 O98 1.185 . S
O92 C91 1.160 . S
O93 Zn94 1.900 1_655 S
O93 C101 1.287 . S
Zn94 O93 1.900 1_455 S
Zn94 O95 2.032 . S
Zn94 O98 2.086 . S
Zn94 O103 1.977 1_455 S
O95 Zn94 2.032 . S
O95 C99 1.278 . S
C96 O97 1.203 . S
C96 O103 1.267 . S
O97 C96 1.203 . S
O98 C91 1.185 . S
O98 Zn94 2.086 . S
C99 O95 1.278 . S
C99 O100 1.211 1_455 S
O100 C99 1.211 1_655 S
C101 O93 1.287 . S
C101 O102 1.273 . S
O102 C101 1.273 . S
O103 Zn94 1.977 1_655 S
O103 C96 1.267 . S
C104 O105 1.160 . S
C104 O111 1.185 . S
O105 C104 1.160 . S
O106 Zn107 1.899 . S
O106 C114 1.284 . S
Zn107 O106 1.899 . S
Zn107 O108 2.032 . S
Zn107 O111 2.086 . S
Zn107 O116 1.977 . S
O108 Zn107 2.032 . S
O108 C112 1.278 . S
C109 O110 1.203 . S
C109 O116 1.267 . S
O110 C109 1.203 . S
O111 C104 1.185 . S
O111 Zn107 2.086 . S
C112 O108 1.278 . S
C112 O113 1.211 . S
O113 C112 1.211 . S
C114 O106 1.284 . S
C114 O115 1.273 . S
O115 C114 1.273 . S
O116 Zn107 1.977 . S
O116 C109 1.267 . S
C117 O118 1.160 . S
C117 O124 1.185 . S
O118 C117 1.160 . S
O119 Zn120 1.899 . S
O119 C127 1.284 . S
Zn120 O119 1.899 . S
Zn120 O121 2.032 . S
Zn120 O124 2.086 . S
Zn120 O129 1.977 . S
O121 Zn120 2.032 . S
O121 C125 1.278 . S
C122 O123 1.203 . S
C122 O129 1.267 . S
O123 C122 1.203 . S
O124 C117 1.185 . S
O124 Zn120 2.086 . S
C125 O121 1.278 . S
C125 O126 1.211 . S
O126 C125 1.211 . S
C127 O119 1.284 . S
C127 O128 1.273 . S
O128 C127 1.273 . S
O129 Zn120 1.977 . S
O129 C122 1.267 . S
C130 O131 1.160 . S
C130 O137 1.185 . S
O131 C130 1.160 . S
O132 Zn133 1.899 . S
O132 C140 1.284 . S
Zn133 O132 1.899 . S
Zn133 O134 2.032 . S
Zn133 O137 2.086 . S
Zn133 O142 1.977 . S
O134 Zn133 2.032 . S
O134 C138 1.278 . S
C135 O136 1.203 . S
C135 O142 1.267 . S
O136 C135 1.203 . S
O137 C130 1.185 . S
O137 Zn133 2.086 . S
C138 O134 1.278 . S
C138 O139 1.211 . S
O139 C138 1.211 . S
C140 O132 1.284 . S
C140 O141 1.273 . S
O141 C140 1.273 . S
O142 Zn133 1.977 . S
O142 C135 1.267 . S
C143 O144 1.160 . S
C143 O150 1.185 . S
O144 C143 1.160 . S
O145 Zn146 1.899 . S
O145 C153 1.284 . S
Zn146 O145 1.899 . S
Zn146 O147 2.032 . S
Zn146 O150 2.086 . S
Zn146 O155 1.977 . S
O147 Zn146 2.032 . S
O147 C151 1.278 . S
C148 O149 1.203 . S
C148 O155 1.267 . S
O149 C148 1.203 . S
O150 C143 1.185 . S
O150 Zn146 2.086 . S
C151 O147 1.278 . S
C151 O152 1.211 . S
O152 C151 1.211 . S
C153 O145 1.284 . S
C153 O154 1.273 . S
O154 C153 1.273 . S
O155 Zn146 1.977 . S
O155 C148 1.267 . S
C156 O157 1.160 . S
C156 O163 1.185 . S
O157 C156 1.160 . S
O158 Zn159 1.899 . S
O158 C166 1.284 . S
Zn159 O158 1.899 . S
Zn159 O160 2.032 . S
Zn159 O163 2.086 . S
Zn159 O168 1.977 . S
O160 Zn159 2.032 . S
O160 C164 1.278 1_554 S
C161 O162 1.203 . S
C161 O168 1.267 . S
O162 C161 1.203 . S
O163 C156 1.185 . S
O163 Zn159 2.086 . S
C164 O160 1.278 1_556 S
C164 O165 1.211 . S
O165 C164 1.211 . S
C166 O158 1.284 . S
C166 O167 1.273 . S
O167 C166 1.273 . S
O168 Zn159 1.977 . S
O168 C161 1.267 . S
C169 O170 1.160 . S
C169 O176 1.185 1_554 S
O170 C169 1.160 . S
O171 Zn172 1.899 . S
O171 C179 1.284 . S
Zn172 O171 1.899 . S
Zn172 O173 2.032 1_554 S
Zn172 O176 2.086 1_554 S
Zn172 O181 1.977 1_554 S
O173 Zn172 2.032 1_556 S
O173 C177 1.278 . S
C174 O175 1.187 1_556 S
C174 O181 1.279 . S
O175 C174 1.187 1_554 S
O176 C169 1.185 1_556 S
O176 Zn172 2.086 1_556 S
C177 O173 1.278 . S
C177 O178 1.211 . S
O178 C177 1.211 . S
C179 O171 1.284 . S
C179 O180 1.273 . S
O180 C179 1.273 . S
O181 Zn172 1.977 1_556 S
O181 C174 1.279 . S
C182 O183 1.160 . S
C182 O189 1.185 . S
O183 C182 1.160 . S
O184 Zn185 1.899 . S
O184 C192 1.284 . S
Zn185 O184 1.899 . S
Zn185 O186 2.032 . S
Zn185 O189 2.086 . S
Zn185 O194 1.977 . S
O186 Zn185 2.032 . S
O186 C190 1.278 . S
C187 O188 1.203 . S
C187 O194 1.267 . S
O188 C187 1.203 . S
O189 C182 1.185 . S
O189 Zn185 2.086 . S
C190 O186 1.278 . S
C190 O191 1.211 . S
O191 C190 1.211 . S
C192 O184 1.284 . S
C192 O193 1.273 . S
O193 C192 1.273 . S
O194 Zn185 1.977 . S
O194 C187 1.267 . S
C195 O196 1.160 . S
C195 O202 1.185 . S
O196 C195 1.160 . S
O197 Zn198 1.899 . S
O197 C205 1.284 . S
Zn198 O197 1.899 . S
Zn198 O199 2.032 . S
Zn198 O202 2.086 . S
Zn198 O207 1.977 . S
O199 Zn198 2.032 . S
O199 C203 1.278 . S
C200 O201 1.203 . S
C200 O207 1.267 . S
O201 C200 1.203 . S
O202 C195 1.185 . S
O202 Zn198 2.086 . S
C203 O199 1.278 . S
C203 O204 1.211 . S
O204 C203 1.211 . S
C205 O197 1.284 . S
C205 O206 1.273 . S
O206 C205 1.273 . S
O207 Zn198 1.977 . S
O207 C200 1.267 . S
C208 O209 1.160 . S
C208 O215 1.185 . S
O209 C208 1.160 . S
O210 Zn211 1.899 . S
O210 C218 1.283 . S
Zn211 O210 1.899 . S
Zn211 O212 2.032 . S
Zn211 O215 2.086 . S
Zn211 O220 1.977 1_545 S
O212 Zn211 2.032 . S
O212 C216 1.309 . S
C213 O214 1.203 . S
C213 O220 1.267 . S
O214 C213 1.203 . S
O215 C208 1.185 . S
O215 Zn211 2.086 . S
C216 O212 1.309 . S
C216 O217 1.171 1_545 S
O217 C216 1.171 1_565 S
C218 O210 1.283 . S
C218 O219 1.274 1_545 S
O219 C218 1.274 1_565 S
O220 Zn211 1.977 1_565 S
O220 C213 1.267 . S
C221 O222 1.160 . S
C221 O228 1.185 . S
O222 C221 1.160 . S
O223 Zn224 1.899 . S
O223 C231 1.284 . S
Zn224 O223 1.899 . S
Zn224 O225 2.032 . S
Zn224 O228 2.086 . S
Zn224 O233 1.977 . S
O225 Zn224 2.032 . S
O225 C229 1.278 . S
C226 O227 1.203 . S
C226 O233 1.267 . S
O227 C226 1.203 . S
O228 C221 1.185 . S
O228 Zn224 2.086 . S
C229 O225 1.278 . S
C229 O230 1.211 . S
O230 C229 1.211 . S
C231 O223 1.284 . S
C231 O232 1.273 . S
O232 C231 1.273 . S
O233 Zn224 1.977 . S
O233 C226 1.267 . S
C234 O235 1.160 . S
C234 O241 1.185 . S
O235 C234 1.160 . S
O236 Zn237 1.899 . S
O236 C244 1.284 . S
Zn237 O236 1.899 . S
Zn237 O238 2.032 . S
Zn237 O241 2.086 . S
Zn237 O246 1.977 . S
O238 Zn237 2.032 . S
O238 C242 1.278 . S
C239 O240 1.203 . S
C239 O246 1.267 . S
O240 C239 1.203 . S
O241 C234 1.185 . S
O241 Zn237 2.086 . S
C242 O238 1.278 . S
C242 O243 1.211 . S
O243 C242 1.211 . S
C244 O236 1.284 . S
C244 O245 1.273 . S
O245 C244 1.273 . S
O246 Zn237 1.977 . S
O246 C239 1.267 . S
C247 O248 1.160 . S
C247 O254 1.185 . S
O248 C247 1.160 . S
O249 Zn250 1.899 . S
O249 C257 1.284 . S
Zn250 O249 1.899 . S
Zn250 O251 2.031 . S
Zn250 O254 2.083 . S
Zn250 O259 1.980 1_565 S
O251 Zn250 2.031 . S
O251 C255 1.278 1_565 S
C252 O253 1.203 . S
C252 O259 1.267 . S
O253 C252 1.203 . S
O254 C247 1.185 . S
O254 Zn250 2.083 . S
C255 O251 1.278 1_545 S
C255 O256 1.211 . S
O256 C255 1.211 . S
C257 O249 1.284 . S
C257 O258 1.273 1_565 S
O258 C257 1.273 1_545 S
O259 Zn250 1.980 1_545 S
O259 C252 1.267 . S
C260 O261 1.160 . S
C260 O267 1.185 . S
O261 C260 1.160 . S
O262 Zn263 1.899 . S
O262 C270 1.284 . S
Zn263 O262 1.899 . S
Zn263 O264 2.032 1_554 S
Zn263 O267 2.086 . S
Zn263 O272 1.977 . S
O264 Zn263 2.032 1_556 S
O264 C268 1.278 . S
C265 O266 1.203 . S
C265 O272 1.267 . S
O266 C265 1.203 . S
O267 C260 1.185 . S
O267 Zn263 2.086 . S
C268 O264 1.278 . S
C268 O269 1.211 . S
O269 C268 1.211 . S
C270 O262 1.284 . S
C270 O271 1.273 . S
O271 C270 1.273 . S
O272 Zn263 1.977 . S
O272 C265 1.267 . S
C273 O274 1.160 . S
C273 O280 1.185 . S
O274 C273 1.160 . S
O275 Zn276 1.899 . S
O275 C283 1.284 1_655 S
Zn276 O275 1.899 . S
Zn276 O277 2.032 1_655 S
Zn276 O280 2.086 . S
Zn276 O285 1.977 . S
O277 Zn276 2.032 1_455 S
O277 C281 1.278 . S
C278 O279 1.203 . S
C278 O285 1.267 . S
O279 C278 1.203 . S
O280 C273 1.185 . S
O280 Zn276 2.086 . S
C281 O277 1.278 . S
C281 O282 1.211 . S
O282 C281 1.211 . S
C283 O275 1.284 1_455 S
C283 O284 1.273 . S
O284 C283 1.273 . S
O285 Zn276 1.977 . S
O285 C278 1.267 . S
C286 O287 1.160 . S
C286 O293 1.185 . S
O287 C286 1.160 . S
O288 Zn289 1.899 . S
O288 C296 1.284 . S
Zn289 O288 1.899 . S
Zn289 O290 2.032 . S
Zn289 O293 2.086 . S
Zn289 O298 1.977 . S
O290 Zn289 2.032 . S
O290 C294 1.278 . S
C291 O292 1.203 . S
C291 O298 1.267 . S
O292 C291 1.203 . S
O293 C286 1.185 . S
O293 Zn289 2.086 . S
C294 O290 1.278 . S
C294 O295 1.211 . S
O295 C294 1.211 . S
C296 O288 1.284 . S
C296 O297 1.273 . S
O297 C296 1.273 . S
O298 Zn289 1.977 . S
O298 C291 1.267 . S
C299 O300 1.160 . S
C299 O306 1.185 . S
O300 C299 1.160 . S
O301 Zn302 1.899 . S
O301 C309 1.284 . S
Zn302 O301 1.899 . S
Zn302 O303 2.032 . S
Zn302 O306 2.086 . S
Zn302 O311 1.977 . S
O303 Zn302 2.032 . S
O303 C307 1.278 . S
C304 O305 1.203 . S
C304 O311 1.267 . S
O305 C304 1.203 . S
O306 C299 1.185 . S
O306 Zn302 2.086 . S
C307 O303 1.278 . S
C307 O308 1.211 . S
O308 C307 1.211 . S
C309 O301 1.284 . S
C309 O310 1.273 . S
O310 C309 1.273 . S
O311 Zn302 1.977 . S
O311 C304 1.267 . S
Tb312 C322 2.826 1_455 S
Tb312 O323 2.344 1_556 S
Tb312 O326 2.367 . S
Tb312 O331 2.421 . S
Tb312 O332 2.383 1_546 S
Tb312 O335 2.481 1_455 S
Tb312 O336 2.471 1_456 S
Eu313 O324 2.418 . S
Eu313 O325 2.384 . S
Eu313 O328 2.479 . S
Eu313 O329 2.471 . S
Eu313 O330 2.337 1_554 S
Eu313 O333 2.361 . S
Eu313 C343 2.825 . S
C314 O330 1.269 . S
C314 O331 1.265 . S
C315 O332 1.255 . S
C315 O333 1.268 1_565 S
C316 C318 1.380 . S
C316 C319 1.374 . S
C316 C322 1.507 . S
C317 C318 1.384 . S
C317 C321 1.387 . S
C317 H344 0.930 . S
C318 C316 1.380 . S
C318 C317 1.384 . S
C318 H345 0.931 . S
C319 C316 1.374 . S
C319 C320 1.390 . S
C319 H346 0.930 1_556 S
C320 C319 1.390 . S
C320 C321 1.391 . S
C320 H347 0.930 . S
C321 C317 1.387 . S
C321 C320 1.391 . S
C322 Tb312 2.826 1_655 S
C322 C316 1.507 . S
C322 O335 1.238 . S
C322 O336 1.247 1_556 S
O323 Tb312 2.344 1_554 S
O323 C327 1.259 . S
O324 Eu313 2.418 . S
O324 C327 1.265 . S
O325 Eu313 2.384 . S
O325 C334 1.255 . S
O326 Tb312 2.367 . S
O326 C334 1.265 1_556 S
C327 O323 1.259 . S
C327 O324 1.265 . S
O328 Eu313 2.479 . S
O328 C343 1.238 . S
O329 Eu313 2.471 . S
O329 C343 1.247 . S
O330 Eu313 2.337 1_556 S
O330 C314 1.269 . S
O331 Tb312 2.421 . S
O331 C314 1.265 . S
O332 Tb312 2.383 1_564 S
O332 C315 1.255 . S
O333 Eu313 2.361 . S
O333 C315 1.268 1_545 S
C334 O325 1.255 . S
C334 O326 1.265 1_554 S
O335 Tb312 2.481 1_655 S
O335 C322 1.238 . S
O336 Tb312 2.471 1_654 S
O336 C322 1.247 1_554 S
C337 C340 1.380 . S
C337 C341 1.359 1_545 S
C337 C343 1.507 . S
C338 C339 1.387 1_565 S
C338 C342 1.391 . S
C339 C338 1.387 1_545 S
C339 C340 1.384 . S
C339 H348 0.930 . S
C340 C337 1.380 . S
C340 C339 1.384 . S
C340 H349 0.931 . S
C341 C337 1.359 1_565 S
C341 C342 1.405 . S
C341 H350 0.931 . S
C342 C338 1.391 . S
C342 C341 1.405 . S
C342 H351 0.930 . S
C343 Eu313 2.825 . S
C343 O328 1.238 . S
C343 O329 1.247 . S
C343 C337 1.507 . S
H344 C317 0.930 . S
H345 C318 0.931 . S
H346 C319 0.930 1_554 S
H347 C320 0.930 . S
H348 C339 0.930 . S
H349 C340 0.931 . S
H350 C341 0.931 . S
H351 C342 0.930 . S
Tb352 C362 2.825 . S
Tb352 O363 2.347 . S
Tb352 O366 2.366 . S
Tb352 O371 2.418 . S
Tb352 O372 2.384 . S
Tb352 O375 2.479 . S
Tb352 O376 2.471 . S
Eu353 O364 2.418 . S
Eu353 O365 2.384 . S
Eu353 O368 2.479 . S
Eu353 O369 2.471 . S
Eu353 O370 2.347 . S
Eu353 O373 2.366 . S
Eu353 C383 2.825 . S
C354 O370 1.259 . S
C354 O371 1.265 . S
C355 O372 1.255 . S
C355 O373 1.265 . S
C356 C358 1.380 . S
C356 C359 1.374 . S
C356 C362 1.507 . S
C357 C358 1.384 . S
C357 C361 1.387 . S
C357 H384 0.930 . S
C358 C356 1.380 . S
C358 C357 1.384 . S
C358 H385 0.931 . S
C359 C356 1.374 . S
C359 C360 1.390 . S
C359 H386 0.930 . S
C360 C359 1.390 . S
C360 C361 1.391 . S
C360 H387 0.930 . S
C361 C357 1.387 . S
C361 C360 1.391 . S
C362 Tb352 2.825 . S
C362 C356 1.507 . S
C362 O375 1.238 . S
C362 O376 1.247 . S
O363 Tb352 2.347 . S
O363 C367 1.259 . S
O364 Eu353 2.418 . S
O364 C367 1.265 . S
O365 Eu353 2.384 . S
O365 C374 1.255 . S
O366 Tb352 2.366 . S
O366 C374 1.265 . S
C367 O363 1.259 . S
C367 O364 1.265 . S
O368 Eu353 2.479 . S
O368 C383 1.238 . S
O369 Eu353 2.471 . S
O369 C383 1.247 . S
O370 Eu353 2.347 . S
O370 C354 1.259 . S
O371 Tb352 2.418 . S
O371 C354 1.265 . S
O372 Tb352 2.384 . S
O372 C355 1.255 . S
O373 Eu353 2.366 . S
O373 C355 1.265 . S
C374 O365 1.255 . S
C374 O366 1.265 . S
O375 Tb352 2.479 . S
O375 C362 1.238 . S
O376 Tb352 2.471 . S
O376 C362 1.247 . S
C377 C380 1.380 . S
C377 C381 1.374 . S
C377 C383 1.507 . S
C378 C379 1.387 . S
C378 C382 1.391 . S
C379 C378 1.387 . S
C379 C380 1.384 . S
C379 H388 0.930 . S
C380 C377 1.380 . S
C380 C379 1.384 . S
C380 H389 0.931 . S
C381 C377 1.374 . S
C381 C382 1.390 . S
C381 H390 0.930 . S
C382 C378 1.391 . S
C382 C381 1.390 . S
C382 H391 0.930 . S
C383 Eu353 2.825 . S
C383 O368 1.238 . S
C383 O369 1.247 . S
C383 C377 1.507 . S
H384 C357 0.930 . S
H385 C358 0.931 . S
H386 C359 0.930 . S
H387 C360 0.930 . S
H388 C379 0.930 . S
H389 C380 0.931 . S
H390 C381 0.930 . S
H391 C382 0.930 . S
Tb392 C402 2.825 1_545 S
Tb392 O403 2.347 . S
Tb392 O406 2.366 . S
Tb392 O411 2.418 . S
Tb392 O412 2.384 . S
Tb392 O415 2.479 1_545 S
Tb392 O416 2.471 1_545 S
Eu393 O404 2.418 . S
Eu393 O405 2.384 . S
Eu393 O408 2.479 . S
Eu393 O409 2.471 . S
Eu393 O410 2.347 . S
Eu393 O413 2.366 . S
Eu393 C423 2.825 . S
C394 O410 1.259 . S
C394 O411 1.265 . S
C395 O412 1.255 . S
C395 O413 1.265 . S
C396 C398 1.380 . S
C396 C399 1.374 . S
C396 C402 1.507 . S
C397 C398 1.384 . S
C397 C401 1.387 . S
C397 H424 0.930 . S
C398 C396 1.380 . S
C398 C397 1.384 . S
C398 H425 0.931 . S
C399 C396 1.374 . S
C399 C400 1.390 . S
C399 H426 0.930 . S
C400 C399 1.390 . S
C400 C401 1.391 . S
C400 H427 0.930 . S
C401 C397 1.387 . S
C401 C400 1.391 . S
C402 Tb392 2.825 1_565 S
C402 C396 1.507 . S
C402 O415 1.238 . S
C402 O416 1.247 . S
O403 Tb392 2.347 . S
O403 C407 1.259 . S
O404 Eu393 2.418 . S
O404 C407 1.265 . S
O405 Eu393 2.384 . S
O405 C414 1.255 . S
O406 Tb392 2.366 . S
O406 C414 1.265 . S
C407 O403 1.259 . S
C407 O404 1.265 . S
O408 Eu393 2.479 . S
O408 C423 1.238 . S
O409 Eu393 2.471 . S
O409 C423 1.247 . S
O410 Eu393 2.347 . S
O410 C394 1.259 . S
O411 Tb392 2.418 . S
O411 C394 1.265 . S
O412 Tb392 2.384 . S
O412 C395 1.255 . S
O413 Eu393 2.366 . S
O413 C395 1.265 . S
C414 O405 1.255 . S
C414 O406 1.265 . S
O415 Tb392 2.479 1_565 S
O415 C402 1.238 . S
O416 Tb392 2.471 1_565 S
O416 C402 1.247 . S
C417 C420 1.380 . S
C417 C421 1.374 . S
C417 C423 1.507 . S
C418 C419 1.387 . S
C418 C422 1.391 . S
C419 C418 1.387 . S
C419 C420 1.384 . S
C419 H428 0.930 . S
C420 C417 1.380 . S
C420 C419 1.384 . S
C420 H429 0.931 . S
C421 C417 1.374 . S
C421 C422 1.390 . S
C421 H430 0.930 . S
C422 C418 1.391 . S
C422 C421 1.390 . S
C422 H431 0.930 . S
C423 Eu393 2.825 . S
C423 O408 1.238 . S
C423 O409 1.247 . S
C423 C417 1.507 . S
H424 C397 0.930 . S
H425 C398 0.931 . S
H426 C399 0.930 . S
H427 C400 0.930 . S
H428 C419 0.930 . S
H429 C420 0.931 . S
H430 C421 0.930 . S
H431 C422 0.930 . S
Tb432 C442 2.825 . S
Tb432 O443 2.347 . S
Tb432 O446 2.366 . S
Tb432 O451 2.418 . S
Tb432 O452 2.384 . S
Tb432 O455 2.479 . S
Tb432 O456 2.471 . S
Eu433 O444 2.418 . S
Eu433 O445 2.384 . S
Eu433 O448 2.479 . S
Eu433 O449 2.471 . S
Eu433 O450 2.347 . S
Eu433 O453 2.366 . S
Eu433 C463 2.825 . S
C434 O450 1.259 . S
C434 O451 1.265 . S
C435 O452 1.255 . S
C435 O453 1.265 . S
C436 C438 1.380 . S
C436 C439 1.374 . S
C436 C442 1.507 . S
C437 C438 1.384 . S
C437 C441 1.387 . S
C437 H464 0.930 . S
C438 C436 1.380 . S
C438 C437 1.384 . S
C438 H465 0.931 . S
C439 C436 1.374 . S
C439 C440 1.390 . S
C439 H466 0.930 . S
C440 C439 1.390 . S
C440 C441 1.391 . S
C440 H467 0.930 . S
C441 C437 1.387 . S
C441 C440 1.391 . S
C442 Tb432 2.825 . S
C442 C436 1.507 . S
C442 O455 1.238 . S
C442 O456 1.247 . S
O443 Tb432 2.347 . S
O443 C447 1.259 . S
O444 Eu433 2.418 . S
O444 C447 1.265 . S
O445 Eu433 2.384 . S
O445 C454 1.255 . S
O446 Tb432 2.366 . S
O446 C454 1.265 . S
C447 O443 1.259 . S
C447 O444 1.265 . S
O448 Eu433 2.479 . S
O448 C463 1.238 . S
O449 Eu433 2.471 . S
O449 C463 1.247 . S
O450 Eu433 2.347 . S
O450 C434 1.259 . S
O451 Tb432 2.418 . S
O451 C434 1.265 . S
O452 Tb432 2.384 . S
O452 C435 1.255 . S
O453 Eu433 2.366 . S
O453 C435 1.265 . S
C454 O445 1.255 . S
C454 O446 1.265 . S
O455 Tb432 2.479 . S
O455 C442 1.238 . S
O456 Tb432 2.471 . S
O456 C442 1.247 . S
C457 C460 1.380 . S
C457 C461 1.374 . S
C457 C463 1.507 . S
C458 C459 1.387 . S
C458 C462 1.391 . S
C459 C458 1.387 . S
C459 C460 1.384 . S
C459 H468 0.930 . S
C460 C457 1.380 . S
C460 C459 1.384 . S
C460 H469 0.931 . S
C461 C457 1.374 . S
C461 C462 1.390 . S
C461 H470 0.930 . S
C462 C458 1.391 . S
C462 C461 1.390 . S
C462 H471 0.930 . S
C463 Eu433 2.825 . S
C463 O448 1.238 . S
C463 O449 1.247 . S
C463 C457 1.507 . S
H464 C437 0.930 . S
H465 C438 0.931 . S
H466 C439 0.930 . S
H467 C440 0.930 . S
H468 C459 0.930 . S
H469 C460 0.931 . S
H470 C461 0.930 . S
H471 C462 0.930 . S
Tb472 C482 2.825 . S
Tb472 O483 2.347 . S
Tb472 O486 2.366 . S
Tb472 O491 2.418 . S
Tb472 O492 2.384 1_545 S
Tb472 O495 2.479 . S
Tb472 O496 2.471 . S
Eu473 O484 2.418 . S
Eu473 O485 2.384 . S
Eu473 O488 2.479 . S
Eu473 O489 2.471 . S
Eu473 O490 2.347 . S
Eu473 O493 2.366 . S
Eu473 C503 2.825 . S
C474 O490 1.259 . S
C474 O491 1.265 . S
C475 O492 1.255 . S
C475 O493 1.265 1_565 S
C476 C478 1.380 . S
C476 C479 1.374 1_455 S
C476 C482 1.507 . S
C477 C478 1.384 . S
C477 C481 1.387 1_455 S
C477 H504 0.930 . S
C478 C476 1.380 . S
C478 C477 1.384 . S
C478 H505 0.931 . S
C479 C476 1.374 1_655 S
C479 C480 1.390 . S
C479 H506 0.930 . S
C480 C479 1.390 . S
C480 C481 1.391 . S
C480 H507 0.930 . S
C481 C477 1.387 1_655 S
C481 C480 1.391 . S
C482 Tb472 2.825 . S
C482 C476 1.507 . S
C482 O495 1.238 . S
C482 O496 1.247 . S
O483 Tb472 2.347 . S
O483 C487 1.259 . S
O484 Eu473 2.418 . S
O484 C487 1.265 . S
O485 Eu473 2.384 . S
O485 C494 1.255 . S
O486 Tb472 2.366 . S
O486 C494 1.265 . S
C487 O483 1.259 . S
C487 O484 1.265 . S
O488 Eu473 2.479 . S
O488 C503 1.238 . S
O489 Eu473 2.471 . S
O489 C503 1.247 . S
O490 Eu473 2.347 . S
O490 C474 1.259 . S
O491 Tb472 2.418 . S
O491 C474 1.265 . S
O492 Tb472 2.384 1_565 S
O492 C475 1.255 . S
O493 Eu473 2.366 . S
O493 C475 1.265 1_545 S
C494 O485 1.255 . S
C494 O486 1.265 . S
O495 Tb472 2.479 . S
O495 C482 1.238 . S
O496 Tb472 2.471 . S
O496 C482 1.247 . S
C497 C500 1.380 . S
C497 C501 1.374 . S
C497 C503 1.507 . S
C498 C499 1.387 . S
C498 C502 1.391 . S
C499 C498 1.387 . S
C499 C500 1.384 . S
C499 H508 0.930 . S
C500 C497 1.380 . S
C500 C499 1.384 . S
C500 H509 0.931 . S
C501 C497 1.374 . S
C501 C502 1.390 . S
C501 H510 0.930 . S
C502 C498 1.391 . S
C502 C501 1.390 . S
C502 H511 0.930 . S
C503 Eu473 2.825 . S
C503 O488 1.238 . S
C503 O489 1.247 . S
C503 C497 1.507 . S
H504 C477 0.930 . S
H505 C478 0.931 . S
H506 C479 0.930 . S
H507 C480 0.930 . S
H508 C499 0.930 . S
H509 C500 0.931 . S
H510 C501 0.930 . S
H511 C502 0.930 . S
Tb512 C522 2.825 . S
Tb512 O523 2.347 . S
Tb512 O526 2.366 . S
Tb512 O531 2.418 . S
Tb512 O532 2.384 . S
Tb512 O535 2.479 . S
Tb512 O536 2.471 . S
Eu513 O524 2.418 . S
Eu513 O525 2.384 . S
Eu513 O528 2.479 . S
Eu513 O529 2.471 . S
Eu513 O530 2.347 . S
Eu513 O533 2.366 . S
Eu513 C543 2.825 . S
C514 O530 1.259 . S
C514 O531 1.265 . S
C515 O532 1.255 . S
C515 O533 1.265 . S
C516 C518 1.380 . S
C516 C519 1.374 . S
C516 C522 1.507 . S
C517 C518 1.384 . S
C517 C521 1.387 . S
C517 H544 0.930 . S
C518 C516 1.380 . S
C518 C517 1.384 . S
C518 H545 0.931 . S
C519 C516 1.374 . S
C519 C520 1.390 . S
C519 H546 0.930 . S
C520 C519 1.390 . S
C520 C521 1.391 . S
C520 H547 0.930 . S
C521 C517 1.387 . S
C521 C520 1.391 . S
C522 Tb512 2.825 . S
C522 C516 1.507 . S
C522 O535 1.238 . S
C522 O536 1.247 . S
O523 Tb512 2.347 . S
O523 C527 1.259 . S
O524 Eu513 2.418 . S
O524 C527 1.265 . S
O525 Eu513 2.384 . S
O525 C534 1.255 . S
O526 Tb512 2.366 . S
O526 C534 1.265 . S
C527 O523 1.259 . S
C527 O524 1.265 . S
O528 Eu513 2.479 . S
O528 C543 1.238 . S
O529 Eu513 2.471 . S
O529 C543 1.247 . S
O530 Eu513 2.347 . S
O530 C514 1.259 . S
O531 Tb512 2.418 . S
O531 C514 1.265 . S
O532 Tb512 2.384 . S
O532 C515 1.255 . S
O533 Eu513 2.366 . S
O533 C515 1.265 . S
C534 O525 1.255 . S
C534 O526 1.265 . S
O535 Tb512 2.479 . S
O535 C522 1.238 . S
O536 Tb512 2.471 . S
O536 C522 1.247 . S
C537 C540 1.380 . S
C537 C541 1.374 . S
C537 C543 1.507 . S
C538 C539 1.387 . S
C538 C542 1.391 . S
C539 C538 1.387 . S
C539 C540 1.384 . S
C539 H548 0.930 . S
C540 C537 1.380 . S
C540 C539 1.384 . S
C540 H549 0.931 . S
C541 C537 1.374 . S
C541 C542 1.390 . S
C541 H550 0.930 . S
C542 C538 1.391 . S
C542 C541 1.390 . S
C542 H551 0.930 . S
C543 Eu513 2.825 . S
C543 O528 1.238 . S
C543 O529 1.247 . S
C543 C537 1.507 . S
H544 C517 0.930 . S
H545 C518 0.931 . S
H546 C519 0.930 . S
H547 C520 0.930 . S
H548 C539 0.930 . S
H549 C540 0.931 . S
H550 C541 0.930 . S
H551 C542 0.930 . S
Tb552 C562 2.825 . S
Tb552 O563 2.347 . S
Tb552 O566 2.366 . S
Tb552 O571 2.418 1_545 S
Tb552 O572 2.384 . S
Tb552 O575 2.479 . S
Tb552 O576 2.471 . S
Eu553 O564 2.418 1_556 S
Eu553 O565 2.384 1_556 S
Eu553 O568 2.479 . S
Eu553 O569 2.471 . S
Eu553 O570 2.347 1_556 S
Eu553 O573 2.366 1_556 S
Eu553 C583 2.825 . S
C554 O570 1.259 1_565 S
C554 O571 1.265 . S
C555 O572 1.255 . S
C555 O573 1.265 . S
C556 C558 1.380 1_545 S
C556 C559 1.374 . S
C556 C562 1.507 . S
C557 C558 1.384 . S
C557 C561 1.387 1_565 S
C557 H584 0.930 . S
C558 C556 1.380 1_565 S
C558 C557 1.384 . S
C558 H585 0.931 . S
C559 C556 1.374 . S
C559 C560 1.390 . S
C559 H586 0.930 . S
C560 C559 1.390 . S
C560 C561 1.391 . S
C560 H587 0.930 . S
C561 C557 1.387 1_545 S
C561 C560 1.391 . S
C562 Tb552 2.825 . S
C562 C556 1.507 . S
C562 O575 1.238 . S
C562 O576 1.247 . S
O563 Tb552 2.347 . S
O563 C567 1.259 . S
O564 Eu553 2.418 1_554 S
O564 C567 1.265 . S
O565 Eu553 2.384 1_554 S
O565 C574 1.255 . S
O566 Tb552 2.366 . S
O566 C574 1.265 . S
C567 O563 1.259 . S
C567 O564 1.265 . S
O568 Eu553 2.479 . S
O568 C583 1.238 . S
O569 Eu553 2.471 . S
O569 C583 1.247 . S
O570 Eu553 2.347 1_554 S
O570 C554 1.259 1_545 S
O571 Tb552 2.418 1_565 S
O571 C554 1.265 . S
O572 Tb552 2.384 . S
O572 C555 1.255 . S
O573 Eu553 2.366 1_554 S
O573 C555 1.265 . S
C574 O565 1.255 . S
C574 O566 1.265 . S
O575 Tb552 2.479 . S
O575 C562 1.238 . S
O576 Tb552 2.471 . S
O576 C562 1.247 . S
C577 C580 1.380 . S
C577 C581 1.374 . S
C577 C583 1.507 . S
C578 C579 1.387 . S
C578 C582 1.391 . S
C579 C578 1.387 . S
C579 C580 1.384 . S
C579 H588 0.930 . S
C580 C577 1.380 . S
C580 C579 1.384 . S
C580 H589 0.931 . S
C581 C577 1.374 . S
C581 C582 1.390 . S
C581 H590 0.930 . S
C582 C578 1.391 . S
C582 C581 1.390 . S
C582 H591 0.930 . S
C583 Eu553 2.825 . S
C583 O568 1.238 . S
C583 O569 1.247 . S
C583 C577 1.507 . S
H584 C557 0.930 . S
H585 C558 0.931 . S
H586 C559 0.930 . S
H587 C560 0.930 . S
H588 C579 0.930 . S
H589 C580 0.931 . S
H590 C581 0.930 . S
H591 C582 0.930 . S
Tb592 C602 2.825 . S
Tb592 O603 2.347 . S
Tb592 O606 2.366 . S
Tb592 O611 2.418 . S
Tb592 O612 2.384 . S
Tb592 O615 2.479 . S
Tb592 O616 2.471 . S
Eu593 O604 2.418 . S
Eu593 O605 2.384 . S
Eu593 O608 2.479 . S
Eu593 O609 2.471 . S
Eu593 O610 2.347 . S
Eu593 O613 2.366 . S
Eu593 C623 2.825 . S
C594 O610 1.259 . S
C594 O611 1.265 . S
C595 O612 1.255 . S
C595 O613 1.265 . S
C596 C598 1.380 . S
C596 C599 1.374 . S
C596 C602 1.507 . S
C597 C598 1.384 . S
C597 C601 1.387 . S
C597 H624 0.930 . S
C598 C596 1.380 . S
C598 C597 1.384 . S
C598 H625 0.931 . S
C599 C596 1.374 . S
C599 C600 1.390 . S
C599 H626 0.930 . S
C600 C599 1.390 . S
C600 C601 1.391 . S
C600 H627 0.930 . S
C601 C597 1.387 . S
C601 C600 1.391 . S
C602 Tb592 2.825 . S
C602 C596 1.507 . S
C602 O615 1.238 . S
C602 O616 1.247 . S
O603 Tb592 2.347 . S
O603 C607 1.259 . S
O604 Eu593 2.418 . S
O604 C607 1.265 . S
O605 Eu593 2.384 . S
O605 C614 1.255 . S
O606 Tb592 2.366 . S
O606 C614 1.265 . S
C607 O603 1.259 . S
C607 O604 1.265 . S
O608 Eu593 2.479 . S
O608 C623 1.238 . S
O609 Eu593 2.471 . S
O609 C623 1.247 . S
O610 Eu593 2.347 . S
O610 C594 1.259 . S
O611 Tb592 2.418 . S
O611 C594 1.265 . S
O612 Tb592 2.384 . S
O612 C595 1.255 . S
O613 Eu593 2.366 . S
O613 C595 1.265 . S
C614 O605 1.255 . S
C614 O606 1.265 . S
O615 Tb592 2.479 . S
O615 C602 1.238 . S
O616 Tb592 2.471 . S
O616 C602 1.247 . S
C617 C620 1.380 . S
C617 C621 1.374 . S
C617 C623 1.507 . S
C618 C619 1.387 . S
C618 C622 1.391 . S
C619 C618 1.387 . S
C619 C620 1.384 . S
C619 H628 0.930 . S
C620 C617 1.380 . S
C620 C619 1.384 . S
C620 H629 0.931 . S
C621 C617 1.374 . S
C621 C622 1.390 . S
C621 H630 0.930 . S
C622 C618 1.391 . S
C622 C621 1.390 . S
C622 H631 0.930 . S
C623 Eu593 2.825 . S
C623 O608 1.238 . S
C623 O609 1.247 . S
C623 C617 1.507 . S
H624 C597 0.930 . S
H625 C598 0.931 . S
H626 C599 0.930 . S
H627 C600 0.930 . S
H628 C619 0.930 . S
H629 C620 0.931 . S
H630 C621 0.930 . S
H631 C622 0.930 . S
Tb632 C642 2.825 . S
Tb632 O643 2.347 1_556 S
Tb632 O646 2.366 . S
Tb632 O651 2.417 . S
Tb632 O652 2.384 1_556 S
Tb632 O655 2.479 . S
Tb632 O656 2.471 . S
Eu633 O644 2.418 . S
Eu633 O645 2.384 . S
Eu633 O648 2.479 . S
Eu633 O649 2.471 . S
Eu633 O650 2.347 . S
Eu633 O653 2.366 . S
Eu633 C663 2.825 . S
C634 O650 1.259 . S
C634 O651 1.253 1_554 S
C635 O652 1.255 . S
C635 O653 1.265 . S
C636 C638 1.380 . S
C636 C639 1.374 . S
C636 C642 1.507 . S
C637 C638 1.384 . S
C637 C641 1.387 . S
C637 H664 0.930 . S
C638 C636 1.380 . S
C638 C637 1.384 . S
C638 H665 0.931 . S
C639 C636 1.374 . S
C639 C640 1.390 . S
C639 H666 0.930 . S
C640 C639 1.390 . S
C640 C641 1.391 . S
C640 H667 0.930 . S
C641 C637 1.387 . S
C641 C640 1.391 . S
C642 Tb632 2.825 . S
C642 C636 1.507 . S
C642 O655 1.238 . S
C642 O656 1.247 . S
O643 Tb632 2.347 1_554 S
O643 C647 1.259 . S
O644 Eu633 2.418 . S
O644 C647 1.265 . S
O645 Eu633 2.384 . S
O645 C654 1.255 . S
O646 Tb632 2.366 . S
O646 C654 1.265 1_556 S
C647 O643 1.259 . S
C647 O644 1.265 . S
O648 Eu633 2.479 . S
O648 C663 1.238 . S
O649 Eu633 2.471 . S
O649 C663 1.247 . S
O650 Eu633 2.347 . S
O650 C634 1.259 . S
O651 Tb632 2.417 . S
O651 C634 1.253 1_556 S
O652 Tb632 2.384 1_554 S
O652 C635 1.255 . S
O653 Eu633 2.366 . S
O653 C635 1.265 . S
C654 O645 1.255 . S
C654 O646 1.265 1_554 S
O655 Tb632 2.479 . S
O655 C642 1.238 . S
O656 Tb632 2.471 . S
O656 C642 1.247 . S
C657 C660 1.380 . S
C657 C661 1.374 . S
C657 C663 1.507 . S
C658 C659 1.387 . S
C658 C662 1.391 . S
C659 C658 1.387 . S
C659 C660 1.384 . S
C659 H668 0.930 . S
C660 C657 1.380 . S
C660 C659 1.384 . S
C660 H669 0.931 . S
C661 C657 1.374 . S
C661 C662 1.390 . S
C661 H670 0.930 . S
C662 C658 1.391 . S
C662 C661 1.390 . S
C662 H671 0.930 . S
C663 Eu633 2.825 . S
C663 O648 1.238 . S
C663 O649 1.247 . S
C663 C657 1.507 . S
H664 C637 0.930 . S
H665 C638 0.931 . S
H666 C639 0.930 . S
H667 C640 0.930 . S
H668 C659 0.930 . S
H669 C660 0.931 . S
H670 C661 0.930 . S
H671 C662 0.930 . S
Tb672 C682 2.825 . S
Tb672 O683 2.347 . S
Tb672 O686 2.366 . S
Tb672 O691 2.418 . S
Tb672 O692 2.384 . S
Tb672 O695 2.479 . S
Tb672 O696 2.471 . S
Eu673 O684 2.418 . S
Eu673 O685 2.384 . S
Eu673 O688 2.479 . S
Eu673 O689 2.471 . S
Eu673 O690 2.347 . S
Eu673 O693 2.366 . S
Eu673 C703 2.825 . S
C674 O690 1.259 . S
C674 O691 1.265 . S
C675 O692 1.255 . S
C675 O693 1.265 . S
C676 C678 1.380 . S
C676 C679 1.374 . S
C676 C682 1.507 . S
C677 C678 1.384 . S
C677 C681 1.387 . S
C677 H704 0.930 . S
C678 C676 1.380 . S
C678 C677 1.384 . S
C678 H705 0.931 . S
C679 C676 1.374 . S
C679 C680 1.390 . S
C679 H706 0.930 . S
C680 C679 1.390 . S
C680 C681 1.391 . S
C680 H707 0.930 . S
C681 C677 1.387 . S
C681 C680 1.391 . S
C682 Tb672 2.825 . S
C682 C676 1.507 . S
C682 O695 1.238 . S
C682 O696 1.247 . S
O683 Tb672 2.347 . S
O683 C687 1.259 . S
O684 Eu673 2.418 . S
O684 C687 1.265 . S
O685 Eu673 2.384 . S
O685 C694 1.255 . S
O686 Tb672 2.366 . S
O686 C694 1.265 . S
C687 O683 1.259 . S
C687 O684 1.265 . S
O688 Eu673 2.479 . S
O688 C703 1.238 . S
O689 Eu673 2.471 . S
O689 C703 1.247 . S
O690 Eu673 2.347 . S
O690 C674 1.259 . S
O691 Tb672 2.418 . S
O691 C674 1.265 . S
O692 Tb672 2.384 . S
O692 C675 1.255 . S
O693 Eu673 2.366 . S
O693 C675 1.265 . S
C694 O685 1.255 . S
C694 O686 1.265 . S
O695 Tb672 2.479 . S
O695 C682 1.238 . S
O696 Tb672 2.471 . S
O696 C682 1.247 . S
C697 C700 1.380 . S
C697 C701 1.374 . S
C697 C703 1.507 . S
C698 C699 1.387 . S
C698 C702 1.391 . S
C699 C698 1.387 . S
C699 C700 1.384 . S
C699 H708 0.930 . S
C700 C697 1.380 . S
C700 C699 1.384 . S
C700 H709 0.931 . S
C701 C697 1.374 . S
C701 C702 1.390 . S
C701 H710 0.930 . S
C702 C698 1.391 . S
C702 C701 1.390 . S
C702 H711 0.930 . S
C703 Eu673 2.825 . S
C703 O688 1.238 . S
C703 O689 1.247 . S
C703 C697 1.507 . S
H704 C677 0.930 . S
H705 C678 0.931 . S
H706 C679 0.930 . S
H707 C680 0.930 . S
H708 C699 0.930 . S
H709 C700 0.931 . S
H710 C701 0.930 . S
H711 C702 0.930 . S
Tb712 C722 2.825 . S
Tb712 O723 2.347 . S
Tb712 O726 2.366 . S
Tb712 O731 2.418 . S
Tb712 O732 2.384 . S
Tb712 O735 2.479 . S
Tb712 O736 2.471 . S
Eu713 O724 2.418 . S
Eu713 O725 2.384 . S
Eu713 O728 2.479 . S
Eu713 O729 2.471 . S
Eu713 O730 2.347 . S
Eu713 O733 2.366 . S
Eu713 C743 2.825 . S
C714 O730 1.259 . S
C714 O731 1.265 . S
C715 O732 1.255 . S
C715 O733 1.265 . S
C716 C718 1.380 . S
C716 C719 1.374 . S
C716 C722 1.507 . S
C717 C718 1.384 . S
C717 C721 1.387 . S
C717 H744 0.930 . S
C718 C716 1.380 . S
C718 C717 1.384 . S
C718 H745 0.931 . S
C719 C716 1.374 . S
C719 C720 1.390 . S
C719 H746 0.930 . S
C720 C719 1.390 . S
C720 C721 1.391 . S
C720 H747 0.930 . S
C721 C717 1.387 . S
C721 C720 1.391 . S
C722 Tb712 2.825 . S
C722 C716 1.507 . S
C722 O735 1.238 . S
C722 O736 1.247 . S
O723 Tb712 2.347 . S
O723 C727 1.259 . S
O724 Eu713 2.418 . S
O724 C727 1.265 . S
O725 Eu713 2.384 . S
O725 C734 1.255 . S
O726 Tb712 2.366 . S
O726 C734 1.265 . S
C727 O723 1.259 . S
C727 O724 1.265 . S
O728 Eu713 2.479 . S
O728 C743 1.238 . S
O729 Eu713 2.471 . S
O729 C743 1.247 . S
O730 Eu713 2.347 . S
O730 C714 1.259 . S
O731 Tb712 2.418 . S
O731 C714 1.265 . S
O732 Tb712 2.384 . S
O732 C715 1.255 . S
O733 Eu713 2.366 . S
O733 C715 1.265 . S
C734 O725 1.255 . S
C734 O726 1.265 . S
O735 Tb712 2.479 . S
O735 C722 1.238 . S
O736 Tb712 2.471 . S
O736 C722 1.247 . S
C737 C740 1.380 . S
C737 C741 1.374 . S
C737 C743 1.507 . S
C738 C739 1.387 . S
C738 C742 1.391 . S
C739 C738 1.387 . S
C739 C740 1.384 . S
C739 H748 0.930 . S
C740 C737 1.380 . S
C740 C739 1.384 . S
C740 H749 0.931 . S
C741 C737 1.374 . S
C741 C742 1.390 . S
C741 H750 0.930 . S
C742 C738 1.391 . S
C742 C741 1.390 . S
C742 H751 0.930 . S
C743 Eu713 2.825 . S
C743 O728 1.238 . S
C743 O729 1.247 . S
C743 C737 1.507 . S
H744 C717 0.930 . S
H745 C718 0.931 . S
H746 C719 0.930 . S
H747 C720 0.930 . S
H748 C739 0.930 . S
H749 C740 0.931 . S
H750 C741 0.930 . S
H751 C742 0.930 . S
Tb752 C762 2.825 . S
Tb752 O763 2.347 . S
Tb752 O766 2.366 . S
Tb752 O771 2.418 . S
Tb752 O772 2.384 . S
Tb752 O775 2.479 . S
Tb752 O776 2.471 . S
Eu753 O764 2.418 . S
Eu753 O765 2.384 . S
Eu753 O768 2.479 . S
Eu753 O769 2.471 . S
Eu753 O770 2.347 . S
Eu753 O773 2.366 . S
Eu753 C783 2.825 . S
C754 O770 1.259 . S
C754 O771 1.265 . S
C755 O772 1.255 . S
C755 O773 1.265 . S
C756 C758 1.380 . S
C756 C759 1.374 . S
C756 C762 1.507 . S
C757 C758 1.384 . S
C757 C761 1.387 . S
C757 H784 0.930 . S
C758 C756 1.380 . S
C758 C757 1.384 . S
C758 H785 0.931 . S
C759 C756 1.374 . S
C759 C760 1.390 . S
C759 H786 0.930 . S
C760 C759 1.390 . S
C760 C761 1.391 . S
C760 H787 0.930 . S
C761 C757 1.387 . S
C761 C760 1.391 . S
C762 Tb752 2.825 . S
C762 C756 1.507 . S
C762 O775 1.238 . S
C762 O776 1.247 . S
O763 Tb752 2.347 . S
O763 C767 1.259 . S
O764 Eu753 2.418 . S
O764 C767 1.265 . S
O765 Eu753 2.384 . S
O765 C774 1.255 . S
O766 Tb752 2.366 . S
O766 C774 1.265 . S
C767 O763 1.259 . S
C767 O764 1.265 . S
O768 Eu753 2.479 . S
O768 C783 1.238 . S
O769 Eu753 2.471 . S
O769 C783 1.247 . S
O770 Eu753 2.347 . S
O770 C754 1.259 . S
O771 Tb752 2.418 . S
O771 C754 1.265 . S
O772 Tb752 2.384 . S
O772 C755 1.255 . S
O773 Eu753 2.366 . S
O773 C755 1.265 . S
C774 O765 1.255 . S
C774 O766 1.265 . S
O775 Tb752 2.479 . S
O775 C762 1.238 . S
O776 Tb752 2.471 . S
O776 C762 1.247 . S
C777 C780 1.380 . S
C777 C781 1.374 . S
C777 C783 1.507 . S
C778 C779 1.387 . S
C778 C782 1.391 . S
C779 C778 1.387 . S
C779 C780 1.384 . S
C779 H788 0.930 . S
C780 C777 1.380 . S
C780 C779 1.384 . S
C780 H789 0.931 . S
C781 C777 1.374 . S
C781 C782 1.390 . S
C781 H790 0.930 . S
C782 C778 1.391 . S
C782 C781 1.390 . S
C782 H791 0.930 . S
C783 Eu753 2.825 . S
C783 O768 1.238 . S
C783 O769 1.247 . S
C783 C777 1.507 . S
H784 C757 0.930 . S
H785 C758 0.931 . S
H786 C759 0.930 . S
H787 C760 0.930 . S
H788 C779 0.930 . S
H789 C780 0.931 . S
H790 C781 0.930 . S
H791 C782 0.930 . S
Tb792 C802 2.825 . S
Tb792 O803 2.347 . S
Tb792 O806 2.366 . S
Tb792 O811 2.418 . S
Tb792 O812 2.384 . S
Tb792 O815 2.479 . S
Tb792 O816 2.471 . S
Eu793 O804 2.418 . S
Eu793 O805 2.384 . S
Eu793 O808 2.479 . S
Eu793 O809 2.471 . S
Eu793 O810 2.347 . S
Eu793 O813 2.366 . S
Eu793 C823 2.825 . S
C794 O810 1.259 . S
C794 O811 1.265 . S
C795 O812 1.255 . S
C795 O813 1.265 . S
C796 C798 1.380 . S
C796 C799 1.374 . S
C796 C802 1.507 . S
C797 C798 1.384 . S
C797 C801 1.387 . S
C797 H824 0.930 . S
C798 C796 1.380 . S
C798 C797 1.384 . S
C798 H825 0.931 . S
C799 C796 1.374 . S
C799 C800 1.390 . S
C799 H826 0.930 . S
C800 C799 1.390 . S
C800 C801 1.391 . S
C800 H827 0.930 . S
C801 C797 1.387 . S
C801 C800 1.391 . S
C802 Tb792 2.825 . S
C802 C796 1.507 . S
C802 O815 1.238 . S
C802 O816 1.247 . S
O803 Tb792 2.347 . S
O803 C807 1.259 . S
O804 Eu793 2.418 . S
O804 C807 1.265 . S
O805 Eu793 2.384 . S
O805 C814 1.255 . S
O806 Tb792 2.366 . S
O806 C814 1.265 . S
C807 O803 1.259 . S
C807 O804 1.265 . S
O808 Eu793 2.479 . S
O808 C823 1.238 . S
O809 Eu793 2.471 . S
O809 C823 1.247 . S
O810 Eu793 2.347 . S
O810 C794 1.259 . S
O811 Tb792 2.418 . S
O811 C794 1.265 . S
O812 Tb792 2.384 . S
O812 C795 1.255 . S
O813 Eu793 2.366 . S
O813 C795 1.265 . S
C814 O805 1.255 . S
C814 O806 1.265 . S
O815 Tb792 2.479 . S
O815 C802 1.238 . S
O816 Tb792 2.471 . S
O816 C802 1.247 . S
C817 C820 1.380 . S
C817 C821 1.374 . S
C817 C823 1.507 . S
C818 C819 1.387 . S
C818 C822 1.391 . S
C819 C818 1.387 . S
C819 C820 1.384 . S
C819 H828 0.930 . S
C820 C817 1.380 . S
C820 C819 1.384 . S
C820 H829 0.931 . S
C821 C817 1.374 . S
C821 C822 1.390 . S
C821 H830 0.930 . S
C822 C818 1.391 . S
C822 C821 1.390 . S
C822 H831 0.930 . S
C823 Eu793 2.825 . S
C823 O808 1.238 . S
C823 O809 1.247 . S
C823 C817 1.507 . S
H824 C797 0.930 . S
H825 C798 0.931 . S
H826 C799 0.930 . S
H827 C800 0.930 . S
H828 C819 0.930 . S
H829 C820 0.931 . S
H830 C821 0.930 . S
H831 C822 0.930 . S
Tb832 C842 2.825 . S
Tb832 O843 2.347 . S
Tb832 O846 2.366 . S
Tb832 O851 2.418 . S
Tb832 O852 2.384 . S
Tb832 O855 2.479 . S
Tb832 O856 2.471 . S
Eu833 O844 2.418 . S
Eu833 O845 2.384 . S
Eu833 O848 2.479 . S
Eu833 O849 2.471 . S
Eu833 O850 2.347 . S
Eu833 O853 2.366 . S
Eu833 C863 2.825 . S
C834 O850 1.259 . S
C834 O851 1.265 . S
C835 O852 1.255 . S
C835 O853 1.265 . S
C836 C838 1.380 . S
C836 C839 1.374 . S
C836 C842 1.507 . S
C837 C838 1.384 . S
C837 C841 1.387 . S
C837 H864 0.930 . S
C838 C836 1.380 . S
C838 C837 1.384 . S
C838 H865 0.931 . S
C839 C836 1.374 . S
C839 C840 1.390 . S
C839 H866 0.930 . S
C840 C839 1.390 . S
C840 C841 1.391 . S
C840 H867 0.930 . S
C841 C837 1.387 . S
C841 C840 1.391 . S
C842 Tb832 2.825 . S
C842 C836 1.507 . S
C842 O855 1.238 . S
C842 O856 1.247 . S
O843 Tb832 2.347 . S
O843 C847 1.259 . S
O844 Eu833 2.418 . S
O844 C847 1.265 . S
O845 Eu833 2.384 . S
O845 C854 1.255 . S
O846 Tb832 2.366 . S
O846 C854 1.265 . S
C847 O843 1.259 . S
C847 O844 1.265 . S
O848 Eu833 2.479 . S
O848 C863 1.238 . S
O849 Eu833 2.471 . S
O849 C863 1.247 . S
O850 Eu833 2.347 . S
O850 C834 1.259 . S
O851 Tb832 2.418 . S
O851 C834 1.265 . S
O852 Tb832 2.384 . S
O852 C835 1.255 . S
O853 Eu833 2.366 . S
O853 C835 1.265 . S
C854 O845 1.255 . S
C854 O846 1.265 . S
O855 Tb832 2.479 . S
O855 C842 1.238 . S
O856 Tb832 2.471 . S
O856 C842 1.247 . S
C857 C860 1.380 . S
C857 C861 1.374 . S
C857 C863 1.507 . S
C858 C859 1.387 . S
C858 C862 1.391 . S
C859 C858 1.387 . S
C859 C860 1.384 . S
C859 H868 0.930 . S
C860 C857 1.380 . S
C860 C859 1.384 . S
C860 H869 0.931 . S
C861 C857 1.374 . S
C861 C862 1.390 . S
C861 H870 0.930 . S
C862 C858 1.391 . S
C862 C861 1.390 . S
C862 H871 0.930 . S
C863 Eu833 2.825 . S
C863 O848 1.238 . S
C863 O849 1.247 . S
C863 C857 1.507 . S
H864 C837 0.930 . S
H865 C838 0.931 . S
H866 C839 0.930 . S
H867 C840 0.930 . S
H868 C859 0.930 . S
H869 C860 0.931 . S
H870 C861 0.930 . S
H871 C862 0.930 . S
Tb872 C882 2.825 . S
Tb872 O883 2.347 . S
Tb872 O886 2.366 . S
Tb872 O891 2.418 . S
Tb872 O892 2.384 . S
Tb872 O895 2.479 . S
Tb872 O896 2.471 . S
Eu873 O884 2.418 . S
Eu873 O885 2.384 . S
Eu873 O888 2.479 . S
Eu873 O889 2.471 . S
Eu873 O890 2.347 . S
Eu873 O893 2.366 . S
Eu873 C903 2.825 . S
C874 O890 1.259 . S
C874 O891 1.265 . S
C875 O892 1.255 . S
C875 O893 1.265 . S
C876 C878 1.380 . S
C876 C879 1.374 . S
C876 C882 1.507 . S
C877 C878 1.384 . S
C877 C881 1.387 . S
C877 H904 0.930 . S
C878 C876 1.380 . S
C878 C877 1.384 . S
C878 H905 0.931 . S
C879 C876 1.374 . S
C879 C880 1.390 . S
C879 H906 0.930 . S
C880 C879 1.390 . S
C880 C881 1.391 . S
C880 H907 0.930 . S
C881 C877 1.387 . S
C881 C880 1.391 . S
C882 Tb872 2.825 . S
C882 C876 1.507 . S
C882 O895 1.238 . S
C882 O896 1.247 . S
O883 Tb872 2.347 . S
O883 C887 1.259 . S
O884 Eu873 2.418 . S
O884 C887 1.265 . S
O885 Eu873 2.384 . S
O885 C894 1.255 . S
O886 Tb872 2.366 . S
O886 C894 1.265 . S
C887 O883 1.259 . S
C887 O884 1.265 . S
O888 Eu873 2.479 . S
O888 C903 1.238 . S
O889 Eu873 2.471 . S
O889 C903 1.247 . S
O890 Eu873 2.347 . S
O890 C874 1.259 . S
O891 Tb872 2.418 . S
O891 C874 1.265 . S
O892 Tb872 2.384 . S
O892 C875 1.255 . S
O893 Eu873 2.366 . S
O893 C875 1.265 . S
C894 O885 1.255 . S
C894 O886 1.265 . S
O895 Tb872 2.479 . S
O895 C882 1.238 . S
O896 Tb872 2.471 . S
O896 C882 1.247 . S
C897 C900 1.380 . S
C897 C901 1.374 . S
C897 C903 1.507 . S
C898 C899 1.387 . S
C898 C902 1.391 . S
C899 C898 1.387 . S
C899 C900 1.384 . S
C899 H908 0.930 . S
C900 C897 1.380 . S
C900 C899 1.384 . S
C900 H909 0.931 . S
C901 C897 1.374 . S
C901 C902 1.390 . S
C901 H910 0.930 . S
C902 C898 1.391 . S
C902 C901 1.390 . S
C902 H911 0.930 . S
C903 Eu873 2.825 . S
C903 O888 1.238 . S
C903 O889 1.247 . S
C903 C897 1.507 . S
H904 C877 0.930 . S
H905 C878 0.931 . S
H906 C879 0.930 . S
H907 C880 0.930 . S
H908 C899 0.930 . S
H909 C900 0.931 . S
H910 C901 0.930 . S
H911 C902 0.930 . S
Tb912 C922 2.815 1_554 S
Tb912 O923 2.347 1_554 S
Tb912 O926 2.366 . S
Tb912 O931 2.418 . S
Tb912 O932 2.384 . S
Tb912 O935 2.479 . S
Tb912 O936 2.471 1_554 S
Eu913 O924 2.418 1_554 S
Eu913 O925 2.384 . S
Eu913 O928 2.479 . S
Eu913 O929 2.471 . S
Eu913 O930 2.347 . S
Eu913 O933 2.366 . S
Eu913 C943 2.825 . S
C914 O930 1.259 . S
C914 O931 1.265 . S
C915 O932 1.255 . S
C915 O933 1.265 . S
C916 C918 1.353 1_556 S
C916 C919 1.374 . S
C916 C922 1.517 . S
C917 C918 1.368 1_556 S
C917 C921 1.387 . S
C917 H944 0.961 . S
C918 C916 1.353 1_554 S
C918 C917 1.368 1_554 S
C918 H945 0.975 . S
C919 C916 1.374 . S
C919 C920 1.390 . S
C919 H946 0.930 . S
C920 C919 1.390 . S
C920 C921 1.391 . S
C920 H947 0.930 . S
C921 C917 1.387 . S
C921 C920 1.391 . S
C922 Tb912 2.815 1_556 S
C922 C916 1.517 . S
C922 O935 1.209 1_556 S
C922 O936 1.266 . S
O923 Tb912 2.347 1_556 S
O923 C927 1.259 . S
O924 Eu913 2.418 1_556 S
O924 C927 1.265 . S
O925 Eu913 2.384 . S
O925 C934 1.255 . S
O926 Tb912 2.366 . S
O926 C934 1.265 . S
C927 O923 1.259 . S
C927 O924 1.265 . S
O928 Eu913 2.479 . S
O928 C943 1.238 . S
O929 Eu913 2.471 . S
O929 C943 1.247 . S
O930 Eu913 2.347 . S
O930 C914 1.259 . S
O931 Tb912 2.418 . S
O931 C914 1.265 . S
O932 Tb912 2.384 . S
O932 C915 1.255 . S
O933 Eu913 2.366 . S
O933 C915 1.265 . S
C934 O925 1.255 . S
C934 O926 1.265 . S
O935 Tb912 2.479 . S
O935 C922 1.209 1_554 S
O936 Tb912 2.471 1_556 S
O936 C922 1.266 . S
C937 C940 1.380 . S
C937 C941 1.374 . S
C937 C943 1.507 . S
C938 C939 1.387 . S
C938 C942 1.391 . S
C939 C938 1.387 . S
C939 C940 1.384 . S
C939 H948 0.930 . S
C940 C937 1.380 . S
C940 C939 1.384 . S
C940 H949 0.931 . S
C941 C937 1.374 . S
C941 C942 1.390 . S
C941 H950 0.930 . S
C942 C938 1.391 . S
C942 C941 1.390 . S
C942 H951 0.930 . S
C943 Eu913 2.825 . S
C943 O928 1.238 . S
C943 O929 1.247 . S
C943 C937 1.507 . S
H944 C917 0.961 . S
H945 C918 0.975 . S
H946 C919 0.930 . S
H947 C920 0.930 . S
H948 C939 0.930 . S
H949 C940 0.931 . S
H950 C941 0.930 . S
H951 C942 0.930 . S
C952 C953 1.391 1_455 S
C952 C954 1.394 . S
C952 H968 0.931 . S
C953 C952 1.391 1_655 S
C953 C957 1.376 . S
C954 C952 1.394 . S
C954 C955 1.369 . S
C954 C958 1.531 . S
C955 C954 1.369 . S
C955 C956 1.410 . S
C955 C963 1.503 . S
C956 C955 1.410 . S
C956 C957 1.392 1_455 S
C956 C959 1.511 . S
C957 C953 1.376 . S
C957 C956 1.392 1_655 S
C957 H969 0.929 . S
C958 C954 1.531 . S
C958 H970 0.960 1_556 S
C958 H971 0.962 . S
C958 H972 0.960 . S
C959 C956 1.511 . S
C959 H973 0.961 . S
C959 H974 0.961 . S
C959 H975 0.961 1_455 S
C960 C961 1.370 . S
C960 C962 1.363 . S
C960 H976 0.931 . S
C961 C960 1.370 . S
C961 C965 1.408 . S
C962 C960 1.363 . S
C962 C963 1.370 . S
C962 C966 1.524 . S
C963 C955 1.503 . S
C963 C962 1.370 . S
C963 C964 1.403 . S
C964 C963 1.403 . S
C964 C965 1.404 . S
C964 C967 1.539 1_455 S
C965 C961 1.408 . S
C965 C964 1.404 . S
C965 H977 0.930 1_455 S
C966 C962 1.524 . S
C966 H978 0.956 . S
C966 H979 0.961 . S
C966 H980 0.961 . S
C967 C964 1.539 1_655 S
C967 H981 0.958 . S
C967 H982 0.961 . S
C967 H983 0.960 . S
H968 C952 0.931 . S
H969 C957 0.929 . S
H970 C958 0.960 1_554 S
H971 C958 0.962 . S
H972 C958 0.960 . S
H973 C959 0.961 . S
H974 C959 0.961 . S
H975 C959 0.961 1_655 S
H976 C960 0.931 . S
H977 C965 0.930 1_655 S
H978 C966 0.956 . S
H979 C966 0.961 . S
H980 C966 0.961 . S
H981 C967 0.958 . S
H982 C967 0.961 . S
H983 C967 0.960 . S
C984 C985 1.391 . S
C984 C986 1.394 . S
C984 H1000 0.931 . S
C985 C984 1.391 . S
C985 C989 1.376 . S
C986 C984 1.394 . S
C986 C987 1.369 . S
C986 C990 1.531 . S
C987 C986 1.369 . S
C987 C988 1.410 . S
C987 C995 1.503 . S
C988 C987 1.410 . S
C988 C989 1.392 . S
C988 C991 1.511 . S
C989 C985 1.376 . S
C989 C988 1.392 . S
C989 H1001 0.929 . S
C990 C986 1.531 . S
C990 H1002 0.960 . S
C990 H1003 0.962 . S
C990 H1004 0.960 . S
C991 C988 1.511 . S
C991 H1005 0.961 . S
C991 H1006 0.961 . S
C991 H1007 0.961 . S
C992 C993 1.370 . S
C992 C994 1.363 . S
C992 H1008 0.931 . S
C993 C992 1.370 . S
C993 C997 1.408 . S
C994 C992 1.363 . S
C994 C995 1.370 . S
C994 C998 1.524 . S
C995 C987 1.503 . S
C995 C994 1.370 . S
C995 C996 1.403 . S
C996 C995 1.403 . S
C996 C997 1.404 . S
C996 C999 1.539 . S
C997 C993 1.408 . S
C997 C996 1.404 . S
C997 H1009 0.930 . S
C998 C994 1.524 . S
C998 H1010 0.956 . S
C998 H1011 0.961 . S
C998 H1012 0.961 . S
C999 C996 1.539 . S
C999 H1013 0.958 . S
C999 H1014 0.961 . S
C999 H1015 0.960 . S
H1000 C984 0.931 . S
H1001 C989 0.929 . S
H1002 C990 0.960 . S
H1003 C990 0.962 . S
H1004 C990 0.960 . S
H1005 C991 0.961 . S
H1006 C991 0.961 . S
H1007 C991 0.961 . S
H1008 C992 0.931 . S
H1009 C997 0.930 . S
H1010 C998 0.956 . S
H1011 C998 0.961 . S
H1012 C998 0.961 . S
H1013 C999 0.958 . S
H1014 C999 0.961 . S
H1015 C999 0.960 . S
C1016 C1017 1.391 . S
C1016 C1018 1.394 . S
C1016 H1032 0.931 . S
C1017 C1016 1.391 . S
C1017 C1021 1.376 . S
C1018 C1016 1.394 . S
C1018 C1019 1.369 . S
C1018 C1022 1.531 . S
C1019 C1018 1.369 . S
C1019 C1020 1.410 . S
C1019 C1027 1.503 . S
C1020 C1019 1.410 . S
C1020 C1021 1.392 . S
C1020 C1023 1.511 . S
C1021 C1017 1.376 . S
C1021 C1020 1.392 . S
C1021 H1033 0.929 . S
C1022 C1018 1.531 . S
C1022 H1034 0.960 . S
C1022 H1035 0.962 . S
C1022 H1036 0.960 . S
C1023 C1020 1.511 . S
C1023 H1037 0.961 . S
C1023 H1038 0.961 . S
C1023 H1039 0.961 . S
C1024 C1025 1.370 . S
C1024 C1026 1.363 . S
C1024 H1040 0.931 . S
C1025 C1024 1.370 . S
C1025 C1029 1.408 . S
C1026 C1024 1.363 . S
C1026 C1027 1.370 . S
C1026 C1030 1.524 . S
C1027 C1019 1.503 . S
C1027 C1026 1.370 . S
C1027 C1028 1.403 . S
C1028 C1027 1.403 . S
C1028 C1029 1.404 . S
C1028 C1031 1.539 . S
C1029 C1025 1.408 . S
C1029 C1028 1.404 . S
C1029 H1041 0.930 . S
C1030 C1026 1.524 . S
C1030 H1042 0.956 . S
C1030 H1043 0.961 . S
C1030 H1044 0.961 . S
C1031 C1028 1.539 . S
C1031 H1045 0.958 . S
C1031 H1046 0.961 . S
C1031 H1047 0.960 . S
H1032 C1016 0.931 . S
H1033 C1021 0.929 . S
H1034 C1022 0.960 . S
H1035 C1022 0.962 . S
H1036 C1022 0.960 . S
H1037 C1023 0.961 . S
H1038 C1023 0.961 . S
H1039 C1023 0.961 . S
H1040 C1024 0.931 . S
H1041 C1029 0.930 . S
H1042 C1030 0.956 . S
H1043 C1030 0.961 . S
H1044 C1030 0.961 . S
H1045 C1031 0.958 . S
H1046 C1031 0.961 . S
H1047 C1031 0.960 . S
C1048 C1049 1.391 . S
C1048 C1050 1.394 . S
C1048 H1064 0.931 . S
C1049 C1048 1.391 . S
C1049 C1053 1.376 . S
C1050 C1048 1.394 . S
C1050 C1051 1.369 . S
C1050 C1054 1.531 . S
C1051 C1050 1.369 . S
C1051 C1052 1.410 . S
C1051 C1059 1.503 . S
C1052 C1051 1.410 . S
C1052 C1053 1.392 . S
C1052 C1055 1.511 . S
C1053 C1049 1.376 . S
C1053 C1052 1.392 . S
C1053 H1065 0.929 . S
C1054 C1050 1.531 . S
C1054 H1066 0.960 . S
C1054 H1067 0.962 . S
C1054 H1068 0.960 . S
C1055 C1052 1.511 . S
C1055 H1069 0.961 . S
C1055 H1070 0.961 . S
C1055 H1071 0.961 . S
C1056 C1057 1.370 . S
C1056 C1058 1.363 . S
C1056 H1072 0.931 . S
C1057 C1056 1.370 . S
C1057 C1061 1.408 . S
C1058 C1056 1.363 . S
C1058 C1059 1.370 . S
C1058 C1062 1.524 . S
C1059 C1051 1.503 . S
C1059 C1058 1.370 . S
C1059 C1060 1.403 . S
C1060 C1059 1.403 . S
C1060 C1061 1.404 . S
C1060 C1063 1.539 . S
C1061 C1057 1.408 . S
C1061 C1060 1.404 . S
C1061 H1073 0.930 . S
C1062 C1058 1.524 . S
C1062 H1074 0.956 . S
C1062 H1075 0.961 . S
C1062 H1076 0.961 . S
C1063 C1060 1.539 . S
C1063 H1077 0.958 . S
C1063 H1078 0.961 . S
C1063 H1079 0.960 . S
H1064 C1048 0.931 . S
H1065 C1053 0.929 . S
H1066 C1054 0.960 . S
H1067 C1054 0.962 . S
H1068 C1054 0.960 . S
H1069 C1055 0.961 . S
H1070 C1055 0.961 . S
H1071 C1055 0.961 . S
H1072 C1056 0.931 . S
H1073 C1061 0.930 . S
H1074 C1062 0.956 . S
H1075 C1062 0.961 . S
H1076 C1062 0.961 . S
H1077 C1063 0.958 . S
H1078 C1063 0.961 . S
H1079 C1063 0.960 . S
C1080 C1081 1.391 . S
C1080 C1082 1.394 . S
C1080 H1096 0.931 . S
C1081 C1080 1.391 . S
C1081 C1085 1.376 . S
C1082 C1080 1.394 . S
C1082 C1083 1.369 . S
C1082 C1086 1.531 . S
C1083 C1082 1.369 . S
C1083 C1084 1.410 . S
C1083 C1091 1.503 . S
C1084 C1083 1.410 . S
C1084 C1085 1.392 . S
C1084 C1087 1.511 . S
C1085 C1081 1.376 . S
C1085 C1084 1.392 . S
C1085 H1097 0.929 . S
C1086 C1082 1.531 . S
C1086 H1098 0.960 . S
C1086 H1099 0.962 . S
C1086 H1100 0.960 . S
C1087 C1084 1.511 . S
C1087 H1101 0.961 . S
C1087 H1102 0.961 . S
C1087 H1103 0.961 . S
C1088 C1089 1.370 . S
C1088 C1090 1.363 . S
C1088 H1104 0.931 . S
C1089 C1088 1.370 . S
C1089 C1093 1.408 . S
C1090 C1088 1.363 . S
C1090 C1091 1.370 . S
C1090 C1094 1.524 . S
C1091 C1083 1.503 . S
C1091 C1090 1.370 . S
C1091 C1092 1.403 . S
C1092 C1091 1.403 . S
C1092 C1093 1.404 . S
C1092 C1095 1.539 . S
C1093 C1089 1.408 . S
C1093 C1092 1.404 . S
C1093 H1105 0.930 . S
C1094 C1090 1.524 . S
C1094 H1106 0.956 . S
C1094 H1107 0.961 . S
C1094 H1108 0.961 . S
C1095 C1092 1.539 . S
C1095 H1109 0.958 . S
C1095 H1110 0.961 . S
C1095 H1111 0.960 . S
H1096 C1080 0.931 . S
H1097 C1085 0.929 . S
H1098 C1086 0.960 . S
H1099 C1086 0.962 . S
H1100 C1086 0.960 . S
H1101 C1087 0.961 . S
H1102 C1087 0.961 . S
H1103 C1087 0.961 . S
H1104 C1088 0.931 . S
H1105 C1093 0.930 . S
H1106 C1094 0.956 . S
H1107 C1094 0.961 . S
H1108 C1094 0.961 . S
H1109 C1095 0.958 . S
H1110 C1095 0.961 . S
H1111 C1095 0.960 . S
C1112 C1113 1.391 . S
C1112 C1114 1.394 . S
C1112 H1128 0.931 . S
C1113 C1112 1.391 . S
C1113 C1117 1.376 . S
C1114 C1112 1.394 . S
C1114 C1115 1.369 . S
C1114 C1118 1.531 . S
C1115 C1114 1.369 . S
C1115 C1116 1.410 . S
C1115 C1123 1.503 . S
C1116 C1115 1.410 . S
C1116 C1117 1.392 . S
C1116 C1119 1.511 . S
C1117 C1113 1.376 . S
C1117 C1116 1.392 . S
C1117 H1129 0.929 . S
C1118 C1114 1.531 . S
C1118 H1130 0.960 . S
C1118 H1131 0.962 . S
C1118 H1132 0.960 . S
C1119 C1116 1.511 . S
C1119 H1133 0.961 . S
C1119 H1134 0.961 . S
C1119 H1135 0.961 . S
C1120 C1121 1.370 . S
C1120 C1122 1.363 . S
C1120 H1136 0.931 . S
C1121 C1120 1.370 . S
C1121 C1125 1.408 . S
C1122 C1120 1.363 . S
C1122 C1123 1.370 . S
C1122 C1126 1.524 . S
C1123 C1115 1.503 . S
C1123 C1122 1.370 . S
C1123 C1124 1.403 . S
C1124 C1123 1.403 . S
C1124 C1125 1.404 . S
C1124 C1127 1.539 . S
C1125 C1121 1.408 . S
C1125 C1124 1.404 . S
C1125 H1137 0.930 . S
C1126 C1122 1.524 . S
C1126 H1138 0.956 . S
C1126 H1139 0.961 . S
C1126 H1140 0.961 . S
C1127 C1124 1.539 . S
C1127 H1141 0.958 . S
C1127 H1142 0.961 . S
C1127 H1143 0.960 . S
H1128 C1112 0.931 . S
H1129 C1117 0.929 . S
H1130 C1118 0.960 . S
H1131 C1118 0.962 . S
H1132 C1118 0.960 . S
H1133 C1119 0.961 . S
H1134 C1119 0.961 . S
H1135 C1119 0.961 . S
H1136 C1120 0.931 . S
H1137 C1125 0.930 . S
H1138 C1126 0.956 . S
H1139 C1126 0.961 . S
H1140 C1126 0.961 . S
H1141 C1127 0.958 . S
H1142 C1127 0.961 . S
H1143 C1127 0.960 . S
C1144 C1145 1.391 . S
C1144 C1146 1.394 . S
C1144 H1160 0.931 . S
C1145 C1144 1.391 . S
C1145 C1149 1.376 . S
C1146 C1144 1.394 . S
C1146 C1147 1.369 . S
C1146 C1150 1.531 . S
C1147 C1146 1.369 . S
C1147 C1148 1.410 . S
C1147 C1155 1.503 . S
C1148 C1147 1.410 . S
C1148 C1149 1.392 . S
C1148 C1151 1.511 . S
C1149 C1145 1.376 . S
C1149 C1148 1.392 . S
C1149 H1161 0.929 . S
C1150 C1146 1.531 . S
C1150 H1162 0.960 . S
C1150 H1163 0.962 . S
C1150 H1164 0.960 . S
C1151 C1148 1.511 . S
C1151 H1165 0.961 . S
C1151 H1166 0.961 . S
C1151 H1167 0.961 . S
C1152 C1153 1.370 . S
C1152 C1154 1.363 . S
C1152 H1168 0.931 . S
C1153 C1152 1.370 . S
C1153 C1157 1.408 . S
C1154 C1152 1.363 . S
C1154 C1155 1.370 . S
C1154 C1158 1.524 . S
C1155 C1147 1.503 . S
C1155 C1154 1.370 . S
C1155 C1156 1.403 . S
C1156 C1155 1.403 . S
C1156 C1157 1.404 . S
C1156 C1159 1.539 . S
C1157 C1153 1.408 . S
C1157 C1156 1.404 . S
C1157 H1169 0.930 . S
C1158 C1154 1.524 . S
C1158 H1170 0.956 . S
C1158 H1171 0.961 . S
C1158 H1172 0.961 . S
C1159 C1156 1.539 . S
C1159 H1173 0.958 . S
C1159 H1174 0.961 . S
C1159 H1175 0.960 . S
H1160 C1144 0.931 . S
H1161 C1149 0.929 . S
H1162 C1150 0.960 . S
H1163 C1150 0.962 . S
H1164 C1150 0.960 . S
H1165 C1151 0.961 . S
H1166 C1151 0.961 . S
H1167 C1151 0.961 . S
H1168 C1152 0.931 . S
H1169 C1157 0.930 . S
H1170 C1158 0.956 . S
H1171 C1158 0.961 . S
H1172 C1158 0.961 . S
H1173 C1159 0.958 . S
H1174 C1159 0.961 . S
H1175 C1159 0.960 . S
C1176 C1177 1.391 . S
C1176 C1178 1.394 . S
C1176 H1192 0.931 . S
C1177 C1176 1.391 . S
C1177 C1181 1.376 . S
C1178 C1176 1.394 . S
C1178 C1179 1.369 . S
C1178 C1182 1.531 . S
C1179 C1178 1.369 . S
C1179 C1180 1.410 . S
C1179 C1187 1.503 . S
C1180 C1179 1.410 . S
C1180 C1181 1.392 . S
C1180 C1183 1.511 . S
C1181 C1177 1.376 . S
C1181 C1180 1.392 . S
C1181 H1193 0.929 . S
C1182 C1178 1.531 . S
C1182 H1194 0.960 . S
C1182 H1195 0.962 . S
C1182 H1196 0.960 . S
C1183 C1180 1.511 . S
C1183 H1197 0.961 . S
C1183 H1198 0.961 . S
C1183 H1199 0.961 . S
C1184 C1185 1.370 . S
C1184 C1186 1.363 . S
C1184 H1200 0.931 . S
C1185 C1184 1.370 . S
C1185 C1189 1.408 . S
C1186 C1184 1.363 . S
C1186 C1187 1.370 . S
C1186 C1190 1.524 . S
C1187 C1179 1.503 . S
C1187 C1186 1.370 . S
C1187 C1188 1.403 . S
C1188 C1187 1.403 . S
C1188 C1189 1.404 . S
C1188 C1191 1.539 . S
C1189 C1185 1.408 . S
C1189 C1188 1.404 . S
C1189 H1201 0.930 . S
C1190 C1186 1.524 . S
C1190 H1202 0.956 . S
C1190 H1203 0.961 . S
C1190 H1204 0.961 . S
C1191 C1188 1.539 . S
C1191 H1205 0.958 . S
C1191 H1206 0.961 . S
C1191 H1207 0.960 . S
H1192 C1176 0.931 . S
H1193 C1181 0.929 . S
H1194 C1182 0.960 . S
H1195 C1182 0.962 . S
H1196 C1182 0.960 . S
H1197 C1183 0.961 . S
H1198 C1183 0.961 . S
H1199 C1183 0.961 . S
H1200 C1184 0.931 . S
H1201 C1189 0.930 . S
H1202 C1190 0.956 . S
H1203 C1190 0.961 . S
H1204 C1190 0.961 . S
H1205 C1191 0.958 . S
H1206 C1191 0.961 . S
H1207 C1191 0.960 . S
C1208 C1209 1.391 . S
C1208 C1210 1.394 . S
C1208 H1224 0.931 . S
C1209 C1208 1.391 . S
C1209 C1213 1.376 1_545 S
C1210 C1208 1.394 . S
C1210 C1211 1.369 . S
C1210 C1214 1.531 . S
C1211 C1210 1.369 . S
C1211 C1212 1.410 1_545 S
C1211 C1219 1.503 . S
C1212 C1211 1.410 1_565 S
C1212 C1213 1.392 . S
C1212 C1215 1.511 . S
C1213 C1209 1.376 1_565 S
C1213 C1212 1.392 . S
C1213 H1225 0.929 . S
C1214 C1210 1.531 . S
C1214 H1226 0.960 . S
C1214 H1227 0.962 . S
C1214 H1228 0.960 . S
C1215 C1212 1.511 . S
C1215 H1229 0.961 . S
C1215 H1230 0.961 . S
C1215 H1231 0.961 1_655 S
C1216 C1217 1.370 1_655 S
C1216 C1218 1.363 . S
C1216 H1232 0.931 . S
C1217 C1216 1.370 1_455 S
C1217 C1221 1.408 . S
C1218 C1216 1.363 . S
C1218 C1219 1.370 . S
C1218 C1222 1.524 1_545 S
C1219 C1211 1.503 . S
C1219 C1218 1.370 . S
C1219 C1220 1.403 1_655 S
C1220 C1219 1.403 1_455 S
C1220 C1221 1.404 . S
C1220 C1223 1.539 . S
C1221 C1217 1.408 . S
C1221 C1220 1.404 . S
C1221 H1233 0.930 . S
C1222 C1218 1.524 1_565 S
C1222 H1234 0.957 1_565 S
C1222 H1235 0.961 . S
C1222 H1236 0.961 . S
C1223 C1220 1.539 . S
C1223 H1237 0.958 . S
C1223 H1238 0.961 . S
C1223 H1239 0.960 . S
H1224 C1208 0.931 . S
H1225 C1213 0.929 . S
H1226 C1214 0.960 . S
H1227 C1214 0.962 . S
H1228 C1214 0.960 . S
H1229 C1215 0.961 . S
H1230 C1215 0.961 . S
H1231 C1215 0.961 1_455 S
H1232 C1216 0.931 . S
H1233 C1221 0.930 . S
H1234 C1222 0.957 1_545 S
H1235 C1222 0.961 . S
H1236 C1222 0.961 . S
H1237 C1223 0.958 . S
H1238 C1223 0.961 . S
H1239 C1223 0.960 . S
C1240 C1241 1.391 . S
C1240 C1242 1.394 . S
C1240 H1256 0.931 . S
C1241 C1240 1.391 . S
C1241 C1245 1.376 . S
C1242 C1240 1.394 . S
C1242 C1243 1.369 . S
C1242 C1246 1.531 . S
C1243 C1242 1.369 . S
C1243 C1244 1.410 . S
C1243 C1251 1.503 . S
C1244 C1243 1.410 . S
C1244 C1245 1.392 . S
C1244 C1247 1.511 . S
C1245 C1241 1.376 . S
C1245 C1244 1.392 . S
C1245 H1257 0.929 . S
C1246 C1242 1.531 . S
C1246 H1258 0.960 . S
C1246 H1259 0.962 . S
C1246 H1260 0.960 . S
C1247 C1244 1.511 . S
C1247 H1261 0.961 . S
C1247 H1262 0.961 . S
C1247 H1263 0.961 . S
C1248 C1249 1.370 . S
C1248 C1250 1.363 . S
C1248 H1264 0.931 . S
C1249 C1248 1.370 . S
C1249 C1253 1.408 . S
C1250 C1248 1.363 . S
C1250 C1251 1.370 . S
C1250 C1254 1.524 . S
C1251 C1243 1.503 . S
C1251 C1250 1.370 . S
C1251 C1252 1.403 . S
C1252 C1251 1.403 . S
C1252 C1253 1.404 . S
C1252 C1255 1.539 . S
C1253 C1249 1.408 . S
C1253 C1252 1.404 . S
C1253 H1265 0.930 . S
C1254 C1250 1.524 . S
C1254 H1266 0.956 . S
C1254 H1267 0.961 . S
C1254 H1268 0.961 . S
C1255 C1252 1.539 . S
C1255 H1269 0.958 . S
C1255 H1270 0.961 . S
C1255 H1271 0.960 . S
H1256 C1240 0.931 . S
H1257 C1245 0.929 . S
H1258 C1246 0.960 . S
H1259 C1246 0.962 . S
H1260 C1246 0.960 . S
H1261 C1247 0.961 . S
H1262 C1247 0.961 . S
H1263 C1247 0.961 . S
H1264 C1248 0.931 . S
H1265 C1253 0.930 . S
H1266 C1254 0.956 . S
H1267 C1254 0.961 . S
H1268 C1254 0.961 . S
H1269 C1255 0.958 . S
H1270 C1255 0.961 . S
H1271 C1255 0.960 . S
C1272 C1273 1.391 . S
C1272 C1274 1.394 . S
C1272 H1288 0.931 . S
C1273 C1272 1.391 . S
C1273 C1277 1.376 1_565 S
C1274 C1272 1.394 . S
C1274 C1275 1.369 1_565 S
C1274 C1278 1.531 . S
C1275 C1274 1.369 1_545 S
C1275 C1276 1.410 . S
C1275 C1283 1.503 . S
C1276 C1275 1.410 . S
C1276 C1277 1.392 . S
C1276 C1279 1.511 . S
C1277 C1273 1.376 1_545 S
C1277 C1276 1.392 . S
C1277 H1289 0.929 . S
C1278 C1274 1.531 . S
C1278 H1290 0.960 . S
C1278 H1291 0.962 . S
C1278 H1292 0.960 . S
C1279 C1276 1.511 . S
C1279 H1293 0.961 . S
C1279 H1294 0.961 . S
C1279 H1295 0.961 . S
C1280 C1281 1.370 . S
C1280 C1282 1.363 . S
C1280 H1296 0.931 . S
C1281 C1280 1.370 . S
C1281 C1285 1.408 . S
C1282 C1280 1.363 . S
C1282 C1283 1.370 . S
C1282 C1286 1.524 . S
C1283 C1275 1.503 . S
C1283 C1282 1.370 . S
C1283 C1284 1.403 . S
C1284 C1283 1.403 . S
C1284 C1285 1.404 . S
C1284 C1287 1.539 1_545 S
C1285 C1281 1.408 . S
C1285 C1284 1.404 . S
C1285 H1297 0.930 . S
C1286 C1282 1.524 . S
C1286 H1298 0.956 . S
C1286 H1299 0.961 . S
C1286 H1300 0.961 . S
C1287 C1284 1.539 1_565 S
C1287 H1301 0.958 . S
C1287 H1302 0.961 . S
C1287 H1303 0.960 . S
H1288 C1272 0.931 . S
H1289 C1277 0.929 . S
H1290 C1278 0.960 . S
H1291 C1278 0.962 . S
H1292 C1278 0.960 . S
H1293 C1279 0.961 . S
H1294 C1279 0.961 . S
H1295 C1279 0.961 . S
H1296 C1280 0.931 . S
H1297 C1285 0.930 . S
H1298 C1286 0.956 . S
H1299 C1286 0.961 . S
H1300 C1286 0.961 . S
H1301 C1287 0.958 . S
H1302 C1287 0.961 . S
H1303 C1287 0.960 . S
C1304 C1305 1.391 . S
C1304 C1306 1.394 . S
C1304 H1320 0.931 . S
C1305 C1304 1.391 . S
C1305 C1309 1.376 . S
C1306 C1304 1.394 . S
C1306 C1307 1.369 . S
C1306 C1310 1.531 . S
C1307 C1306 1.369 . S
C1307 C1308 1.410 . S
C1307 C1315 1.503 . S
C1308 C1307 1.410 . S
C1308 C1309 1.392 . S
C1308 C1311 1.511 . S
C1309 C1305 1.376 . S
C1309 C1308 1.392 . S
C1309 H1321 0.929 . S
C1310 C1306 1.531 . S
C1310 H1322 0.960 . S
C1310 H1323 0.962 . S
C1310 H1324 0.960 . S
C1311 C1308 1.511 . S
C1311 H1325 0.961 . S
C1311 H1326 0.961 . S
C1311 H1327 0.961 . S
C1312 C1313 1.370 . S
C1312 C1314 1.363 . S
C1312 H1328 0.931 . S
C1313 C1312 1.370 . S
C1313 C1317 1.408 . S
C1314 C1312 1.363 . S
C1314 C1315 1.370 . S
C1314 C1318 1.524 . S
C1315 C1307 1.503 . S
C1315 C1314 1.370 . S
C1315 C1316 1.403 . S
C1316 C1315 1.403 . S
C1316 C1317 1.404 . S
C1316 C1319 1.539 . S
C1317 C1313 1.408 . S
C1317 C1316 1.404 . S
C1317 H1329 0.930 . S
C1318 C1314 1.524 . S
C1318 H1330 0.956 . S
C1318 H1331 0.961 . S
C1318 H1332 0.961 . S
C1319 C1316 1.539 . S
C1319 H1333 0.958 . S
C1319 H1334 0.961 . S
C1319 H1335 0.960 . S
H1320 C1304 0.931 . S
H1321 C1309 0.929 . S
H1322 C1310 0.960 . S
H1323 C1310 0.962 . S
H1324 C1310 0.960 . S
H1325 C1311 0.961 . S
H1326 C1311 0.961 . S
H1327 C1311 0.961 . S
H1328 C1312 0.931 . S
H1329 C1317 0.930 . S
H1330 C1318 0.956 . S
H1331 C1318 0.961 . S
H1332 C1318 0.961 . S
H1333 C1319 0.958 . S
H1334 C1319 0.961 . S
H1335 C1319 0.960 . S
C1336 C1337 1.391 1_565 S
C1336 C1338 1.394 1_565 S
C1336 H1352 0.931 . S
C1337 C1336 1.391 1_545 S
C1337 C1341 1.376 . S
C1338 C1336 1.394 1_545 S
C1338 C1339 1.369 . S
C1338 C1342 1.531 1_545 S
C1339 C1338 1.369 . S
C1339 C1340 1.410 . S
C1339 C1347 1.503 . S
C1340 C1339 1.410 . S
C1340 C1341 1.392 . S
C1340 C1343 1.511 . S
C1341 C1337 1.376 . S
C1341 C1340 1.392 . S
C1341 H1353 0.929 . S
C1342 C1338 1.531 1_565 S
C1342 H1354 0.960 . S
C1342 H1355 0.962 1_565 S
C1342 H1356 0.960 . S
C1343 C1340 1.511 . S
C1343 H1357 0.961 1_655 S
C1343 H1358 0.961 1_655 S
C1343 H1359 0.961 1_655 S
C1344 C1345 1.370 . S
C1344 C1346 1.363 . S
C1344 H1360 0.931 . S
C1345 C1344 1.370 . S
C1345 C1349 1.408 . S
C1346 C1344 1.363 . S
C1346 C1347 1.370 . S
C1346 C1350 1.524 . S
C1347 C1339 1.503 . S
C1347 C1346 1.370 . S
C1347 C1348 1.403 . S
C1348 C1347 1.403 . S
C1348 C1349 1.404 . S
C1348 C1351 1.539 1_545 S
C1349 C1345 1.408 . S
C1349 C1348 1.404 . S
C1349 H1361 0.930 1_645 S
C1350 C1346 1.524 . S
C1350 H1362 0.956 . S
C1350 H1363 0.961 . S
C1350 H1364 0.961 . S
C1351 C1348 1.539 1_565 S
C1351 H1365 0.958 . S
C1351 H1366 0.961 . S
C1351 H1367 0.960 . S
H1352 C1336 0.931 . S
H1353 C1341 0.929 . S
H1354 C1342 0.960 . S
H1355 C1342 0.962 1_545 S
H1356 C1342 0.960 . S
H1357 C1343 0.961 1_455 S
H1358 C1343 0.961 1_455 S
H1359 C1343 0.961 1_455 S
H1360 C1344 0.931 . S
H1361 C1349 0.930 1_465 S
H1362 C1350 0.956 . S
H1363 C1350 0.961 . S
H1364 C1350 0.961 . S
H1365 C1351 0.958 . S
H1366 C1351 0.961 . S
H1367 C1351 0.960 . S
C1368 C1369 1.391 . S
C1368 C1370 1.394 . S
C1368 H1384 0.931 . S
C1369 C1368 1.391 . S
C1369 C1373 1.376 . S
C1370 C1368 1.394 . S
C1370 C1371 1.369 . S
C1370 C1374 1.531 . S
C1371 C1370 1.369 . S
C1371 C1372 1.410 . S
C1371 C1379 1.503 . S
C1372 C1371 1.410 . S
C1372 C1373 1.392 . S
C1372 C1375 1.511 . S
C1373 C1369 1.376 . S
C1373 C1372 1.392 . S
C1373 H1385 0.929 . S
C1374 C1370 1.531 . S
C1374 H1386 0.960 . S
C1374 H1387 0.962 . S
C1374 H1388 0.960 . S
C1375 C1372 1.511 . S
C1375 H1389 0.961 . S
C1375 H1390 0.961 . S
C1375 H1391 0.961 . S
C1376 C1377 1.370 . S
C1376 C1378 1.363 . S
C1376 H1392 0.931 . S
C1377 C1376 1.370 . S
C1377 C1381 1.408 . S
C1378 C1376 1.363 . S
C1378 C1379 1.370 . S
C1378 C1382 1.524 . S
C1379 C1371 1.503 . S
C1379 C1378 1.370 . S
C1379 C1380 1.403 . S
C1380 C1379 1.403 . S
C1380 C1381 1.404 . S
C1380 C1383 1.539 . S
C1381 C1377 1.408 . S
C1381 C1380 1.404 . S
C1381 H1393 0.930 . S
C1382 C1378 1.524 . S
C1382 H1394 0.956 . S
C1382 H1395 0.961 . S
C1382 H1396 0.961 . S
C1383 C1380 1.539 . S
C1383 H1397 0.958 . S
C1383 H1398 0.961 . S
C1383 H1399 0.960 . S
H1384 C1368 0.931 . S
H1385 C1373 0.929 . S
H1386 C1374 0.960 . S
H1387 C1374 0.962 . S
H1388 C1374 0.960 . S
H1389 C1375 0.961 . S
H1390 C1375 0.961 . S
H1391 C1375 0.961 . S
H1392 C1376 0.931 . S
H1393 C1381 0.930 . S
H1394 C1382 0.956 . S
H1395 C1382 0.961 . S
H1396 C1382 0.961 . S
H1397 C1383 0.958 . S
H1398 C1383 0.961 . S
H1399 C1383 0.960 . S
C1400 C1401 1.391 1_545 S
C1400 C1402 1.394 . S
C1400 H1416 0.931 . S
C1401 C1400 1.391 1_565 S
C1401 C1405 1.376 . S
C1402 C1400 1.394 . S
C1402 C1403 1.369 . S
C1402 C1406 1.531 . S
C1403 C1402 1.369 . S
C1403 C1404 1.410 . S
C1403 C1411 1.503 . S
C1404 C1403 1.410 . S
C1404 C1405 1.392 1_545 S
C1404 C1407 1.511 . S
C1405 C1401 1.376 . S
C1405 C1404 1.392 1_565 S
C1405 H1417 0.929 . S
C1406 C1402 1.531 . S
C1406 H1418 0.960 . S
C1406 H1419 0.962 . S
C1406 H1420 0.960 . S
C1407 C1404 1.511 . S
C1407 H1421 0.961 1_545 S
C1407 H1422 0.961 . S
C1407 H1423 0.961 . S
C1408 C1409 1.370 . S
C1408 C1410 1.363 . S
C1408 H1424 0.931 . S
C1409 C1408 1.370 . S
C1409 C1413 1.408 . S
C1410 C1408 1.363 . S
C1410 C1411 1.370 . S
C1410 C1414 1.524 . S
C1411 C1403 1.503 . S
C1411 C1410 1.370 . S
C1411 C1412 1.403 . S
C1412 C1411 1.403 . S
C1412 C1413 1.404 . S
C1412 C1415 1.539 . S
C1413 C1409 1.408 . S
C1413 C1412 1.404 . S
C1413 H1425 0.930 . S
C1414 C1410 1.524 . S
C1414 H1426 0.969 . S
C1414 H1427 0.961 1_545 S
C1414 H1428 0.961 1_545 S
C1415 C1412 1.539 . S
C1415 H1429 0.958 . S
C1415 H1430 0.961 . S
C1415 H1431 0.960 . S
H1416 C1400 0.931 . S
H1417 C1405 0.929 . S
H1418 C1406 0.960 . S
H1419 C1406 0.962 . S
H1420 C1406 0.960 . S
H1421 C1407 0.961 1_565 S
H1422 C1407 0.961 . S
H1423 C1407 0.961 . S
H1424 C1408 0.931 . S
H1425 C1413 0.930 . S
H1426 C1414 0.969 . S
H1427 C1414 0.961 1_565 S
H1428 C1414 0.961 1_565 S
H1429 C1415 0.958 . S
H1430 C1415 0.961 . S
H1431 C1415 0.960 . S
C1432 C1433 1.391 . S
C1432 C1434 1.394 . S
C1432 H1448 0.931 . S
C1433 C1432 1.391 . S
C1433 C1437 1.376 . S
C1434 C1432 1.394 . S
C1434 C1435 1.369 . S
C1434 C1438 1.531 . S
C1435 C1434 1.369 . S
C1435 C1436 1.410 . S
C1435 C1443 1.503 . S
C1436 C1435 1.410 . S
C1436 C1437 1.392 . S
C1436 C1439 1.511 . S
C1437 C1433 1.376 . S
C1437 C1436 1.392 . S
C1437 H1449 0.929 . S
C1438 C1434 1.531 . S
C1438 H1450 0.960 . S
C1438 H1451 0.962 . S
C1438 H1452 0.960 . S
C1439 C1436 1.511 . S
C1439 H1453 0.961 . S
C1439 H1454 0.961 . S
C1439 H1455 0.961 . S
C1440 C1441 1.370 . S
C1440 C1442 1.363 . S
C1440 H1456 0.931 . S
C1441 C1440 1.370 . S
C1441 C1445 1.408 . S
C1442 C1440 1.363 . S
C1442 C1443 1.370 . S
C1442 C1446 1.524 . S
C1443 C1435 1.503 . S
C1443 C1442 1.370 . S
C1443 C1444 1.403 . S
C1444 C1443 1.403 . S
C1444 C1445 1.404 . S
C1444 C1447 1.539 . S
C1445 C1441 1.408 . S
C1445 C1444 1.404 . S
C1445 H1457 0.930 . S
C1446 C1442 1.524 . S
C1446 H1458 0.956 . S
C1446 H1459 0.961 . S
C1446 H1460 0.961 . S
C1447 C1444 1.539 . S
C1447 H1461 0.958 . S
C1447 H1462 0.961 . S
C1447 H1463 0.960 . S
H1448 C1432 0.931 . S
H1449 C1437 0.929 . S
H1450 C1438 0.960 . S
H1451 C1438 0.962 . S
H1452 C1438 0.960 . S
H1453 C1439 0.961 . S
H1454 C1439 0.961 . S
H1455 C1439 0.961 . S
H1456 C1440 0.931 . S
H1457 C1445 0.930 . S
H1458 C1446 0.956 . S
H1459 C1446 0.961 . S
H1460 C1446 0.961 . S
H1461 C1447 0.958 . S
H1462 C1447 0.961 . S
H1463 C1447 0.960 . S
C1464 C1465 1.391 . S
C1464 C1466 1.394 . S
C1464 H1480 0.931 . S
C1465 C1464 1.391 . S
C1465 C1469 1.376 . S
C1466 C1464 1.394 . S
C1466 C1467 1.369 . S
C1466 C1470 1.531 . S
C1467 C1466 1.369 . S
C1467 C1468 1.410 . S
C1467 C1475 1.503 . S
C1468 C1467 1.410 . S
C1468 C1469 1.392 . S
C1468 C1471 1.511 . S
C1469 C1465 1.376 . S
C1469 C1468 1.392 . S
C1469 H1481 0.929 . S
C1470 C1466 1.531 . S
C1470 H1482 0.960 . S
C1470 H1483 0.962 . S
C1470 H1484 0.960 . S
C1471 C1468 1.511 . S
C1471 H1485 0.961 . S
C1471 H1486 0.961 . S
C1471 H1487 0.961 . S
C1472 C1473 1.370 . S
C1472 C1474 1.363 . S
C1472 H1488 0.931 . S
C1473 C1472 1.370 . S
C1473 C1477 1.408 . S
C1474 C1472 1.363 . S
C1474 C1475 1.370 . S
C1474 C1478 1.524 . S
C1475 C1467 1.503 . S
C1475 C1474 1.370 . S
C1475 C1476 1.403 . S
C1476 C1475 1.403 . S
C1476 C1477 1.404 . S
C1476 C1479 1.539 . S
C1477 C1473 1.408 . S
C1477 C1476 1.404 . S
C1477 H1489 0.930 . S
C1478 C1474 1.524 . S
C1478 H1490 0.956 . S
C1478 H1491 0.961 . S
C1478 H1492 0.961 . S
C1479 C1476 1.539 . S
C1479 H1493 0.958 . S
C1479 H1494 0.961 . S
C1479 H1495 0.960 . S
H1480 C1464 0.931 . S
H1481 C1469 0.929 . S
H1482 C1470 0.960 . S
H1483 C1470 0.962 . S
H1484 C1470 0.960 . S
H1485 C1471 0.961 . S
H1486 C1471 0.961 . S
H1487 C1471 0.961 . S
H1488 C1472 0.931 . S
H1489 C1477 0.930 . S
H1490 C1478 0.956 . S
H1491 C1478 0.961 . S
H1492 C1478 0.961 . S
H1493 C1479 0.958 . S
H1494 C1479 0.961 . S
H1495 C1479 0.960 . S
C1496 C1497 1.391 . S
C1496 C1498 1.394 . S
C1496 H1512 0.931 . S
C1497 C1496 1.391 . S
C1497 C1501 1.376 . S
C1498 C1496 1.394 . S
C1498 C1499 1.369 . S
C1498 C1502 1.531 . S
C1499 C1498 1.369 . S
C1499 C1500 1.410 . S
C1499 C1507 1.503 . S
C1500 C1499 1.410 . S
C1500 C1501 1.392 . S
C1500 C1503 1.511 . S
C1501 C1497 1.376 . S
C1501 C1500 1.392 . S
C1501 H1513 0.929 . S
C1502 C1498 1.531 . S
C1502 H1514 0.960 . S
C1502 H1515 0.962 . S
C1502 H1516 0.960 . S
C1503 C1500 1.511 . S
C1503 H1517 0.961 . S
C1503 H1518 0.961 . S
C1503 H1519 0.961 1_554 S
C1504 C1505 1.370 . S
C1504 C1506 1.363 . S
C1504 H1520 0.931 . S
C1505 C1504 1.370 . S
C1505 C1509 1.412 . S
C1506 C1504 1.363 . S
C1506 C1507 1.370 . S
C1506 C1510 1.524 . S
C1507 C1499 1.503 . S
C1507 C1506 1.370 . S
C1507 C1508 1.403 1_554 S
C1508 C1507 1.403 1_556 S
C1508 C1509 1.403 1_556 S
C1508 C1511 1.539 . S
C1509 C1505 1.412 . S
C1509 C1508 1.403 1_554 S
C1509 H1521 0.927 1_554 S
C1510 C1506 1.524 . S
C1510 H1522 0.956 . S
C1510 H1523 0.961 . S
C1510 H1524 0.961 . S
C1511 C1508 1.539 . S
C1511 H1525 0.958 . S
C1511 H1526 0.961 . S
C1511 H1527 0.960 . S
H1512 C1496 0.931 . S
H1513 C1501 0.929 . S
H1514 C1502 0.960 . S
H1515 C1502 0.962 . S
H1516 C1502 0.960 . S
H1517 C1503 0.961 . S
H1518 C1503 0.961 . S
H1519 C1503 0.961 1_556 S
H1520 C1504 0.931 . S
H1521 C1509 0.927 1_556 S
H1522 C1510 0.956 . S
H1523 C1510 0.961 . S
H1524 C1510 0.961 . S
H1525 C1511 0.958 . S
H1526 C1511 0.961 . S
H1527 C1511 0.960 . S
C1528 C1529 1.391 . S
C1528 C1530 1.394 . S
C1528 H1544 0.931 . S
C1529 C1528 1.391 . S
C1529 C1533 1.376 . S
C1530 C1528 1.394 . S
C1530 C1531 1.369 . S
C1530 C1534 1.531 . S
C1531 C1530 1.369 . S
C1531 C1532 1.410 . S
C1531 C1539 1.503 . S
C1532 C1531 1.410 . S
C1532 C1533 1.392 . S
C1532 C1535 1.511 . S
C1533 C1529 1.376 . S
C1533 C1532 1.392 . S
C1533 H1545 0.929 . S
C1534 C1530 1.531 . S
C1534 H1546 0.960 . S
C1534 H1547 0.962 . S
C1534 H1548 0.960 . S
C1535 C1532 1.511 . S
C1535 H1549 0.961 . S
C1535 H1550 0.961 . S
C1535 H1551 0.961 . S
C1536 C1537 1.370 . S
C1536 C1538 1.363 . S
C1536 H1552 0.931 . S
C1537 C1536 1.370 . S
C1537 C1541 1.408 . S
C1538 C1536 1.363 . S
C1538 C1539 1.370 . S
C1538 C1542 1.524 . S
C1539 C1531 1.503 . S
C1539 C1538 1.370 . S
C1539 C1540 1.403 . S
C1540 C1539 1.403 . S
C1540 C1541 1.404 . S
C1540 C1543 1.539 . S
C1541 C1537 1.408 . S
C1541 C1540 1.404 . S
C1541 H1553 0.930 . S
C1542 C1538 1.524 . S
C1542 H1554 0.956 . S
C1542 H1555 0.961 . S
C1542 H1556 0.961 . S
C1543 C1540 1.539 . S
C1543 H1557 0.958 . S
C1543 H1558 0.961 . S
C1543 H1559 0.960 . S
H1544 C1528 0.931 . S
H1545 C1533 0.929 . S
H1546 C1534 0.960 . S
H1547 C1534 0.962 . S
H1548 C1534 0.960 . S
H1549 C1535 0.961 . S
H1550 C1535 0.961 . S
H1551 C1535 0.961 . S
H1552 C1536 0.931 . S
H1553 C1541 0.930 . S
H1554 C1542 0.956 . S
H1555 C1542 0.961 . S
H1556 C1542 0.961 . S
H1557 C1543 0.958 . S
H1558 C1543 0.961 . S
H1559 C1543 0.960 . S
C1560 C1561 1.391 . S
C1560 C1562 1.394 . S
C1560 H1576 0.931 . S
C1561 C1560 1.391 . S
C1561 C1565 1.376 . S
C1562 C1560 1.394 . S
C1562 C1563 1.369 . S
C1562 C1566 1.531 . S
C1563 C1562 1.369 . S
C1563 C1564 1.410 . S
C1563 C1571 1.503 . S
C1564 C1563 1.410 . S
C1564 C1565 1.392 . S
C1564 C1567 1.511 . S
C1565 C1561 1.376 . S
C1565 C1564 1.392 . S
C1565 H1577 0.929 . S
C1566 C1562 1.531 . S
C1566 H1578 0.960 . S
C1566 H1579 0.962 . S
C1566 H1580 0.960 . S
C1567 C1564 1.511 . S
C1567 H1581 0.961 . S
C1567 H1582 0.961 . S
C1567 H1583 0.961 . S
C1568 C1569 1.370 . S
C1568 C1570 1.363 . S
C1568 H1584 0.931 . S
C1569 C1568 1.370 . S
C1569 C1573 1.408 . S
C1570 C1568 1.363 . S
C1570 C1571 1.370 . S
C1570 C1574 1.524 . S
C1571 C1563 1.503 . S
C1571 C1570 1.370 . S
C1571 C1572 1.403 . S
C1572 C1571 1.403 . S
C1572 C1573 1.404 . S
C1572 C1575 1.539 . S
C1573 C1569 1.408 . S
C1573 C1572 1.404 . S
C1573 H1585 0.930 . S
C1574 C1570 1.524 . S
C1574 H1586 0.956 . S
C1574 H1587 0.961 . S
C1574 H1588 0.961 . S
C1575 C1572 1.539 . S
C1575 H1589 0.958 . S
C1575 H1590 0.961 . S
C1575 H1591 0.960 . S
H1576 C1560 0.931 . S
H1577 C1565 0.929 . S
H1578 C1566 0.960 . S
H1579 C1566 0.962 . S
H1580 C1566 0.960 . S
H1581 C1567 0.961 . S
H1582 C1567 0.961 . S
H1583 C1567 0.961 . S
H1584 C1568 0.931 . S
H1585 C1573 0.930 . S
H1586 C1574 0.956 . S
H1587 C1574 0.961 . S
H1588 C1574 0.961 . S
H1589 C1575 0.958 . S
H1590 C1575 0.961 . S
H1591 C1575 0.960 . S
C1592 C1593 1.391 . S
C1592 C1594 1.394 . S
C1592 H1608 0.931 . S
C1593 C1592 1.391 . S
C1593 C1597 1.376 . S
C1594 C1592 1.394 . S
C1594 C1595 1.369 . S
C1594 C1598 1.531 . S
C1595 C1594 1.369 . S
C1595 C1596 1.410 . S
C1595 C1603 1.503 . S
C1596 C1595 1.410 . S
C1596 C1597 1.392 . S
C1596 C1599 1.511 . S
C1597 C1593 1.376 . S
C1597 C1596 1.392 . S
C1597 H1609 0.929 . S
C1598 C1594 1.531 . S
C1598 H1610 0.960 . S
C1598 H1611 0.962 . S
C1598 H1612 0.960 . S
C1599 C1596 1.511 . S
C1599 H1613 0.961 . S
C1599 H1614 0.961 . S
C1599 H1615 0.961 . S
C1600 C1601 1.370 . S
C1600 C1602 1.363 . S
C1600 H1616 0.931 . S
C1601 C1600 1.370 . S
C1601 C1605 1.408 . S
C1602 C1600 1.363 . S
C1602 C1603 1.370 . S
C1602 C1606 1.524 . S
C1603 C1595 1.503 . S
C1603 C1602 1.370 . S
C1603 C1604 1.403 . S
C1604 C1603 1.403 . S
C1604 C1605 1.404 . S
C1604 C1607 1.539 . S
C1605 C1601 1.408 . S
C1605 C1604 1.404 . S
C1605 H1617 0.930 . S
C1606 C1602 1.524 . S
C1606 H1618 0.956 . S
C1606 H1619 0.961 . S
C1606 H1620 0.961 . S
C1607 C1604 1.539 . S
C1607 H1621 0.958 . S
C1607 H1622 0.961 . S
C1607 H1623 0.960 . S
H1608 C1592 0.931 . S
H1609 C1597 0.929 . S
H1610 C1598 0.960 . S
H1611 C1598 0.962 . S
H1612 C1598 0.960 . S
H1613 C1599 0.961 . S
H1614 C1599 0.961 . S
H1615 C1599 0.961 . S
H1616 C1600 0.931 . S
H1617 C1605 0.930 . S
H1618 C1606 0.956 . S
H1619 C1606 0.961 . S
H1620 C1606 0.961 . S
H1621 C1607 0.958 . S
H1622 C1607 0.961 . S
H1623 C1607 0.960 . S
C1624 C1625 1.391 . S
C1624 C1626 1.394 . S
C1624 H1640 0.931 . S
C1625 C1624 1.391 . S
C1625 C1629 1.376 . S
C1626 C1624 1.394 . S
C1626 C1627 1.369 . S
C1626 C1630 1.531 . S
C1627 C1626 1.369 . S
C1627 C1628 1.410 . S
C1627 C1635 1.503 . S
C1628 C1627 1.410 . S
C1628 C1629 1.392 . S
C1628 C1631 1.511 . S
C1629 C1625 1.376 . S
C1629 C1628 1.392 . S
C1629 H1641 0.929 . S
C1630 C1626 1.531 . S
C1630 H1642 0.960 . S
C1630 H1643 0.962 . S
C1630 H1644 0.960 . S
C1631 C1628 1.511 . S
C1631 H1645 0.961 . S
C1631 H1646 0.961 . S
C1631 H1647 0.961 . S
C1632 C1633 1.370 . S
C1632 C1634 1.363 . S
C1632 H1648 0.931 . S
C1633 C1632 1.370 . S
C1633 C1637 1.408 . S
C1634 C1632 1.363 . S
C1634 C1635 1.370 . S
C1634 C1638 1.524 . S
C1635 C1627 1.503 . S
C1635 C1634 1.370 . S
C1635 C1636 1.403 . S
C1636 C1635 1.403 . S
C1636 C1637 1.404 . S
C1636 C1639 1.539 . S
C1637 C1633 1.408 . S
C1637 C1636 1.404 . S
C1637 H1649 0.930 . S
C1638 C1634 1.524 . S
C1638 H1650 0.956 . S
C1638 H1651 0.961 . S
C1638 H1652 0.961 . S
C1639 C1636 1.539 . S
C1639 H1653 0.958 . S
C1639 H1654 0.961 . S
C1639 H1655 0.960 . S
H1640 C1624 0.931 . S
H1641 C1629 0.929 . S
H1642 C1630 0.960 . S
H1643 C1630 0.962 . S
H1644 C1630 0.960 . S
H1645 C1631 0.961 . S
H1646 C1631 0.961 . S
H1647 C1631 0.961 . S
H1648 C1632 0.931 . S
H1649 C1637 0.930 . S
H1650 C1638 0.956 . S
H1651 C1638 0.961 . S
H1652 C1638 0.961 . S
H1653 C1639 0.958 . S
H1654 C1639 0.961 . S
H1655 C1639 0.960 . S
C1656 C1657 1.391 . S
C1656 C1658 1.394 . S
C1656 H1672 0.931 . S
C1657 C1656 1.391 . S
C1657 C1661 1.376 . S
C1658 C1656 1.394 . S
C1658 C1659 1.369 . S
C1658 C1662 1.531 . S
C1659 C1658 1.369 . S
C1659 C1660 1.410 . S
C1659 C1667 1.503 . S
C1660 C1659 1.410 . S
C1660 C1661 1.392 . S
C1660 C1663 1.511 . S
C1661 C1657 1.376 . S
C1661 C1660 1.392 . S
C1661 H1673 0.929 . S
C1662 C1658 1.531 . S
C1662 H1674 0.960 . S
C1662 H1675 0.962 . S
C1662 H1676 0.960 . S
C1663 C1660 1.511 . S
C1663 H1677 0.961 . S
C1663 H1678 0.961 . S
C1663 H1679 0.961 . S
C1664 C1665 1.370 . S
C1664 C1666 1.363 . S
C1664 H1680 0.931 . S
C1665 C1664 1.370 . S
C1665 C1669 1.408 . S
C1666 C1664 1.363 . S
C1666 C1667 1.370 . S
C1666 C1670 1.524 . S
C1667 C1659 1.503 . S
C1667 C1666 1.370 . S
C1667 C1668 1.403 . S
C1668 C1667 1.403 . S
C1668 C1669 1.404 . S
C1668 C1671 1.539 . S
C1669 C1665 1.408 . S
C1669 C1668 1.404 . S
C1669 H1681 0.930 . S
C1670 C1666 1.524 . S
C1670 H1682 0.956 . S
C1670 H1683 0.961 . S
C1670 H1684 0.961 . S
C1671 C1668 1.539 . S
C1671 H1685 0.958 . S
C1671 H1686 0.961 . S
C1671 H1687 0.960 . S
H1672 C1656 0.931 . S
H1673 C1661 0.929 . S
H1674 C1662 0.960 . S
H1675 C1662 0.962 . S
H1676 C1662 0.960 . S
H1677 C1663 0.961 . S
H1678 C1663 0.961 . S
H1679 C1663 0.961 . S
H1680 C1664 0.931 . S
H1681 C1669 0.930 . S
H1682 C1670 0.956 . S
H1683 C1670 0.961 . S
H1684 C1670 0.961 . S
H1685 C1671 0.958 . S
H1686 C1671 0.961 . S
H1687 C1671 0.960 . S
C1688 C1689 1.391 . S
C1688 C1690 1.394 . S
C1688 H1704 0.931 . S
C1689 C1688 1.391 . S
C1689 C1693 1.376 . S
C1690 C1688 1.394 . S
C1690 C1691 1.369 . S
C1690 C1694 1.531 . S
C1691 C1690 1.369 . S
C1691 C1692 1.410 . S
C1691 C1699 1.503 . S
C1692 C1691 1.410 . S
C1692 C1693 1.392 . S
C1692 C1695 1.511 . S
C1693 C1689 1.376 . S
C1693 C1692 1.392 . S
C1693 H1705 0.929 . S
C1694 C1690 1.531 . S
C1694 H1706 0.960 . S
C1694 H1707 0.962 . S
C1694 H1708 0.960 . S
C1695 C1692 1.511 . S
C1695 H1709 0.961 . S
C1695 H1710 0.961 . S
C1695 H1711 0.961 . S
C1696 C1697 1.370 . S
C1696 C1698 1.363 . S
C1696 H1712 0.931 . S
C1697 C1696 1.370 . S
C1697 C1701 1.408 . S
C1698 C1696 1.363 . S
C1698 C1699 1.370 . S
C1698 C1702 1.524 . S
C1699 C1691 1.503 . S
C1699 C1698 1.370 . S
C1699 C1700 1.403 . S
C1700 C1699 1.403 . S
C1700 C1701 1.404 . S
C1700 C1703 1.539 . S
C1701 C1697 1.408 . S
C1701 C1700 1.404 . S
C1701 H1713 0.930 . S
C1702 C1698 1.524 . S
C1702 H1714 0.956 . S
C1702 H1715 0.961 . S
C1702 H1716 0.961 . S
C1703 C1700 1.539 . S
C1703 H1717 0.958 . S
C1703 H1718 0.961 . S
C1703 H1719 0.960 . S
H1704 C1688 0.931 . S
H1705 C1693 0.929 . S
H1706 C1694 0.960 . S
H1707 C1694 0.962 . S
H1708 C1694 0.960 . S
H1709 C1695 0.961 . S
H1710 C1695 0.961 . S
H1711 C1695 0.961 . S
H1712 C1696 0.931 . S
H1713 C1701 0.930 . S
H1714 C1702 0.956 . S
H1715 C1702 0.961 . S
H1716 C1702 0.961 . S
H1717 C1703 0.958 . S
H1718 C1703 0.961 . S
H1719 C1703 0.960 . S
C1720 C1721 1.391 . S
C1720 C1722 1.394 . S
C1720 H1736 0.931 . S
C1721 C1720 1.391 . S
C1721 C1725 1.376 . S
C1722 C1720 1.394 . S
C1722 C1723 1.369 . S
C1722 C1726 1.531 . S
C1723 C1722 1.369 . S
C1723 C1724 1.410 . S
C1723 C1731 1.503 . S
C1724 C1723 1.410 . S
C1724 C1725 1.392 . S
C1724 C1727 1.511 . S
C1725 C1721 1.376 . S
C1725 C1724 1.392 . S
C1725 H1737 0.929 . S
C1726 C1722 1.531 . S
C1726 H1738 0.960 . S
C1726 H1739 0.962 . S
C1726 H1740 0.960 . S
C1727 C1724 1.511 . S
C1727 H1741 0.961 . S
C1727 H1742 0.961 . S
C1727 H1743 0.961 . S
C1728 C1729 1.370 . S
C1728 C1730 1.363 . S
C1728 H1744 0.931 . S
C1729 C1728 1.370 . S
C1729 C1733 1.408 . S
C1730 C1728 1.363 . S
C1730 C1731 1.370 . S
C1730 C1734 1.524 . S
C1731 C1723 1.503 . S
C1731 C1730 1.370 . S
C1731 C1732 1.403 . S
C1732 C1731 1.403 . S
C1732 C1733 1.404 . S
C1732 C1735 1.539 . S
C1733 C1729 1.408 . S
C1733 C1732 1.404 . S
C1733 H1745 0.930 . S
C1734 C1730 1.524 . S
C1734 H1746 0.956 . S
C1734 H1747 0.961 . S
C1734 H1748 0.961 . S
C1735 C1732 1.539 . S
C1735 H1749 0.958 . S
C1735 H1750 0.961 . S
C1735 H1751 0.960 . S
H1736 C1720 0.931 . S
H1737 C1725 0.929 . S
H1738 C1726 0.960 . S
H1739 C1726 0.962 . S
H1740 C1726 0.960 . S
H1741 C1727 0.961 . S
H1742 C1727 0.961 . S
H1743 C1727 0.961 . S
H1744 C1728 0.931 . S
H1745 C1733 0.930 . S
H1746 C1734 0.956 . S
H1747 C1734 0.961 . S
H1748 C1734 0.961 . S
H1749 C1735 0.958 . S
H1750 C1735 0.961 . S
H1751 C1735 0.960 . S
C1752 C1753 1.391 . S
C1752 C1754 1.394 . S
C1752 H1768 0.931 . S
C1753 C1752 1.391 . S
C1753 C1757 1.376 . S
C1754 C1752 1.394 . S
C1754 C1755 1.369 . S
C1754 C1758 1.531 . S
C1755 C1754 1.369 . S
C1755 C1756 1.410 . S
C1755 C1763 1.503 . S
C1756 C1755 1.410 . S
C1756 C1757 1.392 . S
C1756 C1759 1.511 . S
C1757 C1753 1.376 . S
C1757 C1756 1.392 . S
C1757 H1769 0.929 . S
C1758 C1754 1.531 . S
C1758 H1770 0.960 . S
C1758 H1771 0.962 . S
C1758 H1772 0.960 . S
C1759 C1756 1.511 . S
C1759 H1773 0.961 . S
C1759 H1774 0.961 . S
C1759 H1775 0.961 . S
C1760 C1761 1.370 . S
C1760 C1762 1.363 . S
C1760 H1776 0.931 . S
C1761 C1760 1.370 . S
C1761 C1765 1.408 . S
C1762 C1760 1.363 . S
C1762 C1763 1.370 . S
C1762 C1766 1.524 . S
C1763 C1755 1.503 . S
C1763 C1762 1.370 . S
C1763 C1764 1.403 . S
C1764 C1763 1.403 . S
C1764 C1765 1.404 . S
C1764 C1767 1.539 . S
C1765 C1761 1.408 . S
C1765 C1764 1.404 . S
C1765 H1777 0.930 . S
C1766 C1762 1.524 . S
C1766 H1778 0.956 . S
C1766 H1779 0.961 . S
C1766 H1780 0.961 . S
C1767 C1764 1.539 . S
C1767 H1781 0.958 . S
C1767 H1782 0.961 . S
C1767 H1783 0.960 . S
H1768 C1752 0.931 . S
H1769 C1757 0.929 . S
H1770 C1758 0.960 . S
H1771 C1758 0.962 . S
H1772 C1758 0.960 . S
H1773 C1759 0.961 . S
H1774 C1759 0.961 . S
H1775 C1759 0.961 . S
H1776 C1760 0.931 . S
H1777 C1765 0.930 . S
H1778 C1766 0.956 . S
H1779 C1766 0.961 . S
H1780 C1766 0.961 . S
H1781 C1767 0.958 . S
H1782 C1767 0.961 . S
H1783 C1767 0.960 . S
C1784 C1785 1.391 . S
C1784 C1786 1.394 . S
C1784 H1800 0.931 . S
C1785 C1784 1.391 . S
C1785 C1789 1.376 . S
C1786 C1784 1.394 . S
C1786 C1787 1.369 . S
C1786 C1790 1.531 . S
C1787 C1786 1.369 . S
C1787 C1788 1.410 . S
C1787 C1795 1.503 . S
C1788 C1787 1.410 . S
C1788 C1789 1.392 . S
C1788 C1791 1.511 . S
C1789 C1785 1.376 . S
C1789 C1788 1.392 . S
C1789 H1801 0.929 . S
C1790 C1786 1.531 . S
C1790 H1802 0.960 . S
C1790 H1803 0.962 . S
C1790 H1804 0.960 . S
C1791 C1788 1.511 . S
C1791 H1805 0.961 . S
C1791 H1806 0.961 . S
C1791 H1807 0.961 . S
C1792 C1793 1.370 . S
C1792 C1794 1.363 . S
C1792 H1808 0.931 . S
C1793 C1792 1.370 . S
C1793 C1797 1.408 . S
C1794 C1792 1.363 . S
C1794 C1795 1.370 . S
C1794 C1798 1.524 . S
C1795 C1787 1.503 . S
C1795 C1794 1.370 . S
C1795 C1796 1.403 . S
C1796 C1795 1.403 . S
C1796 C1797 1.404 . S
C1796 C1799 1.539 . S
C1797 C1793 1.408 . S
C1797 C1796 1.404 . S
C1797 H1809 0.930 . S
C1798 C1794 1.524 . S
C1798 H1810 0.956 . S
C1798 H1811 0.961 . S
C1798 H1812 0.961 . S
C1799 C1796 1.539 . S
C1799 H1813 0.958 . S
C1799 H1814 0.961 . S
C1799 H1815 0.960 . S
H1800 C1784 0.931 . S
H1801 C1789 0.929 . S
H1802 C1790 0.960 . S
H1803 C1790 0.962 . S
H1804 C1790 0.960 . S
H1805 C1791 0.961 . S
H1806 C1791 0.961 . S
H1807 C1791 0.961 . S
H1808 C1792 0.931 . S
H1809 C1797 0.930 . S
H1810 C1798 0.956 . S
H1811 C1798 0.961 . S
H1812 C1798 0.961 . S
H1813 C1799 0.958 . S
H1814 C1799 0.961 . S
H1815 C1799 0.960 . S
C1816 C1817 1.391 . S
C1816 C1818 1.394 . S
C1816 H1832 0.931 . S
C1817 C1816 1.391 . S
C1817 C1821 1.376 . S
C1818 C1816 1.394 . S
C1818 C1819 1.369 . S
C1818 C1822 1.531 . S
C1819 C1818 1.369 . S
C1819 C1820 1.410 . S
C1819 C1827 1.503 . S
C1820 C1819 1.410 . S
C1820 C1821 1.392 . S
C1820 C1823 1.511 . S
C1821 C1817 1.376 . S
C1821 C1820 1.392 . S
C1821 H1833 0.929 . S
C1822 C1818 1.531 . S
C1822 H1834 0.960 . S
C1822 H1835 0.962 . S
C1822 H1836 0.960 . S
C1823 C1820 1.511 . S
C1823 H1837 0.961 . S
C1823 H1838 0.961 . S
C1823 H1839 0.961 . S
C1824 C1825 1.370 . S
C1824 C1826 1.363 . S
C1824 H1840 0.931 . S
C1825 C1824 1.370 . S
C1825 C1829 1.408 . S
C1826 C1824 1.363 . S
C1826 C1827 1.370 . S
C1826 C1830 1.524 . S
C1827 C1819 1.503 . S
C1827 C1826 1.370 . S
C1827 C1828 1.403 . S
C1828 C1827 1.403 . S
C1828 C1829 1.404 . S
C1828 C1831 1.539 . S
C1829 C1825 1.408 . S
C1829 C1828 1.404 . S
C1829 H1841 0.930 . S
C1830 C1826 1.524 . S
C1830 H1842 0.956 . S
C1830 H1843 0.961 . S
C1830 H1844 0.961 . S
C1831 C1828 1.539 . S
C1831 H1845 0.958 . S
C1831 H1846 0.961 . S
C1831 H1847 0.960 . S
H1832 C1816 0.931 . S
H1833 C1821 0.929 . S
H1834 C1822 0.960 . S
H1835 C1822 0.962 . S
H1836 C1822 0.960 . S
H1837 C1823 0.961 . S
H1838 C1823 0.961 . S
H1839 C1823 0.961 . S
H1840 C1824 0.931 . S
H1841 C1829 0.930 . S
H1842 C1830 0.956 . S
H1843 C1830 0.961 . S
H1844 C1830 0.961 . S
H1845 C1831 0.958 . S
H1846 C1831 0.961 . S
H1847 C1831 0.960 . S
C1848 C1849 1.391 . S
C1848 C1850 1.394 . S
C1848 H1864 0.931 . S
C1849 C1848 1.391 . S
C1849 C1853 1.376 . S
C1850 C1848 1.394 . S
C1850 C1851 1.369 . S
C1850 C1854 1.520 1_455 S
C1851 C1850 1.369 . S
C1851 C1852 1.410 . S
C1851 C1859 1.503 . S
C1852 C1851 1.410 . S
C1852 C1853 1.392 . S
C1852 C1855 1.511 . S
C1853 C1849 1.376 . S
C1853 C1852 1.392 . S
C1853 H1865 0.929 . S
C1854 C1850 1.520 1_655 S
C1854 H1866 0.943 1_655 S
C1854 H1867 0.969 . S
C1854 H1868 0.969 . S
C1855 C1852 1.511 . S
C1855 H1869 0.961 . S
C1855 H1870 0.961 . S
C1855 H1871 0.961 . S
C1856 C1857 1.370 . S
C1856 C1858 1.363 . S
C1856 H1872 0.931 . S
C1857 C1856 1.370 . S
C1857 C1861 1.408 . S
C1858 C1856 1.363 . S
C1858 C1859 1.370 . S
C1858 C1862 1.524 . S
C1859 C1851 1.503 . S
C1859 C1858 1.370 . S
C1859 C1860 1.403 . S
C1860 C1859 1.403 . S
C1860 C1861 1.404 . S
C1860 C1863 1.539 . S
C1861 C1857 1.408 . S
C1861 C1860 1.404 . S
C1861 H1873 0.930 . S
C1862 C1858 1.524 . S
C1862 H1874 0.956 . S
C1862 H1875 0.961 . S
C1862 H1876 0.961 . S
C1863 C1860 1.539 . S
C1863 H1877 0.958 . S
C1863 H1878 0.961 . S
C1863 H1879 0.960 . S
H1864 C1848 0.931 . S
H1865 C1853 0.929 . S
H1866 C1854 0.943 1_455 S
H1867 C1854 0.969 . S
H1868 C1854 0.969 . S
H1869 C1855 0.961 . S
H1870 C1855 0.961 . S
H1871 C1855 0.961 . S
H1872 C1856 0.931 . S
H1873 C1861 0.930 . S
H1874 C1862 0.956 . S
H1875 C1862 0.961 . S
H1876 C1862 0.961 . S
H1877 C1863 0.958 . S
H1878 C1863 0.961 . S
H1879 C1863 0.960 . S
C1880 C1881 1.391 . S
C1880 C1882 1.394 . S
C1880 H1896 0.931 . S
C1881 C1880 1.391 . S
C1881 C1885 1.376 . S
C1882 C1880 1.394 . S
C1882 C1883 1.369 . S
C1882 C1886 1.531 . S
C1883 C1882 1.369 . S
C1883 C1884 1.410 . S
C1883 C1891 1.503 . S
C1884 C1883 1.410 . S
C1884 C1885 1.392 . S
C1884 C1887 1.511 . S
C1885 C1881 1.376 . S
C1885 C1884 1.392 . S
C1885 H1897 0.929 . S
C1886 C1882 1.531 . S
C1886 H1898 0.960 . S
C1886 H1899 0.962 . S
C1886 H1900 0.960 . S
C1887 C1884 1.511 . S
C1887 H1901 0.961 . S
C1887 H1902 0.961 . S
C1887 H1903 0.961 . S
C1888 C1889 1.370 . S
C1888 C1890 1.363 . S
C1888 H1904 0.931 . S
C1889 C1888 1.370 . S
C1889 C1893 1.408 . S
C1890 C1888 1.363 . S
C1890 C1891 1.370 . S
C1890 C1894 1.524 . S
C1891 C1883 1.503 . S
C1891 C1890 1.370 . S
C1891 C1892 1.403 . S
C1892 C1891 1.403 . S
C1892 C1893 1.404 . S
C1892 C1895 1.539 . S
C1893 C1889 1.408 . S
C1893 C1892 1.404 . S
C1893 H1905 0.930 . S
C1894 C1890 1.524 . S
C1894 H1906 0.956 . S
C1894 H1907 0.961 . S
C1894 H1908 0.961 . S
C1895 C1892 1.539 . S
C1895 H1909 0.958 . S
C1895 H1910 0.961 . S
C1895 H1911 0.960 . S
H1896 C1880 0.931 . S
H1897 C1885 0.929 . S
H1898 C1886 0.960 . S
H1899 C1886 0.962 . S
H1900 C1886 0.960 . S
H1901 C1887 0.961 . S
H1902 C1887 0.961 . S
H1903 C1887 0.961 . S
H1904 C1888 0.931 . S
H1905 C1893 0.930 . S
H1906 C1894 0.956 . S
H1907 C1894 0.961 . S
H1908 C1894 0.961 . S
H1909 C1895 0.958 . S
H1910 C1895 0.961 . S
H1911 C1895 0.960 . S
C1912 C1913 1.391 . S
C1912 C1914 1.394 . S
C1912 H1928 0.931 . S
C1913 C1912 1.391 . S
C1913 C1917 1.376 . S
C1914 C1912 1.394 . S
C1914 C1915 1.369 . S
C1914 C1918 1.531 . S
C1915 C1914 1.369 . S
C1915 C1916 1.410 . S
C1915 C1923 1.503 . S
C1916 C1915 1.410 . S
C1916 C1917 1.392 . S
C1916 C1919 1.511 1_556 S
C1917 C1913 1.376 . S
C1917 C1916 1.392 . S
C1917 H1929 0.929 . S
C1918 C1914 1.531 . S
C1918 H1930 0.960 . S
C1918 H1931 0.962 . S
C1918 H1932 0.960 . S
C1919 C1916 1.511 1_554 S
C1919 H1933 0.961 . S
C1919 H1934 0.961 . S
C1919 H1935 0.961 . S
C1920 C1921 1.370 . S
C1920 C1922 1.363 . S
C1920 H1936 0.931 . S
C1921 C1920 1.370 . S
C1921 C1925 1.408 . S
C1922 C1920 1.363 . S
C1922 C1923 1.370 . S
C1922 C1926 1.524 . S
C1923 C1915 1.503 . S
C1923 C1922 1.370 . S
C1923 C1924 1.403 . S
C1924 C1923 1.403 . S
C1924 C1925 1.404 . S
C1924 C1927 1.539 . S
C1925 C1921 1.408 . S
C1925 C1924 1.404 . S
C1925 H1937 0.930 1_556 S
C1926 C1922 1.524 . S
C1926 H1938 0.956 . S
C1926 H1939 0.961 . S
C1926 H1940 0.961 . S
C1927 C1924 1.539 . S
C1927 H1941 0.958 . S
C1927 H1942 0.961 1_556 S
C1927 H1943 0.960 . S
H1928 C1912 0.931 . S
H1929 C1917 0.929 . S
H1930 C1918 0.960 . S
H1931 C1918 0.962 . S
H1932 C1918 0.960 . S
H1933 C1919 0.961 . S
H1934 C1919 0.961 . S
H1935 C1919 0.961 . S
H1936 C1920 0.931 . S
H1937 C1925 0.930 1_554 S
H1938 C1926 0.956 . S
H1939 C1926 0.961 . S
H1940 C1926 0.961 . S
H1941 C1927 0.958 . S
H1942 C1927 0.961 1_554 S
H1943 C1927 0.960 . S
C1944 C1945 1.391 . S
C1944 C1946 1.394 . S
C1944 H1960 0.931 . S
C1945 C1944 1.391 . S
C1945 C1949 1.376 . S
C1946 C1944 1.394 . S
C1946 C1947 1.369 . S
C1946 C1950 1.531 . S
C1947 C1946 1.369 . S
C1947 C1948 1.410 . S
C1947 C1955 1.503 . S
C1948 C1947 1.410 . S
C1948 C1949 1.392 . S
C1948 C1951 1.511 . S
C1949 C1945 1.376 . S
C1949 C1948 1.392 . S
C1949 H1961 0.929 . S
C1950 C1946 1.531 . S
C1950 H1962 0.960 . S
C1950 H1963 0.962 . S
C1950 H1964 0.960 . S
C1951 C1948 1.511 . S
C1951 H1965 0.961 . S
C1951 H1966 0.961 . S
C1951 H1967 0.961 . S
C1952 C1953 1.370 . S
C1952 C1954 1.363 . S
C1952 H1968 0.931 . S
C1953 C1952 1.370 . S
C1953 C1957 1.408 . S
C1954 C1952 1.363 . S
C1954 C1955 1.370 . S
C1954 C1958 1.524 . S
C1955 C1947 1.503 . S
C1955 C1954 1.370 . S
C1955 C1956 1.403 . S
C1956 C1955 1.403 . S
C1956 C1957 1.404 . S
C1956 C1959 1.539 . S
C1957 C1953 1.408 . S
C1957 C1956 1.404 . S
C1957 H1969 0.930 . S
C1958 C1954 1.524 . S
C1958 H1970 0.956 . S
C1958 H1971 0.961 . S
C1958 H1972 0.961 . S
C1959 C1956 1.539 . S
C1959 H1973 0.958 . S
C1959 H1974 0.961 . S
C1959 H1975 0.960 . S
H1960 C1944 0.931 . S
H1961 C1949 0.929 . S
H1962 C1950 0.960 . S
H1963 C1950 0.962 . S
H1964 C1950 0.960 . S
H1965 C1951 0.961 . S
H1966 C1951 0.961 . S
H1967 C1951 0.961 . S
H1968 C1952 0.931 . S
H1969 C1957 0.930 . S
H1970 C1958 0.956 . S
H1971 C1958 0.961 . S
H1972 C1958 0.961 . S
H1973 C1959 0.958 . S
H1974 C1959 0.961 . S
H1975 C1959 0.960 . S
C1976 C1977 1.391 . S
C1976 C1978 1.394 . S
C1976 H1992 0.931 . S
C1977 C1976 1.391 . S
C1977 C1981 1.376 . S
C1978 C1976 1.394 . S
C1978 C1979 1.369 . S
C1978 C1982 1.531 . S
C1979 C1978 1.369 . S
C1979 C1980 1.410 . S
C1979 C1987 1.503 . S
C1980 C1979 1.410 . S
C1980 C1981 1.392 . S
C1980 C1983 1.511 . S
C1981 C1977 1.376 . S
C1981 C1980 1.392 . S
C1981 H1993 0.929 . S
C1982 C1978 1.531 . S
C1982 H1994 0.960 . S
C1982 H1995 0.962 . S
C1982 H1996 0.960 . S
C1983 C1980 1.511 . S
C1983 H1997 0.961 . S
C1983 H1998 0.961 . S
C1983 H1999 0.961 . S
C1984 C1985 1.370 . S
C1984 C1986 1.363 . S
C1984 H2000 0.931 . S
C1985 C1984 1.370 . S
C1985 C1989 1.408 . S
C1986 C1984 1.363 . S
C1986 C1987 1.370 . S
C1986 C1990 1.524 . S
C1987 C1979 1.503 . S
C1987 C1986 1.370 . S
C1987 C1988 1.403 . S
C1988 C1987 1.403 . S
C1988 C1989 1.404 . S
C1988 C1991 1.523 1_545 S
C1989 C1985 1.408 . S
C1989 C1988 1.404 . S
C1989 H2001 0.930 1_545 S
C1990 C1986 1.524 . S
C1990 H2002 0.956 . S
C1990 H2003 0.961 . S
C1990 H2004 0.961 . S
C1991 C1988 1.523 1_565 S
C1991 H2005 0.946 1_565 S
C1991 H2006 0.987 . S
C1991 H2007 0.966 1_565 S
H1992 C1976 0.931 . S
H1993 C1981 0.929 . S
H1994 C1982 0.960 . S
H1995 C1982 0.962 . S
H1996 C1982 0.960 . S
H1997 C1983 0.961 . S
H1998 C1983 0.961 . S
H1999 C1983 0.961 . S
H2000 C1984 0.931 . S
H2001 C1989 0.930 1_565 S
H2002 C1990 0.956 . S
H2003 C1990 0.961 . S
H2004 C1990 0.961 . S
H2005 C1991 0.946 1_545 S
H2006 C1991 0.987 . S
H2007 C1991 0.966 1_545 S
C2008 C2009 1.391 . S
C2008 C2010 1.394 . S
C2008 H2024 0.931 . S
C2009 C2008 1.391 . S
C2009 C2013 1.376 . S
C2010 C2008 1.394 . S
C2010 C2011 1.369 . S
C2010 C2014 1.531 . S
C2011 C2010 1.369 . S
C2011 C2012 1.410 . S
C2011 C2019 1.503 . S
C2012 C2011 1.410 . S
C2012 C2013 1.392 . S
C2012 C2015 1.511 . S
C2013 C2009 1.376 . S
C2013 C2012 1.392 . S
C2013 H2025 0.929 . S
C2014 C2010 1.531 . S
C2014 H2026 0.960 . S
C2014 H2027 0.962 . S
C2014 H2028 0.960 . S
C2015 C2012 1.511 . S
C2015 H2029 0.961 . S
C2015 H2030 0.961 . S
C2015 H2031 0.961 . S
C2016 C2017 1.370 . S
C2016 C2018 1.363 . S
C2016 H2032 0.931 . S
C2017 C2016 1.370 . S
C2017 C2021 1.408 . S
C2018 C2016 1.363 . S
C2018 C2019 1.370 . S
C2018 C2022 1.524 . S
C2019 C2011 1.503 . S
C2019 C2018 1.370 . S
C2019 C2020 1.403 . S
C2020 C2019 1.403 . S
C2020 C2021 1.404 . S
C2020 C2023 1.539 . S
C2021 C2017 1.408 . S
C2021 C2020 1.404 . S
C2021 H2033 0.930 . S
C2022 C2018 1.524 . S
C2022 H2034 0.956 . S
C2022 H2035 0.961 . S
C2022 H2036 0.961 . S
C2023 C2020 1.539 . S
C2023 H2037 0.958 . S
C2023 H2038 0.961 . S
C2023 H2039 0.960 . S
H2024 C2008 0.931 . S
H2025 C2013 0.929 . S
H2026 C2014 0.960 . S
H2027 C2014 0.962 . S
H2028 C2014 0.960 . S
H2029 C2015 0.961 . S
H2030 C2015 0.961 . S
H2031 C2015 0.961 . S
H2032 C2016 0.931 . S
H2033 C2021 0.930 . S
H2034 C2022 0.956 . S
H2035 C2022 0.961 . S
H2036 C2022 0.961 . S
H2037 C2023 0.958 . S
H2038 C2023 0.961 . S
H2039 C2023 0.960 . S
C2040 C2041 1.391 . S
C2040 C2042 1.394 . S
C2040 H2056 0.931 . S
C2041 C2040 1.391 . S
C2041 C2045 1.376 . S
C2042 C2040 1.394 . S
C2042 C2043 1.369 . S
C2042 C2046 1.531 . S
C2043 C2042 1.369 . S
C2043 C2044 1.410 . S
C2043 C2051 1.503 . S
C2044 C2043 1.410 . S
C2044 C2045 1.392 . S
C2044 C2047 1.511 . S
C2045 C2041 1.376 . S
C2045 C2044 1.392 . S
C2045 H2057 0.929 . S
C2046 C2042 1.531 . S
C2046 H2058 0.960 . S
C2046 H2059 0.962 . S
C2046 H2060 0.960 . S
C2047 C2044 1.511 . S
C2047 H2061 0.961 . S
C2047 H2062 0.961 . S
C2047 H2063 0.961 . S
C2048 C2049 1.370 . S
C2048 C2050 1.363 . S
C2048 H2064 0.931 . S
C2049 C2048 1.370 . S
C2049 C2053 1.408 . S
C2050 C2048 1.363 . S
C2050 C2051 1.370 . S
C2050 C2054 1.524 . S
C2051 C2043 1.503 . S
C2051 C2050 1.370 . S
C2051 C2052 1.403 . S
C2052 C2051 1.403 . S
C2052 C2053 1.404 . S
C2052 C2055 1.539 . S
C2053 C2049 1.408 . S
C2053 C2052 1.404 . S
C2053 H2065 0.930 . S
C2054 C2050 1.524 . S
C2054 H2066 0.956 . S
C2054 H2067 0.961 . S
C2054 H2068 0.961 . S
C2055 C2052 1.539 . S
C2055 H2069 0.942 1_545 S
C2055 H2070 1.001 . S
C2055 H2071 0.960 . S
H2056 C2040 0.931 . S
H2057 C2045 0.929 . S
H2058 C2046 0.960 . S
H2059 C2046 0.962 . S
H2060 C2046 0.960 . S
H2061 C2047 0.961 . S
H2062 C2047 0.961 . S
H2063 C2047 0.961 . S
H2064 C2048 0.931 . S
H2065 C2053 0.930 . S
H2066 C2054 0.956 . S
H2067 C2054 0.961 . S
H2068 C2054 0.961 . S
H2069 C2055 0.942 1_565 S
H2070 C2055 1.001 . S
H2071 C2055 0.960 . S
C2072 C2073 1.391 . S
C2072 C2074 1.394 . S
C2072 H2088 0.931 . S
C2073 C2072 1.391 . S
C2073 C2077 1.376 . S
C2074 C2072 1.394 . S
C2074 C2075 1.369 . S
C2074 C2078 1.531 . S
C2075 C2074 1.369 . S
C2075 C2076 1.410 . S
C2075 C2083 1.503 . S
C2076 C2075 1.410 . S
C2076 C2077 1.392 . S
C2076 C2079 1.511 . S
C2077 C2073 1.376 . S
C2077 C2076 1.392 . S
C2077 H2089 0.929 . S
C2078 C2074 1.531 . S
C2078 H2090 0.960 . S
C2078 H2091 0.962 . S
C2078 H2092 0.960 . S
C2079 C2076 1.511 . S
C2079 H2093 0.961 . S
C2079 H2094 0.961 . S
C2079 H2095 0.961 . S
C2080 C2081 1.370 . S
C2080 C2082 1.363 . S
C2080 H2096 0.931 . S
C2081 C2080 1.370 . S
C2081 C2085 1.408 . S
C2082 C2080 1.363 . S
C2082 C2083 1.370 . S
C2082 C2086 1.524 . S
C2083 C2075 1.503 . S
C2083 C2082 1.370 . S
C2083 C2084 1.403 . S
C2084 C2083 1.403 . S
C2084 C2085 1.404 . S
C2084 C2087 1.539 . S
C2085 C2081 1.408 . S
C2085 C2084 1.404 . S
C2085 H2097 0.930 . S
C2086 C2082 1.524 . S
C2086 H2098 0.956 . S
C2086 H2099 0.961 . S
C2086 H2100 0.961 . S
C2087 C2084 1.539 . S
C2087 H2101 0.958 . S
C2087 H2102 0.961 . S
C2087 H2103 0.960 . S
H2088 C2072 0.931 . S
H2089 C2077 0.929 . S
H2090 C2078 0.960 . S
H2091 C2078 0.962 . S
H2092 C2078 0.960 . S
H2093 C2079 0.961 . S
H2094 C2079 0.961 . S
H2095 C2079 0.961 . S
H2096 C2080 0.931 . S
H2097 C2085 0.930 . S
H2098 C2086 0.956 . S
H2099 C2086 0.961 . S
H2100 C2086 0.961 . S
H2101 C2087 0.958 . S
H2102 C2087 0.961 . S
H2103 C2087 0.960 . S
C2104 C2105 1.391 . S
C2104 C2106 1.394 . S
C2104 H2120 0.931 . S
C2105 C2104 1.391 . S
C2105 C2109 1.376 . S
C2106 C2104 1.394 . S
C2106 C2107 1.369 . S
C2106 C2110 1.531 . S
C2107 C2106 1.369 . S
C2107 C2108 1.410 . S
C2107 C2115 1.503 . S
C2108 C2107 1.410 . S
C2108 C2109 1.392 . S
C2108 C2111 1.511 . S
C2109 C2105 1.376 . S
C2109 C2108 1.392 . S
C2109 H2121 0.929 . S
C2110 C2106 1.531 . S
C2110 H2122 0.960 . S
C2110 H2123 0.962 . S
C2110 H2124 0.960 . S
C2111 C2108 1.511 . S
C2111 H2125 0.961 . S
C2111 H2126 0.961 . S
C2111 H2127 0.961 . S
C2112 C2113 1.370 . S
C2112 C2114 1.363 . S
C2112 H2128 0.931 . S
C2113 C2112 1.370 . S
C2113 C2117 1.408 . S
C2114 C2112 1.363 . S
C2114 C2115 1.370 . S
C2114 C2118 1.524 . S
C2115 C2107 1.503 . S
C2115 C2114 1.370 . S
C2115 C2116 1.403 . S
C2116 C2115 1.403 . S
C2116 C2117 1.404 . S
C2116 C2119 1.539 . S
C2117 C2113 1.408 . S
C2117 C2116 1.404 . S
C2117 H2129 0.930 . S
C2118 C2114 1.524 . S
C2118 H2130 0.956 . S
C2118 H2131 0.961 . S
C2118 H2132 0.961 . S
C2119 C2116 1.539 . S
C2119 H2133 0.958 . S
C2119 H2134 0.961 . S
C2119 H2135 0.960 . S
H2120 C2104 0.931 . S
H2121 C2109 0.929 . S
H2122 C2110 0.960 . S
H2123 C2110 0.962 . S
H2124 C2110 0.960 . S
H2125 C2111 0.961 . S
H2126 C2111 0.961 . S
H2127 C2111 0.961 . S
H2128 C2112 0.931 . S
H2129 C2117 0.930 . S
H2130 C2118 0.956 . S
H2131 C2118 0.961 . S
H2132 C2118 0.961 . S
H2133 C2119 0.958 . S
H2134 C2119 0.961 . S
H2135 C2119 0.960 . S
C2136 C2137 1.391 . S
C2136 C2138 1.394 . S
C2136 H2152 0.931 . S
C2137 C2136 1.391 . S
C2137 C2141 1.376 . S
C2138 C2136 1.394 . S
C2138 C2139 1.369 . S
C2138 C2142 1.531 . S
C2139 C2138 1.369 . S
C2139 C2140 1.410 . S
C2139 C2147 1.503 . S
C2140 C2139 1.410 . S
C2140 C2141 1.392 . S
C2140 C2143 1.511 . S
C2141 C2137 1.376 . S
C2141 C2140 1.392 . S
C2141 H2153 0.929 . S
C2142 C2138 1.531 . S
C2142 H2154 0.960 . S
C2142 H2155 0.962 . S
C2142 H2156 0.960 . S
C2143 C2140 1.511 . S
C2143 H2157 0.961 . S
C2143 H2158 0.961 . S
C2143 H2159 0.961 . S
C2144 C2145 1.370 . S
C2144 C2146 1.363 . S
C2144 H2160 0.931 . S
C2145 C2144 1.370 . S
C2145 C2149 1.408 . S
C2146 C2144 1.363 . S
C2146 C2147 1.370 . S
C2146 C2150 1.524 . S
C2147 C2139 1.503 . S
C2147 C2146 1.370 . S
C2147 C2148 1.403 . S
C2148 C2147 1.403 . S
C2148 C2149 1.404 . S
C2148 C2151 1.539 . S
C2149 C2145 1.408 . S
C2149 C2148 1.404 . S
C2149 H2161 0.930 . S
C2150 C2146 1.524 . S
C2150 H2162 0.956 . S
C2150 H2163 0.961 . S
C2150 H2164 0.961 . S
C2151 C2148 1.539 . S
C2151 H2165 0.958 . S
C2151 H2166 0.961 . S
C2151 H2167 0.960 . S
H2152 C2136 0.931 . S
H2153 C2141 0.929 . S
H2154 C2142 0.960 . S
H2155 C2142 0.962 . S
H2156 C2142 0.960 . S
H2157 C2143 0.961 . S
H2158 C2143 0.961 . S
H2159 C2143 0.961 . S
H2160 C2144 0.931 . S
H2161 C2149 0.930 . S
H2162 C2150 0.956 . S
H2163 C2150 0.961 . S
H2164 C2150 0.961 . S
H2165 C2151 0.958 . S
H2166 C2151 0.961 . S
H2167 C2151 0.960 . S
C2168 C2169 1.391 . S
C2168 C2170 1.394 . S
C2168 H2184 0.931 . S
C2169 C2168 1.391 . S
C2169 C2173 1.376 . S
C2170 C2168 1.394 . S
C2170 C2171 1.369 . S
C2170 C2174 1.531 . S
C2171 C2170 1.369 . S
C2171 C2172 1.410 . S
C2171 C2179 1.503 . S
C2172 C2171 1.410 . S
C2172 C2173 1.392 . S
C2172 C2175 1.511 . S
C2173 C2169 1.376 . S
C2173 C2172 1.392 . S
C2173 H2185 0.929 . S
C2174 C2170 1.531 . S
C2174 H2186 0.960 . S
C2174 H2187 0.962 . S
C2174 H2188 0.960 . S
C2175 C2172 1.511 . S
C2175 H2189 0.961 . S
C2175 H2190 0.961 . S
C2175 H2191 0.961 . S
C2176 C2177 1.367 1_565 S
C2176 C2178 1.363 1_565 S
C2176 H2192 0.931 . S
C2177 C2176 1.367 1_545 S
C2177 C2181 1.420 . S
C2178 C2176 1.363 1_545 S
C2178 C2179 1.370 . S
C2178 C2182 1.524 1_545 S
C2179 C2171 1.503 . S
C2179 C2178 1.370 . S
C2179 C2180 1.403 . S
C2180 C2179 1.403 . S
C2180 C2181 1.404 . S
C2180 C2183 1.539 . S
C2181 C2177 1.420 . S
C2181 C2180 1.404 . S
C2181 H2193 0.930 . S
C2182 C2178 1.524 1_565 S
C2182 H2194 0.956 1_565 S
C2182 H2195 0.961 1_565 S
C2182 H2196 0.961 . S
C2183 C2180 1.539 . S
C2183 H2197 0.958 . S
C2183 H2198 0.961 . S
C2183 H2199 0.960 . S
H2184 C2168 0.931 . S
H2185 C2173 0.929 . S
H2186 C2174 0.960 . S
H2187 C2174 0.962 . S
H2188 C2174 0.960 . S
H2189 C2175 0.961 . S
H2190 C2175 0.961 . S
H2191 C2175 0.961 . S
H2192 C2176 0.931 . S
H2193 C2181 0.930 . S
H2194 C2182 0.956 1_545 S
H2195 C2182 0.961 1_545 S
H2196 C2182 0.961 . S
H2197 C2183 0.958 . S
H2198 C2183 0.961 . S
H2199 C2183 0.960 . S
C2200 C2201 1.391 . S
C2200 C2202 1.394 . S
C2200 H2216 0.931 . S
C2201 C2200 1.391 . S
C2201 C2205 1.376 . S
C2202 C2200 1.394 . S
C2202 C2203 1.369 . S
C2202 C2206 1.531 . S
C2203 C2202 1.369 . S
C2203 C2204 1.410 . S
C2203 C2211 1.503 . S
C2204 C2203 1.410 . S
C2204 C2205 1.392 . S
C2204 C2207 1.511 . S
C2205 C2201 1.376 . S
C2205 C2204 1.392 . S
C2205 H2217 0.929 . S
C2206 C2202 1.531 . S
C2206 H2218 0.960 . S
C2206 H2219 0.962 . S
C2206 H2220 0.960 . S
C2207 C2204 1.511 . S
C2207 H2221 0.961 . S
C2207 H2222 0.961 . S
C2207 H2223 0.961 . S
C2208 C2209 1.370 . S
C2208 C2210 1.363 . S
C2208 H2224 0.931 . S
C2209 C2208 1.370 . S
C2209 C2213 1.408 . S
C2210 C2208 1.363 . S
C2210 C2211 1.370 . S
C2210 C2214 1.524 . S
C2211 C2203 1.503 . S
C2211 C2210 1.370 . S
C2211 C2212 1.403 . S
C2212 C2211 1.403 . S
C2212 C2213 1.404 . S
C2212 C2215 1.539 . S
C2213 C2209 1.408 . S
C2213 C2212 1.404 . S
C2213 H2225 0.930 . S
C2214 C2210 1.524 . S
C2214 H2226 0.956 . S
C2214 H2227 0.961 . S
C2214 H2228 0.961 . S
C2215 C2212 1.539 . S
C2215 H2229 0.958 . S
C2215 H2230 0.961 . S
C2215 H2231 0.960 . S
H2216 C2200 0.931 . S
H2217 C2205 0.929 . S
H2218 C2206 0.960 . S
H2219 C2206 0.962 . S
H2220 C2206 0.960 . S
H2221 C2207 0.961 . S
H2222 C2207 0.961 . S
H2223 C2207 0.961 . S
H2224 C2208 0.931 . S
H2225 C2213 0.930 . S
H2226 C2214 0.956 . S
H2227 C2214 0.961 . S
H2228 C2214 0.961 . S
H2229 C2215 0.958 . S
H2230 C2215 0.961 . S
H2231 C2215 0.960 . S
C2232 C2233 1.391 . S
C2232 C2234 1.394 . S
C2232 H2248 0.931 . S
C2233 C2232 1.391 . S
C2233 C2237 1.376 1_556 S
C2234 C2232 1.394 . S
C2234 C2235 1.369 . S
C2234 C2238 1.531 . S
C2235 C2234 1.369 . S
C2235 C2236 1.410 1_556 S
C2235 C2243 1.503 . S
C2236 C2235 1.410 1_554 S
C2236 C2237 1.392 . S
C2236 C2239 1.511 . S
C2237 C2233 1.376 1_554 S
C2237 C2236 1.392 . S
C2237 H2249 0.929 . S
C2238 C2234 1.531 . S
C2238 H2250 0.960 . S
C2238 H2251 0.962 . S
C2238 H2252 0.960 . S
C2239 C2236 1.511 . S
C2239 H2253 0.961 . S
C2239 H2254 0.961 . S
C2239 H2255 0.961 . S
C2240 C2241 1.370 . S
C2240 C2242 1.363 . S
C2240 H2256 0.931 . S
C2241 C2240 1.370 . S
C2241 C2245 1.408 . S
C2242 C2240 1.363 . S
C2242 C2243 1.370 . S
C2242 C2246 1.524 . S
C2243 C2235 1.503 . S
C2243 C2242 1.370 . S
C2243 C2244 1.403 . S
C2244 C2243 1.403 . S
C2244 C2245 1.404 . S
C2244 C2247 1.539 1_556 S
C2245 C2241 1.408 . S
C2245 C2244 1.404 . S
C2245 H2257 0.930 . S
C2246 C2242 1.524 . S
C2246 H2258 0.956 . S
C2246 H2259 0.961 . S
C2246 H2260 0.961 . S
C2247 C2244 1.539 1_554 S
C2247 H2261 0.965 . S
C2247 H2262 0.961 . S
C2247 H2263 0.960 . S
H2248 C2232 0.931 . S
H2249 C2237 0.929 . S
H2250 C2238 0.960 . S
H2251 C2238 0.962 . S
H2252 C2238 0.960 . S
H2253 C2239 0.961 . S
H2254 C2239 0.961 . S
H2255 C2239 0.961 . S
H2256 C2240 0.931 . S
H2257 C2245 0.930 . S
H2258 C2246 0.956 . S
H2259 C2246 0.961 . S
H2260 C2246 0.961 . S
H2261 C2247 0.965 . S
H2262 C2247 0.961 . S
H2263 C2247 0.960 . S
C2264 C2265 1.391 . S
C2264 C2266 1.394 . S
C2264 H2280 0.931 . S
C2265 C2264 1.391 . S
C2265 C2269 1.376 . S
C2266 C2264 1.394 . S
C2266 C2267 1.369 . S
C2266 C2270 1.531 . S
C2267 C2266 1.369 . S
C2267 C2268 1.410 . S
C2267 C2275 1.503 . S
C2268 C2267 1.410 . S
C2268 C2269 1.392 . S
C2268 C2271 1.511 . S
C2269 C2265 1.376 . S
C2269 C2268 1.392 . S
C2269 H2281 0.929 . S
C2270 C2266 1.531 . S
C2270 H2282 0.960 . S
C2270 H2283 0.962 . S
C2270 H2284 0.960 . S
C2271 C2268 1.511 . S
C2271 H2285 0.961 . S
C2271 H2286 0.961 . S
C2271 H2287 0.961 . S
C2272 C2273 1.370 . S
C2272 C2274 1.363 . S
C2272 H2288 0.931 1_554 S
C2273 C2272 1.370 . S
C2273 C2277 1.408 . S
C2274 C2272 1.363 . S
C2274 C2275 1.370 . S
C2274 C2278 1.524 1_554 S
C2275 C2267 1.503 . S
C2275 C2274 1.370 . S
C2275 C2276 1.403 . S
C2276 C2275 1.403 . S
C2276 C2277 1.404 . S
C2276 C2279 1.539 . S
C2277 C2273 1.408 . S
C2277 C2276 1.404 . S
C2277 H2289 0.930 . S
C2278 C2274 1.524 1_556 S
C2278 H2290 0.956 . S
C2278 H2291 0.961 . S
C2278 H2292 0.961 . S
C2279 C2276 1.539 . S
C2279 H2293 0.958 . S
C2279 H2294 0.961 . S
C2279 H2295 0.960 . S
H2280 C2264 0.931 . S
H2281 C2269 0.929 . S
H2282 C2270 0.960 . S
H2283 C2270 0.962 . S
H2284 C2270 0.960 . S
H2285 C2271 0.961 . S
H2286 C2271 0.961 . S
H2287 C2271 0.961 . S
H2288 C2272 0.931 1_556 S
H2289 C2277 0.930 . S
H2290 C2278 0.956 . S
H2291 C2278 0.961 . S
H2292 C2278 0.961 . S
H2293 C2279 0.958 . S
H2294 C2279 0.961 . S
H2295 C2279 0.960 . S
C2296 C2297 1.391 . S
C2296 C2298 1.394 . S
C2296 H2312 0.931 . S
C2297 C2296 1.391 . S
C2297 C2301 1.376 . S
C2298 C2296 1.394 . S
C2298 C2299 1.369 . S
C2298 C2302 1.531 . S
C2299 C2298 1.369 . S
C2299 C2300 1.410 . S
C2299 C2307 1.503 . S
C2300 C2299 1.410 . S
C2300 C2301 1.392 . S
C2300 C2303 1.511 . S
C2301 C2297 1.376 . S
C2301 C2300 1.392 . S
C2301 H2313 0.929 . S
C2302 C2298 1.531 . S
C2302 H2314 0.960 . S
C2302 H2315 0.962 . S
C2302 H2316 0.960 . S
C2303 C2300 1.511 . S
C2303 H2317 0.961 . S
C2303 H2318 0.961 . S
C2303 H2319 0.961 . S
C2304 C2305 1.370 . S
C2304 C2306 1.363 . S
C2304 H2320 0.931 . S
C2305 C2304 1.370 . S
C2305 C2309 1.408 . S
C2306 C2304 1.363 . S
C2306 C2307 1.370 . S
C2306 C2310 1.524 . S
C2307 C2299 1.503 . S
C2307 C2306 1.370 . S
C2307 C2308 1.403 . S
C2308 C2307 1.403 . S
C2308 C2309 1.404 . S
C2308 C2311 1.539 . S
C2309 C2305 1.408 . S
C2309 C2308 1.404 . S
C2309 H2321 0.930 . S
C2310 C2306 1.524 . S
C2310 H2322 0.956 . S
C2310 H2323 0.961 . S
C2310 H2324 0.961 . S
C2311 C2308 1.539 . S
C2311 H2325 0.958 . S
C2311 H2326 0.961 . S
C2311 H2327 0.960 . S
H2312 C2296 0.931 . S
H2313 C2301 0.929 . S
H2314 C2302 0.960 . S
H2315 C2302 0.962 . S
H2316 C2302 0.960 . S
H2317 C2303 0.961 . S
H2318 C2303 0.961 . S
H2319 C2303 0.961 . S
H2320 C2304 0.931 . S
H2321 C2309 0.930 . S
H2322 C2310 0.956 . S
H2323 C2310 0.961 . S
H2324 C2310 0.961 . S
H2325 C2311 0.958 . S
H2326 C2311 0.961 . S
H2327 C2311 0.960 . S
C2328 C2329 1.391 . S
C2328 C2330 1.394 . S
C2328 H2344 0.931 . S
C2329 C2328 1.391 . S
C2329 C2333 1.376 . S
C2330 C2328 1.394 . S
C2330 C2331 1.369 . S
C2330 C2334 1.531 . S
C2331 C2330 1.369 . S
C2331 C2332 1.410 . S
C2331 C2339 1.503 . S
C2332 C2331 1.410 . S
C2332 C2333 1.392 . S
C2332 C2335 1.511 . S
C2333 C2329 1.376 . S
C2333 C2332 1.392 . S
C2333 H2345 0.929 . S
C2334 C2330 1.531 . S
C2334 H2346 0.960 . S
C2334 H2347 0.962 . S
C2334 H2348 0.960 . S
C2335 C2332 1.511 . S
C2335 H2349 0.961 . S
C2335 H2350 0.961 . S
C2335 H2351 0.961 . S
C2336 C2337 1.370 . S
C2336 C2338 1.363 . S
C2336 H2352 0.931 . S
C2337 C2336 1.370 . S
C2337 C2341 1.408 . S
C2338 C2336 1.363 . S
C2338 C2339 1.370 . S
C2338 C2342 1.524 . S
C2339 C2331 1.503 . S
C2339 C2338 1.370 . S
C2339 C2340 1.403 . S
C2340 C2339 1.403 . S
C2340 C2341 1.404 . S
C2340 C2343 1.539 . S
C2341 C2337 1.408 . S
C2341 C2340 1.404 . S
C2341 H2353 0.930 . S
C2342 C2338 1.524 . S
C2342 H2354 0.956 . S
C2342 H2355 0.961 . S
C2342 H2356 0.961 . S
C2343 C2340 1.539 . S
C2343 H2357 0.958 . S
C2343 H2358 0.961 . S
C2343 H2359 0.960 . S
H2344 C2328 0.931 . S
H2345 C2333 0.929 . S
H2346 C2334 0.960 . S
H2347 C2334 0.962 . S
H2348 C2334 0.960 . S
H2349 C2335 0.961 . S
H2350 C2335 0.961 . S
H2351 C2335 0.961 . S
H2352 C2336 0.931 . S
H2353 C2341 0.930 . S
H2354 C2342 0.956 . S
H2355 C2342 0.961 . S
H2356 C2342 0.961 . S
H2357 C2343 0.958 . S
H2358 C2343 0.961 . S
H2359 C2343 0.960 . S
C2360 C2361 1.391 . S
C2360 C2362 1.394 . S
C2360 H2376 0.931 . S
C2361 C2360 1.391 . S
C2361 C2365 1.376 . S
C2362 C2360 1.394 . S
C2362 C2363 1.369 . S
C2362 C2366 1.531 . S
C2363 C2362 1.369 . S
C2363 C2364 1.410 . S
C2363 C2371 1.503 . S
C2364 C2363 1.410 . S
C2364 C2365 1.392 . S
C2364 C2367 1.511 . S
C2365 C2361 1.376 . S
C2365 C2364 1.392 . S
C2365 H2377 0.929 . S
C2366 C2362 1.531 . S
C2366 H2378 0.960 . S
C2366 H2379 0.962 . S
C2366 H2380 0.960 . S
C2367 C2364 1.511 . S
C2367 H2381 0.961 . S
C2367 H2382 0.961 . S
C2367 H2383 0.961 . S
C2368 C2369 1.370 . S
C2368 C2370 1.363 . S
C2368 H2384 0.931 . S
C2369 C2368 1.370 . S
C2369 C2373 1.408 . S
C2370 C2368 1.363 . S
C2370 C2371 1.370 . S
C2370 C2374 1.524 . S
C2371 C2363 1.503 . S
C2371 C2370 1.370 . S
C2371 C2372 1.403 . S
C2372 C2371 1.403 . S
C2372 C2373 1.404 . S
C2372 C2375 1.539 . S
C2373 C2369 1.408 . S
C2373 C2372 1.404 . S
C2373 H2385 0.930 . S
C2374 C2370 1.524 . S
C2374 H2386 0.956 . S
C2374 H2387 0.961 . S
C2374 H2388 0.961 . S
C2375 C2372 1.539 . S
C2375 H2389 0.958 . S
C2375 H2390 0.961 . S
C2375 H2391 0.960 . S
H2376 C2360 0.931 . S
H2377 C2365 0.929 . S
H2378 C2366 0.960 . S
H2379 C2366 0.962 . S
H2380 C2366 0.960 . S
H2381 C2367 0.961 . S
H2382 C2367 0.961 . S
H2383 C2367 0.961 . S
H2384 C2368 0.931 . S
H2385 C2373 0.930 . S
H2386 C2374 0.956 . S
H2387 C2374 0.961 . S
H2388 C2374 0.961 . S
H2389 C2375 0.958 . S
H2390 C2375 0.961 . S
H2391 C2375 0.960 . S
C2392 C2393 1.391 . S
C2392 C2394 1.394 . S
C2392 H2408 0.931 . S
C2393 C2392 1.391 . S
C2393 C2397 1.376 . S
C2394 C2392 1.394 . S
C2394 C2395 1.369 . S
C2394 C2398 1.531 . S
C2395 C2394 1.369 . S
C2395 C2396 1.410 . S
C2395 C2403 1.503 . S
C2396 C2395 1.410 . S
C2396 C2397 1.392 . S
C2396 C2399 1.511 . S
C2397 C2393 1.376 . S
C2397 C2396 1.392 . S
C2397 H2409 0.929 . S
C2398 C2394 1.531 . S
C2398 H2410 0.960 . S
C2398 H2411 0.962 1_565 S
C2398 H2412 0.960 . S
C2399 C2396 1.511 . S
C2399 H2413 0.961 . S
C2399 H2414 0.961 . S
C2399 H2415 0.961 . S
C2400 C2401 1.370 1_545 S
C2400 C2402 1.363 1_545 S
C2400 H2416 0.931 . S
C2401 C2400 1.370 1_565 S
C2401 C2405 1.408 . S
C2402 C2400 1.363 1_565 S
C2402 C2403 1.370 . S
C2402 C2406 1.524 . S
C2403 C2395 1.503 . S
C2403 C2402 1.370 . S
C2403 C2404 1.403 . S
C2404 C2403 1.403 . S
C2404 C2405 1.404 . S
C2404 C2407 1.539 . S
C2405 C2401 1.408 . S
C2405 C2404 1.404 . S
C2405 H2417 0.930 . S
C2406 C2402 1.524 . S
C2406 H2418 0.956 1_565 S
C2406 H2419 0.961 . S
C2406 H2420 0.961 1_565 S
C2407 C2404 1.539 . S
C2407 H2421 0.958 . S
C2407 H2422 0.961 . S
C2407 H2423 0.960 . S
H2408 C2392 0.931 . S
H2409 C2397 0.929 . S
H2410 C2398 0.960 . S
H2411 C2398 0.962 1_545 S
H2412 C2398 0.960 . S
H2413 C2399 0.961 . S
H2414 C2399 0.961 . S
H2415 C2399 0.961 . S
H2416 C2400 0.931 . S
H2417 C2405 0.930 . S
H2418 C2406 0.956 1_545 S
H2419 C2406 0.961 . S
H2420 C2406 0.961 1_545 S
H2421 C2407 0.958 . S
H2422 C2407 0.961 . S
H2423 C2407 0.960 . S
C2424 C2425 1.391 . S
C2424 C2426 1.394 . S
C2424 H2440 0.931 . S
C2425 C2424 1.391 . S
C2425 C2429 1.376 . S
C2426 C2424 1.394 . S
C2426 C2427 1.369 . S
C2426 C2430 1.531 . S
C2427 C2426 1.369 . S
C2427 C2428 1.410 . S
C2427 C2435 1.503 . S
C2428 C2427 1.410 . S
C2428 C2429 1.392 . S
C2428 C2431 1.511 . S
C2429 C2425 1.376 . S
C2429 C2428 1.392 . S
C2429 H2441 0.929 . S
C2430 C2426 1.531 . S
C2430 H2442 0.960 . S
C2430 H2443 0.962 . S
C2430 H2444 0.960 . S
C2431 C2428 1.511 . S
C2431 H2445 0.961 . S
C2431 H2446 0.961 . S
C2431 H2447 0.961 . S
C2432 C2433 1.370 . S
C2432 C2434 1.363 . S
C2432 H2448 0.931 . S
C2433 C2432 1.370 . S
C2433 C2437 1.408 . S
C2434 C2432 1.363 . S
C2434 C2435 1.370 . S
C2434 C2438 1.524 . S
C2435 C2427 1.503 . S
C2435 C2434 1.370 . S
C2435 C2436 1.403 . S
C2436 C2435 1.403 . S
C2436 C2437 1.404 . S
C2436 C2439 1.539 . S
C2437 C2433 1.408 . S
C2437 C2436 1.404 . S
C2437 H2449 0.930 . S
C2438 C2434 1.524 . S
C2438 H2450 0.956 . S
C2438 H2451 0.961 . S
C2438 H2452 0.961 . S
C2439 C2436 1.539 . S
C2439 H2453 0.958 . S
C2439 H2454 0.961 . S
C2439 H2455 0.960 . S
H2440 C2424 0.931 . S
H2441 C2429 0.929 . S
H2442 C2430 0.960 . S
H2443 C2430 0.962 . S
H2444 C2430 0.960 . S
H2445 C2431 0.961 . S
H2446 C2431 0.961 . S
H2447 C2431 0.961 . S
H2448 C2432 0.931 . S
H2449 C2437 0.930 . S
H2450 C2438 0.956 . S
H2451 C2438 0.961 . S
H2452 C2438 0.961 . S
H2453 C2439 0.958 . S
H2454 C2439 0.961 . S
H2455 C2439 0.960 . S
C2456 C2457 1.391 . S
C2456 C2458 1.394 . S
C2456 H2472 0.931 . S
C2457 C2456 1.391 . S
C2457 C2461 1.376 . S
C2458 C2456 1.394 . S
C2458 C2459 1.369 . S
C2458 C2462 1.531 . S
C2459 C2458 1.369 . S
C2459 C2460 1.410 . S
C2459 C2467 1.503 . S
C2460 C2459 1.410 . S
C2460 C2461 1.392 . S
C2460 C2463 1.511 . S
C2461 C2457 1.376 . S
C2461 C2460 1.392 . S
C2461 H2473 0.929 . S
C2462 C2458 1.531 . S
C2462 H2474 0.960 . S
C2462 H2475 0.962 . S
C2462 H2476 0.960 . S
C2463 C2460 1.511 . S
C2463 H2477 0.961 . S
C2463 H2478 0.961 . S
C2463 H2479 0.961 . S
C2464 C2465 1.370 . S
C2464 C2466 1.363 . S
C2464 H2480 0.931 . S
C2465 C2464 1.370 . S
C2465 C2469 1.408 . S
C2466 C2464 1.363 . S
C2466 C2467 1.370 . S
C2466 C2470 1.524 . S
C2467 C2459 1.503 . S
C2467 C2466 1.370 . S
C2467 C2468 1.403 . S
C2468 C2467 1.403 . S
C2468 C2469 1.404 . S
C2468 C2471 1.539 . S
C2469 C2465 1.408 . S
C2469 C2468 1.404 . S
C2469 H2481 0.930 . S
C2470 C2466 1.524 . S
C2470 H2482 0.956 . S
C2470 H2483 0.961 . S
C2470 H2484 0.961 . S
C2471 C2468 1.539 . S
C2471 H2485 0.958 . S
C2471 H2486 0.961 . S
C2471 H2487 0.960 . S
H2472 C2456 0.931 . S
H2473 C2461 0.929 . S
H2474 C2462 0.960 . S
H2475 C2462 0.962 . S
H2476 C2462 0.960 . S
H2477 C2463 0.961 . S
H2478 C2463 0.961 . S
H2479 C2463 0.961 . S
H2480 C2464 0.931 . S
H2481 C2469 0.930 . S
H2482 C2470 0.956 . S
H2483 C2470 0.961 . S
H2484 C2470 0.961 . S
H2485 C2471 0.958 . S
H2486 C2471 0.961 . S
H2487 C2471 0.960 . S
C2488 C2489 1.391 . S
C2488 C2490 1.394 . S
C2488 H2504 0.931 . S
C2489 C2488 1.391 . S
C2489 C2493 1.376 . S
C2490 C2488 1.394 . S
C2490 C2491 1.369 . S
C2490 C2494 1.531 . S
C2491 C2490 1.369 . S
C2491 C2492 1.410 . S
C2491 C2499 1.503 . S
C2492 C2491 1.410 . S
C2492 C2493 1.392 . S
C2492 C2495 1.511 . S
C2493 C2489 1.376 . S
C2493 C2492 1.392 . S
C2493 H2505 0.929 . S
C2494 C2490 1.531 . S
C2494 H2506 0.960 . S
C2494 H2507 0.962 . S
C2494 H2508 0.960 . S
C2495 C2492 1.511 . S
C2495 H2509 0.961 . S
C2495 H2510 0.961 . S
C2495 H2511 0.961 . S
C2496 C2497 1.370 . S
C2496 C2498 1.363 . S
C2496 H2512 0.931 . S
C2497 C2496 1.370 . S
C2497 C2501 1.408 . S
C2498 C2496 1.363 . S
C2498 C2499 1.370 . S
C2498 C2502 1.524 . S
C2499 C2491 1.503 . S
C2499 C2498 1.370 . S
C2499 C2500 1.403 . S
C2500 C2499 1.403 . S
C2500 C2501 1.404 . S
C2500 C2503 1.539 . S
C2501 C2497 1.408 . S
C2501 C2500 1.404 . S
C2501 H2513 0.930 . S
C2502 C2498 1.524 . S
C2502 H2514 0.956 . S
C2502 H2515 0.961 . S
C2502 H2516 0.961 . S
C2503 C2500 1.539 . S
C2503 H2517 0.958 . S
C2503 H2518 0.961 . S
C2503 H2519 0.960 . S
H2504 C2488 0.931 . S
H2505 C2493 0.929 . S
H2506 C2494 0.960 . S
H2507 C2494 0.962 . S
H2508 C2494 0.960 . S
H2509 C2495 0.961 . S
H2510 C2495 0.961 . S
H2511 C2495 0.961 . S
H2512 C2496 0.931 . S
H2513 C2501 0.930 . S
H2514 C2502 0.956 . S
H2515 C2502 0.961 . S
H2516 C2502 0.961 . S
H2517 C2503 0.958 . S
H2518 C2503 0.961 . S
H2519 C2503 0.960 . S
C2520 C2521 1.391 . S
C2520 C2522 1.394 . S
C2520 H2536 0.931 . S
C2521 C2520 1.391 . S
C2521 C2525 1.376 . S
C2522 C2520 1.394 . S
C2522 C2523 1.369 . S
C2522 C2526 1.531 . S
C2523 C2522 1.369 . S
C2523 C2524 1.410 . S
C2523 C2531 1.503 . S
C2524 C2523 1.410 . S
C2524 C2525 1.392 . S
C2524 C2527 1.511 . S
C2525 C2521 1.376 . S
C2525 C2524 1.392 . S
C2525 H2537 0.929 . S
C2526 C2522 1.531 . S
C2526 H2538 0.960 . S
C2526 H2539 0.962 . S
C2526 H2540 0.960 . S
C2527 C2524 1.511 . S
C2527 H2541 0.961 . S
C2527 H2542 0.961 . S
C2527 H2543 0.961 . S
C2528 C2529 1.370 . S
C2528 C2530 1.363 . S
C2528 H2544 0.931 . S
C2529 C2528 1.370 . S
C2529 C2533 1.408 . S
C2530 C2528 1.363 . S
C2530 C2531 1.370 . S
C2530 C2534 1.524 . S
C2531 C2523 1.503 . S
C2531 C2530 1.370 . S
C2531 C2532 1.403 . S
C2532 C2531 1.403 . S
C2532 C2533 1.404 . S
C2532 C2535 1.539 . S
C2533 C2529 1.408 . S
C2533 C2532 1.404 . S
C2533 H2545 0.930 . S
C2534 C2530 1.524 . S
C2534 H2546 0.956 . S
C2534 H2547 0.961 . S
C2534 H2548 0.961 . S
C2535 C2532 1.539 . S
C2535 H2549 0.958 . S
C2535 H2550 0.961 . S
C2535 H2551 0.960 . S
H2536 C2520 0.931 . S
H2537 C2525 0.929 . S
H2538 C2526 0.960 . S
H2539 C2526 0.962 . S
H2540 C2526 0.960 . S
H2541 C2527 0.961 . S
H2542 C2527 0.961 . S
H2543 C2527 0.961 . S
H2544 C2528 0.931 . S
H2545 C2533 0.930 . S
H2546 C2534 0.956 . S
H2547 C2534 0.961 . S
H2548 C2534 0.961 . S
H2549 C2535 0.958 . S
H2550 C2535 0.961 . S
H2551 C2535 0.960 . S
C2552 C2553 1.391 . S
C2552 C2554 1.394 . S
C2552 H2568 0.931 . S
C2553 C2552 1.391 . S
C2553 C2557 1.376 1_455 S
C2554 C2552 1.394 . S
C2554 C2555 1.369 . S
C2554 C2558 1.531 . S
C2555 C2554 1.369 . S
C2555 C2556 1.410 1_455 S
C2555 C2563 1.503 . S
C2556 C2555 1.410 1_655 S
C2556 C2557 1.392 . S
C2556 C2559 1.511 . S
C2557 C2553 1.376 1_655 S
C2557 C2556 1.392 . S
C2557 H2569 0.929 . S
C2558 C2554 1.531 . S
C2558 H2570 0.960 . S
C2558 H2571 0.962 . S
C2558 H2572 0.960 . S
C2559 C2556 1.511 . S
C2559 H2573 0.961 . S
C2559 H2574 0.961 . S
C2559 H2575 0.961 . S
C2560 C2561 1.370 . S
C2560 C2562 1.363 . S
C2560 H2576 0.931 . S
C2561 C2560 1.370 . S
C2561 C2565 1.408 . S
C2562 C2560 1.363 . S
C2562 C2563 1.370 . S
C2562 C2566 1.524 . S
C2563 C2555 1.503 . S
C2563 C2562 1.370 . S
C2563 C2564 1.403 . S
C2564 C2563 1.403 . S
C2564 C2565 1.404 . S
C2564 C2567 1.539 . S
C2565 C2561 1.408 . S
C2565 C2564 1.404 . S
C2565 H2577 0.930 . S
C2566 C2562 1.524 . S
C2566 H2578 0.956 . S
C2566 H2579 0.961 . S
C2566 H2580 0.961 . S
C2567 C2564 1.539 . S
C2567 H2581 0.958 . S
C2567 H2582 0.961 . S
C2567 H2583 0.960 . S
H2568 C2552 0.931 . S
H2569 C2557 0.929 . S
H2570 C2558 0.960 . S
H2571 C2558 0.962 . S
H2572 C2558 0.960 . S
H2573 C2559 0.961 . S
H2574 C2559 0.961 . S
H2575 C2559 0.961 . S
H2576 C2560 0.931 . S
H2577 C2565 0.930 . S
H2578 C2566 0.956 . S
H2579 C2566 0.961 . S
H2580 C2566 0.961 . S
H2581 C2567 0.958 . S
H2582 C2567 0.961 . S
H2583 C2567 0.960 . S
C2584 C2585 1.391 . S
C2584 C2586 1.394 . S
C2584 H2600 0.931 . S
C2585 C2584 1.391 . S
C2585 C2589 1.376 . S
C2586 C2584 1.394 . S
C2586 C2587 1.369 1_455 S
C2586 C2590 1.552 . S
C2587 C2586 1.369 1_655 S
C2587 C2588 1.410 1_655 S
C2587 C2595 1.503 . S
C2588 C2587 1.410 1_455 S
C2588 C2589 1.392 . S
C2588 C2591 1.511 1_455 S
C2589 C2585 1.376 . S
C2589 C2588 1.392 . S
C2589 H2601 0.929 . S
C2590 C2586 1.552 . S
C2590 H2602 0.927 1_455 S
C2590 H2603 0.970 . S
C2590 H2604 0.966 . S
C2591 C2588 1.511 1_655 S
C2591 H2605 0.961 1_655 S
C2591 H2606 0.961 . S
C2591 H2607 0.961 . S
C2592 C2593 1.370 . S
C2592 C2594 1.363 . S
C2592 H2608 0.931 . S
C2593 C2592 1.370 . S
C2593 C2597 1.408 . S
C2594 C2592 1.363 . S
C2594 C2595 1.370 . S
C2594 C2598 1.502 1_655 S
C2595 C2587 1.503 . S
C2595 C2594 1.370 . S
C2595 C2596 1.403 . S
C2596 C2595 1.403 . S
C2596 C2597 1.404 . S
C2596 C2599 1.539 . S
C2597 C2593 1.408 . S
C2597 C2596 1.404 . S
C2597 H2609 0.930 . S
C2598 C2594 1.502 1_455 S
C2598 H2610 0.964 . S
C2598 H2611 0.978 . S
C2598 H2612 0.959 1_455 S
C2599 C2596 1.539 . S
C2599 H2613 0.958 . S
C2599 H2614 0.961 . S
C2599 H2615 0.960 . S
H2600 C2584 0.931 . S
H2601 C2589 0.929 . S
H2602 C2590 0.927 1_655 S
H2603 C2590 0.970 . S
H2604 C2590 0.966 . S
H2605 C2591 0.961 1_455 S
H2606 C2591 0.961 . S
H2607 C2591 0.961 . S
H2608 C2592 0.931 . S
H2609 C2597 0.930 . S
H2610 C2598 0.964 . S
H2611 C2598 0.978 . S
H2612 C2598 0.959 1_655 S
H2613 C2599 0.958 . S
H2614 C2599 0.961 . S
H2615 C2599 0.960 . S
C2616 C2617 1.391 . S
C2616 C2618 1.394 . S
C2616 H2632 0.931 . S
C2617 C2616 1.391 . S
C2617 C2621 1.376 . S
C2618 C2616 1.394 . S
C2618 C2619 1.369 . S
C2618 C2622 1.531 . S
C2619 C2618 1.369 . S
C2619 C2620 1.410 . S
C2619 C2627 1.503 . S
C2620 C2619 1.410 . S
C2620 C2621 1.392 . S
C2620 C2623 1.511 . S
C2621 C2617 1.376 . S
C2621 C2620 1.392 . S
C2621 H2633 0.929 . S
C2622 C2618 1.531 . S
C2622 H2634 0.960 . S
C2622 H2635 0.962 . S
C2622 H2636 0.960 . S
C2623 C2620 1.511 . S
C2623 H2637 0.961 . S
C2623 H2638 0.961 . S
C2623 H2639 0.961 . S
C2624 C2625 1.370 . S
C2624 C2626 1.363 . S
C2624 H2640 0.931 . S
C2625 C2624 1.370 . S
C2625 C2629 1.408 . S
C2626 C2624 1.363 . S
C2626 C2627 1.370 . S
C2626 C2630 1.524 . S
C2627 C2619 1.503 . S
C2627 C2626 1.370 . S
C2627 C2628 1.403 . S
C2628 C2627 1.403 . S
C2628 C2629 1.404 . S
C2628 C2631 1.539 . S
C2629 C2625 1.408 . S
C2629 C2628 1.404 . S
C2629 H2641 0.930 . S
C2630 C2626 1.524 . S
C2630 H2642 0.956 . S
C2630 H2643 0.961 . S
C2630 H2644 0.961 . S
C2631 C2628 1.539 . S
C2631 H2645 0.958 . S
C2631 H2646 0.961 . S
C2631 H2647 0.960 . S
H2632 C2616 0.931 . S
H2633 C2621 0.929 . S
H2634 C2622 0.960 . S
H2635 C2622 0.962 . S
H2636 C2622 0.960 . S
H2637 C2623 0.961 . S
H2638 C2623 0.961 . S
H2639 C2623 0.961 . S
H2640 C2624 0.931 . S
H2641 C2629 0.930 . S
H2642 C2630 0.956 . S
H2643 C2630 0.961 . S
H2644 C2630 0.961 . S
H2645 C2631 0.958 . S
H2646 C2631 0.961 . S
H2647 C2631 0.960 . S
C2648 C2649 1.391 . S
C2648 C2650 1.394 . S
C2648 H2664 0.931 . S
C2649 C2648 1.391 . S
C2649 C2653 1.376 . S
C2650 C2648 1.394 . S
C2650 C2651 1.369 . S
C2650 C2654 1.531 . S
C2651 C2650 1.369 . S
C2651 C2652 1.410 . S
C2651 C2659 1.503 . S
C2652 C2651 1.410 . S
C2652 C2653 1.392 . S
C2652 C2655 1.511 . S
C2653 C2649 1.376 . S
C2653 C2652 1.392 . S
C2653 H2665 0.929 . S
C2654 C2650 1.531 . S
C2654 H2666 0.960 . S
C2654 H2667 0.962 . S
C2654 H2668 0.960 . S
C2655 C2652 1.511 . S
C2655 H2669 0.961 . S
C2655 H2670 0.961 . S
C2655 H2671 0.961 . S
C2656 C2657 1.370 . S
C2656 C2658 1.363 . S
C2656 H2672 0.931 . S
C2657 C2656 1.370 . S
C2657 C2661 1.408 . S
C2658 C2656 1.363 . S
C2658 C2659 1.370 . S
C2658 C2662 1.524 . S
C2659 C2651 1.503 . S
C2659 C2658 1.370 . S
C2659 C2660 1.403 . S
C2660 C2659 1.403 . S
C2660 C2661 1.404 . S
C2660 C2663 1.539 . S
C2661 C2657 1.408 . S
C2661 C2660 1.404 . S
C2661 H2673 0.930 . S
C2662 C2658 1.524 . S
C2662 H2674 0.956 . S
C2662 H2675 0.961 . S
C2662 H2676 0.961 . S
C2663 C2660 1.539 . S
C2663 H2677 0.958 . S
C2663 H2678 0.961 . S
C2663 H2679 0.960 . S
H2664 C2648 0.931 . S
H2665 C2653 0.929 . S
H2666 C2654 0.960 . S
H2667 C2654 0.962 . S
H2668 C2654 0.960 . S
H2669 C2655 0.961 . S
H2670 C2655 0.961 . S
H2671 C2655 0.961 . S
H2672 C2656 0.931 . S
H2673 C2661 0.930 . S
H2674 C2662 0.956 . S
H2675 C2662 0.961 . S
H2676 C2662 0.961 . S
H2677 C2663 0.958 . S
H2678 C2663 0.961 . S
H2679 C2663 0.960 . S
C2680 C2681 1.391 . S
C2680 C2682 1.394 . S
C2680 H2696 0.931 . S
C2681 C2680 1.391 . S
C2681 C2685 1.376 . S
C2682 C2680 1.394 . S
C2682 C2683 1.369 . S
C2682 C2686 1.531 . S
C2683 C2682 1.369 . S
C2683 C2684 1.410 . S
C2683 C2691 1.503 . S
C2684 C2683 1.410 . S
C2684 C2685 1.392 . S
C2684 C2687 1.511 . S
C2685 C2681 1.376 . S
C2685 C2684 1.392 . S
C2685 H2697 0.929 . S
C2686 C2682 1.531 . S
C2686 H2698 0.960 . S
C2686 H2699 0.962 . S
C2686 H2700 0.960 . S
C2687 C2684 1.511 . S
C2687 H2701 0.961 . S
C2687 H2702 0.961 . S
C2687 H2703 0.961 1_455 S
C2688 C2689 1.370 . S
C2688 C2690 1.363 . S
C2688 H2704 0.931 . S
C2689 C2688 1.370 . S
C2689 C2693 1.408 . S
C2690 C2688 1.363 . S
C2690 C2691 1.370 . S
C2690 C2694 1.524 . S
C2691 C2683 1.503 . S
C2691 C2690 1.370 . S
C2691 C2692 1.403 . S
C2692 C2691 1.403 . S
C2692 C2693 1.404 . S
C2692 C2695 1.539 . S
C2693 C2689 1.408 . S
C2693 C2692 1.404 . S
C2693 H2705 0.930 . S
C2694 C2690 1.524 . S
C2694 H2706 0.956 . S
C2694 H2707 0.961 . S
C2694 H2708 0.961 . S
C2695 C2692 1.539 . S
C2695 H2709 0.958 . S
C2695 H2710 0.961 1_455 S
C2695 H2711 0.974 . S
H2696 C2680 0.931 . S
H2697 C2685 0.929 . S
H2698 C2686 0.960 . S
H2699 C2686 0.962 . S
H2700 C2686 0.960 . S
H2701 C2687 0.961 . S
H2702 C2687 0.961 . S
H2703 C2687 0.961 1_655 S
H2704 C2688 0.931 . S
H2705 C2693 0.930 . S
H2706 C2694 0.956 . S
H2707 C2694 0.961 . S
H2708 C2694 0.961 . S
H2709 C2695 0.958 . S
H2710 C2695 0.961 1_655 S
H2711 C2695 0.974 . S
C2712 C2713 1.391 . S
C2712 C2714 1.394 . S
C2712 H2728 0.931 . S
C2713 C2712 1.391 . S
C2713 C2717 1.376 . S
C2714 C2712 1.394 . S
C2714 C2715 1.369 . S
C2714 C2718 1.531 . S
C2715 C2714 1.369 . S
C2715 C2716 1.410 . S
C2715 C2723 1.503 . S
C2716 C2715 1.410 . S
C2716 C2717 1.392 . S
C2716 C2719 1.511 . S
C2717 C2713 1.376 . S
C2717 C2716 1.392 . S
C2717 H2729 0.929 . S
C2718 C2714 1.531 . S
C2718 H2730 0.960 . S
C2718 H2731 0.962 . S
C2718 H2732 0.960 . S
C2719 C2716 1.511 . S
C2719 H2733 0.961 . S
C2719 H2734 0.961 . S
C2719 H2735 0.961 . S
C2720 C2721 1.370 . S
C2720 C2722 1.363 . S
C2720 H2736 0.931 . S
C2721 C2720 1.370 . S
C2721 C2725 1.408 . S
C2722 C2720 1.363 . S
C2722 C2723 1.370 . S
C2722 C2726 1.524 . S
C2723 C2715 1.503 . S
C2723 C2722 1.370 . S
C2723 C2724 1.403 . S
C2724 C2723 1.403 . S
C2724 C2725 1.404 . S
C2724 C2727 1.539 . S
C2725 C2721 1.408 . S
C2725 C2724 1.404 . S
C2725 H2737 0.930 . S
C2726 C2722 1.524 . S
C2726 H2738 0.956 . S
C2726 H2739 0.961 . S
C2726 H2740 0.961 . S
C2727 C2724 1.539 . S
C2727 H2741 0.958 . S
C2727 H2742 0.961 . S
C2727 H2743 0.960 . S
H2728 C2712 0.931 . S
H2729 C2717 0.929 . S
H2730 C2718 0.960 . S
H2731 C2718 0.962 . S
H2732 C2718 0.960 . S
H2733 C2719 0.961 . S
H2734 C2719 0.961 . S
H2735 C2719 0.961 . S
H2736 C2720 0.931 . S
H2737 C2725 0.930 . S
H2738 C2726 0.956 . S
H2739 C2726 0.961 . S
H2740 C2726 0.961 . S
H2741 C2727 0.958 . S
H2742 C2727 0.961 . S
H2743 C2727 0.960 . S
C2744 C2745 1.391 . S
C2744 C2746 1.394 . S
C2744 H2760 0.931 . S
C2745 C2744 1.391 . S
C2745 C2749 1.376 . S
C2746 C2744 1.394 . S
C2746 C2747 1.369 . S
C2746 C2750 1.531 . S
C2747 C2746 1.369 . S
C2747 C2748 1.410 . S
C2747 C2755 1.503 . S
C2748 C2747 1.410 . S
C2748 C2749 1.392 . S
C2748 C2751 1.511 . S
C2749 C2745 1.376 . S
C2749 C2748 1.392 . S
C2749 H2761 0.929 . S
C2750 C2746 1.531 . S
C2750 H2762 0.960 . S
C2750 H2763 0.962 . S
C2750 H2764 0.960 . S
C2751 C2748 1.511 . S
C2751 H2765 0.961 . S
C2751 H2766 0.961 . S
C2751 H2767 0.961 . S
C2752 C2753 1.370 . S
C2752 C2754 1.363 . S
C2752 H2768 0.931 . S
C2753 C2752 1.370 . S
C2753 C2757 1.408 . S
C2754 C2752 1.363 . S
C2754 C2755 1.370 . S
C2754 C2758 1.524 . S
C2755 C2747 1.503 . S
C2755 C2754 1.370 . S
C2755 C2756 1.403 . S
C2756 C2755 1.403 . S
C2756 C2757 1.404 . S
C2756 C2759 1.539 . S
C2757 C2753 1.408 . S
C2757 C2756 1.404 . S
C2757 H2769 0.930 . S
C2758 C2754 1.524 . S
C2758 H2770 0.956 . S
C2758 H2771 0.961 . S
C2758 H2772 0.961 . S
C2759 C2756 1.539 . S
C2759 H2773 0.958 . S
C2759 H2774 0.961 . S
C2759 H2775 0.960 . S
H2760 C2744 0.931 . S
H2761 C2749 0.929 . S
H2762 C2750 0.960 . S
H2763 C2750 0.962 . S
H2764 C2750 0.960 . S
H2765 C2751 0.961 . S
H2766 C2751 0.961 . S
H2767 C2751 0.961 . S
H2768 C2752 0.931 . S
H2769 C2757 0.930 . S
H2770 C2758 0.956 . S
H2771 C2758 0.961 . S
H2772 C2758 0.961 . S
H2773 C2759 0.958 . S
H2774 C2759 0.961 . S
H2775 C2759 0.960 . S
C2776 C2777 1.391 . S
C2776 C2778 1.394 . S
C2776 H2792 0.931 . S
C2777 C2776 1.391 . S
C2777 C2781 1.376 . S
C2778 C2776 1.394 . S
C2778 C2779 1.369 . S
C2778 C2782 1.531 . S
C2779 C2778 1.369 . S
C2779 C2780 1.410 . S
C2779 C2787 1.503 . S
C2780 C2779 1.410 . S
C2780 C2781 1.392 . S
C2780 C2783 1.511 . S
C2781 C2777 1.376 . S
C2781 C2780 1.392 . S
C2781 H2793 0.929 . S
C2782 C2778 1.531 . S
C2782 H2794 0.960 . S
C2782 H2795 0.962 . S
C2782 H2796 0.960 . S
C2783 C2780 1.511 . S
C2783 H2797 0.961 . S
C2783 H2798 0.961 . S
C2783 H2799 0.961 . S
C2784 C2785 1.370 . S
C2784 C2786 1.363 . S
C2784 H2800 0.931 . S
C2785 C2784 1.370 . S
C2785 C2789 1.408 . S
C2786 C2784 1.363 . S
C2786 C2787 1.370 . S
C2786 C2790 1.524 . S
C2787 C2779 1.503 . S
C2787 C2786 1.370 . S
C2787 C2788 1.403 . S
C2788 C2787 1.403 . S
C2788 C2789 1.404 . S
C2788 C2791 1.539 . S
C2789 C2785 1.408 . S
C2789 C2788 1.404 . S
C2789 H2801 0.930 . S
C2790 C2786 1.524 . S
C2790 H2802 0.956 . S
C2790 H2803 0.961 . S
C2790 H2804 0.961 . S
C2791 C2788 1.539 . S
C2791 H2805 0.958 . S
C2791 H2806 0.961 . S
C2791 H2807 0.960 . S
H2792 C2776 0.931 . S
H2793 C2781 0.929 . S
H2794 C2782 0.960 . S
H2795 C2782 0.962 . S
H2796 C2782 0.960 . S
H2797 C2783 0.961 . S
H2798 C2783 0.961 . S
H2799 C2783 0.961 . S
H2800 C2784 0.931 . S
H2801 C2789 0.930 . S
H2802 C2790 0.956 . S
H2803 C2790 0.961 . S
H2804 C2790 0.961 . S
H2805 C2791 0.958 . S
H2806 C2791 0.961 . S
H2807 C2791 0.960 . S
C2808 C2809 1.391 . S
C2808 C2810 1.394 . S
C2808 H2824 0.931 . S
C2809 C2808 1.391 . S
C2809 C2813 1.376 . S
C2810 C2808 1.394 . S
C2810 C2811 1.369 . S
C2810 C2814 1.531 . S
C2811 C2810 1.369 . S
C2811 C2812 1.410 . S
C2811 C2819 1.503 . S
C2812 C2811 1.410 . S
C2812 C2813 1.392 . S
C2812 C2815 1.511 . S
C2813 C2809 1.376 . S
C2813 C2812 1.392 . S
C2813 H2825 0.929 . S
C2814 C2810 1.531 . S
C2814 H2826 0.960 . S
C2814 H2827 0.962 . S
C2814 H2828 0.960 . S
C2815 C2812 1.511 . S
C2815 H2829 0.961 . S
C2815 H2830 0.961 . S
C2815 H2831 0.961 . S
C2816 C2817 1.370 . S
C2816 C2818 1.363 . S
C2816 H2832 0.931 . S
C2817 C2816 1.370 . S
C2817 C2821 1.408 . S
C2818 C2816 1.363 . S
C2818 C2819 1.370 . S
C2818 C2822 1.524 . S
C2819 C2811 1.503 . S
C2819 C2818 1.370 . S
C2819 C2820 1.403 . S
C2820 C2819 1.403 . S
C2820 C2821 1.404 . S
C2820 C2823 1.539 . S
C2821 C2817 1.408 . S
C2821 C2820 1.404 . S
C2821 H2833 0.930 . S
C2822 C2818 1.524 . S
C2822 H2834 0.956 . S
C2822 H2835 0.961 . S
C2822 H2836 0.961 . S
C2823 C2820 1.539 . S
C2823 H2837 0.958 . S
C2823 H2838 0.961 . S
C2823 H2839 0.960 . S
H2824 C2808 0.931 . S
H2825 C2813 0.929 . S
H2826 C2814 0.960 . S
H2827 C2814 0.962 . S
H2828 C2814 0.960 . S
H2829 C2815 0.961 . S
H2830 C2815 0.961 . S
H2831 C2815 0.961 . S
H2832 C2816 0.931 . S
H2833 C2821 0.930 . S
H2834 C2822 0.956 . S
H2835 C2822 0.961 . S
H2836 C2822 0.961 . S
H2837 C2823 0.958 . S
H2838 C2823 0.961 . S
H2839 C2823 0.960 . S
C2840 C2841 1.391 . S
C2840 C2842 1.394 . S
C2840 H2856 0.931 . S
C2841 C2840 1.391 . S
C2841 C2845 1.376 . S
C2842 C2840 1.394 . S
C2842 C2843 1.369 . S
C2842 C2846 1.531 . S
C2843 C2842 1.369 . S
C2843 C2844 1.410 . S
C2843 C2851 1.503 . S
C2844 C2843 1.410 . S
C2844 C2845 1.392 . S
C2844 C2847 1.511 . S
C2845 C2841 1.376 . S
C2845 C2844 1.392 . S
C2845 H2857 0.929 . S
C2846 C2842 1.531 . S
C2846 H2858 0.960 . S
C2846 H2859 0.962 . S
C2846 H2860 0.960 . S
C2847 C2844 1.511 . S
C2847 H2861 0.961 . S
C2847 H2862 0.961 . S
C2847 H2863 0.961 . S
C2848 C2849 1.370 . S
C2848 C2850 1.363 . S
C2848 H2864 0.931 . S
C2849 C2848 1.370 . S
C2849 C2853 1.408 . S
C2850 C2848 1.363 . S
C2850 C2851 1.370 . S
C2850 C2854 1.524 . S
C2851 C2843 1.503 . S
C2851 C2850 1.370 . S
C2851 C2852 1.403 . S
C2852 C2851 1.403 . S
C2852 C2853 1.404 . S
C2852 C2855 1.539 . S
C2853 C2849 1.408 . S
C2853 C2852 1.404 . S
C2853 H2865 0.930 . S
C2854 C2850 1.524 . S
C2854 H2866 0.956 . S
C2854 H2867 0.961 . S
C2854 H2868 0.961 . S
C2855 C2852 1.539 . S
C2855 H2869 0.958 . S
C2855 H2870 0.961 . S
C2855 H2871 0.960 . S
H2856 C2840 0.931 . S
H2857 C2845 0.929 . S
H2858 C2846 0.960 . S
H2859 C2846 0.962 . S
H2860 C2846 0.960 . S
H2861 C2847 0.961 . S
H2862 C2847 0.961 . S
H2863 C2847 0.961 . S
H2864 C2848 0.931 . S
H2865 C2853 0.930 . S
H2866 C2854 0.956 . S
H2867 C2854 0.961 . S
H2868 C2854 0.961 . S
H2869 C2855 0.958 . S
H2870 C2855 0.961 . S
H2871 C2855 0.960 . S
C2872 C2873 1.391 . S
C2872 C2874 1.394 . S
C2872 H2888 0.931 . S
C2873 C2872 1.391 . S
C2873 C2877 1.376 . S
C2874 C2872 1.394 . S
C2874 C2875 1.369 . S
C2874 C2878 1.531 . S
C2875 C2874 1.369 . S
C2875 C2876 1.410 . S
C2875 C2883 1.503 . S
C2876 C2875 1.410 . S
C2876 C2877 1.392 . S
C2876 C2879 1.511 . S
C2877 C2873 1.376 . S
C2877 C2876 1.392 . S
C2877 H2889 0.929 . S
C2878 C2874 1.531 . S
C2878 H2890 0.960 . S
C2878 H2891 0.962 . S
C2878 H2892 0.960 . S
C2879 C2876 1.511 . S
C2879 H2893 0.961 . S
C2879 H2894 0.961 . S
C2879 H2895 0.961 . S
C2880 C2881 1.370 . S
C2880 C2882 1.363 . S
C2880 H2896 0.931 . S
C2881 C2880 1.370 . S
C2881 C2885 1.408 . S
C2882 C2880 1.363 . S
C2882 C2883 1.370 . S
C2882 C2886 1.524 . S
C2883 C2875 1.503 . S
C2883 C2882 1.370 . S
C2883 C2884 1.403 . S
C2884 C2883 1.403 . S
C2884 C2885 1.404 . S
C2884 C2887 1.539 . S
C2885 C2881 1.408 . S
C2885 C2884 1.404 . S
C2885 H2897 0.930 . S
C2886 C2882 1.524 . S
C2886 H2898 0.956 . S
C2886 H2899 0.961 . S
C2886 H2900 0.961 . S
C2887 C2884 1.539 . S
C2887 H2901 0.958 . S
C2887 H2902 0.961 . S
C2887 H2903 0.960 . S
H2888 C2872 0.931 . S
H2889 C2877 0.929 . S
H2890 C2878 0.960 . S
H2891 C2878 0.962 . S
H2892 C2878 0.960 . S
H2893 C2879 0.961 . S
H2894 C2879 0.961 . S
H2895 C2879 0.961 . S
H2896 C2880 0.931 . S
H2897 C2885 0.930 . S
H2898 C2886 0.956 . S
H2899 C2886 0.961 . S
H2900 C2886 0.961 . S
H2901 C2887 0.958 . S
H2902 C2887 0.961 . S
H2903 C2887 0.960 . S
C2904 C2905 1.391 . S
C2904 C2906 1.394 . S
C2904 H2920 0.931 . S
C2905 C2904 1.391 . S
C2905 C2909 1.376 . S
C2906 C2904 1.394 . S
C2906 C2907 1.369 . S
C2906 C2910 1.531 . S
C2907 C2906 1.369 . S
C2907 C2908 1.410 . S
C2907 C2915 1.503 . S
C2908 C2907 1.410 . S
C2908 C2909 1.392 . S
C2908 C2911 1.511 . S
C2909 C2905 1.376 . S
C2909 C2908 1.392 . S
C2909 H2921 0.929 . S
C2910 C2906 1.531 . S
C2910 H2922 0.960 . S
C2910 H2923 0.962 . S
C2910 H2924 0.960 . S
C2911 C2908 1.511 . S
C2911 H2925 0.961 . S
C2911 H2926 0.961 . S
C2911 H2927 0.961 . S
C2912 C2913 1.370 . S
C2912 C2914 1.363 . S
C2912 H2928 0.931 . S
C2913 C2912 1.370 . S
C2913 C2917 1.408 . S
C2914 C2912 1.363 . S
C2914 C2915 1.370 . S
C2914 C2918 1.524 . S
C2915 C2907 1.503 . S
C2915 C2914 1.370 . S
C2915 C2916 1.403 . S
C2916 C2915 1.403 . S
C2916 C2917 1.404 . S
C2916 C2919 1.539 . S
C2917 C2913 1.408 . S
C2917 C2916 1.404 . S
C2917 H2929 0.930 . S
C2918 C2914 1.524 . S
C2918 H2930 0.956 . S
C2918 H2931 0.961 . S
C2918 H2932 0.961 . S
C2919 C2916 1.539 . S
C2919 H2933 0.958 . S
C2919 H2934 0.961 . S
C2919 H2935 0.960 . S
H2920 C2904 0.931 . S
H2921 C2909 0.929 . S
H2922 C2910 0.960 . S
H2923 C2910 0.962 . S
H2924 C2910 0.960 . S
H2925 C2911 0.961 . S
H2926 C2911 0.961 . S
H2927 C2911 0.961 . S
H2928 C2912 0.931 . S
H2929 C2917 0.930 . S
H2930 C2918 0.956 . S
H2931 C2918 0.961 . S
H2932 C2918 0.961 . S
H2933 C2919 0.958 . S
H2934 C2919 0.961 . S
H2935 C2919 0.960 . S
C2936 C2937 1.391 . S
C2936 C2938 1.394 . S
C2936 H2952 0.931 . S
C2937 C2936 1.391 . S
C2937 C2941 1.376 . S
C2938 C2936 1.394 . S
C2938 C2939 1.369 . S
C2938 C2942 1.531 . S
C2939 C2938 1.369 . S
C2939 C2940 1.410 . S
C2939 C2947 1.503 . S
C2940 C2939 1.410 . S
C2940 C2941 1.392 . S
C2940 C2943 1.511 . S
C2941 C2937 1.376 . S
C2941 C2940 1.392 . S
C2941 H2953 0.929 . S
C2942 C2938 1.531 . S
C2942 H2954 0.960 . S
C2942 H2955 0.962 . S
C2942 H2956 0.960 . S
C2943 C2940 1.511 . S
C2943 H2957 0.961 . S
C2943 H2958 0.961 . S
C2943 H2959 0.961 . S
C2944 C2945 1.370 . S
C2944 C2946 1.363 . S
C2944 H2960 0.931 . S
C2945 C2944 1.370 . S
C2945 C2949 1.408 . S
C2946 C2944 1.363 . S
C2946 C2947 1.370 . S
C2946 C2950 1.524 . S
C2947 C2939 1.503 . S
C2947 C2946 1.370 . S
C2947 C2948 1.403 . S
C2948 C2947 1.403 . S
C2948 C2949 1.404 . S
C2948 C2951 1.539 . S
C2949 C2945 1.408 . S
C2949 C2948 1.404 . S
C2949 H2961 0.930 . S
C2950 C2946 1.524 . S
C2950 H2962 0.956 . S
C2950 H2963 0.961 . S
C2950 H2964 0.961 . S
C2951 C2948 1.539 . S
C2951 H2965 0.958 . S
C2951 H2966 0.961 . S
C2951 H2967 0.960 . S
H2952 C2936 0.931 . S
H2953 C2941 0.929 . S
H2954 C2942 0.960 . S
H2955 C2942 0.962 . S
H2956 C2942 0.960 . S
H2957 C2943 0.961 . S
H2958 C2943 0.961 . S
H2959 C2943 0.961 . S
H2960 C2944 0.931 . S
H2961 C2949 0.930 . S
H2962 C2950 0.956 . S
H2963 C2950 0.961 . S
H2964 C2950 0.961 . S
H2965 C2951 0.958 . S
H2966 C2951 0.961 . S
H2967 C2951 0.960 . S
C2968 C2969 1.391 . S
C2968 C2970 1.394 . S
C2968 H2984 0.931 . S
C2969 C2968 1.391 . S
C2969 C2973 1.376 . S
C2970 C2968 1.394 . S
C2970 C2971 1.369 . S
C2970 C2974 1.531 . S
C2971 C2970 1.369 . S
C2971 C2972 1.410 . S
C2971 C2979 1.503 . S
C2972 C2971 1.410 . S
C2972 C2973 1.392 . S
C2972 C2975 1.511 . S
C2973 C2969 1.376 . S
C2973 C2972 1.392 . S
C2973 H2985 0.929 . S
C2974 C2970 1.531 . S
C2974 H2986 0.960 . S
C2974 H2987 0.962 . S
C2974 H2988 0.960 . S
C2975 C2972 1.511 . S
C2975 H2989 0.961 . S
C2975 H2990 0.961 . S
C2975 H2991 0.961 . S
C2976 C2977 1.370 . S
C2976 C2978 1.363 . S
C2976 H2992 0.931 . S
C2977 C2976 1.370 . S
C2977 C2981 1.408 . S
C2978 C2976 1.363 . S
C2978 C2979 1.370 . S
C2978 C2982 1.524 . S
C2979 C2971 1.503 . S
C2979 C2978 1.370 . S
C2979 C2980 1.403 . S
C2980 C2979 1.403 . S
C2980 C2981 1.404 . S
C2980 C2983 1.539 . S
C2981 C2977 1.408 . S
C2981 C2980 1.404 . S
C2981 H2993 0.930 . S
C2982 C2978 1.524 . S
C2982 H2994 0.956 . S
C2982 H2995 0.961 . S
C2982 H2996 0.961 . S
C2983 C2980 1.539 . S
C2983 H2997 0.958 . S
C2983 H2998 0.961 . S
C2983 H2999 0.960 . S
H2984 C2968 0.931 . S
H2985 C2973 0.929 . S
H2986 C2974 0.960 . S
H2987 C2974 0.962 . S
H2988 C2974 0.960 . S
H2989 C2975 0.961 . S
H2990 C2975 0.961 . S
H2991 C2975 0.961 . S
H2992 C2976 0.931 . S
H2993 C2981 0.930 . S
H2994 C2982 0.956 . S
H2995 C2982 0.961 . S
H2996 C2982 0.961 . S
H2997 C2983 0.958 . S
H2998 C2983 0.961 . S
H2999 C2983 0.960 . S
C3000 C3001 1.391 . S
C3000 C3002 1.394 . S
C3000 H3016 0.931 . S
C3001 C3000 1.391 . S
C3001 C3005 1.376 . S
C3002 C3000 1.394 . S
C3002 C3003 1.369 . S
C3002 C3006 1.531 . S
C3003 C3002 1.369 . S
C3003 C3004 1.410 . S
C3003 C3011 1.503 . S
C3004 C3003 1.410 . S
C3004 C3005 1.392 . S
C3004 C3007 1.511 . S
C3005 C3001 1.376 . S
C3005 C3004 1.392 . S
C3005 H3017 0.929 . S
C3006 C3002 1.531 . S
C3006 H3018 0.960 . S
C3006 H3019 0.962 . S
C3006 H3020 0.960 . S
C3007 C3004 1.511 . S
C3007 H3021 0.961 . S
C3007 H3022 0.961 . S
C3007 H3023 0.961 . S
C3008 C3009 1.370 . S
C3008 C3010 1.363 . S
C3008 H3024 0.931 . S
C3009 C3008 1.370 . S
C3009 C3013 1.408 . S
C3010 C3008 1.363 . S
C3010 C3011 1.370 . S
C3010 C3014 1.524 . S
C3011 C3003 1.503 . S
C3011 C3010 1.370 . S
C3011 C3012 1.403 . S
C3012 C3011 1.403 . S
C3012 C3013 1.404 . S
C3012 C3015 1.539 . S
C3013 C3009 1.408 . S
C3013 C3012 1.404 . S
C3013 H3025 0.930 . S
C3014 C3010 1.524 . S
C3014 H3026 0.956 . S
C3014 H3027 0.961 . S
C3014 H3028 0.961 . S
C3015 C3012 1.539 . S
C3015 H3029 0.958 . S
C3015 H3030 0.961 . S
C3015 H3031 0.960 . S
H3016 C3000 0.931 . S
H3017 C3005 0.929 . S
H3018 C3006 0.960 . S
H3019 C3006 0.962 . S
H3020 C3006 0.960 . S
H3021 C3007 0.961 . S
H3022 C3007 0.961 . S
H3023 C3007 0.961 . S
H3024 C3008 0.931 . S
H3025 C3013 0.930 . S
H3026 C3014 0.956 . S
H3027 C3014 0.961 . S
H3028 C3014 0.961 . S
H3029 C3015 0.958 . S
H3030 C3015 0.961 . S
H3031 C3015 0.960 . S
C3032 C3033 1.391 . S
C3032 C3034 1.394 . S
C3032 H3048 0.931 . S
C3033 C3032 1.391 . S
C3033 C3037 1.376 . S
C3034 C3032 1.394 . S
C3034 C3035 1.369 . S
C3034 C3038 1.531 . S
C3035 C3034 1.369 . S
C3035 C3036 1.410 . S
C3035 C3043 1.503 . S
C3036 C3035 1.410 . S
C3036 C3037 1.392 . S
C3036 C3039 1.511 . S
C3037 C3033 1.376 . S
C3037 C3036 1.392 . S
C3037 H3049 0.929 . S
C3038 C3034 1.531 . S
C3038 H3050 0.960 . S
C3038 H3051 0.962 . S
C3038 H3052 0.960 . S
C3039 C3036 1.511 . S
C3039 H3053 0.961 . S
C3039 H3054 0.961 . S
C3039 H3055 0.961 . S
C3040 C3041 1.370 . S
C3040 C3042 1.363 . S
C3040 H3056 0.931 . S
C3041 C3040 1.370 . S
C3041 C3045 1.408 . S
C3042 C3040 1.363 . S
C3042 C3043 1.370 . S
C3042 C3046 1.524 . S
C3043 C3035 1.503 . S
C3043 C3042 1.370 . S
C3043 C3044 1.403 . S
C3044 C3043 1.403 . S
C3044 C3045 1.404 . S
C3044 C3047 1.539 . S
C3045 C3041 1.408 . S
C3045 C3044 1.404 . S
C3045 H3057 0.930 . S
C3046 C3042 1.524 . S
C3046 H3058 0.956 . S
C3046 H3059 0.961 . S
C3046 H3060 0.961 . S
C3047 C3044 1.539 . S
C3047 H3061 0.958 . S
C3047 H3062 0.961 . S
C3047 H3063 0.960 . S
H3048 C3032 0.931 . S
H3049 C3037 0.929 . S
H3050 C3038 0.960 . S
H3051 C3038 0.962 . S
H3052 C3038 0.960 . S
H3053 C3039 0.961 . S
H3054 C3039 0.961 . S
H3055 C3039 0.961 . S
H3056 C3040 0.931 . S
H3057 C3045 0.930 . S
H3058 C3046 0.956 . S
H3059 C3046 0.961 . S
H3060 C3046 0.961 . S
H3061 C3047 0.958 . S
H3062 C3047 0.961 . S
H3063 C3047 0.960 . S
C3064 C3065 1.391 . S
C3064 C3066 1.394 1_545 S
C3064 H3080 0.931 . S
C3065 C3064 1.391 . S
C3065 C3069 1.376 1_545 S
C3066 C3064 1.394 1_565 S
C3066 C3067 1.369 . S
C3066 C3070 1.535 . S
C3067 C3066 1.369 . S
C3067 C3068 1.410 . S
C3067 C3075 1.503 . S
C3068 C3067 1.410 . S
C3068 C3069 1.392 . S
C3068 C3071 1.511 . S
C3069 C3065 1.376 1_565 S
C3069 C3068 1.392 . S
C3069 H3081 0.929 . S
C3070 C3066 1.535 . S
C3070 H3082 1.006 . S
C3070 H3083 0.954 . S
C3070 H3084 0.921 1_565 S
C3071 C3068 1.511 . S
C3071 H3085 0.961 . S
C3071 H3086 0.961 . S
C3071 H3087 0.961 . S
C3072 C3073 1.370 . S
C3072 C3074 1.363 . S
C3072 H3088 0.931 . S
C3073 C3072 1.370 . S
C3073 C3077 1.408 . S
C3074 C3072 1.363 . S
C3074 C3075 1.370 . S
C3074 C3078 1.524 . S
C3075 C3067 1.503 . S
C3075 C3074 1.370 . S
C3075 C3076 1.403 . S
C3076 C3075 1.403 . S
C3076 C3077 1.404 . S
C3076 C3079 1.539 . S
C3077 C3073 1.408 . S
C3077 C3076 1.404 . S
C3077 H3089 0.930 . S
C3078 C3074 1.524 . S
C3078 H3090 0.956 . S
C3078 H3091 0.961 . S
C3078 H3092 0.961 . S
C3079 C3076 1.539 . S
C3079 H3093 0.958 . S
C3079 H3094 0.961 . S
C3079 H3095 0.960 . S
H3080 C3064 0.931 . S
H3081 C3069 0.929 . S
H3082 C3070 1.006 . S
H3083 C3070 0.954 . S
H3084 C3070 0.921 1_545 S
H3085 C3071 0.961 . S
H3086 C3071 0.961 . S
H3087 C3071 0.961 . S
H3088 C3072 0.931 . S
H3089 C3077 0.930 . S
H3090 C3078 0.956 . S
H3091 C3078 0.961 . S
H3092 C3078 0.961 . S
H3093 C3079 0.958 . S
H3094 C3079 0.961 . S
H3095 C3079 0.960 . S
C3096 C3097 1.391 . S
C3096 C3098 1.394 . S
C3096 H3112 0.931 . S
C3097 C3096 1.391 . S
C3097 C3101 1.376 . S
C3098 C3096 1.394 . S
C3098 C3099 1.369 . S
C3098 C3102 1.531 . S
C3099 C3098 1.369 . S
C3099 C3100 1.410 . S
C3099 C3107 1.503 . S
C3100 C3099 1.410 . S
C3100 C3101 1.392 . S
C3100 C3103 1.511 . S
C3101 C3097 1.376 . S
C3101 C3100 1.392 . S
C3101 H3113 0.929 . S
C3102 C3098 1.531 . S
C3102 H3114 0.960 . S
C3102 H3115 0.962 . S
C3102 H3116 0.960 . S
C3103 C3100 1.511 . S
C3103 H3117 0.961 . S
C3103 H3118 0.961 . S
C3103 H3119 0.961 . S
C3104 C3105 1.370 . S
C3104 C3106 1.363 . S
C3104 H3120 0.931 1_565 S
C3105 C3104 1.370 . S
C3105 C3109 1.408 . S
C3106 C3104 1.363 . S
C3106 C3107 1.370 . S
C3106 C3110 1.524 . S
C3107 C3099 1.503 . S
C3107 C3106 1.370 . S
C3107 C3108 1.403 . S
C3108 C3107 1.403 . S
C3108 C3109 1.404 . S
C3108 C3111 1.518 1_554 S
C3109 C3105 1.408 . S
C3109 C3108 1.404 . S
C3109 H3121 0.930 . S
C3110 C3106 1.524 . S
C3110 H3122 0.956 . S
C3110 H3123 0.961 . S
C3110 H3124 0.961 . S
C3111 C3108 1.518 1_556 S
C3111 H3125 0.963 . S
C3111 H3126 0.985 . S
C3111 H3127 0.943 1_556 S
H3112 C3096 0.931 . S
H3113 C3101 0.929 . S
H3114 C3102 0.960 . S
H3115 C3102 0.962 . S
H3116 C3102 0.960 . S
H3117 C3103 0.961 . S
H3118 C3103 0.961 . S
H3119 C3103 0.961 . S
H3120 C3104 0.931 1_545 S
H3121 C3109 0.930 . S
H3122 C3110 0.956 . S
H3123 C3110 0.961 . S
H3124 C3110 0.961 . S
H3125 C3111 0.963 . S
H3126 C3111 0.985 . S
H3127 C3111 0.943 1_554 S
C3128 C3129 1.391 . S
C3128 C3130 1.394 . S
C3128 H3144 0.931 . S
C3129 C3128 1.391 . S
C3129 C3133 1.376 . S
C3130 C3128 1.394 . S
C3130 C3131 1.369 . S
C3130 C3134 1.531 . S
C3131 C3130 1.369 . S
C3131 C3132 1.410 . S
C3131 C3139 1.503 . S
C3132 C3131 1.410 . S
C3132 C3133 1.392 . S
C3132 C3135 1.511 . S
C3133 C3129 1.376 . S
C3133 C3132 1.392 . S
C3133 H3145 0.929 . S
C3134 C3130 1.531 . S
C3134 H3146 0.960 . S
C3134 H3147 0.962 . S
C3134 H3148 0.960 . S
C3135 C3132 1.511 . S
C3135 H3149 0.961 . S
C3135 H3150 0.961 . S
C3135 H3151 0.961 . S
C3136 C3137 1.370 . S
C3136 C3138 1.363 . S
C3136 H3152 0.931 . S
C3137 C3136 1.370 . S
C3137 C3141 1.408 . S
C3138 C3136 1.363 . S
C3138 C3139 1.370 . S
C3138 C3142 1.524 . S
C3139 C3131 1.503 . S
C3139 C3138 1.370 . S
C3139 C3140 1.403 . S
C3140 C3139 1.403 . S
C3140 C3141 1.404 . S
C3140 C3143 1.539 . S
C3141 C3137 1.408 . S
C3141 C3140 1.404 . S
C3141 H3153 0.930 . S
C3142 C3138 1.524 . S
C3142 H3154 0.956 . S
C3142 H3155 0.961 . S
C3142 H3156 0.961 . S
C3143 C3140 1.539 . S
C3143 H3157 0.958 . S
C3143 H3158 0.961 . S
C3143 H3159 0.960 . S
H3144 C3128 0.931 . S
H3145 C3133 0.929 . S
H3146 C3134 0.960 . S
H3147 C3134 0.962 . S
H3148 C3134 0.960 . S
H3149 C3135 0.961 . S
H3150 C3135 0.961 . S
H3151 C3135 0.961 . S
H3152 C3136 0.931 . S
H3153 C3141 0.930 . S
H3154 C3142 0.956 . S
H3155 C3142 0.961 . S
H3156 C3142 0.961 . S
H3157 C3143 0.958 . S
H3158 C3143 0.961 . S
H3159 C3143 0.960 . S
C3160 C3161 1.391 . S
C3160 C3162 1.394 . S
C3160 H3176 0.931 . S
C3161 C3160 1.391 . S
C3161 C3165 1.376 . S
C3162 C3160 1.394 . S
C3162 C3163 1.369 . S
C3162 C3166 1.531 . S
C3163 C3162 1.369 . S
C3163 C3164 1.410 . S
C3163 C3171 1.503 . S
C3164 C3163 1.410 . S
C3164 C3165 1.392 . S
C3164 C3167 1.511 . S
C3165 C3161 1.376 . S
C3165 C3164 1.392 . S
C3165 H3177 0.929 . S
C3166 C3162 1.531 . S
C3166 H3178 0.960 . S
C3166 H3179 0.962 . S
C3166 H3180 0.960 . S
C3167 C3164 1.511 . S
C3167 H3181 0.961 . S
C3167 H3182 0.961 . S
C3167 H3183 0.961 . S
C3168 C3169 1.370 . S
C3168 C3170 1.363 . S
C3168 H3184 0.931 1_554 S
C3169 C3168 1.370 . S
C3169 C3173 1.408 . S
C3170 C3168 1.363 . S
C3170 C3171 1.370 . S
C3170 C3174 1.524 1_554 S
C3171 C3163 1.503 . S
C3171 C3170 1.370 . S
C3171 C3172 1.403 . S
C3172 C3171 1.403 . S
C3172 C3173 1.404 . S
C3172 C3175 1.539 . S
C3173 C3169 1.408 . S
C3173 C3172 1.404 . S
C3173 H3185 0.930 . S
C3174 C3170 1.524 1_556 S
C3174 H3186 0.956 . S
C3174 H3187 0.961 . S
C3174 H3188 0.961 . S
C3175 C3172 1.539 . S
C3175 H3189 0.958 . S
C3175 H3190 0.961 . S
C3175 H3191 0.960 . S
H3176 C3160 0.931 . S
H3177 C3165 0.929 . S
H3178 C3166 0.960 . S
H3179 C3166 0.962 . S
H3180 C3166 0.960 . S
H3181 C3167 0.961 . S
H3182 C3167 0.961 . S
H3183 C3167 0.961 . S
H3184 C3168 0.931 1_556 S
H3185 C3173 0.930 . S
H3186 C3174 0.956 . S
H3187 C3174 0.961 . S
H3188 C3174 0.961 . S
H3189 C3175 0.958 . S
H3190 C3175 0.961 . S
H3191 C3175 0.960 . S
C3192 C3193 1.391 . S
C3192 C3194 1.394 . S
C3192 H3208 0.931 . S
C3193 C3192 1.391 . S
C3193 C3197 1.376 . S
C3194 C3192 1.394 . S
C3194 C3195 1.369 . S
C3194 C3198 1.531 . S
C3195 C3194 1.369 . S
C3195 C3196 1.410 . S
C3195 C3203 1.503 . S
C3196 C3195 1.410 . S
C3196 C3197 1.392 . S
C3196 C3199 1.511 . S
C3197 C3193 1.376 . S
C3197 C3196 1.392 . S
C3197 H3209 0.929 . S
C3198 C3194 1.531 . S
C3198 H3210 0.960 . S
C3198 H3211 0.962 . S
C3198 H3212 0.960 . S
C3199 C3196 1.511 . S
C3199 H3213 0.961 . S
C3199 H3214 0.961 . S
C3199 H3215 0.961 . S
C3200 C3201 1.370 . S
C3200 C3202 1.363 . S
C3200 H3216 0.931 . S
C3201 C3200 1.370 . S
C3201 C3205 1.408 . S
C3202 C3200 1.363 . S
C3202 C3203 1.370 . S
C3202 C3206 1.524 . S
C3203 C3195 1.503 . S
C3203 C3202 1.370 . S
C3203 C3204 1.403 . S
C3204 C3203 1.403 . S
C3204 C3205 1.404 . S
C3204 C3207 1.539 . S
C3205 C3201 1.408 . S
C3205 C3204 1.404 . S
C3205 H3217 0.930 . S
C3206 C3202 1.524 . S
C3206 H3218 0.956 . S
C3206 H3219 0.961 . S
C3206 H3220 0.961 . S
C3207 C3204 1.539 . S
C3207 H3221 0.958 . S
C3207 H3222 0.961 . S
C3207 H3223 0.960 . S
H3208 C3192 0.931 . S
H3209 C3197 0.929 . S
H3210 C3198 0.960 . S
H3211 C3198 0.962 . S
H3212 C3198 0.960 . S
H3213 C3199 0.961 . S
H3214 C3199 0.961 . S
H3215 C3199 0.961 . S
H3216 C3200 0.931 . S
H3217 C3205 0.930 . S
H3218 C3206 0.956 . S
H3219 C3206 0.961 . S
H3220 C3206 0.961 . S
H3221 C3207 0.958 . S
H3222 C3207 0.961 . S
H3223 C3207 0.960 . S
C3224 C3225 1.381 1_565 S
C3224 C3226 1.407 . S
C3224 H3240 0.928 1_565 S
C3225 C3224 1.381 1_545 S
C3225 C3229 1.376 . S
C3226 C3224 1.407 . S
C3226 C3227 1.369 . S
C3226 C3230 1.531 . S
C3227 C3226 1.369 . S
C3227 C3228 1.410 . S
C3227 C3235 1.503 . S
C3228 C3227 1.410 . S
C3228 C3229 1.392 1_565 S
C3228 C3231 1.511 . S
C3229 C3225 1.376 . S
C3229 C3228 1.392 1_545 S
C3229 H3241 0.929 . S
C3230 C3226 1.531 . S
C3230 H3242 0.960 . S
C3230 H3243 0.962 . S
C3230 H3244 0.960 . S
C3231 C3228 1.511 . S
C3231 H3245 0.961 . S
C3231 H3246 0.961 . S
C3231 H3247 0.961 . S
C3232 C3233 1.370 . S
C3232 C3234 1.363 . S
C3232 H3248 0.931 . S
C3233 C3232 1.370 . S
C3233 C3237 1.408 . S
C3234 C3232 1.363 . S
C3234 C3235 1.370 . S
C3234 C3238 1.524 . S
C3235 C3227 1.503 . S
C3235 C3234 1.370 . S
C3235 C3236 1.403 . S
C3236 C3235 1.403 . S
C3236 C3237 1.404 . S
C3236 C3239 1.539 . S
C3237 C3233 1.408 . S
C3237 C3236 1.404 . S
C3237 H3249 0.930 . S
C3238 C3234 1.524 . S
C3238 H3250 0.956 . S
C3238 H3251 0.961 . S
C3238 H3252 0.961 . S
C3239 C3236 1.539 . S
C3239 H3253 0.958 . S
C3239 H3254 0.961 . S
C3239 H3255 0.960 . S
H3240 C3224 0.928 1_545 S
H3241 C3229 0.929 . S
H3242 C3230 0.960 . S
H3243 C3230 0.962 . S
H3244 C3230 0.960 . S
H3245 C3231 0.961 . S
H3246 C3231 0.961 . S
H3247 C3231 0.961 . S
H3248 C3232 0.931 . S
H3249 C3237 0.930 . S
H3250 C3238 0.956 . S
H3251 C3238 0.961 . S
H3252 C3238 0.961 . S
H3253 C3239 0.958 . S
H3254 C3239 0.961 . S
H3255 C3239 0.960 . S
C3256 C3257 1.391 . S
C3256 C3258 1.394 . S
C3256 H3272 0.931 . S
C3257 C3256 1.391 . S
C3257 C3261 1.376 . S
C3258 C3256 1.394 . S
C3258 C3259 1.369 . S
C3258 C3262 1.531 . S
C3259 C3258 1.369 . S
C3259 C3260 1.410 . S
C3259 C3267 1.503 . S
C3260 C3259 1.410 . S
C3260 C3261 1.392 . S
C3260 C3263 1.511 . S
C3261 C3257 1.376 . S
C3261 C3260 1.392 . S
C3261 H3273 0.929 . S
C3262 C3258 1.531 . S
C3262 H3274 0.960 . S
C3262 H3275 0.962 . S
C3262 H3276 0.960 . S
C3263 C3260 1.511 . S
C3263 H3277 0.961 . S
C3263 H3278 0.961 . S
C3263 H3279 0.961 . S
C3264 C3265 1.370 . S
C3264 C3266 1.363 . S
C3264 H3280 0.931 . S
C3265 C3264 1.370 . S
C3265 C3269 1.408 . S
C3266 C3264 1.363 . S
C3266 C3267 1.370 . S
C3266 C3270 1.524 . S
C3267 C3259 1.503 . S
C3267 C3266 1.370 . S
C3267 C3268 1.403 . S
C3268 C3267 1.403 . S
C3268 C3269 1.404 . S
C3268 C3271 1.539 . S
C3269 C3265 1.408 . S
C3269 C3268 1.404 . S
C3269 H3281 0.930 . S
C3270 C3266 1.524 . S
C3270 H3282 0.956 . S
C3270 H3283 0.961 . S
C3270 H3284 0.961 . S
C3271 C3268 1.539 . S
C3271 H3285 0.958 . S
C3271 H3286 0.961 . S
C3271 H3287 0.960 . S
H3272 C3256 0.931 . S
H3273 C3261 0.929 . S
H3274 C3262 0.960 . S
H3275 C3262 0.962 . S
H3276 C3262 0.960 . S
H3277 C3263 0.961 . S
H3278 C3263 0.961 . S
H3279 C3263 0.961 . S
H3280 C3264 0.931 . S
H3281 C3269 0.930 . S
H3282 C3270 0.956 . S
H3283 C3270 0.961 . S
H3284 C3270 0.961 . S
H3285 C3271 0.958 . S
H3286 C3271 0.961 . S
H3287 C3271 0.960 . S
C3288 C3289 1.391 . S
C3288 C3290 1.394 . S
C3288 H3304 0.931 . S
C3289 C3288 1.391 . S
C3289 C3293 1.376 . S
C3290 C3288 1.394 . S
C3290 C3291 1.369 . S
C3290 C3294 1.531 . S
C3291 C3290 1.369 . S
C3291 C3292 1.410 . S
C3291 C3299 1.503 . S
C3292 C3291 1.410 . S
C3292 C3293 1.392 . S
C3292 C3295 1.511 . S
C3293 C3289 1.376 . S
C3293 C3292 1.392 . S
C3293 H3305 0.929 . S
C3294 C3290 1.531 . S
C3294 H3306 0.960 . S
C3294 H3307 0.962 . S
C3294 H3308 0.960 . S
C3295 C3292 1.511 . S
C3295 H3309 0.961 . S
C3295 H3310 0.961 . S
C3295 H3311 0.961 . S
C3296 C3297 1.370 . S
C3296 C3298 1.363 . S
C3296 H3312 0.931 . S
C3297 C3296 1.370 . S
C3297 C3301 1.408 . S
C3298 C3296 1.363 . S
C3298 C3299 1.370 . S
C3298 C3302 1.524 . S
C3299 C3291 1.503 . S
C3299 C3298 1.370 . S
C3299 C3300 1.403 . S
C3300 C3299 1.403 . S
C3300 C3301 1.404 . S
C3300 C3303 1.539 . S
C3301 C3297 1.408 . S
C3301 C3300 1.404 . S
C3301 H3313 0.930 . S
C3302 C3298 1.524 . S
C3302 H3314 0.956 . S
C3302 H3315 0.961 . S
C3302 H3316 0.961 . S
C3303 C3300 1.539 . S
C3303 H3317 0.958 . S
C3303 H3318 0.961 . S
C3303 H3319 0.960 . S
H3304 C3288 0.931 . S
H3305 C3293 0.929 . S
H3306 C3294 0.960 . S
H3307 C3294 0.962 . S
H3308 C3294 0.960 . S
H3309 C3295 0.961 . S
H3310 C3295 0.961 . S
H3311 C3295 0.961 . S
H3312 C3296 0.931 . S
H3313 C3301 0.930 . S
H3314 C3302 0.956 . S
H3315 C3302 0.961 . S
H3316 C3302 0.961 . S
H3317 C3303 0.958 . S
H3318 C3303 0.961 . S
H3319 C3303 0.960 . S
C3320 C3321 1.391 . S
C3320 C3322 1.394 . S
C3320 H3336 0.931 . S
C3321 C3320 1.391 . S
C3321 C3325 1.376 . S
C3322 C3320 1.394 . S
C3322 C3323 1.369 . S
C3322 C3326 1.531 . S
C3323 C3322 1.369 . S
C3323 C3324 1.410 . S
C3323 C3331 1.503 . S
C3324 C3323 1.410 . S
C3324 C3325 1.392 . S
C3324 C3327 1.511 . S
C3325 C3321 1.376 . S
C3325 C3324 1.392 . S
C3325 H3337 0.929 . S
C3326 C3322 1.531 . S
C3326 H3338 0.960 . S
C3326 H3339 0.962 . S
C3326 H3340 0.960 . S
C3327 C3324 1.511 . S
C3327 H3341 0.961 . S
C3327 H3342 0.961 . S
C3327 H3343 0.961 . S
C3328 C3329 1.370 . S
C3328 C3330 1.363 . S
C3328 H3344 0.931 . S
C3329 C3328 1.370 . S
C3329 C3333 1.408 . S
C3330 C3328 1.363 . S
C3330 C3331 1.370 . S
C3330 C3334 1.524 . S
C3331 C3323 1.503 . S
C3331 C3330 1.370 . S
C3331 C3332 1.403 . S
C3332 C3331 1.403 . S
C3332 C3333 1.404 . S
C3332 C3335 1.539 . S
C3333 C3329 1.408 . S
C3333 C3332 1.404 . S
C3333 H3345 0.930 . S
C3334 C3330 1.524 . S
C3334 H3346 0.956 . S
C3334 H3347 0.961 . S
C3334 H3348 0.961 . S
C3335 C3332 1.539 . S
C3335 H3349 0.958 . S
C3335 H3350 0.961 . S
C3335 H3351 0.960 . S
H3336 C3320 0.931 . S
H3337 C3325 0.929 . S
H3338 C3326 0.960 . S
H3339 C3326 0.962 . S
H3340 C3326 0.960 . S
H3341 C3327 0.961 . S
H3342 C3327 0.961 . S
H3343 C3327 0.961 . S
H3344 C3328 0.931 . S
H3345 C3333 0.930 . S
H3346 C3334 0.956 . S
H3347 C3334 0.961 . S
H3348 C3334 0.961 . S
H3349 C3335 0.958 . S
H3350 C3335 0.961 . S
H3351 C3335 0.960 . S
C3352 C3353 1.391 . S
C3352 C3354 1.394 . S
C3352 H3368 0.931 . S
C3353 C3352 1.391 . S
C3353 C3357 1.376 . S
C3354 C3352 1.394 . S
C3354 C3355 1.369 . S
C3354 C3358 1.531 . S
C3355 C3354 1.369 . S
C3355 C3356 1.410 . S
C3355 C3363 1.503 . S
C3356 C3355 1.410 . S
C3356 C3357 1.392 . S
C3356 C3359 1.511 . S
C3357 C3353 1.376 . S
C3357 C3356 1.392 . S
C3357 H3369 0.929 . S
C3358 C3354 1.531 . S
C3358 H3370 0.960 . S
C3358 H3371 0.962 . S
C3358 H3372 0.960 . S
C3359 C3356 1.511 . S
C3359 H3373 0.961 . S
C3359 H3374 0.961 . S
C3359 H3375 0.961 . S
C3360 C3361 1.370 . S
C3360 C3362 1.363 . S
C3360 H3376 0.931 . S
C3361 C3360 1.370 . S
C3361 C3365 1.408 . S
C3362 C3360 1.363 . S
C3362 C3363 1.370 . S
C3362 C3366 1.524 . S
C3363 C3355 1.503 . S
C3363 C3362 1.370 . S
C3363 C3364 1.403 . S
C3364 C3363 1.403 . S
C3364 C3365 1.404 . S
C3364 C3367 1.539 . S
C3365 C3361 1.408 . S
C3365 C3364 1.404 . S
C3365 H3377 0.930 . S
C3366 C3362 1.524 . S
C3366 H3378 0.956 . S
C3366 H3379 0.961 . S
C3366 H3380 0.961 . S
C3367 C3364 1.539 . S
C3367 H3381 0.958 . S
C3367 H3382 0.961 . S
C3367 H3383 0.960 . S
H3368 C3352 0.931 . S
H3369 C3357 0.929 . S
H3370 C3358 0.960 . S
H3371 C3358 0.962 . S
H3372 C3358 0.960 . S
H3373 C3359 0.961 . S
H3374 C3359 0.961 . S
H3375 C3359 0.961 . S
H3376 C3360 0.931 . S
H3377 C3365 0.930 . S
H3378 C3366 0.956 . S
H3379 C3366 0.961 . S
H3380 C3366 0.961 . S
H3381 C3367 0.958 . S
H3382 C3367 0.961 . S
H3383 C3367 0.960 . S
C3384 C3385 1.391 . S
C3384 C3386 1.394 . S
C3384 H3400 0.931 . S
C3385 C3384 1.391 . S
C3385 C3389 1.376 . S
C3386 C3384 1.394 . S
C3386 C3387 1.369 . S
C3386 C3390 1.531 . S
C3387 C3386 1.369 . S
C3387 C3388 1.410 . S
C3387 C3395 1.503 . S
C3388 C3387 1.410 . S
C3388 C3389 1.392 . S
C3388 C3391 1.511 . S
C3389 C3385 1.376 . S
C3389 C3388 1.392 . S
C3389 H3401 0.929 . S
C3390 C3386 1.531 . S
C3390 H3402 0.960 . S
C3390 H3403 0.962 . S
C3390 H3404 0.960 . S
C3391 C3388 1.511 . S
C3391 H3405 0.944 1_556 S
C3391 H3406 0.961 . S
C3391 H3407 0.961 . S
C3392 C3393 1.370 . S
C3392 C3394 1.363 . S
C3392 H3408 0.931 . S
C3393 C3392 1.370 . S
C3393 C3397 1.408 . S
C3394 C3392 1.363 . S
C3394 C3395 1.370 . S
C3394 C3398 1.524 . S
C3395 C3387 1.503 . S
C3395 C3394 1.370 . S
C3395 C3396 1.403 . S
C3396 C3395 1.403 . S
C3396 C3397 1.404 . S
C3396 C3399 1.539 . S
C3397 C3393 1.408 . S
C3397 C3396 1.404 . S
C3397 H3409 0.930 . S
C3398 C3394 1.524 . S
C3398 H3410 0.956 . S
C3398 H3411 0.961 . S
C3398 H3412 0.961 . S
C3399 C3396 1.539 . S
C3399 H3413 0.958 . S
C3399 H3414 0.961 . S
C3399 H3415 0.960 . S
H3400 C3384 0.931 . S
H3401 C3389 0.929 . S
H3402 C3390 0.960 . S
H3403 C3390 0.962 . S
H3404 C3390 0.960 . S
H3405 C3391 0.944 1_554 S
H3406 C3391 0.961 . S
H3407 C3391 0.961 . S
H3408 C3392 0.931 . S
H3409 C3397 0.930 . S
H3410 C3398 0.956 . S
H3411 C3398 0.961 . S
H3412 C3398 0.961 . S
H3413 C3399 0.958 . S
H3414 C3399 0.961 . S
H3415 C3399 0.960 . S
C3416 C3417 1.391 . S
C3416 C3418 1.394 . S
C3416 H3432 0.931 . S
C3417 C3416 1.391 . S
C3417 C3421 1.376 . S
C3418 C3416 1.394 . S
C3418 C3419 1.369 . S
C3418 C3422 1.531 . S
C3419 C3418 1.369 . S
C3419 C3420 1.410 . S
C3419 C3427 1.503 . S
C3420 C3419 1.410 . S
C3420 C3421 1.392 . S
C3420 C3423 1.511 . S
C3421 C3417 1.376 . S
C3421 C3420 1.392 . S
C3421 H3433 0.929 . S
C3422 C3418 1.531 . S
C3422 H3434 0.960 . S
C3422 H3435 0.962 . S
C3422 H3436 0.960 . S
C3423 C3420 1.511 . S
C3423 H3437 0.961 . S
C3423 H3438 0.961 . S
C3423 H3439 0.961 . S
C3424 C3425 1.370 . S
C3424 C3426 1.363 . S
C3424 H3440 0.931 . S
C3425 C3424 1.370 . S
C3425 C3429 1.408 . S
C3426 C3424 1.363 . S
C3426 C3427 1.370 . S
C3426 C3430 1.524 . S
C3427 C3419 1.503 . S
C3427 C3426 1.370 . S
C3427 C3428 1.403 . S
C3428 C3427 1.403 . S
C3428 C3429 1.404 . S
C3428 C3431 1.539 . S
C3429 C3425 1.408 . S
C3429 C3428 1.404 . S
C3429 H3441 0.930 . S
C3430 C3426 1.524 . S
C3430 H3442 0.956 . S
C3430 H3443 0.961 . S
C3430 H3444 0.961 . S
C3431 C3428 1.539 . S
C3431 H3445 0.958 . S
C3431 H3446 0.961 . S
C3431 H3447 0.960 . S
H3432 C3416 0.931 . S
H3433 C3421 0.929 . S
H3434 C3422 0.960 . S
H3435 C3422 0.962 . S
H3436 C3422 0.960 . S
H3437 C3423 0.961 . S
H3438 C3423 0.961 . S
H3439 C3423 0.961 . S
H3440 C3424 0.931 . S
H3441 C3429 0.930 . S
H3442 C3430 0.956 . S
H3443 C3430 0.961 . S
H3444 C3430 0.961 . S
H3445 C3431 0.958 . S
H3446 C3431 0.961 . S
H3447 C3431 0.960 . S
C3448 C3449 1.391 . S
C3448 C3450 1.394 . S
C3448 H3464 0.931 . S
C3449 C3448 1.391 . S
C3449 C3453 1.376 . S
C3450 C3448 1.394 . S
C3450 C3451 1.369 . S
C3450 C3454 1.531 . S
C3451 C3450 1.369 . S
C3451 C3452 1.410 . S
C3451 C3459 1.503 . S
C3452 C3451 1.410 . S
C3452 C3453 1.392 . S
C3452 C3455 1.511 . S
C3453 C3449 1.376 . S
C3453 C3452 1.392 . S
C3453 H3465 0.929 . S
C3454 C3450 1.531 . S
C3454 H3466 0.960 . S
C3454 H3467 0.962 . S
C3454 H3468 0.960 . S
C3455 C3452 1.511 . S
C3455 H3469 0.961 . S
C3455 H3470 0.961 . S
C3455 H3471 0.961 . S
C3456 C3457 1.370 . S
C3456 C3458 1.363 . S
C3456 H3472 0.931 . S
C3457 C3456 1.370 . S
C3457 C3461 1.408 . S
C3458 C3456 1.363 . S
C3458 C3459 1.370 . S
C3458 C3462 1.524 . S
C3459 C3451 1.503 . S
C3459 C3458 1.370 . S
C3459 C3460 1.403 . S
C3460 C3459 1.403 . S
C3460 C3461 1.404 . S
C3460 C3463 1.539 . S
C3461 C3457 1.408 . S
C3461 C3460 1.404 . S
C3461 H3473 0.930 . S
C3462 C3458 1.524 . S
C3462 H3474 0.956 . S
C3462 H3475 0.961 . S
C3462 H3476 0.961 . S
C3463 C3460 1.539 . S
C3463 H3477 0.958 . S
C3463 H3478 0.961 . S
C3463 H3479 0.960 . S
H3464 C3448 0.931 . S
H3465 C3453 0.929 . S
H3466 C3454 0.960 . S
H3467 C3454 0.962 . S
H3468 C3454 0.960 . S
H3469 C3455 0.961 . S
H3470 C3455 0.961 . S
H3471 C3455 0.961 . S
H3472 C3456 0.931 . S
H3473 C3461 0.930 . S
H3474 C3462 0.956 . S
H3475 C3462 0.961 . S
H3476 C3462 0.961 . S
H3477 C3463 0.958 . S
H3478 C3463 0.961 . S
H3479 C3463 0.960 . S
C3480 C3481 1.391 . S
C3480 C3482 1.394 . S
C3480 H3496 0.931 . S
C3481 C3480 1.391 . S
C3481 C3485 1.376 . S
C3482 C3480 1.394 . S
C3482 C3483 1.369 . S
C3482 C3486 1.531 . S
C3483 C3482 1.369 . S
C3483 C3484 1.410 . S
C3483 C3491 1.503 . S
C3484 C3483 1.410 . S
C3484 C3485 1.392 . S
C3484 C3487 1.511 . S
C3485 C3481 1.376 . S
C3485 C3484 1.392 . S
C3485 H3497 0.929 . S
C3486 C3482 1.531 . S
C3486 H3498 0.960 . S
C3486 H3499 0.962 . S
C3486 H3500 0.960 . S
C3487 C3484 1.511 . S
C3487 H3501 0.961 . S
C3487 H3502 0.961 . S
C3487 H3503 0.961 . S
C3488 C3489 1.370 . S
C3488 C3490 1.363 . S
C3488 H3504 0.931 . S
C3489 C3488 1.370 . S
C3489 C3493 1.408 . S
C3490 C3488 1.363 . S
C3490 C3491 1.370 . S
C3490 C3494 1.524 . S
C3491 C3483 1.503 . S
C3491 C3490 1.370 . S
C3491 C3492 1.403 . S
C3492 C3491 1.403 . S
C3492 C3493 1.404 . S
C3492 C3495 1.539 . S
C3493 C3489 1.408 . S
C3493 C3492 1.404 . S
C3493 H3505 0.930 . S
C3494 C3490 1.524 . S
C3494 H3506 0.956 . S
C3494 H3507 0.961 . S
C3494 H3508 0.961 . S
C3495 C3492 1.539 . S
C3495 H3509 0.958 . S
C3495 H3510 0.961 . S
C3495 H3511 0.960 . S
H3496 C3480 0.931 . S
H3497 C3485 0.929 . S
H3498 C3486 0.960 . S
H3499 C3486 0.962 . S
H3500 C3486 0.960 . S
H3501 C3487 0.961 . S
H3502 C3487 0.961 . S
H3503 C3487 0.961 . S
H3504 C3488 0.931 . S
H3505 C3493 0.930 . S
H3506 C3494 0.956 . S
H3507 C3494 0.961 . S
H3508 C3494 0.961 . S
H3509 C3495 0.958 . S
H3510 C3495 0.961 . S
H3511 C3495 0.960 . S
C3512 C3513 1.391 . S
C3512 C3514 1.394 . S
C3512 H3528 0.931 . S
C3513 C3512 1.391 . S
C3513 C3517 1.376 . S
C3514 C3512 1.394 . S
C3514 C3515 1.369 . S
C3514 C3518 1.531 . S
C3515 C3514 1.369 . S
C3515 C3516 1.410 . S
C3515 C3523 1.503 . S
C3516 C3515 1.410 . S
C3516 C3517 1.392 . S
C3516 C3519 1.511 . S
C3517 C3513 1.376 . S
C3517 C3516 1.392 . S
C3517 H3529 0.929 . S
C3518 C3514 1.531 . S
C3518 H3530 0.960 . S
C3518 H3531 0.962 . S
C3518 H3532 0.960 . S
C3519 C3516 1.511 . S
C3519 H3533 0.961 . S
C3519 H3534 0.961 . S
C3519 H3535 0.961 . S
C3520 C3521 1.370 . S
C3520 C3522 1.363 . S
C3520 H3536 0.931 . S
C3521 C3520 1.370 . S
C3521 C3525 1.408 . S
C3522 C3520 1.363 . S
C3522 C3523 1.370 . S
C3522 C3526 1.524 . S
C3523 C3515 1.503 . S
C3523 C3522 1.370 . S
C3523 C3524 1.403 . S
C3524 C3523 1.403 . S
C3524 C3525 1.404 . S
C3524 C3527 1.539 . S
C3525 C3521 1.408 . S
C3525 C3524 1.404 . S
C3525 H3537 0.930 . S
C3526 C3522 1.524 . S
C3526 H3538 0.956 . S
C3526 H3539 0.961 . S
C3526 H3540 0.961 . S
C3527 C3524 1.539 . S
C3527 H3541 0.958 . S
C3527 H3542 0.961 . S
C3527 H3543 0.960 . S
H3528 C3512 0.931 . S
H3529 C3517 0.929 . S
H3530 C3518 0.960 . S
H3531 C3518 0.962 . S
H3532 C3518 0.960 . S
H3533 C3519 0.961 . S
H3534 C3519 0.961 . S
H3535 C3519 0.961 . S
H3536 C3520 0.931 . S
H3537 C3525 0.930 . S
H3538 C3526 0.956 . S
H3539 C3526 0.961 . S
H3540 C3526 0.961 . S
H3541 C3527 0.958 . S
H3542 C3527 0.961 . S
H3543 C3527 0.960 . S
C3544 C3545 1.391 . S
C3544 C3546 1.394 . S
C3544 H3560 0.931 . S
C3545 C3544 1.391 . S
C3545 C3549 1.376 . S
C3546 C3544 1.394 . S
C3546 C3547 1.369 . S
C3546 C3550 1.531 . S
C3547 C3546 1.369 . S
C3547 C3548 1.410 . S
C3547 C3555 1.503 . S
C3548 C3547 1.410 . S
C3548 C3549 1.392 . S
C3548 C3551 1.511 . S
C3549 C3545 1.376 . S
C3549 C3548 1.392 . S
C3549 H3561 0.929 . S
C3550 C3546 1.531 . S
C3550 H3562 0.960 . S
C3550 H3563 0.962 . S
C3550 H3564 0.960 . S
C3551 C3548 1.511 . S
C3551 H3565 0.961 . S
C3551 H3566 0.961 . S
C3551 H3567 0.961 . S
C3552 C3553 1.370 . S
C3552 C3554 1.363 . S
C3552 H3568 0.931 . S
C3553 C3552 1.370 . S
C3553 C3557 1.408 . S
C3554 C3552 1.363 . S
C3554 C3555 1.370 . S
C3554 C3558 1.524 . S
C3555 C3547 1.503 . S
C3555 C3554 1.370 . S
C3555 C3556 1.403 . S
C3556 C3555 1.403 . S
C3556 C3557 1.404 . S
C3556 C3559 1.539 . S
C3557 C3553 1.408 . S
C3557 C3556 1.404 . S
C3557 H3569 0.930 . S
C3558 C3554 1.524 . S
C3558 H3570 0.956 . S
C3558 H3571 0.961 . S
C3558 H3572 0.961 . S
C3559 C3556 1.539 . S
C3559 H3573 0.958 . S
C3559 H3574 0.961 . S
C3559 H3575 0.960 . S
H3560 C3544 0.931 . S
H3561 C3549 0.929 . S
H3562 C3550 0.960 . S
H3563 C3550 0.962 . S
H3564 C3550 0.960 . S
H3565 C3551 0.961 . S
H3566 C3551 0.961 . S
H3567 C3551 0.961 . S
H3568 C3552 0.931 . S
H3569 C3557 0.930 . S
H3570 C3558 0.956 . S
H3571 C3558 0.961 . S
H3572 C3558 0.961 . S
H3573 C3559 0.958 . S
H3574 C3559 0.961 . S
H3575 C3559 0.960 . S
C3576 C3577 1.391 . S
C3576 C3578 1.394 . S
C3576 H3592 0.931 1_455 S
C3577 C3576 1.391 . S
C3577 C3581 1.376 . S
C3578 C3576 1.394 . S
C3578 C3579 1.369 . S
C3578 C3582 1.531 . S
C3579 C3578 1.369 . S
C3579 C3580 1.410 . S
C3579 C3587 1.503 . S
C3580 C3579 1.410 . S
C3580 C3581 1.392 . S
C3580 C3583 1.511 . S
C3581 C3577 1.376 . S
C3581 C3580 1.392 . S
C3581 H3593 0.929 . S
C3582 C3578 1.531 . S
C3582 H3594 0.960 . S
C3582 H3595 0.962 1_455 S
C3582 H3596 0.960 1_455 S
C3583 C3580 1.511 . S
C3583 H3597 0.961 . S
C3583 H3598 0.961 . S
C3583 H3599 0.961 . S
C3584 C3585 1.370 . S
C3584 C3586 1.363 . S
C3584 H3600 0.931 . S
C3585 C3584 1.370 . S
C3585 C3589 1.408 . S
C3586 C3584 1.363 . S
C3586 C3587 1.370 . S
C3586 C3590 1.524 . S
C3587 C3579 1.503 . S
C3587 C3586 1.370 . S
C3587 C3588 1.403 . S
C3588 C3587 1.403 . S
C3588 C3589 1.404 . S
C3588 C3591 1.539 . S
C3589 C3585 1.408 . S
C3589 C3588 1.404 . S
C3589 H3601 0.930 . S
C3590 C3586 1.524 . S
C3590 H3602 0.955 1_455 S
C3590 H3603 0.961 . S
C3590 H3604 0.961 . S
C3591 C3588 1.539 . S
C3591 H3605 0.958 . S
C3591 H3606 0.961 . S
C3591 H3607 0.960 . S
H3592 C3576 0.931 1_655 S
H3593 C3581 0.929 . S
H3594 C3582 0.960 . S
H3595 C3582 0.962 1_655 S
H3596 C3582 0.960 1_655 S
H3597 C3583 0.961 . S
H3598 C3583 0.961 . S
H3599 C3583 0.961 . S
H3600 C3584 0.931 . S
H3601 C3589 0.930 . S
H3602 C3590 0.955 1_655 S
H3603 C3590 0.961 . S
H3604 C3590 0.961 . S
H3605 C3591 0.958 . S
H3606 C3591 0.961 . S
H3607 C3591 0.960 . S
C3608 C3609 1.391 . S
C3608 C3610 1.394 . S
C3608 H3624 0.931 . S
C3609 C3608 1.391 . S
C3609 C3613 1.376 . S
C3610 C3608 1.394 . S
C3610 C3611 1.369 . S
C3610 C3614 1.531 . S
C3611 C3610 1.369 . S
C3611 C3612 1.410 . S
C3611 C3619 1.503 . S
C3612 C3611 1.410 . S
C3612 C3613 1.392 . S
C3612 C3615 1.511 . S
C3613 C3609 1.376 . S
C3613 C3612 1.392 . S
C3613 H3625 0.929 . S
C3614 C3610 1.531 . S
C3614 H3626 0.960 . S
C3614 H3627 0.962 . S
C3614 H3628 0.960 . S
C3615 C3612 1.511 . S
C3615 H3629 0.961 . S
C3615 H3630 0.961 . S
C3615 H3631 0.961 . S
C3616 C3617 1.370 . S
C3616 C3618 1.363 . S
C3616 H3632 0.931 . S
C3617 C3616 1.370 . S
C3617 C3621 1.408 . S
C3618 C3616 1.363 . S
C3618 C3619 1.370 . S
C3618 C3622 1.524 . S
C3619 C3611 1.503 . S
C3619 C3618 1.370 . S
C3619 C3620 1.403 . S
C3620 C3619 1.403 . S
C3620 C3621 1.404 . S
C3620 C3623 1.539 . S
C3621 C3617 1.408 . S
C3621 C3620 1.404 . S
C3621 H3633 0.930 . S
C3622 C3618 1.524 . S
C3622 H3634 0.956 . S
C3622 H3635 0.961 . S
C3622 H3636 0.961 . S
C3623 C3620 1.539 . S
C3623 H3637 0.958 . S
C3623 H3638 0.961 . S
C3623 H3639 0.960 . S
H3624 C3608 0.931 . S
H3625 C3613 0.929 . S
H3626 C3614 0.960 . S
H3627 C3614 0.962 . S
H3628 C3614 0.960 . S
H3629 C3615 0.961 . S
H3630 C3615 0.961 . S
H3631 C3615 0.961 . S
H3632 C3616 0.931 . S
H3633 C3621 0.930 . S
H3634 C3622 0.956 . S
H3635 C3622 0.961 . S
H3636 C3622 0.961 . S
H3637 C3623 0.958 . S
H3638 C3623 0.961 . S
H3639 C3623 0.960 . S
C3640 C3641 1.391 . S
C3640 C3642 1.394 . S
C3640 H3656 0.931 . S
C3641 C3640 1.391 . S
C3641 C3645 1.376 . S
C3642 C3640 1.394 . S
C3642 C3643 1.369 . S
C3642 C3646 1.531 . S
C3643 C3642 1.369 . S
C3643 C3644 1.410 . S
C3643 C3651 1.503 . S
C3644 C3643 1.410 . S
C3644 C3645 1.392 . S
C3644 C3647 1.511 . S
C3645 C3641 1.376 . S
C3645 C3644 1.392 . S
C3645 H3657 0.929 . S
C3646 C3642 1.531 . S
C3646 H3658 0.960 . S
C3646 H3659 0.962 . S
C3646 H3660 0.960 . S
C3647 C3644 1.511 . S
C3647 H3661 0.961 . S
C3647 H3662 0.961 . S
C3647 H3663 0.961 . S
C3648 C3649 1.370 . S
C3648 C3650 1.363 . S
C3648 H3664 0.931 . S
C3649 C3648 1.370 . S
C3649 C3653 1.408 . S
C3650 C3648 1.363 . S
C3650 C3651 1.370 . S
C3650 C3654 1.524 . S
C3651 C3643 1.503 . S
C3651 C3650 1.370 . S
C3651 C3652 1.403 . S
C3652 C3651 1.403 . S
C3652 C3653 1.404 . S
C3652 C3655 1.539 . S
C3653 C3649 1.408 . S
C3653 C3652 1.404 . S
C3653 H3665 0.930 . S
C3654 C3650 1.524 . S
C3654 H3666 0.956 . S
C3654 H3667 0.961 . S
C3654 H3668 0.961 . S
C3655 C3652 1.539 . S
C3655 H3669 0.958 . S
C3655 H3670 0.961 . S
C3655 H3671 0.960 . S
H3656 C3640 0.931 . S
H3657 C3645 0.929 . S
H3658 C3646 0.960 . S
H3659 C3646 0.962 . S
H3660 C3646 0.960 . S
H3661 C3647 0.961 . S
H3662 C3647 0.961 . S
H3663 C3647 0.961 . S
H3664 C3648 0.931 . S
H3665 C3653 0.930 . S
H3666 C3654 0.956 . S
H3667 C3654 0.961 . S
H3668 C3654 0.961 . S
H3669 C3655 0.958 . S
H3670 C3655 0.961 . S
H3671 C3655 0.960 . S
C3672 C3673 1.391 . S
C3672 C3674 1.394 . S
C3672 H3688 0.931 . S
C3673 C3672 1.391 . S
C3673 C3677 1.376 . S
C3674 C3672 1.394 . S
C3674 C3675 1.369 . S
C3674 C3678 1.531 . S
C3675 C3674 1.369 . S
C3675 C3676 1.410 . S
C3675 C3683 1.503 . S
C3676 C3675 1.410 . S
C3676 C3677 1.392 . S
C3676 C3679 1.511 . S
C3677 C3673 1.376 . S
C3677 C3676 1.392 . S
C3677 H3689 0.929 . S
C3678 C3674 1.531 . S
C3678 H3690 0.960 . S
C3678 H3691 0.962 . S
C3678 H3692 0.960 . S
C3679 C3676 1.511 . S
C3679 H3693 0.961 . S
C3679 H3694 0.961 . S
C3679 H3695 0.961 . S
C3680 C3681 1.370 . S
C3680 C3682 1.363 . S
C3680 H3696 0.931 . S
C3681 C3680 1.370 . S
C3681 C3685 1.408 . S
C3682 C3680 1.363 . S
C3682 C3683 1.370 . S
C3682 C3686 1.524 . S
C3683 C3675 1.503 . S
C3683 C3682 1.370 . S
C3683 C3684 1.403 . S
C3684 C3683 1.403 . S
C3684 C3685 1.404 . S
C3684 C3687 1.539 . S
C3685 C3681 1.408 . S
C3685 C3684 1.404 . S
C3685 H3697 0.930 . S
C3686 C3682 1.524 . S
C3686 H3698 0.956 . S
C3686 H3699 0.961 . S
C3686 H3700 0.961 . S
C3687 C3684 1.539 . S
C3687 H3701 0.958 . S
C3687 H3702 0.961 . S
C3687 H3703 0.960 . S
H3688 C3672 0.931 . S
H3689 C3677 0.929 . S
H3690 C3678 0.960 . S
H3691 C3678 0.962 . S
H3692 C3678 0.960 . S
H3693 C3679 0.961 . S
H3694 C3679 0.961 . S
H3695 C3679 0.961 . S
H3696 C3680 0.931 . S
H3697 C3685 0.930 . S
H3698 C3686 0.956 . S
H3699 C3686 0.961 . S
H3700 C3686 0.961 . S
H3701 C3687 0.958 . S
H3702 C3687 0.961 . S
H3703 C3687 0.960 . S
C3704 C3705 1.391 . S
C3704 C3706 1.394 . S
C3704 H3720 0.931 . S
C3705 C3704 1.391 . S
C3705 C3709 1.376 . S
C3706 C3704 1.394 . S
C3706 C3707 1.369 . S
C3706 C3710 1.531 . S
C3707 C3706 1.369 . S
C3707 C3708 1.410 . S
C3707 C3715 1.503 . S
C3708 C3707 1.410 . S
C3708 C3709 1.392 . S
C3708 C3711 1.511 1_455 S
C3709 C3705 1.376 . S
C3709 C3708 1.392 . S
C3709 H3721 0.929 1_455 S
C3710 C3706 1.531 . S
C3710 H3722 0.960 . S
C3710 H3723 0.962 . S
C3710 H3724 0.960 . S
C3711 C3708 1.511 1_655 S
C3711 H3725 0.961 . S
C3711 H3726 0.961 . S
C3711 H3727 0.961 . S
C3712 C3713 1.370 . S
C3712 C3714 1.363 . S
C3712 H3728 0.931 1_455 S
C3713 C3712 1.370 . S
C3713 C3717 1.408 . S
C3714 C3712 1.363 . S
C3714 C3715 1.370 . S
C3714 C3718 1.524 1_455 S
C3715 C3707 1.503 . S
C3715 C3714 1.370 . S
C3715 C3716 1.403 . S
C3716 C3715 1.403 . S
C3716 C3717 1.404 . S
C3716 C3719 1.539 . S
C3717 C3713 1.408 . S
C3717 C3716 1.404 . S
C3717 H3729 0.930 . S
C3718 C3714 1.524 1_655 S
C3718 H3730 0.956 1_655 S
C3718 H3731 0.961 . S
C3718 H3732 0.961 . S
C3719 C3716 1.539 . S
C3719 H3733 0.958 . S
C3719 H3734 0.961 . S
C3719 H3735 0.960 . S
H3720 C3704 0.931 . S
H3721 C3709 0.929 1_655 S
H3722 C3710 0.960 . S
H3723 C3710 0.962 . S
H3724 C3710 0.960 . S
H3725 C3711 0.961 . S
H3726 C3711 0.961 . S
H3727 C3711 0.961 . S
H3728 C3712 0.931 1_655 S
H3729 C3717 0.930 . S
H3730 C3718 0.956 1_455 S
H3731 C3718 0.961 . S
H3732 C3718 0.961 . S
H3733 C3719 0.958 . S
H3734 C3719 0.961 . S
H3735 C3719 0.960 . S
C3736 C3737 1.391 . S
C3736 C3738 1.394 . S
C3736 H3752 0.931 . S
C3737 C3736 1.391 . S
C3737 C3741 1.376 . S
C3738 C3736 1.394 . S
C3738 C3739 1.369 . S
C3738 C3742 1.531 . S
C3739 C3738 1.369 . S
C3739 C3740 1.410 . S
C3739 C3747 1.503 . S
C3740 C3739 1.410 . S
C3740 C3741 1.392 . S
C3740 C3743 1.511 . S
C3741 C3737 1.376 . S
C3741 C3740 1.392 . S
C3741 H3753 0.929 . S
C3742 C3738 1.531 . S
C3742 H3754 0.960 . S
C3742 H3755 0.962 . S
C3742 H3756 0.960 . S
C3743 C3740 1.511 . S
C3743 H3757 0.961 . S
C3743 H3758 0.961 . S
C3743 H3759 0.961 . S
C3744 C3745 1.370 . S
C3744 C3746 1.363 . S
C3744 H3760 0.931 . S
C3745 C3744 1.370 . S
C3745 C3749 1.408 . S
C3746 C3744 1.363 . S
C3746 C3747 1.370 . S
C3746 C3750 1.524 . S
C3747 C3739 1.503 . S
C3747 C3746 1.370 . S
C3747 C3748 1.403 . S
C3748 C3747 1.403 . S
C3748 C3749 1.404 . S
C3748 C3751 1.539 . S
C3749 C3745 1.408 . S
C3749 C3748 1.404 . S
C3749 H3761 0.930 . S
C3750 C3746 1.524 . S
C3750 H3762 0.956 . S
C3750 H3763 0.961 . S
C3750 H3764 0.961 . S
C3751 C3748 1.539 . S
C3751 H3765 0.958 . S
C3751 H3766 0.961 . S
C3751 H3767 0.960 . S
H3752 C3736 0.931 . S
H3753 C3741 0.929 . S
H3754 C3742 0.960 . S
H3755 C3742 0.962 . S
H3756 C3742 0.960 . S
H3757 C3743 0.961 . S
H3758 C3743 0.961 . S
H3759 C3743 0.961 . S
H3760 C3744 0.931 . S
H3761 C3749 0.930 . S
H3762 C3750 0.956 . S
H3763 C3750 0.961 . S
H3764 C3750 0.961 . S
H3765 C3751 0.958 . S
H3766 C3751 0.961 . S
H3767 C3751 0.960 . S
C3768 C3769 1.391 . S
C3768 C3770 1.394 . S
C3768 H3784 0.931 . S
C3769 C3768 1.391 . S
C3769 C3773 1.376 . S
C3770 C3768 1.394 . S
C3770 C3771 1.369 . S
C3770 C3774 1.531 . S
C3771 C3770 1.369 . S
C3771 C3772 1.410 . S
C3771 C3779 1.503 . S
C3772 C3771 1.410 . S
C3772 C3773 1.392 . S
C3772 C3775 1.511 . S
C3773 C3769 1.376 . S
C3773 C3772 1.392 . S
C3773 H3785 0.929 . S
C3774 C3770 1.531 . S
C3774 H3786 0.960 . S
C3774 H3787 0.962 . S
C3774 H3788 0.960 . S
C3775 C3772 1.511 . S
C3775 H3789 0.961 . S
C3775 H3790 0.961 . S
C3775 H3791 0.961 . S
C3776 C3777 1.370 . S
C3776 C3778 1.363 . S
C3776 H3792 0.931 . S
C3777 C3776 1.370 . S
C3777 C3781 1.408 . S
C3778 C3776 1.363 . S
C3778 C3779 1.370 . S
C3778 C3782 1.524 . S
C3779 C3771 1.503 . S
C3779 C3778 1.370 . S
C3779 C3780 1.403 . S
C3780 C3779 1.403 . S
C3780 C3781 1.404 . S
C3780 C3783 1.539 . S
C3781 C3777 1.408 . S
C3781 C3780 1.404 . S
C3781 H3793 0.930 . S
C3782 C3778 1.524 . S
C3782 H3794 0.956 . S
C3782 H3795 0.961 . S
C3782 H3796 0.961 . S
C3783 C3780 1.539 . S
C3783 H3797 0.958 . S
C3783 H3798 0.961 . S
C3783 H3799 0.960 . S
H3784 C3768 0.931 . S
H3785 C3773 0.929 . S
H3786 C3774 0.960 . S
H3787 C3774 0.962 . S
H3788 C3774 0.960 . S
H3789 C3775 0.961 . S
H3790 C3775 0.961 . S
H3791 C3775 0.961 . S
H3792 C3776 0.931 . S
H3793 C3781 0.930 . S
H3794 C3782 0.956 . S
H3795 C3782 0.961 . S
H3796 C3782 0.961 . S
H3797 C3783 0.958 . S
H3798 C3783 0.961 . S
H3799 C3783 0.960 . S
C3800 C3801 1.391 . S
C3800 C3802 1.394 . S
C3800 H3816 0.931 . S
C3801 C3800 1.391 . S
C3801 C3805 1.376 . S
C3802 C3800 1.394 . S
C3802 C3803 1.369 . S
C3802 C3806 1.531 . S
C3803 C3802 1.369 . S
C3803 C3804 1.410 . S
C3803 C3811 1.503 . S
C3804 C3803 1.410 . S
C3804 C3805 1.392 . S
C3804 C3807 1.511 1_565 S
C3805 C3801 1.376 . S
C3805 C3804 1.392 . S
C3805 H3817 0.929 . S
C3806 C3802 1.531 . S
C3806 H3818 0.960 . S
C3806 H3819 0.962 . S
C3806 H3820 0.960 . S
C3807 C3804 1.511 1_545 S
C3807 H3821 0.961 . S
C3807 H3822 0.961 . S
C3807 H3823 0.961 . S
C3808 C3809 1.370 1_565 S
C3808 C3810 1.363 . S
C3808 H3824 0.929 . S
C3809 C3808 1.370 1_545 S
C3809 C3813 1.408 . S
C3810 C3808 1.363 . S
C3810 C3811 1.370 . S
C3810 C3814 1.524 . S
C3811 C3803 1.503 . S
C3811 C3810 1.370 . S
C3811 C3812 1.403 . S
C3812 C3811 1.403 . S
C3812 C3813 1.404 1_565 S
C3812 C3815 1.539 . S
C3813 C3809 1.408 . S
C3813 C3812 1.404 1_545 S
C3813 H3825 0.930 . S
C3814 C3810 1.524 . S
C3814 H3826 0.956 . S
C3814 H3827 0.961 . S
C3814 H3828 0.961 . S
C3815 C3812 1.539 . S
C3815 H3829 0.958 . S
C3815 H3830 0.969 . S
C3815 H3831 0.960 . S
H3816 C3800 0.931 . S
H3817 C3805 0.929 . S
H3818 C3806 0.960 . S
H3819 C3806 0.962 . S
H3820 C3806 0.960 . S
H3821 C3807 0.961 . S
H3822 C3807 0.961 . S
H3823 C3807 0.961 . S
H3824 C3808 0.929 . S
H3825 C3813 0.930 . S
H3826 C3814 0.956 . S
H3827 C3814 0.961 . S
H3828 C3814 0.961 . S
H3829 C3815 0.958 . S
H3830 C3815 0.969 . S
H3831 C3815 0.960 . S
C3832 C3833 1.391 . S
C3832 C3834 1.394 . S
C3832 H3848 0.931 . S
C3833 C3832 1.391 . S
C3833 C3837 1.376 . S
C3834 C3832 1.394 . S
C3834 C3835 1.369 . S
C3834 C3838 1.531 . S
C3835 C3834 1.369 . S
C3835 C3836 1.410 . S
C3835 C3843 1.503 . S
C3836 C3835 1.410 . S
C3836 C3837 1.392 . S
C3836 C3839 1.511 . S
C3837 C3833 1.376 . S
C3837 C3836 1.392 . S
C3837 H3849 0.929 . S
C3838 C3834 1.531 . S
C3838 H3850 0.960 . S
C3838 H3851 0.962 . S
C3838 H3852 0.960 . S
C3839 C3836 1.511 . S
C3839 H3853 0.961 . S
C3839 H3854 0.961 . S
C3839 H3855 0.961 . S
C3840 C3841 1.370 . S
C3840 C3842 1.363 . S
C3840 H3856 0.931 . S
C3841 C3840 1.370 . S
C3841 C3845 1.408 . S
C3842 C3840 1.363 . S
C3842 C3843 1.370 . S
C3842 C3846 1.524 . S
C3843 C3835 1.503 . S
C3843 C3842 1.370 . S
C3843 C3844 1.403 . S
C3844 C3843 1.403 . S
C3844 C3845 1.404 . S
C3844 C3847 1.539 . S
C3845 C3841 1.408 . S
C3845 C3844 1.404 . S
C3845 H3857 0.930 . S
C3846 C3842 1.524 . S
C3846 H3858 0.956 . S
C3846 H3859 0.961 . S
C3846 H3860 0.961 . S
C3847 C3844 1.539 . S
C3847 H3861 0.958 . S
C3847 H3862 0.961 . S
C3847 H3863 0.960 . S
H3848 C3832 0.931 . S
H3849 C3837 0.929 . S
H3850 C3838 0.960 . S
H3851 C3838 0.962 . S
H3852 C3838 0.960 . S
H3853 C3839 0.961 . S
H3854 C3839 0.961 . S
H3855 C3839 0.961 . S
H3856 C3840 0.931 . S
H3857 C3845 0.930 . S
H3858 C3846 0.956 . S
H3859 C3846 0.961 . S
H3860 C3846 0.961 . S
H3861 C3847 0.958 . S
H3862 C3847 0.961 . S
H3863 C3847 0.960 . S
C3864 C3865 1.391 . S
C3864 C3866 1.394 . S
C3864 H3880 0.931 . S
C3865 C3864 1.391 . S
C3865 C3869 1.376 1_556 S
C3866 C3864 1.394 . S
C3866 C3867 1.369 . S
C3866 C3870 1.531 . S
C3867 C3866 1.369 . S
C3867 C3868 1.410 1_556 S
C3867 C3875 1.503 1_556 S
C3868 C3867 1.410 1_554 S
C3868 C3869 1.392 . S
C3868 C3871 1.511 . S
C3869 C3865 1.376 1_554 S
C3869 C3868 1.392 . S
C3869 H3881 0.929 . S
C3870 C3866 1.531 . S
C3870 H3882 0.960 . S
C3870 H3883 0.962 1_556 S
C3870 H3884 0.960 . S
C3871 C3868 1.511 . S
C3871 H3885 0.961 . S
C3871 H3886 0.961 . S
C3871 H3887 0.961 1_554 S
C3872 C3873 1.370 . S
C3872 C3874 1.363 . S
C3872 H3888 0.931 . S
C3873 C3872 1.370 . S
C3873 C3877 1.408 1_554 S
C3874 C3872 1.363 . S
C3874 C3875 1.370 . S
C3874 C3878 1.524 . S
C3875 C3867 1.503 1_554 S
C3875 C3874 1.370 . S
C3875 C3876 1.403 1_554 S
C3876 C3875 1.403 1_556 S
C3876 C3877 1.404 . S
C3876 C3879 1.539 . S
C3877 C3873 1.408 1_556 S
C3877 C3876 1.404 . S
C3877 H3889 0.930 . S
C3878 C3874 1.524 . S
C3878 H3890 0.956 . S
C3878 H3891 0.961 . S
C3878 H3892 0.961 . S
C3879 C3876 1.539 . S
C3879 H3893 0.958 . S
C3879 H3894 0.961 . S
C3879 H3895 0.960 . S
H3880 C3864 0.931 . S
H3881 C3869 0.929 . S
H3882 C3870 0.960 . S
H3883 C3870 0.962 1_554 S
H3884 C3870 0.960 . S
H3885 C3871 0.961 . S
H3886 C3871 0.961 . S
H3887 C3871 0.961 1_556 S
H3888 C3872 0.931 . S
H3889 C3877 0.930 . S
H3890 C3878 0.956 . S
H3891 C3878 0.961 . S
H3892 C3878 0.961 . S
H3893 C3879 0.958 . S
H3894 C3879 0.961 . S
H3895 C3879 0.960 . S
C3896 C3897 1.391 . S
C3896 C3898 1.394 . S
C3896 H3912 0.931 . S
C3897 C3896 1.391 . S
C3897 C3901 1.376 . S
C3898 C3896 1.394 . S
C3898 C3899 1.369 . S
C3898 C3902 1.531 . S
C3899 C3898 1.369 . S
C3899 C3900 1.410 . S
C3899 C3907 1.503 . S
C3900 C3899 1.410 . S
C3900 C3901 1.392 . S
C3900 C3903 1.511 . S
C3901 C3897 1.376 . S
C3901 C3900 1.392 . S
C3901 H3913 0.929 . S
C3902 C3898 1.531 . S
C3902 H3914 0.960 . S
C3902 H3915 0.962 . S
C3902 H3916 0.960 . S
C3903 C3900 1.511 . S
C3903 H3917 0.961 . S
C3903 H3918 0.961 . S
C3903 H3919 0.961 . S
C3904 C3905 1.370 . S
C3904 C3906 1.363 . S
C3904 H3920 0.931 . S
C3905 C3904 1.370 . S
C3905 C3909 1.408 . S
C3906 C3904 1.363 . S
C3906 C3907 1.370 . S
C3906 C3910 1.524 . S
C3907 C3899 1.503 . S
C3907 C3906 1.370 . S
C3907 C3908 1.403 . S
C3908 C3907 1.403 . S
C3908 C3909 1.404 . S
C3908 C3911 1.539 . S
C3909 C3905 1.408 . S
C3909 C3908 1.404 . S
C3909 H3921 0.930 . S
C3910 C3906 1.524 . S
C3910 H3922 0.956 . S
C3910 H3923 0.961 . S
C3910 H3924 0.961 . S
C3911 C3908 1.539 . S
C3911 H3925 0.958 . S
C3911 H3926 0.961 . S
C3911 H3927 0.960 . S
H3912 C3896 0.931 . S
H3913 C3901 0.929 . S
H3914 C3902 0.960 . S
H3915 C3902 0.962 . S
H3916 C3902 0.960 . S
H3917 C3903 0.961 . S
H3918 C3903 0.961 . S
H3919 C3903 0.961 . S
H3920 C3904 0.931 . S
H3921 C3909 0.930 . S
H3922 C3910 0.956 . S
H3923 C3910 0.961 . S
H3924 C3910 0.961 . S
H3925 C3911 0.958 . S
H3926 C3911 0.961 . S
H3927 C3911 0.960 . S
C3928 C3929 1.391 . S
C3928 C3930 1.394 . S
C3928 H3944 0.931 1_554 S
C3929 C3928 1.391 . S
C3929 C3933 1.376 . S
C3930 C3928 1.394 . S
C3930 C3931 1.369 . S
C3930 C3934 1.531 1_554 S
C3931 C3930 1.369 . S
C3931 C3932 1.410 . S
C3931 C3939 1.503 . S
C3932 C3931 1.410 . S
C3932 C3933 1.392 . S
C3932 C3935 1.511 . S
C3933 C3929 1.376 . S
C3933 C3932 1.392 . S
C3933 H3945 0.929 . S
C3934 C3930 1.531 1_556 S
C3934 H3946 0.960 . S
C3934 H3947 0.962 . S
C3934 H3948 0.960 . S
C3935 C3932 1.511 . S
C3935 H3949 0.961 . S
C3935 H3950 0.961 . S
C3935 H3951 0.961 . S
C3936 C3937 1.370 . S
C3936 C3938 1.363 . S
C3936 H3952 0.931 . S
C3937 C3936 1.370 . S
C3937 C3941 1.408 . S
C3938 C3936 1.363 . S
C3938 C3939 1.370 . S
C3938 C3942 1.524 . S
C3939 C3931 1.503 . S
C3939 C3938 1.370 . S
C3939 C3940 1.403 . S
C3940 C3939 1.403 . S
C3940 C3941 1.404 . S
C3940 C3943 1.546 . S
C3941 C3937 1.408 . S
C3941 C3940 1.404 . S
C3941 H3953 0.930 . S
C3942 C3938 1.524 . S
C3942 H3954 0.956 . S
C3942 H3955 0.961 . S
C3942 H3956 0.961 . S
C3943 C3940 1.546 . S
C3943 H3957 0.929 1_554 S
C3943 H3958 0.972 . S
C3943 H3959 0.973 . S
H3944 C3928 0.931 1_556 S
H3945 C3933 0.929 . S
H3946 C3934 0.960 . S
H3947 C3934 0.962 . S
H3948 C3934 0.960 . S
H3949 C3935 0.961 . S
H3950 C3935 0.961 . S
H3951 C3935 0.961 . S
H3952 C3936 0.931 . S
H3953 C3941 0.930 . S
H3954 C3942 0.956 . S
H3955 C3942 0.961 . S
H3956 C3942 0.961 . S
H3957 C3943 0.929 1_556 S
H3958 C3943 0.972 . S
H3959 C3943 0.973 . S
C3960 C3961 1.391 . S
C3960 C3962 1.394 . S
C3960 H3976 0.931 . S
C3961 C3960 1.391 . S
C3961 C3965 1.376 . S
C3962 C3960 1.394 . S
C3962 C3963 1.369 . S
C3962 C3966 1.531 . S
C3963 C3962 1.369 . S
C3963 C3964 1.410 . S
C3963 C3971 1.503 . S
C3964 C3963 1.410 . S
C3964 C3965 1.392 . S
C3964 C3967 1.511 . S
C3965 C3961 1.376 . S
C3965 C3964 1.392 . S
C3965 H3977 0.929 . S
C3966 C3962 1.531 . S
C3966 H3978 0.960 . S
C3966 H3979 0.962 . S
C3966 H3980 0.960 . S
C3967 C3964 1.511 . S
C3967 H3981 0.961 . S
C3967 H3982 0.961 . S
C3967 H3983 0.961 . S
C3968 C3969 1.370 . S
C3968 C3970 1.363 . S
C3968 H3984 0.931 . S
C3969 C3968 1.370 . S
C3969 C3973 1.408 . S
C3970 C3968 1.363 . S
C3970 C3971 1.370 . S
C3970 C3974 1.524 . S
C3971 C3963 1.503 . S
C3971 C3970 1.370 . S
C3971 C3972 1.403 . S
C3972 C3971 1.403 . S
C3972 C3973 1.404 . S
C3972 C3975 1.539 . S
C3973 C3969 1.408 . S
C3973 C3972 1.404 . S
C3973 H3985 0.930 . S
C3974 C3970 1.524 . S
C3974 H3986 0.956 . S
C3974 H3987 0.961 . S
C3974 H3988 0.961 . S
C3975 C3972 1.539 . S
C3975 H3989 0.958 . S
C3975 H3990 0.961 . S
C3975 H3991 0.960 . S
H3976 C3960 0.931 . S
H3977 C3965 0.929 . S
H3978 C3966 0.960 . S
H3979 C3966 0.962 . S
H3980 C3966 0.960 . S
H3981 C3967 0.961 . S
H3982 C3967 0.961 . S
H3983 C3967 0.961 . S
H3984 C3968 0.931 . S
H3985 C3973 0.930 . S
H3986 C3974 0.956 . S
H3987 C3974 0.961 . S
H3988 C3974 0.961 . S
H3989 C3975 0.958 . S
H3990 C3975 0.961 . S
H3991 C3975 0.960 . S
C3992 C3993 1.391 . S
C3992 C3994 1.394 . S
C3992 H4008 0.931 . S
C3993 C3992 1.391 . S
C3993 C3997 1.376 . S
C3994 C3992 1.394 . S
C3994 C3995 1.369 . S
C3994 C3998 1.531 . S
C3995 C3994 1.369 . S
C3995 C3996 1.410 . S
C3995 C4003 1.503 . S
C3996 C3995 1.410 . S
C3996 C3997 1.392 . S
C3996 C3999 1.511 . S
C3997 C3993 1.376 . S
C3997 C3996 1.392 . S
C3997 H4009 0.929 . S
C3998 C3994 1.531 . S
C3998 H4010 0.960 . S
C3998 H4011 0.962 . S
C3998 H4012 0.960 . S
C3999 C3996 1.511 . S
C3999 H4013 0.961 . S
C3999 H4014 0.961 . S
C3999 H4015 0.961 . S
C4000 C4001 1.370 . S
C4000 C4002 1.363 . S
C4000 H4016 0.931 . S
C4001 C4000 1.370 . S
C4001 C4005 1.408 . S
C4002 C4000 1.363 . S
C4002 C4003 1.370 . S
C4002 C4006 1.524 . S
C4003 C3995 1.503 . S
C4003 C4002 1.370 . S
C4003 C4004 1.403 . S
C4004 C4003 1.403 . S
C4004 C4005 1.404 . S
C4004 C4007 1.539 . S
C4005 C4001 1.408 . S
C4005 C4004 1.404 . S
C4005 H4017 0.930 . S
C4006 C4002 1.524 . S
C4006 H4018 0.956 . S
C4006 H4019 0.961 . S
C4006 H4020 0.961 . S
C4007 C4004 1.539 . S
C4007 H4021 0.958 . S
C4007 H4022 0.961 . S
C4007 H4023 0.960 . S
H4008 C3992 0.931 . S
H4009 C3997 0.929 . S
H4010 C3998 0.960 . S
H4011 C3998 0.962 . S
H4012 C3998 0.960 . S
H4013 C3999 0.961 . S
H4014 C3999 0.961 . S
H4015 C3999 0.961 . S
H4016 C4000 0.931 . S
H4017 C4005 0.930 . S
H4018 C4006 0.956 . S
H4019 C4006 0.961 . S
H4020 C4006 0.961 . S
H4021 C4007 0.958 . S
H4022 C4007 0.961 . S
H4023 C4007 0.960 . S
C953 C101 1.805 . S
C961 C334 1.797 1_556 S
C985 C57 1.199 . S
C993 C354 1.188 . S
C1017 C73 0.726 . S
C1025 C401 0.772 . S
C1057 C458 1.035 . S
C1049 C78 0.947 . S
C1081 C21 2.658 . S
C1089 C475 2.682 . S
C1121 C534 1.849 . S
C1113 C31 1.786 . S
C1153 C567 2.732 . S
C1145 C49 2.735 . S
C1177 C0 2.395 . S
C1185 C614 2.432 . S
C1217 C327 1.477 . S
C1209 C218 1.425 . S
C1241 C229 1.426 . S
C1249 C355 1.479 . S
C1281 C394 0.555 . S
C1273 C257 0.615 . S
C1313 C454 2.162 . S
C1305 C164 2.026 . S
C1337 C216 0.426 . S
C1345 C481 0.422 . S
C1377 C527 2.318 . S
C1369 C231 2.338 . S
C1409 C578 0.584 . S
C1401 C255 0.623 1_565 S
C1441 C607 2.307 . S
C1433 C166 2.307 . S
C1473 C338 1.664 . S
C1465 C143 1.679 . S
C1497 C265 2.176 . S
C1505 C634 2.205 . S
C1537 C698 1.233 . S
C1529 C299 1.202 . S
C1569 C734 1.388 1_655 S
C1561 C291 1.391 . S
C1593 C104 1.207 . S
C1601 C618 1.204 . S
C1625 C117 2.531 . S
C1633 C395 2.583 . S
C1657 C304 1.308 . S
C1665 C767 1.378 . S
C1697 C801 0.308 . S
C1689 C278 0.434 . S
C1729 C315 1.778 . S
C1721 C60 1.830 . S
C1761 C807 1.119 . S
C1753 C96 1.091 . S
C1785 C88 0.652 . S
C1793 C418 0.653 . S
C1817 C65 1.014 . S
C1825 C761 1.009 . S
C1857 C494 2.558 . S
C1849 C10 2.571 . S
C1881 C44 1.715 . S
C1889 C675 1.797 . S
C1921 C554 2.636 1_556 S
C1913 C34 2.542 . S
C1953 C835 2.418 . S
C1945 C13 2.422 1_655 S
C1985 C314 1.487 . S
C1977 C138 1.486 . S
C2017 C814 1.292 . S
C2009 C296 1.304 . S
C2041 C112 0.535 . S
C2049 C407 0.508 . S
C2073 C270 2.075 . S
C2081 C755 2.086 . S
C2105 C140 0.342 . S
C2113 C498 0.366 . S
C2145 C674 2.225 . S
C2137 C294 2.158 . S
C2169 C114 0.571 . S
C2177 C561 0.504 . S
C2201 C268 2.204 . S
C2209 C834 2.239 . S
C2233 C169 1.811 1_556 S
C2241 C321 1.731 . S
C2265 C161 2.143 . S
C2273 C647 2.151 . S
C2297 C234 1.229 . S
C2305 C521 1.206 . S
C2329 C226 1.334 . S
C2337 C715 1.327 . S
C2369 C841 1.276 . S
C2361 C247 1.307 . S
C2393 C195 2.469 . S
C2401 C414 2.502 1_565 S
C2433 C434 1.264 . S
C2425 C239 1.276 . S
C2465 C378 0.255 . S
C2457 C187 0.213 . S
C2489 C75 1.808 . S
C2497 C894 1.796 . S
C2529 C794 1.188 . S
C2521 C83 1.201 . S
C2553 C99 0.729 . S
C2561 C921 0.775 . S
C2585 C52 0.991 . S
C2593 C778 1.025 . S
C2617 C47 2.633 . S
C2625 C635 2.689 . S
C2657 C694 1.851 . S
C2649 C5 1.796 1_655 S
C2689 C727 2.731 . S
C2681 C23 2.735 . S
C2721 C854 2.431 . S
C2713 C26 2.391 . S
C2753 C887 1.475 . S
C2745 C244 1.466 . S
C2777 C177 1.437 . S
C2785 C795 1.480 . S
C2817 C914 0.543 . S
C2809 C192 0.605 . S
C2849 C774 2.161 . S
C2841 C203 2.023 . S
C2881 C641 0.463 . S
C2873 C242 0.480 . S
C2905 C179 2.333 . S
C2913 C687 2.319 . S
C2945 C738 0.572 . S
C2937 C190 0.655 . S
C2969 C205 2.306 . S
C2977 C847 2.307 . S
C3009 C898 1.683 . S
C3001 C286 1.631 . S
C3033 C122 2.188 . S
C3041 C474 2.210 . S
C3073 C538 1.232 . S
C3065 C130 1.211 . S
C3105 C574 1.383 1_565 S
C3097 C148 1.381 . S
C3137 C858 1.203 . S
C3129 C273 1.203 . S
C3161 C260 2.524 . S
C3169 C915 2.584 1_655 S
C3201 C447 1.373 . S
C3193 C135 1.337 . S
C3233 C361 0.315 . S
C3225 C109 0.364 . S
C3257 C86 1.830 . S
C3265 C875 1.777 . S
C3297 C367 1.111 . S
C3289 C70 1.077 . S
C3321 C62 0.648 . S
C3329 C938 0.671 . S
C3353 C91 0.979 . S
C3361 C441 0.992 . S
C3385 C36 2.568 . S
C3393 C654 2.555 1_556 S
C3425 C515 1.801 . S
C3417 C18 1.725 . S
C3449 C8 2.538 . S
C3457 C714 2.639 . S
C3481 C39 2.412 . S
C3489 C595 2.422 . S
C3521 C874 1.476 . S
C3513 C307 1.470 . S
C3545 C153 1.303 . S
C3553 C374 1.297 . S
C3585 C927 0.490 . S
C3577 C281 0.596 . S
C3609 C127 2.058 . S
C3617 C435 2.088 . S
C3641 C309 0.310 . S
C3649 C658 0.391 . S
C3681 C514 2.225 . S
C3673 C151 2.193 1_556 S
C3705 C283 0.442 . S
C3713 C721 0.565 . S
C3745 C594 2.241 . S
C3737 C125 2.211 . S
C3777 C881 1.734 . S
C3769 C221 1.809 . S
C3809 C487 2.163 1_655 S
C3801 C200 2.145 . S
C3833 C208 1.261 . S
C3841 C681 1.192 . S
C3873 C555 1.329 . S
C3865 C174 1.336 . S
C3897 C182 1.333 . S
C3905 C601 1.250 . S
C3929 C156 2.462 . S
C3937 C934 2.501 . S
C3969 C754 1.270 . S
C3961 C213 1.260 . S
C4001 C818 0.309 . S
C3993 C252 0.245 . S
