# Generated by pormake.
# Topology ocu, (6,8)-cn, num edge types: 1
# Building blocks:
#     Node 0, Type 0, BuildingBlock: KUMJIN_clean_sbu_0, # of connection points: 6
#     Node 1, Type 0, BuildingBlock: KUMJIN_clean_sbu_0, # of connection points: 6
#     Node 2, Type 0, BuildingBlock: KUMJIN_clean_sbu_0, # of connection points: 6
#     Node 3, Type 0, BuildingBlock: KUMJIN_clean_sbu_0, # of connection points: 6
#     Node 4, Type 0, BuildingBlock: KUMJIN_clean_sbu_0, # of connection points: 6
#     Node 5, Type 0, BuildingBlock: KUMJIN_clean_sbu_0, # of connection points: 6
#     Node 6, Type 0, BuildingBlock: KUMJIN_clean_sbu_0, # of connection points: 6
#     Node 7, Type 0, BuildingBlock: KUMJIN_clean_sbu_0, # of connection points: 6
#     Node 8, Type 1, BuildingBlock: VETTIZ_charged_sbu_0, # of connection points: 8
#     Node 9, Type 1, BuildingBlock: VETTIZ_charged_sbu_0, # of connection points: 8
#     Node 10, Type 1, BuildingBlock: VETTIZ_charged_sbu_0, # of connection points: 8
#     Node 11, Type 1, BuildingBlock: VETTIZ_charged_sbu_0, # of connection points: 8
#     Node 12, Type 1, BuildingBlock: VETTIZ_charged_sbu_0, # of connection points: 8
#     Node 13, Type 1, BuildingBlock: VETTIZ_charged_sbu_0, # of connection points: 8
#     Edge 14, Type (0, 1), BuildingBlock: XIVTED_clean_linker_0, # of connection points: 2
#     Edge 15, Type (0, 1), BuildingBlock: XIVTED_clean_linker_0, # of connection points: 2
#     Edge 16, Type (0, 1), BuildingBlock: XIVTED_clean_linker_0, # of connection points: 2
#     Edge 17, Type (0, 1), BuildingBlock: XIVTED_clean_linker_0, # of connection points: 2
#     Edge 18, Type (0, 1), BuildingBlock: XIVTED_clean_linker_0, # of connection points: 2
#     Edge 19, Type (0, 1), BuildingBlock: XIVTED_clean_linker_0, # of connection points: 2
#     Edge 20, Type (0, 1), BuildingBlock: XIVTED_clean_linker_0, # of connection points: 2
#     Edge 21, Type (0, 1), BuildingBlock: XIVTED_clean_linker_0, # of connection points: 2
#     Edge 22, Type (0, 1), BuildingBlock: XIVTED_clean_linker_0, # of connection points: 2
#     Edge 23, Type (0, 1), BuildingBlock: XIVTED_clean_linker_0, # of connection points: 2
#     Edge 24, Type (0, 1), BuildingBlock: XIVTED_clean_linker_0, # of connection points: 2
#     Edge 25, Type (0, 1), BuildingBlock: XIVTED_clean_linker_0, # of connection points: 2
#     Edge 26, Type (0, 1), BuildingBlock: XIVTED_clean_linker_0, # of connection points: 2
#     Edge 27, Type (0, 1), BuildingBlock: XIVTED_clean_linker_0, # of connection points: 2
#     Edge 28, Type (0, 1), BuildingBlock: XIVTED_clean_linker_0, # of connection points: 2
#     Edge 29, Type (0, 1), BuildingBlock: XIVTED_clean_linker_0, # of connection points: 2
#     Edge 30, Type (0, 1), BuildingBlock: XIVTED_clean_linker_0, # of connection points: 2
#     Edge 31, Type (0, 1), BuildingBlock: XIVTED_clean_linker_0, # of connection points: 2
#     Edge 32, Type (0, 1), BuildingBlock: XIVTED_clean_linker_0, # of connection points: 2
#     Edge 33, Type (0, 1), BuildingBlock: XIVTED_clean_linker_0, # of connection points: 2
#     Edge 34, Type (0, 1), BuildingBlock: XIVTED_clean_linker_0, # of connection points: 2
#     Edge 35, Type (0, 1), BuildingBlock: XIVTED_clean_linker_0, # of connection points: 2
#     Edge 36, Type (0, 1), BuildingBlock: XIVTED_clean_linker_0, # of connection points: 2
#     Edge 37, Type (0, 1), BuildingBlock: XIVTED_clean_linker_0, # of connection points: 2
#     Edge 38, Type (0, 1), BuildingBlock: XIVTED_clean_linker_0, # of connection points: 2
#     Edge 39, Type (0, 1), BuildingBlock: XIVTED_clean_linker_0, # of connection points: 2
#     Edge 40, Type (0, 1), BuildingBlock: XIVTED_clean_linker_0, # of connection points: 2
#     Edge 41, Type (0, 1), BuildingBlock: XIVTED_clean_linker_0, # of connection points: 2
#     Edge 42, Type (0, 1), BuildingBlock: XIVTED_clean_linker_0, # of connection points: 2
#     Edge 43, Type (0, 1), BuildingBlock: XIVTED_clean_linker_0, # of connection points: 2
#     Edge 44, Type (0, 1), BuildingBlock: XIVTED_clean_linker_0, # of connection points: 2
#     Edge 45, Type (0, 1), BuildingBlock: XIVTED_clean_linker_0, # of connection points: 2
#     Edge 46, Type (0, 1), BuildingBlock: XIVTED_clean_linker_0, # of connection points: 2
#     Edge 47, Type (0, 1), BuildingBlock: XIVTED_clean_linker_0, # of connection points: 2
#     Edge 48, Type (0, 1), BuildingBlock: XIVTED_clean_linker_0, # of connection points: 2
#     Edge 49, Type (0, 1), BuildingBlock: XIVTED_clean_linker_0, # of connection points: 2
#     Edge 50, Type (0, 1), BuildingBlock: XIVTED_clean_linker_0, # of connection points: 2
#     Edge 51, Type (0, 1), BuildingBlock: XIVTED_clean_linker_0, # of connection points: 2
#     Edge 52, Type (0, 1), BuildingBlock: XIVTED_clean_linker_0, # of connection points: 2
#     Edge 53, Type (0, 1), BuildingBlock: XIVTED_clean_linker_0, # of connection points: 2
#     Edge 54, Type (0, 1), BuildingBlock: XIVTED_clean_linker_0, # of connection points: 2
#     Edge 55, Type (0, 1), BuildingBlock: XIVTED_clean_linker_0, # of connection points: 2
#     Edge 56, Type (0, 1), BuildingBlock: XIVTED_clean_linker_0, # of connection points: 2
#     Edge 57, Type (0, 1), BuildingBlock: XIVTED_clean_linker_0, # of connection points: 2
#     Edge 58, Type (0, 1), BuildingBlock: XIVTED_clean_linker_0, # of connection points: 2
#     Edge 59, Type (0, 1), BuildingBlock: XIVTED_clean_linker_0, # of connection points: 2
#     Edge 60, Type (0, 1), BuildingBlock: XIVTED_clean_linker_0, # of connection points: 2
#     Edge 61, Type (0, 1), BuildingBlock: XIVTED_clean_linker_0, # of connection points: 2
# Relax obj value: 0.113
# Max RMSD: 0.247
# Mean RMSD: 0.163
data_MOF--net-ocu--node1-KUMJIN_clean_sbu_0--node2-VETTIZ_charged_sbu_0--edge1-XIVTED_clean_linker_0
_symmetry_space_group_name_H-M    P1
_symmetry_Int_Tables_number       1
_symmetry_cell_setting            triclinic
loop_
_symmetry_equiv_pos_as_xyz
'x, y, z'
_cell_length_a     38.289813
_cell_length_b     38.808159
_cell_length_c     42.106057
_cell_angle_alpha  77.375824
_cell_angle_beta   99.999079
_cell_angle_gamma 104.01426
loop_
_atom_site_label
_atom_site_type_symbol
_atom_site_fract_x
_atom_site_fract_y
_atom_site_fract_z
_atom_type_partial_charge
Eu0 Eu 0.27784 0.23402 0.23418 0.0
C1 C 0.39353 0.32715 0.32239 0.0
C2 C 0.40445 0.28502 0.37272 0.0
C3 C 0.4529 0.33537 0.35505 0.0
C4 C 0.38144 0.29628 0.34429 0.0
C5 C 0.42895 0.34791 0.32817 0.0
C6 C 0.44065 0.30392 0.37731 0.0
C7 C 0.41222 0.39472 0.28407 0.0
N8 N 0.36932 0.339 0.29742 0.0
C9 C 0.37729 0.37331 0.27977 0.0
C10 C 0.43847 0.38161 0.30792 0.0
Eu11 Eu 0.31126 0.3006 0.2897 0.0
N12 N 0.34613 0.27923 0.33937 0.0
C13 C 0.3312 0.25297 0.36357 0.0
C14 C 0.3899 0.25626 0.39642 0.0
C15 C 0.35291 0.24072 0.39214 0.0
H16 H 0.35665 0.38381 0.26206 0.0
H17 H 0.34112 0.21914 0.41074 0.0
H18 H 0.4589 0.29535 0.39873 0.0
H19 H 0.41873 0.42144 0.26928 0.0
H20 H 0.30272 0.24051 0.36063 0.0
H21 H 0.24112 0.31393 0.11393 0.0
H22 H 0.40664 0.24676 0.41857 0.0
H23 H 0.23474 0.15194 0.26802 0.0
H24 H 0.28174 0.29531 0.16324 0.0
H25 H 0.17513 0.11039 0.26054 0.0
H26 H 0.48039 0.35065 0.35965 0.0
H27 H 0.17718 0.28108 0.10652 0.0
H28 H 0.12832 0.22867 0.12658 0.0
H29 H 0.46538 0.39842 0.31157 0.0
H30 H 0.11032 0.17299 0.16645 0.0
N31 N 0.24111 0.25292 0.18481 0.0
C32 C 0.254 0.28056 0.16065 0.0
C33 C 0.1949 0.27279 0.12843 0.0
C34 C 0.18253 0.24291 0.15212 0.0
C35 C 0.23099 0.2913 0.13247 0.0
C36 C 0.20667 0.23341 0.18032 0.0
H37 H 0.12793 0.12816 0.21597 0.0
N38 N 0.22118 0.19302 0.22847 0.0
C39 C 0.18064 0.13631 0.24428 0.0
C40 C 0.19637 0.20241 0.20287 0.0
C41 C 0.21438 0.1599 0.24844 0.0
C42 C 0.15403 0.1465 0.21917 0.0
C43 C 0.16191 0.17963 0.19772 0.0
O44 O 0.29566 0.18491 0.2333 0.0
O45 O 0.3185 0.24959 0.2771 0.0
O46 O 0.35282 0.31248 0.25428 0.0
O47 O 0.3202 0.28127 0.21296 0.0
O48 O 0.29305 0.19552 0.28028 0.0
O49 O 0.30589 0.23105 0.19417 0.0
O50 O 0.29121 0.34907 0.28835 0.0
O51 O 0.27115 0.28453 0.24732 0.0
O52 O 0.23236 0.22947 0.26362 0.0
O53 O 0.26619 0.25386 0.30829 0.0
O54 O 0.29389 0.33909 0.2442 0.0
O55 O 0.2869 0.30681 0.33102 0.0
C56 C 0.31696 0.2184 0.29492 0.0
C57 C 0.29637 0.17336 0.18083 0.0
C58 C 0.31197 0.14052 0.14393 0.0
C59 C 0.32262 0.16327 0.16733 0.0
C60 C 0.27469 0.12772 0.13467 0.0
C61 C 0.25944 0.16058 0.17097 0.0
C62 C 0.24869 0.13778 0.14809 0.0
C63 C 0.34777 0.30515 0.22432 0.0
C64 C 0.30774 0.19734 0.20501 0.0
C65 C 0.13709 0.18991 0.17062 0.0
C66 C 0.14735 0.22158 0.1479 0.0
C67 C 0.27073 0.31544 0.22969 0.0
C68 C 0.29312 0.36679 0.3385 0.0
C69 C 0.26674 0.3814 0.34724 0.0
C70 C 0.27701 0.40965 0.36536 0.0
C71 C 0.31431 0.42314 0.37411 0.0
C72 C 0.32995 0.38001 0.3483 0.0
C73 C 0.34044 0.40819 0.36586 0.0
C74 C 0.23605 0.23529 0.29397 0.0
C75 C 0.28192 0.33911 0.31775 0.0
H76 H 0.35118 0.17359 0.17462 0.0
H77 H 0.26556 0.10965 0.11718 0.0
H78 H 0.23889 0.16807 0.18096 0.0
H79 H 0.22011 0.12785 0.14074 0.0
H80 H 0.2383 0.37042 0.34017 0.0
H81 H 0.32347 0.44543 0.38724 0.0
H82 H 0.35059 0.36887 0.34211 0.0
H83 H 0.36896 0.41864 0.37296 0.0
Eu84 Eu 0.82154 0.24327 0.26654 0.0
C85 C 0.73037 0.32476 0.31899 0.0
C86 C 0.68307 0.27796 0.34349 0.0
C87 C 0.70605 0.33289 0.36594 0.0
C88 C 0.70794 0.29072 0.32024 0.0
C89 C 0.72888 0.34658 0.3413 0.0
C90 C 0.68316 0.29864 0.36701 0.0
C91 C 0.76944 0.39541 0.3111 0.0
N92 N 0.7518 0.3375 0.29457 0.0
C93 C 0.76992 0.3729 0.28946 0.0
C94 C 0.74934 0.38203 0.33746 0.0
Eu95 Eu 0.75273 0.29586 0.26091 0.0
N96 N 0.70803 0.27154 0.29688 0.0
C97 C 0.68114 0.24183 0.29294 0.0
C98 C 0.65754 0.2457 0.34134 0.0
C99 C 0.65594 0.22812 0.31539 0.0
H100 H 0.78541 0.38393 0.26915 0.0
H101 H 0.63534 0.20396 0.31267 0.0
H102 H 0.66461 0.28902 0.38533 0.0
H103 H 0.78455 0.4231 0.30738 0.0
H104 H 0.67908 0.22817 0.2728 0.0
H105 H 0.93666 0.24893 0.36365 0.0
H106 H 0.63796 0.23503 0.35867 0.0
H107 H 0.82416 0.25217 0.18528 0.0
H108 H 0.8726 0.23271 0.33968 0.0
H109 H 0.86775 0.27631 0.14539 0.0
H110 H 0.70491 0.3491 0.38352 0.0
H111 H 0.98365 0.28112 0.32766 0.0
H112 H 0.99988 0.3059 0.27042 0.0
H113 H 0.7489 0.39961 0.35408 0.0
H114 H 0.981 0.31341 0.21078 0.0
N115 N 0.88306 0.25625 0.29074 0.0
C116 C 0.89293 0.24658 0.32375 0.0
C117 C 0.95558 0.27408 0.31705 0.0
C118 C 0.94561 0.28186 0.28309 0.0
C119 C 0.92917 0.2558 0.33742 0.0
C120 C 0.90868 0.27211 0.27056 0.0
H121 H 0.93193 0.30167 0.16394 0.0
N122 N 0.86262 0.26434 0.22655 0.0
C123 C 0.87666 0.27669 0.17118 0.0
C124 C 0.89809 0.27626 0.23728 0.0
C125 C 0.85188 0.26312 0.19404 0.0
C126 C 0.91283 0.29104 0.18171 0.0
C127 C 0.92413 0.29035 0.21521 0.0
O128 O 0.80652 0.19655 0.24177 0.0
O129 O 0.76827 0.24317 0.28233 0.0
O130 O 0.79514 0.30933 0.30374 0.0
O131 O 0.84525 0.28936 0.29503 0.0
O132 O 0.80556 0.22327 0.31822 0.0
O133 O 0.83343 0.19111 0.29117 0.0
O134 O 0.73942 0.3165 0.20853 0.0
O135 O 0.79972 0.29046 0.23894 0.0
O136 O 0.77963 0.24104 0.22083 0.0
O137 O 0.73068 0.2419 0.24453 0.0
O138 O 0.79742 0.34238 0.24119 0.0
O139 O 0.70114 0.31188 0.24163 0.0
C140 C 0.77347 0.22973 0.31243 0.0
C141 C 0.78715 0.14188 0.27869 0.0
C142 C 0.76757 0.09093 0.32167 0.0
C143 C 0.79389 0.12053 0.30952 0.0
C144 C 0.73417 0.08184 0.30253 0.0
C145 C 0.75349 0.13271 0.25951 0.0
C146 C 0.7272 0.10281 0.27146 0.0
C147 C 0.82994 0.30783 0.3098 0.0
C148 C 0.81512 0.17418 0.26811 0.0
C149 C 0.96069 0.30208 0.22737 0.0
C150 C 0.97143 0.29782 0.2613 0.0
C151 C 0.81643 0.32309 0.23315 0.0
C152 C 0.67763 0.29452 0.19025 0.0
C153 C 0.64305 0.27932 0.2001 0.0
C154 C 0.61488 0.26051 0.17976 0.0
C155 C 0.62386 0.25432 0.15055 0.0
C156 C 0.6849 0.28932 0.16034 0.0
C157 C 0.65834 0.2688 0.141 0.0
C158 C 0.74419 0.23328 0.22136 0.0
C159 C 0.70602 0.3158 0.21119 0.0
H160 H 0.81985 0.12707 0.32445 0.0
H161 H 0.71369 0.05883 0.31157 0.0
H162 H 0.74733 0.14869 0.23556 0.0
H163 H 0.70133 0.09599 0.25664 0.0
H164 H 0.63817 0.2838 0.22316 0.0
H165 H 0.6042 0.23978 0.13385 0.0
H166 H 0.71125 0.3007 0.15208 0.0
H167 H 0.66431 0.26455 0.11811 0.0
Eu168 Eu 0.76274 0.7441 0.29946 0.0
C169 C 0.83384 0.85682 0.18787 0.0
C170 C 0.78427 0.86088 0.14398 0.0
C171 C 0.83285 0.91349 0.14948 0.0
C172 C 0.80117 0.84107 0.17216 0.0
C173 C 0.85075 0.89285 0.17607 0.0
C174 C 0.79962 0.89751 0.13343 0.0
C175 C 0.90383 0.88365 0.21448 0.0
N176 N 0.85073 0.8358 0.2128 0.0
C177 C 0.88606 0.84796 0.22492 0.0
C178 C 0.88583 0.90644 0.19035 0.0
Eu179 Eu 0.81843 0.77634 0.23148 0.0
N180 N 0.78749 0.80552 0.18278 0.0
C181 C 0.75894 0.78733 0.16428 0.0
C182 C 0.75338 0.84289 0.12643 0.0
C183 C 0.74116 0.80578 0.13623 0.0
H184 H 0.90013 0.83021 0.24335 0.0
H185 H 0.71789 0.79135 0.12231 0.0
H186 H 0.78674 0.91329 0.11215 0.0
H187 H 0.93142 0.89346 0.22492 0.0
H188 H 0.74882 0.75872 0.17136 0.0
H189 H 0.86956 0.72191 0.40378 0.0
H190 H 0.73957 0.85711 0.1047 0.0
H191 H 0.67892 0.69291 0.28892 0.0
H192 H 0.83889 0.75755 0.35771 0.0
H193 H 0.64614 0.63048 0.30782 0.0
H194 H 0.84515 0.94136 0.14032 0.0
H195 H 0.84395 0.65703 0.42123 0.0
H196 H 0.7932 0.60378 0.41515 0.0
H197 H 0.89975 0.93397 0.18201 0.0
H198 H 0.73252 0.57876 0.38906 0.0
N199 N 0.79527 0.71353 0.34684 0.0
C200 C 0.82651 0.72945 0.36423 0.0
C201 C 0.82991 0.67262 0.40062 0.0
C202 C 0.79685 0.65687 0.3844 0.0
C203 C 0.8444 0.70921 0.39087 0.0
C204 C 0.77967 0.67832 0.35753 0.0
H205 H 0.67734 0.58862 0.34954 0.0
N206 N 0.72859 0.68579 0.31848 0.0
C207 C 0.67415 0.63943 0.31767 0.0
C208 C 0.7455 0.66404 0.3428 0.0
C209 C 0.69277 0.67468 0.30703 0.0
C210 C 0.69189 0.61589 0.34116 0.0
C211 C 0.72769 0.62827 0.35455 0.0
O212 O 0.72359 0.74149 0.33262 0.0
O213 O 0.76922 0.78142 0.25099 0.0
O214 O 0.83261 0.81976 0.26325 0.0
O215 O 0.81067 0.78822 0.3123 0.0
O216 O 0.71695 0.75322 0.25868 0.0
O217 O 0.7525 0.79324 0.31058 0.0
O218 O 0.86981 0.76843 0.22122 0.0
O219 O 0.81002 0.73612 0.27859 0.0
O220 O 0.74269 0.70261 0.26593 0.0
O221 O 0.77485 0.72744 0.22101 0.0
O222 O 0.8626 0.76399 0.27241 0.0
O223 O 0.81938 0.74341 0.19582 0.0
C224 C 0.73613 0.77699 0.23834 0.0
C225 C 0.736 0.78839 0.36316 0.0
C226 C 0.72143 0.82382 0.39896 0.0
C227 C 0.71637 0.81271 0.36829 0.0
C228 C 0.74666 0.81006 0.42412 0.0
C229 C 0.76105 0.77549 0.38865 0.0
C230 C 0.76634 0.78633 0.41888 0.0
C231 C 0.83034 0.8165 0.29488 0.0
C232 C 0.72998 0.77616 0.33141 0.0
C233 C 0.74559 0.6064 0.38002 0.0
C234 C 0.78012 0.62067 0.39489 0.0
C235 C 0.84302 0.73874 0.29122 0.0
C236 C 0.87111 0.75729 0.1685 0.0
C237 C 0.88535 0.73091 0.1599 0.0
C238 C 0.89957 0.73755 0.12994 0.0
C239 C 0.89978 0.77121 0.10897 0.0
C240 C 0.87165 0.7907 0.14732 0.0
C241 C 0.88608 0.79761 0.11774 0.0
C242 C 0.75032 0.70239 0.23651 0.0
C243 C 0.8546 0.74895 0.19902 0.0
H244 H 0.69738 0.82296 0.34837 0.0
H245 H 0.75077 0.81697 0.44824 0.0
H246 H 0.77622 0.75672 0.3853 0.0
H247 H 0.78551 0.77594 0.43851 0.0
H248 H 0.88445 0.7049 0.17611 0.0
H249 H 0.91074 0.77717 0.08585 0.0
H250 H 0.86069 0.81124 0.15354 0.0
H251 H 0.88642 0.82343 0.10144 0.0
Eu252 Eu 0.30214 0.73125 0.2754 0.0
C253 C 0.24655 0.86354 0.18399 0.0
C254 C 0.30083 0.90856 0.17166 0.0
C255 C 0.24601 0.90663 0.13249 0.0
C256 C 0.28259 0.8786 0.19261 0.0
C257 C 0.2276 0.8778 0.15412 0.0
C258 C 0.28258 0.92199 0.14125 0.0
C259 C 0.17301 0.83602 0.17045 0.0
N260 N 0.22951 0.83607 0.20561 0.0
C261 C 0.19293 0.82303 0.19987 0.0
C262 C 0.1905 0.86327 0.14729 0.0
Eu263 Eu 0.26516 0.81428 0.25428 0.0
N264 N 0.29933 0.86505 0.22221 0.0
C265 C 0.33347 0.88193 0.23342 0.0
C266 C 0.33655 0.92469 0.18226 0.0
C267 C 0.35275 0.91161 0.21348 0.0
H268 H 0.17934 0.80186 0.21768 0.0
H269 H 0.38013 0.92429 0.22218 0.0
H270 H 0.29624 0.94476 0.12469 0.0
H271 H 0.14421 0.82504 0.16568 0.0
H272 H 0.3464 0.87211 0.25744 0.0
H273 H 0.19206 0.61813 0.31328 0.0
H274 H 0.35154 0.94769 0.16687 0.0
H275 H 0.38921 0.74797 0.30899 0.0
H276 H 0.22262 0.67061 0.27611 0.0
H277 H 0.42744 0.72643 0.35945 0.0
H278 H 0.23201 0.91777 0.1093 0.0
H279 H 0.22388 0.59689 0.36778 0.0
H280 H 0.28106 0.60235 0.40762 0.0
H281 H 0.17498 0.87345 0.12459 0.0
H282 H 0.3452 0.63159 0.42007 0.0
N283 N 0.27089 0.68019 0.30949 0.0
C284 C 0.23685 0.66184 0.29978 0.0
C285 C 0.23741 0.6201 0.35156 0.0
C286 C 0.2731 0.63766 0.36059 0.0
C287 C 0.21941 0.63195 0.32081 0.0
C288 C 0.28941 0.66787 0.33862 0.0
H289 H 0.40014 0.67743 0.40203 0.0
N290 N 0.34061 0.71202 0.32312 0.0
C291 C 0.39876 0.7144 0.35593 0.0
C292 C 0.32544 0.68419 0.34559 0.0
C293 C 0.37702 0.7265 0.32734 0.0
C294 C 0.38323 0.6868 0.37994 0.0
C295 C 0.34625 0.671 0.37478 0.0
O296 O 0.34275 0.7156 0.25399 0.0
O297 O 0.30297 0.785 0.24176 0.0
O298 O 0.24545 0.78366 0.21202 0.0
O299 O 0.24935 0.72559 0.24035 0.0
O300 O 0.35246 0.77112 0.25777 0.0
O301 O 0.28659 0.68718 0.24781 0.0
O302 O 0.22456 0.83158 0.27436 0.0
O303 O 0.26323 0.76013 0.28683 0.0
O304 O 0.31785 0.7589 0.31928 0.0
O305 O 0.31661 0.81746 0.29149 0.0
O306 O 0.21427 0.7757 0.27169 0.0
O307 O 0.28134 0.85634 0.28415 0.0
C308 C 0.33651 0.79531 0.2392 0.0
C309 C 0.33175 0.65414 0.24991 0.0
C310 C 0.36382 0.61464 0.23362 0.0
C311 C 0.3523 0.64757 0.22816 0.0
C312 C 0.35464 0.58857 0.26157 0.0
C313 C 0.32302 0.62779 0.27761 0.0
C314 C 0.33451 0.59523 0.28339 0.0
C315 C 0.23646 0.74805 0.21503 0.0
C316 C 0.3198 0.68862 0.24323 0.0
C317 C 0.32975 0.64193 0.3974 0.0
C318 C 0.29322 0.6253 0.39032 0.0
C319 C 0.22965 0.75065 0.28954 0.0
C320 C 0.23885 0.89123 0.28498 0.0
C321 C 0.23168 0.90146 0.31284 0.0
C322 C 0.22155 0.93469 0.31054 0.0
C323 C 0.2195 0.95771 0.27965 0.0
C324 C 0.2367 0.91462 0.25459 0.0
C325 C 0.22719 0.94776 0.25204 0.0
C326 C 0.32587 0.79422 0.318 0.0
C327 C 0.24828 0.85592 0.28823 0.0
H328 H 0.35946 0.66832 0.2071 0.0
H329 H 0.36242 0.56271 0.26633 0.0
H330 H 0.3072 0.63222 0.29465 0.0
H331 H 0.3275 0.57492 0.30473 0.0
H332 H 0.23413 0.88338 0.33631 0.0
H333 H 0.21114 0.98309 0.27652 0.0
H334 H 0.24222 0.90723 0.23291 0.0
H335 H 0.22535 0.96566 0.22845 0.0
Eu336 Eu 0.33075 0.73476 0.76374 0.0
C337 C 0.18523 0.74661 0.79643 0.0
C338 C 0.13673 0.74453 0.75119 0.0
C339 C 0.12294 0.71984 0.80689 0.0
C340 C 0.17388 0.75353 0.76329 0.0
C341 C 0.15973 0.73071 0.81878 0.0
C342 C 0.11145 0.7267 0.77309 0.0
C343 C 0.20823 0.74065 0.86288 0.0
N344 N 0.22094 0.75757 0.80696 0.0
C345 C 0.23248 0.75593 0.83974 0.0
C346 C 0.17179 0.72737 0.85239 0.0
Eu347 Eu 0.26086 0.78391 0.76652 0.0
N348 N 0.19895 0.77141 0.74305 0.0
C349 C 0.18824 0.78395 0.71069 0.0
C350 C 0.12598 0.75496 0.71764 0.0
C351 C 0.15182 0.77526 0.69738 0.0
H352 H 0.26045 0.76604 0.84845 0.0
H353 H 0.14371 0.78434 0.67156 0.0
H354 H 0.08284 0.7192 0.76426 0.0
H355 H 0.21776 0.73888 0.88881 0.0
H356 H 0.20807 0.79974 0.69489 0.0
H357 H 0.4467 0.83246 0.71491 0.0
H358 H 0.09773 0.74853 0.70736 0.0
H359 H 0.30146 0.6488 0.74968 0.0
H360 H 0.4039 0.80346 0.75506 0.0
H361 H 0.29986 0.61528 0.70597 0.0
H362 H 0.10305 0.70711 0.82365 0.0
H363 H 0.44212 0.8081 0.66442 0.0
H364 H 0.41349 0.75893 0.63206 0.0
H365 H 0.1531 0.71535 0.87036 0.0
H366 H 0.37311 0.69944 0.62957 0.0
N367 N 0.37402 0.7638 0.72708 0.0
C368 C 0.40119 0.79264 0.73306 0.0
C369 C 0.42311 0.79525 0.68196 0.0
C370 C 0.3971 0.76393 0.67731 0.0
C371 C 0.42581 0.80903 0.71045 0.0
C372 C 0.37311 0.74817 0.70101 0.0
H373 H 0.33127 0.64527 0.65742 0.0
N374 N 0.33126 0.69836 0.72518 0.0
C375 C 0.31402 0.64328 0.70378 0.0
C376 C 0.35089 0.71444 0.69993 0.0
C377 C 0.31486 0.6625 0.72849 0.0
C378 C 0.33167 0.66034 0.67637 0.0
C379 C 0.35136 0.69598 0.67466 0.0
O380 O 0.34479 0.70689 0.81377 0.0
O381 O 0.28458 0.73635 0.78893 0.0
O382 O 0.30434 0.78265 0.81123 0.0
O383 O 0.3525 0.78608 0.78462 0.0
O384 O 0.2875 0.68599 0.78232 0.0
O385 O 0.38414 0.72164 0.77995 0.0
O386 O 0.2742 0.82544 0.79716 0.0
O387 O 0.31324 0.7872 0.74756 0.0
O388 O 0.28623 0.72264 0.72222 0.0
O389 O 0.23663 0.7417 0.7338 0.0
O390 O 0.2754 0.81091 0.71527 0.0
O391 O 0.24825 0.83705 0.74766 0.0
C392 C 0.26856 0.70343 0.79299 0.0
C393 C 0.40543 0.72996 0.83451 0.0
C394 C 0.46778 0.7609 0.851 0.0
C395 C 0.44095 0.74593 0.82737 0.0
C396 C 0.45672 0.76309 0.88075 0.0
C397 C 0.39578 0.7314 0.86477 0.0
C398 C 0.42111 0.74864 0.88734 0.0
C399 C 0.33964 0.79137 0.80979 0.0
C400 C 0.37873 0.7115 0.81049 0.0
C401 C 0.37281 0.71299 0.64943 0.0
C402 C 0.39576 0.74688 0.65082 0.0
C403 C 0.30695 0.80361 0.7185 0.0
C404 C 0.28883 0.88552 0.76767 0.0
C405 C 0.27437 0.91425 0.74876 0.0
C406 C 0.29697 0.94731 0.73749 0.0
C407 C 0.33459 0.95217 0.74649 0.0
C408 C 0.32649 0.89061 0.77724 0.0
C409 C 0.34919 0.92403 0.76694 0.0
C410 C 0.25158 0.72458 0.7174 0.0
C411 C 0.26395 0.8501 0.77368 0.0
H412 H 0.44777 0.74511 0.80375 0.0
H413 H 0.47563 0.77394 0.90014 0.0
H414 H 0.36859 0.71952 0.87095 0.0
H415 H 0.41339 0.74988 0.91055 0.0
H416 H 0.24539 0.90992 0.74062 0.0
H417 H 0.35252 0.97722 0.73719 0.0
H418 H 0.33842 0.86869 0.79175 0.0
H419 H 0.37824 0.92768 0.77386 0.0
Eu420 Eu 0.27212 0.25936 0.79321 0.0
C421 C 0.35493 0.38102 0.69542 0.0
C422 C 0.30686 0.39365 0.65183 0.0
C423 C 0.35794 0.44199 0.66384 0.0
C424 C 0.32176 0.36925 0.67763 0.0
C425 C 0.37391 0.41724 0.68793 0.0
C426 C 0.32446 0.43021 0.64583 0.0
C427 C 0.42513 0.40093 0.7255 0.0
N428 N 0.37006 0.35648 0.71817 0.0
C429 C 0.40541 0.36535 0.73186 0.0
C430 C 0.40906 0.42718 0.70391 0.0
Eu431 Eu 0.33359 0.29774 0.73034 0.0
N432 N 0.3055 0.33357 0.68379 0.0
C433 C 0.2765 0.32022 0.66254 0.0
C434 C 0.27549 0.38038 0.6319 0.0
C435 C 0.26078 0.3434 0.63682 0.0
H436 H 0.41791 0.34504 0.74856 0.0
H437 H 0.23719 0.33267 0.62084 0.0
H438 H 0.31307 0.44934 0.62647 0.0
H439 H 0.4527 0.40806 0.73721 0.0
H440 H 0.26436 0.2919 0.6652 0.0
H441 H 0.36158 0.22684 0.90689 0.0
H442 H 0.26321 0.39823 0.61193 0.0
H443 H 0.18962 0.21258 0.77042 0.0
H444 H 0.33734 0.26603 0.85829 0.0
H445 H 0.15211 0.15099 0.7831 0.0
H446 H 0.37189 0.47 0.6581 0.0
H447 H 0.33363 0.16165 0.91864 0.0
H448 H 0.2831 0.11028 0.9046 0.0
H449 H 0.42448 0.45471 0.69882 0.0
H450 H 0.22564 0.08955 0.87088 0.0
N451 N 0.29663 0.22348 0.84137 0.0
C452 C 0.32466 0.23774 0.86285 0.0
C453 C 0.32285 0.17877 0.89709 0.0
C454 C 0.29236 0.16487 0.87648 0.0
C455 C 0.3386 0.21555 0.8906 0.0
C456 C 0.27952 0.18834 0.84868 0.0
H457 H 0.17606 0.1048 0.82603 0.0
N458 N 0.23462 0.20104 0.80514 0.0
C459 C 0.17898 0.15776 0.79633 0.0
C460 C 0.24739 0.17671 0.82986 0.0
C461 C 0.20026 0.19262 0.78926 0.0
C462 C 0.19264 0.13174 0.82047 0.0
C463 C 0.22695 0.14125 0.83807 0.0
O464 O 0.22165 0.27277 0.79941 0.0
O465 O 0.28358 0.30337 0.74877 0.0
O466 O 0.3507 0.33507 0.76766 0.0
O467 O 0.31644 0.30488 0.81019 0.0
O468 O 0.23064 0.27377 0.75086 0.0
O469 O 0.26972 0.28625 0.83322 0.0
O470 O 0.37398 0.30355 0.69748 0.0
O471 O 0.32341 0.25651 0.77591 0.0
O472 O 0.26215 0.21899 0.75804 0.0
O473 O 0.28567 0.25695 0.71204 0.0
O474 O 0.3767 0.28407 0.7725 0.0
O475 O 0.3453 0.25049 0.71679 0.0
C476 C 0.25111 0.30059 0.73436 0.0
C477 C 0.21307 0.27835 0.85226 0.0
C478 C 0.18076 0.29881 0.88766 0.0
C479 C 0.20377 0.30652 0.86306 0.0
C480 C 0.16772 0.26246 0.90153 0.0
C481 C 0.19998 0.2424 0.86667 0.0
C482 C 0.17745 0.23457 0.89122 0.0
C483 C 0.34159 0.33158 0.79728 0.0
C484 C 0.23548 0.28696 0.8253 0.0
C485 C 0.24071 0.11703 0.86442 0.0
C486 C 0.27342 0.12883 0.8836 0.0
C487 C 0.35573 0.25902 0.7904 0.0
C488 C 0.3635 0.25917 0.66424 0.0
C489 C 0.37976 0.23193 0.65967 0.0
C490 C 0.37593 0.22249 0.62841 0.0
C491 C 0.35523 0.2408 0.60206 0.0
C492 C 0.3431 0.27681 0.63747 0.0
C493 C 0.33891 0.26753 0.60666 0.0
C494 C 0.26642 0.22614 0.72633 0.0
C495 C 0.36817 0.26929 0.69684 0.0
H496 H 0.21375 0.33434 0.8518 0.0
H497 H 0.15027 0.2556 0.92067 0.0
H498 H 0.20695 0.22044 0.85877 0.0
H499 H 0.16735 0.20675 0.90222 0.0
H500 H 0.39523 0.21812 0.68048 0.0
H501 H 0.35224 0.23513 0.57756 0.0
H502 H 0.33059 0.29792 0.64031 0.0
H503 H 0.32325 0.28144 0.58611 0.0
Eu504 Eu 0.81936 0.21644 0.78011 0.0
C505 C 0.75723 0.34137 0.68254 0.0
C506 C 0.81023 0.38808 0.66974 0.0
C507 C 0.75594 0.38255 0.62994 0.0
C508 C 0.79273 0.35817 0.69126 0.0
C509 C 0.73807 0.35401 0.65217 0.0
C510 C 0.792 0.39951 0.63869 0.0
C511 C 0.6841 0.31181 0.6694 0.0
N512 N 0.74066 0.31419 0.70473 0.0
C513 C 0.70429 0.30014 0.69915 0.0
C514 C 0.70119 0.33847 0.64558 0.0
Eu515 Eu 0.77647 0.29565 0.75443 0.0
N516 N 0.80926 0.34689 0.72168 0.0
C517 C 0.84209 0.36621 0.73313 0.0
C518 C 0.84496 0.40645 0.68057 0.0
C519 C 0.86066 0.39586 0.71262 0.0
H520 H 0.69095 0.2794 0.71738 0.0
H521 H 0.88715 0.41042 0.72153 0.0
H522 H 0.80512 0.4222 0.62171 0.0
H523 H 0.65543 0.30013 0.66482 0.0
H524 H 0.85464 0.35829 0.7578 0.0
H525 H 0.70382 0.104 0.80442 0.0
H526 H 0.85937 0.42948 0.66477 0.0
H527 H 0.90235 0.22754 0.82247 0.0
H528 H 0.74056 0.15555 0.77096 0.0
H529 H 0.93249 0.20639 0.8779 0.0
H530 H 0.74181 0.3924 0.60634 0.0
H531 H 0.72566 0.08433 0.86291 0.0
H532 H 0.7755 0.09072 0.91005 0.0
H533 H 0.68548 0.3475 0.62257 0.0
H534 H 0.83787 0.11892 0.93026 0.0
N535 N 0.78259 0.16588 0.81021 0.0
C536 C 0.7506 0.1473 0.79638 0.0
C537 C 0.74197 0.10703 0.84831 0.0
C538 C 0.77584 0.1247 0.86178 0.0
C539 C 0.72961 0.11799 0.81529 0.0
C540 C 0.79592 0.15421 0.84173 0.0
H541 H 0.89693 0.16159 0.91823 0.0
N542 N 0.85023 0.19637 0.83219 0.0
C543 C 0.90379 0.19619 0.87138 0.0
C544 C 0.8308 0.17018 0.85319 0.0
C545 C 0.88674 0.20807 0.84009 0.0
C546 C 0.88359 0.17101 0.89411 0.0
C547 C 0.84683 0.15698 0.88488 0.0
O548 O 0.86517 0.20111 0.76632 0.0
O549 O 0.81909 0.2693 0.74604 0.0
O550 O 0.76414 0.2672 0.71117 0.0
O551 O 0.77265 0.20995 0.73822 0.0
O552 O 0.86944 0.25812 0.7642 0.0
O553 O 0.81056 0.17172 0.75388 0.0
O554 O 0.73217 0.30657 0.77448 0.0
O555 O 0.77703 0.24281 0.78905 0.0
O556 O 0.83557 0.24817 0.8213 0.0
O557 O 0.82525 0.30472 0.79356 0.0
O558 O 0.7267 0.25273 0.76842 0.0
O559 O 0.78539 0.34161 0.7792 0.0
C560 C 0.85273 0.28134 0.74483 0.0
C561 C 0.85738 0.13934 0.76443 0.0
C562 C 0.88218 0.09288 0.75091 0.0
C563 C 0.86878 0.12481 0.74128 0.0
C564 C 0.88371 0.07541 0.78389 0.0
C565 C 0.85857 0.12126 0.79718 0.0
C566 C 0.87164 0.08944 0.80683 0.0
C567 C 0.76074 0.23227 0.71213 0.0
C568 C 0.84504 0.17362 0.75413 0.0
C569 C 0.8262 0.12911 0.90567 0.0
C570 C 0.79072 0.11301 0.89414 0.0
C571 C 0.74326 0.23027 0.78902 0.0
C572 C 0.73463 0.3672 0.77668 0.0
C573 C 0.72138 0.37702 0.80176 0.0
C574 C 0.70376 0.40629 0.79498 0.0
C575 C 0.69977 0.42549 0.76251 0.0
C576 C 0.73066 0.38692 0.74465 0.0
C577 C 0.71328 0.41592 0.73765 0.0
C578 C 0.83916 0.28331 0.8191 0.0
C579 C 0.75164 0.33575 0.78427 0.0
H580 H 0.8681 0.13881 0.71596 0.0
H581 H 0.89404 0.05085 0.79181 0.0
H582 H 0.84965 0.13175 0.81531 0.0
H583 H 0.87264 0.07576 0.83219 0.0
H584 H 0.72514 0.36195 0.82656 0.0
H585 H 0.68577 0.44766 0.75611 0.0
H586 H 0.74081 0.37984 0.72509 0.0
H587 H 0.71004 0.4309 0.7128 0.0
Eu588 Eu 0.7633 0.72322 0.74354 0.0
C589 C 0.88469 0.82354 0.82249 0.0
C590 C 0.90105 0.78438 0.87324 0.0
C591 C 0.94635 0.8351 0.85046 0.0
C592 C 0.87535 0.79355 0.84624 0.0
C593 C 0.91996 0.84542 0.82485 0.0
C594 C 0.9369 0.80458 0.87463 0.0
C595 C 0.89898 0.88849 0.77927 0.0
N596 N 0.8583 0.83313 0.79865 0.0
C597 C 0.86435 0.86604 0.77827 0.0
C598 C 0.92713 0.87781 0.8023 0.0
Eu599 Eu 0.80085 0.79274 0.79632 0.0
N600 N 0.84032 0.77512 0.84433 0.0
C601 C 0.82851 0.74936 0.87025 0.0
C602 C 0.88957 0.75622 0.89869 0.0
C603 C 0.85298 0.73915 0.89749 0.0
H604 H 0.84253 0.87462 0.76078 0.0
H605 H 0.84358 0.71797 0.91745 0.0
H606 H 0.95714 0.79765 0.89494 0.0
H607 H 0.90387 0.91407 0.76244 0.0
H608 H 0.80041 0.73571 0.86986 0.0
H609 H 0.72995 0.79943 0.62047 0.0
H610 H 0.90845 0.74828 0.91983 0.0
H611 H 0.71788 0.64127 0.77449 0.0
H612 H 0.76978 0.77943 0.66982 0.0
H613 H 0.65531 0.60428 0.77028 0.0
H614 H 0.97373 0.85128 0.85247 0.0
H615 H 0.66408 0.773 0.61548 0.0
H616 H 0.61219 0.72619 0.6383 0.0
H617 H 0.95385 0.89539 0.80327 0.0
H618 H 0.59154 0.67271 0.67961 0.0
N619 N 0.727 0.74272 0.69386 0.0
C620 C 0.7412 0.76748 0.66835 0.0
C621 C 0.68148 0.7641 0.63741 0.0
C622 C 0.66755 0.73664 0.66237 0.0
C623 C 0.71864 0.77897 0.64008 0.0
C624 C 0.69143 0.72613 0.69042 0.0
H625 H 0.60765 0.62644 0.72865 0.0
N626 N 0.70478 0.685 0.73795 0.0
C627 C 0.66166 0.63036 0.75442 0.0
C628 C 0.67986 0.69626 0.71345 0.0
C629 C 0.69691 0.65144 0.75698 0.0
C630 C 0.63484 0.64299 0.73094 0.0
C631 C 0.64405 0.67581 0.70938 0.0
O632 O 0.77811 0.67213 0.74449 0.0
O633 O 0.80584 0.74127 0.78375 0.0
O634 O 0.84218 0.79875 0.76212 0.0
O635 O 0.80651 0.76894 0.721 0.0
O636 O 0.78348 0.68641 0.78915 0.0
O637 O 0.79131 0.71692 0.70478 0.0
O638 O 0.78315 0.84214 0.79638 0.0
O639 O 0.758 0.77528 0.75545 0.0
O640 O 0.72472 0.71322 0.78136 0.0
O641 O 0.76019 0.74591 0.82058 0.0
O642 O 0.78258 0.82982 0.75056 0.0
O643 O 0.7761 0.79806 0.83762 0.0
C644 C 0.80742 0.71086 0.80194 0.0
C645 C 0.78419 0.65801 0.69446 0.0
C646 C 0.80677 0.62089 0.66621 0.0
C647 C 0.8129 0.64554 0.68759 0.0
C648 C 0.77102 0.60841 0.65217 0.0
C649 C 0.74873 0.64562 0.68019 0.0
C650 C 0.74223 0.62077 0.65916 0.0
C651 C 0.83606 0.79069 0.73243 0.0
C652 C 0.79229 0.68332 0.71721 0.0
C653 C 0.61932 0.68773 0.68292 0.0
C654 C 0.63108 0.71816 0.6594 0.0
C655 C 0.75843 0.80611 0.73709 0.0
C656 C 0.78633 0.85711 0.84812 0.0
C657 C 0.76126 0.86802 0.86243 0.0
C658 C 0.7733 0.893 0.8838 0.0
C659 C 0.81081 0.90716 0.8902 0.0
C660 C 0.82356 0.87113 0.85526 0.0
C661 C 0.83567 0.89615 0.8761 0.0
C662 C 0.73196 0.72152 0.81103 0.0
C663 C 0.77336 0.83133 0.82564 0.0
H664 H 0.84013 0.65493 0.69923 0.0
H665 H 0.76538 0.58972 0.63531 0.0
H666 H 0.72625 0.65502 0.68537 0.0
H667 H 0.71485 0.61121 0.6481 0.0
H668 H 0.73255 0.85661 0.85729 0.0
H669 H 0.821 0.92696 0.90599 0.0
H670 H 0.84324 0.8629 0.84468 0.0
H671 H 0.86444 0.9071 0.8813 0.0
Fe672 Fe 1.03186 0.10768 0.51644 0.0
O673 O 1.02511 0.05592 0.50654 0.0
Fe674 Fe 0.07886 0.04107 0.51471 0.0
Fe675 Fe 0.98247 1.00869 0.50865 0.0
O676 O 1.03756 0.05759 0.52434 0.0
O677 O 1.03806 0.9989 0.50529 0.0
O678 O 1.03306 0.99715 0.51308 0.0
Fe679 Fe 0.04347 0.94846 0.51545 0.0
C680 C 0.98657 0.0541 0.56672 0.0
O681 O 0.98368 0.10873 0.48519 0.0
O682 O 0.99338 0.05903 0.47952 0.0
O683 O 0.08256 0.96777 0.48449 0.0
O684 O 0.11725 0.01961 0.49962 0.0
O685 O 0.07364 0.07263 0.46792 0.0
O686 O 0.06203 0.12399 0.47753 0.0
O687 O 0.97729 0.98978 0.46455 0.0
O688 O 1.00326 0.94067 0.47633 0.0
C689 C 0.0728 0.10645 0.45976 0.0
O690 O 0.08439 0.95704 0.55403 0.0
O691 O 0.08626 1.01284 0.5616 0.0
O692 O 1.00165 0.08672 0.55452 0.0
O693 O 0.98186 0.02588 0.55335 0.0
C694 C 0.97183 0.08056 0.47322 0.0
C695 C 0.98227 0.96047 0.45794 0.0
C696 C 0.97376 0.93281 0.54921 0.0
O697 O 0.95962 0.95766 0.53032 0.0
O698 O 1.00568 0.92878 0.54823 0.0
C699 C 0.11161 0.99268 0.48457 0.0
O700 O 0.11727 0.08364 0.53123 0.0
O701 O 0.07919 0.10934 0.54895 0.0
C702 C 0.09602 0.98273 0.57028 0.0
C703 C 0.1105 0.10232 0.55031 0.0
Fe704 Fe 0.54218 0.97236 0.02221 0.0
O705 O 0.56752 0.0175 0.03929 0.0
Fe706 Fe 0.46048 0.99472 0.98228 0.0
Fe707 Fe 0.62065 0.03265 0.04708 0.0
O708 O 0.51368 1.00582 0.99115 0.0
O709 O 0.51361 1.00981 0.9901 0.0
O710 O 0.56744 0.02149 0.03826 0.0
Fe711 Fe 0.53906 0.05494 1.00713 0.0
C712 C 0.6018 0.95429 0.08182 0.0
O713 O 0.57848 0.98142 0.98854 0.0
O714 O 0.62994 0.99825 0.02044 0.0
O715 O 0.50446 0.08364 0.97117 0.0
O716 O 0.4666 0.03965 0.94469 0.0
O717 O 0.47095 0.9575 0.95922 0.0
O718 O 0.51116 0.9299 0.99828 0.0
O719 O 0.6275 0.07403 1.00644 0.0
O720 O 0.57554 0.06671 0.97293 0.0
C721 C 0.48825 0.93167 0.97133 0.0
O722 O 0.50272 0.04615 0.04068 0.0
O723 O 0.45126 0.02922 1.0088 0.0
O724 O 0.57706 0.94372 0.05812 0.0
O725 O 0.61441 0.98795 0.08458 0.0
C726 C 0.61277 0.98524 0.99557 0.0
C727 C 0.60976 0.07888 0.97782 0.0
C728 C 0.59329 0.09583 0.05777 0.0
O729 O 0.61036 0.0699 0.0701 0.0
O730 O 0.57012 0.0974 0.03099 0.0
C731 C 0.47969 0.0733 0.94743 0.0
O732 O 0.45356 0.95336 0.02313 0.0
O733 O 0.50574 0.96045 0.05643 0.0
C734 C 0.46852 0.04283 0.03334 0.0
C735 C 0.47145 0.9485 0.05172 0.0
Fe736 Fe 0.04755 0.55871 1.00641 0.0
O737 O 1.01431 0.51516 0.99159 0.0
Fe738 Fe 0.12563 0.52597 0.0406 0.0
Fe739 Fe 0.96108 0.50735 0.98862 0.0
O740 O 0.07312 0.52162 0.03546 0.0
O741 O 0.07241 0.51757 0.03715 0.0
O742 O 1.01364 0.51093 0.99322 0.0
Fe743 Fe 1.03902 0.47387 0.02292 0.0
C744 C 0.98422 0.55838 0.03865 0.0
O745 O 1.01424 0.59149 0.9735 0.0
O746 O 0.96908 0.55016 0.94969 0.0
O747 O 0.06954 0.47634 0.98638 0.0
O748 O 0.12555 0.48769 1.01282 0.0
O749 O 0.13289 0.56583 0.99962 0.0
O750 O 0.0792 0.56532 0.96894 0.0
O751 O 0.96087 0.46556 0.96594 0.0
O752 O 0.99999 0.43355 1.002 0.0
C753 C 0.11388 0.57317 0.97204 0.0
O754 O 0.07177 0.44111 0.05675 0.0
O755 O 0.11749 0.48306 0.07919 0.0
O756 O 1.01714 0.55531 0.04339 0.0
O757 O 0.96198 0.54617 1.0155 0.0
C758 C 0.98631 0.58302 0.95169 0.0
C759 C 0.97379 0.43666 0.9778 0.0
C760 C 0.97284 0.45961 0.05729 0.0
O761 O 0.95371 0.46805 0.03004 0.0
O762 O 1.0075 0.46793 0.06034 0.0
C763 C 0.10282 0.47452 0.99027 0.0
O764 O 0.12432 0.5667 0.06446 0.0
O765 O 0.08577 0.59895 0.02808 0.0
C766 C 0.09938 0.45017 0.07871 0.0
C767 C 0.10976 0.59478 0.05398 0.0
Fe768 Fe 0.5574 0.52551 0.98645 0.0
O769 O 0.5649 0.48748 0.02547 0.0
Fe770 Fe 0.477 0.54746 0.9957 0.0
Fe771 Fe 0.61403 0.48009 0.04465 0.0
O772 O 0.52588 0.53969 1.01226 0.0
O773 O 0.52608 0.54012 1.01524 0.0
O774 O 0.56498 0.48779 0.02846 0.0
Fe775 Fe 0.53385 0.50237 0.05448 0.0
C776 C 0.60497 0.47693 0.97242 0.0
O777 O 0.59997 0.56037 1.00659 0.0
O778 O 0.64129 0.52729 0.01688 0.0
O779 O 0.50012 0.52277 0.07706 0.0
O780 O 0.48172 0.56866 0.03763 0.0
O781 O 0.50678 0.59214 0.96736 0.0
O782 O 0.54765 0.56813 0.94911 0.0
O783 O 0.62073 0.50663 0.0838 0.0
O784 O 0.5767 0.53754 0.07473 0.0
C785 C 0.53249 0.59438 0.94987 0.0
O786 O 0.491 0.46729 0.03493 0.0
O787 O 0.44965 0.50049 0.0236 0.0
O788 O 0.59141 0.50585 0.96383 0.0
O789 O 0.60921 0.45906 1.00237 0.0
C790 C 0.63205 0.55763 1.0061 0.0
C791 C 0.60742 0.53173 0.08898 0.0
C792 C 0.55892 0.43345 0.09093 0.0
O793 O 0.58432 0.43556 0.0731 0.0
O794 O 0.54395 0.4598 0.09192 0.0
C795 C 0.48611 0.55147 0.0678 0.0
O796 O 0.47037 0.52061 0.9567 0.0
O797 O 0.51492 0.49038 0.96575 0.0
C798 C 0.45889 0.47025 0.03499 0.0
C799 C 0.48407 0.49577 0.95153 0.0
Fe800 Fe 0.06099 0.43996 0.52676 0.0
O801 O 0.06256 0.49175 0.52224 0.0
Fe802 Fe 1.03709 0.5186 0.47771 0.0
Fe803 Fe 0.04509 0.51219 0.55463 0.0
O804 O 0.06197 0.49211 0.51857 0.0
O805 O 1.01818 0.53796 0.51005 0.0
O806 O 1.0189 0.53768 0.51394 0.0
Fe807 Fe 1.01995 0.58998 0.50491 0.0
C808 C 1.00031 0.43707 0.56877 0.0
O809 O 0.10078 0.44995 0.56534 0.0
O810 O 0.0765 0.48204 0.59295 0.0
O811 O 0.05431 0.60588 0.46853 0.0
O812 O 0.08231 0.56066 0.4753 0.0
O813 O 0.06291 0.49489 0.45002 0.0
O814 O 0.09363 0.45736 0.48982 0.0
O815 O 0.09011 0.5541 0.55338 0.0
O816 O 0.06361 0.60142 0.53966 0.0
C817 C 0.08811 0.47605 0.46044 0.0
O818 O 0.97904 0.57863 0.46764 0.0
O819 O 1.00621 0.54975 0.43931 0.0
O820 O 1.02413 0.42301 0.5615 0.0
O821 O 1.00024 0.47049 0.55926 0.0
C822 C 0.09961 0.4628 0.59096 0.0
C823 C 0.09029 0.58701 0.55321 0.0
C824 C 0.99712 0.55706 0.5732 0.0
O825 O 1.02127 0.537 0.58258 0.0
O826 O 0.98973 0.57452 0.54365 0.0
C827 C 0.08033 0.59332 0.46357 0.0
O828 O 0.99205 0.47651 0.47693 0.0
O829 O 1.01938 0.42986 0.48998 0.0
C830 C 0.98186 0.56767 0.44141 0.0
C831 C 0.99302 0.4443 0.47549 0.0
Fe832 Fe 0.53628 0.97233 0.52279 0.0
O833 O 0.56608 1.01489 0.54142 0.0
Fe834 Fe 0.50893 1.01278 0.44252 0.0
Fe835 Fe 0.57311 0.01686 0.58821 0.0
O836 O 0.51511 1.01057 0.4903 0.0
O837 O 0.51555 1.01471 0.48939 0.0
O838 O 0.56666 0.01902 0.54044 0.0
Fe839 Fe 0.54548 0.05729 0.508 0.0
C840 C 0.49988 0.96155 0.58339 0.0
O841 O 0.56428 0.93807 0.55998 0.0
O842 O 0.60257 0.97776 0.59086 0.0
O843 O 0.58562 0.06408 0.47859 0.0
O844 O 0.55185 0.05573 0.43113 0.0
O845 O 0.54249 0.97736 0.44505 0.0
O846 O 0.57605 0.97612 0.49392 0.0
O847 O 0.6125 0.06188 0.57521 0.0
O848 O 0.58156 0.09635 0.5328 0.0
C849 C 0.5703 0.97034 0.46462 0.0
O850 O 0.51705 0.09136 0.47077 0.0
O851 O 0.47901 0.05134 0.43998 0.0
O852 O 0.49597 0.96537 0.55219 0.0
O853 O 0.5298 0.97447 0.59954 0.0
C854 C 0.59226 0.94655 0.58174 0.0
C855 C 0.60884 0.0921 0.55566 0.0
C856 C 0.51241 0.06023 0.56625 0.0
O857 O 0.54018 0.05286 0.58569 0.0
O858 O 0.50604 0.05383 0.53713 0.0
C859 C 0.5817 0.06862 0.44737 0.0
O860 O 0.46983 0.96732 0.45527 0.0
O861 O 0.50077 0.93318 0.49787 0.0
C862 C 0.48894 0.08252 0.44919 0.0
C863 C 0.47377 0.93708 0.47466 0.0
H864 H 0.17245 0.18693 0.27921 0.0
H865 H 0.09412 0.17966 0.4431 0.0
H866 H 0.23014 0.2476 0.35398 0.0
H867 H 0.08773 0.08103 0.40855 0.0
H868 H 0.12846 0.21342 0.39836 0.0
H869 H 0.12671 0.15582 0.31592 0.0
C870 C 0.17572 0.19356 0.30328 0.0
C871 C 0.20602 0.21885 0.31397 0.0
C872 C 0.11897 0.18446 0.40038 0.0
C873 C 0.15284 0.18519 0.35494 0.0
C874 C 0.09926 0.16512 0.42578 0.0
C875 C 0.08841 0.12733 0.42985 0.0
C876 C 0.12736 0.16605 0.37856 0.0
C877 C 0.09593 0.11007 0.40652 0.0
C878 C 0.14944 0.17607 0.32399 0.0
C879 C 0.20777 0.22772 0.34488 0.0
N880 N 0.1152 0.12961 0.38185 0.0
N881 N 0.18152 0.21092 0.36426 0.0
H882 H 0.791 0.02817 0.33545 0.0
H883 H 0.91405 0.1023 0.48691 0.0
H884 H 0.76948 0.10895 0.38064 0.0
H885 H 0.942 0.0346 0.43085 0.0
H886 H 0.85129 0.08918 0.46052 0.0
H887 H 0.83378 1.01214 0.38372 0.0
C888 C 0.7939 0.04115 0.35637 0.0
C889 C 0.77717 0.07002 0.35422 0.0
C890 C 0.87096 0.07641 0.45464 0.0
C891 C 0.82708 0.05334 0.40849 0.0
C892 C 0.90679 0.08408 0.46953 0.0
C893 C 0.93315 0.06937 0.46103 0.0
C894 C 0.86166 0.05434 0.43076 0.0
C895 C 0.92235 0.04577 0.43861 0.0
C896 C 0.81873 0.03246 0.38369 0.0
C897 C 0.78212 0.08654 0.38158 0.0
N898 N 0.88755 0.03939 0.42389 0.0
N899 N 0.80745 0.07865 0.40731 0.0
H900 H 0.9021 0.84945 0.29295 0.0
H901 H 0.9127 0.9656 0.43112 0.0
H902 H 0.80953 0.84596 0.33983 0.0
H903 H 1.00278 0.92356 0.41837 0.0
H904 H 0.87524 0.93554 0.38725 0.0
H905 H 0.93978 0.89034 0.32845 0.0
C906 C 0.88947 0.85811 0.30998 0.0
C907 C 0.85253 0.84472 0.31306 0.0
C908 C 0.90336 0.93336 0.39381 0.0
C909 C 0.89552 0.89112 0.35407 0.0
C910 C 0.92484 0.95077 0.4186 0.0
C911 C 0.96094 0.94709 0.42842 0.0
C912 C 0.91828 0.91272 0.3783 0.0
C913 C 0.97505 0.92697 0.41168 0.0
C914 C 0.91108 0.88107 0.33055 0.0
C915 C 0.8379 0.85582 0.33656 0.0
N916 N 0.95374 0.91059 0.38746 0.0
N917 N 0.85937 0.87844 0.3561 0.0
H918 H 0.18787 0.88961 0.36159 0.0
H919 H 0.151 0.04426 0.4402 0.0
H920 H 0.23195 1.00248 0.32656 0.0
H921 H 0.13282 0.93134 0.48463 0.0
H922 H 0.18386 0.03168 0.39994 0.0
H923 H 0.16971 0.90584 0.40776 0.0
C924 C 0.19431 0.91782 0.36371 0.0
C925 C 0.21167 0.94458 0.33981 0.0
C926 C 0.1733 1.00985 0.41896 0.0
C927 C 0.1897 0.96365 0.39286 0.0
C928 C 0.15491 0.01712 0.44209 0.0
C929 C 0.13911 0.98875 0.46564 0.0
C930 C 0.17558 0.97401 0.41949 0.0
C931 C 0.14436 0.95394 0.4667 0.0
C932 C 0.18363 0.92714 0.39016 0.0
C933 C 0.21811 0.98082 0.34389 0.0
N934 N 0.1617 0.94753 0.44381 0.0
N935 N 0.20688 0.98931 0.36969 0.0
H936 H 0.30737 0.96447 0.67366 0.0
H937 H 0.14416 0.93878 0.58 0.0
H938 H 0.24648 0.98408 0.7424 0.0
H939 H 0.11973 0.02359 0.61842 0.0
H940 H 0.20088 0.94274 0.61708 0.0
H941 H 0.26013 0.97961 0.62907 0.0
C942 C 0.28492 0.97374 0.67908 0.0
C943 C 0.28036 0.97269 0.71158 0.0
C944 C 0.18329 0.96078 0.61708 0.0
C945 C 0.22582 0.98808 0.66145 0.0
C946 C 0.15049 0.95792 0.59652 0.0
C947 C 0.12709 0.98074 0.59625 0.0
C948 C 0.19261 0.98639 0.63776 0.0
C949 C 0.137 1.00541 0.61793 0.0
C950 C 0.25761 0.98148 0.65384 0.0
C951 C 0.25063 0.98447 0.71752 0.0
N952 N 0.16894 1.00734 0.63812 0.0
N953 N 0.22391 0.99099 0.69268 0.0
H954 H 0.20755 0.1683 0.73544 0.0
H955 H 0.18497 0.12901 0.552 0.0
H956 H 0.28168 0.22489 0.66561 0.0
H957 H 0.09799 0.1012 0.61183 0.0
H958 H 0.2264 0.15371 0.59743 0.0
H959 H 0.17273 0.13277 0.69444 0.0
C960 C 0.21676 0.17315 0.71175 0.0
C961 C 0.24722 0.20036 0.704 0.0
C962 C 0.19828 0.14184 0.60062 0.0
C963 C 0.20772 0.15932 0.65679 0.0
C964 C 0.17475 0.12763 0.57476 0.0
C965 C 0.13788 0.11357 0.57792 0.0
C966 C 0.18492 0.14129 0.62996 0.0
C967 C 0.12608 0.11241 0.60806 0.0
C968 C 0.19683 0.15283 0.68823 0.0
C969 C 0.25803 0.20477 0.67271 0.0
N970 N 0.14936 0.12612 0.63274 0.0
N971 N 0.23829 0.18473 0.65032 0.0
H972 H 0.84697 0.07654 0.69211 0.0
H973 H 1.02236 0.08033 0.62073 0.0
H974 H 0.94883 0.07776 0.75489 0.0
H975 H 0.91968 0.0186 0.58359 0.0
H976 H 0.9963 0.08193 0.6694 0.0
H977 H 0.87244 0.05788 0.65048 0.0
C978 C 0.87459 0.07255 0.69715 0.0
C979 C 0.89599 0.07878 0.72676 0.0
C980 C 0.97966 0.06745 0.65092 0.0
C981 C 0.92524 0.05805 0.67944 0.0
C982 C 0.99447 0.06658 0.62321 0.0
C983 C 0.973 0.04937 0.5983 0.0
C984 C 0.94283 0.05201 0.65315 0.0
C985 C 0.93703 0.03199 0.60247 0.0
C986 C 0.88897 0.0617 0.67359 0.0
C987 C 0.93152 0.07313 0.73233 0.0
N988 N 0.92273 0.03441 0.62912 0.0
N989 N 0.9453 0.06367 0.70862 0.0
H990 H 0.87337 0.76286 0.69836 0.0
H991 H 0.91861 0.94744 0.57335 0.0
H992 H 0.85224 0.86279 0.71092 0.0
H993 H 0.98241 0.86651 0.58561 0.0
H994 H 0.88766 0.91231 0.61955 0.0
H995 H 0.90867 0.79658 0.65339 0.0
C996 C 0.87695 0.792 0.69206 0.0
C997 C 0.86106 0.81047 0.70881 0.0
C998 C 0.90838 0.90218 0.61211 0.0
C999 C 0.89973 0.84859 0.65725 0.0
C1000 C 0.92584 0.92202 0.5855 0.0
C1001 C 0.95309 0.90981 0.5755 0.0
C1002 C 0.91779 0.86959 0.6287 0.0
C1003 C 0.96158 0.87688 0.59255 0.0
C1004 C 0.89688 0.8111 0.66651 0.0
C1005 C 0.86539 0.84794 0.69946 0.0
N1006 N 0.94381 0.85772 0.61833 0.0
N1007 N 0.88408 0.86578 0.67407 0.0
H1008 H 0.37628 0.1206 0.17328 0.0
H1009 H 0.39926 0.05175 1.01563 0.0
H1010 H 0.30989 0.13731 0.07963 0.0
H1011 H 0.48968 0.06887 0.09183 0.0
H1012 H 0.36458 0.07802 0.04284 0.0
H1013 H 0.41752 0.09867 0.14738 0.0
C1014 C 0.37058 0.12004 0.14727 0.0
C1015 C 0.33921 0.13021 0.12868 0.0
C1016 C 0.39202 0.07621 0.05372 0.0
C1017 C 0.38582 0.10488 0.09927 0.0
C1018 C 0.41193 0.06088 0.03827 0.0
C1019 C 0.44762 0.05795 0.05143 0.0
C1020 C 0.40744 0.08862 0.08293 0.0
C1021 C 0.46228 0.0706 0.08082 0.0
C1022 C 0.39405 0.10744 0.1326 0.0
C1023 C 0.33313 0.12885 0.09514 0.0
N1024 N 0.442 0.0853 0.09576 0.0
N1025 N 0.35597 0.11613 0.08166 0.0
H1026 H 0.80243 0.32497 0.16771 0.0
H1027 H 0.99774 0.4438 0.12418 0.0
H1028 H 0.88748 0.35926 0.24275 0.0
H1029 H 0.90177 0.42494 0.05402 0.0
H1030 H 0.96161 0.40838 0.16832 0.0
H1031 H 0.84212 0.35664 0.12599 0.0
C1032 C 0.82977 0.33882 0.17534 0.0
C1033 C 0.84208 0.33883 0.20863 0.0
C1034 C 0.94865 0.41212 0.1432 0.0
C1035 C 0.88774 0.37601 0.16096 0.0
C1036 C 0.96927 0.43226 0.11799 0.0
C1037 C 0.95289 0.43779 0.08518 0.0
C1038 C 0.91153 0.39708 0.13547 0.0
C1039 C 0.9158 0.42198 0.07878 0.0
C1040 C 0.85242 0.35715 0.15154 0.0
C1041 C 0.87736 0.35809 0.21726 0.0
N1042 N 0.89664 0.40253 0.10349 0.0
N1043 N 0.8991 0.37577 0.19359 0.0
H1044 H 0.67355 0.76113 0.19789 0.0
H1045 H 0.65898 0.96733 0.13009 0.0
H1046 H 0.75693 0.85147 0.22216 0.0
H1047 H 0.58787 0.87926 0.08833 0.0
H1048 H 0.69246 0.92486 0.16601 0.0
H1049 H 0.64023 0.80312 0.15963 0.0
C1050 C 0.68503 0.78988 0.19485 0.0
C1051 C 0.71849 0.80276 0.21272 0.0
C1052 C 0.66952 0.91469 0.14909 0.0
C1053 C 0.67981 0.85126 0.16955 0.0
C1054 C 0.65 0.939 0.12851 0.0
C1055 C 0.6201 0.92717 0.10583 0.0
C1056 C 0.65923 0.8778 0.14761 0.0
C1057 C 0.61047 0.88988 0.10531 0.0
C1058 C 0.66595 0.81384 0.17302 0.0
C1059 C 0.73171 0.8403 0.20833 0.0
N1060 N 0.62986 0.86662 0.12587 0.0
N1061 N 0.71231 0.86317 0.18732 0.0
H1062 H 0.18521 0.68672 0.22557 0.0
H1063 H 0.13129 0.66904 0.03648 0.0
H1064 H 0.2262 0.77171 0.14797 0.0
H1065 H 0.11162 0.58267 0.11943 0.0
H1066 H 0.15595 0.71178 0.07474 0.0
H1067 H 0.147 0.65373 0.18495 0.0
C1068 C 0.18606 0.69848 0.19984 0.0
C1069 C 0.20954 0.7315 0.19007 0.0
C1070 C 0.14574 0.68354 0.08441 0.0
C1071 C 0.16591 0.69358 0.14303 0.0
C1072 C 0.13157 0.6593 0.06265 0.0
C1073 C 0.11989 0.62236 0.075 0.0
C1074 C 0.14752 0.67055 0.11847 0.0
C1075 C 0.12085 0.61089 0.10899 0.0
C1076 C 0.16414 0.67966 0.17657 0.0
C1077 C 0.20868 0.74605 0.1564 0.0
N1078 N 0.13452 0.63479 0.12943 0.0
N1079 N 0.18764 0.72665 0.13392 0.0
H1080 H 0.32634 0.78997 0.87185 0.0
H1081 H 0.4524 0.86247 0.99146 0.0
H1082 H 0.41019 0.82827 0.80829 0.0
H1083 H 0.49886 0.93456 0.90897 0.0
H1084 H 0.41836 0.82118 0.95467 0.0
H1085 H 0.36808 0.81631 0.91531 0.0
C1086 C 0.35361 0.80378 0.8671 0.0
C1087 C 0.36477 0.80699 0.83638 0.0
C1088 C 0.43632 0.84582 0.94467 0.0
C1089 C 0.41313 0.83657 0.88632 0.0
C1090 C 0.45637 0.86889 0.9658 0.0
C1091 C 0.47844 0.90172 0.9531 0.0
C1092 C 0.43833 0.85603 0.91071 0.0
C1093 C 0.48216 0.90932 0.91959 0.0
C1094 C 0.37768 0.81834 0.89214 0.0
C1095 C 0.40048 0.82511 0.83162 0.0
N1096 N 0.46203 0.88682 0.89947 0.0
N1097 N 0.42323 0.83961 0.85619 0.0
H1098 H 0.22408 0.36151 0.9047 0.0
H1099 H 0.06035 0.43112 0.94851 0.0
H1100 H 0.11275 0.30302 0.89637 0.0
H1101 H 0.1722 0.46838 0.98653 0.0
H1102 H 0.0794 0.39091 0.92076 0.0
H1103 H 0.20572 0.40744 0.92641 0.0
C1104 C 0.19575 0.35852 0.90712 0.0
C1105 C 0.16996 0.32823 0.89889 0.0
C1106 C 0.09981 0.40805 0.93501 0.0
C1107 C 0.14874 0.38075 0.92354 0.0
C1108 C 0.08897 0.43118 0.9508 0.0
C1109 C 0.11461 0.45309 0.97023 0.0
C1110 C 0.13669 0.40696 0.9382 0.0
C1111 C 0.15137 0.4519 0.97205 0.0
C1112 C 0.18533 0.38462 0.91968 0.0
C1113 C 0.13363 0.32566 0.90276 0.0
N1114 N 0.16128 0.42922 0.95633 0.0
N1115 N 0.12413 0.35152 0.91472 0.0
H1116 H 0.67393 0.19124 0.78608 0.0
H1117 H 0.68248 0.11056 0.97948 0.0
H1118 H 0.76949 0.21546 0.85505 0.0
H1119 H 0.58378 0.09643 0.91191 0.0
H1120 H 0.71538 0.14585 0.9341 0.0
H1121 H 0.64149 0.15386 0.83128 0.0
C1122 C 0.68819 0.1884 0.81078 0.0
C1123 C 0.72479 0.20577 0.81662 0.0
C1124 C 0.68653 0.13511 0.92914 0.0
C1125 C 0.68747 0.16334 0.86892 0.0
C1126 C 0.66757 0.11481 0.95513 0.0
C1127 C 0.62999 0.10037 0.94982 0.0
C1128 C 0.66806 0.14122 0.89723 0.0
C1129 C 0.61258 0.10696 0.91745 0.0
C1130 C 0.66961 0.16709 0.83662 0.0
C1131 C 0.74163 0.20176 0.84925 0.0
N1132 N 0.63168 0.12681 0.89254 0.0
N1133 N 0.72293 0.18091 0.87408 0.0
H1134 H 0.88168 0.73763 0.80362 0.0
H1135 H 0.9244 0.5933 0.96568 0.0
H1136 H 0.8011 0.65899 0.85595 0.0
H1137 H 1.00115 0.63504 0.89577 0.0
H1138 H 0.88372 0.6304 0.93178 0.0
H1139 H 0.92974 0.71237 0.84232 0.0
C1140 C 0.87418 0.71563 0.82364 0.0
C1141 C 0.83739 0.70077 0.82704 0.0
C1142 C 0.90963 0.63196 0.92392 0.0
C1143 C 0.89187 0.67166 0.87091 0.0
C1144 C 0.93302 0.61098 0.94343 0.0
C1145 C 0.96626 0.61124 0.93364 0.0
C1146 C 0.91919 0.65346 0.89398 0.0
C1147 C 0.97587 0.63434 0.90433 0.0
C1148 C 0.90153 0.70103 0.84546 0.0
C1149 C 0.82909 0.67155 0.85273 0.0
N1150 N 0.95229 0.65441 0.88532 0.0
N1151 N 0.85596 0.65821 0.87367 0.0
H1152 H 0.27846 0.37415 0.18196 0.0
H1153 H 0.09388 0.37745 0.07718 0.0
H1154 H 0.19679 0.28449 0.22081 0.0
H1155 H 0.1417 0.4588 0.13659 0.0
H1156 H 0.13182 0.33727 0.1133 0.0
H1157 H 0.23074 0.40065 0.14563 0.0
C1158 C 0.25048 0.35961 0.18228 0.0
C1159 C 0.24166 0.32685 0.20414 0.0
C1160 C 0.13315 0.36368 0.11859 0.0
C1161 C 0.1869 0.35717 0.1625 0.0
C1162 C 0.11147 0.38656 0.09815 0.0
C1163 C 0.11477 0.42187 0.1035 0.0
C1164 C 0.15839 0.37653 0.1441 0.0
C1165 C 0.13846 0.43219 0.13097 0.0
C1166 C 0.22336 0.37476 0.16159 0.0
C1167 C 0.20479 0.30944 0.20385 0.0
N1168 N 0.15976 0.41006 0.14966 0.0
N1169 N 0.17857 0.3249 0.18336 0.0
H1170 H 0.28641 0.69471 0.85865 0.0
H1171 H 0.08807 0.59083 0.90552 0.0
H1172 H 0.19665 0.6692 0.78444 0.0
H1173 H 0.18664 0.60031 0.97372 0.0
H1174 H 0.12455 0.62241 0.86057 0.0
H1175 H 0.24784 0.66258 0.90106 0.0
C1176 C 0.25837 0.68246 0.8514 0.0
C1177 C 0.24433 0.6853 0.81819 0.0
C1178 C 0.13799 0.61735 0.88545 0.0
C1179 C 0.19977 0.648 0.86657 0.0
C1180 C 0.11718 0.59946 0.91113 0.0
C1181 C 0.13411 0.59264 0.94366 0.0
C1182 C 0.17591 0.62867 0.89242 0.0
C1183 C 0.17204 0.60459 0.94926 0.0
C1184 C 0.23632 0.66393 0.87556 0.0
C1185 C 0.20812 0.66814 0.80993 0.0
N1186 N 0.19138 0.62188 0.92412 0.0
N1187 N 0.18687 0.65049 0.83398 0.0
H1188 H 0.41576 0.27114 0.83446 0.0
H1189 H 0.42242 0.062 0.89858 0.0
H1190 H 0.33286 0.1843 0.80266 0.0
H1191 H 0.49596 0.14817 0.94117 0.0
H1192 H 0.39102 0.1062 0.86219 0.0
H1193 H 0.44615 0.2268 0.87256 0.0
C1194 C 0.40373 0.24263 0.83579 0.0
C1195 C 0.3713 0.23148 0.81578 0.0
C1196 C 0.41407 0.11553 0.8794 0.0
C1197 C 0.40669 0.18017 0.85896 0.0
C1198 C 0.43234 0.09023 0.90024 0.0
C1199 C 0.46232 0.10105 0.92325 0.0
C1200 C 0.42569 0.15236 0.88106 0.0
C1201 C 0.47324 0.13827 0.92394 0.0
C1202 C 0.42118 0.21729 0.85753 0.0
C1203 C 0.35735 0.19415 0.81811 0.0
N1204 N 0.45505 0.16242 0.90323 0.0
N1205 N 0.37514 0.1699 0.83919 0.0
H1206 H 0.81592 0.32812 0.84725 0.0
H1207 H 1.00228 0.3869 0.95805 0.0
H1208 H 0.9057 0.27693 0.85409 0.0
H1209 H 0.90167 0.41494 0.96419 0.0
H1210 H 0.96841 0.34311 0.92317 0.0
H1211 H 0.84779 0.35841 0.89213 0.0
C1212 C 0.84238 0.32316 0.85844 0.0
C1213 C 0.85821 0.29995 0.8472 0.0
C1214 C 0.95378 0.35843 0.93272 0.0
C1215 C 0.89523 0.33469 0.89851 0.0
C1216 C 0.97306 0.38322 0.95266 0.0
C1217 C 0.9547 0.40491 0.96331 0.0
C1218 C 0.91616 0.35565 0.9237 0.0
C1219 C 0.91688 0.39919 0.95584 0.0
C1220 C 0.86054 0.34024 0.88421 0.0
C1221 C 0.89241 0.29416 0.86256 0.0
N1222 N 0.89898 0.37548 0.93624 0.0
N1223 N 0.91011 0.31181 0.88729 0.0
H1224 H 0.7811 0.90324 0.94695 0.0
H1225 H 0.58993 0.95533 0.93921 0.0
H1226 H 0.70574 0.90738 0.85779 0.0
H1227 H 0.68455 0.98417 1.00851 0.0
H1228 H 0.62718 0.93096 0.91086 0.0
H1229 H 0.74052 0.92489 0.97258 0.0
C1230 C 0.75608 0.90891 0.93264 0.0
C1231 C 0.74721 0.90407 0.89994 0.0
C1232 C 0.63954 0.9428 0.93224 0.0
C1233 C 0.70005 0.92853 0.92948 0.0
C1234 C 0.61837 0.9567 0.94839 0.0
C1235 C 0.634 0.9718 0.97638 0.0
C1236 C 0.67626 0.94365 0.94454 0.0
C1237 C 0.67104 0.97282 0.98715 0.0
C1238 C 0.73279 0.92117 0.94736 0.0
C1239 C 0.71369 0.91073 0.88307 0.0
N1240 N 0.69066 0.95881 0.97138 0.0
N1241 N 0.69131 0.9228 0.898 0.0
H1242 H 0.9458 0.69504 0.16633 0.0
H1243 H 1.02231 0.59042 0.09054 0.0
H1244 H 0.88369 0.71512 0.07099 0.0
H1245 H 0.91904 0.5786 0.02891 0.0
H1246 H 1.00337 0.6325 0.1165 0.0
H1247 H 0.96783 0.64869 0.14866 0.0
C1248 C 0.93687 0.6897 0.14168 0.0
C1249 C 0.91313 0.70917 0.11998 0.0
C1250 C 0.98463 0.6201 0.09776 0.0
C1251 C 0.93835 0.65651 0.09953 0.0
C1252 C 0.99548 0.59615 0.08282 0.0
C1253 C 0.97227 0.58078 0.05747 0.0
C1254 C 0.95046 0.62899 0.08703 0.0
C1255 C 0.93794 0.58961 0.04831 0.0
C1256 C 0.94973 0.66353 0.13151 0.0
C1257 C 0.90236 0.70116 0.08834 0.0
N1258 N 0.92834 0.61338 0.06276 0.0
N1259 N 0.91484 0.67533 0.07918 0.0
H1260 H 0.30655 0.81735 0.17522 0.0
H1261 H 0.49857 0.93 0.11706 0.0
H1262 H 0.40722 0.83009 0.23991 0.0
H1263 H 0.39826 0.9185 0.05142 0.0
H1264 H 0.46512 0.89503 0.16244 0.0
H1265 H 0.33869 0.85601 0.12995 0.0
C1266 C 0.33528 0.82872 0.18001 0.0
C1267 C 0.35404 0.82108 0.21163 0.0
C1268 C 0.45036 0.90017 0.13811 0.0
C1269 C 0.39143 0.86457 0.15962 0.0
C1270 C 0.46955 0.92021 0.11207 0.0
C1271 C 0.45147 0.92733 0.08005 0.0
C1272 C 0.41261 0.8869 0.1324 0.0
C1273 C 0.41363 0.91376 0.07549 0.0
C1274 C 0.35375 0.85057 0.15409 0.0
C1275 C 0.39156 0.83564 0.21608 0.0
N1276 N 0.39562 0.89429 0.10119 0.0
N1277 N 0.40889 0.85659 0.19055 0.0
H1278 H 0.75854 0.23104 0.16064 0.0
H1279 H 0.5692 0.10262 0.11248 0.0
H1280 H 0.67367 0.1964 0.22319 0.0
H1281 H 0.6461 0.15515 0.04435 0.0
H1282 H 0.6042 0.14004 0.15201 0.0
H1283 H 0.71677 0.20425 0.11739 0.0
C1284 C 0.73117 0.21757 0.16534 0.0
C1285 C 0.71956 0.21592 0.19554 0.0
C1286 C 0.61293 0.14416 0.12809 0.0
C1287 C 0.67145 0.18526 0.14606 0.0
C1288 C 0.5926 0.12325 0.10536 0.0
C1289 C 0.6045 0.12649 0.07499 0.0
C1290 C 0.64584 0.16767 0.12058 0.0
C1291 C 0.6357 0.15253 0.06729 0.0
C1292 C 0.70721 0.20253 0.14054 0.0
C1293 C 0.68369 0.19837 0.2002 0.0
N1294 N 0.65566 0.17174 0.09015 0.0
N1295 N 0.66096 0.18351 0.1758 0.0
H1296 H 0.71999 0.64851 0.82638 0.0
H1297 H 0.62747 0.62836 0.98619 0.0
H1298 H 0.70357 0.74116 0.8578 0.0
H1299 H 0.68172 0.5493 0.97034 0.0
H1300 H 0.65005 0.66935 0.93763 0.0
H1301 H 0.69789 0.60995 0.87586 0.0
C1302 C 0.71026 0.66051 0.84302 0.0
C1303 C 0.71223 0.69779 0.8374 0.0
C1304 C 0.65757 0.64331 0.94518 0.0
C1305 C 0.68883 0.65421 0.8951 0.0
C1306 C 0.64495 0.62001 0.97301 0.0
C1307 C 0.65291 0.58541 0.98247 0.0
C1308 C 0.67784 0.63172 0.92642 0.0
C1309 C 0.67526 0.57582 0.96423 0.0
C1310 C 0.69856 0.63864 0.87174 0.0
C1311 C 0.70165 0.71233 0.86101 0.0
N1312 N 0.68652 0.59868 0.93681 0.0
N1313 N 0.69023 0.69046 0.88888 0.0
H1314 H 0.52976 0.79876 0.88562 0.0
H1315 H 0.56178 0.61065 0.89193 0.0
H1316 H 0.50187 0.73746 0.8075 0.0
H1317 H 0.54121 0.65917 0.96779 0.0
H1318 H 0.58047 0.67133 0.85947 0.0
H1319 H 0.57933 0.76784 0.90777 0.0
C1320 C 0.534 0.77921 0.87267 0.0
C1321 C 0.50739 0.76573 0.84823 0.0
C1322 C 0.57296 0.6686 0.88369 0.0
C1323 C 0.56491 0.73223 0.87222 0.0
C1324 C 0.56166 0.6341 0.90189 0.0
C1325 C 0.54776 0.63014 0.9315 0.0
C1326 C 0.57045 0.69901 0.89546 0.0
C1327 C 0.5497 0.66115 0.94411 0.0
C1328 C 0.563 0.76212 0.88503 0.0
C1329 C 0.51819 0.74507 0.82946 0.0
N1330 N 0.56019 0.69428 0.92578 0.0
N1331 N 0.54535 0.72744 0.84274 0.0
H1332 H 0.31637 0.3556 0.84345 0.0
H1333 H 0.51029 0.4561 0.91812 0.0
H1334 H 0.41342 0.36626 0.80015 0.0
H1335 H 0.41082 0.48218 0.93079 0.0
H1336 H 0.47567 0.41761 0.87933 0.0
H1337 H 0.35085 0.39657 0.88016 0.0
C1338 C 0.34491 0.36671 0.84154 0.0
C1339 C 0.36195 0.35779 0.8184 0.0
C1340 C 0.46148 0.43187 0.89053 0.0
C1341 C 0.40173 0.40422 0.86078 0.0
C1342 C 0.48118 0.45371 0.91281 0.0
C1343 C 0.46347 0.4725 0.92776 0.0
C1344 C 0.42366 0.42812 0.88358 0.0
C1345 C 0.42567 0.46841 0.91975 0.0
C1346 C 0.36453 0.39017 0.86244 0.0
C1347 C 0.39902 0.37294 0.8171 0.0
N1348 N 0.40702 0.44647 0.89846 0.0
N1349 N 0.41775 0.39513 0.83818 0.0
H1350 H 0.70265 0.4745 0.80294 0.0
H1351 H 0.62053 0.41104 0.97339 0.0
H1352 H 0.67225 0.36209 0.84789 0.0
H1353 H 0.62096 0.51619 0.91239 0.0
H1354 H 0.64457 0.39334 0.93048 0.0
H1355 H 0.67784 0.49101 0.84566 0.0
C1356 C 0.69057 0.45319 0.82161 0.0
C1357 C 0.68946 0.41674 0.82152 0.0
C1358 C 0.63925 0.42022 0.92651 0.0
C1359 C 0.66157 0.43573 0.87113 0.0
C1360 C 0.62561 0.43038 0.95102 0.0
C1361 C 0.61856 0.46512 0.94651 0.0
C1362 C 0.64639 0.44513 0.89749 0.0
C1363 C 0.62565 0.48902 0.91692 0.0
C1364 C 0.67656 0.46272 0.84614 0.0
C1365 C 0.67423 0.39056 0.84704 0.0
N1366 N 0.63932 0.47864 0.89368 0.0
N1367 N 0.66095 0.40056 0.8708 0.0
H1368 H 0.58344 0.27777 0.22954 0.0
H1369 H 0.52782 0.41617 0.14825 0.0
H1370 H 0.54928 0.22619 0.1454 0.0
H1371 H 0.55116 0.36925 0.07253 0.0
H1372 H 0.50685 0.35504 0.17902 0.0
H1373 H 0.53668 0.31168 0.21101 0.0
C1374 C 0.56654 0.27347 0.20683 0.0
C1375 C 0.57572 0.25532 0.18485 0.0
C1376 C 0.51616 0.3582 0.1555 0.0
C1377 C 0.52071 0.2927 0.16458 0.0
C1378 C 0.52843 0.39299 0.13812 0.0
C1379 C 0.54339 0.39752 0.10891 0.0
C1380 C 0.51887 0.32809 0.14328 0.0
C1381 C 0.54187 0.36688 0.09594 0.0
C1382 C 0.53879 0.29254 0.19658 0.0
C1383 C 0.54777 0.24542 0.15991 0.0
N1384 N 0.53037 0.33355 0.1134 0.0
N1385 N 0.52238 0.26586 0.14913 0.0
H1386 H 0.67865 0.66777 0.23773 0.0
H1387 H 0.68045 0.54334 0.10979 0.0
H1388 H 0.7734 0.67258 0.1932 0.0
H1389 H 0.58265 0.57287 0.12218 0.0
H1390 H 0.7151 0.58239 0.14795 0.0
H1391 H 0.64328 0.62439 0.20336 0.0
C1392 C 0.69215 0.65925 0.22118 0.0
C1393 C 0.72906 0.6737 0.21843 0.0
C1394 C 0.68604 0.58025 0.14236 0.0
C1395 C 0.68882 0.6243 0.17903 0.0
C1396 C 0.6662 0.55787 0.12066 0.0
C1397 C 0.62856 0.55488 0.11262 0.0
C1398 C 0.66814 0.59943 0.15667 0.0
C1399 C 0.61165 0.57454 0.12745 0.0
C1400 C 0.67188 0.6348 0.20135 0.0
C1401 C 0.74498 0.66222 0.19605 0.0
N1402 N 0.63152 0.59584 0.14886 0.0
N1403 N 0.72485 0.63816 0.17734 0.0
H1404 H 0.41964 0.57811 0.24667 0.0
H1405 H 0.44666 0.60405 0.05809 0.0
H1406 H 0.3555 0.63395 0.16635 0.0
H1407 H 0.49188 0.52711 0.13469 0.0
H1408 H 0.4192 0.62112 0.09871 0.0
H1409 H 0.45162 0.56433 0.20708 0.0
C1410 C 0.41215 0.58742 0.22076 0.0
C1411 C 0.38462 0.60718 0.20995 0.0
C1412 C 0.43522 0.60058 0.10666 0.0
C1413 C 0.42172 0.59197 0.1645 0.0
C1414 C 0.4511 0.59086 0.08347 0.0
C1415 C 0.47157 0.56388 0.09283 0.0
C1416 C 0.43989 0.58344 0.13963 0.0
C1417 C 0.47621 0.54789 0.12621 0.0
C1418 C 0.4306 0.57968 0.19819 0.0
C1419 C 0.37678 0.61912 0.17601 0.0
N1420 N 0.46044 0.55786 0.14838 0.0
N1421 N 0.39518 0.61131 0.15458 0.0
H1422 H 0.36152 0.37837 0.21045 0.0
H1423 H 0.46361 0.39962 0.05598 0.0
H1424 H 0.37968 0.28609 0.17966 0.0
H1425 H 0.40755 0.4787 0.06887 0.0
H1426 H 0.4389 0.35861 0.10361 0.0
H1427 H 0.38708 0.4175 0.16266 0.0
C1428 C 0.3723 0.36654 0.19437 0.0
C1429 C 0.3697 0.32918 0.19959 0.0
C1430 C 0.43153 0.38468 0.09563 0.0
C1431 C 0.39723 0.37346 0.14384 0.0
C1432 C 0.44536 0.408 0.06833 0.0
C1433 C 0.43741 0.44257 0.05827 0.0
C1434 C 0.41004 0.39622 0.11328 0.0
C1435 C 0.41404 0.45219 0.07545 0.0
C1436 C 0.38603 0.38876 0.1666 0.0
C1437 C 0.38194 0.31494 0.17672 0.0
N1438 N 0.40155 0.4293 0.10238 0.0
N1439 N 0.39531 0.33713 0.14979 0.0
H1440 H 0.87359 0.66248 0.65483 0.0
H1441 H 0.94546 0.50689 0.60542 0.0
H1442 H 0.81114 0.55323 0.65876 0.0
H1443 H 1.00007 0.61895 0.59344 0.0
H1444 H 0.90094 0.52014 0.6342 0.0
H1445 H 0.92441 0.64407 0.64081 0.0
C1446 C 0.87065 0.63447 0.65309 0.0
C1447 C 0.83793 0.60939 0.65799 0.0
C1448 C 0.92314 0.54166 0.62592 0.0
C1449 C 0.89619 0.58815 0.64127 0.0
C1450 C 0.94874 0.53397 0.60996 0.0
C1451 C 0.97647 0.56187 0.59754 0.0
C1452 C 0.92548 0.57749 0.6292 0.0
C1453 C 0.97911 0.59675 0.60298 0.0
C1454 C 0.89971 0.62398 0.6449 0.0
C1455 C 0.83565 0.57359 0.65474 0.0
N1456 N 0.95378 0.60363 0.61819 0.0
N1457 N 0.86435 0.56406 0.64643 0.0
H1458 H 0.31356 0.80122 0.65544 0.0
H1459 H 0.4938 0.95809 0.64793 0.0
H1460 H 0.36133 0.85935 0.73395 0.0
H1461 H 0.43664 0.91557 0.5623 0.0
H1462 H 0.44612 0.92082 0.67971 0.0
H1463 H 0.35847 0.84132 0.62089 0.0
C1464 C 0.3337 0.82234 0.66538 0.0
C1465 C 0.33468 0.82629 0.69786 0.0
C1466 C 0.44379 0.9197 0.65394 0.0
C1467 C 0.38546 0.8728 0.65843 0.0
C1468 C 0.47116 0.94101 0.63568 0.0
C1469 C 0.46948 0.94011 0.60222 0.0
C1470 C 0.41431 0.89682 0.63894 0.0
C1471 C 0.43916 0.91735 0.58793 0.0
C1472 C 0.35914 0.84535 0.64565 0.0
C1473 C 0.36042 0.85478 0.70933 0.0
N1474 N 0.41296 0.89648 0.60638 0.0
N1475 N 0.38493 0.87669 0.68979 0.0
H1476 H 0.18647 0.28986 0.69737 0.0
H1477 H 0.17347 0.48392 0.60329 0.0
H1478 H 0.27419 0.37628 0.72316 0.0
H1479 H 0.08154 0.40868 0.64204 0.0
H1480 H 0.21412 0.44772 0.64042 0.0
H1481 H 0.15107 0.33414 0.66802 0.0
C1482 C 0.19856 0.3183 0.69646 0.0
C1483 C 0.23361 0.32925 0.71252 0.0
C1484 C 0.18516 0.43985 0.64153 0.0
C1485 C 0.19269 0.38052 0.67873 0.0
C1486 C 0.16197 0.46068 0.62066 0.0
C1487 C 0.12406 0.44988 0.62026 0.0
C1488 C 0.1702 0.40723 0.66118 0.0
C1489 C 0.11054 0.41859 0.6422 0.0
C1490 C 0.17813 0.34356 0.6799 0.0
C1491 C 0.24761 0.36661 0.71061 0.0
N1492 N 0.13344 0.39806 0.66119 0.0
N1493 N 0.2272 0.39102 0.69373 0.0
H1494 H 0.75749 0.16489 0.70083 0.0
H1495 H 0.59879 0.15817 0.56099 0.0
H1496 H 0.72386 0.26478 0.6557 0.0
H1497 H 0.68105 0.09663 0.5703 0.0
H1498 H 0.64162 0.19964 0.59353 0.0
H1499 H 0.72639 0.13896 0.65337 0.0
C1500 C 0.74349 0.18145 0.68105 0.0
C1501 C 0.74262 0.21691 0.68275 0.0
C1502 C 0.65057 0.17774 0.58742 0.0
C1503 C 0.70669 0.1871 0.62818 0.0
C1504 C 0.62631 0.15433 0.56865 0.0
C1505 C 0.6364 0.12378 0.56349 0.0
C1506 C 0.68456 0.16988 0.60121 0.0
C1507 C 0.67216 0.11964 0.57427 0.0
C1508 C 0.72597 0.16667 0.65377 0.0
C1509 C 0.72437 0.23706 0.65592 0.0
N1510 N 0.69467 0.14186 0.59332 0.0
N1511 N 0.70646 0.22165 0.62992 0.0
H1512 H 0.90421 0.32466 0.3209 0.0
H1513 H 0.92485 0.45577 0.44666 0.0
H1514 H 0.80911 0.33966 0.35372 0.0
H1515 H 1.00009 0.38737 0.45125 0.0
H1516 H 0.88351 0.42304 0.4059 0.0
H1517 H 0.94218 0.35794 0.36186 0.0
C1518 C 0.89122 0.3347 0.33679 0.0
C1519 C 0.8533 0.32887 0.33403 0.0
C1520 C 0.90905 0.41528 0.41616 0.0
C1521 C 0.89679 0.36822 0.38026 0.0
C1522 C 0.93257 0.43387 0.43934 0.0
C1523 C 0.96591 0.42421 0.45261 0.0
C1524 C 0.91954 0.38768 0.40572 0.0
C1525 C 0.97462 0.39569 0.44205 0.0
C1526 C 0.91295 0.35394 0.36002 0.0
C1527 C 0.83819 0.3437 0.35473 0.0
N1528 N 0.95182 0.37878 0.41909 0.0
N1529 N 0.85997 0.36284 0.37693 0.0
H1530 H 0.65041 0.82868 0.37526 0.0
H1531 H 0.63764 0.95849 0.49419 0.0
H1532 H 0.74335 0.87608 0.43773 0.0
H1533 H 0.55858 0.93976 0.40982 0.0
H1534 H 0.6755 0.9254 0.47632 0.0
H1535 H 0.6152 0.86672 0.38937 0.0
C1536 C 0.66366 0.84727 0.39163 0.0
C1537 C 0.70005 0.8487 0.40544 0.0
C1538 C 0.64996 0.92878 0.46164 0.0
C1539 C 0.6593 0.8919 0.42239 0.0
C1540 C 0.62828 0.94762 0.47186 0.0
C1541 C 0.5948 0.95205 0.45352 0.0
C1542 C 0.63788 0.9137 0.43313 0.0
C1543 C 0.58419 0.93725 0.42476 0.0
C1544 C 0.64336 0.86886 0.39987 0.0
C1545 C 0.71523 0.87315 0.42699 0.0
N1546 N 0.60545 0.91856 0.41565 0.0
N1547 N 0.69477 0.89345 0.43498 0.0
H1548 H 0.15885 0.71801 0.28479 0.0
H1549 H 0.14977 0.58772 0.45766 0.0
H1550 H 0.25665 0.72308 0.35352 0.0
H1551 H 0.06843 0.65011 0.41481 0.0
H1552 H 0.18897 0.62443 0.41618 0.0
H1553 H 0.1245 0.67926 0.32809 0.0
C1554 C 0.17324 0.71039 0.30889 0.0
C1555 C 0.21085 0.72319 0.31526 0.0
C1556 C 0.16261 0.63006 0.41617 0.0
C1557 C 0.17143 0.67872 0.36518 0.0
C1558 C 0.14019 0.60914 0.43972 0.0
C1559 C 0.10572 0.61591 0.43998 0.0
C1560 C 0.14998 0.65713 0.39207 0.0
C1561 C 0.09478 0.64397 0.41591 0.0
C1562 C 0.15356 0.68841 0.33361 0.0
C1563 C 0.2279 0.71298 0.34725 0.0
N1564 N 0.11652 0.66309 0.39284 0.0
N1565 N 0.20811 0.69108 0.37102 0.0
H1566 H 0.3025 0.16283 0.34466 0.0
H1567 H 0.50907 0.155 0.42055 0.0
H1568 H 0.39233 0.24208 0.30618 0.0
H1569 H 0.41558 0.0694 0.43942 0.0
H1570 H 0.46842 0.19296 0.38544 0.0
H1571 H 0.34481 0.13434 0.386 0.0
C1572 C 0.33128 0.17454 0.34523 0.0
C1573 C 0.34375 0.20528 0.32226 0.0
C1574 C 0.45688 0.16603 0.39766 0.0
C1575 C 0.39312 0.17191 0.36949 0.0
C1576 C 0.48002 0.14452 0.41798 0.0
C1577 C 0.46571 0.10894 0.43306 0.0
C1578 C 0.4192 0.15193 0.39275 0.0
C1579 C 0.42789 0.09657 0.42832 0.0
C1580 C 0.35555 0.15815 0.36885 0.0
C1581 C 0.38149 0.21888 0.32388 0.0
N1582 N 0.4062 0.11784 0.40871 0.0
N1583 N 0.40489 0.20205 0.34704 0.0
H1584 H 0.77444 0.85765 0.68487 0.0
H1585 H 0.57007 0.8739 0.60868 0.0
H1586 H 0.68282 0.78445 0.72629 0.0
H1587 H 0.6656 0.95811 0.59385 0.0
H1588 H 0.60896 0.83402 0.64362 0.0
H1589 H 0.7332 0.88709 0.64305 0.0
C1590 C 0.74546 0.84734 0.68476 0.0
C1591 C 0.73215 0.81813 0.70881 0.0
C1592 C 0.62132 0.86108 0.63233 0.0
C1593 C 0.68415 0.85276 0.66113 0.0
C1594 C 0.59921 0.88371 0.61214 0.0
C1595 C 0.61461 0.91944 0.59823 0.0
C1596 C 0.6591 0.87415 0.63815 0.0
C1597 C 0.65247 0.93088 0.60404 0.0
C1598 C 0.72184 0.86434 0.66092 0.0
C1599 C 0.69425 0.80637 0.70776 0.0
N1600 N 0.67319 0.90848 0.62339 0.0
N1601 N 0.67151 0.82384 0.6844 0.0
H1602 H 0.72073 0.17355 0.29529 0.0
H1603 H 0.64372 0.11502 0.46955 0.0
H1604 H 0.76304 0.23175 0.37461 0.0
H1605 H 0.58868 0.07408 0.38257 0.0
H1606 H 0.69096 0.154 0.43729 0.0
H1607 H 0.67576 0.13281 0.32891 0.0
C1608 C 0.72021 0.17791 0.31973 0.0
C1609 C 0.7448 0.20666 0.3319 0.0
C1610 C 0.66858 0.1364 0.42533 0.0
C1611 C 0.69387 0.15973 0.37092 0.0
C1612 C 0.64164 0.11396 0.44378 0.0
C1613 C 0.61195 0.09112 0.42885 0.0
C1614 C 0.66618 0.13581 0.39171 0.0
C1615 C 0.61082 0.09123 0.39524 0.0
C1616 C 0.69464 0.15461 0.33899 0.0
C1617 C 0.74388 0.21042 0.36411 0.0
N1618 N 0.63742 0.11308 0.37794 0.0
N1619 N 0.71869 0.1874 0.38245 0.0
H1620 H 0.91145 0.74703 0.32218 0.0
H1621 H 0.90781 0.55465 0.42978 0.0
H1622 H 0.81534 0.66429 0.30784 0.0
H1623 H 1.0037 0.61747 0.38818 0.0
H1624 H 0.87132 0.59346 0.39063 0.0
H1625 H 0.94385 0.70074 0.35319 0.0
C1626 C 0.89697 0.71907 0.32587 0.0
C1627 C 0.86032 0.70974 0.31285 0.0
C1628 C 0.90015 0.59805 0.38943 0.0
C1629 C 0.89766 0.6562 0.34858 0.0
C1630 C 0.92096 0.57571 0.41151 0.0
C1631 C 0.95879 0.58221 0.41169 0.0
C1632 C 0.91749 0.62802 0.36819 0.0
C1633 C 0.97458 0.61083 0.38835 0.0
C1634 C 0.91564 0.69262 0.3434 0.0
C1635 C 0.84324 0.67287 0.31816 0.0
N1636 N 0.95404 0.63305 0.36807 0.0
N1637 N 0.86191 0.64745 0.336 0.0
H1638 H 0.35611 0.75773 0.37618 0.0
H1639 H 0.48581 0.87028 0.47387 0.0
H1640 H 0.34072 0.86401 0.327 0.0
H1641 H 0.40219 0.93203 0.454 0.0
H1642 H 0.44618 0.82681 0.44144 0.0
H1643 H 0.38952 0.78381 0.42378 0.0
C1644 C 0.35992 0.78646 0.37518 0.0
C1645 C 0.34611 0.80879 0.34716 0.0
C1646 C 0.4361 0.84915 0.44532 0.0
C1647 C 0.38276 0.83818 0.40177 0.0
C1648 C 0.45858 0.87381 0.46392 0.0
C1649 C 0.44733 0.90496 0.4661 0.0
C1650 C 0.40266 0.85626 0.42887 0.0
C1651 C 0.41205 0.90862 0.4524 0.0
C1652 C 0.37878 0.80117 0.40241 0.0
C1653 C 0.35097 0.84565 0.34774 0.0
N1654 N 0.39136 0.88514 0.43361 0.0
N1655 N 0.36862 0.85905 0.37465 0.0
H1656 H 0.28049 0.43343 0.42274 0.0
H1657 H 0.07647 0.45591 0.39988 0.0
H1658 H 0.20965 0.41936 0.33261 0.0
H1659 H 0.16034 0.49643 0.47324 0.0
H1660 H 0.12339 0.4442 0.37253 0.0
H1661 H 0.23562 0.4572 0.4403 0.0
C1662 C 0.25572 0.43574 0.40632 0.0
C1663 C 0.24924 0.42447 0.37594 0.0
C1664 C 0.13149 0.45638 0.39421 0.0
C1665 C 0.19667 0.45107 0.39659 0.0
C1666 C 0.10481 0.46333 0.40957 0.0
C1667 C 0.11477 0.47702 0.43878 0.0
C1668 C 0.16801 0.46302 0.4085 0.0
C1669 C 0.15166 0.48566 0.4508 0.0
C1670 C 0.22986 0.44923 0.41652 0.0
C1671 C 0.21581 0.42722 0.35642 0.0
N1672 N 0.17683 0.47817 0.43586 0.0
N1673 N 0.19066 0.44001 0.36717 0.0
H1674 H 0.44273 0.20781 0.65668 0.0
H1675 H 0.44768 0.07777 0.53493 0.0
H1676 H 0.35111 0.17349 0.58658 0.0
H1677 H 0.52435 0.0888 0.62222 0.0
H1678 H 0.41272 0.11427 0.55204 0.0
H1679 H 0.47367 0.16549 0.64357 0.0
C1680 C 0.42883 0.19117 0.63883 0.0
C1681 C 0.39419 0.1947 0.6226 0.0
C1682 C 0.43706 0.10844 0.56754 0.0
C1683 C 0.43011 0.1465 0.60686 0.0
C1684 C 0.45707 0.08758 0.55777 0.0
C1685 C 0.48912 0.08008 0.57709 0.0
C1686 C 0.44937 0.12235 0.59664 0.0
C1687 C 0.49985 0.09371 0.60646 0.0
C1688 C 0.4467 0.16711 0.63118 0.0
C1689 C 0.37807 0.17255 0.59926 0.0
N1690 N 0.48025 0.11433 0.61515 0.0
N1691 N 0.39622 0.14973 0.59193 0.0
H1692 H 0.82732 0.29299 0.67853 0.0
H1693 H 0.9811 0.45826 0.61972 0.0
H1694 H 0.9191 0.32656 0.74834 0.0
H1695 H 0.96229 0.36601 0.57289 0.0
H1696 H 0.94257 0.4218 0.66133 0.0
H1697 H 0.86099 0.33108 0.63365 0.0
C1698 C 0.85423 0.30882 0.68445 0.0
C1699 C 0.87025 0.30702 0.71731 0.0
C1700 C 0.94658 0.40975 0.64169 0.0
C1701 C 0.90862 0.35056 0.66623 0.0
C1702 C 0.96833 0.43052 0.61781 0.0
C1703 C 0.97485 0.41527 0.59259 0.0
C1704 C 0.93023 0.3736 0.64 0.0
C1705 C 0.95806 0.37887 0.59186 0.0
C1706 C 0.87348 0.33023 0.65886 0.0
C1707 C 0.90562 0.32744 0.72344 0.0
N1708 N 0.93628 0.35935 0.61503 0.0
N1709 N 0.92337 0.34869 0.69828 0.0
H1710 H 0.24019 0.6528 0.71808 0.0
H1711 H 0.1073 0.66017 0.54896 0.0
H1712 H 0.20958 0.75026 0.66209 0.0
H1713 H 0.13955 0.56265 0.60384 0.0
H1714 H 0.14772 0.69418 0.58815 0.0
H1715 H 0.20556 0.61972 0.67548 0.0
C1716 C 0.22633 0.66722 0.6966 0.0
C1717 C 0.22798 0.70425 0.69326 0.0
C1718 C 0.14627 0.66542 0.59151 0.0
C1719 C 0.18783 0.66668 0.64463 0.0
C1720 C 0.12329 0.64594 0.56903 0.0
C1721 C 0.11977 0.60838 0.57323 0.0
C1722 C 0.16585 0.64728 0.61861 0.0
C1723 C 0.1414 0.59154 0.59958 0.0
C1724 C 0.2064 0.64834 0.67238 0.0
C1725 C 0.20863 0.7216 0.6656 0.0
N1726 N 0.16323 0.61106 0.62148 0.0
N1727 N 0.18937 0.70266 0.64225 0.0
loop_
_geom_bond_atom_site_label_1
_geom_bond_atom_site_label_2
_geom_bond_distance
_geom_bond_site_symmetry_2
_ccdc_geom_bond_type
Eu0 N31 2.657 . S
Eu0 N38 2.609 . S
Eu0 O44 2.558 . S
Eu0 O45 2.612 . S
Eu0 O47 2.339 . S
Eu0 O48 2.563 . S
Eu0 O49 2.419 . S
Eu0 O51 2.380 . S
Eu0 O52 2.432 . S
Eu0 C64 2.848 . S
C1 C4 1.429 . S
C1 C5 1.411 . S
C1 N8 1.377 . S
C2 C4 1.420 . S
C2 C6 1.423 . S
C2 C14 1.392 . S
C3 C5 1.420 . S
C3 C6 1.351 . S
C3 H26 0.931 . S
C4 C1 1.429 . S
C4 C2 1.420 . S
C4 N12 1.362 . S
C5 C1 1.411 . S
C5 C3 1.420 . S
C5 C10 1.395 . S
C6 C2 1.423 . S
C6 C3 1.351 . S
C6 H18 0.930 . S
C7 C9 1.400 . S
C7 C10 1.386 . S
C7 H19 0.930 . S
N8 C1 1.377 . S
N8 C9 1.321 . S
N8 Eu11 2.609 . S
C9 C7 1.400 . S
C9 N8 1.321 . S
C9 H16 0.930 . S
C10 C5 1.395 . S
C10 C7 1.386 . S
C10 H29 0.930 . S
Eu11 N8 2.609 . S
Eu11 N12 2.657 . S
Eu11 O45 2.380 . S
Eu11 O46 2.432 . S
Eu11 O50 2.558 . S
Eu11 O51 2.612 . S
Eu11 O53 2.339 . S
Eu11 O54 2.563 . S
Eu11 O55 2.419 . S
Eu11 C75 2.848 . S
N12 C4 1.362 . S
N12 Eu11 2.657 . S
N12 C13 1.334 . S
C13 N12 1.334 . S
C13 C15 1.413 . S
C13 H20 0.929 . S
C14 C2 1.392 . S
C14 C15 1.367 . S
C14 H22 0.930 . S
C15 C13 1.413 . S
C15 C14 1.367 . S
C15 H17 0.930 . S
H16 C9 0.930 . S
H17 C15 0.930 . S
H18 C6 0.930 . S
H19 C7 0.930 . S
H20 C13 0.929 . S
H21 C35 0.930 . S
H22 C14 0.930 . S
H23 C41 0.930 . S
H24 C32 0.929 . S
H25 C39 0.930 . S
H26 C3 0.931 . S
H27 C33 0.930 . S
H28 C66 0.930 . S
H29 C10 0.930 . S
H30 C65 0.931 . S
N31 Eu0 2.657 . S
N31 C32 1.334 . S
N31 C36 1.362 . S
C32 H24 0.929 . S
C32 N31 1.334 . S
C32 C35 1.413 . S
C33 H27 0.930 . S
C33 C34 1.392 . S
C33 C35 1.367 . S
C34 C33 1.392 . S
C34 C36 1.420 . S
C34 C66 1.423 . S
C35 H21 0.930 . S
C35 C32 1.413 . S
C35 C33 1.367 . S
C36 N31 1.362 . S
C36 C34 1.420 . S
C36 C40 1.429 . S
H37 C42 0.930 . S
N38 Eu0 2.609 . S
N38 C40 1.377 . S
N38 C41 1.321 . S
C39 H25 0.930 . S
C39 C41 1.400 . S
C39 C42 1.386 . S
C40 C36 1.429 . S
C40 N38 1.377 . S
C40 C43 1.411 . S
C41 H23 0.930 . S
C41 N38 1.321 . S
C41 C39 1.400 . S
C42 H37 0.930 . S
C42 C39 1.386 . S
C42 C43 1.395 . S
C43 C40 1.411 . S
C43 C42 1.395 . S
C43 C65 1.420 . S
O44 Eu0 2.558 . S
O44 C64 1.257 . S
O45 Eu0 2.612 . S
O45 Eu11 2.380 . S
O45 C56 1.276 . S
O46 Eu11 2.432 . S
O46 C63 1.264 . S
O47 Eu0 2.339 . S
O47 C63 1.254 . S
O48 Eu0 2.563 . S
O48 C56 1.235 . S
O49 Eu0 2.419 . S
O49 C64 1.249 . S
O50 Eu11 2.558 . S
O50 C75 1.257 . S
O51 Eu0 2.380 . S
O51 Eu11 2.612 . S
O51 C67 1.276 . S
O52 Eu0 2.432 . S
O52 C74 1.264 . S
O53 Eu11 2.339 . S
O53 C74 1.254 . S
O54 Eu11 2.563 . S
O54 C67 1.235 . S
O55 Eu11 2.419 . S
O55 C75 1.249 . S
C56 O45 1.276 . S
C56 O48 1.235 . S
C57 C59 1.393 . S
C57 C61 1.395 . S
C57 C64 1.492 . S
C58 C59 1.392 . S
C58 C60 1.386 . S
C59 C57 1.393 . S
C59 C58 1.392 . S
C59 H76 0.930 . S
C60 C58 1.386 . S
C60 C62 1.395 . S
C60 H77 0.930 . S
C61 C57 1.395 . S
C61 C62 1.379 . S
C61 H78 0.930 . S
C62 C60 1.395 . S
C62 C61 1.379 . S
C62 H79 0.930 . S
C63 O46 1.264 . S
C63 O47 1.254 . S
C64 Eu0 2.848 . S
C64 O44 1.257 . S
C64 O49 1.249 . S
C64 C57 1.492 . S
C65 H30 0.931 . S
C65 C43 1.420 . S
C65 C66 1.351 . S
C66 H28 0.930 . S
C66 C34 1.423 . S
C66 C65 1.351 . S
C67 O51 1.276 . S
C67 O54 1.235 . S
C68 C69 1.393 . S
C68 C72 1.395 . S
C68 C75 1.492 . S
C69 C68 1.393 . S
C69 C70 1.392 . S
C69 H80 0.930 . S
C70 C69 1.392 . S
C70 C71 1.386 . S
C71 C70 1.386 . S
C71 C73 1.395 . S
C71 H81 0.930 . S
C72 C68 1.395 . S
C72 C73 1.379 . S
C72 H82 0.930 . S
C73 C71 1.395 . S
C73 C72 1.379 . S
C73 H83 0.930 . S
C74 O52 1.264 . S
C74 O53 1.254 . S
C75 Eu11 2.848 . S
C75 O50 1.257 . S
C75 O55 1.249 . S
C75 C68 1.492 . S
H76 C59 0.930 . S
H77 C60 0.930 . S
H78 C61 0.930 . S
H79 C62 0.930 . S
H80 C69 0.930 . S
H81 C71 0.930 . S
H82 C72 0.930 . S
H83 C73 0.930 . S
Eu84 N115 2.657 . S
Eu84 N122 2.609 . S
Eu84 O128 2.558 . S
Eu84 O129 2.612 . S
Eu84 O131 2.339 . S
Eu84 O132 2.563 . S
Eu84 O133 2.419 . S
Eu84 O135 2.380 . S
Eu84 O136 2.432 . S
Eu84 C148 2.848 . S
C85 C88 1.429 . S
C85 C89 1.411 . S
C85 N92 1.377 . S
C86 C88 1.420 . S
C86 C90 1.423 . S
C86 C98 1.392 . S
C87 C89 1.420 . S
C87 C90 1.351 . S
C87 H110 0.931 . S
C88 C85 1.429 . S
C88 C86 1.420 . S
C88 N96 1.362 . S
C89 C85 1.411 . S
C89 C87 1.420 . S
C89 C94 1.395 . S
C90 C86 1.423 . S
C90 C87 1.351 . S
C90 H102 0.930 . S
C91 C93 1.400 . S
C91 C94 1.386 . S
C91 H103 0.930 . S
N92 C85 1.377 . S
N92 C93 1.321 . S
N92 Eu95 2.609 . S
C93 C91 1.400 . S
C93 N92 1.321 . S
C93 H100 0.930 . S
C94 C89 1.395 . S
C94 C91 1.386 . S
C94 H113 0.930 . S
Eu95 N92 2.609 . S
Eu95 N96 2.657 . S
Eu95 O129 2.380 . S
Eu95 O130 2.432 . S
Eu95 O134 2.558 . S
Eu95 O135 2.612 . S
Eu95 O137 2.339 . S
Eu95 O138 2.563 . S
Eu95 O139 2.419 . S
Eu95 C159 2.848 . S
N96 C88 1.362 . S
N96 Eu95 2.657 . S
N96 C97 1.334 . S
C97 N96 1.334 . S
C97 C99 1.413 . S
C97 H104 0.929 . S
C98 C86 1.392 . S
C98 C99 1.367 . S
C98 H106 0.930 . S
C99 C97 1.413 . S
C99 C98 1.367 . S
C99 H101 0.930 . S
H100 C93 0.930 . S
H101 C99 0.930 . S
H102 C90 0.930 . S
H103 C91 0.930 . S
H104 C97 0.929 . S
H105 C119 0.930 . S
H106 C98 0.930 . S
H107 C125 0.930 . S
H108 C116 0.929 . S
H109 C123 0.930 . S
H110 C87 0.931 . S
H111 C117 0.930 . S
H112 C150 0.930 . S
H113 C94 0.930 . S
H114 C149 0.931 . S
N115 Eu84 2.657 . S
N115 C116 1.334 . S
N115 C120 1.362 . S
C116 H108 0.929 . S
C116 N115 1.334 . S
C116 C119 1.413 . S
C117 H111 0.930 . S
C117 C118 1.392 . S
C117 C119 1.367 . S
C118 C117 1.392 . S
C118 C120 1.420 . S
C118 C150 1.423 . S
C119 H105 0.930 . S
C119 C116 1.413 . S
C119 C117 1.367 . S
C120 N115 1.362 . S
C120 C118 1.420 . S
C120 C124 1.429 . S
H121 C126 0.930 . S
N122 Eu84 2.609 . S
N122 C124 1.377 . S
N122 C125 1.321 . S
C123 H109 0.930 . S
C123 C125 1.400 . S
C123 C126 1.386 . S
C124 C120 1.429 . S
C124 N122 1.377 . S
C124 C127 1.411 . S
C125 H107 0.930 . S
C125 N122 1.321 . S
C125 C123 1.400 . S
C126 H121 0.930 . S
C126 C123 1.386 . S
C126 C127 1.395 . S
C127 C124 1.411 . S
C127 C126 1.395 . S
C127 C149 1.420 . S
O128 Eu84 2.558 . S
O128 C148 1.257 . S
O129 Eu84 2.612 . S
O129 Eu95 2.380 . S
O129 C140 1.276 . S
O130 Eu95 2.432 . S
O130 C147 1.264 . S
O131 Eu84 2.339 . S
O131 C147 1.254 . S
O132 Eu84 2.563 . S
O132 C140 1.235 . S
O133 Eu84 2.419 . S
O133 C148 1.249 . S
O134 Eu95 2.558 . S
O134 C159 1.257 . S
O135 Eu84 2.380 . S
O135 Eu95 2.612 . S
O135 C151 1.276 . S
O136 Eu84 2.432 . S
O136 C158 1.264 . S
O137 Eu95 2.339 . S
O137 C158 1.254 . S
O138 Eu95 2.563 . S
O138 C151 1.235 . S
O139 Eu95 2.419 . S
O139 C159 1.249 . S
C140 O129 1.276 . S
C140 O132 1.235 . S
C141 C143 1.393 . S
C141 C145 1.395 . S
C141 C148 1.492 . S
C142 C143 1.392 . S
C142 C144 1.386 . S
C143 C141 1.393 . S
C143 C142 1.392 . S
C143 H160 0.930 . S
C144 C142 1.386 . S
C144 C146 1.395 . S
C144 H161 0.930 . S
C145 C141 1.395 . S
C145 C146 1.379 . S
C145 H162 0.930 . S
C146 C144 1.395 . S
C146 C145 1.379 . S
C146 H163 0.930 . S
C147 O130 1.264 . S
C147 O131 1.254 . S
C148 Eu84 2.848 . S
C148 O128 1.257 . S
C148 O133 1.249 . S
C148 C141 1.492 . S
C149 H114 0.931 . S
C149 C127 1.420 . S
C149 C150 1.351 . S
C150 H112 0.930 . S
C150 C118 1.423 . S
C150 C149 1.351 . S
C151 O135 1.276 . S
C151 O138 1.235 . S
C152 C153 1.393 . S
C152 C156 1.395 . S
C152 C159 1.492 . S
C153 C152 1.393 . S
C153 C154 1.392 . S
C153 H164 0.930 . S
C154 C153 1.392 . S
C154 C155 1.386 . S
C155 C154 1.386 . S
C155 C157 1.395 . S
C155 H165 0.930 . S
C156 C152 1.395 . S
C156 C157 1.379 . S
C156 H166 0.930 . S
C157 C155 1.395 . S
C157 C156 1.379 . S
C157 H167 0.930 . S
C158 O136 1.264 . S
C158 O137 1.254 . S
C159 Eu95 2.848 . S
C159 O134 1.257 . S
C159 O139 1.249 . S
C159 C152 1.492 . S
H160 C143 0.930 . S
H161 C144 0.930 . S
H162 C145 0.930 . S
H163 C146 0.930 . S
H164 C153 0.930 . S
H165 C155 0.930 . S
H166 C156 0.930 . S
H167 C157 0.930 . S
Eu168 N199 2.657 . S
Eu168 N206 2.609 . S
Eu168 O212 2.558 . S
Eu168 O213 2.612 . S
Eu168 O215 2.339 . S
Eu168 O216 2.563 . S
Eu168 O217 2.419 . S
Eu168 O219 2.380 . S
Eu168 O220 2.432 . S
Eu168 C232 2.848 . S
C169 C172 1.429 . S
C169 C173 1.411 . S
C169 N176 1.377 . S
C170 C172 1.420 . S
C170 C174 1.423 . S
C170 C182 1.392 . S
C171 C173 1.420 . S
C171 C174 1.351 . S
C171 H194 0.931 . S
C172 C169 1.429 . S
C172 C170 1.420 . S
C172 N180 1.362 . S
C173 C169 1.411 . S
C173 C171 1.420 . S
C173 C178 1.395 . S
C174 C170 1.423 . S
C174 C171 1.351 . S
C174 H186 0.930 . S
C175 C177 1.400 . S
C175 C178 1.386 . S
C175 H187 0.930 . S
N176 C169 1.377 . S
N176 C177 1.321 . S
N176 Eu179 2.609 . S
C177 C175 1.400 . S
C177 N176 1.321 . S
C177 H184 0.930 . S
C178 C173 1.395 . S
C178 C175 1.386 . S
C178 H197 0.930 . S
Eu179 N176 2.609 . S
Eu179 N180 2.657 . S
Eu179 O213 2.380 . S
Eu179 O214 2.432 . S
Eu179 O218 2.558 . S
Eu179 O219 2.612 . S
Eu179 O221 2.339 . S
Eu179 O222 2.563 . S
Eu179 O223 2.419 . S
Eu179 C243 2.848 . S
N180 C172 1.362 . S
N180 Eu179 2.657 . S
N180 C181 1.334 . S
C181 N180 1.334 . S
C181 C183 1.413 . S
C181 H188 0.929 . S
C182 C170 1.392 . S
C182 C183 1.367 . S
C182 H190 0.930 . S
C183 C181 1.413 . S
C183 C182 1.367 . S
C183 H185 0.930 . S
H184 C177 0.930 . S
H185 C183 0.930 . S
H186 C174 0.930 . S
H187 C175 0.930 . S
H188 C181 0.929 . S
H189 C203 0.930 . S
H190 C182 0.930 . S
H191 C209 0.930 . S
H192 C200 0.929 . S
H193 C207 0.930 . S
H194 C171 0.931 . S
H195 C201 0.930 . S
H196 C234 0.930 . S
H197 C178 0.930 . S
H198 C233 0.931 . S
N199 Eu168 2.657 . S
N199 C200 1.334 . S
N199 C204 1.362 . S
C200 H192 0.929 . S
C200 N199 1.334 . S
C200 C203 1.413 . S
C201 H195 0.930 . S
C201 C202 1.392 . S
C201 C203 1.367 . S
C202 C201 1.392 . S
C202 C204 1.420 . S
C202 C234 1.423 . S
C203 H189 0.930 . S
C203 C200 1.413 . S
C203 C201 1.367 . S
C204 N199 1.362 . S
C204 C202 1.420 . S
C204 C208 1.429 . S
H205 C210 0.930 . S
N206 Eu168 2.609 . S
N206 C208 1.377 . S
N206 C209 1.321 . S
C207 H193 0.930 . S
C207 C209 1.400 . S
C207 C210 1.386 . S
C208 C204 1.429 . S
C208 N206 1.377 . S
C208 C211 1.411 . S
C209 H191 0.930 . S
C209 N206 1.321 . S
C209 C207 1.400 . S
C210 H205 0.930 . S
C210 C207 1.386 . S
C210 C211 1.395 . S
C211 C208 1.411 . S
C211 C210 1.395 . S
C211 C233 1.420 . S
O212 Eu168 2.558 . S
O212 C232 1.257 . S
O213 Eu168 2.612 . S
O213 Eu179 2.380 . S
O213 C224 1.276 . S
O214 Eu179 2.432 . S
O214 C231 1.264 . S
O215 Eu168 2.339 . S
O215 C231 1.254 . S
O216 Eu168 2.563 . S
O216 C224 1.235 . S
O217 Eu168 2.419 . S
O217 C232 1.249 . S
O218 Eu179 2.558 . S
O218 C243 1.257 . S
O219 Eu168 2.380 . S
O219 Eu179 2.612 . S
O219 C235 1.276 . S
O220 Eu168 2.432 . S
O220 C242 1.264 . S
O221 Eu179 2.339 . S
O221 C242 1.254 . S
O222 Eu179 2.563 . S
O222 C235 1.235 . S
O223 Eu179 2.419 . S
O223 C243 1.249 . S
C224 O213 1.276 . S
C224 O216 1.235 . S
C225 C227 1.393 . S
C225 C229 1.395 . S
C225 C232 1.492 . S
C226 C227 1.392 . S
C226 C228 1.386 . S
C227 C225 1.393 . S
C227 C226 1.392 . S
C227 H244 0.930 . S
C228 C226 1.386 . S
C228 C230 1.395 . S
C228 H245 0.930 . S
C229 C225 1.395 . S
C229 C230 1.379 . S
C229 H246 0.930 . S
C230 C228 1.395 . S
C230 C229 1.379 . S
C230 H247 0.930 . S
C231 O214 1.264 . S
C231 O215 1.254 . S
C232 Eu168 2.848 . S
C232 O212 1.257 . S
C232 O217 1.249 . S
C232 C225 1.492 . S
C233 H198 0.931 . S
C233 C211 1.420 . S
C233 C234 1.351 . S
C234 H196 0.930 . S
C234 C202 1.423 . S
C234 C233 1.351 . S
C235 O219 1.276 . S
C235 O222 1.235 . S
C236 C237 1.393 . S
C236 C240 1.395 . S
C236 C243 1.492 . S
C237 C236 1.393 . S
C237 C238 1.392 . S
C237 H248 0.930 . S
C238 C237 1.392 . S
C238 C239 1.386 . S
C239 C238 1.386 . S
C239 C241 1.395 . S
C239 H249 0.930 . S
C240 C236 1.395 . S
C240 C241 1.379 . S
C240 H250 0.930 . S
C241 C239 1.395 . S
C241 C240 1.379 . S
C241 H251 0.930 . S
C242 O220 1.264 . S
C242 O221 1.254 . S
C243 Eu179 2.848 . S
C243 O218 1.257 . S
C243 O223 1.249 . S
C243 C236 1.492 . S
H244 C227 0.930 . S
H245 C228 0.930 . S
H246 C229 0.930 . S
H247 C230 0.930 . S
H248 C237 0.930 . S
H249 C239 0.930 . S
H250 C240 0.930 . S
H251 C241 0.930 . S
Eu252 N283 2.657 . S
Eu252 N290 2.609 . S
Eu252 O296 2.558 . S
Eu252 O297 2.612 . S
Eu252 O299 2.339 . S
Eu252 O300 2.563 . S
Eu252 O301 2.419 . S
Eu252 O303 2.380 . S
Eu252 O304 2.432 . S
Eu252 C316 2.848 . S
C253 C256 1.429 . S
C253 C257 1.411 . S
C253 N260 1.377 . S
C254 C256 1.420 . S
C254 C258 1.423 . S
C254 C266 1.392 . S
C255 C257 1.420 . S
C255 C258 1.351 . S
C255 H278 0.931 . S
C256 C253 1.429 . S
C256 C254 1.420 . S
C256 N264 1.362 . S
C257 C253 1.411 . S
C257 C255 1.420 . S
C257 C262 1.395 . S
C258 C254 1.423 . S
C258 C255 1.351 . S
C258 H270 0.930 . S
C259 C261 1.400 . S
C259 C262 1.386 . S
C259 H271 0.930 . S
N260 C253 1.377 . S
N260 C261 1.321 . S
N260 Eu263 2.609 . S
C261 C259 1.400 . S
C261 N260 1.321 . S
C261 H268 0.930 . S
C262 C257 1.395 . S
C262 C259 1.386 . S
C262 H281 0.930 . S
Eu263 N260 2.609 . S
Eu263 N264 2.657 . S
Eu263 O297 2.380 . S
Eu263 O298 2.432 . S
Eu263 O302 2.558 . S
Eu263 O303 2.612 . S
Eu263 O305 2.339 . S
Eu263 O306 2.563 . S
Eu263 O307 2.419 . S
Eu263 C327 2.848 . S
N264 C256 1.362 . S
N264 Eu263 2.657 . S
N264 C265 1.334 . S
C265 N264 1.334 . S
C265 C267 1.413 . S
C265 H272 0.929 . S
C266 C254 1.392 . S
C266 C267 1.367 . S
C266 H274 0.930 . S
C267 C265 1.413 . S
C267 C266 1.367 . S
C267 H269 0.930 . S
H268 C261 0.930 . S
H269 C267 0.930 . S
H270 C258 0.930 . S
H271 C259 0.930 . S
H272 C265 0.929 . S
H273 C287 0.930 . S
H274 C266 0.930 . S
H275 C293 0.930 . S
H276 C284 0.929 . S
H277 C291 0.930 . S
H278 C255 0.931 . S
H279 C285 0.930 . S
H280 C318 0.930 . S
H281 C262 0.930 . S
H282 C317 0.931 . S
N283 Eu252 2.657 . S
N283 C284 1.334 . S
N283 C288 1.362 . S
C284 H276 0.929 . S
C284 N283 1.334 . S
C284 C287 1.413 . S
C285 H279 0.930 . S
C285 C286 1.392 . S
C285 C287 1.367 . S
C286 C285 1.392 . S
C286 C288 1.420 . S
C286 C318 1.423 . S
C287 H273 0.930 . S
C287 C284 1.413 . S
C287 C285 1.367 . S
C288 N283 1.362 . S
C288 C286 1.420 . S
C288 C292 1.429 . S
H289 C294 0.930 . S
N290 Eu252 2.609 . S
N290 C292 1.377 . S
N290 C293 1.321 . S
C291 H277 0.930 . S
C291 C293 1.400 . S
C291 C294 1.386 . S
C292 C288 1.429 . S
C292 N290 1.377 . S
C292 C295 1.411 . S
C293 H275 0.930 . S
C293 N290 1.321 . S
C293 C291 1.400 . S
C294 H289 0.930 . S
C294 C291 1.386 . S
C294 C295 1.395 . S
C295 C292 1.411 . S
C295 C294 1.395 . S
C295 C317 1.420 . S
O296 Eu252 2.558 . S
O296 C316 1.257 . S
O297 Eu252 2.612 . S
O297 Eu263 2.380 . S
O297 C308 1.276 . S
O298 Eu263 2.432 . S
O298 C315 1.264 . S
O299 Eu252 2.339 . S
O299 C315 1.254 . S
O300 Eu252 2.563 . S
O300 C308 1.235 . S
O301 Eu252 2.419 . S
O301 C316 1.249 . S
O302 Eu263 2.558 . S
O302 C327 1.257 . S
O303 Eu252 2.380 . S
O303 Eu263 2.612 . S
O303 C319 1.276 . S
O304 Eu252 2.432 . S
O304 C326 1.264 . S
O305 Eu263 2.339 . S
O305 C326 1.254 . S
O306 Eu263 2.563 . S
O306 C319 1.235 . S
O307 Eu263 2.419 . S
O307 C327 1.249 . S
C308 O297 1.276 . S
C308 O300 1.235 . S
C309 C311 1.393 . S
C309 C313 1.395 . S
C309 C316 1.492 . S
C310 C311 1.392 . S
C310 C312 1.386 . S
C311 C309 1.393 . S
C311 C310 1.392 . S
C311 H328 0.930 . S
C312 C310 1.386 . S
C312 C314 1.395 . S
C312 H329 0.930 . S
C313 C309 1.395 . S
C313 C314 1.379 . S
C313 H330 0.930 . S
C314 C312 1.395 . S
C314 C313 1.379 . S
C314 H331 0.930 . S
C315 O298 1.264 . S
C315 O299 1.254 . S
C316 Eu252 2.848 . S
C316 O296 1.257 . S
C316 O301 1.249 . S
C316 C309 1.492 . S
C317 H282 0.931 . S
C317 C295 1.420 . S
C317 C318 1.351 . S
C318 H280 0.930 . S
C318 C286 1.423 . S
C318 C317 1.351 . S
C319 O303 1.276 . S
C319 O306 1.235 . S
C320 C321 1.393 . S
C320 C324 1.395 . S
C320 C327 1.492 . S
C321 C320 1.393 . S
C321 C322 1.392 . S
C321 H332 0.930 . S
C322 C321 1.392 . S
C322 C323 1.386 . S
C323 C322 1.386 . S
C323 C325 1.395 . S
C323 H333 0.930 . S
C324 C320 1.395 . S
C324 C325 1.379 . S
C324 H334 0.930 . S
C325 C323 1.395 . S
C325 C324 1.379 . S
C325 H335 0.930 . S
C326 O304 1.264 . S
C326 O305 1.254 . S
C327 Eu263 2.848 . S
C327 O302 1.257 . S
C327 O307 1.249 . S
C327 C320 1.492 . S
H328 C311 0.930 . S
H329 C312 0.930 . S
H330 C313 0.930 . S
H331 C314 0.930 . S
H332 C321 0.930 . S
H333 C323 0.930 . S
H334 C324 0.930 . S
H335 C325 0.930 . S
Eu336 N367 2.657 . S
Eu336 N374 2.609 . S
Eu336 O380 2.558 . S
Eu336 O381 2.612 . S
Eu336 O383 2.339 . S
Eu336 O384 2.563 . S
Eu336 O385 2.419 . S
Eu336 O387 2.380 . S
Eu336 O388 2.432 . S
Eu336 C400 2.848 . S
C337 C340 1.429 . S
C337 C341 1.411 . S
C337 N344 1.377 . S
C338 C340 1.420 . S
C338 C342 1.423 . S
C338 C350 1.392 . S
C339 C341 1.420 . S
C339 C342 1.351 . S
C339 H362 0.931 . S
C340 C337 1.429 . S
C340 C338 1.420 . S
C340 N348 1.362 . S
C341 C337 1.411 . S
C341 C339 1.420 . S
C341 C346 1.395 . S
C342 C338 1.423 . S
C342 C339 1.351 . S
C342 H354 0.930 . S
C343 C345 1.400 . S
C343 C346 1.386 . S
C343 H355 0.930 . S
N344 C337 1.377 . S
N344 C345 1.321 . S
N344 Eu347 2.609 . S
C345 C343 1.400 . S
C345 N344 1.321 . S
C345 H352 0.930 . S
C346 C341 1.395 . S
C346 C343 1.386 . S
C346 H365 0.930 . S
Eu347 N344 2.609 . S
Eu347 N348 2.657 . S
Eu347 O381 2.380 . S
Eu347 O382 2.432 . S
Eu347 O386 2.558 . S
Eu347 O387 2.612 . S
Eu347 O389 2.339 . S
Eu347 O390 2.563 . S
Eu347 O391 2.419 . S
Eu347 C411 2.848 . S
N348 C340 1.362 . S
N348 Eu347 2.657 . S
N348 C349 1.334 . S
C349 N348 1.334 . S
C349 C351 1.413 . S
C349 H356 0.929 . S
C350 C338 1.392 . S
C350 C351 1.367 . S
C350 H358 0.930 . S
C351 C349 1.413 . S
C351 C350 1.367 . S
C351 H353 0.930 . S
H352 C345 0.930 . S
H353 C351 0.930 . S
H354 C342 0.930 . S
H355 C343 0.930 . S
H356 C349 0.929 . S
H357 C371 0.930 . S
H358 C350 0.930 . S
H359 C377 0.930 . S
H360 C368 0.929 . S
H361 C375 0.930 . S
H362 C339 0.931 . S
H363 C369 0.930 . S
H364 C402 0.930 . S
H365 C346 0.930 . S
H366 C401 0.931 . S
N367 Eu336 2.657 . S
N367 C368 1.334 . S
N367 C372 1.362 . S
C368 H360 0.929 . S
C368 N367 1.334 . S
C368 C371 1.413 . S
C369 H363 0.930 . S
C369 C370 1.392 . S
C369 C371 1.367 . S
C370 C369 1.392 . S
C370 C372 1.420 . S
C370 C402 1.423 . S
C371 H357 0.930 . S
C371 C368 1.413 . S
C371 C369 1.367 . S
C372 N367 1.362 . S
C372 C370 1.420 . S
C372 C376 1.429 . S
H373 C378 0.930 . S
N374 Eu336 2.609 . S
N374 C376 1.377 . S
N374 C377 1.321 . S
C375 H361 0.930 . S
C375 C377 1.400 . S
C375 C378 1.386 . S
C376 C372 1.429 . S
C376 N374 1.377 . S
C376 C379 1.411 . S
C377 H359 0.930 . S
C377 N374 1.321 . S
C377 C375 1.400 . S
C378 H373 0.930 . S
C378 C375 1.386 . S
C378 C379 1.395 . S
C379 C376 1.411 . S
C379 C378 1.395 . S
C379 C401 1.420 . S
O380 Eu336 2.558 . S
O380 C400 1.257 . S
O381 Eu336 2.612 . S
O381 Eu347 2.380 . S
O381 C392 1.276 . S
O382 Eu347 2.432 . S
O382 C399 1.264 . S
O383 Eu336 2.339 . S
O383 C399 1.254 . S
O384 Eu336 2.563 . S
O384 C392 1.235 . S
O385 Eu336 2.419 . S
O385 C400 1.249 . S
O386 Eu347 2.558 . S
O386 C411 1.257 . S
O387 Eu336 2.380 . S
O387 Eu347 2.612 . S
O387 C403 1.276 . S
O388 Eu336 2.432 . S
O388 C410 1.264 . S
O389 Eu347 2.339 . S
O389 C410 1.254 . S
O390 Eu347 2.563 . S
O390 C403 1.235 . S
O391 Eu347 2.419 . S
O391 C411 1.249 . S
C392 O381 1.276 . S
C392 O384 1.235 . S
C393 C395 1.393 . S
C393 C397 1.395 . S
C393 C400 1.492 . S
C394 C395 1.392 . S
C394 C396 1.386 . S
C395 C393 1.393 . S
C395 C394 1.392 . S
C395 H412 0.930 . S
C396 C394 1.386 . S
C396 C398 1.395 . S
C396 H413 0.930 . S
C397 C393 1.395 . S
C397 C398 1.379 . S
C397 H414 0.930 . S
C398 C396 1.395 . S
C398 C397 1.379 . S
C398 H415 0.930 . S
C399 O382 1.264 . S
C399 O383 1.254 . S
C400 Eu336 2.848 . S
C400 O380 1.257 . S
C400 O385 1.249 . S
C400 C393 1.492 . S
C401 H366 0.931 . S
C401 C379 1.420 . S
C401 C402 1.351 . S
C402 H364 0.930 . S
C402 C370 1.423 . S
C402 C401 1.351 . S
C403 O387 1.276 . S
C403 O390 1.235 . S
C404 C405 1.393 . S
C404 C408 1.395 . S
C404 C411 1.492 . S
C405 C404 1.393 . S
C405 C406 1.392 . S
C405 H416 0.930 . S
C406 C405 1.392 . S
C406 C407 1.386 . S
C407 C406 1.386 . S
C407 C409 1.395 . S
C407 H417 0.930 . S
C408 C404 1.395 . S
C408 C409 1.379 . S
C408 H418 0.930 . S
C409 C407 1.395 . S
C409 C408 1.379 . S
C409 H419 0.930 . S
C410 O388 1.264 . S
C410 O389 1.254 . S
C411 Eu347 2.848 . S
C411 O386 1.257 . S
C411 O391 1.249 . S
C411 C404 1.492 . S
H412 C395 0.930 . S
H413 C396 0.930 . S
H414 C397 0.930 . S
H415 C398 0.930 . S
H416 C405 0.930 . S
H417 C407 0.930 . S
H418 C408 0.930 . S
H419 C409 0.930 . S
Eu420 N451 2.657 . S
Eu420 N458 2.609 . S
Eu420 O464 2.558 . S
Eu420 O465 2.612 . S
Eu420 O467 2.339 . S
Eu420 O468 2.563 . S
Eu420 O469 2.419 . S
Eu420 O471 2.380 . S
Eu420 O472 2.432 . S
Eu420 C484 2.848 . S
C421 C424 1.429 . S
C421 C425 1.411 . S
C421 N428 1.377 . S
C422 C424 1.420 . S
C422 C426 1.423 . S
C422 C434 1.392 . S
C423 C425 1.420 . S
C423 C426 1.351 . S
C423 H446 0.931 . S
C424 C421 1.429 . S
C424 C422 1.420 . S
C424 N432 1.362 . S
C425 C421 1.411 . S
C425 C423 1.420 . S
C425 C430 1.395 . S
C426 C422 1.423 . S
C426 C423 1.351 . S
C426 H438 0.930 . S
C427 C429 1.400 . S
C427 C430 1.386 . S
C427 H439 0.930 . S
N428 C421 1.377 . S
N428 C429 1.321 . S
N428 Eu431 2.609 . S
C429 C427 1.400 . S
C429 N428 1.321 . S
C429 H436 0.930 . S
C430 C425 1.395 . S
C430 C427 1.386 . S
C430 H449 0.930 . S
Eu431 N428 2.609 . S
Eu431 N432 2.657 . S
Eu431 O465 2.380 . S
Eu431 O466 2.432 . S
Eu431 O470 2.558 . S
Eu431 O471 2.612 . S
Eu431 O473 2.339 . S
Eu431 O474 2.563 . S
Eu431 O475 2.419 . S
Eu431 C495 2.848 . S
N432 C424 1.362 . S
N432 Eu431 2.657 . S
N432 C433 1.334 . S
C433 N432 1.334 . S
C433 C435 1.413 . S
C433 H440 0.929 . S
C434 C422 1.392 . S
C434 C435 1.367 . S
C434 H442 0.930 . S
C435 C433 1.413 . S
C435 C434 1.367 . S
C435 H437 0.930 . S
H436 C429 0.930 . S
H437 C435 0.930 . S
H438 C426 0.930 . S
H439 C427 0.930 . S
H440 C433 0.929 . S
H441 C455 0.930 . S
H442 C434 0.930 . S
H443 C461 0.930 . S
H444 C452 0.929 . S
H445 C459 0.930 . S
H446 C423 0.931 . S
H447 C453 0.930 . S
H448 C486 0.930 . S
H449 C430 0.930 . S
H450 C485 0.931 . S
N451 Eu420 2.657 . S
N451 C452 1.334 . S
N451 C456 1.362 . S
C452 H444 0.929 . S
C452 N451 1.334 . S
C452 C455 1.413 . S
C453 H447 0.930 . S
C453 C454 1.392 . S
C453 C455 1.367 . S
C454 C453 1.392 . S
C454 C456 1.420 . S
C454 C486 1.423 . S
C455 H441 0.930 . S
C455 C452 1.413 . S
C455 C453 1.367 . S
C456 N451 1.362 . S
C456 C454 1.420 . S
C456 C460 1.429 . S
H457 C462 0.930 . S
N458 Eu420 2.609 . S
N458 C460 1.377 . S
N458 C461 1.321 . S
C459 H445 0.930 . S
C459 C461 1.400 . S
C459 C462 1.386 . S
C460 C456 1.429 . S
C460 N458 1.377 . S
C460 C463 1.411 . S
C461 H443 0.930 . S
C461 N458 1.321 . S
C461 C459 1.400 . S
C462 H457 0.930 . S
C462 C459 1.386 . S
C462 C463 1.395 . S
C463 C460 1.411 . S
C463 C462 1.395 . S
C463 C485 1.420 . S
O464 Eu420 2.558 . S
O464 C484 1.257 . S
O465 Eu420 2.612 . S
O465 Eu431 2.380 . S
O465 C476 1.276 . S
O466 Eu431 2.432 . S
O466 C483 1.264 . S
O467 Eu420 2.339 . S
O467 C483 1.254 . S
O468 Eu420 2.563 . S
O468 C476 1.235 . S
O469 Eu420 2.419 . S
O469 C484 1.249 . S
O470 Eu431 2.558 . S
O470 C495 1.257 . S
O471 Eu420 2.380 . S
O471 Eu431 2.612 . S
O471 C487 1.276 . S
O472 Eu420 2.432 . S
O472 C494 1.264 . S
O473 Eu431 2.339 . S
O473 C494 1.254 . S
O474 Eu431 2.563 . S
O474 C487 1.235 . S
O475 Eu431 2.419 . S
O475 C495 1.249 . S
C476 O465 1.276 . S
C476 O468 1.235 . S
C477 C479 1.393 . S
C477 C481 1.395 . S
C477 C484 1.492 . S
C478 C479 1.392 . S
C478 C480 1.386 . S
C479 C477 1.393 . S
C479 C478 1.392 . S
C479 H496 0.930 . S
C480 C478 1.386 . S
C480 C482 1.395 . S
C480 H497 0.930 . S
C481 C477 1.395 . S
C481 C482 1.379 . S
C481 H498 0.930 . S
C482 C480 1.395 . S
C482 C481 1.379 . S
C482 H499 0.930 . S
C483 O466 1.264 . S
C483 O467 1.254 . S
C484 Eu420 2.848 . S
C484 O464 1.257 . S
C484 O469 1.249 . S
C484 C477 1.492 . S
C485 H450 0.931 . S
C485 C463 1.420 . S
C485 C486 1.351 . S
C486 H448 0.930 . S
C486 C454 1.423 . S
C486 C485 1.351 . S
C487 O471 1.276 . S
C487 O474 1.235 . S
C488 C489 1.393 . S
C488 C492 1.395 . S
C488 C495 1.492 . S
C489 C488 1.393 . S
C489 C490 1.392 . S
C489 H500 0.930 . S
C490 C489 1.392 . S
C490 C491 1.386 . S
C491 C490 1.386 . S
C491 C493 1.395 . S
C491 H501 0.930 . S
C492 C488 1.395 . S
C492 C493 1.379 . S
C492 H502 0.930 . S
C493 C491 1.395 . S
C493 C492 1.379 . S
C493 H503 0.930 . S
C494 O472 1.264 . S
C494 O473 1.254 . S
C495 Eu431 2.848 . S
C495 O470 1.257 . S
C495 O475 1.249 . S
C495 C488 1.492 . S
H496 C479 0.930 . S
H497 C480 0.930 . S
H498 C481 0.930 . S
H499 C482 0.930 . S
H500 C489 0.930 . S
H501 C491 0.930 . S
H502 C492 0.930 . S
H503 C493 0.930 . S
Eu504 N535 2.657 . S
Eu504 N542 2.609 . S
Eu504 O548 2.558 . S
Eu504 O549 2.612 . S
Eu504 O551 2.339 . S
Eu504 O552 2.563 . S
Eu504 O553 2.419 . S
Eu504 O555 2.380 . S
Eu504 O556 2.432 . S
Eu504 C568 2.848 . S
C505 C508 1.429 . S
C505 C509 1.411 . S
C505 N512 1.377 . S
C506 C508 1.420 . S
C506 C510 1.423 . S
C506 C518 1.392 . S
C507 C509 1.420 . S
C507 C510 1.351 . S
C507 H530 0.931 . S
C508 C505 1.429 . S
C508 C506 1.420 . S
C508 N516 1.362 . S
C509 C505 1.411 . S
C509 C507 1.420 . S
C509 C514 1.395 . S
C510 C506 1.423 . S
C510 C507 1.351 . S
C510 H522 0.930 . S
C511 C513 1.400 . S
C511 C514 1.386 . S
C511 H523 0.930 . S
N512 C505 1.377 . S
N512 C513 1.321 . S
N512 Eu515 2.609 . S
C513 C511 1.400 . S
C513 N512 1.321 . S
C513 H520 0.930 . S
C514 C509 1.395 . S
C514 C511 1.386 . S
C514 H533 0.930 . S
Eu515 N512 2.609 . S
Eu515 N516 2.657 . S
Eu515 O549 2.380 . S
Eu515 O550 2.432 . S
Eu515 O554 2.558 . S
Eu515 O555 2.612 . S
Eu515 O557 2.339 . S
Eu515 O558 2.563 . S
Eu515 O559 2.419 . S
Eu515 C579 2.848 . S
N516 C508 1.362 . S
N516 Eu515 2.657 . S
N516 C517 1.334 . S
C517 N516 1.334 . S
C517 C519 1.413 . S
C517 H524 0.929 . S
C518 C506 1.392 . S
C518 C519 1.367 . S
C518 H526 0.930 . S
C519 C517 1.413 . S
C519 C518 1.367 . S
C519 H521 0.930 . S
H520 C513 0.930 . S
H521 C519 0.930 . S
H522 C510 0.930 . S
H523 C511 0.930 . S
H524 C517 0.929 . S
H525 C539 0.930 . S
H526 C518 0.930 . S
H527 C545 0.930 . S
H528 C536 0.929 . S
H529 C543 0.930 . S
H530 C507 0.931 . S
H531 C537 0.930 . S
H532 C570 0.930 . S
H533 C514 0.930 . S
H534 C569 0.931 . S
N535 Eu504 2.657 . S
N535 C536 1.334 . S
N535 C540 1.362 . S
C536 H528 0.929 . S
C536 N535 1.334 . S
C536 C539 1.413 . S
C537 H531 0.930 . S
C537 C538 1.392 . S
C537 C539 1.367 . S
C538 C537 1.392 . S
C538 C540 1.420 . S
C538 C570 1.423 . S
C539 H525 0.930 . S
C539 C536 1.413 . S
C539 C537 1.367 . S
C540 N535 1.362 . S
C540 C538 1.420 . S
C540 C544 1.429 . S
H541 C546 0.930 . S
N542 Eu504 2.609 . S
N542 C544 1.377 . S
N542 C545 1.321 . S
C543 H529 0.930 . S
C543 C545 1.400 . S
C543 C546 1.386 . S
C544 C540 1.429 . S
C544 N542 1.377 . S
C544 C547 1.411 . S
C545 H527 0.930 . S
C545 N542 1.321 . S
C545 C543 1.400 . S
C546 H541 0.930 . S
C546 C543 1.386 . S
C546 C547 1.395 . S
C547 C544 1.411 . S
C547 C546 1.395 . S
C547 C569 1.420 . S
O548 Eu504 2.558 . S
O548 C568 1.257 . S
O549 Eu504 2.612 . S
O549 Eu515 2.380 . S
O549 C560 1.276 . S
O550 Eu515 2.432 . S
O550 C567 1.264 . S
O551 Eu504 2.339 . S
O551 C567 1.254 . S
O552 Eu504 2.563 . S
O552 C560 1.235 . S
O553 Eu504 2.419 . S
O553 C568 1.249 . S
O554 Eu515 2.558 . S
O554 C579 1.257 . S
O555 Eu504 2.380 . S
O555 Eu515 2.612 . S
O555 C571 1.276 . S
O556 Eu504 2.432 . S
O556 C578 1.264 . S
O557 Eu515 2.339 . S
O557 C578 1.254 . S
O558 Eu515 2.563 . S
O558 C571 1.235 . S
O559 Eu515 2.419 . S
O559 C579 1.249 . S
C560 O549 1.276 . S
C560 O552 1.235 . S
C561 C563 1.393 . S
C561 C565 1.395 . S
C561 C568 1.492 . S
C562 C563 1.392 . S
C562 C564 1.386 . S
C563 C561 1.393 . S
C563 C562 1.392 . S
C563 H580 0.930 . S
C564 C562 1.386 . S
C564 C566 1.395 . S
C564 H581 0.930 . S
C565 C561 1.395 . S
C565 C566 1.379 . S
C565 H582 0.930 . S
C566 C564 1.395 . S
C566 C565 1.379 . S
C566 H583 0.930 . S
C567 O550 1.264 . S
C567 O551 1.254 . S
C568 Eu504 2.848 . S
C568 O548 1.257 . S
C568 O553 1.249 . S
C568 C561 1.492 . S
C569 H534 0.931 . S
C569 C547 1.420 . S
C569 C570 1.351 . S
C570 H532 0.930 . S
C570 C538 1.423 . S
C570 C569 1.351 . S
C571 O555 1.276 . S
C571 O558 1.235 . S
C572 C573 1.393 . S
C572 C576 1.395 . S
C572 C579 1.492 . S
C573 C572 1.393 . S
C573 C574 1.392 . S
C573 H584 0.930 . S
C574 C573 1.392 . S
C574 C575 1.386 . S
C575 C574 1.386 . S
C575 C577 1.395 . S
C575 H585 0.930 . S
C576 C572 1.395 . S
C576 C577 1.379 . S
C576 H586 0.930 . S
C577 C575 1.395 . S
C577 C576 1.379 . S
C577 H587 0.930 . S
C578 O556 1.264 . S
C578 O557 1.254 . S
C579 Eu515 2.848 . S
C579 O554 1.257 . S
C579 O559 1.249 . S
C579 C572 1.492 . S
H580 C563 0.930 . S
H581 C564 0.930 . S
H582 C565 0.930 . S
H583 C566 0.930 . S
H584 C573 0.930 . S
H585 C575 0.930 . S
H586 C576 0.930 . S
H587 C577 0.930 . S
Eu588 N619 2.657 . S
Eu588 N626 2.609 . S
Eu588 O632 2.558 . S
Eu588 O633 2.612 . S
Eu588 O635 2.339 . S
Eu588 O636 2.563 . S
Eu588 O637 2.419 . S
Eu588 O639 2.380 . S
Eu588 O640 2.432 . S
Eu588 C652 2.848 . S
C589 C592 1.429 . S
C589 C593 1.411 . S
C589 N596 1.377 . S
C590 C592 1.420 . S
C590 C594 1.423 . S
C590 C602 1.392 . S
C591 C593 1.420 . S
C591 C594 1.351 . S
C591 H614 0.931 . S
C592 C589 1.429 . S
C592 C590 1.420 . S
C592 N600 1.362 . S
C593 C589 1.411 . S
C593 C591 1.420 . S
C593 C598 1.395 . S
C594 C590 1.423 . S
C594 C591 1.351 . S
C594 H606 0.930 . S
C595 C597 1.400 . S
C595 C598 1.386 . S
C595 H607 0.930 . S
N596 C589 1.377 . S
N596 C597 1.321 . S
N596 Eu599 2.609 . S
C597 C595 1.400 . S
C597 N596 1.321 . S
C597 H604 0.930 . S
C598 C593 1.395 . S
C598 C595 1.386 . S
C598 H617 0.930 . S
Eu599 N596 2.609 . S
Eu599 N600 2.657 . S
Eu599 O633 2.380 . S
Eu599 O634 2.432 . S
Eu599 O638 2.558 . S
Eu599 O639 2.612 . S
Eu599 O641 2.339 . S
Eu599 O642 2.563 . S
Eu599 O643 2.419 . S
Eu599 C663 2.848 . S
N600 C592 1.362 . S
N600 Eu599 2.657 . S
N600 C601 1.334 . S
C601 N600 1.334 . S
C601 C603 1.413 . S
C601 H608 0.929 . S
C602 C590 1.392 . S
C602 C603 1.367 . S
C602 H610 0.930 . S
C603 C601 1.413 . S
C603 C602 1.367 . S
C603 H605 0.930 . S
H604 C597 0.930 . S
H605 C603 0.930 . S
H606 C594 0.930 . S
H607 C595 0.930 . S
H608 C601 0.929 . S
H609 C623 0.930 . S
H610 C602 0.930 . S
H611 C629 0.930 . S
H612 C620 0.929 . S
H613 C627 0.930 . S
H614 C591 0.931 . S
H615 C621 0.930 . S
H616 C654 0.930 . S
H617 C598 0.930 . S
H618 C653 0.931 . S
N619 Eu588 2.657 . S
N619 C620 1.334 . S
N619 C624 1.362 . S
C620 H612 0.929 . S
C620 N619 1.334 . S
C620 C623 1.413 . S
C621 H615 0.930 . S
C621 C622 1.392 . S
C621 C623 1.367 . S
C622 C621 1.392 . S
C622 C624 1.420 . S
C622 C654 1.423 . S
C623 H609 0.930 . S
C623 C620 1.413 . S
C623 C621 1.367 . S
C624 N619 1.362 . S
C624 C622 1.420 . S
C624 C628 1.429 . S
H625 C630 0.930 . S
N626 Eu588 2.609 . S
N626 C628 1.377 . S
N626 C629 1.321 . S
C627 H613 0.930 . S
C627 C629 1.400 . S
C627 C630 1.386 . S
C628 C624 1.429 . S
C628 N626 1.377 . S
C628 C631 1.411 . S
C629 H611 0.930 . S
C629 N626 1.321 . S
C629 C627 1.400 . S
C630 H625 0.930 . S
C630 C627 1.386 . S
C630 C631 1.395 . S
C631 C628 1.411 . S
C631 C630 1.395 . S
C631 C653 1.420 . S
O632 Eu588 2.558 . S
O632 C652 1.257 . S
O633 Eu588 2.612 . S
O633 Eu599 2.380 . S
O633 C644 1.276 . S
O634 Eu599 2.432 . S
O634 C651 1.264 . S
O635 Eu588 2.339 . S
O635 C651 1.254 . S
O636 Eu588 2.563 . S
O636 C644 1.235 . S
O637 Eu588 2.419 . S
O637 C652 1.249 . S
O638 Eu599 2.558 . S
O638 C663 1.257 . S
O639 Eu588 2.380 . S
O639 Eu599 2.612 . S
O639 C655 1.276 . S
O640 Eu588 2.432 . S
O640 C662 1.264 . S
O641 Eu599 2.339 . S
O641 C662 1.254 . S
O642 Eu599 2.563 . S
O642 C655 1.235 . S
O643 Eu599 2.419 . S
O643 C663 1.249 . S
C644 O633 1.276 . S
C644 O636 1.235 . S
C645 C647 1.393 . S
C645 C649 1.395 . S
C645 C652 1.492 . S
C646 C647 1.392 . S
C646 C648 1.386 . S
C647 C645 1.393 . S
C647 C646 1.392 . S
C647 H664 0.930 . S
C648 C646 1.386 . S
C648 C650 1.395 . S
C648 H665 0.930 . S
C649 C645 1.395 . S
C649 C650 1.379 . S
C649 H666 0.930 . S
C650 C648 1.395 . S
C650 C649 1.379 . S
C650 H667 0.930 . S
C651 O634 1.264 . S
C651 O635 1.254 . S
C652 Eu588 2.848 . S
C652 O632 1.257 . S
C652 O637 1.249 . S
C652 C645 1.492 . S
C653 H618 0.931 . S
C653 C631 1.420 . S
C653 C654 1.351 . S
C654 H616 0.930 . S
C654 C622 1.423 . S
C654 C653 1.351 . S
C655 O639 1.276 . S
C655 O642 1.235 . S
C656 C657 1.393 . S
C656 C660 1.395 . S
C656 C663 1.492 . S
C657 C656 1.393 . S
C657 C658 1.392 . S
C657 H668 0.930 . S
C658 C657 1.392 . S
C658 C659 1.386 . S
C659 C658 1.386 . S
C659 C661 1.395 . S
C659 H669 0.930 . S
C660 C656 1.395 . S
C660 C661 1.379 . S
C660 H670 0.930 . S
C661 C659 1.395 . S
C661 C660 1.379 . S
C661 H671 0.930 . S
C662 O640 1.264 . S
C662 O641 1.254 . S
C663 Eu599 2.848 . S
C663 O638 1.257 . S
C663 O643 1.249 . S
C663 C656 1.492 . S
H664 C647 0.930 . S
H665 C648 0.930 . S
H666 C649 0.930 . S
H667 C650 0.930 . S
H668 C657 0.930 . S
H669 C659 0.930 . S
H670 C660 0.930 . S
H671 C661 0.930 . S
Fe672 O673 1.886 1_455 S
Fe672 O676 1.715 . S
Fe672 O681 2.077 1_455 S
Fe672 O686 1.935 . S
Fe672 O692 2.077 1_455 S
Fe672 O701 1.935 . S
O673 Fe672 1.886 1_655 S
O673 Fe675 1.715 1_545 S
Fe674 O676 1.886 . S
Fe674 O677 1.715 1_545 S
Fe674 O684 1.935 1_545 S
Fe674 O685 2.077 . S
Fe674 O691 1.935 1_545 S
Fe674 O700 2.077 . S
Fe675 O673 1.715 1_565 S
Fe675 O678 1.886 . S
Fe675 O682 1.935 1_565 S
Fe675 O687 2.077 . S
Fe675 O693 1.935 1_565 S
Fe675 O697 2.077 . S
O676 Fe672 1.715 . S
O676 Fe674 1.886 . S
O677 Fe674 1.715 1_565 S
O677 Fe679 1.886 1_455 S
O678 Fe675 1.886 . S
O678 Fe679 1.715 . S
Fe679 O677 1.886 1_655 S
Fe679 O678 1.715 . S
Fe679 O683 2.077 1_655 S
Fe679 O688 1.935 . S
Fe679 O690 2.077 1_655 S
Fe679 O698 1.935 . S
C680 O692 1.381 . S
C680 O693 1.421 . S
O681 Fe672 2.077 1_655 S
O681 C694 1.381 . S
O682 Fe675 1.935 1_545 S
O682 C694 1.421 . S
O683 Fe679 2.077 1_455 S
O683 C699 1.381 . S
O684 Fe674 1.935 1_565 S
O684 C699 1.421 . S
O685 Fe674 2.077 . S
O685 C689 1.381 . S
O686 Fe672 1.935 . S
O686 C689 1.421 . S
O687 Fe675 2.077 . S
O687 C695 1.381 . S
O688 Fe679 1.935 . S
O688 C695 1.421 . S
C689 O685 1.381 . S
C689 O686 1.421 . S
O690 Fe679 2.077 1_455 S
O690 C702 1.381 . S
O691 Fe674 1.935 1_565 S
O691 C702 1.421 . S
O692 Fe672 2.077 1_655 S
O692 C680 1.381 . S
O693 Fe675 1.935 1_545 S
O693 C680 1.421 . S
C694 O681 1.381 . S
C694 O682 1.421 . S
C695 O687 1.381 . S
C695 O688 1.421 . S
C696 O697 1.381 . S
C696 O698 1.421 . S
O697 Fe675 2.077 . S
O697 C696 1.381 . S
O698 Fe679 1.935 . S
O698 C696 1.421 . S
C699 O683 1.381 . S
C699 O684 1.421 . S
O700 Fe674 2.077 . S
O700 C703 1.381 . S
O701 Fe672 1.935 . S
O701 C703 1.421 . S
C702 O690 1.381 . S
C702 O691 1.421 . S
C703 O700 1.381 . S
C703 O701 1.421 . S
Fe704 O705 1.886 . S
Fe704 O708 1.714 . S
Fe704 O713 2.077 1_554 S
Fe704 O718 1.935 1_554 S
Fe704 O724 2.077 . S
Fe704 O733 1.935 . S
O705 Fe704 1.886 . S
O705 Fe707 1.715 1_565 S
Fe706 O708 1.887 1_556 S
Fe706 O709 1.715 1_565 S
Fe706 O716 1.935 1_565 S
Fe706 O717 2.077 . S
Fe706 O723 1.935 1_566 S
Fe706 O732 2.077 1_556 S
Fe707 O705 1.715 1_545 S
Fe707 O710 1.886 1_554 S
Fe707 O714 1.935 1_544 S
Fe707 O719 2.077 1_554 S
Fe707 O725 1.935 1_545 S
Fe707 O729 2.077 . S
O708 Fe704 1.714 . S
O708 Fe706 1.887 1_554 S
O709 Fe706 1.715 1_545 S
O709 Fe711 1.886 . S
O710 Fe707 1.886 1_556 S
O710 Fe711 1.715 . S
Fe711 O709 1.886 . S
Fe711 O710 1.715 . S
Fe711 O715 2.077 . S
Fe711 O720 1.935 . S
Fe711 O722 2.077 1_556 S
Fe711 O730 1.935 1_556 S
C712 O724 1.381 . S
C712 O725 1.421 . S
O713 Fe704 2.077 1_556 S
O713 C726 1.381 . S
O714 Fe707 1.935 1_566 S
O714 C726 1.421 . S
O715 Fe711 2.077 . S
O715 C731 1.381 . S
O716 Fe706 1.935 1_545 S
O716 C731 1.421 . S
O717 Fe706 2.077 . S
O717 C721 1.381 . S
O718 Fe704 1.935 1_556 S
O718 C721 1.421 . S
O719 Fe707 2.077 1_556 S
O719 C727 1.381 . S
O720 Fe711 1.935 . S
O720 C727 1.421 . S
C721 O717 1.381 . S
C721 O718 1.421 . S
O722 Fe711 2.077 1_554 S
O722 C734 1.381 . S
O723 Fe706 1.935 1_544 S
O723 C734 1.421 . S
O724 Fe704 2.077 . S
O724 C712 1.381 . S
O725 Fe707 1.935 1_565 S
O725 C712 1.421 . S
C726 O713 1.381 . S
C726 O714 1.421 . S
C727 O719 1.381 . S
C727 O720 1.421 . S
C728 O729 1.381 . S
C728 O730 1.421 . S
O729 Fe707 2.077 . S
O729 C728 1.381 . S
O730 Fe711 1.935 1_554 S
O730 C728 1.421 . S
C731 O715 1.381 . S
C731 O716 1.421 . S
O732 Fe706 2.077 1_554 S
O732 C735 1.381 . S
O733 Fe704 1.935 . S
O733 C735 1.421 . S
C734 O722 1.381 . S
C734 O723 1.421 . S
C735 O732 1.381 . S
C735 O733 1.421 . S
Fe736 O737 1.886 1_455 S
Fe736 O740 1.715 . S
Fe736 O745 2.077 1_455 S
Fe736 O750 1.935 . S
Fe736 O756 2.077 1_456 S
Fe736 O765 1.935 1_556 S
O737 Fe736 1.886 1_655 S
O737 Fe739 1.715 . S
Fe738 O740 1.886 1_554 S
Fe738 O741 1.715 . S
Fe738 O748 1.935 1_554 S
Fe738 O749 2.077 1_554 S
Fe738 O755 1.935 . S
Fe738 O764 2.077 . S
Fe739 O737 1.715 . S
Fe739 O742 1.886 1_556 S
Fe739 O746 1.935 . S
Fe739 O751 2.077 . S
Fe739 O757 1.935 1_556 S
Fe739 O761 2.077 1_556 S
O740 Fe736 1.715 . S
O740 Fe738 1.886 1_556 S
O741 Fe738 1.715 . S
O741 Fe743 1.886 1_455 S
O742 Fe739 1.886 1_554 S
O742 Fe743 1.714 . S
Fe743 O741 1.886 1_655 S
Fe743 O742 1.714 . S
Fe743 O747 2.077 1_654 S
Fe743 O752 1.935 1_554 S
Fe743 O754 2.077 1_655 S
Fe743 O762 1.935 . S
C744 O756 1.381 . S
C744 O757 1.421 . S
O745 Fe736 2.077 1_655 S
O745 C758 1.381 . S
O746 Fe739 1.935 . S
O746 C758 1.421 . S
O747 Fe743 2.077 1_456 S
O747 C763 1.381 . S
O748 Fe738 1.935 1_556 S
O748 C763 1.421 . S
O749 Fe738 2.077 1_556 S
O749 C753 1.381 . S
O750 Fe736 1.935 . S
O750 C753 1.421 . S
O751 Fe739 2.077 . S
O751 C759 1.381 . S
O752 Fe743 1.935 1_556 S
O752 C759 1.421 . S
C753 O749 1.381 . S
C753 O750 1.421 . S
O754 Fe743 2.077 1_455 S
O754 C766 1.381 . S
O755 Fe738 1.935 . S
O755 C766 1.421 . S
O756 Fe736 2.077 1_654 S
O756 C744 1.381 . S
O757 Fe739 1.935 1_554 S
O757 C744 1.421 . S
C758 O745 1.381 . S
C758 O746 1.421 . S
C759 O751 1.381 . S
C759 O752 1.421 . S
C760 O761 1.381 . S
C760 O762 1.421 . S
O761 Fe739 2.077 1_554 S
O761 C760 1.381 . S
O762 Fe743 1.935 . S
O762 C760 1.421 . S
C763 O747 1.381 . S
C763 O748 1.421 . S
O764 Fe738 2.077 . S
O764 C767 1.381 . S
O765 Fe736 1.935 1_554 S
O765 C767 1.421 . S
C766 O754 1.381 . S
C766 O755 1.421 . S
C767 O764 1.381 . S
C767 O765 1.421 . S
Fe768 O769 1.886 . S
Fe768 O772 1.715 . S
Fe768 O777 2.077 . S
Fe768 O782 1.935 . S
Fe768 O788 2.077 . S
Fe768 O797 1.935 . S
O769 Fe768 1.886 . S
O769 Fe771 1.715 1_556 S
Fe770 O772 1.886 . S
Fe770 O773 1.715 1_556 S
Fe770 O780 1.935 1_556 S
Fe770 O781 2.077 . S
Fe770 O787 1.935 1_556 S
Fe770 O796 2.077 . S
Fe771 O769 1.715 1_554 S
Fe771 O774 1.886 . S
Fe771 O778 1.935 1_554 S
Fe771 O783 2.077 . S
Fe771 O789 1.935 1_554 S
Fe771 O793 2.077 . S
O772 Fe768 1.715 . S
O772 Fe770 1.886 . S
O773 Fe770 1.715 1_554 S
O773 Fe775 1.886 . S
O774 Fe771 1.886 . S
O774 Fe775 1.715 . S
Fe775 O773 1.886 . S
Fe775 O774 1.715 . S
Fe775 O779 2.077 . S
Fe775 O784 1.935 . S
Fe775 O786 2.077 . S
Fe775 O794 1.935 . S
C776 O788 1.381 . S
C776 O789 1.421 . S
O777 Fe768 2.077 . S
O777 C790 1.381 . S
O778 Fe771 1.935 1_556 S
O778 C790 1.421 . S
O779 Fe775 2.077 . S
O779 C795 1.381 . S
O780 Fe770 1.935 1_554 S
O780 C795 1.421 . S
O781 Fe770 2.077 . S
O781 C785 1.381 . S
O782 Fe768 1.935 . S
O782 C785 1.421 . S
O783 Fe771 2.077 . S
O783 C791 1.381 . S
O784 Fe775 1.935 . S
O784 C791 1.421 . S
C785 O781 1.381 . S
C785 O782 1.421 . S
O786 Fe775 2.077 . S
O786 C798 1.381 . S
O787 Fe770 1.935 1_554 S
O787 C798 1.421 . S
O788 Fe768 2.077 . S
O788 C776 1.381 . S
O789 Fe771 1.935 1_556 S
O789 C776 1.421 . S
C790 O777 1.381 . S
C790 O778 1.421 . S
C791 O783 1.381 . S
C791 O784 1.421 . S
C792 O793 1.381 . S
C792 O794 1.421 . S
O793 Fe771 2.077 . S
O793 C792 1.381 . S
O794 Fe775 1.935 . S
O794 C792 1.421 . S
C795 O779 1.381 . S
C795 O780 1.421 . S
O796 Fe770 2.077 . S
O796 C799 1.381 . S
O797 Fe768 1.935 . S
O797 C799 1.421 . S
C798 O786 1.381 . S
C798 O787 1.421 . S
C799 O796 1.381 . S
C799 O797 1.421 . S
Fe800 O801 1.886 . S
Fe800 O804 1.715 . S
Fe800 O809 2.077 1_655 S
Fe800 O814 1.935 1_655 S
Fe800 O820 2.077 . S
Fe800 O829 1.935 . S
O801 Fe800 1.886 . S
O801 Fe803 1.715 1_655 S
Fe802 O804 1.886 . S
Fe802 O805 1.715 1_655 S
Fe802 O812 1.935 1_655 S
Fe802 O813 2.077 1_655 S
Fe802 O819 1.935 . S
Fe802 O828 2.077 . S
Fe803 O801 1.715 1_455 S
Fe803 O806 1.886 . S
Fe803 O810 1.935 . S
Fe803 O815 2.077 . S
Fe803 O821 1.935 1_455 S
Fe803 O825 2.077 1_455 S
O804 Fe800 1.715 . S
O804 Fe802 1.886 . S
O805 Fe802 1.715 1_455 S
O805 Fe807 1.886 . S
O806 Fe803 1.886 . S
O806 Fe807 1.715 . S
Fe807 O805 1.886 . S
Fe807 O806 1.715 . S
Fe807 O811 2.077 . S
Fe807 O816 1.935 . S
Fe807 O818 2.077 1_455 S
Fe807 O826 1.935 1_455 S
C808 O820 1.381 . S
C808 O821 1.421 . S
O809 Fe800 2.077 1_455 S
O809 C822 1.381 . S
O810 Fe803 1.935 . S
O810 C822 1.421 . S
O811 Fe807 2.077 . S
O811 C827 1.381 . S
O812 Fe802 1.935 1_455 S
O812 C827 1.421 . S
O813 Fe802 2.077 1_455 S
O813 C817 1.381 . S
O814 Fe800 1.935 1_455 S
O814 C817 1.421 . S
O815 Fe803 2.077 . S
O815 C823 1.381 . S
O816 Fe807 1.935 . S
O816 C823 1.421 . S
C817 O813 1.381 . S
C817 O814 1.421 . S
O818 Fe807 2.077 1_655 S
O818 C830 1.381 . S
O819 Fe802 1.935 . S
O819 C830 1.421 . S
O820 Fe800 2.077 . S
O820 C808 1.381 . S
O821 Fe803 1.935 1_655 S
O821 C808 1.421 . S
C822 O809 1.381 . S
C822 O810 1.421 . S
C823 O815 1.381 . S
C823 O816 1.421 . S
C824 O825 1.381 . S
C824 O826 1.421 . S
O825 Fe803 2.077 1_655 S
O825 C824 1.381 . S
O826 Fe807 1.935 1_655 S
O826 C824 1.421 . S
C827 O811 1.381 . S
C827 O812 1.421 . S
O828 Fe802 2.077 . S
O828 C831 1.381 . S
O829 Fe800 1.935 . S
O829 C831 1.421 . S
C830 O818 1.381 . S
C830 O819 1.421 . S
C831 O828 1.381 . S
C831 O829 1.421 . S
Fe832 O833 1.886 . S
Fe832 O836 1.715 . S
Fe832 O841 2.077 . S
Fe832 O846 1.935 . S
Fe832 O852 2.077 . S
Fe832 O861 1.935 . S
O833 Fe832 1.886 . S
O833 Fe835 1.715 . S
Fe834 O836 1.886 1_545 S
Fe834 O837 1.715 . S
Fe834 O844 1.935 . S
Fe834 O845 2.077 1_545 S
Fe834 O851 1.935 . S
Fe834 O860 2.077 1_545 S
Fe835 O833 1.715 . S
Fe835 O838 1.886 1_565 S
Fe835 O842 1.935 . S
Fe835 O847 2.077 1_565 S
Fe835 O853 1.935 . S
Fe835 O857 2.077 1_565 S
O836 Fe832 1.715 . S
O836 Fe834 1.886 1_565 S
O837 Fe834 1.715 . S
O837 Fe839 1.886 . S
O838 Fe835 1.886 1_545 S
O838 Fe839 1.715 . S
Fe839 O837 1.886 . S
Fe839 O838 1.715 . S
Fe839 O843 2.077 . S
Fe839 O848 1.935 . S
Fe839 O850 2.077 . S
Fe839 O858 1.935 . S
C840 O852 1.381 . S
C840 O853 1.421 . S
O841 Fe832 2.077 . S
O841 C854 1.381 . S
O842 Fe835 1.935 . S
O842 C854 1.421 . S
O843 Fe839 2.077 . S
O843 C859 1.381 . S
O844 Fe834 1.935 . S
O844 C859 1.421 . S
O845 Fe834 2.077 1_565 S
O845 C849 1.381 . S
O846 Fe832 1.935 . S
O846 C849 1.421 . S
O847 Fe835 2.077 1_545 S
O847 C855 1.381 . S
O848 Fe839 1.935 . S
O848 C855 1.421 . S
C849 O845 1.381 . S
C849 O846 1.421 . S
O850 Fe839 2.077 . S
O850 C862 1.381 . S
O851 Fe834 1.935 . S
O851 C862 1.421 . S
O852 Fe832 2.077 . S
O852 C840 1.381 . S
O853 Fe835 1.935 . S
O853 C840 1.421 . S
C854 O841 1.381 . S
C854 O842 1.421 . S
C855 O847 1.381 . S
C855 O848 1.421 . S
C856 O857 1.381 . S
C856 O858 1.421 . S
O857 Fe835 2.077 1_545 S
O857 C856 1.381 . S
O858 Fe839 1.935 . S
O858 C856 1.421 . S
C859 O843 1.381 . S
C859 O844 1.421 . S
O860 Fe834 2.077 1_565 S
O860 C863 1.381 . S
O861 Fe832 1.935 . S
O861 C863 1.421 . S
C862 O850 1.381 . S
C862 O851 1.421 . S
C863 O860 1.381 . S
C863 O861 1.421 . S
H864 C870 0.930 . S
H865 C874 0.930 . S
H866 C879 0.929 . S
H867 C877 0.929 . S
H868 C872 0.929 . S
H869 C878 0.929 . S
C870 H864 0.930 . S
C870 C871 1.367 . S
C870 C878 1.378 . S
C871 C870 1.367 . S
C871 C879 1.433 . S
C872 H868 0.929 . S
C872 C874 1.378 . S
C872 C876 1.350 . S
C873 C876 1.463 . S
C873 C878 1.350 . S
C873 N881 1.427 . S
C874 H865 0.930 . S
C874 C872 1.378 . S
C874 C875 1.367 . S
C875 C874 1.367 . S
C875 C877 1.433 . S
C876 C872 1.350 . S
C876 C873 1.463 . S
C876 N880 1.427 . S
C877 H867 0.929 . S
C877 C875 1.433 . S
C877 N880 1.384 . S
C878 H869 0.929 . S
C878 C870 1.378 . S
C878 C873 1.350 . S
C879 H866 0.929 . S
C879 C871 1.433 . S
C879 N881 1.384 . S
N880 C876 1.427 . S
N880 C877 1.384 . S
N881 C873 1.427 . S
N881 C879 1.384 . S
H882 C888 0.930 . S
H883 C892 0.930 . S
H884 C897 0.929 . S
H885 C895 0.929 . S
H886 C890 0.929 . S
H887 C896 0.929 . S
C888 H882 0.930 . S
C888 C889 1.367 . S
C888 C896 1.378 . S
C889 C888 1.367 . S
C889 C897 1.433 . S
C890 H886 0.929 . S
C890 C892 1.378 . S
C890 C894 1.350 . S
C891 C894 1.463 . S
C891 C896 1.350 . S
C891 N899 1.427 . S
C892 H883 0.930 . S
C892 C890 1.378 . S
C892 C893 1.367 . S
C893 C892 1.367 . S
C893 C895 1.433 . S
C894 C890 1.350 . S
C894 C891 1.463 . S
C894 N898 1.427 . S
C895 H885 0.929 . S
C895 C893 1.433 . S
C895 N898 1.384 . S
C896 H887 0.929 . S
C896 C888 1.378 . S
C896 C891 1.350 . S
C897 H884 0.929 . S
C897 C889 1.433 . S
C897 N899 1.384 . S
N898 C894 1.427 . S
N898 C895 1.384 . S
N899 C891 1.427 . S
N899 C897 1.384 . S
H900 C906 0.930 . S
H901 C910 0.930 . S
H902 C915 0.929 . S
H903 C913 0.929 . S
H904 C908 0.929 . S
H905 C914 0.929 . S
C906 H900 0.930 . S
C906 C907 1.367 . S
C906 C914 1.378 . S
C907 C906 1.367 . S
C907 C915 1.433 . S
C908 H904 0.929 . S
C908 C910 1.378 . S
C908 C912 1.350 . S
C909 C912 1.463 . S
C909 C914 1.350 . S
C909 N917 1.427 . S
C910 H901 0.930 . S
C910 C908 1.378 . S
C910 C911 1.367 . S
C911 C910 1.367 . S
C911 C913 1.433 . S
C912 C908 1.350 . S
C912 C909 1.463 . S
C912 N916 1.427 . S
C913 H903 0.929 . S
C913 C911 1.433 . S
C913 N916 1.384 . S
C914 H905 0.929 . S
C914 C906 1.378 . S
C914 C909 1.350 . S
C915 H902 0.929 . S
C915 C907 1.433 . S
C915 N917 1.384 . S
N916 C912 1.427 . S
N916 C913 1.384 . S
N917 C909 1.427 . S
N917 C915 1.384 . S
H918 C924 0.930 . S
H919 C928 0.930 . S
H920 C933 0.929 . S
H921 C931 0.929 . S
H922 C926 0.929 . S
H923 C932 0.929 . S
C924 H918 0.930 . S
C924 C925 1.367 . S
C924 C932 1.378 . S
C925 C924 1.367 . S
C925 C933 1.433 . S
C926 H922 0.929 . S
C926 C928 1.378 . S
C926 C930 1.350 . S
C927 C930 1.463 . S
C927 C932 1.350 . S
C927 N935 1.427 . S
C928 H919 0.930 . S
C928 C926 1.378 . S
C928 C929 1.367 . S
C929 C928 1.367 . S
C929 C931 1.433 . S
C930 C926 1.350 . S
C930 C927 1.463 . S
C930 N934 1.427 . S
C931 H921 0.929 . S
C931 C929 1.433 . S
C931 N934 1.384 . S
C932 H923 0.929 . S
C932 C924 1.378 . S
C932 C927 1.350 . S
C933 H920 0.929 . S
C933 C925 1.433 . S
C933 N935 1.384 . S
N934 C930 1.427 . S
N934 C931 1.384 . S
N935 C927 1.427 . S
N935 C933 1.384 . S
H936 C942 0.930 . S
H937 C946 0.930 . S
H938 C951 0.929 . S
H939 C949 0.929 . S
H940 C944 0.929 . S
H941 C950 0.929 . S
C942 H936 0.930 . S
C942 C943 1.367 . S
C942 C950 1.378 . S
C943 C942 1.367 . S
C943 C951 1.433 . S
C944 H940 0.929 . S
C944 C946 1.378 . S
C944 C948 1.350 . S
C945 C948 1.463 . S
C945 C950 1.350 . S
C945 N953 1.427 . S
C946 H937 0.930 . S
C946 C944 1.378 . S
C946 C947 1.367 . S
C947 C946 1.367 . S
C947 C949 1.433 . S
C948 C944 1.350 . S
C948 C945 1.463 . S
C948 N952 1.427 . S
C949 H939 0.929 . S
C949 C947 1.433 . S
C949 N952 1.384 . S
C950 H941 0.929 . S
C950 C942 1.378 . S
C950 C945 1.350 . S
C951 H938 0.929 . S
C951 C943 1.433 . S
C951 N953 1.384 . S
N952 C948 1.427 . S
N952 C949 1.384 . S
N953 C945 1.427 . S
N953 C951 1.384 . S
H954 C960 0.930 . S
H955 C964 0.930 . S
H956 C969 0.929 . S
H957 C967 0.929 . S
H958 C962 0.929 . S
H959 C968 0.929 . S
C960 H954 0.930 . S
C960 C961 1.367 . S
C960 C968 1.378 . S
C961 C960 1.367 . S
C961 C969 1.433 . S
C962 H958 0.929 . S
C962 C964 1.378 . S
C962 C966 1.350 . S
C963 C966 1.463 . S
C963 C968 1.350 . S
C963 N971 1.427 . S
C964 H955 0.930 . S
C964 C962 1.378 . S
C964 C965 1.367 . S
C965 C964 1.367 . S
C965 C967 1.433 . S
C966 C962 1.350 . S
C966 C963 1.463 . S
C966 N970 1.427 . S
C967 H957 0.929 . S
C967 C965 1.433 . S
C967 N970 1.384 . S
C968 H959 0.929 . S
C968 C960 1.378 . S
C968 C963 1.350 . S
C969 H956 0.929 . S
C969 C961 1.433 . S
C969 N971 1.384 . S
N970 C966 1.427 . S
N970 C967 1.384 . S
N971 C963 1.427 . S
N971 C969 1.384 . S
H972 C978 0.930 . S
H973 C982 0.930 . S
H974 C987 0.929 . S
H975 C985 0.929 . S
H976 C980 0.929 . S
H977 C986 0.929 . S
C978 H972 0.930 . S
C978 C979 1.367 . S
C978 C986 1.378 . S
C979 C978 1.367 . S
C979 C987 1.433 . S
C980 H976 0.929 . S
C980 C982 1.378 . S
C980 C984 1.350 . S
C981 C984 1.463 . S
C981 C986 1.350 . S
C981 N989 1.427 . S
C982 H973 0.930 . S
C982 C980 1.378 . S
C982 C983 1.367 . S
C983 C982 1.367 . S
C983 C985 1.433 . S
C984 C980 1.350 . S
C984 C981 1.463 . S
C984 N988 1.427 . S
C985 H975 0.929 . S
C985 C983 1.433 . S
C985 N988 1.384 . S
C986 H977 0.929 . S
C986 C978 1.378 . S
C986 C981 1.350 . S
C987 H974 0.929 . S
C987 C979 1.433 . S
C987 N989 1.384 . S
N988 C984 1.427 . S
N988 C985 1.384 . S
N989 C981 1.427 . S
N989 C987 1.384 . S
H990 C996 0.930 . S
H991 C1000 0.930 . S
H992 C1005 0.929 . S
H993 C1003 0.929 . S
H994 C998 0.929 . S
H995 C1004 0.929 . S
C996 H990 0.930 . S
C996 C997 1.367 . S
C996 C1004 1.378 . S
C997 C996 1.367 . S
C997 C1005 1.433 . S
C998 H994 0.929 . S
C998 C1000 1.378 . S
C998 C1002 1.350 . S
C999 C1002 1.463 . S
C999 C1004 1.350 . S
C999 N1007 1.427 . S
C1000 H991 0.930 . S
C1000 C998 1.378 . S
C1000 C1001 1.367 . S
C1001 C1000 1.367 . S
C1001 C1003 1.433 . S
C1002 C998 1.350 . S
C1002 C999 1.463 . S
C1002 N1006 1.427 . S
C1003 H993 0.929 . S
C1003 C1001 1.433 . S
C1003 N1006 1.384 . S
C1004 H995 0.929 . S
C1004 C996 1.378 . S
C1004 C999 1.350 . S
C1005 H992 0.929 . S
C1005 C997 1.433 . S
C1005 N1007 1.384 . S
N1006 C1002 1.427 . S
N1006 C1003 1.384 . S
N1007 C999 1.427 . S
N1007 C1005 1.384 . S
H1008 C1014 0.930 . S
H1009 C1018 0.930 . S
H1010 C1023 0.929 . S
H1011 C1021 0.929 . S
H1012 C1016 0.929 . S
H1013 C1022 0.929 . S
C1014 H1008 0.930 . S
C1014 C1015 1.367 . S
C1014 C1022 1.378 . S
C1015 C1014 1.367 . S
C1015 C1023 1.433 . S
C1016 H1012 0.929 . S
C1016 C1018 1.378 . S
C1016 C1020 1.350 . S
C1017 C1020 1.463 . S
C1017 C1022 1.350 . S
C1017 N1025 1.427 . S
C1018 H1009 0.930 . S
C1018 C1016 1.378 . S
C1018 C1019 1.367 . S
C1019 C1018 1.367 . S
C1019 C1021 1.433 . S
C1020 C1016 1.350 . S
C1020 C1017 1.463 . S
C1020 N1024 1.427 . S
C1021 H1011 0.929 . S
C1021 C1019 1.433 . S
C1021 N1024 1.384 . S
C1022 H1013 0.929 . S
C1022 C1014 1.378 . S
C1022 C1017 1.350 . S
C1023 H1010 0.929 . S
C1023 C1015 1.433 . S
C1023 N1025 1.384 . S
N1024 C1020 1.427 . S
N1024 C1021 1.384 . S
N1025 C1017 1.427 . S
N1025 C1023 1.384 . S
H1026 C1032 0.930 . S
H1027 C1036 0.930 . S
H1028 C1041 0.929 . S
H1029 C1039 0.929 . S
H1030 C1034 0.929 . S
H1031 C1040 0.929 . S
C1032 H1026 0.930 . S
C1032 C1033 1.367 . S
C1032 C1040 1.378 . S
C1033 C1032 1.367 . S
C1033 C1041 1.433 . S
C1034 H1030 0.929 . S
C1034 C1036 1.378 . S
C1034 C1038 1.350 . S
C1035 C1038 1.463 . S
C1035 C1040 1.350 . S
C1035 N1043 1.427 . S
C1036 H1027 0.930 . S
C1036 C1034 1.378 . S
C1036 C1037 1.367 . S
C1037 C1036 1.367 . S
C1037 C1039 1.433 . S
C1038 C1034 1.350 . S
C1038 C1035 1.463 . S
C1038 N1042 1.427 . S
C1039 H1029 0.929 . S
C1039 C1037 1.433 . S
C1039 N1042 1.384 . S
C1040 H1031 0.929 . S
C1040 C1032 1.378 . S
C1040 C1035 1.350 . S
C1041 H1028 0.929 . S
C1041 C1033 1.433 . S
C1041 N1043 1.384 . S
N1042 C1038 1.427 . S
N1042 C1039 1.384 . S
N1043 C1035 1.427 . S
N1043 C1041 1.384 . S
H1044 C1050 0.930 . S
H1045 C1054 0.930 . S
H1046 C1059 0.929 . S
H1047 C1057 0.929 . S
H1048 C1052 0.929 . S
H1049 C1058 0.929 . S
C1050 H1044 0.930 . S
C1050 C1051 1.367 . S
C1050 C1058 1.378 . S
C1051 C1050 1.367 . S
C1051 C1059 1.433 . S
C1052 H1048 0.929 . S
C1052 C1054 1.378 . S
C1052 C1056 1.350 . S
C1053 C1056 1.463 . S
C1053 C1058 1.350 . S
C1053 N1061 1.427 . S
C1054 H1045 0.930 . S
C1054 C1052 1.378 . S
C1054 C1055 1.367 . S
C1055 C1054 1.367 . S
C1055 C1057 1.433 . S
C1056 C1052 1.350 . S
C1056 C1053 1.463 . S
C1056 N1060 1.427 . S
C1057 H1047 0.929 . S
C1057 C1055 1.433 . S
C1057 N1060 1.384 . S
C1058 H1049 0.929 . S
C1058 C1050 1.378 . S
C1058 C1053 1.350 . S
C1059 H1046 0.929 . S
C1059 C1051 1.433 . S
C1059 N1061 1.384 . S
N1060 C1056 1.427 . S
N1060 C1057 1.384 . S
N1061 C1053 1.427 . S
N1061 C1059 1.384 . S
H1062 C1068 0.930 . S
H1063 C1072 0.930 . S
H1064 C1077 0.929 . S
H1065 C1075 0.929 . S
H1066 C1070 0.929 . S
H1067 C1076 0.929 . S
C1068 H1062 0.930 . S
C1068 C1069 1.367 . S
C1068 C1076 1.378 . S
C1069 C1068 1.367 . S
C1069 C1077 1.433 . S
C1070 H1066 0.929 . S
C1070 C1072 1.378 . S
C1070 C1074 1.350 . S
C1071 C1074 1.463 . S
C1071 C1076 1.350 . S
C1071 N1079 1.427 . S
C1072 H1063 0.930 . S
C1072 C1070 1.378 . S
C1072 C1073 1.367 . S
C1073 C1072 1.367 . S
C1073 C1075 1.433 . S
C1074 C1070 1.350 . S
C1074 C1071 1.463 . S
C1074 N1078 1.427 . S
C1075 H1065 0.929 . S
C1075 C1073 1.433 . S
C1075 N1078 1.384 . S
C1076 H1067 0.929 . S
C1076 C1068 1.378 . S
C1076 C1071 1.350 . S
C1077 H1064 0.929 . S
C1077 C1069 1.433 . S
C1077 N1079 1.384 . S
N1078 C1074 1.427 . S
N1078 C1075 1.384 . S
N1079 C1071 1.427 . S
N1079 C1077 1.384 . S
H1080 C1086 0.930 . S
H1081 C1090 0.930 . S
H1082 C1095 0.929 . S
H1083 C1093 0.929 . S
H1084 C1088 0.929 . S
H1085 C1094 0.929 . S
C1086 H1080 0.930 . S
C1086 C1087 1.367 . S
C1086 C1094 1.378 . S
C1087 C1086 1.367 . S
C1087 C1095 1.433 . S
C1088 H1084 0.929 . S
C1088 C1090 1.378 . S
C1088 C1092 1.350 . S
C1089 C1092 1.463 . S
C1089 C1094 1.350 . S
C1089 N1097 1.427 . S
C1090 H1081 0.930 . S
C1090 C1088 1.378 . S
C1090 C1091 1.367 . S
C1091 C1090 1.367 . S
C1091 C1093 1.433 . S
C1092 C1088 1.350 . S
C1092 C1089 1.463 . S
C1092 N1096 1.427 . S
C1093 H1083 0.929 . S
C1093 C1091 1.433 . S
C1093 N1096 1.384 . S
C1094 H1085 0.929 . S
C1094 C1086 1.378 . S
C1094 C1089 1.350 . S
C1095 H1082 0.929 . S
C1095 C1087 1.433 . S
C1095 N1097 1.384 . S
N1096 C1092 1.427 . S
N1096 C1093 1.384 . S
N1097 C1089 1.427 . S
N1097 C1095 1.384 . S
H1098 C1104 0.930 . S
H1099 C1108 0.930 . S
H1100 C1113 0.929 . S
H1101 C1111 0.929 . S
H1102 C1106 0.929 . S
H1103 C1112 0.929 . S
C1104 H1098 0.930 . S
C1104 C1105 1.367 . S
C1104 C1112 1.378 . S
C1105 C1104 1.367 . S
C1105 C1113 1.433 . S
C1106 H1102 0.929 . S
C1106 C1108 1.378 . S
C1106 C1110 1.350 . S
C1107 C1110 1.463 . S
C1107 C1112 1.350 . S
C1107 N1115 1.427 . S
C1108 H1099 0.930 . S
C1108 C1106 1.378 . S
C1108 C1109 1.367 . S
C1109 C1108 1.367 . S
C1109 C1111 1.433 . S
C1110 C1106 1.350 . S
C1110 C1107 1.463 . S
C1110 N1114 1.427 . S
C1111 H1101 0.929 . S
C1111 C1109 1.433 . S
C1111 N1114 1.384 . S
C1112 H1103 0.929 . S
C1112 C1104 1.378 . S
C1112 C1107 1.350 . S
C1113 H1100 0.929 . S
C1113 C1105 1.433 . S
C1113 N1115 1.384 . S
N1114 C1110 1.427 . S
N1114 C1111 1.384 . S
N1115 C1107 1.427 . S
N1115 C1113 1.384 . S
H1116 C1122 0.930 . S
H1117 C1126 0.930 . S
H1118 C1131 0.929 . S
H1119 C1129 0.929 . S
H1120 C1124 0.929 . S
H1121 C1130 0.929 . S
C1122 H1116 0.930 . S
C1122 C1123 1.367 . S
C1122 C1130 1.378 . S
C1123 C1122 1.367 . S
C1123 C1131 1.433 . S
C1124 H1120 0.929 . S
C1124 C1126 1.378 . S
C1124 C1128 1.350 . S
C1125 C1128 1.463 . S
C1125 C1130 1.350 . S
C1125 N1133 1.427 . S
C1126 H1117 0.930 . S
C1126 C1124 1.378 . S
C1126 C1127 1.367 . S
C1127 C1126 1.367 . S
C1127 C1129 1.433 . S
C1128 C1124 1.350 . S
C1128 C1125 1.463 . S
C1128 N1132 1.427 . S
C1129 H1119 0.929 . S
C1129 C1127 1.433 . S
C1129 N1132 1.384 . S
C1130 H1121 0.929 . S
C1130 C1122 1.378 . S
C1130 C1125 1.350 . S
C1131 H1118 0.929 . S
C1131 C1123 1.433 . S
C1131 N1133 1.384 . S
N1132 C1128 1.427 . S
N1132 C1129 1.384 . S
N1133 C1125 1.427 . S
N1133 C1131 1.384 . S
H1134 C1140 0.930 . S
H1135 C1144 0.930 . S
H1136 C1149 0.929 . S
H1137 C1147 0.929 . S
H1138 C1142 0.929 . S
H1139 C1148 0.929 . S
C1140 H1134 0.930 . S
C1140 C1141 1.367 . S
C1140 C1148 1.378 . S
C1141 C1140 1.367 . S
C1141 C1149 1.433 . S
C1142 H1138 0.929 . S
C1142 C1144 1.378 . S
C1142 C1146 1.350 . S
C1143 C1146 1.463 . S
C1143 C1148 1.350 . S
C1143 N1151 1.427 . S
C1144 H1135 0.930 . S
C1144 C1142 1.378 . S
C1144 C1145 1.367 . S
C1145 C1144 1.367 . S
C1145 C1147 1.433 . S
C1146 C1142 1.350 . S
C1146 C1143 1.463 . S
C1146 N1150 1.427 . S
C1147 H1137 0.929 . S
C1147 C1145 1.433 . S
C1147 N1150 1.384 . S
C1148 H1139 0.929 . S
C1148 C1140 1.378 . S
C1148 C1143 1.350 . S
C1149 H1136 0.929 . S
C1149 C1141 1.433 . S
C1149 N1151 1.384 . S
N1150 C1146 1.427 . S
N1150 C1147 1.384 . S
N1151 C1143 1.427 . S
N1151 C1149 1.384 . S
H1152 C1158 0.930 . S
H1153 C1162 0.930 . S
H1154 C1167 0.929 . S
H1155 C1165 0.929 . S
H1156 C1160 0.929 . S
H1157 C1166 0.929 . S
C1158 H1152 0.930 . S
C1158 C1159 1.367 . S
C1158 C1166 1.378 . S
C1159 C1158 1.367 . S
C1159 C1167 1.433 . S
C1160 H1156 0.929 . S
C1160 C1162 1.378 . S
C1160 C1164 1.350 . S
C1161 C1164 1.463 . S
C1161 C1166 1.350 . S
C1161 N1169 1.427 . S
C1162 H1153 0.930 . S
C1162 C1160 1.378 . S
C1162 C1163 1.367 . S
C1163 C1162 1.367 . S
C1163 C1165 1.433 . S
C1164 C1160 1.350 . S
C1164 C1161 1.463 . S
C1164 N1168 1.427 . S
C1165 H1155 0.929 . S
C1165 C1163 1.433 . S
C1165 N1168 1.384 . S
C1166 H1157 0.929 . S
C1166 C1158 1.378 . S
C1166 C1161 1.350 . S
C1167 H1154 0.929 . S
C1167 C1159 1.433 . S
C1167 N1169 1.384 . S
N1168 C1164 1.427 . S
N1168 C1165 1.384 . S
N1169 C1161 1.427 . S
N1169 C1167 1.384 . S
H1170 C1176 0.930 . S
H1171 C1180 0.930 . S
H1172 C1185 0.929 . S
H1173 C1183 0.929 . S
H1174 C1178 0.929 . S
H1175 C1184 0.929 . S
C1176 H1170 0.930 . S
C1176 C1177 1.367 . S
C1176 C1184 1.378 . S
C1177 C1176 1.367 . S
C1177 C1185 1.433 . S
C1178 H1174 0.929 . S
C1178 C1180 1.378 . S
C1178 C1182 1.350 . S
C1179 C1182 1.463 . S
C1179 C1184 1.350 . S
C1179 N1187 1.427 . S
C1180 H1171 0.930 . S
C1180 C1178 1.378 . S
C1180 C1181 1.367 . S
C1181 C1180 1.367 . S
C1181 C1183 1.433 . S
C1182 C1178 1.350 . S
C1182 C1179 1.463 . S
C1182 N1186 1.427 . S
C1183 H1173 0.929 . S
C1183 C1181 1.433 . S
C1183 N1186 1.384 . S
C1184 H1175 0.929 . S
C1184 C1176 1.378 . S
C1184 C1179 1.350 . S
C1185 H1172 0.929 . S
C1185 C1177 1.433 . S
C1185 N1187 1.384 . S
N1186 C1182 1.427 . S
N1186 C1183 1.384 . S
N1187 C1179 1.427 . S
N1187 C1185 1.384 . S
H1188 C1194 0.930 . S
H1189 C1198 0.930 . S
H1190 C1203 0.929 . S
H1191 C1201 0.929 . S
H1192 C1196 0.929 . S
H1193 C1202 0.929 . S
C1194 H1188 0.930 . S
C1194 C1195 1.367 . S
C1194 C1202 1.378 . S
C1195 C1194 1.367 . S
C1195 C1203 1.433 . S
C1196 H1192 0.929 . S
C1196 C1198 1.378 . S
C1196 C1200 1.350 . S
C1197 C1200 1.463 . S
C1197 C1202 1.350 . S
C1197 N1205 1.427 . S
C1198 H1189 0.930 . S
C1198 C1196 1.378 . S
C1198 C1199 1.367 . S
C1199 C1198 1.367 . S
C1199 C1201 1.433 . S
C1200 C1196 1.350 . S
C1200 C1197 1.463 . S
C1200 N1204 1.427 . S
C1201 H1191 0.929 . S
C1201 C1199 1.433 . S
C1201 N1204 1.384 . S
C1202 H1193 0.929 . S
C1202 C1194 1.378 . S
C1202 C1197 1.350 . S
C1203 H1190 0.929 . S
C1203 C1195 1.433 . S
C1203 N1205 1.384 . S
N1204 C1200 1.427 . S
N1204 C1201 1.384 . S
N1205 C1197 1.427 . S
N1205 C1203 1.384 . S
H1206 C1212 0.930 . S
H1207 C1216 0.930 . S
H1208 C1221 0.929 . S
H1209 C1219 0.929 . S
H1210 C1214 0.929 . S
H1211 C1220 0.929 . S
C1212 H1206 0.930 . S
C1212 C1213 1.367 . S
C1212 C1220 1.378 . S
C1213 C1212 1.367 . S
C1213 C1221 1.433 . S
C1214 H1210 0.929 . S
C1214 C1216 1.378 . S
C1214 C1218 1.350 . S
C1215 C1218 1.463 . S
C1215 C1220 1.350 . S
C1215 N1223 1.427 . S
C1216 H1207 0.930 . S
C1216 C1214 1.378 . S
C1216 C1217 1.367 . S
C1217 C1216 1.367 . S
C1217 C1219 1.433 . S
C1218 C1214 1.350 . S
C1218 C1215 1.463 . S
C1218 N1222 1.427 . S
C1219 H1209 0.929 . S
C1219 C1217 1.433 . S
C1219 N1222 1.384 . S
C1220 H1211 0.929 . S
C1220 C1212 1.378 . S
C1220 C1215 1.350 . S
C1221 H1208 0.929 . S
C1221 C1213 1.433 . S
C1221 N1223 1.384 . S
N1222 C1218 1.427 . S
N1222 C1219 1.384 . S
N1223 C1215 1.427 . S
N1223 C1221 1.384 . S
H1224 C1230 0.930 . S
H1225 C1234 0.930 . S
H1226 C1239 0.929 . S
H1227 C1237 0.929 . S
H1228 C1232 0.929 . S
H1229 C1238 0.929 . S
C1230 H1224 0.930 . S
C1230 C1231 1.367 . S
C1230 C1238 1.378 . S
C1231 C1230 1.367 . S
C1231 C1239 1.433 . S
C1232 H1228 0.929 . S
C1232 C1234 1.378 . S
C1232 C1236 1.350 . S
C1233 C1236 1.463 . S
C1233 C1238 1.350 . S
C1233 N1241 1.427 . S
C1234 H1225 0.930 . S
C1234 C1232 1.378 . S
C1234 C1235 1.367 . S
C1235 C1234 1.367 . S
C1235 C1237 1.433 . S
C1236 C1232 1.350 . S
C1236 C1233 1.463 . S
C1236 N1240 1.427 . S
C1237 H1227 0.929 . S
C1237 C1235 1.433 . S
C1237 N1240 1.384 . S
C1238 H1229 0.929 . S
C1238 C1230 1.378 . S
C1238 C1233 1.350 . S
C1239 H1226 0.929 . S
C1239 C1231 1.433 . S
C1239 N1241 1.384 . S
N1240 C1236 1.427 . S
N1240 C1237 1.384 . S
N1241 C1233 1.427 . S
N1241 C1239 1.384 . S
H1242 C1248 0.930 . S
H1243 C1252 0.930 . S
H1244 C1257 0.929 . S
H1245 C1255 0.929 . S
H1246 C1250 0.929 . S
H1247 C1256 0.929 . S
C1248 H1242 0.930 . S
C1248 C1249 1.367 . S
C1248 C1256 1.378 . S
C1249 C1248 1.367 . S
C1249 C1257 1.433 . S
C1250 H1246 0.929 . S
C1250 C1252 1.378 . S
C1250 C1254 1.350 . S
C1251 C1254 1.463 . S
C1251 C1256 1.350 . S
C1251 N1259 1.427 . S
C1252 H1243 0.930 . S
C1252 C1250 1.378 . S
C1252 C1253 1.367 . S
C1253 C1252 1.367 . S
C1253 C1255 1.433 . S
C1254 C1250 1.350 . S
C1254 C1251 1.463 . S
C1254 N1258 1.427 . S
C1255 H1245 0.929 . S
C1255 C1253 1.433 . S
C1255 N1258 1.384 . S
C1256 H1247 0.929 . S
C1256 C1248 1.378 . S
C1256 C1251 1.350 . S
C1257 H1244 0.929 . S
C1257 C1249 1.433 . S
C1257 N1259 1.384 . S
N1258 C1254 1.427 . S
N1258 C1255 1.384 . S
N1259 C1251 1.427 . S
N1259 C1257 1.384 . S
H1260 C1266 0.930 . S
H1261 C1270 0.930 . S
H1262 C1275 0.929 . S
H1263 C1273 0.929 . S
H1264 C1268 0.929 . S
H1265 C1274 0.929 . S
C1266 H1260 0.930 . S
C1266 C1267 1.367 . S
C1266 C1274 1.378 . S
C1267 C1266 1.367 . S
C1267 C1275 1.433 . S
C1268 H1264 0.929 . S
C1268 C1270 1.378 . S
C1268 C1272 1.350 . S
C1269 C1272 1.463 . S
C1269 C1274 1.350 . S
C1269 N1277 1.427 . S
C1270 H1261 0.930 . S
C1270 C1268 1.378 . S
C1270 C1271 1.367 . S
C1271 C1270 1.367 . S
C1271 C1273 1.433 . S
C1272 C1268 1.350 . S
C1272 C1269 1.463 . S
C1272 N1276 1.427 . S
C1273 H1263 0.929 . S
C1273 C1271 1.433 . S
C1273 N1276 1.384 . S
C1274 H1265 0.929 . S
C1274 C1266 1.378 . S
C1274 C1269 1.350 . S
C1275 H1262 0.929 . S
C1275 C1267 1.433 . S
C1275 N1277 1.384 . S
N1276 C1272 1.427 . S
N1276 C1273 1.384 . S
N1277 C1269 1.427 . S
N1277 C1275 1.384 . S
H1278 C1284 0.930 . S
H1279 C1288 0.930 . S
H1280 C1293 0.929 . S
H1281 C1291 0.929 . S
H1282 C1286 0.929 . S
H1283 C1292 0.929 . S
C1284 H1278 0.930 . S
C1284 C1285 1.367 . S
C1284 C1292 1.378 . S
C1285 C1284 1.367 . S
C1285 C1293 1.433 . S
C1286 H1282 0.929 . S
C1286 C1288 1.378 . S
C1286 C1290 1.350 . S
C1287 C1290 1.463 . S
C1287 C1292 1.350 . S
C1287 N1295 1.427 . S
C1288 H1279 0.930 . S
C1288 C1286 1.378 . S
C1288 C1289 1.367 . S
C1289 C1288 1.367 . S
C1289 C1291 1.433 . S
C1290 C1286 1.350 . S
C1290 C1287 1.463 . S
C1290 N1294 1.427 . S
C1291 H1281 0.929 . S
C1291 C1289 1.433 . S
C1291 N1294 1.384 . S
C1292 H1283 0.929 . S
C1292 C1284 1.378 . S
C1292 C1287 1.350 . S
C1293 H1280 0.929 . S
C1293 C1285 1.433 . S
C1293 N1295 1.384 . S
N1294 C1290 1.427 . S
N1294 C1291 1.384 . S
N1295 C1287 1.427 . S
N1295 C1293 1.384 . S
H1296 C1302 0.930 . S
H1297 C1306 0.930 . S
H1298 C1311 0.929 . S
H1299 C1309 0.929 . S
H1300 C1304 0.929 . S
H1301 C1310 0.929 . S
C1302 H1296 0.930 . S
C1302 C1303 1.367 . S
C1302 C1310 1.378 . S
C1303 C1302 1.367 . S
C1303 C1311 1.433 . S
C1304 H1300 0.929 . S
C1304 C1306 1.378 . S
C1304 C1308 1.350 . S
C1305 C1308 1.463 . S
C1305 C1310 1.350 . S
C1305 N1313 1.427 . S
C1306 H1297 0.930 . S
C1306 C1304 1.378 . S
C1306 C1307 1.367 . S
C1307 C1306 1.367 . S
C1307 C1309 1.433 . S
C1308 C1304 1.350 . S
C1308 C1305 1.463 . S
C1308 N1312 1.427 . S
C1309 H1299 0.929 . S
C1309 C1307 1.433 . S
C1309 N1312 1.384 . S
C1310 H1301 0.929 . S
C1310 C1302 1.378 . S
C1310 C1305 1.350 . S
C1311 H1298 0.929 . S
C1311 C1303 1.433 . S
C1311 N1313 1.384 . S
N1312 C1308 1.427 . S
N1312 C1309 1.384 . S
N1313 C1305 1.427 . S
N1313 C1311 1.384 . S
H1314 C1320 0.930 . S
H1315 C1324 0.930 . S
H1316 C1329 0.929 . S
H1317 C1327 0.929 . S
H1318 C1322 0.929 . S
H1319 C1328 0.929 . S
C1320 H1314 0.930 . S
C1320 C1321 1.367 . S
C1320 C1328 1.378 . S
C1321 C1320 1.367 . S
C1321 C1329 1.433 . S
C1322 H1318 0.929 . S
C1322 C1324 1.378 . S
C1322 C1326 1.350 . S
C1323 C1326 1.463 . S
C1323 C1328 1.350 . S
C1323 N1331 1.427 . S
C1324 H1315 0.930 . S
C1324 C1322 1.378 . S
C1324 C1325 1.367 . S
C1325 C1324 1.367 . S
C1325 C1327 1.433 . S
C1326 C1322 1.350 . S
C1326 C1323 1.463 . S
C1326 N1330 1.427 . S
C1327 H1317 0.929 . S
C1327 C1325 1.433 . S
C1327 N1330 1.384 . S
C1328 H1319 0.929 . S
C1328 C1320 1.378 . S
C1328 C1323 1.350 . S
C1329 H1316 0.929 . S
C1329 C1321 1.433 . S
C1329 N1331 1.384 . S
N1330 C1326 1.427 . S
N1330 C1327 1.384 . S
N1331 C1323 1.427 . S
N1331 C1329 1.384 . S
H1332 C1338 0.930 . S
H1333 C1342 0.930 . S
H1334 C1347 0.929 . S
H1335 C1345 0.929 . S
H1336 C1340 0.929 . S
H1337 C1346 0.929 . S
C1338 H1332 0.930 . S
C1338 C1339 1.367 . S
C1338 C1346 1.378 . S
C1339 C1338 1.367 . S
C1339 C1347 1.433 . S
C1340 H1336 0.929 . S
C1340 C1342 1.378 . S
C1340 C1344 1.350 . S
C1341 C1344 1.463 . S
C1341 C1346 1.350 . S
C1341 N1349 1.427 . S
C1342 H1333 0.930 . S
C1342 C1340 1.378 . S
C1342 C1343 1.367 . S
C1343 C1342 1.367 . S
C1343 C1345 1.433 . S
C1344 C1340 1.350 . S
C1344 C1341 1.463 . S
C1344 N1348 1.427 . S
C1345 H1335 0.929 . S
C1345 C1343 1.433 . S
C1345 N1348 1.384 . S
C1346 H1337 0.929 . S
C1346 C1338 1.378 . S
C1346 C1341 1.350 . S
C1347 H1334 0.929 . S
C1347 C1339 1.433 . S
C1347 N1349 1.384 . S
N1348 C1344 1.427 . S
N1348 C1345 1.384 . S
N1349 C1341 1.427 . S
N1349 C1347 1.384 . S
H1350 C1356 0.930 . S
H1351 C1360 0.930 . S
H1352 C1365 0.929 . S
H1353 C1363 0.929 . S
H1354 C1358 0.929 . S
H1355 C1364 0.929 . S
C1356 H1350 0.930 . S
C1356 C1357 1.367 . S
C1356 C1364 1.378 . S
C1357 C1356 1.367 . S
C1357 C1365 1.433 . S
C1358 H1354 0.929 . S
C1358 C1360 1.378 . S
C1358 C1362 1.350 . S
C1359 C1362 1.463 . S
C1359 C1364 1.350 . S
C1359 N1367 1.427 . S
C1360 H1351 0.930 . S
C1360 C1358 1.378 . S
C1360 C1361 1.367 . S
C1361 C1360 1.367 . S
C1361 C1363 1.433 . S
C1362 C1358 1.350 . S
C1362 C1359 1.463 . S
C1362 N1366 1.427 . S
C1363 H1353 0.929 . S
C1363 C1361 1.433 . S
C1363 N1366 1.384 . S
C1364 H1355 0.929 . S
C1364 C1356 1.378 . S
C1364 C1359 1.350 . S
C1365 H1352 0.929 . S
C1365 C1357 1.433 . S
C1365 N1367 1.384 . S
N1366 C1362 1.427 . S
N1366 C1363 1.384 . S
N1367 C1359 1.427 . S
N1367 C1365 1.384 . S
H1368 C1374 0.930 . S
H1369 C1378 0.930 . S
H1370 C1383 0.929 . S
H1371 C1381 0.929 . S
H1372 C1376 0.929 . S
H1373 C1382 0.929 . S
C1374 H1368 0.930 . S
C1374 C1375 1.367 . S
C1374 C1382 1.378 . S
C1375 C1374 1.367 . S
C1375 C1383 1.433 . S
C1376 H1372 0.929 . S
C1376 C1378 1.378 . S
C1376 C1380 1.350 . S
C1377 C1380 1.463 . S
C1377 C1382 1.350 . S
C1377 N1385 1.427 . S
C1378 H1369 0.930 . S
C1378 C1376 1.378 . S
C1378 C1379 1.367 . S
C1379 C1378 1.367 . S
C1379 C1381 1.433 . S
C1380 C1376 1.350 . S
C1380 C1377 1.463 . S
C1380 N1384 1.427 . S
C1381 H1371 0.929 . S
C1381 C1379 1.433 . S
C1381 N1384 1.384 . S
C1382 H1373 0.929 . S
C1382 C1374 1.378 . S
C1382 C1377 1.350 . S
C1383 H1370 0.929 . S
C1383 C1375 1.433 . S
C1383 N1385 1.384 . S
N1384 C1380 1.427 . S
N1384 C1381 1.384 . S
N1385 C1377 1.427 . S
N1385 C1383 1.384 . S
H1386 C1392 0.930 . S
H1387 C1396 0.930 . S
H1388 C1401 0.929 . S
H1389 C1399 0.929 . S
H1390 C1394 0.929 . S
H1391 C1400 0.929 . S
C1392 H1386 0.930 . S
C1392 C1393 1.367 . S
C1392 C1400 1.378 . S
C1393 C1392 1.367 . S
C1393 C1401 1.433 . S
C1394 H1390 0.929 . S
C1394 C1396 1.378 . S
C1394 C1398 1.350 . S
C1395 C1398 1.463 . S
C1395 C1400 1.350 . S
C1395 N1403 1.427 . S
C1396 H1387 0.930 . S
C1396 C1394 1.378 . S
C1396 C1397 1.367 . S
C1397 C1396 1.367 . S
C1397 C1399 1.433 . S
C1398 C1394 1.350 . S
C1398 C1395 1.463 . S
C1398 N1402 1.427 . S
C1399 H1389 0.929 . S
C1399 C1397 1.433 . S
C1399 N1402 1.384 . S
C1400 H1391 0.929 . S
C1400 C1392 1.378 . S
C1400 C1395 1.350 . S
C1401 H1388 0.929 . S
C1401 C1393 1.433 . S
C1401 N1403 1.384 . S
N1402 C1398 1.427 . S
N1402 C1399 1.384 . S
N1403 C1395 1.427 . S
N1403 C1401 1.384 . S
H1404 C1410 0.930 . S
H1405 C1414 0.930 . S
H1406 C1419 0.929 . S
H1407 C1417 0.929 . S
H1408 C1412 0.929 . S
H1409 C1418 0.929 . S
C1410 H1404 0.930 . S
C1410 C1411 1.367 . S
C1410 C1418 1.378 . S
C1411 C1410 1.367 . S
C1411 C1419 1.433 . S
C1412 H1408 0.929 . S
C1412 C1414 1.378 . S
C1412 C1416 1.350 . S
C1413 C1416 1.463 . S
C1413 C1418 1.350 . S
C1413 N1421 1.427 . S
C1414 H1405 0.930 . S
C1414 C1412 1.378 . S
C1414 C1415 1.367 . S
C1415 C1414 1.367 . S
C1415 C1417 1.433 . S
C1416 C1412 1.350 . S
C1416 C1413 1.463 . S
C1416 N1420 1.427 . S
C1417 H1407 0.929 . S
C1417 C1415 1.433 . S
C1417 N1420 1.384 . S
C1418 H1409 0.929 . S
C1418 C1410 1.378 . S
C1418 C1413 1.350 . S
C1419 H1406 0.929 . S
C1419 C1411 1.433 . S
C1419 N1421 1.384 . S
N1420 C1416 1.427 . S
N1420 C1417 1.384 . S
N1421 C1413 1.427 . S
N1421 C1419 1.384 . S
H1422 C1428 0.930 . S
H1423 C1432 0.930 . S
H1424 C1437 0.929 . S
H1425 C1435 0.929 . S
H1426 C1430 0.929 . S
H1427 C1436 0.929 . S
C1428 H1422 0.930 . S
C1428 C1429 1.367 . S
C1428 C1436 1.378 . S
C1429 C1428 1.367 . S
C1429 C1437 1.433 . S
C1430 H1426 0.929 . S
C1430 C1432 1.378 . S
C1430 C1434 1.350 . S
C1431 C1434 1.463 . S
C1431 C1436 1.350 . S
C1431 N1439 1.427 . S
C1432 H1423 0.930 . S
C1432 C1430 1.378 . S
C1432 C1433 1.367 . S
C1433 C1432 1.367 . S
C1433 C1435 1.433 . S
C1434 C1430 1.350 . S
C1434 C1431 1.463 . S
C1434 N1438 1.427 . S
C1435 H1425 0.929 . S
C1435 C1433 1.433 . S
C1435 N1438 1.384 . S
C1436 H1427 0.929 . S
C1436 C1428 1.378 . S
C1436 C1431 1.350 . S
C1437 H1424 0.929 . S
C1437 C1429 1.433 . S
C1437 N1439 1.384 . S
N1438 C1434 1.427 . S
N1438 C1435 1.384 . S
N1439 C1431 1.427 . S
N1439 C1437 1.384 . S
H1440 C1446 0.930 . S
H1441 C1450 0.930 . S
H1442 C1455 0.929 . S
H1443 C1453 0.929 . S
H1444 C1448 0.929 . S
H1445 C1454 0.929 . S
C1446 H1440 0.930 . S
C1446 C1447 1.367 . S
C1446 C1454 1.378 . S
C1447 C1446 1.367 . S
C1447 C1455 1.433 . S
C1448 H1444 0.929 . S
C1448 C1450 1.378 . S
C1448 C1452 1.350 . S
C1449 C1452 1.463 . S
C1449 C1454 1.350 . S
C1449 N1457 1.427 . S
C1450 H1441 0.930 . S
C1450 C1448 1.378 . S
C1450 C1451 1.367 . S
C1451 C1450 1.367 . S
C1451 C1453 1.433 . S
C1452 C1448 1.350 . S
C1452 C1449 1.463 . S
C1452 N1456 1.427 . S
C1453 H1443 0.929 . S
C1453 C1451 1.433 . S
C1453 N1456 1.384 . S
C1454 H1445 0.929 . S
C1454 C1446 1.378 . S
C1454 C1449 1.350 . S
C1455 H1442 0.929 . S
C1455 C1447 1.433 . S
C1455 N1457 1.384 . S
N1456 C1452 1.427 . S
N1456 C1453 1.384 . S
N1457 C1449 1.427 . S
N1457 C1455 1.384 . S
H1458 C1464 0.930 . S
H1459 C1468 0.930 . S
H1460 C1473 0.929 . S
H1461 C1471 0.929 . S
H1462 C1466 0.929 . S
H1463 C1472 0.929 . S
C1464 H1458 0.930 . S
C1464 C1465 1.367 . S
C1464 C1472 1.378 . S
C1465 C1464 1.367 . S
C1465 C1473 1.433 . S
C1466 H1462 0.929 . S
C1466 C1468 1.378 . S
C1466 C1470 1.350 . S
C1467 C1470 1.463 . S
C1467 C1472 1.350 . S
C1467 N1475 1.427 . S
C1468 H1459 0.930 . S
C1468 C1466 1.378 . S
C1468 C1469 1.367 . S
C1469 C1468 1.367 . S
C1469 C1471 1.433 . S
C1470 C1466 1.350 . S
C1470 C1467 1.463 . S
C1470 N1474 1.427 . S
C1471 H1461 0.929 . S
C1471 C1469 1.433 . S
C1471 N1474 1.384 . S
C1472 H1463 0.929 . S
C1472 C1464 1.378 . S
C1472 C1467 1.350 . S
C1473 H1460 0.929 . S
C1473 C1465 1.433 . S
C1473 N1475 1.384 . S
N1474 C1470 1.427 . S
N1474 C1471 1.384 . S
N1475 C1467 1.427 . S
N1475 C1473 1.384 . S
H1476 C1482 0.930 . S
H1477 C1486 0.930 . S
H1478 C1491 0.929 . S
H1479 C1489 0.929 . S
H1480 C1484 0.929 . S
H1481 C1490 0.929 . S
C1482 H1476 0.930 . S
C1482 C1483 1.367 . S
C1482 C1490 1.378 . S
C1483 C1482 1.367 . S
C1483 C1491 1.433 . S
C1484 H1480 0.929 . S
C1484 C1486 1.378 . S
C1484 C1488 1.350 . S
C1485 C1488 1.463 . S
C1485 C1490 1.350 . S
C1485 N1493 1.427 . S
C1486 H1477 0.930 . S
C1486 C1484 1.378 . S
C1486 C1487 1.367 . S
C1487 C1486 1.367 . S
C1487 C1489 1.433 . S
C1488 C1484 1.350 . S
C1488 C1485 1.463 . S
C1488 N1492 1.427 . S
C1489 H1479 0.929 . S
C1489 C1487 1.433 . S
C1489 N1492 1.384 . S
C1490 H1481 0.929 . S
C1490 C1482 1.378 . S
C1490 C1485 1.350 . S
C1491 H1478 0.929 . S
C1491 C1483 1.433 . S
C1491 N1493 1.384 . S
N1492 C1488 1.427 . S
N1492 C1489 1.384 . S
N1493 C1485 1.427 . S
N1493 C1491 1.384 . S
H1494 C1500 0.930 . S
H1495 C1504 0.930 . S
H1496 C1509 0.929 . S
H1497 C1507 0.929 . S
H1498 C1502 0.929 . S
H1499 C1508 0.929 . S
C1500 H1494 0.930 . S
C1500 C1501 1.367 . S
C1500 C1508 1.378 . S
C1501 C1500 1.367 . S
C1501 C1509 1.433 . S
C1502 H1498 0.929 . S
C1502 C1504 1.378 . S
C1502 C1506 1.350 . S
C1503 C1506 1.463 . S
C1503 C1508 1.350 . S
C1503 N1511 1.427 . S
C1504 H1495 0.930 . S
C1504 C1502 1.378 . S
C1504 C1505 1.367 . S
C1505 C1504 1.367 . S
C1505 C1507 1.433 . S
C1506 C1502 1.350 . S
C1506 C1503 1.463 . S
C1506 N1510 1.427 . S
C1507 H1497 0.929 . S
C1507 C1505 1.433 . S
C1507 N1510 1.384 . S
C1508 H1499 0.929 . S
C1508 C1500 1.378 . S
C1508 C1503 1.350 . S
C1509 H1496 0.929 . S
C1509 C1501 1.433 . S
C1509 N1511 1.384 . S
N1510 C1506 1.427 . S
N1510 C1507 1.384 . S
N1511 C1503 1.427 . S
N1511 C1509 1.384 . S
H1512 C1518 0.930 . S
H1513 C1522 0.930 . S
H1514 C1527 0.929 . S
H1515 C1525 0.929 . S
H1516 C1520 0.929 . S
H1517 C1526 0.929 . S
C1518 H1512 0.930 . S
C1518 C1519 1.367 . S
C1518 C1526 1.378 . S
C1519 C1518 1.367 . S
C1519 C1527 1.433 . S
C1520 H1516 0.929 . S
C1520 C1522 1.378 . S
C1520 C1524 1.350 . S
C1521 C1524 1.463 . S
C1521 C1526 1.350 . S
C1521 N1529 1.427 . S
C1522 H1513 0.930 . S
C1522 C1520 1.378 . S
C1522 C1523 1.367 . S
C1523 C1522 1.367 . S
C1523 C1525 1.433 . S
C1524 C1520 1.350 . S
C1524 C1521 1.463 . S
C1524 N1528 1.427 . S
C1525 H1515 0.929 . S
C1525 C1523 1.433 . S
C1525 N1528 1.384 . S
C1526 H1517 0.929 . S
C1526 C1518 1.378 . S
C1526 C1521 1.350 . S
C1527 H1514 0.929 . S
C1527 C1519 1.433 . S
C1527 N1529 1.384 . S
N1528 C1524 1.427 . S
N1528 C1525 1.384 . S
N1529 C1521 1.427 . S
N1529 C1527 1.384 . S
H1530 C1536 0.930 . S
H1531 C1540 0.930 . S
H1532 C1545 0.929 . S
H1533 C1543 0.929 . S
H1534 C1538 0.929 . S
H1535 C1544 0.929 . S
C1536 H1530 0.930 . S
C1536 C1537 1.367 . S
C1536 C1544 1.378 . S
C1537 C1536 1.367 . S
C1537 C1545 1.433 . S
C1538 H1534 0.929 . S
C1538 C1540 1.378 . S
C1538 C1542 1.350 . S
C1539 C1542 1.463 . S
C1539 C1544 1.350 . S
C1539 N1547 1.427 . S
C1540 H1531 0.930 . S
C1540 C1538 1.378 . S
C1540 C1541 1.367 . S
C1541 C1540 1.367 . S
C1541 C1543 1.433 . S
C1542 C1538 1.350 . S
C1542 C1539 1.463 . S
C1542 N1546 1.427 . S
C1543 H1533 0.929 . S
C1543 C1541 1.433 . S
C1543 N1546 1.384 . S
C1544 H1535 0.929 . S
C1544 C1536 1.378 . S
C1544 C1539 1.350 . S
C1545 H1532 0.929 . S
C1545 C1537 1.433 . S
C1545 N1547 1.384 . S
N1546 C1542 1.427 . S
N1546 C1543 1.384 . S
N1547 C1539 1.427 . S
N1547 C1545 1.384 . S
H1548 C1554 0.930 . S
H1549 C1558 0.930 . S
H1550 C1563 0.929 . S
H1551 C1561 0.929 . S
H1552 C1556 0.929 . S
H1553 C1562 0.929 . S
C1554 H1548 0.930 . S
C1554 C1555 1.367 . S
C1554 C1562 1.378 . S
C1555 C1554 1.367 . S
C1555 C1563 1.433 . S
C1556 H1552 0.929 . S
C1556 C1558 1.378 . S
C1556 C1560 1.350 . S
C1557 C1560 1.463 . S
C1557 C1562 1.350 . S
C1557 N1565 1.427 . S
C1558 H1549 0.930 . S
C1558 C1556 1.378 . S
C1558 C1559 1.367 . S
C1559 C1558 1.367 . S
C1559 C1561 1.433 . S
C1560 C1556 1.350 . S
C1560 C1557 1.463 . S
C1560 N1564 1.427 . S
C1561 H1551 0.929 . S
C1561 C1559 1.433 . S
C1561 N1564 1.384 . S
C1562 H1553 0.929 . S
C1562 C1554 1.378 . S
C1562 C1557 1.350 . S
C1563 H1550 0.929 . S
C1563 C1555 1.433 . S
C1563 N1565 1.384 . S
N1564 C1560 1.427 . S
N1564 C1561 1.384 . S
N1565 C1557 1.427 . S
N1565 C1563 1.384 . S
H1566 C1572 0.930 . S
H1567 C1576 0.930 . S
H1568 C1581 0.929 . S
H1569 C1579 0.929 . S
H1570 C1574 0.929 . S
H1571 C1580 0.929 . S
C1572 H1566 0.930 . S
C1572 C1573 1.367 . S
C1572 C1580 1.378 . S
C1573 C1572 1.367 . S
C1573 C1581 1.433 . S
C1574 H1570 0.929 . S
C1574 C1576 1.378 . S
C1574 C1578 1.350 . S
C1575 C1578 1.463 . S
C1575 C1580 1.350 . S
C1575 N1583 1.427 . S
C1576 H1567 0.930 . S
C1576 C1574 1.378 . S
C1576 C1577 1.367 . S
C1577 C1576 1.367 . S
C1577 C1579 1.433 . S
C1578 C1574 1.350 . S
C1578 C1575 1.463 . S
C1578 N1582 1.427 . S
C1579 H1569 0.929 . S
C1579 C1577 1.433 . S
C1579 N1582 1.384 . S
C1580 H1571 0.929 . S
C1580 C1572 1.378 . S
C1580 C1575 1.350 . S
C1581 H1568 0.929 . S
C1581 C1573 1.433 . S
C1581 N1583 1.384 . S
N1582 C1578 1.427 . S
N1582 C1579 1.384 . S
N1583 C1575 1.427 . S
N1583 C1581 1.384 . S
H1584 C1590 0.930 . S
H1585 C1594 0.930 . S
H1586 C1599 0.929 . S
H1587 C1597 0.929 . S
H1588 C1592 0.929 . S
H1589 C1598 0.929 . S
C1590 H1584 0.930 . S
C1590 C1591 1.367 . S
C1590 C1598 1.378 . S
C1591 C1590 1.367 . S
C1591 C1599 1.433 . S
C1592 H1588 0.929 . S
C1592 C1594 1.378 . S
C1592 C1596 1.350 . S
C1593 C1596 1.463 . S
C1593 C1598 1.350 . S
C1593 N1601 1.427 . S
C1594 H1585 0.930 . S
C1594 C1592 1.378 . S
C1594 C1595 1.367 . S
C1595 C1594 1.367 . S
C1595 C1597 1.433 . S
C1596 C1592 1.350 . S
C1596 C1593 1.463 . S
C1596 N1600 1.427 . S
C1597 H1587 0.929 . S
C1597 C1595 1.433 . S
C1597 N1600 1.384 . S
C1598 H1589 0.929 . S
C1598 C1590 1.378 . S
C1598 C1593 1.350 . S
C1599 H1586 0.929 . S
C1599 C1591 1.433 . S
C1599 N1601 1.384 . S
N1600 C1596 1.427 . S
N1600 C1597 1.384 . S
N1601 C1593 1.427 . S
N1601 C1599 1.384 . S
H1602 C1608 0.930 . S
H1603 C1612 0.930 . S
H1604 C1617 0.929 . S
H1605 C1615 0.929 . S
H1606 C1610 0.929 . S
H1607 C1616 0.929 . S
C1608 H1602 0.930 . S
C1608 C1609 1.367 . S
C1608 C1616 1.378 . S
C1609 C1608 1.367 . S
C1609 C1617 1.433 . S
C1610 H1606 0.929 . S
C1610 C1612 1.378 . S
C1610 C1614 1.350 . S
C1611 C1614 1.463 . S
C1611 C1616 1.350 . S
C1611 N1619 1.427 . S
C1612 H1603 0.930 . S
C1612 C1610 1.378 . S
C1612 C1613 1.367 . S
C1613 C1612 1.367 . S
C1613 C1615 1.433 . S
C1614 C1610 1.350 . S
C1614 C1611 1.463 . S
C1614 N1618 1.427 . S
C1615 H1605 0.929 . S
C1615 C1613 1.433 . S
C1615 N1618 1.384 . S
C1616 H1607 0.929 . S
C1616 C1608 1.378 . S
C1616 C1611 1.350 . S
C1617 H1604 0.929 . S
C1617 C1609 1.433 . S
C1617 N1619 1.384 . S
N1618 C1614 1.427 . S
N1618 C1615 1.384 . S
N1619 C1611 1.427 . S
N1619 C1617 1.384 . S
H1620 C1626 0.930 . S
H1621 C1630 0.930 . S
H1622 C1635 0.929 . S
H1623 C1633 0.929 . S
H1624 C1628 0.929 . S
H1625 C1634 0.929 . S
C1626 H1620 0.930 . S
C1626 C1627 1.367 . S
C1626 C1634 1.378 . S
C1627 C1626 1.367 . S
C1627 C1635 1.433 . S
C1628 H1624 0.929 . S
C1628 C1630 1.378 . S
C1628 C1632 1.350 . S
C1629 C1632 1.463 . S
C1629 C1634 1.350 . S
C1629 N1637 1.427 . S
C1630 H1621 0.930 . S
C1630 C1628 1.378 . S
C1630 C1631 1.367 . S
C1631 C1630 1.367 . S
C1631 C1633 1.433 . S
C1632 C1628 1.350 . S
C1632 C1629 1.463 . S
C1632 N1636 1.427 . S
C1633 H1623 0.929 . S
C1633 C1631 1.433 . S
C1633 N1636 1.384 . S
C1634 H1625 0.929 . S
C1634 C1626 1.378 . S
C1634 C1629 1.350 . S
C1635 H1622 0.929 . S
C1635 C1627 1.433 . S
C1635 N1637 1.384 . S
N1636 C1632 1.427 . S
N1636 C1633 1.384 . S
N1637 C1629 1.427 . S
N1637 C1635 1.384 . S
H1638 C1644 0.930 . S
H1639 C1648 0.930 . S
H1640 C1653 0.929 . S
H1641 C1651 0.929 . S
H1642 C1646 0.929 . S
H1643 C1652 0.929 . S
C1644 H1638 0.930 . S
C1644 C1645 1.367 . S
C1644 C1652 1.378 . S
C1645 C1644 1.367 . S
C1645 C1653 1.433 . S
C1646 H1642 0.929 . S
C1646 C1648 1.378 . S
C1646 C1650 1.350 . S
C1647 C1650 1.463 . S
C1647 C1652 1.350 . S
C1647 N1655 1.427 . S
C1648 H1639 0.930 . S
C1648 C1646 1.378 . S
C1648 C1649 1.367 . S
C1649 C1648 1.367 . S
C1649 C1651 1.433 . S
C1650 C1646 1.350 . S
C1650 C1647 1.463 . S
C1650 N1654 1.427 . S
C1651 H1641 0.929 . S
C1651 C1649 1.433 . S
C1651 N1654 1.384 . S
C1652 H1643 0.929 . S
C1652 C1644 1.378 . S
C1652 C1647 1.350 . S
C1653 H1640 0.929 . S
C1653 C1645 1.433 . S
C1653 N1655 1.384 . S
N1654 C1650 1.427 . S
N1654 C1651 1.384 . S
N1655 C1647 1.427 . S
N1655 C1653 1.384 . S
H1656 C1662 0.930 . S
H1657 C1666 0.930 . S
H1658 C1671 0.929 . S
H1659 C1669 0.929 . S
H1660 C1664 0.929 . S
H1661 C1670 0.929 . S
C1662 H1656 0.930 . S
C1662 C1663 1.367 . S
C1662 C1670 1.378 . S
C1663 C1662 1.367 . S
C1663 C1671 1.433 . S
C1664 H1660 0.929 . S
C1664 C1666 1.378 . S
C1664 C1668 1.350 . S
C1665 C1668 1.463 . S
C1665 C1670 1.350 . S
C1665 N1673 1.427 . S
C1666 H1657 0.930 . S
C1666 C1664 1.378 . S
C1666 C1667 1.367 . S
C1667 C1666 1.367 . S
C1667 C1669 1.433 . S
C1668 C1664 1.350 . S
C1668 C1665 1.463 . S
C1668 N1672 1.427 . S
C1669 H1659 0.929 . S
C1669 C1667 1.433 . S
C1669 N1672 1.384 . S
C1670 H1661 0.929 . S
C1670 C1662 1.378 . S
C1670 C1665 1.350 . S
C1671 H1658 0.929 . S
C1671 C1663 1.433 . S
C1671 N1673 1.384 . S
N1672 C1668 1.427 . S
N1672 C1669 1.384 . S
N1673 C1665 1.427 . S
N1673 C1671 1.384 . S
H1674 C1680 0.930 . S
H1675 C1684 0.930 . S
H1676 C1689 0.929 . S
H1677 C1687 0.929 . S
H1678 C1682 0.929 . S
H1679 C1688 0.929 . S
C1680 H1674 0.930 . S
C1680 C1681 1.367 . S
C1680 C1688 1.378 . S
C1681 C1680 1.367 . S
C1681 C1689 1.433 . S
C1682 H1678 0.929 . S
C1682 C1684 1.378 . S
C1682 C1686 1.350 . S
C1683 C1686 1.463 . S
C1683 C1688 1.350 . S
C1683 N1691 1.427 . S
C1684 H1675 0.930 . S
C1684 C1682 1.378 . S
C1684 C1685 1.367 . S
C1685 C1684 1.367 . S
C1685 C1687 1.433 . S
C1686 C1682 1.350 . S
C1686 C1683 1.463 . S
C1686 N1690 1.427 . S
C1687 H1677 0.929 . S
C1687 C1685 1.433 . S
C1687 N1690 1.384 . S
C1688 H1679 0.929 . S
C1688 C1680 1.378 . S
C1688 C1683 1.350 . S
C1689 H1676 0.929 . S
C1689 C1681 1.433 . S
C1689 N1691 1.384 . S
N1690 C1686 1.427 . S
N1690 C1687 1.384 . S
N1691 C1683 1.427 . S
N1691 C1689 1.384 . S
H1692 C1698 0.930 . S
H1693 C1702 0.930 . S
H1694 C1707 0.929 . S
H1695 C1705 0.929 . S
H1696 C1700 0.929 . S
H1697 C1706 0.929 . S
C1698 H1692 0.930 . S
C1698 C1699 1.367 . S
C1698 C1706 1.378 . S
C1699 C1698 1.367 . S
C1699 C1707 1.433 . S
C1700 H1696 0.929 . S
C1700 C1702 1.378 . S
C1700 C1704 1.350 . S
C1701 C1704 1.463 . S
C1701 C1706 1.350 . S
C1701 N1709 1.427 . S
C1702 H1693 0.930 . S
C1702 C1700 1.378 . S
C1702 C1703 1.367 . S
C1703 C1702 1.367 . S
C1703 C1705 1.433 . S
C1704 C1700 1.350 . S
C1704 C1701 1.463 . S
C1704 N1708 1.427 . S
C1705 H1695 0.929 . S
C1705 C1703 1.433 . S
C1705 N1708 1.384 . S
C1706 H1697 0.929 . S
C1706 C1698 1.378 . S
C1706 C1701 1.350 . S
C1707 H1694 0.929 . S
C1707 C1699 1.433 . S
C1707 N1709 1.384 . S
N1708 C1704 1.427 . S
N1708 C1705 1.384 . S
N1709 C1701 1.427 . S
N1709 C1707 1.384 . S
H1710 C1716 0.930 . S
H1711 C1720 0.930 . S
H1712 C1725 0.929 . S
H1713 C1723 0.929 . S
H1714 C1718 0.929 . S
H1715 C1724 0.929 . S
C1716 H1710 0.930 . S
C1716 C1717 1.367 . S
C1716 C1724 1.378 . S
C1717 C1716 1.367 . S
C1717 C1725 1.433 . S
C1718 H1714 0.929 . S
C1718 C1720 1.378 . S
C1718 C1722 1.350 . S
C1719 C1722 1.463 . S
C1719 C1724 1.350 . S
C1719 N1727 1.427 . S
C1720 H1711 0.930 . S
C1720 C1718 1.378 . S
C1720 C1721 1.367 . S
C1721 C1720 1.367 . S
C1721 C1723 1.433 . S
C1722 C1718 1.350 . S
C1722 C1719 1.463 . S
C1722 N1726 1.427 . S
C1723 H1713 0.929 . S
C1723 C1721 1.433 . S
C1723 N1726 1.384 . S
C1724 H1715 0.929 . S
C1724 C1716 1.378 . S
C1724 C1719 1.350 . S
C1725 H1712 0.929 . S
C1725 C1717 1.433 . S
C1725 N1727 1.384 . S
N1726 C1722 1.427 . S
N1726 C1723 1.384 . S
N1727 C1719 1.427 . S
N1727 C1725 1.384 . S
C875 C689 1.526 . S
C871 C74 1.413 . S
C893 C694 0.672 . S
C889 C142 0.975 . S
C911 C695 1.533 . S
C907 C231 1.421 . S
C925 C322 1.283 . S
C929 C699 1.372 . S
C943 C406 0.946 . S
C947 C702 0.634 . S
C965 C703 1.530 . S
C961 C494 1.424 . S
C979 C562 1.280 . S
C983 C680 1.369 . S
C997 C651 1.423 . S
C1001 C696 1.528 . S
C1019 C734 1.347 . S
C1015 C58 1.297 . S
C1033 C151 1.499 . S
C1037 C760 1.518 . S
C1055 C712 2.435 . S
C1051 C224 2.359 . S
C1073 C767 1.405 . S
C1069 C315 1.378 . S
C1087 C399 1.389 . S
C1091 C721 1.423 . S
C1109 C763 1.359 . S
C1105 C478 1.281 . S
C1123 C571 1.458 . S
C1127 C727 1.521 . S
C1141 C644 2.355 . S
C1145 C758 2.436 . S
C1159 C67 2.345 . S
C1163 C766 2.428 . S
C1177 C392 1.492 . S
C1181 C753 1.523 . S
C1199 C731 2.438 . S
C1195 C487 2.364 . S
C1217 C759 1.414 . S
C1213 C578 1.394 . S
C1231 C658 1.289 . S
C1235 C726 1.365 . S
C1249 C238 1.298 . S
C1253 C744 1.346 . S
C1271 C735 1.530 . S
C1267 C308 1.470 . S
C1285 C158 1.403 . S
C1289 C728 1.430 . S
C1303 C662 1.390 . S
C1307 C790 1.442 . S
C1321 C394 1.002 . S
C1325 C785 0.383 . S
C1343 C799 1.432 . S
C1339 C483 1.412 . S
C1361 C776 1.338 . S
C1357 C574 1.234 . S
C1375 C154 1.005 . S
C1379 C792 0.365 . S
C1397 C791 1.423 . S
C1393 C242 1.394 . S
C1411 C310 1.233 . S
C1415 C795 1.330 . S
C1429 C63 1.399 . S
C1433 C798 1.447 . S
C1447 C646 1.315 . S
C1451 C824 1.390 . S
C1469 C840 1.515 . S
C1465 C403 1.507 . S
C1483 C476 2.367 . S
C1487 C822 2.493 . S
C1501 C567 1.393 . S
C1505 C855 1.376 . S
C1523 C831 1.380 . S
C1519 C147 1.368 . S
C1537 C226 1.300 . S
C1541 C849 1.370 . S
C1559 C827 1.495 . S
C1555 C319 1.438 . S
C1577 C862 2.468 . S
C1573 C56 2.384 . S
C1595 C854 2.472 . S
C1591 C655 2.380 . S
C1609 C140 1.501 . S
C1613 C859 1.524 . S
C1627 C235 2.367 . S
C1631 C830 2.493 . S
C1649 C863 1.381 . S
C1645 C326 1.401 . S
C1663 C70 1.305 . S
C1667 C817 1.384 . S
C1681 C490 1.313 . S
C1685 C856 1.361 . S
C1703 C808 1.494 . S
C1699 C560 1.439 . S
C1721 C823 1.376 . S
C1717 C410 1.367 . S
