# Generated by pormake.
# Topology ocu, (6,8)-cn, num edge types: 1
# Building blocks:
#     Node 0, Type 0, BuildingBlock: KUMBOL_clean_sbu_0, # of connection points: 6
#     Node 1, Type 0, BuildingBlock: KUMBOL_clean_sbu_0, # of connection points: 6
#     Node 2, Type 0, BuildingBlock: KUMBOL_clean_sbu_0, # of connection points: 6
#     Node 3, Type 0, BuildingBlock: KUMBOL_clean_sbu_0, # of connection points: 6
#     Node 4, Type 0, BuildingBlock: KUMBOL_clean_sbu_0, # of connection points: 6
#     Node 5, Type 0, BuildingBlock: KUMBOL_clean_sbu_0, # of connection points: 6
#     Node 6, Type 0, BuildingBlock: KUMBOL_clean_sbu_0, # of connection points: 6
#     Node 7, Type 0, BuildingBlock: KUMBOL_clean_sbu_0, # of connection points: 6
#     Node 8, Type 1, BuildingBlock: GIZVER_clean_sbu_0, # of connection points: 8
#     Node 9, Type 1, BuildingBlock: GIZVER_clean_sbu_0, # of connection points: 8
#     Node 10, Type 1, BuildingBlock: GIZVER_clean_sbu_0, # of connection points: 8
#     Node 11, Type 1, BuildingBlock: GIZVER_clean_sbu_0, # of connection points: 8
#     Node 12, Type 1, BuildingBlock: GIZVER_clean_sbu_0, # of connection points: 8
#     Node 13, Type 1, BuildingBlock: GIZVER_clean_sbu_0, # of connection points: 8
#     Edge 14, Type (0, 1), BuildingBlock: KIFKEQ_clean_linker_1, # of connection points: 2
#     Edge 15, Type (0, 1), BuildingBlock: KIFKEQ_clean_linker_1, # of connection points: 2
#     Edge 16, Type (0, 1), BuildingBlock: KIFKEQ_clean_linker_1, # of connection points: 2
#     Edge 17, Type (0, 1), BuildingBlock: KIFKEQ_clean_linker_1, # of connection points: 2
#     Edge 18, Type (0, 1), BuildingBlock: KIFKEQ_clean_linker_1, # of connection points: 2
#     Edge 19, Type (0, 1), BuildingBlock: KIFKEQ_clean_linker_1, # of connection points: 2
#     Edge 20, Type (0, 1), BuildingBlock: KIFKEQ_clean_linker_1, # of connection points: 2
#     Edge 21, Type (0, 1), BuildingBlock: KIFKEQ_clean_linker_1, # of connection points: 2
#     Edge 22, Type (0, 1), BuildingBlock: KIFKEQ_clean_linker_1, # of connection points: 2
#     Edge 23, Type (0, 1), BuildingBlock: KIFKEQ_clean_linker_1, # of connection points: 2
#     Edge 24, Type (0, 1), BuildingBlock: KIFKEQ_clean_linker_1, # of connection points: 2
#     Edge 25, Type (0, 1), BuildingBlock: KIFKEQ_clean_linker_1, # of connection points: 2
#     Edge 26, Type (0, 1), BuildingBlock: KIFKEQ_clean_linker_1, # of connection points: 2
#     Edge 27, Type (0, 1), BuildingBlock: KIFKEQ_clean_linker_1, # of connection points: 2
#     Edge 28, Type (0, 1), BuildingBlock: KIFKEQ_clean_linker_1, # of connection points: 2
#     Edge 29, Type (0, 1), BuildingBlock: KIFKEQ_clean_linker_1, # of connection points: 2
#     Edge 30, Type (0, 1), BuildingBlock: KIFKEQ_clean_linker_1, # of connection points: 2
#     Edge 31, Type (0, 1), BuildingBlock: KIFKEQ_clean_linker_1, # of connection points: 2
#     Edge 32, Type (0, 1), BuildingBlock: KIFKEQ_clean_linker_1, # of connection points: 2
#     Edge 33, Type (0, 1), BuildingBlock: KIFKEQ_clean_linker_1, # of connection points: 2
#     Edge 34, Type (0, 1), BuildingBlock: KIFKEQ_clean_linker_1, # of connection points: 2
#     Edge 35, Type (0, 1), BuildingBlock: KIFKEQ_clean_linker_1, # of connection points: 2
#     Edge 36, Type (0, 1), BuildingBlock: KIFKEQ_clean_linker_1, # of connection points: 2
#     Edge 37, Type (0, 1), BuildingBlock: KIFKEQ_clean_linker_1, # of connection points: 2
#     Edge 38, Type (0, 1), BuildingBlock: KIFKEQ_clean_linker_1, # of connection points: 2
#     Edge 39, Type (0, 1), BuildingBlock: KIFKEQ_clean_linker_1, # of connection points: 2
#     Edge 40, Type (0, 1), BuildingBlock: KIFKEQ_clean_linker_1, # of connection points: 2
#     Edge 41, Type (0, 1), BuildingBlock: KIFKEQ_clean_linker_1, # of connection points: 2
#     Edge 42, Type (0, 1), BuildingBlock: KIFKEQ_clean_linker_1, # of connection points: 2
#     Edge 43, Type (0, 1), BuildingBlock: KIFKEQ_clean_linker_1, # of connection points: 2
#     Edge 44, Type (0, 1), BuildingBlock: KIFKEQ_clean_linker_1, # of connection points: 2
#     Edge 45, Type (0, 1), BuildingBlock: KIFKEQ_clean_linker_1, # of connection points: 2
#     Edge 46, Type (0, 1), BuildingBlock: KIFKEQ_clean_linker_1, # of connection points: 2
#     Edge 47, Type (0, 1), BuildingBlock: KIFKEQ_clean_linker_1, # of connection points: 2
#     Edge 48, Type (0, 1), BuildingBlock: KIFKEQ_clean_linker_1, # of connection points: 2
#     Edge 49, Type (0, 1), BuildingBlock: KIFKEQ_clean_linker_1, # of connection points: 2
#     Edge 50, Type (0, 1), BuildingBlock: KIFKEQ_clean_linker_1, # of connection points: 2
#     Edge 51, Type (0, 1), BuildingBlock: KIFKEQ_clean_linker_1, # of connection points: 2
#     Edge 52, Type (0, 1), BuildingBlock: KIFKEQ_clean_linker_1, # of connection points: 2
#     Edge 53, Type (0, 1), BuildingBlock: KIFKEQ_clean_linker_1, # of connection points: 2
#     Edge 54, Type (0, 1), BuildingBlock: KIFKEQ_clean_linker_1, # of connection points: 2
#     Edge 55, Type (0, 1), BuildingBlock: KIFKEQ_clean_linker_1, # of connection points: 2
#     Edge 56, Type (0, 1), BuildingBlock: KIFKEQ_clean_linker_1, # of connection points: 2
#     Edge 57, Type (0, 1), BuildingBlock: KIFKEQ_clean_linker_1, # of connection points: 2
#     Edge 58, Type (0, 1), BuildingBlock: KIFKEQ_clean_linker_1, # of connection points: 2
#     Edge 59, Type (0, 1), BuildingBlock: KIFKEQ_clean_linker_1, # of connection points: 2
#     Edge 60, Type (0, 1), BuildingBlock: KIFKEQ_clean_linker_1, # of connection points: 2
#     Edge 61, Type (0, 1), BuildingBlock: KIFKEQ_clean_linker_1, # of connection points: 2
# Relax obj value: 0.190
# Max RMSD: 0.299
# Mean RMSD: 0.217
data_MOF--net-ocu--node1-KUMBOL_clean_sbu_0--node2-GIZVER_clean_sbu_0--edge1-KIFKEQ_clean_linker_1
_symmetry_space_group_name_H-M    P1
_symmetry_Int_Tables_number       1
_symmetry_cell_setting            triclinic
loop_
_symmetry_equiv_pos_as_xyz
'x, y, z'
_cell_length_a     44.104612
_cell_length_b     43.893185
_cell_length_c     34.96218
_cell_angle_alpha  83.389891
_cell_angle_beta   95.6138
_cell_angle_gamma 111.56562
loop_
_atom_site_label
_atom_site_type_symbol
_atom_site_fract_x
_atom_site_fract_y
_atom_site_fract_z
_atom_type_partial_charge
Gd0 Gd 0.30276 0.32508 0.31353 0.0
Gd1 Gd 0.27495 0.2709 0.24059 0.0
C2 C 0.20832 0.30983 0.15761 0.0
C3 C 0.15457 0.26957 0.17021 0.0
C4 C 0.20285 0.26417 0.20618 0.0
C5 C 0.22241 0.29304 0.18668 0.0
C6 C 0.16872 0.25186 0.19744 0.0
C7 C 0.17433 0.29833 0.15012 0.0
C8 C 0.22883 0.33757 0.1366 0.0
C9 C 0.26254 0.34734 0.14376 0.0
N10 N 0.25531 0.30371 0.19433 0.0
C11 C 0.27542 0.32972 0.17233 0.0
H12 H 0.30144 0.33667 0.17583 0.0
C13 C 0.19925 0.21526 0.24471 0.0
N14 N 0.2173 0.24674 0.23117 0.0
C15 C 0.16535 0.2026 0.23797 0.0
C16 C 0.14992 0.22125 0.21481 0.0
H17 H 0.21098 0.19957 0.26054 0.0
H18 H 0.16314 0.31124 0.12841 0.0
H19 H 0.277 0.26196 0.38176 0.0
H20 H 0.21893 0.35117 0.11425 0.0
H21 H 0.27869 0.36818 0.12687 0.0
H22 H 0.12843 0.26058 0.16347 0.0
H23 H 0.36728 0.39563 0.29056 0.0
H24 H 0.36009 0.24689 0.44102 0.0
H25 H 0.30024 0.23118 0.4311 0.0
H26 H 0.45026 0.33402 0.38574 0.0
H27 H 0.15126 0.17811 0.24989 0.0
H28 H 0.12369 0.21108 0.20895 0.0
H29 H 0.41576 0.28493 0.42349 0.0
H30 H 0.4271 0.41597 0.29881 0.0
N31 N 0.32283 0.29318 0.36054 0.0
C32 C 0.34995 0.26018 0.41857 0.0
C33 C 0.31618 0.25114 0.41293 0.0
C34 C 0.37025 0.28685 0.3959 0.0
C35 C 0.35584 0.30329 0.36679 0.0
C36 C 0.30301 0.26833 0.38415 0.0
N37 N 0.36068 0.34869 0.32095 0.0
C38 C 0.3753 0.33124 0.34565 0.0
C39 C 0.41292 0.39185 0.31163 0.0
C40 C 0.42842 0.37305 0.33439 0.0
C41 C 0.37891 0.37981 0.30638 0.0
C42 C 0.4096 0.343 0.35295 0.0
H43 H 0.45477 0.38278 0.33913 0.0
O44 O 0.3199 0.36972 0.3431 0.0
O45 O 0.26782 0.31694 0.25926 0.0
O46 O 0.32576 0.30608 0.23009 0.0
O47 O 0.3276 0.35098 0.25951 0.0
O48 O 0.27574 0.35874 0.28479 0.0
O49 O 0.27929 0.32731 0.36431 0.0
O50 O 0.26062 0.22566 0.2127 0.0
O51 O 0.30914 0.27858 0.29558 0.0
O52 O 0.25286 0.28788 0.32663 0.0
O53 O 0.24968 0.24434 0.29325 0.0
O54 O 0.30124 0.23676 0.2702 0.0
O55 O 0.29685 0.27035 0.18791 0.0
C56 C 0.25775 0.34224 0.25715 0.0
C57 C 0.42399 0.32547 0.38014 0.0
C58 C 0.40435 0.29763 0.40177 0.0
C59 C 0.29984 0.35668 0.37051 0.0
C60 C 0.31316 0.36182 0.41042 0.0
C61 C 0.34506 0.36371 0.42264 0.0
C62 C 0.29344 0.3662 0.43656 0.0
C63 C 0.30548 0.37349 0.47433 0.0
C64 C 0.35694 0.37019 0.46063 0.0
C65 C 0.33738 0.37554 0.48637 0.0
C66 C 0.3392 0.3374 0.23579 0.0
C67 C 0.31878 0.25297 0.29828 0.0
C68 C 0.27932 0.2395 0.18424 0.0
C69 C 0.26564 0.2302 0.14559 0.0
C70 C 0.24631 0.24528 0.12264 0.0
C71 C 0.27351 0.20598 0.13107 0.0
C72 C 0.263 0.19697 0.09349 0.0
C73 C 0.23528 0.23613 0.08524 0.0
C74 C 0.24385 0.21227 0.07046 0.0
C75 C 0.2394 0.2568 0.31934 0.0
H76 H 0.36095 0.36085 0.40286 0.0
H77 H 0.26904 0.36547 0.42692 0.0
H78 H 0.38161 0.37183 0.46984 0.0
H79 H 0.34718 0.38167 0.5153 0.0
H80 H 0.24018 0.26429 0.13317 0.0
H81 H 0.28926 0.19514 0.14865 0.0
H82 H 0.2206 0.24799 0.06744 0.0
H83 H 0.23592 0.20606 0.0411 0.0
Gd84 Gd 0.75039 0.32602 0.29664 0.0
Gd85 Gd 0.80644 0.28624 0.2728 0.0
C86 C 0.91253 0.3389 0.23958 0.0
C87 C 0.90621 0.35653 0.17195 0.0
C88 C 0.85822 0.32467 0.20798 0.0
C89 C 0.87821 0.32393 0.24082 0.0
C90 C 0.87221 0.34089 0.17304 0.0
C91 C 0.92633 0.35552 0.20514 0.0
C92 C 0.93206 0.33651 0.27294 0.0
C93 C 0.91742 0.31865 0.3061 0.0
N94 N 0.86423 0.30842 0.27396 0.0
C95 C 0.88342 0.30424 0.3059 0.0
H96 H 0.87234 0.2897 0.33146 0.0
C97 C 0.80533 0.31008 0.17751 0.0
N98 N 0.82526 0.31018 0.21028 0.0
C99 C 0.81816 0.32552 0.14236 0.0
C100 C 0.85169 0.34123 0.14014 0.0
H101 H 0.77934 0.29904 0.17736 0.0
H102 H 0.95256 0.36746 0.2038 0.0
H103 H 0.67525 0.27553 0.26187 0.0
H104 H 0.95844 0.34771 0.27312 0.0
H105 H 0.93229 0.31582 0.33179 0.0
H106 H 0.9172 0.36938 0.1455 0.0
H107 H 0.78216 0.36828 0.37714 0.0
H108 H 0.62613 0.21091 0.35481 0.0
H109 H 0.62898 0.22877 0.28524 0.0
H110 H 0.69215 0.25502 0.46614 0.0
H111 H 0.802 0.32556 0.11699 0.0
H112 H 0.86149 0.35348 0.1129 0.0
H113 H 0.64996 0.22077 0.42195 0.0
H114 H 0.78058 0.35746 0.44715 0.0
N115 N 0.7019 0.28273 0.31668 0.0
C116 C 0.64725 0.23123 0.34452 0.0
C117 C 0.64889 0.24109 0.30527 0.0
C118 C 0.67224 0.24866 0.37018 0.0
C119 C 0.69938 0.27495 0.35531 0.0
C120 C 0.67604 0.26737 0.29194 0.0
N121 N 0.7476 0.32081 0.36504 0.0
C122 C 0.72318 0.29423 0.38018 0.0
C123 C 0.76481 0.33899 0.42877 0.0
C124 C 0.74234 0.30999 0.44484 0.0
C125 C 0.76624 0.34456 0.38872 0.0
C126 C 0.72026 0.28781 0.42052 0.0
H127 H 0.74092 0.30593 0.47588 0.0
O128 O 0.75414 0.37539 0.3063 0.0
O129 O 0.79484 0.33105 0.26866 0.0
O130 O 0.83149 0.31701 0.32305 0.0
O131 O 0.80029 0.34935 0.32791 0.0
O132 O 0.76877 0.35793 0.2414 0.0
O133 O 0.70939 0.34162 0.28068 0.0
O134 O 0.78073 0.23574 0.2583 0.0
O135 O 0.76199 0.2807 0.30183 0.0
O136 O 0.72776 0.29965 0.24324 0.0
O137 O 0.76005 0.26939 0.2335 0.0
O138 O 0.79687 0.26635 0.33451 0.0
O139 O 0.83085 0.25091 0.28003 0.0
C140 C 0.79488 0.35156 0.24062 0.0
C141 C 0.69445 0.26051 0.4353 0.0
C142 C 0.6704 0.24106 0.41016 0.0
C143 C 0.72595 0.37193 0.28818 0.0
C144 C 0.72579 0.39749 0.25703 0.0
C145 C 0.73291 0.42977 0.26597 0.0
C146 C 0.71915 0.39001 0.21829 0.0
C147 C 0.71883 0.41434 0.1885 0.0
C148 C 0.73301 0.45421 0.23668 0.0
C149 C 0.7258 0.44662 0.19834 0.0
C150 C 0.82638 0.34117 0.3377 0.0
C151 C 0.76737 0.26605 0.33346 0.0
C152 C 0.80414 0.22616 0.27364 0.0
C153 C 0.79535 0.1987 0.30434 0.0
C154 C 0.76507 0.17278 0.30166 0.0
C155 C 0.81647 0.19889 0.33737 0.0
C156 C 0.8077 0.17352 0.36733 0.0
C157 C 0.75594 0.14779 0.33151 0.0
C158 C 0.777 0.14808 0.36412 0.0
C159 C 0.73362 0.27737 0.22569 0.0
H160 H 0.73831 0.43602 0.29559 0.0
H161 H 0.71437 0.36518 0.21144 0.0
H162 H 0.73825 0.47908 0.24376 0.0
H163 H 0.72484 0.466 0.17668 0.0
H164 H 0.74829 0.17206 0.27669 0.0
H165 H 0.8397 0.21901 0.34001 0.0
H166 H 0.73254 0.12792 0.32919 0.0
H167 H 0.76957 0.12786 0.38627 0.0
Gd168 Gd 0.78472 0.76976 0.32293 0.0
Gd169 Gd 0.79217 0.82682 0.24037 0.0
C170 C 0.87553 0.83552 0.16613 0.0
C171 C 0.91512 0.88951 0.17844 0.0
C172 C 0.86295 0.86869 0.20828 0.0
C173 C 0.85458 0.83946 0.19166 0.0
C174 C 0.89291 0.89447 0.20093 0.0
C175 C 0.90636 0.86011 0.16088 0.0
C176 C 0.86411 0.80796 0.14488 0.0
C177 C 0.83214 0.78586 0.14835 0.0
N178 N 0.82447 0.81641 0.19707 0.0
C179 C 0.81252 0.7906 0.17448 0.0
H180 H 0.78806 0.77301 0.17682 0.0
C181 C 0.8449 0.90377 0.23866 0.0
N182 N 0.84032 0.8731 0.22831 0.0
C183 C 0.8745 0.92984 0.23294 0.0
C184 C 0.89889 0.92501 0.21461 0.0
H185 H 0.826 0.90762 0.25279 0.0
H186 H 0.923 0.85723 0.14196 0.0
H187 H 0.82936 0.8236 0.38686 0.0
H188 H 0.87931 0.80414 0.12477 0.0
H189 H 0.8227 0.76491 0.13129 0.0
H190 H 0.93843 0.90885 0.17289 0.0
H191 H 0.70986 0.70595 0.31047 0.0
H192 H 0.76495 0.84316 0.45501 0.0
H193 H 0.82085 0.85347 0.43701 0.0
H194 H 0.65979 0.76895 0.41526 0.0
H195 H 0.87839 0.95367 0.24247 0.0
H196 H 0.92164 0.94537 0.20968 0.0
H197 H 0.70519 0.81173 0.44657 0.0
H198 H 0.65391 0.69197 0.32671 0.0
N199 N 0.77876 0.79997 0.37135 0.0
C200 C 0.76852 0.8307 0.43177 0.0
C201 C 0.80005 0.83682 0.42147 0.0
C202 C 0.74205 0.80771 0.41292 0.0
C203 C 0.74794 0.79217 0.3826 0.0
C204 C 0.80476 0.82059 0.39178 0.0
N205 N 0.72888 0.75097 0.33833 0.0
C206 C 0.7223 0.76765 0.36506 0.0
C207 C 0.67272 0.71381 0.33697 0.0
C208 C 0.66524 0.73225 0.36178 0.0
C209 C 0.70482 0.7228 0.32662 0.0
C210 C 0.69026 0.75872 0.3773 0.0
H211 H 0.64041 0.72476 0.37039 0.0
O212 O 0.77153 0.72486 0.36137 0.0
O213 O 0.80756 0.78319 0.26421 0.0
O214 O 0.75566 0.77747 0.22449 0.0
O215 O 0.75293 0.73933 0.27709 0.0
O216 O 0.80756 0.74009 0.29247 0.0
O217 O 0.82024 0.76217 0.36622 0.0
O218 O 0.78724 0.86339 0.19572 0.0
O219 O 0.77114 0.81469 0.30003 0.0
O220 O 0.83528 0.80818 0.32504 0.0
O221 O 0.82702 0.85158 0.28789 0.0
O222 O 0.76874 0.85626 0.2705 0.0
O223 O 0.74651 0.81746 0.20566 0.0
C224 C 0.81835 0.75909 0.26171 0.0
C225 C 0.68426 0.77538 0.40593 0.0
C226 C 0.7101 0.79965 0.42386 0.0
C227 C 0.79999 0.73409 0.38018 0.0
C228 C 0.80127 0.72805 0.42223 0.0
C229 C 0.7856 0.74031 0.44633 0.0
C230 C 0.82057 0.71045 0.43847 0.0
C231 C 0.82459 0.7048 0.47849 0.0
C232 C 0.79001 0.7353 0.48651 0.0
C233 C 0.80966 0.7177 0.50272 0.0
C234 C 0.74445 0.74727 0.24131 0.0
C235 C 0.76037 0.83874 0.30267 0.0
C236 C 0.75771 0.84531 0.18471 0.0
C237 C 0.75 0.84569 0.14301 0.0
C238 C 0.7533 0.82304 0.12006 0.0
C239 C 0.73942 0.87054 0.12596 0.0
C240 C 0.73199 0.87344 0.08612 0.0
C241 C 0.74598 0.82567 0.08015 0.0
C242 C 0.73516 0.85069 0.06314 0.0
C243 C 0.84435 0.83962 0.31347 0.0
H244 H 0.77022 0.7537 0.43437 0.0
H245 H 0.83281 0.70116 0.41972 0.0
H246 H 0.77808 0.74496 0.50508 0.0
H247 H 0.81264 0.7136 0.53378 0.0
H248 H 0.76124 0.80342 0.1328 0.0
H249 H 0.73614 0.88732 0.14427 0.0
H250 H 0.74844 0.80814 0.06243 0.0
H251 H 0.7292 0.85219 0.03235 0.0
Gd252 Gd 0.27817 0.81798 0.26545 0.0
Gd253 Gd 0.32192 0.76147 0.28829 0.0
C254 C 0.30568 0.6882 0.39547 0.0
C255 C 0.35592 0.71139 0.43475 0.0
C256 C 0.34744 0.73886 0.37236 0.0
C257 C 0.31702 0.71484 0.36724 0.0
C258 C 0.36767 0.73695 0.40569 0.0
C259 C 0.32491 0.6871 0.42969 0.0
C260 C 0.27604 0.66276 0.38768 0.0
C261 C 0.25936 0.66357 0.35179 0.0
N262 N 0.29952 0.71626 0.33345 0.0
C263 C 0.27179 0.69041 0.32467 0.0
H264 H 0.25888 0.69066 0.29685 0.0
C265 C 0.38955 0.78507 0.34533 0.0
N266 N 0.35796 0.7632 0.34361 0.0
C267 C 0.41059 0.78401 0.37768 0.0
C268 C 0.39948 0.76012 0.40825 0.0
H269 H 0.39862 0.80371 0.32203 0.0
H270 H 0.31649 0.66698 0.45185 0.0
H271 H 0.3556 0.8659 0.30618 0.0
H272 H 0.26644 0.64188 0.4086 0.0
H273 H 0.23692 0.64354 0.34496 0.0
H274 H 0.37095 0.70969 0.46074 0.0
H275 H 0.23423 0.81179 0.18181 0.0
H276 H 0.3788 0.96391 0.25758 0.0
H277 H 0.38977 0.92328 0.30612 0.0
H278 H 0.30474 0.95365 0.14688 0.0
H279 H 0.43533 0.80169 0.37908 0.0
H280 H 0.41581 0.75938 0.43327 0.0
H281 H 0.34739 0.97481 0.19792 0.0
H282 H 0.22699 0.84672 0.12435 0.0
N283 N 0.31938 0.87272 0.264 0.0
C284 C 0.3621 0.93857 0.25904 0.0
C285 C 0.36821 0.9158 0.28661 0.0
C286 C 0.33604 0.92782 0.23176 0.0
C287 C 0.31501 0.89439 0.23481 0.0
C288 C 0.34736 0.8829 0.28777 0.0
N289 N 0.27361 0.84988 0.20765 0.0
C290 C 0.2916 0.88248 0.20558 0.0
C291 C 0.24551 0.85711 0.14675 0.0
C292 C 0.26442 0.8905 0.14374 0.0
C293 C 0.25017 0.83721 0.17919 0.0
C294 C 0.28774 0.90363 0.17332 0.0
H295 H 0.26076 0.90593 0.11858 0.0
O296 O 0.22656 0.79354 0.25088 0.0
O297 O 0.27411 0.76731 0.29129 0.0
O298 O 0.27634 0.74119 0.24886 0.0
O299 O 0.27559 0.78884 0.21486 0.0
O300 O 0.25654 0.79373 0.32272 0.0
O301 O 0.24435 0.84232 0.27136 0.0
O302 O 0.36067 0.75615 0.25861 0.0
O303 O 0.3183 0.80456 0.24936 0.0
O304 O 0.30365 0.83021 0.32355 0.0
O305 O 0.33013 0.79216 0.33988 0.0
O306 O 0.36446 0.80547 0.26498 0.0
O307 O 0.31483 0.71595 0.26325 0.0
C308 C 0.25957 0.76568 0.3216 0.0
C309 C 0.30747 0.93707 0.1713 0.0
C310 C 0.3316 0.94914 0.20046 0.0
C311 C 0.21878 0.81642 0.26345 0.0
C312 C 0.19265 0.80547 0.29093 0.0
C313 C 0.17248 0.77217 0.29644 0.0
C314 C 0.18803 0.82845 0.31232 0.0
C315 C 0.16378 0.81852 0.33917 0.0
C316 C 0.14848 0.76208 0.3232 0.0
C317 C 0.14406 0.78502 0.34443 0.0
C318 C 0.26739 0.75661 0.21759 0.0
C319 C 0.34816 0.82148 0.2453 0.0
C320 C 0.34477 0.72525 0.2538 0.0
C321 C 0.36174 0.70228 0.26724 0.0
C322 C 0.38103 0.70619 0.30201 0.0
C323 C 0.35777 0.6755 0.24612 0.0
C324 C 0.37286 0.65271 0.25987 0.0
C325 C 0.39573 0.68364 0.31592 0.0
C326 C 0.39174 0.6571 0.29509 0.0
C327 C 0.32212 0.8173 0.34726 0.0
H328 H 0.17526 0.75387 0.28023 0.0
H329 H 0.20366 0.85411 0.30839 0.0
H330 H 0.13311 0.73639 0.32734 0.0
H331 H 0.12478 0.77658 0.36439 0.0
H332 H 0.38494 0.72671 0.31844 0.0
H333 H 0.3429 0.67236 0.21924 0.0
H334 H 0.41058 0.68696 0.34276 0.0
H335 H 0.40429 0.64054 0.30611 0.0
Gd336 Gd 0.26864 0.81824 0.76341 0.0
Gd337 Gd 0.31441 0.77503 0.81379 0.0
C338 C 0.42015 0.8305 0.78064 0.0
C339 C 0.42279 0.80381 0.72468 0.0
C340 C 0.37315 0.78449 0.75981 0.0
C341 C 0.38752 0.80883 0.78471 0.0
C342 C 0.39108 0.78112 0.73022 0.0
C343 C 0.43729 0.8285 0.74983 0.0
C344 C 0.43489 0.853 0.80821 0.0
C345 C 0.4179 0.85208 0.84014 0.0
N346 N 0.3702 0.81033 0.81401 0.0
C347 C 0.38586 0.82983 0.84314 0.0
H348 H 0.37419 0.82804 0.8694 0.0
C349 C 0.33003 0.73534 0.74631 0.0
N350 N 0.34218 0.76328 0.7655 0.0
C351 C 0.34665 0.73106 0.71652 0.0
C352 C 0.37697 0.75453 0.70772 0.0
H353 H 0.30792 0.71558 0.75418 0.0
H354 H 0.46211 0.84531 0.74587 0.0
H355 H 0.20358 0.75958 0.72156 0.0
H356 H 0.45981 0.8701 0.80604 0.0
H357 H 0.42963 0.86811 0.86282 0.0
H358 H 0.43663 0.80193 0.70169 0.0
H359 H 0.2833 0.88702 0.81105 0.0
H360 H 0.12258 0.73401 0.79145 0.0
H361 H 0.1474 0.72532 0.73524 0.0
H362 H 0.15926 0.8142 0.88373 0.0
H363 H 0.33629 0.70931 0.70084 0.0
H364 H 0.3899 0.75107 0.68476 0.0
H365 H 0.12762 0.76661 0.84747 0.0
H366 H 0.26105 0.9025 0.86393 0.0
N367 N 0.21282 0.78596 0.7717 0.0
C368 C 0.14773 0.74893 0.78595 0.0
C369 C 0.1617 0.74382 0.75439 0.0
C370 C 0.16601 0.77404 0.80924 0.0
C371 C 0.19873 0.7928 0.80085 0.0
C372 C 0.19415 0.76296 0.74729 0.0
N373 N 0.24705 0.83852 0.81054 0.0
C374 C 0.2166 0.8195 0.82134 0.0
C375 C 0.24862 0.87867 0.85294 0.0
C376 C 0.21917 0.85757 0.86747 0.0
C377 C 0.26161 0.86926 0.82341 0.0
C378 C 0.20212 0.82817 0.85065 0.0
H379 H 0.20891 0.8651 0.89 0.0
O380 O 0.28058 0.86869 0.73829 0.0
O381 O 0.3203 0.81895 0.77024 0.0
O382 O 0.3188 0.81547 0.85022 0.0
O383 O 0.30958 0.85138 0.80125 0.0
O384 O 0.29839 0.8165 0.71512 0.0
O385 O 0.2386 0.83014 0.71548 0.0
O386 O 0.30439 0.72321 0.83066 0.0
O387 O 0.26243 0.77365 0.80614 0.0
O388 O 0.26044 0.77599 0.72835 0.0
O389 O 0.27548 0.74122 0.77452 0.0
O390 O 0.28336 0.77472 0.86171 0.0
O391 O 0.34123 0.75987 0.86304 0.0
C392 C 0.32591 0.82106 0.73453 0.0
C393 C 0.17048 0.8082 0.86087 0.0
C394 C 0.15242 0.78121 0.84013 0.0
C395 C 0.25887 0.86019 0.70968 0.0
C396 C 0.27038 0.86961 0.67022 0.0
C397 C 0.30356 0.87955 0.66298 0.0
C398 C 0.24728 0.86594 0.63905 0.0
C399 C 0.25661 0.87108 0.60069 0.0
C400 C 0.3131 0.88403 0.62516 0.0
C401 C 0.28981 0.8796 0.59414 0.0
C402 C 0.32028 0.84515 0.83681 0.0
C403 C 0.25611 0.7707 0.84175 0.0
C404 C 0.32401 0.72883 0.86143 0.0
C405 C 0.31078 0.71087 0.89792 0.0
C406 C 0.27886 0.70554 0.9072 0.0
C407 C 0.3308 0.69926 0.92423 0.0
C408 C 0.31933 0.6826 0.95972 0.0
C409 C 0.26771 0.69002 0.94307 0.0
C410 C 0.28793 0.67866 0.96944 0.0
C411 C 0.26164 0.74695 0.74053 0.0
H412 H 0.32204 0.88339 0.68646 0.0
H413 H 0.22198 0.85981 0.64511 0.0
H414 H 0.33867 0.89117 0.61987 0.0
H415 H 0.29789 0.88353 0.56512 0.0
H416 H 0.26252 0.71305 0.88672 0.0
H417 H 0.35524 0.70268 0.91683 0.0
H418 H 0.24314 0.68622 0.95009 0.0
H419 H 0.27866 0.66568 0.9966 0.0
Gd420 Gd 0.31463 0.29736 0.73506 0.0
Gd421 Gd 0.27014 0.28521 0.82449 0.0
C422 C 0.28948 0.21828 0.92639 0.0
C423 C 0.23749 0.17254 0.92856 0.0
C424 C 0.24451 0.21964 0.88175 0.0
C425 C 0.27656 0.23383 0.89499 0.0
C426 C 0.22413 0.18949 0.89937 0.0
C427 C 0.27022 0.18685 0.94185 0.0
C428 C 0.32079 0.2354 0.94213 0.0
C429 C 0.33761 0.26768 0.9277 0.0
N430 N 0.29425 0.26413 0.87919 0.0
C431 C 0.32371 0.28192 0.89636 0.0
H432 H 0.33722 0.30671 0.88523 0.0
C433 C 0.19965 0.22723 0.845 0.0
N434 N 0.23253 0.23691 0.85383 0.0
C435 C 0.17837 0.19735 0.8614 0.0
C436 C 0.19077 0.17802 0.88817 0.0
H437 H 0.19002 0.24214 0.82428 0.0
H438 H 0.27999 0.17384 0.96488 0.0
H439 H 0.24501 0.27094 0.67766 0.0
H440 H 0.33174 0.22444 0.96617 0.0
H441 H 0.36145 0.28149 0.94037 0.0
H442 H 0.22247 0.14896 0.94192 0.0
H443 H 0.39316 0.34493 0.73275 0.0
H444 H 0.24508 0.34876 0.59255 0.0
H445 H 0.21791 0.29256 0.62258 0.0
H446 H 0.35311 0.42854 0.60884 0.0
H447 H 0.15248 0.18925 0.8534 0.0
H448 H 0.17427 0.15497 0.90103 0.0
H449 H 0.29552 0.39981 0.5881 0.0
H450 H 0.42782 0.39771 0.70014 0.0
N451 N 0.28736 0.31477 0.68014 0.0
C452 C 0.25736 0.33932 0.61664 0.0
C453 C 0.24196 0.30759 0.63354 0.0
C454 C 0.28889 0.358 0.63019 0.0
C455 C 0.3035 0.34472 0.66216 0.0
C456 C 0.25758 0.29543 0.66502 0.0
N457 N 0.34919 0.34612 0.70306 0.0
C458 C 0.33555 0.361 0.67411 0.0
C459 C 0.40182 0.38784 0.69276 0.0
C460 C 0.38769 0.40469 0.66467 0.0
C461 C 0.38219 0.35806 0.7112 0.0
C462 C 0.35427 0.39091 0.65436 0.0
H463 H 0.40295 0.42762 0.6502 0.0
O464 O 0.35383 0.28275 0.71964 0.0
O465 O 0.30726 0.27349 0.79537 0.0
O466 O 0.31762 0.32877 0.82513 0.0
O467 O 0.33488 0.34555 0.76222 0.0
O468 O 0.35479 0.29388 0.77835 0.0
O469 O 0.30472 0.25902 0.69625 0.0
O470 O 0.23342 0.30446 0.83709 0.0
O471 O 0.27795 0.30915 0.76445 0.0
O472 O 0.26816 0.25298 0.73527 0.0
O473 O 0.24786 0.23733 0.79686 0.0
O474 O 0.2304 0.28956 0.78125 0.0
O475 O 0.28088 0.32109 0.86681 0.0
C476 C 0.33675 0.27757 0.80611 0.0
C477 C 0.33932 0.40531 0.62403 0.0
C478 C 0.30659 0.38891 0.6121 0.0
C479 C 0.33513 0.26179 0.69599 0.0
C480 C 0.34757 0.26337 0.6577 0.0
C481 C 0.34718 0.28865 0.6295 0.0
C482 C 0.35948 0.23931 0.64893 0.0
C483 C 0.37094 0.2405 0.61207 0.0
C484 C 0.35851 0.29013 0.59321 0.0
C485 C 0.37032 0.2664 0.58453 0.0
C486 C 0.33545 0.35049 0.799 0.0
C487 C 0.24864 0.30557 0.75355 0.0
C488 C 0.25169 0.3223 0.86378 0.0
C489 C 0.23636 0.31999 0.90033 0.0
C490 C 0.23045 0.2917 0.92592 0.0
C491 C 0.22757 0.346 0.90988 0.0
C492 C 0.21285 0.34367 0.94493 0.0
C493 C 0.21574 0.28903 0.96026 0.0
C494 C 0.20687 0.31456 0.96964 0.0
C495 C 0.24839 0.2322 0.76042 0.0
H496 H 0.33807 0.30724 0.63549 0.0
H497 H 0.35941 0.21955 0.67062 0.0
H498 H 0.35826 0.30987 0.5717 0.0
H499 H 0.37952 0.26876 0.55632 0.0
H500 H 0.23716 0.27163 0.91931 0.0
H501 H 0.23256 0.36803 0.89028 0.0
H502 H 0.21104 0.26695 0.9797 0.0
H503 H 0.19481 0.31113 0.99617 0.0
Gd504 Gd 0.79089 0.31207 0.76211 0.0
Gd505 Gd 0.82015 0.24934 0.80953 0.0
C506 C 0.75846 0.18619 0.90804 0.0
C507 C 0.79566 0.20212 0.96434 0.0
C508 C 0.81275 0.22649 0.90026 0.0
C509 C 0.78244 0.20874 0.88445 0.0
C510 C 0.8202 0.22249 0.94025 0.0
C511 C 0.76479 0.18392 0.94822 0.0
C512 C 0.72947 0.16561 0.8904 0.0
C513 C 0.72549 0.16712 0.85022 0.0
N514 N 0.77752 0.21122 0.84554 0.0
C515 C 0.74996 0.19002 0.82813 0.0
H516 H 0.74638 0.19099 0.79716 0.0
C517 C 0.86811 0.2565 0.88912 0.0
N518 N 0.83602 0.24477 0.87589 0.0
C519 C 0.87673 0.25393 0.92861 0.0
C520 C 0.85253 0.23743 0.95444 0.0
H521 H 0.88693 0.26891 0.8691 0.0
H522 H 0.74647 0.16719 0.96687 0.0
H523 H 0.7971 0.37682 0.80761 0.0
H524 H 0.71044 0.14793 0.90745 0.0
H525 H 0.70345 0.15087 0.83622 0.0
H526 H 0.80075 0.19909 0.9952 0.0
H527 H 0.80151 0.28536 0.67951 0.0
H528 H 0.86031 0.46394 0.74696 0.0
H529 H 0.82501 0.4373 0.80126 0.0
H530 H 0.88047 0.42371 0.63418 0.0
H531 H 0.90203 0.26442 0.93902 0.0
H532 H 0.85928 0.235 0.98496 0.0
H533 H 0.88115 0.45855 0.68476 0.0
H534 H 0.82754 0.3086 0.61852 0.0
N535 N 0.819 0.3693 0.75977 0.0
C536 C 0.84863 0.43741 0.75011 0.0
C537 C 0.8288 0.42249 0.78082 0.0
C538 C 0.85158 0.41807 0.72257 0.0
C539 C 0.83572 0.38362 0.7279 0.0
C540 C 0.81333 0.38832 0.78456 0.0
N541 N 0.81798 0.33117 0.70442 0.0
C542 C 0.83488 0.36405 0.69917 0.0
C543 C 0.82983 0.32448 0.64098 0.0
C544 C 0.84781 0.35809 0.63546 0.0
C545 C 0.81501 0.31136 0.67577 0.0
C546 C 0.8505 0.37835 0.66468 0.0
H547 H 0.85941 0.36814 0.60856 0.0
O548 O 0.75844 0.32172 0.7151 0.0
O549 O 0.77752 0.26535 0.80038 0.0
O550 O 0.78871 0.22808 0.75548 0.0
O551 O 0.7634 0.26479 0.73015 0.0
O552 O 0.77064 0.30472 0.8206 0.0
O553 O 0.74842 0.32259 0.77389 0.0
O554 O 0.86169 0.23412 0.80758 0.0
O555 O 0.82754 0.28882 0.76125 0.0
O556 O 0.83068 0.33735 0.80833 0.0
O557 O 0.83921 0.29379 0.84731 0.0
O558 O 0.86919 0.28599 0.79259 0.0
O559 O 0.81314 0.20137 0.79183 0.0
C560 C 0.76624 0.27395 0.82763 0.0
C561 C 0.86791 0.41239 0.66022 0.0
C562 C 0.86845 0.43221 0.68911 0.0
C563 C 0.74281 0.33143 0.73799 0.0
C564 C 0.74308 0.36551 0.73021 0.0
C565 C 0.75806 0.38569 0.69795 0.0
C566 C 0.73206 0.37944 0.75785 0.0
C567 C 0.73708 0.41323 0.75426 0.0
C568 C 0.76279 0.41911 0.69404 0.0
C569 C 0.75266 0.4329 0.7221 0.0
C570 C 0.76741 0.23595 0.7305 0.0
C571 C 0.85858 0.30182 0.7646 0.0
C572 C 0.84355 0.20469 0.79892 0.0
C573 C 0.8499 0.17736 0.82205 0.0
C574 C 0.83396 0.16263 0.85597 0.0
C575 C 0.87161 0.16509 0.80889 0.0
C576 C 0.87731 0.1379 0.82886 0.0
C577 C 0.83971 0.13568 0.87621 0.0
C578 C 0.86111 0.12309 0.86256 0.0
C579 C 0.8438 0.32578 0.84006 0.0
H580 H 0.76709 0.37595 0.67629 0.0
H581 H 0.72077 0.36423 0.78304 0.0
H582 H 0.77473 0.43449 0.66935 0.0
H583 H 0.75655 0.45888 0.71831 0.0
H584 H 0.81683 0.17154 0.86647 0.0
H585 H 0.88336 0.17615 0.78223 0.0
H586 H 0.82724 0.12429 0.90224 0.0
H587 H 0.86502 0.10193 0.87819 0.0
Gd588 Gd 0.80142 0.82235 0.82916 0.0
Gd589 Gd 0.79898 0.77149 0.75194 0.0
C590 C 0.74723 0.79882 0.64123 0.0
C591 C 0.69879 0.74965 0.63496 0.0
C592 C 0.73875 0.75223 0.68884 0.0
C593 C 0.75717 0.78405 0.67573 0.0
C594 C 0.71005 0.73421 0.66767 0.0
C595 C 0.71736 0.78192 0.62174 0.0
C596 C 0.7682 0.82956 0.62651 0.0
C597 C 0.7987 0.84426 0.64537 0.0
N598 N 0.78611 0.79955 0.69495 0.0
C599 C 0.80735 0.82879 0.67966 0.0
H600 H 0.83102 0.84039 0.69368 0.0
C601 C 0.73782 0.70431 0.728 0.0
N602 N 0.7509 0.7377 0.71973 0.0
C603 C 0.709 0.68553 0.70841 0.0
C604 C 0.69463 0.70069 0.67863 0.0
H605 H 0.74912 0.69251 0.75082 0.0
H606 H 0.70908 0.7931 0.59558 0.0
H607 H 0.75525 0.75604 0.88711 0.0
H608 H 0.7615 0.84168 0.60006 0.0
H609 H 0.81547 0.86765 0.63373 0.0
H610 H 0.67653 0.73636 0.61868 0.0
H611 H 0.86988 0.89196 0.83087 0.0
H612 H 0.81716 0.73665 0.97986 0.0
H613 H 0.76308 0.72272 0.94488 0.0
H614 H 0.91946 0.82443 0.96322 0.0
H615 H 0.69804 0.65936 0.71608 0.0
H616 H 0.67255 0.686 0.66311 0.0
H617 H 0.87536 0.77421 0.98601 0.0
H618 H 0.92414 0.91034 0.86412 0.0
N619 N 0.80521 0.78871 0.88632 0.0
C620 C 0.81405 0.75154 0.95392 0.0
C621 C 0.78355 0.74355 0.93419 0.0
C622 C 0.84001 0.77906 0.94043 0.0
C623 C 0.83476 0.79769 0.90634 0.0
C624 C 0.77942 0.7626 0.90065 0.0
N625 N 0.85367 0.84427 0.86156 0.0
C626 C 0.85977 0.82589 0.89326 0.0
C627 C 0.90656 0.88622 0.87215 0.0
C628 C 0.91416 0.86635 0.90259 0.0
C629 C 0.87581 0.87519 0.85266 0.0
C630 C 0.89039 0.83627 0.91428 0.0
H631 H 0.9379 0.87512 0.91796 0.0
O632 O 0.80637 0.86912 0.84878 0.0
O633 O 0.78391 0.81179 0.76775 0.0
O634 O 0.84719 0.81397 0.75561 0.0
O635 O 0.83868 0.85334 0.78794 0.0
O636 O 0.77809 0.85163 0.78626 0.0
O637 O 0.76508 0.82522 0.86505 0.0
O638 O 0.81472 0.73062 0.74701 0.0
O639 O 0.8218 0.78505 0.81202 0.0
O640 O 0.75262 0.78134 0.82639 0.0
O641 O 0.75092 0.74743 0.77875 0.0
O642 O 0.80088 0.73548 0.80277 0.0
O643 O 0.83177 0.77401 0.7078 0.0
C644 C 0.77169 0.83429 0.75723 0.0
C645 C 0.896 0.81701 0.94712 0.0
C646 C 0.87086 0.7885 0.96019 0.0
C647 C 0.77983 0.85677 0.86769 0.0
C648 C 0.78072 0.8694 0.90514 0.0
C649 C 0.80413 0.86808 0.93481 0.0
C650 C 0.75856 0.88461 0.91041 0.0
C651 C 0.76025 0.89928 0.94465 0.0
C652 C 0.80562 0.88226 0.96914 0.0
C653 C 0.78403 0.89806 0.97396 0.0
C654 C 0.85591 0.84412 0.76617 0.0
C655 C 0.81782 0.75583 0.82759 0.0
C656 C 0.83114 0.74417 0.71675 0.0
C657 C 0.82536 0.72294 0.68482 0.0
C658 C 0.79824 0.71853 0.65872 0.0
C659 C 0.84626 0.70568 0.68146 0.0
C660 C 0.83944 0.68295 0.65311 0.0
C661 C 0.79094 0.69606 0.63107 0.0
C662 C 0.81087 0.67804 0.62865 0.0
C663 C 0.73811 0.75536 0.80675 0.0
H664 H 0.82139 0.85648 0.93127 0.0
H665 H 0.74053 0.88582 0.88743 0.0
H666 H 0.82378 0.88127 0.99195 0.0
H667 H 0.78567 0.90908 1.00064 0.0
H668 H 0.78247 0.73216 0.65991 0.0
H669 H 0.86779 0.71038 0.70093 0.0
H670 H 0.76947 0.69231 0.6116 0.0
H671 H 0.80333 0.66006 0.60761 0.0
Co672 Co 0.06426 0.98562 0.50277 0.0
Co673 Co 0.08961 1.00697 0.57005 0.0
Co674 Co 0.04128 0.04221 0.53599 0.0
O675 O 0.07657 0.02697 0.52504 0.0
H676 H 0.09499 0.04419 0.51357 0.0
O677 O 1.00528 0.05599 0.54654 0.0
Co678 Co 1.01212 0.08672 0.58276 0.0
Co679 Co 0.99772 0.08692 0.51359 0.0
H680 H 0.98517 0.03734 0.54976 0.0
O681 O 0.12958 1.00249 0.5742 0.0
O682 O 0.0817 0.96731 0.55051 0.0
O683 O 0.06473 0.9999 0.61457 0.0
O684 O 1.02296 1.00674 0.57838 0.0
O685 O 0.07166 0.06983 0.57471 0.0
O686 O 1.01607 0.11214 0.61967 0.0
O687 O 0.97411 0.06591 0.60501 0.0
O688 O 0.0541 0.11124 0.56541 0.0
O689 O 0.05994 0.0784 0.49441 0.0
O690 O 1.02963 0.10928 0.47685 0.0
O691 O 0.99172 0.11412 0.5458 0.0
O692 O 0.95585 0.08115 0.50261 0.0
C693 C 0.0854 0.96442 0.46985 0.0
C694 C 1.00431 0.98361 0.50045 0.0
C695 C 1.03502 0.99727 0.61017 0.0
C696 C 0.11289 0.97505 0.5591 0.0
C697 C 0.9884 0.08914 0.62802 0.0
C698 C 0.07587 0.09957 0.57866 0.0
C699 C 0.05469 0.10225 0.47393 0.0
C700 C 0.96338 0.10421 0.52603 0.0
O701 O 0.05595 0.94915 0.48095 0.0
O702 O 0.10198 0.99413 0.47977 0.0
O703 O 1.01117 1.01448 0.49727 0.0
O704 O 1.02277 0.97177 0.52214 0.0
Co705 Co 0.56331 0.01961 0.00718 0.0
Co706 Co 0.56214 0.03462 0.07766 0.0
Co707 Co 0.52454 0.07186 0.01773 0.0
O708 O 0.56223 0.05714 0.02959 0.0
H709 H 0.58279 0.0754 0.02762 0.0
O710 O 0.48714 0.08654 0.00416 0.0
Co711 Co 0.47689 0.11653 0.03035 0.0
Co712 Co 0.48989 0.11611 0.96226 0.0
H713 H 0.46771 0.06749 0.99982 0.0
O714 O 0.60076 0.03183 0.10157 0.0
O715 O 0.56587 0.99833 0.05965 0.0
O716 O 0.52253 0.02052 0.10374 0.0
O717 O 0.49313 0.03538 0.05435 0.0
O718 O 0.54185 0.10154 0.06053 0.0
O719 O 0.46198 0.14096 0.05522 0.0
O720 O 0.43395 0.09591 0.02364 0.0
O721 O 0.52275 0.14181 0.04182 0.0
O722 O 0.55607 0.10745 0.98181 0.0
O723 O 0.53174 0.1361 0.94175 0.0
O724 O 0.47561 0.14578 0.98094 0.0
O725 O 0.4532 0.11384 0.93159 0.0
C726 C 0.59918 1.00565 0.98915 0.0
C727 C 0.49967 1.01147 0.98167 0.0
C728 C 0.49521 0.01947 0.08745 0.0
C729 C 0.59233 1.00616 0.08217 0.0
C730 C 0.43429 0.11938 0.04339 0.0
C731 C 0.54432 0.13153 0.05995 0.0
C732 C 0.55701 0.12989 0.95429 0.0
C733 C 0.45435 0.13768 0.9513 0.0
O734 O 0.56851 0.98683 0.98634 0.0
O735 O 0.60743 0.03361 0.00449 0.0
O736 O 0.5072 0.0424 0.9751 0.0
O737 O 0.51721 0.99993 0.00551 0.0
Co738 Co 0.06615 0.50097 0.04926 0.0
Co739 Co 0.0704 0.51337 0.11785 0.0
Co740 Co 1.02744 0.56148 0.06185 0.0
O741 O 0.06638 0.54171 0.07137 0.0
H742 H 0.08716 0.55919 0.06733 0.0
O743 O 0.98843 0.58214 0.05719 0.0
Co744 Co 0.9858 0.62434 0.08309 0.0
Co745 Co 0.99133 0.61382 0.01439 0.0
H746 H 0.96723 0.56474 0.05615 0.0
O747 O 0.11084 0.50794 0.1434 0.0
O748 O 0.077 0.47448 0.10251 0.0
O749 O 1.02884 0.50063 0.14229 0.0
O750 O 1.0023 0.52994 0.10436 0.0
O751 O 0.04955 0.59617 0.09807 0.0
O752 O 0.98208 0.66055 0.10838 0.0
O753 O 0.93931 0.61774 0.09462 0.0
O754 O 1.03372 0.64003 0.08122 0.0
O755 O 0.05543 0.59376 0.0181 0.0
O756 O 1.03234 0.62864 0.98809 0.0
O757 O 0.97909 0.64831 0.0293 0.0
O758 O 0.95357 0.61229 0.98484 0.0
C759 C 0.09906 0.48505 0.02702 0.0
C760 C 1.00009 0.49419 0.02714 0.0
C761 C 1.00384 0.50871 0.1324 0.0
C762 C 0.10324 0.48052 0.12758 0.0
C763 C 0.95061 0.64621 0.11025 0.0
C764 C 0.05596 0.62723 0.09028 0.0
C765 C 0.05604 0.61826 0.99293 0.0
C766 C 0.95677 0.63895 1.0003 0.0
O767 O 0.06801 0.46768 0.02636 0.0
O768 O 0.10972 0.51394 0.04075 0.0
O769 O 1.0031 0.5251 0.02446 0.0
O770 O 1.01873 0.48338 0.05125 0.0
Co771 Co 0.58988 0.50583 0.95491 0.0
Co772 Co 0.56744 0.47294 0.01298 0.0
Co773 Co 0.55148 0.53258 0.022 0.0
O774 O 0.58583 0.5174 0.00627 0.0
H775 H 0.60637 0.52559 0.02129 0.0
O776 O 0.5165 0.546 0.0371 0.0
Co777 Co 0.50996 0.55056 0.08928 0.0
Co778 Co 0.52868 0.58972 0.03259 0.0
H779 H 0.49598 0.53631 0.0227 0.0
O780 O 0.59466 0.45549 0.03797 0.0
O781 O 0.58007 0.45762 0.97343 0.0
O782 O 0.52415 0.45269 0.03279 0.0
O783 O 0.53744 0.49667 0.06484 0.0
O784 O 0.58566 0.56096 0.05799 0.0
O785 O 0.50009 0.55286 0.13633 0.0
O786 O 0.46571 0.53491 0.08493 0.0
O787 O 0.55499 0.56781 0.1008 0.0
O788 O 0.56523 0.56934 0.97983 0.0
O789 O 0.56984 0.61327 0.0098 0.0
O790 O 0.51144 0.59689 0.07473 0.0
O791 O 0.49613 0.60229 0.01099 0.0
C792 C 0.62629 0.50446 0.92331 0.0
C793 C 0.51899 0.4958 0.95374 0.0
C794 C 0.51962 0.46682 0.06024 0.0
C795 C 0.59375 0.44608 0.00382 0.0
C796 C 0.47044 0.5415 0.12101 0.0
C797 C 0.58263 0.57207 0.08892 0.0
C798 C 0.57694 0.60046 0.98267 0.0
C799 C 0.49257 0.6044 0.04695 0.0
O800 O 0.59639 0.49744 0.90949 0.0
O801 O 0.6339 0.5131 0.95871 0.0
O802 O 0.51697 0.50531 0.98595 0.0
O803 O 0.5457 0.4968 0.94242 0.0
Co804 Co 0.1267 0.49218 0.57757 0.0
Co805 Co 0.11039 0.49401 0.50374 0.0
Co806 Co 0.0673 0.52481 0.54639 0.0
O807 O 0.0871 0.49036 0.54655 0.0
H808 H 0.07057 0.46858 0.54918 0.0
O809 O 0.04792 0.55915 0.54742 0.0
Co810 Co 1.00359 0.55206 0.53138 0.0
Co811 Co 1.03666 0.55783 0.59779 0.0
H812 H 0.06265 0.58089 0.53919 0.0
O813 O 0.11721 0.45784 0.48865 0.0
O814 O 0.14849 0.49363 0.5305 0.0
O815 O 0.12013 0.53403 0.47097 0.0
O816 O 0.09791 0.55856 0.50653 0.0
O817 O 1.0341 0.50315 0.50452 0.0
O818 O 0.96368 0.54893 0.51589 0.0
O819 O 1.00787 0.59482 0.52429 0.0
O820 O 0.9936 0.50603 0.53483 0.0
O821 O 1.03673 0.49194 0.5857 0.0
O822 O 1.03713 0.52131 0.63333 0.0
O823 O 0.99287 0.5513 0.58638 0.0
O824 O 1.03104 0.59287 0.61624 0.0
C825 C 0.14558 0.45819 0.60567 0.0
C826 C 0.12939 0.55532 0.58869 0.0
C827 C 0.11538 0.55947 0.47843 0.0
C828 C 0.14335 0.46832 0.51138 0.0
C829 C 0.97662 0.58073 0.5158 0.0
C830 C 1.00342 0.49407 0.50905 0.0
C831 C 1.02932 0.49371 0.61982 0.0
C832 C 1.00067 0.57727 0.6057 0.0
O833 O 0.1613 0.48964 0.60676 0.0
O834 O 0.11722 0.44788 0.58635 0.0
O835 O 0.09855 0.54644 0.58872 0.0
O836 O 0.14249 0.53868 0.57349 0.0
Co837 Co 0.62287 0.98678 0.53528 0.0
Co838 Co 0.60339 0.98692 0.46512 0.0
Co839 Co 0.55694 0.02501 0.50555 0.0
O840 O 0.57836 0.98687 0.50818 0.0
H841 H 0.56162 0.9654 0.51251 0.0
O842 O 0.53706 0.06476 0.49875 0.0
Co843 Co 0.49419 0.0725 0.46713 0.0
Co844 Co 0.51056 0.06055 0.53938 0.0
H845 H 0.55492 0.08569 0.49917 0.0
O846 O 0.60416 0.94961 0.44215 0.0
O847 O 0.6435 0.9792 0.48303 0.0
O848 O 0.61351 0.02845 0.4347 0.0
O849 O 0.58507 0.05241 0.46274 0.0
O850 O 0.51938 1.00179 0.46878 0.0
O851 O 0.4552 0.07991 0.4389 0.0
O852 O 0.4976 0.12114 0.45582 0.0
O853 O 0.48021 0.02465 0.46934 0.0
O854 O 0.52739 0.99532 0.55003 0.0
O855 O 0.49592 0.01939 0.57074 0.0
O856 O 0.47537 0.07143 0.51684 0.0
O857 O 0.51432 0.09773 0.56112 0.0
C858 C 0.64436 0.9526 0.56776 0.0
C859 C 0.62561 0.0546 0.5472 0.0
C860 C 0.60518 0.05281 0.43834 0.0
C861 C 0.63385 0.95632 0.45703 0.0
C862 C 0.46783 0.11176 0.43889 0.0
C863 C 0.48928 0.99987 0.46818 0.0
C864 C 0.50472 0.99489 0.57161 0.0
C865 C 0.48698 0.09432 0.54111 0.0
O866 O 0.6596 0.98423 0.56313 0.0
O867 O 0.61484 0.94114 0.55068 0.0
O868 O 0.59447 0.04945 0.54357 0.0
O869 O 0.63804 0.03658 0.53139 0.0
H870 H 0.19901 0.27293 0.36119 0.0
H871 H 0.21896 0.19016 0.32938 0.0
H872 H 0.15321 0.23513 0.39734 0.0
H873 H 0.17256 0.15265 0.36351 0.0
H874 H 0.05408 0.15586 0.42537 0.0
H875 H 0.09849 0.19356 0.38735 0.0
H876 H 0.15804 0.13598 0.42877 0.0
H877 H 0.11375 0.098 0.46561 0.0
C878 C 0.19352 0.24672 0.36178 0.0
C879 C 0.21229 0.23447 0.34211 0.0
C880 C 0.16713 0.2251 0.38207 0.0
C881 C 0.15919 0.19092 0.38308 0.0
C882 C 0.17819 0.17884 0.36357 0.0
C883 C 0.20457 0.20036 0.34361 0.0
C884 C 0.07653 0.15108 0.426 0.0
C885 C 0.08029 0.12384 0.44846 0.0
C886 C 0.10205 0.17284 0.40452 0.0
C887 C 0.13176 0.16777 0.40516 0.0
C888 C 0.13529 0.14031 0.42721 0.0
C889 C 0.10985 0.11856 0.44846 0.0
H890 H 0.87391 0.19085 0.36647 0.0
H891 H 0.79509 0.15371 0.44369 0.0
H892 H 0.91156 0.183 0.41846 0.0
H893 H 0.83304 0.14507 0.49585 0.0
H894 H 0.97841 0.17028 0.51211 0.0
H895 H 0.94 0.19609 0.48281 0.0
H896 H 0.85989 0.10392 0.5028 0.0
H897 H 0.89818 0.0785 0.53177 0.0
C898 C 0.8647 0.18186 0.3948 0.0
C899 C 0.83128 0.17257 0.40064 0.0
C900 C 0.88643 0.17745 0.42478 0.0
C901 C 0.87532 0.16339 0.46135 0.0
C902 C 0.84228 0.15576 0.4679 0.0
C903 C 0.82051 0.16043 0.43791 0.0
C904 C 0.95244 0.15615 0.512 0.0
C905 C 0.94112 0.12244 0.52388 0.0
C906 C 0.93049 0.17076 0.49484 0.0
C907 C 0.89698 0.15186 0.48978 0.0
C908 C 0.88546 0.11923 0.50628 0.0
C909 C 0.90738 0.10461 0.52292 0.0
H910 H 0.89691 0.8288 0.35152 0.0
H911 H 0.85243 0.90214 0.32534 0.0
H912 H 0.93793 0.86489 0.3946 0.0
H913 H 0.89218 0.93745 0.3693 0.0
H914 H 0.98152 1.00465 0.43119 0.0
H915 H 0.94672 0.97106 0.38189 0.0
H916 H 0.94003 0.88319 0.45621 0.0
H917 H 0.97631 0.91693 0.5047 0.0
C918 C 0.89619 0.85279 0.35469 0.0
C919 C 0.87173 0.86281 0.33499 0.0
C920 C 0.9194 0.8733 0.37962 0.0
C921 C 0.91816 0.90394 0.38573 0.0
C922 C 0.89426 0.9143 0.36488 0.0
C923 C 0.87143 0.89404 0.33958 0.0
C924 C 0.9725 0.97816 0.43701 0.0
C925 C 0.98147 0.96333 0.47178 0.0
C926 C 0.95252 0.95888 0.40878 0.0
C927 C 0.9406 0.9244 0.41502 0.0
C928 C 0.94934 0.90964 0.45008 0.0
C929 C 0.96978 0.92893 0.47806 0.0
H930 H 0.14902 0.81224 0.41472 0.0
H931 H 0.16668 0.88078 0.31276 0.0
H932 H 0.13476 0.85065 0.44804 0.0
H933 H 0.15355 0.91944 0.34682 0.0
H934 H 0.14691 0.98613 0.4421 0.0
H935 H 0.1717 0.95311 0.4129 0.0
H936 H 0.08295 0.86837 0.42561 0.0
H937 H 0.05802 0.9008 0.45348 0.0
C938 C 0.15014 0.83553 0.39951 0.0
C939 C 0.15852 0.84318 0.36086 0.0
C940 C 0.14232 0.85757 0.41872 0.0
C941 C 0.14311 0.88783 0.39982 0.0
C942 C 0.1532 0.89637 0.36204 0.0
C943 C 0.16066 0.87418 0.34262 0.0
C944 C 0.13266 0.96057 0.43818 0.0
C945 C 0.10044 0.94618 0.44982 0.0
C946 C 0.14687 0.94174 0.42177 0.0
C947 C 0.12923 0.90825 0.41759 0.0
C948 C 0.09714 0.89405 0.42909 0.0
C949 C 0.08282 0.91281 0.4447 0.0
H950 H 0.19138 0.83225 0.59369 0.0
H951 H 0.26588 0.91186 0.53338 0.0
H952 H 0.15029 0.85274 0.56315 0.0
H953 H 0.22421 0.92986 0.49912 0.0
H954 H 0.17753 0.99388 0.54992 0.0
H955 H 0.20734 0.96083 0.53591 0.0
H956 H 0.11707 0.87704 0.52598 0.0
H957 H 0.08712 0.91056 0.54206 0.0
C958 C 0.19886 0.85332 0.57262 0.0
C959 C 0.23214 0.87213 0.56857 0.0
C960 C 0.17507 0.86479 0.5544 0.0
C961 C 0.1844 0.8946 0.53096 0.0
C962 C 0.21662 0.90806 0.51915 0.0
C963 C 0.2406 0.89744 0.53858 0.0
C964 C 0.16396 0.96842 0.54475 0.0
C965 C 0.13015 0.95456 0.54821 0.0
C966 C 0.18101 0.94946 0.53564 0.0
C967 C 0.16474 0.91596 0.52974 0.0
C968 C 0.13049 0.90257 0.53089 0.0
C969 C 0.11336 0.92167 0.54031 0.0
H970 H 0.18308 0.2103 0.76958 0.0
H971 H 0.25625 0.19305 0.71116 0.0
H972 H 0.1403 0.17477 0.72774 0.0
H973 H 0.21373 0.15823 0.66862 0.0
H974 H 0.12559 0.08129 0.61255 0.0
H975 H 0.16579 0.10751 0.6629 0.0
H976 H 0.12594 0.18435 0.65803 0.0
H977 H 0.08525 0.15788 0.608 0.0
C978 C 0.1899 0.19776 0.74899 0.0
C979 C 0.22284 0.20397 0.74392 0.0
C980 C 0.1655 0.17801 0.72445 0.0
C981 C 0.17375 0.16418 0.69455 0.0
C982 C 0.20659 0.16843 0.69147 0.0
C983 C 0.23092 0.18827 0.71586 0.0
C984 C 0.12545 0.10387 0.62205 0.0
C985 C 0.10218 0.11751 0.60626 0.0
C986 C 0.14846 0.11882 0.65095 0.0
C987 C 0.14871 0.1477 0.66473 0.0
C988 C 0.12585 0.16168 0.64853 0.0
C989 C 0.10284 0.14677 0.61951 0.0
H990 H 0.86362 0.07453 0.81335 0.0
H991 H 0.93844 0.17135 0.80582 0.0
H992 H 0.89343 0.0559 0.77136 0.0
H993 H 0.96749 0.1535 0.76308 0.0
H994 H 1.02045 0.11674 0.69255 0.0
H995 H 0.99724 0.12096 0.75105 0.0
H996 H 0.90051 0.06723 0.7029 0.0
H997 H 0.92414 0.06166 0.64492 0.0
C998 C 0.88691 0.09148 0.8036 0.0
C999 C 0.89867 0.12441 0.81228 0.0
C1000 C 0.90375 0.08099 0.77923 0.0
C1001 C 0.93254 0.10333 0.76335 0.0
C1002 C 0.94556 0.1355 0.77493 0.0
C1003 C 0.92884 0.14588 0.79923 0.0
C1004 C 0.99423 0.1056 0.69462 0.0
C1005 C 0.97393 0.08954 0.66396 0.0
C1006 C 0.98095 0.10795 0.72817 0.0
C1007 C 0.947 0.09488 0.73145 0.0
C1008 C 0.92681 0.0773 0.70149 0.0
C1009 C 0.94023 0.07442 0.6681 0.0
H1010 H 0.87348 0.91088 0.76103 0.0
H1011 H 0.90608 0.83371 0.73723 0.0
H1012 H 0.92111 0.95185 0.73133 0.0
H1013 H 0.95321 0.87462 0.70679 0.0
H1014 H 0.97461 0.99806 0.61766 0.0
H1015 H 0.93473 0.96384 0.66283 0.0
H1016 H 1.00484 0.9225 0.71738 0.0
H1017 H 0.04494 0.95668 0.67173 0.0
C1018 C 0.89107 0.9027 0.75006 0.0
C1019 C 0.88601 0.86908 0.7513 0.0
C1020 C 0.91821 0.92614 0.73289 0.0
C1021 C 0.94076 0.91637 0.71673 0.0
C1022 C 0.93642 0.88288 0.71944 0.0
C1023 C 0.90924 0.85944 0.73648 0.0
C1024 C 0.98169 0.98197 0.63955 0.0
C1025 C 1.0127 0.97964 0.64078 0.0
C1026 C 0.95894 0.96261 0.66567 0.0
C1027 C 0.96667 0.9404 0.69343 0.0
C1028 C 0.99822 0.93922 0.69596 0.0
C1029 C 1.02115 0.95884 0.66996 0.0
H1030 H 0.2936 0.20719 0.02696 0.0
H1031 H 0.26353 0.13788 0.1266 0.0
H1032 H 0.32991 0.17972 0.01228 0.0
H1033 H 0.30063 0.11123 0.11234 0.0
H1034 H 0.41951 0.14244 0.10512 0.0
H1035 H 0.36904 0.15165 0.11304 0.0
H1036 H 0.33006 0.11539 1.00216 0.0
H1037 H 0.38006 0.10498 0.99475 0.0
C1038 C 0.29364 0.18524 0.04463 0.0
C1039 C 0.27598 0.17469 0.07796 0.0
C1040 C 0.31446 0.16973 0.03634 0.0
C1041 C 0.3179 0.14372 0.06133 0.0
C1042 C 0.29817 0.13131 0.09274 0.0
C1043 C 0.27705 0.14649 0.10078 0.0
C1044 C 0.39991 0.13593 0.08283 0.0
C1045 C 0.40341 0.12294 0.04948 0.0
C1046 C 0.3711 0.14093 0.08745 0.0
C1047 C 0.34583 0.13376 0.05835 0.0
C1048 C 0.34918 0.12058 0.02508 0.0
C1049 C 0.37766 0.11471 0.02094 0.0
H1050 H 0.80039 0.39038 0.17315 0.0
H1051 H 0.85647 0.37026 0.27422 0.0
H1052 H 0.85007 0.4322 0.14821 0.0
H1053 H 0.90592 0.40969 0.249 0.0
H1054 H 0.99026 0.49761 0.20851 0.0
H1055 H 0.9382 0.46323 0.23534 0.0
H1056 H 0.8973 0.43782 0.12045 0.0
H1057 H 0.94832 0.47432 0.09404 0.0
C1058 C 0.82341 0.39467 0.18978 0.0
C1059 C 0.82478 0.3763 0.22499 0.0
C1060 C 0.85194 0.41844 0.17551 0.0
C1061 C 0.88235 0.42426 0.1963 0.0
C1062 C 0.88316 0.40655 0.23225 0.0
C1063 C 0.85468 0.38333 0.24659 0.0
C1064 C 0.96985 0.48487 0.18927 0.0
C1065 C 0.97293 0.4886 0.14942 0.0
C1066 C 0.94008 0.46495 0.20448 0.0
C1067 C 0.91328 0.44754 0.18012 0.0
C1068 C 0.91683 0.45139 0.14013 0.0
C1069 C 0.94618 0.47205 0.12496 0.0
H1070 H 0.75454 0.93757 0.10091 0.0
H1071 H 0.6777 0.86586 0.03754 0.0
H1072 H 0.72182 0.97105 0.09876 0.0
H1073 H 0.64589 0.90129 0.03081 0.0
H1074 H 0.5761 0.94174 0.07146 0.0
H1075 H 0.61265 0.91316 0.06486 0.0
H1076 H 0.69541 1.00378 0.07952 0.0
H1077 H 0.65847 0.03083 0.08997 0.0
C1078 C 0.73097 0.92969 0.08505 0.0
C1079 C 0.71808 0.89859 0.07076 0.0
C1080 C 0.71201 0.9491 0.08351 0.0
C1081 C 0.68011 0.93849 0.0661 0.0
C1082 C 0.66936 0.90952 0.0467 0.0
C1083 C 0.688 0.88952 0.04945 0.0
C1084 C 0.60221 0.95516 0.07399 0.0
C1085 C 0.61457 0.98826 0.08166 0.0
C1086 C 0.62337 0.93901 0.06938 0.0
C1087 C 0.65749 0.95593 0.07098 0.0
C1088 C 0.66961 0.98922 0.07904 0.0
C1089 C 0.6484 1.005 0.08492 0.0
H1090 H 0.22929 0.69182 0.22716 0.0
H1091 H 0.24784 0.77766 0.14579 0.0
H1092 H 0.18108 0.66248 0.18773 0.0
H1093 H 0.19838 0.74847 0.10703 0.0
H1094 H 0.08035 0.69362 0.10013 0.0
H1095 H 0.13609 0.72606 0.12295 0.0
H1096 H 0.16455 0.64221 0.12035 0.0
H1097 H 0.1095 0.60998 0.09777 0.0
C1098 C 0.22337 0.70433 0.20059 0.0
C1099 C 0.24184 0.7374 0.19016 0.0
C1100 C 0.1957 0.68751 0.17802 0.0
C1101 C 0.18585 0.70343 0.14466 0.0
C1102 C 0.20522 0.73591 0.13301 0.0
C1103 C 0.23332 0.7526 0.15531 0.0
C1104 C 0.09866 0.68235 0.10372 0.0
C1105 C 0.09025 0.64896 0.09809 0.0
C1106 C 0.13056 0.70094 0.11657 0.0
C1107 C 0.15435 0.68637 0.12389 0.0
C1108 C 0.14649 0.65382 0.1155 0.0
C1109 C 0.11487 0.63537 0.10267 0.0
H1110 H 0.33061 0.84355 0.9148 0.0
H1111 H 0.35456 0.90854 0.81071 0.0
H1112 H 0.37049 0.88583 0.95207 0.0
H1113 H 0.39506 0.95062 0.84777 0.0
H1114 H 0.45514 0.02688 0.93043 0.0
H1115 H 0.40698 0.98883 0.89761 0.0
H1116 H 0.42943 0.90676 0.95615 0.0
H1117 H 0.47686 0.94447 0.98937 0.0
C1118 C 0.34411 0.86709 0.90002 0.0
C1119 C 0.3398 0.87268 0.85987 0.0
C1120 C 0.36709 0.89121 0.92128 0.0
C1121 C 0.38637 0.92137 0.90279 0.0
C1122 C 0.3805 0.92773 0.86294 0.0
C1123 C 0.35731 0.90362 0.84168 0.0
C1124 C 0.44965 1.0007 0.93642 0.0
C1125 C 0.46995 0.98872 0.96238 0.0
C1126 C 0.42212 0.97893 0.91754 0.0
C1127 C 0.41429 0.94477 0.92435 0.0
C1128 C 0.43437 0.93289 0.95074 0.0
C1129 C 0.4618 0.95457 0.96956 0.0
H1130 H 0.18805 0.38565 0.89823 0.0
H1131 H 0.21527 0.3635 0.01738 0.0
H1132 H 0.16595 0.42465 0.91843 0.0
H1133 H 0.19192 0.40112 0.03721 0.0
H1134 H 0.09734 0.42403 0.05079 0.0
H1135 H 0.1298 0.39473 0.03089 0.0
H1136 H 0.18266 0.4802 0.95753 0.0
H1137 H 0.15049 0.51026 0.97882 0.0
C1138 C 0.18987 0.38936 0.92857 0.0
C1139 C 0.20296 0.37067 0.9561 0.0
C1140 C 0.17713 0.41173 0.94012 0.0
C1141 C 0.17689 0.41571 0.97945 0.0
C1142 C 0.19137 0.39831 0.00673 0.0
C1143 C 0.2045 0.37645 0.99525 0.0
C1144 C 0.1162 0.43679 0.03082 0.0
C1145 C 0.12146 0.46946 0.01648 0.0
C1146 C 0.13482 0.42 0.01945 0.0
C1147 C 0.15876 0.43508 0.99257 0.0
C1148 C 0.1643 0.46793 0.97822 0.0
C1149 C 0.14612 0.48518 0.99055 0.0
H1150 H 0.70883 0.23571 0.79422 0.0
H1151 H 0.75619 0.26489 0.90486 0.0
H1152 H 0.65909 0.20054 0.8254 0.0
H1153 H 0.70625 0.22947 0.93656 0.0
H1154 H 0.5656 0.17168 0.88867 0.0
H1155 H 0.61611 0.20624 0.85979 0.0
H1156 H 0.67113 0.16937 0.94977 0.0
H1157 H 0.62005 0.1345 0.97928 0.0
C1158 C 0.70855 0.23439 0.82533 0.0
C1159 C 0.73658 0.25221 0.84729 0.0
C1160 C 0.68 0.21443 0.84324 0.0
C1161 C 0.67862 0.2119 0.88361 0.0
C1162 C 0.70657 0.23039 0.90551 0.0
C1163 C 0.7351 0.25075 0.88744 0.0
C1164 C 0.58835 0.17072 0.90248 0.0
C1165 C 0.58851 0.15007 0.93643 0.0
C1166 C 0.61743 0.19055 0.88568 0.0
C1167 C 0.6478 0.19064 0.9023 0.0
C1168 C 0.64818 0.17013 0.93635 0.0
C1169 C 0.61887 0.14994 0.9531 0.0
H1170 H 0.88511 0.7846 0.85144 0.0
H1171 H 0.7997 0.69855 0.8735 0.0
H1172 H 0.91835 0.75941 0.89568 0.0
H1173 H 0.83217 0.67362 0.91716 0.0
H1174 H 0.90065 0.61763 0.95385 0.0
H1175 H 0.86981 0.64757 0.91641 0.0
H1176 H 0.93497 0.7377 0.96132 0.0
H1177 H 0.9666 0.70703 0.99941 0.0
C1178 C 0.87313 0.76067 0.86627 0.0
C1179 C 0.83911 0.74416 0.85894 0.0
C1180 C 0.89237 0.74594 0.89178 0.0
C1181 C 0.87863 0.71376 0.91044 0.0
C1182 C 0.84453 0.6979 0.9034 0.0
C1183 C 0.82552 0.71253 0.87829 0.0
C1184 C 0.90861 0.64381 0.95642 0.0
C1185 C 0.93657 0.65928 0.98056 0.0
C1186 C 0.89047 0.66129 0.93465 0.0
C1187 C 0.89909 0.69563 0.93517 0.0
C1188 C 0.9271 0.71145 0.95941 0.0
C1189 C 0.94526 0.69366 0.98183 0.0
H1190 H 0.18671 0.31845 0.23966 0.0
H1191 H 0.27092 0.40497 0.2177 0.0
H1192 H 0.1512 0.34767 0.20806 0.0
H1193 H 0.23593 0.43445 0.18772 0.0
H1194 H 0.16684 0.49634 0.16319 0.0
H1195 H 0.20013 0.46398 0.18902 0.0
H1196 H 0.12332 0.37611 0.15518 0.0
H1197 H 0.0899 0.40916 0.1281 0.0
C1198 C 0.1984 0.34334 0.22715 0.0
C1199 C 0.23351 0.35738 0.23029 0.0
C1200 C 0.17732 0.36091 0.20892 0.0
C1201 C 0.18901 0.39492 0.19379 0.0
C1202 C 0.224 0.40893 0.19792 0.0
C1203 C 0.24489 0.39125 0.21527 0.0
C1204 C 0.15642 0.47014 0.16045 0.0
C1205 C 0.12427 0.45703 0.14202 0.0
C1206 C 0.17632 0.45085 0.17583 0.0
C1207 C 0.16614 0.41586 0.17554 0.0
C1208 C 0.13374 0.40239 0.15731 0.0
C1209 C 0.11394 0.42199 0.141 0.0
H1210 H 0.23897 0.77136 0.91451 0.0
H1211 H 0.2028 0.71787 0.8138 0.0
H1212 H 0.19273 0.73306 0.94979 0.0
H1213 H 0.15522 0.68037 0.84854 0.0
H1214 H 0.05701 0.64551 0.91771 0.0
H1215 H 0.10354 0.6805 0.88042 0.0
H1216 H 0.16949 0.67149 0.97656 0.0
H1217 H 0.12277 0.63534 0.01353 0.0
C1218 C 0.22076 0.75182 0.89944 0.0
C1219 C 0.22455 0.74881 0.86051 0.0
C1220 C 0.19418 0.7295 0.91998 0.0
C1221 C 0.16966 0.70318 0.90249 0.0
C1222 C 0.17316 0.70027 0.86332 0.0
C1223 C 0.2004 0.72217 0.84303 0.0
C1224 C 0.08142 0.65037 0.93086 0.0
C1225 C 0.08561 0.63683 0.9689 0.0
C1226 C 0.10833 0.67064 0.90925 0.0
C1227 C 0.1408 0.67933 0.92501 0.0
C1228 C 0.1451 0.66572 0.96306 0.0
C1229 C 0.11814 0.64458 0.98433 0.0
H1230 H 0.39597 0.29574 0.8442 0.0
H1231 H 0.3063 0.21249 0.8325 0.0
H1232 H 0.42086 0.26137 0.88517 0.0
H1233 H 0.33095 0.17778 0.87431 0.0
H1234 H 0.4036 0.12189 0.89678 0.0
H1235 H 0.37195 0.15467 0.86828 0.0
H1236 H 0.42317 0.22936 0.946 0.0
H1237 H 0.45551 0.19642 0.97443 0.0
C1238 C 0.38135 0.27012 0.85117 0.0
C1239 C 0.34901 0.25696 0.83565 0.0
C1240 C 0.39556 0.25039 0.8749 0.0
C1241 C 0.37807 0.21664 0.88329 0.0
C1242 C 0.34536 0.20357 0.8683 0.0
C1243 C 0.33103 0.22348 0.84466 0.0
C1244 C 0.40807 0.14518 0.90818 0.0
C1245 C 0.43265 0.15665 0.9376 0.0
C1246 C 0.38955 0.16394 0.89195 0.0
C1247 C 0.39499 0.19494 0.90445 0.0
C1248 C 0.41858 0.20585 0.93512 0.0
C1249 C 0.43707 0.18689 0.9516 0.0
H1250 H 0.89809 0.32384 0.88674 0.0
H1251 H 0.84058 0.38477 0.85812 0.0
H1252 H 0.93377 0.36315 0.93033 0.0
H1253 H 0.87603 0.42438 0.90177 0.0
H1254 H 0.98304 0.42666 0.02958 0.0
H1255 H 0.94592 0.38751 0.98694 0.0
H1256 H 0.92374 0.46626 0.9195 0.0
H1257 H 0.96041 0.50542 0.96339 0.0
C1258 C 0.89248 0.34529 0.89007 0.0
C1259 C 0.86572 0.3503 0.86834 0.0
C1260 C 0.91332 0.36837 0.91544 0.0
C1261 C 0.90853 0.39784 0.92071 0.0
C1262 C 0.88164 0.40278 0.89887 0.0
C1263 C 0.86091 0.3797 0.87337 0.0
C1264 C 0.97023 0.4359 0.00582 0.0
C1265 C 0.9753 0.46985 1.00065 0.0
C1266 C 0.9488 0.41309 0.98067 0.0
C1267 C 0.93123 0.42284 0.94855 0.0
C1268 C 0.93602 0.45686 0.94363 0.0
C1269 C 0.95743 0.47974 0.96904 0.0
H1270 H 0.69415 0.87244 0.94588 0.0
H1271 H 0.77519 0.96404 0.95429 0.0
H1272 H 0.6565 0.89944 0.95447 0.0
H1273 H 0.73774 0.9923 0.95979 0.0
H1274 H 0.66582 0.03063 0.00395 0.0
H1275 H 0.70481 1.00575 0.9932 0.0
H1276 H 0.62817 0.93074 0.93268 0.0
H1277 H 0.58909 0.95376 0.94728 0.0
C1278 C 0.70375 0.89863 0.94896 0.0
C1279 C 0.73746 0.91617 0.94948 0.0
C1280 C 0.68212 0.91447 0.95336 0.0
C1281 C 0.69351 0.9486 0.95752 0.0
C1282 C 0.72755 0.96606 0.95759 0.0
C1283 C 0.74921 0.94995 0.95413 0.0
C1284 C 0.65741 1.00875 0.98844 0.0
C1285 C 0.62416 0.99374 0.97748 0.0
C1286 C 0.67995 0.99449 0.98176 0.0
C1287 C 0.67006 0.96544 0.96255 0.0
C1288 C 0.63702 0.95203 0.94914 0.0
C1289 C 0.61442 0.96562 0.95702 0.0
H1290 H 0.79629 0.70174 0.22233 0.0
H1291 H 0.88435 0.78516 0.23678 0.0
H1292 H 0.82499 0.67613 0.18781 0.0
H1293 H 0.91357 0.75989 0.20195 0.0
H1294 H 0.97064 0.7068 0.14407 0.0
H1295 H 0.94119 0.73369 0.17516 0.0
H1296 H 0.85156 0.65252 0.15489 0.0
H1297 H 0.88151 0.62567 0.1237 0.0
C1298 C 0.82174 0.71557 0.21732 0.0
C1299 C 0.83639 0.74728 0.23184 0.0
C1300 C 0.83895 0.70023 0.1972 0.0
C1301 C 0.87305 0.7146 0.19031 0.0
C1302 C 0.88783 0.74644 0.20513 0.0
C1303 C 0.87046 0.76181 0.22528 0.0
C1304 C 0.94456 0.69418 0.14588 0.0
C1305 C 0.92971 0.66297 0.1301 0.0
C1306 C 0.92698 0.71019 0.16436 0.0
C1307 C 0.89251 0.69668 0.16917 0.0
C1308 C 0.87757 0.66532 0.15322 0.0
C1309 C 0.89526 0.64929 0.13461 0.0
H1310 H 0.40806 0.86646 0.25845 0.0
H1311 H 0.3266 0.84573 0.17431 0.0
H1312 H 0.43818 0.9155 0.21916 0.0
H1313 H 0.35653 0.89639 0.13475 0.0
H1314 H 0.44224 0.96955 0.0571 0.0
H1315 H 0.40283 0.92296 0.09369 0.0
H1316 H 0.44272 0.96945 0.19901 0.0
H1317 H 0.48255 1.01466 0.16278 0.0
C1318 C 0.39626 0.87275 0.23167 0.0
C1319 C 0.36432 0.8526 0.22043 0.0
C1320 C 0.41354 0.9013 0.20907 0.0
C1321 C 0.39988 0.91089 0.17373 0.0
C1322 C 0.36805 0.89023 0.16177 0.0
C1323 C 0.35058 0.86136 0.18473 0.0
C1324 C 0.44186 0.97018 0.08793 0.0
C1325 C 0.46558 0.99604 0.10692 0.0
C1326 C 0.41931 0.9433 0.10908 0.0
C1327 C 0.41981 0.94163 0.14977 0.0
C1328 C 0.44197 0.96892 0.16804 0.0
C1329 C 0.46464 0.99531 0.14713 0.0
H1330 H 0.67976 0.29052 0.19288 0.0
H1331 H 0.72935 0.22213 0.19225 0.0
H1332 H 0.6348 0.25644 0.1525 0.0
H1333 H 0.68538 0.18905 0.15008 0.0
H1334 H 0.58636 0.11557 0.11419 0.0
H1335 H 0.63214 0.15178 0.15118 0.0
H1336 H 0.61367 0.23607 0.09269 0.0
H1337 H 0.56666 0.19937 0.0567 0.0
C1338 C 0.68129 0.26836 0.18389 0.0
C1339 C 0.70812 0.2589 0.19668 0.0
C1340 C 0.65549 0.24886 0.16023 0.0
C1341 C 0.65583 0.21943 0.14814 0.0
C1342 C 0.68349 0.21091 0.15946 0.0
C1343 C 0.70911 0.23023 0.18341 0.0
C1344 C 0.59195 0.14183 0.10912 0.0
C1345 C 0.57256 0.1544 0.08236 0.0
C1346 C 0.6186 0.16279 0.13024 0.0
C1347 C 0.6272 0.19719 0.12504 0.0
C1348 C 0.60781 0.20981 0.09811 0.0
C1349 C 0.58082 0.18872 0.07722 0.0
H1350 H 0.71671 0.68878 0.80927 0.0
H1351 H 0.69075 0.76896 0.83736 0.0
H1352 H 0.6734 0.65015 0.84753 0.0
H1353 H 0.64644 0.73022 0.87448 0.0
H1354 H 0.61518 0.66495 0.98558 0.0
H1355 H 0.64857 0.70141 0.9359 0.0
H1356 H 0.61719 0.62244 0.86068 0.0
H1357 H 0.58451 0.58544 0.91123 0.0
C1358 C 0.70081 0.69794 0.8223 0.0
C1359 C 0.70712 0.73179 0.82071 0.0
C1360 C 0.676 0.6758 0.84434 0.0
C1361 C 0.65692 0.6872 0.86474 0.0
C1362 C 0.66136 0.72079 0.86001 0.0
C1363 C 0.68646 0.74294 0.8385 0.0
C1364 C 0.61528 0.65537 0.9584 0.0
C1365 C 0.59724 0.62235 0.95232 0.0
C1366 C 0.63416 0.67637 0.9297 0.0
C1367 C 0.63519 0.66497 0.89406 0.0
C1368 C 0.61703 0.63193 0.88788 0.0
C1369 C 0.59834 0.61076 0.91683 0.0
H1370 H 0.34241 0.69149 0.03519 0.0
H1371 H 0.34111 0.63802 0.93855 0.0
H1372 H 0.38045 0.66787 0.07206 0.0
H1373 H 0.3786 0.61502 0.97429 0.0
H1374 H 0.48876 0.65928 0.07308 0.0
H1375 H 0.44011 0.67466 0.06375 0.0
H1376 H 0.38259 0.57752 0.02968 0.0
H1377 H 0.43135 0.56368 0.03539 0.0
C1378 C 0.34989 0.6743 0.02224 0.0
C1379 C 0.33922 0.66656 0.98415 0.0
C1380 C 0.37159 0.66096 0.04314 0.0
C1381 C 0.38219 0.63934 0.02624 0.0
C1382 C 0.37038 0.63096 0.98857 0.0
C1383 C 0.34918 0.64439 0.96785 0.0
C1384 C 0.46536 0.641 0.06511 0.0
C1385 C 0.46344 0.61025 0.05525 0.0
C1386 C 0.43753 0.64967 0.05993 0.0
C1387 C 0.40776 0.62744 0.04519 0.0
C1388 C 0.40535 0.59534 0.04032 0.0
C1389 C 0.43315 0.58726 0.04399 0.0
H1390 H 0.3265 0.38809 0.84985 0.0
H1391 H 0.39942 0.3784 0.78362 0.0
H1392 H 0.3689 0.43084 0.88428 0.0
H1393 H 0.44179 0.42006 0.81817 0.0
H1394 H 0.51448 0.50175 0.87583 0.0
H1395 H 0.46745 0.4747 0.83329 0.0
H1396 H 0.41042 0.43068 0.93268 0.0
H1397 H 0.45721 0.4594 0.97502 0.0
C1398 C 0.35157 0.3957 0.84209 0.0
C1399 C 0.35977 0.38036 0.81374 0.0
C1400 C 0.37585 0.41992 0.86197 0.0
C1401 C 0.40882 0.42877 0.85426 0.0
C1402 C 0.41665 0.41446 0.82442 0.0
C1403 C 0.39232 0.39058 0.8043 0.0
C1404 C 0.49168 0.48663 0.88844 0.0
C1405 C 0.48943 0.48216 0.9286 0.0
C1406 C 0.46478 0.47107 0.86413 0.0
C1407 C 0.43529 0.45005 0.87952 0.0
C1408 C 0.43262 0.44696 0.91974 0.0
C1409 C 0.45944 0.46316 0.94408 0.0
H1410 H 0.67823 0.38843 0.78666 0.0
H1411 H 0.76956 0.47111 0.78785 0.0
H1412 H 0.65682 0.41435 0.83 0.0
H1413 H 0.7478 0.49722 0.8314 0.0
H1414 H 0.68963 0.50558 0.94219 0.0
H1415 H 0.72086 0.4846 0.90406 0.0
H1416 H 0.64598 0.47027 0.81164 0.0
H1417 H 0.61527 0.49082 0.84861 0.0
C1418 C 0.69394 0.41188 0.79669 0.0
C1419 C 0.72545 0.42785 0.78351 0.0
C1420 C 0.68164 0.42677 0.82138 0.0
C1421 C 0.70063 0.45786 0.83381 0.0
C1422 C 0.73274 0.47322 0.82229 0.0
C1423 C 0.74499 0.45843 0.79713 0.0
C1424 C 0.68023 0.49849 0.91346 0.0
C1425 C 0.64943 0.49896 0.89907 0.0
C1426 C 0.69804 0.48647 0.89174 0.0
C1427 C 0.68527 0.475 0.8554 0.0
C1428 C 0.65596 0.47814 0.83996 0.0
C1429 C 0.63842 0.49008 0.86131 0.0
H1430 H 0.67643 0.35543 0.16228 0.0
H1431 H 0.73923 0.453 0.12135 0.0
H1432 H 0.65181 0.34603 0.09795 0.0
H1433 H 0.71179 0.44527 0.0584 0.0
H1434 H 0.64871 0.45323 0.96896 0.0
H1435 H 0.68771 0.42957 1.00018 0.0
H1436 H 0.6114 0.36189 0.07032 0.0
H1437 H 0.57304 0.38429 0.03702 0.0
C1438 C 0.6855 0.37487 0.13965 0.0
C1439 C 0.70884 0.40577 0.14783 0.0
C1440 C 0.67089 0.36955 0.10249 0.0
C1441 C 0.67809 0.39542 0.07299 0.0
C1442 C 0.70465 0.42465 0.08003 0.0
C1443 C 0.72003 0.42956 0.11682 0.0
C1444 C 0.64002 0.43175 0.98895 0.0
C1445 C 0.60838 0.42132 1.00159 0.0
C1446 C 0.66251 0.41855 0.00774 0.0
C1447 C 0.65359 0.39561 0.04021 0.0
C1448 C 0.62003 0.38027 0.04655 0.0
C1449 C 0.59759 0.39304 0.02716 0.0
H1450 H 0.72608 0.68108 0.26046 0.0
H1451 H 0.71687 0.75222 0.16805 0.0
H1452 H 0.69167 0.63666 0.22237 0.0
H1453 H 0.68245 0.70742 0.12983 0.0
H1454 H 0.63939 0.61677 0.06073 0.0
H1455 H 0.68232 0.65866 0.09655 0.0
H1456 H 0.63269 0.61754 0.20152 0.0
H1457 H 0.5902 0.57614 0.16602 0.0
C1458 C 0.71656 0.68734 0.23215 0.0
C1459 C 0.72369 0.72033 0.21772 0.0
C1460 C 0.69701 0.6618 0.21022 0.0
C1461 C 0.68429 0.66856 0.17319 0.0
C1462 C 0.69219 0.70147 0.15816 0.0
C1463 C 0.71165 0.72712 0.18022 0.0
C1464 C 0.63825 0.61628 0.09162 0.0
C1465 C 0.61158 0.59326 0.11069 0.0
C1466 C 0.66254 0.64041 0.11199 0.0
C1467 C 0.66074 0.64144 0.15177 0.0
C1468 C 0.63492 0.61725 0.17099 0.0
C1469 C 0.61055 0.59358 0.15065 0.0
H1470 H 0.36464 0.58912 0.28592 0.0
H1471 H 0.37798 0.65502 0.18197 0.0
H1472 H 0.3766 0.54962 0.252 0.0
H1473 H 0.38909 0.61506 0.1479 0.0
H1474 H 0.47216 0.54753 0.19774 0.0
H1475 H 0.43531 0.5642 0.23005 0.0
H1476 H 0.37113 0.55352 0.127 0.0
H1477 H 0.40718 0.53428 0.09524 0.0
C1478 C 0.36928 0.59481 0.25558 0.0
C1479 C 0.37124 0.62559 0.2369 0.0
C1480 C 0.37584 0.57207 0.23615 0.0
C1481 C 0.38407 0.57946 0.19752 0.0
C1482 C 0.38255 0.60863 0.17764 0.0
C1483 C 0.37626 0.63157 0.1972 0.0
C1484 C 0.44967 0.54759 0.18224 0.0
C1485 C 0.44341 0.54125 0.14321 0.0
C1486 C 0.42846 0.55707 0.20087 0.0
C1487 C 0.40075 0.56083 0.18072 0.0
C1488 C 0.39265 0.55129 0.14294 0.0
C1489 C 0.41345 0.54065 0.12468 0.0
H1490 H 0.36034 0.40389 0.21586 0.0
H1491 H 0.38104 0.31671 0.20397 0.0
H1492 H 0.40459 0.43617 0.17418 0.0
H1493 H 0.42549 0.34882 0.1634 0.0
H1494 H 0.506 0.48788 0.12503 0.0
H1495 H 0.46331 0.45769 0.16922 0.0
H1496 H 0.43156 0.37505 0.09953 0.0
H1497 H 0.47459 0.40478 0.05609 0.0
C1498 C 0.37463 0.39176 0.20478 0.0
C1499 C 0.36713 0.35778 0.2129 0.0
C1500 C 0.4 0.41022 0.18099 0.0
C1501 C 0.41835 0.39499 0.16509 0.0
C1502 C 0.41135 0.36119 0.17435 0.0
C1503 C 0.38596 0.34279 0.19777 0.0
C1504 C 0.48998 0.46319 0.11928 0.0
C1505 C 0.49392 0.44858 0.08726 0.0
C1506 C 0.46538 0.44599 0.14448 0.0
C1507 C 0.44418 0.41383 0.13813 0.0
C1508 C 0.44792 0.39948 0.10579 0.0
C1509 C 0.47253 0.4166 0.08074 0.0
H1510 H 0.88354 0.66757 0.70744 0.0
H1511 H 0.8467 0.65541 0.58839 0.0
H1512 H 0.92098 0.64026 0.69834 0.0
H1513 H 0.88137 0.62501 0.58168 0.0
H1514 H 0.93386 0.55097 0.59139 0.0
H1515 H 0.89337 0.57371 0.60526 0.0
H1516 H 0.96985 0.65376 0.65748 0.0
H1517 H 1.0102 0.63166 0.64308 0.0
C1518 C 0.88311 0.65936 0.67934 0.0
C1519 C 0.86168 0.6645 0.64869 0.0
C1520 C 0.90447 0.64321 0.67438 0.0
C1521 C 0.90434 0.63073 0.63907 0.0
C1522 C 0.8822 0.63451 0.60907 0.0
C1523 C 0.8618 0.65173 0.6134 0.0
C1524 C 0.94202 0.5734 0.60583 0.0
C1525 C 0.97539 0.58964 0.61562 0.0
C1526 C 0.91883 0.58641 0.61382 0.0
C1527 C 0.9284 0.61552 0.63259 0.0
C1528 C 0.9616 0.63113 0.6434 0.0
C1529 C 0.98477 0.61847 0.63489 0.0
H1530 H 0.37444 0.87922 0.75707 0.0
H1531 H 0.34702 0.81462 0.66599 0.0
H1532 H 0.41861 0.9182 0.71991 0.0
H1533 H 0.39207 0.85195 0.62945 0.0
H1534 H 0.5029 0.98777 0.65073 0.0
H1535 H 0.46424 0.94532 0.69127 0.0
H1536 H 0.41918 0.89361 0.59032 0.0
H1537 H 0.45952 0.9353 0.55095 0.0
C1538 C 0.37837 0.87284 0.72944 0.0
C1539 C 0.35701 0.84318 0.71513 0.0
C1540 C 0.40413 0.89549 0.70755 0.0
C1541 C 0.41012 0.88952 0.67028 0.0
C1542 C 0.38901 0.85907 0.65694 0.0
C1543 C 0.36295 0.83691 0.67844 0.0
C1544 C 0.48544 0.96663 0.63745 0.0
C1545 C 0.48557 0.9648 0.59741 0.0
C1546 C 0.46232 0.94214 0.66085 0.0
C1547 C 0.43712 0.91487 0.64529 0.0
C1548 C 0.43774 0.91304 0.60496 0.0
C1549 C 0.46139 0.93725 0.58177 0.0
H1550 H 0.28154 0.36984 0.72627 0.0
H1551 H 0.18865 0.29014 0.71817 0.0
H1552 H 0.2584 0.40624 0.68561 0.0
H1553 H 0.16493 0.3264 0.67947 0.0
H1554 H 0.13192 0.39374 0.59218 0.0
H1555 H 0.15994 0.35717 0.62144 0.0
H1556 H 0.22292 0.43414 0.69084 0.0
H1557 H 0.1959 0.47073 0.66049 0.0
C1558 C 0.25634 0.36001 0.7152 0.0
C1559 C 0.23707 0.32701 0.72469 0.0
C1560 C 0.24283 0.38093 0.69237 0.0
C1561 C 0.20954 0.36951 0.67924 0.0
C1562 C 0.19067 0.3362 0.68824 0.0
C1563 C 0.20422 0.31536 0.71072 0.0
C1564 C 0.15164 0.4027 0.61384 0.0
C1565 C 0.16132 0.43503 0.62433 0.0
C1566 C 0.16781 0.38176 0.63066 0.0
C1567 C 0.19383 0.39247 0.6588 0.0
C1568 C 0.20353 0.42497 0.6689 0.0
C1569 C 0.18768 0.44594 0.65177 0.0
H1570 H 0.71689 0.2373 0.6753 0.0
H1571 H 0.77087 0.17543 0.72006 0.0
H1572 H 0.68464 0.19596 0.63113 0.0
H1573 H 0.73868 0.13413 0.67647 0.0
H1574 H 0.69166 0.07141 0.5734 0.0
H1575 H 0.72513 0.11444 0.6149 0.0
H1576 H 0.64332 0.14495 0.62006 0.0
H1577 H 0.61022 0.10235 0.57842 0.0
C1578 C 0.72208 0.21497 0.67595 0.0
C1579 C 0.74708 0.21049 0.70199 0.0
C1580 C 0.7032 0.19076 0.65041 0.0
C1581 C 0.70836 0.16075 0.64924 0.0
C1582 C 0.73356 0.15653 0.67521 0.0
C1583 C 0.75223 0.18057 0.70083 0.0
C1584 C 0.68069 0.08735 0.58305 0.0
C1585 C 0.64767 0.08264 0.57172 0.0
C1586 C 0.70006 0.11225 0.60751 0.0
C1587 C 0.68762 0.13408 0.62188 0.0
C1588 C 0.6547 0.12957 0.60997 0.0
C1589 C 0.63533 0.10458 0.58582 0.0
H1590 H 0.83544 0.4033 0.35504 0.0
H1591 H 0.87803 0.32832 0.37791 0.0
H1592 H 0.87867 0.43891 0.39596 0.0
H1593 H 0.92202 0.36457 0.41814 0.0
H1594 H 1.01258 0.45676 0.45558 0.0
H1595 H 0.9705 0.41898 0.41428 0.0
H1596 H 0.89589 0.43982 0.46553 0.0
H1597 H 0.93732 0.4771 0.5064 0.0
C1598 C 0.85382 0.39418 0.36902 0.0
C1599 C 0.85288 0.36263 0.36327 0.0
C1600 C 0.87879 0.41476 0.3924 0.0
C1601 C 0.90385 0.40463 0.4105 0.0
C1602 C 0.9033 0.3733 0.40436 0.0
C1603 C 0.87803 0.35249 0.38124 0.0
C1604 C 0.98718 0.45318 0.45806 0.0
C1605 C 0.9785 0.47017 0.48432 0.0
C1606 C 0.96306 0.43142 0.43452 0.0
C1607 C 0.92979 0.42654 0.43636 0.0
C1608 C 0.92124 0.44331 0.46288 0.0
C1609 C 0.94514 0.46463 0.48655 0.0
H1610 H 0.69333 0.82042 0.319 0.0
H1611 H 0.78645 0.89069 0.35238 0.0
H1612 H 0.66625 0.84651 0.3554 0.0
H1613 H 0.75964 0.9173 0.38896 0.0
H1614 H 0.70418 0.96541 0.46221 0.0
H1615 H 0.73314 0.93752 0.43018 0.0
H1616 H 0.64183 0.87789 0.37667 0.0
H1617 H 0.61363 0.9052 0.4082 0.0
C1618 C 0.70864 0.84088 0.33501 0.0
C1619 C 0.74327 0.85107 0.33328 0.0
C1620 C 0.6926 0.85689 0.35614 0.0
C1621 C 0.70944 0.88541 0.37702 0.0
C1622 C 0.74418 0.89578 0.37486 0.0
C1623 C 0.76015 0.8798 0.35352 0.0
C1624 C 0.68985 0.94623 0.44391 0.0
C1625 C 0.65524 0.93867 0.43931 0.0
C1626 C 0.70695 0.92973 0.42469 0.0
C1627 C 0.69116 0.90398 0.3992 0.0
C1628 C 0.65666 0.89659 0.39521 0.0
C1629 C 0.63981 0.91301 0.41404 0.0
H1630 H 0.2085 0.71328 0.2946 0.0
H1631 H 0.26063 0.75107 0.39983 0.0
H1632 H 0.17142 0.66562 0.3318 0.0
H1633 H 0.22388 0.70324 0.43738 0.0
H1634 H 0.13412 0.62457 0.49614 0.0
H1635 H 0.16781 0.67463 0.45874 0.0
H1636 H 0.17117 0.61582 0.36966 0.0
H1637 H 0.13777 0.56646 0.40649 0.0
C1638 C 0.21229 0.71114 0.32573 0.0
C1639 C 0.23831 0.73542 0.34412 0.0
C1640 C 0.19095 0.68378 0.34723 0.0
C1641 C 0.19451 0.68001 0.38795 0.0
C1642 C 0.22001 0.70503 0.40628 0.0
C1643 C 0.24139 0.73237 0.38471 0.0
C1644 C 0.14161 0.6224 0.46831 0.0
C1645 C 0.13284 0.59113 0.45456 0.0
C1646 C 0.16133 0.65116 0.44692 0.0
C1647 C 0.17251 0.64967 0.41082 0.0
C1648 C 0.16296 0.61844 0.39687 0.0
C1649 C 0.14373 0.58986 0.4183 0.0
H1650 H 0.38967 0.27356 0.31261 0.0
H1651 H 0.30353 0.19202 0.34328 0.0
H1652 H 0.4238 0.2433 0.34513 0.0
H1653 H 0.33706 0.16154 0.37493 0.0
H1654 H 0.40096 0.09564 0.41244 0.0
H1655 H 0.36877 0.12848 0.38381 0.0
H1656 H 0.45375 0.21642 0.39154 0.0
H1657 H 0.48605 0.18313 0.42095 0.0
C1658 C 0.37736 0.24963 0.32723 0.0
C1659 C 0.34225 0.23744 0.32607 0.0
C1660 C 0.39759 0.23138 0.34611 0.0
C1661 C 0.3849 0.19835 0.36433 0.0
C1662 C 0.34981 0.18614 0.36234 0.0
C1663 C 0.32977 0.20449 0.34402 0.0
C1664 C 0.41347 0.12201 0.40849 0.0
C1665 C 0.44758 0.13512 0.42037 0.0
C1666 C 0.39424 0.14165 0.39152 0.0
C1667 C 0.40694 0.17682 0.38386 0.0
C1668 C 0.44124 0.19008 0.3956 0.0
C1669 C 0.46047 0.17034 0.4132 0.0
H1670 H 0.70784 0.8043 0.72539 0.0
H1671 H 0.79414 0.89042 0.70973 0.0
H1672 H 0.6766 0.83013 0.67939 0.0
H1673 H 0.76419 0.91566 0.66293 0.0
H1674 H 0.70178 0.97371 0.61239 0.0
H1675 H 0.73059 0.94359 0.6528 0.0
H1676 H 0.65687 0.85207 0.62159 0.0
H1677 H 0.62691 0.88311 0.58149 0.0
C1678 C 0.72066 0.82818 0.71092 0.0
C1679 C 0.75437 0.84431 0.72054 0.0
C1680 C 0.70248 0.84344 0.68446 0.0
C1681 C 0.71693 0.87594 0.66682 0.0
C1682 C 0.75092 0.89132 0.67582 0.0
C1683 C 0.76875 0.8763 0.70241 0.0
C1684 C 0.69137 0.94713 0.61369 0.0
C1685 C 0.66151 0.93148 0.59274 0.0
C1686 C 0.70848 0.92939 0.63712 0.0
C1687 C 0.69723 0.89455 0.64102 0.0
C1688 C 0.66706 0.87863 0.62023 0.0
C1689 C 0.64963 0.89662 0.59675 0.0
H1690 H 0.71787 0.22389 0.29201 0.0
H1691 H 0.76141 0.23875 0.40769 0.0
H1692 H 0.67653 0.1725 0.31534 0.0
H1693 H 0.71952 0.18693 0.43136 0.0
H1694 H 0.63681 0.06414 0.3717 0.0
H1695 H 0.67563 0.11651 0.34567 0.0
H1696 H 0.6566 0.16565 0.43552 0.0
H1697 H 0.61733 0.11363 0.46114 0.0
C1698 C 0.71833 0.21627 0.32257 0.0
C1699 C 0.74216 0.23561 0.34839 0.0
C1700 C 0.69486 0.18672 0.3358 0.0
C1701 C 0.69469 0.17602 0.37512 0.0
C1702 C 0.71891 0.19503 0.40093 0.0
C1703 C 0.74279 0.22448 0.38753 0.0
C1704 C 0.64042 0.08624 0.38538 0.0
C1705 C 0.62394 0.08478 0.41833 0.0
C1706 C 0.66271 0.11614 0.37061 0.0
C1707 C 0.66939 0.14492 0.38902 0.0
C1708 C 0.65212 0.1437 0.42112 0.0
C1709 C 0.62936 0.11398 0.43542 0.0
H1710 H 0.88011 0.72173 0.52635 0.0
H1711 H 0.81355 0.64351 0.46165 0.0
H1712 H 0.9181 0.69196 0.53801 0.0
H1713 H 0.85152 0.61495 0.47079 0.0
H1714 H 0.91073 0.55588 0.51459 0.0
H1715 H 0.874 0.58504 0.51405 0.0
H1716 H 0.95535 0.67774 0.50524 0.0
H1717 H 0.99296 0.6479 0.50907 0.0
C1718 C 0.87344 0.69788 0.51538 0.0
C1719 C 0.84406 0.68464 0.49334 0.0
C1720 C 0.89538 0.68121 0.52123 0.0
C1721 C 0.88807 0.65119 0.50502 0.0
C1722 C 0.85789 0.63762 0.48439 0.0
C1723 C 0.83604 0.65396 0.47903 0.0
C1724 C 0.92096 0.58251 0.51219 0.0
C1725 C 0.95478 0.59962 0.51126 0.0
C1726 C 0.89975 0.59931 0.51177 0.0
C1727 C 0.91154 0.63382 0.50884 0.0
C1728 C 0.94545 0.65112 0.50784 0.0
C1729 C 0.96695 0.63411 0.5094 0.0
H1730 H 0.36413 0.80379 0.40475 0.0
H1731 H 0.31663 0.87323 0.36766 0.0
H1732 H 0.40399 0.84403 0.44479 0.0
H1733 H 0.35543 0.91273 0.40771 0.0
H1734 H 0.42545 0.98093 0.48423 0.0
H1735 H 0.38085 0.9304 0.46938 0.0
H1736 H 0.44879 0.8955 0.42429 0.0
H1737 H 0.49368 0.9458 0.44009 0.0
C1738 C 0.36205 0.82741 0.40525 0.0
C1739 C 0.33855 0.83592 0.38103 0.0
C1740 C 0.38468 0.85039 0.42842 0.0
C1741 C 0.38347 0.88194 0.42855 0.0
C1742 C 0.35728 0.88875 0.40825 0.0
C1743 C 0.33497 0.86595 0.38498 0.0
C1744 C 0.43095 0.96239 0.47137 0.0
C1745 C 0.46299 0.96778 0.46228 0.0
C1746 C 0.40538 0.93336 0.46307 0.0
C1747 C 0.41118 0.90912 0.44519 0.0
C1748 C 0.44352 0.91357 0.43837 0.0
C1749 C 0.46922 0.94257 0.44701 0.0
H1750 H 0.31885 0.43335 0.49897 0.0
H1751 H 0.24643 0.33537 0.50099 0.0
H1752 H 0.27885 0.45396 0.51807 0.0
H1753 H 0.2064 0.35544 0.52185 0.0
H1754 H 0.20226 0.48604 0.55281 0.0
H1755 H 0.24162 0.45854 0.55927 0.0
H1756 H 0.17807 0.386 0.48474 0.0
H1757 H 0.138 0.41224 0.48035 0.0
C1758 C 0.29471 0.41602 0.5054 0.0
C1759 C 0.28547 0.38293 0.49847 0.0
C1760 C 0.27169 0.42776 0.5163 0.0
C1761 C 0.23914 0.40645 0.52069 0.0
C1762 C 0.23101 0.37265 0.51764 0.0
C1763 C 0.25394 0.36103 0.5063 0.0
C1764 C 0.19648 0.4639 0.53832 0.0
C1765 C 0.16705 0.4514 0.51589 0.0
C1766 C 0.21912 0.44821 0.54193 0.0
C1767 C 0.21315 0.4201 0.52247 0.0
C1768 C 0.18332 0.40721 0.5008 0.0
C1769 C 0.16049 0.42258 0.49772 0.0
H1770 H 0.36405 0.21334 0.54293 0.0
H1771 H 0.40849 0.21116 0.65842 0.0
H1772 H 0.3907 0.17785 0.52468 0.0
H1773 H 0.43378 0.17433 0.6407 0.0
H1774 H 0.50714 0.14514 0.58693 0.0
H1775 H 0.47735 0.17784 0.60357 0.0
H1776 H 0.39437 0.12392 0.53085 0.0
H1777 H 0.42482 0.09118 0.51341 0.0
C1778 C 0.37935 0.20518 0.56459 0.0
C1779 C 0.38437 0.21568 0.60215 0.0
C1780 C 0.39436 0.18439 0.55416 0.0
C1781 C 0.41482 0.17335 0.58097 0.0
C1782 C 0.41878 0.18279 0.61892 0.0
C1783 C 0.40384 0.20364 0.62933 0.0
C1784 C 0.48254 0.14009 0.57431 0.0
C1785 C 0.4684 0.11518 0.54896 0.0
C1786 C 0.46525 0.1588 0.58422 0.0
C1787 C 0.4331 0.15333 0.56924 0.0
C1788 C 0.41909 0.12895 0.54303 0.0
C1789 C 0.43652 0.11008 0.53304 0.0
H1790 H 0.87851 0.30313 0.69281 0.0
H1791 H 0.89379 0.36284 0.7873 0.0
H1792 H 0.91971 0.34824 0.65741 0.0
H1793 H 0.93601 0.4073 0.75361 0.0
H1794 H 1.01416 0.42708 0.61353 0.0
H1795 H 0.97348 0.3806 0.64813 0.0
H1796 H 0.94755 0.44868 0.70606 0.0
H1797 H 0.98915 0.49418 0.67389 0.0
C1798 C 0.89026 0.32627 0.70562 0.0
C1799 C 0.88127 0.33024 0.74166 0.0
C1800 C 0.91453 0.35202 0.68573 0.0
C1801 C 0.9313 0.3822 0.70193 0.0
C1802 C 0.92311 0.38529 0.73902 0.0
C1803 C 0.89871 0.35967 0.7586 0.0
C1804 C 1.00005 0.43194 0.63415 0.0
C1805 C 1.00561 0.4645 0.64135 0.0
C1806 C 0.97633 0.40524 0.65381 0.0
C1807 C 0.95697 0.41037 0.68062 0.0
C1808 C 0.96234 0.44311 0.68697 0.0
C1809 C 0.98637 0.46953 0.66813 0.0
H1810 H 0.23427 0.7497 0.66719 0.0
H1811 H 0.24953 0.68136 0.75961 0.0
H1812 H 0.20314 0.70382 0.629 0.0
H1813 H 0.2193 0.63572 0.72059 0.0
H1814 H 0.19226 0.56935 0.61794 0.0
H1815 H 0.22583 0.61631 0.65368 0.0
H1816 H 0.14741 0.654 0.63961 0.0
H1817 H 0.11354 0.60684 0.60442 0.0
C1818 C 0.23121 0.72498 0.67931 0.0
C1819 C 0.24439 0.71923 0.71655 0.0
C1820 C 0.21338 0.69878 0.6574 0.0
C1821 C 0.20892 0.66639 0.67194 0.0
C1822 C 0.22269 0.66058 0.70868 0.0
C1823 C 0.24001 0.68673 0.73094 0.0
C1824 C 0.18227 0.58776 0.62228 0.0
C1825 C 0.15028 0.58444 0.60851 0.0
C1826 C 0.2014 0.61446 0.64286 0.0
C1827 C 0.1891 0.6386 0.64931 0.0
C1828 C 0.15744 0.63572 0.63477 0.0
C1829 C 0.13807 0.60872 0.61484 0.0
loop_
_geom_bond_atom_site_label_1
_geom_bond_atom_site_label_2
_geom_bond_distance
_geom_bond_site_symmetry_2
_ccdc_geom_bond_type
Gd0 N31 2.661 . S
Gd0 N37 2.601 . S
Gd0 O44 2.545 . S
Gd0 O45 2.606 . S
Gd0 O47 2.429 . S
Gd0 O48 2.545 . S
Gd0 O49 2.412 . S
Gd0 O51 2.362 . S
Gd0 O52 2.324 . S
Gd0 C59 2.828 . S
Gd1 N10 2.661 . S
Gd1 N14 2.601 . S
Gd1 O45 2.362 . S
Gd1 O46 2.324 . S
Gd1 O50 2.545 . S
Gd1 O51 2.606 . S
Gd1 O53 2.429 . S
Gd1 O54 2.545 . S
Gd1 O55 2.412 . S
Gd1 C68 2.828 . S
C2 C5 1.417 . S
C2 C7 1.431 . S
C2 C8 1.412 . S
C3 C6 1.437 . S
C3 C7 1.317 . S
C3 H22 0.929 . S
C4 C5 1.426 . S
C4 C6 1.413 . S
C4 N14 1.359 . S
C5 C2 1.417 . S
C5 C4 1.426 . S
C5 N10 1.350 . S
C6 C3 1.437 . S
C6 C4 1.413 . S
C6 C16 1.391 . S
C7 C2 1.431 . S
C7 C3 1.317 . S
C7 H18 0.930 . S
C8 C2 1.412 . S
C8 C9 1.355 . S
C8 H20 0.930 . S
C9 C8 1.355 . S
C9 C11 1.402 . S
C9 H21 0.930 . S
N10 Gd1 2.661 . S
N10 C5 1.350 . S
N10 C11 1.307 . S
C11 C9 1.402 . S
C11 N10 1.307 . S
C11 H12 0.930 . S
H12 C11 0.930 . S
C13 N14 1.334 . S
C13 C15 1.394 . S
C13 H17 0.930 . S
N14 Gd1 2.601 . S
N14 C4 1.359 . S
N14 C13 1.334 . S
C15 C13 1.394 . S
C15 C16 1.359 . S
C15 H27 0.930 . S
C16 C6 1.391 . S
C16 C15 1.359 . S
C16 H28 0.929 . S
H17 C13 0.930 . S
H18 C7 0.930 . S
H19 C36 0.930 . S
H20 C8 0.930 . S
H21 C9 0.930 . S
H22 C3 0.929 . S
H23 C41 0.930 . S
H24 C32 0.930 . S
H25 C33 0.930 . S
H26 C57 0.929 . S
H27 C15 0.930 . S
H28 C16 0.929 . S
H29 C58 0.930 . S
H30 C39 0.930 . S
N31 Gd0 2.661 . S
N31 C35 1.350 . S
N31 C36 1.307 . S
C32 H24 0.930 . S
C32 C33 1.355 . S
C32 C34 1.412 . S
C33 H25 0.930 . S
C33 C32 1.355 . S
C33 C36 1.402 . S
C34 C32 1.412 . S
C34 C35 1.417 . S
C34 C58 1.431 . S
C35 N31 1.350 . S
C35 C34 1.417 . S
C35 C38 1.426 . S
C36 H19 0.930 . S
C36 N31 1.307 . S
C36 C33 1.402 . S
N37 Gd0 2.601 . S
N37 C38 1.359 . S
N37 C41 1.334 . S
C38 C35 1.426 . S
C38 N37 1.359 . S
C38 C42 1.413 . S
C39 H30 0.930 . S
C39 C40 1.359 . S
C39 C41 1.394 . S
C40 C39 1.359 . S
C40 C42 1.391 . S
C40 H43 0.929 . S
C41 H23 0.930 . S
C41 N37 1.334 . S
C41 C39 1.394 . S
C42 C38 1.413 . S
C42 C40 1.391 . S
C42 C57 1.437 . S
H43 C40 0.929 . S
O44 Gd0 2.545 . S
O44 C59 1.258 . S
O45 Gd0 2.606 . S
O45 Gd1 2.362 . S
O45 C56 1.284 . S
O46 Gd1 2.324 . S
O46 C66 1.254 . S
O47 Gd0 2.429 . S
O47 C66 1.268 . S
O48 Gd0 2.545 . S
O48 C56 1.250 . S
O49 Gd0 2.412 . S
O49 C59 1.252 . S
O50 Gd1 2.545 . S
O50 C68 1.258 . S
O51 Gd0 2.362 . S
O51 Gd1 2.606 . S
O51 C67 1.284 . S
O52 Gd0 2.324 . S
O52 C75 1.254 . S
O53 Gd1 2.429 . S
O53 C75 1.268 . S
O54 Gd1 2.545 . S
O54 C67 1.250 . S
O55 Gd1 2.412 . S
O55 C68 1.252 . S
C56 O45 1.284 . S
C56 O48 1.250 . S
C57 H26 0.929 . S
C57 C42 1.437 . S
C57 C58 1.317 . S
C58 H29 0.930 . S
C58 C34 1.431 . S
C58 C57 1.317 . S
C59 Gd0 2.828 . S
C59 O44 1.258 . S
C59 O49 1.252 . S
C59 C60 1.497 . S
C60 C59 1.497 . S
C60 C61 1.395 . S
C60 C62 1.380 . S
C61 C60 1.395 . S
C61 C64 1.398 . S
C61 H76 0.930 . S
C62 C60 1.380 . S
C62 C63 1.391 . S
C62 H77 0.930 . S
C63 C62 1.391 . S
C63 C65 1.387 . S
C64 C61 1.398 . S
C64 C65 1.380 . S
C64 H78 0.930 . S
C65 C63 1.387 . S
C65 C64 1.380 . S
C65 H79 0.930 . S
C66 O46 1.254 . S
C66 O47 1.268 . S
C67 O51 1.284 . S
C67 O54 1.250 . S
C68 Gd1 2.828 . S
C68 O50 1.258 . S
C68 O55 1.252 . S
C68 C69 1.497 . S
C69 C68 1.497 . S
C69 C70 1.395 . S
C69 C71 1.380 . S
C70 C69 1.395 . S
C70 C73 1.398 . S
C70 H80 0.930 . S
C71 C69 1.380 . S
C71 C72 1.391 . S
C71 H81 0.930 . S
C72 C71 1.391 . S
C72 C74 1.387 . S
C73 C70 1.398 . S
C73 C74 1.380 . S
C73 H82 0.930 . S
C74 C72 1.387 . S
C74 C73 1.380 . S
C74 H83 0.930 . S
C75 O52 1.254 . S
C75 O53 1.268 . S
H76 C61 0.930 . S
H77 C62 0.930 . S
H78 C64 0.930 . S
H79 C65 0.930 . S
H80 C70 0.930 . S
H81 C71 0.930 . S
H82 C73 0.930 . S
H83 C74 0.930 . S
Gd84 N115 2.661 . S
Gd84 N121 2.601 . S
Gd84 O128 2.545 . S
Gd84 O129 2.606 . S
Gd84 O131 2.429 . S
Gd84 O132 2.545 . S
Gd84 O133 2.412 . S
Gd84 O135 2.362 . S
Gd84 O136 2.324 . S
Gd84 C143 2.828 . S
Gd85 N94 2.661 . S
Gd85 N98 2.601 . S
Gd85 O129 2.362 . S
Gd85 O130 2.324 . S
Gd85 O134 2.545 . S
Gd85 O135 2.606 . S
Gd85 O137 2.429 . S
Gd85 O138 2.545 . S
Gd85 O139 2.412 . S
Gd85 C152 2.828 . S
C86 C89 1.417 . S
C86 C91 1.431 . S
C86 C92 1.412 . S
C87 C90 1.437 . S
C87 C91 1.317 . S
C87 H106 0.929 . S
C88 C89 1.426 . S
C88 C90 1.413 . S
C88 N98 1.359 . S
C89 C86 1.417 . S
C89 C88 1.426 . S
C89 N94 1.350 . S
C90 C87 1.437 . S
C90 C88 1.413 . S
C90 C100 1.391 . S
C91 C86 1.431 . S
C91 C87 1.317 . S
C91 H102 0.930 . S
C92 C86 1.412 . S
C92 C93 1.355 . S
C92 H104 0.930 . S
C93 C92 1.355 . S
C93 C95 1.402 . S
C93 H105 0.930 . S
N94 Gd85 2.661 . S
N94 C89 1.350 . S
N94 C95 1.307 . S
C95 C93 1.402 . S
C95 N94 1.307 . S
C95 H96 0.930 . S
H96 C95 0.930 . S
C97 N98 1.334 . S
C97 C99 1.394 . S
C97 H101 0.930 . S
N98 Gd85 2.601 . S
N98 C88 1.359 . S
N98 C97 1.334 . S
C99 C97 1.394 . S
C99 C100 1.359 . S
C99 H111 0.930 . S
C100 C90 1.391 . S
C100 C99 1.359 . S
C100 H112 0.929 . S
H101 C97 0.930 . S
H102 C91 0.930 . S
H103 C120 0.930 . S
H104 C92 0.930 . S
H105 C93 0.930 . S
H106 C87 0.929 . S
H107 C125 0.930 . S
H108 C116 0.930 . S
H109 C117 0.930 . S
H110 C141 0.929 . S
H111 C99 0.930 . S
H112 C100 0.929 . S
H113 C142 0.930 . S
H114 C123 0.930 . S
N115 Gd84 2.661 . S
N115 C119 1.350 . S
N115 C120 1.307 . S
C116 H108 0.930 . S
C116 C117 1.355 . S
C116 C118 1.412 . S
C117 H109 0.930 . S
C117 C116 1.355 . S
C117 C120 1.402 . S
C118 C116 1.412 . S
C118 C119 1.417 . S
C118 C142 1.431 . S
C119 N115 1.350 . S
C119 C118 1.417 . S
C119 C122 1.426 . S
C120 H103 0.930 . S
C120 N115 1.307 . S
C120 C117 1.402 . S
N121 Gd84 2.601 . S
N121 C122 1.359 . S
N121 C125 1.334 . S
C122 C119 1.426 . S
C122 N121 1.359 . S
C122 C126 1.413 . S
C123 H114 0.930 . S
C123 C124 1.359 . S
C123 C125 1.394 . S
C124 C123 1.359 . S
C124 C126 1.391 . S
C124 H127 0.929 . S
C125 H107 0.930 . S
C125 N121 1.334 . S
C125 C123 1.394 . S
C126 C122 1.413 . S
C126 C124 1.391 . S
C126 C141 1.437 . S
H127 C124 0.929 . S
O128 Gd84 2.545 . S
O128 C143 1.258 . S
O129 Gd84 2.606 . S
O129 Gd85 2.362 . S
O129 C140 1.284 . S
O130 Gd85 2.324 . S
O130 C150 1.254 . S
O131 Gd84 2.429 . S
O131 C150 1.268 . S
O132 Gd84 2.545 . S
O132 C140 1.250 . S
O133 Gd84 2.412 . S
O133 C143 1.252 . S
O134 Gd85 2.545 . S
O134 C152 1.258 . S
O135 Gd84 2.362 . S
O135 Gd85 2.606 . S
O135 C151 1.284 . S
O136 Gd84 2.324 . S
O136 C159 1.254 . S
O137 Gd85 2.429 . S
O137 C159 1.268 . S
O138 Gd85 2.545 . S
O138 C151 1.250 . S
O139 Gd85 2.412 . S
O139 C152 1.252 . S
C140 O129 1.284 . S
C140 O132 1.250 . S
C141 H110 0.929 . S
C141 C126 1.437 . S
C141 C142 1.317 . S
C142 H113 0.930 . S
C142 C118 1.431 . S
C142 C141 1.317 . S
C143 Gd84 2.828 . S
C143 O128 1.258 . S
C143 O133 1.252 . S
C143 C144 1.497 . S
C144 C143 1.497 . S
C144 C145 1.395 . S
C144 C146 1.380 . S
C145 C144 1.395 . S
C145 C148 1.398 . S
C145 H160 0.930 . S
C146 C144 1.380 . S
C146 C147 1.391 . S
C146 H161 0.930 . S
C147 C146 1.391 . S
C147 C149 1.387 . S
C148 C145 1.398 . S
C148 C149 1.380 . S
C148 H162 0.930 . S
C149 C147 1.387 . S
C149 C148 1.380 . S
C149 H163 0.930 . S
C150 O130 1.254 . S
C150 O131 1.268 . S
C151 O135 1.284 . S
C151 O138 1.250 . S
C152 Gd85 2.828 . S
C152 O134 1.258 . S
C152 O139 1.252 . S
C152 C153 1.497 . S
C153 C152 1.497 . S
C153 C154 1.395 . S
C153 C155 1.380 . S
C154 C153 1.395 . S
C154 C157 1.398 . S
C154 H164 0.930 . S
C155 C153 1.380 . S
C155 C156 1.391 . S
C155 H165 0.930 . S
C156 C155 1.391 . S
C156 C158 1.387 . S
C157 C154 1.398 . S
C157 C158 1.380 . S
C157 H166 0.930 . S
C158 C156 1.387 . S
C158 C157 1.380 . S
C158 H167 0.930 . S
C159 O136 1.254 . S
C159 O137 1.268 . S
H160 C145 0.930 . S
H161 C146 0.930 . S
H162 C148 0.930 . S
H163 C149 0.930 . S
H164 C154 0.930 . S
H165 C155 0.930 . S
H166 C157 0.930 . S
H167 C158 0.930 . S
Gd168 N199 2.661 . S
Gd168 N205 2.601 . S
Gd168 O212 2.545 . S
Gd168 O213 2.606 . S
Gd168 O215 2.429 . S
Gd168 O216 2.545 . S
Gd168 O217 2.412 . S
Gd168 O219 2.362 . S
Gd168 O220 2.324 . S
Gd168 C227 2.828 . S
Gd169 N178 2.661 . S
Gd169 N182 2.601 . S
Gd169 O213 2.362 . S
Gd169 O214 2.324 . S
Gd169 O218 2.545 . S
Gd169 O219 2.606 . S
Gd169 O221 2.429 . S
Gd169 O222 2.545 . S
Gd169 O223 2.412 . S
Gd169 C236 2.828 . S
C170 C173 1.417 . S
C170 C175 1.431 . S
C170 C176 1.412 . S
C171 C174 1.437 . S
C171 C175 1.317 . S
C171 H190 0.929 . S
C172 C173 1.426 . S
C172 C174 1.413 . S
C172 N182 1.359 . S
C173 C170 1.417 . S
C173 C172 1.426 . S
C173 N178 1.350 . S
C174 C171 1.437 . S
C174 C172 1.413 . S
C174 C184 1.391 . S
C175 C170 1.431 . S
C175 C171 1.317 . S
C175 H186 0.930 . S
C176 C170 1.412 . S
C176 C177 1.355 . S
C176 H188 0.930 . S
C177 C176 1.355 . S
C177 C179 1.402 . S
C177 H189 0.930 . S
N178 Gd169 2.661 . S
N178 C173 1.350 . S
N178 C179 1.307 . S
C179 C177 1.402 . S
C179 N178 1.307 . S
C179 H180 0.930 . S
H180 C179 0.930 . S
C181 N182 1.334 . S
C181 C183 1.394 . S
C181 H185 0.930 . S
N182 Gd169 2.601 . S
N182 C172 1.359 . S
N182 C181 1.334 . S
C183 C181 1.394 . S
C183 C184 1.359 . S
C183 H195 0.930 . S
C184 C174 1.391 . S
C184 C183 1.359 . S
C184 H196 0.929 . S
H185 C181 0.930 . S
H186 C175 0.930 . S
H187 C204 0.930 . S
H188 C176 0.930 . S
H189 C177 0.930 . S
H190 C171 0.929 . S
H191 C209 0.930 . S
H192 C200 0.930 . S
H193 C201 0.930 . S
H194 C225 0.929 . S
H195 C183 0.930 . S
H196 C184 0.929 . S
H197 C226 0.930 . S
H198 C207 0.930 . S
N199 Gd168 2.661 . S
N199 C203 1.350 . S
N199 C204 1.307 . S
C200 H192 0.930 . S
C200 C201 1.355 . S
C200 C202 1.412 . S
C201 H193 0.930 . S
C201 C200 1.355 . S
C201 C204 1.402 . S
C202 C200 1.412 . S
C202 C203 1.417 . S
C202 C226 1.431 . S
C203 N199 1.350 . S
C203 C202 1.417 . S
C203 C206 1.426 . S
C204 H187 0.930 . S
C204 N199 1.307 . S
C204 C201 1.402 . S
N205 Gd168 2.601 . S
N205 C206 1.359 . S
N205 C209 1.334 . S
C206 C203 1.426 . S
C206 N205 1.359 . S
C206 C210 1.413 . S
C207 H198 0.930 . S
C207 C208 1.359 . S
C207 C209 1.394 . S
C208 C207 1.359 . S
C208 C210 1.391 . S
C208 H211 0.929 . S
C209 H191 0.930 . S
C209 N205 1.334 . S
C209 C207 1.394 . S
C210 C206 1.413 . S
C210 C208 1.391 . S
C210 C225 1.437 . S
H211 C208 0.929 . S
O212 Gd168 2.545 . S
O212 C227 1.258 . S
O213 Gd168 2.606 . S
O213 Gd169 2.362 . S
O213 C224 1.284 . S
O214 Gd169 2.324 . S
O214 C234 1.254 . S
O215 Gd168 2.429 . S
O215 C234 1.268 . S
O216 Gd168 2.545 . S
O216 C224 1.250 . S
O217 Gd168 2.412 . S
O217 C227 1.252 . S
O218 Gd169 2.545 . S
O218 C236 1.258 . S
O219 Gd168 2.362 . S
O219 Gd169 2.606 . S
O219 C235 1.284 . S
O220 Gd168 2.324 . S
O220 C243 1.254 . S
O221 Gd169 2.429 . S
O221 C243 1.268 . S
O222 Gd169 2.545 . S
O222 C235 1.250 . S
O223 Gd169 2.412 . S
O223 C236 1.252 . S
C224 O213 1.284 . S
C224 O216 1.250 . S
C225 H194 0.929 . S
C225 C210 1.437 . S
C225 C226 1.317 . S
C226 H197 0.930 . S
C226 C202 1.431 . S
C226 C225 1.317 . S
C227 Gd168 2.828 . S
C227 O212 1.258 . S
C227 O217 1.252 . S
C227 C228 1.497 . S
C228 C227 1.497 . S
C228 C229 1.395 . S
C228 C230 1.380 . S
C229 C228 1.395 . S
C229 C232 1.398 . S
C229 H244 0.930 . S
C230 C228 1.380 . S
C230 C231 1.391 . S
C230 H245 0.930 . S
C231 C230 1.391 . S
C231 C233 1.387 . S
C232 C229 1.398 . S
C232 C233 1.380 . S
C232 H246 0.930 . S
C233 C231 1.387 . S
C233 C232 1.380 . S
C233 H247 0.930 . S
C234 O214 1.254 . S
C234 O215 1.268 . S
C235 O219 1.284 . S
C235 O222 1.250 . S
C236 Gd169 2.828 . S
C236 O218 1.258 . S
C236 O223 1.252 . S
C236 C237 1.497 . S
C237 C236 1.497 . S
C237 C238 1.395 . S
C237 C239 1.380 . S
C238 C237 1.395 . S
C238 C241 1.398 . S
C238 H248 0.930 . S
C239 C237 1.380 . S
C239 C240 1.391 . S
C239 H249 0.930 . S
C240 C239 1.391 . S
C240 C242 1.387 . S
C241 C238 1.398 . S
C241 C242 1.380 . S
C241 H250 0.930 . S
C242 C240 1.387 . S
C242 C241 1.380 . S
C242 H251 0.930 . S
C243 O220 1.254 . S
C243 O221 1.268 . S
H244 C229 0.930 . S
H245 C230 0.930 . S
H246 C232 0.930 . S
H247 C233 0.930 . S
H248 C238 0.930 . S
H249 C239 0.930 . S
H250 C241 0.930 . S
H251 C242 0.930 . S
Gd252 N283 2.661 . S
Gd252 N289 2.601 . S
Gd252 O296 2.545 . S
Gd252 O297 2.606 . S
Gd252 O299 2.429 . S
Gd252 O300 2.545 . S
Gd252 O301 2.412 . S
Gd252 O303 2.362 . S
Gd252 O304 2.324 . S
Gd252 C311 2.828 . S
Gd253 N262 2.661 . S
Gd253 N266 2.601 . S
Gd253 O297 2.362 . S
Gd253 O298 2.324 . S
Gd253 O302 2.545 . S
Gd253 O303 2.606 . S
Gd253 O305 2.429 . S
Gd253 O306 2.545 . S
Gd253 O307 2.412 . S
Gd253 C320 2.828 . S
C254 C257 1.417 . S
C254 C259 1.431 . S
C254 C260 1.412 . S
C255 C258 1.437 . S
C255 C259 1.317 . S
C255 H274 0.929 . S
C256 C257 1.426 . S
C256 C258 1.413 . S
C256 N266 1.359 . S
C257 C254 1.417 . S
C257 C256 1.426 . S
C257 N262 1.350 . S
C258 C255 1.437 . S
C258 C256 1.413 . S
C258 C268 1.391 . S
C259 C254 1.431 . S
C259 C255 1.317 . S
C259 H270 0.930 . S
C260 C254 1.412 . S
C260 C261 1.355 . S
C260 H272 0.930 . S
C261 C260 1.355 . S
C261 C263 1.402 . S
C261 H273 0.930 . S
N262 Gd253 2.661 . S
N262 C257 1.350 . S
N262 C263 1.307 . S
C263 C261 1.402 . S
C263 N262 1.307 . S
C263 H264 0.930 . S
H264 C263 0.930 . S
C265 N266 1.334 . S
C265 C267 1.394 . S
C265 H269 0.930 . S
N266 Gd253 2.601 . S
N266 C256 1.359 . S
N266 C265 1.334 . S
C267 C265 1.394 . S
C267 C268 1.359 . S
C267 H279 0.930 . S
C268 C258 1.391 . S
C268 C267 1.359 . S
C268 H280 0.929 . S
H269 C265 0.930 . S
H270 C259 0.930 . S
H271 C288 0.930 . S
H272 C260 0.930 . S
H273 C261 0.930 . S
H274 C255 0.929 . S
H275 C293 0.930 . S
H276 C284 0.930 . S
H277 C285 0.930 . S
H278 C309 0.929 . S
H279 C267 0.930 . S
H280 C268 0.929 . S
H281 C310 0.930 . S
H282 C291 0.930 . S
N283 Gd252 2.661 . S
N283 C287 1.350 . S
N283 C288 1.307 . S
C284 H276 0.930 . S
C284 C285 1.355 . S
C284 C286 1.412 . S
C285 H277 0.930 . S
C285 C284 1.355 . S
C285 C288 1.402 . S
C286 C284 1.412 . S
C286 C287 1.417 . S
C286 C310 1.431 . S
C287 N283 1.350 . S
C287 C286 1.417 . S
C287 C290 1.426 . S
C288 H271 0.930 . S
C288 N283 1.307 . S
C288 C285 1.402 . S
N289 Gd252 2.601 . S
N289 C290 1.359 . S
N289 C293 1.334 . S
C290 C287 1.426 . S
C290 N289 1.359 . S
C290 C294 1.413 . S
C291 H282 0.930 . S
C291 C292 1.359 . S
C291 C293 1.394 . S
C292 C291 1.359 . S
C292 C294 1.391 . S
C292 H295 0.929 . S
C293 H275 0.930 . S
C293 N289 1.334 . S
C293 C291 1.394 . S
C294 C290 1.413 . S
C294 C292 1.391 . S
C294 C309 1.437 . S
H295 C292 0.929 . S
O296 Gd252 2.545 . S
O296 C311 1.258 . S
O297 Gd252 2.606 . S
O297 Gd253 2.362 . S
O297 C308 1.284 . S
O298 Gd253 2.324 . S
O298 C318 1.254 . S
O299 Gd252 2.429 . S
O299 C318 1.268 . S
O300 Gd252 2.545 . S
O300 C308 1.250 . S
O301 Gd252 2.412 . S
O301 C311 1.252 . S
O302 Gd253 2.545 . S
O302 C320 1.258 . S
O303 Gd252 2.362 . S
O303 Gd253 2.606 . S
O303 C319 1.284 . S
O304 Gd252 2.324 . S
O304 C327 1.254 . S
O305 Gd253 2.429 . S
O305 C327 1.268 . S
O306 Gd253 2.545 . S
O306 C319 1.250 . S
O307 Gd253 2.412 . S
O307 C320 1.252 . S
C308 O297 1.284 . S
C308 O300 1.250 . S
C309 H278 0.929 . S
C309 C294 1.437 . S
C309 C310 1.317 . S
C310 H281 0.930 . S
C310 C286 1.431 . S
C310 C309 1.317 . S
C311 Gd252 2.828 . S
C311 O296 1.258 . S
C311 O301 1.252 . S
C311 C312 1.497 . S
C312 C311 1.497 . S
C312 C313 1.395 . S
C312 C314 1.380 . S
C313 C312 1.395 . S
C313 C316 1.398 . S
C313 H328 0.930 . S
C314 C312 1.380 . S
C314 C315 1.391 . S
C314 H329 0.930 . S
C315 C314 1.391 . S
C315 C317 1.387 . S
C316 C313 1.398 . S
C316 C317 1.380 . S
C316 H330 0.930 . S
C317 C315 1.387 . S
C317 C316 1.380 . S
C317 H331 0.930 . S
C318 O298 1.254 . S
C318 O299 1.268 . S
C319 O303 1.284 . S
C319 O306 1.250 . S
C320 Gd253 2.828 . S
C320 O302 1.258 . S
C320 O307 1.252 . S
C320 C321 1.497 . S
C321 C320 1.497 . S
C321 C322 1.395 . S
C321 C323 1.380 . S
C322 C321 1.395 . S
C322 C325 1.398 . S
C322 H332 0.930 . S
C323 C321 1.380 . S
C323 C324 1.391 . S
C323 H333 0.930 . S
C324 C323 1.391 . S
C324 C326 1.387 . S
C325 C322 1.398 . S
C325 C326 1.380 . S
C325 H334 0.930 . S
C326 C324 1.387 . S
C326 C325 1.380 . S
C326 H335 0.930 . S
C327 O304 1.254 . S
C327 O305 1.268 . S
H328 C313 0.930 . S
H329 C314 0.930 . S
H330 C316 0.930 . S
H331 C317 0.930 . S
H332 C322 0.930 . S
H333 C323 0.930 . S
H334 C325 0.930 . S
H335 C326 0.930 . S
Gd336 N367 2.661 . S
Gd336 N373 2.601 . S
Gd336 O380 2.545 . S
Gd336 O381 2.606 . S
Gd336 O383 2.429 . S
Gd336 O384 2.545 . S
Gd336 O385 2.412 . S
Gd336 O387 2.362 . S
Gd336 O388 2.324 . S
Gd336 C395 2.828 . S
Gd337 N346 2.661 . S
Gd337 N350 2.601 . S
Gd337 O381 2.362 . S
Gd337 O382 2.324 . S
Gd337 O386 2.545 . S
Gd337 O387 2.606 . S
Gd337 O389 2.429 . S
Gd337 O390 2.545 . S
Gd337 O391 2.412 . S
Gd337 C404 2.828 . S
C338 C341 1.417 . S
C338 C343 1.431 . S
C338 C344 1.412 . S
C339 C342 1.437 . S
C339 C343 1.317 . S
C339 H358 0.929 . S
C340 C341 1.426 . S
C340 C342 1.413 . S
C340 N350 1.359 . S
C341 C338 1.417 . S
C341 C340 1.426 . S
C341 N346 1.350 . S
C342 C339 1.437 . S
C342 C340 1.413 . S
C342 C352 1.391 . S
C343 C338 1.431 . S
C343 C339 1.317 . S
C343 H354 0.930 . S
C344 C338 1.412 . S
C344 C345 1.355 . S
C344 H356 0.930 . S
C345 C344 1.355 . S
C345 C347 1.402 . S
C345 H357 0.930 . S
N346 Gd337 2.661 . S
N346 C341 1.350 . S
N346 C347 1.307 . S
C347 C345 1.402 . S
C347 N346 1.307 . S
C347 H348 0.930 . S
H348 C347 0.930 . S
C349 N350 1.334 . S
C349 C351 1.394 . S
C349 H353 0.930 . S
N350 Gd337 2.601 . S
N350 C340 1.359 . S
N350 C349 1.334 . S
C351 C349 1.394 . S
C351 C352 1.359 . S
C351 H363 0.930 . S
C352 C342 1.391 . S
C352 C351 1.359 . S
C352 H364 0.929 . S
H353 C349 0.930 . S
H354 C343 0.930 . S
H355 C372 0.930 . S
H356 C344 0.930 . S
H357 C345 0.930 . S
H358 C339 0.929 . S
H359 C377 0.930 . S
H360 C368 0.930 . S
H361 C369 0.930 . S
H362 C393 0.929 . S
H363 C351 0.930 . S
H364 C352 0.929 . S
H365 C394 0.930 . S
H366 C375 0.930 . S
N367 Gd336 2.661 . S
N367 C371 1.350 . S
N367 C372 1.307 . S
C368 H360 0.930 . S
C368 C369 1.355 . S
C368 C370 1.412 . S
C369 H361 0.930 . S
C369 C368 1.355 . S
C369 C372 1.402 . S
C370 C368 1.412 . S
C370 C371 1.417 . S
C370 C394 1.431 . S
C371 N367 1.350 . S
C371 C370 1.417 . S
C371 C374 1.426 . S
C372 H355 0.930 . S
C372 N367 1.307 . S
C372 C369 1.402 . S
N373 Gd336 2.601 . S
N373 C374 1.359 . S
N373 C377 1.334 . S
C374 C371 1.426 . S
C374 N373 1.359 . S
C374 C378 1.413 . S
C375 H366 0.930 . S
C375 C376 1.359 . S
C375 C377 1.394 . S
C376 C375 1.359 . S
C376 C378 1.391 . S
C376 H379 0.929 . S
C377 H359 0.930 . S
C377 N373 1.334 . S
C377 C375 1.394 . S
C378 C374 1.413 . S
C378 C376 1.391 . S
C378 C393 1.437 . S
H379 C376 0.929 . S
O380 Gd336 2.545 . S
O380 C395 1.258 . S
O381 Gd336 2.606 . S
O381 Gd337 2.362 . S
O381 C392 1.284 . S
O382 Gd337 2.324 . S
O382 C402 1.254 . S
O383 Gd336 2.429 . S
O383 C402 1.268 . S
O384 Gd336 2.545 . S
O384 C392 1.250 . S
O385 Gd336 2.412 . S
O385 C395 1.252 . S
O386 Gd337 2.545 . S
O386 C404 1.258 . S
O387 Gd336 2.362 . S
O387 Gd337 2.606 . S
O387 C403 1.284 . S
O388 Gd336 2.324 . S
O388 C411 1.254 . S
O389 Gd337 2.429 . S
O389 C411 1.268 . S
O390 Gd337 2.545 . S
O390 C403 1.250 . S
O391 Gd337 2.412 . S
O391 C404 1.252 . S
C392 O381 1.284 . S
C392 O384 1.250 . S
C393 H362 0.929 . S
C393 C378 1.437 . S
C393 C394 1.317 . S
C394 H365 0.930 . S
C394 C370 1.431 . S
C394 C393 1.317 . S
C395 Gd336 2.828 . S
C395 O380 1.258 . S
C395 O385 1.252 . S
C395 C396 1.497 . S
C396 C395 1.497 . S
C396 C397 1.395 . S
C396 C398 1.380 . S
C397 C396 1.395 . S
C397 C400 1.398 . S
C397 H412 0.930 . S
C398 C396 1.380 . S
C398 C399 1.391 . S
C398 H413 0.930 . S
C399 C398 1.391 . S
C399 C401 1.387 . S
C400 C397 1.398 . S
C400 C401 1.380 . S
C400 H414 0.930 . S
C401 C399 1.387 . S
C401 C400 1.380 . S
C401 H415 0.930 . S
C402 O382 1.254 . S
C402 O383 1.268 . S
C403 O387 1.284 . S
C403 O390 1.250 . S
C404 Gd337 2.828 . S
C404 O386 1.258 . S
C404 O391 1.252 . S
C404 C405 1.497 . S
C405 C404 1.497 . S
C405 C406 1.395 . S
C405 C407 1.380 . S
C406 C405 1.395 . S
C406 C409 1.398 . S
C406 H416 0.930 . S
C407 C405 1.380 . S
C407 C408 1.391 . S
C407 H417 0.930 . S
C408 C407 1.391 . S
C408 C410 1.387 . S
C409 C406 1.398 . S
C409 C410 1.380 . S
C409 H418 0.930 . S
C410 C408 1.387 . S
C410 C409 1.380 . S
C410 H419 0.930 . S
C411 O388 1.254 . S
C411 O389 1.268 . S
H412 C397 0.930 . S
H413 C398 0.930 . S
H414 C400 0.930 . S
H415 C401 0.930 . S
H416 C406 0.930 . S
H417 C407 0.930 . S
H418 C409 0.930 . S
H419 C410 0.930 . S
Gd420 N451 2.661 . S
Gd420 N457 2.601 . S
Gd420 O464 2.545 . S
Gd420 O465 2.606 . S
Gd420 O467 2.429 . S
Gd420 O468 2.545 . S
Gd420 O469 2.412 . S
Gd420 O471 2.362 . S
Gd420 O472 2.324 . S
Gd420 C479 2.828 . S
Gd421 N430 2.661 . S
Gd421 N434 2.601 . S
Gd421 O465 2.362 . S
Gd421 O466 2.324 . S
Gd421 O470 2.545 . S
Gd421 O471 2.606 . S
Gd421 O473 2.429 . S
Gd421 O474 2.545 . S
Gd421 O475 2.412 . S
Gd421 C488 2.828 . S
C422 C425 1.417 . S
C422 C427 1.431 . S
C422 C428 1.412 . S
C423 C426 1.437 . S
C423 C427 1.317 . S
C423 H442 0.929 . S
C424 C425 1.426 . S
C424 C426 1.413 . S
C424 N434 1.359 . S
C425 C422 1.417 . S
C425 C424 1.426 . S
C425 N430 1.350 . S
C426 C423 1.437 . S
C426 C424 1.413 . S
C426 C436 1.391 . S
C427 C422 1.431 . S
C427 C423 1.317 . S
C427 H438 0.930 . S
C428 C422 1.412 . S
C428 C429 1.355 . S
C428 H440 0.930 . S
C429 C428 1.355 . S
C429 C431 1.402 . S
C429 H441 0.930 . S
N430 Gd421 2.661 . S
N430 C425 1.350 . S
N430 C431 1.307 . S
C431 C429 1.402 . S
C431 N430 1.307 . S
C431 H432 0.930 . S
H432 C431 0.930 . S
C433 N434 1.334 . S
C433 C435 1.394 . S
C433 H437 0.930 . S
N434 Gd421 2.601 . S
N434 C424 1.359 . S
N434 C433 1.334 . S
C435 C433 1.394 . S
C435 C436 1.359 . S
C435 H447 0.930 . S
C436 C426 1.391 . S
C436 C435 1.359 . S
C436 H448 0.929 . S
H437 C433 0.930 . S
H438 C427 0.930 . S
H439 C456 0.930 . S
H440 C428 0.930 . S
H441 C429 0.930 . S
H442 C423 0.929 . S
H443 C461 0.930 . S
H444 C452 0.930 . S
H445 C453 0.930 . S
H446 C477 0.929 . S
H447 C435 0.930 . S
H448 C436 0.929 . S
H449 C478 0.930 . S
H450 C459 0.930 . S
N451 Gd420 2.661 . S
N451 C455 1.350 . S
N451 C456 1.307 . S
C452 H444 0.930 . S
C452 C453 1.355 . S
C452 C454 1.412 . S
C453 H445 0.930 . S
C453 C452 1.355 . S
C453 C456 1.402 . S
C454 C452 1.412 . S
C454 C455 1.417 . S
C454 C478 1.431 . S
C455 N451 1.350 . S
C455 C454 1.417 . S
C455 C458 1.426 . S
C456 H439 0.930 . S
C456 N451 1.307 . S
C456 C453 1.402 . S
N457 Gd420 2.601 . S
N457 C458 1.359 . S
N457 C461 1.334 . S
C458 C455 1.426 . S
C458 N457 1.359 . S
C458 C462 1.413 . S
C459 H450 0.930 . S
C459 C460 1.359 . S
C459 C461 1.394 . S
C460 C459 1.359 . S
C460 C462 1.391 . S
C460 H463 0.929 . S
C461 H443 0.930 . S
C461 N457 1.334 . S
C461 C459 1.394 . S
C462 C458 1.413 . S
C462 C460 1.391 . S
C462 C477 1.437 . S
H463 C460 0.929 . S
O464 Gd420 2.545 . S
O464 C479 1.258 . S
O465 Gd420 2.606 . S
O465 Gd421 2.362 . S
O465 C476 1.284 . S
O466 Gd421 2.324 . S
O466 C486 1.254 . S
O467 Gd420 2.429 . S
O467 C486 1.268 . S
O468 Gd420 2.545 . S
O468 C476 1.250 . S
O469 Gd420 2.412 . S
O469 C479 1.252 . S
O470 Gd421 2.545 . S
O470 C488 1.258 . S
O471 Gd420 2.362 . S
O471 Gd421 2.606 . S
O471 C487 1.284 . S
O472 Gd420 2.324 . S
O472 C495 1.254 . S
O473 Gd421 2.429 . S
O473 C495 1.268 . S
O474 Gd421 2.545 . S
O474 C487 1.250 . S
O475 Gd421 2.412 . S
O475 C488 1.252 . S
C476 O465 1.284 . S
C476 O468 1.250 . S
C477 H446 0.929 . S
C477 C462 1.437 . S
C477 C478 1.317 . S
C478 H449 0.930 . S
C478 C454 1.431 . S
C478 C477 1.317 . S
C479 Gd420 2.828 . S
C479 O464 1.258 . S
C479 O469 1.252 . S
C479 C480 1.497 . S
C480 C479 1.497 . S
C480 C481 1.395 . S
C480 C482 1.380 . S
C481 C480 1.395 . S
C481 C484 1.398 . S
C481 H496 0.930 . S
C482 C480 1.380 . S
C482 C483 1.391 . S
C482 H497 0.930 . S
C483 C482 1.391 . S
C483 C485 1.387 . S
C484 C481 1.398 . S
C484 C485 1.380 . S
C484 H498 0.930 . S
C485 C483 1.387 . S
C485 C484 1.380 . S
C485 H499 0.930 . S
C486 O466 1.254 . S
C486 O467 1.268 . S
C487 O471 1.284 . S
C487 O474 1.250 . S
C488 Gd421 2.828 . S
C488 O470 1.258 . S
C488 O475 1.252 . S
C488 C489 1.497 . S
C489 C488 1.497 . S
C489 C490 1.395 . S
C489 C491 1.380 . S
C490 C489 1.395 . S
C490 C493 1.398 . S
C490 H500 0.930 . S
C491 C489 1.380 . S
C491 C492 1.391 . S
C491 H501 0.930 . S
C492 C491 1.391 . S
C492 C494 1.387 . S
C493 C490 1.398 . S
C493 C494 1.380 . S
C493 H502 0.930 . S
C494 C492 1.387 . S
C494 C493 1.380 . S
C494 H503 0.930 . S
C495 O472 1.254 . S
C495 O473 1.268 . S
H496 C481 0.930 . S
H497 C482 0.930 . S
H498 C484 0.930 . S
H499 C485 0.930 . S
H500 C490 0.930 . S
H501 C491 0.930 . S
H502 C493 0.930 . S
H503 C494 0.930 . S
Gd504 N535 2.661 . S
Gd504 N541 2.601 . S
Gd504 O548 2.545 . S
Gd504 O549 2.606 . S
Gd504 O551 2.429 . S
Gd504 O552 2.545 . S
Gd504 O553 2.412 . S
Gd504 O555 2.362 . S
Gd504 O556 2.324 . S
Gd504 C563 2.828 . S
Gd505 N514 2.661 . S
Gd505 N518 2.601 . S
Gd505 O549 2.362 . S
Gd505 O550 2.324 . S
Gd505 O554 2.545 . S
Gd505 O555 2.606 . S
Gd505 O557 2.429 . S
Gd505 O558 2.545 . S
Gd505 O559 2.412 . S
Gd505 C572 2.828 . S
C506 C509 1.417 . S
C506 C511 1.431 . S
C506 C512 1.412 . S
C507 C510 1.437 . S
C507 C511 1.317 . S
C507 H526 0.929 . S
C508 C509 1.426 . S
C508 C510 1.413 . S
C508 N518 1.359 . S
C509 C506 1.417 . S
C509 C508 1.426 . S
C509 N514 1.350 . S
C510 C507 1.437 . S
C510 C508 1.413 . S
C510 C520 1.391 . S
C511 C506 1.431 . S
C511 C507 1.317 . S
C511 H522 0.930 . S
C512 C506 1.412 . S
C512 C513 1.355 . S
C512 H524 0.930 . S
C513 C512 1.355 . S
C513 C515 1.402 . S
C513 H525 0.930 . S
N514 Gd505 2.661 . S
N514 C509 1.350 . S
N514 C515 1.307 . S
C515 C513 1.402 . S
C515 N514 1.307 . S
C515 H516 0.930 . S
H516 C515 0.930 . S
C517 N518 1.334 . S
C517 C519 1.394 . S
C517 H521 0.930 . S
N518 Gd505 2.601 . S
N518 C508 1.359 . S
N518 C517 1.334 . S
C519 C517 1.394 . S
C519 C520 1.359 . S
C519 H531 0.930 . S
C520 C510 1.391 . S
C520 C519 1.359 . S
C520 H532 0.929 . S
H521 C517 0.930 . S
H522 C511 0.930 . S
H523 C540 0.930 . S
H524 C512 0.930 . S
H525 C513 0.930 . S
H526 C507 0.929 . S
H527 C545 0.930 . S
H528 C536 0.930 . S
H529 C537 0.930 . S
H530 C561 0.929 . S
H531 C519 0.930 . S
H532 C520 0.929 . S
H533 C562 0.930 . S
H534 C543 0.930 . S
N535 Gd504 2.661 . S
N535 C539 1.350 . S
N535 C540 1.307 . S
C536 H528 0.930 . S
C536 C537 1.355 . S
C536 C538 1.412 . S
C537 H529 0.930 . S
C537 C536 1.355 . S
C537 C540 1.402 . S
C538 C536 1.412 . S
C538 C539 1.417 . S
C538 C562 1.431 . S
C539 N535 1.350 . S
C539 C538 1.417 . S
C539 C542 1.426 . S
C540 H523 0.930 . S
C540 N535 1.307 . S
C540 C537 1.402 . S
N541 Gd504 2.601 . S
N541 C542 1.359 . S
N541 C545 1.334 . S
C542 C539 1.426 . S
C542 N541 1.359 . S
C542 C546 1.413 . S
C543 H534 0.930 . S
C543 C544 1.359 . S
C543 C545 1.394 . S
C544 C543 1.359 . S
C544 C546 1.391 . S
C544 H547 0.929 . S
C545 H527 0.930 . S
C545 N541 1.334 . S
C545 C543 1.394 . S
C546 C542 1.413 . S
C546 C544 1.391 . S
C546 C561 1.437 . S
H547 C544 0.929 . S
O548 Gd504 2.545 . S
O548 C563 1.258 . S
O549 Gd504 2.606 . S
O549 Gd505 2.362 . S
O549 C560 1.284 . S
O550 Gd505 2.324 . S
O550 C570 1.254 . S
O551 Gd504 2.429 . S
O551 C570 1.268 . S
O552 Gd504 2.545 . S
O552 C560 1.250 . S
O553 Gd504 2.412 . S
O553 C563 1.252 . S
O554 Gd505 2.545 . S
O554 C572 1.258 . S
O555 Gd504 2.362 . S
O555 Gd505 2.606 . S
O555 C571 1.284 . S
O556 Gd504 2.324 . S
O556 C579 1.254 . S
O557 Gd505 2.429 . S
O557 C579 1.268 . S
O558 Gd505 2.545 . S
O558 C571 1.250 . S
O559 Gd505 2.412 . S
O559 C572 1.252 . S
C560 O549 1.284 . S
C560 O552 1.250 . S
C561 H530 0.929 . S
C561 C546 1.437 . S
C561 C562 1.317 . S
C562 H533 0.930 . S
C562 C538 1.431 . S
C562 C561 1.317 . S
C563 Gd504 2.828 . S
C563 O548 1.258 . S
C563 O553 1.252 . S
C563 C564 1.497 . S
C564 C563 1.497 . S
C564 C565 1.395 . S
C564 C566 1.380 . S
C565 C564 1.395 . S
C565 C568 1.398 . S
C565 H580 0.930 . S
C566 C564 1.380 . S
C566 C567 1.391 . S
C566 H581 0.930 . S
C567 C566 1.391 . S
C567 C569 1.387 . S
C568 C565 1.398 . S
C568 C569 1.380 . S
C568 H582 0.930 . S
C569 C567 1.387 . S
C569 C568 1.380 . S
C569 H583 0.930 . S
C570 O550 1.254 . S
C570 O551 1.268 . S
C571 O555 1.284 . S
C571 O558 1.250 . S
C572 Gd505 2.828 . S
C572 O554 1.258 . S
C572 O559 1.252 . S
C572 C573 1.497 . S
C573 C572 1.497 . S
C573 C574 1.395 . S
C573 C575 1.380 . S
C574 C573 1.395 . S
C574 C577 1.398 . S
C574 H584 0.930 . S
C575 C573 1.380 . S
C575 C576 1.391 . S
C575 H585 0.930 . S
C576 C575 1.391 . S
C576 C578 1.387 . S
C577 C574 1.398 . S
C577 C578 1.380 . S
C577 H586 0.930 . S
C578 C576 1.387 . S
C578 C577 1.380 . S
C578 H587 0.930 . S
C579 O556 1.254 . S
C579 O557 1.268 . S
H580 C565 0.930 . S
H581 C566 0.930 . S
H582 C568 0.930 . S
H583 C569 0.930 . S
H584 C574 0.930 . S
H585 C575 0.930 . S
H586 C577 0.930 . S
H587 C578 0.930 . S
Gd588 N619 2.661 . S
Gd588 N625 2.601 . S
Gd588 O632 2.545 . S
Gd588 O633 2.606 . S
Gd588 O635 2.429 . S
Gd588 O636 2.545 . S
Gd588 O637 2.412 . S
Gd588 O639 2.362 . S
Gd588 O640 2.324 . S
Gd588 C647 2.828 . S
Gd589 N598 2.661 . S
Gd589 N602 2.601 . S
Gd589 O633 2.362 . S
Gd589 O634 2.324 . S
Gd589 O638 2.545 . S
Gd589 O639 2.606 . S
Gd589 O641 2.429 . S
Gd589 O642 2.545 . S
Gd589 O643 2.412 . S
Gd589 C656 2.828 . S
C590 C593 1.417 . S
C590 C595 1.431 . S
C590 C596 1.412 . S
C591 C594 1.437 . S
C591 C595 1.317 . S
C591 H610 0.929 . S
C592 C593 1.426 . S
C592 C594 1.413 . S
C592 N602 1.359 . S
C593 C590 1.417 . S
C593 C592 1.426 . S
C593 N598 1.350 . S
C594 C591 1.437 . S
C594 C592 1.413 . S
C594 C604 1.391 . S
C595 C590 1.431 . S
C595 C591 1.317 . S
C595 H606 0.930 . S
C596 C590 1.412 . S
C596 C597 1.355 . S
C596 H608 0.930 . S
C597 C596 1.355 . S
C597 C599 1.402 . S
C597 H609 0.930 . S
N598 Gd589 2.661 . S
N598 C593 1.350 . S
N598 C599 1.307 . S
C599 C597 1.402 . S
C599 N598 1.307 . S
C599 H600 0.930 . S
H600 C599 0.930 . S
C601 N602 1.334 . S
C601 C603 1.394 . S
C601 H605 0.930 . S
N602 Gd589 2.601 . S
N602 C592 1.359 . S
N602 C601 1.334 . S
C603 C601 1.394 . S
C603 C604 1.359 . S
C603 H615 0.930 . S
C604 C594 1.391 . S
C604 C603 1.359 . S
C604 H616 0.929 . S
H605 C601 0.930 . S
H606 C595 0.930 . S
H607 C624 0.930 . S
H608 C596 0.930 . S
H609 C597 0.930 . S
H610 C591 0.929 . S
H611 C629 0.930 . S
H612 C620 0.930 . S
H613 C621 0.930 . S
H614 C645 0.929 . S
H615 C603 0.930 . S
H616 C604 0.929 . S
H617 C646 0.930 . S
H618 C627 0.930 . S
N619 Gd588 2.661 . S
N619 C623 1.350 . S
N619 C624 1.307 . S
C620 H612 0.930 . S
C620 C621 1.355 . S
C620 C622 1.412 . S
C621 H613 0.930 . S
C621 C620 1.355 . S
C621 C624 1.402 . S
C622 C620 1.412 . S
C622 C623 1.417 . S
C622 C646 1.431 . S
C623 N619 1.350 . S
C623 C622 1.417 . S
C623 C626 1.426 . S
C624 H607 0.930 . S
C624 N619 1.307 . S
C624 C621 1.402 . S
N625 Gd588 2.601 . S
N625 C626 1.359 . S
N625 C629 1.334 . S
C626 C623 1.426 . S
C626 N625 1.359 . S
C626 C630 1.413 . S
C627 H618 0.930 . S
C627 C628 1.359 . S
C627 C629 1.394 . S
C628 C627 1.359 . S
C628 C630 1.391 . S
C628 H631 0.929 . S
C629 H611 0.930 . S
C629 N625 1.334 . S
C629 C627 1.394 . S
C630 C626 1.413 . S
C630 C628 1.391 . S
C630 C645 1.437 . S
H631 C628 0.929 . S
O632 Gd588 2.545 . S
O632 C647 1.258 . S
O633 Gd588 2.606 . S
O633 Gd589 2.362 . S
O633 C644 1.284 . S
O634 Gd589 2.324 . S
O634 C654 1.254 . S
O635 Gd588 2.429 . S
O635 C654 1.268 . S
O636 Gd588 2.545 . S
O636 C644 1.250 . S
O637 Gd588 2.412 . S
O637 C647 1.252 . S
O638 Gd589 2.545 . S
O638 C656 1.258 . S
O639 Gd588 2.362 . S
O639 Gd589 2.606 . S
O639 C655 1.284 . S
O640 Gd588 2.324 . S
O640 C663 1.254 . S
O641 Gd589 2.429 . S
O641 C663 1.268 . S
O642 Gd589 2.545 . S
O642 C655 1.250 . S
O643 Gd589 2.412 . S
O643 C656 1.252 . S
C644 O633 1.284 . S
C644 O636 1.250 . S
C645 H614 0.929 . S
C645 C630 1.437 . S
C645 C646 1.317 . S
C646 H617 0.930 . S
C646 C622 1.431 . S
C646 C645 1.317 . S
C647 Gd588 2.828 . S
C647 O632 1.258 . S
C647 O637 1.252 . S
C647 C648 1.497 . S
C648 C647 1.497 . S
C648 C649 1.395 . S
C648 C650 1.380 . S
C649 C648 1.395 . S
C649 C652 1.398 . S
C649 H664 0.930 . S
C650 C648 1.380 . S
C650 C651 1.391 . S
C650 H665 0.930 . S
C651 C650 1.391 . S
C651 C653 1.387 . S
C652 C649 1.398 . S
C652 C653 1.380 . S
C652 H666 0.930 . S
C653 C651 1.387 . S
C653 C652 1.380 . S
C653 H667 0.930 . S
C654 O634 1.254 . S
C654 O635 1.268 . S
C655 O639 1.284 . S
C655 O642 1.250 . S
C656 Gd589 2.828 . S
C656 O638 1.258 . S
C656 O643 1.252 . S
C656 C657 1.497 . S
C657 C656 1.497 . S
C657 C658 1.395 . S
C657 C659 1.380 . S
C658 C657 1.395 . S
C658 C661 1.398 . S
C658 H668 0.930 . S
C659 C657 1.380 . S
C659 C660 1.391 . S
C659 H669 0.930 . S
C660 C659 1.391 . S
C660 C662 1.387 . S
C661 C658 1.398 . S
C661 C662 1.380 . S
C661 H670 0.930 . S
C662 C660 1.387 . S
C662 C661 1.380 . S
C662 H671 0.930 . S
C663 O640 1.254 . S
C663 O641 1.268 . S
H664 C649 0.930 . S
H665 C650 0.930 . S
H666 C652 0.930 . S
H667 C653 0.930 . S
H668 C658 0.930 . S
H669 C659 0.930 . S
H670 C661 0.930 . S
H671 C662 0.930 . S
Co672 O675 2.042 . S
Co672 O682 2.264 . S
Co672 O701 2.286 . S
Co672 O702 2.069 . S
Co672 O704 2.015 1_455 S
Co673 O675 2.122 . S
Co673 O681 2.073 . S
Co673 O682 2.327 . S
Co673 O683 1.976 1_455 S
Co674 O675 2.087 1_545 S
Co674 O677 2.087 1_455 S
Co674 O684 2.111 1_445 S
Co674 O685 2.143 . S
Co674 O689 2.111 . S
Co674 O703 2.143 1_445 S
O675 Co672 2.042 . S
O675 Co673 2.122 . S
O675 Co674 2.087 1_565 S
O675 H676 0.980 1_565 S
H676 O675 0.980 1_545 S
O677 Co674 2.087 1_655 S
O677 Co678 2.042 . S
O677 Co679 2.122 . S
O677 H680 0.980 . S
Co678 O677 2.042 . S
Co678 O686 2.286 . S
Co678 O687 2.069 . S
Co678 O688 2.015 1_655 S
Co678 O691 2.264 . S
Co679 O677 2.122 . S
Co679 O690 1.976 1_655 S
Co679 O691 2.327 . S
Co679 O692 2.073 . S
H680 O677 0.980 . S
O681 Co673 2.073 . S
O681 C696 1.245 . S
O682 Co672 2.264 . S
O682 Co673 2.327 . S
O682 C696 1.257 . S
O683 Co673 1.976 1_655 S
O683 C695 1.251 . S
O684 Co674 2.111 1_665 S
O684 C695 1.274 . S
O685 Co674 2.143 . S
O685 C698 1.246 . S
O686 Co678 2.286 . S
O686 C697 1.259 . S
O687 Co678 2.069 . S
O687 C697 1.289 . S
O688 Co678 2.015 1_455 S
O688 C698 1.257 . S
O689 Co674 2.111 . S
O689 C699 1.274 . S
O690 Co679 1.976 1_455 S
O690 C699 1.251 . S
O691 Co678 2.264 . S
O691 Co679 2.327 . S
O691 C700 1.257 . S
O692 Co679 2.073 . S
O692 C700 1.245 . S
C693 O701 1.259 . S
C693 O702 1.289 . S
C694 O703 1.246 . S
C694 O704 1.257 . S
C695 O683 1.251 . S
C695 O684 1.274 . S
C696 O681 1.245 . S
C696 O682 1.257 . S
C697 O686 1.259 . S
C697 O687 1.289 . S
C698 O685 1.246 . S
C698 O688 1.257 . S
C699 O689 1.274 . S
C699 O690 1.251 . S
C700 O691 1.257 . S
C700 O692 1.245 . S
O701 Co672 2.286 . S
O701 C693 1.259 . S
O702 Co672 2.069 . S
O702 C693 1.289 . S
O703 Co674 2.143 1_665 S
O703 C694 1.246 . S
O704 Co672 2.015 1_655 S
O704 C694 1.257 . S
Co705 O708 2.042 1_566 S
Co705 O715 2.264 1_556 S
Co705 O734 2.286 . S
Co705 O735 2.069 . S
Co705 O737 2.015 . S
Co706 O708 2.122 1_565 S
Co706 O714 2.073 . S
Co706 O715 2.327 . S
Co706 O716 1.976 . S
Co707 O708 2.087 . S
Co707 O710 2.087 1_554 S
Co707 O717 2.111 . S
Co707 O718 2.143 . S
Co707 O722 2.111 1_554 S
Co707 O736 2.143 1_554 S
O708 Co705 2.042 1_544 S
O708 Co706 2.122 1_545 S
O708 Co707 2.087 . S
O708 H709 0.980 . S
H709 O708 0.980 . S
O710 Co707 2.087 1_556 S
O710 Co711 2.042 1_556 S
O710 Co712 2.122 . S
O710 H713 0.980 . S
Co711 O710 2.042 1_554 S
Co711 O719 2.286 . S
Co711 O720 2.069 . S
Co711 O721 2.015 . S
Co711 O724 2.264 1_554 S
Co712 O710 2.122 . S
Co712 O723 1.976 . S
Co712 O724 2.327 . S
Co712 O725 2.073 . S
H713 O710 0.980 . S
O714 Co706 2.073 . S
O714 C729 1.245 . S
O715 Co705 2.264 1_554 S
O715 Co706 2.327 . S
O715 C729 1.257 . S
O716 Co706 1.976 . S
O716 C728 1.251 . S
O717 Co707 2.111 . S
O717 C728 1.274 1_545 S
O718 Co707 2.143 . S
O718 C731 1.246 . S
O719 Co711 2.286 . S
O719 C730 1.259 . S
O720 Co711 2.069 . S
O720 C730 1.289 . S
O721 Co711 2.015 . S
O721 C731 1.257 . S
O722 Co707 2.111 1_556 S
O722 C732 1.274 . S
O723 Co712 1.976 . S
O723 C732 1.251 . S
O724 Co711 2.264 1_556 S
O724 Co712 2.327 . S
O724 C733 1.257 . S
O725 Co712 2.073 . S
O725 C733 1.245 . S
C726 O734 1.259 . S
C726 O735 1.289 . S
C727 O736 1.246 1_565 S
C727 O737 1.257 . S
C728 O716 1.251 . S
C728 O717 1.274 1_565 S
C729 O714 1.245 . S
C729 O715 1.257 . S
C730 O719 1.259 . S
C730 O720 1.289 . S
C731 O718 1.246 . S
C731 O721 1.257 . S
C732 O722 1.274 . S
C732 O723 1.251 . S
C733 O724 1.257 . S
C733 O725 1.245 . S
O734 Co705 2.286 . S
O734 C726 1.259 . S
O735 Co705 2.069 . S
O735 C726 1.289 . S
O736 Co707 2.143 1_556 S
O736 C727 1.246 1_545 S
O737 Co705 2.015 . S
O737 C727 1.257 . S
Co738 O741 2.042 . S
Co738 O748 2.264 . S
Co738 O767 2.286 . S
Co738 O768 2.069 . S
Co738 O770 2.015 1_455 S
Co739 O741 2.122 . S
Co739 O747 2.073 . S
Co739 O748 2.327 . S
Co739 O749 1.976 1_455 S
Co740 O741 2.087 . S
Co740 O743 2.087 1_455 S
Co740 O750 2.111 1_455 S
Co740 O751 2.143 . S
Co740 O755 2.111 . S
Co740 O769 2.143 1_455 S
O741 Co738 2.042 . S
O741 Co739 2.122 . S
O741 Co740 2.087 . S
O741 H742 0.980 . S
H742 O741 0.980 . S
O743 Co740 2.087 1_655 S
O743 Co744 2.042 . S
O743 Co745 2.122 1_554 S
O743 H746 0.980 . S
Co744 O743 2.042 . S
Co744 O752 2.286 . S
Co744 O753 2.069 . S
Co744 O754 2.015 1_655 S
Co744 O757 2.264 . S
Co745 O743 2.122 1_556 S
Co745 O756 1.976 1_655 S
Co745 O757 2.327 1_556 S
Co745 O758 2.073 . S
H746 O743 0.980 . S
O747 Co739 2.073 . S
O747 C762 1.245 . S
O748 Co738 2.264 . S
O748 Co739 2.327 . S
O748 C762 1.257 . S
O749 Co739 1.976 1_655 S
O749 C761 1.251 . S
O750 Co740 2.111 1_655 S
O750 C761 1.274 . S
O751 Co740 2.143 . S
O751 C764 1.246 . S
O752 Co744 2.286 . S
O752 C763 1.259 . S
O753 Co744 2.069 . S
O753 C763 1.289 . S
O754 Co744 2.015 1_455 S
O754 C764 1.257 . S
O755 Co740 2.111 . S
O755 C765 1.274 . S
O756 Co745 1.976 1_455 S
O756 C765 1.251 1_556 S
O757 Co744 2.264 . S
O757 Co745 2.327 1_554 S
O757 C766 1.266 . S
O758 Co745 2.073 . S
O758 C766 1.232 1_556 S
C759 O767 1.259 . S
C759 O768 1.289 . S
C760 O769 1.246 . S
C760 O770 1.257 . S
C761 O749 1.251 . S
C761 O750 1.274 . S
C762 O747 1.245 . S
C762 O748 1.257 . S
C763 O752 1.259 . S
C763 O753 1.289 . S
C764 O751 1.246 . S
C764 O754 1.257 . S
C765 O755 1.274 . S
C765 O756 1.251 1_554 S
C766 O757 1.266 . S
C766 O758 1.232 1_554 S
O767 Co738 2.286 . S
O767 C759 1.259 . S
O768 Co738 2.069 . S
O768 C759 1.289 . S
O769 Co740 2.143 1_655 S
O769 C760 1.246 . S
O770 Co738 2.015 1_655 S
O770 C760 1.257 . S
Co771 O774 2.042 . S
Co771 O781 2.264 . S
Co771 O800 2.286 1_554 S
Co771 O801 2.069 1_554 S
Co771 O803 2.015 1_554 S
Co772 O774 2.122 . S
Co772 O780 2.073 . S
Co772 O781 2.327 . S
Co772 O782 1.976 . S
Co773 O774 2.087 . S
Co773 O776 2.087 . S
Co773 O783 2.111 . S
Co773 O784 2.143 . S
Co773 O788 2.111 1_554 S
Co773 O802 2.143 1_554 S
O774 Co771 2.042 . S
O774 Co772 2.122 . S
O774 Co773 2.087 . S
O774 H775 0.980 . S
H775 O774 0.980 . S
O776 Co773 2.087 . S
O776 Co777 2.042 . S
O776 Co778 2.122 1_554 S
O776 H779 0.980 . S
Co777 O776 2.042 . S
Co777 O785 2.286 . S
Co777 O786 2.069 . S
Co777 O787 2.015 . S
Co777 O790 2.264 1_554 S
Co778 O776 2.122 1_556 S
Co778 O789 1.976 . S
Co778 O790 2.327 . S
Co778 O791 2.073 . S
H779 O776 0.980 . S
O780 Co772 2.073 . S
O780 C795 1.245 . S
O781 Co771 2.264 . S
O781 Co772 2.327 . S
O781 C795 1.257 . S
O782 Co772 1.976 . S
O782 C794 1.251 . S
O783 Co773 2.111 . S
O783 C794 1.274 . S
O784 Co773 2.143 . S
O784 C797 1.246 . S
O785 Co777 2.286 . S
O785 C796 1.259 . S
O786 Co777 2.069 . S
O786 C796 1.289 . S
O787 Co777 2.015 . S
O787 C797 1.257 . S
O788 Co773 2.111 1_556 S
O788 C798 1.274 . S
O789 Co778 1.976 . S
O789 C798 1.251 . S
O790 Co777 2.264 1_556 S
O790 Co778 2.327 . S
O790 C799 1.257 . S
O791 Co778 2.073 . S
O791 C799 1.245 . S
C792 O800 1.259 . S
C792 O801 1.289 . S
C793 O802 1.246 . S
C793 O803 1.257 . S
C794 O782 1.251 . S
C794 O783 1.274 . S
C795 O780 1.245 . S
C795 O781 1.257 . S
C796 O785 1.259 . S
C796 O786 1.289 . S
C797 O784 1.246 . S
C797 O787 1.257 . S
C798 O788 1.274 . S
C798 O789 1.251 . S
C799 O790 1.257 . S
C799 O791 1.245 . S
O800 Co771 2.286 1_556 S
O800 C792 1.259 . S
O801 Co771 2.069 1_556 S
O801 C792 1.289 . S
O802 Co773 2.143 1_556 S
O802 C793 1.246 . S
O803 Co771 2.015 1_556 S
O803 C793 1.257 . S
Co804 O807 2.042 . S
Co804 O814 2.264 . S
Co804 O833 2.286 . S
Co804 O834 2.069 . S
Co804 O836 2.015 . S
Co805 O807 2.122 . S
Co805 O813 2.073 . S
Co805 O814 2.327 . S
Co805 O815 1.976 . S
Co806 O807 2.087 . S
Co806 O809 2.087 . S
Co806 O816 2.111 . S
Co806 O817 2.143 1_455 S
Co806 O821 2.111 . S
Co806 O835 2.143 . S
O807 Co804 2.042 . S
O807 Co805 2.122 . S
O807 Co806 2.087 . S
O807 H808 0.980 . S
H808 O807 0.980 . S
O809 Co806 2.087 . S
O809 Co810 2.042 1_455 S
O809 Co811 2.122 1_455 S
O809 H812 0.980 . S
Co810 O809 2.042 1_655 S
Co810 O818 2.286 . S
Co810 O819 2.069 . S
Co810 O820 2.015 . S
Co810 O823 2.264 . S
Co811 O809 2.122 1_655 S
Co811 O822 1.976 . S
Co811 O823 2.327 . S
Co811 O824 2.073 . S
H812 O809 0.980 . S
O813 Co805 2.073 . S
O813 C828 1.245 . S
O814 Co804 2.264 . S
O814 Co805 2.327 . S
O814 C828 1.257 . S
O815 Co805 1.976 . S
O815 C827 1.251 . S
O816 Co806 2.111 . S
O816 C827 1.274 . S
O817 Co806 2.143 1_655 S
O817 C830 1.246 . S
O818 Co810 2.286 . S
O818 C829 1.259 . S
O819 Co810 2.069 . S
O819 C829 1.289 . S
O820 Co810 2.015 . S
O820 C830 1.257 . S
O821 Co806 2.111 . S
O821 C831 1.274 1_455 S
O822 Co811 1.976 . S
O822 C831 1.251 . S
O823 Co810 2.264 . S
O823 Co811 2.327 . S
O823 C832 1.257 . S
O824 Co811 2.073 . S
O824 C832 1.245 . S
C825 O833 1.259 . S
C825 O834 1.289 . S
C826 O835 1.246 . S
C826 O836 1.257 . S
C827 O815 1.251 . S
C827 O816 1.274 . S
C828 O813 1.245 . S
C828 O814 1.257 . S
C829 O818 1.259 . S
C829 O819 1.289 . S
C830 O817 1.246 . S
C830 O820 1.257 . S
C831 O821 1.274 1_655 S
C831 O822 1.251 . S
C832 O823 1.257 . S
C832 O824 1.245 . S
O833 Co804 2.286 . S
O833 C825 1.259 . S
O834 Co804 2.069 . S
O834 C825 1.289 . S
O835 Co806 2.143 . S
O835 C826 1.246 . S
O836 Co804 2.015 . S
O836 C826 1.257 . S
Co837 O840 2.042 . S
Co837 O847 2.264 . S
Co837 O866 2.286 . S
Co837 O867 2.069 . S
Co837 O869 2.015 1_565 S
Co838 O840 2.122 . S
Co838 O846 2.104 . S
Co838 O847 2.342 . S
Co838 O848 1.949 1_565 S
Co839 O840 2.087 1_545 S
Co839 O842 2.087 . S
Co839 O849 2.111 . S
Co839 O850 2.143 1_545 S
Co839 O854 2.111 1_545 S
Co839 O868 2.143 . S
O840 Co837 2.042 . S
O840 Co838 2.122 . S
O840 Co839 2.087 1_565 S
O840 H841 0.980 . S
H841 O840 0.980 . S
O842 Co839 2.087 . S
O842 Co843 2.042 . S
O842 Co844 2.122 . S
O842 H845 0.980 . S
Co843 O842 2.042 . S
Co843 O851 2.286 . S
Co843 O852 2.069 . S
Co843 O853 2.015 1_545 S
Co843 O856 2.264 . S
Co844 O842 2.122 . S
Co844 O855 1.976 1_545 S
Co844 O856 2.327 . S
Co844 O857 2.073 . S
H845 O842 0.980 . S
O846 Co838 2.104 . S
O846 C861 1.245 . S
O847 Co837 2.264 . S
O847 Co838 2.342 . S
O847 C861 1.257 . S
O848 Co838 1.949 1_545 S
O848 C860 1.251 . S
O849 Co839 2.111 . S
O849 C860 1.274 . S
O850 Co839 2.143 1_565 S
O850 C863 1.246 . S
O851 Co843 2.286 . S
O851 C862 1.259 . S
O852 Co843 2.069 . S
O852 C862 1.289 . S
O853 Co843 2.015 1_565 S
O853 C863 1.257 . S
O854 Co839 2.111 1_565 S
O854 C864 1.274 . S
O855 Co844 1.976 1_565 S
O855 C864 1.251 . S
O856 Co843 2.264 . S
O856 Co844 2.327 . S
O856 C865 1.257 . S
O857 Co844 2.073 . S
O857 C865 1.245 . S
C858 O866 1.259 . S
C858 O867 1.289 . S
C859 O868 1.246 . S
C859 O869 1.257 . S
C860 O848 1.251 . S
C860 O849 1.274 . S
C861 O846 1.245 . S
C861 O847 1.257 . S
C862 O851 1.259 . S
C862 O852 1.289 . S
C863 O850 1.246 . S
C863 O853 1.257 . S
C864 O854 1.274 . S
C864 O855 1.251 . S
C865 O856 1.257 . S
C865 O857 1.245 . S
O866 Co837 2.286 . S
O866 C858 1.259 . S
O867 Co837 2.069 . S
O867 C858 1.289 . S
O868 Co839 2.143 . S
O868 C859 1.246 . S
O869 Co837 2.015 1_545 S
O869 C859 1.257 . S
H870 C878 0.950 . S
H871 C883 0.950 . S
H872 C880 0.950 . S
H873 C882 0.950 . S
H874 C884 0.950 . S
H875 C886 0.950 . S
H876 C888 0.950 . S
H877 C889 0.950 . S
C878 H870 0.950 . S
C878 C879 1.386 . S
C878 C880 1.391 . S
C879 C878 1.386 . S
C879 C883 1.393 . S
C880 H872 0.950 . S
C880 C878 1.391 . S
C880 C881 1.400 . S
C881 C880 1.400 . S
C881 C882 1.398 . S
C881 C887 1.491 . S
C882 H873 0.950 . S
C882 C881 1.398 . S
C882 C883 1.391 . S
C883 H871 0.950 . S
C883 C879 1.393 . S
C883 C882 1.391 . S
C884 H874 0.950 . S
C884 C885 1.386 . S
C884 C886 1.391 . S
C885 C884 1.386 . S
C885 C889 1.393 . S
C886 H875 0.950 . S
C886 C884 1.391 . S
C886 C887 1.400 . S
C887 C881 1.491 . S
C887 C886 1.400 . S
C887 C888 1.398 . S
C888 H876 0.950 . S
C888 C887 1.398 . S
C888 C889 1.391 . S
C889 H877 0.950 . S
C889 C885 1.393 . S
C889 C888 1.391 . S
H890 C898 0.950 . S
H891 C903 0.950 . S
H892 C900 0.950 . S
H893 C902 0.950 . S
H894 C904 0.950 . S
H895 C906 0.950 . S
H896 C908 0.950 . S
H897 C909 0.950 . S
C898 H890 0.950 . S
C898 C899 1.386 . S
C898 C900 1.391 . S
C899 C898 1.386 . S
C899 C903 1.393 . S
C900 H892 0.950 . S
C900 C898 1.391 . S
C900 C901 1.400 . S
C901 C900 1.400 . S
C901 C902 1.398 . S
C901 C907 1.491 . S
C902 H893 0.950 . S
C902 C901 1.398 . S
C902 C903 1.391 . S
C903 H891 0.950 . S
C903 C899 1.393 . S
C903 C902 1.391 . S
C904 H894 0.950 . S
C904 C905 1.386 . S
C904 C906 1.391 . S
C905 C904 1.386 . S
C905 C909 1.393 . S
C906 H895 0.950 . S
C906 C904 1.391 . S
C906 C907 1.400 . S
C907 C901 1.491 . S
C907 C906 1.400 . S
C907 C908 1.398 . S
C908 H896 0.950 . S
C908 C907 1.398 . S
C908 C909 1.391 . S
C909 H897 0.950 . S
C909 C905 1.393 . S
C909 C908 1.391 . S
H910 C918 0.950 . S
H911 C923 0.950 . S
H912 C920 0.950 . S
H913 C922 0.950 . S
H914 C924 0.950 . S
H915 C926 0.950 . S
H916 C928 0.950 . S
H917 C929 0.950 . S
C918 H910 0.950 . S
C918 C919 1.386 . S
C918 C920 1.391 . S
C919 C918 1.386 . S
C919 C923 1.393 . S
C920 H912 0.950 . S
C920 C918 1.391 . S
C920 C921 1.400 . S
C921 C920 1.400 . S
C921 C922 1.398 . S
C921 C927 1.491 . S
C922 H913 0.950 . S
C922 C921 1.398 . S
C922 C923 1.391 . S
C923 H911 0.950 . S
C923 C919 1.393 . S
C923 C922 1.391 . S
C924 H914 0.950 . S
C924 C925 1.386 . S
C924 C926 1.391 . S
C925 C924 1.386 . S
C925 C929 1.393 . S
C926 H915 0.950 . S
C926 C924 1.391 . S
C926 C927 1.400 . S
C927 C921 1.491 . S
C927 C926 1.400 . S
C927 C928 1.398 . S
C928 H916 0.950 . S
C928 C927 1.398 . S
C928 C929 1.391 . S
C929 H917 0.950 . S
C929 C925 1.393 . S
C929 C928 1.391 . S
H930 C938 0.950 . S
H931 C943 0.950 . S
H932 C940 0.950 . S
H933 C942 0.950 . S
H934 C944 0.950 . S
H935 C946 0.950 . S
H936 C948 0.950 . S
H937 C949 0.950 . S
C938 H930 0.950 . S
C938 C939 1.386 . S
C938 C940 1.391 . S
C939 C938 1.386 . S
C939 C943 1.393 . S
C940 H932 0.950 . S
C940 C938 1.391 . S
C940 C941 1.400 . S
C941 C940 1.400 . S
C941 C942 1.398 . S
C941 C947 1.491 . S
C942 H933 0.950 . S
C942 C941 1.398 . S
C942 C943 1.391 . S
C943 H931 0.950 . S
C943 C939 1.393 . S
C943 C942 1.391 . S
C944 H934 0.950 . S
C944 C945 1.386 . S
C944 C946 1.391 . S
C945 C944 1.386 . S
C945 C949 1.393 . S
C946 H935 0.950 . S
C946 C944 1.391 . S
C946 C947 1.400 . S
C947 C941 1.491 . S
C947 C946 1.400 . S
C947 C948 1.398 . S
C948 H936 0.950 . S
C948 C947 1.398 . S
C948 C949 1.391 . S
C949 H937 0.950 . S
C949 C945 1.393 . S
C949 C948 1.391 . S
H950 C958 0.950 . S
H951 C963 0.950 . S
H952 C960 0.950 . S
H953 C962 0.950 . S
H954 C964 0.950 . S
H955 C966 0.950 . S
H956 C968 0.950 . S
H957 C969 0.950 . S
C958 H950 0.950 . S
C958 C959 1.386 . S
C958 C960 1.391 . S
C959 C958 1.386 . S
C959 C963 1.393 . S
C960 H952 0.950 . S
C960 C958 1.391 . S
C960 C961 1.400 . S
C961 C960 1.400 . S
C961 C962 1.398 . S
C961 C967 1.491 . S
C962 H953 0.950 . S
C962 C961 1.398 . S
C962 C963 1.391 . S
C963 H951 0.950 . S
C963 C959 1.393 . S
C963 C962 1.391 . S
C964 H954 0.950 . S
C964 C965 1.386 . S
C964 C966 1.391 . S
C965 C964 1.386 . S
C965 C969 1.393 . S
C966 H955 0.950 . S
C966 C964 1.391 . S
C966 C967 1.400 . S
C967 C961 1.491 . S
C967 C966 1.400 . S
C967 C968 1.398 . S
C968 H956 0.950 . S
C968 C967 1.398 . S
C968 C969 1.391 . S
C969 H957 0.950 . S
C969 C965 1.393 . S
C969 C968 1.391 . S
H970 C978 0.950 . S
H971 C983 0.950 . S
H972 C980 0.950 . S
H973 C982 0.950 . S
H974 C984 0.950 . S
H975 C986 0.950 . S
H976 C988 0.950 . S
H977 C989 0.950 . S
C978 H970 0.950 . S
C978 C979 1.386 . S
C978 C980 1.391 . S
C979 C978 1.386 . S
C979 C983 1.393 . S
C980 H972 0.950 . S
C980 C978 1.391 . S
C980 C981 1.400 . S
C981 C980 1.400 . S
C981 C982 1.398 . S
C981 C987 1.491 . S
C982 H973 0.950 . S
C982 C981 1.398 . S
C982 C983 1.391 . S
C983 H971 0.950 . S
C983 C979 1.393 . S
C983 C982 1.391 . S
C984 H974 0.950 . S
C984 C985 1.386 . S
C984 C986 1.391 . S
C985 C984 1.386 . S
C985 C989 1.393 . S
C986 H975 0.950 . S
C986 C984 1.391 . S
C986 C987 1.400 . S
C987 C981 1.491 . S
C987 C986 1.400 . S
C987 C988 1.398 . S
C988 H976 0.950 . S
C988 C987 1.398 . S
C988 C989 1.391 . S
C989 H977 0.950 . S
C989 C985 1.393 . S
C989 C988 1.391 . S
H990 C998 0.950 . S
H991 C1003 0.950 . S
H992 C1000 0.950 . S
H993 C1002 0.950 . S
H994 C1004 0.950 . S
H995 C1006 0.950 . S
H996 C1008 0.950 . S
H997 C1009 0.950 . S
C998 H990 0.950 . S
C998 C999 1.386 . S
C998 C1000 1.391 . S
C999 C998 1.386 . S
C999 C1003 1.393 . S
C1000 H992 0.950 . S
C1000 C998 1.391 . S
C1000 C1001 1.400 . S
C1001 C1000 1.400 . S
C1001 C1002 1.398 . S
C1001 C1007 1.491 . S
C1002 H993 0.950 . S
C1002 C1001 1.398 . S
C1002 C1003 1.391 . S
C1003 H991 0.950 . S
C1003 C999 1.393 . S
C1003 C1002 1.391 . S
C1004 H994 0.950 . S
C1004 C1005 1.386 . S
C1004 C1006 1.391 . S
C1005 C1004 1.386 . S
C1005 C1009 1.393 . S
C1006 H995 0.950 . S
C1006 C1004 1.391 . S
C1006 C1007 1.400 . S
C1007 C1001 1.491 . S
C1007 C1006 1.400 . S
C1007 C1008 1.398 . S
C1008 H996 0.950 . S
C1008 C1007 1.398 . S
C1008 C1009 1.391 . S
C1009 H997 0.950 . S
C1009 C1005 1.393 . S
C1009 C1008 1.391 . S
H1010 C1018 0.950 . S
H1011 C1023 0.950 . S
H1012 C1020 0.950 . S
H1013 C1022 0.950 . S
H1014 C1024 0.950 . S
H1015 C1026 0.950 . S
H1016 C1028 0.950 . S
H1017 C1029 0.950 . S
C1018 H1010 0.950 . S
C1018 C1019 1.386 . S
C1018 C1020 1.391 . S
C1019 C1018 1.386 . S
C1019 C1023 1.393 . S
C1020 H1012 0.950 . S
C1020 C1018 1.391 . S
C1020 C1021 1.400 . S
C1021 C1020 1.400 . S
C1021 C1022 1.398 . S
C1021 C1027 1.491 . S
C1022 H1013 0.950 . S
C1022 C1021 1.398 . S
C1022 C1023 1.391 . S
C1023 H1011 0.950 . S
C1023 C1019 1.393 . S
C1023 C1022 1.391 . S
C1024 H1014 0.950 . S
C1024 C1025 1.386 . S
C1024 C1026 1.391 . S
C1025 C1024 1.386 . S
C1025 C1029 1.393 . S
C1026 H1015 0.950 . S
C1026 C1024 1.391 . S
C1026 C1027 1.400 . S
C1027 C1021 1.491 . S
C1027 C1026 1.400 . S
C1027 C1028 1.398 . S
C1028 H1016 0.950 . S
C1028 C1027 1.398 . S
C1028 C1029 1.391 . S
C1029 H1017 0.950 . S
C1029 C1025 1.393 . S
C1029 C1028 1.391 . S
H1030 C1038 0.950 . S
H1031 C1043 0.950 . S
H1032 C1040 0.950 . S
H1033 C1042 0.950 . S
H1034 C1044 0.950 . S
H1035 C1046 0.950 . S
H1036 C1048 0.950 . S
H1037 C1049 0.950 . S
C1038 H1030 0.950 . S
C1038 C1039 1.386 . S
C1038 C1040 1.391 . S
C1039 C1038 1.386 . S
C1039 C1043 1.393 . S
C1040 H1032 0.950 . S
C1040 C1038 1.391 . S
C1040 C1041 1.400 . S
C1041 C1040 1.400 . S
C1041 C1042 1.398 . S
C1041 C1047 1.491 . S
C1042 H1033 0.950 . S
C1042 C1041 1.398 . S
C1042 C1043 1.391 . S
C1043 H1031 0.950 . S
C1043 C1039 1.393 . S
C1043 C1042 1.391 . S
C1044 H1034 0.950 . S
C1044 C1045 1.386 . S
C1044 C1046 1.391 . S
C1045 C1044 1.386 . S
C1045 C1049 1.393 . S
C1046 H1035 0.950 . S
C1046 C1044 1.391 . S
C1046 C1047 1.400 . S
C1047 C1041 1.491 . S
C1047 C1046 1.400 . S
C1047 C1048 1.398 . S
C1048 H1036 0.950 . S
C1048 C1047 1.398 . S
C1048 C1049 1.391 . S
C1049 H1037 0.950 . S
C1049 C1045 1.393 . S
C1049 C1048 1.391 . S
H1050 C1058 0.950 . S
H1051 C1063 0.950 . S
H1052 C1060 0.950 . S
H1053 C1062 0.950 . S
H1054 C1064 0.950 . S
H1055 C1066 0.950 . S
H1056 C1068 0.950 . S
H1057 C1069 0.950 . S
C1058 H1050 0.950 . S
C1058 C1059 1.386 . S
C1058 C1060 1.391 . S
C1059 C1058 1.386 . S
C1059 C1063 1.393 . S
C1060 H1052 0.950 . S
C1060 C1058 1.391 . S
C1060 C1061 1.400 . S
C1061 C1060 1.400 . S
C1061 C1062 1.398 . S
C1061 C1067 1.491 . S
C1062 H1053 0.950 . S
C1062 C1061 1.398 . S
C1062 C1063 1.391 . S
C1063 H1051 0.950 . S
C1063 C1059 1.393 . S
C1063 C1062 1.391 . S
C1064 H1054 0.950 . S
C1064 C1065 1.386 . S
C1064 C1066 1.391 . S
C1065 C1064 1.386 . S
C1065 C1069 1.393 . S
C1066 H1055 0.950 . S
C1066 C1064 1.391 . S
C1066 C1067 1.400 . S
C1067 C1061 1.491 . S
C1067 C1066 1.400 . S
C1067 C1068 1.398 . S
C1068 H1056 0.950 . S
C1068 C1067 1.398 . S
C1068 C1069 1.391 . S
C1069 H1057 0.950 . S
C1069 C1065 1.393 . S
C1069 C1068 1.391 . S
H1070 C1078 0.950 . S
H1071 C1083 0.950 . S
H1072 C1080 0.950 . S
H1073 C1082 0.950 . S
H1074 C1084 0.950 . S
H1075 C1086 0.950 . S
H1076 C1088 0.950 . S
H1077 C1089 0.950 . S
C1078 H1070 0.950 . S
C1078 C1079 1.386 . S
C1078 C1080 1.391 . S
C1079 C1078 1.386 . S
C1079 C1083 1.393 . S
C1080 H1072 0.950 . S
C1080 C1078 1.391 . S
C1080 C1081 1.400 . S
C1081 C1080 1.400 . S
C1081 C1082 1.398 . S
C1081 C1087 1.491 . S
C1082 H1073 0.950 . S
C1082 C1081 1.398 . S
C1082 C1083 1.391 . S
C1083 H1071 0.950 . S
C1083 C1079 1.393 . S
C1083 C1082 1.391 . S
C1084 H1074 0.950 . S
C1084 C1085 1.386 . S
C1084 C1086 1.391 . S
C1085 C1084 1.386 . S
C1085 C1089 1.393 . S
C1086 H1075 0.950 . S
C1086 C1084 1.391 . S
C1086 C1087 1.400 . S
C1087 C1081 1.491 . S
C1087 C1086 1.400 . S
C1087 C1088 1.398 . S
C1088 H1076 0.950 . S
C1088 C1087 1.398 . S
C1088 C1089 1.391 . S
C1089 H1077 0.950 . S
C1089 C1085 1.393 . S
C1089 C1088 1.391 . S
H1090 C1098 0.950 . S
H1091 C1103 0.950 . S
H1092 C1100 0.950 . S
H1093 C1102 0.950 . S
H1094 C1104 0.950 . S
H1095 C1106 0.950 . S
H1096 C1108 0.950 . S
H1097 C1109 0.950 . S
C1098 H1090 0.950 . S
C1098 C1099 1.386 . S
C1098 C1100 1.391 . S
C1099 C1098 1.386 . S
C1099 C1103 1.393 . S
C1100 H1092 0.950 . S
C1100 C1098 1.391 . S
C1100 C1101 1.400 . S
C1101 C1100 1.400 . S
C1101 C1102 1.398 . S
C1101 C1107 1.491 . S
C1102 H1093 0.950 . S
C1102 C1101 1.398 . S
C1102 C1103 1.391 . S
C1103 H1091 0.950 . S
C1103 C1099 1.393 . S
C1103 C1102 1.391 . S
C1104 H1094 0.950 . S
C1104 C1105 1.386 . S
C1104 C1106 1.391 . S
C1105 C1104 1.386 . S
C1105 C1109 1.393 . S
C1106 H1095 0.950 . S
C1106 C1104 1.391 . S
C1106 C1107 1.400 . S
C1107 C1101 1.491 . S
C1107 C1106 1.400 . S
C1107 C1108 1.398 . S
C1108 H1096 0.950 . S
C1108 C1107 1.398 . S
C1108 C1109 1.391 . S
C1109 H1097 0.950 . S
C1109 C1105 1.393 . S
C1109 C1108 1.391 . S
H1110 C1118 0.950 . S
H1111 C1123 0.950 . S
H1112 C1120 0.950 . S
H1113 C1122 0.950 . S
H1114 C1124 0.950 . S
H1115 C1126 0.950 . S
H1116 C1128 0.950 . S
H1117 C1129 0.950 . S
C1118 H1110 0.950 . S
C1118 C1119 1.386 . S
C1118 C1120 1.391 . S
C1119 C1118 1.386 . S
C1119 C1123 1.393 . S
C1120 H1112 0.950 . S
C1120 C1118 1.391 . S
C1120 C1121 1.400 . S
C1121 C1120 1.400 . S
C1121 C1122 1.398 . S
C1121 C1127 1.491 . S
C1122 H1113 0.950 . S
C1122 C1121 1.398 . S
C1122 C1123 1.391 . S
C1123 H1111 0.950 . S
C1123 C1119 1.393 . S
C1123 C1122 1.391 . S
C1124 H1114 0.950 . S
C1124 C1125 1.386 . S
C1124 C1126 1.391 . S
C1125 C1124 1.386 . S
C1125 C1129 1.393 . S
C1126 H1115 0.950 . S
C1126 C1124 1.391 . S
C1126 C1127 1.400 . S
C1127 C1121 1.491 . S
C1127 C1126 1.400 . S
C1127 C1128 1.398 . S
C1128 H1116 0.950 . S
C1128 C1127 1.398 . S
C1128 C1129 1.391 . S
C1129 H1117 0.950 . S
C1129 C1125 1.393 . S
C1129 C1128 1.391 . S
H1130 C1138 0.950 . S
H1131 C1143 0.950 . S
H1132 C1140 0.950 . S
H1133 C1142 0.950 . S
H1134 C1144 0.950 . S
H1135 C1146 0.950 . S
H1136 C1148 0.950 . S
H1137 C1149 0.950 . S
C1138 H1130 0.950 . S
C1138 C1139 1.386 . S
C1138 C1140 1.391 . S
C1139 C1138 1.386 . S
C1139 C1143 1.393 . S
C1140 H1132 0.950 . S
C1140 C1138 1.391 . S
C1140 C1141 1.400 . S
C1141 C1140 1.400 . S
C1141 C1142 1.398 . S
C1141 C1147 1.491 . S
C1142 H1133 0.950 . S
C1142 C1141 1.398 . S
C1142 C1143 1.391 . S
C1143 H1131 0.950 . S
C1143 C1139 1.393 . S
C1143 C1142 1.391 . S
C1144 H1134 0.950 . S
C1144 C1145 1.386 1_554 S
C1144 C1146 1.391 1_554 S
C1145 C1144 1.386 1_556 S
C1145 C1149 1.393 . S
C1146 H1135 0.950 . S
C1146 C1144 1.391 1_556 S
C1146 C1147 1.400 . S
C1147 C1141 1.491 . S
C1147 C1146 1.400 . S
C1147 C1148 1.398 . S
C1148 H1136 0.950 . S
C1148 C1147 1.398 . S
C1148 C1149 1.391 . S
C1149 H1137 0.950 . S
C1149 C1145 1.393 . S
C1149 C1148 1.391 . S
H1150 C1158 0.950 . S
H1151 C1163 0.950 . S
H1152 C1160 0.950 . S
H1153 C1162 0.950 . S
H1154 C1164 0.950 . S
H1155 C1166 0.950 . S
H1156 C1168 0.950 . S
H1157 C1169 0.950 . S
C1158 H1150 0.950 . S
C1158 C1159 1.386 . S
C1158 C1160 1.391 . S
C1159 C1158 1.386 . S
C1159 C1163 1.393 . S
C1160 H1152 0.950 . S
C1160 C1158 1.391 . S
C1160 C1161 1.400 . S
C1161 C1160 1.400 . S
C1161 C1162 1.398 . S
C1161 C1167 1.491 . S
C1162 H1153 0.950 . S
C1162 C1161 1.398 . S
C1162 C1163 1.391 . S
C1163 H1151 0.950 . S
C1163 C1159 1.393 . S
C1163 C1162 1.391 . S
C1164 H1154 0.950 . S
C1164 C1165 1.386 . S
C1164 C1166 1.391 . S
C1165 C1164 1.386 . S
C1165 C1169 1.393 . S
C1166 H1155 0.950 . S
C1166 C1164 1.391 . S
C1166 C1167 1.400 . S
C1167 C1161 1.491 . S
C1167 C1166 1.400 . S
C1167 C1168 1.398 . S
C1168 H1156 0.950 . S
C1168 C1167 1.398 . S
C1168 C1169 1.391 . S
C1169 H1157 0.950 . S
C1169 C1165 1.393 . S
C1169 C1168 1.391 . S
H1170 C1178 0.950 . S
H1171 C1183 0.950 . S
H1172 C1180 0.950 . S
H1173 C1182 0.950 . S
H1174 C1184 0.950 . S
H1175 C1186 0.950 . S
H1176 C1188 0.950 . S
H1177 C1189 0.950 . S
C1178 H1170 0.950 . S
C1178 C1179 1.386 . S
C1178 C1180 1.391 . S
C1179 C1178 1.386 . S
C1179 C1183 1.393 . S
C1180 H1172 0.950 . S
C1180 C1178 1.391 . S
C1180 C1181 1.400 . S
C1181 C1180 1.400 . S
C1181 C1182 1.398 . S
C1181 C1187 1.491 . S
C1182 H1173 0.950 . S
C1182 C1181 1.398 . S
C1182 C1183 1.391 . S
C1183 H1171 0.950 . S
C1183 C1179 1.393 . S
C1183 C1182 1.391 . S
C1184 H1174 0.950 . S
C1184 C1185 1.386 . S
C1184 C1186 1.391 . S
C1185 C1184 1.386 . S
C1185 C1189 1.393 . S
C1186 H1175 0.950 . S
C1186 C1184 1.391 . S
C1186 C1187 1.400 . S
C1187 C1181 1.491 . S
C1187 C1186 1.400 . S
C1187 C1188 1.398 . S
C1188 H1176 0.950 . S
C1188 C1187 1.398 . S
C1188 C1189 1.391 . S
C1189 H1177 0.950 . S
C1189 C1185 1.393 . S
C1189 C1188 1.391 . S
H1190 C1198 0.950 . S
H1191 C1203 0.950 . S
H1192 C1200 0.950 . S
H1193 C1202 0.950 . S
H1194 C1204 0.950 . S
H1195 C1206 0.950 . S
H1196 C1208 0.950 . S
H1197 C1209 0.950 . S
C1198 H1190 0.950 . S
C1198 C1199 1.386 . S
C1198 C1200 1.391 . S
C1199 C1198 1.386 . S
C1199 C1203 1.393 . S
C1200 H1192 0.950 . S
C1200 C1198 1.391 . S
C1200 C1201 1.400 . S
C1201 C1200 1.400 . S
C1201 C1202 1.398 . S
C1201 C1207 1.491 . S
C1202 H1193 0.950 . S
C1202 C1201 1.398 . S
C1202 C1203 1.391 . S
C1203 H1191 0.950 . S
C1203 C1199 1.393 . S
C1203 C1202 1.391 . S
C1204 H1194 0.950 . S
C1204 C1205 1.386 . S
C1204 C1206 1.391 . S
C1205 C1204 1.386 . S
C1205 C1209 1.393 . S
C1206 H1195 0.950 . S
C1206 C1204 1.391 . S
C1206 C1207 1.400 . S
C1207 C1201 1.491 . S
C1207 C1206 1.400 . S
C1207 C1208 1.398 . S
C1208 H1196 0.950 . S
C1208 C1207 1.398 . S
C1208 C1209 1.391 . S
C1209 H1197 0.950 . S
C1209 C1205 1.393 . S
C1209 C1208 1.391 . S
H1210 C1218 0.950 . S
H1211 C1223 0.950 . S
H1212 C1220 0.950 . S
H1213 C1222 0.950 . S
H1214 C1224 0.950 . S
H1215 C1226 0.950 . S
H1216 C1228 0.950 . S
H1217 C1229 0.949 1_554 S
C1218 H1210 0.950 . S
C1218 C1219 1.386 . S
C1218 C1220 1.391 . S
C1219 C1218 1.386 . S
C1219 C1223 1.393 . S
C1220 H1212 0.950 . S
C1220 C1218 1.391 . S
C1220 C1221 1.400 . S
C1221 C1220 1.400 . S
C1221 C1222 1.398 . S
C1221 C1227 1.491 . S
C1222 H1213 0.950 . S
C1222 C1221 1.398 . S
C1222 C1223 1.391 . S
C1223 H1211 0.950 . S
C1223 C1219 1.393 . S
C1223 C1222 1.391 . S
C1224 H1214 0.950 . S
C1224 C1225 1.386 . S
C1224 C1226 1.391 . S
C1225 C1224 1.386 . S
C1225 C1229 1.393 . S
C1226 H1215 0.950 . S
C1226 C1224 1.391 . S
C1226 C1227 1.400 . S
C1227 C1221 1.491 . S
C1227 C1226 1.400 . S
C1227 C1228 1.398 . S
C1228 H1216 0.950 . S
C1228 C1227 1.398 . S
C1228 C1229 1.391 . S
C1229 H1217 0.949 1_556 S
C1229 C1225 1.393 . S
C1229 C1228 1.391 . S
H1230 C1238 0.950 . S
H1231 C1243 0.950 . S
H1232 C1240 0.950 . S
H1233 C1242 0.950 . S
H1234 C1244 0.950 . S
H1235 C1246 0.950 . S
H1236 C1248 0.950 . S
H1237 C1249 0.950 . S
C1238 H1230 0.950 . S
C1238 C1239 1.386 . S
C1238 C1240 1.391 . S
C1239 C1238 1.386 . S
C1239 C1243 1.393 . S
C1240 H1232 0.950 . S
C1240 C1238 1.391 . S
C1240 C1241 1.400 . S
C1241 C1240 1.400 . S
C1241 C1242 1.398 . S
C1241 C1247 1.491 . S
C1242 H1233 0.950 . S
C1242 C1241 1.398 . S
C1242 C1243 1.391 . S
C1243 H1231 0.950 . S
C1243 C1239 1.393 . S
C1243 C1242 1.391 . S
C1244 H1234 0.950 . S
C1244 C1245 1.386 . S
C1244 C1246 1.391 . S
C1245 C1244 1.386 . S
C1245 C1249 1.393 . S
C1246 H1235 0.950 . S
C1246 C1244 1.391 . S
C1246 C1247 1.400 . S
C1247 C1241 1.491 . S
C1247 C1246 1.400 . S
C1247 C1248 1.398 . S
C1248 H1236 0.950 . S
C1248 C1247 1.398 . S
C1248 C1249 1.391 . S
C1249 H1237 0.950 . S
C1249 C1245 1.393 . S
C1249 C1248 1.391 . S
H1250 C1258 0.950 . S
H1251 C1263 0.950 . S
H1252 C1260 0.950 . S
H1253 C1262 0.950 . S
H1254 C1264 0.950 . S
H1255 C1266 0.950 1_554 S
H1256 C1268 0.950 . S
H1257 C1269 0.950 . S
C1258 H1250 0.950 . S
C1258 C1259 1.386 . S
C1258 C1260 1.391 . S
C1259 C1258 1.386 . S
C1259 C1263 1.393 . S
C1260 H1252 0.950 . S
C1260 C1258 1.391 . S
C1260 C1261 1.400 . S
C1261 C1260 1.400 . S
C1261 C1262 1.398 . S
C1261 C1267 1.491 . S
C1262 H1253 0.950 . S
C1262 C1261 1.398 . S
C1262 C1263 1.391 . S
C1263 H1251 0.950 . S
C1263 C1259 1.393 . S
C1263 C1262 1.391 . S
C1264 H1254 0.950 . S
C1264 C1265 1.386 1_554 S
C1264 C1266 1.391 1_554 S
C1265 C1264 1.386 1_556 S
C1265 C1269 1.393 . S
C1266 H1255 0.950 1_556 S
C1266 C1264 1.391 1_556 S
C1266 C1267 1.400 . S
C1267 C1261 1.491 . S
C1267 C1266 1.400 . S
C1267 C1268 1.398 . S
C1268 H1256 0.950 . S
C1268 C1267 1.398 . S
C1268 C1269 1.391 . S
C1269 H1257 0.950 . S
C1269 C1265 1.393 . S
C1269 C1268 1.391 . S
H1270 C1278 0.950 . S
H1271 C1283 0.950 . S
H1272 C1280 0.950 . S
H1273 C1282 0.950 . S
H1274 C1284 0.950 . S
H1275 C1286 0.950 . S
H1276 C1288 0.950 . S
H1277 C1289 0.950 . S
C1278 H1270 0.950 . S
C1278 C1279 1.386 . S
C1278 C1280 1.391 . S
C1279 C1278 1.386 . S
C1279 C1283 1.393 . S
C1280 H1272 0.950 . S
C1280 C1278 1.391 . S
C1280 C1281 1.400 . S
C1281 C1280 1.400 . S
C1281 C1282 1.398 . S
C1281 C1287 1.491 . S
C1282 H1273 0.950 . S
C1282 C1281 1.398 . S
C1282 C1283 1.391 . S
C1283 H1271 0.950 . S
C1283 C1279 1.393 . S
C1283 C1282 1.391 . S
C1284 H1274 0.950 . S
C1284 C1285 1.386 . S
C1284 C1286 1.391 . S
C1285 C1284 1.386 . S
C1285 C1289 1.393 . S
C1286 H1275 0.950 . S
C1286 C1284 1.391 . S
C1286 C1287 1.400 . S
C1287 C1281 1.491 . S
C1287 C1286 1.400 . S
C1287 C1288 1.398 . S
C1288 H1276 0.950 . S
C1288 C1287 1.398 . S
C1288 C1289 1.391 . S
C1289 H1277 0.950 . S
C1289 C1285 1.393 . S
C1289 C1288 1.391 . S
H1290 C1298 0.950 . S
H1291 C1303 0.950 . S
H1292 C1300 0.950 . S
H1293 C1302 0.950 . S
H1294 C1304 0.950 . S
H1295 C1306 0.950 . S
H1296 C1308 0.950 . S
H1297 C1309 0.950 . S
C1298 H1290 0.950 . S
C1298 C1299 1.386 . S
C1298 C1300 1.391 . S
C1299 C1298 1.386 . S
C1299 C1303 1.393 . S
C1300 H1292 0.950 . S
C1300 C1298 1.391 . S
C1300 C1301 1.400 . S
C1301 C1300 1.400 . S
C1301 C1302 1.398 . S
C1301 C1307 1.491 . S
C1302 H1293 0.950 . S
C1302 C1301 1.398 . S
C1302 C1303 1.391 . S
C1303 H1291 0.950 . S
C1303 C1299 1.393 . S
C1303 C1302 1.391 . S
C1304 H1294 0.950 . S
C1304 C1305 1.386 . S
C1304 C1306 1.391 . S
C1305 C1304 1.386 . S
C1305 C1309 1.393 . S
C1306 H1295 0.950 . S
C1306 C1304 1.391 . S
C1306 C1307 1.400 . S
C1307 C1301 1.491 . S
C1307 C1306 1.400 . S
C1307 C1308 1.398 . S
C1308 H1296 0.950 . S
C1308 C1307 1.398 . S
C1308 C1309 1.391 . S
C1309 H1297 0.950 . S
C1309 C1305 1.393 . S
C1309 C1308 1.391 . S
H1310 C1318 0.950 . S
H1311 C1323 0.950 . S
H1312 C1320 0.950 . S
H1313 C1322 0.950 . S
H1314 C1324 0.950 . S
H1315 C1326 0.950 . S
H1316 C1328 0.950 . S
H1317 C1329 0.950 . S
C1318 H1310 0.950 . S
C1318 C1319 1.386 . S
C1318 C1320 1.391 . S
C1319 C1318 1.386 . S
C1319 C1323 1.393 . S
C1320 H1312 0.950 . S
C1320 C1318 1.391 . S
C1320 C1321 1.400 . S
C1321 C1320 1.400 . S
C1321 C1322 1.398 . S
C1321 C1327 1.491 . S
C1322 H1313 0.950 . S
C1322 C1321 1.398 . S
C1322 C1323 1.391 . S
C1323 H1311 0.950 . S
C1323 C1319 1.393 . S
C1323 C1322 1.391 . S
C1324 H1314 0.950 . S
C1324 C1325 1.386 . S
C1324 C1326 1.391 . S
C1325 C1324 1.386 . S
C1325 C1329 1.393 . S
C1326 H1315 0.950 . S
C1326 C1324 1.391 . S
C1326 C1327 1.400 . S
C1327 C1321 1.491 . S
C1327 C1326 1.400 . S
C1327 C1328 1.398 . S
C1328 H1316 0.950 . S
C1328 C1327 1.398 . S
C1328 C1329 1.391 . S
C1329 H1317 0.950 . S
C1329 C1325 1.393 . S
C1329 C1328 1.391 . S
H1330 C1338 0.950 . S
H1331 C1343 0.950 . S
H1332 C1340 0.950 . S
H1333 C1342 0.950 . S
H1334 C1344 0.950 . S
H1335 C1346 0.950 . S
H1336 C1348 0.950 . S
H1337 C1349 0.950 . S
C1338 H1330 0.950 . S
C1338 C1339 1.386 . S
C1338 C1340 1.391 . S
C1339 C1338 1.386 . S
C1339 C1343 1.393 . S
C1340 H1332 0.950 . S
C1340 C1338 1.391 . S
C1340 C1341 1.400 . S
C1341 C1340 1.400 . S
C1341 C1342 1.398 . S
C1341 C1347 1.491 . S
C1342 H1333 0.950 . S
C1342 C1341 1.398 . S
C1342 C1343 1.391 . S
C1343 H1331 0.950 . S
C1343 C1339 1.393 . S
C1343 C1342 1.391 . S
C1344 H1334 0.950 . S
C1344 C1345 1.386 . S
C1344 C1346 1.391 . S
C1345 C1344 1.386 . S
C1345 C1349 1.393 . S
C1346 H1335 0.950 . S
C1346 C1344 1.391 . S
C1346 C1347 1.400 . S
C1347 C1341 1.491 . S
C1347 C1346 1.400 . S
C1347 C1348 1.398 . S
C1348 H1336 0.950 . S
C1348 C1347 1.398 . S
C1348 C1349 1.391 . S
C1349 H1337 0.950 . S
C1349 C1345 1.393 . S
C1349 C1348 1.391 . S
H1350 C1358 0.950 . S
H1351 C1363 0.950 . S
H1352 C1360 0.950 . S
H1353 C1362 0.950 . S
H1354 C1364 0.950 1_554 S
H1355 C1366 0.950 . S
H1356 C1368 0.950 . S
H1357 C1369 0.950 . S
C1358 H1350 0.950 . S
C1358 C1359 1.386 . S
C1358 C1360 1.391 . S
C1359 C1358 1.386 . S
C1359 C1363 1.393 . S
C1360 H1352 0.950 . S
C1360 C1358 1.391 . S
C1360 C1361 1.400 . S
C1361 C1360 1.400 . S
C1361 C1362 1.398 . S
C1361 C1367 1.491 . S
C1362 H1353 0.950 . S
C1362 C1361 1.398 . S
C1362 C1363 1.391 . S
C1363 H1351 0.950 . S
C1363 C1359 1.393 . S
C1363 C1362 1.391 . S
C1364 H1354 0.950 1_556 S
C1364 C1365 1.386 . S
C1364 C1366 1.391 . S
C1365 C1364 1.386 . S
C1365 C1369 1.393 . S
C1366 H1355 0.950 . S
C1366 C1364 1.391 . S
C1366 C1367 1.400 . S
C1367 C1361 1.491 . S
C1367 C1366 1.400 . S
C1367 C1368 1.398 . S
C1368 H1356 0.950 . S
C1368 C1367 1.398 . S
C1368 C1369 1.391 . S
C1369 H1357 0.950 . S
C1369 C1365 1.393 . S
C1369 C1368 1.391 . S
H1370 C1378 0.950 . S
H1371 C1383 0.950 . S
H1372 C1380 0.950 . S
H1373 C1382 0.950 . S
H1374 C1384 0.961 . S
H1375 C1386 0.950 . S
H1376 C1388 0.950 . S
H1377 C1389 0.950 . S
C1378 H1370 0.950 . S
C1378 C1379 1.386 . S
C1378 C1380 1.391 . S
C1379 C1378 1.386 . S
C1379 C1383 1.393 . S
C1380 H1372 0.950 . S
C1380 C1378 1.391 . S
C1380 C1381 1.400 . S
C1381 C1380 1.400 . S
C1381 C1382 1.398 . S
C1381 C1387 1.491 . S
C1382 H1373 0.950 . S
C1382 C1381 1.398 . S
C1382 C1383 1.391 . S
C1383 H1371 0.950 . S
C1383 C1379 1.393 . S
C1383 C1382 1.391 . S
C1384 H1374 0.961 . S
C1384 C1385 1.378 1_554 S
C1384 C1386 1.387 1_554 S
C1385 C1384 1.378 1_556 S
C1385 C1389 1.393 . S
C1386 H1375 0.950 . S
C1386 C1384 1.387 1_556 S
C1386 C1387 1.400 . S
C1387 C1381 1.491 . S
C1387 C1386 1.400 . S
C1387 C1388 1.398 . S
C1388 H1376 0.950 . S
C1388 C1387 1.398 . S
C1388 C1389 1.391 . S
C1389 H1377 0.950 . S
C1389 C1385 1.393 . S
C1389 C1388 1.391 . S
H1390 C1398 0.950 . S
H1391 C1403 0.950 . S
H1392 C1400 0.950 . S
H1393 C1402 0.950 . S
H1394 C1404 0.950 . S
H1395 C1406 0.950 . S
H1396 C1408 0.950 . S
H1397 C1409 0.950 . S
C1398 H1390 0.950 . S
C1398 C1399 1.386 . S
C1398 C1400 1.391 . S
C1399 C1398 1.386 . S
C1399 C1403 1.393 . S
C1400 H1392 0.950 . S
C1400 C1398 1.391 . S
C1400 C1401 1.400 . S
C1401 C1400 1.400 . S
C1401 C1402 1.398 . S
C1401 C1407 1.491 . S
C1402 H1393 0.950 . S
C1402 C1401 1.398 . S
C1402 C1403 1.391 . S
C1403 H1391 0.950 . S
C1403 C1399 1.393 . S
C1403 C1402 1.391 . S
C1404 H1394 0.950 . S
C1404 C1405 1.386 . S
C1404 C1406 1.391 . S
C1405 C1404 1.386 . S
C1405 C1409 1.393 . S
C1406 H1395 0.950 . S
C1406 C1404 1.391 . S
C1406 C1407 1.400 . S
C1407 C1401 1.491 . S
C1407 C1406 1.400 . S
C1407 C1408 1.398 . S
C1408 H1396 0.950 . S
C1408 C1407 1.398 . S
C1408 C1409 1.391 . S
C1409 H1397 0.950 . S
C1409 C1405 1.393 . S
C1409 C1408 1.391 . S
H1410 C1418 0.950 . S
H1411 C1423 0.950 . S
H1412 C1420 0.950 . S
H1413 C1422 0.950 . S
H1414 C1424 0.950 . S
H1415 C1426 0.950 . S
H1416 C1428 0.950 . S
H1417 C1429 0.950 . S
C1418 H1410 0.950 . S
C1418 C1419 1.386 . S
C1418 C1420 1.391 . S
C1419 C1418 1.386 . S
C1419 C1423 1.393 . S
C1420 H1412 0.950 . S
C1420 C1418 1.391 . S
C1420 C1421 1.400 . S
C1421 C1420 1.400 . S
C1421 C1422 1.398 . S
C1421 C1427 1.491 . S
C1422 H1413 0.950 . S
C1422 C1421 1.398 . S
C1422 C1423 1.391 . S
C1423 H1411 0.950 . S
C1423 C1419 1.393 . S
C1423 C1422 1.391 . S
C1424 H1414 0.950 . S
C1424 C1425 1.386 . S
C1424 C1426 1.391 . S
C1425 C1424 1.386 . S
C1425 C1429 1.393 . S
C1426 H1415 0.950 . S
C1426 C1424 1.391 . S
C1426 C1427 1.400 . S
C1427 C1421 1.491 . S
C1427 C1426 1.400 . S
C1427 C1428 1.398 . S
C1428 H1416 0.950 . S
C1428 C1427 1.398 . S
C1428 C1429 1.391 . S
C1429 H1417 0.950 . S
C1429 C1425 1.393 . S
C1429 C1428 1.391 . S
H1430 C1438 0.950 . S
H1431 C1443 0.950 . S
H1432 C1440 0.950 . S
H1433 C1442 0.950 . S
H1434 C1444 0.950 . S
H1435 C1446 0.950 . S
H1436 C1448 0.950 . S
H1437 C1449 0.950 . S
C1438 H1430 0.950 . S
C1438 C1439 1.386 . S
C1438 C1440 1.391 . S
C1439 C1438 1.386 . S
C1439 C1443 1.393 . S
C1440 H1432 0.950 . S
C1440 C1438 1.391 . S
C1440 C1441 1.400 . S
C1441 C1440 1.400 . S
C1441 C1442 1.398 . S
C1441 C1447 1.491 . S
C1442 H1433 0.950 . S
C1442 C1441 1.398 . S
C1442 C1443 1.391 . S
C1443 H1431 0.950 . S
C1443 C1439 1.393 . S
C1443 C1442 1.391 . S
C1444 H1434 0.950 . S
C1444 C1445 1.386 . S
C1444 C1446 1.391 . S
C1445 C1444 1.386 . S
C1445 C1449 1.393 . S
C1446 H1435 0.950 . S
C1446 C1444 1.391 . S
C1446 C1447 1.400 . S
C1447 C1441 1.491 . S
C1447 C1446 1.400 . S
C1447 C1448 1.398 . S
C1448 H1436 0.950 . S
C1448 C1447 1.398 . S
C1448 C1449 1.391 . S
C1449 H1437 0.950 . S
C1449 C1445 1.393 . S
C1449 C1448 1.391 . S
H1450 C1458 0.950 . S
H1451 C1463 0.950 . S
H1452 C1460 0.950 . S
H1453 C1462 0.950 . S
H1454 C1464 0.950 . S
H1455 C1466 0.950 . S
H1456 C1468 0.950 . S
H1457 C1469 0.950 . S
C1458 H1450 0.950 . S
C1458 C1459 1.386 . S
C1458 C1460 1.391 . S
C1459 C1458 1.386 . S
C1459 C1463 1.393 . S
C1460 H1452 0.950 . S
C1460 C1458 1.391 . S
C1460 C1461 1.400 . S
C1461 C1460 1.400 . S
C1461 C1462 1.398 . S
C1461 C1467 1.491 . S
C1462 H1453 0.950 . S
C1462 C1461 1.398 . S
C1462 C1463 1.391 . S
C1463 H1451 0.950 . S
C1463 C1459 1.393 . S
C1463 C1462 1.391 . S
C1464 H1454 0.950 . S
C1464 C1465 1.386 . S
C1464 C1466 1.391 . S
C1465 C1464 1.386 . S
C1465 C1469 1.393 . S
C1466 H1455 0.950 . S
C1466 C1464 1.391 . S
C1466 C1467 1.400 . S
C1467 C1461 1.491 . S
C1467 C1466 1.400 . S
C1467 C1468 1.398 . S
C1468 H1456 0.950 . S
C1468 C1467 1.398 . S
C1468 C1469 1.391 . S
C1469 H1457 0.950 . S
C1469 C1465 1.393 . S
C1469 C1468 1.391 . S
H1470 C1478 0.950 . S
H1471 C1483 0.950 . S
H1472 C1480 0.950 . S
H1473 C1482 0.950 . S
H1474 C1484 0.950 . S
H1475 C1486 0.950 . S
H1476 C1488 0.950 . S
H1477 C1489 0.950 . S
C1478 H1470 0.950 . S
C1478 C1479 1.386 . S
C1478 C1480 1.391 . S
C1479 C1478 1.386 . S
C1479 C1483 1.393 . S
C1480 H1472 0.950 . S
C1480 C1478 1.391 . S
C1480 C1481 1.400 . S
C1481 C1480 1.400 . S
C1481 C1482 1.398 . S
C1481 C1487 1.491 . S
C1482 H1473 0.950 . S
C1482 C1481 1.398 . S
C1482 C1483 1.391 . S
C1483 H1471 0.950 . S
C1483 C1479 1.393 . S
C1483 C1482 1.391 . S
C1484 H1474 0.950 . S
C1484 C1485 1.386 . S
C1484 C1486 1.391 . S
C1485 C1484 1.386 . S
C1485 C1489 1.393 . S
C1486 H1475 0.950 . S
C1486 C1484 1.391 . S
C1486 C1487 1.400 . S
C1487 C1481 1.491 . S
C1487 C1486 1.400 . S
C1487 C1488 1.398 . S
C1488 H1476 0.950 . S
C1488 C1487 1.398 . S
C1488 C1489 1.391 . S
C1489 H1477 0.950 . S
C1489 C1485 1.393 . S
C1489 C1488 1.391 . S
H1490 C1498 0.950 . S
H1491 C1503 0.950 . S
H1492 C1500 0.950 . S
H1493 C1502 0.950 . S
H1494 C1504 0.950 . S
H1495 C1506 0.950 . S
H1496 C1508 0.950 . S
H1497 C1509 0.950 . S
C1498 H1490 0.950 . S
C1498 C1499 1.386 . S
C1498 C1500 1.391 . S
C1499 C1498 1.386 . S
C1499 C1503 1.393 . S
C1500 H1492 0.950 . S
C1500 C1498 1.391 . S
C1500 C1501 1.400 . S
C1501 C1500 1.400 . S
C1501 C1502 1.398 . S
C1501 C1507 1.491 . S
C1502 H1493 0.950 . S
C1502 C1501 1.398 . S
C1502 C1503 1.391 . S
C1503 H1491 0.950 . S
C1503 C1499 1.393 . S
C1503 C1502 1.391 . S
C1504 H1494 0.950 . S
C1504 C1505 1.386 . S
C1504 C1506 1.391 . S
C1505 C1504 1.386 . S
C1505 C1509 1.393 . S
C1506 H1495 0.950 . S
C1506 C1504 1.391 . S
C1506 C1507 1.400 . S
C1507 C1501 1.491 . S
C1507 C1506 1.400 . S
C1507 C1508 1.398 . S
C1508 H1496 0.950 . S
C1508 C1507 1.398 . S
C1508 C1509 1.391 . S
C1509 H1497 0.950 . S
C1509 C1505 1.393 . S
C1509 C1508 1.391 . S
H1510 C1518 0.950 . S
H1511 C1523 0.950 . S
H1512 C1520 0.950 . S
H1513 C1522 0.950 . S
H1514 C1524 0.950 . S
H1515 C1526 0.950 . S
H1516 C1528 0.950 . S
H1517 C1529 0.950 . S
C1518 H1510 0.950 . S
C1518 C1519 1.386 . S
C1518 C1520 1.391 . S
C1519 C1518 1.386 . S
C1519 C1523 1.393 . S
C1520 H1512 0.950 . S
C1520 C1518 1.391 . S
C1520 C1521 1.400 . S
C1521 C1520 1.400 . S
C1521 C1522 1.398 . S
C1521 C1527 1.491 . S
C1522 H1513 0.950 . S
C1522 C1521 1.398 . S
C1522 C1523 1.391 . S
C1523 H1511 0.950 . S
C1523 C1519 1.393 . S
C1523 C1522 1.391 . S
C1524 H1514 0.950 . S
C1524 C1525 1.386 . S
C1524 C1526 1.391 . S
C1525 C1524 1.386 . S
C1525 C1529 1.393 . S
C1526 H1515 0.950 . S
C1526 C1524 1.391 . S
C1526 C1527 1.400 . S
C1527 C1521 1.491 . S
C1527 C1526 1.400 . S
C1527 C1528 1.398 . S
C1528 H1516 0.950 . S
C1528 C1527 1.398 . S
C1528 C1529 1.391 . S
C1529 H1517 0.950 . S
C1529 C1525 1.393 . S
C1529 C1528 1.391 . S
H1530 C1538 0.950 . S
H1531 C1543 0.950 . S
H1532 C1540 0.950 . S
H1533 C1542 0.950 . S
H1534 C1544 0.950 . S
H1535 C1546 0.950 . S
H1536 C1548 0.950 . S
H1537 C1549 0.950 . S
C1538 H1530 0.950 . S
C1538 C1539 1.386 . S
C1538 C1540 1.391 . S
C1539 C1538 1.386 . S
C1539 C1543 1.393 . S
C1540 H1532 0.950 . S
C1540 C1538 1.391 . S
C1540 C1541 1.400 . S
C1541 C1540 1.400 . S
C1541 C1542 1.398 . S
C1541 C1547 1.491 . S
C1542 H1533 0.950 . S
C1542 C1541 1.398 . S
C1542 C1543 1.391 . S
C1543 H1531 0.950 . S
C1543 C1539 1.393 . S
C1543 C1542 1.391 . S
C1544 H1534 0.950 . S
C1544 C1545 1.386 . S
C1544 C1546 1.391 . S
C1545 C1544 1.386 . S
C1545 C1549 1.393 . S
C1546 H1535 0.950 . S
C1546 C1544 1.391 . S
C1546 C1547 1.400 . S
C1547 C1541 1.491 . S
C1547 C1546 1.400 . S
C1547 C1548 1.398 . S
C1548 H1536 0.950 . S
C1548 C1547 1.398 . S
C1548 C1549 1.391 . S
C1549 H1537 0.950 . S
C1549 C1545 1.393 . S
C1549 C1548 1.391 . S
H1550 C1558 0.950 . S
H1551 C1563 0.950 . S
H1552 C1560 0.950 . S
H1553 C1562 0.950 . S
H1554 C1564 0.950 . S
H1555 C1566 0.950 . S
H1556 C1568 0.950 . S
H1557 C1569 0.950 . S
C1558 H1550 0.950 . S
C1558 C1559 1.386 . S
C1558 C1560 1.391 . S
C1559 C1558 1.386 . S
C1559 C1563 1.393 . S
C1560 H1552 0.950 . S
C1560 C1558 1.391 . S
C1560 C1561 1.400 . S
C1561 C1560 1.400 . S
C1561 C1562 1.398 . S
C1561 C1567 1.491 . S
C1562 H1553 0.950 . S
C1562 C1561 1.398 . S
C1562 C1563 1.391 . S
C1563 H1551 0.950 . S
C1563 C1559 1.393 . S
C1563 C1562 1.391 . S
C1564 H1554 0.950 . S
C1564 C1565 1.386 . S
C1564 C1566 1.391 . S
C1565 C1564 1.386 . S
C1565 C1569 1.393 . S
C1566 H1555 0.950 . S
C1566 C1564 1.391 . S
C1566 C1567 1.400 . S
C1567 C1561 1.491 . S
C1567 C1566 1.400 . S
C1567 C1568 1.398 . S
C1568 H1556 0.950 . S
C1568 C1567 1.398 . S
C1568 C1569 1.391 . S
C1569 H1557 0.950 . S
C1569 C1565 1.393 . S
C1569 C1568 1.391 . S
H1570 C1578 0.950 . S
H1571 C1583 0.950 . S
H1572 C1580 0.950 . S
H1573 C1582 0.950 . S
H1574 C1584 0.950 . S
H1575 C1586 0.950 . S
H1576 C1588 0.950 . S
H1577 C1589 0.950 . S
C1578 H1570 0.950 . S
C1578 C1579 1.386 . S
C1578 C1580 1.391 . S
C1579 C1578 1.386 . S
C1579 C1583 1.393 . S
C1580 H1572 0.950 . S
C1580 C1578 1.391 . S
C1580 C1581 1.400 . S
C1581 C1580 1.400 . S
C1581 C1582 1.398 . S
C1581 C1587 1.491 . S
C1582 H1573 0.950 . S
C1582 C1581 1.398 . S
C1582 C1583 1.391 . S
C1583 H1571 0.950 . S
C1583 C1579 1.393 . S
C1583 C1582 1.391 . S
C1584 H1574 0.950 . S
C1584 C1585 1.386 . S
C1584 C1586 1.391 . S
C1585 C1584 1.386 . S
C1585 C1589 1.393 . S
C1586 H1575 0.950 . S
C1586 C1584 1.391 . S
C1586 C1587 1.400 . S
C1587 C1581 1.491 . S
C1587 C1586 1.400 . S
C1587 C1588 1.398 . S
C1588 H1576 0.950 . S
C1588 C1587 1.398 . S
C1588 C1589 1.391 . S
C1589 H1577 0.950 . S
C1589 C1585 1.393 . S
C1589 C1588 1.391 . S
H1590 C1598 0.950 . S
H1591 C1603 0.950 . S
H1592 C1600 0.950 . S
H1593 C1602 0.950 . S
H1594 C1604 0.950 . S
H1595 C1606 0.950 . S
H1596 C1608 0.950 . S
H1597 C1609 0.950 . S
C1598 H1590 0.950 . S
C1598 C1599 1.386 . S
C1598 C1600 1.391 . S
C1599 C1598 1.386 . S
C1599 C1603 1.393 . S
C1600 H1592 0.950 . S
C1600 C1598 1.391 . S
C1600 C1601 1.400 . S
C1601 C1600 1.400 . S
C1601 C1602 1.398 . S
C1601 C1607 1.491 . S
C1602 H1593 0.950 . S
C1602 C1601 1.398 . S
C1602 C1603 1.391 . S
C1603 H1591 0.950 . S
C1603 C1599 1.393 . S
C1603 C1602 1.391 . S
C1604 H1594 0.950 . S
C1604 C1605 1.386 . S
C1604 C1606 1.391 . S
C1605 C1604 1.386 . S
C1605 C1609 1.393 . S
C1606 H1595 0.950 . S
C1606 C1604 1.391 . S
C1606 C1607 1.400 . S
C1607 C1601 1.491 . S
C1607 C1606 1.400 . S
C1607 C1608 1.398 . S
C1608 H1596 0.950 . S
C1608 C1607 1.398 . S
C1608 C1609 1.391 . S
C1609 H1597 0.950 . S
C1609 C1605 1.393 . S
C1609 C1608 1.391 . S
H1610 C1618 0.950 . S
H1611 C1623 0.950 . S
H1612 C1620 0.950 . S
H1613 C1622 0.950 . S
H1614 C1624 0.950 . S
H1615 C1626 0.950 . S
H1616 C1628 0.950 . S
H1617 C1629 0.950 . S
C1618 H1610 0.950 . S
C1618 C1619 1.386 . S
C1618 C1620 1.391 . S
C1619 C1618 1.386 . S
C1619 C1623 1.393 . S
C1620 H1612 0.950 . S
C1620 C1618 1.391 . S
C1620 C1621 1.400 . S
C1621 C1620 1.400 . S
C1621 C1622 1.398 . S
C1621 C1627 1.491 . S
C1622 H1613 0.950 . S
C1622 C1621 1.398 . S
C1622 C1623 1.391 . S
C1623 H1611 0.950 . S
C1623 C1619 1.393 . S
C1623 C1622 1.391 . S
C1624 H1614 0.950 . S
C1624 C1625 1.386 . S
C1624 C1626 1.391 . S
C1625 C1624 1.386 . S
C1625 C1629 1.393 . S
C1626 H1615 0.950 . S
C1626 C1624 1.391 . S
C1626 C1627 1.400 . S
C1627 C1621 1.491 . S
C1627 C1626 1.400 . S
C1627 C1628 1.398 . S
C1628 H1616 0.950 . S
C1628 C1627 1.398 . S
C1628 C1629 1.391 . S
C1629 H1617 0.950 . S
C1629 C1625 1.393 . S
C1629 C1628 1.391 . S
H1630 C1638 0.950 . S
H1631 C1643 0.950 . S
H1632 C1640 0.950 . S
H1633 C1642 0.950 . S
H1634 C1644 0.950 . S
H1635 C1646 0.950 . S
H1636 C1648 0.950 . S
H1637 C1649 0.950 . S
C1638 H1630 0.950 . S
C1638 C1639 1.386 . S
C1638 C1640 1.391 . S
C1639 C1638 1.386 . S
C1639 C1643 1.393 . S
C1640 H1632 0.950 . S
C1640 C1638 1.391 . S
C1640 C1641 1.400 . S
C1641 C1640 1.400 . S
C1641 C1642 1.398 . S
C1641 C1647 1.491 . S
C1642 H1633 0.950 . S
C1642 C1641 1.398 . S
C1642 C1643 1.391 . S
C1643 H1631 0.950 . S
C1643 C1639 1.393 . S
C1643 C1642 1.391 . S
C1644 H1634 0.950 . S
C1644 C1645 1.386 . S
C1644 C1646 1.391 . S
C1645 C1644 1.386 . S
C1645 C1649 1.393 . S
C1646 H1635 0.950 . S
C1646 C1644 1.391 . S
C1646 C1647 1.400 . S
C1647 C1641 1.491 . S
C1647 C1646 1.400 . S
C1647 C1648 1.398 . S
C1648 H1636 0.950 . S
C1648 C1647 1.398 . S
C1648 C1649 1.391 . S
C1649 H1637 0.950 . S
C1649 C1645 1.393 . S
C1649 C1648 1.391 . S
H1650 C1658 0.950 . S
H1651 C1663 0.950 . S
H1652 C1660 0.950 . S
H1653 C1662 0.950 . S
H1654 C1664 0.950 . S
H1655 C1666 0.950 . S
H1656 C1668 0.950 . S
H1657 C1669 0.950 . S
C1658 H1650 0.950 . S
C1658 C1659 1.386 . S
C1658 C1660 1.391 . S
C1659 C1658 1.386 . S
C1659 C1663 1.393 . S
C1660 H1652 0.950 . S
C1660 C1658 1.391 . S
C1660 C1661 1.400 . S
C1661 C1660 1.400 . S
C1661 C1662 1.398 . S
C1661 C1667 1.491 . S
C1662 H1653 0.950 . S
C1662 C1661 1.398 . S
C1662 C1663 1.391 . S
C1663 H1651 0.950 . S
C1663 C1659 1.393 . S
C1663 C1662 1.391 . S
C1664 H1654 0.950 . S
C1664 C1665 1.386 . S
C1664 C1666 1.391 . S
C1665 C1664 1.386 . S
C1665 C1669 1.393 . S
C1666 H1655 0.950 . S
C1666 C1664 1.391 . S
C1666 C1667 1.400 . S
C1667 C1661 1.491 . S
C1667 C1666 1.400 . S
C1667 C1668 1.398 . S
C1668 H1656 0.950 . S
C1668 C1667 1.398 . S
C1668 C1669 1.391 . S
C1669 H1657 0.950 . S
C1669 C1665 1.393 . S
C1669 C1668 1.391 . S
H1670 C1678 0.950 . S
H1671 C1683 0.950 . S
H1672 C1680 0.950 . S
H1673 C1682 0.950 . S
H1674 C1684 0.950 . S
H1675 C1686 0.950 . S
H1676 C1688 0.950 . S
H1677 C1689 0.950 . S
C1678 H1670 0.950 . S
C1678 C1679 1.386 . S
C1678 C1680 1.391 . S
C1679 C1678 1.386 . S
C1679 C1683 1.393 . S
C1680 H1672 0.950 . S
C1680 C1678 1.391 . S
C1680 C1681 1.400 . S
C1681 C1680 1.400 . S
C1681 C1682 1.398 . S
C1681 C1687 1.491 . S
C1682 H1673 0.950 . S
C1682 C1681 1.398 . S
C1682 C1683 1.391 . S
C1683 H1671 0.950 . S
C1683 C1679 1.393 . S
C1683 C1682 1.391 . S
C1684 H1674 0.950 . S
C1684 C1685 1.386 . S
C1684 C1686 1.391 . S
C1685 C1684 1.386 . S
C1685 C1689 1.393 . S
C1686 H1675 0.950 . S
C1686 C1684 1.391 . S
C1686 C1687 1.400 . S
C1687 C1681 1.491 . S
C1687 C1686 1.400 . S
C1687 C1688 1.398 . S
C1688 H1676 0.950 . S
C1688 C1687 1.398 . S
C1688 C1689 1.391 . S
C1689 H1677 0.950 . S
C1689 C1685 1.393 . S
C1689 C1688 1.391 . S
H1690 C1698 0.950 . S
H1691 C1703 0.950 . S
H1692 C1700 0.950 . S
H1693 C1702 0.950 . S
H1694 C1704 0.950 . S
H1695 C1706 0.950 . S
H1696 C1708 0.950 . S
H1697 C1709 0.950 . S
C1698 H1690 0.950 . S
C1698 C1699 1.386 . S
C1698 C1700 1.391 . S
C1699 C1698 1.386 . S
C1699 C1703 1.393 . S
C1700 H1692 0.950 . S
C1700 C1698 1.391 . S
C1700 C1701 1.400 . S
C1701 C1700 1.400 . S
C1701 C1702 1.398 . S
C1701 C1707 1.491 . S
C1702 H1693 0.950 . S
C1702 C1701 1.398 . S
C1702 C1703 1.391 . S
C1703 H1691 0.950 . S
C1703 C1699 1.393 . S
C1703 C1702 1.391 . S
C1704 H1694 0.950 . S
C1704 C1705 1.386 . S
C1704 C1706 1.391 . S
C1705 C1704 1.386 . S
C1705 C1709 1.393 . S
C1706 H1695 0.950 . S
C1706 C1704 1.391 . S
C1706 C1707 1.400 . S
C1707 C1701 1.491 . S
C1707 C1706 1.400 . S
C1707 C1708 1.398 . S
C1708 H1696 0.950 . S
C1708 C1707 1.398 . S
C1708 C1709 1.391 . S
C1709 H1697 0.950 . S
C1709 C1705 1.393 . S
C1709 C1708 1.391 . S
H1710 C1718 0.950 . S
H1711 C1723 0.950 . S
H1712 C1720 0.950 . S
H1713 C1722 0.950 . S
H1714 C1724 0.950 . S
H1715 C1726 0.950 . S
H1716 C1728 0.950 . S
H1717 C1729 0.950 . S
C1718 H1710 0.950 . S
C1718 C1719 1.386 . S
C1718 C1720 1.391 . S
C1719 C1718 1.386 . S
C1719 C1723 1.393 . S
C1720 H1712 0.950 . S
C1720 C1718 1.391 . S
C1720 C1721 1.400 . S
C1721 C1720 1.400 . S
C1721 C1722 1.398 . S
C1721 C1727 1.491 . S
C1722 H1713 0.950 . S
C1722 C1721 1.398 . S
C1722 C1723 1.391 . S
C1723 H1711 0.950 . S
C1723 C1719 1.393 . S
C1723 C1722 1.391 . S
C1724 H1714 0.950 . S
C1724 C1725 1.386 . S
C1724 C1726 1.391 . S
C1725 C1724 1.386 . S
C1725 C1729 1.393 . S
C1726 H1715 0.950 . S
C1726 C1724 1.391 . S
C1726 C1727 1.400 . S
C1727 C1721 1.491 . S
C1727 C1726 1.400 . S
C1727 C1728 1.398 . S
C1728 H1716 0.950 . S
C1728 C1727 1.398 . S
C1728 C1729 1.391 . S
C1729 H1717 0.950 . S
C1729 C1725 1.393 . S
C1729 C1728 1.391 . S
H1730 C1738 0.950 . S
H1731 C1743 0.950 . S
H1732 C1740 0.950 . S
H1733 C1742 0.950 . S
H1734 C1744 0.950 . S
H1735 C1746 0.950 . S
H1736 C1748 0.950 . S
H1737 C1749 0.950 . S
C1738 H1730 0.950 . S
C1738 C1739 1.386 . S
C1738 C1740 1.391 . S
C1739 C1738 1.386 . S
C1739 C1743 1.393 . S
C1740 H1732 0.950 . S
C1740 C1738 1.391 . S
C1740 C1741 1.400 . S
C1741 C1740 1.400 . S
C1741 C1742 1.398 . S
C1741 C1747 1.491 . S
C1742 H1733 0.950 . S
C1742 C1741 1.398 . S
C1742 C1743 1.391 . S
C1743 H1731 0.950 . S
C1743 C1739 1.393 . S
C1743 C1742 1.391 . S
C1744 H1734 0.950 . S
C1744 C1745 1.386 . S
C1744 C1746 1.391 . S
C1745 C1744 1.386 . S
C1745 C1749 1.393 . S
C1746 H1735 0.950 . S
C1746 C1744 1.391 . S
C1746 C1747 1.400 . S
C1747 C1741 1.491 . S
C1747 C1746 1.400 . S
C1747 C1748 1.398 . S
C1748 H1736 0.950 . S
C1748 C1747 1.398 . S
C1748 C1749 1.391 . S
C1749 H1737 0.950 . S
C1749 C1745 1.393 . S
C1749 C1748 1.391 . S
H1750 C1758 0.950 . S
H1751 C1763 0.950 . S
H1752 C1760 0.950 . S
H1753 C1762 0.950 . S
H1754 C1764 0.950 . S
H1755 C1766 0.950 . S
H1756 C1768 0.950 . S
H1757 C1769 0.950 . S
C1758 H1750 0.950 . S
C1758 C1759 1.386 . S
C1758 C1760 1.391 . S
C1759 C1758 1.386 . S
C1759 C1763 1.393 . S
C1760 H1752 0.950 . S
C1760 C1758 1.391 . S
C1760 C1761 1.400 . S
C1761 C1760 1.400 . S
C1761 C1762 1.398 . S
C1761 C1767 1.491 . S
C1762 H1753 0.950 . S
C1762 C1761 1.398 . S
C1762 C1763 1.391 . S
C1763 H1751 0.950 . S
C1763 C1759 1.393 . S
C1763 C1762 1.391 . S
C1764 H1754 0.950 . S
C1764 C1765 1.386 . S
C1764 C1766 1.391 . S
C1765 C1764 1.386 . S
C1765 C1769 1.393 . S
C1766 H1755 0.950 . S
C1766 C1764 1.391 . S
C1766 C1767 1.400 . S
C1767 C1761 1.491 . S
C1767 C1766 1.400 . S
C1767 C1768 1.398 . S
C1768 H1756 0.950 . S
C1768 C1767 1.398 . S
C1768 C1769 1.391 . S
C1769 H1757 0.950 . S
C1769 C1765 1.393 . S
C1769 C1768 1.391 . S
H1770 C1778 0.950 . S
H1771 C1783 0.950 . S
H1772 C1780 0.950 . S
H1773 C1782 0.950 . S
H1774 C1784 0.950 . S
H1775 C1786 0.950 . S
H1776 C1788 0.950 . S
H1777 C1789 0.950 . S
C1778 H1770 0.950 . S
C1778 C1779 1.386 . S
C1778 C1780 1.391 . S
C1779 C1778 1.386 . S
C1779 C1783 1.393 . S
C1780 H1772 0.950 . S
C1780 C1778 1.391 . S
C1780 C1781 1.400 . S
C1781 C1780 1.400 . S
C1781 C1782 1.398 . S
C1781 C1787 1.491 . S
C1782 H1773 0.950 . S
C1782 C1781 1.398 . S
C1782 C1783 1.391 . S
C1783 H1771 0.950 . S
C1783 C1779 1.393 . S
C1783 C1782 1.391 . S
C1784 H1774 0.950 . S
C1784 C1785 1.386 . S
C1784 C1786 1.391 . S
C1785 C1784 1.386 . S
C1785 C1789 1.393 . S
C1786 H1775 0.950 . S
C1786 C1784 1.391 . S
C1786 C1787 1.400 . S
C1787 C1781 1.491 . S
C1787 C1786 1.400 . S
C1787 C1788 1.398 . S
C1788 H1776 0.950 . S
C1788 C1787 1.398 . S
C1788 C1789 1.391 . S
C1789 H1777 0.950 . S
C1789 C1785 1.393 . S
C1789 C1788 1.391 . S
H1790 C1798 0.950 . S
H1791 C1803 0.950 . S
H1792 C1800 0.950 . S
H1793 C1802 0.950 . S
H1794 C1804 0.950 . S
H1795 C1806 0.950 . S
H1796 C1808 0.950 . S
H1797 C1809 0.950 . S
C1798 H1790 0.950 . S
C1798 C1799 1.386 . S
C1798 C1800 1.391 . S
C1799 C1798 1.386 . S
C1799 C1803 1.393 . S
C1800 H1792 0.950 . S
C1800 C1798 1.391 . S
C1800 C1801 1.400 . S
C1801 C1800 1.400 . S
C1801 C1802 1.398 . S
C1801 C1807 1.491 . S
C1802 H1793 0.950 . S
C1802 C1801 1.398 . S
C1802 C1803 1.391 . S
C1803 H1791 0.950 . S
C1803 C1799 1.393 . S
C1803 C1802 1.391 . S
C1804 H1794 0.950 . S
C1804 C1805 1.386 . S
C1804 C1806 1.391 . S
C1805 C1804 1.386 . S
C1805 C1809 1.393 . S
C1806 H1795 0.950 . S
C1806 C1804 1.391 . S
C1806 C1807 1.400 . S
C1807 C1801 1.491 . S
C1807 C1806 1.400 . S
C1807 C1808 1.398 . S
C1808 H1796 0.950 . S
C1808 C1807 1.398 . S
C1808 C1809 1.391 . S
C1809 H1797 0.950 . S
C1809 C1805 1.393 . S
C1809 C1808 1.391 . S
H1810 C1818 0.950 . S
H1811 C1823 0.950 . S
H1812 C1820 0.950 . S
H1813 C1822 0.950 . S
H1814 C1824 0.950 . S
H1815 C1826 0.950 . S
H1816 C1828 0.950 . S
H1817 C1829 0.950 . S
C1818 H1810 0.950 . S
C1818 C1819 1.386 . S
C1818 C1820 1.391 . S
C1819 C1818 1.386 . S
C1819 C1823 1.393 . S
C1820 H1812 0.950 . S
C1820 C1818 1.391 . S
C1820 C1821 1.400 . S
C1821 C1820 1.400 . S
C1821 C1822 1.398 . S
C1821 C1827 1.491 . S
C1822 H1813 0.950 . S
C1822 C1821 1.398 . S
C1822 C1823 1.391 . S
C1823 H1811 0.950 . S
C1823 C1819 1.393 . S
C1823 C1822 1.391 . S
C1824 H1814 0.950 . S
C1824 C1825 1.386 . S
C1824 C1826 1.391 . S
C1825 C1824 1.386 . S
C1825 C1829 1.393 . S
C1826 H1815 0.950 . S
C1826 C1824 1.391 . S
C1826 C1827 1.400 . S
C1827 C1821 1.491 . S
C1827 C1826 1.400 . S
C1827 C1828 1.398 . S
C1828 H1816 0.950 . S
C1828 C1827 1.398 . S
C1828 C1829 1.391 . S
C1829 H1817 0.950 . S
C1829 C1825 1.393 . S
C1829 C1828 1.391 . S
C885 C699 1.306 . S
C879 C75 1.333 . S
C905 C700 1.000 . S
C899 C156 0.909 . S
C925 C694 1.453 . S
C919 C243 1.423 . S
C939 C315 0.725 . S
C945 C693 0.581 . S
C959 C399 0.720 . S
C965 C696 0.535 . S
C985 C698 1.227 . S
C979 C495 1.182 . S
C999 C576 1.053 . S
C1005 C697 1.100 . S
C1019 C654 1.266 . S
C1025 C695 1.247 . S
C1045 C730 1.033 . S
C1039 C72 0.993 . S
C1059 C140 1.483 . S
C1065 C761 1.451 . S
C1085 C729 1.022 . S
C1079 C240 0.979 . S
C1105 C764 0.887 . S
C1099 C318 0.871 . S
C1119 C402 1.099 . S
C1125 C727 1.142 . S
C1145 C759 1.772 1_556 S
C1139 C492 1.625 . S
C1159 C560 1.165 . S
C1165 C732 1.207 . S
C1179 C655 2.691 . S
C1185 C766 2.699 1_556 S
C1199 C56 3.112 . S
C1205 C762 3.215 . S
C1219 C403 1.837 . S
C1225 C765 1.771 1_556 S
C1245 C733 2.256 . S
C1239 C476 2.155 . S
C1265 C760 1.582 1_556 S
C1259 C579 1.538 . S
C1279 C651 1.380 . S
C1285 C726 1.516 . S
C1299 C224 3.076 . S
C1305 C763 3.226 . S
C1325 C728 1.415 . S
C1319 C319 1.412 . S
C1339 C159 1.887 . S
C1345 C731 1.920 . S
C1359 C663 1.235 . S
C1365 C798 1.201 . S
C1379 C408 0.861 . S
C1385 C799 0.400 . S
C1405 C793 1.364 . S
C1399 C486 1.305 . S
C1425 C792 1.423 . S
C1419 C567 1.288 . S
C1439 C147 0.640 . S
C1445 C795 0.633 . S
C1465 C797 1.333 . S
C1459 C234 1.300 . S
C1479 C324 0.907 . S
C1485 C796 0.967 . S
C1499 C66 1.267 . S
C1505 C794 1.230 . S
C1519 C660 1.403 . S
C1525 C832 1.526 . S
C1545 C864 1.366 . S
C1539 C392 1.399 . S
C1559 C487 2.054 . S
C1565 C825 2.178 . S
C1579 C570 1.830 . S
C1585 C859 1.897 . S
C1605 C830 1.667 . S
C1599 C150 1.608 . S
C1619 C235 3.301 . S
C1625 C861 3.390 . S
C1645 C827 1.698 . S
C1639 C308 1.776 . S
C1665 C862 3.137 . S
C1659 C67 2.906 . S
C1685 C858 2.623 . S
C1679 C644 2.421 . S
C1699 C151 1.096 . S
C1705 C860 1.163 . S
C1719 C231 0.864 . S
C1725 C829 0.952 . S
C1745 C863 1.175 . S
C1739 C327 1.109 . S
C1759 C63 1.017 . S
C1765 C828 1.046 . S
C1779 C483 1.804 . S
C1785 C865 1.884 . S
C1805 C831 1.409 . S
C1799 C571 1.394 . S
C1825 C826 0.888 . S
C1819 C411 0.885 . S
