# Generated by pormake.
# Topology eea, (3,6)-cn, num edge types: 1
# Building blocks:
#     Node 0, Type 0, BuildingBlock: OLANEW_clean_sbu_2, # of connection points: 3
#     Node 1, Type 0, BuildingBlock: OLANEW_clean_sbu_2, # of connection points: 3
#     Node 2, Type 0, BuildingBlock: OLANEW_clean_sbu_2, # of connection points: 3
#     Node 3, Type 0, BuildingBlock: OLANEW_clean_sbu_2, # of connection points: 3
#     Node 4, Type 0, BuildingBlock: OLANEW_clean_sbu_2, # of connection points: 3
#     Node 5, Type 0, BuildingBlock: OLANEW_clean_sbu_2, # of connection points: 3
#     Node 6, Type 0, BuildingBlock: OLANEW_clean_sbu_2, # of connection points: 3
#     Node 7, Type 0, BuildingBlock: OLANEW_clean_sbu_2, # of connection points: 3
#     Node 8, Type 0, BuildingBlock: OLANEW_clean_sbu_2, # of connection points: 3
#     Node 9, Type 0, BuildingBlock: OLANEW_clean_sbu_2, # of connection points: 3
#     Node 10, Type 0, BuildingBlock: OLANEW_clean_sbu_2, # of connection points: 3
#     Node 11, Type 0, BuildingBlock: OLANEW_clean_sbu_2, # of connection points: 3
#     Node 12, Type 0, BuildingBlock: OLANEW_clean_sbu_2, # of connection points: 3
#     Node 13, Type 0, BuildingBlock: OLANEW_clean_sbu_2, # of connection points: 3
#     Node 14, Type 0, BuildingBlock: OLANEW_clean_sbu_2, # of connection points: 3
#     Node 15, Type 0, BuildingBlock: OLANEW_clean_sbu_2, # of connection points: 3
#     Node 16, Type 0, BuildingBlock: OLANEW_clean_sbu_2, # of connection points: 3
#     Node 17, Type 0, BuildingBlock: OLANEW_clean_sbu_2, # of connection points: 3
#     Node 18, Type 1, BuildingBlock: CIFDUS_clean_sbu_1, # of connection points: 6
#     Node 19, Type 1, BuildingBlock: CIFDUS_clean_sbu_1, # of connection points: 6
#     Node 20, Type 1, BuildingBlock: CIFDUS_clean_sbu_1, # of connection points: 6
#     Node 21, Type 1, BuildingBlock: CIFDUS_clean_sbu_1, # of connection points: 6
#     Node 22, Type 1, BuildingBlock: CIFDUS_clean_sbu_1, # of connection points: 6
#     Node 23, Type 1, BuildingBlock: CIFDUS_clean_sbu_1, # of connection points: 6
#     Node 24, Type 1, BuildingBlock: CIFDUS_clean_sbu_1, # of connection points: 6
#     Node 25, Type 1, BuildingBlock: CIFDUS_clean_sbu_1, # of connection points: 6
#     Node 26, Type 1, BuildingBlock: CIFDUS_clean_sbu_1, # of connection points: 6
#     Edge 27, Type (0, 1), BuildingBlock: AJUNOK_clean_linker_0, # of connection points: 2
#     Edge 28, Type (0, 1), BuildingBlock: AJUNOK_clean_linker_0, # of connection points: 2
#     Edge 29, Type (0, 1), BuildingBlock: AJUNOK_clean_linker_0, # of connection points: 2
#     Edge 30, Type (0, 1), BuildingBlock: AJUNOK_clean_linker_0, # of connection points: 2
#     Edge 31, Type (0, 1), BuildingBlock: AJUNOK_clean_linker_0, # of connection points: 2
#     Edge 32, Type (0, 1), BuildingBlock: AJUNOK_clean_linker_0, # of connection points: 2
#     Edge 33, Type (0, 1), BuildingBlock: AJUNOK_clean_linker_0, # of connection points: 2
#     Edge 34, Type (0, 1), BuildingBlock: AJUNOK_clean_linker_0, # of connection points: 2
#     Edge 35, Type (0, 1), BuildingBlock: AJUNOK_clean_linker_0, # of connection points: 2
#     Edge 36, Type (0, 1), BuildingBlock: AJUNOK_clean_linker_0, # of connection points: 2
#     Edge 37, Type (0, 1), BuildingBlock: AJUNOK_clean_linker_0, # of connection points: 2
#     Edge 38, Type (0, 1), BuildingBlock: AJUNOK_clean_linker_0, # of connection points: 2
#     Edge 39, Type (0, 1), BuildingBlock: AJUNOK_clean_linker_0, # of connection points: 2
#     Edge 40, Type (0, 1), BuildingBlock: AJUNOK_clean_linker_0, # of connection points: 2
#     Edge 41, Type (0, 1), BuildingBlock: AJUNOK_clean_linker_0, # of connection points: 2
#     Edge 42, Type (0, 1), BuildingBlock: AJUNOK_clean_linker_0, # of connection points: 2
#     Edge 43, Type (0, 1), BuildingBlock: AJUNOK_clean_linker_0, # of connection points: 2
#     Edge 44, Type (0, 1), BuildingBlock: AJUNOK_clean_linker_0, # of connection points: 2
#     Edge 45, Type (0, 1), BuildingBlock: AJUNOK_clean_linker_0, # of connection points: 2
#     Edge 46, Type (0, 1), BuildingBlock: AJUNOK_clean_linker_0, # of connection points: 2
#     Edge 47, Type (0, 1), BuildingBlock: AJUNOK_clean_linker_0, # of connection points: 2
#     Edge 48, Type (0, 1), BuildingBlock: AJUNOK_clean_linker_0, # of connection points: 2
#     Edge 49, Type (0, 1), BuildingBlock: AJUNOK_clean_linker_0, # of connection points: 2
#     Edge 50, Type (0, 1), BuildingBlock: AJUNOK_clean_linker_0, # of connection points: 2
#     Edge 51, Type (0, 1), BuildingBlock: AJUNOK_clean_linker_0, # of connection points: 2
#     Edge 52, Type (0, 1), BuildingBlock: AJUNOK_clean_linker_0, # of connection points: 2
#     Edge 53, Type (0, 1), BuildingBlock: AJUNOK_clean_linker_0, # of connection points: 2
#     Edge 54, Type (0, 1), BuildingBlock: AJUNOK_clean_linker_0, # of connection points: 2
#     Edge 55, Type (0, 1), BuildingBlock: AJUNOK_clean_linker_0, # of connection points: 2
#     Edge 56, Type (0, 1), BuildingBlock: AJUNOK_clean_linker_0, # of connection points: 2
#     Edge 57, Type (0, 1), BuildingBlock: AJUNOK_clean_linker_0, # of connection points: 2
#     Edge 58, Type (0, 1), BuildingBlock: AJUNOK_clean_linker_0, # of connection points: 2
#     Edge 59, Type (0, 1), BuildingBlock: AJUNOK_clean_linker_0, # of connection points: 2
#     Edge 60, Type (0, 1), BuildingBlock: AJUNOK_clean_linker_0, # of connection points: 2
#     Edge 61, Type (0, 1), BuildingBlock: AJUNOK_clean_linker_0, # of connection points: 2
#     Edge 62, Type (0, 1), BuildingBlock: AJUNOK_clean_linker_0, # of connection points: 2
#     Edge 63, Type (0, 1), BuildingBlock: AJUNOK_clean_linker_0, # of connection points: 2
#     Edge 64, Type (0, 1), BuildingBlock: AJUNOK_clean_linker_0, # of connection points: 2
#     Edge 65, Type (0, 1), BuildingBlock: AJUNOK_clean_linker_0, # of connection points: 2
#     Edge 66, Type (0, 1), BuildingBlock: AJUNOK_clean_linker_0, # of connection points: 2
#     Edge 67, Type (0, 1), BuildingBlock: AJUNOK_clean_linker_0, # of connection points: 2
#     Edge 68, Type (0, 1), BuildingBlock: AJUNOK_clean_linker_0, # of connection points: 2
#     Edge 69, Type (0, 1), BuildingBlock: AJUNOK_clean_linker_0, # of connection points: 2
#     Edge 70, Type (0, 1), BuildingBlock: AJUNOK_clean_linker_0, # of connection points: 2
#     Edge 71, Type (0, 1), BuildingBlock: AJUNOK_clean_linker_0, # of connection points: 2
#     Edge 72, Type (0, 1), BuildingBlock: AJUNOK_clean_linker_0, # of connection points: 2
#     Edge 73, Type (0, 1), BuildingBlock: AJUNOK_clean_linker_0, # of connection points: 2
#     Edge 74, Type (0, 1), BuildingBlock: AJUNOK_clean_linker_0, # of connection points: 2
#     Edge 75, Type (0, 1), BuildingBlock: AJUNOK_clean_linker_0, # of connection points: 2
#     Edge 76, Type (0, 1), BuildingBlock: AJUNOK_clean_linker_0, # of connection points: 2
#     Edge 77, Type (0, 1), BuildingBlock: AJUNOK_clean_linker_0, # of connection points: 2
#     Edge 78, Type (0, 1), BuildingBlock: AJUNOK_clean_linker_0, # of connection points: 2
#     Edge 79, Type (0, 1), BuildingBlock: AJUNOK_clean_linker_0, # of connection points: 2
#     Edge 80, Type (0, 1), BuildingBlock: AJUNOK_clean_linker_0, # of connection points: 2
# Relax obj value: 0.067
# Max RMSD: 0.120
# Mean RMSD: 0.078
data_MOF--net-eea--node1-OLANEW_clean_sbu_2--node2-CIFDUS_clean_sbu_1--edge1-AJUNOK_clean_linker_0
_symmetry_space_group_name_H-M    P1
_symmetry_Int_Tables_number       1
_symmetry_cell_setting            triclinic
loop_
_symmetry_equiv_pos_as_xyz
'x, y, z'
_cell_length_a     48.030881
_cell_length_b     47.008083
_cell_length_c     32.790679
_cell_angle_alpha  95.1605
_cell_angle_beta   90.047703
_cell_angle_gamma 120.44873
loop_
_atom_site_label
_atom_site_type_symbol
_atom_site_fract_x
_atom_site_fract_y
_atom_site_fract_z
_atom_type_partial_charge
O0 O 0.23207 0.11571 0.43151 0.0
Cd1 Cd 0.20497 0.11555 0.36818 0.0
O2 O 0.27851 0.13434 0.40236 0.0
Cd3 Cd 0.25322 0.11654 0.34266 0.0
O4 O 0.23329 0.0645 0.32146 0.0
C5 C 0.21859 0.04311 0.34661 0.0
O6 O 0.21279 0.05294 0.38269 0.0
C7 C 0.26238 0.12684 0.43432 0.0
C8 C 0.19253 0.16776 0.37244 0.0
O9 O 0.16973 0.13812 0.37619 0.0
O10 O 0.22092 0.17264 0.36645 0.0
O11 O 0.88105 0.13762 0.39515 0.0
Cd12 Cd 0.9043 0.13157 0.33007 0.0
O13 O 0.89109 0.10187 0.41948 0.0
Cd14 Cd 0.88265 0.06214 0.4563 0.0
O15 O 0.84817 0.01257 0.42783 0.0
C16 C 0.84546 0.01237 0.38922 0.0
O17 O 0.86474 0.03961 0.37246 0.0
C18 C 0.87897 0.12043 0.42404 0.0
C19 C 0.96957 0.17937 0.33115 0.0
O20 O 0.94762 0.18571 0.32127 0.0
O21 O 0.9609 0.15005 0.33974 0.0
O22 O 0.8896 0.74036 0.41793 0.0
Cd23 Cd 0.90764 0.7595 0.3496 0.0
O24 O 0.83825 0.71096 0.39727 0.0
Cd25 Cd 0.84708 0.73445 0.34077 0.0
O26 O 0.83075 0.76674 0.32081 0.0
C27 C 0.80064 0.75438 0.32487 0.0
O28 O 0.7841 0.72498 0.33816 0.0
C29 C 0.86027 0.72035 0.42531 0.0
C30 C 0.97218 0.77868 0.33421 0.0
O31 O 0.96476 0.79932 0.35154 0.0
O32 O 0.94913 0.74877 0.32462 0.0
O33 O 0.15358 0.25517 0.60472 0.0
Cd34 Cd 0.13967 0.23371 0.67212 0.0
O35 O 0.14893 0.2988 0.6221 0.0
Cd36 Cd 0.11675 0.27462 0.67118 0.0
O37 O 0.06383 0.24614 0.67265 0.0
C38 C 0.04526 0.24314 0.70169 0.0
O39 O 0.05781 0.25782 0.73852 0.0
C40 C 0.1574 0.28284 0.59669 0.0
C41 C 0.18388 0.21468 0.69239 0.0
O42 O 0.1583 0.19536 0.66956 0.0
O43 O 0.18821 0.24282 0.7075 0.0
O44 O 0.74352 0.86477 0.62834 0.0
Cd45 Cd 0.78306 0.87788 0.68351 0.0
O46 O 0.78972 0.89877 0.60561 0.0
Cd47 Cd 0.83361 0.93573 0.57948 0.0
O48 O 0.85202 0.98808 0.59644 0.0
C49 C 0.82871 0.99304 0.60308 0.0
O50 O 0.79897 0.9677 0.59786 0.0
C51 C 0.75909 0.88131 0.59944 0.0
C52 C 0.79482 0.8265 0.68968 0.0
O53 O 0.77412 0.82971 0.71119 0.0
O54 O 0.81002 0.84753 0.66398 0.0
O55 O 0.11623 0.87191 0.6136 0.0
Cd56 Cd 0.09997 0.87692 0.68419 0.0
O57 O 0.16386 0.87927 0.63039 0.0
Cd58 Cd 0.16109 0.90141 0.68963 0.0
O59 O 0.18014 0.95454 0.693 0.0
C60 C 0.1926 0.96825 0.66077 0.0
O61 O 0.19265 0.94972 0.62835 0.0
C62 C 0.14207 0.87261 0.60314 0.0
C63 C 0.03581 0.82702 0.69099 0.0
O64 O 0.04284 0.85409 0.67632 0.0
O65 O 0.05905 0.82349 0.70354 0.0
O66 O 0.898 0.44825 0.76417 0.0
Cd67 Cd 0.87122 0.4471 0.70023 0.0
O68 O 0.94443 0.46463 0.73558 0.0
Cd69 Cd 0.91683 0.43992 0.6782 0.0
O70 O 0.88698 0.38606 0.66727 0.0
C71 C 0.88436 0.37035 0.69809 0.0
O72 O 0.89879 0.3874 0.73325 0.0
C73 C 0.92827 0.45938 0.76753 0.0
C74 C 0.86022 0.50031 0.70378 0.0
O75 O 0.83731 0.47118 0.70953 0.0
O76 O 0.88804 0.50417 0.69629 0.0
O77 O 0.54827 0.46006 0.72459 0.0
Cd78 Cd 0.57185 0.4476 0.66347 0.0
O79 O 0.55747 0.42983 0.76403 0.0
Cd80 Cd 0.5714 0.40713 0.71346 0.0
O81 O 0.53937 0.35561 0.68989 0.0
C82 C 0.51676 0.3422 0.71425 0.0
O83 O 0.51704 0.36038 0.7473 0.0
C84 C 0.54688 0.4492 0.75914 0.0
C85 C 0.63542 0.49914 0.65781 0.0
O86 O 0.61126 0.50103 0.64502 0.0
O87 O 0.62983 0.47248 0.67247 0.0
O88 O 0.54883 0.07622 0.74817 0.0
Cd89 Cd 0.56766 0.08993 0.67853 0.0
O90 O 0.49741 0.04241 0.72946 0.0
Cd91 Cd 0.5016 0.05648 0.66726 0.0
O92 O 0.4778 0.08103 0.64346 0.0
C93 C 0.48255 0.10637 0.66673 0.0
O94 O 0.50308 0.11635 0.69863 0.0
C95 C 0.52 0.05609 0.75738 0.0
C96 C 0.63227 0.10609 0.66862 0.0
O97 O 0.62537 0.12851 0.67992 0.0
O98 O 0.6087 0.07607 0.66226 0.0
O99 O 0.82063 0.58919 0.94028 0.0
Cd100 Cd 0.80808 0.56917 0.00855 0.0
O101 O 0.81356 0.63167 0.95537 0.0
Cd102 Cd 0.78318 0.60863 0.00624 0.0
O103 O 0.7313 0.57471 0.01212 0.0
C104 C 0.71275 0.57941 0.03584 0.0
O105 O 0.72518 0.60588 0.06264 0.0
C106 C 0.82272 0.61584 0.93081 0.0
C107 C 0.8523 0.55121 0.03458 0.0
O108 O 0.82616 0.53026 0.01363 0.0
O109 O 0.85728 0.58058 0.04381 0.0
O110 O 0.40683 0.19695 0.96455 0.0
Cd111 Cd 0.4357 0.19418 0.02359 0.0
O112 O 0.45458 0.22803 0.94287 0.0
Cd113 Cd 0.49908 0.26273 0.9152 0.0
O114 O 0.51649 0.31516 0.92816 0.0
C115 C 0.514 0.3221 0.96578 0.0
O116 O 0.50518 0.29865 0.99034 0.0
C117 C 0.42397 0.21381 0.9367 0.0
C118 C 0.45717 0.14992 0.0033 0.0
O119 O 0.42786 0.14003 0.01203 0.0
O120 O 0.47699 0.1812 0.00438 0.0
O121 O 0.78637 0.21165 0.93957 0.0
Cd122 Cd 0.76942 0.21237 0.01102 0.0
O123 O 0.83323 0.21721 0.95649 0.0
Cd124 Cd 0.82918 0.23557 0.01756 0.0
O125 O 0.84774 0.28872 0.02376 0.0
C126 C 0.86027 0.30352 0.9922 0.0
O127 O 0.86064 0.28602 0.95892 0.0
C128 C 0.81258 0.21318 0.92901 0.0
C129 C 0.70531 0.16254 0.019 0.0
O130 O 0.71229 0.18997 0.00538 0.0
O131 O 0.7286 0.15841 0.02958 0.0
O132 O 0.56585 0.78723 0.08833 0.0
Cd133 Cd 0.5468 0.78761 0.01957 0.0
O134 O 0.61376 0.79522 0.07341 0.0
Cd135 Cd 0.59562 0.77999 0.01017 0.0
O136 O 0.56913 0.72786 0.98783 0.0
C137 C 0.55265 0.70747 0.01332 0.0
O138 O 0.55024 0.71913 0.05023 0.0
C139 C 0.59362 0.79278 0.09988 0.0
C140 C 0.53566 0.84064 0.02158 0.0
O141 O 0.51232 0.81127 0.02542 0.0
O142 O 0.56369 0.84452 0.01562 0.0
O143 O 0.21705 0.79611 0.06265 0.0
Cd144 Cd 0.23963 0.78457 1.00019 0.0
O145 O 0.22317 0.7624 0.09907 0.0
Cd146 Cd 0.2334 0.73922 0.04525 0.0
O147 O 0.20195 0.68959 0.01511 0.0
C148 C 0.18276 0.67089 0.04026 0.0
O149 O 0.18578 0.6833 0.07866 0.0
C150 C 0.21522 0.78417 0.0966 0.0
C151 C 0.30513 0.83308 0.99875 0.0
O152 O 0.28351 0.83579 0.97943 0.0
O153 O 0.29581 0.80719 0.01747 0.0
O154 O 0.22001 0.40858 0.08816 0.0
Cd155 Cd 0.23906 0.43036 0.02124 0.0
O156 O 0.16966 0.37533 0.06444 0.0
Cd157 Cd 0.17775 0.40266 0.01122 0.0
O158 O 0.16332 0.43742 0.9945 0.0
C159 C 0.13307 0.42435 0.98748 0.0
O160 O 0.11454 0.39207 0.98772 0.0
C161 C 0.19117 0.38583 0.09343 0.0
C162 C 0.30394 0.44985 0.008 0.0
O163 O 0.2962 0.4692 0.02828 0.0
O164 O 0.281 0.42099 0.99369 0.0
O165 O 0.49659 0.92613 0.26904 0.0
Cd166 Cd 0.48139 0.9016 0.33444 0.0
O167 O 0.47812 0.96001 0.2842 0.0
Cd168 Cd 0.44758 0.93307 0.33316 0.0
O169 O 0.39785 0.90173 0.35162 0.0
C170 C 0.38238 0.91414 0.36958 0.0
O171 O 0.39751 0.94635 0.38 0.0
C172 C 0.4936 0.95041 0.26083 0.0
C173 C 0.52787 0.88812 0.36427 0.0
O174 O 0.50345 0.86625 0.34116 0.0
O175 O 0.53012 0.91631 0.37361 0.0
O176 O 0.07198 0.53046 0.297 0.0
Cd177 Cd 0.09961 0.53228 0.36002 0.0
O178 O 0.12125 0.56135 0.27928 0.0
Cd179 Cd 0.16347 0.59846 0.25043 0.0
O180 O 0.18055 0.65105 0.26078 0.0
C181 C 0.15609 0.65425 0.26614 0.0
O182 O 0.1273 0.62733 0.26382 0.0
C183 C 0.09099 0.54662 0.2701 0.0
C184 C 0.11836 0.48529 0.34789 0.0
O185 O 0.0903 0.47785 0.35987 0.0
O186 O 0.13841 0.51563 0.34268 0.0
O187 O 0.45007 0.53932 0.27396 0.0
Cd188 Cd 0.43507 0.54571 0.34501 0.0
O189 O 0.4964 0.54308 0.28984 0.0
Cd190 Cd 0.49188 0.55781 0.35245 0.0
O191 O 0.51569 0.6101 0.37236 0.0
C192 C 0.52034 0.62958 0.34524 0.0
O193 O 0.50786 0.61681 0.30783 0.0
C194 C 0.47529 0.53886 0.26298 0.0
C195 C 0.37165 0.49561 0.35484 0.0
O196 O 0.37766 0.52297 0.34189 0.0
O197 O 0.39552 0.49195 0.36387 0.0
O198 O 0.45558 0.96174 1.00061 0.0
Mn199 Mn 0.50304 0.00153 0.01007 0.0
O200 O 0.43182 0.96703 0.05686 0.0
Mn201 Mn 0.46149 0.01142 0.07276 0.0
O202 O 0.55147 0.04082 0.01762 0.0
O203 O 0.51712 0.96953 0.98641 0.0
Mn204 Mn 0.54205 0.98814 0.94619 0.0
O205 O 0.49948 0.0164 0.95196 0.0
O206 O 0.57756 0.02648 0.97032 0.0
O207 O 0.50748 0.98924 0.07039 0.0
O208 O 0.49098 0.01761 0.11256 0.0
O209 O 0.54082 0.94903 0.94612 0.0
O210 O 0.51932 0.99391 0.90636 0.0
C211 C 0.46928 0.04385 0.02765 0.0
C212 C 0.43178 0.95064 0.02396 0.0
C213 C 0.57728 0.04623 0.99943 0.0
C214 C 0.52389 0.94618 0.97789 0.0
C215 C 0.50534 0.01019 0.91496 0.0
C216 C 0.50568 0.00156 0.10676 0.0
O217 O 0.48832 0.03255 0.03438 0.0
O218 O 0.44856 0.03882 0.05539 0.0
O219 O 0.04368 0.49627 0.00526 0.0
Mn220 Mn 0.00588 0.50467 0.02062 0.0
O221 O 0.04048 0.45982 0.04806 0.0
Mn222 Mn 0.00395 0.45385 0.07393 0.0
O223 O 0.96705 0.51215 0.03596 0.0
O224 O 0.03155 0.54986 0.00203 0.0
Mn225 Mn 0.00682 0.56206 0.97952 0.0
O226 O 0.98584 0.4866 0.96075 0.0
O227 O 0.98163 0.56333 0.02087 0.0
O228 O 0.02754 0.52519 0.08042 0.0
O229 O 0.01037 0.48296 0.11879 0.0
O230 O 0.04866 0.59579 0.97461 0.0
O231 O 0.98585 0.53009 0.93591 0.0
C232 C 0.95861 0.42758 0.04157 0.0
C233 C 0.05379 0.47829 0.0195 0.0
C234 C 0.96295 0.53731 0.03762 0.0
C235 C 0.05602 0.57685 0.99248 0.0
C236 C 0.98025 0.50036 0.93208 0.0
C237 C 0.02436 0.51373 0.11542 0.0
O238 O 0.97987 0.45816 0.03724 0.0
O239 O 0.9668 0.41366 0.06768 0.0
O240 O 0.55339 0.51112 0.02154 0.0
Mn241 Mn 0.50687 0.50048 0.00426 0.0
O242 O 0.57506 0.53062 0.96464 0.0
Mn243 Mn 0.54583 0.54444 0.95701 0.0
O244 O 0.4595 0.49027 0.99035 0.0
O245 O 0.49178 0.45154 0.01327 0.0
Mn246 Mn 0.46155 0.44471 0.04823 0.0
O247 O 0.50256 0.51496 0.06628 0.0
O248 O 0.42844 0.44916 0.0282 0.0
O249 O 0.50955 0.48426 0.94108 0.0
O250 O 0.52099 0.52744 0.9099 0.0
O251 O 0.45727 0.40493 0.04112 0.0
O252 O 0.48099 0.46869 0.09693 0.0
C253 C 0.54322 0.58122 0.9865 0.0
C254 C 0.57682 0.52038 0.99805 0.0
C255 C 0.43195 0.47013 0.00403 0.0
C256 C 0.48205 0.42052 0.0191 0.0
C257 C 0.494 0.49976 0.09878 0.0
C258 C 0.51134 0.49716 0.90737 0.0
O259 O 0.52282 0.55079 0.99624 0.0
O260 O 0.56737 0.58738 0.96388 0.0
O261 O 0.12303 0.29552 0.34179 0.0
Mn262 Mn 0.17151 0.33334 0.34595 0.0
O263 O 0.10599 0.30934 0.39963 0.0
Mn264 Mn 0.14164 0.35173 0.41107 0.0
O265 O 0.22014 0.37189 0.35048 0.0
O266 O 0.18426 0.29955 0.32642 0.0
Mn267 Mn 0.20968 0.31452 0.28562 0.0
O268 O 0.16737 0.34392 0.28516 0.0
O269 O 0.24548 0.35413 0.30645 0.0
O270 O 0.17682 0.32133 0.40557 0.0
O271 O 0.1731 0.35785 0.44781 0.0
O272 O 0.20698 0.27515 0.29209 0.0
O273 O 0.18614 0.31732 0.24397 0.0
C274 C 0.14799 0.38851 0.37694 0.0
C275 C 0.1009 0.28974 0.36732 0.0
C276 C 0.24559 0.37604 0.33251 0.0
C277 C 0.18903 0.27465 0.32178 0.0
C278 C 0.17229 0.33414 0.24922 0.0
C279 C 0.18092 0.33618 0.44176 0.0
O280 O 0.15728 0.36745 0.36397 0.0
O281 O 0.13506 0.38568 0.41214 0.0
O282 O 0.71241 0.82715 0.32937 0.0
Mn283 Mn 0.67623 0.83646 0.34922 0.0
O284 O 0.71829 0.80656 0.38392 0.0
Mn285 Mn 0.67653 0.79348 0.39763 0.0
O286 O 0.63845 0.84572 0.36799 0.0
O287 O 0.70649 0.88513 0.33771 0.0
Mn288 Mn 0.67511 0.89009 0.3167 0.0
O289 O 0.65598 0.81969 0.28926 0.0
O290 O 0.6583 0.89917 0.36179 0.0
O291 O 0.69767 0.85562 0.41009 0.0
O292 O 0.67222 0.81314 0.44514 0.0
O293 O 0.70991 0.91799 0.29156 0.0
O294 O 0.64436 0.8583 0.27895 0.0
C295 C 0.63536 0.75637 0.3716 0.0
C296 C 0.72787 0.81733 0.34989 0.0
C297 C 0.63759 0.87276 0.3759 0.0
C298 C 0.7245 0.90708 0.31291 0.0
C299 C 0.64165 0.83057 0.26833 0.0
C300 C 0.6888 0.84391 0.44473 0.0
O301 O 0.64547 0.78644 0.36044 0.0
O302 O 0.65372 0.75047 0.3941 0.0
O303 O 0.2224 0.84805 0.36667 0.0
Mn304 Mn 0.17737 0.83878 0.34451 0.0
O305 O 0.24777 0.86538 0.3115 0.0
Mn306 Mn 0.22114 0.88195 0.30142 0.0
O307 O 0.13029 0.8277 0.32803 0.0
O308 O 0.1596 0.79097 0.35489 0.0
Mn309 Mn 0.13028 0.7809 0.3913 0.0
O310 O 0.17096 0.85314 0.40533 0.0
O311 O 0.09879 0.78661 0.36711 0.0
O312 O 0.18169 0.82218 0.28186 0.0
O313 O 0.20034 0.86742 0.25198 0.0
O314 O 0.13081 0.74265 0.37825 0.0
O315 O 0.15103 0.8077 0.43831 0.0
C316 C 0.21847 0.91966 0.32856 0.0
C317 C 0.24681 0.85523 0.34569 0.0
C318 C 0.10256 0.80671 0.34098 0.0
C319 C 0.15205 0.76021 0.35304 0.0
C320 C 0.16338 0.83872 0.43849 0.0
C321 C 0.18718 0.83657 0.24853 0.0
O322 O 0.19544 0.88929 0.33552 0.0
O323 O 0.24454 0.92477 0.31107 0.0
O324 O 0.7875 0.62438 0.66423 0.0
Mn325 Mn 0.83508 0.66386 0.67731 0.0
O326 O 0.76869 0.62789 0.72413 0.0
Mn327 Mn 0.80058 0.67173 0.73537 0.0
O328 O 0.88349 0.7028 0.68648 0.0
O329 O 0.85005 0.63177 0.65787 0.0
Mn330 Mn 0.87497 0.64811 0.61691 0.0
O331 O 0.83428 0.67798 0.61777 0.0
O332 O 0.90939 0.6886 0.63859 0.0
O333 O 0.83832 0.6494 0.73668 0.0
O334 O 0.82891 0.68192 0.77822 0.0
O335 O 0.87488 0.60994 0.62305 0.0
O336 O 0.8506 0.65 0.57537 0.0
C337 C 0.80217 0.71028 0.71305 0.0
C338 C 0.76478 0.61291 0.68895 0.0
C339 C 0.90904 0.70867 0.66728 0.0
C340 C 0.85684 0.60823 0.65315 0.0
C341 C 0.83845 0.66834 0.58144 0.0
C342 C 0.84039 0.66335 0.77301 0.0
O343 O 0.81976 0.69839 0.69558 0.0
O344 O 0.78165 0.69475 0.74005 0.0
O345 O 0.37755 0.16028 0.67623 0.0
Mn346 Mn 0.33965 0.16935 0.68734 0.0
O347 O 0.36961 0.11959 0.71451 0.0
Mn348 Mn 0.33423 0.11671 0.74026 0.0
O349 O 0.30097 0.17811 0.69714 0.0
O350 O 0.36798 0.21453 0.66916 0.0
Mn351 Mn 0.34549 0.22716 0.64221 0.0
O352 O 0.32191 0.15112 0.62657 0.0
O353 O 0.31784 0.22916 0.67946 0.0
O354 O 0.35831 0.18933 0.74845 0.0
O355 O 0.3425 0.14621 0.78532 0.0
O356 O 0.38766 0.2609 0.64148 0.0
O357 O 0.32684 0.19547 0.59793 0.0
C358 C 0.28901 0.09256 0.70827 0.0
C359 C 0.3852 0.13982 0.68848 0.0
C360 C 0.2974 0.20338 0.69531 0.0
C361 C 0.39326 0.24198 0.66215 0.0
C362 C 0.31896 0.16507 0.59611 0.0
C363 C 0.35532 0.17706 0.78291 0.0
O364 O 0.31128 0.12284 0.70378 0.0
O365 O 0.29596 0.07788 0.73468 0.0
O366 O 0.88733 0.18604 0.68165 0.0
Mn367 Mn 0.83848 0.17001 0.67016 0.0
O368 O 0.90793 0.20776 0.62414 0.0
Mn369 Mn 0.87525 0.21542 0.60919 0.0
O370 O 0.78898 0.15324 0.6613 0.0
O371 O 0.82779 0.12694 0.69096 0.0
Mn372 Mn 0.79985 0.11646 0.7291 0.0
O373 O 0.83762 0.1911 0.72971 0.0
O374 O 0.76357 0.11334 0.704 0.0
O375 O 0.83839 0.14792 0.60982 0.0
O376 O 0.84792 0.18617 0.56771 0.0
O377 O 0.80757 0.08184 0.72113 0.0
O378 O 0.82032 0.14998 0.77072 0.0
C379 C 0.86681 0.24561 0.65194 0.0
C380 C 0.91085 0.19824 0.65798 0.0
C381 C 0.76325 0.13111 0.67692 0.0
C382 C 0.82575 0.09869 0.69298 0.0
C383 C 0.83184 0.18029 0.76536 0.0
C384 C 0.83843 0.15635 0.57326 0.0
O385 O 0.84833 0.21336 0.64786 0.0
O386 O 0.88717 0.25796 0.62359 0.0
C387 C 0.35211 0.88282 0.97222 0.0
C388 C 0.33946 0.86029 0.00215 0.0
C389 C 0.38341 0.91097 0.97763 0.0
C390 C 0.40269 0.91773 0.01351 0.0
H391 H 0.33741 0.87918 0.945 0.0
H392 H 0.39177 0.92849 0.95484 0.0
S393 S 0.38185 0.86605 0.09998 0.0
N394 N 0.34975 0.846 0.06778 0.0
N395 N 0.40789 0.89915 0.07819 0.0
C396 C 0.39088 0.89481 0.04273 0.0
C397 C 0.35943 0.86599 0.03698 0.0
C398 C 0.0873 0.43085 0.96544 0.0
C399 C 0.11786 0.44483 0.98586 0.0
C400 C 0.06818 0.44531 0.97182 0.0
C401 C 0.0788 0.47402 0.99917 0.0
H402 H 0.07711 0.40727 0.94666 0.0
H403 H 0.0436 0.43203 0.95857 0.0
S404 S 0.15864 0.52309 0.05553 0.0
N405 N 0.15958 0.4915 0.03046 0.0
N406 N 0.12299 0.51816 0.04309 0.0
C407 C 0.11041 0.49002 0.01675 0.0
C408 C 0.13017 0.47554 0.00989 0.0
C409 C 0.53405 0.65136 0.03661 0.0
C410 C 0.54212 0.67189 0.0044 0.0
C411 C 0.53121 0.61995 0.03049 0.0
C412 C 0.53602 0.60823 0.9919 0.0
H413 H 0.53216 0.66048 0.06739 0.0
H414 H 0.52771 0.60605 0.05654 0.0
S415 S 0.55141 0.64927 0.89597 0.0
N416 N 0.5505 0.67594 0.93147 0.0
N417 N 0.54418 0.61694 0.91977 0.0
C418 C 0.54064 0.627 0.95869 0.0
C419 C 0.54399 0.65888 0.96496 0.0
C420 C 0.87667 0.35847 0.03008 0.0
C421 C 0.87924 0.34021 0.99545 0.0
C422 C 0.90053 0.3916 0.04073 0.0
C423 C 0.92797 0.40721 0.01763 0.0
H424 H 0.85779 0.34635 0.05117 0.0
H425 H 0.89985 0.40341 0.07037 0.0
S426 S 0.94132 0.3736 0.91793 0.0
N427 N 0.90732 0.34277 0.93266 0.0
N428 N 0.9528 0.40488 0.95402 0.0
C429 C 0.92816 0.39111 0.97962 0.0
C430 C 0.90366 0.35739 0.96832 0.0
C431 C 0.65627 0.55836 0.05904 0.0
C432 C 0.67705 0.55803 0.02888 0.0
C433 C 0.62265 0.54252 0.05058 0.0
C434 C 0.60883 0.52623 0.01149 0.0
H435 H 0.66616 0.57222 0.0888 0.0
H436 H 0.60788 0.54541 0.07364 0.0
S437 S 0.65179 0.51547 0.92297 0.0
N438 N 0.68055 0.53751 0.95927 0.0
N439 N 0.61777 0.50815 0.94365 0.0
C440 C 0.62897 0.52374 0.98212 0.0
C441 C 0.663 0.53958 0.99069 0.0
C442 C 0.44555 0.0938 0.97591 0.0
C443 C 0.46766 0.12544 0.99536 0.0
C444 C 0.45013 0.06692 0.97892 0.0
C445 C 0.47652 0.07069 0.00235 0.0
H446 H 0.42315 0.08915 0.96137 0.0
H447 H 0.43058 0.0423 0.96788 0.0
S448 S 0.54454 0.14956 0.05191 0.0
N449 N 0.51981 0.16022 0.03239 0.0
N450 N 0.52784 0.10924 0.03897 0.0
C451 C 0.50103 0.10294 0.01682 0.0
C452 C 0.49658 0.1305 0.01343 0.0
C453 C 0.6565 0.1174 0.05 0.0
C454 C 0.67155 0.13476 0.01612 0.0
C455 C 0.62471 0.08974 0.04572 0.0
C456 C 0.60769 0.07843 0.00721 0.0
H457 H 0.66946 0.12504 0.07969 0.0
H458 H 0.61406 0.07631 0.07199 0.0
S459 S 0.63717 0.11456 0.90928 0.0
N460 N 0.66718 0.13853 0.94339 0.0
N461 N 0.60844 0.08644 0.93505 0.0
C462 C 0.62264 0.09588 0.97356 0.0
C463 C 0.65435 0.12407 0.97806 0.0
C464 C 0.90615 0.56697 0.06685 0.0
C465 C 0.87741 0.54289 0.04464 0.0
C466 C 0.93303 0.5629 0.0693 0.0
C467 C 0.93219 0.53452 0.04993 0.0
H468 H 0.90876 0.5902 0.08012 0.0
H469 H 0.95552 0.58338 0.08349 0.0
S470 S 0.86144 0.46173 0.99375 0.0
N471 N 0.84854 0.48757 0.00753 0.0
N472 N 0.89927 0.48021 0.01218 0.0
C473 C 0.90271 0.50875 0.03139 0.0
C474 C 0.87527 0.51291 0.02863 0.0
C475 C 0.50692 0.35716 0.02112 0.0
C476 C 0.5142 0.35296 0.98038 0.0
C477 C 0.49966 0.38163 0.03394 0.0
C478 C 0.49937 0.40298 0.00668 0.0
H479 H 0.50485 0.34023 0.04287 0.0
H480 H 0.49225 0.38245 0.06504 0.0
S481 S 0.52465 0.40764 0.89989 0.0
N482 N 0.52648 0.376 0.9148 0.0
N483 N 0.51243 0.42219 0.9393 0.0
C484 C 0.50997 0.40153 0.96721 0.0
C485 C 0.51743 0.37639 0.95395 0.0
C486 C 0.13218 0.61994 0.05534 0.0
C487 C 0.15388 0.63846 0.02615 0.0
C488 C 0.1005 0.59485 0.04346 0.0
C489 C 0.08977 0.58767 0.00217 0.0
H490 H 0.13864 0.62678 0.08785 0.0
H491 H 0.08343 0.58419 0.06699 0.0
S492 S 0.13894 0.62142 0.91303 0.0
N493 N 0.164 0.64239 0.95338 0.0
N494 N 0.10423 0.595 0.93148 0.0
C495 C 0.11229 0.60224 0.97239 0.0
C496 C 0.14453 0.62787 0.9843 0.0
C497 C 0.34734 0.44543 0.96998 0.0
C498 C 0.3384 0.45994 0.00302 0.0
C499 C 0.37928 0.45194 0.96747 0.0
C500 C 0.40335 0.47333 0.99773 0.0
H501 H 0.32928 0.42793 0.94673 0.0
H502 H 0.38465 0.43847 0.94325 0.0
S503 S 0.39263 0.51729 0.09055 0.0
N504 N 0.35656 0.49691 0.0664 0.0
N505 N 0.41626 0.50902 0.06153 0.0
C506 C 0.39502 0.48897 0.02994 0.0
C507 C 0.36265 0.48237 0.0326 0.0
C508 C 0.4995 0.86387 0.01095 0.0
C509 C 0.53028 0.86908 0.02189 0.0
C510 C 0.49553 0.8905 0.00258 0.0
C511 C 0.52203 0.92308 0.00632 0.0
H512 H 0.47895 0.83889 0.00529 0.0
H513 H 0.47252 0.88519 0.98928 0.0
S514 S 0.6062 0.95069 0.04038 0.0
N515 N 0.58677 0.90996 0.04042 0.0
N516 N 0.5787 0.95967 0.02674 0.0
C517 C 0.55181 0.92889 0.0221 0.0
C518 C 0.5562 0.90195 0.02914 0.0
C519 C 0.02891 0.20842 0.31803 0.0
C520 C 0.00306 0.20668 0.33999 0.0
C521 C 0.06069 0.23526 0.32692 0.0
C522 C 0.06755 0.26069 0.35863 0.0
H523 H 0.02445 0.18931 0.29353 0.0
H524 H 0.07992 0.23606 0.3089 0.0
S525 S 0.00736 0.26539 0.42624 0.0
N526 N 0.98592 0.23125 0.39492 0.0
N527 N 0.04499 0.28105 0.41263 0.0
C528 C 0.04152 0.25836 0.38119 0.0
C529 C 0.00945 0.23151 0.3716 0.0
C530 C 0.79985 0.80717 0.33781 0.0
C531 C 0.78486 0.77394 0.32046 0.0
C532 C 0.78207 0.82338 0.34324 0.0
C533 C 0.74925 0.80718 0.33008 0.0
H534 H 0.82453 0.81966 0.35056 0.0
H535 H 0.7933 0.84764 0.36058 0.0
S536 S 0.70001 0.72146 0.27935 0.0
N537 N 0.73614 0.72632 0.28777 0.0
N538 N 0.70321 0.75719 0.29646 0.0
C539 C 0.73494 0.77505 0.30956 0.0
C540 C 0.75265 0.75829 0.30513 0.0
C541 C 0.19946 0.98619 0.36791 0.0
C542 C 0.21337 0.00913 0.33844 0.0
C543 C 0.19912 0.95593 0.36391 0.0
C544 C 0.21282 0.94786 0.33039 0.0
H545 H 0.18997 0.99221 0.39517 0.0
H546 H 0.18971 0.93973 0.3881 0.0
S547 S 0.24809 0.99687 0.24184 0.0
N548 N 0.23823 0.01972 0.2726 0.0
N549 N 0.23699 0.96313 0.26463 0.0
C550 C 0.22459 0.96947 0.2993 0.0
C551 C 0.22505 5e-05 0.30341 0.0
C552 C 0.55754 0.68524 0.32085 0.0
C553 C 0.54477 0.66533 0.35354 0.0
C554 C 0.58567 0.71682 0.3269 0.0
C555 C 0.60145 0.7293 0.36587 0.0
H556 H 0.54714 0.67552 0.2899 0.0
H557 H 0.59635 0.73025 0.30063 0.0
S558 S 0.57504 0.68986 0.46259 0.0
N559 N 0.54812 0.66263 0.42705 0.0
N560 N 0.60018 0.72176 0.43837 0.0
C561 C 0.5871 0.71107 0.39928 0.0
C562 C 0.55894 0.6791 0.39317 0.0
C563 C 0.3301 0.90807 0.3929 0.0
C564 C 0.34666 0.89383 0.3725 0.0
C565 C 0.29628 0.89257 0.38885 0.0
C566 C 0.27785 0.8624 0.3641 0.0
H567 H 0.3434 0.9324 0.40997 0.0
H568 H 0.28485 0.90587 0.40186 0.0
S569 S 0.30828 0.81209 0.30952 0.0
N570 N 0.34111 0.84526 0.33118 0.0
N571 N 0.27769 0.81698 0.32279 0.0
C572 C 0.29362 0.8465 0.34655 0.0
C573 C 0.32801 0.86198 0.351 0.0
C574 C 0.16012 0.46835 0.34949 0.0
C575 C 0.12766 0.45967 0.34265 0.0
C576 C 0.16821 0.4439 0.35404 0.0
C577 C 0.14422 0.41016 0.35085 0.0
H578 H 0.17895 0.49419 0.35506 0.0
H579 H 0.19271 0.45165 0.36435 0.0
S580 S 0.05669 0.37432 0.32624 0.0
N581 N 0.07215 0.41478 0.32757 0.0
N582 N 0.08756 0.36912 0.33536 0.0
C583 C 0.1124 0.40115 0.33928 0.0
C584 C 0.10402 0.42586 0.33555 0.0
C585 C 0.3188 0.45519 0.38334 0.0
C586 C 0.33866 0.46672 0.35001 0.0
C587 C 0.2878 0.4264 0.37773 0.0
C588 C 0.27636 0.40826 0.3388 0.0
H589 H 0.32738 0.46822 0.41375 0.0
H590 H 0.27329 0.41771 0.40405 0.0
S591 S 0.31905 0.42992 0.24191 0.0
N592 N 0.3445 0.45905 0.27718 0.0
N593 N 0.28686 0.4054 0.26634 0.0
C594 C 0.29597 0.42041 0.30536 0.0
C595 C 0.32702 0.44952 0.31107 0.0
C596 C 0.55138 0.85106 0.36395 0.0
C597 C 0.55376 0.88168 0.37704 0.0
C598 C 0.57775 0.84631 0.36885 0.0
C599 C 0.60745 0.87204 0.38705 0.0
H600 H 0.52969 0.83124 0.34737 0.0
H601 H 0.57576 0.82356 0.35474 0.0
S602 S 0.62499 0.95494 0.43268 0.0
N603 N 0.58728 0.93663 0.41381 0.0
N604 N 0.63651 0.92747 0.42315 0.0
C605 C 0.60911 0.90148 0.40399 0.0
C606 C 0.58242 0.90644 0.39881 0.0
C607 C 0.18646 0.71125 0.30392 0.0
C608 C 0.15939 0.6867 0.27925 0.0
C609 C 0.1863 0.73879 0.32431 0.0
C610 C 0.15943 0.74274 0.31969 0.0
H611 H 0.2066 0.70776 0.31032 0.0
H612 H 0.20588 0.75529 0.34653 0.0
S613 S 0.0845 0.68771 0.25501 0.0
N614 N 0.10647 0.66989 0.24861 0.0
N615 N 0.10665 0.72185 0.2862 0.0
C616 C 0.13371 0.72004 0.29225 0.0
C617 C 0.13353 0.69187 0.27223 0.0
C618 C 0.80405 0.95183 0.37591 0.0
C619 C 0.81793 0.98423 0.3646 0.0
C620 C 0.77501 0.92578 0.35654 0.0
C621 C 0.75913 0.93129 0.3248 0.0
H622 H 0.81537 0.94686 0.40058 0.0
H623 H 0.76417 0.90165 0.36786 0.0
S624 S 0.78822 0.01134 0.28029 0.0
N625 N 0.81511 0.02003 0.31775 0.0
N626 N 0.76215 0.97129 0.27951 0.0
C627 C 0.77464 0.96315 0.3107 0.0
C628 C 0.8036 0.98963 0.33112 0.0
C629 C 0.03164 0.81911 0.34744 0.0
C630 C 0.00657 0.78876 0.32785 0.0
C631 C 0.06406 0.82705 0.34737 0.0
C632 C 0.07261 0.80515 0.32724 0.0
H633 H 0.02607 0.83601 0.36517 0.0
H634 H 0.08214 0.84914 0.36593 0.0
S635 S 0.01742 0.72496 0.26654 0.0
N636 N 0.99344 0.73849 0.28383 0.0
N637 N 0.05432 0.75357 0.28416 0.0
C638 C 0.04829 0.77605 0.30498 0.0
C639 C 0.01528 0.76781 0.30511 0.0
C640 C 0.15866 0.19011 0.34875 0.0
C641 C 0.186 0.19522 0.37138 0.0
C642 C 0.15633 0.21715 0.33808 0.0
C643 C 0.18083 0.24992 0.35067 0.0
H644 H 0.14065 0.16537 0.33571 0.0
H645 H 0.13723 0.21248 0.31612 0.0
S646 S 0.25365 0.27611 0.41743 0.0
N647 N 0.23557 0.2352 0.41092 0.0
N648 N 0.23032 0.28575 0.39219 0.0
C649 C 0.2059 0.255 0.37774 0.0
C650 C 0.20887 0.22769 0.38756 0.0
C651 C 0.69514 0.52771 0.64655 0.0
C652 C 0.66815 0.52874 0.66153 0.0
C653 C 0.72658 0.5557 0.65311 0.0
C654 C 0.73188 0.58484 0.67631 0.0
H655 H 0.69195 0.50518 0.62994 0.0
H656 H 0.7468 0.5541 0.64134 0.0
S657 S 0.6688 0.60003 0.72063 0.0
N658 N 0.64854 0.56155 0.69853 0.0
N659 N 0.70713 0.6134 0.7121 0.0
C660 C 0.70479 0.58616 0.69034 0.0
C661 C 0.67305 0.55825 0.68275 0.0
C662 C 0.46619 0.14726 0.69166 0.0
C663 C 0.4611 0.12037 0.66344 0.0
C664 C 0.44259 0.15624 0.69646 0.0
C665 C 0.41333 0.13895 0.67285 0.0
H666 H 0.48757 0.16006 0.71229 0.0
H667 H 0.44619 0.17505 0.72097 0.0
S668 S 0.38971 0.07039 0.59051 0.0
N669 N 0.42581 0.07931 0.60801 0.0
N670 N 0.38157 0.09645 0.61748 0.0
C671 C 0.40902 0.11416 0.64208 0.0
C672 C 0.43297 0.10486 0.63713 0.0
C673 C 0.85337 0.31582 0.65552 0.0
C674 C 0.86995 0.33382 0.6928 0.0
C675 C 0.84654 0.2833 0.64544 0.0
C676 C 0.85674 0.26792 0.67181 0.0
H677 H 0.84778 0.32768 0.63261 0.0
H678 H 0.83692 0.27169 0.61464 0.0
S679 S 0.89349 0.30096 0.777 0.0
N680 N 0.89006 0.3311 0.75986 0.0
N681 N 0.8787 0.27044 0.73942 0.0
C682 C 0.86955 0.28391 0.71107 0.0
C683 C 0.87593 0.31688 0.72189 0.0
C684 C 0.20746 0.02403 0.69465 0.0
C685 C 0.21146 0.00487 0.66234 0.0
C686 C 0.23079 0.05752 0.7044 0.0
C687 C 0.25913 0.07258 0.68278 0.0
H688 H 0.18778 0.01246 0.71486 0.0
H689 H 0.22899 0.07011 0.73276 0.0
S690 S 0.27692 0.03607 0.58898 0.0
N691 N 0.24237 0.0056 0.60304 0.0
N692 N 0.28654 0.06847 0.62253 0.0
C693 C 0.26076 0.0554 0.64652 0.0
C694 C 0.23694 0.02128 0.63625 0.0
C695 C 0.99944 0.22559 0.65109 0.0
C696 C 0.01001 0.22751 0.69174 0.0
C697 C 0.9671 0.21442 0.64061 0.0
C698 C 0.94354 0.20448 0.67019 0.0
H699 H 0.01649 0.23403 0.62712 0.0
H700 H 0.96085 0.21464 0.60894 0.0
S701 S 0.95765 0.19954 0.78002 0.0
N702 N 0.99382 0.21499 0.76118 0.0
N703 N 0.93255 0.19363 0.74136 0.0
C704 C 0.95327 0.20412 0.71061 0.0
C705 C 0.98659 0.21584 0.72142 0.0
C706 C 0.80909 0.78361 0.66319 0.0
C707 C 0.80142 0.7997 0.69587 0.0
C708 C 0.81161 0.75554 0.66875 0.0
C709 C 0.807 0.74335 0.7073 0.0
H710 H 0.81153 0.79171 0.63283 0.0
H711 H 0.81543 0.74241 0.64253 0.0
S712 S 0.79244 0.78068 0.80398 0.0
N713 N 0.79303 0.80376 0.76863 0.0
N714 N 0.79913 0.75263 0.77972 0.0
C715 C 0.80207 0.76119 0.7407 0.0
C716 C 0.79884 0.78891 0.73483 0.0
C717 C 0.98514 0.78314 0.72021 0.0
C718 C 0.00241 0.79865 0.68636 0.0
C719 C 0.95376 0.7549 0.71457 0.0
C720 C 0.93943 0.74107 0.67488 0.0
H721 H 0.99601 0.79271 0.75099 0.0
H722 H 0.94134 0.74306 0.74109 0.0
S723 S 0.97528 0.77257 0.57674 0.0
N724 N 0.00297 0.79849 0.61245 0.0
N725 N 0.94492 0.74546 0.60162 0.0
C726 C 0.95658 0.75684 0.64115 0.0
C727 C 0.98789 0.78561 0.64693 0.0
C728 C 0.22595 0.20986 0.73228 0.0
C729 C 0.21012 0.20721 0.69471 0.0
C730 C 0.25307 0.20576 0.73328 0.0
C731 C 0.26497 0.19917 0.69669 0.0
H732 H 0.21781 0.21589 0.76081 0.0
H733 H 0.26567 0.20939 0.76242 0.0
S734 S 0.23391 0.19312 0.59079 0.0
N735 N 0.2093 0.19924 0.62048 0.0
N736 N 0.25992 0.19172 0.62228 0.0
C737 C 0.24906 0.19622 0.65923 0.0
C738 C 0.22169 0.20021 0.65824 0.0
C739 C 0.81093 0.03427 0.60905 0.0
C740 C 0.83412 0.02584 0.61906 0.0
C741 C 0.8115 0.06198 0.62947 0.0
C742 C 0.83492 0.08181 0.66102 0.0
H743 H 0.79113 0.01827 0.58687 0.0
H744 H 0.79159 0.06595 0.62334 0.0
S745 S 0.90218 0.0719 0.69717 0.0
N746 N 0.88267 0.04107 0.66049 0.0
N747 N 0.8829 0.09273 0.69981 0.0
C748 C 0.85944 0.07503 0.66956 0.0
C749 C 0.85925 0.04707 0.64831 0.0
C750 C 0.46325 0.29662 0.73147 0.0
C751 C 0.48808 0.30887 0.70368 0.0
C752 C 0.43251 0.26991 0.71933 0.0
C753 C 0.42572 0.2543 0.67932 0.0
H754 H 0.46659 0.30944 0.76182 0.0
H755 H 0.41304 0.26422 0.73977 0.0
S756 S 0.48335 0.27167 0.59727 0.0
N757 N 0.50491 0.2996 0.63605 0.0
N758 N 0.44669 0.24895 0.61368 0.0
C759 C 0.45106 0.26344 0.65275 0.0
C760 C 0.48246 0.29091 0.66484 0.0
C761 C 0.67295 0.08821 0.65652 0.0
C762 C 0.6664 0.11413 0.66478 0.0
C763 C 0.70472 0.09433 0.65752 0.0
C764 C 0.73133 0.12666 0.66599 0.0
H765 H 0.65335 0.06271 0.65096 0.0
H766 H 0.70846 0.0734 0.65329 0.0
S767 S 0.7281 0.20368 0.68666 0.0
N768 N 0.6898 0.17389 0.67941 0.0
N769 N 0.74948 0.18514 0.68072 0.0
C770 C 0.72546 0.15306 0.67193 0.0
C771 C 0.69301 0.14686 0.67148 0.0
C772 C 0.88046 0.56102 0.71314 0.0
C773 C 0.85463 0.52848 0.70289 0.0
C774 C 0.87846 0.58839 0.70351 0.0
C775 C 0.85091 0.58414 0.68241 0.0
H776 H 0.90319 0.56532 0.72613 0.0
H777 H 0.90007 0.61275 0.70815 0.0
S778 S 0.77493 0.50459 0.65453 0.0
N779 N 0.79885 0.49385 0.67619 0.0
N780 N 0.79595 0.54547 0.65625 0.0
C781 C 0.8238 0.5521 0.67589 0.0
C782 C 0.8255 0.52415 0.68649 0.0
C783 C 0.50127 0.94577 0.18529 0.0
C784 C 0.50523 0.9657 0.22213 0.0
C785 C 0.50525 0.95848 0.14705 0.0
C786 C 0.51374 0.99163 0.14465 0.0
H787 H 0.4925 0.91955 0.18576 0.0
H788 H 0.49884 0.94156 0.11935 0.0
S789 S 0.5335 0.05558 0.2326 0.0
N790 N 0.52252 0.02117 0.25399 0.0
N791 N 0.53115 0.04535 0.18269 0.0
C792 C 0.52125 0.01256 0.18157 0.0
C793 C 0.51656 -0.00049 0.22019 0.0
C794 C 0.04496 0.54037 0.22687 0.0
C795 C 0.07726 0.54764 0.22992 0.0
C796 C 0.0286 0.53381 0.18864 0.0
C797 C 0.04409 0.53496 0.15202 0.0
H798 H 0.03145 0.53749 0.25416 0.0
H799 H 0.00291 0.52502 0.18769 0.0
S800 S 0.12849 0.55426 0.14251 0.0
N801 N 0.12407 0.55629 0.19238 0.0
N802 N 0.09375 0.54578 0.12083 0.0
C803 C 0.07699 0.54489 0.15454 0.0
C804 C 0.09349 0.55074 0.19343 0.0
C805 C 0.51056 0.54852 0.20318 0.0
C806 C 0.4796 0.53237 0.21927 0.0
C807 C 0.51533 0.54021 0.16246 0.0
C808 C 0.48925 0.51525 0.13713 0.0
H809 H 0.53129 0.5671 0.2225 0.0
H810 H 0.5396 0.55191 0.15163 0.0
S811 S 0.40371 0.46585 0.16451 0.0
N812 N 0.42273 0.49099 0.20633 0.0
N813 N 0.43152 0.47522 0.13044 0.0
C814 C 0.45812 0.49999 0.15253 0.0
C815 C 0.4533 0.50855 0.19348 0.0
C816 C 0.92661 0.44739 0.84038 0.0
C817 C 0.94423 0.46596 0.80845 0.0
C818 C 0.93967 0.45615 0.88092 0.0
C819 C 0.97062 0.48376 0.89035 0.0
H820 H 0.90206 0.42684 0.83426 0.0
H821 H 0.92468 0.44292 0.90518 0.0
S822 S 0.02773 0.53844 0.81793 0.0
N823 N 0.9952 0.51145 0.7889 0.0
N824 N 0.01966 0.52774 0.86495 0.0
C825 C 0.98933 0.50083 0.85837 0.0
C826 C 0.97615 0.492 0.81733 0.0
C827 C 0.55334 0.49391 0.81102 0.0
C828 C 0.5351 0.46076 0.79455 0.0
C829 C 0.54484 0.50501 0.84717 0.0
C830 C 0.5175 0.48351 0.86815 0.0
H831 H 0.57498 0.51114 0.79664 0.0
H832 H 0.56051 0.53069 0.85935 0.0
S833 S 0.45906 0.39535 0.83341 0.0
N834 N 0.48702 0.40694 0.79912 0.0
N835 N 0.47033 0.42828 0.8669 0.0
C836 C 0.49811 0.4506 0.85077 0.0
C837 C 0.5071 0.43912 0.81398 0.0
C838 C 0.53754 0.06522 0.83177 0.0
C839 C 0.5129 0.04817 0.80052 0.0
C840 C 0.53293 0.05551 0.87153 0.0
C841 C 0.50369 0.02827 0.88162 0.0
H842 H 0.56116 0.0852 0.82512 0.0
H843 H 0.55335 0.0676 0.89363 0.0
S844 S 0.42969 0.97889 0.81392 0.0
N845 N 0.45633 0.0056 0.78458 0.0
N846 N 0.44859 0.98699 0.85929 0.0
C847 C 0.47802 0.01286 0.85203 0.0
C848 C 0.48241 0.02289 0.81148 0.0
C849 C 0.18821 0.32964 0.55409 0.0
C850 C 0.16919 0.29534 0.55657 0.0
C851 C 0.19541 0.34248 0.51605 0.0
C852 C 0.18336 0.32161 0.47892 0.0
H853 H 0.19649 0.34679 0.58175 0.0
H854 H 0.20851 0.3692 0.51574 0.0
S855 S 0.1334 0.22976 0.46874 0.0
N856 N 0.13991 0.24048 0.51874 0.0
N857 N 0.15272 0.26474 0.44721 0.0
C858 C 0.16598 0.28712 0.48094 0.0
C859 C 0.15894 0.27397 0.5198 0.0
C860 C 0.70733 0.85836 0.55781 0.0
C861 C 0.74124 0.87905 0.5609 0.0
C862 C 0.68979 0.85046 0.5204 0.0
C863 C 0.70533 0.86279 0.48433 0.0
H864 H 0.69422 0.84647 0.58394 0.0
H865 H 0.66412 0.83237 0.51909 0.0
S866 S 0.79225 0.92355 0.4772 0.0
N867 N 0.78863 0.91602 0.5256 0.0
N868 N 0.75556 0.90088 0.45511 0.0
C869 C 0.73848 0.88631 0.48766 0.0
C870 C 0.75649 0.89437 0.52595 0.0
C871 C 0.17937 0.87981 0.54636 0.0
C872 C 0.14759 0.86748 0.55934 0.0
C873 C 0.18514 0.87355 0.50545 0.0
C874 C 0.15931 0.85506 0.47632 0.0
H875 H 0.19992 0.89361 0.56819 0.0
H876 H 0.20967 0.88146 0.49719 0.0
S877 S 0.07197 0.8184 0.49354 0.0
N878 N 0.0902 0.83691 0.53888 0.0
N879 N 0.1012 0.82563 0.46221 0.0
C880 C 0.12768 0.84416 0.48832 0.0
C881 C 0.12174 0.85023 0.5298 0.0
C882 C 0.62568 0.79074 0.15896 0.0
C883 C 0.60269 0.79802 0.14407 0.0
C884 C 0.63625 0.7983 0.20063 0.0
C885 C 0.62438 0.81372 0.22833 0.0
H886 H 0.63617 0.77997 0.13813 0.0
H887 H 0.65526 0.79408 0.21055 0.0
S888 S 0.56245 0.8359 0.20502 0.0
N889 N 0.56737 0.81992 0.16066 0.0
N890 N 0.58664 0.83356 0.23855 0.0
C891 C 0.60001 0.81923 0.21408 0.0
C892 C 0.58938 0.81163 0.172 0.0
C893 C 0.19163 0.77649 0.16619 0.0
C894 C 0.20477 0.79625 0.13351 0.0
C895 C 0.18374 0.78857 0.20257 0.0
C896 C 0.18872 0.82088 0.20756 0.0
H897 H 0.18801 0.75169 0.16398 0.0
H898 H 0.17498 0.77301 0.22745 0.0
S899 S 0.22191 0.88229 0.13027 0.0
N900 N 0.22198 0.84939 0.10832 0.0
N901 N 0.20635 0.87186 0.17506 0.0
C902 C 0.20051 0.84026 0.17404 0.0
C903 C 0.2088 0.82807 0.13751 0.0
C904 C 0.19505 0.39398 0.17023 0.0
C905 C 0.18224 0.37255 0.13368 0.0
C906 C 0.18804 0.38169 0.20877 0.0
C907 C 0.16846 0.34749 0.21196 0.0
H908 H 0.21121 0.42034 0.16902 0.0
H909 H 0.20014 0.39872 0.23599 0.0
S910 S 0.12835 0.28121 0.1257 0.0
N911 N 0.14774 0.31577 0.10328 0.0
N912 N 0.13565 0.29262 0.1755 0.0
C913 C 0.15449 0.32607 0.1757 0.0
C914 C 0.16112 0.33859 0.1366 0.0
C915 C 0.85239 0.66074 0.88522 0.0
C916 C 0.83274 0.62682 0.8897 0.0
C917 C 0.85814 0.6721 0.84626 0.0
C918 C 0.84414 0.65002 0.81036 0.0
H919 H 0.8623 0.67875 0.91205 0.0
H920 H 0.87173 0.69864 0.84432 0.0
S921 S 0.79001 0.55892 0.80568 0.0
N922 N 0.79945 0.57121 0.85509 0.0
N923 N 0.80977 0.59272 0.78194 0.0
C924 C 0.82559 0.61592 0.81435 0.0
C925 C 0.81991 0.6043 0.85405 0.0
C926 C 0.37322 0.19711 0.89555 0.0
C927 C 0.40736 0.21424 0.89831 0.0
C928 C 0.35591 0.18911 0.85783 0.0
C929 C 0.37194 0.19811 0.82126 0.0
H930 H 0.35951 0.18746 0.92222 0.0
H931 H 0.32985 0.17304 0.85679 0.0
S932 S 0.46035 0.24867 0.81185 0.0
N933 N 0.45597 0.24467 0.86124 0.0
N934 N 0.42335 0.22861 0.79045 0.0
C935 C 0.40567 0.21837 0.82395 0.0
C936 C 0.42341 0.22665 0.86247 0.0
C937 C 0.79393 0.19714 0.855 0.0
C938 C 0.8195 0.21147 0.88507 0.0
C939 C 0.79932 0.1917 0.81385 0.0
C940 C 0.8304 0.20038 0.80125 0.0
H941 H 0.76929 0.18817 0.86356 0.0
H942 H 0.77853 0.17774 0.79235 0.0
S943 S 0.9065 0.24569 0.86588 0.0
N944 N 0.878 0.23992 0.89796 0.0
N945 N 0.88764 0.22851 0.82046 0.0
C946 C 0.85657 0.21767 0.83005 0.0
C947 C 0.85121 0.22344 0.87206 0.0
C948 C 0.26026 0.11573 0.50782 0.0
C949 C 0.27868 0.1315 0.47472 0.0
C950 C 0.27439 0.12331 0.54771 0.0
C951 C 0.30731 0.1468 0.55545 0.0
H952 H 0.23445 0.09866 0.50327 0.0
H953 H 0.25901 0.11297 0.57292 0.0
S954 S 0.36696 0.19212 0.47967 0.0
N955 N 0.3324 0.16934 0.45237 0.0
N956 N 0.35863 0.18324 0.52729 0.0
C957 C 0.32647 0.16046 0.52235 0.0
C958 C 0.31224 0.15296 0.48191 0.0
C959 C 0.87175 0.11687 0.49978 0.0
C960 C 0.8622 0.12182 0.46165 0.0
C961 C 0.86019 0.1237 0.5366 0.0
C962 C 0.83886 0.13595 0.5365 0.0
H963 H 0.89018 0.11019 0.50165 0.0
H964 H 0.8705 0.12253 0.56537 0.0
S965 S 0.80256 0.14824 0.4448 0.0
N966 N 0.8269 0.1357 0.42604 0.0
N967 N 0.80565 0.14886 0.49507 0.0
C968 C 0.82701 0.13819 0.49845 0.0
C969 C 0.83871 0.13127 0.46109 0.0
C970 C 0.87373 0.72623 0.5006 0.0
C971 C 0.85165 0.70882 0.46674 0.0
C972 C 0.86717 0.71487 0.53954 0.0
C973 C 0.83848 0.68551 0.54608 0.0
H974 H 0.89671 0.74834 0.49686 0.0
H975 H 0.88569 0.7279 0.5641 0.0
S976 S 0.77145 0.63211 0.46918 0.0
N977 N 0.79844 0.66202 0.44356 0.0
N978 N 0.78707 0.64025 0.51661 0.0
C979 C 0.81554 0.66872 0.51324 0.0
C980 C 0.82186 0.68051 0.47363 0.0
loop_
_geom_bond_atom_site_label_1
_geom_bond_atom_site_label_2
_geom_bond_distance
_geom_bond_site_symmetry_2
_ccdc_geom_bond_type
O0 Cd1 2.300 . S
O0 C7 1.275 . S
Cd1 O0 2.300 . S
Cd1 O9 2.381 . S
Cd1 O10 2.378 . S
O2 Cd3 2.385 . S
O2 C7 1.255 . S
Cd3 O2 2.385 . S
Cd3 O4 2.317 . S
O4 Cd3 2.317 . S
O4 C5 1.232 . S
C5 O4 1.232 . S
C5 O6 1.218 . S
O6 C5 1.218 . S
C7 O0 1.275 . S
C7 O2 1.255 . S
C8 O9 1.258 . S
C8 O10 1.256 . S
O9 Cd1 2.381 . S
O9 C8 1.258 . S
O10 Cd1 2.378 . S
O10 C8 1.256 . S
O11 Cd12 2.300 . S
O11 C18 1.275 . S
Cd12 O11 2.300 . S
Cd12 O20 2.381 . S
Cd12 O21 2.378 . S
O13 Cd14 2.385 . S
O13 C18 1.255 . S
Cd14 O13 2.385 . S
Cd14 O15 2.317 . S
O15 Cd14 2.317 . S
O15 C16 1.232 . S
C16 O15 1.232 . S
C16 O17 1.218 . S
O17 C16 1.218 . S
C18 O11 1.275 . S
C18 O13 1.255 . S
C19 O20 1.258 . S
C19 O21 1.256 . S
O20 Cd12 2.381 . S
O20 C19 1.258 . S
O21 Cd12 2.378 . S
O21 C19 1.256 . S
O22 Cd23 2.300 . S
O22 C29 1.275 . S
Cd23 O22 2.300 . S
Cd23 O31 2.381 . S
Cd23 O32 2.378 . S
O24 Cd25 2.385 . S
O24 C29 1.255 . S
Cd25 O24 2.385 . S
Cd25 O26 2.317 . S
O26 Cd25 2.317 . S
O26 C27 1.232 . S
C27 O26 1.232 . S
C27 O28 1.218 . S
O28 C27 1.218 . S
C29 O22 1.275 . S
C29 O24 1.255 . S
C30 O31 1.258 . S
C30 O32 1.256 . S
O31 Cd23 2.381 . S
O31 C30 1.258 . S
O32 Cd23 2.378 . S
O32 C30 1.256 . S
O33 Cd34 2.300 . S
O33 C40 1.275 . S
Cd34 O33 2.300 . S
Cd34 O42 2.381 . S
Cd34 O43 2.378 . S
O35 Cd36 2.385 . S
O35 C40 1.255 . S
Cd36 O35 2.385 . S
Cd36 O37 2.317 . S
O37 Cd36 2.317 . S
O37 C38 1.232 . S
C38 O37 1.232 . S
C38 O39 1.218 . S
O39 C38 1.218 . S
C40 O33 1.275 . S
C40 O35 1.255 . S
C41 O42 1.258 . S
C41 O43 1.256 . S
O42 Cd34 2.381 . S
O42 C41 1.258 . S
O43 Cd34 2.378 . S
O43 C41 1.256 . S
O44 Cd45 2.300 . S
O44 C51 1.275 . S
Cd45 O44 2.300 . S
Cd45 O53 2.381 . S
Cd45 O54 2.378 . S
O46 Cd47 2.385 . S
O46 C51 1.255 . S
Cd47 O46 2.385 . S
Cd47 O48 2.317 . S
O48 Cd47 2.317 . S
O48 C49 1.232 . S
C49 O48 1.232 . S
C49 O50 1.218 . S
O50 C49 1.218 . S
C51 O44 1.275 . S
C51 O46 1.255 . S
C52 O53 1.258 . S
C52 O54 1.256 . S
O53 Cd45 2.381 . S
O53 C52 1.258 . S
O54 Cd45 2.378 . S
O54 C52 1.256 . S
O55 Cd56 2.300 . S
O55 C62 1.275 . S
Cd56 O55 2.300 . S
Cd56 O64 2.381 . S
Cd56 O65 2.378 . S
O57 Cd58 2.385 . S
O57 C62 1.255 . S
Cd58 O57 2.385 . S
Cd58 O59 2.317 . S
O59 Cd58 2.317 . S
O59 C60 1.232 . S
C60 O59 1.232 . S
C60 O61 1.218 . S
O61 C60 1.218 . S
C62 O55 1.275 . S
C62 O57 1.255 . S
C63 O64 1.258 . S
C63 O65 1.256 . S
O64 Cd56 2.381 . S
O64 C63 1.258 . S
O65 Cd56 2.378 . S
O65 C63 1.256 . S
O66 Cd67 2.300 . S
O66 C73 1.275 . S
Cd67 O66 2.300 . S
Cd67 O75 2.381 . S
Cd67 O76 2.378 . S
O68 Cd69 2.385 . S
O68 C73 1.255 . S
Cd69 O68 2.385 . S
Cd69 O70 2.317 . S
O70 Cd69 2.317 . S
O70 C71 1.232 . S
C71 O70 1.232 . S
C71 O72 1.218 . S
O72 C71 1.218 . S
C73 O66 1.275 . S
C73 O68 1.255 . S
C74 O75 1.258 . S
C74 O76 1.256 . S
O75 Cd67 2.381 . S
O75 C74 1.258 . S
O76 Cd67 2.378 . S
O76 C74 1.256 . S
O77 Cd78 2.300 . S
O77 C84 1.275 . S
Cd78 O77 2.300 . S
Cd78 O86 2.381 . S
Cd78 O87 2.378 . S
O79 Cd80 2.385 . S
O79 C84 1.255 . S
Cd80 O79 2.385 . S
Cd80 O81 2.317 . S
O81 Cd80 2.317 . S
O81 C82 1.232 . S
C82 O81 1.232 . S
C82 O83 1.218 . S
O83 C82 1.218 . S
C84 O77 1.275 . S
C84 O79 1.255 . S
C85 O86 1.258 . S
C85 O87 1.256 . S
O86 Cd78 2.381 . S
O86 C85 1.258 . S
O87 Cd78 2.378 . S
O87 C85 1.256 . S
O88 Cd89 2.300 . S
O88 C95 1.275 . S
Cd89 O88 2.300 . S
Cd89 O97 2.381 . S
Cd89 O98 2.378 . S
O90 Cd91 2.385 . S
O90 C95 1.255 . S
Cd91 O90 2.385 . S
Cd91 O92 2.317 . S
O92 Cd91 2.317 . S
O92 C93 1.232 . S
C93 O92 1.232 . S
C93 O94 1.218 . S
O94 C93 1.218 . S
C95 O88 1.275 . S
C95 O90 1.255 . S
C96 O97 1.258 . S
C96 O98 1.256 . S
O97 Cd89 2.381 . S
O97 C96 1.258 . S
O98 Cd89 2.378 . S
O98 C96 1.256 . S
O99 Cd100 2.300 1_556 S
O99 C106 1.275 . S
Cd100 O99 2.300 1_554 S
Cd100 O108 2.384 . S
Cd100 O109 2.378 . S
O101 Cd102 2.385 1_556 S
O101 C106 1.255 . S
Cd102 O101 2.385 1_554 S
Cd102 O103 2.317 . S
O103 Cd102 2.317 . S
O103 C104 1.232 . S
C104 O103 1.232 . S
C104 O105 1.218 . S
O105 C104 1.218 . S
C106 O99 1.275 . S
C106 O101 1.255 . S
C107 O108 1.275 . S
C107 O109 1.256 . S
O108 Cd100 2.384 . S
O108 C107 1.275 . S
O109 Cd100 2.378 . S
O109 C107 1.256 . S
O110 Cd111 2.300 . S
O110 C117 1.275 . S
Cd111 O110 2.300 . S
Cd111 O119 2.381 1_556 S
Cd111 O120 2.378 1_556 S
O112 Cd113 2.385 . S
O112 C117 1.255 . S
Cd113 O112 2.385 . S
Cd113 O114 2.317 1_556 S
O114 Cd113 2.317 1_554 S
O114 C115 1.232 . S
C115 O114 1.232 . S
C115 O116 1.218 1_554 S
O116 C115 1.218 1_556 S
C117 O110 1.275 . S
C117 O112 1.255 . S
C118 O119 1.258 . S
C118 O120 1.256 . S
O119 Cd111 2.381 1_554 S
O119 C118 1.258 . S
O120 Cd111 2.378 1_554 S
O120 C118 1.256 . S
O121 Cd122 2.300 1_556 S
O121 C128 1.275 . S
Cd122 O121 2.300 1_554 S
Cd122 O130 2.381 1_554 S
Cd122 O131 2.378 . S
O123 Cd124 2.385 1_556 S
O123 C128 1.255 . S
Cd124 O123 2.385 1_554 S
Cd124 O125 2.317 . S
O125 Cd124 2.317 . S
O125 C126 1.232 . S
C126 O125 1.232 . S
C126 O127 1.218 . S
O127 C126 1.218 . S
C128 O121 1.275 . S
C128 O123 1.255 . S
C129 O130 1.258 1_554 S
C129 O131 1.256 . S
O130 Cd122 2.381 1_556 S
O130 C129 1.258 1_556 S
O131 Cd122 2.378 . S
O131 C129 1.256 . S
O132 Cd133 2.300 . S
O132 C139 1.275 . S
Cd133 O132 2.300 . S
Cd133 O141 2.381 . S
Cd133 O142 2.378 1_554 S
O134 Cd135 2.367 1_554 S
O134 C139 1.255 . S
Cd135 O134 2.367 1_556 S
Cd135 O136 2.321 . S
O136 Cd135 2.321 . S
O136 C137 1.232 . S
C137 O136 1.232 . S
C137 O138 1.218 1_556 S
O138 C137 1.218 1_554 S
C139 O132 1.275 . S
C139 O134 1.255 . S
C140 O141 1.258 1_556 S
C140 O142 1.256 . S
O141 Cd133 2.381 . S
O141 C140 1.258 1_554 S
O142 Cd133 2.378 1_556 S
O142 C140 1.256 . S
O143 Cd144 2.300 . S
O143 C150 1.275 . S
Cd144 O143 2.300 . S
Cd144 O152 2.381 . S
Cd144 O153 2.378 1_554 S
O145 Cd146 2.385 . S
O145 C150 1.255 . S
Cd146 O145 2.385 . S
Cd146 O147 2.317 . S
O147 Cd146 2.317 . S
O147 C148 1.232 . S
C148 O147 1.232 . S
C148 O149 1.218 . S
O149 C148 1.218 . S
C150 O143 1.275 . S
C150 O145 1.255 . S
C151 O152 1.258 1_556 S
C151 O153 1.256 . S
O152 Cd144 2.381 . S
O152 C151 1.258 1_554 S
O153 Cd144 2.378 1_556 S
O153 C151 1.256 . S
O154 Cd155 2.300 . S
O154 C161 1.275 . S
Cd155 O154 2.300 . S
Cd155 O163 2.381 . S
Cd155 O164 2.378 1_554 S
O156 Cd157 2.385 1_554 S
O156 C161 1.255 . S
Cd157 O156 2.385 1_556 S
Cd157 O158 2.317 . S
O158 Cd157 2.317 . S
O158 C159 1.242 . S
C159 O158 1.242 . S
C159 O160 1.207 1_556 S
O160 C159 1.207 1_554 S
C161 O154 1.275 . S
C161 O156 1.255 . S
C162 O163 1.258 1_556 S
C162 O164 1.256 . S
O163 Cd155 2.381 . S
O163 C162 1.258 1_554 S
O164 Cd155 2.378 1_556 S
O164 C162 1.256 . S
O165 Cd166 2.300 . S
O165 C172 1.275 . S
Cd166 O165 2.300 . S
Cd166 O174 2.381 . S
Cd166 O175 2.378 . S
O167 Cd168 2.385 . S
O167 C172 1.255 . S
Cd168 O167 2.385 . S
Cd168 O169 2.317 . S
O169 Cd168 2.317 . S
O169 C170 1.232 . S
C170 O169 1.232 . S
C170 O171 1.218 . S
O171 C170 1.218 . S
C172 O165 1.275 . S
C172 O167 1.255 . S
C173 O174 1.258 . S
C173 O175 1.256 . S
O174 Cd166 2.381 . S
O174 C173 1.258 . S
O175 Cd166 2.378 . S
O175 C173 1.256 . S
O176 Cd177 2.300 . S
O176 C183 1.275 . S
Cd177 O176 2.300 . S
Cd177 O185 2.381 . S
Cd177 O186 2.378 . S
O178 Cd179 2.385 . S
O178 C183 1.255 . S
Cd179 O178 2.385 . S
Cd179 O180 2.317 . S
O180 Cd179 2.317 . S
O180 C181 1.232 . S
C181 O180 1.232 . S
C181 O182 1.218 . S
O182 C181 1.218 . S
C183 O176 1.275 . S
C183 O178 1.255 . S
C184 O185 1.258 . S
C184 O186 1.256 . S
O185 Cd177 2.381 . S
O185 C184 1.258 . S
O186 Cd177 2.378 . S
O186 C184 1.256 . S
O187 Cd188 2.300 . S
O187 C194 1.275 . S
Cd188 O187 2.300 . S
Cd188 O196 2.381 . S
Cd188 O197 2.378 . S
O189 Cd190 2.385 . S
O189 C194 1.255 . S
Cd190 O189 2.385 . S
Cd190 O191 2.317 . S
O191 Cd190 2.317 . S
O191 C192 1.232 . S
C192 O191 1.232 . S
C192 O193 1.218 . S
O193 C192 1.218 . S
C194 O187 1.275 . S
C194 O189 1.255 . S
C195 O196 1.258 . S
C195 O197 1.256 . S
O196 Cd188 2.381 . S
O196 C195 1.258 . S
O197 Cd188 2.378 . S
O197 C195 1.256 . S
O198 Mn199 2.163 1_565 S
O198 C212 1.244 . S
Mn199 O198 2.163 1_545 S
Mn199 O202 2.160 . S
Mn199 O203 2.221 1_545 S
Mn199 O205 2.163 1_554 S
Mn199 O207 2.165 . S
Mn199 O217 2.221 . S
O200 Mn201 2.087 1_565 S
O200 C212 1.256 . S
Mn201 O200 2.087 1_545 S
Mn201 O208 2.089 1_545 S
Mn201 O217 2.290 . S
Mn201 O218 2.251 . S
O202 Mn199 2.160 . S
O202 C213 1.239 . S
O203 Mn199 2.221 1_565 S
O203 Mn204 2.290 1_554 S
O203 C214 1.278 1_554 S
Mn204 O203 2.290 1_556 S
Mn204 O206 2.089 1_565 S
Mn204 O209 2.251 . S
Mn204 O210 2.099 . S
O205 Mn199 2.163 1_556 S
O205 C215 1.244 . S
O206 Mn204 2.089 1_545 S
O206 C213 1.256 1_556 S
O207 Mn199 2.165 . S
O207 C216 1.239 1_545 S
O208 Mn201 2.089 1_565 S
O208 C216 1.256 . S
O209 Mn204 2.251 . S
O209 C214 1.241 . S
O210 Mn204 2.099 . S
O210 C215 1.238 1_565 S
C211 O217 1.278 . S
C211 O218 1.241 . S
C212 O198 1.244 . S
C212 O200 1.256 . S
C213 O202 1.239 . S
C213 O206 1.256 1_554 S
C214 O203 1.278 1_556 S
C214 O209 1.241 . S
C215 O205 1.244 . S
C215 O210 1.238 1_545 S
C216 O207 1.239 1_565 S
C216 O208 1.256 . S
O217 Mn199 2.221 . S
O217 Mn201 2.290 . S
O217 C211 1.278 . S
O218 Mn201 2.251 . S
O218 C211 1.241 . S
O219 Mn220 2.163 . S
O219 C233 1.244 . S
Mn220 O219 2.163 . S
Mn220 O223 2.160 1_455 S
Mn220 O224 2.221 . S
Mn220 O226 2.163 1_454 S
Mn220 O228 2.160 . S
Mn220 O238 2.221 1_455 S
O221 Mn222 2.104 . S
O221 C233 1.256 . S
Mn222 O221 2.104 . S
Mn222 O229 2.091 . S
Mn222 O238 2.271 1_455 S
Mn222 O239 2.240 1_455 S
O223 Mn220 2.160 1_655 S
O223 C234 1.239 . S
O224 Mn220 2.221 . S
O224 Mn225 2.290 1_554 S
O224 C235 1.278 1_554 S
Mn225 O224 2.290 1_556 S
Mn225 O227 2.089 1_455 S
Mn225 O230 2.251 . S
Mn225 O231 2.093 1_455 S
O226 Mn220 2.163 1_656 S
O226 C236 1.244 . S
O227 Mn225 2.089 1_655 S
O227 C234 1.256 1_556 S
O228 Mn220 2.160 . S
O228 C237 1.239 . S
O229 Mn222 2.091 . S
O229 C237 1.256 . S
O230 Mn225 2.251 . S
O230 C235 1.241 . S
O231 Mn225 2.093 1_655 S
O231 C236 1.255 . S
C232 O238 1.278 . S
C232 O239 1.241 . S
C233 O219 1.244 . S
C233 O221 1.256 . S
C234 O223 1.239 . S
C234 O227 1.256 1_554 S
C235 O224 1.278 1_556 S
C235 O230 1.241 . S
C236 O226 1.244 . S
C236 O231 1.255 . S
C237 O228 1.239 . S
C237 O229 1.256 . S
O238 Mn220 2.221 1_655 S
O238 Mn222 2.271 1_655 S
O238 C232 1.278 . S
O239 Mn222 2.240 1_655 S
O239 C232 1.241 . S
O240 Mn241 2.163 1_554 S
O240 C254 1.238 1_554 S
Mn241 O240 2.163 1_556 S
Mn241 O244 2.160 . S
Mn241 O245 2.221 1_556 S
Mn241 O247 2.163 1_556 S
Mn241 O249 2.160 . S
Mn241 O259 2.221 . S
O242 Mn243 2.087 . S
O242 C254 1.266 . S
Mn243 O242 2.087 . S
Mn243 O250 2.089 . S
Mn243 O259 2.290 . S
Mn243 O260 2.251 . S
O244 Mn241 2.160 . S
O244 C255 1.239 1_556 S
O245 Mn241 2.221 1_554 S
O245 Mn246 2.290 . S
O245 C256 1.278 . S
Mn246 O245 2.290 . S
Mn246 O248 2.089 . S
Mn246 O251 2.251 . S
Mn246 O252 2.087 . S
O247 Mn241 2.163 1_554 S
O247 C257 1.244 . S
O248 Mn246 2.089 . S
O248 C255 1.256 . S
O249 Mn241 2.160 . S
O249 C258 1.239 . S
O250 Mn243 2.089 . S
O250 C258 1.256 . S
O251 Mn246 2.251 . S
O251 C256 1.241 . S
O252 Mn246 2.087 . S
O252 C257 1.256 . S
C253 O259 1.278 . S
C253 O260 1.241 . S
C254 O240 1.238 1_556 S
C254 O242 1.266 . S
C255 O244 1.239 1_554 S
C255 O248 1.256 . S
C256 O245 1.278 . S
C256 O251 1.241 . S
C257 O247 1.244 . S
C257 O252 1.256 . S
C258 O249 1.239 . S
C258 O250 1.256 . S
O259 Mn241 2.221 . S
O259 Mn243 2.290 . S
O259 C253 1.278 . S
O260 Mn243 2.251 . S
O260 C253 1.241 . S
O261 Mn262 2.163 . S
O261 C275 1.244 . S
Mn262 O261 2.163 . S
Mn262 O265 2.160 . S
Mn262 O266 2.221 . S
Mn262 O268 2.163 . S
Mn262 O270 2.160 . S
Mn262 O280 2.221 . S
O263 Mn264 2.087 . S
O263 C275 1.256 . S
Mn264 O263 2.087 . S
Mn264 O271 2.089 . S
Mn264 O280 2.290 . S
Mn264 O281 2.251 . S
O265 Mn262 2.160 . S
O265 C276 1.239 . S
O266 Mn262 2.221 . S
O266 Mn267 2.290 . S
O266 C277 1.278 . S
Mn267 O266 2.290 . S
Mn267 O269 2.089 . S
Mn267 O272 2.251 . S
Mn267 O273 2.087 . S
O268 Mn262 2.163 . S
O268 C278 1.244 . S
O269 Mn267 2.089 . S
O269 C276 1.256 . S
O270 Mn262 2.160 . S
O270 C279 1.239 . S
O271 Mn264 2.089 . S
O271 C279 1.256 . S
O272 Mn267 2.251 . S
O272 C277 1.241 . S
O273 Mn267 2.087 . S
O273 C278 1.256 . S
C274 O280 1.278 . S
C274 O281 1.241 . S
C275 O261 1.244 . S
C275 O263 1.256 . S
C276 O265 1.239 . S
C276 O269 1.256 . S
C277 O266 1.278 . S
C277 O272 1.241 . S
C278 O268 1.244 . S
C278 O273 1.256 . S
C279 O270 1.239 . S
C279 O271 1.256 . S
O280 Mn262 2.221 . S
O280 Mn264 2.290 . S
O280 C274 1.278 . S
O281 Mn264 2.251 . S
O281 C274 1.241 . S
O282 Mn283 2.163 . S
O282 C296 1.244 . S
Mn283 O282 2.163 . S
Mn283 O286 2.160 . S
Mn283 O287 2.221 . S
Mn283 O289 2.163 . S
Mn283 O291 2.160 . S
Mn283 O301 2.221 . S
O284 Mn285 2.087 . S
O284 C296 1.256 . S
Mn285 O284 2.087 . S
Mn285 O292 2.089 . S
Mn285 O301 2.290 . S
Mn285 O302 2.251 . S
O286 Mn283 2.160 . S
O286 C297 1.239 . S
O287 Mn283 2.221 . S
O287 Mn288 2.290 . S
O287 C298 1.278 . S
Mn288 O287 2.290 . S
Mn288 O290 2.089 . S
Mn288 O293 2.251 . S
Mn288 O294 2.087 . S
O289 Mn283 2.163 . S
O289 C299 1.244 . S
O290 Mn288 2.089 . S
O290 C297 1.256 . S
O291 Mn283 2.160 . S
O291 C300 1.239 . S
O292 Mn285 2.089 . S
O292 C300 1.256 . S
O293 Mn288 2.251 . S
O293 C298 1.241 . S
O294 Mn288 2.087 . S
O294 C299 1.256 . S
C295 O301 1.278 . S
C295 O302 1.241 . S
C296 O282 1.244 . S
C296 O284 1.256 . S
C297 O286 1.239 . S
C297 O290 1.256 . S
C298 O287 1.278 . S
C298 O293 1.241 . S
C299 O289 1.244 . S
C299 O294 1.256 . S
C300 O291 1.239 . S
C300 O292 1.256 . S
O301 Mn283 2.221 . S
O301 Mn285 2.290 . S
O301 C295 1.278 . S
O302 Mn285 2.251 . S
O302 C295 1.241 . S
O303 Mn304 2.163 . S
O303 C317 1.244 . S
Mn304 O303 2.163 . S
Mn304 O307 2.160 . S
Mn304 O308 2.221 . S
Mn304 O310 2.163 . S
Mn304 O312 2.160 . S
Mn304 O322 2.221 . S
O305 Mn306 2.087 . S
O305 C317 1.256 . S
Mn306 O305 2.087 . S
Mn306 O313 2.089 . S
Mn306 O322 2.290 . S
Mn306 O323 2.251 . S
O307 Mn304 2.160 . S
O307 C318 1.239 . S
O308 Mn304 2.221 . S
O308 Mn309 2.290 . S
O308 C319 1.278 . S
Mn309 O308 2.290 . S
Mn309 O311 2.089 . S
Mn309 O314 2.251 . S
Mn309 O315 2.087 . S
O310 Mn304 2.163 . S
O310 C320 1.244 . S
O311 Mn309 2.089 . S
O311 C318 1.256 . S
O312 Mn304 2.160 . S
O312 C321 1.239 . S
O313 Mn306 2.089 . S
O313 C321 1.256 . S
O314 Mn309 2.251 . S
O314 C319 1.241 . S
O315 Mn309 2.087 . S
O315 C320 1.256 . S
C316 O322 1.278 . S
C316 O323 1.241 . S
C317 O303 1.244 . S
C317 O305 1.256 . S
C318 O307 1.239 . S
C318 O311 1.256 . S
C319 O308 1.278 . S
C319 O314 1.241 . S
C320 O310 1.244 . S
C320 O315 1.256 . S
C321 O312 1.239 . S
C321 O313 1.256 . S
O322 Mn304 2.221 . S
O322 Mn306 2.290 . S
O322 C316 1.278 . S
O323 Mn306 2.251 . S
O323 C316 1.241 . S
O324 Mn325 2.163 . S
O324 C338 1.244 . S
Mn325 O324 2.163 . S
Mn325 O328 2.160 . S
Mn325 O329 2.221 . S
Mn325 O331 2.163 . S
Mn325 O333 2.160 . S
Mn325 O343 2.221 . S
O326 Mn327 2.087 . S
O326 C338 1.256 . S
Mn327 O326 2.087 . S
Mn327 O334 2.089 . S
Mn327 O343 2.290 . S
Mn327 O344 2.251 . S
O328 Mn325 2.160 . S
O328 C339 1.239 . S
O329 Mn325 2.221 . S
O329 Mn330 2.290 . S
O329 C340 1.278 . S
Mn330 O329 2.290 . S
Mn330 O332 2.089 . S
Mn330 O335 2.251 . S
Mn330 O336 2.087 . S
O331 Mn325 2.163 . S
O331 C341 1.244 . S
O332 Mn330 2.089 . S
O332 C339 1.256 . S
O333 Mn325 2.160 . S
O333 C342 1.239 . S
O334 Mn327 2.089 . S
O334 C342 1.256 . S
O335 Mn330 2.251 . S
O335 C340 1.241 . S
O336 Mn330 2.087 . S
O336 C341 1.256 . S
C337 O343 1.278 . S
C337 O344 1.241 . S
C338 O324 1.244 . S
C338 O326 1.256 . S
C339 O328 1.239 . S
C339 O332 1.256 . S
C340 O329 1.278 . S
C340 O335 1.241 . S
C341 O331 1.244 . S
C341 O336 1.256 . S
C342 O333 1.239 . S
C342 O334 1.256 . S
O343 Mn325 2.221 . S
O343 Mn327 2.290 . S
O343 C337 1.278 . S
O344 Mn327 2.251 . S
O344 C337 1.241 . S
O345 Mn346 2.163 . S
O345 C359 1.244 . S
Mn346 O345 2.163 . S
Mn346 O349 2.160 . S
Mn346 O350 2.221 . S
Mn346 O352 2.163 . S
Mn346 O354 2.160 . S
Mn346 O364 2.221 . S
O347 Mn348 2.087 . S
O347 C359 1.256 . S
Mn348 O347 2.087 . S
Mn348 O355 2.089 . S
Mn348 O364 2.290 . S
Mn348 O365 2.251 . S
O349 Mn346 2.160 . S
O349 C360 1.239 . S
O350 Mn346 2.221 . S
O350 Mn351 2.290 . S
O350 C361 1.278 . S
Mn351 O350 2.290 . S
Mn351 O353 2.089 . S
Mn351 O356 2.251 . S
Mn351 O357 2.087 . S
O352 Mn346 2.163 . S
O352 C362 1.244 . S
O353 Mn351 2.089 . S
O353 C360 1.256 . S
O354 Mn346 2.160 . S
O354 C363 1.239 . S
O355 Mn348 2.089 . S
O355 C363 1.256 . S
O356 Mn351 2.251 . S
O356 C361 1.241 . S
O357 Mn351 2.087 . S
O357 C362 1.256 . S
C358 O364 1.278 . S
C358 O365 1.241 . S
C359 O345 1.244 . S
C359 O347 1.256 . S
C360 O349 1.239 . S
C360 O353 1.256 . S
C361 O350 1.278 . S
C361 O356 1.241 . S
C362 O352 1.244 . S
C362 O357 1.256 . S
C363 O354 1.239 . S
C363 O355 1.256 . S
O364 Mn346 2.221 . S
O364 Mn348 2.290 . S
O364 C358 1.278 . S
O365 Mn348 2.251 . S
O365 C358 1.241 . S
O366 Mn367 2.163 . S
O366 C380 1.244 . S
Mn367 O366 2.163 . S
Mn367 O370 2.160 . S
Mn367 O371 2.221 . S
Mn367 O373 2.163 . S
Mn367 O375 2.160 . S
Mn367 O385 2.221 . S
O368 Mn369 2.087 . S
O368 C380 1.256 . S
Mn369 O368 2.087 . S
Mn369 O376 2.089 . S
Mn369 O385 2.290 . S
Mn369 O386 2.251 . S
O370 Mn367 2.160 . S
O370 C381 1.239 . S
O371 Mn367 2.221 . S
O371 Mn372 2.290 . S
O371 C382 1.278 . S
Mn372 O371 2.290 . S
Mn372 O374 2.089 . S
Mn372 O377 2.251 . S
Mn372 O378 2.087 . S
O373 Mn367 2.163 . S
O373 C383 1.244 . S
O374 Mn372 2.089 . S
O374 C381 1.256 . S
O375 Mn367 2.160 . S
O375 C384 1.239 . S
O376 Mn369 2.089 . S
O376 C384 1.256 . S
O377 Mn372 2.251 . S
O377 C382 1.241 . S
O378 Mn372 2.087 . S
O378 C383 1.256 . S
C379 O385 1.278 . S
C379 O386 1.241 . S
C380 O366 1.244 . S
C380 O368 1.256 . S
C381 O370 1.239 . S
C381 O374 1.256 . S
C382 O371 1.278 . S
C382 O377 1.241 . S
C383 O373 1.244 . S
C383 O378 1.256 . S
C384 O375 1.239 . S
C384 O376 1.256 . S
O385 Mn367 2.221 . S
O385 Mn369 2.290 . S
O385 C379 1.278 . S
O386 Mn369 2.251 . S
O386 C379 1.241 . S
C387 C388 1.369 . S
C387 C389 1.419 . S
C387 H391 0.930 . S
C388 C387 1.369 . S
C388 C397 1.429 1_556 S
C389 C387 1.419 . S
C389 C390 1.363 1_556 S
C389 H392 0.929 . S
C390 C389 1.363 1_554 S
C390 C396 1.428 . S
H391 C387 0.930 . S
H392 C389 0.929 . S
S393 N394 1.613 . S
S393 N395 1.610 . S
N394 S393 1.613 . S
N394 C397 1.350 . S
N395 S393 1.610 . S
N395 C396 1.351 . S
C396 C390 1.428 . S
C396 N395 1.351 . S
C396 C397 1.434 . S
C397 C388 1.429 1_554 S
C397 N394 1.350 . S
C397 C396 1.434 . S
C398 C399 1.369 1_556 S
C398 C400 1.419 . S
C398 H402 0.930 . S
C399 C398 1.369 1_554 S
C399 C408 1.429 . S
C400 C398 1.419 . S
C400 C401 1.363 1_556 S
C400 H403 0.929 . S
C401 C400 1.363 1_554 S
C401 C407 1.428 . S
H402 C398 0.930 . S
H403 C400 0.929 . S
S404 N405 1.613 . S
S404 N406 1.610 . S
N405 S404 1.613 . S
N405 C408 1.350 . S
N406 S404 1.610 . S
N406 C407 1.351 . S
C407 C401 1.428 . S
C407 N406 1.351 . S
C407 C408 1.434 . S
C408 C399 1.429 . S
C408 N405 1.350 . S
C408 C407 1.434 . S
C409 C410 1.354 1_554 S
C409 C411 1.419 . S
C409 H413 0.930 . S
C410 C409 1.354 1_556 S
C410 C419 1.438 . S
C411 C409 1.419 . S
C411 C412 1.363 . S
C411 H414 0.929 . S
C412 C411 1.363 . S
C412 C418 1.428 1_554 S
H413 C409 0.930 . S
H414 C411 0.929 . S
S415 N416 1.613 . S
S415 N417 1.610 . S
N416 S415 1.613 . S
N416 C419 1.350 . S
N417 S415 1.610 . S
N417 C418 1.351 . S
C418 C412 1.428 1_556 S
C418 N417 1.351 . S
C418 C419 1.434 . S
C419 C410 1.438 . S
C419 N416 1.350 . S
C419 C418 1.434 . S
C420 C421 1.369 . S
C420 C422 1.419 . S
C420 H424 0.930 . S
C421 C420 1.369 . S
C421 C430 1.429 1_554 S
C422 C420 1.419 . S
C422 C423 1.363 . S
C422 H425 0.929 . S
C423 C422 1.363 . S
C423 C429 1.428 1_554 S
H424 C420 0.930 . S
H425 C422 0.929 . S
S426 N427 1.613 . S
S426 N428 1.610 . S
N427 S426 1.613 . S
N427 C430 1.350 . S
N428 S426 1.610 . S
N428 C429 1.351 . S
C429 C423 1.428 1_556 S
C429 N428 1.351 . S
C429 C430 1.434 . S
C430 C421 1.429 1_556 S
C430 N427 1.350 . S
C430 C429 1.434 . S
C431 C432 1.369 . S
C431 C433 1.419 . S
C431 H435 0.930 . S
C432 C431 1.369 . S
C432 C441 1.429 1_554 S
C433 C431 1.419 . S
C433 C434 1.363 . S
C433 H436 0.929 . S
C434 C433 1.363 . S
C434 C440 1.428 1_554 S
H435 C431 0.930 . S
H436 C433 0.929 . S
S437 N438 1.613 . S
S437 N439 1.610 . S
N438 S437 1.613 . S
N438 C441 1.350 . S
N439 S437 1.610 . S
N439 C440 1.351 . S
C440 C434 1.428 1_556 S
C440 N439 1.351 . S
C440 C441 1.434 . S
C441 C432 1.429 1_556 S
C441 N438 1.350 . S
C441 C440 1.434 . S
C442 C443 1.369 . S
C442 C444 1.419 . S
C442 H446 0.930 . S
C443 C442 1.369 . S
C443 C452 1.429 . S
C444 C442 1.419 . S
C444 C445 1.363 . S
C444 H447 0.929 . S
C445 C444 1.363 . S
C445 C451 1.428 . S
H446 C442 0.930 . S
H447 C444 0.929 . S
S448 N449 1.613 . S
S448 N450 1.610 . S
N449 S448 1.613 . S
N449 C452 1.350 . S
N450 S448 1.610 . S
N450 C451 1.351 . S
C451 C445 1.428 . S
C451 N450 1.351 . S
C451 C452 1.434 . S
C452 C443 1.429 . S
C452 N449 1.350 . S
C452 C451 1.434 . S
C453 C454 1.369 . S
C453 C455 1.419 . S
C453 H457 0.930 . S
C454 C453 1.369 . S
C454 C463 1.429 1_554 S
C455 C453 1.419 . S
C455 C456 1.363 . S
C455 H458 0.929 . S
C456 C455 1.363 . S
C456 C462 1.428 1_554 S
H457 C453 0.930 . S
H458 C455 0.929 . S
S459 N460 1.613 . S
S459 N461 1.610 . S
N460 S459 1.613 . S
N460 C463 1.350 . S
N461 S459 1.610 . S
N461 C462 1.351 . S
C462 C456 1.428 1_556 S
C462 N461 1.351 . S
C462 C463 1.434 . S
C463 C454 1.429 1_556 S
C463 N460 1.350 . S
C463 C462 1.434 . S
C464 C465 1.369 . S
C464 C466 1.419 . S
C464 H468 0.930 . S
C465 C464 1.369 . S
C465 C474 1.429 . S
C466 C464 1.419 . S
C466 C467 1.363 . S
C466 H469 0.929 . S
C467 C466 1.363 . S
C467 C473 1.428 . S
H468 C464 0.930 . S
H469 C466 0.929 . S
S470 N471 1.613 1_556 S
S470 N472 1.610 1_556 S
N471 S470 1.613 1_554 S
N471 C474 1.350 . S
N472 S470 1.610 1_554 S
N472 C473 1.351 . S
C473 C467 1.428 . S
C473 N472 1.351 . S
C473 C474 1.434 . S
C474 C465 1.429 . S
C474 N471 1.350 . S
C474 C473 1.434 . S
C475 C476 1.369 . S
C475 C477 1.419 . S
C475 H479 0.930 . S
C476 C475 1.369 . S
C476 C485 1.429 1_554 S
C477 C475 1.419 . S
C477 C478 1.363 . S
C477 H480 0.929 . S
C478 C477 1.363 . S
C478 C484 1.428 1_554 S
H479 C475 0.930 . S
H480 C477 0.929 . S
S481 N482 1.613 . S
S481 N483 1.610 . S
N482 S481 1.613 . S
N482 C485 1.350 . S
N483 S481 1.610 . S
N483 C484 1.351 . S
C484 C478 1.428 1_556 S
C484 N483 1.351 . S
C484 C485 1.434 . S
C485 C476 1.429 1_556 S
C485 N482 1.350 . S
C485 C484 1.434 . S
C486 C487 1.369 1_554 S
C486 C488 1.419 . S
C486 H490 0.930 . S
C487 C486 1.369 1_556 S
C487 C496 1.429 . S
C488 C486 1.419 . S
C488 C489 1.363 . S
C488 H491 0.929 . S
C489 C488 1.363 . S
C489 C495 1.428 1_554 S
H490 C486 0.930 . S
H491 C488 0.929 . S
S492 N493 1.613 . S
S492 N494 1.610 . S
N493 S492 1.613 . S
N493 C496 1.350 . S
N494 S492 1.610 . S
N494 C495 1.351 . S
C495 C489 1.428 1_556 S
C495 N494 1.351 . S
C495 C496 1.434 . S
C496 C487 1.429 . S
C496 N493 1.350 . S
C496 C495 1.434 . S
C497 C498 1.369 . S
C497 C499 1.419 . S
C497 H501 0.930 . S
C498 C497 1.369 . S
C498 C507 1.429 1_556 S
C499 C497 1.419 . S
C499 C500 1.363 . S
C499 H502 0.929 . S
C500 C499 1.363 . S
C500 C506 1.428 1_556 S
H501 C497 0.930 . S
H502 C499 0.929 . S
S503 N504 1.613 . S
S503 N505 1.610 . S
N504 S503 1.613 . S
N504 C507 1.350 . S
N505 S503 1.610 . S
N505 C506 1.351 . S
C506 C500 1.428 1_554 S
C506 N505 1.351 . S
C506 C507 1.434 . S
C507 C498 1.429 1_554 S
C507 N504 1.350 . S
C507 C506 1.434 . S
C508 C509 1.369 1_554 S
C508 C510 1.419 . S
C508 H512 0.930 . S
C509 C508 1.369 1_556 S
C509 C518 1.429 . S
C510 C508 1.419 . S
C510 C511 1.363 1_554 S
C510 H513 0.929 . S
C511 C510 1.363 1_556 S
C511 C517 1.428 . S
H512 C508 0.930 . S
H513 C510 0.929 . S
S514 N515 1.613 . S
S514 N516 1.610 . S
N515 S514 1.613 . S
N515 C518 1.350 . S
N516 S514 1.610 . S
N516 C517 1.351 . S
C517 C511 1.428 . S
C517 N516 1.351 . S
C517 C518 1.434 . S
C518 C509 1.429 . S
C518 N515 1.350 . S
C518 C517 1.434 . S
C519 C520 1.334 1_455 S
C519 C521 1.419 . S
C519 H523 0.930 . S
C520 C519 1.334 1_655 S
C520 C529 1.436 1_655 S
C521 C519 1.419 . S
C521 C522 1.363 . S
C521 H524 0.929 . S
C522 C521 1.363 . S
C522 C528 1.428 . S
H523 C519 0.930 . S
H524 C521 0.929 . S
S525 N526 1.613 1_455 S
S525 N527 1.610 . S
N526 S525 1.613 1_655 S
N526 C529 1.350 1_655 S
N527 S525 1.610 . S
N527 C528 1.351 . S
C528 C522 1.428 . S
C528 N527 1.351 . S
C528 C529 1.434 . S
C529 C520 1.436 1_455 S
C529 N526 1.350 1_455 S
C529 C528 1.434 . S
C530 C531 1.369 . S
C530 C532 1.419 . S
C530 H534 0.930 . S
C531 C530 1.369 . S
C531 C540 1.429 . S
C532 C530 1.419 . S
C532 C533 1.363 . S
C532 H535 0.929 . S
C533 C532 1.363 . S
C533 C539 1.428 . S
H534 C530 0.930 . S
H535 C532 0.929 . S
S536 N537 1.613 . S
S536 N538 1.610 . S
N537 S536 1.613 . S
N537 C540 1.350 . S
N538 S536 1.610 . S
N538 C539 1.351 . S
C539 C533 1.428 . S
C539 N538 1.351 . S
C539 C540 1.434 . S
C540 C531 1.429 . S
C540 N537 1.350 . S
C540 C539 1.434 . S
C541 C542 1.369 1_565 S
C541 C543 1.419 . S
C541 H545 0.930 . S
C542 C541 1.369 1_545 S
C542 C551 1.429 1_545 S
C543 C541 1.419 . S
C543 C544 1.363 . S
C543 H546 0.929 . S
C544 C543 1.363 . S
C544 C550 1.428 . S
H545 C541 0.930 . S
H546 C543 0.929 . S
S547 N548 1.613 1_565 S
S547 N549 1.610 . S
N548 S547 1.613 1_545 S
N548 C551 1.350 1_545 S
N549 S547 1.610 . S
N549 C550 1.351 . S
C550 C544 1.428 . S
C550 N549 1.351 . S
C550 C551 1.434 . S
C551 C542 1.429 1_565 S
C551 N548 1.350 1_565 S
C551 C550 1.434 . S
C552 C553 1.369 . S
C552 C554 1.419 . S
C552 H556 0.930 . S
C553 C552 1.369 . S
C553 C562 1.429 . S
C554 C552 1.419 . S
C554 C555 1.363 . S
C554 H557 0.929 . S
C555 C554 1.363 . S
C555 C561 1.428 . S
H556 C552 0.930 . S
H557 C554 0.929 . S
S558 N559 1.613 . S
S558 N560 1.610 . S
N559 S558 1.613 . S
N559 C562 1.350 . S
N560 S558 1.610 . S
N560 C561 1.351 . S
C561 C555 1.428 . S
C561 N560 1.351 . S
C561 C562 1.434 . S
C562 C553 1.429 . S
C562 N559 1.350 . S
C562 C561 1.434 . S
C563 C564 1.369 . S
C563 C565 1.419 . S
C563 H567 0.930 . S
C564 C563 1.369 . S
C564 C573 1.429 . S
C565 C563 1.419 . S
C565 C566 1.363 . S
C565 H568 0.929 . S
C566 C565 1.363 . S
C566 C572 1.428 . S
H567 C563 0.930 . S
H568 C565 0.929 . S
S569 N570 1.613 . S
S569 N571 1.610 . S
N570 S569 1.613 . S
N570 C573 1.350 . S
N571 S569 1.610 . S
N571 C572 1.351 . S
C572 C566 1.428 . S
C572 N571 1.351 . S
C572 C573 1.434 . S
C573 C564 1.429 . S
C573 N570 1.350 . S
C573 C572 1.434 . S
C574 C575 1.369 . S
C574 C576 1.419 . S
C574 H578 0.930 . S
C575 C574 1.369 . S
C575 C584 1.429 . S
C576 C574 1.419 . S
C576 C577 1.363 . S
C576 H579 0.929 . S
C577 C576 1.363 . S
C577 C583 1.428 . S
H578 C574 0.930 . S
H579 C576 0.929 . S
S580 N581 1.613 . S
S580 N582 1.610 . S
N581 S580 1.613 . S
N581 C584 1.350 . S
N582 S580 1.610 . S
N582 C583 1.351 . S
C583 C577 1.428 . S
C583 N582 1.351 . S
C583 C584 1.434 . S
C584 C575 1.429 . S
C584 N581 1.350 . S
C584 C583 1.434 . S
C585 C586 1.369 . S
C585 C587 1.419 . S
C585 H589 0.930 . S
C586 C585 1.369 . S
C586 C595 1.429 . S
C587 C585 1.419 . S
C587 C588 1.363 . S
C587 H590 0.929 . S
C588 C587 1.363 . S
C588 C594 1.428 . S
H589 C585 0.930 . S
H590 C587 0.929 . S
S591 N592 1.613 . S
S591 N593 1.610 . S
N592 S591 1.613 . S
N592 C595 1.350 . S
N593 S591 1.610 . S
N593 C594 1.351 . S
C594 C588 1.428 . S
C594 N593 1.351 . S
C594 C595 1.434 . S
C595 C586 1.429 . S
C595 N592 1.350 . S
C595 C594 1.434 . S
C596 C597 1.369 . S
C596 C598 1.419 . S
C596 H600 0.930 . S
C597 C596 1.369 . S
C597 C606 1.429 . S
C598 C596 1.419 . S
C598 C599 1.363 . S
C598 H601 0.929 . S
C599 C598 1.363 . S
C599 C605 1.428 . S
H600 C596 0.930 . S
H601 C598 0.929 . S
S602 N603 1.613 . S
S602 N604 1.610 . S
N603 S602 1.613 . S
N603 C606 1.350 . S
N604 S602 1.610 . S
N604 C605 1.351 . S
C605 C599 1.428 . S
C605 N604 1.351 . S
C605 C606 1.434 . S
C606 C597 1.429 . S
C606 N603 1.350 . S
C606 C605 1.434 . S
C607 C608 1.369 . S
C607 C609 1.419 . S
C607 H611 0.930 . S
C608 C607 1.369 . S
C608 C617 1.429 . S
C609 C607 1.419 . S
C609 C610 1.363 . S
C609 H612 0.929 . S
C610 C609 1.363 . S
C610 C616 1.428 . S
H611 C607 0.930 . S
H612 C609 0.929 . S
S613 N614 1.613 . S
S613 N615 1.610 . S
N614 S613 1.613 . S
N614 C617 1.350 . S
N615 S613 1.610 . S
N615 C616 1.351 . S
C616 C610 1.428 . S
C616 N615 1.351 . S
C616 C617 1.434 . S
C617 C608 1.429 . S
C617 N614 1.350 . S
C617 C616 1.434 . S
C618 C619 1.370 1_565 S
C618 C620 1.419 . S
C618 H622 0.930 . S
C619 C618 1.370 1_545 S
C619 C628 1.429 1_545 S
C620 C618 1.419 . S
C620 C621 1.363 . S
C620 H623 0.929 . S
C621 C620 1.363 . S
C621 C627 1.428 . S
H622 C618 0.930 . S
H623 C620 0.929 . S
S624 N625 1.613 . S
S624 N626 1.610 . S
N625 S624 1.613 . S
N625 C628 1.350 . S
N626 S624 1.610 . S
N626 C627 1.351 . S
C627 C621 1.428 . S
C627 N626 1.351 . S
C627 C628 1.434 . S
C628 C619 1.429 1_565 S
C628 N625 1.350 . S
C628 C627 1.434 . S
C629 C630 1.369 1_455 S
C629 C631 1.419 . S
C629 H633 0.930 . S
C630 C629 1.369 1_655 S
C630 C639 1.429 1_655 S
C631 C629 1.419 . S
C631 C632 1.363 . S
C631 H634 0.929 . S
C632 C631 1.363 . S
C632 C638 1.428 . S
H633 C629 0.930 . S
H634 C631 0.929 . S
S635 N636 1.613 1_455 S
S635 N637 1.610 . S
N636 S635 1.613 1_655 S
N636 C639 1.350 1_655 S
N637 S635 1.610 . S
N637 C638 1.351 . S
C638 C632 1.428 . S
C638 N637 1.351 . S
C638 C639 1.434 . S
C639 C630 1.429 1_455 S
C639 N636 1.350 1_455 S
C639 C638 1.434 . S
C640 C641 1.369 . S
C640 C642 1.419 . S
C640 H644 0.930 . S
C641 C640 1.369 . S
C641 C650 1.429 . S
C642 C640 1.419 . S
C642 C643 1.363 . S
C642 H645 0.929 . S
C643 C642 1.363 . S
C643 C649 1.428 . S
H644 C640 0.930 . S
H645 C642 0.929 . S
S646 N647 1.613 . S
S646 N648 1.610 . S
N647 S646 1.613 . S
N647 C650 1.350 . S
N648 S646 1.610 . S
N648 C649 1.351 . S
C649 C643 1.428 . S
C649 N648 1.351 . S
C649 C650 1.434 . S
C650 C641 1.429 . S
C650 N647 1.350 . S
C650 C649 1.434 . S
C651 C652 1.369 . S
C651 C653 1.419 . S
C651 H655 0.930 . S
C652 C651 1.369 . S
C652 C661 1.429 . S
C653 C651 1.419 . S
C653 C654 1.363 . S
C653 H656 0.929 . S
C654 C653 1.363 . S
C654 C660 1.428 . S
H655 C651 0.930 . S
H656 C653 0.929 . S
S657 N658 1.613 . S
S657 N659 1.610 . S
N658 S657 1.613 . S
N658 C661 1.350 . S
N659 S657 1.610 . S
N659 C660 1.351 . S
C660 C654 1.428 . S
C660 N659 1.351 . S
C660 C661 1.434 . S
C661 C652 1.429 . S
C661 N658 1.350 . S
C661 C660 1.434 . S
C662 C663 1.369 . S
C662 C664 1.419 . S
C662 H666 0.930 . S
C663 C662 1.369 . S
C663 C672 1.429 . S
C664 C662 1.419 . S
C664 C665 1.363 . S
C664 H667 0.929 . S
C665 C664 1.363 . S
C665 C671 1.428 . S
H666 C662 0.930 . S
H667 C664 0.929 . S
S668 N669 1.613 . S
S668 N670 1.610 . S
N669 S668 1.613 . S
N669 C672 1.350 . S
N670 S668 1.610 . S
N670 C671 1.351 . S
C671 C665 1.428 . S
C671 N670 1.351 . S
C671 C672 1.434 . S
C672 C663 1.429 . S
C672 N669 1.350 . S
C672 C671 1.434 . S
C673 C674 1.369 . S
C673 C675 1.419 . S
C673 H677 0.930 . S
C674 C673 1.369 . S
C674 C683 1.429 . S
C675 C673 1.419 . S
C675 C676 1.363 . S
C675 H678 0.929 . S
C676 C675 1.363 . S
C676 C682 1.428 . S
H677 C673 0.930 . S
H678 C675 0.929 . S
S679 N680 1.613 . S
S679 N681 1.610 . S
N680 S679 1.613 . S
N680 C683 1.350 . S
N681 S679 1.610 . S
N681 C682 1.351 . S
C682 C676 1.428 . S
C682 N681 1.351 . S
C682 C683 1.434 . S
C683 C674 1.429 . S
C683 N680 1.350 . S
C683 C682 1.434 . S
C684 C685 1.369 1_545 S
C684 C686 1.419 . S
C684 H688 0.930 . S
C685 C684 1.369 1_565 S
C685 C694 1.429 1_565 S
C686 C684 1.419 . S
C686 C687 1.363 . S
C686 H689 0.929 . S
C687 C686 1.363 . S
C687 C693 1.428 . S
H688 C684 0.930 . S
H689 C686 0.929 . S
S690 N691 1.613 1_545 S
S690 N692 1.610 . S
N691 S690 1.613 1_565 S
N691 C694 1.350 1_565 S
N692 S690 1.610 . S
N692 C693 1.351 . S
C693 C687 1.428 . S
C693 N692 1.351 . S
C693 C694 1.434 . S
C694 C685 1.429 1_545 S
C694 N691 1.350 1_545 S
C694 C693 1.434 . S
C695 C696 1.369 . S
C695 C697 1.419 1_455 S
C695 H699 0.930 . S
C696 C695 1.369 . S
C696 C705 1.425 1_455 S
C697 C695 1.419 1_655 S
C697 C698 1.363 . S
C697 H700 0.929 . S
C698 C697 1.363 . S
C698 C704 1.428 . S
H699 C695 0.930 . S
H700 C697 0.929 . S
S701 N702 1.613 1_655 S
S701 N703 1.610 . S
N702 S701 1.613 1_455 S
N702 C705 1.343 1_455 S
N703 S701 1.610 . S
N703 C704 1.351 . S
C704 C698 1.428 . S
C704 N703 1.351 . S
C704 C705 1.445 . S
C705 C696 1.425 1_655 S
C705 N702 1.343 1_655 S
C705 C704 1.445 . S
C706 C707 1.369 . S
C706 C708 1.419 . S
C706 H710 0.930 . S
C707 C706 1.369 . S
C707 C716 1.429 . S
C708 C706 1.419 . S
C708 C709 1.363 . S
C708 H711 0.929 . S
C709 C708 1.363 . S
C709 C715 1.428 . S
H710 C706 0.930 . S
H711 C708 0.929 . S
S712 N713 1.613 . S
S712 N714 1.610 . S
N713 S712 1.613 . S
N713 C716 1.350 . S
N714 S712 1.610 . S
N714 C715 1.351 . S
C715 C709 1.428 . S
C715 N714 1.351 . S
C715 C716 1.434 . S
C716 C707 1.429 . S
C716 N713 1.350 . S
C716 C715 1.434 . S
C717 C718 1.369 1_655 S
C717 C719 1.419 . S
C717 H721 0.931 . S
C718 C717 1.369 1_455 S
C718 C727 1.429 1_455 S
C719 C717 1.419 . S
C719 C720 1.363 . S
C719 H722 0.929 . S
C720 C719 1.363 . S
C720 C726 1.428 . S
H721 C717 0.931 . S
H722 C719 0.929 . S
S723 N724 1.613 1_655 S
S723 N725 1.610 . S
N724 S723 1.613 1_455 S
N724 C727 1.350 1_455 S
N725 S723 1.610 . S
N725 C726 1.351 . S
C726 C720 1.428 . S
C726 N725 1.351 . S
C726 C727 1.434 . S
C727 C718 1.429 1_655 S
C727 N724 1.350 1_655 S
C727 C726 1.434 . S
C728 C729 1.369 . S
C728 C730 1.419 . S
C728 H732 0.930 . S
C729 C728 1.369 . S
C729 C738 1.429 . S
C730 C728 1.419 . S
C730 C731 1.363 . S
C730 H733 0.929 . S
C731 C730 1.363 . S
C731 C737 1.428 . S
H732 C728 0.930 . S
H733 C730 0.929 . S
S734 N735 1.613 . S
S734 N736 1.610 . S
N735 S734 1.613 . S
N735 C738 1.350 . S
N736 S734 1.610 . S
N736 C737 1.351 . S
C737 C731 1.428 . S
C737 N736 1.351 . S
C737 C738 1.434 . S
C738 C729 1.429 . S
C738 N735 1.350 . S
C738 C737 1.434 . S
C739 C740 1.369 . S
C739 C741 1.419 . S
C739 H743 0.930 . S
C740 C739 1.369 . S
C740 C749 1.429 . S
C741 C739 1.419 . S
C741 C742 1.363 . S
C741 H744 0.929 . S
C742 C741 1.363 . S
C742 C748 1.428 . S
H743 C739 0.930 . S
H744 C741 0.929 . S
S745 N746 1.613 . S
S745 N747 1.610 . S
N746 S745 1.613 . S
N746 C749 1.350 . S
N747 S745 1.610 . S
N747 C748 1.351 . S
C748 C742 1.428 . S
C748 N747 1.351 . S
C748 C749 1.434 . S
C749 C740 1.429 . S
C749 N746 1.350 . S
C749 C748 1.434 . S
C750 C751 1.369 . S
C750 C752 1.419 . S
C750 H754 0.930 . S
C751 C750 1.369 . S
C751 C760 1.429 . S
C752 C750 1.419 . S
C752 C753 1.363 . S
C752 H755 0.929 . S
C753 C752 1.363 . S
C753 C759 1.428 . S
H754 C750 0.930 . S
H755 C752 0.929 . S
S756 N757 1.613 . S
S756 N758 1.610 . S
N757 S756 1.613 . S
N757 C760 1.350 . S
N758 S756 1.610 . S
N758 C759 1.351 . S
C759 C753 1.428 . S
C759 N758 1.351 . S
C759 C760 1.434 . S
C760 C751 1.429 . S
C760 N757 1.350 . S
C760 C759 1.434 . S
C761 C762 1.369 . S
C761 C763 1.419 . S
C761 H765 0.930 . S
C762 C761 1.369 . S
C762 C771 1.429 . S
C763 C761 1.419 . S
C763 C764 1.363 . S
C763 H766 0.929 . S
C764 C763 1.363 . S
C764 C770 1.428 . S
H765 C761 0.930 . S
H766 C763 0.929 . S
S767 N768 1.613 . S
S767 N769 1.610 . S
N768 S767 1.613 . S
N768 C771 1.350 . S
N769 S767 1.610 . S
N769 C770 1.351 . S
C770 C764 1.428 . S
C770 N769 1.351 . S
C770 C771 1.434 . S
C771 C762 1.429 . S
C771 N768 1.350 . S
C771 C770 1.434 . S
C772 C773 1.369 . S
C772 C774 1.419 . S
C772 H776 0.930 . S
C773 C772 1.369 . S
C773 C782 1.429 . S
C774 C772 1.419 . S
C774 C775 1.363 . S
C774 H777 0.929 . S
C775 C774 1.363 . S
C775 C781 1.428 . S
H776 C772 0.930 . S
H777 C774 0.929 . S
S778 N779 1.613 . S
S778 N780 1.610 . S
N779 S778 1.613 . S
N779 C782 1.350 . S
N780 S778 1.610 . S
N780 C781 1.351 . S
C781 C775 1.428 . S
C781 N780 1.351 . S
C781 C782 1.434 . S
C782 C773 1.429 . S
C782 N779 1.350 . S
C782 C781 1.434 . S
C783 C784 1.369 . S
C783 C785 1.419 . S
C783 H787 0.930 . S
C784 C783 1.369 . S
C784 C793 1.404 1_565 S
C785 C783 1.419 . S
C785 C786 1.363 . S
C785 H788 0.929 . S
C786 C785 1.363 . S
C786 C792 1.428 1_565 S
H787 C783 0.930 . S
H788 C785 0.929 . S
S789 N790 1.613 . S
S789 N791 1.610 . S
N790 S789 1.613 . S
N790 C793 1.369 . S
N791 S789 1.610 . S
N791 C792 1.351 . S
C792 C786 1.428 1_545 S
C792 N791 1.351 . S
C792 C793 1.443 . S
C793 C784 1.404 1_545 S
C793 N790 1.369 . S
C793 C792 1.443 . S
C794 C795 1.369 . S
C794 C796 1.419 . S
C794 H798 0.930 . S
C795 C794 1.369 . S
C795 C804 1.429 . S
C796 C794 1.419 . S
C796 C797 1.363 . S
C796 H799 0.952 . S
C797 C796 1.363 . S
C797 C803 1.428 . S
H798 C794 0.930 . S
H799 C796 0.952 . S
S800 N801 1.613 . S
S800 N802 1.610 . S
N801 S800 1.613 . S
N801 C804 1.350 . S
N802 S800 1.610 . S
N802 C803 1.351 . S
C803 C797 1.428 . S
C803 N802 1.351 . S
C803 C804 1.434 . S
C804 C795 1.429 . S
C804 N801 1.350 . S
C804 C803 1.434 . S
C805 C806 1.369 . S
C805 C807 1.419 . S
C805 H809 0.930 . S
C806 C805 1.369 . S
C806 C815 1.429 . S
C807 C805 1.419 . S
C807 C808 1.363 . S
C807 H810 0.929 . S
C808 C807 1.363 . S
C808 C814 1.428 . S
H809 C805 0.930 . S
H810 C807 0.929 . S
S811 N812 1.613 . S
S811 N813 1.610 . S
N812 S811 1.613 . S
N812 C815 1.350 . S
N813 S811 1.610 . S
N813 C814 1.351 . S
C814 C808 1.428 . S
C814 N813 1.351 . S
C814 C815 1.434 . S
C815 C806 1.429 . S
C815 N812 1.350 . S
C815 C814 1.434 . S
C816 C817 1.369 . S
C816 C818 1.419 . S
C816 H820 0.930 . S
C817 C816 1.369 . S
C817 C826 1.429 . S
C818 C816 1.419 . S
C818 C819 1.363 . S
C818 H821 0.929 . S
C819 C818 1.363 . S
C819 C825 1.428 . S
H820 C816 0.930 . S
H821 C818 0.929 . S
S822 N823 1.613 1_455 S
S822 N824 1.610 . S
N823 S822 1.613 1_655 S
N823 C826 1.350 . S
N824 S822 1.610 . S
N824 C825 1.351 1_455 S
C825 C819 1.428 . S
C825 N824 1.351 1_655 S
C825 C826 1.434 . S
C826 C817 1.429 . S
C826 N823 1.350 . S
C826 C825 1.434 . S
C827 C828 1.369 . S
C827 C829 1.419 . S
C827 H831 0.930 . S
C828 C827 1.369 . S
C828 C837 1.429 . S
C829 C827 1.419 . S
C829 C830 1.363 . S
C829 H832 0.929 . S
C830 C829 1.363 . S
C830 C836 1.428 . S
H831 C827 0.930 . S
H832 C829 0.929 . S
S833 N834 1.613 . S
S833 N835 1.610 . S
N834 S833 1.613 . S
N834 C837 1.350 . S
N835 S833 1.610 . S
N835 C836 1.351 . S
C836 C830 1.428 . S
C836 N835 1.351 . S
C836 C837 1.434 . S
C837 C828 1.429 . S
C837 N834 1.350 . S
C837 C836 1.434 . S
C838 C839 1.369 . S
C838 C840 1.419 . S
C838 H842 0.930 . S
C839 C838 1.369 . S
C839 C848 1.429 . S
C840 C838 1.419 . S
C840 C841 1.363 . S
C840 H843 0.929 . S
C841 C840 1.363 . S
C841 C847 1.428 . S
H842 C838 0.930 . S
H843 C840 0.929 . S
S844 N845 1.613 1_565 S
S844 N846 1.622 1_565 S
N845 S844 1.613 1_545 S
N845 C848 1.350 . S
N846 S844 1.622 1_545 S
N846 C847 1.352 . S
C847 C841 1.428 . S
C847 N846 1.352 . S
C847 C848 1.434 . S
C848 C839 1.429 . S
C848 N845 1.350 . S
C848 C847 1.434 . S
C849 C850 1.369 . S
C849 C851 1.419 . S
C849 H853 0.930 . S
C850 C849 1.369 . S
C850 C859 1.429 . S
C851 C849 1.419 . S
C851 C852 1.363 . S
C851 H854 0.929 . S
C852 C851 1.363 . S
C852 C858 1.428 . S
H853 C849 0.930 . S
H854 C851 0.929 . S
S855 N856 1.613 . S
S855 N857 1.610 . S
N856 S855 1.613 . S
N856 C859 1.350 . S
N857 S855 1.610 . S
N857 C858 1.351 . S
C858 C852 1.428 . S
C858 N857 1.351 . S
C858 C859 1.434 . S
C859 C850 1.429 . S
C859 N856 1.350 . S
C859 C858 1.434 . S
C860 C861 1.369 . S
C860 C862 1.419 . S
C860 H864 0.930 . S
C861 C860 1.369 . S
C861 C870 1.429 . S
C862 C860 1.419 . S
C862 C863 1.363 . S
C862 H865 0.929 . S
C863 C862 1.363 . S
C863 C869 1.428 . S
H864 C860 0.930 . S
H865 C862 0.929 . S
S866 N867 1.613 . S
S866 N868 1.610 . S
N867 S866 1.613 . S
N867 C870 1.350 . S
N868 S866 1.610 . S
N868 C869 1.351 . S
C869 C863 1.428 . S
C869 N868 1.351 . S
C869 C870 1.434 . S
C870 C861 1.429 . S
C870 N867 1.350 . S
C870 C869 1.434 . S
C871 C872 1.369 . S
C871 C873 1.419 . S
C871 H875 0.930 . S
C872 C871 1.369 . S
C872 C881 1.429 . S
C873 C871 1.419 . S
C873 C874 1.363 . S
C873 H876 0.929 . S
C874 C873 1.363 . S
C874 C880 1.428 . S
H875 C871 0.930 . S
H876 C873 0.929 . S
S877 N878 1.613 . S
S877 N879 1.610 . S
N878 S877 1.613 . S
N878 C881 1.350 . S
N879 S877 1.610 . S
N879 C880 1.351 . S
C880 C874 1.428 . S
C880 N879 1.351 . S
C880 C881 1.434 . S
C881 C872 1.429 . S
C881 N878 1.350 . S
C881 C880 1.434 . S
C882 C883 1.369 . S
C882 C884 1.419 . S
C882 H886 0.930 . S
C883 C882 1.369 . S
C883 C892 1.429 . S
C884 C882 1.419 . S
C884 C885 1.363 . S
C884 H887 0.929 . S
C885 C884 1.363 . S
C885 C891 1.428 . S
H886 C882 0.930 . S
H887 C884 0.929 . S
S888 N889 1.613 . S
S888 N890 1.610 . S
N889 S888 1.613 . S
N889 C892 1.350 . S
N890 S888 1.610 . S
N890 C891 1.351 . S
C891 C885 1.428 . S
C891 N890 1.351 . S
C891 C892 1.434 . S
C892 C883 1.429 . S
C892 N889 1.350 . S
C892 C891 1.434 . S
C893 C894 1.369 . S
C893 C895 1.419 . S
C893 H897 0.930 . S
C894 C893 1.369 . S
C894 C903 1.429 . S
C895 C893 1.419 . S
C895 C896 1.363 . S
C895 H898 0.929 . S
C896 C895 1.363 . S
C896 C902 1.428 . S
H897 C893 0.930 . S
H898 C895 0.929 . S
S899 N900 1.613 . S
S899 N901 1.610 . S
N900 S899 1.613 . S
N900 C903 1.350 . S
N901 S899 1.610 . S
N901 C902 1.351 . S
C902 C896 1.428 . S
C902 N901 1.351 . S
C902 C903 1.434 . S
C903 C894 1.429 . S
C903 N900 1.350 . S
C903 C902 1.434 . S
C904 C905 1.369 . S
C904 C906 1.419 . S
C904 H908 0.930 . S
C905 C904 1.369 . S
C905 C914 1.429 . S
C906 C904 1.419 . S
C906 C907 1.363 . S
C906 H909 0.929 . S
C907 C906 1.363 . S
C907 C913 1.428 . S
H908 C904 0.930 . S
H909 C906 0.929 . S
S910 N911 1.613 . S
S910 N912 1.610 . S
N911 S910 1.613 . S
N911 C914 1.350 . S
N912 S910 1.610 . S
N912 C913 1.351 . S
C913 C907 1.428 . S
C913 N912 1.351 . S
C913 C914 1.434 . S
C914 C905 1.429 . S
C914 N911 1.350 . S
C914 C913 1.434 . S
C915 C916 1.369 . S
C915 C917 1.419 . S
C915 H919 0.930 . S
C916 C915 1.369 . S
C916 C925 1.429 . S
C917 C915 1.419 . S
C917 C918 1.363 . S
C917 H920 0.929 . S
C918 C917 1.363 . S
C918 C924 1.428 . S
H919 C915 0.930 . S
H920 C917 0.929 . S
S921 N922 1.613 . S
S921 N923 1.610 . S
N922 S921 1.613 . S
N922 C925 1.350 . S
N923 S921 1.610 . S
N923 C924 1.351 . S
C924 C918 1.428 . S
C924 N923 1.351 . S
C924 C925 1.434 . S
C925 C916 1.429 . S
C925 N922 1.350 . S
C925 C924 1.434 . S
C926 C927 1.369 . S
C926 C928 1.419 . S
C926 H930 0.930 . S
C927 C926 1.369 . S
C927 C936 1.429 . S
C928 C926 1.419 . S
C928 C929 1.363 . S
C928 H931 0.929 . S
C929 C928 1.363 . S
C929 C935 1.428 . S
H930 C926 0.930 . S
H931 C928 0.929 . S
S932 N933 1.613 . S
S932 N934 1.610 . S
N933 S932 1.613 . S
N933 C936 1.350 . S
N934 S932 1.610 . S
N934 C935 1.351 . S
C935 C929 1.428 . S
C935 N934 1.351 . S
C935 C936 1.434 . S
C936 C927 1.429 . S
C936 N933 1.350 . S
C936 C935 1.434 . S
C937 C938 1.369 . S
C937 C939 1.419 . S
C937 H941 0.930 . S
C938 C937 1.369 . S
C938 C947 1.429 . S
C939 C937 1.419 . S
C939 C940 1.363 . S
C939 H942 0.929 . S
C940 C939 1.363 . S
C940 C946 1.428 . S
H941 C937 0.930 . S
H942 C939 0.929 . S
S943 N944 1.613 . S
S943 N945 1.610 . S
N944 S943 1.613 . S
N944 C947 1.350 . S
N945 S943 1.610 . S
N945 C946 1.351 . S
C946 C940 1.428 . S
C946 N945 1.351 . S
C946 C947 1.434 . S
C947 C938 1.429 . S
C947 N944 1.350 . S
C947 C946 1.434 . S
C948 C949 1.369 . S
C948 C950 1.419 . S
C948 H952 0.930 . S
C949 C948 1.369 . S
C949 C958 1.429 . S
C950 C948 1.419 . S
C950 C951 1.363 . S
C950 H953 0.929 . S
C951 C950 1.363 . S
C951 C957 1.428 . S
H952 C948 0.930 . S
H953 C950 0.929 . S
S954 N955 1.613 . S
S954 N956 1.610 . S
N955 S954 1.613 . S
N955 C958 1.350 . S
N956 S954 1.610 . S
N956 C957 1.351 . S
C957 C951 1.428 . S
C957 N956 1.351 . S
C957 C958 1.434 . S
C958 C949 1.429 . S
C958 N955 1.350 . S
C958 C957 1.434 . S
C959 C960 1.369 . S
C959 C961 1.419 . S
C959 H963 0.930 . S
C960 C959 1.369 . S
C960 C969 1.429 . S
C961 C959 1.419 . S
C961 C962 1.363 . S
C961 H964 0.929 . S
C962 C961 1.363 . S
C962 C968 1.428 . S
H963 C959 0.930 . S
H964 C961 0.929 . S
S965 N966 1.613 . S
S965 N967 1.610 . S
N966 S965 1.613 . S
N966 C969 1.350 . S
N967 S965 1.610 . S
N967 C968 1.351 . S
C968 C962 1.428 . S
C968 N967 1.351 . S
C968 C969 1.434 . S
C969 C960 1.429 . S
C969 N966 1.350 . S
C969 C968 1.434 . S
C970 C971 1.369 . S
C970 C972 1.419 . S
C970 H974 0.930 . S
C971 C970 1.369 . S
C971 C980 1.429 . S
C972 C970 1.419 . S
C972 C973 1.363 . S
C972 H975 0.929 . S
C973 C972 1.363 . S
C973 C979 1.428 . S
H974 C970 0.930 . S
H975 C972 0.929 . S
S976 N977 1.613 . S
S976 N978 1.610 . S
N977 S976 1.613 . S
N977 C980 1.350 . S
N978 S976 1.610 . S
N978 C979 1.351 . S
C979 C973 1.428 . S
C979 N978 1.351 . S
C979 C980 1.434 . S
C980 C971 1.429 . S
C980 N977 1.350 . S
C980 C979 1.434 . S
C388 C151 1.350 . S
C390 C212 1.425 . S
C399 C159 1.642 1_554 S
C401 C233 1.654 . S
C410 C137 1.324 . S
C412 C253 1.221 1_554 S
C421 C126 1.337 . S
C423 C232 1.213 . S
C434 C254 1.677 1_554 S
C432 C104 1.680 . S
C443 C118 1.330 . S
C445 C211 1.206 . S
C456 C213 1.414 . S
C454 C129 1.466 . S
C467 C234 1.516 . S
C465 C107 1.555 . S
C476 C115 1.121 . S
C478 C256 1.230 . S
C487 C148 1.133 1_556 S
C489 C235 1.211 1_554 S
C498 C162 1.540 . S
C500 C255 1.490 1_556 S
C511 C214 1.267 . S
C509 C140 1.517 . S
C522 C275 1.422 . S
C520 C19 1.379 . S
C531 C27 1.635 . S
C533 C296 1.649 . S
C542 C5 1.318 . S
C544 C316 1.221 . S
C553 C192 1.339 . S
C555 C295 1.205 . S
C564 C170 1.686 . S
C566 C317 1.685 . S
C575 C184 1.337 . S
C577 C274 1.192 . S
C586 C195 1.466 . S
C588 C276 1.413 . S
C597 C173 1.554 . S
C599 C297 1.509 . S
C610 C319 1.223 . S
C608 C181 1.127 . S
C619 C16 1.132 . S
C621 C298 1.209 . S
C632 C318 1.487 . S
C630 C30 1.542 . S
C641 C8 1.515 . S
C643 C277 1.273 . S
C654 C338 1.422 . S
C652 C85 1.355 . S
C663 C93 1.637 . S
C665 C359 1.651 . S
C676 C379 1.231 . S
C674 C71 1.320 . S
C687 C358 1.210 . S
C685 C60 1.336 . S
C698 C380 1.685 . S
C696 C38 1.687 . S
C707 C52 1.340 . S
C709 C337 1.191 . S
C718 C63 1.466 . S
C720 C339 1.413 . S
C729 C41 1.551 . S
C731 C360 1.511 . S
C742 C382 1.226 . S
C740 C49 1.131 1_545 S
C751 C82 1.127 . S
C753 C361 1.216 . S
C762 C96 1.543 . S
C764 C381 1.493 . S
C773 C74 1.519 . S
C775 C340 1.279 . S
C784 C172 1.566 . S
C786 C216 1.559 . S
C797 C237 1.358 . S
C795 C183 1.293 . S
C806 C194 1.526 . S
C808 C257 1.506 . S
C817 C73 1.574 . S
C819 C236 1.559 . S
C828 C84 1.337 . S
C830 C258 1.389 . S
C841 C215 1.659 . S
C839 C95 1.654 . S
C850 C40 1.565 . S
C852 C279 1.561 . S
C861 C51 1.297 . S
C863 C300 1.360 . S
C872 C62 1.525 . S
C874 C320 1.506 . S
C883 C139 1.574 . S
C885 C299 1.559 . S
C896 C321 1.383 . S
C894 C150 1.327 . S
C905 C161 1.650 . S
C907 C278 1.656 . S
C916 C106 1.565 . S
C918 C342 1.560 . S
C927 C117 1.296 . S
C929 C363 1.357 . S
C940 C383 1.513 . S
C938 C128 1.532 . S
C949 C7 1.575 . S
C951 C362 1.560 . S
C960 C18 1.337 . S
C962 C384 1.386 . S
C971 C29 1.653 . S
C973 C341 1.658 . S
