# Generated by pormake.
# Topology ftw, (4,12)-cn, num edge types: 1
# Building blocks:
#     Node 0, Type 0, BuildingBlock: ESEHIV_clean_sbu_0, # of connection points: 4
#     Node 1, Type 0, BuildingBlock: ESEHIV_clean_sbu_0, # of connection points: 4
#     Node 2, Type 0, BuildingBlock: ESEHIV_clean_sbu_0, # of connection points: 4
#     Node 3, Type 1, BuildingBlock: EZIPEK_clean_sbu_0, # of connection points: 12
#     Edge 4, Type (0, 1), BuildingBlock: TEMPAE_clean_linker_10, # of connection points: 2
#     Edge 5, Type (0, 1), BuildingBlock: TEMPAE_clean_linker_10, # of connection points: 2
#     Edge 6, Type (0, 1), BuildingBlock: TEMPAE_clean_linker_10, # of connection points: 2
#     Edge 7, Type (0, 1), BuildingBlock: TEMPAE_clean_linker_10, # of connection points: 2
#     Edge 8, Type (0, 1), BuildingBlock: TEMPAE_clean_linker_10, # of connection points: 2
#     Edge 9, Type (0, 1), BuildingBlock: TEMPAE_clean_linker_10, # of connection points: 2
#     Edge 10, Type (0, 1), BuildingBlock: TEMPAE_clean_linker_10, # of connection points: 2
#     Edge 11, Type (0, 1), BuildingBlock: TEMPAE_clean_linker_10, # of connection points: 2
#     Edge 12, Type (0, 1), BuildingBlock: TEMPAE_clean_linker_10, # of connection points: 2
#     Edge 13, Type (0, 1), BuildingBlock: TEMPAE_clean_linker_10, # of connection points: 2
#     Edge 14, Type (0, 1), BuildingBlock: TEMPAE_clean_linker_10, # of connection points: 2
#     Edge 15, Type (0, 1), BuildingBlock: TEMPAE_clean_linker_10, # of connection points: 2
# Relax obj value: 0.025
# Max RMSD: 0.144
# Mean RMSD: 0.114
data_MOF--net-ftw--node1-ESEHIV_clean_sbu_0--node2-EZIPEK_clean_sbu_0--edge1-TEMPAE_clean_linker_10
_symmetry_space_group_name_H-M    P1
_symmetry_Int_Tables_number       1
_symmetry_cell_setting            triclinic
loop_
_symmetry_equiv_pos_as_xyz
'x, y, z'
_cell_length_a     25.291797
_cell_length_b     24.945334
_cell_length_c     24.643424
_cell_angle_alpha  86.817133
_cell_angle_beta   86.728292
_cell_angle_gamma 93.411902
loop_
_atom_site_label
_atom_site_type_symbol
_atom_site_fract_x
_atom_site_fract_y
_atom_site_fract_z
_atom_type_partial_charge
Cu0 Cu 0.96388 0.50072 0.51655 0.0
N1 N 0.92426 0.45447 0.4751 0.0
N2 N 0.91338 0.39048 0.41588 0.0
C3 C 0.94802 0.41897 0.44441 0.0
C4 C 0.86553 0.40921 0.4291 0.0
C5 C 0.87238 0.44878 0.46576 0.0
O6 O 1.00501 0.45487 0.5618 0.0
C7 C 0.97206 0.5798 0.43778 0.0
O8 O 0.9207 0.57101 0.44872 0.0
H9 H 0.99051 0.41551 0.44206 0.0
H10 H 0.84188 0.47215 0.48339 0.0
N11 N 0.92567 0.5419 0.5641 0.0
N12 N 0.91631 0.60534 0.62407 0.0
C13 C 0.9502 0.58067 0.59091 0.0
C14 C 0.87407 0.54134 0.5809 0.0
C15 C 0.86817 0.58055 0.618 0.0
C16 C 0.97524 0.42084 0.59181 0.0
O17 O 0.9236 0.42168 0.5886 0.0
H18 H 0.99269 0.58947 0.58682 0.0
H19 H 0.8431 0.51418 0.56779 0.0
O20 O 1.00325 0.5517 0.46461 0.0
H21 H 0.82828 0.39548 0.41349 0.0
H22 H 0.83127 0.59003 0.63863 0.0
Cu23 Cu 0.55076 0.07092 0.5046 0.0
N24 N 0.59686 0.11011 0.54659 0.0
N25 N 0.6603 0.12072 0.60556 0.0
C26 C 0.63139 0.08566 0.57763 0.0
C27 C 0.6429 0.16949 0.59148 0.0
C28 C 0.60372 0.16282 0.55508 0.0
O29 O 0.59622 0.03001 0.4582 0.0
C30 C 0.4709 0.06495 0.58111 0.0
O31 O 0.48142 0.1167 0.56964 0.0
H32 H 0.6341 0.04249 0.58044 0.0
H33 H 0.58161 0.19411 0.53685 0.0
N34 N 0.51072 0.11063 0.457 0.0
N35 N 0.44888 0.12131 0.39644 0.0
C36 C 0.47344 0.08623 0.42855 0.0
C37 C 0.51035 0.16338 0.44234 0.0
C38 C 0.47216 0.17009 0.40491 0.0
C39 C 0.62723 0.06178 0.42687 0.0
O40 O 0.62403 0.11382 0.43083 0.0
H41 H 0.46539 0.04307 0.43096 0.0
H42 H 0.53597 0.19471 0.45729 0.0
O43 O 0.49893 0.03206 0.55617 0.0
H44 H 0.65742 0.20737 0.60617 0.0
H45 H 0.46216 0.208 0.38592 0.0
Cu46 Cu 0.54892 0.51012 0.96815 0.0
N47 N 0.50428 0.55246 0.92806 0.0
N48 N 0.44227 0.6118 0.9157 0.0
C49 C 0.47349 0.58804 0.95136 0.0
C50 C 0.45427 0.59029 0.86771 0.0
C51 C 0.4924 0.55352 0.8755 0.0
O52 O 0.5012 0.45498 0.00817 0.0
C53 C 0.61778 0.59557 0.97418 0.0
O54 O 0.60997 0.59313 0.92209 0.0
H55 H 0.4741 0.59605 0.99403 0.0
H56 H 0.50915 0.52852 0.84533 0.0
N57 N 0.59805 0.47268 0.92753 0.0
N58 N 0.66264 0.41607 0.91488 0.0
C59 C 0.62677 0.43486 0.95065 0.0
C60 C 0.61608 0.47825 0.87497 0.0
C61 C 0.65581 0.44319 0.867 0.0
C62 C 0.47981 0.42353 0.97531 0.0
O63 O 0.4929 0.43218 0.92305 0.0
H64 H 0.62143 0.42181 0.99331 0.0
H65 H 0.60257 0.50677 0.84499 0.0
O66 O 0.59264 0.56053 0.00743 0.0
H67 H 0.43573 0.59915 0.83001 0.0
H68 H 0.67898 0.43939 0.82927 0.0
C69 C 0.06274 0.14424 0.87673 0.0
C70 C 0.02666 0.13052 0.14013 0.0
C71 C 0.02907 0.8839 0.88172 0.0
C72 C 0.04692 0.87256 0.14386 0.0
C73 C 0.16988 0.88078 -0.00058 0.0
C74 C 0.18005 0.14004 0.01652 0.0
C75 C 0.9121 0.87478 0.02066 0.0
C76 C 0.92445 0.1367 0.99903 0.0
C77 C 0.91245 0.99457 0.14487 0.0
C78 C 0.16956 0.01844 0.13877 0.0
C79 C 0.9245 0.02312 0.88053 0.0
C80 C 0.1799 1.00815 0.87642 0.0
Eu81 Eu 0.05086 0.10986 0.00916 0.0
O82 O 0.09309 0.05421 0.05701 0.0
O83 O 1.00429 0.05615 0.96322 0.0
Eu84 Eu 0.14664 1.00984 0.00861 0.0
Eu85 Eu 0.94574 1.00619 0.01204 0.0
O86 O 0.09823 0.05944 0.95997 0.0
O87 O 0.99913 0.05261 0.05862 0.0
Eu88 Eu 0.05075 1.01259 0.90742 0.0
Eu89 Eu 0.042 1.0034 0.1132 0.0
O90 O 0.09312 0.96336 0.96207 0.0
O91 O 0.08981 0.95844 0.05894 0.0
O92 O 0.99533 0.95729 0.05993 0.0
O93 O 0.99914 0.96154 0.96361 0.0
Eu94 Eu 0.0421 0.9061 0.01183 0.0
O95 O 0.06024 0.15825 0.92829 0.0
O96 O 0.0359 0.15022 0.08866 0.0
O97 O 0.03272 0.86485 0.933 0.0
O98 O 0.04509 0.8582 0.09251 0.0
O99 O 0.18791 0.93147 0.00544 0.0
O100 O 0.19422 0.08969 0.01152 0.0
O101 O 0.89821 0.92567 0.01618 0.0
O102 O 0.90541 0.08544 0.00647 0.0
O103 O 0.96208 0.99196 0.16022 0.0
O104 O 0.11841 0.01818 0.15588 0.0
O105 O 0.97576 0.02556 0.86367 0.0
O106 O 0.13003 1.00613 0.861 0.0
O107 O 0.96185 0.85942 0.02077 0.0
O108 O 0.11869 0.86377 -0.00021 0.0
O109 O 0.97565 0.15344 0.9985 0.0
O110 O 0.13037 0.15564 0.01662 0.0
O111 O 0.02816 0.07896 0.15729 0.0
O112 O 0.04625 0.92293 0.15961 0.0
O113 O 0.06116 0.09385 0.86084 0.0
O114 O 0.03466 0.93572 0.86417 0.0
O115 O 0.19412 1.01272 0.92744 0.0
O116 O 0.1877 1.01113 0.08792 0.0
O117 O 0.90533 1.01273 0.93199 0.0
O118 O 0.89862 1.00188 0.09355 0.0
C119 C 0.97302 0.3231 0.3822 0.0
C120 C 0.92634 0.35046 0.37783 0.0
C121 C 0.98852 0.28692 0.34365 0.0
C122 C 0.95619 0.27697 0.29988 0.0
C123 C 0.90817 0.30303 0.29597 0.0
C124 C 0.89391 0.33963 0.33488 0.0
C125 C 0.03995 0.25984 0.34942 0.0
C126 C 0.8723 0.29283 0.25023 0.0
C127 C 1.02262 0.22361 0.17314 0.0
C128 C 1.00979 0.16819 0.18123 0.0
C129 C 1.00509 0.25955 0.21125 0.0
C130 C 0.97324 0.23965 0.25806 0.0
C131 C 0.95952 0.18382 0.266 0.0
C132 C 0.97827 0.14877 0.22774 0.0
C133 C 1.02112 0.31875 0.20172 0.0
C134 C 0.92489 0.16107 0.31481 0.0
H135 H 0.99776 0.32997 0.41585 0.0
H136 H 0.85798 0.36065 0.33086 0.0
H137 H 0.03223 0.21551 0.35253 0.0
H138 H 0.06692 0.27001 0.31272 0.0
H139 H 0.06062 0.272 0.38581 0.0
H140 H 0.83546 0.31482 0.25398 0.0
H141 H 0.89361 0.30545 0.21056 0.0
H142 H 0.86119 0.24918 0.24958 0.0
H143 H 0.04683 0.23889 0.13726 0.0
H144 H 0.96725 0.10609 0.2338 0.0
H145 H 0.04436 0.33258 0.23573 0.0
H146 H 0.98531 0.34232 0.2009 0.0
H147 H 0.04536 0.32786 0.16291 0.0
H148 H 0.9438 0.17074 0.35289 0.0
H149 H 0.91755 0.11674 0.31466 0.0
H150 H 0.88613 0.17972 0.31558 0.0
C151 C 0.67639 0.98827 0.38343 0.0
C152 C 0.66665 0.04282 0.38655 0.0
C153 C 0.71524 0.9719 0.34553 0.0
C154 C 0.74466 1.01105 0.31017 0.0
C155 C 0.73451 0.06598 0.31299 0.0
C156 C 0.69579 0.08106 0.35095 0.0
C157 C 0.72518 0.91299 0.34361 0.0
C158 C 0.76492 0.10917 0.27614 0.0
C159 C 0.88092 0.99573 0.24317 0.0
C160 C 0.8692 0.99105 0.18855 0.0
C161 C 0.84036 0.99827 0.28411 0.0
C162 C 0.78676 0.99589 0.27021 0.0
C163 C 0.77454 0.98766 0.21582 0.0
C164 C 0.81587 0.98548 0.17564 0.0
C165 C 0.85499 1.00675 0.34171 0.0
C166 C 0.71792 0.98473 0.19928 0.0
H167 H 0.65411 0.95855 0.41083 0.0
H168 H 0.68857 0.12333 0.3527 0.0
H169 H 0.72087 0.89967 0.3018 0.0
H170 H 0.76648 0.90643 0.35403 0.0
H171 H 0.69757 0.88739 0.37226 0.0
H172 H 0.75202 0.15009 0.28346 0.0
H173 H 0.80797 0.1087 0.28247 0.0
H174 H 0.75954 0.1012 0.23289 0.0
H175 H 0.92189 0.99968 0.25384 0.0
H176 H 0.80623 0.9809 0.13378 0.0
H177 H 0.83295 0.97634 0.37036 0.0
H178 H 0.84345 0.0469 0.35357 0.0
H179 H 0.89819 1.00423 0.34658 0.0
H180 H 0.69224 0.95805 0.22865 0.0
H181 H 0.7146 0.96981 0.15789 0.0
H182 H 0.70245 0.02543 0.1995 0.0
C183 C 0.0455 0.63418 0.38219 0.0
C184 C 0.99126 0.62158 0.39494 0.0
C185 C 0.06251 0.67437 0.34144 0.0
C186 C 1.02432 0.70229 0.31306 0.0
C187 C 0.96966 0.68946 0.32577 0.0
C188 C 0.95391 0.64945 0.36639 0.0
C189 C 0.12113 0.68713 0.32885 0.0
C190 C 0.92754 0.71817 0.29655 0.0
C191 C 0.04782 0.84086 0.24224 0.0
C192 C 0.04833 0.82888 0.18719 0.0
C193 C 0.04391 0.79981 0.28383 0.0
C194 C 0.04041 0.74541 0.27017 0.0
C195 C 0.04421 0.73297 0.21479 0.0
C196 C 0.04807 0.77481 0.17398 0.0
C197 C 0.04006 0.81479 0.34241 0.0
C198 C 0.04077 0.67546 0.19852 0.0
H199 H 0.07456 0.61282 0.40407 0.0
H200 H 0.91187 0.64008 0.37575 0.0
H201 H 0.13146 0.68152 0.28525 0.0
H202 H 0.13148 0.7299 0.33599 0.0
H203 H 0.14577 0.66141 0.35409 0.0
H204 H 0.88669 0.70313 0.31117 0.0
H205 H 0.93192 0.76195 0.30244 0.0
H206 H 0.93237 0.71296 0.25216 0.0
H207 H 0.04863 0.88237 0.25316 0.0
H208 H 0.04914 0.76488 0.13169 0.0
H209 H 0.06626 0.7906 0.36723 0.0
H210 H 0.99877 0.80586 0.35965 0.0
H211 H 0.05089 0.85814 0.34643 0.0
H212 H 0.06687 0.65067 0.22286 0.0
H213 H 0.05201 0.67236 0.15461 0.0
H214 H 0.9995 0.65806 0.20682 0.0
C215 C 0.39793 0.14305 0.31572 0.0
C216 C 0.4072 0.10831 0.36055 0.0
C217 C 0.35869 0.12956 0.27968 0.0
C218 C 0.32829 0.07994 0.28836 0.0
C219 C 0.33706 0.045 0.33368 0.0
C220 C 0.37593 0.05978 0.36935 0.0
C221 C 0.35008 0.16815 0.23203 0.0
C222 C 0.30573 0.99158 0.34422 0.0
C223 C 0.19569 0.05954 0.22452 0.0
C224 C 0.20966 0.03163 0.17844 0.0
C225 C 0.23402 0.07629 0.26011 0.0
C226 C 0.28751 0.06408 0.24993 0.0
C227 C 0.30178 0.03535 0.20389 0.0
C228 C 0.2628 0.01986 0.16849 0.0
C229 C 0.21737 0.1076 0.30826 0.0
C230 C 0.35824 0.02086 0.19206 0.0
H231 H 0.42193 0.18038 0.30814 0.0
H232 H 0.3816 0.03309 0.40437 0.0
H233 H 0.35866 0.14886 0.19328 0.0
H234 H 0.30796 0.1784 0.23284 0.0
H235 H 0.37562 0.20596 0.23201 0.0
H236 H 0.3178 0.9687 0.38098 0.0
H237 H 0.26278 0.99799 0.34962 0.0
H238 H 0.31122 0.96666 0.30864 0.0
H239 H 0.15494 0.06964 0.23212 0.0
H240 H 0.27401 0.99839 0.13297 0.0
H241 H 0.24055 0.14691 0.30656 0.0
H242 H 0.22595 0.08539 0.34669 0.0
H243 H 0.17444 0.11503 0.30969 0.0
H244 H 0.3849 0.05793 0.18635 0.0
H245 H 0.36266 0.99766 0.15505 0.0
H246 H 0.37175 0.9966 0.22716 0.0
C247 C 0.89759 0.65664 0.70577 0.0
C248 C 0.93006 0.64785 0.65936 0.0
C249 C 0.91232 0.69614 0.74161 0.0
C250 C 0.96093 0.72722 0.73112 0.0
C251 C 0.99341 0.71919 0.68402 0.0
C252 C 0.97737 0.68012 0.64857 0.0
C253 C 0.87625 0.7041 0.79113 0.0
C254 C 0.04568 0.75127 0.67148 0.0
C255 C 0.98468 0.85984 0.79755 0.0
C256 C 1.01402 0.84437 0.8418 0.0
C257 C 0.96632 0.82198 0.76177 0.0
C258 C 0.97854 0.76755 0.76976 0.0
C259 C 1.00889 0.75188 0.81388 0.0
C260 C 1.02577 0.79037 0.84969 0.0
C261 C 0.9333 0.84012 0.71581 0.0
C262 C 1.02366 0.69446 0.82316 0.0
H263 H 0.86118 0.63193 0.71481 0.0
H264 H 1.00222 0.67488 0.61229 0.0
H265 H 0.89673 0.69412 0.82867 0.0
H266 H 0.86669 0.74689 0.79205 0.0
H267 H 0.83858 0.67869 0.79203 0.0
H268 H 0.06642 0.74002 0.6332 0.0
H269 H 0.03915 0.79486 0.6678 0.0
H270 H 0.07209 0.74485 0.70539 0.0
H271 H 0.97468 0.90135 0.79175 0.0
H272 H 0.04848 0.77821 0.8838 0.0
H273 H 0.89447 0.81665 0.71872 0.0
H274 H 0.95349 0.83241 0.67612 0.0
H275 H 0.92604 0.8836 0.71611 0.0
H276 H 0.98726 0.66727 0.82974 0.0
H277 H 0.04817 0.68903 0.85883 0.0
H278 H 0.04613 0.68179 0.78655 0.0
C279 C 0.41915 0.99444 0.64393 0.0
C280 C 0.42717 0.04766 0.62217 0.0
C281 C 0.37885 0.98018 0.68507 0.0
C282 C 0.34608 0.0201 0.70447 0.0
C283 C 0.35341 0.07345 0.68161 0.0
C284 C 0.39365 0.08644 0.64094 0.0
C285 C 0.37192 0.92283 0.70842 0.0
C286 C 0.31931 0.11731 0.70079 0.0
C287 C 0.21129 0.99446 0.77986 0.0
C288 C 0.2231 1.00554 0.83327 0.0
C289 C 0.25152 0.99513 0.73806 0.0
C290 C 0.30485 1.00761 0.74974 0.0
C291 C 0.31736 0.01614 0.80399 0.0
C292 C 0.27641 0.01489 0.84507 0.0
C293 C 0.23654 0.98538 0.68084 0.0
C294 C 0.37368 0.02982 0.81818 0.0
H295 H 0.44483 0.96428 0.62959 0.0
H296 H 0.39903 0.12761 0.6241 0.0
H297 H 0.38047 0.92128 0.75212 0.0
H298 H 0.33021 0.9071 0.70601 0.0
H299 H 0.3985 0.89598 0.68691 0.0
H300 H 0.32955 0.15657 0.67799 0.0
H301 H 0.27683 0.10588 0.69606 0.0
H302 H 0.32407 0.1226 0.74469 0.0
H303 H 0.17041 0.98628 0.77026 0.0
H304 H 0.28627 0.02301 0.88617 0.0
H305 H 0.26346 0.9574 0.66165 0.0
H306 H 0.24077 0.02391 0.65577 0.0
H307 H 0.19497 0.9685 0.6798 0.0
H308 H 0.40094 1.00144 0.80023 0.0
H309 H 0.3777 0.02882 0.86288 0.0
H310 H 0.38668 0.07079 0.80076 0.0
C311 C 0.96166 0.34041 0.65638 0.0
C312 C 0.99649 0.38095 0.63024 0.0
C313 C 0.97913 0.30316 0.69484 0.0
C314 C 0.03292 0.30644 0.70784 0.0
C315 C 0.06872 0.3466 0.68104 0.0
C316 C 0.05007 0.38345 0.64232 0.0
C317 C 0.93959 0.2609 0.72234 0.0
C318 C 0.12633 0.35115 0.69405 0.0
C319 C 0.05126 0.2402 0.84681 0.0
C320 C 0.06368 0.18821 0.83353 0.0
C321 C 0.04444 0.2803 0.80608 0.0
C322 C 0.05051 0.26829 0.75069 0.0
C323 C 0.0663 0.21701 0.73696 0.0
C324 C 0.07253 0.17752 0.77853 0.0
C325 C 0.02712 0.3343 0.82251 0.0
C326 C 0.07311 0.2026 0.67838 0.0
H327 H 0.92024 0.33783 0.6471 0.0
H328 H 0.07715 0.41468 0.62229 0.0
H329 H 0.95422 0.22021 0.71814 0.0
H330 H 0.93488 0.26724 0.76652 0.0
H331 H 0.89994 0.2618 0.7052 0.0
H332 H 0.14953 0.38307 0.66803 0.0
H333 H 0.12946 0.36035 0.73733 0.0
H334 H 0.14448 0.31225 0.68855 0.0
H335 H 0.04424 0.24905 0.88909 0.0
H336 H 0.08263 0.13769 0.76773 0.0
H337 H 0.98482 0.33784 0.81395 0.0
H338 H 0.05054 0.36741 0.79851 0.0
H339 H 0.03133 0.3398 0.86652 0.0
H340 H 0.03356 0.19771 0.66132 0.0
H341 H 0.09325 0.16451 0.67433 0.0
H342 H 0.09635 0.2352 0.65346 0.0
C343 C 0.71221 0.14227 0.68478 0.0
C344 C 0.69987 0.10776 0.64358 0.0
C345 C 0.74914 0.12898 0.72311 0.0
C346 C 0.77431 0.07989 0.72046 0.0
C347 C 0.76251 0.04513 0.67874 0.0
C348 C 0.72578 0.05959 0.64074 0.0
C349 C 0.76099 0.16735 0.76666 0.0
C350 C 0.78846 0.9924 0.67445 0.0
C351 C 0.90356 0.06435 0.78983 0.0
C352 C 0.8861 0.03575 0.83894 0.0
C353 C 0.86764 0.07926 0.75115 0.0
C354 C 0.81287 0.06475 0.7614 0.0
C355 C 0.79499 0.03546 0.8106 0.0
C356 C 0.83174 0.02163 0.84892 0.0
C357 C 0.88828 0.11107 0.69957 0.0
C358 C 0.73697 0.01884 0.82283 0.0
H359 H 0.69227 0.17928 0.68781 0.0
H360 H 0.71759 0.03304 0.60857 0.0
H361 H 0.7528 0.14669 0.80757 0.0
H362 H 0.80367 0.18103 0.7631 0.0
H363 H 0.73704 0.20319 0.7639 0.0
H364 H 0.77476 0.96969 0.63981 0.0
H365 H 0.83219 0.9998 0.66924 0.0
H366 H 0.77967 0.96691 0.71262 0.0
H367 H 0.94535 0.07622 0.78197 0.0
H368 H 0.81783 0.99956 0.88667 0.0
H369 H 0.86965 0.1502 0.69677 0.0
H370 H 0.87739 0.0891 0.6635 0.0
H371 H 0.93208 0.11889 0.69759 0.0
H372 H 0.71347 0.05498 0.82343 0.0
H373 H 0.72957 0.99555 0.86257 0.0
H374 H 0.72217 0.99392 0.7903 0.0
C375 C 0.42518 0.34205 0.95435 0.0
C376 C 0.43941 0.3792 0.9926 0.0
C377 C 0.38362 0.30278 0.96574 0.0
C378 C 0.35525 0.29986 0.01706 0.0
C379 C 0.37065 0.33562 0.057 0.0
C380 C 0.41263 0.37509 0.04427 0.0
C381 C 0.36895 0.26549 0.92188 0.0
C382 C 0.34177 0.33323 0.11243 0.0
C383 C 0.21604 0.23632 0.00857 0.0
C384 C 0.22324 0.18204 0.02241 0.0
C385 C 0.25785 0.27583 0.01018 0.0
C386 C 0.308 0.26091 0.02665 0.0
C387 C 0.31445 0.20673 0.04405 0.0
C388 C 0.27218 0.16791 0.0413 0.0
C389 C 0.24921 0.33301 0.99101 0.0
C390 C 0.36679 0.1892 0.06298 0.0
H391 H 0.44595 0.34426 0.9145 0.0
H392 H 0.42337 0.40354 0.07407 0.0
H393 H 0.36992 0.22296 0.93732 0.0
H394 H 0.32789 0.27176 0.91036 0.0
H395 H 0.39603 0.27199 0.88469 0.0
H396 H 0.3618 0.35987 0.14068 0.0
H397 H 0.30074 0.34571 0.10838 0.0
H398 H 0.33871 0.29141 0.1307 0.0
H399 H 0.1783 0.24773 0.9943 0.0
H400 H 0.27778 0.12627 0.05336 0.0
H401 H 0.27182 0.34295 0.95145 0.0
H402 H 0.26417 0.36152 0.02039 0.0
H403 H 0.20667 0.33935 0.98558 0.0
H404 H 0.39618 0.19035 0.02767 0.0
H405 H 0.36324 0.14772 0.08232 0.0
H406 H 0.38263 0.21709 0.09251 0.0
C407 C 0.37988 0.65233 0.98043 0.0
C408 C 0.40309 0.65028 0.92745 0.0
C409 C 0.34223 0.68971 0.99283 0.0
C410 C 0.32691 0.726 0.95125 0.0
C411 C 0.34988 0.72412 0.89762 0.0
C412 C 0.38765 0.68636 0.88639 0.0
C413 C 0.31872 0.69028 0.05052 0.0
C414 C 0.33464 0.76213 0.85212 0.0
C415 C 0.19435 0.78907 0.97304 0.0
C416 C 0.21001 0.84054 0.98907 0.0
C417 C 0.23191 0.75164 0.96032 0.0
C418 C 0.28663 0.76566 0.96398 0.0
C419 C 0.30276 0.81728 0.98055 0.0
C420 C 0.26437 0.85407 0.99273 0.0
C421 C 0.21301 0.69714 0.94258 0.0
C422 C 0.36066 0.83372 0.98534 0.0
H423 H 0.39057 0.62417 0.01234 0.0
H424 H 0.40562 0.68559 0.84552 0.0
H425 H 0.32623 0.73065 0.06631 0.0
H426 H 0.27507 0.68214 0.05137 0.0
H427 H 0.33537 0.65993 0.07836 0.0
H428 H 0.3558 0.75533 0.81259 0.0
H429 H 0.29128 0.75723 0.84739 0.0
H430 H 0.3437 0.80437 0.86219 0.0
H431 H 0.15263 0.77807 0.96958 0.0
H432 H 0.27716 0.89359 0.005 0.0
H433 H 0.22585 0.66503 0.97095 0.0
H434 H 0.23114 0.69067 0.90158 0.0
H435 H 0.16915 0.69265 0.94117 0.0
H436 H 0.37812 0.8056 0.01479 0.0
H437 H 0.36672 0.87526 0.9989 0.0
H438 H 0.38281 0.83135 0.94546 0.0
C439 C 0.72277 0.34687 0.88504 0.0
C440 C 0.70122 0.37695 0.92645 0.0
C441 C 0.75964 0.30821 0.89615 0.0
C442 C 0.77533 0.29911 0.94998 0.0
C443 C 0.75424 0.32967 0.99183 0.0
C444 C 0.71767 0.36818 0.97958 0.0
C445 C 0.78158 0.27678 0.85033 0.0
C446 C 0.7703 0.32167 0.04969 0.0
C447 C 0.83114 0.16507 0.99088 0.0
C448 C 0.886 0.17848 0.98813 0.0
C449 C 0.79479 0.20383 0.97844 0.0
C450 C 0.81356 0.25741 0.96273 0.0
C451 C 0.86879 0.27125 0.95974 0.0
C452 C 0.90423 0.23177 0.97254 0.0
C453 C 0.73622 0.18735 0.98184 0.0
C454 C 0.89058 0.32776 0.9428 0.0
H455 H 0.71022 0.3529 0.844 0.0
H456 H 0.70242 0.39182 0.01178 0.0
H457 H 0.82533 0.28412 0.84539 0.0
H458 H 0.77322 0.2331 0.86031 0.0
H459 H 0.76454 0.2877 0.81096 0.0
H460 H 0.75051 0.34885 0.07754 0.0
H461 H 0.7602 0.27945 0.06509 0.0
H462 H 0.8139 0.32902 0.05102 0.0
H463 H 0.81642 0.12413 0.00257 0.0
H464 H 0.94644 0.24278 0.96962 0.0
H465 H 0.71973 0.19493 0.94156 0.0
H466 H 0.71489 0.21193 0.0111 0.0
H467 H 0.72797 0.14417 0.99489 0.0
H468 H 0.87817 0.33959 0.9016 0.0
H469 H 0.93459 0.33194 0.94219 0.0
H470 H 0.87417 0.35647 0.97116 0.0
C471 C 0.67745 0.63568 0.04262 0.0
C472 C 0.65705 0.63731 0.99084 0.0
C473 C 0.71824 0.67335 0.05514 0.0
C474 C 0.73888 0.71328 0.01493 0.0
C475 C 0.71726 0.71579 0.96328 0.0
C476 C 0.67673 0.6781 0.95205 0.0
C477 C 0.74018 0.66967 0.11077 0.0
C478 C 0.73788 0.75752 0.91906 0.0
C479 C 0.81669 0.8431 0.04183 0.0
C480 C 0.86858 0.83174 0.02489 0.0
C481 C 0.77452 0.80367 0.04256 0.0
C482 C 0.78422 0.75178 0.02517 0.0
C483 C 0.83685 0.73945 0.01016 0.0
C484 C 0.87838 0.77943 0.01051 0.0
C485 C 0.71916 0.81846 0.0593 0.0
C486 C 0.84897 0.68495 0.9906 0.0
H487 H 0.66256 0.60431 0.07276 0.0
H488 H 0.66104 0.68021 0.91202 0.0
H489 H 0.78223 0.65928 0.10701 0.0
H490 H 0.73943 0.70918 0.12929 0.0
H491 H 0.71758 0.63885 0.13866 0.0
H492 H 0.71571 0.75494 0.88156 0.0
H493 H 0.73509 0.79853 0.93382 0.0
H494 H 0.78038 0.75225 0.90825 0.0
H495 H 0.8088 0.88314 0.05388 0.0
H496 H 0.91828 0.77019 0.99734 0.0
H497 H 0.69891 0.78671 0.08778 0.0
H498 H 0.69551 0.82168 0.02284 0.0
H499 H 0.71926 0.85743 0.07907 0.0
H500 H 0.82972 0.65245 0.01885 0.0
H501 H 0.89229 0.67959 0.98676 0.0
H502 H 0.83269 0.68018 0.95014 0.0
loop_
_geom_bond_atom_site_label_1
_geom_bond_atom_site_label_2
_geom_bond_distance
_geom_bond_site_symmetry_2
_ccdc_geom_bond_type
Cu0 N1 1.999 . S
Cu0 O6 1.974 . S
Cu0 N11 1.985 . S
Cu0 O20 1.959 . S
N1 Cu0 1.999 . S
N1 C3 1.263 . S
N1 C5 1.389 . S
N2 C3 1.358 . S
N2 C4 1.400 . S
C3 N1 1.263 . S
C3 N2 1.358 . S
C3 H9 0.930 1_455 S
C4 N2 1.400 . S
C4 C5 1.351 . S
C4 H21 0.930 . S
C5 N1 1.389 . S
C5 C4 1.351 . S
C5 H10 0.930 . S
O6 Cu0 1.974 . S
O6 C16 1.282 1_455 S
C7 O8 1.261 . S
C7 O20 1.251 1_655 S
O8 C7 1.261 . S
H9 C3 0.930 1_655 S
H10 C5 0.930 . S
N11 Cu0 1.985 . S
N11 C13 1.335 . S
N11 C14 1.390 1_455 S
N12 C13 1.345 . S
N12 C15 1.336 1_455 S
C13 N11 1.335 . S
C13 N12 1.345 . S
C13 H18 0.930 . S
C14 N11 1.390 1_655 S
C14 C15 1.346 . S
C14 H19 0.930 . S
C15 N12 1.336 1_655 S
C15 C14 1.346 . S
C15 H22 0.929 . S
C16 O6 1.282 1_655 S
C16 O17 1.216 . S
O17 C16 1.216 . S
H18 C13 0.930 . S
H19 C14 0.930 . S
O20 Cu0 1.959 . S
O20 C7 1.251 1_455 S
H21 C4 0.930 . S
H22 C15 0.929 . S
Cu23 N24 1.999 . S
Cu23 O29 1.974 . S
Cu23 N34 1.985 . S
Cu23 O43 1.959 . S
N24 Cu23 1.999 . S
N24 C26 1.267 . S
N24 C28 1.389 . S
N25 C26 1.361 . S
N25 C27 1.400 . S
C26 N24 1.267 . S
C26 N25 1.361 . S
C26 H32 0.924 1_565 S
C27 N25 1.400 . S
C27 C28 1.351 . S
C27 H44 0.930 . S
C28 N24 1.389 . S
C28 C27 1.351 . S
C28 H33 0.930 . S
O29 Cu23 1.974 . S
O29 C39 1.282 1_565 S
C30 O31 1.261 . S
C30 O43 1.251 1_545 S
O31 C30 1.261 . S
H32 C26 0.924 1_545 S
H33 C28 0.930 . S
N34 Cu23 1.985 . S
N34 C36 1.335 . S
N34 C37 1.390 1_565 S
N35 C36 1.349 . S
N35 C38 1.332 1_565 S
C36 N34 1.335 . S
C36 N35 1.349 . S
C36 H41 0.930 . S
C37 N34 1.390 1_545 S
C37 C38 1.346 . S
C37 H42 0.930 . S
C38 N35 1.332 1_545 S
C38 C37 1.346 . S
C38 H45 0.929 . S
C39 O29 1.282 1_545 S
C39 O40 1.216 . S
O40 C39 1.216 . S
H41 C36 0.930 . S
H42 C37 0.930 . S
O43 Cu23 1.959 . S
O43 C30 1.251 1_565 S
H44 C27 0.930 . S
H45 C38 0.929 . S
Cu46 N47 1.999 . S
Cu46 O52 1.974 . S
Cu46 N57 1.985 . S
Cu46 O66 1.959 . S
N47 Cu46 1.999 . S
N47 C49 1.263 . S
N47 C51 1.389 . S
N48 C49 1.358 . S
N48 C50 1.400 . S
C49 N47 1.263 . S
C49 N48 1.358 . S
C49 H55 0.930 1_556 S
C50 N48 1.400 . S
C50 C51 1.351 . S
C50 H67 0.930 . S
C51 N47 1.389 . S
C51 C50 1.351 . S
C51 H56 0.930 . S
O52 Cu46 1.974 . S
O52 C62 1.282 1_556 S
C53 O54 1.261 . S
C53 O66 1.251 1_554 S
O54 C53 1.261 . S
H55 C49 0.930 1_554 S
H56 C51 0.930 . S
N57 Cu46 1.985 . S
N57 C59 1.335 . S
N57 C60 1.390 1_556 S
N58 C59 1.345 . S
N58 C61 1.336 1_556 S
C59 N57 1.335 . S
C59 N58 1.345 . S
C59 H64 0.930 . S
C60 N57 1.390 1_554 S
C60 C61 1.346 . S
C60 H65 0.930 . S
C61 N58 1.336 1_554 S
C61 C60 1.346 . S
C61 H68 0.929 . S
C62 O52 1.282 1_554 S
C62 O63 1.216 . S
O63 C62 1.216 . S
H64 C59 0.930 . S
H65 C60 0.930 . S
O66 Cu46 1.959 . S
O66 C53 1.251 1_556 S
H67 C50 0.930 . S
H68 C61 0.929 . S
C69 O95 1.283 . S
C69 O113 1.283 . S
C70 O96 1.283 . S
C70 O111 1.283 . S
C71 O97 1.283 . S
C71 O114 1.283 . S
C72 O98 1.283 . S
C72 O112 1.283 . S
C73 O99 1.283 1_554 S
C73 O108 1.283 . S
C74 O100 1.283 . S
C74 O110 1.283 . S
C75 O101 1.283 . S
C75 O107 1.283 . S
C76 O102 1.283 . S
C76 O109 1.283 1_554 S
C77 O103 1.283 . S
C77 O118 1.283 . S
C78 O104 1.283 . S
C78 O116 1.283 . S
C79 O105 1.283 . S
C79 O117 1.283 . S
C80 O106 1.283 . S
C80 O115 1.283 . S
Eu81 O82 2.370 1_556 S
Eu81 O83 2.370 1_455 S
Eu81 O86 2.370 . S
Eu81 O87 2.370 1_456 S
Eu81 O95 2.363 . S
Eu81 O96 2.363 1_556 S
Eu81 O109 2.363 1_455 S
Eu81 O110 2.363 . S
O82 Eu81 2.370 1_554 S
O82 Eu84 2.370 1_554 S
O82 Eu89 2.359 1_455 S
O83 Eu81 2.370 1_655 S
O83 Eu85 2.370 1_556 S
O83 Eu88 2.370 1_655 S
Eu84 O82 2.370 1_556 S
Eu84 O86 2.370 . S
Eu84 O90 2.370 1_545 S
Eu84 O91 2.370 1_546 S
Eu84 O99 2.363 1_545 S
Eu84 O100 2.363 . S
Eu84 O115 2.363 . S
Eu84 O116 2.363 1_556 S
Eu85 O83 2.370 1_554 S
Eu85 O87 2.370 . S
Eu85 O92 2.370 1_545 S
Eu85 O93 2.370 1_544 S
Eu85 O101 2.363 1_545 S
Eu85 O102 2.363 . S
Eu85 O117 2.363 1_554 S
Eu85 O118 2.363 . S
O86 Eu81 2.370 . S
O86 Eu84 2.370 . S
O86 Eu88 2.370 . S
O87 Eu81 2.370 1_654 S
O87 Eu85 2.370 . S
O87 Eu89 2.383 . S
Eu88 O83 2.370 1_455 S
Eu88 O86 2.370 . S
Eu88 O90 2.370 1_545 S
Eu88 O93 2.370 1_445 S
Eu88 O105 2.363 1_455 S
Eu88 O106 2.363 . S
Eu88 O113 2.363 . S
Eu88 O114 2.363 1_545 S
Eu89 O82 2.359 1_655 S
Eu89 O87 2.383 . S
Eu89 O91 2.358 1_645 S
Eu89 O92 2.382 1_545 S
Eu89 O103 2.383 . S
Eu89 O104 2.342 1_655 S
Eu89 O111 2.363 1_655 S
Eu89 O112 2.362 1_545 S
O90 Eu84 2.370 1_565 S
O90 Eu88 2.370 1_565 S
O90 Eu94 2.361 1_456 S
O91 Eu84 2.370 1_564 S
O91 Eu89 2.358 1_465 S
O91 Eu94 2.361 1_455 S
O92 Eu85 2.370 1_565 S
O92 Eu89 2.382 1_565 S
O92 Eu94 2.380 . S
O93 Eu85 2.370 1_566 S
O93 Eu88 2.370 1_665 S
O93 Eu94 2.380 1_556 S
Eu94 O90 2.361 1_654 S
Eu94 O91 2.361 1_655 S
Eu94 O92 2.380 . S
Eu94 O93 2.380 1_554 S
Eu94 O97 2.364 1_654 S
Eu94 O98 2.362 . S
Eu94 O107 2.379 . S
Eu94 O108 2.347 1_655 S
O95 C69 1.283 . S
O95 Eu81 2.363 . S
O96 C70 1.283 . S
O96 Eu81 2.363 1_554 S
O97 C71 1.283 . S
O97 Eu94 2.364 1_456 S
O98 C72 1.283 . S
O98 Eu94 2.362 . S
O99 C73 1.283 1_556 S
O99 Eu84 2.363 1_565 S
O100 C74 1.283 . S
O100 Eu84 2.363 . S
O101 C75 1.283 . S
O101 Eu85 2.363 1_565 S
O102 C76 1.283 . S
O102 Eu85 2.363 . S
O103 C77 1.283 . S
O103 Eu89 2.383 . S
O104 C78 1.283 . S
O104 Eu89 2.342 1_455 S
O105 C79 1.283 . S
O105 Eu88 2.363 1_655 S
O106 C80 1.283 . S
O106 Eu88 2.363 . S
O107 C75 1.283 . S
O107 Eu94 2.379 . S
O108 C73 1.283 . S
O108 Eu94 2.347 1_455 S
O109 C76 1.283 1_556 S
O109 Eu81 2.363 1_655 S
O110 C74 1.283 . S
O110 Eu81 2.363 . S
O111 C70 1.283 . S
O111 Eu89 2.363 1_455 S
O112 C72 1.283 . S
O112 Eu89 2.362 1_565 S
O113 C69 1.283 . S
O113 Eu88 2.363 . S
O114 C71 1.283 . S
O114 Eu88 2.363 1_565 S
O115 C80 1.283 . S
O115 Eu84 2.363 . S
O116 C78 1.283 . S
O116 Eu84 2.363 1_554 S
O117 C79 1.283 . S
O117 Eu85 2.363 1_556 S
O118 C77 1.283 . S
O118 Eu85 2.363 . S
C119 C120 1.391 . S
C119 C121 1.394 . S
C119 H135 0.931 . S
C120 C119 1.391 . S
C120 C124 1.376 1_455 S
C121 C119 1.394 . S
C121 C122 1.369 . S
C121 C125 1.531 . S
C122 C121 1.369 . S
C122 C123 1.410 1_455 S
C122 C130 1.503 . S
C123 C122 1.410 1_655 S
C123 C124 1.392 . S
C123 C126 1.511 . S
C124 C120 1.376 1_655 S
C124 C123 1.392 . S
C124 H136 0.929 . S
C125 C121 1.531 . S
C125 H137 0.960 . S
C125 H138 0.962 . S
C125 H139 0.960 . S
C126 C123 1.511 . S
C126 H140 0.961 . S
C126 H141 0.961 . S
C126 H142 0.961 . S
C127 C128 1.370 . S
C127 C129 1.363 . S
C127 H143 0.931 . S
C128 C127 1.370 . S
C128 C132 1.408 1_455 S
C129 C127 1.363 . S
C129 C130 1.370 . S
C129 C133 1.524 . S
C130 C122 1.503 . S
C130 C129 1.370 . S
C130 C131 1.403 1_455 S
C131 C130 1.403 1_655 S
C131 C132 1.404 . S
C131 C134 1.539 . S
C132 C128 1.408 1_655 S
C132 C131 1.404 . S
C132 H144 0.930 . S
C133 C129 1.524 . S
C133 H145 0.956 . S
C133 H146 0.961 . S
C133 H147 0.961 . S
C134 C131 1.539 . S
C134 H148 0.958 . S
C134 H149 0.961 . S
C134 H150 0.960 . S
H135 C119 0.931 . S
H136 C124 0.929 . S
H137 C125 0.960 . S
H138 C125 0.962 . S
H139 C125 0.960 . S
H140 C126 0.961 . S
H141 C126 0.961 . S
H142 C126 0.961 . S
H143 C127 0.931 . S
H144 C132 0.930 . S
H145 C133 0.956 . S
H146 C133 0.961 . S
H147 C133 0.961 . S
H148 C134 0.958 . S
H149 C134 0.961 . S
H150 C134 0.960 . S
C151 C152 1.391 1_565 S
C151 C153 1.394 . S
C151 H167 0.931 . S
C152 C151 1.391 1_545 S
C152 C156 1.376 . S
C153 C151 1.394 . S
C153 C154 1.369 1_565 S
C153 C157 1.531 . S
C154 C153 1.369 1_545 S
C154 C155 1.410 . S
C154 C162 1.503 . S
C155 C154 1.410 . S
C155 C156 1.392 . S
C155 C158 1.511 . S
C156 C152 1.376 . S
C156 C155 1.392 . S
C156 H168 0.929 . S
C157 C153 1.531 . S
C157 H169 0.960 . S
C157 H170 0.962 . S
C157 H171 0.960 . S
C158 C155 1.511 . S
C158 H172 0.961 . S
C158 H173 0.961 . S
C158 H174 0.961 . S
C159 C160 1.370 . S
C159 C161 1.363 . S
C159 H175 0.931 . S
C160 C159 1.370 . S
C160 C164 1.408 1_545 S
C161 C159 1.363 . S
C161 C162 1.370 . S
C161 C165 1.524 . S
C162 C154 1.503 . S
C162 C161 1.370 . S
C162 C163 1.403 1_545 S
C163 C162 1.403 1_565 S
C163 C164 1.404 . S
C163 C166 1.539 . S
C164 C160 1.408 1_565 S
C164 C163 1.404 . S
C164 H176 0.930 . S
C165 C161 1.524 . S
C165 H177 0.956 . S
C165 H178 0.961 . S
C165 H179 0.961 . S
C166 C163 1.539 . S
C166 H180 0.958 . S
C166 H181 0.961 . S
C166 H182 0.960 . S
H167 C151 0.931 . S
H168 C156 0.929 . S
H169 C157 0.960 . S
H170 C157 0.962 . S
H171 C157 0.960 . S
H172 C158 0.961 . S
H173 C158 0.961 . S
H174 C158 0.961 . S
H175 C159 0.931 . S
H176 C164 0.930 . S
H177 C165 0.956 . S
H178 C165 0.961 . S
H179 C165 0.961 . S
H180 C166 0.958 . S
H181 C166 0.961 . S
H182 C166 0.960 . S
C183 C184 1.391 1_455 S
C183 C185 1.394 . S
C183 H199 0.931 . S
C184 C183 1.391 1_655 S
C184 C188 1.376 . S
C185 C183 1.394 . S
C185 C186 1.369 1_455 S
C185 C189 1.531 . S
C186 C185 1.369 1_655 S
C186 C187 1.410 . S
C186 C194 1.503 . S
C187 C186 1.410 . S
C187 C188 1.392 . S
C187 C190 1.511 . S
C188 C184 1.376 . S
C188 C187 1.392 . S
C188 H200 0.929 . S
C189 C185 1.531 . S
C189 H201 0.960 . S
C189 H202 0.962 . S
C189 H203 0.960 . S
C190 C187 1.511 . S
C190 H204 0.961 . S
C190 H205 0.961 . S
C190 H206 0.961 . S
C191 C192 1.370 . S
C191 C193 1.363 . S
C191 H207 0.931 . S
C192 C191 1.370 . S
C192 C196 1.408 1_655 S
C193 C191 1.363 . S
C193 C194 1.370 . S
C193 C197 1.524 . S
C194 C186 1.503 . S
C194 C193 1.370 . S
C194 C195 1.403 1_655 S
C195 C194 1.403 1_455 S
C195 C196 1.404 . S
C195 C198 1.539 . S
C196 C192 1.408 1_455 S
C196 C195 1.404 . S
C196 H208 0.930 . S
C197 C193 1.524 . S
C197 H209 0.956 1_655 S
C197 H210 0.961 . S
C197 H211 0.961 . S
C198 C195 1.539 . S
C198 H212 0.958 . S
C198 H213 0.961 1_455 S
C198 H214 0.960 1_455 S
H199 C183 0.931 . S
H200 C188 0.929 . S
H201 C189 0.960 . S
H202 C189 0.962 . S
H203 C189 0.960 . S
H204 C190 0.961 . S
H205 C190 0.961 . S
H206 C190 0.961 . S
H207 C191 0.931 . S
H208 C196 0.930 . S
H209 C197 0.956 1_455 S
H210 C197 0.961 . S
H211 C197 0.961 . S
H212 C198 0.958 . S
H213 C198 0.961 1_655 S
H214 C198 0.960 1_655 S
C215 C216 1.391 . S
C215 C217 1.394 . S
C215 H231 0.931 . S
C216 C215 1.391 . S
C216 C220 1.376 . S
C217 C215 1.394 . S
C217 C218 1.369 . S
C217 C221 1.531 . S
C218 C217 1.369 . S
C218 C219 1.410 . S
C218 C226 1.503 . S
C219 C218 1.410 . S
C219 C220 1.392 . S
C219 C222 1.511 . S
C220 C216 1.376 . S
C220 C219 1.392 . S
C220 H232 0.929 . S
C221 C217 1.531 . S
C221 H233 0.960 . S
C221 H234 0.962 1_565 S
C221 H235 0.960 . S
C222 C219 1.511 . S
C222 H236 0.961 1_565 S
C222 H237 0.961 1_565 S
C222 H238 0.961 . S
C223 C224 1.370 . S
C223 C225 1.363 . S
C223 H239 0.931 . S
C224 C223 1.370 . S
C224 C228 1.408 1_545 S
C225 C223 1.363 . S
C225 C226 1.370 1_545 S
C225 C229 1.524 . S
C226 C218 1.503 . S
C226 C225 1.370 1_565 S
C226 C227 1.403 . S
C227 C226 1.403 . S
C227 C228 1.404 . S
C227 C230 1.539 . S
C228 C224 1.408 1_565 S
C228 C227 1.404 . S
C228 H240 0.930 . S
C229 C225 1.524 . S
C229 H241 0.956 . S
C229 H242 0.961 . S
C229 H243 0.961 . S
C230 C227 1.539 . S
C230 H244 0.958 . S
C230 H245 0.961 . S
C230 H246 0.960 . S
H231 C215 0.931 . S
H232 C220 0.929 . S
H233 C221 0.960 . S
H234 C221 0.962 1_545 S
H235 C221 0.960 . S
H236 C222 0.961 1_545 S
H237 C222 0.961 1_545 S
H238 C222 0.961 . S
H239 C223 0.931 . S
H240 C228 0.930 . S
H241 C229 0.956 . S
H242 C229 0.961 . S
H243 C229 0.961 . S
H244 C230 0.958 . S
H245 C230 0.961 . S
H246 C230 0.960 . S
C247 C248 1.391 . S
C247 C249 1.394 . S
C247 H263 0.931 1_455 S
C248 C247 1.391 . S
C248 C252 1.376 . S
C249 C247 1.394 . S
C249 C250 1.369 . S
C249 C253 1.531 1_455 S
C250 C249 1.369 . S
C250 C251 1.410 . S
C250 C258 1.503 . S
C251 C250 1.410 . S
C251 C252 1.392 . S
C251 C254 1.511 . S
C252 C248 1.376 . S
C252 C251 1.392 . S
C252 H264 0.929 . S
C253 C249 1.531 1_655 S
C253 H265 0.960 1_655 S
C253 H266 0.962 . S
C253 H267 0.960 . S
C254 C251 1.511 . S
C254 H268 0.961 . S
C254 H269 0.961 . S
C254 H270 0.961 . S
C255 C256 1.370 1_655 S
C255 C257 1.363 . S
C255 H271 0.931 . S
C256 C255 1.370 1_455 S
C256 C260 1.408 . S
C257 C255 1.363 . S
C257 C258 1.370 1_655 S
C257 C261 1.524 . S
C258 C250 1.503 . S
C258 C257 1.370 1_455 S
C258 C259 1.403 . S
C259 C258 1.403 . S
C259 C260 1.404 . S
C259 C262 1.539 . S
C260 C256 1.408 . S
C260 C259 1.404 . S
C260 H272 0.930 . S
C261 C257 1.524 . S
C261 H273 0.956 . S
C261 H274 0.961 . S
C261 H275 0.961 . S
C262 C259 1.539 . S
C262 H276 0.958 . S
C262 H277 0.961 . S
C262 H278 0.960 . S
H263 C247 0.931 1_655 S
H264 C252 0.929 . S
H265 C253 0.960 1_455 S
H266 C253 0.962 . S
H267 C253 0.960 . S
H268 C254 0.961 . S
H269 C254 0.961 . S
H270 C254 0.961 . S
H271 C255 0.931 . S
H272 C260 0.930 . S
H273 C261 0.956 . S
H274 C261 0.961 . S
H275 C261 0.961 . S
H276 C262 0.958 . S
H277 C262 0.961 . S
H278 C262 0.960 . S
C279 C280 1.391 1_565 S
C279 C281 1.394 . S
C279 H295 0.931 . S
C280 C279 1.391 1_545 S
C280 C284 1.376 . S
C281 C279 1.394 . S
C281 C282 1.369 1_565 S
C281 C285 1.531 . S
C282 C281 1.369 1_545 S
C282 C283 1.410 . S
C282 C290 1.503 . S
C283 C282 1.410 . S
C283 C284 1.392 . S
C283 C286 1.511 . S
C284 C280 1.376 . S
C284 C283 1.392 . S
C284 H296 0.929 . S
C285 C281 1.531 . S
C285 H297 0.960 . S
C285 H298 0.962 . S
C285 H299 0.960 . S
C286 C283 1.511 . S
C286 H300 0.961 . S
C286 H301 0.961 . S
C286 H302 0.961 . S
C287 C288 1.370 1_565 S
C287 C289 1.363 . S
C287 H303 0.931 . S
C288 C287 1.370 1_545 S
C288 C292 1.408 . S
C289 C287 1.363 . S
C289 C290 1.370 1_565 S
C289 C293 1.524 . S
C290 C282 1.503 . S
C290 C289 1.370 1_545 S
C290 C291 1.403 . S
C291 C290 1.403 . S
C291 C292 1.404 . S
C291 C294 1.539 . S
C292 C288 1.408 . S
C292 C291 1.404 . S
C292 H304 0.930 . S
C293 C289 1.524 . S
C293 H305 0.956 . S
C293 H306 0.961 . S
C293 H307 0.961 . S
C294 C291 1.539 . S
C294 H308 0.958 . S
C294 H309 0.961 . S
C294 H310 0.960 . S
H295 C279 0.931 . S
H296 C284 0.929 . S
H297 C285 0.960 . S
H298 C285 0.962 . S
H299 C285 0.960 . S
H300 C286 0.961 . S
H301 C286 0.961 . S
H302 C286 0.961 . S
H303 C287 0.931 . S
H304 C292 0.930 . S
H305 C293 0.956 . S
H306 C293 0.961 . S
H307 C293 0.961 . S
H308 C294 0.958 . S
H309 C294 0.961 . S
H310 C294 0.960 . S
C311 C312 1.391 . S
C311 C313 1.394 . S
C311 H327 0.931 . S
C312 C311 1.391 . S
C312 C316 1.376 1_655 S
C313 C311 1.394 . S
C313 C314 1.369 1_655 S
C313 C317 1.531 . S
C314 C313 1.369 1_455 S
C314 C315 1.410 . S
C314 C322 1.503 . S
C315 C314 1.410 . S
C315 C316 1.392 . S
C315 C318 1.511 . S
C316 C312 1.376 1_455 S
C316 C315 1.392 . S
C316 H328 0.929 . S
C317 C313 1.531 . S
C317 H329 0.960 . S
C317 H330 0.962 . S
C317 H331 0.960 . S
C318 C315 1.511 . S
C318 H332 0.961 . S
C318 H333 0.961 . S
C318 H334 0.961 . S
C319 C320 1.370 1_655 S
C319 C321 1.363 . S
C319 H335 0.931 . S
C320 C319 1.370 1_455 S
C320 C324 1.408 . S
C321 C319 1.363 . S
C321 C322 1.370 1_655 S
C321 C325 1.524 . S
C322 C314 1.503 . S
C322 C321 1.370 1_455 S
C322 C323 1.403 . S
C323 C322 1.403 . S
C323 C324 1.404 . S
C323 C326 1.539 . S
C324 C320 1.408 . S
C324 C323 1.404 . S
C324 H336 0.930 . S
C325 C321 1.524 . S
C325 H337 0.956 . S
C325 H338 0.961 . S
C325 H339 0.961 . S
C326 C323 1.539 . S
C326 H340 0.958 . S
C326 H341 0.961 . S
C326 H342 0.960 . S
H327 C311 0.931 . S
H328 C316 0.929 . S
H329 C317 0.960 . S
H330 C317 0.962 . S
H331 C317 0.960 . S
H332 C318 0.961 . S
H333 C318 0.961 . S
H334 C318 0.961 . S
H335 C319 0.931 . S
H336 C324 0.930 . S
H337 C325 0.956 . S
H338 C325 0.961 . S
H339 C325 0.961 . S
H340 C326 0.958 . S
H341 C326 0.961 . S
H342 C326 0.960 . S
C343 C344 1.391 . S
C343 C345 1.394 . S
C343 H359 0.931 . S
C344 C343 1.391 . S
C344 C348 1.376 . S
C345 C343 1.394 . S
C345 C346 1.369 . S
C345 C349 1.531 . S
C346 C345 1.369 . S
C346 C347 1.410 . S
C346 C354 1.503 . S
C347 C346 1.410 . S
C347 C348 1.392 . S
C347 C350 1.511 . S
C348 C344 1.376 . S
C348 C347 1.392 . S
C348 H360 0.929 . S
C349 C345 1.531 . S
C349 H361 0.960 . S
C349 H362 0.962 1_565 S
C349 H363 0.960 . S
C350 C347 1.511 . S
C350 H364 0.961 . S
C350 H365 0.961 . S
C350 H366 0.961 . S
C351 C352 1.370 . S
C351 C353 1.363 . S
C351 H367 0.931 . S
C352 C351 1.370 . S
C352 C356 1.408 1_545 S
C353 C351 1.363 . S
C353 C354 1.370 1_545 S
C353 C357 1.524 . S
C354 C346 1.503 . S
C354 C353 1.370 1_565 S
C354 C355 1.403 . S
C355 C354 1.403 . S
C355 C356 1.404 . S
C355 C358 1.539 . S
C356 C352 1.408 1_565 S
C356 C355 1.404 . S
C356 H368 0.930 . S
C357 C353 1.524 . S
C357 H369 0.956 . S
C357 H370 0.961 . S
C357 H371 0.961 . S
C358 C355 1.539 . S
C358 H372 0.958 . S
C358 H373 0.961 . S
C358 H374 0.960 . S
H359 C343 0.931 . S
H360 C348 0.929 . S
H361 C349 0.960 . S
H362 C349 0.962 1_545 S
H363 C349 0.960 . S
H364 C350 0.961 . S
H365 C350 0.961 . S
H366 C350 0.961 . S
H367 C351 0.931 . S
H368 C356 0.930 . S
H369 C357 0.956 . S
H370 C357 0.961 . S
H371 C357 0.961 . S
H372 C358 0.958 . S
H373 C358 0.961 . S
H374 C358 0.960 . S
C375 C376 1.391 1_556 S
C375 C377 1.394 . S
C375 H391 0.931 . S
C376 C375 1.391 1_554 S
C376 C380 1.376 . S
C377 C375 1.394 . S
C377 C378 1.369 1_556 S
C377 C381 1.531 . S
C378 C377 1.369 1_554 S
C378 C379 1.410 . S
C378 C386 1.503 . S
C379 C378 1.410 . S
C379 C380 1.392 . S
C379 C382 1.511 . S
C380 C376 1.376 . S
C380 C379 1.392 . S
C380 H392 0.929 . S
C381 C377 1.531 . S
C381 H393 0.960 . S
C381 H394 0.962 . S
C381 H395 0.960 . S
C382 C379 1.511 . S
C382 H396 0.961 . S
C382 H397 0.961 . S
C382 H398 0.961 . S
C383 C384 1.370 . S
C383 C385 1.363 . S
C383 H399 0.931 . S
C384 C383 1.370 . S
C384 C388 1.408 1_556 S
C385 C383 1.363 . S
C385 C386 1.370 1_556 S
C385 C389 1.524 . S
C386 C378 1.503 . S
C386 C385 1.370 1_554 S
C386 C387 1.403 . S
C387 C386 1.403 . S
C387 C388 1.404 . S
C387 C390 1.539 . S
C388 C384 1.408 1_554 S
C388 C387 1.404 . S
C388 H400 0.930 . S
C389 C385 1.524 . S
C389 H401 0.956 . S
C389 H402 0.961 . S
C389 H403 0.961 . S
C390 C387 1.539 . S
C390 H404 0.958 . S
C390 H405 0.961 . S
C390 H406 0.960 . S
H391 C375 0.931 . S
H392 C380 0.929 . S
H393 C381 0.960 . S
H394 C381 0.962 . S
H395 C381 0.960 . S
H396 C382 0.961 . S
H397 C382 0.961 . S
H398 C382 0.961 . S
H399 C383 0.931 . S
H400 C388 0.930 . S
H401 C389 0.956 . S
H402 C389 0.961 . S
H403 C389 0.961 . S
H404 C390 0.958 . S
H405 C390 0.961 . S
H406 C390 0.960 . S
C407 C408 1.391 1_554 S
C407 C409 1.394 . S
C407 H423 0.931 . S
C408 C407 1.391 1_556 S
C408 C412 1.376 . S
C409 C407 1.394 . S
C409 C410 1.369 . S
C409 C413 1.531 . S
C410 C409 1.369 . S
C410 C411 1.410 1_554 S
C410 C418 1.503 . S
C411 C410 1.410 1_556 S
C411 C412 1.392 . S
C411 C414 1.511 . S
C412 C408 1.376 . S
C412 C411 1.392 . S
C412 H424 0.929 . S
C413 C409 1.531 . S
C413 H425 0.960 . S
C413 H426 0.962 . S
C413 H427 0.960 . S
C414 C411 1.511 . S
C414 H428 0.961 . S
C414 H429 0.961 . S
C414 H430 0.961 . S
C415 C416 1.370 1_556 S
C415 C417 1.363 . S
C415 H431 0.931 . S
C416 C415 1.370 1_554 S
C416 C420 1.408 . S
C417 C415 1.363 . S
C417 C418 1.370 1_556 S
C417 C421 1.524 . S
C418 C410 1.503 . S
C418 C417 1.370 1_554 S
C418 C419 1.403 . S
C419 C418 1.403 . S
C419 C420 1.404 . S
C419 C422 1.539 . S
C420 C416 1.408 . S
C420 C419 1.404 . S
C420 H432 0.930 . S
C421 C417 1.524 . S
C421 H433 0.956 . S
C421 H434 0.961 . S
C421 H435 0.961 . S
C422 C419 1.539 . S
C422 H436 0.958 . S
C422 H437 0.961 . S
C422 H438 0.960 . S
H423 C407 0.931 . S
H424 C412 0.929 . S
H425 C413 0.960 . S
H426 C413 0.962 . S
H427 C413 0.960 . S
H428 C414 0.961 . S
H429 C414 0.961 . S
H430 C414 0.961 . S
H431 C415 0.931 . S
H432 C420 0.930 . S
H433 C421 0.956 . S
H434 C421 0.961 . S
H435 C421 0.961 . S
H436 C422 0.958 . S
H437 C422 0.961 . S
H438 C422 0.960 . S
C439 C440 1.391 . S
C439 C441 1.394 . S
C439 H455 0.931 . S
C440 C439 1.391 . S
C440 C444 1.376 1_556 S
C441 C439 1.394 . S
C441 C442 1.369 . S
C441 C445 1.531 . S
C442 C441 1.369 . S
C442 C443 1.410 1_556 S
C442 C450 1.503 . S
C443 C442 1.410 1_554 S
C443 C444 1.392 . S
C443 C446 1.511 . S
C444 C440 1.376 1_554 S
C444 C443 1.392 . S
C444 H456 0.929 . S
C445 C441 1.531 . S
C445 H457 0.960 . S
C445 H458 0.962 . S
C445 H459 0.960 . S
C446 C443 1.511 . S
C446 H460 0.961 . S
C446 H461 0.961 . S
C446 H462 0.961 . S
C447 C448 1.370 1_554 S
C447 C449 1.363 . S
C447 H463 0.931 . S
C448 C447 1.370 1_556 S
C448 C452 1.408 . S
C449 C447 1.363 . S
C449 C450 1.370 1_554 S
C449 C453 1.524 . S
C450 C442 1.503 . S
C450 C449 1.370 1_556 S
C450 C451 1.403 . S
C451 C450 1.403 . S
C451 C452 1.404 . S
C451 C454 1.539 . S
C452 C448 1.408 . S
C452 C451 1.404 . S
C452 H464 0.930 . S
C453 C449 1.524 . S
C453 H465 0.956 . S
C453 H466 0.961 . S
C453 H467 0.961 . S
C454 C451 1.539 . S
C454 H468 0.958 . S
C454 H469 0.961 . S
C454 H470 0.960 . S
H455 C439 0.931 . S
H456 C444 0.929 . S
H457 C445 0.960 . S
H458 C445 0.962 . S
H459 C445 0.960 . S
H460 C446 0.961 . S
H461 C446 0.961 . S
H462 C446 0.961 . S
H463 C447 0.931 . S
H464 C452 0.930 . S
H465 C453 0.956 . S
H466 C453 0.961 . S
H467 C453 0.961 . S
H468 C454 0.958 . S
H469 C454 0.961 . S
H470 C454 0.960 . S
C471 C472 1.391 . S
C471 C473 1.394 . S
C471 H487 0.931 . S
C472 C471 1.391 . S
C472 C476 1.376 1_554 S
C473 C471 1.394 . S
C473 C474 1.369 . S
C473 C477 1.531 . S
C474 C473 1.369 . S
C474 C475 1.410 1_554 S
C474 C482 1.503 . S
C475 C474 1.410 1_556 S
C475 C476 1.392 . S
C475 C478 1.511 . S
C476 C472 1.376 1_556 S
C476 C475 1.392 . S
C476 H488 0.929 . S
C477 C473 1.531 . S
C477 H489 0.960 . S
C477 H490 0.962 . S
C477 H491 0.960 . S
C478 C475 1.511 . S
C478 H492 0.961 . S
C478 H493 0.961 . S
C478 H494 0.961 . S
C479 C480 1.370 . S
C479 C481 1.363 . S
C479 H495 0.931 . S
C480 C479 1.370 . S
C480 C484 1.408 1_554 S
C481 C479 1.363 . S
C481 C482 1.370 . S
C481 C485 1.524 . S
C482 C474 1.503 . S
C482 C481 1.370 . S
C482 C483 1.403 1_554 S
C483 C482 1.403 1_556 S
C483 C484 1.404 . S
C483 C486 1.539 . S
C484 C480 1.408 1_556 S
C484 C483 1.404 . S
C484 H496 0.930 . S
C485 C481 1.524 . S
C485 H497 0.956 . S
C485 H498 0.961 . S
C485 H499 0.961 . S
C486 C483 1.539 . S
C486 H500 0.958 . S
C486 H501 0.961 . S
C486 H502 0.960 . S
H487 C471 0.931 . S
H488 C476 0.929 . S
H489 C477 0.960 . S
H490 C477 0.962 . S
H491 C477 0.960 . S
H492 C478 0.961 . S
H493 C478 0.961 . S
H494 C478 0.961 . S
H495 C479 0.931 . S
H496 C484 0.930 . S
H497 C485 0.956 . S
H498 C485 0.961 . S
H499 C485 0.961 . S
H500 C486 0.958 . S
H501 C486 0.961 . S
H502 C486 0.960 . S
C128 C70 1.246 . S
C120 N2 1.239 . S
C160 C77 1.619 . S
C152 C39 1.601 . S
C192 C72 1.470 . S
C184 C7 1.446 . S
C224 C78 1.383 . S
C216 N35 1.343 . S
C248 N12 1.164 . S
C256 C71 1.219 . S
C288 C80 1.649 . S
C280 C30 1.633 . S
C312 C16 1.443 . S
C320 C69 1.443 . S
C344 N25 1.346 . S
C352 C79 1.412 . S
C376 C62 1.767 . S
C384 C74 1.798 . S
C408 N48 1.526 . S
C416 C73 1.588 . S
C448 C76 1.560 1_556 S
C440 N58 1.517 . S
C480 C75 1.830 . S
C472 C53 1.817 . S
