# Generated by pormake.
# Topology cor, (4,6)-cn, num edge types: 1
# Building blocks:
#     Node 0, Type 0, BuildingBlock: KUFVIS_clean_sbu_0, # of connection points: 4
#     Node 1, Type 0, BuildingBlock: KUFVIS_clean_sbu_0, # of connection points: 4
#     Node 2, Type 0, BuildingBlock: KUFVIS_clean_sbu_0, # of connection points: 4
#     Node 3, Type 0, BuildingBlock: KUFVIS_clean_sbu_0, # of connection points: 4
#     Node 4, Type 0, BuildingBlock: KUFVIS_clean_sbu_0, # of connection points: 4
#     Node 5, Type 0, BuildingBlock: KUFVIS_clean_sbu_0, # of connection points: 4
#     Node 6, Type 0, BuildingBlock: KUFVIS_clean_sbu_0, # of connection points: 4
#     Node 7, Type 0, BuildingBlock: KUFVIS_clean_sbu_0, # of connection points: 4
#     Node 8, Type 0, BuildingBlock: KUFVIS_clean_sbu_0, # of connection points: 4
#     Node 9, Type 0, BuildingBlock: KUFVIS_clean_sbu_0, # of connection points: 4
#     Node 10, Type 0, BuildingBlock: KUFVIS_clean_sbu_0, # of connection points: 4
#     Node 11, Type 0, BuildingBlock: KUFVIS_clean_sbu_0, # of connection points: 4
#     Node 12, Type 0, BuildingBlock: KUFVIS_clean_sbu_0, # of connection points: 4
#     Node 13, Type 0, BuildingBlock: KUFVIS_clean_sbu_0, # of connection points: 4
#     Node 14, Type 0, BuildingBlock: KUFVIS_clean_sbu_0, # of connection points: 4
#     Node 15, Type 0, BuildingBlock: KUFVIS_clean_sbu_0, # of connection points: 4
#     Node 16, Type 0, BuildingBlock: KUFVIS_clean_sbu_0, # of connection points: 4
#     Node 17, Type 0, BuildingBlock: KUFVIS_clean_sbu_0, # of connection points: 4
#     Node 18, Type 1, BuildingBlock: MIDCAF_clean_sbu_0, # of connection points: 6
#     Node 19, Type 1, BuildingBlock: MIDCAF_clean_sbu_0, # of connection points: 6
#     Node 20, Type 1, BuildingBlock: MIDCAF_clean_sbu_0, # of connection points: 6
#     Node 21, Type 1, BuildingBlock: MIDCAF_clean_sbu_0, # of connection points: 6
#     Node 22, Type 1, BuildingBlock: MIDCAF_clean_sbu_0, # of connection points: 6
#     Node 23, Type 1, BuildingBlock: MIDCAF_clean_sbu_0, # of connection points: 6
#     Node 24, Type 1, BuildingBlock: MIDCAF_clean_sbu_0, # of connection points: 6
#     Node 25, Type 1, BuildingBlock: MIDCAF_clean_sbu_0, # of connection points: 6
#     Node 26, Type 1, BuildingBlock: MIDCAF_clean_sbu_0, # of connection points: 6
#     Node 27, Type 1, BuildingBlock: MIDCAF_clean_sbu_0, # of connection points: 6
#     Node 28, Type 1, BuildingBlock: MIDCAF_clean_sbu_0, # of connection points: 6
#     Node 29, Type 1, BuildingBlock: MIDCAF_clean_sbu_0, # of connection points: 6
#     Edge 30, Type (0, 1), BuildingBlock: XIVTED_clean_linker_0, # of connection points: 2
#     Edge 31, Type (0, 1), BuildingBlock: XIVTED_clean_linker_0, # of connection points: 2
#     Edge 32, Type (0, 1), BuildingBlock: XIVTED_clean_linker_0, # of connection points: 2
#     Edge 33, Type (0, 1), BuildingBlock: XIVTED_clean_linker_0, # of connection points: 2
#     Edge 34, Type (0, 1), BuildingBlock: XIVTED_clean_linker_0, # of connection points: 2
#     Edge 35, Type (0, 1), BuildingBlock: XIVTED_clean_linker_0, # of connection points: 2
#     Edge 36, Type (0, 1), BuildingBlock: XIVTED_clean_linker_0, # of connection points: 2
#     Edge 37, Type (0, 1), BuildingBlock: XIVTED_clean_linker_0, # of connection points: 2
#     Edge 38, Type (0, 1), BuildingBlock: XIVTED_clean_linker_0, # of connection points: 2
#     Edge 39, Type (0, 1), BuildingBlock: XIVTED_clean_linker_0, # of connection points: 2
#     Edge 40, Type (0, 1), BuildingBlock: XIVTED_clean_linker_0, # of connection points: 2
#     Edge 41, Type (0, 1), BuildingBlock: XIVTED_clean_linker_0, # of connection points: 2
#     Edge 42, Type (0, 1), BuildingBlock: XIVTED_clean_linker_0, # of connection points: 2
#     Edge 43, Type (0, 1), BuildingBlock: XIVTED_clean_linker_0, # of connection points: 2
#     Edge 44, Type (0, 1), BuildingBlock: XIVTED_clean_linker_0, # of connection points: 2
#     Edge 45, Type (0, 1), BuildingBlock: XIVTED_clean_linker_0, # of connection points: 2
#     Edge 46, Type (0, 1), BuildingBlock: XIVTED_clean_linker_0, # of connection points: 2
#     Edge 47, Type (0, 1), BuildingBlock: XIVTED_clean_linker_0, # of connection points: 2
#     Edge 48, Type (0, 1), BuildingBlock: XIVTED_clean_linker_0, # of connection points: 2
#     Edge 49, Type (0, 1), BuildingBlock: XIVTED_clean_linker_0, # of connection points: 2
#     Edge 50, Type (0, 1), BuildingBlock: XIVTED_clean_linker_0, # of connection points: 2
#     Edge 51, Type (0, 1), BuildingBlock: XIVTED_clean_linker_0, # of connection points: 2
#     Edge 52, Type (0, 1), BuildingBlock: XIVTED_clean_linker_0, # of connection points: 2
#     Edge 53, Type (0, 1), BuildingBlock: XIVTED_clean_linker_0, # of connection points: 2
#     Edge 54, Type (0, 1), BuildingBlock: XIVTED_clean_linker_0, # of connection points: 2
#     Edge 55, Type (0, 1), BuildingBlock: XIVTED_clean_linker_0, # of connection points: 2
#     Edge 56, Type (0, 1), BuildingBlock: XIVTED_clean_linker_0, # of connection points: 2
#     Edge 57, Type (0, 1), BuildingBlock: XIVTED_clean_linker_0, # of connection points: 2
#     Edge 58, Type (0, 1), BuildingBlock: XIVTED_clean_linker_0, # of connection points: 2
#     Edge 59, Type (0, 1), BuildingBlock: XIVTED_clean_linker_0, # of connection points: 2
#     Edge 60, Type (0, 1), BuildingBlock: XIVTED_clean_linker_0, # of connection points: 2
#     Edge 61, Type (0, 1), BuildingBlock: XIVTED_clean_linker_0, # of connection points: 2
#     Edge 62, Type (0, 1), BuildingBlock: XIVTED_clean_linker_0, # of connection points: 2
#     Edge 63, Type (0, 1), BuildingBlock: XIVTED_clean_linker_0, # of connection points: 2
#     Edge 64, Type (0, 1), BuildingBlock: XIVTED_clean_linker_0, # of connection points: 2
#     Edge 65, Type (0, 1), BuildingBlock: XIVTED_clean_linker_0, # of connection points: 2
#     Edge 66, Type (0, 1), BuildingBlock: XIVTED_clean_linker_0, # of connection points: 2
#     Edge 67, Type (0, 1), BuildingBlock: XIVTED_clean_linker_0, # of connection points: 2
#     Edge 68, Type (0, 1), BuildingBlock: XIVTED_clean_linker_0, # of connection points: 2
#     Edge 69, Type (0, 1), BuildingBlock: XIVTED_clean_linker_0, # of connection points: 2
#     Edge 70, Type (0, 1), BuildingBlock: XIVTED_clean_linker_0, # of connection points: 2
#     Edge 71, Type (0, 1), BuildingBlock: XIVTED_clean_linker_0, # of connection points: 2
#     Edge 72, Type (0, 1), BuildingBlock: XIVTED_clean_linker_0, # of connection points: 2
#     Edge 73, Type (0, 1), BuildingBlock: XIVTED_clean_linker_0, # of connection points: 2
#     Edge 74, Type (0, 1), BuildingBlock: XIVTED_clean_linker_0, # of connection points: 2
#     Edge 75, Type (0, 1), BuildingBlock: XIVTED_clean_linker_0, # of connection points: 2
#     Edge 76, Type (0, 1), BuildingBlock: XIVTED_clean_linker_0, # of connection points: 2
#     Edge 77, Type (0, 1), BuildingBlock: XIVTED_clean_linker_0, # of connection points: 2
#     Edge 78, Type (0, 1), BuildingBlock: XIVTED_clean_linker_0, # of connection points: 2
#     Edge 79, Type (0, 1), BuildingBlock: XIVTED_clean_linker_0, # of connection points: 2
#     Edge 80, Type (0, 1), BuildingBlock: XIVTED_clean_linker_0, # of connection points: 2
#     Edge 81, Type (0, 1), BuildingBlock: XIVTED_clean_linker_0, # of connection points: 2
#     Edge 82, Type (0, 1), BuildingBlock: XIVTED_clean_linker_0, # of connection points: 2
#     Edge 83, Type (0, 1), BuildingBlock: XIVTED_clean_linker_0, # of connection points: 2
#     Edge 84, Type (0, 1), BuildingBlock: XIVTED_clean_linker_0, # of connection points: 2
#     Edge 85, Type (0, 1), BuildingBlock: XIVTED_clean_linker_0, # of connection points: 2
#     Edge 86, Type (0, 1), BuildingBlock: XIVTED_clean_linker_0, # of connection points: 2
#     Edge 87, Type (0, 1), BuildingBlock: XIVTED_clean_linker_0, # of connection points: 2
#     Edge 88, Type (0, 1), BuildingBlock: XIVTED_clean_linker_0, # of connection points: 2
#     Edge 89, Type (0, 1), BuildingBlock: XIVTED_clean_linker_0, # of connection points: 2
#     Edge 90, Type (0, 1), BuildingBlock: XIVTED_clean_linker_0, # of connection points: 2
#     Edge 91, Type (0, 1), BuildingBlock: XIVTED_clean_linker_0, # of connection points: 2
#     Edge 92, Type (0, 1), BuildingBlock: XIVTED_clean_linker_0, # of connection points: 2
#     Edge 93, Type (0, 1), BuildingBlock: XIVTED_clean_linker_0, # of connection points: 2
#     Edge 94, Type (0, 1), BuildingBlock: XIVTED_clean_linker_0, # of connection points: 2
#     Edge 95, Type (0, 1), BuildingBlock: XIVTED_clean_linker_0, # of connection points: 2
#     Edge 96, Type (0, 1), BuildingBlock: XIVTED_clean_linker_0, # of connection points: 2
#     Edge 97, Type (0, 1), BuildingBlock: XIVTED_clean_linker_0, # of connection points: 2
#     Edge 98, Type (0, 1), BuildingBlock: XIVTED_clean_linker_0, # of connection points: 2
#     Edge 99, Type (0, 1), BuildingBlock: XIVTED_clean_linker_0, # of connection points: 2
#     Edge 100, Type (0, 1), BuildingBlock: XIVTED_clean_linker_0, # of connection points: 2
#     Edge 101, Type (0, 1), BuildingBlock: XIVTED_clean_linker_0, # of connection points: 2
# Relax obj value: 0.120
# Max RMSD: 0.161
# Mean RMSD: 0.124
data_MOF--net-cor--node1-KUFVIS_clean_sbu_0--node2-MIDCAF_clean_sbu_0--edge1-XIVTED_clean_linker_0
_symmetry_space_group_name_H-M    P1
_symmetry_Int_Tables_number       1
_symmetry_cell_setting            triclinic
loop_
_symmetry_equiv_pos_as_xyz
'x, y, z'
_cell_length_a     38.567508
_cell_length_b     38.472841
_cell_length_c     99.694937
_cell_angle_alpha  89.583714
_cell_angle_beta   90.69459
_cell_angle_gamma 120.05166
loop_
_atom_site_label
_atom_site_type_symbol
_atom_site_fract_x
_atom_site_fract_y
_atom_site_fract_z
_atom_type_partial_charge
Mn0 Mn 0.75183 0.04761 0.26963 0.0
Mn1 Mn 0.83374 0.13595 0.27795 0.0
C2 C 0.79617 0.04975 0.28594 0.0
C3 C 0.68514 0.99748 0.27317 0.0
C4 C 0.82767 0.09057 0.25248 0.0
O5 O 0.73843 0.08855 0.26149 0.0
O6 O 0.79372 0.14517 0.26837 0.0
C7 C 0.7962 0.16334 0.2978 0.0
N8 N 0.82499 0.15426 0.29463 0.0
C9 C 0.85467 0.17293 0.31666 0.0
C10 C 0.82547 0.18271 0.32015 0.0
C11 C 0.79605 0.17779 0.31068 0.0
C12 C 0.85338 0.15878 0.30366 0.0
H13 H 0.77357 0.15959 0.29054 0.0
C14 C 0.76002 0.12683 0.26213 0.0
O15 O 0.7027 0.00081 0.26181 0.0
O16 O 0.70522 0.02514 0.28201 0.0
N17 N 0.87522 0.13178 0.28722 0.0
C18 C 0.89992 0.119 0.28246 0.0
C19 C 0.93025 0.12063 0.29083 0.0
C20 C 0.93522 0.13588 0.30391 0.0
C21 C 0.90984 0.14946 0.3085 0.0
C22 C 0.8802 0.14717 0.2997 0.0
H23 H 0.89626 0.10737 0.2724 0.0
O24 O 0.7727 0.01674 0.27961 0.0
O25 O 0.79318 0.08088 0.28258 0.0
O26 O 0.79256 0.0608 0.25448 0.0
O27 O 0.84582 0.1195 0.26078 0.0
C28 C 0.9123 0.1645 0.32153 0.0
C29 C 0.88466 0.1761 0.32563 0.0
H30 H 0.82517 0.19374 0.33009 0.0
H31 H 0.77332 0.18512 0.31331 0.0
H32 H 0.94972 0.1101 0.28722 0.0
H33 H 0.95844 0.13679 0.31038 0.0
H34 H 0.93505 0.16686 0.32854 0.0
H35 H 0.88651 0.18708 0.33573 0.0
Mn36 Mn 0.99831 0.74262 0.26023 0.0
Mn37 Mn 0.07258 0.83865 0.25797 0.0
C38 C 0.98936 0.78808 0.24756 0.0
C39 C 0.9639 0.67796 0.25148 0.0
C40 C 0.02147 0.80335 0.28284 0.0
O41 O 0.04743 0.73976 0.26678 0.0
O42 O 0.09548 0.8041 0.26298 0.0
C43 C 0.11496 0.83221 0.23441 0.0
N44 N 0.09524 0.84884 0.24045 0.0
C45 C 0.10244 0.88914 0.22096 0.0
C46 C 0.12312 0.87268 0.21458 0.0
C47 C 0.12936 0.84406 0.22133 0.0
C48 C 0.08913 0.87646 0.23405 0.0
H49 H 0.11951 0.80995 0.23953 0.0
C50 C 0.08413 0.76797 0.2667 0.0
O51 O 0.96024 0.68484 0.26399 0.0
O52 O 0.99042 0.70789 0.24454 0.0
N53 N 0.05385 0.87467 0.25306 0.0
C54 C 0.03139 0.88589 0.26034 0.0
C55 C 0.02145 0.91354 0.25486 0.0
C56 C 0.03472 0.92939 0.24198 0.0
C57 C 0.05797 0.91757 0.23471 0.0
C58 C 0.06732 0.89025 0.24075 0.0
H59 H 0.02094 0.87362 0.27021 0.0
O60 O 0.95868 0.75586 0.25209 0.0
O61 O 0.02421 0.79285 0.25077 0.0
O62 O 0.99751 0.76871 0.27801 0.0
O63 O 0.05064 0.83109 0.27629 0.0
C64 C 0.07154 0.93117 0.22161 0.0
C65 C 0.09375 0.91696 0.21474 0.0
H66 H 0.13398 0.88148 0.20445 0.0
H67 H 0.14508 0.83103 0.21644 0.0
H68 H 0.0034 0.92244 0.26051 0.0
H69 H 0.02659 0.95035 0.23773 0.0
H70 H 0.06459 0.95213 0.21666 0.0
H71 H 0.10356 0.92724 0.20461 0.0
Mn72 Mn 0.30577 0.28305 0.26841 0.0
Mn73 Mn 0.3153 0.20206 0.27529 0.0
C74 C 0.26735 0.238 0.28495 0.0
C75 C 0.32167 0.34946 0.27242 0.0
C76 C 0.27138 0.20732 0.25075 0.0
O77 O 0.35886 0.2981 0.25949 0.0
O78 O 0.36152 0.24236 0.26478 0.0
C79 C 0.38508 0.24151 0.29371 0.0
N80 N 0.34666 0.21204 0.29127 0.0
C81 C 0.34175 0.1834 0.31318 0.0
C82 C 0.38137 0.21332 0.31591 0.0
C83 C 0.40308 0.24255 0.30614 0.0
C84 C 0.32547 0.18381 0.30059 0.0
H85 H 0.40182 0.26398 0.2862 0.0
C86 C 0.37529 0.27636 0.25884 0.0
O87 O 0.30563 0.33158 0.26114 0.0
O88 O 0.33099 0.32977 0.28094 0.0
N89 N 0.27252 0.16035 0.28529 0.0
C90 C 0.23401 0.13496 0.28131 0.0
C91 C 0.20776 0.10472 0.2901 0.0
C92 C 0.22154 0.1006 0.30279 0.0
C93 C 0.26149 0.12672 0.30657 0.0
C94 C 0.28625 0.15624 0.29739 0.0
H95 H 0.22337 0.13801 0.27154 0.0
O96 O 0.25569 0.26059 0.27907 0.0
O97 O 0.3011 0.24199 0.2809 0.0
O98 O 0.27696 0.24239 0.25312 0.0
O99 O 0.28267 0.18877 0.25876 0.0
C100 C 0.27753 0.12514 0.31919 0.0
C101 C 0.31758 0.15353 0.3225 0.0
H102 H 0.39531 0.21431 0.32551 0.0
H103 H 0.43362 0.26583 0.3082 0.0
H104 H 0.17698 0.08468 0.2871 0.0
H105 H 0.20113 0.07744 0.30958 0.0
H106 H 0.25921 0.10249 0.32647 0.0
H107 H 0.32939 0.15234 0.3323 0.0
Mn108 Mn 0.29133 0.02394 0.75858 0.0
Mn109 Mn 0.21092 0.93249 0.75374 0.0
C110 C 0.24262 0.01582 0.74328 0.0
C111 C 0.35525 0.07429 0.75281 0.0
C112 C 0.22038 0.98327 0.77796 0.0
O113 O 0.31034 0.9875 0.76647 0.0
O114 O 0.25407 0.92758 0.76343 0.0
C115 C 0.24692 0.9015 0.73456 0.0
N116 N 0.21813 0.9108 0.73752 0.0
C117 C 0.18804 0.89006 0.71561 0.0
C118 C 0.2172 0.87999 0.71236 0.0
C119 C 0.24676 0.88575 0.72189 0.0
C120 C 0.18939 0.90515 0.72846 0.0
H121 H 0.26988 0.90619 0.74182 0.0
C122 C 0.29011 0.94942 0.76783 0.0
O123 O 0.34076 0.07344 0.7646 0.0
O124 O 0.33366 0.04461 0.74482 0.0
N125 N 0.16752 0.93325 0.74451 0.0
C126 C 0.14326 0.94699 0.74892 0.0
C127 C 0.11299 0.94488 0.7404 0.0
C128 C 0.10793 0.9286 0.72748 0.0
C129 C 0.13312 0.91443 0.7232 0.0
C130 C 0.16254 0.91699 0.73217 0.0
H131 H 0.14731 0.95988 0.7588 0.0
O132 O 0.26544 0.05034 0.74888 0.0
O133 O 0.24833 0.98657 0.74712 0.0
O134 O 0.25478 0.0125 0.77484 0.0
O135 O 0.20054 0.9525 0.77051 0.0
C136 C 0.13085 0.89881 0.71027 0.0
C137 C 0.15826 0.88659 0.70648 0.0
H138 H 0.21742 0.8682 0.70255 0.0
H139 H 0.2695 0.87827 0.71943 0.0
H140 H 0.09377 0.95602 0.74375 0.0
H141 H 0.08486 0.92746 0.72088 0.0
H142 H 0.10851 0.8966 0.7031 0.0
H143 H 0.15653 0.87512 0.69646 0.0
Mn144 Mn 0.01416 0.29209 0.75817 0.0
Mn145 Mn 0.10553 0.3023 0.75505 0.0
C146 C 0.02275 0.24943 0.74429 0.0
C147 C 0.96365 0.30458 0.75123 0.0
C148 C 0.05373 0.2635 0.77916 0.0
O149 O 0.05023 0.3486 0.76521 0.0
O150 O 0.10976 0.35104 0.76372 0.0
C151 C 0.13751 0.36799 0.73501 0.0
N152 N 0.12832 0.33017 0.73867 0.0
C153 C 0.15175 0.31978 0.71764 0.0
C154 C 0.16172 0.35872 0.71369 0.0
C155 C 0.15454 0.38291 0.72241 0.0
C156 C 0.13527 0.30671 0.73038 0.0
H157 H 0.13182 0.38657 0.74166 0.0
C158 C 0.08804 0.3661 0.76714 0.0
O159 O 0.96479 0.29258 0.76336 0.0
O160 O 0.99321 0.31176 0.74345 0.0
N161 N 0.1057 0.25757 0.74686 0.0
C162 C 0.09184 0.21986 0.75183 0.0
C163 C 0.09527 0.19135 0.74412 0.0
C164 C 0.11307 0.20196 0.73142 0.0
C165 C 0.12738 0.24106 0.72656 0.0
C166 C 0.12339 0.26828 0.73474 0.0
H167 H 0.07788 0.21151 0.76155 0.0
O168 O 0.98815 0.23853 0.74948 0.0
O169 O 0.05189 0.28498 0.74765 0.0
O170 O 0.02519 0.26911 0.77533 0.0
O171 O 0.08452 0.273 0.77204 0.0
C172 C 0.14449 0.25378 0.71378 0.0
C173 C 0.15669 0.29312 0.70933 0.0
H174 H 0.17454 0.37022 0.70392 0.0
H175 H 0.16196 0.41292 0.71939 0.0
H176 H 0.08403 0.1612 0.74792 0.0
H177 H 0.11527 0.17976 0.72544 0.0
H178 H 0.14785 0.23336 0.70722 0.0
H179 H 0.1693 0.30238 0.69942 0.0
Mn180 Mn 0.72975 0.74203 0.76641 0.0
Mn181 Mn 0.8241 0.76266 0.77293 0.0
C182 C 0.76925 0.79174 0.78165 0.0
C183 C 0.66175 0.70593 0.77203 0.0
C184 C 0.79923 0.78639 0.74693 0.0
O185 O 0.73044 0.69316 0.75899 0.0
O186 O 0.79252 0.70746 0.76552 0.0
C187 C 0.80866 0.7053 0.79509 0.0
N188 N 0.82738 0.74371 0.79039 0.0
C189 C 0.86178 0.76918 0.81146 0.0
C190 C 0.84302 0.72986 0.81651 0.0
C191 C 0.81628 0.69781 0.80829 0.0
C192 C 0.85316 0.77477 0.7982 0.0
H193 H 0.78808 0.68063 0.78879 0.0
C194 C 0.75858 0.68477 0.75978 0.0
O195 O 0.67311 0.72178 0.76018 0.0
O196 O 0.68958 0.70927 0.78019 0.0
N197 N 0.85759 0.81529 0.78011 0.0
C198 C 0.87098 0.85152 0.774 0.0
C199 C 0.89681 0.88687 0.78103 0.0
C200 C 0.90878 0.88456 0.79422 0.0
C201 C 0.89479 0.84689 0.80026 0.0
C202 C 0.86922 0.81271 0.79275 0.0
H203 H 0.86182 0.8534 0.76387 0.0
O204 O 0.73894 0.79175 0.77589 0.0
O205 O 0.77572 0.76307 0.77812 0.0
O206 O 0.76289 0.77465 0.75006 0.0
O207 O 0.82399 0.78345 0.75482 0.0
C208 C 0.90459 0.84193 0.81353 0.0
C209 C 0.88808 0.80311 0.81912 0.0
H210 H 0.84864 0.72398 0.82671 0.0
H211 H 0.80155 0.6674 0.81214 0.0
H212 H 0.9074 0.91583 0.77631 0.0
H213 H 0.92846 0.91189 0.79965 0.0
H214 H 0.92427 0.86781 0.81959 0.0
H215 H 0.89533 0.79973 0.82941 0.0
Mn216 Mn 0.40537 0.33637 0.59506 0.0
Mn217 Mn 0.49649 0.41503 0.60229 0.0
C218 C 0.44606 0.33029 0.61102 0.0
C219 C 0.33742 0.29618 0.60003 0.0
C220 C 0.47786 0.36689 0.57656 0.0
O221 O 0.4013 0.3838 0.58741 0.0
O222 O 0.46247 0.43422 0.59365 0.0
C223 C 0.47378 0.45421 0.6231 0.0
N224 N 0.49543 0.43686 0.61933 0.0
C225 C 0.52661 0.44806 0.64114 0.0
C226 C 0.50479 0.46623 0.64524 0.0
C227 C 0.47821 0.46926 0.63618 0.0
C228 C 0.52116 0.43387 0.62795 0.0
H229 H 0.45327 0.4565 0.61616 0.0
C230 C 0.42814 0.42109 0.58794 0.0
O231 O 0.3511 0.29514 0.58826 0.0
O232 O 0.3624 0.32307 0.60831 0.0
N233 N 0.53181 0.39991 0.61073 0.0
C234 C 0.54842 0.37908 0.60547 0.0
C235 C 0.57453 0.37192 0.61342 0.0
C236 C 0.58342 0.38641 0.62664 0.0
C237 C 0.5661 0.40795 0.6318 0.0
C238 C 0.54044 0.4143 0.62339 0.0
H239 H 0.54154 0.36778 0.59533 0.0
O240 O 0.41865 0.29881 0.60484 0.0
O241 O 0.44963 0.36435 0.60733 0.0
O242 O 0.44141 0.34134 0.57922 0.0
O243 O 0.50097 0.39481 0.58464 0.0
C244 C 0.57266 0.42267 0.64504 0.0
C245 C 0.55295 0.44273 0.6497 0.0
H246 H 0.50792 0.47764 0.65535 0.0
H247 H 0.46114 0.48309 0.63929 0.0
H248 H 0.58768 0.35516 0.60938 0.0
H249 H 0.6033 0.38054 0.63278 0.0
H250 H 0.59231 0.41817 0.65178 0.0
H251 H 0.55777 0.45338 0.65996 0.0
Mn252 Mn 0.68144 0.08367 0.58831 0.0
Mn253 Mn 0.76528 0.17189 0.5824 0.0
C254 C 0.68095 0.12717 0.57239 0.0
C255 C 0.63725 0.01638 0.58336 0.0
C256 C 0.71463 0.15669 0.60702 0.0
O257 O 0.72483 0.07458 0.5966 0.0
O258 O 0.77905 0.13483 0.59206 0.0
C259 C 0.80318 0.14363 0.563 0.0
N260 N 0.78845 0.1682 0.56603 0.0
C261 C 0.80511 0.19889 0.54418 0.0
C262 C 0.82068 0.17407 0.54084 0.0
C263 C 0.81966 0.14629 0.55029 0.0
C264 C 0.78939 0.19512 0.55703 0.0
H265 H 0.80228 0.12215 0.57022 0.0
C266 C 0.76246 0.09965 0.59734 0.0
O267 O 0.63716 0.03139 0.59499 0.0
O268 O 0.66516 0.03955 0.57511 0.0
N269 N 0.75585 0.21019 0.57316 0.0
C270 C 0.7371 0.22985 0.57765 0.0
C271 C 0.73406 0.25762 0.56922 0.0
C272 C 0.7505 0.26502 0.55631 0.0
C273 C 0.7699 0.24461 0.55195 0.0
C274 C 0.77219 0.21743 0.56082 0.0
H275 H 0.72427 0.22408 0.58755 0.0
O276 O 0.64805 0.10125 0.57817 0.0
O277 O 0.71342 0.12761 0.5764 0.0
O278 O 0.68833 0.12062 0.60409 0.0
O279 O 0.7438 0.17904 0.59937 0.0
C280 C 0.78626 0.24949 0.53905 0.0
C281 C 0.80382 0.22662 0.53516 0.0
H282 H 0.83315 0.17582 0.53101 0.0
H283 H 0.83144 0.1269 0.54776 0.0
H284 H 0.71894 0.27316 0.57264 0.0
H285 H 0.74776 0.28618 0.54978 0.0
H286 H 0.78491 0.27027 0.53197 0.0
H287 H 0.81573 0.23018 0.52514 0.0
Mn288 Mn 0.95514 0.62221 0.59477 0.0
Mn289 Mn 0.93889 0.5289 0.60059 0.0
C290 C 0.90506 0.57958 0.60916 0.0
C291 C 0.98307 0.68941 0.60094 0.0
C292 C 0.91466 0.55306 0.57463 0.0
O293 O 0.00713 0.62621 0.58825 0.0
O294 O 0.99371 0.56337 0.59346 0.0
C295 C 0.9968 0.54685 0.62286 0.0
N296 N 0.95849 0.52657 0.61807 0.0
C297 C 0.93409 0.49286 0.6392 0.0
C298 C 0.97333 0.51321 0.64435 0.0
C299 C 0.00481 0.54034 0.63614 0.0
C300 C 0.928 0.50025 0.62585 0.0
H301 H 0.02102 0.5679 0.61661 0.0
C302 C 0.01654 0.59865 0.58867 0.0
O303 O 0.97044 0.67761 0.58875 0.0
O304 O 0.98316 0.66301 0.60905 0.0
N305 N 0.88685 0.49314 0.60759 0.0
C306 C 0.85049 0.47814 0.60138 0.0
C307 C 0.81564 0.45166 0.60839 0.0
C308 C 0.81857 0.44084 0.62167 0.0
C309 C 0.85635 0.45653 0.62781 0.0
C310 C 0.89004 0.48251 0.6203 0.0
H311 H 0.8481 0.4866 0.59121 0.0
O312 O 0.90311 0.60862 0.60324 0.0
O313 O 0.93563 0.5757 0.60615 0.0
O314 O 0.92628 0.58926 0.57799 0.0
O315 O 0.91737 0.52797 0.58241 0.0
C316 C 0.86183 0.44813 0.6412 0.0
C317 C 0.90068 0.46627 0.64689 0.0
H318 H 0.97959 0.50855 0.65461 0.0
H319 H 0.03514 0.55632 0.64006 0.0
H320 H 0.78658 0.43979 0.60359 0.0
H321 H 0.7916 0.42075 0.62709 0.0
H322 H 0.83633 0.42826 0.64728 0.0
H323 H 0.90444 0.46004 0.65725 0.0
Mn324 Mn 0.9548 0.34023 0.08297 0.0
Mn325 Mn 0.87416 0.24895 0.07704 0.0
C326 C 0.90964 0.33205 0.06618 0.0
C327 C 0.02063 0.39035 0.07827 0.0
C328 C 0.87848 0.30092 0.10021 0.0
O329 O 0.97029 0.30349 0.09293 0.0
O330 O 0.91371 0.2448 0.08886 0.0
C331 C 0.91554 0.2171 0.06071 0.0
N332 N 0.88568 0.2259 0.06205 0.0
C333 C 0.85967 0.20033 0.04002 0.0
C334 C 0.89001 0.19075 0.03842 0.0
C335 C 0.91811 0.19926 0.0488 0.0
C336 C 0.85855 0.21793 0.05212 0.0
H337 H 0.93719 0.22367 0.06867 0.0
C338 C 0.94785 0.26568 0.09467 0.0
O339 O 0.0036 0.39016 0.08947 0.0
O340 O 0.00064 0.35988 0.07041 0.0
N341 N 0.83297 0.24806 0.06592 0.0
C342 C 0.80652 0.2605 0.06889 0.0
C343 C 0.77699 0.25516 0.05942 0.0
C344 C 0.77461 0.23657 0.0471 0.0
C345 C 0.80168 0.2233 0.04438 0.0
C346 C 0.83036 0.2293 0.05423 0.0
H347 H 0.80824 0.27475 0.07837 0.0
O348 O 0.9323 0.36686 0.07159 0.0
O349 O 0.91377 0.30256 0.07077 0.0
O350 O 0.91412 0.32966 0.09801 0.0
O351 O 0.85987 0.27064 0.09244 0.0
C352 C 0.80184 0.20503 0.0322 0.0
C353 C 0.83086 0.19363 0.03001 0.0
H354 H 0.89218 0.17713 0.02923 0.0
H355 H 0.9417 0.19211 0.04762 0.0
H356 H 0.75617 0.26542 0.06161 0.0
H357 H 0.75201 0.2328 0.03978 0.0
H358 H 0.78004 0.19999 0.02439 0.0
H359 H 0.83094 0.18001 0.02055 0.0
Mn360 Mn 0.70324 0.64764 0.07922 0.0
Mn361 Mn 0.79295 0.65596 0.07299 0.0
C362 C 0.70827 0.60556 0.06396 0.0
C363 C 0.65188 0.66147 0.07417 0.0
C364 C 0.74588 0.61626 0.09796 0.0
O365 O 0.74187 0.70326 0.08671 0.0
O366 O 0.79963 0.70382 0.08271 0.0
C367 C 0.82175 0.7231 0.05358 0.0
N368 N 0.81294 0.68499 0.05661 0.0
C369 C 0.83366 0.67648 0.0348 0.0
C370 C 0.84319 0.71574 0.03147 0.0
C371 C 0.83713 0.73911 0.0409 0.0
C372 C 0.81865 0.66224 0.04762 0.0
H373 H 0.81704 0.7411 0.0608 0.0
C374 C 0.77993 0.71935 0.08765 0.0
O375 O 0.65506 0.64854 0.08594 0.0
O376 O 0.6802 0.66923 0.06575 0.0
N377 N 0.79112 0.6117 0.06372 0.0
C378 C 0.77856 0.57381 0.0683 0.0
C379 C 0.78132 0.5461 0.05992 0.0
C380 C 0.79739 0.5578 0.04701 0.0
C381 C 0.81073 0.59717 0.04262 0.0
C382 C 0.80735 0.62349 0.05142 0.0
H383 H 0.76616 0.56472 0.07821 0.0
O384 O 0.67472 0.59493 0.06991 0.0
O385 O 0.73837 0.64046 0.06723 0.0
O386 O 0.71691 0.6226 0.0954 0.0
O387 O 0.77468 0.62556 0.08987 0.0
C388 C 0.82648 0.6111 0.02975 0.0
C389 C 0.83788 0.6507 0.02583 0.0
H390 H 0.85488 0.72813 0.02167 0.0
H391 H 0.84424 0.76937 0.03838 0.0
H392 H 0.77097 0.51578 0.06339 0.0
H393 H 0.79913 0.53624 0.04054 0.0
H394 H 0.82954 0.59148 0.02273 0.0
H395 H 0.84948 0.6609 0.01585 0.0
Mn396 Mn 0.39 0.07597 0.09226 0.0
Mn397 Mn 0.48592 0.09832 0.09589 0.0
C398 C 0.43331 0.12915 0.10567 0.0
C399 C 0.32432 0.04361 0.10001 0.0
C400 C 0.45407 0.11918 0.07093 0.0
O401 O 0.38841 0.02538 0.08517 0.0
O402 O 0.45268 0.04226 0.08919 0.0
C403 C 0.47541 0.04301 0.11826 0.0
N404 N 0.49313 0.08096 0.11318 0.0
C405 C 0.5309 0.10847 0.13357 0.0
C406 C 0.51324 0.06964 0.139 0.0
C407 C 0.48534 0.03678 0.13131 0.0
C408 C 0.52004 0.11279 0.12048 0.0
H409 H 0.4538 0.01773 0.1124 0.0
C410 C 0.41717 0.01783 0.08486 0.0
O411 O 0.33255 0.05608 0.08767 0.0
O412 O 0.35358 0.04641 0.10732 0.0
N413 N 0.52129 0.15158 0.10228 0.0
C414 C 0.53404 0.1872 0.09581 0.0
C415 C 0.56124 0.22317 0.10226 0.0
C416 C 0.57523 0.22212 0.11525 0.0
C417 C 0.56206 0.18506 0.12164 0.0
C418 C 0.53516 0.15018 0.11467 0.0
H419 H 0.52325 0.18816 0.08584 0.0
O420 O 0.40122 0.12729 0.10075 0.0
O421 O 0.43918 0.09966 0.10259 0.0
O422 O 0.41831 0.106 0.07499 0.0
O423 O 0.48128 0.11767 0.07794 0.0
C424 C 0.57387 0.18139 0.13476 0.0
C425 C 0.55828 0.14313 0.14073 0.0
H426 H 0.52063 0.06473 0.14909 0.0
H427 H 0.47144 0.00675 0.13545 0.0
H428 H 0.57125 0.25166 0.09727 0.0
H429 H 0.59586 0.24995 0.12026 0.0
H430 H 0.59449 0.20784 0.14043 0.0
H431 H 0.56721 0.14073 0.15088 0.0
Mn432 Mn 0.04959 0.65872 0.92757 0.0
Mn433 Mn 0.14801 0.72474 0.93187 0.0
C434 C 0.08632 0.64516 0.94318 0.0
C435 C 0.98284 0.63579 0.93304 0.0
C436 C 0.11379 0.66928 0.90773 0.0
O437 O 0.05674 0.71003 0.91865 0.0
O438 O 0.12121 0.75328 0.92419 0.0
C439 C 0.14388 0.77597 0.95306 0.0
N440 N 0.15745 0.75147 0.94873 0.0
C441 C 0.19387 0.76002 0.96937 0.0
C442 C 0.18049 0.78555 0.97402 0.0
C443 C 0.15532 0.79349 0.96584 0.0
C444 C 0.18165 0.74361 0.95652 0.0
H445 H 0.12444 0.78204 0.94681 0.0
C446 C 0.08755 0.7453 0.91887 0.0
O447 O 0.99255 0.62738 0.92158 0.0
O448 O 0.01197 0.65905 0.94104 0.0
N449 N 0.17733 0.70102 0.93931 0.0
C450 C 0.18554 0.67383 0.93367 0.0
C451 C 0.2093 0.66156 0.94075 0.0
C452 C 0.22456 0.67755 0.95351 0.0
C453 C 0.216 0.70576 0.95907 0.0
C454 C 0.19234 0.71701 0.95151 0.0
H455 H 0.17388 0.66143 0.92387 0.0
O456 O 0.05289 0.61636 0.93837 0.0
O457 O 0.09718 0.681 0.9387 0.0
O458 O 0.07767 0.64948 0.91175 0.0
O459 O 0.14178 0.69853 0.91427 0.0
C460 C 0.22928 0.7225 0.97192 0.0
C461 C 0.2182 0.74958 0.97707 0.0
H462 H 0.18906 0.79895 0.98389 0.0
H463 H 0.14471 0.81301 0.96938 0.0
H464 H 0.21573 0.63973 0.9364 0.0
H465 H 0.24253 0.66772 0.959 0.0
H466 H 0.24749 0.71424 0.97802 0.0
H467 H 0.22809 0.76177 0.98705 0.0
Mn468 Mn 0.35945 0.41718 0.91971 0.0
Mn469 Mn 0.45972 0.4777 0.91723 0.0
C470 C 0.38538 0.4702 0.90472 0.0
C471 C 0.30016 0.35931 0.91332 0.0
C472 C 0.41179 0.48429 0.93988 0.0
O473 O 0.38072 0.38427 0.92897 0.0
O474 O 0.44702 0.42716 0.92678 0.0
C475 C 0.47337 0.42648 0.89851 0.0
N476 N 0.47645 0.46244 0.90146 0.0
C477 C 0.50742 0.49029 0.88025 0.0
C478 C 0.50482 0.45363 0.87702 0.0
C479 C 0.48765 0.42157 0.88619 0.0
C480 C 0.49265 0.49338 0.89267 0.0
H481 H 0.46004 0.40172 0.90551 0.0
C482 C 0.41724 0.39421 0.93088 0.0
O483 O 0.30334 0.37686 0.92473 0.0
O484 O 0.33158 0.37497 0.90578 0.0
N485 N 0.47697 0.52786 0.90831 0.0
C486 C 0.47794 0.56145 0.91308 0.0
C487 C 0.49458 0.59642 0.90519 0.0
C488 C 0.51044 0.59663 0.89256 0.0
C489 C 0.50998 0.562 0.88801 0.0
C490 C 0.49343 0.5282 0.89638 0.0
H491 H 0.46588 0.56148 0.9228 0.0
O492 O 0.34881 0.45466 0.90884 0.0
O493 O 0.40572 0.4541 0.90941 0.0
O494 O 0.37768 0.45552 0.93599 0.0
O495 O 0.44423 0.49555 0.93345 0.0
C496 C 0.52522 0.55966 0.87549 0.0
C497 C 0.52381 0.52378 0.87159 0.0
H498 H 0.51576 0.44971 0.86752 0.0
H499 H 0.48539 0.39314 0.88375 0.0
H500 H 0.49503 0.6231 0.90881 0.0
H501 H 0.52298 0.62356 0.88646 0.0
H502 H 0.53796 0.58522 0.86876 0.0
H503 H 0.53544 0.52227 0.86191 0.0
Mn504 Mn 0.62608 0.97808 0.92963 0.0
Mn505 Mn 0.59063 0.87878 0.93312 0.0
C506 C 0.57485 0.94181 0.94452 0.0
C507 C 0.67169 0.044 0.93568 0.0
C508 C 0.57136 0.91575 0.90914 0.0
O509 O 0.6689 0.96969 0.92089 0.0
O510 O 0.64619 0.90463 0.92597 0.0
C511 C 0.6446 0.88038 0.95476 0.0
N512 N 0.60686 0.86789 0.95007 0.0
C513 C 0.57776 0.83133 0.97044 0.0
C514 C 0.61631 0.84356 0.97545 0.0
C515 C 0.64987 0.86825 0.96758 0.0
C516 C 0.57436 0.84415 0.95756 0.0
H517 H 0.67046 0.89951 0.94877 0.0
C518 C 0.67243 0.93838 0.92096 0.0
O519 O 0.65371 0.03542 0.92406 0.0
O520 O 0.66457 0.01414 0.94351 0.0
N521 N 0.53733 0.85013 0.94001 0.0
C522 C 0.50238 0.84275 0.934 0.0
C523 C 0.46602 0.81937 0.9407 0.0
C524 C 0.46593 0.80364 0.95347 0.0
C525 C 0.50223 0.8113 0.9594 0.0
C526 C 0.53751 0.83453 0.95219 0.0
H527 H 0.50225 0.8548 0.92419 0.0
O528 O 0.58127 0.97621 0.94002 0.0
O529 O 0.599 0.92987 0.94027 0.0
O530 O 0.58861 0.9517 0.91351 0.0
O531 O 0.57163 0.88677 0.91541 0.0
C532 C 0.50488 0.79752 0.9723 0.0
C533 C 0.54262 0.80758 0.97782 0.0
H534 H 0.62052 0.83448 0.98536 0.0
H535 H 0.67973 0.87799 0.97141 0.0
H536 H 0.43813 0.81363 0.93606 0.0
H537 H 0.43788 0.78601 0.95867 0.0
H538 H 0.47813 0.77969 0.97814 0.0
H539 H 0.54431 0.79727 0.98782 0.0
Mn540 Mn 0.62918 0.69217 0.41881 0.0
Mn541 Mn 0.53439 0.62003 0.4116 0.0
C542 C 0.59083 0.70604 0.40415 0.0
C543 C 0.69763 0.72322 0.41427 0.0
C544 C 0.55905 0.66551 0.438 0.0
O545 O 0.62689 0.64113 0.42561 0.0
O546 O 0.56503 0.5946 0.41858 0.0
C547 C 0.55106 0.58226 0.38872 0.0
N548 N 0.53194 0.60083 0.3938 0.0
C549 C 0.49921 0.59615 0.37263 0.0
C550 C 0.51837 0.57674 0.36718 0.0
C551 C 0.54447 0.56985 0.37526 0.0
C552 C 0.50689 0.60775 0.38612 0.0
H553 H 0.57121 0.57703 0.3949 0.0
C554 C 0.59857 0.6048 0.42446 0.0
O555 O 0.68478 0.7259 0.42599 0.0
O556 O 0.67078 0.70146 0.40538 0.0
N557 N 0.50106 0.64007 0.40486 0.0
C558 C 0.48596 0.66027 0.41154 0.0
C559 C 0.45968 0.67 0.40485 0.0
C560 C 0.44892 0.65859 0.3914 0.0
C561 C 0.46441 0.63734 0.38479 0.0
C562 C 0.4902 0.62818 0.39201 0.0
H563 H 0.49405 0.669 0.42189 0.0
O564 O 0.62194 0.73503 0.41004 0.0
O565 O 0.5834 0.66984 0.40692 0.0
O566 O 0.59551 0.68992 0.43496 0.0
O567 O 0.53405 0.63842 0.43002 0.0
C568 C 0.45578 0.62544 0.37126 0.0
C569 C 0.47327 0.60498 0.36517 0.0
H570 H 0.51347 0.56725 0.3568 0.0
H571 H 0.55949 0.55505 0.3711 0.0
H572 H 0.44783 0.68638 0.41003 0.0
H573 H 0.42897 0.66651 0.38623 0.0
H574 H 0.43614 0.63233 0.36539 0.0
H575 H 0.46679 0.59641 0.35472 0.0
Mn576 Mn 0.35118 0.95335 0.41882 0.0
Mn577 Mn 0.42412 0.93185 0.41246 0.0
C578 C 0.33827 0.90089 0.40458 0.0
C579 C 0.31892 0.98957 0.41363 0.0
C580 C 0.37929 0.91183 0.43885 0.0
O581 O 0.40185 0.00305 0.42535 0.0
O582 O 0.44888 0.98844 0.41873 0.0
C583 C 0.461 0.98505 0.38906 0.0
N584 N 0.44284 0.94762 0.39457 0.0
C585 C 0.44757 0.91841 0.37389 0.0
C586 C 0.46655 0.9567 0.36802 0.0
C587 C 0.47321 0.99013 0.37563 0.0
C588 C 0.43619 0.91522 0.38733 0.0
H589 H 0.46607 0.01077 0.39489 0.0
C590 C 0.43829 0.01176 0.42419 0.0
O591 O 0.31681 0.9746 0.42552 0.0
O592 O 0.3408 0.98463 0.40494 0.0
N593 N 0.40443 0.87803 0.40637 0.0
C594 C 0.38422 0.84304 0.41337 0.0
C595 C 0.37438 0.80659 0.40711 0.0
C596 C 0.38568 0.80654 0.39377 0.0
C597 C 0.4069 0.84299 0.38682 0.0
C598 C 0.4161 0.87839 0.39361 0.0
H599 H 0.37552 0.84293 0.42363 0.0
O600 O 0.30901 0.9024 0.41029 0.0
O601 O 0.37409 0.93019 0.40737 0.0
O602 O 0.35431 0.92297 0.43541 0.0
O603 O 0.40644 0.91411 0.43106 0.0
C604 C 0.41867 0.84554 0.37336 0.0
C605 C 0.43892 0.88321 0.36689 0.0
H606 H 0.47586 0.96073 0.35764 0.0
H607 H 0.48767 0.01975 0.37114 0.0
H608 H 0.35801 0.77859 0.41254 0.0
H609 H 0.3777 0.77834 0.38893 0.0
H610 H 0.41179 0.81865 0.36783 0.0
H611 H 0.44733 0.88474 0.35648 0.0
Mn612 Mn 0.07629 0.41983 0.42483 0.0
Mn613 Mn 0.15328 0.40522 0.43242 0.0
C614 C 0.12282 0.45923 0.44088 0.0
C615 C 0.0119 0.40777 0.4295 0.0
C616 C 0.15198 0.45024 0.40759 0.0
O617 O 0.05677 0.36409 0.41719 0.0
O618 O 0.11125 0.35873 0.42195 0.0
C619 C 0.11028 0.3368 0.45106 0.0
N620 N 0.14107 0.37456 0.44861 0.0
C621 C 0.16675 0.38027 0.4711 0.0
C622 C 0.13547 0.34133 0.47383 0.0
C623 C 0.10709 0.31953 0.46377 0.0
C624 C 0.1686 0.39577 0.45821 0.0
H625 H 0.08829 0.32002 0.44337 0.0
C626 C 0.07627 0.3454 0.41672 0.0
O627 O 0.02814 0.42175 0.41788 0.0
O628 O 0.03188 0.39846 0.43784 0.0
N629 N 0.19583 0.44751 0.44251 0.0
C630 C 0.2227 0.48553 0.4385 0.0
C631 C 0.25229 0.51182 0.44755 0.0
C632 C 0.25413 0.49867 0.46059 0.0
C633 C 0.22641 0.45927 0.46444 0.0
C634 C 0.19772 0.43435 0.45496 0.0
H635 H 0.22124 0.49584 0.42852 0.0
O636 O 0.1018 0.47189 0.4345 0.0
O637 O 0.11645 0.42381 0.43751 0.0
O638 O 0.11685 0.44526 0.40925 0.0
O639 O 0.16856 0.4375 0.4159 0.0
C640 C 0.22554 0.44406 0.4774 0.0
C641 C 0.19572 0.4046 0.48073 0.0
H642 H 0.13274 0.328 0.48365 0.0
H643 H 0.08274 0.28953 0.46582 0.0
H644 H 0.27351 0.54221 0.44452 0.0
H645 H 0.27673 0.51917 0.46759 0.0
H646 H 0.24733 0.46264 0.48495 0.0
H647 H 0.19505 0.39342 0.49079 0.0
Zn648 Zn 0.02079 0.04384 0.13797 0.0
Zn649 Zn 0.02619 0.02073 0.19648 0.0
Zn650 Zn 0.01991 0.02767 0.16024 0.0
C651 C 0.98474 0.96002 0.17498 0.0
C652 C 0.10109 0.05787 0.17979 0.0
O653 O 0.00129 0.07352 0.15884 0.0
O654 O 0.0329 0.09958 0.13999 0.0
C655 C 0.95667 0.96981 0.13867 0.0
O656 O 0.98219 0.96109 0.16232 0.0
O657 O 0.00355 0.99354 0.18035 0.0
O658 O 0.08312 0.04831 0.19099 0.0
O659 O 0.08257 0.05126 0.1683 0.0
O660 O 0.96604 0.00156 0.13218 0.0
O661 O 0.97699 0.97169 0.14928 0.0
O662 O 0.08212 0.04718 0.15383 0.0
O663 O 0.06601 0.03798 0.13237 0.0
C664 C 0.09125 0.04482 0.14161 0.0
O665 O 0.99382 0.05775 0.17282 0.0
O666 O 0.00156 0.05542 0.19528 0.0
C667 C 0.01523 0.10211 0.15015 0.0
C668 C 0.98918 0.06615 0.18503 0.0
Zn669 Zn 0.02205 0.01038 0.35218 0.0
Zn670 Zn 0.02198 0.02223 0.39893 0.0
Zn671 Zn 0.02218 0.0162 0.3738 0.0
C672 C 0.99841 0.07502 0.3881 0.0
C673 C 0.9682 0.94141 0.39263 0.0
O674 O 0.99694 0.95184 0.3679 0.0
O675 O 0.04224 0.97203 0.35215 0.0
C676 C 0.08929 0.07653 0.35614 0.0
O677 O 0.99866 0.0574 0.37719 0.0
O678 O 0.00815 0.06566 0.39911 0.0
O679 O 0.97923 0.96595 0.40227 0.0
O680 O 0.98319 0.95375 0.3809 0.0
O681 O 0.05941 0.06788 0.34871 0.0
O682 O 0.08479 0.05383 0.36633 0.0
O683 O 0.98384 0.0384 0.36461 0.0
O684 O 0.96382 0.98979 0.34993 0.0
C685 C 0.95837 0.01588 0.35559 0.0
O686 O 0.0859 0.0417 0.37965 0.0
O687 O 0.07887 0.03621 0.40164 0.0
C688 C 0.01671 0.94388 0.3593 0.0
C689 C 0.10084 0.04407 0.39147 0.0
Zn690 Zn 0.01576 0.01559 0.89596 0.0
Zn691 Zn 0.01021 0.01825 0.84835 0.0
Zn692 Zn 0.01356 0.01718 0.87037 0.0
C693 C 0.01923 0.08785 0.85379 0.0
C694 C 0.94141 0.95676 0.85293 0.0
O695 O 0.04167 0.98023 0.87543 0.0
O696 O 0.03958 0.98036 0.89759 0.0
C697 C 0.0624 0.09652 0.88846 0.0
O698 O 0.03805 0.08027 0.86309 0.0
O699 O 0.99357 0.05926 0.84674 0.0
O700 O 0.96882 0.96167 0.84506 0.0
O701 O 0.95024 0.98019 0.86315 0.0
O702 O 0.05125 0.07427 0.89874 0.0
O703 O 0.05033 0.08094 0.87673 0.0
O704 O 0.95019 0.98876 0.87695 0.0
O705 O 0.95728 0.99149 0.89902 0.0
C706 C 0.93491 0.98254 0.88876 0.0
O707 O 0.05071 0.99323 0.86186 0.0
O708 O 0.06699 0.03499 0.84486 0.0
C709 C 0.04795 0.9687 0.88693 0.0
C710 C 0.07364 0.01146 0.85184 0.0
Zn711 Zn 0.02012 0.00992 0.67487 0.0
Zn712 Zn 0.00083 0.00724 0.62995 0.0
Zn713 Zn 0.01306 0.01051 0.65328 0.0
C714 C 0.98303 0.93085 0.63615 0.0
C715 C 0.0821 0.06255 0.63333 0.0
O716 O 0.99565 0.05159 0.66293 0.0
O717 O 0.04538 0.0693 0.67724 0.0
C718 C 0.95061 0.94555 0.67104 0.0
O719 O 0.98486 0.94517 0.64798 0.0
O720 O 0.99124 0.95345 0.62606 0.0
O721 O 0.05387 0.05275 0.62496 0.0
O722 O 0.07437 0.04665 0.64512 0.0
O723 O 0.96188 0.97593 0.67839 0.0
O724 O 0.97233 0.94825 0.6609 0.0
O725 O 0.07694 0.03254 0.65858 0.0
O726 O 0.05406 0.98439 0.67354 0.0
C727 C 0.08314 0.01008 0.66677 0.0
O728 O 0.97582 0.03928 0.65035 0.0
O729 O 0.95357 0.01418 0.63019 0.0
C730 C 0.01979 0.07633 0.67182 0.0
C731 C 0.95158 0.03217 0.6404 0.0
Zn732 Zn 0.68724 0.35174 0.50177 0.0
Zn733 Zn 0.68073 0.35456 0.45505 0.0
Zn734 Zn 0.68376 0.3531 0.48001 0.0
C735 C 0.76185 0.3941 0.46135 0.0
C736 C 0.6432 0.27385 0.46174 0.0
O737 O 0.64208 0.371 0.48908 0.0
O738 O 0.62888 0.32696 0.50515 0.0
C739 C 0.75118 0.41889 0.49707 0.0
O740 O 0.74728 0.38623 0.47329 0.0
O741 O 0.73859 0.38459 0.45133 0.0
O742 O 0.6527 0.29637 0.45157 0.0
O743 O 0.6526 0.2892 0.47358 0.0
O744 O 0.7217 0.41058 0.50444 0.0
O745 O 0.74622 0.39537 0.48718 0.0
O746 O 0.66514 0.29145 0.48734 0.0
O747 O 0.71187 0.31696 0.50294 0.0
C748 C 0.68681 0.28679 0.49632 0.0
O749 O 0.64952 0.38399 0.4753 0.0
O750 O 0.64984 0.38242 0.45314 0.0
C751 C 0.61964 0.3497 0.49884 0.0
C752 C 0.64017 0.39268 0.46381 0.0
Zn753 Zn 0.68638 0.35718 0.72691 0.0
Zn754 Zn 0.67421 0.35131 0.68004 0.0
Zn755 Zn 0.6812 0.35383 0.70192 0.0
C756 C 0.60718 0.34442 0.68624 0.0
C757 C 0.73846 0.42028 0.68255 0.0
O758 O 0.71692 0.32504 0.70727 0.0
O759 O 0.71714 0.32946 0.72935 0.0
C760 C 0.6055 0.31276 0.72168 0.0
O761 O 0.61705 0.32802 0.69573 0.0
O762 O 0.63394 0.36877 0.67845 0.0
O763 O 0.72988 0.39057 0.67516 0.0
O764 O 0.718 0.41516 0.69325 0.0
O765 O 0.62929 0.32722 0.73153 0.0
O766 O 0.61917 0.31994 0.70964 0.0
O767 O 0.71196 0.41872 0.70706 0.0
O768 O 0.71513 0.41579 0.72917 0.0
C769 C 0.72201 0.43621 0.71857 0.0
O770 O 0.70335 0.3151 0.69357 0.0
O771 O 0.65596 0.2932 0.67816 0.0
C772 C 0.72772 0.31898 0.71892 0.0
C773 C 0.68244 0.28932 0.68441 0.0
Zn774 Zn 0.68205 0.36591 0.2137 0.0
Zn775 Zn 0.69374 0.3706 0.16461 0.0
Zn776 Zn 0.68948 0.36751 0.18858 0.0
C777 C 0.73849 0.44799 0.17056 0.0
C778 C 0.61505 0.33646 0.16752 0.0
O779 O 0.71495 0.33049 0.19654 0.0
O780 O 0.70182 0.32921 0.21813 0.0
C781 C 0.73359 0.44502 0.20812 0.0
O782 O 0.72184 0.43213 0.18185 0.0
O783 O 0.73593 0.42567 0.16098 0.0
O784 O 0.63983 0.35715 0.15861 0.0
O785 O 0.62774 0.33544 0.17948 0.0
O786 O 0.71731 0.42223 0.21801 0.0
O787 O 0.726 0.43057 0.19612 0.0
O788 O 0.62438 0.33989 0.19345 0.0
O789 O 0.6251 0.346 0.21551 0.0
C790 C 0.60602 0.33587 0.20457 0.0
O791 O 0.7223 0.33593 0.18251 0.0
O792 O 0.70777 0.32939 0.16089 0.0
C793 C 0.71537 0.31836 0.20859 0.0
C794 C 0.72382 0.32252 0.17084 0.0
Zn795 Zn 0.67633 0.34618 1.00141 0.0
Zn796 Zn 0.67155 0.3431 0.95377 0.0
Zn797 Zn 0.6757 0.34562 0.97936 0.0
C798 C 0.70878 0.29947 0.9617 0.0
C799 C 0.71991 0.42438 0.96099 0.0
O800 O 0.69734 0.40818 0.98632 0.0
O801 O 0.65572 0.38379 1.00316 0.0
C802 C 0.60922 0.28129 0.99748 0.0
O803 O 0.70564 0.3119 0.97334 0.0
O804 O 0.69546 0.30843 0.9514 0.0
O805 O 0.70685 0.40173 0.95085 0.0
O806 O 0.70969 0.40931 0.97285 0.0
O807 O 0.63889 0.2885 1.00484 0.0
O808 O 0.61423 0.30472 0.98747 0.0
O809 O 0.7173 0.32523 0.98669 0.0
O810 O 0.73462 0.36742 1.00349 0.0
C811 C 0.74197 0.34524 0.99623 0.0
O812 O 0.61125 0.31558 0.97417 0.0
O813 O 0.6126 0.31924 0.95204 0.0
C814 C 0.67807 0.41333 0.99584 0.0
C815 C 0.59296 0.30982 0.9628 0.0
Zn816 Zn 0.34769 0.68302 0.84751 0.0
Zn817 Zn 0.34476 0.68876 0.79678 0.0
Zn818 Zn 0.34884 0.68539 0.82277 0.0
C819 C 0.40037 0.66383 0.80249 0.0
C820 C 0.2688 0.63098 0.80488 0.0
O821 O 0.28537 0.64995 0.83043 0.0
O822 O 0.29276 0.64254 0.85204 0.0
C823 C 0.38044 0.7625 0.84255 0.0
O824 O 0.39008 0.66547 0.81465 0.0
O825 O 0.38467 0.67263 0.79284 0.0
O826 O 0.28755 0.64789 0.79432 0.0
O827 O 0.28646 0.64216 0.81641 0.0
O828 O 0.36413 0.73878 0.85223 0.0
O829 O 0.37817 0.74829 0.83067 0.0
O830 O 0.38662 0.65876 0.82876 0.0
O831 O 0.38845 0.66779 0.85065 0.0
C832 C 0.39908 0.65602 0.84057 0.0
O833 O 0.36698 0.74819 0.81683 0.0
O834 O 0.36109 0.74584 0.79472 0.0
C835 C 0.27002 0.63626 0.84208 0.0
C836 C 0.36891 0.76543 0.8055 0.0
Zn837 Zn 0.34914 0.68489 0.05239 0.0
Zn838 Zn 0.34534 0.68244 1.0025 0.0
Zn839 Zn 0.34721 0.68334 0.02681 0.0
C840 C 0.26741 0.63562 1.00812 0.0
C841 C 0.37757 0.76112 1.00735 0.0
O842 O 0.3881 0.66065 0.03356 0.0
O843 O 0.38702 0.66556 0.05559 0.0
C844 C 0.26968 0.63282 0.04593 0.0
O845 O 0.28268 0.64964 0.01981 0.0
O846 O 0.29016 0.64158 0.99837 0.0
O847 O 0.35944 0.7374 0.99781 0.0
O848 O 0.37734 0.74689 0.01914 0.0
O849 O 0.29239 0.64757 0.05602 0.0
O850 O 0.28415 0.64331 0.03401 0.0
O851 O 0.37199 0.74742 0.03328 0.0
O852 O 0.3696 0.74238 0.0554 0.0
C853 C 0.37743 0.76363 0.04498 0.0
O854 O 0.38027 0.65275 0.01951 0.0
O855 O 0.38562 0.6679 0.99797 0.0
C856 C 0.40043 0.65734 0.04535 0.0
C857 C 0.39302 0.65153 1.0077 0.0
Zn858 Zn 0.35417 0.67857 0.55747 0.0
Zn859 Zn 0.35252 0.68793 0.511 0.0
Zn860 Zn 0.35405 0.6845 0.53273 0.0
C861 C 0.3546 0.75352 0.51723 0.0
C862 C 0.28709 0.62129 0.51516 0.0
O863 O 0.38355 0.64851 0.53692 0.0
O864 O 0.37543 0.64152 0.55888 0.0
C865 C 0.40166 0.76047 0.55168 0.0
O866 O 0.37579 0.7477 0.5261 0.0
O867 O 0.32922 0.7239 0.51047 0.0
O868 O 0.31668 0.6295 0.50786 0.0
O869 O 0.29187 0.64462 0.52509 0.0
O870 O 0.39086 0.73592 0.56133 0.0
O871 O 0.38925 0.74765 0.53969 0.0
O872 O 0.28982 0.65419 0.53867 0.0
O873 O 0.29667 0.65652 0.56074 0.0
C874 C 0.27447 0.64792 0.55047 0.0
O875 O 0.39423 0.66484 0.52383 0.0
O876 O 0.41123 0.71146 0.50843 0.0
C877 C 0.38679 0.63348 0.54813 0.0
C878 C 0.4184 0.6869 0.51454 0.0
Zn879 Zn 0.35365 0.68626 0.28824 0.0
Zn880 Zn 0.35621 0.68431 0.35948 0.0
Zn881 Zn 0.35427 0.68609 0.3128 0.0
C882 C 0.41544 0.71822 0.33425 0.0
C883 C 0.32612 0.62456 0.33417 0.0
O884 O 0.31317 0.70907 0.30778 0.0
O885 O 0.31342 0.70372 0.28575 0.0
C886 C 0.43287 0.74186 0.29578 0.0
O887 O 0.41556 0.71943 0.32141 0.0
O888 O 0.38109 0.70059 0.33981 0.0
O889 O 0.34499 0.65898 0.33978 0.0
O890 O 0.32579 0.62434 0.32131 0.0
O891 O 0.41078 0.72751 0.28551 0.0
O892 O 0.41804 0.72899 0.30751 0.0
O893 O 0.33255 0.62208 0.30735 0.0
O894 O 0.33715 0.62896 0.28535 0.0
C895 C 0.32966 0.60695 0.29561 0.0
O896 O 0.32113 0.71346 0.32185 0.0
O897 O 0.33971 0.69545 0.34002 0.0
C898 C 0.30069 0.71245 0.29607 0.0
C899 C 0.32243 0.71317 0.33469 0.0
H900 H 0.25989 0.13555 0.24137 0.0
H901 H 0.14338 0.13798 0.17572 0.0
H902 H 0.24429 0.23536 0.22984 0.0
H903 H 0.1553 0.03749 0.1886 0.0
H904 H 0.19586 0.18081 0.19174 0.0
H905 H 0.2339 0.10505 0.2196 0.0
C906 C 0.25086 0.15111 0.2343 0.0
C907 C 0.25378 0.18795 0.23762 0.0
C908 C 0.18814 0.14973 0.19072 0.0
C909 C 0.22415 0.15296 0.21238 0.0
C910 C 0.1589 0.12548 0.1813 0.0
C911 C 0.1446 0.08402 0.18102 0.0
C912 C 0.20319 0.13219 0.19976 0.0
C913 C 0.16535 0.0693 0.18859 0.0
C914 C 0.23632 0.13373 0.22176 0.0
C915 C 0.24209 0.2067 0.22785 0.0
N916 N 0.1927 0.09303 0.19798 0.0
N917 N 0.22747 0.18883 0.21573 0.0
H918 H 0.90023 0.15142 0.24407 0.0
H919 H 0.90931 0.03201 0.18056 0.0
H920 H 0.80301 0.03553 0.23177 0.0
H921 H 0.01076 0.13612 0.19773 0.0
H922 H 0.86482 0.04314 0.19506 0.0
H923 H 0.93569 0.15466 0.22371 0.0
C924 C 0.88618 0.12656 0.2371 0.0
C925 C 0.8487 0.09276 0.23983 0.0
C926 C 0.89669 0.06438 0.19533 0.0
C927 C 0.88952 0.09657 0.21627 0.0
C928 C 0.92199 0.0585 0.18686 0.0
C929 C 0.96364 0.08329 0.18799 0.0
C930 C 0.91343 0.09531 0.2049 0.0
C931 C 0.97874 0.11652 0.19655 0.0
C932 C 0.90649 0.12861 0.22539 0.0
C933 C 0.83202 0.06193 0.23021 0.0
N934 N 0.95373 0.12117 0.20485 0.0
N935 N 0.85273 0.06439 0.21893 0.0
H936 H 0.94232 0.82221 0.24681 0.0
H937 H 0.9968 0.89662 0.17059 0.0
H938 H 0.02063 0.79949 0.22264 0.0
H939 H 0.9461 0.9437 0.19844 0.0
H940 H 0.99248 0.84859 0.18788 0.0
H941 H 0.93145 0.85604 0.22761 0.0
C942 C 0.95735 0.82465 0.23745 0.0
C943 C 0.98365 0.80976 0.23637 0.0
C944 C 0.98142 0.86882 0.19007 0.0
C945 C 0.9704 0.84678 0.2143 0.0
C946 C 0.98335 0.89571 0.18016 0.0
C947 C 0.97154 0.92375 0.18315 0.0
C948 C 0.96729 0.87006 0.20292 0.0
C949 C 0.95529 0.92227 0.19578 0.0
C950 C 0.95104 0.84368 0.22649 0.0
C951 C 0.00137 0.81217 0.22394 0.0
N952 N 0.95392 0.89612 0.20524 0.0
N953 N 0.99468 0.83066 0.21339 0.0
H954 H 0.18741 0.19194 0.2883 0.0
H955 H 0.16006 0.07699 0.35233 0.0
H956 H 0.29987 0.23667 0.30941 0.0
H957 H 0.10442 0.14977 0.34855 0.0
H958 H 0.21144 0.12165 0.33619 0.0
H959 H 0.15214 0.15893 0.309 0.0
C960 C 0.20461 0.19418 0.29725 0.0
C961 C 0.24649 0.21553 0.29708 0.0
C962 C 0.1888 0.12853 0.33935 0.0
C963 C 0.20661 0.17842 0.32065 0.0
C964 C 0.15987 0.10346 0.34866 0.0
C965 C 0.12807 0.10985 0.35171 0.0
C966 C 0.185 0.15924 0.33306 0.0
C967 C 0.12847 0.14389 0.34639 0.0
C968 C 0.1846 0.17557 0.309 0.0
C969 C 0.26752 0.21875 0.30905 0.0
N970 N 0.15571 0.16661 0.33701 0.0
N971 N 0.24735 0.19983 0.32041 0.0
H972 H 0.84185 0.01488 0.28712 0.0
H973 H 0.95642 0.08663 0.35339 0.0
H974 H 0.79998 0.07851 0.31133 0.0
H975 H 0.8887 0.95996 0.34448 0.0
H976 H 0.91281 0.09745 0.33757 0.0
H977 H 0.87645 0.00793 0.30685 0.0
C978 C 0.84057 0.02796 0.29656 0.0
C979 C 0.81953 0.04867 0.29755 0.0
C980 C 0.90708 0.06729 0.33944 0.0
C981 C 0.85848 0.04058 0.32004 0.0
C982 C 0.93161 0.06105 0.34851 0.0
C983 C 0.92644 0.02243 0.35005 0.0
C984 C 0.87808 0.03477 0.33191 0.0
C985 C 0.89411 0.99031 0.34339 0.0
C986 C 0.86011 0.02391 0.30776 0.0
C987 C 0.81758 0.06398 0.3101 0.0
N988 N 0.87187 0.99732 0.33435 0.0
N989 N 0.83735 0.06011 0.32092 0.0
H990 H 0.08018 0.8475 0.30087 0.0
H991 H 0.94591 0.88551 0.34886 0.0
H992 H 0.9516 0.77873 0.29674 0.0
H993 H 0.06551 0.91255 0.35923 0.0
H994 H 0.94251 0.838 0.33188 0.0
H995 H 0.07287 0.86611 0.3235 0.0
C996 C 0.05033 0.83618 0.30479 0.0
C997 C 0.01646 0.81199 0.29688 0.0
C998 C 0.96886 0.85302 0.33825 0.0
C999 C 0.00767 0.83349 0.32285 0.0
C1000 C 0.97052 0.87963 0.34811 0.0
C1001 C 0.00614 0.90301 0.35537 0.0
C1002 C 0.00327 0.85045 0.33565 0.0
C1003 C 0.03755 0.89505 0.3538 0.0
C1004 C 0.0461 0.84649 0.31778 0.0
C1005 C 0.97846 0.79764 0.30253 0.0
N1006 N 0.03582 0.87027 0.34388 0.0
N1007 N 0.97503 0.8093 0.3151 0.0
H1008 H 0.7994 0.8721 0.78535 0.0
H1009 H 0.90072 0.8755 0.85435 0.0
H1010 H 0.77474 0.76373 0.80614 0.0
H1011 H 0.89219 0.97666 0.8399 0.0
H1012 H 0.84779 0.83211 0.83854 0.0
H1013 H 0.82892 0.91028 0.80607 0.0
C1014 C 0.80032 0.85648 0.79431 0.0
C1015 C 0.78659 0.81525 0.79397 0.0
C1016 C 0.85649 0.86354 0.83909 0.0
C1017 C 0.81905 0.85807 0.81771 0.0
C1018 C 0.88622 0.88812 0.84828 0.0
C1019 C 0.90019 0.92942 0.84852 0.0
C1020 C 0.84201 0.88086 0.82974 0.0
C1021 C 0.88158 0.94473 0.84013 0.0
C1022 C 0.81677 0.87809 0.80615 0.0
C1023 C 0.78691 0.79592 0.8059 0.0
N1024 N 0.85414 0.92065 0.83081 0.0
N1025 N 0.80356 0.81757 0.81724 0.0
H1026 H 0.15184 0.92383 0.78957 0.0
H1027 H 0.15135 0.06445 0.847 0.0
H1028 H 0.24889 0.04475 0.79637 0.0
H1029 H 0.06295 0.93895 0.84403 0.0
H1030 H 0.19275 0.0548 0.83082 0.0
H1031 H 0.12273 0.9263 0.81087 0.0
C1032 C 0.16714 0.95094 0.79553 0.0
C1033 C 0.20272 0.98436 0.79102 0.0
C1034 C 0.16487 0.02902 0.83394 0.0
C1035 C 0.16943 0.98719 0.81558 0.0
C1036 C 0.14151 0.03445 0.84333 0.0
C1037 C 0.10392 0.00238 0.84687 0.0
C1038 C 0.14999 0.99142 0.82778 0.0
C1039 C 0.09203 0.96428 0.84164 0.0
C1040 C 0.15057 0.95217 0.80777 0.0
C1041 C 0.22127 0.01838 0.79932 0.0
N1042 N 0.11459 0.96 0.8321 0.0
N1043 N 0.20422 0.01903 0.81111 0.0
H1044 H 0.99298 0.2367 0.79754 0.0
H1045 H 0.09373 0.14733 0.84679 0.0
H1046 H 0.11009 0.25059 0.79173 0.0
H1047 H 0.97063 0.11833 0.84888 0.0
H1048 H 0.10633 0.20019 0.83042 0.0
H1049 H 0.98973 0.20615 0.81939 0.0
C1050 C 0.01808 0.23347 0.80084 0.0
C1051 C 0.05158 0.24573 0.79263 0.0
C1052 C 0.07685 0.18312 0.83478 0.0
C1053 C 0.04818 0.21105 0.81778 0.0
C1054 C 0.0699 0.15351 0.84432 0.0
C1055 C 0.03113 0.12865 0.84917 0.0
C1056 C 0.04471 0.18757 0.8301 0.0
C1057 C 0.00097 0.13704 0.84536 0.0
C1058 C 0.01628 0.21619 0.81338 0.0
C1059 C 0.08337 0.24115 0.79759 0.0
N1060 N 0.00818 0.16531 0.83588 0.0
N1061 N 0.08074 0.22393 0.80978 0.0
H1062 H 0.76904 0.81877 0.72842 0.0
H1063 H 0.94934 0.8759 0.67755 0.0
H1064 H 0.86221 0.78885 0.73401 0.0
H1065 H 0.87664 0.93186 0.6769 0.0
H1066 H 0.90427 0.82771 0.69425 0.0
H1067 H 0.79669 0.84652 0.70622 0.0
C1068 C 0.79506 0.8178 0.72497 0.0
C1069 C 0.81376 0.8022 0.73324 0.0
C1070 C 0.89745 0.84977 0.69015 0.0
C1071 C 0.84496 0.83298 0.70779 0.0
C1072 C 0.92277 0.87675 0.68043 0.0
C1073 C 0.91655 0.90772 0.67587 0.0
C1074 C 0.86588 0.85401 0.69529 0.0
C1075 C 0.88227 0.90821 0.68018 0.0
C1076 C 0.81075 0.8335 0.7123 0.0
C1077 C 0.84723 0.80136 0.72816 0.0
N1078 N 0.85859 0.88227 0.68982 0.0
N1079 N 0.86176 0.81664 0.71585 0.0
H1080 H 0.19826 0.05141 0.73845 0.0
H1081 H 0.11523 0.96151 0.66813 0.0
H1082 H 0.24402 0.98291 0.71922 0.0
H1083 H 0.13752 0.0793 0.6787 0.0
H1084 H 0.16101 0.96567 0.68613 0.0
H1085 H 0.17075 0.05743 0.71681 0.0
C1086 C 0.2018 0.03699 0.72969 0.0
C1087 C 0.2217 0.01501 0.7307 0.0
C1088 C 0.15707 0.99123 0.68419 0.0
C1089 C 0.19144 0.02268 0.70591 0.0
C1090 C 0.13153 0.98916 0.67377 0.0
C1091 C 0.12302 0.02033 0.67185 0.0
C1092 C 0.17308 0.02415 0.69294 0.0
C1093 C 0.14382 0.05495 0.67973 0.0
C1094 C 0.18663 0.04088 0.71735 0.0
C1095 C 0.2269 0.9982 0.71898 0.0
N1096 N 0.16694 0.05545 0.69022 0.0
N1097 N 0.21127 0.00178 0.70707 0.0
H1098 H 0.05848 0.2796 0.72016 0.0
H1099 H 0.9529 0.06711 0.6838 0.0
H1100 H 0.98527 0.16857 0.74118 0.0
H1101 H 0.07532 0.15499 0.67504 0.0
H1102 H 0.95217 0.11242 0.70093 0.0
H1103 H 0.05491 0.24111 0.70006 0.0
C1104 C 0.04261 0.24713 0.72063 0.0
C1105 C 0.02408 0.22708 0.73253 0.0
C1106 C 0.97875 0.12216 0.69496 0.0
C1107 C 0.01669 0.18327 0.70937 0.0
C1108 C 0.97893 0.09671 0.68505 0.0
C1109 C 0.01408 0.10769 0.67796 0.0
C1110 C 0.01373 0.15894 0.69755 0.0
C1111 C 0.04754 0.14581 0.68023 0.0
C1112 C 0.03988 0.22531 0.70912 0.0
C1113 C 0.00111 0.18505 0.73232 0.0
N1114 N 0.04667 0.17011 0.6899 0.0
N1115 N 0.99801 0.16448 0.72092 0.0
H1116 H 0.89063 0.59026 0.55605 0.0
H1117 H 0.81522 0.41015 0.50339 0.0
H1118 H 0.90275 0.48541 0.56161 0.0
H1119 H 0.77412 0.4956 0.50359 0.0
H1120 H 0.86492 0.44965 0.52076 0.0
H1121 H 0.86302 0.56622 0.53356 0.0
C1122 C 0.88768 0.56231 0.55255 0.0
C1123 C 0.89845 0.53954 0.56086 0.0
C1124 C 0.8459 0.46046 0.51669 0.0
C1125 C 0.86756 0.51226 0.53502 0.0
C1126 C 0.8181 0.43835 0.50659 0.0
C1127 C 0.79069 0.44976 0.50209 0.0
C1128 C 0.84615 0.49415 0.52221 0.0
C1129 C 0.79492 0.48597 0.50681 0.0
C1130 C 0.87208 0.54871 0.53968 0.0
C1131 C 0.89425 0.5037 0.55568 0.0
N1132 N 0.82161 0.50656 0.51678 0.0
N1133 N 0.879 0.49112 0.54314 0.0
H1134 H 0.54579 0.42603 0.56482 0.0
H1135 H 0.54457 0.29201 0.50526 0.0
H1136 H 0.44666 0.30657 0.55757 0.0
H1137 H 0.62503 0.41975 0.50699 0.0
H1138 H 0.50378 0.29792 0.52268 0.0
H1139 H 0.57246 0.4252 0.5429 0.0
C1140 C 0.5296 0.39948 0.55865 0.0
C1141 C 0.4941 0.36603 0.56319 0.0
C1142 C 0.52963 0.3249 0.519 0.0
C1143 C 0.52463 0.36513 0.53786 0.0
C1144 C 0.55263 0.32159 0.50893 0.0
C1145 C 0.58802 0.3555 0.50466 0.0
C1146 C 0.54276 0.36228 0.5251 0.0
C1147 C 0.59768 0.39299 0.50991 0.0
C1148 C 0.54471 0.39925 0.54603 0.0
C1149 C 0.47426 0.33289 0.55457 0.0
N1150 N 0.5757 0.39528 0.52011 0.0
N1151 N 0.49004 0.3331 0.54239 0.0
H1152 H 0.6371 0.16317 0.5669 0.0
H1153 H 0.73614 0.25584 0.49874 0.0
H1154 H 0.71534 0.1278 0.54865 0.0
H1155 H 0.61714 0.23193 0.50755 0.0
H1156 H 0.7295 0.20745 0.51605 0.0
H1157 H 0.63051 0.19001 0.5452 0.0
C1158 C 0.65318 0.16149 0.55832 0.0
C1159 C 0.67839 0.14523 0.55963 0.0
C1160 C 0.70435 0.21182 0.51393 0.0
C1161 C 0.67024 0.17462 0.53482 0.0
C1162 C 0.70791 0.23891 0.50392 0.0
C1163 C 0.67694 0.24737 0.50168 0.0
C1164 C 0.67029 0.19454 0.52207 0.0
C1165 C 0.64139 0.22566 0.50888 0.0
C1166 C 0.64907 0.1763 0.54594 0.0
C1167 C 0.69738 0.14219 0.54816 0.0
N1168 N 0.63944 0.20107 0.51907 0.0
N1169 N 0.69355 0.15747 0.53625 0.0
H1170 H 0.82475 0.54796 0.61243 0.0
H1171 H 0.81923 0.45522 0.68319 0.0
H1172 H 0.93312 0.57531 0.63384 0.0
H1173 H 0.72247 0.47076 0.66848 0.0
H1174 H 0.86325 0.50289 0.66628 0.0
H1175 H 0.78689 0.52078 0.63321 0.0
C1176 C 0.8404 0.54791 0.62152 0.0
C1177 C 0.8816 0.56195 0.62137 0.0
C1178 C 0.83279 0.49702 0.66703 0.0
C1179 C 0.83914 0.53224 0.64516 0.0
C1180 C 0.80792 0.47035 0.67683 0.0
C1181 C 0.76756 0.45984 0.67734 0.0
C1182 C 0.81662 0.51205 0.65745 0.0
C1183 C 0.75373 0.47888 0.66854 0.0
C1184 C 0.81899 0.53285 0.63338 0.0
C1185 C 0.90097 0.5628 0.63346 0.0
N1186 N 0.77797 0.50339 0.65872 0.0
N1187 N 0.8795 0.54751 0.64484 0.0
H1188 H 0.47891 0.28339 0.61681 0.0
H1189 H 0.56604 0.38444 0.68587 0.0
H1190 H 0.44465 0.36295 0.63486 0.0
H1191 H 0.55779 0.27246 0.67501 0.0
H1192 H 0.51493 0.37283 0.66897 0.0
H1193 H 0.50433 0.27588 0.63872 0.0
C1194 C 0.47692 0.29932 0.62541 0.0
C1195 C 0.46165 0.32536 0.624 0.0
C1196 C 0.52323 0.35007 0.67055 0.0
C1197 C 0.48934 0.31618 0.64903 0.0
C1198 C 0.55186 0.35638 0.68038 0.0
C1199 C 0.56571 0.32916 0.68186 0.0
C1200 C 0.50982 0.31718 0.66183 0.0
C1201 C 0.54739 0.29385 0.67423 0.0
C1202 C 0.49097 0.29475 0.63791 0.0
C1203 C 0.45817 0.34419 0.63547 0.0
N1204 N 0.52127 0.28944 0.66421 0.0
N1205 N 0.4726 0.33985 0.64748 0.0
H1206 H 0.77071 0.2273 0.61874 0.0
H1207 H 0.63211 0.21094 0.67889 0.0
H1208 H 0.65509 0.12259 0.62586 0.0
H1209 H 0.75562 0.30421 0.67612 0.0
H1210 H 0.64319 0.17316 0.66156 0.0
H1211 H 0.76813 0.25279 0.6408 0.0
C1212 C 0.74468 0.20964 0.62491 0.0
C1213 C 0.71279 0.17289 0.6203 0.0
C1214 C 0.66828 0.20131 0.66497 0.0
C1215 C 0.70994 0.20192 0.64574 0.0
C1216 C 0.66206 0.22258 0.67501 0.0
C1217 C 0.69303 0.26061 0.67889 0.0
C1218 C 0.7055 0.21875 0.65855 0.0
C1219 C 0.7311 0.27479 0.67344 0.0
C1220 C 0.74346 0.22409 0.63759 0.0
C1221 C 0.6802 0.15122 0.62889 0.0
N1222 N 0.73606 0.25431 0.66327 0.0
N1223 N 0.67948 0.16623 0.64112 0.0
H1224 H 0.45103 0.11497 0.13099 0.0
H1225 H 0.56993 0.3483 0.14899 0.0
H1226 H 0.46163 0.20924 0.10481 0.0
H1227 H 0.56953 0.25777 0.1748 0.0
H1228 H 0.51783 0.29568 0.13514 0.0
H1229 H 0.48494 0.16468 0.1489 0.0
C1230 C 0.46116 0.14632 0.12899 0.0
C1231 C 0.45555 0.15862 0.11628 0.0
C1232 C 0.52836 0.28715 0.144 0.0
C1233 C 0.49223 0.21509 0.13677 0.0
C1234 C 0.55768 0.31725 0.15202 0.0
C1235 C 0.57418 0.3073 0.16297 0.0
C1236 C 0.51588 0.24678 0.14683 0.0
C1237 C 0.55748 0.26665 0.16644 0.0
C1238 C 0.47985 0.17451 0.13924 0.0
C1239 C 0.46679 0.19896 0.11437 0.0
N1240 N 0.52986 0.23773 0.15818 0.0
N1241 N 0.48504 0.22585 0.12445 0.0
H1242 H 0.80505 0.24257 0.10883 0.0
H1243 H 0.80454 0.36114 0.17368 0.0
H1244 H 0.90566 0.35682 0.12075 0.0
H1245 H 0.70363 0.25118 0.15944 0.0
H1246 H 0.8476 0.35216 0.15786 0.0
H1247 H 0.77259 0.23943 0.12982 0.0
C1248 C 0.82039 0.26723 0.11582 0.0
C1249 C 0.85811 0.30037 0.11284 0.0
C1250 C 0.81633 0.32923 0.15852 0.0
C1251 C 0.82068 0.29663 0.1372 0.0
C1252 C 0.79194 0.33388 0.16778 0.0
C1253 C 0.75054 0.30684 0.16781 0.0
C1254 C 0.79895 0.29726 0.14934 0.0
C1255 C 0.73547 0.2726 0.15973 0.0
C1256 C 0.80182 0.26519 0.12792 0.0
C1257 C 0.87641 0.33095 0.1225 0.0
N1258 N 0.75947 0.26921 0.15061 0.0
N1259 N 0.85736 0.3285 0.1342 0.0
H1260 H 0.69092 0.58918 0.11857 0.0
H1261 H 0.80917 0.50285 0.15966 0.0
H1262 H 0.80611 0.60505 0.10775 0.0
H1263 H 0.69482 0.4853 0.17187 0.0
H1264 H 0.81524 0.55401 0.14375 0.0
H1265 H 0.69618 0.56118 0.14019 0.0
C1266 C 0.71729 0.58687 0.12071 0.0
C1267 C 0.74779 0.59899 0.11117 0.0
C1268 C 0.78927 0.53994 0.15016 0.0
C1269 C 0.75431 0.56764 0.13601 0.0
C1270 C 0.78626 0.51131 0.15945 0.0
C1271 C 0.75147 0.48988 0.16705 0.0
C1272 C 0.75678 0.54648 0.14824 0.0
C1273 C 0.72227 0.50142 0.16624 0.0
C1274 C 0.72041 0.57117 0.13311 0.0
C1275 C 0.78148 0.59568 0.11463 0.0
N1276 N 0.72496 0.52811 0.15667 0.0
N1277 N 0.78365 0.58018 0.12668 0.0
H1278 H 0.43024 0.16597 0.05692 0.0
H1279 H 0.5853 0.20254 0.99862 0.0
H1280 H 0.50305 0.1104 0.05382 0.0
H1281 H 0.54672 0.28729 1.00732 0.0
H1282 H 0.53536 0.15479 0.01412 0.0
H1283 H 0.45568 0.19856 0.03499 0.0
C1284 C 0.45102 0.16015 0.05153 0.0
C1285 C 0.46509 0.136 0.05724 0.0
C1286 C 0.53689 0.18335 0.01238 0.0
C1287 C 0.4934 0.17219 0.03222 0.0
C1288 C 0.56496 0.21031 1.00337 0.0
C1289 C 0.56986 0.24866 1.00169 0.0
C1290 C 0.51417 0.19519 0.02 0.0
C1291 C 0.54342 0.25773 1.00828 0.0
C1292 C 0.46548 0.17871 0.03906 0.0
C1293 C 0.49196 0.12935 0.04988 0.0
N1294 N 0.5172 0.23149 0.01743 0.0
N1295 N 0.50526 0.14739 0.03781 0.0
H1296 H 0.86287 0.36495 0.0626 0.0
H1297 H 0.74327 0.27523 1.00022 0.0
H1298 H 0.90724 0.29713 0.04204 0.0
H1299 H 0.81618 0.40406 1.00264 0.0
H1300 H 0.79031 0.26922 0.01573 0.0
H1301 H 0.82886 0.36652 0.04187 0.0
C1302 C 0.86482 0.34983 0.05375 0.0
C1303 C 0.88636 0.32949 0.05408 0.0
C1304 C 0.79671 0.29865 0.01235 0.0
C1305 C 0.84826 0.33161 0.03048 0.0
C1306 C 0.77022 0.30211 1.00342 0.0
C1307 C 0.77596 0.34021 1.00025 0.0
C1308 C 0.82822 0.33352 0.01812 0.0
C1309 C 0.81073 0.37418 1.00495 0.0
C1310 C 0.84569 0.35089 0.04199 0.0
C1311 C 0.88922 0.31146 0.04226 0.0
N1312 N 0.83493 0.37008 0.01399 0.0
N1313 N 0.8698 0.31239 0.03087 0.0
H1314 H 0.67402 0.52498 0.06226 0.0
H1315 H 0.74929 0.48442 0.99843 0.0
H1316 H 0.73875 0.63331 0.03898 0.0
H1317 H 0.62185 0.4302 1.00385 0.0
H1318 H 0.75954 0.53909 0.01366 0.0
H1319 H 0.66805 0.48551 0.04226 0.0
C1320 C 0.68759 0.54039 0.05298 0.0
C1321 C 0.70826 0.58232 0.05232 0.0
C1322 C 0.72939 0.51595 0.01104 0.0
C1323 C 0.70123 0.5377 0.02956 0.0
C1324 C 0.7235 0.4851 1.00226 0.0
C1325 C 0.68467 0.45284 0.99996 0.0
C1326 C 0.69625 0.5136 0.01757 0.0
C1327 C 0.65225 0.45449 1.00546 0.0
C1328 C 0.68406 0.518 0.04163 0.0
C1329 C 0.72424 0.601 0.03996 0.0
N1330 N 0.65879 0.48369 0.01434 0.0
N1331 N 0.72087 0.57852 0.029 0.0
H1332 H 0.52046 0.94148 0.90035 0.0
H1333 H 0.45789 0.80429 0.83477 0.0
H1334 H 0.57125 0.86867 0.8889 0.0
H1335 H 0.37147 0.81297 0.85937 0.0
H1336 H 0.51177 0.85501 0.84888 0.0
H1337 H 0.47746 0.91862 0.88011 0.0
C1338 C 0.52315 0.92142 0.89342 0.0
C1339 C 0.54901 0.90651 0.89631 0.0
C1340 C 0.48106 0.84697 0.85083 0.0
C1341 C 0.50116 0.88145 0.87313 0.0
C1342 C 0.45034 0.81856 0.84265 0.0
C1343 C 0.41023 0.80424 0.84602 0.0
C1344 C 0.47142 0.8616 0.86221 0.0
C1345 C 0.4021 0.82319 0.85651 0.0
C1346 C 0.49872 0.90848 0.88192 0.0
C1347 C 0.55132 0.88044 0.88708 0.0
N1348 N 0.43242 0.85043 0.86442 0.0
N1349 N 0.52765 0.86868 0.87591 0.0
H1350 H 0.16206 0.71978 0.88838 0.0
H1351 H 0.218 0.57376 0.85772 0.0
H1352 H 0.09019 0.59399 0.89795 0.0
H1353 H 0.22943 0.67408 0.83472 0.0
H1354 H 0.16658 0.57565 0.87134 0.0
H1355 H 0.18523 0.70223 0.86816 0.0
C1356 C 0.15087 0.6884 0.88612 0.0
C1357 C 0.12441 0.65828 0.89486 0.0
C1358 C 0.17914 0.59624 0.86298 0.0
C1359 C 0.15126 0.63796 0.87184 0.0
C1360 C 0.20814 0.59484 0.85509 0.0
C1361 C 0.22807 0.62391 0.84511 0.0
C1362 C 0.17106 0.62771 0.86112 0.0
C1363 C 0.21469 0.65104 0.84228 0.0
C1364 C 0.1638 0.67837 0.87453 0.0
C1365 C 0.11061 0.61807 0.89144 0.0
N1366 N 0.18806 0.65326 0.85056 0.0
N1367 N 0.12493 0.60905 0.88034 0.0
H1368 H 0.3899 0.54258 0.90471 0.0
H1369 H 0.46592 0.67943 0.85557 0.0
H1370 H 0.40886 0.46302 0.87963 0.0
H1371 H 0.37463 0.57875 0.83345 0.0
H1372 H 0.47343 0.63295 0.87053 0.0
H1373 H 0.40874 0.59007 0.88595 0.0
C1374 C 0.39859 0.5355 0.89528 0.0
C1375 C 0.39935 0.49982 0.89377 0.0
C1376 C 0.45306 0.62113 0.86203 0.0
C1377 C 0.41958 0.55299 0.87226 0.0
C1378 C 0.44918 0.64758 0.85337 0.0
C1379 C 0.41914 0.63278 0.84343 0.0
C1380 C 0.42678 0.57975 0.86067 0.0
C1381 C 0.39798 0.59125 0.84106 0.0
C1382 C 0.40948 0.56252 0.88464 0.0
C1383 C 0.40934 0.49107 0.88121 0.0
N1384 N 0.40122 0.56589 0.84994 0.0
N1385 N 0.41864 0.51736 0.8708 0.0
H1386 H 0.49707 0.92298 0.94528 0.0
H1387 H 0.45588 0.8067 0.01494 0.0
H1388 H 0.58949 0.92058 0.96922 0.0
H1389 H 0.36446 0.80847 0.99019 0.0
H1390 H 0.50716 0.86015 1.00105 0.0
H1391 H 0.45005 0.89136 0.96375 0.0
C1392 C 0.50728 0.91553 0.95445 0.0
C1393 C 0.5464 0.92235 0.95556 0.0
C1394 C 0.47589 0.8498 0.99892 0.0
C1395 C 0.49341 0.88738 0.97689 0.0
C1396 C 0.4466 0.81978 1.00701 0.0
C1397 C 0.40593 0.80309 1.00365 0.0
C1398 C 0.46419 0.86312 0.98747 0.0
C1399 C 0.39555 0.82053 0.99308 0.0
C1400 C 0.48061 0.89778 0.96503 0.0
C1401 C 0.55886 0.91386 0.9678 0.0
N1402 N 0.42445 0.849 0.98521 0.0
N1403 N 0.53229 0.89625 0.97795 0.0
H1404 H 0.10373 0.68259 0.96745 0.0
H1405 H 0.21815 0.5703 0.99322 0.0
H1406 H 0.10775 0.58794 0.94604 0.0
H1407 H 0.22289 0.6705 0.01387 0.0
H1408 H 0.16393 0.56553 0.97903 0.0
H1409 H 0.13553 0.66993 0.98692 0.0
C1410 C 0.11168 0.65934 0.96686 0.0
C1411 C 0.10507 0.63755 0.95497 0.0
C1412 C 0.17589 0.58786 0.98691 0.0
C1413 C 0.13996 0.62183 0.97727 0.0
C1414 C 0.20638 0.59009 0.99518 0.0
C1415 C 0.22499 0.62082 1.00472 0.0
C1416 C 0.16429 0.61697 0.98805 0.0
C1417 C 0.20909 0.64614 1.00671 0.0
C1418 C 0.12931 0.65176 0.978 0.0
C1419 C 0.11371 0.60628 0.9549 0.0
N1420 N 0.18032 0.64435 0.9982 0.0
N1421 N 0.13133 0.59979 0.96579 0.0
H1422 H 0.47596 0.55351 0.9495 0.0
H1423 H 0.35732 0.57116 0.01184 0.0
H1424 H 0.35409 0.46487 0.95916 0.0
H1425 H 0.46132 0.67116 0.99438 0.0
H1426 H 0.3662 0.52547 0.99706 0.0
H1427 H 0.4795 0.59048 0.96972 0.0
C1428 C 0.44994 0.54158 0.95589 0.0
C1429 C 0.41441 0.50614 0.95245 0.0
C1430 C 0.38786 0.55729 0.99679 0.0
C1431 C 0.41864 0.54845 0.97582 0.0
C1432 C 0.3833 0.58326 1.00541 0.0
C1433 C 0.40873 0.6249 1.00431 0.0
C1434 C 0.41829 0.57324 0.98714 0.0
C1435 C 0.44124 0.63918 0.99556 0.0
C1436 C 0.4521 0.56276 0.96748 0.0
C1437 C 0.38191 0.49227 0.96126 0.0
N1438 N 0.44475 0.61348 0.98715 0.0
N1439 N 0.38473 0.51356 0.97249 0.0
H1440 H 0.16966 0.53937 0.44439 0.0
H1441 H 0.25742 0.54085 0.51428 0.0
H1442 H 0.11947 0.42696 0.46571 0.0
H1443 H 0.23159 0.63374 0.50289 0.0
H1444 H 0.2097 0.49677 0.49712 0.0
H1445 H 0.19879 0.57502 0.46549 0.0
C1446 C 0.16541 0.52224 0.45351 0.0
C1447 C 0.14386 0.48021 0.45326 0.0
C1448 C 0.21339 0.52626 0.49872 0.0
C1449 C 0.17609 0.52058 0.47739 0.0
C1450 C 0.24009 0.55114 0.50862 0.0
C1451 C 0.24776 0.59061 0.5101 0.0
C1452 C 0.19569 0.54174 0.48998 0.0
C1453 C 0.22581 0.60319 0.5022 0.0
C1454 C 0.18154 0.54251 0.46553 0.0
C1455 C 0.13783 0.45934 0.46541 0.0
N1456 N 0.20159 0.57924 0.49218 0.0
N1457 N 0.15453 0.47971 0.477 0.0
H1458 H 0.59395 0.72663 0.45654 0.0
H1459 H 0.41268 0.61541 0.50802 0.0
H1460 H 0.49217 0.60787 0.45066 0.0
H1461 H 0.49326 0.74332 0.50735 0.0
H1462 H 0.45405 0.60758 0.4911 0.0
H1463 H 0.5681 0.72876 0.47869 0.0
C1464 C 0.56634 0.70095 0.45991 0.0
C1465 C 0.54486 0.66734 0.4516 0.0
C1466 C 0.46329 0.63724 0.49495 0.0
C1467 C 0.51558 0.66929 0.47701 0.0
C1468 C 0.44006 0.6416 0.50475 0.0
C1469 C 0.4496 0.68005 0.50897 0.0
C1470 C 0.49622 0.6716 0.48948 0.0
C1471 C 0.48495 0.71317 0.50427 0.0
C1472 C 0.5517 0.70213 0.47257 0.0
C1473 C 0.5094 0.63476 0.45659 0.0
N1474 N 0.50669 0.70828 0.49462 0.0
N1475 N 0.49582 0.63664 0.46891 0.0
H1476 H 0.32093 0.89101 0.45793 0.0
H1477 H 0.42791 0.8145 0.50989 0.0
H1478 H 0.43552 0.89949 0.45164 0.0
H1479 H 0.30335 0.78055 0.51161 0.0
H1480 H 0.4377 0.86338 0.49228 0.0
H1481 H 0.31985 0.86551 0.4806 0.0
C1482 C 0.34592 0.88768 0.4613 0.0
C1483 C 0.37803 0.89681 0.45273 0.0
C1484 C 0.40849 0.84614 0.49681 0.0
C1485 C 0.37728 0.86829 0.47878 0.0
C1486 C 0.40313 0.81884 0.50706 0.0
C1487 C 0.36476 0.79347 0.51213 0.0
C1488 C 0.37522 0.84796 0.49173 0.0
C1489 C 0.33341 0.79964 0.5079 0.0
C1490 C 0.34536 0.8733 0.47427 0.0
C1491 C 0.40976 0.89224 0.45776 0.0
N1492 N 0.33911 0.82571 0.49776 0.0
N1493 N 0.40847 0.87814 0.47039 0.0
H1494 H 0.12746 0.47233 0.38432 0.0
H1495 H 0.34915 0.6033 0.35694 0.0
H1496 H 0.23123 0.47751 0.4033 0.0
H1497 H 0.24666 0.56825 0.33109 0.0
H1498 H 0.30541 0.5566 0.37398 0.0
H1499 H 0.16911 0.50809 0.36483 0.0
C1500 C 0.15883 0.4809 0.38442 0.0
C1501 C 0.17574 0.47195 0.39556 0.0
C1502 C 0.29236 0.55834 0.3645 0.0
C1503 C 0.22338 0.51266 0.37332 0.0
C1504 C 0.31744 0.58474 0.35472 0.0
C1505 C 0.3015 0.58902 0.34255 0.0
C1506 C 0.25072 0.53682 0.36228 0.0
C1507 C 0.26009 0.56508 0.34028 0.0
C1508 C 0.18249 0.50102 0.37326 0.0
C1509 C 0.2166 0.48362 0.39503 0.0
N1510 N 0.23592 0.54042 0.35016 0.0
N1511 N 0.23888 0.50347 0.3842 0.0
H1512 H 0.55721 0.7534 0.40515 0.0
H1513 H 0.48183 0.71266 0.32853 0.0
H1514 H 0.58258 0.68241 0.3781 0.0
H1515 H 0.42941 0.7497 0.35923 0.0
H1516 H 0.53199 0.71711 0.34499 0.0
H1517 H 0.52295 0.76746 0.3868 0.0
C1518 C 0.55547 0.74083 0.39531 0.0
C1519 C 0.57085 0.71524 0.39319 0.0
C1520 C 0.51001 0.7251 0.34801 0.0
C1521 C 0.53321 0.73213 0.37212 0.0
C1522 C 0.48175 0.723 0.3386 0.0
C1523 C 0.45155 0.73074 0.34259 0.0
C1524 C 0.50816 0.73555 0.36137 0.0
C1525 C 0.45221 0.74334 0.3558 0.0
C1526 C 0.53616 0.74894 0.38485 0.0
C1527 C 0.56941 0.70088 0.38019 0.0
N1528 N 0.47984 0.74508 0.36474 0.0
N1529 N 0.55047 0.70916 0.37014 0.0
H1530 H 0.36269 0.91872 0.37873 0.0
H1531 H 0.2923 0.69379 0.35971 0.0
H1532 H 0.29191 0.81937 0.40507 0.0
H1533 H 0.32873 0.7864 0.32967 0.0
H1534 H 0.28915 0.73875 0.37615 0.0
H1535 H 0.34889 0.87124 0.36035 0.0
C1536 C 0.34439 0.88679 0.38061 0.0
C1537 C 0.32974 0.87259 0.39349 0.0
C1538 C 0.29697 0.74909 0.36591 0.0
C1539 C 0.31308 0.81831 0.37256 0.0
C1540 C 0.29863 0.72336 0.35651 0.0
C1541 C 0.31069 0.73644 0.34333 0.0
C1542 C 0.30827 0.7886 0.3622 0.0
C1543 C 0.3189 0.7751 0.33971 0.0
C1544 C 0.3361 0.85978 0.37011 0.0
C1545 C 0.30471 0.83125 0.39535 0.0
N1546 N 0.31829 0.80018 0.34918 0.0
N1547 N 0.29777 0.80546 0.38506 0.0
H1548 H 0.30044 0.02067 0.12599 0.0
H1549 H 0.13112 0.08068 0.11914 0.0
H1550 H 0.26272 0.04979 0.08871 0.0
H1551 H 0.13891 0.01909 0.15436 0.0
H1552 H 0.18597 0.0764 0.10925 0.0
H1553 H 0.2453 0.02238 0.13741 0.0
C1554 C 0.28009 0.02658 0.12014 0.0
C1555 C 0.28635 0.03528 0.10635 0.0
C1556 C 0.17602 0.06391 0.11917 0.0
C1557 C 0.22405 0.03833 0.11945 0.0
C1558 C 0.14492 0.06673 0.1249 0.0
C1559 C 0.13025 0.04993 0.13755 0.0
C1560 C 0.19294 0.04407 0.12608 0.0
C1561 C 0.14948 0.03252 0.14459 0.0
C1562 C 0.24885 0.02783 0.12671 0.0
C1563 C 0.25917 0.04291 0.09933 0.0
N1564 N 0.17979 0.02969 0.13869 0.0
N1565 N 0.2296 0.04471 0.10598 0.0
H1566 H 0.89972 0.19116 0.10515 0.0
H1567 H 0.06724 0.18149 0.14732 0.0
H1568 H 0.01921 0.29346 0.10875 0.0
H1569 H 0.94169 0.09532 0.1512 0.0
H1570 H 0.05018 0.22774 0.13615 0.0
H1571 H 0.91442 0.15872 0.12346 0.0
C1572 C 0.92931 0.20682 0.1097 0.0
C1573 C 0.95852 0.24505 0.10518 0.0
C1574 C 0.02626 0.19933 0.13983 0.0
C1575 C 0.97535 0.20773 0.1265 0.0
C1576 C 0.03599 0.17318 0.1464 0.0
C1577 C 0.00575 0.13456 0.15007 0.0
C1578 C 0.98602 0.18626 0.1367 0.0
C1579 C 0.96582 0.1249 0.14852 0.0
C1580 C 0.93745 0.18835 0.12034 0.0
C1581 C 0.99594 0.26383 0.11175 0.0
N1582 N 0.95705 0.15015 0.14158 0.0
N1583 N 0.00345 0.24477 0.12199 0.0
H1584 H 0.84952 0.74161 0.10104 0.0
H1585 H 0.89511 0.95726 0.12187 0.0
H1586 H 0.76243 0.77894 0.09368 0.0
H1587 H 0.94537 0.89448 0.14319 0.0
H1588 H 0.84773 0.89454 0.11063 0.0
H1589 H 0.88755 0.80005 0.11526 0.0
C1590 C 0.83849 0.7623 0.10233 0.0
C1591 C 0.80291 0.75561 0.09601 0.0
C1592 C 0.86873 0.89441 0.11791 0.0
C1593 C 0.84654 0.82273 0.11242 0.0
C1594 C 0.89585 0.93014 0.1243 0.0
C1595 C 0.92445 0.93109 0.13339 0.0
C1596 C 0.87082 0.85962 0.1204 0.0
C1597 C 0.92388 0.89509 0.13625 0.0
C1598 C 0.86006 0.79544 0.1106 0.0
C1599 C 0.78979 0.78311 0.0983 0.0
N1600 N 0.89793 0.86092 0.12959 0.0
N1601 N 0.81193 0.81586 0.10621 0.0
H1602 H 0.11415 0.31797 0.40082 0.0
H1603 H 0.95654 0.09398 0.40548 0.0
H1604 H 0.99778 0.28453 0.41648 0.0
H1605 H 0.03361 0.13893 0.37113 0.0
H1606 H 0.96871 0.16185 0.40981 0.0
H1607 H 0.08561 0.25186 0.39027 0.0
C1608 C 0.0825 0.29671 0.40196 0.0
C1609 C 0.0583 0.30652 0.4096 0.0
C1610 C 0.98195 0.15665 0.40108 0.0
C1611 C 0.02561 0.23074 0.3977 0.0
C1612 C 0.97483 0.11794 0.39856 0.0
C1613 C 0.99404 0.11096 0.38792 0.0
C1614 C 0.00961 0.18874 0.39319 0.0
C1615 C 0.01798 0.14307 0.37937 0.0
C1616 C 0.06617 0.25918 0.39584 0.0
C1617 C 0.0174 0.27804 0.41067 0.0
N1618 N 0.02607 0.18087 0.38242 0.0
N1619 N 0.00245 0.24103 0.40502 0.0
H1620 H 0.73143 0.73422 0.38945 0.0
H1621 H 0.94693 0.90123 0.41634 0.0
H1622 H 0.7617 0.76621 0.43108 0.0
H1623 H 0.91312 0.88785 0.37448 0.0
H1624 H 0.88391 0.84076 0.42141 0.0
H1625 H 0.80149 0.77991 0.38355 0.0
C1626 C 0.75291 0.75038 0.39738 0.0
C1627 C 0.74061 0.74669 0.41079 0.0
C1628 C 0.89038 0.85062 0.41108 0.0
C1629 C 0.82077 0.79893 0.40407 0.0
C1630 C 0.9265 0.88509 0.40816 0.0
C1631 C 0.93503 0.89998 0.39499 0.0
C1632 C 0.86222 0.83085 0.40079 0.0
C1633 C 0.90765 0.87752 0.38478 0.0
C1634 C 0.79286 0.77652 0.39398 0.0
C1635 C 0.76974 0.76836 0.42062 0.0
N1636 N 0.87207 0.84437 0.38793 0.0
N1637 N 0.80835 0.7937 0.41705 0.0
H1638 H 0.30485 0.0089 0.38842 0.0
H1639 H 0.14571 0.06779 0.4144 0.0
H1640 H 0.27769 0.01267 0.43006 0.0
H1641 H 0.14897 0.03448 0.3734 0.0
H1642 H 0.20561 0.06375 0.41936 0.0
H1643 H 0.25873 0.0328 0.38211 0.0
C1644 C 0.28965 0.0153 0.39625 0.0
C1645 C 0.29487 0.00844 0.4098 0.0
C1646 C 0.19363 0.05789 0.40922 0.0
C1647 C 0.24223 0.03592 0.40262 0.0
C1648 C 0.1595 0.06039 0.40635 0.0
C1649 C 0.14197 0.05099 0.39349 0.0
C1650 C 0.21047 0.04573 0.39919 0.0
C1651 C 0.16146 0.04198 0.38345 0.0
C1652 C 0.26325 0.02883 0.39262 0.0
C1653 C 0.27436 0.01721 0.4195 0.0
N1654 N 0.19439 0.03898 0.38656 0.0
N1655 N 0.24884 0.0303 0.41572 0.0
H1656 H 0.70314 0.88868 0.92535 0.0
H1657 H 0.88437 0.99871 0.87378 0.0
H1658 H 0.72402 0.99336 0.90268 0.0
H1659 H 0.88818 0.93394 0.90872 0.0
H1660 H 0.81713 0.98461 0.88037 0.0
H1661 H 0.76325 0.89355 0.91557 0.0
C1662 C 0.72022 0.91259 0.91827 0.0
C1663 C 0.70865 0.94089 0.91494 0.0
C1664 C 0.83257 0.97304 0.88645 0.0
C1665 C 0.77726 0.94619 0.90356 0.0
C1666 C 0.87063 0.98069 0.88263 0.0
C1667 C 0.89181 0.96762 0.89077 0.0
C1668 C 0.81549 0.95152 0.89832 0.0
C1669 C 0.87291 0.94476 0.90222 0.0
C1670 C 0.75453 0.91532 0.9127 0.0
C1671 C 0.73206 0.97118 0.90567 0.0
N1672 N 0.83592 0.93752 0.90566 0.0
N1673 N 0.76523 0.97302 0.90028 0.0
H1674 H 0.13927 0.82569 0.92218 0.0
H1675 H 0.02425 0.89967 0.87251 0.0
H1676 H 0.03033 0.74263 0.90127 0.0
H1677 H 0.10208 0.97068 0.90488 0.0
H1678 H 0.0364 0.84457 0.8789 0.0
H1679 H 0.13524 0.88143 0.91209 0.0
C1680 C 0.11451 0.81906 0.91543 0.0
C1681 C 0.0849 0.77922 0.91268 0.0
C1682 C 0.05131 0.87253 0.88443 0.0
C1683 C 0.08041 0.8434 0.90094 0.0
C1684 C 0.04482 0.90407 0.88068 0.0
C1685 C 0.06224 0.93965 0.8882 0.0
C1686 C 0.0759 0.87712 0.8956 0.0
C1687 C 0.08807 0.94367 0.89885 0.0
C1688 C 0.11227 0.85102 0.90967 0.0
C1689 C 0.0536 0.7728 0.9038 0.0
N1690 N 0.09401 0.9128 0.90225 0.0
N1691 N 0.05216 0.80456 0.89824 0.0
H1692 H 0.23013 0.31797 0.92723 0.0
H1693 H 0.11863 0.14914 0.87068 0.0
H1694 H 0.28403 0.31888 0.88946 0.0
H1695 H 0.0742 0.14169 0.91072 0.0
H1696 H 0.17466 0.21652 0.87589 0.0
H1697 H 0.16866 0.25789 0.92003 0.0
C1698 C 0.22902 0.30559 0.91741 0.0
C1699 C 0.26242 0.3233 0.90899 0.0
C1700 C 0.15232 0.20029 0.88346 0.0
C1701 C 0.19195 0.2545 0.90062 0.0
C1702 C 0.12013 0.16204 0.88044 0.0
C1703 C 0.09186 0.13971 0.8903 0.0
C1704 C 0.15602 0.21625 0.89641 0.0
C1705 C 0.09554 0.15768 0.90285 0.0
C1706 C 0.19387 0.27129 0.91328 0.0
C1707 C 0.25912 0.30604 0.89632 0.0
N1708 N 0.12711 0.19466 0.90556 0.0
N1709 N 0.22459 0.27253 0.89254 0.0
H1710 H 0.97172 0.74531 0.58762 0.0
H1711 H 0.00617 0.88523 0.6512 0.0
H1712 H 0.00534 0.72014 0.62637 0.0
H1713 H 0.94352 0.88408 0.61494 0.0
H1714 H 0.00853 0.82616 0.6429 0.0
H1715 H 0.9679 0.80106 0.59749 0.0
C1716 C 0.97903 0.75194 0.59816 0.0
C1717 C 0.98878 0.72791 0.60616 0.0
C1718 C 0.9937 0.83854 0.6369 0.0
C1719 C 0.98358 0.79137 0.61767 0.0
C1720 C 0.99183 0.87179 0.64172 0.0
C1721 C 0.97474 0.88955 0.63371 0.0
C1722 C 0.97861 0.82348 0.62399 0.0
C1723 C 0.95722 0.87146 0.6214 0.0
C1724 C 0.97634 0.78351 0.60385 0.0
C1725 C 0.9977 0.7379 0.61982 0.0
N1726 N 0.96005 0.83988 0.61686 0.0
N1727 N 0.99472 0.76878 0.62517 0.0
H1728 H 0.30549 0.28691 0.62505 0.0
H1729 H 0.11202 0.0751 0.60826 0.0
H1730 H 0.28002 0.23105 0.58604 0.0
H1731 H 0.14398 0.12102 0.64857 0.0
H1732 H 0.17342 0.13234 0.60011 0.0
H1733 H 0.24543 0.22843 0.63375 0.0
C1734 C 0.28696 0.26263 0.61824 0.0
C1735 C 0.29784 0.26401 0.60475 0.0
C1736 C 0.16739 0.12992 0.61076 0.0
C1737 C 0.22927 0.19656 0.61476 0.0
C1738 C 0.13235 0.09708 0.61545 0.0
C1739 C 0.12283 0.09333 0.62913 0.0
C1740 C 0.19319 0.15981 0.61976 0.0
C1741 C 0.15033 0.12265 0.63797 0.0
C1742 C 0.25286 0.22905 0.62328 0.0
C1743 C 0.27278 0.23146 0.59648 0.0
N1744 N 0.18414 0.15499 0.63311 0.0
N1745 N 0.23979 0.19909 0.60162 0.0
H1746 H 0.74251 0.02776 0.6097 0.0
H1747 H 0.9631 0.1082 0.64008 0.0
H1748 H 0.84142 0.14837 0.6042 0.0
H1749 H 0.87176 0.98338 0.63882 0.0
H1750 H 0.91403 0.12609 0.63149 0.0
H1751 H 0.78559 0.01311 0.62404 0.0
C1752 C 0.77324 0.05112 0.61145 0.0
C1753 C 0.78836 0.08922 0.60556 0.0
C1754 C 0.90446 0.09484 0.63342 0.0
C1755 C 0.83764 0.07284 0.62219 0.0
C1756 C 0.93227 0.08478 0.63853 0.0
C1757 C 0.92115 0.04438 0.64021 0.0
C1758 C 0.86552 0.06416 0.62997 0.0
C1759 C 0.88121 0.01492 0.63772 0.0
C1760 C 0.79775 0.04281 0.61971 0.0
C1761 C 0.82841 0.11839 0.60835 0.0
N1762 N 0.85492 0.02532 0.63257 0.0
N1763 N 0.8516 0.10957 0.61643 0.0
H1764 H 0.96689 0.43453 0.41606 0.0
H1765 H 0.81584 0.3857 0.47731 0.0
H1766 H 0.97384 0.38069 0.45339 0.0
H1767 H 0.8042 0.43234 0.43908 0.0
H1768 H 0.87906 0.39196 0.4698 0.0
H1769 H 0.91026 0.43904 0.42494 0.0
C1770 C 0.95627 0.42329 0.42605 0.0
C1771 C 0.975 0.40699 0.43394 0.0
C1772 C 0.86295 0.4014 0.46314 0.0
C1773 C 0.91079 0.41277 0.44429 0.0
C1774 C 0.82715 0.39835 0.4675 0.0
C1775 C 0.80456 0.40815 0.45876 0.0
C1776 C 0.87613 0.41437 0.44996 0.0
C1777 C 0.82047 0.42403 0.4461 0.0
C1778 C 0.92418 0.42618 0.43117 0.0
C1779 C 0.96024 0.39332 0.4469 0.0
N1780 N 0.85495 0.42617 0.44203 0.0
N1781 N 0.92912 0.39655 0.45166 0.0
H1782 H 0.65588 0.61324 0.44287 0.0
H1783 H 0.57724 0.3796 0.44811 0.0
H1784 H 0.55036 0.52328 0.42201 0.0
H1785 H 0.66549 0.46564 0.47537 0.0
H1786 H 0.56325 0.43116 0.43977 0.0
H1787 H 0.65895 0.55986 0.45535 0.0
C1788 C 0.63354 0.5823 0.44082 0.0
C1789 C 0.60298 0.57281 0.43127 0.0
C1790 C 0.58503 0.43871 0.4478 0.0
C1791 C 0.60601 0.51159 0.4457 0.0
C1792 C 0.59264 0.40913 0.45266 0.0
C1793 C 0.62237 0.4185 0.46245 0.0
C1794 C 0.60811 0.47824 0.45252 0.0
C1795 C 0.64201 0.45726 0.4679 0.0
C1796 C 0.63505 0.55186 0.44807 0.0
C1797 C 0.57458 0.53214 0.42921 0.0
N1798 N 0.63515 0.48608 0.46265 0.0
N1799 N 0.57691 0.50311 0.43631 0.0
H1800 H 0.51882 0.05014 0.41939 0.0
H1801 H 0.57634 0.21943 0.47532 0.0
H1802 H 0.43069 0.05844 0.44333 0.0
H1803 H 0.65291 0.23049 0.44248 0.0
H1804 H 0.5264 0.15224 0.46711 0.0
H1805 H 0.57152 0.10952 0.43073 0.0
C1806 C 0.5105 0.06451 0.42699 0.0
C1807 C 0.47017 0.04945 0.43031 0.0
C1808 C 0.5545 0.16916 0.46188 0.0
C1809 C 0.53057 0.11712 0.44352 0.0
C1810 C 0.58313 0.20712 0.46666 0.0
C1811 C 0.61856 0.23031 0.45951 0.0
C1812 C 0.56186 0.15444 0.45001 0.0
C1813 C 0.62581 0.21345 0.44823 0.0
C1814 C 0.54064 0.09834 0.4335 0.0
C1815 C 0.4613 0.06931 0.44031 0.0
N1816 N 0.59761 0.17667 0.44377 0.0
N1817 N 0.49127 0.10209 0.44659 0.0
H1818 H 0.70065 0.63701 0.74132 0.0
H1819 H 0.78619 0.48816 0.7333 0.0
H1820 H 0.80642 0.65131 0.76175 0.0
H1821 H 0.69064 0.48067 0.7084 0.0
H1822 H 0.79801 0.5522 0.74208 0.0
H1823 H 0.6977 0.5817 0.72835 0.0
C1824 C 0.72302 0.62835 0.74318 0.0
C1825 C 0.7537 0.64877 0.75273 0.0
C1826 C 0.77497 0.53715 0.73449 0.0
C1827 C 0.75089 0.58606 0.73774 0.0
C1828 C 0.76861 0.50085 0.72936 0.0
C1829 C 0.73758 0.47945 0.72011 0.0
C1830 C 0.74941 0.55165 0.73058 0.0
C1831 C 0.71516 0.49668 0.71544 0.0
C1832 C 0.72158 0.59709 0.73565 0.0
C1833 C 0.78216 0.63652 0.75455 0.0
N1834 N 0.72096 0.53151 0.72094 0.0
N1835 N 0.77997 0.606 0.74717 0.0
H1836 H 0.39023 0.0845 0.72835 0.0
H1837 H 0.56388 0.30845 0.744 0.0
H1838 H 0.40321 0.14512 0.76593 0.0
H1839 H 0.55168 0.24981 0.70608 0.0
H1840 H 0.50092 0.25124 0.75122 0.0
H1841 H 0.44689 0.14567 0.7195 0.0
C1842 C 0.40524 0.11058 0.7348 0.0
C1843 C 0.39212 0.10965 0.74794 0.0
C1844 C 0.51163 0.25098 0.74125 0.0
C1845 C 0.45659 0.17999 0.73777 0.0
C1846 C 0.54746 0.28379 0.73708 0.0
C1847 C 0.5632 0.28361 0.72448 0.0
C1848 C 0.49152 0.21747 0.73283 0.0
C1849 C 0.54059 0.25109 0.71589 0.0
C1850 C 0.43739 0.1456 0.72968 0.0
C1851 C 0.41249 0.1444 0.75578 0.0
N1852 N 0.50611 0.21893 0.72031 0.0
N1853 N 0.4437 0.17817 0.75057 0.0
H1854 H 0.89323 0.28149 0.76403 0.0
H1855 H 0.79068 0.33269 0.70283 0.0
H1856 H 0.95254 0.32778 0.72624 0.0
H1857 H 0.73076 0.27431 0.73944 0.0
H1858 H 0.8483 0.32592 0.70995 0.0
H1859 H 0.8325 0.27659 0.7545 0.0
C1860 C 0.89359 0.291 0.75376 0.0
C1861 C 0.92807 0.30531 0.74595 0.0
C1862 C 0.82218 0.31389 0.71629 0.0
C1863 C 0.85831 0.29925 0.73485 0.0
C1864 C 0.78915 0.31728 0.71214 0.0
C1865 C 0.75627 0.30443 0.72065 0.0
C1866 C 0.82197 0.29762 0.729 0.0
C1867 C 0.75583 0.28505 0.73267 0.0
C1868 C 0.85875 0.28782 0.74825 0.0
C1869 C 0.92664 0.31679 0.73263 0.0
N1870 N 0.78838 0.28275 0.73656 0.0
N1871 N 0.89233 0.31362 0.7275 0.0
H1872 H 0.41056 0.34075 0.24126 0.0
H1873 H 0.54664 0.2602 0.20943 0.0
H1874 H 0.41534 0.2359 0.25438 0.0
H1875 H 0.57031 0.3809 0.2031 0.0
H1876 H 0.48507 0.24442 0.22111 0.0
H1877 H 0.45973 0.35181 0.22385 0.0
C1878 C 0.42211 0.32033 0.2406 0.0
C1879 C 0.40876 0.28744 0.24939 0.0
C1880 C 0.50307 0.27408 0.21684 0.0
C1881 C 0.46374 0.29914 0.22925 0.0
C1882 C 0.5377 0.28275 0.20992 0.0
C1883 C 0.5631 0.32168 0.20521 0.0
C1884 C 0.49428 0.30484 0.21923 0.0
C1885 C 0.55098 0.35032 0.20645 0.0
C1886 C 0.4498 0.32641 0.23057 0.0
C1887 C 0.42456 0.26173 0.24792 0.0
N1888 N 0.51774 0.34161 0.21359 0.0
N1889 N 0.45093 0.26805 0.23805 0.0
H1890 H 0.78419 0.2053 0.26648 0.0
H1891 H 0.68415 0.23989 0.20112 0.0
H1892 H 0.71253 0.10786 0.23928 0.0
H1893 H 0.77712 0.33389 0.22501 0.0
H1894 H 0.69367 0.19004 0.21385 0.0
H1895 H 0.77804 0.25144 0.2513 0.0
C1896 C 0.76667 0.19346 0.25735 0.0
C1897 C 0.749 0.15259 0.25415 0.0
C1898 C 0.71269 0.22167 0.21605 0.0
C1899 C 0.74235 0.20587 0.23643 0.0
C1900 C 0.70774 0.25008 0.20864 0.0
C1901 C 0.73028 0.29094 0.21197 0.0
C1902 C 0.73999 0.23452 0.22689 0.0
C1903 C 0.75952 0.30267 0.22206 0.0
C1904 C 0.7635 0.22 0.24859 0.0
C1905 C 0.72642 0.1391 0.24219 0.0
N1906 N 0.76317 0.27462 0.22925 0.0
N1907 N 0.72387 0.16576 0.23371 0.0
H1908 H 0.96488 0.6541 0.22569 0.0
H1909 H 0.73204 0.49222 0.22767 0.0
H1910 H 0.89272 0.61907 0.26137 0.0
H1911 H 0.80692 0.49069 0.19619 0.0
H1912 H 0.79016 0.54943 0.23781 0.0
H1913 H 0.90786 0.60115 0.21317 0.0
C1914 C 0.93734 0.63479 0.23095 0.0
C1915 C 0.93356 0.64101 0.24462 0.0
C1916 C 0.79393 0.53703 0.22858 0.0
C1917 C 0.8681 0.5816 0.23025 0.0
C1918 C 0.76065 0.50478 0.22268 0.0
C1919 C 0.76481 0.48661 0.21114 0.0
C1920 C 0.83184 0.55132 0.22295 0.0
C1921 C 0.80251 0.50402 0.20507 0.0
C1922 C 0.90479 0.60488 0.22376 0.0
C1923 C 0.89712 0.61532 0.25089 0.0
N1924 N 0.8349 0.53522 0.21117 0.0
N1925 N 0.86573 0.58711 0.24362 0.0
H1926 H 0.69208 0.07051 0.96153 0.0
H1927 H 0.74592 0.2914 0.94 0.0
H1928 H 0.7025 0.11275 0.92076 0.0
H1929 H 0.70368 0.24199 0.97934 0.0
H1930 H 0.75247 0.23324 0.93462 0.0
H1931 H 0.71723 0.13924 0.96951 0.0
C1932 C 0.70061 0.09439 0.95425 0.0
C1933 C 0.69462 0.08589 0.94046 0.0
C1934 C 0.74261 0.23546 0.94454 0.0
C1935 C 0.72336 0.1643 0.94952 0.0
C1936 C 0.73902 0.26873 0.94764 0.0
C1937 C 0.72363 0.27111 0.96006 0.0
C1938 C 0.73022 0.20405 0.95385 0.0
C1939 C 0.7156 0.24121 0.96964 0.0
C1940 C 0.7148 0.13353 0.95882 0.0
C1941 C 0.70614 0.11791 0.93148 0.0
N1942 N 0.71815 0.20835 0.96624 0.0
N1943 N 0.71955 0.15562 0.93617 0.0
H1944 H 0.91507 0.59691 0.91754 0.0
H1945 H 0.77967 0.47479 0.9784 0.0
H1946 H 0.95467 0.62818 0.95859 0.0
H1947 H 0.73344 0.46929 0.93838 0.0
H1948 H 0.8413 0.53623 0.97219 0.0
H1949 H 0.84651 0.55486 0.92535 0.0
C1950 C 0.90922 0.59541 0.92819 0.0
C1951 C 0.94065 0.61577 0.93743 0.0
C1952 C 0.81724 0.52214 0.96487 0.0
C1953 C 0.86225 0.56703 0.94651 0.0
C1954 C 0.78185 0.48727 0.96847 0.0
C1955 C 0.75151 0.46667 0.95886 0.0
C1956 C 0.82236 0.53606 0.95155 0.0
C1957 C 0.7563 0.48387 0.94606 0.0
C1958 C 0.87002 0.57142 0.93267 0.0
C1959 C 0.9313 0.61287 0.95112 0.0
N1960 N 0.7913 0.51706 0.94271 0.0
N1961 N 0.89306 0.58832 0.95528 0.0
H1962 H 0.45219 0.40949 0.95535 0.0
H1963 H 0.53887 0.27081 0.9427 0.0
H1964 H 0.40516 0.32022 0.92415 0.0
H1965 H 0.55209 0.32857 0.98083 0.0
H1966 H 0.48057 0.27775 0.93766 0.0
H1967 H 0.48021 0.37239 0.96669 0.0
C1968 C 0.44705 0.38143 0.95109 0.0
C1969 C 0.42666 0.36776 0.93885 0.0
C1970 C 0.49536 0.28781 0.94732 0.0
C1971 C 0.45944 0.32573 0.95148 0.0
C1972 C 0.52859 0.28369 0.95022 0.0
C1973 C 0.55077 0.29993 0.96206 0.0
C1974 C 0.48501 0.30927 0.95618 0.0
C1975 C 0.53605 0.31603 0.97151 0.0
C1976 C 0.4629 0.36018 0.95756 0.0
C1977 C 0.42077 0.33151 0.93362 0.0
N1978 N 0.50477 0.32145 0.96818 0.0
N1979 N 0.4379 0.31211 0.93982 0.0
H1980 H 0.63422 0.68491 0.79762 0.0
H1981 H 0.413 0.63793 0.77877 0.0
H1982 H 0.59428 0.68915 0.75733 0.0
H1983 H 0.46364 0.6733 0.81854 0.0
H1984 H 0.47402 0.63985 0.77155 0.0
H1985 H 0.56734 0.66515 0.80586 0.0
C1986 C 0.61123 0.68109 0.79045 0.0
C1987 C 0.61999 0.68894 0.77673 0.0
C1988 C 0.47164 0.64664 0.7819 0.0
C1989 C 0.54328 0.66617 0.78617 0.0
C1990 C 0.43669 0.64537 0.78608 0.0
C1991 C 0.43326 0.65591 0.79928 0.0
C1992 C 0.50365 0.65846 0.79095 0.0
C1993 C 0.46485 0.66485 0.80831 0.0
C1994 C 0.57311 0.66996 0.79521 0.0
C1995 C 0.58898 0.68358 0.76797 0.0
N1996 N 0.499 0.66641 0.80393 0.0
N1997 N 0.55206 0.67266 0.77285 0.0
H1998 H 0.369 0.96886 0.76871 0.0
H1999 H 0.3297 0.79344 0.82051 0.0
H2000 H 0.25275 0.88499 0.78452 0.0
H2001 H 0.41277 0.82577 0.78792 0.0
H2002 H 0.31542 0.84626 0.81332 0.0
H2003 H 0.39756 0.93333 0.78114 0.0
C2004 C 0.34961 0.94323 0.77488 0.0
C2005 C 0.30836 0.92938 0.77544 0.0
C2006 C 0.33773 0.84256 0.80803 0.0
C2007 C 0.34096 0.88984 0.78996 0.0
C2008 C 0.34632 0.8129 0.81224 0.0
C2009 C 0.37232 0.80528 0.80475 0.0
C2010 C 0.35591 0.86507 0.79644 0.0
C2011 C 0.39249 0.8308 0.79393 0.0
C2012 C 0.36592 0.92315 0.78197 0.0
C2013 C 0.28457 0.89617 0.78363 0.0
N2014 N 0.38356 0.85934 0.78999 0.0
N2015 N 0.30121 0.87758 0.79059 0.0
H2016 H 0.06986 0.42665 0.7663 0.0
H2017 H 0.24011 0.56238 0.81973 0.0
H2018 H 0.15062 0.39307 0.78473 0.0
H2019 H 0.21066 0.61389 0.78599 0.0
H2020 H 0.18843 0.49534 0.81225 0.0
H2021 H 0.10495 0.49128 0.77828 0.0
C2022 C 0.09473 0.43277 0.77293 0.0
C2023 C 0.10782 0.40483 0.77438 0.0
C2024 C 0.19261 0.52149 0.80672 0.0
C2025 C 0.14684 0.47757 0.78838 0.0
C2026 C 0.22168 0.55973 0.81108 0.0
C2027 C 0.22985 0.59361 0.80338 0.0
C2028 C 0.1712 0.51735 0.79477 0.0
C2029 C 0.20541 0.58841 0.79214 0.0
C2030 C 0.11457 0.46946 0.77976 0.0
C2031 C 0.14004 0.41409 0.78315 0.0
N2032 N 0.17742 0.55092 0.78807 0.0
N2033 N 0.15838 0.4496 0.78984 0.0
H2034 H 0.35475 0.96566 0.06835 0.0
H2035 H 0.44113 0.81697 0.05955 0.0
H2036 H 0.46577 0.98504 0.08605 0.0
H2037 H 0.34191 0.80587 0.03592 0.0
H2038 H 0.4521 0.88071 0.0684 0.0
H2039 H 0.34891 0.90756 0.05624 0.0
C2040 C 0.37769 0.95757 0.0698 0.0
C2041 C 0.41074 0.98035 0.07831 0.0
C2042 C 0.42836 0.86492 0.06108 0.0
C2043 C 0.40449 0.91422 0.06431 0.0
C2044 C 0.42244 0.82875 0.05591 0.0
C2045 C 0.39097 0.80655 0.04687 0.0
C2046 C 0.40194 0.87865 0.05746 0.0
C2047 C 0.36697 0.82257 0.0427 0.0
C2048 C 0.37454 0.92464 0.06276 0.0
C2049 C 0.43974 0.96858 0.07963 0.0
N2050 N 0.37253 0.85742 0.04819 0.0
N2051 N 0.43587 0.93645 0.07276 0.0
H2052 H 0.06619 0.46229 0.09119 0.0
H2053 H 0.22032 0.56636 0.03049 0.0
H2054 H 0.05976 0.40025 0.05454 0.0
H2055 H 0.22481 0.62529 0.06763 0.0
H2056 H 0.15843 0.50678 0.03808 0.0
H2057 H 0.12323 0.52303 0.08218 0.0
C2058 C 0.07705 0.46128 0.08131 0.0
C2059 C 0.05822 0.42598 0.07366 0.0
C2060 C 0.17274 0.533 0.04447 0.0
C2061 C 0.12328 0.49585 0.06312 0.0
C2062 C 0.20775 0.56718 0.04005 0.0
C2063 C 0.22785 0.60076 0.04846 0.0
C2064 C 0.15787 0.5326 0.05736 0.0
C2065 C 0.21049 0.59995 0.06086 0.0
C2066 C 0.10947 0.49611 0.07611 0.0
C2067 C 0.07345 0.42669 0.06084 0.0
N2068 N 0.17686 0.56643 0.06496 0.0
N2069 N 0.10498 0.46102 0.05597 0.0
H2070 H 0.58407 0.63937 0.08866 0.0
H2071 H 0.46377 0.67412 0.02871 0.0
H2072 H 0.63529 0.68314 0.04966 0.0
H2073 H 0.41364 0.62322 0.06724 0.0
H2074 H 0.52557 0.67438 0.03534 0.0
H2075 H 0.52112 0.63292 0.08059 0.0
C2076 C 0.58225 0.64807 0.07844 0.0
C2077 C 0.61514 0.66199 0.06987 0.0
C2078 C 0.50077 0.66263 0.04225 0.0
C2079 C 0.54264 0.65405 0.06041 0.0
C2080 C 0.4653 0.66198 0.03839 0.0
C2081 C 0.43355 0.64876 0.04745 0.0
C2082 C 0.50435 0.65004 0.05524 0.0
C2083 C 0.43747 0.63397 0.05996 0.0
C2084 C 0.54611 0.64406 0.07377 0.0
C2085 C 0.61078 0.67245 0.05665 0.0
N2086 N 0.47223 0.63538 0.06351 0.0
N2087 N 0.57522 0.66825 0.05233 0.0
H2088 H 0.05517 0.5567 0.59318 0.0
H2089 H 0.22622 0.67292 0.53849 0.0
H2090 H 0.06396 0.65611 0.57006 0.0
H2091 H 0.22672 0.59114 0.56814 0.0
H2092 H 0.16113 0.66016 0.54707 0.0
H2093 H 0.11353 0.56361 0.58178 0.0
C2094 C 0.06953 0.58023 0.58574 0.0
C2095 C 0.0546 0.60598 0.58263 0.0
C2096 C 0.17524 0.64453 0.55151 0.0
C2097 C 0.12177 0.61382 0.56934 0.0
C2098 C 0.21196 0.65131 0.54649 0.0
C2099 C 0.23157 0.6329 0.55263 0.0
C2100 C 0.15823 0.61893 0.56262 0.0
C2101 C 0.21244 0.60585 0.56315 0.0
C2102 C 0.10289 0.58407 0.57918 0.0
C2103 C 0.07467 0.63588 0.57288 0.0
N2104 N 0.17704 0.59988 0.56785 0.0
N2105 N 0.10723 0.63893 0.56654 0.0
H2106 H 0.36798 0.40918 0.5699 0.0
H2107 H 0.45473 0.64505 0.56014 0.0
H2108 H 0.47391 0.50261 0.58959 0.0
H2109 H 0.34898 0.55612 0.53942 0.0
H2110 H 0.46664 0.59214 0.5685 0.0
H2111 H 0.36239 0.46113 0.55715 0.0
C2112 C 0.38984 0.44047 0.57163 0.0
C2113 C 0.42139 0.45139 0.58089 0.0
C2114 C 0.44124 0.58402 0.56189 0.0
C2115 C 0.41562 0.51079 0.56616 0.0
C2116 C 0.43488 0.61437 0.55696 0.0
C2117 C 0.40128 0.60482 0.54895 0.0
C2118 C 0.41313 0.54365 0.55908 0.0
C2119 C 0.37569 0.56457 0.54539 0.0
C2120 C 0.38686 0.47007 0.56425 0.0
C2121 C 0.44906 0.49248 0.58258 0.0
N2122 N 0.38174 0.53524 0.55067 0.0
N2123 N 0.44549 0.52046 0.57532 0.0
H2124 H 0.57149 0.96333 0.59763 0.0
H2125 H 0.4614 0.81581 0.53541 0.0
H2126 H 0.62519 0.98144 0.5586 0.0
H2127 H 0.41126 0.80039 0.57491 0.0
H2128 H 0.51967 0.87928 0.5429 0.0
H2129 H 0.51176 0.90419 0.58904 0.0
C2130 C 0.57095 0.95456 0.58729 0.0
C2131 C 0.60348 0.97732 0.57885 0.0
C2132 C 0.49562 0.86219 0.54985 0.0
C2133 C 0.53468 0.9099 0.56881 0.0
C2134 C 0.46217 0.82629 0.54552 0.0
C2135 C 0.43167 0.80275 0.55459 0.0
C2136 C 0.49826 0.8744 0.56329 0.0
C2137 C 0.43432 0.81744 0.56763 0.0
C2138 C 0.53664 0.92094 0.58234 0.0
C2139 C 0.60087 0.96465 0.56549 0.0
N2140 N 0.46712 0.85202 0.57161 0.0
N2141 N 0.56702 0.93187 0.56087 0.0
H2142 H 0.34812 0.3908 0.29617 0.0
H2143 H 0.29777 0.56094 0.2734 0.0
H2144 H 0.30045 0.39576 0.25728 0.0
H2145 H 0.3437 0.55849 0.31284 0.0
H2146 H 0.29547 0.49826 0.26804 0.0
H2147 H 0.34604 0.45096 0.30282 0.0
C2148 C 0.3376 0.40474 0.28897 0.0
C2149 C 0.3246 0.38821 0.2761 0.0
C2150 C 0.30576 0.51106 0.27793 0.0
C2151 C 0.32157 0.45682 0.28375 0.0
C2152 C 0.30688 0.54686 0.28103 0.0
C2153 C 0.32113 0.56518 0.29358 0.0
C2154 C 0.31933 0.49323 0.28737 0.0
C2155 C 0.33234 0.54535 0.30307 0.0
C2156 C 0.33616 0.43895 0.29282 0.0
C2157 C 0.31096 0.40744 0.26727 0.0
N2158 N 0.33163 0.51063 0.29972 0.0
N2159 N 0.30976 0.44056 0.27126 0.0
H2160 H 0.64448 0.97976 0.29696 0.0
H2161 H 0.47838 0.75868 0.27351 0.0
H2162 H 0.63893 0.93126 0.2576 0.0
H2163 H 0.48058 0.80377 0.31318 0.0
H2164 H 0.53954 0.82074 0.26822 0.0
H2165 H 0.58568 0.91608 0.30342 0.0
C2166 C 0.63064 0.95592 0.28961 0.0
C2167 C 0.64667 0.96103 0.27667 0.0
C2168 C 0.52701 0.81714 0.27813 0.0
C2169 C 0.57964 0.88769 0.28411 0.0
C2170 C 0.49212 0.78149 0.28121 0.0
C2171 C 0.47413 0.77599 0.29381 0.0
C2172 C 0.54427 0.84807 0.28766 0.0
C2173 C 0.49348 0.80663 0.30337 0.0
C2174 C 0.59722 0.91944 0.29335 0.0
C2175 C 0.6276 0.92889 0.26764 0.0
N2176 N 0.52731 0.84158 0.30005 0.0
N2177 N 0.59528 0.89369 0.27154 0.0
H2178 H 0.16343 0.80999 0.26071 0.0
H2179 H 0.23329 0.693 0.31085 0.0
H2180 H 0.07787 0.70821 0.28381 0.0
H2181 H 0.30021 0.76071 0.27641 0.0
H2182 H 0.17919 0.70668 0.30436 0.0
H2183 H 0.21683 0.79988 0.26946 0.0
C2184 C 0.15578 0.78536 0.26761 0.0
C2185 C 0.11595 0.75975 0.27145 0.0
C2186 C 0.20597 0.7188 0.29835 0.0
C2187 C 0.1775 0.74831 0.2817 0.0
C2188 C 0.23692 0.71143 0.30213 0.0
C2189 C 0.27111 0.72575 0.29412 0.0
C2190 C 0.20989 0.74122 0.28668 0.0
C2191 C 0.27425 0.749 0.28282 0.0
C2192 C 0.18639 0.77964 0.27262 0.0
C2193 C 0.10808 0.72839 0.28046 0.0
N2194 N 0.24412 0.75598 0.27945 0.0
N2195 N 0.13865 0.72361 0.28534 0.0
loop_
_geom_bond_atom_site_label_1
_geom_bond_atom_site_label_2
_geom_bond_distance
_geom_bond_site_symmetry_2
_ccdc_geom_bond_type
Mn0 O5 2.095 . S
Mn0 O15 2.162 1_545 S
Mn0 O16 2.297 1_545 S
Mn0 O24 2.385 1_545 S
Mn0 O25 2.209 . S
Mn0 O26 2.094 1_545 S
Mn1 O6 2.121 . S
Mn1 N8 2.257 . S
Mn1 N17 2.282 . S
Mn1 O25 2.215 . S
Mn1 O27 2.117 . S
C2 O24 1.234 1_545 S
C2 O25 1.283 . S
C3 O15 1.281 . S
C3 O16 1.236 . S
C4 O26 1.240 1_545 S
C4 O27 1.264 . S
O5 Mn0 2.095 . S
O5 C14 1.250 . S
O6 Mn1 2.121 . S
O6 C14 1.258 . S
C7 N8 1.326 . S
C7 C11 1.460 . S
C7 H13 0.929 . S
N8 Mn1 2.257 . S
N8 C7 1.326 . S
N8 C12 1.362 . S
C9 C10 1.258 . S
C9 C12 1.431 . S
C9 C29 1.449 . S
C10 C9 1.258 . S
C10 C11 1.477 . S
C10 H30 0.931 . S
C11 C7 1.460 . S
C11 C10 1.477 . S
C11 H31 0.930 . S
C12 N8 1.362 . S
C12 C9 1.431 . S
C12 C22 1.476 . S
H13 C7 0.929 . S
C14 O5 1.250 . S
C14 O6 1.258 . S
O15 Mn0 2.162 1_565 S
O15 C3 1.281 . S
O16 Mn0 2.297 1_565 S
O16 C3 1.236 . S
N17 Mn1 2.282 . S
N17 C18 1.328 . S
N17 C22 1.318 . S
C18 N17 1.328 . S
C18 C19 1.457 . S
C18 H23 0.929 . S
C19 C18 1.457 . S
C19 C20 1.291 . S
C19 H32 0.931 . S
C20 C19 1.291 . S
C20 C21 1.373 . S
C20 H33 0.929 . S
C21 C20 1.373 . S
C21 C22 1.396 . S
C21 C28 1.403 . S
C22 C12 1.476 . S
C22 N17 1.318 . S
C22 C21 1.396 . S
H23 C18 0.929 . S
O24 Mn0 2.385 1_565 S
O24 C2 1.234 1_565 S
O25 Mn0 2.209 . S
O25 Mn1 2.215 . S
O25 C2 1.283 . S
O26 Mn0 2.094 1_565 S
O26 C4 1.240 1_565 S
O27 Mn1 2.117 . S
O27 C4 1.264 . S
C28 C21 1.403 . S
C28 C29 1.399 . S
C28 H34 0.929 . S
C29 C9 1.449 . S
C29 C28 1.399 . S
C29 H35 0.930 . S
H30 C10 0.931 . S
H31 C11 0.930 . S
H32 C19 0.931 . S
H33 C20 0.929 . S
H34 C28 0.929 . S
H35 C29 0.930 . S
Mn36 O41 2.095 . S
Mn36 O51 2.162 1_455 S
Mn36 O52 2.297 1_455 S
Mn36 O60 2.385 1_455 S
Mn36 O61 2.209 . S
Mn36 O62 2.094 1_455 S
Mn37 O42 2.121 . S
Mn37 N44 2.257 . S
Mn37 N53 2.282 . S
Mn37 O61 2.215 . S
Mn37 O63 2.117 . S
C38 O60 1.234 1_455 S
C38 O61 1.283 . S
C39 O51 1.281 . S
C39 O52 1.236 . S
C40 O62 1.240 1_455 S
C40 O63 1.264 . S
O41 Mn36 2.095 . S
O41 C50 1.250 . S
O42 Mn37 2.121 . S
O42 C50 1.258 . S
C43 N44 1.326 . S
C43 C47 1.460 . S
C43 H49 0.929 . S
N44 Mn37 2.257 . S
N44 C43 1.326 . S
N44 C48 1.362 . S
C45 C46 1.258 . S
C45 C48 1.431 . S
C45 C65 1.449 . S
C46 C45 1.258 . S
C46 C47 1.477 . S
C46 H66 0.931 . S
C47 C43 1.460 . S
C47 C46 1.477 . S
C47 H67 0.930 . S
C48 N44 1.362 . S
C48 C45 1.431 . S
C48 C58 1.476 . S
H49 C43 0.929 . S
C50 O41 1.250 . S
C50 O42 1.258 . S
O51 Mn36 2.162 1_655 S
O51 C39 1.281 . S
O52 Mn36 2.297 1_655 S
O52 C39 1.236 . S
N53 Mn37 2.282 . S
N53 C54 1.328 . S
N53 C58 1.318 . S
C54 N53 1.328 . S
C54 C55 1.457 . S
C54 H59 0.929 . S
C55 C54 1.457 . S
C55 C56 1.291 . S
C55 H68 0.931 . S
C56 C55 1.291 . S
C56 C57 1.373 . S
C56 H69 0.929 . S
C57 C56 1.373 . S
C57 C58 1.396 . S
C57 C64 1.403 . S
C58 C48 1.476 . S
C58 N53 1.318 . S
C58 C57 1.396 . S
H59 C54 0.929 . S
O60 Mn36 2.385 1_655 S
O60 C38 1.234 1_655 S
O61 Mn36 2.209 . S
O61 Mn37 2.215 . S
O61 C38 1.283 . S
O62 Mn36 2.094 1_655 S
O62 C40 1.240 1_655 S
O63 Mn37 2.117 . S
O63 C40 1.264 . S
C64 C57 1.403 . S
C64 C65 1.399 . S
C64 H70 0.929 . S
C65 C45 1.449 . S
C65 C64 1.399 . S
C65 H71 0.930 . S
H66 C46 0.931 . S
H67 C47 0.930 . S
H68 C55 0.931 . S
H69 C56 0.929 . S
H70 C64 0.929 . S
H71 C65 0.930 . S
Mn72 O77 2.095 . S
Mn72 O87 2.162 . S
Mn72 O88 2.297 . S
Mn72 O96 2.385 . S
Mn72 O97 2.209 . S
Mn72 O98 2.094 . S
Mn73 O78 2.121 . S
Mn73 N80 2.257 . S
Mn73 N89 2.282 . S
Mn73 O97 2.215 . S
Mn73 O99 2.117 . S
C74 O96 1.234 . S
C74 O97 1.283 . S
C75 O87 1.281 . S
C75 O88 1.236 . S
C76 O98 1.240 . S
C76 O99 1.264 . S
O77 Mn72 2.095 . S
O77 C86 1.250 . S
O78 Mn73 2.121 . S
O78 C86 1.258 . S
C79 N80 1.326 . S
C79 C83 1.460 . S
C79 H85 0.929 . S
N80 Mn73 2.257 . S
N80 C79 1.326 . S
N80 C84 1.362 . S
C81 C82 1.258 . S
C81 C84 1.431 . S
C81 C101 1.449 . S
C82 C81 1.258 . S
C82 C83 1.477 . S
C82 H102 0.931 . S
C83 C79 1.460 . S
C83 C82 1.477 . S
C83 H103 0.930 . S
C84 N80 1.362 . S
C84 C81 1.431 . S
C84 C94 1.476 . S
H85 C79 0.929 . S
C86 O77 1.250 . S
C86 O78 1.258 . S
O87 Mn72 2.162 . S
O87 C75 1.281 . S
O88 Mn72 2.297 . S
O88 C75 1.236 . S
N89 Mn73 2.282 . S
N89 C90 1.328 . S
N89 C94 1.318 . S
C90 N89 1.328 . S
C90 C91 1.457 . S
C90 H95 0.929 . S
C91 C90 1.457 . S
C91 C92 1.291 . S
C91 H104 0.931 . S
C92 C91 1.291 . S
C92 C93 1.373 . S
C92 H105 0.929 . S
C93 C92 1.373 . S
C93 C94 1.396 . S
C93 C100 1.403 . S
C94 C84 1.476 . S
C94 N89 1.318 . S
C94 C93 1.396 . S
H95 C90 0.929 . S
O96 Mn72 2.385 . S
O96 C74 1.234 . S
O97 Mn72 2.209 . S
O97 Mn73 2.215 . S
O97 C74 1.283 . S
O98 Mn72 2.094 . S
O98 C76 1.240 . S
O99 Mn73 2.117 . S
O99 C76 1.264 . S
C100 C93 1.403 . S
C100 C101 1.399 . S
C100 H106 0.929 . S
C101 C81 1.449 . S
C101 C100 1.399 . S
C101 H107 0.930 . S
H102 C82 0.931 . S
H103 C83 0.930 . S
H104 C91 0.931 . S
H105 C92 0.929 . S
H106 C100 0.929 . S
H107 C101 0.930 . S
Mn108 O113 2.095 1_545 S
Mn108 O123 2.162 . S
Mn108 O124 2.297 . S
Mn108 O132 2.385 . S
Mn108 O133 2.209 1_545 S
Mn108 O134 2.094 . S
Mn109 O114 2.121 . S
Mn109 N116 2.257 . S
Mn109 N125 2.282 . S
Mn109 O133 2.215 . S
Mn109 O135 2.117 . S
C110 O132 1.234 . S
C110 O133 1.283 1_545 S
C111 O123 1.281 . S
C111 O124 1.236 . S
C112 O134 1.240 . S
C112 O135 1.264 1_545 S
O113 Mn108 2.095 1_565 S
O113 C122 1.250 . S
O114 Mn109 2.121 . S
O114 C122 1.258 . S
C115 N116 1.326 . S
C115 C119 1.460 . S
C115 H121 0.929 . S
N116 Mn109 2.257 . S
N116 C115 1.326 . S
N116 C120 1.362 . S
C117 C118 1.258 . S
C117 C120 1.431 . S
C117 C137 1.449 . S
C118 C117 1.258 . S
C118 C119 1.477 . S
C118 H138 0.931 . S
C119 C115 1.460 . S
C119 C118 1.477 . S
C119 H139 0.930 . S
C120 N116 1.362 . S
C120 C117 1.431 . S
C120 C130 1.476 . S
H121 C115 0.929 . S
C122 O113 1.250 . S
C122 O114 1.258 . S
O123 Mn108 2.162 . S
O123 C111 1.281 . S
O124 Mn108 2.297 . S
O124 C111 1.236 . S
N125 Mn109 2.282 . S
N125 C126 1.328 . S
N125 C130 1.318 . S
C126 N125 1.328 . S
C126 C127 1.457 . S
C126 H131 0.929 . S
C127 C126 1.457 . S
C127 C128 1.291 . S
C127 H140 0.931 . S
C128 C127 1.291 . S
C128 C129 1.373 . S
C128 H141 0.929 . S
C129 C128 1.373 . S
C129 C130 1.396 . S
C129 C136 1.403 . S
C130 C120 1.476 . S
C130 N125 1.318 . S
C130 C129 1.396 . S
H131 C126 0.929 . S
O132 Mn108 2.385 . S
O132 C110 1.234 . S
O133 Mn108 2.209 1_565 S
O133 Mn109 2.215 . S
O133 C110 1.283 1_565 S
O134 Mn108 2.094 . S
O134 C112 1.240 . S
O135 Mn109 2.117 . S
O135 C112 1.264 1_565 S
C136 C129 1.403 . S
C136 C137 1.399 . S
C136 H142 0.929 . S
C137 C117 1.449 . S
C137 C136 1.399 . S
C137 H143 0.930 . S
H138 C118 0.931 . S
H139 C119 0.930 . S
H140 C127 0.931 . S
H141 C128 0.929 . S
H142 C136 0.929 . S
H143 C137 0.930 . S
Mn144 O149 2.095 . S
Mn144 O159 2.162 1_455 S
Mn144 O160 2.297 1_455 S
Mn144 O168 2.385 1_455 S
Mn144 O169 2.209 . S
Mn144 O170 2.094 1_455 S
Mn145 O150 2.121 . S
Mn145 N152 2.257 . S
Mn145 N161 2.282 . S
Mn145 O169 2.215 . S
Mn145 O171 2.117 . S
C146 O168 1.234 1_455 S
C146 O169 1.283 . S
C147 O159 1.281 . S
C147 O160 1.236 . S
C148 O170 1.240 1_455 S
C148 O171 1.264 . S
O149 Mn144 2.095 . S
O149 C158 1.250 . S
O150 Mn145 2.121 . S
O150 C158 1.258 . S
C151 N152 1.326 . S
C151 C155 1.460 . S
C151 H157 0.929 . S
N152 Mn145 2.257 . S
N152 C151 1.326 . S
N152 C156 1.362 . S
C153 C154 1.258 . S
C153 C156 1.431 . S
C153 C173 1.449 . S
C154 C153 1.258 . S
C154 C155 1.477 . S
C154 H174 0.931 . S
C155 C151 1.460 . S
C155 C154 1.477 . S
C155 H175 0.930 . S
C156 N152 1.362 . S
C156 C153 1.431 . S
C156 C166 1.476 . S
H157 C151 0.929 . S
C158 O149 1.250 . S
C158 O150 1.258 . S
O159 Mn144 2.162 1_655 S
O159 C147 1.281 . S
O160 Mn144 2.297 1_655 S
O160 C147 1.236 . S
N161 Mn145 2.282 . S
N161 C162 1.328 . S
N161 C166 1.318 . S
C162 N161 1.328 . S
C162 C163 1.457 . S
C162 H167 0.929 . S
C163 C162 1.457 . S
C163 C164 1.291 . S
C163 H176 0.931 . S
C164 C163 1.291 . S
C164 C165 1.373 . S
C164 H177 0.929 . S
C165 C164 1.373 . S
C165 C166 1.396 . S
C165 C172 1.403 . S
C166 C156 1.476 . S
C166 N161 1.318 . S
C166 C165 1.396 . S
H167 C162 0.929 . S
O168 Mn144 2.385 1_655 S
O168 C146 1.234 1_655 S
O169 Mn144 2.209 . S
O169 Mn145 2.215 . S
O169 C146 1.283 . S
O170 Mn144 2.094 1_655 S
O170 C148 1.240 1_655 S
O171 Mn145 2.117 . S
O171 C148 1.264 . S
C172 C165 1.403 . S
C172 C173 1.399 . S
C172 H178 0.929 . S
C173 C153 1.449 . S
C173 C172 1.399 . S
C173 H179 0.930 . S
H174 C154 0.931 . S
H175 C155 0.930 . S
H176 C163 0.931 . S
H177 C164 0.929 . S
H178 C172 0.929 . S
H179 C173 0.930 . S
Mn180 O185 2.095 . S
Mn180 O195 2.162 . S
Mn180 O196 2.297 . S
Mn180 O204 2.385 . S
Mn180 O205 2.209 . S
Mn180 O206 2.094 . S
Mn181 O186 2.121 . S
Mn181 N188 2.257 . S
Mn181 N197 2.282 . S
Mn181 O205 2.215 . S
Mn181 O207 2.117 . S
C182 O204 1.234 . S
C182 O205 1.283 . S
C183 O195 1.281 . S
C183 O196 1.236 . S
C184 O206 1.240 . S
C184 O207 1.264 . S
O185 Mn180 2.095 . S
O185 C194 1.250 . S
O186 Mn181 2.121 . S
O186 C194 1.258 . S
C187 N188 1.326 . S
C187 C191 1.460 . S
C187 H193 0.929 . S
N188 Mn181 2.257 . S
N188 C187 1.326 . S
N188 C192 1.362 . S
C189 C190 1.258 . S
C189 C192 1.431 . S
C189 C209 1.449 . S
C190 C189 1.258 . S
C190 C191 1.477 . S
C190 H210 0.931 . S
C191 C187 1.460 . S
C191 C190 1.477 . S
C191 H211 0.930 . S
C192 N188 1.362 . S
C192 C189 1.431 . S
C192 C202 1.476 . S
H193 C187 0.929 . S
C194 O185 1.250 . S
C194 O186 1.258 . S
O195 Mn180 2.162 . S
O195 C183 1.281 . S
O196 Mn180 2.297 . S
O196 C183 1.236 . S
N197 Mn181 2.282 . S
N197 C198 1.328 . S
N197 C202 1.318 . S
C198 N197 1.328 . S
C198 C199 1.457 . S
C198 H203 0.929 . S
C199 C198 1.457 . S
C199 C200 1.291 . S
C199 H212 0.931 . S
C200 C199 1.291 . S
C200 C201 1.373 . S
C200 H213 0.929 . S
C201 C200 1.373 . S
C201 C202 1.396 . S
C201 C208 1.403 . S
C202 C192 1.476 . S
C202 N197 1.318 . S
C202 C201 1.396 . S
H203 C198 0.929 . S
O204 Mn180 2.385 . S
O204 C182 1.234 . S
O205 Mn180 2.209 . S
O205 Mn181 2.215 . S
O205 C182 1.283 . S
O206 Mn180 2.094 . S
O206 C184 1.240 . S
O207 Mn181 2.117 . S
O207 C184 1.264 . S
C208 C201 1.403 . S
C208 C209 1.399 . S
C208 H214 0.929 . S
C209 C189 1.449 . S
C209 C208 1.399 . S
C209 H215 0.930 . S
H210 C190 0.931 . S
H211 C191 0.930 . S
H212 C199 0.931 . S
H213 C200 0.929 . S
H214 C208 0.929 . S
H215 C209 0.930 . S
Mn216 O221 2.095 . S
Mn216 O231 2.162 . S
Mn216 O232 2.297 . S
Mn216 O240 2.385 . S
Mn216 O241 2.209 . S
Mn216 O242 2.094 . S
Mn217 O222 2.121 . S
Mn217 N224 2.257 . S
Mn217 N233 2.282 . S
Mn217 O241 2.215 . S
Mn217 O243 2.117 . S
C218 O240 1.234 . S
C218 O241 1.283 . S
C219 O231 1.281 . S
C219 O232 1.236 . S
C220 O242 1.240 . S
C220 O243 1.264 . S
O221 Mn216 2.095 . S
O221 C230 1.250 . S
O222 Mn217 2.121 . S
O222 C230 1.258 . S
C223 N224 1.326 . S
C223 C227 1.460 . S
C223 H229 0.929 . S
N224 Mn217 2.257 . S
N224 C223 1.326 . S
N224 C228 1.362 . S
C225 C226 1.258 . S
C225 C228 1.431 . S
C225 C245 1.449 . S
C226 C225 1.258 . S
C226 C227 1.477 . S
C226 H246 0.931 . S
C227 C223 1.460 . S
C227 C226 1.477 . S
C227 H247 0.930 . S
C228 N224 1.362 . S
C228 C225 1.431 . S
C228 C238 1.476 . S
H229 C223 0.929 . S
C230 O221 1.250 . S
C230 O222 1.258 . S
O231 Mn216 2.162 . S
O231 C219 1.281 . S
O232 Mn216 2.297 . S
O232 C219 1.236 . S
N233 Mn217 2.282 . S
N233 C234 1.328 . S
N233 C238 1.318 . S
C234 N233 1.328 . S
C234 C235 1.457 . S
C234 H239 0.929 . S
C235 C234 1.457 . S
C235 C236 1.291 . S
C235 H248 0.931 . S
C236 C235 1.291 . S
C236 C237 1.373 . S
C236 H249 0.929 . S
C237 C236 1.373 . S
C237 C238 1.396 . S
C237 C244 1.403 . S
C238 C228 1.476 . S
C238 N233 1.318 . S
C238 C237 1.396 . S
H239 C234 0.929 . S
O240 Mn216 2.385 . S
O240 C218 1.234 . S
O241 Mn216 2.209 . S
O241 Mn217 2.215 . S
O241 C218 1.283 . S
O242 Mn216 2.094 . S
O242 C220 1.240 . S
O243 Mn217 2.117 . S
O243 C220 1.264 . S
C244 C237 1.403 . S
C244 C245 1.399 . S
C244 H250 0.929 . S
C245 C225 1.449 . S
C245 C244 1.399 . S
C245 H251 0.930 . S
H246 C226 0.931 . S
H247 C227 0.930 . S
H248 C235 0.931 . S
H249 C236 0.929 . S
H250 C244 0.929 . S
H251 C245 0.930 . S
Mn252 O257 2.095 . S
Mn252 O267 2.162 . S
Mn252 O268 2.297 . S
Mn252 O276 2.385 . S
Mn252 O277 2.209 . S
Mn252 O278 2.094 . S
Mn253 O258 2.121 . S
Mn253 N260 2.257 . S
Mn253 N269 2.282 . S
Mn253 O277 2.215 . S
Mn253 O279 2.117 . S
C254 O276 1.234 . S
C254 O277 1.283 . S
C255 O267 1.281 1_565 S
C255 O268 1.236 1_565 S
C256 O278 1.240 . S
C256 O279 1.264 . S
O257 Mn252 2.095 . S
O257 C266 1.250 . S
O258 Mn253 2.121 . S
O258 C266 1.258 . S
C259 N260 1.326 . S
C259 C263 1.460 . S
C259 H265 0.929 . S
N260 Mn253 2.257 . S
N260 C259 1.326 . S
N260 C264 1.362 . S
C261 C262 1.258 . S
C261 C264 1.431 . S
C261 C281 1.449 . S
C262 C261 1.258 . S
C262 C263 1.477 . S
C262 H282 0.931 . S
C263 C259 1.460 . S
C263 C262 1.477 . S
C263 H283 0.930 . S
C264 N260 1.362 . S
C264 C261 1.431 . S
C264 C274 1.476 . S
H265 C259 0.929 . S
C266 O257 1.250 . S
C266 O258 1.258 . S
O267 Mn252 2.162 . S
O267 C255 1.281 1_545 S
O268 Mn252 2.297 . S
O268 C255 1.236 1_545 S
N269 Mn253 2.282 . S
N269 C270 1.328 . S
N269 C274 1.318 . S
C270 N269 1.328 . S
C270 C271 1.457 . S
C270 H275 0.929 . S
C271 C270 1.457 . S
C271 C272 1.291 . S
C271 H284 0.931 . S
C272 C271 1.291 . S
C272 C273 1.373 . S
C272 H285 0.929 . S
C273 C272 1.373 . S
C273 C274 1.396 . S
C273 C280 1.403 . S
C274 C264 1.476 . S
C274 N269 1.318 . S
C274 C273 1.396 . S
H275 C270 0.929 . S
O276 Mn252 2.385 . S
O276 C254 1.234 . S
O277 Mn252 2.209 . S
O277 Mn253 2.215 . S
O277 C254 1.283 . S
O278 Mn252 2.094 . S
O278 C256 1.240 . S
O279 Mn253 2.117 . S
O279 C256 1.264 . S
C280 C273 1.403 . S
C280 C281 1.399 . S
C280 H286 0.929 . S
C281 C261 1.449 . S
C281 C280 1.399 . S
C281 H287 0.930 . S
H282 C262 0.931 . S
H283 C263 0.930 . S
H284 C271 0.931 . S
H285 C272 0.929 . S
H286 C280 0.929 . S
H287 C281 0.930 . S
Mn288 O293 2.095 1_655 S
Mn288 O303 2.162 . S
Mn288 O304 2.297 . S
Mn288 O312 2.385 . S
Mn288 O313 2.209 . S
Mn288 O314 2.094 . S
Mn289 O294 2.121 1_655 S
Mn289 N296 2.257 . S
Mn289 N305 2.282 . S
Mn289 O313 2.215 . S
Mn289 O315 2.117 . S
C290 O312 1.234 . S
C290 O313 1.283 . S
C291 O303 1.281 . S
C291 O304 1.236 . S
C292 O314 1.240 . S
C292 O315 1.264 . S
O293 Mn288 2.095 1_455 S
O293 C302 1.250 . S
O294 Mn289 2.121 1_455 S
O294 C302 1.258 . S
C295 N296 1.326 1_455 S
C295 C299 1.460 . S
C295 H301 0.929 . S
N296 Mn289 2.257 . S
N296 C295 1.326 1_655 S
N296 C300 1.362 . S
C297 C298 1.258 . S
C297 C300 1.431 . S
C297 C317 1.449 . S
C298 C297 1.258 . S
C298 C299 1.477 1_655 S
C298 H318 0.931 1_655 S
C299 C295 1.460 . S
C299 C298 1.477 1_455 S
C299 H319 0.930 . S
C300 N296 1.362 . S
C300 C297 1.431 . S
C300 C310 1.476 . S
H301 C295 0.929 . S
C302 O293 1.250 . S
C302 O294 1.258 . S
O303 Mn288 2.162 . S
O303 C291 1.281 . S
O304 Mn288 2.297 . S
O304 C291 1.236 . S
N305 Mn289 2.282 . S
N305 C306 1.328 . S
N305 C310 1.318 . S
C306 N305 1.328 . S
C306 C307 1.457 . S
C306 H311 0.929 . S
C307 C306 1.457 . S
C307 C308 1.291 . S
C307 H320 0.931 . S
C308 C307 1.291 . S
C308 C309 1.373 . S
C308 H321 0.929 . S
C309 C308 1.373 . S
C309 C310 1.396 . S
C309 C316 1.403 . S
C310 C300 1.476 . S
C310 N305 1.318 . S
C310 C309 1.396 . S
H311 C306 0.929 . S
O312 Mn288 2.385 . S
O312 C290 1.234 . S
O313 Mn288 2.209 . S
O313 Mn289 2.215 . S
O313 C290 1.283 . S
O314 Mn288 2.094 . S
O314 C292 1.240 . S
O315 Mn289 2.117 . S
O315 C292 1.264 . S
C316 C309 1.403 . S
C316 C317 1.399 . S
C316 H322 0.929 . S
C317 C297 1.449 . S
C317 C316 1.399 . S
C317 H323 0.930 . S
H318 C298 0.931 1_455 S
H319 C299 0.930 . S
H320 C307 0.931 . S
H321 C308 0.929 . S
H322 C316 0.929 . S
H323 C317 0.930 . S
Mn324 O329 2.095 . S
Mn324 O339 2.162 1_655 S
Mn324 O340 2.297 1_655 S
Mn324 O348 2.385 . S
Mn324 O349 2.209 . S
Mn324 O350 2.094 . S
Mn325 O330 2.121 . S
Mn325 N332 2.257 . S
Mn325 N341 2.282 . S
Mn325 O349 2.215 . S
Mn325 O351 2.117 . S
C326 O348 1.234 . S
C326 O349 1.283 . S
C327 O339 1.281 . S
C327 O340 1.236 . S
C328 O350 1.240 . S
C328 O351 1.264 . S
O329 Mn324 2.095 . S
O329 C338 1.250 . S
O330 Mn325 2.121 . S
O330 C338 1.258 . S
C331 N332 1.326 . S
C331 C335 1.460 . S
C331 H337 0.929 . S
N332 Mn325 2.257 . S
N332 C331 1.326 . S
N332 C336 1.362 . S
C333 C334 1.258 . S
C333 C336 1.431 . S
C333 C353 1.449 . S
C334 C333 1.258 . S
C334 C335 1.477 . S
C334 H354 0.931 . S
C335 C331 1.460 . S
C335 C334 1.477 . S
C335 H355 0.930 . S
C336 N332 1.362 . S
C336 C333 1.431 . S
C336 C346 1.476 . S
H337 C331 0.929 . S
C338 O329 1.250 . S
C338 O330 1.258 . S
O339 Mn324 2.162 1_455 S
O339 C327 1.281 . S
O340 Mn324 2.297 1_455 S
O340 C327 1.236 . S
N341 Mn325 2.282 . S
N341 C342 1.328 . S
N341 C346 1.318 . S
C342 N341 1.328 . S
C342 C343 1.457 . S
C342 H347 0.929 . S
C343 C342 1.457 . S
C343 C344 1.291 . S
C343 H356 0.931 . S
C344 C343 1.291 . S
C344 C345 1.373 . S
C344 H357 0.929 . S
C345 C344 1.373 . S
C345 C346 1.396 . S
C345 C352 1.403 . S
C346 C336 1.476 . S
C346 N341 1.318 . S
C346 C345 1.396 . S
H347 C342 0.929 . S
O348 Mn324 2.385 . S
O348 C326 1.234 . S
O349 Mn324 2.209 . S
O349 Mn325 2.215 . S
O349 C326 1.283 . S
O350 Mn324 2.094 . S
O350 C328 1.240 . S
O351 Mn325 2.117 . S
O351 C328 1.264 . S
C352 C345 1.403 . S
C352 C353 1.399 . S
C352 H358 0.929 . S
C353 C333 1.449 . S
C353 C352 1.399 . S
C353 H359 0.930 . S
H354 C334 0.931 . S
H355 C335 0.930 . S
H356 C343 0.931 . S
H357 C344 0.929 . S
H358 C352 0.929 . S
H359 C353 0.930 . S
Mn360 O365 2.095 . S
Mn360 O375 2.162 . S
Mn360 O376 2.297 . S
Mn360 O384 2.385 . S
Mn360 O385 2.209 . S
Mn360 O386 2.094 . S
Mn361 O366 2.121 . S
Mn361 N368 2.257 . S
Mn361 N377 2.282 . S
Mn361 O385 2.215 . S
Mn361 O387 2.117 . S
C362 O384 1.234 . S
C362 O385 1.283 . S
C363 O375 1.281 . S
C363 O376 1.236 . S
C364 O386 1.240 . S
C364 O387 1.264 . S
O365 Mn360 2.095 . S
O365 C374 1.250 . S
O366 Mn361 2.121 . S
O366 C374 1.258 . S
C367 N368 1.326 . S
C367 C371 1.460 . S
C367 H373 0.929 . S
N368 Mn361 2.257 . S
N368 C367 1.326 . S
N368 C372 1.362 . S
C369 C370 1.258 . S
C369 C372 1.431 . S
C369 C389 1.449 . S
C370 C369 1.258 . S
C370 C371 1.477 . S
C370 H390 0.931 . S
C371 C367 1.460 . S
C371 C370 1.477 . S
C371 H391 0.930 . S
C372 N368 1.362 . S
C372 C369 1.431 . S
C372 C382 1.476 . S
H373 C367 0.929 . S
C374 O365 1.250 . S
C374 O366 1.258 . S
O375 Mn360 2.162 . S
O375 C363 1.281 . S
O376 Mn360 2.297 . S
O376 C363 1.236 . S
N377 Mn361 2.282 . S
N377 C378 1.328 . S
N377 C382 1.318 . S
C378 N377 1.328 . S
C378 C379 1.457 . S
C378 H383 0.929 . S
C379 C378 1.457 . S
C379 C380 1.291 . S
C379 H392 0.931 . S
C380 C379 1.291 . S
C380 C381 1.373 . S
C380 H393 0.929 . S
C381 C380 1.373 . S
C381 C382 1.396 . S
C381 C388 1.403 . S
C382 C372 1.476 . S
C382 N377 1.318 . S
C382 C381 1.396 . S
H383 C378 0.929 . S
O384 Mn360 2.385 . S
O384 C362 1.234 . S
O385 Mn360 2.209 . S
O385 Mn361 2.215 . S
O385 C362 1.283 . S
O386 Mn360 2.094 . S
O386 C364 1.240 . S
O387 Mn361 2.117 . S
O387 C364 1.264 . S
C388 C381 1.403 . S
C388 C389 1.399 . S
C388 H394 0.929 . S
C389 C369 1.449 . S
C389 C388 1.399 . S
C389 H395 0.930 . S
H390 C370 0.931 . S
H391 C371 0.930 . S
H392 C379 0.931 . S
H393 C380 0.929 . S
H394 C388 0.929 . S
H395 C389 0.930 . S
Mn396 O401 2.095 . S
Mn396 O411 2.162 . S
Mn396 O412 2.297 . S
Mn396 O420 2.385 . S
Mn396 O421 2.209 . S
Mn396 O422 2.094 . S
Mn397 O402 2.121 . S
Mn397 N404 2.257 . S
Mn397 N413 2.282 . S
Mn397 O421 2.215 . S
Mn397 O423 2.117 . S
C398 O420 1.234 . S
C398 O421 1.283 . S
C399 O411 1.281 . S
C399 O412 1.236 . S
C400 O422 1.240 . S
C400 O423 1.264 . S
O401 Mn396 2.095 . S
O401 C410 1.250 . S
O402 Mn397 2.121 . S
O402 C410 1.258 . S
C403 N404 1.326 . S
C403 C407 1.460 . S
C403 H409 0.929 1_545 S
N404 Mn397 2.257 . S
N404 C403 1.326 . S
N404 C408 1.362 . S
C405 C406 1.258 . S
C405 C408 1.431 . S
C405 C425 1.449 . S
C406 C405 1.258 . S
C406 C407 1.477 . S
C406 H426 0.931 . S
C407 C403 1.460 . S
C407 C406 1.477 . S
C407 H427 0.930 1_545 S
C408 N404 1.362 . S
C408 C405 1.431 . S
C408 C418 1.476 . S
H409 C403 0.929 1_565 S
C410 O401 1.250 . S
C410 O402 1.258 . S
O411 Mn396 2.162 . S
O411 C399 1.281 . S
O412 Mn396 2.297 . S
O412 C399 1.236 . S
N413 Mn397 2.282 . S
N413 C414 1.328 . S
N413 C418 1.318 . S
C414 N413 1.328 . S
C414 C415 1.457 . S
C414 H419 0.929 . S
C415 C414 1.457 . S
C415 C416 1.291 . S
C415 H428 0.931 . S
C416 C415 1.291 . S
C416 C417 1.373 . S
C416 H429 0.929 . S
C417 C416 1.373 . S
C417 C418 1.396 . S
C417 C424 1.403 . S
C418 C408 1.476 . S
C418 N413 1.318 . S
C418 C417 1.396 . S
H419 C414 0.929 . S
O420 Mn396 2.385 . S
O420 C398 1.234 . S
O421 Mn396 2.209 . S
O421 Mn397 2.215 . S
O421 C398 1.283 . S
O422 Mn396 2.094 . S
O422 C400 1.240 . S
O423 Mn397 2.117 . S
O423 C400 1.264 . S
C424 C417 1.403 . S
C424 C425 1.399 . S
C424 H430 0.929 . S
C425 C405 1.449 . S
C425 C424 1.399 . S
C425 H431 0.930 . S
H426 C406 0.931 . S
H427 C407 0.930 1_565 S
H428 C415 0.931 . S
H429 C416 0.929 . S
H430 C424 0.929 . S
H431 C425 0.930 . S
Mn432 O437 2.095 . S
Mn432 O447 2.162 . S
Mn432 O448 2.297 . S
Mn432 O456 2.385 . S
Mn432 O457 2.209 . S
Mn432 O458 2.094 . S
Mn433 O438 2.121 . S
Mn433 N440 2.257 . S
Mn433 N449 2.282 . S
Mn433 O457 2.215 . S
Mn433 O459 2.117 . S
C434 O456 1.234 . S
C434 O457 1.283 . S
C435 O447 1.281 1_655 S
C435 O448 1.236 1_655 S
C436 O458 1.240 . S
C436 O459 1.264 . S
O437 Mn432 2.095 . S
O437 C446 1.250 . S
O438 Mn433 2.121 . S
O438 C446 1.258 . S
C439 N440 1.326 . S
C439 C443 1.460 . S
C439 H445 0.929 . S
N440 Mn433 2.257 . S
N440 C439 1.326 . S
N440 C444 1.362 . S
C441 C442 1.258 . S
C441 C444 1.431 . S
C441 C461 1.449 . S
C442 C441 1.258 . S
C442 C443 1.477 . S
C442 H462 0.931 . S
C443 C439 1.460 . S
C443 C442 1.477 . S
C443 H463 0.930 . S
C444 N440 1.362 . S
C444 C441 1.431 . S
C444 C454 1.476 . S
H445 C439 0.929 . S
C446 O437 1.250 . S
C446 O438 1.258 . S
O447 Mn432 2.162 . S
O447 C435 1.281 1_455 S
O448 Mn432 2.297 . S
O448 C435 1.236 1_455 S
N449 Mn433 2.282 . S
N449 C450 1.328 . S
N449 C454 1.318 . S
C450 N449 1.328 . S
C450 C451 1.457 . S
C450 H455 0.929 . S
C451 C450 1.457 . S
C451 C452 1.291 . S
C451 H464 0.931 . S
C452 C451 1.291 . S
C452 C453 1.373 . S
C452 H465 0.929 . S
C453 C452 1.373 . S
C453 C454 1.396 . S
C453 C460 1.403 . S
C454 C444 1.476 . S
C454 N449 1.318 . S
C454 C453 1.396 . S
H455 C450 0.929 . S
O456 Mn432 2.385 . S
O456 C434 1.234 . S
O457 Mn432 2.209 . S
O457 Mn433 2.215 . S
O457 C434 1.283 . S
O458 Mn432 2.094 . S
O458 C436 1.240 . S
O459 Mn433 2.117 . S
O459 C436 1.264 . S
C460 C453 1.403 . S
C460 C461 1.399 . S
C460 H466 0.929 . S
C461 C441 1.449 . S
C461 C460 1.399 . S
C461 H467 0.930 . S
H462 C442 0.931 . S
H463 C443 0.930 . S
H464 C451 0.931 . S
H465 C452 0.929 . S
H466 C460 0.929 . S
H467 C461 0.930 . S
Mn468 O473 2.095 . S
Mn468 O483 2.162 . S
Mn468 O484 2.297 . S
Mn468 O492 2.385 . S
Mn468 O493 2.209 . S
Mn468 O494 2.094 . S
Mn469 O474 2.121 . S
Mn469 N476 2.257 . S
Mn469 N485 2.282 . S
Mn469 O493 2.215 . S
Mn469 O495 2.117 . S
C470 O492 1.234 . S
C470 O493 1.283 . S
C471 O483 1.281 . S
C471 O484 1.236 . S
C472 O494 1.240 . S
C472 O495 1.264 . S
O473 Mn468 2.095 . S
O473 C482 1.250 . S
O474 Mn469 2.121 . S
O474 C482 1.258 . S
C475 N476 1.326 . S
C475 C479 1.460 . S
C475 H481 0.929 . S
N476 Mn469 2.257 . S
N476 C475 1.326 . S
N476 C480 1.362 . S
C477 C478 1.258 . S
C477 C480 1.431 . S
C477 C497 1.449 . S
C478 C477 1.258 . S
C478 C479 1.477 . S
C478 H498 0.931 . S
C479 C475 1.460 . S
C479 C478 1.477 . S
C479 H499 0.930 . S
C480 N476 1.362 . S
C480 C477 1.431 . S
C480 C490 1.476 . S
H481 C475 0.929 . S
C482 O473 1.250 . S
C482 O474 1.258 . S
O483 Mn468 2.162 . S
O483 C471 1.281 . S
O484 Mn468 2.297 . S
O484 C471 1.236 . S
N485 Mn469 2.282 . S
N485 C486 1.328 . S
N485 C490 1.318 . S
C486 N485 1.328 . S
C486 C487 1.457 . S
C486 H491 0.929 . S
C487 C486 1.457 . S
C487 C488 1.291 . S
C487 H500 0.931 . S
C488 C487 1.291 . S
C488 C489 1.373 . S
C488 H501 0.929 . S
C489 C488 1.373 . S
C489 C490 1.396 . S
C489 C496 1.403 . S
C490 C480 1.476 . S
C490 N485 1.318 . S
C490 C489 1.396 . S
H491 C486 0.929 . S
O492 Mn468 2.385 . S
O492 C470 1.234 . S
O493 Mn468 2.209 . S
O493 Mn469 2.215 . S
O493 C470 1.283 . S
O494 Mn468 2.094 . S
O494 C472 1.240 . S
O495 Mn469 2.117 . S
O495 C472 1.264 . S
C496 C489 1.403 . S
C496 C497 1.399 . S
C496 H502 0.929 . S
C497 C477 1.449 . S
C497 C496 1.399 . S
C497 H503 0.930 . S
H498 C478 0.931 . S
H499 C479 0.930 . S
H500 C487 0.931 . S
H501 C488 0.929 . S
H502 C496 0.929 . S
H503 C497 0.930 . S
Mn504 O509 2.095 . S
Mn504 O519 2.162 1_565 S
Mn504 O520 2.297 1_565 S
Mn504 O528 2.385 . S
Mn504 O529 2.209 . S
Mn504 O530 2.094 . S
Mn505 O510 2.121 . S
Mn505 N512 2.257 . S
Mn505 N521 2.282 . S
Mn505 O529 2.215 . S
Mn505 O531 2.117 . S
C506 O528 1.234 . S
C506 O529 1.283 . S
C507 O519 1.281 . S
C507 O520 1.236 . S
C508 O530 1.240 . S
C508 O531 1.264 . S
O509 Mn504 2.095 . S
O509 C518 1.250 . S
O510 Mn505 2.121 . S
O510 C518 1.258 . S
C511 N512 1.326 . S
C511 C515 1.460 . S
C511 H517 0.929 . S
N512 Mn505 2.257 . S
N512 C511 1.326 . S
N512 C516 1.362 . S
C513 C514 1.258 . S
C513 C516 1.431 . S
C513 C533 1.449 . S
C514 C513 1.258 . S
C514 C515 1.477 . S
C514 H534 0.931 . S
C515 C511 1.460 . S
C515 C514 1.477 . S
C515 H535 0.930 . S
C516 N512 1.362 . S
C516 C513 1.431 . S
C516 C526 1.476 . S
H517 C511 0.929 . S
C518 O509 1.250 . S
C518 O510 1.258 . S
O519 Mn504 2.162 1_545 S
O519 C507 1.281 . S
O520 Mn504 2.297 1_545 S
O520 C507 1.236 . S
N521 Mn505 2.282 . S
N521 C522 1.328 . S
N521 C526 1.318 . S
C522 N521 1.328 . S
C522 C523 1.457 . S
C522 H527 0.929 . S
C523 C522 1.457 . S
C523 C524 1.291 . S
C523 H536 0.931 . S
C524 C523 1.291 . S
C524 C525 1.373 . S
C524 H537 0.929 . S
C525 C524 1.373 . S
C525 C526 1.396 . S
C525 C532 1.403 . S
C526 C516 1.476 . S
C526 N521 1.318 . S
C526 C525 1.396 . S
H527 C522 0.929 . S
O528 Mn504 2.385 . S
O528 C506 1.234 . S
O529 Mn504 2.209 . S
O529 Mn505 2.215 . S
O529 C506 1.283 . S
O530 Mn504 2.094 . S
O530 C508 1.240 . S
O531 Mn505 2.117 . S
O531 C508 1.264 . S
C532 C525 1.403 . S
C532 C533 1.399 . S
C532 H538 0.929 . S
C533 C513 1.449 . S
C533 C532 1.399 . S
C533 H539 0.930 . S
H534 C514 0.931 . S
H535 C515 0.930 . S
H536 C523 0.931 . S
H537 C524 0.929 . S
H538 C532 0.929 . S
H539 C533 0.930 . S
Mn540 O545 2.095 . S
Mn540 O555 2.162 . S
Mn540 O556 2.297 . S
Mn540 O564 2.385 . S
Mn540 O565 2.209 . S
Mn540 O566 2.094 . S
Mn541 O546 2.121 . S
Mn541 N548 2.257 . S
Mn541 N557 2.282 . S
Mn541 O565 2.215 . S
Mn541 O567 2.117 . S
C542 O564 1.234 . S
C542 O565 1.283 . S
C543 O555 1.281 . S
C543 O556 1.236 . S
C544 O566 1.240 . S
C544 O567 1.264 . S
O545 Mn540 2.095 . S
O545 C554 1.250 . S
O546 Mn541 2.121 . S
O546 C554 1.258 . S
C547 N548 1.326 . S
C547 C551 1.460 . S
C547 H553 0.929 . S
N548 Mn541 2.257 . S
N548 C547 1.326 . S
N548 C552 1.362 . S
C549 C550 1.258 . S
C549 C552 1.431 . S
C549 C569 1.449 . S
C550 C549 1.258 . S
C550 C551 1.477 . S
C550 H570 0.931 . S
C551 C547 1.460 . S
C551 C550 1.477 . S
C551 H571 0.930 . S
C552 N548 1.362 . S
C552 C549 1.431 . S
C552 C562 1.476 . S
H553 C547 0.929 . S
C554 O545 1.250 . S
C554 O546 1.258 . S
O555 Mn540 2.162 . S
O555 C543 1.281 . S
O556 Mn540 2.297 . S
O556 C543 1.236 . S
N557 Mn541 2.282 . S
N557 C558 1.328 . S
N557 C562 1.318 . S
C558 N557 1.328 . S
C558 C559 1.457 . S
C558 H563 0.929 . S
C559 C558 1.457 . S
C559 C560 1.291 . S
C559 H572 0.931 . S
C560 C559 1.291 . S
C560 C561 1.373 . S
C560 H573 0.929 . S
C561 C560 1.373 . S
C561 C562 1.396 . S
C561 C568 1.403 . S
C562 C552 1.476 . S
C562 N557 1.318 . S
C562 C561 1.396 . S
H563 C558 0.929 . S
O564 Mn540 2.385 . S
O564 C542 1.234 . S
O565 Mn540 2.209 . S
O565 Mn541 2.215 . S
O565 C542 1.283 . S
O566 Mn540 2.094 . S
O566 C544 1.240 . S
O567 Mn541 2.117 . S
O567 C544 1.264 . S
C568 C561 1.403 . S
C568 C569 1.399 . S
C568 H574 0.929 . S
C569 C549 1.449 . S
C569 C568 1.399 . S
C569 H575 0.930 . S
H570 C550 0.931 . S
H571 C551 0.930 . S
H572 C559 0.931 . S
H573 C560 0.929 . S
H574 C568 0.929 . S
H575 C569 0.930 . S
Mn576 O581 2.095 1_565 S
Mn576 O591 2.162 . S
Mn576 O592 2.297 . S
Mn576 O600 2.385 . S
Mn576 O601 2.209 . S
Mn576 O602 2.094 . S
Mn577 O582 2.121 1_565 S
Mn577 N584 2.257 . S
Mn577 N593 2.282 . S
Mn577 O601 2.215 . S
Mn577 O603 2.117 . S
C578 O600 1.234 . S
C578 O601 1.283 . S
C579 O591 1.281 . S
C579 O592 1.236 . S
C580 O602 1.240 . S
C580 O603 1.264 . S
O581 Mn576 2.095 1_545 S
O581 C590 1.250 . S
O582 Mn577 2.121 1_545 S
O582 C590 1.258 . S
C583 N584 1.326 1_545 S
C583 C587 1.460 . S
C583 H589 0.929 . S
N584 Mn577 2.257 . S
N584 C583 1.326 1_565 S
N584 C588 1.362 . S
C585 C586 1.258 . S
C585 C588 1.431 . S
C585 C605 1.449 . S
C586 C585 1.258 . S
C586 C587 1.477 1_565 S
C586 H606 0.926 . S
C587 C583 1.460 . S
C587 C586 1.477 1_545 S
C587 H607 0.930 . S
C588 N584 1.362 . S
C588 C585 1.431 . S
C588 C598 1.476 . S
H589 C583 0.929 . S
C590 O581 1.250 . S
C590 O582 1.258 . S
O591 Mn576 2.162 . S
O591 C579 1.281 . S
O592 Mn576 2.297 . S
O592 C579 1.236 . S
N593 Mn577 2.282 . S
N593 C594 1.328 . S
N593 C598 1.318 . S
C594 N593 1.328 . S
C594 C595 1.457 . S
C594 H599 0.929 . S
C595 C594 1.457 . S
C595 C596 1.291 . S
C595 H608 0.931 . S
C596 C595 1.291 . S
C596 C597 1.373 . S
C596 H609 0.929 . S
C597 C596 1.373 . S
C597 C598 1.396 . S
C597 C604 1.403 . S
C598 C588 1.476 . S
C598 N593 1.318 . S
C598 C597 1.396 . S
H599 C594 0.929 . S
O600 Mn576 2.385 . S
O600 C578 1.234 . S
O601 Mn576 2.209 . S
O601 Mn577 2.215 . S
O601 C578 1.283 . S
O602 Mn576 2.094 . S
O602 C580 1.240 . S
O603 Mn577 2.117 . S
O603 C580 1.264 . S
C604 C597 1.403 . S
C604 C605 1.399 . S
C604 H610 0.929 . S
C605 C585 1.449 . S
C605 C604 1.399 . S
C605 H611 0.930 . S
H606 C586 0.926 . S
H607 C587 0.930 . S
H608 C595 0.931 . S
H609 C596 0.929 . S
H610 C604 0.929 . S
H611 C605 0.930 . S
Mn612 O617 2.095 . S
Mn612 O627 2.162 . S
Mn612 O628 2.297 . S
Mn612 O636 2.385 . S
Mn612 O637 2.209 . S
Mn612 O638 2.094 . S
Mn613 O618 2.121 . S
Mn613 N620 2.257 . S
Mn613 N629 2.282 . S
Mn613 O637 2.215 . S
Mn613 O639 2.117 . S
C614 O636 1.234 . S
C614 O637 1.283 . S
C615 O627 1.281 1_655 S
C615 O628 1.236 1_655 S
C616 O638 1.240 . S
C616 O639 1.264 . S
O617 Mn612 2.095 . S
O617 C626 1.250 . S
O618 Mn613 2.121 . S
O618 C626 1.258 . S
C619 N620 1.326 . S
C619 C623 1.460 . S
C619 H625 0.929 . S
N620 Mn613 2.257 . S
N620 C619 1.326 . S
N620 C624 1.362 . S
C621 C622 1.258 . S
C621 C624 1.431 . S
C621 C641 1.449 . S
C622 C621 1.258 . S
C622 C623 1.477 . S
C622 H642 0.931 . S
C623 C619 1.460 . S
C623 C622 1.477 . S
C623 H643 0.930 . S
C624 N620 1.362 . S
C624 C621 1.431 . S
C624 C634 1.476 . S
H625 C619 0.929 . S
C626 O617 1.250 . S
C626 O618 1.258 . S
O627 Mn612 2.162 . S
O627 C615 1.281 1_455 S
O628 Mn612 2.297 . S
O628 C615 1.236 1_455 S
N629 Mn613 2.282 . S
N629 C630 1.328 . S
N629 C634 1.318 . S
C630 N629 1.328 . S
C630 C631 1.457 . S
C630 H635 0.929 . S
C631 C630 1.457 . S
C631 C632 1.291 . S
C631 H644 0.931 . S
C632 C631 1.291 . S
C632 C633 1.373 . S
C632 H645 0.929 . S
C633 C632 1.373 . S
C633 C634 1.396 . S
C633 C640 1.403 . S
C634 C624 1.476 . S
C634 N629 1.318 . S
C634 C633 1.396 . S
H635 C630 0.929 . S
O636 Mn612 2.385 . S
O636 C614 1.234 . S
O637 Mn612 2.209 . S
O637 Mn613 2.215 . S
O637 C614 1.283 . S
O638 Mn612 2.094 . S
O638 C616 1.240 . S
O639 Mn613 2.117 . S
O639 C616 1.264 . S
C640 C633 1.403 . S
C640 C641 1.399 . S
C640 H646 0.929 . S
C641 C621 1.449 . S
C641 C640 1.399 . S
C641 H647 0.930 . S
H642 C622 0.931 . S
H643 C623 0.930 . S
H644 C631 0.931 . S
H645 C632 0.929 . S
H646 C640 0.929 . S
H647 C641 0.930 . S
Zn648 O654 1.920 1_455 S
Zn648 O660 1.898 1_445 S
Zn648 O663 1.905 . S
Zn649 O657 1.905 1_545 S
Zn649 O658 1.898 . S
Zn649 O666 1.920 1_455 S
Zn650 O653 2.080 . S
Zn650 O656 2.114 1_545 S
Zn650 O659 2.120 . S
Zn650 O661 2.120 1_445 S
Zn650 O662 2.114 . S
Zn650 O665 2.080 1_455 S
C651 O656 1.166 . S
C651 O657 1.182 . S
C652 O658 1.167 . S
C652 O659 1.299 . S
O653 Zn650 2.080 . S
O653 C667 1.305 1_455 S
O654 Zn648 1.920 1_655 S
O654 C667 1.234 . S
C655 O660 1.167 . S
C655 O661 1.299 . S
O656 Zn650 2.114 1_565 S
O656 C651 1.166 . S
O657 Zn649 1.905 1_565 S
O657 C651 1.182 . S
O658 Zn649 1.898 . S
O658 C652 1.167 . S
O659 Zn650 2.120 . S
O659 C652 1.299 . S
O660 Zn648 1.898 1_665 S
O660 C655 1.167 . S
O661 Zn650 2.120 1_665 S
O661 C655 1.299 . S
O662 Zn650 2.114 . S
O662 C664 1.166 . S
O663 Zn648 1.905 . S
O663 C664 1.182 . S
C664 O662 1.166 . S
C664 O663 1.182 . S
O665 Zn650 2.080 1_655 S
O665 C668 1.305 . S
O666 Zn649 1.920 1_655 S
O666 C668 1.234 . S
C667 O653 1.305 1_655 S
C667 O654 1.234 . S
C668 O665 1.305 . S
C668 O666 1.234 . S
Zn669 O675 1.920 1_545 S
Zn669 O681 1.898 . S
Zn669 O684 1.905 1_455 S
Zn670 O678 1.905 . S
Zn670 O679 1.898 1_445 S
Zn670 O687 1.920 . S
Zn671 O674 2.080 1_545 S
Zn671 O677 2.114 . S
Zn671 O680 2.120 1_445 S
Zn671 O682 2.120 . S
Zn671 O683 2.114 1_455 S
Zn671 O686 2.080 . S
C672 O677 1.166 . S
C672 O678 1.182 . S
C673 O679 1.167 . S
C673 O680 1.299 . S
O674 Zn671 2.080 1_565 S
O674 C688 1.305 . S
O675 Zn669 1.920 1_565 S
O675 C688 1.234 . S
C676 O681 1.167 . S
C676 O682 1.299 . S
O677 Zn671 2.114 . S
O677 C672 1.166 . S
O678 Zn670 1.905 . S
O678 C672 1.182 . S
O679 Zn670 1.898 1_665 S
O679 C673 1.167 . S
O680 Zn671 2.120 1_665 S
O680 C673 1.299 . S
O681 Zn669 1.898 . S
O681 C676 1.167 . S
O682 Zn671 2.120 . S
O682 C676 1.299 . S
O683 Zn671 2.114 1_655 S
O683 C685 1.166 . S
O684 Zn669 1.905 1_655 S
O684 C685 1.182 . S
C685 O683 1.166 . S
C685 O684 1.182 . S
O686 Zn671 2.080 . S
O686 C689 1.305 . S
O687 Zn670 1.920 . S
O687 C689 1.234 . S
C688 O674 1.305 . S
C688 O675 1.234 . S
C689 O686 1.305 . S
C689 O687 1.234 . S
Zn690 O696 1.920 1_545 S
Zn690 O702 1.898 . S
Zn690 O705 1.905 1_445 S
Zn691 O699 1.905 . S
Zn691 O700 1.898 1_445 S
Zn691 O708 1.920 1_545 S
Zn692 O695 2.080 1_545 S
Zn692 O698 2.114 . S
Zn692 O701 2.120 1_445 S
Zn692 O703 2.120 . S
Zn692 O704 2.114 1_455 S
Zn692 O707 2.080 . S
C693 O698 1.166 . S
C693 O699 1.182 . S
C694 O700 1.167 . S
C694 O701 1.299 . S
O695 Zn692 2.080 1_565 S
O695 C709 1.305 . S
O696 Zn690 1.920 1_565 S
O696 C709 1.234 . S
C697 O702 1.167 . S
C697 O703 1.299 . S
O698 Zn692 2.114 . S
O698 C693 1.166 . S
O699 Zn691 1.905 . S
O699 C693 1.182 . S
O700 Zn691 1.898 1_665 S
O700 C694 1.167 . S
O701 Zn692 2.120 1_665 S
O701 C694 1.299 . S
O702 Zn690 1.898 . S
O702 C697 1.167 . S
O703 Zn692 2.120 . S
O703 C697 1.299 . S
O704 Zn692 2.114 1_655 S
O704 C706 1.166 1_545 S
O705 Zn690 1.905 1_665 S
O705 C706 1.182 . S
C706 O704 1.166 1_565 S
C706 O705 1.182 . S
O707 Zn692 2.080 . S
O707 C710 1.305 . S
O708 Zn691 1.920 1_565 S
O708 C710 1.234 1_565 S
C709 O695 1.305 . S
C709 O696 1.234 . S
C710 O707 1.305 . S
C710 O708 1.234 1_545 S
Zn711 O717 1.920 . S
Zn711 O723 1.898 1_445 S
Zn711 O726 1.905 . S
Zn712 O720 1.905 1_445 S
Zn712 O721 1.898 . S
Zn712 O729 1.920 1_455 S
Zn713 O716 2.080 . S
Zn713 O719 2.114 1_545 S
Zn713 O722 2.120 . S
Zn713 O724 2.120 1_445 S
Zn713 O725 2.114 . S
Zn713 O728 2.080 1_455 S
C714 O719 1.166 . S
C714 O720 1.182 1_455 S
C715 O721 1.167 . S
C715 O722 1.299 . S
O716 Zn713 2.080 . S
O716 C730 1.305 . S
O717 Zn711 1.920 . S
O717 C730 1.234 . S
C718 O723 1.167 . S
C718 O724 1.299 . S
O719 Zn713 2.114 1_565 S
O719 C714 1.166 . S
O720 Zn712 1.905 1_665 S
O720 C714 1.182 1_655 S
O721 Zn712 1.898 . S
O721 C715 1.167 . S
O722 Zn713 2.120 . S
O722 C715 1.299 . S
O723 Zn711 1.898 1_665 S
O723 C718 1.167 . S
O724 Zn713 2.120 1_665 S
O724 C718 1.299 . S
O725 Zn713 2.114 . S
O725 C727 1.166 . S
O726 Zn711 1.905 . S
O726 C727 1.182 . S
C727 O725 1.166 . S
C727 O726 1.182 . S
O728 Zn713 2.080 1_655 S
O728 C731 1.305 . S
O729 Zn712 1.920 1_655 S
O729 C731 1.234 . S
C730 O716 1.305 . S
C730 O717 1.234 . S
C731 O728 1.305 . S
C731 O729 1.234 . S
Zn732 O738 1.920 . S
Zn732 O744 1.898 . S
Zn732 O747 1.905 . S
Zn733 O741 1.905 . S
Zn733 O742 1.898 . S
Zn733 O750 1.920 . S
Zn734 O737 2.080 . S
Zn734 O740 2.114 . S
Zn734 O743 2.120 . S
Zn734 O745 2.120 . S
Zn734 O746 2.114 . S
Zn734 O749 2.080 . S
C735 O740 1.166 . S
C735 O741 1.182 . S
C736 O742 1.167 . S
C736 O743 1.299 . S
O737 Zn734 2.080 . S
O737 C751 1.305 . S
O738 Zn732 1.920 . S
O738 C751 1.234 . S
C739 O744 1.167 . S
C739 O745 1.299 . S
O740 Zn734 2.114 . S
O740 C735 1.166 . S
O741 Zn733 1.905 . S
O741 C735 1.182 . S
O742 Zn733 1.898 . S
O742 C736 1.167 . S
O743 Zn734 2.120 . S
O743 C736 1.299 . S
O744 Zn732 1.898 . S
O744 C739 1.167 . S
O745 Zn734 2.120 . S
O745 C739 1.299 . S
O746 Zn734 2.114 . S
O746 C748 1.166 . S
O747 Zn732 1.905 . S
O747 C748 1.182 . S
C748 O746 1.166 . S
C748 O747 1.182 . S
O749 Zn734 2.080 . S
O749 C752 1.305 . S
O750 Zn733 1.920 . S
O750 C752 1.234 . S
C751 O737 1.305 . S
C751 O738 1.234 . S
C752 O749 1.305 . S
C752 O750 1.234 . S
Zn753 O759 1.920 . S
Zn753 O765 1.898 . S
Zn753 O768 1.905 . S
Zn754 O762 1.905 . S
Zn754 O763 1.898 . S
Zn754 O771 1.920 . S
Zn755 O758 2.080 . S
Zn755 O761 2.114 . S
Zn755 O764 2.120 . S
Zn755 O766 2.120 . S
Zn755 O767 2.114 . S
Zn755 O770 2.080 . S
C756 O761 1.166 . S
C756 O762 1.182 . S
C757 O763 1.167 . S
C757 O764 1.299 . S
O758 Zn755 2.080 . S
O758 C772 1.305 . S
O759 Zn753 1.920 . S
O759 C772 1.234 . S
C760 O765 1.167 . S
C760 O766 1.299 . S
O761 Zn755 2.114 . S
O761 C756 1.166 . S
O762 Zn754 1.905 . S
O762 C756 1.182 . S
O763 Zn754 1.898 . S
O763 C757 1.167 . S
O764 Zn755 2.120 . S
O764 C757 1.299 . S
O765 Zn753 1.898 . S
O765 C760 1.167 . S
O766 Zn755 2.120 . S
O766 C760 1.299 . S
O767 Zn755 2.114 . S
O767 C769 1.166 . S
O768 Zn753 1.905 . S
O768 C769 1.182 . S
C769 O767 1.166 . S
C769 O768 1.182 . S
O770 Zn755 2.080 . S
O770 C773 1.305 . S
O771 Zn754 1.920 . S
O771 C773 1.234 . S
C772 O758 1.305 . S
C772 O759 1.234 . S
C773 O770 1.305 . S
C773 O771 1.234 . S
Zn774 O780 1.920 . S
Zn774 O786 1.898 . S
Zn774 O789 1.905 . S
Zn775 O783 1.905 . S
Zn775 O784 1.898 . S
Zn775 O792 1.920 . S
Zn776 O779 2.080 . S
Zn776 O782 2.114 . S
Zn776 O785 2.120 . S
Zn776 O787 2.120 . S
Zn776 O788 2.114 . S
Zn776 O791 2.080 . S
C777 O782 1.166 . S
C777 O783 1.182 . S
C778 O784 1.167 . S
C778 O785 1.299 . S
O779 Zn776 2.080 . S
O779 C793 1.305 . S
O780 Zn774 1.920 . S
O780 C793 1.234 . S
C781 O786 1.167 . S
C781 O787 1.299 . S
O782 Zn776 2.114 . S
O782 C777 1.166 . S
O783 Zn775 1.905 . S
O783 C777 1.182 . S
O784 Zn775 1.898 . S
O784 C778 1.167 . S
O785 Zn776 2.120 . S
O785 C778 1.299 . S
O786 Zn774 1.898 . S
O786 C781 1.167 . S
O787 Zn776 2.120 . S
O787 C781 1.299 . S
O788 Zn776 2.114 . S
O788 C790 1.166 . S
O789 Zn774 1.905 . S
O789 C790 1.182 . S
C790 O788 1.166 . S
C790 O789 1.182 . S
O791 Zn776 2.080 . S
O791 C794 1.305 . S
O792 Zn775 1.920 . S
O792 C794 1.234 . S
C793 O779 1.305 . S
C793 O780 1.234 . S
C794 O791 1.305 . S
C794 O792 1.234 . S
Zn795 O801 1.920 . S
Zn795 O807 1.898 . S
Zn795 O810 1.905 . S
Zn796 O804 1.905 . S
Zn796 O805 1.898 . S
Zn796 O813 1.920 . S
Zn797 O800 2.080 . S
Zn797 O803 2.114 . S
Zn797 O806 2.120 . S
Zn797 O808 2.120 . S
Zn797 O809 2.114 . S
Zn797 O812 2.080 . S
C798 O803 1.166 . S
C798 O804 1.182 . S
C799 O805 1.167 . S
C799 O806 1.299 . S
O800 Zn797 2.080 . S
O800 C814 1.305 1_556 S
O801 Zn795 1.920 . S
O801 C814 1.234 . S
C802 O807 1.167 . S
C802 O808 1.299 1_554 S
O803 Zn797 2.114 . S
O803 C798 1.166 . S
O804 Zn796 1.905 . S
O804 C798 1.182 . S
O805 Zn796 1.898 . S
O805 C799 1.167 . S
O806 Zn797 2.120 . S
O806 C799 1.299 . S
O807 Zn795 1.898 . S
O807 C802 1.167 . S
O808 Zn797 2.120 . S
O808 C802 1.299 1_556 S
O809 Zn797 2.114 . S
O809 C811 1.166 1_556 S
O810 Zn795 1.905 . S
O810 C811 1.182 . S
C811 O809 1.166 1_554 S
C811 O810 1.182 . S
O812 Zn797 2.080 . S
O812 C815 1.305 . S
O813 Zn796 1.920 . S
O813 C815 1.234 . S
C814 O800 1.305 1_554 S
C814 O801 1.234 . S
C815 O812 1.305 . S
C815 O813 1.234 . S
Zn816 O822 1.920 . S
Zn816 O828 1.898 . S
Zn816 O831 1.905 . S
Zn817 O825 1.905 . S
Zn817 O826 1.898 . S
Zn817 O834 1.920 . S
Zn818 O821 2.080 . S
Zn818 O824 2.114 . S
Zn818 O827 2.120 . S
Zn818 O829 2.120 . S
Zn818 O830 2.114 . S
Zn818 O833 2.080 . S
C819 O824 1.166 . S
C819 O825 1.182 . S
C820 O826 1.167 . S
C820 O827 1.299 . S
O821 Zn818 2.080 . S
O821 C835 1.305 . S
O822 Zn816 1.920 . S
O822 C835 1.234 . S
C823 O828 1.167 . S
C823 O829 1.299 . S
O824 Zn818 2.114 . S
O824 C819 1.166 . S
O825 Zn817 1.905 . S
O825 C819 1.182 . S
O826 Zn817 1.898 . S
O826 C820 1.167 . S
O827 Zn818 2.120 . S
O827 C820 1.299 . S
O828 Zn816 1.898 . S
O828 C823 1.167 . S
O829 Zn818 2.120 . S
O829 C823 1.299 . S
O830 Zn818 2.114 . S
O830 C832 1.166 . S
O831 Zn816 1.905 . S
O831 C832 1.182 . S
C832 O830 1.166 . S
C832 O831 1.182 . S
O833 Zn818 2.080 . S
O833 C836 1.305 . S
O834 Zn817 1.920 . S
O834 C836 1.234 . S
C835 O821 1.305 . S
C835 O822 1.234 . S
C836 O833 1.305 . S
C836 O834 1.234 . S
Zn837 O843 1.920 . S
Zn837 O849 1.898 . S
Zn837 O852 1.905 . S
Zn838 O846 1.905 . S
Zn838 O847 1.898 . S
Zn838 O855 1.920 . S
Zn839 O842 2.080 . S
Zn839 O845 2.114 . S
Zn839 O848 2.120 . S
Zn839 O850 2.120 . S
Zn839 O851 2.114 . S
Zn839 O854 2.080 . S
C840 O845 1.166 1_556 S
C840 O846 1.182 . S
C841 O847 1.167 . S
C841 O848 1.299 1_556 S
O842 Zn839 2.080 . S
O842 C856 1.305 . S
O843 Zn837 1.920 . S
O843 C856 1.234 . S
C844 O849 1.167 . S
C844 O850 1.299 . S
O845 Zn839 2.114 . S
O845 C840 1.166 1_554 S
O846 Zn838 1.905 . S
O846 C840 1.182 . S
O847 Zn838 1.898 . S
O847 C841 1.167 . S
O848 Zn839 2.120 . S
O848 C841 1.299 1_554 S
O849 Zn837 1.898 . S
O849 C844 1.167 . S
O850 Zn839 2.120 . S
O850 C844 1.299 . S
O851 Zn839 2.114 . S
O851 C853 1.166 . S
O852 Zn837 1.905 . S
O852 C853 1.182 . S
C853 O851 1.166 . S
C853 O852 1.182 . S
O854 Zn839 2.080 . S
O854 C857 1.305 1_554 S
O855 Zn838 1.920 . S
O855 C857 1.234 . S
C856 O842 1.305 . S
C856 O843 1.234 . S
C857 O854 1.305 1_556 S
C857 O855 1.234 . S
Zn858 O864 1.920 . S
Zn858 O870 1.898 . S
Zn858 O873 1.905 . S
Zn859 O867 1.905 . S
Zn859 O868 1.898 . S
Zn859 O876 1.920 . S
Zn860 O863 2.080 . S
Zn860 O866 2.114 . S
Zn860 O869 2.120 . S
Zn860 O871 2.120 . S
Zn860 O872 2.114 . S
Zn860 O875 2.080 . S
C861 O866 1.166 . S
C861 O867 1.182 . S
C862 O868 1.167 . S
C862 O869 1.299 . S
O863 Zn860 2.080 . S
O863 C877 1.305 . S
O864 Zn858 1.920 . S
O864 C877 1.234 . S
C865 O870 1.167 . S
C865 O871 1.299 . S
O866 Zn860 2.114 . S
O866 C861 1.166 . S
O867 Zn859 1.905 . S
O867 C861 1.182 . S
O868 Zn859 1.898 . S
O868 C862 1.167 . S
O869 Zn860 2.120 . S
O869 C862 1.299 . S
O870 Zn858 1.898 . S
O870 C865 1.167 . S
O871 Zn860 2.120 . S
O871 C865 1.299 . S
O872 Zn860 2.114 . S
O872 C874 1.166 . S
O873 Zn858 1.905 . S
O873 C874 1.182 . S
C874 O872 1.166 . S
C874 O873 1.182 . S
O875 Zn860 2.080 . S
O875 C878 1.305 . S
O876 Zn859 1.920 . S
O876 C878 1.234 . S
C877 O863 1.305 . S
C877 O864 1.234 . S
C878 O875 1.305 . S
C878 O876 1.234 . S
Zn879 O885 1.920 . S
Zn879 O891 1.898 . S
Zn879 O894 1.905 . S
Zn880 O888 1.905 . S
Zn880 O889 1.898 . S
Zn880 O897 1.920 . S
Zn881 O884 2.080 . S
Zn881 O887 2.114 . S
Zn881 O890 2.120 . S
Zn881 O892 2.120 . S
Zn881 O893 2.114 . S
Zn881 O896 2.080 . S
C882 O887 1.166 . S
C882 O888 1.182 . S
C883 O889 1.167 . S
C883 O890 1.299 . S
O884 Zn881 2.080 . S
O884 C898 1.305 . S
O885 Zn879 1.920 . S
O885 C898 1.234 . S
C886 O891 1.167 . S
C886 O892 1.299 . S
O887 Zn881 2.114 . S
O887 C882 1.166 . S
O888 Zn880 1.905 . S
O888 C882 1.182 . S
O889 Zn880 1.898 . S
O889 C883 1.167 . S
O890 Zn881 2.120 . S
O890 C883 1.299 . S
O891 Zn879 1.898 . S
O891 C886 1.167 . S
O892 Zn881 2.120 . S
O892 C886 1.299 . S
O893 Zn881 2.114 . S
O893 C895 1.166 . S
O894 Zn879 1.905 . S
O894 C895 1.182 . S
C895 O893 1.166 . S
C895 O894 1.182 . S
O896 Zn881 2.080 . S
O896 C899 1.305 . S
O897 Zn880 1.920 . S
O897 C899 1.234 . S
C898 O884 1.305 . S
C898 O885 1.234 . S
C899 O896 1.305 . S
C899 O897 1.234 . S
H900 C906 0.930 . S
H901 C910 0.930 . S
H902 C915 0.929 . S
H903 C913 0.929 . S
H904 C908 0.929 . S
H905 C914 0.929 . S
C906 H900 0.930 . S
C906 C907 1.367 . S
C906 C914 1.378 . S
C907 C906 1.367 . S
C907 C915 1.433 . S
C908 H904 0.929 . S
C908 C910 1.378 . S
C908 C912 1.350 . S
C909 C912 1.463 . S
C909 C914 1.350 . S
C909 N917 1.427 . S
C910 H901 0.930 . S
C910 C908 1.378 . S
C910 C911 1.367 . S
C911 C910 1.367 . S
C911 C913 1.433 . S
C912 C908 1.350 . S
C912 C909 1.463 . S
C912 N916 1.427 . S
C913 H903 0.929 . S
C913 C911 1.433 . S
C913 N916 1.384 . S
C914 H905 0.929 . S
C914 C906 1.378 . S
C914 C909 1.350 . S
C915 H902 0.929 . S
C915 C907 1.433 . S
C915 N917 1.384 . S
N916 C912 1.427 . S
N916 C913 1.384 . S
N917 C909 1.427 . S
N917 C915 1.384 . S
H918 C924 0.930 . S
H919 C928 0.930 . S
H920 C933 0.929 . S
H921 C931 0.929 . S
H922 C926 0.929 . S
H923 C932 0.929 . S
C924 H918 0.930 . S
C924 C925 1.367 . S
C924 C932 1.378 . S
C925 C924 1.367 . S
C925 C933 1.433 1_545 S
C926 H922 0.929 . S
C926 C928 1.378 . S
C926 C930 1.350 1_565 S
C927 C930 1.463 . S
C927 C932 1.350 . S
C927 N935 1.427 1_545 S
C928 H919 0.930 . S
C928 C926 1.378 . S
C928 C929 1.367 1_565 S
C929 C928 1.367 1_545 S
C929 C931 1.433 . S
C930 C926 1.350 1_545 S
C930 C927 1.463 . S
C930 N934 1.427 . S
C931 H921 0.929 . S
C931 C929 1.433 . S
C931 N934 1.384 . S
C932 H923 0.929 . S
C932 C924 1.378 . S
C932 C927 1.350 . S
C933 H920 0.929 . S
C933 C925 1.433 1_565 S
C933 N935 1.384 . S
N934 C930 1.427 . S
N934 C931 1.384 . S
N935 C927 1.427 1_565 S
N935 C933 1.384 . S
H936 C942 0.930 . S
H937 C946 0.930 . S
H938 C951 0.929 . S
H939 C949 0.929 . S
H940 C944 0.929 . S
H941 C950 0.929 1_655 S
C942 H936 0.930 . S
C942 C943 1.367 . S
C942 C950 1.378 . S
C943 C942 1.367 . S
C943 C951 1.433 . S
C944 H940 0.929 . S
C944 C946 1.378 . S
C944 C948 1.350 . S
C945 C948 1.463 . S
C945 C950 1.350 . S
C945 N953 1.427 . S
C946 H937 0.930 . S
C946 C944 1.378 . S
C946 C947 1.367 . S
C947 C946 1.367 . S
C947 C949 1.433 1_455 S
C948 C944 1.350 . S
C948 C945 1.463 . S
C948 N952 1.417 1_455 S
C949 H939 0.929 . S
C949 C947 1.433 1_655 S
C949 N952 1.390 . S
C950 H941 0.929 1_455 S
C950 C942 1.378 . S
C950 C945 1.350 . S
C951 H938 0.929 . S
C951 C943 1.433 . S
C951 N953 1.384 . S
N952 C948 1.417 1_655 S
N952 C949 1.390 . S
N953 C945 1.427 . S
N953 C951 1.384 . S
H954 C960 0.930 . S
H955 C964 0.930 . S
H956 C969 0.929 . S
H957 C967 0.929 . S
H958 C962 0.929 . S
H959 C968 0.929 . S
C960 H954 0.930 . S
C960 C961 1.367 . S
C960 C968 1.378 . S
C961 C960 1.367 . S
C961 C969 1.433 . S
C962 H958 0.929 . S
C962 C964 1.378 . S
C962 C966 1.350 . S
C963 C966 1.463 . S
C963 C968 1.350 . S
C963 N971 1.427 . S
C964 H955 0.930 . S
C964 C962 1.378 . S
C964 C965 1.367 . S
C965 C964 1.367 . S
C965 C967 1.433 . S
C966 C962 1.350 . S
C966 C963 1.463 . S
C966 N970 1.427 . S
C967 H957 0.929 . S
C967 C965 1.433 . S
C967 N970 1.384 . S
C968 H959 0.929 . S
C968 C960 1.378 . S
C968 C963 1.350 . S
C969 H956 0.929 . S
C969 C961 1.433 . S
C969 N971 1.384 . S
N970 C966 1.427 . S
N970 C967 1.384 . S
N971 C963 1.427 . S
N971 C969 1.384 . S
H972 C978 0.930 . S
H973 C982 0.930 . S
H974 C987 0.929 . S
H975 C985 0.929 . S
H976 C980 0.929 . S
H977 C986 0.929 . S
C978 H972 0.930 . S
C978 C979 1.367 1_565 S
C978 C986 1.378 . S
C979 C978 1.367 1_545 S
C979 C987 1.433 . S
C980 H976 0.929 . S
C980 C982 1.378 . S
C980 C984 1.350 . S
C981 C984 1.463 . S
C981 C986 1.350 1_545 S
C981 N989 1.427 . S
C982 H973 0.930 . S
C982 C980 1.378 . S
C982 C983 1.367 . S
C983 C982 1.367 . S
C983 C985 1.433 1_545 S
C984 C980 1.350 . S
C984 C981 1.463 . S
C984 N988 1.427 1_545 S
C985 H975 0.929 . S
C985 C983 1.433 1_565 S
C985 N988 1.384 . S
C986 H977 0.929 . S
C986 C978 1.378 . S
C986 C981 1.350 1_565 S
C987 H974 0.929 . S
C987 C979 1.433 . S
C987 N989 1.384 . S
N988 C984 1.427 1_565 S
N988 C985 1.384 . S
N989 C981 1.427 . S
N989 C987 1.384 . S
H990 C996 0.930 . S
H991 C1000 0.930 1_655 S
H992 C1005 0.929 . S
H993 C1003 0.929 . S
H994 C998 0.929 . S
H995 C1004 0.929 . S
C996 H990 0.930 . S
C996 C997 1.367 . S
C996 C1004 1.378 . S
C997 C996 1.367 . S
C997 C1005 1.433 1_455 S
C998 H994 0.929 . S
C998 C1000 1.378 1_655 S
C998 C1002 1.350 1_655 S
C999 C1002 1.463 . S
C999 C1004 1.350 . S
C999 N1007 1.427 1_455 S
C1000 H991 0.930 1_455 S
C1000 C998 1.378 1_455 S
C1000 C1001 1.367 . S
C1001 C1000 1.367 . S
C1001 C1003 1.433 . S
C1002 C998 1.350 1_455 S
C1002 C999 1.463 . S
C1002 N1006 1.427 . S
C1003 H993 0.929 . S
C1003 C1001 1.433 . S
C1003 N1006 1.384 . S
C1004 H995 0.929 . S
C1004 C996 1.378 . S
C1004 C999 1.350 . S
C1005 H992 0.929 . S
C1005 C997 1.433 1_655 S
C1005 N1007 1.384 . S
N1006 C1002 1.427 . S
N1006 C1003 1.384 . S
N1007 C999 1.427 1_655 S
N1007 C1005 1.384 . S
H1008 C1014 0.930 . S
H1009 C1018 0.930 . S
H1010 C1023 0.929 . S
H1011 C1021 0.929 . S
H1012 C1016 0.929 . S
H1013 C1022 0.929 . S
C1014 H1008 0.930 . S
C1014 C1015 1.367 . S
C1014 C1022 1.378 . S
C1015 C1014 1.367 . S
C1015 C1023 1.433 . S
C1016 H1012 0.929 . S
C1016 C1018 1.378 . S
C1016 C1020 1.350 . S
C1017 C1020 1.463 . S
C1017 C1022 1.350 . S
C1017 N1025 1.427 . S
C1018 H1009 0.930 . S
C1018 C1016 1.378 . S
C1018 C1019 1.367 . S
C1019 C1018 1.367 . S
C1019 C1021 1.433 . S
C1020 C1016 1.350 . S
C1020 C1017 1.463 . S
C1020 N1024 1.427 . S
C1021 H1011 0.929 . S
C1021 C1019 1.433 . S
C1021 N1024 1.384 . S
C1022 H1013 0.929 . S
C1022 C1014 1.378 . S
C1022 C1017 1.350 . S
C1023 H1010 0.929 . S
C1023 C1015 1.433 . S
C1023 N1025 1.384 . S
N1024 C1020 1.427 . S
N1024 C1021 1.384 . S
N1025 C1017 1.427 . S
N1025 C1023 1.384 . S
H1026 C1032 0.930 . S
H1027 C1036 0.930 . S
H1028 C1041 0.929 . S
H1029 C1039 0.929 . S
H1030 C1034 0.929 . S
H1031 C1040 0.929 . S
C1032 H1026 0.930 . S
C1032 C1033 1.367 1_565 S
C1032 C1040 1.378 . S
C1033 C1032 1.367 1_545 S
C1033 C1041 1.433 . S
C1034 H1030 0.929 . S
C1034 C1036 1.378 . S
C1034 C1038 1.350 . S
C1035 C1038 1.463 . S
C1035 C1040 1.350 1_545 S
C1035 N1043 1.427 . S
C1036 H1027 0.930 . S
C1036 C1034 1.378 . S
C1036 C1037 1.348 1_545 S
C1037 C1036 1.348 1_565 S
C1037 C1039 1.459 . S
C1038 C1034 1.350 . S
C1038 C1035 1.463 . S
C1038 N1042 1.427 1_545 S
C1039 H1029 0.929 . S
C1039 C1037 1.459 . S
C1039 N1042 1.384 . S
C1040 H1031 0.929 . S
C1040 C1032 1.378 . S
C1040 C1035 1.350 1_565 S
C1041 H1028 0.929 . S
C1041 C1033 1.433 . S
C1041 N1043 1.384 . S
N1042 C1038 1.427 1_565 S
N1042 C1039 1.384 . S
N1043 C1035 1.427 . S
N1043 C1041 1.384 . S
H1044 C1050 0.930 . S
H1045 C1054 0.930 . S
H1046 C1059 0.929 . S
H1047 C1057 0.929 1_655 S
H1048 C1052 0.929 . S
H1049 C1058 0.927 1_655 S
C1050 H1044 0.930 . S
C1050 C1051 1.367 1_655 S
C1050 C1058 1.376 1_655 S
C1051 C1050 1.367 1_455 S
C1051 C1059 1.433 . S
C1052 H1048 0.929 . S
C1052 C1054 1.378 . S
C1052 C1056 1.350 . S
C1053 C1056 1.463 . S
C1053 C1058 1.353 . S
C1053 N1061 1.427 . S
C1054 H1045 0.930 . S
C1054 C1052 1.378 . S
C1054 C1055 1.367 . S
C1055 C1054 1.367 . S
C1055 C1057 1.433 . S
C1056 C1052 1.350 . S
C1056 C1053 1.463 . S
C1056 N1060 1.427 . S
C1057 H1047 0.929 1_455 S
C1057 C1055 1.433 . S
C1057 N1060 1.384 . S
C1058 H1049 0.927 1_455 S
C1058 C1050 1.376 1_455 S
C1058 C1053 1.353 . S
C1059 H1046 0.929 . S
C1059 C1051 1.433 . S
C1059 N1061 1.384 . S
N1060 C1056 1.427 . S
N1060 C1057 1.384 . S
N1061 C1053 1.427 . S
N1061 C1059 1.384 . S
H1062 C1068 0.930 . S
H1063 C1072 0.930 . S
H1064 C1077 0.929 . S
H1065 C1075 0.929 . S
H1066 C1070 0.929 . S
H1067 C1076 0.929 . S
C1068 H1062 0.930 . S
C1068 C1069 1.367 . S
C1068 C1076 1.378 . S
C1069 C1068 1.367 . S
C1069 C1077 1.433 . S
C1070 H1066 0.929 . S
C1070 C1072 1.378 . S
C1070 C1074 1.350 . S
C1071 C1074 1.463 . S
C1071 C1076 1.350 . S
C1071 N1079 1.427 . S
C1072 H1063 0.930 . S
C1072 C1070 1.378 . S
C1072 C1073 1.367 . S
C1073 C1072 1.367 . S
C1073 C1075 1.433 . S
C1074 C1070 1.350 . S
C1074 C1071 1.463 . S
C1074 N1078 1.427 . S
C1075 H1065 0.929 . S
C1075 C1073 1.433 . S
C1075 N1078 1.384 . S
C1076 H1067 0.929 . S
C1076 C1068 1.378 . S
C1076 C1071 1.350 . S
C1077 H1064 0.929 . S
C1077 C1069 1.433 . S
C1077 N1079 1.384 . S
N1078 C1074 1.427 . S
N1078 C1075 1.384 . S
N1079 C1071 1.427 . S
N1079 C1077 1.384 . S
H1080 C1086 0.930 . S
H1081 C1090 0.930 1_565 S
H1082 C1095 0.929 . S
H1083 C1093 0.929 . S
H1084 C1088 0.929 1_565 S
H1085 C1094 0.929 . S
C1086 H1080 0.930 . S
C1086 C1087 1.367 . S
C1086 C1094 1.378 . S
C1087 C1086 1.367 . S
C1087 C1095 1.433 1_545 S
C1088 H1084 0.929 1_545 S
C1088 C1090 1.378 . S
C1088 C1092 1.350 . S
C1089 C1092 1.463 . S
C1089 C1094 1.350 . S
C1089 N1097 1.427 1_545 S
C1090 H1081 0.930 1_545 S
C1090 C1088 1.378 . S
C1090 C1091 1.367 . S
C1091 C1090 1.367 . S
C1091 C1093 1.433 . S
C1092 C1088 1.350 . S
C1092 C1089 1.463 . S
C1092 N1096 1.427 . S
C1093 H1083 0.929 . S
C1093 C1091 1.433 . S
C1093 N1096 1.384 . S
C1094 H1085 0.929 . S
C1094 C1086 1.378 . S
C1094 C1089 1.350 . S
C1095 H1082 0.929 . S
C1095 C1087 1.433 1_565 S
C1095 N1097 1.384 . S
N1096 C1092 1.427 . S
N1096 C1093 1.384 . S
N1097 C1089 1.427 1_565 S
N1097 C1095 1.384 . S
H1098 C1104 0.930 . S
H1099 C1108 0.930 . S
H1100 C1113 0.929 . S
H1101 C1111 0.929 . S
H1102 C1106 0.929 . S
H1103 C1112 0.929 . S
C1104 H1098 0.930 . S
C1104 C1105 1.367 . S
C1104 C1112 1.378 . S
C1105 C1104 1.367 . S
C1105 C1113 1.433 . S
C1106 H1102 0.929 . S
C1106 C1108 1.378 . S
C1106 C1110 1.350 . S
C1107 C1110 1.463 . S
C1107 C1112 1.350 . S
C1107 N1115 1.427 . S
C1108 H1099 0.930 . S
C1108 C1106 1.378 . S
C1108 C1109 1.367 . S
C1109 C1108 1.367 . S
C1109 C1111 1.433 . S
C1110 C1106 1.350 . S
C1110 C1107 1.463 . S
C1110 N1114 1.427 . S
C1111 H1101 0.929 . S
C1111 C1109 1.433 . S
C1111 N1114 1.384 . S
C1112 H1103 0.929 . S
C1112 C1104 1.378 . S
C1112 C1107 1.350 . S
C1113 H1100 0.929 . S
C1113 C1105 1.433 . S
C1113 N1115 1.384 . S
N1114 C1110 1.427 . S
N1114 C1111 1.384 . S
N1115 C1107 1.427 . S
N1115 C1113 1.384 . S
H1116 C1122 0.930 . S
H1117 C1126 0.930 . S
H1118 C1131 0.929 . S
H1119 C1129 0.929 . S
H1120 C1124 0.929 . S
H1121 C1130 0.929 . S
C1122 H1116 0.930 . S
C1122 C1123 1.367 . S
C1122 C1130 1.378 . S
C1123 C1122 1.367 . S
C1123 C1131 1.433 . S
C1124 H1120 0.929 . S
C1124 C1126 1.378 . S
C1124 C1128 1.350 . S
C1125 C1128 1.463 . S
C1125 C1130 1.350 . S
C1125 N1133 1.427 . S
C1126 H1117 0.930 . S
C1126 C1124 1.378 . S
C1126 C1127 1.367 . S
C1127 C1126 1.367 . S
C1127 C1129 1.433 . S
C1128 C1124 1.350 . S
C1128 C1125 1.463 . S
C1128 N1132 1.427 . S
C1129 H1119 0.929 . S
C1129 C1127 1.433 . S
C1129 N1132 1.384 . S
C1130 H1121 0.929 . S
C1130 C1122 1.378 . S
C1130 C1125 1.350 . S
C1131 H1118 0.929 . S
C1131 C1123 1.433 . S
C1131 N1133 1.384 . S
N1132 C1128 1.427 . S
N1132 C1129 1.384 . S
N1133 C1125 1.427 . S
N1133 C1131 1.384 . S
H1134 C1140 0.930 . S
H1135 C1144 0.930 . S
H1136 C1149 0.929 . S
H1137 C1147 0.929 . S
H1138 C1142 0.929 . S
H1139 C1148 0.929 . S
C1140 H1134 0.930 . S
C1140 C1141 1.367 . S
C1140 C1148 1.378 . S
C1141 C1140 1.367 . S
C1141 C1149 1.433 . S
C1142 H1138 0.929 . S
C1142 C1144 1.378 . S
C1142 C1146 1.350 . S
C1143 C1146 1.463 . S
C1143 C1148 1.350 . S
C1143 N1151 1.427 . S
C1144 H1135 0.930 . S
C1144 C1142 1.378 . S
C1144 C1145 1.367 . S
C1145 C1144 1.367 . S
C1145 C1147 1.433 . S
C1146 C1142 1.350 . S
C1146 C1143 1.463 . S
C1146 N1150 1.427 . S
C1147 H1137 0.929 . S
C1147 C1145 1.433 . S
C1147 N1150 1.384 . S
C1148 H1139 0.929 . S
C1148 C1140 1.378 . S
C1148 C1143 1.350 . S
C1149 H1136 0.929 . S
C1149 C1141 1.433 . S
C1149 N1151 1.384 . S
N1150 C1146 1.427 . S
N1150 C1147 1.384 . S
N1151 C1143 1.427 . S
N1151 C1149 1.384 . S
H1152 C1158 0.930 . S
H1153 C1162 0.930 . S
H1154 C1167 0.929 . S
H1155 C1165 0.929 . S
H1156 C1160 0.929 . S
H1157 C1166 0.929 . S
C1158 H1152 0.930 . S
C1158 C1159 1.367 . S
C1158 C1166 1.378 . S
C1159 C1158 1.367 . S
C1159 C1167 1.433 . S
C1160 H1156 0.929 . S
C1160 C1162 1.378 . S
C1160 C1164 1.350 . S
C1161 C1164 1.463 . S
C1161 C1166 1.350 . S
C1161 N1169 1.427 . S
C1162 H1153 0.930 . S
C1162 C1160 1.378 . S
C1162 C1163 1.367 . S
C1163 C1162 1.367 . S
C1163 C1165 1.433 . S
C1164 C1160 1.350 . S
C1164 C1161 1.463 . S
C1164 N1168 1.427 . S
C1165 H1155 0.929 . S
C1165 C1163 1.433 . S
C1165 N1168 1.384 . S
C1166 H1157 0.929 . S
C1166 C1158 1.378 . S
C1166 C1161 1.350 . S
C1167 H1154 0.929 . S
C1167 C1159 1.433 . S
C1167 N1169 1.384 . S
N1168 C1164 1.427 . S
N1168 C1165 1.384 . S
N1169 C1161 1.427 . S
N1169 C1167 1.384 . S
H1170 C1176 0.930 . S
H1171 C1180 0.930 . S
H1172 C1185 0.929 . S
H1173 C1183 0.929 . S
H1174 C1178 0.929 . S
H1175 C1184 0.929 . S
C1176 H1170 0.930 . S
C1176 C1177 1.367 . S
C1176 C1184 1.378 . S
C1177 C1176 1.367 . S
C1177 C1185 1.433 . S
C1178 H1174 0.929 . S
C1178 C1180 1.378 . S
C1178 C1182 1.350 . S
C1179 C1182 1.463 . S
C1179 C1184 1.350 . S
C1179 N1187 1.427 . S
C1180 H1171 0.930 . S
C1180 C1178 1.378 . S
C1180 C1181 1.367 . S
C1181 C1180 1.367 . S
C1181 C1183 1.433 . S
C1182 C1178 1.350 . S
C1182 C1179 1.463 . S
C1182 N1186 1.427 . S
C1183 H1173 0.929 . S
C1183 C1181 1.433 . S
C1183 N1186 1.384 . S
C1184 H1175 0.929 . S
C1184 C1176 1.378 . S
C1184 C1179 1.350 . S
C1185 H1172 0.929 . S
C1185 C1177 1.433 . S
C1185 N1187 1.384 . S
N1186 C1182 1.427 . S
N1186 C1183 1.384 . S
N1187 C1179 1.427 . S
N1187 C1185 1.384 . S
H1188 C1194 0.930 . S
H1189 C1198 0.930 . S
H1190 C1203 0.929 . S
H1191 C1201 0.929 . S
H1192 C1196 0.929 . S
H1193 C1202 0.929 . S
C1194 H1188 0.930 . S
C1194 C1195 1.367 . S
C1194 C1202 1.378 . S
C1195 C1194 1.367 . S
C1195 C1203 1.433 . S
C1196 H1192 0.929 . S
C1196 C1198 1.378 . S
C1196 C1200 1.350 . S
C1197 C1200 1.463 . S
C1197 C1202 1.350 . S
C1197 N1205 1.427 . S
C1198 H1189 0.930 . S
C1198 C1196 1.378 . S
C1198 C1199 1.367 . S
C1199 C1198 1.367 . S
C1199 C1201 1.433 . S
C1200 C1196 1.350 . S
C1200 C1197 1.463 . S
C1200 N1204 1.427 . S
C1201 H1191 0.929 . S
C1201 C1199 1.433 . S
C1201 N1204 1.384 . S
C1202 H1193 0.929 . S
C1202 C1194 1.378 . S
C1202 C1197 1.350 . S
C1203 H1190 0.929 . S
C1203 C1195 1.433 . S
C1203 N1205 1.384 . S
N1204 C1200 1.427 . S
N1204 C1201 1.384 . S
N1205 C1197 1.427 . S
N1205 C1203 1.384 . S
H1206 C1212 0.930 . S
H1207 C1216 0.930 . S
H1208 C1221 0.929 . S
H1209 C1219 0.929 . S
H1210 C1214 0.929 . S
H1211 C1220 0.929 . S
C1212 H1206 0.930 . S
C1212 C1213 1.367 . S
C1212 C1220 1.378 . S
C1213 C1212 1.367 . S
C1213 C1221 1.433 . S
C1214 H1210 0.929 . S
C1214 C1216 1.378 . S
C1214 C1218 1.350 . S
C1215 C1218 1.463 . S
C1215 C1220 1.350 . S
C1215 N1223 1.427 . S
C1216 H1207 0.930 . S
C1216 C1214 1.378 . S
C1216 C1217 1.367 . S
C1217 C1216 1.367 . S
C1217 C1219 1.433 . S
C1218 C1214 1.350 . S
C1218 C1215 1.463 . S
C1218 N1222 1.427 . S
C1219 H1209 0.929 . S
C1219 C1217 1.433 . S
C1219 N1222 1.384 . S
C1220 H1211 0.929 . S
C1220 C1212 1.378 . S
C1220 C1215 1.350 . S
C1221 H1208 0.929 . S
C1221 C1213 1.433 . S
C1221 N1223 1.384 . S
N1222 C1218 1.427 . S
N1222 C1219 1.384 . S
N1223 C1215 1.427 . S
N1223 C1221 1.384 . S
H1224 C1230 0.930 . S
H1225 C1234 0.930 . S
H1226 C1239 0.929 . S
H1227 C1237 0.929 . S
H1228 C1232 0.929 . S
H1229 C1238 0.929 . S
C1230 H1224 0.930 . S
C1230 C1231 1.367 . S
C1230 C1238 1.378 . S
C1231 C1230 1.367 . S
C1231 C1239 1.433 . S
C1232 H1228 0.929 . S
C1232 C1234 1.378 . S
C1232 C1236 1.350 . S
C1233 C1236 1.463 . S
C1233 C1238 1.350 . S
C1233 N1241 1.427 . S
C1234 H1225 0.930 . S
C1234 C1232 1.378 . S
C1234 C1235 1.367 . S
C1235 C1234 1.367 . S
C1235 C1237 1.433 . S
C1236 C1232 1.350 . S
C1236 C1233 1.463 . S
C1236 N1240 1.427 . S
C1237 H1227 0.929 . S
C1237 C1235 1.433 . S
C1237 N1240 1.384 . S
C1238 H1229 0.929 . S
C1238 C1230 1.378 . S
C1238 C1233 1.350 . S
C1239 H1226 0.929 . S
C1239 C1231 1.433 . S
C1239 N1241 1.384 . S
N1240 C1236 1.427 . S
N1240 C1237 1.384 . S
N1241 C1233 1.427 . S
N1241 C1239 1.384 . S
H1242 C1248 0.930 . S
H1243 C1252 0.930 . S
H1244 C1257 0.929 . S
H1245 C1255 0.929 . S
H1246 C1250 0.929 . S
H1247 C1256 0.929 . S
C1248 H1242 0.930 . S
C1248 C1249 1.367 . S
C1248 C1256 1.378 . S
C1249 C1248 1.367 . S
C1249 C1257 1.433 . S
C1250 H1246 0.929 . S
C1250 C1252 1.378 . S
C1250 C1254 1.350 . S
C1251 C1254 1.463 . S
C1251 C1256 1.350 . S
C1251 N1259 1.427 . S
C1252 H1243 0.930 . S
C1252 C1250 1.378 . S
C1252 C1253 1.367 . S
C1253 C1252 1.367 . S
C1253 C1255 1.433 . S
C1254 C1250 1.350 . S
C1254 C1251 1.463 . S
C1254 N1258 1.427 . S
C1255 H1245 0.929 . S
C1255 C1253 1.433 . S
C1255 N1258 1.384 . S
C1256 H1247 0.929 . S
C1256 C1248 1.378 . S
C1256 C1251 1.350 . S
C1257 H1244 0.929 . S
C1257 C1249 1.433 . S
C1257 N1259 1.384 . S
N1258 C1254 1.427 . S
N1258 C1255 1.384 . S
N1259 C1251 1.427 . S
N1259 C1257 1.384 . S
H1260 C1266 0.930 . S
H1261 C1270 0.930 . S
H1262 C1275 0.929 . S
H1263 C1273 0.929 . S
H1264 C1268 0.929 . S
H1265 C1274 0.929 . S
C1266 H1260 0.930 . S
C1266 C1267 1.367 . S
C1266 C1274 1.378 . S
C1267 C1266 1.367 . S
C1267 C1275 1.433 . S
C1268 H1264 0.929 . S
C1268 C1270 1.378 . S
C1268 C1272 1.350 . S
C1269 C1272 1.463 . S
C1269 C1274 1.350 . S
C1269 N1277 1.427 . S
C1270 H1261 0.930 . S
C1270 C1268 1.378 . S
C1270 C1271 1.367 . S
C1271 C1270 1.367 . S
C1271 C1273 1.433 . S
C1272 C1268 1.350 . S
C1272 C1269 1.463 . S
C1272 N1276 1.427 . S
C1273 H1263 0.929 . S
C1273 C1271 1.433 . S
C1273 N1276 1.384 . S
C1274 H1265 0.929 . S
C1274 C1266 1.378 . S
C1274 C1269 1.350 . S
C1275 H1262 0.929 . S
C1275 C1267 1.433 . S
C1275 N1277 1.384 . S
N1276 C1272 1.427 . S
N1276 C1273 1.384 . S
N1277 C1269 1.427 . S
N1277 C1275 1.384 . S
H1278 C1284 0.930 . S
H1279 C1288 0.930 . S
H1280 C1293 0.929 . S
H1281 C1291 0.929 . S
H1282 C1286 0.929 . S
H1283 C1292 0.929 . S
C1284 H1278 0.930 . S
C1284 C1285 1.367 . S
C1284 C1292 1.378 . S
C1285 C1284 1.367 . S
C1285 C1293 1.433 . S
C1286 H1282 0.929 . S
C1286 C1288 1.378 . S
C1286 C1290 1.350 . S
C1287 C1290 1.463 . S
C1287 C1292 1.350 . S
C1287 N1295 1.427 . S
C1288 H1279 0.930 . S
C1288 C1286 1.378 . S
C1288 C1289 1.367 . S
C1289 C1288 1.367 . S
C1289 C1291 1.433 . S
C1290 C1286 1.350 . S
C1290 C1287 1.463 . S
C1290 N1294 1.427 . S
C1291 H1281 0.929 . S
C1291 C1289 1.433 . S
C1291 N1294 1.384 . S
C1292 H1283 0.929 . S
C1292 C1284 1.378 . S
C1292 C1287 1.350 . S
C1293 H1280 0.929 . S
C1293 C1285 1.433 . S
C1293 N1295 1.384 . S
N1294 C1290 1.427 . S
N1294 C1291 1.384 . S
N1295 C1287 1.427 . S
N1295 C1293 1.384 . S
H1296 C1302 0.930 . S
H1297 C1306 0.930 . S
H1298 C1311 0.929 . S
H1299 C1309 0.929 . S
H1300 C1304 0.929 . S
H1301 C1310 0.929 . S
C1302 H1296 0.930 . S
C1302 C1303 1.367 . S
C1302 C1310 1.378 . S
C1303 C1302 1.367 . S
C1303 C1311 1.433 . S
C1304 H1300 0.929 . S
C1304 C1306 1.378 . S
C1304 C1308 1.350 . S
C1305 C1308 1.463 . S
C1305 C1310 1.350 . S
C1305 N1313 1.427 . S
C1306 H1297 0.930 . S
C1306 C1304 1.378 . S
C1306 C1307 1.367 . S
C1307 C1306 1.367 . S
C1307 C1309 1.433 . S
C1308 C1304 1.350 . S
C1308 C1305 1.463 . S
C1308 N1312 1.427 . S
C1309 H1299 0.929 . S
C1309 C1307 1.433 . S
C1309 N1312 1.384 . S
C1310 H1301 0.929 . S
C1310 C1302 1.378 . S
C1310 C1305 1.350 . S
C1311 H1298 0.929 . S
C1311 C1303 1.433 . S
C1311 N1313 1.384 . S
N1312 C1308 1.427 . S
N1312 C1309 1.384 . S
N1313 C1305 1.427 . S
N1313 C1311 1.384 . S
H1314 C1320 0.930 . S
H1315 C1324 0.930 . S
H1316 C1329 0.929 . S
H1317 C1327 0.929 . S
H1318 C1322 0.929 . S
H1319 C1328 0.929 . S
C1320 H1314 0.930 . S
C1320 C1321 1.367 . S
C1320 C1328 1.378 . S
C1321 C1320 1.367 . S
C1321 C1329 1.433 . S
C1322 H1318 0.929 . S
C1322 C1324 1.378 . S
C1322 C1326 1.350 . S
C1323 C1326 1.463 . S
C1323 C1328 1.350 . S
C1323 N1331 1.427 . S
C1324 H1315 0.930 . S
C1324 C1322 1.378 . S
C1324 C1325 1.367 . S
C1325 C1324 1.367 . S
C1325 C1327 1.433 . S
C1326 C1322 1.350 . S
C1326 C1323 1.463 . S
C1326 N1330 1.427 . S
C1327 H1317 0.929 . S
C1327 C1325 1.433 . S
C1327 N1330 1.384 . S
C1328 H1319 0.929 . S
C1328 C1320 1.378 . S
C1328 C1323 1.350 . S
C1329 H1316 0.929 . S
C1329 C1321 1.433 . S
C1329 N1331 1.384 . S
N1330 C1326 1.427 . S
N1330 C1327 1.384 . S
N1331 C1323 1.427 . S
N1331 C1329 1.384 . S
H1332 C1338 0.930 . S
H1333 C1342 0.930 . S
H1334 C1347 0.929 . S
H1335 C1345 0.929 . S
H1336 C1340 0.929 . S
H1337 C1346 0.929 . S
C1338 H1332 0.930 . S
C1338 C1339 1.367 . S
C1338 C1346 1.378 . S
C1339 C1338 1.367 . S
C1339 C1347 1.433 . S
C1340 H1336 0.929 . S
C1340 C1342 1.378 . S
C1340 C1344 1.350 . S
C1341 C1344 1.463 . S
C1341 C1346 1.350 . S
C1341 N1349 1.427 . S
C1342 H1333 0.930 . S
C1342 C1340 1.378 . S
C1342 C1343 1.367 . S
C1343 C1342 1.367 . S
C1343 C1345 1.433 . S
C1344 C1340 1.350 . S
C1344 C1341 1.463 . S
C1344 N1348 1.427 . S
C1345 H1335 0.929 . S
C1345 C1343 1.433 . S
C1345 N1348 1.384 . S
C1346 H1337 0.929 . S
C1346 C1338 1.378 . S
C1346 C1341 1.350 . S
C1347 H1334 0.929 . S
C1347 C1339 1.433 . S
C1347 N1349 1.384 . S
N1348 C1344 1.427 . S
N1348 C1345 1.384 . S
N1349 C1341 1.427 . S
N1349 C1347 1.384 . S
H1350 C1356 0.930 . S
H1351 C1360 0.930 . S
H1352 C1365 0.929 . S
H1353 C1363 0.929 . S
H1354 C1358 0.929 . S
H1355 C1364 0.929 . S
C1356 H1350 0.930 . S
C1356 C1357 1.367 . S
C1356 C1364 1.378 . S
C1357 C1356 1.367 . S
C1357 C1365 1.433 . S
C1358 H1354 0.929 . S
C1358 C1360 1.378 . S
C1358 C1362 1.350 . S
C1359 C1362 1.463 . S
C1359 C1364 1.350 . S
C1359 N1367 1.427 . S
C1360 H1351 0.930 . S
C1360 C1358 1.378 . S
C1360 C1361 1.367 . S
C1361 C1360 1.367 . S
C1361 C1363 1.433 . S
C1362 C1358 1.350 . S
C1362 C1359 1.463 . S
C1362 N1366 1.427 . S
C1363 H1353 0.929 . S
C1363 C1361 1.433 . S
C1363 N1366 1.384 . S
C1364 H1355 0.929 . S
C1364 C1356 1.378 . S
C1364 C1359 1.350 . S
C1365 H1352 0.929 . S
C1365 C1357 1.433 . S
C1365 N1367 1.384 . S
N1366 C1362 1.427 . S
N1366 C1363 1.384 . S
N1367 C1359 1.427 . S
N1367 C1365 1.384 . S
H1368 C1374 0.930 . S
H1369 C1378 0.930 . S
H1370 C1383 0.929 . S
H1371 C1381 0.929 . S
H1372 C1376 0.929 . S
H1373 C1382 0.929 . S
C1374 H1368 0.930 . S
C1374 C1375 1.367 . S
C1374 C1382 1.378 . S
C1375 C1374 1.367 . S
C1375 C1383 1.433 . S
C1376 H1372 0.929 . S
C1376 C1378 1.378 . S
C1376 C1380 1.350 . S
C1377 C1380 1.463 . S
C1377 C1382 1.350 . S
C1377 N1385 1.427 . S
C1378 H1369 0.930 . S
C1378 C1376 1.378 . S
C1378 C1379 1.367 . S
C1379 C1378 1.367 . S
C1379 C1381 1.433 . S
C1380 C1376 1.350 . S
C1380 C1377 1.463 . S
C1380 N1384 1.427 . S
C1381 H1371 0.929 . S
C1381 C1379 1.433 . S
C1381 N1384 1.384 . S
C1382 H1373 0.929 . S
C1382 C1374 1.378 . S
C1382 C1377 1.350 . S
C1383 H1370 0.929 . S
C1383 C1375 1.433 . S
C1383 N1385 1.384 . S
N1384 C1380 1.427 . S
N1384 C1381 1.384 . S
N1385 C1377 1.427 . S
N1385 C1383 1.384 . S
H1386 C1392 0.930 . S
H1387 C1396 0.926 . S
H1388 C1401 0.929 . S
H1389 C1399 0.929 . S
H1390 C1394 0.929 . S
H1391 C1400 0.929 . S
C1392 H1386 0.930 . S
C1392 C1393 1.367 . S
C1392 C1400 1.378 . S
C1393 C1392 1.367 . S
C1393 C1401 1.433 . S
C1394 H1390 0.929 . S
C1394 C1396 1.378 . S
C1394 C1398 1.350 . S
C1395 C1398 1.463 . S
C1395 C1400 1.350 . S
C1395 N1403 1.427 . S
C1396 H1387 0.926 . S
C1396 C1394 1.378 . S
C1396 C1397 1.367 . S
C1397 C1396 1.367 . S
C1397 C1399 1.433 . S
C1398 C1394 1.350 . S
C1398 C1395 1.463 . S
C1398 N1402 1.427 . S
C1399 H1389 0.929 . S
C1399 C1397 1.433 . S
C1399 N1402 1.384 . S
C1400 H1391 0.929 . S
C1400 C1392 1.378 . S
C1400 C1395 1.350 . S
C1401 H1388 0.929 . S
C1401 C1393 1.433 . S
C1401 N1403 1.384 . S
N1402 C1398 1.427 . S
N1402 C1399 1.384 . S
N1403 C1395 1.427 . S
N1403 C1401 1.384 . S
H1404 C1410 0.930 . S
H1405 C1414 0.930 . S
H1406 C1419 0.929 . S
H1407 C1417 0.929 1_554 S
H1408 C1412 0.929 . S
H1409 C1418 0.929 . S
C1410 H1404 0.930 . S
C1410 C1411 1.367 . S
C1410 C1418 1.378 . S
C1411 C1410 1.367 . S
C1411 C1419 1.433 . S
C1412 H1408 0.929 . S
C1412 C1414 1.378 . S
C1412 C1416 1.350 . S
C1413 C1416 1.463 . S
C1413 C1418 1.350 . S
C1413 N1421 1.427 . S
C1414 H1405 0.930 . S
C1414 C1412 1.378 . S
C1414 C1415 1.367 . S
C1415 C1414 1.367 . S
C1415 C1417 1.433 . S
C1416 C1412 1.350 . S
C1416 C1413 1.463 . S
C1416 N1420 1.427 . S
C1417 H1407 0.929 1_556 S
C1417 C1415 1.433 . S
C1417 N1420 1.384 . S
C1418 H1409 0.929 . S
C1418 C1410 1.378 . S
C1418 C1413 1.350 . S
C1419 H1406 0.929 . S
C1419 C1411 1.433 . S
C1419 N1421 1.384 . S
N1420 C1416 1.427 . S
N1420 C1417 1.384 . S
N1421 C1413 1.427 . S
N1421 C1419 1.384 . S
H1422 C1428 0.930 . S
H1423 C1432 0.930 1_554 S
H1424 C1437 0.929 . S
H1425 C1435 0.929 . S
H1426 C1430 0.929 . S
H1427 C1436 0.929 . S
C1428 H1422 0.930 . S
C1428 C1429 1.367 . S
C1428 C1436 1.378 . S
C1429 C1428 1.367 . S
C1429 C1437 1.433 . S
C1430 H1426 0.929 . S
C1430 C1432 1.378 . S
C1430 C1434 1.350 . S
C1431 C1434 1.463 . S
C1431 C1436 1.350 . S
C1431 N1439 1.427 . S
C1432 H1423 0.930 1_556 S
C1432 C1430 1.378 . S
C1432 C1433 1.367 . S
C1433 C1432 1.367 . S
C1433 C1435 1.433 . S
C1434 C1430 1.350 . S
C1434 C1431 1.463 . S
C1434 N1438 1.427 . S
C1435 H1425 0.929 . S
C1435 C1433 1.433 . S
C1435 N1438 1.384 . S
C1436 H1427 0.929 . S
C1436 C1428 1.378 . S
C1436 C1431 1.350 . S
C1437 H1424 0.929 . S
C1437 C1429 1.433 . S
C1437 N1439 1.384 . S
N1438 C1434 1.427 . S
N1438 C1435 1.384 . S
N1439 C1431 1.427 . S
N1439 C1437 1.384 . S
H1440 C1446 0.930 . S
H1441 C1450 0.930 . S
H1442 C1455 0.929 . S
H1443 C1453 0.929 . S
H1444 C1448 0.929 . S
H1445 C1454 0.929 . S
C1446 H1440 0.930 . S
C1446 C1447 1.367 . S
C1446 C1454 1.378 . S
C1447 C1446 1.367 . S
C1447 C1455 1.433 . S
C1448 H1444 0.929 . S
C1448 C1450 1.378 . S
C1448 C1452 1.350 . S
C1449 C1452 1.463 . S
C1449 C1454 1.350 . S
C1449 N1457 1.427 . S
C1450 H1441 0.930 . S
C1450 C1448 1.378 . S
C1450 C1451 1.367 . S
C1451 C1450 1.367 . S
C1451 C1453 1.433 . S
C1452 C1448 1.350 . S
C1452 C1449 1.463 . S
C1452 N1456 1.427 . S
C1453 H1443 0.929 . S
C1453 C1451 1.433 . S
C1453 N1456 1.384 . S
C1454 H1445 0.929 . S
C1454 C1446 1.378 . S
C1454 C1449 1.350 . S
C1455 H1442 0.929 . S
C1455 C1447 1.433 . S
C1455 N1457 1.384 . S
N1456 C1452 1.427 . S
N1456 C1453 1.384 . S
N1457 C1449 1.427 . S
N1457 C1455 1.384 . S
H1458 C1464 0.930 . S
H1459 C1468 0.930 . S
H1460 C1473 0.929 . S
H1461 C1471 0.929 . S
H1462 C1466 0.929 . S
H1463 C1472 0.929 . S
C1464 H1458 0.930 . S
C1464 C1465 1.367 . S
C1464 C1472 1.378 . S
C1465 C1464 1.367 . S
C1465 C1473 1.433 . S
C1466 H1462 0.929 . S
C1466 C1468 1.378 . S
C1466 C1470 1.350 . S
C1467 C1470 1.463 . S
C1467 C1472 1.350 . S
C1467 N1475 1.427 . S
C1468 H1459 0.930 . S
C1468 C1466 1.378 . S
C1468 C1469 1.367 . S
C1469 C1468 1.367 . S
C1469 C1471 1.433 . S
C1470 C1466 1.350 . S
C1470 C1467 1.463 . S
C1470 N1474 1.427 . S
C1471 H1461 0.929 . S
C1471 C1469 1.433 . S
C1471 N1474 1.384 . S
C1472 H1463 0.929 . S
C1472 C1464 1.378 . S
C1472 C1467 1.350 . S
C1473 H1460 0.929 . S
C1473 C1465 1.433 . S
C1473 N1475 1.384 . S
N1474 C1470 1.427 . S
N1474 C1471 1.384 . S
N1475 C1467 1.427 . S
N1475 C1473 1.384 . S
H1476 C1482 0.930 . S
H1477 C1486 0.930 . S
H1478 C1491 0.929 . S
H1479 C1489 0.929 . S
H1480 C1484 0.929 . S
H1481 C1490 0.929 . S
C1482 H1476 0.930 . S
C1482 C1483 1.367 . S
C1482 C1490 1.378 . S
C1483 C1482 1.367 . S
C1483 C1491 1.433 . S
C1484 H1480 0.929 . S
C1484 C1486 1.378 . S
C1484 C1488 1.350 . S
C1485 C1488 1.463 . S
C1485 C1490 1.350 . S
C1485 N1493 1.427 . S
C1486 H1477 0.930 . S
C1486 C1484 1.378 . S
C1486 C1487 1.367 . S
C1487 C1486 1.367 . S
C1487 C1489 1.433 . S
C1488 C1484 1.350 . S
C1488 C1485 1.463 . S
C1488 N1492 1.427 . S
C1489 H1479 0.929 . S
C1489 C1487 1.433 . S
C1489 N1492 1.384 . S
C1490 H1481 0.929 . S
C1490 C1482 1.378 . S
C1490 C1485 1.350 . S
C1491 H1478 0.929 . S
C1491 C1483 1.433 . S
C1491 N1493 1.384 . S
N1492 C1488 1.427 . S
N1492 C1489 1.384 . S
N1493 C1485 1.427 . S
N1493 C1491 1.384 . S
H1494 C1500 0.930 . S
H1495 C1504 0.930 . S
H1496 C1509 0.929 . S
H1497 C1507 0.929 . S
H1498 C1502 0.929 . S
H1499 C1508 0.929 . S
C1500 H1494 0.930 . S
C1500 C1501 1.367 . S
C1500 C1508 1.378 . S
C1501 C1500 1.367 . S
C1501 C1509 1.433 . S
C1502 H1498 0.929 . S
C1502 C1504 1.378 . S
C1502 C1506 1.350 . S
C1503 C1506 1.463 . S
C1503 C1508 1.350 . S
C1503 N1511 1.427 . S
C1504 H1495 0.930 . S
C1504 C1502 1.378 . S
C1504 C1505 1.367 . S
C1505 C1504 1.367 . S
C1505 C1507 1.433 . S
C1506 C1502 1.350 . S
C1506 C1503 1.463 . S
C1506 N1510 1.427 . S
C1507 H1497 0.929 . S
C1507 C1505 1.433 . S
C1507 N1510 1.384 . S
C1508 H1499 0.929 . S
C1508 C1500 1.378 . S
C1508 C1503 1.350 . S
C1509 H1496 0.929 . S
C1509 C1501 1.433 . S
C1509 N1511 1.384 . S
N1510 C1506 1.427 . S
N1510 C1507 1.384 . S
N1511 C1503 1.427 . S
N1511 C1509 1.384 . S
H1512 C1518 0.930 . S
H1513 C1522 0.930 . S
H1514 C1527 0.929 . S
H1515 C1525 0.929 . S
H1516 C1520 0.929 . S
H1517 C1526 0.929 . S
C1518 H1512 0.930 . S
C1518 C1519 1.367 . S
C1518 C1526 1.378 . S
C1519 C1518 1.367 . S
C1519 C1527 1.433 . S
C1520 H1516 0.929 . S
C1520 C1522 1.378 . S
C1520 C1524 1.350 . S
C1521 C1524 1.463 . S
C1521 C1526 1.350 . S
C1521 N1529 1.427 . S
C1522 H1513 0.930 . S
C1522 C1520 1.378 . S
C1522 C1523 1.367 . S
C1523 C1522 1.367 . S
C1523 C1525 1.433 . S
C1524 C1520 1.350 . S
C1524 C1521 1.463 . S
C1524 N1528 1.427 . S
C1525 H1515 0.929 . S
C1525 C1523 1.433 . S
C1525 N1528 1.384 . S
C1526 H1517 0.929 . S
C1526 C1518 1.378 . S
C1526 C1521 1.350 . S
C1527 H1514 0.929 . S
C1527 C1519 1.433 . S
C1527 N1529 1.384 . S
N1528 C1524 1.427 . S
N1528 C1525 1.384 . S
N1529 C1521 1.427 . S
N1529 C1527 1.384 . S
H1530 C1536 0.930 . S
H1531 C1540 0.930 . S
H1532 C1545 0.929 . S
H1533 C1543 0.929 . S
H1534 C1538 0.929 . S
H1535 C1544 0.929 . S
C1536 H1530 0.930 . S
C1536 C1537 1.367 . S
C1536 C1544 1.378 . S
C1537 C1536 1.367 . S
C1537 C1545 1.433 . S
C1538 H1534 0.929 . S
C1538 C1540 1.378 . S
C1538 C1542 1.350 . S
C1539 C1542 1.463 . S
C1539 C1544 1.350 . S
C1539 N1547 1.427 . S
C1540 H1531 0.930 . S
C1540 C1538 1.378 . S
C1540 C1541 1.367 . S
C1541 C1540 1.367 . S
C1541 C1543 1.433 . S
C1542 C1538 1.350 . S
C1542 C1539 1.463 . S
C1542 N1546 1.427 . S
C1543 H1533 0.929 . S
C1543 C1541 1.433 . S
C1543 N1546 1.384 . S
C1544 H1535 0.929 . S
C1544 C1536 1.378 . S
C1544 C1539 1.350 . S
C1545 H1532 0.929 . S
C1545 C1537 1.433 . S
C1545 N1547 1.384 . S
N1546 C1542 1.427 . S
N1546 C1543 1.384 . S
N1547 C1539 1.427 . S
N1547 C1545 1.384 . S
H1548 C1554 0.930 . S
H1549 C1558 0.930 . S
H1550 C1563 0.929 . S
H1551 C1561 0.929 . S
H1552 C1556 0.929 . S
H1553 C1562 0.929 . S
C1554 H1548 0.930 . S
C1554 C1555 1.367 . S
C1554 C1562 1.378 . S
C1555 C1554 1.367 . S
C1555 C1563 1.433 . S
C1556 H1552 0.929 . S
C1556 C1558 1.378 . S
C1556 C1560 1.350 . S
C1557 C1560 1.463 . S
C1557 C1562 1.350 . S
C1557 N1565 1.427 . S
C1558 H1549 0.930 . S
C1558 C1556 1.378 . S
C1558 C1559 1.367 . S
C1559 C1558 1.367 . S
C1559 C1561 1.433 . S
C1560 C1556 1.350 . S
C1560 C1557 1.463 . S
C1560 N1564 1.427 . S
C1561 H1551 0.929 . S
C1561 C1559 1.433 . S
C1561 N1564 1.384 . S
C1562 H1553 0.929 . S
C1562 C1554 1.378 . S
C1562 C1557 1.350 . S
C1563 H1550 0.929 . S
C1563 C1555 1.433 . S
C1563 N1565 1.384 . S
N1564 C1560 1.427 . S
N1564 C1561 1.384 . S
N1565 C1557 1.427 . S
N1565 C1563 1.384 . S
H1566 C1572 0.930 . S
H1567 C1576 0.930 . S
H1568 C1581 0.929 . S
H1569 C1579 0.929 . S
H1570 C1574 0.929 . S
H1571 C1580 0.929 . S
C1572 H1566 0.930 . S
C1572 C1573 1.367 . S
C1572 C1580 1.378 . S
C1573 C1572 1.367 . S
C1573 C1581 1.433 1_655 S
C1574 H1570 0.929 . S
C1574 C1576 1.378 . S
C1574 C1578 1.350 1_455 S
C1575 C1578 1.463 . S
C1575 C1580 1.350 . S
C1575 N1583 1.427 1_655 S
C1576 H1567 0.930 . S
C1576 C1574 1.378 . S
C1576 C1577 1.367 1_455 S
C1577 C1576 1.367 1_655 S
C1577 C1579 1.433 . S
C1578 C1574 1.350 1_655 S
C1578 C1575 1.463 . S
C1578 N1582 1.427 . S
C1579 H1569 0.929 . S
C1579 C1577 1.433 . S
C1579 N1582 1.384 . S
C1580 H1571 0.929 . S
C1580 C1572 1.378 . S
C1580 C1575 1.350 . S
C1581 H1568 0.929 . S
C1581 C1573 1.433 1_455 S
C1581 N1583 1.384 . S
N1582 C1578 1.427 . S
N1582 C1579 1.384 . S
N1583 C1575 1.427 1_455 S
N1583 C1581 1.384 . S
H1584 C1590 0.930 . S
H1585 C1594 0.930 . S
H1586 C1599 0.929 . S
H1587 C1597 0.929 . S
H1588 C1592 0.929 . S
H1589 C1598 0.929 . S
C1590 H1584 0.930 . S
C1590 C1591 1.367 . S
C1590 C1598 1.378 . S
C1591 C1590 1.367 . S
C1591 C1599 1.433 . S
C1592 H1588 0.929 . S
C1592 C1594 1.378 . S
C1592 C1596 1.350 . S
C1593 C1596 1.463 . S
C1593 C1598 1.350 . S
C1593 N1601 1.427 . S
C1594 H1585 0.930 . S
C1594 C1592 1.378 . S
C1594 C1595 1.367 . S
C1595 C1594 1.367 . S
C1595 C1597 1.433 . S
C1596 C1592 1.350 . S
C1596 C1593 1.463 . S
C1596 N1600 1.427 . S
C1597 H1587 0.929 . S
C1597 C1595 1.433 . S
C1597 N1600 1.384 . S
C1598 H1589 0.929 . S
C1598 C1590 1.378 . S
C1598 C1593 1.350 . S
C1599 H1586 0.929 . S
C1599 C1591 1.433 . S
C1599 N1601 1.384 . S
N1600 C1596 1.427 . S
N1600 C1597 1.384 . S
N1601 C1593 1.427 . S
N1601 C1599 1.384 . S
H1602 C1608 0.930 . S
H1603 C1612 0.930 1_655 S
H1604 C1617 0.929 1_655 S
H1605 C1615 0.929 . S
H1606 C1610 0.929 1_655 S
H1607 C1616 0.929 . S
C1608 H1602 0.930 . S
C1608 C1609 1.367 . S
C1608 C1616 1.378 . S
C1609 C1608 1.367 . S
C1609 C1617 1.433 . S
C1610 H1606 0.929 1_455 S
C1610 C1612 1.378 . S
C1610 C1614 1.350 . S
C1611 C1614 1.463 . S
C1611 C1616 1.350 . S
C1611 N1619 1.427 . S
C1612 H1603 0.930 1_455 S
C1612 C1610 1.378 . S
C1612 C1613 1.367 . S
C1613 C1612 1.367 . S
C1613 C1615 1.433 . S
C1614 C1610 1.350 . S
C1614 C1611 1.463 . S
C1614 N1618 1.427 . S
C1615 H1605 0.929 . S
C1615 C1613 1.433 . S
C1615 N1618 1.384 . S
C1616 H1607 0.929 . S
C1616 C1608 1.378 . S
C1616 C1611 1.350 . S
C1617 H1604 0.929 1_455 S
C1617 C1609 1.433 . S
C1617 N1619 1.384 . S
N1618 C1614 1.427 . S
N1618 C1615 1.384 . S
N1619 C1611 1.427 . S
N1619 C1617 1.384 . S
H1620 C1626 0.930 . S
H1621 C1630 0.930 . S
H1622 C1635 0.929 . S
H1623 C1633 0.929 . S
H1624 C1628 0.929 . S
H1625 C1634 0.929 . S
C1626 H1620 0.930 . S
C1626 C1627 1.367 . S
C1626 C1634 1.378 . S
C1627 C1626 1.367 . S
C1627 C1635 1.433 . S
C1628 H1624 0.929 . S
C1628 C1630 1.378 . S
C1628 C1632 1.350 . S
C1629 C1632 1.463 . S
C1629 C1634 1.350 . S
C1629 N1637 1.427 . S
C1630 H1621 0.930 . S
C1630 C1628 1.378 . S
C1630 C1631 1.367 . S
C1631 C1630 1.367 . S
C1631 C1633 1.433 . S
C1632 C1628 1.350 . S
C1632 C1629 1.463 . S
C1632 N1636 1.427 . S
C1633 H1623 0.929 . S
C1633 C1631 1.433 . S
C1633 N1636 1.384 . S
C1634 H1625 0.929 . S
C1634 C1626 1.378 . S
C1634 C1629 1.350 . S
C1635 H1622 0.929 . S
C1635 C1627 1.433 . S
C1635 N1637 1.384 . S
N1636 C1632 1.427 . S
N1636 C1633 1.384 . S
N1637 C1629 1.427 . S
N1637 C1635 1.384 . S
H1638 C1644 0.930 . S
H1639 C1648 0.930 . S
H1640 C1653 0.929 . S
H1641 C1651 0.929 . S
H1642 C1646 0.929 . S
H1643 C1652 0.929 . S
C1644 H1638 0.930 . S
C1644 C1645 1.367 1_545 S
C1644 C1652 1.378 . S
C1645 C1644 1.367 1_565 S
C1645 C1653 1.433 . S
C1646 H1642 0.929 . S
C1646 C1648 1.378 . S
C1646 C1650 1.350 . S
C1647 C1650 1.463 . S
C1647 C1652 1.350 1_565 S
C1647 N1655 1.427 . S
C1648 H1639 0.930 . S
C1648 C1646 1.378 . S
C1648 C1649 1.376 . S
C1649 C1648 1.376 . S
C1649 C1651 1.436 1_565 S
C1650 C1646 1.350 . S
C1650 C1647 1.463 . S
C1650 N1654 1.427 1_565 S
C1651 H1641 0.929 . S
C1651 C1649 1.436 1_545 S
C1651 N1654 1.384 . S
C1652 H1643 0.929 . S
C1652 C1644 1.378 . S
C1652 C1647 1.350 1_545 S
C1653 H1640 0.929 . S
C1653 C1645 1.433 . S
C1653 N1655 1.384 . S
N1654 C1650 1.427 1_545 S
N1654 C1651 1.384 . S
N1655 C1647 1.427 . S
N1655 C1653 1.384 . S
H1656 C1662 0.930 . S
H1657 C1666 0.930 . S
H1658 C1671 0.929 . S
H1659 C1669 0.929 . S
H1660 C1664 0.929 . S
H1661 C1670 0.929 . S
C1662 H1656 0.930 . S
C1662 C1663 1.367 . S
C1662 C1670 1.378 . S
C1663 C1662 1.367 . S
C1663 C1671 1.433 1_565 S
C1664 H1660 0.929 . S
C1664 C1666 1.378 . S
C1664 C1668 1.350 1_545 S
C1665 C1668 1.463 . S
C1665 C1670 1.350 . S
C1665 N1673 1.427 1_565 S
C1666 H1657 0.930 . S
C1666 C1664 1.378 . S
C1666 C1667 1.367 1_545 S
C1667 C1666 1.367 1_565 S
C1667 C1669 1.433 . S
C1668 C1664 1.350 1_565 S
C1668 C1665 1.463 . S
C1668 N1672 1.427 . S
C1669 H1659 0.929 . S
C1669 C1667 1.433 . S
C1669 N1672 1.384 . S
C1670 H1661 0.929 . S
C1670 C1662 1.378 . S
C1670 C1665 1.350 . S
C1671 H1658 0.929 . S
C1671 C1663 1.433 1_545 S
C1671 N1673 1.384 . S
N1672 C1668 1.427 . S
N1672 C1669 1.384 . S
N1673 C1665 1.427 1_545 S
N1673 C1671 1.384 . S
H1674 C1680 0.930 . S
H1675 C1684 0.930 1_655 S
H1676 C1689 0.929 1_655 S
H1677 C1687 0.929 . S
H1678 C1682 0.929 1_655 S
H1679 C1688 0.929 . S
C1680 H1674 0.930 . S
C1680 C1681 1.367 . S
C1680 C1688 1.378 . S
C1681 C1680 1.367 . S
C1681 C1689 1.433 . S
C1682 H1678 0.929 1_455 S
C1682 C1684 1.378 . S
C1682 C1686 1.350 . S
C1683 C1686 1.463 . S
C1683 C1688 1.350 . S
C1683 N1691 1.427 . S
C1684 H1675 0.930 1_455 S
C1684 C1682 1.378 . S
C1684 C1685 1.367 . S
C1685 C1684 1.367 . S
C1685 C1687 1.433 . S
C1686 C1682 1.350 . S
C1686 C1683 1.463 . S
C1686 N1690 1.427 . S
C1687 H1677 0.929 . S
C1687 C1685 1.433 . S
C1687 N1690 1.384 . S
C1688 H1679 0.929 . S
C1688 C1680 1.378 . S
C1688 C1683 1.350 . S
C1689 H1676 0.929 1_455 S
C1689 C1681 1.433 . S
C1689 N1691 1.384 . S
N1690 C1686 1.427 . S
N1690 C1687 1.384 . S
N1691 C1683 1.427 . S
N1691 C1689 1.384 . S
H1692 C1698 0.930 . S
H1693 C1702 0.930 . S
H1694 C1707 0.929 . S
H1695 C1705 0.929 . S
H1696 C1700 0.929 . S
H1697 C1706 0.929 . S
C1698 H1692 0.930 . S
C1698 C1699 1.367 . S
C1698 C1706 1.378 . S
C1699 C1698 1.367 . S
C1699 C1707 1.433 . S
C1700 H1696 0.929 . S
C1700 C1702 1.378 . S
C1700 C1704 1.350 . S
C1701 C1704 1.463 . S
C1701 C1706 1.350 . S
C1701 N1709 1.427 . S
C1702 H1693 0.930 . S
C1702 C1700 1.378 . S
C1702 C1703 1.367 . S
C1703 C1702 1.367 . S
C1703 C1705 1.433 . S
C1704 C1700 1.350 . S
C1704 C1701 1.463 . S
C1704 N1708 1.427 . S
C1705 H1695 0.929 . S
C1705 C1703 1.433 . S
C1705 N1708 1.384 . S
C1706 H1697 0.929 . S
C1706 C1698 1.378 . S
C1706 C1701 1.350 . S
C1707 H1694 0.929 . S
C1707 C1699 1.433 . S
C1707 N1709 1.384 . S
N1708 C1704 1.427 . S
N1708 C1705 1.384 . S
N1709 C1701 1.427 . S
N1709 C1707 1.384 . S
H1710 C1716 0.930 . S
H1711 C1720 0.930 . S
H1712 C1725 0.929 . S
H1713 C1723 0.929 . S
H1714 C1718 0.929 . S
H1715 C1724 0.929 . S
C1716 H1710 0.930 . S
C1716 C1717 1.367 1_455 S
C1716 C1724 1.378 . S
C1717 C1716 1.367 1_655 S
C1717 C1725 1.433 . S
C1718 H1714 0.929 . S
C1718 C1720 1.378 . S
C1718 C1722 1.350 . S
C1719 C1722 1.463 . S
C1719 C1724 1.350 1_655 S
C1719 N1727 1.427 . S
C1720 H1711 0.930 . S
C1720 C1718 1.378 . S
C1720 C1721 1.367 . S
C1721 C1720 1.367 . S
C1721 C1723 1.433 1_655 S
C1722 C1718 1.350 . S
C1722 C1719 1.463 . S
C1722 N1726 1.427 1_655 S
C1723 H1713 0.929 . S
C1723 C1721 1.433 1_455 S
C1723 N1726 1.384 . S
C1724 H1715 0.929 . S
C1724 C1716 1.378 . S
C1724 C1719 1.350 1_455 S
C1725 H1712 0.929 . S
C1725 C1717 1.433 . S
C1725 N1727 1.384 . S
N1726 C1722 1.427 1_455 S
N1726 C1723 1.384 . S
N1727 C1719 1.427 . S
N1727 C1725 1.384 . S
H1728 C1734 0.930 . S
H1729 C1738 0.930 . S
H1730 C1743 0.929 . S
H1731 C1741 0.929 . S
H1732 C1736 0.929 . S
H1733 C1742 0.929 . S
C1734 H1728 0.930 . S
C1734 C1735 1.367 . S
C1734 C1742 1.378 . S
C1735 C1734 1.367 . S
C1735 C1743 1.433 . S
C1736 H1732 0.929 . S
C1736 C1738 1.378 . S
C1736 C1740 1.350 . S
C1737 C1740 1.463 . S
C1737 C1742 1.350 . S
C1737 N1745 1.427 . S
C1738 H1729 0.930 . S
C1738 C1736 1.378 . S
C1738 C1739 1.367 . S
C1739 C1738 1.367 . S
C1739 C1741 1.433 . S
C1740 C1736 1.350 . S
C1740 C1737 1.463 . S
C1740 N1744 1.427 . S
C1741 H1731 0.929 . S
C1741 C1739 1.433 . S
C1741 N1744 1.384 . S
C1742 H1733 0.929 . S
C1742 C1734 1.378 . S
C1742 C1737 1.350 . S
C1743 H1730 0.929 . S
C1743 C1735 1.433 . S
C1743 N1745 1.384 . S
N1744 C1740 1.427 . S
N1744 C1741 1.384 . S
N1745 C1737 1.427 . S
N1745 C1743 1.384 . S
H1746 C1752 0.930 1_565 S
H1747 C1756 0.930 . S
H1748 C1761 0.929 . S
H1749 C1759 0.929 1_565 S
H1750 C1754 0.929 . S
H1751 C1760 0.929 1_565 S
C1752 H1746 0.930 1_545 S
C1752 C1753 1.367 . S
C1752 C1760 1.378 . S
C1753 C1752 1.367 . S
C1753 C1761 1.433 . S
C1754 H1750 0.929 . S
C1754 C1756 1.378 . S
C1754 C1758 1.350 . S
C1755 C1758 1.463 . S
C1755 C1760 1.350 . S
C1755 N1763 1.427 . S
C1756 H1747 0.930 . S
C1756 C1754 1.378 . S
C1756 C1757 1.367 . S
C1757 C1756 1.367 . S
C1757 C1759 1.433 . S
C1758 C1754 1.350 . S
C1758 C1755 1.463 . S
C1758 N1762 1.427 . S
C1759 H1749 0.929 1_545 S
C1759 C1757 1.433 . S
C1759 N1762 1.384 . S
C1760 H1751 0.929 1_545 S
C1760 C1752 1.378 . S
C1760 C1755 1.350 . S
C1761 H1748 0.929 . S
C1761 C1753 1.433 . S
C1761 N1763 1.384 . S
N1762 C1758 1.427 . S
N1762 C1759 1.384 . S
N1763 C1755 1.427 . S
N1763 C1761 1.384 . S
H1764 C1770 0.930 . S
H1765 C1774 0.930 . S
H1766 C1779 0.929 . S
H1767 C1777 0.929 . S
H1768 C1772 0.929 . S
H1769 C1778 0.929 . S
C1770 H1764 0.930 . S
C1770 C1771 1.367 . S
C1770 C1778 1.378 . S
C1771 C1770 1.367 . S
C1771 C1779 1.433 . S
C1772 H1768 0.929 . S
C1772 C1774 1.378 . S
C1772 C1776 1.350 . S
C1773 C1776 1.463 . S
C1773 C1778 1.350 . S
C1773 N1781 1.427 . S
C1774 H1765 0.930 . S
C1774 C1772 1.378 . S
C1774 C1775 1.367 . S
C1775 C1774 1.367 . S
C1775 C1777 1.433 . S
C1776 C1772 1.350 . S
C1776 C1773 1.463 . S
C1776 N1780 1.427 . S
C1777 H1767 0.929 . S
C1777 C1775 1.433 . S
C1777 N1780 1.384 . S
C1778 H1769 0.929 . S
C1778 C1770 1.378 . S
C1778 C1773 1.350 . S
C1779 H1766 0.929 . S
C1779 C1771 1.433 . S
C1779 N1781 1.384 . S
N1780 C1776 1.427 . S
N1780 C1777 1.384 . S
N1781 C1773 1.427 . S
N1781 C1779 1.384 . S
H1782 C1788 0.930 . S
H1783 C1792 0.930 . S
H1784 C1797 0.929 . S
H1785 C1795 0.929 . S
H1786 C1790 0.929 . S
H1787 C1796 0.929 . S
C1788 H1782 0.930 . S
C1788 C1789 1.367 . S
C1788 C1796 1.378 . S
C1789 C1788 1.367 . S
C1789 C1797 1.433 . S
C1790 H1786 0.929 . S
C1790 C1792 1.378 . S
C1790 C1794 1.350 . S
C1791 C1794 1.463 . S
C1791 C1796 1.350 . S
C1791 N1799 1.427 . S
C1792 H1783 0.930 . S
C1792 C1790 1.378 . S
C1792 C1793 1.367 . S
C1793 C1792 1.367 . S
C1793 C1795 1.433 . S
C1794 C1790 1.350 . S
C1794 C1791 1.463 . S
C1794 N1798 1.427 . S
C1795 H1785 0.929 . S
C1795 C1793 1.433 . S
C1795 N1798 1.384 . S
C1796 H1787 0.929 . S
C1796 C1788 1.378 . S
C1796 C1791 1.350 . S
C1797 H1784 0.929 . S
C1797 C1789 1.433 . S
C1797 N1799 1.384 . S
N1798 C1794 1.427 . S
N1798 C1795 1.384 . S
N1799 C1791 1.427 . S
N1799 C1797 1.384 . S
H1800 C1806 0.930 . S
H1801 C1810 0.930 . S
H1802 C1815 0.929 . S
H1803 C1813 0.929 . S
H1804 C1808 0.929 . S
H1805 C1814 0.929 . S
C1806 H1800 0.930 . S
C1806 C1807 1.367 . S
C1806 C1814 1.378 . S
C1807 C1806 1.367 . S
C1807 C1815 1.433 . S
C1808 H1804 0.929 . S
C1808 C1810 1.378 . S
C1808 C1812 1.350 . S
C1809 C1812 1.463 . S
C1809 C1814 1.350 . S
C1809 N1817 1.427 . S
C1810 H1801 0.930 . S
C1810 C1808 1.378 . S
C1810 C1811 1.367 . S
C1811 C1810 1.367 . S
C1811 C1813 1.433 . S
C1812 C1808 1.350 . S
C1812 C1809 1.463 . S
C1812 N1816 1.427 . S
C1813 H1803 0.929 . S
C1813 C1811 1.433 . S
C1813 N1816 1.384 . S
C1814 H1805 0.929 . S
C1814 C1806 1.378 . S
C1814 C1809 1.350 . S
C1815 H1802 0.929 . S
C1815 C1807 1.433 . S
C1815 N1817 1.384 . S
N1816 C1812 1.427 . S
N1816 C1813 1.384 . S
N1817 C1809 1.427 . S
N1817 C1815 1.384 . S
H1818 C1824 0.930 . S
H1819 C1828 0.930 . S
H1820 C1833 0.929 . S
H1821 C1831 0.929 . S
H1822 C1826 0.929 . S
H1823 C1832 0.929 . S
C1824 H1818 0.930 . S
C1824 C1825 1.367 . S
C1824 C1832 1.378 . S
C1825 C1824 1.367 . S
C1825 C1833 1.433 . S
C1826 H1822 0.929 . S
C1826 C1828 1.378 . S
C1826 C1830 1.350 . S
C1827 C1830 1.463 . S
C1827 C1832 1.350 . S
C1827 N1835 1.427 . S
C1828 H1819 0.930 . S
C1828 C1826 1.378 . S
C1828 C1829 1.367 . S
C1829 C1828 1.367 . S
C1829 C1831 1.433 . S
C1830 C1826 1.350 . S
C1830 C1827 1.463 . S
C1830 N1834 1.427 . S
C1831 H1821 0.929 . S
C1831 C1829 1.433 . S
C1831 N1834 1.384 . S
C1832 H1823 0.929 . S
C1832 C1824 1.378 . S
C1832 C1827 1.350 . S
C1833 H1820 0.929 . S
C1833 C1825 1.433 . S
C1833 N1835 1.384 . S
N1834 C1830 1.427 . S
N1834 C1831 1.384 . S
N1835 C1827 1.427 . S
N1835 C1833 1.384 . S
H1836 C1842 0.930 . S
H1837 C1846 0.930 . S
H1838 C1851 0.929 . S
H1839 C1849 0.929 . S
H1840 C1844 0.929 . S
H1841 C1850 0.929 . S
C1842 H1836 0.930 . S
C1842 C1843 1.367 . S
C1842 C1850 1.378 . S
C1843 C1842 1.367 . S
C1843 C1851 1.433 . S
C1844 H1840 0.929 . S
C1844 C1846 1.378 . S
C1844 C1848 1.350 . S
C1845 C1848 1.463 . S
C1845 C1850 1.350 . S
C1845 N1853 1.427 . S
C1846 H1837 0.930 . S
C1846 C1844 1.378 . S
C1846 C1847 1.367 . S
C1847 C1846 1.367 . S
C1847 C1849 1.433 . S
C1848 C1844 1.350 . S
C1848 C1845 1.463 . S
C1848 N1852 1.427 . S
C1849 H1839 0.929 . S
C1849 C1847 1.433 . S
C1849 N1852 1.384 . S
C1850 H1841 0.929 . S
C1850 C1842 1.378 . S
C1850 C1845 1.350 . S
C1851 H1838 0.929 . S
C1851 C1843 1.433 . S
C1851 N1853 1.384 . S
N1852 C1848 1.427 . S
N1852 C1849 1.384 . S
N1853 C1845 1.427 . S
N1853 C1851 1.384 . S
H1854 C1860 0.930 . S
H1855 C1864 0.930 . S
H1856 C1869 0.929 . S
H1857 C1867 0.929 . S
H1858 C1862 0.929 . S
H1859 C1868 0.929 . S
C1860 H1854 0.930 . S
C1860 C1861 1.367 . S
C1860 C1868 1.378 . S
C1861 C1860 1.367 . S
C1861 C1869 1.433 . S
C1862 H1858 0.929 . S
C1862 C1864 1.378 . S
C1862 C1866 1.350 . S
C1863 C1866 1.463 . S
C1863 C1868 1.350 . S
C1863 N1871 1.427 . S
C1864 H1855 0.930 . S
C1864 C1862 1.378 . S
C1864 C1865 1.367 . S
C1865 C1864 1.367 . S
C1865 C1867 1.433 . S
C1866 C1862 1.350 . S
C1866 C1863 1.463 . S
C1866 N1870 1.427 . S
C1867 H1857 0.929 . S
C1867 C1865 1.433 . S
C1867 N1870 1.384 . S
C1868 H1859 0.929 . S
C1868 C1860 1.378 . S
C1868 C1863 1.350 . S
C1869 H1856 0.929 . S
C1869 C1861 1.433 . S
C1869 N1871 1.384 . S
N1870 C1866 1.427 . S
N1870 C1867 1.384 . S
N1871 C1863 1.427 . S
N1871 C1869 1.384 . S
H1872 C1878 0.930 . S
H1873 C1882 0.930 . S
H1874 C1887 0.929 . S
H1875 C1885 0.929 . S
H1876 C1880 0.929 . S
H1877 C1886 0.929 . S
C1878 H1872 0.930 . S
C1878 C1879 1.367 . S
C1878 C1886 1.378 . S
C1879 C1878 1.367 . S
C1879 C1887 1.433 . S
C1880 H1876 0.929 . S
C1880 C1882 1.378 . S
C1880 C1884 1.350 . S
C1881 C1884 1.463 . S
C1881 C1886 1.350 . S
C1881 N1889 1.427 . S
C1882 H1873 0.930 . S
C1882 C1880 1.378 . S
C1882 C1883 1.367 . S
C1883 C1882 1.367 . S
C1883 C1885 1.433 . S
C1884 C1880 1.350 . S
C1884 C1881 1.463 . S
C1884 N1888 1.427 . S
C1885 H1875 0.929 . S
C1885 C1883 1.433 . S
C1885 N1888 1.384 . S
C1886 H1877 0.929 . S
C1886 C1878 1.378 . S
C1886 C1881 1.350 . S
C1887 H1874 0.929 . S
C1887 C1879 1.433 . S
C1887 N1889 1.384 . S
N1888 C1884 1.427 . S
N1888 C1885 1.384 . S
N1889 C1881 1.427 . S
N1889 C1887 1.384 . S
H1890 C1896 0.930 . S
H1891 C1900 0.930 . S
H1892 C1905 0.929 . S
H1893 C1903 0.929 . S
H1894 C1898 0.929 . S
H1895 C1904 0.929 . S
C1896 H1890 0.930 . S
C1896 C1897 1.367 . S
C1896 C1904 1.378 . S
C1897 C1896 1.367 . S
C1897 C1905 1.433 . S
C1898 H1894 0.929 . S
C1898 C1900 1.378 . S
C1898 C1902 1.350 . S
C1899 C1902 1.463 . S
C1899 C1904 1.350 . S
C1899 N1907 1.427 . S
C1900 H1891 0.930 . S
C1900 C1898 1.378 . S
C1900 C1901 1.367 . S
C1901 C1900 1.367 . S
C1901 C1903 1.433 . S
C1902 C1898 1.350 . S
C1902 C1899 1.463 . S
C1902 N1906 1.427 . S
C1903 H1893 0.929 . S
C1903 C1901 1.433 . S
C1903 N1906 1.384 . S
C1904 H1895 0.929 . S
C1904 C1896 1.378 . S
C1904 C1899 1.350 . S
C1905 H1892 0.929 . S
C1905 C1897 1.433 . S
C1905 N1907 1.384 . S
N1906 C1902 1.427 . S
N1906 C1903 1.384 . S
N1907 C1899 1.427 . S
N1907 C1905 1.384 . S
H1908 C1914 0.930 . S
H1909 C1918 0.930 . S
H1910 C1923 0.929 . S
H1911 C1921 0.929 . S
H1912 C1916 0.929 . S
H1913 C1922 0.929 . S
C1914 H1908 0.930 . S
C1914 C1915 1.367 . S
C1914 C1922 1.378 . S
C1915 C1914 1.367 . S
C1915 C1923 1.433 . S
C1916 H1912 0.929 . S
C1916 C1918 1.378 . S
C1916 C1920 1.350 . S
C1917 C1920 1.463 . S
C1917 C1922 1.350 . S
C1917 N1925 1.427 . S
C1918 H1909 0.930 . S
C1918 C1916 1.378 . S
C1918 C1919 1.367 . S
C1919 C1918 1.367 . S
C1919 C1921 1.433 . S
C1920 C1916 1.350 . S
C1920 C1917 1.463 . S
C1920 N1924 1.427 . S
C1921 H1911 0.929 . S
C1921 C1919 1.433 . S
C1921 N1924 1.384 . S
C1922 H1913 0.929 . S
C1922 C1914 1.378 . S
C1922 C1917 1.350 . S
C1923 H1910 0.929 . S
C1923 C1915 1.433 . S
C1923 N1925 1.384 . S
N1924 C1920 1.427 . S
N1924 C1921 1.384 . S
N1925 C1917 1.427 . S
N1925 C1923 1.384 . S
H1926 C1932 0.930 . S
H1927 C1936 0.930 . S
H1928 C1941 0.929 . S
H1929 C1939 0.929 . S
H1930 C1934 0.929 . S
H1931 C1940 0.929 . S
C1932 H1926 0.930 . S
C1932 C1933 1.367 . S
C1932 C1940 1.378 . S
C1933 C1932 1.367 . S
C1933 C1941 1.433 . S
C1934 H1930 0.929 . S
C1934 C1936 1.378 . S
C1934 C1938 1.350 . S
C1935 C1938 1.463 . S
C1935 C1940 1.350 . S
C1935 N1943 1.427 . S
C1936 H1927 0.930 . S
C1936 C1934 1.378 . S
C1936 C1937 1.367 . S
C1937 C1936 1.367 . S
C1937 C1939 1.433 . S
C1938 C1934 1.350 . S
C1938 C1935 1.463 . S
C1938 N1942 1.427 . S
C1939 H1929 0.929 . S
C1939 C1937 1.433 . S
C1939 N1942 1.384 . S
C1940 H1931 0.929 . S
C1940 C1932 1.378 . S
C1940 C1935 1.350 . S
C1941 H1928 0.929 . S
C1941 C1933 1.433 . S
C1941 N1943 1.384 . S
N1942 C1938 1.427 . S
N1942 C1939 1.384 . S
N1943 C1935 1.427 . S
N1943 C1941 1.384 . S
H1944 C1950 0.930 . S
H1945 C1954 0.930 . S
H1946 C1959 0.929 . S
H1947 C1957 0.929 . S
H1948 C1952 0.929 . S
H1949 C1958 0.929 . S
C1950 H1944 0.930 . S
C1950 C1951 1.367 . S
C1950 C1958 1.378 . S
C1951 C1950 1.367 . S
C1951 C1959 1.433 . S
C1952 H1948 0.929 . S
C1952 C1954 1.378 . S
C1952 C1956 1.350 . S
C1953 C1956 1.463 . S
C1953 C1958 1.350 . S
C1953 N1961 1.427 . S
C1954 H1945 0.930 . S
C1954 C1952 1.378 . S
C1954 C1955 1.367 . S
C1955 C1954 1.367 . S
C1955 C1957 1.433 . S
C1956 C1952 1.350 . S
C1956 C1953 1.463 . S
C1956 N1960 1.427 . S
C1957 H1947 0.929 . S
C1957 C1955 1.433 . S
C1957 N1960 1.384 . S
C1958 H1949 0.929 . S
C1958 C1950 1.378 . S
C1958 C1953 1.350 . S
C1959 H1946 0.929 . S
C1959 C1951 1.433 . S
C1959 N1961 1.384 . S
N1960 C1956 1.427 . S
N1960 C1957 1.384 . S
N1961 C1953 1.427 . S
N1961 C1959 1.384 . S
H1962 C1968 0.930 . S
H1963 C1972 0.930 . S
H1964 C1977 0.929 . S
H1965 C1975 0.929 . S
H1966 C1970 0.929 . S
H1967 C1976 0.929 . S
C1968 H1962 0.930 . S
C1968 C1969 1.367 . S
C1968 C1976 1.378 . S
C1969 C1968 1.367 . S
C1969 C1977 1.433 . S
C1970 H1966 0.929 . S
C1970 C1972 1.378 . S
C1970 C1974 1.350 . S
C1971 C1974 1.463 . S
C1971 C1976 1.350 . S
C1971 N1979 1.427 . S
C1972 H1963 0.930 . S
C1972 C1970 1.378 . S
C1972 C1973 1.367 . S
C1973 C1972 1.367 . S
C1973 C1975 1.433 . S
C1974 C1970 1.350 . S
C1974 C1971 1.463 . S
C1974 N1978 1.427 . S
C1975 H1965 0.929 . S
C1975 C1973 1.433 . S
C1975 N1978 1.384 . S
C1976 H1967 0.929 . S
C1976 C1968 1.378 . S
C1976 C1971 1.350 . S
C1977 H1964 0.929 . S
C1977 C1969 1.433 . S
C1977 N1979 1.384 . S
N1978 C1974 1.427 . S
N1978 C1975 1.384 . S
N1979 C1971 1.427 . S
N1979 C1977 1.384 . S
H1980 C1986 0.930 . S
H1981 C1990 0.930 . S
H1982 C1995 0.929 . S
H1983 C1993 0.929 . S
H1984 C1988 0.929 . S
H1985 C1994 0.929 . S
C1986 H1980 0.930 . S
C1986 C1987 1.367 . S
C1986 C1994 1.378 . S
C1987 C1986 1.367 . S
C1987 C1995 1.433 . S
C1988 H1984 0.929 . S
C1988 C1990 1.378 . S
C1988 C1992 1.350 . S
C1989 C1992 1.463 . S
C1989 C1994 1.350 . S
C1989 N1997 1.427 . S
C1990 H1981 0.930 . S
C1990 C1988 1.378 . S
C1990 C1991 1.367 . S
C1991 C1990 1.367 . S
C1991 C1993 1.433 . S
C1992 C1988 1.350 . S
C1992 C1989 1.463 . S
C1992 N1996 1.427 . S
C1993 H1983 0.929 . S
C1993 C1991 1.433 . S
C1993 N1996 1.384 . S
C1994 H1985 0.929 . S
C1994 C1986 1.378 . S
C1994 C1989 1.350 . S
C1995 H1982 0.929 . S
C1995 C1987 1.433 . S
C1995 N1997 1.384 . S
N1996 C1992 1.427 . S
N1996 C1993 1.384 . S
N1997 C1989 1.427 . S
N1997 C1995 1.384 . S
H1998 C2004 0.930 . S
H1999 C2008 0.930 . S
H2000 C2013 0.929 . S
H2001 C2011 0.929 . S
H2002 C2006 0.929 . S
H2003 C2012 0.929 . S
C2004 H1998 0.930 . S
C2004 C2005 1.367 . S
C2004 C2012 1.378 . S
C2005 C2004 1.367 . S
C2005 C2013 1.433 . S
C2006 H2002 0.929 . S
C2006 C2008 1.378 . S
C2006 C2010 1.350 . S
C2007 C2010 1.463 . S
C2007 C2012 1.350 . S
C2007 N2015 1.427 . S
C2008 H1999 0.930 . S
C2008 C2006 1.378 . S
C2008 C2009 1.367 . S
C2009 C2008 1.367 . S
C2009 C2011 1.433 . S
C2010 C2006 1.350 . S
C2010 C2007 1.463 . S
C2010 N2014 1.427 . S
C2011 H2001 0.929 . S
C2011 C2009 1.433 . S
C2011 N2014 1.384 . S
C2012 H2003 0.929 . S
C2012 C2004 1.378 . S
C2012 C2007 1.350 . S
C2013 H2000 0.929 . S
C2013 C2005 1.433 . S
C2013 N2015 1.384 . S
N2014 C2010 1.427 . S
N2014 C2011 1.384 . S
N2015 C2007 1.427 . S
N2015 C2013 1.384 . S
H2016 C2022 0.930 . S
H2017 C2026 0.930 . S
H2018 C2031 0.929 . S
H2019 C2029 0.929 . S
H2020 C2024 0.929 . S
H2021 C2030 0.929 . S
C2022 H2016 0.930 . S
C2022 C2023 1.367 . S
C2022 C2030 1.378 . S
C2023 C2022 1.367 . S
C2023 C2031 1.433 . S
C2024 H2020 0.929 . S
C2024 C2026 1.378 . S
C2024 C2028 1.350 . S
C2025 C2028 1.463 . S
C2025 C2030 1.350 . S
C2025 N2033 1.427 . S
C2026 H2017 0.930 . S
C2026 C2024 1.378 . S
C2026 C2027 1.367 . S
C2027 C2026 1.367 . S
C2027 C2029 1.433 . S
C2028 C2024 1.350 . S
C2028 C2025 1.463 . S
C2028 N2032 1.427 . S
C2029 H2019 0.929 . S
C2029 C2027 1.433 . S
C2029 N2032 1.384 . S
C2030 H2021 0.929 . S
C2030 C2022 1.378 . S
C2030 C2025 1.350 . S
C2031 H2018 0.929 . S
C2031 C2023 1.433 . S
C2031 N2033 1.384 . S
N2032 C2028 1.427 . S
N2032 C2029 1.384 . S
N2033 C2025 1.427 . S
N2033 C2031 1.384 . S
H2034 C2040 0.930 . S
H2035 C2044 0.930 . S
H2036 C2049 0.929 . S
H2037 C2047 0.929 . S
H2038 C2042 0.929 . S
H2039 C2048 0.929 . S
C2040 H2034 0.930 . S
C2040 C2041 1.367 . S
C2040 C2048 1.378 . S
C2041 C2040 1.367 . S
C2041 C2049 1.433 . S
C2042 H2038 0.929 . S
C2042 C2044 1.378 . S
C2042 C2046 1.350 . S
C2043 C2046 1.463 . S
C2043 C2048 1.350 . S
C2043 N2051 1.427 . S
C2044 H2035 0.930 . S
C2044 C2042 1.378 . S
C2044 C2045 1.367 . S
C2045 C2044 1.367 . S
C2045 C2047 1.433 . S
C2046 C2042 1.350 . S
C2046 C2043 1.463 . S
C2046 N2050 1.427 . S
C2047 H2037 0.929 . S
C2047 C2045 1.433 . S
C2047 N2050 1.384 . S
C2048 H2039 0.929 . S
C2048 C2040 1.378 . S
C2048 C2043 1.350 . S
C2049 H2036 0.929 . S
C2049 C2041 1.433 . S
C2049 N2051 1.384 . S
N2050 C2046 1.427 . S
N2050 C2047 1.384 . S
N2051 C2043 1.427 . S
N2051 C2049 1.384 . S
H2052 C2058 0.930 . S
H2053 C2062 0.930 . S
H2054 C2067 0.929 . S
H2055 C2065 0.929 . S
H2056 C2060 0.929 . S
H2057 C2066 0.929 . S
C2058 H2052 0.930 . S
C2058 C2059 1.367 . S
C2058 C2066 1.378 . S
C2059 C2058 1.367 . S
C2059 C2067 1.433 . S
C2060 H2056 0.929 . S
C2060 C2062 1.378 . S
C2060 C2064 1.350 . S
C2061 C2064 1.463 . S
C2061 C2066 1.350 . S
C2061 N2069 1.427 . S
C2062 H2053 0.930 . S
C2062 C2060 1.378 . S
C2062 C2063 1.367 . S
C2063 C2062 1.367 . S
C2063 C2065 1.433 . S
C2064 C2060 1.350 . S
C2064 C2061 1.463 . S
C2064 N2068 1.427 . S
C2065 H2055 0.929 . S
C2065 C2063 1.433 . S
C2065 N2068 1.384 . S
C2066 H2057 0.929 . S
C2066 C2058 1.378 . S
C2066 C2061 1.350 . S
C2067 H2054 0.929 . S
C2067 C2059 1.433 . S
C2067 N2069 1.384 . S
N2068 C2064 1.427 . S
N2068 C2065 1.384 . S
N2069 C2061 1.427 . S
N2069 C2067 1.384 . S
H2070 C2076 0.930 . S
H2071 C2080 0.930 . S
H2072 C2085 0.929 . S
H2073 C2083 0.929 . S
H2074 C2078 0.929 . S
H2075 C2084 0.929 . S
C2076 H2070 0.930 . S
C2076 C2077 1.367 . S
C2076 C2084 1.378 . S
C2077 C2076 1.367 . S
C2077 C2085 1.433 . S
C2078 H2074 0.929 . S
C2078 C2080 1.378 . S
C2078 C2082 1.350 . S
C2079 C2082 1.463 . S
C2079 C2084 1.350 . S
C2079 N2087 1.427 . S
C2080 H2071 0.930 . S
C2080 C2078 1.378 . S
C2080 C2081 1.367 . S
C2081 C2080 1.367 . S
C2081 C2083 1.433 . S
C2082 C2078 1.350 . S
C2082 C2079 1.463 . S
C2082 N2086 1.427 . S
C2083 H2073 0.929 . S
C2083 C2081 1.433 . S
C2083 N2086 1.384 . S
C2084 H2075 0.929 . S
C2084 C2076 1.378 . S
C2084 C2079 1.350 . S
C2085 H2072 0.929 . S
C2085 C2077 1.433 . S
C2085 N2087 1.384 . S
N2086 C2082 1.427 . S
N2086 C2083 1.384 . S
N2087 C2079 1.427 . S
N2087 C2085 1.384 . S
H2088 C2094 0.930 . S
H2089 C2098 0.930 . S
H2090 C2103 0.929 . S
H2091 C2101 0.929 . S
H2092 C2096 0.929 . S
H2093 C2102 0.929 . S
C2094 H2088 0.930 . S
C2094 C2095 1.367 . S
C2094 C2102 1.378 . S
C2095 C2094 1.367 . S
C2095 C2103 1.433 . S
C2096 H2092 0.929 . S
C2096 C2098 1.378 . S
C2096 C2100 1.350 . S
C2097 C2100 1.463 . S
C2097 C2102 1.350 . S
C2097 N2105 1.427 . S
C2098 H2089 0.930 . S
C2098 C2096 1.378 . S
C2098 C2099 1.367 . S
C2099 C2098 1.367 . S
C2099 C2101 1.433 . S
C2100 C2096 1.350 . S
C2100 C2097 1.463 . S
C2100 N2104 1.427 . S
C2101 H2091 0.929 . S
C2101 C2099 1.433 . S
C2101 N2104 1.384 . S
C2102 H2093 0.929 . S
C2102 C2094 1.378 . S
C2102 C2097 1.350 . S
C2103 H2090 0.929 . S
C2103 C2095 1.433 . S
C2103 N2105 1.384 . S
N2104 C2100 1.427 . S
N2104 C2101 1.384 . S
N2105 C2097 1.427 . S
N2105 C2103 1.384 . S
H2106 C2112 0.930 . S
H2107 C2116 0.930 . S
H2108 C2121 0.929 . S
H2109 C2119 0.929 . S
H2110 C2114 0.929 . S
H2111 C2120 0.929 . S
C2112 H2106 0.930 . S
C2112 C2113 1.367 . S
C2112 C2120 1.378 . S
C2113 C2112 1.367 . S
C2113 C2121 1.433 . S
C2114 H2110 0.929 . S
C2114 C2116 1.378 . S
C2114 C2118 1.350 . S
C2115 C2118 1.463 . S
C2115 C2120 1.350 . S
C2115 N2123 1.427 . S
C2116 H2107 0.930 . S
C2116 C2114 1.378 . S
C2116 C2117 1.367 . S
C2117 C2116 1.367 . S
C2117 C2119 1.433 . S
C2118 C2114 1.350 . S
C2118 C2115 1.463 . S
C2118 N2122 1.427 . S
C2119 H2109 0.929 . S
C2119 C2117 1.433 . S
C2119 N2122 1.384 . S
C2120 H2111 0.929 . S
C2120 C2112 1.378 . S
C2120 C2115 1.350 . S
C2121 H2108 0.929 . S
C2121 C2113 1.433 . S
C2121 N2123 1.384 . S
N2122 C2118 1.427 . S
N2122 C2119 1.384 . S
N2123 C2115 1.427 . S
N2123 C2121 1.384 . S
H2124 C2130 0.930 . S
H2125 C2134 0.930 . S
H2126 C2139 0.929 . S
H2127 C2137 0.929 . S
H2128 C2132 0.929 . S
H2129 C2138 0.929 . S
C2130 H2124 0.930 . S
C2130 C2131 1.367 . S
C2130 C2138 1.378 . S
C2131 C2130 1.367 . S
C2131 C2139 1.433 . S
C2132 H2128 0.929 . S
C2132 C2134 1.378 . S
C2132 C2136 1.350 . S
C2133 C2136 1.463 . S
C2133 C2138 1.350 . S
C2133 N2141 1.427 . S
C2134 H2125 0.930 . S
C2134 C2132 1.378 . S
C2134 C2135 1.367 . S
C2135 C2134 1.367 . S
C2135 C2137 1.433 . S
C2136 C2132 1.350 . S
C2136 C2133 1.463 . S
C2136 N2140 1.427 . S
C2137 H2127 0.929 . S
C2137 C2135 1.433 . S
C2137 N2140 1.384 . S
C2138 H2129 0.929 . S
C2138 C2130 1.378 . S
C2138 C2133 1.350 . S
C2139 H2126 0.929 . S
C2139 C2131 1.433 . S
C2139 N2141 1.384 . S
N2140 C2136 1.427 . S
N2140 C2137 1.384 . S
N2141 C2133 1.427 . S
N2141 C2139 1.384 . S
H2142 C2148 0.930 . S
H2143 C2152 0.930 . S
H2144 C2157 0.929 . S
H2145 C2155 0.929 . S
H2146 C2150 0.929 . S
H2147 C2156 0.929 . S
C2148 H2142 0.930 . S
C2148 C2149 1.367 . S
C2148 C2156 1.378 . S
C2149 C2148 1.367 . S
C2149 C2157 1.433 . S
C2150 H2146 0.929 . S
C2150 C2152 1.378 . S
C2150 C2154 1.350 . S
C2151 C2154 1.463 . S
C2151 C2156 1.350 . S
C2151 N2159 1.427 . S
C2152 H2143 0.930 . S
C2152 C2150 1.378 . S
C2152 C2153 1.367 . S
C2153 C2152 1.367 . S
C2153 C2155 1.433 . S
C2154 C2150 1.350 . S
C2154 C2151 1.463 . S
C2154 N2158 1.427 . S
C2155 H2145 0.929 . S
C2155 C2153 1.433 . S
C2155 N2158 1.384 . S
C2156 H2147 0.929 . S
C2156 C2148 1.378 . S
C2156 C2151 1.350 . S
C2157 H2144 0.929 . S
C2157 C2149 1.433 . S
C2157 N2159 1.384 . S
N2158 C2154 1.427 . S
N2158 C2155 1.384 . S
N2159 C2151 1.427 . S
N2159 C2157 1.384 . S
H2160 C2166 0.930 . S
H2161 C2170 0.930 . S
H2162 C2175 0.929 . S
H2163 C2173 0.929 . S
H2164 C2168 0.929 . S
H2165 C2174 0.929 . S
C2166 H2160 0.930 . S
C2166 C2167 1.367 . S
C2166 C2174 1.378 . S
C2167 C2166 1.367 . S
C2167 C2175 1.433 . S
C2168 H2164 0.929 . S
C2168 C2170 1.378 . S
C2168 C2172 1.350 . S
C2169 C2172 1.463 . S
C2169 C2174 1.350 . S
C2169 N2177 1.427 . S
C2170 H2161 0.930 . S
C2170 C2168 1.378 . S
C2170 C2171 1.367 . S
C2171 C2170 1.367 . S
C2171 C2173 1.433 . S
C2172 C2168 1.350 . S
C2172 C2169 1.463 . S
C2172 N2176 1.427 . S
C2173 H2163 0.929 . S
C2173 C2171 1.433 . S
C2173 N2176 1.384 . S
C2174 H2165 0.929 . S
C2174 C2166 1.378 . S
C2174 C2169 1.350 . S
C2175 H2162 0.929 . S
C2175 C2167 1.433 . S
C2175 N2177 1.384 . S
N2176 C2172 1.427 . S
N2176 C2173 1.384 . S
N2177 C2169 1.427 . S
N2177 C2175 1.384 . S
H2178 C2184 0.930 . S
H2179 C2188 0.930 . S
H2180 C2193 0.929 . S
H2181 C2191 0.929 . S
H2182 C2186 0.929 . S
H2183 C2192 0.929 . S
C2184 H2178 0.930 . S
C2184 C2185 1.367 . S
C2184 C2192 1.378 . S
C2185 C2184 1.367 . S
C2185 C2193 1.433 . S
C2186 H2182 0.929 . S
C2186 C2188 1.378 . S
C2186 C2190 1.350 . S
C2187 C2190 1.463 . S
C2187 C2192 1.350 . S
C2187 N2195 1.427 . S
C2188 H2179 0.930 . S
C2188 C2186 1.378 . S
C2188 C2189 1.367 . S
C2189 C2188 1.367 . S
C2189 C2191 1.433 . S
C2190 C2186 1.350 . S
C2190 C2187 1.463 . S
C2190 N2194 1.427 . S
C2191 H2181 0.929 . S
C2191 C2189 1.433 . S
C2191 N2194 1.384 . S
C2192 H2183 0.929 . S
C2192 C2184 1.378 . S
C2192 C2187 1.350 . S
C2193 H2180 0.929 . S
C2193 C2185 1.433 . S
C2193 N2195 1.384 . S
N2194 C2190 1.427 . S
N2194 C2191 1.384 . S
N2195 C2187 1.427 . S
N2195 C2193 1.384 . S
C907 C76 1.229 . S
C911 C652 1.095 . S
C925 C4 1.217 . S
C929 C668 1.077 . S
C947 C651 1.210 . S
C943 C38 1.349 . S
C965 C676 1.175 . S
C961 C74 1.345 . S
C979 C2 1.292 . S
C983 C685 1.156 . S
C1001 C688 1.062 . S
C997 C40 1.188 . S
C1015 C182 1.341 . S
C1019 C694 1.191 . S
C1037 C710 1.066 1_565 S
C1033 C112 1.249 . S
C1055 C693 1.070 . S
C1051 C148 1.226 . S
C1069 C184 1.216 . S
C1073 C718 1.086 . S
C1091 C727 1.164 . S
C1087 C110 1.320 . S
C1109 C730 1.136 . S
C1105 C146 1.307 . S
C1127 C739 1.097 . S
C1123 C292 1.235 . S
C1145 C751 1.077 . S
C1141 C220 1.218 . S
C1163 C748 1.187 . S
C1159 C254 1.350 . S
C1177 C290 1.343 . S
C1181 C757 1.184 . S
C1199 C756 1.163 . S
C1195 C218 1.292 . S
C1213 C256 1.188 . S
C1217 C773 1.065 . S
C1235 C778 1.187 . S
C1231 C398 1.348 . S
C1253 C794 1.084 . S
C1249 C328 1.247 . S
C1267 C364 1.224 . S
C1271 C777 1.066 . S
C1289 C802 1.083 . S
C1285 C400 1.218 . S
C1307 C811 1.165 . S
C1303 C326 1.319 . S
C1321 C362 1.298 . S
C1325 C814 1.147 . S
C1339 C508 1.239 . S
C1343 C823 1.090 . S
C1361 C835 1.076 . S
C1357 C436 1.217 . S
C1379 C832 1.202 . S
C1375 C470 1.347 . S
C1393 C506 1.352 . S
C1397 C841 1.200 . S
C1415 C840 1.148 . S
C1411 C434 1.306 . S
C1429 C472 1.188 . S
C1433 C857 1.068 . S
C1451 C862 1.180 . S
C1447 C614 1.336 . S
C1469 C878 1.113 . S
C1465 C544 1.247 . S
C1483 C580 1.223 . S
C1487 C861 1.094 . S
C1505 C883 1.054 . S
C1501 C616 1.220 . S
C1523 C882 1.191 . S
C1519 C542 1.318 . S
C1541 C899 1.144 . S
C1537 C578 1.311 . S
C1559 C664 1.433 . S
C1555 C399 1.536 . S
C1573 C338 1.532 . S
C1577 C667 1.522 . S
C1595 C655 1.423 . S
C1591 C374 1.451 . S
C1609 C626 1.480 . S
C1613 C672 1.456 . S
C1627 C543 1.626 . S
C1631 C673 1.508 . S
C1649 C689 1.375 1_565 S
C1645 C579 1.491 . S
C1667 C706 1.542 . S
C1663 C518 1.555 . S
C1685 C709 1.389 . S
C1681 C446 1.403 . S
C1699 C471 1.560 . S
C1703 C697 1.468 . S
C1721 C714 1.500 1_655 S
C1717 C291 1.594 . S
C1735 C219 1.491 . S
C1739 C715 1.384 . S
C1753 C266 1.527 . S
C1757 C731 1.498 . S
C1771 C615 1.534 . S
C1775 C735 1.448 . S
C1789 C554 1.543 . S
C1793 C752 1.527 . S
C1811 C736 1.434 . S
C1807 C590 1.455 . S
C1829 C769 1.474 . S
C1825 C194 1.495 . S
C1847 C760 1.499 . S
C1843 C111 1.623 . S
C1861 C147 1.488 . S
C1865 C772 1.395 . S
C1883 C790 1.533 . S
C1879 C86 1.558 . S
C1901 C793 1.396 . S
C1897 C14 1.408 . S
C1915 C39 1.562 . S
C1919 C781 1.454 . S
C1937 C798 1.484 . S
C1933 C507 1.594 . S
C1955 C799 1.391 . S
C1951 C435 1.487 . S
C1973 C815 1.501 . S
C1969 C482 1.518 . S
C1991 C819 1.433 . S
C1987 C183 1.535 . S
C2009 C836 1.528 . S
C2005 C122 1.542 . S
C2023 C158 1.466 . S
C2027 C820 1.432 . S
C2041 C410 1.493 1_565 S
C2045 C853 1.461 . S
C2059 C327 1.624 . S
C2063 C844 1.518 . S
C2081 C856 1.396 . S
C2077 C363 1.488 . S
C2095 C302 1.566 . S
C2099 C874 1.551 . S
C2113 C230 1.413 . S
C2117 C877 1.385 . S
C2135 C865 1.466 . S
C2131 C255 1.559 . S
C2153 C895 1.484 . S
C2149 C75 1.594 . S
C2171 C886 1.380 . S
C2167 C3 1.490 . S
C2185 C50 1.511 . S
C2189 C898 1.493 . S
